513003
  -OEChem-10302200282D
141144  0     1  0  0  0  0  0999 V2000
    2.3583    2.1735    0.0000 O   0  0  0  0  0  0  0  0  0  0  0  0
    2.6764    3.5515    0.0000 O   0  0  0  0  0  0  0  0  0  0  0  0
    5.5981    4.5000    0.0000 O   0  0  0  0  0  0  0  0  0  0  0  0
    6.4641    4.0000    0.0000 O   0  0  0  0  0  0  0  0  0  0  0  0
    4.7320    7.0000    0.0000 O   0  0  0  0  0  0  0  0  0  0  0  0
    5.5981    5.5000    0.0000 O   0  0  0  0  0  0  0  0  0  0  0  0
    9.0622    1.5000    0.0000 O   0  0  0  0  0  0  0  0  0  0  0  0
    7.3301    4.5000    0.0000 O   0  0  0  0  0  0  0  0  0  0  0  0
    8.1962   -2.0000    0.0000 O   0  0  0  0  0  0  0  0  0  0  0  0
   11.6603   -3.0000    0.0000 O   0  0  0  0  0  0  0  0  0  0  0  0
    5.5981    2.5000    0.0000 N   0  0  0  0  0  0  0  0  0  0  0  0
    3.8660    4.5000    0.0000 N   0  0  0  0  0  0  0  0  0  0  0  0
    7.3301    1.5000    0.0000 N   0  0  0  0  0  0  0  0  0  0  0  0
    9.0622    4.5000    0.0000 N   0  0  0  0  0  0  0  0  0  0  0  0
    9.0622   -0.5000    0.0000 N   0  0  0  0  0  0  0  0  0  0  0  0
    9.9282   -3.0000    0.0000 N   0  0  0  0  0  0  0  0  0  0  0  0
    4.0892    2.2340    0.0000 C   0  0  0  0  0  0  0  0  0  0  0  0
    4.8554    1.5912    0.0000 C   0  0  0  0  0  0  0  0  0  0  0  0
    3.2412    1.7041    0.0000 C   0  0  0  0  0  0  0  0  0  0  0  0
    4.4807    0.6640    0.0000 C   0  0  0  0  0  0  0  0  0  0  0  0
    3.4831    0.7337    0.0000 C   0  0  0  0  0  0  0  0  0  0  0  0
    4.7320    3.0000    0.0000 C   0  0  1  0  0  0  0  0  0  0  0  0
    3.2063    2.7034    0.0000 C   0  0  0  0  0  0  0  0  0  0  0  0
    4.7320    4.0000    0.0000 C   0  0  0  0  0  0  0  0  0  0  0  0
    6.4641    3.0000    0.0000 C   0  0  0  0  0  0  0  0  0  0  0  0
    3.8660    5.5000    0.0000 C   0  0  1  0  0  0  0  0  0  0  0  0
    7.3301    2.5000    0.0000 C   0  0  2  0  0  0  0  0  0  0  0  0
    3.0000    6.0000    0.0000 C   0  0  0  0  0  0  0  0  0  0  0  0
    3.0000    7.0000    0.0000 C   0  0  0  0  0  0  0  0  0  0  0  0
    8.1962    3.0000    0.0000 C   0  0  0  0  0  0  0  0  0  0  0  0
    4.7320    6.0000    0.0000 C   0  0  0  0  0  0  0  0  0  0  0  0
    8.1962    0.0000    0.0000 C   0  0  1  0  0  0  0  0  0  0  0  0
    7.3301   -0.5000    0.0000 C   0  0  0  0  0  0  0  0  0  0  0  0
    8.1962    1.0000    0.0000 C   0  0  0  0  0  0  0  0  0  0  0  0
    8.1962    4.0000    0.0000 C   0  0  0  0  0  0  0  0  0  0  0  0
    3.0000    8.0000    0.0000 C   0  0  0  0  0  0  0  0  0  0  0  0
    2.0000    7.0000    0.0000 C   0  0  0  0  0  0  0  0  0  0  0  0
    4.0000    7.0000    0.0000 C   0  0  0  0  0  0  0  0  0  0  0  0
    9.9757    4.0933    0.0000 C   0  0  0  0  0  0  0  0  0  0  0  0
    9.1667    5.4945    0.0000 C   0  0  0  0  0  0  0  0  0  0  0  0
   10.6449    4.8364    0.0000 C   0  0  0  0  0  0  0  0  0  0  0  0
   10.1449    5.7024    0.0000 C   0  0  0  0  0  0  0  0  0  0  0  0
    6.4641   -1.0000    0.0000 C   0  0  0  0  0  0  0  0  0  0  0  0
    6.8301    0.3660    0.0000 C   0  0  0  0  0  0  0  0  0  0  0  0
    7.8301   -1.3660    0.0000 C   0  0  0  0  0  0  0  0  0  0  0  0
    9.9282   -2.0000    0.0000 C   0  0  2  0  0  0  0  0  0  0  0  0
    9.0622   -1.5000    0.0000 C   0  0  0  0  0  0  0  0  0  0  0  0
   10.7942   -1.5000    0.0000 C   0  0  0  0  0  0  0  0  0  0  0  0
   10.7942   -4.5000    0.0000 C   0  0  0  0  0  0  0  0  0  0  0  0
   10.7942   -3.5000    0.0000 C   0  0  0  0  0  0  0  0  0  0  0  0
   10.7942   -0.5000    0.0000 C   0  0  0  0  0  0  0  0  0  0  0  0
   11.6603   -2.0000    0.0000 C   0  0  0  0  0  0  0  0  0  0  0  0
    9.0622   -3.5000    0.0000 C   0  0  0  0  0  0  0  0  0  0  0  0
   11.6603   -5.0000    0.0000 C   0  0  0  0  0  0  0  0  0  0  0  0
    9.9282   -5.0000    0.0000 C   0  0  0  0  0  0  0  0  0  0  0  0
   12.5263   -4.5000    0.0000 C   0  0  0  0  0  0  0  0  0  0  0  0
    9.9282   -6.0000    0.0000 C   0  0  0  0  0  0  0  0  0  0  0  0
   12.5263   -3.5000    0.0000 C   0  0  0  0  0  0  0  0  0  0  0  0
   10.7942   -6.5000    0.0000 C   0  0  0  0  0  0  0  0  0  0  0  0
   13.3923   -5.0000    0.0000 C   0  0  0  0  0  0  0  0  0  0  0  0
    9.0622   -6.5000    0.0000 C   0  0  0  0  0  0  0  0  0  0  0  0
   13.3923   -3.0000    0.0000 C   0  0  0  0  0  0  0  0  0  0  0  0
   10.7942   -7.5000    0.0000 C   0  0  0  0  0  0  0  0  0  0  0  0
   14.2583   -4.5000    0.0000 C   0  0  0  0  0  0  0  0  0  0  0  0
    9.0622   -7.5000    0.0000 C   0  0  0  0  0  0  0  0  0  0  0  0
   14.2583   -3.5000    0.0000 C   0  0  0  0  0  0  0  0  0  0  0  0
    9.9282   -8.0000    0.0000 C   0  0  0  0  0  0  0  0  0  0  0  0
    5.4028    1.3001    0.0000 H   0  0  0  0  0  0  0  0  0  0  0  0
    5.2021    2.1052    0.0000 H   0  0  0  0  0  0  0  0  0  0  0  0
    2.9694    2.2613    0.0000 H   0  0  0  0  0  0  0  0  0  0  0  0
    2.6586    1.4920    0.0000 H   0  0  0  0  0  0  0  0  0  0  0  0
    4.3731    0.0534    0.0000 H   0  0  0  0  0  0  0  0  0  0  0  0
    5.0767    0.4931    0.0000 H   0  0  0  0  0  0  0  0  0  0  0  0
    2.8692    0.6475    0.0000 H   0  0  0  0  0  0  0  0  0  0  0  0
    3.5048    0.1141    0.0000 H   0  0  0  0  0  0  0  0  0  0  0  0
    5.2690    3.3100    0.0000 H   0  0  0  0  0  0  0  0  0  0  0  0
    5.5981    1.8800    0.0000 H   0  0  0  0  0  0  0  0  0  0  0  0
    3.2460    4.5000    0.0000 H   0  0  0  0  0  0  0  0  0  0  0  0
    4.4030    5.1900    0.0000 H   0  0  0  0  0  0  0  0  0  0  0  0
    7.8671    2.1900    0.0000 H   0  0  0  0  0  0  0  0  0  0  0  0
    2.3799    1.5539    0.0000 H   0  0  0  0  0  0  0  0  0  0  0  0
    2.3894    6.1077    0.0000 H   0  0  0  0  0  0  0  0  0  0  0  0
    2.7880    5.4174    0.0000 H   0  0  0  0  0  0  0  0  0  0  0  0
    8.4082    2.4174    0.0000 H   0  0  0  0  0  0  0  0  0  0  0  0
    8.8067    3.1077    0.0000 H   0  0  0  0  0  0  0  0  0  0  0  0
    6.7932    1.1900    0.0000 H   0  0  0  0  0  0  0  0  0  0  0  0
    8.7331    0.3100    0.0000 H   0  0  0  0  0  0  0  0  0  0  0  0
    3.6200    8.0000    0.0000 H   0  0  0  0  0  0  0  0  0  0  0  0
    3.0000    8.6200    0.0000 H   0  0  0  0  0  0  0  0  0  0  0  0
    2.3800    8.0000    0.0000 H   0  0  0  0  0  0  0  0  0  0  0  0
    2.0000    7.6200    0.0000 H   0  0  0  0  0  0  0  0  0  0  0  0
    1.3800    7.0000    0.0000 H   0  0  0  0  0  0  0  0  0  0  0  0
    2.0000    6.3800    0.0000 H   0  0  0  0  0  0  0  0  0  0  0  0
    4.0000    6.3800    0.0000 H   0  0  0  0  0  0  0  0  0  0  0  0
    4.6200    7.0000    0.0000 H   0  0  0  0  0  0  0  0  0  0  0  0
    4.0000    7.6200    0.0000 H   0  0  0  0  0  0  0  0  0  0  0  0
    9.6657    3.5563    0.0000 H   0  0  0  0  0  0  0  0  0  0  0  0
   10.4773    3.7288    0.0000 H   0  0  0  0  0  0  0  0  0  0  0  0
    9.1019    6.1111    0.0000 H   0  0  0  0  0  0  0  0  0  0  0  0
    8.5467    5.4945    0.0000 H   0  0  0  0  0  0  0  0  0  0  0  0
   11.0597    4.3757    0.0000 H   0  0  0  0  0  0  0  0  0  0  0  0
   11.1464    5.2008    0.0000 H   0  0  0  0  0  0  0  0  0  0  0  0
   10.7113    5.9546    0.0000 H   0  0  0  0  0  0  0  0  0  0  0  0
    9.9533    6.2921    0.0000 H   0  0  0  0  0  0  0  0  0  0  0  0
    9.5991   -0.1900    0.0000 H   0  0  0  0  0  0  0  0  0  0  0  0
    6.1541   -0.4631    0.0000 H   0  0  0  0  0  0  0  0  0  0  0  0
    5.9272   -1.3100    0.0000 H   0  0  0  0  0  0  0  0  0  0  0  0
    6.7741   -1.5369    0.0000 H   0  0  0  0  0  0  0  0  0  0  0  0
    7.3671    0.6760    0.0000 H   0  0  0  0  0  0  0  0  0  0  0  0
    6.5201    0.9030    0.0000 H   0  0  0  0  0  0  0  0  0  0  0  0
    6.2932    0.0560    0.0000 H   0  0  0  0  0  0  0  0  0  0  0  0
    7.2932   -1.6760    0.0000 H   0  0  0  0  0  0  0  0  0  0  0  0
    8.1401   -1.9030    0.0000 H   0  0  0  0  0  0  0  0  0  0  0  0
    8.3671   -1.0560    0.0000 H   0  0  0  0  0  0  0  0  0  0  0  0
   10.4651   -2.3100    0.0000 H   0  0  0  0  0  0  0  0  0  0  0  0
   10.2573   -1.1900    0.0000 H   0  0  0  0  0  0  0  0  0  0  0  0
    5.2690    7.3100    0.0000 H   0  0  0  0  0  0  0  0  0  0  0  0
   10.2573   -4.1900    0.0000 H   0  0  0  0  0  0  0  0  0  0  0  0
   11.4142   -0.5000    0.0000 H   0  0  0  0  0  0  0  0  0  0  0  0
   10.7942    0.1200    0.0000 H   0  0  0  0  0  0  0  0  0  0  0  0
   10.1742   -0.5000    0.0000 H   0  0  0  0  0  0  0  0  0  0  0  0
   11.3503   -2.5369    0.0000 H   0  0  0  0  0  0  0  0  0  0  0  0
   12.1972   -2.3100    0.0000 H   0  0  0  0  0  0  0  0  0  0  0  0
   11.9703   -1.4631    0.0000 H   0  0  0  0  0  0  0  0  0  0  0  0
    8.7522   -2.9631    0.0000 H   0  0  0  0  0  0  0  0  0  0  0  0
    8.5252   -3.8100    0.0000 H   0  0  0  0  0  0  0  0  0  0  0  0
    9.3722   -4.0369    0.0000 H   0  0  0  0  0  0  0  0  0  0  0  0
   11.2617   -5.4750    0.0000 H   0  0  0  0  0  0  0  0  0  0  0  0
   12.0588   -5.4750    0.0000 H   0  0  0  0  0  0  0  0  0  0  0  0
    9.7162   -4.4174    0.0000 H   0  0  0  0  0  0  0  0  0  0  0  0
    9.3176   -5.1077    0.0000 H   0  0  0  0  0  0  0  0  0  0  0  0
   11.9893   -3.1900    0.0000 H   0  0  0  0  0  0  0  0  0  0  0  0
   11.3312   -6.1900    0.0000 H   0  0  0  0  0  0  0  0  0  0  0  0
   13.3923   -5.6200    0.0000 H   0  0  0  0  0  0  0  0  0  0  0  0
    8.5252   -6.1900    0.0000 H   0  0  0  0  0  0  0  0  0  0  0  0
   13.3923   -2.3800    0.0000 H   0  0  0  0  0  0  0  0  0  0  0  0
   11.3312   -7.8100    0.0000 H   0  0  0  0  0  0  0  0  0  0  0  0
   14.7953   -4.8100    0.0000 H   0  0  0  0  0  0  0  0  0  0  0  0
    8.5252   -7.8100    0.0000 H   0  0  0  0  0  0  0  0  0  0  0  0
   14.7953   -3.1900    0.0000 H   0  0  0  0  0  0  0  0  0  0  0  0
    9.9282   -8.6200    0.0000 H   0  0  0  0  0  0  0  0  0  0  0  0
  1 23  1  0  0  0  0
  1 81  1  0  0  0  0
  2 23  2  0  0  0  0
  3 24  2  0  0  0  0
  4 25  2  0  0  0  0
  5 31  1  0  0  0  0
  5117  1  0  0  0  0
  6 31  2  0  0  0  0
  7 34  2  0  0  0  0
  8 35  2  0  0  0  0
  9 47  2  0  0  0  0
 10 50  2  0  0  0  0
 22 11  1  1  0  0  0
 11 25  1  0  0  0  0
 11 77  1  0  0  0  0
 12 24  1  0  0  0  0
 26 12  1  1  0  0  0
 12 78  1  0  0  0  0
 27 13  1  6  0  0  0
 13 34  1  0  0  0  0
 13 86  1  0  0  0  0
 14 35  1  0  0  0  0
 14 39  1  0  0  0  0
 14 40  1  0  0  0  0
 32 15  1  1  0  0  0
 15 47  1  0  0  0  0
 15105  1  0  0  0  0
 46 16  1  6  0  0  0
 16 50  1  0  0  0  0
 16 53  1  0  0  0  0
 17 18  1  0  0  0  0
 17 19  1  0  0  0  0
 17 22  1  0  0  0  0
 17 23  1  0  0  0  0
 18 20  1  0  0  0  0
 18 68  1  0  0  0  0
 18 69  1  0  0  0  0
 19 21  1  0  0  0  0
 19 70  1  0  0  0  0
 19 71  1  0  0  0  0
 20 21  1  0  0  0  0
 20 72  1  0  0  0  0
 20 73  1  0  0  0  0
 21 74  1  0  0  0  0
 21 75  1  0  0  0  0
 22 24  1  0  0  0  0
 22 76  1  0  0  0  0
 25 27  1  0  0  0  0
 26 28  1  0  0  0  0
 26 31  1  0  0  0  0
 26 79  1  0  0  0  0
 27 30  1  0  0  0  0
 27 80  1  0  0  0  0
 28 29  1  0  0  0  0
 28 82  1  0  0  0  0
 28 83  1  0  0  0  0
 29 36  1  0  0  0  0
 29 37  1  0  0  0  0
 29 38  1  0  0  0  0
 30 35  1  0  0  0  0
 30 84  1  0  0  0  0
 30 85  1  0  0  0  0
 32 33  1  0  0  0  0
 32 34  1  0  0  0  0
 32 87  1  0  0  0  0
 33 43  1  0  0  0  0
 33 44  1  0  0  0  0
 33 45  1  0  0  0  0
 36 88  1  0  0  0  0
 36 89  1  0  0  0  0
 36 90  1  0  0  0  0
 37 91  1  0  0  0  0
 37 92  1  0  0  0  0
 37 93  1  0  0  0  0
 38 94  1  0  0  0  0
 38 95  1  0  0  0  0
 38 96  1  0  0  0  0
 39 41  1  0  0  0  0
 39 97  1  0  0  0  0
 39 98  1  0  0  0  0
 40 42  1  0  0  0  0
 40 99  1  0  0  0  0
 40100  1  0  0  0  0
 41 42  1  0  0  0  0
 41101  1  0  0  0  0
 41102  1  0  0  0  0
 42103  1  0  0  0  0
 42104  1  0  0  0  0
 43106  1  0  0  0  0
 43107  1  0  0  0  0
 43108  1  0  0  0  0
 44109  1  0  0  0  0
 44110  1  0  0  0  0
 44111  1  0  0  0  0
 45112  1  0  0  0  0
 45113  1  0  0  0  0
 45114  1  0  0  0  0
 46 47  1  0  0  0  0
 46 48  1  0  0  0  0
 46115  1  0  0  0  0
 48 51  1  0  0  0  0
 48 52  1  0  0  0  0
 48116  1  0  0  0  0
 49 50  1  0  0  0  0
 49 54  1  0  0  0  0
 49 55  1  0  0  0  0
 49118  1  0  0  0  0
 51119  1  0  0  0  0
 51120  1  0  0  0  0
 51121  1  0  0  0  0
 52122  1  0  0  0  0
 52123  1  0  0  0  0
 52124  1  0  0  0  0
 53125  1  0  0  0  0
 53126  1  0  0  0  0
 53127  1  0  0  0  0
 54 56  1  0  0  0  0
 54128  1  0  0  0  0
 54129  1  0  0  0  0
 55 57  1  0  0  0  0
 55130  1  0  0  0  0
 55131  1  0  0  0  0
 56 58  2  0  0  0  0
 56 60  1  0  0  0  0
 57 59  2  0  0  0  0
 57 61  1  0  0  0  0
 58 62  1  0  0  0  0
 58132  1  0  0  0  0
 59 63  1  0  0  0  0
 59133  1  0  0  0  0
 60 64  2  0  0  0  0
 60134  1  0  0  0  0
 61 65  2  0  0  0  0
 61135  1  0  0  0  0
 62 66  2  0  0  0  0
 62136  1  0  0  0  0
 63 67  2  0  0  0  0
 63137  1  0  0  0  0
 64 66  1  0  0  0  0
 64138  1  0  0  0  0
 65 67  1  0  0  0  0
 65139  1  0  0  0  0
 66140  1  0  0  0  0
 67141  1  0  0  0  0
M  END
> <PUBCHEM_COMPOUND_CID>
513003
> <PUBCHEM_COMPOUND_CANONICALIZED>
1
> <PUBCHEM_CACTVS_COMPLEXITY>
1710
> <PUBCHEM_CACTVS_HBOND_ACCEPTOR>
10
> <PUBCHEM_CACTVS_HBOND_DONOR>
6
> <PUBCHEM_CACTVS_ROTATABLE_BOND>
23
> <PUBCHEM_CACTVS_SUBSKEYS>
AAADcfB/vAAAAAAAAAAAAAAAAAAAAeIAAAAwYAAAAAAAAAABQAAAHgAQCAAADyjBmAQyCIPAAgCIAiHSGAACAAAgAAAIiIGIAIgKYDqA0TCUYAAmlgCYiAe/yMCPAAAAAAAAAAAAAAAAAAAAAAAAAAAAAA==
> <PUBCHEM_IUPAC_OPENEYE_NAME>
1-[(1S)-1-[[(2S)-2-[[(2S)-2-[[(2S)-2-[(2-benzyl-3-phenyl-propanoyl)-methyl-amino]-3-methyl-butanoyl]amino]-3,3-dimethyl-butanoyl]amino]-4-oxo-4-pyrrolidin-1-yl-butanoyl]amino]-2-[[(1S)-1-carboxy-3,3-dimethyl-butyl]amino]-2-oxo-ethyl]cyclopentanecarboxylic acid
> <PUBCHEM_IUPAC_CAS_NAME>
1-[(1S)-2-[[(1S)-1-carboxy-3,3-dimethylbutyl]amino]-1-[[(2S)-2-[[(2S)-3,3-dimethyl-2-[[(2S)-3-methyl-2-[methyl-[1-oxo-3-phenyl-2-(phenylmethyl)propyl]amino]-1-oxobutyl]amino]-1-oxobutyl]amino]-1,4-dioxo-4-(1-pyrrolidinyl)butyl]amino]-2-oxoethyl]-1-cyclopentanecarboxylic acid
> <PUBCHEM_IUPAC_NAME_MARKUP>
1-[(1<I>S</I>)-1-[[(2<I>S</I>)-2-[[(2<I>S</I>)-2-[[(2<I>S</I>)-2-[(2-benzyl-3-phenylpropanoyl)-methylamino]-3-methylbutanoyl]amino]-3,3-dimethylbutanoyl]amino]-4-oxo-4-pyrrolidin-1-ylbutanoyl]amino]-2-[[(1<I>S</I>)-1-carboxy-3,3-dimethylbutyl]amino]-2-oxoethyl]cyclopentane-1-carboxylic acid
> <PUBCHEM_IUPAC_NAME>
1-[(1S)-1-[[(2S)-2-[[(2S)-2-[[(2S)-2-[(2-benzyl-3-phenylpropanoyl)-methylamino]-3-methylbutanoyl]amino]-3,3-dimethylbutanoyl]amino]-4-oxo-4-pyrrolidin-1-ylbutanoyl]amino]-2-[[(1S)-1-carboxy-3,3-dimethylbutyl]amino]-2-oxoethyl]cyclopentane-1-carboxylic acid
> <PUBCHEM_IUPAC_SYSTEMATIC_NAME>
1-[(1S)-1-[[(2S)-2-[[(2S)-3,3-dimethyl-2-[[(2S)-3-methyl-2-[methyl-[3-phenyl-2-(phenylmethyl)propanoyl]amino]butanoyl]amino]butanoyl]amino]-4-oxidanylidene-4-pyrrolidin-1-yl-butanoyl]amino]-2-[[(2S)-4,4-dimethyl-1-oxidanyl-1-oxidanylidene-pentan-2-yl]amino]-2-oxidanylidene-ethyl]cyclopentane-1-carboxylic acid
> <PUBCHEM_IUPAC_TRADITIONAL_NAME>
1-[(1S)-1-[[(2S)-2-[[(2S)-2-[[(2S)-2-[(2-benzyl-3-phenyl-propanoyl)-methyl-amino]-3-methyl-butanoyl]amino]-3,3-dimethyl-butanoyl]amino]-4-keto-4-pyrrolidino-butanoyl]amino]-2-[[(1S)-1-carboxy-3,3-dimethyl-butyl]amino]-2-keto-ethyl]cyclopentanecarboxylic acid
> <PUBCHEM_IUPAC_INCHI>
InChI=1S/C51H74N6O10/c1-32(2)39(56(9)46(63)35(28-33-20-12-10-13-21-33)29-34-22-14-11-15-23-34)43(60)54-40(50(6,7)8)44(61)52-36(30-38(58)57-26-18-19-27-57)42(59)55-41(51(48(66)67)24-16-17-25-51)45(62)53-37(47(64)65)31-49(3,4)5/h10-15,20-23,32,35-37,39-41H,16-19,24-31H2,1-9H3,(H,52,61)(H,53,62)(H,54,60)(H,55,59)(H,64,65)(H,66,67)/t36-,37-,39-,40+,41+/m0/s1
> <PUBCHEM_IUPAC_INCHIKEY>
VXNBPPJFWVTBJT-IEGFBDOLSA-N
> <PUBCHEM_XLOGP3_AA>
6.7
> <PUBCHEM_EXACT_MASS>
930.54664258
> <PUBCHEM_MOLECULAR_FORMULA>
C51H74N6O10
> <PUBCHEM_MOLECULAR_WEIGHT>
931.2
> <PUBCHEM_OPENEYE_CAN_SMILES>
CC(C)C(C(=O)NC(C(=O)NC(CC(=O)N1CCCC1)C(=O)NC(C(=O)NC(CC(C)(C)C)C(=O)O)C2(CCCC2)C(=O)O)C(C)(C)C)N(C)C(=O)C(CC3=CC=CC=C3)CC4=CC=CC=C4
> <PUBCHEM_OPENEYE_ISO_SMILES>
CC(C)[C@@H](C(=O)N[C@H](C(=O)N[C@@H](CC(=O)N1CCCC1)C(=O)N[C@H](C(=O)N[C@@H](CC(C)(C)C)C(=O)O)C2(CCCC2)C(=O)O)C(C)(C)C)N(C)C(=O)C(CC3=CC=CC=C3)CC4=CC=CC=C4
> <PUBCHEM_CACTVS_TPSA>
232
> <PUBCHEM_MONOISOTOPIC_WEIGHT>
930.54664258
> <PUBCHEM_TOTAL_CHARGE>
0
> <PUBCHEM_HEAVY_ATOM_COUNT>
67
> <PUBCHEM_ATOM_DEF_STEREO_COUNT>
5
> <PUBCHEM_ATOM_UDEF_STEREO_COUNT>
0
> <PUBCHEM_BOND_DEF_STEREO_COUNT>
0
> <PUBCHEM_BOND_UDEF_STEREO_COUNT>
0
> <PUBCHEM_ISOTOPIC_ATOM_COUNT>
0
> <PUBCHEM_COMPONENT_COUNT>
1
> <PUBCHEM_CACTVS_TAUTO_COUNT>
-1
> <PUBCHEM_COORDINATE_TYPE>
1
5
255
> <PUBCHEM_BONDANNOTATIONS>
22  11  5
26  12  5
27  13  6
32  15  5
46  16  6
56  58  8
56  60  8
57  59  8
57  61  8
58  62  8
59  63  8
60  64  8
61  65  8
62  66  8
63  67  8
64  66  8
65  67  8
$$$$
