513165
  -OEChem-10302200282D
 62 65  0     1  0  0  0  0  0999 V2000
   11.8973   -0.6878    0.0000 O   0  0  0  0  0  0  0  0  0  0  0  0
   12.2195    1.2768    0.0000 O   0  0  0  0  0  0  0  0  0  0  0  0
    8.1501   -2.0984    0.0000 O   0  0  0  0  0  0  0  0  0  0  0  0
    4.7619   -0.8654    0.0000 O   0  0  0  0  0  0  0  0  0  0  0  0
   10.6372    0.5723    0.0000 N   0  0  0  0  0  0  0  0  0  0  0  0
    8.3341   -0.3762    0.0000 N   0  0  0  0  0  0  0  0  0  0  0  0
    6.1614   -1.8859    0.0000 N   0  0  0  0  0  0  0  0  0  0  0  0
    4.5779   -2.5876    0.0000 N   0  0  0  0  0  0  0  0  0  0  0  0
   10.1372   -0.9665    0.0000 C   0  0  0  0  0  0  0  0  0  0  0  0
    9.3282   -0.3787    0.0000 C   0  0  2  0  0  0  0  0  0  0  0  0
    9.6372    0.5723    0.0000 C   0  0  2  0  0  0  0  0  0  0  0  0
   10.8443   -1.6736    0.0000 C   0  0  0  0  0  0  0  0  0  0  0  0
    9.4301   -1.6736    0.0000 C   0  0  0  0  0  0  0  0  0  0  0  0
   10.1372   -2.3807    0.0000 C   0  0  0  0  0  0  0  0  0  0  0  0
   10.9462   -0.3787    0.0000 C   0  0  0  0  0  0  0  0  0  0  0  0
    8.8314    1.1545    0.0000 C   0  0  0  0  0  0  0  0  0  0  0  0
    8.0277    0.5695    0.0000 C   0  0  0  0  0  0  0  0  0  0  0  0
   11.2250    1.3813    0.0000 C   0  0  0  0  0  0  0  0  0  0  0  0
   10.8182    2.2949    0.0000 C   0  0  0  0  0  0  0  0  0  0  0  0
    7.7449   -1.1842    0.0000 C   0  0  0  0  0  0  0  0  0  0  0  0
   10.9228    3.2894    0.0000 C   0  0  0  0  0  0  0  0  0  0  0  0
   10.0092    2.8827    0.0000 C   0  0  0  0  0  0  0  0  0  0  0  0
    6.7506   -1.0779    0.0000 C   0  0  2  0  0  0  0  0  0  0  0  0
    6.3454   -0.1637    0.0000 C   0  0  0  0  0  0  0  0  0  0  0  0
    5.3511   -0.0574    0.0000 C   0  0  0  0  0  0  0  0  0  0  0  0
    6.9346    0.6443    0.0000 C   0  0  0  0  0  0  0  0  0  0  0  0
    5.1670   -1.7797    0.0000 C   0  0  0  0  0  0  0  0  0  0  0  0
    3.5835   -2.4814    0.0000 C   0  0  0  0  0  0  0  0  0  0  0  0
    2.9943   -3.2894    0.0000 C   0  0  0  0  0  0  0  0  0  0  0  0
    2.0000   -3.1832    0.0000 C   0  0  0  0  0  0  0  0  0  0  0  0
    9.0645   -1.1868    0.0000 H   0  0  0  0  0  0  0  0  0  0  0  0
    9.8988    1.3811    0.0000 H   0  0  0  0  0  0  0  0  0  0  0  0
   11.2827   -2.1120    0.0000 H   0  0  0  0  0  0  0  0  0  0  0  0
   11.2827   -1.2352    0.0000 H   0  0  0  0  0  0  0  0  0  0  0  0
    8.9917   -1.2352    0.0000 H   0  0  0  0  0  0  0  0  0  0  0  0
    8.9917   -2.1120    0.0000 H   0  0  0  0  0  0  0  0  0  0  0  0
    9.6988   -2.8191    0.0000 H   0  0  0  0  0  0  0  0  0  0  0  0
   10.5756   -2.8191    0.0000 H   0  0  0  0  0  0  0  0  0  0  0  0
    9.2454    1.6161    0.0000 H   0  0  0  0  0  0  0  0  0  0  0  0
    8.4159    1.6147    0.0000 H   0  0  0  0  0  0  0  0  0  0  0  0
    7.7176    1.1064    0.0000 H   0  0  0  0  0  0  0  0  0  0  0  0
    7.4613    0.3175    0.0000 H   0  0  0  0  0  0  0  0  0  0  0  0
   11.4306    2.3919    0.0000 H   0  0  0  0  0  0  0  0  0  0  0  0
   11.5413    3.3326    0.0000 H   0  0  0  0  0  0  0  0  0  0  0  0
   10.7728    3.8910    0.0000 H   0  0  0  0  0  0  0  0  0  0  0  0
    9.6625    3.3967    0.0000 H   0  0  0  0  0  0  0  0  0  0  0  0
    9.5632    2.4520    0.0000 H   0  0  0  0  0  0  0  0  0  0  0  0
    7.3671   -1.1438    0.0000 H   0  0  0  0  0  0  0  0  0  0  0  0
    5.9801   -0.6646    0.0000 H   0  0  0  0  0  0  0  0  0  0  0  0
    6.4126   -2.4527    0.0000 H   0  0  0  0  0  0  0  0  0  0  0  0
    5.4170    0.5591    0.0000 H   0  0  0  0  0  0  0  0  0  0  0  0
    4.7346    0.0085    0.0000 H   0  0  0  0  0  0  0  0  0  0  0  0
    5.2852   -0.6739    0.0000 H   0  0  0  0  0  0  0  0  0  0  0  0
    7.4356    0.2790    0.0000 H   0  0  0  0  0  0  0  0  0  0  0  0
    7.2999    1.1453    0.0000 H   0  0  0  0  0  0  0  0  0  0  0  0
    6.4336    1.0096    0.0000 H   0  0  0  0  0  0  0  0  0  0  0  0
    4.8291   -3.1545    0.0000 H   0  0  0  0  0  0  0  0  0  0  0  0
    3.7554   -1.8857    0.0000 H   0  0  0  0  0  0  0  0  0  0  0  0
    3.0267   -2.2086    0.0000 H   0  0  0  0  0  0  0  0  0  0  0  0
    3.2455   -3.8562    0.0000 H   0  0  0  0  0  0  0  0  0  0  0  0
    1.7488   -2.6163    0.0000 H   0  0  0  0  0  0  0  0  0  0  0  0
    1.6347   -3.6841    0.0000 H   0  0  0  0  0  0  0  0  0  0  0  0
  1 15  2  0  0  0  0
  2 18  2  0  0  0  0
  3 20  2  0  0  0  0
  4 27  2  0  0  0  0
  5 11  1  0  0  0  0
  5 15  1  0  0  0  0
  5 18  1  0  0  0  0
  6 10  1  0  0  0  0
  6 17  1  0  0  0  0
  6 20  1  0  0  0  0
 23  7  1  1  0  0  0
  7 27  1  0  0  0  0
  7 50  1  0  0  0  0
  8 27  1  0  0  0  0
  8 28  1  0  0  0  0
  8 57  1  0  0  0  0
  9 10  1  0  0  0  0
  9 12  1  0  0  0  0
  9 13  1  0  0  0  0
  9 15  1  0  0  0  0
 10 11  1  0  0  0  0
 10 31  1  6  0  0  0
 11 16  1  0  0  0  0
 11 32  1  1  0  0  0
 12 14  1  0  0  0  0
 12 33  1  0  0  0  0
 12 34  1  0  0  0  0
 13 14  1  0  0  0  0
 13 35  1  0  0  0  0
 13 36  1  0  0  0  0
 14 37  1  0  0  0  0
 14 38  1  0  0  0  0
 16 17  1  0  0  0  0
 16 39  1  0  0  0  0
 16 40  1  0  0  0  0
 17 41  1  0  0  0  0
 17 42  1  0  0  0  0
 18 19  1  0  0  0  0
 19 21  1  0  0  0  0
 19 22  1  0  0  0  0
 19 43  1  0  0  0  0
 20 23  1  0  0  0  0
 21 22  1  0  0  0  0
 21 44  1  0  0  0  0
 21 45  1  0  0  0  0
 22 46  1  0  0  0  0
 22 47  1  0  0  0  0
 23 24  1  0  0  0  0
 23 48  1  0  0  0  0
 24 25  1  0  0  0  0
 24 26  1  0  0  0  0
 24 49  1  0  0  0  0
 25 51  1  0  0  0  0
 25 52  1  0  0  0  0
 25 53  1  0  0  0  0
 26 54  1  0  0  0  0
 26 55  1  0  0  0  0
 26 56  1  0  0  0  0
 28 29  1  0  0  0  0
 28 58  1  0  0  0  0
 28 59  1  0  0  0  0
 29 30  2  0  0  0  0
 29 60  1  0  0  0  0
 30 61  1  0  0  0  0
 30 62  1  0  0  0  0
M  END
> <PUBCHEM_COMPOUND_CID>
513165
> <PUBCHEM_COMPOUND_CANONICALIZED>
1
> <PUBCHEM_CACTVS_COMPLEXITY>
771
> <PUBCHEM_CACTVS_HBOND_ACCEPTOR>
4
> <PUBCHEM_CACTVS_HBOND_DONOR>
2
> <PUBCHEM_CACTVS_ROTATABLE_BOND>
6
> <PUBCHEM_CACTVS_SUBSKEYS>
AAADcfB7uAAAAAAAAAAAAAAAGABgAWLAAAAAAAAAAAAWAAAAAAAAHgAQAAAADyjBgAQDAAPAAACIACFSEACAAAAAAAAIAIGIAACAQBoAwSAUAAAIFiKAAAEciIAPAAAAAAAAAAAAAAAAAAAAAAAAAAAAAA==
> <PUBCHEM_IUPAC_OPENEYE_NAME>
1-[(1S)-1-[(3aS,6aR)-4-(cyclopropanecarbonyl)-5-oxo-spiro[2,3,3a,6a-tetrahydropyrrolo[3,2-b]pyrrole-6,1'-cyclobutane]-1-carbonyl]-2-methyl-propyl]-3-allyl-urea
> <PUBCHEM_IUPAC_CAS_NAME>
1-[(2S)-1-[(3aS,6aR)-4-[cyclopropyl(oxo)methyl]-5-oxo-1-spiro[2,3,3a,6a-tetrahydropyrrolo[3,2-b]pyrrole-6,1'-cyclobutane]yl]-3-methyl-1-oxobutan-2-yl]-3-prop-2-enylurea
> <PUBCHEM_IUPAC_NAME_MARKUP>
1-[(2<I>S</I>)-1-[(3<I>a</I><I>S</I>,6<I>a</I><I>R</I>)-4-(cyclopropanecarbonyl)-5-oxospiro[2,3,3<I>a</I>,6<I>a</I>-tetrahydropyrrolo[3,2-b]pyrrole-6,1&apos;-cyclobutane]-1-yl]-3-methyl-1-oxobutan-2-yl]-3-prop-2-enylurea
> <PUBCHEM_IUPAC_NAME>
1-[(2S)-1-[(3aS,6aR)-4-(cyclopropanecarbonyl)-5-oxospiro[2,3,3a,6a-tetrahydropyrrolo[3,2-b]pyrrole-6,1'-cyclobutane]-1-yl]-3-methyl-1-oxobutan-2-yl]-3-prop-2-enylurea
> <PUBCHEM_IUPAC_SYSTEMATIC_NAME>
1-[(2S)-1-[(3aS,6aR)-4-cyclopropylcarbonyl-5-oxidanylidene-spiro[2,3,3a,6a-tetrahydropyrrolo[3,2-b]pyrrole-6,1'-cyclobutane]-1-yl]-3-methyl-1-oxidanylidene-butan-2-yl]-3-prop-2-enyl-urea
> <PUBCHEM_IUPAC_TRADITIONAL_NAME>
1-[(1S)-1-[(3aS,6aR)-4-(cyclopropanecarbonyl)-5-keto-spiro[2,3,3a,6a-tetrahydropyrrolo[3,2-b]pyrrole-6,1'-cyclobutane]-1-carbonyl]-2-methyl-propyl]-3-allyl-urea
> <PUBCHEM_IUPAC_INCHI>
InChI=1S/C22H32N4O4/c1-4-11-23-21(30)24-16(13(2)3)19(28)25-12-8-15-17(25)22(9-5-10-22)20(29)26(15)18(27)14-6-7-14/h4,13-17H,1,5-12H2,2-3H3,(H2,23,24,30)/t15-,16-,17-/m0/s1
> <PUBCHEM_IUPAC_INCHIKEY>
KPXUKSSKGPKBQO-ULQDDVLXSA-N
> <PUBCHEM_XLOGP3_AA>
1.5
> <PUBCHEM_EXACT_MASS>
416.24235551
> <PUBCHEM_MOLECULAR_FORMULA>
C22H32N4O4
> <PUBCHEM_MOLECULAR_WEIGHT>
416.5
> <PUBCHEM_OPENEYE_CAN_SMILES>
CC(C)C(C(=O)N1CCC2C1C3(CCC3)C(=O)N2C(=O)C4CC4)NC(=O)NCC=C
> <PUBCHEM_OPENEYE_ISO_SMILES>
CC(C)[C@@H](C(=O)N1CC[C@H]2[C@H]1C3(CCC3)C(=O)N2C(=O)C4CC4)NC(=O)NCC=C
> <PUBCHEM_CACTVS_TPSA>
98.8
> <PUBCHEM_MONOISOTOPIC_WEIGHT>
416.24235551
> <PUBCHEM_TOTAL_CHARGE>
0
> <PUBCHEM_HEAVY_ATOM_COUNT>
30
> <PUBCHEM_ATOM_DEF_STEREO_COUNT>
3
> <PUBCHEM_ATOM_UDEF_STEREO_COUNT>
0
> <PUBCHEM_BOND_DEF_STEREO_COUNT>
0
> <PUBCHEM_BOND_UDEF_STEREO_COUNT>
0
> <PUBCHEM_ISOTOPIC_ATOM_COUNT>
0
> <PUBCHEM_COMPONENT_COUNT>
1
> <PUBCHEM_CACTVS_TAUTO_COUNT>
-1
> <PUBCHEM_COORDINATE_TYPE>
1
5
255
> <PUBCHEM_BONDANNOTATIONS>
10  31  6
11  32  5
23  7  5
$$$$
