513178
  -OEChem-10302200282D
115118  0     1  0  0  0  0  0999 V2000
   16.3690    1.7244    0.0000 O   0  0  0  0  0  0  0  0  0  0  0  0
   14.0051    0.6719    0.0000 O   0  0  0  0  0  0  0  0  0  0  0  0
   14.0376    2.8472    0.0000 O   0  0  0  0  0  0  0  0  0  0  0  0
   15.3837   -0.7643    0.0000 O   0  0  0  0  0  0  0  0  0  0  0  0
   16.6534   -1.9424    0.0000 O   0  0  0  0  0  0  0  0  0  0  0  0
   17.3336   -1.2094    0.0000 O   0  0  0  0  0  0  0  0  0  0  0  0
   14.0234   -2.2304    0.0000 O   0  0  0  0  0  0  0  0  0  0  0  0
   17.7556    2.9286    0.0000 O   0  0  0  0  0  0  0  0  0  0  0  0
   12.9987    1.4613    0.0000 O   0  0  0  0  0  0  0  0  0  0  0  0
   14.6129   -4.1416    0.0000 O   0  0  0  0  0  0  0  0  0  0  0  0
   17.0862    6.3274    0.0000 O   0  0  0  0  0  0  0  0  0  0  0  0
   18.6033   -2.3875    0.0000 O   0  0  0  0  0  0  0  0  0  0  0  0
   18.6335   -5.8970    0.0000 O   0  0  0  0  0  0  0  0  0  0  0  0
   16.1165    3.4885    0.0000 N   0  0  0  0  0  0  0  0  0  0  0  0
   17.4209    4.6280    0.0000 N   0  0  0  0  0  0  0  0  0  0  0  0
   17.7190    0.4792    0.0000 N   0  0  0  0  0  0  0  0  0  0  0  0
   18.2178   -4.0761    0.0000 N   0  0  0  0  0  0  0  0  0  0  0  0
   20.3163   -5.7074    0.0000 N   0  0  0  0  0  0  0  0  0  0  0  0
   14.8228    1.2475    0.0000 C   0  0  2  0  0  0  0  0  0  0  0  0
   15.7691    0.9243    0.0000 C   0  0  1  0  0  0  0  0  0  0  0  0
   14.8378    2.2474    0.0000 C   0  0  2  0  0  0  0  0  0  0  0  0
   15.7933    2.5421    0.0000 C   0  0  1  0  0  0  0  0  0  0  0  0
   16.0639   -0.0313    0.0000 C   0  0  2  0  0  0  0  0  0  0  0  0
   17.0388   -0.2538    0.0000 C   0  0  0  0  0  0  0  0  0  0  0  0
   15.6785   -1.7199    0.0000 C   0  0  1  0  0  0  0  0  0  0  0  0
   14.9983   -2.4530    0.0000 C   0  0  2  0  0  0  0  0  0  0  0  0
   17.0977    3.6817    0.0000 C   0  0  0  0  0  0  0  0  0  0  0  0
   15.4586    4.2415    0.0000 C   0  0  0  0  0  0  0  0  0  0  0  0
   13.1181    2.4542    0.0000 C   0  0  0  0  0  0  0  0  0  0  0  0
   14.0947   -0.3241    0.0000 C   0  0  0  0  0  0  0  0  0  0  0  0
   15.2931   -3.4085    0.0000 C   0  0  2  0  0  0  0  0  0  0  0  0
   12.3180    3.0540    0.0000 C   0  0  0  0  0  0  0  0  0  0  0  0
   15.7818    5.1879    0.0000 C   0  0  0  0  0  0  0  0  0  0  0  0
   11.3984    2.6610    0.0000 C   0  0  0  0  0  0  0  0  0  0  0  0
   16.9482   -2.8980    0.0000 C   0  0  0  0  0  0  0  0  0  0  0  0
   16.2680   -3.6311    0.0000 C   0  0  0  0  0  0  0  0  0  0  0  0
   19.1928   -4.2986    0.0000 C   0  0  1  0  0  0  0  0  0  0  0  0
   10.5983    3.2608    0.0000 C   0  0  0  0  0  0  0  0  0  0  0  0
   16.7630    5.3811    0.0000 C   0  0  0  0  0  0  0  0  0  0  0  0
   19.8163   -3.5168    0.0000 C   0  0  0  0  0  0  0  0  0  0  0  0
   20.8163   -3.5168    0.0000 C   0  0  0  0  0  0  0  0  0  0  0  0
   21.4397   -4.2986    0.0000 C   0  0  0  0  0  0  0  0  0  0  0  0
   21.2172   -5.2736    0.0000 C   0  0  2  0  0  0  0  0  0  0  0  0
    9.6788    2.8678    0.0000 C   0  0  0  0  0  0  0  0  0  0  0  0
   17.9231   -3.1205    0.0000 C   0  0  0  0  0  0  0  0  0  0  0  0
    8.8786    3.4676    0.0000 C   0  0  0  0  0  0  0  0  0  0  0  0
   19.4153   -5.2736    0.0000 C   0  0  0  0  0  0  0  0  0  0  0  0
    7.9591    3.0746    0.0000 C   0  0  0  0  0  0  0  0  0  0  0  0
    7.1590    3.6744    0.0000 C   0  0  0  0  0  0  0  0  0  0  0  0
   21.9991   -5.8970    0.0000 C   0  0  0  0  0  0  0  0  0  0  0  0
    6.2395    3.2814    0.0000 C   0  0  0  0  0  0  0  0  0  0  0  0
    5.4393    3.8812    0.0000 C   0  0  0  0  0  0  0  0  0  0  0  0
    4.5198    3.4882    0.0000 C   0  0  0  0  0  0  0  0  0  0  0  0
    3.7197    4.0880    0.0000 C   0  0  0  0  0  0  0  0  0  0  0  0
    2.8001    3.6950    0.0000 C   0  0  0  0  0  0  0  0  0  0  0  0
    2.0000    4.2948    0.0000 C   0  0  0  0  0  0  0  0  0  0  0  0
   14.9106    0.6337    0.0000 H   0  0  0  0  0  0  0  0  0  0  0  0
   16.6066    0.7788    0.0000 H   0  0  0  0  0  0  0  0  0  0  0  0
   14.2812    1.9742    0.0000 H   0  0  0  0  0  0  0  0  0  0  0  0
   16.4071    2.6300    0.0000 H   0  0  0  0  0  0  0  0  0  0  0  0
   16.2466   -0.6238    0.0000 H   0  0  0  0  0  0  0  0  0  0  0  0
   15.0740   -1.5820    0.0000 H   0  0  0  0  0  0  0  0  0  0  0  0
   14.8155   -1.8605    0.0000 H   0  0  0  0  0  0  0  0  0  0  0  0
   14.8503    4.1217    0.0000 H   0  0  0  0  0  0  0  0  0  0  0  0
   13.4772   -0.3797    0.0000 H   0  0  0  0  0  0  0  0  0  0  0  0
   14.1503   -0.9416    0.0000 H   0  0  0  0  0  0  0  0  0  0  0  0
   14.7122   -0.2685    0.0000 H   0  0  0  0  0  0  0  0  0  0  0  0
   15.4758   -4.0010    0.0000 H   0  0  0  0  0  0  0  0  0  0  0  0
   12.7704    3.4780    0.0000 H   0  0  0  0  0  0  0  0  0  0  0  0
   11.9790    3.5731    0.0000 H   0  0  0  0  0  0  0  0  0  0  0  0
   18.0292    4.7479    0.0000 H   0  0  0  0  0  0  0  0  0  0  0  0
   15.3739    5.6548    0.0000 H   0  0  0  0  0  0  0  0  0  0  0  0
   10.9461    2.2370    0.0000 H   0  0  0  0  0  0  0  0  0  0  0  0
   11.7374    2.1418    0.0000 H   0  0  0  0  0  0  0  0  0  0  0  0
   18.3234    0.3413    0.0000 H   0  0  0  0  0  0  0  0  0  0  0  0
   17.5362    1.0717    0.0000 H   0  0  0  0  0  0  0  0  0  0  0  0
   16.4507   -4.2235    0.0000 H   0  0  0  0  0  0  0  0  0  0  0  0
   18.7544   -4.7370    0.0000 H   0  0  0  0  0  0  0  0  0  0  0  0
   11.0507    3.6848    0.0000 H   0  0  0  0  0  0  0  0  0  0  0  0
   10.2593    3.7799    0.0000 H   0  0  0  0  0  0  0  0  0  0  0  0
   19.9542   -2.9123    0.0000 H   0  0  0  0  0  0  0  0  0  0  0  0
   19.2577   -3.2478    0.0000 H   0  0  0  0  0  0  0  0  0  0  0  0
   21.3749   -3.2478    0.0000 H   0  0  0  0  0  0  0  0  0  0  0  0
   20.6783   -2.9123    0.0000 H   0  0  0  0  0  0  0  0  0  0  0  0
   21.9983   -4.5676    0.0000 H   0  0  0  0  0  0  0  0  0  0  0  0
   21.8263   -3.8139    0.0000 H   0  0  0  0  0  0  0  0  0  0  0  0
   21.1478   -5.8897    0.0000 H   0  0  0  0  0  0  0  0  0  0  0  0
    9.2264    2.4438    0.0000 H   0  0  0  0  0  0  0  0  0  0  0  0
   10.0177    2.3486    0.0000 H   0  0  0  0  0  0  0  0  0  0  0  0
   13.6017   -2.6849    0.0000 H   0  0  0  0  0  0  0  0  0  0  0  0
   17.7961   -4.5306    0.0000 H   0  0  0  0  0  0  0  0  0  0  0  0
    9.3310    3.8916    0.0000 H   0  0  0  0  0  0  0  0  0  0  0  0
    8.5397    3.9867    0.0000 H   0  0  0  0  0  0  0  0  0  0  0  0
   20.3163   -6.3274    0.0000 H   0  0  0  0  0  0  0  0  0  0  0  0
    7.5067    2.6506    0.0000 H   0  0  0  0  0  0  0  0  0  0  0  0
    8.2981    2.5554    0.0000 H   0  0  0  0  0  0  0  0  0  0  0  0
   14.7956   -4.7340    0.0000 H   0  0  0  0  0  0  0  0  0  0  0  0
    7.6114    4.0984    0.0000 H   0  0  0  0  0  0  0  0  0  0  0  0
    6.8200    4.1935    0.0000 H   0  0  0  0  0  0  0  0  0  0  0  0
   21.6125   -6.3818    0.0000 H   0  0  0  0  0  0  0  0  0  0  0  0
   22.4838   -6.2836    0.0000 H   0  0  0  0  0  0  0  0  0  0  0  0
   22.3856   -5.4123    0.0000 H   0  0  0  0  0  0  0  0  0  0  0  0
    5.7871    2.8574    0.0000 H   0  0  0  0  0  0  0  0  0  0  0  0
    6.5784    2.7622    0.0000 H   0  0  0  0  0  0  0  0  0  0  0  0
    5.8917    4.3052    0.0000 H   0  0  0  0  0  0  0  0  0  0  0  0
    5.1004    4.4003    0.0000 H   0  0  0  0  0  0  0  0  0  0  0  0
    4.0674    3.0642    0.0000 H   0  0  0  0  0  0  0  0  0  0  0  0
    4.8588    2.9690    0.0000 H   0  0  0  0  0  0  0  0  0  0  0  0
    4.1720    4.5120    0.0000 H   0  0  0  0  0  0  0  0  0  0  0  0
    3.3807    4.6071    0.0000 H   0  0  0  0  0  0  0  0  0  0  0  0
    2.3478    3.2710    0.0000 H   0  0  0  0  0  0  0  0  0  0  0  0
    3.1391    3.1758    0.0000 H   0  0  0  0  0  0  0  0  0  0  0  0
    2.3719    4.7909    0.0000 H   0  0  0  0  0  0  0  0  0  0  0  0
    1.5039    4.6667    0.0000 H   0  0  0  0  0  0  0  0  0  0  0  0
    1.6281    3.7987    0.0000 H   0  0  0  0  0  0  0  0  0  0  0  0
  1 20  1  0  0  0  0
  1 22  1  0  0  0  0
 19  2  1  1  0  0  0
  2 30  1  0  0  0  0
 21  3  1  1  0  0  0
  3 29  1  0  0  0  0
 23  4  1  6  0  0  0
 25  4  1  1  0  0  0
  5 25  1  0  0  0  0
  5 35  1  0  0  0  0
  6 24  2  0  0  0  0
 26  7  1  6  0  0  0
  7 90  1  0  0  0  0
  8 27  2  0  0  0  0
  9 29  2  0  0  0  0
 31 10  1  6  0  0  0
 10 97  1  0  0  0  0
 11 39  2  0  0  0  0
 12 45  2  0  0  0  0
 13 47  2  0  0  0  0
 22 14  1  6  0  0  0
 14 27  1  0  0  0  0
 14 28  1  0  0  0  0
 15 27  1  0  0  0  0
 15 39  1  0  0  0  0
 15 71  1  0  0  0  0
 16 24  1  0  0  0  0
 16 75  1  0  0  0  0
 16 76  1  0  0  0  0
 37 17  1  1  0  0  0
 17 45  1  0  0  0  0
 17 91  1  0  0  0  0
 18 43  1  0  0  0  0
 18 47  1  0  0  0  0
 18 94  1  0  0  0  0
 19 20  1  0  0  0  0
 19 21  1  0  0  0  0
 19 57  1  0  0  0  0
 20 23  1  0  0  0  0
 20 58  1  1  0  0  0
 21 22  1  0  0  0  0
 21 59  1  0  0  0  0
 22 60  1  0  0  0  0
 23 24  1  0  0  0  0
 23 61  1  0  0  0  0
 25 26  1  0  0  0  0
 25 62  1  0  0  0  0
 26 31  1  0  0  0  0
 26 63  1  0  0  0  0
 28 33  2  0  0  0  0
 28 64  1  0  0  0  0
 29 32  1  0  0  0  0
 30 65  1  0  0  0  0
 30 66  1  0  0  0  0
 30 67  1  0  0  0  0
 31 36  1  0  0  0  0
 31 68  1  0  0  0  0
 32 34  1  0  0  0  0
 32 69  1  0  0  0  0
 32 70  1  0  0  0  0
 33 39  1  0  0  0  0
 33 72  1  0  0  0  0
 34 38  1  0  0  0  0
 34 73  1  0  0  0  0
 34 74  1  0  0  0  0
 35 36  2  0  0  0  0
 35 45  1  0  0  0  0
 36 77  1  0  0  0  0
 37 40  1  0  0  0  0
 37 47  1  0  0  0  0
 37 78  1  0  0  0  0
 38 44  1  0  0  0  0
 38 79  1  0  0  0  0
 38 80  1  0  0  0  0
 40 41  1  0  0  0  0
 40 81  1  0  0  0  0
 40 82  1  0  0  0  0
 41 42  1  0  0  0  0
 41 83  1  0  0  0  0
 41 84  1  0  0  0  0
 42 43  1  0  0  0  0
 42 85  1  0  0  0  0
 42 86  1  0  0  0  0
 43 50  1  6  0  0  0
 43 87  1  0  0  0  0
 44 46  1  0  0  0  0
 44 88  1  0  0  0  0
 44 89  1  0  0  0  0
 46 48  1  0  0  0  0
 46 92  1  0  0  0  0
 46 93  1  0  0  0  0
 48 49  1  0  0  0  0
 48 95  1  0  0  0  0
 48 96  1  0  0  0  0
 49 51  1  0  0  0  0
 49 98  1  0  0  0  0
 49 99  1  0  0  0  0
 50100  1  0  0  0  0
 50101  1  0  0  0  0
 50102  1  0  0  0  0
 51 52  1  0  0  0  0
 51103  1  0  0  0  0
 51104  1  0  0  0  0
 52 53  1  0  0  0  0
 52105  1  0  0  0  0
 52106  1  0  0  0  0
 53 54  1  0  0  0  0
 53107  1  0  0  0  0
 53108  1  0  0  0  0
 54 55  1  0  0  0  0
 54109  1  0  0  0  0
 54110  1  0  0  0  0
 55 56  1  0  0  0  0
 55111  1  0  0  0  0
 55112  1  0  0  0  0
 56113  1  0  0  0  0
 56114  1  0  0  0  0
 56115  1  0  0  0  0
M  END
> <PUBCHEM_COMPOUND_CID>
513178
> <PUBCHEM_COMPOUND_CANONICALIZED>
1
> <PUBCHEM_CACTVS_COMPLEXITY>
1440
> <PUBCHEM_CACTVS_HBOND_ACCEPTOR>
13
> <PUBCHEM_CACTVS_HBOND_DONOR>
6
> <PUBCHEM_CACTVS_ROTATABLE_BOND>
22
> <PUBCHEM_CACTVS_SUBSKEYS>
AAADcfB/vAAAAAAAAAAAAAAAAAAAASAAAAAgQAAABYAAAAAAAAAAHgAQCAAACDzxgAcDCAPABgCIACHWWAKACAAgIgAICIHIAEiTVBYAgCQ/UAAP9yKfEcP6/K7AAAAAAAAAAAAAAAAAAAAAAAAAAAAAAA==
> <PUBCHEM_IUPAC_OPENEYE_NAME>
[(2R,3R,4R,5S)-5-[(1R)-2-amino-1-[[(2S,3S,4S)-3,4-dihydroxy-6-[[(3S,7S)-7-methyl-2-oxo-azepan-3-yl]carbamoyl]-3,4-dihydro-2H-pyran-2-yl]oxy]-2-oxo-ethyl]-2-(2,4-dioxopyrimidin-1-yl)-4-methoxy-tetrahydrofuran-3-yl] tetradecanoate
> <PUBCHEM_IUPAC_CAS_NAME>
tetradecanoic acid [(2R,3R,4R,5S)-5-[(1R)-2-amino-1-[[(2S,3S,4S)-3,4-dihydroxy-6-[[[(3S,7S)-7-methyl-2-oxo-3-azepanyl]amino]-oxomethyl]-3,4-dihydro-2H-pyran-2-yl]oxy]-2-oxoethyl]-2-(2,4-dioxo-1-pyrimidinyl)-4-methoxy-3-oxolanyl] ester
> <PUBCHEM_IUPAC_NAME_MARKUP>
[(2<I>R</I>,3<I>R</I>,4<I>R</I>,5<I>S</I>)-5-[(1<I>R</I>)-2-amino-1-[[(2<I>S</I>,3<I>S</I>,4<I>S</I>)-3,4-dihydroxy-6-[[(3<I>S</I>,7<I>S</I>)-7-methyl-2-oxoazepan-3-yl]carbamoyl]-3,4-dihydro-2<I>H</I>-pyran-2-yl]oxy]-2-oxoethyl]-2-(2,4-dioxopyrimidin-1-yl)-4-methoxyoxolan-3-yl] tetradecanoate
> <PUBCHEM_IUPAC_NAME>
[(2R,3R,4R,5S)-5-[(1R)-2-amino-1-[[(2S,3S,4S)-3,4-dihydroxy-6-[[(3S,7S)-7-methyl-2-oxoazepan-3-yl]carbamoyl]-3,4-dihydro-2H-pyran-2-yl]oxy]-2-oxoethyl]-2-(2,4-dioxopyrimidin-1-yl)-4-methoxyoxolan-3-yl] tetradecanoate
> <PUBCHEM_IUPAC_SYSTEMATIC_NAME>
[(2R,3R,4R,5S)-5-[(1R)-2-azanyl-1-[[(2S,3S,4S)-6-[[(3S,7S)-7-methyl-2-oxidanylidene-azepan-3-yl]carbamoyl]-3,4-bis(oxidanyl)-3,4-dihydro-2H-pyran-2-yl]oxy]-2-oxidanylidene-ethyl]-2-[2,4-bis(oxidanylidene)pyrimidin-1-yl]-4-methoxy-oxolan-3-yl] tetradecanoate
> <PUBCHEM_IUPAC_TRADITIONAL_NAME>
myristic acid [(2R,3R,4R,5S)-5-[(1R)-2-amino-1-[[(2S,3S,4S)-3,4-dihydroxy-6-[[(3S,7S)-2-keto-7-methyl-azepan-3-yl]carbamoyl]-3,4-dihydro-2H-pyran-2-yl]oxy]-2-keto-ethyl]-2-(2,4-diketopyrimidin-1-yl)-4-methoxy-tetrahydrofuran-3-yl] ester
> <PUBCHEM_IUPAC_INCHI>
InChI=1S/C38H59N5O13/c1-4-5-6-7-8-9-10-11-12-13-14-18-27(46)54-32-29(52-3)30(55-36(32)43-20-19-26(45)42-38(43)51)31(33(39)48)56-37-28(47)24(44)21-25(53-37)35(50)41-23-17-15-16-22(2)40-34(23)49/h19-24,28-32,36-37,44,47H,4-18H2,1-3H3,(H2,39,48)(H,40,49)(H,41,50)(H,42,45,51)/t22-,23-,24-,28-,29+,30-,31+,32+,36+,37+/m0/s1
> <PUBCHEM_IUPAC_INCHIKEY>
VRWMWOCVTFGXIW-ZUXWLVMTSA-N
> <PUBCHEM_XLOGP3_AA>
3.2
> <PUBCHEM_EXACT_MASS>
793.41093695
> <PUBCHEM_MOLECULAR_FORMULA>
C38H59N5O13
> <PUBCHEM_MOLECULAR_WEIGHT>
793.9
> <PUBCHEM_OPENEYE_CAN_SMILES>
CCCCCCCCCCCCCC(=O)OC1C(C(OC1N2C=CC(=O)NC2=O)C(C(=O)N)OC3C(C(C=C(O3)C(=O)NC4CCCC(NC4=O)C)O)O)OC
> <PUBCHEM_OPENEYE_ISO_SMILES>
CCCCCCCCCCCCCC(=O)O[C@@H]1[C@@H]([C@H](O[C@H]1N2C=CC(=O)NC2=O)[C@H](C(=O)N)O[C@@H]3[C@H]([C@H](C=C(O3)C(=O)N[C@H]4CCC[C@@H](NC4=O)C)O)O)OC
> <PUBCHEM_CACTVS_TPSA>
254
> <PUBCHEM_MONOISOTOPIC_WEIGHT>
793.41093695
> <PUBCHEM_TOTAL_CHARGE>
0
> <PUBCHEM_HEAVY_ATOM_COUNT>
56
> <PUBCHEM_ATOM_DEF_STEREO_COUNT>
10
> <PUBCHEM_ATOM_UDEF_STEREO_COUNT>
0
> <PUBCHEM_BOND_DEF_STEREO_COUNT>
0
> <PUBCHEM_BOND_UDEF_STEREO_COUNT>
0
> <PUBCHEM_ISOTOPIC_ATOM_COUNT>
0
> <PUBCHEM_COMPONENT_COUNT>
1
> <PUBCHEM_CACTVS_TAUTO_COUNT>
-1
> <PUBCHEM_COORDINATE_TYPE>
1
5
255
> <PUBCHEM_BONDANNOTATIONS>
31  10  6
22  14  6
14  27  8
14  28  8
15  27  8
15  39  8
37  17  5
19  2  5
20  58  5
28  33  8
21  3  5
33  39  8
23  4  6
25  4  5
43  50  6
26  7  6
$$$$
