513157
  -OEChem-10302200282D
 55 58  0     1  0  0  0  0  0999 V2000
    9.9359   -0.7552    0.0000 O   0  0  0  0  0  0  0  0  0  0  0  0
   10.2581    1.2094    0.0000 O   0  0  0  0  0  0  0  0  0  0  0  0
    6.1887   -2.1659    0.0000 O   0  0  0  0  0  0  0  0  0  0  0  0
    2.8005   -0.9329    0.0000 O   0  0  0  0  0  0  0  0  0  0  0  0
    8.6758    0.5049    0.0000 N   0  0  0  0  0  0  0  0  0  0  0  0
    6.3727   -0.4436    0.0000 N   0  0  0  0  0  0  0  0  0  0  0  0
    4.2000   -1.9534    0.0000 N   0  0  0  0  0  0  0  0  0  0  0  0
    2.6165   -2.6551    0.0000 N   0  0  0  0  0  0  0  0  0  0  0  0
    8.1758   -1.0340    0.0000 C   0  0  0  0  0  0  0  0  0  0  0  0
    7.3668   -0.4462    0.0000 C   0  0  2  0  0  0  0  0  0  0  0  0
    7.6758    0.5049    0.0000 C   0  0  2  0  0  0  0  0  0  0  0  0
    8.8829   -1.7411    0.0000 C   0  0  0  0  0  0  0  0  0  0  0  0
    7.4687   -1.7411    0.0000 C   0  0  0  0  0  0  0  0  0  0  0  0
    8.1758   -2.4482    0.0000 C   0  0  0  0  0  0  0  0  0  0  0  0
    8.9848   -0.4462    0.0000 C   0  0  0  0  0  0  0  0  0  0  0  0
    6.8701    1.0871    0.0000 C   0  0  0  0  0  0  0  0  0  0  0  0
    6.0664    0.5021    0.0000 C   0  0  0  0  0  0  0  0  0  0  0  0
    9.2636    1.3139    0.0000 C   0  0  0  0  0  0  0  0  0  0  0  0
    8.8569    2.2274    0.0000 C   0  0  0  0  0  0  0  0  0  0  0  0
    5.7835   -1.2516    0.0000 C   0  0  0  0  0  0  0  0  0  0  0  0
    8.9614    3.2220    0.0000 C   0  0  0  0  0  0  0  0  0  0  0  0
    8.0478    2.8152    0.0000 C   0  0  0  0  0  0  0  0  0  0  0  0
    4.7892   -1.1454    0.0000 C   0  0  2  0  0  0  0  0  0  0  0  0
    4.3840   -0.2311    0.0000 C   0  0  0  0  0  0  0  0  0  0  0  0
    3.3897   -0.1249    0.0000 C   0  0  0  0  0  0  0  0  0  0  0  0
    4.9732    0.5769    0.0000 C   0  0  0  0  0  0  0  0  0  0  0  0
    3.2057   -1.8471    0.0000 C   0  0  0  0  0  0  0  0  0  0  0  0
    7.1031   -1.2542    0.0000 H   0  0  0  0  0  0  0  0  0  0  0  0
    7.9374    1.3136    0.0000 H   0  0  0  0  0  0  0  0  0  0  0  0
    9.3213   -2.1795    0.0000 H   0  0  0  0  0  0  0  0  0  0  0  0
    9.3213   -1.3027    0.0000 H   0  0  0  0  0  0  0  0  0  0  0  0
    7.0303   -1.3027    0.0000 H   0  0  0  0  0  0  0  0  0  0  0  0
    7.0303   -2.1795    0.0000 H   0  0  0  0  0  0  0  0  0  0  0  0
    7.7374   -2.8866    0.0000 H   0  0  0  0  0  0  0  0  0  0  0  0
    8.6142   -2.8866    0.0000 H   0  0  0  0  0  0  0  0  0  0  0  0
    7.2840    1.5487    0.0000 H   0  0  0  0  0  0  0  0  0  0  0  0
    6.4546    1.5472    0.0000 H   0  0  0  0  0  0  0  0  0  0  0  0
    5.7562    1.0389    0.0000 H   0  0  0  0  0  0  0  0  0  0  0  0
    5.4999    0.2501    0.0000 H   0  0  0  0  0  0  0  0  0  0  0  0
    9.4692    2.3244    0.0000 H   0  0  0  0  0  0  0  0  0  0  0  0
    9.5799    3.2652    0.0000 H   0  0  0  0  0  0  0  0  0  0  0  0
    8.8114    3.8235    0.0000 H   0  0  0  0  0  0  0  0  0  0  0  0
    7.7012    3.3292    0.0000 H   0  0  0  0  0  0  0  0  0  0  0  0
    7.6019    2.3845    0.0000 H   0  0  0  0  0  0  0  0  0  0  0  0
    4.1727   -1.0795    0.0000 H   0  0  0  0  0  0  0  0  0  0  0  0
    5.0005   -0.2970    0.0000 H   0  0  0  0  0  0  0  0  0  0  0  0
    4.4512   -2.5202    0.0000 H   0  0  0  0  0  0  0  0  0  0  0  0
    3.4556    0.4916    0.0000 H   0  0  0  0  0  0  0  0  0  0  0  0
    2.7732   -0.0590    0.0000 H   0  0  0  0  0  0  0  0  0  0  0  0
    3.3238   -0.7414    0.0000 H   0  0  0  0  0  0  0  0  0  0  0  0
    5.4742    0.2116    0.0000 H   0  0  0  0  0  0  0  0  0  0  0  0
    5.3385    1.0778    0.0000 H   0  0  0  0  0  0  0  0  0  0  0  0
    4.4723    0.9422    0.0000 H   0  0  0  0  0  0  0  0  0  0  0  0
    2.0000   -2.5892    0.0000 H   0  0  0  0  0  0  0  0  0  0  0  0
    2.8677   -3.2220    0.0000 H   0  0  0  0  0  0  0  0  0  0  0  0
  1 15  2  0  0  0  0
  2 18  2  0  0  0  0
  3 20  2  0  0  0  0
  4 27  2  0  0  0  0
  5 11  1  0  0  0  0
  5 15  1  0  0  0  0
  5 18  1  0  0  0  0
  6 10  1  0  0  0  0
  6 17  1  0  0  0  0
  6 20  1  0  0  0  0
 23  7  1  1  0  0  0
  7 27  1  0  0  0  0
  7 47  1  0  0  0  0
  8 27  1  0  0  0  0
  8 54  1  0  0  0  0
  8 55  1  0  0  0  0
  9 10  1  0  0  0  0
  9 12  1  0  0  0  0
  9 13  1  0  0  0  0
  9 15  1  0  0  0  0
 10 11  1  0  0  0  0
 10 28  1  6  0  0  0
 11 16  1  0  0  0  0
 11 29  1  1  0  0  0
 12 14  1  0  0  0  0
 12 30  1  0  0  0  0
 12 31  1  0  0  0  0
 13 14  1  0  0  0  0
 13 32  1  0  0  0  0
 13 33  1  0  0  0  0
 14 34  1  0  0  0  0
 14 35  1  0  0  0  0
 16 17  1  0  0  0  0
 16 36  1  0  0  0  0
 16 37  1  0  0  0  0
 17 38  1  0  0  0  0
 17 39  1  0  0  0  0
 18 19  1  0  0  0  0
 19 21  1  0  0  0  0
 19 22  1  0  0  0  0
 19 40  1  0  0  0  0
 20 23  1  0  0  0  0
 21 22  1  0  0  0  0
 21 41  1  0  0  0  0
 21 42  1  0  0  0  0
 22 43  1  0  0  0  0
 22 44  1  0  0  0  0
 23 24  1  0  0  0  0
 23 45  1  0  0  0  0
 24 25  1  0  0  0  0
 24 26  1  0  0  0  0
 24 46  1  0  0  0  0
 25 48  1  0  0  0  0
 25 49  1  0  0  0  0
 25 50  1  0  0  0  0
 26 51  1  0  0  0  0
 26 52  1  0  0  0  0
 26 53  1  0  0  0  0
M  END
> <PUBCHEM_COMPOUND_CID>
513157
> <PUBCHEM_COMPOUND_CANONICALIZED>
1
> <PUBCHEM_CACTVS_COMPLEXITY>
698
> <PUBCHEM_CACTVS_HBOND_ACCEPTOR>
4
> <PUBCHEM_CACTVS_HBOND_DONOR>
2
> <PUBCHEM_CACTVS_ROTATABLE_BOND>
4
> <PUBCHEM_CACTVS_SUBSKEYS>
AAADceB7uAAAAAAAAAAAAAAAGABgAWLAAAAAAAAAAAAWAAAAAAAAHgAQAAAADyjBgAQDAAPAAAAIAAEQEAAAAAAAAAAAAIGIAACAQBoAwCAUAAAAFiKAAAEciIAPAAAAAAAAAAAAAAAAAAAAAAAAAAAAAA==
> <PUBCHEM_IUPAC_OPENEYE_NAME>
[(1S)-1-[(3aS,6aR)-4-(cyclopropanecarbonyl)-5-oxo-spiro[2,3,3a,6a-tetrahydropyrrolo[3,2-b]pyrrole-6,1'-cyclobutane]-1-carbonyl]-2-methyl-propyl]urea
> <PUBCHEM_IUPAC_CAS_NAME>
[(2S)-1-[(3aS,6aR)-4-[cyclopropyl(oxo)methyl]-5-oxo-1-spiro[2,3,3a,6a-tetrahydropyrrolo[3,2-b]pyrrole-6,1'-cyclobutane]yl]-3-methyl-1-oxobutan-2-yl]urea
> <PUBCHEM_IUPAC_NAME_MARKUP>
[(2<I>S</I>)-1-[(3<I>a</I><I>S</I>,6<I>a</I><I>R</I>)-4-(cyclopropanecarbonyl)-5-oxospiro[2,3,3<I>a</I>,6<I>a</I>-tetrahydropyrrolo[3,2-b]pyrrole-6,1&apos;-cyclobutane]-1-yl]-3-methyl-1-oxobutan-2-yl]urea
> <PUBCHEM_IUPAC_NAME>
[(2S)-1-[(3aS,6aR)-4-(cyclopropanecarbonyl)-5-oxospiro[2,3,3a,6a-tetrahydropyrrolo[3,2-b]pyrrole-6,1'-cyclobutane]-1-yl]-3-methyl-1-oxobutan-2-yl]urea
> <PUBCHEM_IUPAC_SYSTEMATIC_NAME>
1-[(2S)-1-[(3aS,6aR)-4-cyclopropylcarbonyl-5-oxidanylidene-spiro[2,3,3a,6a-tetrahydropyrrolo[3,2-b]pyrrole-6,1'-cyclobutane]-1-yl]-3-methyl-1-oxidanylidene-butan-2-yl]urea
> <PUBCHEM_IUPAC_TRADITIONAL_NAME>
[(1S)-1-[(3aS,6aR)-4-(cyclopropanecarbonyl)-5-keto-spiro[2,3,3a,6a-tetrahydropyrrolo[3,2-b]pyrrole-6,1'-cyclobutane]-1-carbonyl]-2-methyl-propyl]urea
> <PUBCHEM_IUPAC_INCHI>
InChI=1S/C19H28N4O4/c1-10(2)13(21-18(20)27)16(25)22-9-6-12-14(22)19(7-3-8-19)17(26)23(12)15(24)11-4-5-11/h10-14H,3-9H2,1-2H3,(H3,20,21,27)/t12-,13-,14-/m0/s1
> <PUBCHEM_IUPAC_INCHIKEY>
FXJDAYFUCLSHKS-IHRRRGAJSA-N
> <PUBCHEM_XLOGP3_AA>
0.5
> <PUBCHEM_EXACT_MASS>
376.21105539
> <PUBCHEM_MOLECULAR_FORMULA>
C19H28N4O4
> <PUBCHEM_MOLECULAR_WEIGHT>
376.4
> <PUBCHEM_OPENEYE_CAN_SMILES>
CC(C)C(C(=O)N1CCC2C1C3(CCC3)C(=O)N2C(=O)C4CC4)NC(=O)N
> <PUBCHEM_OPENEYE_ISO_SMILES>
CC(C)[C@@H](C(=O)N1CC[C@H]2[C@H]1C3(CCC3)C(=O)N2C(=O)C4CC4)NC(=O)N
> <PUBCHEM_CACTVS_TPSA>
113
> <PUBCHEM_MONOISOTOPIC_WEIGHT>
376.21105539
> <PUBCHEM_TOTAL_CHARGE>
0
> <PUBCHEM_HEAVY_ATOM_COUNT>
27
> <PUBCHEM_ATOM_DEF_STEREO_COUNT>
3
> <PUBCHEM_ATOM_UDEF_STEREO_COUNT>
0
> <PUBCHEM_BOND_DEF_STEREO_COUNT>
0
> <PUBCHEM_BOND_UDEF_STEREO_COUNT>
0
> <PUBCHEM_ISOTOPIC_ATOM_COUNT>
0
> <PUBCHEM_COMPONENT_COUNT>
1
> <PUBCHEM_CACTVS_TAUTO_COUNT>
-1
> <PUBCHEM_COORDINATE_TYPE>
1
5
255
> <PUBCHEM_BONDANNOTATIONS>
10  28  6
11  29  5
23  7  5
$$$$
