513174
  -OEChem-10302200282D
 94 97  0     1  0  0  0  0  0999 V2000
   10.4098    1.7244    0.0000 O   0  0  0  0  0  0  0  0  0  0  0  0
    8.0460    0.6719    0.0000 O   0  0  0  0  0  0  0  0  0  0  0  0
    8.0785    2.8472    0.0000 O   0  0  0  0  0  0  0  0  0  0  0  0
    9.4246   -0.7643    0.0000 O   0  0  0  0  0  0  0  0  0  0  0  0
   10.6943   -1.9424    0.0000 O   0  0  0  0  0  0  0  0  0  0  0  0
   11.3745   -1.2094    0.0000 O   0  0  0  0  0  0  0  0  0  0  0  0
    8.0642   -2.2304    0.0000 O   0  0  0  0  0  0  0  0  0  0  0  0
   11.7965    2.9286    0.0000 O   0  0  0  0  0  0  0  0  0  0  0  0
    8.6538   -4.1416    0.0000 O   0  0  0  0  0  0  0  0  0  0  0  0
    7.0396    1.4613    0.0000 O   0  0  0  0  0  0  0  0  0  0  0  0
   11.1271    6.3274    0.0000 O   0  0  0  0  0  0  0  0  0  0  0  0
   12.6743   -5.8970    0.0000 O   0  0  0  0  0  0  0  0  0  0  0  0
   12.6441   -2.3875    0.0000 O   0  0  0  0  0  0  0  0  0  0  0  0
   10.1574    3.4885    0.0000 N   0  0  0  0  0  0  0  0  0  0  0  0
   11.4618    4.6280    0.0000 N   0  0  0  0  0  0  0  0  0  0  0  0
   11.7599    0.4792    0.0000 N   0  0  0  0  0  0  0  0  0  0  0  0
   12.2587   -4.0761    0.0000 N   0  0  0  0  0  0  0  0  0  0  0  0
   14.3571   -5.7074    0.0000 N   0  0  0  0  0  0  0  0  0  0  0  0
    8.8637    1.2475    0.0000 C   0  0  2  0  0  0  0  0  0  0  0  0
    9.8100    0.9243    0.0000 C   0  0  1  0  0  0  0  0  0  0  0  0
    8.8786    2.2474    0.0000 C   0  0  2  0  0  0  0  0  0  0  0  0
    9.8342    2.5421    0.0000 C   0  0  1  0  0  0  0  0  0  0  0  0
   10.1048   -0.0313    0.0000 C   0  0  2  0  0  0  0  0  0  0  0  0
    9.7194   -1.7199    0.0000 C   0  0  1  0  0  0  0  0  0  0  0  0
   11.0797   -0.2538    0.0000 C   0  0  0  0  0  0  0  0  0  0  0  0
    9.0392   -2.4530    0.0000 C   0  0  2  0  0  0  0  0  0  0  0  0
   11.1386    3.6817    0.0000 C   0  0  0  0  0  0  0  0  0  0  0  0
    9.4995    4.2415    0.0000 C   0  0  0  0  0  0  0  0  0  0  0  0
    7.1590    2.4542    0.0000 C   0  0  0  0  0  0  0  0  0  0  0  0
    8.1356   -0.3241    0.0000 C   0  0  0  0  0  0  0  0  0  0  0  0
    9.3339   -3.4085    0.0000 C   0  0  2  0  0  0  0  0  0  0  0  0
    6.3588    3.0540    0.0000 C   0  0  0  0  0  0  0  0  0  0  0  0
   13.2336   -4.2986    0.0000 C   0  0  1  0  0  0  0  0  0  0  0  0
   13.8571   -3.5168    0.0000 C   0  0  0  0  0  0  0  0  0  0  0  0
   10.9890   -2.8980    0.0000 C   0  0  0  0  0  0  0  0  0  0  0  0
    9.8227    5.1879    0.0000 C   0  0  0  0  0  0  0  0  0  0  0  0
   14.8571   -3.5168    0.0000 C   0  0  0  0  0  0  0  0  0  0  0  0
   10.3089   -3.6311    0.0000 C   0  0  0  0  0  0  0  0  0  0  0  0
   15.4806   -4.2986    0.0000 C   0  0  0  0  0  0  0  0  0  0  0  0
   15.2581   -5.2736    0.0000 C   0  0  2  0  0  0  0  0  0  0  0  0
    5.4393    2.6610    0.0000 C   0  0  0  0  0  0  0  0  0  0  0  0
   10.8038    5.3811    0.0000 C   0  0  0  0  0  0  0  0  0  0  0  0
   13.4562   -5.2736    0.0000 C   0  0  0  0  0  0  0  0  0  0  0  0
   11.9640   -3.1205    0.0000 C   0  0  0  0  0  0  0  0  0  0  0  0
    4.6392    3.2608    0.0000 C   0  0  0  0  0  0  0  0  0  0  0  0
   16.0399   -5.8970    0.0000 C   0  0  0  0  0  0  0  0  0  0  0  0
    3.7197    2.8678    0.0000 C   0  0  0  0  0  0  0  0  0  0  0  0
    2.9195    3.4676    0.0000 C   0  0  0  0  0  0  0  0  0  0  0  0
    2.0000    3.0746    0.0000 C   0  0  0  0  0  0  0  0  0  0  0  0
    8.9515    0.6337    0.0000 H   0  0  0  0  0  0  0  0  0  0  0  0
   10.6475    0.7788    0.0000 H   0  0  0  0  0  0  0  0  0  0  0  0
    8.3221    1.9742    0.0000 H   0  0  0  0  0  0  0  0  0  0  0  0
   10.4480    2.6300    0.0000 H   0  0  0  0  0  0  0  0  0  0  0  0
   10.2875   -0.6238    0.0000 H   0  0  0  0  0  0  0  0  0  0  0  0
    9.1149   -1.5820    0.0000 H   0  0  0  0  0  0  0  0  0  0  0  0
    8.8564   -1.8605    0.0000 H   0  0  0  0  0  0  0  0  0  0  0  0
    8.8912    4.1217    0.0000 H   0  0  0  0  0  0  0  0  0  0  0  0
    7.5181   -0.3797    0.0000 H   0  0  0  0  0  0  0  0  0  0  0  0
    8.1912   -0.9416    0.0000 H   0  0  0  0  0  0  0  0  0  0  0  0
    8.7531   -0.2685    0.0000 H   0  0  0  0  0  0  0  0  0  0  0  0
    8.7295   -3.2706    0.0000 H   0  0  0  0  0  0  0  0  0  0  0  0
    6.8112    3.4780    0.0000 H   0  0  0  0  0  0  0  0  0  0  0  0
    6.0199    3.5731    0.0000 H   0  0  0  0  0  0  0  0  0  0  0  0
   12.7952   -4.7370    0.0000 H   0  0  0  0  0  0  0  0  0  0  0  0
   13.9951   -2.9123    0.0000 H   0  0  0  0  0  0  0  0  0  0  0  0
   13.2985   -3.2478    0.0000 H   0  0  0  0  0  0  0  0  0  0  0  0
   15.4157   -3.2478    0.0000 H   0  0  0  0  0  0  0  0  0  0  0  0
   14.7192   -2.9123    0.0000 H   0  0  0  0  0  0  0  0  0  0  0  0
   12.0701    4.7479    0.0000 H   0  0  0  0  0  0  0  0  0  0  0  0
    9.4148    5.6548    0.0000 H   0  0  0  0  0  0  0  0  0  0  0  0
   16.0392   -4.5676    0.0000 H   0  0  0  0  0  0  0  0  0  0  0  0
   15.8672   -3.8139    0.0000 H   0  0  0  0  0  0  0  0  0  0  0  0
   10.4916   -4.2235    0.0000 H   0  0  0  0  0  0  0  0  0  0  0  0
   12.3643    0.3413    0.0000 H   0  0  0  0  0  0  0  0  0  0  0  0
   11.5771    1.0717    0.0000 H   0  0  0  0  0  0  0  0  0  0  0  0
   15.1887   -5.8897    0.0000 H   0  0  0  0  0  0  0  0  0  0  0  0
    4.9869    2.2370    0.0000 H   0  0  0  0  0  0  0  0  0  0  0  0
    5.7783    2.1418    0.0000 H   0  0  0  0  0  0  0  0  0  0  0  0
   11.8370   -4.5306    0.0000 H   0  0  0  0  0  0  0  0  0  0  0  0
   14.3571   -6.3274    0.0000 H   0  0  0  0  0  0  0  0  0  0  0  0
    7.6425   -2.6849    0.0000 H   0  0  0  0  0  0  0  0  0  0  0  0
    5.0916    3.6848    0.0000 H   0  0  0  0  0  0  0  0  0  0  0  0
    4.3002    3.7799    0.0000 H   0  0  0  0  0  0  0  0  0  0  0  0
   15.6534   -6.3818    0.0000 H   0  0  0  0  0  0  0  0  0  0  0  0
   16.5247   -6.2836    0.0000 H   0  0  0  0  0  0  0  0  0  0  0  0
   16.4265   -5.4123    0.0000 H   0  0  0  0  0  0  0  0  0  0  0  0
    8.8365   -4.7340    0.0000 H   0  0  0  0  0  0  0  0  0  0  0  0
    3.2673    2.4438    0.0000 H   0  0  0  0  0  0  0  0  0  0  0  0
    4.0586    2.3486    0.0000 H   0  0  0  0  0  0  0  0  0  0  0  0
    3.3719    3.8916    0.0000 H   0  0  0  0  0  0  0  0  0  0  0  0
    2.5806    3.9867    0.0000 H   0  0  0  0  0  0  0  0  0  0  0  0
    1.7563    3.6447    0.0000 H   0  0  0  0  0  0  0  0  0  0  0  0
    1.4299    2.8309    0.0000 H   0  0  0  0  0  0  0  0  0  0  0  0
    2.2437    2.5045    0.0000 H   0  0  0  0  0  0  0  0  0  0  0  0
  1 20  1  0  0  0  0
  1 22  1  0  0  0  0
 19  2  1  1  0  0  0
  2 30  1  0  0  0  0
 21  3  1  1  0  0  0
  3 29  1  0  0  0  0
 23  4  1  6  0  0  0
 24  4  1  1  0  0  0
  5 24  1  0  0  0  0
  5 35  1  0  0  0  0
  6 25  2  0  0  0  0
 26  7  1  6  0  0  0
  7 81  1  0  0  0  0
  8 27  2  0  0  0  0
 31  9  1  6  0  0  0
  9 87  1  0  0  0  0
 10 29  2  0  0  0  0
 11 42  2  0  0  0  0
 12 43  2  0  0  0  0
 13 44  2  0  0  0  0
 22 14  1  6  0  0  0
 14 27  1  0  0  0  0
 14 28  1  0  0  0  0
 15 27  1  0  0  0  0
 15 42  1  0  0  0  0
 15 69  1  0  0  0  0
 16 25  1  0  0  0  0
 16 74  1  0  0  0  0
 16 75  1  0  0  0  0
 33 17  1  1  0  0  0
 17 44  1  0  0  0  0
 17 79  1  0  0  0  0
 18 40  1  0  0  0  0
 18 43  1  0  0  0  0
 18 80  1  0  0  0  0
 19 20  1  0  0  0  0
 19 21  1  0  0  0  0
 19 50  1  0  0  0  0
 20 23  1  0  0  0  0
 20 51  1  1  0  0  0
 21 22  1  0  0  0  0
 21 52  1  0  0  0  0
 22 53  1  0  0  0  0
 23 25  1  0  0  0  0
 23 54  1  0  0  0  0
 24 26  1  0  0  0  0
 24 55  1  0  0  0  0
 26 31  1  0  0  0  0
 26 56  1  0  0  0  0
 28 36  2  0  0  0  0
 28 57  1  0  0  0  0
 29 32  1  0  0  0  0
 30 58  1  0  0  0  0
 30 59  1  0  0  0  0
 30 60  1  0  0  0  0
 31 38  1  0  0  0  0
 31 61  1  0  0  0  0
 32 41  1  0  0  0  0
 32 62  1  0  0  0  0
 32 63  1  0  0  0  0
 33 34  1  0  0  0  0
 33 43  1  0  0  0  0
 33 64  1  0  0  0  0
 34 37  1  0  0  0  0
 34 65  1  0  0  0  0
 34 66  1  0  0  0  0
 35 38  2  0  0  0  0
 35 44  1  0  0  0  0
 36 42  1  0  0  0  0
 36 70  1  0  0  0  0
 37 39  1  0  0  0  0
 37 67  1  0  0  0  0
 37 68  1  0  0  0  0
 38 73  1  0  0  0  0
 39 40  1  0  0  0  0
 39 71  1  0  0  0  0
 39 72  1  0  0  0  0
 40 46  1  6  0  0  0
 40 76  1  0  0  0  0
 41 45  1  0  0  0  0
 41 77  1  0  0  0  0
 41 78  1  0  0  0  0
 45 47  1  0  0  0  0
 45 82  1  0  0  0  0
 45 83  1  0  0  0  0
 46 84  1  0  0  0  0
 46 85  1  0  0  0  0
 46 86  1  0  0  0  0
 47 48  1  0  0  0  0
 47 88  1  0  0  0  0
 47 89  1  0  0  0  0
 48 49  1  0  0  0  0
 48 90  1  0  0  0  0
 48 91  1  0  0  0  0
 49 92  1  0  0  0  0
 49 93  1  0  0  0  0
 49 94  1  0  0  0  0
M  END
> <PUBCHEM_COMPOUND_CID>
513174
> <PUBCHEM_COMPOUND_CANONICALIZED>
1
> <PUBCHEM_CACTVS_COMPLEXITY>
1320
> <PUBCHEM_CACTVS_HBOND_ACCEPTOR>
13
> <PUBCHEM_CACTVS_HBOND_DONOR>
6
> <PUBCHEM_CACTVS_ROTATABLE_BOND>
15
> <PUBCHEM_CACTVS_SUBSKEYS>
AAADcfB7vAAAAAAAAAAAAAAAAAAAASAAAAAgQAAABYAAAAAAAAAAHgAQCAAACDzxgAcDCAPABgCIACHWWAKACAAgIgAICIHIAEiTVBYAgCQ/UAAP9yKfEcP6/C7AAAAAAAAAAAAAAAAAAAAAAAAAAAAAAA==
> <PUBCHEM_IUPAC_OPENEYE_NAME>
[(2R,3R,4R,5S)-5-[(1R)-2-amino-1-[[(2S,3S,4S)-3,4-dihydroxy-6-[[(3S,7S)-7-methyl-2-oxo-azepan-3-yl]carbamoyl]-3,4-dihydro-2H-pyran-2-yl]oxy]-2-oxo-ethyl]-2-(2,4-dioxopyrimidin-1-yl)-4-methoxy-tetrahydrofuran-3-yl] heptanoate
> <PUBCHEM_IUPAC_CAS_NAME>
heptanoic acid [(2R,3R,4R,5S)-5-[(1R)-2-amino-1-[[(2S,3S,4S)-3,4-dihydroxy-6-[[[(3S,7S)-7-methyl-2-oxo-3-azepanyl]amino]-oxomethyl]-3,4-dihydro-2H-pyran-2-yl]oxy]-2-oxoethyl]-2-(2,4-dioxo-1-pyrimidinyl)-4-methoxy-3-oxolanyl] ester
> <PUBCHEM_IUPAC_NAME_MARKUP>
[(2<I>R</I>,3<I>R</I>,4<I>R</I>,5<I>S</I>)-5-[(1<I>R</I>)-2-amino-1-[[(2<I>S</I>,3<I>S</I>,4<I>S</I>)-3,4-dihydroxy-6-[[(3<I>S</I>,7<I>S</I>)-7-methyl-2-oxoazepan-3-yl]carbamoyl]-3,4-dihydro-2<I>H</I>-pyran-2-yl]oxy]-2-oxoethyl]-2-(2,4-dioxopyrimidin-1-yl)-4-methoxyoxolan-3-yl] heptanoate
> <PUBCHEM_IUPAC_NAME>
[(2R,3R,4R,5S)-5-[(1R)-2-amino-1-[[(2S,3S,4S)-3,4-dihydroxy-6-[[(3S,7S)-7-methyl-2-oxoazepan-3-yl]carbamoyl]-3,4-dihydro-2H-pyran-2-yl]oxy]-2-oxoethyl]-2-(2,4-dioxopyrimidin-1-yl)-4-methoxyoxolan-3-yl] heptanoate
> <PUBCHEM_IUPAC_SYSTEMATIC_NAME>
[(2R,3R,4R,5S)-5-[(1R)-2-azanyl-1-[[(2S,3S,4S)-6-[[(3S,7S)-7-methyl-2-oxidanylidene-azepan-3-yl]carbamoyl]-3,4-bis(oxidanyl)-3,4-dihydro-2H-pyran-2-yl]oxy]-2-oxidanylidene-ethyl]-2-[2,4-bis(oxidanylidene)pyrimidin-1-yl]-4-methoxy-oxolan-3-yl] heptanoate
> <PUBCHEM_IUPAC_TRADITIONAL_NAME>
enanthic acid [(2R,3R,4R,5S)-5-[(1R)-2-amino-1-[[(2S,3S,4S)-3,4-dihydroxy-6-[[(3S,7S)-2-keto-7-methyl-azepan-3-yl]carbamoyl]-3,4-dihydro-2H-pyran-2-yl]oxy]-2-keto-ethyl]-2-(2,4-diketopyrimidin-1-yl)-4-methoxy-tetrahydrofuran-3-yl] ester
> <PUBCHEM_IUPAC_INCHI>
InChI=1S/C31H45N5O13/c1-4-5-6-7-11-20(39)47-25-22(45-3)23(48-29(25)36-13-12-19(38)35-31(36)44)24(26(32)41)49-30-21(40)17(37)14-18(46-30)28(43)34-16-10-8-9-15(2)33-27(16)42/h12-17,21-25,29-30,37,40H,4-11H2,1-3H3,(H2,32,41)(H,33,42)(H,34,43)(H,35,38,44)/t15-,16-,17-,21-,22+,23-,24+,25+,29+,30+/m0/s1
> <PUBCHEM_IUPAC_INCHIKEY>
XVFBBSHCSLMUIL-OTTUFTPISA-N
> <PUBCHEM_XLOGP3_AA>
-0.6
> <PUBCHEM_EXACT_MASS>
695.30138651
> <PUBCHEM_MOLECULAR_FORMULA>
C31H45N5O13
> <PUBCHEM_MOLECULAR_WEIGHT>
695.7
> <PUBCHEM_OPENEYE_CAN_SMILES>
CCCCCCC(=O)OC1C(C(OC1N2C=CC(=O)NC2=O)C(C(=O)N)OC3C(C(C=C(O3)C(=O)NC4CCCC(NC4=O)C)O)O)OC
> <PUBCHEM_OPENEYE_ISO_SMILES>
CCCCCCC(=O)O[C@@H]1[C@@H]([C@H](O[C@H]1N2C=CC(=O)NC2=O)[C@H](C(=O)N)O[C@@H]3[C@H]([C@H](C=C(O3)C(=O)N[C@H]4CCC[C@@H](NC4=O)C)O)O)OC
> <PUBCHEM_CACTVS_TPSA>
254
> <PUBCHEM_MONOISOTOPIC_WEIGHT>
695.30138651
> <PUBCHEM_TOTAL_CHARGE>
0
> <PUBCHEM_HEAVY_ATOM_COUNT>
49
> <PUBCHEM_ATOM_DEF_STEREO_COUNT>
10
> <PUBCHEM_ATOM_UDEF_STEREO_COUNT>
0
> <PUBCHEM_BOND_DEF_STEREO_COUNT>
0
> <PUBCHEM_BOND_UDEF_STEREO_COUNT>
0
> <PUBCHEM_ISOTOPIC_ATOM_COUNT>
0
> <PUBCHEM_COMPONENT_COUNT>
1
> <PUBCHEM_CACTVS_TAUTO_COUNT>
-1
> <PUBCHEM_COORDINATE_TYPE>
1
5
255
> <PUBCHEM_BONDANNOTATIONS>
22  14  6
14  27  8
14  28  8
15  27  8
15  42  8
33  17  5
19  2  5
20  51  5
28  36  8
21  3  5
36  42  8
23  4  6
24  4  5
40  46  6
26  7  6
31  9  6
$$$$
