513163
  -OEChem-10302200282D
 68 72  0     1  0  0  0  0  0999 V2000
   11.8970   -0.7208    0.0000 O   0  0  0  0  0  0  0  0  0  0  0  0
   12.2192    1.2438    0.0000 O   0  0  0  0  0  0  0  0  0  0  0  0
    8.1498   -2.1314    0.0000 O   0  0  0  0  0  0  0  0  0  0  0  0
    4.7616   -0.8984    0.0000 O   0  0  0  0  0  0  0  0  0  0  0  0
   10.6369    0.5393    0.0000 N   0  0  0  0  0  0  0  0  0  0  0  0
    8.3338   -0.4092    0.0000 N   0  0  0  0  0  0  0  0  0  0  0  0
    6.1611   -1.9189    0.0000 N   0  0  0  0  0  0  0  0  0  0  0  0
    4.5776   -2.6207    0.0000 N   0  0  0  0  0  0  0  0  0  0  0  0
   10.1369   -0.9995    0.0000 C   0  0  0  0  0  0  0  0  0  0  0  0
    9.3279   -0.4117    0.0000 C   0  0  2  0  0  0  0  0  0  0  0  0
    9.6369    0.5393    0.0000 C   0  0  2  0  0  0  0  0  0  0  0  0
   10.8440   -1.7066    0.0000 C   0  0  0  0  0  0  0  0  0  0  0  0
    9.4298   -1.7066    0.0000 C   0  0  0  0  0  0  0  0  0  0  0  0
   10.1369   -2.4137    0.0000 C   0  0  0  0  0  0  0  0  0  0  0  0
   10.9459   -0.4117    0.0000 C   0  0  0  0  0  0  0  0  0  0  0  0
    8.8312    1.1215    0.0000 C   0  0  0  0  0  0  0  0  0  0  0  0
    8.0275    0.5365    0.0000 C   0  0  0  0  0  0  0  0  0  0  0  0
   11.2247    1.3483    0.0000 C   0  0  0  0  0  0  0  0  0  0  0  0
   10.8180    2.2619    0.0000 C   0  0  0  0  0  0  0  0  0  0  0  0
    7.7446   -1.2172    0.0000 C   0  0  0  0  0  0  0  0  0  0  0  0
   10.9225    3.2564    0.0000 C   0  0  0  0  0  0  0  0  0  0  0  0
   10.0090    2.8497    0.0000 C   0  0  0  0  0  0  0  0  0  0  0  0
    6.7503   -1.1109    0.0000 C   0  0  2  0  0  0  0  0  0  0  0  0
    6.3452   -0.1967    0.0000 C   0  0  0  0  0  0  0  0  0  0  0  0
    5.3508   -0.0904    0.0000 C   0  0  0  0  0  0  0  0  0  0  0  0
    6.9343    0.6113    0.0000 C   0  0  0  0  0  0  0  0  0  0  0  0
    5.1668   -1.8127    0.0000 C   0  0  0  0  0  0  0  0  0  0  0  0
    3.5833   -2.5144    0.0000 C   0  0  0  0  0  0  0  0  0  0  0  0
    3.0848   -1.6475    0.0000 C   0  0  0  0  0  0  0  0  0  0  0  0
    2.9128   -3.2564    0.0000 C   0  0  0  0  0  0  0  0  0  0  0  0
    2.1062   -1.8537    0.0000 C   0  0  0  0  0  0  0  0  0  0  0  0
    2.0000   -2.8481    0.0000 C   0  0  0  0  0  0  0  0  0  0  0  0
    9.0642   -1.2198    0.0000 H   0  0  0  0  0  0  0  0  0  0  0  0
    9.8985    1.3480    0.0000 H   0  0  0  0  0  0  0  0  0  0  0  0
   11.2824   -2.1450    0.0000 H   0  0  0  0  0  0  0  0  0  0  0  0
   11.2824   -1.2682    0.0000 H   0  0  0  0  0  0  0  0  0  0  0  0
    8.9914   -1.2682    0.0000 H   0  0  0  0  0  0  0  0  0  0  0  0
    8.9914   -2.1450    0.0000 H   0  0  0  0  0  0  0  0  0  0  0  0
    9.6985   -2.8522    0.0000 H   0  0  0  0  0  0  0  0  0  0  0  0
   10.5753   -2.8522    0.0000 H   0  0  0  0  0  0  0  0  0  0  0  0
    9.2451    1.5831    0.0000 H   0  0  0  0  0  0  0  0  0  0  0  0
    8.4157    1.5817    0.0000 H   0  0  0  0  0  0  0  0  0  0  0  0
    7.7173    1.0734    0.0000 H   0  0  0  0  0  0  0  0  0  0  0  0
    7.4610    0.2845    0.0000 H   0  0  0  0  0  0  0  0  0  0  0  0
   11.4303    2.3589    0.0000 H   0  0  0  0  0  0  0  0  0  0  0  0
   11.5410    3.2996    0.0000 H   0  0  0  0  0  0  0  0  0  0  0  0
   10.7725    3.8580    0.0000 H   0  0  0  0  0  0  0  0  0  0  0  0
    9.6622    3.3637    0.0000 H   0  0  0  0  0  0  0  0  0  0  0  0
    9.5630    2.4190    0.0000 H   0  0  0  0  0  0  0  0  0  0  0  0
    6.1338   -1.0450    0.0000 H   0  0  0  0  0  0  0  0  0  0  0  0
    6.9616   -0.2625    0.0000 H   0  0  0  0  0  0  0  0  0  0  0  0
    6.4123   -2.4857    0.0000 H   0  0  0  0  0  0  0  0  0  0  0  0
    5.4167    0.5261    0.0000 H   0  0  0  0  0  0  0  0  0  0  0  0
    4.7343   -0.0245    0.0000 H   0  0  0  0  0  0  0  0  0  0  0  0
    5.2849   -0.7069    0.0000 H   0  0  0  0  0  0  0  0  0  0  0  0
    7.4353    0.2460    0.0000 H   0  0  0  0  0  0  0  0  0  0  0  0
    7.2996    1.1123    0.0000 H   0  0  0  0  0  0  0  0  0  0  0  0
    6.4334    0.9766    0.0000 H   0  0  0  0  0  0  0  0  0  0  0  0
    3.8044   -3.0936    0.0000 H   0  0  0  0  0  0  0  0  0  0  0  0
    4.8288   -3.1875    0.0000 H   0  0  0  0  0  0  0  0  0  0  0  0
    3.6516   -1.3963    0.0000 H   0  0  0  0  0  0  0  0  0  0  0  0
    2.8942   -1.0575    0.0000 H   0  0  0  0  0  0  0  0  0  0  0  0
    2.6019   -3.7928    0.0000 H   0  0  0  0  0  0  0  0  0  0  0  0
    3.4138   -3.6217    0.0000 H   0  0  0  0  0  0  0  0  0  0  0  0
    2.0425   -1.2370    0.0000 H   0  0  0  0  0  0  0  0  0  0  0  0
    1.4862   -1.8527    0.0000 H   0  0  0  0  0  0  0  0  0  0  0  0
    1.3938   -2.7181    0.0000 H   0  0  0  0  0  0  0  0  0  0  0  0
    1.8074   -3.4374    0.0000 H   0  0  0  0  0  0  0  0  0  0  0  0
  1 15  2  0  0  0  0
  2 18  2  0  0  0  0
  3 20  2  0  0  0  0
  4 27  2  0  0  0  0
  5 11  1  0  0  0  0
  5 15  1  0  0  0  0
  5 18  1  0  0  0  0
  6 10  1  0  0  0  0
  6 17  1  0  0  0  0
  6 20  1  0  0  0  0
 23  7  1  1  0  0  0
  7 27  1  0  0  0  0
  7 52  1  0  0  0  0
  8 27  1  0  0  0  0
  8 28  1  0  0  0  0
  8 60  1  0  0  0  0
  9 10  1  0  0  0  0
  9 12  1  0  0  0  0
  9 13  1  0  0  0  0
  9 15  1  0  0  0  0
 10 11  1  0  0  0  0
 10 33  1  6  0  0  0
 11 16  1  0  0  0  0
 11 34  1  1  0  0  0
 12 14  1  0  0  0  0
 12 35  1  0  0  0  0
 12 36  1  0  0  0  0
 13 14  1  0  0  0  0
 13 37  1  0  0  0  0
 13 38  1  0  0  0  0
 14 39  1  0  0  0  0
 14 40  1  0  0  0  0
 16 17  1  0  0  0  0
 16 41  1  0  0  0  0
 16 42  1  0  0  0  0
 17 43  1  0  0  0  0
 17 44  1  0  0  0  0
 18 19  1  0  0  0  0
 19 21  1  0  0  0  0
 19 22  1  0  0  0  0
 19 45  1  0  0  0  0
 20 23  1  0  0  0  0
 21 22  1  0  0  0  0
 21 46  1  0  0  0  0
 21 47  1  0  0  0  0
 22 48  1  0  0  0  0
 22 49  1  0  0  0  0
 23 24  1  0  0  0  0
 23 50  1  0  0  0  0
 24 25  1  0  0  0  0
 24 26  1  0  0  0  0
 24 51  1  0  0  0  0
 25 53  1  0  0  0  0
 25 54  1  0  0  0  0
 25 55  1  0  0  0  0
 26 56  1  0  0  0  0
 26 57  1  0  0  0  0
 26 58  1  0  0  0  0
 28 29  1  0  0  0  0
 28 30  1  0  0  0  0
 28 59  1  0  0  0  0
 29 31  1  0  0  0  0
 29 61  1  0  0  0  0
 29 62  1  0  0  0  0
 30 32  1  0  0  0  0
 30 63  1  0  0  0  0
 30 64  1  0  0  0  0
 31 32  1  0  0  0  0
 31 65  1  0  0  0  0
 31 66  1  0  0  0  0
 32 67  1  0  0  0  0
 32 68  1  0  0  0  0
M  END
> <PUBCHEM_COMPOUND_CID>
513163
> <PUBCHEM_COMPOUND_CANONICALIZED>
1
> <PUBCHEM_CACTVS_COMPLEXITY>
813
> <PUBCHEM_CACTVS_HBOND_ACCEPTOR>
4
> <PUBCHEM_CACTVS_HBOND_DONOR>
2
> <PUBCHEM_CACTVS_ROTATABLE_BOND>
5
> <PUBCHEM_CACTVS_SUBSKEYS>
AAADcfB7uAAAAAAAAAAAAAAAGABgAeLEAAAAAAAAAAAWAAAAAAAAHgAQAAAADyjBgAQDAAPAAAAIAAEQEAAAAAAAAAAAAIGIAACAQBoAwCAUAAAIFiKAAAEciIAPAAAAAAAAAAAAAAAAAAAAAAAAAAAAAA==
> <PUBCHEM_IUPAC_OPENEYE_NAME>
1-[(1S)-1-[(3aS,6aR)-4-(cyclopropanecarbonyl)-5-oxo-spiro[2,3,3a,6a-tetrahydropyrrolo[3,2-b]pyrrole-6,1'-cyclobutane]-1-carbonyl]-2-methyl-propyl]-3-cyclopentyl-urea
> <PUBCHEM_IUPAC_CAS_NAME>
1-[(2S)-1-[(3aS,6aR)-4-[cyclopropyl(oxo)methyl]-5-oxo-1-spiro[2,3,3a,6a-tetrahydropyrrolo[3,2-b]pyrrole-6,1'-cyclobutane]yl]-3-methyl-1-oxobutan-2-yl]-3-cyclopentylurea
> <PUBCHEM_IUPAC_NAME_MARKUP>
1-[(2<I>S</I>)-1-[(3<I>a</I><I>S</I>,6<I>a</I><I>R</I>)-4-(cyclopropanecarbonyl)-5-oxospiro[2,3,3<I>a</I>,6<I>a</I>-tetrahydropyrrolo[3,2-b]pyrrole-6,1&apos;-cyclobutane]-1-yl]-3-methyl-1-oxobutan-2-yl]-3-cyclopentylurea
> <PUBCHEM_IUPAC_NAME>
1-[(2S)-1-[(3aS,6aR)-4-(cyclopropanecarbonyl)-5-oxospiro[2,3,3a,6a-tetrahydropyrrolo[3,2-b]pyrrole-6,1'-cyclobutane]-1-yl]-3-methyl-1-oxobutan-2-yl]-3-cyclopentylurea
> <PUBCHEM_IUPAC_SYSTEMATIC_NAME>
1-[(2S)-1-[(3aS,6aR)-4-cyclopropylcarbonyl-5-oxidanylidene-spiro[2,3,3a,6a-tetrahydropyrrolo[3,2-b]pyrrole-6,1'-cyclobutane]-1-yl]-3-methyl-1-oxidanylidene-butan-2-yl]-3-cyclopentyl-urea
> <PUBCHEM_IUPAC_TRADITIONAL_NAME>
1-[(1S)-1-[(3aS,6aR)-4-(cyclopropanecarbonyl)-5-keto-spiro[2,3,3a,6a-tetrahydropyrrolo[3,2-b]pyrrole-6,1'-cyclobutane]-1-carbonyl]-2-methyl-propyl]-3-cyclopentyl-urea
> <PUBCHEM_IUPAC_INCHI>
InChI=1S/C24H36N4O4/c1-14(2)18(26-23(32)25-16-6-3-4-7-16)21(30)27-13-10-17-19(27)24(11-5-12-24)22(31)28(17)20(29)15-8-9-15/h14-19H,3-13H2,1-2H3,(H2,25,26,32)/t17-,18-,19-/m0/s1
> <PUBCHEM_IUPAC_INCHIKEY>
SJYRZAIFYPDCFL-FHWLQOOXSA-N
> <PUBCHEM_XLOGP3_AA>
2.1
> <PUBCHEM_EXACT_MASS>
444.27365564
> <PUBCHEM_MOLECULAR_FORMULA>
C24H36N4O4
> <PUBCHEM_MOLECULAR_WEIGHT>
444.6
> <PUBCHEM_OPENEYE_CAN_SMILES>
CC(C)C(C(=O)N1CCC2C1C3(CCC3)C(=O)N2C(=O)C4CC4)NC(=O)NC5CCCC5
> <PUBCHEM_OPENEYE_ISO_SMILES>
CC(C)[C@@H](C(=O)N1CC[C@H]2[C@H]1C3(CCC3)C(=O)N2C(=O)C4CC4)NC(=O)NC5CCCC5
> <PUBCHEM_CACTVS_TPSA>
98.8
> <PUBCHEM_MONOISOTOPIC_WEIGHT>
444.27365564
> <PUBCHEM_TOTAL_CHARGE>
0
> <PUBCHEM_HEAVY_ATOM_COUNT>
32
> <PUBCHEM_ATOM_DEF_STEREO_COUNT>
3
> <PUBCHEM_ATOM_UDEF_STEREO_COUNT>
0
> <PUBCHEM_BOND_DEF_STEREO_COUNT>
0
> <PUBCHEM_BOND_UDEF_STEREO_COUNT>
0
> <PUBCHEM_ISOTOPIC_ATOM_COUNT>
0
> <PUBCHEM_COMPONENT_COUNT>
1
> <PUBCHEM_CACTVS_TAUTO_COUNT>
-1
> <PUBCHEM_COORDINATE_TYPE>
1
5
255
> <PUBCHEM_BONDANNOTATIONS>
10  33  6
11  34  5
23  7  5
$$$$
