513156
  -OEChem-10302200282D
 91 96  0     1  0  0  0  0  0999 V2000
   16.8690   -0.2306    0.0000 O   0  0  0  0  0  0  0  0  0  0  0  0
   17.1912    1.7339    0.0000 O   0  0  0  0  0  0  0  0  0  0  0  0
   13.1218   -1.6413    0.0000 O   0  0  0  0  0  0  0  0  0  0  0  0
    9.7336   -0.4083    0.0000 O   0  0  0  0  0  0  0  0  0  0  0  0
    8.3712   -3.7465    0.0000 O   0  0  0  0  0  0  0  0  0  0  0  0
   15.6089    1.0294    0.0000 N   0  0  0  0  0  0  0  0  0  0  0  0
   13.3058    0.0810    0.0000 N   0  0  0  0  0  0  0  0  0  0  0  0
   11.1331   -1.4288    0.0000 N   0  0  0  0  0  0  0  0  0  0  0  0
    9.5496   -2.1305    0.0000 N   0  0  0  0  0  0  0  0  0  0  0  0
    6.9717   -2.7260    0.0000 N   0  0  0  0  0  0  0  0  0  0  0  0
    4.9830   -2.5135    0.0000 N   0  0  0  0  0  0  0  0  0  0  0  0
    3.5835   -1.4930    0.0000 N   0  0  0  0  0  0  0  0  0  0  0  0
    3.3995   -3.2153    0.0000 N   0  0  0  0  0  0  0  0  0  0  0  0
   15.1089   -0.5094    0.0000 C   0  0  0  0  0  0  0  0  0  0  0  0
   14.2999    0.0784    0.0000 C   0  0  2  0  0  0  0  0  0  0  0  0
   14.6089    1.0294    0.0000 C   0  0  2  0  0  0  0  0  0  0  0  0
   15.8160   -1.2165    0.0000 C   0  0  0  0  0  0  0  0  0  0  0  0
   14.4018   -1.2165    0.0000 C   0  0  0  0  0  0  0  0  0  0  0  0
   15.1089   -1.9236    0.0000 C   0  0  0  0  0  0  0  0  0  0  0  0
   15.9179    0.0784    0.0000 C   0  0  0  0  0  0  0  0  0  0  0  0
   13.8031    1.6117    0.0000 C   0  0  0  0  0  0  0  0  0  0  0  0
   12.9994    1.0267    0.0000 C   0  0  0  0  0  0  0  0  0  0  0  0
   16.1967    1.8385    0.0000 C   0  0  0  0  0  0  0  0  0  0  0  0
   15.7899    2.7520    0.0000 C   0  0  0  0  0  0  0  0  0  0  0  0
   12.7166   -0.7270    0.0000 C   0  0  0  0  0  0  0  0  0  0  0  0
   15.8945    3.7465    0.0000 C   0  0  0  0  0  0  0  0  0  0  0  0
   14.9809    3.3398    0.0000 C   0  0  0  0  0  0  0  0  0  0  0  0
   11.7223   -0.6208    0.0000 C   0  0  2  0  0  0  0  0  0  0  0  0
   11.3171    0.2935    0.0000 C   0  0  0  0  0  0  0  0  0  0  0  0
   10.3228    0.3997    0.0000 C   0  0  0  0  0  0  0  0  0  0  0  0
   11.9063    1.1015    0.0000 C   0  0  0  0  0  0  0  0  0  0  0  0
   10.1387   -1.3225    0.0000 C   0  0  0  0  0  0  0  0  0  0  0  0
    8.5552   -2.0243    0.0000 C   0  0  1  0  0  0  0  0  0  0  0  0
    8.1501   -1.1100    0.0000 C   0  0  0  0  0  0  0  0  0  0  0  0
    7.9660   -2.8323    0.0000 C   0  0  0  0  0  0  0  0  0  0  0  0
    7.1557   -1.0038    0.0000 C   0  0  0  0  0  0  0  0  0  0  0  0
    8.7392   -0.3020    0.0000 C   0  0  0  0  0  0  0  0  0  0  0  0
    6.5665   -1.8118    0.0000 C   0  0  0  0  0  0  0  0  0  0  0  0
    6.3825   -3.5340    0.0000 C   0  0  0  0  0  0  0  0  0  0  0  0
    5.5722   -1.7055    0.0000 C   0  0  0  0  0  0  0  0  0  0  0  0
    5.3882   -3.4278    0.0000 C   0  0  0  0  0  0  0  0  0  0  0  0
    3.9887   -2.4073    0.0000 C   0  0  0  0  0  0  0  0  0  0  0  0
    2.5892   -1.3868    0.0000 C   0  0  0  0  0  0  0  0  0  0  0  0
    2.4052   -3.1090    0.0000 C   0  0  0  0  0  0  0  0  0  0  0  0
    2.0000   -2.1948    0.0000 C   0  0  0  0  0  0  0  0  0  0  0  0
   14.0362   -0.7297    0.0000 H   0  0  0  0  0  0  0  0  0  0  0  0
   14.8705    1.8382    0.0000 H   0  0  0  0  0  0  0  0  0  0  0  0
   16.2544   -1.6549    0.0000 H   0  0  0  0  0  0  0  0  0  0  0  0
   16.2544   -0.7781    0.0000 H   0  0  0  0  0  0  0  0  0  0  0  0
   13.9634   -0.7781    0.0000 H   0  0  0  0  0  0  0  0  0  0  0  0
   13.9634   -1.6549    0.0000 H   0  0  0  0  0  0  0  0  0  0  0  0
   14.6705   -2.3620    0.0000 H   0  0  0  0  0  0  0  0  0  0  0  0
   15.5473   -2.3620    0.0000 H   0  0  0  0  0  0  0  0  0  0  0  0
   14.2171    2.0732    0.0000 H   0  0  0  0  0  0  0  0  0  0  0  0
   13.3876    2.0718    0.0000 H   0  0  0  0  0  0  0  0  0  0  0  0
   12.6893    1.5635    0.0000 H   0  0  0  0  0  0  0  0  0  0  0  0
   12.4330    0.7746    0.0000 H   0  0  0  0  0  0  0  0  0  0  0  0
   16.4023    2.8490    0.0000 H   0  0  0  0  0  0  0  0  0  0  0  0
   16.5130    3.7898    0.0000 H   0  0  0  0  0  0  0  0  0  0  0  0
   15.7445    4.3481    0.0000 H   0  0  0  0  0  0  0  0  0  0  0  0
   14.6342    3.8538    0.0000 H   0  0  0  0  0  0  0  0  0  0  0  0
   14.5349    2.9091    0.0000 H   0  0  0  0  0  0  0  0  0  0  0  0
   11.1058   -0.5549    0.0000 H   0  0  0  0  0  0  0  0  0  0  0  0
   11.0659    0.8603    0.0000 H   0  0  0  0  0  0  0  0  0  0  0  0
   11.3843   -1.9956    0.0000 H   0  0  0  0  0  0  0  0  0  0  0  0
   10.3886    1.0162    0.0000 H   0  0  0  0  0  0  0  0  0  0  0  0
    9.7063    0.4656    0.0000 H   0  0  0  0  0  0  0  0  0  0  0  0
   10.2569   -0.2168    0.0000 H   0  0  0  0  0  0  0  0  0  0  0  0
   12.4073    0.7362    0.0000 H   0  0  0  0  0  0  0  0  0  0  0  0
   12.2716    1.6024    0.0000 H   0  0  0  0  0  0  0  0  0  0  0  0
   11.4053    1.4668    0.0000 H   0  0  0  0  0  0  0  0  0  0  0  0
    9.8008   -2.6974    0.0000 H   0  0  0  0  0  0  0  0  0  0  0  0
    8.9205   -1.5233    0.0000 H   0  0  0  0  0  0  0  0  0  0  0  0
    7.8989   -0.5432    0.0000 H   0  0  0  0  0  0  0  0  0  0  0  0
    7.2216   -0.3873    0.0000 H   0  0  0  0  0  0  0  0  0  0  0  0
    6.5392   -0.9379    0.0000 H   0  0  0  0  0  0  0  0  0  0  0  0
    7.0898   -1.6203    0.0000 H   0  0  0  0  0  0  0  0  0  0  0  0
    9.2402   -0.6673    0.0000 H   0  0  0  0  0  0  0  0  0  0  0  0
    9.1046    0.1989    0.0000 H   0  0  0  0  0  0  0  0  0  0  0  0
    8.2383    0.0633    0.0000 H   0  0  0  0  0  0  0  0  0  0  0  0
    7.1684   -1.6628    0.0000 H   0  0  0  0  0  0  0  0  0  0  0  0
    6.5244   -1.1932    0.0000 H   0  0  0  0  0  0  0  0  0  0  0  0
    6.2106   -4.1297    0.0000 H   0  0  0  0  0  0  0  0  0  0  0  0
    6.9393   -3.8068    0.0000 H   0  0  0  0  0  0  0  0  0  0  0  0
    5.7441   -1.1098    0.0000 H   0  0  0  0  0  0  0  0  0  0  0  0
    5.0154   -1.4328    0.0000 H   0  0  0  0  0  0  0  0  0  0  0  0
    4.7863   -3.5767    0.0000 H   0  0  0  0  0  0  0  0  0  0  0  0
    5.4304   -4.0463    0.0000 H   0  0  0  0  0  0  0  0  0  0  0  0
    2.3380   -0.8200    0.0000 H   0  0  0  0  0  0  0  0  0  0  0  0
    2.0399   -3.6100    0.0000 H   0  0  0  0  0  0  0  0  0  0  0  0
    1.3835   -2.1289    0.0000 H   0  0  0  0  0  0  0  0  0  0  0  0
  1 20  2  0  0  0  0
  2 23  2  0  0  0  0
  3 25  2  0  0  0  0
  4 32  2  0  0  0  0
  5 35  2  0  0  0  0
  6 16  1  0  0  0  0
  6 20  1  0  0  0  0
  6 23  1  0  0  0  0
  7 15  1  0  0  0  0
  7 22  1  0  0  0  0
  7 25  1  0  0  0  0
 28  8  1  1  0  0  0
  8 32  1  0  0  0  0
  8 65  1  0  0  0  0
  9 32  1  0  0  0  0
 33  9  1  6  0  0  0
  9 72  1  0  0  0  0
 10 35  1  0  0  0  0
 10 38  1  0  0  0  0
 10 39  1  0  0  0  0
 11 40  1  0  0  0  0
 11 41  1  0  0  0  0
 11 42  1  0  0  0  0
 12 42  2  0  0  0  0
 12 43  1  0  0  0  0
 13 42  1  0  0  0  0
 13 44  2  0  0  0  0
 14 15  1  0  0  0  0
 14 17  1  0  0  0  0
 14 18  1  0  0  0  0
 14 20  1  0  0  0  0
 15 16  1  0  0  0  0
 15 46  1  6  0  0  0
 16 21  1  0  0  0  0
 16 47  1  1  0  0  0
 17 19  1  0  0  0  0
 17 48  1  0  0  0  0
 17 49  1  0  0  0  0
 18 19  1  0  0  0  0
 18 50  1  0  0  0  0
 18 51  1  0  0  0  0
 19 52  1  0  0  0  0
 19 53  1  0  0  0  0
 21 22  1  0  0  0  0
 21 54  1  0  0  0  0
 21 55  1  0  0  0  0
 22 56  1  0  0  0  0
 22 57  1  0  0  0  0
 23 24  1  0  0  0  0
 24 26  1  0  0  0  0
 24 27  1  0  0  0  0
 24 58  1  0  0  0  0
 25 28  1  0  0  0  0
 26 27  1  0  0  0  0
 26 59  1  0  0  0  0
 26 60  1  0  0  0  0
 27 61  1  0  0  0  0
 27 62  1  0  0  0  0
 28 29  1  0  0  0  0
 28 63  1  0  0  0  0
 29 30  1  0  0  0  0
 29 31  1  0  0  0  0
 29 64  1  0  0  0  0
 30 66  1  0  0  0  0
 30 67  1  0  0  0  0
 30 68  1  0  0  0  0
 31 69  1  0  0  0  0
 31 70  1  0  0  0  0
 31 71  1  0  0  0  0
 33 34  1  0  0  0  0
 33 35  1  0  0  0  0
 33 73  1  0  0  0  0
 34 36  1  0  0  0  0
 34 37  1  0  0  0  0
 34 74  1  0  0  0  0
 36 75  1  0  0  0  0
 36 76  1  0  0  0  0
 36 77  1  0  0  0  0
 37 78  1  0  0  0  0
 37 79  1  0  0  0  0
 37 80  1  0  0  0  0
 38 40  1  0  0  0  0
 38 81  1  0  0  0  0
 38 82  1  0  0  0  0
 39 41  1  0  0  0  0
 39 83  1  0  0  0  0
 39 84  1  0  0  0  0
 40 85  1  0  0  0  0
 40 86  1  0  0  0  0
 41 87  1  0  0  0  0
 41 88  1  0  0  0  0
 43 45  2  0  0  0  0
 43 89  1  0  0  0  0
 44 45  1  0  0  0  0
 44 90  1  0  0  0  0
 45 91  1  0  0  0  0
M  END
> <PUBCHEM_COMPOUND_CID>
513156
> <PUBCHEM_COMPOUND_CANONICALIZED>
1
> <PUBCHEM_CACTVS_COMPLEXITY>
1170
> <PUBCHEM_CACTVS_HBOND_ACCEPTOR>
8
> <PUBCHEM_CACTVS_HBOND_DONOR>
2
> <PUBCHEM_CACTVS_ROTATABLE_BOND>
8
> <PUBCHEM_CACTVS_SUBSKEYS>
AAADcfB/+AAAAAAAAAAAAAAAGABgAWLAAAAsWAAAAAAWAAABgAAAHgAQAAAADyjBkgQ/kJfIEACoADF3dACAgCkRAqAJUKG4ZBCASJpAyWAUBAgIFiLAACEciIAPAAAAAAAAAAAAAAAAAAAAAAAAAAAAAA==
> <PUBCHEM_IUPAC_OPENEYE_NAME>
1-[(1S)-1-[(3aS,6aR)-4-(cyclopropanecarbonyl)-5-oxo-spiro[2,3,3a,6a-tetrahydropyrrolo[3,2-b]pyrrole-6,1'-cyclobutane]-1-carbonyl]-2-methyl-propyl]-3-[(1S)-2-methyl-1-(4-pyrimidin-2-ylpiperazine-1-carbonyl)propyl]urea
> <PUBCHEM_IUPAC_CAS_NAME>
1-[(2S)-1-[(3aS,6aR)-4-[cyclopropyl(oxo)methyl]-5-oxo-1-spiro[2,3,3a,6a-tetrahydropyrrolo[3,2-b]pyrrole-6,1'-cyclobutane]yl]-3-methyl-1-oxobutan-2-yl]-3-[(2S)-3-methyl-1-oxo-1-[4-(2-pyrimidinyl)-1-piperazinyl]butan-2-yl]urea
> <PUBCHEM_IUPAC_NAME_MARKUP>
1-[(2<I>S</I>)-1-[(3<I>a</I><I>S</I>,6<I>a</I><I>R</I>)-4-(cyclopropanecarbonyl)-5-oxospiro[2,3,3<I>a</I>,6<I>a</I>-tetrahydropyrrolo[3,2-b]pyrrole-6,1&apos;-cyclobutane]-1-yl]-3-methyl-1-oxobutan-2-yl]-3-[(2<I>S</I>)-3-methyl-1-oxo-1-(4-pyrimidin-2-ylpiperazin-1-yl)butan-2-yl]urea
> <PUBCHEM_IUPAC_NAME>
1-[(2S)-1-[(3aS,6aR)-4-(cyclopropanecarbonyl)-5-oxospiro[2,3,3a,6a-tetrahydropyrrolo[3,2-b]pyrrole-6,1'-cyclobutane]-1-yl]-3-methyl-1-oxobutan-2-yl]-3-[(2S)-3-methyl-1-oxo-1-(4-pyrimidin-2-ylpiperazin-1-yl)butan-2-yl]urea
> <PUBCHEM_IUPAC_SYSTEMATIC_NAME>
1-[(2S)-1-[(3aS,6aR)-4-cyclopropylcarbonyl-5-oxidanylidene-spiro[2,3,3a,6a-tetrahydropyrrolo[3,2-b]pyrrole-6,1'-cyclobutane]-1-yl]-3-methyl-1-oxidanylidene-butan-2-yl]-3-[(2S)-3-methyl-1-oxidanylidene-1-(4-pyrimidin-2-ylpiperazin-1-yl)butan-2-yl]urea
> <PUBCHEM_IUPAC_TRADITIONAL_NAME>
1-[(1S)-1-[(3aS,6aR)-4-(cyclopropanecarbonyl)-5-keto-spiro[2,3,3a,6a-tetrahydropyrrolo[3,2-b]pyrrole-6,1'-cyclobutane]-1-carbonyl]-2-methyl-propyl]-3-[(1S)-2-methyl-1-[4-(2-pyrimidyl)piperazine-1-carbonyl]propyl]urea
> <PUBCHEM_IUPAC_INCHI>
InChI=1S/C32H46N8O5/c1-19(2)23(27(42)37-15-17-38(18-16-37)30-33-12-6-13-34-30)35-31(45)36-24(20(3)4)28(43)39-14-9-22-25(39)32(10-5-11-32)29(44)40(22)26(41)21-7-8-21/h6,12-13,19-25H,5,7-11,14-18H2,1-4H3,(H2,35,36,45)/t22-,23-,24-,25-/m0/s1
> <PUBCHEM_IUPAC_INCHIKEY>
WOUFQUWNCNWGHV-QORCZRPOSA-N
> <PUBCHEM_XLOGP3_AA>
2
> <PUBCHEM_EXACT_MASS>
622.35911660
> <PUBCHEM_MOLECULAR_FORMULA>
C32H46N8O5
> <PUBCHEM_MOLECULAR_WEIGHT>
622.8
> <PUBCHEM_OPENEYE_CAN_SMILES>
CC(C)C(C(=O)N1CCN(CC1)C2=NC=CC=N2)NC(=O)NC(C(C)C)C(=O)N3CCC4C3C5(CCC5)C(=O)N4C(=O)C6CC6
> <PUBCHEM_OPENEYE_ISO_SMILES>
CC(C)[C@@H](C(=O)N1CCN(CC1)C2=NC=CC=N2)NC(=O)N[C@@H](C(C)C)C(=O)N3CC[C@H]4[C@H]3C5(CCC5)C(=O)N4C(=O)C6CC6
> <PUBCHEM_CACTVS_TPSA>
148
> <PUBCHEM_MONOISOTOPIC_WEIGHT>
622.35911660
> <PUBCHEM_TOTAL_CHARGE>
0
> <PUBCHEM_HEAVY_ATOM_COUNT>
45
> <PUBCHEM_ATOM_DEF_STEREO_COUNT>
4
> <PUBCHEM_ATOM_UDEF_STEREO_COUNT>
0
> <PUBCHEM_BOND_DEF_STEREO_COUNT>
0
> <PUBCHEM_BOND_UDEF_STEREO_COUNT>
0
> <PUBCHEM_ISOTOPIC_ATOM_COUNT>
0
> <PUBCHEM_COMPONENT_COUNT>
1
> <PUBCHEM_CACTVS_TAUTO_COUNT>
-1
> <PUBCHEM_COORDINATE_TYPE>
1
5
255
> <PUBCHEM_BONDANNOTATIONS>
12  42  8
12  43  8
13  42  8
13  44  8
15  46  6
16  47  5
43  45  8
44  45  8
28  8  5
33  9  6
$$$$
