513141
  -OEChem-10302200282D
 73 75  0     1  0  0  0  0  0999 V2000
    4.6870    1.8156    0.0000 O   0  0  0  0  0  0  0  0  0  0  0  0
    4.1111    4.3383    0.0000 O   0  0  0  0  0  0  0  0  0  0  0  0
    2.6166    1.5406    0.0000 O   0  0  0  0  0  0  0  0  0  0  0  0
    9.1448    0.4176    0.0000 O   0  0  0  0  0  0  0  0  0  0  0  0
    5.6005    0.2223    0.0000 O   0  0  0  0  0  0  0  0  0  0  0  0
   17.2284   -3.1078    0.0000 O   0  0  0  0  0  0  0  0  0  0  0  0
    6.4666    1.7223    0.0000 N   0  0  0  0  0  0  0  0  0  0  0  0
    7.3326    0.2223    0.0000 N   0  0  0  0  0  0  0  0  0  0  0  0
    4.5179    3.4247    0.0000 C   0  0  1  0  0  0  0  0  0  0  0  0
    5.6005    2.2223    0.0000 C   0  0  1  0  0  0  0  0  0  0  0  0
    5.4960    3.2168    0.0000 C   0  0  0  0  0  0  0  0  0  0  0  0
    4.0179    2.5587    0.0000 C   0  0  1  0  0  0  0  0  0  0  0  0
    3.0233    2.4542    0.0000 C   0  0  0  0  0  0  0  0  0  0  0  0
    7.3326    2.2223    0.0000 C   0  0  0  0  0  0  0  0  0  0  0  0
    8.1986    1.7223    0.0000 C   0  0  0  0  0  0  0  0  0  0  0  0
    6.4666    0.7223    0.0000 C   0  0  0  0  0  0  0  0  0  0  0  0
   12.2284    0.3563    0.0000 C   0  0  0  0  0  0  0  0  0  0  0  0
   12.7284   -0.5097    0.0000 C   0  0  0  0  0  0  0  0  0  0  0  0
   11.2284    0.3563    0.0000 C   0  0  0  0  0  0  0  0  0  0  0  0
   13.7284   -0.5097    0.0000 C   0  0  0  0  0  0  0  0  0  0  0  0
   10.7284    1.2223    0.0000 C   0  0  0  0  0  0  0  0  0  0  0  0
   14.2284   -1.3758    0.0000 C   0  0  0  0  0  0  0  0  0  0  0  0
    8.1986    0.7223    0.0000 C   0  0  0  0  0  0  0  0  0  0  0  0
    9.7284    1.2223    0.0000 C   0  0  0  0  0  0  0  0  0  0  0  0
    9.1448    2.0270    0.0000 C   0  0  0  0  0  0  0  0  0  0  0  0
   15.2284   -1.3758    0.0000 C   0  0  0  0  0  0  0  0  0  0  0  0
   15.7284   -2.2418    0.0000 C   0  0  0  0  0  0  0  0  0  0  0  0
   16.7284   -2.2418    0.0000 C   0  0  0  0  0  0  0  0  0  0  0  0
   18.2284   -3.1078    0.0000 C   0  0  0  0  0  0  0  0  0  0  0  0
   18.7284   -3.9738    0.0000 C   0  0  0  0  0  0  0  0  0  0  0  0
   19.7284   -3.9738    0.0000 C   0  0  0  0  0  0  0  0  0  0  0  0
   20.2284   -4.8399    0.0000 C   0  0  0  0  0  0  0  0  0  0  0  0
   21.2284   -4.8399    0.0000 C   0  0  0  0  0  0  0  0  0  0  0  0
    4.9080    3.9066    0.0000 H   0  0  0  0  0  0  0  0  0  0  0  0
    5.5681    1.6032    0.0000 H   0  0  0  0  0  0  0  0  0  0  0  0
    6.1160    3.2168    0.0000 H   0  0  0  0  0  0  0  0  0  0  0  0
    5.5608    3.8334    0.0000 H   0  0  0  0  0  0  0  0  0  0  0  0
    3.7957    1.9799    0.0000 H   0  0  0  0  0  0  0  0  0  0  0  0
    3.0666    3.0727    0.0000 H   0  0  0  0  0  0  0  0  0  0  0  0
    2.4218    2.6042    0.0000 H   0  0  0  0  0  0  0  0  0  0  0  0
    7.3326    2.8423    0.0000 H   0  0  0  0  0  0  0  0  0  0  0  0
    4.4756    4.8399    0.0000 H   0  0  0  0  0  0  0  0  0  0  0  0
   12.8111    0.5683    0.0000 H   0  0  0  0  0  0  0  0  0  0  0  0
   12.1208    0.9669    0.0000 H   0  0  0  0  0  0  0  0  0  0  0  0
   12.1458   -0.7218    0.0000 H   0  0  0  0  0  0  0  0  0  0  0  0
   12.8361   -1.1203    0.0000 H   0  0  0  0  0  0  0  0  0  0  0  0
   10.6458    0.1442    0.0000 H   0  0  0  0  0  0  0  0  0  0  0  0
   11.3361   -0.2543    0.0000 H   0  0  0  0  0  0  0  0  0  0  0  0
   14.3111   -0.2977    0.0000 H   0  0  0  0  0  0  0  0  0  0  0  0
   13.6208    0.1008    0.0000 H   0  0  0  0  0  0  0  0  0  0  0  0
   11.3111    1.4344    0.0000 H   0  0  0  0  0  0  0  0  0  0  0  0
   10.6208    1.8329    0.0000 H   0  0  0  0  0  0  0  0  0  0  0  0
   13.6458   -1.5878    0.0000 H   0  0  0  0  0  0  0  0  0  0  0  0
   14.3361   -1.9864    0.0000 H   0  0  0  0  0  0  0  0  0  0  0  0
    9.3374    2.6164    0.0000 H   0  0  0  0  0  0  0  0  0  0  0  0
   15.8111   -1.1637    0.0000 H   0  0  0  0  0  0  0  0  0  0  0  0
   15.1208   -0.7652    0.0000 H   0  0  0  0  0  0  0  0  0  0  0  0
    2.0000    1.4758    0.0000 H   0  0  0  0  0  0  0  0  0  0  0  0
   15.1458   -2.4538    0.0000 H   0  0  0  0  0  0  0  0  0  0  0  0
   15.8361   -2.8524    0.0000 H   0  0  0  0  0  0  0  0  0  0  0  0
   17.3111   -2.0297    0.0000 H   0  0  0  0  0  0  0  0  0  0  0  0
   16.6208   -1.6312    0.0000 H   0  0  0  0  0  0  0  0  0  0  0  0
   18.8111   -2.8958    0.0000 H   0  0  0  0  0  0  0  0  0  0  0  0
   18.1208   -2.4972    0.0000 H   0  0  0  0  0  0  0  0  0  0  0  0
   18.1458   -4.1859    0.0000 H   0  0  0  0  0  0  0  0  0  0  0  0
   18.8361   -4.5844    0.0000 H   0  0  0  0  0  0  0  0  0  0  0  0
   20.3111   -3.7618    0.0000 H   0  0  0  0  0  0  0  0  0  0  0  0
   19.6208   -3.3633    0.0000 H   0  0  0  0  0  0  0  0  0  0  0  0
   19.6458   -5.0519    0.0000 H   0  0  0  0  0  0  0  0  0  0  0  0
   20.3361   -5.4504    0.0000 H   0  0  0  0  0  0  0  0  0  0  0  0
   21.2284   -5.4599    0.0000 H   0  0  0  0  0  0  0  0  0  0  0  0
   21.8484   -4.8399    0.0000 H   0  0  0  0  0  0  0  0  0  0  0  0
   21.2284   -4.2199    0.0000 H   0  0  0  0  0  0  0  0  0  0  0  0
  1 10  1  0  0  0  0
  1 12  1  0  0  0  0
  9  2  1  1  0  0  0
  2 42  1  0  0  0  0
  3 13  1  0  0  0  0
  3 58  1  0  0  0  0
  4 23  1  0  0  0  0
  4 24  1  0  0  0  0
  5 16  2  0  0  0  0
  6 28  1  0  0  0  0
  6 29  1  0  0  0  0
 10  7  1  6  0  0  0
  7 14  1  0  0  0  0
  7 16  1  0  0  0  0
  8 16  1  0  0  0  0
  8 23  2  0  0  0  0
  9 11  1  0  0  0  0
  9 12  1  0  0  0  0
  9 34  1  0  0  0  0
 10 11  1  0  0  0  0
 10 35  1  0  0  0  0
 11 36  1  0  0  0  0
 11 37  1  0  0  0  0
 12 13  1  6  0  0  0
 12 38  1  0  0  0  0
 13 39  1  0  0  0  0
 13 40  1  0  0  0  0
 14 15  2  0  0  0  0
 14 41  1  0  0  0  0
 15 23  1  0  0  0  0
 15 25  1  0  0  0  0
 17 18  1  0  0  0  0
 17 19  1  0  0  0  0
 17 43  1  0  0  0  0
 17 44  1  0  0  0  0
 18 20  1  0  0  0  0
 18 45  1  0  0  0  0
 18 46  1  0  0  0  0
 19 21  1  0  0  0  0
 19 47  1  0  0  0  0
 19 48  1  0  0  0  0
 20 22  1  0  0  0  0
 20 49  1  0  0  0  0
 20 50  1  0  0  0  0
 21 24  1  0  0  0  0
 21 51  1  0  0  0  0
 21 52  1  0  0  0  0
 22 26  1  0  0  0  0
 22 53  1  0  0  0  0
 22 54  1  0  0  0  0
 24 25  2  0  0  0  0
 25 55  1  0  0  0  0
 26 27  1  0  0  0  0
 26 56  1  0  0  0  0
 26 57  1  0  0  0  0
 27 28  1  0  0  0  0
 27 59  1  0  0  0  0
 27 60  1  0  0  0  0
 28 61  1  0  0  0  0
 28 62  1  0  0  0  0
 29 30  1  0  0  0  0
 29 63  1  0  0  0  0
 29 64  1  0  0  0  0
 30 31  1  0  0  0  0
 30 65  1  0  0  0  0
 30 66  1  0  0  0  0
 31 32  1  0  0  0  0
 31 67  1  0  0  0  0
 31 68  1  0  0  0  0
 32 33  1  0  0  0  0
 32 69  1  0  0  0  0
 32 70  1  0  0  0  0
 33 71  1  0  0  0  0
 33 72  1  0  0  0  0
 33 73  1  0  0  0  0
M  END
> <PUBCHEM_COMPOUND_CID>
513141
> <PUBCHEM_COMPOUND_CANONICALIZED>
1
> <PUBCHEM_CACTVS_COMPLEXITY>
720
> <PUBCHEM_CACTVS_HBOND_ACCEPTOR>
6
> <PUBCHEM_CACTVS_HBOND_DONOR>
2
> <PUBCHEM_CACTVS_ROTATABLE_BOND>
16
> <PUBCHEM_CACTVS_SUBSKEYS>
AAADcfB7OAAAAAAAAAAAAAAAAAAAASIAAAAgAAAAAAAAAEAAAAAAHgAACAAADBThgAYDAAMABgCoAiBmVAAACAAgIAAACAAoABiJFAIAoQAOQAAHxgILoAOw8KIAAAAAAAAAAAAAAAAAAAAAAAAAAAAAAA==
> <PUBCHEM_IUPAC_OPENEYE_NAME>
3-[(2R,4S,5R)-4-hydroxy-5-(hydroxymethyl)tetrahydrofuran-2-yl]-6-(9-pentoxynonyl)furo[2,3-d]pyrimidin-2-one
> <PUBCHEM_IUPAC_CAS_NAME>
3-[(2R,4S,5R)-4-hydroxy-5-(hydroxymethyl)-2-oxolanyl]-6-(9-pentoxynonyl)-2-furo[2,3-d]pyrimidinone
> <PUBCHEM_IUPAC_NAME_MARKUP>
3-[(2<I>R</I>,4<I>S</I>,5<I>R</I>)-4-hydroxy-5-(hydroxymethyl)oxolan-2-yl]-6-(9-pentoxynonyl)furo[2,3-d]pyrimidin-2-one
> <PUBCHEM_IUPAC_NAME>
3-[(2R,4S,5R)-4-hydroxy-5-(hydroxymethyl)oxolan-2-yl]-6-(9-pentoxynonyl)furo[2,3-d]pyrimidin-2-one
> <PUBCHEM_IUPAC_SYSTEMATIC_NAME>
3-[(2R,4S,5R)-5-(hydroxymethyl)-4-oxidanyl-oxolan-2-yl]-6-(9-pentoxynonyl)furo[2,3-d]pyrimidin-2-one
> <PUBCHEM_IUPAC_TRADITIONAL_NAME>
6-(9-amoxynonyl)-3-[(2R,4S,5R)-4-hydroxy-5-methylol-tetrahydrofuran-2-yl]furo[2,3-d]pyrimidin-2-one
> <PUBCHEM_IUPAC_INCHI>
InChI=1S/C25H40N2O6/c1-2-3-10-13-31-14-11-8-6-4-5-7-9-12-20-15-19-17-27(25(30)26-24(19)32-20)23-16-21(29)22(18-28)33-23/h15,17,21-23,28-29H,2-14,16,18H2,1H3/t21-,22+,23+/m0/s1
> <PUBCHEM_IUPAC_INCHIKEY>
LCAUJHWFNITUBU-YTFSRNRJSA-N
> <PUBCHEM_XLOGP3_AA>
4.6
> <PUBCHEM_EXACT_MASS>
464.28863700
> <PUBCHEM_MOLECULAR_FORMULA>
C25H40N2O6
> <PUBCHEM_MOLECULAR_WEIGHT>
464.6
> <PUBCHEM_OPENEYE_CAN_SMILES>
CCCCCOCCCCCCCCCC1=CC2=CN(C(=O)N=C2O1)C3CC(C(O3)CO)O
> <PUBCHEM_OPENEYE_ISO_SMILES>
CCCCCOCCCCCCCCCC1=CC2=CN(C(=O)N=C2O1)[C@H]3C[C@@H]([C@H](O3)CO)O
> <PUBCHEM_CACTVS_TPSA>
101
> <PUBCHEM_MONOISOTOPIC_WEIGHT>
464.28863700
> <PUBCHEM_TOTAL_CHARGE>
0
> <PUBCHEM_HEAVY_ATOM_COUNT>
33
> <PUBCHEM_ATOM_DEF_STEREO_COUNT>
3
> <PUBCHEM_ATOM_UDEF_STEREO_COUNT>
0
> <PUBCHEM_BOND_DEF_STEREO_COUNT>
0
> <PUBCHEM_BOND_UDEF_STEREO_COUNT>
0
> <PUBCHEM_ISOTOPIC_ATOM_COUNT>
0
> <PUBCHEM_COMPONENT_COUNT>
1
> <PUBCHEM_CACTVS_TAUTO_COUNT>
-1
> <PUBCHEM_COORDINATE_TYPE>
1
5
255
> <PUBCHEM_BONDANNOTATIONS>
12  13  6
14  15  8
15  23  8
15  25  8
9  2  5
24  25  8
4  23  8
4  24  8
10  7  6
7  14  8
7  16  8
8  16  8
8  23  8
$$$$
