513152
  -OEChem-10302200282D
 82 85  0     1  0  0  0  0  0999 V2000
   13.2944    0.0671    0.0000 O   0  0  0  0  0  0  0  0  0  0  0  0
   13.6167    2.0317    0.0000 O   0  0  0  0  0  0  0  0  0  0  0  0
    9.5472   -1.3435    0.0000 O   0  0  0  0  0  0  0  0  0  0  0  0
    6.1591   -0.1105    0.0000 O   0  0  0  0  0  0  0  0  0  0  0  0
    3.3972   -2.4283    0.0000 O   0  0  0  0  0  0  0  0  0  0  0  0
    4.7967   -3.4488    0.0000 O   0  0  0  0  0  0  0  0  0  0  0  0
   12.0344    1.3272    0.0000 N   0  0  0  0  0  0  0  0  0  0  0  0
    9.7313    0.3787    0.0000 N   0  0  0  0  0  0  0  0  0  0  0  0
    7.5586   -1.1310    0.0000 N   0  0  0  0  0  0  0  0  0  0  0  0
    5.9751   -1.8328    0.0000 N   0  0  0  0  0  0  0  0  0  0  0  0
   11.5344   -0.2116    0.0000 C   0  0  0  0  0  0  0  0  0  0  0  0
   10.7254    0.3761    0.0000 C   0  0  2  0  0  0  0  0  0  0  0  0
   11.0344    1.3272    0.0000 C   0  0  2  0  0  0  0  0  0  0  0  0
   12.2415   -0.9188    0.0000 C   0  0  0  0  0  0  0  0  0  0  0  0
   10.8273   -0.9188    0.0000 C   0  0  0  0  0  0  0  0  0  0  0  0
   11.5344   -1.6259    0.0000 C   0  0  0  0  0  0  0  0  0  0  0  0
   12.3434    0.3761    0.0000 C   0  0  0  0  0  0  0  0  0  0  0  0
   10.2286    1.9094    0.0000 C   0  0  0  0  0  0  0  0  0  0  0  0
    9.4249    1.3244    0.0000 C   0  0  0  0  0  0  0  0  0  0  0  0
   12.6222    2.1362    0.0000 C   0  0  0  0  0  0  0  0  0  0  0  0
   12.2154    3.0498    0.0000 C   0  0  0  0  0  0  0  0  0  0  0  0
    9.1421   -0.4293    0.0000 C   0  0  0  0  0  0  0  0  0  0  0  0
   12.3199    4.0443    0.0000 C   0  0  0  0  0  0  0  0  0  0  0  0
   11.4064    3.6375    0.0000 C   0  0  0  0  0  0  0  0  0  0  0  0
    8.1478   -0.3230    0.0000 C   0  0  2  0  0  0  0  0  0  0  0  0
    7.7426    0.5912    0.0000 C   0  0  0  0  0  0  0  0  0  0  0  0
    6.7483    0.6975    0.0000 C   0  0  0  0  0  0  0  0  0  0  0  0
    8.3318    1.3992    0.0000 C   0  0  0  0  0  0  0  0  0  0  0  0
    6.5642   -1.0248    0.0000 C   0  0  0  0  0  0  0  0  0  0  0  0
    4.9807   -1.7265    0.0000 C   0  0  1  0  0  0  0  0  0  0  0  0
    4.5756   -0.8123    0.0000 C   0  0  0  0  0  0  0  0  0  0  0  0
    4.3915   -2.5345    0.0000 C   0  0  0  0  0  0  0  0  0  0  0  0
    3.5812   -0.7060    0.0000 C   0  0  0  0  0  0  0  0  0  0  0  0
    5.1647   -0.0043    0.0000 C   0  0  0  0  0  0  0  0  0  0  0  0
    2.8080   -3.2363    0.0000 C   0  0  0  0  0  0  0  0  0  0  0  0
    2.2188   -4.0443    0.0000 C   0  0  0  0  0  0  0  0  0  0  0  0
    2.0000   -2.6471    0.0000 C   0  0  0  0  0  0  0  0  0  0  0  0
    3.6160   -3.8255    0.0000 C   0  0  0  0  0  0  0  0  0  0  0  0
   10.4616   -0.4319    0.0000 H   0  0  0  0  0  0  0  0  0  0  0  0
   11.2960    2.1359    0.0000 H   0  0  0  0  0  0  0  0  0  0  0  0
   12.6799   -1.3572    0.0000 H   0  0  0  0  0  0  0  0  0  0  0  0
   12.6799   -0.4803    0.0000 H   0  0  0  0  0  0  0  0  0  0  0  0
   10.3889   -0.4803    0.0000 H   0  0  0  0  0  0  0  0  0  0  0  0
   10.3889   -1.3572    0.0000 H   0  0  0  0  0  0  0  0  0  0  0  0
   11.0960   -2.0643    0.0000 H   0  0  0  0  0  0  0  0  0  0  0  0
   11.9728   -2.0643    0.0000 H   0  0  0  0  0  0  0  0  0  0  0  0
   10.6426    2.3710    0.0000 H   0  0  0  0  0  0  0  0  0  0  0  0
    9.8131    2.3696    0.0000 H   0  0  0  0  0  0  0  0  0  0  0  0
    9.1148    1.8612    0.0000 H   0  0  0  0  0  0  0  0  0  0  0  0
    8.8584    1.0724    0.0000 H   0  0  0  0  0  0  0  0  0  0  0  0
   11.7336    2.6596    0.0000 H   0  0  0  0  0  0  0  0  0  0  0  0
   12.9384    4.0875    0.0000 H   0  0  0  0  0  0  0  0  0  0  0  0
   12.1700    4.6459    0.0000 H   0  0  0  0  0  0  0  0  0  0  0  0
   11.0597    4.1515    0.0000 H   0  0  0  0  0  0  0  0  0  0  0  0
   10.9604    3.2069    0.0000 H   0  0  0  0  0  0  0  0  0  0  0  0
    7.5313   -0.2572    0.0000 H   0  0  0  0  0  0  0  0  0  0  0  0
    7.4914    1.1580    0.0000 H   0  0  0  0  0  0  0  0  0  0  0  0
    7.8098   -1.6979    0.0000 H   0  0  0  0  0  0  0  0  0  0  0  0
    6.8141    1.3140    0.0000 H   0  0  0  0  0  0  0  0  0  0  0  0
    6.1318    0.7633    0.0000 H   0  0  0  0  0  0  0  0  0  0  0  0
    6.6824    0.0810    0.0000 H   0  0  0  0  0  0  0  0  0  0  0  0
    8.8327    1.0339    0.0000 H   0  0  0  0  0  0  0  0  0  0  0  0
    8.6971    1.9002    0.0000 H   0  0  0  0  0  0  0  0  0  0  0  0
    7.8308    1.7645    0.0000 H   0  0  0  0  0  0  0  0  0  0  0  0
    6.2262   -2.3996    0.0000 H   0  0  0  0  0  0  0  0  0  0  0  0
    5.3460   -1.2256    0.0000 H   0  0  0  0  0  0  0  0  0  0  0  0
    4.3244   -0.2454    0.0000 H   0  0  0  0  0  0  0  0  0  0  0  0
    3.6471   -0.0895    0.0000 H   0  0  0  0  0  0  0  0  0  0  0  0
    2.9647   -0.6402    0.0000 H   0  0  0  0  0  0  0  0  0  0  0  0
    3.5153   -1.3225    0.0000 H   0  0  0  0  0  0  0  0  0  0  0  0
    5.6657   -0.3696    0.0000 H   0  0  0  0  0  0  0  0  0  0  0  0
    5.5300    0.4967    0.0000 H   0  0  0  0  0  0  0  0  0  0  0  0
    4.6638    0.3610    0.0000 H   0  0  0  0  0  0  0  0  0  0  0  0
    1.7179   -3.6790    0.0000 H   0  0  0  0  0  0  0  0  0  0  0  0
    1.8535   -4.5452    0.0000 H   0  0  0  0  0  0  0  0  0  0  0  0
    2.7198   -4.4096    0.0000 H   0  0  0  0  0  0  0  0  0  0  0  0
    2.3653   -2.1461    0.0000 H   0  0  0  0  0  0  0  0  0  0  0  0
    1.4990   -2.2818    0.0000 H   0  0  0  0  0  0  0  0  0  0  0  0
    1.6347   -3.1480    0.0000 H   0  0  0  0  0  0  0  0  0  0  0  0
    3.2507   -4.3264    0.0000 H   0  0  0  0  0  0  0  0  0  0  0  0
    4.1170   -4.1908    0.0000 H   0  0  0  0  0  0  0  0  0  0  0  0
    3.9813   -3.3245    0.0000 H   0  0  0  0  0  0  0  0  0  0  0  0
  1 17  2  0  0  0  0
  2 20  2  0  0  0  0
  3 22  2  0  0  0  0
  4 29  2  0  0  0  0
  5 32  1  0  0  0  0
  5 35  1  0  0  0  0
  6 32  2  0  0  0  0
  7 13  1  0  0  0  0
  7 17  1  0  0  0  0
  7 20  1  0  0  0  0
  8 12  1  0  0  0  0
  8 19  1  0  0  0  0
  8 22  1  0  0  0  0
 25  9  1  1  0  0  0
  9 29  1  0  0  0  0
  9 58  1  0  0  0  0
 10 29  1  0  0  0  0
 30 10  1  6  0  0  0
 10 65  1  0  0  0  0
 11 12  1  0  0  0  0
 11 14  1  0  0  0  0
 11 15  1  0  0  0  0
 11 17  1  0  0  0  0
 12 13  1  0  0  0  0
 12 39  1  6  0  0  0
 13 18  1  0  0  0  0
 13 40  1  1  0  0  0
 14 16  1  0  0  0  0
 14 41  1  0  0  0  0
 14 42  1  0  0  0  0
 15 16  1  0  0  0  0
 15 43  1  0  0  0  0
 15 44  1  0  0  0  0
 16 45  1  0  0  0  0
 16 46  1  0  0  0  0
 18 19  1  0  0  0  0
 18 47  1  0  0  0  0
 18 48  1  0  0  0  0
 19 49  1  0  0  0  0
 19 50  1  0  0  0  0
 20 21  1  0  0  0  0
 21 23  1  0  0  0  0
 21 24  1  0  0  0  0
 21 51  1  0  0  0  0
 22 25  1  0  0  0  0
 23 24  1  0  0  0  0
 23 52  1  0  0  0  0
 23 53  1  0  0  0  0
 24 54  1  0  0  0  0
 24 55  1  0  0  0  0
 25 26  1  0  0  0  0
 25 56  1  0  0  0  0
 26 27  1  0  0  0  0
 26 28  1  0  0  0  0
 26 57  1  0  0  0  0
 27 59  1  0  0  0  0
 27 60  1  0  0  0  0
 27 61  1  0  0  0  0
 28 62  1  0  0  0  0
 28 63  1  0  0  0  0
 28 64  1  0  0  0  0
 30 31  1  0  0  0  0
 30 32  1  0  0  0  0
 30 66  1  0  0  0  0
 31 33  1  0  0  0  0
 31 34  1  0  0  0  0
 31 67  1  0  0  0  0
 33 68  1  0  0  0  0
 33 69  1  0  0  0  0
 33 70  1  0  0  0  0
 34 71  1  0  0  0  0
 34 72  1  0  0  0  0
 34 73  1  0  0  0  0
 35 36  1  0  0  0  0
 35 37  1  0  0  0  0
 35 38  1  0  0  0  0
 36 74  1  0  0  0  0
 36 75  1  0  0  0  0
 36 76  1  0  0  0  0
 37 77  1  0  0  0  0
 37 78  1  0  0  0  0
 37 79  1  0  0  0  0
 38 80  1  0  0  0  0
 38 81  1  0  0  0  0
 38 82  1  0  0  0  0
M  END
> <PUBCHEM_COMPOUND_CID>
513152
> <PUBCHEM_COMPOUND_CANONICALIZED>
1
> <PUBCHEM_CACTVS_COMPLEXITY>
994
> <PUBCHEM_CACTVS_HBOND_ACCEPTOR>
6
> <PUBCHEM_CACTVS_HBOND_DONOR>
2
> <PUBCHEM_CACTVS_ROTATABLE_BOND>
9
> <PUBCHEM_CACTVS_SUBSKEYS>
AAADcfB7uAAAAAAAAAAAAAAAGABgAWLAAAAAAAAAAAAWAAAAAAAAHgAQAAAAD2zBgAQDCAPABAAIAAGQGAAAAAAAAAAAAIGIAACCQBoAwCAXAAAMFiKQAAEciIAPAAAAAAAAAAAAAAAAAAAAAAAAAAAAAA==
> <PUBCHEM_IUPAC_OPENEYE_NAME>
tert-butyl (2S)-2-[[(1S)-1-[(3aS,6aR)-4-(cyclopropanecarbonyl)-5-oxo-spiro[2,3,3a,6a-tetrahydropyrrolo[3,2-b]pyrrole-6,1'-cyclobutane]-1-carbonyl]-2-methyl-propyl]carbamoylamino]-3-methyl-butanoate
> <PUBCHEM_IUPAC_CAS_NAME>
(2S)-2-[[[[(2S)-1-[(3aS,6aR)-4-[cyclopropyl(oxo)methyl]-5-oxo-1-spiro[2,3,3a,6a-tetrahydropyrrolo[3,2-b]pyrrole-6,1'-cyclobutane]yl]-3-methyl-1-oxobutan-2-yl]amino]-oxomethyl]amino]-3-methylbutanoic acid tert-butyl ester
> <PUBCHEM_IUPAC_NAME_MARKUP>
<I>tert</I>-butyl (2<I>S</I>)-2-[[(2<I>S</I>)-1-[(3<I>a</I><I>S</I>,6<I>a</I><I>R</I>)-4-(cyclopropanecarbonyl)-5-oxospiro[2,3,3<I>a</I>,6<I>a</I>-tetrahydropyrrolo[3,2-b]pyrrole-6,1&apos;-cyclobutane]-1-yl]-3-methyl-1-oxobutan-2-yl]carbamoylamino]-3-methylbutanoate
> <PUBCHEM_IUPAC_NAME>
tert-butyl (2S)-2-[[(2S)-1-[(3aS,6aR)-4-(cyclopropanecarbonyl)-5-oxospiro[2,3,3a,6a-tetrahydropyrrolo[3,2-b]pyrrole-6,1'-cyclobutane]-1-yl]-3-methyl-1-oxobutan-2-yl]carbamoylamino]-3-methylbutanoate
> <PUBCHEM_IUPAC_SYSTEMATIC_NAME>
tert-butyl (2S)-2-[[(2S)-1-[(3aS,6aR)-4-cyclopropylcarbonyl-5-oxidanylidene-spiro[2,3,3a,6a-tetrahydropyrrolo[3,2-b]pyrrole-6,1'-cyclobutane]-1-yl]-3-methyl-1-oxidanylidene-butan-2-yl]carbamoylamino]-3-methyl-butanoate
> <PUBCHEM_IUPAC_TRADITIONAL_NAME>
(2S)-2-[[(1S)-1-[(3aS,6aR)-4-(cyclopropanecarbonyl)-5-keto-spiro[2,3,3a,6a-tetrahydropyrrolo[3,2-b]pyrrole-6,1'-cyclobutane]-1-carbonyl]-2-methyl-propyl]carbamoylamino]-3-methyl-butyric acid tert-butyl ester
> <PUBCHEM_IUPAC_INCHI>
InChI=1S/C28H44N4O6/c1-15(2)19(29-26(37)30-20(16(3)4)24(35)38-27(5,6)7)23(34)31-14-11-18-21(31)28(12-8-13-28)25(36)32(18)22(33)17-9-10-17/h15-21H,8-14H2,1-7H3,(H2,29,30,37)/t18-,19-,20-,21-/m0/s1
> <PUBCHEM_IUPAC_INCHIKEY>
ZVJWVKCPVWDZLN-TUFLPTIASA-N
> <PUBCHEM_XLOGP3_AA>
3.1
> <PUBCHEM_EXACT_MASS>
532.32608514
> <PUBCHEM_MOLECULAR_FORMULA>
C28H44N4O6
> <PUBCHEM_MOLECULAR_WEIGHT>
532.7
> <PUBCHEM_OPENEYE_CAN_SMILES>
CC(C)C(C(=O)N1CCC2C1C3(CCC3)C(=O)N2C(=O)C4CC4)NC(=O)NC(C(C)C)C(=O)OC(C)(C)C
> <PUBCHEM_OPENEYE_ISO_SMILES>
CC(C)[C@@H](C(=O)N1CC[C@H]2[C@H]1C3(CCC3)C(=O)N2C(=O)C4CC4)NC(=O)N[C@@H](C(C)C)C(=O)OC(C)(C)C
> <PUBCHEM_CACTVS_TPSA>
125
> <PUBCHEM_MONOISOTOPIC_WEIGHT>
532.32608514
> <PUBCHEM_TOTAL_CHARGE>
0
> <PUBCHEM_HEAVY_ATOM_COUNT>
38
> <PUBCHEM_ATOM_DEF_STEREO_COUNT>
4
> <PUBCHEM_ATOM_UDEF_STEREO_COUNT>
0
> <PUBCHEM_BOND_DEF_STEREO_COUNT>
0
> <PUBCHEM_BOND_UDEF_STEREO_COUNT>
0
> <PUBCHEM_ISOTOPIC_ATOM_COUNT>
0
> <PUBCHEM_COMPONENT_COUNT>
1
> <PUBCHEM_CACTVS_TAUTO_COUNT>
-1
> <PUBCHEM_COORDINATE_TYPE>
1
5
255
> <PUBCHEM_BONDANNOTATIONS>
30  10  6
12  39  6
13  40  5
25  9  5
$$$$
