513154
  -OEChem-10302200282D
 73 76  0     1  0  0  0  0  0999 V2000
   12.4864   -0.2306    0.0000 O   0  0  0  0  0  0  0  0  0  0  0  0
   12.8087    1.7339    0.0000 O   0  0  0  0  0  0  0  0  0  0  0  0
    8.7392   -1.6413    0.0000 O   0  0  0  0  0  0  0  0  0  0  0  0
    5.3511   -0.4083    0.0000 O   0  0  0  0  0  0  0  0  0  0  0  0
    2.5892   -2.7260    0.0000 O   0  0  0  0  0  0  0  0  0  0  0  0
    3.9887   -3.7465    0.0000 O   0  0  0  0  0  0  0  0  0  0  0  0
   11.2264    1.0294    0.0000 N   0  0  0  0  0  0  0  0  0  0  0  0
    8.9233    0.0810    0.0000 N   0  0  0  0  0  0  0  0  0  0  0  0
    6.7506   -1.4288    0.0000 N   0  0  0  0  0  0  0  0  0  0  0  0
    5.1670   -2.1305    0.0000 N   0  0  0  0  0  0  0  0  0  0  0  0
   10.7264   -0.5094    0.0000 C   0  0  0  0  0  0  0  0  0  0  0  0
    9.9174    0.0784    0.0000 C   0  0  2  0  0  0  0  0  0  0  0  0
   10.2264    1.0294    0.0000 C   0  0  2  0  0  0  0  0  0  0  0  0
   11.4335   -1.2165    0.0000 C   0  0  0  0  0  0  0  0  0  0  0  0
   10.0193   -1.2165    0.0000 C   0  0  0  0  0  0  0  0  0  0  0  0
   10.7264   -1.9236    0.0000 C   0  0  0  0  0  0  0  0  0  0  0  0
   11.5354    0.0784    0.0000 C   0  0  0  0  0  0  0  0  0  0  0  0
    9.4206    1.6117    0.0000 C   0  0  0  0  0  0  0  0  0  0  0  0
    8.6169    1.0267    0.0000 C   0  0  0  0  0  0  0  0  0  0  0  0
   11.8142    1.8385    0.0000 C   0  0  0  0  0  0  0  0  0  0  0  0
   11.4074    2.7520    0.0000 C   0  0  0  0  0  0  0  0  0  0  0  0
    8.3341   -0.7270    0.0000 C   0  0  0  0  0  0  0  0  0  0  0  0
   11.5119    3.7465    0.0000 C   0  0  0  0  0  0  0  0  0  0  0  0
   10.5984    3.3398    0.0000 C   0  0  0  0  0  0  0  0  0  0  0  0
    7.3398   -0.6208    0.0000 C   0  0  2  0  0  0  0  0  0  0  0  0
    6.9346    0.2935    0.0000 C   0  0  0  0  0  0  0  0  0  0  0  0
    5.9403    0.3997    0.0000 C   0  0  0  0  0  0  0  0  0  0  0  0
    7.5238    1.1015    0.0000 C   0  0  0  0  0  0  0  0  0  0  0  0
    5.7562   -1.3225    0.0000 C   0  0  0  0  0  0  0  0  0  0  0  0
    4.1727   -2.0243    0.0000 C   0  0  1  0  0  0  0  0  0  0  0  0
    3.7676   -1.1100    0.0000 C   0  0  0  0  0  0  0  0  0  0  0  0
    3.5835   -2.8323    0.0000 C   0  0  0  0  0  0  0  0  0  0  0  0
    2.7732   -1.0038    0.0000 C   0  0  0  0  0  0  0  0  0  0  0  0
    4.3567   -0.3020    0.0000 C   0  0  0  0  0  0  0  0  0  0  0  0
    2.0000   -3.5340    0.0000 C   0  0  0  0  0  0  0  0  0  0  0  0
    9.6536   -0.7297    0.0000 H   0  0  0  0  0  0  0  0  0  0  0  0
   10.4880    1.8382    0.0000 H   0  0  0  0  0  0  0  0  0  0  0  0
   11.8719   -1.6549    0.0000 H   0  0  0  0  0  0  0  0  0  0  0  0
   11.8719   -0.7781    0.0000 H   0  0  0  0  0  0  0  0  0  0  0  0
    9.5809   -0.7781    0.0000 H   0  0  0  0  0  0  0  0  0  0  0  0
    9.5809   -1.6549    0.0000 H   0  0  0  0  0  0  0  0  0  0  0  0
   10.2880   -2.3620    0.0000 H   0  0  0  0  0  0  0  0  0  0  0  0
   11.1648   -2.3620    0.0000 H   0  0  0  0  0  0  0  0  0  0  0  0
    9.8346    2.0732    0.0000 H   0  0  0  0  0  0  0  0  0  0  0  0
    9.0051    2.0718    0.0000 H   0  0  0  0  0  0  0  0  0  0  0  0
    8.3068    1.5635    0.0000 H   0  0  0  0  0  0  0  0  0  0  0  0
    8.0504    0.7746    0.0000 H   0  0  0  0  0  0  0  0  0  0  0  0
   10.9256    2.3618    0.0000 H   0  0  0  0  0  0  0  0  0  0  0  0
   12.1304    3.7898    0.0000 H   0  0  0  0  0  0  0  0  0  0  0  0
   11.3620    4.3481    0.0000 H   0  0  0  0  0  0  0  0  0  0  0  0
   10.2517    3.8538    0.0000 H   0  0  0  0  0  0  0  0  0  0  0  0
   10.1524    2.9091    0.0000 H   0  0  0  0  0  0  0  0  0  0  0  0
    6.7233   -0.5549    0.0000 H   0  0  0  0  0  0  0  0  0  0  0  0
    7.5511    0.2276    0.0000 H   0  0  0  0  0  0  0  0  0  0  0  0
    7.0018   -1.9956    0.0000 H   0  0  0  0  0  0  0  0  0  0  0  0
    6.0061    1.0162    0.0000 H   0  0  0  0  0  0  0  0  0  0  0  0
    5.3238    0.4656    0.0000 H   0  0  0  0  0  0  0  0  0  0  0  0
    5.8744   -0.2168    0.0000 H   0  0  0  0  0  0  0  0  0  0  0  0
    8.0247    0.7362    0.0000 H   0  0  0  0  0  0  0  0  0  0  0  0
    7.8891    1.6024    0.0000 H   0  0  0  0  0  0  0  0  0  0  0  0
    7.0228    1.4668    0.0000 H   0  0  0  0  0  0  0  0  0  0  0  0
    5.4182   -2.6974    0.0000 H   0  0  0  0  0  0  0  0  0  0  0  0
    4.4239   -2.5911    0.0000 H   0  0  0  0  0  0  0  0  0  0  0  0
    4.3840   -1.1759    0.0000 H   0  0  0  0  0  0  0  0  0  0  0  0
    2.8391   -0.3873    0.0000 H   0  0  0  0  0  0  0  0  0  0  0  0
    2.1567   -0.9379    0.0000 H   0  0  0  0  0  0  0  0  0  0  0  0
    2.7073   -1.6203    0.0000 H   0  0  0  0  0  0  0  0  0  0  0  0
    4.8577   -0.6673    0.0000 H   0  0  0  0  0  0  0  0  0  0  0  0
    4.7220    0.1989    0.0000 H   0  0  0  0  0  0  0  0  0  0  0  0
    3.8558    0.0633    0.0000 H   0  0  0  0  0  0  0  0  0  0  0  0
    1.4990   -3.1687    0.0000 H   0  0  0  0  0  0  0  0  0  0  0  0
    1.6347   -4.0350    0.0000 H   0  0  0  0  0  0  0  0  0  0  0  0
    2.5010   -3.8993    0.0000 H   0  0  0  0  0  0  0  0  0  0  0  0
  1 17  2  0  0  0  0
  2 20  2  0  0  0  0
  3 22  2  0  0  0  0
  4 29  2  0  0  0  0
  5 32  1  0  0  0  0
  5 35  1  0  0  0  0
  6 32  2  0  0  0  0
  7 13  1  0  0  0  0
  7 17  1  0  0  0  0
  7 20  1  0  0  0  0
  8 12  1  0  0  0  0
  8 19  1  0  0  0  0
  8 22  1  0  0  0  0
 25  9  1  1  0  0  0
  9 29  1  0  0  0  0
  9 55  1  0  0  0  0
 10 29  1  0  0  0  0
 30 10  1  6  0  0  0
 10 62  1  0  0  0  0
 11 12  1  0  0  0  0
 11 14  1  0  0  0  0
 11 15  1  0  0  0  0
 11 17  1  0  0  0  0
 12 13  1  0  0  0  0
 12 36  1  6  0  0  0
 13 18  1  0  0  0  0
 13 37  1  1  0  0  0
 14 16  1  0  0  0  0
 14 38  1  0  0  0  0
 14 39  1  0  0  0  0
 15 16  1  0  0  0  0
 15 40  1  0  0  0  0
 15 41  1  0  0  0  0
 16 42  1  0  0  0  0
 16 43  1  0  0  0  0
 18 19  1  0  0  0  0
 18 44  1  0  0  0  0
 18 45  1  0  0  0  0
 19 46  1  0  0  0  0
 19 47  1  0  0  0  0
 20 21  1  0  0  0  0
 21 23  1  0  0  0  0
 21 24  1  0  0  0  0
 21 48  1  0  0  0  0
 22 25  1  0  0  0  0
 23 24  1  0  0  0  0
 23 49  1  0  0  0  0
 23 50  1  0  0  0  0
 24 51  1  0  0  0  0
 24 52  1  0  0  0  0
 25 26  1  0  0  0  0
 25 53  1  0  0  0  0
 26 27  1  0  0  0  0
 26 28  1  0  0  0  0
 26 54  1  0  0  0  0
 27 56  1  0  0  0  0
 27 57  1  0  0  0  0
 27 58  1  0  0  0  0
 28 59  1  0  0  0  0
 28 60  1  0  0  0  0
 28 61  1  0  0  0  0
 30 31  1  0  0  0  0
 30 32  1  0  0  0  0
 30 63  1  0  0  0  0
 31 33  1  0  0  0  0
 31 34  1  0  0  0  0
 31 64  1  0  0  0  0
 33 65  1  0  0  0  0
 33 66  1  0  0  0  0
 33 67  1  0  0  0  0
 34 68  1  0  0  0  0
 34 69  1  0  0  0  0
 34 70  1  0  0  0  0
 35 71  1  0  0  0  0
 35 72  1  0  0  0  0
 35 73  1  0  0  0  0
M  END
> <PUBCHEM_COMPOUND_CID>
513154
> <PUBCHEM_COMPOUND_CANONICALIZED>
1
> <PUBCHEM_CACTVS_COMPLEXITY>
910
> <PUBCHEM_CACTVS_HBOND_ACCEPTOR>
6
> <PUBCHEM_CACTVS_HBOND_DONOR>
2
> <PUBCHEM_CACTVS_ROTATABLE_BOND>
8
> <PUBCHEM_CACTVS_SUBSKEYS>
AAADcfB7uAAAAAAAAAAAAAAAGABgAWLAAAAAAAAAAAAWAAAAAAAAHgAQAAAADyjBgAYDCAPABAAIAAGQGAAAAAAAAAAAAIGIAACCQBoAwCAVAAAMFiKQAAEciIAPAAAAAAAAAAAAAAAAAAAAAAAAAAAAAA==
> <PUBCHEM_IUPAC_OPENEYE_NAME>
methyl (2S)-2-[[(1S)-1-[(3aS,6aR)-4-(cyclopropanecarbonyl)-5-oxo-spiro[2,3,3a,6a-tetrahydropyrrolo[3,2-b]pyrrole-6,1'-cyclobutane]-1-carbonyl]-2-methyl-propyl]carbamoylamino]-3-methyl-butanoate
> <PUBCHEM_IUPAC_CAS_NAME>
(2S)-2-[[[[(2S)-1-[(3aS,6aR)-4-[cyclopropyl(oxo)methyl]-5-oxo-1-spiro[2,3,3a,6a-tetrahydropyrrolo[3,2-b]pyrrole-6,1'-cyclobutane]yl]-3-methyl-1-oxobutan-2-yl]amino]-oxomethyl]amino]-3-methylbutanoic acid methyl ester
> <PUBCHEM_IUPAC_NAME_MARKUP>
methyl (2<I>S</I>)-2-[[(2<I>S</I>)-1-[(3<I>a</I><I>S</I>,6<I>a</I><I>R</I>)-4-(cyclopropanecarbonyl)-5-oxospiro[2,3,3<I>a</I>,6<I>a</I>-tetrahydropyrrolo[3,2-b]pyrrole-6,1&apos;-cyclobutane]-1-yl]-3-methyl-1-oxobutan-2-yl]carbamoylamino]-3-methylbutanoate
> <PUBCHEM_IUPAC_NAME>
methyl (2S)-2-[[(2S)-1-[(3aS,6aR)-4-(cyclopropanecarbonyl)-5-oxospiro[2,3,3a,6a-tetrahydropyrrolo[3,2-b]pyrrole-6,1'-cyclobutane]-1-yl]-3-methyl-1-oxobutan-2-yl]carbamoylamino]-3-methylbutanoate
> <PUBCHEM_IUPAC_SYSTEMATIC_NAME>
methyl (2S)-2-[[(2S)-1-[(3aS,6aR)-4-cyclopropylcarbonyl-5-oxidanylidene-spiro[2,3,3a,6a-tetrahydropyrrolo[3,2-b]pyrrole-6,1'-cyclobutane]-1-yl]-3-methyl-1-oxidanylidene-butan-2-yl]carbamoylamino]-3-methyl-butanoate
> <PUBCHEM_IUPAC_TRADITIONAL_NAME>
(2S)-2-[[(1S)-1-[(3aS,6aR)-4-(cyclopropanecarbonyl)-5-keto-spiro[2,3,3a,6a-tetrahydropyrrolo[3,2-b]pyrrole-6,1'-cyclobutane]-1-carbonyl]-2-methyl-propyl]carbamoylamino]-3-methyl-butyric acid methyl ester
> <PUBCHEM_IUPAC_INCHI>
InChI=1S/C25H38N4O6/c1-13(2)17(26-24(34)27-18(14(3)4)22(32)35-5)21(31)28-12-9-16-19(28)25(10-6-11-25)23(33)29(16)20(30)15-7-8-15/h13-19H,6-12H2,1-5H3,(H2,26,27,34)/t16-,17-,18-,19-/m0/s1
> <PUBCHEM_IUPAC_INCHIKEY>
VVIKMCUWZGFARI-VJANTYMQSA-N
> <PUBCHEM_XLOGP3_AA>
2.1
> <PUBCHEM_EXACT_MASS>
490.27913494
> <PUBCHEM_MOLECULAR_FORMULA>
C25H38N4O6
> <PUBCHEM_MOLECULAR_WEIGHT>
490.6
> <PUBCHEM_OPENEYE_CAN_SMILES>
CC(C)C(C(=O)N1CCC2C1C3(CCC3)C(=O)N2C(=O)C4CC4)NC(=O)NC(C(C)C)C(=O)OC
> <PUBCHEM_OPENEYE_ISO_SMILES>
CC(C)[C@@H](C(=O)N1CC[C@H]2[C@H]1C3(CCC3)C(=O)N2C(=O)C4CC4)NC(=O)N[C@@H](C(C)C)C(=O)OC
> <PUBCHEM_CACTVS_TPSA>
125
> <PUBCHEM_MONOISOTOPIC_WEIGHT>
490.27913494
> <PUBCHEM_TOTAL_CHARGE>
0
> <PUBCHEM_HEAVY_ATOM_COUNT>
35
> <PUBCHEM_ATOM_DEF_STEREO_COUNT>
4
> <PUBCHEM_ATOM_UDEF_STEREO_COUNT>
0
> <PUBCHEM_BOND_DEF_STEREO_COUNT>
0
> <PUBCHEM_BOND_UDEF_STEREO_COUNT>
0
> <PUBCHEM_ISOTOPIC_ATOM_COUNT>
0
> <PUBCHEM_COMPONENT_COUNT>
1
> <PUBCHEM_CACTVS_TAUTO_COUNT>
-1
> <PUBCHEM_COORDINATE_TYPE>
1
5
255
> <PUBCHEM_BONDANNOTATIONS>
30  10  6
12  36  6
13  37  5
25  9  5
$$$$
