513149
  -OEChem-10302200282D
 52 55  0     1  0  0  0  0  0999 V2000
    4.6000    2.0242    0.0000 F   0  0  0  0  0  0  0  0  0  0  0  0
    5.4718   -1.5208    0.0000 O   0  0  0  0  0  0  0  0  0  0  0  0
    2.0000    0.4658    0.0000 O   0  0  0  0  0  0  0  0  0  0  0  0
    8.1301    3.0000    0.0000 O   0  0  0  0  0  0  0  0  0  0  0  0
   10.7282    1.5000    0.0000 O   0  0  0  0  0  0  0  0  0  0  0  0
    9.8622    3.0000    0.0000 O   0  0  0  0  0  0  0  0  0  0  0  0
    4.6000   -0.0241    0.0000 N   0  0  0  0  0  0  0  0  0  0  0  0
    2.8718   -1.0308    0.0000 N   0  0  0  0  0  0  0  0  0  0  0  0
    8.1301   -0.0000    0.0000 N   0  0  0  0  0  0  0  0  0  0  0  0
    3.7320    0.4725    0.0000 C   0  0  3  0  0  0  0  0  0  0  0  0
    3.7398   -1.5275    0.0000 C   0  0  3  0  0  0  0  0  0  0  0  0
    5.4641    0.4792    0.0000 C   0  0  0  0  0  0  0  0  0  0  0  0
    4.6038   -1.0241    0.0000 C   0  0  0  0  0  0  0  0  0  0  0  0
    2.8680   -0.0308    0.0000 C   0  0  0  0  0  0  0  0  0  0  0  0
    7.2641    0.5000    0.0000 C   0  0  0  0  0  0  0  0  0  0  0  0
    6.3701   -0.0347    0.0000 C   0  0  0  0  0  0  0  0  0  0  0  0
    3.7282    1.4725    0.0000 C   0  0  0  0  0  0  0  0  0  0  0  0
    7.2641    1.5000    0.0000 C   0  0  0  0  0  0  0  0  0  0  0  0
    5.4641    1.5208    0.0000 C   0  0  0  0  0  0  0  0  0  0  0  0
    3.7436   -2.5275    0.0000 C   0  0  0  0  0  0  0  0  0  0  0  0
    6.3701    2.0347    0.0000 C   0  0  0  0  0  0  0  0  0  0  0  0
    8.1301   -1.0000    0.0000 C   0  0  0  0  0  0  0  0  0  0  0  0
    8.1301    2.0000    0.0000 C   0  0  0  0  0  0  0  0  0  0  0  0
    8.9961    0.5000    0.0000 C   0  0  0  0  0  0  0  0  0  0  0  0
    8.9961    1.5000    0.0000 C   0  0  0  0  0  0  0  0  0  0  0  0
    8.9961   -1.5000    0.0000 C   0  0  0  0  0  0  0  0  0  0  0  0
    9.8622    2.0000    0.0000 C   0  0  0  0  0  0  0  0  0  0  0  0
    9.8622   -1.0000    0.0000 C   0  0  0  0  0  0  0  0  0  0  0  0
    8.9961   -2.5000    0.0000 C   0  0  0  0  0  0  0  0  0  0  0  0
   10.7282   -1.5000    0.0000 C   0  0  0  0  0  0  0  0  0  0  0  0
    9.8622   -3.0000    0.0000 C   0  0  0  0  0  0  0  0  0  0  0  0
   10.7282   -2.5000    0.0000 C   0  0  0  0  0  0  0  0  0  0  0  0
    4.2678    0.7846    0.0000 H   0  0  0  0  0  0  0  0  0  0  0  0
    3.2040   -1.8395    0.0000 H   0  0  0  0  0  0  0  0  0  0  0  0
    2.3361   -1.3429    0.0000 H   0  0  0  0  0  0  0  0  0  0  0  0
    6.3773   -0.6546    0.0000 H   0  0  0  0  0  0  0  0  0  0  0  0
    4.3482    1.4749    0.0000 H   0  0  0  0  0  0  0  0  0  0  0  0
    3.7258    2.0925    0.0000 H   0  0  0  0  0  0  0  0  0  0  0  0
    3.1082    1.4701    0.0000 H   0  0  0  0  0  0  0  0  0  0  0  0
    3.1236   -2.5299    0.0000 H   0  0  0  0  0  0  0  0  0  0  0  0
    3.7460   -3.1475    0.0000 H   0  0  0  0  0  0  0  0  0  0  0  0
    4.3636   -2.5251    0.0000 H   0  0  0  0  0  0  0  0  0  0  0  0
    6.3773    2.6546    0.0000 H   0  0  0  0  0  0  0  0  0  0  0  0
    7.5195   -0.8923    0.0000 H   0  0  0  0  0  0  0  0  0  0  0  0
    7.9181   -1.5826    0.0000 H   0  0  0  0  0  0  0  0  0  0  0  0
    9.5331    0.1900    0.0000 H   0  0  0  0  0  0  0  0  0  0  0  0
    9.8622   -0.3800    0.0000 H   0  0  0  0  0  0  0  0  0  0  0  0
    8.4592   -2.8100    0.0000 H   0  0  0  0  0  0  0  0  0  0  0  0
   11.2651   -1.1900    0.0000 H   0  0  0  0  0  0  0  0  0  0  0  0
    9.8622   -3.6200    0.0000 H   0  0  0  0  0  0  0  0  0  0  0  0
   11.2651   -2.8100    0.0000 H   0  0  0  0  0  0  0  0  0  0  0  0
   11.2651    1.8100    0.0000 H   0  0  0  0  0  0  0  0  0  0  0  0
  1 19  1  0  0  0  0
  2 13  2  0  0  0  0
  3 14  2  0  0  0  0
  4 23  2  0  0  0  0
  5 27  1  0  0  0  0
  5 52  1  0  0  0  0
  6 27  2  0  0  0  0
  7 10  1  0  0  0  0
  7 12  1  0  0  0  0
  7 13  1  0  0  0  0
  8 11  1  0  0  0  0
  8 14  1  0  0  0  0
  8 35  1  0  0  0  0
  9 15  1  0  0  0  0
  9 22  1  0  0  0  0
  9 24  1  0  0  0  0
 10 14  1  0  0  0  0
 10 17  1  0  0  0  0
 10 33  1  0  0  0  0
 11 13  1  0  0  0  0
 11 20  1  0  0  0  0
 11 34  1  0  0  0  0
 12 16  1  0  0  0  0
 12 19  2  0  0  0  0
 15 16  2  0  0  0  0
 15 18  1  0  0  0  0
 16 36  1  0  0  0  0
 17 37  1  0  0  0  0
 17 38  1  0  0  0  0
 17 39  1  0  0  0  0
 18 21  2  0  0  0  0
 18 23  1  0  0  0  0
 19 21  1  0  0  0  0
 20 40  1  0  0  0  0
 20 41  1  0  0  0  0
 20 42  1  0  0  0  0
 21 43  1  0  0  0  0
 22 26  1  0  0  0  0
 22 44  1  0  0  0  0
 22 45  1  0  0  0  0
 23 25  1  0  0  0  0
 24 25  2  0  0  0  0
 24 46  1  0  0  0  0
 25 27  1  0  0  0  0
 26 28  2  0  0  0  0
 26 29  1  0  0  0  0
 28 30  1  0  0  0  0
 28 47  1  0  0  0  0
 29 31  2  0  0  0  0
 29 48  1  0  0  0  0
 30 32  2  0  0  0  0
 30 49  1  0  0  0  0
 31 32  1  0  0  0  0
 31 50  1  0  0  0  0
 32 51  1  0  0  0  0
M  END
> <PUBCHEM_COMPOUND_CID>
513149
> <PUBCHEM_COMPOUND_CANONICALIZED>
1
> <PUBCHEM_CACTVS_COMPLEXITY>
840
> <PUBCHEM_CACTVS_HBOND_ACCEPTOR>
7
> <PUBCHEM_CACTVS_HBOND_DONOR>
2
> <PUBCHEM_CACTVS_ROTATABLE_BOND>
4
> <PUBCHEM_CACTVS_SUBSKEYS>
AAADceB7OQAAAAAAAAAAAAAAAAAAAAAAAAA8YIEAAAAAAACBQAAAHwAQCAAADCzBmAwyyIPAAgCIAqXWWACCAAAlAgAIiIGIZMgIZD7I1fGUYYhktgDI2ceY2aOeCAAAAAQCAAAQAAAACAQAAAAAAAAAAA==
> <PUBCHEM_IUPAC_OPENEYE_NAME>
1-benzyl-7-(2,5-dimethyl-3,6-dioxo-piperazin-1-yl)-6-fluoro-4-oxo-quinoline-3-carboxylic acid
> <PUBCHEM_IUPAC_CAS_NAME>
7-(2,5-dimethyl-3,6-dioxo-1-piperazinyl)-6-fluoro-4-oxo-1-(phenylmethyl)-3-quinolinecarboxylic acid
> <PUBCHEM_IUPAC_NAME_MARKUP>
1-benzyl-7-(2,5-dimethyl-3,6-dioxopiperazin-1-yl)-6-fluoro-4-oxoquinoline-3-carboxylic acid
> <PUBCHEM_IUPAC_NAME>
1-benzyl-7-(2,5-dimethyl-3,6-dioxopiperazin-1-yl)-6-fluoro-4-oxoquinoline-3-carboxylic acid
> <PUBCHEM_IUPAC_SYSTEMATIC_NAME>
7-[2,5-dimethyl-3,6-bis(oxidanylidene)piperazin-1-yl]-6-fluoranyl-4-oxidanylidene-1-(phenylmethyl)quinoline-3-carboxylic acid
> <PUBCHEM_IUPAC_TRADITIONAL_NAME>
1-benzyl-7-(2,5-diketo-3,6-dimethyl-piperazino)-6-fluoro-4-keto-quinoline-3-carboxylic acid
> <PUBCHEM_IUPAC_INCHI>
InChI=1S/C23H20FN3O5/c1-12-22(30)27(13(2)21(29)25-12)19-9-18-15(8-17(19)24)20(28)16(23(31)32)11-26(18)10-14-6-4-3-5-7-14/h3-9,11-13H,10H2,1-2H3,(H,25,29)(H,31,32)
> <PUBCHEM_IUPAC_INCHIKEY>
VEZZBFWVDQCFEE-UHFFFAOYSA-N
> <PUBCHEM_XLOGP3_AA>
2.9
> <PUBCHEM_EXACT_MASS>
437.13869891
> <PUBCHEM_MOLECULAR_FORMULA>
C23H20FN3O5
> <PUBCHEM_MOLECULAR_WEIGHT>
437.4
> <PUBCHEM_OPENEYE_CAN_SMILES>
CC1C(=O)N(C(C(=O)N1)C)C2=C(C=C3C(=C2)N(C=C(C3=O)C(=O)O)CC4=CC=CC=C4)F
> <PUBCHEM_OPENEYE_ISO_SMILES>
CC1C(=O)N(C(C(=O)N1)C)C2=C(C=C3C(=C2)N(C=C(C3=O)C(=O)O)CC4=CC=CC=C4)F
> <PUBCHEM_CACTVS_TPSA>
107
> <PUBCHEM_MONOISOTOPIC_WEIGHT>
437.13869891
> <PUBCHEM_TOTAL_CHARGE>
0
> <PUBCHEM_HEAVY_ATOM_COUNT>
32
> <PUBCHEM_ATOM_DEF_STEREO_COUNT>
0
> <PUBCHEM_ATOM_UDEF_STEREO_COUNT>
2
> <PUBCHEM_BOND_DEF_STEREO_COUNT>
0
> <PUBCHEM_BOND_UDEF_STEREO_COUNT>
0
> <PUBCHEM_ISOTOPIC_ATOM_COUNT>
0
> <PUBCHEM_COMPONENT_COUNT>
1
> <PUBCHEM_CACTVS_TAUTO_COUNT>
-1
> <PUBCHEM_COORDINATE_TYPE>
1
5
255
> <PUBCHEM_BONDANNOTATIONS>
10  17  3
11  20  3
12  16  8
12  19  8
15  16  8
15  18  8
18  21  8
18  23  8
19  21  8
23  25  8
24  25  8
26  28  8
26  29  8
28  30  8
29  31  8
30  32  8
31  32  8
9  15  8
9  24  8
$$$$
