513148
  -OEChem-10302200282D
 45 47  0     1  0  0  0  0  0999 V2000
    4.5981    1.7327    0.0000 F   0  0  0  0  0  0  0  0  0  0  0  0
    5.4641   -1.7673    0.0000 O   0  0  0  0  0  0  0  0  0  0  0  0
    2.0000    0.2327    0.0000 O   0  0  0  0  0  0  0  0  0  0  0  0
    8.0785    2.7673    0.0000 O   0  0  0  0  0  0  0  0  0  0  0  0
   10.7282    1.2602    0.0000 O   0  0  0  0  0  0  0  0  0  0  0  0
    9.8564    2.7568    0.0000 O   0  0  0  0  0  0  0  0  0  0  0  0
    4.5981   -0.2673    0.0000 N   0  0  0  0  0  0  0  0  0  0  0  0
    2.8660   -1.2673    0.0000 N   0  0  0  0  0  0  0  0  0  0  0  0
    8.0901   -0.3020    0.0000 N   0  0  0  0  0  0  0  0  0  0  0  0
    3.7320    0.2327    0.0000 C   0  0  3  0  0  0  0  0  0  0  0  0
    3.7320   -1.7673    0.0000 C   0  0  3  0  0  0  0  0  0  0  0  0
    5.4641    0.2327    0.0000 C   0  0  0  0  0  0  0  0  0  0  0  0
    4.5981   -1.2673    0.0000 C   0  0  0  0  0  0  0  0  0  0  0  0
    2.8660   -0.2673    0.0000 C   0  0  0  0  0  0  0  0  0  0  0  0
    7.1962    0.2327    0.0000 C   0  0  0  0  0  0  0  0  0  0  0  0
    6.3301   -0.2673    0.0000 C   0  0  0  0  0  0  0  0  0  0  0  0
    3.7320    1.2327    0.0000 C   0  0  0  0  0  0  0  0  0  0  0  0
    7.1962    1.2327    0.0000 C   0  0  0  0  0  0  0  0  0  0  0  0
    5.4641    1.2327    0.0000 C   0  0  0  0  0  0  0  0  0  0  0  0
    3.7320   -2.7673    0.0000 C   0  0  0  0  0  0  0  0  0  0  0  0
    6.3301    1.7327    0.0000 C   0  0  0  0  0  0  0  0  0  0  0  0
    8.0785   -1.3019    0.0000 C   0  0  0  0  0  0  0  0  0  0  0  0
    8.0901    1.7674    0.0000 C   0  0  0  0  0  0  0  0  0  0  0  0
    8.9962    0.2119    0.0000 C   0  0  0  0  0  0  0  0  0  0  0  0
    8.9962    1.2535    0.0000 C   0  0  0  0  0  0  0  0  0  0  0  0
    8.9387   -1.8119    0.0000 C   0  0  0  0  0  0  0  0  0  0  0  0
    9.8602    1.7568    0.0000 C   0  0  0  0  0  0  0  0  0  0  0  0
    4.2690    0.5427    0.0000 H   0  0  0  0  0  0  0  0  0  0  0  0
    3.1951   -2.0773    0.0000 H   0  0  0  0  0  0  0  0  0  0  0  0
    2.3291   -1.5773    0.0000 H   0  0  0  0  0  0  0  0  0  0  0  0
    6.3301   -0.8873    0.0000 H   0  0  0  0  0  0  0  0  0  0  0  0
    4.3520    1.2327    0.0000 H   0  0  0  0  0  0  0  0  0  0  0  0
    3.7320    1.8527    0.0000 H   0  0  0  0  0  0  0  0  0  0  0  0
    3.1120    1.2327    0.0000 H   0  0  0  0  0  0  0  0  0  0  0  0
    3.1120   -2.7673    0.0000 H   0  0  0  0  0  0  0  0  0  0  0  0
    3.7320   -3.3873    0.0000 H   0  0  0  0  0  0  0  0  0  0  0  0
    4.3520   -2.7673    0.0000 H   0  0  0  0  0  0  0  0  0  0  0  0
    6.3301    2.3527    0.0000 H   0  0  0  0  0  0  0  0  0  0  0  0
    7.4692   -1.1872    0.0000 H   0  0  0  0  0  0  0  0  0  0  0  0
    7.8598   -1.8820    0.0000 H   0  0  0  0  0  0  0  0  0  0  0  0
    9.5319   -0.1002    0.0000 H   0  0  0  0  0  0  0  0  0  0  0  0
    8.6225   -2.3452    0.0000 H   0  0  0  0  0  0  0  0  0  0  0  0
    9.4720   -2.1281    0.0000 H   0  0  0  0  0  0  0  0  0  0  0  0
    9.2549   -1.2786    0.0000 H   0  0  0  0  0  0  0  0  0  0  0  0
   11.2639    1.5723    0.0000 H   0  0  0  0  0  0  0  0  0  0  0  0
  1 19  1  0  0  0  0
  2 13  2  0  0  0  0
  3 14  2  0  0  0  0
  4 23  2  0  0  0  0
  5 27  1  0  0  0  0
  5 45  1  0  0  0  0
  6 27  2  0  0  0  0
  7 10  1  0  0  0  0
  7 12  1  0  0  0  0
  7 13  1  0  0  0  0
  8 11  1  0  0  0  0
  8 14  1  0  0  0  0
  8 30  1  0  0  0  0
  9 15  1  0  0  0  0
  9 22  1  0  0  0  0
  9 24  1  0  0  0  0
 10 14  1  0  0  0  0
 10 17  1  0  0  0  0
 10 28  1  0  0  0  0
 11 13  1  0  0  0  0
 11 20  1  0  0  0  0
 11 29  1  0  0  0  0
 12 16  1  0  0  0  0
 12 19  2  0  0  0  0
 15 16  2  0  0  0  0
 15 18  1  0  0  0  0
 16 31  1  0  0  0  0
 17 32  1  0  0  0  0
 17 33  1  0  0  0  0
 17 34  1  0  0  0  0
 18 21  2  0  0  0  0
 18 23  1  0  0  0  0
 19 21  1  0  0  0  0
 20 35  1  0  0  0  0
 20 36  1  0  0  0  0
 20 37  1  0  0  0  0
 21 38  1  0  0  0  0
 22 26  1  0  0  0  0
 22 39  1  0  0  0  0
 22 40  1  0  0  0  0
 23 25  1  0  0  0  0
 24 25  2  0  0  0  0
 24 41  1  0  0  0  0
 25 27  1  0  0  0  0
 26 42  1  0  0  0  0
 26 43  1  0  0  0  0
 26 44  1  0  0  0  0
M  END
> <PUBCHEM_COMPOUND_CID>
513148
> <PUBCHEM_COMPOUND_CANONICALIZED>
1
> <PUBCHEM_CACTVS_COMPLEXITY>
724
> <PUBCHEM_CACTVS_HBOND_ACCEPTOR>
7
> <PUBCHEM_CACTVS_HBOND_DONOR>
2
> <PUBCHEM_CACTVS_ROTATABLE_BOND>
3
> <PUBCHEM_CACTVS_SUBSKEYS>
AAADceB7OQAAAAAAAAAAAAAAAAAAAAAAAAA8QIAAAAAAAACBAAAAHwAQCAAADCzBmAwyyIPAAgCIAqXWWACCAAAlAgAAiIGIZMgIZD7I1PGUYYhktgDI2ceY2aOeCAAAAAQCAAAQAAAACAQAAAAAAAAAAA==
> <PUBCHEM_IUPAC_OPENEYE_NAME>
7-(2,5-dimethyl-3,6-dioxo-piperazin-1-yl)-1-ethyl-6-fluoro-4-oxo-quinoline-3-carboxylic acid
> <PUBCHEM_IUPAC_CAS_NAME>
7-(2,5-dimethyl-3,6-dioxo-1-piperazinyl)-1-ethyl-6-fluoro-4-oxo-3-quinolinecarboxylic acid
> <PUBCHEM_IUPAC_NAME_MARKUP>
7-(2,5-dimethyl-3,6-dioxopiperazin-1-yl)-1-ethyl-6-fluoro-4-oxoquinoline-3-carboxylic acid
> <PUBCHEM_IUPAC_NAME>
7-(2,5-dimethyl-3,6-dioxopiperazin-1-yl)-1-ethyl-6-fluoro-4-oxoquinoline-3-carboxylic acid
> <PUBCHEM_IUPAC_SYSTEMATIC_NAME>
7-[2,5-dimethyl-3,6-bis(oxidanylidene)piperazin-1-yl]-1-ethyl-6-fluoranyl-4-oxidanylidene-quinoline-3-carboxylic acid
> <PUBCHEM_IUPAC_TRADITIONAL_NAME>
7-(2,5-diketo-3,6-dimethyl-piperazino)-1-ethyl-6-fluoro-4-keto-quinoline-3-carboxylic acid
> <PUBCHEM_IUPAC_INCHI>
InChI=1S/C18H18FN3O5/c1-4-21-7-11(18(26)27)15(23)10-5-12(19)14(6-13(10)21)22-9(3)16(24)20-8(2)17(22)25/h5-9H,4H2,1-3H3,(H,20,24)(H,26,27)
> <PUBCHEM_IUPAC_INCHIKEY>
GQERCNAJESXJLM-UHFFFAOYSA-N
> <PUBCHEM_XLOGP3_AA>
1.8
> <PUBCHEM_EXACT_MASS>
375.12304885
> <PUBCHEM_MOLECULAR_FORMULA>
C18H18FN3O5
> <PUBCHEM_MOLECULAR_WEIGHT>
375.4
> <PUBCHEM_OPENEYE_CAN_SMILES>
CCN1C=C(C(=O)C2=CC(=C(C=C21)N3C(C(=O)NC(C3=O)C)C)F)C(=O)O
> <PUBCHEM_OPENEYE_ISO_SMILES>
CCN1C=C(C(=O)C2=CC(=C(C=C21)N3C(C(=O)NC(C3=O)C)C)F)C(=O)O
> <PUBCHEM_CACTVS_TPSA>
107
> <PUBCHEM_MONOISOTOPIC_WEIGHT>
375.12304885
> <PUBCHEM_TOTAL_CHARGE>
0
> <PUBCHEM_HEAVY_ATOM_COUNT>
27
> <PUBCHEM_ATOM_DEF_STEREO_COUNT>
0
> <PUBCHEM_ATOM_UDEF_STEREO_COUNT>
2
> <PUBCHEM_BOND_DEF_STEREO_COUNT>
0
> <PUBCHEM_BOND_UDEF_STEREO_COUNT>
0
> <PUBCHEM_ISOTOPIC_ATOM_COUNT>
0
> <PUBCHEM_COMPONENT_COUNT>
1
> <PUBCHEM_CACTVS_TAUTO_COUNT>
-1
> <PUBCHEM_COORDINATE_TYPE>
1
5
255
> <PUBCHEM_BONDANNOTATIONS>
10  17  3
11  20  3
12  16  8
12  19  8
15  16  8
15  18  8
18  21  8
18  23  8
19  21  8
23  25  8
24  25  8
9  15  8
9  24  8
$$$$
