513104
  -OEChem-10302200282D
 33 35  0     1  0  0  0  0  0999 V2000
    4.6660   -1.4827    0.0000 O   0  0  0  0  0  0  0  0  0  0  0  0
    4.6660    1.5173    0.0000 O   0  0  0  0  0  0  0  0  0  0  0  0
    9.8622   -1.4827    0.0000 O   0  0  0  0  0  0  0  0  0  0  0  0
    5.5321    0.0173    0.0000 C   0  0  3  0  0  0  0  0  0  0  0  0
    6.3981    0.5173    0.0000 C   0  0  0  0  0  0  0  0  0  0  0  0
    5.5321   -0.9827    0.0000 C   0  0  0  0  0  0  0  0  0  0  0  0
    4.6660    0.5173    0.0000 C   0  0  0  0  0  0  0  0  0  0  0  0
    3.8000    0.0173    0.0000 C   0  0  0  0  0  0  0  0  0  0  0  0
    7.2641    0.0173    0.0000 C   0  0  0  0  0  0  0  0  0  0  0  0
    3.8000   -0.9827    0.0000 C   0  0  0  0  0  0  0  0  0  0  0  0
    2.9061    0.5520    0.0000 C   0  0  0  0  0  0  0  0  0  0  0  0
    7.2641   -0.9827    0.0000 C   0  0  0  0  0  0  0  0  0  0  0  0
    8.1301    0.5173    0.0000 C   0  0  0  0  0  0  0  0  0  0  0  0
    2.9061   -1.5173    0.0000 C   0  0  0  0  0  0  0  0  0  0  0  0
    2.0000    0.0381    0.0000 C   0  0  0  0  0  0  0  0  0  0  0  0
    2.0000   -1.0035    0.0000 C   0  0  0  0  0  0  0  0  0  0  0  0
    8.1301   -1.4827    0.0000 C   0  0  0  0  0  0  0  0  0  0  0  0
    8.9962    0.0173    0.0000 C   0  0  0  0  0  0  0  0  0  0  0  0
    8.9962   -0.9827    0.0000 C   0  0  0  0  0  0  0  0  0  0  0  0
    5.5321    0.6373    0.0000 H   0  0  0  0  0  0  0  0  0  0  0  0
    6.7966    0.9923    0.0000 H   0  0  0  0  0  0  0  0  0  0  0  0
    5.9996    0.9923    0.0000 H   0  0  0  0  0  0  0  0  0  0  0  0
    5.7441   -1.5653    0.0000 H   0  0  0  0  0  0  0  0  0  0  0  0
    6.1426   -0.8750    0.0000 H   0  0  0  0  0  0  0  0  0  0  0  0
    2.9132    1.1720    0.0000 H   0  0  0  0  0  0  0  0  0  0  0  0
    6.7272   -1.2927    0.0000 H   0  0  0  0  0  0  0  0  0  0  0  0
    8.1301    1.1373    0.0000 H   0  0  0  0  0  0  0  0  0  0  0  0
    2.9132   -2.1373    0.0000 H   0  0  0  0  0  0  0  0  0  0  0  0
    1.4643    0.3502    0.0000 H   0  0  0  0  0  0  0  0  0  0  0  0
    1.4643   -1.3156    0.0000 H   0  0  0  0  0  0  0  0  0  0  0  0
    8.1301   -2.1027    0.0000 H   0  0  0  0  0  0  0  0  0  0  0  0
    9.5331    0.3273    0.0000 H   0  0  0  0  0  0  0  0  0  0  0  0
   10.3991   -1.1727    0.0000 H   0  0  0  0  0  0  0  0  0  0  0  0
  1  6  1  0  0  0  0
  1 10  1  0  0  0  0
  2  7  2  0  0  0  0
  3 19  1  0  0  0  0
  3 33  1  0  0  0  0
  4  5  1  0  0  0  0
  4  6  1  0  0  0  0
  4  7  1  0  0  0  0
  4 20  1  0  0  0  0
  5  9  1  0  0  0  0
  5 21  1  0  0  0  0
  5 22  1  0  0  0  0
  6 23  1  0  0  0  0
  6 24  1  0  0  0  0
  7  8  1  0  0  0  0
  8 10  1  0  0  0  0
  8 11  2  0  0  0  0
  9 12  2  0  0  0  0
  9 13  1  0  0  0  0
 10 14  2  0  0  0  0
 11 15  1  0  0  0  0
 11 25  1  0  0  0  0
 12 17  1  0  0  0  0
 12 26  1  0  0  0  0
 13 18  2  0  0  0  0
 13 27  1  0  0  0  0
 14 16  1  0  0  0  0
 14 28  1  0  0  0  0
 15 16  2  0  0  0  0
 15 29  1  0  0  0  0
 16 30  1  0  0  0  0
 17 19  2  0  0  0  0
 17 31  1  0  0  0  0
 18 19  1  0  0  0  0
 18 32  1  0  0  0  0
M  END
> <PUBCHEM_COMPOUND_CID>
513104
> <PUBCHEM_COMPOUND_CANONICALIZED>
1
> <PUBCHEM_CACTVS_COMPLEXITY>
320
> <PUBCHEM_CACTVS_HBOND_ACCEPTOR>
3
> <PUBCHEM_CACTVS_HBOND_DONOR>
1
> <PUBCHEM_CACTVS_ROTATABLE_BOND>
2
> <PUBCHEM_CACTVS_SUBSKEYS>
AAADccB4MAAAAAAAAAAAAAAAAAAAAAAAAAA0YIAAAAAAAACRQAAAGgAACAAADQSgmAIwBoAABgCIAqBSAAACCAAkIAAIiAEGCMgMJjaGNRqCeWCk4BEIuYeIyOCOIAAAAAAIAABAAAAAABAAAAAAAAAAAA==
> <PUBCHEM_IUPAC_OPENEYE_NAME>
3-[(4-hydroxyphenyl)methyl]chroman-4-one
> <PUBCHEM_IUPAC_CAS_NAME>
3-[(4-hydroxyphenyl)methyl]-3,4-dihydro-2H-1-benzopyran-4-one
> <PUBCHEM_IUPAC_NAME_MARKUP>
3-[(4-hydroxyphenyl)methyl]-2,3-dihydrochromen-4-one
> <PUBCHEM_IUPAC_NAME>
3-[(4-hydroxyphenyl)methyl]-2,3-dihydrochromen-4-one
> <PUBCHEM_IUPAC_SYSTEMATIC_NAME>
3-[(4-hydroxyphenyl)methyl]-2,3-dihydrochromen-4-one
> <PUBCHEM_IUPAC_TRADITIONAL_NAME>
3-(4-hydroxybenzyl)chroman-4-one
> <PUBCHEM_IUPAC_INCHI>
InChI=1S/C16H14O3/c17-13-7-5-11(6-8-13)9-12-10-19-15-4-2-1-3-14(15)16(12)18/h1-8,12,17H,9-10H2
> <PUBCHEM_IUPAC_INCHIKEY>
PIAQLKCIMQPZOZ-UHFFFAOYSA-N
> <PUBCHEM_XLOGP3_AA>
3
> <PUBCHEM_EXACT_MASS>
254.094294304
> <PUBCHEM_MOLECULAR_FORMULA>
C16H14O3
> <PUBCHEM_MOLECULAR_WEIGHT>
254.28
> <PUBCHEM_OPENEYE_CAN_SMILES>
C1C(C(=O)C2=CC=CC=C2O1)CC3=CC=C(C=C3)O
> <PUBCHEM_OPENEYE_ISO_SMILES>
C1C(C(=O)C2=CC=CC=C2O1)CC3=CC=C(C=C3)O
> <PUBCHEM_CACTVS_TPSA>
46.5
> <PUBCHEM_MONOISOTOPIC_WEIGHT>
254.094294304
> <PUBCHEM_TOTAL_CHARGE>
0
> <PUBCHEM_HEAVY_ATOM_COUNT>
19
> <PUBCHEM_ATOM_DEF_STEREO_COUNT>
0
> <PUBCHEM_ATOM_UDEF_STEREO_COUNT>
1
> <PUBCHEM_BOND_DEF_STEREO_COUNT>
0
> <PUBCHEM_BOND_UDEF_STEREO_COUNT>
0
> <PUBCHEM_ISOTOPIC_ATOM_COUNT>
0
> <PUBCHEM_COMPONENT_COUNT>
1
> <PUBCHEM_CACTVS_TAUTO_COUNT>
-1
> <PUBCHEM_COORDINATE_TYPE>
1
5
255
> <PUBCHEM_BONDANNOTATIONS>
10  14  8
11  15  8
12  17  8
13  18  8
14  16  8
15  16  8
17  19  8
18  19  8
4  5  3
8  10  8
8  11  8
9  12  8
9  13  8
$$$$
