513162
  -OEChem-10302200282D
 65 69  0     1  0  0  0  0  0999 V2000
   11.8172   -0.1906    0.0000 O   0  0  0  0  0  0  0  0  0  0  0  0
   12.1394    1.7740    0.0000 O   0  0  0  0  0  0  0  0  0  0  0  0
    8.0700   -1.6012    0.0000 O   0  0  0  0  0  0  0  0  0  0  0  0
    4.6818   -0.3682    0.0000 O   0  0  0  0  0  0  0  0  0  0  0  0
   10.5571    1.0695    0.0000 N   0  0  0  0  0  0  0  0  0  0  0  0
    8.2540    0.1210    0.0000 N   0  0  0  0  0  0  0  0  0  0  0  0
    6.0813   -1.3887    0.0000 N   0  0  0  0  0  0  0  0  0  0  0  0
    4.4978   -2.0905    0.0000 N   0  0  0  0  0  0  0  0  0  0  0  0
   10.0571   -0.4694    0.0000 C   0  0  0  0  0  0  0  0  0  0  0  0
    9.2481    0.1184    0.0000 C   0  0  2  0  0  0  0  0  0  0  0  0
    9.5571    1.0695    0.0000 C   0  0  2  0  0  0  0  0  0  0  0  0
   10.7642   -1.1765    0.0000 C   0  0  0  0  0  0  0  0  0  0  0  0
    9.3500   -1.1765    0.0000 C   0  0  0  0  0  0  0  0  0  0  0  0
   10.0571   -1.8836    0.0000 C   0  0  0  0  0  0  0  0  0  0  0  0
   10.8661    0.1184    0.0000 C   0  0  0  0  0  0  0  0  0  0  0  0
    8.7514    1.6517    0.0000 C   0  0  0  0  0  0  0  0  0  0  0  0
    7.9476    1.0667    0.0000 C   0  0  0  0  0  0  0  0  0  0  0  0
   11.1449    1.8785    0.0000 C   0  0  0  0  0  0  0  0  0  0  0  0
   10.7381    2.7920    0.0000 C   0  0  0  0  0  0  0  0  0  0  0  0
    7.6648   -0.6870    0.0000 C   0  0  0  0  0  0  0  0  0  0  0  0
   10.8427    3.7866    0.0000 C   0  0  0  0  0  0  0  0  0  0  0  0
    9.9291    3.3798    0.0000 C   0  0  0  0  0  0  0  0  0  0  0  0
    6.6705   -0.5807    0.0000 C   0  0  2  0  0  0  0  0  0  0  0  0
    6.2653    0.3335    0.0000 C   0  0  0  0  0  0  0  0  0  0  0  0
    2.9142   -2.7922    0.0000 C   0  0  0  0  0  0  0  0  0  0  0  0
    2.0000   -3.1974    0.0000 C   0  0  0  0  0  0  0  0  0  0  0  0
    2.8080   -3.7866    0.0000 C   0  0  0  0  0  0  0  0  0  0  0  0
    5.2710    0.4398    0.0000 C   0  0  0  0  0  0  0  0  0  0  0  0
    6.8545    1.1415    0.0000 C   0  0  0  0  0  0  0  0  0  0  0  0
    3.5034   -1.9842    0.0000 C   0  0  0  0  0  0  0  0  0  0  0  0
    5.0870   -1.2825    0.0000 C   0  0  0  0  0  0  0  0  0  0  0  0
    8.9844   -0.6896    0.0000 H   0  0  0  0  0  0  0  0  0  0  0  0
    9.8187    1.8782    0.0000 H   0  0  0  0  0  0  0  0  0  0  0  0
   11.2026   -1.6149    0.0000 H   0  0  0  0  0  0  0  0  0  0  0  0
   11.2026   -0.7381    0.0000 H   0  0  0  0  0  0  0  0  0  0  0  0
    8.9116   -0.7381    0.0000 H   0  0  0  0  0  0  0  0  0  0  0  0
    8.9116   -1.6149    0.0000 H   0  0  0  0  0  0  0  0  0  0  0  0
    9.6187   -2.3220    0.0000 H   0  0  0  0  0  0  0  0  0  0  0  0
   10.4955   -2.3220    0.0000 H   0  0  0  0  0  0  0  0  0  0  0  0
    9.1653    2.1133    0.0000 H   0  0  0  0  0  0  0  0  0  0  0  0
    8.3358    2.1119    0.0000 H   0  0  0  0  0  0  0  0  0  0  0  0
    7.6375    1.6036    0.0000 H   0  0  0  0  0  0  0  0  0  0  0  0
    7.3812    0.8147    0.0000 H   0  0  0  0  0  0  0  0  0  0  0  0
   11.3505    2.8890    0.0000 H   0  0  0  0  0  0  0  0  0  0  0  0
   11.4612    3.8298    0.0000 H   0  0  0  0  0  0  0  0  0  0  0  0
   10.6927    4.3882    0.0000 H   0  0  0  0  0  0  0  0  0  0  0  0
    9.5824    3.8938    0.0000 H   0  0  0  0  0  0  0  0  0  0  0  0
    9.4831    2.9492    0.0000 H   0  0  0  0  0  0  0  0  0  0  0  0
    6.9217   -1.1476    0.0000 H   0  0  0  0  0  0  0  0  0  0  0  0
    6.8818    0.2676    0.0000 H   0  0  0  0  0  0  0  0  0  0  0  0
    6.3325   -1.9556    0.0000 H   0  0  0  0  0  0  0  0  0  0  0  0
    3.4927   -3.0154    0.0000 H   0  0  0  0  0  0  0  0  0  0  0  0
    1.6542   -2.6828    0.0000 H   0  0  0  0  0  0  0  0  0  0  0  0
    1.5533   -3.6273    0.0000 H   0  0  0  0  0  0  0  0  0  0  0  0
    2.5352   -4.3434    0.0000 H   0  0  0  0  0  0  0  0  0  0  0  0
    3.4037   -3.9585    0.0000 H   0  0  0  0  0  0  0  0  0  0  0  0
    5.3369    1.0562    0.0000 H   0  0  0  0  0  0  0  0  0  0  0  0
    4.6545    0.5056    0.0000 H   0  0  0  0  0  0  0  0  0  0  0  0
    5.2051   -0.1767    0.0000 H   0  0  0  0  0  0  0  0  0  0  0  0
    7.3555    0.7762    0.0000 H   0  0  0  0  0  0  0  0  0  0  0  0
    7.2198    1.6425    0.0000 H   0  0  0  0  0  0  0  0  0  0  0  0
    6.3536    1.5068    0.0000 H   0  0  0  0  0  0  0  0  0  0  0  0
    3.6754   -1.3886    0.0000 H   0  0  0  0  0  0  0  0  0  0  0  0
    2.9466   -1.7115    0.0000 H   0  0  0  0  0  0  0  0  0  0  0  0
    4.7490   -2.6573    0.0000 H   0  0  0  0  0  0  0  0  0  0  0  0
  1 15  2  0  0  0  0
  2 18  2  0  0  0  0
  3 20  2  0  0  0  0
  4 31  2  0  0  0  0
  5 11  1  0  0  0  0
  5 15  1  0  0  0  0
  5 18  1  0  0  0  0
  6 10  1  0  0  0  0
  6 17  1  0  0  0  0
  6 20  1  0  0  0  0
 23  7  1  1  0  0  0
  7 31  1  0  0  0  0
  7 51  1  0  0  0  0
  8 30  1  0  0  0  0
  8 31  1  0  0  0  0
  8 65  1  0  0  0  0
  9 10  1  0  0  0  0
  9 12  1  0  0  0  0
  9 13  1  0  0  0  0
  9 15  1  0  0  0  0
 10 11  1  0  0  0  0
 10 32  1  6  0  0  0
 11 16  1  0  0  0  0
 11 33  1  1  0  0  0
 12 14  1  0  0  0  0
 12 34  1  0  0  0  0
 12 35  1  0  0  0  0
 13 14  1  0  0  0  0
 13 36  1  0  0  0  0
 13 37  1  0  0  0  0
 14 38  1  0  0  0  0
 14 39  1  0  0  0  0
 16 17  1  0  0  0  0
 16 40  1  0  0  0  0
 16 41  1  0  0  0  0
 17 42  1  0  0  0  0
 17 43  1  0  0  0  0
 18 19  1  0  0  0  0
 19 21  1  0  0  0  0
 19 22  1  0  0  0  0
 19 44  1  0  0  0  0
 20 23  1  0  0  0  0
 21 22  1  0  0  0  0
 21 45  1  0  0  0  0
 21 46  1  0  0  0  0
 22 47  1  0  0  0  0
 22 48  1  0  0  0  0
 23 24  1  0  0  0  0
 23 49  1  0  0  0  0
 24 28  1  0  0  0  0
 24 29  1  0  0  0  0
 24 50  1  0  0  0  0
 25 26  1  0  0  0  0
 25 27  1  0  0  0  0
 25 30  1  0  0  0  0
 25 52  1  0  0  0  0
 26 27  1  0  0  0  0
 26 53  1  0  0  0  0
 26 54  1  0  0  0  0
 27 55  1  0  0  0  0
 27 56  1  0  0  0  0
 28 57  1  0  0  0  0
 28 58  1  0  0  0  0
 28 59  1  0  0  0  0
 29 60  1  0  0  0  0
 29 61  1  0  0  0  0
 29 62  1  0  0  0  0
 30 63  1  0  0  0  0
 30 64  1  0  0  0  0
M  END
> <PUBCHEM_COMPOUND_CID>
513162
> <PUBCHEM_COMPOUND_CANONICALIZED>
1
> <PUBCHEM_CACTVS_COMPLEXITY>
799
> <PUBCHEM_CACTVS_HBOND_ACCEPTOR>
4
> <PUBCHEM_CACTVS_HBOND_DONOR>
2
> <PUBCHEM_CACTVS_ROTATABLE_BOND>
6
> <PUBCHEM_CACTVS_SUBSKEYS>
AAADcfB7uAAAAAAAAAAAAAAAGDBgAWLAAAAAAAAAAAAWAAAAAAAAHgAQAAAADyjBgAQDAAPAAAAIAAEQEAAAAAAAAAAAAIGIAACAQBoAwCAUAAAIFiKAAAEciIAPAAAAAAAAAAAAAAAAAAAAAAAAAAAAAA==
> <PUBCHEM_IUPAC_OPENEYE_NAME>
1-[(1S)-1-[(3aS,6aR)-4-(cyclopropanecarbonyl)-5-oxo-spiro[2,3,3a,6a-tetrahydropyrrolo[3,2-b]pyrrole-6,1'-cyclobutane]-1-carbonyl]-2-methyl-propyl]-3-(cyclopropylmethyl)urea
> <PUBCHEM_IUPAC_CAS_NAME>
1-[(2S)-1-[(3aS,6aR)-4-[cyclopropyl(oxo)methyl]-5-oxo-1-spiro[2,3,3a,6a-tetrahydropyrrolo[3,2-b]pyrrole-6,1'-cyclobutane]yl]-3-methyl-1-oxobutan-2-yl]-3-(cyclopropylmethyl)urea
> <PUBCHEM_IUPAC_NAME_MARKUP>
1-[(2<I>S</I>)-1-[(3<I>a</I><I>S</I>,6<I>a</I><I>R</I>)-4-(cyclopropanecarbonyl)-5-oxospiro[2,3,3<I>a</I>,6<I>a</I>-tetrahydropyrrolo[3,2-b]pyrrole-6,1&apos;-cyclobutane]-1-yl]-3-methyl-1-oxobutan-2-yl]-3-(cyclopropylmethyl)urea
> <PUBCHEM_IUPAC_NAME>
1-[(2S)-1-[(3aS,6aR)-4-(cyclopropanecarbonyl)-5-oxospiro[2,3,3a,6a-tetrahydropyrrolo[3,2-b]pyrrole-6,1'-cyclobutane]-1-yl]-3-methyl-1-oxobutan-2-yl]-3-(cyclopropylmethyl)urea
> <PUBCHEM_IUPAC_SYSTEMATIC_NAME>
1-[(2S)-1-[(3aS,6aR)-4-cyclopropylcarbonyl-5-oxidanylidene-spiro[2,3,3a,6a-tetrahydropyrrolo[3,2-b]pyrrole-6,1'-cyclobutane]-1-yl]-3-methyl-1-oxidanylidene-butan-2-yl]-3-(cyclopropylmethyl)urea
> <PUBCHEM_IUPAC_TRADITIONAL_NAME>
1-[(1S)-1-[(3aS,6aR)-4-(cyclopropanecarbonyl)-5-keto-spiro[2,3,3a,6a-tetrahydropyrrolo[3,2-b]pyrrole-6,1'-cyclobutane]-1-carbonyl]-2-methyl-propyl]-3-(cyclopropylmethyl)urea
> <PUBCHEM_IUPAC_INCHI>
InChI=1S/C23H34N4O4/c1-13(2)17(25-22(31)24-12-14-4-5-14)20(29)26-11-8-16-18(26)23(9-3-10-23)21(30)27(16)19(28)15-6-7-15/h13-18H,3-12H2,1-2H3,(H2,24,25,31)/t16-,17-,18-/m0/s1
> <PUBCHEM_IUPAC_INCHIKEY>
WARIXZGZPPDVPD-BZSNNMDCSA-N
> <PUBCHEM_XLOGP3_AA>
1.6
> <PUBCHEM_EXACT_MASS>
430.25800558
> <PUBCHEM_MOLECULAR_FORMULA>
C23H34N4O4
> <PUBCHEM_MOLECULAR_WEIGHT>
430.5
> <PUBCHEM_OPENEYE_CAN_SMILES>
CC(C)C(C(=O)N1CCC2C1C3(CCC3)C(=O)N2C(=O)C4CC4)NC(=O)NCC5CC5
> <PUBCHEM_OPENEYE_ISO_SMILES>
CC(C)[C@@H](C(=O)N1CC[C@H]2[C@H]1C3(CCC3)C(=O)N2C(=O)C4CC4)NC(=O)NCC5CC5
> <PUBCHEM_CACTVS_TPSA>
98.8
> <PUBCHEM_MONOISOTOPIC_WEIGHT>
430.25800558
> <PUBCHEM_TOTAL_CHARGE>
0
> <PUBCHEM_HEAVY_ATOM_COUNT>
31
> <PUBCHEM_ATOM_DEF_STEREO_COUNT>
3
> <PUBCHEM_ATOM_UDEF_STEREO_COUNT>
0
> <PUBCHEM_BOND_DEF_STEREO_COUNT>
0
> <PUBCHEM_BOND_UDEF_STEREO_COUNT>
0
> <PUBCHEM_ISOTOPIC_ATOM_COUNT>
0
> <PUBCHEM_COMPONENT_COUNT>
1
> <PUBCHEM_CACTVS_TAUTO_COUNT>
-1
> <PUBCHEM_COORDINATE_TYPE>
1
5
255
> <PUBCHEM_BONDANNOTATIONS>
10  32  6
11  33  5
23  7  5
$$$$
