513186
  -OEChem-10302200282D
 92 95  0     1  0  0  0  0  0999 V2000
    9.4903    1.7244    0.0000 O   0  0  0  0  0  0  0  0  0  0  0  0
    7.1590    2.8472    0.0000 O   0  0  0  0  0  0  0  0  0  0  0  0
    7.1264    0.6719    0.0000 O   0  0  0  0  0  0  0  0  0  0  0  0
    8.5051   -0.7643    0.0000 O   0  0  0  0  0  0  0  0  0  0  0  0
    9.7747   -1.9424    0.0000 O   0  0  0  0  0  0  0  0  0  0  0  0
   10.4549   -1.2094    0.0000 O   0  0  0  0  0  0  0  0  0  0  0  0
    7.1447   -2.2304    0.0000 O   0  0  0  0  0  0  0  0  0  0  0  0
   10.8770    2.9286    0.0000 O   0  0  0  0  0  0  0  0  0  0  0  0
    7.7342   -4.1416    0.0000 O   0  0  0  0  0  0  0  0  0  0  0  0
   10.2075    6.3274    0.0000 O   0  0  0  0  0  0  0  0  0  0  0  0
   11.7548   -5.8970    0.0000 O   0  0  0  0  0  0  0  0  0  0  0  0
   11.7246   -2.3875    0.0000 O   0  0  0  0  0  0  0  0  0  0  0  0
    9.2379    3.4885    0.0000 N   0  0  0  0  0  0  0  0  0  0  0  0
   10.5423    4.6280    0.0000 N   0  0  0  0  0  0  0  0  0  0  0  0
   10.8403    0.4792    0.0000 N   0  0  0  0  0  0  0  0  0  0  0  0
   11.3392   -4.0761    0.0000 N   0  0  0  0  0  0  0  0  0  0  0  0
   13.4376   -5.7074    0.0000 N   0  0  0  0  0  0  0  0  0  0  0  0
    7.9442    1.2475    0.0000 C   0  0  2  0  0  0  0  0  0  0  0  0
    8.8905    0.9243    0.0000 C   0  0  1  0  0  0  0  0  0  0  0  0
    7.9591    2.2474    0.0000 C   0  0  2  0  0  0  0  0  0  0  0  0
    8.9147    2.5421    0.0000 C   0  0  1  0  0  0  0  0  0  0  0  0
    9.1852   -0.0313    0.0000 C   0  0  2  0  0  0  0  0  0  0  0  0
   10.1602   -0.2538    0.0000 C   0  0  0  0  0  0  0  0  0  0  0  0
    6.2395    2.4542    0.0000 C   0  0  0  0  0  0  0  0  0  0  0  0
    8.7998   -1.7199    0.0000 C   0  0  1  0  0  0  0  0  0  0  0  0
    8.1196   -2.4530    0.0000 C   0  0  2  0  0  0  0  0  0  0  0  0
   10.2190    3.6817    0.0000 C   0  0  0  0  0  0  0  0  0  0  0  0
    8.5800    4.2415    0.0000 C   0  0  0  0  0  0  0  0  0  0  0  0
    5.4393    3.0540    0.0000 C   0  0  0  0  0  0  0  0  0  0  0  0
    6.2191    1.0922    0.0000 C   0  0  0  0  0  0  0  0  0  0  0  0
    8.4144   -3.4085    0.0000 C   0  0  2  0  0  0  0  0  0  0  0  0
    4.5198    2.6610    0.0000 C   0  0  0  0  0  0  0  0  0  0  0  0
    8.9032    5.1879    0.0000 C   0  0  0  0  0  0  0  0  0  0  0  0
   12.3141   -4.2986    0.0000 C   0  0  1  0  0  0  0  0  0  0  0  0
   10.0695   -2.8980    0.0000 C   0  0  0  0  0  0  0  0  0  0  0  0
   12.9376   -3.5168    0.0000 C   0  0  0  0  0  0  0  0  0  0  0  0
    9.3893   -3.6311    0.0000 C   0  0  0  0  0  0  0  0  0  0  0  0
   13.9376   -3.5168    0.0000 C   0  0  0  0  0  0  0  0  0  0  0  0
   14.5611   -4.2986    0.0000 C   0  0  0  0  0  0  0  0  0  0  0  0
   14.3386   -5.2736    0.0000 C   0  0  2  0  0  0  0  0  0  0  0  0
    9.8843    5.3811    0.0000 C   0  0  0  0  0  0  0  0  0  0  0  0
    3.7197    3.2608    0.0000 C   0  0  0  0  0  0  0  0  0  0  0  0
   11.0444   -3.1205    0.0000 C   0  0  0  0  0  0  0  0  0  0  0  0
   12.5366   -5.2736    0.0000 C   0  0  0  0  0  0  0  0  0  0  0  0
    2.8001    2.8678    0.0000 C   0  0  0  0  0  0  0  0  0  0  0  0
   15.1204   -5.8970    0.0000 C   0  0  0  0  0  0  0  0  0  0  0  0
    2.0000    3.4676    0.0000 C   0  0  0  0  0  0  0  0  0  0  0  0
    8.0320    0.6337    0.0000 H   0  0  0  0  0  0  0  0  0  0  0  0
    9.7279    0.7788    0.0000 H   0  0  0  0  0  0  0  0  0  0  0  0
    7.4025    1.9742    0.0000 H   0  0  0  0  0  0  0  0  0  0  0  0
    8.4829    2.9870    0.0000 H   0  0  0  0  0  0  0  0  0  0  0  0
    9.3680   -0.6238    0.0000 H   0  0  0  0  0  0  0  0  0  0  0  0
    5.7871    2.0302    0.0000 H   0  0  0  0  0  0  0  0  0  0  0  0
    6.5784    1.9350    0.0000 H   0  0  0  0  0  0  0  0  0  0  0  0
    8.1954   -1.5820    0.0000 H   0  0  0  0  0  0  0  0  0  0  0  0
    7.6979   -2.9075    0.0000 H   0  0  0  0  0  0  0  0  0  0  0  0
    7.9716    4.1217    0.0000 H   0  0  0  0  0  0  0  0  0  0  0  0
    5.8917    3.4780    0.0000 H   0  0  0  0  0  0  0  0  0  0  0  0
    5.1004    3.5731    0.0000 H   0  0  0  0  0  0  0  0  0  0  0  0
    6.4797    1.6548    0.0000 H   0  0  0  0  0  0  0  0  0  0  0  0
    5.6565    1.3529    0.0000 H   0  0  0  0  0  0  0  0  0  0  0  0
    5.9585    0.5297    0.0000 H   0  0  0  0  0  0  0  0  0  0  0  0
    8.5971   -4.0010    0.0000 H   0  0  0  0  0  0  0  0  0  0  0  0
    4.0674    2.2370    0.0000 H   0  0  0  0  0  0  0  0  0  0  0  0
    4.8588    2.1418    0.0000 H   0  0  0  0  0  0  0  0  0  0  0  0
   11.8757   -4.7370    0.0000 H   0  0  0  0  0  0  0  0  0  0  0  0
   11.1506    4.7479    0.0000 H   0  0  0  0  0  0  0  0  0  0  0  0
    8.4952    5.6548    0.0000 H   0  0  0  0  0  0  0  0  0  0  0  0
   13.0756   -2.9123    0.0000 H   0  0  0  0  0  0  0  0  0  0  0  0
   12.3790   -3.2478    0.0000 H   0  0  0  0  0  0  0  0  0  0  0  0
   11.4448    0.3413    0.0000 H   0  0  0  0  0  0  0  0  0  0  0  0
   10.6576    1.0717    0.0000 H   0  0  0  0  0  0  0  0  0  0  0  0
   14.4962   -3.2478    0.0000 H   0  0  0  0  0  0  0  0  0  0  0  0
   13.7996   -2.9123    0.0000 H   0  0  0  0  0  0  0  0  0  0  0  0
    9.5721   -4.2235    0.0000 H   0  0  0  0  0  0  0  0  0  0  0  0
   15.1197   -4.5676    0.0000 H   0  0  0  0  0  0  0  0  0  0  0  0
   14.9477   -3.8139    0.0000 H   0  0  0  0  0  0  0  0  0  0  0  0
   14.2692   -5.8897    0.0000 H   0  0  0  0  0  0  0  0  0  0  0  0
    4.1720    3.6848    0.0000 H   0  0  0  0  0  0  0  0  0  0  0  0
    3.3807    3.7799    0.0000 H   0  0  0  0  0  0  0  0  0  0  0  0
   10.9175   -4.5306    0.0000 H   0  0  0  0  0  0  0  0  0  0  0  0
   13.4376   -6.3274    0.0000 H   0  0  0  0  0  0  0  0  0  0  0  0
    6.7230   -2.6849    0.0000 H   0  0  0  0  0  0  0  0  0  0  0  0
   14.7338   -6.3818    0.0000 H   0  0  0  0  0  0  0  0  0  0  0  0
   15.6051   -6.2836    0.0000 H   0  0  0  0  0  0  0  0  0  0  0  0
   15.5070   -5.4123    0.0000 H   0  0  0  0  0  0  0  0  0  0  0  0
    2.3478    2.4438    0.0000 H   0  0  0  0  0  0  0  0  0  0  0  0
    3.1391    2.3486    0.0000 H   0  0  0  0  0  0  0  0  0  0  0  0
    7.9170   -4.7340    0.0000 H   0  0  0  0  0  0  0  0  0  0  0  0
    2.3719    3.9637    0.0000 H   0  0  0  0  0  0  0  0  0  0  0  0
    1.5039    3.8395    0.0000 H   0  0  0  0  0  0  0  0  0  0  0  0
    1.6281    2.9715    0.0000 H   0  0  0  0  0  0  0  0  0  0  0  0
  1 19  1  0  0  0  0
  1 21  1  0  0  0  0
 20  2  1  1  0  0  0
  2 24  1  0  0  0  0
 18  3  1  1  0  0  0
  3 30  1  0  0  0  0
 22  4  1  6  0  0  0
 25  4  1  1  0  0  0
  5 25  1  0  0  0  0
  5 35  1  0  0  0  0
  6 23  2  0  0  0  0
 26  7  1  6  0  0  0
  7 83  1  0  0  0  0
  8 27  2  0  0  0  0
 31  9  1  6  0  0  0
  9 89  1  0  0  0  0
 10 41  2  0  0  0  0
 11 44  2  0  0  0  0
 12 43  2  0  0  0  0
 21 13  1  6  0  0  0
 13 27  1  0  0  0  0
 13 28  1  0  0  0  0
 14 27  1  0  0  0  0
 14 41  1  0  0  0  0
 14 67  1  0  0  0  0
 15 23  1  0  0  0  0
 15 71  1  0  0  0  0
 15 72  1  0  0  0  0
 34 16  1  1  0  0  0
 16 43  1  0  0  0  0
 16 81  1  0  0  0  0
 17 40  1  0  0  0  0
 17 44  1  0  0  0  0
 17 82  1  0  0  0  0
 18 19  1  0  0  0  0
 18 20  1  0  0  0  0
 18 48  1  0  0  0  0
 19 22  1  0  0  0  0
 19 49  1  1  0  0  0
 20 21  1  0  0  0  0
 20 50  1  0  0  0  0
 21 51  1  0  0  0  0
 22 23  1  0  0  0  0
 22 52  1  0  0  0  0
 24 29  1  0  0  0  0
 24 53  1  0  0  0  0
 24 54  1  0  0  0  0
 25 26  1  0  0  0  0
 25 55  1  0  0  0  0
 26 31  1  0  0  0  0
 26 56  1  0  0  0  0
 28 33  2  0  0  0  0
 28 57  1  0  0  0  0
 29 32  1  0  0  0  0
 29 58  1  0  0  0  0
 29 59  1  0  0  0  0
 30 60  1  0  0  0  0
 30 61  1  0  0  0  0
 30 62  1  0  0  0  0
 31 37  1  0  0  0  0
 31 63  1  0  0  0  0
 32 42  1  0  0  0  0
 32 64  1  0  0  0  0
 32 65  1  0  0  0  0
 33 41  1  0  0  0  0
 33 68  1  0  0  0  0
 34 36  1  0  0  0  0
 34 44  1  0  0  0  0
 34 66  1  0  0  0  0
 35 37  2  0  0  0  0
 35 43  1  0  0  0  0
 36 38  1  0  0  0  0
 36 69  1  0  0  0  0
 36 70  1  0  0  0  0
 37 75  1  0  0  0  0
 38 39  1  0  0  0  0
 38 73  1  0  0  0  0
 38 74  1  0  0  0  0
 39 40  1  0  0  0  0
 39 76  1  0  0  0  0
 39 77  1  0  0  0  0
 40 46  1  6  0  0  0
 40 78  1  0  0  0  0
 42 45  1  0  0  0  0
 42 79  1  0  0  0  0
 42 80  1  0  0  0  0
 45 47  1  0  0  0  0
 45 87  1  0  0  0  0
 45 88  1  0  0  0  0
 46 84  1  0  0  0  0
 46 85  1  0  0  0  0
 46 86  1  0  0  0  0
 47 90  1  0  0  0  0
 47 91  1  0  0  0  0
 47 92  1  0  0  0  0
M  END
> <PUBCHEM_COMPOUND_CID>
513186
> <PUBCHEM_COMPOUND_CANONICALIZED>
1
> <PUBCHEM_CACTVS_COMPLEXITY>
1230
> <PUBCHEM_CACTVS_HBOND_ACCEPTOR>
12
> <PUBCHEM_CACTVS_HBOND_DONOR>
6
> <PUBCHEM_CACTVS_ROTATABLE_BOND>
14
> <PUBCHEM_CACTVS_SUBSKEYS>
AAADcfB7vAAAAAAAAAAAAAAAAAAAASAAAAAgQAAABYAAAAAAAAAAHgAQCAAACDzxgAcDCAPABgCIACFWUAKACAAgIgAICIHIAEiTVBYAgCQ/UAAP9yKfEcP6/A7AAAAAAAAAAAAAAAAAAAAAAAAAAAAAAA==
> <PUBCHEM_IUPAC_OPENEYE_NAME>
(2S,3S,4S)-2-[(1R)-2-amino-1-[(2S,3R,4R,5R)-5-(2,4-dioxopyrimidin-1-yl)-4-hexoxy-3-methoxy-tetrahydrofuran-2-yl]-2-oxo-ethoxy]-3,4-dihydroxy-N-[(3S,7S)-7-methyl-2-oxo-azepan-3-yl]-3,4-dihydro-2H-pyran-6-carboxamide
> <PUBCHEM_IUPAC_CAS_NAME>
(2S,3S,4S)-2-[(1R)-2-amino-1-[(2S,3R,4R,5R)-5-(2,4-dioxo-1-pyrimidinyl)-4-hexoxy-3-methoxy-2-oxolanyl]-2-oxoethoxy]-3,4-dihydroxy-N-[(3S,7S)-7-methyl-2-oxo-3-azepanyl]-3,4-dihydro-2H-pyran-6-carboxamide
> <PUBCHEM_IUPAC_NAME_MARKUP>
(2<I>S</I>,3<I>S</I>,4<I>S</I>)-2-[(1<I>R</I>)-2-amino-1-[(2<I>S</I>,3<I>R</I>,4<I>R</I>,5<I>R</I>)-5-(2,4-dioxopyrimidin-1-yl)-4-hexoxy-3-methoxyoxolan-2-yl]-2-oxoethoxy]-3,4-dihydroxy-<I>N</I>-[(3<I>S</I>,7<I>S</I>)-7-methyl-2-oxoazepan-3-yl]-3,4-dihydro-2<I>H</I>-pyran-6-carboxamide
> <PUBCHEM_IUPAC_NAME>
(2S,3S,4S)-2-[(1R)-2-amino-1-[(2S,3R,4R,5R)-5-(2,4-dioxopyrimidin-1-yl)-4-hexoxy-3-methoxyoxolan-2-yl]-2-oxoethoxy]-3,4-dihydroxy-N-[(3S,7S)-7-methyl-2-oxoazepan-3-yl]-3,4-dihydro-2H-pyran-6-carboxamide
> <PUBCHEM_IUPAC_SYSTEMATIC_NAME>
(2S,3S,4S)-2-[(1R)-2-azanyl-1-[(2S,3R,4R,5R)-5-[2,4-bis(oxidanylidene)pyrimidin-1-yl]-4-hexoxy-3-methoxy-oxolan-2-yl]-2-oxidanylidene-ethoxy]-N-[(3S,7S)-7-methyl-2-oxidanylidene-azepan-3-yl]-3,4-bis(oxidanyl)-3,4-dihydro-2H-pyran-6-carboxamide
> <PUBCHEM_IUPAC_TRADITIONAL_NAME>
(2S,3S,4S)-2-[(1R)-2-amino-1-[(2S,3R,4R,5R)-5-(2,4-diketopyrimidin-1-yl)-4-hexoxy-3-methoxy-tetrahydrofuran-2-yl]-2-keto-ethoxy]-3,4-dihydroxy-N-[(3S,7S)-2-keto-7-methyl-azepan-3-yl]-3,4-dihydro-2H-pyran-6-carboxamide
> <PUBCHEM_IUPAC_INCHI>
InChI=1S/C30H45N5O12/c1-4-5-6-7-13-44-24-21(43-3)22(46-28(24)35-12-11-19(37)34-30(35)42)23(25(31)39)47-29-20(38)17(36)14-18(45-29)27(41)33-16-10-8-9-15(2)32-26(16)40/h11-12,14-17,20-24,28-29,36,38H,4-10,13H2,1-3H3,(H2,31,39)(H,32,40)(H,33,41)(H,34,37,42)/t15-,16-,17-,20-,21+,22-,23+,24+,28+,29+/m0/s1
> <PUBCHEM_IUPAC_INCHIKEY>
SCKMBQFPMKDTBR-IYAANYLESA-N
> <PUBCHEM_XLOGP3_AA>
-0.8
> <PUBCHEM_EXACT_MASS>
667.30647189
> <PUBCHEM_MOLECULAR_FORMULA>
C30H45N5O12
> <PUBCHEM_MOLECULAR_WEIGHT>
667.7
> <PUBCHEM_OPENEYE_CAN_SMILES>
CCCCCCOC1C(C(OC1N2C=CC(=O)NC2=O)C(C(=O)N)OC3C(C(C=C(O3)C(=O)NC4CCCC(NC4=O)C)O)O)OC
> <PUBCHEM_OPENEYE_ISO_SMILES>
CCCCCCO[C@@H]1[C@@H]([C@H](O[C@H]1N2C=CC(=O)NC2=O)[C@H](C(=O)N)O[C@@H]3[C@H]([C@H](C=C(O3)C(=O)N[C@H]4CCC[C@@H](NC4=O)C)O)O)OC
> <PUBCHEM_CACTVS_TPSA>
237
> <PUBCHEM_MONOISOTOPIC_WEIGHT>
667.30647189
> <PUBCHEM_TOTAL_CHARGE>
0
> <PUBCHEM_HEAVY_ATOM_COUNT>
47
> <PUBCHEM_ATOM_DEF_STEREO_COUNT>
10
> <PUBCHEM_ATOM_UDEF_STEREO_COUNT>
0
> <PUBCHEM_BOND_DEF_STEREO_COUNT>
0
> <PUBCHEM_BOND_UDEF_STEREO_COUNT>
0
> <PUBCHEM_ISOTOPIC_ATOM_COUNT>
0
> <PUBCHEM_COMPONENT_COUNT>
1
> <PUBCHEM_CACTVS_TAUTO_COUNT>
-1
> <PUBCHEM_COORDINATE_TYPE>
1
5
255
> <PUBCHEM_BONDANNOTATIONS>
21  13  6
13  27  8
13  28  8
14  27  8
14  41  8
34  16  5
19  49  5
20  2  5
28  33  8
18  3  5
33  41  8
22  4  6
25  4  5
40  46  6
26  7  6
31  9  6
$$$$
