513108
  -OEChem-10302200282D
 32 34  0     1  0  0  0  0  0999 V2000
    3.7817    1.5346    0.0000 Cl  0  0  0  0  0  0  0  0  0  0  0  0
    2.0000   -1.5241    0.0000 Cl  0  0  0  0  0  0  0  0  0  0  0  0
   10.7263   -1.5000    0.0000 Cl  0  0  0  0  0  0  0  0  0  0  0  0
    5.5301   -1.5000    0.0000 O   0  0  0  0  0  0  0  0  0  0  0  0
    5.5301    1.5000    0.0000 O   0  0  0  0  0  0  0  0  0  0  0  0
    6.3961    0.0000    0.0000 C   0  0  3  0  0  0  0  0  0  0  0  0
    7.2622    0.5000    0.0000 C   0  0  0  0  0  0  0  0  0  0  0  0
    6.3961   -1.0000    0.0000 C   0  0  0  0  0  0  0  0  0  0  0  0
    5.5301    0.5000    0.0000 C   0  0  0  0  0  0  0  0  0  0  0  0
    4.6641    0.0000    0.0000 C   0  0  0  0  0  0  0  0  0  0  0  0
    8.1282    0.0000    0.0000 C   0  0  0  0  0  0  0  0  0  0  0  0
    4.6641   -1.0000    0.0000 C   0  0  0  0  0  0  0  0  0  0  0  0
    3.7702    0.5347    0.0000 C   0  0  0  0  0  0  0  0  0  0  0  0
    3.7702   -1.5346    0.0000 C   0  0  0  0  0  0  0  0  0  0  0  0
    8.9942    0.5000    0.0000 C   0  0  0  0  0  0  0  0  0  0  0  0
    8.1282   -1.0000    0.0000 C   0  0  0  0  0  0  0  0  0  0  0  0
    2.8641    0.0208    0.0000 C   0  0  0  0  0  0  0  0  0  0  0  0
    2.8641   -1.0208    0.0000 C   0  0  0  0  0  0  0  0  0  0  0  0
    9.8602    0.0000    0.0000 C   0  0  0  0  0  0  0  0  0  0  0  0
    8.9942   -1.5000    0.0000 C   0  0  0  0  0  0  0  0  0  0  0  0
    9.8602   -1.0000    0.0000 C   0  0  0  0  0  0  0  0  0  0  0  0
    6.9331   -0.3100    0.0000 H   0  0  0  0  0  0  0  0  0  0  0  0
    7.6607    0.9750    0.0000 H   0  0  0  0  0  0  0  0  0  0  0  0
    6.8636    0.9750    0.0000 H   0  0  0  0  0  0  0  0  0  0  0  0
    6.6082   -1.5826    0.0000 H   0  0  0  0  0  0  0  0  0  0  0  0
    7.0067   -0.8923    0.0000 H   0  0  0  0  0  0  0  0  0  0  0  0
    3.7773   -2.1546    0.0000 H   0  0  0  0  0  0  0  0  0  0  0  0
    8.9942    1.1200    0.0000 H   0  0  0  0  0  0  0  0  0  0  0  0
    7.5913   -1.3100    0.0000 H   0  0  0  0  0  0  0  0  0  0  0  0
    2.3284    0.3329    0.0000 H   0  0  0  0  0  0  0  0  0  0  0  0
   10.3972    0.3100    0.0000 H   0  0  0  0  0  0  0  0  0  0  0  0
    8.9942   -2.1200    0.0000 H   0  0  0  0  0  0  0  0  0  0  0  0
  1 13  1  0  0  0  0
  2 18  1  0  0  0  0
  3 21  1  0  0  0  0
  4  8  1  0  0  0  0
  4 12  1  0  0  0  0
  5  9  2  0  0  0  0
  6  7  1  0  0  0  0
  6  8  1  0  0  0  0
  6  9  1  0  0  0  0
  6 22  1  0  0  0  0
  7 11  1  0  0  0  0
  7 23  1  0  0  0  0
  7 24  1  0  0  0  0
  8 25  1  0  0  0  0
  8 26  1  0  0  0  0
  9 10  1  0  0  0  0
 10 12  2  0  0  0  0
 10 13  1  0  0  0  0
 11 15  2  0  0  0  0
 11 16  1  0  0  0  0
 12 14  1  0  0  0  0
 13 17  2  0  0  0  0
 14 18  2  0  0  0  0
 14 27  1  0  0  0  0
 15 19  1  0  0  0  0
 15 28  1  0  0  0  0
 16 20  2  0  0  0  0
 16 29  1  0  0  0  0
 17 18  1  0  0  0  0
 17 30  1  0  0  0  0
 19 21  2  0  0  0  0
 19 31  1  0  0  0  0
 20 21  1  0  0  0  0
 20 32  1  0  0  0  0
M  END
> <PUBCHEM_COMPOUND_CID>
513108
> <PUBCHEM_COMPOUND_CANONICALIZED>
1
> <PUBCHEM_CACTVS_COMPLEXITY>
382
> <PUBCHEM_CACTVS_HBOND_ACCEPTOR>
2
> <PUBCHEM_CACTVS_HBOND_DONOR>
0
> <PUBCHEM_CACTVS_ROTATABLE_BOND>
2
> <PUBCHEM_CACTVS_SUBSKEYS>
AAADccB4MAAGAAAAAAAAAAAAAAAAAAAAAAA0YIAAAAAAAACRQAAAGgIAAAAADQagmCIwBoAABACIAqBSAAACCAAkJQAIiAEGCsgMJjaFNxqCOWCk4BEIrQeIyOCOBAAAAQCJAAAIAAACARIAAAAAAAAAAA==
> <PUBCHEM_IUPAC_OPENEYE_NAME>
5,7-dichloro-3-[(4-chlorophenyl)methyl]chroman-4-one
> <PUBCHEM_IUPAC_CAS_NAME>
5,7-dichloro-3-[(4-chlorophenyl)methyl]-3,4-dihydro-2H-1-benzopyran-4-one
> <PUBCHEM_IUPAC_NAME_MARKUP>
5,7-dichloro-3-[(4-chlorophenyl)methyl]-2,3-dihydrochromen-4-one
> <PUBCHEM_IUPAC_NAME>
5,7-dichloro-3-[(4-chlorophenyl)methyl]-2,3-dihydrochromen-4-one
> <PUBCHEM_IUPAC_SYSTEMATIC_NAME>
5,7-bis(chloranyl)-3-[(4-chlorophenyl)methyl]-2,3-dihydrochromen-4-one
> <PUBCHEM_IUPAC_TRADITIONAL_NAME>
5,7-dichloro-3-(4-chlorobenzyl)chroman-4-one
> <PUBCHEM_IUPAC_INCHI>
InChI=1S/C16H11Cl3O2/c17-11-3-1-9(2-4-11)5-10-8-21-14-7-12(18)6-13(19)15(14)16(10)20/h1-4,6-7,10H,5,8H2
> <PUBCHEM_IUPAC_INCHIKEY>
RRICXSUQKJIROQ-UHFFFAOYSA-N
> <PUBCHEM_XLOGP3_AA>
5.3
> <PUBCHEM_EXACT_MASS>
339.982463
> <PUBCHEM_MOLECULAR_FORMULA>
C16H11Cl3O2
> <PUBCHEM_MOLECULAR_WEIGHT>
341.6
> <PUBCHEM_OPENEYE_CAN_SMILES>
C1C(C(=O)C2=C(O1)C=C(C=C2Cl)Cl)CC3=CC=C(C=C3)Cl
> <PUBCHEM_OPENEYE_ISO_SMILES>
C1C(C(=O)C2=C(O1)C=C(C=C2Cl)Cl)CC3=CC=C(C=C3)Cl
> <PUBCHEM_CACTVS_TPSA>
26.3
> <PUBCHEM_MONOISOTOPIC_WEIGHT>
339.982463
> <PUBCHEM_TOTAL_CHARGE>
0
> <PUBCHEM_HEAVY_ATOM_COUNT>
21
> <PUBCHEM_ATOM_DEF_STEREO_COUNT>
0
> <PUBCHEM_ATOM_UDEF_STEREO_COUNT>
1
> <PUBCHEM_BOND_DEF_STEREO_COUNT>
0
> <PUBCHEM_BOND_UDEF_STEREO_COUNT>
0
> <PUBCHEM_ISOTOPIC_ATOM_COUNT>
0
> <PUBCHEM_COMPONENT_COUNT>
1
> <PUBCHEM_CACTVS_TAUTO_COUNT>
-1
> <PUBCHEM_COORDINATE_TYPE>
1
5
255
> <PUBCHEM_BONDANNOTATIONS>
10  12  8
10  13  8
11  15  8
11  16  8
12  14  8
13  17  8
14  18  8
15  19  8
16  20  8
17  18  8
19  21  8
20  21  8
6  7  3
$$$$
