513195
  -OEChem-10302200282D
111114  0     1  0  0  0  0  0999 V2000
    9.8988   -2.5226    0.0000 O   0  0  0  0  0  0  0  0  0  0  0  0
   10.9157   -0.1432    0.0000 O   0  0  0  0  0  0  0  0  0  0  0  0
   12.3714   -1.7599    0.0000 O   0  0  0  0  0  0  0  0  0  0  0  0
    8.9282   -0.0280    0.0000 O   0  0  0  0  0  0  0  0  0  0  0  0
    7.1962   -0.0280    0.0000 O   0  0  0  0  0  0  0  0  0  0  0  0
    7.1962   -1.0280    0.0000 O   0  0  0  0  0  0  0  0  0  0  0  0
    8.9282    1.9720    0.0000 O   0  0  0  0  0  0  0  0  0  0  0  0
    9.7013   -4.3485    0.0000 O   0  0  0  0  0  0  0  0  0  0  0  0
   12.1904   -0.0374    0.0000 O   0  0  0  0  0  0  0  0  0  0  0  0
    7.1962    2.9720    0.0000 O   0  0  0  0  0  0  0  0  0  0  0  0
   12.5039   -6.3847    0.0000 O   0  0  0  0  0  0  0  0  0  0  0  0
    5.4641   -1.0280    0.0000 O   0  0  0  0  0  0  0  0  0  0  0  0
   11.2836   -3.6440    0.0000 N   0  0  0  0  0  0  0  0  0  0  0  0
   11.1026   -5.3666    0.0000 N   0  0  0  0  0  0  0  0  0  0  0  0
    8.0622   -2.5280    0.0000 N   0  0  0  0  0  0  0  0  0  0  0  0
    4.5981    0.4720    0.0000 N   0  0  0  0  0  0  0  0  0  0  0  0
   10.7078   -1.1213    0.0000 C   0  0  2  0  0  0  0  0  0  0  0  0
    9.7942   -1.5280    0.0000 C   0  0  1  0  0  0  0  0  0  0  0  0
   11.3769   -1.8645    0.0000 C   0  0  2  0  0  0  0  0  0  0  0  0
   10.8769   -2.7305    0.0000 C   0  0  1  0  0  0  0  0  0  0  0  0
    8.9282   -1.0280    0.0000 C   0  0  2  0  0  0  0  0  0  0  0  0
    8.0622   -1.5280    0.0000 C   0  0  0  0  0  0  0  0  0  0  0  0
    8.0622    0.4720    0.0000 C   0  0  1  0  0  0  0  0  0  0  0  0
   10.6959   -4.4530    0.0000 C   0  0  0  0  0  0  0  0  0  0  0  0
   12.2782   -3.7486    0.0000 C   0  0  0  0  0  0  0  0  0  0  0  0
   12.7782   -0.8464    0.0000 C   0  0  0  0  0  0  0  0  0  0  0  0
    8.0622    1.4720    0.0000 C   0  0  2  0  0  0  0  0  0  0  0  0
   10.1725    0.5260    0.0000 C   0  0  0  0  0  0  0  0  0  0  0  0
   13.7727   -0.7419    0.0000 C   0  0  0  0  0  0  0  0  0  0  0  0
    7.1962    1.9720    0.0000 C   0  0  2  0  0  0  0  0  0  0  0  0
   14.1794    0.1717    0.0000 C   0  0  0  0  0  0  0  0  0  0  0  0
   12.6849   -4.6621    0.0000 C   0  0  0  0  0  0  0  0  0  0  0  0
   15.1739    0.2762    0.0000 C   0  0  0  0  0  0  0  0  0  0  0  0
   12.0971   -5.4711    0.0000 C   0  0  0  0  0  0  0  0  0  0  0  0
   15.5807    1.1898    0.0000 C   0  0  0  0  0  0  0  0  0  0  0  0
    6.3301    1.4720    0.0000 C   0  0  0  0  0  0  0  0  0  0  0  0
    6.3301    0.4720    0.0000 C   0  0  0  0  0  0  0  0  0  0  0  0
   16.5752    1.2943    0.0000 C   0  0  0  0  0  0  0  0  0  0  0  0
   16.9819    2.2078    0.0000 C   0  0  0  0  0  0  0  0  0  0  0  0
   17.9765    2.3124    0.0000 C   0  0  0  0  0  0  0  0  0  0  0  0
   18.3832    3.2259    0.0000 C   0  0  0  0  0  0  0  0  0  0  0  0
   19.3777    3.3304    0.0000 C   0  0  0  0  0  0  0  0  0  0  0  0
   19.7845    4.2440    0.0000 C   0  0  0  0  0  0  0  0  0  0  0  0
    5.4641   -0.0280    0.0000 C   0  0  0  0  0  0  0  0  0  0  0  0
   20.7790    4.3485    0.0000 C   0  0  0  0  0  0  0  0  0  0  0  0
   21.1857    5.2621    0.0000 C   0  0  0  0  0  0  0  0  0  0  0  0
   22.1802    5.3666    0.0000 C   0  0  0  0  0  0  0  0  0  0  0  0
   22.5870    6.2801    0.0000 C   0  0  0  0  0  0  0  0  0  0  0  0
    3.7320   -0.0280    0.0000 C   0  0  0  0  0  0  0  0  0  0  0  0
   23.5815    6.3847    0.0000 C   0  0  0  0  0  0  0  0  0  0  0  0
    3.7320   -1.0280    0.0000 C   0  0  0  0  0  0  0  0  0  0  0  0
    2.8660    0.4720    0.0000 C   0  0  0  0  0  0  0  0  0  0  0  0
    2.8660   -1.5280    0.0000 C   0  0  0  0  0  0  0  0  0  0  0  0
    2.0000   -0.0280    0.0000 C   0  0  0  0  0  0  0  0  0  0  0  0
    2.0000   -1.0280    0.0000 C   0  0  0  0  0  0  0  0  0  0  0  0
   11.3066   -0.9608    0.0000 H   0  0  0  0  0  0  0  0  0  0  0  0
    9.0814   -1.9910    0.0000 H   0  0  0  0  0  0  0  0  0  0  0  0
   11.7146   -2.3844    0.0000 H   0  0  0  0  0  0  0  0  0  0  0  0
   10.4867   -3.2123    0.0000 H   0  0  0  0  0  0  0  0  0  0  0  0
    9.4651   -0.7180    0.0000 H   0  0  0  0  0  0  0  0  0  0  0  0
    8.0622   -0.1480    0.0000 H   0  0  0  0  0  0  0  0  0  0  0  0
   12.6426   -3.2470    0.0000 H   0  0  0  0  0  0  0  0  0  0  0  0
    8.0622    2.0920    0.0000 H   0  0  0  0  0  0  0  0  0  0  0  0
   10.5874    0.9867    0.0000 H   0  0  0  0  0  0  0  0  0  0  0  0
    9.7118    0.9408    0.0000 H   0  0  0  0  0  0  0  0  0  0  0  0
    9.7577    0.0652    0.0000 H   0  0  0  0  0  0  0  0  0  0  0  0
   13.7294   -1.3603    0.0000 H   0  0  0  0  0  0  0  0  0  0  0  0
   14.3743   -0.8918    0.0000 H   0  0  0  0  0  0  0  0  0  0  0  0
    6.6592    2.2820    0.0000 H   0  0  0  0  0  0  0  0  0  0  0  0
   14.2227    0.7902    0.0000 H   0  0  0  0  0  0  0  0  0  0  0  0
   13.5778    0.3217    0.0000 H   0  0  0  0  0  0  0  0  0  0  0  0
   10.7382   -5.8682    0.0000 H   0  0  0  0  0  0  0  0  0  0  0  0
   13.3015   -4.7269    0.0000 H   0  0  0  0  0  0  0  0  0  0  0  0
    7.5252   -2.8380    0.0000 H   0  0  0  0  0  0  0  0  0  0  0  0
    8.5991   -2.8380    0.0000 H   0  0  0  0  0  0  0  0  0  0  0  0
   15.1307   -0.3423    0.0000 H   0  0  0  0  0  0  0  0  0  0  0  0
   15.7755    0.1262    0.0000 H   0  0  0  0  0  0  0  0  0  0  0  0
   15.6239    1.8083    0.0000 H   0  0  0  0  0  0  0  0  0  0  0  0
   14.9791    1.3398    0.0000 H   0  0  0  0  0  0  0  0  0  0  0  0
    5.7932    1.7820    0.0000 H   0  0  0  0  0  0  0  0  0  0  0  0
   16.5320    0.6758    0.0000 H   0  0  0  0  0  0  0  0  0  0  0  0
   17.1768    1.1443    0.0000 H   0  0  0  0  0  0  0  0  0  0  0  0
   17.0252    2.8263    0.0000 H   0  0  0  0  0  0  0  0  0  0  0  0
   16.3804    2.3578    0.0000 H   0  0  0  0  0  0  0  0  0  0  0  0
    8.9282    2.5920    0.0000 H   0  0  0  0  0  0  0  0  0  0  0  0
   17.9332    1.6939    0.0000 H   0  0  0  0  0  0  0  0  0  0  0  0
   18.5780    2.1624    0.0000 H   0  0  0  0  0  0  0  0  0  0  0  0
   18.4264    3.8444    0.0000 H   0  0  0  0  0  0  0  0  0  0  0  0
   17.7816    3.3759    0.0000 H   0  0  0  0  0  0  0  0  0  0  0  0
   19.3345    2.7120    0.0000 H   0  0  0  0  0  0  0  0  0  0  0  0
   19.9793    3.1804    0.0000 H   0  0  0  0  0  0  0  0  0  0  0  0
    6.6592    3.2820    0.0000 H   0  0  0  0  0  0  0  0  0  0  0  0
   19.8277    4.8625    0.0000 H   0  0  0  0  0  0  0  0  0  0  0  0
   19.1829    4.3940    0.0000 H   0  0  0  0  0  0  0  0  0  0  0  0
   20.7357    3.7300    0.0000 H   0  0  0  0  0  0  0  0  0  0  0  0
   21.3806    4.1985    0.0000 H   0  0  0  0  0  0  0  0  0  0  0  0
   21.2290    5.8806    0.0000 H   0  0  0  0  0  0  0  0  0  0  0  0
   20.5841    5.4120    0.0000 H   0  0  0  0  0  0  0  0  0  0  0  0
   22.1370    4.7481    0.0000 H   0  0  0  0  0  0  0  0  0  0  0  0
   22.7818    5.2166    0.0000 H   0  0  0  0  0  0  0  0  0  0  0  0
    4.5981    1.0920    0.0000 H   0  0  0  0  0  0  0  0  0  0  0  0
   22.6302    6.8986    0.0000 H   0  0  0  0  0  0  0  0  0  0  0  0
   21.9854    6.4301    0.0000 H   0  0  0  0  0  0  0  0  0  0  0  0
   23.6463    5.7681    0.0000 H   0  0  0  0  0  0  0  0  0  0  0  0
   24.1981    6.4495    0.0000 H   0  0  0  0  0  0  0  0  0  0  0  0
   23.5167    7.0013    0.0000 H   0  0  0  0  0  0  0  0  0  0  0  0
    4.2690   -1.3380    0.0000 H   0  0  0  0  0  0  0  0  0  0  0  0
    2.8660    1.0920    0.0000 H   0  0  0  0  0  0  0  0  0  0  0  0
    2.8660   -2.1480    0.0000 H   0  0  0  0  0  0  0  0  0  0  0  0
    1.4631    0.2820    0.0000 H   0  0  0  0  0  0  0  0  0  0  0  0
    1.4631   -1.3380    0.0000 H   0  0  0  0  0  0  0  0  0  0  0  0
  1 18  1  0  0  0  0
  1 20  1  0  0  0  0
 17  2  1  1  0  0  0
  2 28  1  0  0  0  0
 19  3  1  1  0  0  0
  3 26  1  0  0  0  0
 21  4  1  6  0  0  0
 23  4  1  1  0  0  0
  5 23  1  0  0  0  0
  5 37  1  0  0  0  0
  6 22  2  0  0  0  0
 27  7  1  6  0  0  0
  7 85  1  0  0  0  0
  8 24  2  0  0  0  0
  9 26  2  0  0  0  0
 30 10  1  6  0  0  0
 10 92  1  0  0  0  0
 11 34  2  0  0  0  0
 12 44  2  0  0  0  0
 20 13  1  6  0  0  0
 13 24  1  0  0  0  0
 13 25  1  0  0  0  0
 14 24  1  0  0  0  0
 14 34  1  0  0  0  0
 14 72  1  0  0  0  0
 15 22  1  0  0  0  0
 15 74  1  0  0  0  0
 15 75  1  0  0  0  0
 16 44  1  0  0  0  0
 16 49  1  0  0  0  0
 16101  1  0  0  0  0
 17 18  1  0  0  0  0
 17 19  1  0  0  0  0
 17 56  1  0  0  0  0
 18 21  1  0  0  0  0
 18 57  1  1  0  0  0
 19 20  1  0  0  0  0
 19 58  1  0  0  0  0
 20 59  1  0  0  0  0
 21 22  1  0  0  0  0
 21 60  1  0  0  0  0
 23 27  1  0  0  0  0
 23 61  1  0  0  0  0
 25 32  2  0  0  0  0
 25 62  1  0  0  0  0
 26 29  1  0  0  0  0
 27 30  1  0  0  0  0
 27 63  1  0  0  0  0
 28 64  1  0  0  0  0
 28 65  1  0  0  0  0
 28 66  1  0  0  0  0
 29 31  1  0  0  0  0
 29 67  1  0  0  0  0
 29 68  1  0  0  0  0
 30 36  1  0  0  0  0
 30 69  1  0  0  0  0
 31 33  1  0  0  0  0
 31 70  1  0  0  0  0
 31 71  1  0  0  0  0
 32 34  1  0  0  0  0
 32 73  1  0  0  0  0
 33 35  1  0  0  0  0
 33 76  1  0  0  0  0
 33 77  1  0  0  0  0
 35 38  1  0  0  0  0
 35 78  1  0  0  0  0
 35 79  1  0  0  0  0
 36 37  2  0  0  0  0
 36 80  1  0  0  0  0
 37 44  1  0  0  0  0
 38 39  1  0  0  0  0
 38 81  1  0  0  0  0
 38 82  1  0  0  0  0
 39 40  1  0  0  0  0
 39 83  1  0  0  0  0
 39 84  1  0  0  0  0
 40 41  1  0  0  0  0
 40 86  1  0  0  0  0
 40 87  1  0  0  0  0
 41 42  1  0  0  0  0
 41 88  1  0  0  0  0
 41 89  1  0  0  0  0
 42 43  1  0  0  0  0
 42 90  1  0  0  0  0
 42 91  1  0  0  0  0
 43 45  1  0  0  0  0
 43 93  1  0  0  0  0
 43 94  1  0  0  0  0
 45 46  1  0  0  0  0
 45 95  1  0  0  0  0
 45 96  1  0  0  0  0
 46 47  1  0  0  0  0
 46 97  1  0  0  0  0
 46 98  1  0  0  0  0
 47 48  1  0  0  0  0
 47 99  1  0  0  0  0
 47100  1  0  0  0  0
 48 50  1  0  0  0  0
 48102  1  0  0  0  0
 48103  1  0  0  0  0
 49 51  2  0  0  0  0
 49 52  1  0  0  0  0
 50104  1  0  0  0  0
 50105  1  0  0  0  0
 50106  1  0  0  0  0
 51 53  1  0  0  0  0
 51107  1  0  0  0  0
 52 54  2  0  0  0  0
 52108  1  0  0  0  0
 53 55  2  0  0  0  0
 53109  1  0  0  0  0
 54 55  1  0  0  0  0
 54110  1  0  0  0  0
 55111  1  0  0  0  0
M  END
> <PUBCHEM_COMPOUND_CID>
513195
> <PUBCHEM_COMPOUND_CANONICALIZED>
1
> <PUBCHEM_CACTVS_COMPLEXITY>
1340
> <PUBCHEM_CACTVS_HBOND_ACCEPTOR>
12
> <PUBCHEM_CACTVS_HBOND_DONOR>
5
> <PUBCHEM_CACTVS_ROTATABLE_BOND>
24
> <PUBCHEM_CACTVS_SUBSKEYS>
AAADcfB/vAAAAAAAAAAAAAAAAAAAASAAAAAwQIAAAAAAAAABAAAAHgAQCAAACBzxkAczyIPABgCIACXWWAKCCAAhIgAIiAFIZMibNDbAkZWvcAhv9yLf2cf6/K7AAAAAAAAAAAAAAAAAAAAAAAAAAAAAAA==
> <PUBCHEM_IUPAC_OPENEYE_NAME>
[(2R,3R,4R,5S)-5-[(1R)-2-amino-1-[[(2S,3S,4S)-3,4-dihydroxy-6-(phenylcarbamoyl)-3,4-dihydro-2H-pyran-2-yl]oxy]-2-oxo-ethyl]-2-(2,4-dioxopyrimidin-1-yl)-4-methoxy-tetrahydrofuran-3-yl] hexadecanoate
> <PUBCHEM_IUPAC_CAS_NAME>
hexadecanoic acid [(2R,3R,4R,5S)-5-[(1R)-2-amino-1-[[(2S,3S,4S)-6-[anilino(oxo)methyl]-3,4-dihydroxy-3,4-dihydro-2H-pyran-2-yl]oxy]-2-oxoethyl]-2-(2,4-dioxo-1-pyrimidinyl)-4-methoxy-3-oxolanyl] ester
> <PUBCHEM_IUPAC_NAME_MARKUP>
[(2<I>R</I>,3<I>R</I>,4<I>R</I>,5<I>S</I>)-5-[(1<I>R</I>)-2-amino-1-[[(2<I>S</I>,3<I>S</I>,4<I>S</I>)-3,4-dihydroxy-6-(phenylcarbamoyl)-3,4-dihydro-2<I>H</I>-pyran-2-yl]oxy]-2-oxoethyl]-2-(2,4-dioxopyrimidin-1-yl)-4-methoxyoxolan-3-yl] hexadecanoate
> <PUBCHEM_IUPAC_NAME>
[(2R,3R,4R,5S)-5-[(1R)-2-amino-1-[[(2S,3S,4S)-3,4-dihydroxy-6-(phenylcarbamoyl)-3,4-dihydro-2H-pyran-2-yl]oxy]-2-oxoethyl]-2-(2,4-dioxopyrimidin-1-yl)-4-methoxyoxolan-3-yl] hexadecanoate
> <PUBCHEM_IUPAC_SYSTEMATIC_NAME>
[(2R,3R,4R,5S)-5-[(1R)-2-azanyl-1-[[(2S,3S,4S)-3,4-bis(oxidanyl)-6-(phenylcarbamoyl)-3,4-dihydro-2H-pyran-2-yl]oxy]-2-oxidanylidene-ethyl]-2-[2,4-bis(oxidanylidene)pyrimidin-1-yl]-4-methoxy-oxolan-3-yl] hexadecanoate
> <PUBCHEM_IUPAC_TRADITIONAL_NAME>
palmitic acid [(2R,3R,4R,5S)-5-[(1R)-2-amino-1-[[(2S,3S,4S)-3,4-dihydroxy-6-(phenylcarbamoyl)-3,4-dihydro-2H-pyran-2-yl]oxy]-2-keto-ethyl]-2-(2,4-diketopyrimidin-1-yl)-4-methoxy-tetrahydrofuran-3-yl] ester
> <PUBCHEM_IUPAC_INCHI>
InChI=1S/C39H56N4O12/c1-3-4-5-6-7-8-9-10-11-12-13-14-18-21-29(46)53-34-31(51-2)32(54-37(34)43-23-22-28(45)42-39(43)50)33(35(40)48)55-38-30(47)26(44)24-27(52-38)36(49)41-25-19-16-15-17-20-25/h15-17,19-20,22-24,26,30-34,37-38,44,47H,3-14,18,21H2,1-2H3,(H2,40,48)(H,41,49)(H,42,45,50)/t26-,30-,31+,32-,33+,34+,37+,38+/m0/s1
> <PUBCHEM_IUPAC_INCHIKEY>
UUIMBJNZHVQUHQ-IYMBMXFASA-N
> <PUBCHEM_XLOGP3_AA>
5.2
> <PUBCHEM_EXACT_MASS>
772.38947323
> <PUBCHEM_MOLECULAR_FORMULA>
C39H56N4O12
> <PUBCHEM_MOLECULAR_WEIGHT>
772.9
> <PUBCHEM_OPENEYE_CAN_SMILES>
CCCCCCCCCCCCCCCC(=O)OC1C(C(OC1N2C=CC(=O)NC2=O)C(C(=O)N)OC3C(C(C=C(O3)C(=O)NC4=CC=CC=C4)O)O)OC
> <PUBCHEM_OPENEYE_ISO_SMILES>
CCCCCCCCCCCCCCCC(=O)O[C@@H]1[C@@H]([C@H](O[C@H]1N2C=CC(=O)NC2=O)[C@H](C(=O)N)O[C@@H]3[C@H]([C@H](C=C(O3)C(=O)NC4=CC=CC=C4)O)O)OC
> <PUBCHEM_CACTVS_TPSA>
225
> <PUBCHEM_MONOISOTOPIC_WEIGHT>
772.38947323
> <PUBCHEM_TOTAL_CHARGE>
0
> <PUBCHEM_HEAVY_ATOM_COUNT>
55
> <PUBCHEM_ATOM_DEF_STEREO_COUNT>
8
> <PUBCHEM_ATOM_UDEF_STEREO_COUNT>
0
> <PUBCHEM_BOND_DEF_STEREO_COUNT>
0
> <PUBCHEM_BOND_UDEF_STEREO_COUNT>
0
> <PUBCHEM_ISOTOPIC_ATOM_COUNT>
0
> <PUBCHEM_COMPONENT_COUNT>
1
> <PUBCHEM_CACTVS_TAUTO_COUNT>
-1
> <PUBCHEM_COORDINATE_TYPE>
1
5
255
> <PUBCHEM_BONDANNOTATIONS>
30  10  6
20  13  6
13  24  8
13  25  8
14  24  8
14  34  8
18  57  5
17  2  5
25  32  8
19  3  5
32  34  8
21  4  6
23  4  5
49  51  8
49  52  8
51  53  8
52  54  8
53  55  8
54  55  8
27  7  6
$$$$
