513151
  -OEChem-10302200282D
102109  0     1  0  0  0  0  0999 V2000
    4.5868   -4.6608    0.0000 O   0  0  0  0  0  0  0  0  0  0  0  0
   16.6466    0.6836    0.0000 O   0  0  0  0  0  0  0  0  0  0  0  0
    3.1020   -1.8580    0.0000 O   0  0  0  0  0  0  0  0  0  0  0  0
   16.9688    2.6482    0.0000 O   0  0  0  0  0  0  0  0  0  0  0  0
    8.1488   -2.8323    0.0000 O   0  0  0  0  0  0  0  0  0  0  0  0
   12.8994   -0.7270    0.0000 O   0  0  0  0  0  0  0  0  0  0  0  0
    9.5112    0.5060    0.0000 O   0  0  0  0  0  0  0  0  0  0  0  0
    4.4997   -2.8809    0.0000 N   0  0  0  0  0  0  0  0  0  0  0  0
   15.3865    1.9437    0.0000 N   0  0  0  0  0  0  0  0  0  0  0  0
    6.7493   -1.8118    0.0000 N   0  0  0  0  0  0  0  0  0  0  0  0
   13.0834    0.9952    0.0000 N   0  0  0  0  0  0  0  0  0  0  0  0
    9.3272   -1.2163    0.0000 N   0  0  0  0  0  0  0  0  0  0  0  0
   10.9107   -0.5145    0.0000 N   0  0  0  0  0  0  0  0  0  0  0  0
    5.9755   -3.5441    0.0000 C   0  0  0  0  0  0  0  0  0  0  0  0
   14.8865    0.4048    0.0000 C   0  0  0  0  0  0  0  0  0  0  0  0
    6.0835   -2.5500    0.0000 C   0  0  2  0  0  0  0  0  0  0  0  0
   14.0775    0.9926    0.0000 C   0  0  2  0  0  0  0  0  0  0  0  0
    5.1714   -2.1401    0.0000 C   0  0  2  0  0  0  0  0  0  0  0  0
   14.3865    1.9437    0.0000 C   0  0  2  0  0  0  0  0  0  0  0  0
    6.0244   -4.5429    0.0000 C   0  0  0  0  0  0  0  0  0  0  0  0
    6.9744   -3.4952    0.0000 C   0  0  0  0  0  0  0  0  0  0  0  0
   15.5936   -0.3023    0.0000 C   0  0  0  0  0  0  0  0  0  0  0  0
   14.1794   -0.3023    0.0000 C   0  0  0  0  0  0  0  0  0  0  0  0
    7.0232   -4.4940    0.0000 C   0  0  0  0  0  0  0  0  0  0  0  0
   14.8865   -1.0094    0.0000 C   0  0  0  0  0  0  0  0  0  0  0  0
    4.9967   -3.7486    0.0000 C   0  0  0  0  0  0  0  0  0  0  0  0
   15.6955    0.9926    0.0000 C   0  0  0  0  0  0  0  0  0  0  0  0
    5.2813   -1.1521    0.0000 C   0  0  0  0  0  0  0  0  0  0  0  0
   13.5808    2.5259    0.0000 C   0  0  0  0  0  0  0  0  0  0  0  0
    6.2545   -0.9496    0.0000 C   0  0  0  0  0  0  0  0  0  0  0  0
   12.7770    1.9409    0.0000 C   0  0  0  0  0  0  0  0  0  0  0  0
    3.5055   -2.7729    0.0000 C   0  0  0  0  0  0  0  0  0  0  0  0
   15.9743    2.7527    0.0000 C   0  0  0  0  0  0  0  0  0  0  0  0
    2.9150   -3.5799    0.0000 C   0  0  0  0  0  0  0  0  0  0  0  0
   15.5676    3.6662    0.0000 C   0  0  0  0  0  0  0  0  0  0  0  0
    7.7437   -1.9180    0.0000 C   0  0  0  0  0  0  0  0  0  0  0  0
   12.4942    0.1872    0.0000 C   0  0  0  0  0  0  0  0  0  0  0  0
    2.0000   -3.9835    0.0000 C   0  0  0  0  0  0  0  0  0  0  0  0
    2.8070   -4.5740    0.0000 C   0  0  0  0  0  0  0  0  0  0  0  0
   15.6721    4.6608    0.0000 C   0  0  0  0  0  0  0  0  0  0  0  0
   14.7585    4.2540    0.0000 C   0  0  0  0  0  0  0  0  0  0  0  0
    8.3328   -1.1100    0.0000 C   0  0  2  0  0  0  0  0  0  0  0  0
   11.4999    0.2935    0.0000 C   0  0  2  0  0  0  0  0  0  0  0  0
    7.9277   -0.1958    0.0000 C   0  0  0  0  0  0  0  0  0  0  0  0
   11.0947    1.2077    0.0000 C   0  0  0  0  0  0  0  0  0  0  0  0
    9.9164   -0.4083    0.0000 C   0  0  0  0  0  0  0  0  0  0  0  0
    6.9334   -0.0895    0.0000 C   0  0  0  0  0  0  0  0  0  0  0  0
    8.5169    0.6122    0.0000 C   0  0  0  0  0  0  0  0  0  0  0  0
   10.1004    1.3140    0.0000 C   0  0  0  0  0  0  0  0  0  0  0  0
   11.6839    2.0157    0.0000 C   0  0  0  0  0  0  0  0  0  0  0  0
    6.8593   -2.8974    0.0000 H   0  0  0  0  0  0  0  0  0  0  0  0
   13.8138    0.1846    0.0000 H   0  0  0  0  0  0  0  0  0  0  0  0
    4.3965   -1.7906    0.0000 H   0  0  0  0  0  0  0  0  0  0  0  0
   14.6481    2.7524    0.0000 H   0  0  0  0  0  0  0  0  0  0  0  0
    5.4052   -4.5732    0.0000 H   0  0  0  0  0  0  0  0  0  0  0  0
    6.0547   -5.1622    0.0000 H   0  0  0  0  0  0  0  0  0  0  0  0
    7.5936   -3.4649    0.0000 H   0  0  0  0  0  0  0  0  0  0  0  0
    6.9440   -2.8760    0.0000 H   0  0  0  0  0  0  0  0  0  0  0  0
   16.0320   -0.7407    0.0000 H   0  0  0  0  0  0  0  0  0  0  0  0
   16.0320    0.1361    0.0000 H   0  0  0  0  0  0  0  0  0  0  0  0
   13.7410    0.1361    0.0000 H   0  0  0  0  0  0  0  0  0  0  0  0
   13.7410   -0.7407    0.0000 H   0  0  0  0  0  0  0  0  0  0  0  0
    7.0535   -5.1133    0.0000 H   0  0  0  0  0  0  0  0  0  0  0  0
    7.6425   -4.4637    0.0000 H   0  0  0  0  0  0  0  0  0  0  0  0
   14.4481   -1.4478    0.0000 H   0  0  0  0  0  0  0  0  0  0  0  0
   15.3249   -1.4478    0.0000 H   0  0  0  0  0  0  0  0  0  0  0  0
    5.2195   -0.5352    0.0000 H   0  0  0  0  0  0  0  0  0  0  0  0
    4.6613   -1.1487    0.0000 H   0  0  0  0  0  0  0  0  0  0  0  0
   13.9947    2.9875    0.0000 H   0  0  0  0  0  0  0  0  0  0  0  0
   13.1652    2.9860    0.0000 H   0  0  0  0  0  0  0  0  0  0  0  0
    6.8217   -0.6992    0.0000 H   0  0  0  0  0  0  0  0  0  0  0  0
    6.0651   -0.3592    0.0000 H   0  0  0  0  0  0  0  0  0  0  0  0
   12.4669    2.4778    0.0000 H   0  0  0  0  0  0  0  0  0  0  0  0
   12.2106    1.6889    0.0000 H   0  0  0  0  0  0  0  0  0  0  0  0
    3.4930   -3.8041    0.0000 H   0  0  0  0  0  0  0  0  0  0  0  0
   16.1799    3.7632    0.0000 H   0  0  0  0  0  0  0  0  0  0  0  0
    1.6551   -3.4683    0.0000 H   0  0  0  0  0  0  0  0  0  0  0  0
    1.5525   -4.4126    0.0000 H   0  0  0  0  0  0  0  0  0  0  0  0
    2.5333   -5.1304    0.0000 H   0  0  0  0  0  0  0  0  0  0  0  0
    3.4024   -4.7470    0.0000 H   0  0  0  0  0  0  0  0  0  0  0  0
   16.2906    4.7040    0.0000 H   0  0  0  0  0  0  0  0  0  0  0  0
   15.5221    5.2624    0.0000 H   0  0  0  0  0  0  0  0  0  0  0  0
   14.4118    4.7680    0.0000 H   0  0  0  0  0  0  0  0  0  0  0  0
   14.3126    3.8233    0.0000 H   0  0  0  0  0  0  0  0  0  0  0  0
    8.5840   -1.6769    0.0000 H   0  0  0  0  0  0  0  0  0  0  0  0
   11.7511   -0.2734    0.0000 H   0  0  0  0  0  0  0  0  0  0  0  0
    8.5442   -0.2617    0.0000 H   0  0  0  0  0  0  0  0  0  0  0  0
   11.7112    1.1418    0.0000 H   0  0  0  0  0  0  0  0  0  0  0  0
    9.5784   -1.7831    0.0000 H   0  0  0  0  0  0  0  0  0  0  0  0
   11.1619   -1.0814    0.0000 H   0  0  0  0  0  0  0  0  0  0  0  0
    6.9992    0.5269    0.0000 H   0  0  0  0  0  0  0  0  0  0  0  0
    6.3169   -0.0237    0.0000 H   0  0  0  0  0  0  0  0  0  0  0  0
    6.8675   -0.7060    0.0000 H   0  0  0  0  0  0  0  0  0  0  0  0
    9.0178    0.2469    0.0000 H   0  0  0  0  0  0  0  0  0  0  0  0
    8.8822    1.1132    0.0000 H   0  0  0  0  0  0  0  0  0  0  0  0
    8.0159    0.9775    0.0000 H   0  0  0  0  0  0  0  0  0  0  0  0
   10.1663    1.9304    0.0000 H   0  0  0  0  0  0  0  0  0  0  0  0
    9.4839    1.3798    0.0000 H   0  0  0  0  0  0  0  0  0  0  0  0
   10.0345    0.6975    0.0000 H   0  0  0  0  0  0  0  0  0  0  0  0
   12.1849    1.6504    0.0000 H   0  0  0  0  0  0  0  0  0  0  0  0
   12.0492    2.5167    0.0000 H   0  0  0  0  0  0  0  0  0  0  0  0
   11.1830    2.3810    0.0000 H   0  0  0  0  0  0  0  0  0  0  0  0
  1 26  2  0  0  0  0
  2 27  2  0  0  0  0
  3 32  2  0  0  0  0
  4 33  2  0  0  0  0
  5 36  2  0  0  0  0
  6 37  2  0  0  0  0
  7 46  2  0  0  0  0
  8 18  1  0  0  0  0
  8 26  1  0  0  0  0
  8 32  1  0  0  0  0
  9 19  1  0  0  0  0
  9 27  1  0  0  0  0
  9 33  1  0  0  0  0
 10 16  1  0  0  0  0
 10 30  1  0  0  0  0
 10 36  1  0  0  0  0
 11 17  1  0  0  0  0
 11 31  1  0  0  0  0
 11 37  1  0  0  0  0
 42 12  1  6  0  0  0
 12 46  1  0  0  0  0
 12 89  1  0  0  0  0
 43 13  1  1  0  0  0
 13 46  1  0  0  0  0
 13 90  1  0  0  0  0
 14 16  1  0  0  0  0
 14 20  1  0  0  0  0
 14 21  1  0  0  0  0
 14 26  1  0  0  0  0
 15 17  1  0  0  0  0
 15 22  1  0  0  0  0
 15 23  1  0  0  0  0
 15 27  1  0  0  0  0
 16 18  1  0  0  0  0
 16 51  1  1  0  0  0
 17 19  1  0  0  0  0
 17 52  1  6  0  0  0
 18 28  1  0  0  0  0
 18 53  1  6  0  0  0
 19 29  1  0  0  0  0
 19 54  1  1  0  0  0
 20 24  1  0  0  0  0
 20 55  1  0  0  0  0
 20 56  1  0  0  0  0
 21 24  1  0  0  0  0
 21 57  1  0  0  0  0
 21 58  1  0  0  0  0
 22 25  1  0  0  0  0
 22 59  1  0  0  0  0
 22 60  1  0  0  0  0
 23 25  1  0  0  0  0
 23 61  1  0  0  0  0
 23 62  1  0  0  0  0
 24 63  1  0  0  0  0
 24 64  1  0  0  0  0
 25 65  1  0  0  0  0
 25 66  1  0  0  0  0
 28 30  1  0  0  0  0
 28 67  1  0  0  0  0
 28 68  1  0  0  0  0
 29 31  1  0  0  0  0
 29 69  1  0  0  0  0
 29 70  1  0  0  0  0
 30 71  1  0  0  0  0
 30 72  1  0  0  0  0
 31 73  1  0  0  0  0
 31 74  1  0  0  0  0
 32 34  1  0  0  0  0
 33 35  1  0  0  0  0
 34 38  1  0  0  0  0
 34 39  1  0  0  0  0
 34 75  1  0  0  0  0
 35 40  1  0  0  0  0
 35 41  1  0  0  0  0
 35 76  1  0  0  0  0
 36 42  1  0  0  0  0
 37 43  1  0  0  0  0
 38 39  1  0  0  0  0
 38 77  1  0  0  0  0
 38 78  1  0  0  0  0
 39 79  1  0  0  0  0
 39 80  1  0  0  0  0
 40 41  1  0  0  0  0
 40 81  1  0  0  0  0
 40 82  1  0  0  0  0
 41 83  1  0  0  0  0
 41 84  1  0  0  0  0
 42 44  1  0  0  0  0
 42 85  1  0  0  0  0
 43 45  1  0  0  0  0
 43 86  1  0  0  0  0
 44 47  1  0  0  0  0
 44 48  1  0  0  0  0
 44 87  1  0  0  0  0
 45 49  1  0  0  0  0
 45 50  1  0  0  0  0
 45 88  1  0  0  0  0
 47 91  1  0  0  0  0
 47 92  1  0  0  0  0
 47 93  1  0  0  0  0
 48 94  1  0  0  0  0
 48 95  1  0  0  0  0
 48 96  1  0  0  0  0
 49 97  1  0  0  0  0
 49 98  1  0  0  0  0
 49 99  1  0  0  0  0
 50100  1  0  0  0  0
 50101  1  0  0  0  0
 50102  1  0  0  0  0
M  END
> <PUBCHEM_COMPOUND_CID>
513151
> <PUBCHEM_COMPOUND_CANONICALIZED>
1
> <PUBCHEM_CACTVS_COMPLEXITY>
1420
> <PUBCHEM_CACTVS_HBOND_ACCEPTOR>
7
> <PUBCHEM_CACTVS_HBOND_DONOR>
2
> <PUBCHEM_CACTVS_ROTATABLE_BOND>
8
> <PUBCHEM_CACTVS_SUBSKEYS>
AAADcfB/uAAAAAAAAAAAAAAAGDBgwWLFiwAAAAAAAAAWLAAAAAAAHgAQAAAADyjBgAQDAAPAAAAIAAEQEAAAAAAAAAAAAIGIAACAQBoAwCAUAAAIFiKAAAEciIAPAAAAAAAAAAAAAAAAAAAAAAAAAAAAAA==
> <PUBCHEM_IUPAC_OPENEYE_NAME>
1,3-bis[(1S)-1-[(3aS,6aR)-4-(cyclopropanecarbonyl)-5-oxo-spiro[2,3,3a,6a-tetrahydropyrrolo[3,2-b]pyrrole-6,1'-cyclobutane]-1-carbonyl]-2-methyl-propyl]urea
> <PUBCHEM_IUPAC_CAS_NAME>
1,3-bis[(2S)-1-[(3aS,6aR)-4-[cyclopropyl(oxo)methyl]-5-oxo-1-spiro[2,3,3a,6a-tetrahydropyrrolo[3,2-b]pyrrole-6,1'-cyclobutane]yl]-3-methyl-1-oxobutan-2-yl]urea
> <PUBCHEM_IUPAC_NAME_MARKUP>
1,3-bis[(2<I>S</I>)-1-[(3<I>a</I><I>S</I>,6<I>a</I><I>R</I>)-4-(cyclopropanecarbonyl)-5-oxospiro[2,3,3<I>a</I>,6<I>a</I>-tetrahydropyrrolo[3,2-b]pyrrole-6,1&apos;-cyclobutane]-1-yl]-3-methyl-1-oxobutan-2-yl]urea
> <PUBCHEM_IUPAC_NAME>
1,3-bis[(2S)-1-[(3aS,6aR)-4-(cyclopropanecarbonyl)-5-oxospiro[2,3,3a,6a-tetrahydropyrrolo[3,2-b]pyrrole-6,1'-cyclobutane]-1-yl]-3-methyl-1-oxobutan-2-yl]urea
> <PUBCHEM_IUPAC_SYSTEMATIC_NAME>
1,3-bis[(2S)-1-[(3aS,6aR)-4-cyclopropylcarbonyl-5-oxidanylidene-spiro[2,3,3a,6a-tetrahydropyrrolo[3,2-b]pyrrole-6,1'-cyclobutane]-1-yl]-3-methyl-1-oxidanylidene-butan-2-yl]urea
> <PUBCHEM_IUPAC_TRADITIONAL_NAME>
1,3-bis[(1S)-1-[(3aS,6aR)-4-(cyclopropanecarbonyl)-5-keto-spiro[2,3,3a,6a-tetrahydropyrrolo[3,2-b]pyrrole-6,1'-cyclobutane]-1-carbonyl]-2-methyl-propyl]urea
> <PUBCHEM_IUPAC_INCHI>
InChI=1S/C37H52N6O7/c1-19(2)25(31(46)40-17-11-23-27(40)36(13-5-14-36)33(48)42(23)29(44)21-7-8-21)38-35(50)39-26(20(3)4)32(47)41-18-12-24-28(41)37(15-6-16-37)34(49)43(24)30(45)22-9-10-22/h19-28H,5-18H2,1-4H3,(H2,38,39,50)/t23-,24-,25-,26-,27-,28-/m0/s1
> <PUBCHEM_IUPAC_INCHIKEY>
VDNKUZKOGFXGNK-QUQVWLGBSA-N
> <PUBCHEM_XLOGP3_AA>
2.3
> <PUBCHEM_EXACT_MASS>
692.38974802
> <PUBCHEM_MOLECULAR_FORMULA>
C37H52N6O7
> <PUBCHEM_MOLECULAR_WEIGHT>
692.8
> <PUBCHEM_OPENEYE_CAN_SMILES>
CC(C)C(C(=O)N1CCC2C1C3(CCC3)C(=O)N2C(=O)C4CC4)NC(=O)NC(C(C)C)C(=O)N5CCC6C5C7(CCC7)C(=O)N6C(=O)C8CC8
> <PUBCHEM_OPENEYE_ISO_SMILES>
CC(C)[C@@H](C(=O)N1CC[C@H]2[C@H]1C3(CCC3)C(=O)N2C(=O)C4CC4)NC(=O)N[C@@H](C(C)C)C(=O)N5CC[C@H]6[C@H]5C7(CCC7)C(=O)N6C(=O)C8CC8
> <PUBCHEM_CACTVS_TPSA>
157
> <PUBCHEM_MONOISOTOPIC_WEIGHT>
692.38974802
> <PUBCHEM_TOTAL_CHARGE>
0
> <PUBCHEM_HEAVY_ATOM_COUNT>
50
> <PUBCHEM_ATOM_DEF_STEREO_COUNT>
6
> <PUBCHEM_ATOM_UDEF_STEREO_COUNT>
0
> <PUBCHEM_BOND_DEF_STEREO_COUNT>
0
> <PUBCHEM_BOND_UDEF_STEREO_COUNT>
0
> <PUBCHEM_ISOTOPIC_ATOM_COUNT>
0
> <PUBCHEM_COMPONENT_COUNT>
1
> <PUBCHEM_CACTVS_TAUTO_COUNT>
-1
> <PUBCHEM_COORDINATE_TYPE>
1
5
255
> <PUBCHEM_BONDANNOTATIONS>
42  12  6
43  13  5
16  51  5
17  52  6
18  53  6
19  54  5
$$$$
