513166
  -OEChem-10302200282D
 61 64  0     1  0  0  0  0  0999 V2000
    3.6160   -3.4746    0.0000 F   0  0  0  0  0  0  0  0  0  0  0  0
    2.2188   -3.6934    0.0000 F   0  0  0  0  0  0  0  0  0  0  0  0
    2.0000   -2.2962    0.0000 F   0  0  0  0  0  0  0  0  0  0  0  0
   11.7109   -0.2838    0.0000 O   0  0  0  0  0  0  0  0  0  0  0  0
   12.0332    1.6808    0.0000 O   0  0  0  0  0  0  0  0  0  0  0  0
    7.9637   -1.6944    0.0000 O   0  0  0  0  0  0  0  0  0  0  0  0
    4.5756   -0.4614    0.0000 O   0  0  0  0  0  0  0  0  0  0  0  0
   10.4508    0.9763    0.0000 N   0  0  0  0  0  0  0  0  0  0  0  0
    8.1478    0.0278    0.0000 N   0  0  0  0  0  0  0  0  0  0  0  0
    5.9751   -1.4819    0.0000 N   0  0  0  0  0  0  0  0  0  0  0  0
    4.3915   -2.1837    0.0000 N   0  0  0  0  0  0  0  0  0  0  0  0
    9.9509   -0.5625    0.0000 C   0  0  0  0  0  0  0  0  0  0  0  0
    9.1418    0.0253    0.0000 C   0  0  2  0  0  0  0  0  0  0  0  0
    9.4509    0.9763    0.0000 C   0  0  2  0  0  0  0  0  0  0  0  0
   10.6580   -1.2696    0.0000 C   0  0  0  0  0  0  0  0  0  0  0  0
    9.2437   -1.2696    0.0000 C   0  0  0  0  0  0  0  0  0  0  0  0
    9.9509   -1.9767    0.0000 C   0  0  0  0  0  0  0  0  0  0  0  0
   10.7599    0.0253    0.0000 C   0  0  0  0  0  0  0  0  0  0  0  0
    8.6451    1.5585    0.0000 C   0  0  0  0  0  0  0  0  0  0  0  0
    7.8414    0.9735    0.0000 C   0  0  0  0  0  0  0  0  0  0  0  0
   11.0386    1.7853    0.0000 C   0  0  0  0  0  0  0  0  0  0  0  0
   10.6319    2.6989    0.0000 C   0  0  0  0  0  0  0  0  0  0  0  0
    7.5586   -0.7802    0.0000 C   0  0  0  0  0  0  0  0  0  0  0  0
   10.7364    3.6934    0.0000 C   0  0  0  0  0  0  0  0  0  0  0  0
    9.8229    3.2867    0.0000 C   0  0  0  0  0  0  0  0  0  0  0  0
    6.5642   -0.6739    0.0000 C   0  0  2  0  0  0  0  0  0  0  0  0
    6.1591    0.2403    0.0000 C   0  0  0  0  0  0  0  0  0  0  0  0
    5.1647    0.3466    0.0000 C   0  0  0  0  0  0  0  0  0  0  0  0
    6.7483    1.0483    0.0000 C   0  0  0  0  0  0  0  0  0  0  0  0
    4.9807   -1.3757    0.0000 C   0  0  0  0  0  0  0  0  0  0  0  0
    3.3972   -2.0774    0.0000 C   0  0  0  0  0  0  0  0  0  0  0  0
    2.8080   -2.8854    0.0000 C   0  0  0  0  0  0  0  0  0  0  0  0
    8.8781   -0.7828    0.0000 H   0  0  0  0  0  0  0  0  0  0  0  0
    9.7125    1.7851    0.0000 H   0  0  0  0  0  0  0  0  0  0  0  0
   11.0964   -1.7080    0.0000 H   0  0  0  0  0  0  0  0  0  0  0  0
   11.0964   -0.8312    0.0000 H   0  0  0  0  0  0  0  0  0  0  0  0
    8.8053   -0.8312    0.0000 H   0  0  0  0  0  0  0  0  0  0  0  0
    8.8053   -1.7080    0.0000 H   0  0  0  0  0  0  0  0  0  0  0  0
    9.5124   -2.4151    0.0000 H   0  0  0  0  0  0  0  0  0  0  0  0
   10.3893   -2.4151    0.0000 H   0  0  0  0  0  0  0  0  0  0  0  0
    9.0590    2.0201    0.0000 H   0  0  0  0  0  0  0  0  0  0  0  0
    8.2296    2.0187    0.0000 H   0  0  0  0  0  0  0  0  0  0  0  0
    7.5312    1.5104    0.0000 H   0  0  0  0  0  0  0  0  0  0  0  0
    7.2749    0.7215    0.0000 H   0  0  0  0  0  0  0  0  0  0  0  0
   11.2443    2.7959    0.0000 H   0  0  0  0  0  0  0  0  0  0  0  0
   11.3549    3.7366    0.0000 H   0  0  0  0  0  0  0  0  0  0  0  0
   10.5864    4.2950    0.0000 H   0  0  0  0  0  0  0  0  0  0  0  0
    9.4762    3.8007    0.0000 H   0  0  0  0  0  0  0  0  0  0  0  0
    9.3769    2.8560    0.0000 H   0  0  0  0  0  0  0  0  0  0  0  0
    6.8154   -1.2407    0.0000 H   0  0  0  0  0  0  0  0  0  0  0  0
    6.7756    0.1745    0.0000 H   0  0  0  0  0  0  0  0  0  0  0  0
    6.2262   -2.0487    0.0000 H   0  0  0  0  0  0  0  0  0  0  0  0
    5.2306    0.9631    0.0000 H   0  0  0  0  0  0  0  0  0  0  0  0
    4.5482    0.4125    0.0000 H   0  0  0  0  0  0  0  0  0  0  0  0
    5.0989   -0.2699    0.0000 H   0  0  0  0  0  0  0  0  0  0  0  0
    7.2492    0.6830    0.0000 H   0  0  0  0  0  0  0  0  0  0  0  0
    7.1136    1.5493    0.0000 H   0  0  0  0  0  0  0  0  0  0  0  0
    6.2473    1.4136    0.0000 H   0  0  0  0  0  0  0  0  0  0  0  0
    4.6427   -2.7505    0.0000 H   0  0  0  0  0  0  0  0  0  0  0  0
    3.5691   -1.4817    0.0000 H   0  0  0  0  0  0  0  0  0  0  0  0
    2.8404   -1.8046    0.0000 H   0  0  0  0  0  0  0  0  0  0  0  0
  1 32  1  0  0  0  0
  2 32  1  0  0  0  0
  3 32  1  0  0  0  0
  4 18  2  0  0  0  0
  5 21  2  0  0  0  0
  6 23  2  0  0  0  0
  7 30  2  0  0  0  0
  8 14  1  0  0  0  0
  8 18  1  0  0  0  0
  8 21  1  0  0  0  0
  9 13  1  0  0  0  0
  9 20  1  0  0  0  0
  9 23  1  0  0  0  0
 26 10  1  1  0  0  0
 10 30  1  0  0  0  0
 10 52  1  0  0  0  0
 11 30  1  0  0  0  0
 11 31  1  0  0  0  0
 11 59  1  0  0  0  0
 12 13  1  0  0  0  0
 12 15  1  0  0  0  0
 12 16  1  0  0  0  0
 12 18  1  0  0  0  0
 13 14  1  0  0  0  0
 13 33  1  6  0  0  0
 14 19  1  0  0  0  0
 14 34  1  1  0  0  0
 15 17  1  0  0  0  0
 15 35  1  0  0  0  0
 15 36  1  0  0  0  0
 16 17  1  0  0  0  0
 16 37  1  0  0  0  0
 16 38  1  0  0  0  0
 17 39  1  0  0  0  0
 17 40  1  0  0  0  0
 19 20  1  0  0  0  0
 19 41  1  0  0  0  0
 19 42  1  0  0  0  0
 20 43  1  0  0  0  0
 20 44  1  0  0  0  0
 21 22  1  0  0  0  0
 22 24  1  0  0  0  0
 22 25  1  0  0  0  0
 22 45  1  0  0  0  0
 23 26  1  0  0  0  0
 24 25  1  0  0  0  0
 24 46  1  0  0  0  0
 24 47  1  0  0  0  0
 25 48  1  0  0  0  0
 25 49  1  0  0  0  0
 26 27  1  0  0  0  0
 26 50  1  0  0  0  0
 27 28  1  0  0  0  0
 27 29  1  0  0  0  0
 27 51  1  0  0  0  0
 28 53  1  0  0  0  0
 28 54  1  0  0  0  0
 28 55  1  0  0  0  0
 29 56  1  0  0  0  0
 29 57  1  0  0  0  0
 29 58  1  0  0  0  0
 31 32  1  0  0  0  0
 31 60  1  0  0  0  0
 31 61  1  0  0  0  0
M  END
> <PUBCHEM_COMPOUND_CID>
513166
> <PUBCHEM_COMPOUND_CANONICALIZED>
1
> <PUBCHEM_CACTVS_COMPLEXITY>
822
> <PUBCHEM_CACTVS_HBOND_ACCEPTOR>
7
> <PUBCHEM_CACTVS_HBOND_DONOR>
2
> <PUBCHEM_CACTVS_ROTATABLE_BOND>
5
> <PUBCHEM_CACTVS_SUBSKEYS>
AAADceB7uYAAAAAAAAAAAAAAGABgAWLAAAAAAAAAAAAWAAAAAAAAHwAQAAAADyjBgBQDAAPAAAAIAAEQEAAAAAAAAAAAAIGIAACAQBoAwCAUAAAIFiKAAAEciIAPAAAAAAAAAAAAAAAAAAAAAAAAAAAAAA==
> <PUBCHEM_IUPAC_OPENEYE_NAME>
1-[(1S)-1-[(3aS,6aR)-4-(cyclopropanecarbonyl)-5-oxo-spiro[2,3,3a,6a-tetrahydropyrrolo[3,2-b]pyrrole-6,1'-cyclobutane]-1-carbonyl]-2-methyl-propyl]-3-(2,2,2-trifluoroethyl)urea
> <PUBCHEM_IUPAC_CAS_NAME>
1-[(2S)-1-[(3aS,6aR)-4-[cyclopropyl(oxo)methyl]-5-oxo-1-spiro[2,3,3a,6a-tetrahydropyrrolo[3,2-b]pyrrole-6,1'-cyclobutane]yl]-3-methyl-1-oxobutan-2-yl]-3-(2,2,2-trifluoroethyl)urea
> <PUBCHEM_IUPAC_NAME_MARKUP>
1-[(2<I>S</I>)-1-[(3<I>a</I><I>S</I>,6<I>a</I><I>R</I>)-4-(cyclopropanecarbonyl)-5-oxospiro[2,3,3<I>a</I>,6<I>a</I>-tetrahydropyrrolo[3,2-b]pyrrole-6,1&apos;-cyclobutane]-1-yl]-3-methyl-1-oxobutan-2-yl]-3-(2,2,2-trifluoroethyl)urea
> <PUBCHEM_IUPAC_NAME>
1-[(2S)-1-[(3aS,6aR)-4-(cyclopropanecarbonyl)-5-oxospiro[2,3,3a,6a-tetrahydropyrrolo[3,2-b]pyrrole-6,1'-cyclobutane]-1-yl]-3-methyl-1-oxobutan-2-yl]-3-(2,2,2-trifluoroethyl)urea
> <PUBCHEM_IUPAC_SYSTEMATIC_NAME>
1-[(2S)-1-[(3aS,6aR)-4-cyclopropylcarbonyl-5-oxidanylidene-spiro[2,3,3a,6a-tetrahydropyrrolo[3,2-b]pyrrole-6,1'-cyclobutane]-1-yl]-3-methyl-1-oxidanylidene-butan-2-yl]-3-[2,2,2-tris(fluoranyl)ethyl]urea
> <PUBCHEM_IUPAC_TRADITIONAL_NAME>
1-[(1S)-1-[(3aS,6aR)-4-(cyclopropanecarbonyl)-5-keto-spiro[2,3,3a,6a-tetrahydropyrrolo[3,2-b]pyrrole-6,1'-cyclobutane]-1-carbonyl]-2-methyl-propyl]-3-(2,2,2-trifluoroethyl)urea
> <PUBCHEM_IUPAC_INCHI>
InChI=1S/C21H29F3N4O4/c1-11(2)14(26-19(32)25-10-21(22,23)24)17(30)27-9-6-13-15(27)20(7-3-8-20)18(31)28(13)16(29)12-4-5-12/h11-15H,3-10H2,1-2H3,(H2,25,26,32)/t13-,14-,15-/m0/s1
> <PUBCHEM_IUPAC_INCHIKEY>
RQALNCBSYKMIBR-KKUMJFAQSA-N
> <PUBCHEM_XLOGP3_AA>
2
> <PUBCHEM_EXACT_MASS>
458.21408991
> <PUBCHEM_MOLECULAR_FORMULA>
C21H29F3N4O4
> <PUBCHEM_MOLECULAR_WEIGHT>
458.5
> <PUBCHEM_OPENEYE_CAN_SMILES>
CC(C)C(C(=O)N1CCC2C1C3(CCC3)C(=O)N2C(=O)C4CC4)NC(=O)NCC(F)(F)F
> <PUBCHEM_OPENEYE_ISO_SMILES>
CC(C)[C@@H](C(=O)N1CC[C@H]2[C@H]1C3(CCC3)C(=O)N2C(=O)C4CC4)NC(=O)NCC(F)(F)F
> <PUBCHEM_CACTVS_TPSA>
98.8
> <PUBCHEM_MONOISOTOPIC_WEIGHT>
458.21408991
> <PUBCHEM_TOTAL_CHARGE>
0
> <PUBCHEM_HEAVY_ATOM_COUNT>
32
> <PUBCHEM_ATOM_DEF_STEREO_COUNT>
3
> <PUBCHEM_ATOM_UDEF_STEREO_COUNT>
0
> <PUBCHEM_BOND_DEF_STEREO_COUNT>
0
> <PUBCHEM_BOND_UDEF_STEREO_COUNT>
0
> <PUBCHEM_ISOTOPIC_ATOM_COUNT>
0
> <PUBCHEM_COMPONENT_COUNT>
1
> <PUBCHEM_CACTVS_TAUTO_COUNT>
-1
> <PUBCHEM_COORDINATE_TYPE>
1
5
255
> <PUBCHEM_BONDANNOTATIONS>
26  10  5
13  33  6
14  34  5
$$$$
