513187
  -OEChem-10302200282D
 95 98  0     1  0  0  0  0  0999 V2000
   10.4098    1.7244    0.0000 O   0  0  0  0  0  0  0  0  0  0  0  0
    8.0785    2.8472    0.0000 O   0  0  0  0  0  0  0  0  0  0  0  0
    8.0460    0.6719    0.0000 O   0  0  0  0  0  0  0  0  0  0  0  0
    9.4246   -0.7643    0.0000 O   0  0  0  0  0  0  0  0  0  0  0  0
   10.6943   -1.9424    0.0000 O   0  0  0  0  0  0  0  0  0  0  0  0
   11.3745   -1.2094    0.0000 O   0  0  0  0  0  0  0  0  0  0  0  0
    8.0642   -2.2304    0.0000 O   0  0  0  0  0  0  0  0  0  0  0  0
   11.7965    2.9286    0.0000 O   0  0  0  0  0  0  0  0  0  0  0  0
    8.6538   -4.1416    0.0000 O   0  0  0  0  0  0  0  0  0  0  0  0
   11.1271    6.3274    0.0000 O   0  0  0  0  0  0  0  0  0  0  0  0
   12.6441   -2.3875    0.0000 O   0  0  0  0  0  0  0  0  0  0  0  0
   12.6743   -5.8970    0.0000 O   0  0  0  0  0  0  0  0  0  0  0  0
   10.1574    3.4885    0.0000 N   0  0  0  0  0  0  0  0  0  0  0  0
   11.4618    4.6280    0.0000 N   0  0  0  0  0  0  0  0  0  0  0  0
   11.7599    0.4792    0.0000 N   0  0  0  0  0  0  0  0  0  0  0  0
   12.2587   -4.0761    0.0000 N   0  0  0  0  0  0  0  0  0  0  0  0
   14.3571   -5.7074    0.0000 N   0  0  0  0  0  0  0  0  0  0  0  0
    8.8637    1.2475    0.0000 C   0  0  2  0  0  0  0  0  0  0  0  0
    9.8100    0.9243    0.0000 C   0  0  1  0  0  0  0  0  0  0  0  0
    8.8786    2.2474    0.0000 C   0  0  2  0  0  0  0  0  0  0  0  0
    9.8342    2.5421    0.0000 C   0  0  1  0  0  0  0  0  0  0  0  0
   10.1048   -0.0313    0.0000 C   0  0  2  0  0  0  0  0  0  0  0  0
    7.1590    2.4542    0.0000 C   0  0  0  0  0  0  0  0  0  0  0  0
   11.0797   -0.2538    0.0000 C   0  0  0  0  0  0  0  0  0  0  0  0
    9.7194   -1.7199    0.0000 C   0  0  1  0  0  0  0  0  0  0  0  0
   11.1386    3.6817    0.0000 C   0  0  0  0  0  0  0  0  0  0  0  0
    9.4995    4.2415    0.0000 C   0  0  0  0  0  0  0  0  0  0  0  0
    9.0392   -2.4530    0.0000 C   0  0  2  0  0  0  0  0  0  0  0  0
    6.3588    3.0540    0.0000 C   0  0  0  0  0  0  0  0  0  0  0  0
    7.1386    1.0922    0.0000 C   0  0  0  0  0  0  0  0  0  0  0  0
    9.3339   -3.4085    0.0000 C   0  0  2  0  0  0  0  0  0  0  0  0
    5.4393    2.6610    0.0000 C   0  0  0  0  0  0  0  0  0  0  0  0
    9.8227    5.1879    0.0000 C   0  0  0  0  0  0  0  0  0  0  0  0
   10.9890   -2.8980    0.0000 C   0  0  0  0  0  0  0  0  0  0  0  0
   13.2336   -4.2986    0.0000 C   0  0  1  0  0  0  0  0  0  0  0  0
   10.3089   -3.6311    0.0000 C   0  0  0  0  0  0  0  0  0  0  0  0
   13.8571   -3.5168    0.0000 C   0  0  0  0  0  0  0  0  0  0  0  0
   14.8571   -3.5168    0.0000 C   0  0  0  0  0  0  0  0  0  0  0  0
    4.6392    3.2608    0.0000 C   0  0  0  0  0  0  0  0  0  0  0  0
   15.4806   -4.2986    0.0000 C   0  0  0  0  0  0  0  0  0  0  0  0
   15.2581   -5.2736    0.0000 C   0  0  2  0  0  0  0  0  0  0  0  0
   10.8038    5.3811    0.0000 C   0  0  0  0  0  0  0  0  0  0  0  0
   11.9640   -3.1205    0.0000 C   0  0  0  0  0  0  0  0  0  0  0  0
   13.4562   -5.2736    0.0000 C   0  0  0  0  0  0  0  0  0  0  0  0
    3.7197    2.8678    0.0000 C   0  0  0  0  0  0  0  0  0  0  0  0
   16.0399   -5.8970    0.0000 C   0  0  0  0  0  0  0  0  0  0  0  0
    2.9195    3.4676    0.0000 C   0  0  0  0  0  0  0  0  0  0  0  0
    2.0000    3.0746    0.0000 C   0  0  0  0  0  0  0  0  0  0  0  0
    8.9515    0.6337    0.0000 H   0  0  0  0  0  0  0  0  0  0  0  0
   10.6475    0.7788    0.0000 H   0  0  0  0  0  0  0  0  0  0  0  0
    8.3221    1.9742    0.0000 H   0  0  0  0  0  0  0  0  0  0  0  0
   10.4480    2.6300    0.0000 H   0  0  0  0  0  0  0  0  0  0  0  0
   10.2875   -0.6238    0.0000 H   0  0  0  0  0  0  0  0  0  0  0  0
    6.7066    2.0302    0.0000 H   0  0  0  0  0  0  0  0  0  0  0  0
    7.4980    1.9350    0.0000 H   0  0  0  0  0  0  0  0  0  0  0  0
    9.1149   -1.5820    0.0000 H   0  0  0  0  0  0  0  0  0  0  0  0
    8.8564   -1.8605    0.0000 H   0  0  0  0  0  0  0  0  0  0  0  0
    8.8912    4.1217    0.0000 H   0  0  0  0  0  0  0  0  0  0  0  0
    6.8112    3.4780    0.0000 H   0  0  0  0  0  0  0  0  0  0  0  0
    6.0199    3.5731    0.0000 H   0  0  0  0  0  0  0  0  0  0  0  0
    7.3992    1.6548    0.0000 H   0  0  0  0  0  0  0  0  0  0  0  0
    6.5760    1.3529    0.0000 H   0  0  0  0  0  0  0  0  0  0  0  0
    6.8780    0.5297    0.0000 H   0  0  0  0  0  0  0  0  0  0  0  0
    8.7295   -3.2706    0.0000 H   0  0  0  0  0  0  0  0  0  0  0  0
    4.9869    2.2370    0.0000 H   0  0  0  0  0  0  0  0  0  0  0  0
    5.7783    2.1418    0.0000 H   0  0  0  0  0  0  0  0  0  0  0  0
   12.0701    4.7479    0.0000 H   0  0  0  0  0  0  0  0  0  0  0  0
    9.4148    5.6548    0.0000 H   0  0  0  0  0  0  0  0  0  0  0  0
   12.7952   -4.7370    0.0000 H   0  0  0  0  0  0  0  0  0  0  0  0
   12.3643    0.3413    0.0000 H   0  0  0  0  0  0  0  0  0  0  0  0
   11.5771    1.0717    0.0000 H   0  0  0  0  0  0  0  0  0  0  0  0
   13.9951   -2.9123    0.0000 H   0  0  0  0  0  0  0  0  0  0  0  0
   13.2985   -3.2478    0.0000 H   0  0  0  0  0  0  0  0  0  0  0  0
   10.4916   -4.2235    0.0000 H   0  0  0  0  0  0  0  0  0  0  0  0
   15.4157   -3.2478    0.0000 H   0  0  0  0  0  0  0  0  0  0  0  0
   14.7192   -2.9123    0.0000 H   0  0  0  0  0  0  0  0  0  0  0  0
   16.0392   -4.5676    0.0000 H   0  0  0  0  0  0  0  0  0  0  0  0
   15.8672   -3.8139    0.0000 H   0  0  0  0  0  0  0  0  0  0  0  0
    5.0916    3.6848    0.0000 H   0  0  0  0  0  0  0  0  0  0  0  0
    4.3002    3.7799    0.0000 H   0  0  0  0  0  0  0  0  0  0  0  0
   15.1887   -5.8897    0.0000 H   0  0  0  0  0  0  0  0  0  0  0  0
   11.8370   -4.5306    0.0000 H   0  0  0  0  0  0  0  0  0  0  0  0
    7.6425   -2.6849    0.0000 H   0  0  0  0  0  0  0  0  0  0  0  0
   14.3571   -6.3274    0.0000 H   0  0  0  0  0  0  0  0  0  0  0  0
    3.2673    2.4438    0.0000 H   0  0  0  0  0  0  0  0  0  0  0  0
    4.0586    2.3486    0.0000 H   0  0  0  0  0  0  0  0  0  0  0  0
   15.6534   -6.3818    0.0000 H   0  0  0  0  0  0  0  0  0  0  0  0
   16.5247   -6.2836    0.0000 H   0  0  0  0  0  0  0  0  0  0  0  0
   16.4265   -5.4123    0.0000 H   0  0  0  0  0  0  0  0  0  0  0  0
    8.8365   -4.7340    0.0000 H   0  0  0  0  0  0  0  0  0  0  0  0
    3.3719    3.8916    0.0000 H   0  0  0  0  0  0  0  0  0  0  0  0
    2.5806    3.9867    0.0000 H   0  0  0  0  0  0  0  0  0  0  0  0
    1.7563    3.6447    0.0000 H   0  0  0  0  0  0  0  0  0  0  0  0
    1.4299    2.8309    0.0000 H   0  0  0  0  0  0  0  0  0  0  0  0
    2.2437    2.5045    0.0000 H   0  0  0  0  0  0  0  0  0  0  0  0
  1 19  1  0  0  0  0
  1 21  1  0  0  0  0
 20  2  1  1  0  0  0
  2 23  1  0  0  0  0
 18  3  1  1  0  0  0
  3 30  1  0  0  0  0
 22  4  1  6  0  0  0
 25  4  1  1  0  0  0
  5 25  1  0  0  0  0
  5 34  1  0  0  0  0
  6 24  2  0  0  0  0
 28  7  1  6  0  0  0
  7 83  1  0  0  0  0
  8 26  2  0  0  0  0
 31  9  1  6  0  0  0
  9 90  1  0  0  0  0
 10 42  2  0  0  0  0
 11 43  2  0  0  0  0
 12 44  2  0  0  0  0
 21 13  1  6  0  0  0
 13 26  1  0  0  0  0
 13 27  1  0  0  0  0
 14 26  1  0  0  0  0
 14 42  1  0  0  0  0
 14 67  1  0  0  0  0
 15 24  1  0  0  0  0
 15 70  1  0  0  0  0
 15 71  1  0  0  0  0
 35 16  1  1  0  0  0
 16 43  1  0  0  0  0
 16 82  1  0  0  0  0
 17 41  1  0  0  0  0
 17 44  1  0  0  0  0
 17 84  1  0  0  0  0
 18 19  1  0  0  0  0
 18 20  1  0  0  0  0
 18 49  1  0  0  0  0
 19 22  1  0  0  0  0
 19 50  1  1  0  0  0
 20 21  1  0  0  0  0
 20 51  1  0  0  0  0
 21 52  1  0  0  0  0
 22 24  1  0  0  0  0
 22 53  1  0  0  0  0
 23 29  1  0  0  0  0
 23 54  1  0  0  0  0
 23 55  1  0  0  0  0
 25 28  1  0  0  0  0
 25 56  1  0  0  0  0
 27 33  2  0  0  0  0
 27 58  1  0  0  0  0
 28 31  1  0  0  0  0
 28 57  1  0  0  0  0
 29 32  1  0  0  0  0
 29 59  1  0  0  0  0
 29 60  1  0  0  0  0
 30 61  1  0  0  0  0
 30 62  1  0  0  0  0
 30 63  1  0  0  0  0
 31 36  1  0  0  0  0
 31 64  1  0  0  0  0
 32 39  1  0  0  0  0
 32 65  1  0  0  0  0
 32 66  1  0  0  0  0
 33 42  1  0  0  0  0
 33 68  1  0  0  0  0
 34 36  2  0  0  0  0
 34 43  1  0  0  0  0
 35 37  1  0  0  0  0
 35 44  1  0  0  0  0
 35 69  1  0  0  0  0
 36 74  1  0  0  0  0
 37 38  1  0  0  0  0
 37 72  1  0  0  0  0
 37 73  1  0  0  0  0
 38 40  1  0  0  0  0
 38 75  1  0  0  0  0
 38 76  1  0  0  0  0
 39 45  1  0  0  0  0
 39 79  1  0  0  0  0
 39 80  1  0  0  0  0
 40 41  1  0  0  0  0
 40 77  1  0  0  0  0
 40 78  1  0  0  0  0
 41 46  1  6  0  0  0
 41 81  1  0  0  0  0
 45 47  1  0  0  0  0
 45 85  1  0  0  0  0
 45 86  1  0  0  0  0
 46 87  1  0  0  0  0
 46 88  1  0  0  0  0
 46 89  1  0  0  0  0
 47 48  1  0  0  0  0
 47 91  1  0  0  0  0
 47 92  1  0  0  0  0
 48 93  1  0  0  0  0
 48 94  1  0  0  0  0
 48 95  1  0  0  0  0
M  END
> <PUBCHEM_COMPOUND_CID>
513187
> <PUBCHEM_COMPOUND_CANONICALIZED>
1
> <PUBCHEM_CACTVS_COMPLEXITY>
1250
> <PUBCHEM_CACTVS_HBOND_ACCEPTOR>
12
> <PUBCHEM_CACTVS_HBOND_DONOR>
6
> <PUBCHEM_CACTVS_ROTATABLE_BOND>
15
> <PUBCHEM_CACTVS_SUBSKEYS>
AAADcfB7vAAAAAAAAAAAAAAAAAAAASAAAAAgQAAABYAAAAAAAAAAHgAQCAAACDzxgAcDCAPABgCIACFWUAKACAAgIgAICIHIAEiTVBYAgCQ/UAAP9yKfEcP6/C7AAAAAAAAAAAAAAAAAAAAAAAAAAAAAAA==
> <PUBCHEM_IUPAC_OPENEYE_NAME>
(2S,3S,4S)-2-[(1R)-2-amino-1-[(2S,3R,4R,5R)-5-(2,4-dioxopyrimidin-1-yl)-4-heptoxy-3-methoxy-tetrahydrofuran-2-yl]-2-oxo-ethoxy]-3,4-dihydroxy-N-[(3S,7S)-7-methyl-2-oxo-azepan-3-yl]-3,4-dihydro-2H-pyran-6-carboxamide
> <PUBCHEM_IUPAC_CAS_NAME>
(2S,3S,4S)-2-[(1R)-2-amino-1-[(2S,3R,4R,5R)-5-(2,4-dioxo-1-pyrimidinyl)-4-heptoxy-3-methoxy-2-oxolanyl]-2-oxoethoxy]-3,4-dihydroxy-N-[(3S,7S)-7-methyl-2-oxo-3-azepanyl]-3,4-dihydro-2H-pyran-6-carboxamide
> <PUBCHEM_IUPAC_NAME_MARKUP>
(2<I>S</I>,3<I>S</I>,4<I>S</I>)-2-[(1<I>R</I>)-2-amino-1-[(2<I>S</I>,3<I>R</I>,4<I>R</I>,5<I>R</I>)-5-(2,4-dioxopyrimidin-1-yl)-4-heptoxy-3-methoxyoxolan-2-yl]-2-oxoethoxy]-3,4-dihydroxy-<I>N</I>-[(3<I>S</I>,7<I>S</I>)-7-methyl-2-oxoazepan-3-yl]-3,4-dihydro-2<I>H</I>-pyran-6-carboxamide
> <PUBCHEM_IUPAC_NAME>
(2S,3S,4S)-2-[(1R)-2-amino-1-[(2S,3R,4R,5R)-5-(2,4-dioxopyrimidin-1-yl)-4-heptoxy-3-methoxyoxolan-2-yl]-2-oxoethoxy]-3,4-dihydroxy-N-[(3S,7S)-7-methyl-2-oxoazepan-3-yl]-3,4-dihydro-2H-pyran-6-carboxamide
> <PUBCHEM_IUPAC_SYSTEMATIC_NAME>
(2S,3S,4S)-2-[(1R)-2-azanyl-1-[(2S,3R,4R,5R)-5-[2,4-bis(oxidanylidene)pyrimidin-1-yl]-4-heptoxy-3-methoxy-oxolan-2-yl]-2-oxidanylidene-ethoxy]-N-[(3S,7S)-7-methyl-2-oxidanylidene-azepan-3-yl]-3,4-bis(oxidanyl)-3,4-dihydro-2H-pyran-6-carboxamide
> <PUBCHEM_IUPAC_TRADITIONAL_NAME>
(2S,3S,4S)-2-[(1R)-2-amino-1-[(2S,3R,4R,5R)-5-(2,4-diketopyrimidin-1-yl)-4-heptoxy-3-methoxy-tetrahydrofuran-2-yl]-2-keto-ethoxy]-3,4-dihydroxy-N-[(3S,7S)-2-keto-7-methyl-azepan-3-yl]-3,4-dihydro-2H-pyran-6-carboxamide
> <PUBCHEM_IUPAC_INCHI>
InChI=1S/C31H47N5O12/c1-4-5-6-7-8-14-45-25-22(44-3)23(47-29(25)36-13-12-20(38)35-31(36)43)24(26(32)40)48-30-21(39)18(37)15-19(46-30)28(42)34-17-11-9-10-16(2)33-27(17)41/h12-13,15-18,21-25,29-30,37,39H,4-11,14H2,1-3H3,(H2,32,40)(H,33,41)(H,34,42)(H,35,38,43)/t16-,17-,18-,21-,22+,23-,24+,25+,29+,30+/m0/s1
> <PUBCHEM_IUPAC_INCHIKEY>
NPLZRTJFDWJXJF-LPCMJTKNSA-N
> <PUBCHEM_XLOGP3_AA>
-0.2
> <PUBCHEM_EXACT_MASS>
681.32212195
> <PUBCHEM_MOLECULAR_FORMULA>
C31H47N5O12
> <PUBCHEM_MOLECULAR_WEIGHT>
681.7
> <PUBCHEM_OPENEYE_CAN_SMILES>
CCCCCCCOC1C(C(OC1N2C=CC(=O)NC2=O)C(C(=O)N)OC3C(C(C=C(O3)C(=O)NC4CCCC(NC4=O)C)O)O)OC
> <PUBCHEM_OPENEYE_ISO_SMILES>
CCCCCCCO[C@@H]1[C@@H]([C@H](O[C@H]1N2C=CC(=O)NC2=O)[C@H](C(=O)N)O[C@@H]3[C@H]([C@H](C=C(O3)C(=O)N[C@H]4CCC[C@@H](NC4=O)C)O)O)OC
> <PUBCHEM_CACTVS_TPSA>
237
> <PUBCHEM_MONOISOTOPIC_WEIGHT>
681.32212195
> <PUBCHEM_TOTAL_CHARGE>
0
> <PUBCHEM_HEAVY_ATOM_COUNT>
48
> <PUBCHEM_ATOM_DEF_STEREO_COUNT>
10
> <PUBCHEM_ATOM_UDEF_STEREO_COUNT>
0
> <PUBCHEM_BOND_DEF_STEREO_COUNT>
0
> <PUBCHEM_BOND_UDEF_STEREO_COUNT>
0
> <PUBCHEM_ISOTOPIC_ATOM_COUNT>
0
> <PUBCHEM_COMPONENT_COUNT>
1
> <PUBCHEM_CACTVS_TAUTO_COUNT>
-1
> <PUBCHEM_COORDINATE_TYPE>
1
5
255
> <PUBCHEM_BONDANNOTATIONS>
21  13  6
13  26  8
13  27  8
14  26  8
14  42  8
35  16  5
19  50  5
20  2  5
27  33  8
18  3  5
33  42  8
22  4  6
25  4  5
41  46  6
28  7  6
31  9  6
$$$$
