513175
  -OEChem-10302200282D
 97100  0     1  0  0  0  0  0999 V2000
   11.2100    1.7244    0.0000 O   0  0  0  0  0  0  0  0  0  0  0  0
    8.8461    0.6719    0.0000 O   0  0  0  0  0  0  0  0  0  0  0  0
    8.8786    2.8472    0.0000 O   0  0  0  0  0  0  0  0  0  0  0  0
   10.2247   -0.7643    0.0000 O   0  0  0  0  0  0  0  0  0  0  0  0
   11.4944   -1.9424    0.0000 O   0  0  0  0  0  0  0  0  0  0  0  0
   12.1746   -1.2094    0.0000 O   0  0  0  0  0  0  0  0  0  0  0  0
    8.8644   -2.2304    0.0000 O   0  0  0  0  0  0  0  0  0  0  0  0
   12.5966    2.9286    0.0000 O   0  0  0  0  0  0  0  0  0  0  0  0
    9.4539   -4.1416    0.0000 O   0  0  0  0  0  0  0  0  0  0  0  0
    7.8397    1.4613    0.0000 O   0  0  0  0  0  0  0  0  0  0  0  0
   11.9272    6.3274    0.0000 O   0  0  0  0  0  0  0  0  0  0  0  0
   13.4745   -5.8970    0.0000 O   0  0  0  0  0  0  0  0  0  0  0  0
   13.4443   -2.3875    0.0000 O   0  0  0  0  0  0  0  0  0  0  0  0
   10.9576    3.4885    0.0000 N   0  0  0  0  0  0  0  0  0  0  0  0
   12.2619    4.6280    0.0000 N   0  0  0  0  0  0  0  0  0  0  0  0
   12.5600    0.4792    0.0000 N   0  0  0  0  0  0  0  0  0  0  0  0
   13.0589   -4.0761    0.0000 N   0  0  0  0  0  0  0  0  0  0  0  0
   15.1573   -5.7074    0.0000 N   0  0  0  0  0  0  0  0  0  0  0  0
    9.6638    1.2475    0.0000 C   0  0  2  0  0  0  0  0  0  0  0  0
   10.6101    0.9243    0.0000 C   0  0  1  0  0  0  0  0  0  0  0  0
    9.6788    2.2474    0.0000 C   0  0  2  0  0  0  0  0  0  0  0  0
   10.6344    2.5421    0.0000 C   0  0  1  0  0  0  0  0  0  0  0  0
   10.9049   -0.0313    0.0000 C   0  0  2  0  0  0  0  0  0  0  0  0
   10.5195   -1.7199    0.0000 C   0  0  1  0  0  0  0  0  0  0  0  0
   11.8798   -0.2538    0.0000 C   0  0  0  0  0  0  0  0  0  0  0  0
    9.8393   -2.4530    0.0000 C   0  0  2  0  0  0  0  0  0  0  0  0
   11.9387    3.6817    0.0000 C   0  0  0  0  0  0  0  0  0  0  0  0
   10.2996    4.2415    0.0000 C   0  0  0  0  0  0  0  0  0  0  0  0
    7.9591    2.4542    0.0000 C   0  0  0  0  0  0  0  0  0  0  0  0
    8.9357   -0.3241    0.0000 C   0  0  0  0  0  0  0  0  0  0  0  0
   10.1341   -3.4085    0.0000 C   0  0  2  0  0  0  0  0  0  0  0  0
    7.1590    3.0540    0.0000 C   0  0  0  0  0  0  0  0  0  0  0  0
   14.0338   -4.2986    0.0000 C   0  0  1  0  0  0  0  0  0  0  0  0
   11.7892   -2.8980    0.0000 C   0  0  0  0  0  0  0  0  0  0  0  0
   10.6228    5.1879    0.0000 C   0  0  0  0  0  0  0  0  0  0  0  0
   14.6573   -3.5168    0.0000 C   0  0  0  0  0  0  0  0  0  0  0  0
   11.1090   -3.6311    0.0000 C   0  0  0  0  0  0  0  0  0  0  0  0
   15.6573   -3.5168    0.0000 C   0  0  0  0  0  0  0  0  0  0  0  0
   16.2808   -4.2986    0.0000 C   0  0  0  0  0  0  0  0  0  0  0  0
   16.0582   -5.2736    0.0000 C   0  0  2  0  0  0  0  0  0  0  0  0
    6.2395    2.6610    0.0000 C   0  0  0  0  0  0  0  0  0  0  0  0
   11.6040    5.3811    0.0000 C   0  0  0  0  0  0  0  0  0  0  0  0
   12.7641   -3.1205    0.0000 C   0  0  0  0  0  0  0  0  0  0  0  0
   14.2563   -5.2736    0.0000 C   0  0  0  0  0  0  0  0  0  0  0  0
    5.4393    3.2608    0.0000 C   0  0  0  0  0  0  0  0  0  0  0  0
   16.8401   -5.8970    0.0000 C   0  0  0  0  0  0  0  0  0  0  0  0
    4.5198    2.8678    0.0000 C   0  0  0  0  0  0  0  0  0  0  0  0
    3.7197    3.4676    0.0000 C   0  0  0  0  0  0  0  0  0  0  0  0
    2.8001    3.0746    0.0000 C   0  0  0  0  0  0  0  0  0  0  0  0
    2.0000    3.6744    0.0000 C   0  0  0  0  0  0  0  0  0  0  0  0
    9.7516    0.6337    0.0000 H   0  0  0  0  0  0  0  0  0  0  0  0
   11.4476    0.7788    0.0000 H   0  0  0  0  0  0  0  0  0  0  0  0
    9.1222    1.9742    0.0000 H   0  0  0  0  0  0  0  0  0  0  0  0
   11.2481    2.6300    0.0000 H   0  0  0  0  0  0  0  0  0  0  0  0
   11.0877   -0.6238    0.0000 H   0  0  0  0  0  0  0  0  0  0  0  0
    9.9150   -1.5820    0.0000 H   0  0  0  0  0  0  0  0  0  0  0  0
    9.6566   -1.8605    0.0000 H   0  0  0  0  0  0  0  0  0  0  0  0
    9.6913    4.1217    0.0000 H   0  0  0  0  0  0  0  0  0  0  0  0
    8.3182   -0.3797    0.0000 H   0  0  0  0  0  0  0  0  0  0  0  0
    8.9913   -0.9416    0.0000 H   0  0  0  0  0  0  0  0  0  0  0  0
    9.5532   -0.2685    0.0000 H   0  0  0  0  0  0  0  0  0  0  0  0
   10.3168   -4.0010    0.0000 H   0  0  0  0  0  0  0  0  0  0  0  0
    7.6114    3.4780    0.0000 H   0  0  0  0  0  0  0  0  0  0  0  0
    6.8200    3.5731    0.0000 H   0  0  0  0  0  0  0  0  0  0  0  0
   13.8290   -3.7134    0.0000 H   0  0  0  0  0  0  0  0  0  0  0  0
   12.8702    4.7479    0.0000 H   0  0  0  0  0  0  0  0  0  0  0  0
   10.2149    5.6548    0.0000 H   0  0  0  0  0  0  0  0  0  0  0  0
   14.7952   -2.9123    0.0000 H   0  0  0  0  0  0  0  0  0  0  0  0
   14.0987   -3.2478    0.0000 H   0  0  0  0  0  0  0  0  0  0  0  0
   13.1645    0.3413    0.0000 H   0  0  0  0  0  0  0  0  0  0  0  0
   12.3773    1.0717    0.0000 H   0  0  0  0  0  0  0  0  0  0  0  0
   16.2159   -3.2478    0.0000 H   0  0  0  0  0  0  0  0  0  0  0  0
   15.5193   -2.9123    0.0000 H   0  0  0  0  0  0  0  0  0  0  0  0
   11.2917   -4.2235    0.0000 H   0  0  0  0  0  0  0  0  0  0  0  0
   16.8394   -4.5676    0.0000 H   0  0  0  0  0  0  0  0  0  0  0  0
   16.6673   -3.8139    0.0000 H   0  0  0  0  0  0  0  0  0  0  0  0
   15.9888   -5.8897    0.0000 H   0  0  0  0  0  0  0  0  0  0  0  0
    5.7871    2.2370    0.0000 H   0  0  0  0  0  0  0  0  0  0  0  0
    6.5784    2.1418    0.0000 H   0  0  0  0  0  0  0  0  0  0  0  0
   12.6371   -4.5306    0.0000 H   0  0  0  0  0  0  0  0  0  0  0  0
    5.8917    3.6848    0.0000 H   0  0  0  0  0  0  0  0  0  0  0  0
    5.1004    3.7799    0.0000 H   0  0  0  0  0  0  0  0  0  0  0  0
   15.1573   -6.3274    0.0000 H   0  0  0  0  0  0  0  0  0  0  0  0
    8.4427   -2.6849    0.0000 H   0  0  0  0  0  0  0  0  0  0  0  0
   16.4535   -6.3818    0.0000 H   0  0  0  0  0  0  0  0  0  0  0  0
   17.3248   -6.2836    0.0000 H   0  0  0  0  0  0  0  0  0  0  0  0
   17.2266   -5.4123    0.0000 H   0  0  0  0  0  0  0  0  0  0  0  0
    4.0674    2.4438    0.0000 H   0  0  0  0  0  0  0  0  0  0  0  0
    4.8588    2.3486    0.0000 H   0  0  0  0  0  0  0  0  0  0  0  0
    9.6366   -4.7340    0.0000 H   0  0  0  0  0  0  0  0  0  0  0  0
    4.1720    3.8916    0.0000 H   0  0  0  0  0  0  0  0  0  0  0  0
    3.3807    3.9867    0.0000 H   0  0  0  0  0  0  0  0  0  0  0  0
    2.3478    2.6506    0.0000 H   0  0  0  0  0  0  0  0  0  0  0  0
    3.1391    2.5554    0.0000 H   0  0  0  0  0  0  0  0  0  0  0  0
    2.3719    4.1705    0.0000 H   0  0  0  0  0  0  0  0  0  0  0  0
    1.5039    4.0463    0.0000 H   0  0  0  0  0  0  0  0  0  0  0  0
    1.6281    3.1783    0.0000 H   0  0  0  0  0  0  0  0  0  0  0  0
  1 20  1  0  0  0  0
  1 22  1  0  0  0  0
 19  2  1  1  0  0  0
  2 30  1  0  0  0  0
 21  3  1  1  0  0  0
  3 29  1  0  0  0  0
 23  4  1  6  0  0  0
 24  4  1  1  0  0  0
  5 24  1  0  0  0  0
  5 34  1  0  0  0  0
  6 25  2  0  0  0  0
 26  7  1  6  0  0  0
  7 84  1  0  0  0  0
  8 27  2  0  0  0  0
 31  9  1  6  0  0  0
  9 90  1  0  0  0  0
 10 29  2  0  0  0  0
 11 42  2  0  0  0  0
 12 44  2  0  0  0  0
 13 43  2  0  0  0  0
 22 14  1  6  0  0  0
 14 27  1  0  0  0  0
 14 28  1  0  0  0  0
 15 27  1  0  0  0  0
 15 42  1  0  0  0  0
 15 66  1  0  0  0  0
 16 25  1  0  0  0  0
 16 70  1  0  0  0  0
 16 71  1  0  0  0  0
 33 17  1  1  0  0  0
 17 43  1  0  0  0  0
 17 80  1  0  0  0  0
 18 40  1  0  0  0  0
 18 44  1  0  0  0  0
 18 83  1  0  0  0  0
 19 20  1  0  0  0  0
 19 21  1  0  0  0  0
 19 51  1  0  0  0  0
 20 23  1  0  0  0  0
 20 52  1  1  0  0  0
 21 22  1  0  0  0  0
 21 53  1  0  0  0  0
 22 54  1  0  0  0  0
 23 25  1  0  0  0  0
 23 55  1  0  0  0  0
 24 26  1  0  0  0  0
 24 56  1  0  0  0  0
 26 31  1  0  0  0  0
 26 57  1  0  0  0  0
 28 35  2  0  0  0  0
 28 58  1  0  0  0  0
 29 32  1  0  0  0  0
 30 59  1  0  0  0  0
 30 60  1  0  0  0  0
 30 61  1  0  0  0  0
 31 37  1  0  0  0  0
 31 62  1  0  0  0  0
 32 41  1  0  0  0  0
 32 63  1  0  0  0  0
 32 64  1  0  0  0  0
 33 36  1  0  0  0  0
 33 44  1  0  0  0  0
 33 65  1  0  0  0  0
 34 37  2  0  0  0  0
 34 43  1  0  0  0  0
 35 42  1  0  0  0  0
 35 67  1  0  0  0  0
 36 38  1  0  0  0  0
 36 68  1  0  0  0  0
 36 69  1  0  0  0  0
 37 74  1  0  0  0  0
 38 39  1  0  0  0  0
 38 72  1  0  0  0  0
 38 73  1  0  0  0  0
 39 40  1  0  0  0  0
 39 75  1  0  0  0  0
 39 76  1  0  0  0  0
 40 46  1  6  0  0  0
 40 77  1  0  0  0  0
 41 45  1  0  0  0  0
 41 78  1  0  0  0  0
 41 79  1  0  0  0  0
 45 47  1  0  0  0  0
 45 81  1  0  0  0  0
 45 82  1  0  0  0  0
 46 85  1  0  0  0  0
 46 86  1  0  0  0  0
 46 87  1  0  0  0  0
 47 48  1  0  0  0  0
 47 88  1  0  0  0  0
 47 89  1  0  0  0  0
 48 49  1  0  0  0  0
 48 91  1  0  0  0  0
 48 92  1  0  0  0  0
 49 50  1  0  0  0  0
 49 93  1  0  0  0  0
 49 94  1  0  0  0  0
 50 95  1  0  0  0  0
 50 96  1  0  0  0  0
 50 97  1  0  0  0  0
M  END
> <PUBCHEM_COMPOUND_CID>
513175
> <PUBCHEM_COMPOUND_CANONICALIZED>
1
> <PUBCHEM_CACTVS_COMPLEXITY>
1340
> <PUBCHEM_CACTVS_HBOND_ACCEPTOR>
13
> <PUBCHEM_CACTVS_HBOND_DONOR>
6
> <PUBCHEM_CACTVS_ROTATABLE_BOND>
16
> <PUBCHEM_CACTVS_SUBSKEYS>
AAADcfB/vAAAAAAAAAAAAAAAAAAAASAAAAAgQAAABYAAAAAAAAAAHgAQCAAACDzxgAcDCAPABgCIACHWWAKACAAgIgAICIHIAEiTVBYAgCQ/UAAP9yKfEcP6/K7AAAAAAAAAAAAAAAAAAAAAAAAAAAAAAA==
> <PUBCHEM_IUPAC_OPENEYE_NAME>
[(2R,3R,4R,5S)-5-[(1R)-2-amino-1-[[(2S,3S,4S)-3,4-dihydroxy-6-[[(3S,7S)-7-methyl-2-oxo-azepan-3-yl]carbamoyl]-3,4-dihydro-2H-pyran-2-yl]oxy]-2-oxo-ethyl]-2-(2,4-dioxopyrimidin-1-yl)-4-methoxy-tetrahydrofuran-3-yl] octanoate
> <PUBCHEM_IUPAC_CAS_NAME>
octanoic acid [(2R,3R,4R,5S)-5-[(1R)-2-amino-1-[[(2S,3S,4S)-3,4-dihydroxy-6-[[[(3S,7S)-7-methyl-2-oxo-3-azepanyl]amino]-oxomethyl]-3,4-dihydro-2H-pyran-2-yl]oxy]-2-oxoethyl]-2-(2,4-dioxo-1-pyrimidinyl)-4-methoxy-3-oxolanyl] ester
> <PUBCHEM_IUPAC_NAME_MARKUP>
[(2<I>R</I>,3<I>R</I>,4<I>R</I>,5<I>S</I>)-5-[(1<I>R</I>)-2-amino-1-[[(2<I>S</I>,3<I>S</I>,4<I>S</I>)-3,4-dihydroxy-6-[[(3<I>S</I>,7<I>S</I>)-7-methyl-2-oxoazepan-3-yl]carbamoyl]-3,4-dihydro-2<I>H</I>-pyran-2-yl]oxy]-2-oxoethyl]-2-(2,4-dioxopyrimidin-1-yl)-4-methoxyoxolan-3-yl] octanoate
> <PUBCHEM_IUPAC_NAME>
[(2R,3R,4R,5S)-5-[(1R)-2-amino-1-[[(2S,3S,4S)-3,4-dihydroxy-6-[[(3S,7S)-7-methyl-2-oxoazepan-3-yl]carbamoyl]-3,4-dihydro-2H-pyran-2-yl]oxy]-2-oxoethyl]-2-(2,4-dioxopyrimidin-1-yl)-4-methoxyoxolan-3-yl] octanoate
> <PUBCHEM_IUPAC_SYSTEMATIC_NAME>
[(2R,3R,4R,5S)-5-[(1R)-2-azanyl-1-[[(2S,3S,4S)-6-[[(3S,7S)-7-methyl-2-oxidanylidene-azepan-3-yl]carbamoyl]-3,4-bis(oxidanyl)-3,4-dihydro-2H-pyran-2-yl]oxy]-2-oxidanylidene-ethyl]-2-[2,4-bis(oxidanylidene)pyrimidin-1-yl]-4-methoxy-oxolan-3-yl] octanoate
> <PUBCHEM_IUPAC_TRADITIONAL_NAME>
caprylic acid [(2R,3R,4R,5S)-5-[(1R)-2-amino-1-[[(2S,3S,4S)-3,4-dihydroxy-6-[[(3S,7S)-2-keto-7-methyl-azepan-3-yl]carbamoyl]-3,4-dihydro-2H-pyran-2-yl]oxy]-2-keto-ethyl]-2-(2,4-diketopyrimidin-1-yl)-4-methoxy-tetrahydrofuran-3-yl] ester
> <PUBCHEM_IUPAC_INCHI>
InChI=1S/C32H47N5O13/c1-4-5-6-7-8-12-21(40)48-26-23(46-3)24(49-30(26)37-14-13-20(39)36-32(37)45)25(27(33)42)50-31-22(41)18(38)15-19(47-31)29(44)35-17-11-9-10-16(2)34-28(17)43/h13-18,22-26,30-31,38,41H,4-12H2,1-3H3,(H2,33,42)(H,34,43)(H,35,44)(H,36,39,45)/t16-,17-,18-,22-,23+,24-,25+,26+,30+,31+/m0/s1
> <PUBCHEM_IUPAC_INCHIKEY>
IVOFKISIJPOICN-LVSHNMGOSA-N
> <PUBCHEM_XLOGP3_AA>
-0.1
> <PUBCHEM_EXACT_MASS>
709.31703657
> <PUBCHEM_MOLECULAR_FORMULA>
C32H47N5O13
> <PUBCHEM_MOLECULAR_WEIGHT>
709.7
> <PUBCHEM_OPENEYE_CAN_SMILES>
CCCCCCCC(=O)OC1C(C(OC1N2C=CC(=O)NC2=O)C(C(=O)N)OC3C(C(C=C(O3)C(=O)NC4CCCC(NC4=O)C)O)O)OC
> <PUBCHEM_OPENEYE_ISO_SMILES>
CCCCCCCC(=O)O[C@@H]1[C@@H]([C@H](O[C@H]1N2C=CC(=O)NC2=O)[C@H](C(=O)N)O[C@@H]3[C@H]([C@H](C=C(O3)C(=O)N[C@H]4CCC[C@@H](NC4=O)C)O)O)OC
> <PUBCHEM_CACTVS_TPSA>
254
> <PUBCHEM_MONOISOTOPIC_WEIGHT>
709.31703657
> <PUBCHEM_TOTAL_CHARGE>
0
> <PUBCHEM_HEAVY_ATOM_COUNT>
50
> <PUBCHEM_ATOM_DEF_STEREO_COUNT>
10
> <PUBCHEM_ATOM_UDEF_STEREO_COUNT>
0
> <PUBCHEM_BOND_DEF_STEREO_COUNT>
0
> <PUBCHEM_BOND_UDEF_STEREO_COUNT>
0
> <PUBCHEM_ISOTOPIC_ATOM_COUNT>
0
> <PUBCHEM_COMPONENT_COUNT>
1
> <PUBCHEM_CACTVS_TAUTO_COUNT>
-1
> <PUBCHEM_COORDINATE_TYPE>
1
5
255
> <PUBCHEM_BONDANNOTATIONS>
22  14  6
14  27  8
14  28  8
15  27  8
15  42  8
33  17  5
19  2  5
20  52  5
28  35  8
21  3  5
35  42  8
23  4  6
24  4  5
40  46  6
26  7  6
31  9  6
$$$$
