513224
  -OEChem-10302200282D
 63 66  0     1  0  0  0  0  0999 V2000
    5.5321   -2.1685    0.0000 P   0  0  3  0  0  0  0  0  0  0  0  0
    8.6198   -2.1115    0.0000 O   0  0  0  0  0  0  0  0  0  0  0  0
    8.3108    0.4576    0.0000 O   0  0  0  0  0  0  0  0  0  0  0  0
    6.5321   -2.1685    0.0000 O   0  0  0  0  0  0  0  0  0  0  0  0
    4.6660   -2.6685    0.0000 O   0  0  0  0  0  0  0  0  0  0  0  0
    5.5321   -1.1685    0.0000 O   0  0  0  0  0  0  0  0  0  0  0  0
    9.3618   -3.7915    0.0000 O   0  0  0  0  0  0  0  0  0  0  0  0
    9.9581    0.9928    0.0000 O   0  0  0  0  0  0  0  0  0  0  0  0
    6.0321   -3.0345    0.0000 O   0  0  0  0  0  0  0  0  0  0  0  0
   12.8070   -4.1536    0.0000 O   0  0  0  0  0  0  0  0  0  0  0  0
    8.0529    4.0539    0.0000 O   0  0  0  0  0  0  0  0  0  0  0  0
   10.3799   -2.3902    0.0000 N   0  0  0  0  0  0  0  0  0  0  0  0
   11.0844   -3.9726    0.0000 N   0  0  0  0  0  0  0  0  0  0  0  0
    8.6198   -0.4934    0.0000 C   0  0  2  0  0  0  0  0  0  0  0  0
    8.0321   -1.3025    0.0000 C   0  0  1  0  0  0  0  0  0  0  0  0
    9.5709   -0.8025    0.0000 C   0  0  0  0  0  0  0  0  0  0  0  0
    9.5709   -1.8025    0.0000 C   0  0  1  0  0  0  0  0  0  0  0  0
    7.0321   -1.3025    0.0000 C   0  0  0  0  0  0  0  0  0  0  0  0
   11.2935   -1.9835    0.0000 C   0  0  0  0  0  0  0  0  0  0  0  0
   10.2754   -3.3848    0.0000 C   0  0  0  0  0  0  0  0  0  0  0  0
    8.9800    1.2008    0.0000 C   0  0  0  0  0  0  0  0  0  0  0  0
   12.1025   -2.5713    0.0000 C   0  0  0  0  0  0  0  0  0  0  0  0
    8.6709    2.1518    0.0000 C   0  0  0  0  0  0  0  0  0  0  0  0
   11.9980   -3.5658    0.0000 C   0  0  0  0  0  0  0  0  0  0  0  0
   13.0160   -2.1646    0.0000 C   0  0  0  0  0  0  0  0  0  0  0  0
    4.6660   -0.6685    0.0000 C   0  0  0  0  0  0  0  0  0  0  0  0
    3.8000   -2.1685    0.0000 C   0  0  0  0  0  0  0  0  0  0  0  0
    9.3401    2.8950    0.0000 C   0  0  0  0  0  0  0  0  0  0  0  0
    3.8000   -1.1685    0.0000 C   0  0  0  0  0  0  0  0  0  0  0  0
    2.9061   -2.7032    0.0000 C   0  0  0  0  0  0  0  0  0  0  0  0
    2.9061   -0.6338    0.0000 C   0  0  0  0  0  0  0  0  0  0  0  0
    9.0311    3.8460    0.0000 C   0  0  0  0  0  0  0  0  0  0  0  0
    2.0000   -2.1893    0.0000 C   0  0  0  0  0  0  0  0  0  0  0  0
    2.0000   -1.1477    0.0000 C   0  0  0  0  0  0  0  0  0  0  0  0
    2.9176   -3.7031    0.0000 C   0  0  0  0  0  0  0  0  0  0  0  0
    9.7002    4.5892    0.0000 C   0  0  0  0  0  0  0  0  0  0  0  0
    8.0075   -0.3965    0.0000 H   0  0  0  0  0  0  0  0  0  0  0  0
    7.7506   -1.8549    0.0000 H   0  0  0  0  0  0  0  0  0  0  0  0
   10.1875   -0.8673    0.0000 H   0  0  0  0  0  0  0  0  0  0  0  0
    9.6998   -0.1960    0.0000 H   0  0  0  0  0  0  0  0  0  0  0  0
    9.4739   -2.4148    0.0000 H   0  0  0  0  0  0  0  0  0  0  0  0
    7.1397   -0.6919    0.0000 H   0  0  0  0  0  0  0  0  0  0  0  0
    6.4494   -1.0904    0.0000 H   0  0  0  0  0  0  0  0  0  0  0  0
   11.3583   -1.3669    0.0000 H   0  0  0  0  0  0  0  0  0  0  0  0
   11.0196   -4.5892    0.0000 H   0  0  0  0  0  0  0  0  0  0  0  0
    8.2892    2.6404    0.0000 H   0  0  0  0  0  0  0  0  0  0  0  0
    8.1235    1.8607    0.0000 H   0  0  0  0  0  0  0  0  0  0  0  0
   13.2682   -2.7310    0.0000 H   0  0  0  0  0  0  0  0  0  0  0  0
   13.5824   -1.9124    0.0000 H   0  0  0  0  0  0  0  0  0  0  0  0
   12.7639   -1.5982    0.0000 H   0  0  0  0  0  0  0  0  0  0  0  0
    5.0646   -0.1935    0.0000 H   0  0  0  0  0  0  0  0  0  0  0  0
    4.2675   -0.1935    0.0000 H   0  0  0  0  0  0  0  0  0  0  0  0
    9.7218    2.4064    0.0000 H   0  0  0  0  0  0  0  0  0  0  0  0
    9.8875    3.1860    0.0000 H   0  0  0  0  0  0  0  0  0  0  0  0
    2.9132   -0.0139    0.0000 H   0  0  0  0  0  0  0  0  0  0  0  0
    1.4643   -2.5014    0.0000 H   0  0  0  0  0  0  0  0  0  0  0  0
    1.4643   -0.8356    0.0000 H   0  0  0  0  0  0  0  0  0  0  0  0
    2.2977   -3.7102    0.0000 H   0  0  0  0  0  0  0  0  0  0  0  0
    2.9248   -4.3230    0.0000 H   0  0  0  0  0  0  0  0  0  0  0  0
    3.5376   -3.6959    0.0000 H   0  0  0  0  0  0  0  0  0  0  0  0
   10.1609    4.1743    0.0000 H   0  0  0  0  0  0  0  0  0  0  0  0
   10.1150    5.0499    0.0000 H   0  0  0  0  0  0  0  0  0  0  0  0
    9.2394    5.0040    0.0000 H   0  0  0  0  0  0  0  0  0  0  0  0
  1  4  1  0  0  0  0
  1  5  1  0  0  0  0
  1  6  1  0  0  0  0
  1  9  2  0  0  0  0
  2 15  1  0  0  0  0
  2 17  1  0  0  0  0
 14  3  1  1  0  0  0
  3 21  1  0  0  0  0
  4 18  1  0  0  0  0
  5 27  1  0  0  0  0
  6 26  1  0  0  0  0
  7 20  2  0  0  0  0
  8 21  2  0  0  0  0
 10 24  2  0  0  0  0
 11 32  2  0  0  0  0
 17 12  1  6  0  0  0
 12 19  1  0  0  0  0
 12 20  1  0  0  0  0
 13 20  1  0  0  0  0
 13 24  1  0  0  0  0
 13 45  1  0  0  0  0
 14 15  1  0  0  0  0
 14 16  1  0  0  0  0
 14 37  1  0  0  0  0
 15 18  1  6  0  0  0
 15 38  1  0  0  0  0
 16 17  1  0  0  0  0
 16 39  1  0  0  0  0
 16 40  1  0  0  0  0
 17 41  1  0  0  0  0
 18 42  1  0  0  0  0
 18 43  1  0  0  0  0
 19 22  2  0  0  0  0
 19 44  1  0  0  0  0
 21 23  1  0  0  0  0
 22 24  1  0  0  0  0
 22 25  1  0  0  0  0
 23 28  1  0  0  0  0
 23 46  1  0  0  0  0
 23 47  1  0  0  0  0
 25 48  1  0  0  0  0
 25 49  1  0  0  0  0
 25 50  1  0  0  0  0
 26 29  1  0  0  0  0
 26 51  1  0  0  0  0
 26 52  1  0  0  0  0
 27 29  1  0  0  0  0
 27 30  2  0  0  0  0
 28 32  1  0  0  0  0
 28 53  1  0  0  0  0
 28 54  1  0  0  0  0
 29 31  2  0  0  0  0
 30 33  1  0  0  0  0
 30 35  1  0  0  0  0
 31 34  1  0  0  0  0
 31 55  1  0  0  0  0
 32 36  1  0  0  0  0
 33 34  2  0  0  0  0
 33 56  1  0  0  0  0
 34 57  1  0  0  0  0
 35 58  1  0  0  0  0
 35 59  1  0  0  0  0
 35 60  1  0  0  0  0
 36 61  1  0  0  0  0
 36 62  1  0  0  0  0
 36 63  1  0  0  0  0
M  END
> <PUBCHEM_COMPOUND_CID>
513224
> <PUBCHEM_COMPOUND_CANONICALIZED>
1
> <PUBCHEM_CACTVS_COMPLEXITY>
984
> <PUBCHEM_CACTVS_HBOND_ACCEPTOR>
10
> <PUBCHEM_CACTVS_HBOND_DONOR>
1
> <PUBCHEM_CACTVS_ROTATABLE_BOND>
9
> <PUBCHEM_CACTVS_SUBSKEYS>
AAADceB7PAIAAAAAAAAAAAAAAAAAASAAAAA0QIAAAAAAAACRAAAAHgAQACAADBThmAYzDoPABRCIQqHWWICCAAAgIAAIiAEMCMiJJzKAkRKOMAAvxzMKiMe78GIOAAACAAAIAAAAAAQAABAAAAAAAAAAAA==
> <PUBCHEM_IUPAC_OPENEYE_NAME>
[(2R,3S,5R)-5-(5-methyl-2,4-dioxo-pyrimidin-1-yl)-2-[(8-methyl-2-oxo-4H-1,3,2lambda5-benzodioxaphosphinin-2-yl)oxymethyl]tetrahydrofuran-3-yl] 4-oxopentanoate
> <PUBCHEM_IUPAC_CAS_NAME>
4-oxopentanoic acid [(2R,3S,5R)-5-(5-methyl-2,4-dioxo-1-pyrimidinyl)-2-[(8-methyl-2-oxo-4H-1,3,2lambda5-benzodioxaphosphorin-2-yl)oxymethyl]-3-oxolanyl] ester
> <PUBCHEM_IUPAC_NAME_MARKUP>
[(2<I>R</I>,3<I>S</I>,5<I>R</I>)-5-(5-methyl-2,4-dioxopyrimidin-1-yl)-2-[(8-methyl-2-oxo-4<I>H</I>-1,3,2&lambda;<SUP>5</SUP>-benzodioxaphosphinin-2-yl)oxymethyl]oxolan-3-yl] 4-oxopentanoate
> <PUBCHEM_IUPAC_NAME>
[(2R,3S,5R)-5-(5-methyl-2,4-dioxopyrimidin-1-yl)-2-[(8-methyl-2-oxo-4H-1,3,2lambda5-benzodioxaphosphinin-2-yl)oxymethyl]oxolan-3-yl] 4-oxopentanoate
> <PUBCHEM_IUPAC_SYSTEMATIC_NAME>
[(2R,3S,5R)-5-[5-methyl-2,4-bis(oxidanylidene)pyrimidin-1-yl]-2-[(8-methyl-2-oxidanylidene-4H-1,3,2lambda5-benzodioxaphosphinin-2-yl)oxymethyl]oxolan-3-yl] 4-oxidanylidenepentanoate
> <PUBCHEM_IUPAC_TRADITIONAL_NAME>
4-ketovaleric acid [(2R,3S,5R)-5-(2,4-diketo-5-methyl-pyrimidin-1-yl)-2-[(2-keto-8-methyl-4H-1,3,2lambda5-benzodioxaphosphorin-2-yl)oxymethyl]tetrahydrofuran-3-yl] ester
> <PUBCHEM_IUPAC_INCHI>
InChI=1S/C23H27N2O10P/c1-13-5-4-6-16-11-31-36(30,35-21(13)16)32-12-18-17(34-20(27)8-7-15(3)26)9-19(33-18)25-10-14(2)22(28)24-23(25)29/h4-6,10,17-19H,7-9,11-12H2,1-3H3,(H,24,28,29)/t17-,18+,19+,36?/m0/s1
> <PUBCHEM_IUPAC_INCHIKEY>
SXOYZJIVEJXDQK-FFHMXWIESA-N
> <PUBCHEM_XLOGP3_AA>
0.4
> <PUBCHEM_EXACT_MASS>
522.14033206
> <PUBCHEM_MOLECULAR_FORMULA>
C23H27N2O10P
> <PUBCHEM_MOLECULAR_WEIGHT>
522.4
> <PUBCHEM_OPENEYE_CAN_SMILES>
CC1=C2C(=CC=C1)COP(=O)(O2)OCC3C(CC(O3)N4C=C(C(=O)NC4=O)C)OC(=O)CCC(=O)C
> <PUBCHEM_OPENEYE_ISO_SMILES>
CC1=C2C(=CC=C1)COP(=O)(O2)OC[C@@H]3[C@H](C[C@@H](O3)N4C=C(C(=O)NC4=O)C)OC(=O)CCC(=O)C
> <PUBCHEM_CACTVS_TPSA>
147
> <PUBCHEM_MONOISOTOPIC_WEIGHT>
522.14033206
> <PUBCHEM_TOTAL_CHARGE>
0
> <PUBCHEM_HEAVY_ATOM_COUNT>
36
> <PUBCHEM_ATOM_DEF_STEREO_COUNT>
3
> <PUBCHEM_ATOM_UDEF_STEREO_COUNT>
1
> <PUBCHEM_BOND_DEF_STEREO_COUNT>
0
> <PUBCHEM_BOND_UDEF_STEREO_COUNT>
0
> <PUBCHEM_ISOTOPIC_ATOM_COUNT>
0
> <PUBCHEM_COMPONENT_COUNT>
1
> <PUBCHEM_CACTVS_TAUTO_COUNT>
-1
> <PUBCHEM_COORDINATE_TYPE>
1
5
255
> <PUBCHEM_BONDANNOTATIONS>
1  4  3
17  12  6
12  19  8
12  20  8
13  20  8
13  24  8
15  18  6
19  22  8
22  24  8
27  29  8
27  30  8
29  31  8
14  3  5
30  33  8
31  34  8
33  34  8
$$$$
