513290
  -OEChem-10302200282D
 83 82  0     1  0  0  0  0  0999 V2000
    8.5991   -0.2500    0.0000 O   0  0  0  0  0  0  0  0  0  0  0  0
    4.2690    0.2500    0.0000 O   0  0  0  0  0  0  0  0  0  0  0  0
   12.0632   -1.2500    0.0000 O   0  0  0  0  0  0  0  0  0  0  0  0
    7.7331    1.2500    0.0000 O   0  0  0  0  0  0  0  0  0  0  0  0
    2.5369    0.2500    0.0000 O   0  0  0  0  0  0  0  0  0  0  0  0
    3.4030   -1.2500    0.0000 O   0  0  0  0  0  0  0  0  0  0  0  0
   11.1972    0.2500    0.0000 N   0  0  0  0  0  0  0  0  0  0  0  0
    6.8671   -0.2500    0.0000 N   0  0  0  0  0  0  0  0  0  0  0  0
   13.7953   -0.2500    0.0000 N   0  0  0  0  0  0  0  0  0  0  0  0
    8.5991   -4.2500    0.0000 N   0  0  0  0  0  0  0  0  0  0  0  0
    4.2690    4.2500    0.0000 N   0  0  0  0  0  0  0  0  0  0  0  0
   20.7235   -0.2500    0.0000 N   0  0  0  0  0  0  0  0  0  0  0  0
   10.3312   -0.2500    0.0000 C   0  0  2  0  0  0  0  0  0  0  0  0
   10.3312   -1.2500    0.0000 C   0  0  0  0  0  0  0  0  0  0  0  0
    9.4651   -1.7500    0.0000 C   0  0  0  0  0  0  0  0  0  0  0  0
    6.0010    0.2500    0.0000 C   0  0  1  0  0  0  0  0  0  0  0  0
    6.0010    1.2500    0.0000 C   0  0  0  0  0  0  0  0  0  0  0  0
    9.4651    0.2500    0.0000 C   0  0  0  0  0  0  0  0  0  0  0  0
    5.1350    1.7500    0.0000 C   0  0  0  0  0  0  0  0  0  0  0  0
    9.4651   -2.7500    0.0000 C   0  0  0  0  0  0  0  0  0  0  0  0
   16.3933    0.2500    0.0000 C   0  0  0  0  0  0  0  0  0  0  0  0
   17.2594   -0.2500    0.0000 C   0  0  0  0  0  0  0  0  0  0  0  0
   15.5273   -0.2500    0.0000 C   0  0  0  0  0  0  0  0  0  0  0  0
   18.1254    0.2500    0.0000 C   0  0  0  0  0  0  0  0  0  0  0  0
   14.6613    0.2500    0.0000 C   0  0  0  0  0  0  0  0  0  0  0  0
    5.1350    2.7500    0.0000 C   0  0  0  0  0  0  0  0  0  0  0  0
    5.1350   -0.2500    0.0000 C   0  0  0  0  0  0  0  0  0  0  0  0
   12.0632   -0.2500    0.0000 C   0  0  0  0  0  0  0  0  0  0  0  0
   12.9292    0.2500    0.0000 C   0  0  0  0  0  0  0  0  0  0  0  0
    8.5991   -3.2500    0.0000 C   0  0  0  0  0  0  0  0  0  0  0  0
   18.9914   -0.2500    0.0000 C   0  0  0  0  0  0  0  0  0  0  0  0
    7.7331    0.2500    0.0000 C   0  0  0  0  0  0  0  0  0  0  0  0
    4.2690    3.2500    0.0000 C   0  0  0  0  0  0  0  0  0  0  0  0
   19.8574    0.2500    0.0000 C   0  0  0  0  0  0  0  0  0  0  0  0
    3.4030   -0.2500    0.0000 C   0  0  0  0  0  0  0  0  0  0  0  0
   10.8681   -0.5600    0.0000 H   0  0  0  0  0  0  0  0  0  0  0  0
   10.5432   -1.8326    0.0000 H   0  0  0  0  0  0  0  0  0  0  0  0
   10.9417   -1.1423    0.0000 H   0  0  0  0  0  0  0  0  0  0  0  0
    9.2531   -1.1674    0.0000 H   0  0  0  0  0  0  0  0  0  0  0  0
    8.8546   -1.8577    0.0000 H   0  0  0  0  0  0  0  0  0  0  0  0
    6.5380    0.5600    0.0000 H   0  0  0  0  0  0  0  0  0  0  0  0
    6.6116    1.1423    0.0000 H   0  0  0  0  0  0  0  0  0  0  0  0
    6.2131    1.8326    0.0000 H   0  0  0  0  0  0  0  0  0  0  0  0
    9.8637    0.7249    0.0000 H   0  0  0  0  0  0  0  0  0  0  0  0
    9.0666    0.7249    0.0000 H   0  0  0  0  0  0  0  0  0  0  0  0
    4.5244    1.8577    0.0000 H   0  0  0  0  0  0  0  0  0  0  0  0
    4.9230    1.1674    0.0000 H   0  0  0  0  0  0  0  0  0  0  0  0
    9.6772   -3.3326    0.0000 H   0  0  0  0  0  0  0  0  0  0  0  0
   10.0757   -2.6423    0.0000 H   0  0  0  0  0  0  0  0  0  0  0  0
   11.1972    0.8700    0.0000 H   0  0  0  0  0  0  0  0  0  0  0  0
   16.7919    0.7249    0.0000 H   0  0  0  0  0  0  0  0  0  0  0  0
   15.9948    0.7249    0.0000 H   0  0  0  0  0  0  0  0  0  0  0  0
   16.8608   -0.7249    0.0000 H   0  0  0  0  0  0  0  0  0  0  0  0
   17.6579   -0.7249    0.0000 H   0  0  0  0  0  0  0  0  0  0  0  0
   15.1288   -0.7249    0.0000 H   0  0  0  0  0  0  0  0  0  0  0  0
   15.9258   -0.7249    0.0000 H   0  0  0  0  0  0  0  0  0  0  0  0
   18.5239    0.7249    0.0000 H   0  0  0  0  0  0  0  0  0  0  0  0
   17.7269    0.7249    0.0000 H   0  0  0  0  0  0  0  0  0  0  0  0
    5.7456    2.6423    0.0000 H   0  0  0  0  0  0  0  0  0  0  0  0
    5.3471    3.3326    0.0000 H   0  0  0  0  0  0  0  0  0  0  0  0
   15.0598    0.7249    0.0000 H   0  0  0  0  0  0  0  0  0  0  0  0
   14.2628    0.7249    0.0000 H   0  0  0  0  0  0  0  0  0  0  0  0
    4.7365   -0.7249    0.0000 H   0  0  0  0  0  0  0  0  0  0  0  0
    5.5335   -0.7249    0.0000 H   0  0  0  0  0  0  0  0  0  0  0  0
    6.8671   -0.8700    0.0000 H   0  0  0  0  0  0  0  0  0  0  0  0
   13.3278    0.7249    0.0000 H   0  0  0  0  0  0  0  0  0  0  0  0
   12.5307    0.7249    0.0000 H   0  0  0  0  0  0  0  0  0  0  0  0
    8.3871   -2.6674    0.0000 H   0  0  0  0  0  0  0  0  0  0  0  0
    7.9885   -3.3577    0.0000 H   0  0  0  0  0  0  0  0  0  0  0  0
   18.5929   -0.7249    0.0000 H   0  0  0  0  0  0  0  0  0  0  0  0
   19.3899   -0.7249    0.0000 H   0  0  0  0  0  0  0  0  0  0  0  0
   13.7953   -0.8700    0.0000 H   0  0  0  0  0  0  0  0  0  0  0  0
    3.6584    3.3577    0.0000 H   0  0  0  0  0  0  0  0  0  0  0  0
    4.0569    2.6674    0.0000 H   0  0  0  0  0  0  0  0  0  0  0  0
   20.2560    0.7249    0.0000 H   0  0  0  0  0  0  0  0  0  0  0  0
   19.4589    0.7249    0.0000 H   0  0  0  0  0  0  0  0  0  0  0  0
    8.0622   -4.5600    0.0000 H   0  0  0  0  0  0  0  0  0  0  0  0
    9.1360   -4.5600    0.0000 H   0  0  0  0  0  0  0  0  0  0  0  0
    3.7320    4.5600    0.0000 H   0  0  0  0  0  0  0  0  0  0  0  0
    4.8059    4.5600    0.0000 H   0  0  0  0  0  0  0  0  0  0  0  0
   21.2604    0.0600    0.0000 H   0  0  0  0  0  0  0  0  0  0  0  0
   20.7235   -0.8700    0.0000 H   0  0  0  0  0  0  0  0  0  0  0  0
    2.0000   -0.0600    0.0000 H   0  0  0  0  0  0  0  0  0  0  0  0
  1 18  1  0  0  0  0
  1 32  1  0  0  0  0
  2 27  1  0  0  0  0
  2 35  1  0  0  0  0
  3 28  2  0  0  0  0
  4 32  2  0  0  0  0
  5 35  1  0  0  0  0
  5 83  1  0  0  0  0
  6 35  2  0  0  0  0
 13  7  1  6  0  0  0
  7 28  1  0  0  0  0
  7 50  1  0  0  0  0
 16  8  1  6  0  0  0
  8 32  1  0  0  0  0
  8 65  1  0  0  0  0
  9 25  1  0  0  0  0
  9 29  1  0  0  0  0
  9 72  1  0  0  0  0
 10 30  1  0  0  0  0
 10 77  1  0  0  0  0
 10 78  1  0  0  0  0
 11 33  1  0  0  0  0
 11 79  1  0  0  0  0
 11 80  1  0  0  0  0
 12 34  1  0  0  0  0
 12 81  1  0  0  0  0
 12 82  1  0  0  0  0
 13 14  1  0  0  0  0
 13 18  1  0  0  0  0
 13 36  1  0  0  0  0
 14 15  1  0  0  0  0
 14 37  1  0  0  0  0
 14 38  1  0  0  0  0
 15 20  1  0  0  0  0
 15 39  1  0  0  0  0
 15 40  1  0  0  0  0
 16 17  1  0  0  0  0
 16 27  1  0  0  0  0
 16 41  1  0  0  0  0
 17 19  1  0  0  0  0
 17 42  1  0  0  0  0
 17 43  1  0  0  0  0
 18 44  1  0  0  0  0
 18 45  1  0  0  0  0
 19 26  1  0  0  0  0
 19 46  1  0  0  0  0
 19 47  1  0  0  0  0
 20 30  1  0  0  0  0
 20 48  1  0  0  0  0
 20 49  1  0  0  0  0
 21 22  1  0  0  0  0
 21 23  1  0  0  0  0
 21 51  1  0  0  0  0
 21 52  1  0  0  0  0
 22 24  1  0  0  0  0
 22 53  1  0  0  0  0
 22 54  1  0  0  0  0
 23 25  1  0  0  0  0
 23 55  1  0  0  0  0
 23 56  1  0  0  0  0
 24 31  1  0  0  0  0
 24 57  1  0  0  0  0
 24 58  1  0  0  0  0
 25 61  1  0  0  0  0
 25 62  1  0  0  0  0
 26 33  1  0  0  0  0
 26 59  1  0  0  0  0
 26 60  1  0  0  0  0
 27 63  1  0  0  0  0
 27 64  1  0  0  0  0
 28 29  1  0  0  0  0
 29 66  1  0  0  0  0
 29 67  1  0  0  0  0
 30 68  1  0  0  0  0
 30 69  1  0  0  0  0
 31 34  1  0  0  0  0
 31 70  1  0  0  0  0
 31 71  1  0  0  0  0
 33 73  1  0  0  0  0
 33 74  1  0  0  0  0
 34 75  1  0  0  0  0
 34 76  1  0  0  0  0
M  END
> <PUBCHEM_COMPOUND_CID>
513290
> <PUBCHEM_COMPOUND_CANONICALIZED>
1
> <PUBCHEM_CACTVS_COMPLEXITY>
555
> <PUBCHEM_CACTVS_HBOND_ACCEPTOR>
10
> <PUBCHEM_CACTVS_HBOND_DONOR>
7
> <PUBCHEM_CACTVS_ROTATABLE_BOND>
25
> <PUBCHEM_CACTVS_SUBSKEYS>
AAADcfB7uAAAAAAAAAAAAAAAAAAAAAAAAAAAAAAAAAAAAAAAAAAAHgAQCAAACCjhgAYACALABgAIAAEQGAAAAAAAAAAAAICIAAESQAIAgCAdAAAEFgCUAAGQwAAAAAAAAAAAAAAAAAAAAAAAAAAAAAAAAA==
> <PUBCHEM_IUPAC_OPENEYE_NAME>
[(2S)-6-amino-2-[[(2R)-6-amino-2-[[2-(7-aminoheptylamino)acetyl]amino]hexoxy]carbonylamino]hexyl] hydrogen carbonate
> <PUBCHEM_IUPAC_CAS_NAME>
carbonic acid [(2S)-6-amino-2-[[[(2R)-6-amino-2-[[2-(7-aminoheptylamino)-1-oxoethyl]amino]hexoxy]-oxomethyl]amino]hexyl] ester
> <PUBCHEM_IUPAC_NAME_MARKUP>
[(2<I>S</I>)-6-amino-2-[[(2<I>R</I>)-6-amino-2-[[2-(7-aminoheptylamino)acetyl]amino]hexoxy]carbonylamino]hexyl] hydrogen carbonate
> <PUBCHEM_IUPAC_NAME>
[(2S)-6-amino-2-[[(2R)-6-amino-2-[[2-(7-aminoheptylamino)acetyl]amino]hexoxy]carbonylamino]hexyl] hydrogen carbonate
> <PUBCHEM_IUPAC_SYSTEMATIC_NAME>
[(2S)-6-azanyl-2-[[(2R)-6-azanyl-2-[2-(7-azanylheptylamino)ethanoylamino]hexoxy]carbonylamino]hexyl] hydrogen carbonate
> <PUBCHEM_IUPAC_TRADITIONAL_NAME>
carbonic acid [(2S)-6-amino-2-[[(2R)-6-amino-2-[[2-(7-aminoheptylamino)acetyl]amino]hexoxy]carbonylamino]hexyl] ester
> <PUBCHEM_IUPAC_INCHI>
InChI=1S/C23H48N6O6/c24-12-6-2-1-3-9-15-27-16-21(30)28-19(10-4-7-13-25)17-34-22(31)29-20(11-5-8-14-26)18-35-23(32)33/h19-20,27H,1-18,24-26H2,(H,28,30)(H,29,31)(H,32,33)/t19-,20+/m1/s1
> <PUBCHEM_IUPAC_INCHIKEY>
OGAGOXVPMLXGHW-UXHICEINSA-N
> <PUBCHEM_XLOGP3_AA>
-2
> <PUBCHEM_EXACT_MASS>
504.36353327
> <PUBCHEM_MOLECULAR_FORMULA>
C23H48N6O6
> <PUBCHEM_MOLECULAR_WEIGHT>
504.7
> <PUBCHEM_OPENEYE_CAN_SMILES>
C(CCCN)CCCNCC(=O)NC(CCCCN)COC(=O)NC(CCCCN)COC(=O)O
> <PUBCHEM_OPENEYE_ISO_SMILES>
C(CCCN)CCCNCC(=O)N[C@H](CCCCN)COC(=O)N[C@@H](CCCCN)COC(=O)O
> <PUBCHEM_CACTVS_TPSA>
204
> <PUBCHEM_MONOISOTOPIC_WEIGHT>
504.36353327
> <PUBCHEM_TOTAL_CHARGE>
0
> <PUBCHEM_HEAVY_ATOM_COUNT>
35
> <PUBCHEM_ATOM_DEF_STEREO_COUNT>
2
> <PUBCHEM_ATOM_UDEF_STEREO_COUNT>
0
> <PUBCHEM_BOND_DEF_STEREO_COUNT>
0
> <PUBCHEM_BOND_UDEF_STEREO_COUNT>
0
> <PUBCHEM_ISOTOPIC_ATOM_COUNT>
0
> <PUBCHEM_COMPONENT_COUNT>
1
> <PUBCHEM_CACTVS_TAUTO_COUNT>
-1
> <PUBCHEM_COORDINATE_TYPE>
1
5
255
> <PUBCHEM_BONDANNOTATIONS>
13  7  6
16  8  6
$$$$
