513268
  -OEChem-10302200282D
 34 35  0     1  0  0  0  0  0999 V2000
    8.9702    2.6502    0.0000 P   0  0  0  0  0  0  0  0  0  0  0  0
    9.0168    0.0048    0.0000 F   0  0  0  0  0  0  0  0  0  0  0  0
    7.6811    1.4934    0.0000 O   0  0  0  0  0  0  0  0  0  0  0  0
    9.2809    3.6007    0.0000 O   0  0  0  0  0  0  0  0  0  0  0  0
    9.9208    2.3395    0.0000 O   0  0  0  0  0  0  0  0  0  0  0  0
    8.0197    2.9608    0.0000 O   0  0  0  0  0  0  0  0  0  0  0  0
    6.0812   -0.6138    0.0000 N   0  0  0  0  0  0  0  0  0  0  0  0
    6.6648   -1.4186    0.0000 N   0  0  0  0  0  0  0  0  0  0  0  0
    6.0812   -2.2233    0.0000 N   0  0  0  0  0  0  0  0  0  0  0  0
    4.2690   -0.4186    0.0000 N   0  0  0  0  0  0  0  0  0  0  0  0
    3.4030   -1.9186    0.0000 N   0  0  0  0  0  0  0  0  0  0  0  0
    4.2690   -3.4186    0.0000 N   0  0  0  0  0  0  0  0  0  0  0  0
    2.5369   -0.4186    0.0000 N   0  0  0  0  0  0  0  0  0  0  0  0
    7.3704    0.5429    0.0000 C   0  0  1  0  0  0  0  0  0  0  0  0
    6.3919    0.3367    0.0000 C   0  0  0  0  0  0  0  0  0  0  0  0
    8.0382   -0.2014    0.0000 C   0  0  0  0  0  0  0  0  0  0  0  0
    5.1350   -0.9186    0.0000 C   0  0  0  0  0  0  0  0  0  0  0  0
    8.6596    1.6997    0.0000 C   0  0  0  0  0  0  0  0  0  0  0  0
    5.1350   -1.9186    0.0000 C   0  0  0  0  0  0  0  0  0  0  0  0
    4.2690   -2.4186    0.0000 C   0  0  0  0  0  0  0  0  0  0  0  0
    3.4030   -0.9186    0.0000 C   0  0  0  0  0  0  0  0  0  0  0  0
    7.9771    0.6708    0.0000 H   0  0  0  0  0  0  0  0  0  0  0  0
    6.3713    0.9564    0.0000 H   0  0  0  0  0  0  0  0  0  0  0  0
    5.7781    0.4240    0.0000 H   0  0  0  0  0  0  0  0  0  0  0  0
    7.5119   -0.5290    0.0000 H   0  0  0  0  0  0  0  0  0  0  0  0
    8.2695   -0.7766    0.0000 H   0  0  0  0  0  0  0  0  0  0  0  0
    8.6801    1.0800    0.0000 H   0  0  0  0  0  0  0  0  0  0  0  0
    9.2734    1.6123    0.0000 H   0  0  0  0  0  0  0  0  0  0  0  0
    3.7320   -3.7286    0.0000 H   0  0  0  0  0  0  0  0  0  0  0  0
    4.8059   -3.7286    0.0000 H   0  0  0  0  0  0  0  0  0  0  0  0
    9.8876    3.7286    0.0000 H   0  0  0  0  0  0  0  0  0  0  0  0
   10.0486    1.7328    0.0000 H   0  0  0  0  0  0  0  0  0  0  0  0
    2.0000   -0.7286    0.0000 H   0  0  0  0  0  0  0  0  0  0  0  0
    2.5369    0.2014    0.0000 H   0  0  0  0  0  0  0  0  0  0  0  0
  1  4  1  0  0  0  0
  1  5  1  0  0  0  0
  1  6  2  0  0  0  0
  1 18  1  0  0  0  0
  2 16  1  0  0  0  0
 14  3  1  6  0  0  0
  3 18  1  0  0  0  0
  4 31  1  0  0  0  0
  5 32  1  0  0  0  0
  7  8  1  0  0  0  0
  7 15  1  0  0  0  0
  7 17  1  0  0  0  0
  8  9  2  0  0  0  0
  9 19  1  0  0  0  0
 10 17  2  0  0  0  0
 10 21  1  0  0  0  0
 11 20  1  0  0  0  0
 11 21  2  0  0  0  0
 12 20  1  0  0  0  0
 12 29  1  0  0  0  0
 12 30  1  0  0  0  0
 13 21  1  0  0  0  0
 13 33  1  0  0  0  0
 13 34  1  0  0  0  0
 14 15  1  0  0  0  0
 14 16  1  0  0  0  0
 14 22  1  0  0  0  0
 15 23  1  0  0  0  0
 15 24  1  0  0  0  0
 16 25  1  0  0  0  0
 16 26  1  0  0  0  0
 17 19  1  0  0  0  0
 18 27  1  0  0  0  0
 18 28  1  0  0  0  0
 19 20  2  0  0  0  0
M  END
> <PUBCHEM_COMPOUND_CID>
513268
> <PUBCHEM_COMPOUND_CANONICALIZED>
1
> <PUBCHEM_CACTVS_COMPLEXITY>
401
> <PUBCHEM_CACTVS_HBOND_ACCEPTOR>
11
> <PUBCHEM_CACTVS_HBOND_DONOR>
4
> <PUBCHEM_CACTVS_ROTATABLE_BOND>
6
> <PUBCHEM_CACTVS_SUBSKEYS>
AAADccBzuQIAAAAAAAAAAAAAAAAAAWAAAAAsAAAAAAAAAFgB+AAAHwgYCCAACBzhlwYB8L5IFBCiQQZgZICAhC8BkKAVUCAoVBCCSABASEAVBAgIAALQACAAAAAAAAAAAAAAAAAAAAAAAAAAAAAAAAAAAA==
> <PUBCHEM_IUPAC_OPENEYE_NAME>
[(1S)-1-[(5,7-diaminotriazolo[4,5-d]pyrimidin-3-yl)methyl]-2-fluoro-ethoxy]methylphosphonic acid
> <PUBCHEM_IUPAC_CAS_NAME>
[(2S)-1-(5,7-diamino-3-triazolo[4,5-d]pyrimidinyl)-3-fluoropropan-2-yl]oxymethylphosphonic acid
> <PUBCHEM_IUPAC_NAME_MARKUP>
[(2<I>S</I>)-1-(5,7-diaminotriazolo[4,5-d]pyrimidin-3-yl)-3-fluoropropan-2-yl]oxymethylphosphonic acid
> <PUBCHEM_IUPAC_NAME>
[(2S)-1-(5,7-diaminotriazolo[4,5-d]pyrimidin-3-yl)-3-fluoropropan-2-yl]oxymethylphosphonic acid
> <PUBCHEM_IUPAC_SYSTEMATIC_NAME>
[(2S)-1-[5,7-bis(azanyl)-[1,2,3]triazolo[4,5-d]pyrimidin-3-yl]-3-fluoranyl-propan-2-yl]oxymethylphosphonic acid
> <PUBCHEM_IUPAC_TRADITIONAL_NAME>
[(1S)-1-[(5,7-diaminotriazolo[4,5-d]pyrimidin-3-yl)methyl]-2-fluoro-ethoxy]methylphosphonic acid
> <PUBCHEM_IUPAC_INCHI>
InChI=1S/C8H13FN7O4P/c9-1-4(20-3-21(17,18)19)2-16-7-5(14-15-16)6(10)12-8(11)13-7/h4H,1-3H2,(H2,17,18,19)(H4,10,11,12,13)/t4-/m1/s1
> <PUBCHEM_IUPAC_INCHIKEY>
BZVKDXBBAQWXEO-SCSAIBSYSA-N
> <PUBCHEM_XLOGP3_AA>
-2.5
> <PUBCHEM_EXACT_MASS>
321.07506708
> <PUBCHEM_MOLECULAR_FORMULA>
C8H13FN7O4P
> <PUBCHEM_MOLECULAR_WEIGHT>
321.21
> <PUBCHEM_OPENEYE_CAN_SMILES>
C(C(CF)OCP(=O)(O)O)N1C2=NC(=NC(=C2N=N1)N)N
> <PUBCHEM_OPENEYE_ISO_SMILES>
C([C@@H](CF)OCP(=O)(O)O)N1C2=NC(=NC(=C2N=N1)N)N
> <PUBCHEM_CACTVS_TPSA>
175
> <PUBCHEM_MONOISOTOPIC_WEIGHT>
321.07506708
> <PUBCHEM_TOTAL_CHARGE>
0
> <PUBCHEM_HEAVY_ATOM_COUNT>
21
> <PUBCHEM_ATOM_DEF_STEREO_COUNT>
1
> <PUBCHEM_ATOM_UDEF_STEREO_COUNT>
0
> <PUBCHEM_BOND_DEF_STEREO_COUNT>
0
> <PUBCHEM_BOND_UDEF_STEREO_COUNT>
0
> <PUBCHEM_ISOTOPIC_ATOM_COUNT>
0
> <PUBCHEM_COMPONENT_COUNT>
1
> <PUBCHEM_CACTVS_TAUTO_COUNT>
-1
> <PUBCHEM_COORDINATE_TYPE>
1
5
255
> <PUBCHEM_BONDANNOTATIONS>
10  17  8
10  21  8
11  20  8
11  21  8
17  19  8
19  20  8
14  3  6
7  17  8
7  8  8
8  9  8
9  19  8
$$$$
