513230
  -OEChem-10302200282D
 51 53  0     1  0  0  0  0  0999 V2000
    5.5321   -1.8308    0.0000 P   0  0  3  0  0  0  0  0  0  0  0  0
    6.5321   -1.8308    0.0000 O   0  0  0  0  0  0  0  0  0  0  0  0
    4.6660   -2.3308    0.0000 O   0  0  0  0  0  0  0  0  0  0  0  0
    5.5321   -0.8308    0.0000 O   0  0  0  0  0  0  0  0  0  0  0  0
    9.5321   -1.8308    0.0000 O   0  0  0  0  0  0  0  0  0  0  0  0
    6.0321   -2.6968    0.0000 O   0  0  0  0  0  0  0  0  0  0  0  0
   11.5321   -0.0987    0.0000 O   0  0  0  0  0  0  0  0  0  0  0  0
   11.5321    3.3654    0.0000 O   0  0  0  0  0  0  0  0  0  0  0  0
   10.0321    0.7673    0.0000 N   0  0  0  0  0  0  0  0  0  0  0  0
   11.5321    1.6333    0.0000 N   0  0  0  0  0  0  0  0  0  0  0  0
    8.0321   -0.9648    0.0000 C   0  0  3  0  0  0  0  0  0  0  0  0
    8.5321   -0.0987    0.0000 C   0  0  0  0  0  0  0  0  0  0  0  0
    7.0321   -0.9648    0.0000 C   0  0  0  0  0  0  0  0  0  0  0  0
    9.5321   -0.0987    0.0000 C   0  0  0  0  0  0  0  0  0  0  0  0
    8.5321   -1.8308    0.0000 C   0  0  0  0  0  0  0  0  0  0  0  0
    3.8000   -1.8308    0.0000 C   0  0  0  0  0  0  0  0  0  0  0  0
    3.8000   -0.8308    0.0000 C   0  0  0  0  0  0  0  0  0  0  0  0
    9.5321    1.6333    0.0000 C   0  0  0  0  0  0  0  0  0  0  0  0
    4.6660   -0.3308    0.0000 C   0  0  0  0  0  0  0  0  0  0  0  0
   11.0321    0.7673    0.0000 C   0  0  0  0  0  0  0  0  0  0  0  0
   10.0321    2.4994    0.0000 C   0  0  0  0  0  0  0  0  0  0  0  0
    2.9061   -2.3654    0.0000 C   0  0  0  0  0  0  0  0  0  0  0  0
    2.9061   -0.2961    0.0000 C   0  0  0  0  0  0  0  0  0  0  0  0
   11.0321    2.4994    0.0000 C   0  0  0  0  0  0  0  0  0  0  0  0
    2.0000   -1.8516    0.0000 C   0  0  0  0  0  0  0  0  0  0  0  0
    2.0000   -0.8100    0.0000 C   0  0  0  0  0  0  0  0  0  0  0  0
    2.9176   -3.3654    0.0000 C   0  0  0  0  0  0  0  0  0  0  0  0
    9.5321    3.3654    0.0000 C   0  0  0  0  0  0  0  0  0  0  0  0
    7.7221   -1.5017    0.0000 H   0  0  0  0  0  0  0  0  0  0  0  0
    8.6397    0.5119    0.0000 H   0  0  0  0  0  0  0  0  0  0  0  0
    7.9494    0.1133    0.0000 H   0  0  0  0  0  0  0  0  0  0  0  0
    7.1397   -0.3542    0.0000 H   0  0  0  0  0  0  0  0  0  0  0  0
    6.4494   -0.7527    0.0000 H   0  0  0  0  0  0  0  0  0  0  0  0
    9.4244   -0.7093    0.0000 H   0  0  0  0  0  0  0  0  0  0  0  0
   10.1147   -0.3108    0.0000 H   0  0  0  0  0  0  0  0  0  0  0  0
    7.9494   -2.0428    0.0000 H   0  0  0  0  0  0  0  0  0  0  0  0
    8.6397   -2.4414    0.0000 H   0  0  0  0  0  0  0  0  0  0  0  0
    8.9121    1.6333    0.0000 H   0  0  0  0  0  0  0  0  0  0  0  0
    5.0646    0.1442    0.0000 H   0  0  0  0  0  0  0  0  0  0  0  0
    4.2675    0.1442    0.0000 H   0  0  0  0  0  0  0  0  0  0  0  0
    9.8421   -2.3677    0.0000 H   0  0  0  0  0  0  0  0  0  0  0  0
    2.9132    0.3238    0.0000 H   0  0  0  0  0  0  0  0  0  0  0  0
   12.1521    1.6333    0.0000 H   0  0  0  0  0  0  0  0  0  0  0  0
    1.4643   -2.1637    0.0000 H   0  0  0  0  0  0  0  0  0  0  0  0
    1.4643   -0.4979    0.0000 H   0  0  0  0  0  0  0  0  0  0  0  0
    2.2977   -3.3725    0.0000 H   0  0  0  0  0  0  0  0  0  0  0  0
    2.9248   -3.9853    0.0000 H   0  0  0  0  0  0  0  0  0  0  0  0
    3.5376   -3.3582    0.0000 H   0  0  0  0  0  0  0  0  0  0  0  0
   10.0690    3.6754    0.0000 H   0  0  0  0  0  0  0  0  0  0  0  0
    9.2221    3.9023    0.0000 H   0  0  0  0  0  0  0  0  0  0  0  0
    8.9951    3.0554    0.0000 H   0  0  0  0  0  0  0  0  0  0  0  0
  1  2  1  0  0  0  0
  1  3  1  0  0  0  0
  1  4  1  0  0  0  0
  1  6  2  0  0  0  0
  2 13  1  0  0  0  0
  3 16  1  0  0  0  0
  4 19  1  0  0  0  0
  5 15  1  0  0  0  0
  5 41  1  0  0  0  0
  7 20  2  0  0  0  0
  8 24  2  0  0  0  0
  9 14  1  0  0  0  0
  9 18  1  0  0  0  0
  9 20  1  0  0  0  0
 10 20  1  0  0  0  0
 10 24  1  0  0  0  0
 10 43  1  0  0  0  0
 11 12  1  0  0  0  0
 11 13  1  0  0  0  0
 11 15  1  0  0  0  0
 11 29  1  0  0  0  0
 12 14  1  0  0  0  0
 12 30  1  0  0  0  0
 12 31  1  0  0  0  0
 13 32  1  0  0  0  0
 13 33  1  0  0  0  0
 14 34  1  0  0  0  0
 14 35  1  0  0  0  0
 15 36  1  0  0  0  0
 15 37  1  0  0  0  0
 16 17  1  0  0  0  0
 16 22  2  0  0  0  0
 17 19  1  0  0  0  0
 17 23  2  0  0  0  0
 18 21  2  0  0  0  0
 18 38  1  0  0  0  0
 19 39  1  0  0  0  0
 19 40  1  0  0  0  0
 21 24  1  0  0  0  0
 21 28  1  0  0  0  0
 22 25  1  0  0  0  0
 22 27  1  0  0  0  0
 23 26  1  0  0  0  0
 23 42  1  0  0  0  0
 25 26  2  0  0  0  0
 25 44  1  0  0  0  0
 26 45  1  0  0  0  0
 27 46  1  0  0  0  0
 27 47  1  0  0  0  0
 27 48  1  0  0  0  0
 28 49  1  0  0  0  0
 28 50  1  0  0  0  0
 28 51  1  0  0  0  0
M  END
> <PUBCHEM_COMPOUND_CID>
513230
> <PUBCHEM_COMPOUND_CANONICALIZED>
1
> <PUBCHEM_CACTVS_COMPLEXITY>
683
> <PUBCHEM_CACTVS_HBOND_ACCEPTOR>
7
> <PUBCHEM_CACTVS_HBOND_DONOR>
2
> <PUBCHEM_CACTVS_ROTATABLE_BOND>
7
> <PUBCHEM_CACTVS_SUBSKEYS>
AAADceB7OAIAAAAAAAAAAAAAAAAAAAAAAAA0QIAAAAAAAACRAAAAHgAQCCAADQThmAYzBoPAAxCIQiFWUICCAAAgIAAIiAEMCMiINyKAkRKEcAAtxzMIiMegwGAOAAACAAAIAAAAAAQAABAAAAAAAAAAAA==
> <PUBCHEM_IUPAC_OPENEYE_NAME>
1-[3-(hydroxymethyl)-4-[(8-methyl-2-oxo-4H-1,3,2lambda5-benzodioxaphosphinin-2-yl)oxy]butyl]-5-methyl-pyrimidine-2,4-dione
> <PUBCHEM_IUPAC_CAS_NAME>
1-[3-(hydroxymethyl)-4-[(8-methyl-2-oxo-4H-1,3,2lambda5-benzodioxaphosphorin-2-yl)oxy]butyl]-5-methylpyrimidine-2,4-dione
> <PUBCHEM_IUPAC_NAME_MARKUP>
1-[3-(hydroxymethyl)-4-[(8-methyl-2-oxo-4<I>H</I>-1,3,2&lambda;<SUP>5</SUP>-benzodioxaphosphinin-2-yl)oxy]butyl]-5-methylpyrimidine-2,4-dione
> <PUBCHEM_IUPAC_NAME>
1-[3-(hydroxymethyl)-4-[(8-methyl-2-oxo-4H-1,3,2lambda5-benzodioxaphosphinin-2-yl)oxy]butyl]-5-methylpyrimidine-2,4-dione
> <PUBCHEM_IUPAC_SYSTEMATIC_NAME>
1-[3-(hydroxymethyl)-4-[(8-methyl-2-oxidanylidene-4H-1,3,2lambda5-benzodioxaphosphinin-2-yl)oxy]butyl]-5-methyl-pyrimidine-2,4-dione
> <PUBCHEM_IUPAC_TRADITIONAL_NAME>
1-[4-hydroxy-3-[(2-keto-8-methyl-4H-1,3,2lambda5-benzodioxaphosphorin-2-yl)oxymethyl]butyl]-5-methyl-pyrimidine-2,4-quinone
> <PUBCHEM_IUPAC_INCHI>
InChI=1S/C18H23N2O7P/c1-12-4-3-5-15-11-26-28(24,27-16(12)15)25-10-14(9-21)6-7-20-8-13(2)17(22)19-18(20)23/h3-5,8,14,21H,6-7,9-11H2,1-2H3,(H,19,22,23)
> <PUBCHEM_IUPAC_INCHIKEY>
MQJYPTDCELIJIP-UHFFFAOYSA-N
> <PUBCHEM_XLOGP3_AA>
0.6
> <PUBCHEM_EXACT_MASS>
410.12428807
> <PUBCHEM_MOLECULAR_FORMULA>
C18H23N2O7P
> <PUBCHEM_MOLECULAR_WEIGHT>
410.4
> <PUBCHEM_OPENEYE_CAN_SMILES>
CC1=C2C(=CC=C1)COP(=O)(O2)OCC(CCN3C=C(C(=O)NC3=O)C)CO
> <PUBCHEM_OPENEYE_ISO_SMILES>
CC1=C2C(=CC=C1)COP(=O)(O2)OCC(CCN3C=C(C(=O)NC3=O)C)CO
> <PUBCHEM_CACTVS_TPSA>
114
> <PUBCHEM_MONOISOTOPIC_WEIGHT>
410.12428807
> <PUBCHEM_TOTAL_CHARGE>
0
> <PUBCHEM_HEAVY_ATOM_COUNT>
28
> <PUBCHEM_ATOM_DEF_STEREO_COUNT>
0
> <PUBCHEM_ATOM_UDEF_STEREO_COUNT>
2
> <PUBCHEM_BOND_DEF_STEREO_COUNT>
0
> <PUBCHEM_BOND_UDEF_STEREO_COUNT>
0
> <PUBCHEM_ISOTOPIC_ATOM_COUNT>
0
> <PUBCHEM_COMPONENT_COUNT>
1
> <PUBCHEM_CACTVS_TAUTO_COUNT>
-1
> <PUBCHEM_COORDINATE_TYPE>
1
5
255
> <PUBCHEM_BONDANNOTATIONS>
1  2  3
10  20  8
10  24  8
11  12  3
16  17  8
16  22  8
17  23  8
18  21  8
21  24  8
22  25  8
23  26  8
25  26  8
9  18  8
9  20  8
$$$$
