513205
  -OEChem-10302200282D
 68 72  0     1  0  0  0  0  0999 V2000
    7.4595    1.9958    0.0000 P   0  0  3  0  0  0  0  0  0  0  0  0
    6.6495    1.4094    0.0000 O   0  0  0  0  0  0  0  0  0  0  0  0
    6.8731    2.8058    0.0000 O   0  0  0  0  0  0  0  0  0  0  0  0
    8.0459    1.1857    0.0000 O   0  0  0  0  0  0  0  0  0  0  0  0
   10.1980    0.7708    0.0000 O   0  0  0  0  0  0  0  0  0  0  0  0
    8.4752    0.5928    0.0000 O   0  0  0  0  0  0  0  0  0  0  0  0
    4.6783   -2.4296    0.0000 N   0  0  0  0  0  0  0  0  0  0  0  0
    4.6783   -4.0391    0.0000 N   0  0  0  0  0  0  0  0  0  0  0  0
    8.2695    2.5822    0.0000 N   0  0  0  0  0  0  0  0  0  0  0  0
    2.8660   -2.2343    0.0000 N   0  0  0  0  0  0  0  0  0  0  0  0
    2.0000   -3.7343    0.0000 N   0  0  0  0  0  0  0  0  0  0  0  0
    2.8660   -5.2343    0.0000 N   0  0  0  0  0  0  0  0  0  0  0  0
    5.9422   -0.1717    0.0000 C   0  0  2  0  0  0  0  0  0  0  0  0
    4.9889   -1.4791    0.0000 C   0  0  1  0  0  0  0  0  0  0  0  0
    5.9405   -1.1717    0.0000 C   0  0  0  0  0  0  0  0  0  0  0  0
    4.9917    0.1390    0.0000 C   0  0  0  0  0  0  0  0  0  0  0  0
    4.4026   -0.6690    0.0000 C   0  0  0  0  0  0  0  0  0  0  0  0
    6.7523    0.4147    0.0000 C   0  0  0  0  0  0  0  0  0  0  0  0
    3.7320   -2.7343    0.0000 C   0  0  0  0  0  0  0  0  0  0  0  0
    5.2619   -3.2343    0.0000 C   0  0  0  0  0  0  0  0  0  0  0  0
    3.7320   -3.7343    0.0000 C   0  0  0  0  0  0  0  0  0  0  0  0
    9.1824    2.1738    0.0000 C   0  0  2  0  0  0  0  0  0  0  0  0
    2.8660   -4.2343    0.0000 C   0  0  0  0  0  0  0  0  0  0  0  0
    9.9924    2.7602    0.0000 C   0  0  0  0  0  0  0  0  0  0  0  0
    2.0000   -2.7343    0.0000 C   0  0  0  0  0  0  0  0  0  0  0  0
   10.9053    2.3519    0.0000 C   0  0  0  0  0  0  0  0  0  0  0  0
    9.2852    1.1791    0.0000 C   0  0  0  0  0  0  0  0  0  0  0  0
    7.2814    3.7186    0.0000 C   0  0  0  0  0  0  0  0  0  0  0  0
   11.7153    2.9383    0.0000 C   0  0  0  0  0  0  0  0  0  0  0  0
   11.0081    1.3572    0.0000 C   0  0  0  0  0  0  0  0  0  0  0  0
    6.6951    4.5287    0.0000 C   0  0  0  0  0  0  0  0  0  0  0  0
    8.2762    3.8214    0.0000 C   0  0  0  0  0  0  0  0  0  0  0  0
   12.6281    2.5300    0.0000 C   0  0  0  0  0  0  0  0  0  0  0  0
   11.9209    0.9489    0.0000 C   0  0  0  0  0  0  0  0  0  0  0  0
   12.7309    1.5353    0.0000 C   0  0  0  0  0  0  0  0  0  0  0  0
    7.1034    5.4415    0.0000 C   0  0  0  0  0  0  0  0  0  0  0  0
    8.6845    4.7343    0.0000 C   0  0  0  0  0  0  0  0  0  0  0  0
   10.3008   -0.2239    0.0000 C   0  0  0  0  0  0  0  0  0  0  0  0
    8.0981    5.5443    0.0000 C   0  0  0  0  0  0  0  0  0  0  0  0
    6.4942   -0.4541    0.0000 H   0  0  0  0  0  0  0  0  0  0  0  0
    5.4266   -1.9182    0.0000 H   0  0  0  0  0  0  0  0  0  0  0  0
    6.0684   -1.7784    0.0000 H   0  0  0  0  0  0  0  0  0  0  0  0
    6.5572   -1.1080    0.0000 H   0  0  0  0  0  0  0  0  0  0  0  0
    4.8012    0.7289    0.0000 H   0  0  0  0  0  0  0  0  0  0  0  0
    3.7826   -0.6680    0.0000 H   0  0  0  0  0  0  0  0  0  0  0  0
    7.0231   -0.1430    0.0000 H   0  0  0  0  0  0  0  0  0  0  0  0
    7.3486    0.5845    0.0000 H   0  0  0  0  0  0  0  0  0  0  0  0
    5.8819   -3.2343    0.0000 H   0  0  0  0  0  0  0  0  0  0  0  0
    8.6802    1.8103    0.0000 H   0  0  0  0  0  0  0  0  0  0  0  0
    8.2058    3.1989    0.0000 H   0  0  0  0  0  0  0  0  0  0  0  0
   10.3400    3.2736    0.0000 H   0  0  0  0  0  0  0  0  0  0  0  0
    9.5472    3.1917    0.0000 H   0  0  0  0  0  0  0  0  0  0  0  0
    1.4631   -2.4243    0.0000 H   0  0  0  0  0  0  0  0  0  0  0  0
    2.3291   -5.5443    0.0000 H   0  0  0  0  0  0  0  0  0  0  0  0
    3.4030   -5.5443    0.0000 H   0  0  0  0  0  0  0  0  0  0  0  0
   11.6516    3.5550    0.0000 H   0  0  0  0  0  0  0  0  0  0  0  0
   10.5058    0.9936    0.0000 H   0  0  0  0  0  0  0  0  0  0  0  0
    6.0783    4.4649    0.0000 H   0  0  0  0  0  0  0  0  0  0  0  0
    8.6397    3.3192    0.0000 H   0  0  0  0  0  0  0  0  0  0  0  0
   13.1304    2.8935    0.0000 H   0  0  0  0  0  0  0  0  0  0  0  0
   11.9846    0.3322    0.0000 H   0  0  0  0  0  0  0  0  0  0  0  0
   13.2969    1.2821    0.0000 H   0  0  0  0  0  0  0  0  0  0  0  0
    6.7398    5.9437    0.0000 H   0  0  0  0  0  0  0  0  0  0  0  0
    9.3012    4.7980    0.0000 H   0  0  0  0  0  0  0  0  0  0  0  0
    9.6841   -0.2876    0.0000 H   0  0  0  0  0  0  0  0  0  0  0  0
   10.3646   -0.8406    0.0000 H   0  0  0  0  0  0  0  0  0  0  0  0
   10.9176   -0.1601    0.0000 H   0  0  0  0  0  0  0  0  0  0  0  0
    8.3512    6.1103    0.0000 H   0  0  0  0  0  0  0  0  0  0  0  0
  1  2  1  0  0  0  0
  1  3  1  0  0  0  0
  1  4  2  0  0  0  0
  1  9  1  0  0  0  0
  2 18  1  0  0  0  0
  3 28  1  0  0  0  0
  5 27  1  0  0  0  0
  5 38  1  0  0  0  0
  6 27  2  0  0  0  0
 14  7  1  6  0  0  0
  7 19  1  0  0  0  0
  7 20  1  0  0  0  0
  8 20  2  0  0  0  0
  8 21  1  0  0  0  0
 22  9  1  6  0  0  0
  9 50  1  0  0  0  0
 10 19  2  0  0  0  0
 10 25  1  0  0  0  0
 11 23  1  0  0  0  0
 11 25  2  0  0  0  0
 12 23  1  0  0  0  0
 12 54  1  0  0  0  0
 12 55  1  0  0  0  0
 13 15  1  0  0  0  0
 13 16  1  0  0  0  0
 13 18  1  6  0  0  0
 13 40  1  0  0  0  0
 14 15  1  0  0  0  0
 14 17  1  0  0  0  0
 14 41  1  0  0  0  0
 15 42  1  0  0  0  0
 15 43  1  0  0  0  0
 16 17  2  0  0  0  0
 16 44  1  0  0  0  0
 17 45  1  0  0  0  0
 18 46  1  0  0  0  0
 18 47  1  0  0  0  0
 19 21  1  0  0  0  0
 20 48  1  0  0  0  0
 21 23  2  0  0  0  0
 22 24  1  0  0  0  0
 22 27  1  0  0  0  0
 22 49  1  0  0  0  0
 24 26  1  0  0  0  0
 24 51  1  0  0  0  0
 24 52  1  0  0  0  0
 25 53  1  0  0  0  0
 26 29  2  0  0  0  0
 26 30  1  0  0  0  0
 28 31  2  0  0  0  0
 28 32  1  0  0  0  0
 29 33  1  0  0  0  0
 29 56  1  0  0  0  0
 30 34  2  0  0  0  0
 30 57  1  0  0  0  0
 31 36  1  0  0  0  0
 31 58  1  0  0  0  0
 32 37  2  0  0  0  0
 32 59  1  0  0  0  0
 33 35  2  0  0  0  0
 33 60  1  0  0  0  0
 34 35  1  0  0  0  0
 34 61  1  0  0  0  0
 35 62  1  0  0  0  0
 36 39  2  0  0  0  0
 36 63  1  0  0  0  0
 37 39  1  0  0  0  0
 37 64  1  0  0  0  0
 38 65  1  0  0  0  0
 38 66  1  0  0  0  0
 38 67  1  0  0  0  0
 39 68  1  0  0  0  0
M  END
> <PUBCHEM_COMPOUND_CID>
513205
> <PUBCHEM_COMPOUND_CANONICALIZED>
1
> <PUBCHEM_CACTVS_COMPLEXITY>
883
> <PUBCHEM_CACTVS_HBOND_ACCEPTOR>
10
> <PUBCHEM_CACTVS_HBOND_DONOR>
2
> <PUBCHEM_CACTVS_ROTATABLE_BOND>
12
> <PUBCHEM_CACTVS_SUBSKEYS>
AAADceB7uAIAAAAAAAAAAAAAAAAAAWIAAAA8YIAAAAAAAFgB/AAAHgAQgCAADSzhnwY3/r9MFRCoQybzbICCgC0xMKAJ2KGuXJiKbjLA2VOVNAgs0BPIiCe4yKCOAAAAAAAAAAAAAAAAAAAAAAAAAAAAAA==
> <PUBCHEM_IUPAC_OPENEYE_NAME>
methyl (2R)-2-[[[(1R,4S)-4-(6-aminopurin-9-yl)cyclopent-2-en-1-yl]methoxy-phenoxy-phosphoryl]amino]-3-phenyl-propanoate
> <PUBCHEM_IUPAC_CAS_NAME>
(2R)-2-[[[(1R,4S)-4-(6-aminopurin-9-yl)-1-cyclopent-2-enyl]methoxy-phenoxyphosphoryl]amino]-3-phenylpropanoic acid methyl ester
> <PUBCHEM_IUPAC_NAME_MARKUP>
methyl (2<I>R</I>)-2-[[[(1<I>R</I>,4<I>S</I>)-4-(6-aminopurin-9-yl)cyclopent-2-en-1-yl]methoxy-phenoxyphosphoryl]amino]-3-phenylpropanoate
> <PUBCHEM_IUPAC_NAME>
methyl (2R)-2-[[[(1R,4S)-4-(6-aminopurin-9-yl)cyclopent-2-en-1-yl]methoxy-phenoxyphosphoryl]amino]-3-phenylpropanoate
> <PUBCHEM_IUPAC_SYSTEMATIC_NAME>
methyl (2R)-2-[[[(1R,4S)-4-(6-aminopurin-9-yl)cyclopent-2-en-1-yl]methoxy-phenoxy-phosphoryl]amino]-3-phenyl-propanoate
> <PUBCHEM_IUPAC_TRADITIONAL_NAME>
(2R)-2-[[[(1R,4S)-4-adenin-9-ylcyclopent-2-en-1-yl]methoxy-phenoxy-phosphoryl]amino]-3-phenyl-propionic acid methyl ester
> <PUBCHEM_IUPAC_INCHI>
InChI=1S/C27H29N6O5P/c1-36-27(34)23(15-19-8-4-2-5-9-19)32-39(35,38-22-10-6-3-7-11-22)37-16-20-12-13-21(14-20)33-18-31-24-25(28)29-17-30-26(24)33/h2-13,17-18,20-21,23H,14-16H2,1H3,(H,32,35)(H2,28,29,30)/t20-,21+,23+,39?/m0/s1
> <PUBCHEM_IUPAC_INCHIKEY>
OFYOOOPVXKEAPF-MRRPNWGVSA-N
> <PUBCHEM_XLOGP3_AA>
3.4
> <PUBCHEM_EXACT_MASS>
548.19370504
> <PUBCHEM_MOLECULAR_FORMULA>
C27H29N6O5P
> <PUBCHEM_MOLECULAR_WEIGHT>
548.5
> <PUBCHEM_OPENEYE_CAN_SMILES>
COC(=O)C(CC1=CC=CC=C1)NP(=O)(OCC2CC(C=C2)N3C=NC4=C(N=CN=C43)N)OC5=CC=CC=C5
> <PUBCHEM_OPENEYE_ISO_SMILES>
COC(=O)[C@@H](CC1=CC=CC=C1)NP(=O)(OC[C@@H]2C[C@@H](C=C2)N3C=NC4=C(N=CN=C43)N)OC5=CC=CC=C5
> <PUBCHEM_CACTVS_TPSA>
144
> <PUBCHEM_MONOISOTOPIC_WEIGHT>
548.19370504
> <PUBCHEM_TOTAL_CHARGE>
0
> <PUBCHEM_HEAVY_ATOM_COUNT>
39
> <PUBCHEM_ATOM_DEF_STEREO_COUNT>
3
> <PUBCHEM_ATOM_UDEF_STEREO_COUNT>
1
> <PUBCHEM_BOND_DEF_STEREO_COUNT>
0
> <PUBCHEM_BOND_UDEF_STEREO_COUNT>
0
> <PUBCHEM_ISOTOPIC_ATOM_COUNT>
0
> <PUBCHEM_COMPONENT_COUNT>
1
> <PUBCHEM_CACTVS_TAUTO_COUNT>
-1
> <PUBCHEM_COORDINATE_TYPE>
1
5
255
> <PUBCHEM_BONDANNOTATIONS>
1  9  3
10  19  8
10  25  8
11  23  8
11  25  8
13  18  6
19  21  8
21  23  8
26  29  8
26  30  8
28  31  8
28  32  8
29  33  8
30  34  8
31  36  8
32  37  8
33  35  8
34  35  8
36  39  8
37  39  8
14  7  6
7  19  8
7  20  8
8  20  8
8  21  8
22  9  6
$$$$
