513233
  -OEChem-10302200282D
 68 71  0     1  0  0  0  0  0999 V2000
    7.2641   -1.0152    0.0000 P   0  0  3  0  0  0  0  0  0  0  0  0
    6.3580   -1.5291    0.0000 O   0  0  0  0  0  0  0  0  0  0  0  0
    7.2641    0.0264    0.0000 O   0  0  0  0  0  0  0  0  0  0  0  0
    8.2641   -1.0191    0.0000 O   0  0  0  0  0  0  0  0  0  0  0  0
   10.3583    0.6479    0.0000 O   0  0  0  0  0  0  0  0  0  0  0  0
    7.7608   -1.8832    0.0000 O   0  0  0  0  0  0  0  0  0  0  0  0
   13.1321   -0.4853    0.0000 O   0  0  0  0  0  0  0  0  0  0  0  0
   14.5533    2.6739    0.0000 O   0  0  0  0  0  0  0  0  0  0  0  0
   12.1195    0.9199    0.0000 N   0  0  0  0  0  0  0  0  0  0  0  0
   13.8427    1.0943    0.0000 N   0  0  0  0  0  0  0  0  0  0  0  0
    4.5981   -2.4944    0.0000 C   0  0  0  0  0  0  0  0  0  0  0  0
    2.8660    0.5056    0.0000 C   0  0  0  0  0  0  0  0  0  0  0  0
    4.5981   -1.4944    0.0000 C   0  0  0  0  0  0  0  0  0  0  0  0
    3.7320    0.0056    0.0000 C   0  0  0  0  0  0  0  0  0  0  0  0
    5.4641   -0.9944    0.0000 C   0  0  0  0  0  0  0  0  0  0  0  0
    3.7320   -0.9944    0.0000 C   0  0  0  0  0  0  0  0  0  0  0  0
    5.4641    0.0056    0.0000 C   0  0  0  0  0  0  0  0  0  0  0  0
    4.5981    0.5056    0.0000 C   0  0  0  0  0  0  0  0  0  0  0  0
    4.5981   -3.4944    0.0000 C   0  0  0  0  0  0  0  0  0  0  0  0
    3.5981   -2.4944    0.0000 C   0  0  0  0  0  0  0  0  0  0  0  0
    5.5981   -2.4944    0.0000 C   0  0  0  0  0  0  0  0  0  0  0  0
    2.0000    1.0056    0.0000 C   0  0  0  0  0  0  0  0  0  0  0  0
    3.3660    1.3716    0.0000 C   0  0  0  0  0  0  0  0  0  0  0  0
    2.3660   -0.3604    0.0000 C   0  0  0  0  0  0  0  0  0  0  0  0
    6.3580    0.5403    0.0000 C   0  0  0  0  0  0  0  0  0  0  0  0
    9.7674   -0.1588    0.0000 C   0  0  2  0  0  0  0  0  0  0  0  0
    8.7674   -0.1550    0.0000 C   0  0  0  0  0  0  0  0  0  0  0  0
   11.3082    0.3352    0.0000 C   0  0  1  0  0  0  0  0  0  0  0  0
   10.3521   -0.9701    0.0000 C   0  0  0  0  0  0  0  0  0  0  0  0
   11.3043   -0.6648    0.0000 C   0  0  0  0  0  0  0  0  0  0  0  0
   12.0188    1.9148    0.0000 C   0  0  0  0  0  0  0  0  0  0  0  0
   13.0314    0.5096    0.0000 C   0  0  0  0  0  0  0  0  0  0  0  0
   12.8300    2.4995    0.0000 C   0  0  0  0  0  0  0  0  0  0  0  0
   13.7420    2.0892    0.0000 C   0  0  0  0  0  0  0  0  0  0  0  0
   12.7294    3.4944    0.0000 C   0  0  0  0  0  0  0  0  0  0  0  0
    3.1951   -1.3044    0.0000 H   0  0  0  0  0  0  0  0  0  0  0  0
    4.5981    1.1256    0.0000 H   0  0  0  0  0  0  0  0  0  0  0  0
    3.9781   -3.4944    0.0000 H   0  0  0  0  0  0  0  0  0  0  0  0
    4.5981   -4.1144    0.0000 H   0  0  0  0  0  0  0  0  0  0  0  0
    5.2181   -3.4944    0.0000 H   0  0  0  0  0  0  0  0  0  0  0  0
    3.5981   -1.8744    0.0000 H   0  0  0  0  0  0  0  0  0  0  0  0
    2.9781   -2.4944    0.0000 H   0  0  0  0  0  0  0  0  0  0  0  0
    3.5981   -3.1144    0.0000 H   0  0  0  0  0  0  0  0  0  0  0  0
    5.5981   -3.1144    0.0000 H   0  0  0  0  0  0  0  0  0  0  0  0
    6.2181   -2.4944    0.0000 H   0  0  0  0  0  0  0  0  0  0  0  0
    5.5981   -1.8744    0.0000 H   0  0  0  0  0  0  0  0  0  0  0  0
    2.3100    1.5425    0.0000 H   0  0  0  0  0  0  0  0  0  0  0  0
    1.4631    1.3156    0.0000 H   0  0  0  0  0  0  0  0  0  0  0  0
    1.6900    0.4687    0.0000 H   0  0  0  0  0  0  0  0  0  0  0  0
    3.9030    1.0616    0.0000 H   0  0  0  0  0  0  0  0  0  0  0  0
    3.6760    1.9086    0.0000 H   0  0  0  0  0  0  0  0  0  0  0  0
    2.8291    1.6816    0.0000 H   0  0  0  0  0  0  0  0  0  0  0  0
    1.8291   -0.0504    0.0000 H   0  0  0  0  0  0  0  0  0  0  0  0
    2.0560   -0.8974    0.0000 H   0  0  0  0  0  0  0  0  0  0  0  0
    2.9030   -0.6704    0.0000 H   0  0  0  0  0  0  0  0  0  0  0  0
    6.7517    1.0193    0.0000 H   0  0  0  0  0  0  0  0  0  0  0  0
    5.9534    1.0100    0.0000 H   0  0  0  0  0  0  0  0  0  0  0  0
    9.4881    0.3947    0.0000 H   0  0  0  0  0  0  0  0  0  0  0  0
    8.8774    0.4552    0.0000 H   0  0  0  0  0  0  0  0  0  0  0  0
    8.1857    0.0593    0.0000 H   0  0  0  0  0  0  0  0  0  0  0  0
   11.8595    0.0516    0.0000 H   0  0  0  0  0  0  0  0  0  0  0  0
   10.1582   -1.5590    0.0000 H   0  0  0  0  0  0  0  0  0  0  0  0
   11.8045   -1.0311    0.0000 H   0  0  0  0  0  0  0  0  0  0  0  0
   11.4533    2.1692    0.0000 H   0  0  0  0  0  0  0  0  0  0  0  0
   14.4081    0.8399    0.0000 H   0  0  0  0  0  0  0  0  0  0  0  0
   13.3462    3.5568    0.0000 H   0  0  0  0  0  0  0  0  0  0  0  0
   12.6669    4.1112    0.0000 H   0  0  0  0  0  0  0  0  0  0  0  0
   12.1125    3.4320    0.0000 H   0  0  0  0  0  0  0  0  0  0  0  0
  1  2  1  0  0  0  0
  1  3  1  0  0  0  0
  1  4  1  0  0  0  0
  1  6  2  0  0  0  0
  2 15  1  0  0  0  0
  3 25  1  0  0  0  0
  4 27  1  0  0  0  0
  5 26  1  0  0  0  0
  5 28  1  0  0  0  0
  7 32  2  0  0  0  0
  8 34  2  0  0  0  0
 28  9  1  1  0  0  0
  9 31  1  0  0  0  0
  9 32  1  0  0  0  0
 10 32  1  0  0  0  0
 10 34  1  0  0  0  0
 10 65  1  0  0  0  0
 11 13  1  0  0  0  0
 11 19  1  0  0  0  0
 11 20  1  0  0  0  0
 11 21  1  0  0  0  0
 12 14  1  0  0  0  0
 12 22  1  0  0  0  0
 12 23  1  0  0  0  0
 12 24  1  0  0  0  0
 13 15  1  0  0  0  0
 13 16  2  0  0  0  0
 14 16  1  0  0  0  0
 14 18  2  0  0  0  0
 15 17  2  0  0  0  0
 16 36  1  0  0  0  0
 17 18  1  0  0  0  0
 17 25  1  0  0  0  0
 18 37  1  0  0  0  0
 19 38  1  0  0  0  0
 19 39  1  0  0  0  0
 19 40  1  0  0  0  0
 20 41  1  0  0  0  0
 20 42  1  0  0  0  0
 20 43  1  0  0  0  0
 21 44  1  0  0  0  0
 21 45  1  0  0  0  0
 21 46  1  0  0  0  0
 22 47  1  0  0  0  0
 22 48  1  0  0  0  0
 22 49  1  0  0  0  0
 23 50  1  0  0  0  0
 23 51  1  0  0  0  0
 23 52  1  0  0  0  0
 24 53  1  0  0  0  0
 24 54  1  0  0  0  0
 24 55  1  0  0  0  0
 25 56  1  0  0  0  0
 25 57  1  0  0  0  0
 26 27  1  1  0  0  0
 26 29  1  0  0  0  0
 26 58  1  0  0  0  0
 27 59  1  0  0  0  0
 27 60  1  0  0  0  0
 28 30  1  0  0  0  0
 28 61  1  0  0  0  0
 29 30  2  0  0  0  0
 29 62  1  0  0  0  0
 30 63  1  0  0  0  0
 31 33  2  0  0  0  0
 31 64  1  0  0  0  0
 33 34  1  0  0  0  0
 33 35  1  0  0  0  0
 35 66  1  0  0  0  0
 35 67  1  0  0  0  0
 35 68  1  0  0  0  0
M  END
> <PUBCHEM_COMPOUND_CID>
513233
> <PUBCHEM_COMPOUND_CANONICALIZED>
1
> <PUBCHEM_CACTVS_COMPLEXITY>
964
> <PUBCHEM_CACTVS_HBOND_ACCEPTOR>
7
> <PUBCHEM_CACTVS_HBOND_DONOR>
1
> <PUBCHEM_CACTVS_ROTATABLE_BOND>
6
> <PUBCHEM_CACTVS_SUBSKEYS>
AAADcfB7OAIAAAAAAAAAAAAAAAAAAQAAAAA0QIAAAAAAAACRAAAAHgAQACAADhThmAYzBoPABRCIQiFWUICCAAAgIAAIiAEMCMiJJyKAMRKOMAAtxzMKqMeAwPAPoAACAAAIAABAAAQAABAAAAAAAAAAAA==
> <PUBCHEM_IUPAC_OPENEYE_NAME>
1-[(2R,5S)-5-[(6,8-ditert-butyl-2-oxo-4H-1,3,2lambda5-benzodioxaphosphinin-2-yl)oxymethyl]-2,5-dihydrofuran-2-yl]-5-methyl-pyrimidine-2,4-dione
> <PUBCHEM_IUPAC_CAS_NAME>
1-[(2R,5S)-5-[(6,8-ditert-butyl-2-oxo-4H-1,3,2lambda5-benzodioxaphosphorin-2-yl)oxymethyl]-2,5-dihydrofuran-2-yl]-5-methylpyrimidine-2,4-dione
> <PUBCHEM_IUPAC_NAME_MARKUP>
1-[(2<I>R</I>,5<I>S</I>)-5-[(6,8-di<I>tert</I>-butyl-2-oxo-4<I>H</I>-1,3,2&lambda;<SUP>5</SUP>-benzodioxaphosphinin-2-yl)oxymethyl]-2,5-dihydrofuran-2-yl]-5-methylpyrimidine-2,4-dione
> <PUBCHEM_IUPAC_NAME>
1-[(2R,5S)-5-[(6,8-ditert-butyl-2-oxo-4H-1,3,2lambda5-benzodioxaphosphinin-2-yl)oxymethyl]-2,5-dihydrofuran-2-yl]-5-methylpyrimidine-2,4-dione
> <PUBCHEM_IUPAC_SYSTEMATIC_NAME>
1-[(2R,5S)-5-[(6,8-ditert-butyl-2-oxidanylidene-4H-1,3,2lambda5-benzodioxaphosphinin-2-yl)oxymethyl]-2,5-dihydrofuran-2-yl]-5-methyl-pyrimidine-2,4-dione
> <PUBCHEM_IUPAC_TRADITIONAL_NAME>
1-[(2R,5S)-5-[(6,8-ditert-butyl-2-keto-4H-1,3,2lambda5-benzodioxaphosphorin-2-yl)oxymethyl]-2,5-dihydrofuran-2-yl]-5-methyl-pyrimidine-2,4-quinone
> <PUBCHEM_IUPAC_INCHI>
InChI=1S/C25H33N2O7P/c1-15-12-27(23(29)26-22(15)28)20-9-8-18(33-20)14-32-35(30)31-13-16-10-17(24(2,3)4)11-19(21(16)34-35)25(5,6)7/h8-12,18,20H,13-14H2,1-7H3,(H,26,28,29)/t18-,20+,35?/m0/s1
> <PUBCHEM_IUPAC_INCHIKEY>
JSFVVKYKNXUHIP-LKERSIHASA-N
> <PUBCHEM_XLOGP3_AA>
3.9
> <PUBCHEM_EXACT_MASS>
504.20253839
> <PUBCHEM_MOLECULAR_FORMULA>
C25H33N2O7P
> <PUBCHEM_MOLECULAR_WEIGHT>
504.5
> <PUBCHEM_OPENEYE_CAN_SMILES>
CC1=CN(C(=O)NC1=O)C2C=CC(O2)COP3(=O)OCC4=C(O3)C(=CC(=C4)C(C)(C)C)C(C)(C)C
> <PUBCHEM_OPENEYE_ISO_SMILES>
CC1=CN(C(=O)NC1=O)[C@H]2C=C[C@H](O2)COP3(=O)OCC4=C(O3)C(=CC(=C4)C(C)(C)C)C(C)(C)C
> <PUBCHEM_CACTVS_TPSA>
103
> <PUBCHEM_MONOISOTOPIC_WEIGHT>
504.20253839
> <PUBCHEM_TOTAL_CHARGE>
0
> <PUBCHEM_HEAVY_ATOM_COUNT>
35
> <PUBCHEM_ATOM_DEF_STEREO_COUNT>
2
> <PUBCHEM_ATOM_UDEF_STEREO_COUNT>
1
> <PUBCHEM_BOND_DEF_STEREO_COUNT>
0
> <PUBCHEM_BOND_UDEF_STEREO_COUNT>
0
> <PUBCHEM_ISOTOPIC_ATOM_COUNT>
0
> <PUBCHEM_COMPONENT_COUNT>
1
> <PUBCHEM_CACTVS_TAUTO_COUNT>
-1
> <PUBCHEM_COORDINATE_TYPE>
1
5
255
> <PUBCHEM_BONDANNOTATIONS>
1  4  3
10  32  8
10  34  8
13  15  8
13  16  8
14  16  8
14  18  8
15  17  8
17  18  8
26  27  5
31  33  8
33  34  8
28  9  5
9  31  8
9  32  8
$$$$
