513269
  -OEChem-10302200282D
 34 35  0     1  0  0  0  0  0999 V2000
   10.6648   -1.3660    0.0000 P   0  0  0  0  0  0  0  0  0  0  0  0
    8.1648   -2.2320    0.0000 F   0  0  0  0  0  0  0  0  0  0  0  0
    9.1648   -0.5000    0.0000 O   0  0  0  0  0  0  0  0  0  0  0  0
   11.6648   -1.3660    0.0000 O   0  0  0  0  0  0  0  0  0  0  0  0
   10.6648   -2.3660    0.0000 O   0  0  0  0  0  0  0  0  0  0  0  0
   10.6648   -0.3660    0.0000 O   0  0  0  0  0  0  0  0  0  0  0  0
    6.6648    0.3660    0.0000 N   0  0  0  0  0  0  0  0  0  0  0  0
    6.0812    1.1708    0.0000 N   0  0  0  0  0  0  0  0  0  0  0  0
    6.0812   -0.4387    0.0000 N   0  0  0  0  0  0  0  0  0  0  0  0
    4.2690   -0.6340    0.0000 N   0  0  0  0  0  0  0  0  0  0  0  0
    3.4030    0.8660    0.0000 N   0  0  0  0  0  0  0  0  0  0  0  0
    4.2690    2.3660    0.0000 N   0  0  0  0  0  0  0  0  0  0  0  0
    2.5369   -0.6340    0.0000 N   0  0  0  0  0  0  0  0  0  0  0  0
    8.1648   -0.5000    0.0000 C   0  0  1  0  0  0  0  0  0  0  0  0
    7.6648    0.3660    0.0000 C   0  0  0  0  0  0  0  0  0  0  0  0
    7.6648   -1.3660    0.0000 C   0  0  0  0  0  0  0  0  0  0  0  0
    9.6648   -1.3660    0.0000 C   0  0  0  0  0  0  0  0  0  0  0  0
    5.1350    0.8660    0.0000 C   0  0  0  0  0  0  0  0  0  0  0  0
    5.1350   -0.1340    0.0000 C   0  0  0  0  0  0  0  0  0  0  0  0
    4.2690    1.3660    0.0000 C   0  0  0  0  0  0  0  0  0  0  0  0
    3.4030   -0.1340    0.0000 C   0  0  0  0  0  0  0  0  0  0  0  0
    8.4748    0.0369    0.0000 H   0  0  0  0  0  0  0  0  0  0  0  0
    8.2474    0.5781    0.0000 H   0  0  0  0  0  0  0  0  0  0  0  0
    7.5572    0.9766    0.0000 H   0  0  0  0  0  0  0  0  0  0  0  0
    7.1899   -0.9675    0.0000 H   0  0  0  0  0  0  0  0  0  0  0  0
    7.1899   -1.7646    0.0000 H   0  0  0  0  0  0  0  0  0  0  0  0
    9.0822   -1.5781    0.0000 H   0  0  0  0  0  0  0  0  0  0  0  0
    9.7725   -1.9766    0.0000 H   0  0  0  0  0  0  0  0  0  0  0  0
    3.7320    2.6760    0.0000 H   0  0  0  0  0  0  0  0  0  0  0  0
    4.8059    2.6760    0.0000 H   0  0  0  0  0  0  0  0  0  0  0  0
   11.9748   -1.9030    0.0000 H   0  0  0  0  0  0  0  0  0  0  0  0
   10.1279   -2.6760    0.0000 H   0  0  0  0  0  0  0  0  0  0  0  0
    2.5369   -1.2540    0.0000 H   0  0  0  0  0  0  0  0  0  0  0  0
    2.0000   -0.3240    0.0000 H   0  0  0  0  0  0  0  0  0  0  0  0
  1  4  1  0  0  0  0
  1  5  1  0  0  0  0
  1  6  2  0  0  0  0
  1 17  1  0  0  0  0
  2 16  1  0  0  0  0
 14  3  1  6  0  0  0
  3 17  1  0  0  0  0
  4 31  1  0  0  0  0
  5 32  1  0  0  0  0
  7  8  1  0  0  0  0
  7  9  1  0  0  0  0
  7 15  1  0  0  0  0
  8 18  2  0  0  0  0
  9 19  2  0  0  0  0
 10 19  1  0  0  0  0
 10 21  2  0  0  0  0
 11 20  2  0  0  0  0
 11 21  1  0  0  0  0
 12 20  1  0  0  0  0
 12 29  1  0  0  0  0
 12 30  1  0  0  0  0
 13 21  1  0  0  0  0
 13 33  1  0  0  0  0
 13 34  1  0  0  0  0
 14 15  1  0  0  0  0
 14 16  1  0  0  0  0
 14 22  1  0  0  0  0
 15 23  1  0  0  0  0
 15 24  1  0  0  0  0
 16 25  1  0  0  0  0
 16 26  1  0  0  0  0
 17 27  1  0  0  0  0
 17 28  1  0  0  0  0
 18 19  1  0  0  0  0
 18 20  1  0  0  0  0
M  END
> <PUBCHEM_COMPOUND_CID>
513269
> <PUBCHEM_COMPOUND_CANONICALIZED>
1
> <PUBCHEM_CACTVS_COMPLEXITY>
401
> <PUBCHEM_CACTVS_HBOND_ACCEPTOR>
11
> <PUBCHEM_CACTVS_HBOND_DONOR>
4
> <PUBCHEM_CACTVS_ROTATABLE_BOND>
6
> <PUBCHEM_CACTVS_SUBSKEYS>
AAADccBzuQIAAAAAAAAAAAAAAAAAAWAAAAAsAAAAAAAAAFgB+AAAHwgYCCAACBzhlwYB8L5IFBCiQQZgZICQhC8BkKAVECAgVBCCSABASEAVBAgICAJAACAAAAAAAAAAAAAAAAAAAAAAAAAAAAAAAAAAAA==
> <PUBCHEM_IUPAC_OPENEYE_NAME>
[(1S)-1-[(5,7-diaminotriazolo[4,5-d]pyrimidin-2-yl)methyl]-2-fluoro-ethoxy]methylphosphonic acid
> <PUBCHEM_IUPAC_CAS_NAME>
[(2S)-1-(5,7-diamino-2-triazolo[4,5-d]pyrimidinyl)-3-fluoropropan-2-yl]oxymethylphosphonic acid
> <PUBCHEM_IUPAC_NAME_MARKUP>
[(2<I>S</I>)-1-(5,7-diaminotriazolo[4,5-d]pyrimidin-2-yl)-3-fluoropropan-2-yl]oxymethylphosphonic acid
> <PUBCHEM_IUPAC_NAME>
[(2S)-1-(5,7-diaminotriazolo[4,5-d]pyrimidin-2-yl)-3-fluoropropan-2-yl]oxymethylphosphonic acid
> <PUBCHEM_IUPAC_SYSTEMATIC_NAME>
[(2S)-1-[5,7-bis(azanyl)-[1,2,3]triazolo[4,5-d]pyrimidin-2-yl]-3-fluoranyl-propan-2-yl]oxymethylphosphonic acid
> <PUBCHEM_IUPAC_TRADITIONAL_NAME>
[(1S)-1-[(5,7-diaminotriazolo[4,5-d]pyrimidin-2-yl)methyl]-2-fluoro-ethoxy]methylphosphonic acid
> <PUBCHEM_IUPAC_INCHI>
InChI=1S/C8H13FN7O4P/c9-1-4(20-3-21(17,18)19)2-16-14-5-6(10)12-8(11)13-7(5)15-16/h4H,1-3H2,(H2,17,18,19)(H4,10,11,12,13,15)/t4-/m1/s1
> <PUBCHEM_IUPAC_INCHIKEY>
HRIDRTKXFONPOM-SCSAIBSYSA-N
> <PUBCHEM_XLOGP3_AA>
-1.9
> <PUBCHEM_EXACT_MASS>
321.07506708
> <PUBCHEM_MOLECULAR_FORMULA>
C8H13FN7O4P
> <PUBCHEM_MOLECULAR_WEIGHT>
321.21
> <PUBCHEM_OPENEYE_CAN_SMILES>
C(C(CF)OCP(=O)(O)O)N1N=C2C(=NC(=NC2=N1)N)N
> <PUBCHEM_OPENEYE_ISO_SMILES>
C([C@@H](CF)OCP(=O)(O)O)N1N=C2C(=NC(=NC2=N1)N)N
> <PUBCHEM_CACTVS_TPSA>
175
> <PUBCHEM_MONOISOTOPIC_WEIGHT>
321.07506708
> <PUBCHEM_TOTAL_CHARGE>
0
> <PUBCHEM_HEAVY_ATOM_COUNT>
21
> <PUBCHEM_ATOM_DEF_STEREO_COUNT>
1
> <PUBCHEM_ATOM_UDEF_STEREO_COUNT>
0
> <PUBCHEM_BOND_DEF_STEREO_COUNT>
0
> <PUBCHEM_BOND_UDEF_STEREO_COUNT>
0
> <PUBCHEM_ISOTOPIC_ATOM_COUNT>
0
> <PUBCHEM_COMPONENT_COUNT>
1
> <PUBCHEM_CACTVS_TAUTO_COUNT>
-1
> <PUBCHEM_COORDINATE_TYPE>
1
5
255
> <PUBCHEM_BONDANNOTATIONS>
10  19  8
10  21  8
11  20  8
11  21  8
18  19  8
18  20  8
14  3  6
7  8  8
7  9  8
8  18  8
9  19  8
$$$$
