513266
  -OEChem-10302200282D
 32 33  0     1  0  0  0  0  0999 V2000
    7.5673   -2.6502    0.0000 P   0  0  0  0  0  0  0  0  0  0  0  0
    7.6138   -0.0048    0.0000 F   0  0  0  0  0  0  0  0  0  0  0  0
    6.2781   -1.4934    0.0000 O   0  0  0  0  0  0  0  0  0  0  0  0
    7.8779   -3.6007    0.0000 O   0  0  0  0  0  0  0  0  0  0  0  0
    8.5178   -2.3395    0.0000 O   0  0  0  0  0  0  0  0  0  0  0  0
    6.6168   -2.9608    0.0000 O   0  0  0  0  0  0  0  0  0  0  0  0
    4.6783    0.6138    0.0000 N   0  0  0  0  0  0  0  0  0  0  0  0
    5.2619    1.4186    0.0000 N   0  0  0  0  0  0  0  0  0  0  0  0
    4.6783    2.2233    0.0000 N   0  0  0  0  0  0  0  0  0  0  0  0
    2.8660    0.4186    0.0000 N   0  0  0  0  0  0  0  0  0  0  0  0
    2.0000    1.9186    0.0000 N   0  0  0  0  0  0  0  0  0  0  0  0
    2.8660    3.4186    0.0000 N   0  0  0  0  0  0  0  0  0  0  0  0
    5.9674   -0.5429    0.0000 C   0  0  1  0  0  0  0  0  0  0  0  0
    4.9889   -0.3367    0.0000 C   0  0  0  0  0  0  0  0  0  0  0  0
    6.6353    0.2014    0.0000 C   0  0  0  0  0  0  0  0  0  0  0  0
    3.7320    0.9186    0.0000 C   0  0  0  0  0  0  0  0  0  0  0  0
    7.2566   -1.6997    0.0000 C   0  0  0  0  0  0  0  0  0  0  0  0
    3.7320    1.9186    0.0000 C   0  0  0  0  0  0  0  0  0  0  0  0
    2.8660    2.4186    0.0000 C   0  0  0  0  0  0  0  0  0  0  0  0
    2.0000    0.9186    0.0000 C   0  0  0  0  0  0  0  0  0  0  0  0
    5.5534   -1.0044    0.0000 H   0  0  0  0  0  0  0  0  0  0  0  0
    4.3751   -0.4240    0.0000 H   0  0  0  0  0  0  0  0  0  0  0  0
    4.9684   -0.9564    0.0000 H   0  0  0  0  0  0  0  0  0  0  0  0
    6.8665    0.7766    0.0000 H   0  0  0  0  0  0  0  0  0  0  0  0
    6.1089    0.5290    0.0000 H   0  0  0  0  0  0  0  0  0  0  0  0
    7.8704   -1.6123    0.0000 H   0  0  0  0  0  0  0  0  0  0  0  0
    7.2772   -1.0800    0.0000 H   0  0  0  0  0  0  0  0  0  0  0  0
    1.4631    0.6086    0.0000 H   0  0  0  0  0  0  0  0  0  0  0  0
    8.4846   -3.7286    0.0000 H   0  0  0  0  0  0  0  0  0  0  0  0
    8.6456   -1.7328    0.0000 H   0  0  0  0  0  0  0  0  0  0  0  0
    2.3291    3.7286    0.0000 H   0  0  0  0  0  0  0  0  0  0  0  0
    3.4030    3.7286    0.0000 H   0  0  0  0  0  0  0  0  0  0  0  0
  1  4  1  0  0  0  0
  1  5  1  0  0  0  0
  1  6  2  0  0  0  0
  1 17  1  0  0  0  0
  2 15  1  0  0  0  0
 13  3  1  1  0  0  0
  3 17  1  0  0  0  0
  4 29  1  0  0  0  0
  5 30  1  0  0  0  0
  7  8  1  0  0  0  0
  7 14  1  0  0  0  0
  7 16  1  0  0  0  0
  8  9  2  0  0  0  0
  9 18  1  0  0  0  0
 10 16  2  0  0  0  0
 10 20  1  0  0  0  0
 11 19  1  0  0  0  0
 11 20  2  0  0  0  0
 12 19  1  0  0  0  0
 12 31  1  0  0  0  0
 12 32  1  0  0  0  0
 13 14  1  0  0  0  0
 13 15  1  0  0  0  0
 13 21  1  0  0  0  0
 14 22  1  0  0  0  0
 14 23  1  0  0  0  0
 15 24  1  0  0  0  0
 15 25  1  0  0  0  0
 16 18  1  0  0  0  0
 17 26  1  0  0  0  0
 17 27  1  0  0  0  0
 18 19  2  0  0  0  0
 20 28  1  0  0  0  0
M  END
> <PUBCHEM_COMPOUND_CID>
513266
> <PUBCHEM_COMPOUND_CANONICALIZED>
1
> <PUBCHEM_CACTVS_COMPLEXITY>
373
> <PUBCHEM_CACTVS_HBOND_ACCEPTOR>
10
> <PUBCHEM_CACTVS_HBOND_DONOR>
3
> <PUBCHEM_CACTVS_ROTATABLE_BOND>
6
> <PUBCHEM_CACTVS_SUBSKEYS>
AAADccBzuQIAAAAAAAAAAAAAAAAAAWAAAAAsAAAAAAAAAFgB+AAAHwgYCCAACBzhlwYF8L5IFBCiQQZhZICAhC8RkKAVUCAoVBCCSABASEAVBAgIAALQACAAAAAAAAAAAAAAAAAAAAAAAAAAAAAAAAAAAA==
> <PUBCHEM_IUPAC_OPENEYE_NAME>
[(1S)-1-[(7-aminotriazolo[4,5-d]pyrimidin-3-yl)methyl]-2-fluoro-ethoxy]methylphosphonic acid
> <PUBCHEM_IUPAC_CAS_NAME>
[(2S)-1-(7-amino-3-triazolo[4,5-d]pyrimidinyl)-3-fluoropropan-2-yl]oxymethylphosphonic acid
> <PUBCHEM_IUPAC_NAME_MARKUP>
[(2<I>S</I>)-1-(7-aminotriazolo[4,5-d]pyrimidin-3-yl)-3-fluoropropan-2-yl]oxymethylphosphonic acid
> <PUBCHEM_IUPAC_NAME>
[(2S)-1-(7-aminotriazolo[4,5-d]pyrimidin-3-yl)-3-fluoropropan-2-yl]oxymethylphosphonic acid
> <PUBCHEM_IUPAC_SYSTEMATIC_NAME>
[(2S)-1-(7-azanyl-[1,2,3]triazolo[4,5-d]pyrimidin-3-yl)-3-fluoranyl-propan-2-yl]oxymethylphosphonic acid
> <PUBCHEM_IUPAC_TRADITIONAL_NAME>
[(1S)-1-[(7-aminotriazolo[4,5-d]pyrimidin-3-yl)methyl]-2-fluoro-ethoxy]methylphosphonic acid
> <PUBCHEM_IUPAC_INCHI>
InChI=1S/C8H12FN6O4P/c9-1-5(19-4-20(16,17)18)2-15-8-6(13-14-15)7(10)11-3-12-8/h3,5H,1-2,4H2,(H2,10,11,12)(H2,16,17,18)/t5-/m1/s1
> <PUBCHEM_IUPAC_INCHIKEY>
JIAJTBNWOPJVJP-RXMQYKEDSA-N
> <PUBCHEM_XLOGP3_AA>
-2.2
> <PUBCHEM_EXACT_MASS>
306.06416805
> <PUBCHEM_MOLECULAR_FORMULA>
C8H12FN6O4P
> <PUBCHEM_MOLECULAR_WEIGHT>
306.19
> <PUBCHEM_OPENEYE_CAN_SMILES>
C1=NC(=C2C(=N1)N(N=N2)CC(CF)OCP(=O)(O)O)N
> <PUBCHEM_OPENEYE_ISO_SMILES>
C1=NC(=C2C(=N1)N(N=N2)C[C@@H](CF)OCP(=O)(O)O)N
> <PUBCHEM_CACTVS_TPSA>
149
> <PUBCHEM_MONOISOTOPIC_WEIGHT>
306.06416805
> <PUBCHEM_TOTAL_CHARGE>
0
> <PUBCHEM_HEAVY_ATOM_COUNT>
20
> <PUBCHEM_ATOM_DEF_STEREO_COUNT>
1
> <PUBCHEM_ATOM_UDEF_STEREO_COUNT>
0
> <PUBCHEM_BOND_DEF_STEREO_COUNT>
0
> <PUBCHEM_BOND_UDEF_STEREO_COUNT>
0
> <PUBCHEM_ISOTOPIC_ATOM_COUNT>
0
> <PUBCHEM_COMPONENT_COUNT>
1
> <PUBCHEM_CACTVS_TAUTO_COUNT>
-1
> <PUBCHEM_COORDINATE_TYPE>
1
5
255
> <PUBCHEM_BONDANNOTATIONS>
10  16  8
10  20  8
11  19  8
11  20  8
16  18  8
18  19  8
13  3  5
7  16  8
7  8  8
8  9  8
9  18  8
$$$$
