513281
  -OEChem-10302200282D
 39 40  0     1  0  0  0  0  0999 V2000
    2.4608   -1.3046    0.0000 O   0  0  0  0  0  0  0  0  0  0  0  0
    3.1330   -3.3737    0.0000 O   0  0  0  0  0  0  0  0  0  0  0  0
    3.4118    0.5620    0.0000 O   0  0  0  0  0  0  0  0  0  0  0  0
    4.9019    3.2356    0.0000 O   0  0  0  0  0  0  0  0  0  0  0  0
    5.0298   -1.6136    0.0000 N   0  0  0  0  0  0  0  0  0  0  0  0
    6.3031    2.2175    0.0000 N   0  0  0  0  0  0  0  0  0  0  0  0
    4.2208   -1.0258    0.0000 C   0  0  2  0  0  0  0  0  0  0  0  0
    3.4118   -1.6136    0.0000 C   0  0  1  0  0  0  0  0  0  0  0  0
    3.7208   -2.5647    0.0000 C   0  0  1  0  0  0  0  0  0  0  0  0
    4.7208   -2.5647    0.0000 C   0  0  0  0  0  0  0  0  0  0  0  0
    4.2208   -0.0258    0.0000 C   0  0  0  0  0  0  0  0  0  0  0  0
    5.0298    0.5620    0.0000 C   0  0  0  0  0  0  0  0  0  0  0  0
    4.7208    1.5130    0.0000 C   0  0  0  0  0  0  0  0  0  0  0  0
    3.7208    1.5130    0.0000 C   0  0  0  0  0  0  0  0  0  0  0  0
    5.3086    2.3220    0.0000 C   0  0  0  0  0  0  0  0  0  0  0  0
    3.1330    2.3220    0.0000 C   0  0  0  0  0  0  0  0  0  0  0  0
    6.8909    3.0265    0.0000 C   0  0  0  0  0  0  0  0  0  0  0  0
    7.8854    2.9220    0.0000 C   0  0  0  0  0  0  0  0  0  0  0  0
    6.4842    3.9401    0.0000 C   0  0  0  0  0  0  0  0  0  0  0  0
    3.4635   -0.6399    0.0000 H   0  0  0  0  0  0  0  0  0  0  0  0
    3.3148   -1.0012    0.0000 H   0  0  0  0  0  0  0  0  0  0  0  0
    3.1085   -2.4677    0.0000 H   0  0  0  0  0  0  0  0  0  0  0  0
    4.6560   -3.1813    0.0000 H   0  0  0  0  0  0  0  0  0  0  0  0
    5.3273   -2.6936    0.0000 H   0  0  0  0  0  0  0  0  0  0  0  0
    5.6195   -1.4220    0.0000 H   0  0  0  0  0  0  0  0  0  0  0  0
    5.6195    0.3704    0.0000 H   0  0  0  0  0  0  0  0  0  0  0  0
    2.0000   -1.7194    0.0000 H   0  0  0  0  0  0  0  0  0  0  0  0
    3.3852   -3.9401    0.0000 H   0  0  0  0  0  0  0  0  0  0  0  0
    3.6346    2.6865    0.0000 H   0  0  0  0  0  0  0  0  0  0  0  0
    2.7686    2.8236    0.0000 H   0  0  0  0  0  0  0  0  0  0  0  0
    2.6314    1.9576    0.0000 H   0  0  0  0  0  0  0  0  0  0  0  0
    7.1431    2.4601    0.0000 H   0  0  0  0  0  0  0  0  0  0  0  0
    6.5553    1.6511    0.0000 H   0  0  0  0  0  0  0  0  0  0  0  0
    7.8206    2.3054    0.0000 H   0  0  0  0  0  0  0  0  0  0  0  0
    8.5020    2.8572    0.0000 H   0  0  0  0  0  0  0  0  0  0  0  0
    7.9502    3.5386    0.0000 H   0  0  0  0  0  0  0  0  0  0  0  0
    7.0506    4.1922    0.0000 H   0  0  0  0  0  0  0  0  0  0  0  0
    6.2320    4.5065    0.0000 H   0  0  0  0  0  0  0  0  0  0  0  0
    5.9178    3.6879    0.0000 H   0  0  0  0  0  0  0  0  0  0  0  0
  8  1  1  1  0  0  0
  1 27  1  0  0  0  0
  9  2  1  1  0  0  0
  2 28  1  0  0  0  0
  3 11  1  0  0  0  0
  3 14  1  0  0  0  0
  4 15  2  0  0  0  0
  5  7  1  0  0  0  0
  5 10  1  0  0  0  0
  5 25  1  0  0  0  0
  6 15  1  0  0  0  0
  6 17  1  0  0  0  0
  6 33  1  0  0  0  0
  7  8  1  0  0  0  0
  7 11  1  0  0  0  0
  7 20  1  1  0  0  0
  8  9  1  0  0  0  0
  8 21  1  0  0  0  0
  9 10  1  0  0  0  0
  9 22  1  0  0  0  0
 10 23  1  0  0  0  0
 10 24  1  0  0  0  0
 11 12  2  0  0  0  0
 12 13  1  0  0  0  0
 12 26  1  0  0  0  0
 13 14  2  0  0  0  0
 13 15  1  0  0  0  0
 14 16  1  0  0  0  0
 16 29  1  0  0  0  0
 16 30  1  0  0  0  0
 16 31  1  0  0  0  0
 17 18  1  0  0  0  0
 17 19  1  0  0  0  0
 17 32  1  0  0  0  0
 18 34  1  0  0  0  0
 18 35  1  0  0  0  0
 18 36  1  0  0  0  0
 19 37  1  0  0  0  0
 19 38  1  0  0  0  0
 19 39  1  0  0  0  0
M  END
> <PUBCHEM_COMPOUND_CID>
513281
> <PUBCHEM_COMPOUND_CANONICALIZED>
1
> <PUBCHEM_CACTVS_COMPLEXITY>
337
> <PUBCHEM_CACTVS_HBOND_ACCEPTOR>
5
> <PUBCHEM_CACTVS_HBOND_DONOR>
4
> <PUBCHEM_CACTVS_ROTATABLE_BOND>
3
> <PUBCHEM_CACTVS_SUBSKEYS>
AAADceBzOAAAAAAAAAAAAAAAAAAAAWJAAAAAAAAAAAAAAAABgAAAHgAQCAAADDzhmAYyBILABkCIAqFSEACCCAAkIAAAiIGODMgPNj6MtTuHWWjn9hGZqYf/2fOeAAAAAAAAAAAAAAAAAAAAAAAAAAAAAA==
> <PUBCHEM_IUPAC_OPENEYE_NAME>
5-[(2R,3S,4R)-3,4-dihydroxypyrrolidin-2-yl]-N-isopropyl-2-methyl-furan-3-carboxamide
> <PUBCHEM_IUPAC_CAS_NAME>
5-[(2R,3S,4R)-3,4-dihydroxy-2-pyrrolidinyl]-2-methyl-N-propan-2-yl-3-furancarboxamide
> <PUBCHEM_IUPAC_NAME_MARKUP>
5-[(2<I>R</I>,3<I>S</I>,4<I>R</I>)-3,4-dihydroxypyrrolidin-2-yl]-2-methyl-<I>N</I>-propan-2-ylfuran-3-carboxamide
> <PUBCHEM_IUPAC_NAME>
5-[(2R,3S,4R)-3,4-dihydroxypyrrolidin-2-yl]-2-methyl-N-propan-2-ylfuran-3-carboxamide
> <PUBCHEM_IUPAC_SYSTEMATIC_NAME>
5-[(2R,3S,4R)-3,4-bis(oxidanyl)pyrrolidin-2-yl]-2-methyl-N-propan-2-yl-furan-3-carboxamide
> <PUBCHEM_IUPAC_TRADITIONAL_NAME>
5-[(2R,3S,4R)-3,4-dihydroxypyrrolidin-2-yl]-N-isopropyl-2-methyl-3-furamide
> <PUBCHEM_IUPAC_INCHI>
InChI=1S/C13H20N2O4/c1-6(2)15-13(18)8-4-10(19-7(8)3)11-12(17)9(16)5-14-11/h4,6,9,11-12,14,16-17H,5H2,1-3H3,(H,15,18)/t9-,11+,12-/m1/s1
> <PUBCHEM_IUPAC_INCHIKEY>
VHRUAYMCMAKGDX-ADEWGFFLSA-N
> <PUBCHEM_XLOGP3_AA>
-0.6
> <PUBCHEM_EXACT_MASS>
268.14230712
> <PUBCHEM_MOLECULAR_FORMULA>
C13H20N2O4
> <PUBCHEM_MOLECULAR_WEIGHT>
268.31
> <PUBCHEM_OPENEYE_CAN_SMILES>
CC1=C(C=C(O1)C2C(C(CN2)O)O)C(=O)NC(C)C
> <PUBCHEM_OPENEYE_ISO_SMILES>
CC1=C(C=C(O1)[C@H]2[C@@H]([C@@H](CN2)O)O)C(=O)NC(C)C
> <PUBCHEM_CACTVS_TPSA>
94.7
> <PUBCHEM_MONOISOTOPIC_WEIGHT>
268.14230712
> <PUBCHEM_TOTAL_CHARGE>
0
> <PUBCHEM_HEAVY_ATOM_COUNT>
19
> <PUBCHEM_ATOM_DEF_STEREO_COUNT>
3
> <PUBCHEM_ATOM_UDEF_STEREO_COUNT>
0
> <PUBCHEM_BOND_DEF_STEREO_COUNT>
0
> <PUBCHEM_BOND_UDEF_STEREO_COUNT>
0
> <PUBCHEM_ISOTOPIC_ATOM_COUNT>
0
> <PUBCHEM_COMPONENT_COUNT>
1
> <PUBCHEM_CACTVS_TAUTO_COUNT>
-1
> <PUBCHEM_COORDINATE_TYPE>
1
5
255
> <PUBCHEM_BONDANNOTATIONS>
8  1  5
11  12  8
12  13  8
13  14  8
9  2  5
3  11  8
3  14  8
7  20  5
$$$$
