513280
  -OEChem-10302200282D
 42 43  0     1  0  0  0  0  0999 V2000
    2.4608   -0.9523    0.0000 O   0  0  0  0  0  0  0  0  0  0  0  0
    3.1330   -3.0214    0.0000 O   0  0  0  0  0  0  0  0  0  0  0  0
    3.4118    0.9142    0.0000 O   0  0  0  0  0  0  0  0  0  0  0  0
    4.9019    3.5878    0.0000 O   0  0  0  0  0  0  0  0  0  0  0  0
    5.0298   -1.2614    0.0000 N   0  0  0  0  0  0  0  0  0  0  0  0
    6.3031    2.5698    0.0000 N   0  0  0  0  0  0  0  0  0  0  0  0
    4.2208   -0.6736    0.0000 C   0  0  2  0  0  0  0  0  0  0  0  0
    3.4118   -1.2614    0.0000 C   0  0  1  0  0  0  0  0  0  0  0  0
    3.7208   -2.2124    0.0000 C   0  0  1  0  0  0  0  0  0  0  0  0
    4.7208   -2.2124    0.0000 C   0  0  0  0  0  0  0  0  0  0  0  0
    4.2208    0.3264    0.0000 C   0  0  0  0  0  0  0  0  0  0  0  0
    5.0298    0.9142    0.0000 C   0  0  0  0  0  0  0  0  0  0  0  0
    4.7208    1.8653    0.0000 C   0  0  0  0  0  0  0  0  0  0  0  0
    3.7208    1.8653    0.0000 C   0  0  0  0  0  0  0  0  0  0  0  0
    5.3086    2.6743    0.0000 C   0  0  0  0  0  0  0  0  0  0  0  0
    3.1330    2.6743    0.0000 C   0  0  0  0  0  0  0  0  0  0  0  0
    6.8909    3.3788    0.0000 C   0  0  0  0  0  0  0  0  0  0  0  0
    6.7099    1.6562    0.0000 C   0  0  0  0  0  0  0  0  0  0  0  0
    7.8854    3.2742    0.0000 C   0  0  0  0  0  0  0  0  0  0  0  0
    7.7044    1.5517    0.0000 C   0  0  0  0  0  0  0  0  0  0  0  0
    3.4635   -0.2877    0.0000 H   0  0  0  0  0  0  0  0  0  0  0  0
    3.3148   -0.6490    0.0000 H   0  0  0  0  0  0  0  0  0  0  0  0
    3.1085   -2.1154    0.0000 H   0  0  0  0  0  0  0  0  0  0  0  0
    4.6560   -2.8290    0.0000 H   0  0  0  0  0  0  0  0  0  0  0  0
    5.3273   -2.3413    0.0000 H   0  0  0  0  0  0  0  0  0  0  0  0
    5.6195   -1.0698    0.0000 H   0  0  0  0  0  0  0  0  0  0  0  0
    5.6195    0.7226    0.0000 H   0  0  0  0  0  0  0  0  0  0  0  0
    2.0000   -1.3672    0.0000 H   0  0  0  0  0  0  0  0  0  0  0  0
    3.3852   -3.5878    0.0000 H   0  0  0  0  0  0  0  0  0  0  0  0
    3.6346    3.0387    0.0000 H   0  0  0  0  0  0  0  0  0  0  0  0
    2.7686    3.1759    0.0000 H   0  0  0  0  0  0  0  0  0  0  0  0
    2.6314    2.3099    0.0000 H   0  0  0  0  0  0  0  0  0  0  0  0
    7.0618    3.9748    0.0000 H   0  0  0  0  0  0  0  0  0  0  0  0
    6.3337    3.6506    0.0000 H   0  0  0  0  0  0  0  0  0  0  0  0
    6.1083    1.5062    0.0000 H   0  0  0  0  0  0  0  0  0  0  0  0
    6.7531    1.0377    0.0000 H   0  0  0  0  0  0  0  0  0  0  0  0
    7.8206    2.6576    0.0000 H   0  0  0  0  0  0  0  0  0  0  0  0
    8.5020    3.2094    0.0000 H   0  0  0  0  0  0  0  0  0  0  0  0
    7.9502    3.8908    0.0000 H   0  0  0  0  0  0  0  0  0  0  0  0
    7.6396    0.9351    0.0000 H   0  0  0  0  0  0  0  0  0  0  0  0
    8.3210    1.4869    0.0000 H   0  0  0  0  0  0  0  0  0  0  0  0
    7.7692    2.1683    0.0000 H   0  0  0  0  0  0  0  0  0  0  0  0
  8  1  1  1  0  0  0
  1 28  1  0  0  0  0
  9  2  1  1  0  0  0
  2 29  1  0  0  0  0
  3 11  1  0  0  0  0
  3 14  1  0  0  0  0
  4 15  2  0  0  0  0
  5  7  1  0  0  0  0
  5 10  1  0  0  0  0
  5 26  1  0  0  0  0
  6 15  1  0  0  0  0
  6 17  1  0  0  0  0
  6 18  1  0  0  0  0
  7  8  1  0  0  0  0
  7 11  1  0  0  0  0
  7 21  1  1  0  0  0
  8  9  1  0  0  0  0
  8 22  1  0  0  0  0
  9 10  1  0  0  0  0
  9 23  1  0  0  0  0
 10 24  1  0  0  0  0
 10 25  1  0  0  0  0
 11 12  2  0  0  0  0
 12 13  1  0  0  0  0
 12 27  1  0  0  0  0
 13 14  2  0  0  0  0
 13 15  1  0  0  0  0
 14 16  1  0  0  0  0
 16 30  1  0  0  0  0
 16 31  1  0  0  0  0
 16 32  1  0  0  0  0
 17 19  1  0  0  0  0
 17 33  1  0  0  0  0
 17 34  1  0  0  0  0
 18 20  1  0  0  0  0
 18 35  1  0  0  0  0
 18 36  1  0  0  0  0
 19 37  1  0  0  0  0
 19 38  1  0  0  0  0
 19 39  1  0  0  0  0
 20 40  1  0  0  0  0
 20 41  1  0  0  0  0
 20 42  1  0  0  0  0
M  END
> <PUBCHEM_COMPOUND_CID>
513280
> <PUBCHEM_COMPOUND_CANONICALIZED>
1
> <PUBCHEM_CACTVS_COMPLEXITY>
348
> <PUBCHEM_CACTVS_HBOND_ACCEPTOR>
5
> <PUBCHEM_CACTVS_HBOND_DONOR>
3
> <PUBCHEM_CACTVS_ROTATABLE_BOND>
4
> <PUBCHEM_CACTVS_SUBSKEYS>
AAADceBzOAAAAAAAAAAAAAAAAAAAAWJAAAAAAAAAAAAAAAABgAAAHgAQCAAADDzhmAYyBIPABkCIAqFSEACCCAAkIAAAiIGODMgPNj6MtTuHWWjn9hGZqYf/2fOeAAAAAAAAAAAAAAAAAAAAAAAAAAAAAA==
> <PUBCHEM_IUPAC_OPENEYE_NAME>
5-[(2R,3S,4R)-3,4-dihydroxypyrrolidin-2-yl]-N,N-diethyl-2-methyl-furan-3-carboxamide
> <PUBCHEM_IUPAC_CAS_NAME>
5-[(2R,3S,4R)-3,4-dihydroxy-2-pyrrolidinyl]-N,N-diethyl-2-methyl-3-furancarboxamide
> <PUBCHEM_IUPAC_NAME_MARKUP>
5-[(2<I>R</I>,3<I>S</I>,4<I>R</I>)-3,4-dihydroxypyrrolidin-2-yl]-<I>N</I>,<I>N</I>-diethyl-2-methylfuran-3-carboxamide
> <PUBCHEM_IUPAC_NAME>
5-[(2R,3S,4R)-3,4-dihydroxypyrrolidin-2-yl]-N,N-diethyl-2-methylfuran-3-carboxamide
> <PUBCHEM_IUPAC_SYSTEMATIC_NAME>
5-[(2R,3S,4R)-3,4-bis(oxidanyl)pyrrolidin-2-yl]-N,N-diethyl-2-methyl-furan-3-carboxamide
> <PUBCHEM_IUPAC_TRADITIONAL_NAME>
5-[(2R,3S,4R)-3,4-dihydroxypyrrolidin-2-yl]-N,N-diethyl-2-methyl-3-furamide
> <PUBCHEM_IUPAC_INCHI>
InChI=1S/C14H22N2O4/c1-4-16(5-2)14(19)9-6-11(20-8(9)3)12-13(18)10(17)7-15-12/h6,10,12-13,15,17-18H,4-5,7H2,1-3H3/t10-,12+,13-/m1/s1
> <PUBCHEM_IUPAC_INCHIKEY>
JMGMYORMUHCVGM-KGYLQXTDSA-N
> <PUBCHEM_XLOGP3_AA>
-0.4
> <PUBCHEM_EXACT_MASS>
282.15795719
> <PUBCHEM_MOLECULAR_FORMULA>
C14H22N2O4
> <PUBCHEM_MOLECULAR_WEIGHT>
282.34
> <PUBCHEM_OPENEYE_CAN_SMILES>
CCN(CC)C(=O)C1=C(OC(=C1)C2C(C(CN2)O)O)C
> <PUBCHEM_OPENEYE_ISO_SMILES>
CCN(CC)C(=O)C1=C(OC(=C1)[C@H]2[C@@H]([C@@H](CN2)O)O)C
> <PUBCHEM_CACTVS_TPSA>
85.9
> <PUBCHEM_MONOISOTOPIC_WEIGHT>
282.15795719
> <PUBCHEM_TOTAL_CHARGE>
0
> <PUBCHEM_HEAVY_ATOM_COUNT>
20
> <PUBCHEM_ATOM_DEF_STEREO_COUNT>
3
> <PUBCHEM_ATOM_UDEF_STEREO_COUNT>
0
> <PUBCHEM_BOND_DEF_STEREO_COUNT>
0
> <PUBCHEM_BOND_UDEF_STEREO_COUNT>
0
> <PUBCHEM_ISOTOPIC_ATOM_COUNT>
0
> <PUBCHEM_COMPONENT_COUNT>
1
> <PUBCHEM_CACTVS_TAUTO_COUNT>
-1
> <PUBCHEM_COORDINATE_TYPE>
1
5
255
> <PUBCHEM_BONDANNOTATIONS>
8  1  5
11  12  8
12  13  8
13  14  8
9  2  5
3  11  8
3  14  8
7  21  5
$$$$
