513216
  -OEChem-10302200282D
 69 73  0     1  0  0  0  0  0999 V2000
    7.8110   -1.8418    0.0000 P   0  0  3  0  0  0  0  0  0  0  0  0
    8.1184   -0.8902    0.0000 O   0  0  0  0  0  0  0  0  0  0  0  0
    8.7626   -2.1492    0.0000 O   0  0  0  0  0  0  0  0  0  0  0  0
    6.8594   -1.5345    0.0000 O   0  0  0  0  0  0  0  0  0  0  0  0
    5.2407   -4.1642    0.0000 O   0  0  0  0  0  0  0  0  0  0  0  0
    6.8889   -4.6966    0.0000 O   0  0  0  0  0  0  0  0  0  0  0  0
    7.4419    3.3719    0.0000 N   0  0  0  0  0  0  0  0  0  0  0  0
    5.6297    3.1766    0.0000 N   0  0  0  0  0  0  0  0  0  0  0  0
    7.5037   -2.7934    0.0000 N   0  0  0  0  0  0  0  0  0  0  0  0
    4.7636    4.6766    0.0000 N   0  0  0  0  0  0  0  0  0  0  0  0
    5.6297    6.1766    0.0000 N   0  0  0  0  0  0  0  0  0  0  0  0
    7.7526    2.4214    0.0000 C   0  0  2  0  0  0  0  0  0  0  0  0
    7.7554    0.8033    0.0000 C   0  0  1  0  0  0  0  0  0  0  0  0
    7.1662    1.6113    0.0000 C   0  0  0  0  0  0  0  0  0  0  0  0
    8.7042    2.1140    0.0000 C   0  0  0  0  0  0  0  0  0  0  0  0
    8.7059    1.1140    0.0000 C   0  0  0  0  0  0  0  0  0  0  0  0
    7.4480   -0.1483    0.0000 C   0  0  0  0  0  0  0  0  0  0  0  0
    6.4957    3.6766    0.0000 C   0  0  0  0  0  0  0  0  0  0  0  0
    8.0255    4.1766    0.0000 C   0  0  0  0  0  0  0  0  0  0  0  0
    6.4957    4.6766    0.0000 C   0  0  0  0  0  0  0  0  0  0  0  0
    7.4419    4.9813    0.0000 C   0  0  0  0  0  0  0  0  0  0  0  0
    5.6297    5.1766    0.0000 C   0  0  0  0  0  0  0  0  0  0  0  0
    6.5259   -3.0030    0.0000 C   0  0  1  0  0  0  0  0  0  0  0  0
    4.7636    3.6766    0.0000 C   0  0  0  0  0  0  0  0  0  0  0  0
    5.8555   -2.2610    0.0000 C   0  0  0  0  0  0  0  0  0  0  0  0
    6.2185   -3.9546    0.0000 C   0  0  0  0  0  0  0  0  0  0  0  0
    8.9722   -3.1270    0.0000 C   0  0  0  0  0  0  0  0  0  0  0  0
    9.9238   -3.4344    0.0000 C   0  0  0  0  0  0  0  0  0  0  0  0
    8.2302   -3.7974    0.0000 C   0  0  0  0  0  0  0  0  0  0  0  0
    4.9334   -5.1158    0.0000 C   0  0  0  0  0  0  0  0  0  0  0  0
   10.1334   -4.4121    0.0000 C   0  0  0  0  0  0  0  0  0  0  0  0
    8.4399   -4.7752    0.0000 C   0  0  0  0  0  0  0  0  0  0  0  0
    3.9556   -5.3254    0.0000 C   0  0  0  0  0  0  0  0  0  0  0  0
    9.3915   -5.0826    0.0000 C   0  0  0  0  0  0  0  0  0  0  0  0
    3.6482   -6.2770    0.0000 C   0  0  0  0  0  0  0  0  0  0  0  0
    3.2852   -4.5834    0.0000 C   0  0  0  0  0  0  0  0  0  0  0  0
    2.6704   -6.4866    0.0000 C   0  0  0  0  0  0  0  0  0  0  0  0
    2.3074   -4.7930    0.0000 C   0  0  0  0  0  0  0  0  0  0  0  0
    2.0000   -5.7446    0.0000 C   0  0  0  0  0  0  0  0  0  0  0  0
    8.1902    2.8605    0.0000 H   0  0  0  0  0  0  0  0  0  0  0  0
    8.1945    0.3657    0.0000 H   0  0  0  0  0  0  0  0  0  0  0  0
    6.7047    2.0254    0.0000 H   0  0  0  0  0  0  0  0  0  0  0  0
    6.7062    1.1957    0.0000 H   0  0  0  0  0  0  0  0  0  0  0  0
    9.2051    2.4793    0.0000 H   0  0  0  0  0  0  0  0  0  0  0  0
    9.2081    0.7504    0.0000 H   0  0  0  0  0  0  0  0  0  0  0  0
    6.9001    0.1419    0.0000 H   0  0  0  0  0  0  0  0  0  0  0  0
    7.0671   -0.6375    0.0000 H   0  0  0  0  0  0  0  0  0  0  0  0
    8.6455    4.1766    0.0000 H   0  0  0  0  0  0  0  0  0  0  0  0
    7.6345    5.5707    0.0000 H   0  0  0  0  0  0  0  0  0  0  0  0
    7.9193   -3.2535    0.0000 H   0  0  0  0  0  0  0  0  0  0  0  0
    6.7165   -2.4130    0.0000 H   0  0  0  0  0  0  0  0  0  0  0  0
    4.2267    3.3666    0.0000 H   0  0  0  0  0  0  0  0  0  0  0  0
    5.0927    6.4866    0.0000 H   0  0  0  0  0  0  0  0  0  0  0  0
    6.1666    6.4866    0.0000 H   0  0  0  0  0  0  0  0  0  0  0  0
    6.3155   -1.8454    0.0000 H   0  0  0  0  0  0  0  0  0  0  0  0
    5.4398   -1.8010    0.0000 H   0  0  0  0  0  0  0  0  0  0  0  0
    5.3954   -2.6767    0.0000 H   0  0  0  0  0  0  0  0  0  0  0  0
   10.3839   -3.0187    0.0000 H   0  0  0  0  0  0  0  0  0  0  0  0
    7.6403   -3.6068    0.0000 H   0  0  0  0  0  0  0  0  0  0  0  0
    4.9561   -5.7354    0.0000 H   0  0  0  0  0  0  0  0  0  0  0  0
    5.5475   -5.2010    0.0000 H   0  0  0  0  0  0  0  0  0  0  0  0
   10.7234   -4.6027    0.0000 H   0  0  0  0  0  0  0  0  0  0  0  0
    7.9798   -5.1908    0.0000 H   0  0  0  0  0  0  0  0  0  0  0  0
    9.5214   -5.6888    0.0000 H   0  0  0  0  0  0  0  0  0  0  0  0
    4.0639   -6.7370    0.0000 H   0  0  0  0  0  0  0  0  0  0  0  0
    3.4757   -3.9934    0.0000 H   0  0  0  0  0  0  0  0  0  0  0  0
    2.4798   -7.0766    0.0000 H   0  0  0  0  0  0  0  0  0  0  0  0
    1.8917   -4.3330    0.0000 H   0  0  0  0  0  0  0  0  0  0  0  0
    1.3938   -5.8746    0.0000 H   0  0  0  0  0  0  0  0  0  0  0  0
  1  2  1  0  0  0  0
  1  3  1  0  0  0  0
  1  4  2  0  0  0  0
  1  9  1  0  0  0  0
  2 17  1  0  0  0  0
  3 27  1  0  0  0  0
  5 26  1  0  0  0  0
  5 30  1  0  0  0  0
  6 26  2  0  0  0  0
 12  7  1  1  0  0  0
  7 18  1  0  0  0  0
  7 19  1  0  0  0  0
  8 18  2  0  0  0  0
  8 24  1  0  0  0  0
 23  9  1  6  0  0  0
  9 50  1  0  0  0  0
 10 22  1  0  0  0  0
 10 24  2  0  0  0  0
 11 22  1  0  0  0  0
 11 53  1  0  0  0  0
 11 54  1  0  0  0  0
 12 14  1  0  0  0  0
 12 15  1  0  0  0  0
 12 40  1  0  0  0  0
 13 14  1  0  0  0  0
 13 16  1  0  0  0  0
 13 17  1  1  0  0  0
 13 41  1  0  0  0  0
 14 42  1  0  0  0  0
 14 43  1  0  0  0  0
 15 16  2  0  0  0  0
 15 44  1  0  0  0  0
 16 45  1  0  0  0  0
 17 46  1  0  0  0  0
 17 47  1  0  0  0  0
 18 20  1  0  0  0  0
 19 21  2  0  0  0  0
 19 48  1  0  0  0  0
 20 21  1  0  0  0  0
 20 22  2  0  0  0  0
 21 49  1  0  0  0  0
 23 25  1  0  0  0  0
 23 26  1  0  0  0  0
 23 51  1  0  0  0  0
 24 52  1  0  0  0  0
 25 55  1  0  0  0  0
 25 56  1  0  0  0  0
 25 57  1  0  0  0  0
 27 28  2  0  0  0  0
 27 29  1  0  0  0  0
 28 31  1  0  0  0  0
 28 58  1  0  0  0  0
 29 32  2  0  0  0  0
 29 59  1  0  0  0  0
 30 33  1  0  0  0  0
 30 60  1  0  0  0  0
 30 61  1  0  0  0  0
 31 34  2  0  0  0  0
 31 62  1  0  0  0  0
 32 34  1  0  0  0  0
 32 63  1  0  0  0  0
 33 35  2  0  0  0  0
 33 36  1  0  0  0  0
 34 64  1  0  0  0  0
 35 37  1  0  0  0  0
 35 65  1  0  0  0  0
 36 38  2  0  0  0  0
 36 66  1  0  0  0  0
 37 39  2  0  0  0  0
 37 67  1  0  0  0  0
 38 39  1  0  0  0  0
 38 68  1  0  0  0  0
 39 69  1  0  0  0  0
M  END
> <PUBCHEM_COMPOUND_CID>
513216
> <PUBCHEM_COMPOUND_CANONICALIZED>
1
> <PUBCHEM_CACTVS_COMPLEXITY>
880
> <PUBCHEM_CACTVS_HBOND_ACCEPTOR>
9
> <PUBCHEM_CACTVS_HBOND_DONOR>
2
> <PUBCHEM_CACTVS_ROTATABLE_BOND>
12
> <PUBCHEM_CACTVS_SUBSKEYS>
AAADceB7uAIAAAAAAAAAAAAAAAAAAWIAAAA8YIAAAAAAAFgB/AAAHgAQgCAADSzhmwY/vt9MFRCoQjL3bICCgCkxIqAJ2KG+bJiKLuLA+duHNAhs0BPI6CegwCAOAAAAAAAAAAAAAAAAAAAAAAAAAAAAAA==
> <PUBCHEM_IUPAC_OPENEYE_NAME>
benzyl (2S)-2-[[[(1S,4R)-4-(4-aminopyrrolo[2,3-d]pyrimidin-7-yl)cyclopent-2-en-1-yl]methoxy-phenoxy-phosphoryl]amino]propanoate
> <PUBCHEM_IUPAC_CAS_NAME>
(2S)-2-[[[(1S,4R)-4-(4-amino-7-pyrrolo[2,3-d]pyrimidinyl)-1-cyclopent-2-enyl]methoxy-phenoxyphosphoryl]amino]propanoic acid (phenylmethyl) ester
> <PUBCHEM_IUPAC_NAME_MARKUP>
benzyl (2<I>S</I>)-2-[[[(1<I>S</I>,4<I>R</I>)-4-(4-aminopyrrolo[2,3-d]pyrimidin-7-yl)cyclopent-2-en-1-yl]methoxy-phenoxyphosphoryl]amino]propanoate
> <PUBCHEM_IUPAC_NAME>
benzyl (2S)-2-[[[(1S,4R)-4-(4-aminopyrrolo[2,3-d]pyrimidin-7-yl)cyclopent-2-en-1-yl]methoxy-phenoxyphosphoryl]amino]propanoate
> <PUBCHEM_IUPAC_SYSTEMATIC_NAME>
(phenylmethyl) (2S)-2-[[[(1S,4R)-4-(4-azanylpyrrolo[2,3-d]pyrimidin-7-yl)cyclopent-2-en-1-yl]methoxy-phenoxy-phosphoryl]amino]propanoate
> <PUBCHEM_IUPAC_TRADITIONAL_NAME>
(2S)-2-[[[(1S,4R)-4-(4-aminopyrrolo[2,3-d]pyrimidin-7-yl)cyclopent-2-en-1-yl]methoxy-phenoxy-phosphoryl]amino]propionic acid benzyl ester
> <PUBCHEM_IUPAC_INCHI>
InChI=1S/C28H30N5O5P/c1-20(28(34)36-17-21-8-4-2-5-9-21)32-39(35,38-24-10-6-3-7-11-24)37-18-22-12-13-23(16-22)33-15-14-25-26(29)30-19-31-27(25)33/h2-15,19-20,22-23H,16-18H2,1H3,(H,32,35)(H2,29,30,31)/t20-,22+,23-,39?/m0/s1
> <PUBCHEM_IUPAC_INCHIKEY>
FGHFFJWIEBAPOV-TUOWAAJUSA-N
> <PUBCHEM_XLOGP3_AA>
3.9
> <PUBCHEM_EXACT_MASS>
547.19845607
> <PUBCHEM_MOLECULAR_FORMULA>
C28H30N5O5P
> <PUBCHEM_MOLECULAR_WEIGHT>
547.5
> <PUBCHEM_OPENEYE_CAN_SMILES>
CC(C(=O)OCC1=CC=CC=C1)NP(=O)(OCC2CC(C=C2)N3C=CC4=C(N=CN=C43)N)OC5=CC=CC=C5
> <PUBCHEM_OPENEYE_ISO_SMILES>
C[C@@H](C(=O)OCC1=CC=CC=C1)NP(=O)(OC[C@H]2C[C@H](C=C2)N3C=CC4=C(N=CN=C43)N)OC5=CC=CC=C5
> <PUBCHEM_CACTVS_TPSA>
131
> <PUBCHEM_MONOISOTOPIC_WEIGHT>
547.19845607
> <PUBCHEM_TOTAL_CHARGE>
0
> <PUBCHEM_HEAVY_ATOM_COUNT>
39
> <PUBCHEM_ATOM_DEF_STEREO_COUNT>
3
> <PUBCHEM_ATOM_UDEF_STEREO_COUNT>
1
> <PUBCHEM_BOND_DEF_STEREO_COUNT>
0
> <PUBCHEM_BOND_UDEF_STEREO_COUNT>
0
> <PUBCHEM_ISOTOPIC_ATOM_COUNT>
0
> <PUBCHEM_COMPONENT_COUNT>
1
> <PUBCHEM_CACTVS_TAUTO_COUNT>
-1
> <PUBCHEM_COORDINATE_TYPE>
1
5
255
> <PUBCHEM_BONDANNOTATIONS>
1  9  3
10  22  8
10  24  8
13  17  5
18  20  8
19  21  8
20  21  8
20  22  8
27  28  8
27  29  8
28  31  8
29  32  8
31  34  8
32  34  8
33  35  8
33  36  8
35  37  8
36  38  8
37  39  8
38  39  8
12  7  5
7  18  8
7  19  8
8  18  8
8  24  8
23  9  6
$$$$
