513207
  -OEChem-10302200282D
 59 62  0     1  0  0  0  0  0999 V2000
    5.0474   -2.5272    0.0000 P   0  0  3  0  0  0  0  0  0  0  0  0
    5.3548   -1.5756    0.0000 O   0  0  0  0  0  0  0  0  0  0  0  0
    5.9990   -2.8346    0.0000 O   0  0  0  0  0  0  0  0  0  0  0  0
    4.0958   -2.2199    0.0000 O   0  0  0  0  0  0  0  0  0  0  0  0
    2.4771   -4.8496    0.0000 O   0  0  0  0  0  0  0  0  0  0  0  0
    4.1253   -5.3820    0.0000 O   0  0  0  0  0  0  0  0  0  0  0  0
    4.6783    2.6865    0.0000 N   0  0  0  0  0  0  0  0  0  0  0  0
    2.8660    2.4912    0.0000 N   0  0  0  0  0  0  0  0  0  0  0  0
    4.7400   -3.4788    0.0000 N   0  0  0  0  0  0  0  0  0  0  0  0
    2.0000    3.9912    0.0000 N   0  0  0  0  0  0  0  0  0  0  0  0
    2.8660    5.4912    0.0000 N   0  0  0  0  0  0  0  0  0  0  0  0
    4.9889    1.7360    0.0000 C   0  0  1  0  0  0  0  0  0  0  0  0
    4.9917    0.1179    0.0000 C   0  0  2  0  0  0  0  0  0  0  0  0
    4.4026    0.9259    0.0000 C   0  0  0  0  0  0  0  0  0  0  0  0
    5.9405    1.4286    0.0000 C   0  0  0  0  0  0  0  0  0  0  0  0
    5.9422    0.4286    0.0000 C   0  0  0  0  0  0  0  0  0  0  0  0
    4.6844   -0.8337    0.0000 C   0  0  0  0  0  0  0  0  0  0  0  0
    3.7320    2.9912    0.0000 C   0  0  0  0  0  0  0  0  0  0  0  0
    5.2619    3.4912    0.0000 C   0  0  0  0  0  0  0  0  0  0  0  0
    3.7320    3.9912    0.0000 C   0  0  0  0  0  0  0  0  0  0  0  0
    4.6783    4.2960    0.0000 C   0  0  0  0  0  0  0  0  0  0  0  0
    2.8660    4.4912    0.0000 C   0  0  0  0  0  0  0  0  0  0  0  0
    3.7622   -3.6884    0.0000 C   0  0  1  0  0  0  0  0  0  0  0  0
    2.0000    2.9912    0.0000 C   0  0  0  0  0  0  0  0  0  0  0  0
    3.0918   -2.9464    0.0000 C   0  0  0  0  0  0  0  0  0  0  0  0
    6.2086   -3.8124    0.0000 C   0  0  0  0  0  0  0  0  0  0  0  0
    3.4549   -4.6400    0.0000 C   0  0  0  0  0  0  0  0  0  0  0  0
    7.1602   -4.1198    0.0000 C   0  0  0  0  0  0  0  0  0  0  0  0
    5.4666   -4.4828    0.0000 C   0  0  0  0  0  0  0  0  0  0  0  0
    7.3698   -5.0976    0.0000 C   0  0  0  0  0  0  0  0  0  0  0  0
    5.6762   -5.4606    0.0000 C   0  0  0  0  0  0  0  0  0  0  0  0
    6.6278   -5.7680    0.0000 C   0  0  0  0  0  0  0  0  0  0  0  0
    2.1697   -5.8012    0.0000 C   0  0  0  0  0  0  0  0  0  0  0  0
    5.4266    2.1751    0.0000 H   0  0  0  0  0  0  0  0  0  0  0  0
    5.4309   -0.3197    0.0000 H   0  0  0  0  0  0  0  0  0  0  0  0
    3.9411    1.3400    0.0000 H   0  0  0  0  0  0  0  0  0  0  0  0
    3.9425    0.5103    0.0000 H   0  0  0  0  0  0  0  0  0  0  0  0
    6.4415    1.7939    0.0000 H   0  0  0  0  0  0  0  0  0  0  0  0
    6.4445    0.0650    0.0000 H   0  0  0  0  0  0  0  0  0  0  0  0
    4.1364   -0.5435    0.0000 H   0  0  0  0  0  0  0  0  0  0  0  0
    4.3035   -1.3229    0.0000 H   0  0  0  0  0  0  0  0  0  0  0  0
    5.8819    3.4912    0.0000 H   0  0  0  0  0  0  0  0  0  0  0  0
    4.8709    4.8853    0.0000 H   0  0  0  0  0  0  0  0  0  0  0  0
    5.1557   -3.9389    0.0000 H   0  0  0  0  0  0  0  0  0  0  0  0
    4.1779   -4.1485    0.0000 H   0  0  0  0  0  0  0  0  0  0  0  0
    1.4631    2.6812    0.0000 H   0  0  0  0  0  0  0  0  0  0  0  0
    2.3291    5.8012    0.0000 H   0  0  0  0  0  0  0  0  0  0  0  0
    3.4030    5.8012    0.0000 H   0  0  0  0  0  0  0  0  0  0  0  0
    3.5519   -2.5308    0.0000 H   0  0  0  0  0  0  0  0  0  0  0  0
    2.6762   -2.4864    0.0000 H   0  0  0  0  0  0  0  0  0  0  0  0
    2.6318   -3.3621    0.0000 H   0  0  0  0  0  0  0  0  0  0  0  0
    7.6202   -3.7041    0.0000 H   0  0  0  0  0  0  0  0  0  0  0  0
    4.8766   -4.2922    0.0000 H   0  0  0  0  0  0  0  0  0  0  0  0
    7.9598   -5.2881    0.0000 H   0  0  0  0  0  0  0  0  0  0  0  0
    5.2162   -5.8762    0.0000 H   0  0  0  0  0  0  0  0  0  0  0  0
    6.7578   -6.3742    0.0000 H   0  0  0  0  0  0  0  0  0  0  0  0
    1.5797   -5.6106    0.0000 H   0  0  0  0  0  0  0  0  0  0  0  0
    1.9792   -6.3912    0.0000 H   0  0  0  0  0  0  0  0  0  0  0  0
    2.7597   -5.9918    0.0000 H   0  0  0  0  0  0  0  0  0  0  0  0
  1  2  1  0  0  0  0
  1  3  1  0  0  0  0
  1  4  2  0  0  0  0
  1  9  1  0  0  0  0
  2 17  1  0  0  0  0
  3 26  1  0  0  0  0
  5 27  1  0  0  0  0
  5 33  1  0  0  0  0
  6 27  2  0  0  0  0
 12  7  1  6  0  0  0
  7 18  1  0  0  0  0
  7 19  1  0  0  0  0
  8 18  2  0  0  0  0
  8 24  1  0  0  0  0
 23  9  1  6  0  0  0
  9 44  1  0  0  0  0
 10 22  1  0  0  0  0
 10 24  2  0  0  0  0
 11 22  1  0  0  0  0
 11 47  1  0  0  0  0
 11 48  1  0  0  0  0
 12 14  1  0  0  0  0
 12 15  1  0  0  0  0
 12 34  1  0  0  0  0
 13 14  1  0  0  0  0
 13 16  1  0  0  0  0
 13 17  1  6  0  0  0
 13 35  1  0  0  0  0
 14 36  1  0  0  0  0
 14 37  1  0  0  0  0
 15 16  2  0  0  0  0
 15 38  1  0  0  0  0
 16 39  1  0  0  0  0
 17 40  1  0  0  0  0
 17 41  1  0  0  0  0
 18 20  1  0  0  0  0
 19 21  2  0  0  0  0
 19 42  1  0  0  0  0
 20 21  1  0  0  0  0
 20 22  2  0  0  0  0
 21 43  1  0  0  0  0
 23 25  1  0  0  0  0
 23 27  1  0  0  0  0
 23 45  1  0  0  0  0
 24 46  1  0  0  0  0
 25 49  1  0  0  0  0
 25 50  1  0  0  0  0
 25 51  1  0  0  0  0
 26 28  2  0  0  0  0
 26 29  1  0  0  0  0
 28 30  1  0  0  0  0
 28 52  1  0  0  0  0
 29 31  2  0  0  0  0
 29 53  1  0  0  0  0
 30 32  2  0  0  0  0
 30 54  1  0  0  0  0
 31 32  1  0  0  0  0
 31 55  1  0  0  0  0
 32 56  1  0  0  0  0
 33 57  1  0  0  0  0
 33 58  1  0  0  0  0
 33 59  1  0  0  0  0
M  END
> <PUBCHEM_COMPOUND_CID>
513207
> <PUBCHEM_COMPOUND_CANONICALIZED>
1
> <PUBCHEM_CACTVS_COMPLEXITY>
749
> <PUBCHEM_CACTVS_HBOND_ACCEPTOR>
9
> <PUBCHEM_CACTVS_HBOND_DONOR>
2
> <PUBCHEM_CACTVS_ROTATABLE_BOND>
10
> <PUBCHEM_CACTVS_SUBSKEYS>
AAADceB7uAIAAAAAAAAAAAAAAAAAAWIAAAA8QAAAAAAAAFgB/AAAHgAQgCAADSzhmwY/vt9MFRCoQjL3bICCgCkxIqAJ2KG+bJiKLuLA2dOFNAhs0BPIyCegQAAMAAAAAAAAAAAAAAAAAAAAAAAAAAAAAA==
> <PUBCHEM_IUPAC_OPENEYE_NAME>
methyl (2S)-2-[[[(1R,4S)-4-(4-aminopyrrolo[2,3-d]pyrimidin-7-yl)cyclopent-2-en-1-yl]methoxy-phenoxy-phosphoryl]amino]propanoate
> <PUBCHEM_IUPAC_CAS_NAME>
(2S)-2-[[[(1R,4S)-4-(4-amino-7-pyrrolo[2,3-d]pyrimidinyl)-1-cyclopent-2-enyl]methoxy-phenoxyphosphoryl]amino]propanoic acid methyl ester
> <PUBCHEM_IUPAC_NAME_MARKUP>
methyl (2<I>S</I>)-2-[[[(1<I>R</I>,4<I>S</I>)-4-(4-aminopyrrolo[2,3-d]pyrimidin-7-yl)cyclopent-2-en-1-yl]methoxy-phenoxyphosphoryl]amino]propanoate
> <PUBCHEM_IUPAC_NAME>
methyl (2S)-2-[[[(1R,4S)-4-(4-aminopyrrolo[2,3-d]pyrimidin-7-yl)cyclopent-2-en-1-yl]methoxy-phenoxyphosphoryl]amino]propanoate
> <PUBCHEM_IUPAC_SYSTEMATIC_NAME>
methyl (2S)-2-[[[(1R,4S)-4-(4-azanylpyrrolo[2,3-d]pyrimidin-7-yl)cyclopent-2-en-1-yl]methoxy-phenoxy-phosphoryl]amino]propanoate
> <PUBCHEM_IUPAC_TRADITIONAL_NAME>
(2S)-2-[[[(1R,4S)-4-(4-aminopyrrolo[2,3-d]pyrimidin-7-yl)cyclopent-2-en-1-yl]methoxy-phenoxy-phosphoryl]amino]propionic acid methyl ester
> <PUBCHEM_IUPAC_INCHI>
InChI=1S/C22H26N5O5P/c1-15(22(28)30-2)26-33(29,32-18-6-4-3-5-7-18)31-13-16-8-9-17(12-16)27-11-10-19-20(23)24-14-25-21(19)27/h3-11,14-17H,12-13H2,1-2H3,(H,26,29)(H2,23,24,25)/t15-,16-,17+,33?/m0/s1
> <PUBCHEM_IUPAC_INCHIKEY>
DUYTUDAGYSQBIP-BSZFAEHMSA-N
> <PUBCHEM_XLOGP3_AA>
2.4
> <PUBCHEM_EXACT_MASS>
471.16715594
> <PUBCHEM_MOLECULAR_FORMULA>
C22H26N5O5P
> <PUBCHEM_MOLECULAR_WEIGHT>
471.4
> <PUBCHEM_OPENEYE_CAN_SMILES>
CC(C(=O)OC)NP(=O)(OCC1CC(C=C1)N2C=CC3=C(N=CN=C32)N)OC4=CC=CC=C4
> <PUBCHEM_OPENEYE_ISO_SMILES>
C[C@@H](C(=O)OC)NP(=O)(OC[C@@H]1C[C@@H](C=C1)N2C=CC3=C(N=CN=C32)N)OC4=CC=CC=C4
> <PUBCHEM_CACTVS_TPSA>
131
> <PUBCHEM_MONOISOTOPIC_WEIGHT>
471.16715594
> <PUBCHEM_TOTAL_CHARGE>
0
> <PUBCHEM_HEAVY_ATOM_COUNT>
33
> <PUBCHEM_ATOM_DEF_STEREO_COUNT>
3
> <PUBCHEM_ATOM_UDEF_STEREO_COUNT>
1
> <PUBCHEM_BOND_DEF_STEREO_COUNT>
0
> <PUBCHEM_BOND_UDEF_STEREO_COUNT>
0
> <PUBCHEM_ISOTOPIC_ATOM_COUNT>
0
> <PUBCHEM_COMPONENT_COUNT>
1
> <PUBCHEM_CACTVS_TAUTO_COUNT>
-1
> <PUBCHEM_COORDINATE_TYPE>
1
5
255
> <PUBCHEM_BONDANNOTATIONS>
1  9  3
10  22  8
10  24  8
13  17  6
18  20  8
19  21  8
20  21  8
20  22  8
26  28  8
26  29  8
28  30  8
29  31  8
30  32  8
31  32  8
12  7  6
7  18  8
7  19  8
8  18  8
8  24  8
23  9  6
$$$$
