513257
  -OEChem-10302200282D
 33 34  0     1  0  0  0  0  0999 V2000
    9.2619   -1.3195    0.0000 P   0  0  0  0  0  0  0  0  0  0  0  0
    7.7619   -0.4535    0.0000 O   0  0  0  0  0  0  0  0  0  0  0  0
    6.7619   -2.1856    0.0000 O   0  0  0  0  0  0  0  0  0  0  0  0
   10.2619   -1.3195    0.0000 O   0  0  0  0  0  0  0  0  0  0  0  0
    9.2619   -2.3195    0.0000 O   0  0  0  0  0  0  0  0  0  0  0  0
    9.2619   -0.3195    0.0000 O   0  0  0  0  0  0  0  0  0  0  0  0
    5.2619    0.4125    0.0000 N   0  0  0  0  0  0  0  0  0  0  0  0
    4.6783    1.2172    0.0000 N   0  0  0  0  0  0  0  0  0  0  0  0
    4.6783   -0.3922    0.0000 N   0  0  0  0  0  0  0  0  0  0  0  0
    2.8660   -0.5875    0.0000 N   0  0  0  0  0  0  0  0  0  0  0  0
    2.0000    0.9125    0.0000 N   0  0  0  0  0  0  0  0  0  0  0  0
    2.8660    2.4125    0.0000 N   0  0  0  0  0  0  0  0  0  0  0  0
    6.7619   -0.4535    0.0000 C   0  0  1  0  0  0  0  0  0  0  0  0
    6.2619    0.4125    0.0000 C   0  0  0  0  0  0  0  0  0  0  0  0
    6.2619   -1.3195    0.0000 C   0  0  0  0  0  0  0  0  0  0  0  0
    8.2619   -1.3195    0.0000 C   0  0  0  0  0  0  0  0  0  0  0  0
    3.7320    0.9125    0.0000 C   0  0  0  0  0  0  0  0  0  0  0  0
    3.7320   -0.0875    0.0000 C   0  0  0  0  0  0  0  0  0  0  0  0
    2.8660    1.4125    0.0000 C   0  0  0  0  0  0  0  0  0  0  0  0
    2.0000   -0.0875    0.0000 C   0  0  0  0  0  0  0  0  0  0  0  0
    7.0719   -0.9905    0.0000 H   0  0  0  0  0  0  0  0  0  0  0  0
    6.8445    0.6246    0.0000 H   0  0  0  0  0  0  0  0  0  0  0  0
    6.1542    1.0231    0.0000 H   0  0  0  0  0  0  0  0  0  0  0  0
    5.7869   -0.9210    0.0000 H   0  0  0  0  0  0  0  0  0  0  0  0
    5.7869   -1.7181    0.0000 H   0  0  0  0  0  0  0  0  0  0  0  0
    7.6793   -1.5316    0.0000 H   0  0  0  0  0  0  0  0  0  0  0  0
    8.3695   -1.9301    0.0000 H   0  0  0  0  0  0  0  0  0  0  0  0
    6.4519   -2.7225    0.0000 H   0  0  0  0  0  0  0  0  0  0  0  0
    1.4631   -0.3975    0.0000 H   0  0  0  0  0  0  0  0  0  0  0  0
   10.5719   -1.8565    0.0000 H   0  0  0  0  0  0  0  0  0  0  0  0
    9.7988   -2.6295    0.0000 H   0  0  0  0  0  0  0  0  0  0  0  0
    2.3291    2.7225    0.0000 H   0  0  0  0  0  0  0  0  0  0  0  0
    3.4030    2.7225    0.0000 H   0  0  0  0  0  0  0  0  0  0  0  0
  1  4  1  0  0  0  0
  1  5  1  0  0  0  0
  1  6  2  0  0  0  0
  1 16  1  0  0  0  0
 13  2  1  6  0  0  0
  2 16  1  0  0  0  0
  3 15  1  0  0  0  0
  3 28  1  0  0  0  0
  4 30  1  0  0  0  0
  5 31  1  0  0  0  0
  7  8  1  0  0  0  0
  7  9  1  0  0  0  0
  7 14  1  0  0  0  0
  8 17  2  0  0  0  0
  9 18  2  0  0  0  0
 10 18  1  0  0  0  0
 10 20  2  0  0  0  0
 11 19  2  0  0  0  0
 11 20  1  0  0  0  0
 12 19  1  0  0  0  0
 12 32  1  0  0  0  0
 12 33  1  0  0  0  0
 13 14  1  0  0  0  0
 13 15  1  0  0  0  0
 13 21  1  0  0  0  0
 14 22  1  0  0  0  0
 14 23  1  0  0  0  0
 15 24  1  0  0  0  0
 15 25  1  0  0  0  0
 16 26  1  0  0  0  0
 16 27  1  0  0  0  0
 17 18  1  0  0  0  0
 17 19  1  0  0  0  0
 20 29  1  0  0  0  0
M  END
> <PUBCHEM_COMPOUND_CID>
513257
> <PUBCHEM_COMPOUND_CANONICALIZED>
1
> <PUBCHEM_CACTVS_COMPLEXITY>
369
> <PUBCHEM_CACTVS_HBOND_ACCEPTOR>
10
> <PUBCHEM_CACTVS_HBOND_DONOR>
4
> <PUBCHEM_CACTVS_ROTATABLE_BOND>
6
> <PUBCHEM_CACTVS_SUBSKEYS>
AAADccBzuAIAAAAAAAAAAAAAAAAAAWAAAAAsAAAAAAAAAFgB+AAAHggYCCAACBzhlwYF8L5IFhCiQQZhZICQhC8RkKAVUCAoVBCDWABASEAVRAgKCAJDACAAAAAAAAAAAAAAAAAAAAAAAAAAAAAAAAAAAA==
> <PUBCHEM_IUPAC_OPENEYE_NAME>
[(1S)-1-[(7-aminotriazolo[4,5-d]pyrimidin-2-yl)methyl]-2-hydroxy-ethoxy]methylphosphonic acid
> <PUBCHEM_IUPAC_CAS_NAME>
[(2S)-1-(7-amino-2-triazolo[4,5-d]pyrimidinyl)-3-hydroxypropan-2-yl]oxymethylphosphonic acid
> <PUBCHEM_IUPAC_NAME_MARKUP>
[(2<I>S</I>)-1-(7-aminotriazolo[4,5-d]pyrimidin-2-yl)-3-hydroxypropan-2-yl]oxymethylphosphonic acid
> <PUBCHEM_IUPAC_NAME>
[(2S)-1-(7-aminotriazolo[4,5-d]pyrimidin-2-yl)-3-hydroxypropan-2-yl]oxymethylphosphonic acid
> <PUBCHEM_IUPAC_SYSTEMATIC_NAME>
[(2S)-1-(7-azanyl-[1,2,3]triazolo[4,5-d]pyrimidin-2-yl)-3-oxidanyl-propan-2-yl]oxymethylphosphonic acid
> <PUBCHEM_IUPAC_TRADITIONAL_NAME>
[(1S)-1-[(7-aminotriazolo[4,5-d]pyrimidin-2-yl)methyl]-2-hydroxy-ethoxy]methylphosphonic acid
> <PUBCHEM_IUPAC_INCHI>
InChI=1S/C8H13N6O5P/c9-7-6-8(11-3-10-7)13-14(12-6)1-5(2-15)19-4-20(16,17)18/h3,5,15H,1-2,4H2,(H2,16,17,18)(H2,9,10,11,13)/t5-/m0/s1
> <PUBCHEM_IUPAC_INCHIKEY>
USXXJROTGMHYDG-YFKPBYRVSA-N
> <PUBCHEM_XLOGP3_AA>
-2.6
> <PUBCHEM_EXACT_MASS>
304.06850453
> <PUBCHEM_MOLECULAR_FORMULA>
C8H13N6O5P
> <PUBCHEM_MOLECULAR_WEIGHT>
304.20
> <PUBCHEM_OPENEYE_CAN_SMILES>
C1=NC2=NN(N=C2C(=N1)N)CC(CO)OCP(=O)(O)O
> <PUBCHEM_OPENEYE_ISO_SMILES>
C1=NC2=NN(N=C2C(=N1)N)C[C@@H](CO)OCP(=O)(O)O
> <PUBCHEM_CACTVS_TPSA>
170
> <PUBCHEM_MONOISOTOPIC_WEIGHT>
304.06850453
> <PUBCHEM_TOTAL_CHARGE>
0
> <PUBCHEM_HEAVY_ATOM_COUNT>
20
> <PUBCHEM_ATOM_DEF_STEREO_COUNT>
1
> <PUBCHEM_ATOM_UDEF_STEREO_COUNT>
0
> <PUBCHEM_BOND_DEF_STEREO_COUNT>
0
> <PUBCHEM_BOND_UDEF_STEREO_COUNT>
0
> <PUBCHEM_ISOTOPIC_ATOM_COUNT>
0
> <PUBCHEM_COMPONENT_COUNT>
1
> <PUBCHEM_CACTVS_TAUTO_COUNT>
-1
> <PUBCHEM_COORDINATE_TYPE>
1
5
255
> <PUBCHEM_BONDANNOTATIONS>
10  18  8
10  20  8
11  19  8
11  20  8
17  18  8
17  19  8
13  2  6
7  8  8
7  9  8
8  17  8
9  18  8
$$$$
