513231
  -OEChem-10302200282D
 56 59  0     1  0  0  0  0  0999 V2000
    2.9176    1.4949    0.0000 Cl  0  0  0  0  0  0  0  0  0  0  0  0
    5.5321   -1.0397    0.0000 P   0  0  3  0  0  0  0  0  0  0  0  0
    5.5321   -0.0397    0.0000 O   0  0  0  0  0  0  0  0  0  0  0  0
    8.6198   -0.9827    0.0000 O   0  0  0  0  0  0  0  0  0  0  0  0
    6.5321   -1.0397    0.0000 O   0  0  0  0  0  0  0  0  0  0  0  0
    4.6660   -1.5397    0.0000 O   0  0  0  0  0  0  0  0  0  0  0  0
    6.0321   -1.9057    0.0000 O   0  0  0  0  0  0  0  0  0  0  0  0
    9.3618   -2.6627    0.0000 O   0  0  0  0  0  0  0  0  0  0  0  0
   12.8070   -3.0248    0.0000 O   0  0  0  0  0  0  0  0  0  0  0  0
   10.3799   -1.2614    0.0000 N   0  0  0  0  0  0  0  0  0  0  0  0
   11.0844   -2.8437    0.0000 N   0  0  0  0  0  0  0  0  0  0  0  0
    4.6660    0.4603    0.0000 C   0  0  3  0  0  0  0  0  0  0  0  0
    4.6660    1.4603    0.0000 C   0  0  0  0  0  0  0  0  0  0  0  0
    3.8000   -0.0397    0.0000 C   0  0  0  0  0  0  0  0  0  0  0  0
    8.0321   -0.1736    0.0000 C   0  0  2  0  0  0  0  0  0  0  0  0
    5.5321    1.9603    0.0000 C   0  0  0  0  0  0  0  0  0  0  0  0
    9.5709   -0.6736    0.0000 C   0  0  1  0  0  0  0  0  0  0  0  0
    7.0321   -0.1736    0.0000 C   0  0  0  0  0  0  0  0  0  0  0  0
    3.8000   -1.0397    0.0000 C   0  0  0  0  0  0  0  0  0  0  0  0
    5.5321    2.9603    0.0000 C   0  0  0  0  0  0  0  0  0  0  0  0
    8.6198    0.6354    0.0000 C   0  0  0  0  0  0  0  0  0  0  0  0
    9.5709    0.3264    0.0000 C   0  0  0  0  0  0  0  0  0  0  0  0
    2.9061    0.4950    0.0000 C   0  0  0  0  0  0  0  0  0  0  0  0
    2.9061   -1.5743    0.0000 C   0  0  0  0  0  0  0  0  0  0  0  0
    6.3981    3.4603    0.0000 C   0  0  0  0  0  0  0  0  0  0  0  0
    2.0000   -0.0188    0.0000 C   0  0  0  0  0  0  0  0  0  0  0  0
   11.2935   -0.8547    0.0000 C   0  0  0  0  0  0  0  0  0  0  0  0
    2.0000   -1.0605    0.0000 C   0  0  0  0  0  0  0  0  0  0  0  0
   10.2754   -2.2560    0.0000 C   0  0  0  0  0  0  0  0  0  0  0  0
   12.1025   -1.4425    0.0000 C   0  0  0  0  0  0  0  0  0  0  0  0
   11.9980   -2.4370    0.0000 C   0  0  0  0  0  0  0  0  0  0  0  0
   13.0160   -1.0357    0.0000 C   0  0  0  0  0  0  0  0  0  0  0  0
    5.2030    0.7703    0.0000 H   0  0  0  0  0  0  0  0  0  0  0  0
    4.4540    2.0429    0.0000 H   0  0  0  0  0  0  0  0  0  0  0  0
    4.0555    1.3527    0.0000 H   0  0  0  0  0  0  0  0  0  0  0  0
    7.7506   -0.7261    0.0000 H   0  0  0  0  0  0  0  0  0  0  0  0
    5.7441    1.3777    0.0000 H   0  0  0  0  0  0  0  0  0  0  0  0
    6.1426    2.0680    0.0000 H   0  0  0  0  0  0  0  0  0  0  0  0
    9.4739   -1.2860    0.0000 H   0  0  0  0  0  0  0  0  0  0  0  0
    7.1397    0.4369    0.0000 H   0  0  0  0  0  0  0  0  0  0  0  0
    6.4494    0.0384    0.0000 H   0  0  0  0  0  0  0  0  0  0  0  0
    8.4282    1.2250    0.0000 H   0  0  0  0  0  0  0  0  0  0  0  0
    5.3200    3.5429    0.0000 H   0  0  0  0  0  0  0  0  0  0  0  0
    4.9215    2.8527    0.0000 H   0  0  0  0  0  0  0  0  0  0  0  0
   10.0725    0.6908    0.0000 H   0  0  0  0  0  0  0  0  0  0  0  0
    2.9132   -2.1943    0.0000 H   0  0  0  0  0  0  0  0  0  0  0  0
    6.7081    2.9234    0.0000 H   0  0  0  0  0  0  0  0  0  0  0  0
    6.9350    3.7703    0.0000 H   0  0  0  0  0  0  0  0  0  0  0  0
    6.0881    3.9973    0.0000 H   0  0  0  0  0  0  0  0  0  0  0  0
    1.4643    0.2932    0.0000 H   0  0  0  0  0  0  0  0  0  0  0  0
   11.3583   -0.2381    0.0000 H   0  0  0  0  0  0  0  0  0  0  0  0
    1.4643   -1.3726    0.0000 H   0  0  0  0  0  0  0  0  0  0  0  0
   11.0196   -3.4603    0.0000 H   0  0  0  0  0  0  0  0  0  0  0  0
   13.2682   -1.6021    0.0000 H   0  0  0  0  0  0  0  0  0  0  0  0
   13.5824   -0.7836    0.0000 H   0  0  0  0  0  0  0  0  0  0  0  0
   12.7639   -0.4693    0.0000 H   0  0  0  0  0  0  0  0  0  0  0  0
  1 23  1  0  0  0  0
  2  3  1  0  0  0  0
  2  5  1  0  0  0  0
  2  6  1  0  0  0  0
  2  7  2  0  0  0  0
  3 12  1  0  0  0  0
  4 15  1  0  0  0  0
  4 17  1  0  0  0  0
  5 18  1  0  0  0  0
  6 19  1  0  0  0  0
  8 29  2  0  0  0  0
  9 31  2  0  0  0  0
 17 10  1  6  0  0  0
 10 27  1  0  0  0  0
 10 29  1  0  0  0  0
 11 29  1  0  0  0  0
 11 31  1  0  0  0  0
 11 53  1  0  0  0  0
 12 13  1  0  0  0  0
 12 14  1  0  0  0  0
 12 33  1  0  0  0  0
 13 16  1  0  0  0  0
 13 34  1  0  0  0  0
 13 35  1  0  0  0  0
 14 19  2  0  0  0  0
 14 23  1  0  0  0  0
 15 18  1  6  0  0  0
 15 21  1  0  0  0  0
 15 36  1  0  0  0  0
 16 20  1  0  0  0  0
 16 37  1  0  0  0  0
 16 38  1  0  0  0  0
 17 22  1  0  0  0  0
 17 39  1  0  0  0  0
 18 40  1  0  0  0  0
 18 41  1  0  0  0  0
 19 24  1  0  0  0  0
 20 25  1  0  0  0  0
 20 43  1  0  0  0  0
 20 44  1  0  0  0  0
 21 22  2  0  0  0  0
 21 42  1  0  0  0  0
 22 45  1  0  0  0  0
 23 26  2  0  0  0  0
 24 28  2  0  0  0  0
 24 46  1  0  0  0  0
 25 47  1  0  0  0  0
 25 48  1  0  0  0  0
 25 49  1  0  0  0  0
 26 28  1  0  0  0  0
 26 50  1  0  0  0  0
 27 30  2  0  0  0  0
 27 51  1  0  0  0  0
 28 52  1  0  0  0  0
 30 31  1  0  0  0  0
 30 32  1  0  0  0  0
 32 54  1  0  0  0  0
 32 55  1  0  0  0  0
 32 56  1  0  0  0  0
M  END
> <PUBCHEM_COMPOUND_CID>
513231
> <PUBCHEM_COMPOUND_CANONICALIZED>
1
> <PUBCHEM_CACTVS_COMPLEXITY>
850
> <PUBCHEM_CACTVS_HBOND_ACCEPTOR>
7
> <PUBCHEM_CACTVS_HBOND_DONOR>
1
> <PUBCHEM_CACTVS_ROTATABLE_BOND>
7
> <PUBCHEM_CACTVS_SUBSKEYS>
AAADceB7OAIEAAAAAAAAAAAAAAAAAQAAAAA0QIAAAAAAAACRAAAAHgIQACAADBbhmCYzBoPABRCIQiFWUICCAAAgJQAIiAEOCsiJJyKBMxKOMAAtxzMKqMeAwOAOAAAAAQAJAAAAAAACABIAAAAAAAAAAA==
> <PUBCHEM_IUPAC_OPENEYE_NAME>
1-[(2R,5S)-5-[(4-butyl-5-chloro-2-oxo-4H-1,3,2lambda5-benzodioxaphosphinin-2-yl)oxymethyl]-2,5-dihydrofuran-2-yl]-5-methyl-pyrimidine-2,4-dione
> <PUBCHEM_IUPAC_CAS_NAME>
1-[(2R,5S)-5-[(4-butyl-5-chloro-2-oxo-4H-1,3,2lambda5-benzodioxaphosphorin-2-yl)oxymethyl]-2,5-dihydrofuran-2-yl]-5-methylpyrimidine-2,4-dione
> <PUBCHEM_IUPAC_NAME_MARKUP>
1-[(2<I>R</I>,5<I>S</I>)-5-[(4-butyl-5-chloro-2-oxo-4<I>H</I>-1,3,2&lambda;<SUP>5</SUP>-benzodioxaphosphinin-2-yl)oxymethyl]-2,5-dihydrofuran-2-yl]-5-methylpyrimidine-2,4-dione
> <PUBCHEM_IUPAC_NAME>
1-[(2R,5S)-5-[(4-butyl-5-chloro-2-oxo-4H-1,3,2lambda5-benzodioxaphosphinin-2-yl)oxymethyl]-2,5-dihydrofuran-2-yl]-5-methylpyrimidine-2,4-dione
> <PUBCHEM_IUPAC_SYSTEMATIC_NAME>
1-[(2R,5S)-5-[(4-butyl-5-chloranyl-2-oxidanylidene-4H-1,3,2lambda5-benzodioxaphosphinin-2-yl)oxymethyl]-2,5-dihydrofuran-2-yl]-5-methyl-pyrimidine-2,4-dione
> <PUBCHEM_IUPAC_TRADITIONAL_NAME>
1-[(2R,5S)-5-[(4-butyl-5-chloro-2-keto-4H-1,3,2lambda5-benzodioxaphosphorin-2-yl)oxymethyl]-2,5-dihydrofuran-2-yl]-5-methyl-pyrimidine-2,4-quinone
> <PUBCHEM_IUPAC_INCHI>
InChI=1S/C21H24ClN2O7P/c1-3-4-7-16-19-15(22)6-5-8-17(19)31-32(27,30-16)28-12-14-9-10-18(29-14)24-11-13(2)20(25)23-21(24)26/h5-6,8-11,14,16,18H,3-4,7,12H2,1-2H3,(H,23,25,26)/t14-,16?,18+,32?/m0/s1
> <PUBCHEM_IUPAC_INCHIKEY>
JGMQXPSFUSTZBV-JGQYHNOCSA-N
> <PUBCHEM_XLOGP3_AA>
3
> <PUBCHEM_EXACT_MASS>
482.1009658
> <PUBCHEM_MOLECULAR_FORMULA>
C21H24ClN2O7P
> <PUBCHEM_MOLECULAR_WEIGHT>
482.8
> <PUBCHEM_OPENEYE_CAN_SMILES>
CCCCC1C2=C(C=CC=C2Cl)OP(=O)(O1)OCC3C=CC(O3)N4C=C(C(=O)NC4=O)C
> <PUBCHEM_OPENEYE_ISO_SMILES>
CCCCC1C2=C(C=CC=C2Cl)OP(=O)(O1)OC[C@@H]3C=C[C@@H](O3)N4C=C(C(=O)NC4=O)C
> <PUBCHEM_CACTVS_TPSA>
103
> <PUBCHEM_MONOISOTOPIC_WEIGHT>
482.1009658
> <PUBCHEM_TOTAL_CHARGE>
0
> <PUBCHEM_HEAVY_ATOM_COUNT>
32
> <PUBCHEM_ATOM_DEF_STEREO_COUNT>
2
> <PUBCHEM_ATOM_UDEF_STEREO_COUNT>
2
> <PUBCHEM_BOND_DEF_STEREO_COUNT>
0
> <PUBCHEM_BOND_UDEF_STEREO_COUNT>
0
> <PUBCHEM_ISOTOPIC_ATOM_COUNT>
0
> <PUBCHEM_COMPONENT_COUNT>
1
> <PUBCHEM_CACTVS_TAUTO_COUNT>
-1
> <PUBCHEM_COORDINATE_TYPE>
1
5
255
> <PUBCHEM_BONDANNOTATIONS>
17  10  6
10  27  8
10  29  8
11  29  8
11  31  8
12  13  3
14  19  8
14  23  8
15  18  6
19  24  8
2  5  3
23  26  8
24  28  8
26  28  8
27  30  8
30  31  8
$$$$
