513229
  -OEChem-10302200282D
 49 51  0     1  0  0  0  0  0999 V2000
    5.5321   -1.8308    0.0000 P   0  0  3  0  0  0  0  0  0  0  0  0
    6.5321   -1.8308    0.0000 O   0  0  0  0  0  0  0  0  0  0  0  0
    4.6660   -2.3308    0.0000 O   0  0  0  0  0  0  0  0  0  0  0  0
    8.5321   -0.0987    0.0000 O   0  0  0  0  0  0  0  0  0  0  0  0
    5.5321   -0.8308    0.0000 O   0  0  0  0  0  0  0  0  0  0  0  0
    6.0321   -2.6968    0.0000 O   0  0  0  0  0  0  0  0  0  0  0  0
    9.5321   -1.8308    0.0000 O   0  0  0  0  0  0  0  0  0  0  0  0
   11.5321   -0.0987    0.0000 O   0  0  0  0  0  0  0  0  0  0  0  0
   11.5321    3.3654    0.0000 O   0  0  0  0  0  0  0  0  0  0  0  0
   10.0321    0.7673    0.0000 N   0  0  0  0  0  0  0  0  0  0  0  0
   11.5321    1.6333    0.0000 N   0  0  0  0  0  0  0  0  0  0  0  0
    8.0321   -0.9648    0.0000 C   0  0  3  0  0  0  0  0  0  0  0  0
    7.0321   -0.9648    0.0000 C   0  0  0  0  0  0  0  0  0  0  0  0
    3.8000   -0.8308    0.0000 C   0  0  0  0  0  0  0  0  0  0  0  0
    3.8000   -1.8308    0.0000 C   0  0  0  0  0  0  0  0  0  0  0  0
    4.6660   -0.3308    0.0000 C   0  0  0  0  0  0  0  0  0  0  0  0
    8.5321   -1.8308    0.0000 C   0  0  0  0  0  0  0  0  0  0  0  0
    2.9061   -2.3654    0.0000 C   0  0  0  0  0  0  0  0  0  0  0  0
    9.5321   -0.0987    0.0000 C   0  0  0  0  0  0  0  0  0  0  0  0
    2.9061   -0.2961    0.0000 C   0  0  0  0  0  0  0  0  0  0  0  0
    2.0000   -1.8516    0.0000 C   0  0  0  0  0  0  0  0  0  0  0  0
    2.0000   -0.8100    0.0000 C   0  0  0  0  0  0  0  0  0  0  0  0
    2.9176   -3.3654    0.0000 C   0  0  0  0  0  0  0  0  0  0  0  0
    9.5321    1.6333    0.0000 C   0  0  0  0  0  0  0  0  0  0  0  0
   11.0321    0.7673    0.0000 C   0  0  0  0  0  0  0  0  0  0  0  0
   10.0321    2.4994    0.0000 C   0  0  0  0  0  0  0  0  0  0  0  0
   11.0321    2.4994    0.0000 C   0  0  0  0  0  0  0  0  0  0  0  0
    9.5321    3.3654    0.0000 C   0  0  0  0  0  0  0  0  0  0  0  0
    7.7221   -0.4278    0.0000 H   0  0  0  0  0  0  0  0  0  0  0  0
    7.1397   -0.3542    0.0000 H   0  0  0  0  0  0  0  0  0  0  0  0
    6.4494   -0.7527    0.0000 H   0  0  0  0  0  0  0  0  0  0  0  0
    5.0646    0.1442    0.0000 H   0  0  0  0  0  0  0  0  0  0  0  0
    4.2675    0.1442    0.0000 H   0  0  0  0  0  0  0  0  0  0  0  0
    7.9494   -2.0428    0.0000 H   0  0  0  0  0  0  0  0  0  0  0  0
    8.6397   -2.4414    0.0000 H   0  0  0  0  0  0  0  0  0  0  0  0
    9.4244   -0.7093    0.0000 H   0  0  0  0  0  0  0  0  0  0  0  0
   10.1147   -0.3108    0.0000 H   0  0  0  0  0  0  0  0  0  0  0  0
    2.9132    0.3238    0.0000 H   0  0  0  0  0  0  0  0  0  0  0  0
    1.4643   -2.1637    0.0000 H   0  0  0  0  0  0  0  0  0  0  0  0
    1.4643   -0.4979    0.0000 H   0  0  0  0  0  0  0  0  0  0  0  0
    2.2977   -3.3725    0.0000 H   0  0  0  0  0  0  0  0  0  0  0  0
    2.9248   -3.9853    0.0000 H   0  0  0  0  0  0  0  0  0  0  0  0
    3.5376   -3.3582    0.0000 H   0  0  0  0  0  0  0  0  0  0  0  0
    8.9121    1.6333    0.0000 H   0  0  0  0  0  0  0  0  0  0  0  0
   12.1521    1.6333    0.0000 H   0  0  0  0  0  0  0  0  0  0  0  0
    9.8421   -2.3677    0.0000 H   0  0  0  0  0  0  0  0  0  0  0  0
   10.0690    3.6754    0.0000 H   0  0  0  0  0  0  0  0  0  0  0  0
    9.2221    3.9023    0.0000 H   0  0  0  0  0  0  0  0  0  0  0  0
    8.9951    3.0554    0.0000 H   0  0  0  0  0  0  0  0  0  0  0  0
  1  2  1  0  0  0  0
  1  3  1  0  0  0  0
  1  5  1  0  0  0  0
  1  6  2  0  0  0  0
  2 13  1  0  0  0  0
  3 15  1  0  0  0  0
  4 12  1  0  0  0  0
  4 19  1  0  0  0  0
  5 16  1  0  0  0  0
  7 17  1  0  0  0  0
  7 46  1  0  0  0  0
  8 25  2  0  0  0  0
  9 27  2  0  0  0  0
 10 19  1  0  0  0  0
 10 24  1  0  0  0  0
 10 25  1  0  0  0  0
 11 25  1  0  0  0  0
 11 27  1  0  0  0  0
 11 45  1  0  0  0  0
 12 13  1  0  0  0  0
 12 17  1  0  0  0  0
 12 29  1  0  0  0  0
 13 30  1  0  0  0  0
 13 31  1  0  0  0  0
 14 15  1  0  0  0  0
 14 16  1  0  0  0  0
 14 20  2  0  0  0  0
 15 18  2  0  0  0  0
 16 32  1  0  0  0  0
 16 33  1  0  0  0  0
 17 34  1  0  0  0  0
 17 35  1  0  0  0  0
 18 21  1  0  0  0  0
 18 23  1  0  0  0  0
 19 36  1  0  0  0  0
 19 37  1  0  0  0  0
 20 22  1  0  0  0  0
 20 38  1  0  0  0  0
 21 22  2  0  0  0  0
 21 39  1  0  0  0  0
 22 40  1  0  0  0  0
 23 41  1  0  0  0  0
 23 42  1  0  0  0  0
 23 43  1  0  0  0  0
 24 26  2  0  0  0  0
 24 44  1  0  0  0  0
 26 27  1  0  0  0  0
 26 28  1  0  0  0  0
 28 47  1  0  0  0  0
 28 48  1  0  0  0  0
 28 49  1  0  0  0  0
M  END
> <PUBCHEM_COMPOUND_CID>
513229
> <PUBCHEM_COMPOUND_CANONICALIZED>
1
> <PUBCHEM_CACTVS_COMPLEXITY>
684
> <PUBCHEM_CACTVS_HBOND_ACCEPTOR>
8
> <PUBCHEM_CACTVS_HBOND_DONOR>
2
> <PUBCHEM_CACTVS_ROTATABLE_BOND>
7
> <PUBCHEM_CACTVS_SUBSKEYS>
AAADceB7PAIAAAAAAAAAAAAAAAAAAAAAAAA0QIAAAAAAAACRAAAAHgAQCCAADBThmAYzBoPABxCIQiFWUICCAAAgIAAIiAEMCMiJNyKAERKMcAAtxzMLiMeAwGAOAAACAAAIAAAAAAQAABAAAAAAAAAAAA==
> <PUBCHEM_IUPAC_OPENEYE_NAME>
1-[[1-(hydroxymethyl)-2-[(8-methyl-2-oxo-4H-1,3,2lambda5-benzodioxaphosphinin-2-yl)oxy]ethoxy]methyl]-5-methyl-pyrimidine-2,4-dione
> <PUBCHEM_IUPAC_CAS_NAME>
1-[[1-hydroxy-3-[(8-methyl-2-oxo-4H-1,3,2lambda5-benzodioxaphosphorin-2-yl)oxy]propan-2-yl]oxymethyl]-5-methylpyrimidine-2,4-dione
> <PUBCHEM_IUPAC_NAME_MARKUP>
1-[[1-hydroxy-3-[(8-methyl-2-oxo-4<I>H</I>-1,3,2&lambda;<SUP>5</SUP>-benzodioxaphosphinin-2-yl)oxy]propan-2-yl]oxymethyl]-5-methylpyrimidine-2,4-dione
> <PUBCHEM_IUPAC_NAME>
1-[[1-hydroxy-3-[(8-methyl-2-oxo-4H-1,3,2lambda5-benzodioxaphosphinin-2-yl)oxy]propan-2-yl]oxymethyl]-5-methylpyrimidine-2,4-dione
> <PUBCHEM_IUPAC_SYSTEMATIC_NAME>
5-methyl-1-[[1-[(8-methyl-2-oxidanylidene-4H-1,3,2lambda5-benzodioxaphosphinin-2-yl)oxy]-3-oxidanyl-propan-2-yl]oxymethyl]pyrimidine-2,4-dione
> <PUBCHEM_IUPAC_TRADITIONAL_NAME>
1-[[2-hydroxy-1-[(2-keto-8-methyl-4H-1,3,2lambda5-benzodioxaphosphorin-2-yl)oxymethyl]ethoxy]methyl]-5-methyl-pyrimidine-2,4-quinone
> <PUBCHEM_IUPAC_INCHI>
InChI=1S/C17H21N2O8P/c1-11-4-3-5-13-8-25-28(23,27-15(11)13)26-9-14(7-20)24-10-19-6-12(2)16(21)18-17(19)22/h3-6,14,20H,7-10H2,1-2H3,(H,18,21,22)
> <PUBCHEM_IUPAC_INCHIKEY>
OMTNCUXRAQVVJI-UHFFFAOYSA-N
> <PUBCHEM_XLOGP3_AA>
0
> <PUBCHEM_EXACT_MASS>
412.10355263
> <PUBCHEM_MOLECULAR_FORMULA>
C17H21N2O8P
> <PUBCHEM_MOLECULAR_WEIGHT>
412.3
> <PUBCHEM_OPENEYE_CAN_SMILES>
CC1=C2C(=CC=C1)COP(=O)(O2)OCC(CO)OCN3C=C(C(=O)NC3=O)C
> <PUBCHEM_OPENEYE_ISO_SMILES>
CC1=C2C(=CC=C1)COP(=O)(O2)OCC(CO)OCN3C=C(C(=O)NC3=O)C
> <PUBCHEM_CACTVS_TPSA>
124
> <PUBCHEM_MONOISOTOPIC_WEIGHT>
412.10355263
> <PUBCHEM_TOTAL_CHARGE>
0
> <PUBCHEM_HEAVY_ATOM_COUNT>
28
> <PUBCHEM_ATOM_DEF_STEREO_COUNT>
0
> <PUBCHEM_ATOM_UDEF_STEREO_COUNT>
2
> <PUBCHEM_BOND_DEF_STEREO_COUNT>
0
> <PUBCHEM_BOND_UDEF_STEREO_COUNT>
0
> <PUBCHEM_ISOTOPIC_ATOM_COUNT>
0
> <PUBCHEM_COMPONENT_COUNT>
1
> <PUBCHEM_CACTVS_TAUTO_COUNT>
-1
> <PUBCHEM_COORDINATE_TYPE>
1
5
255
> <PUBCHEM_BONDANNOTATIONS>
1  2  3
10  24  8
10  25  8
11  25  8
11  27  8
12  17  3
14  15  8
14  20  8
15  18  8
18  21  8
20  22  8
21  22  8
24  26  8
26  27  8
$$$$
