513223
  -OEChem-10302200282D
 50 53  0     1  0  0  0  0  0999 V2000
    5.5321   -0.3331    0.0000 P   0  0  3  0  0  0  0  0  0  0  0  0
    8.6198   -0.2761    0.0000 O   0  0  0  0  0  0  0  0  0  0  0  0
    8.3108    2.2930    0.0000 O   0  0  0  0  0  0  0  0  0  0  0  0
    6.5321   -0.3331    0.0000 O   0  0  0  0  0  0  0  0  0  0  0  0
    4.6660   -0.8331    0.0000 O   0  0  0  0  0  0  0  0  0  0  0  0
    5.5321    0.6669    0.0000 O   0  0  0  0  0  0  0  0  0  0  0  0
    9.3618   -1.9561    0.0000 O   0  0  0  0  0  0  0  0  0  0  0  0
    6.0321   -1.1991    0.0000 O   0  0  0  0  0  0  0  0  0  0  0  0
   12.8070   -2.3182    0.0000 O   0  0  0  0  0  0  0  0  0  0  0  0
   10.3799   -0.5548    0.0000 N   0  0  0  0  0  0  0  0  0  0  0  0
   11.0844   -2.1372    0.0000 N   0  0  0  0  0  0  0  0  0  0  0  0
    8.0321    0.5329    0.0000 C   0  0  1  0  0  0  0  0  0  0  0  0
    8.6198    1.3420    0.0000 C   0  0  2  0  0  0  0  0  0  0  0  0
    9.5709    1.0329    0.0000 C   0  0  0  0  0  0  0  0  0  0  0  0
    9.5709    0.0329    0.0000 C   0  0  1  0  0  0  0  0  0  0  0  0
    7.0321    0.5329    0.0000 C   0  0  0  0  0  0  0  0  0  0  0  0
   11.2935   -0.1481    0.0000 C   0  0  0  0  0  0  0  0  0  0  0  0
   10.2754   -1.5494    0.0000 C   0  0  0  0  0  0  0  0  0  0  0  0
   12.1025   -0.7359    0.0000 C   0  0  0  0  0  0  0  0  0  0  0  0
   11.9980   -1.7304    0.0000 C   0  0  0  0  0  0  0  0  0  0  0  0
    3.8000   -0.3331    0.0000 C   0  0  0  0  0  0  0  0  0  0  0  0
    4.6660    1.1669    0.0000 C   0  0  0  0  0  0  0  0  0  0  0  0
    3.8000    0.6669    0.0000 C   0  0  0  0  0  0  0  0  0  0  0  0
   13.0160   -0.3292    0.0000 C   0  0  0  0  0  0  0  0  0  0  0  0
    2.9061   -0.8678    0.0000 C   0  0  0  0  0  0  0  0  0  0  0  0
    2.9061    1.2016    0.0000 C   0  0  0  0  0  0  0  0  0  0  0  0
    2.0000   -0.3539    0.0000 C   0  0  0  0  0  0  0  0  0  0  0  0
    2.0000    0.6877    0.0000 C   0  0  0  0  0  0  0  0  0  0  0  0
    2.9176   -1.8677    0.0000 C   0  0  0  0  0  0  0  0  0  0  0  0
    7.7506   -0.0195    0.0000 H   0  0  0  0  0  0  0  0  0  0  0  0
    8.0075    1.4389    0.0000 H   0  0  0  0  0  0  0  0  0  0  0  0
   10.1875    0.9681    0.0000 H   0  0  0  0  0  0  0  0  0  0  0  0
    9.6998    1.6394    0.0000 H   0  0  0  0  0  0  0  0  0  0  0  0
    9.4739   -0.5794    0.0000 H   0  0  0  0  0  0  0  0  0  0  0  0
    7.1397    1.1435    0.0000 H   0  0  0  0  0  0  0  0  0  0  0  0
    6.4494    0.7450    0.0000 H   0  0  0  0  0  0  0  0  0  0  0  0
    8.7257    2.7538    0.0000 H   0  0  0  0  0  0  0  0  0  0  0  0
   11.3583    0.4685    0.0000 H   0  0  0  0  0  0  0  0  0  0  0  0
   11.0196   -2.7538    0.0000 H   0  0  0  0  0  0  0  0  0  0  0  0
    5.0646    1.6419    0.0000 H   0  0  0  0  0  0  0  0  0  0  0  0
    4.2675    1.6419    0.0000 H   0  0  0  0  0  0  0  0  0  0  0  0
   13.2682   -0.8956    0.0000 H   0  0  0  0  0  0  0  0  0  0  0  0
   13.5824   -0.0770    0.0000 H   0  0  0  0  0  0  0  0  0  0  0  0
   12.7639    0.2372    0.0000 H   0  0  0  0  0  0  0  0  0  0  0  0
    2.9132    1.8215    0.0000 H   0  0  0  0  0  0  0  0  0  0  0  0
    1.4643   -0.6660    0.0000 H   0  0  0  0  0  0  0  0  0  0  0  0
    1.4643    0.9998    0.0000 H   0  0  0  0  0  0  0  0  0  0  0  0
    2.2977   -1.8748    0.0000 H   0  0  0  0  0  0  0  0  0  0  0  0
    2.9248   -2.4876    0.0000 H   0  0  0  0  0  0  0  0  0  0  0  0
    3.5376   -1.8605    0.0000 H   0  0  0  0  0  0  0  0  0  0  0  0
  1  4  1  0  0  0  0
  1  5  1  0  0  0  0
  1  6  1  0  0  0  0
  1  8  2  0  0  0  0
  2 12  1  0  0  0  0
  2 15  1  0  0  0  0
 13  3  1  1  0  0  0
  3 37  1  0  0  0  0
  4 16  1  0  0  0  0
  5 21  1  0  0  0  0
  6 22  1  0  0  0  0
  7 18  2  0  0  0  0
  9 20  2  0  0  0  0
 15 10  1  6  0  0  0
 10 17  1  0  0  0  0
 10 18  1  0  0  0  0
 11 18  1  0  0  0  0
 11 20  1  0  0  0  0
 11 39  1  0  0  0  0
 12 13  1  0  0  0  0
 12 16  1  6  0  0  0
 12 30  1  0  0  0  0
 13 14  1  0  0  0  0
 13 31  1  0  0  0  0
 14 15  1  0  0  0  0
 14 32  1  0  0  0  0
 14 33  1  0  0  0  0
 15 34  1  0  0  0  0
 16 35  1  0  0  0  0
 16 36  1  0  0  0  0
 17 19  2  0  0  0  0
 17 38  1  0  0  0  0
 19 20  1  0  0  0  0
 19 24  1  0  0  0  0
 21 23  1  0  0  0  0
 21 25  2  0  0  0  0
 22 23  1  0  0  0  0
 22 40  1  0  0  0  0
 22 41  1  0  0  0  0
 23 26  2  0  0  0  0
 24 42  1  0  0  0  0
 24 43  1  0  0  0  0
 24 44  1  0  0  0  0
 25 27  1  0  0  0  0
 25 29  1  0  0  0  0
 26 28  1  0  0  0  0
 26 45  1  0  0  0  0
 27 28  2  0  0  0  0
 27 46  1  0  0  0  0
 28 47  1  0  0  0  0
 29 48  1  0  0  0  0
 29 49  1  0  0  0  0
 29 50  1  0  0  0  0
M  END
> <PUBCHEM_COMPOUND_CID>
513223
> <PUBCHEM_COMPOUND_CANONICALIZED>
1
> <PUBCHEM_CACTVS_COMPLEXITY>
758
> <PUBCHEM_CACTVS_HBOND_ACCEPTOR>
8
> <PUBCHEM_CACTVS_HBOND_DONOR>
2
> <PUBCHEM_CACTVS_ROTATABLE_BOND>
4
> <PUBCHEM_CACTVS_SUBSKEYS>
AAADceB7PAIAAAAAAAAAAAAAAAAAASAAAAA0QIAAAAAAAACRAAAAHgAQCCAADBThmAYzBoPABxCIQiFWUICCAAAgIAAIiAEMCMiJNyKAkRKOcAAvxzMLiMew8GIOAAACAAAIAAAAAAQAABAAAAAAAAAAAA==
> <PUBCHEM_IUPAC_OPENEYE_NAME>
1-[(2R,4S,5R)-4-hydroxy-5-[(8-methyl-2-oxo-4H-1,3,2lambda5-benzodioxaphosphinin-2-yl)oxymethyl]tetrahydrofuran-2-yl]-5-methyl-pyrimidine-2,4-dione
> <PUBCHEM_IUPAC_CAS_NAME>
1-[(2R,4S,5R)-4-hydroxy-5-[(8-methyl-2-oxo-4H-1,3,2lambda5-benzodioxaphosphorin-2-yl)oxymethyl]-2-oxolanyl]-5-methylpyrimidine-2,4-dione
> <PUBCHEM_IUPAC_NAME_MARKUP>
1-[(2<I>R</I>,4<I>S</I>,5<I>R</I>)-4-hydroxy-5-[(8-methyl-2-oxo-4<I>H</I>-1,3,2&lambda;<SUP>5</SUP>-benzodioxaphosphinin-2-yl)oxymethyl]oxolan-2-yl]-5-methylpyrimidine-2,4-dione
> <PUBCHEM_IUPAC_NAME>
1-[(2R,4S,5R)-4-hydroxy-5-[(8-methyl-2-oxo-4H-1,3,2lambda5-benzodioxaphosphinin-2-yl)oxymethyl]oxolan-2-yl]-5-methylpyrimidine-2,4-dione
> <PUBCHEM_IUPAC_SYSTEMATIC_NAME>
5-methyl-1-[(2R,4S,5R)-5-[(8-methyl-2-oxidanylidene-4H-1,3,2lambda5-benzodioxaphosphinin-2-yl)oxymethyl]-4-oxidanyl-oxolan-2-yl]pyrimidine-2,4-dione
> <PUBCHEM_IUPAC_TRADITIONAL_NAME>
1-[(2R,4S,5R)-4-hydroxy-5-[(2-keto-8-methyl-4H-1,3,2lambda5-benzodioxaphosphorin-2-yl)oxymethyl]tetrahydrofuran-2-yl]-5-methyl-pyrimidine-2,4-quinone
> <PUBCHEM_IUPAC_INCHI>
InChI=1S/C18H21N2O8P/c1-10-4-3-5-12-8-25-29(24,28-16(10)12)26-9-14-13(21)6-15(27-14)20-7-11(2)17(22)19-18(20)23/h3-5,7,13-15,21H,6,8-9H2,1-2H3,(H,19,22,23)/t13-,14+,15+,29?/m0/s1
> <PUBCHEM_IUPAC_INCHIKEY>
OMJHRNDSKIJAMX-SYRLMVSXSA-N
> <PUBCHEM_XLOGP3_AA>
0.2
> <PUBCHEM_EXACT_MASS>
424.10355263
> <PUBCHEM_MOLECULAR_FORMULA>
C18H21N2O8P
> <PUBCHEM_MOLECULAR_WEIGHT>
424.3
> <PUBCHEM_OPENEYE_CAN_SMILES>
CC1=C2C(=CC=C1)COP(=O)(O2)OCC3C(CC(O3)N4C=C(C(=O)NC4=O)C)O
> <PUBCHEM_OPENEYE_ISO_SMILES>
CC1=C2C(=CC=C1)COP(=O)(O2)OC[C@@H]3[C@H](C[C@@H](O3)N4C=C(C(=O)NC4=O)C)O
> <PUBCHEM_CACTVS_TPSA>
124
> <PUBCHEM_MONOISOTOPIC_WEIGHT>
424.10355263
> <PUBCHEM_TOTAL_CHARGE>
0
> <PUBCHEM_HEAVY_ATOM_COUNT>
29
> <PUBCHEM_ATOM_DEF_STEREO_COUNT>
3
> <PUBCHEM_ATOM_UDEF_STEREO_COUNT>
1
> <PUBCHEM_BOND_DEF_STEREO_COUNT>
0
> <PUBCHEM_BOND_UDEF_STEREO_COUNT>
0
> <PUBCHEM_ISOTOPIC_ATOM_COUNT>
0
> <PUBCHEM_COMPONENT_COUNT>
1
> <PUBCHEM_CACTVS_TAUTO_COUNT>
-1
> <PUBCHEM_COORDINATE_TYPE>
1
5
255
> <PUBCHEM_BONDANNOTATIONS>
1  4  3
15  10  6
10  17  8
10  18  8
11  18  8
11  20  8
12  16  6
17  19  8
19  20  8
21  23  8
21  25  8
23  26  8
25  27  8
26  28  8
27  28  8
13  3  5
$$$$
