513385
  -OEChem-10302200282D
 59 58  0     1  0  0  0  0  0999 V2000
    5.1350   -1.2500    0.0000 O   0  0  0  0  0  0  0  0  0  0  0  0
    7.7331    1.2500    0.0000 O   0  0  0  0  0  0  0  0  0  0  0  0
   11.1972    0.2500    0.0000 O   0  0  0  0  0  0  0  0  0  0  0  0
   10.3312   -1.2500    0.0000 O   0  0  0  0  0  0  0  0  0  0  0  0
   11.1972    1.2500    0.0000 O   0  0  0  0  0  0  0  0  0  0  0  0
    6.0010    0.2500    0.0000 N   0  0  0  0  0  0  0  0  0  0  0  0
    8.5991   -0.2500    0.0000 N   0  0  0  0  0  0  0  0  0  0  0  0
    3.4030   -0.2500    0.0000 N   0  0  0  0  0  0  0  0  0  0  0  0
    5.1350   -4.2500    0.0000 N   0  0  0  0  0  0  0  0  0  0  0  0
    2.5369    4.2500    0.0000 N   0  0  0  0  0  0  0  0  0  0  0  0
   10.3312    2.7500    0.0000 N   0  0  0  0  0  0  0  0  0  0  0  0
    6.8671   -0.2500    0.0000 C   0  0  2  0  0  0  0  0  0  0  0  0
    6.8671   -1.2500    0.0000 C   0  0  0  0  0  0  0  0  0  0  0  0
    6.0010   -1.7500    0.0000 C   0  0  0  0  0  0  0  0  0  0  0  0
    4.2690    0.2500    0.0000 C   0  0  1  0  0  0  0  0  0  0  0  0
    4.2690    1.2500    0.0000 C   0  0  0  0  0  0  0  0  0  0  0  0
    6.0010   -2.7500    0.0000 C   0  0  0  0  0  0  0  0  0  0  0  0
    3.4030    1.7500    0.0000 C   0  0  0  0  0  0  0  0  0  0  0  0
    5.1350   -0.2500    0.0000 C   0  0  0  0  0  0  0  0  0  0  0  0
    7.7331    0.2500    0.0000 C   0  0  0  0  0  0  0  0  0  0  0  0
    3.4030    2.7500    0.0000 C   0  0  0  0  0  0  0  0  0  0  0  0
    9.4651    0.2500    0.0000 C   0  0  1  0  0  0  0  0  0  0  0  0
    5.1350   -3.2500    0.0000 C   0  0  0  0  0  0  0  0  0  0  0  0
    2.5369    3.2500    0.0000 C   0  0  0  0  0  0  0  0  0  0  0  0
    9.4651    1.2500    0.0000 C   0  0  0  0  0  0  0  0  0  0  0  0
   10.3312   -0.2500    0.0000 C   0  0  0  0  0  0  0  0  0  0  0  0
   10.3312    1.7500    0.0000 C   0  0  0  0  0  0  0  0  0  0  0  0
    6.3301   -0.5600    0.0000 H   0  0  0  0  0  0  0  0  0  0  0  0
    7.0791   -1.8326    0.0000 H   0  0  0  0  0  0  0  0  0  0  0  0
    7.4776   -1.1423    0.0000 H   0  0  0  0  0  0  0  0  0  0  0  0
    5.7890   -1.1674    0.0000 H   0  0  0  0  0  0  0  0  0  0  0  0
    5.3905   -1.8577    0.0000 H   0  0  0  0  0  0  0  0  0  0  0  0
    4.2690   -0.3700    0.0000 H   0  0  0  0  0  0  0  0  0  0  0  0
    4.8796    1.1423    0.0000 H   0  0  0  0  0  0  0  0  0  0  0  0
    4.4810    1.8326    0.0000 H   0  0  0  0  0  0  0  0  0  0  0  0
    6.0010    0.8700    0.0000 H   0  0  0  0  0  0  0  0  0  0  0  0
    2.7924    1.8577    0.0000 H   0  0  0  0  0  0  0  0  0  0  0  0
    3.1909    1.1674    0.0000 H   0  0  0  0  0  0  0  0  0  0  0  0
    6.2131   -3.3326    0.0000 H   0  0  0  0  0  0  0  0  0  0  0  0
    6.6116   -2.6423    0.0000 H   0  0  0  0  0  0  0  0  0  0  0  0
    4.0135    2.6423    0.0000 H   0  0  0  0  0  0  0  0  0  0  0  0
    3.6150    3.3326    0.0000 H   0  0  0  0  0  0  0  0  0  0  0  0
    8.5991   -0.8700    0.0000 H   0  0  0  0  0  0  0  0  0  0  0  0
    9.4651   -0.3700    0.0000 H   0  0  0  0  0  0  0  0  0  0  0  0
    4.9230   -2.6674    0.0000 H   0  0  0  0  0  0  0  0  0  0  0  0
    4.5244   -3.3577    0.0000 H   0  0  0  0  0  0  0  0  0  0  0  0
    2.8660    0.0600    0.0000 H   0  0  0  0  0  0  0  0  0  0  0  0
    3.4030   -0.8700    0.0000 H   0  0  0  0  0  0  0  0  0  0  0  0
    1.9264    3.3577    0.0000 H   0  0  0  0  0  0  0  0  0  0  0  0
    2.3249    2.6674    0.0000 H   0  0  0  0  0  0  0  0  0  0  0  0
    9.2531    1.8326    0.0000 H   0  0  0  0  0  0  0  0  0  0  0  0
    8.8546    1.1423    0.0000 H   0  0  0  0  0  0  0  0  0  0  0  0
    4.5981   -4.5600    0.0000 H   0  0  0  0  0  0  0  0  0  0  0  0
    5.6720   -4.5600    0.0000 H   0  0  0  0  0  0  0  0  0  0  0  0
    2.0000    4.5600    0.0000 H   0  0  0  0  0  0  0  0  0  0  0  0
    3.0739    4.5600    0.0000 H   0  0  0  0  0  0  0  0  0  0  0  0
   11.7341   -0.0600    0.0000 H   0  0  0  0  0  0  0  0  0  0  0  0
   10.8681    3.0600    0.0000 H   0  0  0  0  0  0  0  0  0  0  0  0
    9.7942    3.0600    0.0000 H   0  0  0  0  0  0  0  0  0  0  0  0
  1 19  2  0  0  0  0
  2 20  2  0  0  0  0
  3 26  1  0  0  0  0
  3 57  1  0  0  0  0
  4 26  2  0  0  0  0
  5 27  2  0  0  0  0
 12  6  1  1  0  0  0
  6 19  1  0  0  0  0
  6 36  1  0  0  0  0
  7 20  1  0  0  0  0
 22  7  1  1  0  0  0
  7 43  1  0  0  0  0
 15  8  1  1  0  0  0
  8 47  1  0  0  0  0
  8 48  1  0  0  0  0
  9 23  1  0  0  0  0
  9 53  1  0  0  0  0
  9 54  1  0  0  0  0
 10 24  1  0  0  0  0
 10 55  1  0  0  0  0
 10 56  1  0  0  0  0
 11 27  1  0  0  0  0
 11 58  1  0  0  0  0
 11 59  1  0  0  0  0
 12 13  1  0  0  0  0
 12 20  1  0  0  0  0
 12 28  1  0  0  0  0
 13 14  1  0  0  0  0
 13 29  1  0  0  0  0
 13 30  1  0  0  0  0
 14 17  1  0  0  0  0
 14 31  1  0  0  0  0
 14 32  1  0  0  0  0
 15 16  1  0  0  0  0
 15 19  1  0  0  0  0
 15 33  1  0  0  0  0
 16 18  1  0  0  0  0
 16 34  1  0  0  0  0
 16 35  1  0  0  0  0
 17 23  1  0  0  0  0
 17 39  1  0  0  0  0
 17 40  1  0  0  0  0
 18 21  1  0  0  0  0
 18 37  1  0  0  0  0
 18 38  1  0  0  0  0
 21 24  1  0  0  0  0
 21 41  1  0  0  0  0
 21 42  1  0  0  0  0
 22 25  1  0  0  0  0
 22 26  1  0  0  0  0
 22 44  1  0  0  0  0
 23 45  1  0  0  0  0
 23 46  1  0  0  0  0
 24 49  1  0  0  0  0
 24 50  1  0  0  0  0
 25 27  1  0  0  0  0
 25 51  1  0  0  0  0
 25 52  1  0  0  0  0
M  END
> <PUBCHEM_COMPOUND_CID>
513385
> <PUBCHEM_COMPOUND_CANONICALIZED>
1
> <PUBCHEM_CACTVS_COMPLEXITY>
502
> <PUBCHEM_CACTVS_HBOND_ACCEPTOR>
8
> <PUBCHEM_CACTVS_HBOND_DONOR>
7
> <PUBCHEM_CACTVS_ROTATABLE_BOND>
15
> <PUBCHEM_CACTVS_SUBSKEYS>
AAADcfB7uAAAAAAAAAAAAAAAAAAAAAAAAAAAAAAAAAAAAAAAAAAAHgAQCAAACCjBgAQACALAAgAIAAGQGAAAAAAAAAAAAIGIAAACQBoAwCAUQAAEFgCQAAE/CAAAAAAAAAAAAAAAAAAAAAAAAAAAAAAAAA==
> <PUBCHEM_IUPAC_OPENEYE_NAME>
(2S)-4-amino-2-[[(2R)-6-amino-2-[[(2S)-2,6-diaminohexanoyl]amino]hexanoyl]amino]-4-oxo-butanoic acid
> <PUBCHEM_IUPAC_CAS_NAME>
(2S)-4-amino-2-[[(2R)-6-amino-2-[[(2S)-2,6-diamino-1-oxohexyl]amino]-1-oxohexyl]amino]-4-oxobutanoic acid
> <PUBCHEM_IUPAC_NAME_MARKUP>
(2<I>S</I>)-4-amino-2-[[(2<I>R</I>)-6-amino-2-[[(2<I>S</I>)-2,6-diaminohexanoyl]amino]hexanoyl]amino]-4-oxobutanoic acid
> <PUBCHEM_IUPAC_NAME>
(2S)-4-amino-2-[[(2R)-6-amino-2-[[(2S)-2,6-diaminohexanoyl]amino]hexanoyl]amino]-4-oxobutanoic acid
> <PUBCHEM_IUPAC_SYSTEMATIC_NAME>
(2S)-4-azanyl-2-[[(2R)-6-azanyl-2-[[(2S)-2,6-bis(azanyl)hexanoyl]amino]hexanoyl]amino]-4-oxidanylidene-butanoic acid
> <PUBCHEM_IUPAC_TRADITIONAL_NAME>
(2S)-4-amino-2-[[(2R)-6-amino-2-[[(2S)-2,6-diaminohexanoyl]amino]hexanoyl]amino]-4-keto-butyric acid
> <PUBCHEM_IUPAC_INCHI>
InChI=1S/C16H32N6O5/c17-7-3-1-5-10(19)14(24)21-11(6-2-4-8-18)15(25)22-12(16(26)27)9-13(20)23/h10-12H,1-9,17-19H2,(H2,20,23)(H,21,24)(H,22,25)(H,26,27)/t10-,11+,12-/m0/s1
> <PUBCHEM_IUPAC_INCHIKEY>
RIJCHEVHFWMDKD-TUAOUCFPSA-N
> <PUBCHEM_XLOGP3_AA>
-5.5
> <PUBCHEM_EXACT_MASS>
388.24341814
> <PUBCHEM_MOLECULAR_FORMULA>
C16H32N6O5
> <PUBCHEM_MOLECULAR_WEIGHT>
388.46
> <PUBCHEM_OPENEYE_CAN_SMILES>
C(CCN)CC(C(=O)NC(CCCCN)C(=O)NC(CC(=O)N)C(=O)O)N
> <PUBCHEM_OPENEYE_ISO_SMILES>
C(CCN)C[C@@H](C(=O)N[C@H](CCCCN)C(=O)N[C@@H](CC(=O)N)C(=O)O)N
> <PUBCHEM_CACTVS_TPSA>
217
> <PUBCHEM_MONOISOTOPIC_WEIGHT>
388.24341814
> <PUBCHEM_TOTAL_CHARGE>
0
> <PUBCHEM_HEAVY_ATOM_COUNT>
27
> <PUBCHEM_ATOM_DEF_STEREO_COUNT>
3
> <PUBCHEM_ATOM_UDEF_STEREO_COUNT>
0
> <PUBCHEM_BOND_DEF_STEREO_COUNT>
0
> <PUBCHEM_BOND_UDEF_STEREO_COUNT>
0
> <PUBCHEM_ISOTOPIC_ATOM_COUNT>
0
> <PUBCHEM_COMPONENT_COUNT>
1
> <PUBCHEM_CACTVS_TAUTO_COUNT>
-1
> <PUBCHEM_COORDINATE_TYPE>
1
5
255
> <PUBCHEM_BONDANNOTATIONS>
12  6  5
22  7  5
15  8  5
$$$$
