513396
  -OEChem-10302200282D
 28 30  0     1  0  0  0  0  0999 V2000
    6.3981   -1.3623    0.0000 O   0  0  0  0  0  0  0  0  0  0  0  0
    4.6660   -0.3623    0.0000 N   0  0  0  0  0  0  0  0  0  0  0  0
    7.2641    0.1377    0.0000 C   0  0  0  0  0  0  0  0  0  0  0  0
    8.2641    0.1377    0.0000 C   0  0  0  0  0  0  0  0  0  0  0  0
    7.7641    1.0037    0.0000 C   0  0  0  0  0  0  0  0  0  0  0  0
    6.3981   -0.3623    0.0000 C   0  0  3  0  0  0  0  0  0  0  0  0
    5.5321    0.1377    0.0000 C   0  0  0  0  0  0  0  0  0  0  0  0
    5.5321    1.1377    0.0000 C   0  0  0  0  0  0  0  0  0  0  0  0
    3.8000    0.1377    0.0000 C   0  0  0  0  0  0  0  0  0  0  0  0
    4.6660    1.6377    0.0000 C   0  0  0  0  0  0  0  0  0  0  0  0
    3.8000    1.1377    0.0000 C   0  0  0  0  0  0  0  0  0  0  0  0
    2.9061   -0.3970    0.0000 C   0  0  0  0  0  0  0  0  0  0  0  0
    2.9061    1.6723    0.0000 C   0  0  0  0  0  0  0  0  0  0  0  0
    2.0000    0.1169    0.0000 C   0  0  0  0  0  0  0  0  0  0  0  0
    2.0000    1.1585    0.0000 C   0  0  0  0  0  0  0  0  0  0  0  0
    7.4246   -0.4612    0.0000 H   0  0  0  0  0  0  0  0  0  0  0  0
    8.3718   -0.4729    0.0000 H   0  0  0  0  0  0  0  0  0  0  0  0
    8.8467    0.3497    0.0000 H   0  0  0  0  0  0  0  0  0  0  0  0
    8.2391    1.4022    0.0000 H   0  0  0  0  0  0  0  0  0  0  0  0
    7.2892    1.4022    0.0000 H   0  0  0  0  0  0  0  0  0  0  0  0
    6.9350   -0.6723    0.0000 H   0  0  0  0  0  0  0  0  0  0  0  0
    6.9350   -1.6723    0.0000 H   0  0  0  0  0  0  0  0  0  0  0  0
    6.0690    1.4477    0.0000 H   0  0  0  0  0  0  0  0  0  0  0  0
    4.6660    2.2577    0.0000 H   0  0  0  0  0  0  0  0  0  0  0  0
    2.9132   -1.0170    0.0000 H   0  0  0  0  0  0  0  0  0  0  0  0
    2.9132    2.2923    0.0000 H   0  0  0  0  0  0  0  0  0  0  0  0
    1.4643   -0.1952    0.0000 H   0  0  0  0  0  0  0  0  0  0  0  0
    1.4643    1.4706    0.0000 H   0  0  0  0  0  0  0  0  0  0  0  0
  1  6  1  0  0  0  0
  1 22  1  0  0  0  0
  2  7  2  0  0  0  0
  2  9  1  0  0  0  0
  3  4  1  0  0  0  0
  3  5  1  0  0  0  0
  3  6  1  0  0  0  0
  3 16  1  0  0  0  0
  4  5  1  0  0  0  0
  4 17  1  0  0  0  0
  4 18  1  0  0  0  0
  5 19  1  0  0  0  0
  5 20  1  0  0  0  0
  6  7  1  0  0  0  0
  6 21  1  0  0  0  0
  7  8  1  0  0  0  0
  8 10  2  0  0  0  0
  8 23  1  0  0  0  0
  9 11  1  0  0  0  0
  9 12  2  0  0  0  0
 10 11  1  0  0  0  0
 10 24  1  0  0  0  0
 11 13  2  0  0  0  0
 12 14  1  0  0  0  0
 12 25  1  0  0  0  0
 13 15  1  0  0  0  0
 13 26  1  0  0  0  0
 14 15  2  0  0  0  0
 14 27  1  0  0  0  0
 15 28  1  0  0  0  0
M  END
> <PUBCHEM_COMPOUND_CID>
513396
> <PUBCHEM_COMPOUND_CANONICALIZED>
1
> <PUBCHEM_CACTVS_COMPLEXITY>
227
> <PUBCHEM_CACTVS_HBOND_ACCEPTOR>
2
> <PUBCHEM_CACTVS_HBOND_DONOR>
1
> <PUBCHEM_CACTVS_ROTATABLE_BOND>
2
> <PUBCHEM_CACTVS_SUBSKEYS>
AAADccByIAAAAAAAAAAAAAAAGAAAAAAAAAA8QAAAAAAAAACx8AAAHgAACAAADRyhngIwwPIIEgCgAyRiRASCgCAhAiAImCAwbJgKNuLAkZGEcAhkwAHY2AeQwPAOAAAAAAACAAAAAAAAAAQAAAAAAAAAAA==
> <PUBCHEM_IUPAC_OPENEYE_NAME>
cyclopropyl(2-quinolyl)methanol
> <PUBCHEM_IUPAC_CAS_NAME>
cyclopropyl(2-quinolinyl)methanol
> <PUBCHEM_IUPAC_NAME_MARKUP>
cyclopropyl(quinolin-2-yl)methanol
> <PUBCHEM_IUPAC_NAME>
cyclopropyl(quinolin-2-yl)methanol
> <PUBCHEM_IUPAC_SYSTEMATIC_NAME>
cyclopropyl(quinolin-2-yl)methanol
> <PUBCHEM_IUPAC_TRADITIONAL_NAME>
cyclopropyl(2-quinolyl)methanol
> <PUBCHEM_IUPAC_INCHI>
InChI=1S/C13H13NO/c15-13(10-5-6-10)12-8-7-9-3-1-2-4-11(9)14-12/h1-4,7-8,10,13,15H,5-6H2
> <PUBCHEM_IUPAC_INCHIKEY>
MDDZNPYQNIKQAW-UHFFFAOYSA-N
> <PUBCHEM_XLOGP3>
2.1
> <PUBCHEM_EXACT_MASS>
199.099714038
> <PUBCHEM_MOLECULAR_FORMULA>
C13H13NO
> <PUBCHEM_MOLECULAR_WEIGHT>
199.25
> <PUBCHEM_OPENEYE_CAN_SMILES>
C1CC1C(C2=NC3=CC=CC=C3C=C2)O
> <PUBCHEM_OPENEYE_ISO_SMILES>
C1CC1C(C2=NC3=CC=CC=C3C=C2)O
> <PUBCHEM_CACTVS_TPSA>
33.1
> <PUBCHEM_MONOISOTOPIC_WEIGHT>
199.099714038
> <PUBCHEM_TOTAL_CHARGE>
0
> <PUBCHEM_HEAVY_ATOM_COUNT>
15
> <PUBCHEM_ATOM_DEF_STEREO_COUNT>
0
> <PUBCHEM_ATOM_UDEF_STEREO_COUNT>
1
> <PUBCHEM_BOND_DEF_STEREO_COUNT>
0
> <PUBCHEM_BOND_UDEF_STEREO_COUNT>
0
> <PUBCHEM_ISOTOPIC_ATOM_COUNT>
0
> <PUBCHEM_COMPONENT_COUNT>
1
> <PUBCHEM_CACTVS_TAUTO_COUNT>
-1
> <PUBCHEM_COORDINATE_TYPE>
1
5
255
> <PUBCHEM_BONDANNOTATIONS>
6  1  3
10  11  8
11  13  8
12  14  8
13  15  8
14  15  8
2  7  8
2  9  8
7  8  8
8  10  8
9  11  8
9  12  8
$$$$
