513395
  -OEChem-10302200282D
 28 29  0     1  0  0  0  0  0999 V2000
    8.1301   -0.3419    0.0000 O   0  0  0  0  0  0  0  0  0  0  0  0
    2.9176   -1.3765    0.0000 O   0  0  0  0  0  0  0  0  0  0  0  0
    4.6660   -0.3419    0.0000 N   0  0  0  0  0  0  0  0  0  0  0  0
    6.3981   -0.3419    0.0000 C   0  0  0  0  0  0  0  0  0  0  0  0
    7.2641    0.1581    0.0000 C   0  0  3  0  0  0  0  0  0  0  0  0
    5.5321    0.1581    0.0000 C   0  0  0  0  0  0  0  0  0  0  0  0
    3.8000    1.1581    0.0000 C   0  0  0  0  0  0  0  0  0  0  0  0
    3.8000    0.1581    0.0000 C   0  0  0  0  0  0  0  0  0  0  0  0
    5.5321    1.1581    0.0000 C   0  0  0  0  0  0  0  0  0  0  0  0
    4.6660    1.6581    0.0000 C   0  0  0  0  0  0  0  0  0  0  0  0
    7.2641    1.1581    0.0000 C   0  0  0  0  0  0  0  0  0  0  0  0
    2.9061   -0.3766    0.0000 C   0  0  0  0  0  0  0  0  0  0  0  0
    2.9061    1.6927    0.0000 C   0  0  0  0  0  0  0  0  0  0  0  0
    2.0000    0.1372    0.0000 C   0  0  0  0  0  0  0  0  0  0  0  0
    2.0000    1.1789    0.0000 C   0  0  0  0  0  0  0  0  0  0  0  0
    5.9996   -0.8169    0.0000 H   0  0  0  0  0  0  0  0  0  0  0  0
    6.7966   -0.8169    0.0000 H   0  0  0  0  0  0  0  0  0  0  0  0
    7.8010    0.4681    0.0000 H   0  0  0  0  0  0  0  0  0  0  0  0
    6.0690    1.4681    0.0000 H   0  0  0  0  0  0  0  0  0  0  0  0
    4.6660    2.2781    0.0000 H   0  0  0  0  0  0  0  0  0  0  0  0
    7.8841    1.1581    0.0000 H   0  0  0  0  0  0  0  0  0  0  0  0
    7.2641    1.7781    0.0000 H   0  0  0  0  0  0  0  0  0  0  0  0
    6.6441    1.1581    0.0000 H   0  0  0  0  0  0  0  0  0  0  0  0
    2.9132    2.3127    0.0000 H   0  0  0  0  0  0  0  0  0  0  0  0
    1.4643   -0.1748    0.0000 H   0  0  0  0  0  0  0  0  0  0  0  0
    1.4643    1.4909    0.0000 H   0  0  0  0  0  0  0  0  0  0  0  0
    8.6671   -0.0319    0.0000 H   0  0  0  0  0  0  0  0  0  0  0  0
    2.3843   -1.6927    0.0000 H   0  0  0  0  0  0  0  0  0  0  0  0
  1  5  1  0  0  0  0
  1 27  1  0  0  0  0
  2 12  1  0  0  0  0
  2 28  1  0  0  0  0
  3  6  2  0  0  0  0
  3  8  1  0  0  0  0
  4  5  1  0  0  0  0
  4  6  1  0  0  0  0
  4 16  1  0  0  0  0
  4 17  1  0  0  0  0
  5 11  1  0  0  0  0
  5 18  1  0  0  0  0
  6  9  1  0  0  0  0
  7  8  2  0  0  0  0
  7 10  1  0  0  0  0
  7 13  1  0  0  0  0
  8 12  1  0  0  0  0
  9 10  2  0  0  0  0
  9 19  1  0  0  0  0
 10 20  1  0  0  0  0
 11 21  1  0  0  0  0
 11 22  1  0  0  0  0
 11 23  1  0  0  0  0
 12 14  2  0  0  0  0
 13 15  2  0  0  0  0
 13 24  1  0  0  0  0
 14 15  1  0  0  0  0
 14 25  1  0  0  0  0
 15 26  1  0  0  0  0
M  END
> <PUBCHEM_COMPOUND_CID>
513395
> <PUBCHEM_COMPOUND_CANONICALIZED>
1
> <PUBCHEM_CACTVS_COMPLEXITY>
210
> <PUBCHEM_CACTVS_HBOND_ACCEPTOR>
3
> <PUBCHEM_CACTVS_HBOND_DONOR>
2
> <PUBCHEM_CACTVS_ROTATABLE_BOND>
2
> <PUBCHEM_CACTVS_SUBSKEYS>
AAADccByMAAAAAAAAAAAAAAAAAAAAAAAAAA8QAAAAAAAAACx8AAAHgAACAAADByhngIyxvIIEgCgAyRiRASCgCAhYiAImCA3bJgKNuLSkZOEcAhmwBHY2AeQwPAOAAABAAACEAAAAAIAAAQgAAAAAAAAAA==
> <PUBCHEM_IUPAC_OPENEYE_NAME>
2-(2-hydroxypropyl)quinolin-8-ol
> <PUBCHEM_IUPAC_CAS_NAME>
2-(2-hydroxypropyl)-8-quinolinol
> <PUBCHEM_IUPAC_NAME_MARKUP>
2-(2-hydroxypropyl)quinolin-8-ol
> <PUBCHEM_IUPAC_NAME>
2-(2-hydroxypropyl)quinolin-8-ol
> <PUBCHEM_IUPAC_SYSTEMATIC_NAME>
2-(2-oxidanylpropyl)quinolin-8-ol
> <PUBCHEM_IUPAC_TRADITIONAL_NAME>
2-(2-hydroxypropyl)quinolin-8-ol
> <PUBCHEM_IUPAC_INCHI>
InChI=1S/C12H13NO2/c1-8(14)7-10-6-5-9-3-2-4-11(15)12(9)13-10/h2-6,8,14-15H,7H2,1H3
> <PUBCHEM_IUPAC_INCHIKEY>
UUUWOGPYWAFBIG-UHFFFAOYSA-N
> <PUBCHEM_XLOGP3>
2
> <PUBCHEM_EXACT_MASS>
203.094628657
> <PUBCHEM_MOLECULAR_FORMULA>
C12H13NO2
> <PUBCHEM_MOLECULAR_WEIGHT>
203.24
> <PUBCHEM_OPENEYE_CAN_SMILES>
CC(CC1=NC2=C(C=CC=C2O)C=C1)O
> <PUBCHEM_OPENEYE_ISO_SMILES>
CC(CC1=NC2=C(C=CC=C2O)C=C1)O
> <PUBCHEM_CACTVS_TPSA>
53.4
> <PUBCHEM_MONOISOTOPIC_WEIGHT>
203.094628657
> <PUBCHEM_TOTAL_CHARGE>
0
> <PUBCHEM_HEAVY_ATOM_COUNT>
15
> <PUBCHEM_ATOM_DEF_STEREO_COUNT>
0
> <PUBCHEM_ATOM_UDEF_STEREO_COUNT>
1
> <PUBCHEM_BOND_DEF_STEREO_COUNT>
0
> <PUBCHEM_BOND_UDEF_STEREO_COUNT>
0
> <PUBCHEM_ISOTOPIC_ATOM_COUNT>
0
> <PUBCHEM_COMPONENT_COUNT>
1
> <PUBCHEM_CACTVS_TAUTO_COUNT>
-1
> <PUBCHEM_COORDINATE_TYPE>
1
5
255
> <PUBCHEM_BONDANNOTATIONS>
5  1  3
12  14  8
13  15  8
14  15  8
3  6  8
3  8  8
6  9  8
7  10  8
7  13  8
7  8  8
8  12  8
9  10  8
$$$$
