513306
  -OEChem-10302200282D
 70 69  0     1  0  0  0  0  0999 V2000
    4.2690    1.4050    0.0000 O   0  0  0  0  0  0  0  0  0  0  0  0
   10.3312    2.9050    0.0000 O   0  0  0  0  0  0  0  0  0  0  0  0
    7.7331    0.4050    0.0000 O   0  0  0  0  0  0  0  0  0  0  0  0
    2.5369    1.4050    0.0000 O   0  0  0  0  0  0  0  0  0  0  0  0
    3.4030    2.9050    0.0000 O   0  0  0  0  0  0  0  0  0  0  0  0
    9.4651    1.4050    0.0000 N   0  0  0  0  0  0  0  0  0  0  0  0
    6.8671    1.9050    0.0000 N   0  0  0  0  0  0  0  0  0  0  0  0
   12.0632    1.9050    0.0000 N   0  0  0  0  0  0  0  0  0  0  0  0
    4.2690   -2.5950    0.0000 N   0  0  0  0  0  0  0  0  0  0  0  0
   12.9292   -2.5950    0.0000 N   0  0  0  0  0  0  0  0  0  0  0  0
    7.7331   -2.5950    0.0000 N   0  0  0  0  0  0  0  0  0  0  0  0
    6.0010    1.4050    0.0000 C   0  0  1  0  0  0  0  0  0  0  0  0
    6.0010    0.4050    0.0000 C   0  0  0  0  0  0  0  0  0  0  0  0
   11.1972    1.4050    0.0000 C   0  0  2  0  0  0  0  0  0  0  0  0
   11.1972    0.4050    0.0000 C   0  0  0  0  0  0  0  0  0  0  0  0
    9.4651    0.4050    0.0000 C   0  0  0  0  0  0  0  0  0  0  0  0
    5.1350   -0.0950    0.0000 C   0  0  0  0  0  0  0  0  0  0  0  0
    8.5991    1.9050    0.0000 C   0  0  0  0  0  0  0  0  0  0  0  0
   10.3312    1.9050    0.0000 C   0  0  0  0  0  0  0  0  0  0  0  0
   12.0632   -0.0950    0.0000 C   0  0  0  0  0  0  0  0  0  0  0  0
    8.5991   -0.0950    0.0000 C   0  0  0  0  0  0  0  0  0  0  0  0
    5.1350    1.9050    0.0000 C   0  0  0  0  0  0  0  0  0  0  0  0
    5.1350   -1.0950    0.0000 C   0  0  0  0  0  0  0  0  0  0  0  0
    7.7331    1.4050    0.0000 C   0  0  0  0  0  0  0  0  0  0  0  0
   12.0632   -1.0950    0.0000 C   0  0  0  0  0  0  0  0  0  0  0  0
    8.5991   -1.0950    0.0000 C   0  0  0  0  0  0  0  0  0  0  0  0
    4.2690   -1.5950    0.0000 C   0  0  0  0  0  0  0  0  0  0  0  0
   12.9292   -1.5950    0.0000 C   0  0  0  0  0  0  0  0  0  0  0  0
    7.7331   -1.5950    0.0000 C   0  0  0  0  0  0  0  0  0  0  0  0
    3.4030    1.9050    0.0000 C   0  0  0  0  0  0  0  0  0  0  0  0
    6.5380    1.0950    0.0000 H   0  0  0  0  0  0  0  0  0  0  0  0
    6.2131   -0.1776    0.0000 H   0  0  0  0  0  0  0  0  0  0  0  0
    6.6116    0.5127    0.0000 H   0  0  0  0  0  0  0  0  0  0  0  0
   11.1972    2.0250    0.0000 H   0  0  0  0  0  0  0  0  0  0  0  0
   10.5866    0.5127    0.0000 H   0  0  0  0  0  0  0  0  0  0  0  0
   10.9851   -0.1776    0.0000 H   0  0  0  0  0  0  0  0  0  0  0  0
    9.6772   -0.1776    0.0000 H   0  0  0  0  0  0  0  0  0  0  0  0
   10.0757    0.5127    0.0000 H   0  0  0  0  0  0  0  0  0  0  0  0
    4.9230    0.4876    0.0000 H   0  0  0  0  0  0  0  0  0  0  0  0
    4.5244   -0.2027    0.0000 H   0  0  0  0  0  0  0  0  0  0  0  0
    8.9976    2.3800    0.0000 H   0  0  0  0  0  0  0  0  0  0  0  0
    8.2006    2.3800    0.0000 H   0  0  0  0  0  0  0  0  0  0  0  0
   12.6738   -0.2027    0.0000 H   0  0  0  0  0  0  0  0  0  0  0  0
   12.2753    0.4876    0.0000 H   0  0  0  0  0  0  0  0  0  0  0  0
    8.3871    0.4876    0.0000 H   0  0  0  0  0  0  0  0  0  0  0  0
    7.9885   -0.2027    0.0000 H   0  0  0  0  0  0  0  0  0  0  0  0
    6.8671    2.5250    0.0000 H   0  0  0  0  0  0  0  0  0  0  0  0
    5.5335    2.3800    0.0000 H   0  0  0  0  0  0  0  0  0  0  0  0
    4.7365    2.3800    0.0000 H   0  0  0  0  0  0  0  0  0  0  0  0
    5.3471   -1.6776    0.0000 H   0  0  0  0  0  0  0  0  0  0  0  0
    5.7456   -0.9873    0.0000 H   0  0  0  0  0  0  0  0  0  0  0  0
   11.4526   -0.9873    0.0000 H   0  0  0  0  0  0  0  0  0  0  0  0
   11.8512   -1.6776    0.0000 H   0  0  0  0  0  0  0  0  0  0  0  0
    8.8112   -1.6776    0.0000 H   0  0  0  0  0  0  0  0  0  0  0  0
    9.2097   -0.9873    0.0000 H   0  0  0  0  0  0  0  0  0  0  0  0
    4.0569   -1.0124    0.0000 H   0  0  0  0  0  0  0  0  0  0  0  0
    3.6584   -1.7027    0.0000 H   0  0  0  0  0  0  0  0  0  0  0  0
   12.6002    1.5950    0.0000 H   0  0  0  0  0  0  0  0  0  0  0  0
   12.0632    2.5250    0.0000 H   0  0  0  0  0  0  0  0  0  0  0  0
   13.5398   -1.7027    0.0000 H   0  0  0  0  0  0  0  0  0  0  0  0
   13.1413   -1.0124    0.0000 H   0  0  0  0  0  0  0  0  0  0  0  0
    7.5210   -1.0124    0.0000 H   0  0  0  0  0  0  0  0  0  0  0  0
    7.1225   -1.7027    0.0000 H   0  0  0  0  0  0  0  0  0  0  0  0
    3.7320   -2.9050    0.0000 H   0  0  0  0  0  0  0  0  0  0  0  0
    4.8059   -2.9050    0.0000 H   0  0  0  0  0  0  0  0  0  0  0  0
   13.4662   -2.9050    0.0000 H   0  0  0  0  0  0  0  0  0  0  0  0
   12.3923   -2.9050    0.0000 H   0  0  0  0  0  0  0  0  0  0  0  0
    7.1962   -2.9050    0.0000 H   0  0  0  0  0  0  0  0  0  0  0  0
    8.2700   -2.9050    0.0000 H   0  0  0  0  0  0  0  0  0  0  0  0
    2.0000    1.7150    0.0000 H   0  0  0  0  0  0  0  0  0  0  0  0
  1 22  1  0  0  0  0
  1 30  1  0  0  0  0
  2 19  2  0  0  0  0
  3 24  2  0  0  0  0
  4 30  1  0  0  0  0
  4 70  1  0  0  0  0
  5 30  2  0  0  0  0
  6 16  1  0  0  0  0
  6 18  1  0  0  0  0
  6 19  1  0  0  0  0
 12  7  1  1  0  0  0
  7 24  1  0  0  0  0
  7 47  1  0  0  0  0
 14  8  1  6  0  0  0
  8 58  1  0  0  0  0
  8 59  1  0  0  0  0
  9 27  1  0  0  0  0
  9 64  1  0  0  0  0
  9 65  1  0  0  0  0
 10 28  1  0  0  0  0
 10 66  1  0  0  0  0
 10 67  1  0  0  0  0
 11 29  1  0  0  0  0
 11 68  1  0  0  0  0
 11 69  1  0  0  0  0
 12 13  1  0  0  0  0
 12 22  1  0  0  0  0
 12 31  1  0  0  0  0
 13 17  1  0  0  0  0
 13 32  1  0  0  0  0
 13 33  1  0  0  0  0
 14 15  1  0  0  0  0
 14 19  1  0  0  0  0
 14 34  1  0  0  0  0
 15 20  1  0  0  0  0
 15 35  1  0  0  0  0
 15 36  1  0  0  0  0
 16 21  1  0  0  0  0
 16 37  1  0  0  0  0
 16 38  1  0  0  0  0
 17 23  1  0  0  0  0
 17 39  1  0  0  0  0
 17 40  1  0  0  0  0
 18 24  1  0  0  0  0
 18 41  1  0  0  0  0
 18 42  1  0  0  0  0
 20 25  1  0  0  0  0
 20 43  1  0  0  0  0
 20 44  1  0  0  0  0
 21 26  1  0  0  0  0
 21 45  1  0  0  0  0
 21 46  1  0  0  0  0
 22 48  1  0  0  0  0
 22 49  1  0  0  0  0
 23 27  1  0  0  0  0
 23 50  1  0  0  0  0
 23 51  1  0  0  0  0
 25 28  1  0  0  0  0
 25 52  1  0  0  0  0
 25 53  1  0  0  0  0
 26 29  1  0  0  0  0
 26 54  1  0  0  0  0
 26 55  1  0  0  0  0
 27 56  1  0  0  0  0
 27 57  1  0  0  0  0
 28 60  1  0  0  0  0
 28 61  1  0  0  0  0
 29 62  1  0  0  0  0
 29 63  1  0  0  0  0
M  END
> <PUBCHEM_COMPOUND_CID>
513306
> <PUBCHEM_COMPOUND_CANONICALIZED>
1
> <PUBCHEM_CACTVS_COMPLEXITY>
494
> <PUBCHEM_CACTVS_HBOND_ACCEPTOR>
9
> <PUBCHEM_CACTVS_HBOND_DONOR>
6
> <PUBCHEM_CACTVS_ROTATABLE_BOND>
19
> <PUBCHEM_CACTVS_SUBSKEYS>
AAADcfB7uAAAAAAAAAAAAAAAAAAAAAAAAAAAAAAAAAAAAAAAAAAAHgAQCAAACCjhgAYACAPABgAIAAEQGAAAAAAAAAAAAIGIAAASQBIAgCAVAAAEFgCUAAGYSAAAAAAAAAAAAAAAAAAAAAAAAAAAAAAAAA==
> <PUBCHEM_IUPAC_OPENEYE_NAME>
[(2S)-6-amino-2-[[2-[4-aminobutyl-[(2R)-2,6-diaminohexanoyl]amino]acetyl]amino]hexyl] hydrogen carbonate
> <PUBCHEM_IUPAC_CAS_NAME>
carbonic acid [(2S)-6-amino-2-[[2-[4-aminobutyl-[(2R)-2,6-diamino-1-oxohexyl]amino]-1-oxoethyl]amino]hexyl] ester
> <PUBCHEM_IUPAC_NAME_MARKUP>
[(2<I>S</I>)-6-amino-2-[[2-[4-aminobutyl-[(2<I>R</I>)-2,6-diaminohexanoyl]amino]acetyl]amino]hexyl] hydrogen carbonate
> <PUBCHEM_IUPAC_NAME>
[(2S)-6-amino-2-[[2-[4-aminobutyl-[(2R)-2,6-diaminohexanoyl]amino]acetyl]amino]hexyl] hydrogen carbonate
> <PUBCHEM_IUPAC_SYSTEMATIC_NAME>
[(2S)-6-azanyl-2-[2-[4-azanylbutyl-[(2R)-2,6-bis(azanyl)hexanoyl]amino]ethanoylamino]hexyl] hydrogen carbonate
> <PUBCHEM_IUPAC_TRADITIONAL_NAME>
carbonic acid [(2S)-6-amino-2-[[2-[4-aminobutyl-[(2R)-2,6-diaminohexanoyl]amino]acetyl]amino]hexyl] ester
> <PUBCHEM_IUPAC_INCHI>
InChI=1S/C19H40N6O5/c20-9-3-1-7-15(14-30-19(28)29)24-17(26)13-25(12-6-5-11-22)18(27)16(23)8-2-4-10-21/h15-16H,1-14,20-23H2,(H,24,26)(H,28,29)/t15-,16+/m0/s1
> <PUBCHEM_IUPAC_INCHIKEY>
DQRDNKCEIWQHLC-JKSUJKDBSA-N
> <PUBCHEM_XLOGP3_AA>
-4
> <PUBCHEM_EXACT_MASS>
432.30601840
> <PUBCHEM_MOLECULAR_FORMULA>
C19H40N6O5
> <PUBCHEM_MOLECULAR_WEIGHT>
432.6
> <PUBCHEM_OPENEYE_CAN_SMILES>
C(CCN)CC(COC(=O)O)NC(=O)CN(CCCCN)C(=O)C(CCCCN)N
> <PUBCHEM_OPENEYE_ISO_SMILES>
C(CCN)C[C@@H](COC(=O)O)NC(=O)CN(CCCCN)C(=O)[C@@H](CCCCN)N
> <PUBCHEM_CACTVS_TPSA>
200
> <PUBCHEM_MONOISOTOPIC_WEIGHT>
432.30601840
> <PUBCHEM_TOTAL_CHARGE>
0
> <PUBCHEM_HEAVY_ATOM_COUNT>
30
> <PUBCHEM_ATOM_DEF_STEREO_COUNT>
2
> <PUBCHEM_ATOM_UDEF_STEREO_COUNT>
0
> <PUBCHEM_BOND_DEF_STEREO_COUNT>
0
> <PUBCHEM_BOND_UDEF_STEREO_COUNT>
0
> <PUBCHEM_ISOTOPIC_ATOM_COUNT>
0
> <PUBCHEM_COMPONENT_COUNT>
1
> <PUBCHEM_CACTVS_TAUTO_COUNT>
-1
> <PUBCHEM_COORDINATE_TYPE>
1
5
255
> <PUBCHEM_BONDANNOTATIONS>
12  7  5
14  8  6
$$$$
