513380
  -OEChem-10302200282D
 79 78  0     1  0  0  0  0  0999 V2000
   17.2594    0.2500    0.0000 O   0  0  0  0  0  0  0  0  0  0  0  0
   13.7953    1.2500    0.0000 O   0  0  0  0  0  0  0  0  0  0  0  0
   11.1972   -1.2500    0.0000 O   0  0  0  0  0  0  0  0  0  0  0  0
   18.9914    0.2500    0.0000 O   0  0  0  0  0  0  0  0  0  0  0  0
   18.1254   -1.2500    0.0000 O   0  0  0  0  0  0  0  0  0  0  0  0
   14.6613   -0.2500    0.0000 N   0  0  0  0  0  0  0  0  0  0  0  0
   12.0632    0.2500    0.0000 N   0  0  0  0  0  0  0  0  0  0  0  0
    9.4651   -0.2500    0.0000 N   0  0  0  0  0  0  0  0  0  0  0  0
   17.2594    4.2500    0.0000 N   0  0  0  0  0  0  0  0  0  0  0  0
   11.1972   -4.2500    0.0000 N   0  0  0  0  0  0  0  0  0  0  0  0
    2.5369   -0.2500    0.0000 N   0  0  0  0  0  0  0  0  0  0  0  0
   15.5273    0.2500    0.0000 C   0  0  2  0  0  0  0  0  0  0  0  0
   12.9292   -0.2500    0.0000 C   0  0  1  0  0  0  0  0  0  0  0  0
   15.5273    1.2500    0.0000 C   0  0  0  0  0  0  0  0  0  0  0  0
   12.9292   -1.2500    0.0000 C   0  0  0  0  0  0  0  0  0  0  0  0
   16.3933    1.7500    0.0000 C   0  0  0  0  0  0  0  0  0  0  0  0
   12.0632   -1.7500    0.0000 C   0  0  0  0  0  0  0  0  0  0  0  0
   13.7953    0.2500    0.0000 C   0  0  0  0  0  0  0  0  0  0  0  0
   16.3933   -0.2500    0.0000 C   0  0  0  0  0  0  0  0  0  0  0  0
   16.3933    2.7500    0.0000 C   0  0  0  0  0  0  0  0  0  0  0  0
   12.0632   -2.7500    0.0000 C   0  0  0  0  0  0  0  0  0  0  0  0
    6.8671    0.2500    0.0000 C   0  0  0  0  0  0  0  0  0  0  0  0
    6.0010   -0.2500    0.0000 C   0  0  0  0  0  0  0  0  0  0  0  0
    7.7331   -0.2500    0.0000 C   0  0  0  0  0  0  0  0  0  0  0  0
    5.1350    0.2500    0.0000 C   0  0  0  0  0  0  0  0  0  0  0  0
    8.5991    0.2500    0.0000 C   0  0  0  0  0  0  0  0  0  0  0  0
   11.1972   -0.2500    0.0000 C   0  0  0  0  0  0  0  0  0  0  0  0
   17.2594    3.2500    0.0000 C   0  0  0  0  0  0  0  0  0  0  0  0
   10.3312    0.2500    0.0000 C   0  0  0  0  0  0  0  0  0  0  0  0
   11.1972   -3.2500    0.0000 C   0  0  0  0  0  0  0  0  0  0  0  0
    4.2690   -0.2500    0.0000 C   0  0  0  0  0  0  0  0  0  0  0  0
    3.4030    0.2500    0.0000 C   0  0  0  0  0  0  0  0  0  0  0  0
   18.1254   -0.2500    0.0000 C   0  0  0  0  0  0  0  0  0  0  0  0
   15.5273   -0.3700    0.0000 H   0  0  0  0  0  0  0  0  0  0  0  0
   12.3923   -0.5600    0.0000 H   0  0  0  0  0  0  0  0  0  0  0  0
   15.3153    1.8326    0.0000 H   0  0  0  0  0  0  0  0  0  0  0  0
   14.9167    1.1423    0.0000 H   0  0  0  0  0  0  0  0  0  0  0  0
   13.1413   -1.8326    0.0000 H   0  0  0  0  0  0  0  0  0  0  0  0
   13.5398   -1.1423    0.0000 H   0  0  0  0  0  0  0  0  0  0  0  0
   16.6054    1.1674    0.0000 H   0  0  0  0  0  0  0  0  0  0  0  0
   17.0039    1.8577    0.0000 H   0  0  0  0  0  0  0  0  0  0  0  0
   11.8512   -1.1674    0.0000 H   0  0  0  0  0  0  0  0  0  0  0  0
   11.4526   -1.8577    0.0000 H   0  0  0  0  0  0  0  0  0  0  0  0
   14.6613   -0.8700    0.0000 H   0  0  0  0  0  0  0  0  0  0  0  0
   15.9948   -0.7249    0.0000 H   0  0  0  0  0  0  0  0  0  0  0  0
   16.7919   -0.7249    0.0000 H   0  0  0  0  0  0  0  0  0  0  0  0
   16.1813    3.3326    0.0000 H   0  0  0  0  0  0  0  0  0  0  0  0
   15.7828    2.6423    0.0000 H   0  0  0  0  0  0  0  0  0  0  0  0
   12.0632    0.8700    0.0000 H   0  0  0  0  0  0  0  0  0  0  0  0
   12.2753   -3.3326    0.0000 H   0  0  0  0  0  0  0  0  0  0  0  0
   12.6738   -2.6423    0.0000 H   0  0  0  0  0  0  0  0  0  0  0  0
    7.2656    0.7249    0.0000 H   0  0  0  0  0  0  0  0  0  0  0  0
    6.4685    0.7249    0.0000 H   0  0  0  0  0  0  0  0  0  0  0  0
    5.6025   -0.7249    0.0000 H   0  0  0  0  0  0  0  0  0  0  0  0
    6.3996   -0.7249    0.0000 H   0  0  0  0  0  0  0  0  0  0  0  0
    7.3346   -0.7249    0.0000 H   0  0  0  0  0  0  0  0  0  0  0  0
    8.1316   -0.7249    0.0000 H   0  0  0  0  0  0  0  0  0  0  0  0
    5.5335    0.7249    0.0000 H   0  0  0  0  0  0  0  0  0  0  0  0
    4.7365    0.7249    0.0000 H   0  0  0  0  0  0  0  0  0  0  0  0
    8.9976    0.7249    0.0000 H   0  0  0  0  0  0  0  0  0  0  0  0
    8.2006    0.7249    0.0000 H   0  0  0  0  0  0  0  0  0  0  0  0
   17.4714    2.6674    0.0000 H   0  0  0  0  0  0  0  0  0  0  0  0
   17.8699    3.3577    0.0000 H   0  0  0  0  0  0  0  0  0  0  0  0
   10.7297    0.7249    0.0000 H   0  0  0  0  0  0  0  0  0  0  0  0
    9.9326    0.7249    0.0000 H   0  0  0  0  0  0  0  0  0  0  0  0
   10.9851   -2.6674    0.0000 H   0  0  0  0  0  0  0  0  0  0  0  0
   10.5866   -3.3577    0.0000 H   0  0  0  0  0  0  0  0  0  0  0  0
    3.8705   -0.7249    0.0000 H   0  0  0  0  0  0  0  0  0  0  0  0
    4.6675   -0.7249    0.0000 H   0  0  0  0  0  0  0  0  0  0  0  0
    9.4651   -0.8700    0.0000 H   0  0  0  0  0  0  0  0  0  0  0  0
    3.8015    0.7249    0.0000 H   0  0  0  0  0  0  0  0  0  0  0  0
    3.0044    0.7249    0.0000 H   0  0  0  0  0  0  0  0  0  0  0  0
   17.7963    4.5600    0.0000 H   0  0  0  0  0  0  0  0  0  0  0  0
   16.7224    4.5600    0.0000 H   0  0  0  0  0  0  0  0  0  0  0  0
   10.6603   -4.5600    0.0000 H   0  0  0  0  0  0  0  0  0  0  0  0
   11.7341   -4.5600    0.0000 H   0  0  0  0  0  0  0  0  0  0  0  0
    2.0000    0.0600    0.0000 H   0  0  0  0  0  0  0  0  0  0  0  0
    2.5369   -0.8700    0.0000 H   0  0  0  0  0  0  0  0  0  0  0  0
   19.5284   -0.0600    0.0000 H   0  0  0  0  0  0  0  0  0  0  0  0
  1 19  1  0  0  0  0
  1 33  1  0  0  0  0
  2 18  2  0  0  0  0
  3 27  2  0  0  0  0
  4 33  1  0  0  0  0
  4 79  1  0  0  0  0
  5 33  2  0  0  0  0
 12  6  1  6  0  0  0
  6 18  1  0  0  0  0
  6 44  1  0  0  0  0
 13  7  1  6  0  0  0
  7 27  1  0  0  0  0
  7 49  1  0  0  0  0
  8 26  1  0  0  0  0
  8 29  1  0  0  0  0
  8 70  1  0  0  0  0
  9 28  1  0  0  0  0
  9 73  1  0  0  0  0
  9 74  1  0  0  0  0
 10 30  1  0  0  0  0
 10 75  1  0  0  0  0
 10 76  1  0  0  0  0
 11 32  1  0  0  0  0
 11 77  1  0  0  0  0
 11 78  1  0  0  0  0
 12 14  1  0  0  0  0
 12 19  1  0  0  0  0
 12 34  1  0  0  0  0
 13 15  1  0  0  0  0
 13 18  1  0  0  0  0
 13 35  1  0  0  0  0
 14 16  1  0  0  0  0
 14 36  1  0  0  0  0
 14 37  1  0  0  0  0
 15 17  1  0  0  0  0
 15 38  1  0  0  0  0
 15 39  1  0  0  0  0
 16 20  1  0  0  0  0
 16 40  1  0  0  0  0
 16 41  1  0  0  0  0
 17 21  1  0  0  0  0
 17 42  1  0  0  0  0
 17 43  1  0  0  0  0
 19 45  1  0  0  0  0
 19 46  1  0  0  0  0
 20 28  1  0  0  0  0
 20 47  1  0  0  0  0
 20 48  1  0  0  0  0
 21 30  1  0  0  0  0
 21 50  1  0  0  0  0
 21 51  1  0  0  0  0
 22 23  1  0  0  0  0
 22 24  1  0  0  0  0
 22 52  1  0  0  0  0
 22 53  1  0  0  0  0
 23 25  1  0  0  0  0
 23 54  1  0  0  0  0
 23 55  1  0  0  0  0
 24 26  1  0  0  0  0
 24 56  1  0  0  0  0
 24 57  1  0  0  0  0
 25 31  1  0  0  0  0
 25 58  1  0  0  0  0
 25 59  1  0  0  0  0
 26 60  1  0  0  0  0
 26 61  1  0  0  0  0
 27 29  1  0  0  0  0
 28 62  1  0  0  0  0
 28 63  1  0  0  0  0
 29 64  1  0  0  0  0
 29 65  1  0  0  0  0
 30 66  1  0  0  0  0
 30 67  1  0  0  0  0
 31 32  1  0  0  0  0
 31 68  1  0  0  0  0
 31 69  1  0  0  0  0
 32 71  1  0  0  0  0
 32 72  1  0  0  0  0
M  END
> <PUBCHEM_COMPOUND_CID>
513380
> <PUBCHEM_COMPOUND_CANONICALIZED>
1
> <PUBCHEM_CACTVS_COMPLEXITY>
524
> <PUBCHEM_CACTVS_HBOND_ACCEPTOR>
9
> <PUBCHEM_CACTVS_HBOND_DONOR>
7
> <PUBCHEM_CACTVS_ROTATABLE_BOND>
23
> <PUBCHEM_CACTVS_SUBSKEYS>
AAADcfB7uAAAAAAAAAAAAAAAAAAAAAAAAAAAAAAAAAAAAAAAAAAAHgAQCAAACCjhgAYACALABgAIAAEQGAAAAAAAAAAAAIGIAAASQBIAgCAVAAAEFgCUAAGYyAAAAAAAAAAAAAAAAAAAAAAAAAAAAAAAAA==
> <PUBCHEM_IUPAC_OPENEYE_NAME>
[(2R)-6-amino-2-[[(2S)-6-amino-2-[[2-(7-aminoheptylamino)acetyl]amino]hexanoyl]amino]hexyl] hydrogen carbonate
> <PUBCHEM_IUPAC_CAS_NAME>
carbonic acid [(2R)-6-amino-2-[[(2S)-6-amino-2-[[2-(7-aminoheptylamino)-1-oxoethyl]amino]-1-oxohexyl]amino]hexyl] ester
> <PUBCHEM_IUPAC_NAME_MARKUP>
[(2<I>R</I>)-6-amino-2-[[(2<I>S</I>)-6-amino-2-[[2-(7-aminoheptylamino)acetyl]amino]hexanoyl]amino]hexyl] hydrogen carbonate
> <PUBCHEM_IUPAC_NAME>
[(2R)-6-amino-2-[[(2S)-6-amino-2-[[2-(7-aminoheptylamino)acetyl]amino]hexanoyl]amino]hexyl] hydrogen carbonate
> <PUBCHEM_IUPAC_SYSTEMATIC_NAME>
[(2R)-6-azanyl-2-[[(2S)-6-azanyl-2-[2-(7-azanylheptylamino)ethanoylamino]hexanoyl]amino]hexyl] hydrogen carbonate
> <PUBCHEM_IUPAC_TRADITIONAL_NAME>
carbonic acid [(2R)-6-amino-2-[[(2S)-6-amino-2-[[2-(7-aminoheptylamino)acetyl]amino]hexanoyl]amino]hexyl] ester
> <PUBCHEM_IUPAC_INCHI>
InChI=1S/C22H46N6O5/c23-12-6-2-1-3-9-15-26-16-20(29)28-19(11-5-8-14-25)21(30)27-18(10-4-7-13-24)17-33-22(31)32/h18-19,26H,1-17,23-25H2,(H,27,30)(H,28,29)(H,31,32)/t18-,19+/m1/s1
> <PUBCHEM_IUPAC_INCHIKEY>
DZGWKIXMWKAEJB-MOPGFXCFSA-N
> <PUBCHEM_XLOGP3_AA>
-2.4
> <PUBCHEM_EXACT_MASS>
474.35296859
> <PUBCHEM_MOLECULAR_FORMULA>
C22H46N6O5
> <PUBCHEM_MOLECULAR_WEIGHT>
474.6
> <PUBCHEM_OPENEYE_CAN_SMILES>
C(CCCN)CCCNCC(=O)NC(CCCCN)C(=O)NC(CCCCN)COC(=O)O
> <PUBCHEM_OPENEYE_ISO_SMILES>
C(CCCN)CCCNCC(=O)N[C@@H](CCCCN)C(=O)N[C@H](CCCCN)COC(=O)O
> <PUBCHEM_CACTVS_TPSA>
195
> <PUBCHEM_MONOISOTOPIC_WEIGHT>
474.35296859
> <PUBCHEM_TOTAL_CHARGE>
0
> <PUBCHEM_HEAVY_ATOM_COUNT>
33
> <PUBCHEM_ATOM_DEF_STEREO_COUNT>
2
> <PUBCHEM_ATOM_UDEF_STEREO_COUNT>
0
> <PUBCHEM_BOND_DEF_STEREO_COUNT>
0
> <PUBCHEM_BOND_UDEF_STEREO_COUNT>
0
> <PUBCHEM_ISOTOPIC_ATOM_COUNT>
0
> <PUBCHEM_COMPONENT_COUNT>
1
> <PUBCHEM_CACTVS_TAUTO_COUNT>
-1
> <PUBCHEM_COORDINATE_TYPE>
1
5
255
> <PUBCHEM_BONDANNOTATIONS>
12  6  6
13  7  6
$$$$
