513361
  -OEChem-10302200282D
 76 75  0     1  0  0  0  0  0999 V2000
    4.2690    1.8100    0.0000 O   0  0  0  0  0  0  0  0  0  0  0  0
    7.7331    0.8100    0.0000 O   0  0  0  0  0  0  0  0  0  0  0  0
   10.3312    3.3100    0.0000 O   0  0  0  0  0  0  0  0  0  0  0  0
    2.5369    1.8100    0.0000 O   0  0  0  0  0  0  0  0  0  0  0  0
    3.4030    3.3100    0.0000 O   0  0  0  0  0  0  0  0  0  0  0  0
    9.4651    1.8100    0.0000 N   0  0  0  0  0  0  0  0  0  0  0  0
    6.8671    2.3100    0.0000 N   0  0  0  0  0  0  0  0  0  0  0  0
   12.0632    2.3100    0.0000 N   0  0  0  0  0  0  0  0  0  0  0  0
    4.2690   -2.1900    0.0000 N   0  0  0  0  0  0  0  0  0  0  0  0
    6.8671   -2.6900    0.0000 N   0  0  0  0  0  0  0  0  0  0  0  0
   17.2594    2.3100    0.0000 N   0  0  0  0  0  0  0  0  0  0  0  0
    6.0010    1.8100    0.0000 C   0  0  2  0  0  0  0  0  0  0  0  0
    6.0010    0.8100    0.0000 C   0  0  0  0  0  0  0  0  0  0  0  0
    5.1350    0.3100    0.0000 C   0  0  0  0  0  0  0  0  0  0  0  0
    9.4651    0.8100    0.0000 C   0  0  0  0  0  0  0  0  0  0  0  0
    8.5991    0.3100    0.0000 C   0  0  0  0  0  0  0  0  0  0  0  0
    8.5991    2.3100    0.0000 C   0  0  0  0  0  0  0  0  0  0  0  0
    5.1350    2.3100    0.0000 C   0  0  0  0  0  0  0  0  0  0  0  0
    5.1350   -0.6900    0.0000 C   0  0  0  0  0  0  0  0  0  0  0  0
    8.5991   -0.6900    0.0000 C   0  0  0  0  0  0  0  0  0  0  0  0
    7.7331    1.8100    0.0000 C   0  0  0  0  0  0  0  0  0  0  0  0
   10.3312    2.3100    0.0000 C   0  0  0  0  0  0  0  0  0  0  0  0
    7.7331   -1.1900    0.0000 C   0  0  0  0  0  0  0  0  0  0  0  0
   11.1972    1.8100    0.0000 C   0  0  0  0  0  0  0  0  0  0  0  0
   13.7953    2.3100    0.0000 C   0  0  0  0  0  0  0  0  0  0  0  0
    4.2690   -1.1900    0.0000 C   0  0  0  0  0  0  0  0  0  0  0  0
   12.9292    1.8100    0.0000 C   0  0  0  0  0  0  0  0  0  0  0  0
   14.6613    1.8100    0.0000 C   0  0  0  0  0  0  0  0  0  0  0  0
    7.7331   -2.1900    0.0000 C   0  0  0  0  0  0  0  0  0  0  0  0
   15.5273    2.3100    0.0000 C   0  0  0  0  0  0  0  0  0  0  0  0
   16.3933    1.8100    0.0000 C   0  0  0  0  0  0  0  0  0  0  0  0
    3.4030    2.3100    0.0000 C   0  0  0  0  0  0  0  0  0  0  0  0
    6.5380    1.5000    0.0000 H   0  0  0  0  0  0  0  0  0  0  0  0
    6.2131    0.2274    0.0000 H   0  0  0  0  0  0  0  0  0  0  0  0
    6.6116    0.9177    0.0000 H   0  0  0  0  0  0  0  0  0  0  0  0
    4.9230    0.8926    0.0000 H   0  0  0  0  0  0  0  0  0  0  0  0
    4.5244    0.2023    0.0000 H   0  0  0  0  0  0  0  0  0  0  0  0
    9.6772    0.2274    0.0000 H   0  0  0  0  0  0  0  0  0  0  0  0
   10.0757    0.9177    0.0000 H   0  0  0  0  0  0  0  0  0  0  0  0
    8.3871    0.8926    0.0000 H   0  0  0  0  0  0  0  0  0  0  0  0
    7.9885    0.2023    0.0000 H   0  0  0  0  0  0  0  0  0  0  0  0
    8.9976    2.7849    0.0000 H   0  0  0  0  0  0  0  0  0  0  0  0
    8.2006    2.7849    0.0000 H   0  0  0  0  0  0  0  0  0  0  0  0
    6.8671    2.9300    0.0000 H   0  0  0  0  0  0  0  0  0  0  0  0
    5.5335    2.7849    0.0000 H   0  0  0  0  0  0  0  0  0  0  0  0
    4.7365    2.7849    0.0000 H   0  0  0  0  0  0  0  0  0  0  0  0
    5.3471   -1.2726    0.0000 H   0  0  0  0  0  0  0  0  0  0  0  0
    5.7456   -0.5823    0.0000 H   0  0  0  0  0  0  0  0  0  0  0  0
    8.8112   -1.2726    0.0000 H   0  0  0  0  0  0  0  0  0  0  0  0
    9.2097   -0.5823    0.0000 H   0  0  0  0  0  0  0  0  0  0  0  0
    7.5210   -0.6074    0.0000 H   0  0  0  0  0  0  0  0  0  0  0  0
    7.1225   -1.2977    0.0000 H   0  0  0  0  0  0  0  0  0  0  0  0
   10.7987    1.3350    0.0000 H   0  0  0  0  0  0  0  0  0  0  0  0
   11.5957    1.3350    0.0000 H   0  0  0  0  0  0  0  0  0  0  0  0
   14.1938    2.7849    0.0000 H   0  0  0  0  0  0  0  0  0  0  0  0
   13.3967    2.7849    0.0000 H   0  0  0  0  0  0  0  0  0  0  0  0
    4.0569   -0.6074    0.0000 H   0  0  0  0  0  0  0  0  0  0  0  0
    3.6584   -1.2977    0.0000 H   0  0  0  0  0  0  0  0  0  0  0  0
   12.5307    1.3350    0.0000 H   0  0  0  0  0  0  0  0  0  0  0  0
   13.3278    1.3350    0.0000 H   0  0  0  0  0  0  0  0  0  0  0  0
   14.2628    1.3350    0.0000 H   0  0  0  0  0  0  0  0  0  0  0  0
   15.0598    1.3350    0.0000 H   0  0  0  0  0  0  0  0  0  0  0  0
   12.0632    2.9300    0.0000 H   0  0  0  0  0  0  0  0  0  0  0  0
    7.9451   -2.7726    0.0000 H   0  0  0  0  0  0  0  0  0  0  0  0
    8.3437   -2.0823    0.0000 H   0  0  0  0  0  0  0  0  0  0  0  0
   15.9258    2.7849    0.0000 H   0  0  0  0  0  0  0  0  0  0  0  0
   15.1288    2.7849    0.0000 H   0  0  0  0  0  0  0  0  0  0  0  0
   15.9948    1.3350    0.0000 H   0  0  0  0  0  0  0  0  0  0  0  0
   16.7919    1.3350    0.0000 H   0  0  0  0  0  0  0  0  0  0  0  0
    3.7320   -2.5000    0.0000 H   0  0  0  0  0  0  0  0  0  0  0  0
    4.8059   -2.5000    0.0000 H   0  0  0  0  0  0  0  0  0  0  0  0
    6.8671   -3.3100    0.0000 H   0  0  0  0  0  0  0  0  0  0  0  0
    6.3301   -2.3800    0.0000 H   0  0  0  0  0  0  0  0  0  0  0  0
   17.7963    2.0000    0.0000 H   0  0  0  0  0  0  0  0  0  0  0  0
   17.2594    2.9300    0.0000 H   0  0  0  0  0  0  0  0  0  0  0  0
    2.0000    2.1200    0.0000 H   0  0  0  0  0  0  0  0  0  0  0  0
  1 18  1  0  0  0  0
  1 32  1  0  0  0  0
  2 21  2  0  0  0  0
  3 22  2  0  0  0  0
  4 32  1  0  0  0  0
  4 76  1  0  0  0  0
  5 32  2  0  0  0  0
  6 15  1  0  0  0  0
  6 17  1  0  0  0  0
  6 22  1  0  0  0  0
 12  7  1  6  0  0  0
  7 21  1  0  0  0  0
  7 44  1  0  0  0  0
  8 24  1  0  0  0  0
  8 27  1  0  0  0  0
  8 63  1  0  0  0  0
  9 26  1  0  0  0  0
  9 70  1  0  0  0  0
  9 71  1  0  0  0  0
 10 29  1  0  0  0  0
 10 72  1  0  0  0  0
 10 73  1  0  0  0  0
 11 31  1  0  0  0  0
 11 74  1  0  0  0  0
 11 75  1  0  0  0  0
 12 13  1  0  0  0  0
 12 18  1  0  0  0  0
 12 33  1  0  0  0  0
 13 14  1  0  0  0  0
 13 34  1  0  0  0  0
 13 35  1  0  0  0  0
 14 19  1  0  0  0  0
 14 36  1  0  0  0  0
 14 37  1  0  0  0  0
 15 16  1  0  0  0  0
 15 38  1  0  0  0  0
 15 39  1  0  0  0  0
 16 20  1  0  0  0  0
 16 40  1  0  0  0  0
 16 41  1  0  0  0  0
 17 21  1  0  0  0  0
 17 42  1  0  0  0  0
 17 43  1  0  0  0  0
 18 45  1  0  0  0  0
 18 46  1  0  0  0  0
 19 26  1  0  0  0  0
 19 47  1  0  0  0  0
 19 48  1  0  0  0  0
 20 23  1  0  0  0  0
 20 49  1  0  0  0  0
 20 50  1  0  0  0  0
 22 24  1  0  0  0  0
 23 29  1  0  0  0  0
 23 51  1  0  0  0  0
 23 52  1  0  0  0  0
 24 53  1  0  0  0  0
 24 54  1  0  0  0  0
 25 27  1  0  0  0  0
 25 28  1  0  0  0  0
 25 55  1  0  0  0  0
 25 56  1  0  0  0  0
 26 57  1  0  0  0  0
 26 58  1  0  0  0  0
 27 59  1  0  0  0  0
 27 60  1  0  0  0  0
 28 30  1  0  0  0  0
 28 61  1  0  0  0  0
 28 62  1  0  0  0  0
 29 64  1  0  0  0  0
 29 65  1  0  0  0  0
 30 31  1  0  0  0  0
 30 66  1  0  0  0  0
 30 67  1  0  0  0  0
 31 68  1  0  0  0  0
 31 69  1  0  0  0  0
M  END
> <PUBCHEM_COMPOUND_CID>
513361
> <PUBCHEM_COMPOUND_CANONICALIZED>
1
> <PUBCHEM_CACTVS_COMPLEXITY>
509
> <PUBCHEM_CACTVS_HBOND_ACCEPTOR>
9
> <PUBCHEM_CACTVS_HBOND_DONOR>
6
> <PUBCHEM_CACTVS_ROTATABLE_BOND>
22
> <PUBCHEM_CACTVS_SUBSKEYS>
AAADcfB7uAAAAAAAAAAAAAAAAAAAAAAAAAAAAAAAAAAAAAAAAAAAHgAQCAAACCjhgAYACAPABgAIAAEQGAAAAAAAAAAAAICIAAASQAIAgCAVAAAEFgCUAAGQQAAAAAAAAAAAAAAAAAAAAAAAAAAAAAAAAA==
> <PUBCHEM_IUPAC_OPENEYE_NAME>
[(2R)-6-amino-2-[[2-[5-aminopentyl-[2-(5-aminopentylamino)acetyl]amino]acetyl]amino]hexyl] hydrogen carbonate
> <PUBCHEM_IUPAC_CAS_NAME>
carbonic acid [(2R)-6-amino-2-[[2-[5-aminopentyl-[2-(5-aminopentylamino)-1-oxoethyl]amino]-1-oxoethyl]amino]hexyl] ester
> <PUBCHEM_IUPAC_NAME_MARKUP>
[(2<I>R</I>)-6-amino-2-[[2-[5-aminopentyl-[2-(5-aminopentylamino)acetyl]amino]acetyl]amino]hexyl] hydrogen carbonate
> <PUBCHEM_IUPAC_NAME>
[(2R)-6-amino-2-[[2-[5-aminopentyl-[2-(5-aminopentylamino)acetyl]amino]acetyl]amino]hexyl] hydrogen carbonate
> <PUBCHEM_IUPAC_SYSTEMATIC_NAME>
[(2R)-6-azanyl-2-[2-[5-azanylpentyl-[2-(5-azanylpentylamino)ethanoyl]amino]ethanoylamino]hexyl] hydrogen carbonate
> <PUBCHEM_IUPAC_TRADITIONAL_NAME>
carbonic acid [(2R)-6-amino-2-[[2-[5-aminopentyl-[2-(5-aminopentylamino)acetyl]amino]acetyl]amino]hexyl] ester
> <PUBCHEM_IUPAC_INCHI>
InChI=1S/C21H44N6O5/c22-10-4-1-7-13-25-15-20(29)27(14-8-2-5-11-23)16-19(28)26-18(9-3-6-12-24)17-32-21(30)31/h18,25H,1-17,22-24H2,(H,26,28)(H,30,31)/t18-/m1/s1
> <PUBCHEM_IUPAC_INCHIKEY>
DFYSLSFAWVYKSG-GOSISDBHSA-N
> <PUBCHEM_XLOGP3_AA>
-3.2
> <PUBCHEM_EXACT_MASS>
460.33731853
> <PUBCHEM_MOLECULAR_FORMULA>
C21H44N6O5
> <PUBCHEM_MOLECULAR_WEIGHT>
460.6
> <PUBCHEM_OPENEYE_CAN_SMILES>
C(CCN)CCNCC(=O)N(CCCCCN)CC(=O)NC(CCCCN)COC(=O)O
> <PUBCHEM_OPENEYE_ISO_SMILES>
C(CCN)CCNCC(=O)N(CCCCCN)CC(=O)N[C@H](CCCCN)COC(=O)O
> <PUBCHEM_CACTVS_TPSA>
186
> <PUBCHEM_MONOISOTOPIC_WEIGHT>
460.33731853
> <PUBCHEM_TOTAL_CHARGE>
0
> <PUBCHEM_HEAVY_ATOM_COUNT>
32
> <PUBCHEM_ATOM_DEF_STEREO_COUNT>
1
> <PUBCHEM_ATOM_UDEF_STEREO_COUNT>
0
> <PUBCHEM_BOND_DEF_STEREO_COUNT>
0
> <PUBCHEM_BOND_UDEF_STEREO_COUNT>
0
> <PUBCHEM_ISOTOPIC_ATOM_COUNT>
0
> <PUBCHEM_COMPONENT_COUNT>
1
> <PUBCHEM_CACTVS_TAUTO_COUNT>
-1
> <PUBCHEM_COORDINATE_TYPE>
1
5
255
> <PUBCHEM_BONDANNOTATIONS>
12  7  6
$$$$
