513382
  -OEChem-10302200282D
 76 75  0     1  0  0  0  0  0999 V2000
   13.7953   -0.1550    0.0000 O   0  0  0  0  0  0  0  0  0  0  0  0
    6.8671   -0.1550    0.0000 O   0  0  0  0  0  0  0  0  0  0  0  0
   10.3312    0.8450    0.0000 O   0  0  0  0  0  0  0  0  0  0  0  0
    7.7331   -1.6550    0.0000 O   0  0  0  0  0  0  0  0  0  0  0  0
   15.5273   -0.1550    0.0000 O   0  0  0  0  0  0  0  0  0  0  0  0
   14.6613   -1.6550    0.0000 O   0  0  0  0  0  0  0  0  0  0  0  0
   11.1972   -0.6550    0.0000 N   0  0  0  0  0  0  0  0  0  0  0  0
    8.5991   -0.1550    0.0000 N   0  0  0  0  0  0  0  0  0  0  0  0
    4.2690   -0.6550    0.0000 N   0  0  0  0  0  0  0  0  0  0  0  0
   13.7953    3.8450    0.0000 N   0  0  0  0  0  0  0  0  0  0  0  0
    7.7331   -4.6550    0.0000 N   0  0  0  0  0  0  0  0  0  0  0  0
    3.4030    2.8450    0.0000 N   0  0  0  0  0  0  0  0  0  0  0  0
    2.5369    4.3450    0.0000 N   0  0  0  0  0  0  0  0  0  0  0  0
    4.2690    4.3450    0.0000 N   0  0  0  0  0  0  0  0  0  0  0  0
   12.0632   -0.1550    0.0000 C   0  0  2  0  0  0  0  0  0  0  0  0
   12.0632    0.8450    0.0000 C   0  0  0  0  0  0  0  0  0  0  0  0
    9.4651   -0.6550    0.0000 C   0  0  1  0  0  0  0  0  0  0  0  0
    9.4651   -1.6550    0.0000 C   0  0  0  0  0  0  0  0  0  0  0  0
   12.9292    1.3450    0.0000 C   0  0  0  0  0  0  0  0  0  0  0  0
    8.5991   -2.1550    0.0000 C   0  0  0  0  0  0  0  0  0  0  0  0
   10.3312   -0.1550    0.0000 C   0  0  0  0  0  0  0  0  0  0  0  0
   12.9292   -0.6550    0.0000 C   0  0  0  0  0  0  0  0  0  0  0  0
   12.9292    2.3450    0.0000 C   0  0  0  0  0  0  0  0  0  0  0  0
    8.5991   -3.1550    0.0000 C   0  0  0  0  0  0  0  0  0  0  0  0
   13.7953    2.8450    0.0000 C   0  0  0  0  0  0  0  0  0  0  0  0
    5.1350   -0.1550    0.0000 C   0  0  1  0  0  0  0  0  0  0  0  0
    5.1350    0.8450    0.0000 C   0  0  0  0  0  0  0  0  0  0  0  0
    7.7331   -3.6550    0.0000 C   0  0  0  0  0  0  0  0  0  0  0  0
    6.0010   -0.6550    0.0000 C   0  0  0  0  0  0  0  0  0  0  0  0
    7.7331   -0.6550    0.0000 C   0  0  0  0  0  0  0  0  0  0  0  0
    4.2690    1.3450    0.0000 C   0  0  0  0  0  0  0  0  0  0  0  0
    4.2690    2.3450    0.0000 C   0  0  0  0  0  0  0  0  0  0  0  0
   14.6613   -0.6550    0.0000 C   0  0  0  0  0  0  0  0  0  0  0  0
    3.4030    3.8450    0.0000 C   0  0  0  0  0  0  0  0  0  0  0  0
   12.0632   -0.7750    0.0000 H   0  0  0  0  0  0  0  0  0  0  0  0
   11.8512    1.4276    0.0000 H   0  0  0  0  0  0  0  0  0  0  0  0
   11.4526    0.7373    0.0000 H   0  0  0  0  0  0  0  0  0  0  0  0
    9.4651   -0.0350    0.0000 H   0  0  0  0  0  0  0  0  0  0  0  0
    9.6772   -2.2376    0.0000 H   0  0  0  0  0  0  0  0  0  0  0  0
   10.0757   -1.5473    0.0000 H   0  0  0  0  0  0  0  0  0  0  0  0
   13.1413    0.7624    0.0000 H   0  0  0  0  0  0  0  0  0  0  0  0
   13.5398    1.4527    0.0000 H   0  0  0  0  0  0  0  0  0  0  0  0
   11.1972   -1.2750    0.0000 H   0  0  0  0  0  0  0  0  0  0  0  0
    8.3871   -1.5724    0.0000 H   0  0  0  0  0  0  0  0  0  0  0  0
    7.9885   -2.2627    0.0000 H   0  0  0  0  0  0  0  0  0  0  0  0
   12.5307   -1.1300    0.0000 H   0  0  0  0  0  0  0  0  0  0  0  0
   13.3278   -1.1300    0.0000 H   0  0  0  0  0  0  0  0  0  0  0  0
   12.7172    2.9276    0.0000 H   0  0  0  0  0  0  0  0  0  0  0  0
   12.3187    2.2373    0.0000 H   0  0  0  0  0  0  0  0  0  0  0  0
    8.8112   -3.7376    0.0000 H   0  0  0  0  0  0  0  0  0  0  0  0
    9.2097   -3.0473    0.0000 H   0  0  0  0  0  0  0  0  0  0  0  0
    8.5991    0.4650    0.0000 H   0  0  0  0  0  0  0  0  0  0  0  0
    5.1350   -0.7750    0.0000 H   0  0  0  0  0  0  0  0  0  0  0  0
   14.0073    2.2624    0.0000 H   0  0  0  0  0  0  0  0  0  0  0  0
   14.4058    2.9527    0.0000 H   0  0  0  0  0  0  0  0  0  0  0  0
    5.7456    0.7373    0.0000 H   0  0  0  0  0  0  0  0  0  0  0  0
    5.3471    1.4276    0.0000 H   0  0  0  0  0  0  0  0  0  0  0  0
    7.5210   -3.0724    0.0000 H   0  0  0  0  0  0  0  0  0  0  0  0
    7.1225   -3.7627    0.0000 H   0  0  0  0  0  0  0  0  0  0  0  0
    5.6025   -1.1300    0.0000 H   0  0  0  0  0  0  0  0  0  0  0  0
    6.3996   -1.1300    0.0000 H   0  0  0  0  0  0  0  0  0  0  0  0
    3.6584    1.4527    0.0000 H   0  0  0  0  0  0  0  0  0  0  0  0
    4.0569    0.7624    0.0000 H   0  0  0  0  0  0  0  0  0  0  0  0
    4.8796    2.2373    0.0000 H   0  0  0  0  0  0  0  0  0  0  0  0
    4.4810    2.9276    0.0000 H   0  0  0  0  0  0  0  0  0  0  0  0
    3.7320   -0.3450    0.0000 H   0  0  0  0  0  0  0  0  0  0  0  0
    4.2690   -1.2750    0.0000 H   0  0  0  0  0  0  0  0  0  0  0  0
   14.3322    4.1550    0.0000 H   0  0  0  0  0  0  0  0  0  0  0  0
   13.2583    4.1550    0.0000 H   0  0  0  0  0  0  0  0  0  0  0  0
    7.1962   -4.9650    0.0000 H   0  0  0  0  0  0  0  0  0  0  0  0
    8.2700   -4.9650    0.0000 H   0  0  0  0  0  0  0  0  0  0  0  0
   16.0643   -0.4650    0.0000 H   0  0  0  0  0  0  0  0  0  0  0  0
    2.5369    4.9650    0.0000 H   0  0  0  0  0  0  0  0  0  0  0  0
    2.0000    4.0350    0.0000 H   0  0  0  0  0  0  0  0  0  0  0  0
    4.2690    4.9650    0.0000 H   0  0  0  0  0  0  0  0  0  0  0  0
    4.8059    4.0350    0.0000 H   0  0  0  0  0  0  0  0  0  0  0  0
  1 22  1  0  0  0  0
  1 33  1  0  0  0  0
  2 29  1  0  0  0  0
  2 30  1  0  0  0  0
  3 21  2  0  0  0  0
  4 30  2  0  0  0  0
  5 33  1  0  0  0  0
  5 72  1  0  0  0  0
  6 33  2  0  0  0  0
 15  7  1  6  0  0  0
  7 21  1  0  0  0  0
  7 43  1  0  0  0  0
 17  8  1  6  0  0  0
  8 30  1  0  0  0  0
  8 52  1  0  0  0  0
 26  9  1  1  0  0  0
  9 66  1  0  0  0  0
  9 67  1  0  0  0  0
 10 25  1  0  0  0  0
 10 68  1  0  0  0  0
 10 69  1  0  0  0  0
 11 28  1  0  0  0  0
 11 70  1  0  0  0  0
 11 71  1  0  0  0  0
 12 32  1  0  0  0  0
 12 34  2  0  0  0  0
 13 34  1  0  0  0  0
 13 73  1  0  0  0  0
 13 74  1  0  0  0  0
 14 34  1  0  0  0  0
 14 75  1  0  0  0  0
 14 76  1  0  0  0  0
 15 16  1  0  0  0  0
 15 22  1  0  0  0  0
 15 35  1  0  0  0  0
 16 19  1  0  0  0  0
 16 36  1  0  0  0  0
 16 37  1  0  0  0  0
 17 18  1  0  0  0  0
 17 21  1  0  0  0  0
 17 38  1  0  0  0  0
 18 20  1  0  0  0  0
 18 39  1  0  0  0  0
 18 40  1  0  0  0  0
 19 23  1  0  0  0  0
 19 41  1  0  0  0  0
 19 42  1  0  0  0  0
 20 24  1  0  0  0  0
 20 44  1  0  0  0  0
 20 45  1  0  0  0  0
 22 46  1  0  0  0  0
 22 47  1  0  0  0  0
 23 25  1  0  0  0  0
 23 48  1  0  0  0  0
 23 49  1  0  0  0  0
 24 28  1  0  0  0  0
 24 50  1  0  0  0  0
 24 51  1  0  0  0  0
 25 54  1  0  0  0  0
 25 55  1  0  0  0  0
 26 27  1  0  0  0  0
 26 29  1  0  0  0  0
 26 53  1  0  0  0  0
 27 31  1  0  0  0  0
 27 56  1  0  0  0  0
 27 57  1  0  0  0  0
 28 58  1  0  0  0  0
 28 59  1  0  0  0  0
 29 60  1  0  0  0  0
 29 61  1  0  0  0  0
 31 32  1  0  0  0  0
 31 62  1  0  0  0  0
 31 63  1  0  0  0  0
 32 64  1  0  0  0  0
 32 65  1  0  0  0  0
M  END
> <PUBCHEM_COMPOUND_CID>
513382
> <PUBCHEM_COMPOUND_CANONICALIZED>
1
> <PUBCHEM_CACTVS_COMPLEXITY>
618
> <PUBCHEM_CACTVS_HBOND_ACCEPTOR>
10
> <PUBCHEM_CACTVS_HBOND_DONOR>
8
> <PUBCHEM_CACTVS_ROTATABLE_BOND>
21
> <PUBCHEM_CACTVS_SUBSKEYS>
AAADcfB7+AAAAAAAAAAAAAAAAAAAAAAAAAAAAAAAAAAAAAAAAAAAHgAQCAAACCjhgAYBCALABgAoAAEQPAAAAAEAAAAAAIGIAAESQBIAgCAdAAAEFgCUAAGYWAAAAAAAAAAAAAAAAAAAAAAAAAAAAAAAAA==
> <PUBCHEM_IUPAC_OPENEYE_NAME>
[(2R)-6-amino-2-[[(2S)-6-amino-2-[[(2S)-2-amino-5-guanidino-pentoxy]carbonylamino]hexanoyl]amino]hexyl] hydrogen carbonate
> <PUBCHEM_IUPAC_CAS_NAME>
carbonic acid [(2R)-6-amino-2-[[(2S)-6-amino-2-[[[(2S)-2-amino-5-(diaminomethylideneamino)pentoxy]-oxomethyl]amino]-1-oxohexyl]amino]hexyl] ester
> <PUBCHEM_IUPAC_NAME_MARKUP>
[(2<I>R</I>)-6-amino-2-[[(2<I>S</I>)-6-amino-2-[[(2<I>S</I>)-2-amino-5-(diaminomethylideneamino)pentoxy]carbonylamino]hexanoyl]amino]hexyl] hydrogen carbonate
> <PUBCHEM_IUPAC_NAME>
[(2R)-6-amino-2-[[(2S)-6-amino-2-[[(2S)-2-amino-5-(diaminomethylideneamino)pentoxy]carbonylamino]hexanoyl]amino]hexyl] hydrogen carbonate
> <PUBCHEM_IUPAC_SYSTEMATIC_NAME>
[(2R)-6-azanyl-2-[[(2S)-6-azanyl-2-[[(2S)-2-azanyl-5-[bis(azanyl)methylideneamino]pentoxy]carbonylamino]hexanoyl]amino]hexyl] hydrogen carbonate
> <PUBCHEM_IUPAC_TRADITIONAL_NAME>
carbonic acid [(2R)-6-amino-2-[[(2S)-6-amino-2-[[(2S)-2-amino-5-guanidino-pentoxy]carbonylamino]hexanoyl]amino]hexyl] ester
> <PUBCHEM_IUPAC_INCHI>
InChI=1S/C20H42N8O6/c21-9-3-1-7-15(13-34-20(31)32)27-17(29)16(8-2-4-10-22)28-19(30)33-12-14(23)6-5-11-26-18(24)25/h14-16H,1-13,21-23H2,(H,27,29)(H,28,30)(H,31,32)(H4,24,25,26)/t14-,15+,16-/m0/s1
> <PUBCHEM_IUPAC_INCHIKEY>
MIVRLDYGDFODRA-XHSDSOJGSA-N
> <PUBCHEM_XLOGP3_AA>
-4.4
> <PUBCHEM_EXACT_MASS>
490.32273109
> <PUBCHEM_MOLECULAR_FORMULA>
C20H42N8O6
> <PUBCHEM_MOLECULAR_WEIGHT>
490.6
> <PUBCHEM_OPENEYE_CAN_SMILES>
C(CCN)CC(COC(=O)O)NC(=O)C(CCCCN)NC(=O)OCC(CCCN=C(N)N)N
> <PUBCHEM_OPENEYE_ISO_SMILES>
C(CCN)C[C@H](COC(=O)O)NC(=O)[C@H](CCCCN)NC(=O)OC[C@H](CCCN=C(N)N)N
> <PUBCHEM_CACTVS_TPSA>
256
> <PUBCHEM_MONOISOTOPIC_WEIGHT>
490.32273109
> <PUBCHEM_TOTAL_CHARGE>
0
> <PUBCHEM_HEAVY_ATOM_COUNT>
34
> <PUBCHEM_ATOM_DEF_STEREO_COUNT>
3
> <PUBCHEM_ATOM_UDEF_STEREO_COUNT>
0
> <PUBCHEM_BOND_DEF_STEREO_COUNT>
0
> <PUBCHEM_BOND_UDEF_STEREO_COUNT>
0
> <PUBCHEM_ISOTOPIC_ATOM_COUNT>
0
> <PUBCHEM_COMPONENT_COUNT>
1
> <PUBCHEM_CACTVS_TAUTO_COUNT>
-1
> <PUBCHEM_COORDINATE_TYPE>
1
5
255
> <PUBCHEM_BONDANNOTATIONS>
15  7  6
17  8  6
26  9  5
$$$$
