513376
  -OEChem-10302200282D
 74 73  0     1  0  0  0  0  0999 V2000
   12.9292    0.2500    0.0000 O   0  0  0  0  0  0  0  0  0  0  0  0
    6.0010    0.2500    0.0000 O   0  0  0  0  0  0  0  0  0  0  0  0
    9.4651    1.2500    0.0000 O   0  0  0  0  0  0  0  0  0  0  0  0
    6.8671   -1.2500    0.0000 O   0  0  0  0  0  0  0  0  0  0  0  0
   14.6613    0.2500    0.0000 O   0  0  0  0  0  0  0  0  0  0  0  0
   13.7953   -1.2500    0.0000 O   0  0  0  0  0  0  0  0  0  0  0  0
   10.3312   -0.2500    0.0000 N   0  0  0  0  0  0  0  0  0  0  0  0
    7.7331    0.2500    0.0000 N   0  0  0  0  0  0  0  0  0  0  0  0
    3.4030   -0.2500    0.0000 N   0  0  0  0  0  0  0  0  0  0  0  0
   12.9292    4.2500    0.0000 N   0  0  0  0  0  0  0  0  0  0  0  0
    6.8671   -4.2500    0.0000 N   0  0  0  0  0  0  0  0  0  0  0  0
    2.5369    4.2500    0.0000 N   0  0  0  0  0  0  0  0  0  0  0  0
   11.1972    0.2500    0.0000 C   0  0  2  0  0  0  0  0  0  0  0  0
   11.1972    1.2500    0.0000 C   0  0  0  0  0  0  0  0  0  0  0  0
    8.5991   -0.2500    0.0000 C   0  0  1  0  0  0  0  0  0  0  0  0
    8.5991   -1.2500    0.0000 C   0  0  0  0  0  0  0  0  0  0  0  0
   12.0632    1.7500    0.0000 C   0  0  0  0  0  0  0  0  0  0  0  0
    7.7331   -1.7500    0.0000 C   0  0  0  0  0  0  0  0  0  0  0  0
    9.4651    0.2500    0.0000 C   0  0  0  0  0  0  0  0  0  0  0  0
   12.0632   -0.2500    0.0000 C   0  0  0  0  0  0  0  0  0  0  0  0
   12.0632    2.7500    0.0000 C   0  0  0  0  0  0  0  0  0  0  0  0
    7.7331   -2.7500    0.0000 C   0  0  0  0  0  0  0  0  0  0  0  0
    4.2690    0.2500    0.0000 C   0  0  2  0  0  0  0  0  0  0  0  0
    4.2690    1.2500    0.0000 C   0  0  0  0  0  0  0  0  0  0  0  0
    3.4030    1.7500    0.0000 C   0  0  0  0  0  0  0  0  0  0  0  0
    5.1350   -0.2500    0.0000 C   0  0  0  0  0  0  0  0  0  0  0  0
   12.9292    3.2500    0.0000 C   0  0  0  0  0  0  0  0  0  0  0  0
    3.4030    2.7500    0.0000 C   0  0  0  0  0  0  0  0  0  0  0  0
    6.8671   -3.2500    0.0000 C   0  0  0  0  0  0  0  0  0  0  0  0
    6.8671   -0.2500    0.0000 C   0  0  0  0  0  0  0  0  0  0  0  0
    2.5369    3.2500    0.0000 C   0  0  0  0  0  0  0  0  0  0  0  0
   13.7953   -0.2500    0.0000 C   0  0  0  0  0  0  0  0  0  0  0  0
   10.6603    0.5600    0.0000 H   0  0  0  0  0  0  0  0  0  0  0  0
   10.9851    1.8326    0.0000 H   0  0  0  0  0  0  0  0  0  0  0  0
   10.5866    1.1423    0.0000 H   0  0  0  0  0  0  0  0  0  0  0  0
    8.5991    0.3700    0.0000 H   0  0  0  0  0  0  0  0  0  0  0  0
    8.8112   -1.8326    0.0000 H   0  0  0  0  0  0  0  0  0  0  0  0
    9.2097   -1.1423    0.0000 H   0  0  0  0  0  0  0  0  0  0  0  0
   12.2753    1.1674    0.0000 H   0  0  0  0  0  0  0  0  0  0  0  0
   12.6738    1.8577    0.0000 H   0  0  0  0  0  0  0  0  0  0  0  0
   10.3312   -0.8700    0.0000 H   0  0  0  0  0  0  0  0  0  0  0  0
    7.5210   -1.1674    0.0000 H   0  0  0  0  0  0  0  0  0  0  0  0
    7.1225   -1.8577    0.0000 H   0  0  0  0  0  0  0  0  0  0  0  0
   11.6647   -0.7249    0.0000 H   0  0  0  0  0  0  0  0  0  0  0  0
   12.4617   -0.7249    0.0000 H   0  0  0  0  0  0  0  0  0  0  0  0
   11.8512    3.3326    0.0000 H   0  0  0  0  0  0  0  0  0  0  0  0
   11.4526    2.6423    0.0000 H   0  0  0  0  0  0  0  0  0  0  0  0
    7.9451   -3.3326    0.0000 H   0  0  0  0  0  0  0  0  0  0  0  0
    8.3437   -2.6423    0.0000 H   0  0  0  0  0  0  0  0  0  0  0  0
    4.2690   -0.3700    0.0000 H   0  0  0  0  0  0  0  0  0  0  0  0
    4.8796    1.1423    0.0000 H   0  0  0  0  0  0  0  0  0  0  0  0
    4.4810    1.8326    0.0000 H   0  0  0  0  0  0  0  0  0  0  0  0
    7.7331    0.8700    0.0000 H   0  0  0  0  0  0  0  0  0  0  0  0
    2.7924    1.8577    0.0000 H   0  0  0  0  0  0  0  0  0  0  0  0
    3.1909    1.1674    0.0000 H   0  0  0  0  0  0  0  0  0  0  0  0
    4.7365   -0.7249    0.0000 H   0  0  0  0  0  0  0  0  0  0  0  0
    5.5335   -0.7249    0.0000 H   0  0  0  0  0  0  0  0  0  0  0  0
   13.1413    2.6674    0.0000 H   0  0  0  0  0  0  0  0  0  0  0  0
   13.5398    3.3577    0.0000 H   0  0  0  0  0  0  0  0  0  0  0  0
    4.0135    2.6423    0.0000 H   0  0  0  0  0  0  0  0  0  0  0  0
    3.6150    3.3326    0.0000 H   0  0  0  0  0  0  0  0  0  0  0  0
    6.6550   -2.6674    0.0000 H   0  0  0  0  0  0  0  0  0  0  0  0
    6.2565   -3.3577    0.0000 H   0  0  0  0  0  0  0  0  0  0  0  0
    1.9264    3.3577    0.0000 H   0  0  0  0  0  0  0  0  0  0  0  0
    2.3249    2.6674    0.0000 H   0  0  0  0  0  0  0  0  0  0  0  0
    2.8660    0.0600    0.0000 H   0  0  0  0  0  0  0  0  0  0  0  0
    3.4030   -0.8700    0.0000 H   0  0  0  0  0  0  0  0  0  0  0  0
   13.4662    4.5600    0.0000 H   0  0  0  0  0  0  0  0  0  0  0  0
   12.3923    4.5600    0.0000 H   0  0  0  0  0  0  0  0  0  0  0  0
    6.3301   -4.5600    0.0000 H   0  0  0  0  0  0  0  0  0  0  0  0
    7.4040   -4.5600    0.0000 H   0  0  0  0  0  0  0  0  0  0  0  0
    2.0000    4.5600    0.0000 H   0  0  0  0  0  0  0  0  0  0  0  0
    3.0739    4.5600    0.0000 H   0  0  0  0  0  0  0  0  0  0  0  0
   15.1982   -0.0600    0.0000 H   0  0  0  0  0  0  0  0  0  0  0  0
  1 20  1  0  0  0  0
  1 32  1  0  0  0  0
  2 26  1  0  0  0  0
  2 30  1  0  0  0  0
  3 19  2  0  0  0  0
  4 30  2  0  0  0  0
  5 32  1  0  0  0  0
  5 74  1  0  0  0  0
  6 32  2  0  0  0  0
 13  7  1  6  0  0  0
  7 19  1  0  0  0  0
  7 41  1  0  0  0  0
 15  8  1  6  0  0  0
  8 30  1  0  0  0  0
  8 53  1  0  0  0  0
 23  9  1  6  0  0  0
  9 66  1  0  0  0  0
  9 67  1  0  0  0  0
 10 27  1  0  0  0  0
 10 68  1  0  0  0  0
 10 69  1  0  0  0  0
 11 29  1  0  0  0  0
 11 70  1  0  0  0  0
 11 71  1  0  0  0  0
 12 31  1  0  0  0  0
 12 72  1  0  0  0  0
 12 73  1  0  0  0  0
 13 14  1  0  0  0  0
 13 20  1  0  0  0  0
 13 33  1  0  0  0  0
 14 17  1  0  0  0  0
 14 34  1  0  0  0  0
 14 35  1  0  0  0  0
 15 16  1  0  0  0  0
 15 19  1  0  0  0  0
 15 36  1  0  0  0  0
 16 18  1  0  0  0  0
 16 37  1  0  0  0  0
 16 38  1  0  0  0  0
 17 21  1  0  0  0  0
 17 39  1  0  0  0  0
 17 40  1  0  0  0  0
 18 22  1  0  0  0  0
 18 42  1  0  0  0  0
 18 43  1  0  0  0  0
 20 44  1  0  0  0  0
 20 45  1  0  0  0  0
 21 27  1  0  0  0  0
 21 46  1  0  0  0  0
 21 47  1  0  0  0  0
 22 29  1  0  0  0  0
 22 48  1  0  0  0  0
 22 49  1  0  0  0  0
 23 24  1  0  0  0  0
 23 26  1  0  0  0  0
 23 50  1  0  0  0  0
 24 25  1  0  0  0  0
 24 51  1  0  0  0  0
 24 52  1  0  0  0  0
 25 28  1  0  0  0  0
 25 54  1  0  0  0  0
 25 55  1  0  0  0  0
 26 56  1  0  0  0  0
 26 57  1  0  0  0  0
 27 58  1  0  0  0  0
 27 59  1  0  0  0  0
 28 31  1  0  0  0  0
 28 60  1  0  0  0  0
 28 61  1  0  0  0  0
 29 62  1  0  0  0  0
 29 63  1  0  0  0  0
 31 64  1  0  0  0  0
 31 65  1  0  0  0  0
M  END
> <PUBCHEM_COMPOUND_CID>
513376
> <PUBCHEM_COMPOUND_CANONICALIZED>
1
> <PUBCHEM_CACTVS_COMPLEXITY>
525
> <PUBCHEM_CACTVS_HBOND_ACCEPTOR>
10
> <PUBCHEM_CACTVS_HBOND_DONOR>
7
> <PUBCHEM_CACTVS_ROTATABLE_BOND>
21
> <PUBCHEM_CACTVS_SUBSKEYS>
AAADcfB7uAAAAAAAAAAAAAAAAAAAAAAAAAAAAAAAAAAAAAAAAAAAHgAQCAAACCjhgAYACALABgAIAAEQGAAAAAAAAAAAAIGIAAESQBIAgCAdAAAEFgCUAAGYSAAAAAAAAAAAAAAAAAAAAAAAAAAAAAAAAA==
> <PUBCHEM_IUPAC_OPENEYE_NAME>
[(2R)-6-amino-2-[[(2S)-6-amino-2-[[(2R)-2,6-diaminohexoxy]carbonylamino]hexanoyl]amino]hexyl] hydrogen carbonate
> <PUBCHEM_IUPAC_CAS_NAME>
carbonic acid [(2R)-6-amino-2-[[(2S)-6-amino-2-[[[(2R)-2,6-diaminohexoxy]-oxomethyl]amino]-1-oxohexyl]amino]hexyl] ester
> <PUBCHEM_IUPAC_NAME_MARKUP>
[(2<I>R</I>)-6-amino-2-[[(2<I>S</I>)-6-amino-2-[[(2<I>R</I>)-2,6-diaminohexoxy]carbonylamino]hexanoyl]amino]hexyl] hydrogen carbonate
> <PUBCHEM_IUPAC_NAME>
[(2R)-6-amino-2-[[(2S)-6-amino-2-[[(2R)-2,6-diaminohexoxy]carbonylamino]hexanoyl]amino]hexyl] hydrogen carbonate
> <PUBCHEM_IUPAC_SYSTEMATIC_NAME>
[(2R)-6-azanyl-2-[[(2S)-6-azanyl-2-[[(2R)-2,6-bis(azanyl)hexoxy]carbonylamino]hexanoyl]amino]hexyl] hydrogen carbonate
> <PUBCHEM_IUPAC_TRADITIONAL_NAME>
carbonic acid [(2R)-6-amino-2-[[(2S)-6-amino-2-[[(2R)-2,6-diaminohexoxy]carbonylamino]hexanoyl]amino]hexyl] ester
> <PUBCHEM_IUPAC_INCHI>
InChI=1S/C20H42N6O6/c21-10-4-1-7-15(24)13-31-19(28)26-17(9-3-6-12-23)18(27)25-16(8-2-5-11-22)14-32-20(29)30/h15-17H,1-14,21-24H2,(H,25,27)(H,26,28)(H,29,30)/t15-,16-,17+/m1/s1
> <PUBCHEM_IUPAC_INCHIKEY>
CYTHRUWJLSRQAL-ZACQAIPSSA-N
> <PUBCHEM_XLOGP3_AA>
-3.4
> <PUBCHEM_EXACT_MASS>
462.31658308
> <PUBCHEM_MOLECULAR_FORMULA>
C20H42N6O6
> <PUBCHEM_MOLECULAR_WEIGHT>
462.6
> <PUBCHEM_OPENEYE_CAN_SMILES>
C(CCN)CC(COC(=O)NC(CCCCN)C(=O)NC(CCCCN)COC(=O)O)N
> <PUBCHEM_OPENEYE_ISO_SMILES>
C(CCN)C[C@H](COC(=O)N[C@@H](CCCCN)C(=O)N[C@H](CCCCN)COC(=O)O)N
> <PUBCHEM_CACTVS_TPSA>
218
> <PUBCHEM_MONOISOTOPIC_WEIGHT>
462.31658308
> <PUBCHEM_TOTAL_CHARGE>
0
> <PUBCHEM_HEAVY_ATOM_COUNT>
32
> <PUBCHEM_ATOM_DEF_STEREO_COUNT>
3
> <PUBCHEM_ATOM_UDEF_STEREO_COUNT>
0
> <PUBCHEM_BOND_DEF_STEREO_COUNT>
0
> <PUBCHEM_BOND_UDEF_STEREO_COUNT>
0
> <PUBCHEM_ISOTOPIC_ATOM_COUNT>
0
> <PUBCHEM_COMPONENT_COUNT>
1
> <PUBCHEM_CACTVS_TAUTO_COUNT>
-1
> <PUBCHEM_COORDINATE_TYPE>
1
5
255
> <PUBCHEM_BONDANNOTATIONS>
13  7  6
15  8  6
23  9  6
$$$$
