513319
  -OEChem-10302200282D
 79 78  0     1  0  0  0  0  0999 V2000
   11.1972    1.8100    0.0000 O   0  0  0  0  0  0  0  0  0  0  0  0
    4.2690    1.8100    0.0000 O   0  0  0  0  0  0  0  0  0  0  0  0
    7.7331    0.8100    0.0000 O   0  0  0  0  0  0  0  0  0  0  0  0
   10.3312    3.3100    0.0000 O   0  0  0  0  0  0  0  0  0  0  0  0
    2.5369    1.8100    0.0000 O   0  0  0  0  0  0  0  0  0  0  0  0
    3.4030    3.3100    0.0000 O   0  0  0  0  0  0  0  0  0  0  0  0
    6.8671    2.3100    0.0000 N   0  0  0  0  0  0  0  0  0  0  0  0
    9.4651    1.8100    0.0000 N   0  0  0  0  0  0  0  0  0  0  0  0
   13.7953    2.3100    0.0000 N   0  0  0  0  0  0  0  0  0  0  0  0
    4.2690   -2.1900    0.0000 N   0  0  0  0  0  0  0  0  0  0  0  0
    6.8671   -2.6900    0.0000 N   0  0  0  0  0  0  0  0  0  0  0  0
   14.6613   -1.1900    0.0000 N   0  0  0  0  0  0  0  0  0  0  0  0
   15.5273   -2.6900    0.0000 N   0  0  0  0  0  0  0  0  0  0  0  0
   13.7953   -2.6900    0.0000 N   0  0  0  0  0  0  0  0  0  0  0  0
    6.0010    1.8100    0.0000 C   0  0  1  0  0  0  0  0  0  0  0  0
    6.0010    0.8100    0.0000 C   0  0  0  0  0  0  0  0  0  0  0  0
    5.1350    0.3100    0.0000 C   0  0  0  0  0  0  0  0  0  0  0  0
    9.4651    0.8100    0.0000 C   0  0  0  0  0  0  0  0  0  0  0  0
    5.1350   -0.6900    0.0000 C   0  0  0  0  0  0  0  0  0  0  0  0
    8.5991    0.3100    0.0000 C   0  0  0  0  0  0  0  0  0  0  0  0
    5.1350    2.3100    0.0000 C   0  0  0  0  0  0  0  0  0  0  0  0
    8.5991    2.3100    0.0000 C   0  0  0  0  0  0  0  0  0  0  0  0
    8.5991   -0.6900    0.0000 C   0  0  0  0  0  0  0  0  0  0  0  0
    7.7331    1.8100    0.0000 C   0  0  0  0  0  0  0  0  0  0  0  0
   12.9292    1.8100    0.0000 C   0  0  1  0  0  0  0  0  0  0  0  0
   12.9292    0.8100    0.0000 C   0  0  0  0  0  0  0  0  0  0  0  0
    7.7331   -1.1900    0.0000 C   0  0  0  0  0  0  0  0  0  0  0  0
    4.2690   -1.1900    0.0000 C   0  0  0  0  0  0  0  0  0  0  0  0
   12.0632    2.3100    0.0000 C   0  0  0  0  0  0  0  0  0  0  0  0
   10.3312    2.3100    0.0000 C   0  0  0  0  0  0  0  0  0  0  0  0
   13.7953    0.3100    0.0000 C   0  0  0  0  0  0  0  0  0  0  0  0
    7.7331   -2.1900    0.0000 C   0  0  0  0  0  0  0  0  0  0  0  0
   13.7953   -0.6900    0.0000 C   0  0  0  0  0  0  0  0  0  0  0  0
    3.4030    2.3100    0.0000 C   0  0  0  0  0  0  0  0  0  0  0  0
   14.6613   -2.1900    0.0000 C   0  0  0  0  0  0  0  0  0  0  0  0
    6.5380    1.5000    0.0000 H   0  0  0  0  0  0  0  0  0  0  0  0
    6.2131    0.2274    0.0000 H   0  0  0  0  0  0  0  0  0  0  0  0
    6.6116    0.9177    0.0000 H   0  0  0  0  0  0  0  0  0  0  0  0
    4.9230    0.8926    0.0000 H   0  0  0  0  0  0  0  0  0  0  0  0
    4.5244    0.2023    0.0000 H   0  0  0  0  0  0  0  0  0  0  0  0
    9.6772    0.2274    0.0000 H   0  0  0  0  0  0  0  0  0  0  0  0
   10.0757    0.9177    0.0000 H   0  0  0  0  0  0  0  0  0  0  0  0
    8.3871    0.8926    0.0000 H   0  0  0  0  0  0  0  0  0  0  0  0
    7.9885    0.2023    0.0000 H   0  0  0  0  0  0  0  0  0  0  0  0
    6.8671    2.9300    0.0000 H   0  0  0  0  0  0  0  0  0  0  0  0
    5.3471   -1.2726    0.0000 H   0  0  0  0  0  0  0  0  0  0  0  0
    5.7456   -0.5823    0.0000 H   0  0  0  0  0  0  0  0  0  0  0  0
    5.5335    2.7849    0.0000 H   0  0  0  0  0  0  0  0  0  0  0  0
    4.7365    2.7849    0.0000 H   0  0  0  0  0  0  0  0  0  0  0  0
    8.9976    2.7849    0.0000 H   0  0  0  0  0  0  0  0  0  0  0  0
    8.2006    2.7849    0.0000 H   0  0  0  0  0  0  0  0  0  0  0  0
    8.8112   -1.2726    0.0000 H   0  0  0  0  0  0  0  0  0  0  0  0
    9.2097   -0.5823    0.0000 H   0  0  0  0  0  0  0  0  0  0  0  0
   12.9292    2.4300    0.0000 H   0  0  0  0  0  0  0  0  0  0  0  0
   12.3187    0.9177    0.0000 H   0  0  0  0  0  0  0  0  0  0  0  0
   12.7172    0.2274    0.0000 H   0  0  0  0  0  0  0  0  0  0  0  0
    7.5210   -0.6074    0.0000 H   0  0  0  0  0  0  0  0  0  0  0  0
    7.1225   -1.2977    0.0000 H   0  0  0  0  0  0  0  0  0  0  0  0
    4.0569   -0.6074    0.0000 H   0  0  0  0  0  0  0  0  0  0  0  0
    3.6584   -1.2977    0.0000 H   0  0  0  0  0  0  0  0  0  0  0  0
   12.4617    2.7849    0.0000 H   0  0  0  0  0  0  0  0  0  0  0  0
   11.6647    2.7849    0.0000 H   0  0  0  0  0  0  0  0  0  0  0  0
   14.4058    0.2023    0.0000 H   0  0  0  0  0  0  0  0  0  0  0  0
   14.0073    0.8926    0.0000 H   0  0  0  0  0  0  0  0  0  0  0  0
    7.9451   -2.7726    0.0000 H   0  0  0  0  0  0  0  0  0  0  0  0
    8.3437   -2.0823    0.0000 H   0  0  0  0  0  0  0  0  0  0  0  0
   13.1847   -0.5823    0.0000 H   0  0  0  0  0  0  0  0  0  0  0  0
   13.5832   -1.2726    0.0000 H   0  0  0  0  0  0  0  0  0  0  0  0
   14.3322    2.0000    0.0000 H   0  0  0  0  0  0  0  0  0  0  0  0
   13.7953    2.9300    0.0000 H   0  0  0  0  0  0  0  0  0  0  0  0
    3.7320   -2.5000    0.0000 H   0  0  0  0  0  0  0  0  0  0  0  0
    4.8059   -2.5000    0.0000 H   0  0  0  0  0  0  0  0  0  0  0  0
    6.8671   -3.3100    0.0000 H   0  0  0  0  0  0  0  0  0  0  0  0
    6.3301   -2.3800    0.0000 H   0  0  0  0  0  0  0  0  0  0  0  0
    2.0000    2.1200    0.0000 H   0  0  0  0  0  0  0  0  0  0  0  0
   15.5273   -3.3100    0.0000 H   0  0  0  0  0  0  0  0  0  0  0  0
   16.0643   -2.3800    0.0000 H   0  0  0  0  0  0  0  0  0  0  0  0
   13.7953   -3.3100    0.0000 H   0  0  0  0  0  0  0  0  0  0  0  0
   13.2583   -2.3800    0.0000 H   0  0  0  0  0  0  0  0  0  0  0  0
  1 29  1  0  0  0  0
  1 30  1  0  0  0  0
  2 21  1  0  0  0  0
  2 34  1  0  0  0  0
  3 24  2  0  0  0  0
  4 30  2  0  0  0  0
  5 34  1  0  0  0  0
  5 75  1  0  0  0  0
  6 34  2  0  0  0  0
 15  7  1  1  0  0  0
  7 24  1  0  0  0  0
  7 45  1  0  0  0  0
  8 18  1  0  0  0  0
  8 22  1  0  0  0  0
  8 30  1  0  0  0  0
 25  9  1  1  0  0  0
  9 69  1  0  0  0  0
  9 70  1  0  0  0  0
 10 28  1  0  0  0  0
 10 71  1  0  0  0  0
 10 72  1  0  0  0  0
 11 32  1  0  0  0  0
 11 73  1  0  0  0  0
 11 74  1  0  0  0  0
 12 33  1  0  0  0  0
 12 35  2  0  0  0  0
 13 35  1  0  0  0  0
 13 76  1  0  0  0  0
 13 77  1  0  0  0  0
 14 35  1  0  0  0  0
 14 78  1  0  0  0  0
 14 79  1  0  0  0  0
 15 16  1  0  0  0  0
 15 21  1  0  0  0  0
 15 36  1  0  0  0  0
 16 17  1  0  0  0  0
 16 37  1  0  0  0  0
 16 38  1  0  0  0  0
 17 19  1  0  0  0  0
 17 39  1  0  0  0  0
 17 40  1  0  0  0  0
 18 20  1  0  0  0  0
 18 41  1  0  0  0  0
 18 42  1  0  0  0  0
 19 28  1  0  0  0  0
 19 46  1  0  0  0  0
 19 47  1  0  0  0  0
 20 23  1  0  0  0  0
 20 43  1  0  0  0  0
 20 44  1  0  0  0  0
 21 48  1  0  0  0  0
 21 49  1  0  0  0  0
 22 24  1  0  0  0  0
 22 50  1  0  0  0  0
 22 51  1  0  0  0  0
 23 27  1  0  0  0  0
 23 52  1  0  0  0  0
 23 53  1  0  0  0  0
 25 26  1  0  0  0  0
 25 29  1  0  0  0  0
 25 54  1  0  0  0  0
 26 31  1  0  0  0  0
 26 55  1  0  0  0  0
 26 56  1  0  0  0  0
 27 32  1  0  0  0  0
 27 57  1  0  0  0  0
 27 58  1  0  0  0  0
 28 59  1  0  0  0  0
 28 60  1  0  0  0  0
 29 61  1  0  0  0  0
 29 62  1  0  0  0  0
 31 33  1  0  0  0  0
 31 63  1  0  0  0  0
 31 64  1  0  0  0  0
 32 65  1  0  0  0  0
 32 66  1  0  0  0  0
 33 67  1  0  0  0  0
 33 68  1  0  0  0  0
M  END
> <PUBCHEM_COMPOUND_CID>
513319
> <PUBCHEM_COMPOUND_CANONICALIZED>
1
> <PUBCHEM_CACTVS_COMPLEXITY>
633
> <PUBCHEM_CACTVS_HBOND_ACCEPTOR>
10
> <PUBCHEM_CACTVS_HBOND_DONOR>
7
> <PUBCHEM_CACTVS_ROTATABLE_BOND>
22
> <PUBCHEM_CACTVS_SUBSKEYS>
AAADcfB7+AAAAAAAAAAAAAAAAAAAAAAAAAAAAAAAAAAAAAAAAAAAHgAQCAAACCjhgAYBCAPABgAoAAEQPAAAAAEAAAAAAICIAAASQAIAgCAdAAAEFgCUAAGQUAAAAAAAAAAAAAAAAAAAAAAAAAAAAAAAAA==
> <PUBCHEM_IUPAC_OPENEYE_NAME>
[(2S)-6-amino-2-[[2-[[(2S)-2-amino-5-guanidino-pentoxy]carbonyl-(5-aminopentyl)amino]acetyl]amino]hexyl] hydrogen carbonate
> <PUBCHEM_IUPAC_CAS_NAME>
carbonic acid [(2S)-6-amino-2-[[2-[[[(2S)-2-amino-5-(diaminomethylideneamino)pentoxy]-oxomethyl]-(5-aminopentyl)amino]-1-oxoethyl]amino]hexyl] ester
> <PUBCHEM_IUPAC_NAME_MARKUP>
[(2<I>S</I>)-6-amino-2-[[2-[[(2<I>S</I>)-2-amino-5-(diaminomethylideneamino)pentoxy]carbonyl-(5-aminopentyl)amino]acetyl]amino]hexyl] hydrogen carbonate
> <PUBCHEM_IUPAC_NAME>
[(2S)-6-amino-2-[[2-[[(2S)-2-amino-5-(diaminomethylideneamino)pentoxy]carbonyl-(5-aminopentyl)amino]acetyl]amino]hexyl] hydrogen carbonate
> <PUBCHEM_IUPAC_SYSTEMATIC_NAME>
[(2S)-6-azanyl-2-[2-[[(2S)-2-azanyl-5-[bis(azanyl)methylideneamino]pentoxy]carbonyl-(5-azanylpentyl)amino]ethanoylamino]hexyl] hydrogen carbonate
> <PUBCHEM_IUPAC_TRADITIONAL_NAME>
carbonic acid [(2S)-6-amino-2-[[2-[[(2S)-2-amino-5-guanidino-pentoxy]carbonyl-(5-aminopentyl)amino]acetyl]amino]hexyl] ester
> <PUBCHEM_IUPAC_INCHI>
InChI=1S/C21H44N8O6/c22-9-3-1-5-12-29(20(31)34-14-16(24)7-6-11-27-19(25)26)13-18(30)28-17(8-2-4-10-23)15-35-21(32)33/h16-17H,1-15,22-24H2,(H,28,30)(H,32,33)(H4,25,26,27)/t16-,17-/m0/s1
> <PUBCHEM_IUPAC_INCHIKEY>
XFBXJOXEFWYZCO-IRXDYDNUSA-N
> <PUBCHEM_XLOGP3_AA>
-4.2
> <PUBCHEM_EXACT_MASS>
504.33838115
> <PUBCHEM_MOLECULAR_FORMULA>
C21H44N8O6
> <PUBCHEM_MOLECULAR_WEIGHT>
504.6
> <PUBCHEM_OPENEYE_CAN_SMILES>
C(CCN)CCN(CC(=O)NC(CCCCN)COC(=O)O)C(=O)OCC(CCCN=C(N)N)N
> <PUBCHEM_OPENEYE_ISO_SMILES>
C(CCN)CCN(CC(=O)N[C@@H](CCCCN)COC(=O)O)C(=O)OC[C@H](CCCN=C(N)N)N
> <PUBCHEM_CACTVS_TPSA>
248
> <PUBCHEM_MONOISOTOPIC_WEIGHT>
504.33838115
> <PUBCHEM_TOTAL_CHARGE>
0
> <PUBCHEM_HEAVY_ATOM_COUNT>
35
> <PUBCHEM_ATOM_DEF_STEREO_COUNT>
2
> <PUBCHEM_ATOM_UDEF_STEREO_COUNT>
0
> <PUBCHEM_BOND_DEF_STEREO_COUNT>
0
> <PUBCHEM_BOND_UDEF_STEREO_COUNT>
0
> <PUBCHEM_ISOTOPIC_ATOM_COUNT>
0
> <PUBCHEM_COMPONENT_COUNT>
1
> <PUBCHEM_CACTVS_TAUTO_COUNT>
-1
> <PUBCHEM_COORDINATE_TYPE>
1
5
255
> <PUBCHEM_BONDANNOTATIONS>
15  7  5
25  9  5
$$$$
