513329
  -OEChem-10302200282D
 75 74  0     1  0  0  0  0  0999 V2000
    4.2690    2.5600    0.0000 O   0  0  0  0  0  0  0  0  0  0  0  0
   10.3312    4.0600    0.0000 O   0  0  0  0  0  0  0  0  0  0  0  0
    7.7331    1.5600    0.0000 O   0  0  0  0  0  0  0  0  0  0  0  0
   11.1972   -0.4400    0.0000 O   0  0  0  0  0  0  0  0  0  0  0  0
    2.5369    2.5600    0.0000 O   0  0  0  0  0  0  0  0  0  0  0  0
    3.4030    4.0600    0.0000 O   0  0  0  0  0  0  0  0  0  0  0  0
    9.4651    2.5600    0.0000 N   0  0  0  0  0  0  0  0  0  0  0  0
    6.8671    3.0600    0.0000 N   0  0  0  0  0  0  0  0  0  0  0  0
   12.0632    3.0600    0.0000 N   0  0  0  0  0  0  0  0  0  0  0  0
    3.4030    0.0600    0.0000 N   0  0  0  0  0  0  0  0  0  0  0  0
    6.0010   -3.4400    0.0000 N   0  0  0  0  0  0  0  0  0  0  0  0
   12.9292   -0.4400    0.0000 N   0  0  0  0  0  0  0  0  0  0  0  0
    8.5991    1.0600    0.0000 C   0  0  0  0  0  0  0  0  0  0  0  0
    9.4651    1.5600    0.0000 C   0  0  0  0  0  0  0  0  0  0  0  0
    6.0010    2.5600    0.0000 C   0  0  1  0  0  0  0  0  0  0  0  0
    8.5991    0.0600    0.0000 C   0  0  0  0  0  0  0  0  0  0  0  0
    6.0010    1.5600    0.0000 C   0  0  0  0  0  0  0  0  0  0  0  0
    7.7331   -0.4400    0.0000 C   0  0  0  0  0  0  0  0  0  0  0  0
    8.5991    3.0600    0.0000 C   0  0  0  0  0  0  0  0  0  0  0  0
    5.1350    1.0600    0.0000 C   0  0  0  0  0  0  0  0  0  0  0  0
    7.7331   -1.4400    0.0000 C   0  0  0  0  0  0  0  0  0  0  0  0
   11.1972    2.5600    0.0000 C   0  0  1  0  0  0  0  0  0  0  0  0
   10.3312    3.0600    0.0000 C   0  0  0  0  0  0  0  0  0  0  0  0
    5.1350    3.0600    0.0000 C   0  0  0  0  0  0  0  0  0  0  0  0
    7.7331    2.5600    0.0000 C   0  0  0  0  0  0  0  0  0  0  0  0
    5.1350    0.0600    0.0000 C   0  0  0  0  0  0  0  0  0  0  0  0
    6.8671   -1.9400    0.0000 C   0  0  0  0  0  0  0  0  0  0  0  0
   11.1972    1.5600    0.0000 C   0  0  0  0  0  0  0  0  0  0  0  0
    4.2690   -0.4400    0.0000 C   0  0  0  0  0  0  0  0  0  0  0  0
   12.0632    1.0600    0.0000 C   0  0  0  0  0  0  0  0  0  0  0  0
    6.8671   -2.9400    0.0000 C   0  0  0  0  0  0  0  0  0  0  0  0
   12.0632    0.0600    0.0000 C   0  0  0  0  0  0  0  0  0  0  0  0
    3.4030    3.0600    0.0000 C   0  0  0  0  0  0  0  0  0  0  0  0
    8.3871    1.6426    0.0000 H   0  0  0  0  0  0  0  0  0  0  0  0
    7.9885    0.9523    0.0000 H   0  0  0  0  0  0  0  0  0  0  0  0
    9.6772    0.9774    0.0000 H   0  0  0  0  0  0  0  0  0  0  0  0
   10.0757    1.6677    0.0000 H   0  0  0  0  0  0  0  0  0  0  0  0
    6.5380    2.2500    0.0000 H   0  0  0  0  0  0  0  0  0  0  0  0
    8.8112   -0.5226    0.0000 H   0  0  0  0  0  0  0  0  0  0  0  0
    9.2097    0.1677    0.0000 H   0  0  0  0  0  0  0  0  0  0  0  0
    6.2131    0.9774    0.0000 H   0  0  0  0  0  0  0  0  0  0  0  0
    6.6116    1.6677    0.0000 H   0  0  0  0  0  0  0  0  0  0  0  0
    7.5210    0.1426    0.0000 H   0  0  0  0  0  0  0  0  0  0  0  0
    7.1225   -0.5477    0.0000 H   0  0  0  0  0  0  0  0  0  0  0  0
    8.9976    3.5350    0.0000 H   0  0  0  0  0  0  0  0  0  0  0  0
    8.2006    3.5350    0.0000 H   0  0  0  0  0  0  0  0  0  0  0  0
    4.9230    1.6426    0.0000 H   0  0  0  0  0  0  0  0  0  0  0  0
    4.5244    0.9523    0.0000 H   0  0  0  0  0  0  0  0  0  0  0  0
    7.9451   -2.0226    0.0000 H   0  0  0  0  0  0  0  0  0  0  0  0
    8.3437   -1.3323    0.0000 H   0  0  0  0  0  0  0  0  0  0  0  0
   11.1972    3.1800    0.0000 H   0  0  0  0  0  0  0  0  0  0  0  0
    6.8671    3.6800    0.0000 H   0  0  0  0  0  0  0  0  0  0  0  0
    5.5335    3.5350    0.0000 H   0  0  0  0  0  0  0  0  0  0  0  0
    4.7365    3.5350    0.0000 H   0  0  0  0  0  0  0  0  0  0  0  0
    5.3471   -0.5226    0.0000 H   0  0  0  0  0  0  0  0  0  0  0  0
    5.7456    0.1677    0.0000 H   0  0  0  0  0  0  0  0  0  0  0  0
    6.6550   -1.3574    0.0000 H   0  0  0  0  0  0  0  0  0  0  0  0
    6.2565   -2.0477    0.0000 H   0  0  0  0  0  0  0  0  0  0  0  0
   10.5866    1.6677    0.0000 H   0  0  0  0  0  0  0  0  0  0  0  0
   10.9851    0.9774    0.0000 H   0  0  0  0  0  0  0  0  0  0  0  0
    3.8705   -0.9149    0.0000 H   0  0  0  0  0  0  0  0  0  0  0  0
    4.6675   -0.9149    0.0000 H   0  0  0  0  0  0  0  0  0  0  0  0
   12.6738    0.9523    0.0000 H   0  0  0  0  0  0  0  0  0  0  0  0
   12.2753    1.6426    0.0000 H   0  0  0  0  0  0  0  0  0  0  0  0
    7.0791   -3.5226    0.0000 H   0  0  0  0  0  0  0  0  0  0  0  0
    7.4776   -2.8323    0.0000 H   0  0  0  0  0  0  0  0  0  0  0  0
   12.6002    2.7500    0.0000 H   0  0  0  0  0  0  0  0  0  0  0  0
   12.0632    3.6800    0.0000 H   0  0  0  0  0  0  0  0  0  0  0  0
    2.8660   -0.2500    0.0000 H   0  0  0  0  0  0  0  0  0  0  0  0
    3.4030    0.6800    0.0000 H   0  0  0  0  0  0  0  0  0  0  0  0
    6.0010   -4.0600    0.0000 H   0  0  0  0  0  0  0  0  0  0  0  0
    5.4641   -3.1300    0.0000 H   0  0  0  0  0  0  0  0  0  0  0  0
   12.9292   -1.0600    0.0000 H   0  0  0  0  0  0  0  0  0  0  0  0
   13.4662   -0.1300    0.0000 H   0  0  0  0  0  0  0  0  0  0  0  0
    2.0000    2.8700    0.0000 H   0  0  0  0  0  0  0  0  0  0  0  0
  1 24  1  0  0  0  0
  1 33  1  0  0  0  0
  2 23  2  0  0  0  0
  3 25  2  0  0  0  0
  4 32  2  0  0  0  0
  5 33  1  0  0  0  0
  5 75  1  0  0  0  0
  6 33  2  0  0  0  0
  7 14  1  0  0  0  0
  7 19  1  0  0  0  0
  7 23  1  0  0  0  0
 15  8  1  1  0  0  0
  8 25  1  0  0  0  0
  8 52  1  0  0  0  0
 22  9  1  6  0  0  0
  9 67  1  0  0  0  0
  9 68  1  0  0  0  0
 10 29  1  0  0  0  0
 10 69  1  0  0  0  0
 10 70  1  0  0  0  0
 11 31  1  0  0  0  0
 11 71  1  0  0  0  0
 11 72  1  0  0  0  0
 12 32  1  0  0  0  0
 12 73  1  0  0  0  0
 12 74  1  0  0  0  0
 13 14  1  0  0  0  0
 13 16  1  0  0  0  0
 13 34  1  0  0  0  0
 13 35  1  0  0  0  0
 14 36  1  0  0  0  0
 14 37  1  0  0  0  0
 15 17  1  0  0  0  0
 15 24  1  0  0  0  0
 15 38  1  0  0  0  0
 16 18  1  0  0  0  0
 16 39  1  0  0  0  0
 16 40  1  0  0  0  0
 17 20  1  0  0  0  0
 17 41  1  0  0  0  0
 17 42  1  0  0  0  0
 18 21  1  0  0  0  0
 18 43  1  0  0  0  0
 18 44  1  0  0  0  0
 19 25  1  0  0  0  0
 19 45  1  0  0  0  0
 19 46  1  0  0  0  0
 20 26  1  0  0  0  0
 20 47  1  0  0  0  0
 20 48  1  0  0  0  0
 21 27  1  0  0  0  0
 21 49  1  0  0  0  0
 21 50  1  0  0  0  0
 22 23  1  0  0  0  0
 22 28  1  0  0  0  0
 22 51  1  0  0  0  0
 24 53  1  0  0  0  0
 24 54  1  0  0  0  0
 26 29  1  0  0  0  0
 26 55  1  0  0  0  0
 26 56  1  0  0  0  0
 27 31  1  0  0  0  0
 27 57  1  0  0  0  0
 27 58  1  0  0  0  0
 28 30  1  0  0  0  0
 28 59  1  0  0  0  0
 28 60  1  0  0  0  0
 29 61  1  0  0  0  0
 29 62  1  0  0  0  0
 30 32  1  0  0  0  0
 30 63  1  0  0  0  0
 30 64  1  0  0  0  0
 31 65  1  0  0  0  0
 31 66  1  0  0  0  0
M  END
> <PUBCHEM_COMPOUND_CID>
513329
> <PUBCHEM_COMPOUND_CANONICALIZED>
1
> <PUBCHEM_CACTVS_COMPLEXITY>
592
> <PUBCHEM_CACTVS_HBOND_ACCEPTOR>
9
> <PUBCHEM_CACTVS_HBOND_DONOR>
6
> <PUBCHEM_CACTVS_ROTATABLE_BOND>
21
> <PUBCHEM_CACTVS_SUBSKEYS>
AAADcfB7uAAAAAAAAAAAAAAAAAAAAAAAAAAAAAAAAAAAAAAAAAAAHgAQCAAACCjhgAYACAPABgAIAAEQGAAAAAAAAAAAAIGIAAASQBIAgCAVAAAEFgCUAAGcwwAAAAAAAAAAAAAAAAAAAAAAAAAAAAAAAA==
> <PUBCHEM_IUPAC_OPENEYE_NAME>
[(2S)-6-amino-2-[[2-[7-aminoheptyl-[(2R)-2,5-diamino-5-oxo-pentanoyl]amino]acetyl]amino]hexyl] hydrogen carbonate
> <PUBCHEM_IUPAC_CAS_NAME>
carbonic acid [(2S)-6-amino-2-[[2-[7-aminoheptyl-[(2R)-2,5-diamino-1,5-dioxopentyl]amino]-1-oxoethyl]amino]hexyl] ester
> <PUBCHEM_IUPAC_NAME_MARKUP>
[(2<I>S</I>)-6-amino-2-[[2-[7-aminoheptyl-[(2<I>R</I>)-2,5-diamino-5-oxopentanoyl]amino]acetyl]amino]hexyl] hydrogen carbonate
> <PUBCHEM_IUPAC_NAME>
[(2S)-6-amino-2-[[2-[7-aminoheptyl-[(2R)-2,5-diamino-5-oxopentanoyl]amino]acetyl]amino]hexyl] hydrogen carbonate
> <PUBCHEM_IUPAC_SYSTEMATIC_NAME>
[(2S)-6-azanyl-2-[2-[7-azanylheptyl-[(2R)-2,5-bis(azanyl)-5-oxidanylidene-pentanoyl]amino]ethanoylamino]hexyl] hydrogen carbonate
> <PUBCHEM_IUPAC_TRADITIONAL_NAME>
carbonic acid [(2S)-6-amino-2-[[2-[7-aminoheptyl-[(2R)-2,5-diamino-5-keto-pentanoyl]amino]acetyl]amino]hexyl] ester
> <PUBCHEM_IUPAC_INCHI>
InChI=1S/C21H42N6O6/c22-11-5-2-1-3-7-13-27(20(30)17(24)9-10-18(25)28)14-19(29)26-16(8-4-6-12-23)15-33-21(31)32/h16-17H,1-15,22-24H2,(H2,25,28)(H,26,29)(H,31,32)/t16-,17+/m0/s1
> <PUBCHEM_IUPAC_INCHIKEY>
HILSMZDFLCZXHZ-DLBZAZTESA-N
> <PUBCHEM_XLOGP3_AA>
-3.7
> <PUBCHEM_EXACT_MASS>
474.31658308
> <PUBCHEM_MOLECULAR_FORMULA>
C21H42N6O6
> <PUBCHEM_MOLECULAR_WEIGHT>
474.6
> <PUBCHEM_OPENEYE_CAN_SMILES>
C(CCCN)CCCN(CC(=O)NC(CCCCN)COC(=O)O)C(=O)C(CCC(=O)N)N
> <PUBCHEM_OPENEYE_ISO_SMILES>
C(CCCN)CCCN(CC(=O)N[C@@H](CCCCN)COC(=O)O)C(=O)[C@@H](CCC(=O)N)N
> <PUBCHEM_CACTVS_TPSA>
217
> <PUBCHEM_MONOISOTOPIC_WEIGHT>
474.31658308
> <PUBCHEM_TOTAL_CHARGE>
0
> <PUBCHEM_HEAVY_ATOM_COUNT>
33
> <PUBCHEM_ATOM_DEF_STEREO_COUNT>
2
> <PUBCHEM_ATOM_UDEF_STEREO_COUNT>
0
> <PUBCHEM_BOND_DEF_STEREO_COUNT>
0
> <PUBCHEM_BOND_UDEF_STEREO_COUNT>
0
> <PUBCHEM_ISOTOPIC_ATOM_COUNT>
0
> <PUBCHEM_COMPONENT_COUNT>
1
> <PUBCHEM_CACTVS_TAUTO_COUNT>
-1
> <PUBCHEM_COORDINATE_TYPE>
1
5
255
> <PUBCHEM_BONDANNOTATIONS>
15  8  5
22  9  6
$$$$
