513304
  -OEChem-10302200282D
 74 73  0     1  0  0  0  0  0999 V2000
   11.1972    1.4050    0.0000 O   0  0  0  0  0  0  0  0  0  0  0  0
    4.2690    1.4050    0.0000 O   0  0  0  0  0  0  0  0  0  0  0  0
    7.7331    0.4050    0.0000 O   0  0  0  0  0  0  0  0  0  0  0  0
   10.3312    2.9050    0.0000 O   0  0  0  0  0  0  0  0  0  0  0  0
    2.5369    1.4050    0.0000 O   0  0  0  0  0  0  0  0  0  0  0  0
    3.4030    2.9050    0.0000 O   0  0  0  0  0  0  0  0  0  0  0  0
    6.8671    1.9050    0.0000 N   0  0  0  0  0  0  0  0  0  0  0  0
    9.4651    1.4050    0.0000 N   0  0  0  0  0  0  0  0  0  0  0  0
   13.7953    1.9050    0.0000 N   0  0  0  0  0  0  0  0  0  0  0  0
    4.2690   -2.5950    0.0000 N   0  0  0  0  0  0  0  0  0  0  0  0
   14.6613   -2.5950    0.0000 N   0  0  0  0  0  0  0  0  0  0  0  0
    7.7331   -2.5950    0.0000 N   0  0  0  0  0  0  0  0  0  0  0  0
    6.0010    1.4050    0.0000 C   0  0  1  0  0  0  0  0  0  0  0  0
    6.0010    0.4050    0.0000 C   0  0  0  0  0  0  0  0  0  0  0  0
    5.1350   -0.0950    0.0000 C   0  0  0  0  0  0  0  0  0  0  0  0
   12.9292    1.4050    0.0000 C   0  0  2  0  0  0  0  0  0  0  0  0
   12.9292    0.4050    0.0000 C   0  0  0  0  0  0  0  0  0  0  0  0
    5.1350   -1.0950    0.0000 C   0  0  0  0  0  0  0  0  0  0  0  0
    5.1350    1.9050    0.0000 C   0  0  0  0  0  0  0  0  0  0  0  0
   13.7953   -0.0950    0.0000 C   0  0  0  0  0  0  0  0  0  0  0  0
    9.4651    0.4050    0.0000 C   0  0  0  0  0  0  0  0  0  0  0  0
    8.5991    1.9050    0.0000 C   0  0  0  0  0  0  0  0  0  0  0  0
   12.0632    1.9050    0.0000 C   0  0  0  0  0  0  0  0  0  0  0  0
    8.5991   -0.0950    0.0000 C   0  0  0  0  0  0  0  0  0  0  0  0
    7.7331    1.4050    0.0000 C   0  0  0  0  0  0  0  0  0  0  0  0
   13.7953   -1.0950    0.0000 C   0  0  0  0  0  0  0  0  0  0  0  0
    4.2690   -1.5950    0.0000 C   0  0  0  0  0  0  0  0  0  0  0  0
    8.5991   -1.0950    0.0000 C   0  0  0  0  0  0  0  0  0  0  0  0
   10.3312    1.9050    0.0000 C   0  0  0  0  0  0  0  0  0  0  0  0
   14.6613   -1.5950    0.0000 C   0  0  0  0  0  0  0  0  0  0  0  0
    7.7331   -1.5950    0.0000 C   0  0  0  0  0  0  0  0  0  0  0  0
    3.4030    1.9050    0.0000 C   0  0  0  0  0  0  0  0  0  0  0  0
    6.5380    1.0950    0.0000 H   0  0  0  0  0  0  0  0  0  0  0  0
    6.2131   -0.1776    0.0000 H   0  0  0  0  0  0  0  0  0  0  0  0
    6.6116    0.5127    0.0000 H   0  0  0  0  0  0  0  0  0  0  0  0
    4.9230    0.4876    0.0000 H   0  0  0  0  0  0  0  0  0  0  0  0
    4.5244   -0.2027    0.0000 H   0  0  0  0  0  0  0  0  0  0  0  0
   12.9292    2.0250    0.0000 H   0  0  0  0  0  0  0  0  0  0  0  0
   12.3187    0.5127    0.0000 H   0  0  0  0  0  0  0  0  0  0  0  0
   12.7172   -0.1776    0.0000 H   0  0  0  0  0  0  0  0  0  0  0  0
    5.3471   -1.6776    0.0000 H   0  0  0  0  0  0  0  0  0  0  0  0
    5.7456   -0.9873    0.0000 H   0  0  0  0  0  0  0  0  0  0  0  0
    5.5335    2.3800    0.0000 H   0  0  0  0  0  0  0  0  0  0  0  0
    4.7365    2.3800    0.0000 H   0  0  0  0  0  0  0  0  0  0  0  0
    6.8671    2.5250    0.0000 H   0  0  0  0  0  0  0  0  0  0  0  0
   14.4058   -0.2027    0.0000 H   0  0  0  0  0  0  0  0  0  0  0  0
   14.0073    0.4876    0.0000 H   0  0  0  0  0  0  0  0  0  0  0  0
    9.6772   -0.1776    0.0000 H   0  0  0  0  0  0  0  0  0  0  0  0
   10.0757    0.5127    0.0000 H   0  0  0  0  0  0  0  0  0  0  0  0
    8.9976    2.3800    0.0000 H   0  0  0  0  0  0  0  0  0  0  0  0
    8.2006    2.3800    0.0000 H   0  0  0  0  0  0  0  0  0  0  0  0
   12.4617    2.3800    0.0000 H   0  0  0  0  0  0  0  0  0  0  0  0
   11.6647    2.3800    0.0000 H   0  0  0  0  0  0  0  0  0  0  0  0
    8.3871    0.4876    0.0000 H   0  0  0  0  0  0  0  0  0  0  0  0
    7.9885   -0.2027    0.0000 H   0  0  0  0  0  0  0  0  0  0  0  0
   13.1847   -0.9873    0.0000 H   0  0  0  0  0  0  0  0  0  0  0  0
   13.5832   -1.6776    0.0000 H   0  0  0  0  0  0  0  0  0  0  0  0
    4.0569   -1.0124    0.0000 H   0  0  0  0  0  0  0  0  0  0  0  0
    3.6584   -1.7027    0.0000 H   0  0  0  0  0  0  0  0  0  0  0  0
    8.8112   -1.6776    0.0000 H   0  0  0  0  0  0  0  0  0  0  0  0
    9.2097   -0.9873    0.0000 H   0  0  0  0  0  0  0  0  0  0  0  0
   15.2719   -1.7027    0.0000 H   0  0  0  0  0  0  0  0  0  0  0  0
   14.8733   -1.0124    0.0000 H   0  0  0  0  0  0  0  0  0  0  0  0
   14.3322    1.5950    0.0000 H   0  0  0  0  0  0  0  0  0  0  0  0
   13.7953    2.5250    0.0000 H   0  0  0  0  0  0  0  0  0  0  0  0
    7.5210   -1.0124    0.0000 H   0  0  0  0  0  0  0  0  0  0  0  0
    7.1225   -1.7027    0.0000 H   0  0  0  0  0  0  0  0  0  0  0  0
    3.7320   -2.9050    0.0000 H   0  0  0  0  0  0  0  0  0  0  0  0
    4.8059   -2.9050    0.0000 H   0  0  0  0  0  0  0  0  0  0  0  0
   15.1982   -2.9050    0.0000 H   0  0  0  0  0  0  0  0  0  0  0  0
   14.1244   -2.9050    0.0000 H   0  0  0  0  0  0  0  0  0  0  0  0
    7.1962   -2.9050    0.0000 H   0  0  0  0  0  0  0  0  0  0  0  0
    8.2700   -2.9050    0.0000 H   0  0  0  0  0  0  0  0  0  0  0  0
    2.0000    1.7150    0.0000 H   0  0  0  0  0  0  0  0  0  0  0  0
  1 23  1  0  0  0  0
  1 29  1  0  0  0  0
  2 19  1  0  0  0  0
  2 32  1  0  0  0  0
  3 25  2  0  0  0  0
  4 29  2  0  0  0  0
  5 32  1  0  0  0  0
  5 74  1  0  0  0  0
  6 32  2  0  0  0  0
 13  7  1  1  0  0  0
  7 25  1  0  0  0  0
  7 45  1  0  0  0  0
  8 21  1  0  0  0  0
  8 22  1  0  0  0  0
  8 29  1  0  0  0  0
 16  9  1  6  0  0  0
  9 64  1  0  0  0  0
  9 65  1  0  0  0  0
 10 27  1  0  0  0  0
 10 68  1  0  0  0  0
 10 69  1  0  0  0  0
 11 30  1  0  0  0  0
 11 70  1  0  0  0  0
 11 71  1  0  0  0  0
 12 31  1  0  0  0  0
 12 72  1  0  0  0  0
 12 73  1  0  0  0  0
 13 14  1  0  0  0  0
 13 19  1  0  0  0  0
 13 33  1  0  0  0  0
 14 15  1  0  0  0  0
 14 34  1  0  0  0  0
 14 35  1  0  0  0  0
 15 18  1  0  0  0  0
 15 36  1  0  0  0  0
 15 37  1  0  0  0  0
 16 17  1  0  0  0  0
 16 23  1  0  0  0  0
 16 38  1  0  0  0  0
 17 20  1  0  0  0  0
 17 39  1  0  0  0  0
 17 40  1  0  0  0  0
 18 27  1  0  0  0  0
 18 41  1  0  0  0  0
 18 42  1  0  0  0  0
 19 43  1  0  0  0  0
 19 44  1  0  0  0  0
 20 26  1  0  0  0  0
 20 46  1  0  0  0  0
 20 47  1  0  0  0  0
 21 24  1  0  0  0  0
 21 48  1  0  0  0  0
 21 49  1  0  0  0  0
 22 25  1  0  0  0  0
 22 50  1  0  0  0  0
 22 51  1  0  0  0  0
 23 52  1  0  0  0  0
 23 53  1  0  0  0  0
 24 28  1  0  0  0  0
 24 54  1  0  0  0  0
 24 55  1  0  0  0  0
 26 30  1  0  0  0  0
 26 56  1  0  0  0  0
 26 57  1  0  0  0  0
 27 58  1  0  0  0  0
 27 59  1  0  0  0  0
 28 31  1  0  0  0  0
 28 60  1  0  0  0  0
 28 61  1  0  0  0  0
 30 62  1  0  0  0  0
 30 63  1  0  0  0  0
 31 66  1  0  0  0  0
 31 67  1  0  0  0  0
M  END
> <PUBCHEM_COMPOUND_CID>
513304
> <PUBCHEM_COMPOUND_CANONICALIZED>
1
> <PUBCHEM_CACTVS_COMPLEXITY>
525
> <PUBCHEM_CACTVS_HBOND_ACCEPTOR>
10
> <PUBCHEM_CACTVS_HBOND_DONOR>
6
> <PUBCHEM_CACTVS_ROTATABLE_BOND>
21
> <PUBCHEM_CACTVS_SUBSKEYS>
AAADcfB7uAAAAAAAAAAAAAAAAAAAAAAAAAAAAAAAAAAAAAAAAAAAHgAQCAAACCjhgAYACAPABgAIAAEQGAAAAAAAAAAAAICIAAASQAIAgCAdAAAEFgCUAAGQQAAAAAAAAAAAAAAAAAAAAAAAAAAAAAAAAA==
> <PUBCHEM_IUPAC_OPENEYE_NAME>
[(2S)-6-amino-2-[[2-[4-aminobutyl-[(2R)-2,6-diaminohexoxy]carbonyl-amino]acetyl]amino]hexyl] hydrogen carbonate
> <PUBCHEM_IUPAC_CAS_NAME>
carbonic acid [(2S)-6-amino-2-[[2-[4-aminobutyl-[[(2R)-2,6-diaminohexoxy]-oxomethyl]amino]-1-oxoethyl]amino]hexyl] ester
> <PUBCHEM_IUPAC_NAME_MARKUP>
[(2<I>S</I>)-6-amino-2-[[2-[4-aminobutyl-[(2<I>R</I>)-2,6-diaminohexoxy]carbonylamino]acetyl]amino]hexyl] hydrogen carbonate
> <PUBCHEM_IUPAC_NAME>
[(2S)-6-amino-2-[[2-[4-aminobutyl-[(2R)-2,6-diaminohexoxy]carbonylamino]acetyl]amino]hexyl] hydrogen carbonate
> <PUBCHEM_IUPAC_SYSTEMATIC_NAME>
[(2S)-6-azanyl-2-[2-[4-azanylbutyl-[(2R)-2,6-bis(azanyl)hexoxy]carbonyl-amino]ethanoylamino]hexyl] hydrogen carbonate
> <PUBCHEM_IUPAC_TRADITIONAL_NAME>
carbonic acid [(2S)-6-amino-2-[[2-[4-aminobutyl-[(2R)-2,6-diaminohexoxy]carbonyl-amino]acetyl]amino]hexyl] ester
> <PUBCHEM_IUPAC_INCHI>
InChI=1S/C20H42N6O6/c21-9-3-1-7-16(24)14-31-19(28)26(12-6-5-11-23)13-18(27)25-17(8-2-4-10-22)15-32-20(29)30/h16-17H,1-15,21-24H2,(H,25,27)(H,29,30)/t16-,17+/m1/s1
> <PUBCHEM_IUPAC_INCHIKEY>
ANWJCGBBVSZZAU-SJORKVTESA-N
> <PUBCHEM_XLOGP3_AA>
-3.6
> <PUBCHEM_EXACT_MASS>
462.31658308
> <PUBCHEM_MOLECULAR_FORMULA>
C20H42N6O6
> <PUBCHEM_MOLECULAR_WEIGHT>
462.6
> <PUBCHEM_OPENEYE_CAN_SMILES>
C(CCN)CC(COC(=O)N(CCCCN)CC(=O)NC(CCCCN)COC(=O)O)N
> <PUBCHEM_OPENEYE_ISO_SMILES>
C(CCN)C[C@H](COC(=O)N(CCCCN)CC(=O)N[C@@H](CCCCN)COC(=O)O)N
> <PUBCHEM_CACTVS_TPSA>
209
> <PUBCHEM_MONOISOTOPIC_WEIGHT>
462.31658308
> <PUBCHEM_TOTAL_CHARGE>
0
> <PUBCHEM_HEAVY_ATOM_COUNT>
32
> <PUBCHEM_ATOM_DEF_STEREO_COUNT>
2
> <PUBCHEM_ATOM_UDEF_STEREO_COUNT>
0
> <PUBCHEM_BOND_DEF_STEREO_COUNT>
0
> <PUBCHEM_BOND_UDEF_STEREO_COUNT>
0
> <PUBCHEM_ISOTOPIC_ATOM_COUNT>
0
> <PUBCHEM_COMPONENT_COUNT>
1
> <PUBCHEM_CACTVS_TAUTO_COUNT>
-1
> <PUBCHEM_COORDINATE_TYPE>
1
5
255
> <PUBCHEM_BONDANNOTATIONS>
13  7  5
16  9  6
$$$$
