513354
  -OEChem-10302200282D
 70 69  0     1  0  0  0  0  0999 V2000
    4.2690    1.4050    0.0000 O   0  0  0  0  0  0  0  0  0  0  0  0
    7.7331    0.4050    0.0000 O   0  0  0  0  0  0  0  0  0  0  0  0
   10.3312    2.9050    0.0000 O   0  0  0  0  0  0  0  0  0  0  0  0
    2.5369    1.4050    0.0000 O   0  0  0  0  0  0  0  0  0  0  0  0
    3.4030    2.9050    0.0000 O   0  0  0  0  0  0  0  0  0  0  0  0
    6.8671    1.9050    0.0000 N   0  0  0  0  0  0  0  0  0  0  0  0
    9.4651    1.4050    0.0000 N   0  0  0  0  0  0  0  0  0  0  0  0
   12.0632    1.9050    0.0000 N   0  0  0  0  0  0  0  0  0  0  0  0
    4.2690   -2.5950    0.0000 N   0  0  0  0  0  0  0  0  0  0  0  0
    7.7331   -2.5950    0.0000 N   0  0  0  0  0  0  0  0  0  0  0  0
   16.3933    1.4050    0.0000 N   0  0  0  0  0  0  0  0  0  0  0  0
    6.0010    1.4050    0.0000 C   0  0  2  0  0  0  0  0  0  0  0  0
    6.0010    0.4050    0.0000 C   0  0  0  0  0  0  0  0  0  0  0  0
    5.1350   -0.0950    0.0000 C   0  0  0  0  0  0  0  0  0  0  0  0
    5.1350    1.9050    0.0000 C   0  0  0  0  0  0  0  0  0  0  0  0
    5.1350   -1.0950    0.0000 C   0  0  0  0  0  0  0  0  0  0  0  0
    9.4651    0.4050    0.0000 C   0  0  0  0  0  0  0  0  0  0  0  0
    8.5991    1.9050    0.0000 C   0  0  0  0  0  0  0  0  0  0  0  0
    8.5991   -0.0950    0.0000 C   0  0  0  0  0  0  0  0  0  0  0  0
    7.7331    1.4050    0.0000 C   0  0  0  0  0  0  0  0  0  0  0  0
    8.5991   -1.0950    0.0000 C   0  0  0  0  0  0  0  0  0  0  0  0
   10.3312    1.9050    0.0000 C   0  0  0  0  0  0  0  0  0  0  0  0
    4.2690   -1.5950    0.0000 C   0  0  0  0  0  0  0  0  0  0  0  0
   11.1972    1.4050    0.0000 C   0  0  0  0  0  0  0  0  0  0  0  0
   12.9292    1.4050    0.0000 C   0  0  0  0  0  0  0  0  0  0  0  0
   13.7953    1.9050    0.0000 C   0  0  0  0  0  0  0  0  0  0  0  0
    7.7331   -1.5950    0.0000 C   0  0  0  0  0  0  0  0  0  0  0  0
   14.6613    1.4050    0.0000 C   0  0  0  0  0  0  0  0  0  0  0  0
   15.5273    1.9050    0.0000 C   0  0  0  0  0  0  0  0  0  0  0  0
    3.4030    1.9050    0.0000 C   0  0  0  0  0  0  0  0  0  0  0  0
    6.5380    1.0950    0.0000 H   0  0  0  0  0  0  0  0  0  0  0  0
    6.2131   -0.1776    0.0000 H   0  0  0  0  0  0  0  0  0  0  0  0
    6.6116    0.5127    0.0000 H   0  0  0  0  0  0  0  0  0  0  0  0
    4.9230    0.4876    0.0000 H   0  0  0  0  0  0  0  0  0  0  0  0
    4.5244   -0.2027    0.0000 H   0  0  0  0  0  0  0  0  0  0  0  0
    6.8671    2.5250    0.0000 H   0  0  0  0  0  0  0  0  0  0  0  0
    5.5335    2.3800    0.0000 H   0  0  0  0  0  0  0  0  0  0  0  0
    4.7365    2.3800    0.0000 H   0  0  0  0  0  0  0  0  0  0  0  0
    5.3471   -1.6776    0.0000 H   0  0  0  0  0  0  0  0  0  0  0  0
    5.7456   -0.9873    0.0000 H   0  0  0  0  0  0  0  0  0  0  0  0
    9.6772   -0.1776    0.0000 H   0  0  0  0  0  0  0  0  0  0  0  0
   10.0757    0.5127    0.0000 H   0  0  0  0  0  0  0  0  0  0  0  0
    8.9976    2.3800    0.0000 H   0  0  0  0  0  0  0  0  0  0  0  0
    8.2006    2.3800    0.0000 H   0  0  0  0  0  0  0  0  0  0  0  0
    8.3871    0.4876    0.0000 H   0  0  0  0  0  0  0  0  0  0  0  0
    7.9885   -0.2027    0.0000 H   0  0  0  0  0  0  0  0  0  0  0  0
    8.8112   -1.6776    0.0000 H   0  0  0  0  0  0  0  0  0  0  0  0
    9.2097   -0.9873    0.0000 H   0  0  0  0  0  0  0  0  0  0  0  0
    4.0569   -1.0124    0.0000 H   0  0  0  0  0  0  0  0  0  0  0  0
    3.6584   -1.7027    0.0000 H   0  0  0  0  0  0  0  0  0  0  0  0
   10.7987    0.9301    0.0000 H   0  0  0  0  0  0  0  0  0  0  0  0
   11.5957    0.9301    0.0000 H   0  0  0  0  0  0  0  0  0  0  0  0
   12.5307    0.9301    0.0000 H   0  0  0  0  0  0  0  0  0  0  0  0
   13.3278    0.9301    0.0000 H   0  0  0  0  0  0  0  0  0  0  0  0
   14.1938    2.3800    0.0000 H   0  0  0  0  0  0  0  0  0  0  0  0
   13.3967    2.3800    0.0000 H   0  0  0  0  0  0  0  0  0  0  0  0
   12.0632    2.5250    0.0000 H   0  0  0  0  0  0  0  0  0  0  0  0
    7.5210   -1.0124    0.0000 H   0  0  0  0  0  0  0  0  0  0  0  0
    7.1225   -1.7027    0.0000 H   0  0  0  0  0  0  0  0  0  0  0  0
   14.2628    0.9301    0.0000 H   0  0  0  0  0  0  0  0  0  0  0  0
   15.0598    0.9301    0.0000 H   0  0  0  0  0  0  0  0  0  0  0  0
    3.7320   -2.9050    0.0000 H   0  0  0  0  0  0  0  0  0  0  0  0
    4.8059   -2.9050    0.0000 H   0  0  0  0  0  0  0  0  0  0  0  0
   15.9258    2.3800    0.0000 H   0  0  0  0  0  0  0  0  0  0  0  0
   15.1288    2.3800    0.0000 H   0  0  0  0  0  0  0  0  0  0  0  0
    7.1962   -2.9050    0.0000 H   0  0  0  0  0  0  0  0  0  0  0  0
    8.2700   -2.9050    0.0000 H   0  0  0  0  0  0  0  0  0  0  0  0
   16.9303    1.7150    0.0000 H   0  0  0  0  0  0  0  0  0  0  0  0
   16.3933    0.7850    0.0000 H   0  0  0  0  0  0  0  0  0  0  0  0
    2.0000    1.7150    0.0000 H   0  0  0  0  0  0  0  0  0  0  0  0
  1 15  1  0  0  0  0
  1 30  1  0  0  0  0
  2 20  2  0  0  0  0
  3 22  2  0  0  0  0
  4 30  1  0  0  0  0
  4 70  1  0  0  0  0
  5 30  2  0  0  0  0
 12  6  1  6  0  0  0
  6 20  1  0  0  0  0
  6 36  1  0  0  0  0
  7 17  1  0  0  0  0
  7 18  1  0  0  0  0
  7 22  1  0  0  0  0
  8 24  1  0  0  0  0
  8 25  1  0  0  0  0
  8 57  1  0  0  0  0
  9 23  1  0  0  0  0
  9 62  1  0  0  0  0
  9 63  1  0  0  0  0
 10 27  1  0  0  0  0
 10 66  1  0  0  0  0
 10 67  1  0  0  0  0
 11 29  1  0  0  0  0
 11 68  1  0  0  0  0
 11 69  1  0  0  0  0
 12 13  1  0  0  0  0
 12 15  1  0  0  0  0
 12 31  1  0  0  0  0
 13 14  1  0  0  0  0
 13 32  1  0  0  0  0
 13 33  1  0  0  0  0
 14 16  1  0  0  0  0
 14 34  1  0  0  0  0
 14 35  1  0  0  0  0
 15 37  1  0  0  0  0
 15 38  1  0  0  0  0
 16 23  1  0  0  0  0
 16 39  1  0  0  0  0
 16 40  1  0  0  0  0
 17 19  1  0  0  0  0
 17 41  1  0  0  0  0
 17 42  1  0  0  0  0
 18 20  1  0  0  0  0
 18 43  1  0  0  0  0
 18 44  1  0  0  0  0
 19 21  1  0  0  0  0
 19 45  1  0  0  0  0
 19 46  1  0  0  0  0
 21 27  1  0  0  0  0
 21 47  1  0  0  0  0
 21 48  1  0  0  0  0
 22 24  1  0  0  0  0
 23 49  1  0  0  0  0
 23 50  1  0  0  0  0
 24 51  1  0  0  0  0
 24 52  1  0  0  0  0
 25 26  1  0  0  0  0
 25 53  1  0  0  0  0
 25 54  1  0  0  0  0
 26 28  1  0  0  0  0
 26 55  1  0  0  0  0
 26 56  1  0  0  0  0
 27 58  1  0  0  0  0
 27 59  1  0  0  0  0
 28 29  1  0  0  0  0
 28 60  1  0  0  0  0
 28 61  1  0  0  0  0
 29 64  1  0  0  0  0
 29 65  1  0  0  0  0
M  END
> <PUBCHEM_COMPOUND_CID>
513354
> <PUBCHEM_COMPOUND_CANONICALIZED>
1
> <PUBCHEM_CACTVS_COMPLEXITY>
480
> <PUBCHEM_CACTVS_HBOND_ACCEPTOR>
9
> <PUBCHEM_CACTVS_HBOND_DONOR>
6
> <PUBCHEM_CACTVS_ROTATABLE_BOND>
20
> <PUBCHEM_CACTVS_SUBSKEYS>
AAADcfB7uAAAAAAAAAAAAAAAAAAAAAAAAAAAAAAAAAAAAAAAAAAAHgAQCAAACCjhgAYACAPABgAIAAEQGAAAAAAAAAAAAICIAAASQAIAgCAVAAAEFgCUAAGQQAAAAAAAAAAAAAAAAAAAAAAAAAAAAAAAAA==
> <PUBCHEM_IUPAC_OPENEYE_NAME>
[(2R)-6-amino-2-[[2-[4-aminobutyl-[2-(4-aminobutylamino)acetyl]amino]acetyl]amino]hexyl] hydrogen carbonate
> <PUBCHEM_IUPAC_CAS_NAME>
carbonic acid [(2R)-6-amino-2-[[2-[4-aminobutyl-[2-(4-aminobutylamino)-1-oxoethyl]amino]-1-oxoethyl]amino]hexyl] ester
> <PUBCHEM_IUPAC_NAME_MARKUP>
[(2<I>R</I>)-6-amino-2-[[2-[4-aminobutyl-[2-(4-aminobutylamino)acetyl]amino]acetyl]amino]hexyl] hydrogen carbonate
> <PUBCHEM_IUPAC_NAME>
[(2R)-6-amino-2-[[2-[4-aminobutyl-[2-(4-aminobutylamino)acetyl]amino]acetyl]amino]hexyl] hydrogen carbonate
> <PUBCHEM_IUPAC_SYSTEMATIC_NAME>
[(2R)-6-azanyl-2-[2-[4-azanylbutyl-[2-(4-azanylbutylamino)ethanoyl]amino]ethanoylamino]hexyl] hydrogen carbonate
> <PUBCHEM_IUPAC_TRADITIONAL_NAME>
carbonic acid [(2R)-6-amino-2-[[2-[4-aminobutyl-[2-(4-aminobutylamino)acetyl]amino]acetyl]amino]hexyl] ester
> <PUBCHEM_IUPAC_INCHI>
InChI=1S/C19H40N6O5/c20-8-2-1-7-16(15-30-19(28)29)24-17(26)14-25(12-6-4-10-22)18(27)13-23-11-5-3-9-21/h16,23H,1-15,20-22H2,(H,24,26)(H,28,29)/t16-/m1/s1
> <PUBCHEM_IUPAC_INCHIKEY>
VSUHRFHOWIJLDC-MRXNPFEDSA-N
> <PUBCHEM_XLOGP3_AA>
-3.9
> <PUBCHEM_EXACT_MASS>
432.30601840
> <PUBCHEM_MOLECULAR_FORMULA>
C19H40N6O5
> <PUBCHEM_MOLECULAR_WEIGHT>
432.6
> <PUBCHEM_OPENEYE_CAN_SMILES>
C(CCN)CC(COC(=O)O)NC(=O)CN(CCCCN)C(=O)CNCCCCN
> <PUBCHEM_OPENEYE_ISO_SMILES>
C(CCN)C[C@H](COC(=O)O)NC(=O)CN(CCCCN)C(=O)CNCCCCN
> <PUBCHEM_CACTVS_TPSA>
186
> <PUBCHEM_MONOISOTOPIC_WEIGHT>
432.30601840
> <PUBCHEM_TOTAL_CHARGE>
0
> <PUBCHEM_HEAVY_ATOM_COUNT>
30
> <PUBCHEM_ATOM_DEF_STEREO_COUNT>
1
> <PUBCHEM_ATOM_UDEF_STEREO_COUNT>
0
> <PUBCHEM_BOND_DEF_STEREO_COUNT>
0
> <PUBCHEM_BOND_UDEF_STEREO_COUNT>
0
> <PUBCHEM_ISOTOPIC_ATOM_COUNT>
0
> <PUBCHEM_COMPONENT_COUNT>
1
> <PUBCHEM_CACTVS_TAUTO_COUNT>
-1
> <PUBCHEM_COORDINATE_TYPE>
1
5
255
> <PUBCHEM_BONDANNOTATIONS>
12  6  6
$$$$
