513353
  -OEChem-10302200282D
 79 78  0     1  0  0  0  0  0999 V2000
    4.2690    1.4050    0.0000 O   0  0  0  0  0  0  0  0  0  0  0  0
    7.7331    0.4050    0.0000 O   0  0  0  0  0  0  0  0  0  0  0  0
   10.3312    2.9050    0.0000 O   0  0  0  0  0  0  0  0  0  0  0  0
    2.5369    1.4050    0.0000 O   0  0  0  0  0  0  0  0  0  0  0  0
    3.4030    2.9050    0.0000 O   0  0  0  0  0  0  0  0  0  0  0  0
    9.4651    1.4050    0.0000 N   0  0  0  0  0  0  0  0  0  0  0  0
    6.8671    1.9050    0.0000 N   0  0  0  0  0  0  0  0  0  0  0  0
   12.0632    1.9050    0.0000 N   0  0  0  0  0  0  0  0  0  0  0  0
    4.2690   -2.5950    0.0000 N   0  0  0  0  0  0  0  0  0  0  0  0
   18.9914    1.9050    0.0000 N   0  0  0  0  0  0  0  0  0  0  0  0
    7.7331   -2.5950    0.0000 N   0  0  0  0  0  0  0  0  0  0  0  0
    6.0010    1.4050    0.0000 C   0  0  2  0  0  0  0  0  0  0  0  0
    6.0010    0.4050    0.0000 C   0  0  0  0  0  0  0  0  0  0  0  0
    5.1350   -0.0950    0.0000 C   0  0  0  0  0  0  0  0  0  0  0  0
   14.6613    1.4050    0.0000 C   0  0  0  0  0  0  0  0  0  0  0  0
   15.5273    1.9050    0.0000 C   0  0  0  0  0  0  0  0  0  0  0  0
   13.7953    1.9050    0.0000 C   0  0  0  0  0  0  0  0  0  0  0  0
    9.4651    0.4050    0.0000 C   0  0  0  0  0  0  0  0  0  0  0  0
    5.1350    1.9050    0.0000 C   0  0  0  0  0  0  0  0  0  0  0  0
    5.1350   -1.0950    0.0000 C   0  0  0  0  0  0  0  0  0  0  0  0
    8.5991    1.9050    0.0000 C   0  0  0  0  0  0  0  0  0  0  0  0
   16.3933    1.4050    0.0000 C   0  0  0  0  0  0  0  0  0  0  0  0
    8.5991   -0.0950    0.0000 C   0  0  0  0  0  0  0  0  0  0  0  0
   12.9292    1.4050    0.0000 C   0  0  0  0  0  0  0  0  0  0  0  0
    7.7331    1.4050    0.0000 C   0  0  0  0  0  0  0  0  0  0  0  0
   10.3312    1.9050    0.0000 C   0  0  0  0  0  0  0  0  0  0  0  0
   11.1972    1.4050    0.0000 C   0  0  0  0  0  0  0  0  0  0  0  0
   17.2594    1.9050    0.0000 C   0  0  0  0  0  0  0  0  0  0  0  0
    8.5991   -1.0950    0.0000 C   0  0  0  0  0  0  0  0  0  0  0  0
    4.2690   -1.5950    0.0000 C   0  0  0  0  0  0  0  0  0  0  0  0
   18.1254    1.4050    0.0000 C   0  0  0  0  0  0  0  0  0  0  0  0
    7.7331   -1.5950    0.0000 C   0  0  0  0  0  0  0  0  0  0  0  0
    3.4030    1.9050    0.0000 C   0  0  0  0  0  0  0  0  0  0  0  0
    6.5380    1.0950    0.0000 H   0  0  0  0  0  0  0  0  0  0  0  0
    6.2131   -0.1776    0.0000 H   0  0  0  0  0  0  0  0  0  0  0  0
    6.6116    0.5127    0.0000 H   0  0  0  0  0  0  0  0  0  0  0  0
    4.9230    0.4876    0.0000 H   0  0  0  0  0  0  0  0  0  0  0  0
    4.5244   -0.2027    0.0000 H   0  0  0  0  0  0  0  0  0  0  0  0
   14.2628    0.9301    0.0000 H   0  0  0  0  0  0  0  0  0  0  0  0
   15.0598    0.9301    0.0000 H   0  0  0  0  0  0  0  0  0  0  0  0
   15.9258    2.3800    0.0000 H   0  0  0  0  0  0  0  0  0  0  0  0
   15.1288    2.3800    0.0000 H   0  0  0  0  0  0  0  0  0  0  0  0
   14.1938    2.3800    0.0000 H   0  0  0  0  0  0  0  0  0  0  0  0
   13.3967    2.3800    0.0000 H   0  0  0  0  0  0  0  0  0  0  0  0
    6.8671    2.5250    0.0000 H   0  0  0  0  0  0  0  0  0  0  0  0
    9.6772   -0.1776    0.0000 H   0  0  0  0  0  0  0  0  0  0  0  0
   10.0757    0.5127    0.0000 H   0  0  0  0  0  0  0  0  0  0  0  0
    5.5335    2.3800    0.0000 H   0  0  0  0  0  0  0  0  0  0  0  0
    4.7365    2.3800    0.0000 H   0  0  0  0  0  0  0  0  0  0  0  0
    5.3471   -1.6776    0.0000 H   0  0  0  0  0  0  0  0  0  0  0  0
    5.7456   -0.9873    0.0000 H   0  0  0  0  0  0  0  0  0  0  0  0
    8.9976    2.3800    0.0000 H   0  0  0  0  0  0  0  0  0  0  0  0
    8.2006    2.3800    0.0000 H   0  0  0  0  0  0  0  0  0  0  0  0
   15.9948    0.9301    0.0000 H   0  0  0  0  0  0  0  0  0  0  0  0
   16.7919    0.9301    0.0000 H   0  0  0  0  0  0  0  0  0  0  0  0
    8.3871    0.4876    0.0000 H   0  0  0  0  0  0  0  0  0  0  0  0
    7.9885   -0.2027    0.0000 H   0  0  0  0  0  0  0  0  0  0  0  0
   12.5307    0.9301    0.0000 H   0  0  0  0  0  0  0  0  0  0  0  0
   13.3278    0.9301    0.0000 H   0  0  0  0  0  0  0  0  0  0  0  0
   10.7987    0.9301    0.0000 H   0  0  0  0  0  0  0  0  0  0  0  0
   11.5957    0.9301    0.0000 H   0  0  0  0  0  0  0  0  0  0  0  0
   17.6579    2.3800    0.0000 H   0  0  0  0  0  0  0  0  0  0  0  0
   16.8608    2.3800    0.0000 H   0  0  0  0  0  0  0  0  0  0  0  0
    8.8112   -1.6776    0.0000 H   0  0  0  0  0  0  0  0  0  0  0  0
    9.2097   -0.9873    0.0000 H   0  0  0  0  0  0  0  0  0  0  0  0
   12.0632    2.5250    0.0000 H   0  0  0  0  0  0  0  0  0  0  0  0
    4.0569   -1.0124    0.0000 H   0  0  0  0  0  0  0  0  0  0  0  0
    3.6584   -1.7027    0.0000 H   0  0  0  0  0  0  0  0  0  0  0  0
   17.7269    0.9301    0.0000 H   0  0  0  0  0  0  0  0  0  0  0  0
   18.5239    0.9301    0.0000 H   0  0  0  0  0  0  0  0  0  0  0  0
    7.5210   -1.0124    0.0000 H   0  0  0  0  0  0  0  0  0  0  0  0
    7.1225   -1.7027    0.0000 H   0  0  0  0  0  0  0  0  0  0  0  0
    3.7320   -2.9050    0.0000 H   0  0  0  0  0  0  0  0  0  0  0  0
    4.8059   -2.9050    0.0000 H   0  0  0  0  0  0  0  0  0  0  0  0
   19.5284    1.5950    0.0000 H   0  0  0  0  0  0  0  0  0  0  0  0
   18.9914    2.5250    0.0000 H   0  0  0  0  0  0  0  0  0  0  0  0
    7.1962   -2.9050    0.0000 H   0  0  0  0  0  0  0  0  0  0  0  0
    8.2700   -2.9050    0.0000 H   0  0  0  0  0  0  0  0  0  0  0  0
    2.0000    1.7150    0.0000 H   0  0  0  0  0  0  0  0  0  0  0  0
  1 19  1  0  0  0  0
  1 33  1  0  0  0  0
  2 25  2  0  0  0  0
  3 26  2  0  0  0  0
  4 33  1  0  0  0  0
  4 79  1  0  0  0  0
  5 33  2  0  0  0  0
  6 18  1  0  0  0  0
  6 21  1  0  0  0  0
  6 26  1  0  0  0  0
 12  7  1  6  0  0  0
  7 25  1  0  0  0  0
  7 45  1  0  0  0  0
  8 24  1  0  0  0  0
  8 27  1  0  0  0  0
  8 66  1  0  0  0  0
  9 30  1  0  0  0  0
  9 73  1  0  0  0  0
  9 74  1  0  0  0  0
 10 31  1  0  0  0  0
 10 75  1  0  0  0  0
 10 76  1  0  0  0  0
 11 32  1  0  0  0  0
 11 77  1  0  0  0  0
 11 78  1  0  0  0  0
 12 13  1  0  0  0  0
 12 19  1  0  0  0  0
 12 34  1  0  0  0  0
 13 14  1  0  0  0  0
 13 35  1  0  0  0  0
 13 36  1  0  0  0  0
 14 20  1  0  0  0  0
 14 37  1  0  0  0  0
 14 38  1  0  0  0  0
 15 16  1  0  0  0  0
 15 17  1  0  0  0  0
 15 39  1  0  0  0  0
 15 40  1  0  0  0  0
 16 22  1  0  0  0  0
 16 41  1  0  0  0  0
 16 42  1  0  0  0  0
 17 24  1  0  0  0  0
 17 43  1  0  0  0  0
 17 44  1  0  0  0  0
 18 23  1  0  0  0  0
 18 46  1  0  0  0  0
 18 47  1  0  0  0  0
 19 48  1  0  0  0  0
 19 49  1  0  0  0  0
 20 30  1  0  0  0  0
 20 50  1  0  0  0  0
 20 51  1  0  0  0  0
 21 25  1  0  0  0  0
 21 52  1  0  0  0  0
 21 53  1  0  0  0  0
 22 28  1  0  0  0  0
 22 54  1  0  0  0  0
 22 55  1  0  0  0  0
 23 29  1  0  0  0  0
 23 56  1  0  0  0  0
 23 57  1  0  0  0  0
 24 58  1  0  0  0  0
 24 59  1  0  0  0  0
 26 27  1  0  0  0  0
 27 60  1  0  0  0  0
 27 61  1  0  0  0  0
 28 31  1  0  0  0  0
 28 62  1  0  0  0  0
 28 63  1  0  0  0  0
 29 32  1  0  0  0  0
 29 64  1  0  0  0  0
 29 65  1  0  0  0  0
 30 67  1  0  0  0  0
 30 68  1  0  0  0  0
 31 69  1  0  0  0  0
 31 70  1  0  0  0  0
 32 71  1  0  0  0  0
 32 72  1  0  0  0  0
M  END
> <PUBCHEM_COMPOUND_CID>
513353
> <PUBCHEM_COMPOUND_CANONICALIZED>
1
> <PUBCHEM_CACTVS_COMPLEXITY>
524
> <PUBCHEM_CACTVS_HBOND_ACCEPTOR>
9
> <PUBCHEM_CACTVS_HBOND_DONOR>
6
> <PUBCHEM_CACTVS_ROTATABLE_BOND>
23
> <PUBCHEM_CACTVS_SUBSKEYS>
AAADcfB7uAAAAAAAAAAAAAAAAAAAAAAAAAAAAAAAAAAAAAAAAAAAHgAQCAAACCjhgAYACAPABgAIAAEQGAAAAAAAAAAAAICIAAASQAIAgCAVAAAEFgCUAAGQwAAAAAAAAAAAAAAAAAAAAAAAAAAAAAAAAA==
> <PUBCHEM_IUPAC_OPENEYE_NAME>
[(2R)-6-amino-2-[[2-[4-aminobutyl-[2-(7-aminoheptylamino)acetyl]amino]acetyl]amino]hexyl] hydrogen carbonate
> <PUBCHEM_IUPAC_CAS_NAME>
carbonic acid [(2R)-6-amino-2-[[2-[4-aminobutyl-[2-(7-aminoheptylamino)-1-oxoethyl]amino]-1-oxoethyl]amino]hexyl] ester
> <PUBCHEM_IUPAC_NAME_MARKUP>
[(2<I>R</I>)-6-amino-2-[[2-[4-aminobutyl-[2-(7-aminoheptylamino)acetyl]amino]acetyl]amino]hexyl] hydrogen carbonate
> <PUBCHEM_IUPAC_NAME>
[(2R)-6-amino-2-[[2-[4-aminobutyl-[2-(7-aminoheptylamino)acetyl]amino]acetyl]amino]hexyl] hydrogen carbonate
> <PUBCHEM_IUPAC_SYSTEMATIC_NAME>
[(2R)-6-azanyl-2-[2-[4-azanylbutyl-[2-(7-azanylheptylamino)ethanoyl]amino]ethanoylamino]hexyl] hydrogen carbonate
> <PUBCHEM_IUPAC_TRADITIONAL_NAME>
carbonic acid [(2R)-6-amino-2-[[2-[4-aminobutyl-[2-(7-aminoheptylamino)acetyl]amino]acetyl]amino]hexyl] ester
> <PUBCHEM_IUPAC_INCHI>
InChI=1S/C22H46N6O5/c23-11-5-2-1-3-8-14-26-16-21(30)28(15-9-7-13-25)17-20(29)27-19(10-4-6-12-24)18-33-22(31)32/h19,26H,1-18,23-25H2,(H,27,29)(H,31,32)/t19-/m1/s1
> <PUBCHEM_IUPAC_INCHIKEY>
IIRQBRLFOBGWCA-LJQANCHMSA-N
> <PUBCHEM_XLOGP3_AA>
-2.6
> <PUBCHEM_EXACT_MASS>
474.35296859
> <PUBCHEM_MOLECULAR_FORMULA>
C22H46N6O5
> <PUBCHEM_MOLECULAR_WEIGHT>
474.6
> <PUBCHEM_OPENEYE_CAN_SMILES>
C(CCCN)CCCNCC(=O)N(CCCCN)CC(=O)NC(CCCCN)COC(=O)O
> <PUBCHEM_OPENEYE_ISO_SMILES>
C(CCCN)CCCNCC(=O)N(CCCCN)CC(=O)N[C@H](CCCCN)COC(=O)O
> <PUBCHEM_CACTVS_TPSA>
186
> <PUBCHEM_MONOISOTOPIC_WEIGHT>
474.35296859
> <PUBCHEM_TOTAL_CHARGE>
0
> <PUBCHEM_HEAVY_ATOM_COUNT>
33
> <PUBCHEM_ATOM_DEF_STEREO_COUNT>
1
> <PUBCHEM_ATOM_UDEF_STEREO_COUNT>
0
> <PUBCHEM_BOND_DEF_STEREO_COUNT>
0
> <PUBCHEM_BOND_UDEF_STEREO_COUNT>
0
> <PUBCHEM_ISOTOPIC_ATOM_COUNT>
0
> <PUBCHEM_COMPONENT_COUNT>
1
> <PUBCHEM_CACTVS_TAUTO_COUNT>
-1
> <PUBCHEM_COORDINATE_TYPE>
1
5
255
> <PUBCHEM_BONDANNOTATIONS>
12  7  6
$$$$
