513302
  -OEChem-10302200282D
 70 69  0     1  0  0  0  0  0999 V2000
    8.5991   -0.2500    0.0000 O   0  0  0  0  0  0  0  0  0  0  0  0
    4.2690    0.2500    0.0000 O   0  0  0  0  0  0  0  0  0  0  0  0
   12.0632   -1.2500    0.0000 O   0  0  0  0  0  0  0  0  0  0  0  0
    7.7331    1.2500    0.0000 O   0  0  0  0  0  0  0  0  0  0  0  0
   12.9292    3.2500    0.0000 O   0  0  0  0  0  0  0  0  0  0  0  0
    2.5369    0.2500    0.0000 O   0  0  0  0  0  0  0  0  0  0  0  0
    3.4030   -1.2500    0.0000 O   0  0  0  0  0  0  0  0  0  0  0  0
   11.1972    0.2500    0.0000 N   0  0  0  0  0  0  0  0  0  0  0  0
    6.8671   -0.2500    0.0000 N   0  0  0  0  0  0  0  0  0  0  0  0
   13.7953   -0.2500    0.0000 N   0  0  0  0  0  0  0  0  0  0  0  0
    8.5991   -4.2500    0.0000 N   0  0  0  0  0  0  0  0  0  0  0  0
    4.2690    4.2500    0.0000 N   0  0  0  0  0  0  0  0  0  0  0  0
   14.6613    3.2500    0.0000 N   0  0  0  0  0  0  0  0  0  0  0  0
   10.3312   -0.2500    0.0000 C   0  0  1  0  0  0  0  0  0  0  0  0
   10.3312   -1.2500    0.0000 C   0  0  0  0  0  0  0  0  0  0  0  0
    9.4651   -1.7500    0.0000 C   0  0  0  0  0  0  0  0  0  0  0  0
    6.0010    0.2500    0.0000 C   0  0  1  0  0  0  0  0  0  0  0  0
    9.4651    0.2500    0.0000 C   0  0  0  0  0  0  0  0  0  0  0  0
    6.0010    1.2500    0.0000 C   0  0  0  0  0  0  0  0  0  0  0  0
    9.4651   -2.7500    0.0000 C   0  0  0  0  0  0  0  0  0  0  0  0
    5.1350    1.7500    0.0000 C   0  0  0  0  0  0  0  0  0  0  0  0
   12.9292    0.2500    0.0000 C   0  0  1  0  0  0  0  0  0  0  0  0
    5.1350    2.7500    0.0000 C   0  0  0  0  0  0  0  0  0  0  0  0
   12.0632   -0.2500    0.0000 C   0  0  0  0  0  0  0  0  0  0  0  0
    5.1350   -0.2500    0.0000 C   0  0  0  0  0  0  0  0  0  0  0  0
    8.5991   -3.2500    0.0000 C   0  0  0  0  0  0  0  0  0  0  0  0
   12.9292    1.2500    0.0000 C   0  0  0  0  0  0  0  0  0  0  0  0
    7.7331    0.2500    0.0000 C   0  0  0  0  0  0  0  0  0  0  0  0
    4.2690    3.2500    0.0000 C   0  0  0  0  0  0  0  0  0  0  0  0
   13.7953    1.7500    0.0000 C   0  0  0  0  0  0  0  0  0  0  0  0
   13.7953    2.7500    0.0000 C   0  0  0  0  0  0  0  0  0  0  0  0
    3.4030   -0.2500    0.0000 C   0  0  0  0  0  0  0  0  0  0  0  0
   10.8681   -0.5600    0.0000 H   0  0  0  0  0  0  0  0  0  0  0  0
   10.5432   -1.8326    0.0000 H   0  0  0  0  0  0  0  0  0  0  0  0
   10.9417   -1.1423    0.0000 H   0  0  0  0  0  0  0  0  0  0  0  0
    9.2531   -1.1674    0.0000 H   0  0  0  0  0  0  0  0  0  0  0  0
    8.8546   -1.8577    0.0000 H   0  0  0  0  0  0  0  0  0  0  0  0
    6.5380    0.5600    0.0000 H   0  0  0  0  0  0  0  0  0  0  0  0
    9.8637    0.7249    0.0000 H   0  0  0  0  0  0  0  0  0  0  0  0
    9.0666    0.7249    0.0000 H   0  0  0  0  0  0  0  0  0  0  0  0
    6.6116    1.1423    0.0000 H   0  0  0  0  0  0  0  0  0  0  0  0
    6.2131    1.8326    0.0000 H   0  0  0  0  0  0  0  0  0  0  0  0
   11.1972    0.8700    0.0000 H   0  0  0  0  0  0  0  0  0  0  0  0
    9.6772   -3.3326    0.0000 H   0  0  0  0  0  0  0  0  0  0  0  0
   10.0757   -2.6423    0.0000 H   0  0  0  0  0  0  0  0  0  0  0  0
    4.5244    1.8577    0.0000 H   0  0  0  0  0  0  0  0  0  0  0  0
    4.9230    1.1674    0.0000 H   0  0  0  0  0  0  0  0  0  0  0  0
   12.9292   -0.3700    0.0000 H   0  0  0  0  0  0  0  0  0  0  0  0
    5.7456    2.6423    0.0000 H   0  0  0  0  0  0  0  0  0  0  0  0
    5.3471    3.3326    0.0000 H   0  0  0  0  0  0  0  0  0  0  0  0
    4.7365   -0.7249    0.0000 H   0  0  0  0  0  0  0  0  0  0  0  0
    5.5335   -0.7249    0.0000 H   0  0  0  0  0  0  0  0  0  0  0  0
    6.8671   -0.8700    0.0000 H   0  0  0  0  0  0  0  0  0  0  0  0
    8.3871   -2.6674    0.0000 H   0  0  0  0  0  0  0  0  0  0  0  0
    7.9885   -3.3577    0.0000 H   0  0  0  0  0  0  0  0  0  0  0  0
   12.7172    1.8326    0.0000 H   0  0  0  0  0  0  0  0  0  0  0  0
   12.3187    1.1423    0.0000 H   0  0  0  0  0  0  0  0  0  0  0  0
    3.6584    3.3577    0.0000 H   0  0  0  0  0  0  0  0  0  0  0  0
    4.0569    2.6674    0.0000 H   0  0  0  0  0  0  0  0  0  0  0  0
   14.0073    1.1674    0.0000 H   0  0  0  0  0  0  0  0  0  0  0  0
   14.4058    1.8577    0.0000 H   0  0  0  0  0  0  0  0  0  0  0  0
   14.3322    0.0600    0.0000 H   0  0  0  0  0  0  0  0  0  0  0  0
   13.7953   -0.8700    0.0000 H   0  0  0  0  0  0  0  0  0  0  0  0
    8.0622   -4.5600    0.0000 H   0  0  0  0  0  0  0  0  0  0  0  0
    9.1360   -4.5600    0.0000 H   0  0  0  0  0  0  0  0  0  0  0  0
    3.7320    4.5600    0.0000 H   0  0  0  0  0  0  0  0  0  0  0  0
    4.8059    4.5600    0.0000 H   0  0  0  0  0  0  0  0  0  0  0  0
   14.6613    3.8700    0.0000 H   0  0  0  0  0  0  0  0  0  0  0  0
   15.1982    2.9400    0.0000 H   0  0  0  0  0  0  0  0  0  0  0  0
    2.0000   -0.0600    0.0000 H   0  0  0  0  0  0  0  0  0  0  0  0
  1 18  1  0  0  0  0
  1 28  1  0  0  0  0
  2 25  1  0  0  0  0
  2 32  1  0  0  0  0
  3 24  2  0  0  0  0
  4 28  2  0  0  0  0
  5 31  2  0  0  0  0
  6 32  1  0  0  0  0
  6 70  1  0  0  0  0
  7 32  2  0  0  0  0
 14  8  1  1  0  0  0
  8 24  1  0  0  0  0
  8 43  1  0  0  0  0
 17  9  1  6  0  0  0
  9 28  1  0  0  0  0
  9 53  1  0  0  0  0
 22 10  1  1  0  0  0
 10 62  1  0  0  0  0
 10 63  1  0  0  0  0
 11 26  1  0  0  0  0
 11 64  1  0  0  0  0
 11 65  1  0  0  0  0
 12 29  1  0  0  0  0
 12 66  1  0  0  0  0
 12 67  1  0  0  0  0
 13 31  1  0  0  0  0
 13 68  1  0  0  0  0
 13 69  1  0  0  0  0
 14 15  1  0  0  0  0
 14 18  1  0  0  0  0
 14 33  1  0  0  0  0
 15 16  1  0  0  0  0
 15 34  1  0  0  0  0
 15 35  1  0  0  0  0
 16 20  1  0  0  0  0
 16 36  1  0  0  0  0
 16 37  1  0  0  0  0
 17 19  1  0  0  0  0
 17 25  1  0  0  0  0
 17 38  1  0  0  0  0
 18 39  1  0  0  0  0
 18 40  1  0  0  0  0
 19 21  1  0  0  0  0
 19 41  1  0  0  0  0
 19 42  1  0  0  0  0
 20 26  1  0  0  0  0
 20 44  1  0  0  0  0
 20 45  1  0  0  0  0
 21 23  1  0  0  0  0
 21 46  1  0  0  0  0
 21 47  1  0  0  0  0
 22 24  1  0  0  0  0
 22 27  1  0  0  0  0
 22 48  1  0  0  0  0
 23 29  1  0  0  0  0
 23 49  1  0  0  0  0
 23 50  1  0  0  0  0
 25 51  1  0  0  0  0
 25 52  1  0  0  0  0
 26 54  1  0  0  0  0
 26 55  1  0  0  0  0
 27 30  1  0  0  0  0
 27 56  1  0  0  0  0
 27 57  1  0  0  0  0
 29 58  1  0  0  0  0
 29 59  1  0  0  0  0
 30 31  1  0  0  0  0
 30 60  1  0  0  0  0
 30 61  1  0  0  0  0
M  END
> <PUBCHEM_COMPOUND_CID>
513302
> <PUBCHEM_COMPOUND_CANONICALIZED>
1
> <PUBCHEM_CACTVS_COMPLEXITY>
578
> <PUBCHEM_CACTVS_HBOND_ACCEPTOR>
10
> <PUBCHEM_CACTVS_HBOND_DONOR>
7
> <PUBCHEM_CACTVS_ROTATABLE_BOND>
20
> <PUBCHEM_CACTVS_SUBSKEYS>
AAADcfB7uAAAAAAAAAAAAAAAAAAAAAAAAAAAAAAAAAAAAAAAAAAAHgAQCAAACCjhgAYACALABgAIAAEQGAAAAAAAAAAAAIGIAAESQBIAgAAdAAAEFgCUAAGcQwAAAAAAAAAAAAAAAAAAAAAAAAAAAAAAAA==
> <PUBCHEM_IUPAC_OPENEYE_NAME>
[(2S)-6-amino-2-[[(2S)-6-amino-2-[[(2R)-2,5-diamino-5-oxo-pentanoyl]amino]hexoxy]carbonylamino]hexyl] hydrogen carbonate
> <PUBCHEM_IUPAC_CAS_NAME>
carbonic acid [(2S)-6-amino-2-[[[(2S)-6-amino-2-[[(2R)-2,5-diamino-1,5-dioxopentyl]amino]hexoxy]-oxomethyl]amino]hexyl] ester
> <PUBCHEM_IUPAC_NAME_MARKUP>
[(2<I>S</I>)-6-amino-2-[[(2<I>S</I>)-6-amino-2-[[(2<I>R</I>)-2,5-diamino-5-oxopentanoyl]amino]hexoxy]carbonylamino]hexyl] hydrogen carbonate
> <PUBCHEM_IUPAC_NAME>
[(2S)-6-amino-2-[[(2S)-6-amino-2-[[(2R)-2,5-diamino-5-oxopentanoyl]amino]hexoxy]carbonylamino]hexyl] hydrogen carbonate
> <PUBCHEM_IUPAC_SYSTEMATIC_NAME>
[(2S)-6-azanyl-2-[[(2S)-6-azanyl-2-[[(2R)-2,5-bis(azanyl)-5-oxidanylidene-pentanoyl]amino]hexoxy]carbonylamino]hexyl] hydrogen carbonate
> <PUBCHEM_IUPAC_TRADITIONAL_NAME>
carbonic acid [(2S)-6-amino-2-[[(2S)-6-amino-2-[[(2R)-2,5-diamino-5-keto-pentanoyl]amino]hexoxy]carbonylamino]hexyl] ester
> <PUBCHEM_IUPAC_INCHI>
InChI=1S/C19H38N6O7/c20-9-3-1-5-13(24-17(27)15(22)7-8-16(23)26)11-31-18(28)25-14(6-2-4-10-21)12-32-19(29)30/h13-15H,1-12,20-22H2,(H2,23,26)(H,24,27)(H,25,28)(H,29,30)/t13-,14-,15+/m0/s1
> <PUBCHEM_IUPAC_INCHIKEY>
NOAIPBRUFJNEBR-SOUVJXGZSA-N
> <PUBCHEM_XLOGP3_AA>
-4.3
> <PUBCHEM_EXACT_MASS>
462.28019757
> <PUBCHEM_MOLECULAR_FORMULA>
C19H38N6O7
> <PUBCHEM_MOLECULAR_WEIGHT>
462.5
> <PUBCHEM_OPENEYE_CAN_SMILES>
C(CCN)CC(COC(=O)NC(CCCCN)COC(=O)O)NC(=O)C(CCC(=O)N)N
> <PUBCHEM_OPENEYE_ISO_SMILES>
C(CCN)C[C@@H](COC(=O)N[C@@H](CCCCN)COC(=O)O)NC(=O)[C@@H](CCC(=O)N)N
> <PUBCHEM_CACTVS_TPSA>
235
> <PUBCHEM_MONOISOTOPIC_WEIGHT>
462.28019757
> <PUBCHEM_TOTAL_CHARGE>
0
> <PUBCHEM_HEAVY_ATOM_COUNT>
32
> <PUBCHEM_ATOM_DEF_STEREO_COUNT>
3
> <PUBCHEM_ATOM_UDEF_STEREO_COUNT>
0
> <PUBCHEM_BOND_DEF_STEREO_COUNT>
0
> <PUBCHEM_BOND_UDEF_STEREO_COUNT>
0
> <PUBCHEM_ISOTOPIC_ATOM_COUNT>
0
> <PUBCHEM_COMPONENT_COUNT>
1
> <PUBCHEM_CACTVS_TAUTO_COUNT>
-1
> <PUBCHEM_COORDINATE_TYPE>
1
5
255
> <PUBCHEM_BONDANNOTATIONS>
22  10  5
14  8  5
17  9  6
$$$$
