513371
  -OEChem-10302200282D
 88 87  0     1  0  0  0  0  0999 V2000
    4.2690    2.5600    0.0000 O   0  0  0  0  0  0  0  0  0  0  0  0
    7.7331    1.5600    0.0000 O   0  0  0  0  0  0  0  0  0  0  0  0
   10.3312    4.0600    0.0000 O   0  0  0  0  0  0  0  0  0  0  0  0
    2.5369    2.5600    0.0000 O   0  0  0  0  0  0  0  0  0  0  0  0
    3.4030    4.0600    0.0000 O   0  0  0  0  0  0  0  0  0  0  0  0
    9.4651    2.5600    0.0000 N   0  0  0  0  0  0  0  0  0  0  0  0
    6.8671    3.0600    0.0000 N   0  0  0  0  0  0  0  0  0  0  0  0
   12.0632    3.0600    0.0000 N   0  0  0  0  0  0  0  0  0  0  0  0
    3.4030    0.0600    0.0000 N   0  0  0  0  0  0  0  0  0  0  0  0
    6.0010   -3.4400    0.0000 N   0  0  0  0  0  0  0  0  0  0  0  0
   18.9914    3.0600    0.0000 N   0  0  0  0  0  0  0  0  0  0  0  0
    6.0010    2.5600    0.0000 C   0  0  2  0  0  0  0  0  0  0  0  0
    8.5991    1.0600    0.0000 C   0  0  0  0  0  0  0  0  0  0  0  0
    9.4651    1.5600    0.0000 C   0  0  0  0  0  0  0  0  0  0  0  0
    8.5991    0.0600    0.0000 C   0  0  0  0  0  0  0  0  0  0  0  0
    6.0010    1.5600    0.0000 C   0  0  0  0  0  0  0  0  0  0  0  0
    7.7331   -0.4400    0.0000 C   0  0  0  0  0  0  0  0  0  0  0  0
    5.1350    1.0600    0.0000 C   0  0  0  0  0  0  0  0  0  0  0  0
    8.5991    3.0600    0.0000 C   0  0  0  0  0  0  0  0  0  0  0  0
    7.7331   -1.4400    0.0000 C   0  0  0  0  0  0  0  0  0  0  0  0
   14.6613    2.5600    0.0000 C   0  0  0  0  0  0  0  0  0  0  0  0
   13.7953    3.0600    0.0000 C   0  0  0  0  0  0  0  0  0  0  0  0
    5.1350    3.0600    0.0000 C   0  0  0  0  0  0  0  0  0  0  0  0
   15.5273    3.0600    0.0000 C   0  0  0  0  0  0  0  0  0  0  0  0
    5.1350    0.0600    0.0000 C   0  0  0  0  0  0  0  0  0  0  0  0
    7.7331    2.5600    0.0000 C   0  0  0  0  0  0  0  0  0  0  0  0
   10.3312    3.0600    0.0000 C   0  0  0  0  0  0  0  0  0  0  0  0
   12.9292    2.5600    0.0000 C   0  0  0  0  0  0  0  0  0  0  0  0
    6.8671   -1.9400    0.0000 C   0  0  0  0  0  0  0  0  0  0  0  0
   11.1972    2.5600    0.0000 C   0  0  0  0  0  0  0  0  0  0  0  0
   16.3933    2.5600    0.0000 C   0  0  0  0  0  0  0  0  0  0  0  0
   17.2594    3.0600    0.0000 C   0  0  0  0  0  0  0  0  0  0  0  0
    4.2690   -0.4400    0.0000 C   0  0  0  0  0  0  0  0  0  0  0  0
    6.8671   -2.9400    0.0000 C   0  0  0  0  0  0  0  0  0  0  0  0
   18.1254    2.5600    0.0000 C   0  0  0  0  0  0  0  0  0  0  0  0
    3.4030    3.0600    0.0000 C   0  0  0  0  0  0  0  0  0  0  0  0
    6.5380    2.2500    0.0000 H   0  0  0  0  0  0  0  0  0  0  0  0
    8.3871    1.6426    0.0000 H   0  0  0  0  0  0  0  0  0  0  0  0
    7.9885    0.9523    0.0000 H   0  0  0  0  0  0  0  0  0  0  0  0
    9.6772    0.9774    0.0000 H   0  0  0  0  0  0  0  0  0  0  0  0
   10.0757    1.6677    0.0000 H   0  0  0  0  0  0  0  0  0  0  0  0
    8.8112   -0.5226    0.0000 H   0  0  0  0  0  0  0  0  0  0  0  0
    9.2097    0.1677    0.0000 H   0  0  0  0  0  0  0  0  0  0  0  0
    6.2131    0.9774    0.0000 H   0  0  0  0  0  0  0  0  0  0  0  0
    6.6116    1.6677    0.0000 H   0  0  0  0  0  0  0  0  0  0  0  0
    7.5210    0.1426    0.0000 H   0  0  0  0  0  0  0  0  0  0  0  0
    7.1225   -0.5477    0.0000 H   0  0  0  0  0  0  0  0  0  0  0  0
    4.9230    1.6426    0.0000 H   0  0  0  0  0  0  0  0  0  0  0  0
    4.5244    0.9523    0.0000 H   0  0  0  0  0  0  0  0  0  0  0  0
    8.9976    3.5350    0.0000 H   0  0  0  0  0  0  0  0  0  0  0  0
    8.2006    3.5350    0.0000 H   0  0  0  0  0  0  0  0  0  0  0  0
    7.9451   -2.0226    0.0000 H   0  0  0  0  0  0  0  0  0  0  0  0
    8.3437   -1.3323    0.0000 H   0  0  0  0  0  0  0  0  0  0  0  0
    6.8671    3.6800    0.0000 H   0  0  0  0  0  0  0  0  0  0  0  0
   14.2628    2.0850    0.0000 H   0  0  0  0  0  0  0  0  0  0  0  0
   15.0598    2.0850    0.0000 H   0  0  0  0  0  0  0  0  0  0  0  0
   14.1938    3.5350    0.0000 H   0  0  0  0  0  0  0  0  0  0  0  0
   13.3967    3.5350    0.0000 H   0  0  0  0  0  0  0  0  0  0  0  0
    5.5335    3.5350    0.0000 H   0  0  0  0  0  0  0  0  0  0  0  0
    4.7365    3.5350    0.0000 H   0  0  0  0  0  0  0  0  0  0  0  0
   15.9258    3.5350    0.0000 H   0  0  0  0  0  0  0  0  0  0  0  0
   15.1288    3.5350    0.0000 H   0  0  0  0  0  0  0  0  0  0  0  0
    5.3471   -0.5226    0.0000 H   0  0  0  0  0  0  0  0  0  0  0  0
    5.7456    0.1677    0.0000 H   0  0  0  0  0  0  0  0  0  0  0  0
   12.5307    2.0850    0.0000 H   0  0  0  0  0  0  0  0  0  0  0  0
   13.3278    2.0850    0.0000 H   0  0  0  0  0  0  0  0  0  0  0  0
    6.6550   -1.3574    0.0000 H   0  0  0  0  0  0  0  0  0  0  0  0
    6.2565   -2.0477    0.0000 H   0  0  0  0  0  0  0  0  0  0  0  0
   10.7987    2.0850    0.0000 H   0  0  0  0  0  0  0  0  0  0  0  0
   11.5957    2.0850    0.0000 H   0  0  0  0  0  0  0  0  0  0  0  0
   15.9948    2.0850    0.0000 H   0  0  0  0  0  0  0  0  0  0  0  0
   16.7919    2.0850    0.0000 H   0  0  0  0  0  0  0  0  0  0  0  0
   12.0632    3.6800    0.0000 H   0  0  0  0  0  0  0  0  0  0  0  0
   17.6579    3.5350    0.0000 H   0  0  0  0  0  0  0  0  0  0  0  0
   16.8608    3.5350    0.0000 H   0  0  0  0  0  0  0  0  0  0  0  0
    3.8705   -0.9149    0.0000 H   0  0  0  0  0  0  0  0  0  0  0  0
    4.6675   -0.9149    0.0000 H   0  0  0  0  0  0  0  0  0  0  0  0
    7.0791   -3.5226    0.0000 H   0  0  0  0  0  0  0  0  0  0  0  0
    7.4776   -2.8323    0.0000 H   0  0  0  0  0  0  0  0  0  0  0  0
   17.7269    2.0850    0.0000 H   0  0  0  0  0  0  0  0  0  0  0  0
   18.5239    2.0850    0.0000 H   0  0  0  0  0  0  0  0  0  0  0  0
    2.8660   -0.2500    0.0000 H   0  0  0  0  0  0  0  0  0  0  0  0
    3.4030    0.6800    0.0000 H   0  0  0  0  0  0  0  0  0  0  0  0
    6.0010   -4.0600    0.0000 H   0  0  0  0  0  0  0  0  0  0  0  0
    5.4641   -3.1300    0.0000 H   0  0  0  0  0  0  0  0  0  0  0  0
   19.5284    2.7500    0.0000 H   0  0  0  0  0  0  0  0  0  0  0  0
   18.9914    3.6800    0.0000 H   0  0  0  0  0  0  0  0  0  0  0  0
    2.0000    2.8700    0.0000 H   0  0  0  0  0  0  0  0  0  0  0  0
  1 23  1  0  0  0  0
  1 36  1  0  0  0  0
  2 26  2  0  0  0  0
  3 27  2  0  0  0  0
  4 36  1  0  0  0  0
  4 88  1  0  0  0  0
  5 36  2  0  0  0  0
  6 14  1  0  0  0  0
  6 19  1  0  0  0  0
  6 27  1  0  0  0  0
 12  7  1  6  0  0  0
  7 26  1  0  0  0  0
  7 54  1  0  0  0  0
  8 28  1  0  0  0  0
  8 30  1  0  0  0  0
  8 73  1  0  0  0  0
  9 33  1  0  0  0  0
  9 82  1  0  0  0  0
  9 83  1  0  0  0  0
 10 34  1  0  0  0  0
 10 84  1  0  0  0  0
 10 85  1  0  0  0  0
 11 35  1  0  0  0  0
 11 86  1  0  0  0  0
 11 87  1  0  0  0  0
 12 16  1  0  0  0  0
 12 23  1  0  0  0  0
 12 37  1  0  0  0  0
 13 14  1  0  0  0  0
 13 15  1  0  0  0  0
 13 38  1  0  0  0  0
 13 39  1  0  0  0  0
 14 40  1  0  0  0  0
 14 41  1  0  0  0  0
 15 17  1  0  0  0  0
 15 42  1  0  0  0  0
 15 43  1  0  0  0  0
 16 18  1  0  0  0  0
 16 44  1  0  0  0  0
 16 45  1  0  0  0  0
 17 20  1  0  0  0  0
 17 46  1  0  0  0  0
 17 47  1  0  0  0  0
 18 25  1  0  0  0  0
 18 48  1  0  0  0  0
 18 49  1  0  0  0  0
 19 26  1  0  0  0  0
 19 50  1  0  0  0  0
 19 51  1  0  0  0  0
 20 29  1  0  0  0  0
 20 52  1  0  0  0  0
 20 53  1  0  0  0  0
 21 22  1  0  0  0  0
 21 24  1  0  0  0  0
 21 55  1  0  0  0  0
 21 56  1  0  0  0  0
 22 28  1  0  0  0  0
 22 57  1  0  0  0  0
 22 58  1  0  0  0  0
 23 59  1  0  0  0  0
 23 60  1  0  0  0  0
 24 31  1  0  0  0  0
 24 61  1  0  0  0  0
 24 62  1  0  0  0  0
 25 33  1  0  0  0  0
 25 63  1  0  0  0  0
 25 64  1  0  0  0  0
 27 30  1  0  0  0  0
 28 65  1  0  0  0  0
 28 66  1  0  0  0  0
 29 34  1  0  0  0  0
 29 67  1  0  0  0  0
 29 68  1  0  0  0  0
 30 69  1  0  0  0  0
 30 70  1  0  0  0  0
 31 32  1  0  0  0  0
 31 71  1  0  0  0  0
 31 72  1  0  0  0  0
 32 35  1  0  0  0  0
 32 74  1  0  0  0  0
 32 75  1  0  0  0  0
 33 76  1  0  0  0  0
 33 77  1  0  0  0  0
 34 78  1  0  0  0  0
 34 79  1  0  0  0  0
 35 80  1  0  0  0  0
 35 81  1  0  0  0  0
M  END
> <PUBCHEM_COMPOUND_CID>
513371
> <PUBCHEM_COMPOUND_CANONICALIZED>
1
> <PUBCHEM_CACTVS_COMPLEXITY>
567
> <PUBCHEM_CACTVS_HBOND_ACCEPTOR>
9
> <PUBCHEM_CACTVS_HBOND_DONOR>
6
> <PUBCHEM_CACTVS_ROTATABLE_BOND>
26
> <PUBCHEM_CACTVS_SUBSKEYS>
AAADcfB7uAAAAAAAAAAAAAAAAAAAAAAAAAAAAAAAAAAAAAAAAAAAHgAQCAAACCjhgAYACAPABgAIAAEQGAAAAAAAAAAAAICIAAASQAIAgCAVAAAEFgCUAAGQwAAAAAAAAAAAAAAAAAAAAAAAAAAAAAAAAA==
> <PUBCHEM_IUPAC_OPENEYE_NAME>
[(2R)-6-amino-2-[[2-[7-aminoheptyl-[2-(7-aminoheptylamino)acetyl]amino]acetyl]amino]hexyl] hydrogen carbonate
> <PUBCHEM_IUPAC_CAS_NAME>
carbonic acid [(2R)-6-amino-2-[[2-[7-aminoheptyl-[2-(7-aminoheptylamino)-1-oxoethyl]amino]-1-oxoethyl]amino]hexyl] ester
> <PUBCHEM_IUPAC_NAME_MARKUP>
[(2<I>R</I>)-6-amino-2-[[2-[7-aminoheptyl-[2-(7-aminoheptylamino)acetyl]amino]acetyl]amino]hexyl] hydrogen carbonate
> <PUBCHEM_IUPAC_NAME>
[(2R)-6-amino-2-[[2-[7-aminoheptyl-[2-(7-aminoheptylamino)acetyl]amino]acetyl]amino]hexyl] hydrogen carbonate
> <PUBCHEM_IUPAC_SYSTEMATIC_NAME>
[(2R)-6-azanyl-2-[2-[7-azanylheptyl-[2-(7-azanylheptylamino)ethanoyl]amino]ethanoylamino]hexyl] hydrogen carbonate
> <PUBCHEM_IUPAC_TRADITIONAL_NAME>
carbonic acid [(2R)-6-amino-2-[[2-[7-aminoheptyl-[2-(7-aminoheptylamino)acetyl]amino]acetyl]amino]hexyl] ester
> <PUBCHEM_IUPAC_INCHI>
InChI=1S/C25H52N6O5/c26-14-8-3-1-5-11-17-29-19-24(33)31(18-12-6-2-4-9-15-27)20-23(32)30-22(13-7-10-16-28)21-36-25(34)35/h22,29H,1-21,26-28H2,(H,30,32)(H,34,35)/t22-/m1/s1
> <PUBCHEM_IUPAC_INCHIKEY>
IFELQKJVNJHCQV-JOCHJYFZSA-N
> <PUBCHEM_XLOGP3_AA>
-1.4
> <PUBCHEM_EXACT_MASS>
516.39991878
> <PUBCHEM_MOLECULAR_FORMULA>
C25H52N6O5
> <PUBCHEM_MOLECULAR_WEIGHT>
516.7
> <PUBCHEM_OPENEYE_CAN_SMILES>
C(CCCN)CCCNCC(=O)N(CCCCCCCN)CC(=O)NC(CCCCN)COC(=O)O
> <PUBCHEM_OPENEYE_ISO_SMILES>
C(CCCN)CCCNCC(=O)N(CCCCCCCN)CC(=O)N[C@H](CCCCN)COC(=O)O
> <PUBCHEM_CACTVS_TPSA>
186
> <PUBCHEM_MONOISOTOPIC_WEIGHT>
516.39991878
> <PUBCHEM_TOTAL_CHARGE>
0
> <PUBCHEM_HEAVY_ATOM_COUNT>
36
> <PUBCHEM_ATOM_DEF_STEREO_COUNT>
1
> <PUBCHEM_ATOM_UDEF_STEREO_COUNT>
0
> <PUBCHEM_BOND_DEF_STEREO_COUNT>
0
> <PUBCHEM_BOND_UDEF_STEREO_COUNT>
0
> <PUBCHEM_ISOTOPIC_ATOM_COUNT>
0
> <PUBCHEM_COMPONENT_COUNT>
1
> <PUBCHEM_CACTVS_TAUTO_COUNT>
-1
> <PUBCHEM_COORDINATE_TYPE>
1
5
255
> <PUBCHEM_BONDANNOTATIONS>
12  7  6
$$$$
