513404
  -OEChem-10302200282D
 73 74  0     1  0  0  0  0  0999 V2000
    4.5981    0.1900    0.0000 S   0  0  0  0  0  0  0  0  0  0  0  0
    5.5981    0.1900    0.0000 O   0  0  0  0  0  0  0  0  0  0  0  0
    3.5981    0.1900    0.0000 O   0  0  0  0  0  0  0  0  0  0  0  0
    6.3301    3.1900    0.0000 O   0  0  0  0  0  0  0  0  0  0  0  0
    4.5981    3.1900    0.0000 O   0  0  0  0  0  0  0  0  0  0  0  0
   10.6603    2.6900    0.0000 O   0  0  0  0  0  0  0  0  0  0  0  0
    4.5981    1.1900    0.0000 N   0  0  3  0  0  0  0  0  0  0  0  0
    9.7942    1.1900    0.0000 N   0  0  0  0  0  0  0  0  0  0  0  0
    5.4641    1.6900    0.0000 C   0  0  1  0  0  0  0  0  0  0  0  0
    6.3301    1.1900    0.0000 C   0  0  0  0  0  0  0  0  0  0  0  0
    3.7320    1.6900    0.0000 C   0  0  0  0  0  0  0  0  0  0  0  0
    2.8660    1.1900    0.0000 C   0  0  0  0  0  0  0  0  0  0  0  0
    7.1962    1.6900    0.0000 C   0  0  0  0  0  0  0  0  0  0  0  0
    8.0622    1.1900    0.0000 C   0  0  0  0  0  0  0  0  0  0  0  0
    5.4641    2.6900    0.0000 C   0  0  0  0  0  0  0  0  0  0  0  0
    4.5981   -0.8100    0.0000 C   0  0  0  0  0  0  0  0  0  0  0  0
    2.0000    1.6900    0.0000 C   0  0  0  0  0  0  0  0  0  0  0  0
    2.8660    0.1900    0.0000 C   0  0  0  0  0  0  0  0  0  0  0  0
    8.9282    1.6900    0.0000 C   0  0  0  0  0  0  0  0  0  0  0  0
    5.4641   -1.3100    0.0000 C   0  0  0  0  0  0  0  0  0  0  0  0
    3.7320   -1.3100    0.0000 C   0  0  0  0  0  0  0  0  0  0  0  0
    5.4641   -2.3100    0.0000 C   0  0  0  0  0  0  0  0  0  0  0  0
    3.7320   -2.3100    0.0000 C   0  0  0  0  0  0  0  0  0  0  0  0
   10.6603    1.6900    0.0000 C   0  0  0  0  0  0  0  0  0  0  0  0
    4.5981   -2.8100    0.0000 C   0  0  0  0  0  0  0  0  0  0  0  0
   11.5263    1.1900    0.0000 C   0  0  0  0  0  0  0  0  0  0  0  0
   12.3923    1.6900    0.0000 C   0  0  0  0  0  0  0  0  0  0  0  0
   13.2583    1.1900    0.0000 C   0  0  0  0  0  0  0  0  0  0  0  0
    4.5981   -3.8100    0.0000 C   0  0  0  0  0  0  0  0  0  0  0  0
   14.1244    1.6900    0.0000 C   0  0  0  0  0  0  0  0  0  0  0  0
   14.1244    2.6900    0.0000 C   0  0  0  0  0  0  0  0  0  0  0  0
   14.9904    1.1900    0.0000 C   0  0  0  0  0  0  0  0  0  0  0  0
   14.9904    3.1900    0.0000 C   0  0  0  0  0  0  0  0  0  0  0  0
   15.8564    1.6900    0.0000 C   0  0  0  0  0  0  0  0  0  0  0  0
   15.8564    2.6900    0.0000 C   0  0  0  0  0  0  0  0  0  0  0  0
    5.4641    1.0700    0.0000 H   0  0  0  0  0  0  0  0  0  0  0  0
    5.9316    0.7151    0.0000 H   0  0  0  0  0  0  0  0  0  0  0  0
    6.7287    0.7151    0.0000 H   0  0  0  0  0  0  0  0  0  0  0  0
    4.1306    2.1650    0.0000 H   0  0  0  0  0  0  0  0  0  0  0  0
    3.3335    2.1650    0.0000 H   0  0  0  0  0  0  0  0  0  0  0  0
    2.8660    1.8100    0.0000 H   0  0  0  0  0  0  0  0  0  0  0  0
    7.5947    2.1650    0.0000 H   0  0  0  0  0  0  0  0  0  0  0  0
    6.7976    2.1650    0.0000 H   0  0  0  0  0  0  0  0  0  0  0  0
    7.6636    0.7151    0.0000 H   0  0  0  0  0  0  0  0  0  0  0  0
    8.4607    0.7151    0.0000 H   0  0  0  0  0  0  0  0  0  0  0  0
    2.3100    2.2269    0.0000 H   0  0  0  0  0  0  0  0  0  0  0  0
    1.4631    2.0000    0.0000 H   0  0  0  0  0  0  0  0  0  0  0  0
    1.6900    1.1531    0.0000 H   0  0  0  0  0  0  0  0  0  0  0  0
    2.2460    0.1900    0.0000 H   0  0  0  0  0  0  0  0  0  0  0  0
    2.8660   -0.4300    0.0000 H   0  0  0  0  0  0  0  0  0  0  0  0
    3.4860    0.1900    0.0000 H   0  0  0  0  0  0  0  0  0  0  0  0
    9.3267    2.1650    0.0000 H   0  0  0  0  0  0  0  0  0  0  0  0
    8.5297    2.1650    0.0000 H   0  0  0  0  0  0  0  0  0  0  0  0
    6.0010   -1.0000    0.0000 H   0  0  0  0  0  0  0  0  0  0  0  0
    3.1951   -1.0000    0.0000 H   0  0  0  0  0  0  0  0  0  0  0  0
    9.7942    0.5700    0.0000 H   0  0  0  0  0  0  0  0  0  0  0  0
    6.3301    3.8100    0.0000 H   0  0  0  0  0  0  0  0  0  0  0  0
    6.0010   -2.6200    0.0000 H   0  0  0  0  0  0  0  0  0  0  0  0
    3.1951   -2.6200    0.0000 H   0  0  0  0  0  0  0  0  0  0  0  0
   11.1278    0.7151    0.0000 H   0  0  0  0  0  0  0  0  0  0  0  0
   11.9248    0.7151    0.0000 H   0  0  0  0  0  0  0  0  0  0  0  0
   12.7908    2.1650    0.0000 H   0  0  0  0  0  0  0  0  0  0  0  0
   11.9938    2.1650    0.0000 H   0  0  0  0  0  0  0  0  0  0  0  0
   12.8598    0.7151    0.0000 H   0  0  0  0  0  0  0  0  0  0  0  0
   13.6569    0.7151    0.0000 H   0  0  0  0  0  0  0  0  0  0  0  0
    3.9781   -3.8100    0.0000 H   0  0  0  0  0  0  0  0  0  0  0  0
    4.5981   -4.4300    0.0000 H   0  0  0  0  0  0  0  0  0  0  0  0
    5.2181   -3.8100    0.0000 H   0  0  0  0  0  0  0  0  0  0  0  0
   13.5874    3.0000    0.0000 H   0  0  0  0  0  0  0  0  0  0  0  0
   14.9904    0.5700    0.0000 H   0  0  0  0  0  0  0  0  0  0  0  0
   14.9904    3.8100    0.0000 H   0  0  0  0  0  0  0  0  0  0  0  0
   16.3933    1.3800    0.0000 H   0  0  0  0  0  0  0  0  0  0  0  0
   16.3933    3.0000    0.0000 H   0  0  0  0  0  0  0  0  0  0  0  0
  1  2  2  0  0  0  0
  1  3  2  0  0  0  0
  1  7  1  0  0  0  0
  1 16  1  0  0  0  0
  4 15  1  0  0  0  0
  4 57  1  0  0  0  0
  5 15  2  0  0  0  0
  6 24  2  0  0  0  0
  9  7  1  6  0  0  0
  7 11  1  0  0  0  0
  8 19  1  0  0  0  0
  8 24  1  0  0  0  0
  8 56  1  0  0  0  0
  9 10  1  0  0  0  0
  9 15  1  0  0  0  0
  9 36  1  0  0  0  0
 10 13  1  0  0  0  0
 10 37  1  0  0  0  0
 10 38  1  0  0  0  0
 11 12  1  0  0  0  0
 11 39  1  0  0  0  0
 11 40  1  0  0  0  0
 12 17  1  0  0  0  0
 12 18  1  0  0  0  0
 12 41  1  0  0  0  0
 13 14  1  0  0  0  0
 13 42  1  0  0  0  0
 13 43  1  0  0  0  0
 14 19  1  0  0  0  0
 14 44  1  0  0  0  0
 14 45  1  0  0  0  0
 16 20  2  0  0  0  0
 16 21  1  0  0  0  0
 17 46  1  0  0  0  0
 17 47  1  0  0  0  0
 17 48  1  0  0  0  0
 18 49  1  0  0  0  0
 18 50  1  0  0  0  0
 18 51  1  0  0  0  0
 19 52  1  0  0  0  0
 19 53  1  0  0  0  0
 20 22  1  0  0  0  0
 20 54  1  0  0  0  0
 21 23  2  0  0  0  0
 21 55  1  0  0  0  0
 22 25  2  0  0  0  0
 22 58  1  0  0  0  0
 23 25  1  0  0  0  0
 23 59  1  0  0  0  0
 24 26  1  0  0  0  0
 25 29  1  0  0  0  0
 26 27  1  0  0  0  0
 26 60  1  0  0  0  0
 26 61  1  0  0  0  0
 27 28  1  0  0  0  0
 27 62  1  0  0  0  0
 27 63  1  0  0  0  0
 28 30  1  0  0  0  0
 28 64  1  0  0  0  0
 28 65  1  0  0  0  0
 29 66  1  0  0  0  0
 29 67  1  0  0  0  0
 29 68  1  0  0  0  0
 30 31  2  0  0  0  0
 30 32  1  0  0  0  0
 31 33  1  0  0  0  0
 31 69  1  0  0  0  0
 32 34  2  0  0  0  0
 32 70  1  0  0  0  0
 33 35  2  0  0  0  0
 33 71  1  0  0  0  0
 34 35  1  0  0  0  0
 34 72  1  0  0  0  0
 35 73  1  0  0  0  0
M  END
> <PUBCHEM_COMPOUND_CID>
513404
> <PUBCHEM_COMPOUND_CANONICALIZED>
1
> <PUBCHEM_CACTVS_COMPLEXITY>
735
> <PUBCHEM_CACTVS_HBOND_ACCEPTOR>
6
> <PUBCHEM_CACTVS_HBOND_DONOR>
2
> <PUBCHEM_CACTVS_ROTATABLE_BOND>
15
> <PUBCHEM_CACTVS_SUBSKEYS>
AAADcfB7OABAAAAAAAAAAAAAAAAAAAAAAAAwYAAAAAAAAAABQAAAHgQQSAAADSjB2AQyCYLAAgKIAiHSGHBCABAgAAAIiJmIAIgKIDKAkTCEYAAklgCYiAeYyICOEAAAAAAAAAAgAAAAAAAAAAAAAAAAAA==
> <PUBCHEM_IUPAC_OPENEYE_NAME>
(2S)-2-[isobutyl(p-tolylsulfonyl)amino]-6-(4-phenylbutanoylamino)hexanoic acid
> <PUBCHEM_IUPAC_CAS_NAME>
(2S)-2-[(4-methylphenyl)sulfonyl-(2-methylpropyl)amino]-6-[(1-oxo-4-phenylbutyl)amino]hexanoic acid
> <PUBCHEM_IUPAC_NAME_MARKUP>
(2<I>S</I>)-2-[(4-methylphenyl)sulfonyl-(2-methylpropyl)amino]-6-(4-phenylbutanoylamino)hexanoic acid
> <PUBCHEM_IUPAC_NAME>
(2S)-2-[(4-methylphenyl)sulfonyl-(2-methylpropyl)amino]-6-(4-phenylbutanoylamino)hexanoic acid
> <PUBCHEM_IUPAC_SYSTEMATIC_NAME>
(2S)-2-[(4-methylphenyl)sulfonyl-(2-methylpropyl)amino]-6-(4-phenylbutanoylamino)hexanoic acid
> <PUBCHEM_IUPAC_TRADITIONAL_NAME>
(2S)-2-[isobutyl(tosyl)amino]-6-(4-phenylbutanoylamino)hexanoic acid
> <PUBCHEM_IUPAC_INCHI>
InChI=1S/C27H38N2O5S/c1-21(2)20-29(35(33,34)24-17-15-22(3)16-18-24)25(27(31)32)13-7-8-19-28-26(30)14-9-12-23-10-5-4-6-11-23/h4-6,10-11,15-18,21,25H,7-9,12-14,19-20H2,1-3H3,(H,28,30)(H,31,32)/t25-/m0/s1
> <PUBCHEM_IUPAC_INCHIKEY>
PYLTWZXLMIVOSX-VWLOTQADSA-N
> <PUBCHEM_XLOGP3_AA>
5
> <PUBCHEM_EXACT_MASS>
502.25014349
> <PUBCHEM_MOLECULAR_FORMULA>
C27H38N2O5S
> <PUBCHEM_MOLECULAR_WEIGHT>
502.7
> <PUBCHEM_OPENEYE_CAN_SMILES>
CC1=CC=C(C=C1)S(=O)(=O)N(CC(C)C)C(CCCCNC(=O)CCCC2=CC=CC=C2)C(=O)O
> <PUBCHEM_OPENEYE_ISO_SMILES>
CC1=CC=C(C=C1)S(=O)(=O)N(CC(C)C)[C@@H](CCCCNC(=O)CCCC2=CC=CC=C2)C(=O)O
> <PUBCHEM_CACTVS_TPSA>
112
> <PUBCHEM_MONOISOTOPIC_WEIGHT>
502.25014349
> <PUBCHEM_TOTAL_CHARGE>
0
> <PUBCHEM_HEAVY_ATOM_COUNT>
35
> <PUBCHEM_ATOM_DEF_STEREO_COUNT>
1
> <PUBCHEM_ATOM_UDEF_STEREO_COUNT>
0
> <PUBCHEM_BOND_DEF_STEREO_COUNT>
0
> <PUBCHEM_BOND_UDEF_STEREO_COUNT>
0
> <PUBCHEM_ISOTOPIC_ATOM_COUNT>
0
> <PUBCHEM_COMPONENT_COUNT>
1
> <PUBCHEM_CACTVS_TAUTO_COUNT>
-1
> <PUBCHEM_COORDINATE_TYPE>
1
5
255
> <PUBCHEM_BONDANNOTATIONS>
16  20  8
16  21  8
20  22  8
21  23  8
22  25  8
23  25  8
30  31  8
30  32  8
31  33  8
32  34  8
33  35  8
34  35  8
9  7  6
$$$$
