513456
  -OEChem-10302200282D
 80 79  0     1  0  0  0  0  0999 V2000
    5.4641    3.7500    0.0000 O   0  0  0  0  0  0  0  0  0  0  0  0
    6.3301    5.2500    0.0000 O   0  0  0  0  0  0  0  0  0  0  0  0
    5.4641    6.7500    0.0000 O   0  0  0  0  0  0  0  0  0  0  0  0
    4.5981    2.2500    0.0000 O   0  0  0  0  0  0  0  0  0  0  0  0
    2.8660    4.2500    0.0000 O   0  0  0  0  0  0  0  0  0  0  0  0
    3.7320    5.7500    0.0000 N   0  0  0  0  0  0  0  0  0  0  0  0
    8.9282   -2.2500    0.0000 C   0  0  0  0  0  0  0  0  0  0  0  0
    8.9282   -3.2500    0.0000 C   0  0  0  0  0  0  0  0  0  0  0  0
    8.0622   -1.7500    0.0000 C   0  0  0  0  0  0  0  0  0  0  0  0
    9.7942   -3.7500    0.0000 C   0  0  0  0  0  0  0  0  0  0  0  0
    8.0622   -0.7500    0.0000 C   0  0  0  0  0  0  0  0  0  0  0  0
    9.7942   -4.7500    0.0000 C   0  0  0  0  0  0  0  0  0  0  0  0
    7.1962   -0.2500    0.0000 C   0  0  0  0  0  0  0  0  0  0  0  0
   10.6603   -5.2500    0.0000 C   0  0  0  0  0  0  0  0  0  0  0  0
    7.1962    0.7500    0.0000 C   0  0  0  0  0  0  0  0  0  0  0  0
   10.6603   -6.2500    0.0000 C   0  0  0  0  0  0  0  0  0  0  0  0
    6.3301    1.2500    0.0000 C   0  0  0  0  0  0  0  0  0  0  0  0
   11.5263   -6.7500    0.0000 C   0  0  0  0  0  0  0  0  0  0  0  0
    6.3301    2.2500    0.0000 C   0  0  0  0  0  0  0  0  0  0  0  0
   11.5263   -7.7500    0.0000 C   0  0  0  0  0  0  0  0  0  0  0  0
    4.5981    5.2500    0.0000 C   0  0  3  0  0  0  0  0  0  0  0  0
    5.4641    2.7500    0.0000 C   0  0  0  0  0  0  0  0  0  0  0  0
    4.5981    4.2500    0.0000 C   0  0  0  0  0  0  0  0  0  0  0  0
    5.4641    5.7500    0.0000 C   0  0  0  0  0  0  0  0  0  0  0  0
   12.3923   -8.2500    0.0000 C   0  0  0  0  0  0  0  0  0  0  0  0
    2.8660    5.2500    0.0000 C   0  0  0  0  0  0  0  0  0  0  0  0
    7.1962    5.7500    0.0000 C   0  0  0  0  0  0  0  0  0  0  0  0
    6.3301    7.2500    0.0000 C   0  0  0  0  0  0  0  0  0  0  0  0
    2.0000    5.7500    0.0000 C   0  0  0  0  0  0  0  0  0  0  0  0
    8.0622    5.2500    0.0000 C   0  0  0  0  0  0  0  0  0  0  0  0
    6.3301    8.2500    0.0000 C   0  0  0  0  0  0  0  0  0  0  0  0
    9.5388   -2.3577    0.0000 H   0  0  0  0  0  0  0  0  0  0  0  0
    9.1403   -1.6674    0.0000 H   0  0  0  0  0  0  0  0  0  0  0  0
    8.3176   -3.1423    0.0000 H   0  0  0  0  0  0  0  0  0  0  0  0
    8.7162   -3.8326    0.0000 H   0  0  0  0  0  0  0  0  0  0  0  0
    7.4516   -1.6423    0.0000 H   0  0  0  0  0  0  0  0  0  0  0  0
    7.8501   -2.3326    0.0000 H   0  0  0  0  0  0  0  0  0  0  0  0
   10.4048   -3.8577    0.0000 H   0  0  0  0  0  0  0  0  0  0  0  0
   10.0063   -3.1674    0.0000 H   0  0  0  0  0  0  0  0  0  0  0  0
    8.6728   -0.8577    0.0000 H   0  0  0  0  0  0  0  0  0  0  0  0
    8.2742   -0.1674    0.0000 H   0  0  0  0  0  0  0  0  0  0  0  0
    9.1836   -4.6423    0.0000 H   0  0  0  0  0  0  0  0  0  0  0  0
    9.5822   -5.3326    0.0000 H   0  0  0  0  0  0  0  0  0  0  0  0
    6.5856   -0.1423    0.0000 H   0  0  0  0  0  0  0  0  0  0  0  0
    6.9841   -0.8326    0.0000 H   0  0  0  0  0  0  0  0  0  0  0  0
   11.2708   -5.3577    0.0000 H   0  0  0  0  0  0  0  0  0  0  0  0
   10.8723   -4.6674    0.0000 H   0  0  0  0  0  0  0  0  0  0  0  0
    7.8067    0.6423    0.0000 H   0  0  0  0  0  0  0  0  0  0  0  0
    7.4082    1.3326    0.0000 H   0  0  0  0  0  0  0  0  0  0  0  0
   10.0497   -6.1423    0.0000 H   0  0  0  0  0  0  0  0  0  0  0  0
   10.4482   -6.8326    0.0000 H   0  0  0  0  0  0  0  0  0  0  0  0
    5.7196    1.3577    0.0000 H   0  0  0  0  0  0  0  0  0  0  0  0
    6.1181    0.6674    0.0000 H   0  0  0  0  0  0  0  0  0  0  0  0
   12.1369   -6.8577    0.0000 H   0  0  0  0  0  0  0  0  0  0  0  0
   11.7383   -6.1674    0.0000 H   0  0  0  0  0  0  0  0  0  0  0  0
    6.9407    2.1423    0.0000 H   0  0  0  0  0  0  0  0  0  0  0  0
    6.5422    2.8326    0.0000 H   0  0  0  0  0  0  0  0  0  0  0  0
   10.9157   -7.6423    0.0000 H   0  0  0  0  0  0  0  0  0  0  0  0
   11.3142   -8.3326    0.0000 H   0  0  0  0  0  0  0  0  0  0  0  0
    4.5981    5.8700    0.0000 H   0  0  0  0  0  0  0  0  0  0  0  0
    3.9875    4.3577    0.0000 H   0  0  0  0  0  0  0  0  0  0  0  0
    4.3860    3.6674    0.0000 H   0  0  0  0  0  0  0  0  0  0  0  0
    5.4641    5.1300    0.0000 H   0  0  0  0  0  0  0  0  0  0  0  0
   12.0823   -8.7869    0.0000 H   0  0  0  0  0  0  0  0  0  0  0  0
   12.9292   -8.5600    0.0000 H   0  0  0  0  0  0  0  0  0  0  0  0
   12.7023   -7.7131    0.0000 H   0  0  0  0  0  0  0  0  0  0  0  0
    3.7320    6.3700    0.0000 H   0  0  0  0  0  0  0  0  0  0  0  0
    7.5947    6.2250    0.0000 H   0  0  0  0  0  0  0  0  0  0  0  0
    6.7976    6.2250    0.0000 H   0  0  0  0  0  0  0  0  0  0  0  0
    6.5422    6.6674    0.0000 H   0  0  0  0  0  0  0  0  0  0  0  0
    6.9407    7.3577    0.0000 H   0  0  0  0  0  0  0  0  0  0  0  0
    2.3100    6.2869    0.0000 H   0  0  0  0  0  0  0  0  0  0  0  0
    1.4631    6.0600    0.0000 H   0  0  0  0  0  0  0  0  0  0  0  0
    1.6900    5.2131    0.0000 H   0  0  0  0  0  0  0  0  0  0  0  0
    7.7522    4.7131    0.0000 H   0  0  0  0  0  0  0  0  0  0  0  0
    8.5991    4.9400    0.0000 H   0  0  0  0  0  0  0  0  0  0  0  0
    8.3722    5.7869    0.0000 H   0  0  0  0  0  0  0  0  0  0  0  0
    6.9501    8.2500    0.0000 H   0  0  0  0  0  0  0  0  0  0  0  0
    6.3301    8.8700    0.0000 H   0  0  0  0  0  0  0  0  0  0  0  0
    5.7101    8.2500    0.0000 H   0  0  0  0  0  0  0  0  0  0  0  0
  1 22  1  0  0  0  0
  1 23  1  0  0  0  0
  2 24  1  0  0  0  0
  2 27  1  0  0  0  0
  3 24  1  0  0  0  0
  3 28  1  0  0  0  0
  4 22  2  0  0  0  0
  5 26  2  0  0  0  0
  6 21  1  0  0  0  0
  6 26  1  0  0  0  0
  6 67  1  0  0  0  0
  7  8  1  0  0  0  0
  7  9  1  0  0  0  0
  7 32  1  0  0  0  0
  7 33  1  0  0  0  0
  8 10  1  0  0  0  0
  8 34  1  0  0  0  0
  8 35  1  0  0  0  0
  9 11  1  0  0  0  0
  9 36  1  0  0  0  0
  9 37  1  0  0  0  0
 10 12  1  0  0  0  0
 10 38  1  0  0  0  0
 10 39  1  0  0  0  0
 11 13  1  0  0  0  0
 11 40  1  0  0  0  0
 11 41  1  0  0  0  0
 12 14  1  0  0  0  0
 12 42  1  0  0  0  0
 12 43  1  0  0  0  0
 13 15  1  0  0  0  0
 13 44  1  0  0  0  0
 13 45  1  0  0  0  0
 14 16  1  0  0  0  0
 14 46  1  0  0  0  0
 14 47  1  0  0  0  0
 15 17  1  0  0  0  0
 15 48  1  0  0  0  0
 15 49  1  0  0  0  0
 16 18  1  0  0  0  0
 16 50  1  0  0  0  0
 16 51  1  0  0  0  0
 17 19  1  0  0  0  0
 17 52  1  0  0  0  0
 17 53  1  0  0  0  0
 18 20  1  0  0  0  0
 18 54  1  0  0  0  0
 18 55  1  0  0  0  0
 19 22  1  0  0  0  0
 19 56  1  0  0  0  0
 19 57  1  0  0  0  0
 20 25  1  0  0  0  0
 20 58  1  0  0  0  0
 20 59  1  0  0  0  0
 21 23  1  0  0  0  0
 21 24  1  0  0  0  0
 21 60  1  0  0  0  0
 23 61  1  0  0  0  0
 23 62  1  0  0  0  0
 24 63  1  0  0  0  0
 25 64  1  0  0  0  0
 25 65  1  0  0  0  0
 25 66  1  0  0  0  0
 26 29  1  0  0  0  0
 27 30  1  0  0  0  0
 27 68  1  0  0  0  0
 27 69  1  0  0  0  0
 28 31  1  0  0  0  0
 28 70  1  0  0  0  0
 28 71  1  0  0  0  0
 29 72  1  0  0  0  0
 29 73  1  0  0  0  0
 29 74  1  0  0  0  0
 30 75  1  0  0  0  0
 30 76  1  0  0  0  0
 30 77  1  0  0  0  0
 31 78  1  0  0  0  0
 31 79  1  0  0  0  0
 31 80  1  0  0  0  0
M  END
> <PUBCHEM_COMPOUND_CID>
513456
> <PUBCHEM_COMPOUND_CANONICALIZED>
1
> <PUBCHEM_CACTVS_COMPLEXITY>
424
> <PUBCHEM_CACTVS_HBOND_ACCEPTOR>
5
> <PUBCHEM_CACTVS_HBOND_DONOR>
1
> <PUBCHEM_CACTVS_ROTATABLE_BOND>
23
> <PUBCHEM_CACTVS_SUBSKEYS>
AAADcfB6OAAAAAAAAAAAAAAAAAAAAAAAAAAAAAAAAAAAAAAAAAAAHgAQAAAACCjxgAcCCALABAAIAAGQGAAAAAAAAAAAAIEIAAASABIAAAAjAAAFFgCUAAGIyKCAAAAAAAAAAAAAAAAAAAAAAAAAAAAAAA==
> <PUBCHEM_IUPAC_OPENEYE_NAME>
(2-acetamido-3,3-diethoxy-propyl) hexadecanoate
> <PUBCHEM_IUPAC_CAS_NAME>
hexadecanoic acid (2-acetamido-3,3-diethoxypropyl) ester
> <PUBCHEM_IUPAC_NAME_MARKUP>
(2-acetamido-3,3-diethoxypropyl) hexadecanoate
> <PUBCHEM_IUPAC_NAME>
(2-acetamido-3,3-diethoxypropyl) hexadecanoate
> <PUBCHEM_IUPAC_SYSTEMATIC_NAME>
(2-acetamido-3,3-diethoxy-propyl) hexadecanoate
> <PUBCHEM_IUPAC_TRADITIONAL_NAME>
palmitic acid (2-acetamido-3,3-diethoxy-propyl) ester
> <PUBCHEM_IUPAC_INCHI>
InChI=1S/C25H49NO5/c1-5-8-9-10-11-12-13-14-15-16-17-18-19-20-24(28)31-21-23(26-22(4)27)25(29-6-2)30-7-3/h23,25H,5-21H2,1-4H3,(H,26,27)
> <PUBCHEM_IUPAC_INCHIKEY>
FIZXFJZRTPDHOL-UHFFFAOYSA-N
> <PUBCHEM_XLOGP3_AA>
7.4
> <PUBCHEM_EXACT_MASS>
443.36107366
> <PUBCHEM_MOLECULAR_FORMULA>
C25H49NO5
> <PUBCHEM_MOLECULAR_WEIGHT>
443.7
> <PUBCHEM_OPENEYE_CAN_SMILES>
CCCCCCCCCCCCCCCC(=O)OCC(C(OCC)OCC)NC(=O)C
> <PUBCHEM_OPENEYE_ISO_SMILES>
CCCCCCCCCCCCCCCC(=O)OCC(C(OCC)OCC)NC(=O)C
> <PUBCHEM_CACTVS_TPSA>
73.9
> <PUBCHEM_MONOISOTOPIC_WEIGHT>
443.36107366
> <PUBCHEM_TOTAL_CHARGE>
0
> <PUBCHEM_HEAVY_ATOM_COUNT>
31
> <PUBCHEM_ATOM_DEF_STEREO_COUNT>
0
> <PUBCHEM_ATOM_UDEF_STEREO_COUNT>
1
> <PUBCHEM_BOND_DEF_STEREO_COUNT>
0
> <PUBCHEM_BOND_UDEF_STEREO_COUNT>
0
> <PUBCHEM_ISOTOPIC_ATOM_COUNT>
0
> <PUBCHEM_COMPONENT_COUNT>
1
> <PUBCHEM_CACTVS_TAUTO_COUNT>
-1
> <PUBCHEM_COORDINATE_TYPE>
1
5
255
> <PUBCHEM_BONDANNOTATIONS>
21  23  3
$$$$
