513475
  -OEChem-10302200282D
 33 34  0     1  0  0  0  0  0999 V2000
    3.3608    2.8815    0.0000 I   0  0  0  0  0  0  0  0  0  0  0  0
    2.5896   -1.0664    0.0000 O   0  0  0  0  0  0  0  0  0  0  0  0
    5.7739   -3.3799    0.0000 O   0  0  0  0  0  0  0  0  0  0  0  0
    6.8249    0.8815    0.0000 O   0  0  0  0  0  0  0  0  0  0  0  0
    5.0929    3.8815    0.0000 O   0  0  0  0  0  0  0  0  0  0  0  0
    5.0929    0.8815    0.0000 N   0  0  0  0  0  0  0  0  0  0  0  0
    5.9589    2.3815    0.0000 N   0  0  0  0  0  0  0  0  0  0  0  0
    4.2839   -0.7063    0.0000 C   0  0  1  0  0  0  0  0  0  0  0  0
    5.0929   -0.1185    0.0000 C   0  0  1  0  0  0  0  0  0  0  0  0
    5.5929   -1.6573    0.0000 C   0  0  2  0  0  0  0  0  0  0  0  0
    4.5929   -1.6573    0.0000 C   0  0  0  0  0  0  0  0  0  0  0  0
    5.9019   -0.7063    0.0000 C   0  0  0  0  0  0  0  0  0  0  0  0
    3.3328   -0.3973    0.0000 C   0  0  0  0  0  0  0  0  0  0  0  0
    6.1807   -2.4664    0.0000 C   0  0  0  0  0  0  0  0  0  0  0  0
    5.9589    1.3815    0.0000 C   0  0  0  0  0  0  0  0  0  0  0  0
    4.2268    1.3815    0.0000 C   0  0  0  0  0  0  0  0  0  0  0  0
    4.2268    2.3815    0.0000 C   0  0  0  0  0  0  0  0  0  0  0  0
    5.0929    2.8815    0.0000 C   0  0  0  0  0  0  0  0  0  0  0  0
    3.8454   -1.1447    0.0000 H   0  0  0  0  0  0  0  0  0  0  0  0
    5.6453    0.1630    0.0000 H   0  0  0  0  0  0  0  0  0  0  0  0
    6.2052   -1.5603    0.0000 H   0  0  0  0  0  0  0  0  0  0  0  0
    3.9864   -1.7862    0.0000 H   0  0  0  0  0  0  0  0  0  0  0  0
    4.6577   -2.2740    0.0000 H   0  0  0  0  0  0  0  0  0  0  0  0
    6.4683   -0.9585    0.0000 H   0  0  0  0  0  0  0  0  0  0  0  0
    6.2119   -0.1694    0.0000 H   0  0  0  0  0  0  0  0  0  0  0  0
    3.6239    0.1502    0.0000 H   0  0  0  0  0  0  0  0  0  0  0  0
    2.8442   -0.0156    0.0000 H   0  0  0  0  0  0  0  0  0  0  0  0
    6.6947   -2.8131    0.0000 H   0  0  0  0  0  0  0  0  0  0  0  0
    6.6114   -2.0204    0.0000 H   0  0  0  0  0  0  0  0  0  0  0  0
    3.6899    1.0715    0.0000 H   0  0  0  0  0  0  0  0  0  0  0  0
    2.0000   -0.8748    0.0000 H   0  0  0  0  0  0  0  0  0  0  0  0
    6.1384   -3.8815    0.0000 H   0  0  0  0  0  0  0  0  0  0  0  0
    6.4958    2.6915    0.0000 H   0  0  0  0  0  0  0  0  0  0  0  0
  1 17  1  0  0  0  0
  2 13  1  0  0  0  0
  2 31  1  0  0  0  0
  3 14  1  0  0  0  0
  3 32  1  0  0  0  0
  4 15  2  0  0  0  0
  5 18  2  0  0  0  0
  9  6  1  6  0  0  0
  6 15  1  0  0  0  0
  6 16  1  0  0  0  0
  7 15  1  0  0  0  0
  7 18  1  0  0  0  0
  7 33  1  0  0  0  0
  8  9  1  0  0  0  0
  8 11  1  0  0  0  0
  8 13  1  1  0  0  0
  8 19  1  0  0  0  0
  9 12  1  0  0  0  0
  9 20  1  0  0  0  0
 10 11  1  0  0  0  0
 10 12  1  0  0  0  0
 10 14  1  6  0  0  0
 10 21  1  0  0  0  0
 11 22  1  0  0  0  0
 11 23  1  0  0  0  0
 12 24  1  0  0  0  0
 12 25  1  0  0  0  0
 13 26  1  0  0  0  0
 13 27  1  0  0  0  0
 14 28  1  0  0  0  0
 14 29  1  0  0  0  0
 16 17  2  0  0  0  0
 16 30  1  0  0  0  0
 17 18  1  0  0  0  0
M  END
> <PUBCHEM_COMPOUND_CID>
513475
> <PUBCHEM_COMPOUND_CANONICALIZED>
1
> <PUBCHEM_CACTVS_COMPLEXITY>
399
> <PUBCHEM_CACTVS_HBOND_ACCEPTOR>
4
> <PUBCHEM_CACTVS_HBOND_DONOR>
3
> <PUBCHEM_CACTVS_ROTATABLE_BOND>
3
> <PUBCHEM_CACTVS_SUBSKEYS>
AAADccBzOAAAAgAAAAAAAAAAAAAAAYAAAAAgAAAAAAAAAAAAAAAAHgAwCAAADSjjgAYBAAPAAgCIAAFWUACAAAAAAAAAAAAIAECAEAIAgAAEQAAOByIAAMGwcBMOAAAAAAAAAAAAAAAAAAAAASAAAQAAAA==
> <PUBCHEM_IUPAC_OPENEYE_NAME>
1-[(1R,2R,4R)-2,4-bis(hydroxymethyl)cyclopentyl]-5-iodo-pyrimidine-2,4-dione
> <PUBCHEM_IUPAC_CAS_NAME>
1-[(1R,2R,4R)-2,4-bis(hydroxymethyl)cyclopentyl]-5-iodopyrimidine-2,4-dione
> <PUBCHEM_IUPAC_NAME_MARKUP>
1-[(1<I>R</I>,2<I>R</I>,4<I>R</I>)-2,4-bis(hydroxymethyl)cyclopentyl]-5-iodopyrimidine-2,4-dione
> <PUBCHEM_IUPAC_NAME>
1-[(1R,2R,4R)-2,4-bis(hydroxymethyl)cyclopentyl]-5-iodopyrimidine-2,4-dione
> <PUBCHEM_IUPAC_SYSTEMATIC_NAME>
1-[(1R,2R,4R)-2,4-bis(hydroxymethyl)cyclopentyl]-5-iodanyl-pyrimidine-2,4-dione
> <PUBCHEM_IUPAC_TRADITIONAL_NAME>
1-[(1R,2R,4R)-2,4-dimethylolcyclopentyl]-5-iodo-pyrimidine-2,4-quinone
> <PUBCHEM_IUPAC_INCHI>
InChI=1S/C11H15IN2O4/c12-8-3-14(11(18)13-10(8)17)9-2-6(4-15)1-7(9)5-16/h3,6-7,9,15-16H,1-2,4-5H2,(H,13,17,18)/t6-,7+,9-/m1/s1
> <PUBCHEM_IUPAC_INCHIKEY>
GSFURJRGVWGCNJ-BKPPORCPSA-N
> <PUBCHEM_XLOGP3_AA>
-0.4
> <PUBCHEM_EXACT_MASS>
366.00765
> <PUBCHEM_MOLECULAR_FORMULA>
C11H15IN2O4
> <PUBCHEM_MOLECULAR_WEIGHT>
366.15
> <PUBCHEM_OPENEYE_CAN_SMILES>
C1C(CC(C1CO)N2C=C(C(=O)NC2=O)I)CO
> <PUBCHEM_OPENEYE_ISO_SMILES>
C1[C@H](C[C@H]([C@@H]1CO)N2C=C(C(=O)NC2=O)I)CO
> <PUBCHEM_CACTVS_TPSA>
89.9
> <PUBCHEM_MONOISOTOPIC_WEIGHT>
366.00765
> <PUBCHEM_TOTAL_CHARGE>
0
> <PUBCHEM_HEAVY_ATOM_COUNT>
18
> <PUBCHEM_ATOM_DEF_STEREO_COUNT>
3
> <PUBCHEM_ATOM_UDEF_STEREO_COUNT>
0
> <PUBCHEM_BOND_DEF_STEREO_COUNT>
0
> <PUBCHEM_BOND_UDEF_STEREO_COUNT>
0
> <PUBCHEM_ISOTOPIC_ATOM_COUNT>
0
> <PUBCHEM_COMPONENT_COUNT>
1
> <PUBCHEM_CACTVS_TAUTO_COUNT>
-1
> <PUBCHEM_COORDINATE_TYPE>
1
5
255
> <PUBCHEM_BONDANNOTATIONS>
10  14  6
16  17  8
17  18  8
6  15  8
6  16  8
9  6  6
7  15  8
7  18  8
8  13  5
$$$$
