513429
  -OEChem-10302200282D
 82 84  0     1  0  0  0  0  0999 V2000
    3.7320   -3.0950    0.0000 S   0  0  0  0  0  0  0  0  0  0  0  0
   10.6603    2.9050    0.0000 F   0  0  0  0  0  0  0  0  0  0  0  0
    6.3301   -1.5950    0.0000 O   0  0  0  0  0  0  0  0  0  0  0  0
    4.7320   -3.0950    0.0000 O   0  0  0  0  0  0  0  0  0  0  0  0
    2.7320   -3.0950    0.0000 O   0  0  0  0  0  0  0  0  0  0  0  0
    8.0622    2.4050    0.0000 O   0  0  0  0  0  0  0  0  0  0  0  0
    3.7320   -2.0950    0.0000 N   0  0  3  0  0  0  0  0  0  0  0  0
    6.3301    2.4050    0.0000 N   0  0  0  0  0  0  0  0  0  0  0  0
    8.0622    4.4050    0.0000 N   0  0  3  0  0  0  0  0  0  0  0  0
    3.7320   -7.0950    0.0000 N   0  0  0  0  0  0  0  0  0  0  0  0
    4.5981   -1.5950    0.0000 C   0  0  1  0  0  0  0  0  0  0  0  0
    4.5981   -0.5950    0.0000 C   0  0  0  0  0  0  0  0  0  0  0  0
    2.8660   -1.5950    0.0000 C   0  0  0  0  0  0  0  0  0  0  0  0
    5.4641   -0.0950    0.0000 C   0  0  0  0  0  0  0  0  0  0  0  0
    2.8660   -0.5950    0.0000 C   0  0  0  0  0  0  0  0  0  0  0  0
    5.4641   -2.0950    0.0000 C   0  0  0  0  0  0  0  0  0  0  0  0
    5.4641    0.9050    0.0000 C   0  0  0  0  0  0  0  0  0  0  0  0
    3.7320   -4.0950    0.0000 C   0  0  0  0  0  0  0  0  0  0  0  0
    2.0000   -0.0950    0.0000 C   0  0  0  0  0  0  0  0  0  0  0  0
    3.7320   -0.0950    0.0000 C   0  0  0  0  0  0  0  0  0  0  0  0
    6.3301    1.4050    0.0000 C   0  0  0  0  0  0  0  0  0  0  0  0
    4.5981   -4.5950    0.0000 C   0  0  0  0  0  0  0  0  0  0  0  0
    2.8660   -4.5950    0.0000 C   0  0  0  0  0  0  0  0  0  0  0  0
    4.5981   -5.5950    0.0000 C   0  0  0  0  0  0  0  0  0  0  0  0
    2.8660   -5.5950    0.0000 C   0  0  0  0  0  0  0  0  0  0  0  0
    7.1962    2.9050    0.0000 C   0  0  0  0  0  0  0  0  0  0  0  0
    3.7320   -6.0950    0.0000 C   0  0  0  0  0  0  0  0  0  0  0  0
    7.1962    3.9050    0.0000 C   0  0  0  0  0  0  0  0  0  0  0  0
    8.9282    3.9050    0.0000 C   0  0  0  0  0  0  0  0  0  0  0  0
    8.0622    5.4050    0.0000 C   0  0  0  0  0  0  0  0  0  0  0  0
    9.7942    4.4050    0.0000 C   0  0  0  0  0  0  0  0  0  0  0  0
    7.1962    5.9050    0.0000 C   0  0  0  0  0  0  0  0  0  0  0  0
    8.9282    5.9050    0.0000 C   0  0  0  0  0  0  0  0  0  0  0  0
   10.6603    3.9050    0.0000 C   0  0  0  0  0  0  0  0  0  0  0  0
    9.7942    5.4050    0.0000 C   0  0  0  0  0  0  0  0  0  0  0  0
    7.1962    6.9050    0.0000 C   0  0  0  0  0  0  0  0  0  0  0  0
    8.9282    6.9050    0.0000 C   0  0  0  0  0  0  0  0  0  0  0  0
    8.0622    7.4050    0.0000 C   0  0  0  0  0  0  0  0  0  0  0  0
   11.5263    4.4050    0.0000 C   0  0  0  0  0  0  0  0  0  0  0  0
   10.6603    5.9050    0.0000 C   0  0  0  0  0  0  0  0  0  0  0  0
   11.5263    5.4050    0.0000 C   0  0  0  0  0  0  0  0  0  0  0  0
    4.5981   -2.2150    0.0000 H   0  0  0  0  0  0  0  0  0  0  0  0
    4.3860   -0.0124    0.0000 H   0  0  0  0  0  0  0  0  0  0  0  0
    3.9875   -0.7027    0.0000 H   0  0  0  0  0  0  0  0  0  0  0  0
    2.2554   -1.4873    0.0000 H   0  0  0  0  0  0  0  0  0  0  0  0
    2.6540   -2.1776    0.0000 H   0  0  0  0  0  0  0  0  0  0  0  0
    5.6762   -0.6776    0.0000 H   0  0  0  0  0  0  0  0  0  0  0  0
    6.0747    0.0127    0.0000 H   0  0  0  0  0  0  0  0  0  0  0  0
    2.8660    0.0250    0.0000 H   0  0  0  0  0  0  0  0  0  0  0  0
    5.0656   -2.5700    0.0000 H   0  0  0  0  0  0  0  0  0  0  0  0
    5.8626   -2.5700    0.0000 H   0  0  0  0  0  0  0  0  0  0  0  0
    5.2520    1.4876    0.0000 H   0  0  0  0  0  0  0  0  0  0  0  0
    4.8535    0.7973    0.0000 H   0  0  0  0  0  0  0  0  0  0  0  0
    2.3100    0.4419    0.0000 H   0  0  0  0  0  0  0  0  0  0  0  0
    1.4631    0.2150    0.0000 H   0  0  0  0  0  0  0  0  0  0  0  0
    1.6900   -0.6319    0.0000 H   0  0  0  0  0  0  0  0  0  0  0  0
    4.0420   -0.6319    0.0000 H   0  0  0  0  0  0  0  0  0  0  0  0
    4.2690    0.2150    0.0000 H   0  0  0  0  0  0  0  0  0  0  0  0
    3.4220    0.4419    0.0000 H   0  0  0  0  0  0  0  0  0  0  0  0
    6.5422    0.8224    0.0000 H   0  0  0  0  0  0  0  0  0  0  0  0
    6.9407    1.5127    0.0000 H   0  0  0  0  0  0  0  0  0  0  0  0
    6.8671   -1.9050    0.0000 H   0  0  0  0  0  0  0  0  0  0  0  0
    5.1350   -4.2850    0.0000 H   0  0  0  0  0  0  0  0  0  0  0  0
    2.3291   -4.2850    0.0000 H   0  0  0  0  0  0  0  0  0  0  0  0
    5.7932    2.7150    0.0000 H   0  0  0  0  0  0  0  0  0  0  0  0
    5.1350   -5.9050    0.0000 H   0  0  0  0  0  0  0  0  0  0  0  0
    2.3291   -5.9050    0.0000 H   0  0  0  0  0  0  0  0  0  0  0  0
    6.9841    4.4876    0.0000 H   0  0  0  0  0  0  0  0  0  0  0  0
    6.5856    3.7973    0.0000 H   0  0  0  0  0  0  0  0  0  0  0  0
    8.5297    3.4300    0.0000 H   0  0  0  0  0  0  0  0  0  0  0  0
    9.3267    3.4300    0.0000 H   0  0  0  0  0  0  0  0  0  0  0  0
    3.1951   -7.4050    0.0000 H   0  0  0  0  0  0  0  0  0  0  0  0
    4.2690   -7.4050    0.0000 H   0  0  0  0  0  0  0  0  0  0  0  0
    6.6592    5.5950    0.0000 H   0  0  0  0  0  0  0  0  0  0  0  0
    9.4651    5.5950    0.0000 H   0  0  0  0  0  0  0  0  0  0  0  0
    9.2573    5.7150    0.0000 H   0  0  0  0  0  0  0  0  0  0  0  0
    6.6592    7.2150    0.0000 H   0  0  0  0  0  0  0  0  0  0  0  0
    9.4651    7.2150    0.0000 H   0  0  0  0  0  0  0  0  0  0  0  0
    8.0622    8.0250    0.0000 H   0  0  0  0  0  0  0  0  0  0  0  0
   12.0632    4.0950    0.0000 H   0  0  0  0  0  0  0  0  0  0  0  0
   10.6603    6.5250    0.0000 H   0  0  0  0  0  0  0  0  0  0  0  0
   12.0632    5.7150    0.0000 H   0  0  0  0  0  0  0  0  0  0  0  0
  1  4  2  0  0  0  0
  1  5  2  0  0  0  0
  1  7  1  0  0  0  0
  1 18  1  0  0  0  0
  2 34  1  0  0  0  0
  3 16  1  0  0  0  0
  3 62  1  0  0  0  0
  6 26  2  0  0  0  0
 11  7  1  1  0  0  0
  7 13  1  0  0  0  0
  8 21  1  0  0  0  0
  8 26  1  0  0  0  0
  8 65  1  0  0  0  0
  9 28  1  0  0  0  0
  9 29  1  0  0  0  0
  9 30  1  0  0  0  0
 10 27  1  0  0  0  0
 10 72  1  0  0  0  0
 10 73  1  0  0  0  0
 11 12  1  0  0  0  0
 11 16  1  0  0  0  0
 11 42  1  0  0  0  0
 12 14  1  0  0  0  0
 12 43  1  0  0  0  0
 12 44  1  0  0  0  0
 13 15  1  0  0  0  0
 13 45  1  0  0  0  0
 13 46  1  0  0  0  0
 14 17  1  0  0  0  0
 14 47  1  0  0  0  0
 14 48  1  0  0  0  0
 15 19  1  0  0  0  0
 15 20  1  0  0  0  0
 15 49  1  0  0  0  0
 16 50  1  0  0  0  0
 16 51  1  0  0  0  0
 17 21  1  0  0  0  0
 17 52  1  0  0  0  0
 17 53  1  0  0  0  0
 18 22  2  0  0  0  0
 18 23  1  0  0  0  0
 19 54  1  0  0  0  0
 19 55  1  0  0  0  0
 19 56  1  0  0  0  0
 20 57  1  0  0  0  0
 20 58  1  0  0  0  0
 20 59  1  0  0  0  0
 21 60  1  0  0  0  0
 21 61  1  0  0  0  0
 22 24  1  0  0  0  0
 22 63  1  0  0  0  0
 23 25  2  0  0  0  0
 23 64  1  0  0  0  0
 24 27  2  0  0  0  0
 24 66  1  0  0  0  0
 25 27  1  0  0  0  0
 25 67  1  0  0  0  0
 26 28  1  0  0  0  0
 28 68  1  0  0  0  0
 28 69  1  0  0  0  0
 29 31  1  0  0  0  0
 29 70  1  0  0  0  0
 29 71  1  0  0  0  0
 30 32  2  0  0  0  0
 30 33  1  0  0  0  0
 31 34  1  0  0  0  0
 31 35  2  0  0  0  0
 32 36  1  0  0  0  0
 32 74  1  0  0  0  0
 33 37  2  0  0  0  0
 33 75  1  0  0  0  0
 34 39  2  0  0  0  0
 35 40  1  0  0  0  0
 35 76  1  0  0  0  0
 36 38  2  0  0  0  0
 36 77  1  0  0  0  0
 37 38  1  0  0  0  0
 37 78  1  0  0  0  0
 38 79  1  0  0  0  0
 39 41  1  0  0  0  0
 39 80  1  0  0  0  0
 40 41  2  0  0  0  0
 40 81  1  0  0  0  0
 41 82  1  0  0  0  0
M  END
> <PUBCHEM_COMPOUND_CID>
513429
> <PUBCHEM_COMPOUND_CANONICALIZED>
1
> <PUBCHEM_CACTVS_COMPLEXITY>
857
> <PUBCHEM_CACTVS_HBOND_ACCEPTOR>
8
> <PUBCHEM_CACTVS_HBOND_DONOR>
3
> <PUBCHEM_CACTVS_ROTATABLE_BOND>
16
> <PUBCHEM_CACTVS_SUBSKEYS>
AAADcfB7uQBAAAAAAAAAAAAAAAAAAAAAAAAwYMAAAAAAAAABUAAAHwQQSAAADSjh2A4ywYPAAgKIAiVSUHDCABAhAgAIiJiIZIgKcCLAkbGUYAhklgDYyAeQwAAOAAQAAAAAAAAACAAAAAAAAAAAAAAAAA==
> <PUBCHEM_IUPAC_OPENEYE_NAME>
N-[(5S)-5-[(4-aminophenyl)sulfonyl-isobutyl-amino]-6-hydroxy-hexyl]-2-[N-[(2-fluorophenyl)methyl]anilino]acetamide
> <PUBCHEM_IUPAC_CAS_NAME>
N-[(5S)-5-[(4-aminophenyl)sulfonyl-(2-methylpropyl)amino]-6-hydroxyhexyl]-2-[N-[(2-fluorophenyl)methyl]anilino]acetamide
> <PUBCHEM_IUPAC_NAME_MARKUP>
<I>N</I>-[(5<I>S</I>)-5-[(4-aminophenyl)sulfonyl-(2-methylpropyl)amino]-6-hydroxyhexyl]-2-[<I>N</I>-[(2-fluorophenyl)methyl]anilino]acetamide
> <PUBCHEM_IUPAC_NAME>
N-[(5S)-5-[(4-aminophenyl)sulfonyl-(2-methylpropyl)amino]-6-hydroxyhexyl]-2-[N-[(2-fluorophenyl)methyl]anilino]acetamide
> <PUBCHEM_IUPAC_SYSTEMATIC_NAME>
N-[(5S)-5-[(4-aminophenyl)sulfonyl-(2-methylpropyl)amino]-6-oxidanyl-hexyl]-2-[(2-fluorophenyl)methyl-phenyl-amino]ethanamide
> <PUBCHEM_IUPAC_TRADITIONAL_NAME>
2-(N-(2-fluorobenzyl)anilino)-N-[(5S)-6-hydroxy-5-[isobutyl(sulfanilyl)amino]hexyl]acetamide
> <PUBCHEM_IUPAC_INCHI>
InChI=1S/C31H41FN4O4S/c1-24(2)20-36(41(39,40)29-17-15-26(33)16-18-29)28(23-37)13-8-9-19-34-31(38)22-35(27-11-4-3-5-12-27)21-25-10-6-7-14-30(25)32/h3-7,10-12,14-18,24,28,37H,8-9,13,19-23,33H2,1-2H3,(H,34,38)/t28-/m0/s1
> <PUBCHEM_IUPAC_INCHIKEY>
QIIKEDUNGZNOBB-NDEPHWFRSA-N
> <PUBCHEM_XLOGP3_AA>
4.9
> <PUBCHEM_EXACT_MASS>
584.28325514
> <PUBCHEM_MOLECULAR_FORMULA>
C31H41FN4O4S
> <PUBCHEM_MOLECULAR_WEIGHT>
584.7
> <PUBCHEM_OPENEYE_CAN_SMILES>
CC(C)CN(C(CCCCNC(=O)CN(CC1=CC=CC=C1F)C2=CC=CC=C2)CO)S(=O)(=O)C3=CC=C(C=C3)N
> <PUBCHEM_OPENEYE_ISO_SMILES>
CC(C)CN([C@@H](CCCCNC(=O)CN(CC1=CC=CC=C1F)C2=CC=CC=C2)CO)S(=O)(=O)C3=CC=C(C=C3)N
> <PUBCHEM_CACTVS_TPSA>
124
> <PUBCHEM_MONOISOTOPIC_WEIGHT>
584.28325514
> <PUBCHEM_TOTAL_CHARGE>
0
> <PUBCHEM_HEAVY_ATOM_COUNT>
41
> <PUBCHEM_ATOM_DEF_STEREO_COUNT>
1
> <PUBCHEM_ATOM_UDEF_STEREO_COUNT>
0
> <PUBCHEM_BOND_DEF_STEREO_COUNT>
0
> <PUBCHEM_BOND_UDEF_STEREO_COUNT>
0
> <PUBCHEM_ISOTOPIC_ATOM_COUNT>
0
> <PUBCHEM_COMPONENT_COUNT>
1
> <PUBCHEM_CACTVS_TAUTO_COUNT>
-1
> <PUBCHEM_COORDINATE_TYPE>
1
5
255
> <PUBCHEM_BONDANNOTATIONS>
18  22  8
18  23  8
22  24  8
23  25  8
24  27  8
25  27  8
30  32  8
30  33  8
31  34  8
31  35  8
32  36  8
33  37  8
34  39  8
35  40  8
36  38  8
37  38  8
39  41  8
40  41  8
11  7  5
$$$$
