513467
  -OEChem-10302200282D
212212  0     1  0  0  0  0  0999 V2000
    4.5071   -0.3017    0.0000 S   0  0  0  0  0  0  0  0  0  0  0  0
   10.1617   -5.6277    0.0000 O   0  0  0  0  0  0  0  0  0  0  0  0
   11.7754   -4.9728    0.0000 O   0  0  0  0  0  0  0  0  0  0  0  0
   14.9106   -3.3565    0.0000 O   0  0  0  0  0  0  0  0  0  0  0  0
   16.6743   -0.3017    0.0000 O   0  0  0  0  0  0  0  0  0  0  0  0
    8.2640   -4.6375    0.0000 O   0  0  0  0  0  0  0  0  0  0  0  0
    3.6592    4.2056    0.0000 O   0  0  0  0  0  0  0  0  0  0  0  0
   16.5064    3.2216    0.0000 O   0  0  0  0  0  0  0  0  0  0  0  0
    5.1693    4.3042    0.0000 O   0  0  0  0  0  0  0  0  0  0  0  0
    5.4914   -2.4571    0.0000 O   0  0  0  0  0  0  0  0  0  0  0  0
    7.7222    6.7383    0.0000 O   0  0  0  0  0  0  0  0  0  0  0  0
    4.3377    0.8763    0.0000 O   0  0  0  0  0  0  0  0  0  0  0  0
   11.1857    7.4058    0.0000 O   0  0  0  0  0  0  0  0  0  0  0  0
   14.4604    6.0949    0.0000 O   0  0  0  0  0  0  0  0  0  0  0  0
   13.4345   -3.2509    0.0000 N   0  0  0  0  0  0  0  0  0  0  0  0
   10.5907   -4.0859    0.0000 N   0  0  0  0  0  0  0  0  0  0  0  0
   15.3754   -1.0110    0.0000 N   0  0  0  0  0  0  0  0  0  0  0  0
   15.7972    1.9227    0.0000 N   0  0  0  0  0  0  0  0  0  0  0  0
    7.7469   -3.2509    0.0000 N   0  0  0  0  0  0  0  0  0  0  0  0
    5.3842    1.9227    0.0000 N   0  0  0  0  0  0  0  0  0  0  0  0
    9.1088    6.2211    0.0000 N   0  0  0  0  0  0  0  0  0  0  0  0
    6.6154    4.6187    0.0000 N   0  0  0  0  0  0  0  0  0  0  0  0
    5.8060   -1.0110    0.0000 N   0  0  0  0  0  0  0  0  0  0  0  0
   14.5660    4.6187    0.0000 N   0  0  0  0  0  0  0  0  0  0  0  0
   12.0726    6.2211    0.0000 N   0  0  0  0  0  0  0  0  0  0  0  0
    2.9718   -2.4565    0.0000 N   0  0  0  0  0  0  0  0  0  0  0  0
   12.5456   -3.7091    0.0000 C   0  0  1  0  0  0  0  0  0  0  0  0
   14.8754   -1.8770    0.0000 C   0  0  1  0  0  0  0  0  0  0  0  0
    9.5952   -3.9909    0.0000 C   0  0  1  0  0  0  0  0  0  0  0  0
    9.4060   -4.9728    0.0000 C   0  0  1  0  0  0  0  0  0  0  0  0
   12.9173   -4.6375    0.0000 C   0  0  0  0  0  0  0  0  0  0  0  0
   15.6900   -2.4571    0.0000 C   0  0  0  0  0  0  0  0  0  0  0  0
    8.7510   -5.7285    0.0000 C   0  0  1  0  0  0  0  0  0  0  0  0
   11.5862   -3.9909    0.0000 C   0  0  0  0  0  0  0  0  0  0  0  0
   14.2205   -2.6328    0.0000 C   0  0  0  0  0  0  0  0  0  0  0  0
   16.6854   -2.5521    0.0000 C   0  0  0  0  0  0  0  0  0  0  0  0
   15.8448    0.9238    0.0000 C   0  0  2  0  0  0  0  0  0  0  0  0
   15.7025   -0.0660    0.0000 C   0  0  0  0  0  0  0  0  0  0  0  0
   16.8436    0.8763    0.0000 C   0  0  0  0  0  0  0  0  0  0  0  0
    8.6357   -3.7091    0.0000 C   0  0  0  0  0  0  0  0  0  0  0  0
    9.0782   -6.6736    0.0000 C   0  0  0  0  0  0  0  0  0  0  0  0
   13.9071   -4.7798    0.0000 C   0  0  0  0  0  0  0  0  0  0  0  0
   12.2992   -5.4236    0.0000 C   0  0  0  0  0  0  0  0  0  0  0  0
   13.9751   -4.0922    0.0000 C   0  0  0  0  0  0  0  0  0  0  0  0
   17.7325    1.3345    0.0000 C   0  0  0  0  0  0  0  0  0  0  0  0
    7.7692   -5.5393    0.0000 C   0  0  0  0  0  0  0  0  0  0  0  0
   10.5907   -5.0859    0.0000 C   0  0  0  0  0  0  0  0  0  0  0  0
   16.2850   -1.4264    0.0000 C   0  0  0  0  0  0  0  0  0  0  0  0
   17.1009   -3.4618    0.0000 C   0  0  0  0  0  0  0  0  0  0  0  0
   17.2655   -1.7375    0.0000 C   0  0  0  0  0  0  0  0  0  0  0  0
    6.9608   -2.6328    0.0000 C   0  0  1  0  0  0  0  0  0  0  0  0
    5.6199    2.8945    0.0000 C   0  0  1  0  0  0  0  0  0  0  0  0
    4.6749    3.2216    0.0000 C   0  0  0  0  0  0  0  0  0  0  0  0
    7.3391    5.3088    0.0000 C   0  0  1  0  0  0  0  0  0  0  0  0
    3.6750    3.2057    0.0000 C   0  0  0  0  0  0  0  0  0  0  0  0
   10.0907    6.4104    0.0000 C   0  0  1  0  0  0  0  0  0  0  0  0
    6.7210    6.0949    0.0000 C   0  0  0  0  0  0  0  0  0  0  0  0
   15.5614    2.8945    0.0000 C   0  0  0  0  0  0  0  0  0  0  0  0
   18.5737    0.7938    0.0000 C   0  0  0  0  0  0  0  0  0  0  0  0
   17.7801    2.3334    0.0000 C   0  0  0  0  0  0  0  0  0  0  0  0
    8.4233   -7.4293    0.0000 C   0  0  0  0  0  0  0  0  0  0  0  0
    6.2707   -3.3565    0.0000 C   0  0  0  0  0  0  0  0  0  0  0  0
    9.9956    7.4058    0.0000 C   0  0  0  0  0  0  0  0  0  0  0  0
    6.0353    3.8042    0.0000 C   0  0  0  0  0  0  0  0  0  0  0  0
   16.7870    2.0650    0.0000 C   0  0  0  0  0  0  0  0  0  0  0  0
    6.3060   -1.8770    0.0000 C   0  0  0  0  0  0  0  0  0  0  0  0
   15.1460    3.8042    0.0000 C   0  0  1  0  0  0  0  0  0  0  0  0
    8.1804    5.8494    0.0000 C   0  0  0  0  0  0  0  0  0  0  0  0
    5.4789   -0.0660    0.0000 C   0  0  2  0  0  0  0  0  0  0  0  0
   10.4110    8.3155    0.0000 C   0  0  0  0  0  0  0  0  0  0  0  0
    5.3366    0.9238    0.0000 C   0  0  0  0  0  0  0  0  0  0  0  0
   11.0907    6.4104    0.0000 C   0  0  0  0  0  0  0  0  0  0  0  0
    2.6752    3.1899    0.0000 C   0  0  0  0  0  0  0  0  0  0  0  0
    3.6910    2.2058    0.0000 C   0  0  0  0  0  0  0  0  0  0  0  0
    5.7312    5.9525    0.0000 C   0  0  0  0  0  0  0  0  0  0  0  0
    7.0926    7.0232    0.0000 C   0  0  0  0  0  0  0  0  0  0  0  0
    4.3944    2.0650    0.0000 C   0  0  0  0  0  0  0  0  0  0  0  0
    6.5525   -4.3160    0.0000 C   0  0  0  0  0  0  0  0  0  0  0  0
   13.0010    5.8494    0.0000 C   0  0  2  0  0  0  0  0  0  0  0  0
    8.8270    7.1806    0.0000 C   0  0  0  0  0  0  0  0  0  0  0  0
    8.7504   -8.3743    0.0000 C   0  0  0  0  0  0  0  0  0  0  0  0
   16.0120    4.3042    0.0000 C   0  0  0  0  0  0  0  0  0  0  0  0
    9.8310    9.1300    0.0000 C   0  0  0  0  0  0  0  0  0  0  0  0
   11.4065    8.4105    0.0000 C   0  0  0  0  0  0  0  0  0  0  0  0
    4.8963   -1.4264    0.0000 C   0  0  0  0  0  0  0  0  0  0  0  0
   13.8422    5.3088    0.0000 C   0  0  0  0  0  0  0  0  0  0  0  0
   13.4592    6.7383    0.0000 C   0  0  0  0  0  0  0  0  0  0  0  0
    4.2254   -1.2612    0.0000 C   0  0  0  0  0  0  0  0  0  0  0  0
    8.0955   -9.1300    0.0000 C   0  0  0  0  0  0  0  0  0  0  0  0
    3.2535   -1.4970    0.0000 C   0  0  0  0  0  0  0  0  0  0  0  0
    2.0000   -2.6922    0.0000 C   0  0  0  0  0  0  0  0  0  0  0  0
    3.6619   -3.1802    0.0000 C   0  0  0  0  0  0  0  0  0  0  0  0
   13.1266   -3.9258    0.0000 H   0  0  0  0  0  0  0  0  0  0  0  0
   15.4812   -1.7452    0.0000 H   0  0  0  0  0  0  0  0  0  0  0  0
   10.1046   -4.6713    0.0000 H   0  0  0  0  0  0  0  0  0  0  0  0
    9.9919   -4.7700    0.0000 H   0  0  0  0  0  0  0  0  0  0  0  0
   13.3006   -4.1502    0.0000 H   0  0  0  0  0  0  0  0  0  0  0  0
   15.1793   -2.8086    0.0000 H   0  0  0  0  0  0  0  0  0  0  0  0
   15.9066   -1.8762    0.0000 H   0  0  0  0  0  0  0  0  0  0  0  0
    8.5483   -5.1426    0.0000 H   0  0  0  0  0  0  0  0  0  0  0  0
   16.4279   -1.9881    0.0000 H   0  0  0  0  0  0  0  0  0  0  0  0
   16.2832    1.3622    0.0000 H   0  0  0  0  0  0  0  0  0  0  0  0
   16.6041    0.3044    0.0000 H   0  0  0  0  0  0  0  0  0  0  0  0
   16.7119    1.4821    0.0000 H   0  0  0  0  0  0  0  0  0  0  0  0
    9.4691   -7.1548    0.0000 H   0  0  0  0  0  0  0  0  0  0  0  0
    9.6200   -6.3721    0.0000 H   0  0  0  0  0  0  0  0  0  0  0  0
   13.8189   -5.3935    0.0000 H   0  0  0  0  0  0  0  0  0  0  0  0
   14.5208   -4.8680    0.0000 H   0  0  0  0  0  0  0  0  0  0  0  0
   13.9954   -4.1661    0.0000 H   0  0  0  0  0  0  0  0  0  0  0  0
   11.8118   -5.0403    0.0000 H   0  0  0  0  0  0  0  0  0  0  0  0
   11.9159   -5.9109    0.0000 H   0  0  0  0  0  0  0  0  0  0  0  0
   12.7865   -5.8068    0.0000 H   0  0  0  0  0  0  0  0  0  0  0  0
   13.4535   -4.4274    0.0000 H   0  0  0  0  0  0  0  0  0  0  0  0
   14.3103   -4.6137    0.0000 H   0  0  0  0  0  0  0  0  0  0  0  0
   14.4967   -3.7570    0.0000 H   0  0  0  0  0  0  0  0  0  0  0  0
   17.2109    1.6697    0.0000 H   0  0  0  0  0  0  0  0  0  0  0  0
    7.8865   -4.9305    0.0000 H   0  0  0  0  0  0  0  0  0  0  0  0
    7.1604   -5.4220    0.0000 H   0  0  0  0  0  0  0  0  0  0  0  0
    7.6518   -6.1481    0.0000 H   0  0  0  0  0  0  0  0  0  0  0  0
    9.9707   -5.0859    0.0000 H   0  0  0  0  0  0  0  0  0  0  0  0
   10.5907   -5.7059    0.0000 H   0  0  0  0  0  0  0  0  0  0  0  0
   11.2107   -5.0859    0.0000 H   0  0  0  0  0  0  0  0  0  0  0  0
   16.0275   -1.9904    0.0000 H   0  0  0  0  0  0  0  0  0  0  0  0
   16.8490   -1.6840    0.0000 H   0  0  0  0  0  0  0  0  0  0  0  0
   16.5426   -0.8624    0.0000 H   0  0  0  0  0  0  0  0  0  0  0  0
   16.5369   -3.7193    0.0000 H   0  0  0  0  0  0  0  0  0  0  0  0
   17.3584   -4.0257    0.0000 H   0  0  0  0  0  0  0  0  0  0  0  0
   17.6648   -3.2042    0.0000 H   0  0  0  0  0  0  0  0  0  0  0  0
   17.7705   -2.0972    0.0000 H   0  0  0  0  0  0  0  0  0  0  0  0
   17.6251   -1.2325    0.0000 H   0  0  0  0  0  0  0  0  0  0  0  0
   16.7605   -1.3779    0.0000 H   0  0  0  0  0  0  0  0  0  0  0  0
    7.4117   -3.7725    0.0000 H   0  0  0  0  0  0  0  0  0  0  0  0
    7.0051   -3.2512    0.0000 H   0  0  0  0  0  0  0  0  0  0  0  0
    5.0758    2.5974    0.0000 H   0  0  0  0  0  0  0  0  0  0  0  0
   10.0444   -6.2364    0.0000 H   0  0  0  0  0  0  0  0  0  0  0  0
    5.0932    3.6793    0.0000 H   0  0  0  0  0  0  0  0  0  0  0  0
    4.5770    2.6094    0.0000 H   0  0  0  0  0  0  0  0  0  0  0  0
    6.7207    5.3530    0.0000 H   0  0  0  0  0  0  0  0  0  0  0  0
    9.5944    6.7819    0.0000 H   0  0  0  0  0  0  0  0  0  0  0  0
    7.3347    6.1831    0.0000 H   0  0  0  0  0  0  0  0  0  0  0  0
   18.2385    0.2723    0.0000 H   0  0  0  0  0  0  0  0  0  0  0  0
   19.0953    0.4587    0.0000 H   0  0  0  0  0  0  0  0  0  0  0  0
   18.9089    1.3154    0.0000 H   0  0  0  0  0  0  0  0  0  0  0  0
   18.3994    2.3039    0.0000 H   0  0  0  0  0  0  0  0  0  0  0  0
   17.8096    2.9527    0.0000 H   0  0  0  0  0  0  0  0  0  0  0  0
   17.1608    2.3629    0.0000 H   0  0  0  0  0  0  0  0  0  0  0  0
    7.8145   -7.3120    0.0000 H   0  0  0  0  0  0  0  0  0  0  0  0
    5.9032   -2.8572    0.0000 H   0  0  0  0  0  0  0  0  0  0  0  0
    5.7152   -3.6318    0.0000 H   0  0  0  0  0  0  0  0  0  0  0  0
    9.5538    7.8408    0.0000 H   0  0  0  0  0  0  0  0  0  0  0  0
   10.6070    7.3030    0.0000 H   0  0  0  0  0  0  0  0  0  0  0  0
   16.8753    1.4513    0.0000 H   0  0  0  0  0  0  0  0  0  0  0  0
   17.4007    2.1533    0.0000 H   0  0  0  0  0  0  0  0  0  0  0  0
   16.6988    2.6787    0.0000 H   0  0  0  0  0  0  0  0  0  0  0  0
   15.2778    4.4100    0.0000 H   0  0  0  0  0  0  0  0  0  0  0  0
    6.1468    5.0248    0.0000 H   0  0  0  0  0  0  0  0  0  0  0  0
    5.1818   -0.6101    0.0000 H   0  0  0  0  0  0  0  0  0  0  0  0
   10.6686    8.8794    0.0000 H   0  0  0  0  0  0  0  0  0  0  0  0
    2.6653    3.8098    0.0000 H   0  0  0  0  0  0  0  0  0  0  0  0
    2.0552    3.1800    0.0000 H   0  0  0  0  0  0  0  0  0  0  0  0
    2.6850    2.5700    0.0000 H   0  0  0  0  0  0  0  0  0  0  0  0
    3.0711    2.1959    0.0000 H   0  0  0  0  0  0  0  0  0  0  0  0
    3.7009    1.5859    0.0000 H   0  0  0  0  0  0  0  0  0  0  0  0
    4.3109    2.2157    0.0000 H   0  0  0  0  0  0  0  0  0  0  0  0
    5.6429    6.5662    0.0000 H   0  0  0  0  0  0  0  0  0  0  0  0
    5.1175    5.8643    0.0000 H   0  0  0  0  0  0  0  0  0  0  0  0
    5.8194    5.3389    0.0000 H   0  0  0  0  0  0  0  0  0  0  0  0
    7.6682    6.7928    0.0000 H   0  0  0  0  0  0  0  0  0  0  0  0
    7.3231    7.5988    0.0000 H   0  0  0  0  0  0  0  0  0  0  0  0
    6.5170    7.2537    0.0000 H   0  0  0  0  0  0  0  0  0  0  0  0
    4.4826    2.6787    0.0000 H   0  0  0  0  0  0  0  0  0  0  0  0
    3.7807    2.1533    0.0000 H   0  0  0  0  0  0  0  0  0  0  0  0
    4.3061    1.4513    0.0000 H   0  0  0  0  0  0  0  0  0  0  0  0
   15.0345    5.0248    0.0000 H   0  0  0  0  0  0  0  0  0  0  0  0
    5.9576   -4.4906    0.0000 H   0  0  0  0  0  0  0  0  0  0  0  0
    6.7272   -4.9109    0.0000 H   0  0  0  0  0  0  0  0  0  0  0  0
    7.1474   -4.1413    0.0000 H   0  0  0  0  0  0  0  0  0  0  0  0
   12.7843    6.4304    0.0000 H   0  0  0  0  0  0  0  0  0  0  0  0
    9.4219    7.3553    0.0000 H   0  0  0  0  0  0  0  0  0  0  0  0
    8.6524    7.7755    0.0000 H   0  0  0  0  0  0  0  0  0  0  0  0
    8.2321    7.0059    0.0000 H   0  0  0  0  0  0  0  0  0  0  0  0
    9.3592   -8.4916    0.0000 H   0  0  0  0  0  0  0  0  0  0  0  0
   16.3220    3.7672    0.0000 H   0  0  0  0  0  0  0  0  0  0  0  0
   16.5490    4.6142    0.0000 H   0  0  0  0  0  0  0  0  0  0  0  0
   15.7020    4.8411    0.0000 H   0  0  0  0  0  0  0  0  0  0  0  0
   12.2473    6.8160    0.0000 H   0  0  0  0  0  0  0  0  0  0  0  0
   10.3360    9.4897    0.0000 H   0  0  0  0  0  0  0  0  0  0  0  0
    9.4713    9.6351    0.0000 H   0  0  0  0  0  0  0  0  0  0  0  0
    9.3260    8.7704    0.0000 H   0  0  0  0  0  0  0  0  0  0  0  0
   11.4654    7.7933    0.0000 H   0  0  0  0  0  0  0  0  0  0  0  0
   12.0237    8.4695    0.0000 H   0  0  0  0  0  0  0  0  0  0  0  0
   11.3476    9.0277    0.0000 H   0  0  0  0  0  0  0  0  0  0  0  0
    4.6388   -0.8624    0.0000 H   0  0  0  0  0  0  0  0  0  0  0  0
    4.3324   -1.6840    0.0000 H   0  0  0  0  0  0  0  0  0  0  0  0
    5.1539   -1.9904    0.0000 H   0  0  0  0  0  0  0  0  0  0  0  0
    3.1175    4.5071    0.0000 H   0  0  0  0  0  0  0  0  0  0  0  0
   14.0103    6.4542    0.0000 H   0  0  0  0  0  0  0  0  0  0  0  0
   13.7433    7.2894    0.0000 H   0  0  0  0  0  0  0  0  0  0  0  0
   12.9081    7.0224    0.0000 H   0  0  0  0  0  0  0  0  0  0  0  0
    4.2647   -1.8800    0.0000 H   0  0  0  0  0  0  0  0  0  0  0  0
    4.8415   -1.3300    0.0000 H   0  0  0  0  0  0  0  0  0  0  0  0
    7.6270   -8.7240    0.0000 H   0  0  0  0  0  0  0  0  0  0  0  0
    7.6895   -9.5986    0.0000 H   0  0  0  0  0  0  0  0  0  0  0  0
    8.5641   -9.5361    0.0000 H   0  0  0  0  0  0  0  0  0  0  0  0
    3.2142   -0.8782    0.0000 H   0  0  0  0  0  0  0  0  0  0  0  0
    2.6374   -1.4283    0.0000 H   0  0  0  0  0  0  0  0  0  0  0  0
    1.8538   -2.0897    0.0000 H   0  0  0  0  0  0  0  0  0  0  0  0
    1.3975   -2.8384    0.0000 H   0  0  0  0  0  0  0  0  0  0  0  0
    2.1462   -3.2948    0.0000 H   0  0  0  0  0  0  0  0  0  0  0  0
    3.2132   -3.6081    0.0000 H   0  0  0  0  0  0  0  0  0  0  0  0
    4.0897   -3.6289    0.0000 H   0  0  0  0  0  0  0  0  0  0  0  0
    4.1106   -2.7524    0.0000 H   0  0  0  0  0  0  0  0  0  0  0  0
 69  1  1  1  0  0  0
  1 88  1  0  0  0  0
 30  2  1  6  0  0  0
  2135  1  0  0  0  0
  3 34  2  0  0  0  0
  4 35  2  0  0  0  0
  5 38  2  0  0  0  0
  6 40  2  0  0  0  0
  7 55  1  0  0  0  0
  7196  1  0  0  0  0
  8 58  2  0  0  0  0
  9 64  2  0  0  0  0
 10 66  2  0  0  0  0
 11 68  2  0  0  0  0
 12 71  2  0  0  0  0
 13 72  2  0  0  0  0
 14 86  2  0  0  0  0
 15 27  1  0  0  0  0
 15 35  1  0  0  0  0
 15 44  1  0  0  0  0
 16 29  1  0  0  0  0
 16 34  1  0  0  0  0
 16 47  1  0  0  0  0
 17 28  1  0  0  0  0
 17 38  1  0  0  0  0
 17 48  1  0  0  0  0
 18 37  1  0  0  0  0
 18 58  1  0  0  0  0
 18 65  1  0  0  0  0
 19 40  1  0  0  0  0
 19 51  1  0  0  0  0
 19132  1  0  0  0  0
 20 52  1  0  0  0  0
 20 71  1  0  0  0  0
 20 77  1  0  0  0  0
 21 56  1  0  0  0  0
 21 68  1  0  0  0  0
 21 80  1  0  0  0  0
 22 54  1  0  0  0  0
 22 64  1  0  0  0  0
 22156  1  0  0  0  0
 23 66  1  0  0  0  0
 23 69  1  0  0  0  0
 23 85  1  0  0  0  0
 24 67  1  0  0  0  0
 24 86  1  0  0  0  0
 24174  1  0  0  0  0
 25 72  1  0  0  0  0
 25 79  1  0  0  0  0
 25186  1  0  0  0  0
 26 90  1  0  0  0  0
 26 91  1  0  0  0  0
 26 92  1  0  0  0  0
 27 31  1  1  0  0  0
 27 34  1  0  0  0  0
 27 93  1  0  0  0  0
 28 32  1  1  0  0  0
 28 35  1  0  0  0  0
 28 94  1  0  0  0  0
 29 30  1  0  0  0  0
 29 40  1  0  0  0  0
 29 95  1  6  0  0  0
 30 33  1  0  0  0  0
 30 96  1  0  0  0  0
 31 42  1  0  0  0  0
 31 43  1  0  0  0  0
 31 97  1  0  0  0  0
 32 36  1  0  0  0  0
 32 98  1  0  0  0  0
 32 99  1  0  0  0  0
 33 41  1  0  0  0  0
 33 46  1  1  0  0  0
 33100  1  0  0  0  0
 36 49  1  0  0  0  0
 36 50  1  0  0  0  0
 36101  1  0  0  0  0
 37 38  1  0  0  0  0
 37 39  1  1  0  0  0
 37102  1  0  0  0  0
 39 45  1  0  0  0  0
 39103  1  0  0  0  0
 39104  1  0  0  0  0
 41 61  1  0  0  0  0
 41105  1  0  0  0  0
 41106  1  0  0  0  0
 42107  1  0  0  0  0
 42108  1  0  0  0  0
 42109  1  0  0  0  0
 43110  1  0  0  0  0
 43111  1  0  0  0  0
 43112  1  0  0  0  0
 44113  1  0  0  0  0
 44114  1  0  0  0  0
 44115  1  0  0  0  0
 45 59  1  0  0  0  0
 45 60  1  0  0  0  0
 45116  1  0  0  0  0
 46117  1  0  0  0  0
 46118  1  0  0  0  0
 46119  1  0  0  0  0
 47120  1  0  0  0  0
 47121  1  0  0  0  0
 47122  1  0  0  0  0
 48123  1  0  0  0  0
 48124  1  0  0  0  0
 48125  1  0  0  0  0
 49126  1  0  0  0  0
 49127  1  0  0  0  0
 49128  1  0  0  0  0
 50129  1  0  0  0  0
 50130  1  0  0  0  0
 50131  1  0  0  0  0
 51 62  1  1  0  0  0
 51 66  1  0  0  0  0
 51133  1  0  0  0  0
 52 53  1  1  0  0  0
 52 64  1  0  0  0  0
 52134  1  0  0  0  0
 53 55  1  0  0  0  0
 53136  1  0  0  0  0
 53137  1  0  0  0  0
 54 57  1  1  0  0  0
 54 68  1  0  0  0  0
 54138  1  0  0  0  0
 55 73  1  0  0  0  0
 55 74  1  0  0  0  0
 56 63  1  1  0  0  0
 56 72  1  0  0  0  0
 56139  1  0  0  0  0
 57 75  1  0  0  0  0
 57 76  1  0  0  0  0
 57140  1  0  0  0  0
 58 67  1  0  0  0  0
 59141  1  0  0  0  0
 59142  1  0  0  0  0
 59143  1  0  0  0  0
 60144  1  0  0  0  0
 60145  1  0  0  0  0
 60146  1  0  0  0  0
 61 81  2  3  0  0  0
 61147  1  0  0  0  0
 62 78  1  0  0  0  0
 62148  1  0  0  0  0
 62149  1  0  0  0  0
 63 70  1  0  0  0  0
 63150  1  0  0  0  0
 63151  1  0  0  0  0
 65152  1  0  0  0  0
 65153  1  0  0  0  0
 65154  1  0  0  0  0
 67 82  1  6  0  0  0
 67155  1  0  0  0  0
 69 71  1  0  0  0  0
 69157  1  0  0  0  0
 70 83  1  0  0  0  0
 70 84  1  0  0  0  0
 70158  1  0  0  0  0
 73159  1  0  0  0  0
 73160  1  0  0  0  0
 73161  1  0  0  0  0
 74162  1  0  0  0  0
 74163  1  0  0  0  0
 74164  1  0  0  0  0
 75165  1  0  0  0  0
 75166  1  0  0  0  0
 75167  1  0  0  0  0
 76168  1  0  0  0  0
 76169  1  0  0  0  0
 76170  1  0  0  0  0
 77171  1  0  0  0  0
 77172  1  0  0  0  0
 77173  1  0  0  0  0
 78175  1  0  0  0  0
 78176  1  0  0  0  0
 78177  1  0  0  0  0
 79 86  1  0  0  0  0
 79 87  1  1  0  0  0
 79178  1  0  0  0  0
 80179  1  0  0  0  0
 80180  1  0  0  0  0
 80181  1  0  0  0  0
 81 89  1  0  0  0  0
 81182  1  0  0  0  0
 82183  1  0  0  0  0
 82184  1  0  0  0  0
 82185  1  0  0  0  0
 83187  1  0  0  0  0
 83188  1  0  0  0  0
 83189  1  0  0  0  0
 84190  1  0  0  0  0
 84191  1  0  0  0  0
 84192  1  0  0  0  0
 85193  1  0  0  0  0
 85194  1  0  0  0  0
 85195  1  0  0  0  0
 87197  1  0  0  0  0
 87198  1  0  0  0  0
 87199  1  0  0  0  0
 88 90  1  0  0  0  0
 88200  1  0  0  0  0
 88201  1  0  0  0  0
 89202  1  0  0  0  0
 89203  1  0  0  0  0
 89204  1  0  0  0  0
 90205  1  0  0  0  0
 90206  1  0  0  0  0
 91207  1  0  0  0  0
 91208  1  0  0  0  0
 91209  1  0  0  0  0
 92210  1  0  0  0  0
 92211  1  0  0  0  0
 92212  1  0  0  0  0
M  END
> <PUBCHEM_COMPOUND_CID>
513467
> <PUBCHEM_COMPOUND_CANONICALIZED>
1
> <PUBCHEM_CACTVS_COMPLEXITY>
2530
> <PUBCHEM_CACTVS_HBOND_ACCEPTOR>
15
> <PUBCHEM_CACTVS_HBOND_DONOR>
6
> <PUBCHEM_CACTVS_ROTATABLE_BOND>
19
> <PUBCHEM_CACTVS_SUBSKEYS>
AAADcfB//ABAAAAAAAAAAAAAAAAAAAAAAAAAAAAAAAAAAAAAAAAAHgQQCAAADXzlwAaCAAPAAgiIACFSEAAAAABgABAICIGIAAgCUBYAgSAUQAAGtgC4AAM6CAAOAAAAAAAAAAAAAAAAAAAAAAAAAAAAAA==
> <PUBCHEM_IUPAC_OPENEYE_NAME>
(3S,6S,9S,12R,15S,18S,21S,24S,27S,30S,33S)-27-[2-(dimethylamino)ethylsulfanyl]-30-ethyl-33-[(1R,2R)-1-hydroxy-2-methyl-hex-4-enyl]-24-(2-hydroxy-2-methyl-propyl)-6,9,18-triisobutyl-3,21-diisopropyl-1,4,7,10,12,15,19,25,28-nonamethyl-1,4,7,10,13,16,19,22,25,28,31-undecazacyclotritriacontane-2,5,8,11,14,17,20,23,26,29,32-undecone
> <PUBCHEM_IUPAC_CAS_NAME>
(3S,6S,9S,12R,15S,18S,21S,24S,27S,30S,33S)-27-[2-(dimethylamino)ethylthio]-30-ethyl-33-[(1R,2R)-1-hydroxy-2-methylhex-4-enyl]-24-(2-hydroxy-2-methylpropyl)-1,4,7,10,12,15,19,25,28-nonamethyl-6,9,18-tris(2-methylpropyl)-3,21-di(propan-2-yl)-1,4,7,10,13,16,19,22,25,28,31-undecazacyclotritriacontane-2,5,8,11,14,17,20,23,26,29,32-undecone
> <PUBCHEM_IUPAC_NAME_MARKUP>
(3<I>S</I>,6<I>S</I>,9<I>S</I>,12<I>R</I>,15<I>S</I>,18<I>S</I>,21<I>S</I>,24<I>S</I>,27<I>S</I>,30<I>S</I>,33<I>S</I>)-27-[2-(dimethylamino)ethylsulfanyl]-30-ethyl-33-[(1<I>R</I>,2<I>R</I>)-1-hydroxy-2-methylhex-4-enyl]-24-(2-hydroxy-2-methylpropyl)-1,4,7,10,12,15,19,25,28-nonamethyl-6,9,18-tris(2-methylpropyl)-3,21-di(propan-2-yl)-1,4,7,10,13,16,19,22,25,28,31-undecazacyclotritriacontane-2,5,8,11,14,17,20,23,26,29,32-undecone
> <PUBCHEM_IUPAC_NAME>
(3S,6S,9S,12R,15S,18S,21S,24S,27S,30S,33S)-27-[2-(dimethylamino)ethylsulfanyl]-30-ethyl-33-[(1R,2R)-1-hydroxy-2-methylhex-4-enyl]-24-(2-hydroxy-2-methylpropyl)-1,4,7,10,12,15,19,25,28-nonamethyl-6,9,18-tris(2-methylpropyl)-3,21-di(propan-2-yl)-1,4,7,10,13,16,19,22,25,28,31-undecazacyclotritriacontane-2,5,8,11,14,17,20,23,26,29,32-undecone
> <PUBCHEM_IUPAC_SYSTEMATIC_NAME>
(3S,6S,9S,12R,15S,18S,21S,24S,27S,30S,33S)-27-[2-(dimethylamino)ethylsulfanyl]-30-ethyl-1,4,7,10,12,15,19,25,28-nonamethyl-33-[(1R,2R)-2-methyl-1-oxidanyl-hex-4-enyl]-24-(2-methyl-2-oxidanyl-propyl)-6,9,18-tris(2-methylpropyl)-3,21-di(propan-2-yl)-1,4,7,10,13,16,19,22,25,28,31-undecazacyclotritriacontane-2,5,8,11,14,17,20,23,26,29,32-undecone
> <PUBCHEM_IUPAC_TRADITIONAL_NAME>
(3S,6S,9S,12R,15S,18S,21S,24S,27S,30S,33S)-27-[2-(dimethylamino)ethylthio]-30-ethyl-33-[(1R,2R)-1-hydroxy-2-methyl-hex-4-enyl]-24-(2-hydroxy-2-methyl-propyl)-6,9,18-triisobutyl-3,21-diisopropyl-1,4,7,10,12,15,19,25,28-nonamethyl-1,4,7,10,13,16,19,22,25,28,31-undecazacyclotritriacontane-2,5,8,11,14,17,20,23,26,29,32-undecone
> <PUBCHEM_IUPAC_INCHI>
InChI=1S/C66H120N12O13S/c1-27-29-30-42(13)53(79)52-57(83)69-45(28-2)59(85)78(26)65(92-32-31-71(18)19)64(90)75(23)49(36-66(16,17)91)56(82)70-50(40(9)10)62(88)72(20)46(33-37(3)4)55(81)67-43(14)54(80)68-44(15)58(84)73(21)47(34-38(5)6)60(86)74(22)48(35-39(7)8)61(87)76(24)51(41(11)12)63(89)77(52)25/h27,29,37-53,65,79,91H,28,30-36H2,1-26H3,(H,67,81)(H,68,80)(H,69,83)(H,70,82)/t42-,43+,44-,45+,46+,47+,48+,49+,50+,51+,52+,53-,65+/m1/s1
> <PUBCHEM_IUPAC_INCHIKEY>
AQHMBDAHQGYLIU-BWOJRZDTSA-N
> <PUBCHEM_XLOGP3_AA>
7
> <PUBCHEM_EXACT_MASS>
1320.88185310
> <PUBCHEM_MOLECULAR_FORMULA>
C66H120N12O13S
> <PUBCHEM_MOLECULAR_WEIGHT>
1321.8
> <PUBCHEM_OPENEYE_CAN_SMILES>
CCC1C(=O)N(C(C(=O)N(C(C(=O)NC(C(=O)N(C(C(=O)NC(C(=O)NC(C(=O)N(C(C(=O)N(C(C(=O)N(C(C(=O)N(C(C(=O)N1)C(C(C)CC=CC)O)C)C(C)C)C)CC(C)C)C)CC(C)C)C)C)C)CC(C)C)C)C(C)C)CC(C)(C)O)C)SCCN(C)C)C
> <PUBCHEM_OPENEYE_ISO_SMILES>
CC[C@H]1C(=O)N([C@H](C(=O)N([C@H](C(=O)N[C@H](C(=O)N([C@H](C(=O)N[C@H](C(=O)N[C@@H](C(=O)N([C@H](C(=O)N([C@H](C(=O)N([C@H](C(=O)N([C@H](C(=O)N1)[C@@H]([C@H](C)CC=CC)O)C)C(C)C)C)CC(C)C)C)CC(C)C)C)C)C)CC(C)C)C)C(C)C)CC(C)(C)O)C)SCCN(C)C)C
> <PUBCHEM_CACTVS_TPSA>
328
> <PUBCHEM_MONOISOTOPIC_WEIGHT>
1320.88185310
> <PUBCHEM_TOTAL_CHARGE>
0
> <PUBCHEM_HEAVY_ATOM_COUNT>
92
> <PUBCHEM_ATOM_DEF_STEREO_COUNT>
13
> <PUBCHEM_ATOM_UDEF_STEREO_COUNT>
0
> <PUBCHEM_BOND_DEF_STEREO_COUNT>
0
> <PUBCHEM_BOND_UDEF_STEREO_COUNT>
1
> <PUBCHEM_ISOTOPIC_ATOM_COUNT>
0
> <PUBCHEM_COMPONENT_COUNT>
1
> <PUBCHEM_CACTVS_TAUTO_COUNT>
-1
> <PUBCHEM_COORDINATE_TYPE>
1
5
255
> <PUBCHEM_BONDANNOTATIONS>
69  1  5
30  2  6
27  31  5
28  32  5
29  95  6
33  46  5
37  39  5
51  62  5
52  53  5
54  57  5
56  63  5
61  81  1
67  82  6
79  87  5
$$$$
