513493
  -OEChem-10302200282D
 51 55  0     1  0  0  0  0  0999 V2000
    5.2927    2.1622    0.0000 F   0  0  0  0  0  0  0  0  0  0  0  0
    2.0000    3.2384    0.0000 F   0  0  0  0  0  0  0  0  0  0  0  0
    3.9271   -0.4067    0.0000 O   0  0  0  0  0  0  0  0  0  0  0  0
    5.0286   -1.4336    0.0000 N   0  0  0  0  0  0  0  0  0  0  0  0
    6.3662    0.6184    0.0000 N   0  0  0  0  0  0  0  0  0  0  0  0
    5.0286   -3.0431    0.0000 N   0  0  0  0  0  0  0  0  0  0  0  0
    6.6736   -0.3332    0.0000 N   0  0  0  0  0  0  0  0  0  0  0  0
    7.9842    0.6156    0.0000 N   0  0  0  0  0  0  0  0  0  0  0  0
    4.6714    0.2612    0.0000 C   0  0  3  0  0  0  0  0  0  0  0  0
    5.3392   -0.4831    0.0000 C   0  0  0  0  0  0  0  0  0  0  0  0
    5.4157    0.9290    0.0000 C   0  0  0  0  0  0  0  0  0  0  0  0
    4.0035    1.0055    0.0000 C   0  0  0  0  0  0  0  0  0  0  0  0
    4.0823   -1.7384    0.0000 C   0  0  0  0  0  0  0  0  0  0  0  0
    5.6122   -2.2384    0.0000 C   0  0  0  0  0  0  0  0  0  0  0  0
    4.0823   -2.7384    0.0000 C   0  0  0  0  0  0  0  0  0  0  0  0
    4.3142    1.9560    0.0000 C   0  0  0  0  0  0  0  0  0  0  0  0
    3.0250    0.7993    0.0000 C   0  0  0  0  0  0  0  0  0  0  0  0
    6.6122   -2.2384    0.0000 C   0  0  0  0  0  0  0  0  0  0  0  0
    3.2163   -1.2384    0.0000 C   0  0  0  0  0  0  0  0  0  0  0  0
    3.2163   -3.2384    0.0000 C   0  0  0  0  0  0  0  0  0  0  0  0
    3.6464    2.7003    0.0000 C   0  0  0  0  0  0  0  0  0  0  0  0
    2.3572    1.5436    0.0000 C   0  0  0  0  0  0  0  0  0  0  0  0
    7.1762    1.2047    0.0000 C   0  0  0  0  0  0  0  0  0  0  0  0
    2.3503   -1.7384    0.0000 C   0  0  0  0  0  0  0  0  0  0  0  0
    2.3503   -2.7384    0.0000 C   0  0  0  0  0  0  0  0  0  0  0  0
    2.6678    2.4941    0.0000 C   0  0  0  0  0  0  0  0  0  0  0  0
    7.1122   -1.3724    0.0000 C   0  0  0  0  0  0  0  0  0  0  0  0
    7.1122   -3.1044    0.0000 C   0  0  0  0  0  0  0  0  0  0  0  0
    7.6736   -0.3350    0.0000 C   0  0  0  0  0  0  0  0  0  0  0  0
    8.1122   -1.3724    0.0000 C   0  0  0  0  0  0  0  0  0  0  0  0
    8.1122   -3.1044    0.0000 C   0  0  0  0  0  0  0  0  0  0  0  0
    8.6122   -2.2384    0.0000 C   0  0  0  0  0  0  0  0  0  0  0  0
    5.8861   -0.7751    0.0000 H   0  0  0  0  0  0  0  0  0  0  0  0
    5.7218    0.0048    0.0000 H   0  0  0  0  0  0  0  0  0  0  0  0
    5.7077    1.4759    0.0000 H   0  0  0  0  0  0  0  0  0  0  0  0
    4.9278    1.3116    0.0000 H   0  0  0  0  0  0  0  0  0  0  0  0
    3.3378   -0.2141    0.0000 H   0  0  0  0  0  0  0  0  0  0  0  0
    2.8324    0.2099    0.0000 H   0  0  0  0  0  0  0  0  0  0  0  0
    3.2163   -0.6184    0.0000 H   0  0  0  0  0  0  0  0  0  0  0  0
    3.2163   -3.8584    0.0000 H   0  0  0  0  0  0  0  0  0  0  0  0
    3.8390    3.2896    0.0000 H   0  0  0  0  0  0  0  0  0  0  0  0
    1.7505    1.4157    0.0000 H   0  0  0  0  0  0  0  0  0  0  0  0
    7.1773    1.8247    0.0000 H   0  0  0  0  0  0  0  0  0  0  0  0
    1.8134   -1.4284    0.0000 H   0  0  0  0  0  0  0  0  0  0  0  0
    1.8134   -3.0484    0.0000 H   0  0  0  0  0  0  0  0  0  0  0  0
    6.8022   -0.8354    0.0000 H   0  0  0  0  0  0  0  0  0  0  0  0
    6.8022   -3.6413    0.0000 H   0  0  0  0  0  0  0  0  0  0  0  0
    8.0371   -0.8372    0.0000 H   0  0  0  0  0  0  0  0  0  0  0  0
    8.4222   -0.8354    0.0000 H   0  0  0  0  0  0  0  0  0  0  0  0
    8.4222   -3.6413    0.0000 H   0  0  0  0  0  0  0  0  0  0  0  0
    9.2322   -2.2384    0.0000 H   0  0  0  0  0  0  0  0  0  0  0  0
  1 16  1  0  0  0  0
  2 26  1  0  0  0  0
  3  9  1  0  0  0  0
  3 37  1  0  0  0  0
  4 10  1  0  0  0  0
  4 13  1  0  0  0  0
  4 14  1  0  0  0  0
  5  7  1  0  0  0  0
  5 11  1  0  0  0  0
  5 23  1  0  0  0  0
  6 14  2  0  0  0  0
  6 15  1  0  0  0  0
  7 29  2  0  0  0  0
  8 23  2  0  0  0  0
  8 29  1  0  0  0  0
  9 10  1  0  0  0  0
  9 11  1  0  0  0  0
  9 12  1  0  0  0  0
 10 33  1  0  0  0  0
 10 34  1  0  0  0  0
 11 35  1  0  0  0  0
 11 36  1  0  0  0  0
 12 16  2  0  0  0  0
 12 17  1  0  0  0  0
 13 15  1  0  0  0  0
 13 19  2  0  0  0  0
 14 18  1  0  0  0  0
 15 20  2  0  0  0  0
 16 21  1  0  0  0  0
 17 22  2  0  0  0  0
 17 38  1  0  0  0  0
 18 27  2  0  0  0  0
 18 28  1  0  0  0  0
 19 24  1  0  0  0  0
 19 39  1  0  0  0  0
 20 25  1  0  0  0  0
 20 40  1  0  0  0  0
 21 26  2  0  0  0  0
 21 41  1  0  0  0  0
 22 26  1  0  0  0  0
 22 42  1  0  0  0  0
 23 43  1  0  0  0  0
 24 25  2  0  0  0  0
 24 44  1  0  0  0  0
 25 45  1  0  0  0  0
 27 30  1  0  0  0  0
 27 46  1  0  0  0  0
 28 31  2  0  0  0  0
 28 47  1  0  0  0  0
 29 48  1  0  0  0  0
 30 32  2  0  0  0  0
 30 49  1  0  0  0  0
 31 32  1  0  0  0  0
 31 50  1  0  0  0  0
 32 51  1  0  0  0  0
M  END
> <PUBCHEM_COMPOUND_CID>
513493
> <PUBCHEM_COMPOUND_CANONICALIZED>
1
> <PUBCHEM_CACTVS_COMPLEXITY>
623
> <PUBCHEM_CACTVS_HBOND_ACCEPTOR>
6
> <PUBCHEM_CACTVS_HBOND_DONOR>
1
> <PUBCHEM_CACTVS_ROTATABLE_BOND>
6
> <PUBCHEM_CACTVS_SUBSKEYS>
AAADceB7oYAAAAAAAAAAAAAAAAAAAWLAAAAwYMAAAAAAAFgB/AAAHwAICAAADEzBnww10LcMEgCiAyZjZACSgC8xkqAd2CA4fJiKbqLA2ZGUcAhswAPY2CeQwOAOgAAAAAAAACAAAAAAAAAAQAAAAAAAAA==
> <PUBCHEM_IUPAC_OPENEYE_NAME>
2-(2,4-difluorophenyl)-1-(2-phenylbenzimidazol-1-yl)-3-(1,2,4-triazol-1-yl)propan-2-ol
> <PUBCHEM_IUPAC_CAS_NAME>
2-(2,4-difluorophenyl)-1-(2-phenyl-1-benzimidazolyl)-3-(1,2,4-triazol-1-yl)-2-propanol
> <PUBCHEM_IUPAC_NAME_MARKUP>
2-(2,4-difluorophenyl)-1-(2-phenylbenzimidazol-1-yl)-3-(1,2,4-triazol-1-yl)propan-2-ol
> <PUBCHEM_IUPAC_NAME>
2-(2,4-difluorophenyl)-1-(2-phenylbenzimidazol-1-yl)-3-(1,2,4-triazol-1-yl)propan-2-ol
> <PUBCHEM_IUPAC_SYSTEMATIC_NAME>
2-[2,4-bis(fluoranyl)phenyl]-1-(2-phenylbenzimidazol-1-yl)-3-(1,2,4-triazol-1-yl)propan-2-ol
> <PUBCHEM_IUPAC_TRADITIONAL_NAME>
2-(2,4-difluorophenyl)-1-(2-phenylbenzimidazol-1-yl)-3-(1,2,4-triazol-1-yl)propan-2-ol
> <PUBCHEM_IUPAC_INCHI>
InChI=1S/C24H19F2N5O/c25-18-10-11-19(20(26)12-18)24(32,13-30-16-27-15-28-30)14-31-22-9-5-4-8-21(22)29-23(31)17-6-2-1-3-7-17/h1-12,15-16,32H,13-14H2
> <PUBCHEM_IUPAC_INCHIKEY>
RNPUQUXTAWWMMS-UHFFFAOYSA-N
> <PUBCHEM_XLOGP3_AA>
3.6
> <PUBCHEM_EXACT_MASS>
431.15576657
> <PUBCHEM_MOLECULAR_FORMULA>
C24H19F2N5O
> <PUBCHEM_MOLECULAR_WEIGHT>
431.4
> <PUBCHEM_OPENEYE_CAN_SMILES>
C1=CC=C(C=C1)C2=NC3=CC=CC=C3N2CC(CN4C=NC=N4)(C5=C(C=C(C=C5)F)F)O
> <PUBCHEM_OPENEYE_ISO_SMILES>
C1=CC=C(C=C1)C2=NC3=CC=CC=C3N2CC(CN4C=NC=N4)(C5=C(C=C(C=C5)F)F)O
> <PUBCHEM_CACTVS_TPSA>
68.8
> <PUBCHEM_MONOISOTOPIC_WEIGHT>
431.15576657
> <PUBCHEM_TOTAL_CHARGE>
0
> <PUBCHEM_HEAVY_ATOM_COUNT>
32
> <PUBCHEM_ATOM_DEF_STEREO_COUNT>
0
> <PUBCHEM_ATOM_UDEF_STEREO_COUNT>
1
> <PUBCHEM_BOND_DEF_STEREO_COUNT>
0
> <PUBCHEM_BOND_UDEF_STEREO_COUNT>
0
> <PUBCHEM_ISOTOPIC_ATOM_COUNT>
0
> <PUBCHEM_COMPONENT_COUNT>
1
> <PUBCHEM_CACTVS_TAUTO_COUNT>
-1
> <PUBCHEM_COORDINATE_TYPE>
1
5
255
> <PUBCHEM_BONDANNOTATIONS>
12  16  8
12  17  8
13  15  8
13  19  8
15  20  8
16  21  8
17  22  8
18  27  8
18  28  8
19  24  8
20  25  8
21  26  8
22  26  8
24  25  8
27  30  8
28  31  8
9  3  3
30  32  8
31  32  8
4  13  8
4  14  8
5  23  8
5  7  8
6  14  8
6  15  8
7  29  8
8  23  8
8  29  8
$$$$
