513445
  -OEChem-10302200282D
121123  0     1  0  0  0  0  0999 V2000
   12.3923    8.5000    0.0000 I   0  0  0  0  0  0  0  0  0  0  0  0
    8.9282    8.5000    0.0000 I   0  0  0  0  0  0  0  0  0  0  0  0
   14.1244    9.5000    0.0000 I   0  0  0  0  0  0  0  0  0  0  0  0
   12.3923   12.5000    0.0000 I   0  0  0  0  0  0  0  0  0  0  0  0
    8.9282   -0.5000    0.0000 O   0  0  0  0  0  0  0  0  0  0  0  0
    8.9282    0.5000    0.0000 O   0  0  0  0  0  0  0  0  0  0  0  0
    8.0622    4.0000    0.0000 O   0  0  0  0  0  0  0  0  0  0  0  0
   10.6603   -0.5000    0.0000 O   0  0  0  0  0  0  0  0  0  0  0  0
    8.0622    5.0000    0.0000 O   0  0  0  0  0  0  0  0  0  0  0  0
    2.8660   -1.0000    0.0000 O   0  0  0  0  0  0  0  0  0  0  0  0
   11.5263    1.0000    0.0000 O   0  0  0  0  0  0  0  0  0  0  0  0
    8.9282    6.5000    0.0000 O   0  0  0  0  0  0  0  0  0  0  0  0
   10.6603    9.5000    0.0000 O   0  0  0  0  0  0  0  0  0  0  0  0
   14.1244   11.5000    0.0000 O   0  0  0  0  0  0  0  0  0  0  0  0
    7.1962   -0.5000    0.0000 N   0  0  0  0  0  0  0  0  0  0  0  0
    8.9282   -2.5000    0.0000 N   0  0  0  0  0  0  0  0  0  0  0  0
    8.0622    2.0000    0.0000 N   0  0  0  0  0  0  0  0  0  0  0  0
    9.7942    4.0000    0.0000 N   0  0  0  0  0  0  0  0  0  0  0  0
    5.4641   -5.5000    0.0000 C   0  0  0  0  0  0  0  0  0  0  0  0
    5.4641   -6.5000    0.0000 C   0  0  0  0  0  0  0  0  0  0  0  0
    6.3301   -5.0000    0.0000 C   0  0  0  0  0  0  0  0  0  0  0  0
    4.5981   -7.0000    0.0000 C   0  0  0  0  0  0  0  0  0  0  0  0
    6.3301   -4.0000    0.0000 C   0  0  0  0  0  0  0  0  0  0  0  0
    4.5981   -8.0000    0.0000 C   0  0  0  0  0  0  0  0  0  0  0  0
    7.1962   -3.5000    0.0000 C   0  0  0  0  0  0  0  0  0  0  0  0
    3.7320   -8.5000    0.0000 C   0  0  0  0  0  0  0  0  0  0  0  0
    7.1962   -2.5000    0.0000 C   0  0  0  0  0  0  0  0  0  0  0  0
    3.7320   -9.5000    0.0000 C   0  0  0  0  0  0  0  0  0  0  0  0
    8.0622   -2.0000    0.0000 C   0  0  3  0  0  0  0  0  0  0  0  0
    2.8660  -10.0000    0.0000 C   0  0  0  0  0  0  0  0  0  0  0  0
    2.8660  -11.0000    0.0000 C   0  0  0  0  0  0  0  0  0  0  0  0
    7.1962    0.5000    0.0000 C   0  0  1  0  0  0  0  0  0  0  0  0
    8.0622   -1.0000    0.0000 C   0  0  0  0  0  0  0  0  0  0  0  0
    6.3301    1.0000    0.0000 C   0  0  0  0  0  0  0  0  0  0  0  0
    2.0000  -11.5000    0.0000 C   0  0  0  0  0  0  0  0  0  0  0  0
    8.9282    2.5000    0.0000 C   0  0  1  0  0  0  0  0  0  0  0  0
    8.0622    1.0000    0.0000 C   0  0  0  0  0  0  0  0  0  0  0  0
    9.7942    2.0000    0.0000 C   0  0  0  0  0  0  0  0  0  0  0  0
    5.4641    0.5000    0.0000 C   0  0  0  0  0  0  0  0  0  0  0  0
    8.9282    3.5000    0.0000 C   0  0  0  0  0  0  0  0  0  0  0  0
    2.0000  -12.5000    0.0000 C   0  0  0  0  0  0  0  0  0  0  0  0
    9.7942    1.0000    0.0000 C   0  0  0  0  0  0  0  0  0  0  0  0
    9.7942    5.0000    0.0000 C   0  0  1  0  0  0  0  0  0  0  0  0
   10.6603    5.5000    0.0000 C   0  0  0  0  0  0  0  0  0  0  0  0
    5.4641   -0.5000    0.0000 C   0  0  0  0  0  0  0  0  0  0  0  0
    4.5981    1.0000    0.0000 C   0  0  0  0  0  0  0  0  0  0  0  0
   10.6603    6.5000    0.0000 C   0  0  0  0  0  0  0  0  0  0  0  0
    4.5981   -1.0000    0.0000 C   0  0  0  0  0  0  0  0  0  0  0  0
    3.7320    0.5000    0.0000 C   0  0  0  0  0  0  0  0  0  0  0  0
   10.6603    0.5000    0.0000 C   0  0  0  0  0  0  0  0  0  0  0  0
    8.9282    5.5000    0.0000 C   0  0  0  0  0  0  0  0  0  0  0  0
    3.7320   -0.5000    0.0000 C   0  0  0  0  0  0  0  0  0  0  0  0
    9.7942    7.0000    0.0000 C   0  0  0  0  0  0  0  0  0  0  0  0
   11.5263    7.0000    0.0000 C   0  0  0  0  0  0  0  0  0  0  0  0
   11.5263    8.0000    0.0000 C   0  0  0  0  0  0  0  0  0  0  0  0
    9.7942    8.0000    0.0000 C   0  0  0  0  0  0  0  0  0  0  0  0
   10.6603    8.5000    0.0000 C   0  0  0  0  0  0  0  0  0  0  0  0
   11.5263   10.0000    0.0000 C   0  0  0  0  0  0  0  0  0  0  0  0
   11.5263   11.0000    0.0000 C   0  0  0  0  0  0  0  0  0  0  0  0
   12.3923    9.5000    0.0000 C   0  0  0  0  0  0  0  0  0  0  0  0
   13.2583   10.0000    0.0000 C   0  0  0  0  0  0  0  0  0  0  0  0
   12.3923   11.5000    0.0000 C   0  0  0  0  0  0  0  0  0  0  0  0
   13.2583   11.0000    0.0000 C   0  0  0  0  0  0  0  0  0  0  0  0
    5.2520   -4.9174    0.0000 H   0  0  0  0  0  0  0  0  0  0  0  0
    4.8535   -5.6077    0.0000 H   0  0  0  0  0  0  0  0  0  0  0  0
    5.6762   -7.0826    0.0000 H   0  0  0  0  0  0  0  0  0  0  0  0
    6.0747   -6.3923    0.0000 H   0  0  0  0  0  0  0  0  0  0  0  0
    6.5422   -5.5826    0.0000 H   0  0  0  0  0  0  0  0  0  0  0  0
    6.9407   -4.8923    0.0000 H   0  0  0  0  0  0  0  0  0  0  0  0
    4.3860   -6.4174    0.0000 H   0  0  0  0  0  0  0  0  0  0  0  0
    3.9875   -7.1077    0.0000 H   0  0  0  0  0  0  0  0  0  0  0  0
    6.1181   -3.4174    0.0000 H   0  0  0  0  0  0  0  0  0  0  0  0
    5.7196   -4.1077    0.0000 H   0  0  0  0  0  0  0  0  0  0  0  0
    4.8101   -8.5826    0.0000 H   0  0  0  0  0  0  0  0  0  0  0  0
    5.2087   -7.8923    0.0000 H   0  0  0  0  0  0  0  0  0  0  0  0
    7.4082   -4.0826    0.0000 H   0  0  0  0  0  0  0  0  0  0  0  0
    7.8067   -3.3923    0.0000 H   0  0  0  0  0  0  0  0  0  0  0  0
    3.5200   -7.9174    0.0000 H   0  0  0  0  0  0  0  0  0  0  0  0
    3.1215   -8.6077    0.0000 H   0  0  0  0  0  0  0  0  0  0  0  0
    6.9841   -1.9174    0.0000 H   0  0  0  0  0  0  0  0  0  0  0  0
    6.5856   -2.6077    0.0000 H   0  0  0  0  0  0  0  0  0  0  0  0
    3.9441  -10.0826    0.0000 H   0  0  0  0  0  0  0  0  0  0  0  0
    4.3426   -9.3923    0.0000 H   0  0  0  0  0  0  0  0  0  0  0  0
    8.0622   -2.6200    0.0000 H   0  0  0  0  0  0  0  0  0  0  0  0
    2.6540   -9.4174    0.0000 H   0  0  0  0  0  0  0  0  0  0  0  0
    2.2554  -10.1077    0.0000 H   0  0  0  0  0  0  0  0  0  0  0  0
    3.0781  -11.5826    0.0000 H   0  0  0  0  0  0  0  0  0  0  0  0
    3.4766  -10.8923    0.0000 H   0  0  0  0  0  0  0  0  0  0  0  0
    6.6592    0.1900    0.0000 H   0  0  0  0  0  0  0  0  0  0  0  0
    6.6592   -0.8100    0.0000 H   0  0  0  0  0  0  0  0  0  0  0  0
    6.7287    1.4750    0.0000 H   0  0  0  0  0  0  0  0  0  0  0  0
    5.9316    1.4750    0.0000 H   0  0  0  0  0  0  0  0  0  0  0  0
    1.7880  -10.9174    0.0000 H   0  0  0  0  0  0  0  0  0  0  0  0
    1.3894  -11.6077    0.0000 H   0  0  0  0  0  0  0  0  0  0  0  0
    8.9282    1.8800    0.0000 H   0  0  0  0  0  0  0  0  0  0  0  0
    8.9282   -3.1200    0.0000 H   0  0  0  0  0  0  0  0  0  0  0  0
    9.4651   -2.1900    0.0000 H   0  0  0  0  0  0  0  0  0  0  0  0
    7.5252    2.3100    0.0000 H   0  0  0  0  0  0  0  0  0  0  0  0
   10.4048    1.8923    0.0000 H   0  0  0  0  0  0  0  0  0  0  0  0
   10.0063    2.5826    0.0000 H   0  0  0  0  0  0  0  0  0  0  0  0
    1.3800  -12.5000    0.0000 H   0  0  0  0  0  0  0  0  0  0  0  0
    2.0000  -13.1200    0.0000 H   0  0  0  0  0  0  0  0  0  0  0  0
    2.6200  -12.5000    0.0000 H   0  0  0  0  0  0  0  0  0  0  0  0
    9.1836    1.1077    0.0000 H   0  0  0  0  0  0  0  0  0  0  0  0
    9.5822    0.4174    0.0000 H   0  0  0  0  0  0  0  0  0  0  0  0
    9.2573    4.6900    0.0000 H   0  0  0  0  0  0  0  0  0  0  0  0
   10.3312    3.6900    0.0000 H   0  0  0  0  0  0  0  0  0  0  0  0
   10.8723    4.9174    0.0000 H   0  0  0  0  0  0  0  0  0  0  0  0
   11.2708    5.6077    0.0000 H   0  0  0  0  0  0  0  0  0  0  0  0
    6.0010   -0.8100    0.0000 H   0  0  0  0  0  0  0  0  0  0  0  0
    4.5981    1.6200    0.0000 H   0  0  0  0  0  0  0  0  0  0  0  0
    4.5981   -1.6200    0.0000 H   0  0  0  0  0  0  0  0  0  0  0  0
    3.1951    0.8100    0.0000 H   0  0  0  0  0  0  0  0  0  0  0  0
    9.2573    6.6900    0.0000 H   0  0  0  0  0  0  0  0  0  0  0  0
   12.0632    6.6900    0.0000 H   0  0  0  0  0  0  0  0  0  0  0  0
   11.1972   -0.8100    0.0000 H   0  0  0  0  0  0  0  0  0  0  0  0
    7.5252    5.3100    0.0000 H   0  0  0  0  0  0  0  0  0  0  0  0
    2.3291   -0.6900    0.0000 H   0  0  0  0  0  0  0  0  0  0  0  0
   10.9893   11.3100    0.0000 H   0  0  0  0  0  0  0  0  0  0  0  0
   12.3923    8.8800    0.0000 H   0  0  0  0  0  0  0  0  0  0  0  0
   14.1244   12.1200    0.0000 H   0  0  0  0  0  0  0  0  0  0  0  0
  1 55  1  0  0  0  0
  2 56  1  0  0  0  0
  3 61  1  0  0  0  0
  4 62  1  0  0  0  0
  5 33  2  0  0  0  0
  6 37  2  0  0  0  0
  7 40  2  0  0  0  0
  8 50  1  0  0  0  0
  8116  1  0  0  0  0
  9 51  1  0  0  0  0
  9117  1  0  0  0  0
 10 52  1  0  0  0  0
 10118  1  0  0  0  0
 11 50  2  0  0  0  0
 12 51  2  0  0  0  0
 13 57  1  0  0  0  0
 13 58  1  0  0  0  0
 14 63  1  0  0  0  0
 14121  1  0  0  0  0
 32 15  1  1  0  0  0
 15 33  1  0  0  0  0
 15 90  1  0  0  0  0
 16 29  1  0  0  0  0
 16 96  1  0  0  0  0
 16 97  1  0  0  0  0
 36 17  1  6  0  0  0
 17 37  1  0  0  0  0
 17 98  1  0  0  0  0
 18 40  1  0  0  0  0
 43 18  1  6  0  0  0
 18107  1  0  0  0  0
 19 20  1  0  0  0  0
 19 21  1  0  0  0  0
 19 64  1  0  0  0  0
 19 65  1  0  0  0  0
 20 22  1  0  0  0  0
 20 66  1  0  0  0  0
 20 67  1  0  0  0  0
 21 23  1  0  0  0  0
 21 68  1  0  0  0  0
 21 69  1  0  0  0  0
 22 24  1  0  0  0  0
 22 70  1  0  0  0  0
 22 71  1  0  0  0  0
 23 25  1  0  0  0  0
 23 72  1  0  0  0  0
 23 73  1  0  0  0  0
 24 26  1  0  0  0  0
 24 74  1  0  0  0  0
 24 75  1  0  0  0  0
 25 27  1  0  0  0  0
 25 76  1  0  0  0  0
 25 77  1  0  0  0  0
 26 28  1  0  0  0  0
 26 78  1  0  0  0  0
 26 79  1  0  0  0  0
 27 29  1  0  0  0  0
 27 80  1  0  0  0  0
 27 81  1  0  0  0  0
 28 30  1  0  0  0  0
 28 82  1  0  0  0  0
 28 83  1  0  0  0  0
 29 33  1  0  0  0  0
 29 84  1  0  0  0  0
 30 31  1  0  0  0  0
 30 85  1  0  0  0  0
 30 86  1  0  0  0  0
 31 35  1  0  0  0  0
 31 87  1  0  0  0  0
 31 88  1  0  0  0  0
 32 34  1  0  0  0  0
 32 37  1  0  0  0  0
 32 89  1  0  0  0  0
 34 39  1  0  0  0  0
 34 91  1  0  0  0  0
 34 92  1  0  0  0  0
 35 41  1  0  0  0  0
 35 93  1  0  0  0  0
 35 94  1  0  0  0  0
 36 38  1  0  0  0  0
 36 40  1  0  0  0  0
 36 95  1  0  0  0  0
 38 42  1  0  0  0  0
 38 99  1  0  0  0  0
 38100  1  0  0  0  0
 39 45  2  0  0  0  0
 39 46  1  0  0  0  0
 41101  1  0  0  0  0
 41102  1  0  0  0  0
 41103  1  0  0  0  0
 42 50  1  0  0  0  0
 42104  1  0  0  0  0
 42105  1  0  0  0  0
 43 44  1  0  0  0  0
 43 51  1  0  0  0  0
 43106  1  0  0  0  0
 44 47  1  0  0  0  0
 44108  1  0  0  0  0
 44109  1  0  0  0  0
 45 48  1  0  0  0  0
 45110  1  0  0  0  0
 46 49  2  0  0  0  0
 46111  1  0  0  0  0
 47 53  2  0  0  0  0
 47 54  1  0  0  0  0
 48 52  2  0  0  0  0
 48112  1  0  0  0  0
 49 52  1  0  0  0  0
 49113  1  0  0  0  0
 53 56  1  0  0  0  0
 53114  1  0  0  0  0
 54 55  2  0  0  0  0
 54115  1  0  0  0  0
 55 57  1  0  0  0  0
 56 57  2  0  0  0  0
 58 59  2  0  0  0  0
 58 60  1  0  0  0  0
 59 62  1  0  0  0  0
 59119  1  0  0  0  0
 60 61  2  0  0  0  0
 60120  1  0  0  0  0
 61 63  1  0  0  0  0
 62 63  2  0  0  0  0
M  END
> <PUBCHEM_COMPOUND_CID>
513445
> <PUBCHEM_COMPOUND_CANONICALIZED>
1
> <PUBCHEM_CACTVS_COMPLEXITY>
1370
> <PUBCHEM_CACTVS_HBOND_ACCEPTOR>
11
> <PUBCHEM_CACTVS_HBOND_DONOR>
8
> <PUBCHEM_CACTVS_ROTATABLE_BOND>
29
> <PUBCHEM_CACTVS_SUBSKEYS>
AAADcfB/vAAAA4AAAAAAAAAAAAAAAAAAAAAwYMAAAAAAAAABUAAAHgAwCAAADCzDmAQyDoLABgCIAiHSGAACCAAgIAAIiIGOCIgOZjKGsTuWeCCk1hGYuAf836KOIQAAAAAAAABCAAAAAAAAAAAAAAAAAA==
> <PUBCHEM_IUPAC_OPENEYE_NAME>
(4S)-4-[[(2S)-2-(2-aminohexadecanoylamino)-3-(4-hydroxyphenyl)propanoyl]amino]-5-[[(1S)-1-carboxy-2-[4-(4-hydroxy-3,5-diiodo-phenoxy)-3,5-diiodo-phenyl]ethyl]amino]-5-oxo-pentanoic acid
> <PUBCHEM_IUPAC_CAS_NAME>
(4S)-4-[[(2S)-2-[(2-amino-1-oxohexadecyl)amino]-3-(4-hydroxyphenyl)-1-oxopropyl]amino]-5-[[(1S)-1-carboxy-2-[4-(4-hydroxy-3,5-diiodophenoxy)-3,5-diiodophenyl]ethyl]amino]-5-oxopentanoic acid
> <PUBCHEM_IUPAC_NAME_MARKUP>
(4<I>S</I>)-4-[[(2<I>S</I>)-2-(2-aminohexadecanoylamino)-3-(4-hydroxyphenyl)propanoyl]amino]-5-[[(1<I>S</I>)-1-carboxy-2-[4-(4-hydroxy-3,5-diiodophenoxy)-3,5-diiodophenyl]ethyl]amino]-5-oxopentanoic acid
> <PUBCHEM_IUPAC_NAME>
(4S)-4-[[(2S)-2-(2-aminohexadecanoylamino)-3-(4-hydroxyphenyl)propanoyl]amino]-5-[[(1S)-1-carboxy-2-[4-(4-hydroxy-3,5-diiodophenoxy)-3,5-diiodophenyl]ethyl]amino]-5-oxopentanoic acid
> <PUBCHEM_IUPAC_SYSTEMATIC_NAME>
(4S)-4-[[(2S)-2-(2-azanylhexadecanoylamino)-3-(4-hydroxyphenyl)propanoyl]amino]-5-[[(2S)-3-[4-[3,5-bis(iodanyl)-4-oxidanyl-phenoxy]-3,5-bis(iodanyl)phenyl]-1-oxidanyl-1-oxidanylidene-propan-2-yl]amino]-5-oxidanylidene-pentanoic acid
> <PUBCHEM_IUPAC_TRADITIONAL_NAME>
(4S)-4-[[(2S)-2-(2-aminohexadecanoylamino)-3-(4-hydroxyphenyl)propanoyl]amino]-5-[[(1S)-1-carboxy-2-[4-(4-hydroxy-3,5-diiodo-phenoxy)-3,5-diiodo-phenyl]ethyl]amino]-5-keto-valeric acid
> <PUBCHEM_IUPAC_INCHI>
InChI=1S/C45H58I4N4O10/c1-2-3-4-5-6-7-8-9-10-11-12-13-14-35(50)42(58)52-37(23-27-15-17-29(54)18-16-27)44(60)51-36(19-20-39(55)56)43(59)53-38(45(61)62)24-28-21-33(48)41(34(49)22-28)63-30-25-31(46)40(57)32(47)26-30/h15-18,21-22,25-26,35-38,54,57H,2-14,19-20,23-24,50H2,1H3,(H,51,60)(H,52,58)(H,53,59)(H,55,56)(H,61,62)/t35?,36-,37-,38-/m0/s1
> <PUBCHEM_IUPAC_INCHIKEY>
MMRBQXDFYOJRLY-MYHQZBQWSA-N
> <PUBCHEM_XLOGP3_AA>
9.2
> <PUBCHEM_EXACT_MASS>
1322.0332
> <PUBCHEM_MOLECULAR_FORMULA>
C45H58I4N4O10
> <PUBCHEM_MOLECULAR_WEIGHT>
1322.6
> <PUBCHEM_OPENEYE_CAN_SMILES>
CCCCCCCCCCCCCCC(C(=O)NC(CC1=CC=C(C=C1)O)C(=O)NC(CCC(=O)O)C(=O)NC(CC2=CC(=C(C(=C2)I)OC3=CC(=C(C(=C3)I)O)I)I)C(=O)O)N
> <PUBCHEM_OPENEYE_ISO_SMILES>
CCCCCCCCCCCCCCC(C(=O)N[C@@H](CC1=CC=C(C=C1)O)C(=O)N[C@@H](CCC(=O)O)C(=O)N[C@@H](CC2=CC(=C(C(=C2)I)OC3=CC(=C(C(=C3)I)O)I)I)C(=O)O)N
> <PUBCHEM_CACTVS_TPSA>
238
> <PUBCHEM_MONOISOTOPIC_WEIGHT>
1322.0332
> <PUBCHEM_TOTAL_CHARGE>
0
> <PUBCHEM_HEAVY_ATOM_COUNT>
63
> <PUBCHEM_ATOM_DEF_STEREO_COUNT>
3
> <PUBCHEM_ATOM_UDEF_STEREO_COUNT>
1
> <PUBCHEM_BOND_DEF_STEREO_COUNT>
0
> <PUBCHEM_BOND_UDEF_STEREO_COUNT>
0
> <PUBCHEM_ISOTOPIC_ATOM_COUNT>
0
> <PUBCHEM_COMPONENT_COUNT>
1
> <PUBCHEM_CACTVS_TAUTO_COUNT>
-1
> <PUBCHEM_COORDINATE_TYPE>
1
5
255
> <PUBCHEM_BONDANNOTATIONS>
32  15  5
29  16  3
36  17  6
43  18  6
39  45  8
39  46  8
45  48  8
46  49  8
47  53  8
47  54  8
48  52  8
49  52  8
53  56  8
54  55  8
55  57  8
56  57  8
58  59  8
58  60  8
59  62  8
60  61  8
61  63  8
62  63  8
$$$$
