513438
  -OEChem-10302200282D
 83 87  0     1  0  0  0  0  0999 V2000
    4.5037   -7.7577    0.0000 O   0  0  0  0  0  0  0  0  0  0  0  0
    8.3411   -5.4308    0.0000 O   0  0  0  0  0  0  0  0  0  0  0  0
    7.8853   -7.4277    0.0000 O   0  0  0  0  0  0  0  0  0  0  0  0
    8.9974   -2.5034    0.0000 O   0  0  0  0  0  0  0  0  0  0  0  0
    9.3652    0.7380    0.0000 O   0  0  0  0  0  0  0  0  0  0  0  0
    7.7575    3.5765    0.0000 O   0  0  0  0  0  0  0  0  0  0  0  0
    3.6027   -6.3238    0.0000 N   0  0  0  0  0  0  0  0  0  0  0  0
    5.0037   -4.5671    0.0000 N   0  0  0  0  0  0  0  0  0  0  0  0
   11.7308   -0.5144    0.0000 N   0  0  0  0  0  0  0  0  0  0  0  0
   10.6875   -2.8824    0.0000 N   0  0  0  0  0  0  0  0  0  0  0  0
   10.4075    3.9538    0.0000 N   0  0  0  0  0  0  0  0  0  0  0  0
   10.9552    1.4248    0.0000 N   0  0  0  0  0  0  0  0  0  0  0  0
    8.6401    5.0668    0.0000 N   0  0  0  0  0  0  0  0  0  0  0  0
    6.9415    8.0858    0.0000 N   0  0  0  0  0  0  0  0  0  0  0  0
    6.0589    6.5955    0.0000 N   0  0  0  0  0  0  0  0  0  0  0  0
    3.3802   -5.3489    0.0000 C   0  0  1  0  0  0  0  0  0  0  0  0
    2.3899   -5.2624    0.0000 C   0  0  0  0  0  0  0  0  0  0  0  0
    2.0000   -6.1768    0.0000 C   0  0  0  0  0  0  0  0  0  0  0  0
    2.7480   -6.8315    0.0000 C   0  0  0  0  0  0  0  0  0  0  0  0
    4.0037   -4.5671    0.0000 C   0  0  0  0  0  0  0  0  0  0  0  0
    4.5037   -6.7577    0.0000 C   0  0  0  0  0  0  0  0  0  0  0  0
    5.4047   -6.3239    0.0000 C   0  0  0  0  0  0  0  0  0  0  0  0
    5.6272   -5.3489    0.0000 C   0  0  0  0  0  0  0  0  0  0  0  0
    6.1572   -7.0440    0.0000 C   0  0  0  0  0  0  0  0  0  0  0  0
    6.6177   -5.0266    0.0000 C   0  0  0  0  0  0  0  0  0  0  0  0
    7.1549   -6.7447    0.0000 C   0  0  0  0  0  0  0  0  0  0  0  0
    7.3867   -5.7292    0.0000 C   0  0  0  0  0  0  0  0  0  0  0  0
    8.5599   -4.4550    0.0000 C   0  0  0  0  0  0  0  0  0  0  0  0
    9.5143   -4.1566    0.0000 C   0  0  0  0  0  0  0  0  0  0  0  0
    7.6590   -8.4018    0.0000 C   0  0  0  0  0  0  0  0  0  0  0  0
    9.7331   -3.1808    0.0000 C   0  0  0  0  0  0  0  0  0  0  0  0
   10.9063   -1.9066    0.0000 C   0  0  0  0  0  0  0  0  0  0  0  0
   10.7551   -0.2956    0.0000 C   0  0  0  0  0  0  0  0  0  0  0  0
   10.2455   -1.1560    0.0000 C   0  0  0  0  0  0  0  0  0  0  0  0
   11.8243   -1.5100    0.0000 C   0  0  0  0  0  0  0  0  0  0  0  0
   10.5587    2.3428    0.0000 C   0  0  0  0  0  0  0  0  0  0  0  0
    9.4894    3.5572    0.0000 C   0  0  0  0  0  0  0  0  0  0  0  0
   10.3585    0.6224    0.0000 C   0  0  0  0  0  0  0  0  0  0  0  0
    9.5829    2.5616    0.0000 C   0  0  0  0  0  0  0  0  0  0  0  0
   11.0683    3.2032    0.0000 C   0  0  0  0  0  0  0  0  0  0  0  0
   12.4814    0.1464    0.0000 C   0  0  0  0  0  0  0  0  0  0  0  0
    8.6290    4.0668    0.0000 C   0  0  0  0  0  0  0  0  0  0  0  0
   10.6262    4.9296    0.0000 C   0  0  0  0  0  0  0  0  0  0  0  0
    7.7797    5.5764    0.0000 C   0  0  0  0  0  0  0  0  0  0  0  0
    7.7908    6.5763    0.0000 C   0  0  0  0  0  0  0  0  0  0  0  0
    6.9304    7.0859    0.0000 C   0  0  0  0  0  0  0  0  0  0  0  0
    3.0451   -4.5678    0.0000 H   0  0  0  0  0  0  0  0  0  0  0  0
    2.5085   -4.6538    0.0000 H   0  0  0  0  0  0  0  0  0  0  0  0
    1.7972   -5.0805    0.0000 H   0  0  0  0  0  0  0  0  0  0  0  0
    1.4584   -5.8750    0.0000 H   0  0  0  0  0  0  0  0  0  0  0  0
    1.6430   -6.6837    0.0000 H   0  0  0  0  0  0  0  0  0  0  0  0
    2.2929   -7.2525    0.0000 H   0  0  0  0  0  0  0  0  0  0  0  0
    3.1189   -7.3283    0.0000 H   0  0  0  0  0  0  0  0  0  0  0  0
    3.7347   -4.0085    0.0000 H   0  0  0  0  0  0  0  0  0  0  0  0
    6.0123   -7.6469    0.0000 H   0  0  0  0  0  0  0  0  0  0  0  0
    6.7487   -4.4206    0.0000 H   0  0  0  0  0  0  0  0  0  0  0  0
    8.4804   -3.8401    0.0000 H   0  0  0  0  0  0  0  0  0  0  0  0
    7.9406   -4.4265    0.0000 H   0  0  0  0  0  0  0  0  0  0  0  0
    9.5938   -4.7714    0.0000 H   0  0  0  0  0  0  0  0  0  0  0  0
   10.1337   -4.1851    0.0000 H   0  0  0  0  0  0  0  0  0  0  0  0
    7.0551   -8.2615    0.0000 H   0  0  0  0  0  0  0  0  0  0  0  0
    7.5188   -9.0057    0.0000 H   0  0  0  0  0  0  0  0  0  0  0  0
    8.2630   -8.5421    0.0000 H   0  0  0  0  0  0  0  0  0  0  0  0
   11.1437   -3.3023    0.0000 H   0  0  0  0  0  0  0  0  0  0  0  0
    9.6282   -1.2140    0.0000 H   0  0  0  0  0  0  0  0  0  0  0  0
   12.3578   -1.8260    0.0000 H   0  0  0  0  0  0  0  0  0  0  0  0
    9.1176    2.1519    0.0000 H   0  0  0  0  0  0  0  0  0  0  0  0
   11.6856    3.2612    0.0000 H   0  0  0  0  0  0  0  0  0  0  0  0
   11.5711    1.3532    0.0000 H   0  0  0  0  0  0  0  0  0  0  0  0
   12.8911   -0.3189    0.0000 H   0  0  0  0  0  0  0  0  0  0  0  0
   12.9467    0.5562    0.0000 H   0  0  0  0  0  0  0  0  0  0  0  0
   12.0717    0.6118    0.0000 H   0  0  0  0  0  0  0  0  0  0  0  0
   11.2312    4.7939    0.0000 H   0  0  0  0  0  0  0  0  0  0  0  0
   10.7619    5.5345    0.0000 H   0  0  0  0  0  0  0  0  0  0  0  0
   10.0212    5.0652    0.0000 H   0  0  0  0  0  0  0  0  0  0  0  0
    9.1805    5.3708    0.0000 H   0  0  0  0  0  0  0  0  0  0  0  0
    7.1704    5.6908    0.0000 H   0  0  0  0  0  0  0  0  0  0  0  0
    7.5612    4.9961    0.0000 H   0  0  0  0  0  0  0  0  0  0  0  0
    8.4002    6.4618    0.0000 H   0  0  0  0  0  0  0  0  0  0  0  0
    8.0094    7.1565    0.0000 H   0  0  0  0  0  0  0  0  0  0  0  0
    6.4081    8.4018    0.0000 H   0  0  0  0  0  0  0  0  0  0  0  0
    7.4819    8.3898    0.0000 H   0  0  0  0  0  0  0  0  0  0  0  0
    5.5254    6.9115    0.0000 H   0  0  0  0  0  0  0  0  0  0  0  0
  1 21  2  0  0  0  0
  2 27  1  0  0  0  0
  2 28  1  0  0  0  0
  3 26  1  0  0  0  0
  3 30  1  0  0  0  0
  4 31  2  0  0  0  0
  5 38  2  0  0  0  0
  6 42  2  0  0  0  0
  7 16  1  0  0  0  0
  7 19  1  0  0  0  0
  7 21  1  0  0  0  0
  8 20  2  0  0  0  0
  8 23  1  0  0  0  0
  9 33  1  0  0  0  0
  9 35  1  0  0  0  0
  9 41  1  0  0  0  0
 10 31  1  0  0  0  0
 10 32  1  0  0  0  0
 10 64  1  0  0  0  0
 11 37  1  0  0  0  0
 11 40  1  0  0  0  0
 11 43  1  0  0  0  0
 12 36  1  0  0  0  0
 12 38  1  0  0  0  0
 12 69  1  0  0  0  0
 13 42  1  0  0  0  0
 13 44  1  0  0  0  0
 13 76  1  0  0  0  0
 14 46  1  0  0  0  0
 14 81  1  0  0  0  0
 14 82  1  0  0  0  0
 15 46  2  0  0  0  0
 15 83  1  0  0  0  0
 16 17  1  0  0  0  0
 16 20  1  0  0  0  0
 16 47  1  6  0  0  0
 17 18  1  0  0  0  0
 17 48  1  0  0  0  0
 17 49  1  0  0  0  0
 18 19  1  0  0  0  0
 18 50  1  0  0  0  0
 18 51  1  0  0  0  0
 19 52  1  0  0  0  0
 19 53  1  0  0  0  0
 20 54  1  0  0  0  0
 21 22  1  0  0  0  0
 22 23  1  0  0  0  0
 22 24  2  0  0  0  0
 23 25  2  0  0  0  0
 24 26  1  0  0  0  0
 24 55  1  0  0  0  0
 25 27  1  0  0  0  0
 25 56  1  0  0  0  0
 26 27  2  0  0  0  0
 28 29  1  0  0  0  0
 28 57  1  0  0  0  0
 28 58  1  0  0  0  0
 29 31  1  0  0  0  0
 29 59  1  0  0  0  0
 29 60  1  0  0  0  0
 30 61  1  0  0  0  0
 30 62  1  0  0  0  0
 30 63  1  0  0  0  0
 32 34  1  0  0  0  0
 32 35  2  0  0  0  0
 33 34  2  0  0  0  0
 33 38  1  0  0  0  0
 34 65  1  0  0  0  0
 35 66  1  0  0  0  0
 36 39  1  0  0  0  0
 36 40  2  0  0  0  0
 37 39  2  0  0  0  0
 37 42  1  0  0  0  0
 39 67  1  0  0  0  0
 40 68  1  0  0  0  0
 41 70  1  0  0  0  0
 41 71  1  0  0  0  0
 41 72  1  0  0  0  0
 43 73  1  0  0  0  0
 43 74  1  0  0  0  0
 43 75  1  0  0  0  0
 44 45  1  0  0  0  0
 44 77  1  0  0  0  0
 44 78  1  0  0  0  0
 45 46  1  0  0  0  0
 45 79  1  0  0  0  0
 45 80  1  0  0  0  0
M  END
> <PUBCHEM_COMPOUND_CID>
513438
> <PUBCHEM_COMPOUND_CANONICALIZED>
1
> <PUBCHEM_CACTVS_COMPLEXITY>
1190
> <PUBCHEM_CACTVS_HBOND_ACCEPTOR>
8
> <PUBCHEM_CACTVS_HBOND_DONOR>
5
> <PUBCHEM_CACTVS_ROTATABLE_BOND>
12
> <PUBCHEM_CACTVS_SUBSKEYS>
AAADcfB7+AAAAAAAAAAAAAAAAAAAAWLFgAAwAAAABAAAAACB8AAAHgAQAAAADCzhngY/xpPMFACoAzd3dACCiCC3MiAA2KG+/NgNZv7E9fuWParm9hnK6ce+3RPOIEABAgACQABAgAIEAASAAAAAAAAAAA==
> <PUBCHEM_IUPAC_OPENEYE_NAME>
4-[3-[[(6aS)-2-methoxy-11-oxo-6a,7,8,9-tetrahydropyrrolo[2,1-c][1,4]benzodiazepin-3-yl]oxy]propanoylamino]-N-[5-[(3-amino-3-imino-propyl)carbamoyl]-1-methyl-pyrrol-3-yl]-1-methyl-pyrrole-2-carboxamide
> <PUBCHEM_IUPAC_CAS_NAME>
4-[[3-[[(6aS)-2-methoxy-11-oxo-6a,7,8,9-tetrahydropyrrolo[2,1-c][1,4]benzodiazepin-3-yl]oxy]-1-oxopropyl]amino]-N-[5-[[(3-amino-3-iminopropyl)amino]-oxomethyl]-1-methyl-3-pyrrolyl]-1-methyl-2-pyrrolecarboxamide
> <PUBCHEM_IUPAC_NAME_MARKUP>
4-[3-[[(6<I>a</I><I>S</I>)-2-methoxy-11-oxo-6<I>a</I>,7,8,9-tetrahydropyrrolo[2,1-c][1,4]benzodiazepin-3-yl]oxy]propanoylamino]-<I>N</I>-[5-[(3-amino-3-iminopropyl)carbamoyl]-1-methylpyrrol-3-yl]-1-methylpyrrole-2-carboxamide
> <PUBCHEM_IUPAC_NAME>
4-[3-[[(6aS)-2-methoxy-11-oxo-6a,7,8,9-tetrahydropyrrolo[2,1-c][1,4]benzodiazepin-3-yl]oxy]propanoylamino]-N-[5-[(3-amino-3-iminopropyl)carbamoyl]-1-methylpyrrol-3-yl]-1-methylpyrrole-2-carboxamide
> <PUBCHEM_IUPAC_SYSTEMATIC_NAME>
4-[3-[[(6aS)-2-methoxy-11-oxidanylidene-6a,7,8,9-tetrahydropyrrolo[2,1-c][1,4]benzodiazepin-3-yl]oxy]propanoylamino]-N-[5-[(3-azanyl-3-azanylidene-propyl)carbamoyl]-1-methyl-pyrrol-3-yl]-1-methyl-pyrrole-2-carboxamide
> <PUBCHEM_IUPAC_TRADITIONAL_NAME>
4-[3-[[(6aS)-11-keto-2-methoxy-6a,7,8,9-tetrahydropyrrolo[2,1-c][1,4]benzodiazepin-3-yl]oxy]propanoylamino]-N-[5-[(3-amino-3-imino-propyl)carbamoyl]-1-methyl-pyrrol-3-yl]-1-methyl-pyrrole-2-carboxamide
> <PUBCHEM_IUPAC_INCHI>
InChI=1S/C31H37N9O6/c1-38-17-19(12-23(38)29(42)34-8-6-27(32)33)37-30(43)24-11-18(16-39(24)2)36-28(41)7-10-46-26-14-22-21(13-25(26)45-3)31(44)40-9-4-5-20(40)15-35-22/h11-17,20H,4-10H2,1-3H3,(H3,32,33)(H,34,42)(H,36,41)(H,37,43)/t20-/m0/s1
> <PUBCHEM_IUPAC_INCHIKEY>
UFJAVEACVKEZGJ-FQEVSTJZSA-N
> <PUBCHEM_XLOGP3_AA>
-0.9
> <PUBCHEM_EXACT_MASS>
631.28667993
> <PUBCHEM_MOLECULAR_FORMULA>
C31H37N9O6
> <PUBCHEM_MOLECULAR_WEIGHT>
631.7
> <PUBCHEM_OPENEYE_CAN_SMILES>
CN1C=C(C=C1C(=O)NC2=CN(C(=C2)C(=O)NCCC(=N)N)C)NC(=O)CCOC3=C(C=C4C(=C3)N=CC5CCCN5C4=O)OC
> <PUBCHEM_OPENEYE_ISO_SMILES>
CN1C=C(C=C1C(=O)NC2=CN(C(=C2)C(=O)NCCC(=N)N)C)NC(=O)CCOC3=C(C=C4C(=C3)N=C[C@@H]5CCCN5C4=O)OC
> <PUBCHEM_CACTVS_TPSA>
198
> <PUBCHEM_MONOISOTOPIC_WEIGHT>
631.28667993
> <PUBCHEM_TOTAL_CHARGE>
0
> <PUBCHEM_HEAVY_ATOM_COUNT>
46
> <PUBCHEM_ATOM_DEF_STEREO_COUNT>
1
> <PUBCHEM_ATOM_UDEF_STEREO_COUNT>
0
> <PUBCHEM_BOND_DEF_STEREO_COUNT>
0
> <PUBCHEM_BOND_UDEF_STEREO_COUNT>
0
> <PUBCHEM_ISOTOPIC_ATOM_COUNT>
0
> <PUBCHEM_COMPONENT_COUNT>
1
> <PUBCHEM_CACTVS_TAUTO_COUNT>
-1
> <PUBCHEM_COORDINATE_TYPE>
1
5
255
> <PUBCHEM_BONDANNOTATIONS>
11  37  8
11  40  8
16  47  6
22  23  8
22  24  8
23  25  8
24  26  8
25  27  8
26  27  8
32  34  8
32  35  8
33  34  8
36  39  8
36  40  8
37  39  8
9  33  8
9  35  8
$$$$
