513448
  -OEChem-10302200282D
 39 39  0     1  0  0  0  0  0999 V2000
    7.1962   -1.5000    0.0000 O   0  0  0  0  0  0  0  0  0  0  0  0
    4.5981   -1.0000    0.0000 O   0  0  0  0  0  0  0  0  0  0  0  0
    6.3301    3.0000    0.0000 O   0  0  0  0  0  0  0  0  0  0  0  0
    8.0622    0.0000    0.0000 O   0  0  0  0  0  0  0  0  0  0  0  0
    6.3301    0.0000    0.0000 N   0  0  0  0  0  0  0  0  0  0  0  0
    7.1962    1.5000    0.0000 N   0  0  0  0  0  0  0  0  0  0  0  0
    5.4641    0.5000    0.0000 C   0  0  0  0  0  0  0  0  0  0  0  0
    5.4641    1.5000    0.0000 C   0  0  0  0  0  0  0  0  0  0  0  0
    4.5981    0.0000    0.0000 C   0  0  3  0  0  0  0  0  0  0  0  0
    4.5981    2.0000    0.0000 C   0  0  0  0  0  0  0  0  0  0  0  0
    6.3301   -1.0000    0.0000 C   0  0  0  0  0  0  0  0  0  0  0  0
    6.3301    2.0000    0.0000 C   0  0  0  0  0  0  0  0  0  0  0  0
    7.1962    0.5000    0.0000 C   0  0  0  0  0  0  0  0  0  0  0  0
    3.7320    0.5000    0.0000 C   0  0  0  0  0  0  0  0  0  0  0  0
    4.5981    3.0000    0.0000 C   0  0  0  0  0  0  0  0  0  0  0  0
    7.1962   -2.5000    0.0000 C   0  0  0  0  0  0  0  0  0  0  0  0
    2.8660   -0.0000    0.0000 C   0  0  0  0  0  0  0  0  0  0  0  0
    8.0622   -3.0000    0.0000 C   0  0  0  0  0  0  0  0  0  0  0  0
    2.0000    0.5000    0.0000 C   0  0  0  0  0  0  0  0  0  0  0  0
    5.1350   -0.3100    0.0000 H   0  0  0  0  0  0  0  0  0  0  0  0
    3.9875    2.1077    0.0000 H   0  0  0  0  0  0  0  0  0  0  0  0
    4.3860    1.4174    0.0000 H   0  0  0  0  0  0  0  0  0  0  0  0
    5.7196   -0.8923    0.0000 H   0  0  0  0  0  0  0  0  0  0  0  0
    6.1181   -1.5826    0.0000 H   0  0  0  0  0  0  0  0  0  0  0  0
    7.7331    1.8100    0.0000 H   0  0  0  0  0  0  0  0  0  0  0  0
    3.7320    1.1200    0.0000 H   0  0  0  0  0  0  0  0  0  0  0  0
    5.2181    3.0000    0.0000 H   0  0  0  0  0  0  0  0  0  0  0  0
    4.5981    3.6200    0.0000 H   0  0  0  0  0  0  0  0  0  0  0  0
    3.9781    3.0000    0.0000 H   0  0  0  0  0  0  0  0  0  0  0  0
    4.0611   -1.3100    0.0000 H   0  0  0  0  0  0  0  0  0  0  0  0
    6.5856   -2.3923    0.0000 H   0  0  0  0  0  0  0  0  0  0  0  0
    6.9841   -3.0826    0.0000 H   0  0  0  0  0  0  0  0  0  0  0  0
    2.8660   -0.6200    0.0000 H   0  0  0  0  0  0  0  0  0  0  0  0
    7.7522   -3.5369    0.0000 H   0  0  0  0  0  0  0  0  0  0  0  0
    8.5991   -3.3100    0.0000 H   0  0  0  0  0  0  0  0  0  0  0  0
    8.3722   -2.4631    0.0000 H   0  0  0  0  0  0  0  0  0  0  0  0
    2.3100    1.0369    0.0000 H   0  0  0  0  0  0  0  0  0  0  0  0
    1.4631    0.8100    0.0000 H   0  0  0  0  0  0  0  0  0  0  0  0
    1.6900   -0.0369    0.0000 H   0  0  0  0  0  0  0  0  0  0  0  0
  1 11  1  0  0  0  0
  1 16  1  0  0  0  0
  2  9  1  0  0  0  0
  2 30  1  0  0  0  0
  3 12  2  0  0  0  0
  4 13  2  0  0  0  0
  5  7  1  0  0  0  0
  5 11  1  0  0  0  0
  5 13  1  0  0  0  0
  6 12  1  0  0  0  0
  6 13  1  0  0  0  0
  6 25  1  0  0  0  0
  7  8  2  0  0  0  0
  7  9  1  0  0  0  0
  8 10  1  0  0  0  0
  8 12  1  0  0  0  0
  9 14  1  0  0  0  0
  9 20  1  0  0  0  0
 10 15  1  0  0  0  0
 10 21  1  0  0  0  0
 10 22  1  0  0  0  0
 11 23  1  0  0  0  0
 11 24  1  0  0  0  0
 14 17  2  3  0  0  0
 14 26  1  0  0  0  0
 15 27  1  0  0  0  0
 15 28  1  0  0  0  0
 15 29  1  0  0  0  0
 16 18  1  0  0  0  0
 16 31  1  0  0  0  0
 16 32  1  0  0  0  0
 17 19  1  0  0  0  0
 17 33  1  0  0  0  0
 18 34  1  0  0  0  0
 18 35  1  0  0  0  0
 18 36  1  0  0  0  0
 19 37  1  0  0  0  0
 19 38  1  0  0  0  0
 19 39  1  0  0  0  0
M  END
> <PUBCHEM_COMPOUND_CID>
513448
> <PUBCHEM_COMPOUND_CANONICALIZED>
1
> <PUBCHEM_CACTVS_COMPLEXITY>
415
> <PUBCHEM_CACTVS_HBOND_ACCEPTOR>
4
> <PUBCHEM_CACTVS_HBOND_DONOR>
2
> <PUBCHEM_CACTVS_ROTATABLE_BOND>
6
> <PUBCHEM_CACTVS_SUBSKEYS>
AAADceBzOAAAAAAAAAAAAAAAAAAAAAAAAAAgAAAAAAAAAAAAAAAAHgAQCAAADByhgAYDAAPABgCIAiVSUACAAAAgAAAICAEIAEiCFBAAgQAMEAAIByIYEUIAAAAAAAAAAAAAAAAAAAAAAAAAAAAAAAAAAA==
> <PUBCHEM_IUPAC_OPENEYE_NAME>
1-(ethoxymethyl)-5-ethyl-6-(1-hydroxybut-2-enyl)pyrimidine-2,4-dione
> <PUBCHEM_IUPAC_CAS_NAME>
1-(ethoxymethyl)-5-ethyl-6-(1-hydroxybut-2-enyl)pyrimidine-2,4-dione
> <PUBCHEM_IUPAC_NAME_MARKUP>
1-(ethoxymethyl)-5-ethyl-6-(1-hydroxybut-2-enyl)pyrimidine-2,4-dione
> <PUBCHEM_IUPAC_NAME>
1-(ethoxymethyl)-5-ethyl-6-(1-hydroxybut-2-enyl)pyrimidine-2,4-dione
> <PUBCHEM_IUPAC_SYSTEMATIC_NAME>
1-(ethoxymethyl)-5-ethyl-6-(1-oxidanylbut-2-enyl)pyrimidine-2,4-dione
> <PUBCHEM_IUPAC_TRADITIONAL_NAME>
1-(ethoxymethyl)-5-ethyl-6-(1-hydroxybut-2-enyl)pyrimidine-2,4-quinone
> <PUBCHEM_IUPAC_INCHI>
InChI=1S/C13H20N2O4/c1-4-7-10(16)11-9(5-2)12(17)14-13(18)15(11)8-19-6-3/h4,7,10,16H,5-6,8H2,1-3H3,(H,14,17,18)
> <PUBCHEM_IUPAC_INCHIKEY>
FNKHZXZOUCCWAF-UHFFFAOYSA-N
> <PUBCHEM_XLOGP3_AA>
0.5
> <PUBCHEM_EXACT_MASS>
268.14230712
> <PUBCHEM_MOLECULAR_FORMULA>
C13H20N2O4
> <PUBCHEM_MOLECULAR_WEIGHT>
268.31
> <PUBCHEM_OPENEYE_CAN_SMILES>
CCC1=C(N(C(=O)NC1=O)COCC)C(C=CC)O
> <PUBCHEM_OPENEYE_ISO_SMILES>
CCC1=C(N(C(=O)NC1=O)COCC)C(C=CC)O
> <PUBCHEM_CACTVS_TPSA>
78.9
> <PUBCHEM_MONOISOTOPIC_WEIGHT>
268.14230712
> <PUBCHEM_TOTAL_CHARGE>
0
> <PUBCHEM_HEAVY_ATOM_COUNT>
19
> <PUBCHEM_ATOM_DEF_STEREO_COUNT>
0
> <PUBCHEM_ATOM_UDEF_STEREO_COUNT>
1
> <PUBCHEM_BOND_DEF_STEREO_COUNT>
0
> <PUBCHEM_BOND_UDEF_STEREO_COUNT>
1
> <PUBCHEM_ISOTOPIC_ATOM_COUNT>
0
> <PUBCHEM_COMPONENT_COUNT>
1
> <PUBCHEM_CACTVS_TAUTO_COUNT>
-1
> <PUBCHEM_COORDINATE_TYPE>
1
5
255
> <PUBCHEM_BONDANNOTATIONS>
14  17  1
9  2  3
5  13  8
5  7  8
6  12  8
6  13  8
7  8  8
8  12  8
$$$$
