513420
  -OEChem-10302200282D
 91 93  0     1  0  0  0  0  0999 V2000
   14.1244    0.7500    0.0000 S   0  0  0  0  0  0  0  0  0  0  0  0
   11.5263    2.2500    0.0000 O   0  0  0  0  0  0  0  0  0  0  0  0
   14.6244   -0.1160    0.0000 O   0  0  0  0  0  0  0  0  0  0  0  0
   13.6244    1.6160    0.0000 O   0  0  0  0  0  0  0  0  0  0  0  0
    7.1962    1.7500    0.0000 O   0  0  0  0  0  0  0  0  0  0  0  0
    2.8660   -0.7500    0.0000 O   0  0  0  0  0  0  0  0  0  0  0  0
    2.8660   -2.7500    0.0000 O   0  0  0  0  0  0  0  0  0  0  0  0
   13.2583    0.2500    0.0000 N   0  0  3  0  0  0  0  0  0  0  0  0
    8.0622    0.2500    0.0000 N   0  0  0  0  0  0  0  0  0  0  0  0
    5.4641    0.7500    0.0000 N   0  0  3  0  0  0  0  0  0  0  0  0
   12.3923    0.7500    0.0000 C   0  0  1  0  0  0  0  0  0  0  0  0
   11.5263    0.2500    0.0000 C   0  0  0  0  0  0  0  0  0  0  0  0
   13.2583   -0.7500    0.0000 C   0  0  0  0  0  0  0  0  0  0  0  0
   10.6603    0.7500    0.0000 C   0  0  0  0  0  0  0  0  0  0  0  0
   12.3923   -1.2500    0.0000 C   0  0  0  0  0  0  0  0  0  0  0  0
   12.3923    1.7500    0.0000 C   0  0  0  0  0  0  0  0  0  0  0  0
    9.7942    0.2500    0.0000 C   0  0  0  0  0  0  0  0  0  0  0  0
   14.9904    1.2500    0.0000 C   0  0  0  0  0  0  0  0  0  0  0  0
   12.3923   -2.2500    0.0000 C   0  0  0  0  0  0  0  0  0  0  0  0
   11.5263   -0.7500    0.0000 C   0  0  0  0  0  0  0  0  0  0  0  0
    8.9282    0.7500    0.0000 C   0  0  0  0  0  0  0  0  0  0  0  0
   14.9904    2.2500    0.0000 C   0  0  0  0  0  0  0  0  0  0  0  0
   15.8564    0.7500    0.0000 C   0  0  0  0  0  0  0  0  0  0  0  0
   15.8564    2.7500    0.0000 C   0  0  0  0  0  0  0  0  0  0  0  0
   16.7224    1.2500    0.0000 C   0  0  0  0  0  0  0  0  0  0  0  0
   16.7224    2.2500    0.0000 C   0  0  0  0  0  0  0  0  0  0  0  0
    7.1962    0.7500    0.0000 C   0  0  0  0  0  0  0  0  0  0  0  0
    6.3301    0.2500    0.0000 C   0  0  0  0  0  0  0  0  0  0  0  0
   17.5885    2.7500    0.0000 C   0  0  0  0  0  0  0  0  0  0  0  0
    4.5981    0.2500    0.0000 C   0  0  0  0  0  0  0  0  0  0  0  0
    5.4641    1.7500    0.0000 C   0  0  0  0  0  0  0  0  0  0  0  0
    4.5981   -0.7500    0.0000 C   0  0  0  0  0  0  0  0  0  0  0  0
    3.7320   -1.2500    0.0000 C   0  0  0  0  0  0  0  0  0  0  0  0
    4.5981    2.2500    0.0000 C   0  0  0  0  0  0  0  0  0  0  0  0
    6.3301    2.2500    0.0000 C   0  0  0  0  0  0  0  0  0  0  0  0
    5.4641   -1.2500    0.0000 C   0  0  0  0  0  0  0  0  0  0  0  0
    3.7320   -2.2500    0.0000 C   0  0  0  0  0  0  0  0  0  0  0  0
    4.5981    3.2500    0.0000 C   0  0  0  0  0  0  0  0  0  0  0  0
    6.3301    3.2500    0.0000 C   0  0  0  0  0  0  0  0  0  0  0  0
    5.4641   -2.2500    0.0000 C   0  0  0  0  0  0  0  0  0  0  0  0
    4.5981   -2.7500    0.0000 C   0  0  0  0  0  0  0  0  0  0  0  0
    5.4641    3.7500    0.0000 C   0  0  0  0  0  0  0  0  0  0  0  0
    2.0000   -1.2500    0.0000 C   0  0  0  0  0  0  0  0  0  0  0  0
    2.8660   -3.7500    0.0000 C   0  0  0  0  0  0  0  0  0  0  0  0
   12.3923    0.1300    0.0000 H   0  0  0  0  0  0  0  0  0  0  0  0
   11.1278   -0.2249    0.0000 H   0  0  0  0  0  0  0  0  0  0  0  0
   11.9248   -0.2249    0.0000 H   0  0  0  0  0  0  0  0  0  0  0  0
   13.4704   -1.3326    0.0000 H   0  0  0  0  0  0  0  0  0  0  0  0
   13.8689   -0.6423    0.0000 H   0  0  0  0  0  0  0  0  0  0  0  0
   11.0588    1.2250    0.0000 H   0  0  0  0  0  0  0  0  0  0  0  0
   10.2617    1.2250    0.0000 H   0  0  0  0  0  0  0  0  0  0  0  0
   11.8554   -1.5600    0.0000 H   0  0  0  0  0  0  0  0  0  0  0  0
   13.0029    1.6423    0.0000 H   0  0  0  0  0  0  0  0  0  0  0  0
   12.6044    2.3326    0.0000 H   0  0  0  0  0  0  0  0  0  0  0  0
    9.3957   -0.2249    0.0000 H   0  0  0  0  0  0  0  0  0  0  0  0
   10.1928   -0.2249    0.0000 H   0  0  0  0  0  0  0  0  0  0  0  0
   11.7723   -2.2500    0.0000 H   0  0  0  0  0  0  0  0  0  0  0  0
   12.3923   -2.8700    0.0000 H   0  0  0  0  0  0  0  0  0  0  0  0
   13.0123   -2.2500    0.0000 H   0  0  0  0  0  0  0  0  0  0  0  0
   11.8363   -0.2131    0.0000 H   0  0  0  0  0  0  0  0  0  0  0  0
   10.9893   -0.4400    0.0000 H   0  0  0  0  0  0  0  0  0  0  0  0
   11.2163   -1.2869    0.0000 H   0  0  0  0  0  0  0  0  0  0  0  0
    9.3267    1.2250    0.0000 H   0  0  0  0  0  0  0  0  0  0  0  0
    8.5297    1.2250    0.0000 H   0  0  0  0  0  0  0  0  0  0  0  0
   11.5263    2.8700    0.0000 H   0  0  0  0  0  0  0  0  0  0  0  0
   14.4534    2.5600    0.0000 H   0  0  0  0  0  0  0  0  0  0  0  0
   15.8564    0.1300    0.0000 H   0  0  0  0  0  0  0  0  0  0  0  0
    8.0622   -0.3700    0.0000 H   0  0  0  0  0  0  0  0  0  0  0  0
   15.8564    3.3700    0.0000 H   0  0  0  0  0  0  0  0  0  0  0  0
   17.2594    0.9400    0.0000 H   0  0  0  0  0  0  0  0  0  0  0  0
    5.9316   -0.2249    0.0000 H   0  0  0  0  0  0  0  0  0  0  0  0
    6.7287   -0.2249    0.0000 H   0  0  0  0  0  0  0  0  0  0  0  0
   17.8985    2.2131    0.0000 H   0  0  0  0  0  0  0  0  0  0  0  0
   18.1254    3.0600    0.0000 H   0  0  0  0  0  0  0  0  0  0  0  0
   17.2785    3.2869    0.0000 H   0  0  0  0  0  0  0  0  0  0  0  0
    4.3860    0.8326    0.0000 H   0  0  0  0  0  0  0  0  0  0  0  0
    3.9875    0.1423    0.0000 H   0  0  0  0  0  0  0  0  0  0  0  0
    4.0611    1.9400    0.0000 H   0  0  0  0  0  0  0  0  0  0  0  0
    6.8671    1.9400    0.0000 H   0  0  0  0  0  0  0  0  0  0  0  0
    6.0010   -0.9400    0.0000 H   0  0  0  0  0  0  0  0  0  0  0  0
    4.0611    3.5600    0.0000 H   0  0  0  0  0  0  0  0  0  0  0  0
    6.8671    3.5600    0.0000 H   0  0  0  0  0  0  0  0  0  0  0  0
    6.0010   -2.5600    0.0000 H   0  0  0  0  0  0  0  0  0  0  0  0
    4.5981   -3.3700    0.0000 H   0  0  0  0  0  0  0  0  0  0  0  0
    5.4641    4.3700    0.0000 H   0  0  0  0  0  0  0  0  0  0  0  0
    1.6900   -0.7131    0.0000 H   0  0  0  0  0  0  0  0  0  0  0  0
    1.4631   -1.5600    0.0000 H   0  0  0  0  0  0  0  0  0  0  0  0
    2.3100   -1.7869    0.0000 H   0  0  0  0  0  0  0  0  0  0  0  0
    2.2460   -3.7500    0.0000 H   0  0  0  0  0  0  0  0  0  0  0  0
    2.8660   -4.3700    0.0000 H   0  0  0  0  0  0  0  0  0  0  0  0
    3.4860   -3.7500    0.0000 H   0  0  0  0  0  0  0  0  0  0  0  0
  1  3  2  0  0  0  0
  1  4  2  0  0  0  0
  1  8  1  0  0  0  0
  1 18  1  0  0  0  0
  2 16  1  0  0  0  0
  2 65  1  0  0  0  0
  5 27  2  0  0  0  0
  6 33  1  0  0  0  0
  6 43  1  0  0  0  0
  7 37  1  0  0  0  0
  7 44  1  0  0  0  0
 11  8  1  1  0  0  0
  8 13  1  0  0  0  0
  9 21  1  0  0  0  0
  9 27  1  0  0  0  0
  9 68  1  0  0  0  0
 10 28  1  0  0  0  0
 10 30  1  0  0  0  0
 10 31  1  0  0  0  0
 11 12  1  0  0  0  0
 11 16  1  0  0  0  0
 11 45  1  0  0  0  0
 12 14  1  0  0  0  0
 12 46  1  0  0  0  0
 12 47  1  0  0  0  0
 13 15  1  0  0  0  0
 13 48  1  0  0  0  0
 13 49  1  0  0  0  0
 14 17  1  0  0  0  0
 14 50  1  0  0  0  0
 14 51  1  0  0  0  0
 15 19  1  0  0  0  0
 15 20  1  0  0  0  0
 15 52  1  0  0  0  0
 16 53  1  0  0  0  0
 16 54  1  0  0  0  0
 17 21  1  0  0  0  0
 17 55  1  0  0  0  0
 17 56  1  0  0  0  0
 18 22  2  0  0  0  0
 18 23  1  0  0  0  0
 19 57  1  0  0  0  0
 19 58  1  0  0  0  0
 19 59  1  0  0  0  0
 20 60  1  0  0  0  0
 20 61  1  0  0  0  0
 20 62  1  0  0  0  0
 21 63  1  0  0  0  0
 21 64  1  0  0  0  0
 22 24  1  0  0  0  0
 22 66  1  0  0  0  0
 23 25  2  0  0  0  0
 23 67  1  0  0  0  0
 24 26  2  0  0  0  0
 24 69  1  0  0  0  0
 25 26  1  0  0  0  0
 25 70  1  0  0  0  0
 26 29  1  0  0  0  0
 27 28  1  0  0  0  0
 28 71  1  0  0  0  0
 28 72  1  0  0  0  0
 29 73  1  0  0  0  0
 29 74  1  0  0  0  0
 29 75  1  0  0  0  0
 30 32  1  0  0  0  0
 30 76  1  0  0  0  0
 30 77  1  0  0  0  0
 31 34  2  0  0  0  0
 31 35  1  0  0  0  0
 32 33  2  0  0  0  0
 32 36  1  0  0  0  0
 33 37  1  0  0  0  0
 34 38  1  0  0  0  0
 34 78  1  0  0  0  0
 35 39  2  0  0  0  0
 35 79  1  0  0  0  0
 36 40  2  0  0  0  0
 36 80  1  0  0  0  0
 37 41  2  0  0  0  0
 38 42  2  0  0  0  0
 38 81  1  0  0  0  0
 39 42  1  0  0  0  0
 39 82  1  0  0  0  0
 40 41  1  0  0  0  0
 40 83  1  0  0  0  0
 41 84  1  0  0  0  0
 42 85  1  0  0  0  0
 43 86  1  0  0  0  0
 43 87  1  0  0  0  0
 43 88  1  0  0  0  0
 44 89  1  0  0  0  0
 44 90  1  0  0  0  0
 44 91  1  0  0  0  0
M  END
> <PUBCHEM_COMPOUND_CID>
513420
> <PUBCHEM_COMPOUND_CANONICALIZED>
1
> <PUBCHEM_CACTVS_COMPLEXITY>
915
> <PUBCHEM_CACTVS_HBOND_ACCEPTOR>
8
> <PUBCHEM_CACTVS_HBOND_DONOR>
2
> <PUBCHEM_CACTVS_ROTATABLE_BOND>
18
> <PUBCHEM_CACTVS_SUBSKEYS>
AAADcfB/OABAAAAAAAAAAAAAAAAAAAAAAAAwYMAAAAAAAAABUAAAHgQQSAAADSzh2AYyx4PABgKIAiVSUHDCCBAhIgAIiJiO7IgPdiLEsbuUcCpm1hHa6AewwDAOEAABAAAIQAAgAAIAABCAAAAAAAAAAA==
> <PUBCHEM_IUPAC_OPENEYE_NAME>
2-[N-[(2,3-dimethoxyphenyl)methyl]anilino]-N-[(5S)-6-hydroxy-5-[isobutyl(p-tolylsulfonyl)amino]hexyl]acetamide
> <PUBCHEM_IUPAC_CAS_NAME>
2-[N-[(2,3-dimethoxyphenyl)methyl]anilino]-N-[(5S)-6-hydroxy-5-[(4-methylphenyl)sulfonyl-(2-methylpropyl)amino]hexyl]acetamide
> <PUBCHEM_IUPAC_NAME_MARKUP>
2-[<I>N</I>-[(2,3-dimethoxyphenyl)methyl]anilino]-<I>N</I>-[(5<I>S</I>)-6-hydroxy-5-[(4-methylphenyl)sulfonyl-(2-methylpropyl)amino]hexyl]acetamide
> <PUBCHEM_IUPAC_NAME>
2-[N-[(2,3-dimethoxyphenyl)methyl]anilino]-N-[(5S)-6-hydroxy-5-[(4-methylphenyl)sulfonyl-(2-methylpropyl)amino]hexyl]acetamide
> <PUBCHEM_IUPAC_SYSTEMATIC_NAME>
2-[(2,3-dimethoxyphenyl)methyl-phenyl-amino]-N-[(5S)-5-[(4-methylphenyl)sulfonyl-(2-methylpropyl)amino]-6-oxidanyl-hexyl]ethanamide
> <PUBCHEM_IUPAC_TRADITIONAL_NAME>
N-[(5S)-6-hydroxy-5-[isobutyl(tosyl)amino]hexyl]-2-(N-o-veratrylanilino)acetamide
> <PUBCHEM_IUPAC_INCHI>
InChI=1S/C34H47N3O6S/c1-26(2)22-37(44(40,41)31-19-17-27(3)18-20-31)30(25-38)15-9-10-21-35-33(39)24-36(29-13-7-6-8-14-29)23-28-12-11-16-32(42-4)34(28)43-5/h6-8,11-14,16-20,26,30,38H,9-10,15,21-25H2,1-5H3,(H,35,39)/t30-/m0/s1
> <PUBCHEM_IUPAC_INCHIKEY>
QYFVKQGRXSWYHA-PMERELPUSA-N
> <PUBCHEM_XLOGP3_AA>
5.8
> <PUBCHEM_EXACT_MASS>
625.31855740
> <PUBCHEM_MOLECULAR_FORMULA>
C34H47N3O6S
> <PUBCHEM_MOLECULAR_WEIGHT>
625.8
> <PUBCHEM_OPENEYE_CAN_SMILES>
CC1=CC=C(C=C1)S(=O)(=O)N(CC(C)C)C(CCCCNC(=O)CN(CC2=C(C(=CC=C2)OC)OC)C3=CC=CC=C3)CO
> <PUBCHEM_OPENEYE_ISO_SMILES>
CC1=CC=C(C=C1)S(=O)(=O)N(CC(C)C)[C@@H](CCCCNC(=O)CN(CC2=C(C(=CC=C2)OC)OC)C3=CC=CC=C3)CO
> <PUBCHEM_CACTVS_TPSA>
117
> <PUBCHEM_MONOISOTOPIC_WEIGHT>
625.31855740
> <PUBCHEM_TOTAL_CHARGE>
0
> <PUBCHEM_HEAVY_ATOM_COUNT>
44
> <PUBCHEM_ATOM_DEF_STEREO_COUNT>
1
> <PUBCHEM_ATOM_UDEF_STEREO_COUNT>
0
> <PUBCHEM_BOND_DEF_STEREO_COUNT>
0
> <PUBCHEM_BOND_UDEF_STEREO_COUNT>
0
> <PUBCHEM_ISOTOPIC_ATOM_COUNT>
0
> <PUBCHEM_COMPONENT_COUNT>
1
> <PUBCHEM_CACTVS_TAUTO_COUNT>
-1
> <PUBCHEM_COORDINATE_TYPE>
1
5
255
> <PUBCHEM_BONDANNOTATIONS>
18  22  8
18  23  8
22  24  8
23  25  8
24  26  8
25  26  8
31  34  8
31  35  8
32  33  8
32  36  8
33  37  8
34  38  8
35  39  8
36  40  8
37  41  8
38  42  8
39  42  8
40  41  8
11  8  5
$$$$
