513474
  -OEChem-10302200282D
 33 34  0     1  0  0  0  0  0999 V2000
    2.5896   -1.0664    0.0000 O   0  0  0  0  0  0  0  0  0  0  0  0
    5.7739   -3.3799    0.0000 O   0  0  0  0  0  0  0  0  0  0  0  0
    6.8249    0.8815    0.0000 O   0  0  0  0  0  0  0  0  0  0  0  0
    5.0929    3.8815    0.0000 O   0  0  0  0  0  0  0  0  0  0  0  0
    5.0929    0.8815    0.0000 N   0  0  0  0  0  0  0  0  0  0  0  0
    5.9589    2.3815    0.0000 N   0  0  0  0  0  0  0  0  0  0  0  0
    4.2839   -0.7063    0.0000 C   0  0  1  0  0  0  0  0  0  0  0  0
    5.0929   -0.1185    0.0000 C   0  0  1  0  0  0  0  0  0  0  0  0
    5.5929   -1.6573    0.0000 C   0  0  2  0  0  0  0  0  0  0  0  0
    4.5929   -1.6573    0.0000 C   0  0  0  0  0  0  0  0  0  0  0  0
    5.9019   -0.7063    0.0000 C   0  0  0  0  0  0  0  0  0  0  0  0
    3.3328   -0.3973    0.0000 C   0  0  0  0  0  0  0  0  0  0  0  0
    6.1807   -2.4664    0.0000 C   0  0  0  0  0  0  0  0  0  0  0  0
    5.9589    1.3815    0.0000 C   0  0  0  0  0  0  0  0  0  0  0  0
    4.2268    1.3815    0.0000 C   0  0  0  0  0  0  0  0  0  0  0  0
    4.2268    2.3815    0.0000 C   0  0  0  0  0  0  0  0  0  0  0  0
    5.0929    2.8815    0.0000 C   0  0  0  0  0  0  0  0  0  0  0  0
    3.8454   -1.1447    0.0000 H   0  0  0  0  0  0  0  0  0  0  0  0
    5.6453    0.1630    0.0000 H   0  0  0  0  0  0  0  0  0  0  0  0
    6.2052   -1.5603    0.0000 H   0  0  0  0  0  0  0  0  0  0  0  0
    3.9864   -1.7862    0.0000 H   0  0  0  0  0  0  0  0  0  0  0  0
    4.6577   -2.2740    0.0000 H   0  0  0  0  0  0  0  0  0  0  0  0
    6.4683   -0.9585    0.0000 H   0  0  0  0  0  0  0  0  0  0  0  0
    6.2119   -0.1694    0.0000 H   0  0  0  0  0  0  0  0  0  0  0  0
    3.6239    0.1502    0.0000 H   0  0  0  0  0  0  0  0  0  0  0  0
    2.8442   -0.0156    0.0000 H   0  0  0  0  0  0  0  0  0  0  0  0
    6.6947   -2.8131    0.0000 H   0  0  0  0  0  0  0  0  0  0  0  0
    6.6114   -2.0204    0.0000 H   0  0  0  0  0  0  0  0  0  0  0  0
    3.6899    1.0715    0.0000 H   0  0  0  0  0  0  0  0  0  0  0  0
    2.0000   -0.8748    0.0000 H   0  0  0  0  0  0  0  0  0  0  0  0
    6.1384   -3.8815    0.0000 H   0  0  0  0  0  0  0  0  0  0  0  0
    6.4958    2.6915    0.0000 H   0  0  0  0  0  0  0  0  0  0  0  0
    3.6899    2.6915    0.0000 H   0  0  0  0  0  0  0  0  0  0  0  0
  1 12  1  0  0  0  0
  1 30  1  0  0  0  0
  2 13  1  0  0  0  0
  2 31  1  0  0  0  0
  3 14  2  0  0  0  0
  4 17  2  0  0  0  0
  8  5  1  6  0  0  0
  5 14  1  0  0  0  0
  5 15  1  0  0  0  0
  6 14  1  0  0  0  0
  6 17  1  0  0  0  0
  6 32  1  0  0  0  0
  7  8  1  0  0  0  0
  7 10  1  0  0  0  0
  7 12  1  1  0  0  0
  7 18  1  0  0  0  0
  8 11  1  0  0  0  0
  8 19  1  0  0  0  0
  9 10  1  0  0  0  0
  9 11  1  0  0  0  0
  9 13  1  6  0  0  0
  9 20  1  0  0  0  0
 10 21  1  0  0  0  0
 10 22  1  0  0  0  0
 11 23  1  0  0  0  0
 11 24  1  0  0  0  0
 12 25  1  0  0  0  0
 12 26  1  0  0  0  0
 13 27  1  0  0  0  0
 13 28  1  0  0  0  0
 15 16  2  0  0  0  0
 15 29  1  0  0  0  0
 16 17  1  0  0  0  0
 16 33  1  0  0  0  0
M  END
> <PUBCHEM_COMPOUND_CID>
513474
> <PUBCHEM_COMPOUND_CANONICALIZED>
1
> <PUBCHEM_CACTVS_COMPLEXITY>
355
> <PUBCHEM_CACTVS_HBOND_ACCEPTOR>
4
> <PUBCHEM_CACTVS_HBOND_DONOR>
3
> <PUBCHEM_CACTVS_ROTATABLE_BOND>
3
> <PUBCHEM_CACTVS_SUBSKEYS>
AAADceBzOAAAAAAAAAAAAAAAAAAAAYAAAAAgAAAAAAAAAAAAAAAAHgAQCAAADSjhgAYBAAPAAgCIACFWUACAAAAAAgAIAAAIAECAEAIAgAAEQAAOFyIAAMGwcBMOAAAAAAAAAAAAAAAAAAAAASAAAQAAAA==
> <PUBCHEM_IUPAC_OPENEYE_NAME>
1-[(1R,2R,4R)-2,4-bis(hydroxymethyl)cyclopentyl]pyrimidine-2,4-dione
> <PUBCHEM_IUPAC_CAS_NAME>
1-[(1R,2R,4R)-2,4-bis(hydroxymethyl)cyclopentyl]pyrimidine-2,4-dione
> <PUBCHEM_IUPAC_NAME_MARKUP>
1-[(1<I>R</I>,2<I>R</I>,4<I>R</I>)-2,4-bis(hydroxymethyl)cyclopentyl]pyrimidine-2,4-dione
> <PUBCHEM_IUPAC_NAME>
1-[(1R,2R,4R)-2,4-bis(hydroxymethyl)cyclopentyl]pyrimidine-2,4-dione
> <PUBCHEM_IUPAC_SYSTEMATIC_NAME>
1-[(1R,2R,4R)-2,4-bis(hydroxymethyl)cyclopentyl]pyrimidine-2,4-dione
> <PUBCHEM_IUPAC_TRADITIONAL_NAME>
1-[(1R,2R,4R)-2,4-dimethylolcyclopentyl]pyrimidine-2,4-quinone
> <PUBCHEM_IUPAC_INCHI>
InChI=1S/C11H16N2O4/c14-5-7-3-8(6-15)9(4-7)13-2-1-10(16)12-11(13)17/h1-2,7-9,14-15H,3-6H2,(H,12,16,17)/t7-,8+,9-/m1/s1
> <PUBCHEM_IUPAC_INCHIKEY>
CBWZEGUCVCCNIQ-HRDYMLBCSA-N
> <PUBCHEM_XLOGP3_AA>
-1.1
> <PUBCHEM_EXACT_MASS>
240.11100700
> <PUBCHEM_MOLECULAR_FORMULA>
C11H16N2O4
> <PUBCHEM_MOLECULAR_WEIGHT>
240.26
> <PUBCHEM_OPENEYE_CAN_SMILES>
C1C(CC(C1CO)N2C=CC(=O)NC2=O)CO
> <PUBCHEM_OPENEYE_ISO_SMILES>
C1[C@H](C[C@H]([C@@H]1CO)N2C=CC(=O)NC2=O)CO
> <PUBCHEM_CACTVS_TPSA>
89.9
> <PUBCHEM_MONOISOTOPIC_WEIGHT>
240.11100700
> <PUBCHEM_TOTAL_CHARGE>
0
> <PUBCHEM_HEAVY_ATOM_COUNT>
17
> <PUBCHEM_ATOM_DEF_STEREO_COUNT>
3
> <PUBCHEM_ATOM_UDEF_STEREO_COUNT>
0
> <PUBCHEM_BOND_DEF_STEREO_COUNT>
0
> <PUBCHEM_BOND_UDEF_STEREO_COUNT>
0
> <PUBCHEM_ISOTOPIC_ATOM_COUNT>
0
> <PUBCHEM_COMPONENT_COUNT>
1
> <PUBCHEM_CACTVS_TAUTO_COUNT>
-1
> <PUBCHEM_COORDINATE_TYPE>
1
5
255
> <PUBCHEM_BONDANNOTATIONS>
15  16  8
16  17  8
5  14  8
5  15  8
8  5  6
6  14  8
6  17  8
7  12  5
9  13  6
$$$$
