513491
  -OEChem-10302200282D
 48 51  0     1  0  0  0  0  0999 V2000
    7.3031   -1.1291    0.0000 F   0  0  0  0  0  0  0  0  0  0  0  0
    9.8815    1.1844    0.0000 F   0  0  0  0  0  0  0  0  0  0  0  0
    6.1737   -0.6190    0.0000 O   0  0  0  0  0  0  0  0  0  0  0  0
    6.7619   -2.4680    0.0000 O   0  0  0  0  0  0  0  0  0  0  0  0
    4.6783   -0.7972    0.0000 N   0  0  0  0  0  0  0  0  0  0  0  0
    4.8107    1.6487    0.0000 N   0  0  0  0  0  0  0  0  0  0  0  0
    4.6783   -2.4067    0.0000 N   0  0  0  0  0  0  0  0  0  0  0  0
    4.5033    2.6002    0.0000 N   0  0  0  0  0  0  0  0  0  0  0  0
    3.1927    1.6515    0.0000 N   0  0  0  0  0  0  0  0  0  0  0  0
    5.9674    0.3595    0.0000 C   0  0  3  0  0  0  0  0  0  0  0  0
    4.9889    0.1533    0.0000 C   0  0  0  0  0  0  0  0  0  0  0  0
    5.7612    1.3380    0.0000 C   0  0  0  0  0  0  0  0  0  0  0  0
    6.9459    0.5657    0.0000 C   0  0  0  0  0  0  0  0  0  0  0  0
    3.7320   -1.1020    0.0000 C   0  0  0  0  0  0  0  0  0  0  0  0
    5.2619   -1.6020    0.0000 C   0  0  0  0  0  0  0  0  0  0  0  0
    3.7320   -2.1020    0.0000 C   0  0  0  0  0  0  0  0  0  0  0  0
    7.6138   -0.1786    0.0000 C   0  0  0  0  0  0  0  0  0  0  0  0
    7.2566    1.5162    0.0000 C   0  0  0  0  0  0  0  0  0  0  0  0
    6.2619   -1.6020    0.0000 C   0  0  0  0  0  0  0  0  0  0  0  0
    2.8660   -0.6020    0.0000 C   0  0  0  0  0  0  0  0  0  0  0  0
    2.8660   -2.6020    0.0000 C   0  0  0  0  0  0  0  0  0  0  0  0
    8.5923    0.0276    0.0000 C   0  0  0  0  0  0  0  0  0  0  0  0
    8.2351    1.7224    0.0000 C   0  0  0  0  0  0  0  0  0  0  0  0
    4.0007    1.0623    0.0000 C   0  0  0  0  0  0  0  0  0  0  0  0
    2.0000   -1.1020    0.0000 C   0  0  0  0  0  0  0  0  0  0  0  0
    2.0000   -2.1020    0.0000 C   0  0  0  0  0  0  0  0  0  0  0  0
    8.9030    0.9781    0.0000 C   0  0  0  0  0  0  0  0  0  0  0  0
    3.5033    2.6020    0.0000 C   0  0  0  0  0  0  0  0  0  0  0  0
    7.7619   -2.4680    0.0000 C   0  0  0  0  0  0  0  0  0  0  0  0
    4.9684    0.7729    0.0000 H   0  0  0  0  0  0  0  0  0  0  0  0
    4.3751    0.2406    0.0000 H   0  0  0  0  0  0  0  0  0  0  0  0
    6.3809    1.3586    0.0000 H   0  0  0  0  0  0  0  0  0  0  0  0
    5.8486    1.9518    0.0000 H   0  0  0  0  0  0  0  0  0  0  0  0
    5.7122   -1.0331    0.0000 H   0  0  0  0  0  0  0  0  0  0  0  0
    6.8425    1.9777    0.0000 H   0  0  0  0  0  0  0  0  0  0  0  0
    6.8445   -1.3899    0.0000 H   0  0  0  0  0  0  0  0  0  0  0  0
    6.1542   -0.9914    0.0000 H   0  0  0  0  0  0  0  0  0  0  0  0
    2.8660    0.0180    0.0000 H   0  0  0  0  0  0  0  0  0  0  0  0
    2.8660   -3.2220    0.0000 H   0  0  0  0  0  0  0  0  0  0  0  0
    9.0064   -0.4338    0.0000 H   0  0  0  0  0  0  0  0  0  0  0  0
    8.4277    2.3118    0.0000 H   0  0  0  0  0  0  0  0  0  0  0  0
    3.9996    0.4423    0.0000 H   0  0  0  0  0  0  0  0  0  0  0  0
    1.4631   -0.7920    0.0000 H   0  0  0  0  0  0  0  0  0  0  0  0
    1.4631   -2.4120    0.0000 H   0  0  0  0  0  0  0  0  0  0  0  0
    3.1398    3.1042    0.0000 H   0  0  0  0  0  0  0  0  0  0  0  0
    7.7619   -3.0880    0.0000 H   0  0  0  0  0  0  0  0  0  0  0  0
    8.3819   -2.4680    0.0000 H   0  0  0  0  0  0  0  0  0  0  0  0
    7.7619   -1.8480    0.0000 H   0  0  0  0  0  0  0  0  0  0  0  0
  1 17  1  0  0  0  0
  2 27  1  0  0  0  0
  3 10  1  0  0  0  0
  3 34  1  0  0  0  0
  4 19  1  0  0  0  0
  4 29  1  0  0  0  0
  5 11  1  0  0  0  0
  5 14  1  0  0  0  0
  5 15  1  0  0  0  0
  6  8  1  0  0  0  0
  6 12  1  0  0  0  0
  6 24  1  0  0  0  0
  7 15  2  0  0  0  0
  7 16  1  0  0  0  0
  8 28  2  0  0  0  0
  9 24  2  0  0  0  0
  9 28  1  0  0  0  0
 10 11  1  0  0  0  0
 10 12  1  0  0  0  0
 10 13  1  0  0  0  0
 11 30  1  0  0  0  0
 11 31  1  0  0  0  0
 12 32  1  0  0  0  0
 12 33  1  0  0  0  0
 13 17  2  0  0  0  0
 13 18  1  0  0  0  0
 14 16  1  0  0  0  0
 14 20  2  0  0  0  0
 15 19  1  0  0  0  0
 16 21  2  0  0  0  0
 17 22  1  0  0  0  0
 18 23  2  0  0  0  0
 18 35  1  0  0  0  0
 19 36  1  0  0  0  0
 19 37  1  0  0  0  0
 20 25  1  0  0  0  0
 20 38  1  0  0  0  0
 21 26  1  0  0  0  0
 21 39  1  0  0  0  0
 22 27  2  0  0  0  0
 22 40  1  0  0  0  0
 23 27  1  0  0  0  0
 23 41  1  0  0  0  0
 24 42  1  0  0  0  0
 25 26  2  0  0  0  0
 25 43  1  0  0  0  0
 26 44  1  0  0  0  0
 28 45  1  0  0  0  0
 29 46  1  0  0  0  0
 29 47  1  0  0  0  0
 29 48  1  0  0  0  0
M  END
> <PUBCHEM_COMPOUND_CID>
513491
> <PUBCHEM_COMPOUND_CANONICALIZED>
1
> <PUBCHEM_CACTVS_COMPLEXITY>
547
> <PUBCHEM_CACTVS_HBOND_ACCEPTOR>
7
> <PUBCHEM_CACTVS_HBOND_DONOR>
1
> <PUBCHEM_CACTVS_ROTATABLE_BOND>
7
> <PUBCHEM_CACTVS_SUBSKEYS>
AAADceB7sYAAAAAAAAAAAAAAAAAAAWLAAAAwYAAAAAAAAFgB/AAAHwAICAAADEzhnw430LcMFgCiAyZjZASSgC8xkqAd2CA4fJiKbqLA2ZGVcAhswAPY2CeQwOAOgAAAAAAAACAAAAAAAAAAQAAAAAAAAA==
> <PUBCHEM_IUPAC_OPENEYE_NAME>
2-(2,4-difluorophenyl)-1-[2-(methoxymethyl)benzimidazol-1-yl]-3-(1,2,4-triazol-1-yl)propan-2-ol
> <PUBCHEM_IUPAC_CAS_NAME>
2-(2,4-difluorophenyl)-1-[2-(methoxymethyl)-1-benzimidazolyl]-3-(1,2,4-triazol-1-yl)-2-propanol
> <PUBCHEM_IUPAC_NAME_MARKUP>
2-(2,4-difluorophenyl)-1-[2-(methoxymethyl)benzimidazol-1-yl]-3-(1,2,4-triazol-1-yl)propan-2-ol
> <PUBCHEM_IUPAC_NAME>
2-(2,4-difluorophenyl)-1-[2-(methoxymethyl)benzimidazol-1-yl]-3-(1,2,4-triazol-1-yl)propan-2-ol
> <PUBCHEM_IUPAC_SYSTEMATIC_NAME>
2-[2,4-bis(fluoranyl)phenyl]-1-[2-(methoxymethyl)benzimidazol-1-yl]-3-(1,2,4-triazol-1-yl)propan-2-ol
> <PUBCHEM_IUPAC_TRADITIONAL_NAME>
2-(2,4-difluorophenyl)-1-[2-(methoxymethyl)benzimidazol-1-yl]-3-(1,2,4-triazol-1-yl)propan-2-ol
> <PUBCHEM_IUPAC_INCHI>
InChI=1S/C20H19F2N5O2/c1-29-9-19-25-17-4-2-3-5-18(17)27(19)11-20(28,10-26-13-23-12-24-26)15-7-6-14(21)8-16(15)22/h2-8,12-13,28H,9-11H2,1H3
> <PUBCHEM_IUPAC_INCHIKEY>
NZSXZZLGXCCEKL-UHFFFAOYSA-N
> <PUBCHEM_XLOGP3_AA>
1.6
> <PUBCHEM_EXACT_MASS>
399.15068119
> <PUBCHEM_MOLECULAR_FORMULA>
C20H19F2N5O2
> <PUBCHEM_MOLECULAR_WEIGHT>
399.4
> <PUBCHEM_OPENEYE_CAN_SMILES>
COCC1=NC2=CC=CC=C2N1CC(CN3C=NC=N3)(C4=C(C=C(C=C4)F)F)O
> <PUBCHEM_OPENEYE_ISO_SMILES>
COCC1=NC2=CC=CC=C2N1CC(CN3C=NC=N3)(C4=C(C=C(C=C4)F)F)O
> <PUBCHEM_CACTVS_TPSA>
78
> <PUBCHEM_MONOISOTOPIC_WEIGHT>
399.15068119
> <PUBCHEM_TOTAL_CHARGE>
0
> <PUBCHEM_HEAVY_ATOM_COUNT>
29
> <PUBCHEM_ATOM_DEF_STEREO_COUNT>
0
> <PUBCHEM_ATOM_UDEF_STEREO_COUNT>
1
> <PUBCHEM_BOND_DEF_STEREO_COUNT>
0
> <PUBCHEM_BOND_UDEF_STEREO_COUNT>
0
> <PUBCHEM_ISOTOPIC_ATOM_COUNT>
0
> <PUBCHEM_COMPONENT_COUNT>
1
> <PUBCHEM_CACTVS_TAUTO_COUNT>
-1
> <PUBCHEM_COORDINATE_TYPE>
1
5
255
> <PUBCHEM_BONDANNOTATIONS>
13  17  8
13  18  8
14  16  8
14  20  8
16  21  8
17  22  8
18  23  8
20  25  8
21  26  8
22  27  8
23  27  8
25  26  8
10  3  3
5  14  8
5  15  8
6  24  8
6  8  8
7  15  8
7  16  8
8  28  8
9  24  8
9  28  8
$$$$
