513447
  -OEChem-10302200282D
100100  0     1  0  0  0  0  0999 V2000
   11.5263   -2.4050    0.0000 O   0  0  0  0  0  0  0  0  0  0  0  0
    4.5981    1.5950    0.0000 O   0  0  0  0  0  0  0  0  0  0  0  0
    8.0622    0.5950    0.0000 O   0  0  0  0  0  0  0  0  0  0  0  0
    8.9282    0.0950    0.0000 O   0  0  0  0  0  0  0  0  0  0  0  0
   10.6603   -2.9050    0.0000 O   0  0  0  0  0  0  0  0  0  0  0  0
    3.7320    5.0950    0.0000 O   0  0  0  0  0  0  0  0  0  0  0  0
   14.1244    0.0950    0.0000 O   0  0  0  0  0  0  0  0  0  0  0  0
   16.7224   -1.4050    0.0000 O   0  0  0  0  0  0  0  0  0  0  0  0
    5.4641    5.0950    0.0000 O   0  0  0  0  0  0  0  0  0  0  0  0
    8.0622    4.5950    0.0000 O   0  0  0  0  0  0  0  0  0  0  0  0
    8.9282    3.0950    0.0000 O   0  0  0  0  0  0  0  0  0  0  0  0
    6.3301   -5.4050    0.0000 O   0  0  0  0  0  0  0  0  0  0  0  0
    6.3301    0.5950    0.0000 N   0  0  0  0  0  0  0  0  0  0  0  0
    5.4641    3.0950    0.0000 N   0  0  0  0  0  0  0  0  0  0  0  0
   13.2583   -1.4050    0.0000 N   0  0  0  0  0  0  0  0  0  0  0  0
   10.6603   -0.9050    0.0000 N   0  0  0  0  0  0  0  0  0  0  0  0
    8.0622   -1.4050    0.0000 N   0  0  0  0  0  0  0  0  0  0  0  0
   14.9904   -2.4050    0.0000 N   0  0  0  0  0  0  0  0  0  0  0  0
   12.3923   -0.9050    0.0000 C   0  0  1  0  0  0  0  0  0  0  0  0
   12.3923    0.0950    0.0000 C   0  0  0  0  0  0  0  0  0  0  0  0
    6.3301    1.5950    0.0000 C   0  0  1  0  0  0  0  0  0  0  0  0
    3.7320    3.0950    0.0000 C   0  0  0  0  0  0  0  0  0  0  0  0
    4.5981    3.5950    0.0000 C   0  0  1  0  0  0  0  0  0  0  0  0
    7.1962   -0.9050    0.0000 C   0  0  1  0  0  0  0  0  0  0  0  0
    2.8660    3.5950    0.0000 C   0  0  0  0  0  0  0  0  0  0  0  0
    9.7942   -1.4050    0.0000 C   0  0  2  0  0  0  0  0  0  0  0  0
    7.1962    2.0950    0.0000 C   0  0  0  0  0  0  0  0  0  0  0  0
   11.5263   -1.4050    0.0000 C   0  0  0  0  0  0  0  0  0  0  0  0
    6.3301   -1.4050    0.0000 C   0  0  0  0  0  0  0  0  0  0  0  0
    5.4641    2.0950    0.0000 C   0  0  0  0  0  0  0  0  0  0  0  0
    7.1962    0.0950    0.0000 C   0  0  0  0  0  0  0  0  0  0  0  0
   13.2583    0.5950    0.0000 C   0  0  0  0  0  0  0  0  0  0  0  0
   11.5263    0.5950    0.0000 C   0  0  0  0  0  0  0  0  0  0  0  0
    8.9282   -0.9050    0.0000 C   0  0  0  0  0  0  0  0  0  0  0  0
    2.0000    3.0950    0.0000 C   0  0  0  0  0  0  0  0  0  0  0  0
    2.8660    4.5950    0.0000 C   0  0  0  0  0  0  0  0  0  0  0  0
    7.1962    3.0950    0.0000 C   0  0  0  0  0  0  0  0  0  0  0  0
   14.9904   -1.4050    0.0000 C   0  0  2  0  0  0  0  0  0  0  0  0
   14.1244   -0.9050    0.0000 C   0  0  0  0  0  0  0  0  0  0  0  0
    9.7942   -2.4050    0.0000 C   0  0  0  0  0  0  0  0  0  0  0  0
    6.3301   -2.4050    0.0000 C   0  0  0  0  0  0  0  0  0  0  0  0
    4.5981    4.5950    0.0000 C   0  0  0  0  0  0  0  0  0  0  0  0
   15.8564   -0.9050    0.0000 C   0  0  1  0  0  0  0  0  0  0  0  0
    7.1962   -2.9050    0.0000 C   0  0  0  0  0  0  0  0  0  0  0  0
    5.4641   -2.9050    0.0000 C   0  0  0  0  0  0  0  0  0  0  0  0
    8.0622    3.5950    0.0000 C   0  0  0  0  0  0  0  0  0  0  0  0
   15.8564    0.0950    0.0000 C   0  0  0  0  0  0  0  0  0  0  0  0
    7.1962   -3.9050    0.0000 C   0  0  0  0  0  0  0  0  0  0  0  0
    5.4641   -3.9050    0.0000 C   0  0  0  0  0  0  0  0  0  0  0  0
    6.3301   -4.4050    0.0000 C   0  0  0  0  0  0  0  0  0  0  0  0
   12.3923   -1.5250    0.0000 H   0  0  0  0  0  0  0  0  0  0  0  0
   11.8554   -0.2150    0.0000 H   0  0  0  0  0  0  0  0  0  0  0  0
    6.8671    1.2850    0.0000 H   0  0  0  0  0  0  0  0  0  0  0  0
    3.3335    2.6200    0.0000 H   0  0  0  0  0  0  0  0  0  0  0  0
    4.1306    2.6200    0.0000 H   0  0  0  0  0  0  0  0  0  0  0  0
    4.5981    2.9750    0.0000 H   0  0  0  0  0  0  0  0  0  0  0  0
    7.7331   -0.5950    0.0000 H   0  0  0  0  0  0  0  0  0  0  0  0
    2.8660    2.9750    0.0000 H   0  0  0  0  0  0  0  0  0  0  0  0
    9.7942   -0.7850    0.0000 H   0  0  0  0  0  0  0  0  0  0  0  0
    7.4082    1.5124    0.0000 H   0  0  0  0  0  0  0  0  0  0  0  0
    7.8067    2.2027    0.0000 H   0  0  0  0  0  0  0  0  0  0  0  0
    6.1181   -0.8224    0.0000 H   0  0  0  0  0  0  0  0  0  0  0  0
    5.7196   -1.5127    0.0000 H   0  0  0  0  0  0  0  0  0  0  0  0
    5.7932    0.2850    0.0000 H   0  0  0  0  0  0  0  0  0  0  0  0
    6.0010    3.4050    0.0000 H   0  0  0  0  0  0  0  0  0  0  0  0
   13.2583   -2.0250    0.0000 H   0  0  0  0  0  0  0  0  0  0  0  0
   13.5683    0.0581    0.0000 H   0  0  0  0  0  0  0  0  0  0  0  0
   13.7953    0.9050    0.0000 H   0  0  0  0  0  0  0  0  0  0  0  0
   12.9483    1.1319    0.0000 H   0  0  0  0  0  0  0  0  0  0  0  0
   11.8363    1.1319    0.0000 H   0  0  0  0  0  0  0  0  0  0  0  0
   10.9893    0.9050    0.0000 H   0  0  0  0  0  0  0  0  0  0  0  0
   11.2163    0.0581    0.0000 H   0  0  0  0  0  0  0  0  0  0  0  0
   10.6603   -0.2850    0.0000 H   0  0  0  0  0  0  0  0  0  0  0  0
    8.0622   -2.0250    0.0000 H   0  0  0  0  0  0  0  0  0  0  0  0
    1.6900    3.6319    0.0000 H   0  0  0  0  0  0  0  0  0  0  0  0
    1.4631    2.7850    0.0000 H   0  0  0  0  0  0  0  0  0  0  0  0
    2.3100    2.5581    0.0000 H   0  0  0  0  0  0  0  0  0  0  0  0
    3.4860    4.5950    0.0000 H   0  0  0  0  0  0  0  0  0  0  0  0
    2.8660    5.2150    0.0000 H   0  0  0  0  0  0  0  0  0  0  0  0
    2.2460    4.5950    0.0000 H   0  0  0  0  0  0  0  0  0  0  0  0
    6.9841    3.6776    0.0000 H   0  0  0  0  0  0  0  0  0  0  0  0
    6.5856    2.9873    0.0000 H   0  0  0  0  0  0  0  0  0  0  0  0
   15.5273   -1.7150    0.0000 H   0  0  0  0  0  0  0  0  0  0  0  0
    9.1836   -2.2973    0.0000 H   0  0  0  0  0  0  0  0  0  0  0  0
    9.5822   -2.9876    0.0000 H   0  0  0  0  0  0  0  0  0  0  0  0
   16.3933   -0.5950    0.0000 H   0  0  0  0  0  0  0  0  0  0  0  0
    7.7331   -2.5950    0.0000 H   0  0  0  0  0  0  0  0  0  0  0  0
    4.9272   -2.5950    0.0000 H   0  0  0  0  0  0  0  0  0  0  0  0
   16.4764    0.0950    0.0000 H   0  0  0  0  0  0  0  0  0  0  0  0
   15.8564    0.7150    0.0000 H   0  0  0  0  0  0  0  0  0  0  0  0
   15.2364    0.0950    0.0000 H   0  0  0  0  0  0  0  0  0  0  0  0
   15.5273   -2.7150    0.0000 H   0  0  0  0  0  0  0  0  0  0  0  0
   14.4534   -2.7150    0.0000 H   0  0  0  0  0  0  0  0  0  0  0  0
   10.6603   -3.5250    0.0000 H   0  0  0  0  0  0  0  0  0  0  0  0
    7.7331   -4.2150    0.0000 H   0  0  0  0  0  0  0  0  0  0  0  0
    4.9272   -4.2150    0.0000 H   0  0  0  0  0  0  0  0  0  0  0  0
    3.7320    5.7150    0.0000 H   0  0  0  0  0  0  0  0  0  0  0  0
   17.2594   -1.0950    0.0000 H   0  0  0  0  0  0  0  0  0  0  0  0
    8.5991    4.9050    0.0000 H   0  0  0  0  0  0  0  0  0  0  0  0
    5.7932   -5.7150    0.0000 H   0  0  0  0  0  0  0  0  0  0  0  0
  1 28  2  0  0  0  0
  2 30  2  0  0  0  0
  3 31  2  0  0  0  0
  4 34  2  0  0  0  0
  5 40  1  0  0  0  0
  5 94  1  0  0  0  0
  6 42  1  0  0  0  0
  6 97  1  0  0  0  0
  7 39  2  0  0  0  0
 43  8  1  1  0  0  0
  8 98  1  0  0  0  0
  9 42  2  0  0  0  0
 10 46  1  0  0  0  0
 10 99  1  0  0  0  0
 11 46  2  0  0  0  0
 12 50  1  0  0  0  0
 12100  1  0  0  0  0
 21 13  1  6  0  0  0
 13 31  1  0  0  0  0
 13 64  1  0  0  0  0
 23 14  1  1  0  0  0
 14 30  1  0  0  0  0
 14 65  1  0  0  0  0
 19 15  1  6  0  0  0
 15 39  1  0  0  0  0
 15 66  1  0  0  0  0
 26 16  1  1  0  0  0
 16 28  1  0  0  0  0
 16 73  1  0  0  0  0
 24 17  1  1  0  0  0
 17 34  1  0  0  0  0
 17 74  1  0  0  0  0
 38 18  1  6  0  0  0
 18 92  1  0  0  0  0
 18 93  1  0  0  0  0
 19 20  1  0  0  0  0
 19 28  1  0  0  0  0
 19 51  1  0  0  0  0
 20 32  1  0  0  0  0
 20 33  1  0  0  0  0
 20 52  1  0  0  0  0
 21 27  1  0  0  0  0
 21 30  1  0  0  0  0
 21 53  1  0  0  0  0
 22 23  1  0  0  0  0
 22 25  1  0  0  0  0
 22 54  1  0  0  0  0
 22 55  1  0  0  0  0
 23 42  1  0  0  0  0
 23 56  1  0  0  0  0
 24 29  1  0  0  0  0
 24 31  1  0  0  0  0
 24 57  1  0  0  0  0
 25 35  1  0  0  0  0
 25 36  1  0  0  0  0
 25 58  1  0  0  0  0
 26 34  1  0  0  0  0
 26 40  1  0  0  0  0
 26 59  1  0  0  0  0
 27 37  1  0  0  0  0
 27 60  1  0  0  0  0
 27 61  1  0  0  0  0
 29 41  1  0  0  0  0
 29 62  1  0  0  0  0
 29 63  1  0  0  0  0
 32 67  1  0  0  0  0
 32 68  1  0  0  0  0
 32 69  1  0  0  0  0
 33 70  1  0  0  0  0
 33 71  1  0  0  0  0
 33 72  1  0  0  0  0
 35 75  1  0  0  0  0
 35 76  1  0  0  0  0
 35 77  1  0  0  0  0
 36 78  1  0  0  0  0
 36 79  1  0  0  0  0
 36 80  1  0  0  0  0
 37 46  1  0  0  0  0
 37 81  1  0  0  0  0
 37 82  1  0  0  0  0
 38 39  1  0  0  0  0
 38 43  1  0  0  0  0
 38 83  1  0  0  0  0
 40 84  1  0  0  0  0
 40 85  1  0  0  0  0
 41 44  2  0  0  0  0
 41 45  1  0  0  0  0
 43 47  1  0  0  0  0
 43 86  1  0  0  0  0
 44 48  1  0  0  0  0
 44 87  1  0  0  0  0
 45 49  2  0  0  0  0
 45 88  1  0  0  0  0
 47 89  1  0  0  0  0
 47 90  1  0  0  0  0
 47 91  1  0  0  0  0
 48 50  2  0  0  0  0
 48 95  1  0  0  0  0
 49 50  1  0  0  0  0
 49 96  1  0  0  0  0
M  END
> <PUBCHEM_COMPOUND_CID>
513447
> <PUBCHEM_COMPOUND_CANONICALIZED>
1
> <PUBCHEM_CACTVS_COMPLEXITY>
1180
> <PUBCHEM_CACTVS_HBOND_ACCEPTOR>
13
> <PUBCHEM_CACTVS_HBOND_DONOR>
11
> <PUBCHEM_CACTVS_ROTATABLE_BOND>
21
> <PUBCHEM_CACTVS_SUBSKEYS>
AAADcfB/vAAAAAAAAAAAAAAAAAAAAAAAAAAwAAAAAAAAAAABAAAAHgAQCAAADTzhmAYyDoLAAgCIAiHSGAACAAAgIAAIiIGOCIgKdjaCkTOUcAAm9hGYmAe836KOIAAAAAAAAABAAAAAAAAAAAAAAAAAAA==
> <PUBCHEM_IUPAC_OPENEYE_NAME>
(2S)-2-[[(2S)-2-[[(2S)-2-[[(2S)-2-[[(2S)-2-[[(2S,3R)-2-amino-3-hydroxy-butanoyl]amino]-3-methyl-butanoyl]amino]-3-hydroxy-propanoyl]amino]-3-(4-hydroxyphenyl)propanoyl]amino]-4-carboxy-butanoyl]amino]-4-methyl-pentanoic acid
> <PUBCHEM_IUPAC_CAS_NAME>
(2S)-2-[[(2S)-2-[[(2S)-2-[[(2S)-2-[[(2S)-2-[[(2S,3R)-2-amino-3-hydroxy-1-oxobutyl]amino]-3-methyl-1-oxobutyl]amino]-3-hydroxy-1-oxopropyl]amino]-3-(4-hydroxyphenyl)-1-oxopropyl]amino]-4-carboxy-1-oxobutyl]amino]-4-methylpentanoic acid
> <PUBCHEM_IUPAC_NAME_MARKUP>
(2<I>S</I>)-2-[[(2<I>S</I>)-2-[[(2<I>S</I>)-2-[[(2<I>S</I>)-2-[[(2<I>S</I>)-2-[[(2<I>S</I>,3<I>R</I>)-2-amino-3-hydroxybutanoyl]amino]-3-methylbutanoyl]amino]-3-hydroxypropanoyl]amino]-3-(4-hydroxyphenyl)propanoyl]amino]-4-carboxybutanoyl]amino]-4-methylpentanoic acid
> <PUBCHEM_IUPAC_NAME>
(2S)-2-[[(2S)-2-[[(2S)-2-[[(2S)-2-[[(2S)-2-[[(2S,3R)-2-amino-3-hydroxybutanoyl]amino]-3-methylbutanoyl]amino]-3-hydroxypropanoyl]amino]-3-(4-hydroxyphenyl)propanoyl]amino]-4-carboxybutanoyl]amino]-4-methylpentanoic acid
> <PUBCHEM_IUPAC_SYSTEMATIC_NAME>
(2S)-2-[[(2S)-2-[[(2S)-2-[[(2S)-2-[[(2S)-2-[[(2S,3R)-2-azanyl-3-oxidanyl-butanoyl]amino]-3-methyl-butanoyl]amino]-3-oxidanyl-propanoyl]amino]-3-(4-hydroxyphenyl)propanoyl]amino]-5-oxidanyl-5-oxidanylidene-pentanoyl]amino]-4-methyl-pentanoic acid
> <PUBCHEM_IUPAC_TRADITIONAL_NAME>
(2S)-2-[[(2S)-2-[[(2S)-2-[[(2S)-2-[[(2S)-2-[[(2S,3R)-2-amino-3-hydroxy-butanoyl]amino]-3-methyl-butanoyl]amino]-3-hydroxy-propanoyl]amino]-3-(4-hydroxyphenyl)propanoyl]amino]-4-carboxy-butanoyl]amino]-4-methyl-valeric acid
> <PUBCHEM_IUPAC_INCHI>
InChI=1S/C32H50N6O12/c1-15(2)12-22(32(49)50)36-27(44)20(10-11-24(42)43)34-28(45)21(13-18-6-8-19(41)9-7-18)35-29(46)23(14-39)37-31(48)26(16(3)4)38-30(47)25(33)17(5)40/h6-9,15-17,20-23,25-26,39-41H,10-14,33H2,1-5H3,(H,34,45)(H,35,46)(H,36,44)(H,37,48)(H,38,47)(H,42,43)(H,49,50)/t17-,20+,21+,22+,23+,25+,26+/m1/s1
> <PUBCHEM_IUPAC_INCHIKEY>
UTRUNSGCNCZSOX-FWKBLXRPSA-N
> <PUBCHEM_XLOGP3_AA>
-2.9
> <PUBCHEM_EXACT_MASS>
710.34867105
> <PUBCHEM_MOLECULAR_FORMULA>
C32H50N6O12
> <PUBCHEM_MOLECULAR_WEIGHT>
710.8
> <PUBCHEM_OPENEYE_CAN_SMILES>
CC(C)CC(C(=O)O)NC(=O)C(CCC(=O)O)NC(=O)C(CC1=CC=C(C=C1)O)NC(=O)C(CO)NC(=O)C(C(C)C)NC(=O)C(C(C)O)N
> <PUBCHEM_OPENEYE_ISO_SMILES>
C[C@H]([C@@H](C(=O)N[C@@H](C(C)C)C(=O)N[C@@H](CO)C(=O)N[C@@H](CC1=CC=C(C=C1)O)C(=O)N[C@@H](CCC(=O)O)C(=O)N[C@@H](CC(C)C)C(=O)O)N)O
> <PUBCHEM_CACTVS_TPSA>
307
> <PUBCHEM_MONOISOTOPIC_WEIGHT>
710.34867105
> <PUBCHEM_TOTAL_CHARGE>
0
> <PUBCHEM_HEAVY_ATOM_COUNT>
50
> <PUBCHEM_ATOM_DEF_STEREO_COUNT>
7
> <PUBCHEM_ATOM_UDEF_STEREO_COUNT>
0
> <PUBCHEM_BOND_DEF_STEREO_COUNT>
0
> <PUBCHEM_BOND_UDEF_STEREO_COUNT>
0
> <PUBCHEM_ISOTOPIC_ATOM_COUNT>
0
> <PUBCHEM_COMPONENT_COUNT>
1
> <PUBCHEM_CACTVS_TAUTO_COUNT>
-1
> <PUBCHEM_COORDINATE_TYPE>
1
5
255
> <PUBCHEM_BONDANNOTATIONS>
21  13  6
23  14  5
19  15  6
26  16  5
24  17  5
38  18  6
41  44  8
41  45  8
44  48  8
45  49  8
48  50  8
49  50  8
43  8  5
$$$$
