513450
  -OEChem-10302200282D
 46 47  0     1  0  0  0  0  0999 V2000
    4.5981   -1.0000    0.0000 O   0  0  0  0  0  0  0  0  0  0  0  0
    7.1962   -1.5000    0.0000 O   0  0  0  0  0  0  0  0  0  0  0  0
    6.3301    3.0000    0.0000 O   0  0  0  0  0  0  0  0  0  0  0  0
    8.0622    0.0000    0.0000 O   0  0  0  0  0  0  0  0  0  0  0  0
    6.3301    0.0000    0.0000 N   0  0  0  0  0  0  0  0  0  0  0  0
    7.1962    1.5000    0.0000 N   0  0  0  0  0  0  0  0  0  0  0  0
    3.7320    0.5000    0.0000 C   0  0  0  0  0  0  0  0  0  0  0  0
    3.7320    1.5000    0.0000 C   0  0  0  0  0  0  0  0  0  0  0  0
    4.5981    0.0000    0.0000 C   0  0  3  0  0  0  0  0  0  0  0  0
    2.8660    2.0000    0.0000 C   0  0  0  0  0  0  0  0  0  0  0  0
    2.0000    1.5000    0.0000 C   0  0  0  0  0  0  0  0  0  0  0  0
    2.0000    0.5000    0.0000 C   0  0  0  0  0  0  0  0  0  0  0  0
    5.4641    0.5000    0.0000 C   0  0  0  0  0  0  0  0  0  0  0  0
    2.8660   -0.0000    0.0000 C   0  0  0  0  0  0  0  0  0  0  0  0
    5.4641    1.5000    0.0000 C   0  0  0  0  0  0  0  0  0  0  0  0
    4.5981    2.0000    0.0000 C   0  0  0  0  0  0  0  0  0  0  0  0
    6.3301    2.0000    0.0000 C   0  0  0  0  0  0  0  0  0  0  0  0
    6.3301   -1.0000    0.0000 C   0  0  0  0  0  0  0  0  0  0  0  0
    7.1962    0.5000    0.0000 C   0  0  0  0  0  0  0  0  0  0  0  0
    4.5981    3.0000    0.0000 C   0  0  0  0  0  0  0  0  0  0  0  0
    7.1962   -2.5000    0.0000 C   0  0  0  0  0  0  0  0  0  0  0  0
    8.0622   -3.0000    0.0000 C   0  0  0  0  0  0  0  0  0  0  0  0
    4.3426    1.3923    0.0000 H   0  0  0  0  0  0  0  0  0  0  0  0
    3.9441    2.0826    0.0000 H   0  0  0  0  0  0  0  0  0  0  0  0
    5.1350   -0.3100    0.0000 H   0  0  0  0  0  0  0  0  0  0  0  0
    3.2646    2.4750    0.0000 H   0  0  0  0  0  0  0  0  0  0  0  0
    2.4675    2.4750    0.0000 H   0  0  0  0  0  0  0  0  0  0  0  0
    1.7880    2.0826    0.0000 H   0  0  0  0  0  0  0  0  0  0  0  0
    1.3894    1.3923    0.0000 H   0  0  0  0  0  0  0  0  0  0  0  0
    1.3894    0.6077    0.0000 H   0  0  0  0  0  0  0  0  0  0  0  0
    1.7880   -0.0826    0.0000 H   0  0  0  0  0  0  0  0  0  0  0  0
    2.8660   -0.6200    0.0000 H   0  0  0  0  0  0  0  0  0  0  0  0
    3.9875    2.1077    0.0000 H   0  0  0  0  0  0  0  0  0  0  0  0
    4.3860    1.4174    0.0000 H   0  0  0  0  0  0  0  0  0  0  0  0
    5.7196   -0.8923    0.0000 H   0  0  0  0  0  0  0  0  0  0  0  0
    6.1181   -1.5826    0.0000 H   0  0  0  0  0  0  0  0  0  0  0  0
    4.0611   -1.3100    0.0000 H   0  0  0  0  0  0  0  0  0  0  0  0
    7.7331    1.8100    0.0000 H   0  0  0  0  0  0  0  0  0  0  0  0
    5.2181    3.0000    0.0000 H   0  0  0  0  0  0  0  0  0  0  0  0
    4.5981    3.6200    0.0000 H   0  0  0  0  0  0  0  0  0  0  0  0
    3.9781    3.0000    0.0000 H   0  0  0  0  0  0  0  0  0  0  0  0
    6.5856   -2.3923    0.0000 H   0  0  0  0  0  0  0  0  0  0  0  0
    6.9841   -3.0826    0.0000 H   0  0  0  0  0  0  0  0  0  0  0  0
    7.7522   -3.5369    0.0000 H   0  0  0  0  0  0  0  0  0  0  0  0
    8.5991   -3.3100    0.0000 H   0  0  0  0  0  0  0  0  0  0  0  0
    8.3722   -2.4631    0.0000 H   0  0  0  0  0  0  0  0  0  0  0  0
  1  9  1  0  0  0  0
  1 37  1  0  0  0  0
  2 18  1  0  0  0  0
  2 21  1  0  0  0  0
  3 17  2  0  0  0  0
  4 19  2  0  0  0  0
  5 13  1  0  0  0  0
  5 18  1  0  0  0  0
  5 19  1  0  0  0  0
  6 17  1  0  0  0  0
  6 19  1  0  0  0  0
  6 38  1  0  0  0  0
  7  8  1  0  0  0  0
  7  9  1  0  0  0  0
  7 14  2  0  0  0  0
  8 10  1  0  0  0  0
  8 23  1  0  0  0  0
  8 24  1  0  0  0  0
  9 13  1  0  0  0  0
  9 25  1  0  0  0  0
 10 11  1  0  0  0  0
 10 26  1  0  0  0  0
 10 27  1  0  0  0  0
 11 12  1  0  0  0  0
 11 28  1  0  0  0  0
 11 29  1  0  0  0  0
 12 14  1  0  0  0  0
 12 30  1  0  0  0  0
 12 31  1  0  0  0  0
 13 15  2  0  0  0  0
 14 32  1  0  0  0  0
 15 16  1  0  0  0  0
 15 17  1  0  0  0  0
 16 20  1  0  0  0  0
 16 33  1  0  0  0  0
 16 34  1  0  0  0  0
 18 35  1  0  0  0  0
 18 36  1  0  0  0  0
 20 39  1  0  0  0  0
 20 40  1  0  0  0  0
 20 41  1  0  0  0  0
 21 22  1  0  0  0  0
 21 42  1  0  0  0  0
 21 43  1  0  0  0  0
 22 44  1  0  0  0  0
 22 45  1  0  0  0  0
 22 46  1  0  0  0  0
M  END
> <PUBCHEM_COMPOUND_CID>
513450
> <PUBCHEM_COMPOUND_CANONICALIZED>
1
> <PUBCHEM_CACTVS_COMPLEXITY>
510
> <PUBCHEM_CACTVS_HBOND_ACCEPTOR>
4
> <PUBCHEM_CACTVS_HBOND_DONOR>
2
> <PUBCHEM_CACTVS_ROTATABLE_BOND>
6
> <PUBCHEM_CACTVS_SUBSKEYS>
AAADceB7OAAAAAAAAAAAAAAAAAAAAAAAAAAgQAAAAAAAAAAAAAAAHgAQCAAADByhgAYDAAPABgCIAiVSUACAAAAgAAAACAEIAEiCFBIAgQAMUAAMhyIYEUOQwKAAAAAAAAAAAAAAAAAAAAAAAAAAAAAAAA==
> <PUBCHEM_IUPAC_OPENEYE_NAME>
6-[cyclohexen-1-yl(hydroxy)methyl]-1-(ethoxymethyl)-5-ethyl-pyrimidine-2,4-dione
> <PUBCHEM_IUPAC_CAS_NAME>
6-[1-cyclohexenyl(hydroxy)methyl]-1-(ethoxymethyl)-5-ethylpyrimidine-2,4-dione
> <PUBCHEM_IUPAC_NAME_MARKUP>
6-[cyclohexen-1-yl(hydroxy)methyl]-1-(ethoxymethyl)-5-ethylpyrimidine-2,4-dione
> <PUBCHEM_IUPAC_NAME>
6-[cyclohexen-1-yl(hydroxy)methyl]-1-(ethoxymethyl)-5-ethylpyrimidine-2,4-dione
> <PUBCHEM_IUPAC_SYSTEMATIC_NAME>
6-[cyclohexen-1-yl(oxidanyl)methyl]-1-(ethoxymethyl)-5-ethyl-pyrimidine-2,4-dione
> <PUBCHEM_IUPAC_TRADITIONAL_NAME>
6-[cyclohexen-1-yl(hydroxy)methyl]-1-(ethoxymethyl)-5-ethyl-pyrimidine-2,4-quinone
> <PUBCHEM_IUPAC_INCHI>
InChI=1S/C16H24N2O4/c1-3-12-13(14(19)11-8-6-5-7-9-11)18(10-22-4-2)16(21)17-15(12)20/h8,14,19H,3-7,9-10H2,1-2H3,(H,17,20,21)
> <PUBCHEM_IUPAC_INCHIKEY>
GTQVDZWTMCLLCI-UHFFFAOYSA-N
> <PUBCHEM_XLOGP3_AA>
1.2
> <PUBCHEM_EXACT_MASS>
308.17360725
> <PUBCHEM_MOLECULAR_FORMULA>
C16H24N2O4
> <PUBCHEM_MOLECULAR_WEIGHT>
308.37
> <PUBCHEM_OPENEYE_CAN_SMILES>
CCC1=C(N(C(=O)NC1=O)COCC)C(C2=CCCCC2)O
> <PUBCHEM_OPENEYE_ISO_SMILES>
CCC1=C(N(C(=O)NC1=O)COCC)C(C2=CCCCC2)O
> <PUBCHEM_CACTVS_TPSA>
78.9
> <PUBCHEM_MONOISOTOPIC_WEIGHT>
308.17360725
> <PUBCHEM_TOTAL_CHARGE>
0
> <PUBCHEM_HEAVY_ATOM_COUNT>
22
> <PUBCHEM_ATOM_DEF_STEREO_COUNT>
0
> <PUBCHEM_ATOM_UDEF_STEREO_COUNT>
1
> <PUBCHEM_BOND_DEF_STEREO_COUNT>
0
> <PUBCHEM_BOND_UDEF_STEREO_COUNT>
0
> <PUBCHEM_ISOTOPIC_ATOM_COUNT>
0
> <PUBCHEM_COMPONENT_COUNT>
1
> <PUBCHEM_CACTVS_TAUTO_COUNT>
-1
> <PUBCHEM_COORDINATE_TYPE>
1
5
255
> <PUBCHEM_BONDANNOTATIONS>
9  1  3
13  15  8
15  17  8
5  13  8
5  19  8
6  17  8
6  19  8
$$$$
