513488
  -OEChem-10302200282D
 50 53  0     1  0  0  0  0  0999 V2000
    4.8428    2.3711    0.0000 F   0  0  0  0  0  0  0  0  0  0  0  0
    8.2324    3.0855    0.0000 F   0  0  0  0  0  0  0  0  0  0  0  0
    4.5109   -0.2538    0.0000 O   0  0  0  0  0  0  0  0  0  0  0  0
    5.6124   -1.2807    0.0000 N   0  0  0  0  0  0  0  0  0  0  0  0
    5.6124   -2.8902    0.0000 N   0  0  0  0  0  0  0  0  0  0  0  0
    3.6089    0.9522    0.0000 N   0  0  0  0  0  0  0  0  0  0  0  0
    3.2006    0.0393    0.0000 N   0  0  0  0  0  0  0  0  0  0  0  0
    2.0000    1.1241    0.0000 N   0  0  0  0  0  0  0  0  0  0  0  0
    5.2552    0.4141    0.0000 C   0  0  3  0  0  0  0  0  0  0  0  0
    5.9231   -0.3302    0.0000 C   0  0  0  0  0  0  0  0  0  0  0  0
    4.5874    1.1584    0.0000 C   0  0  0  0  0  0  0  0  0  0  0  0
    6.1960   -2.0855    0.0000 C   0  0  0  0  0  0  0  0  0  0  0  0
    5.9995    1.0819    0.0000 C   0  0  0  0  0  0  0  0  0  0  0  0
    4.6662   -1.5855    0.0000 C   0  0  0  0  0  0  0  0  0  0  0  0
    7.1960   -2.0855    0.0000 C   0  0  0  0  0  0  0  0  0  0  0  0
    4.6662   -2.5855    0.0000 C   0  0  0  0  0  0  0  0  0  0  0  0
    5.7933    2.0604    0.0000 C   0  0  0  0  0  0  0  0  0  0  0  0
    6.9500    0.7713    0.0000 C   0  0  0  0  0  0  0  0  0  0  0  0
    3.8002   -1.0855    0.0000 C   0  0  0  0  0  0  0  0  0  0  0  0
    7.6960   -2.9515    0.0000 C   0  0  0  0  0  0  0  0  0  0  0  0
    7.6960   -1.2194    0.0000 C   0  0  0  0  0  0  0  0  0  0  0  0
    3.8002   -3.0855    0.0000 C   0  0  0  0  0  0  0  0  0  0  0  0
    2.9341   -1.5855    0.0000 C   0  0  0  0  0  0  0  0  0  0  0  0
    6.5376    2.7283    0.0000 C   0  0  0  0  0  0  0  0  0  0  0  0
    7.6944    1.4391    0.0000 C   0  0  0  0  0  0  0  0  0  0  0  0
    2.9341   -2.5855    0.0000 C   0  0  0  0  0  0  0  0  0  0  0  0
    2.8669    1.6226    0.0000 C   0  0  0  0  0  0  0  0  0  0  0  0
    7.4881    2.4176    0.0000 C   0  0  0  0  0  0  0  0  0  0  0  0
    2.2062    0.1456    0.0000 C   0  0  0  0  0  0  0  0  0  0  0  0
    6.4700   -0.6222    0.0000 H   0  0  0  0  0  0  0  0  0  0  0  0
    6.3056    0.1577    0.0000 H   0  0  0  0  0  0  0  0  0  0  0  0
    5.1137    1.4860    0.0000 H   0  0  0  0  0  0  0  0  0  0  0  0
    4.3561    1.7336    0.0000 H   0  0  0  0  0  0  0  0  0  0  0  0
    6.8860   -2.6224    0.0000 H   0  0  0  0  0  0  0  0  0  0  0  0
    4.6388   -0.8604    0.0000 H   0  0  0  0  0  0  0  0  0  0  0  0
    7.0779    0.1646    0.0000 H   0  0  0  0  0  0  0  0  0  0  0  0
    3.8002   -0.4655    0.0000 H   0  0  0  0  0  0  0  0  0  0  0  0
    7.1591   -3.2615    0.0000 H   0  0  0  0  0  0  0  0  0  0  0  0
    8.0060   -3.4884    0.0000 H   0  0  0  0  0  0  0  0  0  0  0  0
    8.2330   -2.6415    0.0000 H   0  0  0  0  0  0  0  0  0  0  0  0
    8.2330   -1.5294    0.0000 H   0  0  0  0  0  0  0  0  0  0  0  0
    8.0060   -0.6825    0.0000 H   0  0  0  0  0  0  0  0  0  0  0  0
    7.1591   -0.9094    0.0000 H   0  0  0  0  0  0  0  0  0  0  0  0
    3.8002   -3.7055    0.0000 H   0  0  0  0  0  0  0  0  0  0  0  0
    2.3972   -1.2755    0.0000 H   0  0  0  0  0  0  0  0  0  0  0  0
    6.4098    3.3350    0.0000 H   0  0  0  0  0  0  0  0  0  0  0  0
    8.2837    1.2465    0.0000 H   0  0  0  0  0  0  0  0  0  0  0  0
    2.3972   -2.8955    0.0000 H   0  0  0  0  0  0  0  0  0  0  0  0
    2.9328    2.2391    0.0000 H   0  0  0  0  0  0  0  0  0  0  0  0
    1.7906   -0.3144    0.0000 H   0  0  0  0  0  0  0  0  0  0  0  0
  1 17  1  0  0  0  0
  2 28  1  0  0  0  0
  3  9  1  0  0  0  0
  3 35  1  0  0  0  0
  4 10  1  0  0  0  0
  4 12  1  0  0  0  0
  4 14  1  0  0  0  0
  5 12  2  0  0  0  0
  5 16  1  0  0  0  0
  6  7  1  0  0  0  0
  6 11  1  0  0  0  0
  6 27  1  0  0  0  0
  7 29  2  0  0  0  0
  8 27  2  0  0  0  0
  8 29  1  0  0  0  0
  9 10  1  0  0  0  0
  9 11  1  0  0  0  0
  9 13  1  0  0  0  0
 10 30  1  0  0  0  0
 10 31  1  0  0  0  0
 11 32  1  0  0  0  0
 11 33  1  0  0  0  0
 12 15  1  0  0  0  0
 13 17  2  0  0  0  0
 13 18  1  0  0  0  0
 14 16  1  0  0  0  0
 14 19  2  0  0  0  0
 15 20  1  0  0  0  0
 15 21  1  0  0  0  0
 15 34  1  0  0  0  0
 16 22  2  0  0  0  0
 17 24  1  0  0  0  0
 18 25  2  0  0  0  0
 18 36  1  0  0  0  0
 19 23  1  0  0  0  0
 19 37  1  0  0  0  0
 20 38  1  0  0  0  0
 20 39  1  0  0  0  0
 20 40  1  0  0  0  0
 21 41  1  0  0  0  0
 21 42  1  0  0  0  0
 21 43  1  0  0  0  0
 22 26  1  0  0  0  0
 22 44  1  0  0  0  0
 23 26  2  0  0  0  0
 23 45  1  0  0  0  0
 24 28  2  0  0  0  0
 24 46  1  0  0  0  0
 25 28  1  0  0  0  0
 25 47  1  0  0  0  0
 26 48  1  0  0  0  0
 27 49  1  0  0  0  0
 29 50  1  0  0  0  0
M  END
> <PUBCHEM_COMPOUND_CID>
513488
> <PUBCHEM_COMPOUND_CANONICALIZED>
1
> <PUBCHEM_CACTVS_COMPLEXITY>
555
> <PUBCHEM_CACTVS_HBOND_ACCEPTOR>
6
> <PUBCHEM_CACTVS_HBOND_DONOR>
1
> <PUBCHEM_CACTVS_ROTATABLE_BOND>
6
> <PUBCHEM_CACTVS_SUBSKEYS>
AAADceB7oYAAAAAAAAAAAAAAAAAAAWLAAAAwYAAAAAAAAFgB/AAAHwAICAAADUzBnww30LcMEgCiAyZjZACSgC8xkqAd2CA4fJiKbqLA2ZGUcAhswAPY2CeQwOAOgAAAAAAAACAAAAAAAAAAQAAAAAAAAA==
> <PUBCHEM_IUPAC_OPENEYE_NAME>
2-(2,4-difluorophenyl)-1-(2-isopropylbenzimidazol-1-yl)-3-(1,2,4-triazol-1-yl)propan-2-ol
> <PUBCHEM_IUPAC_CAS_NAME>
2-(2,4-difluorophenyl)-1-(2-propan-2-yl-1-benzimidazolyl)-3-(1,2,4-triazol-1-yl)-2-propanol
> <PUBCHEM_IUPAC_NAME_MARKUP>
2-(2,4-difluorophenyl)-1-(2-propan-2-ylbenzimidazol-1-yl)-3-(1,2,4-triazol-1-yl)propan-2-ol
> <PUBCHEM_IUPAC_NAME>
2-(2,4-difluorophenyl)-1-(2-propan-2-ylbenzimidazol-1-yl)-3-(1,2,4-triazol-1-yl)propan-2-ol
> <PUBCHEM_IUPAC_SYSTEMATIC_NAME>
2-[2,4-bis(fluoranyl)phenyl]-1-(2-propan-2-ylbenzimidazol-1-yl)-3-(1,2,4-triazol-1-yl)propan-2-ol
> <PUBCHEM_IUPAC_TRADITIONAL_NAME>
2-(2,4-difluorophenyl)-1-(2-isopropylbenzimidazol-1-yl)-3-(1,2,4-triazol-1-yl)propan-2-ol
> <PUBCHEM_IUPAC_INCHI>
InChI=1S/C21H21F2N5O/c1-14(2)20-26-18-5-3-4-6-19(18)28(20)11-21(29,10-27-13-24-12-25-27)16-8-7-15(22)9-17(16)23/h3-9,12-14,29H,10-11H2,1-2H3
> <PUBCHEM_IUPAC_INCHIKEY>
GWEDMKBJLWFSFM-UHFFFAOYSA-N
> <PUBCHEM_XLOGP3_AA>
3.1
> <PUBCHEM_EXACT_MASS>
397.17141663
> <PUBCHEM_MOLECULAR_FORMULA>
C21H21F2N5O
> <PUBCHEM_MOLECULAR_WEIGHT>
397.4
> <PUBCHEM_OPENEYE_CAN_SMILES>
CC(C)C1=NC2=CC=CC=C2N1CC(CN3C=NC=N3)(C4=C(C=C(C=C4)F)F)O
> <PUBCHEM_OPENEYE_ISO_SMILES>
CC(C)C1=NC2=CC=CC=C2N1CC(CN3C=NC=N3)(C4=C(C=C(C=C4)F)F)O
> <PUBCHEM_CACTVS_TPSA>
68.8
> <PUBCHEM_MONOISOTOPIC_WEIGHT>
397.17141663
> <PUBCHEM_TOTAL_CHARGE>
0
> <PUBCHEM_HEAVY_ATOM_COUNT>
29
> <PUBCHEM_ATOM_DEF_STEREO_COUNT>
0
> <PUBCHEM_ATOM_UDEF_STEREO_COUNT>
1
> <PUBCHEM_BOND_DEF_STEREO_COUNT>
0
> <PUBCHEM_BOND_UDEF_STEREO_COUNT>
0
> <PUBCHEM_ISOTOPIC_ATOM_COUNT>
0
> <PUBCHEM_COMPONENT_COUNT>
1
> <PUBCHEM_CACTVS_TAUTO_COUNT>
-1
> <PUBCHEM_COORDINATE_TYPE>
1
5
255
> <PUBCHEM_BONDANNOTATIONS>
13  17  8
13  18  8
14  16  8
14  19  8
16  22  8
17  24  8
18  25  8
19  23  8
22  26  8
23  26  8
24  28  8
25  28  8
9  3  3
4  12  8
4  14  8
5  12  8
5  16  8
6  27  8
6  7  8
7  29  8
8  27  8
8  29  8
$$$$
