513454
  -OEChem-10302200282D
 55 54  0     1  0  0  0  0  0999 V2000
    8.0622    3.7500    0.0000 O   0  0  0  0  0  0  0  0  0  0  0  0
    8.9282    2.2500    0.0000 O   0  0  0  0  0  0  0  0  0  0  0  0
   10.6603    5.2500    0.0000 O   0  0  0  0  0  0  0  0  0  0  0  0
    9.7942    6.7500    0.0000 O   0  0  0  0  0  0  0  0  0  0  0  0
    8.0622    5.7500    0.0000 N   0  0  0  0  0  0  0  0  0  0  0  0
    4.5981   -2.2500    0.0000 C   0  0  0  0  0  0  0  0  0  0  0  0
    5.4641   -1.7500    0.0000 C   0  0  0  0  0  0  0  0  0  0  0  0
    4.5981   -3.2500    0.0000 C   0  0  0  0  0  0  0  0  0  0  0  0
    5.4641   -0.7500    0.0000 C   0  0  0  0  0  0  0  0  0  0  0  0
    3.7320   -3.7500    0.0000 C   0  0  0  0  0  0  0  0  0  0  0  0
    6.3301   -0.2500    0.0000 C   0  0  0  0  0  0  0  0  0  0  0  0
    3.7320   -4.7500    0.0000 C   0  0  0  0  0  0  0  0  0  0  0  0
    6.3301    0.7500    0.0000 C   0  0  0  0  0  0  0  0  0  0  0  0
    2.8660   -5.2500    0.0000 C   0  0  0  0  0  0  0  0  0  0  0  0
    7.1962    1.2500    0.0000 C   0  0  0  0  0  0  0  0  0  0  0  0
    2.8660   -6.2500    0.0000 C   0  0  0  0  0  0  0  0  0  0  0  0
    7.1962    2.2500    0.0000 C   0  0  0  0  0  0  0  0  0  0  0  0
    2.0000   -6.7500    0.0000 C   0  0  0  0  0  0  0  0  0  0  0  0
    8.0622    2.7500    0.0000 C   0  0  0  0  0  0  0  0  0  0  0  0
    8.9282    4.2500    0.0000 C   0  0  0  0  0  0  0  0  0  0  0  0
    8.9282    5.2500    0.0000 C   0  0  3  0  0  0  0  0  0  0  0  0
    9.7942    5.7500    0.0000 C   0  0  0  0  0  0  0  0  0  0  0  0
    5.6762   -2.3326    0.0000 H   0  0  0  0  0  0  0  0  0  0  0  0
    6.0747   -1.6423    0.0000 H   0  0  0  0  0  0  0  0  0  0  0  0
    4.3860   -1.6674    0.0000 H   0  0  0  0  0  0  0  0  0  0  0  0
    3.9875   -2.3577    0.0000 H   0  0  0  0  0  0  0  0  0  0  0  0
    4.8101   -3.8326    0.0000 H   0  0  0  0  0  0  0  0  0  0  0  0
    5.2087   -3.1423    0.0000 H   0  0  0  0  0  0  0  0  0  0  0  0
    5.2520   -0.1674    0.0000 H   0  0  0  0  0  0  0  0  0  0  0  0
    4.8535   -0.8577    0.0000 H   0  0  0  0  0  0  0  0  0  0  0  0
    3.5200   -3.1674    0.0000 H   0  0  0  0  0  0  0  0  0  0  0  0
    3.1215   -3.8577    0.0000 H   0  0  0  0  0  0  0  0  0  0  0  0
    6.5422   -0.8326    0.0000 H   0  0  0  0  0  0  0  0  0  0  0  0
    6.9407   -0.1423    0.0000 H   0  0  0  0  0  0  0  0  0  0  0  0
    3.9441   -5.3326    0.0000 H   0  0  0  0  0  0  0  0  0  0  0  0
    4.3426   -4.6423    0.0000 H   0  0  0  0  0  0  0  0  0  0  0  0
    6.1181    1.3326    0.0000 H   0  0  0  0  0  0  0  0  0  0  0  0
    5.7196    0.6423    0.0000 H   0  0  0  0  0  0  0  0  0  0  0  0
    2.6540   -4.6674    0.0000 H   0  0  0  0  0  0  0  0  0  0  0  0
    2.2554   -5.3577    0.0000 H   0  0  0  0  0  0  0  0  0  0  0  0
    7.4082    0.6674    0.0000 H   0  0  0  0  0  0  0  0  0  0  0  0
    7.8067    1.3577    0.0000 H   0  0  0  0  0  0  0  0  0  0  0  0
    3.0781   -6.8326    0.0000 H   0  0  0  0  0  0  0  0  0  0  0  0
    3.4766   -6.1423    0.0000 H   0  0  0  0  0  0  0  0  0  0  0  0
    6.9841    2.8326    0.0000 H   0  0  0  0  0  0  0  0  0  0  0  0
    6.5856    2.1423    0.0000 H   0  0  0  0  0  0  0  0  0  0  0  0
    1.6900   -6.2131    0.0000 H   0  0  0  0  0  0  0  0  0  0  0  0
    1.4631   -7.0600    0.0000 H   0  0  0  0  0  0  0  0  0  0  0  0
    2.3100   -7.2869    0.0000 H   0  0  0  0  0  0  0  0  0  0  0  0
    9.1403    3.6674    0.0000 H   0  0  0  0  0  0  0  0  0  0  0  0
    9.5388    4.3577    0.0000 H   0  0  0  0  0  0  0  0  0  0  0  0
    8.9282    5.8700    0.0000 H   0  0  0  0  0  0  0  0  0  0  0  0
    7.5252    5.4400    0.0000 H   0  0  0  0  0  0  0  0  0  0  0  0
    8.0622    6.3700    0.0000 H   0  0  0  0  0  0  0  0  0  0  0  0
   11.1972    5.5600    0.0000 H   0  0  0  0  0  0  0  0  0  0  0  0
  1 19  1  0  0  0  0
  1 20  1  0  0  0  0
  2 19  2  0  0  0  0
  3 22  1  0  0  0  0
  3 55  1  0  0  0  0
  4 22  2  0  0  0  0
  5 21  1  0  0  0  0
  5 53  1  0  0  0  0
  5 54  1  0  0  0  0
  6  7  1  0  0  0  0
  6  8  1  0  0  0  0
  6 25  1  0  0  0  0
  6 26  1  0  0  0  0
  7  9  1  0  0  0  0
  7 23  1  0  0  0  0
  7 24  1  0  0  0  0
  8 10  1  0  0  0  0
  8 27  1  0  0  0  0
  8 28  1  0  0  0  0
  9 11  1  0  0  0  0
  9 29  1  0  0  0  0
  9 30  1  0  0  0  0
 10 12  1  0  0  0  0
 10 31  1  0  0  0  0
 10 32  1  0  0  0  0
 11 13  1  0  0  0  0
 11 33  1  0  0  0  0
 11 34  1  0  0  0  0
 12 14  1  0  0  0  0
 12 35  1  0  0  0  0
 12 36  1  0  0  0  0
 13 15  1  0  0  0  0
 13 37  1  0  0  0  0
 13 38  1  0  0  0  0
 14 16  1  0  0  0  0
 14 39  1  0  0  0  0
 14 40  1  0  0  0  0
 15 17  1  0  0  0  0
 15 41  1  0  0  0  0
 15 42  1  0  0  0  0
 16 18  1  0  0  0  0
 16 43  1  0  0  0  0
 16 44  1  0  0  0  0
 17 19  1  0  0  0  0
 17 45  1  0  0  0  0
 17 46  1  0  0  0  0
 18 47  1  0  0  0  0
 18 48  1  0  0  0  0
 18 49  1  0  0  0  0
 20 21  1  0  0  0  0
 20 50  1  0  0  0  0
 20 51  1  0  0  0  0
 21 22  1  0  0  0  0
 21 52  1  0  0  0  0
M  END
> <PUBCHEM_COMPOUND_CID>
513454
> <PUBCHEM_COMPOUND_CANONICALIZED>
1
> <PUBCHEM_CACTVS_COMPLEXITY>
294
> <PUBCHEM_CACTVS_HBOND_ACCEPTOR>
5
> <PUBCHEM_CACTVS_HBOND_DONOR>
2
> <PUBCHEM_CACTVS_ROTATABLE_BOND>
16
> <PUBCHEM_CACTVS_SUBSKEYS>
AAADcfB6OAAAAAAAAAAAAAAAAAAAAAAAAAAAAAAAAAAAAAAAAAAAHgAQCAAACCjhgAYCCABABgAIAACQCAAAAAAAAAAAAIGAAAACABYAAAADQAAFMAAAAAGIyKCAAAAAAAAAAAAAAAAAAAAAAAAAAAAAAA==
> <PUBCHEM_IUPAC_OPENEYE_NAME>
2-amino-3-tetradecanoyloxy-propanoic acid
> <PUBCHEM_IUPAC_CAS_NAME>
2-amino-3-(1-oxotetradecoxy)propanoic acid
> <PUBCHEM_IUPAC_NAME_MARKUP>
2-amino-3-tetradecanoyloxypropanoic acid
> <PUBCHEM_IUPAC_NAME>
2-amino-3-tetradecanoyloxypropanoic acid
> <PUBCHEM_IUPAC_SYSTEMATIC_NAME>
2-azanyl-3-tetradecanoyloxy-propanoic acid
> <PUBCHEM_IUPAC_TRADITIONAL_NAME>
2-amino-3-tetradecanoyloxy-propionic acid
> <PUBCHEM_IUPAC_INCHI>
InChI=1S/C17H33NO4/c1-2-3-4-5-6-7-8-9-10-11-12-13-16(19)22-14-15(18)17(20)21/h15H,2-14,18H2,1H3,(H,20,21)
> <PUBCHEM_IUPAC_INCHIKEY>
FWFMLOFYAPKSBD-UHFFFAOYSA-N
> <PUBCHEM_XLOGP3_AA>
2.8
> <PUBCHEM_EXACT_MASS>
315.24095853
> <PUBCHEM_MOLECULAR_FORMULA>
C17H33NO4
> <PUBCHEM_MOLECULAR_WEIGHT>
315.4
> <PUBCHEM_OPENEYE_CAN_SMILES>
CCCCCCCCCCCCCC(=O)OCC(C(=O)O)N
> <PUBCHEM_OPENEYE_ISO_SMILES>
CCCCCCCCCCCCCC(=O)OCC(C(=O)O)N
> <PUBCHEM_CACTVS_TPSA>
89.6
> <PUBCHEM_MONOISOTOPIC_WEIGHT>
315.24095853
> <PUBCHEM_TOTAL_CHARGE>
0
> <PUBCHEM_HEAVY_ATOM_COUNT>
22
> <PUBCHEM_ATOM_DEF_STEREO_COUNT>
0
> <PUBCHEM_ATOM_UDEF_STEREO_COUNT>
1
> <PUBCHEM_BOND_DEF_STEREO_COUNT>
0
> <PUBCHEM_BOND_UDEF_STEREO_COUNT>
0
> <PUBCHEM_ISOTOPIC_ATOM_COUNT>
0
> <PUBCHEM_COMPONENT_COUNT>
1
> <PUBCHEM_CACTVS_TAUTO_COUNT>
-1
> <PUBCHEM_COORDINATE_TYPE>
1
5
255
> <PUBCHEM_BONDANNOTATIONS>
21  5  3
$$$$
