513443
  -OEChem-10302200282D
119121  0     1  0  0  0  0  0999 V2000
    7.1962    0.3100    0.0000 O   0  0  0  0  0  0  0  0  0  0  0  0
    7.1962   -0.6900    0.0000 O   0  0  0  0  0  0  0  0  0  0  0  0
    8.0622   -4.1900    0.0000 O   0  0  0  0  0  0  0  0  0  0  0  0
    8.0622   -5.1900    0.0000 O   0  0  0  0  0  0  0  0  0  0  0  0
    5.4641    0.3100    0.0000 O   0  0  0  0  0  0  0  0  0  0  0  0
    7.1962   -6.6900    0.0000 O   0  0  0  0  0  0  0  0  0  0  0  0
    4.5981   -1.1900    0.0000 O   0  0  0  0  0  0  0  0  0  0  0  0
   13.2583    0.8100    0.0000 O   0  0  0  0  0  0  0  0  0  0  0  0
    5.4641   -9.6900    0.0000 O   0  0  0  0  0  0  0  0  0  0  0  0
    2.0000  -11.6900    0.0000 O   0  0  0  0  0  0  0  0  0  0  0  0
    8.9282    0.3100    0.0000 N   0  0  0  0  0  0  0  0  0  0  0  0
    8.0622   -2.1900    0.0000 N   0  0  0  0  0  0  0  0  0  0  0  0
    6.3301   -4.1900    0.0000 N   0  0  0  0  0  0  0  0  0  0  0  0
    5.4641    6.3100    0.0000 C   0  0  0  0  0  0  0  0  0  0  0  0
    5.4641    5.3100    0.0000 C   0  0  0  0  0  0  0  0  0  0  0  0
    4.5981    6.8100    0.0000 C   0  0  0  0  0  0  0  0  0  0  0  0
    6.3301    4.8100    0.0000 C   0  0  0  0  0  0  0  0  0  0  0  0
    4.5981    7.8100    0.0000 C   0  0  0  0  0  0  0  0  0  0  0  0
    6.3301    3.8100    0.0000 C   0  0  0  0  0  0  0  0  0  0  0  0
    3.7320    8.3100    0.0000 C   0  0  0  0  0  0  0  0  0  0  0  0
    7.1962    3.3100    0.0000 C   0  0  0  0  0  0  0  0  0  0  0  0
    3.7320    9.3100    0.0000 C   0  0  0  0  0  0  0  0  0  0  0  0
    2.8660    9.8100    0.0000 C   0  0  0  0  0  0  0  0  0  0  0  0
    7.1962    2.3100    0.0000 C   0  0  0  0  0  0  0  0  0  0  0  0
    2.8660   10.8100    0.0000 C   0  0  0  0  0  0  0  0  0  0  0  0
    8.0622    1.8100    0.0000 C   0  0  0  0  0  0  0  0  0  0  0  0
    8.9282   -0.6900    0.0000 C   0  0  2  0  0  0  0  0  0  0  0  0
    2.0000   11.3100    0.0000 C   0  0  0  0  0  0  0  0  0  0  0  0
    8.0622    0.8100    0.0000 C   0  0  0  0  0  0  0  0  0  0  0  0
    7.1962   -2.6900    0.0000 C   0  0  1  0  0  0  0  0  0  0  0  0
    9.7942   -1.1900    0.0000 C   0  0  0  0  0  0  0  0  0  0  0  0
    8.0622   -1.1900    0.0000 C   0  0  0  0  0  0  0  0  0  0  0  0
    6.3301   -2.1900    0.0000 C   0  0  0  0  0  0  0  0  0  0  0  0
    2.0000   12.3100    0.0000 C   0  0  0  0  0  0  0  0  0  0  0  0
    7.1962   -3.6900    0.0000 C   0  0  0  0  0  0  0  0  0  0  0  0
   10.6603   -0.6900    0.0000 C   0  0  0  0  0  0  0  0  0  0  0  0
    6.3301   -5.1900    0.0000 C   0  0  1  0  0  0  0  0  0  0  0  0
    6.3301   -1.1900    0.0000 C   0  0  0  0  0  0  0  0  0  0  0  0
    5.4641   -5.6900    0.0000 C   0  0  0  0  0  0  0  0  0  0  0  0
   10.6603    0.3100    0.0000 C   0  0  0  0  0  0  0  0  0  0  0  0
   11.5263   -1.1900    0.0000 C   0  0  0  0  0  0  0  0  0  0  0  0
    5.4641   -6.6900    0.0000 C   0  0  0  0  0  0  0  0  0  0  0  0
    7.1962   -5.6900    0.0000 C   0  0  0  0  0  0  0  0  0  0  0  0
    5.4641   -0.6900    0.0000 C   0  0  0  0  0  0  0  0  0  0  0  0
   11.5263    0.8100    0.0000 C   0  0  0  0  0  0  0  0  0  0  0  0
   12.3923   -0.6900    0.0000 C   0  0  0  0  0  0  0  0  0  0  0  0
   12.3923    0.3100    0.0000 C   0  0  0  0  0  0  0  0  0  0  0  0
    6.3301   -7.1900    0.0000 C   0  0  0  0  0  0  0  0  0  0  0  0
    4.5981   -7.1900    0.0000 C   0  0  0  0  0  0  0  0  0  0  0  0
    6.3301   -8.1900    0.0000 C   0  0  0  0  0  0  0  0  0  0  0  0
    4.5981   -8.1900    0.0000 C   0  0  0  0  0  0  0  0  0  0  0  0
    5.4641   -8.6900    0.0000 C   0  0  0  0  0  0  0  0  0  0  0  0
    4.5981  -10.1900    0.0000 C   0  0  0  0  0  0  0  0  0  0  0  0
    4.5981  -11.1900    0.0000 C   0  0  0  0  0  0  0  0  0  0  0  0
    3.7320   -9.6900    0.0000 C   0  0  0  0  0  0  0  0  0  0  0  0
    3.7320  -11.6900    0.0000 C   0  0  0  0  0  0  0  0  0  0  0  0
    2.8660  -10.1900    0.0000 C   0  0  0  0  0  0  0  0  0  0  0  0
    2.8660  -11.1900    0.0000 C   0  0  0  0  0  0  0  0  0  0  0  0
    6.0747    6.2023    0.0000 H   0  0  0  0  0  0  0  0  0  0  0  0
    5.6762    6.8926    0.0000 H   0  0  0  0  0  0  0  0  0  0  0  0
    4.8535    5.4177    0.0000 H   0  0  0  0  0  0  0  0  0  0  0  0
    5.2520    4.7274    0.0000 H   0  0  0  0  0  0  0  0  0  0  0  0
    3.9875    6.9177    0.0000 H   0  0  0  0  0  0  0  0  0  0  0  0
    4.3860    6.2274    0.0000 H   0  0  0  0  0  0  0  0  0  0  0  0
    6.9407    4.7023    0.0000 H   0  0  0  0  0  0  0  0  0  0  0  0
    6.5422    5.3926    0.0000 H   0  0  0  0  0  0  0  0  0  0  0  0
    5.2087    7.7023    0.0000 H   0  0  0  0  0  0  0  0  0  0  0  0
    4.8101    8.3926    0.0000 H   0  0  0  0  0  0  0  0  0  0  0  0
    5.7196    3.9177    0.0000 H   0  0  0  0  0  0  0  0  0  0  0  0
    6.1181    3.2274    0.0000 H   0  0  0  0  0  0  0  0  0  0  0  0
    3.1215    8.4177    0.0000 H   0  0  0  0  0  0  0  0  0  0  0  0
    3.5200    7.7274    0.0000 H   0  0  0  0  0  0  0  0  0  0  0  0
    7.8067    3.2023    0.0000 H   0  0  0  0  0  0  0  0  0  0  0  0
    7.4082    3.8926    0.0000 H   0  0  0  0  0  0  0  0  0  0  0  0
    4.3426    9.2023    0.0000 H   0  0  0  0  0  0  0  0  0  0  0  0
    3.9441    9.8926    0.0000 H   0  0  0  0  0  0  0  0  0  0  0  0
    2.2554    9.9177    0.0000 H   0  0  0  0  0  0  0  0  0  0  0  0
    2.6540    9.2274    0.0000 H   0  0  0  0  0  0  0  0  0  0  0  0
    6.5856    2.4177    0.0000 H   0  0  0  0  0  0  0  0  0  0  0  0
    6.9841    1.7274    0.0000 H   0  0  0  0  0  0  0  0  0  0  0  0
    3.4766   10.7023    0.0000 H   0  0  0  0  0  0  0  0  0  0  0  0
    3.0781   11.3926    0.0000 H   0  0  0  0  0  0  0  0  0  0  0  0
    8.6728    1.7023    0.0000 H   0  0  0  0  0  0  0  0  0  0  0  0
    8.2742    2.3926    0.0000 H   0  0  0  0  0  0  0  0  0  0  0  0
    9.4651   -0.3800    0.0000 H   0  0  0  0  0  0  0  0  0  0  0  0
    1.3894   11.4177    0.0000 H   0  0  0  0  0  0  0  0  0  0  0  0
    1.7880   10.7274    0.0000 H   0  0  0  0  0  0  0  0  0  0  0  0
    7.7331   -3.0000    0.0000 H   0  0  0  0  0  0  0  0  0  0  0  0
    9.4651    0.6200    0.0000 H   0  0  0  0  0  0  0  0  0  0  0  0
    9.3957   -1.6650    0.0000 H   0  0  0  0  0  0  0  0  0  0  0  0
   10.1928   -1.6650    0.0000 H   0  0  0  0  0  0  0  0  0  0  0  0
    5.7196   -2.0823    0.0000 H   0  0  0  0  0  0  0  0  0  0  0  0
    6.1181   -2.7726    0.0000 H   0  0  0  0  0  0  0  0  0  0  0  0
    8.5991   -2.5000    0.0000 H   0  0  0  0  0  0  0  0  0  0  0  0
    2.6200   12.3100    0.0000 H   0  0  0  0  0  0  0  0  0  0  0  0
    2.0000   12.9300    0.0000 H   0  0  0  0  0  0  0  0  0  0  0  0
    1.3800   12.3100    0.0000 H   0  0  0  0  0  0  0  0  0  0  0  0
    6.8671   -4.8800    0.0000 H   0  0  0  0  0  0  0  0  0  0  0  0
    6.9407   -1.2977    0.0000 H   0  0  0  0  0  0  0  0  0  0  0  0
    6.5422   -0.6074    0.0000 H   0  0  0  0  0  0  0  0  0  0  0  0
    5.7932   -3.8800    0.0000 H   0  0  0  0  0  0  0  0  0  0  0  0
    5.2520   -5.1074    0.0000 H   0  0  0  0  0  0  0  0  0  0  0  0
    4.8535   -5.7977    0.0000 H   0  0  0  0  0  0  0  0  0  0  0  0
   10.1233    0.6200    0.0000 H   0  0  0  0  0  0  0  0  0  0  0  0
   11.5263   -1.8100    0.0000 H   0  0  0  0  0  0  0  0  0  0  0  0
   11.5263    1.4300    0.0000 H   0  0  0  0  0  0  0  0  0  0  0  0
   12.9292   -1.0000    0.0000 H   0  0  0  0  0  0  0  0  0  0  0  0
    6.8671   -6.8800    0.0000 H   0  0  0  0  0  0  0  0  0  0  0  0
    4.0611   -6.8800    0.0000 H   0  0  0  0  0  0  0  0  0  0  0  0
    6.8671   -8.5000    0.0000 H   0  0  0  0  0  0  0  0  0  0  0  0
    4.0611   -8.5000    0.0000 H   0  0  0  0  0  0  0  0  0  0  0  0
    8.5991   -5.5000    0.0000 H   0  0  0  0  0  0  0  0  0  0  0  0
    4.9272    0.6200    0.0000 H   0  0  0  0  0  0  0  0  0  0  0  0
   13.7953    0.5000    0.0000 H   0  0  0  0  0  0  0  0  0  0  0  0
    5.1350  -11.5000    0.0000 H   0  0  0  0  0  0  0  0  0  0  0  0
    3.7320   -9.0700    0.0000 H   0  0  0  0  0  0  0  0  0  0  0  0
    3.7320  -12.3100    0.0000 H   0  0  0  0  0  0  0  0  0  0  0  0
    2.3291   -9.8800    0.0000 H   0  0  0  0  0  0  0  0  0  0  0  0
    2.0000  -12.3100    0.0000 H   0  0  0  0  0  0  0  0  0  0  0  0
  1 29  2  0  0  0  0
  2 32  2  0  0  0  0
  3 35  2  0  0  0  0
  4 43  1  0  0  0  0
  4112  1  0  0  0  0
  5 44  1  0  0  0  0
  5113  1  0  0  0  0
  6 43  2  0  0  0  0
  7 44  2  0  0  0  0
  8 47  1  0  0  0  0
  8114  1  0  0  0  0
  9 52  1  0  0  0  0
  9 53  1  0  0  0  0
 10 58  1  0  0  0  0
 10119  1  0  0  0  0
 27 11  1  6  0  0  0
 11 29  1  0  0  0  0
 11 89  1  0  0  0  0
 30 12  1  6  0  0  0
 12 32  1  0  0  0  0
 12 94  1  0  0  0  0
 13 35  1  0  0  0  0
 37 13  1  6  0  0  0
 13101  1  0  0  0  0
 14 15  1  0  0  0  0
 14 16  1  0  0  0  0
 14 59  1  0  0  0  0
 14 60  1  0  0  0  0
 15 17  1  0  0  0  0
 15 61  1  0  0  0  0
 15 62  1  0  0  0  0
 16 18  1  0  0  0  0
 16 63  1  0  0  0  0
 16 64  1  0  0  0  0
 17 19  1  0  0  0  0
 17 65  1  0  0  0  0
 17 66  1  0  0  0  0
 18 20  1  0  0  0  0
 18 67  1  0  0  0  0
 18 68  1  0  0  0  0
 19 21  1  0  0  0  0
 19 69  1  0  0  0  0
 19 70  1  0  0  0  0
 20 22  1  0  0  0  0
 20 71  1  0  0  0  0
 20 72  1  0  0  0  0
 21 24  1  0  0  0  0
 21 73  1  0  0  0  0
 21 74  1  0  0  0  0
 22 23  1  0  0  0  0
 22 75  1  0  0  0  0
 22 76  1  0  0  0  0
 23 25  1  0  0  0  0
 23 77  1  0  0  0  0
 23 78  1  0  0  0  0
 24 26  1  0  0  0  0
 24 79  1  0  0  0  0
 24 80  1  0  0  0  0
 25 28  1  0  0  0  0
 25 81  1  0  0  0  0
 25 82  1  0  0  0  0
 26 29  1  0  0  0  0
 26 83  1  0  0  0  0
 26 84  1  0  0  0  0
 27 31  1  0  0  0  0
 27 32  1  0  0  0  0
 27 85  1  0  0  0  0
 28 34  1  0  0  0  0
 28 86  1  0  0  0  0
 28 87  1  0  0  0  0
 30 33  1  0  0  0  0
 30 35  1  0  0  0  0
 30 88  1  0  0  0  0
 31 36  1  0  0  0  0
 31 90  1  0  0  0  0
 31 91  1  0  0  0  0
 33 38  1  0  0  0  0
 33 92  1  0  0  0  0
 33 93  1  0  0  0  0
 34 95  1  0  0  0  0
 34 96  1  0  0  0  0
 34 97  1  0  0  0  0
 36 40  2  0  0  0  0
 36 41  1  0  0  0  0
 37 39  1  0  0  0  0
 37 43  1  0  0  0  0
 37 98  1  0  0  0  0
 38 44  1  0  0  0  0
 38 99  1  0  0  0  0
 38100  1  0  0  0  0
 39 42  1  0  0  0  0
 39102  1  0  0  0  0
 39103  1  0  0  0  0
 40 45  1  0  0  0  0
 40104  1  0  0  0  0
 41 46  2  0  0  0  0
 41105  1  0  0  0  0
 42 48  2  0  0  0  0
 42 49  1  0  0  0  0
 45 47  2  0  0  0  0
 45106  1  0  0  0  0
 46 47  1  0  0  0  0
 46107  1  0  0  0  0
 48 50  1  0  0  0  0
 48108  1  0  0  0  0
 49 51  2  0  0  0  0
 49109  1  0  0  0  0
 50 52  2  0  0  0  0
 50110  1  0  0  0  0
 51 52  1  0  0  0  0
 51111  1  0  0  0  0
 53 54  2  0  0  0  0
 53 55  1  0  0  0  0
 54 56  1  0  0  0  0
 54115  1  0  0  0  0
 55 57  2  0  0  0  0
 55116  1  0  0  0  0
 56 58  2  0  0  0  0
 56117  1  0  0  0  0
 57 58  1  0  0  0  0
 57118  1  0  0  0  0
M  END
> <PUBCHEM_COMPOUND_CID>
513443
> <PUBCHEM_COMPOUND_CANONICALIZED>
1
> <PUBCHEM_CACTVS_COMPLEXITY>
1200
> <PUBCHEM_CACTVS_HBOND_ACCEPTOR>
10
> <PUBCHEM_CACTVS_HBOND_DONOR>
7
> <PUBCHEM_CACTVS_ROTATABLE_BOND>
29
> <PUBCHEM_CACTVS_SUBSKEYS>
AAADcfB/PAAAAAAAAAAAAAAAAAAAAAAAAAAwYMAAAAAAAAABUAAAHgAQCAAADCzBmAQyDoLABgCIAiHSGAACCAAgIAAIiIGOCIgOZjKGsTuWeCCk1hGYuAf836KOIQAAAAAAAABCAAAAAAAAAAAAAAAAAA==
> <PUBCHEM_IUPAC_OPENEYE_NAME>
(4S)-5-[[(1S)-1-carboxy-2-[4-(4-hydroxyphenoxy)phenyl]ethyl]amino]-4-[[(2R)-2-(hexadecanoylamino)-3-(4-hydroxyphenyl)propanoyl]amino]-5-oxo-pentanoic acid
> <PUBCHEM_IUPAC_CAS_NAME>
(4S)-5-[[(1S)-1-carboxy-2-[4-(4-hydroxyphenoxy)phenyl]ethyl]amino]-4-[[(2R)-3-(4-hydroxyphenyl)-1-oxo-2-(1-oxohexadecylamino)propyl]amino]-5-oxopentanoic acid
> <PUBCHEM_IUPAC_NAME_MARKUP>
(4<I>S</I>)-5-[[(1<I>S</I>)-1-carboxy-2-[4-(4-hydroxyphenoxy)phenyl]ethyl]amino]-4-[[(2<I>R</I>)-2-(hexadecanoylamino)-3-(4-hydroxyphenyl)propanoyl]amino]-5-oxopentanoic acid
> <PUBCHEM_IUPAC_NAME>
(4S)-5-[[(1S)-1-carboxy-2-[4-(4-hydroxyphenoxy)phenyl]ethyl]amino]-4-[[(2R)-2-(hexadecanoylamino)-3-(4-hydroxyphenyl)propanoyl]amino]-5-oxopentanoic acid
> <PUBCHEM_IUPAC_SYSTEMATIC_NAME>
(4S)-4-[[(2R)-2-(hexadecanoylamino)-3-(4-hydroxyphenyl)propanoyl]amino]-5-oxidanylidene-5-[[(2S)-1-oxidanyl-1-oxidanylidene-3-[4-(4-oxidanylphenoxy)phenyl]propan-2-yl]amino]pentanoic acid
> <PUBCHEM_IUPAC_TRADITIONAL_NAME>
(4S)-5-[[(1S)-1-carboxy-2-[4-(4-hydroxyphenoxy)phenyl]ethyl]amino]-4-[[(2R)-3-(4-hydroxyphenyl)-2-palmitamido-propanoyl]amino]-5-keto-valeric acid
> <PUBCHEM_IUPAC_INCHI>
InChI=1S/C45H61N3O10/c1-2-3-4-5-6-7-8-9-10-11-12-13-14-15-41(51)46-39(30-32-16-20-34(49)21-17-32)44(55)47-38(28-29-42(52)53)43(54)48-40(45(56)57)31-33-18-24-36(25-19-33)58-37-26-22-35(50)23-27-37/h16-27,38-40,49-50H,2-15,28-31H2,1H3,(H,46,51)(H,47,55)(H,48,54)(H,52,53)(H,56,57)/t38-,39+,40-/m0/s1
> <PUBCHEM_IUPAC_INCHIKEY>
KJUUEWVTDXYDBR-UHULTCERSA-N
> <PUBCHEM_XLOGP3>
9.4
> <PUBCHEM_EXACT_MASS>
803.43569515
> <PUBCHEM_MOLECULAR_FORMULA>
C45H61N3O10
> <PUBCHEM_MOLECULAR_WEIGHT>
804.0
> <PUBCHEM_OPENEYE_CAN_SMILES>
CCCCCCCCCCCCCCCC(=O)NC(CC1=CC=C(C=C1)O)C(=O)NC(CCC(=O)O)C(=O)NC(CC2=CC=C(C=C2)OC3=CC=C(C=C3)O)C(=O)O
> <PUBCHEM_OPENEYE_ISO_SMILES>
CCCCCCCCCCCCCCCC(=O)N[C@H](CC1=CC=C(C=C1)O)C(=O)N[C@@H](CCC(=O)O)C(=O)N[C@@H](CC2=CC=C(C=C2)OC3=CC=C(C=C3)O)C(=O)O
> <PUBCHEM_CACTVS_TPSA>
212
> <PUBCHEM_MONOISOTOPIC_WEIGHT>
803.43569515
> <PUBCHEM_TOTAL_CHARGE>
0
> <PUBCHEM_HEAVY_ATOM_COUNT>
58
> <PUBCHEM_ATOM_DEF_STEREO_COUNT>
3
> <PUBCHEM_ATOM_UDEF_STEREO_COUNT>
0
> <PUBCHEM_BOND_DEF_STEREO_COUNT>
0
> <PUBCHEM_BOND_UDEF_STEREO_COUNT>
0
> <PUBCHEM_ISOTOPIC_ATOM_COUNT>
0
> <PUBCHEM_COMPONENT_COUNT>
1
> <PUBCHEM_CACTVS_TAUTO_COUNT>
-1
> <PUBCHEM_COORDINATE_TYPE>
1
5
255
> <PUBCHEM_BONDANNOTATIONS>
27  11  6
30  12  6
37  13  6
36  40  8
36  41  8
40  45  8
41  46  8
42  48  8
42  49  8
45  47  8
46  47  8
48  50  8
49  51  8
50  52  8
51  52  8
53  54  8
53  55  8
54  56  8
55  57  8
56  58  8
57  58  8
$$$$
