513446
  -OEChem-10302200282D
133135  0     1  0  0  0  0  0999 V2000
   10.6603    2.3100    0.0000 O   0  0  0  0  0  0  0  0  0  0  0  0
    9.7942    2.8100    0.0000 O   0  0  0  0  0  0  0  0  0  0  0  0
    8.9282   -0.6900    0.0000 O   0  0  0  0  0  0  0  0  0  0  0  0
    8.9282   -1.6900    0.0000 O   0  0  0  0  0  0  0  0  0  0  0  0
    9.7942   -5.1900    0.0000 O   0  0  0  0  0  0  0  0  0  0  0  0
    7.1962   -0.6900    0.0000 O   0  0  0  0  0  0  0  0  0  0  0  0
    9.7942   -6.1900    0.0000 O   0  0  0  0  0  0  0  0  0  0  0  0
    6.3301   -2.1900    0.0000 O   0  0  0  0  0  0  0  0  0  0  0  0
    8.9282   -7.6900    0.0000 O   0  0  0  0  0  0  0  0  0  0  0  0
   14.9904   -0.1900    0.0000 O   0  0  0  0  0  0  0  0  0  0  0  0
    7.1962  -10.6900    0.0000 O   0  0  0  0  0  0  0  0  0  0  0  0
    3.7320  -12.6900    0.0000 O   0  0  0  0  0  0  0  0  0  0  0  0
    8.9282    1.3100    0.0000 N   0  0  0  0  0  0  0  0  0  0  0  0
   10.6603   -0.6900    0.0000 N   0  0  0  0  0  0  0  0  0  0  0  0
    9.7942   -3.1900    0.0000 N   0  0  0  0  0  0  0  0  0  0  0  0
    8.0622   -5.1900    0.0000 N   0  0  0  0  0  0  0  0  0  0  0  0
    5.4641    7.3100    0.0000 C   0  0  0  0  0  0  0  0  0  0  0  0
    6.3301    6.8100    0.0000 C   0  0  0  0  0  0  0  0  0  0  0  0
    5.4641    8.3100    0.0000 C   0  0  0  0  0  0  0  0  0  0  0  0
    6.3301    5.8100    0.0000 C   0  0  0  0  0  0  0  0  0  0  0  0
    4.5981    8.8100    0.0000 C   0  0  0  0  0  0  0  0  0  0  0  0
    7.1962    5.3100    0.0000 C   0  0  0  0  0  0  0  0  0  0  0  0
    4.5981    9.8100    0.0000 C   0  0  0  0  0  0  0  0  0  0  0  0
    7.1962    4.3100    0.0000 C   0  0  0  0  0  0  0  0  0  0  0  0
    3.7320   10.3100    0.0000 C   0  0  0  0  0  0  0  0  0  0  0  0
    3.7320   11.3100    0.0000 C   0  0  0  0  0  0  0  0  0  0  0  0
    8.0622    3.8100    0.0000 C   0  0  0  0  0  0  0  0  0  0  0  0
    2.8660   11.8100    0.0000 C   0  0  0  0  0  0  0  0  0  0  0  0
    8.0622    2.8100    0.0000 C   0  0  0  0  0  0  0  0  0  0  0  0
    9.7942    0.8100    0.0000 C   0  0  1  0  0  0  0  0  0  0  0  0
    2.8660   12.8100    0.0000 C   0  0  0  0  0  0  0  0  0  0  0  0
   10.6603   -1.6900    0.0000 C   0  0  1  0  0  0  0  0  0  0  0  0
    8.9282    2.3100    0.0000 C   0  0  0  0  0  0  0  0  0  0  0  0
   10.6603    1.3100    0.0000 C   0  0  1  0  0  0  0  0  0  0  0  0
    8.9282   -3.6900    0.0000 C   0  0  1  0  0  0  0  0  0  0  0  0
    9.7942   -0.1900    0.0000 C   0  0  0  0  0  0  0  0  0  0  0  0
   11.5263   -2.1900    0.0000 C   0  0  0  0  0  0  0  0  0  0  0  0
    9.7942   -2.1900    0.0000 C   0  0  0  0  0  0  0  0  0  0  0  0
    8.0622   -3.1900    0.0000 C   0  0  0  0  0  0  0  0  0  0  0  0
    2.0000   13.3100    0.0000 C   0  0  0  0  0  0  0  0  0  0  0  0
   11.5263    0.8100    0.0000 C   0  0  0  0  0  0  0  0  0  0  0  0
   12.3923   -1.6900    0.0000 C   0  0  0  0  0  0  0  0  0  0  0  0
    8.9282   -4.6900    0.0000 C   0  0  0  0  0  0  0  0  0  0  0  0
    8.0622   -2.1900    0.0000 C   0  0  0  0  0  0  0  0  0  0  0  0
    8.0622   -6.1900    0.0000 C   0  0  1  0  0  0  0  0  0  0  0  0
    7.1962   -6.6900    0.0000 C   0  0  0  0  0  0  0  0  0  0  0  0
   12.3923   -0.6900    0.0000 C   0  0  0  0  0  0  0  0  0  0  0  0
   13.2583   -2.1900    0.0000 C   0  0  0  0  0  0  0  0  0  0  0  0
    7.1962   -7.6900    0.0000 C   0  0  0  0  0  0  0  0  0  0  0  0
    7.1962   -1.6900    0.0000 C   0  0  0  0  0  0  0  0  0  0  0  0
    8.9282   -6.6900    0.0000 C   0  0  0  0  0  0  0  0  0  0  0  0
   13.2583   -0.1900    0.0000 C   0  0  0  0  0  0  0  0  0  0  0  0
   14.1244   -1.6900    0.0000 C   0  0  0  0  0  0  0  0  0  0  0  0
   14.1244   -0.6900    0.0000 C   0  0  0  0  0  0  0  0  0  0  0  0
    8.0622   -8.1900    0.0000 C   0  0  0  0  0  0  0  0  0  0  0  0
    6.3301   -8.1900    0.0000 C   0  0  0  0  0  0  0  0  0  0  0  0
    8.0622   -9.1900    0.0000 C   0  0  0  0  0  0  0  0  0  0  0  0
    6.3301   -9.1900    0.0000 C   0  0  0  0  0  0  0  0  0  0  0  0
    7.1962   -9.6900    0.0000 C   0  0  0  0  0  0  0  0  0  0  0  0
    6.3301  -11.1900    0.0000 C   0  0  0  0  0  0  0  0  0  0  0  0
    5.4641  -10.6900    0.0000 C   0  0  0  0  0  0  0  0  0  0  0  0
    6.3301  -12.1900    0.0000 C   0  0  0  0  0  0  0  0  0  0  0  0
    4.5981  -11.1900    0.0000 C   0  0  0  0  0  0  0  0  0  0  0  0
    5.4641  -12.6900    0.0000 C   0  0  0  0  0  0  0  0  0  0  0  0
    4.5981  -12.1900    0.0000 C   0  0  0  0  0  0  0  0  0  0  0  0
    4.8535    7.4177    0.0000 H   0  0  0  0  0  0  0  0  0  0  0  0
    5.2520    6.7274    0.0000 H   0  0  0  0  0  0  0  0  0  0  0  0
    6.9407    6.7023    0.0000 H   0  0  0  0  0  0  0  0  0  0  0  0
    6.5422    7.3926    0.0000 H   0  0  0  0  0  0  0  0  0  0  0  0
    6.0747    8.2023    0.0000 H   0  0  0  0  0  0  0  0  0  0  0  0
    5.6762    8.8926    0.0000 H   0  0  0  0  0  0  0  0  0  0  0  0
    5.7196    5.9177    0.0000 H   0  0  0  0  0  0  0  0  0  0  0  0
    6.1181    5.2274    0.0000 H   0  0  0  0  0  0  0  0  0  0  0  0
    3.9875    8.9177    0.0000 H   0  0  0  0  0  0  0  0  0  0  0  0
    4.3860    8.2274    0.0000 H   0  0  0  0  0  0  0  0  0  0  0  0
    7.8067    5.2023    0.0000 H   0  0  0  0  0  0  0  0  0  0  0  0
    7.4082    5.8926    0.0000 H   0  0  0  0  0  0  0  0  0  0  0  0
    5.2087    9.7023    0.0000 H   0  0  0  0  0  0  0  0  0  0  0  0
    4.8101   10.3926    0.0000 H   0  0  0  0  0  0  0  0  0  0  0  0
    6.5856    4.4177    0.0000 H   0  0  0  0  0  0  0  0  0  0  0  0
    6.9841    3.7274    0.0000 H   0  0  0  0  0  0  0  0  0  0  0  0
    3.1215   10.4177    0.0000 H   0  0  0  0  0  0  0  0  0  0  0  0
    3.5200    9.7274    0.0000 H   0  0  0  0  0  0  0  0  0  0  0  0
    4.3426   11.2023    0.0000 H   0  0  0  0  0  0  0  0  0  0  0  0
    3.9441   11.8926    0.0000 H   0  0  0  0  0  0  0  0  0  0  0  0
    8.6728    3.7023    0.0000 H   0  0  0  0  0  0  0  0  0  0  0  0
    8.2742    4.3926    0.0000 H   0  0  0  0  0  0  0  0  0  0  0  0
    2.2554   11.9177    0.0000 H   0  0  0  0  0  0  0  0  0  0  0  0
    2.6540   11.2274    0.0000 H   0  0  0  0  0  0  0  0  0  0  0  0
    7.4516    2.9177    0.0000 H   0  0  0  0  0  0  0  0  0  0  0  0
    7.8501    2.2274    0.0000 H   0  0  0  0  0  0  0  0  0  0  0  0
    9.2573    0.5000    0.0000 H   0  0  0  0  0  0  0  0  0  0  0  0
   11.1972   -1.3800    0.0000 H   0  0  0  0  0  0  0  0  0  0  0  0
    3.4766   12.7023    0.0000 H   0  0  0  0  0  0  0  0  0  0  0  0
    3.0781   13.3926    0.0000 H   0  0  0  0  0  0  0  0  0  0  0  0
    8.3913    1.0000    0.0000 H   0  0  0  0  0  0  0  0  0  0  0  0
   11.1972    1.6200    0.0000 H   0  0  0  0  0  0  0  0  0  0  0  0
    9.4651   -4.0000    0.0000 H   0  0  0  0  0  0  0  0  0  0  0  0
   11.1278   -2.6650    0.0000 H   0  0  0  0  0  0  0  0  0  0  0  0
   11.9248   -2.6650    0.0000 H   0  0  0  0  0  0  0  0  0  0  0  0
   11.1972   -0.3800    0.0000 H   0  0  0  0  0  0  0  0  0  0  0  0
    7.4516   -3.0823    0.0000 H   0  0  0  0  0  0  0  0  0  0  0  0
    7.8501   -3.7726    0.0000 H   0  0  0  0  0  0  0  0  0  0  0  0
   10.3312   -3.5000    0.0000 H   0  0  0  0  0  0  0  0  0  0  0  0
    2.3100   13.8469    0.0000 H   0  0  0  0  0  0  0  0  0  0  0  0
    1.4631   13.6200    0.0000 H   0  0  0  0  0  0  0  0  0  0  0  0
    1.6900   12.7731    0.0000 H   0  0  0  0  0  0  0  0  0  0  0  0
   11.2163    0.2731    0.0000 H   0  0  0  0  0  0  0  0  0  0  0  0
   12.0632    0.5000    0.0000 H   0  0  0  0  0  0  0  0  0  0  0  0
   11.8363    1.3469    0.0000 H   0  0  0  0  0  0  0  0  0  0  0  0
    8.6728   -2.2977    0.0000 H   0  0  0  0  0  0  0  0  0  0  0  0
    8.2742   -1.6074    0.0000 H   0  0  0  0  0  0  0  0  0  0  0  0
    7.5252   -5.8800    0.0000 H   0  0  0  0  0  0  0  0  0  0  0  0
    7.5252   -4.8800    0.0000 H   0  0  0  0  0  0  0  0  0  0  0  0
    6.9841   -6.1074    0.0000 H   0  0  0  0  0  0  0  0  0  0  0  0
    6.5856   -6.7977    0.0000 H   0  0  0  0  0  0  0  0  0  0  0  0
   11.1972    2.6200    0.0000 H   0  0  0  0  0  0  0  0  0  0  0  0
   11.8554   -0.3800    0.0000 H   0  0  0  0  0  0  0  0  0  0  0  0
   13.2583   -2.8100    0.0000 H   0  0  0  0  0  0  0  0  0  0  0  0
   13.2583    0.4300    0.0000 H   0  0  0  0  0  0  0  0  0  0  0  0
   14.6613   -2.0000    0.0000 H   0  0  0  0  0  0  0  0  0  0  0  0
    8.5991   -7.8800    0.0000 H   0  0  0  0  0  0  0  0  0  0  0  0
    5.7932   -7.8800    0.0000 H   0  0  0  0  0  0  0  0  0  0  0  0
    8.5991   -9.5000    0.0000 H   0  0  0  0  0  0  0  0  0  0  0  0
    5.7932   -9.5000    0.0000 H   0  0  0  0  0  0  0  0  0  0  0  0
    6.6592   -0.3800    0.0000 H   0  0  0  0  0  0  0  0  0  0  0  0
   10.3312   -6.5000    0.0000 H   0  0  0  0  0  0  0  0  0  0  0  0
   15.5273   -0.5000    0.0000 H   0  0  0  0  0  0  0  0  0  0  0  0
    5.4641  -10.0700    0.0000 H   0  0  0  0  0  0  0  0  0  0  0  0
    6.8671  -12.5000    0.0000 H   0  0  0  0  0  0  0  0  0  0  0  0
    4.0611  -10.8800    0.0000 H   0  0  0  0  0  0  0  0  0  0  0  0
    5.4641  -13.3100    0.0000 H   0  0  0  0  0  0  0  0  0  0  0  0
    3.7320  -13.3100    0.0000 H   0  0  0  0  0  0  0  0  0  0  0  0
 34  1  1  6  0  0  0
  1117  1  0  0  0  0
  2 33  2  0  0  0  0
  3 36  2  0  0  0  0
  4 38  2  0  0  0  0
  5 43  2  0  0  0  0
  6 50  1  0  0  0  0
  6126  1  0  0  0  0
  7 51  1  0  0  0  0
  7127  1  0  0  0  0
  8 50  2  0  0  0  0
  9 51  2  0  0  0  0
 10 54  1  0  0  0  0
 10128  1  0  0  0  0
 11 59  1  0  0  0  0
 11 60  1  0  0  0  0
 12 65  1  0  0  0  0
 12133  1  0  0  0  0
 30 13  1  1  0  0  0
 13 33  1  0  0  0  0
 13 96  1  0  0  0  0
 32 14  1  1  0  0  0
 14 36  1  0  0  0  0
 14101  1  0  0  0  0
 35 15  1  6  0  0  0
 15 38  1  0  0  0  0
 15104  1  0  0  0  0
 16 43  1  0  0  0  0
 45 16  1  6  0  0  0
 16114  1  0  0  0  0
 17 18  1  0  0  0  0
 17 19  1  0  0  0  0
 17 66  1  0  0  0  0
 17 67  1  0  0  0  0
 18 20  1  0  0  0  0
 18 68  1  0  0  0  0
 18 69  1  0  0  0  0
 19 21  1  0  0  0  0
 19 70  1  0  0  0  0
 19 71  1  0  0  0  0
 20 22  1  0  0  0  0
 20 72  1  0  0  0  0
 20 73  1  0  0  0  0
 21 23  1  0  0  0  0
 21 74  1  0  0  0  0
 21 75  1  0  0  0  0
 22 24  1  0  0  0  0
 22 76  1  0  0  0  0
 22 77  1  0  0  0  0
 23 25  1  0  0  0  0
 23 78  1  0  0  0  0
 23 79  1  0  0  0  0
 24 27  1  0  0  0  0
 24 80  1  0  0  0  0
 24 81  1  0  0  0  0
 25 26  1  0  0  0  0
 25 82  1  0  0  0  0
 25 83  1  0  0  0  0
 26 28  1  0  0  0  0
 26 84  1  0  0  0  0
 26 85  1  0  0  0  0
 27 29  1  0  0  0  0
 27 86  1  0  0  0  0
 27 87  1  0  0  0  0
 28 31  1  0  0  0  0
 28 88  1  0  0  0  0
 28 89  1  0  0  0  0
 29 33  1  0  0  0  0
 29 90  1  0  0  0  0
 29 91  1  0  0  0  0
 30 34  1  0  0  0  0
 30 36  1  0  0  0  0
 30 92  1  0  0  0  0
 31 40  1  0  0  0  0
 31 94  1  0  0  0  0
 31 95  1  0  0  0  0
 32 37  1  0  0  0  0
 32 38  1  0  0  0  0
 32 93  1  0  0  0  0
 34 41  1  0  0  0  0
 34 97  1  0  0  0  0
 35 39  1  0  0  0  0
 35 43  1  0  0  0  0
 35 98  1  0  0  0  0
 37 42  1  0  0  0  0
 37 99  1  0  0  0  0
 37100  1  0  0  0  0
 39 44  1  0  0  0  0
 39102  1  0  0  0  0
 39103  1  0  0  0  0
 40105  1  0  0  0  0
 40106  1  0  0  0  0
 40107  1  0  0  0  0
 41108  1  0  0  0  0
 41109  1  0  0  0  0
 41110  1  0  0  0  0
 42 47  2  0  0  0  0
 42 48  1  0  0  0  0
 44 50  1  0  0  0  0
 44111  1  0  0  0  0
 44112  1  0  0  0  0
 45 46  1  0  0  0  0
 45 51  1  0  0  0  0
 45113  1  0  0  0  0
 46 49  1  0  0  0  0
 46115  1  0  0  0  0
 46116  1  0  0  0  0
 47 52  1  0  0  0  0
 47118  1  0  0  0  0
 48 53  2  0  0  0  0
 48119  1  0  0  0  0
 49 55  2  0  0  0  0
 49 56  1  0  0  0  0
 52 54  2  0  0  0  0
 52120  1  0  0  0  0
 53 54  1  0  0  0  0
 53121  1  0  0  0  0
 55 57  1  0  0  0  0
 55122  1  0  0  0  0
 56 58  2  0  0  0  0
 56123  1  0  0  0  0
 57 59  2  0  0  0  0
 57124  1  0  0  0  0
 58 59  1  0  0  0  0
 58125  1  0  0  0  0
 60 61  2  0  0  0  0
 60 62  1  0  0  0  0
 61 63  1  0  0  0  0
 61129  1  0  0  0  0
 62 64  2  0  0  0  0
 62130  1  0  0  0  0
 63 65  2  0  0  0  0
 63131  1  0  0  0  0
 64 65  1  0  0  0  0
 64132  1  0  0  0  0
M  END
> <PUBCHEM_COMPOUND_CID>
513446
> <PUBCHEM_COMPOUND_CANONICALIZED>
1
> <PUBCHEM_CACTVS_COMPLEXITY>
1410
> <PUBCHEM_CACTVS_HBOND_ACCEPTOR>
12
> <PUBCHEM_CACTVS_HBOND_DONOR>
9
> <PUBCHEM_CACTVS_ROTATABLE_BOND>
32
> <PUBCHEM_CACTVS_SUBSKEYS>
AAADcfB/vAAAAAAAAAAAAAAAAAAAAAAAAAAwYMAAAAAAAAABUAAAHgAQCAAADDzhmAYyDoLABgCIAiHSGAACCAAgIAAIiIGOCIgOdjaGsTuWeCCm9hGYuAf836KOIQAAAAAAAABCAAAAAAAAAAAAAAAAAA==
> <PUBCHEM_IUPAC_OPENEYE_NAME>
(4S)-5-[[(1S)-1-carboxy-2-[4-(4-hydroxyphenoxy)phenyl]ethyl]amino]-4-[[(2S)-2-[[(2S,3R)-2-(hexadecanoylamino)-3-hydroxy-butanoyl]amino]-3-(4-hydroxyphenyl)propanoyl]amino]-5-oxo-pentanoic acid
> <PUBCHEM_IUPAC_CAS_NAME>
(4S)-5-[[(1S)-1-carboxy-2-[4-(4-hydroxyphenoxy)phenyl]ethyl]amino]-4-[[(2S)-2-[[(2S,3R)-3-hydroxy-1-oxo-2-(1-oxohexadecylamino)butyl]amino]-3-(4-hydroxyphenyl)-1-oxopropyl]amino]-5-oxopentanoic acid
> <PUBCHEM_IUPAC_NAME_MARKUP>
(4<I>S</I>)-5-[[(1<I>S</I>)-1-carboxy-2-[4-(4-hydroxyphenoxy)phenyl]ethyl]amino]-4-[[(2<I>S</I>)-2-[[(2<I>S</I>,3<I>R</I>)-2-(hexadecanoylamino)-3-hydroxybutanoyl]amino]-3-(4-hydroxyphenyl)propanoyl]amino]-5-oxopentanoic acid
> <PUBCHEM_IUPAC_NAME>
(4S)-5-[[(1S)-1-carboxy-2-[4-(4-hydroxyphenoxy)phenyl]ethyl]amino]-4-[[(2S)-2-[[(2S,3R)-2-(hexadecanoylamino)-3-hydroxybutanoyl]amino]-3-(4-hydroxyphenyl)propanoyl]amino]-5-oxopentanoic acid
> <PUBCHEM_IUPAC_SYSTEMATIC_NAME>
(4S)-4-[[(2S)-2-[[(2S,3R)-2-(hexadecanoylamino)-3-oxidanyl-butanoyl]amino]-3-(4-hydroxyphenyl)propanoyl]amino]-5-oxidanylidene-5-[[(2S)-1-oxidanyl-1-oxidanylidene-3-[4-(4-oxidanylphenoxy)phenyl]propan-2-yl]amino]pentanoic acid
> <PUBCHEM_IUPAC_TRADITIONAL_NAME>
(4S)-5-[[(1S)-1-carboxy-2-[4-(4-hydroxyphenoxy)phenyl]ethyl]amino]-4-[[(2S)-2-[[(2S,3R)-3-hydroxy-2-palmitamido-butanoyl]amino]-3-(4-hydroxyphenyl)propanoyl]amino]-5-keto-valeric acid
> <PUBCHEM_IUPAC_INCHI>
InChI=1S/C49H68N4O12/c1-3-4-5-6-7-8-9-10-11-12-13-14-15-16-43(57)53-45(33(2)54)48(62)51-41(31-34-17-21-36(55)22-18-34)47(61)50-40(29-30-44(58)59)46(60)52-42(49(63)64)32-35-19-25-38(26-20-35)65-39-27-23-37(56)24-28-39/h17-28,33,40-42,45,54-56H,3-16,29-32H2,1-2H3,(H,50,61)(H,51,62)(H,52,60)(H,53,57)(H,58,59)(H,63,64)/t33-,40+,41+,42+,45+/m1/s1
> <PUBCHEM_IUPAC_INCHIKEY>
DKZIKGYPDRONQD-YPCPIWAVSA-N
> <PUBCHEM_XLOGP3_AA>
9
> <PUBCHEM_EXACT_MASS>
904.48337362
> <PUBCHEM_MOLECULAR_FORMULA>
C49H68N4O12
> <PUBCHEM_MOLECULAR_WEIGHT>
905.1
> <PUBCHEM_OPENEYE_CAN_SMILES>
CCCCCCCCCCCCCCCC(=O)NC(C(C)O)C(=O)NC(CC1=CC=C(C=C1)O)C(=O)NC(CCC(=O)O)C(=O)NC(CC2=CC=C(C=C2)OC3=CC=C(C=C3)O)C(=O)O
> <PUBCHEM_OPENEYE_ISO_SMILES>
CCCCCCCCCCCCCCCC(=O)N[C@@H]([C@@H](C)O)C(=O)N[C@@H](CC1=CC=C(C=C1)O)C(=O)N[C@@H](CCC(=O)O)C(=O)N[C@@H](CC2=CC=C(C=C2)OC3=CC=C(C=C3)O)C(=O)O
> <PUBCHEM_CACTVS_TPSA>
261
> <PUBCHEM_MONOISOTOPIC_WEIGHT>
904.48337362
> <PUBCHEM_TOTAL_CHARGE>
0
> <PUBCHEM_HEAVY_ATOM_COUNT>
65
> <PUBCHEM_ATOM_DEF_STEREO_COUNT>
5
> <PUBCHEM_ATOM_UDEF_STEREO_COUNT>
0
> <PUBCHEM_BOND_DEF_STEREO_COUNT>
0
> <PUBCHEM_BOND_UDEF_STEREO_COUNT>
0
> <PUBCHEM_ISOTOPIC_ATOM_COUNT>
0
> <PUBCHEM_COMPONENT_COUNT>
1
> <PUBCHEM_CACTVS_TAUTO_COUNT>
-1
> <PUBCHEM_COORDINATE_TYPE>
1
5
255
> <PUBCHEM_BONDANNOTATIONS>
34  1  6
30  13  5
32  14  5
35  15  6
45  16  6
42  47  8
42  48  8
47  52  8
48  53  8
49  55  8
49  56  8
52  54  8
53  54  8
55  57  8
56  58  8
57  59  8
58  59  8
60  61  8
60  62  8
61  63  8
62  64  8
63  65  8
64  65  8
$$$$
