513440
  -OEChem-10302200282D
113119  0     1  0  0  0  0  0999 V2000
    5.0228  -11.3009    0.0000 O   0  0  0  0  0  0  0  0  0  0  0  0
    8.8603   -8.9739    0.0000 O   0  0  0  0  0  0  0  0  0  0  0  0
    8.4045  -10.9709    0.0000 O   0  0  0  0  0  0  0  0  0  0  0  0
    9.5166   -6.0466    0.0000 O   0  0  0  0  0  0  0  0  0  0  0  0
    9.8844   -2.8052    0.0000 O   0  0  0  0  0  0  0  0  0  0  0  0
    8.2767    0.0333    0.0000 O   0  0  0  0  0  0  0  0  0  0  0  0
    5.8398    4.2811    0.0000 O   0  0  0  0  0  0  0  0  0  0  0  0
    4.2321    7.1196    0.0000 O   0  0  0  0  0  0  0  0  0  0  0  0
    4.1219   -9.8670    0.0000 N   0  0  0  0  0  0  0  0  0  0  0  0
    5.5229   -8.1103    0.0000 N   0  0  0  0  0  0  0  0  0  0  0  0
   11.2067   -6.4255    0.0000 N   0  0  0  0  0  0  0  0  0  0  0  0
   12.2500   -4.0576    0.0000 N   0  0  0  0  0  0  0  0  0  0  0  0
   10.9266    0.4106    0.0000 N   0  0  0  0  0  0  0  0  0  0  0  0
    6.7200    2.3871    0.0000 N   0  0  0  0  0  0  0  0  0  0  0  0
   11.4744   -2.1184    0.0000 N   0  0  0  0  0  0  0  0  0  0  0  0
    9.1593    1.5236    0.0000 N   0  0  0  0  0  0  0  0  0  0  0  0
    6.8820    7.4970    0.0000 N   0  0  0  0  0  0  0  0  0  0  0  0
    7.4298    4.9680    0.0000 N   0  0  0  0  0  0  0  0  0  0  0  0
    5.1147    8.6099    0.0000 N   0  0  0  0  0  0  0  0  0  0  0  0
    3.4161   11.6290    0.0000 N   0  0  0  0  0  0  0  0  0  0  0  0
    2.5335   10.1387    0.0000 N   0  0  0  0  0  0  0  0  0  0  0  0
    3.8994   -8.8921    0.0000 C   0  0  1  0  0  0  0  0  0  0  0  0
    2.9091   -8.8056    0.0000 C   0  0  0  0  0  0  0  0  0  0  0  0
    2.5192   -9.7200    0.0000 C   0  0  0  0  0  0  0  0  0  0  0  0
    3.2672  -10.3747    0.0000 C   0  0  0  0  0  0  0  0  0  0  0  0
    4.5229   -8.1103    0.0000 C   0  0  0  0  0  0  0  0  0  0  0  0
    5.0228  -10.3009    0.0000 C   0  0  0  0  0  0  0  0  0  0  0  0
    5.9238   -9.8670    0.0000 C   0  0  0  0  0  0  0  0  0  0  0  0
    6.1464   -8.8921    0.0000 C   0  0  0  0  0  0  0  0  0  0  0  0
    6.6764  -10.5872    0.0000 C   0  0  0  0  0  0  0  0  0  0  0  0
    7.1369   -8.5698    0.0000 C   0  0  0  0  0  0  0  0  0  0  0  0
    7.6741  -10.2879    0.0000 C   0  0  0  0  0  0  0  0  0  0  0  0
    7.9059   -9.2724    0.0000 C   0  0  0  0  0  0  0  0  0  0  0  0
    9.0791   -7.9982    0.0000 C   0  0  0  0  0  0  0  0  0  0  0  0
    8.1782  -11.9449    0.0000 C   0  0  0  0  0  0  0  0  0  0  0  0
   10.0335   -7.6997    0.0000 C   0  0  0  0  0  0  0  0  0  0  0  0
   10.2523   -6.7240    0.0000 C   0  0  0  0  0  0  0  0  0  0  0  0
   11.4255   -5.4498    0.0000 C   0  0  0  0  0  0  0  0  0  0  0  0
   11.2742   -3.8388    0.0000 C   0  0  0  0  0  0  0  0  0  0  0  0
   10.7646   -4.6992    0.0000 C   0  0  0  0  0  0  0  0  0  0  0  0
   12.3435   -5.0532    0.0000 C   0  0  0  0  0  0  0  0  0  0  0  0
   10.0086    0.0140    0.0000 C   0  0  0  0  0  0  0  0  0  0  0  0
   11.0778   -1.2004    0.0000 C   0  0  0  0  0  0  0  0  0  0  0  0
    7.2296    3.2476    0.0000 C   0  0  0  0  0  0  0  0  0  0  0  0
    8.2989    2.0332    0.0000 C   0  0  0  0  0  0  0  0  0  0  0  0
   10.8777   -2.9208    0.0000 C   0  0  0  0  0  0  0  0  0  0  0  0
   10.1021   -0.9816    0.0000 C   0  0  0  0  0  0  0  0  0  0  0  0
   11.5874   -0.3399    0.0000 C   0  0  0  0  0  0  0  0  0  0  0  0
    8.2054    3.0288    0.0000 C   0  0  0  0  0  0  0  0  0  0  0  0
    7.3809    1.6366    0.0000 C   0  0  0  0  0  0  0  0  0  0  0  0
    7.0332    5.8860    0.0000 C   0  0  0  0  0  0  0  0  0  0  0  0
    9.1482    0.5236    0.0000 C   0  0  0  0  0  0  0  0  0  0  0  0
    5.9640    7.1004    0.0000 C   0  0  0  0  0  0  0  0  0  0  0  0
   13.0005   -3.3967    0.0000 C   0  0  0  0  0  0  0  0  0  0  0  0
    6.8331    4.1656    0.0000 C   0  0  0  0  0  0  0  0  0  0  0  0
    6.0575    6.1048    0.0000 C   0  0  0  0  0  0  0  0  0  0  0  0
    7.5428    6.7464    0.0000 C   0  0  0  0  0  0  0  0  0  0  0  0
   11.1454    1.3864    0.0000 C   0  0  0  0  0  0  0  0  0  0  0  0
    5.7244    2.2937    0.0000 C   0  0  0  0  0  0  0  0  0  0  0  0
    5.1036    7.6100    0.0000 C   0  0  0  0  0  0  0  0  0  0  0  0
    7.1008    8.4727    0.0000 C   0  0  0  0  0  0  0  0  0  0  0  0
    4.2543    9.1195    0.0000 C   0  0  0  0  0  0  0  0  0  0  0  0
    4.2654   10.1195    0.0000 C   0  0  0  0  0  0  0  0  0  0  0  0
    3.4050   10.6291    0.0000 C   0  0  0  0  0  0  0  0  0  0  0  0
    3.5643   -8.1109    0.0000 H   0  0  0  0  0  0  0  0  0  0  0  0
    3.0277   -8.1970    0.0000 H   0  0  0  0  0  0  0  0  0  0  0  0
    2.3164   -8.6236    0.0000 H   0  0  0  0  0  0  0  0  0  0  0  0
    1.9776   -9.4182    0.0000 H   0  0  0  0  0  0  0  0  0  0  0  0
    2.1621  -10.2268    0.0000 H   0  0  0  0  0  0  0  0  0  0  0  0
    2.8121  -10.7957    0.0000 H   0  0  0  0  0  0  0  0  0  0  0  0
    3.6381  -10.8715    0.0000 H   0  0  0  0  0  0  0  0  0  0  0  0
    4.2539   -7.5517    0.0000 H   0  0  0  0  0  0  0  0  0  0  0  0
    6.5314  -11.1900    0.0000 H   0  0  0  0  0  0  0  0  0  0  0  0
    7.2678   -7.9638    0.0000 H   0  0  0  0  0  0  0  0  0  0  0  0
    8.9996   -7.3833    0.0000 H   0  0  0  0  0  0  0  0  0  0  0  0
    8.4597   -7.9696    0.0000 H   0  0  0  0  0  0  0  0  0  0  0  0
    7.5743  -11.8046    0.0000 H   0  0  0  0  0  0  0  0  0  0  0  0
    8.0379  -12.5489    0.0000 H   0  0  0  0  0  0  0  0  0  0  0  0
    8.7821  -12.0852    0.0000 H   0  0  0  0  0  0  0  0  0  0  0  0
   10.1130   -8.3146    0.0000 H   0  0  0  0  0  0  0  0  0  0  0  0
   10.6528   -7.7283    0.0000 H   0  0  0  0  0  0  0  0  0  0  0  0
   11.6628   -6.8455    0.0000 H   0  0  0  0  0  0  0  0  0  0  0  0
   10.1473   -4.7572    0.0000 H   0  0  0  0  0  0  0  0  0  0  0  0
   12.8769   -5.3691    0.0000 H   0  0  0  0  0  0  0  0  0  0  0  0
    9.6367   -1.3913    0.0000 H   0  0  0  0  0  0  0  0  0  0  0  0
   12.2047   -0.2820    0.0000 H   0  0  0  0  0  0  0  0  0  0  0  0
    8.6707    3.4385    0.0000 H   0  0  0  0  0  0  0  0  0  0  0  0
    7.2452    1.0316    0.0000 H   0  0  0  0  0  0  0  0  0  0  0  0
   12.0903   -2.1900    0.0000 H   0  0  0  0  0  0  0  0  0  0  0  0
    9.6996    1.8276    0.0000 H   0  0  0  0  0  0  0  0  0  0  0  0
   13.4103   -3.8621    0.0000 H   0  0  0  0  0  0  0  0  0  0  0  0
   13.4659   -2.9870    0.0000 H   0  0  0  0  0  0  0  0  0  0  0  0
   12.5908   -2.9314    0.0000 H   0  0  0  0  0  0  0  0  0  0  0  0
    5.5922    5.6951    0.0000 H   0  0  0  0  0  0  0  0  0  0  0  0
    8.1601    6.8044    0.0000 H   0  0  0  0  0  0  0  0  0  0  0  0
    8.0457    4.8964    0.0000 H   0  0  0  0  0  0  0  0  0  0  0  0
   11.7504    1.2507    0.0000 H   0  0  0  0  0  0  0  0  0  0  0  0
   11.2810    1.9914    0.0000 H   0  0  0  0  0  0  0  0  0  0  0  0
   10.5404    1.5220    0.0000 H   0  0  0  0  0  0  0  0  0  0  0  0
    5.6665    2.9110    0.0000 H   0  0  0  0  0  0  0  0  0  0  0  0
    5.1071    2.2357    0.0000 H   0  0  0  0  0  0  0  0  0  0  0  0
    5.7824    1.6764    0.0000 H   0  0  0  0  0  0  0  0  0  0  0  0
    7.7058    8.3371    0.0000 H   0  0  0  0  0  0  0  0  0  0  0  0
    7.2364    9.0777    0.0000 H   0  0  0  0  0  0  0  0  0  0  0  0
    6.4958    8.6084    0.0000 H   0  0  0  0  0  0  0  0  0  0  0  0
    5.6550    8.9140    0.0000 H   0  0  0  0  0  0  0  0  0  0  0  0
    3.6449    9.2340    0.0000 H   0  0  0  0  0  0  0  0  0  0  0  0
    4.0358    8.5393    0.0000 H   0  0  0  0  0  0  0  0  0  0  0  0
    4.8748   10.0050    0.0000 H   0  0  0  0  0  0  0  0  0  0  0  0
    4.4839   10.6997    0.0000 H   0  0  0  0  0  0  0  0  0  0  0  0
    2.8826   11.9449    0.0000 H   0  0  0  0  0  0  0  0  0  0  0  0
    3.9564   11.9330    0.0000 H   0  0  0  0  0  0  0  0  0  0  0  0
    2.0000   10.4547    0.0000 H   0  0  0  0  0  0  0  0  0  0  0  0
  1 27  2  0  0  0  0
  2 33  1  0  0  0  0
  2 34  1  0  0  0  0
  3 32  1  0  0  0  0
  3 35  1  0  0  0  0
  4 37  2  0  0  0  0
  5 46  2  0  0  0  0
  6 52  2  0  0  0  0
  7 55  2  0  0  0  0
  8 60  2  0  0  0  0
  9 22  1  0  0  0  0
  9 25  1  0  0  0  0
  9 27  1  0  0  0  0
 10 26  2  0  0  0  0
 10 29  1  0  0  0  0
 11 37  1  0  0  0  0
 11 38  1  0  0  0  0
 11 82  1  0  0  0  0
 12 39  1  0  0  0  0
 12 41  1  0  0  0  0
 12 54  1  0  0  0  0
 13 42  1  0  0  0  0
 13 48  1  0  0  0  0
 13 58  1  0  0  0  0
 14 44  1  0  0  0  0
 14 50  1  0  0  0  0
 14 59  1  0  0  0  0
 15 43  1  0  0  0  0
 15 46  1  0  0  0  0
 15 89  1  0  0  0  0
 16 45  1  0  0  0  0
 16 52  1  0  0  0  0
 16 90  1  0  0  0  0
 17 53  1  0  0  0  0
 17 57  1  0  0  0  0
 17 61  1  0  0  0  0
 18 51  1  0  0  0  0
 18 55  1  0  0  0  0
 18 96  1  0  0  0  0
 19 60  1  0  0  0  0
 19 62  1  0  0  0  0
 19106  1  0  0  0  0
 20 64  1  0  0  0  0
 20111  1  0  0  0  0
 20112  1  0  0  0  0
 21 64  2  0  0  0  0
 21113  1  0  0  0  0
 22 23  1  0  0  0  0
 22 26  1  0  0  0  0
 22 65  1  6  0  0  0
 23 24  1  0  0  0  0
 23 66  1  0  0  0  0
 23 67  1  0  0  0  0
 24 25  1  0  0  0  0
 24 68  1  0  0  0  0
 24 69  1  0  0  0  0
 25 70  1  0  0  0  0
 25 71  1  0  0  0  0
 26 72  1  0  0  0  0
 27 28  1  0  0  0  0
 28 29  1  0  0  0  0
 28 30  2  0  0  0  0
 29 31  2  0  0  0  0
 30 32  1  0  0  0  0
 30 73  1  0  0  0  0
 31 33  1  0  0  0  0
 31 74  1  0  0  0  0
 32 33  2  0  0  0  0
 34 36  1  0  0  0  0
 34 75  1  0  0  0  0
 34 76  1  0  0  0  0
 35 77  1  0  0  0  0
 35 78  1  0  0  0  0
 35 79  1  0  0  0  0
 36 37  1  0  0  0  0
 36 80  1  0  0  0  0
 36 81  1  0  0  0  0
 38 40  1  0  0  0  0
 38 41  2  0  0  0  0
 39 40  2  0  0  0  0
 39 46  1  0  0  0  0
 40 83  1  0  0  0  0
 41 84  1  0  0  0  0
 42 47  2  0  0  0  0
 42 52  1  0  0  0  0
 43 47  1  0  0  0  0
 43 48  2  0  0  0  0
 44 49  2  0  0  0  0
 44 55  1  0  0  0  0
 45 49  1  0  0  0  0
 45 50  2  0  0  0  0
 47 85  1  0  0  0  0
 48 86  1  0  0  0  0
 49 87  1  0  0  0  0
 50 88  1  0  0  0  0
 51 56  1  0  0  0  0
 51 57  2  0  0  0  0
 53 56  2  0  0  0  0
 53 60  1  0  0  0  0
 54 91  1  0  0  0  0
 54 92  1  0  0  0  0
 54 93  1  0  0  0  0
 56 94  1  0  0  0  0
 57 95  1  0  0  0  0
 58 97  1  0  0  0  0
 58 98  1  0  0  0  0
 58 99  1  0  0  0  0
 59100  1  0  0  0  0
 59101  1  0  0  0  0
 59102  1  0  0  0  0
 61103  1  0  0  0  0
 61104  1  0  0  0  0
 61105  1  0  0  0  0
 62 63  1  0  0  0  0
 62107  1  0  0  0  0
 62108  1  0  0  0  0
 63 64  1  0  0  0  0
 63109  1  0  0  0  0
 63110  1  0  0  0  0
M  END
> <PUBCHEM_COMPOUND_CID>
513440
> <PUBCHEM_COMPOUND_CANONICALIZED>
1
> <PUBCHEM_CACTVS_COMPLEXITY>
1790
> <PUBCHEM_CACTVS_HBOND_ACCEPTOR>
10
> <PUBCHEM_CACTVS_HBOND_DONOR>
7
> <PUBCHEM_CACTVS_ROTATABLE_BOND>
16
> <PUBCHEM_CACTVS_SUBSKEYS>
AAADcfB//AAAAAAAAAAAAAAAAAAAAWLFixYwAAAABAAAAACB/gAAHgAQAAAADCzhngY/xpPMFACoAzd3dACCiCC3MiAA2KG+/NgNZv7E9fuWParm9hnK6ce+3RPOIEABAgACQABAgAIEAASAAAAAAAAAAA==
> <PUBCHEM_IUPAC_OPENEYE_NAME>
4-[3-[[(6aS)-2-methoxy-11-oxo-6a,7,8,9-tetrahydropyrrolo[2,1-c][1,4]benzodiazepin-3-yl]oxy]propanoylamino]-N-[5-[[5-[[5-[(3-amino-3-imino-propyl)carbamoyl]-1-methyl-pyrrol-3-yl]carbamoyl]-1-methyl-pyrrol-3-yl]carbamoyl]-1-methyl-pyrrol-3-yl]-1-methyl-pyrrole-2-carboxamide
> <PUBCHEM_IUPAC_CAS_NAME>
4-[[3-[[(6aS)-2-methoxy-11-oxo-6a,7,8,9-tetrahydropyrrolo[2,1-c][1,4]benzodiazepin-3-yl]oxy]-1-oxopropyl]amino]-N-[5-[[[5-[[[5-[[(3-amino-3-iminopropyl)amino]-oxomethyl]-1-methyl-3-pyrrolyl]amino]-oxomethyl]-1-methyl-3-pyrrolyl]amino]-oxomethyl]-1-methyl-3-pyrrolyl]-1-methyl-2-pyrrolecarboxamide
> <PUBCHEM_IUPAC_NAME_MARKUP>
4-[3-[[(6<I>a</I><I>S</I>)-2-methoxy-11-oxo-6<I>a</I>,7,8,9-tetrahydropyrrolo[2,1-c][1,4]benzodiazepin-3-yl]oxy]propanoylamino]-<I>N</I>-[5-[[5-[[5-[(3-amino-3-iminopropyl)carbamoyl]-1-methylpyrrol-3-yl]carbamoyl]-1-methylpyrrol-3-yl]carbamoyl]-1-methylpyrrol-3-yl]-1-methylpyrrole-2-carboxamide
> <PUBCHEM_IUPAC_NAME>
4-[3-[[(6aS)-2-methoxy-11-oxo-6a,7,8,9-tetrahydropyrrolo[2,1-c][1,4]benzodiazepin-3-yl]oxy]propanoylamino]-N-[5-[[5-[[5-[(3-amino-3-iminopropyl)carbamoyl]-1-methylpyrrol-3-yl]carbamoyl]-1-methylpyrrol-3-yl]carbamoyl]-1-methylpyrrol-3-yl]-1-methylpyrrole-2-carboxamide
> <PUBCHEM_IUPAC_SYSTEMATIC_NAME>
4-[3-[[(6aS)-2-methoxy-11-oxidanylidene-6a,7,8,9-tetrahydropyrrolo[2,1-c][1,4]benzodiazepin-3-yl]oxy]propanoylamino]-N-[5-[[5-[[5-[(3-azanyl-3-azanylidene-propyl)carbamoyl]-1-methyl-pyrrol-3-yl]carbamoyl]-1-methyl-pyrrol-3-yl]carbamoyl]-1-methyl-pyrrol-3-yl]-1-methyl-pyrrole-2-carboxamide
> <PUBCHEM_IUPAC_TRADITIONAL_NAME>
4-[3-[[(6aS)-11-keto-2-methoxy-6a,7,8,9-tetrahydropyrrolo[2,1-c][1,4]benzodiazepin-3-yl]oxy]propanoylamino]-N-[5-[[5-[[5-[(3-amino-3-imino-propyl)carbamoyl]-1-methyl-pyrrol-3-yl]carbamoyl]-1-methyl-pyrrol-3-yl]carbamoyl]-1-methyl-pyrrol-3-yl]-1-methyl-pyrrole-2-carboxamide
> <PUBCHEM_IUPAC_INCHI>
InChI=1S/C43H49N13O8/c1-52-21-25(14-31(52)39(58)46-10-8-37(44)45)49-41(60)33-16-27(23-54(33)3)51-42(61)34-15-26(22-55(34)4)50-40(59)32-13-24(20-53(32)2)48-38(57)9-12-64-36-18-30-29(17-35(36)63-5)43(62)56-11-6-7-28(56)19-47-30/h13-23,28H,6-12H2,1-5H3,(H3,44,45)(H,46,58)(H,48,57)(H,49,60)(H,50,59)(H,51,61)/t28-/m0/s1
> <PUBCHEM_IUPAC_INCHIKEY>
NLZLUCLDVQILGP-NDEPHWFRSA-N
> <PUBCHEM_XLOGP3_AA>
-1.1
> <PUBCHEM_EXACT_MASS>
875.38270557
> <PUBCHEM_MOLECULAR_FORMULA>
C43H49N13O8
> <PUBCHEM_MOLECULAR_WEIGHT>
875.9
> <PUBCHEM_OPENEYE_CAN_SMILES>
CN1C=C(C=C1C(=O)NC2=CN(C(=C2)C(=O)NC3=CN(C(=C3)C(=O)NC4=CN(C(=C4)C(=O)NCCC(=N)N)C)C)C)NC(=O)CCOC5=C(C=C6C(=C5)N=CC7CCCN7C6=O)OC
> <PUBCHEM_OPENEYE_ISO_SMILES>
CN1C=C(C=C1C(=O)NC2=CN(C(=C2)C(=O)NC3=CN(C(=C3)C(=O)NC4=CN(C(=C4)C(=O)NCCC(=N)N)C)C)C)NC(=O)CCOC5=C(C=C6C(=C5)N=C[C@@H]7CCCN7C6=O)OC
> <PUBCHEM_CACTVS_TPSA>
266
> <PUBCHEM_MONOISOTOPIC_WEIGHT>
875.38270557
> <PUBCHEM_TOTAL_CHARGE>
0
> <PUBCHEM_HEAVY_ATOM_COUNT>
64
> <PUBCHEM_ATOM_DEF_STEREO_COUNT>
1
> <PUBCHEM_ATOM_UDEF_STEREO_COUNT>
0
> <PUBCHEM_BOND_DEF_STEREO_COUNT>
0
> <PUBCHEM_BOND_UDEF_STEREO_COUNT>
0
> <PUBCHEM_ISOTOPIC_ATOM_COUNT>
0
> <PUBCHEM_COMPONENT_COUNT>
1
> <PUBCHEM_CACTVS_TAUTO_COUNT>
-1
> <PUBCHEM_COORDINATE_TYPE>
1
5
255
> <PUBCHEM_BONDANNOTATIONS>
12  39  8
12  41  8
13  42  8
13  48  8
14  44  8
14  50  8
17  53  8
17  57  8
22  65  6
28  29  8
28  30  8
29  31  8
30  32  8
31  33  8
32  33  8
38  40  8
38  41  8
39  40  8
42  47  8
43  47  8
43  48  8
44  49  8
45  49  8
45  50  8
51  56  8
51  57  8
53  56  8
$$$$
