513444
  -OEChem-10302200282D
117119  0     1  0  0  0  0  0999 V2000
    9.7942    2.4400    0.0000 O   0  0  0  0  0  0  0  0  0  0  0  0
    8.9282    2.9400    0.0000 O   0  0  0  0  0  0  0  0  0  0  0  0
    8.0622    2.4400    0.0000 O   0  0  0  0  0  0  0  0  0  0  0  0
    7.1962    5.9400    0.0000 O   0  0  0  0  0  0  0  0  0  0  0  0
    8.0622    1.4400    0.0000 O   0  0  0  0  0  0  0  0  0  0  0  0
   13.2583    7.4400    0.0000 O   0  0  0  0  0  0  0  0  0  0  0  0
    7.1962   -0.0600    0.0000 O   0  0  0  0  0  0  0  0  0  0  0  0
    5.4641   -3.0600    0.0000 O   0  0  0  0  0  0  0  0  0  0  0  0
    2.0000   -5.0600    0.0000 O   0  0  0  0  0  0  0  0  0  0  0  0
   10.6603    3.9400    0.0000 N   0  0  0  0  0  0  0  0  0  0  0  0
    8.0622    4.4400    0.0000 N   0  0  0  0  0  0  0  0  0  0  0  0
    6.3301    2.4400    0.0000 N   0  0  0  0  0  0  0  0  0  0  0  0
    5.4641    5.9400    0.0000 N   0  0  0  0  0  0  0  0  0  0  0  0
   14.1244   -2.0600    0.0000 C   0  0  0  0  0  0  0  0  0  0  0  0
   14.1244   -3.0600    0.0000 C   0  0  0  0  0  0  0  0  0  0  0  0
   13.2583   -1.5600    0.0000 C   0  0  0  0  0  0  0  0  0  0  0  0
   14.9904   -3.5600    0.0000 C   0  0  0  0  0  0  0  0  0  0  0  0
   13.2583   -0.5600    0.0000 C   0  0  0  0  0  0  0  0  0  0  0  0
   14.9904   -4.5600    0.0000 C   0  0  0  0  0  0  0  0  0  0  0  0
   12.3923   -0.0600    0.0000 C   0  0  0  0  0  0  0  0  0  0  0  0
   15.8564   -5.0600    0.0000 C   0  0  0  0  0  0  0  0  0  0  0  0
   12.3923    0.9400    0.0000 C   0  0  0  0  0  0  0  0  0  0  0  0
   15.8564   -6.0600    0.0000 C   0  0  0  0  0  0  0  0  0  0  0  0
   11.5263    1.4400    0.0000 C   0  0  0  0  0  0  0  0  0  0  0  0
   16.7224   -6.5600    0.0000 C   0  0  0  0  0  0  0  0  0  0  0  0
   11.5263    2.4400    0.0000 C   0  0  0  0  0  0  0  0  0  0  0  0
   16.7224   -7.5600    0.0000 C   0  0  0  0  0  0  0  0  0  0  0  0
    9.7942    4.4400    0.0000 C   0  0  1  0  0  0  0  0  0  0  0  0
   10.6603    2.9400    0.0000 C   0  0  0  0  0  0  0  0  0  0  0  0
    9.7942    5.4400    0.0000 C   0  0  0  0  0  0  0  0  0  0  0  0
    8.9282    3.9400    0.0000 C   0  0  0  0  0  0  0  0  0  0  0  0
    7.1962    3.9400    0.0000 C   0  0  1  0  0  0  0  0  0  0  0  0
   17.5885   -8.0600    0.0000 C   0  0  0  0  0  0  0  0  0  0  0  0
   10.6603    5.9400    0.0000 C   0  0  0  0  0  0  0  0  0  0  0  0
    6.3301    4.4400    0.0000 C   0  0  0  0  0  0  0  0  0  0  0  0
    7.1962    2.9400    0.0000 C   0  0  0  0  0  0  0  0  0  0  0  0
    6.3301    1.4400    0.0000 C   0  0  1  0  0  0  0  0  0  0  0  0
    5.4641    0.9400    0.0000 C   0  0  0  0  0  0  0  0  0  0  0  0
   11.5263    5.4400    0.0000 C   0  0  0  0  0  0  0  0  0  0  0  0
   10.6603    6.9400    0.0000 C   0  0  0  0  0  0  0  0  0  0  0  0
    6.3301    5.4400    0.0000 C   0  0  0  0  0  0  0  0  0  0  0  0
    5.4641   -0.0600    0.0000 C   0  0  0  0  0  0  0  0  0  0  0  0
   12.3923    5.9400    0.0000 C   0  0  0  0  0  0  0  0  0  0  0  0
   11.5263    7.4400    0.0000 C   0  0  0  0  0  0  0  0  0  0  0  0
    7.1962    0.9400    0.0000 C   0  0  0  0  0  0  0  0  0  0  0  0
   12.3923    6.9400    0.0000 C   0  0  0  0  0  0  0  0  0  0  0  0
    6.3301   -0.5600    0.0000 C   0  0  0  0  0  0  0  0  0  0  0  0
    4.5981   -0.5600    0.0000 C   0  0  0  0  0  0  0  0  0  0  0  0
    6.3301   -1.5600    0.0000 C   0  0  0  0  0  0  0  0  0  0  0  0
    4.5981   -1.5600    0.0000 C   0  0  0  0  0  0  0  0  0  0  0  0
    5.4641   -2.0600    0.0000 C   0  0  0  0  0  0  0  0  0  0  0  0
    4.5981   -3.5600    0.0000 C   0  0  0  0  0  0  0  0  0  0  0  0
    4.5981   -4.5600    0.0000 C   0  0  0  0  0  0  0  0  0  0  0  0
    3.7320   -3.0600    0.0000 C   0  0  0  0  0  0  0  0  0  0  0  0
    3.7320   -5.0600    0.0000 C   0  0  0  0  0  0  0  0  0  0  0  0
    2.8660   -3.5600    0.0000 C   0  0  0  0  0  0  0  0  0  0  0  0
    2.8660   -4.5600    0.0000 C   0  0  0  0  0  0  0  0  0  0  0  0
   14.7349   -2.1677    0.0000 H   0  0  0  0  0  0  0  0  0  0  0  0
   14.3364   -1.4774    0.0000 H   0  0  0  0  0  0  0  0  0  0  0  0
   13.5138   -2.9523    0.0000 H   0  0  0  0  0  0  0  0  0  0  0  0
   13.9123   -3.6426    0.0000 H   0  0  0  0  0  0  0  0  0  0  0  0
   12.6477   -1.4523    0.0000 H   0  0  0  0  0  0  0  0  0  0  0  0
   13.0463   -2.1426    0.0000 H   0  0  0  0  0  0  0  0  0  0  0  0
   15.6010   -3.6677    0.0000 H   0  0  0  0  0  0  0  0  0  0  0  0
   15.2024   -2.9774    0.0000 H   0  0  0  0  0  0  0  0  0  0  0  0
   13.8689   -0.6677    0.0000 H   0  0  0  0  0  0  0  0  0  0  0  0
   13.4704    0.0226    0.0000 H   0  0  0  0  0  0  0  0  0  0  0  0
   14.3798   -4.4523    0.0000 H   0  0  0  0  0  0  0  0  0  0  0  0
   14.7783   -5.1426    0.0000 H   0  0  0  0  0  0  0  0  0  0  0  0
   11.7817    0.0477    0.0000 H   0  0  0  0  0  0  0  0  0  0  0  0
   12.1803   -0.6426    0.0000 H   0  0  0  0  0  0  0  0  0  0  0  0
   16.4670   -5.1677    0.0000 H   0  0  0  0  0  0  0  0  0  0  0  0
   16.0685   -4.4774    0.0000 H   0  0  0  0  0  0  0  0  0  0  0  0
   13.0029    0.8323    0.0000 H   0  0  0  0  0  0  0  0  0  0  0  0
   12.6044    1.5226    0.0000 H   0  0  0  0  0  0  0  0  0  0  0  0
   15.2458   -5.9523    0.0000 H   0  0  0  0  0  0  0  0  0  0  0  0
   15.6444   -6.6426    0.0000 H   0  0  0  0  0  0  0  0  0  0  0  0
   10.9157    1.5477    0.0000 H   0  0  0  0  0  0  0  0  0  0  0  0
   11.3142    0.8574    0.0000 H   0  0  0  0  0  0  0  0  0  0  0  0
   17.3330   -6.6677    0.0000 H   0  0  0  0  0  0  0  0  0  0  0  0
   16.9345   -5.9774    0.0000 H   0  0  0  0  0  0  0  0  0  0  0  0
   12.1369    2.3323    0.0000 H   0  0  0  0  0  0  0  0  0  0  0  0
   11.7383    3.0226    0.0000 H   0  0  0  0  0  0  0  0  0  0  0  0
   16.1119   -7.4523    0.0000 H   0  0  0  0  0  0  0  0  0  0  0  0
   16.5104   -8.1426    0.0000 H   0  0  0  0  0  0  0  0  0  0  0  0
    9.7942    3.8200    0.0000 H   0  0  0  0  0  0  0  0  0  0  0  0
   11.1972    4.2500    0.0000 H   0  0  0  0  0  0  0  0  0  0  0  0
    9.5822    6.0226    0.0000 H   0  0  0  0  0  0  0  0  0  0  0  0
    9.1836    5.3323    0.0000 H   0  0  0  0  0  0  0  0  0  0  0  0
    7.7331    3.6300    0.0000 H   0  0  0  0  0  0  0  0  0  0  0  0
   17.2785   -8.5969    0.0000 H   0  0  0  0  0  0  0  0  0  0  0  0
   18.1254   -8.3700    0.0000 H   0  0  0  0  0  0  0  0  0  0  0  0
   17.8985   -7.5231    0.0000 H   0  0  0  0  0  0  0  0  0  0  0  0
    8.0622    5.0600    0.0000 H   0  0  0  0  0  0  0  0  0  0  0  0
    5.7196    4.5477    0.0000 H   0  0  0  0  0  0  0  0  0  0  0  0
    6.1181    3.8574    0.0000 H   0  0  0  0  0  0  0  0  0  0  0  0
    6.8671    1.7500    0.0000 H   0  0  0  0  0  0  0  0  0  0  0  0
    5.7932    2.7500    0.0000 H   0  0  0  0  0  0  0  0  0  0  0  0
    5.2520    1.5226    0.0000 H   0  0  0  0  0  0  0  0  0  0  0  0
    4.8535    0.8323    0.0000 H   0  0  0  0  0  0  0  0  0  0  0  0
   11.5263    4.8200    0.0000 H   0  0  0  0  0  0  0  0  0  0  0  0
   10.1233    7.2500    0.0000 H   0  0  0  0  0  0  0  0  0  0  0  0
   12.9292    5.6300    0.0000 H   0  0  0  0  0  0  0  0  0  0  0  0
   11.5263    8.0600    0.0000 H   0  0  0  0  0  0  0  0  0  0  0  0
    6.8671   -0.2500    0.0000 H   0  0  0  0  0  0  0  0  0  0  0  0
    4.0611   -0.2500    0.0000 H   0  0  0  0  0  0  0  0  0  0  0  0
    5.4641    6.5600    0.0000 H   0  0  0  0  0  0  0  0  0  0  0  0
    4.9272    5.6300    0.0000 H   0  0  0  0  0  0  0  0  0  0  0  0
    6.8671   -1.8700    0.0000 H   0  0  0  0  0  0  0  0  0  0  0  0
    4.0611   -1.8700    0.0000 H   0  0  0  0  0  0  0  0  0  0  0  0
    8.5991    1.1300    0.0000 H   0  0  0  0  0  0  0  0  0  0  0  0
   13.2583    8.0600    0.0000 H   0  0  0  0  0  0  0  0  0  0  0  0
    5.1350   -4.8700    0.0000 H   0  0  0  0  0  0  0  0  0  0  0  0
    3.7320   -2.4400    0.0000 H   0  0  0  0  0  0  0  0  0  0  0  0
    3.7320   -5.6800    0.0000 H   0  0  0  0  0  0  0  0  0  0  0  0
    2.3291   -3.2500    0.0000 H   0  0  0  0  0  0  0  0  0  0  0  0
    2.0000   -5.6800    0.0000 H   0  0  0  0  0  0  0  0  0  0  0  0
  1 29  2  0  0  0  0
  2 31  2  0  0  0  0
  3 36  2  0  0  0  0
  4 41  2  0  0  0  0
  5 45  1  0  0  0  0
  5111  1  0  0  0  0
  6 46  1  0  0  0  0
  6112  1  0  0  0  0
  7 45  2  0  0  0  0
  8 51  1  0  0  0  0
  8 52  1  0  0  0  0
  9 57  1  0  0  0  0
  9117  1  0  0  0  0
 28 10  1  6  0  0  0
 10 29  1  0  0  0  0
 10 87  1  0  0  0  0
 11 31  1  0  0  0  0
 32 11  1  6  0  0  0
 11 94  1  0  0  0  0
 12 36  1  0  0  0  0
 37 12  1  6  0  0  0
 12 98  1  0  0  0  0
 13 41  1  0  0  0  0
 13107  1  0  0  0  0
 13108  1  0  0  0  0
 14 15  1  0  0  0  0
 14 16  1  0  0  0  0
 14 58  1  0  0  0  0
 14 59  1  0  0  0  0
 15 17  1  0  0  0  0
 15 60  1  0  0  0  0
 15 61  1  0  0  0  0
 16 18  1  0  0  0  0
 16 62  1  0  0  0  0
 16 63  1  0  0  0  0
 17 19  1  0  0  0  0
 17 64  1  0  0  0  0
 17 65  1  0  0  0  0
 18 20  1  0  0  0  0
 18 66  1  0  0  0  0
 18 67  1  0  0  0  0
 19 21  1  0  0  0  0
 19 68  1  0  0  0  0
 19 69  1  0  0  0  0
 20 22  1  0  0  0  0
 20 70  1  0  0  0  0
 20 71  1  0  0  0  0
 21 23  1  0  0  0  0
 21 72  1  0  0  0  0
 21 73  1  0  0  0  0
 22 24  1  0  0  0  0
 22 74  1  0  0  0  0
 22 75  1  0  0  0  0
 23 25  1  0  0  0  0
 23 76  1  0  0  0  0
 23 77  1  0  0  0  0
 24 26  1  0  0  0  0
 24 78  1  0  0  0  0
 24 79  1  0  0  0  0
 25 27  1  0  0  0  0
 25 80  1  0  0  0  0
 25 81  1  0  0  0  0
 26 29  1  0  0  0  0
 26 82  1  0  0  0  0
 26 83  1  0  0  0  0
 27 33  1  0  0  0  0
 27 84  1  0  0  0  0
 27 85  1  0  0  0  0
 28 30  1  0  0  0  0
 28 31  1  0  0  0  0
 28 86  1  0  0  0  0
 30 34  1  0  0  0  0
 30 88  1  0  0  0  0
 30 89  1  0  0  0  0
 32 35  1  0  0  0  0
 32 36  1  0  0  0  0
 32 90  1  0  0  0  0
 33 91  1  0  0  0  0
 33 92  1  0  0  0  0
 33 93  1  0  0  0  0
 34 39  2  0  0  0  0
 34 40  1  0  0  0  0
 35 41  1  0  0  0  0
 35 95  1  0  0  0  0
 35 96  1  0  0  0  0
 37 38  1  0  0  0  0
 37 45  1  0  0  0  0
 37 97  1  0  0  0  0
 38 42  1  0  0  0  0
 38 99  1  0  0  0  0
 38100  1  0  0  0  0
 39 43  1  0  0  0  0
 39101  1  0  0  0  0
 40 44  2  0  0  0  0
 40102  1  0  0  0  0
 42 47  2  0  0  0  0
 42 48  1  0  0  0  0
 43 46  2  0  0  0  0
 43103  1  0  0  0  0
 44 46  1  0  0  0  0
 44104  1  0  0  0  0
 47 49  1  0  0  0  0
 47105  1  0  0  0  0
 48 50  2  0  0  0  0
 48106  1  0  0  0  0
 49 51  2  0  0  0  0
 49109  1  0  0  0  0
 50 51  1  0  0  0  0
 50110  1  0  0  0  0
 52 53  2  0  0  0  0
 52 54  1  0  0  0  0
 53 55  1  0  0  0  0
 53113  1  0  0  0  0
 54 56  2  0  0  0  0
 54114  1  0  0  0  0
 55 57  2  0  0  0  0
 55115  1  0  0  0  0
 56 57  1  0  0  0  0
 56116  1  0  0  0  0
M  END
> <PUBCHEM_COMPOUND_CID>
513444
> <PUBCHEM_COMPOUND_CANONICALIZED>
1
> <PUBCHEM_CACTVS_COMPLEXITY>
1180
> <PUBCHEM_CACTVS_HBOND_ACCEPTOR>
9
> <PUBCHEM_CACTVS_HBOND_DONOR>
7
> <PUBCHEM_CACTVS_ROTATABLE_BOND>
28
> <PUBCHEM_CACTVS_SUBSKEYS>
AAADcfB/vAAAAAAAAAAAAAAAAAAAAAAAAAAwYMAAAAAAAAABUAAAHgAQCAAADCzBmAQyDoLABgCIAiHSGAACCAAgIAAIiIGOCIgOZjqG8TuWeCCk1hGYuAfdyKCOIQAAAAAAAABCAAAAAAAAAAAAAAAAAA==
> <PUBCHEM_IUPAC_OPENEYE_NAME>
(2S)-2-[[(2S)-4-amino-2-[[(2S)-2-(hexadecanoylamino)-3-(4-hydroxyphenyl)propanoyl]amino]-4-oxo-butanoyl]amino]-3-[4-(4-hydroxyphenoxy)phenyl]propanoic acid
> <PUBCHEM_IUPAC_CAS_NAME>
(2S)-2-[[(2S)-4-amino-2-[[(2S)-3-(4-hydroxyphenyl)-1-oxo-2-(1-oxohexadecylamino)propyl]amino]-1,4-dioxobutyl]amino]-3-[4-(4-hydroxyphenoxy)phenyl]propanoic acid
> <PUBCHEM_IUPAC_NAME_MARKUP>
(2<I>S</I>)-2-[[(2<I>S</I>)-4-amino-2-[[(2<I>S</I>)-2-(hexadecanoylamino)-3-(4-hydroxyphenyl)propanoyl]amino]-4-oxobutanoyl]amino]-3-[4-(4-hydroxyphenoxy)phenyl]propanoic acid
> <PUBCHEM_IUPAC_NAME>
(2S)-2-[[(2S)-4-amino-2-[[(2S)-2-(hexadecanoylamino)-3-(4-hydroxyphenyl)propanoyl]amino]-4-oxobutanoyl]amino]-3-[4-(4-hydroxyphenoxy)phenyl]propanoic acid
> <PUBCHEM_IUPAC_SYSTEMATIC_NAME>
(2S)-2-[[(2S)-4-azanyl-2-[[(2S)-2-(hexadecanoylamino)-3-(4-hydroxyphenyl)propanoyl]amino]-4-oxidanylidene-butanoyl]amino]-3-[4-(4-oxidanylphenoxy)phenyl]propanoic acid
> <PUBCHEM_IUPAC_TRADITIONAL_NAME>
(2S)-2-[[(2S)-4-amino-2-[[(2S)-3-(4-hydroxyphenyl)-2-palmitamido-propanoyl]amino]-4-keto-butanoyl]amino]-3-[4-(4-hydroxyphenoxy)phenyl]propionic acid
> <PUBCHEM_IUPAC_INCHI>
InChI=1S/C44H60N4O9/c1-2-3-4-5-6-7-8-9-10-11-12-13-14-15-41(52)46-37(28-31-16-20-33(49)21-17-31)42(53)47-38(30-40(45)51)43(54)48-39(44(55)56)29-32-18-24-35(25-19-32)57-36-26-22-34(50)23-27-36/h16-27,37-39,49-50H,2-15,28-30H2,1H3,(H2,45,51)(H,46,52)(H,47,53)(H,48,54)(H,55,56)/t37-,38-,39-/m0/s1
> <PUBCHEM_IUPAC_INCHIKEY>
NVIBRMPNMIGQNP-IGMOWHQGSA-N
> <PUBCHEM_XLOGP3_AA>
8.8
> <PUBCHEM_EXACT_MASS>
788.43602950
> <PUBCHEM_MOLECULAR_FORMULA>
C44H60N4O9
> <PUBCHEM_MOLECULAR_WEIGHT>
789.0
> <PUBCHEM_OPENEYE_CAN_SMILES>
CCCCCCCCCCCCCCCC(=O)NC(CC1=CC=C(C=C1)O)C(=O)NC(CC(=O)N)C(=O)NC(CC2=CC=C(C=C2)OC3=CC=C(C=C3)O)C(=O)O
> <PUBCHEM_OPENEYE_ISO_SMILES>
CCCCCCCCCCCCCCCC(=O)N[C@@H](CC1=CC=C(C=C1)O)C(=O)N[C@@H](CC(=O)N)C(=O)N[C@@H](CC2=CC=C(C=C2)OC3=CC=C(C=C3)O)C(=O)O
> <PUBCHEM_CACTVS_TPSA>
217
> <PUBCHEM_MONOISOTOPIC_WEIGHT>
788.43602950
> <PUBCHEM_TOTAL_CHARGE>
0
> <PUBCHEM_HEAVY_ATOM_COUNT>
57
> <PUBCHEM_ATOM_DEF_STEREO_COUNT>
3
> <PUBCHEM_ATOM_UDEF_STEREO_COUNT>
0
> <PUBCHEM_BOND_DEF_STEREO_COUNT>
0
> <PUBCHEM_BOND_UDEF_STEREO_COUNT>
0
> <PUBCHEM_ISOTOPIC_ATOM_COUNT>
0
> <PUBCHEM_COMPONENT_COUNT>
1
> <PUBCHEM_CACTVS_TAUTO_COUNT>
-1
> <PUBCHEM_COORDINATE_TYPE>
1
5
255
> <PUBCHEM_BONDANNOTATIONS>
28  10  6
32  11  6
37  12  6
34  39  8
34  40  8
39  43  8
40  44  8
42  47  8
42  48  8
43  46  8
44  46  8
47  49  8
48  50  8
49  51  8
50  51  8
52  53  8
52  54  8
53  55  8
54  56  8
55  57  8
56  57  8
$$$$
