513498
  -OEChem-10302200282D
 55 59  0     1  0  0  0  0  0999 V2000
    5.2927    2.1622    0.0000 F   0  0  0  0  0  0  0  0  0  0  0  0
    2.0000    3.2384    0.0000 F   0  0  0  0  0  0  0  0  0  0  0  0
    3.9271   -0.4067    0.0000 O   0  0  0  0  0  0  0  0  0  0  0  0
    9.6122   -2.2384    0.0000 O   0  0  0  0  0  0  0  0  0  0  0  0
    5.0286   -1.4336    0.0000 N   0  0  0  0  0  0  0  0  0  0  0  0
    6.3662    0.6184    0.0000 N   0  0  0  0  0  0  0  0  0  0  0  0
    5.0286   -3.0431    0.0000 N   0  0  0  0  0  0  0  0  0  0  0  0
    6.6736   -0.3332    0.0000 N   0  0  0  0  0  0  0  0  0  0  0  0
    7.9842    0.6156    0.0000 N   0  0  0  0  0  0  0  0  0  0  0  0
    4.6714    0.2612    0.0000 C   0  0  3  0  0  0  0  0  0  0  0  0
    5.3392   -0.4831    0.0000 C   0  0  0  0  0  0  0  0  0  0  0  0
    5.4157    0.9290    0.0000 C   0  0  0  0  0  0  0  0  0  0  0  0
    4.0035    1.0055    0.0000 C   0  0  0  0  0  0  0  0  0  0  0  0
    4.0823   -1.7384    0.0000 C   0  0  0  0  0  0  0  0  0  0  0  0
    5.6122   -2.2384    0.0000 C   0  0  0  0  0  0  0  0  0  0  0  0
    4.0823   -2.7384    0.0000 C   0  0  0  0  0  0  0  0  0  0  0  0
    4.3142    1.9560    0.0000 C   0  0  0  0  0  0  0  0  0  0  0  0
    3.0250    0.7993    0.0000 C   0  0  0  0  0  0  0  0  0  0  0  0
    6.6122   -2.2384    0.0000 C   0  0  0  0  0  0  0  0  0  0  0  0
    3.2163   -1.2384    0.0000 C   0  0  0  0  0  0  0  0  0  0  0  0
    3.2163   -3.2384    0.0000 C   0  0  0  0  0  0  0  0  0  0  0  0
    3.6464    2.7003    0.0000 C   0  0  0  0  0  0  0  0  0  0  0  0
    2.3572    1.5436    0.0000 C   0  0  0  0  0  0  0  0  0  0  0  0
    7.1762    1.2047    0.0000 C   0  0  0  0  0  0  0  0  0  0  0  0
    2.3503   -1.7384    0.0000 C   0  0  0  0  0  0  0  0  0  0  0  0
    2.3503   -2.7384    0.0000 C   0  0  0  0  0  0  0  0  0  0  0  0
    2.6678    2.4941    0.0000 C   0  0  0  0  0  0  0  0  0  0  0  0
    7.1122   -1.3724    0.0000 C   0  0  0  0  0  0  0  0  0  0  0  0
    7.1122   -3.1044    0.0000 C   0  0  0  0  0  0  0  0  0  0  0  0
    7.6736   -0.3350    0.0000 C   0  0  0  0  0  0  0  0  0  0  0  0
    8.1122   -1.3724    0.0000 C   0  0  0  0  0  0  0  0  0  0  0  0
    8.1122   -3.1044    0.0000 C   0  0  0  0  0  0  0  0  0  0  0  0
    8.6122   -2.2384    0.0000 C   0  0  0  0  0  0  0  0  0  0  0  0
   10.1122   -3.1044    0.0000 C   0  0  0  0  0  0  0  0  0  0  0  0
    5.8861   -0.7751    0.0000 H   0  0  0  0  0  0  0  0  0  0  0  0
    5.7218    0.0048    0.0000 H   0  0  0  0  0  0  0  0  0  0  0  0
    5.7077    1.4759    0.0000 H   0  0  0  0  0  0  0  0  0  0  0  0
    4.9278    1.3116    0.0000 H   0  0  0  0  0  0  0  0  0  0  0  0
    3.3378   -0.2141    0.0000 H   0  0  0  0  0  0  0  0  0  0  0  0
    2.8324    0.2099    0.0000 H   0  0  0  0  0  0  0  0  0  0  0  0
    3.2163   -0.6184    0.0000 H   0  0  0  0  0  0  0  0  0  0  0  0
    3.2163   -3.8584    0.0000 H   0  0  0  0  0  0  0  0  0  0  0  0
    3.8390    3.2896    0.0000 H   0  0  0  0  0  0  0  0  0  0  0  0
    1.7505    1.4157    0.0000 H   0  0  0  0  0  0  0  0  0  0  0  0
    7.1773    1.8247    0.0000 H   0  0  0  0  0  0  0  0  0  0  0  0
    1.8134   -1.4284    0.0000 H   0  0  0  0  0  0  0  0  0  0  0  0
    1.8134   -3.0484    0.0000 H   0  0  0  0  0  0  0  0  0  0  0  0
    6.8022   -0.8354    0.0000 H   0  0  0  0  0  0  0  0  0  0  0  0
    6.8022   -3.6413    0.0000 H   0  0  0  0  0  0  0  0  0  0  0  0
    8.0371   -0.8372    0.0000 H   0  0  0  0  0  0  0  0  0  0  0  0
    8.4222   -0.8354    0.0000 H   0  0  0  0  0  0  0  0  0  0  0  0
    8.4222   -3.6413    0.0000 H   0  0  0  0  0  0  0  0  0  0  0  0
    9.5752   -3.4144    0.0000 H   0  0  0  0  0  0  0  0  0  0  0  0
   10.4222   -3.6413    0.0000 H   0  0  0  0  0  0  0  0  0  0  0  0
   10.6491   -2.7944    0.0000 H   0  0  0  0  0  0  0  0  0  0  0  0
  1 17  1  0  0  0  0
  2 27  1  0  0  0  0
  3 10  1  0  0  0  0
  3 39  1  0  0  0  0
  4 33  1  0  0  0  0
  4 34  1  0  0  0  0
  5 11  1  0  0  0  0
  5 14  1  0  0  0  0
  5 15  1  0  0  0  0
  6  8  1  0  0  0  0
  6 12  1  0  0  0  0
  6 24  1  0  0  0  0
  7 15  2  0  0  0  0
  7 16  1  0  0  0  0
  8 30  2  0  0  0  0
  9 24  2  0  0  0  0
  9 30  1  0  0  0  0
 10 11  1  0  0  0  0
 10 12  1  0  0  0  0
 10 13  1  0  0  0  0
 11 35  1  0  0  0  0
 11 36  1  0  0  0  0
 12 37  1  0  0  0  0
 12 38  1  0  0  0  0
 13 17  2  0  0  0  0
 13 18  1  0  0  0  0
 14 16  1  0  0  0  0
 14 20  2  0  0  0  0
 15 19  1  0  0  0  0
 16 21  2  0  0  0  0
 17 22  1  0  0  0  0
 18 23  2  0  0  0  0
 18 40  1  0  0  0  0
 19 28  2  0  0  0  0
 19 29  1  0  0  0  0
 20 25  1  0  0  0  0
 20 41  1  0  0  0  0
 21 26  1  0  0  0  0
 21 42  1  0  0  0  0
 22 27  2  0  0  0  0
 22 43  1  0  0  0  0
 23 27  1  0  0  0  0
 23 44  1  0  0  0  0
 24 45  1  0  0  0  0
 25 26  2  0  0  0  0
 25 46  1  0  0  0  0
 26 47  1  0  0  0  0
 28 31  1  0  0  0  0
 28 48  1  0  0  0  0
 29 32  2  0  0  0  0
 29 49  1  0  0  0  0
 30 50  1  0  0  0  0
 31 33  2  0  0  0  0
 31 51  1  0  0  0  0
 32 33  1  0  0  0  0
 32 52  1  0  0  0  0
 34 53  1  0  0  0  0
 34 54  1  0  0  0  0
 34 55  1  0  0  0  0
M  END
> <PUBCHEM_COMPOUND_CID>
513498
> <PUBCHEM_COMPOUND_CANONICALIZED>
1
> <PUBCHEM_CACTVS_COMPLEXITY>
669
> <PUBCHEM_CACTVS_HBOND_ACCEPTOR>
7
> <PUBCHEM_CACTVS_HBOND_DONOR>
1
> <PUBCHEM_CACTVS_ROTATABLE_BOND>
7
> <PUBCHEM_CACTVS_SUBSKEYS>
AAADceB7sYAAAAAAAAAAAAAAAAAAAWLAAAAwYMAAAAAAAFgB/AAAHwAICAAADEzBnw431rcMFgCiAyZjZACSiC8xsqAd2CA+fJiObqLE+ZuUcChswBPY+CeQ0OIOoAAAAAAAACBAAAAAAAAAQAAAAAAAAA==
> <PUBCHEM_IUPAC_OPENEYE_NAME>
2-(2,4-difluorophenyl)-1-[2-(4-methoxyphenyl)benzimidazol-1-yl]-3-(1,2,4-triazol-1-yl)propan-2-ol
> <PUBCHEM_IUPAC_CAS_NAME>
2-(2,4-difluorophenyl)-1-[2-(4-methoxyphenyl)-1-benzimidazolyl]-3-(1,2,4-triazol-1-yl)-2-propanol
> <PUBCHEM_IUPAC_NAME_MARKUP>
2-(2,4-difluorophenyl)-1-[2-(4-methoxyphenyl)benzimidazol-1-yl]-3-(1,2,4-triazol-1-yl)propan-2-ol
> <PUBCHEM_IUPAC_NAME>
2-(2,4-difluorophenyl)-1-[2-(4-methoxyphenyl)benzimidazol-1-yl]-3-(1,2,4-triazol-1-yl)propan-2-ol
> <PUBCHEM_IUPAC_SYSTEMATIC_NAME>
2-[2,4-bis(fluoranyl)phenyl]-1-[2-(4-methoxyphenyl)benzimidazol-1-yl]-3-(1,2,4-triazol-1-yl)propan-2-ol
> <PUBCHEM_IUPAC_TRADITIONAL_NAME>
2-(2,4-difluorophenyl)-1-[2-(4-methoxyphenyl)benzimidazol-1-yl]-3-(1,2,4-triazol-1-yl)propan-2-ol
> <PUBCHEM_IUPAC_INCHI>
InChI=1S/C25H21F2N5O2/c1-34-19-9-6-17(7-10-19)24-30-22-4-2-3-5-23(22)32(24)14-25(33,13-31-16-28-15-29-31)20-11-8-18(26)12-21(20)27/h2-12,15-16,33H,13-14H2,1H3
> <PUBCHEM_IUPAC_INCHIKEY>
MFMJYOJVZMZCIF-UHFFFAOYSA-N
> <PUBCHEM_XLOGP3_AA>
3.6
> <PUBCHEM_EXACT_MASS>
461.16633125
> <PUBCHEM_MOLECULAR_FORMULA>
C25H21F2N5O2
> <PUBCHEM_MOLECULAR_WEIGHT>
461.5
> <PUBCHEM_OPENEYE_CAN_SMILES>
COC1=CC=C(C=C1)C2=NC3=CC=CC=C3N2CC(CN4C=NC=N4)(C5=C(C=C(C=C5)F)F)O
> <PUBCHEM_OPENEYE_ISO_SMILES>
COC1=CC=C(C=C1)C2=NC3=CC=CC=C3N2CC(CN4C=NC=N4)(C5=C(C=C(C=C5)F)F)O
> <PUBCHEM_CACTVS_TPSA>
78
> <PUBCHEM_MONOISOTOPIC_WEIGHT>
461.16633125
> <PUBCHEM_TOTAL_CHARGE>
0
> <PUBCHEM_HEAVY_ATOM_COUNT>
34
> <PUBCHEM_ATOM_DEF_STEREO_COUNT>
0
> <PUBCHEM_ATOM_UDEF_STEREO_COUNT>
1
> <PUBCHEM_BOND_DEF_STEREO_COUNT>
0
> <PUBCHEM_BOND_UDEF_STEREO_COUNT>
0
> <PUBCHEM_ISOTOPIC_ATOM_COUNT>
0
> <PUBCHEM_COMPONENT_COUNT>
1
> <PUBCHEM_CACTVS_TAUTO_COUNT>
-1
> <PUBCHEM_COORDINATE_TYPE>
1
5
255
> <PUBCHEM_BONDANNOTATIONS>
13  17  8
13  18  8
14  16  8
14  20  8
16  21  8
17  22  8
18  23  8
19  28  8
19  29  8
20  25  8
21  26  8
22  27  8
23  27  8
25  26  8
28  31  8
29  32  8
10  3  3
31  33  8
32  33  8
5  14  8
5  15  8
6  24  8
6  8  8
7  15  8
7  16  8
8  30  8
9  24  8
9  30  8
$$$$
