513483
  -OEChem-10302200282D
 45 48  0     1  0  0  0  0  0999 V2000
    2.0000    4.5855    0.0000 Cl  0  0  0  0  0  0  0  0  0  0  0  0
    2.2700   -1.5855    0.0000 F   0  0  0  0  0  0  0  0  0  0  0  0
    4.0020   -4.5855    0.0000 F   0  0  0  0  0  0  0  0  0  0  0  0
    3.0020   -0.5855    0.0000 O   0  0  0  0  0  0  0  0  0  0  0  0
    4.8680    0.9145    0.0000 N   0  0  0  0  0  0  0  0  0  0  0  0
    5.8680   -1.0855    0.0000 N   0  0  0  0  0  0  0  0  0  0  0  0
    5.9507    2.1169    0.0000 N   0  0  0  0  0  0  0  0  0  0  0  0
    5.9726   -2.0800    0.0000 N   0  0  0  0  0  0  0  0  0  0  0  0
    7.4507   -1.4219    0.0000 N   0  0  0  0  0  0  0  0  0  0  0  0
    4.0020   -0.5855    0.0000 C   0  0  3  0  0  0  0  0  0  0  0  0
    4.0020    0.4145    0.0000 C   0  0  0  0  0  0  0  0  0  0  0  0
    5.0020   -0.5855    0.0000 C   0  0  0  0  0  0  0  0  0  0  0  0
    4.0020   -1.5855    0.0000 C   0  0  0  0  0  0  0  0  0  0  0  0
    4.9726    1.9090    0.0000 C   0  0  0  0  0  0  0  0  0  0  0  0
    3.1360   -2.0855    0.0000 C   0  0  0  0  0  0  0  0  0  0  0  0
    4.8680   -2.0855    0.0000 C   0  0  0  0  0  0  0  0  0  0  0  0
    5.7816    0.5077    0.0000 C   0  0  0  0  0  0  0  0  0  0  0  0
    4.2294    2.5781    0.0000 C   0  0  0  0  0  0  0  0  0  0  0  0
    6.4507    1.2509    0.0000 C   0  0  0  0  0  0  0  0  0  0  0  0
    3.1360   -3.0855    0.0000 C   0  0  0  0  0  0  0  0  0  0  0  0
    4.8680   -3.0855    0.0000 C   0  0  0  0  0  0  0  0  0  0  0  0
    6.7816   -0.6788    0.0000 C   0  0  0  0  0  0  0  0  0  0  0  0
    4.0020   -3.5855    0.0000 C   0  0  0  0  0  0  0  0  0  0  0  0
    4.4374    3.5563    0.0000 C   0  0  0  0  0  0  0  0  0  0  0  0
    3.2784    2.2691    0.0000 C   0  0  0  0  0  0  0  0  0  0  0  0
    6.9507   -2.2880    0.0000 C   0  0  0  0  0  0  0  0  0  0  0  0
    3.6942    4.2254    0.0000 C   0  0  0  0  0  0  0  0  0  0  0  0
    2.5352    2.9382    0.0000 C   0  0  0  0  0  0  0  0  0  0  0  0
    2.7431    3.9164    0.0000 C   0  0  0  0  0  0  0  0  0  0  0  0
    3.7900    0.9971    0.0000 H   0  0  0  0  0  0  0  0  0  0  0  0
    3.3914    0.3068    0.0000 H   0  0  0  0  0  0  0  0  0  0  0  0
    5.4770   -0.1870    0.0000 H   0  0  0  0  0  0  0  0  0  0  0  0
    4.8416   -1.1844    0.0000 H   0  0  0  0  0  0  0  0  0  0  0  0
    2.6920   -0.0486    0.0000 H   0  0  0  0  0  0  0  0  0  0  0  0
    5.4050   -1.7755    0.0000 H   0  0  0  0  0  0  0  0  0  0  0  0
    5.9105   -0.0987    0.0000 H   0  0  0  0  0  0  0  0  0  0  0  0
    7.0673    1.1861    0.0000 H   0  0  0  0  0  0  0  0  0  0  0  0
    2.5991   -3.3955    0.0000 H   0  0  0  0  0  0  0  0  0  0  0  0
    5.4050   -3.3955    0.0000 H   0  0  0  0  0  0  0  0  0  0  0  0
    6.9105   -0.0723    0.0000 H   0  0  0  0  0  0  0  0  0  0  0  0
    5.0270    3.7479    0.0000 H   0  0  0  0  0  0  0  0  0  0  0  0
    3.1495    1.6627    0.0000 H   0  0  0  0  0  0  0  0  0  0  0  0
    7.2029   -2.8544    0.0000 H   0  0  0  0  0  0  0  0  0  0  0  0
    3.8231    4.8319    0.0000 H   0  0  0  0  0  0  0  0  0  0  0  0
    1.9456    2.7466    0.0000 H   0  0  0  0  0  0  0  0  0  0  0  0
  1 29  1  0  0  0  0
  2 15  1  0  0  0  0
  3 23  1  0  0  0  0
  4 10  1  0  0  0  0
  4 34  1  0  0  0  0
  5 11  1  0  0  0  0
  5 14  1  0  0  0  0
  5 17  1  0  0  0  0
  6  8  1  0  0  0  0
  6 12  1  0  0  0  0
  6 22  1  0  0  0  0
  7 14  2  0  0  0  0
  7 19  1  0  0  0  0
  8 26  2  0  0  0  0
  9 22  2  0  0  0  0
  9 26  1  0  0  0  0
 10 11  1  0  0  0  0
 10 12  1  0  0  0  0
 10 13  1  0  0  0  0
 11 30  1  0  0  0  0
 11 31  1  0  0  0  0
 12 32  1  0  0  0  0
 12 33  1  0  0  0  0
 13 15  2  0  0  0  0
 13 16  1  0  0  0  0
 14 18  1  0  0  0  0
 15 20  1  0  0  0  0
 16 21  2  0  0  0  0
 16 35  1  0  0  0  0
 17 19  2  0  0  0  0
 17 36  1  0  0  0  0
 18 24  2  0  0  0  0
 18 25  1  0  0  0  0
 19 37  1  0  0  0  0
 20 23  2  0  0  0  0
 20 38  1  0  0  0  0
 21 23  1  0  0  0  0
 21 39  1  0  0  0  0
 22 40  1  0  0  0  0
 24 27  1  0  0  0  0
 24 41  1  0  0  0  0
 25 28  2  0  0  0  0
 25 42  1  0  0  0  0
 26 43  1  0  0  0  0
 27 29  2  0  0  0  0
 27 44  1  0  0  0  0
 28 29  1  0  0  0  0
 28 45  1  0  0  0  0
M  END
> <PUBCHEM_COMPOUND_CID>
513483
> <PUBCHEM_COMPOUND_CANONICALIZED>
1
> <PUBCHEM_CACTVS_COMPLEXITY>
541
> <PUBCHEM_CACTVS_HBOND_ACCEPTOR>
6
> <PUBCHEM_CACTVS_HBOND_DONOR>
1
> <PUBCHEM_CACTVS_ROTATABLE_BOND>
6
> <PUBCHEM_CACTVS_SUBSKEYS>
AAADceB7oYAEAAAAAAAAAAAAAAAAAWLAAAAwYAAAAAAAAAAB9AAAHwIICAAADEbBmyw9kJcMEgCiAjJnZACSgC8xl6AdyCA4PpiKbqKB2xGUcAhswAOYmCeQwOAOhAAAAAAAAAAIAAAAAAAAAAAAAAAAAA==
> <PUBCHEM_IUPAC_OPENEYE_NAME>
1-[2-(4-chlorophenyl)imidazol-1-yl]-2-(2,4-difluorophenyl)-3-(1,2,4-triazol-1-yl)propan-2-ol
> <PUBCHEM_IUPAC_CAS_NAME>
1-[2-(4-chlorophenyl)-1-imidazolyl]-2-(2,4-difluorophenyl)-3-(1,2,4-triazol-1-yl)-2-propanol
> <PUBCHEM_IUPAC_NAME_MARKUP>
1-[2-(4-chlorophenyl)imidazol-1-yl]-2-(2,4-difluorophenyl)-3-(1,2,4-triazol-1-yl)propan-2-ol
> <PUBCHEM_IUPAC_NAME>
1-[2-(4-chlorophenyl)imidazol-1-yl]-2-(2,4-difluorophenyl)-3-(1,2,4-triazol-1-yl)propan-2-ol
> <PUBCHEM_IUPAC_SYSTEMATIC_NAME>
2-[2,4-bis(fluoranyl)phenyl]-1-[2-(4-chlorophenyl)imidazol-1-yl]-3-(1,2,4-triazol-1-yl)propan-2-ol
> <PUBCHEM_IUPAC_TRADITIONAL_NAME>
1-[2-(4-chlorophenyl)imidazol-1-yl]-2-(2,4-difluorophenyl)-3-(1,2,4-triazol-1-yl)propan-2-ol
> <PUBCHEM_IUPAC_INCHI>
InChI=1S/C20H16ClF2N5O/c21-15-3-1-14(2-4-15)19-25-7-8-27(19)10-20(29,11-28-13-24-12-26-28)17-6-5-16(22)9-18(17)23/h1-9,12-13,29H,10-11H2
> <PUBCHEM_IUPAC_INCHIKEY>
VNDOIXGFERQBIR-UHFFFAOYSA-N
> <PUBCHEM_XLOGP3_AA>
2.8
> <PUBCHEM_EXACT_MASS>
415.1011442
> <PUBCHEM_MOLECULAR_FORMULA>
C20H16ClF2N5O
> <PUBCHEM_MOLECULAR_WEIGHT>
415.8
> <PUBCHEM_OPENEYE_CAN_SMILES>
C1=CC(=CC=C1C2=NC=CN2CC(CN3C=NC=N3)(C4=C(C=C(C=C4)F)F)O)Cl
> <PUBCHEM_OPENEYE_ISO_SMILES>
C1=CC(=CC=C1C2=NC=CN2CC(CN3C=NC=N3)(C4=C(C=C(C=C4)F)F)O)Cl
> <PUBCHEM_CACTVS_TPSA>
68.8
> <PUBCHEM_MONOISOTOPIC_WEIGHT>
415.1011442
> <PUBCHEM_TOTAL_CHARGE>
0
> <PUBCHEM_HEAVY_ATOM_COUNT>
29
> <PUBCHEM_ATOM_DEF_STEREO_COUNT>
0
> <PUBCHEM_ATOM_UDEF_STEREO_COUNT>
1
> <PUBCHEM_BOND_DEF_STEREO_COUNT>
0
> <PUBCHEM_BOND_UDEF_STEREO_COUNT>
0
> <PUBCHEM_ISOTOPIC_ATOM_COUNT>
0
> <PUBCHEM_COMPONENT_COUNT>
1
> <PUBCHEM_CACTVS_TAUTO_COUNT>
-1
> <PUBCHEM_COORDINATE_TYPE>
1
5
255
> <PUBCHEM_BONDANNOTATIONS>
13  15  8
13  16  8
15  20  8
16  21  8
17  19  8
18  24  8
18  25  8
20  23  8
21  23  8
24  27  8
25  28  8
27  29  8
28  29  8
10  4  3
5  14  8
5  17  8
6  22  8
6  8  8
7  14  8
7  19  8
8  26  8
9  22  8
9  26  8
$$$$
