513485
  -OEChem-10302200282D
 49 52  0     1  0  0  0  0  0999 V2000
    4.7911    5.5381    0.0000 Cl  0  0  0  0  0  0  0  0  0  0  0  0
    2.0000   -2.5381    0.0000 F   0  0  0  0  0  0  0  0  0  0  0  0
    3.7320   -5.5381    0.0000 F   0  0  0  0  0  0  0  0  0  0  0  0
    2.7320   -1.5381    0.0000 O   0  0  0  0  0  0  0  0  0  0  0  0
    3.0084    1.3165    0.0000 O   0  0  0  0  0  0  0  0  0  0  0  0
    4.5981   -0.0381    0.0000 N   0  0  0  0  0  0  0  0  0  0  0  0
    5.5981   -2.0381    0.0000 N   0  0  0  0  0  0  0  0  0  0  0  0
    5.6808    1.1643    0.0000 N   0  0  0  0  0  0  0  0  0  0  0  0
    5.7026   -3.0326    0.0000 N   0  0  0  0  0  0  0  0  0  0  0  0
    7.1808   -2.3745    0.0000 N   0  0  0  0  0  0  0  0  0  0  0  0
    3.7320   -1.5381    0.0000 C   0  0  3  0  0  0  0  0  0  0  0  0
    3.7320   -0.5381    0.0000 C   0  0  0  0  0  0  0  0  0  0  0  0
    4.7320   -1.5381    0.0000 C   0  0  0  0  0  0  0  0  0  0  0  0
    3.7320   -2.5381    0.0000 C   0  0  0  0  0  0  0  0  0  0  0  0
    4.7026    0.9564    0.0000 C   0  0  0  0  0  0  0  0  0  0  0  0
    3.9595    1.6255    0.0000 C   0  0  3  0  0  0  0  0  0  0  0  0
    5.5116   -0.4449    0.0000 C   0  0  0  0  0  0  0  0  0  0  0  0
    2.8660   -3.0381    0.0000 C   0  0  0  0  0  0  0  0  0  0  0  0
    4.5981   -3.0381    0.0000 C   0  0  0  0  0  0  0  0  0  0  0  0
    6.1808    0.2983    0.0000 C   0  0  0  0  0  0  0  0  0  0  0  0
    4.1674    2.6037    0.0000 C   0  0  0  0  0  0  0  0  0  0  0  0
    2.8660   -4.0381    0.0000 C   0  0  0  0  0  0  0  0  0  0  0  0
    4.5981   -4.0381    0.0000 C   0  0  0  0  0  0  0  0  0  0  0  0
    6.5116   -1.6314    0.0000 C   0  0  0  0  0  0  0  0  0  0  0  0
    3.7320   -4.5381    0.0000 C   0  0  0  0  0  0  0  0  0  0  0  0
    5.1184    2.9127    0.0000 C   0  0  0  0  0  0  0  0  0  0  0  0
    3.4242    3.2728    0.0000 C   0  0  0  0  0  0  0  0  0  0  0  0
    6.6808   -3.2406    0.0000 C   0  0  0  0  0  0  0  0  0  0  0  0
    5.3263    3.8908    0.0000 C   0  0  0  0  0  0  0  0  0  0  0  0
    3.6321    4.2510    0.0000 C   0  0  0  0  0  0  0  0  0  0  0  0
    4.5832    4.5600    0.0000 C   0  0  0  0  0  0  0  0  0  0  0  0
    3.5200    0.0445    0.0000 H   0  0  0  0  0  0  0  0  0  0  0  0
    3.1215   -0.6458    0.0000 H   0  0  0  0  0  0  0  0  0  0  0  0
    5.2070   -1.1396    0.0000 H   0  0  0  0  0  0  0  0  0  0  0  0
    4.5716   -2.1370    0.0000 H   0  0  0  0  0  0  0  0  0  0  0  0
    3.4987    2.0404    0.0000 H   0  0  0  0  0  0  0  0  0  0  0  0
    2.4220   -1.0012    0.0000 H   0  0  0  0  0  0  0  0  0  0  0  0
    5.6405   -1.0513    0.0000 H   0  0  0  0  0  0  0  0  0  0  0  0
    5.1350   -2.7281    0.0000 H   0  0  0  0  0  0  0  0  0  0  0  0
    6.7974    0.2335    0.0000 H   0  0  0  0  0  0  0  0  0  0  0  0
    2.3291   -4.3481    0.0000 H   0  0  0  0  0  0  0  0  0  0  0  0
    5.1350   -4.3481    0.0000 H   0  0  0  0  0  0  0  0  0  0  0  0
    6.6405   -1.0249    0.0000 H   0  0  0  0  0  0  0  0  0  0  0  0
    5.5792    2.4978    0.0000 H   0  0  0  0  0  0  0  0  0  0  0  0
    2.8346    3.0812    0.0000 H   0  0  0  0  0  0  0  0  0  0  0  0
    2.5476    1.7314    0.0000 H   0  0  0  0  0  0  0  0  0  0  0  0
    6.9329   -3.8070    0.0000 H   0  0  0  0  0  0  0  0  0  0  0  0
    5.9160    4.0824    0.0000 H   0  0  0  0  0  0  0  0  0  0  0  0
    3.1714    4.6658    0.0000 H   0  0  0  0  0  0  0  0  0  0  0  0
  1 31  1  0  0  0  0
  2 18  1  0  0  0  0
  3 25  1  0  0  0  0
  4 11  1  0  0  0  0
  4 37  1  0  0  0  0
  5 16  1  0  0  0  0
  5 46  1  0  0  0  0
  6 12  1  0  0  0  0
  6 15  1  0  0  0  0
  6 17  1  0  0  0  0
  7  9  1  0  0  0  0
  7 13  1  0  0  0  0
  7 24  1  0  0  0  0
  8 15  2  0  0  0  0
  8 20  1  0  0  0  0
  9 28  2  0  0  0  0
 10 24  2  0  0  0  0
 10 28  1  0  0  0  0
 11 12  1  0  0  0  0
 11 13  1  0  0  0  0
 11 14  1  0  0  0  0
 12 32  1  0  0  0  0
 12 33  1  0  0  0  0
 13 34  1  0  0  0  0
 13 35  1  0  0  0  0
 14 18  2  0  0  0  0
 14 19  1  0  0  0  0
 15 16  1  0  0  0  0
 16 21  1  0  0  0  0
 16 36  1  0  0  0  0
 17 20  2  0  0  0  0
 17 38  1  0  0  0  0
 18 22  1  0  0  0  0
 19 23  2  0  0  0  0
 19 39  1  0  0  0  0
 20 40  1  0  0  0  0
 21 26  2  0  0  0  0
 21 27  1  0  0  0  0
 22 25  2  0  0  0  0
 22 41  1  0  0  0  0
 23 25  1  0  0  0  0
 23 42  1  0  0  0  0
 24 43  1  0  0  0  0
 26 29  1  0  0  0  0
 26 44  1  0  0  0  0
 27 30  2  0  0  0  0
 27 45  1  0  0  0  0
 28 47  1  0  0  0  0
 29 31  2  0  0  0  0
 29 48  1  0  0  0  0
 30 31  1  0  0  0  0
 30 49  1  0  0  0  0
M  END
> <PUBCHEM_COMPOUND_CID>
513485
> <PUBCHEM_COMPOUND_CANONICALIZED>
1
> <PUBCHEM_CACTVS_COMPLEXITY>
588
> <PUBCHEM_CACTVS_HBOND_ACCEPTOR>
7
> <PUBCHEM_CACTVS_HBOND_DONOR>
2
> <PUBCHEM_CACTVS_ROTATABLE_BOND>
7
> <PUBCHEM_CACTVS_SUBSKEYS>
AAADceB7sYAEAAAAAAAAAAAAAAAAAWLAAAAwYAAAAAAAAAAB9AAAHwIICAAADFbhmy49kJcMEgCiAjJnZAQSgC8xl6AdyAA4OoiKfiKB2xGUcAAswAOYmCeQwOAOhAAAAAAAAAAIAAAAAAAAAAAAAAAAAA==
> <PUBCHEM_IUPAC_OPENEYE_NAME>
1-[2-[(4-chlorophenyl)-hydroxy-methyl]imidazol-1-yl]-2-(2,4-difluorophenyl)-3-(1,2,4-triazol-1-yl)propan-2-ol
> <PUBCHEM_IUPAC_CAS_NAME>
1-[2-[(4-chlorophenyl)-hydroxymethyl]-1-imidazolyl]-2-(2,4-difluorophenyl)-3-(1,2,4-triazol-1-yl)-2-propanol
> <PUBCHEM_IUPAC_NAME_MARKUP>
1-[2-[(4-chlorophenyl)-hydroxymethyl]imidazol-1-yl]-2-(2,4-difluorophenyl)-3-(1,2,4-triazol-1-yl)propan-2-ol
> <PUBCHEM_IUPAC_NAME>
1-[2-[(4-chlorophenyl)-hydroxymethyl]imidazol-1-yl]-2-(2,4-difluorophenyl)-3-(1,2,4-triazol-1-yl)propan-2-ol
> <PUBCHEM_IUPAC_SYSTEMATIC_NAME>
2-[2,4-bis(fluoranyl)phenyl]-1-[2-[(4-chlorophenyl)-oxidanyl-methyl]imidazol-1-yl]-3-(1,2,4-triazol-1-yl)propan-2-ol
> <PUBCHEM_IUPAC_TRADITIONAL_NAME>
1-[2-[(4-chlorophenyl)-hydroxy-methyl]imidazol-1-yl]-2-(2,4-difluorophenyl)-3-(1,2,4-triazol-1-yl)propan-2-ol
> <PUBCHEM_IUPAC_INCHI>
InChI=1S/C21H18ClF2N5O2/c22-15-3-1-14(2-4-15)19(30)20-26-7-8-28(20)10-21(31,11-29-13-25-12-27-29)17-6-5-16(23)9-18(17)24/h1-9,12-13,19,30-31H,10-11H2
> <PUBCHEM_IUPAC_INCHIKEY>
OJOYPELBCNUNKD-UHFFFAOYSA-N
> <PUBCHEM_XLOGP3_AA>
2
> <PUBCHEM_EXACT_MASS>
445.1117089
> <PUBCHEM_MOLECULAR_FORMULA>
C21H18ClF2N5O2
> <PUBCHEM_MOLECULAR_WEIGHT>
445.8
> <PUBCHEM_OPENEYE_CAN_SMILES>
C1=CC(=CC=C1C(C2=NC=CN2CC(CN3C=NC=N3)(C4=C(C=C(C=C4)F)F)O)O)Cl
> <PUBCHEM_OPENEYE_ISO_SMILES>
C1=CC(=CC=C1C(C2=NC=CN2CC(CN3C=NC=N3)(C4=C(C=C(C=C4)F)F)O)O)Cl
> <PUBCHEM_CACTVS_TPSA>
89
> <PUBCHEM_MONOISOTOPIC_WEIGHT>
445.1117089
> <PUBCHEM_TOTAL_CHARGE>
0
> <PUBCHEM_HEAVY_ATOM_COUNT>
31
> <PUBCHEM_ATOM_DEF_STEREO_COUNT>
0
> <PUBCHEM_ATOM_UDEF_STEREO_COUNT>
2
> <PUBCHEM_BOND_DEF_STEREO_COUNT>
0
> <PUBCHEM_BOND_UDEF_STEREO_COUNT>
0
> <PUBCHEM_ISOTOPIC_ATOM_COUNT>
0
> <PUBCHEM_COMPONENT_COUNT>
1
> <PUBCHEM_CACTVS_TAUTO_COUNT>
-1
> <PUBCHEM_COORDINATE_TYPE>
1
5
255
> <PUBCHEM_BONDANNOTATIONS>
10  24  8
10  28  8
14  18  8
14  19  8
17  20  8
18  22  8
19  23  8
21  26  8
21  27  8
22  25  8
23  25  8
26  29  8
27  30  8
29  31  8
30  31  8
11  4  3
16  5  3
6  15  8
6  17  8
7  24  8
7  9  8
8  15  8
8  20  8
9  28  8
$$$$
