513525
  -OEChem-10302200282D
 67 69  0     1  0  0  0  0  0999 V2000
   12.9768   -0.6774    0.0000 O   0  0  0  0  0  0  0  0  0  0  0  0
   11.4246   -2.7478    0.0000 O   0  0  0  0  0  0  0  0  0  0  0  0
   11.1972    0.4159    0.0000 O   0  0  0  0  0  0  0  0  0  0  0  0
   13.5526   -3.2001    0.0000 O   0  0  0  0  0  0  0  0  0  0  0  0
    9.4651    0.4159    0.0000 O   0  0  0  0  0  0  0  0  0  0  0  0
   11.1972    2.4159    0.0000 O   0  0  0  0  0  0  0  0  0  0  0  0
    9.4651   -0.5841    0.0000 O   0  0  0  0  0  0  0  0  0  0  0  0
    9.4651    3.4159    0.0000 O   0  0  0  0  0  0  0  0  0  0  0  0
   14.8215   -3.0385    0.0000 O   0  0  0  0  0  0  0  0  0  0  0  0
   17.6240   -1.0024    0.0000 O   0  0  0  0  0  0  0  0  0  0  0  0
    7.7331   -0.5841    0.0000 O   0  0  0  0  0  0  0  0  0  0  0  0
    2.5369    0.4159    0.0000 O   0  0  0  0  0  0  0  0  0  0  0  0
   14.6404   -1.3160    0.0000 N   0  0  0  0  0  0  0  0  0  0  0  0
   10.3312   -2.0841    0.0000 N   0  0  0  0  0  0  0  0  0  0  0  0
   16.2227   -2.0205    0.0000 N   0  0  0  0  0  0  0  0  0  0  0  0
    6.8671    0.9159    0.0000 N   0  0  0  0  0  0  0  0  0  0  0  0
   12.0632   -1.0841    0.0000 C   0  0  1  0  0  0  0  0  0  0  0  0
   12.1677   -2.0786    0.0000 C   0  0  2  0  0  0  0  0  0  0  0  0
   13.1459   -2.2865    0.0000 C   0  0  2  0  0  0  0  0  0  0  0  0
   13.6459   -1.4205    0.0000 C   0  0  1  0  0  0  0  0  0  0  0  0
   11.1972   -0.5841    0.0000 C   0  0  2  0  0  0  0  0  0  0  0  0
   10.3312    0.9159    0.0000 C   0  0  1  0  0  0  0  0  0  0  0  0
   10.3312   -1.0841    0.0000 C   0  0  0  0  0  0  0  0  0  0  0  0
   10.3312    1.9159    0.0000 C   0  0  2  0  0  0  0  0  0  0  0  0
   15.2282   -2.1250    0.0000 C   0  0  0  0  0  0  0  0  0  0  0  0
   15.0471   -0.4024    0.0000 C   0  0  0  0  0  0  0  0  0  0  0  0
    9.4651    2.4159    0.0000 C   0  0  2  0  0  0  0  0  0  0  0  0
   11.6325   -3.7259    0.0000 C   0  0  0  0  0  0  0  0  0  0  0  0
    8.5991    1.9159    0.0000 C   0  0  0  0  0  0  0  0  0  0  0  0
    8.5991    0.9159    0.0000 C   0  0  0  0  0  0  0  0  0  0  0  0
   16.0417   -0.2979    0.0000 C   0  0  0  0  0  0  0  0  0  0  0  0
   16.6295   -1.1069    0.0000 C   0  0  0  0  0  0  0  0  0  0  0  0
    7.7331    0.4159    0.0000 C   0  0  0  0  0  0  0  0  0  0  0  0
    6.0010    0.4159    0.0000 C   0  0  0  0  0  0  0  0  0  0  0  0
    5.1350    0.9159    0.0000 C   0  0  0  0  0  0  0  0  0  0  0  0
    4.2690    0.4159    0.0000 C   0  0  0  0  0  0  0  0  0  0  0  0
    3.4030    0.9159    0.0000 C   0  0  0  0  0  0  0  0  0  0  0  0
   12.1077   -0.2353    0.0000 H   0  0  0  0  0  0  0  0  0  0  0  0
   12.3282   -2.6775    0.0000 H   0  0  0  0  0  0  0  0  0  0  0  0
   13.7650   -2.3190    0.0000 H   0  0  0  0  0  0  0  0  0  0  0  0
   13.9836   -1.9405    0.0000 H   0  0  0  0  0  0  0  0  0  0  0  0
   10.6603   -0.2741    0.0000 H   0  0  0  0  0  0  0  0  0  0  0  0
   10.8681    1.2259    0.0000 H   0  0  0  0  0  0  0  0  0  0  0  0
   13.1882   -3.7017    0.0000 H   0  0  0  0  0  0  0  0  0  0  0  0
   10.3312    2.5359    0.0000 H   0  0  0  0  0  0  0  0  0  0  0  0
   14.6827    0.0992    0.0000 H   0  0  0  0  0  0  0  0  0  0  0  0
    8.9282    2.7259    0.0000 H   0  0  0  0  0  0  0  0  0  0  0  0
   11.0261   -3.8548    0.0000 H   0  0  0  0  0  0  0  0  0  0  0  0
   11.7614   -4.3324    0.0000 H   0  0  0  0  0  0  0  0  0  0  0  0
   12.2390   -3.5970    0.0000 H   0  0  0  0  0  0  0  0  0  0  0  0
    8.0622    2.2259    0.0000 H   0  0  0  0  0  0  0  0  0  0  0  0
    9.7942   -2.3941    0.0000 H   0  0  0  0  0  0  0  0  0  0  0  0
   10.8681   -2.3941    0.0000 H   0  0  0  0  0  0  0  0  0  0  0  0
   16.5871   -2.5221    0.0000 H   0  0  0  0  0  0  0  0  0  0  0  0
   16.2938    0.2685    0.0000 H   0  0  0  0  0  0  0  0  0  0  0  0
   11.1972    3.0359    0.0000 H   0  0  0  0  0  0  0  0  0  0  0  0
    8.9282    3.7259    0.0000 H   0  0  0  0  0  0  0  0  0  0  0  0
    6.8671    1.5359    0.0000 H   0  0  0  0  0  0  0  0  0  0  0  0
    5.6025   -0.0590    0.0000 H   0  0  0  0  0  0  0  0  0  0  0  0
    6.3996   -0.0590    0.0000 H   0  0  0  0  0  0  0  0  0  0  0  0
    5.5335    1.3908    0.0000 H   0  0  0  0  0  0  0  0  0  0  0  0
    4.7365    1.3908    0.0000 H   0  0  0  0  0  0  0  0  0  0  0  0
    3.8705   -0.0590    0.0000 H   0  0  0  0  0  0  0  0  0  0  0  0
    4.6675   -0.0590    0.0000 H   0  0  0  0  0  0  0  0  0  0  0  0
    3.8015    1.3908    0.0000 H   0  0  0  0  0  0  0  0  0  0  0  0
    3.0044    1.3908    0.0000 H   0  0  0  0  0  0  0  0  0  0  0  0
    2.0000    0.7259    0.0000 H   0  0  0  0  0  0  0  0  0  0  0  0
  1 17  1  0  0  0  0
  1 20  1  0  0  0  0
 18  2  1  6  0  0  0
  2 28  1  0  0  0  0
 21  3  1  6  0  0  0
 22  3  1  1  0  0  0
 19  4  1  6  0  0  0
  4 44  1  0  0  0  0
  5 22  1  0  0  0  0
  5 30  1  0  0  0  0
 24  6  1  6  0  0  0
  6 56  1  0  0  0  0
  7 23  2  0  0  0  0
 27  8  1  6  0  0  0
  8 57  1  0  0  0  0
  9 25  2  0  0  0  0
 10 32  2  0  0  0  0
 11 33  2  0  0  0  0
 12 37  1  0  0  0  0
 12 67  1  0  0  0  0
 20 13  1  1  0  0  0
 13 25  1  0  0  0  0
 13 26  1  0  0  0  0
 14 23  1  0  0  0  0
 14 52  1  0  0  0  0
 14 53  1  0  0  0  0
 15 25  1  0  0  0  0
 15 32  1  0  0  0  0
 15 54  1  0  0  0  0
 16 33  1  0  0  0  0
 16 34  1  0  0  0  0
 16 58  1  0  0  0  0
 17 18  1  0  0  0  0
 17 21  1  0  0  0  0
 17 38  1  6  0  0  0
 18 19  1  0  0  0  0
 18 39  1  0  0  0  0
 19 20  1  0  0  0  0
 19 40  1  0  0  0  0
 20 41  1  0  0  0  0
 21 23  1  0  0  0  0
 21 42  1  0  0  0  0
 22 24  1  0  0  0  0
 22 43  1  0  0  0  0
 24 27  1  0  0  0  0
 24 45  1  0  0  0  0
 26 31  2  0  0  0  0
 26 46  1  0  0  0  0
 27 29  1  0  0  0  0
 27 47  1  0  0  0  0
 28 48  1  0  0  0  0
 28 49  1  0  0  0  0
 28 50  1  0  0  0  0
 29 30  2  0  0  0  0
 29 51  1  0  0  0  0
 30 33  1  0  0  0  0
 31 32  1  0  0  0  0
 31 55  1  0  0  0  0
 34 35  1  0  0  0  0
 34 59  1  0  0  0  0
 34 60  1  0  0  0  0
 35 36  1  0  0  0  0
 35 61  1  0  0  0  0
 35 62  1  0  0  0  0
 36 37  1  0  0  0  0
 36 63  1  0  0  0  0
 36 64  1  0  0  0  0
 37 65  1  0  0  0  0
 37 66  1  0  0  0  0
M  END
> <PUBCHEM_COMPOUND_CID>
513525
> <PUBCHEM_COMPOUND_CANONICALIZED>
1
> <PUBCHEM_CACTVS_COMPLEXITY>
943
> <PUBCHEM_CACTVS_HBOND_ACCEPTOR>
12
> <PUBCHEM_CACTVS_HBOND_DONOR>
7
> <PUBCHEM_CACTVS_ROTATABLE_BOND>
11
> <PUBCHEM_CACTVS_SUBSKEYS>
AAADceB7vAAAAAAAAAAAAAAAAAAAASAAAAAgQAAAAAAAAAAAAAAAHgAQCAAACBTxgAcDCAPABgCIACFWUAKACAAgIgAICIFIAEiTFBYAgAQvUAAP9yKfEcP6fA5AAAAAAAAAAAAAAAAAAAAAAAAAAAAAAA==
> <PUBCHEM_IUPAC_OPENEYE_NAME>
(2S,3S,4S)-2-[(1R)-2-amino-1-[(2S,3S,4R,5R)-5-(2,4-dioxopyrimidin-1-yl)-4-hydroxy-3-methoxy-tetrahydrofuran-2-yl]-2-oxo-ethoxy]-3,4-dihydroxy-N-(4-hydroxybutyl)-3,4-dihydro-2H-pyran-6-carboxamide
> <PUBCHEM_IUPAC_CAS_NAME>
(2S,3S,4S)-2-[(1R)-2-amino-1-[(2S,3S,4R,5R)-5-(2,4-dioxo-1-pyrimidinyl)-4-hydroxy-3-methoxy-2-oxolanyl]-2-oxoethoxy]-3,4-dihydroxy-N-(4-hydroxybutyl)-3,4-dihydro-2H-pyran-6-carboxamide
> <PUBCHEM_IUPAC_NAME_MARKUP>
(2<I>S</I>,3<I>S</I>,4<I>S</I>)-2-[(1<I>R</I>)-2-amino-1-[(2<I>S</I>,3<I>S</I>,4<I>R</I>,5<I>R</I>)-5-(2,4-dioxopyrimidin-1-yl)-4-hydroxy-3-methoxyoxolan-2-yl]-2-oxoethoxy]-3,4-dihydroxy-<I>N</I>-(4-hydroxybutyl)-3,4-dihydro-2<I>H</I>-pyran-6-carboxamide
> <PUBCHEM_IUPAC_NAME>
(2S,3S,4S)-2-[(1R)-2-amino-1-[(2S,3S,4R,5R)-5-(2,4-dioxopyrimidin-1-yl)-4-hydroxy-3-methoxyoxolan-2-yl]-2-oxoethoxy]-3,4-dihydroxy-N-(4-hydroxybutyl)-3,4-dihydro-2H-pyran-6-carboxamide
> <PUBCHEM_IUPAC_SYSTEMATIC_NAME>
(2S,3S,4S)-2-[(1R)-2-azanyl-1-[(2S,3S,4R,5R)-5-[2,4-bis(oxidanylidene)pyrimidin-1-yl]-3-methoxy-4-oxidanyl-oxolan-2-yl]-2-oxidanylidene-ethoxy]-3,4-bis(oxidanyl)-N-(4-oxidanylbutyl)-3,4-dihydro-2H-pyran-6-carboxamide
> <PUBCHEM_IUPAC_TRADITIONAL_NAME>
(2S,3S,4S)-2-[(1R)-2-amino-1-[(2S,3S,4R,5R)-5-(2,4-diketopyrimidin-1-yl)-4-hydroxy-3-methoxy-tetrahydrofuran-2-yl]-2-keto-ethoxy]-3,4-dihydroxy-N-(4-hydroxybutyl)-3,4-dihydro-2H-pyran-6-carboxamide
> <PUBCHEM_IUPAC_INCHI>
InChI=1S/C21H30N4O12/c1-34-14-13(30)19(25-6-4-11(28)24-21(25)33)36-15(14)16(17(22)31)37-20-12(29)9(27)8-10(35-20)18(32)23-5-2-3-7-26/h4,6,8-9,12-16,19-20,26-27,29-30H,2-3,5,7H2,1H3,(H2,22,31)(H,23,32)(H,24,28,33)/t9-,12-,13+,14-,15-,16+,19+,20+/m0/s1
> <PUBCHEM_IUPAC_INCHIKEY>
WCWSEGYDLJNITC-SUWLUJSASA-N
> <PUBCHEM_XLOGP3_AA>
-4.3
> <PUBCHEM_EXACT_MASS>
530.18602241
> <PUBCHEM_MOLECULAR_FORMULA>
C21H30N4O12
> <PUBCHEM_MOLECULAR_WEIGHT>
530.5
> <PUBCHEM_OPENEYE_CAN_SMILES>
COC1C(C(OC1C(C(=O)N)OC2C(C(C=C(O2)C(=O)NCCCCO)O)O)N3C=CC(=O)NC3=O)O
> <PUBCHEM_OPENEYE_ISO_SMILES>
CO[C@H]1[C@H]([C@@H](O[C@@H]1[C@H](C(=O)N)O[C@@H]2[C@H]([C@H](C=C(O2)C(=O)NCCCCO)O)O)N3C=CC(=O)NC3=O)O
> <PUBCHEM_CACTVS_TPSA>
239
> <PUBCHEM_MONOISOTOPIC_WEIGHT>
530.18602241
> <PUBCHEM_TOTAL_CHARGE>
0
> <PUBCHEM_HEAVY_ATOM_COUNT>
37
> <PUBCHEM_ATOM_DEF_STEREO_COUNT>
8
> <PUBCHEM_ATOM_UDEF_STEREO_COUNT>
0
> <PUBCHEM_BOND_DEF_STEREO_COUNT>
0
> <PUBCHEM_BOND_UDEF_STEREO_COUNT>
0
> <PUBCHEM_ISOTOPIC_ATOM_COUNT>
0
> <PUBCHEM_COMPONENT_COUNT>
1
> <PUBCHEM_CACTVS_TAUTO_COUNT>
-1
> <PUBCHEM_COORDINATE_TYPE>
1
5
255
> <PUBCHEM_BONDANNOTATIONS>
20  13  5
13  25  8
13  26  8
15  25  8
15  32  8
17  38  6
18  2  6
26  31  8
21  3  6
22  3  5
31  32  8
19  4  6
24  6  6
27  8  6
$$$$
