513541
  -OEChem-10302200282D
 80 84  0     1  0  0  0  0  0999 V2000
   12.4398   -0.7724    0.0000 O   0  0  0  0  0  0  0  0  0  0  0  0
   10.8877   -2.8428    0.0000 O   0  0  0  0  0  0  0  0  0  0  0  0
   10.6603    0.3209    0.0000 O   0  0  0  0  0  0  0  0  0  0  0  0
   13.0157   -3.2951    0.0000 O   0  0  0  0  0  0  0  0  0  0  0  0
    8.9282    0.3209    0.0000 O   0  0  0  0  0  0  0  0  0  0  0  0
    8.9282   -0.6791    0.0000 O   0  0  0  0  0  0  0  0  0  0  0  0
   10.6603    2.3209    0.0000 O   0  0  0  0  0  0  0  0  0  0  0  0
    8.9282    3.3209    0.0000 O   0  0  0  0  0  0  0  0  0  0  0  0
   14.2845   -3.1335    0.0000 O   0  0  0  0  0  0  0  0  0  0  0  0
   17.0870   -1.0974    0.0000 O   0  0  0  0  0  0  0  0  0  0  0  0
    7.1962   -0.6791    0.0000 O   0  0  0  0  0  0  0  0  0  0  0  0
   14.1035   -1.4110    0.0000 N   0  0  0  0  0  0  0  0  0  0  0  0
   15.6858   -2.1155    0.0000 N   0  0  0  0  0  0  0  0  0  0  0  0
    9.7942   -2.1791    0.0000 N   0  0  0  0  0  0  0  0  0  0  0  0
    6.3301    0.8209    0.0000 N   0  0  0  0  0  0  0  0  0  0  0  0
   11.5263   -1.1791    0.0000 C   0  0  1  0  0  0  0  0  0  0  0  0
   11.6308   -2.1736    0.0000 C   0  0  2  0  0  0  0  0  0  0  0  0
   12.6090   -2.3815    0.0000 C   0  0  2  0  0  0  0  0  0  0  0  0
   13.1090   -1.5155    0.0000 C   0  0  1  0  0  0  0  0  0  0  0  0
   10.6603   -0.6791    0.0000 C   0  0  2  0  0  0  0  0  0  0  0  0
    9.7942    0.8209    0.0000 C   0  0  1  0  0  0  0  0  0  0  0  0
    9.7942   -1.1791    0.0000 C   0  0  0  0  0  0  0  0  0  0  0  0
    9.7942    1.8209    0.0000 C   0  0  2  0  0  0  0  0  0  0  0  0
   14.6913   -2.2200    0.0000 C   0  0  0  0  0  0  0  0  0  0  0  0
   14.5102   -0.4974    0.0000 C   0  0  0  0  0  0  0  0  0  0  0  0
   11.0956   -3.8209    0.0000 C   0  0  0  0  0  0  0  0  0  0  0  0
    8.9282    2.3209    0.0000 C   0  0  2  0  0  0  0  0  0  0  0  0
   15.5047   -0.3929    0.0000 C   0  0  0  0  0  0  0  0  0  0  0  0
    8.0622    1.8209    0.0000 C   0  0  0  0  0  0  0  0  0  0  0  0
    8.0622    0.8209    0.0000 C   0  0  0  0  0  0  0  0  0  0  0  0
   16.0925   -1.2019    0.0000 C   0  0  0  0  0  0  0  0  0  0  0  0
    7.1962    0.3209    0.0000 C   0  0  0  0  0  0  0  0  0  0  0  0
    4.5981    0.8209    0.0000 C   0  0  0  0  0  0  0  0  0  0  0  0
    5.4641    0.3209    0.0000 C   0  0  0  0  0  0  0  0  0  0  0  0
    3.7320    0.3209    0.0000 C   0  0  0  0  0  0  0  0  0  0  0  0
    4.5981    1.8209    0.0000 C   0  0  0  0  0  0  0  0  0  0  0  0
    3.7320   -0.6791    0.0000 C   0  0  0  0  0  0  0  0  0  0  0  0
    3.7320    2.3209    0.0000 C   0  0  0  0  0  0  0  0  0  0  0  0
    2.8660    0.8209    0.0000 C   0  0  0  0  0  0  0  0  0  0  0  0
    5.4641    2.3209    0.0000 C   0  0  0  0  0  0  0  0  0  0  0  0
    2.8660   -1.1791    0.0000 C   0  0  0  0  0  0  0  0  0  0  0  0
    3.7320    3.3209    0.0000 C   0  0  0  0  0  0  0  0  0  0  0  0
    2.0000    0.3209    0.0000 C   0  0  0  0  0  0  0  0  0  0  0  0
    5.4641    3.3209    0.0000 C   0  0  0  0  0  0  0  0  0  0  0  0
    2.0000   -0.6791    0.0000 C   0  0  0  0  0  0  0  0  0  0  0  0
    4.5981    3.8209    0.0000 C   0  0  0  0  0  0  0  0  0  0  0  0
   12.2624   -1.6041    0.0000 H   0  0  0  0  0  0  0  0  0  0  0  0
   11.7913   -2.7725    0.0000 H   0  0  0  0  0  0  0  0  0  0  0  0
   13.2281   -2.4140    0.0000 H   0  0  0  0  0  0  0  0  0  0  0  0
   13.4466   -2.0355    0.0000 H   0  0  0  0  0  0  0  0  0  0  0  0
   11.1972   -0.3691    0.0000 H   0  0  0  0  0  0  0  0  0  0  0  0
    9.7942    0.2009    0.0000 H   0  0  0  0  0  0  0  0  0  0  0  0
   12.6513   -3.7967    0.0000 H   0  0  0  0  0  0  0  0  0  0  0  0
    9.7942    2.4409    0.0000 H   0  0  0  0  0  0  0  0  0  0  0  0
   14.1458    0.0042    0.0000 H   0  0  0  0  0  0  0  0  0  0  0  0
   10.4891   -3.9498    0.0000 H   0  0  0  0  0  0  0  0  0  0  0  0
   11.2245   -4.4274    0.0000 H   0  0  0  0  0  0  0  0  0  0  0  0
   11.7020   -3.6920    0.0000 H   0  0  0  0  0  0  0  0  0  0  0  0
    8.3913    2.6309    0.0000 H   0  0  0  0  0  0  0  0  0  0  0  0
   16.0502   -2.6171    0.0000 H   0  0  0  0  0  0  0  0  0  0  0  0
   15.7569    0.1735    0.0000 H   0  0  0  0  0  0  0  0  0  0  0  0
    7.5252    2.1309    0.0000 H   0  0  0  0  0  0  0  0  0  0  0  0
    9.2573   -2.4891    0.0000 H   0  0  0  0  0  0  0  0  0  0  0  0
   10.3312   -2.4891    0.0000 H   0  0  0  0  0  0  0  0  0  0  0  0
   10.6603    2.9409    0.0000 H   0  0  0  0  0  0  0  0  0  0  0  0
    8.3913    3.6309    0.0000 H   0  0  0  0  0  0  0  0  0  0  0  0
    4.5981    0.2009    0.0000 H   0  0  0  0  0  0  0  0  0  0  0  0
    5.0656   -0.1540    0.0000 H   0  0  0  0  0  0  0  0  0  0  0  0
    5.8626   -0.1540    0.0000 H   0  0  0  0  0  0  0  0  0  0  0  0
    6.3301    1.4409    0.0000 H   0  0  0  0  0  0  0  0  0  0  0  0
    4.2690   -0.9891    0.0000 H   0  0  0  0  0  0  0  0  0  0  0  0
    3.1951    2.0109    0.0000 H   0  0  0  0  0  0  0  0  0  0  0  0
    2.8660    1.4409    0.0000 H   0  0  0  0  0  0  0  0  0  0  0  0
    6.0010    2.0109    0.0000 H   0  0  0  0  0  0  0  0  0  0  0  0
    2.8660   -1.7991    0.0000 H   0  0  0  0  0  0  0  0  0  0  0  0
    3.1951    3.6309    0.0000 H   0  0  0  0  0  0  0  0  0  0  0  0
    1.4631    0.6309    0.0000 H   0  0  0  0  0  0  0  0  0  0  0  0
    6.0010    3.6309    0.0000 H   0  0  0  0  0  0  0  0  0  0  0  0
    1.4631   -0.9891    0.0000 H   0  0  0  0  0  0  0  0  0  0  0  0
    4.5981    4.4409    0.0000 H   0  0  0  0  0  0  0  0  0  0  0  0
  1 16  1  0  0  0  0
  1 19  1  0  0  0  0
 17  2  1  6  0  0  0
  2 26  1  0  0  0  0
 20  3  1  6  0  0  0
 21  3  1  1  0  0  0
 18  4  1  6  0  0  0
  4 53  1  0  0  0  0
  5 21  1  0  0  0  0
  5 30  1  0  0  0  0
  6 22  2  0  0  0  0
 23  7  1  6  0  0  0
  7 65  1  0  0  0  0
 27  8  1  6  0  0  0
  8 66  1  0  0  0  0
  9 24  2  0  0  0  0
 10 31  2  0  0  0  0
 11 32  2  0  0  0  0
 19 12  1  1  0  0  0
 12 24  1  0  0  0  0
 12 25  1  0  0  0  0
 13 24  1  0  0  0  0
 13 31  1  0  0  0  0
 13 60  1  0  0  0  0
 14 22  1  0  0  0  0
 14 63  1  0  0  0  0
 14 64  1  0  0  0  0
 15 32  1  0  0  0  0
 15 34  1  0  0  0  0
 15 70  1  0  0  0  0
 16 17  1  0  0  0  0
 16 20  1  0  0  0  0
 16 47  1  6  0  0  0
 17 18  1  0  0  0  0
 17 48  1  0  0  0  0
 18 19  1  0  0  0  0
 18 49  1  0  0  0  0
 19 50  1  0  0  0  0
 20 22  1  0  0  0  0
 20 51  1  0  0  0  0
 21 23  1  0  0  0  0
 21 52  1  0  0  0  0
 23 27  1  0  0  0  0
 23 54  1  0  0  0  0
 25 28  2  0  0  0  0
 25 55  1  0  0  0  0
 26 56  1  0  0  0  0
 26 57  1  0  0  0  0
 26 58  1  0  0  0  0
 27 29  1  0  0  0  0
 27 59  1  0  0  0  0
 28 31  1  0  0  0  0
 28 61  1  0  0  0  0
 29 30  2  0  0  0  0
 29 62  1  0  0  0  0
 30 32  1  0  0  0  0
 33 34  1  0  0  0  0
 33 35  1  0  0  0  0
 33 36  1  0  0  0  0
 33 67  1  0  0  0  0
 34 68  1  0  0  0  0
 34 69  1  0  0  0  0
 35 37  2  0  0  0  0
 35 39  1  0  0  0  0
 36 38  2  0  0  0  0
 36 40  1  0  0  0  0
 37 41  1  0  0  0  0
 37 71  1  0  0  0  0
 38 42  1  0  0  0  0
 38 72  1  0  0  0  0
 39 43  2  0  0  0  0
 39 73  1  0  0  0  0
 40 44  2  0  0  0  0
 40 74  1  0  0  0  0
 41 45  2  0  0  0  0
 41 75  1  0  0  0  0
 42 46  2  0  0  0  0
 42 76  1  0  0  0  0
 43 45  1  0  0  0  0
 43 77  1  0  0  0  0
 44 46  1  0  0  0  0
 44 78  1  0  0  0  0
 45 79  1  0  0  0  0
 46 80  1  0  0  0  0
M  END
> <PUBCHEM_COMPOUND_CID>
513541
> <PUBCHEM_COMPOUND_CANONICALIZED>
1
> <PUBCHEM_CACTVS_COMPLEXITY>
1170
> <PUBCHEM_CACTVS_HBOND_ACCEPTOR>
11
> <PUBCHEM_CACTVS_HBOND_DONOR>
6
> <PUBCHEM_CACTVS_ROTATABLE_BOND>
11
> <PUBCHEM_CACTVS_SUBSKEYS>
AAADcfB7vAAAAAAAAAAAAAAAAAAAASAAAAAwYIEAAAAAAAABQAAAHgAQCAAADRTxmAczCIPABgCIAiFWUAKCCAAgIgAIiIFIAMibNDaAkRWvcAAv9yKfmcf6/M5OgAAAAAAAAAAAAAAAAAAAAAAAAAAAAA==
> <PUBCHEM_IUPAC_OPENEYE_NAME>
(2S,3S,4S)-2-[(1R)-2-amino-1-[(2S,3S,4R,5R)-5-(2,4-dioxopyrimidin-1-yl)-4-hydroxy-3-methoxy-tetrahydrofuran-2-yl]-2-oxo-ethoxy]-N-(2,2-diphenylethyl)-3,4-dihydroxy-3,4-dihydro-2H-pyran-6-carboxamide
> <PUBCHEM_IUPAC_CAS_NAME>
(2S,3S,4S)-2-[(1R)-2-amino-1-[(2S,3S,4R,5R)-5-(2,4-dioxo-1-pyrimidinyl)-4-hydroxy-3-methoxy-2-oxolanyl]-2-oxoethoxy]-N-(2,2-diphenylethyl)-3,4-dihydroxy-3,4-dihydro-2H-pyran-6-carboxamide
> <PUBCHEM_IUPAC_NAME_MARKUP>
(2<I>S</I>,3<I>S</I>,4<I>S</I>)-2-[(1<I>R</I>)-2-amino-1-[(2<I>S</I>,3<I>S</I>,4<I>R</I>,5<I>R</I>)-5-(2,4-dioxopyrimidin-1-yl)-4-hydroxy-3-methoxyoxolan-2-yl]-2-oxoethoxy]-<I>N</I>-(2,2-diphenylethyl)-3,4-dihydroxy-3,4-dihydro-2<I>H</I>-pyran-6-carboxamide
> <PUBCHEM_IUPAC_NAME>
(2S,3S,4S)-2-[(1R)-2-amino-1-[(2S,3S,4R,5R)-5-(2,4-dioxopyrimidin-1-yl)-4-hydroxy-3-methoxyoxolan-2-yl]-2-oxoethoxy]-N-(2,2-diphenylethyl)-3,4-dihydroxy-3,4-dihydro-2H-pyran-6-carboxamide
> <PUBCHEM_IUPAC_SYSTEMATIC_NAME>
(2S,3S,4S)-2-[(1R)-2-azanyl-1-[(2S,3S,4R,5R)-5-[2,4-bis(oxidanylidene)pyrimidin-1-yl]-3-methoxy-4-oxidanyl-oxolan-2-yl]-2-oxidanylidene-ethoxy]-N-(2,2-diphenylethyl)-3,4-bis(oxidanyl)-3,4-dihydro-2H-pyran-6-carboxamide
> <PUBCHEM_IUPAC_TRADITIONAL_NAME>
(2S,3S,4S)-2-[(1R)-2-amino-1-[(2S,3S,4R,5R)-5-(2,4-diketopyrimidin-1-yl)-4-hydroxy-3-methoxy-tetrahydrofuran-2-yl]-2-keto-ethoxy]-N-(2,2-diphenylethyl)-3,4-dihydroxy-3,4-dihydro-2H-pyran-6-carboxamide
> <PUBCHEM_IUPAC_INCHI>
InChI=1S/C31H34N4O11/c1-43-24-23(39)29(35-13-12-21(37)34-31(35)42)45-25(24)26(27(32)40)46-30-22(38)19(36)14-20(44-30)28(41)33-15-18(16-8-4-2-5-9-16)17-10-6-3-7-11-17/h2-14,18-19,22-26,29-30,36,38-39H,15H2,1H3,(H2,32,40)(H,33,41)(H,34,37,42)/t19-,22-,23+,24-,25-,26+,29+,30+/m0/s1
> <PUBCHEM_IUPAC_INCHIKEY>
WEJMHXHNNKZSFR-LTRPPTTCSA-N
> <PUBCHEM_XLOGP3_AA>
-0.9
> <PUBCHEM_EXACT_MASS>
638.22240791
> <PUBCHEM_MOLECULAR_FORMULA>
C31H34N4O11
> <PUBCHEM_MOLECULAR_WEIGHT>
638.6
> <PUBCHEM_OPENEYE_CAN_SMILES>
COC1C(C(OC1C(C(=O)N)OC2C(C(C=C(O2)C(=O)NCC(C3=CC=CC=C3)C4=CC=CC=C4)O)O)N5C=CC(=O)NC5=O)O
> <PUBCHEM_OPENEYE_ISO_SMILES>
CO[C@H]1[C@H]([C@@H](O[C@@H]1[C@H](C(=O)N)O[C@@H]2[C@H]([C@H](C=C(O2)C(=O)NCC(C3=CC=CC=C3)C4=CC=CC=C4)O)O)N5C=CC(=O)NC5=O)O
> <PUBCHEM_CACTVS_TPSA>
219
> <PUBCHEM_MONOISOTOPIC_WEIGHT>
638.22240791
> <PUBCHEM_TOTAL_CHARGE>
0
> <PUBCHEM_HEAVY_ATOM_COUNT>
46
> <PUBCHEM_ATOM_DEF_STEREO_COUNT>
8
> <PUBCHEM_ATOM_UDEF_STEREO_COUNT>
0
> <PUBCHEM_BOND_DEF_STEREO_COUNT>
0
> <PUBCHEM_BOND_UDEF_STEREO_COUNT>
0
> <PUBCHEM_ISOTOPIC_ATOM_COUNT>
0
> <PUBCHEM_COMPONENT_COUNT>
1
> <PUBCHEM_CACTVS_TAUTO_COUNT>
-1
> <PUBCHEM_COORDINATE_TYPE>
1
5
255
> <PUBCHEM_BONDANNOTATIONS>
19  12  5
12  24  8
12  25  8
13  24  8
13  31  8
16  47  6
17  2  6
25  28  8
28  31  8
20  3  6
21  3  5
35  37  8
35  39  8
36  38  8
36  40  8
37  41  8
38  42  8
39  43  8
18  4  6
40  44  8
41  45  8
42  46  8
43  45  8
44  46  8
23  7  6
27  8  6
$$$$
