513504
  -OEChem-10302200282D
 45 48  0     1  0  0  0  0  0999 V2000
    9.0352   -1.1291    0.0000 F   0  0  0  0  0  0  0  0  0  0  0  0
   11.6135    1.1844    0.0000 F   0  0  0  0  0  0  0  0  0  0  0  0
    7.9057   -0.6190    0.0000 O   0  0  0  0  0  0  0  0  0  0  0  0
    2.8660   -0.6020    0.0000 O   0  0  0  0  0  0  0  0  0  0  0  0
    6.4103   -0.7972    0.0000 N   0  0  0  0  0  0  0  0  0  0  0  0
    6.5428    1.6487    0.0000 N   0  0  0  0  0  0  0  0  0  0  0  0
    6.4103   -2.4067    0.0000 N   0  0  0  0  0  0  0  0  0  0  0  0
    6.2354    2.6002    0.0000 N   0  0  0  0  0  0  0  0  0  0  0  0
    4.9247    1.6515    0.0000 N   0  0  0  0  0  0  0  0  0  0  0  0
    7.6995    0.3595    0.0000 C   0  0  3  0  0  0  0  0  0  0  0  0
    6.7210    0.1533    0.0000 C   0  0  0  0  0  0  0  0  0  0  0  0
    7.4933    1.3380    0.0000 C   0  0  0  0  0  0  0  0  0  0  0  0
    8.6780    0.5657    0.0000 C   0  0  0  0  0  0  0  0  0  0  0  0
    5.4641   -1.1020    0.0000 C   0  0  0  0  0  0  0  0  0  0  0  0
    6.9939   -1.6020    0.0000 C   0  0  0  0  0  0  0  0  0  0  0  0
    5.4641   -2.1020    0.0000 C   0  0  0  0  0  0  0  0  0  0  0  0
    9.3458   -0.1786    0.0000 C   0  0  0  0  0  0  0  0  0  0  0  0
    8.9887    1.5162    0.0000 C   0  0  0  0  0  0  0  0  0  0  0  0
    4.5981   -0.6020    0.0000 C   0  0  0  0  0  0  0  0  0  0  0  0
   10.3243    0.0276    0.0000 C   0  0  0  0  0  0  0  0  0  0  0  0
    9.9672    1.7224    0.0000 C   0  0  0  0  0  0  0  0  0  0  0  0
    4.5981   -2.6020    0.0000 C   0  0  0  0  0  0  0  0  0  0  0  0
    5.7327    1.0623    0.0000 C   0  0  0  0  0  0  0  0  0  0  0  0
    3.7320   -1.1020    0.0000 C   0  0  0  0  0  0  0  0  0  0  0  0
   10.6350    0.9781    0.0000 C   0  0  0  0  0  0  0  0  0  0  0  0
    3.7320   -2.1020    0.0000 C   0  0  0  0  0  0  0  0  0  0  0  0
    5.2354    2.6020    0.0000 C   0  0  0  0  0  0  0  0  0  0  0  0
    2.0000   -1.1020    0.0000 C   0  0  0  0  0  0  0  0  0  0  0  0
    6.7004    0.7729    0.0000 H   0  0  0  0  0  0  0  0  0  0  0  0
    6.1072    0.2406    0.0000 H   0  0  0  0  0  0  0  0  0  0  0  0
    8.1129    1.3586    0.0000 H   0  0  0  0  0  0  0  0  0  0  0  0
    7.5806    1.9518    0.0000 H   0  0  0  0  0  0  0  0  0  0  0  0
    7.4442   -1.0331    0.0000 H   0  0  0  0  0  0  0  0  0  0  0  0
    7.6139   -1.6020    0.0000 H   0  0  0  0  0  0  0  0  0  0  0  0
    8.5746    1.9777    0.0000 H   0  0  0  0  0  0  0  0  0  0  0  0
    4.5981    0.0180    0.0000 H   0  0  0  0  0  0  0  0  0  0  0  0
   10.7384   -0.4338    0.0000 H   0  0  0  0  0  0  0  0  0  0  0  0
   10.1598    2.3118    0.0000 H   0  0  0  0  0  0  0  0  0  0  0  0
    4.5981   -3.2220    0.0000 H   0  0  0  0  0  0  0  0  0  0  0  0
    5.7316    0.4423    0.0000 H   0  0  0  0  0  0  0  0  0  0  0  0
    3.1951   -2.4120    0.0000 H   0  0  0  0  0  0  0  0  0  0  0  0
    4.8718    3.1042    0.0000 H   0  0  0  0  0  0  0  0  0  0  0  0
    1.6900   -0.5650    0.0000 H   0  0  0  0  0  0  0  0  0  0  0  0
    1.4631   -1.4120    0.0000 H   0  0  0  0  0  0  0  0  0  0  0  0
    2.3100   -1.6389    0.0000 H   0  0  0  0  0  0  0  0  0  0  0  0
  1 17  1  0  0  0  0
  2 25  1  0  0  0  0
  3 10  1  0  0  0  0
  3 33  1  0  0  0  0
  4 24  1  0  0  0  0
  4 28  1  0  0  0  0
  5 11  1  0  0  0  0
  5 14  1  0  0  0  0
  5 15  1  0  0  0  0
  6  8  1  0  0  0  0
  6 12  1  0  0  0  0
  6 23  1  0  0  0  0
  7 15  2  0  0  0  0
  7 16  1  0  0  0  0
  8 27  2  0  0  0  0
  9 23  2  0  0  0  0
  9 27  1  0  0  0  0
 10 11  1  0  0  0  0
 10 12  1  0  0  0  0
 10 13  1  0  0  0  0
 11 29  1  0  0  0  0
 11 30  1  0  0  0  0
 12 31  1  0  0  0  0
 12 32  1  0  0  0  0
 13 17  2  0  0  0  0
 13 18  1  0  0  0  0
 14 16  2  0  0  0  0
 14 19  1  0  0  0  0
 15 34  1  0  0  0  0
 16 22  1  0  0  0  0
 17 20  1  0  0  0  0
 18 21  2  0  0  0  0
 18 35  1  0  0  0  0
 19 24  2  0  0  0  0
 19 36  1  0  0  0  0
 20 25  2  0  0  0  0
 20 37  1  0  0  0  0
 21 25  1  0  0  0  0
 21 38  1  0  0  0  0
 22 26  2  0  0  0  0
 22 39  1  0  0  0  0
 23 40  1  0  0  0  0
 24 26  1  0  0  0  0
 26 41  1  0  0  0  0
 27 42  1  0  0  0  0
 28 43  1  0  0  0  0
 28 44  1  0  0  0  0
 28 45  1  0  0  0  0
M  END
> <PUBCHEM_COMPOUND_CID>
513504
> <PUBCHEM_COMPOUND_CANONICALIZED>
1
> <PUBCHEM_CACTVS_COMPLEXITY>
533
> <PUBCHEM_CACTVS_HBOND_ACCEPTOR>
7
> <PUBCHEM_CACTVS_HBOND_DONOR>
1
> <PUBCHEM_CACTVS_ROTATABLE_BOND>
6
> <PUBCHEM_CACTVS_SUBSKEYS>
AAADceB7sYAAAAAAAAAAAAAAAAAAAWLAAAAwYAAAAAAAAFgB/AAAHwAICAAADEzBng431rcMFgCiAyRjZACSiC8xsqAd2CA+fJiObqLE+ZuUcChuwBvY+Cew0OMOgEAAAgAAACAAgAAEAAAAQAAAAAAAAA==
> <PUBCHEM_IUPAC_OPENEYE_NAME>
2-(2,4-difluorophenyl)-1-(6-methoxybenzimidazol-1-yl)-3-(1,2,4-triazol-1-yl)propan-2-ol
> <PUBCHEM_IUPAC_CAS_NAME>
2-(2,4-difluorophenyl)-1-(6-methoxy-1-benzimidazolyl)-3-(1,2,4-triazol-1-yl)-2-propanol
> <PUBCHEM_IUPAC_NAME_MARKUP>
2-(2,4-difluorophenyl)-1-(6-methoxybenzimidazol-1-yl)-3-(1,2,4-triazol-1-yl)propan-2-ol
> <PUBCHEM_IUPAC_NAME>
2-(2,4-difluorophenyl)-1-(6-methoxybenzimidazol-1-yl)-3-(1,2,4-triazol-1-yl)propan-2-ol
> <PUBCHEM_IUPAC_SYSTEMATIC_NAME>
2-[2,4-bis(fluoranyl)phenyl]-1-(6-methoxybenzimidazol-1-yl)-3-(1,2,4-triazol-1-yl)propan-2-ol
> <PUBCHEM_IUPAC_TRADITIONAL_NAME>
2-(2,4-difluorophenyl)-1-(6-methoxybenzimidazol-1-yl)-3-(1,2,4-triazol-1-yl)propan-2-ol
> <PUBCHEM_IUPAC_INCHI>
InChI=1S/C19H17F2N5O2/c1-28-14-3-5-17-18(7-14)25(12-23-17)8-19(27,9-26-11-22-10-24-26)15-4-2-13(20)6-16(15)21/h2-7,10-12,27H,8-9H2,1H3
> <PUBCHEM_IUPAC_INCHIKEY>
WSYRZALYDALHJL-UHFFFAOYSA-N
> <PUBCHEM_XLOGP3_AA>
1.9
> <PUBCHEM_EXACT_MASS>
385.13503113
> <PUBCHEM_MOLECULAR_FORMULA>
C19H17F2N5O2
> <PUBCHEM_MOLECULAR_WEIGHT>
385.4
> <PUBCHEM_OPENEYE_CAN_SMILES>
COC1=CC2=C(C=C1)N=CN2CC(CN3C=NC=N3)(C4=C(C=C(C=C4)F)F)O
> <PUBCHEM_OPENEYE_ISO_SMILES>
COC1=CC2=C(C=C1)N=CN2CC(CN3C=NC=N3)(C4=C(C=C(C=C4)F)F)O
> <PUBCHEM_CACTVS_TPSA>
78
> <PUBCHEM_MONOISOTOPIC_WEIGHT>
385.13503113
> <PUBCHEM_TOTAL_CHARGE>
0
> <PUBCHEM_HEAVY_ATOM_COUNT>
28
> <PUBCHEM_ATOM_DEF_STEREO_COUNT>
0
> <PUBCHEM_ATOM_UDEF_STEREO_COUNT>
1
> <PUBCHEM_BOND_DEF_STEREO_COUNT>
0
> <PUBCHEM_BOND_UDEF_STEREO_COUNT>
0
> <PUBCHEM_ISOTOPIC_ATOM_COUNT>
0
> <PUBCHEM_COMPONENT_COUNT>
1
> <PUBCHEM_CACTVS_TAUTO_COUNT>
-1
> <PUBCHEM_COORDINATE_TYPE>
1
5
255
> <PUBCHEM_BONDANNOTATIONS>
13  17  8
13  18  8
14  16  8
14  19  8
16  22  8
17  20  8
18  21  8
19  24  8
20  25  8
21  25  8
22  26  8
24  26  8
10  3  3
5  14  8
5  15  8
6  23  8
6  8  8
7  15  8
7  16  8
8  27  8
9  23  8
9  27  8
$$$$
