513544
  -OEChem-10302200282D
 67 70  0     1  0  0  0  0  0999 V2000
   11.5738   -0.6774    0.0000 O   0  0  0  0  0  0  0  0  0  0  0  0
   10.0216   -2.7478    0.0000 O   0  0  0  0  0  0  0  0  0  0  0  0
    9.7942    0.4159    0.0000 O   0  0  0  0  0  0  0  0  0  0  0  0
   12.1497   -3.2001    0.0000 O   0  0  0  0  0  0  0  0  0  0  0  0
    8.0622    0.4159    0.0000 O   0  0  0  0  0  0  0  0  0  0  0  0
    9.7942    2.4159    0.0000 O   0  0  0  0  0  0  0  0  0  0  0  0
    8.0622   -0.5841    0.0000 O   0  0  0  0  0  0  0  0  0  0  0  0
    8.0622    3.4159    0.0000 O   0  0  0  0  0  0  0  0  0  0  0  0
   13.4185   -3.0385    0.0000 O   0  0  0  0  0  0  0  0  0  0  0  0
   16.2210   -1.0024    0.0000 O   0  0  0  0  0  0  0  0  0  0  0  0
    6.3301   -0.5841    0.0000 O   0  0  0  0  0  0  0  0  0  0  0  0
   13.2375   -1.3160    0.0000 N   0  0  0  0  0  0  0  0  0  0  0  0
    8.9282   -2.0841    0.0000 N   0  0  0  0  0  0  0  0  0  0  0  0
   14.8198   -2.0205    0.0000 N   0  0  0  0  0  0  0  0  0  0  0  0
    5.4641    0.9159    0.0000 N   0  0  0  0  0  0  0  0  0  0  0  0
   10.6603   -1.0841    0.0000 C   0  0  1  0  0  0  0  0  0  0  0  0
   10.7648   -2.0786    0.0000 C   0  0  2  0  0  0  0  0  0  0  0  0
   11.7429   -2.2865    0.0000 C   0  0  2  0  0  0  0  0  0  0  0  0
   12.2429   -1.4205    0.0000 C   0  0  1  0  0  0  0  0  0  0  0  0
    9.7942   -0.5841    0.0000 C   0  0  2  0  0  0  0  0  0  0  0  0
    8.9282    0.9159    0.0000 C   0  0  1  0  0  0  0  0  0  0  0  0
    8.9282   -1.0841    0.0000 C   0  0  0  0  0  0  0  0  0  0  0  0
    8.9282    1.9159    0.0000 C   0  0  2  0  0  0  0  0  0  0  0  0
   13.8252   -2.1250    0.0000 C   0  0  0  0  0  0  0  0  0  0  0  0
   13.6442   -0.4024    0.0000 C   0  0  0  0  0  0  0  0  0  0  0  0
    8.0622    2.4159    0.0000 C   0  0  2  0  0  0  0  0  0  0  0  0
   10.2295   -3.7259    0.0000 C   0  0  0  0  0  0  0  0  0  0  0  0
    7.1962    1.9159    0.0000 C   0  0  0  0  0  0  0  0  0  0  0  0
   14.6387   -0.2979    0.0000 C   0  0  0  0  0  0  0  0  0  0  0  0
    7.1962    0.9159    0.0000 C   0  0  0  0  0  0  0  0  0  0  0  0
   15.2265   -1.1069    0.0000 C   0  0  0  0  0  0  0  0  0  0  0  0
    6.3301    0.4159    0.0000 C   0  0  0  0  0  0  0  0  0  0  0  0
    4.5981    0.4159    0.0000 C   0  0  0  0  0  0  0  0  0  0  0  0
    3.7320    0.9159    0.0000 C   0  0  0  0  0  0  0  0  0  0  0  0
    2.8660    0.4159    0.0000 C   0  0  0  0  0  0  0  0  0  0  0  0
    3.7320    1.9159    0.0000 C   0  0  0  0  0  0  0  0  0  0  0  0
    2.0000    0.9159    0.0000 C   0  0  0  0  0  0  0  0  0  0  0  0
    2.8660    2.4159    0.0000 C   0  0  0  0  0  0  0  0  0  0  0  0
    2.0000    1.9159    0.0000 C   0  0  0  0  0  0  0  0  0  0  0  0
   10.7047   -0.2353    0.0000 H   0  0  0  0  0  0  0  0  0  0  0  0
   10.9253   -2.6775    0.0000 H   0  0  0  0  0  0  0  0  0  0  0  0
   12.3621   -2.3190    0.0000 H   0  0  0  0  0  0  0  0  0  0  0  0
   12.4651   -0.8417    0.0000 H   0  0  0  0  0  0  0  0  0  0  0  0
    9.2573   -0.2741    0.0000 H   0  0  0  0  0  0  0  0  0  0  0  0
    9.4651    1.2259    0.0000 H   0  0  0  0  0  0  0  0  0  0  0  0
   11.7852   -3.7017    0.0000 H   0  0  0  0  0  0  0  0  0  0  0  0
    8.9282    2.5359    0.0000 H   0  0  0  0  0  0  0  0  0  0  0  0
   13.2798    0.0992    0.0000 H   0  0  0  0  0  0  0  0  0  0  0  0
    7.5252    2.7259    0.0000 H   0  0  0  0  0  0  0  0  0  0  0  0
    9.6231   -3.8548    0.0000 H   0  0  0  0  0  0  0  0  0  0  0  0
   10.3585   -4.3324    0.0000 H   0  0  0  0  0  0  0  0  0  0  0  0
   10.8360   -3.5970    0.0000 H   0  0  0  0  0  0  0  0  0  0  0  0
    6.6592    2.2259    0.0000 H   0  0  0  0  0  0  0  0  0  0  0  0
    8.3913   -2.3941    0.0000 H   0  0  0  0  0  0  0  0  0  0  0  0
    9.4651   -2.3941    0.0000 H   0  0  0  0  0  0  0  0  0  0  0  0
   15.1842   -2.5221    0.0000 H   0  0  0  0  0  0  0  0  0  0  0  0
   14.8909    0.2685    0.0000 H   0  0  0  0  0  0  0  0  0  0  0  0
    9.7942    3.0359    0.0000 H   0  0  0  0  0  0  0  0  0  0  0  0
    7.5252    3.7259    0.0000 H   0  0  0  0  0  0  0  0  0  0  0  0
    5.4641    1.5359    0.0000 H   0  0  0  0  0  0  0  0  0  0  0  0
    4.1996   -0.0590    0.0000 H   0  0  0  0  0  0  0  0  0  0  0  0
    4.9966   -0.0590    0.0000 H   0  0  0  0  0  0  0  0  0  0  0  0
    2.8660   -0.2041    0.0000 H   0  0  0  0  0  0  0  0  0  0  0  0
    4.2690    2.2259    0.0000 H   0  0  0  0  0  0  0  0  0  0  0  0
    1.4631    0.6059    0.0000 H   0  0  0  0  0  0  0  0  0  0  0  0
    2.8660    3.0359    0.0000 H   0  0  0  0  0  0  0  0  0  0  0  0
    1.4631    2.2259    0.0000 H   0  0  0  0  0  0  0  0  0  0  0  0
  1 16  1  0  0  0  0
  1 19  1  0  0  0  0
 17  2  1  6  0  0  0
  2 27  1  0  0  0  0
 20  3  1  6  0  0  0
 21  3  1  1  0  0  0
 18  4  1  6  0  0  0
  4 46  1  0  0  0  0
  5 21  1  0  0  0  0
  5 30  1  0  0  0  0
 23  6  1  6  0  0  0
  6 58  1  0  0  0  0
  7 22  2  0  0  0  0
 26  8  1  6  0  0  0
  8 59  1  0  0  0  0
  9 24  2  0  0  0  0
 10 31  2  0  0  0  0
 11 32  2  0  0  0  0
 19 12  1  1  0  0  0
 12 24  1  0  0  0  0
 12 25  1  0  0  0  0
 13 22  1  0  0  0  0
 13 54  1  0  0  0  0
 13 55  1  0  0  0  0
 14 24  1  0  0  0  0
 14 31  1  0  0  0  0
 14 56  1  0  0  0  0
 15 32  1  0  0  0  0
 15 33  1  0  0  0  0
 15 60  1  0  0  0  0
 16 17  1  0  0  0  0
 16 20  1  0  0  0  0
 16 40  1  6  0  0  0
 17 18  1  0  0  0  0
 17 41  1  0  0  0  0
 18 19  1  0  0  0  0
 18 42  1  0  0  0  0
 19 43  1  0  0  0  0
 20 22  1  0  0  0  0
 20 44  1  0  0  0  0
 21 23  1  0  0  0  0
 21 45  1  0  0  0  0
 23 26  1  0  0  0  0
 23 47  1  0  0  0  0
 25 29  2  0  0  0  0
 25 48  1  0  0  0  0
 26 28  1  0  0  0  0
 26 49  1  0  0  0  0
 27 50  1  0  0  0  0
 27 51  1  0  0  0  0
 27 52  1  0  0  0  0
 28 30  2  0  0  0  0
 28 53  1  0  0  0  0
 29 31  1  0  0  0  0
 29 57  1  0  0  0  0
 30 32  1  0  0  0  0
 33 34  1  0  0  0  0
 33 61  1  0  0  0  0
 33 62  1  0  0  0  0
 34 35  2  0  0  0  0
 34 36  1  0  0  0  0
 35 37  1  0  0  0  0
 35 63  1  0  0  0  0
 36 38  2  0  0  0  0
 36 64  1  0  0  0  0
 37 39  2  0  0  0  0
 37 65  1  0  0  0  0
 38 39  1  0  0  0  0
 38 66  1  0  0  0  0
 39 67  1  0  0  0  0
M  END
> <PUBCHEM_COMPOUND_CID>
513544
> <PUBCHEM_COMPOUND_CANONICALIZED>
1
> <PUBCHEM_CACTVS_COMPLEXITY>
1010
> <PUBCHEM_CACTVS_HBOND_ACCEPTOR>
11
> <PUBCHEM_CACTVS_HBOND_DONOR>
6
> <PUBCHEM_CACTVS_ROTATABLE_BOND>
9
> <PUBCHEM_CACTVS_SUBSKEYS>
AAADceB7vAAAAAAAAAAAAAAAAAAAASAAAAAwQIAAAAAAAAABAAAAHgAQCAAADBTxmAczCIPABgCIAiFWUAKCCAAgIgAIiIFIBMibNDaAkRWvcAhv9yKfmcf6/A5OAAAAAAAAAAAAAAAAAAAAAAAAAAAAAA==
> <PUBCHEM_IUPAC_OPENEYE_NAME>
(2S,3S,4S)-2-[(1R)-2-amino-1-[(2S,3S,4R,5R)-5-(2,4-dioxopyrimidin-1-yl)-4-hydroxy-3-methoxy-tetrahydrofuran-2-yl]-2-oxo-ethoxy]-N-benzyl-3,4-dihydroxy-3,4-dihydro-2H-pyran-6-carboxamide
> <PUBCHEM_IUPAC_CAS_NAME>
(2S,3S,4S)-2-[(1R)-2-amino-1-[(2S,3S,4R,5R)-5-(2,4-dioxo-1-pyrimidinyl)-4-hydroxy-3-methoxy-2-oxolanyl]-2-oxoethoxy]-3,4-dihydroxy-N-(phenylmethyl)-3,4-dihydro-2H-pyran-6-carboxamide
> <PUBCHEM_IUPAC_NAME_MARKUP>
(2<I>S</I>,3<I>S</I>,4<I>S</I>)-2-[(1<I>R</I>)-2-amino-1-[(2<I>S</I>,3<I>S</I>,4<I>R</I>,5<I>R</I>)-5-(2,4-dioxopyrimidin-1-yl)-4-hydroxy-3-methoxyoxolan-2-yl]-2-oxoethoxy]-<I>N</I>-benzyl-3,4-dihydroxy-3,4-dihydro-2<I>H</I>-pyran-6-carboxamide
> <PUBCHEM_IUPAC_NAME>
(2S,3S,4S)-2-[(1R)-2-amino-1-[(2S,3S,4R,5R)-5-(2,4-dioxopyrimidin-1-yl)-4-hydroxy-3-methoxyoxolan-2-yl]-2-oxoethoxy]-N-benzyl-3,4-dihydroxy-3,4-dihydro-2H-pyran-6-carboxamide
> <PUBCHEM_IUPAC_SYSTEMATIC_NAME>
(2S,3S,4S)-2-[(1R)-2-azanyl-1-[(2S,3S,4R,5R)-5-[2,4-bis(oxidanylidene)pyrimidin-1-yl]-3-methoxy-4-oxidanyl-oxolan-2-yl]-2-oxidanylidene-ethoxy]-3,4-bis(oxidanyl)-N-(phenylmethyl)-3,4-dihydro-2H-pyran-6-carboxamide
> <PUBCHEM_IUPAC_TRADITIONAL_NAME>
(2S,3S,4S)-2-[(1R)-2-amino-1-[(2S,3S,4R,5R)-5-(2,4-diketopyrimidin-1-yl)-4-hydroxy-3-methoxy-tetrahydrofuran-2-yl]-2-keto-ethoxy]-N-benzyl-3,4-dihydroxy-3,4-dihydro-2H-pyran-6-carboxamide
> <PUBCHEM_IUPAC_INCHI>
InChI=1S/C24H28N4O11/c1-36-17-16(32)22(28-8-7-14(30)27-24(28)35)38-18(17)19(20(25)33)39-23-15(31)12(29)9-13(37-23)21(34)26-10-11-5-3-2-4-6-11/h2-9,12,15-19,22-23,29,31-32H,10H2,1H3,(H2,25,33)(H,26,34)(H,27,30,35)/t12-,15-,16+,17-,18-,19+,22+,23+/m0/s1
> <PUBCHEM_IUPAC_INCHIKEY>
WPEMZTRIWVWOTI-RYQUHRKNSA-N
> <PUBCHEM_XLOGP3_AA>
-2.8
> <PUBCHEM_EXACT_MASS>
548.17545772
> <PUBCHEM_MOLECULAR_FORMULA>
C24H28N4O11
> <PUBCHEM_MOLECULAR_WEIGHT>
548.5
> <PUBCHEM_OPENEYE_CAN_SMILES>
COC1C(C(OC1C(C(=O)N)OC2C(C(C=C(O2)C(=O)NCC3=CC=CC=C3)O)O)N4C=CC(=O)NC4=O)O
> <PUBCHEM_OPENEYE_ISO_SMILES>
CO[C@H]1[C@H]([C@@H](O[C@@H]1[C@H](C(=O)N)O[C@@H]2[C@H]([C@H](C=C(O2)C(=O)NCC3=CC=CC=C3)O)O)N4C=CC(=O)NC4=O)O
> <PUBCHEM_CACTVS_TPSA>
219
> <PUBCHEM_MONOISOTOPIC_WEIGHT>
548.17545772
> <PUBCHEM_TOTAL_CHARGE>
0
> <PUBCHEM_HEAVY_ATOM_COUNT>
39
> <PUBCHEM_ATOM_DEF_STEREO_COUNT>
8
> <PUBCHEM_ATOM_UDEF_STEREO_COUNT>
0
> <PUBCHEM_BOND_DEF_STEREO_COUNT>
0
> <PUBCHEM_BOND_UDEF_STEREO_COUNT>
0
> <PUBCHEM_ISOTOPIC_ATOM_COUNT>
0
> <PUBCHEM_COMPONENT_COUNT>
1
> <PUBCHEM_CACTVS_TAUTO_COUNT>
-1
> <PUBCHEM_COORDINATE_TYPE>
1
5
255
> <PUBCHEM_BONDANNOTATIONS>
19  12  5
12  24  8
12  25  8
14  24  8
14  31  8
16  40  6
17  2  6
25  29  8
29  31  8
20  3  6
21  3  5
34  35  8
34  36  8
35  37  8
36  38  8
37  39  8
38  39  8
18  4  6
23  6  6
26  8  6
$$$$
