513509
  -OEChem-10302200282D
 44 45  0     1  0  0  0  0  0999 V2000
    2.9511   -0.0205    0.0000 S   0  0  0  0  0  0  0  0  0  0  0  0
    6.6132   -0.3598    0.0000 O   0  0  0  0  0  0  0  0  0  0  0  0
    5.5255   -2.7076    0.0000 O   0  0  0  0  0  0  0  0  0  0  0  0
    7.7010   -2.7076    0.0000 O   0  0  0  0  0  0  0  0  0  0  0  0
    8.3733   -0.6386    0.0000 O   0  0  0  0  0  0  0  0  0  0  0  0
    4.0215    3.2740    0.0000 O   0  0  0  0  0  0  0  0  0  0  0  0
    4.6453    0.3396    0.0000 N   0  0  0  0  0  0  0  0  0  0  0  0
    3.4863    1.6268    0.0000 N   0  0  0  0  0  0  0  0  0  0  0  0
    5.8042   -0.9476    0.0000 C   0  0  3  0  0  0  0  0  0  0  0  0
    6.1132   -1.8986    0.0000 C   0  0  3  0  0  0  0  0  0  0  0  0
    7.1132   -1.8986    0.0000 C   0  0  3  0  0  0  0  0  0  0  0  0
    7.4223   -0.9476    0.0000 C   0  0  3  0  0  0  0  0  0  0  0  0
    4.8532   -0.6386    0.0000 C   0  0  0  0  0  0  0  0  0  0  0  0
    5.3884    1.0087    0.0000 C   0  0  0  0  0  0  0  0  0  0  0  0
    6.3395    0.6997    0.0000 C   0  0  0  0  0  0  0  0  0  0  0  0
    3.6942    0.6486    0.0000 C   0  0  0  0  0  0  0  0  0  0  0  0
    5.1805    1.9869    0.0000 C   0  0  0  0  0  0  0  0  0  0  0  0
    7.0826    1.3688    0.0000 C   0  0  0  0  0  0  0  0  0  0  0  0
    8.5812    0.3396    0.0000 C   0  0  0  0  0  0  0  0  0  0  0  0
    4.2294    2.2959    0.0000 C   0  0  0  0  0  0  0  0  0  0  0  0
    6.8747    2.3470    0.0000 C   0  0  0  0  0  0  0  0  0  0  0  0
    2.0000    0.2885    0.0000 C   0  0  0  0  0  0  0  0  0  0  0  0
    5.7072   -0.3352    0.0000 H   0  0  0  0  0  0  0  0  0  0  0  0
    6.3947   -2.4510    0.0000 H   0  0  0  0  0  0  0  0  0  0  0  0
    7.7256   -1.8016    0.0000 H   0  0  0  0  0  0  0  0  0  0  0  0
    7.5192   -0.3352    0.0000 H   0  0  0  0  0  0  0  0  0  0  0  0
    4.2336   -0.6602    0.0000 H   0  0  0  0  0  0  0  0  0  0  0  0
    4.7669   -1.2525    0.0000 H   0  0  0  0  0  0  0  0  0  0  0  0
    5.7776   -3.2740    0.0000 H   0  0  0  0  0  0  0  0  0  0  0  0
    8.3176   -2.6428    0.0000 H   0  0  0  0  0  0  0  0  0  0  0  0
    6.0484    0.1523    0.0000 H   0  0  0  0  0  0  0  0  0  0  0  0
    6.8280    0.3180    0.0000 H   0  0  0  0  0  0  0  0  0  0  0  0
    5.6412    2.4017    0.0000 H   0  0  0  0  0  0  0  0  0  0  0  0
    7.4112    0.8431    0.0000 H   0  0  0  0  0  0  0  0  0  0  0  0
    7.6575    1.6011    0.0000 H   0  0  0  0  0  0  0  0  0  0  0  0
    9.1877    0.2107    0.0000 H   0  0  0  0  0  0  0  0  0  0  0  0
    8.7101    0.9460    0.0000 H   0  0  0  0  0  0  0  0  0  0  0  0
    7.9748    0.4685    0.0000 H   0  0  0  0  0  0  0  0  0  0  0  0
    7.4811    2.4759    0.0000 H   0  0  0  0  0  0  0  0  0  0  0  0
    6.7458    2.9534    0.0000 H   0  0  0  0  0  0  0  0  0  0  0  0
    6.2682    2.2181    0.0000 H   0  0  0  0  0  0  0  0  0  0  0  0
    2.1916    0.8782    0.0000 H   0  0  0  0  0  0  0  0  0  0  0  0
    1.4103    0.4801    0.0000 H   0  0  0  0  0  0  0  0  0  0  0  0
    1.8084   -0.3012    0.0000 H   0  0  0  0  0  0  0  0  0  0  0  0
  1 16  1  0  0  0  0
  1 22  1  0  0  0  0
  2  9  1  0  0  0  0
  2 12  1  0  0  0  0
  3 10  1  0  0  0  0
  3 29  1  0  0  0  0
  4 11  1  0  0  0  0
  4 30  1  0  0  0  0
  5 12  1  0  0  0  0
  5 19  1  0  0  0  0
  6 20  2  0  0  0  0
  7 13  1  0  0  0  0
  7 14  1  0  0  0  0
  7 16  1  0  0  0  0
  8 16  2  0  0  0  0
  8 20  1  0  0  0  0
  9 10  1  0  0  0  0
  9 13  1  0  0  0  0
  9 23  1  0  0  0  0
 10 11  1  0  0  0  0
 10 24  1  0  0  0  0
 11 12  1  0  0  0  0
 11 25  1  0  0  0  0
 12 26  1  0  0  0  0
 13 27  1  0  0  0  0
 13 28  1  0  0  0  0
 14 15  1  0  0  0  0
 14 17  2  0  0  0  0
 15 18  1  0  0  0  0
 15 31  1  0  0  0  0
 15 32  1  0  0  0  0
 17 20  1  0  0  0  0
 17 33  1  0  0  0  0
 18 21  1  0  0  0  0
 18 34  1  0  0  0  0
 18 35  1  0  0  0  0
 19 36  1  0  0  0  0
 19 37  1  0  0  0  0
 19 38  1  0  0  0  0
 21 39  1  0  0  0  0
 21 40  1  0  0  0  0
 21 41  1  0  0  0  0
 22 42  1  0  0  0  0
 22 43  1  0  0  0  0
 22 44  1  0  0  0  0
M  END
> <PUBCHEM_COMPOUND_CID>
513509
> <PUBCHEM_COMPOUND_CANONICALIZED>
1
> <PUBCHEM_CACTVS_COMPLEXITY>
482
> <PUBCHEM_CACTVS_HBOND_ACCEPTOR>
6
> <PUBCHEM_CACTVS_HBOND_DONOR>
2
> <PUBCHEM_CACTVS_ROTATABLE_BOND>
6
> <PUBCHEM_CACTVS_SUBSKEYS>
AAADceBzOABAAAAAAAAAAAAAAAAAASAAAAAgAAAAAAAAAAAAAAAAHgQACAAACBzxgAeDCAMABgioACVSdACAEAFgAgABCAAIAEgTEAIAiQAnQAAHgACfAULwEAIAAAAAAAAAAAAAAAAAAAAAAAAAAAAAAA==
> <PUBCHEM_IUPAC_OPENEYE_NAME>
1-[(3,4-dihydroxy-5-methoxy-tetrahydrofuran-2-yl)methyl]-2-methylsulfanyl-6-propyl-pyrimidin-4-one
> <PUBCHEM_IUPAC_CAS_NAME>
1-[(3,4-dihydroxy-5-methoxy-2-oxolanyl)methyl]-2-(methylthio)-6-propyl-4-pyrimidinone
> <PUBCHEM_IUPAC_NAME_MARKUP>
1-[(3,4-dihydroxy-5-methoxyoxolan-2-yl)methyl]-2-methylsulfanyl-6-propylpyrimidin-4-one
> <PUBCHEM_IUPAC_NAME>
1-[(3,4-dihydroxy-5-methoxyoxolan-2-yl)methyl]-2-methylsulfanyl-6-propylpyrimidin-4-one
> <PUBCHEM_IUPAC_SYSTEMATIC_NAME>
1-[[5-methoxy-3,4-bis(oxidanyl)oxolan-2-yl]methyl]-2-methylsulfanyl-6-propyl-pyrimidin-4-one
> <PUBCHEM_IUPAC_TRADITIONAL_NAME>
1-[(3,4-dihydroxy-5-methoxy-tetrahydrofuran-2-yl)methyl]-2-(methylthio)-6-propyl-pyrimidin-4-one
> <PUBCHEM_IUPAC_INCHI>
InChI=1S/C14H22N2O5S/c1-4-5-8-6-10(17)15-14(22-3)16(8)7-9-11(18)12(19)13(20-2)21-9/h6,9,11-13,18-19H,4-5,7H2,1-3H3
> <PUBCHEM_IUPAC_INCHIKEY>
LEWSEUADQPNWIA-UHFFFAOYSA-N
> <PUBCHEM_XLOGP3_AA>
0
> <PUBCHEM_EXACT_MASS>
330.12494298
> <PUBCHEM_MOLECULAR_FORMULA>
C14H22N2O5S
> <PUBCHEM_MOLECULAR_WEIGHT>
330.40
> <PUBCHEM_OPENEYE_CAN_SMILES>
CCCC1=CC(=O)N=C(N1CC2C(C(C(O2)OC)O)O)SC
> <PUBCHEM_OPENEYE_ISO_SMILES>
CCCC1=CC(=O)N=C(N1CC2C(C(C(O2)OC)O)O)SC
> <PUBCHEM_CACTVS_TPSA>
117
> <PUBCHEM_MONOISOTOPIC_WEIGHT>
330.12494298
> <PUBCHEM_TOTAL_CHARGE>
0
> <PUBCHEM_HEAVY_ATOM_COUNT>
22
> <PUBCHEM_ATOM_DEF_STEREO_COUNT>
0
> <PUBCHEM_ATOM_UDEF_STEREO_COUNT>
4
> <PUBCHEM_BOND_DEF_STEREO_COUNT>
0
> <PUBCHEM_BOND_UDEF_STEREO_COUNT>
0
> <PUBCHEM_ISOTOPIC_ATOM_COUNT>
0
> <PUBCHEM_COMPONENT_COUNT>
1
> <PUBCHEM_CACTVS_TAUTO_COUNT>
-1
> <PUBCHEM_COORDINATE_TYPE>
1
5
255
> <PUBCHEM_BONDANNOTATIONS>
14  17  8
17  20  8
10  3  3
11  4  3
12  5  3
7  14  8
7  16  8
8  16  8
8  20  8
9  13  3
$$$$
