513523
  -OEChem-10302200282D
 61 63  0     1  0  0  0  0  0999 V2000
   11.2447   -0.6774    0.0000 O   0  0  0  0  0  0  0  0  0  0  0  0
    9.6926   -2.7478    0.0000 O   0  0  0  0  0  0  0  0  0  0  0  0
    9.4651    0.4159    0.0000 O   0  0  0  0  0  0  0  0  0  0  0  0
   11.8206   -3.2001    0.0000 O   0  0  0  0  0  0  0  0  0  0  0  0
    7.7331    0.4159    0.0000 O   0  0  0  0  0  0  0  0  0  0  0  0
    9.4651    2.4159    0.0000 O   0  0  0  0  0  0  0  0  0  0  0  0
    7.7331   -0.5841    0.0000 O   0  0  0  0  0  0  0  0  0  0  0  0
    7.7331    3.4159    0.0000 O   0  0  0  0  0  0  0  0  0  0  0  0
   13.0894   -3.0385    0.0000 O   0  0  0  0  0  0  0  0  0  0  0  0
   15.8919   -1.0024    0.0000 O   0  0  0  0  0  0  0  0  0  0  0  0
    6.0010   -0.5841    0.0000 O   0  0  0  0  0  0  0  0  0  0  0  0
    2.5369    0.4159    0.0000 O   0  0  0  0  0  0  0  0  0  0  0  0
   12.9084   -1.3160    0.0000 N   0  0  0  0  0  0  0  0  0  0  0  0
    8.5991   -2.0841    0.0000 N   0  0  0  0  0  0  0  0  0  0  0  0
   14.4907   -2.0205    0.0000 N   0  0  0  0  0  0  0  0  0  0  0  0
    5.1350    0.9159    0.0000 N   0  0  0  0  0  0  0  0  0  0  0  0
   10.3312   -1.0841    0.0000 C   0  0  1  0  0  0  0  0  0  0  0  0
   10.4357   -2.0786    0.0000 C   0  0  2  0  0  0  0  0  0  0  0  0
   11.4138   -2.2865    0.0000 C   0  0  2  0  0  0  0  0  0  0  0  0
   11.9138   -1.4205    0.0000 C   0  0  1  0  0  0  0  0  0  0  0  0
    9.4651   -0.5841    0.0000 C   0  0  2  0  0  0  0  0  0  0  0  0
    8.5991    0.9159    0.0000 C   0  0  1  0  0  0  0  0  0  0  0  0
    8.5991   -1.0841    0.0000 C   0  0  0  0  0  0  0  0  0  0  0  0
    8.5991    1.9159    0.0000 C   0  0  2  0  0  0  0  0  0  0  0  0
   13.4961   -2.1250    0.0000 C   0  0  0  0  0  0  0  0  0  0  0  0
   13.3151   -0.4024    0.0000 C   0  0  0  0  0  0  0  0  0  0  0  0
    7.7331    2.4159    0.0000 C   0  0  2  0  0  0  0  0  0  0  0  0
    9.9005   -3.7259    0.0000 C   0  0  0  0  0  0  0  0  0  0  0  0
    6.8671    1.9159    0.0000 C   0  0  0  0  0  0  0  0  0  0  0  0
    6.8671    0.9159    0.0000 C   0  0  0  0  0  0  0  0  0  0  0  0
   14.3096   -0.2979    0.0000 C   0  0  0  0  0  0  0  0  0  0  0  0
   14.8974   -1.1069    0.0000 C   0  0  0  0  0  0  0  0  0  0  0  0
    6.0010    0.4159    0.0000 C   0  0  0  0  0  0  0  0  0  0  0  0
    4.2690    0.4159    0.0000 C   0  0  0  0  0  0  0  0  0  0  0  0
    3.4030    0.9159    0.0000 C   0  0  0  0  0  0  0  0  0  0  0  0
   11.0673   -1.5091    0.0000 H   0  0  0  0  0  0  0  0  0  0  0  0
   10.5962   -2.6775    0.0000 H   0  0  0  0  0  0  0  0  0  0  0  0
   12.0330   -2.3190    0.0000 H   0  0  0  0  0  0  0  0  0  0  0  0
   12.2515   -1.9405    0.0000 H   0  0  0  0  0  0  0  0  0  0  0  0
   10.0021   -0.2741    0.0000 H   0  0  0  0  0  0  0  0  0  0  0  0
    8.5991    0.2959    0.0000 H   0  0  0  0  0  0  0  0  0  0  0  0
   11.4562   -3.7017    0.0000 H   0  0  0  0  0  0  0  0  0  0  0  0
    8.5991    2.5359    0.0000 H   0  0  0  0  0  0  0  0  0  0  0  0
   12.9507    0.0992    0.0000 H   0  0  0  0  0  0  0  0  0  0  0  0
    7.1962    2.7259    0.0000 H   0  0  0  0  0  0  0  0  0  0  0  0
    9.2940   -3.8548    0.0000 H   0  0  0  0  0  0  0  0  0  0  0  0
   10.0294   -4.3324    0.0000 H   0  0  0  0  0  0  0  0  0  0  0  0
   10.5069   -3.5970    0.0000 H   0  0  0  0  0  0  0  0  0  0  0  0
    6.3301    2.2259    0.0000 H   0  0  0  0  0  0  0  0  0  0  0  0
    8.0622   -2.3941    0.0000 H   0  0  0  0  0  0  0  0  0  0  0  0
    9.1360   -2.3941    0.0000 H   0  0  0  0  0  0  0  0  0  0  0  0
   14.8551   -2.5221    0.0000 H   0  0  0  0  0  0  0  0  0  0  0  0
   14.5618    0.2685    0.0000 H   0  0  0  0  0  0  0  0  0  0  0  0
    9.4651    3.0359    0.0000 H   0  0  0  0  0  0  0  0  0  0  0  0
    7.1962    3.7259    0.0000 H   0  0  0  0  0  0  0  0  0  0  0  0
    5.1350    1.5359    0.0000 H   0  0  0  0  0  0  0  0  0  0  0  0
    3.8705   -0.0590    0.0000 H   0  0  0  0  0  0  0  0  0  0  0  0
    4.6675   -0.0590    0.0000 H   0  0  0  0  0  0  0  0  0  0  0  0
    3.8015    1.3908    0.0000 H   0  0  0  0  0  0  0  0  0  0  0  0
    3.0044    1.3908    0.0000 H   0  0  0  0  0  0  0  0  0  0  0  0
    2.0000    0.7259    0.0000 H   0  0  0  0  0  0  0  0  0  0  0  0
  1 17  1  0  0  0  0
  1 20  1  0  0  0  0
 18  2  1  6  0  0  0
  2 28  1  0  0  0  0
 21  3  1  6  0  0  0
 22  3  1  1  0  0  0
 19  4  1  6  0  0  0
  4 42  1  0  0  0  0
  5 22  1  0  0  0  0
  5 30  1  0  0  0  0
 24  6  1  6  0  0  0
  6 54  1  0  0  0  0
  7 23  2  0  0  0  0
 27  8  1  6  0  0  0
  8 55  1  0  0  0  0
  9 25  2  0  0  0  0
 10 32  2  0  0  0  0
 11 33  2  0  0  0  0
 12 35  1  0  0  0  0
 12 61  1  0  0  0  0
 20 13  1  1  0  0  0
 13 25  1  0  0  0  0
 13 26  1  0  0  0  0
 14 23  1  0  0  0  0
 14 50  1  0  0  0  0
 14 51  1  0  0  0  0
 15 25  1  0  0  0  0
 15 32  1  0  0  0  0
 15 52  1  0  0  0  0
 16 33  1  0  0  0  0
 16 34  1  0  0  0  0
 16 56  1  0  0  0  0
 17 18  1  0  0  0  0
 17 21  1  0  0  0  0
 17 36  1  6  0  0  0
 18 19  1  0  0  0  0
 18 37  1  0  0  0  0
 19 20  1  0  0  0  0
 19 38  1  0  0  0  0
 20 39  1  0  0  0  0
 21 23  1  0  0  0  0
 21 40  1  0  0  0  0
 22 24  1  0  0  0  0
 22 41  1  0  0  0  0
 24 27  1  0  0  0  0
 24 43  1  0  0  0  0
 26 31  2  0  0  0  0
 26 44  1  0  0  0  0
 27 29  1  0  0  0  0
 27 45  1  0  0  0  0
 28 46  1  0  0  0  0
 28 47  1  0  0  0  0
 28 48  1  0  0  0  0
 29 30  2  0  0  0  0
 29 49  1  0  0  0  0
 30 33  1  0  0  0  0
 31 32  1  0  0  0  0
 31 53  1  0  0  0  0
 34 35  1  0  0  0  0
 34 57  1  0  0  0  0
 34 58  1  0  0  0  0
 35 59  1  0  0  0  0
 35 60  1  0  0  0  0
M  END
> <PUBCHEM_COMPOUND_CID>
513523
> <PUBCHEM_COMPOUND_CANONICALIZED>
1
> <PUBCHEM_CACTVS_COMPLEXITY>
910
> <PUBCHEM_CACTVS_HBOND_ACCEPTOR>
12
> <PUBCHEM_CACTVS_HBOND_DONOR>
7
> <PUBCHEM_CACTVS_ROTATABLE_BOND>
9
> <PUBCHEM_CACTVS_SUBSKEYS>
AAADceB7vAAAAAAAAAAAAAAAAAAAASAAAAAgQAAAAAAAAAAAAAAAHgAQCAAACBTxgAcDCAPABgCIACFWUAKACAAgIgAICIFIAEiTFBYAgAQvUAAP9yKfEcP6fA5AAAAAAAAAAAAAAAAAAAAAAAAAAAAAAA==
> <PUBCHEM_IUPAC_OPENEYE_NAME>
(2S,3S,4S)-2-[(1R)-2-amino-1-[(2S,3S,4R,5R)-5-(2,4-dioxopyrimidin-1-yl)-4-hydroxy-3-methoxy-tetrahydrofuran-2-yl]-2-oxo-ethoxy]-3,4-dihydroxy-N-(2-hydroxyethyl)-3,4-dihydro-2H-pyran-6-carboxamide
> <PUBCHEM_IUPAC_CAS_NAME>
(2S,3S,4S)-2-[(1R)-2-amino-1-[(2S,3S,4R,5R)-5-(2,4-dioxo-1-pyrimidinyl)-4-hydroxy-3-methoxy-2-oxolanyl]-2-oxoethoxy]-3,4-dihydroxy-N-(2-hydroxyethyl)-3,4-dihydro-2H-pyran-6-carboxamide
> <PUBCHEM_IUPAC_NAME_MARKUP>
(2<I>S</I>,3<I>S</I>,4<I>S</I>)-2-[(1<I>R</I>)-2-amino-1-[(2<I>S</I>,3<I>S</I>,4<I>R</I>,5<I>R</I>)-5-(2,4-dioxopyrimidin-1-yl)-4-hydroxy-3-methoxyoxolan-2-yl]-2-oxoethoxy]-3,4-dihydroxy-<I>N</I>-(2-hydroxyethyl)-3,4-dihydro-2<I>H</I>-pyran-6-carboxamide
> <PUBCHEM_IUPAC_NAME>
(2S,3S,4S)-2-[(1R)-2-amino-1-[(2S,3S,4R,5R)-5-(2,4-dioxopyrimidin-1-yl)-4-hydroxy-3-methoxyoxolan-2-yl]-2-oxoethoxy]-3,4-dihydroxy-N-(2-hydroxyethyl)-3,4-dihydro-2H-pyran-6-carboxamide
> <PUBCHEM_IUPAC_SYSTEMATIC_NAME>
(2S,3S,4S)-2-[(1R)-2-azanyl-1-[(2S,3S,4R,5R)-5-[2,4-bis(oxidanylidene)pyrimidin-1-yl]-3-methoxy-4-oxidanyl-oxolan-2-yl]-2-oxidanylidene-ethoxy]-N-(2-hydroxyethyl)-3,4-bis(oxidanyl)-3,4-dihydro-2H-pyran-6-carboxamide
> <PUBCHEM_IUPAC_TRADITIONAL_NAME>
(2S,3S,4S)-2-[(1R)-2-amino-1-[(2S,3S,4R,5R)-5-(2,4-diketopyrimidin-1-yl)-4-hydroxy-3-methoxy-tetrahydrofuran-2-yl]-2-keto-ethoxy]-3,4-dihydroxy-N-(2-hydroxyethyl)-3,4-dihydro-2H-pyran-6-carboxamide
> <PUBCHEM_IUPAC_INCHI>
InChI=1S/C19H26N4O12/c1-32-12-11(28)17(23-4-2-9(26)22-19(23)31)34-13(12)14(15(20)29)35-18-10(27)7(25)6-8(33-18)16(30)21-3-5-24/h2,4,6-7,10-14,17-18,24-25,27-28H,3,5H2,1H3,(H2,20,29)(H,21,30)(H,22,26,31)/t7-,10-,11+,12-,13-,14+,17+,18+/m0/s1
> <PUBCHEM_IUPAC_INCHIKEY>
CEAIYZHVWFGVPT-ZSTMEXGBSA-N
> <PUBCHEM_XLOGP3_AA>
-5
> <PUBCHEM_EXACT_MASS>
502.15472228
> <PUBCHEM_MOLECULAR_FORMULA>
C19H26N4O12
> <PUBCHEM_MOLECULAR_WEIGHT>
502.4
> <PUBCHEM_OPENEYE_CAN_SMILES>
COC1C(C(OC1C(C(=O)N)OC2C(C(C=C(O2)C(=O)NCCO)O)O)N3C=CC(=O)NC3=O)O
> <PUBCHEM_OPENEYE_ISO_SMILES>
CO[C@H]1[C@H]([C@@H](O[C@@H]1[C@H](C(=O)N)O[C@@H]2[C@H]([C@H](C=C(O2)C(=O)NCCO)O)O)N3C=CC(=O)NC3=O)O
> <PUBCHEM_CACTVS_TPSA>
239
> <PUBCHEM_MONOISOTOPIC_WEIGHT>
502.15472228
> <PUBCHEM_TOTAL_CHARGE>
0
> <PUBCHEM_HEAVY_ATOM_COUNT>
35
> <PUBCHEM_ATOM_DEF_STEREO_COUNT>
8
> <PUBCHEM_ATOM_UDEF_STEREO_COUNT>
0
> <PUBCHEM_BOND_DEF_STEREO_COUNT>
0
> <PUBCHEM_BOND_UDEF_STEREO_COUNT>
0
> <PUBCHEM_ISOTOPIC_ATOM_COUNT>
0
> <PUBCHEM_COMPONENT_COUNT>
1
> <PUBCHEM_CACTVS_TAUTO_COUNT>
-1
> <PUBCHEM_COORDINATE_TYPE>
1
5
255
> <PUBCHEM_BONDANNOTATIONS>
20  13  5
13  25  8
13  26  8
15  25  8
15  32  8
17  36  6
18  2  6
26  31  8
21  3  6
22  3  5
31  32  8
19  4  6
24  6  6
27  8  6
$$$$
