513594
  -OEChem-10302200282D
 48 51  0     1  0  0  0  0  0999 V2000
    5.5103    1.4952    0.0000 O   0  0  0  0  0  0  0  0  0  0  0  0
    7.2762    2.5330    0.0000 O   0  0  0  0  0  0  0  0  0  0  0  0
    2.8680   -0.0121    0.0000 O   0  0  0  0  0  0  0  0  0  0  0  0
    2.8680   -2.0604    0.0000 O   0  0  0  0  0  0  0  0  0  0  0  0
    8.1223   -2.0332    0.0000 N   0  0  3  0  0  0  0  0  0  0  0  0
    7.2641   -1.5363    0.0000 C   0  0  3  0  0  0  0  0  0  0  0  0
    6.3981   -2.0363    0.0000 C   0  0  2  0  0  0  0  0  0  0  0  0
    7.2641   -0.5363    0.0000 C   0  0  0  0  0  0  0  0  0  0  0  0
    8.1741   -0.0294    0.0000 C   0  0  0  0  0  0  0  0  0  0  0  0
    5.5320   -1.5363    0.0000 C   0  0  0  0  0  0  0  0  0  0  0  0
    6.3981   -0.0363    0.0000 C   0  0  0  0  0  0  0  0  0  0  0  0
    8.9878   -1.5490    0.0000 C   0  0  0  0  0  0  0  0  0  0  0  0
    9.0134   -0.5577    0.0000 C   0  0  0  0  0  0  0  0  0  0  0  0
    5.5320   -0.5363    0.0000 C   0  0  0  0  0  0  0  0  0  0  0  0
    6.3981   -3.0363    0.0000 C   0  0  0  0  0  0  0  0  0  0  0  0
    8.1149   -3.0332    0.0000 C   0  0  0  0  0  0  0  0  0  0  0  0
    6.3820    1.0052    0.0000 C   0  0  0  0  0  0  0  0  0  0  0  0
    8.1821    1.0122    0.0000 C   0  0  0  0  0  0  0  0  0  0  0  0
    4.6381   -2.0710    0.0000 C   0  0  0  0  0  0  0  0  0  0  0  0
    7.2800    1.5330    0.0000 C   0  0  0  0  0  0  0  0  0  0  0  0
    4.6381   -0.0016    0.0000 C   0  0  0  0  0  0  0  0  0  0  0  0
    3.7320   -1.5571    0.0000 C   0  0  0  0  0  0  0  0  0  0  0  0
    3.7320   -0.5155    0.0000 C   0  0  0  0  0  0  0  0  0  0  0  0
    8.1403    3.0363    0.0000 C   0  0  0  0  0  0  0  0  0  0  0  0
    2.0000   -0.5088    0.0000 C   0  0  0  0  0  0  0  0  0  0  0  0
    7.2637   -2.1563    0.0000 H   0  0  0  0  0  0  0  0  0  0  0  0
    5.8611   -2.3463    0.0000 H   0  0  0  0  0  0  0  0  0  0  0  0
    9.1895   -2.1353    0.0000 H   0  0  0  0  0  0  0  0  0  0  0  0
    9.6006   -1.4547    0.0000 H   0  0  0  0  0  0  0  0  0  0  0  0
    9.6205   -0.6836    0.0000 H   0  0  0  0  0  0  0  0  0  0  0  0
    9.2452    0.0174    0.0000 H   0  0  0  0  0  0  0  0  0  0  0  0
    5.7781   -3.0363    0.0000 H   0  0  0  0  0  0  0  0  0  0  0  0
    6.3981   -3.6563    0.0000 H   0  0  0  0  0  0  0  0  0  0  0  0
    7.0181   -3.0363    0.0000 H   0  0  0  0  0  0  0  0  0  0  0  0
    7.4949   -3.0286    0.0000 H   0  0  0  0  0  0  0  0  0  0  0  0
    8.1103   -3.6532    0.0000 H   0  0  0  0  0  0  0  0  0  0  0  0
    8.7349   -3.0378    0.0000 H   0  0  0  0  0  0  0  0  0  0  0  0
    8.7203    1.3201    0.0000 H   0  0  0  0  0  0  0  0  0  0  0  0
    4.6453   -2.6909    0.0000 H   0  0  0  0  0  0  0  0  0  0  0  0
    4.6453    0.6183    0.0000 H   0  0  0  0  0  0  0  0  0  0  0  0
    5.5031    2.1151    0.0000 H   0  0  0  0  0  0  0  0  0  0  0  0
    2.8703   -2.6804    0.0000 H   0  0  0  0  0  0  0  0  0  0  0  0
    8.4523    2.5006    0.0000 H   0  0  0  0  0  0  0  0  0  0  0  0
    8.6760    3.3484    0.0000 H   0  0  0  0  0  0  0  0  0  0  0  0
    7.8282    3.5720    0.0000 H   0  0  0  0  0  0  0  0  0  0  0  0
    1.6921    0.0293    0.0000 H   0  0  0  0  0  0  0  0  0  0  0  0
    1.4619   -0.8167    0.0000 H   0  0  0  0  0  0  0  0  0  0  0  0
    2.3079   -1.0469    0.0000 H   0  0  0  0  0  0  0  0  0  0  0  0
  1 17  1  0  0  0  0
  1 41  1  0  0  0  0
  2 20  1  0  0  0  0
  2 24  1  0  0  0  0
  3 23  1  0  0  0  0
  3 25  1  0  0  0  0
  4 22  1  0  0  0  0
  4 42  1  0  0  0  0
  5  6  1  0  0  0  0
  5 12  1  0  0  0  0
  5 16  1  0  0  0  0
  6  7  1  0  0  0  0
  6  8  1  0  0  0  0
  6 26  1  0  0  0  0
  7 10  1  0  0  0  0
  7 15  1  1  0  0  0
  7 27  1  0  0  0  0
  8  9  1  0  0  0  0
  8 11  2  0  0  0  0
  9 13  1  0  0  0  0
  9 18  2  0  0  0  0
 10 14  1  0  0  0  0
 10 19  2  0  0  0  0
 11 14  1  0  0  0  0
 11 17  1  0  0  0  0
 12 13  1  0  0  0  0
 12 28  1  0  0  0  0
 12 29  1  0  0  0  0
 13 30  1  0  0  0  0
 13 31  1  0  0  0  0
 14 21  2  0  0  0  0
 15 32  1  0  0  0  0
 15 33  1  0  0  0  0
 15 34  1  0  0  0  0
 16 35  1  0  0  0  0
 16 36  1  0  0  0  0
 16 37  1  0  0  0  0
 17 20  2  0  0  0  0
 18 20  1  0  0  0  0
 18 38  1  0  0  0  0
 19 22  1  0  0  0  0
 19 39  1  0  0  0  0
 21 23  1  0  0  0  0
 21 40  1  0  0  0  0
 22 23  2  0  0  0  0
 24 43  1  0  0  0  0
 24 44  1  0  0  0  0
 24 45  1  0  0  0  0
 25 46  1  0  0  0  0
 25 47  1  0  0  0  0
 25 48  1  0  0  0  0
M  END
> <PUBCHEM_COMPOUND_CID>
513594
> <PUBCHEM_COMPOUND_CANONICALIZED>
1
> <PUBCHEM_CACTVS_COMPLEXITY>
488
> <PUBCHEM_CACTVS_HBOND_ACCEPTOR>
5
> <PUBCHEM_CACTVS_HBOND_DONOR>
2
> <PUBCHEM_CACTVS_ROTATABLE_BOND>
2
> <PUBCHEM_CACTVS_SUBSKEYS>
AAADceB6OAAAAAAAAAAAAAAAAAAAAAAAAAA8YMEAAAAAAADxQAAAHgAACAAADSzBmAYyBoMABgCAAiBCAACCCAAgIAAAiAAOjIgNJiKGsRuEcCtkwBGLuAew8P8OoAADAAAYQADQAAaAADSAAAAAAAAAAA==
> <PUBCHEM_IUPAC_OPENEYE_NAME>
(7S)-2,10-dimethoxy-6,7-dimethyl-5,6,6a,7-tetrahydro-4H-dibenzo[de,g]quinoline-1,9-diol
> <PUBCHEM_IUPAC_CAS_NAME>
(7S)-2,10-dimethoxy-6,7-dimethyl-5,6,6a,7-tetrahydro-4H-dibenzo[de,g]quinoline-1,9-diol
> <PUBCHEM_IUPAC_NAME_MARKUP>
(7<I>S</I>)-2,10-dimethoxy-6,7-dimethyl-5,6,6<I>a</I>,7-tetrahydro-4<I>H</I>-dibenzo[de,g]quinoline-1,9-diol
> <PUBCHEM_IUPAC_NAME>
(7S)-2,10-dimethoxy-6,7-dimethyl-5,6,6a,7-tetrahydro-4H-dibenzo[de,g]quinoline-1,9-diol
> <PUBCHEM_IUPAC_SYSTEMATIC_NAME>
(7S)-2,10-dimethoxy-6,7-dimethyl-5,6,6a,7-tetrahydro-4H-dibenzo[de,g]quinoline-1,9-diol
> <PUBCHEM_IUPAC_TRADITIONAL_NAME>
(7S)-2,10-dimethoxy-6,7-dimethyl-5,6,6a,7-tetrahydro-4H-dibenzo[de,g]quinoline-1,9-diol
> <PUBCHEM_IUPAC_INCHI>
InChI=1S/C20H23NO4/c1-10-12-8-14(22)15(24-3)9-13(12)18-17-11(5-6-21(2)19(10)17)7-16(25-4)20(18)23/h7-10,19,22-23H,5-6H2,1-4H3/t10-,19?/m0/s1
> <PUBCHEM_IUPAC_INCHIKEY>
SJPNIVPBALJABO-IHBJSSOOSA-N
> <PUBCHEM_XLOGP3_AA>
3
> <PUBCHEM_EXACT_MASS>
341.16270821
> <PUBCHEM_MOLECULAR_FORMULA>
C20H23NO4
> <PUBCHEM_MOLECULAR_WEIGHT>
341.4
> <PUBCHEM_OPENEYE_CAN_SMILES>
CC1C2C3=C(C4=CC(=C(C=C14)O)OC)C(=C(C=C3CCN2C)OC)O
> <PUBCHEM_OPENEYE_ISO_SMILES>
C[C@@H]1C2C3=C(C4=CC(=C(C=C14)O)OC)C(=C(C=C3CCN2C)OC)O
> <PUBCHEM_CACTVS_TPSA>
62.2
> <PUBCHEM_MONOISOTOPIC_WEIGHT>
341.16270821
> <PUBCHEM_TOTAL_CHARGE>
0
> <PUBCHEM_HEAVY_ATOM_COUNT>
25
> <PUBCHEM_ATOM_DEF_STEREO_COUNT>
1
> <PUBCHEM_ATOM_UDEF_STEREO_COUNT>
1
> <PUBCHEM_BOND_DEF_STEREO_COUNT>
0
> <PUBCHEM_BOND_UDEF_STEREO_COUNT>
0
> <PUBCHEM_ISOTOPIC_ATOM_COUNT>
0
> <PUBCHEM_COMPONENT_COUNT>
1
> <PUBCHEM_CACTVS_TAUTO_COUNT>
-1
> <PUBCHEM_COORDINATE_TYPE>
1
5
255
> <PUBCHEM_BONDANNOTATIONS>
10  14  8
10  19  8
11  17  8
14  21  8
17  20  8
18  20  8
19  22  8
21  23  8
22  23  8
6  5  3
7  15  5
8  11  8
8  9  8
9  18  8
$$$$
