513568
  -OEChem-10302200282D
 71 74  0     1  0  0  0  0  0999 V2000
    9.8988   -0.9712    0.0000 O   0  0  0  0  0  0  0  0  0  0  0  0
   10.9157    1.4082    0.0000 O   0  0  0  0  0  0  0  0  0  0  0  0
    8.9282    1.5233    0.0000 O   0  0  0  0  0  0  0  0  0  0  0  0
   12.3714   -0.2086    0.0000 O   0  0  0  0  0  0  0  0  0  0  0  0
    7.1962    1.5233    0.0000 O   0  0  0  0  0  0  0  0  0  0  0  0
    7.1962    0.5233    0.0000 O   0  0  0  0  0  0  0  0  0  0  0  0
    8.9282    3.5233    0.0000 O   0  0  0  0  0  0  0  0  0  0  0  0
    7.1962    4.5233    0.0000 O   0  0  0  0  0  0  0  0  0  0  0  0
    9.7013   -2.7972    0.0000 O   0  0  0  0  0  0  0  0  0  0  0  0
   12.5039   -4.8333    0.0000 O   0  0  0  0  0  0  0  0  0  0  0  0
    5.4641    0.5233    0.0000 O   0  0  0  0  0  0  0  0  0  0  0  0
    2.8660    3.0233    0.0000 O   0  0  0  0  0  0  0  0  0  0  0  0
   11.2836   -2.0927    0.0000 N   0  0  0  0  0  0  0  0  0  0  0  0
   11.1026   -3.8152    0.0000 N   0  0  0  0  0  0  0  0  0  0  0  0
    8.0622   -0.9767    0.0000 N   0  0  0  0  0  0  0  0  0  0  0  0
    4.5981    2.0233    0.0000 N   0  0  0  0  0  0  0  0  0  0  0  0
    9.7942    0.0233    0.0000 C   0  0  1  0  0  0  0  0  0  0  0  0
   10.7078    0.4300    0.0000 C   0  0  2  0  0  0  0  0  0  0  0  0
   11.3769   -0.3131    0.0000 C   0  0  2  0  0  0  0  0  0  0  0  0
   10.8769   -1.1791    0.0000 C   0  0  1  0  0  0  0  0  0  0  0  0
    8.9282    0.5233    0.0000 C   0  0  2  0  0  0  0  0  0  0  0  0
    8.0622    2.0233    0.0000 C   0  0  1  0  0  0  0  0  0  0  0  0
    8.0622    0.0233    0.0000 C   0  0  0  0  0  0  0  0  0  0  0  0
    8.0622    3.0233    0.0000 C   0  0  2  0  0  0  0  0  0  0  0  0
   10.6959   -2.9017    0.0000 C   0  0  0  0  0  0  0  0  0  0  0  0
   12.2782   -2.1972    0.0000 C   0  0  0  0  0  0  0  0  0  0  0  0
   11.8667    1.7172    0.0000 C   0  0  0  0  0  0  0  0  0  0  0  0
    7.1962    3.5233    0.0000 C   0  0  2  0  0  0  0  0  0  0  0  0
   12.6849   -3.1108    0.0000 C   0  0  0  0  0  0  0  0  0  0  0  0
    6.3301    3.0233    0.0000 C   0  0  0  0  0  0  0  0  0  0  0  0
    6.3301    2.0233    0.0000 C   0  0  0  0  0  0  0  0  0  0  0  0
   12.0971   -3.9198    0.0000 C   0  0  0  0  0  0  0  0  0  0  0  0
    5.4641    1.5233    0.0000 C   0  0  0  0  0  0  0  0  0  0  0  0
    3.7320    1.5233    0.0000 C   0  0  0  0  0  0  0  0  0  0  0  0
    2.8660    2.0233    0.0000 C   0  0  0  0  0  0  0  0  0  0  0  0
    3.7320    0.5233    0.0000 C   0  0  0  0  0  0  0  0  0  0  0  0
    2.0000    1.5233    0.0000 C   0  0  0  0  0  0  0  0  0  0  0  0
    2.8660    0.0233    0.0000 C   0  0  0  0  0  0  0  0  0  0  0  0
    2.0000    0.5233    0.0000 C   0  0  0  0  0  0  0  0  0  0  0  0
    2.0000    3.5233    0.0000 C   0  0  0  0  0  0  0  0  0  0  0  0
    2.0000    4.5233    0.0000 C   0  0  0  0  0  0  0  0  0  0  0  0
    9.0814   -0.4396    0.0000 H   0  0  0  0  0  0  0  0  0  0  0  0
   11.3066    0.5905    0.0000 H   0  0  0  0  0  0  0  0  0  0  0  0
   11.7146   -0.8331    0.0000 H   0  0  0  0  0  0  0  0  0  0  0  0
   10.4867   -1.6610    0.0000 H   0  0  0  0  0  0  0  0  0  0  0  0
    9.4651    0.8333    0.0000 H   0  0  0  0  0  0  0  0  0  0  0  0
    8.0622    1.4033    0.0000 H   0  0  0  0  0  0  0  0  0  0  0  0
   12.6236    0.3578    0.0000 H   0  0  0  0  0  0  0  0  0  0  0  0
    8.0622    3.6433    0.0000 H   0  0  0  0  0  0  0  0  0  0  0  0
   12.6426   -1.6956    0.0000 H   0  0  0  0  0  0  0  0  0  0  0  0
   12.0583    1.1276    0.0000 H   0  0  0  0  0  0  0  0  0  0  0  0
   12.4564    1.9088    0.0000 H   0  0  0  0  0  0  0  0  0  0  0  0
   11.6752    2.3069    0.0000 H   0  0  0  0  0  0  0  0  0  0  0  0
    6.6592    3.8333    0.0000 H   0  0  0  0  0  0  0  0  0  0  0  0
   10.7382   -4.3168    0.0000 H   0  0  0  0  0  0  0  0  0  0  0  0
   13.3015   -3.1756    0.0000 H   0  0  0  0  0  0  0  0  0  0  0  0
    7.5252   -1.2867    0.0000 H   0  0  0  0  0  0  0  0  0  0  0  0
    8.5991   -1.2867    0.0000 H   0  0  0  0  0  0  0  0  0  0  0  0
    5.7932    3.3333    0.0000 H   0  0  0  0  0  0  0  0  0  0  0  0
    8.9282    4.1433    0.0000 H   0  0  0  0  0  0  0  0  0  0  0  0
    6.6592    4.8333    0.0000 H   0  0  0  0  0  0  0  0  0  0  0  0
    4.5981    2.6433    0.0000 H   0  0  0  0  0  0  0  0  0  0  0  0
    4.2690    0.2133    0.0000 H   0  0  0  0  0  0  0  0  0  0  0  0
    1.4631    1.8333    0.0000 H   0  0  0  0  0  0  0  0  0  0  0  0
    2.8660   -0.5967    0.0000 H   0  0  0  0  0  0  0  0  0  0  0  0
    1.4631    0.2133    0.0000 H   0  0  0  0  0  0  0  0  0  0  0  0
    1.3894    3.6310    0.0000 H   0  0  0  0  0  0  0  0  0  0  0  0
    1.7880    2.9407    0.0000 H   0  0  0  0  0  0  0  0  0  0  0  0
    2.6200    4.5233    0.0000 H   0  0  0  0  0  0  0  0  0  0  0  0
    2.0000    5.1433    0.0000 H   0  0  0  0  0  0  0  0  0  0  0  0
    1.3800    4.5233    0.0000 H   0  0  0  0  0  0  0  0  0  0  0  0
  1 17  1  0  0  0  0
  1 20  1  0  0  0  0
 18  2  1  1  0  0  0
  2 27  1  0  0  0  0
 21  3  1  6  0  0  0
 22  3  1  1  0  0  0
 19  4  1  1  0  0  0
  4 48  1  0  0  0  0
  5 22  1  0  0  0  0
  5 31  1  0  0  0  0
  6 23  2  0  0  0  0
 24  7  1  6  0  0  0
  7 60  1  0  0  0  0
 28  8  1  6  0  0  0
  8 61  1  0  0  0  0
  9 25  2  0  0  0  0
 10 32  2  0  0  0  0
 11 33  2  0  0  0  0
 12 35  1  0  0  0  0
 12 40  1  0  0  0  0
 20 13  1  6  0  0  0
 13 25  1  0  0  0  0
 13 26  1  0  0  0  0
 14 25  1  0  0  0  0
 14 32  1  0  0  0  0
 14 55  1  0  0  0  0
 15 23  1  0  0  0  0
 15 57  1  0  0  0  0
 15 58  1  0  0  0  0
 16 33  1  0  0  0  0
 16 34  1  0  0  0  0
 16 62  1  0  0  0  0
 17 18  1  0  0  0  0
 17 21  1  0  0  0  0
 17 42  1  1  0  0  0
 18 19  1  0  0  0  0
 18 43  1  0  0  0  0
 19 20  1  0  0  0  0
 19 44  1  0  0  0  0
 20 45  1  0  0  0  0
 21 23  1  0  0  0  0
 21 46  1  0  0  0  0
 22 24  1  0  0  0  0
 22 47  1  0  0  0  0
 24 28  1  0  0  0  0
 24 49  1  0  0  0  0
 26 29  2  0  0  0  0
 26 50  1  0  0  0  0
 27 51  1  0  0  0  0
 27 52  1  0  0  0  0
 27 53  1  0  0  0  0
 28 30  1  0  0  0  0
 28 54  1  0  0  0  0
 29 32  1  0  0  0  0
 29 56  1  0  0  0  0
 30 31  2  0  0  0  0
 30 59  1  0  0  0  0
 31 33  1  0  0  0  0
 34 35  1  0  0  0  0
 34 36  2  0  0  0  0
 35 37  2  0  0  0  0
 36 38  1  0  0  0  0
 36 63  1  0  0  0  0
 37 39  1  0  0  0  0
 37 64  1  0  0  0  0
 38 39  2  0  0  0  0
 38 65  1  0  0  0  0
 39 66  1  0  0  0  0
 40 41  1  0  0  0  0
 40 67  1  0  0  0  0
 40 68  1  0  0  0  0
 41 69  1  0  0  0  0
 41 70  1  0  0  0  0
 41 71  1  0  0  0  0
M  END
> <PUBCHEM_COMPOUND_CID>
513568
> <PUBCHEM_COMPOUND_CANONICALIZED>
1
> <PUBCHEM_CACTVS_COMPLEXITY>
1070
> <PUBCHEM_CACTVS_HBOND_ACCEPTOR>
12
> <PUBCHEM_CACTVS_HBOND_DONOR>
6
> <PUBCHEM_CACTVS_ROTATABLE_BOND>
10
> <PUBCHEM_CACTVS_SUBSKEYS>
AAADceB7vAAAAAAAAAAAAAAAAAAAASAAAAAwQIAAAAAAAAABAAAAHgAQCAAACBzxkAczzoPABgCIACVWUAKCCAAhIgAIiAFPbMifNjbEsZ+veCjv9zPf+cf6fA5AAAAAAAAAEAAAAAAAAAAgAAAAAAAAAA==
> <PUBCHEM_IUPAC_OPENEYE_NAME>
(2S,3S,4S)-2-[(1R)-2-amino-1-[(2S,3S,4R,5R)-5-(2,4-dioxopyrimidin-1-yl)-4-hydroxy-3-methoxy-tetrahydrofuran-2-yl]-2-oxo-ethoxy]-N-(2-ethoxyphenyl)-3,4-dihydroxy-3,4-dihydro-2H-pyran-6-carboxamide
> <PUBCHEM_IUPAC_CAS_NAME>
(2S,3S,4S)-2-[(1R)-2-amino-1-[(2S,3S,4R,5R)-5-(2,4-dioxo-1-pyrimidinyl)-4-hydroxy-3-methoxy-2-oxolanyl]-2-oxoethoxy]-N-(2-ethoxyphenyl)-3,4-dihydroxy-3,4-dihydro-2H-pyran-6-carboxamide
> <PUBCHEM_IUPAC_NAME_MARKUP>
(2<I>S</I>,3<I>S</I>,4<I>S</I>)-2-[(1<I>R</I>)-2-amino-1-[(2<I>S</I>,3<I>S</I>,4<I>R</I>,5<I>R</I>)-5-(2,4-dioxopyrimidin-1-yl)-4-hydroxy-3-methoxyoxolan-2-yl]-2-oxoethoxy]-<I>N</I>-(2-ethoxyphenyl)-3,4-dihydroxy-3,4-dihydro-2<I>H</I>-pyran-6-carboxamide
> <PUBCHEM_IUPAC_NAME>
(2S,3S,4S)-2-[(1R)-2-amino-1-[(2S,3S,4R,5R)-5-(2,4-dioxopyrimidin-1-yl)-4-hydroxy-3-methoxyoxolan-2-yl]-2-oxoethoxy]-N-(2-ethoxyphenyl)-3,4-dihydroxy-3,4-dihydro-2H-pyran-6-carboxamide
> <PUBCHEM_IUPAC_SYSTEMATIC_NAME>
(2S,3S,4S)-2-[(1R)-2-azanyl-1-[(2S,3S,4R,5R)-5-[2,4-bis(oxidanylidene)pyrimidin-1-yl]-3-methoxy-4-oxidanyl-oxolan-2-yl]-2-oxidanylidene-ethoxy]-N-(2-ethoxyphenyl)-3,4-bis(oxidanyl)-3,4-dihydro-2H-pyran-6-carboxamide
> <PUBCHEM_IUPAC_TRADITIONAL_NAME>
(2S,3S,4S)-2-[(1R)-2-amino-1-[(2S,3S,4R,5R)-5-(2,4-diketopyrimidin-1-yl)-4-hydroxy-3-methoxy-tetrahydrofuran-2-yl]-2-keto-ethoxy]-3,4-dihydroxy-N-o-phenetyl-3,4-dihydro-2H-pyran-6-carboxamide
> <PUBCHEM_IUPAC_INCHI>
InChI=1S/C25H30N4O12/c1-3-38-13-7-5-4-6-11(13)27-22(35)14-10-12(30)16(32)24(39-14)41-20(21(26)34)19-18(37-2)17(33)23(40-19)29-9-8-15(31)28-25(29)36/h4-10,12,16-20,23-24,30,32-33H,3H2,1-2H3,(H2,26,34)(H,27,35)(H,28,31,36)/t12-,16-,17+,18-,19-,20+,23+,24+/m0/s1
> <PUBCHEM_IUPAC_INCHIKEY>
CEUYXCOQBKLMOA-PDCOJEMTSA-N
> <PUBCHEM_XLOGP3_AA>
-2.4
> <PUBCHEM_EXACT_MASS>
578.18602241
> <PUBCHEM_MOLECULAR_FORMULA>
C25H30N4O12
> <PUBCHEM_MOLECULAR_WEIGHT>
578.5
> <PUBCHEM_OPENEYE_CAN_SMILES>
CCOC1=CC=CC=C1NC(=O)C2=CC(C(C(O2)OC(C3C(C(C(O3)N4C=CC(=O)NC4=O)O)OC)C(=O)N)O)O
> <PUBCHEM_OPENEYE_ISO_SMILES>
CCOC1=CC=CC=C1NC(=O)C2=C[C@@H]([C@@H]([C@H](O2)O[C@H]([C@@H]3[C@H]([C@H]([C@@H](O3)N4C=CC(=O)NC4=O)O)OC)C(=O)N)O)O
> <PUBCHEM_CACTVS_TPSA>
228
> <PUBCHEM_MONOISOTOPIC_WEIGHT>
578.18602241
> <PUBCHEM_TOTAL_CHARGE>
0
> <PUBCHEM_HEAVY_ATOM_COUNT>
41
> <PUBCHEM_ATOM_DEF_STEREO_COUNT>
8
> <PUBCHEM_ATOM_UDEF_STEREO_COUNT>
0
> <PUBCHEM_BOND_DEF_STEREO_COUNT>
0
> <PUBCHEM_BOND_UDEF_STEREO_COUNT>
0
> <PUBCHEM_ISOTOPIC_ATOM_COUNT>
0
> <PUBCHEM_COMPONENT_COUNT>
1
> <PUBCHEM_CACTVS_TAUTO_COUNT>
-1
> <PUBCHEM_COORDINATE_TYPE>
1
5
255
> <PUBCHEM_BONDANNOTATIONS>
20  13  6
13  25  8
13  26  8
14  25  8
14  32  8
17  42  5
18  2  5
26  29  8
29  32  8
21  3  6
22  3  5
34  35  8
34  36  8
35  37  8
36  38  8
37  39  8
38  39  8
19  4  5
24  7  6
28  8  6
$$$$
