513526
  -OEChem-10302200282D
 84 86  0     1  0  0  0  0  0999 V2000
   16.7700   -0.6774    0.0000 O   0  0  0  0  0  0  0  0  0  0  0  0
   15.2178   -2.7478    0.0000 O   0  0  0  0  0  0  0  0  0  0  0  0
   14.9904    0.4159    0.0000 O   0  0  0  0  0  0  0  0  0  0  0  0
   17.3458   -3.2001    0.0000 O   0  0  0  0  0  0  0  0  0  0  0  0
   13.2583    0.4159    0.0000 O   0  0  0  0  0  0  0  0  0  0  0  0
   13.2583   -0.5841    0.0000 O   0  0  0  0  0  0  0  0  0  0  0  0
   14.9904    2.4159    0.0000 O   0  0  0  0  0  0  0  0  0  0  0  0
   18.6147   -3.0385    0.0000 O   0  0  0  0  0  0  0  0  0  0  0  0
   13.2583    3.4159    0.0000 O   0  0  0  0  0  0  0  0  0  0  0  0
   21.4172   -1.0024    0.0000 O   0  0  0  0  0  0  0  0  0  0  0  0
   11.5263   -0.5841    0.0000 O   0  0  0  0  0  0  0  0  0  0  0  0
   18.4336   -1.3160    0.0000 N   0  0  0  0  0  0  0  0  0  0  0  0
   20.0159   -2.0205    0.0000 N   0  0  0  0  0  0  0  0  0  0  0  0
   14.1244   -2.0841    0.0000 N   0  0  0  0  0  0  0  0  0  0  0  0
   10.6603    0.9159    0.0000 N   0  0  0  0  0  0  0  0  0  0  0  0
   15.8564   -1.0841    0.0000 C   0  0  1  0  0  0  0  0  0  0  0  0
   15.9609   -2.0786    0.0000 C   0  0  2  0  0  0  0  0  0  0  0  0
   16.9391   -2.2865    0.0000 C   0  0  2  0  0  0  0  0  0  0  0  0
   17.4391   -1.4205    0.0000 C   0  0  1  0  0  0  0  0  0  0  0  0
   14.9904   -0.5841    0.0000 C   0  0  2  0  0  0  0  0  0  0  0  0
   14.1244    0.9159    0.0000 C   0  0  1  0  0  0  0  0  0  0  0  0
   14.1244   -1.0841    0.0000 C   0  0  0  0  0  0  0  0  0  0  0  0
   14.1244    1.9159    0.0000 C   0  0  2  0  0  0  0  0  0  0  0  0
   19.0214   -2.1250    0.0000 C   0  0  0  0  0  0  0  0  0  0  0  0
   18.8403   -0.4024    0.0000 C   0  0  0  0  0  0  0  0  0  0  0  0
   15.4257   -3.7259    0.0000 C   0  0  0  0  0  0  0  0  0  0  0  0
   13.2583    2.4159    0.0000 C   0  0  2  0  0  0  0  0  0  0  0  0
   19.8349   -0.2979    0.0000 C   0  0  0  0  0  0  0  0  0  0  0  0
   12.3923    1.9159    0.0000 C   0  0  0  0  0  0  0  0  0  0  0  0
   12.3923    0.9159    0.0000 C   0  0  0  0  0  0  0  0  0  0  0  0
   20.4226   -1.1069    0.0000 C   0  0  0  0  0  0  0  0  0  0  0  0
   11.5263    0.4159    0.0000 C   0  0  0  0  0  0  0  0  0  0  0  0
    7.1962    0.9159    0.0000 C   0  0  0  0  0  0  0  0  0  0  0  0
    8.0622    0.4159    0.0000 C   0  0  0  0  0  0  0  0  0  0  0  0
    6.3301    0.4159    0.0000 C   0  0  0  0  0  0  0  0  0  0  0  0
    8.9282    0.9159    0.0000 C   0  0  0  0  0  0  0  0  0  0  0  0
    5.4641    0.9159    0.0000 C   0  0  0  0  0  0  0  0  0  0  0  0
    9.7942    0.4159    0.0000 C   0  0  0  0  0  0  0  0  0  0  0  0
    4.5981    0.4159    0.0000 C   0  0  0  0  0  0  0  0  0  0  0  0
    3.7320    0.9159    0.0000 C   0  0  0  0  0  0  0  0  0  0  0  0
    2.8660    0.4159    0.0000 C   0  0  0  0  0  0  0  0  0  0  0  0
    2.0000    0.9159    0.0000 C   0  0  0  0  0  0  0  0  0  0  0  0
   16.5925   -1.5091    0.0000 H   0  0  0  0  0  0  0  0  0  0  0  0
   16.1214   -2.6775    0.0000 H   0  0  0  0  0  0  0  0  0  0  0  0
   17.5582   -2.3190    0.0000 H   0  0  0  0  0  0  0  0  0  0  0  0
   17.7768   -1.9405    0.0000 H   0  0  0  0  0  0  0  0  0  0  0  0
   15.5273   -0.2741    0.0000 H   0  0  0  0  0  0  0  0  0  0  0  0
   14.1244    0.2959    0.0000 H   0  0  0  0  0  0  0  0  0  0  0  0
   16.9814   -3.7017    0.0000 H   0  0  0  0  0  0  0  0  0  0  0  0
   14.1244    2.5359    0.0000 H   0  0  0  0  0  0  0  0  0  0  0  0
   18.4759    0.0992    0.0000 H   0  0  0  0  0  0  0  0  0  0  0  0
   14.8193   -3.8548    0.0000 H   0  0  0  0  0  0  0  0  0  0  0  0
   15.5546   -4.3324    0.0000 H   0  0  0  0  0  0  0  0  0  0  0  0
   16.0322   -3.5970    0.0000 H   0  0  0  0  0  0  0  0  0  0  0  0
   12.7214    2.7259    0.0000 H   0  0  0  0  0  0  0  0  0  0  0  0
   20.3803   -2.5221    0.0000 H   0  0  0  0  0  0  0  0  0  0  0  0
   20.0870    0.2685    0.0000 H   0  0  0  0  0  0  0  0  0  0  0  0
   13.5874   -2.3941    0.0000 H   0  0  0  0  0  0  0  0  0  0  0  0
   14.6613   -2.3941    0.0000 H   0  0  0  0  0  0  0  0  0  0  0  0
   11.8554    2.2259    0.0000 H   0  0  0  0  0  0  0  0  0  0  0  0
   14.9904    3.0359    0.0000 H   0  0  0  0  0  0  0  0  0  0  0  0
    7.5947    1.3908    0.0000 H   0  0  0  0  0  0  0  0  0  0  0  0
    6.7976    1.3908    0.0000 H   0  0  0  0  0  0  0  0  0  0  0  0
    7.6636   -0.0590    0.0000 H   0  0  0  0  0  0  0  0  0  0  0  0
    8.4607   -0.0590    0.0000 H   0  0  0  0  0  0  0  0  0  0  0  0
    5.9316   -0.0590    0.0000 H   0  0  0  0  0  0  0  0  0  0  0  0
    6.7287   -0.0590    0.0000 H   0  0  0  0  0  0  0  0  0  0  0  0
   12.7214    3.7259    0.0000 H   0  0  0  0  0  0  0  0  0  0  0  0
    9.3267    1.3908    0.0000 H   0  0  0  0  0  0  0  0  0  0  0  0
    8.5297    1.3908    0.0000 H   0  0  0  0  0  0  0  0  0  0  0  0
    5.8626    1.3908    0.0000 H   0  0  0  0  0  0  0  0  0  0  0  0
    5.0656    1.3908    0.0000 H   0  0  0  0  0  0  0  0  0  0  0  0
    9.3957   -0.0590    0.0000 H   0  0  0  0  0  0  0  0  0  0  0  0
   10.1928   -0.0590    0.0000 H   0  0  0  0  0  0  0  0  0  0  0  0
    4.1996   -0.0590    0.0000 H   0  0  0  0  0  0  0  0  0  0  0  0
    4.9966   -0.0590    0.0000 H   0  0  0  0  0  0  0  0  0  0  0  0
   10.6603    1.5359    0.0000 H   0  0  0  0  0  0  0  0  0  0  0  0
    4.1306    1.3908    0.0000 H   0  0  0  0  0  0  0  0  0  0  0  0
    3.3335    1.3908    0.0000 H   0  0  0  0  0  0  0  0  0  0  0  0
    2.4675   -0.0590    0.0000 H   0  0  0  0  0  0  0  0  0  0  0  0
    3.2646   -0.0590    0.0000 H   0  0  0  0  0  0  0  0  0  0  0  0
    2.3100    1.4528    0.0000 H   0  0  0  0  0  0  0  0  0  0  0  0
    1.4631    1.2259    0.0000 H   0  0  0  0  0  0  0  0  0  0  0  0
    1.6900    0.3790    0.0000 H   0  0  0  0  0  0  0  0  0  0  0  0
  1 16  1  0  0  0  0
  1 19  1  0  0  0  0
 17  2  1  6  0  0  0
  2 26  1  0  0  0  0
 20  3  1  6  0  0  0
 21  3  1  1  0  0  0
 18  4  1  6  0  0  0
  4 49  1  0  0  0  0
  5 21  1  0  0  0  0
  5 30  1  0  0  0  0
  6 22  2  0  0  0  0
 23  7  1  6  0  0  0
  7 61  1  0  0  0  0
  8 24  2  0  0  0  0
 27  9  1  6  0  0  0
  9 68  1  0  0  0  0
 10 31  2  0  0  0  0
 11 32  2  0  0  0  0
 19 12  1  1  0  0  0
 12 24  1  0  0  0  0
 12 25  1  0  0  0  0
 13 24  1  0  0  0  0
 13 31  1  0  0  0  0
 13 56  1  0  0  0  0
 14 22  1  0  0  0  0
 14 58  1  0  0  0  0
 14 59  1  0  0  0  0
 15 32  1  0  0  0  0
 15 38  1  0  0  0  0
 15 77  1  0  0  0  0
 16 17  1  0  0  0  0
 16 20  1  0  0  0  0
 16 43  1  6  0  0  0
 17 18  1  0  0  0  0
 17 44  1  0  0  0  0
 18 19  1  0  0  0  0
 18 45  1  0  0  0  0
 19 46  1  0  0  0  0
 20 22  1  0  0  0  0
 20 47  1  0  0  0  0
 21 23  1  0  0  0  0
 21 48  1  0  0  0  0
 23 27  1  0  0  0  0
 23 50  1  0  0  0  0
 25 28  2  0  0  0  0
 25 51  1  0  0  0  0
 26 52  1  0  0  0  0
 26 53  1  0  0  0  0
 26 54  1  0  0  0  0
 27 29  1  0  0  0  0
 27 55  1  0  0  0  0
 28 31  1  0  0  0  0
 28 57  1  0  0  0  0
 29 30  2  0  0  0  0
 29 60  1  0  0  0  0
 30 32  1  0  0  0  0
 33 34  1  0  0  0  0
 33 35  1  0  0  0  0
 33 62  1  0  0  0  0
 33 63  1  0  0  0  0
 34 36  1  0  0  0  0
 34 64  1  0  0  0  0
 34 65  1  0  0  0  0
 35 37  1  0  0  0  0
 35 66  1  0  0  0  0
 35 67  1  0  0  0  0
 36 38  1  0  0  0  0
 36 69  1  0  0  0  0
 36 70  1  0  0  0  0
 37 39  1  0  0  0  0
 37 71  1  0  0  0  0
 37 72  1  0  0  0  0
 38 73  1  0  0  0  0
 38 74  1  0  0  0  0
 39 40  1  0  0  0  0
 39 75  1  0  0  0  0
 39 76  1  0  0  0  0
 40 41  1  0  0  0  0
 40 78  1  0  0  0  0
 40 79  1  0  0  0  0
 41 42  1  0  0  0  0
 41 80  1  0  0  0  0
 41 81  1  0  0  0  0
 42 82  1  0  0  0  0
 42 83  1  0  0  0  0
 42 84  1  0  0  0  0
M  END
> <PUBCHEM_COMPOUND_CID>
513526
> <PUBCHEM_COMPOUND_CANONICALIZED>
1
> <PUBCHEM_CACTVS_COMPLEXITY>
1020
> <PUBCHEM_CACTVS_HBOND_ACCEPTOR>
11
> <PUBCHEM_CACTVS_HBOND_DONOR>
6
> <PUBCHEM_CACTVS_ROTATABLE_BOND>
16
> <PUBCHEM_CACTVS_SUBSKEYS>
AAADcfB7vAAAAAAAAAAAAAAAAAAAASAAAAAgQAAAAAAAAAAAAAAAHgAQCAAACBTxgAcDCAPABgCIACFWUAKACAAgIgAICIFIAEiTFBYAgAQvUAAP9yKfEcP6/I5AAAAAAAAAAAAAAAAAAAAAAAAAAAAAAA==
> <PUBCHEM_IUPAC_OPENEYE_NAME>
(2S,3S,4S)-2-[(1R)-2-amino-1-[(2S,3S,4R,5R)-5-(2,4-dioxopyrimidin-1-yl)-4-hydroxy-3-methoxy-tetrahydrofuran-2-yl]-2-oxo-ethoxy]-N-decyl-3,4-dihydroxy-3,4-dihydro-2H-pyran-6-carboxamide
> <PUBCHEM_IUPAC_CAS_NAME>
(2S,3S,4S)-2-[(1R)-2-amino-1-[(2S,3S,4R,5R)-5-(2,4-dioxo-1-pyrimidinyl)-4-hydroxy-3-methoxy-2-oxolanyl]-2-oxoethoxy]-N-decyl-3,4-dihydroxy-3,4-dihydro-2H-pyran-6-carboxamide
> <PUBCHEM_IUPAC_NAME_MARKUP>
(2<I>S</I>,3<I>S</I>,4<I>S</I>)-2-[(1<I>R</I>)-2-amino-1-[(2<I>S</I>,3<I>S</I>,4<I>R</I>,5<I>R</I>)-5-(2,4-dioxopyrimidin-1-yl)-4-hydroxy-3-methoxyoxolan-2-yl]-2-oxoethoxy]-<I>N</I>-decyl-3,4-dihydroxy-3,4-dihydro-2<I>H</I>-pyran-6-carboxamide
> <PUBCHEM_IUPAC_NAME>
(2S,3S,4S)-2-[(1R)-2-amino-1-[(2S,3S,4R,5R)-5-(2,4-dioxopyrimidin-1-yl)-4-hydroxy-3-methoxyoxolan-2-yl]-2-oxoethoxy]-N-decyl-3,4-dihydroxy-3,4-dihydro-2H-pyran-6-carboxamide
> <PUBCHEM_IUPAC_SYSTEMATIC_NAME>
(2S,3S,4S)-2-[(1R)-2-azanyl-1-[(2S,3S,4R,5R)-5-[2,4-bis(oxidanylidene)pyrimidin-1-yl]-3-methoxy-4-oxidanyl-oxolan-2-yl]-2-oxidanylidene-ethoxy]-N-decyl-3,4-bis(oxidanyl)-3,4-dihydro-2H-pyran-6-carboxamide
> <PUBCHEM_IUPAC_TRADITIONAL_NAME>
(2S,3S,4S)-2-[(1R)-2-amino-1-[(2S,3S,4R,5R)-5-(2,4-diketopyrimidin-1-yl)-4-hydroxy-3-methoxy-tetrahydrofuran-2-yl]-2-keto-ethoxy]-N-decyl-3,4-dihydroxy-3,4-dihydro-2H-pyran-6-carboxamide
> <PUBCHEM_IUPAC_INCHI>
InChI=1S/C27H42N4O11/c1-3-4-5-6-7-8-9-10-12-29-24(37)16-14-15(32)18(34)26(40-16)42-22(23(28)36)21-20(39-2)19(35)25(41-21)31-13-11-17(33)30-27(31)38/h11,13-15,18-22,25-26,32,34-35H,3-10,12H2,1-2H3,(H2,28,36)(H,29,37)(H,30,33,38)/t15-,18-,19+,20-,21-,22+,25+,26+/m0/s1
> <PUBCHEM_IUPAC_INCHIKEY>
LWKPWLYTAKLOQW-XLDYSHMISA-N
> <PUBCHEM_XLOGP3_AA>
0.2
> <PUBCHEM_EXACT_MASS>
598.28500817
> <PUBCHEM_MOLECULAR_FORMULA>
C27H42N4O11
> <PUBCHEM_MOLECULAR_WEIGHT>
598.6
> <PUBCHEM_OPENEYE_CAN_SMILES>
CCCCCCCCCCNC(=O)C1=CC(C(C(O1)OC(C2C(C(C(O2)N3C=CC(=O)NC3=O)O)OC)C(=O)N)O)O
> <PUBCHEM_OPENEYE_ISO_SMILES>
CCCCCCCCCCNC(=O)C1=C[C@@H]([C@@H]([C@H](O1)O[C@H]([C@@H]2[C@H]([C@H]([C@@H](O2)N3C=CC(=O)NC3=O)O)OC)C(=O)N)O)O
> <PUBCHEM_CACTVS_TPSA>
219
> <PUBCHEM_MONOISOTOPIC_WEIGHT>
598.28500817
> <PUBCHEM_TOTAL_CHARGE>
0
> <PUBCHEM_HEAVY_ATOM_COUNT>
42
> <PUBCHEM_ATOM_DEF_STEREO_COUNT>
8
> <PUBCHEM_ATOM_UDEF_STEREO_COUNT>
0
> <PUBCHEM_BOND_DEF_STEREO_COUNT>
0
> <PUBCHEM_BOND_UDEF_STEREO_COUNT>
0
> <PUBCHEM_ISOTOPIC_ATOM_COUNT>
0
> <PUBCHEM_COMPONENT_COUNT>
1
> <PUBCHEM_CACTVS_TAUTO_COUNT>
-1
> <PUBCHEM_COORDINATE_TYPE>
1
5
255
> <PUBCHEM_BONDANNOTATIONS>
19  12  5
12  24  8
12  25  8
13  24  8
13  31  8
16  43  6
17  2  6
25  28  8
28  31  8
20  3  6
21  3  5
18  4  6
23  7  6
27  9  6
$$$$
