513507
  -OEChem-10302200282D
 38 39  0     1  0  0  0  0  0999 V2000
    5.8042    0.6997    0.0000 S   0  0  0  0  0  0  0  0  0  0  0  0
    6.0780   -0.3598    0.0000 O   0  0  0  0  0  0  0  0  0  0  0  0
    4.9902   -2.7076    0.0000 O   0  0  0  0  0  0  0  0  0  0  0  0
    7.1658   -2.7076    0.0000 O   0  0  0  0  0  0  0  0  0  0  0  0
    7.8381   -0.6386    0.0000 O   0  0  0  0  0  0  0  0  0  0  0  0
    3.4863    3.2740    0.0000 O   0  0  0  0  0  0  0  0  0  0  0  0
    4.1100    0.3396    0.0000 N   0  0  0  0  0  0  0  0  0  0  0  0
    4.6453    1.9869    0.0000 N   0  0  0  0  0  0  0  0  0  0  0  0
    5.2690   -0.9476    0.0000 C   0  0  3  0  0  0  0  0  0  0  0  0
    5.5780   -1.8986    0.0000 C   0  0  3  0  0  0  0  0  0  0  0  0
    6.5780   -1.8986    0.0000 C   0  0  3  0  0  0  0  0  0  0  0  0
    6.8870   -0.9476    0.0000 C   0  0  3  0  0  0  0  0  0  0  0  0
    4.3179   -0.6386    0.0000 C   0  0  0  0  0  0  0  0  0  0  0  0
    3.1590    0.6486    0.0000 C   0  0  0  0  0  0  0  0  0  0  0  0
    4.8532    1.0087    0.0000 C   0  0  0  0  0  0  0  0  0  0  0  0
    8.0460    0.3396    0.0000 C   0  0  0  0  0  0  0  0  0  0  0  0
    2.9511    1.6268    0.0000 C   0  0  0  0  0  0  0  0  0  0  0  0
    3.6942    2.2959    0.0000 C   0  0  0  0  0  0  0  0  0  0  0  0
    2.0000    1.9358    0.0000 C   0  0  0  0  0  0  0  0  0  0  0  0
    6.5474    1.3688    0.0000 C   0  0  0  0  0  0  0  0  0  0  0  0
    5.1720   -0.3352    0.0000 H   0  0  0  0  0  0  0  0  0  0  0  0
    4.9656   -1.8016    0.0000 H   0  0  0  0  0  0  0  0  0  0  0  0
    6.2965   -2.4510    0.0000 H   0  0  0  0  0  0  0  0  0  0  0  0
    7.3254   -1.3860    0.0000 H   0  0  0  0  0  0  0  0  0  0  0  0
    3.6983   -0.6602    0.0000 H   0  0  0  0  0  0  0  0  0  0  0  0
    4.2316   -1.2525    0.0000 H   0  0  0  0  0  0  0  0  0  0  0  0
    5.2424   -3.2740    0.0000 H   0  0  0  0  0  0  0  0  0  0  0  0
    7.7824   -2.6428    0.0000 H   0  0  0  0  0  0  0  0  0  0  0  0
    2.6982    0.2338    0.0000 H   0  0  0  0  0  0  0  0  0  0  0  0
    8.6524    0.2107    0.0000 H   0  0  0  0  0  0  0  0  0  0  0  0
    8.1749    0.9460    0.0000 H   0  0  0  0  0  0  0  0  0  0  0  0
    7.4395    0.4685    0.0000 H   0  0  0  0  0  0  0  0  0  0  0  0
    2.1916    2.5254    0.0000 H   0  0  0  0  0  0  0  0  0  0  0  0
    1.4103    2.1274    0.0000 H   0  0  0  0  0  0  0  0  0  0  0  0
    1.8084    1.3461    0.0000 H   0  0  0  0  0  0  0  0  0  0  0  0
    6.9622    0.9081    0.0000 H   0  0  0  0  0  0  0  0  0  0  0  0
    7.0081    1.7837    0.0000 H   0  0  0  0  0  0  0  0  0  0  0  0
    6.1325    1.8296    0.0000 H   0  0  0  0  0  0  0  0  0  0  0  0
  1 15  1  0  0  0  0
  1 20  1  0  0  0  0
  2  9  1  0  0  0  0
  2 12  1  0  0  0  0
  3 10  1  0  0  0  0
  3 27  1  0  0  0  0
  4 11  1  0  0  0  0
  4 28  1  0  0  0  0
  5 12  1  0  0  0  0
  5 16  1  0  0  0  0
  6 18  2  0  0  0  0
  7 13  1  0  0  0  0
  7 14  1  0  0  0  0
  7 15  1  0  0  0  0
  8 15  2  0  0  0  0
  8 18  1  0  0  0  0
  9 10  1  0  0  0  0
  9 13  1  0  0  0  0
  9 21  1  0  0  0  0
 10 11  1  0  0  0  0
 10 22  1  0  0  0  0
 11 12  1  0  0  0  0
 11 23  1  0  0  0  0
 12 24  1  0  0  0  0
 13 25  1  0  0  0  0
 13 26  1  0  0  0  0
 14 17  2  0  0  0  0
 14 29  1  0  0  0  0
 16 30  1  0  0  0  0
 16 31  1  0  0  0  0
 16 32  1  0  0  0  0
 17 18  1  0  0  0  0
 17 19  1  0  0  0  0
 19 33  1  0  0  0  0
 19 34  1  0  0  0  0
 19 35  1  0  0  0  0
 20 36  1  0  0  0  0
 20 37  1  0  0  0  0
 20 38  1  0  0  0  0
M  END
> <PUBCHEM_COMPOUND_CID>
513507
> <PUBCHEM_COMPOUND_CANONICALIZED>
1
> <PUBCHEM_CACTVS_COMPLEXITY>
453
> <PUBCHEM_CACTVS_HBOND_ACCEPTOR>
6
> <PUBCHEM_CACTVS_HBOND_DONOR>
2
> <PUBCHEM_CACTVS_ROTATABLE_BOND>
4
> <PUBCHEM_CACTVS_SUBSKEYS>
AAADceBzOABAAAAAAAAAAAAAAAAAASAAAAAgAAAAAAAAAAAAAAAAHgQACAAADBTxgAeDCAMABgioAgFWdACAEAFAAAABAAEIAEATEAIAiQAnQAAHAAAXAMDwEAIAAAAAAAAAAAAAAAAAAAAAAAAAAAAAAA==
> <PUBCHEM_IUPAC_OPENEYE_NAME>
1-[(3,4-dihydroxy-5-methoxy-tetrahydrofuran-2-yl)methyl]-5-methyl-2-methylsulfanyl-pyrimidin-4-one
> <PUBCHEM_IUPAC_CAS_NAME>
1-[(3,4-dihydroxy-5-methoxy-2-oxolanyl)methyl]-5-methyl-2-(methylthio)-4-pyrimidinone
> <PUBCHEM_IUPAC_NAME_MARKUP>
1-[(3,4-dihydroxy-5-methoxyoxolan-2-yl)methyl]-5-methyl-2-methylsulfanylpyrimidin-4-one
> <PUBCHEM_IUPAC_NAME>
1-[(3,4-dihydroxy-5-methoxyoxolan-2-yl)methyl]-5-methyl-2-methylsulfanylpyrimidin-4-one
> <PUBCHEM_IUPAC_SYSTEMATIC_NAME>
1-[[5-methoxy-3,4-bis(oxidanyl)oxolan-2-yl]methyl]-5-methyl-2-methylsulfanyl-pyrimidin-4-one
> <PUBCHEM_IUPAC_TRADITIONAL_NAME>
1-[(3,4-dihydroxy-5-methoxy-tetrahydrofuran-2-yl)methyl]-5-methyl-2-(methylthio)pyrimidin-4-one
> <PUBCHEM_IUPAC_INCHI>
InChI=1S/C12H18N2O5S/c1-6-4-14(12(20-3)13-10(6)17)5-7-8(15)9(16)11(18-2)19-7/h4,7-9,11,15-16H,5H2,1-3H3
> <PUBCHEM_IUPAC_INCHIKEY>
ZZHKZXCPHCTAEX-UHFFFAOYSA-N
> <PUBCHEM_XLOGP3_AA>
-0.8
> <PUBCHEM_EXACT_MASS>
302.09364285
> <PUBCHEM_MOLECULAR_FORMULA>
C12H18N2O5S
> <PUBCHEM_MOLECULAR_WEIGHT>
302.35
> <PUBCHEM_OPENEYE_CAN_SMILES>
CC1=CN(C(=NC1=O)SC)CC2C(C(C(O2)OC)O)O
> <PUBCHEM_OPENEYE_ISO_SMILES>
CC1=CN(C(=NC1=O)SC)CC2C(C(C(O2)OC)O)O
> <PUBCHEM_CACTVS_TPSA>
117
> <PUBCHEM_MONOISOTOPIC_WEIGHT>
302.09364285
> <PUBCHEM_TOTAL_CHARGE>
0
> <PUBCHEM_HEAVY_ATOM_COUNT>
20
> <PUBCHEM_ATOM_DEF_STEREO_COUNT>
0
> <PUBCHEM_ATOM_UDEF_STEREO_COUNT>
4
> <PUBCHEM_BOND_DEF_STEREO_COUNT>
0
> <PUBCHEM_BOND_UDEF_STEREO_COUNT>
0
> <PUBCHEM_ISOTOPIC_ATOM_COUNT>
0
> <PUBCHEM_COMPONENT_COUNT>
1
> <PUBCHEM_CACTVS_TAUTO_COUNT>
-1
> <PUBCHEM_COORDINATE_TYPE>
1
5
255
> <PUBCHEM_BONDANNOTATIONS>
14  17  8
17  18  8
10  3  3
11  4  3
12  5  3
7  14  8
7  15  8
8  15  8
8  18  8
9  13  3
$$$$
