513500
  -OEChem-10302200282D
 55 59  0     1  0  0  0  0  0999 V2000
    5.2927    2.9612    0.0000 F   0  0  0  0  0  0  0  0  0  0  0  0
    2.0000    4.0374    0.0000 F   0  0  0  0  0  0  0  0  0  0  0  0
    3.9271    0.3924    0.0000 O   0  0  0  0  0  0  0  0  0  0  0  0
    6.6122   -3.1714    0.0000 O   0  0  0  0  0  0  0  0  0  0  0  0
    5.0286   -0.6346    0.0000 N   0  0  0  0  0  0  0  0  0  0  0  0
    6.3662    1.4174    0.0000 N   0  0  0  0  0  0  0  0  0  0  0  0
    5.0286   -2.2441    0.0000 N   0  0  0  0  0  0  0  0  0  0  0  0
    6.6736    0.4658    0.0000 N   0  0  0  0  0  0  0  0  0  0  0  0
    7.9842    1.4146    0.0000 N   0  0  0  0  0  0  0  0  0  0  0  0
    4.6714    1.0602    0.0000 C   0  0  3  0  0  0  0  0  0  0  0  0
    5.3392    0.3159    0.0000 C   0  0  0  0  0  0  0  0  0  0  0  0
    5.4157    1.7281    0.0000 C   0  0  0  0  0  0  0  0  0  0  0  0
    4.0035    1.8045    0.0000 C   0  0  0  0  0  0  0  0  0  0  0  0
    4.0823   -0.9393    0.0000 C   0  0  0  0  0  0  0  0  0  0  0  0
    5.6122   -1.4393    0.0000 C   0  0  0  0  0  0  0  0  0  0  0  0
    4.0823   -1.9393    0.0000 C   0  0  0  0  0  0  0  0  0  0  0  0
    4.3142    2.7550    0.0000 C   0  0  0  0  0  0  0  0  0  0  0  0
    3.0250    1.5983    0.0000 C   0  0  0  0  0  0  0  0  0  0  0  0
    6.6122   -1.4393    0.0000 C   0  0  0  0  0  0  0  0  0  0  0  0
    3.2163   -0.4393    0.0000 C   0  0  0  0  0  0  0  0  0  0  0  0
    3.2163   -2.4393    0.0000 C   0  0  0  0  0  0  0  0  0  0  0  0
    3.6464    3.4993    0.0000 C   0  0  0  0  0  0  0  0  0  0  0  0
    2.3572    2.3426    0.0000 C   0  0  0  0  0  0  0  0  0  0  0  0
    7.1762    2.0038    0.0000 C   0  0  0  0  0  0  0  0  0  0  0  0
    2.3503   -0.9393    0.0000 C   0  0  0  0  0  0  0  0  0  0  0  0
    7.1122   -2.3054    0.0000 C   0  0  0  0  0  0  0  0  0  0  0  0
    2.3503   -1.9393    0.0000 C   0  0  0  0  0  0  0  0  0  0  0  0
    7.1122   -0.5733    0.0000 C   0  0  0  0  0  0  0  0  0  0  0  0
    2.6678    3.2931    0.0000 C   0  0  0  0  0  0  0  0  0  0  0  0
    8.1122   -2.3054    0.0000 C   0  0  0  0  0  0  0  0  0  0  0  0
    7.6736    0.4641    0.0000 C   0  0  0  0  0  0  0  0  0  0  0  0
    8.1122   -0.5733    0.0000 C   0  0  0  0  0  0  0  0  0  0  0  0
    8.6122   -1.4393    0.0000 C   0  0  0  0  0  0  0  0  0  0  0  0
    7.1122   -4.0374    0.0000 C   0  0  0  0  0  0  0  0  0  0  0  0
    5.8861    0.0239    0.0000 H   0  0  0  0  0  0  0  0  0  0  0  0
    5.7218    0.8038    0.0000 H   0  0  0  0  0  0  0  0  0  0  0  0
    5.7077    2.2750    0.0000 H   0  0  0  0  0  0  0  0  0  0  0  0
    4.9278    2.1106    0.0000 H   0  0  0  0  0  0  0  0  0  0  0  0
    3.3378    0.5850    0.0000 H   0  0  0  0  0  0  0  0  0  0  0  0
    2.8324    1.0090    0.0000 H   0  0  0  0  0  0  0  0  0  0  0  0
    3.2163    0.1807    0.0000 H   0  0  0  0  0  0  0  0  0  0  0  0
    3.2163   -3.0593    0.0000 H   0  0  0  0  0  0  0  0  0  0  0  0
    3.8390    4.0887    0.0000 H   0  0  0  0  0  0  0  0  0  0  0  0
    1.7505    2.2147    0.0000 H   0  0  0  0  0  0  0  0  0  0  0  0
    7.1773    2.6238    0.0000 H   0  0  0  0  0  0  0  0  0  0  0  0
    1.8134   -0.6293    0.0000 H   0  0  0  0  0  0  0  0  0  0  0  0
    1.8134   -2.2493    0.0000 H   0  0  0  0  0  0  0  0  0  0  0  0
    6.8022   -0.0364    0.0000 H   0  0  0  0  0  0  0  0  0  0  0  0
    8.4222   -2.8423    0.0000 H   0  0  0  0  0  0  0  0  0  0  0  0
    8.0371   -0.0381    0.0000 H   0  0  0  0  0  0  0  0  0  0  0  0
    8.4222   -0.0364    0.0000 H   0  0  0  0  0  0  0  0  0  0  0  0
    9.2322   -1.4393    0.0000 H   0  0  0  0  0  0  0  0  0  0  0  0
    6.5752   -4.3474    0.0000 H   0  0  0  0  0  0  0  0  0  0  0  0
    7.4222   -4.5744    0.0000 H   0  0  0  0  0  0  0  0  0  0  0  0
    7.6491   -3.7274    0.0000 H   0  0  0  0  0  0  0  0  0  0  0  0
  1 17  1  0  0  0  0
  2 29  1  0  0  0  0
  3 10  1  0  0  0  0
  3 39  1  0  0  0  0
  4 26  1  0  0  0  0
  4 34  1  0  0  0  0
  5 11  1  0  0  0  0
  5 14  1  0  0  0  0
  5 15  1  0  0  0  0
  6  8  1  0  0  0  0
  6 12  1  0  0  0  0
  6 24  1  0  0  0  0
  7 15  2  0  0  0  0
  7 16  1  0  0  0  0
  8 31  2  0  0  0  0
  9 24  2  0  0  0  0
  9 31  1  0  0  0  0
 10 11  1  0  0  0  0
 10 12  1  0  0  0  0
 10 13  1  0  0  0  0
 11 35  1  0  0  0  0
 11 36  1  0  0  0  0
 12 37  1  0  0  0  0
 12 38  1  0  0  0  0
 13 17  2  0  0  0  0
 13 18  1  0  0  0  0
 14 16  1  0  0  0  0
 14 20  2  0  0  0  0
 15 19  1  0  0  0  0
 16 21  2  0  0  0  0
 17 22  1  0  0  0  0
 18 23  2  0  0  0  0
 18 40  1  0  0  0  0
 19 26  1  0  0  0  0
 19 28  2  0  0  0  0
 20 25  1  0  0  0  0
 20 41  1  0  0  0  0
 21 27  1  0  0  0  0
 21 42  1  0  0  0  0
 22 29  2  0  0  0  0
 22 43  1  0  0  0  0
 23 29  1  0  0  0  0
 23 44  1  0  0  0  0
 24 45  1  0  0  0  0
 25 27  2  0  0  0  0
 25 46  1  0  0  0  0
 26 30  2  0  0  0  0
 27 47  1  0  0  0  0
 28 32  1  0  0  0  0
 28 48  1  0  0  0  0
 30 33  1  0  0  0  0
 30 49  1  0  0  0  0
 31 50  1  0  0  0  0
 32 33  2  0  0  0  0
 32 51  1  0  0  0  0
 33 52  1  0  0  0  0
 34 53  1  0  0  0  0
 34 54  1  0  0  0  0
 34 55  1  0  0  0  0
M  END
> <PUBCHEM_COMPOUND_CID>
513500
> <PUBCHEM_COMPOUND_CANONICALIZED>
1
> <PUBCHEM_CACTVS_COMPLEXITY>
677
> <PUBCHEM_CACTVS_HBOND_ACCEPTOR>
7
> <PUBCHEM_CACTVS_HBOND_DONOR>
1
> <PUBCHEM_CACTVS_ROTATABLE_BOND>
7
> <PUBCHEM_CACTVS_SUBSKEYS>
AAADceB7sYAAAAAAAAAAAAAAAAAAAWLAAAAwYMAAAAAAAFgB/AAAHwAICAAADEzBnw431rcMFgCiAyZjZACSiC8xsqAd2CA+fJiObqLE+ZuUcChuwBPY+CeQwOAOgAAAAAAIACAAAAAAABAAQAAAAAAAAA==
> <PUBCHEM_IUPAC_OPENEYE_NAME>
2-(2,4-difluorophenyl)-1-[2-(2-methoxyphenyl)benzimidazol-1-yl]-3-(1,2,4-triazol-1-yl)propan-2-ol
> <PUBCHEM_IUPAC_CAS_NAME>
2-(2,4-difluorophenyl)-1-[2-(2-methoxyphenyl)-1-benzimidazolyl]-3-(1,2,4-triazol-1-yl)-2-propanol
> <PUBCHEM_IUPAC_NAME_MARKUP>
2-(2,4-difluorophenyl)-1-[2-(2-methoxyphenyl)benzimidazol-1-yl]-3-(1,2,4-triazol-1-yl)propan-2-ol
> <PUBCHEM_IUPAC_NAME>
2-(2,4-difluorophenyl)-1-[2-(2-methoxyphenyl)benzimidazol-1-yl]-3-(1,2,4-triazol-1-yl)propan-2-ol
> <PUBCHEM_IUPAC_SYSTEMATIC_NAME>
2-[2,4-bis(fluoranyl)phenyl]-1-[2-(2-methoxyphenyl)benzimidazol-1-yl]-3-(1,2,4-triazol-1-yl)propan-2-ol
> <PUBCHEM_IUPAC_TRADITIONAL_NAME>
2-(2,4-difluorophenyl)-1-[2-(2-methoxyphenyl)benzimidazol-1-yl]-3-(1,2,4-triazol-1-yl)propan-2-ol
> <PUBCHEM_IUPAC_INCHI>
InChI=1S/C25H21F2N5O2/c1-34-23-9-5-2-6-18(23)24-30-21-7-3-4-8-22(21)32(24)14-25(33,13-31-16-28-15-29-31)19-11-10-17(26)12-20(19)27/h2-12,15-16,33H,13-14H2,1H3
> <PUBCHEM_IUPAC_INCHIKEY>
MZGAFBPBZZLSCI-UHFFFAOYSA-N
> <PUBCHEM_XLOGP3_AA>
3.6
> <PUBCHEM_EXACT_MASS>
461.16633125
> <PUBCHEM_MOLECULAR_FORMULA>
C25H21F2N5O2
> <PUBCHEM_MOLECULAR_WEIGHT>
461.5
> <PUBCHEM_OPENEYE_CAN_SMILES>
COC1=CC=CC=C1C2=NC3=CC=CC=C3N2CC(CN4C=NC=N4)(C5=C(C=C(C=C5)F)F)O
> <PUBCHEM_OPENEYE_ISO_SMILES>
COC1=CC=CC=C1C2=NC3=CC=CC=C3N2CC(CN4C=NC=N4)(C5=C(C=C(C=C5)F)F)O
> <PUBCHEM_CACTVS_TPSA>
78
> <PUBCHEM_MONOISOTOPIC_WEIGHT>
461.16633125
> <PUBCHEM_TOTAL_CHARGE>
0
> <PUBCHEM_HEAVY_ATOM_COUNT>
34
> <PUBCHEM_ATOM_DEF_STEREO_COUNT>
0
> <PUBCHEM_ATOM_UDEF_STEREO_COUNT>
1
> <PUBCHEM_BOND_DEF_STEREO_COUNT>
0
> <PUBCHEM_BOND_UDEF_STEREO_COUNT>
0
> <PUBCHEM_ISOTOPIC_ATOM_COUNT>
0
> <PUBCHEM_COMPONENT_COUNT>
1
> <PUBCHEM_CACTVS_TAUTO_COUNT>
-1
> <PUBCHEM_COORDINATE_TYPE>
1
5
255
> <PUBCHEM_BONDANNOTATIONS>
13  17  8
13  18  8
14  16  8
14  20  8
16  21  8
17  22  8
18  23  8
19  26  8
19  28  8
20  25  8
21  27  8
22  29  8
23  29  8
25  27  8
26  30  8
28  32  8
10  3  3
30  33  8
32  33  8
5  14  8
5  15  8
6  24  8
6  8  8
7  15  8
7  16  8
8  31  8
9  24  8
9  31  8
$$$$
