513551
  -OEChem-10302200282D
 70 74  0     1  0  0  0  0  0999 V2000
    6.6472    0.6774    0.0000 O   0  0  0  0  0  0  0  0  0  0  0  0
    8.1994    2.7478    0.0000 O   0  0  0  0  0  0  0  0  0  0  0  0
    8.4268   -0.4159    0.0000 O   0  0  0  0  0  0  0  0  0  0  0  0
    6.0714    3.2001    0.0000 O   0  0  0  0  0  0  0  0  0  0  0  0
   10.1588   -0.4159    0.0000 O   0  0  0  0  0  0  0  0  0  0  0  0
    8.4268   -2.4159    0.0000 O   0  0  0  0  0  0  0  0  0  0  0  0
   10.1588    0.5841    0.0000 O   0  0  0  0  0  0  0  0  0  0  0  0
   10.1588   -3.4159    0.0000 O   0  0  0  0  0  0  0  0  0  0  0  0
    4.8025    3.0385    0.0000 O   0  0  0  0  0  0  0  0  0  0  0  0
    2.0000    1.0024    0.0000 O   0  0  0  0  0  0  0  0  0  0  0  0
   11.8909    0.5841    0.0000 O   0  0  0  0  0  0  0  0  0  0  0  0
   17.1672   -0.6112    0.0000 O   0  0  0  0  0  0  0  0  0  0  0  0
   17.1672   -2.2206    0.0000 O   0  0  0  0  0  0  0  0  0  0  0  0
    4.9836    1.3160    0.0000 N   0  0  0  0  0  0  0  0  0  0  0  0
    9.2928    2.0841    0.0000 N   0  0  0  0  0  0  0  0  0  0  0  0
    3.4013    2.0205    0.0000 N   0  0  0  0  0  0  0  0  0  0  0  0
   12.7569   -0.9159    0.0000 N   0  0  0  0  0  0  0  0  0  0  0  0
    7.5608    1.0841    0.0000 C   0  0  1  0  0  0  0  0  0  0  0  0
    7.4562    2.0786    0.0000 C   0  0  2  0  0  0  0  0  0  0  0  0
    6.4781    2.2865    0.0000 C   0  0  2  0  0  0  0  0  0  0  0  0
    5.9781    1.4205    0.0000 C   0  0  1  0  0  0  0  0  0  0  0  0
    8.4268    0.5841    0.0000 C   0  0  2  0  0  0  0  0  0  0  0  0
    9.2928   -0.9159    0.0000 C   0  0  1  0  0  0  0  0  0  0  0  0
    9.2928    1.0841    0.0000 C   0  0  0  0  0  0  0  0  0  0  0  0
    9.2928   -1.9159    0.0000 C   0  0  2  0  0  0  0  0  0  0  0  0
    4.3958    2.1250    0.0000 C   0  0  0  0  0  0  0  0  0  0  0  0
    4.5768    0.4024    0.0000 C   0  0  0  0  0  0  0  0  0  0  0  0
   10.1588   -2.4159    0.0000 C   0  0  2  0  0  0  0  0  0  0  0  0
    7.9915    3.7259    0.0000 C   0  0  0  0  0  0  0  0  0  0  0  0
    3.5823    0.2979    0.0000 C   0  0  0  0  0  0  0  0  0  0  0  0
   11.0249   -1.9159    0.0000 C   0  0  0  0  0  0  0  0  0  0  0  0
   11.0249   -0.9159    0.0000 C   0  0  0  0  0  0  0  0  0  0  0  0
    2.9945    1.1069    0.0000 C   0  0  0  0  0  0  0  0  0  0  0  0
   11.8909   -0.4159    0.0000 C   0  0  0  0  0  0  0  0  0  0  0  0
   13.6229   -0.4159    0.0000 C   0  0  0  0  0  0  0  0  0  0  0  0
   14.4890   -0.9159    0.0000 C   0  0  0  0  0  0  0  0  0  0  0  0
   15.3550   -0.4159    0.0000 C   0  0  0  0  0  0  0  0  0  0  0  0
   14.4890   -1.9159    0.0000 C   0  0  0  0  0  0  0  0  0  0  0  0
   16.2210   -0.9159    0.0000 C   0  0  0  0  0  0  0  0  0  0  0  0
   16.2210   -1.9159    0.0000 C   0  0  0  0  0  0  0  0  0  0  0  0
   15.3550   -2.4159    0.0000 C   0  0  0  0  0  0  0  0  0  0  0  0
   17.7508   -1.4159    0.0000 C   0  0  0  0  0  0  0  0  0  0  0  0
    7.5163    0.2353    0.0000 H   0  0  0  0  0  0  0  0  0  0  0  0
    8.0351    1.8564    0.0000 H   0  0  0  0  0  0  0  0  0  0  0  0
    5.8589    2.3190    0.0000 H   0  0  0  0  0  0  0  0  0  0  0  0
    5.7559    0.8417    0.0000 H   0  0  0  0  0  0  0  0  0  0  0  0
    8.9637    0.2741    0.0000 H   0  0  0  0  0  0  0  0  0  0  0  0
    8.7559   -1.2259    0.0000 H   0  0  0  0  0  0  0  0  0  0  0  0
    6.4358    3.7017    0.0000 H   0  0  0  0  0  0  0  0  0  0  0  0
    9.2928   -2.5359    0.0000 H   0  0  0  0  0  0  0  0  0  0  0  0
    4.9413   -0.0992    0.0000 H   0  0  0  0  0  0  0  0  0  0  0  0
   10.6958   -2.7259    0.0000 H   0  0  0  0  0  0  0  0  0  0  0  0
    8.5979    3.8548    0.0000 H   0  0  0  0  0  0  0  0  0  0  0  0
    7.8626    4.3324    0.0000 H   0  0  0  0  0  0  0  0  0  0  0  0
    7.3850    3.5970    0.0000 H   0  0  0  0  0  0  0  0  0  0  0  0
   11.5618   -2.2259    0.0000 H   0  0  0  0  0  0  0  0  0  0  0  0
    9.8298    2.3941    0.0000 H   0  0  0  0  0  0  0  0  0  0  0  0
    8.7559    2.3941    0.0000 H   0  0  0  0  0  0  0  0  0  0  0  0
    3.0368    2.5221    0.0000 H   0  0  0  0  0  0  0  0  0  0  0  0
    3.3301   -0.2685    0.0000 H   0  0  0  0  0  0  0  0  0  0  0  0
    8.4268   -3.0359    0.0000 H   0  0  0  0  0  0  0  0  0  0  0  0
   10.6958   -3.7259    0.0000 H   0  0  0  0  0  0  0  0  0  0  0  0
   12.7569   -1.5359    0.0000 H   0  0  0  0  0  0  0  0  0  0  0  0
   14.0215    0.0590    0.0000 H   0  0  0  0  0  0  0  0  0  0  0  0
   13.2244    0.0590    0.0000 H   0  0  0  0  0  0  0  0  0  0  0  0
   15.3550    0.2041    0.0000 H   0  0  0  0  0  0  0  0  0  0  0  0
   13.9520   -2.2259    0.0000 H   0  0  0  0  0  0  0  0  0  0  0  0
   15.3550   -3.0359    0.0000 H   0  0  0  0  0  0  0  0  0  0  0  0
   18.2117   -1.8306    0.0000 H   0  0  0  0  0  0  0  0  0  0  0  0
   18.2117   -1.0012    0.0000 H   0  0  0  0  0  0  0  0  0  0  0  0
  1 18  1  0  0  0  0
  1 21  1  0  0  0  0
 19  2  1  6  0  0  0
  2 29  1  0  0  0  0
 22  3  1  6  0  0  0
 23  3  1  1  0  0  0
 20  4  1  6  0  0  0
  4 49  1  0  0  0  0
  5 23  1  0  0  0  0
  5 32  1  0  0  0  0
 25  6  1  6  0  0  0
  6 61  1  0  0  0  0
  7 24  2  0  0  0  0
 28  8  1  6  0  0  0
  8 62  1  0  0  0  0
  9 26  2  0  0  0  0
 10 33  2  0  0  0  0
 11 34  2  0  0  0  0
 12 39  1  0  0  0  0
 12 42  1  0  0  0  0
 13 40  1  0  0  0  0
 13 42  1  0  0  0  0
 21 14  1  1  0  0  0
 14 26  1  0  0  0  0
 14 27  1  0  0  0  0
 15 24  1  0  0  0  0
 15 57  1  0  0  0  0
 15 58  1  0  0  0  0
 16 26  1  0  0  0  0
 16 33  1  0  0  0  0
 16 59  1  0  0  0  0
 17 34  1  0  0  0  0
 17 35  1  0  0  0  0
 17 63  1  0  0  0  0
 18 19  1  0  0  0  0
 18 22  1  0  0  0  0
 18 43  1  6  0  0  0
 19 20  1  0  0  0  0
 19 44  1  0  0  0  0
 20 21  1  0  0  0  0
 20 45  1  0  0  0  0
 21 46  1  0  0  0  0
 22 24  1  0  0  0  0
 22 47  1  0  0  0  0
 23 25  1  0  0  0  0
 23 48  1  0  0  0  0
 25 28  1  0  0  0  0
 25 50  1  0  0  0  0
 27 30  2  0  0  0  0
 27 51  1  0  0  0  0
 28 31  1  0  0  0  0
 28 52  1  0  0  0  0
 29 53  1  0  0  0  0
 29 54  1  0  0  0  0
 29 55  1  0  0  0  0
 30 33  1  0  0  0  0
 30 60  1  0  0  0  0
 31 32  2  0  0  0  0
 31 56  1  0  0  0  0
 32 34  1  0  0  0  0
 35 36  1  0  0  0  0
 35 64  1  0  0  0  0
 35 65  1  0  0  0  0
 36 37  2  0  0  0  0
 36 38  1  0  0  0  0
 37 39  1  0  0  0  0
 37 66  1  0  0  0  0
 38 41  2  0  0  0  0
 38 67  1  0  0  0  0
 39 40  2  0  0  0  0
 40 41  1  0  0  0  0
 41 68  1  0  0  0  0
 42 69  1  0  0  0  0
 42 70  1  0  0  0  0
M  END
> <PUBCHEM_COMPOUND_CID>
513551
> <PUBCHEM_COMPOUND_CANONICALIZED>
1
> <PUBCHEM_CACTVS_COMPLEXITY>
1130
> <PUBCHEM_CACTVS_HBOND_ACCEPTOR>
13
> <PUBCHEM_CACTVS_HBOND_DONOR>
6
> <PUBCHEM_CACTVS_ROTATABLE_BOND>
9
> <PUBCHEM_CACTVS_SUBSKEYS>
AAADceB7vAAAAAAAAAAAAAAAAAAAASJAAAAwQIAAAAAAAEgBAAAAHgAQCAAADBTxmAczDoPABgCIAiFWUAKCCAAgIgAIiIFOjMifNjaEsR+vcCpv9zOfucf6/B5OIAABAAAAQABAAAIAAACAAAAAAAAAAA==
> <PUBCHEM_IUPAC_OPENEYE_NAME>
(2S,3S,4S)-2-[(1R)-2-amino-1-[(2S,3S,4R,5R)-5-(2,4-dioxopyrimidin-1-yl)-4-hydroxy-3-methoxy-tetrahydrofuran-2-yl]-2-oxo-ethoxy]-N-(1,3-benzodioxol-5-ylmethyl)-3,4-dihydroxy-3,4-dihydro-2H-pyran-6-carboxamide
> <PUBCHEM_IUPAC_CAS_NAME>
(2S,3S,4S)-2-[(1R)-2-amino-1-[(2S,3S,4R,5R)-5-(2,4-dioxo-1-pyrimidinyl)-4-hydroxy-3-methoxy-2-oxolanyl]-2-oxoethoxy]-N-(1,3-benzodioxol-5-ylmethyl)-3,4-dihydroxy-3,4-dihydro-2H-pyran-6-carboxamide
> <PUBCHEM_IUPAC_NAME_MARKUP>
(2<I>S</I>,3<I>S</I>,4<I>S</I>)-2-[(1<I>R</I>)-2-amino-1-[(2<I>S</I>,3<I>S</I>,4<I>R</I>,5<I>R</I>)-5-(2,4-dioxopyrimidin-1-yl)-4-hydroxy-3-methoxyoxolan-2-yl]-2-oxoethoxy]-<I>N</I>-(1,3-benzodioxol-5-ylmethyl)-3,4-dihydroxy-3,4-dihydro-2<I>H</I>-pyran-6-carboxamide
> <PUBCHEM_IUPAC_NAME>
(2S,3S,4S)-2-[(1R)-2-amino-1-[(2S,3S,4R,5R)-5-(2,4-dioxopyrimidin-1-yl)-4-hydroxy-3-methoxyoxolan-2-yl]-2-oxoethoxy]-N-(1,3-benzodioxol-5-ylmethyl)-3,4-dihydroxy-3,4-dihydro-2H-pyran-6-carboxamide
> <PUBCHEM_IUPAC_SYSTEMATIC_NAME>
(2S,3S,4S)-2-[(1R)-2-azanyl-1-[(2S,3S,4R,5R)-5-[2,4-bis(oxidanylidene)pyrimidin-1-yl]-3-methoxy-4-oxidanyl-oxolan-2-yl]-2-oxidanylidene-ethoxy]-N-(1,3-benzodioxol-5-ylmethyl)-3,4-bis(oxidanyl)-3,4-dihydro-2H-pyran-6-carboxamide
> <PUBCHEM_IUPAC_TRADITIONAL_NAME>
(2S,3S,4S)-2-[(1R)-2-amino-1-[(2S,3S,4R,5R)-5-(2,4-diketopyrimidin-1-yl)-4-hydroxy-3-methoxy-tetrahydrofuran-2-yl]-2-keto-ethoxy]-3,4-dihydroxy-N-piperonyl-3,4-dihydro-2H-pyran-6-carboxamide
> <PUBCHEM_IUPAC_INCHI>
InChI=1S/C25H28N4O13/c1-37-18-17(33)23(29-5-4-15(31)28-25(29)36)41-19(18)20(21(26)34)42-24-16(32)11(30)7-14(40-24)22(35)27-8-10-2-3-12-13(6-10)39-9-38-12/h2-7,11,16-20,23-24,30,32-33H,8-9H2,1H3,(H2,26,34)(H,27,35)(H,28,31,36)/t11-,16-,17+,18-,19-,20+,23+,24+/m0/s1
> <PUBCHEM_IUPAC_INCHIKEY>
RIPIMXQLMJBQHO-WUXCXATNSA-N
> <PUBCHEM_XLOGP3_AA>
-3
> <PUBCHEM_EXACT_MASS>
592.16528696
> <PUBCHEM_MOLECULAR_FORMULA>
C25H28N4O13
> <PUBCHEM_MOLECULAR_WEIGHT>
592.5
> <PUBCHEM_OPENEYE_CAN_SMILES>
COC1C(C(OC1C(C(=O)N)OC2C(C(C=C(O2)C(=O)NCC3=CC4=C(C=C3)OCO4)O)O)N5C=CC(=O)NC5=O)O
> <PUBCHEM_OPENEYE_ISO_SMILES>
CO[C@H]1[C@H]([C@@H](O[C@@H]1[C@H](C(=O)N)O[C@@H]2[C@H]([C@H](C=C(O2)C(=O)NCC3=CC4=C(C=C3)OCO4)O)O)N5C=CC(=O)NC5=O)O
> <PUBCHEM_CACTVS_TPSA>
238
> <PUBCHEM_MONOISOTOPIC_WEIGHT>
592.16528696
> <PUBCHEM_TOTAL_CHARGE>
0
> <PUBCHEM_HEAVY_ATOM_COUNT>
42
> <PUBCHEM_ATOM_DEF_STEREO_COUNT>
8
> <PUBCHEM_ATOM_UDEF_STEREO_COUNT>
0
> <PUBCHEM_BOND_DEF_STEREO_COUNT>
0
> <PUBCHEM_BOND_UDEF_STEREO_COUNT>
0
> <PUBCHEM_ISOTOPIC_ATOM_COUNT>
0
> <PUBCHEM_COMPONENT_COUNT>
1
> <PUBCHEM_CACTVS_TAUTO_COUNT>
-1
> <PUBCHEM_COORDINATE_TYPE>
1
5
255
> <PUBCHEM_BONDANNOTATIONS>
21  14  5
14  26  8
14  27  8
16  26  8
16  33  8
18  43  6
19  2  6
27  30  8
22  3  6
23  3  5
30  33  8
36  37  8
36  38  8
37  39  8
38  41  8
39  40  8
20  4  6
40  41  8
25  6  6
28  8  6
$$$$
