513510
  -OEChem-10302200282D
 32 33  0     1  0  0  0  0  0999 V2000
    5.3884    1.0087    0.0000 S   0  0  0  0  0  0  0  0  0  0  0  0
    7.3564    0.3093    0.0000 O   0  0  0  0  0  0  0  0  0  0  0  0
    6.2686   -2.0385    0.0000 O   0  0  0  0  0  0  0  0  0  0  0  0
    9.1165    0.0306    0.0000 O   0  0  0  0  0  0  0  0  0  0  0  0
    8.4442   -2.0385    0.0000 O   0  0  0  0  0  0  0  0  0  0  0  0
    2.0000    0.2885    0.0000 O   0  0  0  0  0  0  0  0  0  0  0  0
    3.6942    0.6486    0.0000 N   0  0  0  0  0  0  0  0  0  0  0  0
    4.2294    2.2959    0.0000 N   0  0  0  0  0  0  0  0  0  0  0  0
    6.8564   -1.2295    0.0000 C   0  0  3  0  0  0  0  0  0  0  0  0
    6.5474   -0.2784    0.0000 C   0  0  3  0  0  0  0  0  0  0  0  0
    7.8564   -1.2295    0.0000 C   0  0  3  0  0  0  0  0  0  0  0  0
    8.1654   -0.2784    0.0000 C   0  0  3  0  0  0  0  0  0  0  0  0
    5.5963    0.0306    0.0000 C   0  0  0  0  0  0  0  0  0  0  0  0
    9.3244    1.0087    0.0000 C   0  0  0  0  0  0  0  0  0  0  0  0
    4.4374    1.3177    0.0000 C   0  0  0  0  0  0  0  0  0  0  0  0
    2.7431    0.9576    0.0000 C   0  0  0  0  0  0  0  0  0  0  0  0
    3.2784    2.6049    0.0000 C   0  0  0  0  0  0  0  0  0  0  0  0
    2.5352    1.9358    0.0000 C   0  0  0  0  0  0  0  0  0  0  0  0
    6.2440   -1.1325    0.0000 H   0  0  0  0  0  0  0  0  0  0  0  0
    6.4504    0.3339    0.0000 H   0  0  0  0  0  0  0  0  0  0  0  0
    8.4688   -1.1325    0.0000 H   0  0  0  0  0  0  0  0  0  0  0  0
    8.2624    0.3339    0.0000 H   0  0  0  0  0  0  0  0  0  0  0  0
    4.9767    0.0089    0.0000 H   0  0  0  0  0  0  0  0  0  0  0  0
    5.5100   -0.5834    0.0000 H   0  0  0  0  0  0  0  0  0  0  0  0
    6.5208   -2.6049    0.0000 H   0  0  0  0  0  0  0  0  0  0  0  0
    9.0608   -1.9737    0.0000 H   0  0  0  0  0  0  0  0  0  0  0  0
    9.9308    0.8798    0.0000 H   0  0  0  0  0  0  0  0  0  0  0  0
    9.4533    1.6152    0.0000 H   0  0  0  0  0  0  0  0  0  0  0  0
    8.7179    1.1376    0.0000 H   0  0  0  0  0  0  0  0  0  0  0  0
    3.8231    0.0422    0.0000 H   0  0  0  0  0  0  0  0  0  0  0  0
    3.1495    3.2114    0.0000 H   0  0  0  0  0  0  0  0  0  0  0  0
    1.9456    2.1274    0.0000 H   0  0  0  0  0  0  0  0  0  0  0  0
  1 13  1  0  0  0  0
  1 15  1  0  0  0  0
  2 10  1  0  0  0  0
  2 12  1  0  0  0  0
  3  9  1  0  0  0  0
  3 25  1  0  0  0  0
  4 12  1  0  0  0  0
  4 14  1  0  0  0  0
  5 11  1  0  0  0  0
  5 26  1  0  0  0  0
  6 16  2  0  0  0  0
  7 15  1  0  0  0  0
  7 16  1  0  0  0  0
  7 30  1  0  0  0  0
  8 15  2  0  0  0  0
  8 17  1  0  0  0  0
  9 10  1  0  0  0  0
  9 11  1  0  0  0  0
  9 19  1  0  0  0  0
 10 13  1  0  0  0  0
 10 20  1  0  0  0  0
 11 12  1  0  0  0  0
 11 21  1  0  0  0  0
 12 22  1  0  0  0  0
 13 23  1  0  0  0  0
 13 24  1  0  0  0  0
 14 27  1  0  0  0  0
 14 28  1  0  0  0  0
 14 29  1  0  0  0  0
 16 18  1  0  0  0  0
 17 18  2  0  0  0  0
 17 31  1  0  0  0  0
 18 32  1  0  0  0  0
M  END
> <PUBCHEM_COMPOUND_CID>
513510
> <PUBCHEM_COMPOUND_CANONICALIZED>
1
> <PUBCHEM_CACTVS_COMPLEXITY>
387
> <PUBCHEM_CACTVS_HBOND_ACCEPTOR>
7
> <PUBCHEM_CACTVS_HBOND_DONOR>
3
> <PUBCHEM_CACTVS_ROTATABLE_BOND>
4
> <PUBCHEM_CACTVS_SUBSKEYS>
AAADccBzOABAAAAAAAAAAAAAAAAAASAAAAAgAAAAAAAAAAAAAAAAHgQQCAAACBT1wAeDCALABgioACFWdACAEAFAAhAJAAAAAEAREAIgCAAiQAAFEAAHAMDAAAAAAAAAAAAAAAAAAAAAAAAAAAAAAAAAAA==
> <PUBCHEM_IUPAC_OPENEYE_NAME>
2-[(3,4-dihydroxy-5-methoxy-tetrahydrofuran-2-yl)methylsulfanyl]-1H-pyrimidin-6-one
> <PUBCHEM_IUPAC_CAS_NAME>
2-[(3,4-dihydroxy-5-methoxy-2-oxolanyl)methylthio]-1H-pyrimidin-6-one
> <PUBCHEM_IUPAC_NAME_MARKUP>
2-[(3,4-dihydroxy-5-methoxyoxolan-2-yl)methylsulfanyl]-1<I>H</I>-pyrimidin-6-one
> <PUBCHEM_IUPAC_NAME>
2-[(3,4-dihydroxy-5-methoxyoxolan-2-yl)methylsulfanyl]-1H-pyrimidin-6-one
> <PUBCHEM_IUPAC_SYSTEMATIC_NAME>
2-[[5-methoxy-3,4-bis(oxidanyl)oxolan-2-yl]methylsulfanyl]-1H-pyrimidin-6-one
> <PUBCHEM_IUPAC_TRADITIONAL_NAME>
2-[(3,4-dihydroxy-5-methoxy-tetrahydrofuran-2-yl)methylthio]-1H-pyrimidin-6-one
> <PUBCHEM_IUPAC_INCHI>
InChI=1S/C10H14N2O5S/c1-16-9-8(15)7(14)5(17-9)4-18-10-11-3-2-6(13)12-10/h2-3,5,7-9,14-15H,4H2,1H3,(H,11,12,13)
> <PUBCHEM_IUPAC_INCHIKEY>
DGDSPHDMEMDFQP-UHFFFAOYSA-N
> <PUBCHEM_XLOGP3_AA>
-1.3
> <PUBCHEM_EXACT_MASS>
274.06234272
> <PUBCHEM_MOLECULAR_FORMULA>
C10H14N2O5S
> <PUBCHEM_MOLECULAR_WEIGHT>
274.30
> <PUBCHEM_OPENEYE_CAN_SMILES>
COC1C(C(C(O1)CSC2=NC=CC(=O)N2)O)O
> <PUBCHEM_OPENEYE_ISO_SMILES>
COC1C(C(C(O1)CSC2=NC=CC(=O)N2)O)O
> <PUBCHEM_CACTVS_TPSA>
126
> <PUBCHEM_MONOISOTOPIC_WEIGHT>
274.06234272
> <PUBCHEM_TOTAL_CHARGE>
0
> <PUBCHEM_HEAVY_ATOM_COUNT>
18
> <PUBCHEM_ATOM_DEF_STEREO_COUNT>
0
> <PUBCHEM_ATOM_UDEF_STEREO_COUNT>
4
> <PUBCHEM_BOND_DEF_STEREO_COUNT>
0
> <PUBCHEM_BOND_UDEF_STEREO_COUNT>
0
> <PUBCHEM_ISOTOPIC_ATOM_COUNT>
0
> <PUBCHEM_COMPONENT_COUNT>
1
> <PUBCHEM_CACTVS_TAUTO_COUNT>
-1
> <PUBCHEM_COORDINATE_TYPE>
1
5
255
> <PUBCHEM_BONDANNOTATIONS>
10  13  3
16  18  8
17  18  8
9  3  3
12  4  3
11  5  3
7  15  8
7  16  8
8  15  8
8  17  8
$$$$
