513533
  -OEChem-10302200282D
 74 77  0     1  0  0  0  0  0999 V2000
   14.1719   -0.6774    0.0000 O   0  0  0  0  0  0  0  0  0  0  0  0
   12.6197   -2.7478    0.0000 O   0  0  0  0  0  0  0  0  0  0  0  0
   12.3923    0.4159    0.0000 O   0  0  0  0  0  0  0  0  0  0  0  0
   14.7477   -3.2001    0.0000 O   0  0  0  0  0  0  0  0  0  0  0  0
   10.6603    0.4159    0.0000 O   0  0  0  0  0  0  0  0  0  0  0  0
   10.6603   -0.5841    0.0000 O   0  0  0  0  0  0  0  0  0  0  0  0
   12.3923    2.4159    0.0000 O   0  0  0  0  0  0  0  0  0  0  0  0
   10.6603    3.4159    0.0000 O   0  0  0  0  0  0  0  0  0  0  0  0
   16.0166   -3.0385    0.0000 O   0  0  0  0  0  0  0  0  0  0  0  0
   18.8191   -1.0024    0.0000 O   0  0  0  0  0  0  0  0  0  0  0  0
    8.9282   -0.5841    0.0000 O   0  0  0  0  0  0  0  0  0  0  0  0
    2.8660   -1.0841    0.0000 O   0  0  0  0  0  0  0  0  0  0  0  0
   15.8355   -1.3160    0.0000 N   0  0  0  0  0  0  0  0  0  0  0  0
   17.4178   -2.0205    0.0000 N   0  0  0  0  0  0  0  0  0  0  0  0
   11.5263   -2.0841    0.0000 N   0  0  0  0  0  0  0  0  0  0  0  0
    8.0622    0.9159    0.0000 N   0  0  0  0  0  0  0  0  0  0  0  0
   13.2583   -1.0841    0.0000 C   0  0  1  0  0  0  0  0  0  0  0  0
   13.3629   -2.0786    0.0000 C   0  0  2  0  0  0  0  0  0  0  0  0
   14.3410   -2.2865    0.0000 C   0  0  2  0  0  0  0  0  0  0  0  0
   14.8410   -1.4205    0.0000 C   0  0  1  0  0  0  0  0  0  0  0  0
   12.3923   -0.5841    0.0000 C   0  0  2  0  0  0  0  0  0  0  0  0
   11.5263    0.9159    0.0000 C   0  0  1  0  0  0  0  0  0  0  0  0
   11.5263   -1.0841    0.0000 C   0  0  0  0  0  0  0  0  0  0  0  0
   11.5263    1.9159    0.0000 C   0  0  2  0  0  0  0  0  0  0  0  0
   16.4233   -2.1250    0.0000 C   0  0  0  0  0  0  0  0  0  0  0  0
   16.2423   -0.4024    0.0000 C   0  0  0  0  0  0  0  0  0  0  0  0
   12.8276   -3.7259    0.0000 C   0  0  0  0  0  0  0  0  0  0  0  0
   10.6603    2.4159    0.0000 C   0  0  2  0  0  0  0  0  0  0  0  0
   17.2368   -0.2979    0.0000 C   0  0  0  0  0  0  0  0  0  0  0  0
    9.7942    1.9159    0.0000 C   0  0  0  0  0  0  0  0  0  0  0  0
    9.7942    0.9159    0.0000 C   0  0  0  0  0  0  0  0  0  0  0  0
   17.8246   -1.1069    0.0000 C   0  0  0  0  0  0  0  0  0  0  0  0
    8.9282    0.4159    0.0000 C   0  0  0  0  0  0  0  0  0  0  0  0
    7.1962    0.4159    0.0000 C   0  0  0  0  0  0  0  0  0  0  0  0
    6.3301    0.9159    0.0000 C   0  0  0  0  0  0  0  0  0  0  0  0
    5.4641    0.4159    0.0000 C   0  0  0  0  0  0  0  0  0  0  0  0
    5.4641   -0.5841    0.0000 C   0  0  0  0  0  0  0  0  0  0  0  0
    4.5981    0.9159    0.0000 C   0  0  0  0  0  0  0  0  0  0  0  0
    4.5981   -1.0841    0.0000 C   0  0  0  0  0  0  0  0  0  0  0  0
    3.7320    0.4159    0.0000 C   0  0  0  0  0  0  0  0  0  0  0  0
    3.7320   -0.5841    0.0000 C   0  0  0  0  0  0  0  0  0  0  0  0
    2.0000   -0.5841    0.0000 C   0  0  0  0  0  0  0  0  0  0  0  0
   13.3028   -0.2353    0.0000 H   0  0  0  0  0  0  0  0  0  0  0  0
   13.5233   -2.6775    0.0000 H   0  0  0  0  0  0  0  0  0  0  0  0
   14.9602   -2.3190    0.0000 H   0  0  0  0  0  0  0  0  0  0  0  0
   15.1787   -1.9405    0.0000 H   0  0  0  0  0  0  0  0  0  0  0  0
   11.8554   -0.2741    0.0000 H   0  0  0  0  0  0  0  0  0  0  0  0
   12.0632    1.2259    0.0000 H   0  0  0  0  0  0  0  0  0  0  0  0
   14.3833   -3.7017    0.0000 H   0  0  0  0  0  0  0  0  0  0  0  0
   11.5263    2.5359    0.0000 H   0  0  0  0  0  0  0  0  0  0  0  0
   15.8778    0.0992    0.0000 H   0  0  0  0  0  0  0  0  0  0  0  0
   12.2212   -3.8548    0.0000 H   0  0  0  0  0  0  0  0  0  0  0  0
   12.9565   -4.3324    0.0000 H   0  0  0  0  0  0  0  0  0  0  0  0
   13.4341   -3.5970    0.0000 H   0  0  0  0  0  0  0  0  0  0  0  0
   10.1233    2.7259    0.0000 H   0  0  0  0  0  0  0  0  0  0  0  0
   17.7823   -2.5221    0.0000 H   0  0  0  0  0  0  0  0  0  0  0  0
   17.4890    0.2685    0.0000 H   0  0  0  0  0  0  0  0  0  0  0  0
   10.9893   -2.3941    0.0000 H   0  0  0  0  0  0  0  0  0  0  0  0
   12.0632   -2.3941    0.0000 H   0  0  0  0  0  0  0  0  0  0  0  0
    9.2573    2.2259    0.0000 H   0  0  0  0  0  0  0  0  0  0  0  0
   12.3923    3.0359    0.0000 H   0  0  0  0  0  0  0  0  0  0  0  0
   10.1233    3.7259    0.0000 H   0  0  0  0  0  0  0  0  0  0  0  0
    8.0622    1.5359    0.0000 H   0  0  0  0  0  0  0  0  0  0  0  0
    6.7976   -0.0590    0.0000 H   0  0  0  0  0  0  0  0  0  0  0  0
    7.5947   -0.0590    0.0000 H   0  0  0  0  0  0  0  0  0  0  0  0
    6.7287    1.3908    0.0000 H   0  0  0  0  0  0  0  0  0  0  0  0
    5.9316    1.3908    0.0000 H   0  0  0  0  0  0  0  0  0  0  0  0
    6.0010   -0.8941    0.0000 H   0  0  0  0  0  0  0  0  0  0  0  0
    4.5981    1.5359    0.0000 H   0  0  0  0  0  0  0  0  0  0  0  0
    4.5981   -1.7041    0.0000 H   0  0  0  0  0  0  0  0  0  0  0  0
    3.1951    0.7259    0.0000 H   0  0  0  0  0  0  0  0  0  0  0  0
    2.3100   -0.0472    0.0000 H   0  0  0  0  0  0  0  0  0  0  0  0
    1.4631   -0.2741    0.0000 H   0  0  0  0  0  0  0  0  0  0  0  0
    1.6900   -1.1210    0.0000 H   0  0  0  0  0  0  0  0  0  0  0  0
  1 17  1  0  0  0  0
  1 20  1  0  0  0  0
 18  2  1  6  0  0  0
  2 27  1  0  0  0  0
 21  3  1  6  0  0  0
 22  3  1  1  0  0  0
 19  4  1  6  0  0  0
  4 49  1  0  0  0  0
  5 22  1  0  0  0  0
  5 31  1  0  0  0  0
  6 23  2  0  0  0  0
 24  7  1  6  0  0  0
  7 61  1  0  0  0  0
 28  8  1  6  0  0  0
  8 62  1  0  0  0  0
  9 25  2  0  0  0  0
 10 32  2  0  0  0  0
 11 33  2  0  0  0  0
 12 41  1  0  0  0  0
 12 42  1  0  0  0  0
 20 13  1  1  0  0  0
 13 25  1  0  0  0  0
 13 26  1  0  0  0  0
 14 25  1  0  0  0  0
 14 32  1  0  0  0  0
 14 56  1  0  0  0  0
 15 23  1  0  0  0  0
 15 58  1  0  0  0  0
 15 59  1  0  0  0  0
 16 33  1  0  0  0  0
 16 34  1  0  0  0  0
 16 63  1  0  0  0  0
 17 18  1  0  0  0  0
 17 21  1  0  0  0  0
 17 43  1  6  0  0  0
 18 19  1  0  0  0  0
 18 44  1  0  0  0  0
 19 20  1  0  0  0  0
 19 45  1  0  0  0  0
 20 46  1  0  0  0  0
 21 23  1  0  0  0  0
 21 47  1  0  0  0  0
 22 24  1  0  0  0  0
 22 48  1  0  0  0  0
 24 28  1  0  0  0  0
 24 50  1  0  0  0  0
 26 29  2  0  0  0  0
 26 51  1  0  0  0  0
 27 52  1  0  0  0  0
 27 53  1  0  0  0  0
 27 54  1  0  0  0  0
 28 30  1  0  0  0  0
 28 55  1  0  0  0  0
 29 32  1  0  0  0  0
 29 57  1  0  0  0  0
 30 31  2  0  0  0  0
 30 60  1  0  0  0  0
 31 33  1  0  0  0  0
 34 35  1  0  0  0  0
 34 64  1  0  0  0  0
 34 65  1  0  0  0  0
 35 36  1  0  0  0  0
 35 66  1  0  0  0  0
 35 67  1  0  0  0  0
 36 37  2  0  0  0  0
 36 38  1  0  0  0  0
 37 39  1  0  0  0  0
 37 68  1  0  0  0  0
 38 40  2  0  0  0  0
 38 69  1  0  0  0  0
 39 41  2  0  0  0  0
 39 70  1  0  0  0  0
 40 41  1  0  0  0  0
 40 71  1  0  0  0  0
 42 72  1  0  0  0  0
 42 73  1  0  0  0  0
 42 74  1  0  0  0  0
M  END
> <PUBCHEM_COMPOUND_CID>
513533
> <PUBCHEM_COMPOUND_CANONICALIZED>
1
> <PUBCHEM_CACTVS_COMPLEXITY>
1080
> <PUBCHEM_CACTVS_HBOND_ACCEPTOR>
12
> <PUBCHEM_CACTVS_HBOND_DONOR>
6
> <PUBCHEM_CACTVS_ROTATABLE_BOND>
11
> <PUBCHEM_CACTVS_SUBSKEYS>
AAADcfB7vAAAAAAAAAAAAAAAAAAAASAAAAAwQIAAAAAAAAABAAAAHgAQCAAADBTxmAczDoPABgCIAiFWUAKCCAAgIgAIiIFOCMifNjaEsR+vcCAv9zOfucf6/I5OIAAAAAAAAABAAAAAAAAAAAAAAAAAAA==
> <PUBCHEM_IUPAC_OPENEYE_NAME>
(2S,3S,4S)-2-[(1R)-2-amino-1-[(2S,3S,4R,5R)-5-(2,4-dioxopyrimidin-1-yl)-4-hydroxy-3-methoxy-tetrahydrofuran-2-yl]-2-oxo-ethoxy]-3,4-dihydroxy-N-[2-(4-methoxyphenyl)ethyl]-3,4-dihydro-2H-pyran-6-carboxamide
> <PUBCHEM_IUPAC_CAS_NAME>
(2S,3S,4S)-2-[(1R)-2-amino-1-[(2S,3S,4R,5R)-5-(2,4-dioxo-1-pyrimidinyl)-4-hydroxy-3-methoxy-2-oxolanyl]-2-oxoethoxy]-3,4-dihydroxy-N-[2-(4-methoxyphenyl)ethyl]-3,4-dihydro-2H-pyran-6-carboxamide
> <PUBCHEM_IUPAC_NAME_MARKUP>
(2<I>S</I>,3<I>S</I>,4<I>S</I>)-2-[(1<I>R</I>)-2-amino-1-[(2<I>S</I>,3<I>S</I>,4<I>R</I>,5<I>R</I>)-5-(2,4-dioxopyrimidin-1-yl)-4-hydroxy-3-methoxyoxolan-2-yl]-2-oxoethoxy]-3,4-dihydroxy-<I>N</I>-[2-(4-methoxyphenyl)ethyl]-3,4-dihydro-2<I>H</I>-pyran-6-carboxamide
> <PUBCHEM_IUPAC_NAME>
(2S,3S,4S)-2-[(1R)-2-amino-1-[(2S,3S,4R,5R)-5-(2,4-dioxopyrimidin-1-yl)-4-hydroxy-3-methoxyoxolan-2-yl]-2-oxoethoxy]-3,4-dihydroxy-N-[2-(4-methoxyphenyl)ethyl]-3,4-dihydro-2H-pyran-6-carboxamide
> <PUBCHEM_IUPAC_SYSTEMATIC_NAME>
(2S,3S,4S)-2-[(1R)-2-azanyl-1-[(2S,3S,4R,5R)-5-[2,4-bis(oxidanylidene)pyrimidin-1-yl]-3-methoxy-4-oxidanyl-oxolan-2-yl]-2-oxidanylidene-ethoxy]-N-[2-(4-methoxyphenyl)ethyl]-3,4-bis(oxidanyl)-3,4-dihydro-2H-pyran-6-carboxamide
> <PUBCHEM_IUPAC_TRADITIONAL_NAME>
(2S,3S,4S)-2-[(1R)-2-amino-1-[(2S,3S,4R,5R)-5-(2,4-diketopyrimidin-1-yl)-4-hydroxy-3-methoxy-tetrahydrofuran-2-yl]-2-keto-ethoxy]-3,4-dihydroxy-N-[2-(4-methoxyphenyl)ethyl]-3,4-dihydro-2H-pyran-6-carboxamide
> <PUBCHEM_IUPAC_INCHI>
InChI=1S/C26H32N4O12/c1-38-13-5-3-12(4-6-13)7-9-28-23(36)15-11-14(31)17(33)25(40-15)42-21(22(27)35)20-19(39-2)18(34)24(41-20)30-10-8-16(32)29-26(30)37/h3-6,8,10-11,14,17-21,24-25,31,33-34H,7,9H2,1-2H3,(H2,27,35)(H,28,36)(H,29,32,37)/t14-,17-,18+,19-,20-,21+,24+,25+/m0/s1
> <PUBCHEM_IUPAC_INCHIKEY>
OBKNPPGFNFYVCY-QNFDJTDDSA-N
> <PUBCHEM_XLOGP3_AA>
-2.4
> <PUBCHEM_EXACT_MASS>
592.20167247
> <PUBCHEM_MOLECULAR_FORMULA>
C26H32N4O12
> <PUBCHEM_MOLECULAR_WEIGHT>
592.6
> <PUBCHEM_OPENEYE_CAN_SMILES>
COC1C(C(OC1C(C(=O)N)OC2C(C(C=C(O2)C(=O)NCCC3=CC=C(C=C3)OC)O)O)N4C=CC(=O)NC4=O)O
> <PUBCHEM_OPENEYE_ISO_SMILES>
CO[C@H]1[C@H]([C@@H](O[C@@H]1[C@H](C(=O)N)O[C@@H]2[C@H]([C@H](C=C(O2)C(=O)NCCC3=CC=C(C=C3)OC)O)O)N4C=CC(=O)NC4=O)O
> <PUBCHEM_CACTVS_TPSA>
228
> <PUBCHEM_MONOISOTOPIC_WEIGHT>
592.20167247
> <PUBCHEM_TOTAL_CHARGE>
0
> <PUBCHEM_HEAVY_ATOM_COUNT>
42
> <PUBCHEM_ATOM_DEF_STEREO_COUNT>
8
> <PUBCHEM_ATOM_UDEF_STEREO_COUNT>
0
> <PUBCHEM_BOND_DEF_STEREO_COUNT>
0
> <PUBCHEM_BOND_UDEF_STEREO_COUNT>
0
> <PUBCHEM_ISOTOPIC_ATOM_COUNT>
0
> <PUBCHEM_COMPONENT_COUNT>
1
> <PUBCHEM_CACTVS_TAUTO_COUNT>
-1
> <PUBCHEM_COORDINATE_TYPE>
1
5
255
> <PUBCHEM_BONDANNOTATIONS>
20  13  5
13  25  8
13  26  8
14  25  8
14  32  8
17  43  6
18  2  6
26  29  8
29  32  8
21  3  6
22  3  5
36  37  8
36  38  8
37  39  8
38  40  8
39  41  8
19  4  6
40  41  8
24  7  6
28  8  6
$$$$
