513514
  -OEChem-10302200282D
 57 59  0     1  0  0  0  0  0999 V2000
    8.9757   -0.6774    0.0000 O   0  0  0  0  0  0  0  0  0  0  0  0
    7.4236   -2.7478    0.0000 O   0  0  0  0  0  0  0  0  0  0  0  0
    7.1962    0.4159    0.0000 O   0  0  0  0  0  0  0  0  0  0  0  0
    9.5516   -3.2001    0.0000 O   0  0  0  0  0  0  0  0  0  0  0  0
    5.4641    0.4159    0.0000 O   0  0  0  0  0  0  0  0  0  0  0  0
    7.1962    2.4159    0.0000 O   0  0  0  0  0  0  0  0  0  0  0  0
    5.4641   -0.5841    0.0000 O   0  0  0  0  0  0  0  0  0  0  0  0
    5.4641    3.4159    0.0000 O   0  0  0  0  0  0  0  0  0  0  0  0
   10.8204   -3.0385    0.0000 O   0  0  0  0  0  0  0  0  0  0  0  0
   13.6229   -1.0024    0.0000 O   0  0  0  0  0  0  0  0  0  0  0  0
    3.7320   -0.5841    0.0000 O   0  0  0  0  0  0  0  0  0  0  0  0
   10.6394   -1.3160    0.0000 N   0  0  0  0  0  0  0  0  0  0  0  0
    6.3301   -2.0841    0.0000 N   0  0  0  0  0  0  0  0  0  0  0  0
   12.2217   -2.0205    0.0000 N   0  0  0  0  0  0  0  0  0  0  0  0
    2.8660    0.9159    0.0000 N   0  0  0  0  0  0  0  0  0  0  0  0
    8.0622   -1.0841    0.0000 C   0  0  1  0  0  0  0  0  0  0  0  0
    8.1667   -2.0786    0.0000 C   0  0  2  0  0  0  0  0  0  0  0  0
    9.1448   -2.2865    0.0000 C   0  0  2  0  0  0  0  0  0  0  0  0
    9.6448   -1.4205    0.0000 C   0  0  1  0  0  0  0  0  0  0  0  0
    7.1962   -0.5841    0.0000 C   0  0  2  0  0  0  0  0  0  0  0  0
    6.3301    0.9159    0.0000 C   0  0  1  0  0  0  0  0  0  0  0  0
    6.3301   -1.0841    0.0000 C   0  0  0  0  0  0  0  0  0  0  0  0
    6.3301    1.9159    0.0000 C   0  0  2  0  0  0  0  0  0  0  0  0
   11.2272   -2.1250    0.0000 C   0  0  0  0  0  0  0  0  0  0  0  0
   11.0461   -0.4024    0.0000 C   0  0  0  0  0  0  0  0  0  0  0  0
    5.4641    2.4159    0.0000 C   0  0  2  0  0  0  0  0  0  0  0  0
    7.6315   -3.7259    0.0000 C   0  0  0  0  0  0  0  0  0  0  0  0
    4.5981    1.9159    0.0000 C   0  0  0  0  0  0  0  0  0  0  0  0
    4.5981    0.9159    0.0000 C   0  0  0  0  0  0  0  0  0  0  0  0
   12.0406   -0.2979    0.0000 C   0  0  0  0  0  0  0  0  0  0  0  0
   12.6284   -1.1069    0.0000 C   0  0  0  0  0  0  0  0  0  0  0  0
    3.7320    0.4159    0.0000 C   0  0  0  0  0  0  0  0  0  0  0  0
    2.0000    0.4159    0.0000 C   0  0  0  0  0  0  0  0  0  0  0  0
    8.1067   -0.2353    0.0000 H   0  0  0  0  0  0  0  0  0  0  0  0
    7.5879   -1.8564    0.0000 H   0  0  0  0  0  0  0  0  0  0  0  0
    8.7547   -2.7684    0.0000 H   0  0  0  0  0  0  0  0  0  0  0  0
    9.9825   -1.9405    0.0000 H   0  0  0  0  0  0  0  0  0  0  0  0
    6.6592   -0.2741    0.0000 H   0  0  0  0  0  0  0  0  0  0  0  0
    6.8671    1.2259    0.0000 H   0  0  0  0  0  0  0  0  0  0  0  0
    9.1872   -3.7017    0.0000 H   0  0  0  0  0  0  0  0  0  0  0  0
    6.3301    2.5359    0.0000 H   0  0  0  0  0  0  0  0  0  0  0  0
   10.6817    0.0992    0.0000 H   0  0  0  0  0  0  0  0  0  0  0  0
    4.9272    2.7259    0.0000 H   0  0  0  0  0  0  0  0  0  0  0  0
    7.0250   -3.8548    0.0000 H   0  0  0  0  0  0  0  0  0  0  0  0
    7.7604   -4.3324    0.0000 H   0  0  0  0  0  0  0  0  0  0  0  0
    8.2379   -3.5970    0.0000 H   0  0  0  0  0  0  0  0  0  0  0  0
    4.0611    2.2259    0.0000 H   0  0  0  0  0  0  0  0  0  0  0  0
    5.7932   -2.3941    0.0000 H   0  0  0  0  0  0  0  0  0  0  0  0
    6.8671   -2.3941    0.0000 H   0  0  0  0  0  0  0  0  0  0  0  0
   12.5861   -2.5221    0.0000 H   0  0  0  0  0  0  0  0  0  0  0  0
   12.2928    0.2685    0.0000 H   0  0  0  0  0  0  0  0  0  0  0  0
    7.1962    3.0359    0.0000 H   0  0  0  0  0  0  0  0  0  0  0  0
    4.9272    3.7259    0.0000 H   0  0  0  0  0  0  0  0  0  0  0  0
    2.8660    1.5359    0.0000 H   0  0  0  0  0  0  0  0  0  0  0  0
    1.6900    0.9528    0.0000 H   0  0  0  0  0  0  0  0  0  0  0  0
    1.4631    0.1059    0.0000 H   0  0  0  0  0  0  0  0  0  0  0  0
    2.3100   -0.1210    0.0000 H   0  0  0  0  0  0  0  0  0  0  0  0
  1 16  1  0  0  0  0
  1 19  1  0  0  0  0
 17  2  1  6  0  0  0
  2 27  1  0  0  0  0
 20  3  1  6  0  0  0
 21  3  1  1  0  0  0
 18  4  1  6  0  0  0
  4 40  1  0  0  0  0
  5 21  1  0  0  0  0
  5 29  1  0  0  0  0
 23  6  1  6  0  0  0
  6 52  1  0  0  0  0
  7 22  2  0  0  0  0
 26  8  1  6  0  0  0
  8 53  1  0  0  0  0
  9 24  2  0  0  0  0
 10 31  2  0  0  0  0
 11 32  2  0  0  0  0
 19 12  1  1  0  0  0
 12 24  1  0  0  0  0
 12 25  1  0  0  0  0
 13 22  1  0  0  0  0
 13 48  1  0  0  0  0
 13 49  1  0  0  0  0
 14 24  1  0  0  0  0
 14 31  1  0  0  0  0
 14 50  1  0  0  0  0
 15 32  1  0  0  0  0
 15 33  1  0  0  0  0
 15 54  1  0  0  0  0
 16 17  1  0  0  0  0
 16 20  1  0  0  0  0
 16 34  1  6  0  0  0
 17 18  1  0  0  0  0
 17 35  1  0  0  0  0
 18 19  1  0  0  0  0
 18 36  1  0  0  0  0
 19 37  1  0  0  0  0
 20 22  1  0  0  0  0
 20 38  1  0  0  0  0
 21 23  1  0  0  0  0
 21 39  1  0  0  0  0
 23 26  1  0  0  0  0
 23 41  1  0  0  0  0
 25 30  2  0  0  0  0
 25 42  1  0  0  0  0
 26 28  1  0  0  0  0
 26 43  1  0  0  0  0
 27 44  1  0  0  0  0
 27 45  1  0  0  0  0
 27 46  1  0  0  0  0
 28 29  2  0  0  0  0
 28 47  1  0  0  0  0
 29 32  1  0  0  0  0
 30 31  1  0  0  0  0
 30 51  1  0  0  0  0
 33 55  1  0  0  0  0
 33 56  1  0  0  0  0
 33 57  1  0  0  0  0
M  END
> <PUBCHEM_COMPOUND_CID>
513514
> <PUBCHEM_COMPOUND_CANONICALIZED>
1
> <PUBCHEM_CACTVS_COMPLEXITY>
878
> <PUBCHEM_CACTVS_HBOND_ACCEPTOR>
11
> <PUBCHEM_CACTVS_HBOND_DONOR>
6
> <PUBCHEM_CACTVS_ROTATABLE_BOND>
7
> <PUBCHEM_CACTVS_SUBSKEYS>
AAADceB7vAAAAAAAAAAAAAAAAAAAASAAAAAgQAAAAAAAAAAAAAAAHgAQCAAACBTxgAcDCAPABgCIACFWUAKACAAgIgAICIFIAEiTFBYAgAQvUAAP9yIfEcP6fA5AAAAAAAAAAAAAAAAAAAAAAAAAAAAAAA==
> <PUBCHEM_IUPAC_OPENEYE_NAME>
(2S,3S,4S)-2-[(1R)-2-amino-1-[(2S,3S,4R,5R)-5-(2,4-dioxopyrimidin-1-yl)-4-hydroxy-3-methoxy-tetrahydrofuran-2-yl]-2-oxo-ethoxy]-3,4-dihydroxy-N-methyl-3,4-dihydro-2H-pyran-6-carboxamide
> <PUBCHEM_IUPAC_CAS_NAME>
(2S,3S,4S)-2-[(1R)-2-amino-1-[(2S,3S,4R,5R)-5-(2,4-dioxo-1-pyrimidinyl)-4-hydroxy-3-methoxy-2-oxolanyl]-2-oxoethoxy]-3,4-dihydroxy-N-methyl-3,4-dihydro-2H-pyran-6-carboxamide
> <PUBCHEM_IUPAC_NAME_MARKUP>
(2<I>S</I>,3<I>S</I>,4<I>S</I>)-2-[(1<I>R</I>)-2-amino-1-[(2<I>S</I>,3<I>S</I>,4<I>R</I>,5<I>R</I>)-5-(2,4-dioxopyrimidin-1-yl)-4-hydroxy-3-methoxyoxolan-2-yl]-2-oxoethoxy]-3,4-dihydroxy-<I>N</I>-methyl-3,4-dihydro-2<I>H</I>-pyran-6-carboxamide
> <PUBCHEM_IUPAC_NAME>
(2S,3S,4S)-2-[(1R)-2-amino-1-[(2S,3S,4R,5R)-5-(2,4-dioxopyrimidin-1-yl)-4-hydroxy-3-methoxyoxolan-2-yl]-2-oxoethoxy]-3,4-dihydroxy-N-methyl-3,4-dihydro-2H-pyran-6-carboxamide
> <PUBCHEM_IUPAC_SYSTEMATIC_NAME>
(2S,3S,4S)-2-[(1R)-2-azanyl-1-[(2S,3S,4R,5R)-5-[2,4-bis(oxidanylidene)pyrimidin-1-yl]-3-methoxy-4-oxidanyl-oxolan-2-yl]-2-oxidanylidene-ethoxy]-N-methyl-3,4-bis(oxidanyl)-3,4-dihydro-2H-pyran-6-carboxamide
> <PUBCHEM_IUPAC_TRADITIONAL_NAME>
(2S,3S,4S)-2-[(1R)-2-amino-1-[(2S,3S,4R,5R)-5-(2,4-diketopyrimidin-1-yl)-4-hydroxy-3-methoxy-tetrahydrofuran-2-yl]-2-keto-ethoxy]-3,4-dihydroxy-N-methyl-3,4-dihydro-2H-pyran-6-carboxamide
> <PUBCHEM_IUPAC_INCHI>
InChI=1S/C18H24N4O11/c1-20-15(28)7-5-6(23)9(25)17(31-7)33-13(14(19)27)12-11(30-2)10(26)16(32-12)22-4-3-8(24)21-18(22)29/h3-6,9-13,16-17,23,25-26H,1-2H3,(H2,19,27)(H,20,28)(H,21,24,29)/t6-,9-,10+,11-,12-,13+,16+,17+/m0/s1
> <PUBCHEM_IUPAC_INCHIKEY>
UVPLVWJYUBASRO-LSGDWURYSA-N
> <PUBCHEM_XLOGP3_AA>
-4.3
> <PUBCHEM_EXACT_MASS>
472.14415759
> <PUBCHEM_MOLECULAR_FORMULA>
C18H24N4O11
> <PUBCHEM_MOLECULAR_WEIGHT>
472.4
> <PUBCHEM_OPENEYE_CAN_SMILES>
CNC(=O)C1=CC(C(C(O1)OC(C2C(C(C(O2)N3C=CC(=O)NC3=O)O)OC)C(=O)N)O)O
> <PUBCHEM_OPENEYE_ISO_SMILES>
CNC(=O)C1=C[C@@H]([C@@H]([C@H](O1)O[C@H]([C@@H]2[C@H]([C@H]([C@@H](O2)N3C=CC(=O)NC3=O)O)OC)C(=O)N)O)O
> <PUBCHEM_CACTVS_TPSA>
219
> <PUBCHEM_MONOISOTOPIC_WEIGHT>
472.14415759
> <PUBCHEM_TOTAL_CHARGE>
0
> <PUBCHEM_HEAVY_ATOM_COUNT>
33
> <PUBCHEM_ATOM_DEF_STEREO_COUNT>
8
> <PUBCHEM_ATOM_UDEF_STEREO_COUNT>
0
> <PUBCHEM_BOND_DEF_STEREO_COUNT>
0
> <PUBCHEM_BOND_UDEF_STEREO_COUNT>
0
> <PUBCHEM_ISOTOPIC_ATOM_COUNT>
0
> <PUBCHEM_COMPONENT_COUNT>
1
> <PUBCHEM_CACTVS_TAUTO_COUNT>
-1
> <PUBCHEM_COORDINATE_TYPE>
1
5
255
> <PUBCHEM_BONDANNOTATIONS>
19  12  5
12  24  8
12  25  8
14  24  8
14  31  8
16  34  6
17  2  6
25  30  8
20  3  6
21  3  5
30  31  8
18  4  6
23  6  6
26  8  6
$$$$
