513543
  -OEChem-10302200282D
 67 70  0     1  0  0  0  0  0999 V2000
    2.6691    0.8226    0.0000 S   0  0  0  0  0  0  0  0  0  0  0  0
   12.2905   -0.6774    0.0000 O   0  0  0  0  0  0  0  0  0  0  0  0
   10.7383   -2.7478    0.0000 O   0  0  0  0  0  0  0  0  0  0  0  0
   10.5109    0.4159    0.0000 O   0  0  0  0  0  0  0  0  0  0  0  0
   12.8663   -3.2001    0.0000 O   0  0  0  0  0  0  0  0  0  0  0  0
    8.7788    0.4159    0.0000 O   0  0  0  0  0  0  0  0  0  0  0  0
   10.5109    2.4159    0.0000 O   0  0  0  0  0  0  0  0  0  0  0  0
    8.7788   -0.5841    0.0000 O   0  0  0  0  0  0  0  0  0  0  0  0
    8.7788    3.4159    0.0000 O   0  0  0  0  0  0  0  0  0  0  0  0
   14.1352   -3.0385    0.0000 O   0  0  0  0  0  0  0  0  0  0  0  0
   16.9377   -1.0024    0.0000 O   0  0  0  0  0  0  0  0  0  0  0  0
    7.0468   -0.5841    0.0000 O   0  0  0  0  0  0  0  0  0  0  0  0
   13.9541   -1.3160    0.0000 N   0  0  0  0  0  0  0  0  0  0  0  0
    9.6448   -2.0841    0.0000 N   0  0  0  0  0  0  0  0  0  0  0  0
   15.5364   -2.0205    0.0000 N   0  0  0  0  0  0  0  0  0  0  0  0
    6.1808    0.9159    0.0000 N   0  0  0  0  0  0  0  0  0  0  0  0
   11.3769   -1.0841    0.0000 C   0  0  1  0  0  0  0  0  0  0  0  0
   11.4814   -2.0786    0.0000 C   0  0  2  0  0  0  0  0  0  0  0  0
   12.4596   -2.2865    0.0000 C   0  0  2  0  0  0  0  0  0  0  0  0
   12.9596   -1.4205    0.0000 C   0  0  1  0  0  0  0  0  0  0  0  0
   10.5109   -0.5841    0.0000 C   0  0  2  0  0  0  0  0  0  0  0  0
    9.6448    0.9159    0.0000 C   0  0  1  0  0  0  0  0  0  0  0  0
    9.6448   -1.0841    0.0000 C   0  0  0  0  0  0  0  0  0  0  0  0
    9.6448    1.9159    0.0000 C   0  0  2  0  0  0  0  0  0  0  0  0
   14.5419   -2.1250    0.0000 C   0  0  0  0  0  0  0  0  0  0  0  0
   14.3608   -0.4024    0.0000 C   0  0  0  0  0  0  0  0  0  0  0  0
    8.7788    2.4159    0.0000 C   0  0  2  0  0  0  0  0  0  0  0  0
   10.9462   -3.7259    0.0000 C   0  0  0  0  0  0  0  0  0  0  0  0
    7.9128    1.9159    0.0000 C   0  0  0  0  0  0  0  0  0  0  0  0
   15.3554   -0.2979    0.0000 C   0  0  0  0  0  0  0  0  0  0  0  0
    7.9128    0.9159    0.0000 C   0  0  0  0  0  0  0  0  0  0  0  0
   15.9431   -1.1069    0.0000 C   0  0  0  0  0  0  0  0  0  0  0  0
    7.0468    0.4159    0.0000 C   0  0  0  0  0  0  0  0  0  0  0  0
    5.3147    0.4159    0.0000 C   0  0  0  0  0  0  0  0  0  0  0  0
    4.4487    0.9159    0.0000 C   0  0  0  0  0  0  0  0  0  0  0  0
    3.5827    0.4159    0.0000 C   0  0  0  0  0  0  0  0  0  0  0  0
    3.4782   -0.5786    0.0000 C   0  0  0  0  0  0  0  0  0  0  0  0
    2.5000   -0.7865    0.0000 C   0  0  0  0  0  0  0  0  0  0  0  0
    2.0000    0.0795    0.0000 C   0  0  0  0  0  0  0  0  0  0  0  0
   12.1130   -1.5091    0.0000 H   0  0  0  0  0  0  0  0  0  0  0  0
   11.6419   -2.6775    0.0000 H   0  0  0  0  0  0  0  0  0  0  0  0
   12.0694   -2.7684    0.0000 H   0  0  0  0  0  0  0  0  0  0  0  0
   13.2973   -1.9405    0.0000 H   0  0  0  0  0  0  0  0  0  0  0  0
   11.0478   -0.2741    0.0000 H   0  0  0  0  0  0  0  0  0  0  0  0
    9.6448    0.2959    0.0000 H   0  0  0  0  0  0  0  0  0  0  0  0
   12.5019   -3.7017    0.0000 H   0  0  0  0  0  0  0  0  0  0  0  0
    9.6448    2.5359    0.0000 H   0  0  0  0  0  0  0  0  0  0  0  0
   13.9964    0.0992    0.0000 H   0  0  0  0  0  0  0  0  0  0  0  0
    8.2419    2.7259    0.0000 H   0  0  0  0  0  0  0  0  0  0  0  0
   10.3397   -3.8548    0.0000 H   0  0  0  0  0  0  0  0  0  0  0  0
   11.0751   -4.3324    0.0000 H   0  0  0  0  0  0  0  0  0  0  0  0
   11.5527   -3.5970    0.0000 H   0  0  0  0  0  0  0  0  0  0  0  0
    7.3759    2.2259    0.0000 H   0  0  0  0  0  0  0  0  0  0  0  0
    9.1079   -2.3941    0.0000 H   0  0  0  0  0  0  0  0  0  0  0  0
   10.1818   -2.3941    0.0000 H   0  0  0  0  0  0  0  0  0  0  0  0
   15.9008   -2.5221    0.0000 H   0  0  0  0  0  0  0  0  0  0  0  0
   15.6075    0.2685    0.0000 H   0  0  0  0  0  0  0  0  0  0  0  0
   10.5109    3.0359    0.0000 H   0  0  0  0  0  0  0  0  0  0  0  0
    8.2419    3.7259    0.0000 H   0  0  0  0  0  0  0  0  0  0  0  0
    6.1808    1.5359    0.0000 H   0  0  0  0  0  0  0  0  0  0  0  0
    4.9162   -0.0590    0.0000 H   0  0  0  0  0  0  0  0  0  0  0  0
    5.7133   -0.0590    0.0000 H   0  0  0  0  0  0  0  0  0  0  0  0
    4.8472    1.3908    0.0000 H   0  0  0  0  0  0  0  0  0  0  0  0
    4.0502    1.3908    0.0000 H   0  0  0  0  0  0  0  0  0  0  0  0
    3.9389   -0.9935    0.0000 H   0  0  0  0  0  0  0  0  0  0  0  0
    2.2478   -1.3529    0.0000 H   0  0  0  0  0  0  0  0  0  0  0  0
    1.3834    0.1443    0.0000 H   0  0  0  0  0  0  0  0  0  0  0  0
  1 36  1  0  0  0  0
  1 39  1  0  0  0  0
  2 17  1  0  0  0  0
  2 20  1  0  0  0  0
 18  3  1  6  0  0  0
  3 28  1  0  0  0  0
 21  4  1  6  0  0  0
 22  4  1  1  0  0  0
 19  5  1  6  0  0  0
  5 46  1  0  0  0  0
  6 22  1  0  0  0  0
  6 31  1  0  0  0  0
 24  7  1  6  0  0  0
  7 58  1  0  0  0  0
  8 23  2  0  0  0  0
 27  9  1  6  0  0  0
  9 59  1  0  0  0  0
 10 25  2  0  0  0  0
 11 32  2  0  0  0  0
 12 33  2  0  0  0  0
 20 13  1  1  0  0  0
 13 25  1  0  0  0  0
 13 26  1  0  0  0  0
 14 23  1  0  0  0  0
 14 54  1  0  0  0  0
 14 55  1  0  0  0  0
 15 25  1  0  0  0  0
 15 32  1  0  0  0  0
 15 56  1  0  0  0  0
 16 33  1  0  0  0  0
 16 34  1  0  0  0  0
 16 60  1  0  0  0  0
 17 18  1  0  0  0  0
 17 21  1  0  0  0  0
 17 40  1  6  0  0  0
 18 19  1  0  0  0  0
 18 41  1  0  0  0  0
 19 20  1  0  0  0  0
 19 42  1  0  0  0  0
 20 43  1  0  0  0  0
 21 23  1  0  0  0  0
 21 44  1  0  0  0  0
 22 24  1  0  0  0  0
 22 45  1  0  0  0  0
 24 27  1  0  0  0  0
 24 47  1  0  0  0  0
 26 30  2  0  0  0  0
 26 48  1  0  0  0  0
 27 29  1  0  0  0  0
 27 49  1  0  0  0  0
 28 50  1  0  0  0  0
 28 51  1  0  0  0  0
 28 52  1  0  0  0  0
 29 31  2  0  0  0  0
 29 53  1  0  0  0  0
 30 32  1  0  0  0  0
 30 57  1  0  0  0  0
 31 33  1  0  0  0  0
 34 35  1  0  0  0  0
 34 61  1  0  0  0  0
 34 62  1  0  0  0  0
 35 36  1  0  0  0  0
 35 63  1  0  0  0  0
 35 64  1  0  0  0  0
 36 37  2  0  0  0  0
 37 38  1  0  0  0  0
 37 65  1  0  0  0  0
 38 39  2  0  0  0  0
 38 66  1  0  0  0  0
 39 67  1  0  0  0  0
M  END
> <PUBCHEM_COMPOUND_CID>
513543
> <PUBCHEM_COMPOUND_CANONICALIZED>
1
> <PUBCHEM_CACTVS_COMPLEXITY>
1030
> <PUBCHEM_CACTVS_HBOND_ACCEPTOR>
12
> <PUBCHEM_CACTVS_HBOND_DONOR>
6
> <PUBCHEM_CACTVS_ROTATABLE_BOND>
10
> <PUBCHEM_CACTVS_SUBSKEYS>
AAADceB7vABAAAAAAAAAAAAAAAAAASJAAAAgQAAAAAAAAAABgAAAHgQQCAAACBT10AezCYPABgiMACFWUAKDCIAgKhBIiJlIAMibNDagkRWvUAAv9yK/mcf6fA5AAAAAAAAAAAAAAAAAAAAAAAAAAAAAAA==
> <PUBCHEM_IUPAC_OPENEYE_NAME>
(2S,3S,4S)-2-[(1R)-2-amino-1-[(2S,3S,4R,5R)-5-(2,4-dioxopyrimidin-1-yl)-4-hydroxy-3-methoxy-tetrahydrofuran-2-yl]-2-oxo-ethoxy]-3,4-dihydroxy-N-[2-(2-thienyl)ethyl]-3,4-dihydro-2H-pyran-6-carboxamide
> <PUBCHEM_IUPAC_CAS_NAME>
(2S,3S,4S)-2-[(1R)-2-amino-1-[(2S,3S,4R,5R)-5-(2,4-dioxo-1-pyrimidinyl)-4-hydroxy-3-methoxy-2-oxolanyl]-2-oxoethoxy]-3,4-dihydroxy-N-(2-thiophen-2-ylethyl)-3,4-dihydro-2H-pyran-6-carboxamide
> <PUBCHEM_IUPAC_NAME_MARKUP>
(2<I>S</I>,3<I>S</I>,4<I>S</I>)-2-[(1<I>R</I>)-2-amino-1-[(2<I>S</I>,3<I>S</I>,4<I>R</I>,5<I>R</I>)-5-(2,4-dioxopyrimidin-1-yl)-4-hydroxy-3-methoxyoxolan-2-yl]-2-oxoethoxy]-3,4-dihydroxy-<I>N</I>-(2-thiophen-2-ylethyl)-3,4-dihydro-2<I>H</I>-pyran-6-carboxamide
> <PUBCHEM_IUPAC_NAME>
(2S,3S,4S)-2-[(1R)-2-amino-1-[(2S,3S,4R,5R)-5-(2,4-dioxopyrimidin-1-yl)-4-hydroxy-3-methoxyoxolan-2-yl]-2-oxoethoxy]-3,4-dihydroxy-N-(2-thiophen-2-ylethyl)-3,4-dihydro-2H-pyran-6-carboxamide
> <PUBCHEM_IUPAC_SYSTEMATIC_NAME>
(2S,3S,4S)-2-[(1R)-2-azanyl-1-[(2S,3S,4R,5R)-5-[2,4-bis(oxidanylidene)pyrimidin-1-yl]-3-methoxy-4-oxidanyl-oxolan-2-yl]-2-oxidanylidene-ethoxy]-3,4-bis(oxidanyl)-N-(2-thiophen-2-ylethyl)-3,4-dihydro-2H-pyran-6-carboxamide
> <PUBCHEM_IUPAC_TRADITIONAL_NAME>
(2S,3S,4S)-2-[(1R)-2-amino-1-[(2S,3S,4R,5R)-5-(2,4-diketopyrimidin-1-yl)-4-hydroxy-3-methoxy-tetrahydrofuran-2-yl]-2-keto-ethoxy]-3,4-dihydroxy-N-[2-(2-thienyl)ethyl]-3,4-dihydro-2H-pyran-6-carboxamide
> <PUBCHEM_IUPAC_INCHI>
InChI=1S/C23H28N4O11S/c1-35-16-15(31)21(27-7-5-13(29)26-23(27)34)37-17(16)18(19(24)32)38-22-14(30)11(28)9-12(36-22)20(33)25-6-4-10-3-2-8-39-10/h2-3,5,7-9,11,14-18,21-22,28,30-31H,4,6H2,1H3,(H2,24,32)(H,25,33)(H,26,29,34)/t11-,14-,15+,16-,17-,18+,21+,22+/m0/s1
> <PUBCHEM_IUPAC_INCHIKEY>
KFBHVUQOWCZOEX-KQSVRIFWSA-N
> <PUBCHEM_XLOGP3_AA>
-2.6
> <PUBCHEM_EXACT_MASS>
568.14752890
> <PUBCHEM_MOLECULAR_FORMULA>
C23H28N4O11S
> <PUBCHEM_MOLECULAR_WEIGHT>
568.6
> <PUBCHEM_OPENEYE_CAN_SMILES>
COC1C(C(OC1C(C(=O)N)OC2C(C(C=C(O2)C(=O)NCCC3=CC=CS3)O)O)N4C=CC(=O)NC4=O)O
> <PUBCHEM_OPENEYE_ISO_SMILES>
CO[C@H]1[C@H]([C@@H](O[C@@H]1[C@H](C(=O)N)O[C@@H]2[C@H]([C@H](C=C(O2)C(=O)NCCC3=CC=CS3)O)O)N4C=CC(=O)NC4=O)O
> <PUBCHEM_CACTVS_TPSA>
247
> <PUBCHEM_MONOISOTOPIC_WEIGHT>
568.14752890
> <PUBCHEM_TOTAL_CHARGE>
0
> <PUBCHEM_HEAVY_ATOM_COUNT>
39
> <PUBCHEM_ATOM_DEF_STEREO_COUNT>
8
> <PUBCHEM_ATOM_UDEF_STEREO_COUNT>
0
> <PUBCHEM_BOND_DEF_STEREO_COUNT>
0
> <PUBCHEM_BOND_UDEF_STEREO_COUNT>
0
> <PUBCHEM_ISOTOPIC_ATOM_COUNT>
0
> <PUBCHEM_COMPONENT_COUNT>
1
> <PUBCHEM_CACTVS_TAUTO_COUNT>
-1
> <PUBCHEM_COORDINATE_TYPE>
1
5
255
> <PUBCHEM_BONDANNOTATIONS>
1  36  8
1  39  8
20  13  5
13  25  8
13  26  8
15  25  8
15  32  8
17  40  6
26  30  8
18  3  6
30  32  8
36  37  8
37  38  8
38  39  8
21  4  6
22  4  5
19  5  6
24  7  6
27  9  6
$$$$
