513575
  -OEChem-10302200282D
 64 67  0     1  0  0  0  0  0999 V2000
    2.0000    0.0233    0.0000 Cl  0  0  0  0  0  0  0  0  0  0  0  0
   10.7648   -0.9712    0.0000 O   0  0  0  0  0  0  0  0  0  0  0  0
   11.7817    1.4082    0.0000 O   0  0  0  0  0  0  0  0  0  0  0  0
    9.7942    1.5233    0.0000 O   0  0  0  0  0  0  0  0  0  0  0  0
   13.2375   -0.2086    0.0000 O   0  0  0  0  0  0  0  0  0  0  0  0
    8.0622    1.5233    0.0000 O   0  0  0  0  0  0  0  0  0  0  0  0
    9.7942    3.5233    0.0000 O   0  0  0  0  0  0  0  0  0  0  0  0
    8.0622    0.5233    0.0000 O   0  0  0  0  0  0  0  0  0  0  0  0
    8.0622    4.5233    0.0000 O   0  0  0  0  0  0  0  0  0  0  0  0
   10.5674   -2.7972    0.0000 O   0  0  0  0  0  0  0  0  0  0  0  0
   13.3699   -4.8333    0.0000 O   0  0  0  0  0  0  0  0  0  0  0  0
    6.3301    0.5233    0.0000 O   0  0  0  0  0  0  0  0  0  0  0  0
   12.1497   -2.0927    0.0000 N   0  0  0  0  0  0  0  0  0  0  0  0
    8.9282   -0.9767    0.0000 N   0  0  0  0  0  0  0  0  0  0  0  0
   11.9686   -3.8152    0.0000 N   0  0  0  0  0  0  0  0  0  0  0  0
    5.4641    2.0233    0.0000 N   0  0  0  0  0  0  0  0  0  0  0  0
   10.6603    0.0233    0.0000 C   0  0  1  0  0  0  0  0  0  0  0  0
   11.5738    0.4300    0.0000 C   0  0  2  0  0  0  0  0  0  0  0  0
   12.2429   -0.3131    0.0000 C   0  0  2  0  0  0  0  0  0  0  0  0
   11.7429   -1.1791    0.0000 C   0  0  1  0  0  0  0  0  0  0  0  0
    9.7942    0.5233    0.0000 C   0  0  2  0  0  0  0  0  0  0  0  0
    8.9282    2.0233    0.0000 C   0  0  1  0  0  0  0  0  0  0  0  0
    8.9282    0.0233    0.0000 C   0  0  0  0  0  0  0  0  0  0  0  0
    8.9282    3.0233    0.0000 C   0  0  2  0  0  0  0  0  0  0  0  0
   11.5619   -2.9017    0.0000 C   0  0  0  0  0  0  0  0  0  0  0  0
   13.1442   -2.1972    0.0000 C   0  0  0  0  0  0  0  0  0  0  0  0
    8.0622    3.5233    0.0000 C   0  0  2  0  0  0  0  0  0  0  0  0
   12.7328    1.7172    0.0000 C   0  0  0  0  0  0  0  0  0  0  0  0
    7.1962    3.0233    0.0000 C   0  0  0  0  0  0  0  0  0  0  0  0
   13.5509   -3.1108    0.0000 C   0  0  0  0  0  0  0  0  0  0  0  0
    7.1962    2.0233    0.0000 C   0  0  0  0  0  0  0  0  0  0  0  0
   12.9631   -3.9198    0.0000 C   0  0  0  0  0  0  0  0  0  0  0  0
    6.3301    1.5233    0.0000 C   0  0  0  0  0  0  0  0  0  0  0  0
    4.5981    1.5233    0.0000 C   0  0  0  0  0  0  0  0  0  0  0  0
    3.7320    2.0233    0.0000 C   0  0  0  0  0  0  0  0  0  0  0  0
    4.5981    0.5233    0.0000 C   0  0  0  0  0  0  0  0  0  0  0  0
    2.8660    1.5233    0.0000 C   0  0  0  0  0  0  0  0  0  0  0  0
    3.7320    0.0233    0.0000 C   0  0  0  0  0  0  0  0  0  0  0  0
    2.8660    0.5233    0.0000 C   0  0  0  0  0  0  0  0  0  0  0  0
    9.9474   -0.4396    0.0000 H   0  0  0  0  0  0  0  0  0  0  0  0
   11.0920    0.8202    0.0000 H   0  0  0  0  0  0  0  0  0  0  0  0
   12.4651    0.2657    0.0000 H   0  0  0  0  0  0  0  0  0  0  0  0
   12.3621   -1.2116    0.0000 H   0  0  0  0  0  0  0  0  0  0  0  0
    9.2573    0.8333    0.0000 H   0  0  0  0  0  0  0  0  0  0  0  0
    9.4651    2.3333    0.0000 H   0  0  0  0  0  0  0  0  0  0  0  0
   13.4896    0.3578    0.0000 H   0  0  0  0  0  0  0  0  0  0  0  0
    8.9282    3.6433    0.0000 H   0  0  0  0  0  0  0  0  0  0  0  0
   13.5086   -1.6956    0.0000 H   0  0  0  0  0  0  0  0  0  0  0  0
    7.5252    3.8333    0.0000 H   0  0  0  0  0  0  0  0  0  0  0  0
   12.9244    1.1276    0.0000 H   0  0  0  0  0  0  0  0  0  0  0  0
   13.3224    1.9088    0.0000 H   0  0  0  0  0  0  0  0  0  0  0  0
   12.5412    2.3069    0.0000 H   0  0  0  0  0  0  0  0  0  0  0  0
    6.6592    3.3333    0.0000 H   0  0  0  0  0  0  0  0  0  0  0  0
    8.3913   -1.2867    0.0000 H   0  0  0  0  0  0  0  0  0  0  0  0
    9.4651   -1.2867    0.0000 H   0  0  0  0  0  0  0  0  0  0  0  0
   11.6042   -4.3168    0.0000 H   0  0  0  0  0  0  0  0  0  0  0  0
   14.1675   -3.1756    0.0000 H   0  0  0  0  0  0  0  0  0  0  0  0
    9.7942    4.1433    0.0000 H   0  0  0  0  0  0  0  0  0  0  0  0
    7.5252    4.8333    0.0000 H   0  0  0  0  0  0  0  0  0  0  0  0
    5.4641    2.6433    0.0000 H   0  0  0  0  0  0  0  0  0  0  0  0
    3.7320    2.6433    0.0000 H   0  0  0  0  0  0  0  0  0  0  0  0
    5.1350    0.2133    0.0000 H   0  0  0  0  0  0  0  0  0  0  0  0
    2.3291    1.8333    0.0000 H   0  0  0  0  0  0  0  0  0  0  0  0
    3.7320   -0.5967    0.0000 H   0  0  0  0  0  0  0  0  0  0  0  0
  1 39  1  0  0  0  0
  2 17  1  0  0  0  0
  2 20  1  0  0  0  0
 18  3  1  1  0  0  0
  3 28  1  0  0  0  0
 21  4  1  6  0  0  0
 22  4  1  1  0  0  0
 19  5  1  1  0  0  0
  5 46  1  0  0  0  0
  6 22  1  0  0  0  0
  6 31  1  0  0  0  0
 24  7  1  6  0  0  0
  7 58  1  0  0  0  0
  8 23  2  0  0  0  0
 27  9  1  6  0  0  0
  9 59  1  0  0  0  0
 10 25  2  0  0  0  0
 11 32  2  0  0  0  0
 12 33  2  0  0  0  0
 20 13  1  6  0  0  0
 13 25  1  0  0  0  0
 13 26  1  0  0  0  0
 14 23  1  0  0  0  0
 14 54  1  0  0  0  0
 14 55  1  0  0  0  0
 15 25  1  0  0  0  0
 15 32  1  0  0  0  0
 15 56  1  0  0  0  0
 16 33  1  0  0  0  0
 16 34  1  0  0  0  0
 16 60  1  0  0  0  0
 17 18  1  0  0  0  0
 17 21  1  0  0  0  0
 17 40  1  1  0  0  0
 18 19  1  0  0  0  0
 18 41  1  0  0  0  0
 19 20  1  0  0  0  0
 19 42  1  0  0  0  0
 20 43  1  0  0  0  0
 21 23  1  0  0  0  0
 21 44  1  0  0  0  0
 22 24  1  0  0  0  0
 22 45  1  0  0  0  0
 24 27  1  0  0  0  0
 24 47  1  0  0  0  0
 26 30  2  0  0  0  0
 26 48  1  0  0  0  0
 27 29  1  0  0  0  0
 27 49  1  0  0  0  0
 28 50  1  0  0  0  0
 28 51  1  0  0  0  0
 28 52  1  0  0  0  0
 29 31  2  0  0  0  0
 29 53  1  0  0  0  0
 30 32  1  0  0  0  0
 30 57  1  0  0  0  0
 31 33  1  0  0  0  0
 34 35  2  0  0  0  0
 34 36  1  0  0  0  0
 35 37  1  0  0  0  0
 35 61  1  0  0  0  0
 36 38  2  0  0  0  0
 36 62  1  0  0  0  0
 37 39  2  0  0  0  0
 37 63  1  0  0  0  0
 38 39  1  0  0  0  0
 38 64  1  0  0  0  0
M  END
> <PUBCHEM_COMPOUND_CID>
513575
> <PUBCHEM_COMPOUND_CANONICALIZED>
1
> <PUBCHEM_CACTVS_COMPLEXITY>
1030
> <PUBCHEM_CACTVS_HBOND_ACCEPTOR>
11
> <PUBCHEM_CACTVS_HBOND_DONOR>
6
> <PUBCHEM_CACTVS_ROTATABLE_BOND>
8
> <PUBCHEM_CACTVS_SUBSKEYS>
AAADceB7vAAEAAAAAAAAAAAAAAAAASAAAAAwQIAAAAAAAAABAAAAHgIQCAAACB7xkCczyIPABgCIACVWUAKCCAAhJwAIiAFIZsibNDbBk5WvcAhv9yLf2cf6fA5AAABAAAAAAAAAAIAAAAAAAAAAAAAAAA==
> <PUBCHEM_IUPAC_OPENEYE_NAME>
(2S,3S,4S)-2-[(1R)-2-amino-1-[(2S,3S,4R,5R)-5-(2,4-dioxopyrimidin-1-yl)-4-hydroxy-3-methoxy-tetrahydrofuran-2-yl]-2-oxo-ethoxy]-N-(4-chlorophenyl)-3,4-dihydroxy-3,4-dihydro-2H-pyran-6-carboxamide
> <PUBCHEM_IUPAC_CAS_NAME>
(2S,3S,4S)-2-[(1R)-2-amino-1-[(2S,3S,4R,5R)-5-(2,4-dioxo-1-pyrimidinyl)-4-hydroxy-3-methoxy-2-oxolanyl]-2-oxoethoxy]-N-(4-chlorophenyl)-3,4-dihydroxy-3,4-dihydro-2H-pyran-6-carboxamide
> <PUBCHEM_IUPAC_NAME_MARKUP>
(2<I>S</I>,3<I>S</I>,4<I>S</I>)-2-[(1<I>R</I>)-2-amino-1-[(2<I>S</I>,3<I>S</I>,4<I>R</I>,5<I>R</I>)-5-(2,4-dioxopyrimidin-1-yl)-4-hydroxy-3-methoxyoxolan-2-yl]-2-oxoethoxy]-<I>N</I>-(4-chlorophenyl)-3,4-dihydroxy-3,4-dihydro-2<I>H</I>-pyran-6-carboxamide
> <PUBCHEM_IUPAC_NAME>
(2S,3S,4S)-2-[(1R)-2-amino-1-[(2S,3S,4R,5R)-5-(2,4-dioxopyrimidin-1-yl)-4-hydroxy-3-methoxyoxolan-2-yl]-2-oxoethoxy]-N-(4-chlorophenyl)-3,4-dihydroxy-3,4-dihydro-2H-pyran-6-carboxamide
> <PUBCHEM_IUPAC_SYSTEMATIC_NAME>
(2S,3S,4S)-2-[(1R)-2-azanyl-1-[(2S,3S,4R,5R)-5-[2,4-bis(oxidanylidene)pyrimidin-1-yl]-3-methoxy-4-oxidanyl-oxolan-2-yl]-2-oxidanylidene-ethoxy]-N-(4-chlorophenyl)-3,4-bis(oxidanyl)-3,4-dihydro-2H-pyran-6-carboxamide
> <PUBCHEM_IUPAC_TRADITIONAL_NAME>
(2S,3S,4S)-2-[(1R)-2-amino-1-[(2S,3S,4R,5R)-5-(2,4-diketopyrimidin-1-yl)-4-hydroxy-3-methoxy-tetrahydrofuran-2-yl]-2-keto-ethoxy]-N-(4-chlorophenyl)-3,4-dihydroxy-3,4-dihydro-2H-pyran-6-carboxamide
> <PUBCHEM_IUPAC_INCHI>
InChI=1S/C23H25ClN4O11/c1-36-16-15(32)21(28-7-6-13(30)27-23(28)35)38-17(16)18(19(25)33)39-22-14(31)11(29)8-12(37-22)20(34)26-10-4-2-9(24)3-5-10/h2-8,11,14-18,21-22,29,31-32H,1H3,(H2,25,33)(H,26,34)(H,27,30,35)/t11-,14-,15+,16-,17-,18+,21+,22+/m0/s1
> <PUBCHEM_IUPAC_INCHIKEY>
IDBCFOUYJOPJRY-KQSVRIFWSA-N
> <PUBCHEM_XLOGP3_AA>
-2.1
> <PUBCHEM_EXACT_MASS>
568.1208353
> <PUBCHEM_MOLECULAR_FORMULA>
C23H25ClN4O11
> <PUBCHEM_MOLECULAR_WEIGHT>
568.9
> <PUBCHEM_OPENEYE_CAN_SMILES>
COC1C(C(OC1C(C(=O)N)OC2C(C(C=C(O2)C(=O)NC3=CC=C(C=C3)Cl)O)O)N4C=CC(=O)NC4=O)O
> <PUBCHEM_OPENEYE_ISO_SMILES>
CO[C@H]1[C@H]([C@@H](O[C@@H]1[C@H](C(=O)N)O[C@@H]2[C@H]([C@H](C=C(O2)C(=O)NC3=CC=C(C=C3)Cl)O)O)N4C=CC(=O)NC4=O)O
> <PUBCHEM_CACTVS_TPSA>
219
> <PUBCHEM_MONOISOTOPIC_WEIGHT>
568.1208353
> <PUBCHEM_TOTAL_CHARGE>
0
> <PUBCHEM_HEAVY_ATOM_COUNT>
39
> <PUBCHEM_ATOM_DEF_STEREO_COUNT>
8
> <PUBCHEM_ATOM_UDEF_STEREO_COUNT>
0
> <PUBCHEM_BOND_DEF_STEREO_COUNT>
0
> <PUBCHEM_BOND_UDEF_STEREO_COUNT>
0
> <PUBCHEM_ISOTOPIC_ATOM_COUNT>
0
> <PUBCHEM_COMPONENT_COUNT>
1
> <PUBCHEM_CACTVS_TAUTO_COUNT>
-1
> <PUBCHEM_COORDINATE_TYPE>
1
5
255
> <PUBCHEM_BONDANNOTATIONS>
20  13  6
13  25  8
13  26  8
15  25  8
15  32  8
17  40  5
26  30  8
18  3  5
30  32  8
34  35  8
34  36  8
35  37  8
36  38  8
37  39  8
38  39  8
21  4  6
22  4  5
19  5  5
24  7  6
27  9  6
$$$$
