513564
  -OEChem-10302200282D
 73 76  0     1  0  0  0  0  0999 V2000
   11.6308   -0.9712    0.0000 O   0  0  0  0  0  0  0  0  0  0  0  0
   12.6477    1.4082    0.0000 O   0  0  0  0  0  0  0  0  0  0  0  0
   10.6603    1.5233    0.0000 O   0  0  0  0  0  0  0  0  0  0  0  0
   14.1035   -0.2086    0.0000 O   0  0  0  0  0  0  0  0  0  0  0  0
    8.9282    1.5233    0.0000 O   0  0  0  0  0  0  0  0  0  0  0  0
    8.9282    0.5233    0.0000 O   0  0  0  0  0  0  0  0  0  0  0  0
   10.6603    3.5233    0.0000 O   0  0  0  0  0  0  0  0  0  0  0  0
    8.9282    4.5233    0.0000 O   0  0  0  0  0  0  0  0  0  0  0  0
   11.4334   -2.7972    0.0000 O   0  0  0  0  0  0  0  0  0  0  0  0
   14.2359   -4.8333    0.0000 O   0  0  0  0  0  0  0  0  0  0  0  0
    7.1962    0.5233    0.0000 O   0  0  0  0  0  0  0  0  0  0  0  0
   13.0157   -2.0927    0.0000 N   0  0  0  0  0  0  0  0  0  0  0  0
   12.8346   -3.8152    0.0000 N   0  0  0  0  0  0  0  0  0  0  0  0
    9.7942   -0.9767    0.0000 N   0  0  0  0  0  0  0  0  0  0  0  0
    6.3301    2.0233    0.0000 N   0  0  0  0  0  0  0  0  0  0  0  0
   11.5263    0.0233    0.0000 C   0  0  1  0  0  0  0  0  0  0  0  0
   12.4398    0.4300    0.0000 C   0  0  2  0  0  0  0  0  0  0  0  0
   13.1090   -0.3131    0.0000 C   0  0  2  0  0  0  0  0  0  0  0  0
   12.6090   -1.1791    0.0000 C   0  0  1  0  0  0  0  0  0  0  0  0
   10.6603    0.5233    0.0000 C   0  0  2  0  0  0  0  0  0  0  0  0
    9.7942    2.0233    0.0000 C   0  0  1  0  0  0  0  0  0  0  0  0
    9.7942    0.0233    0.0000 C   0  0  0  0  0  0  0  0  0  0  0  0
    9.7942    3.0233    0.0000 C   0  0  2  0  0  0  0  0  0  0  0  0
   12.4279   -2.9017    0.0000 C   0  0  0  0  0  0  0  0  0  0  0  0
   14.0102   -2.1972    0.0000 C   0  0  0  0  0  0  0  0  0  0  0  0
   13.5988    1.7172    0.0000 C   0  0  0  0  0  0  0  0  0  0  0  0
    8.9282    3.5233    0.0000 C   0  0  2  0  0  0  0  0  0  0  0  0
   14.4170   -3.1108    0.0000 C   0  0  0  0  0  0  0  0  0  0  0  0
    8.0622    3.0233    0.0000 C   0  0  0  0  0  0  0  0  0  0  0  0
    8.0622    2.0233    0.0000 C   0  0  0  0  0  0  0  0  0  0  0  0
   13.8292   -3.9198    0.0000 C   0  0  0  0  0  0  0  0  0  0  0  0
    7.1962    1.5233    0.0000 C   0  0  0  0  0  0  0  0  0  0  0  0
    5.4641    1.5233    0.0000 C   0  0  0  0  0  0  0  0  0  0  0  0
    2.8660    0.0233    0.0000 C   0  0  0  0  0  0  0  0  0  0  0  0
    3.7320    0.5233    0.0000 C   0  0  0  0  0  0  0  0  0  0  0  0
    4.5981    2.0233    0.0000 C   0  0  0  0  0  0  0  0  0  0  0  0
    5.4641    0.5233    0.0000 C   0  0  0  0  0  0  0  0  0  0  0  0
    3.7320    1.5233    0.0000 C   0  0  0  0  0  0  0  0  0  0  0  0
    4.5981    0.0233    0.0000 C   0  0  0  0  0  0  0  0  0  0  0  0
    2.0000    0.5233    0.0000 C   0  0  0  0  0  0  0  0  0  0  0  0
    2.8660   -0.9767    0.0000 C   0  0  0  0  0  0  0  0  0  0  0  0
   10.8134   -0.4396    0.0000 H   0  0  0  0  0  0  0  0  0  0  0  0
   13.0387    0.5905    0.0000 H   0  0  0  0  0  0  0  0  0  0  0  0
   13.4466   -0.8331    0.0000 H   0  0  0  0  0  0  0  0  0  0  0  0
   13.2281   -1.2116    0.0000 H   0  0  0  0  0  0  0  0  0  0  0  0
   11.1972    0.8333    0.0000 H   0  0  0  0  0  0  0  0  0  0  0  0
   10.3312    2.3333    0.0000 H   0  0  0  0  0  0  0  0  0  0  0  0
   14.3557    0.3578    0.0000 H   0  0  0  0  0  0  0  0  0  0  0  0
    9.7942    3.6433    0.0000 H   0  0  0  0  0  0  0  0  0  0  0  0
   14.3746   -1.6956    0.0000 H   0  0  0  0  0  0  0  0  0  0  0  0
   13.7904    1.1276    0.0000 H   0  0  0  0  0  0  0  0  0  0  0  0
   14.1884    1.9088    0.0000 H   0  0  0  0  0  0  0  0  0  0  0  0
   13.4072    2.3069    0.0000 H   0  0  0  0  0  0  0  0  0  0  0  0
    8.3913    3.8333    0.0000 H   0  0  0  0  0  0  0  0  0  0  0  0
   12.4702   -4.3168    0.0000 H   0  0  0  0  0  0  0  0  0  0  0  0
   15.0336   -3.1756    0.0000 H   0  0  0  0  0  0  0  0  0  0  0  0
    9.2573   -1.2867    0.0000 H   0  0  0  0  0  0  0  0  0  0  0  0
   10.3312   -1.2867    0.0000 H   0  0  0  0  0  0  0  0  0  0  0  0
    7.5252    3.3333    0.0000 H   0  0  0  0  0  0  0  0  0  0  0  0
   10.6603    4.1433    0.0000 H   0  0  0  0  0  0  0  0  0  0  0  0
    8.3913    4.8333    0.0000 H   0  0  0  0  0  0  0  0  0  0  0  0
    6.3301    2.6433    0.0000 H   0  0  0  0  0  0  0  0  0  0  0  0
    2.8660    0.6433    0.0000 H   0  0  0  0  0  0  0  0  0  0  0  0
    4.5981    2.6433    0.0000 H   0  0  0  0  0  0  0  0  0  0  0  0
    6.0010    0.2133    0.0000 H   0  0  0  0  0  0  0  0  0  0  0  0
    3.1951    1.8333    0.0000 H   0  0  0  0  0  0  0  0  0  0  0  0
    4.5981   -0.5967    0.0000 H   0  0  0  0  0  0  0  0  0  0  0  0
    2.3100    1.0602    0.0000 H   0  0  0  0  0  0  0  0  0  0  0  0
    1.4631    0.8333    0.0000 H   0  0  0  0  0  0  0  0  0  0  0  0
    1.6900   -0.0136    0.0000 H   0  0  0  0  0  0  0  0  0  0  0  0
    2.2460   -0.9767    0.0000 H   0  0  0  0  0  0  0  0  0  0  0  0
    2.8660   -1.5967    0.0000 H   0  0  0  0  0  0  0  0  0  0  0  0
    3.4860   -0.9767    0.0000 H   0  0  0  0  0  0  0  0  0  0  0  0
  1 16  1  0  0  0  0
  1 19  1  0  0  0  0
 17  2  1  1  0  0  0
  2 26  1  0  0  0  0
 20  3  1  6  0  0  0
 21  3  1  1  0  0  0
 18  4  1  1  0  0  0
  4 48  1  0  0  0  0
  5 21  1  0  0  0  0
  5 30  1  0  0  0  0
  6 22  2  0  0  0  0
 23  7  1  6  0  0  0
  7 60  1  0  0  0  0
 27  8  1  6  0  0  0
  8 61  1  0  0  0  0
  9 24  2  0  0  0  0
 10 31  2  0  0  0  0
 11 32  2  0  0  0  0
 19 12  1  6  0  0  0
 12 24  1  0  0  0  0
 12 25  1  0  0  0  0
 13 24  1  0  0  0  0
 13 31  1  0  0  0  0
 13 55  1  0  0  0  0
 14 22  1  0  0  0  0
 14 57  1  0  0  0  0
 14 58  1  0  0  0  0
 15 32  1  0  0  0  0
 15 33  1  0  0  0  0
 15 62  1  0  0  0  0
 16 17  1  0  0  0  0
 16 20  1  0  0  0  0
 16 42  1  1  0  0  0
 17 18  1  0  0  0  0
 17 43  1  0  0  0  0
 18 19  1  0  0  0  0
 18 44  1  0  0  0  0
 19 45  1  0  0  0  0
 20 22  1  0  0  0  0
 20 46  1  0  0  0  0
 21 23  1  0  0  0  0
 21 47  1  0  0  0  0
 23 27  1  0  0  0  0
 23 49  1  0  0  0  0
 25 28  2  0  0  0  0
 25 50  1  0  0  0  0
 26 51  1  0  0  0  0
 26 52  1  0  0  0  0
 26 53  1  0  0  0  0
 27 29  1  0  0  0  0
 27 54  1  0  0  0  0
 28 31  1  0  0  0  0
 28 56  1  0  0  0  0
 29 30  2  0  0  0  0
 29 59  1  0  0  0  0
 30 32  1  0  0  0  0
 33 36  2  0  0  0  0
 33 37  1  0  0  0  0
 34 35  1  0  0  0  0
 34 40  1  0  0  0  0
 34 41  1  0  0  0  0
 34 63  1  0  0  0  0
 35 38  2  0  0  0  0
 35 39  1  0  0  0  0
 36 38  1  0  0  0  0
 36 64  1  0  0  0  0
 37 39  2  0  0  0  0
 37 65  1  0  0  0  0
 38 66  1  0  0  0  0
 39 67  1  0  0  0  0
 40 68  1  0  0  0  0
 40 69  1  0  0  0  0
 40 70  1  0  0  0  0
 41 71  1  0  0  0  0
 41 72  1  0  0  0  0
 41 73  1  0  0  0  0
M  END
> <PUBCHEM_COMPOUND_CID>
513564
> <PUBCHEM_COMPOUND_CANONICALIZED>
1
> <PUBCHEM_CACTVS_COMPLEXITY>
1070
> <PUBCHEM_CACTVS_HBOND_ACCEPTOR>
11
> <PUBCHEM_CACTVS_HBOND_DONOR>
6
> <PUBCHEM_CACTVS_ROTATABLE_BOND>
9
> <PUBCHEM_CACTVS_SUBSKEYS>
AAADcfB7vAAAAAAAAAAAAAAAAAAAASAAAAAwQIAAAAAAAAABAAAAHgAQCAAADRzxmAczyIPABgCIAiVWUAKCCAAhIgAIiAFIZMibNDbAkZWvcAhv9yLf2cf6/M5OiAAAAAAAAAAQAAAAAAAAAAAAAAAAAA==
> <PUBCHEM_IUPAC_OPENEYE_NAME>
(2S,3S,4S)-2-[(1R)-2-amino-1-[(2S,3S,4R,5R)-5-(2,4-dioxopyrimidin-1-yl)-4-hydroxy-3-methoxy-tetrahydrofuran-2-yl]-2-oxo-ethoxy]-3,4-dihydroxy-N-(4-isopropylphenyl)-3,4-dihydro-2H-pyran-6-carboxamide
> <PUBCHEM_IUPAC_CAS_NAME>
(2S,3S,4S)-2-[(1R)-2-amino-1-[(2S,3S,4R,5R)-5-(2,4-dioxo-1-pyrimidinyl)-4-hydroxy-3-methoxy-2-oxolanyl]-2-oxoethoxy]-3,4-dihydroxy-N-(4-propan-2-ylphenyl)-3,4-dihydro-2H-pyran-6-carboxamide
> <PUBCHEM_IUPAC_NAME_MARKUP>
(2<I>S</I>,3<I>S</I>,4<I>S</I>)-2-[(1<I>R</I>)-2-amino-1-[(2<I>S</I>,3<I>S</I>,4<I>R</I>,5<I>R</I>)-5-(2,4-dioxopyrimidin-1-yl)-4-hydroxy-3-methoxyoxolan-2-yl]-2-oxoethoxy]-3,4-dihydroxy-<I>N</I>-(4-propan-2-ylphenyl)-3,4-dihydro-2<I>H</I>-pyran-6-carboxamide
> <PUBCHEM_IUPAC_NAME>
(2S,3S,4S)-2-[(1R)-2-amino-1-[(2S,3S,4R,5R)-5-(2,4-dioxopyrimidin-1-yl)-4-hydroxy-3-methoxyoxolan-2-yl]-2-oxoethoxy]-3,4-dihydroxy-N-(4-propan-2-ylphenyl)-3,4-dihydro-2H-pyran-6-carboxamide
> <PUBCHEM_IUPAC_SYSTEMATIC_NAME>
(2S,3S,4S)-2-[(1R)-2-azanyl-1-[(2S,3S,4R,5R)-5-[2,4-bis(oxidanylidene)pyrimidin-1-yl]-3-methoxy-4-oxidanyl-oxolan-2-yl]-2-oxidanylidene-ethoxy]-3,4-bis(oxidanyl)-N-(4-propan-2-ylphenyl)-3,4-dihydro-2H-pyran-6-carboxamide
> <PUBCHEM_IUPAC_TRADITIONAL_NAME>
(2S,3S,4S)-2-[(1R)-2-amino-1-[(2S,3S,4R,5R)-5-(2,4-diketopyrimidin-1-yl)-4-hydroxy-3-methoxy-tetrahydrofuran-2-yl]-2-keto-ethoxy]-3,4-dihydroxy-N-p-cumenyl-3,4-dihydro-2H-pyran-6-carboxamide
> <PUBCHEM_IUPAC_INCHI>
InChI=1S/C26H32N4O11/c1-11(2)12-4-6-13(7-5-12)28-23(36)15-10-14(31)17(33)25(39-15)41-21(22(27)35)20-19(38-3)18(34)24(40-20)30-9-8-16(32)29-26(30)37/h4-11,14,17-21,24-25,31,33-34H,1-3H3,(H2,27,35)(H,28,36)(H,29,32,37)/t14-,17-,18+,19-,20-,21+,24+,25+/m0/s1
> <PUBCHEM_IUPAC_INCHIKEY>
DTRXPLQFKACNPM-QNFDJTDDSA-N
> <PUBCHEM_XLOGP3_AA>
-1.6
> <PUBCHEM_EXACT_MASS>
576.20675785
> <PUBCHEM_MOLECULAR_FORMULA>
C26H32N4O11
> <PUBCHEM_MOLECULAR_WEIGHT>
576.6
> <PUBCHEM_OPENEYE_CAN_SMILES>
CC(C)C1=CC=C(C=C1)NC(=O)C2=CC(C(C(O2)OC(C3C(C(C(O3)N4C=CC(=O)NC4=O)O)OC)C(=O)N)O)O
> <PUBCHEM_OPENEYE_ISO_SMILES>
CC(C)C1=CC=C(C=C1)NC(=O)C2=C[C@@H]([C@@H]([C@H](O2)O[C@H]([C@@H]3[C@H]([C@H]([C@@H](O3)N4C=CC(=O)NC4=O)O)OC)C(=O)N)O)O
> <PUBCHEM_CACTVS_TPSA>
219
> <PUBCHEM_MONOISOTOPIC_WEIGHT>
576.20675785
> <PUBCHEM_TOTAL_CHARGE>
0
> <PUBCHEM_HEAVY_ATOM_COUNT>
41
> <PUBCHEM_ATOM_DEF_STEREO_COUNT>
8
> <PUBCHEM_ATOM_UDEF_STEREO_COUNT>
0
> <PUBCHEM_BOND_DEF_STEREO_COUNT>
0
> <PUBCHEM_BOND_UDEF_STEREO_COUNT>
0
> <PUBCHEM_ISOTOPIC_ATOM_COUNT>
0
> <PUBCHEM_COMPONENT_COUNT>
1
> <PUBCHEM_CACTVS_TAUTO_COUNT>
-1
> <PUBCHEM_COORDINATE_TYPE>
1
5
255
> <PUBCHEM_BONDANNOTATIONS>
19  12  6
12  24  8
12  25  8
13  24  8
13  31  8
16  42  5
17  2  5
25  28  8
28  31  8
20  3  6
21  3  5
33  36  8
33  37  8
35  38  8
35  39  8
36  38  8
37  39  8
18  4  5
23  7  6
27  8  6
$$$$
