513519
  -OEChem-10302200282D
 70 73  0     1  0  0  0  0  0999 V2000
   10.7078   -0.6774    0.0000 O   0  0  0  0  0  0  0  0  0  0  0  0
    9.1556   -2.7478    0.0000 O   0  0  0  0  0  0  0  0  0  0  0  0
    8.9282    0.4159    0.0000 O   0  0  0  0  0  0  0  0  0  0  0  0
   11.2836   -3.2001    0.0000 O   0  0  0  0  0  0  0  0  0  0  0  0
    7.1962    0.4159    0.0000 O   0  0  0  0  0  0  0  0  0  0  0  0
    8.9282    2.4159    0.0000 O   0  0  0  0  0  0  0  0  0  0  0  0
    7.1962   -0.5841    0.0000 O   0  0  0  0  0  0  0  0  0  0  0  0
    7.1962    3.4159    0.0000 O   0  0  0  0  0  0  0  0  0  0  0  0
   12.5525   -3.0385    0.0000 O   0  0  0  0  0  0  0  0  0  0  0  0
    5.4641   -0.5841    0.0000 O   0  0  0  0  0  0  0  0  0  0  0  0
   15.3550   -1.0024    0.0000 O   0  0  0  0  0  0  0  0  0  0  0  0
   12.3714   -1.3160    0.0000 N   0  0  0  0  0  0  0  0  0  0  0  0
    4.5981    0.9159    0.0000 N   0  0  0  0  0  0  0  0  0  0  0  0
    8.0622   -2.0841    0.0000 N   0  0  0  0  0  0  0  0  0  0  0  0
   13.9537   -2.0205    0.0000 N   0  0  0  0  0  0  0  0  0  0  0  0
    9.7942   -1.0841    0.0000 C   0  0  1  0  0  0  0  0  0  0  0  0
    9.8988   -2.0786    0.0000 C   0  0  2  0  0  0  0  0  0  0  0  0
   10.8769   -2.2865    0.0000 C   0  0  2  0  0  0  0  0  0  0  0  0
   11.3769   -1.4205    0.0000 C   0  0  1  0  0  0  0  0  0  0  0  0
    8.9282   -0.5841    0.0000 C   0  0  2  0  0  0  0  0  0  0  0  0
    3.7320    0.4159    0.0000 C   0  0  0  0  0  0  0  0  0  0  0  0
    2.8660    0.9159    0.0000 C   0  0  0  0  0  0  0  0  0  0  0  0
    3.7320   -0.5841    0.0000 C   0  0  0  0  0  0  0  0  0  0  0  0
    2.0000    0.4159    0.0000 C   0  0  0  0  0  0  0  0  0  0  0  0
    2.8660   -1.0841    0.0000 C   0  0  0  0  0  0  0  0  0  0  0  0
    2.0000   -0.5841    0.0000 C   0  0  0  0  0  0  0  0  0  0  0  0
    8.0622    0.9159    0.0000 C   0  0  1  0  0  0  0  0  0  0  0  0
    8.0622   -1.0841    0.0000 C   0  0  0  0  0  0  0  0  0  0  0  0
    8.0622    1.9159    0.0000 C   0  0  2  0  0  0  0  0  0  0  0  0
    7.1962    2.4159    0.0000 C   0  0  2  0  0  0  0  0  0  0  0  0
   12.9592   -2.1250    0.0000 C   0  0  0  0  0  0  0  0  0  0  0  0
   12.7782   -0.4024    0.0000 C   0  0  0  0  0  0  0  0  0  0  0  0
    6.3301    0.9159    0.0000 C   0  0  0  0  0  0  0  0  0  0  0  0
    9.3635   -3.7259    0.0000 C   0  0  0  0  0  0  0  0  0  0  0  0
    5.4641    0.4159    0.0000 C   0  0  0  0  0  0  0  0  0  0  0  0
    6.3301    1.9159    0.0000 C   0  0  0  0  0  0  0  0  0  0  0  0
   13.7727   -0.2979    0.0000 C   0  0  0  0  0  0  0  0  0  0  0  0
   14.3605   -1.1069    0.0000 C   0  0  0  0  0  0  0  0  0  0  0  0
   10.5304   -1.5091    0.0000 H   0  0  0  0  0  0  0  0  0  0  0  0
   10.0592   -2.6775    0.0000 H   0  0  0  0  0  0  0  0  0  0  0  0
   10.4867   -2.7684    0.0000 H   0  0  0  0  0  0  0  0  0  0  0  0
   11.7146   -1.9405    0.0000 H   0  0  0  0  0  0  0  0  0  0  0  0
    9.4651   -0.2741    0.0000 H   0  0  0  0  0  0  0  0  0  0  0  0
    3.7320    1.0359    0.0000 H   0  0  0  0  0  0  0  0  0  0  0  0
    3.2646    1.3908    0.0000 H   0  0  0  0  0  0  0  0  0  0  0  0
    2.4675    1.3908    0.0000 H   0  0  0  0  0  0  0  0  0  0  0  0
    3.9441   -1.1667    0.0000 H   0  0  0  0  0  0  0  0  0  0  0  0
    4.3426   -0.4764    0.0000 H   0  0  0  0  0  0  0  0  0  0  0  0
    1.7880    0.9985    0.0000 H   0  0  0  0  0  0  0  0  0  0  0  0
    1.3894    0.3082    0.0000 H   0  0  0  0  0  0  0  0  0  0  0  0
    2.4675   -1.5590    0.0000 H   0  0  0  0  0  0  0  0  0  0  0  0
    3.2646   -1.5590    0.0000 H   0  0  0  0  0  0  0  0  0  0  0  0
    1.3894   -0.4764    0.0000 H   0  0  0  0  0  0  0  0  0  0  0  0
    1.7880   -1.1667    0.0000 H   0  0  0  0  0  0  0  0  0  0  0  0
    8.0622    0.2959    0.0000 H   0  0  0  0  0  0  0  0  0  0  0  0
    8.0622    2.5359    0.0000 H   0  0  0  0  0  0  0  0  0  0  0  0
   10.9192   -3.7017    0.0000 H   0  0  0  0  0  0  0  0  0  0  0  0
    4.5981    1.5359    0.0000 H   0  0  0  0  0  0  0  0  0  0  0  0
    6.6592    2.7259    0.0000 H   0  0  0  0  0  0  0  0  0  0  0  0
   12.4137    0.0992    0.0000 H   0  0  0  0  0  0  0  0  0  0  0  0
    8.7571   -3.8548    0.0000 H   0  0  0  0  0  0  0  0  0  0  0  0
    9.4924   -4.3324    0.0000 H   0  0  0  0  0  0  0  0  0  0  0  0
    9.9700   -3.5970    0.0000 H   0  0  0  0  0  0  0  0  0  0  0  0
    5.7932    2.2259    0.0000 H   0  0  0  0  0  0  0  0  0  0  0  0
    7.5252   -2.3941    0.0000 H   0  0  0  0  0  0  0  0  0  0  0  0
    8.5991   -2.3941    0.0000 H   0  0  0  0  0  0  0  0  0  0  0  0
   14.3182   -2.5221    0.0000 H   0  0  0  0  0  0  0  0  0  0  0  0
   14.0249    0.2685    0.0000 H   0  0  0  0  0  0  0  0  0  0  0  0
    8.9282    3.0359    0.0000 H   0  0  0  0  0  0  0  0  0  0  0  0
    6.6592    3.7259    0.0000 H   0  0  0  0  0  0  0  0  0  0  0  0
  1 16  1  0  0  0  0
  1 19  1  0  0  0  0
 17  2  1  6  0  0  0
  2 34  1  0  0  0  0
 20  3  1  6  0  0  0
 27  3  1  1  0  0  0
 18  4  1  6  0  0  0
  4 57  1  0  0  0  0
  5 27  1  0  0  0  0
  5 33  1  0  0  0  0
 29  6  1  6  0  0  0
  6 69  1  0  0  0  0
  7 28  2  0  0  0  0
 30  8  1  6  0  0  0
  8 70  1  0  0  0  0
  9 31  2  0  0  0  0
 10 35  2  0  0  0  0
 11 38  2  0  0  0  0
 19 12  1  1  0  0  0
 12 31  1  0  0  0  0
 12 32  1  0  0  0  0
 13 21  1  0  0  0  0
 13 35  1  0  0  0  0
 13 58  1  0  0  0  0
 14 28  1  0  0  0  0
 14 65  1  0  0  0  0
 14 66  1  0  0  0  0
 15 31  1  0  0  0  0
 15 38  1  0  0  0  0
 15 67  1  0  0  0  0
 16 17  1  0  0  0  0
 16 20  1  0  0  0  0
 16 39  1  6  0  0  0
 17 18  1  0  0  0  0
 17 40  1  0  0  0  0
 18 19  1  0  0  0  0
 18 41  1  0  0  0  0
 19 42  1  0  0  0  0
 20 28  1  0  0  0  0
 20 43  1  0  0  0  0
 21 22  1  0  0  0  0
 21 23  1  0  0  0  0
 21 44  1  0  0  0  0
 22 24  1  0  0  0  0
 22 45  1  0  0  0  0
 22 46  1  0  0  0  0
 23 25  1  0  0  0  0
 23 47  1  0  0  0  0
 23 48  1  0  0  0  0
 24 26  1  0  0  0  0
 24 49  1  0  0  0  0
 24 50  1  0  0  0  0
 25 26  1  0  0  0  0
 25 51  1  0  0  0  0
 25 52  1  0  0  0  0
 26 53  1  0  0  0  0
 26 54  1  0  0  0  0
 27 29  1  0  0  0  0
 27 55  1  0  0  0  0
 29 30  1  0  0  0  0
 29 56  1  0  0  0  0
 30 36  1  0  0  0  0
 30 59  1  0  0  0  0
 32 37  2  0  0  0  0
 32 60  1  0  0  0  0
 33 35  1  0  0  0  0
 33 36  2  0  0  0  0
 34 61  1  0  0  0  0
 34 62  1  0  0  0  0
 34 63  1  0  0  0  0
 36 64  1  0  0  0  0
 37 38  1  0  0  0  0
 37 68  1  0  0  0  0
M  END
> <PUBCHEM_COMPOUND_CID>
513519
> <PUBCHEM_COMPOUND_CANONICALIZED>
1
> <PUBCHEM_CACTVS_COMPLEXITY>
998
> <PUBCHEM_CACTVS_HBOND_ACCEPTOR>
11
> <PUBCHEM_CACTVS_HBOND_DONOR>
6
> <PUBCHEM_CACTVS_ROTATABLE_BOND>
8
> <PUBCHEM_CACTVS_SUBSKEYS>
AAADcfB7vAAAAAAAAAAAAAAAAAAAASAAAAAwQIAAAAAAAAAAAAAAHgAQCAAACDzxgAcDCAPABgCIACFWUAKACAAgIgAICIFIAEiTFBYAgAQvUAAP9yKfEcP6fA5AAAAAAAAAAAAAAAAAAAAAAAAAAAAAAA==
> <PUBCHEM_IUPAC_OPENEYE_NAME>
(2S,3S,4S)-2-[(1R)-2-amino-1-[(2S,3S,4R,5R)-5-(2,4-dioxopyrimidin-1-yl)-4-hydroxy-3-methoxy-tetrahydrofuran-2-yl]-2-oxo-ethoxy]-N-cyclohexyl-3,4-dihydroxy-3,4-dihydro-2H-pyran-6-carboxamide
> <PUBCHEM_IUPAC_CAS_NAME>
(2S,3S,4S)-2-[(1R)-2-amino-1-[(2S,3S,4R,5R)-5-(2,4-dioxo-1-pyrimidinyl)-4-hydroxy-3-methoxy-2-oxolanyl]-2-oxoethoxy]-N-cyclohexyl-3,4-dihydroxy-3,4-dihydro-2H-pyran-6-carboxamide
> <PUBCHEM_IUPAC_NAME_MARKUP>
(2<I>S</I>,3<I>S</I>,4<I>S</I>)-2-[(1<I>R</I>)-2-amino-1-[(2<I>S</I>,3<I>S</I>,4<I>R</I>,5<I>R</I>)-5-(2,4-dioxopyrimidin-1-yl)-4-hydroxy-3-methoxyoxolan-2-yl]-2-oxoethoxy]-<I>N</I>-cyclohexyl-3,4-dihydroxy-3,4-dihydro-2<I>H</I>-pyran-6-carboxamide
> <PUBCHEM_IUPAC_NAME>
(2S,3S,4S)-2-[(1R)-2-amino-1-[(2S,3S,4R,5R)-5-(2,4-dioxopyrimidin-1-yl)-4-hydroxy-3-methoxyoxolan-2-yl]-2-oxoethoxy]-N-cyclohexyl-3,4-dihydroxy-3,4-dihydro-2H-pyran-6-carboxamide
> <PUBCHEM_IUPAC_SYSTEMATIC_NAME>
(2S,3S,4S)-2-[(1R)-2-azanyl-1-[(2S,3S,4R,5R)-5-[2,4-bis(oxidanylidene)pyrimidin-1-yl]-3-methoxy-4-oxidanyl-oxolan-2-yl]-2-oxidanylidene-ethoxy]-N-cyclohexyl-3,4-bis(oxidanyl)-3,4-dihydro-2H-pyran-6-carboxamide
> <PUBCHEM_IUPAC_TRADITIONAL_NAME>
(2S,3S,4S)-2-[(1R)-2-amino-1-[(2S,3S,4R,5R)-5-(2,4-diketopyrimidin-1-yl)-4-hydroxy-3-methoxy-tetrahydrofuran-2-yl]-2-keto-ethoxy]-N-cyclohexyl-3,4-dihydroxy-3,4-dihydro-2H-pyran-6-carboxamide
> <PUBCHEM_IUPAC_INCHI>
InChI=1S/C23H32N4O11/c1-35-16-15(31)21(27-8-7-13(29)26-23(27)34)37-17(16)18(19(24)32)38-22-14(30)11(28)9-12(36-22)20(33)25-10-5-3-2-4-6-10/h7-11,14-18,21-22,28,30-31H,2-6H2,1H3,(H2,24,32)(H,25,33)(H,26,29,34)/t11-,14-,15+,16-,17-,18+,21+,22+/m0/s1
> <PUBCHEM_IUPAC_INCHIKEY>
LZTUVQPZVBJUHD-KQSVRIFWSA-N
> <PUBCHEM_XLOGP3_AA>
-2.5
> <PUBCHEM_EXACT_MASS>
540.20675785
> <PUBCHEM_MOLECULAR_FORMULA>
C23H32N4O11
> <PUBCHEM_MOLECULAR_WEIGHT>
540.5
> <PUBCHEM_OPENEYE_CAN_SMILES>
COC1C(C(OC1C(C(=O)N)OC2C(C(C=C(O2)C(=O)NC3CCCCC3)O)O)N4C=CC(=O)NC4=O)O
> <PUBCHEM_OPENEYE_ISO_SMILES>
CO[C@H]1[C@H]([C@@H](O[C@@H]1[C@H](C(=O)N)O[C@@H]2[C@H]([C@H](C=C(O2)C(=O)NC3CCCCC3)O)O)N4C=CC(=O)NC4=O)O
> <PUBCHEM_CACTVS_TPSA>
219
> <PUBCHEM_MONOISOTOPIC_WEIGHT>
540.20675785
> <PUBCHEM_TOTAL_CHARGE>
0
> <PUBCHEM_HEAVY_ATOM_COUNT>
38
> <PUBCHEM_ATOM_DEF_STEREO_COUNT>
8
> <PUBCHEM_ATOM_UDEF_STEREO_COUNT>
0
> <PUBCHEM_BOND_DEF_STEREO_COUNT>
0
> <PUBCHEM_BOND_UDEF_STEREO_COUNT>
0
> <PUBCHEM_ISOTOPIC_ATOM_COUNT>
0
> <PUBCHEM_COMPONENT_COUNT>
1
> <PUBCHEM_CACTVS_TAUTO_COUNT>
-1
> <PUBCHEM_COORDINATE_TYPE>
1
5
255
> <PUBCHEM_BONDANNOTATIONS>
19  12  5
12  31  8
12  32  8
15  31  8
15  38  8
16  39  6
17  2  6
20  3  6
27  3  5
32  37  8
37  38  8
18  4  6
29  6  6
30  8  6
$$$$
