513586
  -OEChem-10302200282D
116123  0     1  0  0  0  0  0999 V2000
    9.7942    0.8625    0.0000 S   0  0  0  0  0  0  0  0  0  0  0  0
   12.4633    3.9529    0.0000 O   0  0  0  0  0  0  0  0  0  0  0  0
   11.9660    5.4836    0.0000 O   0  0  0  0  0  0  0  0  0  0  0  0
    9.8512    3.9503    0.0000 O   0  0  0  0  0  0  0  0  0  0  0  0
    9.7942    1.8626    0.0000 O   0  0  0  0  0  0  0  0  0  0  0  0
    7.1962   -1.6374    0.0000 O   0  0  0  0  0  0  0  0  0  0  0  0
    7.1962   -4.6374    0.0000 O   0  0  0  0  0  0  0  0  0  0  0  0
    5.4641   -3.6374    0.0000 O   0  0  0  0  0  0  0  0  0  0  0  0
    8.9282   -3.6374    0.0000 O   0  0  0  0  0  0  0  0  0  0  0  0
    8.9282   -1.6374    0.0000 O   0  0  0  0  0  0  0  0  0  0  0  0
    8.1712    4.6923    0.0000 O   0  0  0  0  0  0  0  0  0  0  0  0
    5.4641   -0.6375    0.0000 O   0  0  0  0  0  0  0  0  0  0  0  0
   10.7942    0.8625    0.0000 O   0  0  0  0  0  0  0  0  0  0  0  0
    8.7942    0.8625    0.0000 O   0  0  0  0  0  0  0  0  0  0  0  0
    7.8091    8.1374    0.0000 O   0  0  0  0  0  0  0  0  0  0  0  0
    8.0622   -0.1375    0.0000 O   0  0  0  0  0  0  0  0  0  0  0  0
    9.5725    5.7104    0.0000 N   0  0  0  0  0  0  0  0  0  0  0  0
    9.9792    6.6240    0.0000 N   0  0  0  0  0  0  0  0  0  0  0  0
    7.9902    6.4149    0.0000 N   0  0  0  0  0  0  0  0  0  0  0  0
    9.7942   -0.1375    0.0000 N   0  0  0  0  0  0  0  0  0  0  0  0
   11.4693    3.9503    0.0000 C   0  0  3  0  0  0  0  0  0  0  0  0
   11.1603    4.9014    0.0000 C   0  0  3  0  0  0  0  0  0  0  0  0
   10.6603    3.3626    0.0000 C   0  0  1  0  0  0  0  0  0  0  0  0
   10.1603    4.9014    0.0000 C   0  0  1  0  0  0  0  0  0  0  0  0
   12.7697    4.8986    0.0000 C   0  0  0  0  0  0  0  0  0  0  0  0
   10.6603    2.3626    0.0000 C   0  0  0  0  0  0  0  0  0  0  0  0
   13.7208    4.5896    0.0000 C   0  0  0  0  0  0  0  0  0  0  0  0
   13.3575    5.7076    0.0000 C   0  0  0  0  0  0  0  0  0  0  0  0
    7.1962   -3.6374    0.0000 C   0  0  1  0  0  0  0  0  0  0  0  0
    6.3301   -3.1374    0.0000 C   0  0  1  0  0  0  0  0  0  0  0  0
    8.5780    5.6059    0.0000 C   0  0  0  0  0  0  0  0  0  0  0  0
    8.0622   -3.1374    0.0000 C   0  0  2  0  0  0  0  0  0  0  0  0
    6.3301   -2.1374    0.0000 C   0  0  1  0  0  0  0  0  0  0  0  0
    8.0622   -2.1374    0.0000 C   0  0  3  0  0  0  0  0  0  0  0  0
    5.4641   -1.6374    0.0000 C   0  0  0  0  0  0  0  0  0  0  0  0
    9.3914    7.4330    0.0000 C   0  0  0  0  0  0  0  0  0  0  0  0
    8.3969    7.3284    0.0000 C   0  0  0  0  0  0  0  0  0  0  0  0
    8.9282   -0.6375    0.0000 C   0  0  0  0  0  0  0  0  0  0  0  0
    6.3301   -5.1374    0.0000 C   0  0  0  0  0  0  0  0  0  0  0  0
    4.5981   -3.1374    0.0000 C   0  0  0  0  0  0  0  0  0  0  0  0
    9.7942   -3.1374    0.0000 C   0  0  0  0  0  0  0  0  0  0  0  0
    6.3301   -6.1374    0.0000 C   0  0  0  0  0  0  0  0  0  0  0  0
    3.7320   -3.6374    0.0000 C   0  0  0  0  0  0  0  0  0  0  0  0
    4.5981   -0.1375    0.0000 C   0  0  0  0  0  0  0  0  0  0  0  0
   10.6603   -3.6374    0.0000 C   0  0  0  0  0  0  0  0  0  0  0  0
    4.5981    0.8625    0.0000 C   0  0  0  0  0  0  0  0  0  0  0  0
    5.4641   -6.6374    0.0000 C   0  0  0  0  0  0  0  0  0  0  0  0
    7.1962   -6.6374    0.0000 C   0  0  0  0  0  0  0  0  0  0  0  0
    2.8660   -3.1374    0.0000 C   0  0  0  0  0  0  0  0  0  0  0  0
    3.7320   -4.6374    0.0000 C   0  0  0  0  0  0  0  0  0  0  0  0
   11.5263   -3.1374    0.0000 C   0  0  0  0  0  0  0  0  0  0  0  0
   10.6603   -4.6374    0.0000 C   0  0  0  0  0  0  0  0  0  0  0  0
    5.4641   -7.6374    0.0000 C   0  0  0  0  0  0  0  0  0  0  0  0
    7.1962   -7.6374    0.0000 C   0  0  0  0  0  0  0  0  0  0  0  0
    2.0000   -3.6374    0.0000 C   0  0  0  0  0  0  0  0  0  0  0  0
    2.8660   -5.1374    0.0000 C   0  0  0  0  0  0  0  0  0  0  0  0
   12.3923   -3.6374    0.0000 C   0  0  0  0  0  0  0  0  0  0  0  0
   11.5263   -5.1374    0.0000 C   0  0  0  0  0  0  0  0  0  0  0  0
    5.4641    1.3626    0.0000 C   0  0  0  0  0  0  0  0  0  0  0  0
    3.7320    1.3626    0.0000 C   0  0  0  0  0  0  0  0  0  0  0  0
    6.3301   -8.1374    0.0000 C   0  0  0  0  0  0  0  0  0  0  0  0
    2.0000   -4.6374    0.0000 C   0  0  0  0  0  0  0  0  0  0  0  0
   12.3923   -4.6374    0.0000 C   0  0  0  0  0  0  0  0  0  0  0  0
    5.4641    2.3626    0.0000 C   0  0  0  0  0  0  0  0  0  0  0  0
    3.7320    2.3626    0.0000 C   0  0  0  0  0  0  0  0  0  0  0  0
    4.5981    2.8626    0.0000 C   0  0  0  0  0  0  0  0  0  0  0  0
   11.6616    3.3609    0.0000 H   0  0  0  0  0  0  0  0  0  0  0  0
   10.9694    5.4913    0.0000 H   0  0  0  0  0  0  0  0  0  0  0  0
   10.1078    3.0811    0.0000 H   0  0  0  0  0  0  0  0  0  0  0  0
    9.5479    4.8044    0.0000 H   0  0  0  0  0  0  0  0  0  0  0  0
   10.8723    1.7799    0.0000 H   0  0  0  0  0  0  0  0  0  0  0  0
   11.2708    2.4702    0.0000 H   0  0  0  0  0  0  0  0  0  0  0  0
   13.5292    3.9999    0.0000 H   0  0  0  0  0  0  0  0  0  0  0  0
   14.3104    4.3980    0.0000 H   0  0  0  0  0  0  0  0  0  0  0  0
   13.9124    5.1792    0.0000 H   0  0  0  0  0  0  0  0  0  0  0  0
   13.8591    5.3432    0.0000 H   0  0  0  0  0  0  0  0  0  0  0  0
   13.7219    6.2092    0.0000 H   0  0  0  0  0  0  0  0  0  0  0  0
   12.8559    6.0720    0.0000 H   0  0  0  0  0  0  0  0  0  0  0  0
    6.6592   -3.9474    0.0000 H   0  0  0  0  0  0  0  0  0  0  0  0
    6.3301   -3.7574    0.0000 H   0  0  0  0  0  0  0  0  0  0  0  0
    8.0622   -3.7574    0.0000 H   0  0  0  0  0  0  0  0  0  0  0  0
    6.3301   -1.5174    0.0000 H   0  0  0  0  0  0  0  0  0  0  0  0
    8.5991   -2.4474    0.0000 H   0  0  0  0  0  0  0  0  0  0  0  0
    4.8535   -1.5298    0.0000 H   0  0  0  0  0  0  0  0  0  0  0  0
    5.2520   -2.2201    0.0000 H   0  0  0  0  0  0  0  0  0  0  0  0
    7.3736    6.3501    0.0000 H   0  0  0  0  0  0  0  0  0  0  0  0
    9.6436    7.9994    0.0000 H   0  0  0  0  0  0  0  0  0  0  0  0
   10.3312   -0.4475    0.0000 H   0  0  0  0  0  0  0  0  0  0  0  0
    6.1181   -4.5548    0.0000 H   0  0  0  0  0  0  0  0  0  0  0  0
    5.7196   -5.2451    0.0000 H   0  0  0  0  0  0  0  0  0  0  0  0
    4.9966   -2.6625    0.0000 H   0  0  0  0  0  0  0  0  0  0  0  0
    4.1996   -2.6625    0.0000 H   0  0  0  0  0  0  0  0  0  0  0  0
   10.1928   -2.6625    0.0000 H   0  0  0  0  0  0  0  0  0  0  0  0
    9.3957   -2.6625    0.0000 H   0  0  0  0  0  0  0  0  0  0  0  0
    3.9875   -0.0298    0.0000 H   0  0  0  0  0  0  0  0  0  0  0  0
    4.3860   -0.7201    0.0000 H   0  0  0  0  0  0  0  0  0  0  0  0
    4.9272   -6.3275    0.0000 H   0  0  0  0  0  0  0  0  0  0  0  0
    7.7331   -6.3275    0.0000 H   0  0  0  0  0  0  0  0  0  0  0  0
    2.8660   -2.5175    0.0000 H   0  0  0  0  0  0  0  0  0  0  0  0
    4.2690   -4.9474    0.0000 H   0  0  0  0  0  0  0  0  0  0  0  0
   11.5263   -2.5175    0.0000 H   0  0  0  0  0  0  0  0  0  0  0  0
   10.1233   -4.9474    0.0000 H   0  0  0  0  0  0  0  0  0  0  0  0
    4.9272   -7.9474    0.0000 H   0  0  0  0  0  0  0  0  0  0  0  0
    7.7331   -7.9474    0.0000 H   0  0  0  0  0  0  0  0  0  0  0  0
    1.4631   -3.3275    0.0000 H   0  0  0  0  0  0  0  0  0  0  0  0
    2.8660   -5.7575    0.0000 H   0  0  0  0  0  0  0  0  0  0  0  0
   12.9292   -3.3274    0.0000 H   0  0  0  0  0  0  0  0  0  0  0  0
   11.5263   -5.7575    0.0000 H   0  0  0  0  0  0  0  0  0  0  0  0
    6.0010    1.0526    0.0000 H   0  0  0  0  0  0  0  0  0  0  0  0
    3.1951    1.0526    0.0000 H   0  0  0  0  0  0  0  0  0  0  0  0
    6.3301   -8.7574    0.0000 H   0  0  0  0  0  0  0  0  0  0  0  0
    1.4631   -4.9474    0.0000 H   0  0  0  0  0  0  0  0  0  0  0  0
   12.9292   -4.9474    0.0000 H   0  0  0  0  0  0  0  0  0  0  0  0
    6.0010    2.6726    0.0000 H   0  0  0  0  0  0  0  0  0  0  0  0
    3.1951    2.6726    0.0000 H   0  0  0  0  0  0  0  0  0  0  0  0
    4.5981    3.4826    0.0000 H   0  0  0  0  0  0  0  0  0  0  0  0
  1  5  1  0  0  0  0
  1 13  2  0  0  0  0
  1 14  2  0  0  0  0
  1 20  1  0  0  0  0
  2 21  1  0  0  0  0
  2 25  1  0  0  0  0
  3 22  1  0  0  0  0
  3 25  1  0  0  0  0
  4 23  1  0  0  0  0
  4 24  1  0  0  0  0
  5 26  1  0  0  0  0
  6 33  1  0  0  0  0
  6 34  1  0  0  0  0
 29  7  1  1  0  0  0
  7 39  1  0  0  0  0
 30  8  1  6  0  0  0
  8 40  1  0  0  0  0
 32  9  1  6  0  0  0
  9 41  1  0  0  0  0
 10 34  1  0  0  0  0
 10 38  1  0  0  0  0
 11 31  2  0  0  0  0
 12 35  1  0  0  0  0
 12 44  1  0  0  0  0
 15 37  2  0  0  0  0
 16 38  2  0  0  0  0
 17 18  1  0  0  0  0
 24 17  1  1  0  0  0
 17 31  1  0  0  0  0
 18 36  2  0  0  0  0
 19 31  1  0  0  0  0
 19 37  1  0  0  0  0
 19 86  1  0  0  0  0
 20 38  1  0  0  0  0
 20 88  1  0  0  0  0
 21 22  1  0  0  0  0
 21 23  1  0  0  0  0
 21 67  1  0  0  0  0
 22 24  1  0  0  0  0
 22 68  1  0  0  0  0
 23 26  1  1  0  0  0
 23 69  1  0  0  0  0
 24 70  1  0  0  0  0
 25 27  1  0  0  0  0
 25 28  1  0  0  0  0
 26 71  1  0  0  0  0
 26 72  1  0  0  0  0
 27 73  1  0  0  0  0
 27 74  1  0  0  0  0
 27 75  1  0  0  0  0
 28 76  1  0  0  0  0
 28 77  1  0  0  0  0
 28 78  1  0  0  0  0
 29 30  1  0  0  0  0
 29 32  1  0  0  0  0
 29 79  1  0  0  0  0
 30 33  1  0  0  0  0
 30 80  1  0  0  0  0
 32 34  1  0  0  0  0
 32 81  1  0  0  0  0
 33 35  1  1  0  0  0
 33 82  1  0  0  0  0
 34 83  1  0  0  0  0
 35 84  1  0  0  0  0
 35 85  1  0  0  0  0
 36 37  1  0  0  0  0
 36 87  1  0  0  0  0
 39 42  1  0  0  0  0
 39 89  1  0  0  0  0
 39 90  1  0  0  0  0
 40 43  1  0  0  0  0
 40 91  1  0  0  0  0
 40 92  1  0  0  0  0
 41 45  1  0  0  0  0
 41 93  1  0  0  0  0
 41 94  1  0  0  0  0
 42 47  2  0  0  0  0
 42 48  1  0  0  0  0
 43 49  2  0  0  0  0
 43 50  1  0  0  0  0
 44 46  1  0  0  0  0
 44 95  1  0  0  0  0
 44 96  1  0  0  0  0
 45 51  2  0  0  0  0
 45 52  1  0  0  0  0
 46 59  2  0  0  0  0
 46 60  1  0  0  0  0
 47 53  1  0  0  0  0
 47 97  1  0  0  0  0
 48 54  2  0  0  0  0
 48 98  1  0  0  0  0
 49 55  1  0  0  0  0
 49 99  1  0  0  0  0
 50 56  2  0  0  0  0
 50100  1  0  0  0  0
 51 57  1  0  0  0  0
 51101  1  0  0  0  0
 52 58  2  0  0  0  0
 52102  1  0  0  0  0
 53 61  2  0  0  0  0
 53103  1  0  0  0  0
 54 61  1  0  0  0  0
 54104  1  0  0  0  0
 55 62  2  0  0  0  0
 55105  1  0  0  0  0
 56 62  1  0  0  0  0
 56106  1  0  0  0  0
 57 63  2  0  0  0  0
 57107  1  0  0  0  0
 58 63  1  0  0  0  0
 58108  1  0  0  0  0
 59 64  1  0  0  0  0
 59109  1  0  0  0  0
 60 65  2  0  0  0  0
 60110  1  0  0  0  0
 61111  1  0  0  0  0
 62112  1  0  0  0  0
 63113  1  0  0  0  0
 64 66  2  0  0  0  0
 64114  1  0  0  0  0
 65 66  1  0  0  0  0
 65115  1  0  0  0  0
 66116  1  0  0  0  0
M  END
> <PUBCHEM_COMPOUND_CID>
513586
> <PUBCHEM_COMPOUND_CANONICALIZED>
1
> <PUBCHEM_CACTVS_COMPLEXITY>
1730
> <PUBCHEM_CACTVS_HBOND_ACCEPTOR>
16
> <PUBCHEM_CACTVS_HBOND_DONOR>
2
> <PUBCHEM_CACTVS_ROTATABLE_BOND>
20
> <PUBCHEM_CACTVS_SUBSKEYS>
AAADcfB/vABAAAAAAAAAAAAAAAAAASJAAAA0YMGCAAASAAABVAAAHgAYQAAADBTxmAczCILABACoAjFzGDASAAAgAAAeiAAICImbJiKAsRivMAA/3yMeqAfw8C4OAAAAAAAAAAAAAAAAAAAAAAAAAAAAAA==
> <PUBCHEM_IUPAC_OPENEYE_NAME>
[(3R,4S,5R,6R)-3,4,5-tribenzyloxy-6-(benzyloxymethyl)tetrahydropyran-2-yl] N-[[(4R,6R)-4-(3,5-dioxo-1,2,4-triazin-2-yl)-2,2-dimethyl-3a,4,6,6a-tetrahydrofuro[3,4-d][1,3]dioxol-6-yl]methoxysulfonyl]carbamate
> <PUBCHEM_IUPAC_CAS_NAME>
N-[[(4R,6R)-4-(3,5-dioxo-1,2,4-triazin-2-yl)-2,2-dimethyl-3a,4,6,6a-tetrahydrofuro[3,4-d][1,3]dioxol-6-yl]methoxysulfonyl]carbamic acid [(3R,4S,5R,6R)-3,4,5-tris(phenylmethoxy)-6-(phenylmethoxymethyl)-2-oxanyl] ester
> <PUBCHEM_IUPAC_NAME_MARKUP>
[(3<I>R</I>,4<I>S</I>,5<I>R</I>,6<I>R</I>)-3,4,5-tris(phenylmethoxy)-6-(phenylmethoxymethyl)oxan-2-yl] <I>N</I>-[[(4<I>R</I>,6<I>R</I>)-4-(3,5-dioxo-1,2,4-triazin-2-yl)-2,2-dimethyl-3<I>a</I>,4,6,6<I>a</I>-tetrahydrofuro[3,4-d][1,3]dioxol-6-yl]methoxysulfonyl]carbamate
> <PUBCHEM_IUPAC_NAME>
[(3R,4S,5R,6R)-3,4,5-tris(phenylmethoxy)-6-(phenylmethoxymethyl)oxan-2-yl] N-[[(4R,6R)-4-(3,5-dioxo-1,2,4-triazin-2-yl)-2,2-dimethyl-3a,4,6,6a-tetrahydrofuro[3,4-d][1,3]dioxol-6-yl]methoxysulfonyl]carbamate
> <PUBCHEM_IUPAC_SYSTEMATIC_NAME>
[(3R,4S,5R,6R)-3,4,5-tris(phenylmethoxy)-6-(phenylmethoxymethyl)oxan-2-yl] N-[[(4R,6R)-4-[3,5-bis(oxidanylidene)-1,2,4-triazin-2-yl]-2,2-dimethyl-3a,4,6,6a-tetrahydrofuro[3,4-d][1,3]dioxol-6-yl]methoxysulfonyl]carbamate
> <PUBCHEM_IUPAC_TRADITIONAL_NAME>
N-[[(4R,6R)-4-(3,5-diketo-1,2,4-triazin-2-yl)-2,2-dimethyl-3a,4,6,6a-tetrahydrofuro[3,4-d][1,3]dioxol-6-yl]methoxysulfonyl]carbamic acid [(3R,4S,5R,6R)-3,4,5-tribenzoxy-6-(benzoxymethyl)tetrahydropyran-2-yl] ester
> <PUBCHEM_IUPAC_INCHI>
InChI=1S/C46H50N4O15S/c1-46(2)64-38-35(61-42(40(38)65-46)50-44(52)48-36(51)23-47-50)29-60-66(54,55)49-45(53)63-43-41(59-27-33-21-13-6-14-22-33)39(58-26-32-19-11-5-12-20-32)37(57-25-31-17-9-4-10-18-31)34(62-43)28-56-24-30-15-7-3-8-16-30/h3-23,34-35,37-43H,24-29H2,1-2H3,(H,49,53)(H,48,51,52)/t34-,35-,37-,38?,39+,40?,41-,42-,43?/m1/s1
> <PUBCHEM_IUPAC_INCHIKEY>
AXBALKNWHWNERO-OKOXCWRSSA-N
> <PUBCHEM_XLOGP3_AA>
4.2
> <PUBCHEM_EXACT_MASS>
930.29933807
> <PUBCHEM_MOLECULAR_FORMULA>
C46H50N4O15S
> <PUBCHEM_MOLECULAR_WEIGHT>
931.0
> <PUBCHEM_OPENEYE_CAN_SMILES>
CC1(OC2C(OC(C2O1)N3C(=O)NC(=O)C=N3)COS(=O)(=O)NC(=O)OC4C(C(C(C(O4)COCC5=CC=CC=C5)OCC6=CC=CC=C6)OCC7=CC=CC=C7)OCC8=CC=CC=C8)C
> <PUBCHEM_OPENEYE_ISO_SMILES>
CC1(OC2[C@H](O[C@H](C2O1)N3C(=O)NC(=O)C=N3)COS(=O)(=O)NC(=O)OC4[C@@H]([C@H]([C@@H]([C@H](O4)COCC5=CC=CC=C5)OCC6=CC=CC=C6)OCC7=CC=CC=C7)OCC8=CC=CC=C8)C
> <PUBCHEM_CACTVS_TPSA>
226
> <PUBCHEM_MONOISOTOPIC_WEIGHT>
930.29933807
> <PUBCHEM_TOTAL_CHARGE>
0
> <PUBCHEM_HEAVY_ATOM_COUNT>
66
> <PUBCHEM_ATOM_DEF_STEREO_COUNT>
6
> <PUBCHEM_ATOM_UDEF_STEREO_COUNT>
3
> <PUBCHEM_BOND_DEF_STEREO_COUNT>
0
> <PUBCHEM_BOND_UDEF_STEREO_COUNT>
0
> <PUBCHEM_ISOTOPIC_ATOM_COUNT>
0
> <PUBCHEM_COMPONENT_COUNT>
1
> <PUBCHEM_CACTVS_TAUTO_COUNT>
-1
> <PUBCHEM_COORDINATE_TYPE>
1
5
255
> <PUBCHEM_BONDANNOTATIONS>
34  10  3
17  18  8
24  17  5
17  31  8
18  36  8
19  31  8
19  37  8
21  2  3
23  26  5
22  3  3
33  35  5
36  37  8
42  47  8
42  48  8
43  49  8
43  50  8
45  51  8
45  52  8
46  59  8
46  60  8
47  53  8
48  54  8
49  55  8
50  56  8
51  57  8
52  58  8
53  61  8
54  61  8
55  62  8
56  62  8
57  63  8
58  63  8
59  64  8
60  65  8
64  66  8
65  66  8
29  7  5
30  8  6
32  9  6
$$$$
