513540
  -OEChem-10302200282D
 71 74  0     1  0  0  0  0  0999 V2000
   13.8428   -0.6774    0.0000 O   0  0  0  0  0  0  0  0  0  0  0  0
   12.2906   -2.7478    0.0000 O   0  0  0  0  0  0  0  0  0  0  0  0
   12.0632    0.4159    0.0000 O   0  0  0  0  0  0  0  0  0  0  0  0
   14.4187   -3.2001    0.0000 O   0  0  0  0  0  0  0  0  0  0  0  0
   10.3312    0.4159    0.0000 O   0  0  0  0  0  0  0  0  0  0  0  0
   12.0632    2.4159    0.0000 O   0  0  0  0  0  0  0  0  0  0  0  0
   10.3312   -0.5841    0.0000 O   0  0  0  0  0  0  0  0  0  0  0  0
   10.3312    3.4159    0.0000 O   0  0  0  0  0  0  0  0  0  0  0  0
   15.6875   -3.0385    0.0000 O   0  0  0  0  0  0  0  0  0  0  0  0
   18.4900   -1.0024    0.0000 O   0  0  0  0  0  0  0  0  0  0  0  0
    8.5991   -0.5841    0.0000 O   0  0  0  0  0  0  0  0  0  0  0  0
    2.5369   -1.0841    0.0000 O   0  0  0  0  0  0  0  0  0  0  0  0
   15.5064   -1.3160    0.0000 N   0  0  0  0  0  0  0  0  0  0  0  0
   17.0887   -2.0205    0.0000 N   0  0  0  0  0  0  0  0  0  0  0  0
   11.1972   -2.0841    0.0000 N   0  0  0  0  0  0  0  0  0  0  0  0
    7.7331    0.9159    0.0000 N   0  0  0  0  0  0  0  0  0  0  0  0
   12.9292   -1.0841    0.0000 C   0  0  1  0  0  0  0  0  0  0  0  0
   13.0338   -2.0786    0.0000 C   0  0  2  0  0  0  0  0  0  0  0  0
   14.0119   -2.2865    0.0000 C   0  0  2  0  0  0  0  0  0  0  0  0
   14.5119   -1.4205    0.0000 C   0  0  1  0  0  0  0  0  0  0  0  0
   12.0632   -0.5841    0.0000 C   0  0  2  0  0  0  0  0  0  0  0  0
   11.1972    0.9159    0.0000 C   0  0  1  0  0  0  0  0  0  0  0  0
   11.1972   -1.0841    0.0000 C   0  0  0  0  0  0  0  0  0  0  0  0
   11.1972    1.9159    0.0000 C   0  0  2  0  0  0  0  0  0  0  0  0
   16.0942   -2.1250    0.0000 C   0  0  0  0  0  0  0  0  0  0  0  0
   15.9132   -0.4024    0.0000 C   0  0  0  0  0  0  0  0  0  0  0  0
   12.4985   -3.7259    0.0000 C   0  0  0  0  0  0  0  0  0  0  0  0
   10.3312    2.4159    0.0000 C   0  0  2  0  0  0  0  0  0  0  0  0
   16.9077   -0.2979    0.0000 C   0  0  0  0  0  0  0  0  0  0  0  0
    9.4651    1.9159    0.0000 C   0  0  0  0  0  0  0  0  0  0  0  0
    9.4651    0.9159    0.0000 C   0  0  0  0  0  0  0  0  0  0  0  0
   17.4955   -1.1069    0.0000 C   0  0  0  0  0  0  0  0  0  0  0  0
    8.5991    0.4159    0.0000 C   0  0  0  0  0  0  0  0  0  0  0  0
    6.8671    0.4159    0.0000 C   0  0  0  0  0  0  0  0  0  0  0  0
    6.0010    0.9159    0.0000 C   0  0  0  0  0  0  0  0  0  0  0  0
    5.1350    0.4159    0.0000 C   0  0  0  0  0  0  0  0  0  0  0  0
    5.1350   -0.5841    0.0000 C   0  0  0  0  0  0  0  0  0  0  0  0
    4.2690    0.9159    0.0000 C   0  0  0  0  0  0  0  0  0  0  0  0
    4.2690   -1.0841    0.0000 C   0  0  0  0  0  0  0  0  0  0  0  0
    3.4030    0.4159    0.0000 C   0  0  0  0  0  0  0  0  0  0  0  0
    3.4030   -0.5841    0.0000 C   0  0  0  0  0  0  0  0  0  0  0  0
   13.6654   -1.5091    0.0000 H   0  0  0  0  0  0  0  0  0  0  0  0
   12.4549   -1.8564    0.0000 H   0  0  0  0  0  0  0  0  0  0  0  0
   14.6311   -2.3190    0.0000 H   0  0  0  0  0  0  0  0  0  0  0  0
   14.7341   -0.8417    0.0000 H   0  0  0  0  0  0  0  0  0  0  0  0
   12.6002   -0.2741    0.0000 H   0  0  0  0  0  0  0  0  0  0  0  0
   11.1972    0.2959    0.0000 H   0  0  0  0  0  0  0  0  0  0  0  0
   14.0542   -3.7017    0.0000 H   0  0  0  0  0  0  0  0  0  0  0  0
   11.1972    2.5359    0.0000 H   0  0  0  0  0  0  0  0  0  0  0  0
   15.5487    0.0992    0.0000 H   0  0  0  0  0  0  0  0  0  0  0  0
    9.7942    2.7259    0.0000 H   0  0  0  0  0  0  0  0  0  0  0  0
   11.8921   -3.8548    0.0000 H   0  0  0  0  0  0  0  0  0  0  0  0
   12.6274   -4.3324    0.0000 H   0  0  0  0  0  0  0  0  0  0  0  0
   13.1050   -3.5970    0.0000 H   0  0  0  0  0  0  0  0  0  0  0  0
    8.9282    2.2259    0.0000 H   0  0  0  0  0  0  0  0  0  0  0  0
   10.6603   -2.3941    0.0000 H   0  0  0  0  0  0  0  0  0  0  0  0
   11.7341   -2.3941    0.0000 H   0  0  0  0  0  0  0  0  0  0  0  0
   17.4532   -2.5221    0.0000 H   0  0  0  0  0  0  0  0  0  0  0  0
   17.1599    0.2685    0.0000 H   0  0  0  0  0  0  0  0  0  0  0  0
   12.0632    3.0359    0.0000 H   0  0  0  0  0  0  0  0  0  0  0  0
    9.7942    3.7259    0.0000 H   0  0  0  0  0  0  0  0  0  0  0  0
    7.7331    1.5359    0.0000 H   0  0  0  0  0  0  0  0  0  0  0  0
    6.4685   -0.0590    0.0000 H   0  0  0  0  0  0  0  0  0  0  0  0
    7.2656   -0.0590    0.0000 H   0  0  0  0  0  0  0  0  0  0  0  0
    6.3996    1.3908    0.0000 H   0  0  0  0  0  0  0  0  0  0  0  0
    5.6025    1.3908    0.0000 H   0  0  0  0  0  0  0  0  0  0  0  0
    5.6720   -0.8941    0.0000 H   0  0  0  0  0  0  0  0  0  0  0  0
    4.2690    1.5359    0.0000 H   0  0  0  0  0  0  0  0  0  0  0  0
    4.2690   -1.7041    0.0000 H   0  0  0  0  0  0  0  0  0  0  0  0
    2.8660    0.7259    0.0000 H   0  0  0  0  0  0  0  0  0  0  0  0
    2.0000   -0.7741    0.0000 H   0  0  0  0  0  0  0  0  0  0  0  0
  1 17  1  0  0  0  0
  1 20  1  0  0  0  0
 18  2  1  6  0  0  0
  2 27  1  0  0  0  0
 21  3  1  6  0  0  0
 22  3  1  1  0  0  0
 19  4  1  6  0  0  0
  4 48  1  0  0  0  0
  5 22  1  0  0  0  0
  5 31  1  0  0  0  0
 24  6  1  6  0  0  0
  6 60  1  0  0  0  0
  7 23  2  0  0  0  0
 28  8  1  6  0  0  0
  8 61  1  0  0  0  0
  9 25  2  0  0  0  0
 10 32  2  0  0  0  0
 11 33  2  0  0  0  0
 12 41  1  0  0  0  0
 12 71  1  0  0  0  0
 20 13  1  1  0  0  0
 13 25  1  0  0  0  0
 13 26  1  0  0  0  0
 14 25  1  0  0  0  0
 14 32  1  0  0  0  0
 14 58  1  0  0  0  0
 15 23  1  0  0  0  0
 15 56  1  0  0  0  0
 15 57  1  0  0  0  0
 16 33  1  0  0  0  0
 16 34  1  0  0  0  0
 16 62  1  0  0  0  0
 17 18  1  0  0  0  0
 17 21  1  0  0  0  0
 17 42  1  6  0  0  0
 18 19  1  0  0  0  0
 18 43  1  0  0  0  0
 19 20  1  0  0  0  0
 19 44  1  0  0  0  0
 20 45  1  0  0  0  0
 21 23  1  0  0  0  0
 21 46  1  0  0  0  0
 22 24  1  0  0  0  0
 22 47  1  0  0  0  0
 24 28  1  0  0  0  0
 24 49  1  0  0  0  0
 26 29  2  0  0  0  0
 26 50  1  0  0  0  0
 27 52  1  0  0  0  0
 27 53  1  0  0  0  0
 27 54  1  0  0  0  0
 28 30  1  0  0  0  0
 28 51  1  0  0  0  0
 29 32  1  0  0  0  0
 29 59  1  0  0  0  0
 30 31  2  0  0  0  0
 30 55  1  0  0  0  0
 31 33  1  0  0  0  0
 34 35  1  0  0  0  0
 34 63  1  0  0  0  0
 34 64  1  0  0  0  0
 35 36  1  0  0  0  0
 35 65  1  0  0  0  0
 35 66  1  0  0  0  0
 36 37  2  0  0  0  0
 36 38  1  0  0  0  0
 37 39  1  0  0  0  0
 37 67  1  0  0  0  0
 38 40  2  0  0  0  0
 38 68  1  0  0  0  0
 39 41  2  0  0  0  0
 39 69  1  0  0  0  0
 40 41  1  0  0  0  0
 40 70  1  0  0  0  0
M  END
> <PUBCHEM_COMPOUND_CID>
513540
> <PUBCHEM_COMPOUND_CANONICALIZED>
1
> <PUBCHEM_CACTVS_COMPLEXITY>
1060
> <PUBCHEM_CACTVS_HBOND_ACCEPTOR>
12
> <PUBCHEM_CACTVS_HBOND_DONOR>
7
> <PUBCHEM_CACTVS_ROTATABLE_BOND>
10
> <PUBCHEM_CACTVS_SUBSKEYS>
AAADceB7vAAAAAAAAAAAAAAAAAAAASAAAAAwQIAAAAAAAAABAAAAHgAQCAAADBTxmAczDoPABgCIAiFWUAKCCAAgIgAIiIFOCMibNjaCkRevcAAv9zOfmcf6/I5OIAAAAAAAAABAAAAAAAAAAAAAAAAAAA==
> <PUBCHEM_IUPAC_OPENEYE_NAME>
(2S,3S,4S)-2-[(1R)-2-amino-1-[(2S,3S,4R,5R)-5-(2,4-dioxopyrimidin-1-yl)-4-hydroxy-3-methoxy-tetrahydrofuran-2-yl]-2-oxo-ethoxy]-3,4-dihydroxy-N-[2-(4-hydroxyphenyl)ethyl]-3,4-dihydro-2H-pyran-6-carboxamide
> <PUBCHEM_IUPAC_CAS_NAME>
(2S,3S,4S)-2-[(1R)-2-amino-1-[(2S,3S,4R,5R)-5-(2,4-dioxo-1-pyrimidinyl)-4-hydroxy-3-methoxy-2-oxolanyl]-2-oxoethoxy]-3,4-dihydroxy-N-[2-(4-hydroxyphenyl)ethyl]-3,4-dihydro-2H-pyran-6-carboxamide
> <PUBCHEM_IUPAC_NAME_MARKUP>
(2<I>S</I>,3<I>S</I>,4<I>S</I>)-2-[(1<I>R</I>)-2-amino-1-[(2<I>S</I>,3<I>S</I>,4<I>R</I>,5<I>R</I>)-5-(2,4-dioxopyrimidin-1-yl)-4-hydroxy-3-methoxyoxolan-2-yl]-2-oxoethoxy]-3,4-dihydroxy-<I>N</I>-[2-(4-hydroxyphenyl)ethyl]-3,4-dihydro-2<I>H</I>-pyran-6-carboxamide
> <PUBCHEM_IUPAC_NAME>
(2S,3S,4S)-2-[(1R)-2-amino-1-[(2S,3S,4R,5R)-5-(2,4-dioxopyrimidin-1-yl)-4-hydroxy-3-methoxyoxolan-2-yl]-2-oxoethoxy]-3,4-dihydroxy-N-[2-(4-hydroxyphenyl)ethyl]-3,4-dihydro-2H-pyran-6-carboxamide
> <PUBCHEM_IUPAC_SYSTEMATIC_NAME>
(2S,3S,4S)-2-[(1R)-2-azanyl-1-[(2S,3S,4R,5R)-5-[2,4-bis(oxidanylidene)pyrimidin-1-yl]-3-methoxy-4-oxidanyl-oxolan-2-yl]-2-oxidanylidene-ethoxy]-N-[2-(4-hydroxyphenyl)ethyl]-3,4-bis(oxidanyl)-3,4-dihydro-2H-pyran-6-carboxamide
> <PUBCHEM_IUPAC_TRADITIONAL_NAME>
(2S,3S,4S)-2-[(1R)-2-amino-1-[(2S,3S,4R,5R)-5-(2,4-diketopyrimidin-1-yl)-4-hydroxy-3-methoxy-tetrahydrofuran-2-yl]-2-keto-ethoxy]-3,4-dihydroxy-N-[2-(4-hydroxyphenyl)ethyl]-3,4-dihydro-2H-pyran-6-carboxamide
> <PUBCHEM_IUPAC_INCHI>
InChI=1S/C25H30N4O12/c1-38-18-17(34)23(29-9-7-15(32)28-25(29)37)40-19(18)20(21(26)35)41-24-16(33)13(31)10-14(39-24)22(36)27-8-6-11-2-4-12(30)5-3-11/h2-5,7,9-10,13,16-20,23-24,30-31,33-34H,6,8H2,1H3,(H2,26,35)(H,27,36)(H,28,32,37)/t13-,16-,17+,18-,19-,20+,23+,24+/m0/s1
> <PUBCHEM_IUPAC_INCHIKEY>
LAHZOVAJJVXNQA-YEHZMZNXSA-N
> <PUBCHEM_XLOGP3_AA>
-2.7
> <PUBCHEM_EXACT_MASS>
578.18602241
> <PUBCHEM_MOLECULAR_FORMULA>
C25H30N4O12
> <PUBCHEM_MOLECULAR_WEIGHT>
578.5
> <PUBCHEM_OPENEYE_CAN_SMILES>
COC1C(C(OC1C(C(=O)N)OC2C(C(C=C(O2)C(=O)NCCC3=CC=C(C=C3)O)O)O)N4C=CC(=O)NC4=O)O
> <PUBCHEM_OPENEYE_ISO_SMILES>
CO[C@H]1[C@H]([C@@H](O[C@@H]1[C@H](C(=O)N)O[C@@H]2[C@H]([C@H](C=C(O2)C(=O)NCCC3=CC=C(C=C3)O)O)O)N4C=CC(=O)NC4=O)O
> <PUBCHEM_CACTVS_TPSA>
239
> <PUBCHEM_MONOISOTOPIC_WEIGHT>
578.18602241
> <PUBCHEM_TOTAL_CHARGE>
0
> <PUBCHEM_HEAVY_ATOM_COUNT>
41
> <PUBCHEM_ATOM_DEF_STEREO_COUNT>
8
> <PUBCHEM_ATOM_UDEF_STEREO_COUNT>
0
> <PUBCHEM_BOND_DEF_STEREO_COUNT>
0
> <PUBCHEM_BOND_UDEF_STEREO_COUNT>
0
> <PUBCHEM_ISOTOPIC_ATOM_COUNT>
0
> <PUBCHEM_COMPONENT_COUNT>
1
> <PUBCHEM_CACTVS_TAUTO_COUNT>
-1
> <PUBCHEM_COORDINATE_TYPE>
1
5
255
> <PUBCHEM_BONDANNOTATIONS>
20  13  5
13  25  8
13  26  8
14  25  8
14  32  8
17  42  6
18  2  6
26  29  8
29  32  8
21  3  6
22  3  5
36  37  8
36  38  8
37  39  8
38  40  8
39  41  8
19  4  6
40  41  8
24  6  6
28  8  6
$$$$
