513569
  -OEChem-10302200282D
 78 82  0     1  0  0  0  0  0999 V2000
   10.7648   -1.8162    0.0000 O   0  0  0  0  0  0  0  0  0  0  0  0
   11.7817    0.5632    0.0000 O   0  0  0  0  0  0  0  0  0  0  0  0
    9.7942    0.6783    0.0000 O   0  0  0  0  0  0  0  0  0  0  0  0
   13.2375   -1.0536    0.0000 O   0  0  0  0  0  0  0  0  0  0  0  0
    8.0622    0.6783    0.0000 O   0  0  0  0  0  0  0  0  0  0  0  0
    8.0622   -0.3217    0.0000 O   0  0  0  0  0  0  0  0  0  0  0  0
    9.7942    2.6783    0.0000 O   0  0  0  0  0  0  0  0  0  0  0  0
   10.5674   -3.6422    0.0000 O   0  0  0  0  0  0  0  0  0  0  0  0
    8.0622    3.6783    0.0000 O   0  0  0  0  0  0  0  0  0  0  0  0
   13.3699   -5.6783    0.0000 O   0  0  0  0  0  0  0  0  0  0  0  0
    6.3301   -0.3217    0.0000 O   0  0  0  0  0  0  0  0  0  0  0  0
    3.7320    2.1783    0.0000 O   0  0  0  0  0  0  0  0  0  0  0  0
   12.1497   -2.9377    0.0000 N   0  0  0  0  0  0  0  0  0  0  0  0
   11.9686   -4.6602    0.0000 N   0  0  0  0  0  0  0  0  0  0  0  0
    8.9282   -1.8217    0.0000 N   0  0  0  0  0  0  0  0  0  0  0  0
    5.4641    1.1783    0.0000 N   0  0  0  0  0  0  0  0  0  0  0  0
   10.6603   -0.8217    0.0000 C   0  0  1  0  0  0  0  0  0  0  0  0
   11.5738   -0.4150    0.0000 C   0  0  2  0  0  0  0  0  0  0  0  0
   12.2429   -1.1581    0.0000 C   0  0  2  0  0  0  0  0  0  0  0  0
   11.7429   -2.0241    0.0000 C   0  0  1  0  0  0  0  0  0  0  0  0
    9.7942   -0.3217    0.0000 C   0  0  2  0  0  0  0  0  0  0  0  0
    8.9282    1.1783    0.0000 C   0  0  1  0  0  0  0  0  0  0  0  0
    8.9282   -0.8217    0.0000 C   0  0  0  0  0  0  0  0  0  0  0  0
    8.9282    2.1783    0.0000 C   0  0  2  0  0  0  0  0  0  0  0  0
   11.5619   -3.7467    0.0000 C   0  0  0  0  0  0  0  0  0  0  0  0
   13.1442   -3.0422    0.0000 C   0  0  0  0  0  0  0  0  0  0  0  0
   12.7328    0.8722    0.0000 C   0  0  0  0  0  0  0  0  0  0  0  0
    8.0622    2.6783    0.0000 C   0  0  2  0  0  0  0  0  0  0  0  0
   13.5509   -3.9558    0.0000 C   0  0  0  0  0  0  0  0  0  0  0  0
    7.1962    2.1783    0.0000 C   0  0  0  0  0  0  0  0  0  0  0  0
    7.1962    1.1783    0.0000 C   0  0  0  0  0  0  0  0  0  0  0  0
   12.9631   -4.7648    0.0000 C   0  0  0  0  0  0  0  0  0  0  0  0
    6.3301    0.6783    0.0000 C   0  0  0  0  0  0  0  0  0  0  0  0
    4.5981    0.6783    0.0000 C   0  0  0  0  0  0  0  0  0  0  0  0
    3.7320    1.1783    0.0000 C   0  0  0  0  0  0  0  0  0  0  0  0
    4.5981   -0.3217    0.0000 C   0  0  0  0  0  0  0  0  0  0  0  0
    2.8660    0.6783    0.0000 C   0  0  0  0  0  0  0  0  0  0  0  0
    3.7320   -0.8217    0.0000 C   0  0  0  0  0  0  0  0  0  0  0  0
    2.8660   -0.3217    0.0000 C   0  0  0  0  0  0  0  0  0  0  0  0
    2.8660    2.6783    0.0000 C   0  0  0  0  0  0  0  0  0  0  0  0
    2.8660    3.6783    0.0000 C   0  0  0  0  0  0  0  0  0  0  0  0
    2.0000    4.1783    0.0000 C   0  0  0  0  0  0  0  0  0  0  0  0
    3.7320    4.1783    0.0000 C   0  0  0  0  0  0  0  0  0  0  0  0
    2.0000    5.1783    0.0000 C   0  0  0  0  0  0  0  0  0  0  0  0
    3.7320    5.1783    0.0000 C   0  0  0  0  0  0  0  0  0  0  0  0
    2.8660    5.6783    0.0000 C   0  0  0  0  0  0  0  0  0  0  0  0
    9.9474   -1.2846    0.0000 H   0  0  0  0  0  0  0  0  0  0  0  0
   11.0920   -0.0248    0.0000 H   0  0  0  0  0  0  0  0  0  0  0  0
   12.4651   -0.5793    0.0000 H   0  0  0  0  0  0  0  0  0  0  0  0
   12.3621   -2.0566    0.0000 H   0  0  0  0  0  0  0  0  0  0  0  0
    9.2573   -0.0117    0.0000 H   0  0  0  0  0  0  0  0  0  0  0  0
    9.4651    1.4883    0.0000 H   0  0  0  0  0  0  0  0  0  0  0  0
   13.4896   -0.4872    0.0000 H   0  0  0  0  0  0  0  0  0  0  0  0
    8.9282    2.7983    0.0000 H   0  0  0  0  0  0  0  0  0  0  0  0
   13.5086   -2.5406    0.0000 H   0  0  0  0  0  0  0  0  0  0  0  0
   12.9244    0.2826    0.0000 H   0  0  0  0  0  0  0  0  0  0  0  0
   13.3224    1.0638    0.0000 H   0  0  0  0  0  0  0  0  0  0  0  0
   12.5412    1.4619    0.0000 H   0  0  0  0  0  0  0  0  0  0  0  0
    7.5252    2.9883    0.0000 H   0  0  0  0  0  0  0  0  0  0  0  0
   11.6042   -5.1618    0.0000 H   0  0  0  0  0  0  0  0  0  0  0  0
   14.1675   -4.0206    0.0000 H   0  0  0  0  0  0  0  0  0  0  0  0
    8.3913   -2.1317    0.0000 H   0  0  0  0  0  0  0  0  0  0  0  0
    9.4651   -2.1317    0.0000 H   0  0  0  0  0  0  0  0  0  0  0  0
    6.6592    2.4883    0.0000 H   0  0  0  0  0  0  0  0  0  0  0  0
    9.7942    3.2983    0.0000 H   0  0  0  0  0  0  0  0  0  0  0  0
    7.5252    3.9883    0.0000 H   0  0  0  0  0  0  0  0  0  0  0  0
    5.4641    1.7983    0.0000 H   0  0  0  0  0  0  0  0  0  0  0  0
    5.1350   -0.6317    0.0000 H   0  0  0  0  0  0  0  0  0  0  0  0
    2.3291    0.9883    0.0000 H   0  0  0  0  0  0  0  0  0  0  0  0
    3.7320   -1.4417    0.0000 H   0  0  0  0  0  0  0  0  0  0  0  0
    2.3291   -0.6317    0.0000 H   0  0  0  0  0  0  0  0  0  0  0  0
    2.2554    2.7860    0.0000 H   0  0  0  0  0  0  0  0  0  0  0  0
    2.6540    2.0957    0.0000 H   0  0  0  0  0  0  0  0  0  0  0  0
    1.4631    3.8683    0.0000 H   0  0  0  0  0  0  0  0  0  0  0  0
    4.2690    3.8683    0.0000 H   0  0  0  0  0  0  0  0  0  0  0  0
    1.4631    5.4883    0.0000 H   0  0  0  0  0  0  0  0  0  0  0  0
    4.2690    5.4883    0.0000 H   0  0  0  0  0  0  0  0  0  0  0  0
    2.8660    6.2983    0.0000 H   0  0  0  0  0  0  0  0  0  0  0  0
  1 17  1  0  0  0  0
  1 20  1  0  0  0  0
 18  2  1  1  0  0  0
  2 27  1  0  0  0  0
 21  3  1  6  0  0  0
 22  3  1  1  0  0  0
 19  4  1  1  0  0  0
  4 53  1  0  0  0  0
  5 22  1  0  0  0  0
  5 31  1  0  0  0  0
  6 23  2  0  0  0  0
 24  7  1  6  0  0  0
  7 65  1  0  0  0  0
  8 25  2  0  0  0  0
 28  9  1  6  0  0  0
  9 66  1  0  0  0  0
 10 32  2  0  0  0  0
 11 33  2  0  0  0  0
 12 35  1  0  0  0  0
 12 40  1  0  0  0  0
 20 13  1  6  0  0  0
 13 25  1  0  0  0  0
 13 26  1  0  0  0  0
 14 25  1  0  0  0  0
 14 32  1  0  0  0  0
 14 60  1  0  0  0  0
 15 23  1  0  0  0  0
 15 62  1  0  0  0  0
 15 63  1  0  0  0  0
 16 33  1  0  0  0  0
 16 34  1  0  0  0  0
 16 67  1  0  0  0  0
 17 18  1  0  0  0  0
 17 21  1  0  0  0  0
 17 47  1  1  0  0  0
 18 19  1  0  0  0  0
 18 48  1  0  0  0  0
 19 20  1  0  0  0  0
 19 49  1  0  0  0  0
 20 50  1  0  0  0  0
 21 23  1  0  0  0  0
 21 51  1  0  0  0  0
 22 24  1  0  0  0  0
 22 52  1  0  0  0  0
 24 28  1  0  0  0  0
 24 54  1  0  0  0  0
 26 29  2  0  0  0  0
 26 55  1  0  0  0  0
 27 56  1  0  0  0  0
 27 57  1  0  0  0  0
 27 58  1  0  0  0  0
 28 30  1  0  0  0  0
 28 59  1  0  0  0  0
 29 32  1  0  0  0  0
 29 61  1  0  0  0  0
 30 31  2  0  0  0  0
 30 64  1  0  0  0  0
 31 33  1  0  0  0  0
 34 35  1  0  0  0  0
 34 36  2  0  0  0  0
 35 37  2  0  0  0  0
 36 38  1  0  0  0  0
 36 68  1  0  0  0  0
 37 39  1  0  0  0  0
 37 69  1  0  0  0  0
 38 39  2  0  0  0  0
 38 70  1  0  0  0  0
 39 71  1  0  0  0  0
 40 41  1  0  0  0  0
 40 72  1  0  0  0  0
 40 73  1  0  0  0  0
 41 42  2  0  0  0  0
 41 43  1  0  0  0  0
 42 44  1  0  0  0  0
 42 74  1  0  0  0  0
 43 45  2  0  0  0  0
 43 75  1  0  0  0  0
 44 46  2  0  0  0  0
 44 76  1  0  0  0  0
 45 46  1  0  0  0  0
 45 77  1  0  0  0  0
 46 78  1  0  0  0  0
M  END
> <PUBCHEM_COMPOUND_CID>
513569
> <PUBCHEM_COMPOUND_CANONICALIZED>
1
> <PUBCHEM_CACTVS_COMPLEXITY>
1190
> <PUBCHEM_CACTVS_HBOND_ACCEPTOR>
12
> <PUBCHEM_CACTVS_HBOND_DONOR>
6
> <PUBCHEM_CACTVS_ROTATABLE_BOND>
11
> <PUBCHEM_CACTVS_SUBSKEYS>
AAADcfB7vAAAAAAAAAAAAAAAAAAAASAAAAAwYIEAAAAAAAABQAAAHgAQCAAADBzxmAczzoPABgCIAiVWUAKCCAAhIgAIiAFPbMifNjbEsZ+veCjv9zPf+cf6/C5OAAAAAAAAEAAAAAAAAAAgAAAAAAAAAA==
> <PUBCHEM_IUPAC_OPENEYE_NAME>
(2S,3S,4S)-2-[(1R)-2-amino-1-[(2S,3S,4R,5R)-5-(2,4-dioxopyrimidin-1-yl)-4-hydroxy-3-methoxy-tetrahydrofuran-2-yl]-2-oxo-ethoxy]-N-(2-benzyloxyphenyl)-3,4-dihydroxy-3,4-dihydro-2H-pyran-6-carboxamide
> <PUBCHEM_IUPAC_CAS_NAME>
(2S,3S,4S)-2-[(1R)-2-amino-1-[(2S,3S,4R,5R)-5-(2,4-dioxo-1-pyrimidinyl)-4-hydroxy-3-methoxy-2-oxolanyl]-2-oxoethoxy]-3,4-dihydroxy-N-(2-phenylmethoxyphenyl)-3,4-dihydro-2H-pyran-6-carboxamide
> <PUBCHEM_IUPAC_NAME_MARKUP>
(2<I>S</I>,3<I>S</I>,4<I>S</I>)-2-[(1<I>R</I>)-2-amino-1-[(2<I>S</I>,3<I>S</I>,4<I>R</I>,5<I>R</I>)-5-(2,4-dioxopyrimidin-1-yl)-4-hydroxy-3-methoxyoxolan-2-yl]-2-oxoethoxy]-3,4-dihydroxy-<I>N</I>-(2-phenylmethoxyphenyl)-3,4-dihydro-2<I>H</I>-pyran-6-carboxamide
> <PUBCHEM_IUPAC_NAME>
(2S,3S,4S)-2-[(1R)-2-amino-1-[(2S,3S,4R,5R)-5-(2,4-dioxopyrimidin-1-yl)-4-hydroxy-3-methoxyoxolan-2-yl]-2-oxoethoxy]-3,4-dihydroxy-N-(2-phenylmethoxyphenyl)-3,4-dihydro-2H-pyran-6-carboxamide
> <PUBCHEM_IUPAC_SYSTEMATIC_NAME>
(2S,3S,4S)-2-[(1R)-2-azanyl-1-[(2S,3S,4R,5R)-5-[2,4-bis(oxidanylidene)pyrimidin-1-yl]-3-methoxy-4-oxidanyl-oxolan-2-yl]-2-oxidanylidene-ethoxy]-3,4-bis(oxidanyl)-N-(2-phenylmethoxyphenyl)-3,4-dihydro-2H-pyran-6-carboxamide
> <PUBCHEM_IUPAC_TRADITIONAL_NAME>
(2S,3S,4S)-2-[(1R)-2-amino-1-[(2S,3S,4R,5R)-5-(2,4-diketopyrimidin-1-yl)-4-hydroxy-3-methoxy-tetrahydrofuran-2-yl]-2-keto-ethoxy]-N-(2-benzoxyphenyl)-3,4-dihydroxy-3,4-dihydro-2H-pyran-6-carboxamide
> <PUBCHEM_IUPAC_INCHI>
InChI=1S/C30H32N4O12/c1-42-23-22(38)28(34-12-11-20(36)33-30(34)41)45-24(23)25(26(31)39)46-29-21(37)17(35)13-19(44-29)27(40)32-16-9-5-6-10-18(16)43-14-15-7-3-2-4-8-15/h2-13,17,21-25,28-29,35,37-38H,14H2,1H3,(H2,31,39)(H,32,40)(H,33,36,41)/t17-,21-,22+,23-,24-,25+,28+,29+/m0/s1
> <PUBCHEM_IUPAC_INCHIKEY>
OALWJMNUQVEPNS-PKQJZBECSA-N
> <PUBCHEM_XLOGP3_AA>
-1.3
> <PUBCHEM_EXACT_MASS>
640.20167247
> <PUBCHEM_MOLECULAR_FORMULA>
C30H32N4O12
> <PUBCHEM_MOLECULAR_WEIGHT>
640.6
> <PUBCHEM_OPENEYE_CAN_SMILES>
COC1C(C(OC1C(C(=O)N)OC2C(C(C=C(O2)C(=O)NC3=CC=CC=C3OCC4=CC=CC=C4)O)O)N5C=CC(=O)NC5=O)O
> <PUBCHEM_OPENEYE_ISO_SMILES>
CO[C@H]1[C@H]([C@@H](O[C@@H]1[C@H](C(=O)N)O[C@@H]2[C@H]([C@H](C=C(O2)C(=O)NC3=CC=CC=C3OCC4=CC=CC=C4)O)O)N5C=CC(=O)NC5=O)O
> <PUBCHEM_CACTVS_TPSA>
228
> <PUBCHEM_MONOISOTOPIC_WEIGHT>
640.20167247
> <PUBCHEM_TOTAL_CHARGE>
0
> <PUBCHEM_HEAVY_ATOM_COUNT>
46
> <PUBCHEM_ATOM_DEF_STEREO_COUNT>
8
> <PUBCHEM_ATOM_UDEF_STEREO_COUNT>
0
> <PUBCHEM_BOND_DEF_STEREO_COUNT>
0
> <PUBCHEM_BOND_UDEF_STEREO_COUNT>
0
> <PUBCHEM_ISOTOPIC_ATOM_COUNT>
0
> <PUBCHEM_COMPONENT_COUNT>
1
> <PUBCHEM_CACTVS_TAUTO_COUNT>
-1
> <PUBCHEM_COORDINATE_TYPE>
1
5
255
> <PUBCHEM_BONDANNOTATIONS>
20  13  6
13  25  8
13  26  8
14  25  8
14  32  8
17  47  5
18  2  5
26  29  8
29  32  8
21  3  6
22  3  5
34  35  8
34  36  8
35  37  8
36  38  8
37  39  8
38  39  8
19  4  5
41  42  8
41  43  8
42  44  8
43  45  8
44  46  8
45  46  8
24  7  6
28  9  6
$$$$
