513560
  -OEChem-10302200282D
 70 73  0     1  0  0  0  0  0999 V2000
   10.7648   -0.9712    0.0000 O   0  0  0  0  0  0  0  0  0  0  0  0
   11.7817    1.4082    0.0000 O   0  0  0  0  0  0  0  0  0  0  0  0
    9.7942    1.5233    0.0000 O   0  0  0  0  0  0  0  0  0  0  0  0
   13.2375   -0.2086    0.0000 O   0  0  0  0  0  0  0  0  0  0  0  0
    8.0622    1.5233    0.0000 O   0  0  0  0  0  0  0  0  0  0  0  0
    9.7942    3.5233    0.0000 O   0  0  0  0  0  0  0  0  0  0  0  0
    8.0622    0.5233    0.0000 O   0  0  0  0  0  0  0  0  0  0  0  0
    8.0622    4.5233    0.0000 O   0  0  0  0  0  0  0  0  0  0  0  0
   10.5674   -2.7972    0.0000 O   0  0  0  0  0  0  0  0  0  0  0  0
   13.3699   -4.8333    0.0000 O   0  0  0  0  0  0  0  0  0  0  0  0
    6.3301    0.5233    0.0000 O   0  0  0  0  0  0  0  0  0  0  0  0
   12.1497   -2.0927    0.0000 N   0  0  0  0  0  0  0  0  0  0  0  0
   11.9686   -3.8152    0.0000 N   0  0  0  0  0  0  0  0  0  0  0  0
    8.9282   -0.9767    0.0000 N   0  0  0  0  0  0  0  0  0  0  0  0
    5.4641    2.0233    0.0000 N   0  0  0  0  0  0  0  0  0  0  0  0
   10.6603    0.0233    0.0000 C   0  0  1  0  0  0  0  0  0  0  0  0
   11.5738    0.4300    0.0000 C   0  0  2  0  0  0  0  0  0  0  0  0
   12.2429   -0.3131    0.0000 C   0  0  2  0  0  0  0  0  0  0  0  0
   11.7429   -1.1791    0.0000 C   0  0  1  0  0  0  0  0  0  0  0  0
    9.7942    0.5233    0.0000 C   0  0  2  0  0  0  0  0  0  0  0  0
    8.9282    2.0233    0.0000 C   0  0  1  0  0  0  0  0  0  0  0  0
    8.9282    0.0233    0.0000 C   0  0  0  0  0  0  0  0  0  0  0  0
    8.9282    3.0233    0.0000 C   0  0  2  0  0  0  0  0  0  0  0  0
   11.5619   -2.9017    0.0000 C   0  0  0  0  0  0  0  0  0  0  0  0
   13.1442   -2.1972    0.0000 C   0  0  0  0  0  0  0  0  0  0  0  0
   12.7328    1.7172    0.0000 C   0  0  0  0  0  0  0  0  0  0  0  0
    8.0622    3.5233    0.0000 C   0  0  2  0  0  0  0  0  0  0  0  0
   13.5509   -3.1108    0.0000 C   0  0  0  0  0  0  0  0  0  0  0  0
    7.1962    3.0233    0.0000 C   0  0  0  0  0  0  0  0  0  0  0  0
    7.1962    2.0233    0.0000 C   0  0  0  0  0  0  0  0  0  0  0  0
   12.9631   -3.9198    0.0000 C   0  0  0  0  0  0  0  0  0  0  0  0
    6.3301    1.5233    0.0000 C   0  0  0  0  0  0  0  0  0  0  0  0
    4.5981    1.5233    0.0000 C   0  0  0  0  0  0  0  0  0  0  0  0
    3.7320    2.0233    0.0000 C   0  0  0  0  0  0  0  0  0  0  0  0
    4.5981    0.5233    0.0000 C   0  0  0  0  0  0  0  0  0  0  0  0
    2.8660    1.5233    0.0000 C   0  0  0  0  0  0  0  0  0  0  0  0
    2.8660    0.5233    0.0000 C   0  0  0  0  0  0  0  0  0  0  0  0
    3.7320    0.0233    0.0000 C   0  0  0  0  0  0  0  0  0  0  0  0
    3.7320    3.0233    0.0000 C   0  0  0  0  0  0  0  0  0  0  0  0
    2.0000    0.0233    0.0000 C   0  0  0  0  0  0  0  0  0  0  0  0
    9.9474   -0.4396    0.0000 H   0  0  0  0  0  0  0  0  0  0  0  0
   11.0920    0.8202    0.0000 H   0  0  0  0  0  0  0  0  0  0  0  0
   12.4651    0.2657    0.0000 H   0  0  0  0  0  0  0  0  0  0  0  0
   12.3621   -1.2116    0.0000 H   0  0  0  0  0  0  0  0  0  0  0  0
    9.2573    0.8333    0.0000 H   0  0  0  0  0  0  0  0  0  0  0  0
    9.4651    2.3333    0.0000 H   0  0  0  0  0  0  0  0  0  0  0  0
   13.4896    0.3578    0.0000 H   0  0  0  0  0  0  0  0  0  0  0  0
    8.9282    3.6433    0.0000 H   0  0  0  0  0  0  0  0  0  0  0  0
   13.5086   -1.6956    0.0000 H   0  0  0  0  0  0  0  0  0  0  0  0
   12.9244    1.1276    0.0000 H   0  0  0  0  0  0  0  0  0  0  0  0
   13.3224    1.9088    0.0000 H   0  0  0  0  0  0  0  0  0  0  0  0
   12.5412    2.3069    0.0000 H   0  0  0  0  0  0  0  0  0  0  0  0
    7.5252    3.8333    0.0000 H   0  0  0  0  0  0  0  0  0  0  0  0
    8.3913   -1.2867    0.0000 H   0  0  0  0  0  0  0  0  0  0  0  0
    9.4651   -1.2867    0.0000 H   0  0  0  0  0  0  0  0  0  0  0  0
   11.6042   -4.3168    0.0000 H   0  0  0  0  0  0  0  0  0  0  0  0
   14.1675   -3.1756    0.0000 H   0  0  0  0  0  0  0  0  0  0  0  0
    6.6592    3.3333    0.0000 H   0  0  0  0  0  0  0  0  0  0  0  0
    9.7942    4.1433    0.0000 H   0  0  0  0  0  0  0  0  0  0  0  0
    7.5252    4.8333    0.0000 H   0  0  0  0  0  0  0  0  0  0  0  0
    5.4641    2.6433    0.0000 H   0  0  0  0  0  0  0  0  0  0  0  0
    5.1350    0.2133    0.0000 H   0  0  0  0  0  0  0  0  0  0  0  0
    2.3291    1.8333    0.0000 H   0  0  0  0  0  0  0  0  0  0  0  0
    3.7320   -0.5967    0.0000 H   0  0  0  0  0  0  0  0  0  0  0  0
    4.3520    3.0233    0.0000 H   0  0  0  0  0  0  0  0  0  0  0  0
    3.7320    3.6433    0.0000 H   0  0  0  0  0  0  0  0  0  0  0  0
    3.1120    3.0233    0.0000 H   0  0  0  0  0  0  0  0  0  0  0  0
    1.6900    0.5602    0.0000 H   0  0  0  0  0  0  0  0  0  0  0  0
    1.4631   -0.2867    0.0000 H   0  0  0  0  0  0  0  0  0  0  0  0
    2.3100   -0.5136    0.0000 H   0  0  0  0  0  0  0  0  0  0  0  0
  1 16  1  0  0  0  0
  1 19  1  0  0  0  0
 17  2  1  1  0  0  0
  2 26  1  0  0  0  0
 20  3  1  6  0  0  0
 21  3  1  1  0  0  0
 18  4  1  1  0  0  0
  4 47  1  0  0  0  0
  5 21  1  0  0  0  0
  5 30  1  0  0  0  0
 23  6  1  6  0  0  0
  6 59  1  0  0  0  0
  7 22  2  0  0  0  0
 27  8  1  6  0  0  0
  8 60  1  0  0  0  0
  9 24  2  0  0  0  0
 10 31  2  0  0  0  0
 11 32  2  0  0  0  0
 19 12  1  6  0  0  0
 12 24  1  0  0  0  0
 12 25  1  0  0  0  0
 13 24  1  0  0  0  0
 13 31  1  0  0  0  0
 13 56  1  0  0  0  0
 14 22  1  0  0  0  0
 14 54  1  0  0  0  0
 14 55  1  0  0  0  0
 15 32  1  0  0  0  0
 15 33  1  0  0  0  0
 15 61  1  0  0  0  0
 16 17  1  0  0  0  0
 16 20  1  0  0  0  0
 16 41  1  1  0  0  0
 17 18  1  0  0  0  0
 17 42  1  0  0  0  0
 18 19  1  0  0  0  0
 18 43  1  0  0  0  0
 19 44  1  0  0  0  0
 20 22  1  0  0  0  0
 20 45  1  0  0  0  0
 21 23  1  0  0  0  0
 21 46  1  0  0  0  0
 23 27  1  0  0  0  0
 23 48  1  0  0  0  0
 25 28  2  0  0  0  0
 25 49  1  0  0  0  0
 26 50  1  0  0  0  0
 26 51  1  0  0  0  0
 26 52  1  0  0  0  0
 27 29  1  0  0  0  0
 27 53  1  0  0  0  0
 28 31  1  0  0  0  0
 28 57  1  0  0  0  0
 29 30  2  0  0  0  0
 29 58  1  0  0  0  0
 30 32  1  0  0  0  0
 33 34  2  0  0  0  0
 33 35  1  0  0  0  0
 34 36  1  0  0  0  0
 34 39  1  0  0  0  0
 35 38  2  0  0  0  0
 35 62  1  0  0  0  0
 36 37  2  0  0  0  0
 36 63  1  0  0  0  0
 37 38  1  0  0  0  0
 37 40  1  0  0  0  0
 38 64  1  0  0  0  0
 39 65  1  0  0  0  0
 39 66  1  0  0  0  0
 39 67  1  0  0  0  0
 40 68  1  0  0  0  0
 40 69  1  0  0  0  0
 40 70  1  0  0  0  0
M  END
> <PUBCHEM_COMPOUND_CID>
513560
> <PUBCHEM_COMPOUND_CANONICALIZED>
1
> <PUBCHEM_CACTVS_COMPLEXITY>
1070
> <PUBCHEM_CACTVS_HBOND_ACCEPTOR>
11
> <PUBCHEM_CACTVS_HBOND_DONOR>
6
> <PUBCHEM_CACTVS_ROTATABLE_BOND>
8
> <PUBCHEM_CACTVS_SUBSKEYS>
AAADceB7vAAAAAAAAAAAAAAAAAAAASAAAAAwQIAAAAAAAAABAAAAHgAQCAAADBzxmAczyIPABgCIAiVWUAKCCAAhIgAIiAFIZMibNDbAkZWvcAhv9yLf2cf6/E5OCAACAAACAAAQAAQAAAQAAAAAAAAAAA==
> <PUBCHEM_IUPAC_OPENEYE_NAME>
(2S,3S,4S)-2-[(1R)-2-amino-1-[(2S,3S,4R,5R)-5-(2,4-dioxopyrimidin-1-yl)-4-hydroxy-3-methoxy-tetrahydrofuran-2-yl]-2-oxo-ethoxy]-N-(2,4-dimethylphenyl)-3,4-dihydroxy-3,4-dihydro-2H-pyran-6-carboxamide
> <PUBCHEM_IUPAC_CAS_NAME>
(2S,3S,4S)-2-[(1R)-2-amino-1-[(2S,3S,4R,5R)-5-(2,4-dioxo-1-pyrimidinyl)-4-hydroxy-3-methoxy-2-oxolanyl]-2-oxoethoxy]-N-(2,4-dimethylphenyl)-3,4-dihydroxy-3,4-dihydro-2H-pyran-6-carboxamide
> <PUBCHEM_IUPAC_NAME_MARKUP>
(2<I>S</I>,3<I>S</I>,4<I>S</I>)-2-[(1<I>R</I>)-2-amino-1-[(2<I>S</I>,3<I>S</I>,4<I>R</I>,5<I>R</I>)-5-(2,4-dioxopyrimidin-1-yl)-4-hydroxy-3-methoxyoxolan-2-yl]-2-oxoethoxy]-<I>N</I>-(2,4-dimethylphenyl)-3,4-dihydroxy-3,4-dihydro-2<I>H</I>-pyran-6-carboxamide
> <PUBCHEM_IUPAC_NAME>
(2S,3S,4S)-2-[(1R)-2-amino-1-[(2S,3S,4R,5R)-5-(2,4-dioxopyrimidin-1-yl)-4-hydroxy-3-methoxyoxolan-2-yl]-2-oxoethoxy]-N-(2,4-dimethylphenyl)-3,4-dihydroxy-3,4-dihydro-2H-pyran-6-carboxamide
> <PUBCHEM_IUPAC_SYSTEMATIC_NAME>
(2S,3S,4S)-2-[(1R)-2-azanyl-1-[(2S,3S,4R,5R)-5-[2,4-bis(oxidanylidene)pyrimidin-1-yl]-3-methoxy-4-oxidanyl-oxolan-2-yl]-2-oxidanylidene-ethoxy]-N-(2,4-dimethylphenyl)-3,4-bis(oxidanyl)-3,4-dihydro-2H-pyran-6-carboxamide
> <PUBCHEM_IUPAC_TRADITIONAL_NAME>
(2S,3S,4S)-2-[(1R)-2-amino-1-[(2S,3S,4R,5R)-5-(2,4-diketopyrimidin-1-yl)-4-hydroxy-3-methoxy-tetrahydrofuran-2-yl]-2-keto-ethoxy]-N-(2,4-dimethylphenyl)-3,4-dihydroxy-3,4-dihydro-2H-pyran-6-carboxamide
> <PUBCHEM_IUPAC_INCHI>
InChI=1S/C25H30N4O11/c1-10-4-5-12(11(2)8-10)27-22(35)14-9-13(30)16(32)24(38-14)40-20(21(26)34)19-18(37-3)17(33)23(39-19)29-7-6-15(31)28-25(29)36/h4-9,13,16-20,23-24,30,32-33H,1-3H3,(H2,26,34)(H,27,35)(H,28,31,36)/t13-,16-,17+,18-,19-,20+,23+,24+/m0/s1
> <PUBCHEM_IUPAC_INCHIKEY>
VMSMOZRDFGUXEK-YEHZMZNXSA-N
> <PUBCHEM_XLOGP3_AA>
-2
> <PUBCHEM_EXACT_MASS>
562.19110779
> <PUBCHEM_MOLECULAR_FORMULA>
C25H30N4O11
> <PUBCHEM_MOLECULAR_WEIGHT>
562.5
> <PUBCHEM_OPENEYE_CAN_SMILES>
CC1=CC(=C(C=C1)NC(=O)C2=CC(C(C(O2)OC(C3C(C(C(O3)N4C=CC(=O)NC4=O)O)OC)C(=O)N)O)O)C
> <PUBCHEM_OPENEYE_ISO_SMILES>
CC1=CC(=C(C=C1)NC(=O)C2=C[C@@H]([C@@H]([C@H](O2)O[C@H]([C@@H]3[C@H]([C@H]([C@@H](O3)N4C=CC(=O)NC4=O)O)OC)C(=O)N)O)O)C
> <PUBCHEM_CACTVS_TPSA>
219
> <PUBCHEM_MONOISOTOPIC_WEIGHT>
562.19110779
> <PUBCHEM_TOTAL_CHARGE>
0
> <PUBCHEM_HEAVY_ATOM_COUNT>
40
> <PUBCHEM_ATOM_DEF_STEREO_COUNT>
8
> <PUBCHEM_ATOM_UDEF_STEREO_COUNT>
0
> <PUBCHEM_BOND_DEF_STEREO_COUNT>
0
> <PUBCHEM_BOND_UDEF_STEREO_COUNT>
0
> <PUBCHEM_ISOTOPIC_ATOM_COUNT>
0
> <PUBCHEM_COMPONENT_COUNT>
1
> <PUBCHEM_CACTVS_TAUTO_COUNT>
-1
> <PUBCHEM_COORDINATE_TYPE>
1
5
255
> <PUBCHEM_BONDANNOTATIONS>
19  12  6
12  24  8
12  25  8
13  24  8
13  31  8
16  41  5
17  2  5
25  28  8
28  31  8
20  3  6
21  3  5
33  34  8
33  35  8
34  36  8
35  38  8
36  37  8
37  38  8
18  4  5
23  6  6
27  8  6
$$$$
