513557
  -OEChem-10302200282D
 67 70  0     1  0  0  0  0  0999 V2000
    9.8988   -0.9712    0.0000 O   0  0  0  0  0  0  0  0  0  0  0  0
   10.9157    1.4082    0.0000 O   0  0  0  0  0  0  0  0  0  0  0  0
    8.9282    1.5233    0.0000 O   0  0  0  0  0  0  0  0  0  0  0  0
   12.3714   -0.2086    0.0000 O   0  0  0  0  0  0  0  0  0  0  0  0
    7.1962    1.5233    0.0000 O   0  0  0  0  0  0  0  0  0  0  0  0
    8.9282    3.5233    0.0000 O   0  0  0  0  0  0  0  0  0  0  0  0
    7.1962    0.5233    0.0000 O   0  0  0  0  0  0  0  0  0  0  0  0
    7.1962    4.5233    0.0000 O   0  0  0  0  0  0  0  0  0  0  0  0
    9.7013   -2.7972    0.0000 O   0  0  0  0  0  0  0  0  0  0  0  0
   12.5039   -4.8333    0.0000 O   0  0  0  0  0  0  0  0  0  0  0  0
    5.4641    0.5233    0.0000 O   0  0  0  0  0  0  0  0  0  0  0  0
   11.2836   -2.0927    0.0000 N   0  0  0  0  0  0  0  0  0  0  0  0
    8.0622   -0.9767    0.0000 N   0  0  0  0  0  0  0  0  0  0  0  0
   11.1026   -3.8152    0.0000 N   0  0  0  0  0  0  0  0  0  0  0  0
    4.5981    2.0233    0.0000 N   0  0  0  0  0  0  0  0  0  0  0  0
    9.7942    0.0233    0.0000 C   0  0  1  0  0  0  0  0  0  0  0  0
   10.7078    0.4300    0.0000 C   0  0  2  0  0  0  0  0  0  0  0  0
   11.3769   -0.3131    0.0000 C   0  0  2  0  0  0  0  0  0  0  0  0
   10.8769   -1.1791    0.0000 C   0  0  1  0  0  0  0  0  0  0  0  0
    8.9282    0.5233    0.0000 C   0  0  2  0  0  0  0  0  0  0  0  0
    8.0622    2.0233    0.0000 C   0  0  1  0  0  0  0  0  0  0  0  0
    8.0622    0.0233    0.0000 C   0  0  0  0  0  0  0  0  0  0  0  0
    8.0622    3.0233    0.0000 C   0  0  2  0  0  0  0  0  0  0  0  0
   10.6959   -2.9017    0.0000 C   0  0  0  0  0  0  0  0  0  0  0  0
   12.2782   -2.1972    0.0000 C   0  0  0  0  0  0  0  0  0  0  0  0
    7.1962    3.5233    0.0000 C   0  0  2  0  0  0  0  0  0  0  0  0
   11.8667    1.7172    0.0000 C   0  0  0  0  0  0  0  0  0  0  0  0
    6.3301    3.0233    0.0000 C   0  0  0  0  0  0  0  0  0  0  0  0
    6.3301    2.0233    0.0000 C   0  0  0  0  0  0  0  0  0  0  0  0
   12.6849   -3.1108    0.0000 C   0  0  0  0  0  0  0  0  0  0  0  0
   12.0971   -3.9198    0.0000 C   0  0  0  0  0  0  0  0  0  0  0  0
    5.4641    1.5233    0.0000 C   0  0  0  0  0  0  0  0  0  0  0  0
    3.7320    1.5233    0.0000 C   0  0  0  0  0  0  0  0  0  0  0  0
    4.5981    3.0233    0.0000 C   0  0  0  0  0  0  0  0  0  0  0  0
    3.7320    0.5233    0.0000 C   0  0  0  0  0  0  0  0  0  0  0  0
    2.8660    2.0233    0.0000 C   0  0  0  0  0  0  0  0  0  0  0  0
    2.8660    0.0233    0.0000 C   0  0  0  0  0  0  0  0  0  0  0  0
    2.0000    1.5233    0.0000 C   0  0  0  0  0  0  0  0  0  0  0  0
    2.0000    0.5233    0.0000 C   0  0  0  0  0  0  0  0  0  0  0  0
    9.0814   -0.4396    0.0000 H   0  0  0  0  0  0  0  0  0  0  0  0
   11.3066    0.5905    0.0000 H   0  0  0  0  0  0  0  0  0  0  0  0
   11.7146   -0.8331    0.0000 H   0  0  0  0  0  0  0  0  0  0  0  0
   10.4867   -1.6610    0.0000 H   0  0  0  0  0  0  0  0  0  0  0  0
    9.4651    0.8333    0.0000 H   0  0  0  0  0  0  0  0  0  0  0  0
    8.0622    1.4033    0.0000 H   0  0  0  0  0  0  0  0  0  0  0  0
   12.6236    0.3578    0.0000 H   0  0  0  0  0  0  0  0  0  0  0  0
    8.0622    3.6433    0.0000 H   0  0  0  0  0  0  0  0  0  0  0  0
   12.6426   -1.6956    0.0000 H   0  0  0  0  0  0  0  0  0  0  0  0
    6.6592    3.8333    0.0000 H   0  0  0  0  0  0  0  0  0  0  0  0
   12.0583    1.1276    0.0000 H   0  0  0  0  0  0  0  0  0  0  0  0
   12.4564    1.9088    0.0000 H   0  0  0  0  0  0  0  0  0  0  0  0
   11.6752    2.3069    0.0000 H   0  0  0  0  0  0  0  0  0  0  0  0
    5.7932    3.3333    0.0000 H   0  0  0  0  0  0  0  0  0  0  0  0
    7.5252   -1.2867    0.0000 H   0  0  0  0  0  0  0  0  0  0  0  0
    8.5991   -1.2867    0.0000 H   0  0  0  0  0  0  0  0  0  0  0  0
   10.7382   -4.3168    0.0000 H   0  0  0  0  0  0  0  0  0  0  0  0
   13.3015   -3.1756    0.0000 H   0  0  0  0  0  0  0  0  0  0  0  0
    8.9282    4.1433    0.0000 H   0  0  0  0  0  0  0  0  0  0  0  0
    6.6592    4.8333    0.0000 H   0  0  0  0  0  0  0  0  0  0  0  0
    5.2181    3.0233    0.0000 H   0  0  0  0  0  0  0  0  0  0  0  0
    4.5981    3.6433    0.0000 H   0  0  0  0  0  0  0  0  0  0  0  0
    3.9781    3.0233    0.0000 H   0  0  0  0  0  0  0  0  0  0  0  0
    4.2690    0.2133    0.0000 H   0  0  0  0  0  0  0  0  0  0  0  0
    2.8660    2.6433    0.0000 H   0  0  0  0  0  0  0  0  0  0  0  0
    2.8660   -0.5967    0.0000 H   0  0  0  0  0  0  0  0  0  0  0  0
    1.4631    1.8333    0.0000 H   0  0  0  0  0  0  0  0  0  0  0  0
    1.4631    0.2133    0.0000 H   0  0  0  0  0  0  0  0  0  0  0  0
  1 16  1  0  0  0  0
  1 19  1  0  0  0  0
 17  2  1  1  0  0  0
  2 27  1  0  0  0  0
 20  3  1  6  0  0  0
 21  3  1  1  0  0  0
 18  4  1  1  0  0  0
  4 46  1  0  0  0  0
  5 21  1  0  0  0  0
  5 29  1  0  0  0  0
 23  6  1  6  0  0  0
  6 58  1  0  0  0  0
  7 22  2  0  0  0  0
 26  8  1  6  0  0  0
  8 59  1  0  0  0  0
  9 24  2  0  0  0  0
 10 31  2  0  0  0  0
 11 32  2  0  0  0  0
 19 12  1  6  0  0  0
 12 24  1  0  0  0  0
 12 25  1  0  0  0  0
 13 22  1  0  0  0  0
 13 54  1  0  0  0  0
 13 55  1  0  0  0  0
 14 24  1  0  0  0  0
 14 31  1  0  0  0  0
 14 56  1  0  0  0  0
 15 32  1  0  0  0  0
 15 33  1  0  0  0  0
 15 34  1  0  0  0  0
 16 17  1  0  0  0  0
 16 20  1  0  0  0  0
 16 40  1  1  0  0  0
 17 18  1  0  0  0  0
 17 41  1  0  0  0  0
 18 19  1  0  0  0  0
 18 42  1  0  0  0  0
 19 43  1  0  0  0  0
 20 22  1  0  0  0  0
 20 44  1  0  0  0  0
 21 23  1  0  0  0  0
 21 45  1  0  0  0  0
 23 26  1  0  0  0  0
 23 47  1  0  0  0  0
 25 30  2  0  0  0  0
 25 48  1  0  0  0  0
 26 28  1  0  0  0  0
 26 49  1  0  0  0  0
 27 50  1  0  0  0  0
 27 51  1  0  0  0  0
 27 52  1  0  0  0  0
 28 29  2  0  0  0  0
 28 53  1  0  0  0  0
 29 32  1  0  0  0  0
 30 31  1  0  0  0  0
 30 57  1  0  0  0  0
 33 35  2  0  0  0  0
 33 36  1  0  0  0  0
 34 60  1  0  0  0  0
 34 61  1  0  0  0  0
 34 62  1  0  0  0  0
 35 37  1  0  0  0  0
 35 63  1  0  0  0  0
 36 38  2  0  0  0  0
 36 64  1  0  0  0  0
 37 39  2  0  0  0  0
 37 65  1  0  0  0  0
 38 39  1  0  0  0  0
 38 66  1  0  0  0  0
 39 67  1  0  0  0  0
M  END
> <PUBCHEM_COMPOUND_CID>
513557
> <PUBCHEM_COMPOUND_CANONICALIZED>
1
> <PUBCHEM_CACTVS_COMPLEXITY>
1030
> <PUBCHEM_CACTVS_HBOND_ACCEPTOR>
11
> <PUBCHEM_CACTVS_HBOND_DONOR>
5
> <PUBCHEM_CACTVS_ROTATABLE_BOND>
8
> <PUBCHEM_CACTVS_SUBSKEYS>
AAADceB7vAAAAAAAAAAAAAAAAAAAASAAAAAwQIAAAAAAAAABAAAAHgAQCAAACBzxkAczyIPABgCIACVWUAKCCAAhIgAIiAFIZMibNDbAkZWvcAhv9yLf2cf6fA5AAAAAAAAAAAAAAAAAAAAAAAAAAAAAAA==
> <PUBCHEM_IUPAC_OPENEYE_NAME>
(2S,3S,4S)-2-[(1R)-2-amino-1-[(2S,3S,4R,5R)-5-(2,4-dioxopyrimidin-1-yl)-4-hydroxy-3-methoxy-tetrahydrofuran-2-yl]-2-oxo-ethoxy]-3,4-dihydroxy-N-methyl-N-phenyl-3,4-dihydro-2H-pyran-6-carboxamide
> <PUBCHEM_IUPAC_CAS_NAME>
(2S,3S,4S)-2-[(1R)-2-amino-1-[(2S,3S,4R,5R)-5-(2,4-dioxo-1-pyrimidinyl)-4-hydroxy-3-methoxy-2-oxolanyl]-2-oxoethoxy]-3,4-dihydroxy-N-methyl-N-phenyl-3,4-dihydro-2H-pyran-6-carboxamide
> <PUBCHEM_IUPAC_NAME_MARKUP>
(2<I>S</I>,3<I>S</I>,4<I>S</I>)-2-[(1<I>R</I>)-2-amino-1-[(2<I>S</I>,3<I>S</I>,4<I>R</I>,5<I>R</I>)-5-(2,4-dioxopyrimidin-1-yl)-4-hydroxy-3-methoxyoxolan-2-yl]-2-oxoethoxy]-3,4-dihydroxy-<I>N</I>-methyl-<I>N</I>-phenyl-3,4-dihydro-2<I>H</I>-pyran-6-carboxamide
> <PUBCHEM_IUPAC_NAME>
(2S,3S,4S)-2-[(1R)-2-amino-1-[(2S,3S,4R,5R)-5-(2,4-dioxopyrimidin-1-yl)-4-hydroxy-3-methoxyoxolan-2-yl]-2-oxoethoxy]-3,4-dihydroxy-N-methyl-N-phenyl-3,4-dihydro-2H-pyran-6-carboxamide
> <PUBCHEM_IUPAC_SYSTEMATIC_NAME>
(2S,3S,4S)-2-[(1R)-2-azanyl-1-[(2S,3S,4R,5R)-5-[2,4-bis(oxidanylidene)pyrimidin-1-yl]-3-methoxy-4-oxidanyl-oxolan-2-yl]-2-oxidanylidene-ethoxy]-N-methyl-3,4-bis(oxidanyl)-N-phenyl-3,4-dihydro-2H-pyran-6-carboxamide
> <PUBCHEM_IUPAC_TRADITIONAL_NAME>
(2S,3S,4S)-2-[(1R)-2-amino-1-[(2S,3S,4R,5R)-5-(2,4-diketopyrimidin-1-yl)-4-hydroxy-3-methoxy-tetrahydrofuran-2-yl]-2-keto-ethoxy]-3,4-dihydroxy-N-methyl-N-phenyl-3,4-dihydro-2H-pyran-6-carboxamide
> <PUBCHEM_IUPAC_INCHI>
InChI=1S/C24H28N4O11/c1-27(11-6-4-3-5-7-11)21(34)13-10-12(29)15(31)23(37-13)39-19(20(25)33)18-17(36-2)16(32)22(38-18)28-9-8-14(30)26-24(28)35/h3-10,12,15-19,22-23,29,31-32H,1-2H3,(H2,25,33)(H,26,30,35)/t12-,15-,16+,17-,18-,19+,22+,23+/m0/s1
> <PUBCHEM_IUPAC_INCHIKEY>
JJIGLNASFLRRER-RYQUHRKNSA-N
> <PUBCHEM_XLOGP3_AA>
-2.6
> <PUBCHEM_EXACT_MASS>
548.17545772
> <PUBCHEM_MOLECULAR_FORMULA>
C24H28N4O11
> <PUBCHEM_MOLECULAR_WEIGHT>
548.5
> <PUBCHEM_OPENEYE_CAN_SMILES>
CN(C1=CC=CC=C1)C(=O)C2=CC(C(C(O2)OC(C3C(C(C(O3)N4C=CC(=O)NC4=O)O)OC)C(=O)N)O)O
> <PUBCHEM_OPENEYE_ISO_SMILES>
CN(C1=CC=CC=C1)C(=O)C2=C[C@@H]([C@@H]([C@H](O2)O[C@H]([C@@H]3[C@H]([C@H]([C@@H](O3)N4C=CC(=O)NC4=O)O)OC)C(=O)N)O)O
> <PUBCHEM_CACTVS_TPSA>
210
> <PUBCHEM_MONOISOTOPIC_WEIGHT>
548.17545772
> <PUBCHEM_TOTAL_CHARGE>
0
> <PUBCHEM_HEAVY_ATOM_COUNT>
39
> <PUBCHEM_ATOM_DEF_STEREO_COUNT>
8
> <PUBCHEM_ATOM_UDEF_STEREO_COUNT>
0
> <PUBCHEM_BOND_DEF_STEREO_COUNT>
0
> <PUBCHEM_BOND_UDEF_STEREO_COUNT>
0
> <PUBCHEM_ISOTOPIC_ATOM_COUNT>
0
> <PUBCHEM_COMPONENT_COUNT>
1
> <PUBCHEM_CACTVS_TAUTO_COUNT>
-1
> <PUBCHEM_COORDINATE_TYPE>
1
5
255
> <PUBCHEM_BONDANNOTATIONS>
19  12  6
12  24  8
12  25  8
14  24  8
14  31  8
16  40  5
17  2  5
25  30  8
20  3  6
21  3  5
30  31  8
33  35  8
33  36  8
35  37  8
36  38  8
37  39  8
38  39  8
18  4  5
23  6  6
26  8  6
$$$$
