513577
  -OEChem-10302200282D
 66 69  0     1  0  0  0  0  0999 V2000
    9.8988   -0.9712    0.0000 O   0  0  0  0  0  0  0  0  0  0  0  0
   10.9157    1.4082    0.0000 O   0  0  0  0  0  0  0  0  0  0  0  0
    8.9282    1.5233    0.0000 O   0  0  0  0  0  0  0  0  0  0  0  0
   12.3714   -0.2086    0.0000 O   0  0  0  0  0  0  0  0  0  0  0  0
    7.1962    1.5233    0.0000 O   0  0  0  0  0  0  0  0  0  0  0  0
    8.9282    3.5233    0.0000 O   0  0  0  0  0  0  0  0  0  0  0  0
    7.1962    0.5233    0.0000 O   0  0  0  0  0  0  0  0  0  0  0  0
    7.1962    4.5233    0.0000 O   0  0  0  0  0  0  0  0  0  0  0  0
    9.7013   -2.7972    0.0000 O   0  0  0  0  0  0  0  0  0  0  0  0
   12.5039   -4.8333    0.0000 O   0  0  0  0  0  0  0  0  0  0  0  0
    5.4641    0.5233    0.0000 O   0  0  0  0  0  0  0  0  0  0  0  0
    2.0000    3.5233    0.0000 O   0  5  0  0  0  0  0  0  0  0  0  0
    3.7320    3.5233    0.0000 O   0  0  0  0  0  0  0  0  0  0  0  0
   11.2836   -2.0927    0.0000 N   0  0  0  0  0  0  0  0  0  0  0  0
    8.0622   -0.9767    0.0000 N   0  0  0  0  0  0  0  0  0  0  0  0
   11.1026   -3.8152    0.0000 N   0  0  0  0  0  0  0  0  0  0  0  0
    4.5981    2.0233    0.0000 N   0  0  0  0  0  0  0  0  0  0  0  0
    2.8660    3.0233    0.0000 N   0  3  0  0  0  0  0  0  0  0  0  0
    9.7942    0.0233    0.0000 C   0  0  1  0  0  0  0  0  0  0  0  0
   10.7078    0.4300    0.0000 C   0  0  2  0  0  0  0  0  0  0  0  0
   11.3769   -0.3131    0.0000 C   0  0  2  0  0  0  0  0  0  0  0  0
   10.8769   -1.1791    0.0000 C   0  0  1  0  0  0  0  0  0  0  0  0
    8.9282    0.5233    0.0000 C   0  0  2  0  0  0  0  0  0  0  0  0
    8.0622    2.0233    0.0000 C   0  0  1  0  0  0  0  0  0  0  0  0
    8.0622    0.0233    0.0000 C   0  0  0  0  0  0  0  0  0  0  0  0
    8.0622    3.0233    0.0000 C   0  0  2  0  0  0  0  0  0  0  0  0
   10.6959   -2.9017    0.0000 C   0  0  0  0  0  0  0  0  0  0  0  0
   12.2782   -2.1972    0.0000 C   0  0  0  0  0  0  0  0  0  0  0  0
    7.1962    3.5233    0.0000 C   0  0  2  0  0  0  0  0  0  0  0  0
   11.8667    1.7172    0.0000 C   0  0  0  0  0  0  0  0  0  0  0  0
    6.3301    3.0233    0.0000 C   0  0  0  0  0  0  0  0  0  0  0  0
   12.6849   -3.1108    0.0000 C   0  0  0  0  0  0  0  0  0  0  0  0
    6.3301    2.0233    0.0000 C   0  0  0  0  0  0  0  0  0  0  0  0
   12.0971   -3.9198    0.0000 C   0  0  0  0  0  0  0  0  0  0  0  0
    5.4641    1.5233    0.0000 C   0  0  0  0  0  0  0  0  0  0  0  0
    3.7320    1.5233    0.0000 C   0  0  0  0  0  0  0  0  0  0  0  0
    2.8660    2.0233    0.0000 C   0  0  0  0  0  0  0  0  0  0  0  0
    3.7320    0.5233    0.0000 C   0  0  0  0  0  0  0  0  0  0  0  0
    2.0000    1.5233    0.0000 C   0  0  0  0  0  0  0  0  0  0  0  0
    2.8660    0.0233    0.0000 C   0  0  0  0  0  0  0  0  0  0  0  0
    2.0000    0.5233    0.0000 C   0  0  0  0  0  0  0  0  0  0  0  0
    9.0814   -0.4396    0.0000 H   0  0  0  0  0  0  0  0  0  0  0  0
   11.3066    0.5905    0.0000 H   0  0  0  0  0  0  0  0  0  0  0  0
   11.7146   -0.8331    0.0000 H   0  0  0  0  0  0  0  0  0  0  0  0
   10.4867   -1.6610    0.0000 H   0  0  0  0  0  0  0  0  0  0  0  0
    9.4651    0.8333    0.0000 H   0  0  0  0  0  0  0  0  0  0  0  0
    8.0622    1.4033    0.0000 H   0  0  0  0  0  0  0  0  0  0  0  0
   12.6236    0.3578    0.0000 H   0  0  0  0  0  0  0  0  0  0  0  0
    8.0622    3.6433    0.0000 H   0  0  0  0  0  0  0  0  0  0  0  0
   12.6426   -1.6956    0.0000 H   0  0  0  0  0  0  0  0  0  0  0  0
    6.6592    3.8333    0.0000 H   0  0  0  0  0  0  0  0  0  0  0  0
   12.0583    1.1276    0.0000 H   0  0  0  0  0  0  0  0  0  0  0  0
   12.4564    1.9088    0.0000 H   0  0  0  0  0  0  0  0  0  0  0  0
   11.6752    2.3069    0.0000 H   0  0  0  0  0  0  0  0  0  0  0  0
    5.7932    3.3333    0.0000 H   0  0  0  0  0  0  0  0  0  0  0  0
    7.5252   -1.2867    0.0000 H   0  0  0  0  0  0  0  0  0  0  0  0
    8.5991   -1.2867    0.0000 H   0  0  0  0  0  0  0  0  0  0  0  0
   10.7382   -4.3168    0.0000 H   0  0  0  0  0  0  0  0  0  0  0  0
   13.3015   -3.1756    0.0000 H   0  0  0  0  0  0  0  0  0  0  0  0
    8.9282    4.1433    0.0000 H   0  0  0  0  0  0  0  0  0  0  0  0
    6.6592    4.8333    0.0000 H   0  0  0  0  0  0  0  0  0  0  0  0
    4.5981    2.6433    0.0000 H   0  0  0  0  0  0  0  0  0  0  0  0
    4.2690    0.2133    0.0000 H   0  0  0  0  0  0  0  0  0  0  0  0
    1.4631    1.8333    0.0000 H   0  0  0  0  0  0  0  0  0  0  0  0
    2.8660   -0.5967    0.0000 H   0  0  0  0  0  0  0  0  0  0  0  0
    1.4631    0.2133    0.0000 H   0  0  0  0  0  0  0  0  0  0  0  0
  1 19  1  0  0  0  0
  1 22  1  0  0  0  0
 20  2  1  1  0  0  0
  2 30  1  0  0  0  0
 23  3  1  6  0  0  0
 24  3  1  1  0  0  0
 21  4  1  1  0  0  0
  4 48  1  0  0  0  0
  5 24  1  0  0  0  0
  5 33  1  0  0  0  0
 26  6  1  6  0  0  0
  6 60  1  0  0  0  0
  7 25  2  0  0  0  0
 29  8  1  6  0  0  0
  8 61  1  0  0  0  0
  9 27  2  0  0  0  0
 10 34  2  0  0  0  0
 11 35  2  0  0  0  0
 12 18  1  0  0  0  0
 13 18  2  0  0  0  0
 22 14  1  6  0  0  0
 14 27  1  0  0  0  0
 14 28  1  0  0  0  0
 15 25  1  0  0  0  0
 15 56  1  0  0  0  0
 15 57  1  0  0  0  0
 16 27  1  0  0  0  0
 16 34  1  0  0  0  0
 16 58  1  0  0  0  0
 17 35  1  0  0  0  0
 17 36  1  0  0  0  0
 17 62  1  0  0  0  0
 18 37  1  0  0  0  0
 19 20  1  0  0  0  0
 19 23  1  0  0  0  0
 19 42  1  1  0  0  0
 20 21  1  0  0  0  0
 20 43  1  0  0  0  0
 21 22  1  0  0  0  0
 21 44  1  0  0  0  0
 22 45  1  0  0  0  0
 23 25  1  0  0  0  0
 23 46  1  0  0  0  0
 24 26  1  0  0  0  0
 24 47  1  0  0  0  0
 26 29  1  0  0  0  0
 26 49  1  0  0  0  0
 28 32  2  0  0  0  0
 28 50  1  0  0  0  0
 29 31  1  0  0  0  0
 29 51  1  0  0  0  0
 30 52  1  0  0  0  0
 30 53  1  0  0  0  0
 30 54  1  0  0  0  0
 31 33  2  0  0  0  0
 31 55  1  0  0  0  0
 32 34  1  0  0  0  0
 32 59  1  0  0  0  0
 33 35  1  0  0  0  0
 36 37  1  0  0  0  0
 36 38  2  0  0  0  0
 37 39  2  0  0  0  0
 38 40  1  0  0  0  0
 38 63  1  0  0  0  0
 39 41  1  0  0  0  0
 39 64  1  0  0  0  0
 40 41  2  0  0  0  0
 40 65  1  0  0  0  0
 41 66  1  0  0  0  0
M  CHG  2  12  -1  18   1
M  END
> <PUBCHEM_COMPOUND_CID>
513577
> <PUBCHEM_COMPOUND_CANONICALIZED>
1
> <PUBCHEM_CACTVS_COMPLEXITY>
1130
> <PUBCHEM_CACTVS_HBOND_ACCEPTOR>
13
> <PUBCHEM_CACTVS_HBOND_DONOR>
6
> <PUBCHEM_CACTVS_ROTATABLE_BOND>
8
> <PUBCHEM_CACTVS_SUBSKEYS>
AAADceB7vAAAAAAAAAAAAAAAAAAAASAAAAAwQIAAAAAAAAABAAAAHgAUCAAACBzxkAczyIPQRgCJACVWUwKCCAAhIgAoiAFIdMqbdDbAkZW/cAhv96Lf2cf6fA5AAAAAAAAAACAAAAAAAAAAQAAAAAAAAA==
> <PUBCHEM_IUPAC_OPENEYE_NAME>
(2S,3S,4S)-2-[(1R)-2-amino-1-[(2S,3S,4R,5R)-5-(2,4-dioxopyrimidin-1-yl)-4-hydroxy-3-methoxy-tetrahydrofuran-2-yl]-2-oxo-ethoxy]-3,4-dihydroxy-N-(2-nitrophenyl)-3,4-dihydro-2H-pyran-6-carboxamide
> <PUBCHEM_IUPAC_CAS_NAME>
(2S,3S,4S)-2-[(1R)-2-amino-1-[(2S,3S,4R,5R)-5-(2,4-dioxo-1-pyrimidinyl)-4-hydroxy-3-methoxy-2-oxolanyl]-2-oxoethoxy]-3,4-dihydroxy-N-(2-nitrophenyl)-3,4-dihydro-2H-pyran-6-carboxamide
> <PUBCHEM_IUPAC_NAME_MARKUP>
(2<I>S</I>,3<I>S</I>,4<I>S</I>)-2-[(1<I>R</I>)-2-amino-1-[(2<I>S</I>,3<I>S</I>,4<I>R</I>,5<I>R</I>)-5-(2,4-dioxopyrimidin-1-yl)-4-hydroxy-3-methoxyoxolan-2-yl]-2-oxoethoxy]-3,4-dihydroxy-<I>N</I>-(2-nitrophenyl)-3,4-dihydro-2<I>H</I>-pyran-6-carboxamide
> <PUBCHEM_IUPAC_NAME>
(2S,3S,4S)-2-[(1R)-2-amino-1-[(2S,3S,4R,5R)-5-(2,4-dioxopyrimidin-1-yl)-4-hydroxy-3-methoxyoxolan-2-yl]-2-oxoethoxy]-3,4-dihydroxy-N-(2-nitrophenyl)-3,4-dihydro-2H-pyran-6-carboxamide
> <PUBCHEM_IUPAC_SYSTEMATIC_NAME>
(2S,3S,4S)-2-[(1R)-2-azanyl-1-[(2S,3S,4R,5R)-5-[2,4-bis(oxidanylidene)pyrimidin-1-yl]-3-methoxy-4-oxidanyl-oxolan-2-yl]-2-oxidanylidene-ethoxy]-N-(2-nitrophenyl)-3,4-bis(oxidanyl)-3,4-dihydro-2H-pyran-6-carboxamide
> <PUBCHEM_IUPAC_TRADITIONAL_NAME>
(2S,3S,4S)-2-[(1R)-2-amino-1-[(2S,3S,4R,5R)-5-(2,4-diketopyrimidin-1-yl)-4-hydroxy-3-methoxy-tetrahydrofuran-2-yl]-2-keto-ethoxy]-3,4-dihydroxy-N-(2-nitrophenyl)-3,4-dihydro-2H-pyran-6-carboxamide
> <PUBCHEM_IUPAC_INCHI>
InChI=1S/C23H25N5O13/c1-38-16-15(32)21(27-7-6-13(30)26-23(27)35)40-17(16)18(19(24)33)41-22-14(31)11(29)8-12(39-22)20(34)25-9-4-2-3-5-10(9)28(36)37/h2-8,11,14-18,21-22,29,31-32H,1H3,(H2,24,33)(H,25,34)(H,26,30,35)/t11-,14-,15+,16-,17-,18+,21+,22+/m0/s1
> <PUBCHEM_IUPAC_INCHIKEY>
QZJITCHJYSHIMV-KQSVRIFWSA-N
> <PUBCHEM_XLOGP3_AA>
-2.4
> <PUBCHEM_EXACT_MASS>
579.14488587
> <PUBCHEM_MOLECULAR_FORMULA>
C23H25N5O13
> <PUBCHEM_MOLECULAR_WEIGHT>
579.5
> <PUBCHEM_OPENEYE_CAN_SMILES>
COC1C(C(OC1C(C(=O)N)OC2C(C(C=C(O2)C(=O)NC3=CC=CC=C3[N+](=O)[O-])O)O)N4C=CC(=O)NC4=O)O
> <PUBCHEM_OPENEYE_ISO_SMILES>
CO[C@H]1[C@H]([C@@H](O[C@@H]1[C@H](C(=O)N)O[C@@H]2[C@H]([C@H](C=C(O2)C(=O)NC3=CC=CC=C3[N+](=O)[O-])O)O)N4C=CC(=O)NC4=O)O
> <PUBCHEM_CACTVS_TPSA>
265
> <PUBCHEM_MONOISOTOPIC_WEIGHT>
579.14488587
> <PUBCHEM_TOTAL_CHARGE>
0
> <PUBCHEM_HEAVY_ATOM_COUNT>
41
> <PUBCHEM_ATOM_DEF_STEREO_COUNT>
8
> <PUBCHEM_ATOM_UDEF_STEREO_COUNT>
0
> <PUBCHEM_BOND_DEF_STEREO_COUNT>
0
> <PUBCHEM_BOND_UDEF_STEREO_COUNT>
0
> <PUBCHEM_ISOTOPIC_ATOM_COUNT>
0
> <PUBCHEM_COMPONENT_COUNT>
1
> <PUBCHEM_CACTVS_TAUTO_COUNT>
-1
> <PUBCHEM_COORDINATE_TYPE>
1
5
255
> <PUBCHEM_BONDANNOTATIONS>
22  14  6
14  27  8
14  28  8
16  27  8
16  34  8
19  42  5
20  2  5
28  32  8
23  3  6
24  3  5
32  34  8
36  37  8
36  38  8
37  39  8
38  40  8
39  41  8
21  4  5
40  41  8
26  6  6
29  8  6
$$$$
