513530
  -OEChem-10302200282D
 73 76  0     1  0  0  0  0  0999 V2000
   13.3059   -0.6774    0.0000 O   0  0  0  0  0  0  0  0  0  0  0  0
   11.7537   -2.7478    0.0000 O   0  0  0  0  0  0  0  0  0  0  0  0
   11.5263    0.4159    0.0000 O   0  0  0  0  0  0  0  0  0  0  0  0
   13.8817   -3.2001    0.0000 O   0  0  0  0  0  0  0  0  0  0  0  0
    9.7942    0.4159    0.0000 O   0  0  0  0  0  0  0  0  0  0  0  0
    9.7942   -0.5841    0.0000 O   0  0  0  0  0  0  0  0  0  0  0  0
   11.5263    2.4159    0.0000 O   0  0  0  0  0  0  0  0  0  0  0  0
    9.7942    3.4159    0.0000 O   0  0  0  0  0  0  0  0  0  0  0  0
   15.1506   -3.0385    0.0000 O   0  0  0  0  0  0  0  0  0  0  0  0
   17.9531   -1.0024    0.0000 O   0  0  0  0  0  0  0  0  0  0  0  0
    8.0622   -0.5841    0.0000 O   0  0  0  0  0  0  0  0  0  0  0  0
   14.9695   -1.3160    0.0000 N   0  0  0  0  0  0  0  0  0  0  0  0
   16.5518   -2.0205    0.0000 N   0  0  0  0  0  0  0  0  0  0  0  0
   10.6603   -2.0841    0.0000 N   0  0  0  0  0  0  0  0  0  0  0  0
    7.1962    0.9159    0.0000 N   0  0  0  0  0  0  0  0  0  0  0  0
   12.3923   -1.0841    0.0000 C   0  0  1  0  0  0  0  0  0  0  0  0
   12.4968   -2.0786    0.0000 C   0  0  2  0  0  0  0  0  0  0  0  0
   13.4750   -2.2865    0.0000 C   0  0  2  0  0  0  0  0  0  0  0  0
   13.9750   -1.4205    0.0000 C   0  0  1  0  0  0  0  0  0  0  0  0
   11.5263   -0.5841    0.0000 C   0  0  2  0  0  0  0  0  0  0  0  0
   10.6603    0.9159    0.0000 C   0  0  1  0  0  0  0  0  0  0  0  0
   10.6603   -1.0841    0.0000 C   0  0  0  0  0  0  0  0  0  0  0  0
   10.6603    1.9159    0.0000 C   0  0  2  0  0  0  0  0  0  0  0  0
   15.5573   -2.1250    0.0000 C   0  0  0  0  0  0  0  0  0  0  0  0
   15.3762   -0.4024    0.0000 C   0  0  0  0  0  0  0  0  0  0  0  0
   11.9616   -3.7259    0.0000 C   0  0  0  0  0  0  0  0  0  0  0  0
    9.7942    2.4159    0.0000 C   0  0  2  0  0  0  0  0  0  0  0  0
   16.3708   -0.2979    0.0000 C   0  0  0  0  0  0  0  0  0  0  0  0
    8.9282    1.9159    0.0000 C   0  0  0  0  0  0  0  0  0  0  0  0
    8.9282    0.9159    0.0000 C   0  0  0  0  0  0  0  0  0  0  0  0
   16.9585   -1.1069    0.0000 C   0  0  0  0  0  0  0  0  0  0  0  0
    8.0622    0.4159    0.0000 C   0  0  0  0  0  0  0  0  0  0  0  0
    6.3301    0.4159    0.0000 C   0  0  0  0  0  0  0  0  0  0  0  0
    5.4641    0.9159    0.0000 C   0  0  0  0  0  0  0  0  0  0  0  0
    4.5981    0.4159    0.0000 C   0  0  0  0  0  0  0  0  0  0  0  0
    3.7320    0.9159    0.0000 C   0  0  0  0  0  0  0  0  0  0  0  0
    4.5981   -0.5841    0.0000 C   0  0  0  0  0  0  0  0  0  0  0  0
    2.8660    0.4159    0.0000 C   0  0  0  0  0  0  0  0  0  0  0  0
    3.7320   -1.0841    0.0000 C   0  0  0  0  0  0  0  0  0  0  0  0
    2.8660   -0.5841    0.0000 C   0  0  0  0  0  0  0  0  0  0  0  0
    2.0000   -1.0841    0.0000 C   0  0  0  0  0  0  0  0  0  0  0  0
   12.4368   -0.2353    0.0000 H   0  0  0  0  0  0  0  0  0  0  0  0
   11.9180   -1.8564    0.0000 H   0  0  0  0  0  0  0  0  0  0  0  0
   14.0941   -2.3190    0.0000 H   0  0  0  0  0  0  0  0  0  0  0  0
   14.1972   -0.8417    0.0000 H   0  0  0  0  0  0  0  0  0  0  0  0
   10.9893   -0.2741    0.0000 H   0  0  0  0  0  0  0  0  0  0  0  0
   11.1972    1.2259    0.0000 H   0  0  0  0  0  0  0  0  0  0  0  0
   13.5173   -3.7017    0.0000 H   0  0  0  0  0  0  0  0  0  0  0  0
   10.6603    2.5359    0.0000 H   0  0  0  0  0  0  0  0  0  0  0  0
   15.0118    0.0992    0.0000 H   0  0  0  0  0  0  0  0  0  0  0  0
   11.3551   -3.8548    0.0000 H   0  0  0  0  0  0  0  0  0  0  0  0
   12.0905   -4.3324    0.0000 H   0  0  0  0  0  0  0  0  0  0  0  0
   12.5681   -3.5970    0.0000 H   0  0  0  0  0  0  0  0  0  0  0  0
    9.2573    2.7259    0.0000 H   0  0  0  0  0  0  0  0  0  0  0  0
   16.9162   -2.5221    0.0000 H   0  0  0  0  0  0  0  0  0  0  0  0
   16.6229    0.2685    0.0000 H   0  0  0  0  0  0  0  0  0  0  0  0
   10.1233   -2.3941    0.0000 H   0  0  0  0  0  0  0  0  0  0  0  0
   11.1972   -2.3941    0.0000 H   0  0  0  0  0  0  0  0  0  0  0  0
    8.3913    2.2259    0.0000 H   0  0  0  0  0  0  0  0  0  0  0  0
   11.5263    3.0359    0.0000 H   0  0  0  0  0  0  0  0  0  0  0  0
    9.2573    3.7259    0.0000 H   0  0  0  0  0  0  0  0  0  0  0  0
    7.1962    1.5359    0.0000 H   0  0  0  0  0  0  0  0  0  0  0  0
    5.9316   -0.0590    0.0000 H   0  0  0  0  0  0  0  0  0  0  0  0
    6.7287   -0.0590    0.0000 H   0  0  0  0  0  0  0  0  0  0  0  0
    5.8626    1.3908    0.0000 H   0  0  0  0  0  0  0  0  0  0  0  0
    5.0656    1.3908    0.0000 H   0  0  0  0  0  0  0  0  0  0  0  0
    3.7320    1.5359    0.0000 H   0  0  0  0  0  0  0  0  0  0  0  0
    5.1350   -0.8941    0.0000 H   0  0  0  0  0  0  0  0  0  0  0  0
    2.3291    0.7259    0.0000 H   0  0  0  0  0  0  0  0  0  0  0  0
    3.7320   -1.7041    0.0000 H   0  0  0  0  0  0  0  0  0  0  0  0
    1.6900   -0.5472    0.0000 H   0  0  0  0  0  0  0  0  0  0  0  0
    1.4631   -1.3941    0.0000 H   0  0  0  0  0  0  0  0  0  0  0  0
    2.3100   -1.6210    0.0000 H   0  0  0  0  0  0  0  0  0  0  0  0
  1 16  1  0  0  0  0
  1 19  1  0  0  0  0
 17  2  1  6  0  0  0
  2 26  1  0  0  0  0
 20  3  1  6  0  0  0
 21  3  1  1  0  0  0
 18  4  1  6  0  0  0
  4 48  1  0  0  0  0
  5 21  1  0  0  0  0
  5 30  1  0  0  0  0
  6 22  2  0  0  0  0
 23  7  1  6  0  0  0
  7 60  1  0  0  0  0
 27  8  1  6  0  0  0
  8 61  1  0  0  0  0
  9 24  2  0  0  0  0
 10 31  2  0  0  0  0
 11 32  2  0  0  0  0
 19 12  1  1  0  0  0
 12 24  1  0  0  0  0
 12 25  1  0  0  0  0
 13 24  1  0  0  0  0
 13 31  1  0  0  0  0
 13 55  1  0  0  0  0
 14 22  1  0  0  0  0
 14 57  1  0  0  0  0
 14 58  1  0  0  0  0
 15 32  1  0  0  0  0
 15 33  1  0  0  0  0
 15 62  1  0  0  0  0
 16 17  1  0  0  0  0
 16 20  1  0  0  0  0
 16 42  1  6  0  0  0
 17 18  1  0  0  0  0
 17 43  1  0  0  0  0
 18 19  1  0  0  0  0
 18 44  1  0  0  0  0
 19 45  1  0  0  0  0
 20 22  1  0  0  0  0
 20 46  1  0  0  0  0
 21 23  1  0  0  0  0
 21 47  1  0  0  0  0
 23 27  1  0  0  0  0
 23 49  1  0  0  0  0
 25 28  2  0  0  0  0
 25 50  1  0  0  0  0
 26 51  1  0  0  0  0
 26 52  1  0  0  0  0
 26 53  1  0  0  0  0
 27 29  1  0  0  0  0
 27 54  1  0  0  0  0
 28 31  1  0  0  0  0
 28 56  1  0  0  0  0
 29 30  2  0  0  0  0
 29 59  1  0  0  0  0
 30 32  1  0  0  0  0
 33 34  1  0  0  0  0
 33 63  1  0  0  0  0
 33 64  1  0  0  0  0
 34 35  1  0  0  0  0
 34 65  1  0  0  0  0
 34 66  1  0  0  0  0
 35 36  2  0  0  0  0
 35 37  1  0  0  0  0
 36 38  1  0  0  0  0
 36 67  1  0  0  0  0
 37 39  2  0  0  0  0
 37 68  1  0  0  0  0
 38 40  2  0  0  0  0
 38 69  1  0  0  0  0
 39 40  1  0  0  0  0
 39 70  1  0  0  0  0
 40 41  1  0  0  0  0
 41 71  1  0  0  0  0
 41 72  1  0  0  0  0
 41 73  1  0  0  0  0
M  END
> <PUBCHEM_COMPOUND_CID>
513530
> <PUBCHEM_COMPOUND_CANONICALIZED>
1
> <PUBCHEM_CACTVS_COMPLEXITY>
1060
> <PUBCHEM_CACTVS_HBOND_ACCEPTOR>
11
> <PUBCHEM_CACTVS_HBOND_DONOR>
6
> <PUBCHEM_CACTVS_ROTATABLE_BOND>
10
> <PUBCHEM_CACTVS_SUBSKEYS>
AAADcfB7vAAAAAAAAAAAAAAAAAAAASAAAAAwQIAAAAAAAAABAAAAHgAQCAAADBTxmAczCIPABgCIAiFWUAKCCAAgIgAIiIFIAMibNDaAkRWvcAAv9yKfmcf6/M5OQAAAAAAAAACAAAAAAAAAAAAAAAAAAA==
> <PUBCHEM_IUPAC_OPENEYE_NAME>
(2S,3S,4S)-2-[(1R)-2-amino-1-[(2S,3S,4R,5R)-5-(2,4-dioxopyrimidin-1-yl)-4-hydroxy-3-methoxy-tetrahydrofuran-2-yl]-2-oxo-ethoxy]-3,4-dihydroxy-N-[2-(p-tolyl)ethyl]-3,4-dihydro-2H-pyran-6-carboxamide
> <PUBCHEM_IUPAC_CAS_NAME>
(2S,3S,4S)-2-[(1R)-2-amino-1-[(2S,3S,4R,5R)-5-(2,4-dioxo-1-pyrimidinyl)-4-hydroxy-3-methoxy-2-oxolanyl]-2-oxoethoxy]-3,4-dihydroxy-N-[2-(4-methylphenyl)ethyl]-3,4-dihydro-2H-pyran-6-carboxamide
> <PUBCHEM_IUPAC_NAME_MARKUP>
(2<I>S</I>,3<I>S</I>,4<I>S</I>)-2-[(1<I>R</I>)-2-amino-1-[(2<I>S</I>,3<I>S</I>,4<I>R</I>,5<I>R</I>)-5-(2,4-dioxopyrimidin-1-yl)-4-hydroxy-3-methoxyoxolan-2-yl]-2-oxoethoxy]-3,4-dihydroxy-<I>N</I>-[2-(4-methylphenyl)ethyl]-3,4-dihydro-2<I>H</I>-pyran-6-carboxamide
> <PUBCHEM_IUPAC_NAME>
(2S,3S,4S)-2-[(1R)-2-amino-1-[(2S,3S,4R,5R)-5-(2,4-dioxopyrimidin-1-yl)-4-hydroxy-3-methoxyoxolan-2-yl]-2-oxoethoxy]-3,4-dihydroxy-N-[2-(4-methylphenyl)ethyl]-3,4-dihydro-2H-pyran-6-carboxamide
> <PUBCHEM_IUPAC_SYSTEMATIC_NAME>
(2S,3S,4S)-2-[(1R)-2-azanyl-1-[(2S,3S,4R,5R)-5-[2,4-bis(oxidanylidene)pyrimidin-1-yl]-3-methoxy-4-oxidanyl-oxolan-2-yl]-2-oxidanylidene-ethoxy]-N-[2-(4-methylphenyl)ethyl]-3,4-bis(oxidanyl)-3,4-dihydro-2H-pyran-6-carboxamide
> <PUBCHEM_IUPAC_TRADITIONAL_NAME>
(2S,3S,4S)-2-[(1R)-2-amino-1-[(2S,3S,4R,5R)-5-(2,4-diketopyrimidin-1-yl)-4-hydroxy-3-methoxy-tetrahydrofuran-2-yl]-2-keto-ethoxy]-3,4-dihydroxy-N-[2-(p-tolyl)ethyl]-3,4-dihydro-2H-pyran-6-carboxamide
> <PUBCHEM_IUPAC_INCHI>
InChI=1S/C26H32N4O11/c1-12-3-5-13(6-4-12)7-9-28-23(36)15-11-14(31)17(33)25(39-15)41-21(22(27)35)20-19(38-2)18(34)24(40-20)30-10-8-16(32)29-26(30)37/h3-6,8,10-11,14,17-21,24-25,31,33-34H,7,9H2,1-2H3,(H2,27,35)(H,28,36)(H,29,32,37)/t14-,17-,18+,19-,20-,21+,24+,25+/m0/s1
> <PUBCHEM_IUPAC_INCHIKEY>
ROLOFVDZFJYEGH-QNFDJTDDSA-N
> <PUBCHEM_XLOGP3_AA>
-2
> <PUBCHEM_EXACT_MASS>
576.20675785
> <PUBCHEM_MOLECULAR_FORMULA>
C26H32N4O11
> <PUBCHEM_MOLECULAR_WEIGHT>
576.6
> <PUBCHEM_OPENEYE_CAN_SMILES>
CC1=CC=C(C=C1)CCNC(=O)C2=CC(C(C(O2)OC(C3C(C(C(O3)N4C=CC(=O)NC4=O)O)OC)C(=O)N)O)O
> <PUBCHEM_OPENEYE_ISO_SMILES>
CC1=CC=C(C=C1)CCNC(=O)C2=C[C@@H]([C@@H]([C@H](O2)O[C@H]([C@@H]3[C@H]([C@H]([C@@H](O3)N4C=CC(=O)NC4=O)O)OC)C(=O)N)O)O
> <PUBCHEM_CACTVS_TPSA>
219
> <PUBCHEM_MONOISOTOPIC_WEIGHT>
576.20675785
> <PUBCHEM_TOTAL_CHARGE>
0
> <PUBCHEM_HEAVY_ATOM_COUNT>
41
> <PUBCHEM_ATOM_DEF_STEREO_COUNT>
8
> <PUBCHEM_ATOM_UDEF_STEREO_COUNT>
0
> <PUBCHEM_BOND_DEF_STEREO_COUNT>
0
> <PUBCHEM_BOND_UDEF_STEREO_COUNT>
0
> <PUBCHEM_ISOTOPIC_ATOM_COUNT>
0
> <PUBCHEM_COMPONENT_COUNT>
1
> <PUBCHEM_CACTVS_TAUTO_COUNT>
-1
> <PUBCHEM_COORDINATE_TYPE>
1
5
255
> <PUBCHEM_BONDANNOTATIONS>
19  12  5
12  24  8
12  25  8
13  24  8
13  31  8
16  42  6
17  2  6
25  28  8
28  31  8
20  3  6
21  3  5
35  36  8
35  37  8
36  38  8
37  39  8
38  40  8
39  40  8
18  4  6
23  7  6
27  8  6
$$$$
