513553
  -OEChem-10302200282D
 73 77  0     1  0  0  0  0  0999 V2000
    5.9440    0.9503    0.0000 O   0  0  0  0  0  0  0  0  0  0  0  0
    3.3749    0.6413    0.0000 O   0  0  0  0  0  0  0  0  0  0  0  0
    4.2690   -1.1374    0.0000 O   0  0  0  0  0  0  0  0  0  0  0  0
    4.0472    2.7104    0.0000 O   0  0  0  0  0  0  0  0  0  0  0  0
    5.1350   -2.6374    0.0000 O   0  0  0  0  0  0  0  0  0  0  0  0
    6.0010   -2.1374    0.0000 O   0  0  0  0  0  0  0  0  0  0  0  0
    2.5369   -2.1374    0.0000 O   0  0  0  0  0  0  0  0  0  0  0  0
    2.5369   -4.1374    0.0000 O   0  0  0  0  0  0  0  0  0  0  0  0
    4.8215    3.7285    0.0000 O   0  0  0  0  0  0  0  0  0  0  0  0
    7.9862    5.1374    0.0000 O   0  0  0  0  0  0  0  0  0  0  0  0
    6.0010   -5.1374    0.0000 O   0  0  0  0  0  0  0  0  0  0  0  0
    6.2228    2.7104    0.0000 N   0  0  0  0  0  0  0  0  0  0  0  0
    6.4038    4.4330    0.0000 N   0  0  0  0  0  0  0  0  0  0  0  0
    6.8671   -0.6375    0.0000 N   0  0  0  0  0  0  0  0  0  0  0  0
    6.8671   -3.6374    0.0000 N   0  0  0  0  0  0  0  0  0  0  0  0
    5.1350    0.3625    0.0000 C   0  0  1  0  0  0  0  0  0  0  0  0
    4.3260    0.9503    0.0000 C   0  0  2  0  0  0  0  0  0  0  0  0
    4.6350    1.9014    0.0000 C   0  0  2  0  0  0  0  0  0  0  0  0
    5.6350    1.9014    0.0000 C   0  0  1  0  0  0  0  0  0  0  0  0
    5.1350   -0.6375    0.0000 C   0  0  2  0  0  0  0  0  0  0  0  0
    4.2690   -2.1374    0.0000 C   0  0  1  0  0  0  0  0  0  0  0  0
    6.0010   -1.1374    0.0000 C   0  0  0  0  0  0  0  0  0  0  0  0
    3.4030   -2.6374    0.0000 C   0  0  2  0  0  0  0  0  0  0  0  0
    5.8161    3.6240    0.0000 C   0  0  0  0  0  0  0  0  0  0  0  0
    7.2173    2.6059    0.0000 C   0  0  0  0  0  0  0  0  0  0  0  0
    2.6318    1.3104    0.0000 C   0  0  0  0  0  0  0  0  0  0  0  0
    3.4030   -3.6374    0.0000 C   0  0  2  0  0  0  0  0  0  0  0  0
    7.8051    3.4149    0.0000 C   0  0  0  0  0  0  0  0  0  0  0  0
    4.2690   -4.1374    0.0000 C   0  0  0  0  0  0  0  0  0  0  0  0
    5.1350   -3.6374    0.0000 C   0  0  0  0  0  0  0  0  0  0  0  0
    7.3984    4.3284    0.0000 C   0  0  0  0  0  0  0  0  0  0  0  0
    6.0010   -4.1374    0.0000 C   0  0  0  0  0  0  0  0  0  0  0  0
    7.7331   -4.1374    0.0000 C   0  0  0  0  0  0  0  0  0  0  0  0
    8.5991   -3.6374    0.0000 C   0  0  0  0  0  0  0  0  0  0  0  0
    9.4651   -4.1374    0.0000 C   0  0  0  0  0  0  0  0  0  0  0  0
    8.5991   -2.6374    0.0000 C   0  0  0  0  0  0  0  0  0  0  0  0
   10.3312   -3.6374    0.0000 C   0  0  0  0  0  0  0  0  0  0  0  0
   10.3312   -2.6374    0.0000 C   0  0  0  0  0  0  0  0  0  0  0  0
    9.4651   -2.1374    0.0000 C   0  0  0  0  0  0  0  0  0  0  0  0
   11.2251   -4.1721    0.0000 C   0  0  0  0  0  0  0  0  0  0  0  0
   11.2251   -2.1028    0.0000 C   0  0  0  0  0  0  0  0  0  0  0  0
   12.1312   -3.6583    0.0000 C   0  0  0  0  0  0  0  0  0  0  0  0
   12.1312   -2.6166    0.0000 C   0  0  0  0  0  0  0  0  0  0  0  0
    5.8924   -0.0233    0.0000 H   0  0  0  0  0  0  0  0  0  0  0  0
    3.8876    1.3887    0.0000 H   0  0  0  0  0  0  0  0  0  0  0  0
    4.9165    2.4538    0.0000 H   0  0  0  0  0  0  0  0  0  0  0  0
    6.2474    1.8044    0.0000 H   0  0  0  0  0  0  0  0  0  0  0  0
    5.1350   -1.2574    0.0000 H   0  0  0  0  0  0  0  0  0  0  0  0
    3.7320   -1.8274    0.0000 H   0  0  0  0  0  0  0  0  0  0  0  0
    3.4306    2.6456    0.0000 H   0  0  0  0  0  0  0  0  0  0  0  0
    3.4030   -2.0175    0.0000 H   0  0  0  0  0  0  0  0  0  0  0  0
    7.4695    2.0395    0.0000 H   0  0  0  0  0  0  0  0  0  0  0  0
    3.0466    1.7712    0.0000 H   0  0  0  0  0  0  0  0  0  0  0  0
    2.1710    1.7253    0.0000 H   0  0  0  0  0  0  0  0  0  0  0  0
    2.2169    0.8497    0.0000 H   0  0  0  0  0  0  0  0  0  0  0  0
    3.4030   -4.2575    0.0000 H   0  0  0  0  0  0  0  0  0  0  0  0
    6.1517    4.9994    0.0000 H   0  0  0  0  0  0  0  0  0  0  0  0
    8.4217    3.3501    0.0000 H   0  0  0  0  0  0  0  0  0  0  0  0
    7.4040   -0.9475    0.0000 H   0  0  0  0  0  0  0  0  0  0  0  0
    6.8671   -0.0175    0.0000 H   0  0  0  0  0  0  0  0  0  0  0  0
    4.2690   -4.7575    0.0000 H   0  0  0  0  0  0  0  0  0  0  0  0
    2.0000   -2.4474    0.0000 H   0  0  0  0  0  0  0  0  0  0  0  0
    2.5369   -4.7575    0.0000 H   0  0  0  0  0  0  0  0  0  0  0  0
    6.8671   -3.0175    0.0000 H   0  0  0  0  0  0  0  0  0  0  0  0
    7.3346   -4.6124    0.0000 H   0  0  0  0  0  0  0  0  0  0  0  0
    8.1316   -4.6124    0.0000 H   0  0  0  0  0  0  0  0  0  0  0  0
    9.4651   -4.7575    0.0000 H   0  0  0  0  0  0  0  0  0  0  0  0
    8.0622   -2.3274    0.0000 H   0  0  0  0  0  0  0  0  0  0  0  0
    9.4651   -1.5174    0.0000 H   0  0  0  0  0  0  0  0  0  0  0  0
   11.2179   -4.7921    0.0000 H   0  0  0  0  0  0  0  0  0  0  0  0
   11.2179   -1.4828    0.0000 H   0  0  0  0  0  0  0  0  0  0  0  0
   12.6669   -3.9703    0.0000 H   0  0  0  0  0  0  0  0  0  0  0  0
   12.6669   -2.3046    0.0000 H   0  0  0  0  0  0  0  0  0  0  0  0
  1 16  1  0  0  0  0
  1 19  1  0  0  0  0
 17  2  1  1  0  0  0
  2 26  1  0  0  0  0
 20  3  1  6  0  0  0
 21  3  1  1  0  0  0
 18  4  1  1  0  0  0
  4 50  1  0  0  0  0
  5 21  1  0  0  0  0
  5 30  1  0  0  0  0
  6 22  2  0  0  0  0
 23  7  1  6  0  0  0
  7 62  1  0  0  0  0
 27  8  1  6  0  0  0
  8 63  1  0  0  0  0
  9 24  2  0  0  0  0
 10 31  2  0  0  0  0
 11 32  2  0  0  0  0
 19 12  1  6  0  0  0
 12 24  1  0  0  0  0
 12 25  1  0  0  0  0
 13 24  1  0  0  0  0
 13 31  1  0  0  0  0
 13 57  1  0  0  0  0
 14 22  1  0  0  0  0
 14 59  1  0  0  0  0
 14 60  1  0  0  0  0
 15 32  1  0  0  0  0
 15 33  1  0  0  0  0
 15 64  1  0  0  0  0
 16 17  1  0  0  0  0
 16 20  1  0  0  0  0
 16 44  1  1  0  0  0
 17 18  1  0  0  0  0
 17 45  1  0  0  0  0
 18 19  1  0  0  0  0
 18 46  1  0  0  0  0
 19 47  1  0  0  0  0
 20 22  1  0  0  0  0
 20 48  1  0  0  0  0
 21 23  1  0  0  0  0
 21 49  1  0  0  0  0
 23 27  1  0  0  0  0
 23 51  1  0  0  0  0
 25 28  2  0  0  0  0
 25 52  1  0  0  0  0
 26 53  1  0  0  0  0
 26 54  1  0  0  0  0
 26 55  1  0  0  0  0
 27 29  1  0  0  0  0
 27 56  1  0  0  0  0
 28 31  1  0  0  0  0
 28 58  1  0  0  0  0
 29 30  2  0  0  0  0
 29 61  1  0  0  0  0
 30 32  1  0  0  0  0
 33 34  1  0  0  0  0
 33 65  1  0  0  0  0
 33 66  1  0  0  0  0
 34 35  2  0  0  0  0
 34 36  1  0  0  0  0
 35 37  1  0  0  0  0
 35 67  1  0  0  0  0
 36 39  2  0  0  0  0
 36 68  1  0  0  0  0
 37 38  1  0  0  0  0
 37 40  2  0  0  0  0
 38 39  1  0  0  0  0
 38 41  2  0  0  0  0
 39 69  1  0  0  0  0
 40 42  1  0  0  0  0
 40 70  1  0  0  0  0
 41 43  1  0  0  0  0
 41 71  1  0  0  0  0
 42 43  2  0  0  0  0
 42 72  1  0  0  0  0
 43 73  1  0  0  0  0
M  END
> <PUBCHEM_COMPOUND_CID>
513553
> <PUBCHEM_COMPOUND_CANONICALIZED>
1
> <PUBCHEM_CACTVS_COMPLEXITY>
1150
> <PUBCHEM_CACTVS_HBOND_ACCEPTOR>
11
> <PUBCHEM_CACTVS_HBOND_DONOR>
6
> <PUBCHEM_CACTVS_ROTATABLE_BOND>
9
> <PUBCHEM_CACTVS_SUBSKEYS>
AAADceB7vAAAAAAAAAAAAAAAAAAAASAAAAAwYIEAAAAAAADBUAAAHgAQCAAADBTxmAczCMPABgCIAiFWUAKCCAAgIgAIiIFIBMibNDaAkRWvcAhv9yKfmcf6/M5OwAACAAAQAACAAAQAACAAAAAAAAAAAA==
> <PUBCHEM_IUPAC_OPENEYE_NAME>
(2S,3S,4S)-2-[(1R)-2-amino-1-[(2S,3S,4R,5R)-5-(2,4-dioxopyrimidin-1-yl)-4-hydroxy-3-methoxy-tetrahydrofuran-2-yl]-2-oxo-ethoxy]-3,4-dihydroxy-N-(2-naphthylmethyl)-3,4-dihydro-2H-pyran-6-carboxamide
> <PUBCHEM_IUPAC_CAS_NAME>
(2S,3S,4S)-2-[(1R)-2-amino-1-[(2S,3S,4R,5R)-5-(2,4-dioxo-1-pyrimidinyl)-4-hydroxy-3-methoxy-2-oxolanyl]-2-oxoethoxy]-3,4-dihydroxy-N-(2-naphthalenylmethyl)-3,4-dihydro-2H-pyran-6-carboxamide
> <PUBCHEM_IUPAC_NAME_MARKUP>
(2<I>S</I>,3<I>S</I>,4<I>S</I>)-2-[(1<I>R</I>)-2-amino-1-[(2<I>S</I>,3<I>S</I>,4<I>R</I>,5<I>R</I>)-5-(2,4-dioxopyrimidin-1-yl)-4-hydroxy-3-methoxyoxolan-2-yl]-2-oxoethoxy]-3,4-dihydroxy-<I>N</I>-(naphthalen-2-ylmethyl)-3,4-dihydro-2<I>H</I>-pyran-6-carboxamide
> <PUBCHEM_IUPAC_NAME>
(2S,3S,4S)-2-[(1R)-2-amino-1-[(2S,3S,4R,5R)-5-(2,4-dioxopyrimidin-1-yl)-4-hydroxy-3-methoxyoxolan-2-yl]-2-oxoethoxy]-3,4-dihydroxy-N-(naphthalen-2-ylmethyl)-3,4-dihydro-2H-pyran-6-carboxamide
> <PUBCHEM_IUPAC_SYSTEMATIC_NAME>
(2S,3S,4S)-2-[(1R)-2-azanyl-1-[(2S,3S,4R,5R)-5-[2,4-bis(oxidanylidene)pyrimidin-1-yl]-3-methoxy-4-oxidanyl-oxolan-2-yl]-2-oxidanylidene-ethoxy]-N-(naphthalen-2-ylmethyl)-3,4-bis(oxidanyl)-3,4-dihydro-2H-pyran-6-carboxamide
> <PUBCHEM_IUPAC_TRADITIONAL_NAME>
(2S,3S,4S)-2-[(1R)-2-amino-1-[(2S,3S,4R,5R)-5-(2,4-diketopyrimidin-1-yl)-4-hydroxy-3-methoxy-tetrahydrofuran-2-yl]-2-keto-ethoxy]-3,4-dihydroxy-N-(2-naphthylmethyl)-3,4-dihydro-2H-pyran-6-carboxamide
> <PUBCHEM_IUPAC_INCHI>
InChI=1S/C28H30N4O11/c1-40-21-20(36)26(32-9-8-18(34)31-28(32)39)42-22(21)23(24(29)37)43-27-19(35)16(33)11-17(41-27)25(38)30-12-13-6-7-14-4-2-3-5-15(14)10-13/h2-11,16,19-23,26-27,33,35-36H,12H2,1H3,(H2,29,37)(H,30,38)(H,31,34,39)/t16-,19-,20+,21-,22-,23+,26+,27+/m0/s1
> <PUBCHEM_IUPAC_INCHIKEY>
RDNQKMNISNCQES-VBSJWYBQSA-N
> <PUBCHEM_XLOGP3_AA>
-1.6
> <PUBCHEM_EXACT_MASS>
598.19110779
> <PUBCHEM_MOLECULAR_FORMULA>
C28H30N4O11
> <PUBCHEM_MOLECULAR_WEIGHT>
598.6
> <PUBCHEM_OPENEYE_CAN_SMILES>
COC1C(C(OC1C(C(=O)N)OC2C(C(C=C(O2)C(=O)NCC3=CC4=CC=CC=C4C=C3)O)O)N5C=CC(=O)NC5=O)O
> <PUBCHEM_OPENEYE_ISO_SMILES>
CO[C@H]1[C@H]([C@@H](O[C@@H]1[C@H](C(=O)N)O[C@@H]2[C@H]([C@H](C=C(O2)C(=O)NCC3=CC4=CC=CC=C4C=C3)O)O)N5C=CC(=O)NC5=O)O
> <PUBCHEM_CACTVS_TPSA>
219
> <PUBCHEM_MONOISOTOPIC_WEIGHT>
598.19110779
> <PUBCHEM_TOTAL_CHARGE>
0
> <PUBCHEM_HEAVY_ATOM_COUNT>
43
> <PUBCHEM_ATOM_DEF_STEREO_COUNT>
8
> <PUBCHEM_ATOM_UDEF_STEREO_COUNT>
0
> <PUBCHEM_BOND_DEF_STEREO_COUNT>
0
> <PUBCHEM_BOND_UDEF_STEREO_COUNT>
0
> <PUBCHEM_ISOTOPIC_ATOM_COUNT>
0
> <PUBCHEM_COMPONENT_COUNT>
1
> <PUBCHEM_CACTVS_TAUTO_COUNT>
-1
> <PUBCHEM_COORDINATE_TYPE>
1
5
255
> <PUBCHEM_BONDANNOTATIONS>
19  12  6
12  24  8
12  25  8
13  24  8
13  31  8
16  44  5
17  2  5
25  28  8
28  31  8
20  3  6
21  3  5
34  35  8
34  36  8
35  37  8
36  39  8
37  38  8
37  40  8
38  39  8
38  41  8
18  4  5
40  42  8
41  43  8
42  43  8
23  7  6
27  8  6
$$$$
