513505
  -OEChem-10302200282D
 59 63  0     1  0  0  0  0  0999 V2000
    3.4026    3.1578    0.0000 O   0  0  0  0  0  0  0  0  0  0  0  0
    6.7523    4.2398    0.0000 O   0  0  0  0  0  0  0  0  0  0  0  0
    4.6783   -0.2139    0.0000 N   0  0  3  0  0  0  0  0  0  0  0  0
    7.6900    0.7589    0.0000 N   0  0  0  0  0  0  0  0  0  0  0  0
    4.9917    3.9641    0.0000 N   0  0  0  0  0  0  0  0  0  0  0  0
    3.9639   -3.6036    0.0000 N   0  0  0  0  0  0  0  0  0  0  0  0
    4.6783    1.3956    0.0000 C   0  0  3  0  0  0  0  0  0  0  0  0
    5.2619    0.5908    0.0000 C   0  0  0  0  0  0  0  0  0  0  0  0
    4.9889    2.3461    0.0000 C   0  0  0  0  0  0  0  0  0  0  0  0
    3.7320    1.0908    0.0000 C   0  0  0  0  0  0  0  0  0  0  0  0
    6.7485    2.0642    0.0000 C   0  0  3  0  0  0  0  0  0  0  0  0
    5.9405    2.6534    0.0000 C   0  0  0  0  0  0  0  0  0  0  0  0
    3.7320    0.0908    0.0000 C   0  0  0  0  0  0  0  0  0  0  0  0
    4.9889   -1.1644    0.0000 C   0  0  0  0  0  0  0  0  0  0  0  0
    6.7459    1.0702    0.0000 C   0  0  0  0  0  0  0  0  0  0  0  0
    7.6942    2.3706    0.0000 C   0  0  0  0  0  0  0  0  0  0  0  0
    4.4026    3.1561    0.0000 C   0  0  0  0  0  0  0  0  0  0  0  0
    5.9422    3.6534    0.0000 C   0  0  0  0  0  0  0  0  0  0  0  0
    8.2792    1.5596    0.0000 C   0  0  0  0  0  0  0  0  0  0  0  0
    2.8660    1.5908    0.0000 C   0  0  0  0  0  0  0  0  0  0  0  0
    4.3211   -1.9087    0.0000 C   0  0  0  0  0  0  0  0  0  0  0  0
    2.8660   -0.4092    0.0000 C   0  0  0  0  0  0  0  0  0  0  0  0
    8.1041    3.2828    0.0000 C   0  0  0  0  0  0  0  0  0  0  0  0
    2.0000    1.0908    0.0000 C   0  0  0  0  0  0  0  0  0  0  0  0
    4.6318   -2.8593    0.0000 C   0  0  0  0  0  0  0  0  0  0  0  0
    2.0000    0.0908    0.0000 C   0  0  0  0  0  0  0  0  0  0  0  0
    9.2741    1.6607    0.0000 C   0  0  0  0  0  0  0  0  0  0  0  0
    9.0990    3.3838    0.0000 C   0  0  0  0  0  0  0  0  0  0  0  0
    9.6840    2.5728    0.0000 C   0  0  0  0  0  0  0  0  0  0  0  0
    4.2746   -4.5541    0.0000 C   0  0  0  0  0  0  0  0  0  0  0  0
    2.9854   -3.3973    0.0000 C   0  0  0  0  0  0  0  0  0  0  0  0
    5.2908    1.4917    0.0000 H   0  0  0  0  0  0  0  0  0  0  0  0
    5.7227    0.1761    0.0000 H   0  0  0  0  0  0  0  0  0  0  0  0
    5.7227    1.0055    0.0000 H   0  0  0  0  0  0  0  0  0  0  0  0
    6.1955    1.7840    0.0000 H   0  0  0  0  0  0  0  0  0  0  0  0
    5.3715   -1.6523    0.0000 H   0  0  0  0  0  0  0  0  0  0  0  0
    5.5359   -0.8724    0.0000 H   0  0  0  0  0  0  0  0  0  0  0  0
    6.1296    1.1369    0.0000 H   0  0  0  0  0  0  0  0  0  0  0  0
    6.6148    0.4642    0.0000 H   0  0  0  0  0  0  0  0  0  0  0  0
    2.8660    2.2108    0.0000 H   0  0  0  0  0  0  0  0  0  0  0  0
    3.9385   -1.4208    0.0000 H   0  0  0  0  0  0  0  0  0  0  0  0
    3.7742   -2.2008    0.0000 H   0  0  0  0  0  0  0  0  0  0  0  0
    7.8786    0.1683    0.0000 H   0  0  0  0  0  0  0  0  0  0  0  0
    2.8660   -1.0292    0.0000 H   0  0  0  0  0  0  0  0  0  0  0  0
    4.8012    4.5541    0.0000 H   0  0  0  0  0  0  0  0  0  0  0  0
    7.7414    3.7856    0.0000 H   0  0  0  0  0  0  0  0  0  0  0  0
    1.4631    1.4008    0.0000 H   0  0  0  0  0  0  0  0  0  0  0  0
    5.0143   -3.3472    0.0000 H   0  0  0  0  0  0  0  0  0  0  0  0
    5.1787   -2.5672    0.0000 H   0  0  0  0  0  0  0  0  0  0  0  0
    1.4631   -0.2192    0.0000 H   0  0  0  0  0  0  0  0  0  0  0  0
    9.6368    1.1578    0.0000 H   0  0  0  0  0  0  0  0  0  0  0  0
    9.3531    3.9494    0.0000 H   0  0  0  0  0  0  0  0  0  0  0  0
   10.3008    2.6355    0.0000 H   0  0  0  0  0  0  0  0  0  0  0  0
    3.6852   -4.7467    0.0000 H   0  0  0  0  0  0  0  0  0  0  0  0
    4.4672   -5.1434    0.0000 H   0  0  0  0  0  0  0  0  0  0  0  0
    4.8639   -4.3615    0.0000 H   0  0  0  0  0  0  0  0  0  0  0  0
    3.1133   -2.7907    0.0000 H   0  0  0  0  0  0  0  0  0  0  0  0
    2.3787   -3.2695    0.0000 H   0  0  0  0  0  0  0  0  0  0  0  0
    2.8575   -4.0040    0.0000 H   0  0  0  0  0  0  0  0  0  0  0  0
  1 17  2  0  0  0  0
  2 18  2  0  0  0  0
  3  8  1  0  0  0  0
  3 13  1  0  0  0  0
  3 14  1  0  0  0  0
  4 15  1  0  0  0  0
  4 19  1  0  0  0  0
  4 43  1  0  0  0  0
  5 17  1  0  0  0  0
  5 18  1  0  0  0  0
  5 45  1  0  0  0  0
  6 25  1  0  0  0  0
  6 30  1  0  0  0  0
  6 31  1  0  0  0  0
  7  8  1  0  0  0  0
  7  9  1  0  0  0  0
  7 10  1  0  0  0  0
  7 32  1  0  0  0  0
  8 33  1  0  0  0  0
  8 34  1  0  0  0  0
  9 12  2  0  0  0  0
  9 17  1  0  0  0  0
 10 13  1  0  0  0  0
 10 20  2  0  0  0  0
 11 12  1  0  0  0  0
 11 15  1  0  0  0  0
 11 16  1  0  0  0  0
 11 35  1  0  0  0  0
 12 18  1  0  0  0  0
 13 22  2  0  0  0  0
 14 21  1  0  0  0  0
 14 36  1  0  0  0  0
 14 37  1  0  0  0  0
 15 38  1  0  0  0  0
 15 39  1  0  0  0  0
 16 19  1  0  0  0  0
 16 23  2  0  0  0  0
 19 27  2  0  0  0  0
 20 24  1  0  0  0  0
 20 40  1  0  0  0  0
 21 25  1  0  0  0  0
 21 41  1  0  0  0  0
 21 42  1  0  0  0  0
 22 26  1  0  0  0  0
 22 44  1  0  0  0  0
 23 28  1  0  0  0  0
 23 46  1  0  0  0  0
 24 26  2  0  0  0  0
 24 47  1  0  0  0  0
 25 48  1  0  0  0  0
 25 49  1  0  0  0  0
 26 50  1  0  0  0  0
 27 29  1  0  0  0  0
 27 51  1  0  0  0  0
 28 29  2  0  0  0  0
 28 52  1  0  0  0  0
 29 53  1  0  0  0  0
 30 54  1  0  0  0  0
 30 55  1  0  0  0  0
 30 56  1  0  0  0  0
 31 57  1  0  0  0  0
 31 58  1  0  0  0  0
 31 59  1  0  0  0  0
M  END
> <PUBCHEM_COMPOUND_CID>
513505
> <PUBCHEM_COMPOUND_CANONICALIZED>
1
> <PUBCHEM_CACTVS_COMPLEXITY>
748
> <PUBCHEM_CACTVS_HBOND_ACCEPTOR>
5
> <PUBCHEM_CACTVS_HBOND_DONOR>
2
> <PUBCHEM_CACTVS_ROTATABLE_BOND>
6
> <PUBCHEM_CACTVS_SUBSKEYS>
AAADceB7sAAAAAAAAAAAAAAAAAAAAWLEAAAwYAAAAAAAAFgBQAAAHgAQAAAADQjBmAQywIPAAACIAiVSUACCAAAhAgAIiIEIZMgIIDLA0ZGEIAhglCDIyQccicCegAAAAAACAAAAAAAAAAQAAAAAAAAAAA==
> <PUBCHEM_IUPAC_OPENEYE_NAME>
3-[1-[3-(dimethylamino)propyl]indolin-3-yl]-4-indolin-3-yl-pyrrole-2,5-dione
> <PUBCHEM_IUPAC_CAS_NAME>
3-(2,3-dihydro-1H-indol-3-yl)-4-[1-[3-(dimethylamino)propyl]-2,3-dihydroindol-3-yl]pyrrole-2,5-dione
> <PUBCHEM_IUPAC_NAME_MARKUP>
3-(2,3-dihydro-1<I>H</I>-indol-3-yl)-4-[1-[3-(dimethylamino)propyl]-2,3-dihydroindol-3-yl]pyrrole-2,5-dione
> <PUBCHEM_IUPAC_NAME>
3-(2,3-dihydro-1H-indol-3-yl)-4-[1-[3-(dimethylamino)propyl]-2,3-dihydroindol-3-yl]pyrrole-2,5-dione
> <PUBCHEM_IUPAC_SYSTEMATIC_NAME>
3-(2,3-dihydro-1H-indol-3-yl)-4-[1-[3-(dimethylamino)propyl]-2,3-dihydroindol-3-yl]pyrrole-2,5-dione
> <PUBCHEM_IUPAC_TRADITIONAL_NAME>
3-[1-[3-(dimethylamino)propyl]indolin-3-yl]-4-indolin-3-yl-3-pyrroline-2,5-quinone
> <PUBCHEM_IUPAC_INCHI>
InChI=1S/C25H28N4O2/c1-28(2)12-7-13-29-15-19(17-9-4-6-11-21(17)29)23-22(24(30)27-25(23)31)18-14-26-20-10-5-3-8-16(18)20/h3-6,8-11,18-19,26H,7,12-15H2,1-2H3,(H,27,30,31)
> <PUBCHEM_IUPAC_INCHIKEY>
QPTVPXGEQHIEJD-UHFFFAOYSA-N
> <PUBCHEM_XLOGP3_AA>
2.8
> <PUBCHEM_EXACT_MASS>
416.22122615
> <PUBCHEM_MOLECULAR_FORMULA>
C25H28N4O2
> <PUBCHEM_MOLECULAR_WEIGHT>
416.5
> <PUBCHEM_OPENEYE_CAN_SMILES>
CN(C)CCCN1CC(C2=CC=CC=C21)C3=C(C(=O)NC3=O)C4CNC5=CC=CC=C45
> <PUBCHEM_OPENEYE_ISO_SMILES>
CN(C)CCCN1CC(C2=CC=CC=C21)C3=C(C(=O)NC3=O)C4CNC5=CC=CC=C45
> <PUBCHEM_CACTVS_TPSA>
64.7
> <PUBCHEM_MONOISOTOPIC_WEIGHT>
416.22122615
> <PUBCHEM_TOTAL_CHARGE>
0
> <PUBCHEM_HEAVY_ATOM_COUNT>
31
> <PUBCHEM_ATOM_DEF_STEREO_COUNT>
0
> <PUBCHEM_ATOM_UDEF_STEREO_COUNT>
2
> <PUBCHEM_BOND_DEF_STEREO_COUNT>
0
> <PUBCHEM_BOND_UDEF_STEREO_COUNT>
0
> <PUBCHEM_ISOTOPIC_ATOM_COUNT>
0
> <PUBCHEM_COMPONENT_COUNT>
1
> <PUBCHEM_CACTVS_TAUTO_COUNT>
-1
> <PUBCHEM_COORDINATE_TYPE>
1
5
255
> <PUBCHEM_BONDANNOTATIONS>
10  13  8
10  20  8
11  12  3
13  22  8
16  19  8
16  23  8
19  27  8
20  24  8
22  26  8
23  28  8
24  26  8
27  29  8
28  29  8
7  9  3
$$$$
