513512
  -OEChem-10302200282D
 35 36  0     1  0  0  0  0  0999 V2000
    5.8042    1.0087    0.0000 S   0  0  0  0  0  0  0  0  0  0  0  0
    7.7722    0.3093    0.0000 O   0  0  0  0  0  0  0  0  0  0  0  0
    6.6844   -2.0385    0.0000 O   0  0  0  0  0  0  0  0  0  0  0  0
    9.5323    0.0306    0.0000 O   0  0  0  0  0  0  0  0  0  0  0  0
    8.8600   -2.0385    0.0000 O   0  0  0  0  0  0  0  0  0  0  0  0
    2.4158    0.2885    0.0000 O   0  0  0  0  0  0  0  0  0  0  0  0
    4.1100    0.6486    0.0000 N   0  0  0  0  0  0  0  0  0  0  0  0
    4.6453    2.2959    0.0000 N   0  0  0  0  0  0  0  0  0  0  0  0
    7.2722   -1.2295    0.0000 C   0  0  3  0  0  0  0  0  0  0  0  0
    6.9632   -0.2784    0.0000 C   0  0  3  0  0  0  0  0  0  0  0  0
    8.2722   -1.2295    0.0000 C   0  0  3  0  0  0  0  0  0  0  0  0
    8.5812   -0.2784    0.0000 C   0  0  3  0  0  0  0  0  0  0  0  0
    6.0121    0.0306    0.0000 C   0  0  0  0  0  0  0  0  0  0  0  0
    9.7402    1.0087    0.0000 C   0  0  0  0  0  0  0  0  0  0  0  0
    4.8532    1.3177    0.0000 C   0  0  0  0  0  0  0  0  0  0  0  0
    3.1590    0.9576    0.0000 C   0  0  0  0  0  0  0  0  0  0  0  0
    2.9511    1.9358    0.0000 C   0  0  0  0  0  0  0  0  0  0  0  0
    3.6942    2.6049    0.0000 C   0  0  0  0  0  0  0  0  0  0  0  0
    2.0000    2.2448    0.0000 C   0  0  0  0  0  0  0  0  0  0  0  0
    6.6598   -1.1325    0.0000 H   0  0  0  0  0  0  0  0  0  0  0  0
    6.8662    0.3339    0.0000 H   0  0  0  0  0  0  0  0  0  0  0  0
    7.9907   -1.7819    0.0000 H   0  0  0  0  0  0  0  0  0  0  0  0
    9.0196   -0.7168    0.0000 H   0  0  0  0  0  0  0  0  0  0  0  0
    5.3925    0.0089    0.0000 H   0  0  0  0  0  0  0  0  0  0  0  0
    5.9258   -0.5834    0.0000 H   0  0  0  0  0  0  0  0  0  0  0  0
    6.9366   -2.6049    0.0000 H   0  0  0  0  0  0  0  0  0  0  0  0
    9.4766   -1.9737    0.0000 H   0  0  0  0  0  0  0  0  0  0  0  0
   10.3466    0.8798    0.0000 H   0  0  0  0  0  0  0  0  0  0  0  0
    9.8691    1.6152    0.0000 H   0  0  0  0  0  0  0  0  0  0  0  0
    9.1337    1.1376    0.0000 H   0  0  0  0  0  0  0  0  0  0  0  0
    4.2389    0.0422    0.0000 H   0  0  0  0  0  0  0  0  0  0  0  0
    3.5653    3.2114    0.0000 H   0  0  0  0  0  0  0  0  0  0  0  0
    2.1916    2.8344    0.0000 H   0  0  0  0  0  0  0  0  0  0  0  0
    1.4103    2.4364    0.0000 H   0  0  0  0  0  0  0  0  0  0  0  0
    1.8084    1.6551    0.0000 H   0  0  0  0  0  0  0  0  0  0  0  0
  1 13  1  0  0  0  0
  1 15  1  0  0  0  0
  2 10  1  0  0  0  0
  2 12  1  0  0  0  0
  3  9  1  0  0  0  0
  3 26  1  0  0  0  0
  4 12  1  0  0  0  0
  4 14  1  0  0  0  0
  5 11  1  0  0  0  0
  5 27  1  0  0  0  0
  6 16  2  0  0  0  0
  7 15  1  0  0  0  0
  7 16  1  0  0  0  0
  7 31  1  0  0  0  0
  8 15  2  0  0  0  0
  8 18  1  0  0  0  0
  9 10  1  0  0  0  0
  9 11  1  0  0  0  0
  9 20  1  0  0  0  0
 10 13  1  0  0  0  0
 10 21  1  0  0  0  0
 11 12  1  0  0  0  0
 11 22  1  0  0  0  0
 12 23  1  0  0  0  0
 13 24  1  0  0  0  0
 13 25  1  0  0  0  0
 14 28  1  0  0  0  0
 14 29  1  0  0  0  0
 14 30  1  0  0  0  0
 16 17  1  0  0  0  0
 17 18  2  0  0  0  0
 17 19  1  0  0  0  0
 18 32  1  0  0  0  0
 19 33  1  0  0  0  0
 19 34  1  0  0  0  0
 19 35  1  0  0  0  0
M  END
> <PUBCHEM_COMPOUND_CID>
513512
> <PUBCHEM_COMPOUND_CANONICALIZED>
1
> <PUBCHEM_CACTVS_COMPLEXITY>
425
> <PUBCHEM_CACTVS_HBOND_ACCEPTOR>
7
> <PUBCHEM_CACTVS_HBOND_DONOR>
3
> <PUBCHEM_CACTVS_ROTATABLE_BOND>
4
> <PUBCHEM_CACTVS_SUBSKEYS>
AAADceBzOABAAAAAAAAAAAAAAAAAASAAAAAgAAAAAAAAAAAAAAAAHgQQCAAADBT1wAeDCALABgioAgFWdACAEAFAABABAAEAAEAREAIgCQAmQAAFAAAHAMDAAAAAAAAAAAAAAAAAAAAAAAAAAAAAAAAAAA==
> <PUBCHEM_IUPAC_OPENEYE_NAME>
2-[(3,4-dihydroxy-5-methoxy-tetrahydrofuran-2-yl)methylsulfanyl]-5-methyl-1H-pyrimidin-6-one
> <PUBCHEM_IUPAC_CAS_NAME>
2-[(3,4-dihydroxy-5-methoxy-2-oxolanyl)methylthio]-5-methyl-1H-pyrimidin-6-one
> <PUBCHEM_IUPAC_NAME_MARKUP>
2-[(3,4-dihydroxy-5-methoxyoxolan-2-yl)methylsulfanyl]-5-methyl-1<I>H</I>-pyrimidin-6-one
> <PUBCHEM_IUPAC_NAME>
2-[(3,4-dihydroxy-5-methoxyoxolan-2-yl)methylsulfanyl]-5-methyl-1H-pyrimidin-6-one
> <PUBCHEM_IUPAC_SYSTEMATIC_NAME>
2-[[5-methoxy-3,4-bis(oxidanyl)oxolan-2-yl]methylsulfanyl]-5-methyl-1H-pyrimidin-6-one
> <PUBCHEM_IUPAC_TRADITIONAL_NAME>
2-[(3,4-dihydroxy-5-methoxy-tetrahydrofuran-2-yl)methylthio]-5-methyl-1H-pyrimidin-6-one
> <PUBCHEM_IUPAC_INCHI>
InChI=1S/C11H16N2O5S/c1-5-3-12-11(13-9(5)16)19-4-6-7(14)8(15)10(17-2)18-6/h3,6-8,10,14-15H,4H2,1-2H3,(H,12,13,16)
> <PUBCHEM_IUPAC_INCHIKEY>
XQVRYWUYUGTAOR-UHFFFAOYSA-N
> <PUBCHEM_XLOGP3_AA>
-0.9
> <PUBCHEM_EXACT_MASS>
288.07799279
> <PUBCHEM_MOLECULAR_FORMULA>
C11H16N2O5S
> <PUBCHEM_MOLECULAR_WEIGHT>
288.32
> <PUBCHEM_OPENEYE_CAN_SMILES>
CC1=CN=C(NC1=O)SCC2C(C(C(O2)OC)O)O
> <PUBCHEM_OPENEYE_ISO_SMILES>
CC1=CN=C(NC1=O)SCC2C(C(C(O2)OC)O)O
> <PUBCHEM_CACTVS_TPSA>
126
> <PUBCHEM_MONOISOTOPIC_WEIGHT>
288.07799279
> <PUBCHEM_TOTAL_CHARGE>
0
> <PUBCHEM_HEAVY_ATOM_COUNT>
19
> <PUBCHEM_ATOM_DEF_STEREO_COUNT>
0
> <PUBCHEM_ATOM_UDEF_STEREO_COUNT>
4
> <PUBCHEM_BOND_DEF_STEREO_COUNT>
0
> <PUBCHEM_BOND_UDEF_STEREO_COUNT>
0
> <PUBCHEM_ISOTOPIC_ATOM_COUNT>
0
> <PUBCHEM_COMPONENT_COUNT>
1
> <PUBCHEM_CACTVS_TAUTO_COUNT>
-1
> <PUBCHEM_COORDINATE_TYPE>
1
5
255
> <PUBCHEM_BONDANNOTATIONS>
10  13  3
16  17  8
17  18  8
9  3  3
12  4  3
11  5  3
7  15  8
7  16  8
8  15  8
8  18  8
$$$$
