513595
  -OEChem-10302200282D
 43 47  0     1  0  0  0  0  0999 V2000
    2.8449   -1.6967    0.0000 O   0  0  0  0  0  0  0  0  0  0  0  0
    7.3092    0.0436    0.0000 O   0  0  0  0  0  0  0  0  0  0  0  0
    7.3092    1.6531    0.0000 O   0  0  0  0  0  0  0  0  0  0  0  0
    5.4969    2.8484    0.0000 O   0  0  0  0  0  0  0  0  0  0  0  0
    2.8816    0.3697    0.0000 N   0  0  3  0  0  0  0  0  0  0  0  0
    3.7209   -0.1585    0.0000 C   0  0  2  0  0  0  0  0  0  0  0  0
    4.6309    0.3484    0.0000 C   0  0  0  0  0  0  0  0  0  0  0  0
    3.7129   -1.2001    0.0000 C   0  0  2  0  0  0  0  0  0  0  0  0
    4.6309    1.3484    0.0000 C   0  0  0  0  0  0  0  0  0  0  0  0
    5.4969   -0.1516    0.0000 C   0  0  0  0  0  0  0  0  0  0  0  0
    2.9072    1.3611    0.0000 C   0  0  0  0  0  0  0  0  0  0  0  0
    3.7727    1.8453    0.0000 C   0  0  0  0  0  0  0  0  0  0  0  0
    4.6149   -1.7209    0.0000 C   0  0  0  0  0  0  0  0  0  0  0  0
    5.5130   -1.1932    0.0000 C   0  0  0  0  0  0  0  0  0  0  0  0
    6.3629    0.3484    0.0000 C   0  0  0  0  0  0  0  0  0  0  0  0
    5.4969    1.8484    0.0000 C   0  0  0  0  0  0  0  0  0  0  0  0
    6.3629    1.3484    0.0000 C   0  0  0  0  0  0  0  0  0  0  0  0
    2.0000   -0.1023    0.0000 C   0  0  0  0  0  0  0  0  0  0  0  0
    4.6066   -2.8059    0.0000 C   0  0  0  0  0  0  0  0  0  0  0  0
    6.4649   -1.7138    0.0000 C   0  0  0  0  0  0  0  0  0  0  0  0
    7.8928    0.8484    0.0000 C   0  0  0  0  0  0  0  0  0  0  0  0
    5.5462   -3.3484    0.0000 C   0  0  0  0  0  0  0  0  0  0  0  0
    6.4816   -2.7986    0.0000 C   0  0  0  0  0  0  0  0  0  0  0  0
    6.3629    3.3484    0.0000 C   0  0  0  0  0  0  0  0  0  0  0  0
    2.9752   -0.5665    0.0000 H   0  0  0  0  0  0  0  0  0  0  0  0
    3.1777   -0.8870    0.0000 H   0  0  0  0  0  0  0  0  0  0  0  0
    2.7054    1.9474    0.0000 H   0  0  0  0  0  0  0  0  0  0  0  0
    2.2944    1.2668    0.0000 H   0  0  0  0  0  0  0  0  0  0  0  0
    4.1737    2.3181    0.0000 H   0  0  0  0  0  0  0  0  0  0  0  0
    3.3786    2.3240    0.0000 H   0  0  0  0  0  0  0  0  0  0  0  0
    1.7073    0.4443    0.0000 H   0  0  0  0  0  0  0  0  0  0  0  0
    1.4534   -0.3950    0.0000 H   0  0  0  0  0  0  0  0  0  0  0  0
    2.2927   -0.6489    0.0000 H   0  0  0  0  0  0  0  0  0  0  0  0
    4.0684   -3.1138    0.0000 H   0  0  0  0  0  0  0  0  0  0  0  0
    6.9958   -1.3935    0.0000 H   0  0  0  0  0  0  0  0  0  0  0  0
    2.8425   -2.3167    0.0000 H   0  0  0  0  0  0  0  0  0  0  0  0
    8.3536    0.4336    0.0000 H   0  0  0  0  0  0  0  0  0  0  0  0
    8.3536    1.2631    0.0000 H   0  0  0  0  0  0  0  0  0  0  0  0
    5.5486   -3.9684    0.0000 H   0  0  0  0  0  0  0  0  0  0  0  0
    7.0221   -3.1024    0.0000 H   0  0  0  0  0  0  0  0  0  0  0  0
    6.6729    2.8114    0.0000 H   0  0  0  0  0  0  0  0  0  0  0  0
    6.8999    3.6584    0.0000 H   0  0  0  0  0  0  0  0  0  0  0  0
    6.0529    3.8853    0.0000 H   0  0  0  0  0  0  0  0  0  0  0  0
  8  1  1  6  0  0  0
  1 36  1  0  0  0  0
  2 15  1  0  0  0  0
  2 21  1  0  0  0  0
  3 17  1  0  0  0  0
  3 21  1  0  0  0  0
  4 16  1  0  0  0  0
  4 24  1  0  0  0  0
  5  6  1  0  0  0  0
  5 11  1  0  0  0  0
  5 18  1  0  0  0  0
  6  7  1  0  0  0  0
  6  8  1  0  0  0  0
  6 25  1  1  0  0  0
  7  9  2  0  0  0  0
  7 10  1  0  0  0  0
  8 13  1  0  0  0  0
  8 26  1  0  0  0  0
  9 12  1  0  0  0  0
  9 16  1  0  0  0  0
 10 14  1  0  0  0  0
 10 15  2  0  0  0  0
 11 12  1  0  0  0  0
 11 27  1  0  0  0  0
 11 28  1  0  0  0  0
 12 29  1  0  0  0  0
 12 30  1  0  0  0  0
 13 14  1  0  0  0  0
 13 19  2  0  0  0  0
 14 20  2  0  0  0  0
 15 17  1  0  0  0  0
 16 17  2  0  0  0  0
 18 31  1  0  0  0  0
 18 32  1  0  0  0  0
 18 33  1  0  0  0  0
 19 22  1  0  0  0  0
 19 34  1  0  0  0  0
 20 23  1  0  0  0  0
 20 35  1  0  0  0  0
 21 37  1  0  0  0  0
 21 38  1  0  0  0  0
 22 23  2  0  0  0  0
 22 39  1  0  0  0  0
 23 40  1  0  0  0  0
 24 41  1  0  0  0  0
 24 42  1  0  0  0  0
 24 43  1  0  0  0  0
M  END
> <PUBCHEM_COMPOUND_CID>
513595
> <PUBCHEM_COMPOUND_CANONICALIZED>
1
> <PUBCHEM_CACTVS_COMPLEXITY>
488
> <PUBCHEM_CACTVS_HBOND_ACCEPTOR>
5
> <PUBCHEM_CACTVS_HBOND_DONOR>
1
> <PUBCHEM_CACTVS_ROTATABLE_BOND>
1
> <PUBCHEM_CACTVS_SUBSKEYS>
AAADceB6OAAAAAAAAAAAAAAAAAAAASAAAAA8YMEAAAAAAEjxQAAAHgAACAAADDzhmAcyDoMABgCAAiBCAACCCAAgIAAIiAAMjIgfNyKEsRukcCplwBWeuAew8P8OoAADCAAYQADQAAaQADSgAAAAAAAAAA==
> <PUBCHEM_IUPAC_OPENEYE_NAME>
(12R,13S)-7-methoxy-11-methyl-3,5-dioxa-11-azapentacyclo[10.7.1.02,6.08,20.014,19]icosa-1,6,8(20),14,16,18-hexaen-13-ol
> <PUBCHEM_IUPAC_CAS_NAME>
(12R,13S)-7-methoxy-11-methyl-3,5-dioxa-11-azapentacyclo[10.7.1.02,6.08,20.014,19]eicosa-1,6,8(20),14,16,18-hexaen-13-ol
> <PUBCHEM_IUPAC_NAME_MARKUP>
(12<I>R</I>,13<I>S</I>)-7-methoxy-11-methyl-3,5-dioxa-11-azapentacyclo[10.7.1.0<SUP>2,6</SUP>.0<SUP>8,20</SUP>.0<SUP>14,19</SUP>]icosa-1,6,8(20),14,16,18-hexaen-13-ol
> <PUBCHEM_IUPAC_NAME>
(12R,13S)-7-methoxy-11-methyl-3,5-dioxa-11-azapentacyclo[10.7.1.02,6.08,20.014,19]icosa-1,6,8(20),14,16,18-hexaen-13-ol
> <PUBCHEM_IUPAC_SYSTEMATIC_NAME>
(12R,13S)-7-methoxy-11-methyl-3,5-dioxa-11-azapentacyclo[10.7.1.02,6.08,20.014,19]icosa-1,6,8(20),14,16,18-hexaen-13-ol
> <PUBCHEM_IUPAC_TRADITIONAL_NAME>
(12R,13S)-7-methoxy-11-methyl-3,5-dioxa-11-azapentacyclo[10.7.1.02,6.08,20.014,19]eicosa-1,6,8(20),14,16,18-hexaen-13-ol
> <PUBCHEM_IUPAC_INCHI>
InChI=1S/C19H19NO4/c1-20-8-7-12-13-14(18-19(17(12)22-2)24-9-23-18)10-5-3-4-6-11(10)16(21)15(13)20/h3-6,15-16,21H,7-9H2,1-2H3/t15-,16+/m1/s1
> <PUBCHEM_IUPAC_INCHIKEY>
IMMQQBXZSPYGID-CVEARBPZSA-N
> <PUBCHEM_XLOGP3_AA>
2.2
> <PUBCHEM_EXACT_MASS>
325.13140809
> <PUBCHEM_MOLECULAR_FORMULA>
C19H19NO4
> <PUBCHEM_MOLECULAR_WEIGHT>
325.4
> <PUBCHEM_OPENEYE_CAN_SMILES>
CN1CCC2=C3C1C(C4=CC=CC=C4C3=C5C(=C2OC)OCO5)O
> <PUBCHEM_OPENEYE_ISO_SMILES>
CN1CCC2=C3[C@@H]1[C@H](C4=CC=CC=C4C3=C5C(=C2OC)OCO5)O
> <PUBCHEM_CACTVS_TPSA>
51.2
> <PUBCHEM_MONOISOTOPIC_WEIGHT>
325.13140809
> <PUBCHEM_TOTAL_CHARGE>
0
> <PUBCHEM_HEAVY_ATOM_COUNT>
24
> <PUBCHEM_ATOM_DEF_STEREO_COUNT>
2
> <PUBCHEM_ATOM_UDEF_STEREO_COUNT>
0
> <PUBCHEM_BOND_DEF_STEREO_COUNT>
0
> <PUBCHEM_BOND_UDEF_STEREO_COUNT>
0
> <PUBCHEM_ISOTOPIC_ATOM_COUNT>
0
> <PUBCHEM_COMPONENT_COUNT>
1
> <PUBCHEM_CACTVS_TAUTO_COUNT>
-1
> <PUBCHEM_COORDINATE_TYPE>
1
5
255
> <PUBCHEM_BONDANNOTATIONS>
8  1  6
10  15  8
13  14  8
13  19  8
14  20  8
15  17  8
16  17  8
19  22  8
20  23  8
22  23  8
6  25  5
7  10  8
7  9  8
9  16  8
$$$$
