513633
  -OEChem-10302200282D
 48 51  0     1  0  0  0  0  0999 V2000
    2.0000   -0.9382    0.0000 Cl  0  0  0  0  0  0  0  0  0  0  0  0
    2.0000   -2.9865    0.0000 Cl  0  0  0  0  0  0  0  0  0  0  0  0
    7.0666    0.6029    0.0000 O   0  0  0  0  0  0  0  0  0  0  0  0
    9.4126   -0.4890    0.0000 O   0  0  0  0  0  0  0  0  0  0  0  0
    9.4164    1.6866    0.0000 O   0  0  0  0  0  0  0  0  0  0  0  0
    8.0189    3.1045    0.0000 O   0  0  0  0  0  0  0  0  0  0  0  0
    7.3424   -1.1577    0.0000 N   0  0  0  0  0  0  0  0  0  0  0  0
    8.9260   -1.9624    0.0000 N   0  0  0  0  0  0  0  0  0  0  0  0
    7.3424   -2.7671    0.0000 N   0  0  0  0  0  0  0  0  0  0  0  0
    5.5301   -2.9624    0.0000 N   0  0  0  0  0  0  0  0  0  0  0  0
    7.6530   -0.2071    0.0000 C   0  0  1  0  0  0  0  0  0  0  0  0
    8.6046    0.1002    0.0000 C   0  0  1  0  0  0  0  0  0  0  0  0
    8.6064    1.1002    0.0000 C   0  0  1  0  0  0  0  0  0  0  0  0
    7.6558    1.4109    0.0000 C   0  0  1  0  0  0  0  0  0  0  0  0
    7.3485    2.3625    0.0000 C   0  0  0  0  0  0  0  0  0  0  0  0
    6.3961   -1.4624    0.0000 C   0  0  0  0  0  0  0  0  0  0  0  0
    7.9260   -1.9624    0.0000 C   0  0  0  0  0  0  0  0  0  0  0  0
    6.3961   -2.4624    0.0000 C   0  0  0  0  0  0  0  0  0  0  0  0
    5.5301   -0.9624    0.0000 C   0  0  0  0  0  0  0  0  0  0  0  0
    9.4260   -2.8284    0.0000 C   0  0  0  0  0  0  0  0  0  0  0  0
    4.6641   -1.4624    0.0000 C   0  0  0  0  0  0  0  0  0  0  0  0
    4.6641   -2.4624    0.0000 C   0  0  0  0  0  0  0  0  0  0  0  0
   10.4260   -2.8284    0.0000 C   0  0  0  0  0  0  0  0  0  0  0  0
    8.9260   -3.6944    0.0000 C   0  0  0  0  0  0  0  0  0  0  0  0
    3.7702   -0.9277    0.0000 C   0  0  0  0  0  0  0  0  0  0  0  0
    3.7702   -2.9971    0.0000 C   0  0  0  0  0  0  0  0  0  0  0  0
    2.8641   -1.4416    0.0000 C   0  0  0  0  0  0  0  0  0  0  0  0
    2.8641   -2.4832    0.0000 C   0  0  0  0  0  0  0  0  0  0  0  0
    7.0405   -0.3031    0.0000 H   0  0  0  0  0  0  0  0  0  0  0  0
    8.5066   -0.5120    0.0000 H   0  0  0  0  0  0  0  0  0  0  0  0
    9.1583    0.8178    0.0000 H   0  0  0  0  0  0  0  0  0  0  0  0
    7.0436    1.5089    0.0000 H   0  0  0  0  0  0  0  0  0  0  0  0
    6.9676    2.8517    0.0000 H   0  0  0  0  0  0  0  0  0  0  0  0
    6.8005    2.0724    0.0000 H   0  0  0  0  0  0  0  0  0  0  0  0
    9.9795   -0.2378    0.0000 H   0  0  0  0  0  0  0  0  0  0  0  0
    9.3526    2.3033    0.0000 H   0  0  0  0  0  0  0  0  0  0  0  0
    9.2360   -1.4255    0.0000 H   0  0  0  0  0  0  0  0  0  0  0  0
    5.5301   -0.3424    0.0000 H   0  0  0  0  0  0  0  0  0  0  0  0
    8.8060   -2.8284    0.0000 H   0  0  0  0  0  0  0  0  0  0  0  0
    7.8283    3.6944    0.0000 H   0  0  0  0  0  0  0  0  0  0  0  0
   10.4260   -3.4484    0.0000 H   0  0  0  0  0  0  0  0  0  0  0  0
   11.0460   -2.8284    0.0000 H   0  0  0  0  0  0  0  0  0  0  0  0
   10.4260   -2.2084    0.0000 H   0  0  0  0  0  0  0  0  0  0  0  0
    8.3890   -3.3844    0.0000 H   0  0  0  0  0  0  0  0  0  0  0  0
    8.6160   -4.2314    0.0000 H   0  0  0  0  0  0  0  0  0  0  0  0
    9.4629   -4.0044    0.0000 H   0  0  0  0  0  0  0  0  0  0  0  0
    3.7773   -0.3078    0.0000 H   0  0  0  0  0  0  0  0  0  0  0  0
    3.7773   -3.6170    0.0000 H   0  0  0  0  0  0  0  0  0  0  0  0
  1 27  1  0  0  0  0
  2 28  1  0  0  0  0
  3 11  1  0  0  0  0
  3 14  1  0  0  0  0
 12  4  1  1  0  0  0
  4 35  1  0  0  0  0
 13  5  1  1  0  0  0
  5 36  1  0  0  0  0
  6 15  1  0  0  0  0
  6 40  1  0  0  0  0
 11  7  1  6  0  0  0
  7 16  1  0  0  0  0
  7 17  1  0  0  0  0
  8 17  1  0  0  0  0
  8 20  1  0  0  0  0
  8 37  1  0  0  0  0
  9 17  2  0  0  0  0
  9 18  1  0  0  0  0
 10 18  1  0  0  0  0
 10 22  2  0  0  0  0
 11 12  1  0  0  0  0
 11 29  1  0  0  0  0
 12 13  1  0  0  0  0
 12 30  1  0  0  0  0
 13 14  1  0  0  0  0
 13 31  1  0  0  0  0
 14 15  1  6  0  0  0
 14 32  1  0  0  0  0
 15 33  1  0  0  0  0
 15 34  1  0  0  0  0
 16 18  2  0  0  0  0
 16 19  1  0  0  0  0
 19 21  2  0  0  0  0
 19 38  1  0  0  0  0
 20 23  1  0  0  0  0
 20 24  1  0  0  0  0
 20 39  1  0  0  0  0
 21 22  1  0  0  0  0
 21 25  1  0  0  0  0
 22 26  1  0  0  0  0
 23 41  1  0  0  0  0
 23 42  1  0  0  0  0
 23 43  1  0  0  0  0
 24 44  1  0  0  0  0
 24 45  1  0  0  0  0
 24 46  1  0  0  0  0
 25 27  2  0  0  0  0
 25 47  1  0  0  0  0
 26 28  2  0  0  0  0
 26 48  1  0  0  0  0
 27 28  1  0  0  0  0
M  END
> <PUBCHEM_COMPOUND_CID>
513633
> <PUBCHEM_COMPOUND_CANONICALIZED>
1
> <PUBCHEM_CACTVS_COMPLEXITY>
562
> <PUBCHEM_CACTVS_HBOND_ACCEPTOR>
7
> <PUBCHEM_CACTVS_HBOND_DONOR>
4
> <PUBCHEM_CACTVS_ROTATABLE_BOND>
4
> <PUBCHEM_CACTVS_SUBSKEYS>
AAADceB7uAAGAAAAAAAAAAAAAAAAAWJAAAA8QAAAAAAAAFix/gAAHgIQCAAADD7hnyYz8P/MFgCgAyZiZACCgC0hF6AB2uA4dpiLeOLBm5GeYAhvkALbyCfwsIIOBABAIAICAAQIAIBABAQACAAAAAAAAA==
> <PUBCHEM_IUPAC_OPENEYE_NAME>
(2R,3R,4S,5R)-2-[6,7-dichloro-2-(isopropylamino)imidazo[4,5-b]quinolin-1-yl]-5-(hydroxymethyl)tetrahydrofuran-3,4-diol
> <PUBCHEM_IUPAC_CAS_NAME>
(2R,3R,4S,5R)-2-[6,7-dichloro-2-(propan-2-ylamino)-1-imidazo[4,5-b]quinolinyl]-5-(hydroxymethyl)oxolane-3,4-diol
> <PUBCHEM_IUPAC_NAME_MARKUP>
(2<I>R</I>,3<I>R</I>,4<I>S</I>,5<I>R</I>)-2-[6,7-dichloro-2-(propan-2-ylamino)imidazo[4,5-b]quinolin-1-yl]-5-(hydroxymethyl)oxolane-3,4-diol
> <PUBCHEM_IUPAC_NAME>
(2R,3R,4S,5R)-2-[6,7-dichloro-2-(propan-2-ylamino)imidazo[4,5-b]quinolin-1-yl]-5-(hydroxymethyl)oxolane-3,4-diol
> <PUBCHEM_IUPAC_SYSTEMATIC_NAME>
(2R,3R,4S,5R)-2-[6,7-bis(chloranyl)-2-(propan-2-ylamino)imidazo[4,5-b]quinolin-1-yl]-5-(hydroxymethyl)oxolane-3,4-diol
> <PUBCHEM_IUPAC_TRADITIONAL_NAME>
(2R,3R,4S,5R)-2-[6,7-dichloro-2-(isopropylamino)imidazo[4,5-b]quinolin-1-yl]-5-methylol-tetrahydrofuran-3,4-diol
> <PUBCHEM_IUPAC_INCHI>
InChI=1S/C18H20Cl2N4O4/c1-7(2)21-18-23-16-12(4-8-3-9(19)10(20)5-11(8)22-16)24(18)17-15(27)14(26)13(6-25)28-17/h3-5,7,13-15,17,25-27H,6H2,1-2H3,(H,21,22,23)/t13-,14-,15-,17-/m1/s1
> <PUBCHEM_IUPAC_INCHIKEY>
WDMLYQYAVLMJPN-KCYZZUKISA-N
> <PUBCHEM_XLOGP3_AA>
2.8
> <PUBCHEM_EXACT_MASS>
426.0861605
> <PUBCHEM_MOLECULAR_FORMULA>
C18H20Cl2N4O4
> <PUBCHEM_MOLECULAR_WEIGHT>
427.3
> <PUBCHEM_OPENEYE_CAN_SMILES>
CC(C)NC1=NC2=C(N1C3C(C(C(O3)CO)O)O)C=C4C=C(C(=CC4=N2)Cl)Cl
> <PUBCHEM_OPENEYE_ISO_SMILES>
CC(C)NC1=NC2=C(N1[C@H]3[C@@H]([C@@H]([C@H](O3)CO)O)O)C=C4C=C(C(=CC4=N2)Cl)Cl
> <PUBCHEM_CACTVS_TPSA>
113
> <PUBCHEM_MONOISOTOPIC_WEIGHT>
426.0861605
> <PUBCHEM_TOTAL_CHARGE>
0
> <PUBCHEM_HEAVY_ATOM_COUNT>
28
> <PUBCHEM_ATOM_DEF_STEREO_COUNT>
4
> <PUBCHEM_ATOM_UDEF_STEREO_COUNT>
0
> <PUBCHEM_BOND_DEF_STEREO_COUNT>
0
> <PUBCHEM_BOND_UDEF_STEREO_COUNT>
0
> <PUBCHEM_ISOTOPIC_ATOM_COUNT>
0
> <PUBCHEM_COMPONENT_COUNT>
1
> <PUBCHEM_CACTVS_TAUTO_COUNT>
-1
> <PUBCHEM_COORDINATE_TYPE>
1
5
255
> <PUBCHEM_BONDANNOTATIONS>
10  18  8
10  22  8
14  15  6
16  18  8
16  19  8
19  21  8
21  22  8
21  25  8
22  26  8
25  27  8
26  28  8
27  28  8
12  4  5
13  5  5
11  7  6
7  16  8
7  17  8
9  17  8
9  18  8
$$$$
