513684
  -OEChem-10302200282D
 33 35  0     1  0  0  0  0  0999 V2000
    7.1154    2.9529    0.0000 Br  0  0  0  0  0  0  0  0  0  0  0  0
    2.0000   -0.9529    0.0000 Cl  0  0  0  0  0  0  0  0  0  0  0  0
    2.9230    0.6349    0.0000 S   0  0  0  0  0  0  0  0  0  0  0  0
    5.5981   -1.4529    0.0000 F   0  0  0  0  0  0  0  0  0  0  0  0
    4.8198    2.3950    0.0000 O   0  0  0  0  0  0  0  0  0  0  0  0
    4.5411    0.6349    0.0000 N   0  0  0  0  0  0  0  0  0  0  0  0
    5.8282    1.7939    0.0000 N   0  0  0  0  0  0  0  0  0  0  0  0
    3.7320    0.0471    0.0000 C   0  0  3  0  0  0  0  0  0  0  0  0
    3.7320   -0.9529    0.0000 C   0  0  0  0  0  0  0  0  0  0  0  0
    3.2320    1.5860    0.0000 C   0  0  0  0  0  0  0  0  0  0  0  0
    4.2320    1.5860    0.0000 C   0  0  0  0  0  0  0  0  0  0  0  0
    5.5192    0.8428    0.0000 C   0  0  0  0  0  0  0  0  0  0  0  0
    2.8660   -1.4529    0.0000 C   0  0  0  0  0  0  0  0  0  0  0  0
    4.5981   -1.4529    0.0000 C   0  0  0  0  0  0  0  0  0  0  0  0
    2.8660   -2.4529    0.0000 C   0  0  0  0  0  0  0  0  0  0  0  0
    4.5981   -2.4529    0.0000 C   0  0  0  0  0  0  0  0  0  0  0  0
    3.7320   -2.9529    0.0000 C   0  0  0  0  0  0  0  0  0  0  0  0
    6.1884    0.0997    0.0000 C   0  0  0  0  0  0  0  0  0  0  0  0
    2.0000   -2.9529    0.0000 C   0  0  0  0  0  0  0  0  0  0  0  0
    7.1665    0.3076    0.0000 C   0  0  0  0  0  0  0  0  0  0  0  0
    6.8064    2.0018    0.0000 C   0  0  0  0  0  0  0  0  0  0  0  0
    7.4755    1.2587    0.0000 C   0  0  0  0  0  0  0  0  0  0  0  0
    4.2845   -0.2343    0.0000 H   0  0  0  0  0  0  0  0  0  0  0  0
    3.2969    2.2026    0.0000 H   0  0  0  0  0  0  0  0  0  0  0  0
    2.6256    1.7149    0.0000 H   0  0  0  0  0  0  0  0  0  0  0  0
    5.1350   -2.7629    0.0000 H   0  0  0  0  0  0  0  0  0  0  0  0
    3.7320   -3.5729    0.0000 H   0  0  0  0  0  0  0  0  0  0  0  0
    5.9968   -0.4900    0.0000 H   0  0  0  0  0  0  0  0  0  0  0  0
    1.6900   -2.4159    0.0000 H   0  0  0  0  0  0  0  0  0  0  0  0
    1.4631   -3.2629    0.0000 H   0  0  0  0  0  0  0  0  0  0  0  0
    2.3100   -3.4898    0.0000 H   0  0  0  0  0  0  0  0  0  0  0  0
    7.5814   -0.1531    0.0000 H   0  0  0  0  0  0  0  0  0  0  0  0
    8.0820    1.3876    0.0000 H   0  0  0  0  0  0  0  0  0  0  0  0
  1 21  1  0  0  0  0
  2 13  1  0  0  0  0
  3  8  1  0  0  0  0
  3 10  1  0  0  0  0
  4 14  1  0  0  0  0
  5 11  2  0  0  0  0
  6  8  1  0  0  0  0
  6 11  1  0  0  0  0
  6 12  1  0  0  0  0
  7 12  2  0  0  0  0
  7 21  1  0  0  0  0
  8  9  1  0  0  0  0
  8 23  1  0  0  0  0
  9 13  1  0  0  0  0
  9 14  2  0  0  0  0
 10 11  1  0  0  0  0
 10 24  1  0  0  0  0
 10 25  1  0  0  0  0
 12 18  1  0  0  0  0
 13 15  2  0  0  0  0
 14 16  1  0  0  0  0
 15 17  1  0  0  0  0
 15 19  1  0  0  0  0
 16 17  2  0  0  0  0
 16 26  1  0  0  0  0
 17 27  1  0  0  0  0
 18 20  2  0  0  0  0
 18 28  1  0  0  0  0
 19 29  1  0  0  0  0
 19 30  1  0  0  0  0
 19 31  1  0  0  0  0
 20 22  1  0  0  0  0
 20 32  1  0  0  0  0
 21 22  2  0  0  0  0
 22 33  1  0  0  0  0
M  END
> <PUBCHEM_COMPOUND_CID>
513684
> <PUBCHEM_COMPOUND_CANONICALIZED>
1
> <PUBCHEM_CACTVS_COMPLEXITY>
432
> <PUBCHEM_CACTVS_HBOND_ACCEPTOR>
4
> <PUBCHEM_CACTVS_HBOND_DONOR>
0
> <PUBCHEM_CACTVS_ROTATABLE_BOND>
2
> <PUBCHEM_CACTVS_SUBSKEYS>
AAADccBzIQBEEAAAAAAAAAAAAAAAAWAAAAA8QAAAAAAAAAABwAAAHwZAAAABPALF2iyzsJMIEAioAiNydACCgClhBjQJmCA4ZriIIOLhm5GEIAhohwLoyjcQgEAOAAACAAABAAAAAAQAAAIAAAAAAAAAAA==
> <PUBCHEM_IUPAC_OPENEYE_NAME>
3-(6-bromo-2-pyridyl)-2-(2-chloro-6-fluoro-3-methyl-phenyl)thiazolidin-4-one
> <PUBCHEM_IUPAC_CAS_NAME>
3-(6-bromo-2-pyridinyl)-2-(2-chloro-6-fluoro-3-methylphenyl)-4-thiazolidinone
> <PUBCHEM_IUPAC_NAME_MARKUP>
3-(6-bromopyridin-2-yl)-2-(2-chloro-6-fluoro-3-methylphenyl)-1,3-thiazolidin-4-one
> <PUBCHEM_IUPAC_NAME>
3-(6-bromopyridin-2-yl)-2-(2-chloro-6-fluoro-3-methylphenyl)-1,3-thiazolidin-4-one
> <PUBCHEM_IUPAC_SYSTEMATIC_NAME>
3-(6-bromanylpyridin-2-yl)-2-(2-chloranyl-6-fluoranyl-3-methyl-phenyl)-1,3-thiazolidin-4-one
> <PUBCHEM_IUPAC_TRADITIONAL_NAME>
3-(6-bromo-2-pyridyl)-2-(2-chloro-6-fluoro-3-methyl-phenyl)thiazolidin-4-one
> <PUBCHEM_IUPAC_INCHI>
InChI=1S/C15H11BrClFN2OS/c1-8-5-6-9(18)13(14(8)17)15-20(12(21)7-22-15)11-4-2-3-10(16)19-11/h2-6,15H,7H2,1H3
> <PUBCHEM_IUPAC_INCHIKEY>
IPJLBYHFWJWAKZ-UHFFFAOYSA-N
> <PUBCHEM_XLOGP3_AA>
4.7
> <PUBCHEM_EXACT_MASS>
399.94480
> <PUBCHEM_MOLECULAR_FORMULA>
C15H11BrClFN2OS
> <PUBCHEM_MOLECULAR_WEIGHT>
401.7
> <PUBCHEM_OPENEYE_CAN_SMILES>
CC1=C(C(=C(C=C1)F)C2N(C(=O)CS2)C3=NC(=CC=C3)Br)Cl
> <PUBCHEM_OPENEYE_ISO_SMILES>
CC1=C(C(=C(C=C1)F)C2N(C(=O)CS2)C3=NC(=CC=C3)Br)Cl
> <PUBCHEM_CACTVS_TPSA>
58.5
> <PUBCHEM_MONOISOTOPIC_WEIGHT>
399.94480
> <PUBCHEM_TOTAL_CHARGE>
0
> <PUBCHEM_HEAVY_ATOM_COUNT>
22
> <PUBCHEM_ATOM_DEF_STEREO_COUNT>
0
> <PUBCHEM_ATOM_UDEF_STEREO_COUNT>
1
> <PUBCHEM_BOND_DEF_STEREO_COUNT>
0
> <PUBCHEM_BOND_UDEF_STEREO_COUNT>
0
> <PUBCHEM_ISOTOPIC_ATOM_COUNT>
0
> <PUBCHEM_COMPONENT_COUNT>
1
> <PUBCHEM_CACTVS_TAUTO_COUNT>
-1
> <PUBCHEM_COORDINATE_TYPE>
1
5
255
> <PUBCHEM_BONDANNOTATIONS>
12  18  8
13  15  8
14  16  8
15  17  8
16  17  8
18  20  8
20  22  8
21  22  8
7  12  8
7  21  8
8  9  3
9  13  8
9  14  8
$$$$
