513670
  -OEChem-10302200282D
 42 44  0     1  0  0  0  0  0999 V2000
    6.5525    0.6349    0.0000 S   0  0  0  0  0  0  0  0  0  0  0  0
    7.4755   -0.9529    0.0000 O   0  0  0  0  0  0  0  0  0  0  0  0
    3.8774   -1.4529    0.0000 O   0  0  0  0  0  0  0  0  0  0  0  0
    4.6557    2.3950    0.0000 O   0  0  0  0  0  0  0  0  0  0  0  0
    4.9344    0.6349    0.0000 N   0  0  0  0  0  0  0  0  0  0  0  0
    5.7434    0.0471    0.0000 C   0  0  3  0  0  0  0  0  0  0  0  0
    5.7434   -0.9529    0.0000 C   0  0  0  0  0  0  0  0  0  0  0  0
    6.2434    1.5860    0.0000 C   0  0  0  0  0  0  0  0  0  0  0  0
    5.2434    1.5860    0.0000 C   0  0  0  0  0  0  0  0  0  0  0  0
    3.9563    0.8429    0.0000 C   0  0  0  0  0  0  0  0  0  0  0  0
    6.6095   -1.4529    0.0000 C   0  0  0  0  0  0  0  0  0  0  0  0
    4.8774   -1.4529    0.0000 C   0  0  0  0  0  0  0  0  0  0  0  0
    3.6473    1.7939    0.0000 C   0  0  0  0  0  0  0  0  0  0  0  0
    3.2872    0.0997    0.0000 C   0  0  0  0  0  0  0  0  0  0  0  0
    2.6691    2.0018    0.0000 C   0  0  0  0  0  0  0  0  0  0  0  0
    6.6095   -2.4529    0.0000 C   0  0  0  0  0  0  0  0  0  0  0  0
    4.8774   -2.4529    0.0000 C   0  0  0  0  0  0  0  0  0  0  0  0
    5.7434   -2.9529    0.0000 C   0  0  0  0  0  0  0  0  0  0  0  0
    2.3090    0.3076    0.0000 C   0  0  0  0  0  0  0  0  0  0  0  0
    2.0000    1.2587    0.0000 C   0  0  0  0  0  0  0  0  0  0  0  0
    2.3601    2.9529    0.0000 C   0  0  0  0  0  0  0  0  0  0  0  0
    8.3415   -1.4529    0.0000 C   0  0  0  0  0  0  0  0  0  0  0  0
    3.3774   -2.3188    0.0000 C   0  0  0  0  0  0  0  0  0  0  0  0
    5.1910   -0.2343    0.0000 H   0  0  0  0  0  0  0  0  0  0  0  0
    6.8499    1.7149    0.0000 H   0  0  0  0  0  0  0  0  0  0  0  0
    6.1786    2.2026    0.0000 H   0  0  0  0  0  0  0  0  0  0  0  0
    4.0621    2.2546    0.0000 H   0  0  0  0  0  0  0  0  0  0  0  0
    3.4788   -0.4900    0.0000 H   0  0  0  0  0  0  0  0  0  0  0  0
    7.1464   -2.7629    0.0000 H   0  0  0  0  0  0  0  0  0  0  0  0
    4.3405   -2.7629    0.0000 H   0  0  0  0  0  0  0  0  0  0  0  0
    5.7434   -3.5729    0.0000 H   0  0  0  0  0  0  0  0  0  0  0  0
    1.8941   -0.1531    0.0000 H   0  0  0  0  0  0  0  0  0  0  0  0
    1.3936    1.3876    0.0000 H   0  0  0  0  0  0  0  0  0  0  0  0
    2.9498    3.1444    0.0000 H   0  0  0  0  0  0  0  0  0  0  0  0
    2.1685    3.5425    0.0000 H   0  0  0  0  0  0  0  0  0  0  0  0
    1.7704    2.7613    0.0000 H   0  0  0  0  0  0  0  0  0  0  0  0
    8.0315   -1.9898    0.0000 H   0  0  0  0  0  0  0  0  0  0  0  0
    8.8785   -1.7629    0.0000 H   0  0  0  0  0  0  0  0  0  0  0  0
    8.6515   -0.9159    0.0000 H   0  0  0  0  0  0  0  0  0  0  0  0
    2.8405   -2.0088    0.0000 H   0  0  0  0  0  0  0  0  0  0  0  0
    3.0673   -2.8557    0.0000 H   0  0  0  0  0  0  0  0  0  0  0  0
    3.9143   -2.6288    0.0000 H   0  0  0  0  0  0  0  0  0  0  0  0
  1  6  1  0  0  0  0
  1  8  1  0  0  0  0
  2 11  1  0  0  0  0
  2 22  1  0  0  0  0
  3 12  1  0  0  0  0
  3 23  1  0  0  0  0
  4  9  2  0  0  0  0
  5  6  1  0  0  0  0
  5  9  1  0  0  0  0
  5 10  1  0  0  0  0
  6  7  1  0  0  0  0
  6 24  1  0  0  0  0
  7 11  2  0  0  0  0
  7 12  1  0  0  0  0
  8  9  1  0  0  0  0
  8 25  1  0  0  0  0
  8 26  1  0  0  0  0
 10 13  1  0  0  0  0
 10 14  2  0  0  0  0
 11 16  1  0  0  0  0
 12 17  2  0  0  0  0
 13 15  2  0  0  0  0
 13 27  1  0  0  0  0
 14 19  1  0  0  0  0
 14 28  1  0  0  0  0
 15 20  1  0  0  0  0
 15 21  1  0  0  0  0
 16 18  2  0  0  0  0
 16 29  1  0  0  0  0
 17 18  1  0  0  0  0
 17 30  1  0  0  0  0
 18 31  1  0  0  0  0
 19 20  2  0  0  0  0
 19 32  1  0  0  0  0
 20 33  1  0  0  0  0
 21 34  1  0  0  0  0
 21 35  1  0  0  0  0
 21 36  1  0  0  0  0
 22 37  1  0  0  0  0
 22 38  1  0  0  0  0
 22 39  1  0  0  0  0
 23 40  1  0  0  0  0
 23 41  1  0  0  0  0
 23 42  1  0  0  0  0
M  END
> <PUBCHEM_COMPOUND_CID>
513670
> <PUBCHEM_COMPOUND_CANONICALIZED>
1
> <PUBCHEM_CACTVS_COMPLEXITY>
407
> <PUBCHEM_CACTVS_HBOND_ACCEPTOR>
4
> <PUBCHEM_CACTVS_HBOND_DONOR>
0
> <PUBCHEM_CACTVS_ROTATABLE_BOND>
4
> <PUBCHEM_CACTVS_SUBSKEYS>
AAADceB6MABAAAAAAAAAAAAAAAAAAWAAAAAwYAAAAAAAAAABQAAAHgQAAAAADAzF2AayxoMABAiIAiVSUACCCABhIhAIiAAObIgMJyLksZuEMChnxhXo6AeQ4CwOAAAASAAIAAAAAACQABAAAAAAAAAAAA==
> <PUBCHEM_IUPAC_OPENEYE_NAME>
2-(2,6-dimethoxyphenyl)-3-(m-tolyl)thiazolidin-4-one
> <PUBCHEM_IUPAC_CAS_NAME>
2-(2,6-dimethoxyphenyl)-3-(3-methylphenyl)-4-thiazolidinone
> <PUBCHEM_IUPAC_NAME_MARKUP>
2-(2,6-dimethoxyphenyl)-3-(3-methylphenyl)-1,3-thiazolidin-4-one
> <PUBCHEM_IUPAC_NAME>
2-(2,6-dimethoxyphenyl)-3-(3-methylphenyl)-1,3-thiazolidin-4-one
> <PUBCHEM_IUPAC_SYSTEMATIC_NAME>
2-(2,6-dimethoxyphenyl)-3-(3-methylphenyl)-1,3-thiazolidin-4-one
> <PUBCHEM_IUPAC_TRADITIONAL_NAME>
2-(2,6-dimethoxyphenyl)-3-(m-tolyl)thiazolidin-4-one
> <PUBCHEM_IUPAC_INCHI>
InChI=1S/C18H19NO3S/c1-12-6-4-7-13(10-12)19-16(20)11-23-18(19)17-14(21-2)8-5-9-15(17)22-3/h4-10,18H,11H2,1-3H3
> <PUBCHEM_IUPAC_INCHIKEY>
PHLGRMVGTOAQJZ-UHFFFAOYSA-N
> <PUBCHEM_XLOGP3_AA>
3.7
> <PUBCHEM_EXACT_MASS>
329.10856464
> <PUBCHEM_MOLECULAR_FORMULA>
C18H19NO3S
> <PUBCHEM_MOLECULAR_WEIGHT>
329.4
> <PUBCHEM_OPENEYE_CAN_SMILES>
CC1=CC(=CC=C1)N2C(SCC2=O)C3=C(C=CC=C3OC)OC
> <PUBCHEM_OPENEYE_ISO_SMILES>
CC1=CC(=CC=C1)N2C(SCC2=O)C3=C(C=CC=C3OC)OC
> <PUBCHEM_CACTVS_TPSA>
64.1
> <PUBCHEM_MONOISOTOPIC_WEIGHT>
329.10856464
> <PUBCHEM_TOTAL_CHARGE>
0
> <PUBCHEM_HEAVY_ATOM_COUNT>
23
> <PUBCHEM_ATOM_DEF_STEREO_COUNT>
0
> <PUBCHEM_ATOM_UDEF_STEREO_COUNT>
1
> <PUBCHEM_BOND_DEF_STEREO_COUNT>
0
> <PUBCHEM_BOND_UDEF_STEREO_COUNT>
0
> <PUBCHEM_ISOTOPIC_ATOM_COUNT>
0
> <PUBCHEM_COMPONENT_COUNT>
1
> <PUBCHEM_CACTVS_TAUTO_COUNT>
-1
> <PUBCHEM_COORDINATE_TYPE>
1
5
255
> <PUBCHEM_BONDANNOTATIONS>
10  13  8
10  14  8
11  16  8
12  17  8
13  15  8
14  19  8
15  20  8
16  18  8
17  18  8
19  20  8
6  7  3
7  11  8
7  12  8
$$$$
