513686
  -OEChem-10302200282D
 42 44  0     1  0  0  0  0  0999 V2000
    6.9126    0.6349    0.0000 S   0  0  0  0  0  0  0  0  0  0  0  0
    5.0158    2.3950    0.0000 O   0  0  0  0  0  0  0  0  0  0  0  0
    5.2946    0.6349    0.0000 N   0  0  0  0  0  0  0  0  0  0  0  0
    4.0074    1.7939    0.0000 N   0  0  0  0  0  0  0  0  0  0  0  0
    6.1036    0.0471    0.0000 C   0  0  3  0  0  0  0  0  0  0  0  0
    6.1036   -0.9529    0.0000 C   0  0  0  0  0  0  0  0  0  0  0  0
    6.6036    1.5860    0.0000 C   0  0  0  0  0  0  0  0  0  0  0  0
    5.6036    1.5860    0.0000 C   0  0  0  0  0  0  0  0  0  0  0  0
    6.9696   -1.4529    0.0000 C   0  0  0  0  0  0  0  0  0  0  0  0
    5.2376   -1.4529    0.0000 C   0  0  0  0  0  0  0  0  0  0  0  0
    4.3164    0.8429    0.0000 C   0  0  0  0  0  0  0  0  0  0  0  0
    6.9696   -2.4529    0.0000 C   0  0  0  0  0  0  0  0  0  0  0  0
    5.2376   -2.4529    0.0000 C   0  0  0  0  0  0  0  0  0  0  0  0
    3.6473    0.0997    0.0000 C   0  0  0  0  0  0  0  0  0  0  0  0
    7.8356   -0.9529    0.0000 C   0  0  0  0  0  0  0  0  0  0  0  0
    4.2376   -1.4529    0.0000 C   0  0  0  0  0  0  0  0  0  0  0  0
    6.1036   -2.9529    0.0000 C   0  0  0  0  0  0  0  0  0  0  0  0
    2.6691    0.3076    0.0000 C   0  0  0  0  0  0  0  0  0  0  0  0
    3.0292    2.0018    0.0000 C   0  0  0  0  0  0  0  0  0  0  0  0
    2.3601    1.2587    0.0000 C   0  0  0  0  0  0  0  0  0  0  0  0
    2.0000   -0.4355    0.0000 C   0  0  0  0  0  0  0  0  0  0  0  0
    2.7202    2.9529    0.0000 C   0  0  0  0  0  0  0  0  0  0  0  0
    5.5512   -0.2343    0.0000 H   0  0  0  0  0  0  0  0  0  0  0  0
    7.2100    1.7149    0.0000 H   0  0  0  0  0  0  0  0  0  0  0  0
    6.5388    2.2026    0.0000 H   0  0  0  0  0  0  0  0  0  0  0  0
    7.5065   -2.7629    0.0000 H   0  0  0  0  0  0  0  0  0  0  0  0
    4.7006   -2.7629    0.0000 H   0  0  0  0  0  0  0  0  0  0  0  0
    3.8389   -0.4900    0.0000 H   0  0  0  0  0  0  0  0  0  0  0  0
    8.1456   -1.4898    0.0000 H   0  0  0  0  0  0  0  0  0  0  0  0
    8.3726   -0.6429    0.0000 H   0  0  0  0  0  0  0  0  0  0  0  0
    7.5256   -0.4159    0.0000 H   0  0  0  0  0  0  0  0  0  0  0  0
    4.2376   -0.8329    0.0000 H   0  0  0  0  0  0  0  0  0  0  0  0
    3.6176   -1.4529    0.0000 H   0  0  0  0  0  0  0  0  0  0  0  0
    4.2376   -2.0729    0.0000 H   0  0  0  0  0  0  0  0  0  0  0  0
    6.1036   -3.5729    0.0000 H   0  0  0  0  0  0  0  0  0  0  0  0
    1.7537    1.3876    0.0000 H   0  0  0  0  0  0  0  0  0  0  0  0
    1.5392   -0.0207    0.0000 H   0  0  0  0  0  0  0  0  0  0  0  0
    1.5852   -0.8963    0.0000 H   0  0  0  0  0  0  0  0  0  0  0  0
    2.4608   -0.8504    0.0000 H   0  0  0  0  0  0  0  0  0  0  0  0
    3.3099    3.1444    0.0000 H   0  0  0  0  0  0  0  0  0  0  0  0
    2.5286    3.5425    0.0000 H   0  0  0  0  0  0  0  0  0  0  0  0
    2.1306    2.7613    0.0000 H   0  0  0  0  0  0  0  0  0  0  0  0
  1  5  1  0  0  0  0
  1  7  1  0  0  0  0
  2  8  2  0  0  0  0
  3  5  1  0  0  0  0
  3  8  1  0  0  0  0
  3 11  1  0  0  0  0
  4 11  1  0  0  0  0
  4 19  2  0  0  0  0
  5  6  1  0  0  0  0
  5 23  1  0  0  0  0
  6  9  2  0  0  0  0
  6 10  1  0  0  0  0
  7  8  1  0  0  0  0
  7 24  1  0  0  0  0
  7 25  1  0  0  0  0
  9 12  1  0  0  0  0
  9 15  1  0  0  0  0
 10 13  2  0  0  0  0
 10 16  1  0  0  0  0
 11 14  2  0  0  0  0
 12 17  2  0  0  0  0
 12 26  1  0  0  0  0
 13 17  1  0  0  0  0
 13 27  1  0  0  0  0
 14 18  1  0  0  0  0
 14 28  1  0  0  0  0
 15 29  1  0  0  0  0
 15 30  1  0  0  0  0
 15 31  1  0  0  0  0
 16 32  1  0  0  0  0
 16 33  1  0  0  0  0
 16 34  1  0  0  0  0
 17 35  1  0  0  0  0
 18 20  2  0  0  0  0
 18 21  1  0  0  0  0
 19 20  1  0  0  0  0
 19 22  1  0  0  0  0
 20 36  1  0  0  0  0
 21 37  1  0  0  0  0
 21 38  1  0  0  0  0
 21 39  1  0  0  0  0
 22 40  1  0  0  0  0
 22 41  1  0  0  0  0
 22 42  1  0  0  0  0
M  END
> <PUBCHEM_COMPOUND_CID>
513686
> <PUBCHEM_COMPOUND_CANONICALIZED>
1
> <PUBCHEM_CACTVS_COMPLEXITY>
406
> <PUBCHEM_CACTVS_HBOND_ACCEPTOR>
3
> <PUBCHEM_CACTVS_HBOND_DONOR>
0
> <PUBCHEM_CACTVS_ROTATABLE_BOND>
2
> <PUBCHEM_CACTVS_SUBSKEYS>
AAADceB7IABAAAAAAAAAAAAAAAAAAWAAAAA8QAAAAAAAAAABwAAAHgQAAAAADAjF3gSzsJMIEAioAydydACCgClhAjAJmCA4ZJiIIGLgmZGEIAhohwLoyCcQgMAOgAACAAAQAAAAAAQAACAAAAAAAAAAAA==
> <PUBCHEM_IUPAC_OPENEYE_NAME>
2-(2,6-dimethylphenyl)-3-(4,6-dimethyl-2-pyridyl)thiazolidin-4-one
> <PUBCHEM_IUPAC_CAS_NAME>
2-(2,6-dimethylphenyl)-3-(4,6-dimethyl-2-pyridinyl)-4-thiazolidinone
> <PUBCHEM_IUPAC_NAME_MARKUP>
2-(2,6-dimethylphenyl)-3-(4,6-dimethylpyridin-2-yl)-1,3-thiazolidin-4-one
> <PUBCHEM_IUPAC_NAME>
2-(2,6-dimethylphenyl)-3-(4,6-dimethylpyridin-2-yl)-1,3-thiazolidin-4-one
> <PUBCHEM_IUPAC_SYSTEMATIC_NAME>
2-(2,6-dimethylphenyl)-3-(4,6-dimethylpyridin-2-yl)-1,3-thiazolidin-4-one
> <PUBCHEM_IUPAC_TRADITIONAL_NAME>
2-(2,6-dimethylphenyl)-3-(4,6-dimethyl-2-pyridyl)thiazolidin-4-one
> <PUBCHEM_IUPAC_INCHI>
InChI=1S/C18H20N2OS/c1-11-8-14(4)19-15(9-11)20-16(21)10-22-18(20)17-12(2)6-5-7-13(17)3/h5-9,18H,10H2,1-4H3
> <PUBCHEM_IUPAC_INCHIKEY>
WVLDISGUESCTNF-UHFFFAOYSA-N
> <PUBCHEM_XLOGP3_AA>
4.1
> <PUBCHEM_EXACT_MASS>
312.12963444
> <PUBCHEM_MOLECULAR_FORMULA>
C18H20N2OS
> <PUBCHEM_MOLECULAR_WEIGHT>
312.4
> <PUBCHEM_OPENEYE_CAN_SMILES>
CC1=C(C(=CC=C1)C)C2N(C(=O)CS2)C3=CC(=CC(=N3)C)C
> <PUBCHEM_OPENEYE_ISO_SMILES>
CC1=C(C(=CC=C1)C)C2N(C(=O)CS2)C3=CC(=CC(=N3)C)C
> <PUBCHEM_CACTVS_TPSA>
58.5
> <PUBCHEM_MONOISOTOPIC_WEIGHT>
312.12963444
> <PUBCHEM_TOTAL_CHARGE>
0
> <PUBCHEM_HEAVY_ATOM_COUNT>
22
> <PUBCHEM_ATOM_DEF_STEREO_COUNT>
0
> <PUBCHEM_ATOM_UDEF_STEREO_COUNT>
1
> <PUBCHEM_BOND_DEF_STEREO_COUNT>
0
> <PUBCHEM_BOND_UDEF_STEREO_COUNT>
0
> <PUBCHEM_ISOTOPIC_ATOM_COUNT>
0
> <PUBCHEM_COMPONENT_COUNT>
1
> <PUBCHEM_CACTVS_TAUTO_COUNT>
-1
> <PUBCHEM_COORDINATE_TYPE>
1
5
255
> <PUBCHEM_BONDANNOTATIONS>
10  13  8
11  14  8
12  17  8
13  17  8
14  18  8
18  20  8
19  20  8
4  11  8
4  19  8
5  6  3
6  10  8
6  9  8
9  12  8
$$$$
