513683
  -OEChem-10302200282D
 33 35  0     1  0  0  0  0  0999 V2000
    7.9814    2.9529    0.0000 Br  0  0  0  0  0  0  0  0  0  0  0  0
    6.3301   -2.9529    0.0000 Cl  0  0  0  0  0  0  0  0  0  0  0  0
    3.7891    0.6349    0.0000 S   0  0  0  0  0  0  0  0  0  0  0  0
    6.4641   -1.4529    0.0000 F   0  0  0  0  0  0  0  0  0  0  0  0
    2.3660   -1.8189    0.0000 F   0  0  0  0  0  0  0  0  0  0  0  0
    2.0000   -0.4529    0.0000 F   0  0  0  0  0  0  0  0  0  0  0  0
    3.3660   -0.0868    0.0000 F   0  0  0  0  0  0  0  0  0  0  0  0
    5.6859    2.3950    0.0000 O   0  0  0  0  0  0  0  0  0  0  0  0
    5.4071    0.6349    0.0000 N   0  0  0  0  0  0  0  0  0  0  0  0
    6.6943    1.7939    0.0000 N   0  0  0  0  0  0  0  0  0  0  0  0
    4.5981    0.0471    0.0000 C   0  0  3  0  0  0  0  0  0  0  0  0
    4.5981   -0.9529    0.0000 C   0  0  0  0  0  0  0  0  0  0  0  0
    4.0981    1.5860    0.0000 C   0  0  0  0  0  0  0  0  0  0  0  0
    5.0981    1.5860    0.0000 C   0  0  0  0  0  0  0  0  0  0  0  0
    3.7320   -1.4529    0.0000 C   0  0  0  0  0  0  0  0  0  0  0  0
    6.3852    0.8428    0.0000 C   0  0  0  0  0  0  0  0  0  0  0  0
    5.4641   -1.4529    0.0000 C   0  0  0  0  0  0  0  0  0  0  0  0
    3.7320   -2.4529    0.0000 C   0  0  0  0  0  0  0  0  0  0  0  0
    2.8660   -0.9529    0.0000 C   0  0  0  0  0  0  0  0  0  0  0  0
    5.4641   -2.4529    0.0000 C   0  0  0  0  0  0  0  0  0  0  0  0
    4.5981   -2.9529    0.0000 C   0  0  0  0  0  0  0  0  0  0  0  0
    7.0544    0.0997    0.0000 C   0  0  0  0  0  0  0  0  0  0  0  0
    8.0325    0.3076    0.0000 C   0  0  0  0  0  0  0  0  0  0  0  0
    7.6724    2.0018    0.0000 C   0  0  0  0  0  0  0  0  0  0  0  0
    8.3415    1.2587    0.0000 C   0  0  0  0  0  0  0  0  0  0  0  0
    5.1505   -0.2343    0.0000 H   0  0  0  0  0  0  0  0  0  0  0  0
    4.1629    2.2026    0.0000 H   0  0  0  0  0  0  0  0  0  0  0  0
    3.4916    1.7149    0.0000 H   0  0  0  0  0  0  0  0  0  0  0  0
    3.1951   -2.7629    0.0000 H   0  0  0  0  0  0  0  0  0  0  0  0
    4.5981   -3.5729    0.0000 H   0  0  0  0  0  0  0  0  0  0  0  0
    6.8628   -0.4900    0.0000 H   0  0  0  0  0  0  0  0  0  0  0  0
    8.4474   -0.1531    0.0000 H   0  0  0  0  0  0  0  0  0  0  0  0
    8.9480    1.3876    0.0000 H   0  0  0  0  0  0  0  0  0  0  0  0
  1 24  1  0  0  0  0
  2 20  1  0  0  0  0
  3 11  1  0  0  0  0
  3 13  1  0  0  0  0
  4 17  1  0  0  0  0
  5 19  1  0  0  0  0
  6 19  1  0  0  0  0
  7 19  1  0  0  0  0
  8 14  2  0  0  0  0
  9 11  1  0  0  0  0
  9 14  1  0  0  0  0
  9 16  1  0  0  0  0
 10 16  2  0  0  0  0
 10 24  1  0  0  0  0
 11 12  1  0  0  0  0
 11 26  1  0  0  0  0
 12 15  2  0  0  0  0
 12 17  1  0  0  0  0
 13 14  1  0  0  0  0
 13 27  1  0  0  0  0
 13 28  1  0  0  0  0
 15 18  1  0  0  0  0
 15 19  1  0  0  0  0
 16 22  1  0  0  0  0
 17 20  2  0  0  0  0
 18 21  2  0  0  0  0
 18 29  1  0  0  0  0
 20 21  1  0  0  0  0
 21 30  1  0  0  0  0
 22 23  2  0  0  0  0
 22 31  1  0  0  0  0
 23 25  1  0  0  0  0
 23 32  1  0  0  0  0
 24 25  2  0  0  0  0
 25 33  1  0  0  0  0
M  END
> <PUBCHEM_COMPOUND_CID>
513683
> <PUBCHEM_COMPOUND_CANONICALIZED>
1
> <PUBCHEM_CACTVS_COMPLEXITY>
514
> <PUBCHEM_CACTVS_HBOND_ACCEPTOR>
7
> <PUBCHEM_CACTVS_HBOND_DONOR>
0
> <PUBCHEM_CACTVS_ROTATABLE_BOND>
2
> <PUBCHEM_CACTVS_SUBSKEYS>
AAADccBzIcBEEAAAAAAAAAAAAAAAAWAAAAA8QAAAAAAAAAABwAAAHwZAAAABPALF2jyxsJMIEAioAiNydACCgClhBzQJmCA4ZriIIOLhm5GEIAhohwLoyjcQgIAOhAAAIAAQAAAIAABAACAAAAAAAAAAAA==
> <PUBCHEM_IUPAC_OPENEYE_NAME>
3-(6-bromo-2-pyridyl)-2-[3-chloro-2-fluoro-6-(trifluoromethyl)phenyl]thiazolidin-4-one
> <PUBCHEM_IUPAC_CAS_NAME>
3-(6-bromo-2-pyridinyl)-2-[3-chloro-2-fluoro-6-(trifluoromethyl)phenyl]-4-thiazolidinone
> <PUBCHEM_IUPAC_NAME_MARKUP>
3-(6-bromopyridin-2-yl)-2-[3-chloro-2-fluoro-6-(trifluoromethyl)phenyl]-1,3-thiazolidin-4-one
> <PUBCHEM_IUPAC_NAME>
3-(6-bromopyridin-2-yl)-2-[3-chloro-2-fluoro-6-(trifluoromethyl)phenyl]-1,3-thiazolidin-4-one
> <PUBCHEM_IUPAC_SYSTEMATIC_NAME>
3-(6-bromanylpyridin-2-yl)-2-[3-chloranyl-2-fluoranyl-6-(trifluoromethyl)phenyl]-1,3-thiazolidin-4-one
> <PUBCHEM_IUPAC_TRADITIONAL_NAME>
3-(6-bromo-2-pyridyl)-2-[3-chloro-2-fluoro-6-(trifluoromethyl)phenyl]thiazolidin-4-one
> <PUBCHEM_IUPAC_INCHI>
InChI=1S/C15H8BrClF4N2OS/c16-9-2-1-3-10(22-9)23-11(24)6-25-14(23)12-7(15(19,20)21)4-5-8(17)13(12)18/h1-5,14H,6H2
> <PUBCHEM_IUPAC_INCHIKEY>
MDKNZWNTVMGCSU-UHFFFAOYSA-N
> <PUBCHEM_XLOGP3_AA>
5.3
> <PUBCHEM_EXACT_MASS>
453.91654
> <PUBCHEM_MOLECULAR_FORMULA>
C15H8BrClF4N2OS
> <PUBCHEM_MOLECULAR_WEIGHT>
455.7
> <PUBCHEM_OPENEYE_CAN_SMILES>
C1C(=O)N(C(S1)C2=C(C=CC(=C2F)Cl)C(F)(F)F)C3=NC(=CC=C3)Br
> <PUBCHEM_OPENEYE_ISO_SMILES>
C1C(=O)N(C(S1)C2=C(C=CC(=C2F)Cl)C(F)(F)F)C3=NC(=CC=C3)Br
> <PUBCHEM_CACTVS_TPSA>
58.5
> <PUBCHEM_MONOISOTOPIC_WEIGHT>
453.91654
> <PUBCHEM_TOTAL_CHARGE>
0
> <PUBCHEM_HEAVY_ATOM_COUNT>
25
> <PUBCHEM_ATOM_DEF_STEREO_COUNT>
0
> <PUBCHEM_ATOM_UDEF_STEREO_COUNT>
1
> <PUBCHEM_BOND_DEF_STEREO_COUNT>
0
> <PUBCHEM_BOND_UDEF_STEREO_COUNT>
0
> <PUBCHEM_ISOTOPIC_ATOM_COUNT>
0
> <PUBCHEM_COMPONENT_COUNT>
1
> <PUBCHEM_CACTVS_TAUTO_COUNT>
-1
> <PUBCHEM_COORDINATE_TYPE>
1
5
255
> <PUBCHEM_BONDANNOTATIONS>
10  16  8
10  24  8
11  12  3
12  15  8
12  17  8
15  18  8
16  22  8
17  20  8
18  21  8
20  21  8
22  23  8
23  25  8
24  25  8
$$$$
