513698
  -OEChem-10302200282D
 78 90  0     1  0  0  0  0  0999 V2000
   11.7572   -1.8580    0.0000 O   0  0  0  0  0  0  0  0  0  0  0  0
   13.7109   -3.6422    0.0000 O   0  0  0  0  0  0  0  0  0  0  0  0
    9.2809   -0.9264    0.0000 N   0  3  0  0  0  0  0  0  0  0  0  0
   16.1872   -4.5739    0.0000 N   0  0  0  0  0  0  0  0  0  0  0  0
    7.7535   -0.3881    0.0000 C   0  0  3  0  0  0  0  0  0  0  0  0
    8.3662    0.4101    0.0000 C   0  0  3  0  0  0  0  0  0  0  0  0
    8.3220   -1.2111    0.0000 C   0  0  0  0  0  0  0  0  0  0  0  0
    9.3082    0.0735    0.0000 C   0  0  0  0  0  0  0  0  0  0  0  0
    6.7504   -0.3089    0.0000 C   0  0  0  0  0  0  0  0  0  0  0  0
    7.9528    1.9882    0.0000 C   0  0  0  0  0  0  0  0  0  0  0  0
    6.5722    0.7233    0.0000 C   0  0  0  0  0  0  0  0  0  0  0  0
    7.0520    1.5936    0.0000 C   0  0  0  0  0  0  0  0  0  0  0  0
    5.5841    0.8304    0.0000 C   0  0  0  0  0  0  0  0  0  0  0  0
    6.4341    2.3719    0.0000 C   0  0  0  0  0  0  0  0  0  0  0  0
    5.5681    1.8719    0.0000 C   0  0  0  0  0  0  0  0  0  0  0  0
   10.2806   -0.9528    0.0000 C   0  0  0  0  0  0  0  0  0  0  0  0
    4.6861    0.3027    0.0000 C   0  0  0  0  0  0  0  0  0  0  0  0
    6.4341    3.3719    0.0000 C   0  0  0  0  0  0  0  0  0  0  0  0
    4.7020    2.3719    0.0000 C   0  0  0  0  0  0  0  0  0  0  0  0
    9.5648   -1.8852    0.0000 C   0  0  0  0  0  0  0  0  0  0  0  0
    3.7920    1.8651    0.0000 C   0  0  0  0  0  0  0  0  0  0  0  0
    4.7020    3.3719    0.0000 C   0  0  0  0  0  0  0  0  0  0  0  0
    3.7840    0.8235    0.0000 C   0  0  0  0  0  0  0  0  0  0  0  0
    5.5681    3.8719    0.0000 C   0  0  0  0  0  0  0  0  0  0  0  0
    4.9633   -0.7074    0.0000 C   0  0  0  0  0  0  0  0  0  0  0  0
    7.3855    3.6210    0.0000 C   0  0  0  0  0  0  0  0  0  0  0  0
    5.9676   -1.0050    0.0000 C   0  0  0  0  0  0  0  0  0  0  0  0
    8.1125    2.9586    0.0000 C   0  0  0  0  0  0  0  0  0  0  0  0
    3.2052    2.6672    0.0000 C   0  0  0  0  0  0  0  0  0  0  0  0
    3.7190    3.5179    0.0000 C   0  0  0  0  0  0  0  0  0  0  0  0
    3.0833   -0.4415    0.0000 C   0  0  0  0  0  0  0  0  0  0  0  0
    7.0928    4.5716    0.0000 C   0  0  0  0  0  0  0  0  0  0  0  0
    2.7706    0.5585    0.0000 C   0  0  0  0  0  0  0  0  0  0  0  0
    5.3080    4.8204    0.0000 C   0  0  0  0  0  0  0  0  0  0  0  0
   10.7576   -1.8317    0.0000 C   0  0  0  0  0  0  0  0  0  0  0  0
    2.2222    2.3054    0.0000 C   0  0  0  0  0  0  0  0  0  0  0  0
    3.6103    4.4953    0.0000 C   0  0  0  0  0  0  0  0  0  0  0  0
    2.0107    1.2795    0.0000 C   0  0  0  0  0  0  0  0  0  0  0  0
    4.3709    5.1188    0.0000 C   0  0  0  0  0  0  0  0  0  0  0  0
    2.0000    3.8932    0.0000 C   0  0  0  0  0  0  0  0  0  0  0  0
    2.6417    4.6315    0.0000 C   0  0  0  0  0  0  0  0  0  0  0  0
   12.2342   -2.7369    0.0000 C   0  0  0  0  0  0  0  0  0  0  0  0
   13.2339   -2.7633    0.0000 C   0  0  0  0  0  0  0  0  0  0  0  0
   14.7105   -3.6686    0.0000 C   0  0  0  0  0  0  0  0  0  0  0  0
   15.1875   -4.5475    0.0000 C   0  0  0  0  0  0  0  0  0  0  0  0
    7.4441   -0.9254    0.0000 H   0  0  0  0  0  0  0  0  0  0  0  0
    8.8232    0.8290    0.0000 H   0  0  0  0  0  0  0  0  0  0  0  0
    7.7777   -1.5079    0.0000 H   0  0  0  0  0  0  0  0  0  0  0  0
    8.5600   -1.7836    0.0000 H   0  0  0  0  0  0  0  0  0  0  0  0
    9.9227   -0.0084    0.0000 H   0  0  0  0  0  0  0  0  0  0  0  0
    9.4542    0.6761    0.0000 H   0  0  0  0  0  0  0  0  0  0  0  0
   10.8686   -0.7561    0.0000 H   0  0  0  0  0  0  0  0  0  0  0  0
   10.1891   -0.3395    0.0000 H   0  0  0  0  0  0  0  0  0  0  0  0
    8.9703   -2.0612    0.0000 H   0  0  0  0  0  0  0  0  0  0  0  0
    9.7407   -2.4798    0.0000 H   0  0  0  0  0  0  0  0  0  0  0  0
   10.1593   -1.7093    0.0000 H   0  0  0  0  0  0  0  0  0  0  0  0
    6.1026   -1.6101    0.0000 H   0  0  0  0  0  0  0  0  0  0  0  0
    8.6981    3.1621    0.0000 H   0  0  0  0  0  0  0  0  0  0  0  0
    2.4708   -0.5373    0.0000 H   0  0  0  0  0  0  0  0  0  0  0  0
    3.0879   -1.0614    0.0000 H   0  0  0  0  0  0  0  0  0  0  0  0
    7.7056    4.6661    0.0000 H   0  0  0  0  0  0  0  0  0  0  0  0
    7.0883    5.1916    0.0000 H   0  0  0  0  0  0  0  0  0  0  0  0
   10.1696   -2.0283    0.0000 H   0  0  0  0  0  0  0  0  0  0  0  0
   10.8491   -2.4449    0.0000 H   0  0  0  0  0  0  0  0  0  0  0  0
    1.4192    1.0938    0.0000 H   0  0  0  0  0  0  0  0  0  0  0  0
    4.2543    5.7277    0.0000 H   0  0  0  0  0  0  0  0  0  0  0  0
    1.4056    4.0694    0.0000 H   0  0  0  0  0  0  0  0  0  0  0  0
    2.4245    5.2122    0.0000 H   0  0  0  0  0  0  0  0  0  0  0  0
   11.6462   -2.9336    0.0000 H   0  0  0  0  0  0  0  0  0  0  0  0
   12.3257   -3.3502    0.0000 H   0  0  0  0  0  0  0  0  0  0  0  0
   13.8219   -2.5667    0.0000 H   0  0  0  0  0  0  0  0  0  0  0  0
   13.1423   -2.1501    0.0000 H   0  0  0  0  0  0  0  0  0  0  0  0
   15.2985   -3.4720    0.0000 H   0  0  0  0  0  0  0  0  0  0  0  0
   14.6190   -3.0554    0.0000 H   0  0  0  0  0  0  0  0  0  0  0  0
   14.5995   -4.7441    0.0000 H   0  0  0  0  0  0  0  0  0  0  0  0
   15.2790   -5.1607    0.0000 H   0  0  0  0  0  0  0  0  0  0  0  0
   16.4829   -5.1188    0.0000 H   0  0  0  0  0  0  0  0  0  0  0  0
   16.5112   -4.0453    0.0000 H   0  0  0  0  0  0  0  0  0  0  0  0
  1 35  1  0  0  0  0
  1 42  1  0  0  0  0
  2 43  1  0  0  0  0
  2 44  1  0  0  0  0
  3  7  1  0  0  0  0
  3  8  1  0  0  0  0
  3 16  1  0  0  0  0
  3 20  1  0  0  0  0
  4 45  1  0  0  0  0
  4 77  1  0  0  0  0
  4 78  1  0  0  0  0
  5  6  1  0  0  0  0
  5  7  1  0  0  0  0
  5  9  1  0  0  0  0
  5 46  1  0  0  0  0
  6  8  1  0  0  0  0
  6 10  1  0  0  0  0
  6 47  1  0  0  0  0
  7 48  1  0  0  0  0
  7 49  1  0  0  0  0
  8 50  1  0  0  0  0
  8 51  1  0  0  0  0
  9 11  2  0  0  0  0
  9 27  1  0  0  0  0
 10 12  2  0  0  0  0
 10 28  1  0  0  0  0
 11 12  1  0  0  0  0
 11 13  1  0  0  0  0
 12 14  1  0  0  0  0
 13 15  1  0  0  0  0
 13 17  2  0  0  0  0
 14 15  1  0  0  0  0
 14 18  2  0  0  0  0
 15 19  2  0  0  0  0
 16 35  1  0  0  0  0
 16 52  1  0  0  0  0
 16 53  1  0  0  0  0
 17 23  1  0  0  0  0
 17 25  1  0  0  0  0
 18 24  1  0  0  0  0
 18 26  1  0  0  0  0
 19 21  1  0  0  0  0
 19 22  1  0  0  0  0
 20 54  1  0  0  0  0
 20 55  1  0  0  0  0
 20 56  1  0  0  0  0
 21 23  1  0  0  0  0
 21 29  2  0  0  0  0
 22 24  1  0  0  0  0
 22 30  2  0  0  0  0
 23 33  2  0  0  0  0
 24 34  2  0  0  0  0
 25 27  2  0  0  0  0
 25 31  1  0  0  0  0
 26 28  2  0  0  0  0
 26 32  1  0  0  0  0
 27 57  1  0  0  0  0
 28 58  1  0  0  0  0
 29 30  1  0  0  0  0
 29 36  1  0  0  0  0
 30 37  1  0  0  0  0
 31 33  1  0  0  0  0
 31 59  1  0  0  0  0
 31 60  1  0  0  0  0
 32 34  1  0  0  0  0
 32 61  1  0  0  0  0
 32 62  1  0  0  0  0
 33 38  1  0  0  0  0
 34 39  1  0  0  0  0
 35 63  1  0  0  0  0
 35 64  1  0  0  0  0
 36 38  2  0  0  0  0
 36 40  1  0  0  0  0
 37 39  2  0  0  0  0
 37 41  1  0  0  0  0
 38 65  1  0  0  0  0
 39 66  1  0  0  0  0
 40 41  2  0  0  0  0
 40 67  1  0  0  0  0
 41 68  1  0  0  0  0
 42 43  1  0  0  0  0
 42 69  1  0  0  0  0
 42 70  1  0  0  0  0
 43 71  1  0  0  0  0
 43 72  1  0  0  0  0
 44 45  1  0  0  0  0
 44 73  1  0  0  0  0
 44 74  1  0  0  0  0
 45 75  1  0  0  0  0
 45 76  1  0  0  0  0
M  CHG  1   3   1
M  END
> <PUBCHEM_COMPOUND_CID>
513698
> <PUBCHEM_COMPOUND_CANONICALIZED>
1
> <PUBCHEM_CACTVS_COMPLEXITY>
1200
> <PUBCHEM_CACTVS_HBOND_ACCEPTOR>
3
> <PUBCHEM_CACTVS_HBOND_DONOR>
1
> <PUBCHEM_CACTVS_ROTATABLE_BOND>
8
> <PUBCHEM_CACTVS_SUBSKEYS>
AAADcfB/MAAAAAAAAAAAAAAAAAAAAeMGDBAwYMGDAAAAAHjBVAAAHgAQAAAADQDhmAYyAMNABACAAiBCAAACAAAgAAAIiIAIAIgLICKAkRGHIAAgkACaiAcQgMAOwAACAAAQAACAAAQAACAAAQAACAAAAA==
> <PUBCHEM_IUPAC_OPENEYE_NAME>
2-[2-[2-(4-methyl-4-azoniatridecacyclo[18.13.1.118,21.02,6.07,32.09,30.011,29.013,27.016,26.022,33.023,31.024,28.025,35]pentatriaconta-1(33),7(32),8,11(29),12,14,16,18(35),20(34),21,23,25,27,30-tetradecaen-4-yl)ethoxy]ethoxy]ethanamine
> <PUBCHEM_IUPAC_CAS_NAME>
2-[2-[2-(4-methyl-4-azoniatridecacyclo[18.13.1.118,21.02,6.07,32.09,30.011,29.013,27.016,26.022,33.023,31.024,28.025,35]pentatriaconta-1(33),7(32),8,11(29),12,14,16,18(35),20(34),21,23,25,27,30-tetradecaen-4-yl)ethoxy]ethoxy]ethanamine
> <PUBCHEM_IUPAC_NAME_MARKUP>
2-[2-[2-(4-methyl-4-azoniatridecacyclo[18.13.1.1<SUP>18,21</SUP>.0<SUP>2,6</SUP>.0<SUP>7,32</SUP>.0<SUP>9,30</SUP>.0<SUP>11,29</SUP>.0<SUP>13,27</SUP>.0<SUP>16,26</SUP>.0<SUP>22,33</SUP>.0<SUP>23,31</SUP>.0<SUP>24,28</SUP>.0<SUP>25,35</SUP>]pentatriaconta-1(33),7(32),8,11(29),12,14,16,18(35),20(34),21,23,25,27,30-tetradecaen-4-yl)ethoxy]ethoxy]ethanamine
> <PUBCHEM_IUPAC_NAME>
2-[2-[2-(4-methyl-4-azoniatridecacyclo[18.13.1.118,21.02,6.07,32.09,30.011,29.013,27.016,26.022,33.023,31.024,28.025,35]pentatriaconta-1(33),7(32),8,11(29),12,14,16,18(35),20(34),21,23,25,27,30-tetradecaen-4-yl)ethoxy]ethoxy]ethanamine
> <PUBCHEM_IUPAC_SYSTEMATIC_NAME>
2-[2-[2-(4-methyl-4-azoniatridecacyclo[18.13.1.118,21.02,6.07,32.09,30.011,29.013,27.016,26.022,33.023,31.024,28.025,35]pentatriaconta-1(33),7(32),8,11(29),12,14,16,18(35),20(34),21,23,25,27,30-tetradecaen-4-yl)ethoxy]ethoxy]ethanamine
> <PUBCHEM_IUPAC_TRADITIONAL_NAME>
2-[2-[2-(4-methyl-4-azoniatridecacyclo[18.13.1.118,21.02,6.07,32.09,30.011,29.013,27.016,26.022,33.023,31.024,28.025,35]pentatriaconta-1(33),7(32),8,11(29),12,14,16,18(35),20(34),21,23,25,27,30-tetradecaen-4-yl)ethoxy]ethoxy]ethylamine
> <PUBCHEM_IUPAC_INCHI>
InChI=1S/C41H33N2O2/c1-43(5-7-45-9-8-44-6-4-42)16-26-24-14-22-12-20-10-18-2-3-19-11-21-13-23-15-25(27(26)17-43)35-34(24)38-32(22)30(20)36-28(18)29(19)37-31(21)33(23)39(35)41(38)40(36)37/h2-3,10-11,14-15,26-27H,4-9,12-13,16-17,42H2,1H3/q+1
> <PUBCHEM_IUPAC_INCHIKEY>
UPVHIBBGLHUUPP-UHFFFAOYSA-N
> <PUBCHEM_XLOGP3_AA>
6.1
> <PUBCHEM_EXACT_MASS>
585.254203300
> <PUBCHEM_MOLECULAR_FORMULA>
C41H33N2O2+
> <PUBCHEM_MOLECULAR_WEIGHT>
585.7
> <PUBCHEM_OPENEYE_CAN_SMILES>
C[N+]1(CC2C(C1)C3=C4C5=C2C=C6CC7=C8C6=C5C9=C1C8=C2C(=C7)C=CC5=CC6=C(C1=C52)C(=C49)C(=C3)C6)CCOCCOCCN
> <PUBCHEM_OPENEYE_ISO_SMILES>
C[N+]1(CC2C(C1)C3=C4C5=C2C=C6CC7=C8C6=C5C9=C1C8=C2C(=C7)C=CC5=CC6=C(C1=C52)C(=C49)C(=C3)C6)CCOCCOCCN
> <PUBCHEM_CACTVS_TPSA>
44.5
> <PUBCHEM_MONOISOTOPIC_WEIGHT>
585.254203300
> <PUBCHEM_TOTAL_CHARGE>
1
> <PUBCHEM_HEAVY_ATOM_COUNT>
45
> <PUBCHEM_ATOM_DEF_STEREO_COUNT>
0
> <PUBCHEM_ATOM_UDEF_STEREO_COUNT>
2
> <PUBCHEM_BOND_DEF_STEREO_COUNT>
0
> <PUBCHEM_BOND_UDEF_STEREO_COUNT>
0
> <PUBCHEM_ISOTOPIC_ATOM_COUNT>
0
> <PUBCHEM_COMPONENT_COUNT>
1
> <PUBCHEM_CACTVS_TAUTO_COUNT>
-1
> <PUBCHEM_COORDINATE_TYPE>
1
5
255
> <PUBCHEM_BONDANNOTATIONS>
10  12  8
10  28  8
11  12  8
11  13  8
12  14  8
13  15  8
13  17  8
14  15  8
14  18  8
15  19  8
17  23  8
17  25  8
18  24  8
18  26  8
19  21  8
19  22  8
21  23  8
21  29  8
22  24  8
22  30  8
23  33  8
24  34  8
25  27  8
26  28  8
29  30  8
29  36  8
30  37  8
33  38  8
34  39  8
36  38  8
36  40  8
37  39  8
37  41  8
40  41  8
5  7  3
6  8  3
9  11  8
9  27  8
$$$$
