513694
  -OEChem-10302200282D
 35 37  0     1  0  0  0  0  0999 V2000
    6.3301   -2.9529    0.0000 Cl  0  0  0  0  0  0  0  0  0  0  0  0
    3.7891    0.6349    0.0000 S   0  0  0  0  0  0  0  0  0  0  0  0
    6.4641   -1.4529    0.0000 F   0  0  0  0  0  0  0  0  0  0  0  0
    2.3660   -1.8189    0.0000 F   0  0  0  0  0  0  0  0  0  0  0  0
    2.0000   -0.4529    0.0000 F   0  0  0  0  0  0  0  0  0  0  0  0
    3.3660   -0.0868    0.0000 F   0  0  0  0  0  0  0  0  0  0  0  0
    5.6859    2.3950    0.0000 O   0  0  0  0  0  0  0  0  0  0  0  0
    5.4071    0.6349    0.0000 N   0  0  0  0  0  0  0  0  0  0  0  0
    6.6943    1.7939    0.0000 N   0  0  0  0  0  0  0  0  0  0  0  0
    7.0544    0.0997    0.0000 N   0  0  0  0  0  0  0  0  0  0  0  0
    4.5981    0.0471    0.0000 C   0  0  3  0  0  0  0  0  0  0  0  0
    4.5981   -0.9529    0.0000 C   0  0  0  0  0  0  0  0  0  0  0  0
    4.0981    1.5860    0.0000 C   0  0  0  0  0  0  0  0  0  0  0  0
    5.0981    1.5860    0.0000 C   0  0  0  0  0  0  0  0  0  0  0  0
    3.7320   -1.4529    0.0000 C   0  0  0  0  0  0  0  0  0  0  0  0
    6.3852    0.8428    0.0000 C   0  0  0  0  0  0  0  0  0  0  0  0
    5.4641   -1.4529    0.0000 C   0  0  0  0  0  0  0  0  0  0  0  0
    3.7320   -2.4529    0.0000 C   0  0  0  0  0  0  0  0  0  0  0  0
    2.8660   -0.9529    0.0000 C   0  0  0  0  0  0  0  0  0  0  0  0
    5.4641   -2.4529    0.0000 C   0  0  0  0  0  0  0  0  0  0  0  0
    4.5981   -2.9529    0.0000 C   0  0  0  0  0  0  0  0  0  0  0  0
    7.6724    2.0018    0.0000 C   0  0  0  0  0  0  0  0  0  0  0  0
    8.0325    0.3076    0.0000 C   0  0  0  0  0  0  0  0  0  0  0  0
    8.3415    1.2587    0.0000 C   0  0  0  0  0  0  0  0  0  0  0  0
    7.9814    2.9529    0.0000 C   0  0  0  0  0  0  0  0  0  0  0  0
    5.1505   -0.2343    0.0000 H   0  0  0  0  0  0  0  0  0  0  0  0
    4.1629    2.2026    0.0000 H   0  0  0  0  0  0  0  0  0  0  0  0
    3.4916    1.7149    0.0000 H   0  0  0  0  0  0  0  0  0  0  0  0
    3.1951   -2.7629    0.0000 H   0  0  0  0  0  0  0  0  0  0  0  0
    4.5981   -3.5729    0.0000 H   0  0  0  0  0  0  0  0  0  0  0  0
    8.4474   -0.1531    0.0000 H   0  0  0  0  0  0  0  0  0  0  0  0
    8.9480    1.3876    0.0000 H   0  0  0  0  0  0  0  0  0  0  0  0
    8.5711    2.7613    0.0000 H   0  0  0  0  0  0  0  0  0  0  0  0
    8.1730    3.5425    0.0000 H   0  0  0  0  0  0  0  0  0  0  0  0
    7.3918    3.1444    0.0000 H   0  0  0  0  0  0  0  0  0  0  0  0
  1 20  1  0  0  0  0
  2 11  1  0  0  0  0
  2 13  1  0  0  0  0
  3 17  1  0  0  0  0
  4 19  1  0  0  0  0
  5 19  1  0  0  0  0
  6 19  1  0  0  0  0
  7 14  2  0  0  0  0
  8 11  1  0  0  0  0
  8 14  1  0  0  0  0
  8 16  1  0  0  0  0
  9 16  1  0  0  0  0
  9 22  2  0  0  0  0
 10 16  2  0  0  0  0
 10 23  1  0  0  0  0
 11 12  1  0  0  0  0
 11 26  1  0  0  0  0
 12 15  2  0  0  0  0
 12 17  1  0  0  0  0
 13 14  1  0  0  0  0
 13 27  1  0  0  0  0
 13 28  1  0  0  0  0
 15 18  1  0  0  0  0
 15 19  1  0  0  0  0
 17 20  2  0  0  0  0
 18 21  2  0  0  0  0
 18 29  1  0  0  0  0
 20 21  1  0  0  0  0
 21 30  1  0  0  0  0
 22 24  1  0  0  0  0
 22 25  1  0  0  0  0
 23 24  2  0  0  0  0
 23 31  1  0  0  0  0
 24 32  1  0  0  0  0
 25 33  1  0  0  0  0
 25 34  1  0  0  0  0
 25 35  1  0  0  0  0
M  END
> <PUBCHEM_COMPOUND_CID>
513694
> <PUBCHEM_COMPOUND_CANONICALIZED>
1
> <PUBCHEM_CACTVS_COMPLEXITY>
512
> <PUBCHEM_CACTVS_HBOND_ACCEPTOR>
8
> <PUBCHEM_CACTVS_HBOND_DONOR>
0
> <PUBCHEM_CACTVS_ROTATABLE_BOND>
2
> <PUBCHEM_CACTVS_SUBSKEYS>
AAADccBzIcBEAAAAAAAAAAAAAAAAAWAAAAA8QAAAAAAAAAABwAAAHwYAAAAADArF3jy/kJcIEAioAzV3dACCgClxB7AJ2CA4ZpiIKKLh29GEJAhohwLoyCcQgIAOhAAAIAAQAAAIAABAACAAAAAAAAAAAA==
> <PUBCHEM_IUPAC_OPENEYE_NAME>
2-[3-chloro-2-fluoro-6-(trifluoromethyl)phenyl]-3-(4-methylpyrimidin-2-yl)thiazolidin-4-one
> <PUBCHEM_IUPAC_CAS_NAME>
2-[3-chloro-2-fluoro-6-(trifluoromethyl)phenyl]-3-(4-methyl-2-pyrimidinyl)-4-thiazolidinone
> <PUBCHEM_IUPAC_NAME_MARKUP>
2-[3-chloro-2-fluoro-6-(trifluoromethyl)phenyl]-3-(4-methylpyrimidin-2-yl)-1,3-thiazolidin-4-one
> <PUBCHEM_IUPAC_NAME>
2-[3-chloro-2-fluoro-6-(trifluoromethyl)phenyl]-3-(4-methylpyrimidin-2-yl)-1,3-thiazolidin-4-one
> <PUBCHEM_IUPAC_SYSTEMATIC_NAME>
2-[3-chloranyl-2-fluoranyl-6-(trifluoromethyl)phenyl]-3-(4-methylpyrimidin-2-yl)-1,3-thiazolidin-4-one
> <PUBCHEM_IUPAC_TRADITIONAL_NAME>
2-[3-chloro-2-fluoro-6-(trifluoromethyl)phenyl]-3-(4-methylpyrimidin-2-yl)thiazolidin-4-one
> <PUBCHEM_IUPAC_INCHI>
InChI=1S/C15H10ClF4N3OS/c1-7-4-5-21-14(22-7)23-10(24)6-25-13(23)11-8(15(18,19)20)2-3-9(16)12(11)17/h2-5,13H,6H2,1H3
> <PUBCHEM_IUPAC_INCHIKEY>
UXCUMGWPWFUNKP-UHFFFAOYSA-N
> <PUBCHEM_XLOGP3_AA>
4
> <PUBCHEM_EXACT_MASS>
391.0169235
> <PUBCHEM_MOLECULAR_FORMULA>
C15H10ClF4N3OS
> <PUBCHEM_MOLECULAR_WEIGHT>
391.8
> <PUBCHEM_OPENEYE_CAN_SMILES>
CC1=NC(=NC=C1)N2C(SCC2=O)C3=C(C=CC(=C3F)Cl)C(F)(F)F
> <PUBCHEM_OPENEYE_ISO_SMILES>
CC1=NC(=NC=C1)N2C(SCC2=O)C3=C(C=CC(=C3F)Cl)C(F)(F)F
> <PUBCHEM_CACTVS_TPSA>
71.4
> <PUBCHEM_MONOISOTOPIC_WEIGHT>
391.0169235
> <PUBCHEM_TOTAL_CHARGE>
0
> <PUBCHEM_HEAVY_ATOM_COUNT>
25
> <PUBCHEM_ATOM_DEF_STEREO_COUNT>
0
> <PUBCHEM_ATOM_UDEF_STEREO_COUNT>
1
> <PUBCHEM_BOND_DEF_STEREO_COUNT>
0
> <PUBCHEM_BOND_UDEF_STEREO_COUNT>
0
> <PUBCHEM_ISOTOPIC_ATOM_COUNT>
0
> <PUBCHEM_COMPONENT_COUNT>
1
> <PUBCHEM_CACTVS_TAUTO_COUNT>
-1
> <PUBCHEM_COORDINATE_TYPE>
1
5
255
> <PUBCHEM_BONDANNOTATIONS>
10  16  8
10  23  8
11  12  3
12  15  8
12  17  8
15  18  8
17  20  8
18  21  8
20  21  8
22  24  8
23  24  8
9  16  8
9  22  8
$$$$
