513629
  -OEChem-10302200282D
 37 40  0     1  0  0  0  0  0999 V2000
    8.9260   -2.3111    0.0000 Cl  0  0  0  0  0  0  0  0  0  0  0  0
    2.0000   -1.2869    0.0000 Cl  0  0  0  0  0  0  0  0  0  0  0  0
    2.0000   -3.3352    0.0000 Cl  0  0  0  0  0  0  0  0  0  0  0  0
    7.0666    0.2542    0.0000 O   0  0  0  0  0  0  0  0  0  0  0  0
    9.4126   -0.8377    0.0000 O   0  0  0  0  0  0  0  0  0  0  0  0
    9.4164    1.3379    0.0000 O   0  0  0  0  0  0  0  0  0  0  0  0
    8.0189    2.7558    0.0000 O   0  0  0  0  0  0  0  0  0  0  0  0
    7.3424   -1.5064    0.0000 N   0  0  0  0  0  0  0  0  0  0  0  0
    7.3424   -3.1158    0.0000 N   0  0  0  0  0  0  0  0  0  0  0  0
    5.5301   -3.3111    0.0000 N   0  0  0  0  0  0  0  0  0  0  0  0
    7.6530   -0.5558    0.0000 C   0  0  1  0  0  0  0  0  0  0  0  0
    8.6046   -0.2485    0.0000 C   0  0  1  0  0  0  0  0  0  0  0  0
    8.6064    0.7515    0.0000 C   0  0  1  0  0  0  0  0  0  0  0  0
    7.6558    1.0622    0.0000 C   0  0  1  0  0  0  0  0  0  0  0  0
    7.3485    2.0138    0.0000 C   0  0  0  0  0  0  0  0  0  0  0  0
    6.3961   -1.8111    0.0000 C   0  0  0  0  0  0  0  0  0  0  0  0
    7.9260   -2.3111    0.0000 C   0  0  0  0  0  0  0  0  0  0  0  0
    6.3961   -2.8111    0.0000 C   0  0  0  0  0  0  0  0  0  0  0  0
    5.5301   -1.3111    0.0000 C   0  0  0  0  0  0  0  0  0  0  0  0
    4.6641   -1.8111    0.0000 C   0  0  0  0  0  0  0  0  0  0  0  0
    4.6641   -2.8111    0.0000 C   0  0  0  0  0  0  0  0  0  0  0  0
    3.7702   -1.2764    0.0000 C   0  0  0  0  0  0  0  0  0  0  0  0
    3.7702   -3.3458    0.0000 C   0  0  0  0  0  0  0  0  0  0  0  0
    2.8641   -1.7903    0.0000 C   0  0  0  0  0  0  0  0  0  0  0  0
    2.8641   -2.8319    0.0000 C   0  0  0  0  0  0  0  0  0  0  0  0
    7.0405   -0.6518    0.0000 H   0  0  0  0  0  0  0  0  0  0  0  0
    8.5066   -0.8607    0.0000 H   0  0  0  0  0  0  0  0  0  0  0  0
    9.1583    0.4691    0.0000 H   0  0  0  0  0  0  0  0  0  0  0  0
    7.0436    1.1602    0.0000 H   0  0  0  0  0  0  0  0  0  0  0  0
    6.9676    2.5030    0.0000 H   0  0  0  0  0  0  0  0  0  0  0  0
    6.8005    1.7237    0.0000 H   0  0  0  0  0  0  0  0  0  0  0  0
    9.9795   -0.5865    0.0000 H   0  0  0  0  0  0  0  0  0  0  0  0
    9.9824    1.0848    0.0000 H   0  0  0  0  0  0  0  0  0  0  0  0
    5.5301   -0.6911    0.0000 H   0  0  0  0  0  0  0  0  0  0  0  0
    7.8283    3.3458    0.0000 H   0  0  0  0  0  0  0  0  0  0  0  0
    3.7773   -0.6565    0.0000 H   0  0  0  0  0  0  0  0  0  0  0  0
    3.7773   -3.9657    0.0000 H   0  0  0  0  0  0  0  0  0  0  0  0
  1 17  1  0  0  0  0
  2 24  1  0  0  0  0
  3 25  1  0  0  0  0
  4 11  1  0  0  0  0
  4 14  1  0  0  0  0
 12  5  1  1  0  0  0
  5 32  1  0  0  0  0
 13  6  1  1  0  0  0
  6 33  1  0  0  0  0
  7 15  1  0  0  0  0
  7 35  1  0  0  0  0
 11  8  1  6  0  0  0
  8 16  1  0  0  0  0
  8 17  1  0  0  0  0
  9 17  2  0  0  0  0
  9 18  1  0  0  0  0
 10 18  1  0  0  0  0
 10 21  2  0  0  0  0
 11 12  1  0  0  0  0
 11 26  1  0  0  0  0
 12 13  1  0  0  0  0
 12 27  1  0  0  0  0
 13 14  1  0  0  0  0
 13 28  1  0  0  0  0
 14 15  1  6  0  0  0
 14 29  1  0  0  0  0
 15 30  1  0  0  0  0
 15 31  1  0  0  0  0
 16 18  2  0  0  0  0
 16 19  1  0  0  0  0
 19 20  2  0  0  0  0
 19 34  1  0  0  0  0
 20 21  1  0  0  0  0
 20 22  1  0  0  0  0
 21 23  1  0  0  0  0
 22 24  2  0  0  0  0
 22 36  1  0  0  0  0
 23 25  2  0  0  0  0
 23 37  1  0  0  0  0
 24 25  1  0  0  0  0
M  END
> <PUBCHEM_COMPOUND_CID>
513629
> <PUBCHEM_COMPOUND_CANONICALIZED>
1
> <PUBCHEM_CACTVS_COMPLEXITY>
507
> <PUBCHEM_CACTVS_HBOND_ACCEPTOR>
6
> <PUBCHEM_CACTVS_HBOND_DONOR>
3
> <PUBCHEM_CACTVS_ROTATABLE_BOND>
2
> <PUBCHEM_CACTVS_SUBSKEYS>
AAADccBzOAAGAAAAAAAAAAAAAAAAAWJAAAA8QAAAAAAAAFix/gAAHgIACAAADB7hnyYx8P8MFgCgAyZiZACCgC0hF6AB2mA4dpiLeOLBm5GeYAhvgALbyCfwsIIOBABAIAICAAQIAIBABAQACAAAAAAAAA==
> <PUBCHEM_IUPAC_OPENEYE_NAME>
(2R,3S,4R,5R)-2-(hydroxymethyl)-5-(2,6,7-trichloroimidazo[4,5-b]quinolin-1-yl)tetrahydrofuran-3,4-diol
> <PUBCHEM_IUPAC_CAS_NAME>
(2R,3S,4R,5R)-2-(hydroxymethyl)-5-(2,6,7-trichloro-1-imidazo[4,5-b]quinolinyl)oxolane-3,4-diol
> <PUBCHEM_IUPAC_NAME_MARKUP>
(2<I>R</I>,3<I>S</I>,4<I>R</I>,5<I>R</I>)-2-(hydroxymethyl)-5-(2,6,7-trichloroimidazo[4,5-b]quinolin-1-yl)oxolane-3,4-diol
> <PUBCHEM_IUPAC_NAME>
(2R,3S,4R,5R)-2-(hydroxymethyl)-5-(2,6,7-trichloroimidazo[4,5-b]quinolin-1-yl)oxolane-3,4-diol
> <PUBCHEM_IUPAC_SYSTEMATIC_NAME>
(2R,3S,4R,5R)-2-(hydroxymethyl)-5-[2,6,7-tris(chloranyl)imidazo[4,5-b]quinolin-1-yl]oxolane-3,4-diol
> <PUBCHEM_IUPAC_TRADITIONAL_NAME>
(2R,3S,4R,5R)-2-methylol-5-(2,6,7-trichloroimidazo[4,5-b]quinolin-1-yl)tetrahydrofuran-3,4-diol
> <PUBCHEM_IUPAC_INCHI>
InChI=1S/C15H12Cl3N3O4/c16-6-1-5-2-9-13(19-8(5)3-7(6)17)20-15(18)21(9)14-12(24)11(23)10(4-22)25-14/h1-3,10-12,14,22-24H,4H2/t10-,11-,12-,14-/m1/s1
> <PUBCHEM_IUPAC_INCHIKEY>
MUDMQBUTQOJUPU-HKUMRIAESA-N
> <PUBCHEM_XLOGP3_AA>
2.6
> <PUBCHEM_EXACT_MASS>
402.989339
> <PUBCHEM_MOLECULAR_FORMULA>
C15H12Cl3N3O4
> <PUBCHEM_MOLECULAR_WEIGHT>
404.6
> <PUBCHEM_OPENEYE_CAN_SMILES>
C1=C2C=C(C(=CC2=NC3=C1N(C(=N3)Cl)C4C(C(C(O4)CO)O)O)Cl)Cl
> <PUBCHEM_OPENEYE_ISO_SMILES>
C1=C2C=C(C(=CC2=NC3=C1N(C(=N3)Cl)[C@H]4[C@@H]([C@@H]([C@H](O4)CO)O)O)Cl)Cl
> <PUBCHEM_CACTVS_TPSA>
101
> <PUBCHEM_MONOISOTOPIC_WEIGHT>
402.989339
> <PUBCHEM_TOTAL_CHARGE>
0
> <PUBCHEM_HEAVY_ATOM_COUNT>
25
> <PUBCHEM_ATOM_DEF_STEREO_COUNT>
4
> <PUBCHEM_ATOM_UDEF_STEREO_COUNT>
0
> <PUBCHEM_BOND_DEF_STEREO_COUNT>
0
> <PUBCHEM_BOND_UDEF_STEREO_COUNT>
0
> <PUBCHEM_ISOTOPIC_ATOM_COUNT>
0
> <PUBCHEM_COMPONENT_COUNT>
1
> <PUBCHEM_CACTVS_TAUTO_COUNT>
-1
> <PUBCHEM_COORDINATE_TYPE>
1
5
255
> <PUBCHEM_BONDANNOTATIONS>
10  18  8
10  21  8
14  15  6
16  18  8
16  19  8
19  20  8
20  21  8
20  22  8
21  23  8
22  24  8
23  25  8
24  25  8
12  5  5
13  6  5
11  8  6
8  16  8
8  17  8
9  17  8
9  18  8
$$$$
