513667
  -OEChem-10302200282D
 38 40  0     1  0  0  0  0  0999 V2000
    3.7891    0.6349    0.0000 S   0  0  0  0  0  0  0  0  0  0  0  0
    6.4641   -1.4529    0.0000 F   0  0  0  0  0  0  0  0  0  0  0  0
    5.6859    2.3950    0.0000 O   0  0  0  0  0  0  0  0  0  0  0  0
    2.8660   -0.9529    0.0000 O   0  0  0  0  0  0  0  0  0  0  0  0
    5.4071    0.6349    0.0000 N   0  0  0  0  0  0  0  0  0  0  0  0
    4.5981    0.0471    0.0000 C   0  0  3  0  0  0  0  0  0  0  0  0
    4.5981   -0.9529    0.0000 C   0  0  0  0  0  0  0  0  0  0  0  0
    4.0981    1.5860    0.0000 C   0  0  0  0  0  0  0  0  0  0  0  0
    5.0981    1.5860    0.0000 C   0  0  0  0  0  0  0  0  0  0  0  0
    6.3852    0.8428    0.0000 C   0  0  0  0  0  0  0  0  0  0  0  0
    3.7320   -1.4529    0.0000 C   0  0  0  0  0  0  0  0  0  0  0  0
    5.4641   -1.4529    0.0000 C   0  0  0  0  0  0  0  0  0  0  0  0
    6.6943    1.7939    0.0000 C   0  0  0  0  0  0  0  0  0  0  0  0
    7.0544    0.0997    0.0000 C   0  0  0  0  0  0  0  0  0  0  0  0
    7.6724    2.0018    0.0000 C   0  0  0  0  0  0  0  0  0  0  0  0
    3.7320   -2.4529    0.0000 C   0  0  0  0  0  0  0  0  0  0  0  0
    5.4641   -2.4529    0.0000 C   0  0  0  0  0  0  0  0  0  0  0  0
    8.0325    0.3076    0.0000 C   0  0  0  0  0  0  0  0  0  0  0  0
    8.3415    1.2587    0.0000 C   0  0  0  0  0  0  0  0  0  0  0  0
    4.5981   -2.9529    0.0000 C   0  0  0  0  0  0  0  0  0  0  0  0
    7.9814    2.9529    0.0000 C   0  0  0  0  0  0  0  0  0  0  0  0
    2.0000   -1.4529    0.0000 C   0  0  0  0  0  0  0  0  0  0  0  0
    5.1505   -0.2343    0.0000 H   0  0  0  0  0  0  0  0  0  0  0  0
    4.1629    2.2026    0.0000 H   0  0  0  0  0  0  0  0  0  0  0  0
    3.4916    1.7149    0.0000 H   0  0  0  0  0  0  0  0  0  0  0  0
    6.2794    2.2546    0.0000 H   0  0  0  0  0  0  0  0  0  0  0  0
    6.8628   -0.4900    0.0000 H   0  0  0  0  0  0  0  0  0  0  0  0
    3.1951   -2.7629    0.0000 H   0  0  0  0  0  0  0  0  0  0  0  0
    6.0010   -2.7629    0.0000 H   0  0  0  0  0  0  0  0  0  0  0  0
    8.4474   -0.1531    0.0000 H   0  0  0  0  0  0  0  0  0  0  0  0
    8.9480    1.3876    0.0000 H   0  0  0  0  0  0  0  0  0  0  0  0
    4.5981   -3.5729    0.0000 H   0  0  0  0  0  0  0  0  0  0  0  0
    8.5711    2.7613    0.0000 H   0  0  0  0  0  0  0  0  0  0  0  0
    8.1730    3.5425    0.0000 H   0  0  0  0  0  0  0  0  0  0  0  0
    7.3918    3.1444    0.0000 H   0  0  0  0  0  0  0  0  0  0  0  0
    1.6900   -0.9159    0.0000 H   0  0  0  0  0  0  0  0  0  0  0  0
    1.4631   -1.7629    0.0000 H   0  0  0  0  0  0  0  0  0  0  0  0
    2.3100   -1.9898    0.0000 H   0  0  0  0  0  0  0  0  0  0  0  0
  1  6  1  0  0  0  0
  1  8  1  0  0  0  0
  2 12  1  0  0  0  0
  3  9  2  0  0  0  0
  4 11  1  0  0  0  0
  4 22  1  0  0  0  0
  5  6  1  0  0  0  0
  5  9  1  0  0  0  0
  5 10  1  0  0  0  0
  6  7  1  0  0  0  0
  6 23  1  0  0  0  0
  7 11  2  0  0  0  0
  7 12  1  0  0  0  0
  8  9  1  0  0  0  0
  8 24  1  0  0  0  0
  8 25  1  0  0  0  0
 10 13  1  0  0  0  0
 10 14  2  0  0  0  0
 11 16  1  0  0  0  0
 12 17  2  0  0  0  0
 13 15  2  0  0  0  0
 13 26  1  0  0  0  0
 14 18  1  0  0  0  0
 14 27  1  0  0  0  0
 15 19  1  0  0  0  0
 15 21  1  0  0  0  0
 16 20  2  0  0  0  0
 16 28  1  0  0  0  0
 17 20  1  0  0  0  0
 17 29  1  0  0  0  0
 18 19  2  0  0  0  0
 18 30  1  0  0  0  0
 19 31  1  0  0  0  0
 20 32  1  0  0  0  0
 21 33  1  0  0  0  0
 21 34  1  0  0  0  0
 21 35  1  0  0  0  0
 22 36  1  0  0  0  0
 22 37  1  0  0  0  0
 22 38  1  0  0  0  0
M  END
> <PUBCHEM_COMPOUND_CID>
513667
> <PUBCHEM_COMPOUND_CANONICALIZED>
1
> <PUBCHEM_CACTVS_COMPLEXITY>
408
> <PUBCHEM_CACTVS_HBOND_ACCEPTOR>
4
> <PUBCHEM_CACTVS_HBOND_DONOR>
0
> <PUBCHEM_CACTVS_ROTATABLE_BOND>
3
> <PUBCHEM_CACTVS_SUBSKEYS>
AAADceB6MQBAAAAAAAAAAAAAAAAAAWAAAAAwYAAAAAAAAAABQAAAHwQAAAAADAzF2A6yxoMABAiIAiVSUACCCABhIhAIiAAObIgMJiLksZuEMChmxhHo6AeQwCAOAAAAQAAIAAAAAACAABAAAAAAAAAAAA==
> <PUBCHEM_IUPAC_OPENEYE_NAME>
2-(2-fluoro-6-methoxy-phenyl)-3-(m-tolyl)thiazolidin-4-one
> <PUBCHEM_IUPAC_CAS_NAME>
2-(2-fluoro-6-methoxyphenyl)-3-(3-methylphenyl)-4-thiazolidinone
> <PUBCHEM_IUPAC_NAME_MARKUP>
2-(2-fluoro-6-methoxyphenyl)-3-(3-methylphenyl)-1,3-thiazolidin-4-one
> <PUBCHEM_IUPAC_NAME>
2-(2-fluoro-6-methoxyphenyl)-3-(3-methylphenyl)-1,3-thiazolidin-4-one
> <PUBCHEM_IUPAC_SYSTEMATIC_NAME>
2-(2-fluoranyl-6-methoxy-phenyl)-3-(3-methylphenyl)-1,3-thiazolidin-4-one
> <PUBCHEM_IUPAC_TRADITIONAL_NAME>
2-(2-fluoro-6-methoxy-phenyl)-3-(m-tolyl)thiazolidin-4-one
> <PUBCHEM_IUPAC_INCHI>
InChI=1S/C17H16FNO2S/c1-11-5-3-6-12(9-11)19-15(20)10-22-17(19)16-13(18)7-4-8-14(16)21-2/h3-9,17H,10H2,1-2H3
> <PUBCHEM_IUPAC_INCHIKEY>
LWICLZQJIZDOBZ-UHFFFAOYSA-N
> <PUBCHEM_XLOGP3_AA>
3.8
> <PUBCHEM_EXACT_MASS>
317.08857809
> <PUBCHEM_MOLECULAR_FORMULA>
C17H16FNO2S
> <PUBCHEM_MOLECULAR_WEIGHT>
317.4
> <PUBCHEM_OPENEYE_CAN_SMILES>
CC1=CC(=CC=C1)N2C(SCC2=O)C3=C(C=CC=C3F)OC
> <PUBCHEM_OPENEYE_ISO_SMILES>
CC1=CC(=CC=C1)N2C(SCC2=O)C3=C(C=CC=C3F)OC
> <PUBCHEM_CACTVS_TPSA>
54.8
> <PUBCHEM_MONOISOTOPIC_WEIGHT>
317.08857809
> <PUBCHEM_TOTAL_CHARGE>
0
> <PUBCHEM_HEAVY_ATOM_COUNT>
22
> <PUBCHEM_ATOM_DEF_STEREO_COUNT>
0
> <PUBCHEM_ATOM_UDEF_STEREO_COUNT>
1
> <PUBCHEM_BOND_DEF_STEREO_COUNT>
0
> <PUBCHEM_BOND_UDEF_STEREO_COUNT>
0
> <PUBCHEM_ISOTOPIC_ATOM_COUNT>
0
> <PUBCHEM_COMPONENT_COUNT>
1
> <PUBCHEM_CACTVS_TAUTO_COUNT>
-1
> <PUBCHEM_COORDINATE_TYPE>
1
5
255
> <PUBCHEM_BONDANNOTATIONS>
10  13  8
10  14  8
11  16  8
12  17  8
13  15  8
14  18  8
15  19  8
16  20  8
17  20  8
18  19  8
6  7  3
7  11  8
7  12  8
$$$$
