513690
  -OEChem-10302200282D
 44 46  0     1  0  0  0  0  0999 V2000
    6.9126    0.6349    0.0000 S   0  0  0  0  0  0  0  0  0  0  0  0
    7.8356   -0.9529    0.0000 O   0  0  0  0  0  0  0  0  0  0  0  0
    4.2376   -1.4529    0.0000 O   0  0  0  0  0  0  0  0  0  0  0  0
    5.0158    2.3950    0.0000 O   0  0  0  0  0  0  0  0  0  0  0  0
    5.2946    0.6349    0.0000 N   0  0  0  0  0  0  0  0  0  0  0  0
    3.6473    0.0997    0.0000 N   0  0  0  0  0  0  0  0  0  0  0  0
    6.1036    0.0471    0.0000 C   0  0  3  0  0  0  0  0  0  0  0  0
    6.1036   -0.9529    0.0000 C   0  0  0  0  0  0  0  0  0  0  0  0
    6.6036    1.5860    0.0000 C   0  0  0  0  0  0  0  0  0  0  0  0
    5.6036    1.5860    0.0000 C   0  0  0  0  0  0  0  0  0  0  0  0
    4.3164    0.8429    0.0000 C   0  0  0  0  0  0  0  0  0  0  0  0
    6.9696   -1.4529    0.0000 C   0  0  0  0  0  0  0  0  0  0  0  0
    5.2376   -1.4529    0.0000 C   0  0  0  0  0  0  0  0  0  0  0  0
    4.0074    1.7939    0.0000 C   0  0  0  0  0  0  0  0  0  0  0  0
    3.0292    2.0018    0.0000 C   0  0  0  0  0  0  0  0  0  0  0  0
    6.9696   -2.4529    0.0000 C   0  0  0  0  0  0  0  0  0  0  0  0
    5.2376   -2.4529    0.0000 C   0  0  0  0  0  0  0  0  0  0  0  0
    2.6691    0.3076    0.0000 C   0  0  0  0  0  0  0  0  0  0  0  0
    6.1036   -2.9529    0.0000 C   0  0  0  0  0  0  0  0  0  0  0  0
    2.3601    1.2587    0.0000 C   0  0  0  0  0  0  0  0  0  0  0  0
    2.7202    2.9529    0.0000 C   0  0  0  0  0  0  0  0  0  0  0  0
    2.0000   -0.4355    0.0000 C   0  0  0  0  0  0  0  0  0  0  0  0
    8.7017   -1.4529    0.0000 C   0  0  0  0  0  0  0  0  0  0  0  0
    3.7375   -2.3188    0.0000 C   0  0  0  0  0  0  0  0  0  0  0  0
    5.5512   -0.2343    0.0000 H   0  0  0  0  0  0  0  0  0  0  0  0
    7.2100    1.7149    0.0000 H   0  0  0  0  0  0  0  0  0  0  0  0
    6.5388    2.2026    0.0000 H   0  0  0  0  0  0  0  0  0  0  0  0
    4.4222    2.2546    0.0000 H   0  0  0  0  0  0  0  0  0  0  0  0
    7.5065   -2.7629    0.0000 H   0  0  0  0  0  0  0  0  0  0  0  0
    4.7006   -2.7629    0.0000 H   0  0  0  0  0  0  0  0  0  0  0  0
    6.1036   -3.5729    0.0000 H   0  0  0  0  0  0  0  0  0  0  0  0
    1.7537    1.3876    0.0000 H   0  0  0  0  0  0  0  0  0  0  0  0
    3.3099    3.1444    0.0000 H   0  0  0  0  0  0  0  0  0  0  0  0
    2.5286    3.5425    0.0000 H   0  0  0  0  0  0  0  0  0  0  0  0
    2.1306    2.7613    0.0000 H   0  0  0  0  0  0  0  0  0  0  0  0
    1.5392   -0.0207    0.0000 H   0  0  0  0  0  0  0  0  0  0  0  0
    1.5852   -0.8963    0.0000 H   0  0  0  0  0  0  0  0  0  0  0  0
    2.4608   -0.8504    0.0000 H   0  0  0  0  0  0  0  0  0  0  0  0
    8.3916   -1.9898    0.0000 H   0  0  0  0  0  0  0  0  0  0  0  0
    9.2386   -1.7629    0.0000 H   0  0  0  0  0  0  0  0  0  0  0  0
    9.0116   -0.9159    0.0000 H   0  0  0  0  0  0  0  0  0  0  0  0
    3.2006   -2.0088    0.0000 H   0  0  0  0  0  0  0  0  0  0  0  0
    3.4274   -2.8557    0.0000 H   0  0  0  0  0  0  0  0  0  0  0  0
    4.2744   -2.6288    0.0000 H   0  0  0  0  0  0  0  0  0  0  0  0
  1  7  1  0  0  0  0
  1  9  1  0  0  0  0
  2 12  1  0  0  0  0
  2 23  1  0  0  0  0
  3 13  1  0  0  0  0
  3 24  1  0  0  0  0
  4 10  2  0  0  0  0
  5  7  1  0  0  0  0
  5 10  1  0  0  0  0
  5 11  1  0  0  0  0
  6 11  1  0  0  0  0
  6 18  2  0  0  0  0
  7  8  1  0  0  0  0
  7 25  1  0  0  0  0
  8 12  2  0  0  0  0
  8 13  1  0  0  0  0
  9 10  1  0  0  0  0
  9 26  1  0  0  0  0
  9 27  1  0  0  0  0
 11 14  2  0  0  0  0
 12 16  1  0  0  0  0
 13 17  2  0  0  0  0
 14 15  1  0  0  0  0
 14 28  1  0  0  0  0
 15 20  2  0  0  0  0
 15 21  1  0  0  0  0
 16 19  2  0  0  0  0
 16 29  1  0  0  0  0
 17 19  1  0  0  0  0
 17 30  1  0  0  0  0
 18 20  1  0  0  0  0
 18 22  1  0  0  0  0
 19 31  1  0  0  0  0
 20 32  1  0  0  0  0
 21 33  1  0  0  0  0
 21 34  1  0  0  0  0
 21 35  1  0  0  0  0
 22 36  1  0  0  0  0
 22 37  1  0  0  0  0
 22 38  1  0  0  0  0
 23 39  1  0  0  0  0
 23 40  1  0  0  0  0
 23 41  1  0  0  0  0
 24 42  1  0  0  0  0
 24 43  1  0  0  0  0
 24 44  1  0  0  0  0
M  END
> <PUBCHEM_COMPOUND_CID>
513690
> <PUBCHEM_COMPOUND_CANONICALIZED>
1
> <PUBCHEM_CACTVS_COMPLEXITY>
438
> <PUBCHEM_CACTVS_HBOND_ACCEPTOR>
5
> <PUBCHEM_CACTVS_HBOND_DONOR>
0
> <PUBCHEM_CACTVS_ROTATABLE_BOND>
4
> <PUBCHEM_CACTVS_SUBSKEYS>
AAADceB7MABAAAAAAAAAAAAAAAAAAWAAAAA8QAAAAAAAAAABwAAAHgQAAAAADAzF3gaztpMIFAioAydydACCiClhIjAJmCA+bJiMJ2LkuZuEMChvxxfo6CeQ4CwOAAAACAAIAAAAAAAQABAAAAAAAAAAAA==
> <PUBCHEM_IUPAC_OPENEYE_NAME>
2-(2,6-dimethoxyphenyl)-3-(4,6-dimethyl-2-pyridyl)thiazolidin-4-one
> <PUBCHEM_IUPAC_CAS_NAME>
2-(2,6-dimethoxyphenyl)-3-(4,6-dimethyl-2-pyridinyl)-4-thiazolidinone
> <PUBCHEM_IUPAC_NAME_MARKUP>
2-(2,6-dimethoxyphenyl)-3-(4,6-dimethylpyridin-2-yl)-1,3-thiazolidin-4-one
> <PUBCHEM_IUPAC_NAME>
2-(2,6-dimethoxyphenyl)-3-(4,6-dimethylpyridin-2-yl)-1,3-thiazolidin-4-one
> <PUBCHEM_IUPAC_SYSTEMATIC_NAME>
2-(2,6-dimethoxyphenyl)-3-(4,6-dimethylpyridin-2-yl)-1,3-thiazolidin-4-one
> <PUBCHEM_IUPAC_TRADITIONAL_NAME>
2-(2,6-dimethoxyphenyl)-3-(4,6-dimethyl-2-pyridyl)thiazolidin-4-one
> <PUBCHEM_IUPAC_INCHI>
InChI=1S/C18H20N2O3S/c1-11-8-12(2)19-15(9-11)20-16(21)10-24-18(20)17-13(22-3)6-5-7-14(17)23-4/h5-9,18H,10H2,1-4H3
> <PUBCHEM_IUPAC_INCHIKEY>
MSESMVKANBGZMD-UHFFFAOYSA-N
> <PUBCHEM_XLOGP3_AA>
3.3
> <PUBCHEM_EXACT_MASS>
344.11946368
> <PUBCHEM_MOLECULAR_FORMULA>
C18H20N2O3S
> <PUBCHEM_MOLECULAR_WEIGHT>
344.4
> <PUBCHEM_OPENEYE_CAN_SMILES>
CC1=CC(=NC(=C1)N2C(SCC2=O)C3=C(C=CC=C3OC)OC)C
> <PUBCHEM_OPENEYE_ISO_SMILES>
CC1=CC(=NC(=C1)N2C(SCC2=O)C3=C(C=CC=C3OC)OC)C
> <PUBCHEM_CACTVS_TPSA>
77
> <PUBCHEM_MONOISOTOPIC_WEIGHT>
344.11946368
> <PUBCHEM_TOTAL_CHARGE>
0
> <PUBCHEM_HEAVY_ATOM_COUNT>
24
> <PUBCHEM_ATOM_DEF_STEREO_COUNT>
0
> <PUBCHEM_ATOM_UDEF_STEREO_COUNT>
1
> <PUBCHEM_BOND_DEF_STEREO_COUNT>
0
> <PUBCHEM_BOND_UDEF_STEREO_COUNT>
0
> <PUBCHEM_ISOTOPIC_ATOM_COUNT>
0
> <PUBCHEM_COMPONENT_COUNT>
1
> <PUBCHEM_CACTVS_TAUTO_COUNT>
-1
> <PUBCHEM_COORDINATE_TYPE>
1
5
255
> <PUBCHEM_BONDANNOTATIONS>
11  14  8
12  16  8
13  17  8
14  15  8
15  20  8
16  19  8
17  19  8
18  20  8
6  11  8
6  18  8
7  8  3
8  12  8
8  13  8
$$$$
