513613
  -OEChem-10302200282D
 30 31  0     1  0  0  0  0  0999 V2000
    6.9459    1.5426    0.0000 P   0  0  0  0  0  0  0  0  0  0  0  0
    5.7612    2.3148    0.0000 O   0  0  0  0  0  0  0  0  0  0  0  0
    7.9244    1.7488    0.0000 O   0  0  0  0  0  0  0  0  0  0  0  0
    6.7397    2.5211    0.0000 O   0  0  0  0  0  0  0  0  0  0  0  0
    7.1522    0.5641    0.0000 O   0  0  0  0  0  0  0  0  0  0  0  0
    4.6783    0.1796    0.0000 N   0  0  0  0  0  0  0  0  0  0  0  0
    4.6783   -1.4299    0.0000 N   0  0  0  0  0  0  0  0  0  0  0  0
    2.8660    0.3749    0.0000 N   0  0  0  0  0  0  0  0  0  0  0  0
    2.0000   -1.1251    0.0000 N   0  0  0  0  0  0  0  0  0  0  0  0
    2.8660   -2.6251    0.0000 N   0  0  0  0  0  0  0  0  0  0  0  0
    5.9674    1.3363    0.0000 C   0  0  3  0  0  0  0  0  0  0  0  0
    4.9889    1.1301    0.0000 C   0  0  0  0  0  0  0  0  0  0  0  0
    6.1737    0.3578    0.0000 C   0  0  0  0  0  0  0  0  0  0  0  0
    3.7320   -0.1251    0.0000 C   0  0  0  0  0  0  0  0  0  0  0  0
    5.2619   -0.6251    0.0000 C   0  0  0  0  0  0  0  0  0  0  0  0
    3.7320   -1.1251    0.0000 C   0  0  0  0  0  0  0  0  0  0  0  0
    2.8660   -1.6251    0.0000 C   0  0  0  0  0  0  0  0  0  0  0  0
    2.0000   -0.1251    0.0000 C   0  0  0  0  0  0  0  0  0  0  0  0
    4.9684    1.7498    0.0000 H   0  0  0  0  0  0  0  0  0  0  0  0
    4.3751    1.2175    0.0000 H   0  0  0  0  0  0  0  0  0  0  0  0
    5.5670    0.2300    0.0000 H   0  0  0  0  0  0  0  0  0  0  0  0
    6.3015   -0.2488    0.0000 H   0  0  0  0  0  0  0  0  0  0  0  0
    6.7803    0.4857    0.0000 H   0  0  0  0  0  0  0  0  0  0  0  0
    5.8819   -0.6251    0.0000 H   0  0  0  0  0  0  0  0  0  0  0  0
    5.1719    2.5075    0.0000 H   0  0  0  0  0  0  0  0  0  0  0  0
    8.1171    2.3381    0.0000 H   0  0  0  0  0  0  0  0  0  0  0  0
    7.2012    2.9351    0.0000 H   0  0  0  0  0  0  0  0  0  0  0  0
    1.4631    0.1849    0.0000 H   0  0  0  0  0  0  0  0  0  0  0  0
    2.3291   -2.9351    0.0000 H   0  0  0  0  0  0  0  0  0  0  0  0
    3.4030   -2.9351    0.0000 H   0  0  0  0  0  0  0  0  0  0  0  0
  1  3  1  0  0  0  0
  1  4  1  0  0  0  0
  1  5  2  0  0  0  0
  1 11  1  0  0  0  0
  2 11  1  0  0  0  0
  2 25  1  0  0  0  0
  3 26  1  0  0  0  0
  4 27  1  0  0  0  0
  6 12  1  0  0  0  0
  6 14  1  0  0  0  0
  6 15  1  0  0  0  0
  7 15  2  0  0  0  0
  7 16  1  0  0  0  0
  8 14  2  0  0  0  0
  8 18  1  0  0  0  0
  9 17  1  0  0  0  0
  9 18  2  0  0  0  0
 10 17  1  0  0  0  0
 10 29  1  0  0  0  0
 10 30  1  0  0  0  0
 11 12  1  0  0  0  0
 11 13  1  0  0  0  0
 12 19  1  0  0  0  0
 12 20  1  0  0  0  0
 13 21  1  0  0  0  0
 13 22  1  0  0  0  0
 13 23  1  0  0  0  0
 14 16  1  0  0  0  0
 15 24  1  0  0  0  0
 16 17  2  0  0  0  0
 18 28  1  0  0  0  0
M  END
> <PUBCHEM_COMPOUND_CID>
513613
> <PUBCHEM_COMPOUND_CANONICALIZED>
1
> <PUBCHEM_CACTVS_COMPLEXITY>
365
> <PUBCHEM_CACTVS_HBOND_ACCEPTOR>
8
> <PUBCHEM_CACTVS_HBOND_DONOR>
4
> <PUBCHEM_CACTVS_ROTATABLE_BOND>
3
> <PUBCHEM_CACTVS_SUBSKEYS>
AAADccBzuAIAAAAAAAAAAAAAAAAAAWAAAAAsAAAAAAAAAFgB+AAAHggQCCAACAzBlwQH8L9MEhCgQQZhZICAgC0REKABUCAoVBCCSABASEAUBAgIAALQACAAAAAAAAAAAAAAAAAAAAAAAAAAAAAAAAAAAA==
> <PUBCHEM_IUPAC_OPENEYE_NAME>
[2-(6-aminopurin-9-yl)-1-hydroxy-1-methyl-ethyl]phosphonic acid
> <PUBCHEM_IUPAC_CAS_NAME>
[1-(6-aminopurin-9-yl)-2-hydroxypropan-2-yl]phosphonic acid
> <PUBCHEM_IUPAC_NAME_MARKUP>
[1-(6-aminopurin-9-yl)-2-hydroxypropan-2-yl]phosphonic acid
> <PUBCHEM_IUPAC_NAME>
[1-(6-aminopurin-9-yl)-2-hydroxypropan-2-yl]phosphonic acid
> <PUBCHEM_IUPAC_SYSTEMATIC_NAME>
[1-(6-aminopurin-9-yl)-2-oxidanyl-propan-2-yl]phosphonic acid
> <PUBCHEM_IUPAC_TRADITIONAL_NAME>
(2-adenin-9-yl-1-hydroxy-1-methyl-ethyl)phosphonic acid
> <PUBCHEM_IUPAC_INCHI>
InChI=1S/C8H12N5O4P/c1-8(14,18(15,16)17)2-13-4-12-5-6(9)10-3-11-7(5)13/h3-4,14H,2H2,1H3,(H2,9,10,11)(H2,15,16,17)
> <PUBCHEM_IUPAC_INCHIKEY>
AJHKTTXGBAWLBV-UHFFFAOYSA-N
> <PUBCHEM_XLOGP3>
-2.3
> <PUBCHEM_EXACT_MASS>
273.06269088
> <PUBCHEM_MOLECULAR_FORMULA>
C8H12N5O4P
> <PUBCHEM_MOLECULAR_WEIGHT>
273.19
> <PUBCHEM_OPENEYE_CAN_SMILES>
CC(CN1C=NC2=C(N=CN=C21)N)(O)P(=O)(O)O
> <PUBCHEM_OPENEYE_ISO_SMILES>
CC(CN1C=NC2=C(N=CN=C21)N)(O)P(=O)(O)O
> <PUBCHEM_CACTVS_TPSA>
147
> <PUBCHEM_MONOISOTOPIC_WEIGHT>
273.06269088
> <PUBCHEM_TOTAL_CHARGE>
0
> <PUBCHEM_HEAVY_ATOM_COUNT>
18
> <PUBCHEM_ATOM_DEF_STEREO_COUNT>
0
> <PUBCHEM_ATOM_UDEF_STEREO_COUNT>
1
> <PUBCHEM_BOND_DEF_STEREO_COUNT>
0
> <PUBCHEM_BOND_UDEF_STEREO_COUNT>
0
> <PUBCHEM_ISOTOPIC_ATOM_COUNT>
0
> <PUBCHEM_COMPONENT_COUNT>
1
> <PUBCHEM_CACTVS_TAUTO_COUNT>
-1
> <PUBCHEM_COORDINATE_TYPE>
1
5
255
> <PUBCHEM_BONDANNOTATIONS>
14  16  8
16  17  8
11  2  3
6  14  8
6  15  8
7  15  8
7  16  8
8  14  8
8  18  8
9  17  8
9  18  8
$$$$
