513691
  -OEChem-10302200282D
 32 34  0     1  0  0  0  0  0999 V2000
    6.5525    0.6349    0.0000 S   0  0  0  0  0  0  0  0  0  0  0  0
    7.4755   -0.9529    0.0000 F   0  0  0  0  0  0  0  0  0  0  0  0
    3.8774   -1.4529    0.0000 F   0  0  0  0  0  0  0  0  0  0  0  0
    4.6557    2.3950    0.0000 O   0  0  0  0  0  0  0  0  0  0  0  0
    4.9344    0.6349    0.0000 N   0  0  0  0  0  0  0  0  0  0  0  0
    3.6473    1.7939    0.0000 N   0  0  0  0  0  0  0  0  0  0  0  0
    3.2872    0.0997    0.0000 N   0  0  0  0  0  0  0  0  0  0  0  0
    5.7434    0.0471    0.0000 C   0  0  3  0  0  0  0  0  0  0  0  0
    5.7434   -0.9529    0.0000 C   0  0  0  0  0  0  0  0  0  0  0  0
    6.2434    1.5860    0.0000 C   0  0  0  0  0  0  0  0  0  0  0  0
    5.2434    1.5860    0.0000 C   0  0  0  0  0  0  0  0  0  0  0  0
    3.9563    0.8429    0.0000 C   0  0  0  0  0  0  0  0  0  0  0  0
    6.6095   -1.4529    0.0000 C   0  0  0  0  0  0  0  0  0  0  0  0
    4.8774   -1.4529    0.0000 C   0  0  0  0  0  0  0  0  0  0  0  0
    6.6095   -2.4529    0.0000 C   0  0  0  0  0  0  0  0  0  0  0  0
    4.8774   -2.4529    0.0000 C   0  0  0  0  0  0  0  0  0  0  0  0
    5.7434   -2.9529    0.0000 C   0  0  0  0  0  0  0  0  0  0  0  0
    2.6691    2.0018    0.0000 C   0  0  0  0  0  0  0  0  0  0  0  0
    2.3090    0.3076    0.0000 C   0  0  0  0  0  0  0  0  0  0  0  0
    2.0000    1.2587    0.0000 C   0  0  0  0  0  0  0  0  0  0  0  0
    2.3601    2.9529    0.0000 C   0  0  0  0  0  0  0  0  0  0  0  0
    5.1910   -0.2343    0.0000 H   0  0  0  0  0  0  0  0  0  0  0  0
    6.8499    1.7149    0.0000 H   0  0  0  0  0  0  0  0  0  0  0  0
    6.1786    2.2026    0.0000 H   0  0  0  0  0  0  0  0  0  0  0  0
    7.1464   -2.7629    0.0000 H   0  0  0  0  0  0  0  0  0  0  0  0
    4.3405   -2.7629    0.0000 H   0  0  0  0  0  0  0  0  0  0  0  0
    5.7434   -3.5729    0.0000 H   0  0  0  0  0  0  0  0  0  0  0  0
    1.8941   -0.1531    0.0000 H   0  0  0  0  0  0  0  0  0  0  0  0
    1.3936    1.3876    0.0000 H   0  0  0  0  0  0  0  0  0  0  0  0
    2.9498    3.1444    0.0000 H   0  0  0  0  0  0  0  0  0  0  0  0
    2.1685    3.5425    0.0000 H   0  0  0  0  0  0  0  0  0  0  0  0
    1.7704    2.7613    0.0000 H   0  0  0  0  0  0  0  0  0  0  0  0
  1  8  1  0  0  0  0
  1 10  1  0  0  0  0
  2 13  1  0  0  0  0
  3 14  1  0  0  0  0
  4 11  2  0  0  0  0
  5  8  1  0  0  0  0
  5 11  1  0  0  0  0
  5 12  1  0  0  0  0
  6 12  1  0  0  0  0
  6 18  2  0  0  0  0
  7 12  2  0  0  0  0
  7 19  1  0  0  0  0
  8  9  1  0  0  0  0
  8 22  1  0  0  0  0
  9 13  2  0  0  0  0
  9 14  1  0  0  0  0
 10 11  1  0  0  0  0
 10 23  1  0  0  0  0
 10 24  1  0  0  0  0
 13 15  1  0  0  0  0
 14 16  2  0  0  0  0
 15 17  2  0  0  0  0
 15 25  1  0  0  0  0
 16 17  1  0  0  0  0
 16 26  1  0  0  0  0
 17 27  1  0  0  0  0
 18 20  1  0  0  0  0
 18 21  1  0  0  0  0
 19 20  2  0  0  0  0
 19 28  1  0  0  0  0
 20 29  1  0  0  0  0
 21 30  1  0  0  0  0
 21 31  1  0  0  0  0
 21 32  1  0  0  0  0
M  END
> <PUBCHEM_COMPOUND_CID>
513691
> <PUBCHEM_COMPOUND_CANONICALIZED>
1
> <PUBCHEM_CACTVS_COMPLEXITY>
390
> <PUBCHEM_CACTVS_HBOND_ACCEPTOR>
6
> <PUBCHEM_CACTVS_HBOND_DONOR>
0
> <PUBCHEM_CACTVS_ROTATABLE_BOND>
2
> <PUBCHEM_CACTVS_SUBSKEYS>
AAADccBzIYBAAAAAAAAAAAAAAAAAAWAAAAA8QAAAAAAAAAABwAAAHwQAAAAADAjF3gy/kJcIEAioAzV3dACCgClxArAJ2CA4ZJiIKKLg2dGEJAhohwLoyCcQgAAOAAAAAAAAAAAAAAAAAAAAAAAAAAAAAA==
> <PUBCHEM_IUPAC_OPENEYE_NAME>
2-(2,6-difluorophenyl)-3-(4-methylpyrimidin-2-yl)thiazolidin-4-one
> <PUBCHEM_IUPAC_CAS_NAME>
2-(2,6-difluorophenyl)-3-(4-methyl-2-pyrimidinyl)-4-thiazolidinone
> <PUBCHEM_IUPAC_NAME_MARKUP>
2-(2,6-difluorophenyl)-3-(4-methylpyrimidin-2-yl)-1,3-thiazolidin-4-one
> <PUBCHEM_IUPAC_NAME>
2-(2,6-difluorophenyl)-3-(4-methylpyrimidin-2-yl)-1,3-thiazolidin-4-one
> <PUBCHEM_IUPAC_SYSTEMATIC_NAME>
2-[2,6-bis(fluoranyl)phenyl]-3-(4-methylpyrimidin-2-yl)-1,3-thiazolidin-4-one
> <PUBCHEM_IUPAC_TRADITIONAL_NAME>
2-(2,6-difluorophenyl)-3-(4-methylpyrimidin-2-yl)thiazolidin-4-one
> <PUBCHEM_IUPAC_INCHI>
InChI=1S/C14H11F2N3OS/c1-8-5-6-17-14(18-8)19-11(20)7-21-13(19)12-9(15)3-2-4-10(12)16/h2-6,13H,7H2,1H3
> <PUBCHEM_IUPAC_INCHIKEY>
HBUNUVXVDLOLKN-UHFFFAOYSA-N
> <PUBCHEM_XLOGP3_AA>
2.6
> <PUBCHEM_EXACT_MASS>
307.05908948
> <PUBCHEM_MOLECULAR_FORMULA>
C14H11F2N3OS
> <PUBCHEM_MOLECULAR_WEIGHT>
307.32
> <PUBCHEM_OPENEYE_CAN_SMILES>
CC1=NC(=NC=C1)N2C(SCC2=O)C3=C(C=CC=C3F)F
> <PUBCHEM_OPENEYE_ISO_SMILES>
CC1=NC(=NC=C1)N2C(SCC2=O)C3=C(C=CC=C3F)F
> <PUBCHEM_CACTVS_TPSA>
71.4
> <PUBCHEM_MONOISOTOPIC_WEIGHT>
307.05908948
> <PUBCHEM_TOTAL_CHARGE>
0
> <PUBCHEM_HEAVY_ATOM_COUNT>
21
> <PUBCHEM_ATOM_DEF_STEREO_COUNT>
0
> <PUBCHEM_ATOM_UDEF_STEREO_COUNT>
1
> <PUBCHEM_BOND_DEF_STEREO_COUNT>
0
> <PUBCHEM_BOND_UDEF_STEREO_COUNT>
0
> <PUBCHEM_ISOTOPIC_ATOM_COUNT>
0
> <PUBCHEM_COMPONENT_COUNT>
1
> <PUBCHEM_CACTVS_TAUTO_COUNT>
-1
> <PUBCHEM_COORDINATE_TYPE>
1
5
255
> <PUBCHEM_BONDANNOTATIONS>
13  15  8
14  16  8
15  17  8
16  17  8
18  20  8
19  20  8
6  12  8
6  18  8
7  12  8
7  19  8
8  9  3
9  13  8
9  14  8
$$$$
