513602
  -OEChem-10302200282D
 31 31  0     1  0  0  0  0  0999 V2000
    3.4030   -2.8450    0.0000 P   0  0  0  0  0  0  0  0  0  0  0  0
    3.4030    3.1550    0.0000 F   0  0  0  0  0  0  0  0  0  0  0  0
    4.2690   -1.3450    0.0000 O   0  0  0  0  0  0  0  0  0  0  0  0
    2.5369   -0.3450    0.0000 O   0  0  0  0  0  0  0  0  0  0  0  0
    3.4030   -3.8450    0.0000 O   0  0  0  0  0  0  0  0  0  0  0  0
    2.4030   -2.8450    0.0000 O   0  0  0  0  0  0  0  0  0  0  0  0
    6.8671    1.1550    0.0000 O   0  0  0  0  0  0  0  0  0  0  0  0
    4.4030   -2.8450    0.0000 O   0  0  0  0  0  0  0  0  0  0  0  0
    5.1350    4.1550    0.0000 O   0  0  0  0  0  0  0  0  0  0  0  0
    5.1350    1.1550    0.0000 N   0  0  0  0  0  0  0  0  0  0  0  0
    6.0010    2.6550    0.0000 N   0  0  0  0  0  0  0  0  0  0  0  0
    4.2690   -0.3450    0.0000 C   0  0  3  0  0  0  0  0  0  0  0  0
    5.1350    0.1550    0.0000 C   0  0  0  0  0  0  0  0  0  0  0  0
    3.4030    0.1550    0.0000 C   0  0  0  0  0  0  0  0  0  0  0  0
    3.4030   -1.8450    0.0000 C   0  0  0  0  0  0  0  0  0  0  0  0
    6.0010    1.6550    0.0000 C   0  0  0  0  0  0  0  0  0  0  0  0
    4.2690    1.6550    0.0000 C   0  0  0  0  0  0  0  0  0  0  0  0
    4.2690    2.6550    0.0000 C   0  0  0  0  0  0  0  0  0  0  0  0
    5.1350    3.1550    0.0000 C   0  0  0  0  0  0  0  0  0  0  0  0
    4.8059   -0.6550    0.0000 H   0  0  0  0  0  0  0  0  0  0  0  0
    5.3471   -0.4276    0.0000 H   0  0  0  0  0  0  0  0  0  0  0  0
    5.7456    0.2627    0.0000 H   0  0  0  0  0  0  0  0  0  0  0  0
    3.8015    0.6299    0.0000 H   0  0  0  0  0  0  0  0  0  0  0  0
    3.0044    0.6299    0.0000 H   0  0  0  0  0  0  0  0  0  0  0  0
    3.1909   -1.2624    0.0000 H   0  0  0  0  0  0  0  0  0  0  0  0
    2.7924   -1.9527    0.0000 H   0  0  0  0  0  0  0  0  0  0  0  0
    3.7320    1.3450    0.0000 H   0  0  0  0  0  0  0  0  0  0  0  0
    6.5380    2.9650    0.0000 H   0  0  0  0  0  0  0  0  0  0  0  0
    2.0000   -0.0350    0.0000 H   0  0  0  0  0  0  0  0  0  0  0  0
    2.8660   -4.1550    0.0000 H   0  0  0  0  0  0  0  0  0  0  0  0
    2.0930   -3.3819    0.0000 H   0  0  0  0  0  0  0  0  0  0  0  0
  1  5  1  0  0  0  0
  1  6  1  0  0  0  0
  1  8  2  0  0  0  0
  1 15  1  0  0  0  0
  2 18  1  0  0  0  0
  3 12  1  0  0  0  0
  3 15  1  0  0  0  0
  4 14  1  0  0  0  0
  4 29  1  0  0  0  0
  5 30  1  0  0  0  0
  6 31  1  0  0  0  0
  7 16  2  0  0  0  0
  9 19  2  0  0  0  0
 10 13  1  0  0  0  0
 10 16  1  0  0  0  0
 10 17  1  0  0  0  0
 11 16  1  0  0  0  0
 11 19  1  0  0  0  0
 11 28  1  0  0  0  0
 12 13  1  0  0  0  0
 12 14  1  0  0  0  0
 12 20  1  0  0  0  0
 13 21  1  0  0  0  0
 13 22  1  0  0  0  0
 14 23  1  0  0  0  0
 14 24  1  0  0  0  0
 15 25  1  0  0  0  0
 15 26  1  0  0  0  0
 17 18  2  0  0  0  0
 17 27  1  0  0  0  0
 18 19  1  0  0  0  0
M  END
> <PUBCHEM_COMPOUND_CID>
513602
> <PUBCHEM_COMPOUND_CANONICALIZED>
1
> <PUBCHEM_CACTVS_COMPLEXITY>
448
> <PUBCHEM_CACTVS_HBOND_ACCEPTOR>
8
> <PUBCHEM_CACTVS_HBOND_DONOR>
4
> <PUBCHEM_CACTVS_ROTATABLE_BOND>
6
> <PUBCHEM_CACTVS_SUBSKEYS>
AAADccBzOQIAAAAAAAAAAAAAAAAAAAAAAAAgAAAAAAAAAAAAAAAAHwgQCCAACBThgAYBAAPABhCIQAFWUICAAAAAAAAAAAAIAECDEAAAAAAFQAAKByITAMAAAAAAAAAAAAAAAAAAAAAAAAAAAAAAAAAAAA==
> <PUBCHEM_IUPAC_OPENEYE_NAME>
[1-[(5-fluoro-2,4-dioxo-pyrimidin-1-yl)methyl]-2-hydroxy-ethoxy]methylphosphonic acid
> <PUBCHEM_IUPAC_CAS_NAME>
[1-(5-fluoro-2,4-dioxo-1-pyrimidinyl)-3-hydroxypropan-2-yl]oxymethylphosphonic acid
> <PUBCHEM_IUPAC_NAME_MARKUP>
[1-(5-fluoro-2,4-dioxopyrimidin-1-yl)-3-hydroxypropan-2-yl]oxymethylphosphonic acid
> <PUBCHEM_IUPAC_NAME>
[1-(5-fluoro-2,4-dioxopyrimidin-1-yl)-3-hydroxypropan-2-yl]oxymethylphosphonic acid
> <PUBCHEM_IUPAC_SYSTEMATIC_NAME>
[1-[5-fluoranyl-2,4-bis(oxidanylidene)pyrimidin-1-yl]-3-oxidanyl-propan-2-yl]oxymethylphosphonic acid
> <PUBCHEM_IUPAC_TRADITIONAL_NAME>
[1-[(5-fluoro-2,4-diketo-pyrimidin-1-yl)methyl]-2-hydroxy-ethoxy]methylphosphonic acid
> <PUBCHEM_IUPAC_INCHI>
InChI=1S/C8H12FN2O7P/c9-6-2-11(8(14)10-7(6)13)1-5(3-12)18-4-19(15,16)17/h2,5,12H,1,3-4H2,(H,10,13,14)(H2,15,16,17)
> <PUBCHEM_IUPAC_INCHIKEY>
RWBKFPHUHLTXQH-UHFFFAOYSA-N
> <PUBCHEM_XLOGP3_AA>
-3
> <PUBCHEM_EXACT_MASS>
298.03661589
> <PUBCHEM_MOLECULAR_FORMULA>
C8H12FN2O7P
> <PUBCHEM_MOLECULAR_WEIGHT>
298.16
> <PUBCHEM_OPENEYE_CAN_SMILES>
C1=C(C(=O)NC(=O)N1CC(CO)OCP(=O)(O)O)F
> <PUBCHEM_OPENEYE_ISO_SMILES>
C1=C(C(=O)NC(=O)N1CC(CO)OCP(=O)(O)O)F
> <PUBCHEM_CACTVS_TPSA>
136
> <PUBCHEM_MONOISOTOPIC_WEIGHT>
298.03661589
> <PUBCHEM_TOTAL_CHARGE>
0
> <PUBCHEM_HEAVY_ATOM_COUNT>
19
> <PUBCHEM_ATOM_DEF_STEREO_COUNT>
0
> <PUBCHEM_ATOM_UDEF_STEREO_COUNT>
1
> <PUBCHEM_BOND_DEF_STEREO_COUNT>
0
> <PUBCHEM_BOND_UDEF_STEREO_COUNT>
0
> <PUBCHEM_ISOTOPIC_ATOM_COUNT>
0
> <PUBCHEM_COMPONENT_COUNT>
1
> <PUBCHEM_CACTVS_TAUTO_COUNT>
-1
> <PUBCHEM_COORDINATE_TYPE>
1
5
255
> <PUBCHEM_BONDANNOTATIONS>
10  16  8
10  17  8
11  16  8
11  19  8
12  13  3
17  18  8
18  19  8
$$$$
