513635
  -OEChem-10302200282D
 51 55  0     1  0  0  0  0  0999 V2000
    2.0000   -0.9382    0.0000 Cl  0  0  0  0  0  0  0  0  0  0  0  0
    2.0000   -2.9865    0.0000 Cl  0  0  0  0  0  0  0  0  0  0  0  0
    8.9260   -1.9624    0.0000 S   0  0  0  0  0  0  0  0  0  0  0  0
    7.0666    0.6029    0.0000 O   0  0  0  0  0  0  0  0  0  0  0  0
    9.4126   -0.4890    0.0000 O   0  0  0  0  0  0  0  0  0  0  0  0
    9.4164    1.6866    0.0000 O   0  0  0  0  0  0  0  0  0  0  0  0
    8.0189    3.1045    0.0000 O   0  0  0  0  0  0  0  0  0  0  0  0
    7.3424   -1.1577    0.0000 N   0  0  0  0  0  0  0  0  0  0  0  0
    7.3424   -2.7671    0.0000 N   0  0  0  0  0  0  0  0  0  0  0  0
    5.5301   -0.9624    0.0000 N   0  0  0  0  0  0  0  0  0  0  0  0
    7.6530   -0.2071    0.0000 C   0  0  1  0  0  0  0  0  0  0  0  0
    8.6046    0.1002    0.0000 C   0  0  1  0  0  0  0  0  0  0  0  0
    8.6064    1.1002    0.0000 C   0  0  1  0  0  0  0  0  0  0  0  0
    7.6558    1.4109    0.0000 C   0  0  1  0  0  0  0  0  0  0  0  0
    7.3485    2.3625    0.0000 C   0  0  0  0  0  0  0  0  0  0  0  0
    6.3961   -1.4624    0.0000 C   0  0  0  0  0  0  0  0  0  0  0  0
    7.9260   -1.9624    0.0000 C   0  0  0  0  0  0  0  0  0  0  0  0
    6.3961   -2.4624    0.0000 C   0  0  0  0  0  0  0  0  0  0  0  0
    5.5301   -2.9624    0.0000 C   0  0  0  0  0  0  0  0  0  0  0  0
    4.6641   -1.4624    0.0000 C   0  0  0  0  0  0  0  0  0  0  0  0
    4.6641   -2.4624    0.0000 C   0  0  0  0  0  0  0  0  0  0  0  0
    9.4260   -2.8284    0.0000 C   0  0  0  0  0  0  0  0  0  0  0  0
    3.7702   -0.9277    0.0000 C   0  0  0  0  0  0  0  0  0  0  0  0
    3.7702   -2.9971    0.0000 C   0  0  0  0  0  0  0  0  0  0  0  0
   10.4260   -2.8284    0.0000 C   0  0  0  0  0  0  0  0  0  0  0  0
    2.8641   -1.4416    0.0000 C   0  0  0  0  0  0  0  0  0  0  0  0
    2.8641   -2.4832    0.0000 C   0  0  0  0  0  0  0  0  0  0  0  0
   10.9260   -1.9624    0.0000 C   0  0  0  0  0  0  0  0  0  0  0  0
   10.9260   -3.6944    0.0000 C   0  0  0  0  0  0  0  0  0  0  0  0
   11.9260   -1.9624    0.0000 C   0  0  0  0  0  0  0  0  0  0  0  0
   11.9260   -3.6944    0.0000 C   0  0  0  0  0  0  0  0  0  0  0  0
   12.4260   -2.8284    0.0000 C   0  0  0  0  0  0  0  0  0  0  0  0
    7.0405   -0.3031    0.0000 H   0  0  0  0  0  0  0  0  0  0  0  0
    8.5066   -0.5120    0.0000 H   0  0  0  0  0  0  0  0  0  0  0  0
    9.1583    0.8178    0.0000 H   0  0  0  0  0  0  0  0  0  0  0  0
    7.0436    1.5089    0.0000 H   0  0  0  0  0  0  0  0  0  0  0  0
    6.9676    2.8517    0.0000 H   0  0  0  0  0  0  0  0  0  0  0  0
    6.8005    2.0724    0.0000 H   0  0  0  0  0  0  0  0  0  0  0  0
    9.9795   -0.2378    0.0000 H   0  0  0  0  0  0  0  0  0  0  0  0
    9.3526    2.3033    0.0000 H   0  0  0  0  0  0  0  0  0  0  0  0
    5.5301   -3.5824    0.0000 H   0  0  0  0  0  0  0  0  0  0  0  0
    7.8283    3.6944    0.0000 H   0  0  0  0  0  0  0  0  0  0  0  0
    8.8434   -3.0405    0.0000 H   0  0  0  0  0  0  0  0  0  0  0  0
    9.5336   -3.4390    0.0000 H   0  0  0  0  0  0  0  0  0  0  0  0
    3.7773   -0.3078    0.0000 H   0  0  0  0  0  0  0  0  0  0  0  0
    3.7773   -3.6170    0.0000 H   0  0  0  0  0  0  0  0  0  0  0  0
   10.6160   -1.4255    0.0000 H   0  0  0  0  0  0  0  0  0  0  0  0
   10.6160   -4.2314    0.0000 H   0  0  0  0  0  0  0  0  0  0  0  0
   12.2360   -1.4255    0.0000 H   0  0  0  0  0  0  0  0  0  0  0  0
   12.2360   -4.2314    0.0000 H   0  0  0  0  0  0  0  0  0  0  0  0
   13.0460   -2.8284    0.0000 H   0  0  0  0  0  0  0  0  0  0  0  0
  1 26  1  0  0  0  0
  2 27  1  0  0  0  0
  3 17  1  0  0  0  0
  3 22  1  0  0  0  0
  4 11  1  0  0  0  0
  4 14  1  0  0  0  0
 12  5  1  1  0  0  0
  5 39  1  0  0  0  0
 13  6  1  1  0  0  0
  6 40  1  0  0  0  0
  7 15  1  0  0  0  0
  7 42  1  0  0  0  0
 11  8  1  6  0  0  0
  8 16  1  0  0  0  0
  8 17  1  0  0  0  0
  9 17  2  0  0  0  0
  9 18  1  0  0  0  0
 10 16  1  0  0  0  0
 10 20  2  0  0  0  0
 11 12  1  0  0  0  0
 11 33  1  0  0  0  0
 12 13  1  0  0  0  0
 12 34  1  0  0  0  0
 13 14  1  0  0  0  0
 13 35  1  0  0  0  0
 14 15  1  6  0  0  0
 14 36  1  0  0  0  0
 15 37  1  0  0  0  0
 15 38  1  0  0  0  0
 16 18  2  0  0  0  0
 18 19  1  0  0  0  0
 19 21  2  0  0  0  0
 19 41  1  0  0  0  0
 20 21  1  0  0  0  0
 20 23  1  0  0  0  0
 21 24  1  0  0  0  0
 22 25  1  0  0  0  0
 22 43  1  0  0  0  0
 22 44  1  0  0  0  0
 23 26  2  0  0  0  0
 23 45  1  0  0  0  0
 24 27  2  0  0  0  0
 24 46  1  0  0  0  0
 25 28  2  0  0  0  0
 25 29  1  0  0  0  0
 26 27  1  0  0  0  0
 28 30  1  0  0  0  0
 28 47  1  0  0  0  0
 29 31  2  0  0  0  0
 29 48  1  0  0  0  0
 30 32  2  0  0  0  0
 30 49  1  0  0  0  0
 31 32  1  0  0  0  0
 31 50  1  0  0  0  0
 32 51  1  0  0  0  0
M  END
> <PUBCHEM_COMPOUND_CID>
513635
> <PUBCHEM_COMPOUND_CANONICALIZED>
1
> <PUBCHEM_CACTVS_COMPLEXITY>
648
> <PUBCHEM_CACTVS_HBOND_ACCEPTOR>
7
> <PUBCHEM_CACTVS_HBOND_DONOR>
3
> <PUBCHEM_CACTVS_ROTATABLE_BOND>
5
> <PUBCHEM_CACTVS_SUBSKEYS>
AAADceB7OABGAAAAAAAAAAAAAAAAAWJAAAA8YIAAAAAAAFix/gAAHgYACAAADB7l3yax8P8MFgigAyZiZACC0C1hF7AJ2mA4dpiLeOLhm5GeYAhvgALbyCfwsIIOBABAIAICAAQIAIBABAQACAAAAAAAAA==
> <PUBCHEM_IUPAC_OPENEYE_NAME>
(2R,3R,4S,5R)-2-(2-benzylsulfanyl-6,7-dichloro-imidazo[4,5-b]quinolin-3-yl)-5-(hydroxymethyl)tetrahydrofuran-3,4-diol
> <PUBCHEM_IUPAC_CAS_NAME>
(2R,3R,4S,5R)-2-[6,7-dichloro-2-(phenylmethylthio)-3-imidazo[4,5-b]quinolinyl]-5-(hydroxymethyl)oxolane-3,4-diol
> <PUBCHEM_IUPAC_NAME_MARKUP>
(2<I>R</I>,3<I>R</I>,4<I>S</I>,5<I>R</I>)-2-(2-benzylsulfanyl-6,7-dichloroimidazo[4,5-b]quinolin-3-yl)-5-(hydroxymethyl)oxolane-3,4-diol
> <PUBCHEM_IUPAC_NAME>
(2R,3R,4S,5R)-2-(2-benzylsulfanyl-6,7-dichloroimidazo[4,5-b]quinolin-3-yl)-5-(hydroxymethyl)oxolane-3,4-diol
> <PUBCHEM_IUPAC_SYSTEMATIC_NAME>
(2R,3R,4S,5R)-2-[6,7-bis(chloranyl)-2-(phenylmethylsulfanyl)imidazo[4,5-b]quinolin-3-yl]-5-(hydroxymethyl)oxolane-3,4-diol
> <PUBCHEM_IUPAC_TRADITIONAL_NAME>
(2R,3R,4S,5R)-2-[2-(benzylthio)-6,7-dichloro-imidazo[4,5-b]quinolin-3-yl]-5-methylol-tetrahydrofuran-3,4-diol
> <PUBCHEM_IUPAC_INCHI>
InChI=1S/C22H19Cl2N3O4S/c23-13-6-12-7-16-20(25-15(12)8-14(13)24)27(21-19(30)18(29)17(9-28)31-21)22(26-16)32-10-11-4-2-1-3-5-11/h1-8,17-19,21,28-30H,9-10H2/t17-,18-,19-,21-/m1/s1
> <PUBCHEM_IUPAC_INCHIKEY>
IMMGXAJSQJNHFV-ANTGDGSKSA-N
> <PUBCHEM_XLOGP3_AA>
4
> <PUBCHEM_EXACT_MASS>
491.0473327
> <PUBCHEM_MOLECULAR_FORMULA>
C22H19Cl2N3O4S
> <PUBCHEM_MOLECULAR_WEIGHT>
492.4
> <PUBCHEM_OPENEYE_CAN_SMILES>
C1=CC=C(C=C1)CSC2=NC3=C(N2C4C(C(C(O4)CO)O)O)N=C5C=C(C(=CC5=C3)Cl)Cl
> <PUBCHEM_OPENEYE_ISO_SMILES>
C1=CC=C(C=C1)CSC2=NC3=C(N2[C@H]4[C@@H]([C@@H]([C@H](O4)CO)O)O)N=C5C=C(C(=CC5=C3)Cl)Cl
> <PUBCHEM_CACTVS_TPSA>
126
> <PUBCHEM_MONOISOTOPIC_WEIGHT>
491.0473327
> <PUBCHEM_TOTAL_CHARGE>
0
> <PUBCHEM_HEAVY_ATOM_COUNT>
32
> <PUBCHEM_ATOM_DEF_STEREO_COUNT>
4
> <PUBCHEM_ATOM_UDEF_STEREO_COUNT>
0
> <PUBCHEM_BOND_DEF_STEREO_COUNT>
0
> <PUBCHEM_BOND_UDEF_STEREO_COUNT>
0
> <PUBCHEM_ISOTOPIC_ATOM_COUNT>
0
> <PUBCHEM_COMPONENT_COUNT>
1
> <PUBCHEM_CACTVS_TAUTO_COUNT>
-1
> <PUBCHEM_COORDINATE_TYPE>
1
5
255
> <PUBCHEM_BONDANNOTATIONS>
10  16  8
10  20  8
14  15  6
16  18  8
18  19  8
19  21  8
20  21  8
20  23  8
21  24  8
23  26  8
24  27  8
25  28  8
25  29  8
26  27  8
28  30  8
29  31  8
30  32  8
31  32  8
12  5  5
13  6  5
11  8  6
8  16  8
8  17  8
9  17  8
9  18  8
$$$$
