513660
  -OEChem-10302200282D
 73 75  0     1  0  0  0  0  0999 V2000
    8.9282   -0.6830    0.0000 S   0  0  0  0  0  0  0  0  0  0  0  0
    2.8660    2.8170    0.0000 S   0  0  0  0  0  0  0  0  0  0  0  0
   12.4725   -0.8783    0.0000 S   0  0  0  0  0  0  0  0  0  0  0  0
    6.3301    0.8170    0.0000 O   0  0  0  0  0  0  0  0  0  0  0  0
    8.4282   -1.5490    0.0000 O   0  0  0  0  0  0  0  0  0  0  0  0
    9.4282    0.1830    0.0000 O   0  0  0  0  0  0  0  0  0  0  0  0
    5.4641    1.3170    0.0000 O   0  0  0  0  0  0  0  0  0  0  0  0
    3.3660    3.6830    0.0000 O   0  0  0  0  0  0  0  0  0  0  0  0
    2.3660    1.9510    0.0000 O   0  0  0  0  0  0  0  0  0  0  0  0
    8.0622   -0.1830    0.0000 N   0  0  3  0  0  0  0  0  0  0  0  0
    4.5981   -0.1830    0.0000 N   0  0  0  0  0  0  0  0  0  0  0  0
   12.4725   -2.4878    0.0000 N   0  0  0  0  0  0  0  0  0  0  0  0
    5.4641   -0.6830    0.0000 C   0  0  2  0  0  0  0  0  0  0  0  0
    6.3301   -0.1830    0.0000 C   0  0  1  0  0  0  0  0  0  0  0  0
    7.1962   -0.6830    0.0000 C   0  0  0  0  0  0  0  0  0  0  0  0
    8.0622    0.8170    0.0000 C   0  0  0  0  0  0  0  0  0  0  0  0
    5.4641   -1.6830    0.0000 C   0  0  0  0  0  0  0  0  0  0  0  0
    8.9282    1.3170    0.0000 C   0  0  0  0  0  0  0  0  0  0  0  0
    3.7320    1.3170    0.0000 C   0  0  2  0  0  0  0  0  0  0  0  0
    4.5981    0.8170    0.0000 C   0  0  0  0  0  0  0  0  0  0  0  0
    4.5981   -2.1830    0.0000 C   0  0  0  0  0  0  0  0  0  0  0  0
    9.7942   -1.1830    0.0000 C   0  0  0  0  0  0  0  0  0  0  0  0
    3.7320    2.3170    0.0000 C   0  0  0  0  0  0  0  0  0  0  0  0
    8.9282    2.3170    0.0000 C   0  0  0  0  0  0  0  0  0  0  0  0
    9.7942    0.8170    0.0000 C   0  0  0  0  0  0  0  0  0  0  0  0
    2.8660    0.8170    0.0000 C   0  0  0  0  0  0  0  0  0  0  0  0
    4.5981   -3.1830    0.0000 C   0  0  0  0  0  0  0  0  0  0  0  0
    3.7320   -1.6830    0.0000 C   0  0  0  0  0  0  0  0  0  0  0  0
   10.6603   -0.6830    0.0000 C   0  0  0  0  0  0  0  0  0  0  0  0
    9.7942   -2.1830    0.0000 C   0  0  0  0  0  0  0  0  0  0  0  0
   11.5263   -1.1830    0.0000 C   0  0  0  0  0  0  0  0  0  0  0  0
    2.0000    3.3170    0.0000 C   0  0  0  0  0  0  0  0  0  0  0  0
   10.6603   -2.6830    0.0000 C   0  0  0  0  0  0  0  0  0  0  0  0
    3.7320   -3.6830    0.0000 C   0  0  0  0  0  0  0  0  0  0  0  0
    2.8660   -2.1830    0.0000 C   0  0  0  0  0  0  0  0  0  0  0  0
   11.5263   -2.1830    0.0000 C   0  0  0  0  0  0  0  0  0  0  0  0
    2.8660   -3.1830    0.0000 C   0  0  0  0  0  0  0  0  0  0  0  0
   13.0561   -1.6830    0.0000 C   0  0  0  0  0  0  0  0  0  0  0  0
    5.4641   -0.0630    0.0000 H   0  0  0  0  0  0  0  0  0  0  0  0
    6.8671    0.1270    0.0000 H   0  0  0  0  0  0  0  0  0  0  0  0
    6.7976   -1.1580    0.0000 H   0  0  0  0  0  0  0  0  0  0  0  0
    7.5947   -1.1580    0.0000 H   0  0  0  0  0  0  0  0  0  0  0  0
    7.8501    1.3996    0.0000 H   0  0  0  0  0  0  0  0  0  0  0  0
    7.4516    0.7093    0.0000 H   0  0  0  0  0  0  0  0  0  0  0  0
    5.6762   -2.2656    0.0000 H   0  0  0  0  0  0  0  0  0  0  0  0
    6.0747   -1.5754    0.0000 H   0  0  0  0  0  0  0  0  0  0  0  0
    9.4651    1.6270    0.0000 H   0  0  0  0  0  0  0  0  0  0  0  0
    4.0611   -0.4930    0.0000 H   0  0  0  0  0  0  0  0  0  0  0  0
    3.7320    0.6970    0.0000 H   0  0  0  0  0  0  0  0  0  0  0  0
    4.3426    2.2093    0.0000 H   0  0  0  0  0  0  0  0  0  0  0  0
    3.9441    2.8996    0.0000 H   0  0  0  0  0  0  0  0  0  0  0  0
    6.8671    1.1270    0.0000 H   0  0  0  0  0  0  0  0  0  0  0  0
    9.5482    2.3170    0.0000 H   0  0  0  0  0  0  0  0  0  0  0  0
    8.9282    2.9370    0.0000 H   0  0  0  0  0  0  0  0  0  0  0  0
    8.3082    2.3170    0.0000 H   0  0  0  0  0  0  0  0  0  0  0  0
    9.4842    0.2801    0.0000 H   0  0  0  0  0  0  0  0  0  0  0  0
   10.3312    0.5070    0.0000 H   0  0  0  0  0  0  0  0  0  0  0  0
   10.1042    1.3539    0.0000 H   0  0  0  0  0  0  0  0  0  0  0  0
    2.5560    1.3539    0.0000 H   0  0  0  0  0  0  0  0  0  0  0  0
    2.3291    0.5070    0.0000 H   0  0  0  0  0  0  0  0  0  0  0  0
    3.1760    0.2801    0.0000 H   0  0  0  0  0  0  0  0  0  0  0  0
    5.1350   -3.4930    0.0000 H   0  0  0  0  0  0  0  0  0  0  0  0
    3.7320   -1.0630    0.0000 H   0  0  0  0  0  0  0  0  0  0  0  0
   10.6603   -0.0630    0.0000 H   0  0  0  0  0  0  0  0  0  0  0  0
    9.2573   -2.4930    0.0000 H   0  0  0  0  0  0  0  0  0  0  0  0
    2.3100    3.8539    0.0000 H   0  0  0  0  0  0  0  0  0  0  0  0
    1.4631    3.6270    0.0000 H   0  0  0  0  0  0  0  0  0  0  0  0
    1.6900    2.7800    0.0000 H   0  0  0  0  0  0  0  0  0  0  0  0
   10.6603   -3.3030    0.0000 H   0  0  0  0  0  0  0  0  0  0  0  0
    3.7320   -4.3030    0.0000 H   0  0  0  0  0  0  0  0  0  0  0  0
    2.3291   -1.8730    0.0000 H   0  0  0  0  0  0  0  0  0  0  0  0
    2.3291   -3.4930    0.0000 H   0  0  0  0  0  0  0  0  0  0  0  0
   13.6761   -1.6830    0.0000 H   0  0  0  0  0  0  0  0  0  0  0  0
  1  5  2  0  0  0  0
  1  6  2  0  0  0  0
  1 10  1  0  0  0  0
  1 22  1  0  0  0  0
  2  8  2  0  0  0  0
  2  9  2  0  0  0  0
  2 23  1  0  0  0  0
  2 32  1  0  0  0  0
  3 31  1  0  0  0  0
  3 38  1  0  0  0  0
 14  4  1  6  0  0  0
  4 52  1  0  0  0  0
  7 20  2  0  0  0  0
 10 15  1  0  0  0  0
 10 16  1  0  0  0  0
 13 11  1  6  0  0  0
 11 20  1  0  0  0  0
 11 48  1  0  0  0  0
 12 36  1  0  0  0  0
 12 38  2  0  0  0  0
 13 14  1  0  0  0  0
 13 17  1  0  0  0  0
 13 39  1  0  0  0  0
 14 15  1  0  0  0  0
 14 40  1  0  0  0  0
 15 41  1  0  0  0  0
 15 42  1  0  0  0  0
 16 18  1  0  0  0  0
 16 43  1  0  0  0  0
 16 44  1  0  0  0  0
 17 21  1  0  0  0  0
 17 45  1  0  0  0  0
 17 46  1  0  0  0  0
 18 24  1  0  0  0  0
 18 25  1  0  0  0  0
 18 47  1  0  0  0  0
 19 20  1  0  0  0  0
 19 23  1  0  0  0  0
 19 26  1  1  0  0  0
 19 49  1  0  0  0  0
 21 27  2  0  0  0  0
 21 28  1  0  0  0  0
 22 29  2  0  0  0  0
 22 30  1  0  0  0  0
 23 50  1  0  0  0  0
 23 51  1  0  0  0  0
 24 53  1  0  0  0  0
 24 54  1  0  0  0  0
 24 55  1  0  0  0  0
 25 56  1  0  0  0  0
 25 57  1  0  0  0  0
 25 58  1  0  0  0  0
 26 59  1  0  0  0  0
 26 60  1  0  0  0  0
 26 61  1  0  0  0  0
 27 34  1  0  0  0  0
 27 62  1  0  0  0  0
 28 35  2  0  0  0  0
 28 63  1  0  0  0  0
 29 31  1  0  0  0  0
 29 64  1  0  0  0  0
 30 33  2  0  0  0  0
 30 65  1  0  0  0  0
 31 36  2  0  0  0  0
 32 66  1  0  0  0  0
 32 67  1  0  0  0  0
 32 68  1  0  0  0  0
 33 36  1  0  0  0  0
 33 69  1  0  0  0  0
 34 37  2  0  0  0  0
 34 70  1  0  0  0  0
 35 37  1  0  0  0  0
 35 71  1  0  0  0  0
 37 72  1  0  0  0  0
 38 73  1  0  0  0  0
M  END
> <PUBCHEM_COMPOUND_CID>
513660
> <PUBCHEM_COMPOUND_CANONICALIZED>
1
> <PUBCHEM_CACTVS_COMPLEXITY>
973
> <PUBCHEM_CACTVS_HBOND_ACCEPTOR>
9
> <PUBCHEM_CACTVS_HBOND_DONOR>
2
> <PUBCHEM_CACTVS_ROTATABLE_BOND>
13
> <PUBCHEM_CACTVS_SUBSKEYS>
AAADcfB7OABgAAAAAAAAAAAAAAAAAWAAAAAwYAAAAAAAAFgB9AAAHgQQSAAADTzl3ga2wbLIEgqsAyVzVHDD8LBxCjhI2L04ZJgKMKLg0ZGEYAhklgDYyAeQwKAOAAQAAEAAAQAACAAAgAACAAAAAAAAAA==
> <PUBCHEM_IUPAC_OPENEYE_NAME>
(2R)-N-[(1S,2R)-3-[1,3-benzothiazol-6-ylsulfonyl(isobutyl)amino]-1-benzyl-2-hydroxy-propyl]-2-methyl-3-methylsulfonyl-propanamide
> <PUBCHEM_IUPAC_CAS_NAME>
(2R)-N-[(2S,3R)-4-[1,3-benzothiazol-6-ylsulfonyl(2-methylpropyl)amino]-3-hydroxy-1-phenylbutan-2-yl]-2-methyl-3-methylsulfonylpropanamide
> <PUBCHEM_IUPAC_NAME_MARKUP>
(2<I>R</I>)-<I>N</I>-[(2<I>S</I>,3<I>R</I>)-4-[1,3-benzothiazol-6-ylsulfonyl(2-methylpropyl)amino]-3-hydroxy-1-phenylbutan-2-yl]-2-methyl-3-methylsulfonylpropanamide
> <PUBCHEM_IUPAC_NAME>
(2R)-N-[(2S,3R)-4-[1,3-benzothiazol-6-ylsulfonyl(2-methylpropyl)amino]-3-hydroxy-1-phenylbutan-2-yl]-2-methyl-3-methylsulfonylpropanamide
> <PUBCHEM_IUPAC_SYSTEMATIC_NAME>
(2R)-N-[(2S,3R)-4-[1,3-benzothiazol-6-ylsulfonyl(2-methylpropyl)amino]-3-oxidanyl-1-phenyl-butan-2-yl]-2-methyl-3-methylsulfonyl-propanamide
> <PUBCHEM_IUPAC_TRADITIONAL_NAME>
(2R)-N-[(1S,2R)-3-[1,3-benzothiazol-6-ylsulfonyl(isobutyl)amino]-1-benzyl-2-hydroxy-propyl]-3-mesyl-2-methyl-propionamide
> <PUBCHEM_IUPAC_INCHI>
InChI=1S/C26H35N3O6S3/c1-18(2)14-29(38(34,35)21-10-11-22-25(13-21)36-17-27-22)15-24(30)23(12-20-8-6-5-7-9-20)28-26(31)19(3)16-37(4,32)33/h5-11,13,17-19,23-24,30H,12,14-16H2,1-4H3,(H,28,31)/t19-,23-,24+/m0/s1
> <PUBCHEM_IUPAC_INCHIKEY>
WELLJCMYBONAEN-WDJPJFJCSA-N
> <PUBCHEM_XLOGP3_AA>
3.5
> <PUBCHEM_EXACT_MASS>
581.16879937
> <PUBCHEM_MOLECULAR_FORMULA>
C26H35N3O6S3
> <PUBCHEM_MOLECULAR_WEIGHT>
581.8
> <PUBCHEM_OPENEYE_CAN_SMILES>
CC(C)CN(CC(C(CC1=CC=CC=C1)NC(=O)C(C)CS(=O)(=O)C)O)S(=O)(=O)C2=CC3=C(C=C2)N=CS3
> <PUBCHEM_OPENEYE_ISO_SMILES>
C[C@@H](CS(=O)(=O)C)C(=O)N[C@@H](CC1=CC=CC=C1)[C@@H](CN(CC(C)C)S(=O)(=O)C2=CC3=C(C=C2)N=CS3)O
> <PUBCHEM_CACTVS_TPSA>
179
> <PUBCHEM_MONOISOTOPIC_WEIGHT>
581.16879937
> <PUBCHEM_TOTAL_CHARGE>
0
> <PUBCHEM_HEAVY_ATOM_COUNT>
38
> <PUBCHEM_ATOM_DEF_STEREO_COUNT>
3
> <PUBCHEM_ATOM_UDEF_STEREO_COUNT>
0
> <PUBCHEM_BOND_DEF_STEREO_COUNT>
0
> <PUBCHEM_BOND_UDEF_STEREO_COUNT>
0
> <PUBCHEM_ISOTOPIC_ATOM_COUNT>
0
> <PUBCHEM_COMPONENT_COUNT>
1
> <PUBCHEM_CACTVS_TAUTO_COUNT>
-1
> <PUBCHEM_COORDINATE_TYPE>
1
5
255
> <PUBCHEM_BONDANNOTATIONS>
13  11  6
12  36  8
12  38  8
19  26  5
21  27  8
21  28  8
22  29  8
22  30  8
27  34  8
28  35  8
29  31  8
3  31  8
3  38  8
30  33  8
31  36  8
33  36  8
34  37  8
35  37  8
14  4  6
$$$$
