513790
  -OEChem-10302200282D
 77 78  0     1  0  0  0  0  0999 V2000
    3.7320   -3.8450    0.0000 S   0  0  0  0  0  0  0  0  0  0  0  0
    6.3301   -2.3450    0.0000 O   0  0  0  0  0  0  0  0  0  0  0  0
    4.7320   -3.8450    0.0000 O   0  0  0  0  0  0  0  0  0  0  0  0
    2.7320   -3.8450    0.0000 O   0  0  0  0  0  0  0  0  0  0  0  0
    8.0622    1.6550    0.0000 O   0  0  0  0  0  0  0  0  0  0  0  0
    9.7942    4.6550    0.0000 O   0  0  0  0  0  0  0  0  0  0  0  0
    8.0622    7.6550    0.0000 O   0  0  0  0  0  0  0  0  0  0  0  0
    3.7320   -2.8450    0.0000 N   0  0  3  0  0  0  0  0  0  0  0  0
    6.3301    1.6550    0.0000 N   0  0  0  0  0  0  0  0  0  0  0  0
    7.1962    3.1550    0.0000 N   0  0  0  0  0  0  0  0  0  0  0  0
    3.7320   -7.8450    0.0000 N   0  0  0  0  0  0  0  0  0  0  0  0
    4.5981   -2.3450    0.0000 C   0  0  1  0  0  0  0  0  0  0  0  0
    4.5981   -1.3450    0.0000 C   0  0  0  0  0  0  0  0  0  0  0  0
    2.8660   -2.3450    0.0000 C   0  0  0  0  0  0  0  0  0  0  0  0
    2.8660   -1.3450    0.0000 C   0  0  0  0  0  0  0  0  0  0  0  0
    5.4641   -0.8450    0.0000 C   0  0  0  0  0  0  0  0  0  0  0  0
    5.4641   -2.8450    0.0000 C   0  0  0  0  0  0  0  0  0  0  0  0
    5.4641    0.1550    0.0000 C   0  0  0  0  0  0  0  0  0  0  0  0
    3.7320   -4.8450    0.0000 C   0  0  0  0  0  0  0  0  0  0  0  0
    2.0000   -0.8450    0.0000 C   0  0  0  0  0  0  0  0  0  0  0  0
    3.7320   -0.8450    0.0000 C   0  0  0  0  0  0  0  0  0  0  0  0
    6.3301    0.6550    0.0000 C   0  0  0  0  0  0  0  0  0  0  0  0
    2.8660   -5.3450    0.0000 C   0  0  0  0  0  0  0  0  0  0  0  0
    4.5981   -5.3450    0.0000 C   0  0  0  0  0  0  0  0  0  0  0  0
    2.8660   -6.3450    0.0000 C   0  0  0  0  0  0  0  0  0  0  0  0
    4.5981   -6.3450    0.0000 C   0  0  0  0  0  0  0  0  0  0  0  0
    3.7320   -6.8450    0.0000 C   0  0  0  0  0  0  0  0  0  0  0  0
    7.1962    2.1550    0.0000 C   0  0  0  0  0  0  0  0  0  0  0  0
    8.0622    3.6550    0.0000 C   0  0  0  0  0  0  0  0  0  0  0  0
    8.0622    4.6550    0.0000 C   0  0  0  0  0  0  0  0  0  0  0  0
    8.9282    5.1550    0.0000 C   0  0  0  0  0  0  0  0  0  0  0  0
    7.1962    5.1550    0.0000 C   0  0  0  0  0  0  0  0  0  0  0  0
    8.9282    6.1550    0.0000 C   0  0  0  0  0  0  0  0  0  0  0  0
    7.1962    6.1550    0.0000 C   0  0  0  0  0  0  0  0  0  0  0  0
    8.0622    6.6550    0.0000 C   0  0  0  0  0  0  0  0  0  0  0  0
   10.6603    5.1550    0.0000 C   0  0  0  0  0  0  0  0  0  0  0  0
    7.1962    8.1550    0.0000 C   0  0  0  0  0  0  0  0  0  0  0  0
    4.5981   -2.9650    0.0000 H   0  0  0  0  0  0  0  0  0  0  0  0
    4.3860   -0.7624    0.0000 H   0  0  0  0  0  0  0  0  0  0  0  0
    3.9875   -1.4527    0.0000 H   0  0  0  0  0  0  0  0  0  0  0  0
    2.2554   -2.2373    0.0000 H   0  0  0  0  0  0  0  0  0  0  0  0
    2.6540   -2.9276    0.0000 H   0  0  0  0  0  0  0  0  0  0  0  0
    2.8660   -0.7250    0.0000 H   0  0  0  0  0  0  0  0  0  0  0  0
    5.6762   -1.4276    0.0000 H   0  0  0  0  0  0  0  0  0  0  0  0
    6.0747   -0.7373    0.0000 H   0  0  0  0  0  0  0  0  0  0  0  0
    5.0656   -3.3200    0.0000 H   0  0  0  0  0  0  0  0  0  0  0  0
    5.8626   -3.3200    0.0000 H   0  0  0  0  0  0  0  0  0  0  0  0
    5.2520    0.7376    0.0000 H   0  0  0  0  0  0  0  0  0  0  0  0
    4.8535    0.0473    0.0000 H   0  0  0  0  0  0  0  0  0  0  0  0
    2.3100   -0.3081    0.0000 H   0  0  0  0  0  0  0  0  0  0  0  0
    1.4631   -0.5350    0.0000 H   0  0  0  0  0  0  0  0  0  0  0  0
    1.6900   -1.3819    0.0000 H   0  0  0  0  0  0  0  0  0  0  0  0
    4.0420   -1.3819    0.0000 H   0  0  0  0  0  0  0  0  0  0  0  0
    4.2690   -0.5350    0.0000 H   0  0  0  0  0  0  0  0  0  0  0  0
    3.4220   -0.3081    0.0000 H   0  0  0  0  0  0  0  0  0  0  0  0
    6.5422    0.0724    0.0000 H   0  0  0  0  0  0  0  0  0  0  0  0
    6.9407    0.7627    0.0000 H   0  0  0  0  0  0  0  0  0  0  0  0
    6.8671   -2.6550    0.0000 H   0  0  0  0  0  0  0  0  0  0  0  0
    2.3291   -5.0350    0.0000 H   0  0  0  0  0  0  0  0  0  0  0  0
    5.1350   -5.0350    0.0000 H   0  0  0  0  0  0  0  0  0  0  0  0
    5.7932    1.9650    0.0000 H   0  0  0  0  0  0  0  0  0  0  0  0
    2.3291   -6.6550    0.0000 H   0  0  0  0  0  0  0  0  0  0  0  0
    5.1350   -6.6550    0.0000 H   0  0  0  0  0  0  0  0  0  0  0  0
    6.6592    3.4650    0.0000 H   0  0  0  0  0  0  0  0  0  0  0  0
    3.1951   -8.1550    0.0000 H   0  0  0  0  0  0  0  0  0  0  0  0
    4.2690   -8.1550    0.0000 H   0  0  0  0  0  0  0  0  0  0  0  0
    8.2742    3.0724    0.0000 H   0  0  0  0  0  0  0  0  0  0  0  0
    8.6728    3.7627    0.0000 H   0  0  0  0  0  0  0  0  0  0  0  0
    6.6592    4.8450    0.0000 H   0  0  0  0  0  0  0  0  0  0  0  0
    9.4651    6.4650    0.0000 H   0  0  0  0  0  0  0  0  0  0  0  0
    6.6592    6.4650    0.0000 H   0  0  0  0  0  0  0  0  0  0  0  0
   10.9703    4.6181    0.0000 H   0  0  0  0  0  0  0  0  0  0  0  0
   11.1972    5.4650    0.0000 H   0  0  0  0  0  0  0  0  0  0  0  0
   10.3503    5.6919    0.0000 H   0  0  0  0  0  0  0  0  0  0  0  0
    7.5062    8.6919    0.0000 H   0  0  0  0  0  0  0  0  0  0  0  0
    6.6592    8.4650    0.0000 H   0  0  0  0  0  0  0  0  0  0  0  0
    6.8862    7.6181    0.0000 H   0  0  0  0  0  0  0  0  0  0  0  0
  1  3  2  0  0  0  0
  1  4  2  0  0  0  0
  1  8  1  0  0  0  0
  1 19  1  0  0  0  0
  2 17  1  0  0  0  0
  2 58  1  0  0  0  0
  5 28  2  0  0  0  0
  6 31  1  0  0  0  0
  6 36  1  0  0  0  0
  7 35  1  0  0  0  0
  7 37  1  0  0  0  0
 12  8  1  1  0  0  0
  8 14  1  0  0  0  0
  9 22  1  0  0  0  0
  9 28  1  0  0  0  0
  9 61  1  0  0  0  0
 10 28  1  0  0  0  0
 10 29  1  0  0  0  0
 10 64  1  0  0  0  0
 11 27  1  0  0  0  0
 11 65  1  0  0  0  0
 11 66  1  0  0  0  0
 12 13  1  0  0  0  0
 12 17  1  0  0  0  0
 12 38  1  0  0  0  0
 13 16  1  0  0  0  0
 13 39  1  0  0  0  0
 13 40  1  0  0  0  0
 14 15  1  0  0  0  0
 14 41  1  0  0  0  0
 14 42  1  0  0  0  0
 15 20  1  0  0  0  0
 15 21  1  0  0  0  0
 15 43  1  0  0  0  0
 16 18  1  0  0  0  0
 16 44  1  0  0  0  0
 16 45  1  0  0  0  0
 17 46  1  0  0  0  0
 17 47  1  0  0  0  0
 18 22  1  0  0  0  0
 18 48  1  0  0  0  0
 18 49  1  0  0  0  0
 19 23  2  0  0  0  0
 19 24  1  0  0  0  0
 20 50  1  0  0  0  0
 20 51  1  0  0  0  0
 20 52  1  0  0  0  0
 21 53  1  0  0  0  0
 21 54  1  0  0  0  0
 21 55  1  0  0  0  0
 22 56  1  0  0  0  0
 22 57  1  0  0  0  0
 23 25  1  0  0  0  0
 23 59  1  0  0  0  0
 24 26  2  0  0  0  0
 24 60  1  0  0  0  0
 25 27  2  0  0  0  0
 25 62  1  0  0  0  0
 26 27  1  0  0  0  0
 26 63  1  0  0  0  0
 29 30  1  0  0  0  0
 29 67  1  0  0  0  0
 29 68  1  0  0  0  0
 30 31  2  0  0  0  0
 30 32  1  0  0  0  0
 31 33  1  0  0  0  0
 32 34  2  0  0  0  0
 32 69  1  0  0  0  0
 33 35  2  0  0  0  0
 33 70  1  0  0  0  0
 34 35  1  0  0  0  0
 34 71  1  0  0  0  0
 36 72  1  0  0  0  0
 36 73  1  0  0  0  0
 36 74  1  0  0  0  0
 37 75  1  0  0  0  0
 37 76  1  0  0  0  0
 37 77  1  0  0  0  0
M  END
> <PUBCHEM_COMPOUND_CID>
513790
> <PUBCHEM_COMPOUND_CANONICALIZED>
1
> <PUBCHEM_CACTVS_COMPLEXITY>
755
> <PUBCHEM_CACTVS_HBOND_ACCEPTOR>
8
> <PUBCHEM_CACTVS_HBOND_DONOR>
4
> <PUBCHEM_CACTVS_ROTATABLE_BOND>
15
> <PUBCHEM_CACTVS_SUBSKEYS>
AAADcfB7uABAAAAAAAAAAAAAAAAAAAAAAAAwYAAAAAAAAAABQAAAHgQQSAAADSzh2AYzx4LABgKIAiRCUHDCCBAgIgAIiJgObIiONyKEsZuEcChv1heY6AeQ8C4OIAQACAAIAABACAAQABAAAAAAAAAAAA==
> <PUBCHEM_IUPAC_OPENEYE_NAME>
1-[(5S)-5-[(4-aminophenyl)sulfonyl-isobutyl-amino]-6-hydroxy-hexyl]-3-[(2,4-dimethoxyphenyl)methyl]urea
> <PUBCHEM_IUPAC_CAS_NAME>
1-[(5S)-5-[(4-aminophenyl)sulfonyl-(2-methylpropyl)amino]-6-hydroxyhexyl]-3-[(2,4-dimethoxyphenyl)methyl]urea
> <PUBCHEM_IUPAC_NAME_MARKUP>
1-[(5<I>S</I>)-5-[(4-aminophenyl)sulfonyl-(2-methylpropyl)amino]-6-hydroxyhexyl]-3-[(2,4-dimethoxyphenyl)methyl]urea
> <PUBCHEM_IUPAC_NAME>
1-[(5S)-5-[(4-aminophenyl)sulfonyl-(2-methylpropyl)amino]-6-hydroxyhexyl]-3-[(2,4-dimethoxyphenyl)methyl]urea
> <PUBCHEM_IUPAC_SYSTEMATIC_NAME>
1-[(5S)-5-[(4-aminophenyl)sulfonyl-(2-methylpropyl)amino]-6-oxidanyl-hexyl]-3-[(2,4-dimethoxyphenyl)methyl]urea
> <PUBCHEM_IUPAC_TRADITIONAL_NAME>
1-(2,4-dimethoxybenzyl)-3-[(5S)-6-hydroxy-5-[isobutyl(sulfanilyl)amino]hexyl]urea
> <PUBCHEM_IUPAC_INCHI>
InChI=1S/C26H40N4O6S/c1-19(2)17-30(37(33,34)24-12-9-21(27)10-13-24)22(18-31)7-5-6-14-28-26(32)29-16-20-8-11-23(35-3)15-25(20)36-4/h8-13,15,19,22,31H,5-7,14,16-18,27H2,1-4H3,(H2,28,29,32)/t22-/m0/s1
> <PUBCHEM_IUPAC_INCHIKEY>
UUHPJULXOKNZTG-QFIPXVFZSA-N
> <PUBCHEM_XLOGP3_AA>
2.8
> <PUBCHEM_EXACT_MASS>
536.26685618
> <PUBCHEM_MOLECULAR_FORMULA>
C26H40N4O6S
> <PUBCHEM_MOLECULAR_WEIGHT>
536.7
> <PUBCHEM_OPENEYE_CAN_SMILES>
CC(C)CN(C(CCCCNC(=O)NCC1=C(C=C(C=C1)OC)OC)CO)S(=O)(=O)C2=CC=C(C=C2)N
> <PUBCHEM_OPENEYE_ISO_SMILES>
CC(C)CN([C@@H](CCCCNC(=O)NCC1=C(C=C(C=C1)OC)OC)CO)S(=O)(=O)C2=CC=C(C=C2)N
> <PUBCHEM_CACTVS_TPSA>
152
> <PUBCHEM_MONOISOTOPIC_WEIGHT>
536.26685618
> <PUBCHEM_TOTAL_CHARGE>
0
> <PUBCHEM_HEAVY_ATOM_COUNT>
37
> <PUBCHEM_ATOM_DEF_STEREO_COUNT>
1
> <PUBCHEM_ATOM_UDEF_STEREO_COUNT>
0
> <PUBCHEM_BOND_DEF_STEREO_COUNT>
0
> <PUBCHEM_BOND_UDEF_STEREO_COUNT>
0
> <PUBCHEM_ISOTOPIC_ATOM_COUNT>
0
> <PUBCHEM_COMPONENT_COUNT>
1
> <PUBCHEM_CACTVS_TAUTO_COUNT>
-1
> <PUBCHEM_COORDINATE_TYPE>
1
5
255
> <PUBCHEM_BONDANNOTATIONS>
19  23  8
19  24  8
23  25  8
24  26  8
25  27  8
26  27  8
30  31  8
30  32  8
31  33  8
32  34  8
33  35  8
34  35  8
12  8  5
$$$$
