513780
  -OEChem-10302200282D
 82 84  0     1  0  0  0  0  0999 V2000
    3.7320   -3.5950    0.0000 S   0  0  0  0  0  0  0  0  0  0  0  0
    3.6845    3.4983    0.0000 S   0  0  0  0  0  0  0  0  0  0  0  0
    8.0622    7.9050    0.0000 F   0  0  0  0  0  0  0  0  0  0  0  0
    6.3301   -2.0950    0.0000 O   0  0  0  0  0  0  0  0  0  0  0  0
    4.7320   -3.5950    0.0000 O   0  0  0  0  0  0  0  0  0  0  0  0
    2.7320   -3.5950    0.0000 O   0  0  0  0  0  0  0  0  0  0  0  0
    8.0622    1.9050    0.0000 O   0  0  0  0  0  0  0  0  0  0  0  0
    3.7320   -2.5950    0.0000 N   0  0  3  0  0  0  0  0  0  0  0  0
    6.3301    1.9050    0.0000 N   0  0  0  0  0  0  0  0  0  0  0  0
    7.1962    3.4050    0.0000 N   0  0  0  0  0  0  0  0  0  0  0  0
    3.7320   -7.5950    0.0000 N   0  0  0  0  0  0  0  0  0  0  0  0
    4.5981   -2.0950    0.0000 C   0  0  1  0  0  0  0  0  0  0  0  0
    4.5981   -1.0950    0.0000 C   0  0  0  0  0  0  0  0  0  0  0  0
    2.8660   -2.0950    0.0000 C   0  0  0  0  0  0  0  0  0  0  0  0
    5.4641   -0.5950    0.0000 C   0  0  0  0  0  0  0  0  0  0  0  0
    2.8660   -1.0950    0.0000 C   0  0  0  0  0  0  0  0  0  0  0  0
    5.4641   -2.5950    0.0000 C   0  0  0  0  0  0  0  0  0  0  0  0
    5.4641    0.4050    0.0000 C   0  0  0  0  0  0  0  0  0  0  0  0
    3.7320   -4.5950    0.0000 C   0  0  0  0  0  0  0  0  0  0  0  0
    2.0000   -0.5950    0.0000 C   0  0  0  0  0  0  0  0  0  0  0  0
    3.7320   -0.5950    0.0000 C   0  0  0  0  0  0  0  0  0  0  0  0
    6.3301    0.9050    0.0000 C   0  0  0  0  0  0  0  0  0  0  0  0
    2.8660   -5.0950    0.0000 C   0  0  0  0  0  0  0  0  0  0  0  0
    4.5981   -5.0950    0.0000 C   0  0  0  0  0  0  0  0  0  0  0  0
    7.1962    2.4050    0.0000 C   0  0  0  0  0  0  0  0  0  0  0  0
    2.8660   -6.0950    0.0000 C   0  0  0  0  0  0  0  0  0  0  0  0
    4.5981   -6.0950    0.0000 C   0  0  0  0  0  0  0  0  0  0  0  0
    3.7320   -6.5950    0.0000 C   0  0  0  0  0  0  0  0  0  0  0  0
    6.3301    3.9050    0.0000 C   0  0  0  0  0  0  0  0  0  0  0  0
    8.0622    3.9050    0.0000 C   0  0  0  0  0  0  0  0  0  0  0  0
    5.4641    3.4050    0.0000 C   0  0  0  0  0  0  0  0  0  0  0  0
    8.0622    4.9050    0.0000 C   0  0  0  0  0  0  0  0  0  0  0  0
    4.5981    3.9050    0.0000 C   0  0  0  0  0  0  0  0  0  0  0  0
    7.1962    5.4050    0.0000 C   0  0  0  0  0  0  0  0  0  0  0  0
    8.9282    5.4050    0.0000 C   0  0  0  0  0  0  0  0  0  0  0  0
    4.4936    4.8995    0.0000 C   0  0  0  0  0  0  0  0  0  0  0  0
    7.1962    6.4050    0.0000 C   0  0  0  0  0  0  0  0  0  0  0  0
    8.9282    6.4050    0.0000 C   0  0  0  0  0  0  0  0  0  0  0  0
    3.5154    5.1074    0.0000 C   0  0  0  0  0  0  0  0  0  0  0  0
    8.0622    6.9050    0.0000 C   0  0  0  0  0  0  0  0  0  0  0  0
    3.0154    4.2414    0.0000 C   0  0  0  0  0  0  0  0  0  0  0  0
    4.5981   -2.7150    0.0000 H   0  0  0  0  0  0  0  0  0  0  0  0
    4.3860   -0.5124    0.0000 H   0  0  0  0  0  0  0  0  0  0  0  0
    3.9875   -1.2027    0.0000 H   0  0  0  0  0  0  0  0  0  0  0  0
    2.2554   -1.9873    0.0000 H   0  0  0  0  0  0  0  0  0  0  0  0
    2.6540   -2.6776    0.0000 H   0  0  0  0  0  0  0  0  0  0  0  0
    5.6762   -1.1776    0.0000 H   0  0  0  0  0  0  0  0  0  0  0  0
    6.0747   -0.4873    0.0000 H   0  0  0  0  0  0  0  0  0  0  0  0
    2.8660   -0.4750    0.0000 H   0  0  0  0  0  0  0  0  0  0  0  0
    5.0656   -3.0700    0.0000 H   0  0  0  0  0  0  0  0  0  0  0  0
    5.8626   -3.0700    0.0000 H   0  0  0  0  0  0  0  0  0  0  0  0
    5.2520    0.9876    0.0000 H   0  0  0  0  0  0  0  0  0  0  0  0
    4.8535    0.2973    0.0000 H   0  0  0  0  0  0  0  0  0  0  0  0
    2.3100   -0.0581    0.0000 H   0  0  0  0  0  0  0  0  0  0  0  0
    1.4631   -0.2850    0.0000 H   0  0  0  0  0  0  0  0  0  0  0  0
    1.6900   -1.1319    0.0000 H   0  0  0  0  0  0  0  0  0  0  0  0
    4.0420   -1.1319    0.0000 H   0  0  0  0  0  0  0  0  0  0  0  0
    4.2690   -0.2850    0.0000 H   0  0  0  0  0  0  0  0  0  0  0  0
    3.4220   -0.0581    0.0000 H   0  0  0  0  0  0  0  0  0  0  0  0
    6.5422    0.3224    0.0000 H   0  0  0  0  0  0  0  0  0  0  0  0
    6.9407    1.0127    0.0000 H   0  0  0  0  0  0  0  0  0  0  0  0
    6.8671   -2.4050    0.0000 H   0  0  0  0  0  0  0  0  0  0  0  0
    2.3291   -4.7850    0.0000 H   0  0  0  0  0  0  0  0  0  0  0  0
    5.1350   -4.7850    0.0000 H   0  0  0  0  0  0  0  0  0  0  0  0
    5.7932    2.2150    0.0000 H   0  0  0  0  0  0  0  0  0  0  0  0
    2.3291   -6.4050    0.0000 H   0  0  0  0  0  0  0  0  0  0  0  0
    5.1350   -6.4050    0.0000 H   0  0  0  0  0  0  0  0  0  0  0  0
    6.7287    4.3800    0.0000 H   0  0  0  0  0  0  0  0  0  0  0  0
    5.9316    4.3800    0.0000 H   0  0  0  0  0  0  0  0  0  0  0  0
    8.2742    3.3224    0.0000 H   0  0  0  0  0  0  0  0  0  0  0  0
    8.6728    4.0127    0.0000 H   0  0  0  0  0  0  0  0  0  0  0  0
    5.0656    2.9300    0.0000 H   0  0  0  0  0  0  0  0  0  0  0  0
    5.8626    2.9300    0.0000 H   0  0  0  0  0  0  0  0  0  0  0  0
    3.1951   -7.9050    0.0000 H   0  0  0  0  0  0  0  0  0  0  0  0
    4.2690   -7.9050    0.0000 H   0  0  0  0  0  0  0  0  0  0  0  0
    6.6592    5.0950    0.0000 H   0  0  0  0  0  0  0  0  0  0  0  0
    9.4651    5.0950    0.0000 H   0  0  0  0  0  0  0  0  0  0  0  0
    4.9543    5.3144    0.0000 H   0  0  0  0  0  0  0  0  0  0  0  0
    6.6592    6.7150    0.0000 H   0  0  0  0  0  0  0  0  0  0  0  0
    9.4651    6.7150    0.0000 H   0  0  0  0  0  0  0  0  0  0  0  0
    3.2632    5.6738    0.0000 H   0  0  0  0  0  0  0  0  0  0  0  0
    2.3988    4.1766    0.0000 H   0  0  0  0  0  0  0  0  0  0  0  0
  1  5  2  0  0  0  0
  1  6  2  0  0  0  0
  1  8  1  0  0  0  0
  1 19  1  0  0  0  0
  2 33  1  0  0  0  0
  2 41  1  0  0  0  0
  3 40  1  0  0  0  0
  4 17  1  0  0  0  0
  4 62  1  0  0  0  0
  7 25  2  0  0  0  0
 12  8  1  1  0  0  0
  8 14  1  0  0  0  0
  9 22  1  0  0  0  0
  9 25  1  0  0  0  0
  9 65  1  0  0  0  0
 10 25  1  0  0  0  0
 10 29  1  0  0  0  0
 10 30  1  0  0  0  0
 11 28  1  0  0  0  0
 11 74  1  0  0  0  0
 11 75  1  0  0  0  0
 12 13  1  0  0  0  0
 12 17  1  0  0  0  0
 12 42  1  0  0  0  0
 13 15  1  0  0  0  0
 13 43  1  0  0  0  0
 13 44  1  0  0  0  0
 14 16  1  0  0  0  0
 14 45  1  0  0  0  0
 14 46  1  0  0  0  0
 15 18  1  0  0  0  0
 15 47  1  0  0  0  0
 15 48  1  0  0  0  0
 16 20  1  0  0  0  0
 16 21  1  0  0  0  0
 16 49  1  0  0  0  0
 17 50  1  0  0  0  0
 17 51  1  0  0  0  0
 18 22  1  0  0  0  0
 18 52  1  0  0  0  0
 18 53  1  0  0  0  0
 19 23  2  0  0  0  0
 19 24  1  0  0  0  0
 20 54  1  0  0  0  0
 20 55  1  0  0  0  0
 20 56  1  0  0  0  0
 21 57  1  0  0  0  0
 21 58  1  0  0  0  0
 21 59  1  0  0  0  0
 22 60  1  0  0  0  0
 22 61  1  0  0  0  0
 23 26  1  0  0  0  0
 23 63  1  0  0  0  0
 24 27  2  0  0  0  0
 24 64  1  0  0  0  0
 26 28  2  0  0  0  0
 26 66  1  0  0  0  0
 27 28  1  0  0  0  0
 27 67  1  0  0  0  0
 29 31  1  0  0  0  0
 29 68  1  0  0  0  0
 29 69  1  0  0  0  0
 30 32  1  0  0  0  0
 30 70  1  0  0  0  0
 30 71  1  0  0  0  0
 31 33  1  0  0  0  0
 31 72  1  0  0  0  0
 31 73  1  0  0  0  0
 32 34  2  0  0  0  0
 32 35  1  0  0  0  0
 33 36  2  0  0  0  0
 34 37  1  0  0  0  0
 34 76  1  0  0  0  0
 35 38  2  0  0  0  0
 35 77  1  0  0  0  0
 36 39  1  0  0  0  0
 36 78  1  0  0  0  0
 37 40  2  0  0  0  0
 37 79  1  0  0  0  0
 38 40  1  0  0  0  0
 38 80  1  0  0  0  0
 39 41  2  0  0  0  0
 39 81  1  0  0  0  0
 41 82  1  0  0  0  0
M  END
> <PUBCHEM_COMPOUND_CID>
513780
> <PUBCHEM_COMPOUND_CANONICALIZED>
1
> <PUBCHEM_CACTVS_COMPLEXITY>
859
> <PUBCHEM_CACTVS_HBOND_ACCEPTOR>
8
> <PUBCHEM_CACTVS_HBOND_DONOR>
3
> <PUBCHEM_CACTVS_ROTATABLE_BOND>
16
> <PUBCHEM_CACTVS_SUBSKEYS>
AAADcfB7uQBgAAAAAAAAAAAAAAAAASAAAAAwYAAAAAAAAAAB0AAAHwQQSAAADSjl2A6zwYPAAgqMAiRCUHDDAJAgChBIiJgIZIiKMCKgkZGEYAhslgK4yAeQwAAOAAQAAAAAAAAACAAAAAAAAAAAAAAAAA==
> <PUBCHEM_IUPAC_OPENEYE_NAME>
3-[(5S)-5-[(4-aminophenyl)sulfonyl-isobutyl-amino]-6-hydroxy-hexyl]-1-[(4-fluorophenyl)methyl]-1-[2-(2-thienyl)ethyl]urea
> <PUBCHEM_IUPAC_CAS_NAME>
3-[(5S)-5-[(4-aminophenyl)sulfonyl-(2-methylpropyl)amino]-6-hydroxyhexyl]-1-[(4-fluorophenyl)methyl]-1-(2-thiophen-2-ylethyl)urea
> <PUBCHEM_IUPAC_NAME_MARKUP>
3-[(5<I>S</I>)-5-[(4-aminophenyl)sulfonyl-(2-methylpropyl)amino]-6-hydroxyhexyl]-1-[(4-fluorophenyl)methyl]-1-(2-thiophen-2-ylethyl)urea
> <PUBCHEM_IUPAC_NAME>
3-[(5S)-5-[(4-aminophenyl)sulfonyl-(2-methylpropyl)amino]-6-hydroxyhexyl]-1-[(4-fluorophenyl)methyl]-1-(2-thiophen-2-ylethyl)urea
> <PUBCHEM_IUPAC_SYSTEMATIC_NAME>
3-[(5S)-5-[(4-aminophenyl)sulfonyl-(2-methylpropyl)amino]-6-oxidanyl-hexyl]-1-[(4-fluorophenyl)methyl]-1-(2-thiophen-2-ylethyl)urea
> <PUBCHEM_IUPAC_TRADITIONAL_NAME>
1-(4-fluorobenzyl)-3-[(5S)-6-hydroxy-5-[isobutyl(sulfanilyl)amino]hexyl]-1-[2-(2-thienyl)ethyl]urea
> <PUBCHEM_IUPAC_INCHI>
InChI=1S/C30H41FN4O4S2/c1-23(2)20-35(41(38,39)29-14-12-26(32)13-15-29)27(22-36)6-3-4-17-33-30(37)34(18-16-28-7-5-19-40-28)21-24-8-10-25(31)11-9-24/h5,7-15,19,23,27,36H,3-4,6,16-18,20-22,32H2,1-2H3,(H,33,37)/t27-/m0/s1
> <PUBCHEM_IUPAC_INCHIKEY>
RJUUPSLFLSAJTA-MHZLTWQESA-N
> <PUBCHEM_XLOGP3_AA>
4.8
> <PUBCHEM_EXACT_MASS>
604.25532631
> <PUBCHEM_MOLECULAR_FORMULA>
C30H41FN4O4S2
> <PUBCHEM_MOLECULAR_WEIGHT>
604.8
> <PUBCHEM_OPENEYE_CAN_SMILES>
CC(C)CN(C(CCCCNC(=O)N(CCC1=CC=CS1)CC2=CC=C(C=C2)F)CO)S(=O)(=O)C3=CC=C(C=C3)N
> <PUBCHEM_OPENEYE_ISO_SMILES>
CC(C)CN([C@@H](CCCCNC(=O)N(CCC1=CC=CS1)CC2=CC=C(C=C2)F)CO)S(=O)(=O)C3=CC=C(C=C3)N
> <PUBCHEM_CACTVS_TPSA>
153
> <PUBCHEM_MONOISOTOPIC_WEIGHT>
604.25532631
> <PUBCHEM_TOTAL_CHARGE>
0
> <PUBCHEM_HEAVY_ATOM_COUNT>
41
> <PUBCHEM_ATOM_DEF_STEREO_COUNT>
1
> <PUBCHEM_ATOM_UDEF_STEREO_COUNT>
0
> <PUBCHEM_BOND_DEF_STEREO_COUNT>
0
> <PUBCHEM_BOND_UDEF_STEREO_COUNT>
0
> <PUBCHEM_ISOTOPIC_ATOM_COUNT>
0
> <PUBCHEM_COMPONENT_COUNT>
1
> <PUBCHEM_CACTVS_TAUTO_COUNT>
-1
> <PUBCHEM_COORDINATE_TYPE>
1
5
255
> <PUBCHEM_BONDANNOTATIONS>
19  23  8
19  24  8
2  33  8
2  41  8
23  26  8
24  27  8
26  28  8
27  28  8
32  34  8
32  35  8
33  36  8
34  37  8
35  38  8
36  39  8
37  40  8
38  40  8
39  41  8
12  8  5
$$$$
