513758
  -OEChem-10302200282D
 80 82  0     1  0  0  0  0  0999 V2000
    4.5981   -0.0950    0.0000 S   0  0  0  0  0  0  0  0  0  0  0  0
    5.5981   -0.0950    0.0000 O   0  0  0  0  0  0  0  0  0  0  0  0
    3.5981   -0.0950    0.0000 O   0  0  0  0  0  0  0  0  0  0  0  0
    6.3301    2.9050    0.0000 O   0  0  0  0  0  0  0  0  0  0  0  0
    4.5981    2.9050    0.0000 O   0  0  0  0  0  0  0  0  0  0  0  0
   10.6603    2.4050    0.0000 O   0  0  0  0  0  0  0  0  0  0  0  0
    4.5981    0.9050    0.0000 N   0  0  3  0  0  0  0  0  0  0  0  0
    9.7942    0.9050    0.0000 N   0  0  0  0  0  0  0  0  0  0  0  0
   11.5263    0.9050    0.0000 N   0  0  0  0  0  0  0  0  0  0  0  0
    4.5981   -4.0950    0.0000 N   0  0  0  0  0  0  0  0  0  0  0  0
   13.2583   -2.0950    0.0000 N   0  0  0  0  0  0  0  0  0  0  0  0
    5.4641    1.4050    0.0000 C   0  0  1  0  0  0  0  0  0  0  0  0
    6.3301    0.9050    0.0000 C   0  0  0  0  0  0  0  0  0  0  0  0
    3.7320    1.4050    0.0000 C   0  0  0  0  0  0  0  0  0  0  0  0
    2.8660    0.9050    0.0000 C   0  0  0  0  0  0  0  0  0  0  0  0
    7.1962    1.4050    0.0000 C   0  0  0  0  0  0  0  0  0  0  0  0
    8.0622    0.9050    0.0000 C   0  0  0  0  0  0  0  0  0  0  0  0
    5.4641    2.4050    0.0000 C   0  0  0  0  0  0  0  0  0  0  0  0
    2.0000    1.4050    0.0000 C   0  0  0  0  0  0  0  0  0  0  0  0
    2.8660   -0.0950    0.0000 C   0  0  0  0  0  0  0  0  0  0  0  0
    4.5981   -1.0950    0.0000 C   0  0  0  0  0  0  0  0  0  0  0  0
    8.9282    1.4050    0.0000 C   0  0  0  0  0  0  0  0  0  0  0  0
    3.7320   -1.5950    0.0000 C   0  0  0  0  0  0  0  0  0  0  0  0
    5.4641   -1.5950    0.0000 C   0  0  0  0  0  0  0  0  0  0  0  0
    3.7320   -2.5950    0.0000 C   0  0  0  0  0  0  0  0  0  0  0  0
    5.4641   -2.5950    0.0000 C   0  0  0  0  0  0  0  0  0  0  0  0
   10.6603    1.4050    0.0000 C   0  0  0  0  0  0  0  0  0  0  0  0
    4.5981   -3.0950    0.0000 C   0  0  0  0  0  0  0  0  0  0  0  0
   12.3923    1.4050    0.0000 C   0  0  0  0  0  0  0  0  0  0  0  0
   11.5263   -0.0950    0.0000 C   0  0  0  0  0  0  0  0  0  0  0  0
   12.3923    2.4050    0.0000 C   0  0  0  0  0  0  0  0  0  0  0  0
   12.3923   -0.5950    0.0000 C   0  0  0  0  0  0  0  0  0  0  0  0
   13.2583    2.9050    0.0000 C   0  0  0  0  0  0  0  0  0  0  0  0
   11.5263    2.9050    0.0000 C   0  0  0  0  0  0  0  0  0  0  0  0
   13.2583   -0.0950    0.0000 C   0  0  0  0  0  0  0  0  0  0  0  0
   12.3923   -1.5950    0.0000 C   0  0  0  0  0  0  0  0  0  0  0  0
   13.2583    3.9050    0.0000 C   0  0  0  0  0  0  0  0  0  0  0  0
   11.5263    3.9050    0.0000 C   0  0  0  0  0  0  0  0  0  0  0  0
   12.3923    4.4050    0.0000 C   0  0  0  0  0  0  0  0  0  0  0  0
   14.1244   -0.5950    0.0000 C   0  0  0  0  0  0  0  0  0  0  0  0
   14.1244   -1.5950    0.0000 C   0  0  0  0  0  0  0  0  0  0  0  0
    5.4641    0.7850    0.0000 H   0  0  0  0  0  0  0  0  0  0  0  0
    5.9316    0.4301    0.0000 H   0  0  0  0  0  0  0  0  0  0  0  0
    6.7287    0.4301    0.0000 H   0  0  0  0  0  0  0  0  0  0  0  0
    4.1306    1.8800    0.0000 H   0  0  0  0  0  0  0  0  0  0  0  0
    3.3335    1.8800    0.0000 H   0  0  0  0  0  0  0  0  0  0  0  0
    2.8660    1.5250    0.0000 H   0  0  0  0  0  0  0  0  0  0  0  0
    7.5947    1.8800    0.0000 H   0  0  0  0  0  0  0  0  0  0  0  0
    6.7976    1.8800    0.0000 H   0  0  0  0  0  0  0  0  0  0  0  0
    7.6636    0.4301    0.0000 H   0  0  0  0  0  0  0  0  0  0  0  0
    8.4607    0.4301    0.0000 H   0  0  0  0  0  0  0  0  0  0  0  0
    2.3100    1.9419    0.0000 H   0  0  0  0  0  0  0  0  0  0  0  0
    1.4631    1.7150    0.0000 H   0  0  0  0  0  0  0  0  0  0  0  0
    1.6900    0.8681    0.0000 H   0  0  0  0  0  0  0  0  0  0  0  0
    2.2460   -0.0950    0.0000 H   0  0  0  0  0  0  0  0  0  0  0  0
    2.8660   -0.7150    0.0000 H   0  0  0  0  0  0  0  0  0  0  0  0
    3.4860   -0.0950    0.0000 H   0  0  0  0  0  0  0  0  0  0  0  0
    9.3267    1.8800    0.0000 H   0  0  0  0  0  0  0  0  0  0  0  0
    8.5297    1.8800    0.0000 H   0  0  0  0  0  0  0  0  0  0  0  0
    3.1951   -1.2850    0.0000 H   0  0  0  0  0  0  0  0  0  0  0  0
    6.0010   -1.2850    0.0000 H   0  0  0  0  0  0  0  0  0  0  0  0
    9.7942    0.2850    0.0000 H   0  0  0  0  0  0  0  0  0  0  0  0
    6.3301    3.5250    0.0000 H   0  0  0  0  0  0  0  0  0  0  0  0
    3.1951   -2.9050    0.0000 H   0  0  0  0  0  0  0  0  0  0  0  0
    6.0010   -2.9050    0.0000 H   0  0  0  0  0  0  0  0  0  0  0  0
   12.6044    0.8224    0.0000 H   0  0  0  0  0  0  0  0  0  0  0  0
   13.0029    1.5127    0.0000 H   0  0  0  0  0  0  0  0  0  0  0  0
   10.9157    0.0127    0.0000 H   0  0  0  0  0  0  0  0  0  0  0  0
   11.3142   -0.6776    0.0000 H   0  0  0  0  0  0  0  0  0  0  0  0
    4.0611   -4.4050    0.0000 H   0  0  0  0  0  0  0  0  0  0  0  0
    5.1350   -4.4050    0.0000 H   0  0  0  0  0  0  0  0  0  0  0  0
   13.7953    2.5950    0.0000 H   0  0  0  0  0  0  0  0  0  0  0  0
   10.9893    2.5950    0.0000 H   0  0  0  0  0  0  0  0  0  0  0  0
   13.2583    0.5250    0.0000 H   0  0  0  0  0  0  0  0  0  0  0  0
   11.8554   -1.9050    0.0000 H   0  0  0  0  0  0  0  0  0  0  0  0
   13.7953    4.2150    0.0000 H   0  0  0  0  0  0  0  0  0  0  0  0
   10.9893    4.2150    0.0000 H   0  0  0  0  0  0  0  0  0  0  0  0
   12.3923    5.0250    0.0000 H   0  0  0  0  0  0  0  0  0  0  0  0
   14.6613   -0.2850    0.0000 H   0  0  0  0  0  0  0  0  0  0  0  0
   14.6613   -1.9050    0.0000 H   0  0  0  0  0  0  0  0  0  0  0  0
  1  2  2  0  0  0  0
  1  3  2  0  0  0  0
  1  7  1  0  0  0  0
  1 21  1  0  0  0  0
  4 18  1  0  0  0  0
  4 63  1  0  0  0  0
  5 18  2  0  0  0  0
  6 27  2  0  0  0  0
 12  7  1  6  0  0  0
  7 14  1  0  0  0  0
  8 22  1  0  0  0  0
  8 27  1  0  0  0  0
  8 62  1  0  0  0  0
  9 27  1  0  0  0  0
  9 29  1  0  0  0  0
  9 30  1  0  0  0  0
 10 28  1  0  0  0  0
 10 70  1  0  0  0  0
 10 71  1  0  0  0  0
 11 36  1  0  0  0  0
 11 41  2  0  0  0  0
 12 13  1  0  0  0  0
 12 18  1  0  0  0  0
 12 42  1  0  0  0  0
 13 16  1  0  0  0  0
 13 43  1  0  0  0  0
 13 44  1  0  0  0  0
 14 15  1  0  0  0  0
 14 45  1  0  0  0  0
 14 46  1  0  0  0  0
 15 19  1  0  0  0  0
 15 20  1  0  0  0  0
 15 47  1  0  0  0  0
 16 17  1  0  0  0  0
 16 48  1  0  0  0  0
 16 49  1  0  0  0  0
 17 22  1  0  0  0  0
 17 50  1  0  0  0  0
 17 51  1  0  0  0  0
 19 52  1  0  0  0  0
 19 53  1  0  0  0  0
 19 54  1  0  0  0  0
 20 55  1  0  0  0  0
 20 56  1  0  0  0  0
 20 57  1  0  0  0  0
 21 23  2  0  0  0  0
 21 24  1  0  0  0  0
 22 58  1  0  0  0  0
 22 59  1  0  0  0  0
 23 25  1  0  0  0  0
 23 60  1  0  0  0  0
 24 26  2  0  0  0  0
 24 61  1  0  0  0  0
 25 28  2  0  0  0  0
 25 64  1  0  0  0  0
 26 28  1  0  0  0  0
 26 65  1  0  0  0  0
 29 31  1  0  0  0  0
 29 66  1  0  0  0  0
 29 67  1  0  0  0  0
 30 32  1  0  0  0  0
 30 68  1  0  0  0  0
 30 69  1  0  0  0  0
 31 33  2  0  0  0  0
 31 34  1  0  0  0  0
 32 35  1  0  0  0  0
 32 36  2  0  0  0  0
 33 37  1  0  0  0  0
 33 72  1  0  0  0  0
 34 38  2  0  0  0  0
 34 73  1  0  0  0  0
 35 40  2  0  0  0  0
 35 74  1  0  0  0  0
 36 75  1  0  0  0  0
 37 39  2  0  0  0  0
 37 76  1  0  0  0  0
 38 39  1  0  0  0  0
 38 77  1  0  0  0  0
 39 78  1  0  0  0  0
 40 41  1  0  0  0  0
 40 79  1  0  0  0  0
 41 80  1  0  0  0  0
M  END
> <PUBCHEM_COMPOUND_CID>
513758
> <PUBCHEM_COMPOUND_CANONICALIZED>
1
> <PUBCHEM_CACTVS_COMPLEXITY>
897
> <PUBCHEM_CACTVS_HBOND_ACCEPTOR>
8
> <PUBCHEM_CACTVS_HBOND_DONOR>
3
> <PUBCHEM_CACTVS_ROTATABLE_BOND>
15
> <PUBCHEM_CACTVS_SUBSKEYS>
AAADcfB7uABAAAAAAAAAAAAAAAAAAAAAAAA8YIAAAAAAAAAB0AAAHgQQSAAADSjB2gQ/yZPIEgKoAjT3XHDCgDAxAiAI2Lm4ZJiKIPLA0bGEYAhslgLYyAeYyAAOAAQAAAAAAAAACAAAAAAAAAAAAAAAAA==
> <PUBCHEM_IUPAC_OPENEYE_NAME>
(2S)-2-[(4-aminophenyl)sulfonyl-isobutyl-amino]-6-[[benzyl(3-pyridylmethyl)carbamoyl]amino]hexanoic acid
> <PUBCHEM_IUPAC_CAS_NAME>
(2S)-2-[(4-aminophenyl)sulfonyl-(2-methylpropyl)amino]-6-[[oxo-[(phenylmethyl)-(3-pyridinylmethyl)amino]methyl]amino]hexanoic acid
> <PUBCHEM_IUPAC_NAME_MARKUP>
(2<I>S</I>)-2-[(4-aminophenyl)sulfonyl-(2-methylpropyl)amino]-6-[[benzyl(pyridin-3-ylmethyl)carbamoyl]amino]hexanoic acid
> <PUBCHEM_IUPAC_NAME>
(2S)-2-[(4-aminophenyl)sulfonyl-(2-methylpropyl)amino]-6-[[benzyl(pyridin-3-ylmethyl)carbamoyl]amino]hexanoic acid
> <PUBCHEM_IUPAC_SYSTEMATIC_NAME>
(2S)-2-[(4-aminophenyl)sulfonyl-(2-methylpropyl)amino]-6-[[(phenylmethyl)-(pyridin-3-ylmethyl)carbamoyl]amino]hexanoic acid
> <PUBCHEM_IUPAC_TRADITIONAL_NAME>
(2S)-6-[[benzyl(3-pyridylmethyl)carbamoyl]amino]-2-[isobutyl(sulfanilyl)amino]hexanoic acid
> <PUBCHEM_IUPAC_INCHI>
InChI=1S/C30H39N5O5S/c1-23(2)20-35(41(39,40)27-15-13-26(31)14-16-27)28(29(36)37)12-6-7-18-33-30(38)34(21-24-9-4-3-5-10-24)22-25-11-8-17-32-19-25/h3-5,8-11,13-17,19,23,28H,6-7,12,18,20-22,31H2,1-2H3,(H,33,38)(H,36,37)/t28-/m0/s1
> <PUBCHEM_IUPAC_INCHIKEY>
KJWJSTPZBYBMOS-NDEPHWFRSA-N
> <PUBCHEM_XLOGP3_AA>
3.7
> <PUBCHEM_EXACT_MASS>
581.26719054
> <PUBCHEM_MOLECULAR_FORMULA>
C30H39N5O5S
> <PUBCHEM_MOLECULAR_WEIGHT>
581.7
> <PUBCHEM_OPENEYE_CAN_SMILES>
CC(C)CN(C(CCCCNC(=O)N(CC1=CC=CC=C1)CC2=CN=CC=C2)C(=O)O)S(=O)(=O)C3=CC=C(C=C3)N
> <PUBCHEM_OPENEYE_ISO_SMILES>
CC(C)CN([C@@H](CCCCNC(=O)N(CC1=CC=CC=C1)CC2=CN=CC=C2)C(=O)O)S(=O)(=O)C3=CC=C(C=C3)N
> <PUBCHEM_CACTVS_TPSA>
154
> <PUBCHEM_MONOISOTOPIC_WEIGHT>
581.26719054
> <PUBCHEM_TOTAL_CHARGE>
0
> <PUBCHEM_HEAVY_ATOM_COUNT>
41
> <PUBCHEM_ATOM_DEF_STEREO_COUNT>
1
> <PUBCHEM_ATOM_UDEF_STEREO_COUNT>
0
> <PUBCHEM_BOND_DEF_STEREO_COUNT>
0
> <PUBCHEM_BOND_UDEF_STEREO_COUNT>
0
> <PUBCHEM_ISOTOPIC_ATOM_COUNT>
0
> <PUBCHEM_COMPONENT_COUNT>
1
> <PUBCHEM_CACTVS_TAUTO_COUNT>
-1
> <PUBCHEM_COORDINATE_TYPE>
1
5
255
> <PUBCHEM_BONDANNOTATIONS>
11  36  8
11  41  8
21  23  8
21  24  8
23  25  8
24  26  8
25  28  8
26  28  8
31  33  8
31  34  8
32  35  8
32  36  8
33  37  8
34  38  8
35  40  8
37  39  8
38  39  8
40  41  8
12  7  6
$$$$
