513701
  -OEChem-10302200282D
104117  0     1  0  0  0  0  0999 V2000
    6.1094   -0.8587    0.0000 O   0  0  0  0  0  0  0  0  0  0  0  0
    4.6251    3.1619    0.0000 O   0  0  0  0  0  0  0  0  0  0  0  0
    8.7075   -1.3587    0.0000 O   0  0  0  0  0  0  0  0  0  0  0  0
    5.9819    5.4333    0.0000 O   0  0  0  0  0  0  0  0  0  0  0  0
    5.0698   -3.3435    0.0000 N   0  0  3  0  0  0  0  0  0  0  0  0
    4.2084    0.5492    0.0000 N   0  0  3  0  0  0  0  0  0  0  0  0
   11.3056   -0.8587    0.0000 N   0  0  0  0  0  0  0  0  0  0  0  0
    6.3987    8.0460    0.0000 N   0  0  0  0  0  0  0  0  0  0  0  0
    4.3628   -5.5680    0.0000 C   0  0  3  0  0  0  0  0  0  0  0  0
    3.4968   -5.0680    0.0000 C   0  0  3  0  0  0  0  0  0  0  0  0
    5.2289   -5.0680    0.0000 C   0  0  0  0  0  0  0  0  0  0  0  0
    3.4968   -4.0680    0.0000 C   0  0  0  0  0  0  0  0  0  0  0  0
    5.6110   -4.7401    0.0000 C   0  0  0  0  0  0  0  0  0  0  0  0
    3.5897   -3.5731    0.0000 C   0  0  0  0  0  0  0  0  0  0  0  0
    4.3789   -6.6095    0.0000 C   0  0  0  0  0  0  0  0  0  0  0  0
    2.5868   -5.5748    0.0000 C   0  0  0  0  0  0  0  0  0  0  0  0
    5.2289   -4.0680    0.0000 C   0  0  0  0  0  0  0  0  0  0  0  0
    4.3628   -3.5680    0.0000 C   0  0  0  0  0  0  0  0  0  0  0  0
    6.1228   -5.6026    0.0000 C   0  0  0  0  0  0  0  0  0  0  0  0
    2.5868   -3.5611    0.0000 C   0  0  0  0  0  0  0  0  0  0  0  0
    5.3669   -6.7166    0.0000 C   0  0  0  0  0  0  0  0  0  0  0  0
    2.0000   -4.3632    0.0000 C   0  0  0  0  0  0  0  0  0  0  0  0
    6.1228   -3.5333    0.0000 C   0  0  0  0  0  0  0  0  0  0  0  0
    4.3789   -2.5265    0.0000 C   0  0  0  0  0  0  0  0  0  0  0  0
    5.7216   -2.6241    0.0000 C   0  0  0  0  0  0  0  0  0  0  0  0
    3.4808   -7.1372    0.0000 C   0  0  0  0  0  0  0  0  0  0  0  0
    7.0289   -5.0888    0.0000 C   0  0  0  0  0  0  0  0  0  0  0  0
    3.4808   -1.9987    0.0000 C   0  0  0  0  0  0  0  0  0  0  0  0
    2.5788   -6.6164    0.0000 C   0  0  0  0  0  0  0  0  0  0  0  0
    7.0289   -4.0472    0.0000 C   0  0  0  0  0  0  0  0  0  0  0  0
    3.9758   -1.0941    0.0000 C   0  0  3  0  0  0  0  0  0  0  0  0
    4.9912   -0.9142    0.0000 C   0  0  3  0  0  0  0  0  0  0  0  0
    6.5264   -1.9536    0.0000 C   0  0  0  0  0  0  0  0  0  0  0  0
    2.5788   -2.5195    0.0000 C   0  0  0  0  0  0  0  0  0  0  0  0
    6.2365   -7.2708    0.0000 C   0  0  0  0  0  0  0  0  0  0  0  0
    7.5648   -5.9697    0.0000 C   0  0  0  0  0  0  0  0  0  0  0  0
    5.2434   -2.3587    0.0000 C   0  0  0  0  0  0  0  0  0  0  0  0
    7.7650   -3.3020    0.0000 C   0  0  0  0  0  0  0  0  0  0  0  0
    8.3285   -5.2615    0.0000 C   0  0  0  0  0  0  0  0  0  0  0  0
    3.4962   -0.1881    0.0000 C   0  0  0  0  0  0  0  0  0  0  0  0
    5.1304    0.1013    0.0000 C   0  0  0  0  0  0  0  0  0  0  0  0
    7.5206   -2.2835    0.0000 C   0  0  0  0  0  0  0  0  0  0  0  0
    3.7581   -8.1474    0.0000 C   0  0  0  0  0  0  0  0  0  0  0  0
    7.2129   -6.9390    0.0000 C   0  0  0  0  0  0  0  0  0  0  0  0
    4.7624   -8.4449    0.0000 C   0  0  0  0  0  0  0  0  0  0  0  0
    5.2434   -1.3587    0.0000 C   0  0  0  0  0  0  0  0  0  0  0  0
    4.0340    1.5339    0.0000 C   0  0  0  0  0  0  0  0  0  0  0  0
    4.7995    2.1772    0.0000 C   0  0  0  0  0  0  0  0  0  0  0  0
    6.9755   -1.3587    0.0000 C   0  0  0  0  0  0  0  0  0  0  0  0
    7.8415   -0.8587    0.0000 C   0  0  0  0  0  0  0  0  0  0  0  0
    5.3907    3.8053    0.0000 C   0  0  0  0  0  0  0  0  0  0  0  0
    5.2163    4.7900    0.0000 C   0  0  0  0  0  0  0  0  0  0  0  0
    9.5735   -0.8587    0.0000 C   0  0  0  0  0  0  0  0  0  0  0  0
   10.4396   -1.3587    0.0000 C   0  0  0  0  0  0  0  0  0  0  0  0
    5.8075    6.4180    0.0000 C   0  0  0  0  0  0  0  0  0  0  0  0
    6.5730    7.0614    0.0000 C   0  0  0  0  0  0  0  0  0  0  0  0
    5.9157   -5.2801    0.0000 H   0  0  0  0  0  0  0  0  0  0  0  0
    6.1715   -4.4751    0.0000 H   0  0  0  0  0  0  0  0  0  0  0  0
    3.5389   -2.9551    0.0000 H   0  0  0  0  0  0  0  0  0  0  0  0
    2.9697   -3.5792    0.0000 H   0  0  0  0  0  0  0  0  0  0  0  0
    1.5655   -3.9209    0.0000 H   0  0  0  0  0  0  0  0  0  0  0  0
    1.4932   -4.7203    0.0000 H   0  0  0  0  0  0  0  0  0  0  0  0
    2.0406   -6.9244    0.0000 H   0  0  0  0  0  0  0  0  0  0  0  0
    3.3558   -1.0898    0.0000 H   0  0  0  0  0  0  0  0  0  0  0  0
    5.5573   -0.6616    0.0000 H   0  0  0  0  0  0  0  0  0  0  0  0
    2.0406   -2.2116    0.0000 H   0  0  0  0  0  0  0  0  0  0  0  0
    5.7407   -2.7290    0.0000 H   0  0  0  0  0  0  0  0  0  0  0  0
    4.6258   -2.3047    0.0000 H   0  0  0  0  0  0  0  0  0  0  0  0
    8.6744   -5.7760    0.0000 H   0  0  0  0  0  0  0  0  0  0  0  0
    8.8905   -4.9997    0.0000 H   0  0  0  0  0  0  0  0  0  0  0  0
    3.0980    0.2871    0.0000 H   0  0  0  0  0  0  0  0  0  0  0  0
    2.9818   -0.5341    0.0000 H   0  0  0  0  0  0  0  0  0  0  0  0
    5.7324   -0.0470    0.0000 H   0  0  0  0  0  0  0  0  0  0  0  0
    5.3412    0.6844    0.0000 H   0  0  0  0  0  0  0  0  0  0  0  0
    7.9772   -1.8640    0.0000 H   0  0  0  0  0  0  0  0  0  0  0  0
    3.3153   -8.5813    0.0000 H   0  0  0  0  0  0  0  0  0  0  0  0
    7.6467   -7.3819    0.0000 H   0  0  0  0  0  0  0  0  0  0  0  0
    4.8809   -9.0535    0.0000 H   0  0  0  0  0  0  0  0  0  0  0  0
    5.0314   -0.7761    0.0000 H   0  0  0  0  0  0  0  0  0  0  0  0
    4.6328   -1.4664    0.0000 H   0  0  0  0  0  0  0  0  0  0  0  0
    3.7236    2.0706    0.0000 H   0  0  0  0  0  0  0  0  0  0  0  0
    3.4515    1.3214    0.0000 H   0  0  0  0  0  0  0  0  0  0  0  0
    5.1099    1.6405    0.0000 H   0  0  0  0  0  0  0  0  0  0  0  0
    5.3820    2.3897    0.0000 H   0  0  0  0  0  0  0  0  0  0  0  0
    6.5769   -1.8337    0.0000 H   0  0  0  0  0  0  0  0  0  0  0  0
    7.3740   -1.8337    0.0000 H   0  0  0  0  0  0  0  0  0  0  0  0
    8.2400   -0.3838    0.0000 H   0  0  0  0  0  0  0  0  0  0  0  0
    7.4430   -0.3838    0.0000 H   0  0  0  0  0  0  0  0  0  0  0  0
    5.7011    3.2686    0.0000 H   0  0  0  0  0  0  0  0  0  0  0  0
    5.9732    4.0178    0.0000 H   0  0  0  0  0  0  0  0  0  0  0  0
    4.9059    5.3266    0.0000 H   0  0  0  0  0  0  0  0  0  0  0  0
    4.6339    4.5775    0.0000 H   0  0  0  0  0  0  0  0  0  0  0  0
    9.9721   -0.3838    0.0000 H   0  0  0  0  0  0  0  0  0  0  0  0
    9.1750   -0.3838    0.0000 H   0  0  0  0  0  0  0  0  0  0  0  0
   10.0410   -1.8337    0.0000 H   0  0  0  0  0  0  0  0  0  0  0  0
   10.8381   -1.8337    0.0000 H   0  0  0  0  0  0  0  0  0  0  0  0
    5.4971    6.9547    0.0000 H   0  0  0  0  0  0  0  0  0  0  0  0
    5.2250    6.2055    0.0000 H   0  0  0  0  0  0  0  0  0  0  0  0
   11.8425   -1.1687    0.0000 H   0  0  0  0  0  0  0  0  0  0  0  0
   11.3056   -0.2387    0.0000 H   0  0  0  0  0  0  0  0  0  0  0  0
    6.8835    6.5246    0.0000 H   0  0  0  0  0  0  0  0  0  0  0  0
    7.1555    7.2738    0.0000 H   0  0  0  0  0  0  0  0  0  0  0  0
    6.8733    8.4449    0.0000 H   0  0  0  0  0  0  0  0  0  0  0  0
    5.8159    8.2576    0.0000 H   0  0  0  0  0  0  0  0  0  0  0  0
  1 46  1  0  0  0  0
  1 49  1  0  0  0  0
  2 48  1  0  0  0  0
  2 51  1  0  0  0  0
  3 50  1  0  0  0  0
  3 53  1  0  0  0  0
  4 52  1  0  0  0  0
  4 55  1  0  0  0  0
  5 13  1  0  0  0  0
  5 14  1  0  0  0  0
  5 37  1  0  0  0  0
  6 40  1  0  0  0  0
  6 41  1  0  0  0  0
  6 47  1  0  0  0  0
  7 54  1  0  0  0  0
  7 99  1  0  0  0  0
  7100  1  0  0  0  0
  8 56  1  0  0  0  0
  8103  1  0  0  0  0
  8104  1  0  0  0  0
  9 10  1  0  0  0  0
  9 11  1  0  0  0  0
  9 13  1  0  0  0  0
  9 15  1  0  0  0  0
 10 12  1  0  0  0  0
 10 14  1  0  0  0  0
 10 16  1  0  0  0  0
 11 17  2  0  0  0  0
 11 19  1  0  0  0  0
 12 18  2  0  0  0  0
 12 20  1  0  0  0  0
 13 57  1  0  0  0  0
 13 58  1  0  0  0  0
 14 59  1  0  0  0  0
 14 60  1  0  0  0  0
 15 21  1  0  0  0  0
 15 26  2  0  0  0  0
 16 22  1  0  0  0  0
 16 29  2  0  0  0  0
 17 18  1  0  0  0  0
 17 23  1  0  0  0  0
 18 24  1  0  0  0  0
 19 21  2  0  0  0  0
 19 27  1  0  0  0  0
 20 22  1  0  0  0  0
 20 34  2  0  0  0  0
 21 35  1  0  0  0  0
 22 61  1  0  0  0  0
 22 62  1  0  0  0  0
 23 25  1  0  0  0  0
 23 30  2  0  0  0  0
 24 25  1  0  0  0  0
 24 28  2  0  0  0  0
 25 33  2  0  0  0  0
 26 29  1  0  0  0  0
 26 43  1  0  0  0  0
 27 30  1  0  0  0  0
 27 36  2  0  0  0  0
 28 31  1  0  0  0  0
 28 34  1  0  0  0  0
 29 63  1  0  0  0  0
 30 38  1  0  0  0  0
 31 32  1  0  0  0  0
 31 40  1  0  0  0  0
 31 64  1  0  0  0  0
 32 33  1  0  0  0  0
 32 41  1  0  0  0  0
 32 65  1  0  0  0  0
 33 42  1  0  0  0  0
 34 66  1  0  0  0  0
 35 44  2  0  0  0  0
 35 45  1  0  0  0  0
 36 39  1  0  0  0  0
 36 44  1  0  0  0  0
 37 46  1  0  0  0  0
 37 67  1  0  0  0  0
 37 68  1  0  0  0  0
 38 39  1  0  0  0  0
 38 42  2  0  0  0  0
 39 69  1  0  0  0  0
 39 70  1  0  0  0  0
 40 71  1  0  0  0  0
 40 72  1  0  0  0  0
 41 73  1  0  0  0  0
 41 74  1  0  0  0  0
 42 75  1  0  0  0  0
 43 45  2  0  0  0  0
 43 76  1  0  0  0  0
 44 77  1  0  0  0  0
 45 78  1  0  0  0  0
 46 79  1  0  0  0  0
 46 80  1  0  0  0  0
 47 48  1  0  0  0  0
 47 81  1  0  0  0  0
 47 82  1  0  0  0  0
 48 83  1  0  0  0  0
 48 84  1  0  0  0  0
 49 50  1  0  0  0  0
 49 85  1  0  0  0  0
 49 86  1  0  0  0  0
 50 87  1  0  0  0  0
 50 88  1  0  0  0  0
 51 52  1  0  0  0  0
 51 89  1  0  0  0  0
 51 90  1  0  0  0  0
 52 91  1  0  0  0  0
 52 92  1  0  0  0  0
 53 54  1  0  0  0  0
 53 93  1  0  0  0  0
 53 94  1  0  0  0  0
 54 95  1  0  0  0  0
 54 96  1  0  0  0  0
 55 56  1  0  0  0  0
 55 97  1  0  0  0  0
 55 98  1  0  0  0  0
 56101  1  0  0  0  0
 56102  1  0  0  0  0
M  END
> <PUBCHEM_COMPOUND_CID>
513701
> <PUBCHEM_COMPOUND_CANONICALIZED>
1
> <PUBCHEM_CACTVS_COMPLEXITY>
1630
> <PUBCHEM_CACTVS_HBOND_ACCEPTOR>
8
> <PUBCHEM_CACTVS_HBOND_DONOR>
2
> <PUBCHEM_CACTVS_ROTATABLE_BOND>
16
> <PUBCHEM_CACTVS_SUBSKEYS>
AAADcfB/uAAAAAAAAAAAAAAAAAAAAePGDBAwYMGDAAAAAHjBVAAAHgAQAAAADwDhmAYwAMNABACAAiBCAAACAAAgAAAIiIAIAIgLICKAkRGHIAAgkACaiAcQgMAPwAACAAAQAACAAAQAACAAAQAACAAAAA==
> <PUBCHEM_IUPAC_OPENEYE_NAME>
2-[2-[2-[30-[2-[2-(2-aminoethoxy)ethoxy]ethyl]-4,30-diazatetradecacyclo[18.16.1.118,21.02,6.07,35.09,33.011,32.013,27.016,26.022,36.023,34.024,28.028,32.025,38]octatriaconta-1(36),7(35),8,11,13(27),14,16,18(38),20(37),21,23,25,33-tridecaen-4-yl]ethoxy]ethoxy]ethanamine
> <PUBCHEM_IUPAC_CAS_NAME>
2-[2-[2-[30-[2-[2-(2-aminoethoxy)ethoxy]ethyl]-4,30-diazatetradecacyclo[18.16.1.118,21.02,6.07,35.09,33.011,32.013,27.016,26.022,36.023,34.024,28.028,32.025,38]octatriaconta-1(36),7(35),8,11,13(27),14,16,18(38),20(37),21,23,25,33-tridecaen-4-yl]ethoxy]ethoxy]ethanamine
> <PUBCHEM_IUPAC_NAME_MARKUP>
2-[2-[2-[30-[2-[2-(2-aminoethoxy)ethoxy]ethyl]-4,30-diazatetradecacyclo[18.16.1.1<SUP>18,21</SUP>.0<SUP>2,6</SUP>.0<SUP>7,35</SUP>.0<SUP>9,33</SUP>.0<SUP>11,32</SUP>.0<SUP>13,27</SUP>.0<SUP>16,26</SUP>.0<SUP>22,36</SUP>.0<SUP>23,34</SUP>.0<SUP>24,28</SUP>.0<SUP>28,32</SUP>.0<SUP>25,38</SUP>]octatriaconta-1(36),7(35),8,11,13(27),14,16,18(38),20(37),21,23,25,33-tridecaen-4-yl]ethoxy]ethoxy]ethanamine
> <PUBCHEM_IUPAC_NAME>
2-[2-[2-[30-[2-[2-(2-aminoethoxy)ethoxy]ethyl]-4,30-diazatetradecacyclo[18.16.1.118,21.02,6.07,35.09,33.011,32.013,27.016,26.022,36.023,34.024,28.028,32.025,38]octatriaconta-1(36),7(35),8,11,13(27),14,16,18(38),20(37),21,23,25,33-tridecaen-4-yl]ethoxy]ethoxy]ethanamine
> <PUBCHEM_IUPAC_SYSTEMATIC_NAME>
2-[2-[2-[30-[2-[2-(2-azanylethoxy)ethoxy]ethyl]-4,30-diazatetradecacyclo[18.16.1.118,21.02,6.07,35.09,33.011,32.013,27.016,26.022,36.023,34.024,28.028,32.025,38]octatriaconta-1(36),7(35),8,11,13(27),14,16,18(38),20(37),21,23,25,33-tridecaen-4-yl]ethoxy]ethoxy]ethanamine
> <PUBCHEM_IUPAC_TRADITIONAL_NAME>
2-[2-[2-[4-[2-[2-(2-aminoethoxy)ethoxy]ethyl]-4,30-diazatetradecacyclo[18.16.1.118,21.02,6.07,35.09,33.011,32.013,27.016,26.022,36.023,34.024,28.028,32.025,38]octatriaconta-1(36),7(35),8,11,13(27),14,16,18(38),20(37),21,23,25,33-tridecaen-30-yl]ethoxy]ethoxy]ethylamine
> <PUBCHEM_IUPAC_INCHI>
InChI=1S/C48H48N4O4/c49-3-7-53-11-13-55-9-5-51-21-33-31-19-28-16-27-15-25-1-2-26-17-30-18-29-20-32(34(33)22-51)39-38(31)40-35(28)36(27)41-37(25)44(26)48-24-52(6-10-56-14-12-54-8-4-50)23-47(30,48)45(29)42(39)43(40)46(41)48/h1-2,15,17,19-20,33-34H,3-14,16,18,21-24,49-50H2
> <PUBCHEM_IUPAC_INCHIKEY>
RIOLFKCFUJWMKH-UHFFFAOYSA-N
> <PUBCHEM_XLOGP3_AA>
3.7
> <PUBCHEM_EXACT_MASS>
744.36755603
> <PUBCHEM_MOLECULAR_FORMULA>
C48H48N4O4
> <PUBCHEM_MOLECULAR_WEIGHT>
744.9
> <PUBCHEM_OPENEYE_CAN_SMILES>
C1C2C(CN1CCOCCOCCN)C3=C4C5=C2C=C6CC7=CC8=C9C1=C2C%10=C(CC(=C3)C%10=C4C3=C2C92C7(C6=C53)CN(C2)CCOCCOCCN)C=C1C=C8
> <PUBCHEM_OPENEYE_ISO_SMILES>
C1C2C(CN1CCOCCOCCN)C3=C4C5=C2C=C6CC7=CC8=C9C1=C2C%10=C(CC(=C3)C%10=C4C3=C2C92C7(C6=C53)CN(C2)CCOCCOCCN)C=C1C=C8
> <PUBCHEM_CACTVS_TPSA>
95.4
> <PUBCHEM_MONOISOTOPIC_WEIGHT>
744.36755603
> <PUBCHEM_TOTAL_CHARGE>
0
> <PUBCHEM_HEAVY_ATOM_COUNT>
56
> <PUBCHEM_ATOM_DEF_STEREO_COUNT>
0
> <PUBCHEM_ATOM_UDEF_STEREO_COUNT>
4
> <PUBCHEM_BOND_DEF_STEREO_COUNT>
0
> <PUBCHEM_BOND_UDEF_STEREO_COUNT>
0
> <PUBCHEM_ISOTOPIC_ATOM_COUNT>
0
> <PUBCHEM_COMPONENT_COUNT>
1
> <PUBCHEM_CACTVS_TAUTO_COUNT>
-1
> <PUBCHEM_COORDINATE_TYPE>
1
5
255
> <PUBCHEM_BONDANNOTATIONS>
10  14  3
11  17  8
11  19  8
12  18  8
12  20  8
15  21  8
15  26  8
17  23  8
18  24  8
19  21  8
19  27  8
20  34  8
21  35  8
23  25  8
23  30  8
24  28  8
25  33  8
26  43  8
27  30  8
27  36  8
28  34  8
30  38  8
31  40  3
32  41  3
33  42  8
35  44  8
35  45  8
36  44  8
38  42  8
43  45  8
9  13  3
$$$$
