513719
  -OEChem-10302200282D
 73 74  0     1  0  0  0  0  0999 V2000
    4.5981    0.1900    0.0000 S   0  0  0  0  0  0  0  0  0  0  0  0
    5.5981    0.1900    0.0000 O   0  0  0  0  0  0  0  0  0  0  0  0
    3.5981    0.1900    0.0000 O   0  0  0  0  0  0  0  0  0  0  0  0
    6.3301    3.1900    0.0000 O   0  0  0  0  0  0  0  0  0  0  0  0
    4.5981    3.1900    0.0000 O   0  0  0  0  0  0  0  0  0  0  0  0
   10.6603    2.6900    0.0000 O   0  0  0  0  0  0  0  0  0  0  0  0
   16.7224    3.1900    0.0000 O   0  0  0  0  0  0  0  0  0  0  0  0
    4.5981    1.1900    0.0000 N   0  0  3  0  0  0  0  0  0  0  0  0
    9.7942    1.1900    0.0000 N   0  0  0  0  0  0  0  0  0  0  0  0
   11.5263    1.1900    0.0000 N   0  0  0  0  0  0  0  0  0  0  0  0
    5.4641    1.6900    0.0000 C   0  0  1  0  0  0  0  0  0  0  0  0
    3.7320    1.6900    0.0000 C   0  0  0  0  0  0  0  0  0  0  0  0
    6.3301    1.1900    0.0000 C   0  0  0  0  0  0  0  0  0  0  0  0
    2.8660    1.1900    0.0000 C   0  0  0  0  0  0  0  0  0  0  0  0
    7.1962    1.6900    0.0000 C   0  0  0  0  0  0  0  0  0  0  0  0
    8.0622    1.1900    0.0000 C   0  0  0  0  0  0  0  0  0  0  0  0
    5.4641    2.6900    0.0000 C   0  0  0  0  0  0  0  0  0  0  0  0
    4.5981   -0.8100    0.0000 C   0  0  0  0  0  0  0  0  0  0  0  0
    2.0000    1.6900    0.0000 C   0  0  0  0  0  0  0  0  0  0  0  0
    2.8660    0.1900    0.0000 C   0  0  0  0  0  0  0  0  0  0  0  0
    8.9282    1.6900    0.0000 C   0  0  0  0  0  0  0  0  0  0  0  0
    3.7320   -1.3100    0.0000 C   0  0  0  0  0  0  0  0  0  0  0  0
    5.4641   -1.3100    0.0000 C   0  0  0  0  0  0  0  0  0  0  0  0
    3.7320   -2.3100    0.0000 C   0  0  0  0  0  0  0  0  0  0  0  0
    5.4641   -2.3100    0.0000 C   0  0  0  0  0  0  0  0  0  0  0  0
    4.5981   -2.8100    0.0000 C   0  0  0  0  0  0  0  0  0  0  0  0
   10.6603    1.6900    0.0000 C   0  0  0  0  0  0  0  0  0  0  0  0
    4.5981   -3.8100    0.0000 C   0  0  0  0  0  0  0  0  0  0  0  0
   12.3923    1.6900    0.0000 C   0  0  0  0  0  0  0  0  0  0  0  0
   13.2583    1.1900    0.0000 C   0  0  0  0  0  0  0  0  0  0  0  0
   14.1244    1.6900    0.0000 C   0  0  0  0  0  0  0  0  0  0  0  0
   14.1244    2.6900    0.0000 C   0  0  0  0  0  0  0  0  0  0  0  0
   14.9904    1.1900    0.0000 C   0  0  0  0  0  0  0  0  0  0  0  0
   14.9904    3.1900    0.0000 C   0  0  0  0  0  0  0  0  0  0  0  0
   15.8564    1.6900    0.0000 C   0  0  0  0  0  0  0  0  0  0  0  0
   15.8564    2.6900    0.0000 C   0  0  0  0  0  0  0  0  0  0  0  0
    5.4641    1.0700    0.0000 H   0  0  0  0  0  0  0  0  0  0  0  0
    4.1306    2.1650    0.0000 H   0  0  0  0  0  0  0  0  0  0  0  0
    3.3335    2.1650    0.0000 H   0  0  0  0  0  0  0  0  0  0  0  0
    5.9316    0.7151    0.0000 H   0  0  0  0  0  0  0  0  0  0  0  0
    6.7287    0.7151    0.0000 H   0  0  0  0  0  0  0  0  0  0  0  0
    2.8660    1.8100    0.0000 H   0  0  0  0  0  0  0  0  0  0  0  0
    7.5947    2.1650    0.0000 H   0  0  0  0  0  0  0  0  0  0  0  0
    6.7976    2.1650    0.0000 H   0  0  0  0  0  0  0  0  0  0  0  0
    7.6636    0.7151    0.0000 H   0  0  0  0  0  0  0  0  0  0  0  0
    8.4607    0.7151    0.0000 H   0  0  0  0  0  0  0  0  0  0  0  0
    2.3100    2.2269    0.0000 H   0  0  0  0  0  0  0  0  0  0  0  0
    1.4631    2.0000    0.0000 H   0  0  0  0  0  0  0  0  0  0  0  0
    1.6900    1.1531    0.0000 H   0  0  0  0  0  0  0  0  0  0  0  0
    2.2460    0.1900    0.0000 H   0  0  0  0  0  0  0  0  0  0  0  0
    2.8660   -0.4300    0.0000 H   0  0  0  0  0  0  0  0  0  0  0  0
    3.4860    0.1900    0.0000 H   0  0  0  0  0  0  0  0  0  0  0  0
    9.3267    2.1650    0.0000 H   0  0  0  0  0  0  0  0  0  0  0  0
    8.5297    2.1650    0.0000 H   0  0  0  0  0  0  0  0  0  0  0  0
    3.1951   -1.0000    0.0000 H   0  0  0  0  0  0  0  0  0  0  0  0
    6.0010   -1.0000    0.0000 H   0  0  0  0  0  0  0  0  0  0  0  0
    9.7942    0.5700    0.0000 H   0  0  0  0  0  0  0  0  0  0  0  0
    6.3301    3.8100    0.0000 H   0  0  0  0  0  0  0  0  0  0  0  0
    3.1951   -2.6200    0.0000 H   0  0  0  0  0  0  0  0  0  0  0  0
    6.0010   -2.6200    0.0000 H   0  0  0  0  0  0  0  0  0  0  0  0
    3.9781   -3.8100    0.0000 H   0  0  0  0  0  0  0  0  0  0  0  0
    4.5981   -4.4300    0.0000 H   0  0  0  0  0  0  0  0  0  0  0  0
    5.2181   -3.8100    0.0000 H   0  0  0  0  0  0  0  0  0  0  0  0
   11.5263    0.5700    0.0000 H   0  0  0  0  0  0  0  0  0  0  0  0
   12.7908    2.1650    0.0000 H   0  0  0  0  0  0  0  0  0  0  0  0
   11.9938    2.1650    0.0000 H   0  0  0  0  0  0  0  0  0  0  0  0
   12.8598    0.7151    0.0000 H   0  0  0  0  0  0  0  0  0  0  0  0
   13.6569    0.7151    0.0000 H   0  0  0  0  0  0  0  0  0  0  0  0
   13.5874    3.0000    0.0000 H   0  0  0  0  0  0  0  0  0  0  0  0
   14.9904    0.5700    0.0000 H   0  0  0  0  0  0  0  0  0  0  0  0
   14.9904    3.8100    0.0000 H   0  0  0  0  0  0  0  0  0  0  0  0
   16.3933    1.3800    0.0000 H   0  0  0  0  0  0  0  0  0  0  0  0
   17.2594    2.8800    0.0000 H   0  0  0  0  0  0  0  0  0  0  0  0
  1  2  2  0  0  0  0
  1  3  2  0  0  0  0
  1  8  1  0  0  0  0
  1 18  1  0  0  0  0
  4 17  1  0  0  0  0
  4 58  1  0  0  0  0
  5 17  2  0  0  0  0
  6 27  2  0  0  0  0
  7 36  1  0  0  0  0
  7 73  1  0  0  0  0
 11  8  1  6  0  0  0
  8 12  1  0  0  0  0
  9 21  1  0  0  0  0
  9 27  1  0  0  0  0
  9 57  1  0  0  0  0
 10 27  1  0  0  0  0
 10 29  1  0  0  0  0
 10 64  1  0  0  0  0
 11 13  1  0  0  0  0
 11 17  1  0  0  0  0
 11 37  1  0  0  0  0
 12 14  1  0  0  0  0
 12 38  1  0  0  0  0
 12 39  1  0  0  0  0
 13 15  1  0  0  0  0
 13 40  1  0  0  0  0
 13 41  1  0  0  0  0
 14 19  1  0  0  0  0
 14 20  1  0  0  0  0
 14 42  1  0  0  0  0
 15 16  1  0  0  0  0
 15 43  1  0  0  0  0
 15 44  1  0  0  0  0
 16 21  1  0  0  0  0
 16 45  1  0  0  0  0
 16 46  1  0  0  0  0
 18 22  2  0  0  0  0
 18 23  1  0  0  0  0
 19 47  1  0  0  0  0
 19 48  1  0  0  0  0
 19 49  1  0  0  0  0
 20 50  1  0  0  0  0
 20 51  1  0  0  0  0
 20 52  1  0  0  0  0
 21 53  1  0  0  0  0
 21 54  1  0  0  0  0
 22 24  1  0  0  0  0
 22 55  1  0  0  0  0
 23 25  2  0  0  0  0
 23 56  1  0  0  0  0
 24 26  2  0  0  0  0
 24 59  1  0  0  0  0
 25 26  1  0  0  0  0
 25 60  1  0  0  0  0
 26 28  1  0  0  0  0
 28 61  1  0  0  0  0
 28 62  1  0  0  0  0
 28 63  1  0  0  0  0
 29 30  1  0  0  0  0
 29 65  1  0  0  0  0
 29 66  1  0  0  0  0
 30 31  1  0  0  0  0
 30 67  1  0  0  0  0
 30 68  1  0  0  0  0
 31 32  2  0  0  0  0
 31 33  1  0  0  0  0
 32 34  1  0  0  0  0
 32 69  1  0  0  0  0
 33 35  2  0  0  0  0
 33 70  1  0  0  0  0
 34 36  2  0  0  0  0
 34 71  1  0  0  0  0
 35 36  1  0  0  0  0
 35 72  1  0  0  0  0
M  END
> <PUBCHEM_COMPOUND_CID>
513719
> <PUBCHEM_COMPOUND_CANONICALIZED>
1
> <PUBCHEM_CACTVS_COMPLEXITY>
769
> <PUBCHEM_CACTVS_HBOND_ACCEPTOR>
7
> <PUBCHEM_CACTVS_HBOND_DONOR>
4
> <PUBCHEM_CACTVS_ROTATABLE_BOND>
14
> <PUBCHEM_CACTVS_SUBSKEYS>
AAADcfB7OABAAAAAAAAAAAAAAAAAAAAAAAAwYAAAAAAAAAABQAAAHgQQSAAADSzB2AQzD4LAAgKIAiDSGHBCABAgIAAIiJmOCIiKJjKCkTOEcAAs1hOYmAeYyIAOMAAAAAAAAABgAAAAAAAAAAAAAAAAAA==
> <PUBCHEM_IUPAC_OPENEYE_NAME>
(2S)-6-[2-(4-hydroxyphenyl)ethylcarbamoylamino]-2-[isobutyl(p-tolylsulfonyl)amino]hexanoic acid
> <PUBCHEM_IUPAC_CAS_NAME>
(2S)-6-[[[2-(4-hydroxyphenyl)ethylamino]-oxomethyl]amino]-2-[(4-methylphenyl)sulfonyl-(2-methylpropyl)amino]hexanoic acid
> <PUBCHEM_IUPAC_NAME_MARKUP>
(2<I>S</I>)-6-[2-(4-hydroxyphenyl)ethylcarbamoylamino]-2-[(4-methylphenyl)sulfonyl-(2-methylpropyl)amino]hexanoic acid
> <PUBCHEM_IUPAC_NAME>
(2S)-6-[2-(4-hydroxyphenyl)ethylcarbamoylamino]-2-[(4-methylphenyl)sulfonyl-(2-methylpropyl)amino]hexanoic acid
> <PUBCHEM_IUPAC_SYSTEMATIC_NAME>
(2S)-6-[2-(4-hydroxyphenyl)ethylcarbamoylamino]-2-[(4-methylphenyl)sulfonyl-(2-methylpropyl)amino]hexanoic acid
> <PUBCHEM_IUPAC_TRADITIONAL_NAME>
(2S)-6-[2-(4-hydroxyphenyl)ethylcarbamoylamino]-2-[isobutyl(tosyl)amino]hexanoic acid
> <PUBCHEM_IUPAC_INCHI>
InChI=1S/C26H37N3O6S/c1-19(2)18-29(36(34,35)23-13-7-20(3)8-14-23)24(25(31)32)6-4-5-16-27-26(33)28-17-15-21-9-11-22(30)12-10-21/h7-14,19,24,30H,4-6,15-18H2,1-3H3,(H,31,32)(H2,27,28,33)/t24-/m0/s1
> <PUBCHEM_IUPAC_INCHIKEY>
NSSZDRXJERPCNU-DEOSSOPVSA-N
> <PUBCHEM_XLOGP3_AA>
4.2
> <PUBCHEM_EXACT_MASS>
519.24030708
> <PUBCHEM_MOLECULAR_FORMULA>
C26H37N3O6S
> <PUBCHEM_MOLECULAR_WEIGHT>
519.7
> <PUBCHEM_OPENEYE_CAN_SMILES>
CC1=CC=C(C=C1)S(=O)(=O)N(CC(C)C)C(CCCCNC(=O)NCCC2=CC=C(C=C2)O)C(=O)O
> <PUBCHEM_OPENEYE_ISO_SMILES>
CC1=CC=C(C=C1)S(=O)(=O)N(CC(C)C)[C@@H](CCCCNC(=O)NCCC2=CC=C(C=C2)O)C(=O)O
> <PUBCHEM_CACTVS_TPSA>
144
> <PUBCHEM_MONOISOTOPIC_WEIGHT>
519.24030708
> <PUBCHEM_TOTAL_CHARGE>
0
> <PUBCHEM_HEAVY_ATOM_COUNT>
36
> <PUBCHEM_ATOM_DEF_STEREO_COUNT>
1
> <PUBCHEM_ATOM_UDEF_STEREO_COUNT>
0
> <PUBCHEM_BOND_DEF_STEREO_COUNT>
0
> <PUBCHEM_BOND_UDEF_STEREO_COUNT>
0
> <PUBCHEM_ISOTOPIC_ATOM_COUNT>
0
> <PUBCHEM_COMPONENT_COUNT>
1
> <PUBCHEM_CACTVS_TAUTO_COUNT>
-1
> <PUBCHEM_COORDINATE_TYPE>
1
5
255
> <PUBCHEM_BONDANNOTATIONS>
18  22  8
18  23  8
22  24  8
23  25  8
24  26  8
25  26  8
31  32  8
31  33  8
32  34  8
33  35  8
34  36  8
35  36  8
11  8  6
$$$$
