513702
  -OEChem-10302200282D
104117  0     1  0  0  0  0  0999 V2000
    6.3162    2.1026    0.0000 O   0  0  0  0  0  0  0  0  0  0  0  0
   11.7914   -6.4009    0.0000 O   0  0  0  0  0  0  0  0  0  0  0  0
    5.3727    4.5744    0.0000 O   0  0  0  0  0  0  0  0  0  0  0  0
   14.4325   -6.2448    0.0000 O   0  0  0  0  0  0  0  0  0  0  0  0
    6.2750   -0.5428    0.0000 N   0  0  3  0  0  0  0  0  0  0  0  0
    9.2809   -5.5656    0.0000 N   0  0  0  0  0  0  0  0  0  0  0  0
    5.4140    7.2198    0.0000 N   0  0  0  0  0  0  0  0  0  0  0  0
   16.9429   -7.0801    0.0000 N   0  0  0  0  0  0  0  0  0  0  0  0
    5.5681   -2.7673    0.0000 C   0  0  0  0  0  0  0  0  0  0  0  0
    4.7020   -2.2673    0.0000 C   0  0  0  0  0  0  0  0  0  0  0  0
    6.4341   -2.2673    0.0000 C   0  0  0  0  0  0  0  0  0  0  0  0
    5.5841   -3.8088    0.0000 C   0  0  0  0  0  0  0  0  0  0  0  0
    6.8163   -1.9394    0.0000 C   0  0  0  0  0  0  0  0  0  0  0  0
    4.7020   -1.2672    0.0000 C   0  0  0  0  0  0  0  0  0  0  0  0
    3.7920   -2.7741    0.0000 C   0  0  0  0  0  0  0  0  0  0  0  0
    4.7949   -0.7723    0.0000 C   0  0  0  0  0  0  0  0  0  0  0  0
    7.0520   -3.0456    0.0000 C   0  0  0  0  0  0  0  0  0  0  0  0
    6.5722   -3.9159    0.0000 C   0  0  0  0  0  0  0  0  0  0  0  0
    6.4341   -1.2672    0.0000 C   0  0  0  0  0  0  0  0  0  0  0  0
    4.6861   -4.3365    0.0000 C   0  0  0  0  0  0  0  0  0  0  0  0
    5.5681   -0.7672    0.0000 C   0  0  0  0  0  0  0  0  0  0  0  0
    3.7840   -3.8157    0.0000 C   0  0  0  0  0  0  0  0  0  0  0  0
    3.7190   -1.1213    0.0000 C   0  0  0  0  0  0  0  0  0  0  0  0
    3.2052   -1.9720    0.0000 C   0  0  0  0  0  0  0  0  0  0  0  0
    7.9528   -2.6510    0.0000 C   0  0  0  0  0  0  0  0  0  0  0  0
    6.7504   -4.9481    0.0000 C   0  0  0  0  0  0  0  0  0  0  0  0
    8.3662   -4.2291    0.0000 C   0  0  3  0  0  0  0  0  0  0  0  0
    7.7535   -5.0273    0.0000 C   0  0  3  0  0  0  0  0  0  0  0  0
    7.3855   -1.0182    0.0000 C   0  0  0  0  0  0  0  0  0  0  0  0
    4.9633   -5.3466    0.0000 C   0  0  0  0  0  0  0  0  0  0  0  0
    5.3080    0.1812    0.0000 C   0  0  0  0  0  0  0  0  0  0  0  0
    2.7706   -4.0807    0.0000 C   0  0  0  0  0  0  0  0  0  0  0  0
    7.0928   -0.0676    0.0000 C   0  0  0  0  0  0  0  0  0  0  0  0
    3.0833   -5.0806    0.0000 C   0  0  0  0  0  0  0  0  0  0  0  0
    8.1125   -1.6806    0.0000 C   0  0  0  0  0  0  0  0  0  0  0  0
    5.9676   -5.6442    0.0000 C   0  0  0  0  0  0  0  0  0  0  0  0
    3.6103   -0.1438    0.0000 C   0  0  0  0  0  0  0  0  0  0  0  0
    2.2222   -2.3338    0.0000 C   0  0  0  0  0  0  0  0  0  0  0  0
    6.6170    0.3969    0.0000 C   0  0  0  0  0  0  0  0  0  0  0  0
    9.3082   -4.5656    0.0000 C   0  0  0  0  0  0  0  0  0  0  0  0
    8.3220   -5.8503    0.0000 C   0  0  0  0  0  0  0  0  0  0  0  0
    4.3709    0.4796    0.0000 C   0  0  0  0  0  0  0  0  0  0  0  0
    2.0107   -3.3597    0.0000 C   0  0  0  0  0  0  0  0  0  0  0  0
    2.6417   -0.0077    0.0000 C   0  0  0  0  0  0  0  0  0  0  0  0
    2.0000   -0.7460    0.0000 C   0  0  0  0  0  0  0  0  0  0  0  0
    5.9742    1.1630    0.0000 C   0  0  0  0  0  0  0  0  0  0  0  0
   10.0742   -6.1745    0.0000 C   0  0  0  0  0  0  0  0  0  0  0  0
   10.9981   -5.7920    0.0000 C   0  0  0  0  0  0  0  0  0  0  0  0
    5.6735    2.8687    0.0000 C   0  0  0  0  0  0  0  0  0  0  0  0
    6.0155    3.8084    0.0000 C   0  0  0  0  0  0  0  0  0  0  0  0
   12.7153   -6.0184    0.0000 C   0  0  0  0  0  0  0  0  0  0  0  0
   13.5086   -6.6273    0.0000 C   0  0  0  0  0  0  0  0  0  0  0  0
    5.7147    5.5141    0.0000 C   0  0  0  0  0  0  0  0  0  0  0  0
    5.0719    6.2802    0.0000 C   0  0  0  0  0  0  0  0  0  0  0  0
   15.2257   -6.8537    0.0000 C   0  0  0  0  0  0  0  0  0  0  0  0
   16.1497   -6.4712    0.0000 C   0  0  0  0  0  0  0  0  0  0  0  0
    7.1209   -2.4794    0.0000 H   0  0  0  0  0  0  0  0  0  0  0  0
    7.3768   -1.6743    0.0000 H   0  0  0  0  0  0  0  0  0  0  0  0
    4.7442   -0.1544    0.0000 H   0  0  0  0  0  0  0  0  0  0  0  0
    4.1749   -0.7785    0.0000 H   0  0  0  0  0  0  0  0  0  0  0  0
    8.8232   -3.8102    0.0000 H   0  0  0  0  0  0  0  0  0  0  0  0
    7.4441   -5.5646    0.0000 H   0  0  0  0  0  0  0  0  0  0  0  0
    7.7056    0.0269    0.0000 H   0  0  0  0  0  0  0  0  0  0  0  0
    7.0883    0.5524    0.0000 H   0  0  0  0  0  0  0  0  0  0  0  0
    2.4708   -5.1765    0.0000 H   0  0  0  0  0  0  0  0  0  0  0  0
    3.0879   -5.7006    0.0000 H   0  0  0  0  0  0  0  0  0  0  0  0
    8.6981   -1.4771    0.0000 H   0  0  0  0  0  0  0  0  0  0  0  0
    6.1026   -6.2493    0.0000 H   0  0  0  0  0  0  0  0  0  0  0  0
    7.1540    0.0869    0.0000 H   0  0  0  0  0  0  0  0  0  0  0  0
    7.0156    0.8718    0.0000 H   0  0  0  0  0  0  0  0  0  0  0  0
    9.9227   -4.6476    0.0000 H   0  0  0  0  0  0  0  0  0  0  0  0
    9.4542   -3.9631    0.0000 H   0  0  0  0  0  0  0  0  0  0  0  0
    7.7777   -6.1471    0.0000 H   0  0  0  0  0  0  0  0  0  0  0  0
    8.5600   -6.4228    0.0000 H   0  0  0  0  0  0  0  0  0  0  0  0
    4.2543    1.0885    0.0000 H   0  0  0  0  0  0  0  0  0  0  0  0
    1.4192   -3.5454    0.0000 H   0  0  0  0  0  0  0  0  0  0  0  0
    2.4245    0.5730    0.0000 H   0  0  0  0  0  0  0  0  0  0  0  0
    1.4056   -0.5698    0.0000 H   0  0  0  0  0  0  0  0  0  0  0  0
    5.4373    1.4730    0.0000 H   0  0  0  0  0  0  0  0  0  0  0  0
    5.5757    0.6880    0.0000 H   0  0  0  0  0  0  0  0  0  0  0  0
    9.6170   -6.5933    0.0000 H   0  0  0  0  0  0  0  0  0  0  0  0
   10.4072   -6.6974    0.0000 H   0  0  0  0  0  0  0  0  0  0  0  0
   11.4553   -5.3732    0.0000 H   0  0  0  0  0  0  0  0  0  0  0  0
   10.6651   -5.2690    0.0000 H   0  0  0  0  0  0  0  0  0  0  0  0
    5.1365    3.1787    0.0000 H   0  0  0  0  0  0  0  0  0  0  0  0
    5.2749    2.3937    0.0000 H   0  0  0  0  0  0  0  0  0  0  0  0
    6.5524    3.4984    0.0000 H   0  0  0  0  0  0  0  0  0  0  0  0
    6.4140    4.2833    0.0000 H   0  0  0  0  0  0  0  0  0  0  0  0
   13.1725   -5.5996    0.0000 H   0  0  0  0  0  0  0  0  0  0  0  0
   12.3823   -5.4954    0.0000 H   0  0  0  0  0  0  0  0  0  0  0  0
   13.0514   -7.0461    0.0000 H   0  0  0  0  0  0  0  0  0  0  0  0
   13.8416   -7.1503    0.0000 H   0  0  0  0  0  0  0  0  0  0  0  0
    6.2516    5.2041    0.0000 H   0  0  0  0  0  0  0  0  0  0  0  0
    6.1132    5.9891    0.0000 H   0  0  0  0  0  0  0  0  0  0  0  0
    4.5350    6.5902    0.0000 H   0  0  0  0  0  0  0  0  0  0  0  0
    4.6734    5.8052    0.0000 H   0  0  0  0  0  0  0  0  0  0  0  0
   14.7685   -7.2725    0.0000 H   0  0  0  0  0  0  0  0  0  0  0  0
   15.5588   -7.3767    0.0000 H   0  0  0  0  0  0  0  0  0  0  0  0
    5.0154    7.6948    0.0000 H   0  0  0  0  0  0  0  0  0  0  0  0
    6.0245    7.3275    0.0000 H   0  0  0  0  0  0  0  0  0  0  0  0
   16.6069   -6.0524    0.0000 H   0  0  0  0  0  0  0  0  0  0  0  0
   15.8167   -5.9482    0.0000 H   0  0  0  0  0  0  0  0  0  0  0  0
   17.5158   -6.8430    0.0000 H   0  0  0  0  0  0  0  0  0  0  0  0
   16.8619   -7.6948    0.0000 H   0  0  0  0  0  0  0  0  0  0  0  0
  1 46  1  0  0  0  0
  1 49  1  0  0  0  0
  2 48  1  0  0  0  0
  2 51  1  0  0  0  0
  3 50  1  0  0  0  0
  3 53  1  0  0  0  0
  4 52  1  0  0  0  0
  4 55  1  0  0  0  0
  5 13  1  0  0  0  0
  5 16  1  0  0  0  0
  5 39  1  0  0  0  0
  6 40  1  0  0  0  0
  6 41  1  0  0  0  0
  6 47  1  0  0  0  0
  7 54  1  0  0  0  0
  7 99  1  0  0  0  0
  7100  1  0  0  0  0
  8 56  1  0  0  0  0
  8103  1  0  0  0  0
  8104  1  0  0  0  0
  9 10  1  0  0  0  0
  9 11  1  0  0  0  0
  9 12  1  0  0  0  0
  9 13  1  0  0  0  0
 10 14  1  0  0  0  0
 10 15  1  0  0  0  0
 10 16  1  0  0  0  0
 11 17  1  0  0  0  0
 11 19  2  0  0  0  0
 12 18  1  0  0  0  0
 12 20  2  0  0  0  0
 13 57  1  0  0  0  0
 13 58  1  0  0  0  0
 14 21  1  0  0  0  0
 14 23  2  0  0  0  0
 15 22  1  0  0  0  0
 15 24  2  0  0  0  0
 16 59  1  0  0  0  0
 16 60  1  0  0  0  0
 17 18  1  0  0  0  0
 17 25  2  0  0  0  0
 18 26  2  0  0  0  0
 19 21  1  0  0  0  0
 19 29  1  0  0  0  0
 20 22  1  0  0  0  0
 20 30  1  0  0  0  0
 21 31  2  0  0  0  0
 22 32  2  0  0  0  0
 23 24  1  0  0  0  0
 23 37  1  0  0  0  0
 24 38  1  0  0  0  0
 25 27  1  0  0  0  0
 25 35  1  0  0  0  0
 26 28  1  0  0  0  0
 26 36  1  0  0  0  0
 27 28  1  0  0  0  0
 27 40  1  0  0  0  0
 27 61  1  0  0  0  0
 28 41  1  0  0  0  0
 28 62  1  0  0  0  0
 29 33  1  0  0  0  0
 29 35  2  0  0  0  0
 30 34  1  0  0  0  0
 30 36  2  0  0  0  0
 31 33  1  0  0  0  0
 31 42  1  0  0  0  0
 32 34  1  0  0  0  0
 32 43  1  0  0  0  0
 33 63  1  0  0  0  0
 33 64  1  0  0  0  0
 34 65  1  0  0  0  0
 34 66  1  0  0  0  0
 35 67  1  0  0  0  0
 36 68  1  0  0  0  0
 37 42  2  0  0  0  0
 37 44  1  0  0  0  0
 38 43  2  0  0  0  0
 38 45  1  0  0  0  0
 39 46  1  0  0  0  0
 39 69  1  0  0  0  0
 39 70  1  0  0  0  0
 40 71  1  0  0  0  0
 40 72  1  0  0  0  0
 41 73  1  0  0  0  0
 41 74  1  0  0  0  0
 42 75  1  0  0  0  0
 43 76  1  0  0  0  0
 44 45  2  0  0  0  0
 44 77  1  0  0  0  0
 45 78  1  0  0  0  0
 46 79  1  0  0  0  0
 46 80  1  0  0  0  0
 47 48  1  0  0  0  0
 47 81  1  0  0  0  0
 47 82  1  0  0  0  0
 48 83  1  0  0  0  0
 48 84  1  0  0  0  0
 49 50  1  0  0  0  0
 49 85  1  0  0  0  0
 49 86  1  0  0  0  0
 50 87  1  0  0  0  0
 50 88  1  0  0  0  0
 51 52  1  0  0  0  0
 51 89  1  0  0  0  0
 51 90  1  0  0  0  0
 52 91  1  0  0  0  0
 52 92  1  0  0  0  0
 53 54  1  0  0  0  0
 53 93  1  0  0  0  0
 53 94  1  0  0  0  0
 54 95  1  0  0  0  0
 54 96  1  0  0  0  0
 55 56  1  0  0  0  0
 55 97  1  0  0  0  0
 55 98  1  0  0  0  0
 56101  1  0  0  0  0
 56102  1  0  0  0  0
M  END
> <PUBCHEM_COMPOUND_CID>
513702
> <PUBCHEM_COMPOUND_CANONICALIZED>
1
> <PUBCHEM_CACTVS_COMPLEXITY>
1480
> <PUBCHEM_CACTVS_HBOND_ACCEPTOR>
8
> <PUBCHEM_CACTVS_HBOND_DONOR>
2
> <PUBCHEM_CACTVS_ROTATABLE_BOND>
16
> <PUBCHEM_CACTVS_SUBSKEYS>
AAADcfB/uAAAAAAAAAAAAAAAAAAAAePGDBAwYMGDAAAAAHjBVAAAHgAQAAAADwDhmAYwAMNABACAAiBCAAACAAAgAAAIiIAIAIgLICKAkRGHIAAgkACaiAcQgMAPwAACAAAQAACAAAQAACAAAQAACAAAAA==
> <PUBCHEM_IUPAC_OPENEYE_NAME>
2-[2-[2-[25-[2-[2-(2-aminoethoxy)ethoxy]ethyl]-4,25-diazatetradecacyclo[18.16.1.118,21.02,6.07,35.09,33.011,32.013,30.016,29.022,36.023,27.023,34.027,31.028,38]octatriaconta-1(36),7(35),8,11(32),12,14,16,18(38),20(37),21,28,30,33-tridecaen-4-yl]ethoxy]ethoxy]ethanamine
> <PUBCHEM_IUPAC_CAS_NAME>
2-[2-[2-[25-[2-[2-(2-aminoethoxy)ethoxy]ethyl]-4,25-diazatetradecacyclo[18.16.1.118,21.02,6.07,35.09,33.011,32.013,30.016,29.022,36.023,27.023,34.027,31.028,38]octatriaconta-1(36),7(35),8,11(32),12,14,16,18(38),20(37),21,28,30,33-tridecaen-4-yl]ethoxy]ethoxy]ethanamine
> <PUBCHEM_IUPAC_NAME_MARKUP>
2-[2-[2-[25-[2-[2-(2-aminoethoxy)ethoxy]ethyl]-4,25-diazatetradecacyclo[18.16.1.1<SUP>18,21</SUP>.0<SUP>2,6</SUP>.0<SUP>7,35</SUP>.0<SUP>9,33</SUP>.0<SUP>11,32</SUP>.0<SUP>13,30</SUP>.0<SUP>16,29</SUP>.0<SUP>22,36</SUP>.0<SUP>23,27</SUP>.0<SUP>23,34</SUP>.0<SUP>27,31</SUP>.0<SUP>28,38</SUP>]octatriaconta-1(36),7(35),8,11(32),12,14,16,18(38),20(37),21,28,30,33-tridecaen-4-yl]ethoxy]ethoxy]ethanamine
> <PUBCHEM_IUPAC_NAME>
2-[2-[2-[25-[2-[2-(2-aminoethoxy)ethoxy]ethyl]-4,25-diazatetradecacyclo[18.16.1.118,21.02,6.07,35.09,33.011,32.013,30.016,29.022,36.023,27.023,34.027,31.028,38]octatriaconta-1(36),7(35),8,11(32),12,14,16,18(38),20(37),21,28,30,33-tridecaen-4-yl]ethoxy]ethoxy]ethanamine
> <PUBCHEM_IUPAC_SYSTEMATIC_NAME>
2-[2-[2-[25-[2-[2-(2-azanylethoxy)ethoxy]ethyl]-4,25-diazatetradecacyclo[18.16.1.118,21.02,6.07,35.09,33.011,32.013,30.016,29.022,36.023,27.023,34.027,31.028,38]octatriaconta-1(36),7(35),8,11(32),12,14,16,18(38),20(37),21,28,30,33-tridecaen-4-yl]ethoxy]ethoxy]ethanamine
> <PUBCHEM_IUPAC_TRADITIONAL_NAME>
2-[2-[2-[4-[2-[2-(2-aminoethoxy)ethoxy]ethyl]-4,25-diazatetradecacyclo[18.16.1.118,21.02,6.07,35.09,33.011,32.013,30.016,29.022,36.023,27.023,34.027,31.028,38]octatriaconta-1(36),7(35),8,11(32),12,14,16,18(38),20(37),21,28,30,33-tridecaen-25-yl]ethoxy]ethoxy]ethylamine
> <PUBCHEM_IUPAC_INCHI>
InChI=1S/C48H48N4O4/c49-3-7-53-11-13-55-9-5-51-21-33-31-19-29-17-27-15-25-1-2-26-16-28-18-30-20-32(34(33)22-51)42-41(31)45-39(29)37(27)43-35(25)36(26)44-38(28)40(30)46(42)48(45)24-52(23-47(43,44)48)6-10-56-14-12-54-8-4-50/h1-2,15-16,19-20,33-34H,3-14,17-18,21-24,49-50H2
> <PUBCHEM_IUPAC_INCHIKEY>
DHRLHPPNZJJJNC-UHFFFAOYSA-N
> <PUBCHEM_XLOGP3_AA>
3.8
> <PUBCHEM_EXACT_MASS>
744.36755603
> <PUBCHEM_MOLECULAR_FORMULA>
C48H48N4O4
> <PUBCHEM_MOLECULAR_WEIGHT>
744.9
> <PUBCHEM_OPENEYE_CAN_SMILES>
C1C2C(CN1CCOCCOCCN)C3=C4C5=C2C=C6CC7=C8C6=C5C91C4=C2C(=C3)CC3=C2C2=C4C(=C3)C=CC(=C7)C4=C8C29CN(C1)CCOCCOCCN
> <PUBCHEM_OPENEYE_ISO_SMILES>
C1C2C(CN1CCOCCOCCN)C3=C4C5=C2C=C6CC7=C8C6=C5C91C4=C2C(=C3)CC3=C2C2=C4C(=C3)C=CC(=C7)C4=C8C29CN(C1)CCOCCOCCN
> <PUBCHEM_CACTVS_TPSA>
95.4
> <PUBCHEM_MONOISOTOPIC_WEIGHT>
744.36755603
> <PUBCHEM_TOTAL_CHARGE>
0
> <PUBCHEM_HEAVY_ATOM_COUNT>
56
> <PUBCHEM_ATOM_DEF_STEREO_COUNT>
0
> <PUBCHEM_ATOM_UDEF_STEREO_COUNT>
2
> <PUBCHEM_BOND_DEF_STEREO_COUNT>
0
> <PUBCHEM_BOND_UDEF_STEREO_COUNT>
0
> <PUBCHEM_ISOTOPIC_ATOM_COUNT>
0
> <PUBCHEM_COMPONENT_COUNT>
1
> <PUBCHEM_CACTVS_TAUTO_COUNT>
-1
> <PUBCHEM_COORDINATE_TYPE>
1
5
255
> <PUBCHEM_BONDANNOTATIONS>
11  17  8
11  19  8
12  18  8
12  20  8
14  21  8
14  23  8
15  22  8
15  24  8
17  18  8
17  25  8
18  26  8
19  21  8
19  29  8
20  22  8
20  30  8
21  31  8
22  32  8
23  24  8
23  37  8
24  38  8
25  35  8
26  36  8
27  40  3
28  41  3
29  35  8
30  36  8
31  42  8
32  43  8
37  42  8
37  44  8
38  43  8
38  45  8
44  45  8
$$$$
