513720
  -OEChem-10302200282D
 76 78  0     1  0  0  0  0  0999 V2000
   12.4133    3.8881    0.0000 S   0  0  0  0  0  0  0  0  0  0  0  0
   12.2071    4.8666    0.0000 O   0  0  0  0  0  0  0  0  0  0  0  0
   12.6195    2.9096    0.0000 O   0  0  0  0  0  0  0  0  0  0  0  0
   11.4813    1.0366    0.0000 O   0  0  0  0  0  0  0  0  0  0  0  0
   12.7705    2.1933    0.0000 O   0  0  0  0  0  0  0  0  0  0  0  0
    7.9244   -1.4831    0.0000 O   0  0  0  0  0  0  0  0  0  0  0  0
   11.4348    3.6819    0.0000 N   0  0  3  0  0  0  0  0  0  0  0  0
    7.5673    0.2117    0.0000 N   0  0  0  0  0  0  0  0  0  0  0  0
    6.2781   -0.9450    0.0000 N   0  0  0  0  0  0  0  0  0  0  0  0
    4.6783   -4.6618    0.0000 N   0  0  0  0  0  0  0  0  0  0  0  0
   11.1241    2.7314    0.0000 C   0  0  1  0  0  0  0  0  0  0  0  0
   10.7669    4.4262    0.0000 C   0  0  0  0  0  0  0  0  0  0  0  0
   10.1456    2.5252    0.0000 C   0  0  0  0  0  0  0  0  0  0  0  0
    9.7884    4.2200    0.0000 C   0  0  0  0  0  0  0  0  0  0  0  0
    9.8349    1.5747    0.0000 C   0  0  0  0  0  0  0  0  0  0  0  0
    8.8564    1.3684    0.0000 C   0  0  0  0  0  0  0  0  0  0  0  0
   11.7920    1.9871    0.0000 C   0  0  0  0  0  0  0  0  0  0  0  0
   13.3918    4.0944    0.0000 C   0  0  0  0  0  0  0  0  0  0  0  0
    9.1206    4.9643    0.0000 C   0  0  0  0  0  0  0  0  0  0  0  0
    9.4778    3.2695    0.0000 C   0  0  0  0  0  0  0  0  0  0  0  0
    8.5458    0.4179    0.0000 C   0  0  0  0  0  0  0  0  0  0  0  0
   14.0596    3.3500    0.0000 C   0  0  0  0  0  0  0  0  0  0  0  0
   13.7024    5.0449    0.0000 C   0  0  0  0  0  0  0  0  0  0  0  0
   15.0381    3.5563    0.0000 C   0  0  0  0  0  0  0  0  0  0  0  0
   14.6810    5.2511    0.0000 C   0  0  0  0  0  0  0  0  0  0  0  0
   15.3488    4.5068    0.0000 C   0  0  0  0  0  0  0  0  0  0  0  0
    4.9889   -2.1018    0.0000 C   0  0  0  0  0  0  0  0  0  0  0  0
    7.2566   -0.7388    0.0000 C   0  0  0  0  0  0  0  0  0  0  0  0
    4.6783   -3.0523    0.0000 C   0  0  0  0  0  0  0  0  0  0  0  0
    5.9674   -1.8956    0.0000 C   0  0  0  0  0  0  0  0  0  0  0  0
    3.7320   -3.3570    0.0000 C   0  0  0  0  0  0  0  0  0  0  0  0
    3.7320   -4.3570    0.0000 C   0  0  0  0  0  0  0  0  0  0  0  0
   16.3273    4.7130    0.0000 C   0  0  0  0  0  0  0  0  0  0  0  0
    5.2619   -3.8570    0.0000 C   0  0  0  0  0  0  0  0  0  0  0  0
    2.8660   -2.8570    0.0000 C   0  0  0  0  0  0  0  0  0  0  0  0
    2.8660   -4.8570    0.0000 C   0  0  0  0  0  0  0  0  0  0  0  0
    2.0000   -3.3570    0.0000 C   0  0  0  0  0  0  0  0  0  0  0  0
    2.0000   -4.3570    0.0000 C   0  0  0  0  0  0  0  0  0  0  0  0
   11.7308    2.8592    0.0000 H   0  0  0  0  0  0  0  0  0  0  0  0
   11.2933    4.7538    0.0000 H   0  0  0  0  0  0  0  0  0  0  0  0
   10.5357    5.0015    0.0000 H   0  0  0  0  0  0  0  0  0  0  0  0
   10.1250    3.1448    0.0000 H   0  0  0  0  0  0  0  0  0  0  0  0
    9.5318    2.6125    0.0000 H   0  0  0  0  0  0  0  0  0  0  0  0
    9.9810    4.8093    0.0000 H   0  0  0  0  0  0  0  0  0  0  0  0
    9.8555    0.9550    0.0000 H   0  0  0  0  0  0  0  0  0  0  0  0
   10.4488    1.4873    0.0000 H   0  0  0  0  0  0  0  0  0  0  0  0
    8.8359    1.9881    0.0000 H   0  0  0  0  0  0  0  0  0  0  0  0
    8.2426    1.4558    0.0000 H   0  0  0  0  0  0  0  0  0  0  0  0
    9.5820    5.3784    0.0000 H   0  0  0  0  0  0  0  0  0  0  0  0
    8.7065    5.4258    0.0000 H   0  0  0  0  0  0  0  0  0  0  0  0
    8.6591    4.5502    0.0000 H   0  0  0  0  0  0  0  0  0  0  0  0
    8.8884    3.4621    0.0000 H   0  0  0  0  0  0  0  0  0  0  0  0
    9.2852    2.6801    0.0000 H   0  0  0  0  0  0  0  0  0  0  0  0
   10.0671    3.0769    0.0000 H   0  0  0  0  0  0  0  0  0  0  0  0
    8.5663   -0.2017    0.0000 H   0  0  0  0  0  0  0  0  0  0  0  0
    9.1596    0.3306    0.0000 H   0  0  0  0  0  0  0  0  0  0  0  0
   13.8670    2.7607    0.0000 H   0  0  0  0  0  0  0  0  0  0  0  0
   13.2884    5.5063    0.0000 H   0  0  0  0  0  0  0  0  0  0  0  0
    7.1532    0.6732    0.0000 H   0  0  0  0  0  0  0  0  0  0  0  0
   11.8954    0.5751    0.0000 H   0  0  0  0  0  0  0  0  0  0  0  0
   15.4522    3.0948    0.0000 H   0  0  0  0  0  0  0  0  0  0  0  0
   14.8736    5.8404    0.0000 H   0  0  0  0  0  0  0  0  0  0  0  0
    4.9684   -1.4821    0.0000 H   0  0  0  0  0  0  0  0  0  0  0  0
    4.3751   -2.0144    0.0000 H   0  0  0  0  0  0  0  0  0  0  0  0
    5.9880   -2.5152    0.0000 H   0  0  0  0  0  0  0  0  0  0  0  0
    6.5812   -1.9829    0.0000 H   0  0  0  0  0  0  0  0  0  0  0  0
    5.8640   -0.4836    0.0000 H   0  0  0  0  0  0  0  0  0  0  0  0
   16.4552    4.1063    0.0000 H   0  0  0  0  0  0  0  0  0  0  0  0
   16.9340    4.8409    0.0000 H   0  0  0  0  0  0  0  0  0  0  0  0
   16.1994    5.3197    0.0000 H   0  0  0  0  0  0  0  0  0  0  0  0
    5.8819   -3.8570    0.0000 H   0  0  0  0  0  0  0  0  0  0  0  0
    4.8709   -5.2511    0.0000 H   0  0  0  0  0  0  0  0  0  0  0  0
    2.8660   -2.2370    0.0000 H   0  0  0  0  0  0  0  0  0  0  0  0
    2.8660   -5.4770    0.0000 H   0  0  0  0  0  0  0  0  0  0  0  0
    1.4631   -3.0470    0.0000 H   0  0  0  0  0  0  0  0  0  0  0  0
    1.4631   -4.6670    0.0000 H   0  0  0  0  0  0  0  0  0  0  0  0
  1  2  2  0  0  0  0
  1  3  2  0  0  0  0
  1  7  1  0  0  0  0
  1 18  1  0  0  0  0
  4 17  1  0  0  0  0
  4 60  1  0  0  0  0
  5 17  2  0  0  0  0
  6 28  2  0  0  0  0
 11  7  1  6  0  0  0
  7 12  1  0  0  0  0
  8 21  1  0  0  0  0
  8 28  1  0  0  0  0
  8 59  1  0  0  0  0
  9 28  1  0  0  0  0
  9 30  1  0  0  0  0
  9 67  1  0  0  0  0
 10 32  1  0  0  0  0
 10 34  1  0  0  0  0
 10 72  1  0  0  0  0
 11 13  1  0  0  0  0
 11 17  1  0  0  0  0
 11 39  1  0  0  0  0
 12 14  1  0  0  0  0
 12 40  1  0  0  0  0
 12 41  1  0  0  0  0
 13 15  1  0  0  0  0
 13 42  1  0  0  0  0
 13 43  1  0  0  0  0
 14 19  1  0  0  0  0
 14 20  1  0  0  0  0
 14 44  1  0  0  0  0
 15 16  1  0  0  0  0
 15 45  1  0  0  0  0
 15 46  1  0  0  0  0
 16 21  1  0  0  0  0
 16 47  1  0  0  0  0
 16 48  1  0  0  0  0
 18 22  2  0  0  0  0
 18 23  1  0  0  0  0
 19 49  1  0  0  0  0
 19 50  1  0  0  0  0
 19 51  1  0  0  0  0
 20 52  1  0  0  0  0
 20 53  1  0  0  0  0
 20 54  1  0  0  0  0
 21 55  1  0  0  0  0
 21 56  1  0  0  0  0
 22 24  1  0  0  0  0
 22 57  1  0  0  0  0
 23 25  2  0  0  0  0
 23 58  1  0  0  0  0
 24 26  2  0  0  0  0
 24 61  1  0  0  0  0
 25 26  1  0  0  0  0
 25 62  1  0  0  0  0
 26 33  1  0  0  0  0
 27 29  1  0  0  0  0
 27 30  1  0  0  0  0
 27 63  1  0  0  0  0
 27 64  1  0  0  0  0
 29 31  1  0  0  0  0
 29 34  2  0  0  0  0
 30 65  1  0  0  0  0
 30 66  1  0  0  0  0
 31 32  1  0  0  0  0
 31 35  2  0  0  0  0
 32 36  2  0  0  0  0
 33 68  1  0  0  0  0
 33 69  1  0  0  0  0
 33 70  1  0  0  0  0
 34 71  1  0  0  0  0
 35 37  1  0  0  0  0
 35 73  1  0  0  0  0
 36 38  1  0  0  0  0
 36 74  1  0  0  0  0
 37 38  2  0  0  0  0
 37 75  1  0  0  0  0
 38 76  1  0  0  0  0
M  END
> <PUBCHEM_COMPOUND_CID>
513720
> <PUBCHEM_COMPOUND_CANONICALIZED>
1
> <PUBCHEM_CACTVS_COMPLEXITY>
854
> <PUBCHEM_CACTVS_HBOND_ACCEPTOR>
6
> <PUBCHEM_CACTVS_HBOND_DONOR>
4
> <PUBCHEM_CACTVS_ROTATABLE_BOND>
14
> <PUBCHEM_CACTVS_SUBSKEYS>
AAADcfB7uABAAAAAAAAAAAAAAAAAAWAAAAAwYAAAAAAAAFgB9AAAHgQQSAAADSjB3gQ/yfLJkgKoAzT3XHDCgDAxAiAI2bm4ZJiKIPLAkbGEYAhslgLYyAeYyMAOkAAAAAACAAAgAAAAAAQAAAAAAAAAAA==
> <PUBCHEM_IUPAC_OPENEYE_NAME>
(2S)-6-[2-(1H-indol-3-yl)ethylcarbamoylamino]-2-[isobutyl(p-tolylsulfonyl)amino]hexanoic acid
> <PUBCHEM_IUPAC_CAS_NAME>
(2S)-6-[[[2-(1H-indol-3-yl)ethylamino]-oxomethyl]amino]-2-[(4-methylphenyl)sulfonyl-(2-methylpropyl)amino]hexanoic acid
> <PUBCHEM_IUPAC_NAME_MARKUP>
(2<I>S</I>)-6-[2-(1<I>H</I>-indol-3-yl)ethylcarbamoylamino]-2-[(4-methylphenyl)sulfonyl-(2-methylpropyl)amino]hexanoic acid
> <PUBCHEM_IUPAC_NAME>
(2S)-6-[2-(1H-indol-3-yl)ethylcarbamoylamino]-2-[(4-methylphenyl)sulfonyl-(2-methylpropyl)amino]hexanoic acid
> <PUBCHEM_IUPAC_SYSTEMATIC_NAME>
(2S)-6-[2-(1H-indol-3-yl)ethylcarbamoylamino]-2-[(4-methylphenyl)sulfonyl-(2-methylpropyl)amino]hexanoic acid
> <PUBCHEM_IUPAC_TRADITIONAL_NAME>
(2S)-6-[2-(1H-indol-3-yl)ethylcarbamoylamino]-2-[isobutyl(tosyl)amino]hexanoic acid
> <PUBCHEM_IUPAC_INCHI>
InChI=1S/C28H38N4O5S/c1-20(2)19-32(38(36,37)23-13-11-21(3)12-14-23)26(27(33)34)10-6-7-16-29-28(35)30-17-15-22-18-31-25-9-5-4-8-24(22)25/h4-5,8-9,11-14,18,20,26,31H,6-7,10,15-17,19H2,1-3H3,(H,33,34)(H2,29,30,35)/t26-/m0/s1
> <PUBCHEM_IUPAC_INCHIKEY>
PJXUPPRGVWAPQD-SANMLTNESA-N
> <PUBCHEM_XLOGP3_AA>
4.7
> <PUBCHEM_EXACT_MASS>
542.25629150
> <PUBCHEM_MOLECULAR_FORMULA>
C28H38N4O5S
> <PUBCHEM_MOLECULAR_WEIGHT>
542.7
> <PUBCHEM_OPENEYE_CAN_SMILES>
CC1=CC=C(C=C1)S(=O)(=O)N(CC(C)C)C(CCCCNC(=O)NCCC2=CNC3=CC=CC=C32)C(=O)O
> <PUBCHEM_OPENEYE_ISO_SMILES>
CC1=CC=C(C=C1)S(=O)(=O)N(CC(C)C)[C@@H](CCCCNC(=O)NCCC2=CNC3=CC=CC=C32)C(=O)O
> <PUBCHEM_CACTVS_TPSA>
140
> <PUBCHEM_MONOISOTOPIC_WEIGHT>
542.25629150
> <PUBCHEM_TOTAL_CHARGE>
0
> <PUBCHEM_HEAVY_ATOM_COUNT>
38
> <PUBCHEM_ATOM_DEF_STEREO_COUNT>
1
> <PUBCHEM_ATOM_UDEF_STEREO_COUNT>
0
> <PUBCHEM_BOND_DEF_STEREO_COUNT>
0
> <PUBCHEM_BOND_UDEF_STEREO_COUNT>
0
> <PUBCHEM_ISOTOPIC_ATOM_COUNT>
0
> <PUBCHEM_COMPONENT_COUNT>
1
> <PUBCHEM_CACTVS_TAUTO_COUNT>
-1
> <PUBCHEM_COORDINATE_TYPE>
1
5
255
> <PUBCHEM_BONDANNOTATIONS>
10  32  8
10  34  8
18  22  8
18  23  8
22  24  8
23  25  8
24  26  8
25  26  8
29  31  8
29  34  8
31  32  8
31  35  8
32  36  8
35  37  8
36  38  8
37  38  8
11  7  6
$$$$
