513708
  -OEChem-10302200282D
112125  0     1  0  0  0  0  0999 V2000
    5.6697   -0.9807    0.0000 O   0  0  0  0  0  0  0  0  0  0  0  0
    4.5239    2.9620    0.0000 O   0  0  0  0  0  0  0  0  0  0  0  0
    7.1832    1.1893    0.0000 O   0  0  0  0  0  0  0  0  0  0  0  0
    3.8420    5.5184    0.0000 O   0  0  0  0  0  0  0  0  0  0  0  0
    5.0698   -3.5576    0.0000 N   0  3  3  0  0  0  0  0  0  0  0  0
    4.2084    0.3351    0.0000 N   0  3  3  0  0  0  0  0  0  0  0  0
    7.7832    3.7662    0.0000 N   0  0  0  0  0  0  0  0  0  0  0  0
    4.1576    8.1452    0.0000 N   0  0  0  0  0  0  0  0  0  0  0  0
    4.3628   -5.7820    0.0000 C   0  0  3  0  0  0  0  0  0  0  0  0
    3.4968   -5.2820    0.0000 C   0  0  3  0  0  0  0  0  0  0  0  0
    5.6110   -4.9542    0.0000 C   0  0  0  0  0  0  0  0  0  0  0  0
    3.5897   -3.7871    0.0000 C   0  0  0  0  0  0  0  0  0  0  0  0
    5.2289   -5.2820    0.0000 C   0  0  0  0  0  0  0  0  0  0  0  0
    3.4968   -4.2820    0.0000 C   0  0  0  0  0  0  0  0  0  0  0  0
    4.3789   -6.8235    0.0000 C   0  0  0  0  0  0  0  0  0  0  0  0
    2.5868   -5.7889    0.0000 C   0  0  0  0  0  0  0  0  0  0  0  0
    5.2289   -4.2820    0.0000 C   0  0  0  0  0  0  0  0  0  0  0  0
    4.3628   -3.7820    0.0000 C   0  0  0  0  0  0  0  0  0  0  0  0
    6.1228   -5.8167    0.0000 C   0  0  0  0  0  0  0  0  0  0  0  0
    2.5868   -3.7752    0.0000 C   0  0  0  0  0  0  0  0  0  0  0  0
    5.3669   -6.9307    0.0000 C   0  0  0  0  0  0  0  0  0  0  0  0
    2.0000   -4.5773    0.0000 C   0  0  0  0  0  0  0  0  0  0  0  0
    4.3789   -2.7405    0.0000 C   0  0  0  0  0  0  0  0  0  0  0  0
    6.1228   -3.7474    0.0000 C   0  0  0  0  0  0  0  0  0  0  0  0
    4.9652   -2.5630    0.0000 C   0  0  0  0  0  0  0  0  0  0  0  0
    3.4808   -7.3513    0.0000 C   0  0  0  0  0  0  0  0  0  0  0  0
    5.7216   -2.8381    0.0000 C   0  0  0  0  0  0  0  0  0  0  0  0
    3.9758   -1.3081    0.0000 C   0  0  3  0  0  0  0  0  0  0  0  0
    2.5788   -6.8305    0.0000 C   0  0  0  0  0  0  0  0  0  0  0  0
    3.4808   -2.2128    0.0000 C   0  0  0  0  0  0  0  0  0  0  0  0
    7.0289   -5.3028    0.0000 C   0  0  0  0  0  0  0  0  0  0  0  0
    6.1856   -3.2794    0.0000 C   0  0  0  0  0  0  0  0  0  0  0  0
    4.9912   -1.1283    0.0000 C   0  0  3  0  0  0  0  0  0  0  0  0
    7.0289   -4.2612    0.0000 C   0  0  0  0  0  0  0  0  0  0  0  0
    6.5264   -2.1677    0.0000 C   0  0  0  0  0  0  0  0  0  0  0  0
    2.5788   -2.7336    0.0000 C   0  0  0  0  0  0  0  0  0  0  0  0
    6.2365   -7.4848    0.0000 C   0  0  0  0  0  0  0  0  0  0  0  0
    3.4962   -0.4022    0.0000 C   0  0  0  0  0  0  0  0  0  0  0  0
    5.1304   -0.1127    0.0000 C   0  0  0  0  0  0  0  0  0  0  0  0
    7.5648   -6.1838    0.0000 C   0  0  0  0  0  0  0  0  0  0  0  0
    7.7650   -3.5161    0.0000 C   0  0  0  0  0  0  0  0  0  0  0  0
    8.3285   -5.4755    0.0000 C   0  0  0  0  0  0  0  0  0  0  0  0
    3.7581   -8.3614    0.0000 C   0  0  0  0  0  0  0  0  0  0  0  0
    7.5206   -2.4975    0.0000 C   0  0  0  0  0  0  0  0  0  0  0  0
    5.7742   -1.9753    0.0000 C   0  0  0  0  0  0  0  0  0  0  0  0
    7.2129   -7.1530    0.0000 C   0  0  0  0  0  0  0  0  0  0  0  0
    4.7624   -8.6590    0.0000 C   0  0  0  0  0  0  0  0  0  0  0  0
    4.6460    1.2343    0.0000 C   0  0  0  0  0  0  0  0  0  0  0  0
    3.4885    1.0293    0.0000 C   0  0  0  0  0  0  0  0  0  0  0  0
    4.0862    2.0629    0.0000 C   0  0  0  0  0  0  0  0  0  0  0  0
    6.4787   -0.3930    0.0000 C   0  0  0  0  0  0  0  0  0  0  0  0
    6.3742    0.6016    0.0000 C   0  0  0  0  0  0  0  0  0  0  0  0
    3.9641    3.7906    0.0000 C   0  0  0  0  0  0  0  0  0  0  0  0
    4.4018    4.6898    0.0000 C   0  0  0  0  0  0  0  0  0  0  0  0
    7.0787    2.1839    0.0000 C   0  0  0  0  0  0  0  0  0  0  0  0
    7.8877    2.7716    0.0000 C   0  0  0  0  0  0  0  0  0  0  0  0
    4.2797    6.4175    0.0000 C   0  0  0  0  0  0  0  0  0  0  0  0
    3.7199    7.2461    0.0000 C   0  0  0  0  0  0  0  0  0  0  0  0
    5.9157   -5.4941    0.0000 H   0  0  0  0  0  0  0  0  0  0  0  0
    6.1715   -4.6891    0.0000 H   0  0  0  0  0  0  0  0  0  0  0  0
    3.5389   -3.1692    0.0000 H   0  0  0  0  0  0  0  0  0  0  0  0
    2.9697   -3.7933    0.0000 H   0  0  0  0  0  0  0  0  0  0  0  0
    1.5655   -4.1350    0.0000 H   0  0  0  0  0  0  0  0  0  0  0  0
    1.4932   -4.9343    0.0000 H   0  0  0  0  0  0  0  0  0  0  0  0
    4.6934   -2.0058    0.0000 H   0  0  0  0  0  0  0  0  0  0  0  0
    4.3692   -2.7340    0.0000 H   0  0  0  0  0  0  0  0  0  0  0  0
    3.3558   -1.3039    0.0000 H   0  0  0  0  0  0  0  0  0  0  0  0
    2.0406   -7.1384    0.0000 H   0  0  0  0  0  0  0  0  0  0  0  0
    6.3356   -3.8810    0.0000 H   0  0  0  0  0  0  0  0  0  0  0  0
    6.7872   -3.1294    0.0000 H   0  0  0  0  0  0  0  0  0  0  0  0
    6.0356   -2.6778    0.0000 H   0  0  0  0  0  0  0  0  0  0  0  0
    5.5573   -0.8757    0.0000 H   0  0  0  0  0  0  0  0  0  0  0  0
    2.0406   -2.4257    0.0000 H   0  0  0  0  0  0  0  0  0  0  0  0
    3.0980    0.0731    0.0000 H   0  0  0  0  0  0  0  0  0  0  0  0
    2.9818   -0.7482    0.0000 H   0  0  0  0  0  0  0  0  0  0  0  0
    5.7324   -0.2611    0.0000 H   0  0  0  0  0  0  0  0  0  0  0  0
    5.3412    0.4703    0.0000 H   0  0  0  0  0  0  0  0  0  0  0  0
    8.6744   -5.9901    0.0000 H   0  0  0  0  0  0  0  0  0  0  0  0
    8.8905   -5.2137    0.0000 H   0  0  0  0  0  0  0  0  0  0  0  0
    3.3153   -8.7954    0.0000 H   0  0  0  0  0  0  0  0  0  0  0  0
    7.9772   -2.0781    0.0000 H   0  0  0  0  0  0  0  0  0  0  0  0
    6.0460   -2.5325    0.0000 H   0  0  0  0  0  0  0  0  0  0  0  0
    6.3702   -1.8044    0.0000 H   0  0  0  0  0  0  0  0  0  0  0  0
    7.6467   -7.5960    0.0000 H   0  0  0  0  0  0  0  0  0  0  0  0
    4.8809   -9.2675    0.0000 H   0  0  0  0  0  0  0  0  0  0  0  0
    5.1479    0.8702    0.0000 H   0  0  0  0  0  0  0  0  0  0  0  0
    5.0917    1.6653    0.0000 H   0  0  0  0  0  0  0  0  0  0  0  0
    3.9188    1.4756    0.0000 H   0  0  0  0  0  0  0  0  0  0  0  0
    3.0422    1.4596    0.0000 H   0  0  0  0  0  0  0  0  0  0  0  0
    3.0581    0.5829    0.0000 H   0  0  0  0  0  0  0  0  0  0  0  0
    3.5844    2.4269    0.0000 H   0  0  0  0  0  0  0  0  0  0  0  0
    3.6406    1.6319    0.0000 H   0  0  0  0  0  0  0  0  0  0  0  0
    6.7505   -0.9502    0.0000 H   0  0  0  0  0  0  0  0  0  0  0  0
    7.0747   -0.2221    0.0000 H   0  0  0  0  0  0  0  0  0  0  0  0
    6.1024    1.1588    0.0000 H   0  0  0  0  0  0  0  0  0  0  0  0
    5.7782    0.4307    0.0000 H   0  0  0  0  0  0  0  0  0  0  0  0
    3.4623    4.1547    0.0000 H   0  0  0  0  0  0  0  0  0  0  0  0
    3.5184    3.3596    0.0000 H   0  0  0  0  0  0  0  0  0  0  0  0
    4.9037    4.3257    0.0000 H   0  0  0  0  0  0  0  0  0  0  0  0
    4.8475    5.1208    0.0000 H   0  0  0  0  0  0  0  0  0  0  0  0
    6.8069    2.7411    0.0000 H   0  0  0  0  0  0  0  0  0  0  0  0
    6.4827    2.0130    0.0000 H   0  0  0  0  0  0  0  0  0  0  0  0
    8.1595    2.2144    0.0000 H   0  0  0  0  0  0  0  0  0  0  0  0
    8.4837    2.9426    0.0000 H   0  0  0  0  0  0  0  0  0  0  0  0
    4.7816    6.0534    0.0000 H   0  0  0  0  0  0  0  0  0  0  0  0
    4.7254    6.8485    0.0000 H   0  0  0  0  0  0  0  0  0  0  0  0
    8.2848    4.1306    0.0000 H   0  0  0  0  0  0  0  0  0  0  0  0
    7.2168    4.0184    0.0000 H   0  0  0  0  0  0  0  0  0  0  0  0
    3.2180    7.6102    0.0000 H   0  0  0  0  0  0  0  0  0  0  0  0
    3.2742    6.8151    0.0000 H   0  0  0  0  0  0  0  0  0  0  0  0
    3.8105    8.6590    0.0000 H   0  0  0  0  0  0  0  0  0  0  0  0
    4.7760    8.1889    0.0000 H   0  0  0  0  0  0  0  0  0  0  0  0
  1 45  1  0  0  0  0
  1 51  1  0  0  0  0
  2 50  1  0  0  0  0
  2 53  1  0  0  0  0
  3 52  1  0  0  0  0
  3 55  1  0  0  0  0
  4 54  1  0  0  0  0
  4 57  1  0  0  0  0
  5 11  1  0  0  0  0
  5 12  1  0  0  0  0
  5 25  1  0  0  0  0
  5 32  1  0  0  0  0
  6 38  1  0  0  0  0
  6 39  1  0  0  0  0
  6 48  1  0  0  0  0
  6 49  1  0  0  0  0
  7 56  1  0  0  0  0
  7107  1  0  0  0  0
  7108  1  0  0  0  0
  8 58  1  0  0  0  0
  8111  1  0  0  0  0
  8112  1  0  0  0  0
  9 10  1  0  0  0  0
  9 11  1  0  0  0  0
  9 13  1  0  0  0  0
  9 15  1  0  0  0  0
 10 12  1  0  0  0  0
 10 14  1  0  0  0  0
 10 16  1  0  0  0  0
 11 59  1  0  0  0  0
 11 60  1  0  0  0  0
 12 61  1  0  0  0  0
 12 62  1  0  0  0  0
 13 17  2  0  0  0  0
 13 19  1  0  0  0  0
 14 18  2  0  0  0  0
 14 20  1  0  0  0  0
 15 21  1  0  0  0  0
 15 26  2  0  0  0  0
 16 22  1  0  0  0  0
 16 29  2  0  0  0  0
 17 18  1  0  0  0  0
 17 24  1  0  0  0  0
 18 23  1  0  0  0  0
 19 21  2  0  0  0  0
 19 31  1  0  0  0  0
 20 22  1  0  0  0  0
 20 36  2  0  0  0  0
 21 37  1  0  0  0  0
 22 63  1  0  0  0  0
 22 64  1  0  0  0  0
 23 27  1  0  0  0  0
 23 30  2  0  0  0  0
 24 27  1  0  0  0  0
 24 34  2  0  0  0  0
 25 45  1  0  0  0  0
 25 65  1  0  0  0  0
 25 66  1  0  0  0  0
 26 29  1  0  0  0  0
 26 43  1  0  0  0  0
 27 35  2  0  0  0  0
 28 30  1  0  0  0  0
 28 33  1  0  0  0  0
 28 38  1  0  0  0  0
 28 67  1  0  0  0  0
 29 68  1  0  0  0  0
 30 36  1  0  0  0  0
 31 34  1  0  0  0  0
 31 40  2  0  0  0  0
 32 69  1  0  0  0  0
 32 70  1  0  0  0  0
 32 71  1  0  0  0  0
 33 35  1  0  0  0  0
 33 39  1  0  0  0  0
 33 72  1  0  0  0  0
 34 41  1  0  0  0  0
 35 44  1  0  0  0  0
 36 73  1  0  0  0  0
 37 46  2  0  0  0  0
 37 47  1  0  0  0  0
 38 74  1  0  0  0  0
 38 75  1  0  0  0  0
 39 76  1  0  0  0  0
 39 77  1  0  0  0  0
 40 42  1  0  0  0  0
 40 46  1  0  0  0  0
 41 42  1  0  0  0  0
 41 44  2  0  0  0  0
 42 78  1  0  0  0  0
 42 79  1  0  0  0  0
 43 47  2  0  0  0  0
 43 80  1  0  0  0  0
 44 81  1  0  0  0  0
 45 82  1  0  0  0  0
 45 83  1  0  0  0  0
 46 84  1  0  0  0  0
 47 85  1  0  0  0  0
 48 50  1  0  0  0  0
 48 86  1  0  0  0  0
 48 87  1  0  0  0  0
 49 88  1  0  0  0  0
 49 89  1  0  0  0  0
 49 90  1  0  0  0  0
 50 91  1  0  0  0  0
 50 92  1  0  0  0  0
 51 52  1  0  0  0  0
 51 93  1  0  0  0  0
 51 94  1  0  0  0  0
 52 95  1  0  0  0  0
 52 96  1  0  0  0  0
 53 54  1  0  0  0  0
 53 97  1  0  0  0  0
 53 98  1  0  0  0  0
 54 99  1  0  0  0  0
 54100  1  0  0  0  0
 55 56  1  0  0  0  0
 55101  1  0  0  0  0
 55102  1  0  0  0  0
 56103  1  0  0  0  0
 56104  1  0  0  0  0
 57 58  1  0  0  0  0
 57105  1  0  0  0  0
 57106  1  0  0  0  0
 58109  1  0  0  0  0
 58110  1  0  0  0  0
M  CHG  2   5   1   6   1
M  END
> <PUBCHEM_COMPOUND_CID>
513708
> <PUBCHEM_COMPOUND_CANONICALIZED>
1
> <PUBCHEM_CACTVS_COMPLEXITY>
1730
> <PUBCHEM_CACTVS_HBOND_ACCEPTOR>
6
> <PUBCHEM_CACTVS_HBOND_DONOR>
2
> <PUBCHEM_CACTVS_ROTATABLE_BOND>
16
> <PUBCHEM_CACTVS_SUBSKEYS>
AAADcfB/uAAAAAAAAAAAAAAAAAAAAePGDBAwYMGDAAAAAHjBVAAAHgAQAAAADwDhmAYyAMNABACAAiBCAAACAAAgAAAIiIAIAIgLICKAkRGHIAAgkACaiAcQgMAPwAACAAAQAACAAAQAACAAAQAACAAAAA==
> <PUBCHEM_IUPAC_OPENEYE_NAME>
2-[2-[2-[30-[2-[2-(2-aminoethoxy)ethoxy]ethyl]-4,30-dimethyl-4,30-diazoniatetradecacyclo[18.16.1.118,21.02,6.07,35.09,33.011,32.013,27.016,26.022,36.023,34.024,28.028,32.025,38]octatriaconta-1(36),7(35),8,11,13(27),14,16,18(38),20(37),21,23,25,33-tridecaen-4-yl]ethoxy]ethoxy]ethanamine
> <PUBCHEM_IUPAC_CAS_NAME>
2-[2-[2-[30-[2-[2-(2-aminoethoxy)ethoxy]ethyl]-4,30-dimethyl-4,30-diazoniatetradecacyclo[18.16.1.118,21.02,6.07,35.09,33.011,32.013,27.016,26.022,36.023,34.024,28.028,32.025,38]octatriaconta-1(36),7(35),8,11,13(27),14,16,18(38),20(37),21,23,25,33-tridecaen-4-yl]ethoxy]ethoxy]ethanamine
> <PUBCHEM_IUPAC_NAME_MARKUP>
2-[2-[2-[30-[2-[2-(2-aminoethoxy)ethoxy]ethyl]-4,30-dimethyl-4,30-diazoniatetradecacyclo[18.16.1.1<SUP>18,21</SUP>.0<SUP>2,6</SUP>.0<SUP>7,35</SUP>.0<SUP>9,33</SUP>.0<SUP>11,32</SUP>.0<SUP>13,27</SUP>.0<SUP>16,26</SUP>.0<SUP>22,36</SUP>.0<SUP>23,34</SUP>.0<SUP>24,28</SUP>.0<SUP>28,32</SUP>.0<SUP>25,38</SUP>]octatriaconta-1(36),7(35),8,11,13(27),14,16,18(38),20(37),21,23,25,33-tridecaen-4-yl]ethoxy]ethoxy]ethanamine
> <PUBCHEM_IUPAC_NAME>
2-[2-[2-[30-[2-[2-(2-aminoethoxy)ethoxy]ethyl]-4,30-dimethyl-4,30-diazoniatetradecacyclo[18.16.1.118,21.02,6.07,35.09,33.011,32.013,27.016,26.022,36.023,34.024,28.028,32.025,38]octatriaconta-1(36),7(35),8,11,13(27),14,16,18(38),20(37),21,23,25,33-tridecaen-4-yl]ethoxy]ethoxy]ethanamine
> <PUBCHEM_IUPAC_SYSTEMATIC_NAME>
2-[2-[2-[30-[2-[2-(2-azanylethoxy)ethoxy]ethyl]-4,30-dimethyl-4,30-diazoniatetradecacyclo[18.16.1.118,21.02,6.07,35.09,33.011,32.013,27.016,26.022,36.023,34.024,28.028,32.025,38]octatriaconta-1(36),7(35),8,11,13(27),14,16,18(38),20(37),21,23,25,33-tridecaen-4-yl]ethoxy]ethoxy]ethanamine
> <PUBCHEM_IUPAC_TRADITIONAL_NAME>
2-[2-[2-[4-[2-[2-(2-aminoethoxy)ethoxy]ethyl]-4,30-dimethyl-4,30-diazoniatetradecacyclo[18.16.1.118,21.02,6.07,35.09,33.011,32.013,27.016,26.022,36.023,34.024,28.028,32.025,38]octatriaconta-1(36),7(35),8,11,13(27),14,16,18(38),20(37),21,23,25,33-tridecaen-30-yl]ethoxy]ethoxy]ethylamine
> <PUBCHEM_IUPAC_INCHI>
InChI=1S/C50H54N4O4/c1-53(7-11-57-15-13-55-9-5-51)23-35-33-21-30-18-29-17-27-3-4-28-19-32-20-31-22-34(36(35)24-53)41-40(33)42-37(30)38(29)43-39(27)46(28)50-26-54(2,8-12-58-16-14-56-10-6-52)25-49(32,50)47(31)44(41)45(42)48(43)50/h3-4,17,19,21-22,35-36H,5-16,18,20,23-26,51-52H2,1-2H3/q+2
> <PUBCHEM_IUPAC_INCHIKEY>
FLQTUVFLQNFQAG-UHFFFAOYSA-N
> <PUBCHEM_XLOGP3_AA>
3.8
> <PUBCHEM_EXACT_MASS>
774.41450622
> <PUBCHEM_MOLECULAR_FORMULA>
C50H54N4O4+2
> <PUBCHEM_MOLECULAR_WEIGHT>
775.0
> <PUBCHEM_OPENEYE_CAN_SMILES>
C[N+]1(CC2C(C1)C3=C4C5=C2C=C6CC7=CC8=C9C1=C2C%10=C(CC(=C3)C%10=C4C3=C2C92C7(C6=C53)C[N+](C2)(C)CCOCCOCCN)C=C1C=C8)CCOCCOCCN
> <PUBCHEM_OPENEYE_ISO_SMILES>
C[N+]1(CC2C(C1)C3=C4C5=C2C=C6CC7=CC8=C9C1=C2C%10=C(CC(=C3)C%10=C4C3=C2C92C7(C6=C53)C[N+](C2)(C)CCOCCOCCN)C=C1C=C8)CCOCCOCCN
> <PUBCHEM_CACTVS_TPSA>
89
> <PUBCHEM_MONOISOTOPIC_WEIGHT>
774.41450622
> <PUBCHEM_TOTAL_CHARGE>
2
> <PUBCHEM_HEAVY_ATOM_COUNT>
58
> <PUBCHEM_ATOM_DEF_STEREO_COUNT>
0
> <PUBCHEM_ATOM_UDEF_STEREO_COUNT>
6
> <PUBCHEM_BOND_DEF_STEREO_COUNT>
0
> <PUBCHEM_BOND_UDEF_STEREO_COUNT>
0
> <PUBCHEM_ISOTOPIC_ATOM_COUNT>
0
> <PUBCHEM_COMPONENT_COUNT>
1
> <PUBCHEM_CACTVS_TAUTO_COUNT>
-1
> <PUBCHEM_COORDINATE_TYPE>
1
5
255
> <PUBCHEM_BONDANNOTATIONS>
10  12  3
13  17  8
13  19  8
14  18  8
14  20  8
15  21  8
15  26  8
17  24  8
18  23  8
19  21  8
19  31  8
20  36  8
21  37  8
23  30  8
24  27  8
24  34  8
26  43  8
27  35  8
28  38  3
30  36  8
31  34  8
31  40  8
33  39  3
34  41  8
35  44  8
37  46  8
37  47  8
40  46  8
41  44  8
43  47  8
5  32  3
6  49  3
9  11  3
$$$$
