513706
  -OEChem-10302200282D
112125  0     1  0  0  0  0  0999 V2000
    5.5862   -3.6511    0.0000 O   0  0  0  0  0  0  0  0  0  0  0  0
   13.4363    5.9202    0.0000 O   0  0  0  0  0  0  0  0  0  0  0  0
    3.6685   -5.4740    0.0000 O   0  0  0  0  0  0  0  0  0  0  0  0
   16.0522    6.3160    0.0000 O   0  0  0  0  0  0  0  0  0  0  0  0
    6.6903   -1.2468    0.0000 N   0  3  3  0  0  0  0  0  0  0  0  0
   11.1540    4.5817    0.0000 N   0  3  3  0  0  0  0  0  0  0  0  0
    2.5644   -7.8783    0.0000 N   0  0  0  0  0  0  0  0  0  0  0  0
   18.3345    7.6544    0.0000 N   0  0  0  0  0  0  0  0  0  0  0  0
    6.3319    0.3910    0.0000 C   0  0  3  0  0  0  0  0  0  0  0  0
    5.4339   -0.1368    0.0000 C   0  0  3  0  0  0  0  0  0  0  0  0
    7.1049   -0.2980    0.0000 C   0  0  0  0  0  0  0  0  0  0  0  0
    6.3158    1.4325    0.0000 C   0  0  0  0  0  0  0  0  0  0  0  0
    5.6596   -1.1474    0.0000 C   0  0  0  0  0  0  0  0  0  0  0  0
    7.3199    0.2838    0.0000 C   0  0  0  0  0  0  0  0  0  0  0  0
    7.1819    1.9325    0.0000 C   0  0  0  0  0  0  0  0  0  0  0  0
    5.4498    1.9325    0.0000 C   0  0  0  0  0  0  0  0  0  0  0  0
    8.0758    1.3978    0.0000 C   0  0  0  0  0  0  0  0  0  0  0  0
    4.5318    0.3840    0.0000 C   0  0  0  0  0  0  0  0  0  0  0  0
    7.1819    2.9325    0.0000 C   0  0  0  0  0  0  0  0  0  0  0  0
    4.5398    1.4256    0.0000 C   0  0  0  0  0  0  0  0  0  0  0  0
    5.4498    2.9325    0.0000 C   0  0  0  0  0  0  0  0  0  0  0  0
    9.7181    3.6984    0.0000 C   0  0  3  0  0  0  0  0  0  0  0  0
    6.3158    3.4325    0.0000 C   0  0  0  0  0  0  0  0  0  0  0  0
    9.4736    4.7170    0.0000 C   0  0  3  0  0  0  0  0  0  0  0  0
    8.0758    3.4671    0.0000 C   0  0  0  0  0  0  0  0  0  0  0  0
    8.9819    2.9533    0.0000 C   0  0  0  0  0  0  0  0  0  0  0  0
    7.6746    4.3764    0.0000 C   0  0  0  0  0  0  0  0  0  0  0  0
    6.3319    4.4740    0.0000 C   0  0  0  0  0  0  0  0  0  0  0  0
    6.5934   -2.2421    0.0000 C   0  0  0  0  0  0  0  0  0  0  0  0
    4.5398    3.4393    0.0000 C   0  0  0  0  0  0  0  0  0  0  0  0
    3.9530    2.6372    0.0000 C   0  0  0  0  0  0  0  0  0  0  0  0
    7.7197    5.4066    0.0000 C   0  0  0  0  0  0  0  0  0  0  0  0
   10.7563    3.6194    0.0000 C   0  0  0  0  0  0  0  0  0  0  0  0
    8.9819    1.9116    0.0000 C   0  0  0  0  0  0  0  0  0  0  0  0
    7.6069   -1.6464    0.0000 C   0  0  0  0  0  0  0  0  0  0  0  0
   10.3629    5.2587    0.0000 C   0  0  0  0  0  0  0  0  0  0  0  0
    5.4339    5.0017    0.0000 C   0  0  0  0  0  0  0  0  0  0  0  0
    4.5318    4.4809    0.0000 C   0  0  0  0  0  0  0  0  0  0  0  0
    3.5009    0.3603    0.0000 C   0  0  0  0  0  0  0  0  0  0  0  0
    5.9288    5.9064    0.0000 C   0  0  0  0  0  0  0  0  0  0  0  0
    2.9700    2.9990    0.0000 C   0  0  0  0  0  0  0  0  0  0  0  0
    3.5184    4.7459    0.0000 C   0  0  0  0  0  0  0  0  0  0  0  0
    6.9442    6.0862    0.0000 C   0  0  0  0  0  0  0  0  0  0  0  0
    4.9336    6.2136    0.0000 C   0  0  0  0  0  0  0  0  0  0  0  0
   11.8035    5.3421    0.0000 C   0  0  0  0  0  0  0  0  0  0  0  0
    5.6830   -2.6558    0.0000 C   0  0  0  0  0  0  0  0  0  0  0  0
    2.8375    1.1497    0.0000 C   0  0  0  0  0  0  0  0  0  0  0  0
   12.0779    4.1990    0.0000 C   0  0  0  0  0  0  0  0  0  0  0  0
    2.7585    4.0249    0.0000 C   0  0  0  0  0  0  0  0  0  0  0  0
   12.7868    5.1598    0.0000 C   0  0  0  0  0  0  0  0  0  0  0  0
    4.6758   -4.0649    0.0000 C   0  0  0  0  0  0  0  0  0  0  0  0
   14.4195    5.7379    0.0000 C   0  0  0  0  0  0  0  0  0  0  0  0
    4.5789   -5.0602    0.0000 C   0  0  0  0  0  0  0  0  0  0  0  0
   15.0690    6.4982    0.0000 C   0  0  0  0  0  0  0  0  0  0  0  0
    3.5717   -6.4692    0.0000 C   0  0  0  0  0  0  0  0  0  0  0  0
   16.7017    7.0763    0.0000 C   0  0  0  0  0  0  0  0  0  0  0  0
    2.6613   -6.8830    0.0000 C   0  0  0  0  0  0  0  0  0  0  0  0
   17.6850    6.8940    0.0000 C   0  0  0  0  0  0  0  0  0  0  0  0
    4.9342   -0.5038    0.0000 H   0  0  0  0  0  0  0  0  0  0  0  0
    7.6438   -0.6046    0.0000 H   0  0  0  0  0  0  0  0  0  0  0  0
    7.4665    0.2057    0.0000 H   0  0  0  0  0  0  0  0  0  0  0  0
    5.0436   -1.2182    0.0000 H   0  0  0  0  0  0  0  0  0  0  0  0
    5.6652   -1.7673    0.0000 H   0  0  0  0  0  0  0  0  0  0  0  0
    7.1541   -0.3136    0.0000 H   0  0  0  0  0  0  0  0  0  0  0  0
    7.8826    0.0234    0.0000 H   0  0  0  0  0  0  0  0  0  0  0  0
    9.9352    3.1177    0.0000 H   0  0  0  0  0  0  0  0  0  0  0  0
    9.4202    5.3347    0.0000 H   0  0  0  0  0  0  0  0  0  0  0  0
    6.7480   -2.8425    0.0000 H   0  0  0  0  0  0  0  0  0  0  0  0
    7.2115   -2.1940    0.0000 H   0  0  0  0  0  0  0  0  0  0  0  0
   10.6445    3.0095    0.0000 H   0  0  0  0  0  0  0  0  0  0  0  0
   11.3510    3.4441    0.0000 H   0  0  0  0  0  0  0  0  0  0  0  0
    9.5176    1.5996    0.0000 H   0  0  0  0  0  0  0  0  0  0  0  0
    7.3591   -2.2148    0.0000 H   0  0  0  0  0  0  0  0  0  0  0  0
    8.1752   -1.8942    0.0000 H   0  0  0  0  0  0  0  0  0  0  0  0
    7.8547   -1.0781    0.0000 H   0  0  0  0  0  0  0  0  0  0  0  0
   10.8132    5.6848    0.0000 H   0  0  0  0  0  0  0  0  0  0  0  0
    9.9864    5.7514    0.0000 H   0  0  0  0  0  0  0  0  0  0  0  0
    3.2456   -0.2047    0.0000 H   0  0  0  0  0  0  0  0  0  0  0  0
    7.1108    6.6834    0.0000 H   0  0  0  0  0  0  0  0  0  0  0  0
    5.2062    6.7704    0.0000 H   0  0  0  0  0  0  0  0  0  0  0  0
    4.4258    6.5694    0.0000 H   0  0  0  0  0  0  0  0  0  0  0  0
   12.0207    5.9228    0.0000 H   0  0  0  0  0  0  0  0  0  0  0  0
   11.2693    5.6568    0.0000 H   0  0  0  0  0  0  0  0  0  0  0  0
    5.5284   -2.0554    0.0000 H   0  0  0  0  0  0  0  0  0  0  0  0
    5.0649   -2.7038    0.0000 H   0  0  0  0  0  0  0  0  0  0  0  0
    2.2477    0.9584    0.0000 H   0  0  0  0  0  0  0  0  0  0  0  0
   11.8406    3.6262    0.0000 H   0  0  0  0  0  0  0  0  0  0  0  0
   12.6507    3.9617    0.0000 H   0  0  0  0  0  0  0  0  0  0  0  0
   12.3152    4.7718    0.0000 H   0  0  0  0  0  0  0  0  0  0  0  0
    2.1670    4.2106    0.0000 H   0  0  0  0  0  0  0  0  0  0  0  0
   12.5696    4.5791    0.0000 H   0  0  0  0  0  0  0  0  0  0  0  0
   13.3210    4.8451    0.0000 H   0  0  0  0  0  0  0  0  0  0  0  0
    4.5211   -3.4645    0.0000 H   0  0  0  0  0  0  0  0  0  0  0  0
    4.0576   -4.1129    0.0000 H   0  0  0  0  0  0  0  0  0  0  0  0
   14.2023    5.1572    0.0000 H   0  0  0  0  0  0  0  0  0  0  0  0
   14.9537    5.4232    0.0000 H   0  0  0  0  0  0  0  0  0  0  0  0
    4.7335   -5.6606    0.0000 H   0  0  0  0  0  0  0  0  0  0  0  0
    5.1971   -5.0122    0.0000 H   0  0  0  0  0  0  0  0  0  0  0  0
   15.2861    7.0790    0.0000 H   0  0  0  0  0  0  0  0  0  0  0  0
   14.5348    6.8130    0.0000 H   0  0  0  0  0  0  0  0  0  0  0  0
    3.7263   -7.0697    0.0000 H   0  0  0  0  0  0  0  0  0  0  0  0
    4.1898   -6.4212    0.0000 H   0  0  0  0  0  0  0  0  0  0  0  0
   16.9189    7.6571    0.0000 H   0  0  0  0  0  0  0  0  0  0  0  0
   16.1675    7.3910    0.0000 H   0  0  0  0  0  0  0  0  0  0  0  0
    2.5067   -6.2826    0.0000 H   0  0  0  0  0  0  0  0  0  0  0  0
    2.0432   -6.9310    0.0000 H   0  0  0  0  0  0  0  0  0  0  0  0
   17.4678    6.3133    0.0000 H   0  0  0  0  0  0  0  0  0  0  0  0
   18.2192    6.5794    0.0000 H   0  0  0  0  0  0  0  0  0  0  0  0
    2.0000   -8.1348    0.0000 H   0  0  0  0  0  0  0  0  0  0  0  0
    3.0688   -8.2389    0.0000 H   0  0  0  0  0  0  0  0  0  0  0  0
   18.9441    7.5414    0.0000 H   0  0  0  0  0  0  0  0  0  0  0  0
   18.1275    8.2389    0.0000 H   0  0  0  0  0  0  0  0  0  0  0  0
  1 46  1  0  0  0  0
  1 51  1  0  0  0  0
  2 50  1  0  0  0  0
  2 52  1  0  0  0  0
  3 53  1  0  0  0  0
  3 55  1  0  0  0  0
  4 54  1  0  0  0  0
  4 56  1  0  0  0  0
  5 11  1  0  0  0  0
  5 13  1  0  0  0  0
  5 29  1  0  0  0  0
  5 35  1  0  0  0  0
  6 33  1  0  0  0  0
  6 36  1  0  0  0  0
  6 45  1  0  0  0  0
  6 48  1  0  0  0  0
  7 57  1  0  0  0  0
  7109  1  0  0  0  0
  7110  1  0  0  0  0
  8 58  1  0  0  0  0
  8111  1  0  0  0  0
  8112  1  0  0  0  0
  9 10  1  0  0  0  0
  9 11  1  0  0  0  0
  9 12  1  0  0  0  0
  9 14  1  0  0  0  0
 10 13  1  0  0  0  0
 10 18  1  0  0  0  0
 10 59  1  0  0  0  0
 11 60  1  0  0  0  0
 11 61  1  0  0  0  0
 12 15  1  0  0  0  0
 12 16  2  0  0  0  0
 13 62  1  0  0  0  0
 13 63  1  0  0  0  0
 14 17  1  0  0  0  0
 14 64  1  0  0  0  0
 14 65  1  0  0  0  0
 15 17  1  0  0  0  0
 15 19  2  0  0  0  0
 16 20  1  0  0  0  0
 16 21  1  0  0  0  0
 17 34  2  0  0  0  0
 18 20  2  0  0  0  0
 18 39  1  0  0  0  0
 19 23  1  0  0  0  0
 19 25  1  0  0  0  0
 20 31  1  0  0  0  0
 21 23  2  0  0  0  0
 21 30  1  0  0  0  0
 22 24  1  0  0  0  0
 22 26  1  0  0  0  0
 22 33  1  0  0  0  0
 22 66  1  0  0  0  0
 23 28  1  0  0  0  0
 24 32  1  0  0  0  0
 24 36  1  0  0  0  0
 24 67  1  0  0  0  0
 25 26  2  0  0  0  0
 25 27  1  0  0  0  0
 26 34  1  0  0  0  0
 27 28  1  0  0  0  0
 27 32  2  0  0  0  0
 28 37  2  0  0  0  0
 29 46  1  0  0  0  0
 29 68  1  0  0  0  0
 29 69  1  0  0  0  0
 30 31  2  0  0  0  0
 30 38  1  0  0  0  0
 31 41  1  0  0  0  0
 32 43  1  0  0  0  0
 33 70  1  0  0  0  0
 33 71  1  0  0  0  0
 34 72  1  0  0  0  0
 35 73  1  0  0  0  0
 35 74  1  0  0  0  0
 35 75  1  0  0  0  0
 36 76  1  0  0  0  0
 36 77  1  0  0  0  0
 37 38  1  0  0  0  0
 37 40  1  0  0  0  0
 38 42  2  0  0  0  0
 39 47  2  0  0  0  0
 39 78  1  0  0  0  0
 40 43  2  0  0  0  0
 40 44  1  0  0  0  0
 41 47  1  0  0  0  0
 41 49  2  0  0  0  0
 42 44  1  0  0  0  0
 42 49  1  0  0  0  0
 43 79  1  0  0  0  0
 44 80  1  0  0  0  0
 44 81  1  0  0  0  0
 45 50  1  0  0  0  0
 45 82  1  0  0  0  0
 45 83  1  0  0  0  0
 46 84  1  0  0  0  0
 46 85  1  0  0  0  0
 47 86  1  0  0  0  0
 48 87  1  0  0  0  0
 48 88  1  0  0  0  0
 48 89  1  0  0  0  0
 49 90  1  0  0  0  0
 50 91  1  0  0  0  0
 50 92  1  0  0  0  0
 51 53  1  0  0  0  0
 51 93  1  0  0  0  0
 51 94  1  0  0  0  0
 52 54  1  0  0  0  0
 52 95  1  0  0  0  0
 52 96  1  0  0  0  0
 53 97  1  0  0  0  0
 53 98  1  0  0  0  0
 54 99  1  0  0  0  0
 54100  1  0  0  0  0
 55 57  1  0  0  0  0
 55101  1  0  0  0  0
 55102  1  0  0  0  0
 56 58  1  0  0  0  0
 56103  1  0  0  0  0
 56104  1  0  0  0  0
 57105  1  0  0  0  0
 57106  1  0  0  0  0
 58107  1  0  0  0  0
 58108  1  0  0  0  0
M  CHG  2   5   1   6   1
M  END
> <PUBCHEM_COMPOUND_CID>
513706
> <PUBCHEM_COMPOUND_CANONICALIZED>
1
> <PUBCHEM_CACTVS_COMPLEXITY>
1650
> <PUBCHEM_CACTVS_HBOND_ACCEPTOR>
6
> <PUBCHEM_CACTVS_HBOND_DONOR>
2
> <PUBCHEM_CACTVS_ROTATABLE_BOND>
16
> <PUBCHEM_CACTVS_SUBSKEYS>
AAADcfB/uAAAAAAAAAAAAAAAAAAAAePGDBAwYMGDAAAAAHjBVAAAHgAQAAAADwDhmAYyAMNABACAAiBCAAACAAAgAAAIiIAIAIgLICKAkRGHIAAgkACaiAcQgMAPwAACAAAQAACAAAQAACAAAQAACAAAAA==
> <PUBCHEM_IUPAC_OPENEYE_NAME>
2-[2-[2-[13-[2-[2-(2-aminoethoxy)ethoxy]ethyl]-4,13-dimethyl-4,13-diazoniatetradecacyclo[21.13.1.121,24.02,6.07,35.09,33.011,15.011,32.016,30.019,29.025,36.026,34.027,31.028,38]octatriaconta-1(36),7(35),8,16(30),17,19,21(38),23(37),24,26,28,31,33-tridecaen-4-yl]ethoxy]ethoxy]ethanamine
> <PUBCHEM_IUPAC_CAS_NAME>
2-[2-[2-[13-[2-[2-(2-aminoethoxy)ethoxy]ethyl]-4,13-dimethyl-4,13-diazoniatetradecacyclo[21.13.1.121,24.02,6.07,35.09,33.011,15.011,32.016,30.019,29.025,36.026,34.027,31.028,38]octatriaconta-1(36),7(35),8,16(30),17,19,21(38),23(37),24,26,28,31,33-tridecaen-4-yl]ethoxy]ethoxy]ethanamine
> <PUBCHEM_IUPAC_NAME_MARKUP>
2-[2-[2-[13-[2-[2-(2-aminoethoxy)ethoxy]ethyl]-4,13-dimethyl-4,13-diazoniatetradecacyclo[21.13.1.1<SUP>21,24</SUP>.0<SUP>2,6</SUP>.0<SUP>7,35</SUP>.0<SUP>9,33</SUP>.0<SUP>11,15</SUP>.0<SUP>11,32</SUP>.0<SUP>16,30</SUP>.0<SUP>19,29</SUP>.0<SUP>25,36</SUP>.0<SUP>26,34</SUP>.0<SUP>27,31</SUP>.0<SUP>28,38</SUP>]octatriaconta-1(36),7(35),8,16(30),17,19,21(38),23(37),24,26,28,31,33-tridecaen-4-yl]ethoxy]ethoxy]ethanamine
> <PUBCHEM_IUPAC_NAME>
2-[2-[2-[13-[2-[2-(2-aminoethoxy)ethoxy]ethyl]-4,13-dimethyl-4,13-diazoniatetradecacyclo[21.13.1.121,24.02,6.07,35.09,33.011,15.011,32.016,30.019,29.025,36.026,34.027,31.028,38]octatriaconta-1(36),7(35),8,16(30),17,19,21(38),23(37),24,26,28,31,33-tridecaen-4-yl]ethoxy]ethoxy]ethanamine
> <PUBCHEM_IUPAC_SYSTEMATIC_NAME>
2-[2-[2-[13-[2-[2-(2-azanylethoxy)ethoxy]ethyl]-4,13-dimethyl-4,13-diazoniatetradecacyclo[21.13.1.121,24.02,6.07,35.09,33.011,15.011,32.016,30.019,29.025,36.026,34.027,31.028,38]octatriaconta-1(36),7(35),8,16(30),17,19,21(38),23(37),24,26,28,31,33-tridecaen-4-yl]ethoxy]ethoxy]ethanamine
> <PUBCHEM_IUPAC_TRADITIONAL_NAME>
2-[2-[2-[4-[2-[2-(2-aminoethoxy)ethoxy]ethyl]-4,13-dimethyl-4,13-diazoniatetradecacyclo[21.13.1.121,24.02,6.07,35.09,33.011,15.011,32.016,30.019,29.025,36.026,34.027,31.028,38]octatriaconta-1(36),7(35),8,16(30),17,19,21(38),23(37),24,26,28,31,33-tridecaen-13-yl]ethoxy]ethoxy]ethylamine
> <PUBCHEM_IUPAC_INCHI>
InChI=1S/C50H54N4O4/c1-53(7-11-57-15-13-55-9-5-51)22-33-31-19-28-18-27-17-26-3-4-30-35-24-54(2,8-12-58-16-14-56-10-6-52)25-50(35)21-29-20-32(34(33)23-53)42-41(31)44-38(28)37(27)43-36(26)40(30)48-47(43)46(44)45(42)39(29)49(48)50/h3-4,17,19-20,33-35H,5-16,18,21-25,51-52H2,1-2H3/q+2
> <PUBCHEM_IUPAC_INCHIKEY>
KFMGIWYOKOFYKN-UHFFFAOYSA-N
> <PUBCHEM_XLOGP3_AA>
4.6
> <PUBCHEM_EXACT_MASS>
774.41450622
> <PUBCHEM_MOLECULAR_FORMULA>
C50H54N4O4+2
> <PUBCHEM_MOLECULAR_WEIGHT>
775.0
> <PUBCHEM_OPENEYE_CAN_SMILES>
C[N+]1(CC2C(C1)C3=C4C5=C2C=C6CC7=C8C6=C5C9=C1C8=C2C(=C7)C=CC5=C2C1=C1C(=C49)C(=C3)CC11C5C[N+](C1)(C)CCOCCOCCN)CCOCCOCCN
> <PUBCHEM_OPENEYE_ISO_SMILES>
C[N+]1(CC2C(C1)C3=C4C5=C2C=C6CC7=C8C6=C5C9=C1C8=C2C(=C7)C=CC5=C2C1=C1C(=C49)C(=C3)CC11C5C[N+](C1)(C)CCOCCOCCN)CCOCCOCCN
> <PUBCHEM_CACTVS_TPSA>
89
> <PUBCHEM_MONOISOTOPIC_WEIGHT>
774.41450622
> <PUBCHEM_TOTAL_CHARGE>
2
> <PUBCHEM_HEAVY_ATOM_COUNT>
58
> <PUBCHEM_ATOM_DEF_STEREO_COUNT>
0
> <PUBCHEM_ATOM_UDEF_STEREO_COUNT>
6
> <PUBCHEM_BOND_DEF_STEREO_COUNT>
0
> <PUBCHEM_BOND_UDEF_STEREO_COUNT>
0
> <PUBCHEM_ISOTOPIC_ATOM_COUNT>
0
> <PUBCHEM_COMPONENT_COUNT>
1
> <PUBCHEM_CACTVS_TAUTO_COUNT>
-1
> <PUBCHEM_COORDINATE_TYPE>
1
5
255
> <PUBCHEM_BONDANNOTATIONS>
10  13  3
12  15  8
12  16  8
15  17  8
15  19  8
16  20  8
16  21  8
17  34  8
18  20  8
18  39  8
19  23  8
19  25  8
20  31  8
21  23  8
21  30  8
22  33  3
23  28  8
24  36  3
25  26  8
25  27  8
26  34  8
27  28  8
27  32  8
28  37  8
30  31  8
30  38  8
31  41  8
32  43  8
37  38  8
37  40  8
38  42  8
39  47  8
40  43  8
41  47  8
41  49  8
42  49  8
5  35  3
6  48  3
9  14  3
$$$$
