513748
  -OEChem-10302200282D
 81 83  0     1  0  0  0  0  0999 V2000
    4.5981   -0.0950    0.0000 S   0  0  0  0  0  0  0  0  0  0  0  0
    5.5981   -0.0950    0.0000 O   0  0  0  0  0  0  0  0  0  0  0  0
    3.5981   -0.0950    0.0000 O   0  0  0  0  0  0  0  0  0  0  0  0
    6.3301    2.9050    0.0000 O   0  0  0  0  0  0  0  0  0  0  0  0
    4.5981    2.9050    0.0000 O   0  0  0  0  0  0  0  0  0  0  0  0
   10.6603    2.4050    0.0000 O   0  0  0  0  0  0  0  0  0  0  0  0
    4.5981    0.9050    0.0000 N   0  0  3  0  0  0  0  0  0  0  0  0
    9.7942    0.9050    0.0000 N   0  0  0  0  0  0  0  0  0  0  0  0
   11.5263    0.9050    0.0000 N   0  0  0  0  0  0  0  0  0  0  0  0
    4.5981   -4.0950    0.0000 N   0  0  0  0  0  0  0  0  0  0  0  0
    5.4641    1.4050    0.0000 C   0  0  1  0  0  0  0  0  0  0  0  0
    6.3301    0.9050    0.0000 C   0  0  0  0  0  0  0  0  0  0  0  0
    3.7320    1.4050    0.0000 C   0  0  0  0  0  0  0  0  0  0  0  0
    2.8660    0.9050    0.0000 C   0  0  0  0  0  0  0  0  0  0  0  0
    7.1962    1.4050    0.0000 C   0  0  0  0  0  0  0  0  0  0  0  0
    8.0622    0.9050    0.0000 C   0  0  0  0  0  0  0  0  0  0  0  0
    5.4641    2.4050    0.0000 C   0  0  0  0  0  0  0  0  0  0  0  0
    2.0000    1.4050    0.0000 C   0  0  0  0  0  0  0  0  0  0  0  0
    2.8660   -0.0950    0.0000 C   0  0  0  0  0  0  0  0  0  0  0  0
    4.5981   -1.0950    0.0000 C   0  0  0  0  0  0  0  0  0  0  0  0
    8.9282    1.4050    0.0000 C   0  0  0  0  0  0  0  0  0  0  0  0
    5.4641   -1.5950    0.0000 C   0  0  0  0  0  0  0  0  0  0  0  0
    3.7320   -1.5950    0.0000 C   0  0  0  0  0  0  0  0  0  0  0  0
   10.6603    1.4050    0.0000 C   0  0  0  0  0  0  0  0  0  0  0  0
    5.4641   -2.5950    0.0000 C   0  0  0  0  0  0  0  0  0  0  0  0
    3.7320   -2.5950    0.0000 C   0  0  0  0  0  0  0  0  0  0  0  0
    4.5981   -3.0950    0.0000 C   0  0  0  0  0  0  0  0  0  0  0  0
   11.5263   -0.0950    0.0000 C   0  0  0  0  0  0  0  0  0  0  0  0
   12.3923    1.4050    0.0000 C   0  0  0  0  0  0  0  0  0  0  0  0
   12.3923   -0.5950    0.0000 C   0  0  0  0  0  0  0  0  0  0  0  0
   12.3923    2.4050    0.0000 C   0  0  0  0  0  0  0  0  0  0  0  0
   12.3923   -1.5950    0.0000 C   0  0  0  0  0  0  0  0  0  0  0  0
   13.2583    2.9050    0.0000 C   0  0  0  0  0  0  0  0  0  0  0  0
   13.2583   -0.0950    0.0000 C   0  0  0  0  0  0  0  0  0  0  0  0
   11.5263    2.9050    0.0000 C   0  0  0  0  0  0  0  0  0  0  0  0
   13.2583   -2.0950    0.0000 C   0  0  0  0  0  0  0  0  0  0  0  0
   13.2583    3.9050    0.0000 C   0  0  0  0  0  0  0  0  0  0  0  0
   14.1244   -0.5950    0.0000 C   0  0  0  0  0  0  0  0  0  0  0  0
   11.5263    3.9050    0.0000 C   0  0  0  0  0  0  0  0  0  0  0  0
   14.1244   -1.5950    0.0000 C   0  0  0  0  0  0  0  0  0  0  0  0
   12.3923    4.4050    0.0000 C   0  0  0  0  0  0  0  0  0  0  0  0
    5.4641    0.7850    0.0000 H   0  0  0  0  0  0  0  0  0  0  0  0
    5.9316    0.4301    0.0000 H   0  0  0  0  0  0  0  0  0  0  0  0
    6.7287    0.4301    0.0000 H   0  0  0  0  0  0  0  0  0  0  0  0
    4.1306    1.8800    0.0000 H   0  0  0  0  0  0  0  0  0  0  0  0
    3.3335    1.8800    0.0000 H   0  0  0  0  0  0  0  0  0  0  0  0
    2.8660    1.5250    0.0000 H   0  0  0  0  0  0  0  0  0  0  0  0
    7.5947    1.8800    0.0000 H   0  0  0  0  0  0  0  0  0  0  0  0
    6.7976    1.8800    0.0000 H   0  0  0  0  0  0  0  0  0  0  0  0
    7.6636    0.4301    0.0000 H   0  0  0  0  0  0  0  0  0  0  0  0
    8.4607    0.4301    0.0000 H   0  0  0  0  0  0  0  0  0  0  0  0
    2.3100    1.9419    0.0000 H   0  0  0  0  0  0  0  0  0  0  0  0
    1.4631    1.7150    0.0000 H   0  0  0  0  0  0  0  0  0  0  0  0
    1.6900    0.8681    0.0000 H   0  0  0  0  0  0  0  0  0  0  0  0
    2.2460   -0.0950    0.0000 H   0  0  0  0  0  0  0  0  0  0  0  0
    2.8660   -0.7150    0.0000 H   0  0  0  0  0  0  0  0  0  0  0  0
    3.4860   -0.0950    0.0000 H   0  0  0  0  0  0  0  0  0  0  0  0
    9.3267    1.8800    0.0000 H   0  0  0  0  0  0  0  0  0  0  0  0
    8.5297    1.8800    0.0000 H   0  0  0  0  0  0  0  0  0  0  0  0
    6.0010   -1.2850    0.0000 H   0  0  0  0  0  0  0  0  0  0  0  0
    3.1951   -1.2850    0.0000 H   0  0  0  0  0  0  0  0  0  0  0  0
    9.7942    0.2850    0.0000 H   0  0  0  0  0  0  0  0  0  0  0  0
    6.3301    3.5250    0.0000 H   0  0  0  0  0  0  0  0  0  0  0  0
    6.0010   -2.9050    0.0000 H   0  0  0  0  0  0  0  0  0  0  0  0
    3.1951   -2.9050    0.0000 H   0  0  0  0  0  0  0  0  0  0  0  0
   10.9157    0.0127    0.0000 H   0  0  0  0  0  0  0  0  0  0  0  0
   11.3142   -0.6776    0.0000 H   0  0  0  0  0  0  0  0  0  0  0  0
   12.6044    0.8224    0.0000 H   0  0  0  0  0  0  0  0  0  0  0  0
   13.0029    1.5127    0.0000 H   0  0  0  0  0  0  0  0  0  0  0  0
    4.0611   -4.4050    0.0000 H   0  0  0  0  0  0  0  0  0  0  0  0
    5.1350   -4.4050    0.0000 H   0  0  0  0  0  0  0  0  0  0  0  0
   11.8554   -1.9050    0.0000 H   0  0  0  0  0  0  0  0  0  0  0  0
   13.7953    2.5950    0.0000 H   0  0  0  0  0  0  0  0  0  0  0  0
   13.2583    0.5250    0.0000 H   0  0  0  0  0  0  0  0  0  0  0  0
   10.9893    2.5950    0.0000 H   0  0  0  0  0  0  0  0  0  0  0  0
   13.2583   -2.7150    0.0000 H   0  0  0  0  0  0  0  0  0  0  0  0
   13.7953    4.2150    0.0000 H   0  0  0  0  0  0  0  0  0  0  0  0
   14.6613   -0.2850    0.0000 H   0  0  0  0  0  0  0  0  0  0  0  0
   10.9893    4.2150    0.0000 H   0  0  0  0  0  0  0  0  0  0  0  0
   14.6613   -1.9050    0.0000 H   0  0  0  0  0  0  0  0  0  0  0  0
   12.3923    5.0250    0.0000 H   0  0  0  0  0  0  0  0  0  0  0  0
  1  2  2  0  0  0  0
  1  3  2  0  0  0  0
  1  7  1  0  0  0  0
  1 20  1  0  0  0  0
  4 17  1  0  0  0  0
  4 63  1  0  0  0  0
  5 17  2  0  0  0  0
  6 24  2  0  0  0  0
 11  7  1  6  0  0  0
  7 13  1  0  0  0  0
  8 21  1  0  0  0  0
  8 24  1  0  0  0  0
  8 62  1  0  0  0  0
  9 24  1  0  0  0  0
  9 28  1  0  0  0  0
  9 29  1  0  0  0  0
 10 27  1  0  0  0  0
 10 70  1  0  0  0  0
 10 71  1  0  0  0  0
 11 12  1  0  0  0  0
 11 17  1  0  0  0  0
 11 42  1  0  0  0  0
 12 15  1  0  0  0  0
 12 43  1  0  0  0  0
 12 44  1  0  0  0  0
 13 14  1  0  0  0  0
 13 45  1  0  0  0  0
 13 46  1  0  0  0  0
 14 18  1  0  0  0  0
 14 19  1  0  0  0  0
 14 47  1  0  0  0  0
 15 16  1  0  0  0  0
 15 48  1  0  0  0  0
 15 49  1  0  0  0  0
 16 21  1  0  0  0  0
 16 50  1  0  0  0  0
 16 51  1  0  0  0  0
 18 52  1  0  0  0  0
 18 53  1  0  0  0  0
 18 54  1  0  0  0  0
 19 55  1  0  0  0  0
 19 56  1  0  0  0  0
 19 57  1  0  0  0  0
 20 22  2  0  0  0  0
 20 23  1  0  0  0  0
 21 58  1  0  0  0  0
 21 59  1  0  0  0  0
 22 25  1  0  0  0  0
 22 60  1  0  0  0  0
 23 26  2  0  0  0  0
 23 61  1  0  0  0  0
 25 27  2  0  0  0  0
 25 64  1  0  0  0  0
 26 27  1  0  0  0  0
 26 65  1  0  0  0  0
 28 30  1  0  0  0  0
 28 66  1  0  0  0  0
 28 67  1  0  0  0  0
 29 31  1  0  0  0  0
 29 68  1  0  0  0  0
 29 69  1  0  0  0  0
 30 32  2  0  0  0  0
 30 34  1  0  0  0  0
 31 33  2  0  0  0  0
 31 35  1  0  0  0  0
 32 36  1  0  0  0  0
 32 72  1  0  0  0  0
 33 37  1  0  0  0  0
 33 73  1  0  0  0  0
 34 38  2  0  0  0  0
 34 74  1  0  0  0  0
 35 39  2  0  0  0  0
 35 75  1  0  0  0  0
 36 40  2  0  0  0  0
 36 76  1  0  0  0  0
 37 41  2  0  0  0  0
 37 77  1  0  0  0  0
 38 40  1  0  0  0  0
 38 78  1  0  0  0  0
 39 41  1  0  0  0  0
 39 79  1  0  0  0  0
 40 80  1  0  0  0  0
 41 81  1  0  0  0  0
M  END
> <PUBCHEM_COMPOUND_CID>
513748
> <PUBCHEM_COMPOUND_CANONICALIZED>
1
> <PUBCHEM_CACTVS_COMPLEXITY>
869
> <PUBCHEM_CACTVS_HBOND_ACCEPTOR>
7
> <PUBCHEM_CACTVS_HBOND_DONOR>
3
> <PUBCHEM_CACTVS_ROTATABLE_BOND>
15
> <PUBCHEM_CACTVS_SUBSKEYS>
AAADcfB7uABAAAAAAAAAAAAAAAAAAAAAAAAwYMAAAAAAAAABUAAAHgQQSAAADSjB2AQzyYPAAgKIAiTSWHDCABAgAgAIiJmIZIiKIDKAkbGEYAhslgKYyAeYyAAOAAQAAAAAAAAACAAAAAAAAAAAAAAAAA==
> <PUBCHEM_IUPAC_OPENEYE_NAME>
(2S)-2-[(4-aminophenyl)sulfonyl-isobutyl-amino]-6-(dibenzylcarbamoylamino)hexanoic acid
> <PUBCHEM_IUPAC_CAS_NAME>
(2S)-2-[(4-aminophenyl)sulfonyl-(2-methylpropyl)amino]-6-[[[bis(phenylmethyl)amino]-oxomethyl]amino]hexanoic acid
> <PUBCHEM_IUPAC_NAME_MARKUP>
(2<I>S</I>)-2-[(4-aminophenyl)sulfonyl-(2-methylpropyl)amino]-6-(dibenzylcarbamoylamino)hexanoic acid
> <PUBCHEM_IUPAC_NAME>
(2S)-2-[(4-aminophenyl)sulfonyl-(2-methylpropyl)amino]-6-(dibenzylcarbamoylamino)hexanoic acid
> <PUBCHEM_IUPAC_SYSTEMATIC_NAME>
(2S)-2-[(4-aminophenyl)sulfonyl-(2-methylpropyl)amino]-6-[bis(phenylmethyl)carbamoylamino]hexanoic acid
> <PUBCHEM_IUPAC_TRADITIONAL_NAME>
(2S)-6-(dibenzylcarbamoylamino)-2-[isobutyl(sulfanilyl)amino]hexanoic acid
> <PUBCHEM_IUPAC_INCHI>
InChI=1S/C31H40N4O5S/c1-24(2)21-35(41(39,40)28-18-16-27(32)17-19-28)29(30(36)37)15-9-10-20-33-31(38)34(22-25-11-5-3-6-12-25)23-26-13-7-4-8-14-26/h3-8,11-14,16-19,24,29H,9-10,15,20-23,32H2,1-2H3,(H,33,38)(H,36,37)/t29-/m0/s1
> <PUBCHEM_IUPAC_INCHIKEY>
UVOJXALMRQMZLC-LJAQVGFWSA-N
> <PUBCHEM_XLOGP3_AA>
4.7
> <PUBCHEM_EXACT_MASS>
580.27194156
> <PUBCHEM_MOLECULAR_FORMULA>
C31H40N4O5S
> <PUBCHEM_MOLECULAR_WEIGHT>
580.7
> <PUBCHEM_OPENEYE_CAN_SMILES>
CC(C)CN(C(CCCCNC(=O)N(CC1=CC=CC=C1)CC2=CC=CC=C2)C(=O)O)S(=O)(=O)C3=CC=C(C=C3)N
> <PUBCHEM_OPENEYE_ISO_SMILES>
CC(C)CN([C@@H](CCCCNC(=O)N(CC1=CC=CC=C1)CC2=CC=CC=C2)C(=O)O)S(=O)(=O)C3=CC=C(C=C3)N
> <PUBCHEM_CACTVS_TPSA>
141
> <PUBCHEM_MONOISOTOPIC_WEIGHT>
580.27194156
> <PUBCHEM_TOTAL_CHARGE>
0
> <PUBCHEM_HEAVY_ATOM_COUNT>
41
> <PUBCHEM_ATOM_DEF_STEREO_COUNT>
1
> <PUBCHEM_ATOM_UDEF_STEREO_COUNT>
0
> <PUBCHEM_BOND_DEF_STEREO_COUNT>
0
> <PUBCHEM_BOND_UDEF_STEREO_COUNT>
0
> <PUBCHEM_ISOTOPIC_ATOM_COUNT>
0
> <PUBCHEM_COMPONENT_COUNT>
1
> <PUBCHEM_CACTVS_TAUTO_COUNT>
-1
> <PUBCHEM_COORDINATE_TYPE>
1
5
255
> <PUBCHEM_BONDANNOTATIONS>
20  22  8
20  23  8
22  25  8
23  26  8
25  27  8
26  27  8
30  32  8
30  34  8
31  33  8
31  35  8
32  36  8
33  37  8
34  38  8
35  39  8
36  40  8
37  41  8
38  40  8
39  41  8
11  7  6
$$$$
