513794
  -OEChem-10302200282D
 89 92  0     1  0  0  0  0  0999 V2000
    6.0010    3.9400    0.0000 S   0  0  0  0  0  0  0  0  0  0  0  0
    6.0010    0.9400    0.0000 O   0  0  0  0  0  0  0  0  0  0  0  0
    6.5010    4.8060    0.0000 O   0  0  0  0  0  0  0  0  0  0  0  0
    5.5010    3.0740    0.0000 O   0  0  0  0  0  0  0  0  0  0  0  0
    8.5991   -2.5600    0.0000 O   0  0  0  0  0  0  0  0  0  0  0  0
   14.7415   -2.2553    0.0000 O   0  0  0  0  0  0  0  0  0  0  0  0
   14.7415   -3.8647    0.0000 O   0  0  0  0  0  0  0  0  0  0  0  0
    6.8671   -5.5600    0.0000 O   0  0  0  0  0  0  0  0  0  0  0  0
    6.8671    3.4400    0.0000 N   0  0  3  0  0  0  0  0  0  0  0  0
    9.4651   -1.0600    0.0000 N   0  0  0  0  0  0  0  0  0  0  0  0
   10.3312   -2.5600    0.0000 N   0  0  0  0  0  0  0  0  0  0  0  0
    2.5369    5.9400    0.0000 N   0  0  0  0  0  0  0  0  0  0  0  0
    6.8671    2.4400    0.0000 C   0  0  1  0  0  0  0  0  0  0  0  0
    7.7331    1.9400    0.0000 C   0  0  0  0  0  0  0  0  0  0  0  0
    7.7331    3.9400    0.0000 C   0  0  0  0  0  0  0  0  0  0  0  0
    7.7331    0.9400    0.0000 C   0  0  0  0  0  0  0  0  0  0  0  0
    8.5991    3.4400    0.0000 C   0  0  0  0  0  0  0  0  0  0  0  0
    6.0010    1.9400    0.0000 C   0  0  0  0  0  0  0  0  0  0  0  0
    8.5991    0.4400    0.0000 C   0  0  0  0  0  0  0  0  0  0  0  0
    5.1350    4.4400    0.0000 C   0  0  0  0  0  0  0  0  0  0  0  0
    9.4651    3.9400    0.0000 C   0  0  0  0  0  0  0  0  0  0  0  0
    8.5991    2.4400    0.0000 C   0  0  0  0  0  0  0  0  0  0  0  0
    8.5991   -0.5600    0.0000 C   0  0  0  0  0  0  0  0  0  0  0  0
    5.1350    5.4400    0.0000 C   0  0  0  0  0  0  0  0  0  0  0  0
    4.2690    3.9400    0.0000 C   0  0  0  0  0  0  0  0  0  0  0  0
    4.2690    5.9400    0.0000 C   0  0  0  0  0  0  0  0  0  0  0  0
    3.4030    4.4400    0.0000 C   0  0  0  0  0  0  0  0  0  0  0  0
    9.4651   -2.0600    0.0000 C   0  0  0  0  0  0  0  0  0  0  0  0
    3.4030    5.4400    0.0000 C   0  0  0  0  0  0  0  0  0  0  0  0
   11.1972   -2.0600    0.0000 C   0  0  0  0  0  0  0  0  0  0  0  0
   10.3312   -3.5600    0.0000 C   0  0  0  0  0  0  0  0  0  0  0  0
   12.0632   -2.5600    0.0000 C   0  0  0  0  0  0  0  0  0  0  0  0
    9.4651   -4.0600    0.0000 C   0  0  0  0  0  0  0  0  0  0  0  0
   12.9292   -2.0600    0.0000 C   0  0  0  0  0  0  0  0  0  0  0  0
   12.0632   -3.5600    0.0000 C   0  0  0  0  0  0  0  0  0  0  0  0
   13.7953   -2.5600    0.0000 C   0  0  0  0  0  0  0  0  0  0  0  0
   13.7953   -3.5600    0.0000 C   0  0  0  0  0  0  0  0  0  0  0  0
    9.4651   -5.0600    0.0000 C   0  0  0  0  0  0  0  0  0  0  0  0
    8.5991   -3.5600    0.0000 C   0  0  0  0  0  0  0  0  0  0  0  0
   12.9292   -4.0600    0.0000 C   0  0  0  0  0  0  0  0  0  0  0  0
    8.5991   -5.5600    0.0000 C   0  0  0  0  0  0  0  0  0  0  0  0
    7.7331   -4.0600    0.0000 C   0  0  0  0  0  0  0  0  0  0  0  0
   15.3251   -3.0600    0.0000 C   0  0  0  0  0  0  0  0  0  0  0  0
    7.7331   -5.0600    0.0000 C   0  0  0  0  0  0  0  0  0  0  0  0
    6.8671   -6.5600    0.0000 C   0  0  0  0  0  0  0  0  0  0  0  0
    6.3301    2.7500    0.0000 H   0  0  0  0  0  0  0  0  0  0  0  0
    8.3437    1.8323    0.0000 H   0  0  0  0  0  0  0  0  0  0  0  0
    7.9451    2.5226    0.0000 H   0  0  0  0  0  0  0  0  0  0  0  0
    8.1316    4.4150    0.0000 H   0  0  0  0  0  0  0  0  0  0  0  0
    7.3346    4.4150    0.0000 H   0  0  0  0  0  0  0  0  0  0  0  0
    7.1225    1.0477    0.0000 H   0  0  0  0  0  0  0  0  0  0  0  0
    7.5210    0.3574    0.0000 H   0  0  0  0  0  0  0  0  0  0  0  0
    8.5991    4.0600    0.0000 H   0  0  0  0  0  0  0  0  0  0  0  0
    5.7890    2.5226    0.0000 H   0  0  0  0  0  0  0  0  0  0  0  0
    5.3905    1.8323    0.0000 H   0  0  0  0  0  0  0  0  0  0  0  0
    9.2097    0.3323    0.0000 H   0  0  0  0  0  0  0  0  0  0  0  0
    8.8112    1.0226    0.0000 H   0  0  0  0  0  0  0  0  0  0  0  0
    9.7751    3.4031    0.0000 H   0  0  0  0  0  0  0  0  0  0  0  0
   10.0021    4.2500    0.0000 H   0  0  0  0  0  0  0  0  0  0  0  0
    9.1551    4.4769    0.0000 H   0  0  0  0  0  0  0  0  0  0  0  0
    7.9791    2.4400    0.0000 H   0  0  0  0  0  0  0  0  0  0  0  0
    8.5991    1.8200    0.0000 H   0  0  0  0  0  0  0  0  0  0  0  0
    9.2191    2.4400    0.0000 H   0  0  0  0  0  0  0  0  0  0  0  0
    7.9885   -0.4523    0.0000 H   0  0  0  0  0  0  0  0  0  0  0  0
    8.3871   -1.1426    0.0000 H   0  0  0  0  0  0  0  0  0  0  0  0
    5.4641    0.6300    0.0000 H   0  0  0  0  0  0  0  0  0  0  0  0
    5.6720    5.7500    0.0000 H   0  0  0  0  0  0  0  0  0  0  0  0
    4.2690    3.3200    0.0000 H   0  0  0  0  0  0  0  0  0  0  0  0
   10.0021   -0.7500    0.0000 H   0  0  0  0  0  0  0  0  0  0  0  0
    4.2690    6.5600    0.0000 H   0  0  0  0  0  0  0  0  0  0  0  0
    2.8660    4.1300    0.0000 H   0  0  0  0  0  0  0  0  0  0  0  0
   11.5957   -1.5850    0.0000 H   0  0  0  0  0  0  0  0  0  0  0  0
   10.7987   -1.5850    0.0000 H   0  0  0  0  0  0  0  0  0  0  0  0
   10.5432   -4.1426    0.0000 H   0  0  0  0  0  0  0  0  0  0  0  0
   10.9417   -3.4523    0.0000 H   0  0  0  0  0  0  0  0  0  0  0  0
    2.5369    6.5600    0.0000 H   0  0  0  0  0  0  0  0  0  0  0  0
    2.0000    5.6300    0.0000 H   0  0  0  0  0  0  0  0  0  0  0  0
   12.9292   -1.4400    0.0000 H   0  0  0  0  0  0  0  0  0  0  0  0
   11.5263   -3.8700    0.0000 H   0  0  0  0  0  0  0  0  0  0  0  0
   10.0021   -5.3700    0.0000 H   0  0  0  0  0  0  0  0  0  0  0  0
    8.5991   -2.9400    0.0000 H   0  0  0  0  0  0  0  0  0  0  0  0
   12.9292   -4.6800    0.0000 H   0  0  0  0  0  0  0  0  0  0  0  0
    8.5991   -6.1800    0.0000 H   0  0  0  0  0  0  0  0  0  0  0  0
    7.1962   -3.7500    0.0000 H   0  0  0  0  0  0  0  0  0  0  0  0
   15.7860   -3.4747    0.0000 H   0  0  0  0  0  0  0  0  0  0  0  0
   15.7860   -2.6453    0.0000 H   0  0  0  0  0  0  0  0  0  0  0  0
    6.2471   -6.5600    0.0000 H   0  0  0  0  0  0  0  0  0  0  0  0
    6.8671   -7.1800    0.0000 H   0  0  0  0  0  0  0  0  0  0  0  0
    7.4871   -6.5600    0.0000 H   0  0  0  0  0  0  0  0  0  0  0  0
  1  3  2  0  0  0  0
  1  4  2  0  0  0  0
  1  9  1  0  0  0  0
  1 20  1  0  0  0  0
  2 18  1  0  0  0  0
  2 66  1  0  0  0  0
  5 28  2  0  0  0  0
  6 36  1  0  0  0  0
  6 43  1  0  0  0  0
  7 37  1  0  0  0  0
  7 43  1  0  0  0  0
  8 44  1  0  0  0  0
  8 45  1  0  0  0  0
 13  9  1  1  0  0  0
  9 15  1  0  0  0  0
 10 23  1  0  0  0  0
 10 28  1  0  0  0  0
 10 69  1  0  0  0  0
 11 28  1  0  0  0  0
 11 30  1  0  0  0  0
 11 31  1  0  0  0  0
 12 29  1  0  0  0  0
 12 76  1  0  0  0  0
 12 77  1  0  0  0  0
 13 14  1  0  0  0  0
 13 18  1  0  0  0  0
 13 46  1  0  0  0  0
 14 16  1  0  0  0  0
 14 47  1  0  0  0  0
 14 48  1  0  0  0  0
 15 17  1  0  0  0  0
 15 49  1  0  0  0  0
 15 50  1  0  0  0  0
 16 19  1  0  0  0  0
 16 51  1  0  0  0  0
 16 52  1  0  0  0  0
 17 21  1  0  0  0  0
 17 22  1  0  0  0  0
 17 53  1  0  0  0  0
 18 54  1  0  0  0  0
 18 55  1  0  0  0  0
 19 23  1  0  0  0  0
 19 56  1  0  0  0  0
 19 57  1  0  0  0  0
 20 24  2  0  0  0  0
 20 25  1  0  0  0  0
 21 58  1  0  0  0  0
 21 59  1  0  0  0  0
 21 60  1  0  0  0  0
 22 61  1  0  0  0  0
 22 62  1  0  0  0  0
 22 63  1  0  0  0  0
 23 64  1  0  0  0  0
 23 65  1  0  0  0  0
 24 26  1  0  0  0  0
 24 67  1  0  0  0  0
 25 27  2  0  0  0  0
 25 68  1  0  0  0  0
 26 29  2  0  0  0  0
 26 70  1  0  0  0  0
 27 29  1  0  0  0  0
 27 71  1  0  0  0  0
 30 32  1  0  0  0  0
 30 72  1  0  0  0  0
 30 73  1  0  0  0  0
 31 33  1  0  0  0  0
 31 74  1  0  0  0  0
 31 75  1  0  0  0  0
 32 34  2  0  0  0  0
 32 35  1  0  0  0  0
 33 38  2  0  0  0  0
 33 39  1  0  0  0  0
 34 36  1  0  0  0  0
 34 78  1  0  0  0  0
 35 40  2  0  0  0  0
 35 79  1  0  0  0  0
 36 37  2  0  0  0  0
 37 40  1  0  0  0  0
 38 41  1  0  0  0  0
 38 80  1  0  0  0  0
 39 42  2  0  0  0  0
 39 81  1  0  0  0  0
 40 82  1  0  0  0  0
 41 44  2  0  0  0  0
 41 83  1  0  0  0  0
 42 44  1  0  0  0  0
 42 84  1  0  0  0  0
 43 85  1  0  0  0  0
 43 86  1  0  0  0  0
 45 87  1  0  0  0  0
 45 88  1  0  0  0  0
 45 89  1  0  0  0  0
M  END
> <PUBCHEM_COMPOUND_CID>
513794
> <PUBCHEM_COMPOUND_CANONICALIZED>
1
> <PUBCHEM_CACTVS_COMPLEXITY>
980
> <PUBCHEM_CACTVS_HBOND_ACCEPTOR>
9
> <PUBCHEM_CACTVS_HBOND_DONOR>
3
> <PUBCHEM_CACTVS_ROTATABLE_BOND>
16
> <PUBCHEM_CACTVS_SUBSKEYS>
AAADcfB/uABAAAAAAAAAAAAAAAAAASAAAAAwYMAAAAAAAEgBUAAAHgQQSAAADSzh2Aczz4PABgKIAiRCUHDCCBAgIgAIiJgO7IifNiKEsZukcCps1hOe6Aew0BIOIAQBAAAAQABACAIAAACAAAAAAAAAAA==
> <PUBCHEM_IUPAC_OPENEYE_NAME>
3-[(5S)-5-[(4-aminophenyl)sulfonyl-isobutyl-amino]-6-hydroxy-hexyl]-1-(1,3-benzodioxol-5-ylmethyl)-1-[(4-methoxyphenyl)methyl]urea
> <PUBCHEM_IUPAC_CAS_NAME>
3-[(5S)-5-[(4-aminophenyl)sulfonyl-(2-methylpropyl)amino]-6-hydroxyhexyl]-1-(1,3-benzodioxol-5-ylmethyl)-1-[(4-methoxyphenyl)methyl]urea
> <PUBCHEM_IUPAC_NAME_MARKUP>
3-[(5<I>S</I>)-5-[(4-aminophenyl)sulfonyl-(2-methylpropyl)amino]-6-hydroxyhexyl]-1-(1,3-benzodioxol-5-ylmethyl)-1-[(4-methoxyphenyl)methyl]urea
> <PUBCHEM_IUPAC_NAME>
3-[(5S)-5-[(4-aminophenyl)sulfonyl-(2-methylpropyl)amino]-6-hydroxyhexyl]-1-(1,3-benzodioxol-5-ylmethyl)-1-[(4-methoxyphenyl)methyl]urea
> <PUBCHEM_IUPAC_SYSTEMATIC_NAME>
3-[(5S)-5-[(4-aminophenyl)sulfonyl-(2-methylpropyl)amino]-6-oxidanyl-hexyl]-1-(1,3-benzodioxol-5-ylmethyl)-1-[(4-methoxyphenyl)methyl]urea
> <PUBCHEM_IUPAC_TRADITIONAL_NAME>
3-[(5S)-6-hydroxy-5-[isobutyl(sulfanilyl)amino]hexyl]-1-p-anisyl-1-piperonyl-urea
> <PUBCHEM_IUPAC_INCHI>
InChI=1S/C33H44N4O7S/c1-24(2)19-37(45(40,41)30-14-10-27(34)11-15-30)28(22-38)6-4-5-17-35-33(39)36(20-25-7-12-29(42-3)13-8-25)21-26-9-16-31-32(18-26)44-23-43-31/h7-16,18,24,28,38H,4-6,17,19-23,34H2,1-3H3,(H,35,39)/t28-/m0/s1
> <PUBCHEM_IUPAC_INCHIKEY>
YLZXTYZKINQZLV-NDEPHWFRSA-N
> <PUBCHEM_XLOGP3_AA>
4.3
> <PUBCHEM_EXACT_MASS>
640.29307093
> <PUBCHEM_MOLECULAR_FORMULA>
C33H44N4O7S
> <PUBCHEM_MOLECULAR_WEIGHT>
640.8
> <PUBCHEM_OPENEYE_CAN_SMILES>
CC(C)CN(C(CCCCNC(=O)N(CC1=CC=C(C=C1)OC)CC2=CC3=C(C=C2)OCO3)CO)S(=O)(=O)C4=CC=C(C=C4)N
> <PUBCHEM_OPENEYE_ISO_SMILES>
CC(C)CN([C@@H](CCCCNC(=O)N(CC1=CC=C(C=C1)OC)CC2=CC3=C(C=C2)OCO3)CO)S(=O)(=O)C4=CC=C(C=C4)N
> <PUBCHEM_CACTVS_TPSA>
152
> <PUBCHEM_MONOISOTOPIC_WEIGHT>
640.29307093
> <PUBCHEM_TOTAL_CHARGE>
0
> <PUBCHEM_HEAVY_ATOM_COUNT>
45
> <PUBCHEM_ATOM_DEF_STEREO_COUNT>
1
> <PUBCHEM_ATOM_UDEF_STEREO_COUNT>
0
> <PUBCHEM_BOND_DEF_STEREO_COUNT>
0
> <PUBCHEM_BOND_UDEF_STEREO_COUNT>
0
> <PUBCHEM_ISOTOPIC_ATOM_COUNT>
0
> <PUBCHEM_COMPONENT_COUNT>
1
> <PUBCHEM_CACTVS_TAUTO_COUNT>
-1
> <PUBCHEM_COORDINATE_TYPE>
1
5
255
> <PUBCHEM_BONDANNOTATIONS>
20  24  8
20  25  8
24  26  8
25  27  8
26  29  8
27  29  8
32  34  8
32  35  8
33  38  8
33  39  8
34  36  8
35  40  8
36  37  8
37  40  8
38  41  8
39  42  8
41  44  8
42  44  8
13  9  5
$$$$
