513714
  -OEChem-10302200282D
128141  0     1  0  0  0  0  0999 V2000
    6.3162    2.2815    0.0000 O   0  0  0  0  0  0  0  0  0  0  0  0
   11.7914   -6.2220    0.0000 O   0  0  0  0  0  0  0  0  0  0  0  0
    5.3727    4.7533    0.0000 O   0  0  0  0  0  0  0  0  0  0  0  0
   14.4325   -6.0659    0.0000 O   0  0  0  0  0  0  0  0  0  0  0  0
    4.4704    9.8705    0.0000 O   0  0  0  0  0  0  0  0  0  0  0  0
    7.7256    8.6857    0.0000 O   0  0  0  0  0  0  0  0  0  0  0  0
    6.0980    9.2781    0.0000 O   0  0  0  0  0  0  0  0  0  0  0  0
    6.0980    9.2781    0.0000 O   0  0  0  0  0  0  0  0  0  0  0  0
   19.5841   -6.7451    0.0000 O   0  0  0  0  0  0  0  0  0  0  0  0
   17.4747   -9.4930    0.0000 O   0  0  0  0  0  0  0  0  0  0  0  0
   18.5294   -8.1191    0.0000 O   0  0  0  0  0  0  0  0  0  0  0  0
   18.5294   -8.1191    0.0000 O   0  0  0  0  0  0  0  0  0  0  0  0
    6.2750   -0.3639    0.0000 N   0  0  3  0  0  0  0  0  0  0  0  0
    9.2809   -5.3867    0.0000 N   0  0  0  0  0  0  0  0  0  0  0  0
    5.4140    7.3987    0.0000 N   0  0  0  0  0  0  0  0  0  0  0  0
   16.9429   -6.9012    0.0000 N   0  0  0  0  0  0  0  0  0  0  0  0
    5.5681   -2.5884    0.0000 C   0  0  0  0  0  0  0  0  0  0  0  0
    4.7020   -2.0884    0.0000 C   0  0  0  0  0  0  0  0  0  0  0  0
    5.5841   -3.6299    0.0000 C   0  0  0  0  0  0  0  0  0  0  0  0
    6.4341   -2.0884    0.0000 C   0  0  0  0  0  0  0  0  0  0  0  0
    6.8163   -1.7605    0.0000 C   0  0  0  0  0  0  0  0  0  0  0  0
    3.7920   -2.5952    0.0000 C   0  0  0  0  0  0  0  0  0  0  0  0
    4.7020   -1.0884    0.0000 C   0  0  0  0  0  0  0  0  0  0  0  0
    4.7949   -0.5934    0.0000 C   0  0  0  0  0  0  0  0  0  0  0  0
    6.5722   -3.7370    0.0000 C   0  0  0  0  0  0  0  0  0  0  0  0
    7.0520   -2.8667    0.0000 C   0  0  0  0  0  0  0  0  0  0  0  0
    4.6861   -4.1576    0.0000 C   0  0  0  0  0  0  0  0  0  0  0  0
    6.4341   -1.0884    0.0000 C   0  0  0  0  0  0  0  0  0  0  0  0
    3.7840   -3.6368    0.0000 C   0  0  0  0  0  0  0  0  0  0  0  0
    5.5681   -0.5884    0.0000 C   0  0  0  0  0  0  0  0  0  0  0  0
    3.2052   -1.7931    0.0000 C   0  0  0  0  0  0  0  0  0  0  0  0
    3.7190   -0.9424    0.0000 C   0  0  0  0  0  0  0  0  0  0  0  0
    6.7504   -4.7692    0.0000 C   0  0  0  0  0  0  0  0  0  0  0  0
    7.9528   -2.4721    0.0000 C   0  0  0  0  0  0  0  0  0  0  0  0
    7.7535   -4.8484    0.0000 C   0  0  3  0  0  0  0  0  0  0  0  0
    8.3662   -4.0502    0.0000 C   0  0  3  0  0  0  0  0  0  0  0  0
    4.9633   -5.1678    0.0000 C   0  0  0  0  0  0  0  0  0  0  0  0
    7.3855   -0.8394    0.0000 C   0  0  0  0  0  0  0  0  0  0  0  0
    2.7706   -3.9018    0.0000 C   0  0  0  0  0  0  0  0  0  0  0  0
    5.3080    0.3601    0.0000 C   0  0  0  0  0  0  0  0  0  0  0  0
    3.0833   -4.9018    0.0000 C   0  0  0  0  0  0  0  0  0  0  0  0
    7.0928    0.1113    0.0000 C   0  0  0  0  0  0  0  0  0  0  0  0
    5.9676   -5.4653    0.0000 C   0  0  0  0  0  0  0  0  0  0  0  0
    8.1125   -1.5017    0.0000 C   0  0  0  0  0  0  0  0  0  0  0  0
    2.2222   -2.1549    0.0000 C   0  0  0  0  0  0  0  0  0  0  0  0
    3.6103    0.0350    0.0000 C   0  0  0  0  0  0  0  0  0  0  0  0
    6.6170    0.5758    0.0000 C   0  0  0  0  0  0  0  0  0  0  0  0
    8.3220   -5.6714    0.0000 C   0  0  0  0  0  0  0  0  0  0  0  0
    9.3082   -4.3868    0.0000 C   0  0  0  0  0  0  0  0  0  0  0  0
    2.0107   -3.1808    0.0000 C   0  0  0  0  0  0  0  0  0  0  0  0
    4.3709    0.6585    0.0000 C   0  0  0  0  0  0  0  0  0  0  0  0
    2.0000   -0.5671    0.0000 C   0  0  0  0  0  0  0  0  0  0  0  0
    2.6417    0.1712    0.0000 C   0  0  0  0  0  0  0  0  0  0  0  0
    5.9742    1.3418    0.0000 C   0  0  0  0  0  0  0  0  0  0  0  0
   10.0742   -5.9956    0.0000 C   0  0  0  0  0  0  0  0  0  0  0  0
   10.9981   -5.6131    0.0000 C   0  0  0  0  0  0  0  0  0  0  0  0
    5.6735    3.0476    0.0000 C   0  0  0  0  0  0  0  0  0  0  0  0
    6.0155    3.9873    0.0000 C   0  0  0  0  0  0  0  0  0  0  0  0
   12.7153   -5.8395    0.0000 C   0  0  0  0  0  0  0  0  0  0  0  0
   13.5086   -6.4484    0.0000 C   0  0  0  0  0  0  0  0  0  0  0  0
    5.7147    5.6930    0.0000 C   0  0  0  0  0  0  0  0  0  0  0  0
    5.0719    6.4590    0.0000 C   0  0  0  0  0  0  0  0  0  0  0  0
   15.2257   -6.6748    0.0000 C   0  0  0  0  0  0  0  0  0  0  0  0
   16.1497   -6.2923    0.0000 C   0  0  0  0  0  0  0  0  0  0  0  0
    4.7712    8.1648    0.0000 C   0  0  0  0  0  0  0  0  0  0  0  0
    6.3988    7.5724    0.0000 C   0  0  0  0  0  0  0  0  0  0  0  0
    5.1132    9.1045    0.0000 C   0  0  0  0  0  0  0  0  0  0  0  0
    6.7408    8.5121    0.0000 C   0  0  0  0  0  0  0  0  0  0  0  0
   17.8669   -6.5187    0.0000 C   0  0  0  0  0  0  0  0  0  0  0  0
   16.8122   -7.8926    0.0000 C   0  0  0  0  0  0  0  0  0  0  0  0
   18.6601   -7.1276    0.0000 C   0  0  0  0  0  0  0  0  0  0  0  0
   17.6054   -8.5016    0.0000 C   0  0  0  0  0  0  0  0  0  0  0  0
    7.1209   -2.3005    0.0000 H   0  0  0  0  0  0  0  0  0  0  0  0
    7.3768   -1.4954    0.0000 H   0  0  0  0  0  0  0  0  0  0  0  0
    4.7442    0.0245    0.0000 H   0  0  0  0  0  0  0  0  0  0  0  0
    4.1749   -0.5996    0.0000 H   0  0  0  0  0  0  0  0  0  0  0  0
    7.4441   -5.3857    0.0000 H   0  0  0  0  0  0  0  0  0  0  0  0
    8.8232   -3.6313    0.0000 H   0  0  0  0  0  0  0  0  0  0  0  0
    2.4708   -4.9976    0.0000 H   0  0  0  0  0  0  0  0  0  0  0  0
    3.0879   -5.5218    0.0000 H   0  0  0  0  0  0  0  0  0  0  0  0
    7.7056    0.2058    0.0000 H   0  0  0  0  0  0  0  0  0  0  0  0
    7.0883    0.7313    0.0000 H   0  0  0  0  0  0  0  0  0  0  0  0
    6.1026   -6.0704    0.0000 H   0  0  0  0  0  0  0  0  0  0  0  0
    8.6981   -1.2982    0.0000 H   0  0  0  0  0  0  0  0  0  0  0  0
    7.1540    0.2658    0.0000 H   0  0  0  0  0  0  0  0  0  0  0  0
    7.0156    1.0507    0.0000 H   0  0  0  0  0  0  0  0  0  0  0  0
    7.7777   -5.9682    0.0000 H   0  0  0  0  0  0  0  0  0  0  0  0
    8.5600   -6.2439    0.0000 H   0  0  0  0  0  0  0  0  0  0  0  0
    9.9227   -4.4687    0.0000 H   0  0  0  0  0  0  0  0  0  0  0  0
    9.4542   -3.7842    0.0000 H   0  0  0  0  0  0  0  0  0  0  0  0
    1.4192   -3.3665    0.0000 H   0  0  0  0  0  0  0  0  0  0  0  0
    4.2543    1.2674    0.0000 H   0  0  0  0  0  0  0  0  0  0  0  0
    1.4056   -0.3909    0.0000 H   0  0  0  0  0  0  0  0  0  0  0  0
    2.4245    0.7519    0.0000 H   0  0  0  0  0  0  0  0  0  0  0  0
    5.4373    1.6518    0.0000 H   0  0  0  0  0  0  0  0  0  0  0  0
    5.5757    0.8669    0.0000 H   0  0  0  0  0  0  0  0  0  0  0  0
    9.6170   -6.4144    0.0000 H   0  0  0  0  0  0  0  0  0  0  0  0
   10.4072   -6.5186    0.0000 H   0  0  0  0  0  0  0  0  0  0  0  0
   11.4553   -5.1943    0.0000 H   0  0  0  0  0  0  0  0  0  0  0  0
   10.6651   -5.0901    0.0000 H   0  0  0  0  0  0  0  0  0  0  0  0
    5.1365    3.3576    0.0000 H   0  0  0  0  0  0  0  0  0  0  0  0
    5.2749    2.5726    0.0000 H   0  0  0  0  0  0  0  0  0  0  0  0
    6.5524    3.6773    0.0000 H   0  0  0  0  0  0  0  0  0  0  0  0
    6.4140    4.4622    0.0000 H   0  0  0  0  0  0  0  0  0  0  0  0
   13.1725   -5.4207    0.0000 H   0  0  0  0  0  0  0  0  0  0  0  0
   12.3823   -5.3165    0.0000 H   0  0  0  0  0  0  0  0  0  0  0  0
   13.0514   -6.8672    0.0000 H   0  0  0  0  0  0  0  0  0  0  0  0
   13.8416   -6.9714    0.0000 H   0  0  0  0  0  0  0  0  0  0  0  0
    6.2516    5.3830    0.0000 H   0  0  0  0  0  0  0  0  0  0  0  0
    6.1132    6.1679    0.0000 H   0  0  0  0  0  0  0  0  0  0  0  0
    4.5350    6.7690    0.0000 H   0  0  0  0  0  0  0  0  0  0  0  0
    4.6734    5.9841    0.0000 H   0  0  0  0  0  0  0  0  0  0  0  0
   14.7685   -7.0936    0.0000 H   0  0  0  0  0  0  0  0  0  0  0  0
   15.5588   -7.1978    0.0000 H   0  0  0  0  0  0  0  0  0  0  0  0
   16.6069   -5.8735    0.0000 H   0  0  0  0  0  0  0  0  0  0  0  0
   15.8167   -5.7694    0.0000 H   0  0  0  0  0  0  0  0  0  0  0  0
    4.2342    8.4748    0.0000 H   0  0  0  0  0  0  0  0  0  0  0  0
    4.3726    7.6898    0.0000 H   0  0  0  0  0  0  0  0  0  0  0  0
    6.3988    6.9524    0.0000 H   0  0  0  0  0  0  0  0  0  0  0  0
    7.0093    7.4647    0.0000 H   0  0  0  0  0  0  0  0  0  0  0  0
   18.3241   -6.1000    0.0000 H   0  0  0  0  0  0  0  0  0  0  0  0
   17.5339   -5.9958    0.0000 H   0  0  0  0  0  0  0  0  0  0  0  0
   16.2209   -7.7061    0.0000 H   0  0  0  0  0  0  0  0  0  0  0  0
   16.5258   -8.4425    0.0000 H   0  0  0  0  0  0  0  0  0  0  0  0
    3.8598    9.7628    0.0000 H   0  0  0  0  0  0  0  0  0  0  0  0
    7.9376    9.2683    0.0000 H   0  0  0  0  0  0  0  0  0  0  0  0
   19.6651   -6.1305    0.0000 H   0  0  0  0  0  0  0  0  0  0  0  0
   17.9665   -9.8705    0.0000 H   0  0  0  0  0  0  0  0  0  0  0  0
  1 54  1  0  0  0  0
  1 57  1  0  0  0  0
  2 56  1  0  0  0  0
  2 59  1  0  0  0  0
  3 58  1  0  0  0  0
  3 61  1  0  0  0  0
  4 60  1  0  0  0  0
  4 63  1  0  0  0  0
  5 67  1  0  0  0  0
  5125  1  0  0  0  0
  6 68  1  0  0  0  0
  6126  1  0  0  0  0
  7 67  2  0  0  0  0
  8 68  2  0  0  0  0
  9 71  1  0  0  0  0
  9127  1  0  0  0  0
 10 72  1  0  0  0  0
 10128  1  0  0  0  0
 11 71  2  0  0  0  0
 12 72  2  0  0  0  0
 13 21  1  0  0  0  0
 13 24  1  0  0  0  0
 13 47  1  0  0  0  0
 14 48  1  0  0  0  0
 14 49  1  0  0  0  0
 14 55  1  0  0  0  0
 15 62  1  0  0  0  0
 15 65  1  0  0  0  0
 15 66  1  0  0  0  0
 16 64  1  0  0  0  0
 16 69  1  0  0  0  0
 16 70  1  0  0  0  0
 17 18  1  0  0  0  0
 17 19  1  0  0  0  0
 17 20  1  0  0  0  0
 17 21  1  0  0  0  0
 18 22  1  0  0  0  0
 18 23  1  0  0  0  0
 18 24  1  0  0  0  0
 19 25  1  0  0  0  0
 19 27  2  0  0  0  0
 20 26  1  0  0  0  0
 20 28  2  0  0  0  0
 21 73  1  0  0  0  0
 21 74  1  0  0  0  0
 22 29  1  0  0  0  0
 22 31  2  0  0  0  0
 23 30  1  0  0  0  0
 23 32  2  0  0  0  0
 24 75  1  0  0  0  0
 24 76  1  0  0  0  0
 25 26  1  0  0  0  0
 25 33  2  0  0  0  0
 26 34  2  0  0  0  0
 27 29  1  0  0  0  0
 27 37  1  0  0  0  0
 28 30  1  0  0  0  0
 28 38  1  0  0  0  0
 29 39  2  0  0  0  0
 30 40  2  0  0  0  0
 31 32  1  0  0  0  0
 31 45  1  0  0  0  0
 32 46  1  0  0  0  0
 33 35  1  0  0  0  0
 33 43  1  0  0  0  0
 34 36  1  0  0  0  0
 34 44  1  0  0  0  0
 35 36  1  0  0  0  0
 35 48  1  0  0  0  0
 35 77  1  0  0  0  0
 36 49  1  0  0  0  0
 36 78  1  0  0  0  0
 37 41  1  0  0  0  0
 37 43  2  0  0  0  0
 38 42  1  0  0  0  0
 38 44  2  0  0  0  0
 39 41  1  0  0  0  0
 39 50  1  0  0  0  0
 40 42  1  0  0  0  0
 40 51  1  0  0  0  0
 41 79  1  0  0  0  0
 41 80  1  0  0  0  0
 42 81  1  0  0  0  0
 42 82  1  0  0  0  0
 43 83  1  0  0  0  0
 44 84  1  0  0  0  0
 45 50  2  0  0  0  0
 45 52  1  0  0  0  0
 46 51  2  0  0  0  0
 46 53  1  0  0  0  0
 47 54  1  0  0  0  0
 47 85  1  0  0  0  0
 47 86  1  0  0  0  0
 48 87  1  0  0  0  0
 48 88  1  0  0  0  0
 49 89  1  0  0  0  0
 49 90  1  0  0  0  0
 50 91  1  0  0  0  0
 51 92  1  0  0  0  0
 52 53  2  0  0  0  0
 52 93  1  0  0  0  0
 53 94  1  0  0  0  0
 54 95  1  0  0  0  0
 54 96  1  0  0  0  0
 55 56  1  0  0  0  0
 55 97  1  0  0  0  0
 55 98  1  0  0  0  0
 56 99  1  0  0  0  0
 56100  1  0  0  0  0
 57 58  1  0  0  0  0
 57101  1  0  0  0  0
 57102  1  0  0  0  0
 58103  1  0  0  0  0
 58104  1  0  0  0  0
 59 60  1  0  0  0  0
 59105  1  0  0  0  0
 59106  1  0  0  0  0
 60107  1  0  0  0  0
 60108  1  0  0  0  0
 61 62  1  0  0  0  0
 61109  1  0  0  0  0
 61110  1  0  0  0  0
 62111  1  0  0  0  0
 62112  1  0  0  0  0
 63 64  1  0  0  0  0
 63113  1  0  0  0  0
 63114  1  0  0  0  0
 64115  1  0  0  0  0
 64116  1  0  0  0  0
 65 67  1  0  0  0  0
 65117  1  0  0  0  0
 65118  1  0  0  0  0
 66 68  1  0  0  0  0
 66119  1  0  0  0  0
 66120  1  0  0  0  0
 69 71  1  0  0  0  0
 69121  1  0  0  0  0
 69122  1  0  0  0  0
 70 72  1  0  0  0  0
 70123  1  0  0  0  0
 70124  1  0  0  0  0
M  END
> <PUBCHEM_COMPOUND_CID>
513714
> <PUBCHEM_COMPOUND_CANONICALIZED>
1
> <PUBCHEM_CACTVS_COMPLEXITY>
2030
> <PUBCHEM_CACTVS_HBOND_ACCEPTOR>
16
> <PUBCHEM_CACTVS_HBOND_DONOR>
4
> <PUBCHEM_CACTVS_ROTATABLE_BOND>
26
> <PUBCHEM_CACTVS_SUBSKEYS>
AAADcfB/vAAAAAAAAAAAAAAAAAAAAePGDBAwYMGDAAAAAHjBVAAAHgAACAAADwDhmAYwCMMABgCIAiDSCAACAAAgAAAIiACIAIgLICKAkTGHIAAggACaiAcQgMAPwAACAAAQAACAAAQAACAAAQAACAAAAA==
> <PUBCHEM_IUPAC_OPENEYE_NAME>
2-[2-[2-[2-[25-[2-[2-[2-[bis(carboxymethyl)amino]ethoxy]ethoxy]ethyl]-4,25-diazatetradecacyclo[18.16.1.118,21.02,6.07,35.09,33.011,32.013,30.016,29.022,36.023,27.023,34.027,31.028,38]octatriaconta-1(36),7(35),8,11(32),12,14,16,18(38),20(37),21,28,30,33-tridecaen-4-yl]ethoxy]ethoxy]ethyl-(carboxymethyl)amino]acetic acid
> <PUBCHEM_IUPAC_CAS_NAME>
2-[2-[2-[2-[25-[2-[2-[2-[bis(carboxymethyl)amino]ethoxy]ethoxy]ethyl]-4,25-diazatetradecacyclo[18.16.1.118,21.02,6.07,35.09,33.011,32.013,30.016,29.022,36.023,27.023,34.027,31.028,38]octatriaconta-1(36),7(35),8,11(32),12,14,16,18(38),20(37),21,28,30,33-tridecaen-4-yl]ethoxy]ethoxy]ethyl-(carboxymethyl)amino]acetic acid
> <PUBCHEM_IUPAC_NAME_MARKUP>
2-[2-[2-[2-[25-[2-[2-[2-[bis(carboxymethyl)amino]ethoxy]ethoxy]ethyl]-4,25-diazatetradecacyclo[18.16.1.1<SUP>18,21</SUP>.0<SUP>2,6</SUP>.0<SUP>7,35</SUP>.0<SUP>9,33</SUP>.0<SUP>11,32</SUP>.0<SUP>13,30</SUP>.0<SUP>16,29</SUP>.0<SUP>22,36</SUP>.0<SUP>23,27</SUP>.0<SUP>23,34</SUP>.0<SUP>27,31</SUP>.0<SUP>28,38</SUP>]octatriaconta-1(36),7(35),8,11(32),12,14,16,18(38),20(37),21,28,30,33-tridecaen-4-yl]ethoxy]ethoxy]ethyl-(carboxymethyl)amino]acetic acid
> <PUBCHEM_IUPAC_NAME>
2-[2-[2-[2-[25-[2-[2-[2-[bis(carboxymethyl)amino]ethoxy]ethoxy]ethyl]-4,25-diazatetradecacyclo[18.16.1.118,21.02,6.07,35.09,33.011,32.013,30.016,29.022,36.023,27.023,34.027,31.028,38]octatriaconta-1(36),7(35),8,11(32),12,14,16,18(38),20(37),21,28,30,33-tridecaen-4-yl]ethoxy]ethoxy]ethyl-(carboxymethyl)amino]acetic acid
> <PUBCHEM_IUPAC_SYSTEMATIC_NAME>
2-[2-[2-[2-[25-[2-[2-[2-[bis(2-hydroxy-2-oxoethyl)amino]ethoxy]ethoxy]ethyl]-4,25-diazatetradecacyclo[18.16.1.118,21.02,6.07,35.09,33.011,32.013,30.016,29.022,36.023,27.023,34.027,31.028,38]octatriaconta-1(36),7(35),8,11(32),12,14,16,18(38),20(37),21,28,30,33-tridecaen-4-yl]ethoxy]ethoxy]ethyl-(2-hydroxy-2-oxoethyl)amino]ethanoic acid
> <PUBCHEM_IUPAC_TRADITIONAL_NAME>
2-[2-[2-[2-[25-[2-[2-[2-[bis(carboxymethyl)amino]ethoxy]ethoxy]ethyl]-4,25-diazatetradecacyclo[18.16.1.118,21.02,6.07,35.09,33.011,32.013,30.016,29.022,36.023,27.023,34.027,31.028,38]octatriaconta-1(36),7(35),8,11(32),12,14,16,18(38),20(37),21,28,30,33-tridecaen-4-yl]ethoxy]ethoxy]ethyl-(carboxymethyl)amino]acetic acid
> <PUBCHEM_IUPAC_INCHI>
InChI=1S/C56H56N4O12/c61-39(62)23-58(24-40(63)64)4-8-70-12-11-69-7-3-57-21-37-35-19-33-17-31-15-29-1-2-30-16-32-18-34-20-36(38(37)22-57)50-49(35)53-47(33)45(31)51-43(29)44(30)52-46(32)48(34)54(50)56(53)28-60(27-55(51,52)56)6-10-72-14-13-71-9-5-59(25-41(65)66)26-42(67)68/h1-2,15-16,19-20,37-38H,3-14,17-18,21-28H2,(H,61,62)(H,63,64)(H,65,66)(H,67,68)
> <PUBCHEM_IUPAC_INCHIKEY>
UDDJHFHSCBJFSY-UHFFFAOYSA-N
> <PUBCHEM_XLOGP3_AA>
-5
> <PUBCHEM_EXACT_MASS>
976.38947323
> <PUBCHEM_MOLECULAR_FORMULA>
C56H56N4O12
> <PUBCHEM_MOLECULAR_WEIGHT>
977.1
> <PUBCHEM_OPENEYE_CAN_SMILES>
C1C2C(CN1CCOCCOCCN(CC(=O)O)CC(=O)O)C3=C4C5=C2C=C6CC7=C8C6=C5C91C4=C2C(=C3)CC3=C2C2=C4C(=C3)C=CC(=C7)C4=C8C29CN(C1)CCOCCOCCN(CC(=O)O)CC(=O)O
> <PUBCHEM_OPENEYE_ISO_SMILES>
C1C2C(CN1CCOCCOCCN(CC(=O)O)CC(=O)O)C3=C4C5=C2C=C6CC7=C8C6=C5C91C4=C2C(=C3)CC3=C2C2=C4C(=C3)C=CC(=C7)C4=C8C29CN(C1)CCOCCOCCN(CC(=O)O)CC(=O)O
> <PUBCHEM_CACTVS_TPSA>
199
> <PUBCHEM_MONOISOTOPIC_WEIGHT>
976.38947323
> <PUBCHEM_TOTAL_CHARGE>
0
> <PUBCHEM_HEAVY_ATOM_COUNT>
72
> <PUBCHEM_ATOM_DEF_STEREO_COUNT>
0
> <PUBCHEM_ATOM_UDEF_STEREO_COUNT>
2
> <PUBCHEM_BOND_DEF_STEREO_COUNT>
0
> <PUBCHEM_BOND_UDEF_STEREO_COUNT>
0
> <PUBCHEM_ISOTOPIC_ATOM_COUNT>
0
> <PUBCHEM_COMPONENT_COUNT>
1
> <PUBCHEM_CACTVS_TAUTO_COUNT>
-1
> <PUBCHEM_COORDINATE_TYPE>
1
5
255
> <PUBCHEM_BONDANNOTATIONS>
19  25  8
19  27  8
20  26  8
20  28  8
22  29  8
22  31  8
23  30  8
23  32  8
25  26  8
25  33  8
26  34  8
27  29  8
27  37  8
28  30  8
28  38  8
29  39  8
30  40  8
31  32  8
31  45  8
32  46  8
33  43  8
34  44  8
35  48  3
36  49  3
37  43  8
38  44  8
39  50  8
40  51  8
45  50  8
45  52  8
46  51  8
46  53  8
52  53  8
$$$$
