513733
  -OEChem-10302200282D
 74 75  0     1  0  0  0  0  0999 V2000
    4.5981    0.0000    0.0000 S   0  0  0  0  0  0  0  0  0  0  0  0
    5.5981    0.0000    0.0000 O   0  0  0  0  0  0  0  0  0  0  0  0
    3.5981    0.0000    0.0000 O   0  0  0  0  0  0  0  0  0  0  0  0
    6.3301    3.0000    0.0000 O   0  0  0  0  0  0  0  0  0  0  0  0
    4.5981    3.0000    0.0000 O   0  0  0  0  0  0  0  0  0  0  0  0
   10.6603    2.5000    0.0000 O   0  0  0  0  0  0  0  0  0  0  0  0
    4.5981    1.0000    0.0000 N   0  0  3  0  0  0  0  0  0  0  0  0
    9.7942    1.0000    0.0000 N   0  0  0  0  0  0  0  0  0  0  0  0
   11.5263    1.0000    0.0000 N   0  0  0  0  0  0  0  0  0  0  0  0
   14.1244    2.5000    0.0000 N   0  0  0  0  0  0  0  0  0  0  0  0
    5.4641    1.5000    0.0000 C   0  0  1  0  0  0  0  0  0  0  0  0
    6.3301    1.0000    0.0000 C   0  0  0  0  0  0  0  0  0  0  0  0
    3.7320    1.5000    0.0000 C   0  0  0  0  0  0  0  0  0  0  0  0
    2.8660    1.0000    0.0000 C   0  0  0  0  0  0  0  0  0  0  0  0
    7.1962    1.5000    0.0000 C   0  0  0  0  0  0  0  0  0  0  0  0
    8.0622    1.0000    0.0000 C   0  0  0  0  0  0  0  0  0  0  0  0
    5.4641    2.5000    0.0000 C   0  0  0  0  0  0  0  0  0  0  0  0
    4.5981   -1.0000    0.0000 C   0  0  0  0  0  0  0  0  0  0  0  0
    2.0000    1.5000    0.0000 C   0  0  0  0  0  0  0  0  0  0  0  0
    2.8660    0.0000    0.0000 C   0  0  0  0  0  0  0  0  0  0  0  0
    8.9282    1.5000    0.0000 C   0  0  0  0  0  0  0  0  0  0  0  0
    3.7320   -1.5000    0.0000 C   0  0  0  0  0  0  0  0  0  0  0  0
    5.4641   -1.5000    0.0000 C   0  0  0  0  0  0  0  0  0  0  0  0
    3.7320   -2.5000    0.0000 C   0  0  0  0  0  0  0  0  0  0  0  0
    5.4641   -2.5000    0.0000 C   0  0  0  0  0  0  0  0  0  0  0  0
    4.5981   -3.0000    0.0000 C   0  0  0  0  0  0  0  0  0  0  0  0
    6.3301    4.0000    0.0000 C   0  0  0  0  0  0  0  0  0  0  0  0
   10.6603    1.5000    0.0000 C   0  0  0  0  0  0  0  0  0  0  0  0
    4.5981   -4.0000    0.0000 C   0  0  0  0  0  0  0  0  0  0  0  0
   12.3923    1.5000    0.0000 C   0  0  0  0  0  0  0  0  0  0  0  0
   13.2583    1.0000    0.0000 C   0  0  0  0  0  0  0  0  0  0  0  0
   14.1244    1.5000    0.0000 C   0  0  0  0  0  0  0  0  0  0  0  0
   14.9904    1.0000    0.0000 C   0  0  0  0  0  0  0  0  0  0  0  0
   15.8564    1.5000    0.0000 C   0  0  0  0  0  0  0  0  0  0  0  0
   14.9904    3.0000    0.0000 C   0  0  0  0  0  0  0  0  0  0  0  0
   15.8564    2.5000    0.0000 C   0  0  0  0  0  0  0  0  0  0  0  0
    5.4641    0.8800    0.0000 H   0  0  0  0  0  0  0  0  0  0  0  0
    5.9316    0.5251    0.0000 H   0  0  0  0  0  0  0  0  0  0  0  0
    6.7287    0.5251    0.0000 H   0  0  0  0  0  0  0  0  0  0  0  0
    4.1306    1.9750    0.0000 H   0  0  0  0  0  0  0  0  0  0  0  0
    3.3335    1.9750    0.0000 H   0  0  0  0  0  0  0  0  0  0  0  0
    2.8660    1.6200    0.0000 H   0  0  0  0  0  0  0  0  0  0  0  0
    7.5947    1.9750    0.0000 H   0  0  0  0  0  0  0  0  0  0  0  0
    6.7976    1.9750    0.0000 H   0  0  0  0  0  0  0  0  0  0  0  0
    7.6636    0.5251    0.0000 H   0  0  0  0  0  0  0  0  0  0  0  0
    8.4607    0.5251    0.0000 H   0  0  0  0  0  0  0  0  0  0  0  0
    2.3100    2.0369    0.0000 H   0  0  0  0  0  0  0  0  0  0  0  0
    1.4631    1.8100    0.0000 H   0  0  0  0  0  0  0  0  0  0  0  0
    1.6900    0.9631    0.0000 H   0  0  0  0  0  0  0  0  0  0  0  0
    2.2460    0.0000    0.0000 H   0  0  0  0  0  0  0  0  0  0  0  0
    2.8660   -0.6200    0.0000 H   0  0  0  0  0  0  0  0  0  0  0  0
    3.4860    0.0000    0.0000 H   0  0  0  0  0  0  0  0  0  0  0  0
    9.3267    1.9750    0.0000 H   0  0  0  0  0  0  0  0  0  0  0  0
    8.5297    1.9750    0.0000 H   0  0  0  0  0  0  0  0  0  0  0  0
    3.1951   -1.1900    0.0000 H   0  0  0  0  0  0  0  0  0  0  0  0
    6.0010   -1.1900    0.0000 H   0  0  0  0  0  0  0  0  0  0  0  0
    9.7942    0.3800    0.0000 H   0  0  0  0  0  0  0  0  0  0  0  0
    3.1951   -2.8100    0.0000 H   0  0  0  0  0  0  0  0  0  0  0  0
    6.0010   -2.8100    0.0000 H   0  0  0  0  0  0  0  0  0  0  0  0
    6.9501    4.0000    0.0000 H   0  0  0  0  0  0  0  0  0  0  0  0
    6.3301    4.6200    0.0000 H   0  0  0  0  0  0  0  0  0  0  0  0
    5.7101    4.0000    0.0000 H   0  0  0  0  0  0  0  0  0  0  0  0
    3.9781   -4.0000    0.0000 H   0  0  0  0  0  0  0  0  0  0  0  0
    4.5981   -4.6200    0.0000 H   0  0  0  0  0  0  0  0  0  0  0  0
    5.2181   -4.0000    0.0000 H   0  0  0  0  0  0  0  0  0  0  0  0
   11.5263    0.3800    0.0000 H   0  0  0  0  0  0  0  0  0  0  0  0
   12.7908    1.9750    0.0000 H   0  0  0  0  0  0  0  0  0  0  0  0
   11.9938    1.9750    0.0000 H   0  0  0  0  0  0  0  0  0  0  0  0
   12.8598    0.5251    0.0000 H   0  0  0  0  0  0  0  0  0  0  0  0
   13.6569    0.5251    0.0000 H   0  0  0  0  0  0  0  0  0  0  0  0
   14.9904    0.3800    0.0000 H   0  0  0  0  0  0  0  0  0  0  0  0
   16.3933    1.1900    0.0000 H   0  0  0  0  0  0  0  0  0  0  0  0
   14.9904    3.6200    0.0000 H   0  0  0  0  0  0  0  0  0  0  0  0
   16.3933    2.8100    0.0000 H   0  0  0  0  0  0  0  0  0  0  0  0
  1  2  2  0  0  0  0
  1  3  2  0  0  0  0
  1  7  1  0  0  0  0
  1 18  1  0  0  0  0
  4 17  1  0  0  0  0
  4 27  1  0  0  0  0
  5 17  2  0  0  0  0
  6 28  2  0  0  0  0
 11  7  1  6  0  0  0
  7 13  1  0  0  0  0
  8 21  1  0  0  0  0
  8 28  1  0  0  0  0
  8 57  1  0  0  0  0
  9 28  1  0  0  0  0
  9 30  1  0  0  0  0
  9 66  1  0  0  0  0
 10 32  1  0  0  0  0
 10 35  2  0  0  0  0
 11 12  1  0  0  0  0
 11 17  1  0  0  0  0
 11 37  1  0  0  0  0
 12 15  1  0  0  0  0
 12 38  1  0  0  0  0
 12 39  1  0  0  0  0
 13 14  1  0  0  0  0
 13 40  1  0  0  0  0
 13 41  1  0  0  0  0
 14 19  1  0  0  0  0
 14 20  1  0  0  0  0
 14 42  1  0  0  0  0
 15 16  1  0  0  0  0
 15 43  1  0  0  0  0
 15 44  1  0  0  0  0
 16 21  1  0  0  0  0
 16 45  1  0  0  0  0
 16 46  1  0  0  0  0
 18 22  2  0  0  0  0
 18 23  1  0  0  0  0
 19 47  1  0  0  0  0
 19 48  1  0  0  0  0
 19 49  1  0  0  0  0
 20 50  1  0  0  0  0
 20 51  1  0  0  0  0
 20 52  1  0  0  0  0
 21 53  1  0  0  0  0
 21 54  1  0  0  0  0
 22 24  1  0  0  0  0
 22 55  1  0  0  0  0
 23 25  2  0  0  0  0
 23 56  1  0  0  0  0
 24 26  2  0  0  0  0
 24 58  1  0  0  0  0
 25 26  1  0  0  0  0
 25 59  1  0  0  0  0
 26 29  1  0  0  0  0
 27 60  1  0  0  0  0
 27 61  1  0  0  0  0
 27 62  1  0  0  0  0
 29 63  1  0  0  0  0
 29 64  1  0  0  0  0
 29 65  1  0  0  0  0
 30 31  1  0  0  0  0
 30 67  1  0  0  0  0
 30 68  1  0  0  0  0
 31 32  1  0  0  0  0
 31 69  1  0  0  0  0
 31 70  1  0  0  0  0
 32 33  2  0  0  0  0
 33 34  1  0  0  0  0
 33 71  1  0  0  0  0
 34 36  2  0  0  0  0
 34 72  1  0  0  0  0
 35 36  1  0  0  0  0
 35 73  1  0  0  0  0
 36 74  1  0  0  0  0
M  END
> <PUBCHEM_COMPOUND_CID>
513733
> <PUBCHEM_COMPOUND_CANONICALIZED>
1
> <PUBCHEM_CACTVS_COMPLEXITY>
763
> <PUBCHEM_CACTVS_HBOND_ACCEPTOR>
7
> <PUBCHEM_CACTVS_HBOND_DONOR>
2
> <PUBCHEM_CACTVS_ROTATABLE_BOND>
15
> <PUBCHEM_CACTVS_SUBSKEYS>
AAADcfB7uABAAAAAAAAAAAAAAAAAAAAAAAA8QAAAAAAAAAABwAAAHgQQQAAADSjB3gY/iZLIFAKoAzT3XHDCgDAxAiAI2Lm4ZJiKIPLA0bGFIAhslgLYyAeYyAAOEAAAAAAAAAAgAAAAAAAAAAAAAAAAAA==
> <PUBCHEM_IUPAC_OPENEYE_NAME>
methyl (2S)-2-[isobutyl(p-tolylsulfonyl)amino]-6-[2-(2-pyridyl)ethylcarbamoylamino]hexanoate
> <PUBCHEM_IUPAC_CAS_NAME>
(2S)-2-[(4-methylphenyl)sulfonyl-(2-methylpropyl)amino]-6-[[oxo-[2-(2-pyridinyl)ethylamino]methyl]amino]hexanoic acid methyl ester
> <PUBCHEM_IUPAC_NAME_MARKUP>
methyl (2<I>S</I>)-2-[(4-methylphenyl)sulfonyl-(2-methylpropyl)amino]-6-(2-pyridin-2-ylethylcarbamoylamino)hexanoate
> <PUBCHEM_IUPAC_NAME>
methyl (2S)-2-[(4-methylphenyl)sulfonyl-(2-methylpropyl)amino]-6-(2-pyridin-2-ylethylcarbamoylamino)hexanoate
> <PUBCHEM_IUPAC_SYSTEMATIC_NAME>
methyl (2S)-2-[(4-methylphenyl)sulfonyl-(2-methylpropyl)amino]-6-(2-pyridin-2-ylethylcarbamoylamino)hexanoate
> <PUBCHEM_IUPAC_TRADITIONAL_NAME>
(2S)-2-[isobutyl(tosyl)amino]-6-[2-(2-pyridyl)ethylcarbamoylamino]hexanoic acid methyl ester
> <PUBCHEM_IUPAC_INCHI>
InChI=1S/C26H38N4O5S/c1-20(2)19-30(36(33,34)23-13-11-21(3)12-14-23)24(25(31)35-4)10-6-8-17-28-26(32)29-18-15-22-9-5-7-16-27-22/h5,7,9,11-14,16,20,24H,6,8,10,15,17-19H2,1-4H3,(H2,28,29,32)/t24-/m0/s1
> <PUBCHEM_IUPAC_INCHIKEY>
WEOSGPMUTOYFOU-DEOSSOPVSA-N
> <PUBCHEM_XLOGP3_AA>
3.9
> <PUBCHEM_EXACT_MASS>
518.25629150
> <PUBCHEM_MOLECULAR_FORMULA>
C26H38N4O5S
> <PUBCHEM_MOLECULAR_WEIGHT>
518.7
> <PUBCHEM_OPENEYE_CAN_SMILES>
CC1=CC=C(C=C1)S(=O)(=O)N(CC(C)C)C(CCCCNC(=O)NCCC2=CC=CC=N2)C(=O)OC
> <PUBCHEM_OPENEYE_ISO_SMILES>
CC1=CC=C(C=C1)S(=O)(=O)N(CC(C)C)[C@@H](CCCCNC(=O)NCCC2=CC=CC=N2)C(=O)OC
> <PUBCHEM_CACTVS_TPSA>
126
> <PUBCHEM_MONOISOTOPIC_WEIGHT>
518.25629150
> <PUBCHEM_TOTAL_CHARGE>
0
> <PUBCHEM_HEAVY_ATOM_COUNT>
36
> <PUBCHEM_ATOM_DEF_STEREO_COUNT>
1
> <PUBCHEM_ATOM_UDEF_STEREO_COUNT>
0
> <PUBCHEM_BOND_DEF_STEREO_COUNT>
0
> <PUBCHEM_BOND_UDEF_STEREO_COUNT>
0
> <PUBCHEM_ISOTOPIC_ATOM_COUNT>
0
> <PUBCHEM_COMPONENT_COUNT>
1
> <PUBCHEM_CACTVS_TAUTO_COUNT>
-1
> <PUBCHEM_COORDINATE_TYPE>
1
5
255
> <PUBCHEM_BONDANNOTATIONS>
10  32  8
10  35  8
18  22  8
18  23  8
22  24  8
23  25  8
24  26  8
25  26  8
32  33  8
33  34  8
34  36  8
35  36  8
11  7  6
$$$$
