513785
  -OEChem-10302200282D
 72 74  0     1  0  0  0  0  0999 V2000
    6.0010    0.1900    0.0000 S   0  0  0  0  0  0  0  0  0  0  0  0
    8.5991    1.6900    0.0000 O   0  0  0  0  0  0  0  0  0  0  0  0
    5.5010   -0.6760    0.0000 O   0  0  0  0  0  0  0  0  0  0  0  0
    6.5010    1.0560    0.0000 O   0  0  0  0  0  0  0  0  0  0  0  0
   12.9292    1.1900    0.0000 O   0  0  0  0  0  0  0  0  0  0  0  0
   18.2056   -0.0053    0.0000 O   0  0  0  0  0  0  0  0  0  0  0  0
   18.2056   -1.6147    0.0000 O   0  0  0  0  0  0  0  0  0  0  0  0
    6.8671   -0.3100    0.0000 N   0  0  3  0  0  0  0  0  0  0  0  0
   12.0632   -0.3100    0.0000 N   0  0  0  0  0  0  0  0  0  0  0  0
   13.7953   -0.3100    0.0000 N   0  0  0  0  0  0  0  0  0  0  0  0
    2.5369    2.1900    0.0000 N   0  0  0  0  0  0  0  0  0  0  0  0
    7.7331    0.1900    0.0000 C   0  0  1  0  0  0  0  0  0  0  0  0
    8.5991   -0.3100    0.0000 C   0  0  0  0  0  0  0  0  0  0  0  0
    6.8671   -1.3100    0.0000 C   0  0  0  0  0  0  0  0  0  0  0  0
    7.7331   -1.8100    0.0000 C   0  0  0  0  0  0  0  0  0  0  0  0
    9.4651    0.1900    0.0000 C   0  0  0  0  0  0  0  0  0  0  0  0
    7.7331    1.1900    0.0000 C   0  0  0  0  0  0  0  0  0  0  0  0
   10.3312   -0.3100    0.0000 C   0  0  0  0  0  0  0  0  0  0  0  0
    5.1350    0.6900    0.0000 C   0  0  0  0  0  0  0  0  0  0  0  0
    7.7331   -2.8100    0.0000 C   0  0  0  0  0  0  0  0  0  0  0  0
    8.5991   -1.3100    0.0000 C   0  0  0  0  0  0  0  0  0  0  0  0
   11.1972    0.1900    0.0000 C   0  0  0  0  0  0  0  0  0  0  0  0
    5.1350    1.6900    0.0000 C   0  0  0  0  0  0  0  0  0  0  0  0
    4.2690    0.1900    0.0000 C   0  0  0  0  0  0  0  0  0  0  0  0
    4.2690    2.1900    0.0000 C   0  0  0  0  0  0  0  0  0  0  0  0
    3.4030    0.6900    0.0000 C   0  0  0  0  0  0  0  0  0  0  0  0
    3.4030    1.6900    0.0000 C   0  0  0  0  0  0  0  0  0  0  0  0
   12.9292    0.1900    0.0000 C   0  0  0  0  0  0  0  0  0  0  0  0
   14.6613    0.1900    0.0000 C   0  0  0  0  0  0  0  0  0  0  0  0
   15.5273   -0.3100    0.0000 C   0  0  0  0  0  0  0  0  0  0  0  0
   16.3933    0.1900    0.0000 C   0  0  0  0  0  0  0  0  0  0  0  0
   15.5273   -1.3100    0.0000 C   0  0  0  0  0  0  0  0  0  0  0  0
   17.2594   -0.3100    0.0000 C   0  0  0  0  0  0  0  0  0  0  0  0
   17.2594   -1.3100    0.0000 C   0  0  0  0  0  0  0  0  0  0  0  0
   16.3933   -1.8100    0.0000 C   0  0  0  0  0  0  0  0  0  0  0  0
   18.7892   -0.8100    0.0000 C   0  0  0  0  0  0  0  0  0  0  0  0
    7.7331   -0.4300    0.0000 H   0  0  0  0  0  0  0  0  0  0  0  0
    8.2006   -0.7849    0.0000 H   0  0  0  0  0  0  0  0  0  0  0  0
    8.9976   -0.7849    0.0000 H   0  0  0  0  0  0  0  0  0  0  0  0
    6.2565   -1.2023    0.0000 H   0  0  0  0  0  0  0  0  0  0  0  0
    6.6550   -1.8926    0.0000 H   0  0  0  0  0  0  0  0  0  0  0  0
    7.7331   -1.1900    0.0000 H   0  0  0  0  0  0  0  0  0  0  0  0
    9.8637    0.6649    0.0000 H   0  0  0  0  0  0  0  0  0  0  0  0
    9.0666    0.6649    0.0000 H   0  0  0  0  0  0  0  0  0  0  0  0
    7.5210    1.7726    0.0000 H   0  0  0  0  0  0  0  0  0  0  0  0
    7.1225    1.0823    0.0000 H   0  0  0  0  0  0  0  0  0  0  0  0
    9.9326   -0.7849    0.0000 H   0  0  0  0  0  0  0  0  0  0  0  0
   10.7297   -0.7849    0.0000 H   0  0  0  0  0  0  0  0  0  0  0  0
    7.1131   -2.8100    0.0000 H   0  0  0  0  0  0  0  0  0  0  0  0
    7.7331   -3.4300    0.0000 H   0  0  0  0  0  0  0  0  0  0  0  0
    8.3531   -2.8100    0.0000 H   0  0  0  0  0  0  0  0  0  0  0  0
    8.9091   -1.8469    0.0000 H   0  0  0  0  0  0  0  0  0  0  0  0
    9.1360   -1.0000    0.0000 H   0  0  0  0  0  0  0  0  0  0  0  0
    8.2891   -0.7731    0.0000 H   0  0  0  0  0  0  0  0  0  0  0  0
   11.5957    0.6649    0.0000 H   0  0  0  0  0  0  0  0  0  0  0  0
   10.7987    0.6649    0.0000 H   0  0  0  0  0  0  0  0  0  0  0  0
    8.5991    2.3100    0.0000 H   0  0  0  0  0  0  0  0  0  0  0  0
    5.6720    2.0000    0.0000 H   0  0  0  0  0  0  0  0  0  0  0  0
    4.2690   -0.4300    0.0000 H   0  0  0  0  0  0  0  0  0  0  0  0
   12.0632   -0.9300    0.0000 H   0  0  0  0  0  0  0  0  0  0  0  0
    4.2690    2.8100    0.0000 H   0  0  0  0  0  0  0  0  0  0  0  0
    2.8660    0.3800    0.0000 H   0  0  0  0  0  0  0  0  0  0  0  0
   13.7953   -0.9300    0.0000 H   0  0  0  0  0  0  0  0  0  0  0  0
   15.0598    0.6649    0.0000 H   0  0  0  0  0  0  0  0  0  0  0  0
   14.2628    0.6649    0.0000 H   0  0  0  0  0  0  0  0  0  0  0  0
    2.0000    1.8800    0.0000 H   0  0  0  0  0  0  0  0  0  0  0  0
    2.5369    2.8100    0.0000 H   0  0  0  0  0  0  0  0  0  0  0  0
   16.3933    0.8100    0.0000 H   0  0  0  0  0  0  0  0  0  0  0  0
   14.9904   -1.6200    0.0000 H   0  0  0  0  0  0  0  0  0  0  0  0
   16.3933   -2.4300    0.0000 H   0  0  0  0  0  0  0  0  0  0  0  0
   19.2501   -1.2247    0.0000 H   0  0  0  0  0  0  0  0  0  0  0  0
   19.2501   -0.3953    0.0000 H   0  0  0  0  0  0  0  0  0  0  0  0
  1  3  2  0  0  0  0
  1  4  2  0  0  0  0
  1  8  1  0  0  0  0
  1 19  1  0  0  0  0
  2 17  1  0  0  0  0
  2 57  1  0  0  0  0
  5 28  2  0  0  0  0
  6 33  1  0  0  0  0
  6 36  1  0  0  0  0
  7 34  1  0  0  0  0
  7 36  1  0  0  0  0
 12  8  1  6  0  0  0
  8 14  1  0  0  0  0
  9 22  1  0  0  0  0
  9 28  1  0  0  0  0
  9 60  1  0  0  0  0
 10 28  1  0  0  0  0
 10 29  1  0  0  0  0
 10 63  1  0  0  0  0
 11 27  1  0  0  0  0
 11 66  1  0  0  0  0
 11 67  1  0  0  0  0
 12 13  1  0  0  0  0
 12 17  1  0  0  0  0
 12 37  1  0  0  0  0
 13 16  1  0  0  0  0
 13 38  1  0  0  0  0
 13 39  1  0  0  0  0
 14 15  1  0  0  0  0
 14 40  1  0  0  0  0
 14 41  1  0  0  0  0
 15 20  1  0  0  0  0
 15 21  1  0  0  0  0
 15 42  1  0  0  0  0
 16 18  1  0  0  0  0
 16 43  1  0  0  0  0
 16 44  1  0  0  0  0
 17 45  1  0  0  0  0
 17 46  1  0  0  0  0
 18 22  1  0  0  0  0
 18 47  1  0  0  0  0
 18 48  1  0  0  0  0
 19 23  2  0  0  0  0
 19 24  1  0  0  0  0
 20 49  1  0  0  0  0
 20 50  1  0  0  0  0
 20 51  1  0  0  0  0
 21 52  1  0  0  0  0
 21 53  1  0  0  0  0
 21 54  1  0  0  0  0
 22 55  1  0  0  0  0
 22 56  1  0  0  0  0
 23 25  1  0  0  0  0
 23 58  1  0  0  0  0
 24 26  2  0  0  0  0
 24 59  1  0  0  0  0
 25 27  2  0  0  0  0
 25 61  1  0  0  0  0
 26 27  1  0  0  0  0
 26 62  1  0  0  0  0
 29 30  1  0  0  0  0
 29 64  1  0  0  0  0
 29 65  1  0  0  0  0
 30 31  2  0  0  0  0
 30 32  1  0  0  0  0
 31 33  1  0  0  0  0
 31 68  1  0  0  0  0
 32 35  2  0  0  0  0
 32 69  1  0  0  0  0
 33 34  2  0  0  0  0
 34 35  1  0  0  0  0
 35 70  1  0  0  0  0
 36 71  1  0  0  0  0
 36 72  1  0  0  0  0
M  END
> <PUBCHEM_COMPOUND_CID>
513785
> <PUBCHEM_COMPOUND_CANONICALIZED>
1
> <PUBCHEM_CACTVS_COMPLEXITY>
769
> <PUBCHEM_CACTVS_HBOND_ACCEPTOR>
8
> <PUBCHEM_CACTVS_HBOND_DONOR>
4
> <PUBCHEM_CACTVS_ROTATABLE_BOND>
13
> <PUBCHEM_CACTVS_SUBSKEYS>
AAADcfB7uABAAAAAAAAAAAAAAAAAASAAAAAwYAAAAAAAAEgBQAAAHgQQSAAADSzh2Aczz4LABgKIAiRCUHDCCBAgIgAIiJgO7IifNiKEsZukcCps1hOe6Aew0BIOIAQBAAAAQABACAIAAACAAAAAAAAAAA==
> <PUBCHEM_IUPAC_OPENEYE_NAME>
1-[(5S)-5-[(4-aminophenyl)sulfonyl-isobutyl-amino]-6-hydroxy-hexyl]-3-(1,3-benzodioxol-5-ylmethyl)urea
> <PUBCHEM_IUPAC_CAS_NAME>
1-[(5S)-5-[(4-aminophenyl)sulfonyl-(2-methylpropyl)amino]-6-hydroxyhexyl]-3-(1,3-benzodioxol-5-ylmethyl)urea
> <PUBCHEM_IUPAC_NAME_MARKUP>
1-[(5<I>S</I>)-5-[(4-aminophenyl)sulfonyl-(2-methylpropyl)amino]-6-hydroxyhexyl]-3-(1,3-benzodioxol-5-ylmethyl)urea
> <PUBCHEM_IUPAC_NAME>
1-[(5S)-5-[(4-aminophenyl)sulfonyl-(2-methylpropyl)amino]-6-hydroxyhexyl]-3-(1,3-benzodioxol-5-ylmethyl)urea
> <PUBCHEM_IUPAC_SYSTEMATIC_NAME>
1-[(5S)-5-[(4-aminophenyl)sulfonyl-(2-methylpropyl)amino]-6-oxidanyl-hexyl]-3-(1,3-benzodioxol-5-ylmethyl)urea
> <PUBCHEM_IUPAC_TRADITIONAL_NAME>
1-[(5S)-6-hydroxy-5-[isobutyl(sulfanilyl)amino]hexyl]-3-piperonyl-urea
> <PUBCHEM_IUPAC_INCHI>
InChI=1S/C25H36N4O6S/c1-18(2)15-29(36(32,33)22-9-7-20(26)8-10-22)21(16-30)5-3-4-12-27-25(31)28-14-19-6-11-23-24(13-19)35-17-34-23/h6-11,13,18,21,30H,3-5,12,14-17,26H2,1-2H3,(H2,27,28,31)/t21-/m0/s1
> <PUBCHEM_IUPAC_INCHIKEY>
CVFTWRWZKHDIOU-NRFANRHFSA-N
> <PUBCHEM_XLOGP3_AA>
2.6
> <PUBCHEM_EXACT_MASS>
520.23555605
> <PUBCHEM_MOLECULAR_FORMULA>
C25H36N4O6S
> <PUBCHEM_MOLECULAR_WEIGHT>
520.6
> <PUBCHEM_OPENEYE_CAN_SMILES>
CC(C)CN(C(CCCCNC(=O)NCC1=CC2=C(C=C1)OCO2)CO)S(=O)(=O)C3=CC=C(C=C3)N
> <PUBCHEM_OPENEYE_ISO_SMILES>
CC(C)CN([C@@H](CCCCNC(=O)NCC1=CC2=C(C=C1)OCO2)CO)S(=O)(=O)C3=CC=C(C=C3)N
> <PUBCHEM_CACTVS_TPSA>
152
> <PUBCHEM_MONOISOTOPIC_WEIGHT>
520.23555605
> <PUBCHEM_TOTAL_CHARGE>
0
> <PUBCHEM_HEAVY_ATOM_COUNT>
36
> <PUBCHEM_ATOM_DEF_STEREO_COUNT>
1
> <PUBCHEM_ATOM_UDEF_STEREO_COUNT>
0
> <PUBCHEM_BOND_DEF_STEREO_COUNT>
0
> <PUBCHEM_BOND_UDEF_STEREO_COUNT>
0
> <PUBCHEM_ISOTOPIC_ATOM_COUNT>
0
> <PUBCHEM_COMPONENT_COUNT>
1
> <PUBCHEM_CACTVS_TAUTO_COUNT>
-1
> <PUBCHEM_COORDINATE_TYPE>
1
5
255
> <PUBCHEM_BONDANNOTATIONS>
19  23  8
19  24  8
23  25  8
24  26  8
25  27  8
26  27  8
30  31  8
30  32  8
31  33  8
32  35  8
33  34  8
34  35  8
12  8  6
$$$$
