513737
  -OEChem-10302200282D
 73 75  0     1  0  0  0  0  0999 V2000
   11.1241    3.1127    0.0000 S   0  0  0  0  0  0  0  0  0  0  0  0
   10.9179    4.0912    0.0000 O   0  0  0  0  0  0  0  0  0  0  0  0
   11.3303    2.1342    0.0000 O   0  0  0  0  0  0  0  0  0  0  0  0
   10.1921    0.2612    0.0000 O   0  0  0  0  0  0  0  0  0  0  0  0
   11.4813    1.4179    0.0000 O   0  0  0  0  0  0  0  0  0  0  0  0
    6.6353   -2.2585    0.0000 O   0  0  0  0  0  0  0  0  0  0  0  0
   10.1456    2.9065    0.0000 N   0  0  3  0  0  0  0  0  0  0  0  0
    4.9889   -1.7204    0.0000 N   0  0  0  0  0  0  0  0  0  0  0  0
    6.2781   -0.5637    0.0000 N   0  0  0  0  0  0  0  0  0  0  0  0
    4.6783   -2.6710    0.0000 C   0  0  2  0  0  0  0  0  0  0  0  0
    9.8349    1.9560    0.0000 C   0  0  1  0  0  0  0  0  0  0  0  0
    5.2619   -3.4757    0.0000 C   0  0  0  0  0  0  0  0  0  0  0  0
    4.6783   -4.2804    0.0000 C   0  0  0  0  0  0  0  0  0  0  0  0
    3.7320   -2.9757    0.0000 C   0  0  0  0  0  0  0  0  0  0  0  0
    8.8564    1.7498    0.0000 C   0  0  0  0  0  0  0  0  0  0  0  0
    9.4778    3.6508    0.0000 C   0  0  0  0  0  0  0  0  0  0  0  0
    3.7320   -3.9757    0.0000 C   0  0  0  0  0  0  0  0  0  0  0  0
    8.5458    0.7993    0.0000 C   0  0  0  0  0  0  0  0  0  0  0  0
    8.4993    3.4446    0.0000 C   0  0  0  0  0  0  0  0  0  0  0  0
    7.5673    0.5930    0.0000 C   0  0  0  0  0  0  0  0  0  0  0  0
    2.8660   -2.4757    0.0000 C   0  0  0  0  0  0  0  0  0  0  0  0
    7.2566   -0.3575    0.0000 C   0  0  0  0  0  0  0  0  0  0  0  0
    2.8660   -4.4757    0.0000 C   0  0  0  0  0  0  0  0  0  0  0  0
   10.5028    1.2117    0.0000 C   0  0  0  0  0  0  0  0  0  0  0  0
   12.1026    3.3190    0.0000 C   0  0  0  0  0  0  0  0  0  0  0  0
    7.8314    4.1889    0.0000 C   0  0  0  0  0  0  0  0  0  0  0  0
    8.1886    2.4941    0.0000 C   0  0  0  0  0  0  0  0  0  0  0  0
    5.9674   -1.5142    0.0000 C   0  0  0  0  0  0  0  0  0  0  0  0
    2.0000   -2.9757    0.0000 C   0  0  0  0  0  0  0  0  0  0  0  0
    2.0000   -3.9757    0.0000 C   0  0  0  0  0  0  0  0  0  0  0  0
   12.7705    2.5746    0.0000 C   0  0  0  0  0  0  0  0  0  0  0  0
   12.4133    4.2695    0.0000 C   0  0  0  0  0  0  0  0  0  0  0  0
   13.7490    2.7809    0.0000 C   0  0  0  0  0  0  0  0  0  0  0  0
   13.3918    4.4757    0.0000 C   0  0  0  0  0  0  0  0  0  0  0  0
   14.0596    3.7314    0.0000 C   0  0  0  0  0  0  0  0  0  0  0  0
   15.0381    3.9376    0.0000 C   0  0  0  0  0  0  0  0  0  0  0  0
    5.2908   -2.5748    0.0000 H   0  0  0  0  0  0  0  0  0  0  0  0
   10.4416    2.0838    0.0000 H   0  0  0  0  0  0  0  0  0  0  0  0
    5.7227   -3.8904    0.0000 H   0  0  0  0  0  0  0  0  0  0  0  0
    5.7227   -3.0610    0.0000 H   0  0  0  0  0  0  0  0  0  0  0  0
    4.4272   -4.8473    0.0000 H   0  0  0  0  0  0  0  0  0  0  0  0
    5.2156   -4.5896    0.0000 H   0  0  0  0  0  0  0  0  0  0  0  0
    8.8359    2.3694    0.0000 H   0  0  0  0  0  0  0  0  0  0  0  0
    8.2426    1.8371    0.0000 H   0  0  0  0  0  0  0  0  0  0  0  0
   10.0041    3.9785    0.0000 H   0  0  0  0  0  0  0  0  0  0  0  0
    9.2465    4.2261    0.0000 H   0  0  0  0  0  0  0  0  0  0  0  0
    8.5663    0.1796    0.0000 H   0  0  0  0  0  0  0  0  0  0  0  0
    9.1596    0.7119    0.0000 H   0  0  0  0  0  0  0  0  0  0  0  0
    7.8926    3.3167    0.0000 H   0  0  0  0  0  0  0  0  0  0  0  0
    7.5467    1.2127    0.0000 H   0  0  0  0  0  0  0  0  0  0  0  0
    6.9534    0.6804    0.0000 H   0  0  0  0  0  0  0  0  0  0  0  0
    4.5749   -1.2590    0.0000 H   0  0  0  0  0  0  0  0  0  0  0  0
    7.2772   -0.9771    0.0000 H   0  0  0  0  0  0  0  0  0  0  0  0
    7.8704   -0.4448    0.0000 H   0  0  0  0  0  0  0  0  0  0  0  0
    2.8660   -1.8557    0.0000 H   0  0  0  0  0  0  0  0  0  0  0  0
    2.8660   -5.0957    0.0000 H   0  0  0  0  0  0  0  0  0  0  0  0
    8.2929    4.6030    0.0000 H   0  0  0  0  0  0  0  0  0  0  0  0
    7.4174    4.6504    0.0000 H   0  0  0  0  0  0  0  0  0  0  0  0
    7.3700    3.7748    0.0000 H   0  0  0  0  0  0  0  0  0  0  0  0
    7.5993    2.6867    0.0000 H   0  0  0  0  0  0  0  0  0  0  0  0
    7.9960    1.9048    0.0000 H   0  0  0  0  0  0  0  0  0  0  0  0
    8.7779    2.3015    0.0000 H   0  0  0  0  0  0  0  0  0  0  0  0
    5.8640   -0.1022    0.0000 H   0  0  0  0  0  0  0  0  0  0  0  0
    1.4631   -2.6657    0.0000 H   0  0  0  0  0  0  0  0  0  0  0  0
    1.4631   -4.2857    0.0000 H   0  0  0  0  0  0  0  0  0  0  0  0
   12.5779    1.9853    0.0000 H   0  0  0  0  0  0  0  0  0  0  0  0
   11.9992    4.7309    0.0000 H   0  0  0  0  0  0  0  0  0  0  0  0
   10.6062   -0.2003    0.0000 H   0  0  0  0  0  0  0  0  0  0  0  0
   14.1630    2.3194    0.0000 H   0  0  0  0  0  0  0  0  0  0  0  0
   13.5844    5.0650    0.0000 H   0  0  0  0  0  0  0  0  0  0  0  0
   15.1660    3.3309    0.0000 H   0  0  0  0  0  0  0  0  0  0  0  0
   15.6448    4.0655    0.0000 H   0  0  0  0  0  0  0  0  0  0  0  0
   14.9103    4.5443    0.0000 H   0  0  0  0  0  0  0  0  0  0  0  0
  1  2  2  0  0  0  0
  1  3  2  0  0  0  0
  1  7  1  0  0  0  0
  1 25  1  0  0  0  0
  4 24  1  0  0  0  0
  4 68  1  0  0  0  0
  5 24  2  0  0  0  0
  6 28  2  0  0  0  0
 11  7  1  6  0  0  0
  7 16  1  0  0  0  0
 10  8  1  6  0  0  0
  8 28  1  0  0  0  0
  8 52  1  0  0  0  0
  9 22  1  0  0  0  0
  9 28  1  0  0  0  0
  9 63  1  0  0  0  0
 10 12  1  0  0  0  0
 10 14  1  0  0  0  0
 10 37  1  0  0  0  0
 11 15  1  0  0  0  0
 11 24  1  0  0  0  0
 11 38  1  0  0  0  0
 12 13  1  0  0  0  0
 12 39  1  0  0  0  0
 12 40  1  0  0  0  0
 13 17  1  0  0  0  0
 13 41  1  0  0  0  0
 13 42  1  0  0  0  0
 14 17  1  0  0  0  0
 14 21  2  0  0  0  0
 15 18  1  0  0  0  0
 15 43  1  0  0  0  0
 15 44  1  0  0  0  0
 16 19  1  0  0  0  0
 16 45  1  0  0  0  0
 16 46  1  0  0  0  0
 17 23  2  0  0  0  0
 18 20  1  0  0  0  0
 18 47  1  0  0  0  0
 18 48  1  0  0  0  0
 19 26  1  0  0  0  0
 19 27  1  0  0  0  0
 19 49  1  0  0  0  0
 20 22  1  0  0  0  0
 20 50  1  0  0  0  0
 20 51  1  0  0  0  0
 21 29  1  0  0  0  0
 21 55  1  0  0  0  0
 22 53  1  0  0  0  0
 22 54  1  0  0  0  0
 23 30  1  0  0  0  0
 23 56  1  0  0  0  0
 25 31  2  0  0  0  0
 25 32  1  0  0  0  0
 26 57  1  0  0  0  0
 26 58  1  0  0  0  0
 26 59  1  0  0  0  0
 27 60  1  0  0  0  0
 27 61  1  0  0  0  0
 27 62  1  0  0  0  0
 29 30  2  0  0  0  0
 29 64  1  0  0  0  0
 30 65  1  0  0  0  0
 31 33  1  0  0  0  0
 31 66  1  0  0  0  0
 32 34  2  0  0  0  0
 32 67  1  0  0  0  0
 33 35  2  0  0  0  0
 33 69  1  0  0  0  0
 34 35  1  0  0  0  0
 34 70  1  0  0  0  0
 35 36  1  0  0  0  0
 36 71  1  0  0  0  0
 36 72  1  0  0  0  0
 36 73  1  0  0  0  0
M  END
> <PUBCHEM_COMPOUND_CID>
513737
> <PUBCHEM_COMPOUND_CANONICALIZED>
1
> <PUBCHEM_CACTVS_COMPLEXITY>
820
> <PUBCHEM_CACTVS_HBOND_ACCEPTOR>
6
> <PUBCHEM_CACTVS_HBOND_DONOR>
3
> <PUBCHEM_CACTVS_ROTATABLE_BOND>
12
> <PUBCHEM_CACTVS_SUBSKEYS>
AAADcfB7OABAAAAAAAAAAAAAAAAAAYAAAAAwYAAAAAAAAGABQAAAHgQQSAAADSjB2AQzCYLAAgKIAiDSGHDCABAgAAAIiJmIBIiKIDKAkTGEYAhslgKYiAeYyIAOkAAAAAAQAAAgAAAAACAAACAACQAAAA==
> <PUBCHEM_IUPAC_OPENEYE_NAME>
(2S)-6-[[(1R)-indan-1-yl]carbamoylamino]-2-[isobutyl(p-tolylsulfonyl)amino]hexanoic acid
> <PUBCHEM_IUPAC_CAS_NAME>
(2S)-6-[[[[(1R)-2,3-dihydro-1H-inden-1-yl]amino]-oxomethyl]amino]-2-[(4-methylphenyl)sulfonyl-(2-methylpropyl)amino]hexanoic acid
> <PUBCHEM_IUPAC_NAME_MARKUP>
(2<I>S</I>)-6-[[(1<I>R</I>)-2,3-dihydro-1<I>H</I>-inden-1-yl]carbamoylamino]-2-[(4-methylphenyl)sulfonyl-(2-methylpropyl)amino]hexanoic acid
> <PUBCHEM_IUPAC_NAME>
(2S)-6-[[(1R)-2,3-dihydro-1H-inden-1-yl]carbamoylamino]-2-[(4-methylphenyl)sulfonyl-(2-methylpropyl)amino]hexanoic acid
> <PUBCHEM_IUPAC_SYSTEMATIC_NAME>
(2S)-6-[[(1R)-2,3-dihydro-1H-inden-1-yl]carbamoylamino]-2-[(4-methylphenyl)sulfonyl-(2-methylpropyl)amino]hexanoic acid
> <PUBCHEM_IUPAC_TRADITIONAL_NAME>
(2S)-6-[[(1R)-indan-1-yl]carbamoylamino]-2-[isobutyl(tosyl)amino]hexanoic acid
> <PUBCHEM_IUPAC_INCHI>
InChI=1S/C27H37N3O5S/c1-19(2)18-30(36(34,35)22-14-11-20(3)12-15-22)25(26(31)32)10-6-7-17-28-27(33)29-24-16-13-21-8-4-5-9-23(21)24/h4-5,8-9,11-12,14-15,19,24-25H,6-7,10,13,16-18H2,1-3H3,(H,31,32)(H2,28,29,33)/t24-,25+/m1/s1
> <PUBCHEM_IUPAC_INCHIKEY>
MJYLJPGMVMERII-RPBOFIJWSA-N
> <PUBCHEM_XLOGP3_AA>
4.5
> <PUBCHEM_EXACT_MASS>
515.24539246
> <PUBCHEM_MOLECULAR_FORMULA>
C27H37N3O5S
> <PUBCHEM_MOLECULAR_WEIGHT>
515.7
> <PUBCHEM_OPENEYE_CAN_SMILES>
CC1=CC=C(C=C1)S(=O)(=O)N(CC(C)C)C(CCCCNC(=O)NC2CCC3=CC=CC=C23)C(=O)O
> <PUBCHEM_OPENEYE_ISO_SMILES>
CC1=CC=C(C=C1)S(=O)(=O)N(CC(C)C)[C@@H](CCCCNC(=O)N[C@@H]2CCC3=CC=CC=C23)C(=O)O
> <PUBCHEM_CACTVS_TPSA>
124
> <PUBCHEM_MONOISOTOPIC_WEIGHT>
515.24539246
> <PUBCHEM_TOTAL_CHARGE>
0
> <PUBCHEM_HEAVY_ATOM_COUNT>
36
> <PUBCHEM_ATOM_DEF_STEREO_COUNT>
2
> <PUBCHEM_ATOM_UDEF_STEREO_COUNT>
0
> <PUBCHEM_BOND_DEF_STEREO_COUNT>
0
> <PUBCHEM_BOND_UDEF_STEREO_COUNT>
0
> <PUBCHEM_ISOTOPIC_ATOM_COUNT>
0
> <PUBCHEM_COMPONENT_COUNT>
1
> <PUBCHEM_CACTVS_TAUTO_COUNT>
-1
> <PUBCHEM_COORDINATE_TYPE>
1
5
255
> <PUBCHEM_BONDANNOTATIONS>
14  17  8
14  21  8
17  23  8
21  29  8
23  30  8
25  31  8
25  32  8
29  30  8
31  33  8
32  34  8
33  35  8
34  35  8
11  7  6
10  8  6
$$$$
