513703
  -OEChem-10302200282D
114125  0     1  0  0  0  0  0999 V2000
    2.7189   12.0468    0.0000 Cl  0  5  0  0  0  0  0  0  0  0  0  0
    0.0000   12.0468    0.0000 Cl  0  5  0  0  0  0  0  0  0  0  0  0
   10.4181    4.5877    0.0000 O   0  0  0  0  0  0  0  0  0  0  0  0
    9.6783   18.9530    0.0000 O   0  0  0  0  0  0  0  0  0  0  0  0
   12.3357    2.7649    0.0000 O   0  0  0  0  0  0  0  0  0  0  0  0
   10.4026   21.4977    0.0000 O   0  0  0  0  0  0  0  0  0  0  0  0
    9.3140    6.9921    0.0000 N   0  3  3  0  0  0  0  0  0  0  0  0
    9.9502   16.3212    0.0000 N   0  3  3  0  0  0  0  0  0  0  0  0
   13.4398    0.3605    0.0000 N   0  0  0  0  0  0  0  0  0  0  0  0
   10.1308   24.1294    0.0000 N   0  0  0  0  0  0  0  0  0  0  0  0
   10.0682    9.3034    0.0000 C   0  0  3  0  0  0  0  0  0  0  0  0
   10.9663    8.7757    0.0000 C   0  0  3  0  0  0  0  0  0  0  0  0
    8.7614    8.4511    0.0000 C   0  0  0  0  0  0  0  0  0  0  0  0
   10.0843   10.3449    0.0000 C   0  0  0  0  0  0  0  0  0  0  0  0
   10.8575    7.2193    0.0000 C   0  0  0  0  0  0  0  0  0  0  0  0
    8.7255    9.4010    0.0000 C   0  0  0  0  0  0  0  0  0  0  0  0
    9.2183   10.8449    0.0000 C   0  0  0  0  0  0  0  0  0  0  0  0
    8.3243   10.3103    0.0000 C   0  0  0  0  0  0  0  0  0  0  0  0
   10.9503   10.8449    0.0000 C   0  0  0  0  0  0  0  0  0  0  0  0
   11.8683    9.2965    0.0000 C   0  0  0  0  0  0  0  0  0  0  0  0
    9.2183   11.8449    0.0000 C   0  0  0  0  0  0  0  0  0  0  0  0
   11.8603   10.3381    0.0000 C   0  0  0  0  0  0  0  0  0  0  0  0
   10.4713    7.8710    0.0000 C   0  0  0  0  0  0  0  0  0  0  0  0
   10.9503   11.8449    0.0000 C   0  0  0  0  0  0  0  0  0  0  0  0
   10.0843   12.3449    0.0000 C   0  0  0  0  0  0  0  0  0  0  0  0
    7.9207    8.7306    0.0000 C   0  0  0  0  0  0  0  0  0  0  0  0
    9.4109    5.9968    0.0000 C   0  0  0  0  0  0  0  0  0  0  0  0
    7.4182   10.8241    0.0000 C   0  0  0  0  0  0  0  0  0  0  0  0
    8.3243   12.3796    0.0000 C   0  0  0  0  0  0  0  0  0  0  0  0
   10.1449   14.7590    0.0000 C   0  0  3  0  0  0  0  0  0  0  0  0
    9.7192   13.2692    0.0000 C   0  0  0  0  0  0  0  0  0  0  0  0
    9.1847   14.9456    0.0000 C   0  0  3  0  0  0  0  0  0  0  0  0
    8.7255   13.2888    0.0000 C   0  0  0  0  0  0  0  0  0  0  0  0
    8.3974    6.5924    0.0000 C   0  0  0  0  0  0  0  0  0  0  0  0
    7.4182   11.8657    0.0000 C   0  0  0  0  0  0  0  0  0  0  0  0
   11.6417   12.5444    0.0000 C   0  0  0  0  0  0  0  0  0  0  0  0
   12.4471   11.1402    0.0000 C   0  0  0  0  0  0  0  0  0  0  0  0
   10.5113   13.8521    0.0000 C   0  0  0  0  0  0  0  0  0  0  0  0
    9.4560    7.6912    0.0000 C   0  0  0  0  0  0  0  0  0  0  0  0
    7.9207   13.9593    0.0000 C   0  0  0  0  0  0  0  0  0  0  0  0
    6.6821   10.0790    0.0000 C   0  0  0  0  0  0  0  0  0  0  0  0
   10.6140   15.6107    0.0000 C   0  0  0  0  0  0  0  0  0  0  0  0
    9.0686   15.9110    0.0000 C   0  0  0  0  0  0  0  0  0  0  0  0
    6.6821   12.6109    0.0000 C   0  0  0  0  0  0  0  0  0  0  0  0
    6.9265    9.0604    0.0000 C   0  0  0  0  0  0  0  0  0  0  0  0
   11.4315   13.5051    0.0000 C   0  0  0  0  0  0  0  0  0  0  0  0
    5.9724   11.8401    0.0000 C   0  0  0  0  0  0  0  0  0  0  0  0
    6.9265   13.6294    0.0000 C   0  0  0  0  0  0  0  0  0  0  0  0
   10.3213    5.5830    0.0000 C   0  0  0  0  0  0  0  0  0  0  0  0
    9.5275   17.2275    0.0000 C   0  0  0  0  0  0  0  0  0  0  0  0
   10.6815   17.0033    0.0000 C   0  0  0  0  0  0  0  0  0  0  0  0
   10.1010   18.0467    0.0000 C   0  0  0  0  0  0  0  0  0  0  0  0
   11.3285    4.1740    0.0000 C   0  0  0  0  0  0  0  0  0  0  0  0
   11.4254    3.1787    0.0000 C   0  0  0  0  0  0  0  0  0  0  0  0
   10.2518   19.7722    0.0000 C   0  0  0  0  0  0  0  0  0  0  0  0
    9.8291   20.6785    0.0000 C   0  0  0  0  0  0  0  0  0  0  0  0
   12.4326    1.7696    0.0000 C   0  0  0  0  0  0  0  0  0  0  0  0
   13.3430    1.3558    0.0000 C   0  0  0  0  0  0  0  0  0  0  0  0
    9.9799   22.4039    0.0000 C   0  0  0  0  0  0  0  0  0  0  0  0
   10.5534   23.2231    0.0000 C   0  0  0  0  0  0  0  0  0  0  0  0
    8.4610    8.9934    0.0000 H   0  0  0  0  0  0  0  0  0  0  0  0
    8.1989    8.1904    0.0000 H   0  0  0  0  0  0  0  0  0  0  0  0
   10.9035    6.6010    0.0000 H   0  0  0  0  0  0  0  0  0  0  0  0
   11.4775    7.2207    0.0000 H   0  0  0  0  0  0  0  0  0  0  0  0
   12.4065    8.9886    0.0000 H   0  0  0  0  0  0  0  0  0  0  0  0
   10.8330    7.3674    0.0000 H   0  0  0  0  0  0  0  0  0  0  0  0
    8.7927    6.0448    0.0000 H   0  0  0  0  0  0  0  0  0  0  0  0
    9.2562    5.3964    0.0000 H   0  0  0  0  0  0  0  0  0  0  0  0
   10.7638   14.7220    0.0000 H   0  0  0  0  0  0  0  0  0  0  0  0
    8.6122   15.1837    0.0000 H   0  0  0  0  0  0  0  0  0  0  0  0
    8.1496    7.1608    0.0000 H   0  0  0  0  0  0  0  0  0  0  0  0
    7.8290    6.3446    0.0000 H   0  0  0  0  0  0  0  0  0  0  0  0
    8.6452    6.0241    0.0000 H   0  0  0  0  0  0  0  0  0  0  0  0
   12.8917   10.7081    0.0000 H   0  0  0  0  0  0  0  0  0  0  0  0
   12.9368   11.5204    0.0000 H   0  0  0  0  0  0  0  0  0  0  0  0
    9.3268    7.0848    0.0000 H   0  0  0  0  0  0  0  0  0  0  0  0
   11.1226   15.2562    0.0000 H   0  0  0  0  0  0  0  0  0  0  0  0
   11.0200   16.0793    0.0000 H   0  0  0  0  0  0  0  0  0  0  0  0
    8.8675   16.4975    0.0000 H   0  0  0  0  0  0  0  0  0  0  0  0
    8.4642   15.7727    0.0000 H   0  0  0  0  0  0  0  0  0  0  0  0
    6.4700    8.6410    0.0000 H   0  0  0  0  0  0  0  0  0  0  0  0
   11.9006   13.9106    0.0000 H   0  0  0  0  0  0  0  0  0  0  0  0
    5.5832   12.3226    0.0000 H   0  0  0  0  0  0  0  0  0  0  0  0
    5.4378   11.5261    0.0000 H   0  0  0  0  0  0  0  0  0  0  0  0
    6.4700   14.0489    0.0000 H   0  0  0  0  0  0  0  0  0  0  0  0
   10.9394    5.5350    0.0000 H   0  0  0  0  0  0  0  0  0  0  0  0
   10.4759    6.1834    0.0000 H   0  0  0  0  0  0  0  0  0  0  0  0
    9.0890   17.6659    0.0000 H   0  0  0  0  0  0  0  0  0  0  0  0
    9.0196   16.8719    0.0000 H   0  0  0  0  0  0  0  0  0  0  0  0
   11.1044   16.5499    0.0000 H   0  0  0  0  0  0  0  0  0  0  0  0
   11.1349   17.4262    0.0000 H   0  0  0  0  0  0  0  0  0  0  0  0
   10.2586   17.4567    0.0000 H   0  0  0  0  0  0  0  0  0  0  0  0
   10.5394   17.6083    0.0000 H   0  0  0  0  0  0  0  0  0  0  0  0
   10.6088   18.4024    0.0000 H   0  0  0  0  0  0  0  0  0  0  0  0
   11.9466    4.1260    0.0000 H   0  0  0  0  0  0  0  0  0  0  0  0
   11.4831    4.7744    0.0000 H   0  0  0  0  0  0  0  0  0  0  0  0
   10.8072    3.2267    0.0000 H   0  0  0  0  0  0  0  0  0  0  0  0
   11.2707    2.5783    0.0000 H   0  0  0  0  0  0  0  0  0  0  0  0
   10.6903   19.3338    0.0000 H   0  0  0  0  0  0  0  0  0  0  0  0
   10.7597   20.1278    0.0000 H   0  0  0  0  0  0  0  0  0  0  0  0
    9.3907   21.1168    0.0000 H   0  0  0  0  0  0  0  0  0  0  0  0
    9.3213   20.3228    0.0000 H   0  0  0  0  0  0  0  0  0  0  0  0
   11.8145    1.8176    0.0000 H   0  0  0  0  0  0  0  0  0  0  0  0
   12.2780    1.1692    0.0000 H   0  0  0  0  0  0  0  0  0  0  0  0
   13.9611    1.3078    0.0000 H   0  0  0  0  0  0  0  0  0  0  0  0
   13.4976    1.9563    0.0000 H   0  0  0  0  0  0  0  0  0  0  0  0
    9.5415   22.8423    0.0000 H   0  0  0  0  0  0  0  0  0  0  0  0
    9.4721   22.0483    0.0000 H   0  0  0  0  0  0  0  0  0  0  0  0
   10.9919   22.7848    0.0000 H   0  0  0  0  0  0  0  0  0  0  0  0
   11.0613   23.5788    0.0000 H   0  0  0  0  0  0  0  0  0  0  0  0
   14.0043    0.1040    0.0000 H   0  0  0  0  0  0  0  0  0  0  0  0
   12.9355    0.0000    0.0000 H   0  0  0  0  0  0  0  0  0  0  0  0
   10.4863   24.6373    0.0000 H   0  0  0  0  0  0  0  0  0  0  0  0
    9.5131   24.1834    0.0000 H   0  0  0  0  0  0  0  0  0  0  0  0
  3 49  1  0  0  0  0
  3 53  1  0  0  0  0
  4 52  1  0  0  0  0
  4 55  1  0  0  0  0
  5 54  1  0  0  0  0
  5 57  1  0  0  0  0
  6 56  1  0  0  0  0
  6 59  1  0  0  0  0
  7 13  1  0  0  0  0
  7 15  1  0  0  0  0
  7 27  1  0  0  0  0
  7 34  1  0  0  0  0
  8 42  1  0  0  0  0
  8 43  1  0  0  0  0
  8 50  1  0  0  0  0
  8 51  1  0  0  0  0
  9 58  1  0  0  0  0
  9111  1  0  0  0  0
  9112  1  0  0  0  0
 10 60  1  0  0  0  0
 10113  1  0  0  0  0
 10114  1  0  0  0  0
 11 12  1  0  0  0  0
 11 13  1  0  0  0  0
 11 14  1  0  0  0  0
 11 16  1  0  0  0  0
 12 15  1  0  0  0  0
 12 20  1  0  0  0  0
 12 23  1  0  0  0  0
 13 61  1  0  0  0  0
 13 62  1  0  0  0  0
 14 17  1  0  0  0  0
 14 19  2  0  0  0  0
 15 63  1  0  0  0  0
 15 64  1  0  0  0  0
 16 18  1  0  0  0  0
 16 26  2  0  0  0  0
 17 18  2  0  0  0  0
 17 21  1  0  0  0  0
 18 28  1  0  0  0  0
 19 22  1  0  0  0  0
 19 24  1  0  0  0  0
 20 22  2  0  0  0  0
 20 65  1  0  0  0  0
 21 25  1  0  0  0  0
 21 29  2  0  0  0  0
 22 37  1  0  0  0  0
 23 39  2  0  0  0  0
 23 66  1  0  0  0  0
 24 25  2  0  0  0  0
 24 36  1  0  0  0  0
 25 31  1  0  0  0  0
 26 39  1  0  0  0  0
 26 45  1  0  0  0  0
 27 49  1  0  0  0  0
 27 67  1  0  0  0  0
 27 68  1  0  0  0  0
 28 35  2  0  0  0  0
 28 41  1  0  0  0  0
 29 33  1  0  0  0  0
 29 35  1  0  0  0  0
 30 32  1  0  0  0  0
 30 38  1  0  0  0  0
 30 42  1  0  0  0  0
 30 69  1  0  0  0  0
 31 33  1  0  0  0  0
 31 38  2  0  0  0  0
 32 40  1  0  0  0  0
 32 43  1  0  0  0  0
 32 70  1  0  0  0  0
 33 40  2  0  0  0  0
 34 71  1  0  0  0  0
 34 72  1  0  0  0  0
 34 73  1  0  0  0  0
 35 44  1  0  0  0  0
 36 37  1  0  0  0  0
 36 46  2  0  0  0  0
 37 74  1  0  0  0  0
 37 75  1  0  0  0  0
 38 46  1  0  0  0  0
 39 76  1  0  0  0  0
 40 48  1  0  0  0  0
 41 45  2  0  0  0  0
 41 47  1  0  0  0  0
 42 77  1  0  0  0  0
 42 78  1  0  0  0  0
 43 79  1  0  0  0  0
 43 80  1  0  0  0  0
 44 47  1  0  0  0  0
 44 48  2  0  0  0  0
 45 81  1  0  0  0  0
 46 82  1  0  0  0  0
 47 83  1  0  0  0  0
 47 84  1  0  0  0  0
 48 85  1  0  0  0  0
 49 86  1  0  0  0  0
 49 87  1  0  0  0  0
 50 52  1  0  0  0  0
 50 88  1  0  0  0  0
 50 89  1  0  0  0  0
 51 90  1  0  0  0  0
 51 91  1  0  0  0  0
 51 92  1  0  0  0  0
 52 93  1  0  0  0  0
 52 94  1  0  0  0  0
 53 54  1  0  0  0  0
 53 95  1  0  0  0  0
 53 96  1  0  0  0  0
 54 97  1  0  0  0  0
 54 98  1  0  0  0  0
 55 56  1  0  0  0  0
 55 99  1  0  0  0  0
 55100  1  0  0  0  0
 56101  1  0  0  0  0
 56102  1  0  0  0  0
 57 58  1  0  0  0  0
 57103  1  0  0  0  0
 57104  1  0  0  0  0
 58105  1  0  0  0  0
 58106  1  0  0  0  0
 59 60  1  0  0  0  0
 59107  1  0  0  0  0
 59108  1  0  0  0  0
 60109  1  0  0  0  0
 60110  1  0  0  0  0
M  CHG  4   1  -1   2  -1   7   1   8   1
M  END
> <PUBCHEM_COMPOUND_CID>
513703
> <PUBCHEM_COMPOUND_CANONICALIZED>
1
> <PUBCHEM_CACTVS_COMPLEXITY>
1770
> <PUBCHEM_CACTVS_HBOND_ACCEPTOR>
8
> <PUBCHEM_CACTVS_HBOND_DONOR>
2
> <PUBCHEM_CACTVS_ROTATABLE_BOND>
16
> <PUBCHEM_CACTVS_SUBSKEYS>
AAADcfB/uAAGAAAAAAAAAAAAAAAAAePGDBAwYMGDAAAAAHjBVAAAHgAQAAAADwDhmAYyAMNABACAAiBCAAACAAAgAAAIiIAIAIgLICKAkRGHIAAgkACaiAcQgMAPwAACAAAQAACAAAQAACAAAQAACAAAAA==
> <PUBCHEM_IUPAC_OPENEYE_NAME>
2-[2-[2-[35-[2-[2-(2-aminoethoxy)ethoxy]ethyl]-13,35-dimethyl-13,35-diazoniatetradecacyclo[18.16.1.118,21.01,33.04,32.06,30.08,29.010,27.011,15.016,26.022,33.023,31.024,28.025,38]octatriaconta-2,4(32),5,8,10(27),16(26),17,20(37),21,23(31),24(28),25(38),29-tridecaen-13-yl]ethoxy]ethoxy]ethanamine;dichloride
> <PUBCHEM_IUPAC_CAS_NAME>
2-[2-[2-[35-[2-[2-(2-aminoethoxy)ethoxy]ethyl]-13,35-dimethyl-13,35-diazoniatetradecacyclo[18.16.1.118,21.01,33.04,32.06,30.08,29.010,27.011,15.016,26.022,33.023,31.024,28.025,38]octatriaconta-2,4(32),5,8,10(27),16(26),17,20(37),21,23(31),24(28),25(38),29-tridecaen-13-yl]ethoxy]ethoxy]ethanamine;dichloride
> <PUBCHEM_IUPAC_NAME_MARKUP>
2-[2-[2-[35-[2-[2-(2-aminoethoxy)ethoxy]ethyl]-13,35-dimethyl-13,35-diazoniatetradecacyclo[18.16.1.1<SUP>18,21</SUP>.0<SUP>1,33</SUP>.0<SUP>4,32</SUP>.0<SUP>6,30</SUP>.0<SUP>8,29</SUP>.0<SUP>10,27</SUP>.0<SUP>11,15</SUP>.0<SUP>16,26</SUP>.0<SUP>22,33</SUP>.0<SUP>23,31</SUP>.0<SUP>24,28</SUP>.0<SUP>25,38</SUP>]octatriaconta-2,4(32),5,8,10(27),16(26),17,20(37),21,23(31),24(28),25(38),29-tridecaen-13-yl]ethoxy]ethoxy]ethanamine;dichloride
> <PUBCHEM_IUPAC_NAME>
2-[2-[2-[35-[2-[2-(2-aminoethoxy)ethoxy]ethyl]-13,35-dimethyl-13,35-diazoniatetradecacyclo[18.16.1.118,21.01,33.04,32.06,30.08,29.010,27.011,15.016,26.022,33.023,31.024,28.025,38]octatriaconta-2,4(32),5,8,10(27),16(26),17,20(37),21,23(31),24(28),25(38),29-tridecaen-13-yl]ethoxy]ethoxy]ethanamine;dichloride
> <PUBCHEM_IUPAC_SYSTEMATIC_NAME>
2-[2-[2-[35-[2-[2-(2-azanylethoxy)ethoxy]ethyl]-13,35-dimethyl-13,35-diazoniatetradecacyclo[18.16.1.118,21.01,33.04,32.06,30.08,29.010,27.011,15.016,26.022,33.023,31.024,28.025,38]octatriaconta-2,4(32),5,8,10(27),16(26),17,20(37),21,23(31),24(28),25(38),29-tridecaen-13-yl]ethoxy]ethoxy]ethanamine;dichloride
> <PUBCHEM_IUPAC_TRADITIONAL_NAME>
2-[2-[2-[13-[2-[2-(2-aminoethoxy)ethoxy]ethyl]-13,35-dimethyl-13,35-diazoniatetradecacyclo[18.16.1.118,21.01,33.04,32.06,30.08,29.010,27.011,15.016,26.022,33.023,31.024,28.025,38]octatriaconta-2,4(32),5,8,10(27),16(26),17,20(37),21,23(31),24(28),25(38),29-tridecaen-35-yl]ethoxy]ethoxy]ethylamine;dichloride
> <PUBCHEM_IUPAC_INCHI>
InChI=1S/C50H54N4O4.2ClH/c1-53(7-11-57-15-13-55-9-5-51)23-34-32-20-29-18-28-17-27-3-4-49-22-31-19-30-21-33(35(34)24-53)41-40(32)42-36(29)37(28)45-46-44(42)43(41)38(30)39(31)48(46)50(49,47(27)45)26-54(2,25-49)8-12-58-16-14-56-10-6-52;;/h3-4,17,20-22,34-35H,5-16,18-19,23-26,51-52H2,1-2H3;2*1H/q+2;;/p-2
> <PUBCHEM_IUPAC_INCHIKEY>
AOYSPXMZXJEAOK-UHFFFAOYSA-L
> <PUBCHEM_EXACT_MASS>
844.3522116
> <PUBCHEM_MOLECULAR_FORMULA>
C50H54Cl2N4O4
> <PUBCHEM_MOLECULAR_WEIGHT>
845.9
> <PUBCHEM_OPENEYE_CAN_SMILES>
C[N+]1(CC2C(C1)C3=C4C5=C2C=C6CC7=CC8=C9C1=C2C(=C5C6=C71)C4=C1C(=C3)CC3=CC4(C9(C2=C31)C[N+](C4)(C)CCOCCOCCN)C=C8)CCOCCOCCN.[Cl-].[Cl-]
> <PUBCHEM_OPENEYE_ISO_SMILES>
C[N+]1(CC2C(C1)C3=C4C5=C2C=C6CC7=CC8=C9C1=C2C(=C5C6=C71)C4=C1C(=C3)CC3=CC4(C9(C2=C31)C[N+](C4)(C)CCOCCOCCN)C=C8)CCOCCOCCN.[Cl-].[Cl-]
> <PUBCHEM_CACTVS_TPSA>
89
> <PUBCHEM_MONOISOTOPIC_WEIGHT>
844.3522116
> <PUBCHEM_TOTAL_CHARGE>
0
> <PUBCHEM_HEAVY_ATOM_COUNT>
60
> <PUBCHEM_ATOM_DEF_STEREO_COUNT>
0
> <PUBCHEM_ATOM_UDEF_STEREO_COUNT>
6
> <PUBCHEM_BOND_DEF_STEREO_COUNT>
0
> <PUBCHEM_BOND_UDEF_STEREO_COUNT>
0
> <PUBCHEM_ISOTOPIC_ATOM_COUNT>
0
> <PUBCHEM_COMPONENT_COUNT>
3
> <PUBCHEM_CACTVS_TAUTO_COUNT>
-1
> <PUBCHEM_COORDINATE_TYPE>
1
5
255
> <PUBCHEM_BONDANNOTATIONS>
11  13  3
12  15  3
14  17  8
14  19  8
16  18  8
16  26  8
17  18  8
17  21  8
18  28  8
19  24  8
21  25  8
21  29  8
24  25  8
24  36  8
25  31  8
26  45  8
28  35  8
28  41  8
29  33  8
29  35  8
30  42  3
31  38  8
32  43  3
33  40  8
35  44  8
36  46  8
38  46  8
40  48  8
41  45  8
44  48  8
7  34  3
8  51  3
$$$$
