513798
  -OEChem-10302200282D
 85 88  0     1  0  0  0  0  0999 V2000
    6.0010    3.2912    0.0000 S   0  0  0  0  0  0  0  0  0  0  0  0
    9.3606   -5.7033    0.0000 S   0  0  0  0  0  0  0  0  0  0  0  0
    6.0010    0.2912    0.0000 O   0  0  0  0  0  0  0  0  0  0  0  0
    6.5010    4.1572    0.0000 O   0  0  0  0  0  0  0  0  0  0  0  0
    5.5010    2.4252    0.0000 O   0  0  0  0  0  0  0  0  0  0  0  0
    8.5991   -3.2088    0.0000 O   0  0  0  0  0  0  0  0  0  0  0  0
   14.7415   -2.9040    0.0000 O   0  0  0  0  0  0  0  0  0  0  0  0
   14.7415   -4.5135    0.0000 O   0  0  0  0  0  0  0  0  0  0  0  0
    6.8671    2.7912    0.0000 N   0  0  3  0  0  0  0  0  0  0  0  0
    9.4651   -1.7088    0.0000 N   0  0  0  0  0  0  0  0  0  0  0  0
   10.3312   -3.2088    0.0000 N   0  0  0  0  0  0  0  0  0  0  0  0
    2.5369    5.2912    0.0000 N   0  0  0  0  0  0  0  0  0  0  0  0
    6.8671    1.7912    0.0000 C   0  0  1  0  0  0  0  0  0  0  0  0
    7.7331    1.2912    0.0000 C   0  0  0  0  0  0  0  0  0  0  0  0
    7.7331    3.2912    0.0000 C   0  0  0  0  0  0  0  0  0  0  0  0
    8.5991    2.7912    0.0000 C   0  0  0  0  0  0  0  0  0  0  0  0
    7.7331    0.2912    0.0000 C   0  0  0  0  0  0  0  0  0  0  0  0
    6.0010    1.2912    0.0000 C   0  0  0  0  0  0  0  0  0  0  0  0
    9.4651    3.2912    0.0000 C   0  0  0  0  0  0  0  0  0  0  0  0
    8.5991   -0.2088    0.0000 C   0  0  0  0  0  0  0  0  0  0  0  0
    5.1350    3.7912    0.0000 C   0  0  0  0  0  0  0  0  0  0  0  0
    8.5991   -1.2088    0.0000 C   0  0  0  0  0  0  0  0  0  0  0  0
   10.3312    2.7912    0.0000 C   0  0  0  0  0  0  0  0  0  0  0  0
    9.4651    4.2912    0.0000 C   0  0  0  0  0  0  0  0  0  0  0  0
    5.1350    4.7912    0.0000 C   0  0  0  0  0  0  0  0  0  0  0  0
    4.2690    3.2912    0.0000 C   0  0  0  0  0  0  0  0  0  0  0  0
    4.2690    5.2912    0.0000 C   0  0  0  0  0  0  0  0  0  0  0  0
    3.4030    3.7912    0.0000 C   0  0  0  0  0  0  0  0  0  0  0  0
    9.4651   -2.7088    0.0000 C   0  0  0  0  0  0  0  0  0  0  0  0
    3.4030    4.7912    0.0000 C   0  0  0  0  0  0  0  0  0  0  0  0
   11.1972   -2.7088    0.0000 C   0  0  0  0  0  0  0  0  0  0  0  0
   10.3312   -4.2088    0.0000 C   0  0  0  0  0  0  0  0  0  0  0  0
   12.0632   -3.2088    0.0000 C   0  0  0  0  0  0  0  0  0  0  0  0
    9.4651   -4.7088    0.0000 C   0  0  0  0  0  0  0  0  0  0  0  0
   12.9292   -2.7088    0.0000 C   0  0  0  0  0  0  0  0  0  0  0  0
   12.0632   -4.2088    0.0000 C   0  0  0  0  0  0  0  0  0  0  0  0
   13.7953   -3.2088    0.0000 C   0  0  0  0  0  0  0  0  0  0  0  0
   13.7953   -4.2088    0.0000 C   0  0  0  0  0  0  0  0  0  0  0  0
   12.9292   -4.7088    0.0000 C   0  0  0  0  0  0  0  0  0  0  0  0
    8.5516   -4.3021    0.0000 C   0  0  0  0  0  0  0  0  0  0  0  0
   15.3251   -3.7088    0.0000 C   0  0  0  0  0  0  0  0  0  0  0  0
    7.8825   -5.0452    0.0000 C   0  0  0  0  0  0  0  0  0  0  0  0
    8.3825   -5.9112    0.0000 C   0  0  0  0  0  0  0  0  0  0  0  0
    6.3301    2.1012    0.0000 H   0  0  0  0  0  0  0  0  0  0  0  0
    8.3437    1.1836    0.0000 H   0  0  0  0  0  0  0  0  0  0  0  0
    7.9451    1.8738    0.0000 H   0  0  0  0  0  0  0  0  0  0  0  0
    8.1316    3.7662    0.0000 H   0  0  0  0  0  0  0  0  0  0  0  0
    7.3346    3.7662    0.0000 H   0  0  0  0  0  0  0  0  0  0  0  0
    8.2006    2.3163    0.0000 H   0  0  0  0  0  0  0  0  0  0  0  0
    8.9976    2.3163    0.0000 H   0  0  0  0  0  0  0  0  0  0  0  0
    7.1225    0.3989    0.0000 H   0  0  0  0  0  0  0  0  0  0  0  0
    7.5210   -0.2914    0.0000 H   0  0  0  0  0  0  0  0  0  0  0  0
    5.7890    1.8738    0.0000 H   0  0  0  0  0  0  0  0  0  0  0  0
    5.3905    1.1836    0.0000 H   0  0  0  0  0  0  0  0  0  0  0  0
   10.0021    3.6012    0.0000 H   0  0  0  0  0  0  0  0  0  0  0  0
    9.2097   -0.3164    0.0000 H   0  0  0  0  0  0  0  0  0  0  0  0
    8.8112    0.3738    0.0000 H   0  0  0  0  0  0  0  0  0  0  0  0
    7.9885   -1.1011    0.0000 H   0  0  0  0  0  0  0  0  0  0  0  0
    8.3871   -1.7914    0.0000 H   0  0  0  0  0  0  0  0  0  0  0  0
   10.0212    2.2543    0.0000 H   0  0  0  0  0  0  0  0  0  0  0  0
   10.8681    2.4812    0.0000 H   0  0  0  0  0  0  0  0  0  0  0  0
   10.6412    3.3282    0.0000 H   0  0  0  0  0  0  0  0  0  0  0  0
   10.0851    4.2912    0.0000 H   0  0  0  0  0  0  0  0  0  0  0  0
    9.4651    4.9112    0.0000 H   0  0  0  0  0  0  0  0  0  0  0  0
    8.8451    4.2912    0.0000 H   0  0  0  0  0  0  0  0  0  0  0  0
    5.4641   -0.0188    0.0000 H   0  0  0  0  0  0  0  0  0  0  0  0
    5.6720    5.1012    0.0000 H   0  0  0  0  0  0  0  0  0  0  0  0
    4.2690    2.6712    0.0000 H   0  0  0  0  0  0  0  0  0  0  0  0
   10.0021   -1.3988    0.0000 H   0  0  0  0  0  0  0  0  0  0  0  0
    4.2690    5.9112    0.0000 H   0  0  0  0  0  0  0  0  0  0  0  0
    2.8660    3.4812    0.0000 H   0  0  0  0  0  0  0  0  0  0  0  0
   11.5957   -2.2338    0.0000 H   0  0  0  0  0  0  0  0  0  0  0  0
   10.7987   -2.2338    0.0000 H   0  0  0  0  0  0  0  0  0  0  0  0
   10.5432   -4.7914    0.0000 H   0  0  0  0  0  0  0  0  0  0  0  0
   10.9417   -4.1011    0.0000 H   0  0  0  0  0  0  0  0  0  0  0  0
    2.5369    5.9112    0.0000 H   0  0  0  0  0  0  0  0  0  0  0  0
    2.0000    4.9812    0.0000 H   0  0  0  0  0  0  0  0  0  0  0  0
   12.9292   -2.0888    0.0000 H   0  0  0  0  0  0  0  0  0  0  0  0
   11.5263   -4.5188    0.0000 H   0  0  0  0  0  0  0  0  0  0  0  0
   12.9292   -5.3288    0.0000 H   0  0  0  0  0  0  0  0  0  0  0  0
    8.4227   -3.6956    0.0000 H   0  0  0  0  0  0  0  0  0  0  0  0
   15.7860   -4.1235    0.0000 H   0  0  0  0  0  0  0  0  0  0  0  0
   15.7860   -3.2940    0.0000 H   0  0  0  0  0  0  0  0  0  0  0  0
    7.2659   -4.9804    0.0000 H   0  0  0  0  0  0  0  0  0  0  0  0
    8.1303   -6.4776    0.0000 H   0  0  0  0  0  0  0  0  0  0  0  0
  1  4  2  0  0  0  0
  1  5  2  0  0  0  0
  1  9  1  0  0  0  0
  1 21  1  0  0  0  0
  2 34  1  0  0  0  0
  2 43  1  0  0  0  0
  3 18  1  0  0  0  0
  3 66  1  0  0  0  0
  6 29  2  0  0  0  0
  7 37  1  0  0  0  0
  7 41  1  0  0  0  0
  8 38  1  0  0  0  0
  8 41  1  0  0  0  0
 13  9  1  1  0  0  0
  9 15  1  0  0  0  0
 10 22  1  0  0  0  0
 10 29  1  0  0  0  0
 10 69  1  0  0  0  0
 11 29  1  0  0  0  0
 11 31  1  0  0  0  0
 11 32  1  0  0  0  0
 12 30  1  0  0  0  0
 12 76  1  0  0  0  0
 12 77  1  0  0  0  0
 13 14  1  0  0  0  0
 13 18  1  0  0  0  0
 13 44  1  0  0  0  0
 14 17  1  0  0  0  0
 14 45  1  0  0  0  0
 14 46  1  0  0  0  0
 15 16  1  0  0  0  0
 15 47  1  0  0  0  0
 15 48  1  0  0  0  0
 16 19  1  0  0  0  0
 16 49  1  0  0  0  0
 16 50  1  0  0  0  0
 17 20  1  0  0  0  0
 17 51  1  0  0  0  0
 17 52  1  0  0  0  0
 18 53  1  0  0  0  0
 18 54  1  0  0  0  0
 19 23  1  0  0  0  0
 19 24  1  0  0  0  0
 19 55  1  0  0  0  0
 20 22  1  0  0  0  0
 20 56  1  0  0  0  0
 20 57  1  0  0  0  0
 21 25  2  0  0  0  0
 21 26  1  0  0  0  0
 22 58  1  0  0  0  0
 22 59  1  0  0  0  0
 23 60  1  0  0  0  0
 23 61  1  0  0  0  0
 23 62  1  0  0  0  0
 24 63  1  0  0  0  0
 24 64  1  0  0  0  0
 24 65  1  0  0  0  0
 25 27  1  0  0  0  0
 25 67  1  0  0  0  0
 26 28  2  0  0  0  0
 26 68  1  0  0  0  0
 27 30  2  0  0  0  0
 27 70  1  0  0  0  0
 28 30  1  0  0  0  0
 28 71  1  0  0  0  0
 31 33  1  0  0  0  0
 31 72  1  0  0  0  0
 31 73  1  0  0  0  0
 32 34  1  0  0  0  0
 32 74  1  0  0  0  0
 32 75  1  0  0  0  0
 33 35  2  0  0  0  0
 33 36  1  0  0  0  0
 34 40  2  0  0  0  0
 35 37  1  0  0  0  0
 35 78  1  0  0  0  0
 36 39  2  0  0  0  0
 36 79  1  0  0  0  0
 37 38  2  0  0  0  0
 38 39  1  0  0  0  0
 39 80  1  0  0  0  0
 40 42  1  0  0  0  0
 40 81  1  0  0  0  0
 41 82  1  0  0  0  0
 41 83  1  0  0  0  0
 42 43  2  0  0  0  0
 42 84  1  0  0  0  0
 43 85  1  0  0  0  0
M  END
> <PUBCHEM_COMPOUND_CID>
513798
> <PUBCHEM_COMPOUND_CANONICALIZED>
1
> <PUBCHEM_CACTVS_COMPLEXITY>
943
> <PUBCHEM_CACTVS_HBOND_ACCEPTOR>
9
> <PUBCHEM_CACTVS_HBOND_DONOR>
3
> <PUBCHEM_CACTVS_ROTATABLE_BOND>
16
> <PUBCHEM_CACTVS_SUBSKEYS>
AAADcfB7uABgAAAAAAAAAAAAAAAAASJAAAAwYAAAAAAAAEgB0AAAHgQQSAAADSzl2Aezz4PABgqMAiRCUHDDCJAgKhBIiJgO7IifNiKksZukcCps1hO+6Aew0BIOIAQBAAAAQABACAIAAACAAAAAAAAAAA==
> <PUBCHEM_IUPAC_OPENEYE_NAME>
3-[(5S)-5-[(4-aminophenyl)sulfonyl-isopentyl-amino]-6-hydroxy-hexyl]-1-(1,3-benzodioxol-5-ylmethyl)-1-(2-thienylmethyl)urea
> <PUBCHEM_IUPAC_CAS_NAME>
3-[(5S)-5-[(4-aminophenyl)sulfonyl-(3-methylbutyl)amino]-6-hydroxyhexyl]-1-(1,3-benzodioxol-5-ylmethyl)-1-(thiophen-2-ylmethyl)urea
> <PUBCHEM_IUPAC_NAME_MARKUP>
3-[(5<I>S</I>)-5-[(4-aminophenyl)sulfonyl-(3-methylbutyl)amino]-6-hydroxyhexyl]-1-(1,3-benzodioxol-5-ylmethyl)-1-(thiophen-2-ylmethyl)urea
> <PUBCHEM_IUPAC_NAME>
3-[(5S)-5-[(4-aminophenyl)sulfonyl-(3-methylbutyl)amino]-6-hydroxyhexyl]-1-(1,3-benzodioxol-5-ylmethyl)-1-(thiophen-2-ylmethyl)urea
> <PUBCHEM_IUPAC_SYSTEMATIC_NAME>
3-[(5S)-5-[(4-aminophenyl)sulfonyl-(3-methylbutyl)amino]-6-oxidanyl-hexyl]-1-(1,3-benzodioxol-5-ylmethyl)-1-(thiophen-2-ylmethyl)urea
> <PUBCHEM_IUPAC_TRADITIONAL_NAME>
3-[(5S)-6-hydroxy-5-[isoamyl(sulfanilyl)amino]hexyl]-1-piperonyl-1-(2-thenyl)urea
> <PUBCHEM_IUPAC_INCHI>
InChI=1S/C31H42N4O6S2/c1-23(2)14-16-35(43(38,39)28-11-9-25(32)10-12-28)26(21-36)6-3-4-15-33-31(37)34(20-27-7-5-17-42-27)19-24-8-13-29-30(18-24)41-22-40-29/h5,7-13,17-18,23,26,36H,3-4,6,14-16,19-22,32H2,1-2H3,(H,33,37)/t26-/m0/s1
> <PUBCHEM_IUPAC_INCHIKEY>
PMHSZNVAWHOHMK-SANMLTNESA-N
> <PUBCHEM_XLOGP3_AA>
4.4
> <PUBCHEM_EXACT_MASS>
630.25457742
> <PUBCHEM_MOLECULAR_FORMULA>
C31H42N4O6S2
> <PUBCHEM_MOLECULAR_WEIGHT>
630.8
> <PUBCHEM_OPENEYE_CAN_SMILES>
CC(C)CCN(C(CCCCNC(=O)N(CC1=CC2=C(C=C1)OCO2)CC3=CC=CS3)CO)S(=O)(=O)C4=CC=C(C=C4)N
> <PUBCHEM_OPENEYE_ISO_SMILES>
CC(C)CCN([C@@H](CCCCNC(=O)N(CC1=CC2=C(C=C1)OCO2)CC3=CC=CS3)CO)S(=O)(=O)C4=CC=C(C=C4)N
> <PUBCHEM_CACTVS_TPSA>
171
> <PUBCHEM_MONOISOTOPIC_WEIGHT>
630.25457742
> <PUBCHEM_TOTAL_CHARGE>
0
> <PUBCHEM_HEAVY_ATOM_COUNT>
43
> <PUBCHEM_ATOM_DEF_STEREO_COUNT>
1
> <PUBCHEM_ATOM_UDEF_STEREO_COUNT>
0
> <PUBCHEM_BOND_DEF_STEREO_COUNT>
0
> <PUBCHEM_BOND_UDEF_STEREO_COUNT>
0
> <PUBCHEM_ISOTOPIC_ATOM_COUNT>
0
> <PUBCHEM_COMPONENT_COUNT>
1
> <PUBCHEM_CACTVS_TAUTO_COUNT>
-1
> <PUBCHEM_COORDINATE_TYPE>
1
5
255
> <PUBCHEM_BONDANNOTATIONS>
2  34  8
2  43  8
21  25  8
21  26  8
25  27  8
26  28  8
27  30  8
28  30  8
33  35  8
33  36  8
34  40  8
35  37  8
36  39  8
37  38  8
38  39  8
40  42  8
42  43  8
13  9  5
$$$$
