513732
  -OEChem-10302200282D
 68 69  0     1  0  0  0  0  0999 V2000
    4.5981    0.3450    0.0000 S   0  0  0  0  0  0  0  0  0  0  0  0
    5.5981    0.3450    0.0000 O   0  0  0  0  0  0  0  0  0  0  0  0
    3.5981    0.3450    0.0000 O   0  0  0  0  0  0  0  0  0  0  0  0
    6.3301    3.3450    0.0000 O   0  0  0  0  0  0  0  0  0  0  0  0
    4.5981    3.3450    0.0000 O   0  0  0  0  0  0  0  0  0  0  0  0
   10.6603    2.8450    0.0000 O   0  0  0  0  0  0  0  0  0  0  0  0
    4.5981    1.3450    0.0000 N   0  0  3  0  0  0  0  0  0  0  0  0
    9.7942    1.3450    0.0000 N   0  0  0  0  0  0  0  0  0  0  0  0
   11.5263    1.3450    0.0000 N   0  0  0  0  0  0  0  0  0  0  0  0
    4.5981   -3.6550    0.0000 N   0  0  0  0  0  0  0  0  0  0  0  0
    5.4641    1.8450    0.0000 C   0  0  1  0  0  0  0  0  0  0  0  0
    3.7320    1.8450    0.0000 C   0  0  0  0  0  0  0  0  0  0  0  0
    6.3301    1.3450    0.0000 C   0  0  0  0  0  0  0  0  0  0  0  0
    2.8660    1.3450    0.0000 C   0  0  0  0  0  0  0  0  0  0  0  0
    7.1962    1.8450    0.0000 C   0  0  0  0  0  0  0  0  0  0  0  0
    8.0622    1.3450    0.0000 C   0  0  0  0  0  0  0  0  0  0  0  0
    5.4641    2.8450    0.0000 C   0  0  0  0  0  0  0  0  0  0  0  0
    2.0000    1.8450    0.0000 C   0  0  0  0  0  0  0  0  0  0  0  0
    2.8660    0.3450    0.0000 C   0  0  0  0  0  0  0  0  0  0  0  0
    4.5981   -0.6550    0.0000 C   0  0  0  0  0  0  0  0  0  0  0  0
    8.9282    1.8450    0.0000 C   0  0  0  0  0  0  0  0  0  0  0  0
    3.7320   -1.1550    0.0000 C   0  0  0  0  0  0  0  0  0  0  0  0
    5.4641   -1.1550    0.0000 C   0  0  0  0  0  0  0  0  0  0  0  0
    3.7320   -2.1550    0.0000 C   0  0  0  0  0  0  0  0  0  0  0  0
    5.4641   -2.1550    0.0000 C   0  0  0  0  0  0  0  0  0  0  0  0
    4.5981   -2.6550    0.0000 C   0  0  0  0  0  0  0  0  0  0  0  0
   10.6603    1.8450    0.0000 C   0  0  0  0  0  0  0  0  0  0  0  0
   12.3923    1.8450    0.0000 C   0  0  0  0  0  0  0  0  0  0  0  0
   13.2583    1.3450    0.0000 C   0  0  0  0  0  0  0  0  0  0  0  0
   14.1244    1.8450    0.0000 C   0  0  0  0  0  0  0  0  0  0  0  0
   13.2583    0.3450    0.0000 C   0  0  0  0  0  0  0  0  0  0  0  0
   14.9904    1.3450    0.0000 C   0  0  0  0  0  0  0  0  0  0  0  0
   14.1244   -0.1550    0.0000 C   0  0  0  0  0  0  0  0  0  0  0  0
   14.9904    0.3450    0.0000 C   0  0  0  0  0  0  0  0  0  0  0  0
    5.4641    1.2250    0.0000 H   0  0  0  0  0  0  0  0  0  0  0  0
    4.1306    2.3200    0.0000 H   0  0  0  0  0  0  0  0  0  0  0  0
    3.3335    2.3200    0.0000 H   0  0  0  0  0  0  0  0  0  0  0  0
    5.9316    0.8701    0.0000 H   0  0  0  0  0  0  0  0  0  0  0  0
    6.7287    0.8701    0.0000 H   0  0  0  0  0  0  0  0  0  0  0  0
    2.8660    1.9650    0.0000 H   0  0  0  0  0  0  0  0  0  0  0  0
    7.5947    2.3200    0.0000 H   0  0  0  0  0  0  0  0  0  0  0  0
    6.7976    2.3200    0.0000 H   0  0  0  0  0  0  0  0  0  0  0  0
    7.6636    0.8701    0.0000 H   0  0  0  0  0  0  0  0  0  0  0  0
    8.4607    0.8701    0.0000 H   0  0  0  0  0  0  0  0  0  0  0  0
    2.3100    2.3819    0.0000 H   0  0  0  0  0  0  0  0  0  0  0  0
    1.4631    2.1550    0.0000 H   0  0  0  0  0  0  0  0  0  0  0  0
    1.6900    1.3081    0.0000 H   0  0  0  0  0  0  0  0  0  0  0  0
    2.2460    0.3450    0.0000 H   0  0  0  0  0  0  0  0  0  0  0  0
    2.8660   -0.2750    0.0000 H   0  0  0  0  0  0  0  0  0  0  0  0
    3.4860    0.3450    0.0000 H   0  0  0  0  0  0  0  0  0  0  0  0
    9.3267    2.3200    0.0000 H   0  0  0  0  0  0  0  0  0  0  0  0
    8.5297    2.3200    0.0000 H   0  0  0  0  0  0  0  0  0  0  0  0
    3.1951   -0.8450    0.0000 H   0  0  0  0  0  0  0  0  0  0  0  0
    6.0010   -0.8450    0.0000 H   0  0  0  0  0  0  0  0  0  0  0  0
    9.7942    0.7250    0.0000 H   0  0  0  0  0  0  0  0  0  0  0  0
    6.3301    3.9650    0.0000 H   0  0  0  0  0  0  0  0  0  0  0  0
    3.1951   -2.4650    0.0000 H   0  0  0  0  0  0  0  0  0  0  0  0
    6.0010   -2.4650    0.0000 H   0  0  0  0  0  0  0  0  0  0  0  0
   11.5263    0.7250    0.0000 H   0  0  0  0  0  0  0  0  0  0  0  0
    4.0611   -3.9650    0.0000 H   0  0  0  0  0  0  0  0  0  0  0  0
    5.1350   -3.9650    0.0000 H   0  0  0  0  0  0  0  0  0  0  0  0
   12.7908    2.3200    0.0000 H   0  0  0  0  0  0  0  0  0  0  0  0
   11.9938    2.3200    0.0000 H   0  0  0  0  0  0  0  0  0  0  0  0
   14.1244    2.4650    0.0000 H   0  0  0  0  0  0  0  0  0  0  0  0
   12.7214    0.0350    0.0000 H   0  0  0  0  0  0  0  0  0  0  0  0
   15.5273    1.6550    0.0000 H   0  0  0  0  0  0  0  0  0  0  0  0
   14.1244   -0.7750    0.0000 H   0  0  0  0  0  0  0  0  0  0  0  0
   15.5273    0.0350    0.0000 H   0  0  0  0  0  0  0  0  0  0  0  0
  1  2  2  0  0  0  0
  1  3  2  0  0  0  0
  1  7  1  0  0  0  0
  1 20  1  0  0  0  0
  4 17  1  0  0  0  0
  4 56  1  0  0  0  0
  5 17  2  0  0  0  0
  6 27  2  0  0  0  0
 11  7  1  6  0  0  0
  7 12  1  0  0  0  0
  8 21  1  0  0  0  0
  8 27  1  0  0  0  0
  8 55  1  0  0  0  0
  9 27  1  0  0  0  0
  9 28  1  0  0  0  0
  9 59  1  0  0  0  0
 10 26  1  0  0  0  0
 10 60  1  0  0  0  0
 10 61  1  0  0  0  0
 11 13  1  0  0  0  0
 11 17  1  0  0  0  0
 11 35  1  0  0  0  0
 12 14  1  0  0  0  0
 12 36  1  0  0  0  0
 12 37  1  0  0  0  0
 13 15  1  0  0  0  0
 13 38  1  0  0  0  0
 13 39  1  0  0  0  0
 14 18  1  0  0  0  0
 14 19  1  0  0  0  0
 14 40  1  0  0  0  0
 15 16  1  0  0  0  0
 15 41  1  0  0  0  0
 15 42  1  0  0  0  0
 16 21  1  0  0  0  0
 16 43  1  0  0  0  0
 16 44  1  0  0  0  0
 18 45  1  0  0  0  0
 18 46  1  0  0  0  0
 18 47  1  0  0  0  0
 19 48  1  0  0  0  0
 19 49  1  0  0  0  0
 19 50  1  0  0  0  0
 20 22  2  0  0  0  0
 20 23  1  0  0  0  0
 21 51  1  0  0  0  0
 21 52  1  0  0  0  0
 22 24  1  0  0  0  0
 22 53  1  0  0  0  0
 23 25  2  0  0  0  0
 23 54  1  0  0  0  0
 24 26  2  0  0  0  0
 24 57  1  0  0  0  0
 25 26  1  0  0  0  0
 25 58  1  0  0  0  0
 28 29  1  0  0  0  0
 28 62  1  0  0  0  0
 28 63  1  0  0  0  0
 29 30  2  0  0  0  0
 29 31  1  0  0  0  0
 30 32  1  0  0  0  0
 30 64  1  0  0  0  0
 31 33  2  0  0  0  0
 31 65  1  0  0  0  0
 32 34  2  0  0  0  0
 32 66  1  0  0  0  0
 33 34  1  0  0  0  0
 33 67  1  0  0  0  0
 34 68  1  0  0  0  0
M  END
> <PUBCHEM_COMPOUND_CID>
513732
> <PUBCHEM_COMPOUND_CANONICALIZED>
1
> <PUBCHEM_CACTVS_COMPLEXITY>
726
> <PUBCHEM_CACTVS_HBOND_ACCEPTOR>
7
> <PUBCHEM_CACTVS_HBOND_DONOR>
4
> <PUBCHEM_CACTVS_ROTATABLE_BOND>
13
> <PUBCHEM_CACTVS_SUBSKEYS>
AAADcfB7uABAAAAAAAAAAAAAAAAAAAAAAAAwYAAAAAAAAAABQAAAHgQQSAAADSjB2AQzyYLAAgKIAiTSWHDCABAgAgAIiJmIZIiKIDKAkbGEYAhslgKYyAeYyAAOAAQAAAAAAAAACAAAAAAAAAAAAAAAAA==
> <PUBCHEM_IUPAC_OPENEYE_NAME>
(2S)-2-[(4-aminophenyl)sulfonyl-isobutyl-amino]-6-(benzylcarbamoylamino)hexanoic acid
> <PUBCHEM_IUPAC_CAS_NAME>
(2S)-2-[(4-aminophenyl)sulfonyl-(2-methylpropyl)amino]-6-[[oxo-[(phenylmethyl)amino]methyl]amino]hexanoic acid
> <PUBCHEM_IUPAC_NAME_MARKUP>
(2<I>S</I>)-2-[(4-aminophenyl)sulfonyl-(2-methylpropyl)amino]-6-(benzylcarbamoylamino)hexanoic acid
> <PUBCHEM_IUPAC_NAME>
(2S)-2-[(4-aminophenyl)sulfonyl-(2-methylpropyl)amino]-6-(benzylcarbamoylamino)hexanoic acid
> <PUBCHEM_IUPAC_SYSTEMATIC_NAME>
(2S)-2-[(4-aminophenyl)sulfonyl-(2-methylpropyl)amino]-6-[(phenylmethyl)carbamoylamino]hexanoic acid
> <PUBCHEM_IUPAC_TRADITIONAL_NAME>
(2S)-6-(benzylcarbamoylamino)-2-[isobutyl(sulfanilyl)amino]hexanoic acid
> <PUBCHEM_IUPAC_INCHI>
InChI=1S/C24H34N4O5S/c1-18(2)17-28(34(32,33)21-13-11-20(25)12-14-21)22(23(29)30)10-6-7-15-26-24(31)27-16-19-8-4-3-5-9-19/h3-5,8-9,11-14,18,22H,6-7,10,15-17,25H2,1-2H3,(H,29,30)(H2,26,27,31)/t22-/m0/s1
> <PUBCHEM_IUPAC_INCHIKEY>
XIMFIQNXJIBGAZ-QFIPXVFZSA-N
> <PUBCHEM_XLOGP3_AA>
3.1
> <PUBCHEM_EXACT_MASS>
490.22499137
> <PUBCHEM_MOLECULAR_FORMULA>
C24H34N4O5S
> <PUBCHEM_MOLECULAR_WEIGHT>
490.6
> <PUBCHEM_OPENEYE_CAN_SMILES>
CC(C)CN(C(CCCCNC(=O)NCC1=CC=CC=C1)C(=O)O)S(=O)(=O)C2=CC=C(C=C2)N
> <PUBCHEM_OPENEYE_ISO_SMILES>
CC(C)CN([C@@H](CCCCNC(=O)NCC1=CC=CC=C1)C(=O)O)S(=O)(=O)C2=CC=C(C=C2)N
> <PUBCHEM_CACTVS_TPSA>
150
> <PUBCHEM_MONOISOTOPIC_WEIGHT>
490.22499137
> <PUBCHEM_TOTAL_CHARGE>
0
> <PUBCHEM_HEAVY_ATOM_COUNT>
34
> <PUBCHEM_ATOM_DEF_STEREO_COUNT>
1
> <PUBCHEM_ATOM_UDEF_STEREO_COUNT>
0
> <PUBCHEM_BOND_DEF_STEREO_COUNT>
0
> <PUBCHEM_BOND_UDEF_STEREO_COUNT>
0
> <PUBCHEM_ISOTOPIC_ATOM_COUNT>
0
> <PUBCHEM_COMPONENT_COUNT>
1
> <PUBCHEM_CACTVS_TAUTO_COUNT>
-1
> <PUBCHEM_COORDINATE_TYPE>
1
5
255
> <PUBCHEM_BONDANNOTATIONS>
20  22  8
20  23  8
22  24  8
23  25  8
24  26  8
25  26  8
29  30  8
29  31  8
30  32  8
31  33  8
32  34  8
33  34  8
11  7  6
$$$$
