513778
  -OEChem-10302200282D
 85 88  0     1  0  0  0  0  0999 V2000
    6.0010    3.4400    0.0000 S   0  0  0  0  0  0  0  0  0  0  0  0
    6.8671   -6.0600    0.0000 F   0  0  0  0  0  0  0  0  0  0  0  0
    6.0010    0.4400    0.0000 O   0  0  0  0  0  0  0  0  0  0  0  0
    6.5010    4.3060    0.0000 O   0  0  0  0  0  0  0  0  0  0  0  0
    5.5010    2.5740    0.0000 O   0  0  0  0  0  0  0  0  0  0  0  0
    8.5991   -3.0600    0.0000 O   0  0  0  0  0  0  0  0  0  0  0  0
   14.7415   -2.7553    0.0000 O   0  0  0  0  0  0  0  0  0  0  0  0
   14.7415   -4.3647    0.0000 O   0  0  0  0  0  0  0  0  0  0  0  0
    6.8671    2.9400    0.0000 N   0  0  3  0  0  0  0  0  0  0  0  0
    9.4651   -1.5600    0.0000 N   0  0  0  0  0  0  0  0  0  0  0  0
   10.3312   -3.0600    0.0000 N   0  0  0  0  0  0  0  0  0  0  0  0
    2.5369    5.4400    0.0000 N   0  0  0  0  0  0  0  0  0  0  0  0
    6.8671    1.9400    0.0000 C   0  0  1  0  0  0  0  0  0  0  0  0
    7.7331    1.4400    0.0000 C   0  0  0  0  0  0  0  0  0  0  0  0
    7.7331    3.4400    0.0000 C   0  0  0  0  0  0  0  0  0  0  0  0
    7.7331    0.4400    0.0000 C   0  0  0  0  0  0  0  0  0  0  0  0
    8.5991    2.9400    0.0000 C   0  0  0  0  0  0  0  0  0  0  0  0
    6.0010    1.4400    0.0000 C   0  0  0  0  0  0  0  0  0  0  0  0
    8.5991   -0.0600    0.0000 C   0  0  0  0  0  0  0  0  0  0  0  0
    5.1350    3.9400    0.0000 C   0  0  0  0  0  0  0  0  0  0  0  0
    9.4651    3.4400    0.0000 C   0  0  0  0  0  0  0  0  0  0  0  0
    8.5991    1.9400    0.0000 C   0  0  0  0  0  0  0  0  0  0  0  0
    8.5991   -1.0600    0.0000 C   0  0  0  0  0  0  0  0  0  0  0  0
    5.1350    4.9400    0.0000 C   0  0  0  0  0  0  0  0  0  0  0  0
    4.2690    3.4400    0.0000 C   0  0  0  0  0  0  0  0  0  0  0  0
    4.2690    5.4400    0.0000 C   0  0  0  0  0  0  0  0  0  0  0  0
    3.4030    3.9400    0.0000 C   0  0  0  0  0  0  0  0  0  0  0  0
    9.4651   -2.5600    0.0000 C   0  0  0  0  0  0  0  0  0  0  0  0
    3.4030    4.9400    0.0000 C   0  0  0  0  0  0  0  0  0  0  0  0
   11.1972   -2.5600    0.0000 C   0  0  0  0  0  0  0  0  0  0  0  0
   10.3312   -4.0600    0.0000 C   0  0  0  0  0  0  0  0  0  0  0  0
   12.0632   -3.0600    0.0000 C   0  0  0  0  0  0  0  0  0  0  0  0
    9.4651   -4.5600    0.0000 C   0  0  0  0  0  0  0  0  0  0  0  0
   12.9292   -2.5600    0.0000 C   0  0  0  0  0  0  0  0  0  0  0  0
   12.0632   -4.0600    0.0000 C   0  0  0  0  0  0  0  0  0  0  0  0
   13.7953   -3.0600    0.0000 C   0  0  0  0  0  0  0  0  0  0  0  0
   13.7953   -4.0600    0.0000 C   0  0  0  0  0  0  0  0  0  0  0  0
   12.9292   -4.5600    0.0000 C   0  0  0  0  0  0  0  0  0  0  0  0
    9.4651   -5.5600    0.0000 C   0  0  0  0  0  0  0  0  0  0  0  0
    8.5991   -4.0600    0.0000 C   0  0  0  0  0  0  0  0  0  0  0  0
   15.3251   -3.5600    0.0000 C   0  0  0  0  0  0  0  0  0  0  0  0
    8.5991   -6.0600    0.0000 C   0  0  0  0  0  0  0  0  0  0  0  0
    7.7331   -4.5600    0.0000 C   0  0  0  0  0  0  0  0  0  0  0  0
    7.7331   -5.5600    0.0000 C   0  0  0  0  0  0  0  0  0  0  0  0
    6.3301    2.2500    0.0000 H   0  0  0  0  0  0  0  0  0  0  0  0
    8.3437    1.3323    0.0000 H   0  0  0  0  0  0  0  0  0  0  0  0
    7.9451    2.0226    0.0000 H   0  0  0  0  0  0  0  0  0  0  0  0
    8.1316    3.9150    0.0000 H   0  0  0  0  0  0  0  0  0  0  0  0
    7.3346    3.9150    0.0000 H   0  0  0  0  0  0  0  0  0  0  0  0
    7.1225    0.5477    0.0000 H   0  0  0  0  0  0  0  0  0  0  0  0
    7.5210   -0.1426    0.0000 H   0  0  0  0  0  0  0  0  0  0  0  0
    8.5991    3.5600    0.0000 H   0  0  0  0  0  0  0  0  0  0  0  0
    5.7890    2.0226    0.0000 H   0  0  0  0  0  0  0  0  0  0  0  0
    5.3905    1.3323    0.0000 H   0  0  0  0  0  0  0  0  0  0  0  0
    9.2097   -0.1677    0.0000 H   0  0  0  0  0  0  0  0  0  0  0  0
    8.8112    0.5226    0.0000 H   0  0  0  0  0  0  0  0  0  0  0  0
    9.7751    2.9031    0.0000 H   0  0  0  0  0  0  0  0  0  0  0  0
   10.0021    3.7500    0.0000 H   0  0  0  0  0  0  0  0  0  0  0  0
    9.1551    3.9769    0.0000 H   0  0  0  0  0  0  0  0  0  0  0  0
    7.9791    1.9400    0.0000 H   0  0  0  0  0  0  0  0  0  0  0  0
    8.5991    1.3200    0.0000 H   0  0  0  0  0  0  0  0  0  0  0  0
    9.2191    1.9400    0.0000 H   0  0  0  0  0  0  0  0  0  0  0  0
    7.9885   -0.9523    0.0000 H   0  0  0  0  0  0  0  0  0  0  0  0
    8.3871   -1.6426    0.0000 H   0  0  0  0  0  0  0  0  0  0  0  0
    5.4641    0.1300    0.0000 H   0  0  0  0  0  0  0  0  0  0  0  0
    5.6720    5.2500    0.0000 H   0  0  0  0  0  0  0  0  0  0  0  0
    4.2690    2.8200    0.0000 H   0  0  0  0  0  0  0  0  0  0  0  0
   10.0021   -1.2500    0.0000 H   0  0  0  0  0  0  0  0  0  0  0  0
    4.2690    6.0600    0.0000 H   0  0  0  0  0  0  0  0  0  0  0  0
    2.8660    3.6300    0.0000 H   0  0  0  0  0  0  0  0  0  0  0  0
   11.5957   -2.0850    0.0000 H   0  0  0  0  0  0  0  0  0  0  0  0
   10.7987   -2.0850    0.0000 H   0  0  0  0  0  0  0  0  0  0  0  0
   10.5432   -4.6426    0.0000 H   0  0  0  0  0  0  0  0  0  0  0  0
   10.9417   -3.9523    0.0000 H   0  0  0  0  0  0  0  0  0  0  0  0
    2.5369    6.0600    0.0000 H   0  0  0  0  0  0  0  0  0  0  0  0
    2.0000    5.1300    0.0000 H   0  0  0  0  0  0  0  0  0  0  0  0
   12.9292   -1.9400    0.0000 H   0  0  0  0  0  0  0  0  0  0  0  0
   11.5263   -4.3700    0.0000 H   0  0  0  0  0  0  0  0  0  0  0  0
   12.9292   -5.1800    0.0000 H   0  0  0  0  0  0  0  0  0  0  0  0
   10.0021   -5.8700    0.0000 H   0  0  0  0  0  0  0  0  0  0  0  0
    8.5991   -3.4400    0.0000 H   0  0  0  0  0  0  0  0  0  0  0  0
   15.7860   -3.9747    0.0000 H   0  0  0  0  0  0  0  0  0  0  0  0
   15.7860   -3.1453    0.0000 H   0  0  0  0  0  0  0  0  0  0  0  0
    8.5991   -6.6800    0.0000 H   0  0  0  0  0  0  0  0  0  0  0  0
    7.1962   -4.2500    0.0000 H   0  0  0  0  0  0  0  0  0  0  0  0
  1  4  2  0  0  0  0
  1  5  2  0  0  0  0
  1  9  1  0  0  0  0
  1 20  1  0  0  0  0
  2 44  1  0  0  0  0
  3 18  1  0  0  0  0
  3 65  1  0  0  0  0
  6 28  2  0  0  0  0
  7 36  1  0  0  0  0
  7 41  1  0  0  0  0
  8 37  1  0  0  0  0
  8 41  1  0  0  0  0
 13  9  1  1  0  0  0
  9 15  1  0  0  0  0
 10 23  1  0  0  0  0
 10 28  1  0  0  0  0
 10 68  1  0  0  0  0
 11 28  1  0  0  0  0
 11 30  1  0  0  0  0
 11 31  1  0  0  0  0
 12 29  1  0  0  0  0
 12 75  1  0  0  0  0
 12 76  1  0  0  0  0
 13 14  1  0  0  0  0
 13 18  1  0  0  0  0
 13 45  1  0  0  0  0
 14 16  1  0  0  0  0
 14 46  1  0  0  0  0
 14 47  1  0  0  0  0
 15 17  1  0  0  0  0
 15 48  1  0  0  0  0
 15 49  1  0  0  0  0
 16 19  1  0  0  0  0
 16 50  1  0  0  0  0
 16 51  1  0  0  0  0
 17 21  1  0  0  0  0
 17 22  1  0  0  0  0
 17 52  1  0  0  0  0
 18 53  1  0  0  0  0
 18 54  1  0  0  0  0
 19 23  1  0  0  0  0
 19 55  1  0  0  0  0
 19 56  1  0  0  0  0
 20 24  2  0  0  0  0
 20 25  1  0  0  0  0
 21 57  1  0  0  0  0
 21 58  1  0  0  0  0
 21 59  1  0  0  0  0
 22 60  1  0  0  0  0
 22 61  1  0  0  0  0
 22 62  1  0  0  0  0
 23 63  1  0  0  0  0
 23 64  1  0  0  0  0
 24 26  1  0  0  0  0
 24 66  1  0  0  0  0
 25 27  2  0  0  0  0
 25 67  1  0  0  0  0
 26 29  2  0  0  0  0
 26 69  1  0  0  0  0
 27 29  1  0  0  0  0
 27 70  1  0  0  0  0
 30 32  1  0  0  0  0
 30 71  1  0  0  0  0
 30 72  1  0  0  0  0
 31 33  1  0  0  0  0
 31 73  1  0  0  0  0
 31 74  1  0  0  0  0
 32 34  2  0  0  0  0
 32 35  1  0  0  0  0
 33 39  2  0  0  0  0
 33 40  1  0  0  0  0
 34 36  1  0  0  0  0
 34 77  1  0  0  0  0
 35 38  2  0  0  0  0
 35 78  1  0  0  0  0
 36 37  2  0  0  0  0
 37 38  1  0  0  0  0
 38 79  1  0  0  0  0
 39 42  1  0  0  0  0
 39 80  1  0  0  0  0
 40 43  2  0  0  0  0
 40 81  1  0  0  0  0
 41 82  1  0  0  0  0
 41 83  1  0  0  0  0
 42 44  2  0  0  0  0
 42 84  1  0  0  0  0
 43 44  1  0  0  0  0
 43 85  1  0  0  0  0
M  END
> <PUBCHEM_COMPOUND_CID>
513778
> <PUBCHEM_COMPOUND_CANONICALIZED>
1
> <PUBCHEM_CACTVS_COMPLEXITY>
968
> <PUBCHEM_CACTVS_HBOND_ACCEPTOR>
9
> <PUBCHEM_CACTVS_HBOND_DONOR>
3
> <PUBCHEM_CACTVS_ROTATABLE_BOND>
15
> <PUBCHEM_CACTVS_SUBSKEYS>
AAADcfB/uQBAAAAAAAAAAAAAAAAAASAAAAAwYMAAAAAAAEgBUAAAHwQQSAAADSzh2A8zz4PABgKIAiRCUHDCCBAgIgAIiJgO7IifNiKEsZukcCps1hOe6Aew0BIOIAQBAAAAQABACAIAAACAAAAAAAAAAA==
> <PUBCHEM_IUPAC_OPENEYE_NAME>
3-[(5S)-5-[(4-aminophenyl)sulfonyl-isobutyl-amino]-6-hydroxy-hexyl]-1-(1,3-benzodioxol-5-ylmethyl)-1-[(4-fluorophenyl)methyl]urea
> <PUBCHEM_IUPAC_CAS_NAME>
3-[(5S)-5-[(4-aminophenyl)sulfonyl-(2-methylpropyl)amino]-6-hydroxyhexyl]-1-(1,3-benzodioxol-5-ylmethyl)-1-[(4-fluorophenyl)methyl]urea
> <PUBCHEM_IUPAC_NAME_MARKUP>
3-[(5<I>S</I>)-5-[(4-aminophenyl)sulfonyl-(2-methylpropyl)amino]-6-hydroxyhexyl]-1-(1,3-benzodioxol-5-ylmethyl)-1-[(4-fluorophenyl)methyl]urea
> <PUBCHEM_IUPAC_NAME>
3-[(5S)-5-[(4-aminophenyl)sulfonyl-(2-methylpropyl)amino]-6-hydroxyhexyl]-1-(1,3-benzodioxol-5-ylmethyl)-1-[(4-fluorophenyl)methyl]urea
> <PUBCHEM_IUPAC_SYSTEMATIC_NAME>
3-[(5S)-5-[(4-aminophenyl)sulfonyl-(2-methylpropyl)amino]-6-oxidanyl-hexyl]-1-(1,3-benzodioxol-5-ylmethyl)-1-[(4-fluorophenyl)methyl]urea
> <PUBCHEM_IUPAC_TRADITIONAL_NAME>
1-(4-fluorobenzyl)-3-[(5S)-6-hydroxy-5-[isobutyl(sulfanilyl)amino]hexyl]-1-piperonyl-urea
> <PUBCHEM_IUPAC_INCHI>
InChI=1S/C32H41FN4O6S/c1-23(2)18-37(44(40,41)29-13-11-27(34)12-14-29)28(21-38)5-3-4-16-35-32(39)36(19-24-6-9-26(33)10-7-24)20-25-8-15-30-31(17-25)43-22-42-30/h6-15,17,23,28,38H,3-5,16,18-22,34H2,1-2H3,(H,35,39)/t28-/m0/s1
> <PUBCHEM_IUPAC_INCHIKEY>
RTLPHHSSFSSEFA-NDEPHWFRSA-N
> <PUBCHEM_XLOGP3_AA>
4.4
> <PUBCHEM_EXACT_MASS>
628.27308438
> <PUBCHEM_MOLECULAR_FORMULA>
C32H41FN4O6S
> <PUBCHEM_MOLECULAR_WEIGHT>
628.8
> <PUBCHEM_OPENEYE_CAN_SMILES>
CC(C)CN(C(CCCCNC(=O)N(CC1=CC=C(C=C1)F)CC2=CC3=C(C=C2)OCO3)CO)S(=O)(=O)C4=CC=C(C=C4)N
> <PUBCHEM_OPENEYE_ISO_SMILES>
CC(C)CN([C@@H](CCCCNC(=O)N(CC1=CC=C(C=C1)F)CC2=CC3=C(C=C2)OCO3)CO)S(=O)(=O)C4=CC=C(C=C4)N
> <PUBCHEM_CACTVS_TPSA>
143
> <PUBCHEM_MONOISOTOPIC_WEIGHT>
628.27308438
> <PUBCHEM_TOTAL_CHARGE>
0
> <PUBCHEM_HEAVY_ATOM_COUNT>
44
> <PUBCHEM_ATOM_DEF_STEREO_COUNT>
1
> <PUBCHEM_ATOM_UDEF_STEREO_COUNT>
0
> <PUBCHEM_BOND_DEF_STEREO_COUNT>
0
> <PUBCHEM_BOND_UDEF_STEREO_COUNT>
0
> <PUBCHEM_ISOTOPIC_ATOM_COUNT>
0
> <PUBCHEM_COMPONENT_COUNT>
1
> <PUBCHEM_CACTVS_TAUTO_COUNT>
-1
> <PUBCHEM_COORDINATE_TYPE>
1
5
255
> <PUBCHEM_BONDANNOTATIONS>
20  24  8
20  25  8
24  26  8
25  27  8
26  29  8
27  29  8
32  34  8
32  35  8
33  39  8
33  40  8
34  36  8
35  38  8
36  37  8
37  38  8
39  42  8
40  43  8
42  44  8
43  44  8
13  9  5
$$$$
