513773
  -OEChem-10302200282D
 85 87  0     1  0  0  0  0  0999 V2000
    3.7320   -3.2500    0.0000 S   0  0  0  0  0  0  0  0  0  0  0  0
    6.3301   -1.7500    0.0000 O   0  0  0  0  0  0  0  0  0  0  0  0
    4.7320   -3.2500    0.0000 O   0  0  0  0  0  0  0  0  0  0  0  0
    2.7320   -3.2500    0.0000 O   0  0  0  0  0  0  0  0  0  0  0  0
    8.0622    2.2500    0.0000 O   0  0  0  0  0  0  0  0  0  0  0  0
    3.7320   -2.2500    0.0000 N   0  0  3  0  0  0  0  0  0  0  0  0
    6.3301    2.2500    0.0000 N   0  0  0  0  0  0  0  0  0  0  0  0
    7.1962    3.7500    0.0000 N   0  0  0  0  0  0  0  0  0  0  0  0
    4.5981    5.2500    0.0000 N   0  0  0  0  0  0  0  0  0  0  0  0
    4.5981   -1.7500    0.0000 C   0  0  1  0  0  0  0  0  0  0  0  0
    4.5981   -0.7500    0.0000 C   0  0  0  0  0  0  0  0  0  0  0  0
    2.8660   -1.7500    0.0000 C   0  0  0  0  0  0  0  0  0  0  0  0
    5.4641   -0.2500    0.0000 C   0  0  0  0  0  0  0  0  0  0  0  0
    2.8660   -0.7500    0.0000 C   0  0  0  0  0  0  0  0  0  0  0  0
    5.4641   -2.2500    0.0000 C   0  0  0  0  0  0  0  0  0  0  0  0
    5.4641    0.7500    0.0000 C   0  0  0  0  0  0  0  0  0  0  0  0
    3.7320   -4.2500    0.0000 C   0  0  0  0  0  0  0  0  0  0  0  0
    2.0000   -0.2500    0.0000 C   0  0  0  0  0  0  0  0  0  0  0  0
    3.7320   -0.2500    0.0000 C   0  0  0  0  0  0  0  0  0  0  0  0
    6.3301    1.2500    0.0000 C   0  0  0  0  0  0  0  0  0  0  0  0
    4.5981   -4.7500    0.0000 C   0  0  0  0  0  0  0  0  0  0  0  0
    2.8660   -4.7500    0.0000 C   0  0  0  0  0  0  0  0  0  0  0  0
    4.5981   -5.7500    0.0000 C   0  0  0  0  0  0  0  0  0  0  0  0
    2.8660   -5.7500    0.0000 C   0  0  0  0  0  0  0  0  0  0  0  0
    3.7320   -6.2500    0.0000 C   0  0  0  0  0  0  0  0  0  0  0  0
    7.1962    2.7500    0.0000 C   0  0  0  0  0  0  0  0  0  0  0  0
    6.3301    4.2500    0.0000 C   0  0  0  0  0  0  0  0  0  0  0  0
    8.0622    4.2500    0.0000 C   0  0  0  0  0  0  0  0  0  0  0  0
    3.7320   -7.2500    0.0000 C   0  0  0  0  0  0  0  0  0  0  0  0
    6.3301    5.2500    0.0000 C   0  0  0  0  0  0  0  0  0  0  0  0
    8.9282    3.7500    0.0000 C   0  0  0  0  0  0  0  0  0  0  0  0
    5.4641    5.7500    0.0000 C   0  0  0  0  0  0  0  0  0  0  0  0
    7.1962    5.7500    0.0000 C   0  0  0  0  0  0  0  0  0  0  0  0
    9.7942    4.2500    0.0000 C   0  0  0  0  0  0  0  0  0  0  0  0
    8.9282    2.7500    0.0000 C   0  0  0  0  0  0  0  0  0  0  0  0
    5.4641    6.7500    0.0000 C   0  0  0  0  0  0  0  0  0  0  0  0
    7.1962    6.7500    0.0000 C   0  0  0  0  0  0  0  0  0  0  0  0
   10.6603    3.7500    0.0000 C   0  0  0  0  0  0  0  0  0  0  0  0
    9.7942    2.2500    0.0000 C   0  0  0  0  0  0  0  0  0  0  0  0
    6.3301    7.2500    0.0000 C   0  0  0  0  0  0  0  0  0  0  0  0
   10.6603    2.7500    0.0000 C   0  0  0  0  0  0  0  0  0  0  0  0
    4.5981   -2.3700    0.0000 H   0  0  0  0  0  0  0  0  0  0  0  0
    4.3860   -0.1674    0.0000 H   0  0  0  0  0  0  0  0  0  0  0  0
    3.9875   -0.8577    0.0000 H   0  0  0  0  0  0  0  0  0  0  0  0
    2.2554   -1.6423    0.0000 H   0  0  0  0  0  0  0  0  0  0  0  0
    2.6540   -2.3326    0.0000 H   0  0  0  0  0  0  0  0  0  0  0  0
    5.6762   -0.8326    0.0000 H   0  0  0  0  0  0  0  0  0  0  0  0
    6.0747   -0.1423    0.0000 H   0  0  0  0  0  0  0  0  0  0  0  0
    2.8660   -0.1300    0.0000 H   0  0  0  0  0  0  0  0  0  0  0  0
    5.0656   -2.7250    0.0000 H   0  0  0  0  0  0  0  0  0  0  0  0
    5.8626   -2.7250    0.0000 H   0  0  0  0  0  0  0  0  0  0  0  0
    5.2520    1.3326    0.0000 H   0  0  0  0  0  0  0  0  0  0  0  0
    4.8535    0.6423    0.0000 H   0  0  0  0  0  0  0  0  0  0  0  0
    2.3100    0.2869    0.0000 H   0  0  0  0  0  0  0  0  0  0  0  0
    1.4631    0.0600    0.0000 H   0  0  0  0  0  0  0  0  0  0  0  0
    1.6900   -0.7869    0.0000 H   0  0  0  0  0  0  0  0  0  0  0  0
    4.0420   -0.7869    0.0000 H   0  0  0  0  0  0  0  0  0  0  0  0
    4.2690    0.0600    0.0000 H   0  0  0  0  0  0  0  0  0  0  0  0
    3.4220    0.2869    0.0000 H   0  0  0  0  0  0  0  0  0  0  0  0
    6.5422    0.6674    0.0000 H   0  0  0  0  0  0  0  0  0  0  0  0
    6.9407    1.3577    0.0000 H   0  0  0  0  0  0  0  0  0  0  0  0
    6.8671   -2.0600    0.0000 H   0  0  0  0  0  0  0  0  0  0  0  0
    5.1350   -4.4400    0.0000 H   0  0  0  0  0  0  0  0  0  0  0  0
    2.3291   -4.4400    0.0000 H   0  0  0  0  0  0  0  0  0  0  0  0
    5.7932    2.5600    0.0000 H   0  0  0  0  0  0  0  0  0  0  0  0
    5.1350   -6.0600    0.0000 H   0  0  0  0  0  0  0  0  0  0  0  0
    2.3291   -6.0600    0.0000 H   0  0  0  0  0  0  0  0  0  0  0  0
    5.7196    4.3577    0.0000 H   0  0  0  0  0  0  0  0  0  0  0  0
    6.1181    3.6674    0.0000 H   0  0  0  0  0  0  0  0  0  0  0  0
    8.4607    4.7250    0.0000 H   0  0  0  0  0  0  0  0  0  0  0  0
    7.6636    4.7250    0.0000 H   0  0  0  0  0  0  0  0  0  0  0  0
    3.1120   -7.2500    0.0000 H   0  0  0  0  0  0  0  0  0  0  0  0
    3.7320   -7.8700    0.0000 H   0  0  0  0  0  0  0  0  0  0  0  0
    4.3520   -7.2500    0.0000 H   0  0  0  0  0  0  0  0  0  0  0  0
    7.7331    5.4400    0.0000 H   0  0  0  0  0  0  0  0  0  0  0  0
    9.7942    4.8700    0.0000 H   0  0  0  0  0  0  0  0  0  0  0  0
    8.3913    2.4400    0.0000 H   0  0  0  0  0  0  0  0  0  0  0  0
    4.9272    7.0600    0.0000 H   0  0  0  0  0  0  0  0  0  0  0  0
    7.7331    7.0600    0.0000 H   0  0  0  0  0  0  0  0  0  0  0  0
   11.1972    4.0600    0.0000 H   0  0  0  0  0  0  0  0  0  0  0  0
    9.7942    1.6300    0.0000 H   0  0  0  0  0  0  0  0  0  0  0  0
    6.3301    7.8700    0.0000 H   0  0  0  0  0  0  0  0  0  0  0  0
    4.0611    5.5600    0.0000 H   0  0  0  0  0  0  0  0  0  0  0  0
    4.5981    4.6300    0.0000 H   0  0  0  0  0  0  0  0  0  0  0  0
   11.1972    2.4400    0.0000 H   0  0  0  0  0  0  0  0  0  0  0  0
  1  3  2  0  0  0  0
  1  4  2  0  0  0  0
  1  6  1  0  0  0  0
  1 17  1  0  0  0  0
  2 15  1  0  0  0  0
  2 62  1  0  0  0  0
  5 26  2  0  0  0  0
 10  6  1  1  0  0  0
  6 12  1  0  0  0  0
  7 20  1  0  0  0  0
  7 26  1  0  0  0  0
  7 65  1  0  0  0  0
  8 26  1  0  0  0  0
  8 27  1  0  0  0  0
  8 28  1  0  0  0  0
  9 32  1  0  0  0  0
  9 83  1  0  0  0  0
  9 84  1  0  0  0  0
 10 11  1  0  0  0  0
 10 15  1  0  0  0  0
 10 42  1  0  0  0  0
 11 13  1  0  0  0  0
 11 43  1  0  0  0  0
 11 44  1  0  0  0  0
 12 14  1  0  0  0  0
 12 45  1  0  0  0  0
 12 46  1  0  0  0  0
 13 16  1  0  0  0  0
 13 47  1  0  0  0  0
 13 48  1  0  0  0  0
 14 18  1  0  0  0  0
 14 19  1  0  0  0  0
 14 49  1  0  0  0  0
 15 50  1  0  0  0  0
 15 51  1  0  0  0  0
 16 20  1  0  0  0  0
 16 52  1  0  0  0  0
 16 53  1  0  0  0  0
 17 21  2  0  0  0  0
 17 22  1  0  0  0  0
 18 54  1  0  0  0  0
 18 55  1  0  0  0  0
 18 56  1  0  0  0  0
 19 57  1  0  0  0  0
 19 58  1  0  0  0  0
 19 59  1  0  0  0  0
 20 60  1  0  0  0  0
 20 61  1  0  0  0  0
 21 23  1  0  0  0  0
 21 63  1  0  0  0  0
 22 24  2  0  0  0  0
 22 64  1  0  0  0  0
 23 25  2  0  0  0  0
 23 66  1  0  0  0  0
 24 25  1  0  0  0  0
 24 67  1  0  0  0  0
 25 29  1  0  0  0  0
 27 30  1  0  0  0  0
 27 68  1  0  0  0  0
 27 69  1  0  0  0  0
 28 31  1  0  0  0  0
 28 70  1  0  0  0  0
 28 71  1  0  0  0  0
 29 72  1  0  0  0  0
 29 73  1  0  0  0  0
 29 74  1  0  0  0  0
 30 32  1  0  0  0  0
 30 33  2  0  0  0  0
 31 34  2  0  0  0  0
 31 35  1  0  0  0  0
 32 36  2  0  0  0  0
 33 37  1  0  0  0  0
 33 75  1  0  0  0  0
 34 38  1  0  0  0  0
 34 76  1  0  0  0  0
 35 39  2  0  0  0  0
 35 77  1  0  0  0  0
 36 40  1  0  0  0  0
 36 78  1  0  0  0  0
 37 40  2  0  0  0  0
 37 79  1  0  0  0  0
 38 41  2  0  0  0  0
 38 80  1  0  0  0  0
 39 41  1  0  0  0  0
 39 81  1  0  0  0  0
 40 82  1  0  0  0  0
 41 85  1  0  0  0  0
M  END
> <PUBCHEM_COMPOUND_CID>
513773
> <PUBCHEM_COMPOUND_CANONICALIZED>
1
> <PUBCHEM_CACTVS_COMPLEXITY>
850
> <PUBCHEM_CACTVS_HBOND_ACCEPTOR>
6
> <PUBCHEM_CACTVS_HBOND_DONOR>
3
> <PUBCHEM_CACTVS_ROTATABLE_BOND>
15
> <PUBCHEM_CACTVS_SUBSKEYS>
AAADcfB/uABAAAAAAAAAAAAAAAAAAAAAAAAwYMAAAAAAAAABUAAAHgQQSAAADSjh2AYzwYPAAgKIAiRCUHDCABAgAgAIiJgIZIiKMCKA0ZGEYAhslgKYyAeQwAAOEAAAAAACAAAgAAAAAAQAAAAAAAAAAA==
> <PUBCHEM_IUPAC_OPENEYE_NAME>
1-[(2-aminophenyl)methyl]-1-benzyl-3-[(5S)-6-hydroxy-5-[isobutyl(p-tolylsulfonyl)amino]hexyl]urea
> <PUBCHEM_IUPAC_CAS_NAME>
1-[(2-aminophenyl)methyl]-3-[(5S)-6-hydroxy-5-[(4-methylphenyl)sulfonyl-(2-methylpropyl)amino]hexyl]-1-(phenylmethyl)urea
> <PUBCHEM_IUPAC_NAME_MARKUP>
1-[(2-aminophenyl)methyl]-1-benzyl-3-[(5<I>S</I>)-6-hydroxy-5-[(4-methylphenyl)sulfonyl-(2-methylpropyl)amino]hexyl]urea
> <PUBCHEM_IUPAC_NAME>
1-[(2-aminophenyl)methyl]-1-benzyl-3-[(5S)-6-hydroxy-5-[(4-methylphenyl)sulfonyl-(2-methylpropyl)amino]hexyl]urea
> <PUBCHEM_IUPAC_SYSTEMATIC_NAME>
1-[(2-aminophenyl)methyl]-3-[(5S)-5-[(4-methylphenyl)sulfonyl-(2-methylpropyl)amino]-6-oxidanyl-hexyl]-1-(phenylmethyl)urea
> <PUBCHEM_IUPAC_TRADITIONAL_NAME>
1-(2-aminobenzyl)-1-benzyl-3-[(5S)-6-hydroxy-5-[isobutyl(tosyl)amino]hexyl]urea
> <PUBCHEM_IUPAC_INCHI>
InChI=1S/C32H44N4O4S/c1-25(2)21-36(41(39,40)30-18-16-26(3)17-19-30)29(24-37)14-9-10-20-34-32(38)35(22-27-11-5-4-6-12-27)23-28-13-7-8-15-31(28)33/h4-8,11-13,15-19,25,29,37H,9-10,14,20-24,33H2,1-3H3,(H,34,38)/t29-/m0/s1
> <PUBCHEM_IUPAC_INCHIKEY>
XDQYXLKZLHPAFX-LJAQVGFWSA-N
> <PUBCHEM_XLOGP3_AA>
4.9
> <PUBCHEM_EXACT_MASS>
580.30832707
> <PUBCHEM_MOLECULAR_FORMULA>
C32H44N4O4S
> <PUBCHEM_MOLECULAR_WEIGHT>
580.8
> <PUBCHEM_OPENEYE_CAN_SMILES>
CC1=CC=C(C=C1)S(=O)(=O)N(CC(C)C)C(CCCCNC(=O)N(CC2=CC=CC=C2)CC3=CC=CC=C3N)CO
> <PUBCHEM_OPENEYE_ISO_SMILES>
CC1=CC=C(C=C1)S(=O)(=O)N(CC(C)C)[C@@H](CCCCNC(=O)N(CC2=CC=CC=C2)CC3=CC=CC=C3N)CO
> <PUBCHEM_CACTVS_TPSA>
124
> <PUBCHEM_MONOISOTOPIC_WEIGHT>
580.30832707
> <PUBCHEM_TOTAL_CHARGE>
0
> <PUBCHEM_HEAVY_ATOM_COUNT>
41
> <PUBCHEM_ATOM_DEF_STEREO_COUNT>
1
> <PUBCHEM_ATOM_UDEF_STEREO_COUNT>
0
> <PUBCHEM_BOND_DEF_STEREO_COUNT>
0
> <PUBCHEM_BOND_UDEF_STEREO_COUNT>
0
> <PUBCHEM_ISOTOPIC_ATOM_COUNT>
0
> <PUBCHEM_COMPONENT_COUNT>
1
> <PUBCHEM_CACTVS_TAUTO_COUNT>
-1
> <PUBCHEM_COORDINATE_TYPE>
1
5
255
> <PUBCHEM_BONDANNOTATIONS>
17  21  8
17  22  8
21  23  8
22  24  8
23  25  8
24  25  8
30  32  8
30  33  8
31  34  8
31  35  8
32  36  8
33  37  8
34  38  8
35  39  8
36  40  8
37  40  8
38  41  8
39  41  8
10  6  5
$$$$
