513772
  -OEChem-10302200282D
 85 87  0     1  0  0  0  0  0999 V2000
    3.7320   -4.0000    0.0000 S   0  0  0  0  0  0  0  0  0  0  0  0
    6.3301   -2.5000    0.0000 O   0  0  0  0  0  0  0  0  0  0  0  0
    4.7320   -4.0000    0.0000 O   0  0  0  0  0  0  0  0  0  0  0  0
    2.7320   -4.0000    0.0000 O   0  0  0  0  0  0  0  0  0  0  0  0
    8.0622    1.5000    0.0000 O   0  0  0  0  0  0  0  0  0  0  0  0
    5.4641    8.0000    0.0000 O   0  5  0  0  0  0  0  0  0  0  0  0
    7.1962    8.0000    0.0000 O   0  0  0  0  0  0  0  0  0  0  0  0
    3.7320   -3.0000    0.0000 N   0  0  3  0  0  0  0  0  0  0  0  0
    6.3301    1.5000    0.0000 N   0  0  0  0  0  0  0  0  0  0  0  0
    7.1962    3.0000    0.0000 N   0  0  0  0  0  0  0  0  0  0  0  0
    6.3301    7.5000    0.0000 N   0  3  0  0  0  0  0  0  0  0  0  0
    4.5981   -2.5000    0.0000 C   0  0  1  0  0  0  0  0  0  0  0  0
    4.5981   -1.5000    0.0000 C   0  0  0  0  0  0  0  0  0  0  0  0
    2.8660   -2.5000    0.0000 C   0  0  0  0  0  0  0  0  0  0  0  0
    5.4641   -1.0000    0.0000 C   0  0  0  0  0  0  0  0  0  0  0  0
    2.8660   -1.5000    0.0000 C   0  0  0  0  0  0  0  0  0  0  0  0
    5.4641   -3.0000    0.0000 C   0  0  0  0  0  0  0  0  0  0  0  0
    5.4641   -0.0000    0.0000 C   0  0  0  0  0  0  0  0  0  0  0  0
    3.7320   -5.0000    0.0000 C   0  0  0  0  0  0  0  0  0  0  0  0
    2.0000   -1.0000    0.0000 C   0  0  0  0  0  0  0  0  0  0  0  0
    3.7320   -1.0000    0.0000 C   0  0  0  0  0  0  0  0  0  0  0  0
    6.3301    0.5000    0.0000 C   0  0  0  0  0  0  0  0  0  0  0  0
    4.5981   -5.5000    0.0000 C   0  0  0  0  0  0  0  0  0  0  0  0
    2.8660   -5.5000    0.0000 C   0  0  0  0  0  0  0  0  0  0  0  0
    4.5981   -6.5000    0.0000 C   0  0  0  0  0  0  0  0  0  0  0  0
    2.8660   -6.5000    0.0000 C   0  0  0  0  0  0  0  0  0  0  0  0
    3.7320   -7.0000    0.0000 C   0  0  0  0  0  0  0  0  0  0  0  0
    7.1962    2.0000    0.0000 C   0  0  0  0  0  0  0  0  0  0  0  0
    6.3301    3.5000    0.0000 C   0  0  0  0  0  0  0  0  0  0  0  0
    8.0622    3.5000    0.0000 C   0  0  0  0  0  0  0  0  0  0  0  0
    3.7320   -8.0000    0.0000 C   0  0  0  0  0  0  0  0  0  0  0  0
    6.3301    4.5000    0.0000 C   0  0  0  0  0  0  0  0  0  0  0  0
    8.9282    3.0000    0.0000 C   0  0  0  0  0  0  0  0  0  0  0  0
    5.4641    5.0000    0.0000 C   0  0  0  0  0  0  0  0  0  0  0  0
    7.1962    5.0000    0.0000 C   0  0  0  0  0  0  0  0  0  0  0  0
    9.7942    3.5000    0.0000 C   0  0  0  0  0  0  0  0  0  0  0  0
    8.9282    2.0000    0.0000 C   0  0  0  0  0  0  0  0  0  0  0  0
    5.4641    6.0000    0.0000 C   0  0  0  0  0  0  0  0  0  0  0  0
    7.1962    6.0000    0.0000 C   0  0  0  0  0  0  0  0  0  0  0  0
    6.3301    6.5000    0.0000 C   0  0  0  0  0  0  0  0  0  0  0  0
   10.6603    3.0000    0.0000 C   0  0  0  0  0  0  0  0  0  0  0  0
    9.7942    1.5000    0.0000 C   0  0  0  0  0  0  0  0  0  0  0  0
   10.6603    2.0000    0.0000 C   0  0  0  0  0  0  0  0  0  0  0  0
    4.5981   -3.1200    0.0000 H   0  0  0  0  0  0  0  0  0  0  0  0
    4.3860   -0.9174    0.0000 H   0  0  0  0  0  0  0  0  0  0  0  0
    3.9875   -1.6077    0.0000 H   0  0  0  0  0  0  0  0  0  0  0  0
    2.2554   -2.3923    0.0000 H   0  0  0  0  0  0  0  0  0  0  0  0
    2.6540   -3.0826    0.0000 H   0  0  0  0  0  0  0  0  0  0  0  0
    5.6762   -1.5826    0.0000 H   0  0  0  0  0  0  0  0  0  0  0  0
    6.0747   -0.8923    0.0000 H   0  0  0  0  0  0  0  0  0  0  0  0
    2.8660   -0.8800    0.0000 H   0  0  0  0  0  0  0  0  0  0  0  0
    5.0656   -3.4750    0.0000 H   0  0  0  0  0  0  0  0  0  0  0  0
    5.8626   -3.4750    0.0000 H   0  0  0  0  0  0  0  0  0  0  0  0
    5.2520    0.5826    0.0000 H   0  0  0  0  0  0  0  0  0  0  0  0
    4.8535   -0.1077    0.0000 H   0  0  0  0  0  0  0  0  0  0  0  0
    2.3100   -0.4631    0.0000 H   0  0  0  0  0  0  0  0  0  0  0  0
    1.4631   -0.6900    0.0000 H   0  0  0  0  0  0  0  0  0  0  0  0
    1.6900   -1.5369    0.0000 H   0  0  0  0  0  0  0  0  0  0  0  0
    4.0420   -1.5369    0.0000 H   0  0  0  0  0  0  0  0  0  0  0  0
    4.2690   -0.6900    0.0000 H   0  0  0  0  0  0  0  0  0  0  0  0
    3.4220   -0.4631    0.0000 H   0  0  0  0  0  0  0  0  0  0  0  0
    6.5422   -0.0826    0.0000 H   0  0  0  0  0  0  0  0  0  0  0  0
    6.9407    0.6077    0.0000 H   0  0  0  0  0  0  0  0  0  0  0  0
    6.8671   -2.8100    0.0000 H   0  0  0  0  0  0  0  0  0  0  0  0
    5.1350   -5.1900    0.0000 H   0  0  0  0  0  0  0  0  0  0  0  0
    2.3291   -5.1900    0.0000 H   0  0  0  0  0  0  0  0  0  0  0  0
    5.7932    1.8100    0.0000 H   0  0  0  0  0  0  0  0  0  0  0  0
    5.1350   -6.8100    0.0000 H   0  0  0  0  0  0  0  0  0  0  0  0
    2.3291   -6.8100    0.0000 H   0  0  0  0  0  0  0  0  0  0  0  0
    5.7196    3.6077    0.0000 H   0  0  0  0  0  0  0  0  0  0  0  0
    6.1181    2.9174    0.0000 H   0  0  0  0  0  0  0  0  0  0  0  0
    8.4607    3.9750    0.0000 H   0  0  0  0  0  0  0  0  0  0  0  0
    7.6636    3.9750    0.0000 H   0  0  0  0  0  0  0  0  0  0  0  0
    3.1120   -8.0000    0.0000 H   0  0  0  0  0  0  0  0  0  0  0  0
    3.7320   -8.6200    0.0000 H   0  0  0  0  0  0  0  0  0  0  0  0
    4.3520   -8.0000    0.0000 H   0  0  0  0  0  0  0  0  0  0  0  0
    4.9272    4.6900    0.0000 H   0  0  0  0  0  0  0  0  0  0  0  0
    7.7331    4.6900    0.0000 H   0  0  0  0  0  0  0  0  0  0  0  0
    9.7942    4.1200    0.0000 H   0  0  0  0  0  0  0  0  0  0  0  0
    8.3913    1.6900    0.0000 H   0  0  0  0  0  0  0  0  0  0  0  0
    4.9272    6.3100    0.0000 H   0  0  0  0  0  0  0  0  0  0  0  0
    7.7331    6.3100    0.0000 H   0  0  0  0  0  0  0  0  0  0  0  0
   11.1972    3.3100    0.0000 H   0  0  0  0  0  0  0  0  0  0  0  0
    9.7942    0.8800    0.0000 H   0  0  0  0  0  0  0  0  0  0  0  0
   11.1972    1.6900    0.0000 H   0  0  0  0  0  0  0  0  0  0  0  0
  1  3  2  0  0  0  0
  1  4  2  0  0  0  0
  1  8  1  0  0  0  0
  1 19  1  0  0  0  0
  2 17  1  0  0  0  0
  2 64  1  0  0  0  0
  5 28  2  0  0  0  0
  6 11  1  0  0  0  0
  7 11  2  0  0  0  0
 12  8  1  1  0  0  0
  8 14  1  0  0  0  0
  9 22  1  0  0  0  0
  9 28  1  0  0  0  0
  9 67  1  0  0  0  0
 10 28  1  0  0  0  0
 10 29  1  0  0  0  0
 10 30  1  0  0  0  0
 11 40  1  0  0  0  0
 12 13  1  0  0  0  0
 12 17  1  0  0  0  0
 12 44  1  0  0  0  0
 13 15  1  0  0  0  0
 13 45  1  0  0  0  0
 13 46  1  0  0  0  0
 14 16  1  0  0  0  0
 14 47  1  0  0  0  0
 14 48  1  0  0  0  0
 15 18  1  0  0  0  0
 15 49  1  0  0  0  0
 15 50  1  0  0  0  0
 16 20  1  0  0  0  0
 16 21  1  0  0  0  0
 16 51  1  0  0  0  0
 17 52  1  0  0  0  0
 17 53  1  0  0  0  0
 18 22  1  0  0  0  0
 18 54  1  0  0  0  0
 18 55  1  0  0  0  0
 19 23  2  0  0  0  0
 19 24  1  0  0  0  0
 20 56  1  0  0  0  0
 20 57  1  0  0  0  0
 20 58  1  0  0  0  0
 21 59  1  0  0  0  0
 21 60  1  0  0  0  0
 21 61  1  0  0  0  0
 22 62  1  0  0  0  0
 22 63  1  0  0  0  0
 23 25  1  0  0  0  0
 23 65  1  0  0  0  0
 24 26  2  0  0  0  0
 24 66  1  0  0  0  0
 25 27  2  0  0  0  0
 25 68  1  0  0  0  0
 26 27  1  0  0  0  0
 26 69  1  0  0  0  0
 27 31  1  0  0  0  0
 29 32  1  0  0  0  0
 29 70  1  0  0  0  0
 29 71  1  0  0  0  0
 30 33  1  0  0  0  0
 30 72  1  0  0  0  0
 30 73  1  0  0  0  0
 31 74  1  0  0  0  0
 31 75  1  0  0  0  0
 31 76  1  0  0  0  0
 32 34  2  0  0  0  0
 32 35  1  0  0  0  0
 33 36  2  0  0  0  0
 33 37  1  0  0  0  0
 34 38  1  0  0  0  0
 34 77  1  0  0  0  0
 35 39  2  0  0  0  0
 35 78  1  0  0  0  0
 36 41  1  0  0  0  0
 36 79  1  0  0  0  0
 37 42  2  0  0  0  0
 37 80  1  0  0  0  0
 38 40  2  0  0  0  0
 38 81  1  0  0  0  0
 39 40  1  0  0  0  0
 39 82  1  0  0  0  0
 41 43  2  0  0  0  0
 41 83  1  0  0  0  0
 42 43  1  0  0  0  0
 42 84  1  0  0  0  0
 43 85  1  0  0  0  0
M  CHG  2   6  -1  11   1
M  END
> <PUBCHEM_COMPOUND_CID>
513772
> <PUBCHEM_COMPOUND_CANONICALIZED>
1
> <PUBCHEM_CACTVS_COMPLEXITY>
931
> <PUBCHEM_CACTVS_HBOND_ACCEPTOR>
7
> <PUBCHEM_CACTVS_HBOND_DONOR>
2
> <PUBCHEM_CACTVS_ROTATABLE_BOND>
15
> <PUBCHEM_CACTVS_SUBSKEYS>
AAADcfB/uABAAAAAAAAAAAAAAAAAAAAAAAAwYMAAAAAAAAABUAAAHgQUSAAADSjh2AYzwYPQQgKJAiRCU3DCABAgAgAoiJgIZIqKMCKAkZGEYAhslgKYyAeQwAAOGAAAAAAAAAAwAAAAAAAAAAAAAAAAAA==
> <PUBCHEM_IUPAC_OPENEYE_NAME>
1-benzyl-3-[(5S)-6-hydroxy-5-[isobutyl(p-tolylsulfonyl)amino]hexyl]-1-[(4-nitrophenyl)methyl]urea
> <PUBCHEM_IUPAC_CAS_NAME>
3-[(5S)-6-hydroxy-5-[(4-methylphenyl)sulfonyl-(2-methylpropyl)amino]hexyl]-1-[(4-nitrophenyl)methyl]-1-(phenylmethyl)urea
> <PUBCHEM_IUPAC_NAME_MARKUP>
1-benzyl-3-[(5<I>S</I>)-6-hydroxy-5-[(4-methylphenyl)sulfonyl-(2-methylpropyl)amino]hexyl]-1-[(4-nitrophenyl)methyl]urea
> <PUBCHEM_IUPAC_NAME>
1-benzyl-3-[(5S)-6-hydroxy-5-[(4-methylphenyl)sulfonyl-(2-methylpropyl)amino]hexyl]-1-[(4-nitrophenyl)methyl]urea
> <PUBCHEM_IUPAC_SYSTEMATIC_NAME>
3-[(5S)-5-[(4-methylphenyl)sulfonyl-(2-methylpropyl)amino]-6-oxidanyl-hexyl]-1-[(4-nitrophenyl)methyl]-1-(phenylmethyl)urea
> <PUBCHEM_IUPAC_TRADITIONAL_NAME>
1-benzyl-3-[(5S)-6-hydroxy-5-[isobutyl(tosyl)amino]hexyl]-1-(4-nitrobenzyl)urea
> <PUBCHEM_IUPAC_INCHI>
InChI=1S/C32H42N4O6S/c1-25(2)21-35(43(41,42)31-18-12-26(3)13-19-31)30(24-37)11-7-8-20-33-32(38)34(22-27-9-5-4-6-10-27)23-28-14-16-29(17-15-28)36(39)40/h4-6,9-10,12-19,25,30,37H,7-8,11,20-24H2,1-3H3,(H,33,38)/t30-/m0/s1
> <PUBCHEM_IUPAC_INCHIKEY>
LGESTKWOTIOFMA-PMERELPUSA-N
> <PUBCHEM_XLOGP3_AA>
5.4
> <PUBCHEM_EXACT_MASS>
610.28250625
> <PUBCHEM_MOLECULAR_FORMULA>
C32H42N4O6S
> <PUBCHEM_MOLECULAR_WEIGHT>
610.8
> <PUBCHEM_OPENEYE_CAN_SMILES>
CC1=CC=C(C=C1)S(=O)(=O)N(CC(C)C)C(CCCCNC(=O)N(CC2=CC=CC=C2)CC3=CC=C(C=C3)[N+](=O)[O-])CO
> <PUBCHEM_OPENEYE_ISO_SMILES>
CC1=CC=C(C=C1)S(=O)(=O)N(CC(C)C)[C@@H](CCCCNC(=O)N(CC2=CC=CC=C2)CC3=CC=C(C=C3)[N+](=O)[O-])CO
> <PUBCHEM_CACTVS_TPSA>
144
> <PUBCHEM_MONOISOTOPIC_WEIGHT>
610.28250625
> <PUBCHEM_TOTAL_CHARGE>
0
> <PUBCHEM_HEAVY_ATOM_COUNT>
43
> <PUBCHEM_ATOM_DEF_STEREO_COUNT>
1
> <PUBCHEM_ATOM_UDEF_STEREO_COUNT>
0
> <PUBCHEM_BOND_DEF_STEREO_COUNT>
0
> <PUBCHEM_BOND_UDEF_STEREO_COUNT>
0
> <PUBCHEM_ISOTOPIC_ATOM_COUNT>
0
> <PUBCHEM_COMPONENT_COUNT>
1
> <PUBCHEM_CACTVS_TAUTO_COUNT>
-1
> <PUBCHEM_COORDINATE_TYPE>
1
5
255
> <PUBCHEM_BONDANNOTATIONS>
19  23  8
19  24  8
23  25  8
24  26  8
25  27  8
26  27  8
32  34  8
32  35  8
33  36  8
33  37  8
34  38  8
35  39  8
36  41  8
37  42  8
38  40  8
39  40  8
41  43  8
42  43  8
12  8  5
$$$$
