513846
  -OEChem-10302200282D
 36 37  0     1  0  0  0  0  0999 V2000
    3.7320   -3.0000    0.0000 P   0  0  0  0  0  0  0  0  0  0  0  0
    2.8660   -1.5000    0.0000 O   0  0  0  0  0  0  0  0  0  0  0  0
    3.7320   -4.0000    0.0000 O   0  0  0  0  0  0  0  0  0  0  0  0
    4.7320   -3.0000    0.0000 O   0  0  0  0  0  0  0  0  0  0  0  0
    5.4641    1.0000    0.0000 O   0  0  0  0  0  0  0  0  0  0  0  0
    2.7320   -3.0000    0.0000 O   0  0  0  0  0  0  0  0  0  0  0  0
    3.7320    1.0000    0.0000 N   0  0  0  0  0  0  0  0  0  0  0  0
    4.5981    2.5000    0.0000 N   0  0  0  0  0  0  0  0  0  0  0  0
    3.7320    4.0000    0.0000 N   0  0  0  0  0  0  0  0  0  0  0  0
    3.7320   -0.0000    0.0000 C   0  0  2  0  0  0  0  0  0  0  0  0
    2.8660   -0.5000    0.0000 C   0  0  2  0  0  0  0  0  0  0  0  0
    4.5981   -0.5000    0.0000 C   0  0  0  0  0  0  0  0  0  0  0  0
    4.5981   -1.5000    0.0000 C   0  0  0  0  0  0  0  0  0  0  0  0
    2.0000    0.0000    0.0000 C   0  0  0  0  0  0  0  0  0  0  0  0
    3.7320   -2.0000    0.0000 C   0  0  0  0  0  0  0  0  0  0  0  0
    2.8660    1.5000    0.0000 C   0  0  0  0  0  0  0  0  0  0  0  0
    4.5981    1.5000    0.0000 C   0  0  0  0  0  0  0  0  0  0  0  0
    2.8660    2.5000    0.0000 C   0  0  0  0  0  0  0  0  0  0  0  0
    3.7320    3.0000    0.0000 C   0  0  0  0  0  0  0  0  0  0  0  0
    2.0000    3.0000    0.0000 C   0  0  0  0  0  0  0  0  0  0  0  0
    4.2690    0.3100    0.0000 H   0  0  0  0  0  0  0  0  0  0  0  0
    2.3291   -0.8100    0.0000 H   0  0  0  0  0  0  0  0  0  0  0  0
    5.2087   -0.6077    0.0000 H   0  0  0  0  0  0  0  0  0  0  0  0
    4.8101    0.0826    0.0000 H   0  0  0  0  0  0  0  0  0  0  0  0
    5.1350   -1.8100    0.0000 H   0  0  0  0  0  0  0  0  0  0  0  0
    2.3100    0.5369    0.0000 H   0  0  0  0  0  0  0  0  0  0  0  0
    1.4631    0.3100    0.0000 H   0  0  0  0  0  0  0  0  0  0  0  0
    1.6900   -0.5369    0.0000 H   0  0  0  0  0  0  0  0  0  0  0  0
    2.3291    1.1900    0.0000 H   0  0  0  0  0  0  0  0  0  0  0  0
    2.3100    3.5369    0.0000 H   0  0  0  0  0  0  0  0  0  0  0  0
    1.4631    3.3100    0.0000 H   0  0  0  0  0  0  0  0  0  0  0  0
    1.6900    2.4631    0.0000 H   0  0  0  0  0  0  0  0  0  0  0  0
    4.2690   -4.3100    0.0000 H   0  0  0  0  0  0  0  0  0  0  0  0
    5.0420   -3.5369    0.0000 H   0  0  0  0  0  0  0  0  0  0  0  0
    4.2690    4.3100    0.0000 H   0  0  0  0  0  0  0  0  0  0  0  0
    3.1951    4.3100    0.0000 H   0  0  0  0  0  0  0  0  0  0  0  0
  1  3  1  0  0  0  0
  1  4  1  0  0  0  0
  1  6  2  0  0  0  0
  1 15  1  0  0  0  0
  2 11  1  0  0  0  0
  2 15  1  0  0  0  0
  3 33  1  0  0  0  0
  4 34  1  0  0  0  0
  5 17  2  0  0  0  0
 10  7  1  1  0  0  0
  7 16  1  0  0  0  0
  7 17  1  0  0  0  0
  8 17  1  0  0  0  0
  8 19  2  0  0  0  0
  9 19  1  0  0  0  0
  9 35  1  0  0  0  0
  9 36  1  0  0  0  0
 10 11  1  0  0  0  0
 10 12  1  0  0  0  0
 10 21  1  0  0  0  0
 11 14  1  1  0  0  0
 11 22  1  0  0  0  0
 12 13  1  0  0  0  0
 12 23  1  0  0  0  0
 12 24  1  0  0  0  0
 13 15  2  0  0  0  0
 13 25  1  0  0  0  0
 14 26  1  0  0  0  0
 14 27  1  0  0  0  0
 14 28  1  0  0  0  0
 16 18  2  0  0  0  0
 16 29  1  0  0  0  0
 18 19  1  0  0  0  0
 18 20  1  0  0  0  0
 20 30  1  0  0  0  0
 20 31  1  0  0  0  0
 20 32  1  0  0  0  0
M  END
> <PUBCHEM_COMPOUND_CID>
513846
> <PUBCHEM_COMPOUND_CANONICALIZED>
1
> <PUBCHEM_CACTVS_COMPLEXITY>
577
> <PUBCHEM_CACTVS_HBOND_ACCEPTOR>
5
> <PUBCHEM_CACTVS_HBOND_DONOR>
3
> <PUBCHEM_CACTVS_ROTATABLE_BOND>
2
> <PUBCHEM_CACTVS_SUBSKEYS>
AAADceBzOAIAAAAAAAAAAAAAAAAAAAAAAAAgQAAAAAAAAAAAAAAAHggQCCAADDzhgAYDAANABBCoQiJmdICACAEgIAAAAAAoABiCAAIAAQAFAAAEhgIQAAAAAAAAAAAAAAAAAAAAAAAAAAAAAAAAAAAAAA==
> <PUBCHEM_IUPAC_OPENEYE_NAME>
[(2S,3S)-3-(4-amino-5-methyl-2-oxo-pyrimidin-1-yl)-2-methyl-3,4-dihydro-2H-pyran-6-yl]phosphonic acid
> <PUBCHEM_IUPAC_CAS_NAME>
[(2S,3S)-3-(4-amino-5-methyl-2-oxo-1-pyrimidinyl)-2-methyl-3,4-dihydro-2H-pyran-6-yl]phosphonic acid
> <PUBCHEM_IUPAC_NAME_MARKUP>
[(2<I>S</I>,3<I>S</I>)-3-(4-amino-5-methyl-2-oxopyrimidin-1-yl)-2-methyl-3,4-dihydro-2<I>H</I>-pyran-6-yl]phosphonic acid
> <PUBCHEM_IUPAC_NAME>
[(2S,3S)-3-(4-amino-5-methyl-2-oxopyrimidin-1-yl)-2-methyl-3,4-dihydro-2H-pyran-6-yl]phosphonic acid
> <PUBCHEM_IUPAC_SYSTEMATIC_NAME>
[(2S,3S)-3-(4-azanyl-5-methyl-2-oxidanylidene-pyrimidin-1-yl)-2-methyl-3,4-dihydro-2H-pyran-6-yl]phosphonic acid
> <PUBCHEM_IUPAC_TRADITIONAL_NAME>
[(2S,3S)-3-(4-amino-2-keto-5-methyl-pyrimidin-1-yl)-2-methyl-3,4-dihydro-2H-pyran-6-yl]phosphonic acid
> <PUBCHEM_IUPAC_INCHI>
InChI=1S/C11H16N3O5P/c1-6-5-14(11(15)13-10(6)12)8-3-4-9(19-7(8)2)20(16,17)18/h4-5,7-8H,3H2,1-2H3,(H2,12,13,15)(H2,16,17,18)/t7-,8-/m0/s1
> <PUBCHEM_IUPAC_INCHIKEY>
PBWLVRNEKLTSEC-YUMQZZPRSA-N
> <PUBCHEM_XLOGP3_AA>
-1.4
> <PUBCHEM_EXACT_MASS>
301.08275762
> <PUBCHEM_MOLECULAR_FORMULA>
C11H16N3O5P
> <PUBCHEM_MOLECULAR_WEIGHT>
301.24
> <PUBCHEM_OPENEYE_CAN_SMILES>
CC1C(CC=C(O1)P(=O)(O)O)N2C=C(C(=NC2=O)N)C
> <PUBCHEM_OPENEYE_ISO_SMILES>
C[C@H]1[C@H](CC=C(O1)P(=O)(O)O)N2C=C(C(=NC2=O)N)C
> <PUBCHEM_CACTVS_TPSA>
125
> <PUBCHEM_MONOISOTOPIC_WEIGHT>
301.08275762
> <PUBCHEM_TOTAL_CHARGE>
0
> <PUBCHEM_HEAVY_ATOM_COUNT>
20
> <PUBCHEM_ATOM_DEF_STEREO_COUNT>
2
> <PUBCHEM_ATOM_UDEF_STEREO_COUNT>
0
> <PUBCHEM_BOND_DEF_STEREO_COUNT>
0
> <PUBCHEM_BOND_UDEF_STEREO_COUNT>
0
> <PUBCHEM_ISOTOPIC_ATOM_COUNT>
0
> <PUBCHEM_COMPONENT_COUNT>
1
> <PUBCHEM_CACTVS_TAUTO_COUNT>
-1
> <PUBCHEM_COORDINATE_TYPE>
1
5
255
> <PUBCHEM_BONDANNOTATIONS>
11  14  5
16  18  8
18  19  8
10  7  5
7  16  8
7  17  8
8  17  8
8  19  8
$$$$
