513800
  -OEChem-10302200282D
 90 93  0     1  0  0  0  0  0999 V2000
    6.0010    3.9400    0.0000 S   0  0  0  0  0  0  0  0  0  0  0  0
    6.0010    0.9400    0.0000 O   0  0  0  0  0  0  0  0  0  0  0  0
    6.5010    4.8060    0.0000 O   0  0  0  0  0  0  0  0  0  0  0  0
    5.5010    3.0740    0.0000 O   0  0  0  0  0  0  0  0  0  0  0  0
    8.5991   -2.5600    0.0000 O   0  0  0  0  0  0  0  0  0  0  0  0
   14.7415   -2.2553    0.0000 O   0  0  0  0  0  0  0  0  0  0  0  0
   14.7415   -3.8647    0.0000 O   0  0  0  0  0  0  0  0  0  0  0  0
    6.8671   -6.5600    0.0000 O   0  5  0  0  0  0  0  0  0  0  0  0
    6.0010   -5.0600    0.0000 O   0  0  0  0  0  0  0  0  0  0  0  0
    6.8671    3.4400    0.0000 N   0  0  3  0  0  0  0  0  0  0  0  0
    9.4651   -1.0600    0.0000 N   0  0  0  0  0  0  0  0  0  0  0  0
   10.3312   -2.5600    0.0000 N   0  0  0  0  0  0  0  0  0  0  0  0
    2.5369    5.9400    0.0000 N   0  0  0  0  0  0  0  0  0  0  0  0
    6.8671   -5.5600    0.0000 N   0  3  0  0  0  0  0  0  0  0  0  0
    6.8671    2.4400    0.0000 C   0  0  1  0  0  0  0  0  0  0  0  0
    7.7331    1.9400    0.0000 C   0  0  0  0  0  0  0  0  0  0  0  0
    7.7331    3.9400    0.0000 C   0  0  0  0  0  0  0  0  0  0  0  0
    8.5991    3.4400    0.0000 C   0  0  0  0  0  0  0  0  0  0  0  0
    7.7331    0.9400    0.0000 C   0  0  0  0  0  0  0  0  0  0  0  0
    6.0010    1.9400    0.0000 C   0  0  0  0  0  0  0  0  0  0  0  0
    9.4651    3.9400    0.0000 C   0  0  0  0  0  0  0  0  0  0  0  0
    8.5991    0.4400    0.0000 C   0  0  0  0  0  0  0  0  0  0  0  0
    5.1350    4.4400    0.0000 C   0  0  0  0  0  0  0  0  0  0  0  0
    8.5991   -0.5600    0.0000 C   0  0  0  0  0  0  0  0  0  0  0  0
   10.3312    3.4400    0.0000 C   0  0  0  0  0  0  0  0  0  0  0  0
    9.4651    4.9400    0.0000 C   0  0  0  0  0  0  0  0  0  0  0  0
    5.1350    5.4400    0.0000 C   0  0  0  0  0  0  0  0  0  0  0  0
    4.2690    3.9400    0.0000 C   0  0  0  0  0  0  0  0  0  0  0  0
    4.2690    5.9400    0.0000 C   0  0  0  0  0  0  0  0  0  0  0  0
    3.4030    4.4400    0.0000 C   0  0  0  0  0  0  0  0  0  0  0  0
    9.4651   -2.0600    0.0000 C   0  0  0  0  0  0  0  0  0  0  0  0
    3.4030    5.4400    0.0000 C   0  0  0  0  0  0  0  0  0  0  0  0
   11.1972   -2.0600    0.0000 C   0  0  0  0  0  0  0  0  0  0  0  0
   10.3312   -3.5600    0.0000 C   0  0  0  0  0  0  0  0  0  0  0  0
   12.0632   -2.5600    0.0000 C   0  0  0  0  0  0  0  0  0  0  0  0
    9.4651   -4.0600    0.0000 C   0  0  0  0  0  0  0  0  0  0  0  0
   12.9292   -2.0600    0.0000 C   0  0  0  0  0  0  0  0  0  0  0  0
   12.0632   -3.5600    0.0000 C   0  0  0  0  0  0  0  0  0  0  0  0
   13.7953   -2.5600    0.0000 C   0  0  0  0  0  0  0  0  0  0  0  0
    9.4651   -5.0600    0.0000 C   0  0  0  0  0  0  0  0  0  0  0  0
    8.5991   -3.5600    0.0000 C   0  0  0  0  0  0  0  0  0  0  0  0
   13.7953   -3.5600    0.0000 C   0  0  0  0  0  0  0  0  0  0  0  0
   12.9292   -4.0600    0.0000 C   0  0  0  0  0  0  0  0  0  0  0  0
    8.5991   -5.5600    0.0000 C   0  0  0  0  0  0  0  0  0  0  0  0
    7.7331   -4.0600    0.0000 C   0  0  0  0  0  0  0  0  0  0  0  0
    7.7331   -5.0600    0.0000 C   0  0  0  0  0  0  0  0  0  0  0  0
   15.3251   -3.0600    0.0000 C   0  0  0  0  0  0  0  0  0  0  0  0
    6.3301    2.7500    0.0000 H   0  0  0  0  0  0  0  0  0  0  0  0
    8.3437    1.8323    0.0000 H   0  0  0  0  0  0  0  0  0  0  0  0
    7.9451    2.5226    0.0000 H   0  0  0  0  0  0  0  0  0  0  0  0
    8.1316    4.4150    0.0000 H   0  0  0  0  0  0  0  0  0  0  0  0
    7.3346    4.4150    0.0000 H   0  0  0  0  0  0  0  0  0  0  0  0
    8.2006    2.9651    0.0000 H   0  0  0  0  0  0  0  0  0  0  0  0
    8.9976    2.9651    0.0000 H   0  0  0  0  0  0  0  0  0  0  0  0
    7.1225    1.0477    0.0000 H   0  0  0  0  0  0  0  0  0  0  0  0
    7.5210    0.3574    0.0000 H   0  0  0  0  0  0  0  0  0  0  0  0
    5.7890    2.5226    0.0000 H   0  0  0  0  0  0  0  0  0  0  0  0
    5.3905    1.8323    0.0000 H   0  0  0  0  0  0  0  0  0  0  0  0
   10.0021    4.2500    0.0000 H   0  0  0  0  0  0  0  0  0  0  0  0
    9.2097    0.3323    0.0000 H   0  0  0  0  0  0  0  0  0  0  0  0
    8.8112    1.0226    0.0000 H   0  0  0  0  0  0  0  0  0  0  0  0
    7.9885   -0.4523    0.0000 H   0  0  0  0  0  0  0  0  0  0  0  0
    8.3871   -1.1426    0.0000 H   0  0  0  0  0  0  0  0  0  0  0  0
   10.0212    2.9031    0.0000 H   0  0  0  0  0  0  0  0  0  0  0  0
   10.8681    3.1300    0.0000 H   0  0  0  0  0  0  0  0  0  0  0  0
   10.6412    3.9769    0.0000 H   0  0  0  0  0  0  0  0  0  0  0  0
   10.0851    4.9400    0.0000 H   0  0  0  0  0  0  0  0  0  0  0  0
    9.4651    5.5600    0.0000 H   0  0  0  0  0  0  0  0  0  0  0  0
    8.8451    4.9400    0.0000 H   0  0  0  0  0  0  0  0  0  0  0  0
    5.4641    0.6300    0.0000 H   0  0  0  0  0  0  0  0  0  0  0  0
    5.6720    5.7500    0.0000 H   0  0  0  0  0  0  0  0  0  0  0  0
    4.2690    3.3200    0.0000 H   0  0  0  0  0  0  0  0  0  0  0  0
   10.0021   -0.7500    0.0000 H   0  0  0  0  0  0  0  0  0  0  0  0
    4.2690    6.5600    0.0000 H   0  0  0  0  0  0  0  0  0  0  0  0
    2.8660    4.1300    0.0000 H   0  0  0  0  0  0  0  0  0  0  0  0
   11.5957   -1.5850    0.0000 H   0  0  0  0  0  0  0  0  0  0  0  0
   10.7987   -1.5850    0.0000 H   0  0  0  0  0  0  0  0  0  0  0  0
   10.5432   -4.1426    0.0000 H   0  0  0  0  0  0  0  0  0  0  0  0
   10.9417   -3.4523    0.0000 H   0  0  0  0  0  0  0  0  0  0  0  0
    2.5369    6.5600    0.0000 H   0  0  0  0  0  0  0  0  0  0  0  0
    2.0000    5.6300    0.0000 H   0  0  0  0  0  0  0  0  0  0  0  0
   12.9292   -1.4400    0.0000 H   0  0  0  0  0  0  0  0  0  0  0  0
   11.5263   -3.8700    0.0000 H   0  0  0  0  0  0  0  0  0  0  0  0
   10.0021   -5.3700    0.0000 H   0  0  0  0  0  0  0  0  0  0  0  0
    8.5991   -2.9400    0.0000 H   0  0  0  0  0  0  0  0  0  0  0  0
   12.9292   -4.6800    0.0000 H   0  0  0  0  0  0  0  0  0  0  0  0
    8.5991   -6.1800    0.0000 H   0  0  0  0  0  0  0  0  0  0  0  0
    7.1962   -3.7500    0.0000 H   0  0  0  0  0  0  0  0  0  0  0  0
   15.7860   -3.4747    0.0000 H   0  0  0  0  0  0  0  0  0  0  0  0
   15.7860   -2.6453    0.0000 H   0  0  0  0  0  0  0  0  0  0  0  0
  1  3  2  0  0  0  0
  1  4  2  0  0  0  0
  1 10  1  0  0  0  0
  1 23  1  0  0  0  0
  2 20  1  0  0  0  0
  2 70  1  0  0  0  0
  5 31  2  0  0  0  0
  6 39  1  0  0  0  0
  6 47  1  0  0  0  0
  7 42  1  0  0  0  0
  7 47  1  0  0  0  0
  8 14  1  0  0  0  0
  9 14  2  0  0  0  0
 15 10  1  1  0  0  0
 10 17  1  0  0  0  0
 11 24  1  0  0  0  0
 11 31  1  0  0  0  0
 11 73  1  0  0  0  0
 12 31  1  0  0  0  0
 12 33  1  0  0  0  0
 12 34  1  0  0  0  0
 13 32  1  0  0  0  0
 13 80  1  0  0  0  0
 13 81  1  0  0  0  0
 14 46  1  0  0  0  0
 15 16  1  0  0  0  0
 15 20  1  0  0  0  0
 15 48  1  0  0  0  0
 16 19  1  0  0  0  0
 16 49  1  0  0  0  0
 16 50  1  0  0  0  0
 17 18  1  0  0  0  0
 17 51  1  0  0  0  0
 17 52  1  0  0  0  0
 18 21  1  0  0  0  0
 18 53  1  0  0  0  0
 18 54  1  0  0  0  0
 19 22  1  0  0  0  0
 19 55  1  0  0  0  0
 19 56  1  0  0  0  0
 20 57  1  0  0  0  0
 20 58  1  0  0  0  0
 21 25  1  0  0  0  0
 21 26  1  0  0  0  0
 21 59  1  0  0  0  0
 22 24  1  0  0  0  0
 22 60  1  0  0  0  0
 22 61  1  0  0  0  0
 23 27  2  0  0  0  0
 23 28  1  0  0  0  0
 24 62  1  0  0  0  0
 24 63  1  0  0  0  0
 25 64  1  0  0  0  0
 25 65  1  0  0  0  0
 25 66  1  0  0  0  0
 26 67  1  0  0  0  0
 26 68  1  0  0  0  0
 26 69  1  0  0  0  0
 27 29  1  0  0  0  0
 27 71  1  0  0  0  0
 28 30  2  0  0  0  0
 28 72  1  0  0  0  0
 29 32  2  0  0  0  0
 29 74  1  0  0  0  0
 30 32  1  0  0  0  0
 30 75  1  0  0  0  0
 33 35  1  0  0  0  0
 33 76  1  0  0  0  0
 33 77  1  0  0  0  0
 34 36  1  0  0  0  0
 34 78  1  0  0  0  0
 34 79  1  0  0  0  0
 35 37  2  0  0  0  0
 35 38  1  0  0  0  0
 36 40  2  0  0  0  0
 36 41  1  0  0  0  0
 37 39  1  0  0  0  0
 37 82  1  0  0  0  0
 38 43  2  0  0  0  0
 38 83  1  0  0  0  0
 39 42  2  0  0  0  0
 40 44  1  0  0  0  0
 40 84  1  0  0  0  0
 41 45  2  0  0  0  0
 41 85  1  0  0  0  0
 42 43  1  0  0  0  0
 43 86  1  0  0  0  0
 44 46  2  0  0  0  0
 44 87  1  0  0  0  0
 45 46  1  0  0  0  0
 45 88  1  0  0  0  0
 47 89  1  0  0  0  0
 47 90  1  0  0  0  0
M  CHG  2   8  -1  14   1
M  END
> <PUBCHEM_COMPOUND_CID>
513800
> <PUBCHEM_COMPOUND_CANONICALIZED>
1
> <PUBCHEM_CACTVS_COMPLEXITY>
1070
> <PUBCHEM_CACTVS_HBOND_ACCEPTOR>
10
> <PUBCHEM_CACTVS_HBOND_DONOR>
3
> <PUBCHEM_CACTVS_ROTATABLE_BOND>
16
> <PUBCHEM_CACTVS_SUBSKEYS>
AAADcfB/vABAAAAAAAAAAAAAAAAAASAAAAAwYMAAAAAAAEgBUAAAHgQUSAAADSzh2Aczz4PQRgKJAiRCU3DCCBAgIgAoiJgO7IqfNiKEsZukcCps1hOe6Aew0BIOKAQBAAAAQABQCAIAAACAAAAAAAAAAA==
> <PUBCHEM_IUPAC_OPENEYE_NAME>
3-[(5S)-5-[(4-aminophenyl)sulfonyl-isopentyl-amino]-6-hydroxy-hexyl]-1-(1,3-benzodioxol-5-ylmethyl)-1-[(4-nitrophenyl)methyl]urea
> <PUBCHEM_IUPAC_CAS_NAME>
3-[(5S)-5-[(4-aminophenyl)sulfonyl-(3-methylbutyl)amino]-6-hydroxyhexyl]-1-(1,3-benzodioxol-5-ylmethyl)-1-[(4-nitrophenyl)methyl]urea
> <PUBCHEM_IUPAC_NAME_MARKUP>
3-[(5<I>S</I>)-5-[(4-aminophenyl)sulfonyl-(3-methylbutyl)amino]-6-hydroxyhexyl]-1-(1,3-benzodioxol-5-ylmethyl)-1-[(4-nitrophenyl)methyl]urea
> <PUBCHEM_IUPAC_NAME>
3-[(5S)-5-[(4-aminophenyl)sulfonyl-(3-methylbutyl)amino]-6-hydroxyhexyl]-1-(1,3-benzodioxol-5-ylmethyl)-1-[(4-nitrophenyl)methyl]urea
> <PUBCHEM_IUPAC_SYSTEMATIC_NAME>
3-[(5S)-5-[(4-aminophenyl)sulfonyl-(3-methylbutyl)amino]-6-oxidanyl-hexyl]-1-(1,3-benzodioxol-5-ylmethyl)-1-[(4-nitrophenyl)methyl]urea
> <PUBCHEM_IUPAC_TRADITIONAL_NAME>
3-[(5S)-6-hydroxy-5-[isoamyl(sulfanilyl)amino]hexyl]-1-(4-nitrobenzyl)-1-piperonyl-urea
> <PUBCHEM_IUPAC_INCHI>
InChI=1S/C33H43N5O8S/c1-24(2)16-18-37(47(43,44)30-13-9-27(34)10-14-30)29(22-39)5-3-4-17-35-33(40)36(20-25-6-11-28(12-7-25)38(41)42)21-26-8-15-31-32(19-26)46-23-45-31/h6-15,19,24,29,39H,3-5,16-18,20-23,34H2,1-2H3,(H,35,40)/t29-/m0/s1
> <PUBCHEM_IUPAC_INCHIKEY>
FKDHOENKKMWEMD-LJAQVGFWSA-N
> <PUBCHEM_XLOGP3_AA>
4.5
> <PUBCHEM_EXACT_MASS>
669.28323452
> <PUBCHEM_MOLECULAR_FORMULA>
C33H43N5O8S
> <PUBCHEM_MOLECULAR_WEIGHT>
669.8
> <PUBCHEM_OPENEYE_CAN_SMILES>
CC(C)CCN(C(CCCCNC(=O)N(CC1=CC=C(C=C1)[N+](=O)[O-])CC2=CC3=C(C=C2)OCO3)CO)S(=O)(=O)C4=CC=C(C=C4)N
> <PUBCHEM_OPENEYE_ISO_SMILES>
CC(C)CCN([C@@H](CCCCNC(=O)N(CC1=CC=C(C=C1)[N+](=O)[O-])CC2=CC3=C(C=C2)OCO3)CO)S(=O)(=O)C4=CC=C(C=C4)N
> <PUBCHEM_CACTVS_TPSA>
189
> <PUBCHEM_MONOISOTOPIC_WEIGHT>
669.28323452
> <PUBCHEM_TOTAL_CHARGE>
0
> <PUBCHEM_HEAVY_ATOM_COUNT>
47
> <PUBCHEM_ATOM_DEF_STEREO_COUNT>
1
> <PUBCHEM_ATOM_UDEF_STEREO_COUNT>
0
> <PUBCHEM_BOND_DEF_STEREO_COUNT>
0
> <PUBCHEM_BOND_UDEF_STEREO_COUNT>
0
> <PUBCHEM_ISOTOPIC_ATOM_COUNT>
0
> <PUBCHEM_COMPONENT_COUNT>
1
> <PUBCHEM_CACTVS_TAUTO_COUNT>
-1
> <PUBCHEM_COORDINATE_TYPE>
1
5
255
> <PUBCHEM_BONDANNOTATIONS>
15  10  5
23  27  8
23  28  8
27  29  8
28  30  8
29  32  8
30  32  8
35  37  8
35  38  8
36  40  8
36  41  8
37  39  8
38  43  8
39  42  8
40  44  8
41  45  8
42  43  8
44  46  8
45  46  8
$$$$
