513815
  -OEChem-10302200282D
 87 89  0     1  0  0  0  0  0999 V2000
    6.0010    3.1900    0.0000 S   0  0  0  0  0  0  0  0  0  0  0  0
    6.0010    0.1900    0.0000 O   0  0  0  0  0  0  0  0  0  0  0  0
    6.5010    4.0560    0.0000 O   0  0  0  0  0  0  0  0  0  0  0  0
    5.5010    2.3240    0.0000 O   0  0  0  0  0  0  0  0  0  0  0  0
    8.5991   -3.3100    0.0000 O   0  0  0  0  0  0  0  0  0  0  0  0
   14.7415   -3.0053    0.0000 O   0  0  0  0  0  0  0  0  0  0  0  0
   14.7415   -4.6147    0.0000 O   0  0  0  0  0  0  0  0  0  0  0  0
    6.8671    2.6900    0.0000 N   0  0  3  0  0  0  0  0  0  0  0  0
    9.4651   -1.8100    0.0000 N   0  0  0  0  0  0  0  0  0  0  0  0
   10.3312   -3.3100    0.0000 N   0  0  0  0  0  0  0  0  0  0  0  0
    2.5369    5.1900    0.0000 N   0  0  0  0  0  0  0  0  0  0  0  0
    6.8671    1.6900    0.0000 C   0  0  1  0  0  0  0  0  0  0  0  0
    7.7331    1.1900    0.0000 C   0  0  0  0  0  0  0  0  0  0  0  0
    7.7331    3.1900    0.0000 C   0  0  0  0  0  0  0  0  0  0  0  0
    7.7331    0.1900    0.0000 C   0  0  0  0  0  0  0  0  0  0  0  0
    8.5991    2.6900    0.0000 C   0  0  0  0  0  0  0  0  0  0  0  0
    6.0010    1.1900    0.0000 C   0  0  0  0  0  0  0  0  0  0  0  0
    9.4651    3.1900    0.0000 C   0  0  0  0  0  0  0  0  0  0  0  0
    8.5991   -0.3100    0.0000 C   0  0  0  0  0  0  0  0  0  0  0  0
    5.1350    3.6900    0.0000 C   0  0  0  0  0  0  0  0  0  0  0  0
    8.5991   -1.3100    0.0000 C   0  0  0  0  0  0  0  0  0  0  0  0
   10.3312    2.6900    0.0000 C   0  0  0  0  0  0  0  0  0  0  0  0
    9.4651    4.1900    0.0000 C   0  0  0  0  0  0  0  0  0  0  0  0
    4.2690    3.1900    0.0000 C   0  0  0  0  0  0  0  0  0  0  0  0
    5.1350    4.6900    0.0000 C   0  0  0  0  0  0  0  0  0  0  0  0
   10.3312   -4.3100    0.0000 C   0  0  0  0  0  0  0  0  0  0  0  0
    9.4651   -4.8100    0.0000 C   0  0  0  0  0  0  0  0  0  0  0  0
    9.4651   -2.8100    0.0000 C   0  0  0  0  0  0  0  0  0  0  0  0
   11.1972   -2.8100    0.0000 C   0  0  0  0  0  0  0  0  0  0  0  0
    3.4030    3.6900    0.0000 C   0  0  0  0  0  0  0  0  0  0  0  0
    4.2690    5.1900    0.0000 C   0  0  0  0  0  0  0  0  0  0  0  0
    3.4030    4.6900    0.0000 C   0  0  0  0  0  0  0  0  0  0  0  0
   12.0632   -3.3100    0.0000 C   0  0  0  0  0  0  0  0  0  0  0  0
    9.4651   -5.8100    0.0000 C   0  0  0  0  0  0  0  0  0  0  0  0
    8.5991   -4.3100    0.0000 C   0  0  0  0  0  0  0  0  0  0  0  0
   12.9292   -2.8100    0.0000 C   0  0  0  0  0  0  0  0  0  0  0  0
   12.0632   -4.3100    0.0000 C   0  0  0  0  0  0  0  0  0  0  0  0
   13.7953   -3.3100    0.0000 C   0  0  0  0  0  0  0  0  0  0  0  0
   13.7953   -4.3100    0.0000 C   0  0  0  0  0  0  0  0  0  0  0  0
   12.9292   -4.8100    0.0000 C   0  0  0  0  0  0  0  0  0  0  0  0
   15.3251   -3.8100    0.0000 C   0  0  0  0  0  0  0  0  0  0  0  0
    6.3301    2.0000    0.0000 H   0  0  0  0  0  0  0  0  0  0  0  0
    8.3437    1.0823    0.0000 H   0  0  0  0  0  0  0  0  0  0  0  0
    7.9451    1.7726    0.0000 H   0  0  0  0  0  0  0  0  0  0  0  0
    8.1316    3.6650    0.0000 H   0  0  0  0  0  0  0  0  0  0  0  0
    7.3346    3.6650    0.0000 H   0  0  0  0  0  0  0  0  0  0  0  0
    7.1225    0.2977    0.0000 H   0  0  0  0  0  0  0  0  0  0  0  0
    7.5210   -0.3926    0.0000 H   0  0  0  0  0  0  0  0  0  0  0  0
    8.2006    2.2151    0.0000 H   0  0  0  0  0  0  0  0  0  0  0  0
    8.9976    2.2151    0.0000 H   0  0  0  0  0  0  0  0  0  0  0  0
    5.7890    1.7726    0.0000 H   0  0  0  0  0  0  0  0  0  0  0  0
    5.3905    1.0823    0.0000 H   0  0  0  0  0  0  0  0  0  0  0  0
   10.0021    3.5000    0.0000 H   0  0  0  0  0  0  0  0  0  0  0  0
    9.2097   -0.4177    0.0000 H   0  0  0  0  0  0  0  0  0  0  0  0
    8.8112    0.2726    0.0000 H   0  0  0  0  0  0  0  0  0  0  0  0
    7.9885   -1.2023    0.0000 H   0  0  0  0  0  0  0  0  0  0  0  0
    8.3871   -1.8926    0.0000 H   0  0  0  0  0  0  0  0  0  0  0  0
   10.0212    2.1531    0.0000 H   0  0  0  0  0  0  0  0  0  0  0  0
   10.8681    2.3800    0.0000 H   0  0  0  0  0  0  0  0  0  0  0  0
   10.6412    3.2269    0.0000 H   0  0  0  0  0  0  0  0  0  0  0  0
   10.0851    4.1900    0.0000 H   0  0  0  0  0  0  0  0  0  0  0  0
    9.4651    4.8100    0.0000 H   0  0  0  0  0  0  0  0  0  0  0  0
    8.8451    4.1900    0.0000 H   0  0  0  0  0  0  0  0  0  0  0  0
    5.4641   -0.1200    0.0000 H   0  0  0  0  0  0  0  0  0  0  0  0
   10.0021   -1.5000    0.0000 H   0  0  0  0  0  0  0  0  0  0  0  0
    4.2690    2.5700    0.0000 H   0  0  0  0  0  0  0  0  0  0  0  0
    5.6720    5.0000    0.0000 H   0  0  0  0  0  0  0  0  0  0  0  0
   10.5432   -4.8926    0.0000 H   0  0  0  0  0  0  0  0  0  0  0  0
   10.9417   -4.2023    0.0000 H   0  0  0  0  0  0  0  0  0  0  0  0
   10.0021   -5.1200    0.0000 H   0  0  0  0  0  0  0  0  0  0  0  0
   11.5957   -2.3350    0.0000 H   0  0  0  0  0  0  0  0  0  0  0  0
   10.7987   -2.3350    0.0000 H   0  0  0  0  0  0  0  0  0  0  0  0
    2.8660    3.3800    0.0000 H   0  0  0  0  0  0  0  0  0  0  0  0
    4.2690    5.8100    0.0000 H   0  0  0  0  0  0  0  0  0  0  0  0
    8.8451   -5.8100    0.0000 H   0  0  0  0  0  0  0  0  0  0  0  0
    9.4651   -6.4300    0.0000 H   0  0  0  0  0  0  0  0  0  0  0  0
   10.0851   -5.8100    0.0000 H   0  0  0  0  0  0  0  0  0  0  0  0
    8.9091   -3.7731    0.0000 H   0  0  0  0  0  0  0  0  0  0  0  0
    8.0622   -4.0000    0.0000 H   0  0  0  0  0  0  0  0  0  0  0  0
    8.2891   -4.8469    0.0000 H   0  0  0  0  0  0  0  0  0  0  0  0
   12.9292   -2.1900    0.0000 H   0  0  0  0  0  0  0  0  0  0  0  0
   11.5263   -4.6200    0.0000 H   0  0  0  0  0  0  0  0  0  0  0  0
    2.5369    5.8100    0.0000 H   0  0  0  0  0  0  0  0  0  0  0  0
    2.0000    4.8800    0.0000 H   0  0  0  0  0  0  0  0  0  0  0  0
   12.9292   -5.4300    0.0000 H   0  0  0  0  0  0  0  0  0  0  0  0
   15.7860   -4.2247    0.0000 H   0  0  0  0  0  0  0  0  0  0  0  0
   15.7860   -3.3953    0.0000 H   0  0  0  0  0  0  0  0  0  0  0  0
  1  3  2  0  0  0  0
  1  4  2  0  0  0  0
  1  8  1  0  0  0  0
  1 20  1  0  0  0  0
  2 17  1  0  0  0  0
  2 64  1  0  0  0  0
  5 28  2  0  0  0  0
  6 38  1  0  0  0  0
  6 41  1  0  0  0  0
  7 39  1  0  0  0  0
  7 41  1  0  0  0  0
 12  8  1  1  0  0  0
  8 14  1  0  0  0  0
  9 21  1  0  0  0  0
  9 28  1  0  0  0  0
  9 65  1  0  0  0  0
 10 26  1  0  0  0  0
 10 28  1  0  0  0  0
 10 29  1  0  0  0  0
 11 32  1  0  0  0  0
 11 83  1  0  0  0  0
 11 84  1  0  0  0  0
 12 13  1  0  0  0  0
 12 17  1  0  0  0  0
 12 42  1  0  0  0  0
 13 15  1  0  0  0  0
 13 43  1  0  0  0  0
 13 44  1  0  0  0  0
 14 16  1  0  0  0  0
 14 45  1  0  0  0  0
 14 46  1  0  0  0  0
 15 19  1  0  0  0  0
 15 47  1  0  0  0  0
 15 48  1  0  0  0  0
 16 18  1  0  0  0  0
 16 49  1  0  0  0  0
 16 50  1  0  0  0  0
 17 51  1  0  0  0  0
 17 52  1  0  0  0  0
 18 22  1  0  0  0  0
 18 23  1  0  0  0  0
 18 53  1  0  0  0  0
 19 21  1  0  0  0  0
 19 54  1  0  0  0  0
 19 55  1  0  0  0  0
 20 24  2  0  0  0  0
 20 25  1  0  0  0  0
 21 56  1  0  0  0  0
 21 57  1  0  0  0  0
 22 58  1  0  0  0  0
 22 59  1  0  0  0  0
 22 60  1  0  0  0  0
 23 61  1  0  0  0  0
 23 62  1  0  0  0  0
 23 63  1  0  0  0  0
 24 30  1  0  0  0  0
 24 66  1  0  0  0  0
 25 31  2  0  0  0  0
 25 67  1  0  0  0  0
 26 27  1  0  0  0  0
 26 68  1  0  0  0  0
 26 69  1  0  0  0  0
 27 34  1  0  0  0  0
 27 35  1  0  0  0  0
 27 70  1  0  0  0  0
 29 33  1  0  0  0  0
 29 71  1  0  0  0  0
 29 72  1  0  0  0  0
 30 32  2  0  0  0  0
 30 73  1  0  0  0  0
 31 32  1  0  0  0  0
 31 74  1  0  0  0  0
 33 36  2  0  0  0  0
 33 37  1  0  0  0  0
 34 75  1  0  0  0  0
 34 76  1  0  0  0  0
 34 77  1  0  0  0  0
 35 78  1  0  0  0  0
 35 79  1  0  0  0  0
 35 80  1  0  0  0  0
 36 38  1  0  0  0  0
 36 81  1  0  0  0  0
 37 40  2  0  0  0  0
 37 82  1  0  0  0  0
 38 39  2  0  0  0  0
 39 40  1  0  0  0  0
 40 85  1  0  0  0  0
 41 86  1  0  0  0  0
 41 87  1  0  0  0  0
M  END
> <PUBCHEM_COMPOUND_CID>
513815
> <PUBCHEM_COMPOUND_CANONICALIZED>
1
> <PUBCHEM_CACTVS_COMPLEXITY>
875
> <PUBCHEM_CACTVS_HBOND_ACCEPTOR>
8
> <PUBCHEM_CACTVS_HBOND_DONOR>
3
> <PUBCHEM_CACTVS_ROTATABLE_BOND>
16
> <PUBCHEM_CACTVS_SUBSKEYS>
AAADcfB7uABAAAAAAAAAAAAAAAAAASAAAAAwYAAAAAAAAEgBQAAAHgQQSAAADSzh2Aczz4PABgKIAiRCUHDCCBAgIgAIiJgO7IifNiKEsZukcCps1hOe6Aew0BIOIAQBAAAAQABACAIAAACAAAAAAAAAAA==
> <PUBCHEM_IUPAC_OPENEYE_NAME>
3-[(5S)-5-[(4-aminophenyl)sulfonyl-isopentyl-amino]-6-hydroxy-hexyl]-1-(1,3-benzodioxol-5-ylmethyl)-1-isobutyl-urea
> <PUBCHEM_IUPAC_CAS_NAME>
3-[(5S)-5-[(4-aminophenyl)sulfonyl-(3-methylbutyl)amino]-6-hydroxyhexyl]-1-(1,3-benzodioxol-5-ylmethyl)-1-(2-methylpropyl)urea
> <PUBCHEM_IUPAC_NAME_MARKUP>
3-[(5<I>S</I>)-5-[(4-aminophenyl)sulfonyl-(3-methylbutyl)amino]-6-hydroxyhexyl]-1-(1,3-benzodioxol-5-ylmethyl)-1-(2-methylpropyl)urea
> <PUBCHEM_IUPAC_NAME>
3-[(5S)-5-[(4-aminophenyl)sulfonyl-(3-methylbutyl)amino]-6-hydroxyhexyl]-1-(1,3-benzodioxol-5-ylmethyl)-1-(2-methylpropyl)urea
> <PUBCHEM_IUPAC_SYSTEMATIC_NAME>
3-[(5S)-5-[(4-aminophenyl)sulfonyl-(3-methylbutyl)amino]-6-oxidanyl-hexyl]-1-(1,3-benzodioxol-5-ylmethyl)-1-(2-methylpropyl)urea
> <PUBCHEM_IUPAC_TRADITIONAL_NAME>
3-[(5S)-6-hydroxy-5-[isoamyl(sulfanilyl)amino]hexyl]-1-isobutyl-1-piperonyl-urea
> <PUBCHEM_IUPAC_INCHI>
InChI=1S/C30H46N4O6S/c1-22(2)14-16-34(41(37,38)27-11-9-25(31)10-12-27)26(20-35)7-5-6-15-32-30(36)33(18-23(3)4)19-24-8-13-28-29(17-24)40-21-39-28/h8-13,17,22-23,26,35H,5-7,14-16,18-21,31H2,1-4H3,(H,32,36)/t26-/m0/s1
> <PUBCHEM_IUPAC_INCHIKEY>
GULSGCMDBYKNLP-SANMLTNESA-N
> <PUBCHEM_XLOGP3_AA>
4.5
> <PUBCHEM_EXACT_MASS>
590.31380637
> <PUBCHEM_MOLECULAR_FORMULA>
C30H46N4O6S
> <PUBCHEM_MOLECULAR_WEIGHT>
590.8
> <PUBCHEM_OPENEYE_CAN_SMILES>
CC(C)CCN(C(CCCCNC(=O)N(CC1=CC2=C(C=C1)OCO2)CC(C)C)CO)S(=O)(=O)C3=CC=C(C=C3)N
> <PUBCHEM_OPENEYE_ISO_SMILES>
CC(C)CCN([C@@H](CCCCNC(=O)N(CC1=CC2=C(C=C1)OCO2)CC(C)C)CO)S(=O)(=O)C3=CC=C(C=C3)N
> <PUBCHEM_CACTVS_TPSA>
143
> <PUBCHEM_MONOISOTOPIC_WEIGHT>
590.31380637
> <PUBCHEM_TOTAL_CHARGE>
0
> <PUBCHEM_HEAVY_ATOM_COUNT>
41
> <PUBCHEM_ATOM_DEF_STEREO_COUNT>
1
> <PUBCHEM_ATOM_UDEF_STEREO_COUNT>
0
> <PUBCHEM_BOND_DEF_STEREO_COUNT>
0
> <PUBCHEM_BOND_UDEF_STEREO_COUNT>
0
> <PUBCHEM_ISOTOPIC_ATOM_COUNT>
0
> <PUBCHEM_COMPONENT_COUNT>
1
> <PUBCHEM_CACTVS_TAUTO_COUNT>
-1
> <PUBCHEM_COORDINATE_TYPE>
1
5
255
> <PUBCHEM_BONDANNOTATIONS>
20  24  8
20  25  8
24  30  8
25  31  8
30  32  8
31  32  8
33  36  8
33  37  8
36  38  8
37  40  8
38  39  8
39  40  8
12  8  5
$$$$
