513833
  -OEChem-10302200282D
 33 34  0     1  0  0  0  0  0999 V2000
    3.4030   -1.6270    0.0000 P   0  0  0  0  0  0  0  0  0  0  0  0
    5.1350   -1.6270    0.0000 O   0  0  0  0  0  0  0  0  0  0  0  0
    2.5369   -2.1270    0.0000 O   0  0  0  0  0  0  0  0  0  0  0  0
    2.9030   -0.7610    0.0000 O   0  0  0  0  0  0  0  0  0  0  0  0
    3.9030   -2.4930    0.0000 O   0  0  0  0  0  0  0  0  0  0  0  0
    7.7331   -1.1270    0.0000 O   0  0  0  0  0  0  0  0  0  0  0  0
    6.8671    0.3730    0.0000 N   0  0  0  0  0  0  0  0  0  0  0  0
    8.5991    0.3730    0.0000 N   0  0  0  0  0  0  0  0  0  0  0  0
    9.4651    1.8730    0.0000 N   0  0  0  0  0  0  0  0  0  0  0  0
    6.0010   -0.1270    0.0000 C   0  0  2  0  0  0  0  0  0  0  0  0
    6.0010   -1.1270    0.0000 C   0  0  2  0  0  0  0  0  0  0  0  0
    4.2690   -1.1270    0.0000 C   0  0  1  0  0  0  0  0  0  0  0  0
    5.1350    0.3730    0.0000 C   0  0  0  0  0  0  0  0  0  0  0  0
    4.2690   -0.1270    0.0000 C   0  0  0  0  0  0  0  0  0  0  0  0
    6.8671   -1.6270    0.0000 C   0  0  0  0  0  0  0  0  0  0  0  0
    6.8671    1.3730    0.0000 C   0  0  0  0  0  0  0  0  0  0  0  0
    7.7331   -0.1270    0.0000 C   0  0  0  0  0  0  0  0  0  0  0  0
    7.7331    1.8730    0.0000 C   0  0  0  0  0  0  0  0  0  0  0  0
    8.5991    1.3730    0.0000 C   0  0  0  0  0  0  0  0  0  0  0  0
    6.5380   -0.4370    0.0000 H   0  0  0  0  0  0  0  0  0  0  0  0
    6.0010   -1.7470    0.0000 H   0  0  0  0  0  0  0  0  0  0  0  0
    4.2690   -1.7470    0.0000 H   0  0  0  0  0  0  0  0  0  0  0  0
    5.1350    0.9930    0.0000 H   0  0  0  0  0  0  0  0  0  0  0  0
    3.7320    0.1830    0.0000 H   0  0  0  0  0  0  0  0  0  0  0  0
    6.5571   -2.1639    0.0000 H   0  0  0  0  0  0  0  0  0  0  0  0
    7.4040   -1.9370    0.0000 H   0  0  0  0  0  0  0  0  0  0  0  0
    7.1771   -1.0900    0.0000 H   0  0  0  0  0  0  0  0  0  0  0  0
    6.3301    1.6830    0.0000 H   0  0  0  0  0  0  0  0  0  0  0  0
    7.7331    2.4930    0.0000 H   0  0  0  0  0  0  0  0  0  0  0  0
    2.0000   -1.8170    0.0000 H   0  0  0  0  0  0  0  0  0  0  0  0
    2.2830   -0.7610    0.0000 H   0  0  0  0  0  0  0  0  0  0  0  0
    9.4651    2.4930    0.0000 H   0  0  0  0  0  0  0  0  0  0  0  0
   10.0021    1.5630    0.0000 H   0  0  0  0  0  0  0  0  0  0  0  0
  1  3  1  0  0  0  0
  1  4  1  0  0  0  0
  1  5  2  0  0  0  0
 12  1  1  6  0  0  0
  2 11  1  0  0  0  0
  2 12  1  0  0  0  0
  3 30  1  0  0  0  0
  4 31  1  0  0  0  0
  6 17  2  0  0  0  0
 10  7  1  6  0  0  0
  7 16  1  0  0  0  0
  7 17  1  0  0  0  0
  8 17  1  0  0  0  0
  8 19  2  0  0  0  0
  9 19  1  0  0  0  0
  9 32  1  0  0  0  0
  9 33  1  0  0  0  0
 10 11  1  0  0  0  0
 10 13  1  0  0  0  0
 10 20  1  0  0  0  0
 11 15  1  6  0  0  0
 11 21  1  0  0  0  0
 12 14  1  0  0  0  0
 12 22  1  0  0  0  0
 13 14  2  0  0  0  0
 13 23  1  0  0  0  0
 14 24  1  0  0  0  0
 15 25  1  0  0  0  0
 15 26  1  0  0  0  0
 15 27  1  0  0  0  0
 16 18  2  0  0  0  0
 16 28  1  0  0  0  0
 18 19  1  0  0  0  0
 18 29  1  0  0  0  0
M  END
> <PUBCHEM_COMPOUND_CID>
513833
> <PUBCHEM_COMPOUND_CANONICALIZED>
1
> <PUBCHEM_CACTVS_COMPLEXITY>
523
> <PUBCHEM_CACTVS_HBOND_ACCEPTOR>
5
> <PUBCHEM_CACTVS_HBOND_DONOR>
3
> <PUBCHEM_CACTVS_ROTATABLE_BOND>
2
> <PUBCHEM_CACTVS_SUBSKEYS>
AAADccBzOAIAAAAAAAAAAAAAAAAAAAAAAAAgQAAAAAAAAAAAAAAAHggQCCAACDzpgAYDAANABBCoQCJmdICAAAEgAgAICAAYABiCBAAAIQAHEAAA1gIYIAIAAAAAAAAAAAAAAAAAAAAAAAAAAAAAAAAAAA==
> <PUBCHEM_IUPAC_OPENEYE_NAME>
[(2S,3S,6R)-3-(4-amino-2-oxo-pyrimidin-1-yl)-2-methyl-3,6-dihydro-2H-pyran-6-yl]phosphonic acid
> <PUBCHEM_IUPAC_CAS_NAME>
[(2S,3S,6R)-3-(4-amino-2-oxo-1-pyrimidinyl)-2-methyl-3,6-dihydro-2H-pyran-6-yl]phosphonic acid
> <PUBCHEM_IUPAC_NAME_MARKUP>
[(2<I>S</I>,3<I>S</I>,6<I>R</I>)-3-(4-amino-2-oxopyrimidin-1-yl)-2-methyl-3,6-dihydro-2<I>H</I>-pyran-6-yl]phosphonic acid
> <PUBCHEM_IUPAC_NAME>
[(2S,3S,6R)-3-(4-amino-2-oxopyrimidin-1-yl)-2-methyl-3,6-dihydro-2H-pyran-6-yl]phosphonic acid
> <PUBCHEM_IUPAC_SYSTEMATIC_NAME>
[(2S,3S,6R)-3-(4-azanyl-2-oxidanylidene-pyrimidin-1-yl)-2-methyl-3,6-dihydro-2H-pyran-6-yl]phosphonic acid
> <PUBCHEM_IUPAC_TRADITIONAL_NAME>
[(2S,3S,6R)-3-(4-amino-2-keto-pyrimidin-1-yl)-2-methyl-3,6-dihydro-2H-pyran-6-yl]phosphonic acid
> <PUBCHEM_IUPAC_INCHI>
InChI=1S/C10H14N3O5P/c1-6-7(2-3-9(18-6)19(15,16)17)13-5-4-8(11)12-10(13)14/h2-7,9H,1H3,(H2,11,12,14)(H2,15,16,17)/t6-,7-,9+/m0/s1
> <PUBCHEM_IUPAC_INCHIKEY>
AQBJTMSLIDISPH-ACLDMZEESA-N
> <PUBCHEM_XLOGP3_AA>
-2.3
> <PUBCHEM_EXACT_MASS>
287.06710755
> <PUBCHEM_MOLECULAR_FORMULA>
C10H14N3O5P
> <PUBCHEM_MOLECULAR_WEIGHT>
287.21
> <PUBCHEM_OPENEYE_CAN_SMILES>
CC1C(C=CC(O1)P(=O)(O)O)N2C=CC(=NC2=O)N
> <PUBCHEM_OPENEYE_ISO_SMILES>
C[C@H]1[C@H](C=C[C@H](O1)P(=O)(O)O)N2C=CC(=NC2=O)N
> <PUBCHEM_CACTVS_TPSA>
125
> <PUBCHEM_MONOISOTOPIC_WEIGHT>
287.06710755
> <PUBCHEM_TOTAL_CHARGE>
0
> <PUBCHEM_HEAVY_ATOM_COUNT>
19
> <PUBCHEM_ATOM_DEF_STEREO_COUNT>
3
> <PUBCHEM_ATOM_UDEF_STEREO_COUNT>
0
> <PUBCHEM_BOND_DEF_STEREO_COUNT>
0
> <PUBCHEM_BOND_UDEF_STEREO_COUNT>
0
> <PUBCHEM_ISOTOPIC_ATOM_COUNT>
0
> <PUBCHEM_COMPONENT_COUNT>
1
> <PUBCHEM_CACTVS_TAUTO_COUNT>
-1
> <PUBCHEM_COORDINATE_TYPE>
1
5
255
> <PUBCHEM_BONDANNOTATIONS>
12  1  6
11  15  6
16  18  8
18  19  8
10  7  6
7  16  8
7  17  8
8  17  8
8  19  8
$$$$
