513805
  -OEChem-10302200282D
 91 94  0     1  0  0  0  0  0999 V2000
    6.0010    3.8730    0.0000 S   0  0  0  0  0  0  0  0  0  0  0  0
    6.0010   -6.1270    0.0000 F   0  0  0  0  0  0  0  0  0  0  0  0
    7.3671   -6.4930    0.0000 F   0  0  0  0  0  0  0  0  0  0  0  0
    6.3671   -4.7610    0.0000 F   0  0  0  0  0  0  0  0  0  0  0  0
    6.0010    0.8730    0.0000 O   0  0  0  0  0  0  0  0  0  0  0  0
    6.5010    4.7390    0.0000 O   0  0  0  0  0  0  0  0  0  0  0  0
    5.5010    3.0070    0.0000 O   0  0  0  0  0  0  0  0  0  0  0  0
    8.5991   -2.6270    0.0000 O   0  0  0  0  0  0  0  0  0  0  0  0
   14.7415   -2.3222    0.0000 O   0  0  0  0  0  0  0  0  0  0  0  0
   14.7415   -3.9317    0.0000 O   0  0  0  0  0  0  0  0  0  0  0  0
    6.8671    3.3730    0.0000 N   0  0  3  0  0  0  0  0  0  0  0  0
    9.4651   -1.1270    0.0000 N   0  0  0  0  0  0  0  0  0  0  0  0
   10.3312   -2.6270    0.0000 N   0  0  0  0  0  0  0  0  0  0  0  0
    2.5369    5.8730    0.0000 N   0  0  0  0  0  0  0  0  0  0  0  0
    6.8671    2.3730    0.0000 C   0  0  1  0  0  0  0  0  0  0  0  0
    7.7331    1.8730    0.0000 C   0  0  0  0  0  0  0  0  0  0  0  0
    7.7331    3.8730    0.0000 C   0  0  0  0  0  0  0  0  0  0  0  0
    8.5991    3.3730    0.0000 C   0  0  0  0  0  0  0  0  0  0  0  0
    7.7331    0.8730    0.0000 C   0  0  0  0  0  0  0  0  0  0  0  0
    6.0010    1.8730    0.0000 C   0  0  0  0  0  0  0  0  0  0  0  0
    9.4651    3.8730    0.0000 C   0  0  0  0  0  0  0  0  0  0  0  0
    8.5991    0.3730    0.0000 C   0  0  0  0  0  0  0  0  0  0  0  0
    5.1350    4.3730    0.0000 C   0  0  0  0  0  0  0  0  0  0  0  0
    8.5991   -0.6270    0.0000 C   0  0  0  0  0  0  0  0  0  0  0  0
   10.3312    3.3730    0.0000 C   0  0  0  0  0  0  0  0  0  0  0  0
    9.4651    4.8730    0.0000 C   0  0  0  0  0  0  0  0  0  0  0  0
    5.1350    5.3730    0.0000 C   0  0  0  0  0  0  0  0  0  0  0  0
    4.2690    3.8730    0.0000 C   0  0  0  0  0  0  0  0  0  0  0  0
    4.2690    5.8730    0.0000 C   0  0  0  0  0  0  0  0  0  0  0  0
    3.4030    4.3730    0.0000 C   0  0  0  0  0  0  0  0  0  0  0  0
    9.4651   -2.1270    0.0000 C   0  0  0  0  0  0  0  0  0  0  0  0
    3.4030    5.3730    0.0000 C   0  0  0  0  0  0  0  0  0  0  0  0
   11.1972   -2.1270    0.0000 C   0  0  0  0  0  0  0  0  0  0  0  0
   10.3312   -3.6270    0.0000 C   0  0  0  0  0  0  0  0  0  0  0  0
   12.0632   -2.6270    0.0000 C   0  0  0  0  0  0  0  0  0  0  0  0
    9.4651   -4.1270    0.0000 C   0  0  0  0  0  0  0  0  0  0  0  0
   12.9292   -2.1270    0.0000 C   0  0  0  0  0  0  0  0  0  0  0  0
   12.0632   -3.6270    0.0000 C   0  0  0  0  0  0  0  0  0  0  0  0
   13.7953   -2.6270    0.0000 C   0  0  0  0  0  0  0  0  0  0  0  0
    9.4651   -5.1270    0.0000 C   0  0  0  0  0  0  0  0  0  0  0  0
    8.5991   -3.6270    0.0000 C   0  0  0  0  0  0  0  0  0  0  0  0
   13.7953   -3.6270    0.0000 C   0  0  0  0  0  0  0  0  0  0  0  0
   12.9292   -4.1270    0.0000 C   0  0  0  0  0  0  0  0  0  0  0  0
    8.5991   -5.6270    0.0000 C   0  0  0  0  0  0  0  0  0  0  0  0
    7.7331   -4.1270    0.0000 C   0  0  0  0  0  0  0  0  0  0  0  0
    7.7331   -5.1270    0.0000 C   0  0  0  0  0  0  0  0  0  0  0  0
   15.3251   -3.1270    0.0000 C   0  0  0  0  0  0  0  0  0  0  0  0
    6.8671   -5.6270    0.0000 C   0  0  0  0  0  0  0  0  0  0  0  0
    6.3301    2.6830    0.0000 H   0  0  0  0  0  0  0  0  0  0  0  0
    8.3437    1.7654    0.0000 H   0  0  0  0  0  0  0  0  0  0  0  0
    7.9451    2.4556    0.0000 H   0  0  0  0  0  0  0  0  0  0  0  0
    8.1316    4.3480    0.0000 H   0  0  0  0  0  0  0  0  0  0  0  0
    7.3346    4.3480    0.0000 H   0  0  0  0  0  0  0  0  0  0  0  0
    8.2006    2.8981    0.0000 H   0  0  0  0  0  0  0  0  0  0  0  0
    8.9976    2.8981    0.0000 H   0  0  0  0  0  0  0  0  0  0  0  0
    7.1225    0.9807    0.0000 H   0  0  0  0  0  0  0  0  0  0  0  0
    7.5210    0.2904    0.0000 H   0  0  0  0  0  0  0  0  0  0  0  0
    5.7890    2.4556    0.0000 H   0  0  0  0  0  0  0  0  0  0  0  0
    5.3905    1.7654    0.0000 H   0  0  0  0  0  0  0  0  0  0  0  0
   10.0021    4.1830    0.0000 H   0  0  0  0  0  0  0  0  0  0  0  0
    9.2097    0.2654    0.0000 H   0  0  0  0  0  0  0  0  0  0  0  0
    8.8112    0.9556    0.0000 H   0  0  0  0  0  0  0  0  0  0  0  0
    7.9885   -0.5193    0.0000 H   0  0  0  0  0  0  0  0  0  0  0  0
    8.3871   -1.2096    0.0000 H   0  0  0  0  0  0  0  0  0  0  0  0
   10.0212    2.8361    0.0000 H   0  0  0  0  0  0  0  0  0  0  0  0
   10.8681    3.0630    0.0000 H   0  0  0  0  0  0  0  0  0  0  0  0
   10.6412    3.9100    0.0000 H   0  0  0  0  0  0  0  0  0  0  0  0
   10.0851    4.8730    0.0000 H   0  0  0  0  0  0  0  0  0  0  0  0
    9.4651    5.4930    0.0000 H   0  0  0  0  0  0  0  0  0  0  0  0
    8.8451    4.8730    0.0000 H   0  0  0  0  0  0  0  0  0  0  0  0
    5.4641    0.5630    0.0000 H   0  0  0  0  0  0  0  0  0  0  0  0
    5.6720    5.6830    0.0000 H   0  0  0  0  0  0  0  0  0  0  0  0
    4.2690    3.2530    0.0000 H   0  0  0  0  0  0  0  0  0  0  0  0
   10.0021   -0.8170    0.0000 H   0  0  0  0  0  0  0  0  0  0  0  0
    4.2690    6.4930    0.0000 H   0  0  0  0  0  0  0  0  0  0  0  0
    2.8660    4.0630    0.0000 H   0  0  0  0  0  0  0  0  0  0  0  0
   11.5957   -1.6520    0.0000 H   0  0  0  0  0  0  0  0  0  0  0  0
   10.7987   -1.6520    0.0000 H   0  0  0  0  0  0  0  0  0  0  0  0
   10.5432   -4.2096    0.0000 H   0  0  0  0  0  0  0  0  0  0  0  0
   10.9417   -3.5193    0.0000 H   0  0  0  0  0  0  0  0  0  0  0  0
    2.5369    6.4930    0.0000 H   0  0  0  0  0  0  0  0  0  0  0  0
    2.0000    5.5630    0.0000 H   0  0  0  0  0  0  0  0  0  0  0  0
   12.9292   -1.5070    0.0000 H   0  0  0  0  0  0  0  0  0  0  0  0
   11.5263   -3.9370    0.0000 H   0  0  0  0  0  0  0  0  0  0  0  0
   10.0021   -5.4370    0.0000 H   0  0  0  0  0  0  0  0  0  0  0  0
    8.5991   -3.0070    0.0000 H   0  0  0  0  0  0  0  0  0  0  0  0
   12.9292   -4.7470    0.0000 H   0  0  0  0  0  0  0  0  0  0  0  0
    8.5991   -6.2470    0.0000 H   0  0  0  0  0  0  0  0  0  0  0  0
    7.1962   -3.8170    0.0000 H   0  0  0  0  0  0  0  0  0  0  0  0
   15.7860   -3.5417    0.0000 H   0  0  0  0  0  0  0  0  0  0  0  0
   15.7860   -2.7123    0.0000 H   0  0  0  0  0  0  0  0  0  0  0  0
  1  6  2  0  0  0  0
  1  7  2  0  0  0  0
  1 11  1  0  0  0  0
  1 23  1  0  0  0  0
  2 48  1  0  0  0  0
  3 48  1  0  0  0  0
  4 48  1  0  0  0  0
  5 20  1  0  0  0  0
  5 71  1  0  0  0  0
  8 31  2  0  0  0  0
  9 39  1  0  0  0  0
  9 47  1  0  0  0  0
 10 42  1  0  0  0  0
 10 47  1  0  0  0  0
 15 11  1  1  0  0  0
 11 17  1  0  0  0  0
 12 24  1  0  0  0  0
 12 31  1  0  0  0  0
 12 74  1  0  0  0  0
 13 31  1  0  0  0  0
 13 33  1  0  0  0  0
 13 34  1  0  0  0  0
 14 32  1  0  0  0  0
 14 81  1  0  0  0  0
 14 82  1  0  0  0  0
 15 16  1  0  0  0  0
 15 20  1  0  0  0  0
 15 49  1  0  0  0  0
 16 19  1  0  0  0  0
 16 50  1  0  0  0  0
 16 51  1  0  0  0  0
 17 18  1  0  0  0  0
 17 52  1  0  0  0  0
 17 53  1  0  0  0  0
 18 21  1  0  0  0  0
 18 54  1  0  0  0  0
 18 55  1  0  0  0  0
 19 22  1  0  0  0  0
 19 56  1  0  0  0  0
 19 57  1  0  0  0  0
 20 58  1  0  0  0  0
 20 59  1  0  0  0  0
 21 25  1  0  0  0  0
 21 26  1  0  0  0  0
 21 60  1  0  0  0  0
 22 24  1  0  0  0  0
 22 61  1  0  0  0  0
 22 62  1  0  0  0  0
 23 27  2  0  0  0  0
 23 28  1  0  0  0  0
 24 63  1  0  0  0  0
 24 64  1  0  0  0  0
 25 65  1  0  0  0  0
 25 66  1  0  0  0  0
 25 67  1  0  0  0  0
 26 68  1  0  0  0  0
 26 69  1  0  0  0  0
 26 70  1  0  0  0  0
 27 29  1  0  0  0  0
 27 72  1  0  0  0  0
 28 30  2  0  0  0  0
 28 73  1  0  0  0  0
 29 32  2  0  0  0  0
 29 75  1  0  0  0  0
 30 32  1  0  0  0  0
 30 76  1  0  0  0  0
 33 35  1  0  0  0  0
 33 77  1  0  0  0  0
 33 78  1  0  0  0  0
 34 36  1  0  0  0  0
 34 79  1  0  0  0  0
 34 80  1  0  0  0  0
 35 37  2  0  0  0  0
 35 38  1  0  0  0  0
 36 40  2  0  0  0  0
 36 41  1  0  0  0  0
 37 39  1  0  0  0  0
 37 83  1  0  0  0  0
 38 43  2  0  0  0  0
 38 84  1  0  0  0  0
 39 42  2  0  0  0  0
 40 44  1  0  0  0  0
 40 85  1  0  0  0  0
 41 45  2  0  0  0  0
 41 86  1  0  0  0  0
 42 43  1  0  0  0  0
 43 87  1  0  0  0  0
 44 46  2  0  0  0  0
 44 88  1  0  0  0  0
 45 46  1  0  0  0  0
 45 89  1  0  0  0  0
 46 48  1  0  0  0  0
 47 90  1  0  0  0  0
 47 91  1  0  0  0  0
M  END
> <PUBCHEM_COMPOUND_CID>
513805
> <PUBCHEM_COMPOUND_CANONICALIZED>
1
> <PUBCHEM_CACTVS_COMPLEXITY>
1080
> <PUBCHEM_CACTVS_HBOND_ACCEPTOR>
11
> <PUBCHEM_CACTVS_HBOND_DONOR>
3
> <PUBCHEM_CACTVS_ROTATABLE_BOND>
16
> <PUBCHEM_CACTVS_SUBSKEYS>
AAADcfB/uYBAAAAAAAAAAAAAAAAAASAAAAAwYMAAAAAAAEgBUAAAHwQQSAAADSzh2Bczz4PABgKIAiRCUHDCCBAgIgAIiJgO7IifNiKEsZukcCps1hOe6Aew0BIOYAQBAAAAQADACAIAAACAAAAAAAAAAA==
> <PUBCHEM_IUPAC_OPENEYE_NAME>
3-[(5S)-5-[(4-aminophenyl)sulfonyl-isopentyl-amino]-6-hydroxy-hexyl]-1-(1,3-benzodioxol-5-ylmethyl)-1-[[4-(trifluoromethyl)phenyl]methyl]urea
> <PUBCHEM_IUPAC_CAS_NAME>
3-[(5S)-5-[(4-aminophenyl)sulfonyl-(3-methylbutyl)amino]-6-hydroxyhexyl]-1-(1,3-benzodioxol-5-ylmethyl)-1-[[4-(trifluoromethyl)phenyl]methyl]urea
> <PUBCHEM_IUPAC_NAME_MARKUP>
3-[(5<I>S</I>)-5-[(4-aminophenyl)sulfonyl-(3-methylbutyl)amino]-6-hydroxyhexyl]-1-(1,3-benzodioxol-5-ylmethyl)-1-[[4-(trifluoromethyl)phenyl]methyl]urea
> <PUBCHEM_IUPAC_NAME>
3-[(5S)-5-[(4-aminophenyl)sulfonyl-(3-methylbutyl)amino]-6-hydroxyhexyl]-1-(1,3-benzodioxol-5-ylmethyl)-1-[[4-(trifluoromethyl)phenyl]methyl]urea
> <PUBCHEM_IUPAC_SYSTEMATIC_NAME>
3-[(5S)-5-[(4-aminophenyl)sulfonyl-(3-methylbutyl)amino]-6-oxidanyl-hexyl]-1-(1,3-benzodioxol-5-ylmethyl)-1-[[4-(trifluoromethyl)phenyl]methyl]urea
> <PUBCHEM_IUPAC_TRADITIONAL_NAME>
3-[(5S)-6-hydroxy-5-[isoamyl(sulfanilyl)amino]hexyl]-1-piperonyl-1-[4-(trifluoromethyl)benzyl]urea
> <PUBCHEM_IUPAC_INCHI>
InChI=1S/C34H43F3N4O6S/c1-24(2)16-18-41(48(44,45)30-13-11-28(38)12-14-30)29(22-42)5-3-4-17-39-33(43)40(20-25-6-9-27(10-7-25)34(35,36)37)21-26-8-15-31-32(19-26)47-23-46-31/h6-15,19,24,29,42H,3-5,16-18,20-23,38H2,1-2H3,(H,39,43)/t29-/m0/s1
> <PUBCHEM_IUPAC_INCHIKEY>
YIPXLIJTJWEEMN-LJAQVGFWSA-N
> <PUBCHEM_XLOGP3_AA>
5.5
> <PUBCHEM_EXACT_MASS>
692.28554076
> <PUBCHEM_MOLECULAR_FORMULA>
C34H43F3N4O6S
> <PUBCHEM_MOLECULAR_WEIGHT>
692.8
> <PUBCHEM_OPENEYE_CAN_SMILES>
CC(C)CCN(C(CCCCNC(=O)N(CC1=CC=C(C=C1)C(F)(F)F)CC2=CC3=C(C=C2)OCO3)CO)S(=O)(=O)C4=CC=C(C=C4)N
> <PUBCHEM_OPENEYE_ISO_SMILES>
CC(C)CCN([C@@H](CCCCNC(=O)N(CC1=CC=C(C=C1)C(F)(F)F)CC2=CC3=C(C=C2)OCO3)CO)S(=O)(=O)C4=CC=C(C=C4)N
> <PUBCHEM_CACTVS_TPSA>
143
> <PUBCHEM_MONOISOTOPIC_WEIGHT>
692.28554076
> <PUBCHEM_TOTAL_CHARGE>
0
> <PUBCHEM_HEAVY_ATOM_COUNT>
48
> <PUBCHEM_ATOM_DEF_STEREO_COUNT>
1
> <PUBCHEM_ATOM_UDEF_STEREO_COUNT>
0
> <PUBCHEM_BOND_DEF_STEREO_COUNT>
0
> <PUBCHEM_BOND_UDEF_STEREO_COUNT>
0
> <PUBCHEM_ISOTOPIC_ATOM_COUNT>
0
> <PUBCHEM_COMPONENT_COUNT>
1
> <PUBCHEM_CACTVS_TAUTO_COUNT>
-1
> <PUBCHEM_COORDINATE_TYPE>
1
5
255
> <PUBCHEM_BONDANNOTATIONS>
15  11  5
23  27  8
23  28  8
27  29  8
28  30  8
29  32  8
30  32  8
35  37  8
35  38  8
36  40  8
36  41  8
37  39  8
38  43  8
39  42  8
40  44  8
41  45  8
42  43  8
44  46  8
45  46  8
$$$$
