513890
  -OEChem-10302200282D
 42 45  0     1  0  0  0  0  0999 V2000
    6.6495    3.2951    0.0000 O   0  0  0  0  0  0  0  0  0  0  0  0
    4.6783   -0.5439    0.0000 N   0  0  0  0  0  0  0  0  0  0  0  0
    4.6783   -2.1534    0.0000 N   0  0  0  0  0  0  0  0  0  0  0  0
    2.8660   -0.3486    0.0000 N   0  0  0  0  0  0  0  0  0  0  0  0
    2.0000   -1.8486    0.0000 N   0  0  0  0  0  0  0  0  0  0  0  0
    2.8660   -3.3486    0.0000 N   0  0  0  0  0  0  0  0  0  0  0  0
    4.9889    0.4066    0.0000 C   0  0  2  0  0  0  0  0  0  0  0  0
    5.9422    1.7140    0.0000 C   0  0  1  0  0  0  0  0  0  0  0  0
    5.9405    0.7140    0.0000 C   0  0  0  0  0  0  0  0  0  0  0  0
    4.4026    1.2166    0.0000 C   0  0  0  0  0  0  0  0  0  0  0  0
    4.9917    2.0246    0.0000 C   0  0  0  0  0  0  0  0  0  0  0  0
    6.7523    2.3004    0.0000 C   0  0  0  0  0  0  0  0  0  0  0  0
    5.2619   -1.3486    0.0000 C   0  0  0  0  0  0  0  0  0  0  0  0
    3.7320   -0.8486    0.0000 C   0  0  0  0  0  0  0  0  0  0  0  0
    3.7320   -1.8486    0.0000 C   0  0  0  0  0  0  0  0  0  0  0  0
    6.2619   -1.3486    0.0000 C   0  0  0  0  0  0  0  0  0  0  0  0
    2.8660   -2.3486    0.0000 C   0  0  0  0  0  0  0  0  0  0  0  0
    6.7619   -2.2147    0.0000 C   0  0  0  0  0  0  0  0  0  0  0  0
    6.7619   -0.4826    0.0000 C   0  0  0  0  0  0  0  0  0  0  0  0
    2.0000   -0.8486    0.0000 C   0  0  0  0  0  0  0  0  0  0  0  0
    7.7619   -2.2147    0.0000 C   0  0  0  0  0  0  0  0  0  0  0  0
    7.7619   -0.4826    0.0000 C   0  0  0  0  0  0  0  0  0  0  0  0
    8.2619   -1.3486    0.0000 C   0  0  0  0  0  0  0  0  0  0  0  0
    5.4266   -0.0325    0.0000 H   0  0  0  0  0  0  0  0  0  0  0  0
    6.4942    1.4316    0.0000 H   0  0  0  0  0  0  0  0  0  0  0  0
    6.0684    0.1073    0.0000 H   0  0  0  0  0  0  0  0  0  0  0  0
    6.5572    0.7777    0.0000 H   0  0  0  0  0  0  0  0  0  0  0  0
    3.9425    1.6323    0.0000 H   0  0  0  0  0  0  0  0  0  0  0  0
    3.9411    0.8026    0.0000 H   0  0  0  0  0  0  0  0  0  0  0  0
    5.2449    2.5906    0.0000 H   0  0  0  0  0  0  0  0  0  0  0  0
    4.4553    2.3356    0.0000 H   0  0  0  0  0  0  0  0  0  0  0  0
    7.0231    1.7426    0.0000 H   0  0  0  0  0  0  0  0  0  0  0  0
    7.3486    2.4702    0.0000 H   0  0  0  0  0  0  0  0  0  0  0  0
    7.1517    3.6586    0.0000 H   0  0  0  0  0  0  0  0  0  0  0  0
    6.4519   -2.7516    0.0000 H   0  0  0  0  0  0  0  0  0  0  0  0
    6.4519    0.0543    0.0000 H   0  0  0  0  0  0  0  0  0  0  0  0
    1.4631   -0.5386    0.0000 H   0  0  0  0  0  0  0  0  0  0  0  0
    8.0719   -2.7516    0.0000 H   0  0  0  0  0  0  0  0  0  0  0  0
    8.0719    0.0543    0.0000 H   0  0  0  0  0  0  0  0  0  0  0  0
    2.3291   -3.6586    0.0000 H   0  0  0  0  0  0  0  0  0  0  0  0
    3.4030   -3.6586    0.0000 H   0  0  0  0  0  0  0  0  0  0  0  0
    8.8819   -1.3486    0.0000 H   0  0  0  0  0  0  0  0  0  0  0  0
  1 12  1  0  0  0  0
  1 34  1  0  0  0  0
  7  2  1  1  0  0  0
  2 13  1  0  0  0  0
  2 14  1  0  0  0  0
  3 13  2  0  0  0  0
  3 15  1  0  0  0  0
  4 14  2  0  0  0  0
  4 20  1  0  0  0  0
  5 17  1  0  0  0  0
  5 20  2  0  0  0  0
  6 17  1  0  0  0  0
  6 40  1  0  0  0  0
  6 41  1  0  0  0  0
  7  9  1  0  0  0  0
  7 10  1  0  0  0  0
  7 24  1  0  0  0  0
  8  9  1  0  0  0  0
  8 11  1  0  0  0  0
  8 12  1  1  0  0  0
  8 25  1  0  0  0  0
  9 26  1  0  0  0  0
  9 27  1  0  0  0  0
 10 11  1  0  0  0  0
 10 28  1  0  0  0  0
 10 29  1  0  0  0  0
 11 30  1  0  0  0  0
 11 31  1  0  0  0  0
 12 32  1  0  0  0  0
 12 33  1  0  0  0  0
 13 16  1  0  0  0  0
 14 15  1  0  0  0  0
 15 17  2  0  0  0  0
 16 18  2  0  0  0  0
 16 19  1  0  0  0  0
 18 21  1  0  0  0  0
 18 35  1  0  0  0  0
 19 22  2  0  0  0  0
 19 36  1  0  0  0  0
 20 37  1  0  0  0  0
 21 23  2  0  0  0  0
 21 38  1  0  0  0  0
 22 23  1  0  0  0  0
 22 39  1  0  0  0  0
 23 42  1  0  0  0  0
M  END
> <PUBCHEM_COMPOUND_CID>
513890
> <PUBCHEM_COMPOUND_CANONICALIZED>
1
> <PUBCHEM_CACTVS_COMPLEXITY>
402
> <PUBCHEM_CACTVS_HBOND_ACCEPTOR>
5
> <PUBCHEM_CACTVS_HBOND_DONOR>
2
> <PUBCHEM_CACTVS_ROTATABLE_BOND>
3
> <PUBCHEM_CACTVS_SUBSKEYS>
AAADceB7oAAAAAAAAAAAAAAAAAAAAeIAAAA8QAAAAAAAAFgB/AAAHgAQCAAADSjhnwY18L9MEgCgAyZjZACCgC0xEKAJ2CAoVJiIeKLA2VGUZAhsgALIiCew0AMOAAAAAAAAAAAAAAAAAAAAACAAAAAAAA==
> <PUBCHEM_IUPAC_OPENEYE_NAME>
[(1R,3S)-3-(6-amino-8-phenyl-purin-9-yl)cyclopentyl]methanol
> <PUBCHEM_IUPAC_CAS_NAME>
[(1R,3S)-3-(6-amino-8-phenyl-9-purinyl)cyclopentyl]methanol
> <PUBCHEM_IUPAC_NAME_MARKUP>
[(1<I>R</I>,3<I>S</I>)-3-(6-amino-8-phenylpurin-9-yl)cyclopentyl]methanol
> <PUBCHEM_IUPAC_NAME>
[(1R,3S)-3-(6-amino-8-phenylpurin-9-yl)cyclopentyl]methanol
> <PUBCHEM_IUPAC_SYSTEMATIC_NAME>
[(1R,3S)-3-(6-azanyl-8-phenyl-purin-9-yl)cyclopentyl]methanol
> <PUBCHEM_IUPAC_TRADITIONAL_NAME>
[(1R,3S)-3-(6-amino-8-phenyl-purin-9-yl)cyclopentyl]methanol
> <PUBCHEM_IUPAC_INCHI>
InChI=1S/C17H19N5O/c18-15-14-17(20-10-19-15)22(13-7-6-11(8-13)9-23)16(21-14)12-4-2-1-3-5-12/h1-5,10-11,13,23H,6-9H2,(H2,18,19,20)/t11-,13+/m1/s1
> <PUBCHEM_IUPAC_INCHIKEY>
UJEGPMDVXZCGOB-YPMHNXCESA-N
> <PUBCHEM_XLOGP3_AA>
1.8
> <PUBCHEM_EXACT_MASS>
309.15896025
> <PUBCHEM_MOLECULAR_FORMULA>
C17H19N5O
> <PUBCHEM_MOLECULAR_WEIGHT>
309.4
> <PUBCHEM_OPENEYE_CAN_SMILES>
C1CC(CC1CO)N2C(=NC3=C(N=CN=C32)N)C4=CC=CC=C4
> <PUBCHEM_OPENEYE_ISO_SMILES>
C1C[C@@H](C[C@@H]1CO)N2C(=NC3=C(N=CN=C32)N)C4=CC=CC=C4
> <PUBCHEM_CACTVS_TPSA>
89.8
> <PUBCHEM_MONOISOTOPIC_WEIGHT>
309.15896025
> <PUBCHEM_TOTAL_CHARGE>
0
> <PUBCHEM_HEAVY_ATOM_COUNT>
23
> <PUBCHEM_ATOM_DEF_STEREO_COUNT>
2
> <PUBCHEM_ATOM_UDEF_STEREO_COUNT>
0
> <PUBCHEM_BOND_DEF_STEREO_COUNT>
0
> <PUBCHEM_BOND_UDEF_STEREO_COUNT>
0
> <PUBCHEM_ISOTOPIC_ATOM_COUNT>
0
> <PUBCHEM_COMPONENT_COUNT>
1
> <PUBCHEM_CACTVS_TAUTO_COUNT>
-1
> <PUBCHEM_COORDINATE_TYPE>
1
5
255
> <PUBCHEM_BONDANNOTATIONS>
14  15  8
15  17  8
16  18  8
16  19  8
18  21  8
19  22  8
2  13  8
2  14  8
7  2  5
21  23  8
22  23  8
3  13  8
3  15  8
4  14  8
4  20  8
5  17  8
5  20  8
8  12  5
$$$$
