513858
  -OEChem-10302200282D
 39 41  0     1  0  0  0  0  0999 V2000
    8.1515   -0.1050    0.0000 O   0  0  0  0  0  0  0  0  0  0  0  0
    8.1552    2.0706    0.0000 O   0  0  0  0  0  0  0  0  0  0  0  0
    6.7577    3.4884    0.0000 O   0  0  0  0  0  0  0  0  0  0  0  0
    6.0812   -0.7737    0.0000 N   0  0  0  0  0  0  0  0  0  0  0  0
    6.0812   -2.3832    0.0000 N   0  0  0  0  0  0  0  0  0  0  0  0
    4.2690   -0.5784    0.0000 N   0  0  0  0  0  0  0  0  0  0  0  0
    3.4030   -2.0784    0.0000 N   0  0  0  0  0  0  0  0  0  0  0  0
    4.2690   -3.5784    0.0000 N   0  0  0  0  0  0  0  0  0  0  0  0
    2.5369   -0.5784    0.0000 N   0  0  0  0  0  0  0  0  0  0  0  0
    6.3919    0.1768    0.0000 C   0  0  2  0  0  0  0  0  0  0  0  0
    6.3947    1.7949    0.0000 C   0  0  1  0  0  0  0  0  0  0  0  0
    5.8055    0.9869    0.0000 C   0  0  0  0  0  0  0  0  0  0  0  0
    7.3435    0.4842    0.0000 C   0  0  1  0  0  0  0  0  0  0  0  0
    7.3452    1.4842    0.0000 C   0  0  2  0  0  0  0  0  0  0  0  0
    6.0873    2.7464    0.0000 C   0  0  0  0  0  0  0  0  0  0  0  0
    5.1350   -1.0784    0.0000 C   0  0  0  0  0  0  0  0  0  0  0  0
    6.6648   -1.5784    0.0000 C   0  0  0  0  0  0  0  0  0  0  0  0
    5.1350   -2.0784    0.0000 C   0  0  0  0  0  0  0  0  0  0  0  0
    4.2690   -2.5784    0.0000 C   0  0  0  0  0  0  0  0  0  0  0  0
    3.4030   -1.0784    0.0000 C   0  0  0  0  0  0  0  0  0  0  0  0
    3.4030   -4.0784    0.0000 C   0  0  0  0  0  0  0  0  0  0  0  0
    5.7794    0.0809    0.0000 H   0  0  0  0  0  0  0  0  0  0  0  0
    5.7825    1.8929    0.0000 H   0  0  0  0  0  0  0  0  0  0  0  0
    5.3455    1.4025    0.0000 H   0  0  0  0  0  0  0  0  0  0  0  0
    5.3440    0.5728    0.0000 H   0  0  0  0  0  0  0  0  0  0  0  0
    7.2454   -0.1280    0.0000 H   0  0  0  0  0  0  0  0  0  0  0  0
    7.2493    2.0967    0.0000 H   0  0  0  0  0  0  0  0  0  0  0  0
    5.7065    3.2357    0.0000 H   0  0  0  0  0  0  0  0  0  0  0  0
    5.5394    2.4563    0.0000 H   0  0  0  0  0  0  0  0  0  0  0  0
    8.7183    0.1462    0.0000 H   0  0  0  0  0  0  0  0  0  0  0  0
    8.7212    1.8174    0.0000 H   0  0  0  0  0  0  0  0  0  0  0  0
    7.2848   -1.5784    0.0000 H   0  0  0  0  0  0  0  0  0  0  0  0
    6.5672    4.0784    0.0000 H   0  0  0  0  0  0  0  0  0  0  0  0
    4.8059   -3.8884    0.0000 H   0  0  0  0  0  0  0  0  0  0  0  0
    2.0000   -0.8884    0.0000 H   0  0  0  0  0  0  0  0  0  0  0  0
    2.5369    0.0416    0.0000 H   0  0  0  0  0  0  0  0  0  0  0  0
    3.0930   -3.5415    0.0000 H   0  0  0  0  0  0  0  0  0  0  0  0
    2.8660   -4.3884    0.0000 H   0  0  0  0  0  0  0  0  0  0  0  0
    3.7130   -4.6154    0.0000 H   0  0  0  0  0  0  0  0  0  0  0  0
 13  1  1  1  0  0  0
  1 30  1  0  0  0  0
 14  2  1  1  0  0  0
  2 31  1  0  0  0  0
  3 15  1  0  0  0  0
  3 33  1  0  0  0  0
 10  4  1  6  0  0  0
  4 16  1  0  0  0  0
  4 17  1  0  0  0  0
  5 17  2  0  0  0  0
  5 18  1  0  0  0  0
  6 16  2  0  0  0  0
  6 20  1  0  0  0  0
  7 19  1  0  0  0  0
  7 20  2  0  0  0  0
  8 19  1  0  0  0  0
  8 21  1  0  0  0  0
  8 34  1  0  0  0  0
  9 20  1  0  0  0  0
  9 35  1  0  0  0  0
  9 36  1  0  0  0  0
 10 12  1  0  0  0  0
 10 13  1  0  0  0  0
 10 22  1  0  0  0  0
 11 12  1  0  0  0  0
 11 14  1  0  0  0  0
 11 15  1  6  0  0  0
 11 23  1  0  0  0  0
 12 24  1  0  0  0  0
 12 25  1  0  0  0  0
 13 14  1  0  0  0  0
 13 26  1  0  0  0  0
 14 27  1  0  0  0  0
 15 28  1  0  0  0  0
 15 29  1  0  0  0  0
 16 18  1  0  0  0  0
 17 32  1  0  0  0  0
 18 19  2  0  0  0  0
 21 37  1  0  0  0  0
 21 38  1  0  0  0  0
 21 39  1  0  0  0  0
M  END
> <PUBCHEM_COMPOUND_CID>
513858
> <PUBCHEM_COMPOUND_CANONICALIZED>
1
> <PUBCHEM_CACTVS_COMPLEXITY>
375
> <PUBCHEM_CACTVS_HBOND_ACCEPTOR>
8
> <PUBCHEM_CACTVS_HBOND_DONOR>
5
> <PUBCHEM_CACTVS_ROTATABLE_BOND>
3
> <PUBCHEM_CACTVS_SUBSKEYS>
AAADceBzsAAAAAAAAAAAAAAAAAAAAeIAAAAsAAAAAAAAAFgB+AAAHgAQCAAADTzhlwYH8L/MEgCgAQZhZACAgC0REKABUKAoVBCDWAJAyEAURAgPAALRACHwcAcOAAAAAAAAAAAAAAAAAAAAAKEABCgAAA==
> <PUBCHEM_IUPAC_OPENEYE_NAME>
(1R,2S,3R,5R)-3-[2-amino-6-(methylamino)purin-9-yl]-5-(hydroxymethyl)cyclopentane-1,2-diol
> <PUBCHEM_IUPAC_CAS_NAME>
(1R,2S,3R,5R)-3-[2-amino-6-(methylamino)-9-purinyl]-5-(hydroxymethyl)cyclopentane-1,2-diol
> <PUBCHEM_IUPAC_NAME_MARKUP>
(1<I>R</I>,2<I>S</I>,3<I>R</I>,5<I>R</I>)-3-[2-amino-6-(methylamino)purin-9-yl]-5-(hydroxymethyl)cyclopentane-1,2-diol
> <PUBCHEM_IUPAC_NAME>
(1R,2S,3R,5R)-3-[2-amino-6-(methylamino)purin-9-yl]-5-(hydroxymethyl)cyclopentane-1,2-diol
> <PUBCHEM_IUPAC_SYSTEMATIC_NAME>
(1R,2S,3R,5R)-3-[2-azanyl-6-(methylamino)purin-9-yl]-5-(hydroxymethyl)cyclopentane-1,2-diol
> <PUBCHEM_IUPAC_TRADITIONAL_NAME>
(1R,2S,3R,5R)-3-[2-amino-6-(methylamino)purin-9-yl]-5-methylol-cyclopentane-1,2-diol
> <PUBCHEM_IUPAC_INCHI>
InChI=1S/C12H18N6O3/c1-14-10-7-11(17-12(13)16-10)18(4-15-7)6-2-5(3-19)8(20)9(6)21/h4-6,8-9,19-21H,2-3H2,1H3,(H3,13,14,16,17)/t5-,6-,8-,9+/m1/s1
> <PUBCHEM_IUPAC_INCHIKEY>
ZEOVUQXXHQNNNC-GCXDCGAKSA-N
> <PUBCHEM_XLOGP3_AA>
-1
> <PUBCHEM_EXACT_MASS>
294.14403846
> <PUBCHEM_MOLECULAR_FORMULA>
C12H18N6O3
> <PUBCHEM_MOLECULAR_WEIGHT>
294.31
> <PUBCHEM_OPENEYE_CAN_SMILES>
CNC1=C2C(=NC(=N1)N)N(C=N2)C3CC(C(C3O)O)CO
> <PUBCHEM_OPENEYE_ISO_SMILES>
CNC1=C2C(=NC(=N1)N)N(C=N2)[C@@H]3C[C@@H]([C@H]([C@H]3O)O)CO
> <PUBCHEM_CACTVS_TPSA>
142
> <PUBCHEM_MONOISOTOPIC_WEIGHT>
294.14403846
> <PUBCHEM_TOTAL_CHARGE>
0
> <PUBCHEM_HEAVY_ATOM_COUNT>
21
> <PUBCHEM_ATOM_DEF_STEREO_COUNT>
4
> <PUBCHEM_ATOM_UDEF_STEREO_COUNT>
0
> <PUBCHEM_BOND_DEF_STEREO_COUNT>
0
> <PUBCHEM_BOND_UDEF_STEREO_COUNT>
0
> <PUBCHEM_ISOTOPIC_ATOM_COUNT>
0
> <PUBCHEM_COMPONENT_COUNT>
1
> <PUBCHEM_CACTVS_TAUTO_COUNT>
6
> <PUBCHEM_COORDINATE_TYPE>
1
5
255
> <PUBCHEM_BONDANNOTATIONS>
13  1  5
11  15  6
16  18  8
18  19  8
14  2  5
10  4  6
4  16  8
4  17  8
5  17  8
5  18  8
6  16  8
6  20  8
7  19  8
7  20  8
$$$$
