513885
  -OEChem-10302200282D
 32 34  0     1  0  0  0  0  0999 V2000
    6.2619   -1.3486    0.0000 Cl  0  0  0  0  0  0  0  0  0  0  0  0
    6.6495    3.2951    0.0000 O   0  0  0  0  0  0  0  0  0  0  0  0
    4.6783   -0.5439    0.0000 N   0  0  0  0  0  0  0  0  0  0  0  0
    4.6783   -2.1534    0.0000 N   0  0  0  0  0  0  0  0  0  0  0  0
    2.8660   -0.3486    0.0000 N   0  0  0  0  0  0  0  0  0  0  0  0
    2.0000   -1.8486    0.0000 N   0  0  0  0  0  0  0  0  0  0  0  0
    2.8660   -3.3486    0.0000 N   0  0  0  0  0  0  0  0  0  0  0  0
    4.9889    0.4066    0.0000 C   0  0  2  0  0  0  0  0  0  0  0  0
    5.9422    1.7140    0.0000 C   0  0  1  0  0  0  0  0  0  0  0  0
    5.9405    0.7140    0.0000 C   0  0  0  0  0  0  0  0  0  0  0  0
    4.4026    1.2166    0.0000 C   0  0  0  0  0  0  0  0  0  0  0  0
    4.9917    2.0246    0.0000 C   0  0  0  0  0  0  0  0  0  0  0  0
    6.7523    2.3004    0.0000 C   0  0  0  0  0  0  0  0  0  0  0  0
    3.7320   -0.8486    0.0000 C   0  0  0  0  0  0  0  0  0  0  0  0
    5.2619   -1.3486    0.0000 C   0  0  0  0  0  0  0  0  0  0  0  0
    3.7320   -1.8486    0.0000 C   0  0  0  0  0  0  0  0  0  0  0  0
    2.8660   -2.3486    0.0000 C   0  0  0  0  0  0  0  0  0  0  0  0
    2.0000   -0.8486    0.0000 C   0  0  0  0  0  0  0  0  0  0  0  0
    5.4266   -0.0325    0.0000 H   0  0  0  0  0  0  0  0  0  0  0  0
    6.4942    1.4316    0.0000 H   0  0  0  0  0  0  0  0  0  0  0  0
    6.0684    0.1073    0.0000 H   0  0  0  0  0  0  0  0  0  0  0  0
    6.5572    0.7777    0.0000 H   0  0  0  0  0  0  0  0  0  0  0  0
    3.9425    1.6323    0.0000 H   0  0  0  0  0  0  0  0  0  0  0  0
    3.9411    0.8026    0.0000 H   0  0  0  0  0  0  0  0  0  0  0  0
    5.2449    2.5906    0.0000 H   0  0  0  0  0  0  0  0  0  0  0  0
    4.4553    2.3356    0.0000 H   0  0  0  0  0  0  0  0  0  0  0  0
    7.0231    1.7426    0.0000 H   0  0  0  0  0  0  0  0  0  0  0  0
    7.3486    2.4702    0.0000 H   0  0  0  0  0  0  0  0  0  0  0  0
    7.1517    3.6586    0.0000 H   0  0  0  0  0  0  0  0  0  0  0  0
    1.4631   -0.5386    0.0000 H   0  0  0  0  0  0  0  0  0  0  0  0
    2.3291   -3.6586    0.0000 H   0  0  0  0  0  0  0  0  0  0  0  0
    3.4030   -3.6586    0.0000 H   0  0  0  0  0  0  0  0  0  0  0  0
  1 15  1  0  0  0  0
  2 13  1  0  0  0  0
  2 29  1  0  0  0  0
  8  3  1  1  0  0  0
  3 14  1  0  0  0  0
  3 15  1  0  0  0  0
  4 15  2  0  0  0  0
  4 16  1  0  0  0  0
  5 14  2  0  0  0  0
  5 18  1  0  0  0  0
  6 17  1  0  0  0  0
  6 18  2  0  0  0  0
  7 17  1  0  0  0  0
  7 31  1  0  0  0  0
  7 32  1  0  0  0  0
  8 10  1  0  0  0  0
  8 11  1  0  0  0  0
  8 19  1  0  0  0  0
  9 10  1  0  0  0  0
  9 12  1  0  0  0  0
  9 13  1  1  0  0  0
  9 20  1  0  0  0  0
 10 21  1  0  0  0  0
 10 22  1  0  0  0  0
 11 12  1  0  0  0  0
 11 23  1  0  0  0  0
 11 24  1  0  0  0  0
 12 25  1  0  0  0  0
 12 26  1  0  0  0  0
 13 27  1  0  0  0  0
 13 28  1  0  0  0  0
 14 16  1  0  0  0  0
 16 17  2  0  0  0  0
 18 30  1  0  0  0  0
M  END
> <PUBCHEM_COMPOUND_CID>
513885
> <PUBCHEM_COMPOUND_CANONICALIZED>
1
> <PUBCHEM_CACTVS_COMPLEXITY>
307
> <PUBCHEM_CACTVS_HBOND_ACCEPTOR>
5
> <PUBCHEM_CACTVS_HBOND_DONOR>
2
> <PUBCHEM_CACTVS_ROTATABLE_BOND>
2
> <PUBCHEM_CACTVS_SUBSKEYS>
AAADccBzoAAEAAAAAAAAAAAAAAAAAeIAAAAsAAAAAAAAAFgB+AAAHgIQCAAADSjhlwYF8L9MEgCgAQZhZACAgC0REKABUCAoVBCAWAJAyEAURAgMAALAACGwUAMOAAAAAAAAAAAAAAAAAAAAACAAAAAAAA==
> <PUBCHEM_IUPAC_OPENEYE_NAME>
[(1R,3S)-3-(6-amino-8-chloro-purin-9-yl)cyclopentyl]methanol
> <PUBCHEM_IUPAC_CAS_NAME>
[(1R,3S)-3-(6-amino-8-chloro-9-purinyl)cyclopentyl]methanol
> <PUBCHEM_IUPAC_NAME_MARKUP>
[(1<I>R</I>,3<I>S</I>)-3-(6-amino-8-chloropurin-9-yl)cyclopentyl]methanol
> <PUBCHEM_IUPAC_NAME>
[(1R,3S)-3-(6-amino-8-chloropurin-9-yl)cyclopentyl]methanol
> <PUBCHEM_IUPAC_SYSTEMATIC_NAME>
[(1R,3S)-3-(6-azanyl-8-chloranyl-purin-9-yl)cyclopentyl]methanol
> <PUBCHEM_IUPAC_TRADITIONAL_NAME>
[(1R,3S)-3-(6-amino-8-chloro-purin-9-yl)cyclopentyl]methanol
> <PUBCHEM_IUPAC_INCHI>
InChI=1S/C11H14ClN5O/c12-11-16-8-9(13)14-5-15-10(8)17(11)7-2-1-6(3-7)4-18/h5-7,18H,1-4H2,(H2,13,14,15)/t6-,7+/m1/s1
> <PUBCHEM_IUPAC_INCHIKEY>
DNOWGNAXATWLIV-RQJHMYQMSA-N
> <PUBCHEM_XLOGP3_AA>
1.1
> <PUBCHEM_EXACT_MASS>
267.0886878
> <PUBCHEM_MOLECULAR_FORMULA>
C11H14ClN5O
> <PUBCHEM_MOLECULAR_WEIGHT>
267.71
> <PUBCHEM_OPENEYE_CAN_SMILES>
C1CC(CC1CO)N2C3=NC=NC(=C3N=C2Cl)N
> <PUBCHEM_OPENEYE_ISO_SMILES>
C1C[C@@H](C[C@@H]1CO)N2C3=NC=NC(=C3N=C2Cl)N
> <PUBCHEM_CACTVS_TPSA>
89.8
> <PUBCHEM_MONOISOTOPIC_WEIGHT>
267.0886878
> <PUBCHEM_TOTAL_CHARGE>
0
> <PUBCHEM_HEAVY_ATOM_COUNT>
18
> <PUBCHEM_ATOM_DEF_STEREO_COUNT>
2
> <PUBCHEM_ATOM_UDEF_STEREO_COUNT>
0
> <PUBCHEM_BOND_DEF_STEREO_COUNT>
0
> <PUBCHEM_BOND_UDEF_STEREO_COUNT>
0
> <PUBCHEM_ISOTOPIC_ATOM_COUNT>
0
> <PUBCHEM_COMPONENT_COUNT>
1
> <PUBCHEM_CACTVS_TAUTO_COUNT>
-1
> <PUBCHEM_COORDINATE_TYPE>
1
5
255
> <PUBCHEM_BONDANNOTATIONS>
14  16  8
16  17  8
3  14  8
3  15  8
8  3  5
4  15  8
4  16  8
5  14  8
5  18  8
6  17  8
6  18  8
9  13  5
$$$$
