513839
  -OEChem-10302200282D
 37 38  0     1  0  0  0  0  0999 V2000
    3.4030   -1.5950    0.0000 P   0  0  0  0  0  0  0  0  0  0  0  0
    5.1350   -1.5950    0.0000 O   0  0  0  0  0  0  0  0  0  0  0  0
    6.8671   -2.5950    0.0000 O   0  0  0  0  0  0  0  0  0  0  0  0
    2.5369   -2.0950    0.0000 O   0  0  0  0  0  0  0  0  0  0  0  0
    2.9030   -0.7290    0.0000 O   0  0  0  0  0  0  0  0  0  0  0  0
    7.7331   -1.0950    0.0000 O   0  0  0  0  0  0  0  0  0  0  0  0
    3.9030   -2.4610    0.0000 O   0  0  0  0  0  0  0  0  0  0  0  0
    6.8671    0.4050    0.0000 N   0  0  0  0  0  0  0  0  0  0  0  0
    8.5991    0.4050    0.0000 N   0  0  0  0  0  0  0  0  0  0  0  0
    9.4651    1.9050    0.0000 N   0  0  0  0  0  0  0  0  0  0  0  0
    6.0010   -0.0950    0.0000 C   0  0  1  0  0  0  0  0  0  0  0  0
    6.0010   -1.0950    0.0000 C   0  0  1  0  0  0  0  0  0  0  0  0
    5.1350    0.4050    0.0000 C   0  0  0  0  0  0  0  0  0  0  0  0
    6.8671   -1.5950    0.0000 C   0  0  0  0  0  0  0  0  0  0  0  0
    4.2690   -0.0950    0.0000 C   0  0  0  0  0  0  0  0  0  0  0  0
    4.2690   -1.0950    0.0000 C   0  0  0  0  0  0  0  0  0  0  0  0
    6.8671    1.4050    0.0000 C   0  0  0  0  0  0  0  0  0  0  0  0
    7.7331   -0.0950    0.0000 C   0  0  0  0  0  0  0  0  0  0  0  0
    7.7331    1.9050    0.0000 C   0  0  0  0  0  0  0  0  0  0  0  0
    8.5991    1.4050    0.0000 C   0  0  0  0  0  0  0  0  0  0  0  0
    7.7331    2.9050    0.0000 C   0  0  0  0  0  0  0  0  0  0  0  0
    6.5380   -0.4050    0.0000 H   0  0  0  0  0  0  0  0  0  0  0  0
    6.0010   -1.7150    0.0000 H   0  0  0  0  0  0  0  0  0  0  0  0
    5.5335    0.8799    0.0000 H   0  0  0  0  0  0  0  0  0  0  0  0
    4.7365    0.8799    0.0000 H   0  0  0  0  0  0  0  0  0  0  0  0
    7.4776   -1.7027    0.0000 H   0  0  0  0  0  0  0  0  0  0  0  0
    7.0791   -1.0124    0.0000 H   0  0  0  0  0  0  0  0  0  0  0  0
    3.7320    0.2150    0.0000 H   0  0  0  0  0  0  0  0  0  0  0  0
    6.3301    1.7150    0.0000 H   0  0  0  0  0  0  0  0  0  0  0  0
    7.4040   -2.9050    0.0000 H   0  0  0  0  0  0  0  0  0  0  0  0
    8.3531    2.9050    0.0000 H   0  0  0  0  0  0  0  0  0  0  0  0
    7.7331    3.5250    0.0000 H   0  0  0  0  0  0  0  0  0  0  0  0
    7.1131    2.9050    0.0000 H   0  0  0  0  0  0  0  0  0  0  0  0
    2.0000   -1.7850    0.0000 H   0  0  0  0  0  0  0  0  0  0  0  0
    2.2830   -0.7290    0.0000 H   0  0  0  0  0  0  0  0  0  0  0  0
   10.0021    1.5950    0.0000 H   0  0  0  0  0  0  0  0  0  0  0  0
    9.4651    2.5250    0.0000 H   0  0  0  0  0  0  0  0  0  0  0  0
  1  4  1  0  0  0  0
  1  5  1  0  0  0  0
  1  7  2  0  0  0  0
  1 16  1  0  0  0  0
  2 12  1  0  0  0  0
  2 16  1  0  0  0  0
  3 14  1  0  0  0  0
  3 30  1  0  0  0  0
  4 34  1  0  0  0  0
  5 35  1  0  0  0  0
  6 18  2  0  0  0  0
 11  8  1  1  0  0  0
  8 17  1  0  0  0  0
  8 18  1  0  0  0  0
  9 18  1  0  0  0  0
  9 20  2  0  0  0  0
 10 20  1  0  0  0  0
 10 36  1  0  0  0  0
 10 37  1  0  0  0  0
 11 12  1  0  0  0  0
 11 13  1  0  0  0  0
 11 22  1  0  0  0  0
 12 14  1  1  0  0  0
 12 23  1  0  0  0  0
 13 15  1  0  0  0  0
 13 24  1  0  0  0  0
 13 25  1  0  0  0  0
 14 26  1  0  0  0  0
 14 27  1  0  0  0  0
 15 16  2  0  0  0  0
 15 28  1  0  0  0  0
 17 19  2  0  0  0  0
 17 29  1  0  0  0  0
 19 20  1  0  0  0  0
 19 21  1  0  0  0  0
 21 31  1  0  0  0  0
 21 32  1  0  0  0  0
 21 33  1  0  0  0  0
M  END
> <PUBCHEM_COMPOUND_CID>
513839
> <PUBCHEM_COMPOUND_CANONICALIZED>
1
> <PUBCHEM_CACTVS_COMPLEXITY>
593
> <PUBCHEM_CACTVS_HBOND_ACCEPTOR>
6
> <PUBCHEM_CACTVS_HBOND_DONOR>
4
> <PUBCHEM_CACTVS_ROTATABLE_BOND>
3
> <PUBCHEM_CACTVS_SUBSKEYS>
AAADceBzOAIAAAAAAAAAAAAAAAAAAAAAAAAgQAAAAAAAAAAAAAAAHggQCCAADDzhgAYDAANABhCoQiJmdICACAEgIAAAAAAoABiDEAIAAQAFQAAGhgITAACAAAAAAAAAAAAAAAAAAAAAAAAAAAAAAAAAAA==
> <PUBCHEM_IUPAC_OPENEYE_NAME>
[(2S,3R)-3-(4-amino-5-methyl-2-oxo-pyrimidin-1-yl)-2-(hydroxymethyl)-3,4-dihydro-2H-pyran-6-yl]phosphonic acid
> <PUBCHEM_IUPAC_CAS_NAME>
[(2S,3R)-3-(4-amino-5-methyl-2-oxo-1-pyrimidinyl)-2-(hydroxymethyl)-3,4-dihydro-2H-pyran-6-yl]phosphonic acid
> <PUBCHEM_IUPAC_NAME_MARKUP>
[(2<I>S</I>,3<I>R</I>)-3-(4-amino-5-methyl-2-oxopyrimidin-1-yl)-2-(hydroxymethyl)-3,4-dihydro-2<I>H</I>-pyran-6-yl]phosphonic acid
> <PUBCHEM_IUPAC_NAME>
[(2S,3R)-3-(4-amino-5-methyl-2-oxopyrimidin-1-yl)-2-(hydroxymethyl)-3,4-dihydro-2H-pyran-6-yl]phosphonic acid
> <PUBCHEM_IUPAC_SYSTEMATIC_NAME>
[(2S,3R)-3-(4-azanyl-5-methyl-2-oxidanylidene-pyrimidin-1-yl)-2-(hydroxymethyl)-3,4-dihydro-2H-pyran-6-yl]phosphonic acid
> <PUBCHEM_IUPAC_TRADITIONAL_NAME>
[(2S,3R)-3-(4-amino-2-keto-5-methyl-pyrimidin-1-yl)-2-methylol-3,4-dihydro-2H-pyran-6-yl]phosphonic acid
> <PUBCHEM_IUPAC_INCHI>
InChI=1S/C11H16N3O6P/c1-6-4-14(11(16)13-10(6)12)7-2-3-9(21(17,18)19)20-8(7)5-15/h3-4,7-8,15H,2,5H2,1H3,(H2,12,13,16)(H2,17,18,19)/t7-,8-/m1/s1
> <PUBCHEM_IUPAC_INCHIKEY>
MWIXWYFKDDFVCY-HTQZYQBOSA-N
> <PUBCHEM_XLOGP3_AA>
-2.5
> <PUBCHEM_EXACT_MASS>
317.07767224
> <PUBCHEM_MOLECULAR_FORMULA>
C11H16N3O6P
> <PUBCHEM_MOLECULAR_WEIGHT>
317.23
> <PUBCHEM_OPENEYE_CAN_SMILES>
CC1=CN(C(=O)N=C1N)C2CC=C(OC2CO)P(=O)(O)O
> <PUBCHEM_OPENEYE_ISO_SMILES>
CC1=CN(C(=O)N=C1N)[C@@H]2CC=C(O[C@@H]2CO)P(=O)(O)O
> <PUBCHEM_CACTVS_TPSA>
146
> <PUBCHEM_MONOISOTOPIC_WEIGHT>
317.07767224
> <PUBCHEM_TOTAL_CHARGE>
0
> <PUBCHEM_HEAVY_ATOM_COUNT>
21
> <PUBCHEM_ATOM_DEF_STEREO_COUNT>
2
> <PUBCHEM_ATOM_UDEF_STEREO_COUNT>
0
> <PUBCHEM_BOND_DEF_STEREO_COUNT>
0
> <PUBCHEM_BOND_UDEF_STEREO_COUNT>
0
> <PUBCHEM_ISOTOPIC_ATOM_COUNT>
0
> <PUBCHEM_COMPONENT_COUNT>
1
> <PUBCHEM_CACTVS_TAUTO_COUNT>
-1
> <PUBCHEM_COORDINATE_TYPE>
1
5
255
> <PUBCHEM_BONDANNOTATIONS>
12  14  5
17  19  8
19  20  8
11  8  5
8  17  8
8  18  8
9  18  8
9  20  8
$$$$
