513869
  -OEChem-10302200282D
 26 25  0     1  0  0  0  0  0999 V2000
    3.4030   -0.2015    0.0000 P   0  0  0  0  0  0  0  0  0  0  0  0
    2.5369   -0.7015    0.0000 O   0  0  0  0  0  0  0  0  0  0  0  0
    2.9030    0.6645    0.0000 O   0  0  0  0  0  0  0  0  0  0  0  0
    5.1350   -1.2015    0.0000 O   0  0  0  0  0  0  0  0  0  0  0  0
    3.9030   -1.0675    0.0000 O   0  0  0  0  0  0  0  0  0  0  0  0
    9.4651    0.2985    0.0000 O   0  0  0  0  0  0  0  0  0  0  0  0
    8.5991   -1.2015    0.0000 O   0  0  0  0  0  0  0  0  0  0  0  0
    6.0010    0.2985    0.0000 N   0  0  0  0  0  0  0  0  0  0  0  0
    6.8671   -0.2015    0.0000 C   0  0  3  0  0  0  0  0  0  0  0  0
    7.7331    0.2985    0.0000 C   0  0  0  0  0  0  0  0  0  0  0  0
    6.8671   -1.2015    0.0000 C   0  0  0  0  0  0  0  0  0  0  0  0
    4.2690    0.2985    0.0000 C   0  0  0  0  0  0  0  0  0  0  0  0
    5.1350   -0.2015    0.0000 C   0  0  0  0  0  0  0  0  0  0  0  0
    8.5991   -0.2015    0.0000 C   0  0  0  0  0  0  0  0  0  0  0  0
    6.3301   -0.5115    0.0000 H   0  0  0  0  0  0  0  0  0  0  0  0
    8.1316    0.7735    0.0000 H   0  0  0  0  0  0  0  0  0  0  0  0
    7.3346    0.7735    0.0000 H   0  0  0  0  0  0  0  0  0  0  0  0
    6.0010    0.9185    0.0000 H   0  0  0  0  0  0  0  0  0  0  0  0
    6.2471   -1.2015    0.0000 H   0  0  0  0  0  0  0  0  0  0  0  0
    6.8671   -1.8215    0.0000 H   0  0  0  0  0  0  0  0  0  0  0  0
    7.4871   -1.2015    0.0000 H   0  0  0  0  0  0  0  0  0  0  0  0
    4.6675    0.7735    0.0000 H   0  0  0  0  0  0  0  0  0  0  0  0
    3.8705    0.7735    0.0000 H   0  0  0  0  0  0  0  0  0  0  0  0
    2.0000   -0.3915    0.0000 H   0  0  0  0  0  0  0  0  0  0  0  0
    3.2130    1.2015    0.0000 H   0  0  0  0  0  0  0  0  0  0  0  0
   10.0021   -0.0115    0.0000 H   0  0  0  0  0  0  0  0  0  0  0  0
  1  2  1  0  0  0  0
  1  3  1  0  0  0  0
  1  5  2  0  0  0  0
  1 12  1  0  0  0  0
  2 24  1  0  0  0  0
  3 25  1  0  0  0  0
  4 13  2  0  0  0  0
  6 14  1  0  0  0  0
  6 26  1  0  0  0  0
  7 14  2  0  0  0  0
  8  9  1  0  0  0  0
  8 13  1  0  0  0  0
  8 18  1  0  0  0  0
  9 10  1  0  0  0  0
  9 11  1  0  0  0  0
  9 15  1  0  0  0  0
 10 14  1  0  0  0  0
 10 16  1  0  0  0  0
 10 17  1  0  0  0  0
 11 19  1  0  0  0  0
 11 20  1  0  0  0  0
 11 21  1  0  0  0  0
 12 13  1  0  0  0  0
 12 22  1  0  0  0  0
 12 23  1  0  0  0  0
M  END
> <PUBCHEM_COMPOUND_CID>
513869
> <PUBCHEM_COMPOUND_CANONICALIZED>
1
> <PUBCHEM_CACTVS_COMPLEXITY>
272
> <PUBCHEM_CACTVS_HBOND_ACCEPTOR>
6
> <PUBCHEM_CACTVS_HBOND_DONOR>
4
> <PUBCHEM_CACTVS_ROTATABLE_BOND>
5
> <PUBCHEM_CACTVS_SUBSKEYS>
AAADccBiOAIAAAAAAAAAAAAAAAAAAAAAAAAAAAAAAAAAAAAAAAAAHggQCCAACCjJgAQCCALAAhAIQAGQGIAAAAAAAAAAAIEIAAAAABgAAAAEQAAGFgCAAAAAAAAAAAAAAAAAAAAAAAAAAAAAAAAAAAAAAA==
> <PUBCHEM_IUPAC_OPENEYE_NAME>
3-[(2-phosphonoacetyl)amino]butanoic acid
> <PUBCHEM_IUPAC_CAS_NAME>
3-[(1-oxo-2-phosphonoethyl)amino]butanoic acid
> <PUBCHEM_IUPAC_NAME_MARKUP>
3-[(2-phosphonoacetyl)amino]butanoic acid
> <PUBCHEM_IUPAC_NAME>
3-[(2-phosphonoacetyl)amino]butanoic acid
> <PUBCHEM_IUPAC_SYSTEMATIC_NAME>
3-(2-phosphonoethanoylamino)butanoic acid
> <PUBCHEM_IUPAC_TRADITIONAL_NAME>
3-[(2-phosphonoacetyl)amino]butyric acid
> <PUBCHEM_IUPAC_INCHI>
InChI=1S/C6H12NO6P/c1-4(2-6(9)10)7-5(8)3-14(11,12)13/h4H,2-3H2,1H3,(H,7,8)(H,9,10)(H2,11,12,13)
> <PUBCHEM_IUPAC_INCHIKEY>
WDXUAKFAVKLDOK-UHFFFAOYSA-N
> <PUBCHEM_XLOGP3_AA>
-2.3
> <PUBCHEM_EXACT_MASS>
225.04022410
> <PUBCHEM_MOLECULAR_FORMULA>
C6H12NO6P
> <PUBCHEM_MOLECULAR_WEIGHT>
225.14
> <PUBCHEM_OPENEYE_CAN_SMILES>
CC(CC(=O)O)NC(=O)CP(=O)(O)O
> <PUBCHEM_OPENEYE_ISO_SMILES>
CC(CC(=O)O)NC(=O)CP(=O)(O)O
> <PUBCHEM_CACTVS_TPSA>
124
> <PUBCHEM_MONOISOTOPIC_WEIGHT>
225.04022410
> <PUBCHEM_TOTAL_CHARGE>
0
> <PUBCHEM_HEAVY_ATOM_COUNT>
14
> <PUBCHEM_ATOM_DEF_STEREO_COUNT>
0
> <PUBCHEM_ATOM_UDEF_STEREO_COUNT>
1
> <PUBCHEM_BOND_DEF_STEREO_COUNT>
0
> <PUBCHEM_BOND_UDEF_STEREO_COUNT>
0
> <PUBCHEM_ISOTOPIC_ATOM_COUNT>
0
> <PUBCHEM_COMPONENT_COUNT>
1
> <PUBCHEM_CACTVS_TAUTO_COUNT>
-1
> <PUBCHEM_COORDINATE_TYPE>
1
5
255
> <PUBCHEM_BONDANNOTATIONS>
9  11  3
$$$$
