513876
  -OEChem-10302200282D
 72 74  0     1  0  0  0  0  0999 V2000
    4.6870    0.1878    0.0000 O   0  0  0  0  0  0  0  0  0  0  0  0
    4.1111    2.7106    0.0000 O   0  0  0  0  0  0  0  0  0  0  0  0
    9.1448   -1.2102    0.0000 O   0  0  0  0  0  0  0  0  0  0  0  0
    2.6166   -0.0871    0.0000 O   0  0  0  0  0  0  0  0  0  0  0  0
    5.6005   -1.4054    0.0000 O   0  0  0  0  0  0  0  0  0  0  0  0
    6.4666    0.0946    0.0000 N   0  0  0  0  0  0  0  0  0  0  0  0
    7.3326   -1.4054    0.0000 N   0  0  0  0  0  0  0  0  0  0  0  0
    5.6005    0.5946    0.0000 C   0  0  1  0  0  0  0  0  0  0  0  0
    5.4960    1.5891    0.0000 C   0  0  0  0  0  0  0  0  0  0  0  0
    4.5179    1.7970    0.0000 C   0  0  1  0  0  0  0  0  0  0  0  0
    4.0179    0.9310    0.0000 C   0  0  1  0  0  0  0  0  0  0  0  0
    3.0233    0.8265    0.0000 C   0  0  0  0  0  0  0  0  0  0  0  0
    9.1448    0.3993    0.0000 C   0  0  0  0  0  0  0  0  0  0  0  0
    8.1986    0.0946    0.0000 C   0  0  0  0  0  0  0  0  0  0  0  0
    7.3326    0.5946    0.0000 C   0  0  0  0  0  0  0  0  0  0  0  0
    9.7284   -0.4054    0.0000 C   0  0  0  0  0  0  0  0  0  0  0  0
    9.4555    1.3498    0.0000 C   0  0  0  0  0  0  0  0  0  0  0  0
   10.7284   -0.4054    0.0000 C   0  0  0  0  0  0  0  0  0  0  0  0
    8.1986   -0.9054    0.0000 C   0  0  0  0  0  0  0  0  0  0  0  0
    6.4666   -0.9054    0.0000 C   0  0  0  0  0  0  0  0  0  0  0  0
   11.2284   -1.2714    0.0000 C   0  0  0  0  0  0  0  0  0  0  0  0
   10.4340    1.5560    0.0000 C   0  0  0  0  0  0  0  0  0  0  0  0
   12.2284   -1.2714    0.0000 C   0  0  0  0  0  0  0  0  0  0  0  0
   10.7447    2.5066    0.0000 C   0  0  0  0  0  0  0  0  0  0  0  0
   12.7284   -2.1375    0.0000 C   0  0  0  0  0  0  0  0  0  0  0  0
   13.7284   -2.1375    0.0000 C   0  0  0  0  0  0  0  0  0  0  0  0
   11.7232    2.7128    0.0000 C   0  0  0  0  0  0  0  0  0  0  0  0
   14.2284   -3.0035    0.0000 C   0  0  0  0  0  0  0  0  0  0  0  0
   12.0338    3.6633    0.0000 C   0  0  0  0  0  0  0  0  0  0  0  0
   15.2284   -3.0035    0.0000 C   0  0  0  0  0  0  0  0  0  0  0  0
   13.0123    3.8695    0.0000 C   0  0  0  0  0  0  0  0  0  0  0  0
   15.7284   -3.8695    0.0000 C   0  0  0  0  0  0  0  0  0  0  0  0
    5.5681   -0.0246    0.0000 H   0  0  0  0  0  0  0  0  0  0  0  0
    6.1160    1.5891    0.0000 H   0  0  0  0  0  0  0  0  0  0  0  0
    5.5608    2.2057    0.0000 H   0  0  0  0  0  0  0  0  0  0  0  0
    4.9080    2.2788    0.0000 H   0  0  0  0  0  0  0  0  0  0  0  0
    3.7957    0.3522    0.0000 H   0  0  0  0  0  0  0  0  0  0  0  0
    3.0666    1.4450    0.0000 H   0  0  0  0  0  0  0  0  0  0  0  0
    2.4218    0.9764    0.0000 H   0  0  0  0  0  0  0  0  0  0  0  0
    7.3326    1.2146    0.0000 H   0  0  0  0  0  0  0  0  0  0  0  0
    9.4349    1.9695    0.0000 H   0  0  0  0  0  0  0  0  0  0  0  0
    8.8417    1.4372    0.0000 H   0  0  0  0  0  0  0  0  0  0  0  0
   11.3111   -0.1934    0.0000 H   0  0  0  0  0  0  0  0  0  0  0  0
   10.6208    0.2052    0.0000 H   0  0  0  0  0  0  0  0  0  0  0  0
   10.6458   -1.4835    0.0000 H   0  0  0  0  0  0  0  0  0  0  0  0
   11.3361   -1.8820    0.0000 H   0  0  0  0  0  0  0  0  0  0  0  0
   10.4546    0.9364    0.0000 H   0  0  0  0  0  0  0  0  0  0  0  0
   11.0478    1.4687    0.0000 H   0  0  0  0  0  0  0  0  0  0  0  0
    4.4756    3.2122    0.0000 H   0  0  0  0  0  0  0  0  0  0  0  0
   12.8111   -1.0594    0.0000 H   0  0  0  0  0  0  0  0  0  0  0  0
   12.1208   -0.6609    0.0000 H   0  0  0  0  0  0  0  0  0  0  0  0
   10.7241    3.1262    0.0000 H   0  0  0  0  0  0  0  0  0  0  0  0
   10.1308    2.5939    0.0000 H   0  0  0  0  0  0  0  0  0  0  0  0
   12.1458   -2.3495    0.0000 H   0  0  0  0  0  0  0  0  0  0  0  0
   12.8361   -2.7481    0.0000 H   0  0  0  0  0  0  0  0  0  0  0  0
   14.3111   -1.9254    0.0000 H   0  0  0  0  0  0  0  0  0  0  0  0
   13.6208   -1.5269    0.0000 H   0  0  0  0  0  0  0  0  0  0  0  0
   11.7437    2.0931    0.0000 H   0  0  0  0  0  0  0  0  0  0  0  0
   12.3370    2.6254    0.0000 H   0  0  0  0  0  0  0  0  0  0  0  0
    2.0000   -0.1519    0.0000 H   0  0  0  0  0  0  0  0  0  0  0  0
   13.6458   -3.2156    0.0000 H   0  0  0  0  0  0  0  0  0  0  0  0
   14.3361   -3.6141    0.0000 H   0  0  0  0  0  0  0  0  0  0  0  0
   12.0133    4.2830    0.0000 H   0  0  0  0  0  0  0  0  0  0  0  0
   11.4200    3.7507    0.0000 H   0  0  0  0  0  0  0  0  0  0  0  0
   15.8111   -2.7915    0.0000 H   0  0  0  0  0  0  0  0  0  0  0  0
   15.1208   -2.3929    0.0000 H   0  0  0  0  0  0  0  0  0  0  0  0
   13.1402    3.2628    0.0000 H   0  0  0  0  0  0  0  0  0  0  0  0
   13.6190    3.9974    0.0000 H   0  0  0  0  0  0  0  0  0  0  0  0
   12.8845    4.4762    0.0000 H   0  0  0  0  0  0  0  0  0  0  0  0
   15.1915   -4.1795    0.0000 H   0  0  0  0  0  0  0  0  0  0  0  0
   16.0384   -4.4065    0.0000 H   0  0  0  0  0  0  0  0  0  0  0  0
   16.2654   -3.5595    0.0000 H   0  0  0  0  0  0  0  0  0  0  0  0
  1  8  1  0  0  0  0
  1 11  1  0  0  0  0
 10  2  1  1  0  0  0
  2 49  1  0  0  0  0
  3 16  1  0  0  0  0
  3 19  1  0  0  0  0
  4 12  1  0  0  0  0
  4 60  1  0  0  0  0
  5 20  2  0  0  0  0
  8  6  1  6  0  0  0
  6 15  1  0  0  0  0
  6 20  1  0  0  0  0
  7 19  2  0  0  0  0
  7 20  1  0  0  0  0
  8  9  1  0  0  0  0
  8 33  1  0  0  0  0
  9 10  1  0  0  0  0
  9 34  1  0  0  0  0
  9 35  1  0  0  0  0
 10 11  1  0  0  0  0
 10 36  1  0  0  0  0
 11 12  1  6  0  0  0
 11 37  1  0  0  0  0
 12 38  1  0  0  0  0
 12 39  1  0  0  0  0
 13 14  1  0  0  0  0
 13 16  2  0  0  0  0
 13 17  1  0  0  0  0
 14 15  2  0  0  0  0
 14 19  1  0  0  0  0
 15 40  1  0  0  0  0
 16 18  1  0  0  0  0
 17 22  1  0  0  0  0
 17 41  1  0  0  0  0
 17 42  1  0  0  0  0
 18 21  1  0  0  0  0
 18 43  1  0  0  0  0
 18 44  1  0  0  0  0
 21 23  1  0  0  0  0
 21 45  1  0  0  0  0
 21 46  1  0  0  0  0
 22 24  1  0  0  0  0
 22 47  1  0  0  0  0
 22 48  1  0  0  0  0
 23 25  1  0  0  0  0
 23 50  1  0  0  0  0
 23 51  1  0  0  0  0
 24 27  1  0  0  0  0
 24 52  1  0  0  0  0
 24 53  1  0  0  0  0
 25 26  1  0  0  0  0
 25 54  1  0  0  0  0
 25 55  1  0  0  0  0
 26 28  1  0  0  0  0
 26 56  1  0  0  0  0
 26 57  1  0  0  0  0
 27 29  1  0  0  0  0
 27 58  1  0  0  0  0
 27 59  1  0  0  0  0
 28 30  1  0  0  0  0
 28 61  1  0  0  0  0
 28 62  1  0  0  0  0
 29 31  1  0  0  0  0
 29 63  1  0  0  0  0
 29 64  1  0  0  0  0
 30 32  1  0  0  0  0
 30 65  1  0  0  0  0
 30 66  1  0  0  0  0
 31 67  1  0  0  0  0
 31 68  1  0  0  0  0
 31 69  1  0  0  0  0
 32 70  1  0  0  0  0
 32 71  1  0  0  0  0
 32 72  1  0  0  0  0
M  END
> <PUBCHEM_COMPOUND_CID>
513876
> <PUBCHEM_COMPOUND_CANONICALIZED>
1
> <PUBCHEM_CACTVS_COMPLEXITY>
730
> <PUBCHEM_CACTVS_HBOND_ACCEPTOR>
5
> <PUBCHEM_CACTVS_HBOND_DONOR>
2
> <PUBCHEM_CACTVS_ROTATABLE_BOND>
14
> <PUBCHEM_CACTVS_SUBSKEYS>
AAADcfB7OAAAAAAAAAAAAAAAAAAAASIAAAAgAAAAAAAAAEAAAAAAHgAACAAADBThgAYDAAMABgCoAgBmVAAACAAgIAAACAAoABiJFAIAoAAOQAAHxgILoAOw8KIAAAAAAAAAAAAAAAAAAAAAAAAAAAAAAA==
> <PUBCHEM_IUPAC_OPENEYE_NAME>
5-hexyl-3-[(2R,4S,5R)-4-hydroxy-5-(hydroxymethyl)tetrahydrofuran-2-yl]-6-octyl-furo[2,3-d]pyrimidin-2-one
> <PUBCHEM_IUPAC_CAS_NAME>
5-hexyl-3-[(2R,4S,5R)-4-hydroxy-5-(hydroxymethyl)-2-oxolanyl]-6-octyl-2-furo[2,3-d]pyrimidinone
> <PUBCHEM_IUPAC_NAME_MARKUP>
5-hexyl-3-[(2<I>R</I>,4<I>S</I>,5<I>R</I>)-4-hydroxy-5-(hydroxymethyl)oxolan-2-yl]-6-octylfuro[2,3-d]pyrimidin-2-one
> <PUBCHEM_IUPAC_NAME>
5-hexyl-3-[(2R,4S,5R)-4-hydroxy-5-(hydroxymethyl)oxolan-2-yl]-6-octylfuro[2,3-d]pyrimidin-2-one
> <PUBCHEM_IUPAC_SYSTEMATIC_NAME>
5-hexyl-3-[(2R,4S,5R)-5-(hydroxymethyl)-4-oxidanyl-oxolan-2-yl]-6-octyl-furo[2,3-d]pyrimidin-2-one
> <PUBCHEM_IUPAC_TRADITIONAL_NAME>
5-hexyl-3-[(2R,4S,5R)-4-hydroxy-5-methylol-tetrahydrofuran-2-yl]-6-octyl-furo[2,3-d]pyrimidin-2-one
> <PUBCHEM_IUPAC_INCHI>
InChI=1S/C25H40N2O5/c1-3-5-7-9-10-12-14-21-18(13-11-8-6-4-2)19-16-27(25(30)26-24(19)32-21)23-15-20(29)22(17-28)31-23/h16,20,22-23,28-29H,3-15,17H2,1-2H3/t20-,22+,23+/m0/s1
> <PUBCHEM_IUPAC_INCHIKEY>
KPSMQTFCIYANFX-MDNUFGMLSA-N
> <PUBCHEM_XLOGP3_AA>
5.9
> <PUBCHEM_EXACT_MASS>
448.29372238
> <PUBCHEM_MOLECULAR_FORMULA>
C25H40N2O5
> <PUBCHEM_MOLECULAR_WEIGHT>
448.6
> <PUBCHEM_OPENEYE_CAN_SMILES>
CCCCCCCCC1=C(C2=CN(C(=O)N=C2O1)C3CC(C(O3)CO)O)CCCCCC
> <PUBCHEM_OPENEYE_ISO_SMILES>
CCCCCCCCC1=C(C2=CN(C(=O)N=C2O1)[C@H]3C[C@@H]([C@H](O3)CO)O)CCCCCC
> <PUBCHEM_CACTVS_TPSA>
91.6
> <PUBCHEM_MONOISOTOPIC_WEIGHT>
448.29372238
> <PUBCHEM_TOTAL_CHARGE>
0
> <PUBCHEM_HEAVY_ATOM_COUNT>
32
> <PUBCHEM_ATOM_DEF_STEREO_COUNT>
3
> <PUBCHEM_ATOM_UDEF_STEREO_COUNT>
0
> <PUBCHEM_BOND_DEF_STEREO_COUNT>
0
> <PUBCHEM_BOND_UDEF_STEREO_COUNT>
0
> <PUBCHEM_ISOTOPIC_ATOM_COUNT>
0
> <PUBCHEM_COMPONENT_COUNT>
1
> <PUBCHEM_CACTVS_TAUTO_COUNT>
-1
> <PUBCHEM_COORDINATE_TYPE>
1
5
255
> <PUBCHEM_BONDANNOTATIONS>
11  12  6
13  14  8
13  16  8
14  15  8
14  19  8
10  2  5
3  16  8
3  19  8
6  15  8
6  20  8
8  6  6
7  19  8
7  20  8
$$$$
