513881
  -OEChem-10302200282D
 85 88  0     1  0  0  0  0  0999 V2000
    3.4051   -0.9271    0.0000 S   0  0  0  0  0  0  0  0  0  0  0  0
    4.2568   -3.5287    0.0000 S   0  0  0  0  0  0  0  0  0  0  0  0
    4.2768   -0.4371    0.0000 O   0  0  0  0  0  0  0  0  0  0  0  0
    4.2607   -2.5287    0.0000 O   0  0  0  0  0  0  0  0  0  0  0  0
    2.5333   -1.4170    0.0000 O   0  0  0  0  0  0  0  0  0  0  0  0
    4.2530   -4.5287    0.0000 O   0  0  0  0  0  0  0  0  0  0  0  0
    2.9151   -0.0553    0.0000 O   0  0  0  0  0  0  0  0  0  0  0  0
    3.8950   -1.7988    0.0000 O   0  0  0  0  0  0  0  0  0  0  0  0
    3.2568   -3.5249    0.0000 O   0  0  0  0  0  0  0  0  0  0  0  0
    5.2568   -3.5326    0.0000 O   0  0  0  0  0  0  0  0  0  0  0  0
    9.6538    0.5236    0.0000 C   0  0  1  0  0  0  0  0  0  0  0  0
    9.6538   -0.4764    0.0000 C   0  0  3  0  0  0  0  0  0  0  0  0
    8.7878   -0.9764    0.0000 C   0  0  3  0  0  0  0  0  0  0  0  0
    7.9217   -0.4764    0.0000 C   0  0  3  0  0  0  0  0  0  0  0  0
    7.0117   -0.9832    0.0000 C   0  0  2  0  0  0  0  0  0  0  0  0
   10.6000    0.8283    0.0000 C   0  0  2  0  0  0  0  0  0  0  0  0
    7.0037   -2.0248    0.0000 C   0  0  1  0  0  0  0  0  0  0  0  0
    8.7878    1.0236    0.0000 C   0  0  0  0  0  0  0  0  0  0  0  0
    7.9217    0.5236    0.0000 C   0  0  0  0  0  0  0  0  0  0  0  0
   10.6000   -0.7811    0.0000 C   0  0  0  0  0  0  0  0  0  0  0  0
    8.8038   -2.0179    0.0000 C   0  0  0  0  0  0  0  0  0  0  0  0
   11.1836    0.0236    0.0000 C   0  0  0  0  0  0  0  0  0  0  0  0
    7.9058   -2.5457    0.0000 C   0  0  0  0  0  0  0  0  0  0  0  0
    6.0849   -0.4192    0.0000 C   0  0  0  0  0  0  0  0  0  0  0  0
    9.6538    1.5236    0.0000 C   0  0  0  0  0  0  0  0  0  0  0  0
    6.0683   -2.5746    0.0000 C   0  0  0  0  0  0  0  0  0  0  0  0
   10.9107    1.7789    0.0000 C   0  0  1  0  0  0  0  0  0  0  0  0
    7.0194    0.0167    0.0000 C   0  0  0  0  0  0  0  0  0  0  0  0
    5.1370   -0.9471    0.0000 C   0  0  1  0  0  0  0  0  0  0  0  0
    5.1286   -2.0321    0.0000 C   0  0  1  0  0  0  0  0  0  0  0  0
   11.8892    1.9851    0.0000 C   0  0  0  0  0  0  0  0  0  0  0  0
   10.2428    2.5232    0.0000 C   0  0  0  0  0  0  0  0  0  0  0  0
   12.1998    2.9356    0.0000 C   0  0  0  0  0  0  0  0  0  0  0  0
   13.1783    3.1418    0.0000 C   0  0  0  0  0  0  0  0  0  0  0  0
   13.4890    4.0923    0.0000 C   0  0  0  0  0  0  0  0  0  0  0  0
   14.4675    4.2986    0.0000 C   0  0  0  0  0  0  0  0  0  0  0  0
   12.8211    4.8366    0.0000 C   0  0  0  0  0  0  0  0  0  0  0  0
    9.7194   -1.0929    0.0000 H   0  0  0  0  0  0  0  0  0  0  0  0
    9.3271   -1.2822    0.0000 H   0  0  0  0  0  0  0  0  0  0  0  0
    8.4587   -0.1664    0.0000 H   0  0  0  0  0  0  0  0  0  0  0  0
   11.4397    0.9602    0.0000 H   0  0  0  0  0  0  0  0  0  0  0  0
    7.0070   -2.8748    0.0000 H   0  0  0  0  0  0  0  0  0  0  0  0
    9.1863    1.4986    0.0000 H   0  0  0  0  0  0  0  0  0  0  0  0
    8.3892    1.4986    0.0000 H   0  0  0  0  0  0  0  0  0  0  0  0
    7.7097    1.1062    0.0000 H   0  0  0  0  0  0  0  0  0  0  0  0
    7.3111    0.4159    0.0000 H   0  0  0  0  0  0  0  0  0  0  0  0
   10.3490   -1.3480    0.0000 H   0  0  0  0  0  0  0  0  0  0  0  0
   11.1374   -1.0904    0.0000 H   0  0  0  0  0  0  0  0  0  0  0  0
    9.0218   -2.5983    0.0000 H   0  0  0  0  0  0  0  0  0  0  0  0
    9.4130   -1.9024    0.0000 H   0  0  0  0  0  0  0  0  0  0  0  0
   11.6445   -0.3911    0.0000 H   0  0  0  0  0  0  0  0  0  0  0  0
   11.6445    0.4383    0.0000 H   0  0  0  0  0  0  0  0  0  0  0  0
    7.5085   -3.0216    0.0000 H   0  0  0  0  0  0  0  0  0  0  0  0
    8.3067   -3.0186    0.0000 H   0  0  0  0  0  0  0  0  0  0  0  0
    6.4931    0.0475    0.0000 H   0  0  0  0  0  0  0  0  0  0  0  0
    5.6950    0.0629    0.0000 H   0  0  0  0  0  0  0  0  0  0  0  0
   10.2738    1.5236    0.0000 H   0  0  0  0  0  0  0  0  0  0  0  0
    9.6538    2.1436    0.0000 H   0  0  0  0  0  0  0  0  0  0  0  0
    9.0338    1.5236    0.0000 H   0  0  0  0  0  0  0  0  0  0  0  0
    5.6710   -3.0505    0.0000 H   0  0  0  0  0  0  0  0  0  0  0  0
    6.4692   -3.0475    0.0000 H   0  0  0  0  0  0  0  0  0  0  0  0
   10.3040    1.6510    0.0000 H   0  0  0  0  0  0  0  0  0  0  0  0
    7.6394    0.0120    0.0000 H   0  0  0  0  0  0  0  0  0  0  0  0
    7.0242    0.6367    0.0000 H   0  0  0  0  0  0  0  0  0  0  0  0
    6.3994    0.0215    0.0000 H   0  0  0  0  0  0  0  0  0  0  0  0
    5.1454   -0.3272    0.0000 H   0  0  0  0  0  0  0  0  0  0  0  0
    5.1274   -2.6521    0.0000 H   0  0  0  0  0  0  0  0  0  0  0  0
   11.9097    1.3654    0.0000 H   0  0  0  0  0  0  0  0  0  0  0  0
   12.5030    1.8977    0.0000 H   0  0  0  0  0  0  0  0  0  0  0  0
   10.7043    2.9372    0.0000 H   0  0  0  0  0  0  0  0  0  0  0  0
    9.8288    2.9846    0.0000 H   0  0  0  0  0  0  0  0  0  0  0  0
    9.7814    2.1091    0.0000 H   0  0  0  0  0  0  0  0  0  0  0  0
   12.1793    3.5553    0.0000 H   0  0  0  0  0  0  0  0  0  0  0  0
   11.5860    3.0229    0.0000 H   0  0  0  0  0  0  0  0  0  0  0  0
   13.1989    2.5222    0.0000 H   0  0  0  0  0  0  0  0  0  0  0  0
   13.7921    3.0545    0.0000 H   0  0  0  0  0  0  0  0  0  0  0  0
   13.6816    4.6817    0.0000 H   0  0  0  0  0  0  0  0  0  0  0  0
    2.0000   -1.1008    0.0000 H   0  0  0  0  0  0  0  0  0  0  0  0
    3.7148   -4.8366    0.0000 H   0  0  0  0  0  0  0  0  0  0  0  0
   14.5954    3.6919    0.0000 H   0  0  0  0  0  0  0  0  0  0  0  0
   15.0742    4.4264    0.0000 H   0  0  0  0  0  0  0  0  0  0  0  0
   14.3396    4.9052    0.0000 H   0  0  0  0  0  0  0  0  0  0  0  0
   13.2826    5.2507    0.0000 H   0  0  0  0  0  0  0  0  0  0  0  0
   12.4071    5.2981    0.0000 H   0  0  0  0  0  0  0  0  0  0  0  0
   12.3597    4.4226    0.0000 H   0  0  0  0  0  0  0  0  0  0  0  0
  1  3  1  0  0  0  0
  1  5  1  0  0  0  0
  1  7  2  0  0  0  0
  1  8  2  0  0  0  0
  2  4  1  0  0  0  0
  2  6  1  0  0  0  0
  2  9  2  0  0  0  0
  2 10  2  0  0  0  0
 29  3  1  1  0  0  0
 30  4  1  6  0  0  0
  5 78  1  0  0  0  0
  6 79  1  0  0  0  0
 11 12  1  0  0  0  0
 11 16  1  0  0  0  0
 11 18  1  0  0  0  0
 11 25  1  1  0  0  0
 12 13  1  0  0  0  0
 12 20  1  0  0  0  0
 12 38  1  0  0  0  0
 13 14  1  0  0  0  0
 13 21  1  0  0  0  0
 13 39  1  0  0  0  0
 14 15  1  0  0  0  0
 14 19  1  0  0  0  0
 14 40  1  0  0  0  0
 15 17  1  0  0  0  0
 15 24  1  0  0  0  0
 15 28  1  1  0  0  0
 16 22  1  0  0  0  0
 16 27  1  0  0  0  0
 16 41  1  6  0  0  0
 17 23  1  0  0  0  0
 17 26  1  0  0  0  0
 17 42  1  6  0  0  0
 18 19  1  0  0  0  0
 18 43  1  0  0  0  0
 18 44  1  0  0  0  0
 19 45  1  0  0  0  0
 19 46  1  0  0  0  0
 20 22  1  0  0  0  0
 20 47  1  0  0  0  0
 20 48  1  0  0  0  0
 21 23  1  0  0  0  0
 21 49  1  0  0  0  0
 21 50  1  0  0  0  0
 22 51  1  0  0  0  0
 22 52  1  0  0  0  0
 23 53  1  0  0  0  0
 23 54  1  0  0  0  0
 24 29  1  0  0  0  0
 24 55  1  0  0  0  0
 24 56  1  0  0  0  0
 25 57  1  0  0  0  0
 25 58  1  0  0  0  0
 25 59  1  0  0  0  0
 26 30  1  0  0  0  0
 26 60  1  0  0  0  0
 26 61  1  0  0  0  0
 27 31  1  0  0  0  0
 27 32  1  6  0  0  0
 27 62  1  0  0  0  0
 28 63  1  0  0  0  0
 28 64  1  0  0  0  0
 28 65  1  0  0  0  0
 29 30  1  0  0  0  0
 29 66  1  0  0  0  0
 30 67  1  0  0  0  0
 31 33  1  0  0  0  0
 31 68  1  0  0  0  0
 31 69  1  0  0  0  0
 32 70  1  0  0  0  0
 32 71  1  0  0  0  0
 32 72  1  0  0  0  0
 33 34  1  0  0  0  0
 33 73  1  0  0  0  0
 33 74  1  0  0  0  0
 34 35  1  0  0  0  0
 34 75  1  0  0  0  0
 34 76  1  0  0  0  0
 35 36  1  0  0  0  0
 35 37  1  0  0  0  0
 35 77  1  0  0  0  0
 36 80  1  0  0  0  0
 36 81  1  0  0  0  0
 36 82  1  0  0  0  0
 37 83  1  0  0  0  0
 37 84  1  0  0  0  0
 37 85  1  0  0  0  0
M  END
> <PUBCHEM_COMPOUND_CID>
513881
> <PUBCHEM_COMPOUND_CANONICALIZED>
1
> <PUBCHEM_CACTVS_COMPLEXITY>
1020
> <PUBCHEM_CACTVS_HBOND_ACCEPTOR>
8
> <PUBCHEM_CACTVS_HBOND_DONOR>
2
> <PUBCHEM_CACTVS_ROTATABLE_BOND>
9
> <PUBCHEM_CACTVS_SUBSKEYS>
AAADcfB4PABgAAAAAAAAAAAAAAAAAYAAAAAwYMAAAAAAAGDAAAAAGgAACAAADxSggAICAAAAAIAAAAAAADAAAAAAAAAAAAAAAAABAAIAAAAAAAAEAAAAAAGAwPAPgAAAAAAAAADAAAYAACCAAQAACAAAAA==
> <PUBCHEM_IUPAC_OPENEYE_NAME>
[(2S,3S,5S,10S,13R,17R)-17-[(1R)-1,5-dimethylhexyl]-10,13-dimethyl-2-sulfooxy-2,3,4,5,6,7,8,9,11,12,14,15,16,17-tetradecahydro-1H-cyclopenta[a]phenanthren-3-yl] hydrogen sulfate
> <PUBCHEM_IUPAC_CAS_NAME>
sulfuric acid [(2S,3S,5S,10S,13R,17R)-10,13-dimethyl-17-[(2R)-6-methylheptan-2-yl]-2-sulfooxy-2,3,4,5,6,7,8,9,11,12,14,15,16,17-tetradecahydro-1H-cyclopenta[a]phenanthren-3-yl] ester
> <PUBCHEM_IUPAC_NAME_MARKUP>
[(2<I>S</I>,3<I>S</I>,5<I>S</I>,10<I>S</I>,13<I>R</I>,17<I>R</I>)-10,13-dimethyl-17-[(2<I>R</I>)-6-methylheptan-2-yl]-2-sulfooxy-2,3,4,5,6,7,8,9,11,12,14,15,16,17-tetradecahydro-1<I>H</I>-cyclopenta[a]phenanthren-3-yl] hydrogen sulfate
> <PUBCHEM_IUPAC_NAME>
[(2S,3S,5S,10S,13R,17R)-10,13-dimethyl-17-[(2R)-6-methylheptan-2-yl]-2-sulfooxy-2,3,4,5,6,7,8,9,11,12,14,15,16,17-tetradecahydro-1H-cyclopenta[a]phenanthren-3-yl] hydrogen sulfate
> <PUBCHEM_IUPAC_SYSTEMATIC_NAME>
[(2S,3S,5S,10S,13R,17R)-10,13-dimethyl-17-[(2R)-6-methylheptan-2-yl]-2-sulfooxy-2,3,4,5,6,7,8,9,11,12,14,15,16,17-tetradecahydro-1H-cyclopenta[a]phenanthren-3-yl] hydrogen sulfate
> <PUBCHEM_IUPAC_TRADITIONAL_NAME>
sulfuric acid [(2S,3S,5S,10S,13R,17R)-17-[(1R)-1,5-dimethylhexyl]-10,13-dimethyl-2-sulfoxy-2,3,4,5,6,7,8,9,11,12,14,15,16,17-tetradecahydro-1H-cyclopenta[a]phenanthren-3-yl] ester
> <PUBCHEM_IUPAC_INCHI>
InChI=1S/C27H48O8S2/c1-17(2)7-6-8-18(3)21-11-12-22-20-10-9-19-15-24(34-36(28,29)30)25(35-37(31,32)33)16-27(19,5)23(20)13-14-26(21,22)4/h17-25H,6-16H2,1-5H3,(H,28,29,30)(H,31,32,33)/t18-,19+,20?,21-,22?,23?,24+,25+,26-,27+/m1/s1
> <PUBCHEM_IUPAC_INCHIKEY>
UGKOLQFCFBOVIF-FCYIINJSSA-N
> <PUBCHEM_XLOGP3_AA>
7.6
> <PUBCHEM_EXACT_MASS>
564.27906083
> <PUBCHEM_MOLECULAR_FORMULA>
C27H48O8S2
> <PUBCHEM_MOLECULAR_WEIGHT>
564.8
> <PUBCHEM_OPENEYE_CAN_SMILES>
CC(C)CCCC(C)C1CCC2C1(CCC3C2CCC4C3(CC(C(C4)OS(=O)(=O)O)OS(=O)(=O)O)C)C
> <PUBCHEM_OPENEYE_ISO_SMILES>
C[C@H](CCCC(C)C)[C@H]1CCC2[C@@]1(CCC3C2CC[C@@H]4[C@@]3(C[C@@H]([C@H](C4)OS(=O)(=O)O)OS(=O)(=O)O)C)C
> <PUBCHEM_CACTVS_TPSA>
144
> <PUBCHEM_MONOISOTOPIC_WEIGHT>
564.27906083
> <PUBCHEM_TOTAL_CHARGE>
0
> <PUBCHEM_HEAVY_ATOM_COUNT>
37
> <PUBCHEM_ATOM_DEF_STEREO_COUNT>
7
> <PUBCHEM_ATOM_UDEF_STEREO_COUNT>
3
> <PUBCHEM_BOND_DEF_STEREO_COUNT>
0
> <PUBCHEM_BOND_UDEF_STEREO_COUNT>
0
> <PUBCHEM_ISOTOPIC_ATOM_COUNT>
0
> <PUBCHEM_COMPONENT_COUNT>
1
> <PUBCHEM_CACTVS_TAUTO_COUNT>
-1
> <PUBCHEM_COORDINATE_TYPE>
1
5
255
> <PUBCHEM_BONDANNOTATIONS>
11  25  5
12  20  3
13  21  3
14  19  3
15  28  5
16  41  6
17  42  6
27  32  6
29  3  5
30  4  6
$$$$
