513859
  -OEChem-10302200282D
 37 39  0     1  0  0  0  0  0999 V2000
    4.2690   -3.5784    0.0000 S   0  0  0  0  0  0  0  0  0  0  0  0
    8.1515   -0.1050    0.0000 O   0  0  0  0  0  0  0  0  0  0  0  0
    8.1552    2.0706    0.0000 O   0  0  0  0  0  0  0  0  0  0  0  0
    6.7577    3.4884    0.0000 O   0  0  0  0  0  0  0  0  0  0  0  0
    6.0812   -0.7737    0.0000 N   0  0  0  0  0  0  0  0  0  0  0  0
    6.6648   -1.5784    0.0000 N   0  0  0  0  0  0  0  0  0  0  0  0
    6.0812   -2.3832    0.0000 N   0  0  0  0  0  0  0  0  0  0  0  0
    4.2690   -0.5784    0.0000 N   0  0  0  0  0  0  0  0  0  0  0  0
    3.4030   -2.0784    0.0000 N   0  0  0  0  0  0  0  0  0  0  0  0
    2.5369   -0.5784    0.0000 N   0  0  0  0  0  0  0  0  0  0  0  0
    6.3947    1.7949    0.0000 C   0  0  1  0  0  0  0  0  0  0  0  0
    6.3919    0.1768    0.0000 C   0  0  2  0  0  0  0  0  0  0  0  0
    5.8055    0.9869    0.0000 C   0  0  0  0  0  0  0  0  0  0  0  0
    7.3435    0.4842    0.0000 C   0  0  1  0  0  0  0  0  0  0  0  0
    7.3452    1.4842    0.0000 C   0  0  2  0  0  0  0  0  0  0  0  0
    6.0873    2.7464    0.0000 C   0  0  0  0  0  0  0  0  0  0  0  0
    5.1350   -1.0784    0.0000 C   0  0  0  0  0  0  0  0  0  0  0  0
    5.1350   -2.0784    0.0000 C   0  0  0  0  0  0  0  0  0  0  0  0
    4.2690   -2.5784    0.0000 C   0  0  0  0  0  0  0  0  0  0  0  0
    3.4030   -1.0784    0.0000 C   0  0  0  0  0  0  0  0  0  0  0  0
    3.4030   -4.0784    0.0000 C   0  0  0  0  0  0  0  0  0  0  0  0
    5.7825    1.8929    0.0000 H   0  0  0  0  0  0  0  0  0  0  0  0
    5.7794    0.0809    0.0000 H   0  0  0  0  0  0  0  0  0  0  0  0
    5.3455    1.4025    0.0000 H   0  0  0  0  0  0  0  0  0  0  0  0
    5.3440    0.5728    0.0000 H   0  0  0  0  0  0  0  0  0  0  0  0
    7.2454   -0.1280    0.0000 H   0  0  0  0  0  0  0  0  0  0  0  0
    7.2493    2.0967    0.0000 H   0  0  0  0  0  0  0  0  0  0  0  0
    5.7065    3.2357    0.0000 H   0  0  0  0  0  0  0  0  0  0  0  0
    5.5394    2.4563    0.0000 H   0  0  0  0  0  0  0  0  0  0  0  0
    8.7183    0.1462    0.0000 H   0  0  0  0  0  0  0  0  0  0  0  0
    8.7212    1.8174    0.0000 H   0  0  0  0  0  0  0  0  0  0  0  0
    6.5672    4.0784    0.0000 H   0  0  0  0  0  0  0  0  0  0  0  0
    2.0000   -0.8884    0.0000 H   0  0  0  0  0  0  0  0  0  0  0  0
    2.5369    0.0416    0.0000 H   0  0  0  0  0  0  0  0  0  0  0  0
    3.0930   -3.5415    0.0000 H   0  0  0  0  0  0  0  0  0  0  0  0
    2.8660   -4.3884    0.0000 H   0  0  0  0  0  0  0  0  0  0  0  0
    3.7130   -4.6154    0.0000 H   0  0  0  0  0  0  0  0  0  0  0  0
  1 19  1  0  0  0  0
  1 21  1  0  0  0  0
 14  2  1  1  0  0  0
  2 30  1  0  0  0  0
 15  3  1  1  0  0  0
  3 31  1  0  0  0  0
  4 16  1  0  0  0  0
  4 32  1  0  0  0  0
  5  6  1  0  0  0  0
 12  5  1  6  0  0  0
  5 17  1  0  0  0  0
  6  7  2  0  0  0  0
  7 18  1  0  0  0  0
  8 17  1  0  0  0  0
  8 20  2  0  0  0  0
  9 19  2  0  0  0  0
  9 20  1  0  0  0  0
 10 20  1  0  0  0  0
 10 33  1  0  0  0  0
 10 34  1  0  0  0  0
 11 13  1  0  0  0  0
 11 15  1  0  0  0  0
 11 16  1  6  0  0  0
 11 22  1  0  0  0  0
 12 13  1  0  0  0  0
 12 14  1  0  0  0  0
 12 23  1  0  0  0  0
 13 24  1  0  0  0  0
 13 25  1  0  0  0  0
 14 15  1  0  0  0  0
 14 26  1  0  0  0  0
 15 27  1  0  0  0  0
 16 28  1  0  0  0  0
 16 29  1  0  0  0  0
 17 18  2  0  0  0  0
 18 19  1  0  0  0  0
 21 35  1  0  0  0  0
 21 36  1  0  0  0  0
 21 37  1  0  0  0  0
M  END
> <PUBCHEM_COMPOUND_CID>
513859
> <PUBCHEM_COMPOUND_CANONICALIZED>
1
> <PUBCHEM_CACTVS_COMPLEXITY>
380
> <PUBCHEM_CACTVS_HBOND_ACCEPTOR>
9
> <PUBCHEM_CACTVS_HBOND_DONOR>
4
> <PUBCHEM_CACTVS_ROTATABLE_BOND>
3
> <PUBCHEM_CACTVS_SUBSKEYS>
AAADceBzsABAAAAAAAAAAAAAAAAAAeIAAAAsAAAAAAAAAFgB+AAAHgQYCAAADTzh1waD8b5IEgiiAQZgZACA1C9BmLAVUDQoVBCDWAJgyEAURAwPAALRACHwcAcOAAAAAAAAAAAAAAAAAAAAAKEABCgAAA==
> <PUBCHEM_IUPAC_OPENEYE_NAME>
(1R,2S,3R,5R)-3-(5-amino-7-methylsulfanyl-triazolo[4,5-d]pyrimidin-3-yl)-5-(hydroxymethyl)cyclopentane-1,2-diol
> <PUBCHEM_IUPAC_CAS_NAME>
(1R,2S,3R,5R)-3-[5-amino-7-(methylthio)-3-triazolo[4,5-d]pyrimidinyl]-5-(hydroxymethyl)cyclopentane-1,2-diol
> <PUBCHEM_IUPAC_NAME_MARKUP>
(1<I>R</I>,2<I>S</I>,3<I>R</I>,5<I>R</I>)-3-(5-amino-7-methylsulfanyltriazolo[4,5-d]pyrimidin-3-yl)-5-(hydroxymethyl)cyclopentane-1,2-diol
> <PUBCHEM_IUPAC_NAME>
(1R,2S,3R,5R)-3-(5-amino-7-methylsulfanyltriazolo[4,5-d]pyrimidin-3-yl)-5-(hydroxymethyl)cyclopentane-1,2-diol
> <PUBCHEM_IUPAC_SYSTEMATIC_NAME>
(1R,2S,3R,5R)-3-(5-azanyl-7-methylsulfanyl-[1,2,3]triazolo[4,5-d]pyrimidin-3-yl)-5-(hydroxymethyl)cyclopentane-1,2-diol
> <PUBCHEM_IUPAC_TRADITIONAL_NAME>
(1R,2S,3R,5R)-3-[5-amino-7-(methylthio)triazolo[4,5-d]pyrimidin-3-yl]-5-methylol-cyclopentane-1,2-diol
> <PUBCHEM_IUPAC_INCHI>
InChI=1S/C11H16N6O3S/c1-21-10-6-9(13-11(12)14-10)17(16-15-6)5-2-4(3-18)7(19)8(5)20/h4-5,7-8,18-20H,2-3H2,1H3,(H2,12,13,14)/t4-,5-,7-,8+/m1/s1
> <PUBCHEM_IUPAC_INCHIKEY>
FYUBOHSLQPXGKZ-APOSLCTFSA-N
> <PUBCHEM_XLOGP3_AA>
-0.8
> <PUBCHEM_EXACT_MASS>
312.10045957
> <PUBCHEM_MOLECULAR_FORMULA>
C11H16N6O3S
> <PUBCHEM_MOLECULAR_WEIGHT>
312.35
> <PUBCHEM_OPENEYE_CAN_SMILES>
CSC1=NC(=NC2=C1N=NN2C3CC(C(C3O)O)CO)N
> <PUBCHEM_OPENEYE_ISO_SMILES>
CSC1=NC(=NC2=C1N=NN2[C@@H]3C[C@@H]([C@H]([C@H]3O)O)CO)N
> <PUBCHEM_CACTVS_TPSA>
169
> <PUBCHEM_MONOISOTOPIC_WEIGHT>
312.10045957
> <PUBCHEM_TOTAL_CHARGE>
0
> <PUBCHEM_HEAVY_ATOM_COUNT>
21
> <PUBCHEM_ATOM_DEF_STEREO_COUNT>
4
> <PUBCHEM_ATOM_UDEF_STEREO_COUNT>
0
> <PUBCHEM_BOND_DEF_STEREO_COUNT>
0
> <PUBCHEM_BOND_UDEF_STEREO_COUNT>
0
> <PUBCHEM_ISOTOPIC_ATOM_COUNT>
0
> <PUBCHEM_COMPONENT_COUNT>
1
> <PUBCHEM_CACTVS_TAUTO_COUNT>
4
> <PUBCHEM_COORDINATE_TYPE>
1
5
255
> <PUBCHEM_BONDANNOTATIONS>
11  16  6
17  18  8
18  19  8
14  2  5
15  3  5
12  5  6
5  17  8
5  6  8
6  7  8
7  18  8
8  17  8
8  20  8
9  19  8
9  20  8
$$$$
