513889
  -OEChem-10302200282D
 42 44  0     1  0  0  0  0  0999 V2000
    6.6495    3.2951    0.0000 O   0  0  0  0  0  0  0  0  0  0  0  0
    6.7619   -0.4826    0.0000 O   0  0  0  0  0  0  0  0  0  0  0  0
    4.6783   -0.5439    0.0000 N   0  0  0  0  0  0  0  0  0  0  0  0
    4.6783   -2.1534    0.0000 N   0  0  0  0  0  0  0  0  0  0  0  0
    2.8660   -0.3486    0.0000 N   0  0  0  0  0  0  0  0  0  0  0  0
    6.7619   -2.2147    0.0000 N   0  0  0  0  0  0  0  0  0  0  0  0
    2.0000   -1.8486    0.0000 N   0  0  0  0  0  0  0  0  0  0  0  0
    2.8660   -3.3486    0.0000 N   0  0  0  0  0  0  0  0  0  0  0  0
    4.9889    0.4066    0.0000 C   0  0  2  0  0  0  0  0  0  0  0  0
    5.9422    1.7140    0.0000 C   0  0  1  0  0  0  0  0  0  0  0  0
    5.9405    0.7140    0.0000 C   0  0  0  0  0  0  0  0  0  0  0  0
    4.4026    1.2166    0.0000 C   0  0  0  0  0  0  0  0  0  0  0  0
    4.9917    2.0246    0.0000 C   0  0  0  0  0  0  0  0  0  0  0  0
    6.7523    2.3004    0.0000 C   0  0  0  0  0  0  0  0  0  0  0  0
    3.7320   -0.8486    0.0000 C   0  0  0  0  0  0  0  0  0  0  0  0
    5.2619   -1.3486    0.0000 C   0  0  0  0  0  0  0  0  0  0  0  0
    3.7320   -1.8486    0.0000 C   0  0  0  0  0  0  0  0  0  0  0  0
    6.2619   -1.3486    0.0000 C   0  0  0  0  0  0  0  0  0  0  0  0
    2.8660   -2.3486    0.0000 C   0  0  0  0  0  0  0  0  0  0  0  0
    2.0000   -0.8486    0.0000 C   0  0  0  0  0  0  0  0  0  0  0  0
    7.7619   -2.2147    0.0000 C   0  0  0  0  0  0  0  0  0  0  0  0
    6.2619   -3.0807    0.0000 C   0  0  0  0  0  0  0  0  0  0  0  0
    5.4266   -0.0325    0.0000 H   0  0  0  0  0  0  0  0  0  0  0  0
    6.4942    1.4316    0.0000 H   0  0  0  0  0  0  0  0  0  0  0  0
    6.0684    0.1073    0.0000 H   0  0  0  0  0  0  0  0  0  0  0  0
    6.5572    0.7777    0.0000 H   0  0  0  0  0  0  0  0  0  0  0  0
    3.9425    1.6323    0.0000 H   0  0  0  0  0  0  0  0  0  0  0  0
    3.9411    0.8026    0.0000 H   0  0  0  0  0  0  0  0  0  0  0  0
    5.2449    2.5906    0.0000 H   0  0  0  0  0  0  0  0  0  0  0  0
    4.4553    2.3356    0.0000 H   0  0  0  0  0  0  0  0  0  0  0  0
    7.0231    1.7426    0.0000 H   0  0  0  0  0  0  0  0  0  0  0  0
    7.3486    2.4702    0.0000 H   0  0  0  0  0  0  0  0  0  0  0  0
    7.1517    3.6586    0.0000 H   0  0  0  0  0  0  0  0  0  0  0  0
    1.4631   -0.5386    0.0000 H   0  0  0  0  0  0  0  0  0  0  0  0
    7.7619   -2.8347    0.0000 H   0  0  0  0  0  0  0  0  0  0  0  0
    8.3819   -2.2147    0.0000 H   0  0  0  0  0  0  0  0  0  0  0  0
    7.7619   -1.5947    0.0000 H   0  0  0  0  0  0  0  0  0  0  0  0
    5.7249   -2.7707    0.0000 H   0  0  0  0  0  0  0  0  0  0  0  0
    5.9519   -3.6176    0.0000 H   0  0  0  0  0  0  0  0  0  0  0  0
    6.7988   -3.3907    0.0000 H   0  0  0  0  0  0  0  0  0  0  0  0
    2.3291   -3.6586    0.0000 H   0  0  0  0  0  0  0  0  0  0  0  0
    3.4030   -3.6586    0.0000 H   0  0  0  0  0  0  0  0  0  0  0  0
  1 14  1  0  0  0  0
  1 33  1  0  0  0  0
  2 18  2  0  0  0  0
  9  3  1  1  0  0  0
  3 15  1  0  0  0  0
  3 16  1  0  0  0  0
  4 16  2  0  0  0  0
  4 17  1  0  0  0  0
  5 15  2  0  0  0  0
  5 20  1  0  0  0  0
  6 18  1  0  0  0  0
  6 21  1  0  0  0  0
  6 22  1  0  0  0  0
  7 19  1  0  0  0  0
  7 20  2  0  0  0  0
  8 19  1  0  0  0  0
  8 41  1  0  0  0  0
  8 42  1  0  0  0  0
  9 11  1  0  0  0  0
  9 12  1  0  0  0  0
  9 23  1  0  0  0  0
 10 11  1  0  0  0  0
 10 13  1  0  0  0  0
 10 14  1  1  0  0  0
 10 24  1  0  0  0  0
 11 25  1  0  0  0  0
 11 26  1  0  0  0  0
 12 13  1  0  0  0  0
 12 27  1  0  0  0  0
 12 28  1  0  0  0  0
 13 29  1  0  0  0  0
 13 30  1  0  0  0  0
 14 31  1  0  0  0  0
 14 32  1  0  0  0  0
 15 17  1  0  0  0  0
 16 18  1  0  0  0  0
 17 19  2  0  0  0  0
 20 34  1  0  0  0  0
 21 35  1  0  0  0  0
 21 36  1  0  0  0  0
 21 37  1  0  0  0  0
 22 38  1  0  0  0  0
 22 39  1  0  0  0  0
 22 40  1  0  0  0  0
M  END
> <PUBCHEM_COMPOUND_CID>
513889
> <PUBCHEM_COMPOUND_CANONICALIZED>
1
> <PUBCHEM_CACTVS_COMPLEXITY>
420
> <PUBCHEM_CACTVS_HBOND_ACCEPTOR>
6
> <PUBCHEM_CACTVS_HBOND_DONOR>
2
> <PUBCHEM_CACTVS_ROTATABLE_BOND>
3
> <PUBCHEM_CACTVS_SUBSKEYS>
AAADceBzsAAAAAAAAAAAAAAAAAAAAeIAAAAsAAAAAAAAAFgB+AAAHgAQCAAADSjhlwYH8L9MEgCoAQdxdACAgC0TEKABUCCoVBCAWAJAyGAURAgMAgLAACGwUAMOAAAAAAAAAAAAAAAAAAAAACAAAAAAAA==
> <PUBCHEM_IUPAC_OPENEYE_NAME>
6-amino-9-[(1S,3R)-3-(hydroxymethyl)cyclopentyl]-N,N-dimethyl-purine-8-carboxamide
> <PUBCHEM_IUPAC_CAS_NAME>
6-amino-9-[(1S,3R)-3-(hydroxymethyl)cyclopentyl]-N,N-dimethyl-8-purinecarboxamide
> <PUBCHEM_IUPAC_NAME_MARKUP>
6-amino-9-[(1<I>S</I>,3<I>R</I>)-3-(hydroxymethyl)cyclopentyl]-<I>N</I>,<I>N</I>-dimethylpurine-8-carboxamide
> <PUBCHEM_IUPAC_NAME>
6-amino-9-[(1S,3R)-3-(hydroxymethyl)cyclopentyl]-N,N-dimethylpurine-8-carboxamide
> <PUBCHEM_IUPAC_SYSTEMATIC_NAME>
6-azanyl-9-[(1S,3R)-3-(hydroxymethyl)cyclopentyl]-N,N-dimethyl-purine-8-carboxamide
> <PUBCHEM_IUPAC_TRADITIONAL_NAME>
6-amino-N,N-dimethyl-9-[(1S,3R)-3-methylolcyclopentyl]purine-8-carboxamide
> <PUBCHEM_IUPAC_INCHI>
InChI=1S/C14H20N6O2/c1-19(2)14(22)13-18-10-11(15)16-7-17-12(10)20(13)9-4-3-8(5-9)6-21/h7-9,21H,3-6H2,1-2H3,(H2,15,16,17)/t8-,9+/m1/s1
> <PUBCHEM_IUPAC_INCHIKEY>
OVFUEBRGUOIVGI-BDAKNGLRSA-N
> <PUBCHEM_XLOGP3_AA>
-0.1
> <PUBCHEM_EXACT_MASS>
304.16477390
> <PUBCHEM_MOLECULAR_FORMULA>
C14H20N6O2
> <PUBCHEM_MOLECULAR_WEIGHT>
304.35
> <PUBCHEM_OPENEYE_CAN_SMILES>
CN(C)C(=O)C1=NC2=C(N=CN=C2N1C3CCC(C3)CO)N
> <PUBCHEM_OPENEYE_ISO_SMILES>
CN(C)C(=O)C1=NC2=C(N=CN=C2N1[C@H]3CC[C@H](C3)CO)N
> <PUBCHEM_CACTVS_TPSA>
110
> <PUBCHEM_MONOISOTOPIC_WEIGHT>
304.16477390
> <PUBCHEM_TOTAL_CHARGE>
0
> <PUBCHEM_HEAVY_ATOM_COUNT>
22
> <PUBCHEM_ATOM_DEF_STEREO_COUNT>
2
> <PUBCHEM_ATOM_UDEF_STEREO_COUNT>
0
> <PUBCHEM_BOND_DEF_STEREO_COUNT>
0
> <PUBCHEM_BOND_UDEF_STEREO_COUNT>
0
> <PUBCHEM_ISOTOPIC_ATOM_COUNT>
0
> <PUBCHEM_COMPONENT_COUNT>
1
> <PUBCHEM_CACTVS_TAUTO_COUNT>
-1
> <PUBCHEM_COORDINATE_TYPE>
1
5
255
> <PUBCHEM_BONDANNOTATIONS>
10  14  5
15  17  8
17  19  8
3  15  8
3  16  8
9  3  5
4  16  8
4  17  8
5  15  8
5  20  8
7  19  8
7  20  8
$$$$
