513802
  -OEChem-10302200282D
 85 88  0     1  0  0  0  0  0999 V2000
    8.9282    3.0950    0.0000 S   0  0  0  0  0  0  0  0  0  0  0  0
    6.3301    1.5950    0.0000 O   0  0  0  0  0  0  0  0  0  0  0  0
    9.9282    3.0950    0.0000 O   0  0  0  0  0  0  0  0  0  0  0  0
    7.9282    3.0950    0.0000 O   0  0  0  0  0  0  0  0  0  0  0  0
    4.5981   -2.4050    0.0000 O   0  0  0  0  0  0  0  0  0  0  0  0
    8.1424   -5.6003    0.0000 O   0  0  0  0  0  0  0  0  0  0  0  0
    8.1424   -7.2097    0.0000 O   0  0  0  0  0  0  0  0  0  0  0  0
    8.9282    2.0950    0.0000 N   0  0  3  0  0  0  0  0  0  0  0  0
    6.3301   -2.4050    0.0000 N   0  0  0  0  0  0  0  0  0  0  0  0
    5.4641   -3.9050    0.0000 N   0  0  0  0  0  0  0  0  0  0  0  0
    8.9282    7.0950    0.0000 N   0  0  0  0  0  0  0  0  0  0  0  0
    8.0622    1.5950    0.0000 C   0  0  1  0  0  0  0  0  0  0  0  0
    8.0622    0.5950    0.0000 C   0  0  0  0  0  0  0  0  0  0  0  0
    9.7942    1.5950    0.0000 C   0  0  0  0  0  0  0  0  0  0  0  0
    7.1962    0.0950    0.0000 C   0  0  0  0  0  0  0  0  0  0  0  0
    9.7942    0.5950    0.0000 C   0  0  0  0  0  0  0  0  0  0  0  0
    7.1962    2.0950    0.0000 C   0  0  0  0  0  0  0  0  0  0  0  0
    7.1962   -0.9050    0.0000 C   0  0  0  0  0  0  0  0  0  0  0  0
    8.9282    4.0950    0.0000 C   0  0  0  0  0  0  0  0  0  0  0  0
   10.6603    0.0950    0.0000 C   0  0  0  0  0  0  0  0  0  0  0  0
    8.9282    0.0950    0.0000 C   0  0  0  0  0  0  0  0  0  0  0  0
    6.3301   -1.4050    0.0000 C   0  0  0  0  0  0  0  0  0  0  0  0
    8.0622    4.5950    0.0000 C   0  0  0  0  0  0  0  0  0  0  0  0
    9.7942    4.5950    0.0000 C   0  0  0  0  0  0  0  0  0  0  0  0
    5.4641   -2.9050    0.0000 C   0  0  0  0  0  0  0  0  0  0  0  0
    8.0622    5.5950    0.0000 C   0  0  0  0  0  0  0  0  0  0  0  0
    9.7942    5.5950    0.0000 C   0  0  0  0  0  0  0  0  0  0  0  0
    8.9282    6.0950    0.0000 C   0  0  0  0  0  0  0  0  0  0  0  0
    6.3301   -4.4050    0.0000 C   0  0  0  0  0  0  0  0  0  0  0  0
    4.5981   -4.4050    0.0000 C   0  0  0  0  0  0  0  0  0  0  0  0
    6.3301   -5.4050    0.0000 C   0  0  0  0  0  0  0  0  0  0  0  0
    3.7320   -3.9050    0.0000 C   0  0  0  0  0  0  0  0  0  0  0  0
    7.1962   -5.9050    0.0000 C   0  0  0  0  0  0  0  0  0  0  0  0
    5.4641   -5.9050    0.0000 C   0  0  0  0  0  0  0  0  0  0  0  0
    7.1962   -6.9050    0.0000 C   0  0  0  0  0  0  0  0  0  0  0  0
    5.4641   -6.9050    0.0000 C   0  0  0  0  0  0  0  0  0  0  0  0
    2.8660   -4.4050    0.0000 C   0  0  0  0  0  0  0  0  0  0  0  0
    3.7320   -2.9050    0.0000 C   0  0  0  0  0  0  0  0  0  0  0  0
    6.3301   -7.4050    0.0000 C   0  0  0  0  0  0  0  0  0  0  0  0
    8.7260   -6.4050    0.0000 C   0  0  0  0  0  0  0  0  0  0  0  0
    2.0000   -3.9050    0.0000 C   0  0  0  0  0  0  0  0  0  0  0  0
    2.8660   -2.4050    0.0000 C   0  0  0  0  0  0  0  0  0  0  0  0
    2.0000   -2.9050    0.0000 C   0  0  0  0  0  0  0  0  0  0  0  0
    8.0622    2.2150    0.0000 H   0  0  0  0  0  0  0  0  0  0  0  0
    8.2742    0.0124    0.0000 H   0  0  0  0  0  0  0  0  0  0  0  0
    8.6728    0.7027    0.0000 H   0  0  0  0  0  0  0  0  0  0  0  0
   10.4048    1.4873    0.0000 H   0  0  0  0  0  0  0  0  0  0  0  0
   10.0063    2.1776    0.0000 H   0  0  0  0  0  0  0  0  0  0  0  0
    6.9841    0.6776    0.0000 H   0  0  0  0  0  0  0  0  0  0  0  0
    6.5856   -0.0127    0.0000 H   0  0  0  0  0  0  0  0  0  0  0  0
    9.2573    0.9050    0.0000 H   0  0  0  0  0  0  0  0  0  0  0  0
    7.5947    2.5700    0.0000 H   0  0  0  0  0  0  0  0  0  0  0  0
    6.7976    2.5700    0.0000 H   0  0  0  0  0  0  0  0  0  0  0  0
    7.4082   -1.4876    0.0000 H   0  0  0  0  0  0  0  0  0  0  0  0
    7.8067   -0.7973    0.0000 H   0  0  0  0  0  0  0  0  0  0  0  0
   10.3503   -0.4419    0.0000 H   0  0  0  0  0  0  0  0  0  0  0  0
   11.1972   -0.2150    0.0000 H   0  0  0  0  0  0  0  0  0  0  0  0
   10.9703    0.6319    0.0000 H   0  0  0  0  0  0  0  0  0  0  0  0
    8.6182    0.6319    0.0000 H   0  0  0  0  0  0  0  0  0  0  0  0
    8.3913   -0.2150    0.0000 H   0  0  0  0  0  0  0  0  0  0  0  0
    9.2382   -0.4419    0.0000 H   0  0  0  0  0  0  0  0  0  0  0  0
    6.1181   -0.8224    0.0000 H   0  0  0  0  0  0  0  0  0  0  0  0
    5.7196   -1.5127    0.0000 H   0  0  0  0  0  0  0  0  0  0  0  0
    5.7932    1.9050    0.0000 H   0  0  0  0  0  0  0  0  0  0  0  0
    7.5252    4.2850    0.0000 H   0  0  0  0  0  0  0  0  0  0  0  0
   10.3312    4.2850    0.0000 H   0  0  0  0  0  0  0  0  0  0  0  0
    6.8671   -2.7150    0.0000 H   0  0  0  0  0  0  0  0  0  0  0  0
    7.5252    5.9050    0.0000 H   0  0  0  0  0  0  0  0  0  0  0  0
   10.3312    5.9050    0.0000 H   0  0  0  0  0  0  0  0  0  0  0  0
    6.9407   -4.5127    0.0000 H   0  0  0  0  0  0  0  0  0  0  0  0
    6.5422   -3.8224    0.0000 H   0  0  0  0  0  0  0  0  0  0  0  0
    4.1996   -4.8800    0.0000 H   0  0  0  0  0  0  0  0  0  0  0  0
    4.9966   -4.8800    0.0000 H   0  0  0  0  0  0  0  0  0  0  0  0
    9.4651    7.4050    0.0000 H   0  0  0  0  0  0  0  0  0  0  0  0
    8.3913    7.4050    0.0000 H   0  0  0  0  0  0  0  0  0  0  0  0
    4.9272   -5.5950    0.0000 H   0  0  0  0  0  0  0  0  0  0  0  0
    4.9272   -7.2150    0.0000 H   0  0  0  0  0  0  0  0  0  0  0  0
    2.8660   -5.0250    0.0000 H   0  0  0  0  0  0  0  0  0  0  0  0
    4.2690   -2.5950    0.0000 H   0  0  0  0  0  0  0  0  0  0  0  0
    6.3301   -8.0250    0.0000 H   0  0  0  0  0  0  0  0  0  0  0  0
    9.1868   -6.8197    0.0000 H   0  0  0  0  0  0  0  0  0  0  0  0
    9.1868   -5.9903    0.0000 H   0  0  0  0  0  0  0  0  0  0  0  0
    1.4631   -4.2150    0.0000 H   0  0  0  0  0  0  0  0  0  0  0  0
    2.8660   -1.7850    0.0000 H   0  0  0  0  0  0  0  0  0  0  0  0
    1.4631   -2.5950    0.0000 H   0  0  0  0  0  0  0  0  0  0  0  0
  1  3  2  0  0  0  0
  1  4  2  0  0  0  0
  1  8  1  0  0  0  0
  1 19  1  0  0  0  0
  2 17  1  0  0  0  0
  2 64  1  0  0  0  0
  5 25  2  0  0  0  0
  6 33  1  0  0  0  0
  6 40  1  0  0  0  0
  7 35  1  0  0  0  0
  7 40  1  0  0  0  0
 12  8  1  1  0  0  0
  8 14  1  0  0  0  0
  9 22  1  0  0  0  0
  9 25  1  0  0  0  0
  9 67  1  0  0  0  0
 10 25  1  0  0  0  0
 10 29  1  0  0  0  0
 10 30  1  0  0  0  0
 11 28  1  0  0  0  0
 11 74  1  0  0  0  0
 11 75  1  0  0  0  0
 12 13  1  0  0  0  0
 12 17  1  0  0  0  0
 12 44  1  0  0  0  0
 13 15  1  0  0  0  0
 13 45  1  0  0  0  0
 13 46  1  0  0  0  0
 14 16  1  0  0  0  0
 14 47  1  0  0  0  0
 14 48  1  0  0  0  0
 15 18  1  0  0  0  0
 15 49  1  0  0  0  0
 15 50  1  0  0  0  0
 16 20  1  0  0  0  0
 16 21  1  0  0  0  0
 16 51  1  0  0  0  0
 17 52  1  0  0  0  0
 17 53  1  0  0  0  0
 18 22  1  0  0  0  0
 18 54  1  0  0  0  0
 18 55  1  0  0  0  0
 19 23  2  0  0  0  0
 19 24  1  0  0  0  0
 20 56  1  0  0  0  0
 20 57  1  0  0  0  0
 20 58  1  0  0  0  0
 21 59  1  0  0  0  0
 21 60  1  0  0  0  0
 21 61  1  0  0  0  0
 22 62  1  0  0  0  0
 22 63  1  0  0  0  0
 23 26  1  0  0  0  0
 23 65  1  0  0  0  0
 24 27  2  0  0  0  0
 24 66  1  0  0  0  0
 26 28  2  0  0  0  0
 26 68  1  0  0  0  0
 27 28  1  0  0  0  0
 27 69  1  0  0  0  0
 29 31  1  0  0  0  0
 29 70  1  0  0  0  0
 29 71  1  0  0  0  0
 30 32  1  0  0  0  0
 30 72  1  0  0  0  0
 30 73  1  0  0  0  0
 31 33  2  0  0  0  0
 31 34  1  0  0  0  0
 32 37  2  0  0  0  0
 32 38  1  0  0  0  0
 33 35  1  0  0  0  0
 34 36  2  0  0  0  0
 34 76  1  0  0  0  0
 35 39  2  0  0  0  0
 36 39  1  0  0  0  0
 36 77  1  0  0  0  0
 37 41  1  0  0  0  0
 37 78  1  0  0  0  0
 38 42  2  0  0  0  0
 38 79  1  0  0  0  0
 39 80  1  0  0  0  0
 40 81  1  0  0  0  0
 40 82  1  0  0  0  0
 41 43  2  0  0  0  0
 41 83  1  0  0  0  0
 42 43  1  0  0  0  0
 42 84  1  0  0  0  0
 43 85  1  0  0  0  0
M  END
> <PUBCHEM_COMPOUND_CID>
513802
> <PUBCHEM_COMPOUND_CANONICALIZED>
1
> <PUBCHEM_CACTVS_COMPLEXITY>
933
> <PUBCHEM_CACTVS_HBOND_ACCEPTOR>
8
> <PUBCHEM_CACTVS_HBOND_DONOR>
3
> <PUBCHEM_CACTVS_ROTATABLE_BOND>
15
> <PUBCHEM_CACTVS_SUBSKEYS>
AAADcfB/uABAAAAAAAAAAAAAAAAAASAAAAAwYMAAAAAAAEgBUAAAHgQQSAAADSzh2Aczz4PABgKIAiRCUHDCCBAgIgAIiJgO7IifNiKEsZukcCpu1hOe6AewwDAOAAQBAAAIQAAACAIAABCAAAAAAAAAAA==
> <PUBCHEM_IUPAC_OPENEYE_NAME>
3-[(5S)-5-[(4-aminophenyl)sulfonyl-isobutyl-amino]-6-hydroxy-hexyl]-1-(1,3-benzodioxol-4-ylmethyl)-1-benzyl-urea
> <PUBCHEM_IUPAC_CAS_NAME>
3-[(5S)-5-[(4-aminophenyl)sulfonyl-(2-methylpropyl)amino]-6-hydroxyhexyl]-1-(1,3-benzodioxol-4-ylmethyl)-1-(phenylmethyl)urea
> <PUBCHEM_IUPAC_NAME_MARKUP>
3-[(5<I>S</I>)-5-[(4-aminophenyl)sulfonyl-(2-methylpropyl)amino]-6-hydroxyhexyl]-1-(1,3-benzodioxol-4-ylmethyl)-1-benzylurea
> <PUBCHEM_IUPAC_NAME>
3-[(5S)-5-[(4-aminophenyl)sulfonyl-(2-methylpropyl)amino]-6-hydroxyhexyl]-1-(1,3-benzodioxol-4-ylmethyl)-1-benzylurea
> <PUBCHEM_IUPAC_SYSTEMATIC_NAME>
3-[(5S)-5-[(4-aminophenyl)sulfonyl-(2-methylpropyl)amino]-6-oxidanyl-hexyl]-1-(1,3-benzodioxol-4-ylmethyl)-1-(phenylmethyl)urea
> <PUBCHEM_IUPAC_TRADITIONAL_NAME>
1-(1,3-benzodioxol-4-ylmethyl)-1-benzyl-3-[(5S)-6-hydroxy-5-[isobutyl(sulfanilyl)amino]hexyl]urea
> <PUBCHEM_IUPAC_INCHI>
InChI=1S/C32H42N4O6S/c1-24(2)19-36(43(39,40)29-16-14-27(33)15-17-29)28(22-37)12-6-7-18-34-32(38)35(20-25-9-4-3-5-10-25)21-26-11-8-13-30-31(26)42-23-41-30/h3-5,8-11,13-17,24,28,37H,6-7,12,18-23,33H2,1-2H3,(H,34,38)/t28-/m0/s1
> <PUBCHEM_IUPAC_INCHIKEY>
FTBLXBYPPSJOGB-NDEPHWFRSA-N
> <PUBCHEM_XLOGP3_AA>
4.3
> <PUBCHEM_EXACT_MASS>
610.28250625
> <PUBCHEM_MOLECULAR_FORMULA>
C32H42N4O6S
> <PUBCHEM_MOLECULAR_WEIGHT>
610.8
> <PUBCHEM_OPENEYE_CAN_SMILES>
CC(C)CN(C(CCCCNC(=O)N(CC1=CC=CC=C1)CC2=C3C(=CC=C2)OCO3)CO)S(=O)(=O)C4=CC=C(C=C4)N
> <PUBCHEM_OPENEYE_ISO_SMILES>
CC(C)CN([C@@H](CCCCNC(=O)N(CC1=CC=CC=C1)CC2=C3C(=CC=C2)OCO3)CO)S(=O)(=O)C4=CC=C(C=C4)N
> <PUBCHEM_CACTVS_TPSA>
143
> <PUBCHEM_MONOISOTOPIC_WEIGHT>
610.28250625
> <PUBCHEM_TOTAL_CHARGE>
0
> <PUBCHEM_HEAVY_ATOM_COUNT>
43
> <PUBCHEM_ATOM_DEF_STEREO_COUNT>
1
> <PUBCHEM_ATOM_UDEF_STEREO_COUNT>
0
> <PUBCHEM_BOND_DEF_STEREO_COUNT>
0
> <PUBCHEM_BOND_UDEF_STEREO_COUNT>
0
> <PUBCHEM_ISOTOPIC_ATOM_COUNT>
0
> <PUBCHEM_COMPONENT_COUNT>
1
> <PUBCHEM_CACTVS_TAUTO_COUNT>
-1
> <PUBCHEM_COORDINATE_TYPE>
1
5
255
> <PUBCHEM_BONDANNOTATIONS>
19  23  8
19  24  8
23  26  8
24  27  8
26  28  8
27  28  8
31  33  8
31  34  8
32  37  8
32  38  8
33  35  8
34  36  8
35  39  8
36  39  8
37  41  8
38  42  8
41  43  8
42  43  8
12  8  5
$$$$
