513806
  -OEChem-10302200282D
 87 90  0     1  0  0  0  0  0999 V2000
    6.0010    3.4400    0.0000 S   0  0  0  0  0  0  0  0  0  0  0  0
    6.0010    0.4400    0.0000 O   0  0  0  0  0  0  0  0  0  0  0  0
    6.5010    4.3060    0.0000 O   0  0  0  0  0  0  0  0  0  0  0  0
    5.5010    2.5740    0.0000 O   0  0  0  0  0  0  0  0  0  0  0  0
    8.5991   -3.0600    0.0000 O   0  0  0  0  0  0  0  0  0  0  0  0
   14.7415   -2.7553    0.0000 O   0  0  0  0  0  0  0  0  0  0  0  0
   14.7415   -4.3647    0.0000 O   0  0  0  0  0  0  0  0  0  0  0  0
    6.8671    2.9400    0.0000 N   0  0  3  0  0  0  0  0  0  0  0  0
    9.4651   -1.5600    0.0000 N   0  0  0  0  0  0  0  0  0  0  0  0
   10.3312   -3.0600    0.0000 N   0  0  0  0  0  0  0  0  0  0  0  0
    2.5369    5.4400    0.0000 N   0  0  0  0  0  0  0  0  0  0  0  0
    7.7331   -5.5600    0.0000 N   0  0  0  0  0  0  0  0  0  0  0  0
    6.8671    1.9400    0.0000 C   0  0  1  0  0  0  0  0  0  0  0  0
    7.7331    1.4400    0.0000 C   0  0  0  0  0  0  0  0  0  0  0  0
    7.7331    3.4400    0.0000 C   0  0  0  0  0  0  0  0  0  0  0  0
    8.5991    2.9400    0.0000 C   0  0  0  0  0  0  0  0  0  0  0  0
    7.7331    0.4400    0.0000 C   0  0  0  0  0  0  0  0  0  0  0  0
    6.0010    1.4400    0.0000 C   0  0  0  0  0  0  0  0  0  0  0  0
    9.4651    3.4400    0.0000 C   0  0  0  0  0  0  0  0  0  0  0  0
    8.5991   -0.0600    0.0000 C   0  0  0  0  0  0  0  0  0  0  0  0
    5.1350    3.9400    0.0000 C   0  0  0  0  0  0  0  0  0  0  0  0
    8.5991   -1.0600    0.0000 C   0  0  0  0  0  0  0  0  0  0  0  0
   10.3312    2.9400    0.0000 C   0  0  0  0  0  0  0  0  0  0  0  0
    9.4651    4.4400    0.0000 C   0  0  0  0  0  0  0  0  0  0  0  0
    5.1350    4.9400    0.0000 C   0  0  0  0  0  0  0  0  0  0  0  0
    4.2690    3.4400    0.0000 C   0  0  0  0  0  0  0  0  0  0  0  0
    4.2690    5.4400    0.0000 C   0  0  0  0  0  0  0  0  0  0  0  0
    3.4030    3.9400    0.0000 C   0  0  0  0  0  0  0  0  0  0  0  0
    9.4651   -2.5600    0.0000 C   0  0  0  0  0  0  0  0  0  0  0  0
    3.4030    4.9400    0.0000 C   0  0  0  0  0  0  0  0  0  0  0  0
   11.1972   -2.5600    0.0000 C   0  0  0  0  0  0  0  0  0  0  0  0
   10.3312   -4.0600    0.0000 C   0  0  0  0  0  0  0  0  0  0  0  0
   12.0632   -3.0600    0.0000 C   0  0  0  0  0  0  0  0  0  0  0  0
    9.4651   -4.5600    0.0000 C   0  0  0  0  0  0  0  0  0  0  0  0
   12.9292   -2.5600    0.0000 C   0  0  0  0  0  0  0  0  0  0  0  0
   12.0632   -4.0600    0.0000 C   0  0  0  0  0  0  0  0  0  0  0  0
   13.7953   -3.0600    0.0000 C   0  0  0  0  0  0  0  0  0  0  0  0
   13.7953   -4.0600    0.0000 C   0  0  0  0  0  0  0  0  0  0  0  0
   12.9292   -4.5600    0.0000 C   0  0  0  0  0  0  0  0  0  0  0  0
    9.4651   -5.5600    0.0000 C   0  0  0  0  0  0  0  0  0  0  0  0
    8.5991   -4.0600    0.0000 C   0  0  0  0  0  0  0  0  0  0  0  0
   15.3251   -3.5600    0.0000 C   0  0  0  0  0  0  0  0  0  0  0  0
    8.5991   -6.0600    0.0000 C   0  0  0  0  0  0  0  0  0  0  0  0
    7.7331   -4.5600    0.0000 C   0  0  0  0  0  0  0  0  0  0  0  0
    6.3301    2.2500    0.0000 H   0  0  0  0  0  0  0  0  0  0  0  0
    8.3437    1.3323    0.0000 H   0  0  0  0  0  0  0  0  0  0  0  0
    7.9451    2.0226    0.0000 H   0  0  0  0  0  0  0  0  0  0  0  0
    8.1316    3.9150    0.0000 H   0  0  0  0  0  0  0  0  0  0  0  0
    7.3346    3.9150    0.0000 H   0  0  0  0  0  0  0  0  0  0  0  0
    8.2006    2.4651    0.0000 H   0  0  0  0  0  0  0  0  0  0  0  0
    8.9976    2.4651    0.0000 H   0  0  0  0  0  0  0  0  0  0  0  0
    7.1225    0.5477    0.0000 H   0  0  0  0  0  0  0  0  0  0  0  0
    7.5210   -0.1426    0.0000 H   0  0  0  0  0  0  0  0  0  0  0  0
    5.7890    2.0226    0.0000 H   0  0  0  0  0  0  0  0  0  0  0  0
    5.3905    1.3323    0.0000 H   0  0  0  0  0  0  0  0  0  0  0  0
   10.0021    3.7500    0.0000 H   0  0  0  0  0  0  0  0  0  0  0  0
    9.2097   -0.1677    0.0000 H   0  0  0  0  0  0  0  0  0  0  0  0
    8.8112    0.5226    0.0000 H   0  0  0  0  0  0  0  0  0  0  0  0
    7.9885   -0.9523    0.0000 H   0  0  0  0  0  0  0  0  0  0  0  0
    8.3871   -1.6426    0.0000 H   0  0  0  0  0  0  0  0  0  0  0  0
   10.0212    2.4031    0.0000 H   0  0  0  0  0  0  0  0  0  0  0  0
   10.8681    2.6300    0.0000 H   0  0  0  0  0  0  0  0  0  0  0  0
   10.6412    3.4769    0.0000 H   0  0  0  0  0  0  0  0  0  0  0  0
   10.0851    4.4400    0.0000 H   0  0  0  0  0  0  0  0  0  0  0  0
    9.4651    5.0600    0.0000 H   0  0  0  0  0  0  0  0  0  0  0  0
    8.8451    4.4400    0.0000 H   0  0  0  0  0  0  0  0  0  0  0  0
    5.4641    0.1300    0.0000 H   0  0  0  0  0  0  0  0  0  0  0  0
    5.6720    5.2500    0.0000 H   0  0  0  0  0  0  0  0  0  0  0  0
    4.2690    2.8200    0.0000 H   0  0  0  0  0  0  0  0  0  0  0  0
   10.0021   -1.2500    0.0000 H   0  0  0  0  0  0  0  0  0  0  0  0
    4.2690    6.0600    0.0000 H   0  0  0  0  0  0  0  0  0  0  0  0
    2.8660    3.6300    0.0000 H   0  0  0  0  0  0  0  0  0  0  0  0
   11.5957   -2.0850    0.0000 H   0  0  0  0  0  0  0  0  0  0  0  0
   10.7987   -2.0850    0.0000 H   0  0  0  0  0  0  0  0  0  0  0  0
   10.5432   -4.6426    0.0000 H   0  0  0  0  0  0  0  0  0  0  0  0
   10.9417   -3.9523    0.0000 H   0  0  0  0  0  0  0  0  0  0  0  0
    2.5369    6.0600    0.0000 H   0  0  0  0  0  0  0  0  0  0  0  0
    2.0000    5.1300    0.0000 H   0  0  0  0  0  0  0  0  0  0  0  0
   12.9292   -1.9400    0.0000 H   0  0  0  0  0  0  0  0  0  0  0  0
   11.5263   -4.3700    0.0000 H   0  0  0  0  0  0  0  0  0  0  0  0
   12.9292   -5.1800    0.0000 H   0  0  0  0  0  0  0  0  0  0  0  0
   10.0021   -5.8700    0.0000 H   0  0  0  0  0  0  0  0  0  0  0  0
    8.5991   -3.4400    0.0000 H   0  0  0  0  0  0  0  0  0  0  0  0
   15.7860   -3.9747    0.0000 H   0  0  0  0  0  0  0  0  0  0  0  0
   15.7860   -3.1453    0.0000 H   0  0  0  0  0  0  0  0  0  0  0  0
    8.5991   -6.6800    0.0000 H   0  0  0  0  0  0  0  0  0  0  0  0
    7.1962   -4.2500    0.0000 H   0  0  0  0  0  0  0  0  0  0  0  0
  1  3  2  0  0  0  0
  1  4  2  0  0  0  0
  1  8  1  0  0  0  0
  1 21  1  0  0  0  0
  2 18  1  0  0  0  0
  2 67  1  0  0  0  0
  5 29  2  0  0  0  0
  6 37  1  0  0  0  0
  6 42  1  0  0  0  0
  7 38  1  0  0  0  0
  7 42  1  0  0  0  0
 13  8  1  1  0  0  0
  8 15  1  0  0  0  0
  9 22  1  0  0  0  0
  9 29  1  0  0  0  0
  9 70  1  0  0  0  0
 10 29  1  0  0  0  0
 10 31  1  0  0  0  0
 10 32  1  0  0  0  0
 11 30  1  0  0  0  0
 11 77  1  0  0  0  0
 11 78  1  0  0  0  0
 12 43  2  0  0  0  0
 12 44  1  0  0  0  0
 13 14  1  0  0  0  0
 13 18  1  0  0  0  0
 13 45  1  0  0  0  0
 14 17  1  0  0  0  0
 14 46  1  0  0  0  0
 14 47  1  0  0  0  0
 15 16  1  0  0  0  0
 15 48  1  0  0  0  0
 15 49  1  0  0  0  0
 16 19  1  0  0  0  0
 16 50  1  0  0  0  0
 16 51  1  0  0  0  0
 17 20  1  0  0  0  0
 17 52  1  0  0  0  0
 17 53  1  0  0  0  0
 18 54  1  0  0  0  0
 18 55  1  0  0  0  0
 19 23  1  0  0  0  0
 19 24  1  0  0  0  0
 19 56  1  0  0  0  0
 20 22  1  0  0  0  0
 20 57  1  0  0  0  0
 20 58  1  0  0  0  0
 21 25  2  0  0  0  0
 21 26  1  0  0  0  0
 22 59  1  0  0  0  0
 22 60  1  0  0  0  0
 23 61  1  0  0  0  0
 23 62  1  0  0  0  0
 23 63  1  0  0  0  0
 24 64  1  0  0  0  0
 24 65  1  0  0  0  0
 24 66  1  0  0  0  0
 25 27  1  0  0  0  0
 25 68  1  0  0  0  0
 26 28  2  0  0  0  0
 26 69  1  0  0  0  0
 27 30  2  0  0  0  0
 27 71  1  0  0  0  0
 28 30  1  0  0  0  0
 28 72  1  0  0  0  0
 31 33  1  0  0  0  0
 31 73  1  0  0  0  0
 31 74  1  0  0  0  0
 32 34  1  0  0  0  0
 32 75  1  0  0  0  0
 32 76  1  0  0  0  0
 33 35  2  0  0  0  0
 33 36  1  0  0  0  0
 34 40  2  0  0  0  0
 34 41  1  0  0  0  0
 35 37  1  0  0  0  0
 35 79  1  0  0  0  0
 36 39  2  0  0  0  0
 36 80  1  0  0  0  0
 37 38  2  0  0  0  0
 38 39  1  0  0  0  0
 39 81  1  0  0  0  0
 40 43  1  0  0  0  0
 40 82  1  0  0  0  0
 41 44  2  0  0  0  0
 41 83  1  0  0  0  0
 42 84  1  0  0  0  0
 42 85  1  0  0  0  0
 43 86  1  0  0  0  0
 44 87  1  0  0  0  0
M  END
> <PUBCHEM_COMPOUND_CID>
513806
> <PUBCHEM_COMPOUND_CANONICALIZED>
1
> <PUBCHEM_CACTVS_COMPLEXITY>
951
> <PUBCHEM_CACTVS_HBOND_ACCEPTOR>
9
> <PUBCHEM_CACTVS_HBOND_DONOR>
3
> <PUBCHEM_CACTVS_ROTATABLE_BOND>
16
> <PUBCHEM_CACTVS_SUBSKEYS>
AAADcfB/uABAAAAAAAAAAAAAAAAAASAAAAA8YIAAAAAAAEgB0AAAHgQQSAAADSzh2gc/z5PIFgKoAjRnVHDCiDAxIiAI2Lg+7JifNmLEsZukcCps1hPe6Aew0BIOIAQBAAAAQABACAIAAACAAAAAAAAAAA==
> <PUBCHEM_IUPAC_OPENEYE_NAME>
3-[(5S)-5-[(4-aminophenyl)sulfonyl-isopentyl-amino]-6-hydroxy-hexyl]-1-(1,3-benzodioxol-5-ylmethyl)-1-(4-pyridylmethyl)urea
> <PUBCHEM_IUPAC_CAS_NAME>
3-[(5S)-5-[(4-aminophenyl)sulfonyl-(3-methylbutyl)amino]-6-hydroxyhexyl]-1-(1,3-benzodioxol-5-ylmethyl)-1-(pyridin-4-ylmethyl)urea
> <PUBCHEM_IUPAC_NAME_MARKUP>
3-[(5<I>S</I>)-5-[(4-aminophenyl)sulfonyl-(3-methylbutyl)amino]-6-hydroxyhexyl]-1-(1,3-benzodioxol-5-ylmethyl)-1-(pyridin-4-ylmethyl)urea
> <PUBCHEM_IUPAC_NAME>
3-[(5S)-5-[(4-aminophenyl)sulfonyl-(3-methylbutyl)amino]-6-hydroxyhexyl]-1-(1,3-benzodioxol-5-ylmethyl)-1-(pyridin-4-ylmethyl)urea
> <PUBCHEM_IUPAC_SYSTEMATIC_NAME>
3-[(5S)-5-[(4-aminophenyl)sulfonyl-(3-methylbutyl)amino]-6-oxidanyl-hexyl]-1-(1,3-benzodioxol-5-ylmethyl)-1-(pyridin-4-ylmethyl)urea
> <PUBCHEM_IUPAC_TRADITIONAL_NAME>
3-[(5S)-6-hydroxy-5-[isoamyl(sulfanilyl)amino]hexyl]-1-piperonyl-1-(4-pyridylmethyl)urea
> <PUBCHEM_IUPAC_INCHI>
InChI=1S/C32H43N5O6S/c1-24(2)14-18-37(44(40,41)29-9-7-27(33)8-10-29)28(22-38)5-3-4-15-35-32(39)36(20-25-12-16-34-17-13-25)21-26-6-11-30-31(19-26)43-23-42-30/h6-13,16-17,19,24,28,38H,3-5,14-15,18,20-23,33H2,1-2H3,(H,35,39)/t28-/m0/s1
> <PUBCHEM_IUPAC_INCHIKEY>
XTWJHVDQNSJUPH-NDEPHWFRSA-N
> <PUBCHEM_XLOGP3_AA>
3.6
> <PUBCHEM_EXACT_MASS>
625.29340528
> <PUBCHEM_MOLECULAR_FORMULA>
C32H43N5O6S
> <PUBCHEM_MOLECULAR_WEIGHT>
625.8
> <PUBCHEM_OPENEYE_CAN_SMILES>
CC(C)CCN(C(CCCCNC(=O)N(CC1=CC=NC=C1)CC2=CC3=C(C=C2)OCO3)CO)S(=O)(=O)C4=CC=C(C=C4)N
> <PUBCHEM_OPENEYE_ISO_SMILES>
CC(C)CCN([C@@H](CCCCNC(=O)N(CC1=CC=NC=C1)CC2=CC3=C(C=C2)OCO3)CO)S(=O)(=O)C4=CC=C(C=C4)N
> <PUBCHEM_CACTVS_TPSA>
156
> <PUBCHEM_MONOISOTOPIC_WEIGHT>
625.29340528
> <PUBCHEM_TOTAL_CHARGE>
0
> <PUBCHEM_HEAVY_ATOM_COUNT>
44
> <PUBCHEM_ATOM_DEF_STEREO_COUNT>
1
> <PUBCHEM_ATOM_UDEF_STEREO_COUNT>
0
> <PUBCHEM_BOND_DEF_STEREO_COUNT>
0
> <PUBCHEM_BOND_UDEF_STEREO_COUNT>
0
> <PUBCHEM_ISOTOPIC_ATOM_COUNT>
0
> <PUBCHEM_COMPONENT_COUNT>
1
> <PUBCHEM_CACTVS_TAUTO_COUNT>
-1
> <PUBCHEM_COORDINATE_TYPE>
1
5
255
> <PUBCHEM_BONDANNOTATIONS>
12  43  8
12  44  8
21  25  8
21  26  8
25  27  8
26  28  8
27  30  8
28  30  8
33  35  8
33  36  8
34  40  8
34  41  8
35  37  8
36  39  8
37  38  8
38  39  8
40  43  8
41  44  8
13  8  5
$$$$
