513821
  -OEChem-10302200282D
 92 95  0     1  0  0  0  0  0999 V2000
    6.0010    3.4400    0.0000 S   0  0  0  0  0  0  0  0  0  0  0  0
    6.0010    0.4400    0.0000 O   0  0  0  0  0  0  0  0  0  0  0  0
    6.5010    4.3060    0.0000 O   0  0  0  0  0  0  0  0  0  0  0  0
    5.5010    2.5740    0.0000 O   0  0  0  0  0  0  0  0  0  0  0  0
    8.5991   -3.0600    0.0000 O   0  0  0  0  0  0  0  0  0  0  0  0
   14.7415   -2.7553    0.0000 O   0  0  0  0  0  0  0  0  0  0  0  0
   14.7415   -4.3647    0.0000 O   0  0  0  0  0  0  0  0  0  0  0  0
    6.8671   -4.0600    0.0000 O   0  0  0  0  0  0  0  0  0  0  0  0
    6.8671    2.9400    0.0000 N   0  0  3  0  0  0  0  0  0  0  0  0
    9.4651   -1.5600    0.0000 N   0  0  0  0  0  0  0  0  0  0  0  0
   10.3312   -3.0600    0.0000 N   0  0  0  0  0  0  0  0  0  0  0  0
    2.5369    5.4400    0.0000 N   0  0  0  0  0  0  0  0  0  0  0  0
    6.8671    1.9400    0.0000 C   0  0  1  0  0  0  0  0  0  0  0  0
    7.7331    1.4400    0.0000 C   0  0  0  0  0  0  0  0  0  0  0  0
    7.7331    3.4400    0.0000 C   0  0  0  0  0  0  0  0  0  0  0  0
    8.5991    2.9400    0.0000 C   0  0  0  0  0  0  0  0  0  0  0  0
    7.7331    0.4400    0.0000 C   0  0  0  0  0  0  0  0  0  0  0  0
    6.0010    1.4400    0.0000 C   0  0  0  0  0  0  0  0  0  0  0  0
    9.4651    3.4400    0.0000 C   0  0  0  0  0  0  0  0  0  0  0  0
    8.5991   -0.0600    0.0000 C   0  0  0  0  0  0  0  0  0  0  0  0
    5.1350    3.9400    0.0000 C   0  0  0  0  0  0  0  0  0  0  0  0
    8.5991   -1.0600    0.0000 C   0  0  0  0  0  0  0  0  0  0  0  0
   10.3312    2.9400    0.0000 C   0  0  0  0  0  0  0  0  0  0  0  0
    9.4651    4.4400    0.0000 C   0  0  0  0  0  0  0  0  0  0  0  0
    5.1350    4.9400    0.0000 C   0  0  0  0  0  0  0  0  0  0  0  0
    4.2690    3.4400    0.0000 C   0  0  0  0  0  0  0  0  0  0  0  0
    4.2690    5.4400    0.0000 C   0  0  0  0  0  0  0  0  0  0  0  0
    3.4030    3.9400    0.0000 C   0  0  0  0  0  0  0  0  0  0  0  0
    9.4651   -2.5600    0.0000 C   0  0  0  0  0  0  0  0  0  0  0  0
    3.4030    4.9400    0.0000 C   0  0  0  0  0  0  0  0  0  0  0  0
   11.1972   -2.5600    0.0000 C   0  0  0  0  0  0  0  0  0  0  0  0
   10.3312   -4.0600    0.0000 C   0  0  0  0  0  0  0  0  0  0  0  0
   12.0632   -3.0600    0.0000 C   0  0  0  0  0  0  0  0  0  0  0  0
    9.4651   -4.5600    0.0000 C   0  0  0  0  0  0  0  0  0  0  0  0
   12.9292   -2.5600    0.0000 C   0  0  0  0  0  0  0  0  0  0  0  0
   12.0632   -4.0600    0.0000 C   0  0  0  0  0  0  0  0  0  0  0  0
   13.7953   -3.0600    0.0000 C   0  0  0  0  0  0  0  0  0  0  0  0
    8.5991   -4.0600    0.0000 C   0  0  0  0  0  0  0  0  0  0  0  0
    9.4651   -5.5600    0.0000 C   0  0  0  0  0  0  0  0  0  0  0  0
   13.7953   -4.0600    0.0000 C   0  0  0  0  0  0  0  0  0  0  0  0
   12.9292   -4.5600    0.0000 C   0  0  0  0  0  0  0  0  0  0  0  0
    7.7331   -4.5600    0.0000 C   0  0  0  0  0  0  0  0  0  0  0  0
    8.5991   -6.0600    0.0000 C   0  0  0  0  0  0  0  0  0  0  0  0
   15.3251   -3.5600    0.0000 C   0  0  0  0  0  0  0  0  0  0  0  0
    7.7331   -5.5600    0.0000 C   0  0  0  0  0  0  0  0  0  0  0  0
    6.0010   -4.5600    0.0000 C   0  0  0  0  0  0  0  0  0  0  0  0
    6.3301    2.2500    0.0000 H   0  0  0  0  0  0  0  0  0  0  0  0
    8.3437    1.3323    0.0000 H   0  0  0  0  0  0  0  0  0  0  0  0
    7.9451    2.0226    0.0000 H   0  0  0  0  0  0  0  0  0  0  0  0
    8.1316    3.9150    0.0000 H   0  0  0  0  0  0  0  0  0  0  0  0
    7.3346    3.9150    0.0000 H   0  0  0  0  0  0  0  0  0  0  0  0
    8.2006    2.4651    0.0000 H   0  0  0  0  0  0  0  0  0  0  0  0
    8.9976    2.4651    0.0000 H   0  0  0  0  0  0  0  0  0  0  0  0
    7.1225    0.5477    0.0000 H   0  0  0  0  0  0  0  0  0  0  0  0
    7.5210   -0.1426    0.0000 H   0  0  0  0  0  0  0  0  0  0  0  0
    5.7890    2.0226    0.0000 H   0  0  0  0  0  0  0  0  0  0  0  0
    5.3905    1.3323    0.0000 H   0  0  0  0  0  0  0  0  0  0  0  0
   10.0021    3.7500    0.0000 H   0  0  0  0  0  0  0  0  0  0  0  0
    9.2097   -0.1677    0.0000 H   0  0  0  0  0  0  0  0  0  0  0  0
    8.8112    0.5226    0.0000 H   0  0  0  0  0  0  0  0  0  0  0  0
    7.9885   -0.9523    0.0000 H   0  0  0  0  0  0  0  0  0  0  0  0
    8.3871   -1.6426    0.0000 H   0  0  0  0  0  0  0  0  0  0  0  0
   10.0212    2.4031    0.0000 H   0  0  0  0  0  0  0  0  0  0  0  0
   10.8681    2.6300    0.0000 H   0  0  0  0  0  0  0  0  0  0  0  0
   10.6412    3.4769    0.0000 H   0  0  0  0  0  0  0  0  0  0  0  0
   10.0851    4.4400    0.0000 H   0  0  0  0  0  0  0  0  0  0  0  0
    9.4651    5.0600    0.0000 H   0  0  0  0  0  0  0  0  0  0  0  0
    8.8451    4.4400    0.0000 H   0  0  0  0  0  0  0  0  0  0  0  0
    5.4641    0.1300    0.0000 H   0  0  0  0  0  0  0  0  0  0  0  0
    5.6720    5.2500    0.0000 H   0  0  0  0  0  0  0  0  0  0  0  0
    4.2690    2.8200    0.0000 H   0  0  0  0  0  0  0  0  0  0  0  0
   10.0021   -1.2500    0.0000 H   0  0  0  0  0  0  0  0  0  0  0  0
    4.2690    6.0600    0.0000 H   0  0  0  0  0  0  0  0  0  0  0  0
    2.8660    3.6300    0.0000 H   0  0  0  0  0  0  0  0  0  0  0  0
   11.5957   -2.0850    0.0000 H   0  0  0  0  0  0  0  0  0  0  0  0
   10.7987   -2.0850    0.0000 H   0  0  0  0  0  0  0  0  0  0  0  0
   10.5432   -4.6426    0.0000 H   0  0  0  0  0  0  0  0  0  0  0  0
   10.9417   -3.9523    0.0000 H   0  0  0  0  0  0  0  0  0  0  0  0
    2.5369    6.0600    0.0000 H   0  0  0  0  0  0  0  0  0  0  0  0
    2.0000    5.1300    0.0000 H   0  0  0  0  0  0  0  0  0  0  0  0
   12.9292   -1.9400    0.0000 H   0  0  0  0  0  0  0  0  0  0  0  0
   11.5263   -4.3700    0.0000 H   0  0  0  0  0  0  0  0  0  0  0  0
    8.5991   -3.4400    0.0000 H   0  0  0  0  0  0  0  0  0  0  0  0
   10.0021   -5.8700    0.0000 H   0  0  0  0  0  0  0  0  0  0  0  0
   12.9292   -5.1800    0.0000 H   0  0  0  0  0  0  0  0  0  0  0  0
    8.5991   -6.6800    0.0000 H   0  0  0  0  0  0  0  0  0  0  0  0
   15.7860   -3.9747    0.0000 H   0  0  0  0  0  0  0  0  0  0  0  0
   15.7860   -3.1453    0.0000 H   0  0  0  0  0  0  0  0  0  0  0  0
    7.1962   -5.8700    0.0000 H   0  0  0  0  0  0  0  0  0  0  0  0
    5.6910   -4.0231    0.0000 H   0  0  0  0  0  0  0  0  0  0  0  0
    5.4641   -4.8700    0.0000 H   0  0  0  0  0  0  0  0  0  0  0  0
    6.3110   -5.0969    0.0000 H   0  0  0  0  0  0  0  0  0  0  0  0
  1  3  2  0  0  0  0
  1  4  2  0  0  0  0
  1  9  1  0  0  0  0
  1 21  1  0  0  0  0
  2 18  1  0  0  0  0
  2 69  1  0  0  0  0
  5 29  2  0  0  0  0
  6 37  1  0  0  0  0
  6 44  1  0  0  0  0
  7 40  1  0  0  0  0
  7 44  1  0  0  0  0
  8 42  1  0  0  0  0
  8 46  1  0  0  0  0
 13  9  1  1  0  0  0
  9 15  1  0  0  0  0
 10 22  1  0  0  0  0
 10 29  1  0  0  0  0
 10 72  1  0  0  0  0
 11 29  1  0  0  0  0
 11 31  1  0  0  0  0
 11 32  1  0  0  0  0
 12 30  1  0  0  0  0
 12 79  1  0  0  0  0
 12 80  1  0  0  0  0
 13 14  1  0  0  0  0
 13 18  1  0  0  0  0
 13 47  1  0  0  0  0
 14 17  1  0  0  0  0
 14 48  1  0  0  0  0
 14 49  1  0  0  0  0
 15 16  1  0  0  0  0
 15 50  1  0  0  0  0
 15 51  1  0  0  0  0
 16 19  1  0  0  0  0
 16 52  1  0  0  0  0
 16 53  1  0  0  0  0
 17 20  1  0  0  0  0
 17 54  1  0  0  0  0
 17 55  1  0  0  0  0
 18 56  1  0  0  0  0
 18 57  1  0  0  0  0
 19 23  1  0  0  0  0
 19 24  1  0  0  0  0
 19 58  1  0  0  0  0
 20 22  1  0  0  0  0
 20 59  1  0  0  0  0
 20 60  1  0  0  0  0
 21 25  2  0  0  0  0
 21 26  1  0  0  0  0
 22 61  1  0  0  0  0
 22 62  1  0  0  0  0
 23 63  1  0  0  0  0
 23 64  1  0  0  0  0
 23 65  1  0  0  0  0
 24 66  1  0  0  0  0
 24 67  1  0  0  0  0
 24 68  1  0  0  0  0
 25 27  1  0  0  0  0
 25 70  1  0  0  0  0
 26 28  2  0  0  0  0
 26 71  1  0  0  0  0
 27 30  2  0  0  0  0
 27 73  1  0  0  0  0
 28 30  1  0  0  0  0
 28 74  1  0  0  0  0
 31 33  1  0  0  0  0
 31 75  1  0  0  0  0
 31 76  1  0  0  0  0
 32 34  1  0  0  0  0
 32 77  1  0  0  0  0
 32 78  1  0  0  0  0
 33 35  2  0  0  0  0
 33 36  1  0  0  0  0
 34 38  2  0  0  0  0
 34 39  1  0  0  0  0
 35 37  1  0  0  0  0
 35 81  1  0  0  0  0
 36 41  2  0  0  0  0
 36 82  1  0  0  0  0
 37 40  2  0  0  0  0
 38 42  1  0  0  0  0
 38 83  1  0  0  0  0
 39 43  2  0  0  0  0
 39 84  1  0  0  0  0
 40 41  1  0  0  0  0
 41 85  1  0  0  0  0
 42 45  2  0  0  0  0
 43 45  1  0  0  0  0
 43 86  1  0  0  0  0
 44 87  1  0  0  0  0
 44 88  1  0  0  0  0
 45 89  1  0  0  0  0
 46 90  1  0  0  0  0
 46 91  1  0  0  0  0
 46 92  1  0  0  0  0
M  END
> <PUBCHEM_COMPOUND_CID>
513821
> <PUBCHEM_COMPOUND_CANONICALIZED>
1
> <PUBCHEM_CACTVS_COMPLEXITY>
1000
> <PUBCHEM_CACTVS_HBOND_ACCEPTOR>
9
> <PUBCHEM_CACTVS_HBOND_DONOR>
3
> <PUBCHEM_CACTVS_ROTATABLE_BOND>
17
> <PUBCHEM_CACTVS_SUBSKEYS>
AAADcfB/uABAAAAAAAAAAAAAAAAAASAAAAAwYMAAAAAAAEgBUAAAHgQQSAAADSzh2Aczz4PABgKIAiRCUHDCCBAgIgAIiJgO7IifNiKEsZukcCps1hOe6Aew0BIOIAQBAAAAQABACAIAAACAAAAAAAAAAA==
> <PUBCHEM_IUPAC_OPENEYE_NAME>
3-[(5S)-5-[(4-aminophenyl)sulfonyl-isopentyl-amino]-6-hydroxy-hexyl]-1-(1,3-benzodioxol-5-ylmethyl)-1-[(3-methoxyphenyl)methyl]urea
> <PUBCHEM_IUPAC_CAS_NAME>
3-[(5S)-5-[(4-aminophenyl)sulfonyl-(3-methylbutyl)amino]-6-hydroxyhexyl]-1-(1,3-benzodioxol-5-ylmethyl)-1-[(3-methoxyphenyl)methyl]urea
> <PUBCHEM_IUPAC_NAME_MARKUP>
3-[(5<I>S</I>)-5-[(4-aminophenyl)sulfonyl-(3-methylbutyl)amino]-6-hydroxyhexyl]-1-(1,3-benzodioxol-5-ylmethyl)-1-[(3-methoxyphenyl)methyl]urea
> <PUBCHEM_IUPAC_NAME>
3-[(5S)-5-[(4-aminophenyl)sulfonyl-(3-methylbutyl)amino]-6-hydroxyhexyl]-1-(1,3-benzodioxol-5-ylmethyl)-1-[(3-methoxyphenyl)methyl]urea
> <PUBCHEM_IUPAC_SYSTEMATIC_NAME>
3-[(5S)-5-[(4-aminophenyl)sulfonyl-(3-methylbutyl)amino]-6-oxidanyl-hexyl]-1-(1,3-benzodioxol-5-ylmethyl)-1-[(3-methoxyphenyl)methyl]urea
> <PUBCHEM_IUPAC_TRADITIONAL_NAME>
3-[(5S)-6-hydroxy-5-[isoamyl(sulfanilyl)amino]hexyl]-1-m-anisyl-1-piperonyl-urea
> <PUBCHEM_IUPAC_INCHI>
InChI=1S/C34H46N4O7S/c1-25(2)16-18-38(46(41,42)31-13-11-28(35)12-14-31)29(23-39)8-4-5-17-36-34(40)37(21-26-7-6-9-30(19-26)43-3)22-27-10-15-32-33(20-27)45-24-44-32/h6-7,9-15,19-20,25,29,39H,4-5,8,16-18,21-24,35H2,1-3H3,(H,36,40)/t29-/m0/s1
> <PUBCHEM_IUPAC_INCHIKEY>
LUFAPAHVZKKIAU-LJAQVGFWSA-N
> <PUBCHEM_XLOGP3_AA>
4.6
> <PUBCHEM_EXACT_MASS>
654.30872099
> <PUBCHEM_MOLECULAR_FORMULA>
C34H46N4O7S
> <PUBCHEM_MOLECULAR_WEIGHT>
654.8
> <PUBCHEM_OPENEYE_CAN_SMILES>
CC(C)CCN(C(CCCCNC(=O)N(CC1=CC(=CC=C1)OC)CC2=CC3=C(C=C2)OCO3)CO)S(=O)(=O)C4=CC=C(C=C4)N
> <PUBCHEM_OPENEYE_ISO_SMILES>
CC(C)CCN([C@@H](CCCCNC(=O)N(CC1=CC(=CC=C1)OC)CC2=CC3=C(C=C2)OCO3)CO)S(=O)(=O)C4=CC=C(C=C4)N
> <PUBCHEM_CACTVS_TPSA>
152
> <PUBCHEM_MONOISOTOPIC_WEIGHT>
654.30872099
> <PUBCHEM_TOTAL_CHARGE>
0
> <PUBCHEM_HEAVY_ATOM_COUNT>
46
> <PUBCHEM_ATOM_DEF_STEREO_COUNT>
1
> <PUBCHEM_ATOM_UDEF_STEREO_COUNT>
0
> <PUBCHEM_BOND_DEF_STEREO_COUNT>
0
> <PUBCHEM_BOND_UDEF_STEREO_COUNT>
0
> <PUBCHEM_ISOTOPIC_ATOM_COUNT>
0
> <PUBCHEM_COMPONENT_COUNT>
1
> <PUBCHEM_CACTVS_TAUTO_COUNT>
-1
> <PUBCHEM_COORDINATE_TYPE>
1
5
255
> <PUBCHEM_BONDANNOTATIONS>
21  25  8
21  26  8
25  27  8
26  28  8
27  30  8
28  30  8
33  35  8
33  36  8
34  38  8
34  39  8
35  37  8
36  41  8
37  40  8
38  42  8
39  43  8
40  41  8
42  45  8
43  45  8
13  9  5
$$$$
