513880
  -OEChem-10302200282D
 81 84  0     1  0  0  0  0  0999 V2000
    3.4051   -1.7710    0.0000 S   0  0  0  0  0  0  0  0  0  0  0  0
    4.2768   -1.2811    0.0000 O   0  0  0  0  0  0  0  0  0  0  0  0
    4.2607   -3.3727    0.0000 O   0  0  0  0  0  0  0  0  0  0  0  0
    2.5333   -2.2610    0.0000 O   0  0  0  0  0  0  0  0  0  0  0  0
    2.9151   -0.8993    0.0000 O   0  0  0  0  0  0  0  0  0  0  0  0
    3.8950   -2.6428    0.0000 O   0  0  0  0  0  0  0  0  0  0  0  0
    9.6538   -0.3204    0.0000 C   0  0  1  0  0  0  0  0  0  0  0  0
    9.6538   -1.3204    0.0000 C   0  0  3  0  0  0  0  0  0  0  0  0
    8.7878   -1.8204    0.0000 C   0  0  3  0  0  0  0  0  0  0  0  0
    7.9217   -1.3204    0.0000 C   0  0  3  0  0  0  0  0  0  0  0  0
    7.0117   -1.8272    0.0000 C   0  0  2  0  0  0  0  0  0  0  0  0
   10.6000   -0.0156    0.0000 C   0  0  2  0  0  0  0  0  0  0  0  0
    7.0037   -2.8688    0.0000 C   0  0  1  0  0  0  0  0  0  0  0  0
    8.7878    0.1796    0.0000 C   0  0  0  0  0  0  0  0  0  0  0  0
    7.9217   -0.3204    0.0000 C   0  0  0  0  0  0  0  0  0  0  0  0
   10.6000   -1.6251    0.0000 C   0  0  0  0  0  0  0  0  0  0  0  0
    8.8038   -2.8619    0.0000 C   0  0  0  0  0  0  0  0  0  0  0  0
   11.1836   -0.8204    0.0000 C   0  0  0  0  0  0  0  0  0  0  0  0
    7.9058   -3.3896    0.0000 C   0  0  0  0  0  0  0  0  0  0  0  0
    6.0849   -1.2631    0.0000 C   0  0  0  0  0  0  0  0  0  0  0  0
    9.6538    0.6796    0.0000 C   0  0  0  0  0  0  0  0  0  0  0  0
   10.9107    0.9349    0.0000 C   0  0  1  0  0  0  0  0  0  0  0  0
    6.0683   -3.4185    0.0000 C   0  0  0  0  0  0  0  0  0  0  0  0
    7.0194   -0.8272    0.0000 C   0  0  0  0  0  0  0  0  0  0  0  0
    5.1370   -1.7911    0.0000 C   0  0  1  0  0  0  0  0  0  0  0  0
    5.1286   -2.8760    0.0000 C   0  0  1  0  0  0  0  0  0  0  0  0
   11.8892    1.1411    0.0000 C   0  0  0  0  0  0  0  0  0  0  0  0
   10.2428    1.6792    0.0000 C   0  0  0  0  0  0  0  0  0  0  0  0
   12.1998    2.0916    0.0000 C   0  0  0  0  0  0  0  0  0  0  0  0
   13.1783    2.2979    0.0000 C   0  0  0  0  0  0  0  0  0  0  0  0
   13.4890    3.2484    0.0000 C   0  0  0  0  0  0  0  0  0  0  0  0
   14.4675    3.4546    0.0000 C   0  0  0  0  0  0  0  0  0  0  0  0
   12.8211    3.9927    0.0000 C   0  0  0  0  0  0  0  0  0  0  0  0
    9.7194   -1.9369    0.0000 H   0  0  0  0  0  0  0  0  0  0  0  0
    9.3271   -2.1262    0.0000 H   0  0  0  0  0  0  0  0  0  0  0  0
    8.4587   -1.0104    0.0000 H   0  0  0  0  0  0  0  0  0  0  0  0
   11.4397    0.1163    0.0000 H   0  0  0  0  0  0  0  0  0  0  0  0
    7.0070   -3.7188    0.0000 H   0  0  0  0  0  0  0  0  0  0  0  0
    9.1863    0.6546    0.0000 H   0  0  0  0  0  0  0  0  0  0  0  0
    8.3892    0.6546    0.0000 H   0  0  0  0  0  0  0  0  0  0  0  0
    7.7097    0.2623    0.0000 H   0  0  0  0  0  0  0  0  0  0  0  0
    7.3111   -0.4280    0.0000 H   0  0  0  0  0  0  0  0  0  0  0  0
   10.3490   -2.1920    0.0000 H   0  0  0  0  0  0  0  0  0  0  0  0
   11.1374   -1.9343    0.0000 H   0  0  0  0  0  0  0  0  0  0  0  0
    9.0218   -3.4423    0.0000 H   0  0  0  0  0  0  0  0  0  0  0  0
    9.4130   -2.7464    0.0000 H   0  0  0  0  0  0  0  0  0  0  0  0
   11.6445   -1.2351    0.0000 H   0  0  0  0  0  0  0  0  0  0  0  0
   11.6445   -0.4056    0.0000 H   0  0  0  0  0  0  0  0  0  0  0  0
    7.5085   -3.8656    0.0000 H   0  0  0  0  0  0  0  0  0  0  0  0
    8.3067   -3.8625    0.0000 H   0  0  0  0  0  0  0  0  0  0  0  0
    6.4931   -0.7965    0.0000 H   0  0  0  0  0  0  0  0  0  0  0  0
    5.6950   -0.7811    0.0000 H   0  0  0  0  0  0  0  0  0  0  0  0
   10.2738    0.6796    0.0000 H   0  0  0  0  0  0  0  0  0  0  0  0
    9.6538    1.2996    0.0000 H   0  0  0  0  0  0  0  0  0  0  0  0
    9.0338    0.6796    0.0000 H   0  0  0  0  0  0  0  0  0  0  0  0
   10.3040    0.8070    0.0000 H   0  0  0  0  0  0  0  0  0  0  0  0
    5.6710   -3.8945    0.0000 H   0  0  0  0  0  0  0  0  0  0  0  0
    6.4692   -3.8914    0.0000 H   0  0  0  0  0  0  0  0  0  0  0  0
    7.6394   -0.8320    0.0000 H   0  0  0  0  0  0  0  0  0  0  0  0
    7.0242   -0.2072    0.0000 H   0  0  0  0  0  0  0  0  0  0  0  0
    6.3994   -0.8224    0.0000 H   0  0  0  0  0  0  0  0  0  0  0  0
    5.1454   -1.1711    0.0000 H   0  0  0  0  0  0  0  0  0  0  0  0
    5.1274   -3.4960    0.0000 H   0  0  0  0  0  0  0  0  0  0  0  0
   11.9097    0.5215    0.0000 H   0  0  0  0  0  0  0  0  0  0  0  0
   12.5030    1.0538    0.0000 H   0  0  0  0  0  0  0  0  0  0  0  0
   10.7043    2.0933    0.0000 H   0  0  0  0  0  0  0  0  0  0  0  0
    9.8288    2.1407    0.0000 H   0  0  0  0  0  0  0  0  0  0  0  0
    9.7814    1.2651    0.0000 H   0  0  0  0  0  0  0  0  0  0  0  0
   12.1793    2.7113    0.0000 H   0  0  0  0  0  0  0  0  0  0  0  0
   11.5860    2.1790    0.0000 H   0  0  0  0  0  0  0  0  0  0  0  0
    4.2583   -3.9927    0.0000 H   0  0  0  0  0  0  0  0  0  0  0  0
   13.1989    1.6782    0.0000 H   0  0  0  0  0  0  0  0  0  0  0  0
   13.7921    2.2105    0.0000 H   0  0  0  0  0  0  0  0  0  0  0  0
   13.6816    3.8377    0.0000 H   0  0  0  0  0  0  0  0  0  0  0  0
    2.0000   -1.9448    0.0000 H   0  0  0  0  0  0  0  0  0  0  0  0
   14.5954    2.8479    0.0000 H   0  0  0  0  0  0  0  0  0  0  0  0
   15.0742    3.5824    0.0000 H   0  0  0  0  0  0  0  0  0  0  0  0
   14.3396    4.0613    0.0000 H   0  0  0  0  0  0  0  0  0  0  0  0
   13.2826    4.4067    0.0000 H   0  0  0  0  0  0  0  0  0  0  0  0
   12.4071    4.4542    0.0000 H   0  0  0  0  0  0  0  0  0  0  0  0
   12.3597    3.5786    0.0000 H   0  0  0  0  0  0  0  0  0  0  0  0
  1  2  1  0  0  0  0
  1  4  1  0  0  0  0
  1  5  2  0  0  0  0
  1  6  2  0  0  0  0
 25  2  1  1  0  0  0
 26  3  1  6  0  0  0
  3 71  1  0  0  0  0
  4 75  1  0  0  0  0
  7  8  1  0  0  0  0
  7 12  1  0  0  0  0
  7 14  1  0  0  0  0
  7 21  1  1  0  0  0
  8  9  1  0  0  0  0
  8 16  1  0  0  0  0
  8 34  1  0  0  0  0
  9 10  1  0  0  0  0
  9 17  1  0  0  0  0
  9 35  1  0  0  0  0
 10 11  1  0  0  0  0
 10 15  1  0  0  0  0
 10 36  1  0  0  0  0
 11 13  1  0  0  0  0
 11 20  1  0  0  0  0
 11 24  1  1  0  0  0
 12 18  1  0  0  0  0
 12 22  1  0  0  0  0
 12 37  1  6  0  0  0
 13 19  1  0  0  0  0
 13 23  1  0  0  0  0
 13 38  1  6  0  0  0
 14 15  1  0  0  0  0
 14 39  1  0  0  0  0
 14 40  1  0  0  0  0
 15 41  1  0  0  0  0
 15 42  1  0  0  0  0
 16 18  1  0  0  0  0
 16 43  1  0  0  0  0
 16 44  1  0  0  0  0
 17 19  1  0  0  0  0
 17 45  1  0  0  0  0
 17 46  1  0  0  0  0
 18 47  1  0  0  0  0
 18 48  1  0  0  0  0
 19 49  1  0  0  0  0
 19 50  1  0  0  0  0
 20 25  1  0  0  0  0
 20 51  1  0  0  0  0
 20 52  1  0  0  0  0
 21 53  1  0  0  0  0
 21 54  1  0  0  0  0
 21 55  1  0  0  0  0
 22 27  1  0  0  0  0
 22 28  1  6  0  0  0
 22 56  1  0  0  0  0
 23 26  1  0  0  0  0
 23 57  1  0  0  0  0
 23 58  1  0  0  0  0
 24 59  1  0  0  0  0
 24 60  1  0  0  0  0
 24 61  1  0  0  0  0
 25 26  1  0  0  0  0
 25 62  1  0  0  0  0
 26 63  1  0  0  0  0
 27 29  1  0  0  0  0
 27 64  1  0  0  0  0
 27 65  1  0  0  0  0
 28 66  1  0  0  0  0
 28 67  1  0  0  0  0
 28 68  1  0  0  0  0
 29 30  1  0  0  0  0
 29 69  1  0  0  0  0
 29 70  1  0  0  0  0
 30 31  1  0  0  0  0
 30 72  1  0  0  0  0
 30 73  1  0  0  0  0
 31 32  1  0  0  0  0
 31 33  1  0  0  0  0
 31 74  1  0  0  0  0
 32 76  1  0  0  0  0
 32 77  1  0  0  0  0
 32 78  1  0  0  0  0
 33 79  1  0  0  0  0
 33 80  1  0  0  0  0
 33 81  1  0  0  0  0
M  END
> <PUBCHEM_COMPOUND_CID>
513880
> <PUBCHEM_COMPOUND_CANONICALIZED>
1
> <PUBCHEM_CACTVS_COMPLEXITY>
791
> <PUBCHEM_CACTVS_HBOND_ACCEPTOR>
5
> <PUBCHEM_CACTVS_HBOND_DONOR>
2
> <PUBCHEM_CACTVS_ROTATABLE_BOND>
7
> <PUBCHEM_CACTVS_SUBSKEYS>
AAADcfB4OABAAAAAAAAAAAAAAAAAAYAAAAAwYMAAAAAAAGDAAAAAGgAACAAADxSggAICAAAAAoAAAAAAADAAAAAAAAAAAAAAAAABEAIAAAAAQAAEAAABAAGAwPAPgAAAAAAAAADAAAYAACCAAQAACAAAAA==
> <PUBCHEM_IUPAC_OPENEYE_NAME>
[(2S,3S,5S,10S,13R,17R)-17-[(1R)-1,5-dimethylhexyl]-3-hydroxy-10,13-dimethyl-2,3,4,5,6,7,8,9,11,12,14,15,16,17-tetradecahydro-1H-cyclopenta[a]phenanthren-2-yl] hydrogen sulfate
> <PUBCHEM_IUPAC_CAS_NAME>
sulfuric acid [(2S,3S,5S,10S,13R,17R)-3-hydroxy-10,13-dimethyl-17-[(2R)-6-methylheptan-2-yl]-2,3,4,5,6,7,8,9,11,12,14,15,16,17-tetradecahydro-1H-cyclopenta[a]phenanthren-2-yl] ester
> <PUBCHEM_IUPAC_NAME_MARKUP>
[(2<I>S</I>,3<I>S</I>,5<I>S</I>,10<I>S</I>,13<I>R</I>,17<I>R</I>)-3-hydroxy-10,13-dimethyl-17-[(2<I>R</I>)-6-methylheptan-2-yl]-2,3,4,5,6,7,8,9,11,12,14,15,16,17-tetradecahydro-1<I>H</I>-cyclopenta[a]phenanthren-2-yl] hydrogen sulfate
> <PUBCHEM_IUPAC_NAME>
[(2S,3S,5S,10S,13R,17R)-3-hydroxy-10,13-dimethyl-17-[(2R)-6-methylheptan-2-yl]-2,3,4,5,6,7,8,9,11,12,14,15,16,17-tetradecahydro-1H-cyclopenta[a]phenanthren-2-yl] hydrogen sulfate
> <PUBCHEM_IUPAC_SYSTEMATIC_NAME>
[(2S,3S,5S,10S,13R,17R)-10,13-dimethyl-17-[(2R)-6-methylheptan-2-yl]-3-oxidanyl-2,3,4,5,6,7,8,9,11,12,14,15,16,17-tetradecahydro-1H-cyclopenta[a]phenanthren-2-yl] hydrogen sulfate
> <PUBCHEM_IUPAC_TRADITIONAL_NAME>
sulfuric acid [(2S,3S,5S,10S,13R,17R)-17-[(1R)-1,5-dimethylhexyl]-3-hydroxy-10,13-dimethyl-2,3,4,5,6,7,8,9,11,12,14,15,16,17-tetradecahydro-1H-cyclopenta[a]phenanthren-2-yl] ester
> <PUBCHEM_IUPAC_INCHI>
InChI=1S/C27H48O5S/c1-17(2)7-6-8-18(3)21-11-12-22-20-10-9-19-15-24(28)25(32-33(29,30)31)16-27(19,5)23(20)13-14-26(21,22)4/h17-25,28H,6-16H2,1-5H3,(H,29,30,31)/t18-,19+,20?,21-,22?,23?,24+,25+,26-,27+/m1/s1
> <PUBCHEM_IUPAC_INCHIKEY>
QYJCRUYMSCNVHZ-FCYIINJSSA-N
> <PUBCHEM_XLOGP3_AA>
8
> <PUBCHEM_EXACT_MASS>
484.32224580
> <PUBCHEM_MOLECULAR_FORMULA>
C27H48O5S
> <PUBCHEM_MOLECULAR_WEIGHT>
484.7
> <PUBCHEM_OPENEYE_CAN_SMILES>
CC(C)CCCC(C)C1CCC2C1(CCC3C2CCC4C3(CC(C(C4)O)OS(=O)(=O)O)C)C
> <PUBCHEM_OPENEYE_ISO_SMILES>
C[C@H](CCCC(C)C)[C@H]1CCC2[C@@]1(CCC3C2CC[C@@H]4[C@@]3(C[C@@H]([C@H](C4)O)OS(=O)(=O)O)C)C
> <PUBCHEM_CACTVS_TPSA>
92.2
> <PUBCHEM_MONOISOTOPIC_WEIGHT>
484.32224580
> <PUBCHEM_TOTAL_CHARGE>
0
> <PUBCHEM_HEAVY_ATOM_COUNT>
33
> <PUBCHEM_ATOM_DEF_STEREO_COUNT>
7
> <PUBCHEM_ATOM_UDEF_STEREO_COUNT>
3
> <PUBCHEM_BOND_DEF_STEREO_COUNT>
0
> <PUBCHEM_BOND_UDEF_STEREO_COUNT>
0
> <PUBCHEM_ISOTOPIC_ATOM_COUNT>
0
> <PUBCHEM_COMPONENT_COUNT>
1
> <PUBCHEM_CACTVS_TAUTO_COUNT>
-1
> <PUBCHEM_COORDINATE_TYPE>
1
5
255
> <PUBCHEM_BONDANNOTATIONS>
10  15  3
11  24  5
12  37  6
13  38  6
25  2  5
22  28  6
26  3  6
7  21  5
8  16  3
9  17  3
$$$$
