513831
  -OEChem-10302200282D
 36 37  0     1  0  0  0  0  0999 V2000
    3.4030   -1.4050    0.0000 P   0  0  0  0  0  0  0  0  0  0  0  0
    5.1350   -1.4050    0.0000 O   0  0  0  0  0  0  0  0  0  0  0  0
    6.8671   -2.4050    0.0000 O   0  0  0  0  0  0  0  0  0  0  0  0
    2.5369   -1.9050    0.0000 O   0  0  0  0  0  0  0  0  0  0  0  0
    2.9030   -0.5390    0.0000 O   0  0  0  0  0  0  0  0  0  0  0  0
    3.9030   -2.2710    0.0000 O   0  0  0  0  0  0  0  0  0  0  0  0
    7.7331   -0.9050    0.0000 O   0  0  0  0  0  0  0  0  0  0  0  0
    6.8671    0.5950    0.0000 N   0  0  0  0  0  0  0  0  0  0  0  0
    8.5991    0.5950    0.0000 N   0  0  0  0  0  0  0  0  0  0  0  0
    9.4651    2.0950    0.0000 N   0  0  0  0  0  0  0  0  0  0  0  0
    6.0010    0.0950    0.0000 C   0  0  1  0  0  0  0  0  0  0  0  0
    6.0010   -0.9050    0.0000 C   0  0  1  0  0  0  0  0  0  0  0  0
    5.1350    0.5950    0.0000 C   0  0  0  0  0  0  0  0  0  0  0  0
    4.2690    0.0950    0.0000 C   0  0  0  0  0  0  0  0  0  0  0  0
    4.2690   -0.9050    0.0000 C   0  0  2  0  0  0  0  0  0  0  0  0
    6.8671   -1.4050    0.0000 C   0  0  0  0  0  0  0  0  0  0  0  0
    6.8671    1.5950    0.0000 C   0  0  0  0  0  0  0  0  0  0  0  0
    7.7331    0.0950    0.0000 C   0  0  0  0  0  0  0  0  0  0  0  0
    7.7331    2.0950    0.0000 C   0  0  0  0  0  0  0  0  0  0  0  0
    8.5991    1.5950    0.0000 C   0  0  0  0  0  0  0  0  0  0  0  0
    6.5380   -0.2150    0.0000 H   0  0  0  0  0  0  0  0  0  0  0  0
    6.0010   -1.5250    0.0000 H   0  0  0  0  0  0  0  0  0  0  0  0
    5.5335    1.0700    0.0000 H   0  0  0  0  0  0  0  0  0  0  0  0
    4.7365    1.0700    0.0000 H   0  0  0  0  0  0  0  0  0  0  0  0
    4.0569    0.6776    0.0000 H   0  0  0  0  0  0  0  0  0  0  0  0
    3.6584   -0.0127    0.0000 H   0  0  0  0  0  0  0  0  0  0  0  0
    4.2690   -1.5250    0.0000 H   0  0  0  0  0  0  0  0  0  0  0  0
    7.4776   -1.5127    0.0000 H   0  0  0  0  0  0  0  0  0  0  0  0
    7.0791   -0.8224    0.0000 H   0  0  0  0  0  0  0  0  0  0  0  0
    6.3301    1.9050    0.0000 H   0  0  0  0  0  0  0  0  0  0  0  0
    7.4040   -2.7150    0.0000 H   0  0  0  0  0  0  0  0  0  0  0  0
    2.0000   -1.5950    0.0000 H   0  0  0  0  0  0  0  0  0  0  0  0
    2.2830   -0.5390    0.0000 H   0  0  0  0  0  0  0  0  0  0  0  0
    7.7331    2.7150    0.0000 H   0  0  0  0  0  0  0  0  0  0  0  0
    9.4651    2.7150    0.0000 H   0  0  0  0  0  0  0  0  0  0  0  0
   10.0021    1.7850    0.0000 H   0  0  0  0  0  0  0  0  0  0  0  0
  1  4  1  0  0  0  0
  1  5  1  0  0  0  0
  1  6  2  0  0  0  0
 15  1  1  1  0  0  0
  2 12  1  0  0  0  0
  2 15  1  0  0  0  0
  3 16  1  0  0  0  0
  3 31  1  0  0  0  0
  4 32  1  0  0  0  0
  5 33  1  0  0  0  0
  7 18  2  0  0  0  0
 11  8  1  1  0  0  0
  8 17  1  0  0  0  0
  8 18  1  0  0  0  0
  9 18  1  0  0  0  0
  9 20  2  0  0  0  0
 10 20  1  0  0  0  0
 10 35  1  0  0  0  0
 10 36  1  0  0  0  0
 11 12  1  0  0  0  0
 11 13  1  0  0  0  0
 11 21  1  0  0  0  0
 12 16  1  1  0  0  0
 12 22  1  0  0  0  0
 13 14  1  0  0  0  0
 13 23  1  0  0  0  0
 13 24  1  0  0  0  0
 14 15  1  0  0  0  0
 14 25  1  0  0  0  0
 14 26  1  0  0  0  0
 15 27  1  0  0  0  0
 16 28  1  0  0  0  0
 16 29  1  0  0  0  0
 17 19  2  0  0  0  0
 17 30  1  0  0  0  0
 19 20  1  0  0  0  0
 19 34  1  0  0  0  0
M  END
> <PUBCHEM_COMPOUND_CID>
513831
> <PUBCHEM_COMPOUND_CANONICALIZED>
1
> <PUBCHEM_CACTVS_COMPLEXITY>
501
> <PUBCHEM_CACTVS_HBOND_ACCEPTOR>
6
> <PUBCHEM_CACTVS_HBOND_DONOR>
4
> <PUBCHEM_CACTVS_ROTATABLE_BOND>
3
> <PUBCHEM_CACTVS_SUBSKEYS>
AAADceBzOAIAAAAAAAAAAAAAAAAAAAAAAAAkQAAAAAAAAAAAAAAAHggQCCAACDzpgAYBAANABhCoQCJmdICAAAEAAgAIAAAYABCDEAIAgAAHQAAGFgITAAGgQAAAAAAAAAAAAAAAAAAAAAAAAAAAAAAAAA==
> <PUBCHEM_IUPAC_OPENEYE_NAME>
[(2S,5R,6S)-5-(4-amino-2-oxo-pyrimidin-1-yl)-6-(hydroxymethyl)tetrahydropyran-2-yl]phosphonic acid
> <PUBCHEM_IUPAC_CAS_NAME>
[(2S,5R,6S)-5-(4-amino-2-oxo-1-pyrimidinyl)-6-(hydroxymethyl)-2-oxanyl]phosphonic acid
> <PUBCHEM_IUPAC_NAME_MARKUP>
[(2<I>S</I>,5<I>R</I>,6<I>S</I>)-5-(4-amino-2-oxopyrimidin-1-yl)-6-(hydroxymethyl)oxan-2-yl]phosphonic acid
> <PUBCHEM_IUPAC_NAME>
[(2S,5R,6S)-5-(4-amino-2-oxopyrimidin-1-yl)-6-(hydroxymethyl)oxan-2-yl]phosphonic acid
> <PUBCHEM_IUPAC_SYSTEMATIC_NAME>
[(2S,5R,6S)-5-(4-azanyl-2-oxidanylidene-pyrimidin-1-yl)-6-(hydroxymethyl)oxan-2-yl]phosphonic acid
> <PUBCHEM_IUPAC_TRADITIONAL_NAME>
[(2S,5R,6S)-5-(4-amino-2-keto-pyrimidin-1-yl)-6-methylol-tetrahydropyran-2-yl]phosphonic acid
> <PUBCHEM_IUPAC_INCHI>
InChI=1S/C10H16N3O6P/c11-8-3-4-13(10(15)12-8)6-1-2-9(20(16,17)18)19-7(6)5-14/h3-4,6-7,9,14H,1-2,5H2,(H2,11,12,15)(H2,16,17,18)/t6-,7-,9+/m1/s1
> <PUBCHEM_IUPAC_INCHIKEY>
RARQORCIBUPPDO-BHNWBGBOSA-N
> <PUBCHEM_XLOGP3_AA>
-3
> <PUBCHEM_EXACT_MASS>
305.07767224
> <PUBCHEM_MOLECULAR_FORMULA>
C10H16N3O6P
> <PUBCHEM_MOLECULAR_WEIGHT>
305.22
> <PUBCHEM_OPENEYE_CAN_SMILES>
C1CC(OC(C1N2C=CC(=NC2=O)N)CO)P(=O)(O)O
> <PUBCHEM_OPENEYE_ISO_SMILES>
C1C[C@@H](O[C@@H]([C@@H]1N2C=CC(=NC2=O)N)CO)P(=O)(O)O
> <PUBCHEM_CACTVS_TPSA>
146
> <PUBCHEM_MONOISOTOPIC_WEIGHT>
305.07767224
> <PUBCHEM_TOTAL_CHARGE>
0
> <PUBCHEM_HEAVY_ATOM_COUNT>
20
> <PUBCHEM_ATOM_DEF_STEREO_COUNT>
3
> <PUBCHEM_ATOM_UDEF_STEREO_COUNT>
0
> <PUBCHEM_BOND_DEF_STEREO_COUNT>
0
> <PUBCHEM_BOND_UDEF_STEREO_COUNT>
0
> <PUBCHEM_ISOTOPIC_ATOM_COUNT>
0
> <PUBCHEM_COMPONENT_COUNT>
1
> <PUBCHEM_CACTVS_TAUTO_COUNT>
-1
> <PUBCHEM_COORDINATE_TYPE>
1
5
255
> <PUBCHEM_BONDANNOTATIONS>
15  1  5
12  16  5
17  19  8
19  20  8
11  8  5
8  17  8
8  18  8
9  18  8
9  20  8
$$$$
