513929
  -OEChem-10302200282D
 84 86  0     1  0  0  0  0  0999 V2000
    6.0010    0.7327    0.0000 S   0  0  0  0  0  0  0  0  0  0  0  0
   14.6613   -4.2673    0.0000 F   0  0  0  0  0  0  0  0  0  0  0  0
   15.6613   -3.2673    0.0000 F   0  0  0  0  0  0  0  0  0  0  0  0
   13.6613   -3.2673    0.0000 F   0  0  0  0  0  0  0  0  0  0  0  0
    6.8671   -0.7673    0.0000 O   0  0  0  0  0  0  0  0  0  0  0  0
    5.5010    1.5987    0.0000 O   0  0  0  0  0  0  0  0  0  0  0  0
    6.5010   -0.1334    0.0000 O   0  0  0  0  0  0  0  0  0  0  0  0
   12.0632    2.2327    0.0000 O   0  0  0  0  0  0  0  0  0  0  0  0
   13.7953   -1.7673    0.0000 O   0  0  0  0  0  0  0  0  0  0  0  0
   14.6613   -0.2673    0.0000 O   0  0  0  0  0  0  0  0  0  0  0  0
    6.8671    1.2327    0.0000 N   0  0  3  0  0  0  0  0  0  0  0  0
   11.1972    0.7327    0.0000 N   0  0  0  0  0  0  0  0  0  0  0  0
   12.9292   -0.2673    0.0000 N   0  0  0  0  0  0  0  0  0  0  0  0
    2.5369   -1.2673    0.0000 N   0  0  0  0  0  0  0  0  0  0  0  0
    7.7331    0.7327    0.0000 C   0  0  1  0  0  0  0  0  0  0  0  0
    8.5991    1.2327    0.0000 C   0  0  0  0  0  0  0  0  0  0  0  0
    6.8671    2.2327    0.0000 C   0  0  0  0  0  0  0  0  0  0  0  0
    7.7331    2.7327    0.0000 C   0  0  0  0  0  0  0  0  0  0  0  0
    9.4651    0.7327    0.0000 C   0  0  0  0  0  0  0  0  0  0  0  0
    7.7331   -0.2673    0.0000 C   0  0  0  0  0  0  0  0  0  0  0  0
   10.3312    1.2327    0.0000 C   0  0  0  0  0  0  0  0  0  0  0  0
    5.1350    0.2327    0.0000 C   0  0  0  0  0  0  0  0  0  0  0  0
    7.7331    3.7327    0.0000 C   0  0  0  0  0  0  0  0  0  0  0  0
    8.5991    2.2327    0.0000 C   0  0  0  0  0  0  0  0  0  0  0  0
   12.9292    0.7327    0.0000 C   0  0  2  0  0  0  0  0  0  0  0  0
    5.1350   -0.7673    0.0000 C   0  0  0  0  0  0  0  0  0  0  0  0
    4.2690    0.7327    0.0000 C   0  0  0  0  0  0  0  0  0  0  0  0
   12.0632    1.2327    0.0000 C   0  0  0  0  0  0  0  0  0  0  0  0
   13.7953    1.2327    0.0000 C   0  0  0  0  0  0  0  0  0  0  0  0
   13.7953    2.2327    0.0000 C   0  0  0  0  0  0  0  0  0  0  0  0
    4.2690   -1.2673    0.0000 C   0  0  0  0  0  0  0  0  0  0  0  0
    3.4030    0.2327    0.0000 C   0  0  0  0  0  0  0  0  0  0  0  0
    3.4030   -0.7673    0.0000 C   0  0  0  0  0  0  0  0  0  0  0  0
   14.6613    2.7327    0.0000 C   0  0  0  0  0  0  0  0  0  0  0  0
   12.9292    2.7327    0.0000 C   0  0  0  0  0  0  0  0  0  0  0  0
   14.6613    3.7327    0.0000 C   0  0  0  0  0  0  0  0  0  0  0  0
   15.5552    2.1980    0.0000 C   0  0  0  0  0  0  0  0  0  0  0  0
   12.9292    3.7327    0.0000 C   0  0  0  0  0  0  0  0  0  0  0  0
   13.7953    4.2327    0.0000 C   0  0  0  0  0  0  0  0  0  0  0  0
   13.7953   -0.7673    0.0000 C   0  0  0  0  0  0  0  0  0  0  0  0
   15.5552    4.2673    0.0000 C   0  0  0  0  0  0  0  0  0  0  0  0
   16.4613    2.7118    0.0000 C   0  0  0  0  0  0  0  0  0  0  0  0
   16.4613    3.7535    0.0000 C   0  0  0  0  0  0  0  0  0  0  0  0
   14.6613   -2.2673    0.0000 C   0  0  0  0  0  0  0  0  0  0  0  0
   14.6613   -3.2673    0.0000 C   0  0  0  0  0  0  0  0  0  0  0  0
    7.7331    1.3527    0.0000 H   0  0  0  0  0  0  0  0  0  0  0  0
    8.9976    1.7076    0.0000 H   0  0  0  0  0  0  0  0  0  0  0  0
    8.2006    1.7076    0.0000 H   0  0  0  0  0  0  0  0  0  0  0  0
    6.6550    2.8153    0.0000 H   0  0  0  0  0  0  0  0  0  0  0  0
    6.2565    2.1250    0.0000 H   0  0  0  0  0  0  0  0  0  0  0  0
    7.7331    2.1127    0.0000 H   0  0  0  0  0  0  0  0  0  0  0  0
    9.0666    0.2577    0.0000 H   0  0  0  0  0  0  0  0  0  0  0  0
    9.8637    0.2577    0.0000 H   0  0  0  0  0  0  0  0  0  0  0  0
    7.9451   -0.8499    0.0000 H   0  0  0  0  0  0  0  0  0  0  0  0
    8.3437   -0.1597    0.0000 H   0  0  0  0  0  0  0  0  0  0  0  0
   10.7297    1.7076    0.0000 H   0  0  0  0  0  0  0  0  0  0  0  0
    9.9326    1.7076    0.0000 H   0  0  0  0  0  0  0  0  0  0  0  0
    8.3531    3.7327    0.0000 H   0  0  0  0  0  0  0  0  0  0  0  0
    7.7331    4.3527    0.0000 H   0  0  0  0  0  0  0  0  0  0  0  0
    7.1131    3.7327    0.0000 H   0  0  0  0  0  0  0  0  0  0  0  0
    8.2891    1.6957    0.0000 H   0  0  0  0  0  0  0  0  0  0  0  0
    9.1360    1.9227    0.0000 H   0  0  0  0  0  0  0  0  0  0  0  0
    8.9091    2.7696    0.0000 H   0  0  0  0  0  0  0  0  0  0  0  0
   11.1972    0.1127    0.0000 H   0  0  0  0  0  0  0  0  0  0  0  0
   12.3923    0.4227    0.0000 H   0  0  0  0  0  0  0  0  0  0  0  0
    6.8671   -1.3873    0.0000 H   0  0  0  0  0  0  0  0  0  0  0  0
    5.6720   -1.0773    0.0000 H   0  0  0  0  0  0  0  0  0  0  0  0
    4.2690    1.3527    0.0000 H   0  0  0  0  0  0  0  0  0  0  0  0
   14.0073    0.6501    0.0000 H   0  0  0  0  0  0  0  0  0  0  0  0
   14.4058    1.3403    0.0000 H   0  0  0  0  0  0  0  0  0  0  0  0
    4.2690   -1.8873    0.0000 H   0  0  0  0  0  0  0  0  0  0  0  0
    2.8660    0.5427    0.0000 H   0  0  0  0  0  0  0  0  0  0  0  0
   12.3923   -0.5773    0.0000 H   0  0  0  0  0  0  0  0  0  0  0  0
   12.3923    2.4227    0.0000 H   0  0  0  0  0  0  0  0  0  0  0  0
   15.5481    1.5780    0.0000 H   0  0  0  0  0  0  0  0  0  0  0  0
   12.3923    4.0427    0.0000 H   0  0  0  0  0  0  0  0  0  0  0  0
   13.7953    4.8527    0.0000 H   0  0  0  0  0  0  0  0  0  0  0  0
    2.0000   -0.9573    0.0000 H   0  0  0  0  0  0  0  0  0  0  0  0
    2.5369   -1.8873    0.0000 H   0  0  0  0  0  0  0  0  0  0  0  0
   15.5481    4.8873    0.0000 H   0  0  0  0  0  0  0  0  0  0  0  0
   16.9970    2.3998    0.0000 H   0  0  0  0  0  0  0  0  0  0  0  0
   16.9970    4.0656    0.0000 H   0  0  0  0  0  0  0  0  0  0  0  0
   15.2719   -2.3750    0.0000 H   0  0  0  0  0  0  0  0  0  0  0  0
   14.8733   -1.6847    0.0000 H   0  0  0  0  0  0  0  0  0  0  0  0
  1  6  2  0  0  0  0
  1  7  2  0  0  0  0
  1 11  1  0  0  0  0
  1 22  1  0  0  0  0
  2 45  1  0  0  0  0
  3 45  1  0  0  0  0
  4 45  1  0  0  0  0
  5 20  1  0  0  0  0
  5 66  1  0  0  0  0
  8 28  2  0  0  0  0
  9 40  1  0  0  0  0
  9 44  1  0  0  0  0
 10 40  2  0  0  0  0
 15 11  1  1  0  0  0
 11 17  1  0  0  0  0
 12 21  1  0  0  0  0
 12 28  1  0  0  0  0
 12 64  1  0  0  0  0
 25 13  1  6  0  0  0
 13 40  1  0  0  0  0
 13 73  1  0  0  0  0
 14 33  1  0  0  0  0
 14 78  1  0  0  0  0
 14 79  1  0  0  0  0
 15 16  1  0  0  0  0
 15 20  1  0  0  0  0
 15 46  1  0  0  0  0
 16 19  1  0  0  0  0
 16 47  1  0  0  0  0
 16 48  1  0  0  0  0
 17 18  1  0  0  0  0
 17 49  1  0  0  0  0
 17 50  1  0  0  0  0
 18 23  1  0  0  0  0
 18 24  1  0  0  0  0
 18 51  1  0  0  0  0
 19 21  1  0  0  0  0
 19 52  1  0  0  0  0
 19 53  1  0  0  0  0
 20 54  1  0  0  0  0
 20 55  1  0  0  0  0
 21 56  1  0  0  0  0
 21 57  1  0  0  0  0
 22 26  2  0  0  0  0
 22 27  1  0  0  0  0
 23 58  1  0  0  0  0
 23 59  1  0  0  0  0
 23 60  1  0  0  0  0
 24 61  1  0  0  0  0
 24 62  1  0  0  0  0
 24 63  1  0  0  0  0
 25 28  1  0  0  0  0
 25 29  1  0  0  0  0
 25 65  1  0  0  0  0
 26 31  1  0  0  0  0
 26 67  1  0  0  0  0
 27 32  2  0  0  0  0
 27 68  1  0  0  0  0
 29 30  1  0  0  0  0
 29 69  1  0  0  0  0
 29 70  1  0  0  0  0
 30 34  1  0  0  0  0
 30 35  2  0  0  0  0
 31 33  2  0  0  0  0
 31 71  1  0  0  0  0
 32 33  1  0  0  0  0
 32 72  1  0  0  0  0
 34 36  1  0  0  0  0
 34 37  2  0  0  0  0
 35 38  1  0  0  0  0
 35 74  1  0  0  0  0
 36 39  1  0  0  0  0
 36 41  2  0  0  0  0
 37 42  1  0  0  0  0
 37 75  1  0  0  0  0
 38 39  2  0  0  0  0
 38 76  1  0  0  0  0
 39 77  1  0  0  0  0
 41 43  1  0  0  0  0
 41 80  1  0  0  0  0
 42 43  2  0  0  0  0
 42 81  1  0  0  0  0
 43 82  1  0  0  0  0
 44 45  1  0  0  0  0
 44 83  1  0  0  0  0
 44 84  1  0  0  0  0
M  END
> <PUBCHEM_COMPOUND_CID>
513929
> <PUBCHEM_COMPOUND_CANONICALIZED>
1
> <PUBCHEM_CACTVS_COMPLEXITY>
1030
> <PUBCHEM_CACTVS_HBOND_ACCEPTOR>
11
> <PUBCHEM_CACTVS_HBOND_DONOR>
4
> <PUBCHEM_CACTVS_ROTATABLE_BOND>
16
> <PUBCHEM_CACTVS_SUBSKEYS>
AAADcfB7uYBAAAAAAAAAAAAAAAAAAAAAAAAwYMAAAAAAAADBVAAAHwQQSAAADSjh2BYyycLABgKIAiVSWHDCABAgAgAIiJmIZIkKcDKAkbGcYABklgCYyAeYmMKOgAQCAAAQAAAACAQAACAAAAAAAAAAAA==
> <PUBCHEM_IUPAC_OPENEYE_NAME>
2,2,2-trifluoroethyl N-[(1S)-2-[[(4S)-4-[(4-aminophenyl)sulfonyl-isobutyl-amino]-5-hydroxy-pentyl]amino]-1-(1-naphthylmethyl)-2-oxo-ethyl]carbamate
> <PUBCHEM_IUPAC_CAS_NAME>
N-[(2S)-1-[[(4S)-4-[(4-aminophenyl)sulfonyl-(2-methylpropyl)amino]-5-hydroxypentyl]amino]-3-(1-naphthalenyl)-1-oxopropan-2-yl]carbamic acid 2,2,2-trifluoroethyl ester
> <PUBCHEM_IUPAC_NAME_MARKUP>
2,2,2-trifluoroethyl <I>N</I>-[(2<I>S</I>)-1-[[(4<I>S</I>)-4-[(4-aminophenyl)sulfonyl-(2-methylpropyl)amino]-5-hydroxypentyl]amino]-3-naphthalen-1-yl-1-oxopropan-2-yl]carbamate
> <PUBCHEM_IUPAC_NAME>
2,2,2-trifluoroethyl N-[(2S)-1-[[(4S)-4-[(4-aminophenyl)sulfonyl-(2-methylpropyl)amino]-5-hydroxypentyl]amino]-3-naphthalen-1-yl-1-oxopropan-2-yl]carbamate
> <PUBCHEM_IUPAC_SYSTEMATIC_NAME>
2,2,2-tris(fluoranyl)ethyl N-[(2S)-1-[[(4S)-4-[(4-aminophenyl)sulfonyl-(2-methylpropyl)amino]-5-oxidanyl-pentyl]amino]-3-naphthalen-1-yl-1-oxidanylidene-propan-2-yl]carbamate
> <PUBCHEM_IUPAC_TRADITIONAL_NAME>
N-[(1S)-2-[[(4S)-5-hydroxy-4-[isobutyl(sulfanilyl)amino]pentyl]amino]-2-keto-1-(1-naphthylmethyl)ethyl]carbamic acid 2,2,2-trifluoroethyl ester
> <PUBCHEM_IUPAC_INCHI>
InChI=1S/C31H39F3N4O6S/c1-21(2)18-38(45(42,43)26-14-12-24(35)13-15-26)25(19-39)10-6-16-36-29(40)28(37-30(41)44-20-31(32,33)34)17-23-9-5-8-22-7-3-4-11-27(22)23/h3-5,7-9,11-15,21,25,28,39H,6,10,16-20,35H2,1-2H3,(H,36,40)(H,37,41)/t25-,28-/m0/s1
> <PUBCHEM_IUPAC_INCHIKEY>
VJFHOFKHUBRMAV-LSYYVWMOSA-N
> <PUBCHEM_XLOGP3_AA>
5.2
> <PUBCHEM_EXACT_MASS>
652.25424064
> <PUBCHEM_MOLECULAR_FORMULA>
C31H39F3N4O6S
> <PUBCHEM_MOLECULAR_WEIGHT>
652.7
> <PUBCHEM_OPENEYE_CAN_SMILES>
CC(C)CN(C(CCCNC(=O)C(CC1=CC=CC2=CC=CC=C21)NC(=O)OCC(F)(F)F)CO)S(=O)(=O)C3=CC=C(C=C3)N
> <PUBCHEM_OPENEYE_ISO_SMILES>
CC(C)CN([C@@H](CCCNC(=O)[C@H](CC1=CC=CC2=CC=CC=C21)NC(=O)OCC(F)(F)F)CO)S(=O)(=O)C3=CC=C(C=C3)N
> <PUBCHEM_CACTVS_TPSA>
159
> <PUBCHEM_MONOISOTOPIC_WEIGHT>
652.25424064
> <PUBCHEM_TOTAL_CHARGE>
0
> <PUBCHEM_HEAVY_ATOM_COUNT>
45
> <PUBCHEM_ATOM_DEF_STEREO_COUNT>
2
> <PUBCHEM_ATOM_UDEF_STEREO_COUNT>
0
> <PUBCHEM_BOND_DEF_STEREO_COUNT>
0
> <PUBCHEM_BOND_UDEF_STEREO_COUNT>
0
> <PUBCHEM_ISOTOPIC_ATOM_COUNT>
0
> <PUBCHEM_COMPONENT_COUNT>
1
> <PUBCHEM_CACTVS_TAUTO_COUNT>
-1
> <PUBCHEM_COORDINATE_TYPE>
1
5
255
> <PUBCHEM_BONDANNOTATIONS>
15  11  5
25  13  6
22  26  8
22  27  8
26  31  8
27  32  8
30  34  8
30  35  8
31  33  8
32  33  8
34  36  8
34  37  8
35  38  8
36  39  8
36  41  8
37  42  8
38  39  8
41  43  8
42  43  8
$$$$
