513990
  -OEChem-10302200282D
 90 92  0     1  0  0  0  0  0999 V2000
    6.0010   -0.9400    0.0000 S   0  0  0  0  0  0  0  0  0  0  0  0
    8.5991   -2.4400    0.0000 O   0  0  0  0  0  0  0  0  0  0  0  0
    5.5010   -0.0740    0.0000 O   0  0  0  0  0  0  0  0  0  0  0  0
    6.5010   -1.8060    0.0000 O   0  0  0  0  0  0  0  0  0  0  0  0
   12.9292   -1.9400    0.0000 O   0  0  0  0  0  0  0  0  0  0  0  0
    6.8671   -0.4400    0.0000 N   0  0  3  0  0  0  0  0  0  0  0  0
   12.0632   -0.4400    0.0000 N   0  0  0  0  0  0  0  0  0  0  0  0
   13.7953    0.5600    0.0000 N   0  0  0  0  0  0  0  0  0  0  0  0
    2.5369   -2.9400    0.0000 N   0  0  0  0  0  0  0  0  0  0  0  0
    7.7331   -0.9400    0.0000 C   0  0  1  0  0  0  0  0  0  0  0  0
    8.5991   -0.4400    0.0000 C   0  0  0  0  0  0  0  0  0  0  0  0
    6.8671    0.5600    0.0000 C   0  0  0  0  0  0  0  0  0  0  0  0
    9.4651   -0.9400    0.0000 C   0  0  0  0  0  0  0  0  0  0  0  0
    7.7331    1.0600    0.0000 C   0  0  0  0  0  0  0  0  0  0  0  0
    7.7331   -1.9400    0.0000 C   0  0  0  0  0  0  0  0  0  0  0  0
   10.3312   -0.4400    0.0000 C   0  0  0  0  0  0  0  0  0  0  0  0
   11.1972   -0.9400    0.0000 C   0  0  0  0  0  0  0  0  0  0  0  0
    5.1350   -1.4400    0.0000 C   0  0  0  0  0  0  0  0  0  0  0  0
    7.7331    2.0600    0.0000 C   0  0  0  0  0  0  0  0  0  0  0  0
    8.5991    0.5600    0.0000 C   0  0  0  0  0  0  0  0  0  0  0  0
   13.7953   -0.4400    0.0000 C   0  0  2  0  0  0  0  0  0  0  0  0
   12.9292   -0.9400    0.0000 C   0  0  0  0  0  0  0  0  0  0  0  0
    5.1350   -2.4400    0.0000 C   0  0  0  0  0  0  0  0  0  0  0  0
    4.2690   -0.9400    0.0000 C   0  0  0  0  0  0  0  0  0  0  0  0
   14.6613   -0.9400    0.0000 C   0  0  0  0  0  0  0  0  0  0  0  0
   12.9292    1.0600    0.0000 C   0  0  0  0  0  0  0  0  0  0  0  0
   15.5273   -0.4400    0.0000 C   0  0  0  0  0  0  0  0  0  0  0  0
    4.2690   -2.9400    0.0000 C   0  0  0  0  0  0  0  0  0  0  0  0
    3.4030   -1.4400    0.0000 C   0  0  0  0  0  0  0  0  0  0  0  0
   12.9292    2.0600    0.0000 C   0  0  0  0  0  0  0  0  0  0  0  0
    3.4030   -2.4400    0.0000 C   0  0  0  0  0  0  0  0  0  0  0  0
   16.3933   -0.9400    0.0000 C   0  0  0  0  0  0  0  0  0  0  0  0
   12.0632    2.5600    0.0000 C   0  0  0  0  0  0  0  0  0  0  0  0
   15.5273    0.5600    0.0000 C   0  0  0  0  0  0  0  0  0  0  0  0
   17.2594   -0.4400    0.0000 C   0  0  0  0  0  0  0  0  0  0  0  0
   17.2594    0.5600    0.0000 C   0  0  0  0  0  0  0  0  0  0  0  0
   16.3933    1.0600    0.0000 C   0  0  0  0  0  0  0  0  0  0  0  0
   12.0632    3.5600    0.0000 C   0  0  0  0  0  0  0  0  0  0  0  0
   18.1533   -0.9747    0.0000 C   0  0  0  0  0  0  0  0  0  0  0  0
   18.1533    1.0947    0.0000 C   0  0  0  0  0  0  0  0  0  0  0  0
   19.0594   -0.4608    0.0000 C   0  0  0  0  0  0  0  0  0  0  0  0
   19.0594    0.5808    0.0000 C   0  0  0  0  0  0  0  0  0  0  0  0
    7.7331   -0.3200    0.0000 H   0  0  0  0  0  0  0  0  0  0  0  0
    8.9976    0.0349    0.0000 H   0  0  0  0  0  0  0  0  0  0  0  0
    8.2006    0.0349    0.0000 H   0  0  0  0  0  0  0  0  0  0  0  0
    6.6550    1.1426    0.0000 H   0  0  0  0  0  0  0  0  0  0  0  0
    6.2565    0.4523    0.0000 H   0  0  0  0  0  0  0  0  0  0  0  0
    9.0666   -1.4150    0.0000 H   0  0  0  0  0  0  0  0  0  0  0  0
    9.8637   -1.4150    0.0000 H   0  0  0  0  0  0  0  0  0  0  0  0
    7.7331    0.4400    0.0000 H   0  0  0  0  0  0  0  0  0  0  0  0
    7.1225   -1.8323    0.0000 H   0  0  0  0  0  0  0  0  0  0  0  0
    7.5210   -2.5226    0.0000 H   0  0  0  0  0  0  0  0  0  0  0  0
   10.7297    0.0349    0.0000 H   0  0  0  0  0  0  0  0  0  0  0  0
    9.9326    0.0349    0.0000 H   0  0  0  0  0  0  0  0  0  0  0  0
   10.7987   -1.4150    0.0000 H   0  0  0  0  0  0  0  0  0  0  0  0
   11.5957   -1.4150    0.0000 H   0  0  0  0  0  0  0  0  0  0  0  0
    8.3531    2.0600    0.0000 H   0  0  0  0  0  0  0  0  0  0  0  0
    7.7331    2.6800    0.0000 H   0  0  0  0  0  0  0  0  0  0  0  0
    7.1131    2.0600    0.0000 H   0  0  0  0  0  0  0  0  0  0  0  0
    8.2891    0.0231    0.0000 H   0  0  0  0  0  0  0  0  0  0  0  0
    9.1360    0.2500    0.0000 H   0  0  0  0  0  0  0  0  0  0  0  0
    8.9091    1.0969    0.0000 H   0  0  0  0  0  0  0  0  0  0  0  0
   14.3322   -0.1300    0.0000 H   0  0  0  0  0  0  0  0  0  0  0  0
   12.0632    0.1800    0.0000 H   0  0  0  0  0  0  0  0  0  0  0  0
    8.5991   -3.0600    0.0000 H   0  0  0  0  0  0  0  0  0  0  0  0
    5.6720   -2.7500    0.0000 H   0  0  0  0  0  0  0  0  0  0  0  0
    4.2690   -0.3200    0.0000 H   0  0  0  0  0  0  0  0  0  0  0  0
   14.2628   -1.4150    0.0000 H   0  0  0  0  0  0  0  0  0  0  0  0
   15.0598   -1.4150    0.0000 H   0  0  0  0  0  0  0  0  0  0  0  0
   14.3322    0.8700    0.0000 H   0  0  0  0  0  0  0  0  0  0  0  0
   12.3187    1.1677    0.0000 H   0  0  0  0  0  0  0  0  0  0  0  0
   12.7172    0.4774    0.0000 H   0  0  0  0  0  0  0  0  0  0  0  0
    4.2690   -3.5600    0.0000 H   0  0  0  0  0  0  0  0  0  0  0  0
    2.8660   -1.1300    0.0000 H   0  0  0  0  0  0  0  0  0  0  0  0
   13.5398    1.9523    0.0000 H   0  0  0  0  0  0  0  0  0  0  0  0
   13.1413    2.6426    0.0000 H   0  0  0  0  0  0  0  0  0  0  0  0
   16.3933   -1.5600    0.0000 H   0  0  0  0  0  0  0  0  0  0  0  0
   11.4526    2.6677    0.0000 H   0  0  0  0  0  0  0  0  0  0  0  0
   11.8512    1.9774    0.0000 H   0  0  0  0  0  0  0  0  0  0  0  0
   14.9904    0.8700    0.0000 H   0  0  0  0  0  0  0  0  0  0  0  0
   16.3933    1.6800    0.0000 H   0  0  0  0  0  0  0  0  0  0  0  0
    2.0000   -2.6300    0.0000 H   0  0  0  0  0  0  0  0  0  0  0  0
    2.5369   -3.5600    0.0000 H   0  0  0  0  0  0  0  0  0  0  0  0
   12.6832    3.5600    0.0000 H   0  0  0  0  0  0  0  0  0  0  0  0
   12.0632    4.1800    0.0000 H   0  0  0  0  0  0  0  0  0  0  0  0
   11.4432    3.5600    0.0000 H   0  0  0  0  0  0  0  0  0  0  0  0
   18.1461   -1.5946    0.0000 H   0  0  0  0  0  0  0  0  0  0  0  0
   18.1461    1.7146    0.0000 H   0  0  0  0  0  0  0  0  0  0  0  0
   19.5951   -0.7729    0.0000 H   0  0  0  0  0  0  0  0  0  0  0  0
   19.5951    0.8929    0.0000 H   0  0  0  0  0  0  0  0  0  0  0  0
  1  3  2  0  0  0  0
  1  4  2  0  0  0  0
  1  6  1  0  0  0  0
  1 18  1  0  0  0  0
  2 15  1  0  0  0  0
  2 65  1  0  0  0  0
  5 22  2  0  0  0  0
 10  6  1  1  0  0  0
  6 12  1  0  0  0  0
  7 17  1  0  0  0  0
  7 22  1  0  0  0  0
  7 64  1  0  0  0  0
 21  8  1  1  0  0  0
  8 26  1  0  0  0  0
  8 70  1  0  0  0  0
  9 31  1  0  0  0  0
  9 82  1  0  0  0  0
  9 83  1  0  0  0  0
 10 11  1  0  0  0  0
 10 15  1  0  0  0  0
 10 43  1  0  0  0  0
 11 13  1  0  0  0  0
 11 44  1  0  0  0  0
 11 45  1  0  0  0  0
 12 14  1  0  0  0  0
 12 46  1  0  0  0  0
 12 47  1  0  0  0  0
 13 16  1  0  0  0  0
 13 48  1  0  0  0  0
 13 49  1  0  0  0  0
 14 19  1  0  0  0  0
 14 20  1  0  0  0  0
 14 50  1  0  0  0  0
 15 51  1  0  0  0  0
 15 52  1  0  0  0  0
 16 17  1  0  0  0  0
 16 53  1  0  0  0  0
 16 54  1  0  0  0  0
 17 55  1  0  0  0  0
 17 56  1  0  0  0  0
 18 23  2  0  0  0  0
 18 24  1  0  0  0  0
 19 57  1  0  0  0  0
 19 58  1  0  0  0  0
 19 59  1  0  0  0  0
 20 60  1  0  0  0  0
 20 61  1  0  0  0  0
 20 62  1  0  0  0  0
 21 22  1  0  0  0  0
 21 25  1  0  0  0  0
 21 63  1  0  0  0  0
 23 28  1  0  0  0  0
 23 66  1  0  0  0  0
 24 29  2  0  0  0  0
 24 67  1  0  0  0  0
 25 27  1  0  0  0  0
 25 68  1  0  0  0  0
 25 69  1  0  0  0  0
 26 30  1  0  0  0  0
 26 71  1  0  0  0  0
 26 72  1  0  0  0  0
 27 32  2  0  0  0  0
 27 34  1  0  0  0  0
 28 31  2  0  0  0  0
 28 73  1  0  0  0  0
 29 31  1  0  0  0  0
 29 74  1  0  0  0  0
 30 33  1  0  0  0  0
 30 75  1  0  0  0  0
 30 76  1  0  0  0  0
 32 35  1  0  0  0  0
 32 77  1  0  0  0  0
 33 38  1  0  0  0  0
 33 78  1  0  0  0  0
 33 79  1  0  0  0  0
 34 37  2  0  0  0  0
 34 80  1  0  0  0  0
 35 36  1  0  0  0  0
 35 39  2  0  0  0  0
 36 37  1  0  0  0  0
 36 40  2  0  0  0  0
 37 81  1  0  0  0  0
 38 84  1  0  0  0  0
 38 85  1  0  0  0  0
 38 86  1  0  0  0  0
 39 41  1  0  0  0  0
 39 87  1  0  0  0  0
 40 42  1  0  0  0  0
 40 88  1  0  0  0  0
 41 42  2  0  0  0  0
 41 89  1  0  0  0  0
 42 90  1  0  0  0  0
M  END
> <PUBCHEM_COMPOUND_CID>
513990
> <PUBCHEM_COMPOUND_CANONICALIZED>
1
> <PUBCHEM_CACTVS_COMPLEXITY>
872
> <PUBCHEM_CACTVS_HBOND_ACCEPTOR>
7
> <PUBCHEM_CACTVS_HBOND_DONOR>
4
> <PUBCHEM_CACTVS_ROTATABLE_BOND>
18
> <PUBCHEM_CACTVS_SUBSKEYS>
AAADcfB/uABAAAAAAAAAAAAAAAAAAAAAAAAwYMAAAAAAAADBVAAAHgQQSAAADSjh2AYywcLAAgKIAiVSUHDCABAgAgAIiJmIZIgKcDKAkbGUYABklgCYyAeYyMCOwAQCAAAQAACACAQAACAAAAAAAAAAAA==
> <PUBCHEM_IUPAC_OPENEYE_NAME>
(2S)-N-[(5S)-5-[(4-aminophenyl)sulfonyl-isobutyl-amino]-6-hydroxy-hexyl]-2-(butylamino)-3-(2-naphthyl)propanamide
> <PUBCHEM_IUPAC_CAS_NAME>
(2S)-N-[(5S)-5-[(4-aminophenyl)sulfonyl-(2-methylpropyl)amino]-6-hydroxyhexyl]-2-(butylamino)-3-(2-naphthalenyl)propanamide
> <PUBCHEM_IUPAC_NAME_MARKUP>
(2<I>S</I>)-<I>N</I>-[(5<I>S</I>)-5-[(4-aminophenyl)sulfonyl-(2-methylpropyl)amino]-6-hydroxyhexyl]-2-(butylamino)-3-naphthalen-2-ylpropanamide
> <PUBCHEM_IUPAC_NAME>
(2S)-N-[(5S)-5-[(4-aminophenyl)sulfonyl-(2-methylpropyl)amino]-6-hydroxyhexyl]-2-(butylamino)-3-naphthalen-2-ylpropanamide
> <PUBCHEM_IUPAC_SYSTEMATIC_NAME>
(2S)-N-[(5S)-5-[(4-aminophenyl)sulfonyl-(2-methylpropyl)amino]-6-oxidanyl-hexyl]-2-(butylamino)-3-naphthalen-2-yl-propanamide
> <PUBCHEM_IUPAC_TRADITIONAL_NAME>
(2S)-2-(butylamino)-N-[(5S)-6-hydroxy-5-[isobutyl(sulfanilyl)amino]hexyl]-3-(2-naphthyl)propionamide
> <PUBCHEM_IUPAC_INCHI>
InChI=1S/C33H48N4O4S/c1-4-5-19-35-32(22-26-13-14-27-10-6-7-11-28(27)21-26)33(39)36-20-9-8-12-30(24-38)37(23-25(2)3)42(40,41)31-17-15-29(34)16-18-31/h6-7,10-11,13-18,21,25,30,32,35,38H,4-5,8-9,12,19-20,22-24,34H2,1-3H3,(H,36,39)/t30-,32-/m0/s1
> <PUBCHEM_IUPAC_INCHIKEY>
SXOVCFWWISUZME-CDZUIXILSA-N
> <PUBCHEM_XLOGP3_AA>
5.6
> <PUBCHEM_EXACT_MASS>
596.33962720
> <PUBCHEM_MOLECULAR_FORMULA>
C33H48N4O4S
> <PUBCHEM_MOLECULAR_WEIGHT>
596.8
> <PUBCHEM_OPENEYE_CAN_SMILES>
CCCCNC(CC1=CC2=CC=CC=C2C=C1)C(=O)NCCCCC(CO)N(CC(C)C)S(=O)(=O)C3=CC=C(C=C3)N
> <PUBCHEM_OPENEYE_ISO_SMILES>
CCCCN[C@@H](CC1=CC2=CC=CC=C2C=C1)C(=O)NCCCC[C@@H](CO)N(CC(C)C)S(=O)(=O)C3=CC=C(C=C3)N
> <PUBCHEM_CACTVS_TPSA>
133
> <PUBCHEM_MONOISOTOPIC_WEIGHT>
596.33962720
> <PUBCHEM_TOTAL_CHARGE>
0
> <PUBCHEM_HEAVY_ATOM_COUNT>
42
> <PUBCHEM_ATOM_DEF_STEREO_COUNT>
2
> <PUBCHEM_ATOM_UDEF_STEREO_COUNT>
0
> <PUBCHEM_BOND_DEF_STEREO_COUNT>
0
> <PUBCHEM_BOND_UDEF_STEREO_COUNT>
0
> <PUBCHEM_ISOTOPIC_ATOM_COUNT>
0
> <PUBCHEM_COMPONENT_COUNT>
1
> <PUBCHEM_CACTVS_TAUTO_COUNT>
-1
> <PUBCHEM_COORDINATE_TYPE>
1
5
255
> <PUBCHEM_BONDANNOTATIONS>
18  23  8
18  24  8
23  28  8
24  29  8
27  32  8
27  34  8
28  31  8
29  31  8
32  35  8
34  37  8
35  36  8
35  39  8
36  37  8
36  40  8
39  41  8
40  42  8
41  42  8
10  6  5
21  8  5
$$$$
