513933
  -OEChem-10302200282D
 83 85  0     1  0  0  0  0  0999 V2000
    6.0010    0.2327    0.0000 S   0  0  0  0  0  0  0  0  0  0  0  0
    6.8671   -1.2673    0.0000 O   0  0  0  0  0  0  0  0  0  0  0  0
    5.5010    1.0987    0.0000 O   0  0  0  0  0  0  0  0  0  0  0  0
    6.5010   -0.6334    0.0000 O   0  0  0  0  0  0  0  0  0  0  0  0
   12.0632    1.7327    0.0000 O   0  0  0  0  0  0  0  0  0  0  0  0
   14.6613   -0.7673    0.0000 O   0  0  0  0  0  0  0  0  0  0  0  0
   14.6613   -2.7673    0.0000 O   0  0  0  0  0  0  0  0  0  0  0  0
   12.9292   -2.7673    0.0000 O   0  0  0  0  0  0  0  0  0  0  0  0
    6.8671    0.7327    0.0000 N   0  0  3  0  0  0  0  0  0  0  0  0
   11.1972    0.2327    0.0000 N   0  0  0  0  0  0  0  0  0  0  0  0
   12.9292   -0.7673    0.0000 N   0  0  0  0  0  0  0  0  0  0  0  0
    2.5369   -1.7673    0.0000 N   0  0  0  0  0  0  0  0  0  0  0  0
    7.7331    0.2327    0.0000 C   0  0  1  0  0  0  0  0  0  0  0  0
    8.5991    0.7327    0.0000 C   0  0  0  0  0  0  0  0  0  0  0  0
    6.8671    1.7327    0.0000 C   0  0  0  0  0  0  0  0  0  0  0  0
    7.7331    2.2327    0.0000 C   0  0  0  0  0  0  0  0  0  0  0  0
    9.4651    0.2327    0.0000 C   0  0  0  0  0  0  0  0  0  0  0  0
    7.7331   -0.7673    0.0000 C   0  0  0  0  0  0  0  0  0  0  0  0
   10.3312    0.7327    0.0000 C   0  0  0  0  0  0  0  0  0  0  0  0
    5.1350   -0.2673    0.0000 C   0  0  0  0  0  0  0  0  0  0  0  0
    7.7331    3.2327    0.0000 C   0  0  0  0  0  0  0  0  0  0  0  0
    8.5991    1.7327    0.0000 C   0  0  0  0  0  0  0  0  0  0  0  0
   12.9292    0.2327    0.0000 C   0  0  2  0  0  0  0  0  0  0  0  0
    4.2690    0.2327    0.0000 C   0  0  0  0  0  0  0  0  0  0  0  0
    5.1350   -1.2673    0.0000 C   0  0  0  0  0  0  0  0  0  0  0  0
   12.0632    0.7327    0.0000 C   0  0  0  0  0  0  0  0  0  0  0  0
   13.7953    0.7327    0.0000 C   0  0  0  0  0  0  0  0  0  0  0  0
   13.7953    1.7327    0.0000 C   0  0  0  0  0  0  0  0  0  0  0  0
    3.4030   -0.2673    0.0000 C   0  0  0  0  0  0  0  0  0  0  0  0
    4.2690   -1.7673    0.0000 C   0  0  0  0  0  0  0  0  0  0  0  0
    3.4030   -1.2673    0.0000 C   0  0  0  0  0  0  0  0  0  0  0  0
   14.6613    2.2327    0.0000 C   0  0  0  0  0  0  0  0  0  0  0  0
   12.9292    2.2327    0.0000 C   0  0  0  0  0  0  0  0  0  0  0  0
   14.6613    3.2327    0.0000 C   0  0  0  0  0  0  0  0  0  0  0  0
   15.5552    1.6980    0.0000 C   0  0  0  0  0  0  0  0  0  0  0  0
   12.9292    3.2327    0.0000 C   0  0  0  0  0  0  0  0  0  0  0  0
   13.7953    3.7327    0.0000 C   0  0  0  0  0  0  0  0  0  0  0  0
   13.7953   -1.2673    0.0000 C   0  0  0  0  0  0  0  0  0  0  0  0
   15.5552    3.7673    0.0000 C   0  0  0  0  0  0  0  0  0  0  0  0
   16.4613    2.2118    0.0000 C   0  0  0  0  0  0  0  0  0  0  0  0
   16.4613    3.2535    0.0000 C   0  0  0  0  0  0  0  0  0  0  0  0
   13.7953   -2.2673    0.0000 C   0  0  0  0  0  0  0  0  0  0  0  0
   14.6613   -3.7673    0.0000 C   0  0  0  0  0  0  0  0  0  0  0  0
    7.7331    0.8527    0.0000 H   0  0  0  0  0  0  0  0  0  0  0  0
    8.9976    1.2076    0.0000 H   0  0  0  0  0  0  0  0  0  0  0  0
    8.2006    1.2076    0.0000 H   0  0  0  0  0  0  0  0  0  0  0  0
    6.6550    2.3153    0.0000 H   0  0  0  0  0  0  0  0  0  0  0  0
    6.2565    1.6250    0.0000 H   0  0  0  0  0  0  0  0  0  0  0  0
    7.7331    1.6127    0.0000 H   0  0  0  0  0  0  0  0  0  0  0  0
    9.0666   -0.2423    0.0000 H   0  0  0  0  0  0  0  0  0  0  0  0
    9.8637   -0.2423    0.0000 H   0  0  0  0  0  0  0  0  0  0  0  0
    7.9451   -1.3499    0.0000 H   0  0  0  0  0  0  0  0  0  0  0  0
    8.3437   -0.6597    0.0000 H   0  0  0  0  0  0  0  0  0  0  0  0
   10.7297    1.2076    0.0000 H   0  0  0  0  0  0  0  0  0  0  0  0
    9.9326    1.2076    0.0000 H   0  0  0  0  0  0  0  0  0  0  0  0
    8.3531    3.2327    0.0000 H   0  0  0  0  0  0  0  0  0  0  0  0
    7.7331    3.8527    0.0000 H   0  0  0  0  0  0  0  0  0  0  0  0
    7.1131    3.2327    0.0000 H   0  0  0  0  0  0  0  0  0  0  0  0
    8.2891    1.1957    0.0000 H   0  0  0  0  0  0  0  0  0  0  0  0
    9.1360    1.4227    0.0000 H   0  0  0  0  0  0  0  0  0  0  0  0
    8.9091    2.2696    0.0000 H   0  0  0  0  0  0  0  0  0  0  0  0
   11.1972   -0.3873    0.0000 H   0  0  0  0  0  0  0  0  0  0  0  0
   12.3923   -0.0773    0.0000 H   0  0  0  0  0  0  0  0  0  0  0  0
    6.8671   -1.8873    0.0000 H   0  0  0  0  0  0  0  0  0  0  0  0
    4.2690    0.8527    0.0000 H   0  0  0  0  0  0  0  0  0  0  0  0
    5.6720   -1.5773    0.0000 H   0  0  0  0  0  0  0  0  0  0  0  0
   14.0073    0.1501    0.0000 H   0  0  0  0  0  0  0  0  0  0  0  0
   14.4058    0.8403    0.0000 H   0  0  0  0  0  0  0  0  0  0  0  0
    2.8660    0.0427    0.0000 H   0  0  0  0  0  0  0  0  0  0  0  0
    4.2690   -2.3873    0.0000 H   0  0  0  0  0  0  0  0  0  0  0  0
   12.3923   -1.0773    0.0000 H   0  0  0  0  0  0  0  0  0  0  0  0
   12.3923    1.9227    0.0000 H   0  0  0  0  0  0  0  0  0  0  0  0
   15.5481    1.0780    0.0000 H   0  0  0  0  0  0  0  0  0  0  0  0
   12.3923    3.5427    0.0000 H   0  0  0  0  0  0  0  0  0  0  0  0
   13.7953    4.3527    0.0000 H   0  0  0  0  0  0  0  0  0  0  0  0
    2.0000   -1.4573    0.0000 H   0  0  0  0  0  0  0  0  0  0  0  0
    2.5369   -2.3873    0.0000 H   0  0  0  0  0  0  0  0  0  0  0  0
   15.5481    4.3873    0.0000 H   0  0  0  0  0  0  0  0  0  0  0  0
   16.9970    1.8998    0.0000 H   0  0  0  0  0  0  0  0  0  0  0  0
   16.9970    3.5656    0.0000 H   0  0  0  0  0  0  0  0  0  0  0  0
   14.0413   -3.7673    0.0000 H   0  0  0  0  0  0  0  0  0  0  0  0
   14.6613   -4.3873    0.0000 H   0  0  0  0  0  0  0  0  0  0  0  0
   15.2813   -3.7673    0.0000 H   0  0  0  0  0  0  0  0  0  0  0  0
  1  3  2  0  0  0  0
  1  4  2  0  0  0  0
  1  9  1  0  0  0  0
  1 20  1  0  0  0  0
  2 18  1  0  0  0  0
  2 64  1  0  0  0  0
  5 26  2  0  0  0  0
  6 38  2  0  0  0  0
  7 42  1  0  0  0  0
  7 43  1  0  0  0  0
  8 42  2  0  0  0  0
 13  9  1  1  0  0  0
  9 15  1  0  0  0  0
 10 19  1  0  0  0  0
 10 26  1  0  0  0  0
 10 62  1  0  0  0  0
 23 11  1  6  0  0  0
 11 38  1  0  0  0  0
 11 71  1  0  0  0  0
 12 31  1  0  0  0  0
 12 76  1  0  0  0  0
 12 77  1  0  0  0  0
 13 14  1  0  0  0  0
 13 18  1  0  0  0  0
 13 44  1  0  0  0  0
 14 17  1  0  0  0  0
 14 45  1  0  0  0  0
 14 46  1  0  0  0  0
 15 16  1  0  0  0  0
 15 47  1  0  0  0  0
 15 48  1  0  0  0  0
 16 21  1  0  0  0  0
 16 22  1  0  0  0  0
 16 49  1  0  0  0  0
 17 19  1  0  0  0  0
 17 50  1  0  0  0  0
 17 51  1  0  0  0  0
 18 52  1  0  0  0  0
 18 53  1  0  0  0  0
 19 54  1  0  0  0  0
 19 55  1  0  0  0  0
 20 24  2  0  0  0  0
 20 25  1  0  0  0  0
 21 56  1  0  0  0  0
 21 57  1  0  0  0  0
 21 58  1  0  0  0  0
 22 59  1  0  0  0  0
 22 60  1  0  0  0  0
 22 61  1  0  0  0  0
 23 26  1  0  0  0  0
 23 27  1  0  0  0  0
 23 63  1  0  0  0  0
 24 29  1  0  0  0  0
 24 65  1  0  0  0  0
 25 30  2  0  0  0  0
 25 66  1  0  0  0  0
 27 28  1  0  0  0  0
 27 67  1  0  0  0  0
 27 68  1  0  0  0  0
 28 32  1  0  0  0  0
 28 33  2  0  0  0  0
 29 31  2  0  0  0  0
 29 69  1  0  0  0  0
 30 31  1  0  0  0  0
 30 70  1  0  0  0  0
 32 34  1  0  0  0  0
 32 35  2  0  0  0  0
 33 36  1  0  0  0  0
 33 72  1  0  0  0  0
 34 37  1  0  0  0  0
 34 39  2  0  0  0  0
 35 40  1  0  0  0  0
 35 73  1  0  0  0  0
 36 37  2  0  0  0  0
 36 74  1  0  0  0  0
 37 75  1  0  0  0  0
 38 42  1  0  0  0  0
 39 41  1  0  0  0  0
 39 78  1  0  0  0  0
 40 41  2  0  0  0  0
 40 79  1  0  0  0  0
 41 80  1  0  0  0  0
 43 81  1  0  0  0  0
 43 82  1  0  0  0  0
 43 83  1  0  0  0  0
M  END
> <PUBCHEM_COMPOUND_CID>
513933
> <PUBCHEM_COMPOUND_CANONICALIZED>
1
> <PUBCHEM_CACTVS_COMPLEXITY>
1010
> <PUBCHEM_CACTVS_HBOND_ACCEPTOR>
9
> <PUBCHEM_CACTVS_HBOND_DONOR>
4
> <PUBCHEM_CACTVS_ROTATABLE_BOND>
16
> <PUBCHEM_CACTVS_SUBSKEYS>
AAADcfB7uABAAAAAAAAAAAAAAAAAAAAAAAAwYMAAAAAAAADBVAAAHgQQSAAADSjh2AYyycLABgKIAiXSWHLCABAgAgAIiJnIZIgKcDKAkbWVYABklgCYyAeYmMKOgAQCAAAQAAAACAQAACAAAAAAAAAAAA==
> <PUBCHEM_IUPAC_OPENEYE_NAME>
methyl 2-[[(1S)-2-[[(4S)-4-[(4-aminophenyl)sulfonyl-isobutyl-amino]-5-hydroxy-pentyl]amino]-1-(1-naphthylmethyl)-2-oxo-ethyl]amino]-2-oxo-acetate
> <PUBCHEM_IUPAC_CAS_NAME>
2-[[(2S)-1-[[(4S)-4-[(4-aminophenyl)sulfonyl-(2-methylpropyl)amino]-5-hydroxypentyl]amino]-3-(1-naphthalenyl)-1-oxopropan-2-yl]amino]-2-oxoacetic acid methyl ester
> <PUBCHEM_IUPAC_NAME_MARKUP>
methyl 2-[[(2<I>S</I>)-1-[[(4<I>S</I>)-4-[(4-aminophenyl)sulfonyl-(2-methylpropyl)amino]-5-hydroxypentyl]amino]-3-naphthalen-1-yl-1-oxopropan-2-yl]amino]-2-oxoacetate
> <PUBCHEM_IUPAC_NAME>
methyl 2-[[(2S)-1-[[(4S)-4-[(4-aminophenyl)sulfonyl-(2-methylpropyl)amino]-5-hydroxypentyl]amino]-3-naphthalen-1-yl-1-oxopropan-2-yl]amino]-2-oxoacetate
> <PUBCHEM_IUPAC_SYSTEMATIC_NAME>
methyl 2-[[(2S)-1-[[(4S)-4-[(4-aminophenyl)sulfonyl-(2-methylpropyl)amino]-5-oxidanyl-pentyl]amino]-3-naphthalen-1-yl-1-oxidanylidene-propan-2-yl]amino]-2-oxidanylidene-ethanoate
> <PUBCHEM_IUPAC_TRADITIONAL_NAME>
2-[[(1S)-2-[[(4S)-5-hydroxy-4-[isobutyl(sulfanilyl)amino]pentyl]amino]-2-keto-1-(1-naphthylmethyl)ethyl]amino]-2-keto-acetic acid methyl ester
> <PUBCHEM_IUPAC_INCHI>
InChI=1S/C31H40N4O7S/c1-21(2)19-35(43(40,41)26-15-13-24(32)14-16-26)25(20-36)11-7-17-33-29(37)28(34-30(38)31(39)42-3)18-23-10-6-9-22-8-4-5-12-27(22)23/h4-6,8-10,12-16,21,25,28,36H,7,11,17-20,32H2,1-3H3,(H,33,37)(H,34,38)/t25-,28-/m0/s1
> <PUBCHEM_IUPAC_INCHIKEY>
RKPZZNLDGGIRLQ-LSYYVWMOSA-N
> <PUBCHEM_XLOGP3_AA>
4
> <PUBCHEM_EXACT_MASS>
612.26177080
> <PUBCHEM_MOLECULAR_FORMULA>
C31H40N4O7S
> <PUBCHEM_MOLECULAR_WEIGHT>
612.7
> <PUBCHEM_OPENEYE_CAN_SMILES>
CC(C)CN(C(CCCNC(=O)C(CC1=CC=CC2=CC=CC=C21)NC(=O)C(=O)OC)CO)S(=O)(=O)C3=CC=C(C=C3)N
> <PUBCHEM_OPENEYE_ISO_SMILES>
CC(C)CN([C@@H](CCCNC(=O)[C@H](CC1=CC=CC2=CC=CC=C21)NC(=O)C(=O)OC)CO)S(=O)(=O)C3=CC=C(C=C3)N
> <PUBCHEM_CACTVS_TPSA>
177
> <PUBCHEM_MONOISOTOPIC_WEIGHT>
612.26177080
> <PUBCHEM_TOTAL_CHARGE>
0
> <PUBCHEM_HEAVY_ATOM_COUNT>
43
> <PUBCHEM_ATOM_DEF_STEREO_COUNT>
2
> <PUBCHEM_ATOM_UDEF_STEREO_COUNT>
0
> <PUBCHEM_BOND_DEF_STEREO_COUNT>
0
> <PUBCHEM_BOND_UDEF_STEREO_COUNT>
0
> <PUBCHEM_ISOTOPIC_ATOM_COUNT>
0
> <PUBCHEM_COMPONENT_COUNT>
1
> <PUBCHEM_CACTVS_TAUTO_COUNT>
-1
> <PUBCHEM_COORDINATE_TYPE>
1
5
255
> <PUBCHEM_BONDANNOTATIONS>
23  11  6
20  24  8
20  25  8
24  29  8
25  30  8
28  32  8
28  33  8
29  31  8
30  31  8
32  34  8
32  35  8
33  36  8
34  37  8
34  39  8
35  40  8
36  37  8
39  41  8
40  41  8
13  9  5
$$$$
