513919
  -OEChem-10302200282D
 21 21  0     1  0  0  0  0  0999 V2000
    5.4641   -0.9050    0.0000 O   0  0  0  0  0  0  0  0  0  0  0  0
    2.8660    0.5950    0.0000 O   0  0  0  0  0  0  0  0  0  0  0  0
    6.3301    0.5950    0.0000 O   0  0  0  0  0  0  0  0  0  0  0  0
    2.8660   -2.4050    0.0000 O   0  0  0  0  0  0  0  0  0  0  0  0
    5.4641    2.0950    0.0000 O   0  0  0  0  0  0  0  0  0  0  0  0
    2.0000   -0.9050    0.0000 O   0  0  0  0  0  0  0  0  0  0  0  0
    3.7320    2.0950    0.0000 O   0  0  0  0  0  0  0  0  0  0  0  0
    3.7320   -0.9050    0.0000 C   0  0  3  0  0  0  0  0  0  0  0  0
    4.5981    0.5950    0.0000 C   0  0  3  0  0  0  0  0  0  0  0  0
    3.7320    0.0950    0.0000 C   0  0  0  0  0  0  0  0  0  0  0  0
    4.5981   -1.4050    0.0000 C   0  0  0  0  0  0  0  0  0  0  0  0
    5.4641    0.0950    0.0000 C   0  0  0  0  0  0  0  0  0  0  0  0
    2.8660   -1.4050    0.0000 C   0  0  0  0  0  0  0  0  0  0  0  0
    4.5981    1.5950    0.0000 C   0  0  0  0  0  0  0  0  0  0  0  0
    4.5981   -2.4050    0.0000 C   0  0  0  0  0  0  0  0  0  0  0  0
    3.7320   -1.5250    0.0000 H   0  0  0  0  0  0  0  0  0  0  0  0
    5.1350    0.9050    0.0000 H   0  0  0  0  0  0  0  0  0  0  0  0
    4.0611   -2.7150    0.0000 H   0  0  0  0  0  0  0  0  0  0  0  0
    5.1350   -2.7150    0.0000 H   0  0  0  0  0  0  0  0  0  0  0  0
    2.3291   -2.7150    0.0000 H   0  0  0  0  0  0  0  0  0  0  0  0
    5.4641    2.7150    0.0000 H   0  0  0  0  0  0  0  0  0  0  0  0
  1 11  1  0  0  0  0
  1 12  1  0  0  0  0
  2 10  2  0  0  0  0
  3 12  2  0  0  0  0
  4 13  1  0  0  0  0
  4 20  1  0  0  0  0
  5 14  1  0  0  0  0
  5 21  1  0  0  0  0
  6 13  2  0  0  0  0
  7 14  2  0  0  0  0
  8 10  1  0  0  0  0
  8 11  1  0  0  0  0
  8 13  1  0  0  0  0
  8 16  1  0  0  0  0
  9 10  1  0  0  0  0
  9 12  1  0  0  0  0
  9 14  1  0  0  0  0
  9 17  1  0  0  0  0
 11 15  2  0  0  0  0
 15 18  1  0  0  0  0
 15 19  1  0  0  0  0
M  END
> <PUBCHEM_COMPOUND_CID>
513919
> <PUBCHEM_COMPOUND_CANONICALIZED>
1
> <PUBCHEM_CACTVS_COMPLEXITY>
381
> <PUBCHEM_CACTVS_HBOND_ACCEPTOR>
7
> <PUBCHEM_CACTVS_HBOND_DONOR>
2
> <PUBCHEM_CACTVS_ROTATABLE_BOND>
2
> <PUBCHEM_CACTVS_SUBSKEYS>
AAADcYBwOAAAAAAAAAAAAAAAAAAAAAAAAAAkAAAAAAAAAAAAAAAAGgAACAAADQSAgAAACAAABgCIAIDSCAAACAAgAAAAAAEAAAgAABYIAQACQAAF4AAAAACIJggMAAAAAAAAAAAAAAAAAAAAAAAAAAAAAA==
> <PUBCHEM_IUPAC_OPENEYE_NAME>
2-methylene-4,6-dioxo-tetrahydropyran-3,5-dicarboxylic acid
> <PUBCHEM_IUPAC_CAS_NAME>
2-methylene-4,6-dioxooxane-3,5-dicarboxylic acid
> <PUBCHEM_IUPAC_NAME_MARKUP>
2-methylidene-4,6-dioxooxane-3,5-dicarboxylic acid
> <PUBCHEM_IUPAC_NAME>
2-methylidene-4,6-dioxooxane-3,5-dicarboxylic acid
> <PUBCHEM_IUPAC_SYSTEMATIC_NAME>
2-methylidene-4,6-bis(oxidanylidene)oxane-3,5-dicarboxylic acid
> <PUBCHEM_IUPAC_TRADITIONAL_NAME>
2,4-diketo-6-methylene-tetrahydropyran-3,5-dicarboxylic acid
> <PUBCHEM_IUPAC_INCHI>
InChI=1S/C8H6O7/c1-2-3(6(10)11)5(9)4(7(12)13)8(14)15-2/h3-4H,1H2,(H,10,11)(H,12,13)
> <PUBCHEM_IUPAC_INCHIKEY>
AUIUCPRVEMJUKV-UHFFFAOYSA-N
> <PUBCHEM_XLOGP3_AA>
0.9
> <PUBCHEM_EXACT_MASS>
214.01135253
> <PUBCHEM_MOLECULAR_FORMULA>
C8H6O7
> <PUBCHEM_MOLECULAR_WEIGHT>
214.13
> <PUBCHEM_OPENEYE_CAN_SMILES>
C=C1C(C(=O)C(C(=O)O1)C(=O)O)C(=O)O
> <PUBCHEM_OPENEYE_ISO_SMILES>
C=C1C(C(=O)C(C(=O)O1)C(=O)O)C(=O)O
> <PUBCHEM_CACTVS_TPSA>
118
> <PUBCHEM_MONOISOTOPIC_WEIGHT>
214.01135253
> <PUBCHEM_TOTAL_CHARGE>
0
> <PUBCHEM_HEAVY_ATOM_COUNT>
15
> <PUBCHEM_ATOM_DEF_STEREO_COUNT>
0
> <PUBCHEM_ATOM_UDEF_STEREO_COUNT>
2
> <PUBCHEM_BOND_DEF_STEREO_COUNT>
0
> <PUBCHEM_BOND_UDEF_STEREO_COUNT>
0
> <PUBCHEM_ISOTOPIC_ATOM_COUNT>
0
> <PUBCHEM_COMPONENT_COUNT>
1
> <PUBCHEM_CACTVS_TAUTO_COUNT>
-1
> <PUBCHEM_COORDINATE_TYPE>
1
5
255
> <PUBCHEM_BONDANNOTATIONS>
8  13  3
9  14  3
$$$$
