513985
  -OEChem-10302200282D
 90 92  0     1  0  0  0  0  0999 V2000
    6.0010   -0.4400    0.0000 S   0  0  0  0  0  0  0  0  0  0  0  0
    8.5991   -1.9400    0.0000 O   0  0  0  0  0  0  0  0  0  0  0  0
    5.5010    0.4260    0.0000 O   0  0  0  0  0  0  0  0  0  0  0  0
    6.5010   -1.3060    0.0000 O   0  0  0  0  0  0  0  0  0  0  0  0
   12.9292   -1.4400    0.0000 O   0  0  0  0  0  0  0  0  0  0  0  0
    6.8671    0.0600    0.0000 N   0  0  3  0  0  0  0  0  0  0  0  0
   12.0632    0.0600    0.0000 N   0  0  0  0  0  0  0  0  0  0  0  0
   13.7953    1.0600    0.0000 N   0  0  0  0  0  0  0  0  0  0  0  0
    2.5369   -2.4400    0.0000 N   0  0  0  0  0  0  0  0  0  0  0  0
    7.7331   -0.4400    0.0000 C   0  0  1  0  0  0  0  0  0  0  0  0
    8.5991    0.0600    0.0000 C   0  0  0  0  0  0  0  0  0  0  0  0
    6.8671    1.0600    0.0000 C   0  0  0  0  0  0  0  0  0  0  0  0
    9.4651   -0.4400    0.0000 C   0  0  0  0  0  0  0  0  0  0  0  0
    7.7331    1.5600    0.0000 C   0  0  0  0  0  0  0  0  0  0  0  0
    7.7331   -1.4400    0.0000 C   0  0  0  0  0  0  0  0  0  0  0  0
   10.3312    0.0600    0.0000 C   0  0  0  0  0  0  0  0  0  0  0  0
   11.1972   -0.4400    0.0000 C   0  0  0  0  0  0  0  0  0  0  0  0
    5.1350   -0.9400    0.0000 C   0  0  0  0  0  0  0  0  0  0  0  0
    7.7331    2.5600    0.0000 C   0  0  0  0  0  0  0  0  0  0  0  0
    8.5991    1.0600    0.0000 C   0  0  0  0  0  0  0  0  0  0  0  0
   13.7953    0.0600    0.0000 C   0  0  2  0  0  0  0  0  0  0  0  0
   12.9292   -0.4400    0.0000 C   0  0  0  0  0  0  0  0  0  0  0  0
   14.6613   -0.4400    0.0000 C   0  0  0  0  0  0  0  0  0  0  0  0
    5.1350   -1.9400    0.0000 C   0  0  0  0  0  0  0  0  0  0  0  0
    4.2690   -0.4400    0.0000 C   0  0  0  0  0  0  0  0  0  0  0  0
   12.9292    1.5600    0.0000 C   0  0  0  0  0  0  0  0  0  0  0  0
   12.9292    2.5600    0.0000 C   0  0  0  0  0  0  0  0  0  0  0  0
   15.5273    0.0600    0.0000 C   0  0  0  0  0  0  0  0  0  0  0  0
    4.2690   -2.4400    0.0000 C   0  0  0  0  0  0  0  0  0  0  0  0
    3.4030   -0.9400    0.0000 C   0  0  0  0  0  0  0  0  0  0  0  0
    3.4030   -1.9400    0.0000 C   0  0  0  0  0  0  0  0  0  0  0  0
   12.0632    3.0600    0.0000 C   0  0  0  0  0  0  0  0  0  0  0  0
   13.7953    3.0600    0.0000 C   0  0  0  0  0  0  0  0  0  0  0  0
   16.3933   -0.4400    0.0000 C   0  0  0  0  0  0  0  0  0  0  0  0
   15.5273    1.0600    0.0000 C   0  0  0  0  0  0  0  0  0  0  0  0
   17.2594    0.0600    0.0000 C   0  0  0  0  0  0  0  0  0  0  0  0
   17.2594    1.0600    0.0000 C   0  0  0  0  0  0  0  0  0  0  0  0
   16.3933    1.5600    0.0000 C   0  0  0  0  0  0  0  0  0  0  0  0
   18.1533   -0.4747    0.0000 C   0  0  0  0  0  0  0  0  0  0  0  0
   18.1533    1.5947    0.0000 C   0  0  0  0  0  0  0  0  0  0  0  0
   19.0594    0.0392    0.0000 C   0  0  0  0  0  0  0  0  0  0  0  0
   19.0594    1.0808    0.0000 C   0  0  0  0  0  0  0  0  0  0  0  0
    7.7331    0.1800    0.0000 H   0  0  0  0  0  0  0  0  0  0  0  0
    8.9976    0.5349    0.0000 H   0  0  0  0  0  0  0  0  0  0  0  0
    8.2006    0.5349    0.0000 H   0  0  0  0  0  0  0  0  0  0  0  0
    6.6550    1.6426    0.0000 H   0  0  0  0  0  0  0  0  0  0  0  0
    6.2565    0.9523    0.0000 H   0  0  0  0  0  0  0  0  0  0  0  0
    9.0666   -0.9149    0.0000 H   0  0  0  0  0  0  0  0  0  0  0  0
    9.8637   -0.9149    0.0000 H   0  0  0  0  0  0  0  0  0  0  0  0
    7.7331    0.9400    0.0000 H   0  0  0  0  0  0  0  0  0  0  0  0
    7.1225   -1.3323    0.0000 H   0  0  0  0  0  0  0  0  0  0  0  0
    7.5210   -2.0226    0.0000 H   0  0  0  0  0  0  0  0  0  0  0  0
   10.7297    0.5349    0.0000 H   0  0  0  0  0  0  0  0  0  0  0  0
    9.9326    0.5349    0.0000 H   0  0  0  0  0  0  0  0  0  0  0  0
   10.7987   -0.9149    0.0000 H   0  0  0  0  0  0  0  0  0  0  0  0
   11.5957   -0.9149    0.0000 H   0  0  0  0  0  0  0  0  0  0  0  0
    8.3531    2.5600    0.0000 H   0  0  0  0  0  0  0  0  0  0  0  0
    7.7331    3.1800    0.0000 H   0  0  0  0  0  0  0  0  0  0  0  0
    7.1131    2.5600    0.0000 H   0  0  0  0  0  0  0  0  0  0  0  0
    8.2891    0.5231    0.0000 H   0  0  0  0  0  0  0  0  0  0  0  0
    9.1360    0.7500    0.0000 H   0  0  0  0  0  0  0  0  0  0  0  0
    8.9091    1.5969    0.0000 H   0  0  0  0  0  0  0  0  0  0  0  0
   14.3322    0.3700    0.0000 H   0  0  0  0  0  0  0  0  0  0  0  0
   12.0632    0.6800    0.0000 H   0  0  0  0  0  0  0  0  0  0  0  0
   14.2628   -0.9149    0.0000 H   0  0  0  0  0  0  0  0  0  0  0  0
   15.0598   -0.9149    0.0000 H   0  0  0  0  0  0  0  0  0  0  0  0
    8.5991   -2.5600    0.0000 H   0  0  0  0  0  0  0  0  0  0  0  0
   14.3322    1.3700    0.0000 H   0  0  0  0  0  0  0  0  0  0  0  0
    5.6720   -2.2500    0.0000 H   0  0  0  0  0  0  0  0  0  0  0  0
    4.2690    0.1800    0.0000 H   0  0  0  0  0  0  0  0  0  0  0  0
   12.3187    1.6677    0.0000 H   0  0  0  0  0  0  0  0  0  0  0  0
   12.7172    0.9774    0.0000 H   0  0  0  0  0  0  0  0  0  0  0  0
   12.3923    2.2500    0.0000 H   0  0  0  0  0  0  0  0  0  0  0  0
    4.2690   -3.0600    0.0000 H   0  0  0  0  0  0  0  0  0  0  0  0
    2.8660   -0.6300    0.0000 H   0  0  0  0  0  0  0  0  0  0  0  0
   12.3732    3.5969    0.0000 H   0  0  0  0  0  0  0  0  0  0  0  0
   11.5263    3.3700    0.0000 H   0  0  0  0  0  0  0  0  0  0  0  0
   11.7532    2.5231    0.0000 H   0  0  0  0  0  0  0  0  0  0  0  0
   14.1053    2.5231    0.0000 H   0  0  0  0  0  0  0  0  0  0  0  0
   14.3322    3.3700    0.0000 H   0  0  0  0  0  0  0  0  0  0  0  0
   13.4853    3.5969    0.0000 H   0  0  0  0  0  0  0  0  0  0  0  0
   16.3933   -1.0600    0.0000 H   0  0  0  0  0  0  0  0  0  0  0  0
   14.9904    1.3700    0.0000 H   0  0  0  0  0  0  0  0  0  0  0  0
   16.3933    2.1800    0.0000 H   0  0  0  0  0  0  0  0  0  0  0  0
    2.0000   -2.1300    0.0000 H   0  0  0  0  0  0  0  0  0  0  0  0
    2.5369   -3.0600    0.0000 H   0  0  0  0  0  0  0  0  0  0  0  0
   18.1461   -1.0946    0.0000 H   0  0  0  0  0  0  0  0  0  0  0  0
   18.1461    2.2146    0.0000 H   0  0  0  0  0  0  0  0  0  0  0  0
   19.5951   -0.2729    0.0000 H   0  0  0  0  0  0  0  0  0  0  0  0
   19.5951    1.3929    0.0000 H   0  0  0  0  0  0  0  0  0  0  0  0
  1  3  2  0  0  0  0
  1  4  2  0  0  0  0
  1  6  1  0  0  0  0
  1 18  1  0  0  0  0
  2 15  1  0  0  0  0
  2 67  1  0  0  0  0
  5 22  2  0  0  0  0
 10  6  1  1  0  0  0
  6 12  1  0  0  0  0
  7 17  1  0  0  0  0
  7 22  1  0  0  0  0
  7 64  1  0  0  0  0
 21  8  1  1  0  0  0
  8 26  1  0  0  0  0
  8 68  1  0  0  0  0
  9 31  1  0  0  0  0
  9 85  1  0  0  0  0
  9 86  1  0  0  0  0
 10 11  1  0  0  0  0
 10 15  1  0  0  0  0
 10 43  1  0  0  0  0
 11 13  1  0  0  0  0
 11 44  1  0  0  0  0
 11 45  1  0  0  0  0
 12 14  1  0  0  0  0
 12 46  1  0  0  0  0
 12 47  1  0  0  0  0
 13 16  1  0  0  0  0
 13 48  1  0  0  0  0
 13 49  1  0  0  0  0
 14 19  1  0  0  0  0
 14 20  1  0  0  0  0
 14 50  1  0  0  0  0
 15 51  1  0  0  0  0
 15 52  1  0  0  0  0
 16 17  1  0  0  0  0
 16 53  1  0  0  0  0
 16 54  1  0  0  0  0
 17 55  1  0  0  0  0
 17 56  1  0  0  0  0
 18 24  2  0  0  0  0
 18 25  1  0  0  0  0
 19 57  1  0  0  0  0
 19 58  1  0  0  0  0
 19 59  1  0  0  0  0
 20 60  1  0  0  0  0
 20 61  1  0  0  0  0
 20 62  1  0  0  0  0
 21 22  1  0  0  0  0
 21 23  1  0  0  0  0
 21 63  1  0  0  0  0
 23 28  1  0  0  0  0
 23 65  1  0  0  0  0
 23 66  1  0  0  0  0
 24 29  1  0  0  0  0
 24 69  1  0  0  0  0
 25 30  2  0  0  0  0
 25 70  1  0  0  0  0
 26 27  1  0  0  0  0
 26 71  1  0  0  0  0
 26 72  1  0  0  0  0
 27 32  1  0  0  0  0
 27 33  1  0  0  0  0
 27 73  1  0  0  0  0
 28 34  2  0  0  0  0
 28 35  1  0  0  0  0
 29 31  2  0  0  0  0
 29 74  1  0  0  0  0
 30 31  1  0  0  0  0
 30 75  1  0  0  0  0
 32 76  1  0  0  0  0
 32 77  1  0  0  0  0
 32 78  1  0  0  0  0
 33 79  1  0  0  0  0
 33 80  1  0  0  0  0
 33 81  1  0  0  0  0
 34 36  1  0  0  0  0
 34 82  1  0  0  0  0
 35 38  2  0  0  0  0
 35 83  1  0  0  0  0
 36 37  1  0  0  0  0
 36 39  2  0  0  0  0
 37 38  1  0  0  0  0
 37 40  2  0  0  0  0
 38 84  1  0  0  0  0
 39 41  1  0  0  0  0
 39 87  1  0  0  0  0
 40 42  1  0  0  0  0
 40 88  1  0  0  0  0
 41 42  2  0  0  0  0
 41 89  1  0  0  0  0
 42 90  1  0  0  0  0
M  END
> <PUBCHEM_COMPOUND_CID>
513985
> <PUBCHEM_COMPOUND_CANONICALIZED>
1
> <PUBCHEM_CACTVS_COMPLEXITY>
885
> <PUBCHEM_CACTVS_HBOND_ACCEPTOR>
7
> <PUBCHEM_CACTVS_HBOND_DONOR>
4
> <PUBCHEM_CACTVS_ROTATABLE_BOND>
17
> <PUBCHEM_CACTVS_SUBSKEYS>
AAADcfB/uABAAAAAAAAAAAAAAAAAAAAAAAAwYMAAAAAAAADBVAAAHgQQSAAADSjh2AYywcLAAgKIAiVSUHDCABAgAgAIiJmIZIgKcDKAkbGUYABklgCYyAeYyMCOwAQCAAAQAACACAQAACAAAAAAAAAAAA==
> <PUBCHEM_IUPAC_OPENEYE_NAME>
(2S)-N-[(5S)-5-[(4-aminophenyl)sulfonyl-isobutyl-amino]-6-hydroxy-hexyl]-2-(isobutylamino)-3-(2-naphthyl)propanamide
> <PUBCHEM_IUPAC_CAS_NAME>
(2S)-N-[(5S)-5-[(4-aminophenyl)sulfonyl-(2-methylpropyl)amino]-6-hydroxyhexyl]-2-(2-methylpropylamino)-3-(2-naphthalenyl)propanamide
> <PUBCHEM_IUPAC_NAME_MARKUP>
(2<I>S</I>)-<I>N</I>-[(5<I>S</I>)-5-[(4-aminophenyl)sulfonyl-(2-methylpropyl)amino]-6-hydroxyhexyl]-2-(2-methylpropylamino)-3-naphthalen-2-ylpropanamide
> <PUBCHEM_IUPAC_NAME>
(2S)-N-[(5S)-5-[(4-aminophenyl)sulfonyl-(2-methylpropyl)amino]-6-hydroxyhexyl]-2-(2-methylpropylamino)-3-naphthalen-2-ylpropanamide
> <PUBCHEM_IUPAC_SYSTEMATIC_NAME>
(2S)-N-[(5S)-5-[(4-aminophenyl)sulfonyl-(2-methylpropyl)amino]-6-oxidanyl-hexyl]-2-(2-methylpropylamino)-3-naphthalen-2-yl-propanamide
> <PUBCHEM_IUPAC_TRADITIONAL_NAME>
(2S)-N-[(5S)-6-hydroxy-5-[isobutyl(sulfanilyl)amino]hexyl]-2-(isobutylamino)-3-(2-naphthyl)propionamide
> <PUBCHEM_IUPAC_INCHI>
InChI=1S/C33H48N4O4S/c1-24(2)21-36-32(20-26-12-13-27-9-5-6-10-28(27)19-26)33(39)35-18-8-7-11-30(23-38)37(22-25(3)4)42(40,41)31-16-14-29(34)15-17-31/h5-6,9-10,12-17,19,24-25,30,32,36,38H,7-8,11,18,20-23,34H2,1-4H3,(H,35,39)/t30-,32-/m0/s1
> <PUBCHEM_IUPAC_INCHIKEY>
RYDFMWITJUKZON-CDZUIXILSA-N
> <PUBCHEM_XLOGP3_AA>
5.7
> <PUBCHEM_EXACT_MASS>
596.33962720
> <PUBCHEM_MOLECULAR_FORMULA>
C33H48N4O4S
> <PUBCHEM_MOLECULAR_WEIGHT>
596.8
> <PUBCHEM_OPENEYE_CAN_SMILES>
CC(C)CNC(CC1=CC2=CC=CC=C2C=C1)C(=O)NCCCCC(CO)N(CC(C)C)S(=O)(=O)C3=CC=C(C=C3)N
> <PUBCHEM_OPENEYE_ISO_SMILES>
CC(C)CN[C@@H](CC1=CC2=CC=CC=C2C=C1)C(=O)NCCCC[C@@H](CO)N(CC(C)C)S(=O)(=O)C3=CC=C(C=C3)N
> <PUBCHEM_CACTVS_TPSA>
133
> <PUBCHEM_MONOISOTOPIC_WEIGHT>
596.33962720
> <PUBCHEM_TOTAL_CHARGE>
0
> <PUBCHEM_HEAVY_ATOM_COUNT>
42
> <PUBCHEM_ATOM_DEF_STEREO_COUNT>
2
> <PUBCHEM_ATOM_UDEF_STEREO_COUNT>
0
> <PUBCHEM_BOND_DEF_STEREO_COUNT>
0
> <PUBCHEM_BOND_UDEF_STEREO_COUNT>
0
> <PUBCHEM_ISOTOPIC_ATOM_COUNT>
0
> <PUBCHEM_COMPONENT_COUNT>
1
> <PUBCHEM_CACTVS_TAUTO_COUNT>
-1
> <PUBCHEM_COORDINATE_TYPE>
1
5
255
> <PUBCHEM_BONDANNOTATIONS>
18  24  8
18  25  8
24  29  8
25  30  8
28  34  8
28  35  8
29  31  8
30  31  8
34  36  8
35  38  8
36  37  8
36  39  8
37  38  8
37  40  8
39  41  8
40  42  8
41  42  8
10  6  5
21  8  5
$$$$
