513901
  -OEChem-10302200282D
 44 47  0     1  0  0  0  0  0999 V2000
    2.5369   -1.3282    0.0000 O   0  0  0  0  0  0  0  0  0  0  0  0
    3.4030   -2.8282    0.0000 O   0  0  0  0  0  0  0  0  0  0  0  0
    6.9473   -0.0234    0.0000 N   0  0  0  0  0  0  0  0  0  0  0  0
    6.9473   -1.6329    0.0000 N   0  0  0  0  0  0  0  0  0  0  0  0
    9.0309    0.0379    0.0000 N   0  0  0  0  0  0  0  0  0  0  0  0
    7.2579    0.9271    0.0000 C   0  0  1  0  0  0  0  0  0  0  0  0
    8.2364    1.1333    0.0000 C   0  0  0  0  0  0  0  0  0  0  0  0
    8.5471    2.0838    0.0000 C   0  0  0  0  0  0  0  0  0  0  0  0
    6.5901    1.6714    0.0000 C   0  0  0  0  0  0  0  0  0  0  0  0
    7.8792    2.8282    0.0000 C   0  0  0  0  0  0  0  0  0  0  0  0
    6.9007    2.6219    0.0000 C   0  0  0  0  0  0  0  0  0  0  0  0
    6.0010   -0.3281    0.0000 C   0  0  0  0  0  0  0  0  0  0  0  0
    7.5309   -0.8281    0.0000 C   0  0  0  0  0  0  0  0  0  0  0  0
    6.0010   -1.3282    0.0000 C   0  0  0  0  0  0  0  0  0  0  0  0
    5.6116    1.4652    0.0000 C   0  0  0  0  0  0  0  0  0  0  0  0
    5.1350    0.1719    0.0000 C   0  0  0  0  0  0  0  0  0  0  0  0
    8.5309   -0.8281    0.0000 C   0  0  0  0  0  0  0  0  0  0  0  0
    5.1350   -1.8282    0.0000 C   0  0  0  0  0  0  0  0  0  0  0  0
    4.2690   -0.3281    0.0000 C   0  0  0  0  0  0  0  0  0  0  0  0
    4.2690   -1.3282    0.0000 C   0  0  0  0  0  0  0  0  0  0  0  0
    9.0309   -1.6942    0.0000 C   0  0  0  0  0  0  0  0  0  0  0  0
    3.4030   -1.8282    0.0000 C   0  0  0  0  0  0  0  0  0  0  0  0
   10.0309   -1.6942    0.0000 C   0  0  0  0  0  0  0  0  0  0  0  0
   10.0309    0.0379    0.0000 C   0  0  0  0  0  0  0  0  0  0  0  0
   10.5309   -0.8281    0.0000 C   0  0  0  0  0  0  0  0  0  0  0  0
    6.6512    0.7992    0.0000 H   0  0  0  0  0  0  0  0  0  0  0  0
    8.2570    0.5137    0.0000 H   0  0  0  0  0  0  0  0  0  0  0  0
    8.8502    1.0460    0.0000 H   0  0  0  0  0  0  0  0  0  0  0  0
    9.0940    1.7918    0.0000 H   0  0  0  0  0  0  0  0  0  0  0  0
    8.9296    2.5718    0.0000 H   0  0  0  0  0  0  0  0  0  0  0  0
    8.4056    3.1558    0.0000 H   0  0  0  0  0  0  0  0  0  0  0  0
    7.6480    3.4034    0.0000 H   0  0  0  0  0  0  0  0  0  0  0  0
    6.8802    3.2416    0.0000 H   0  0  0  0  0  0  0  0  0  0  0  0
    6.2869    2.7093    0.0000 H   0  0  0  0  0  0  0  0  0  0  0  0
    5.1975    1.9267    0.0000 H   0  0  0  0  0  0  0  0  0  0  0  0
    5.4190    0.8759    0.0000 H   0  0  0  0  0  0  0  0  0  0  0  0
    5.1350    0.7919    0.0000 H   0  0  0  0  0  0  0  0  0  0  0  0
    5.1350   -2.4482    0.0000 H   0  0  0  0  0  0  0  0  0  0  0  0
    3.7320   -0.0181    0.0000 H   0  0  0  0  0  0  0  0  0  0  0  0
    8.7209   -2.2311    0.0000 H   0  0  0  0  0  0  0  0  0  0  0  0
   10.3409   -2.2311    0.0000 H   0  0  0  0  0  0  0  0  0  0  0  0
   10.3409    0.5748    0.0000 H   0  0  0  0  0  0  0  0  0  0  0  0
   11.1509   -0.8281    0.0000 H   0  0  0  0  0  0  0  0  0  0  0  0
    2.0000   -1.6382    0.0000 H   0  0  0  0  0  0  0  0  0  0  0  0
  1 22  1  0  0  0  0
  1 44  1  0  0  0  0
  2 22  2  0  0  0  0
  6  3  1  6  0  0  0
  3 12  1  0  0  0  0
  3 13  1  0  0  0  0
  4 13  2  0  0  0  0
  4 14  1  0  0  0  0
  5 17  1  0  0  0  0
  5 24  2  0  0  0  0
  6  7  1  0  0  0  0
  6  9  1  0  0  0  0
  6 26  1  0  0  0  0
  7  8  1  0  0  0  0
  7 27  1  0  0  0  0
  7 28  1  0  0  0  0
  8 10  1  0  0  0  0
  8 29  1  0  0  0  0
  8 30  1  0  0  0  0
  9 11  1  0  0  0  0
  9 15  2  0  0  0  0
 10 11  1  0  0  0  0
 10 31  1  0  0  0  0
 10 32  1  0  0  0  0
 11 33  1  0  0  0  0
 11 34  1  0  0  0  0
 12 14  2  0  0  0  0
 12 16  1  0  0  0  0
 13 17  1  0  0  0  0
 14 18  1  0  0  0  0
 15 35  1  0  0  0  0
 15 36  1  0  0  0  0
 16 19  2  0  0  0  0
 16 37  1  0  0  0  0
 17 21  2  0  0  0  0
 18 20  2  0  0  0  0
 18 38  1  0  0  0  0
 19 20  1  0  0  0  0
 19 39  1  0  0  0  0
 20 22  1  0  0  0  0
 21 23  1  0  0  0  0
 21 40  1  0  0  0  0
 23 25  2  0  0  0  0
 23 41  1  0  0  0  0
 24 25  1  0  0  0  0
 24 42  1  0  0  0  0
 25 43  1  0  0  0  0
M  END
> <PUBCHEM_COMPOUND_CID>
513901
> <PUBCHEM_COMPOUND_CANONICALIZED>
1
> <PUBCHEM_CACTVS_COMPLEXITY>
523
> <PUBCHEM_CACTVS_HBOND_ACCEPTOR>
4
> <PUBCHEM_CACTVS_HBOND_DONOR>
1
> <PUBCHEM_CACTVS_ROTATABLE_BOND>
3
> <PUBCHEM_CACTVS_SUBSKEYS>
AAADceB7MAAAAAAAAAAAAAAAAAAAAWAAAAA8YIAAAAAAAFgB/AAAHgAACAAADCjBnwQ92LcMEgCoAzb3bACCgC01EqAJ2CE4fNiIbvLAnZGUcQhswAPI2ae82SOeCAAAQAAAACAQAACAAAAAQAAAAAAAAA==
> <PUBCHEM_IUPAC_OPENEYE_NAME>
1-[(1S)-2-methylenecyclohexyl]-2-(2-pyridyl)benzimidazole-5-carboxylic acid
> <PUBCHEM_IUPAC_CAS_NAME>
1-[(1S)-2-methylenecyclohexyl]-2-(2-pyridinyl)-5-benzimidazolecarboxylic acid
> <PUBCHEM_IUPAC_NAME_MARKUP>
1-[(1<I>S</I>)-2-methylidenecyclohexyl]-2-pyridin-2-ylbenzimidazole-5-carboxylic acid
> <PUBCHEM_IUPAC_NAME>
1-[(1S)-2-methylidenecyclohexyl]-2-pyridin-2-ylbenzimidazole-5-carboxylic acid
> <PUBCHEM_IUPAC_SYSTEMATIC_NAME>
1-[(1S)-2-methylidenecyclohexyl]-2-pyridin-2-yl-benzimidazole-5-carboxylic acid
> <PUBCHEM_IUPAC_TRADITIONAL_NAME>
1-[(1S)-2-methylenecyclohexyl]-2-(2-pyridyl)benzimidazole-5-carboxylic acid
> <PUBCHEM_IUPAC_INCHI>
InChI=1S/C20H19N3O2/c1-13-6-2-3-8-17(13)23-18-10-9-14(20(24)25)12-16(18)22-19(23)15-7-4-5-11-21-15/h4-5,7,9-12,17H,1-3,6,8H2,(H,24,25)/t17-/m0/s1
> <PUBCHEM_IUPAC_INCHIKEY>
RFKVTSRAYSVYCD-KRWDZBQOSA-N
> <PUBCHEM_XLOGP3_AA>
3.3
> <PUBCHEM_EXACT_MASS>
333.147726857
> <PUBCHEM_MOLECULAR_FORMULA>
C20H19N3O2
> <PUBCHEM_MOLECULAR_WEIGHT>
333.4
> <PUBCHEM_OPENEYE_CAN_SMILES>
C=C1CCCCC1N2C3=C(C=C(C=C3)C(=O)O)N=C2C4=CC=CC=N4
> <PUBCHEM_OPENEYE_ISO_SMILES>
C=C1CCCC[C@@H]1N2C3=C(C=C(C=C3)C(=O)O)N=C2C4=CC=CC=N4
> <PUBCHEM_CACTVS_TPSA>
68
> <PUBCHEM_MONOISOTOPIC_WEIGHT>
333.147726857
> <PUBCHEM_TOTAL_CHARGE>
0
> <PUBCHEM_HEAVY_ATOM_COUNT>
25
> <PUBCHEM_ATOM_DEF_STEREO_COUNT>
1
> <PUBCHEM_ATOM_UDEF_STEREO_COUNT>
0
> <PUBCHEM_BOND_DEF_STEREO_COUNT>
0
> <PUBCHEM_BOND_UDEF_STEREO_COUNT>
0
> <PUBCHEM_ISOTOPIC_ATOM_COUNT>
0
> <PUBCHEM_COMPONENT_COUNT>
1
> <PUBCHEM_CACTVS_TAUTO_COUNT>
-1
> <PUBCHEM_COORDINATE_TYPE>
1
5
255
> <PUBCHEM_BONDANNOTATIONS>
12  14  8
12  16  8
14  18  8
16  19  8
17  21  8
18  20  8
19  20  8
21  23  8
23  25  8
24  25  8
3  12  8
3  13  8
6  3  6
4  13  8
4  14  8
5  17  8
5  24  8
$$$$
