513980
  -OEChem-10302200282D
 88 90  0     1  0  0  0  0  0999 V2000
    4.2690   -3.2500    0.0000 S   0  0  0  0  0  0  0  0  0  0  0  0
    4.2690   -7.2500    0.0000 F   0  0  0  0  0  0  0  0  0  0  0  0
    6.8671   -1.7500    0.0000 O   0  0  0  0  0  0  0  0  0  0  0  0
    5.2690   -3.2500    0.0000 O   0  0  0  0  0  0  0  0  0  0  0  0
    3.2690   -3.2500    0.0000 O   0  0  0  0  0  0  0  0  0  0  0  0
    8.5991    2.2500    0.0000 O   0  0  0  0  0  0  0  0  0  0  0  0
    5.3671    5.1161    0.0000 O   0  0  0  0  0  0  0  0  0  0  0  0
    5.3671    3.3839    0.0000 O   0  0  0  0  0  0  0  0  0  0  0  0
    4.2690   -2.2500    0.0000 N   0  0  3  0  0  0  0  0  0  0  0  0
    6.8671    2.2500    0.0000 N   0  0  0  0  0  0  0  0  0  0  0  0
    6.8671    4.2500    0.0000 N   0  0  0  0  0  0  0  0  0  0  0  0
    2.5369   -6.2500    0.0000 N   0  0  0  0  0  0  0  0  0  0  0  0
    5.1350   -1.7500    0.0000 C   0  0  1  0  0  0  0  0  0  0  0  0
    5.1350   -0.7500    0.0000 C   0  0  0  0  0  0  0  0  0  0  0  0
    3.4030   -1.7500    0.0000 C   0  0  0  0  0  0  0  0  0  0  0  0
    6.0010   -0.2500    0.0000 C   0  0  0  0  0  0  0  0  0  0  0  0
    3.4030   -0.7500    0.0000 C   0  0  0  0  0  0  0  0  0  0  0  0
    6.0010   -2.2500    0.0000 C   0  0  0  0  0  0  0  0  0  0  0  0
    6.0010    0.7500    0.0000 C   0  0  0  0  0  0  0  0  0  0  0  0
    6.8671    1.2500    0.0000 C   0  0  0  0  0  0  0  0  0  0  0  0
    4.2690   -4.2500    0.0000 C   0  0  0  0  0  0  0  0  0  0  0  0
    2.5369   -0.2500    0.0000 C   0  0  0  0  0  0  0  0  0  0  0  0
    4.2690   -0.2500    0.0000 C   0  0  0  0  0  0  0  0  0  0  0  0
    7.7331    3.7500    0.0000 C   0  0  1  0  0  0  0  0  0  0  0  0
    8.5991    4.2500    0.0000 C   0  0  0  0  0  0  0  0  0  0  0  0
    7.7331    2.7500    0.0000 C   0  0  0  0  0  0  0  0  0  0  0  0
    3.4030   -4.7500    0.0000 C   0  0  0  0  0  0  0  0  0  0  0  0
    5.1350   -4.7500    0.0000 C   0  0  0  0  0  0  0  0  0  0  0  0
    8.5991    5.2500    0.0000 C   0  0  0  0  0  0  0  0  0  0  0  0
    9.4651    3.7500    0.0000 C   0  0  0  0  0  0  0  0  0  0  0  0
    3.4030   -5.7500    0.0000 C   0  0  0  0  0  0  0  0  0  0  0  0
    5.1350   -5.7500    0.0000 C   0  0  0  0  0  0  0  0  0  0  0  0
    4.2690   -6.2500    0.0000 C   0  0  0  0  0  0  0  0  0  0  0  0
    7.7331    5.7500    0.0000 C   0  0  0  0  0  0  0  0  0  0  0  0
   10.3312    4.2500    0.0000 C   0  0  0  0  0  0  0  0  0  0  0  0
    9.4651    5.7500    0.0000 C   0  0  0  0  0  0  0  0  0  0  0  0
    9.4651    2.7500    0.0000 C   0  0  0  0  0  0  0  0  0  0  0  0
    5.8671    4.2500    0.0000 C   0  0  0  0  0  0  0  0  0  0  0  0
    7.7331    6.7500    0.0000 C   0  0  0  0  0  0  0  0  0  0  0  0
   11.1972    3.7500    0.0000 C   0  0  0  0  0  0  0  0  0  0  0  0
    9.4651    6.7500    0.0000 C   0  0  0  0  0  0  0  0  0  0  0  0
   10.3312    2.2500    0.0000 C   0  0  0  0  0  0  0  0  0  0  0  0
    8.5991    7.2500    0.0000 C   0  0  0  0  0  0  0  0  0  0  0  0
   11.1972    2.7500    0.0000 C   0  0  0  0  0  0  0  0  0  0  0  0
    4.3671    5.1161    0.0000 C   0  0  0  0  0  0  0  0  0  0  0  0
    5.1350   -2.3700    0.0000 H   0  0  0  0  0  0  0  0  0  0  0  0
    4.9230   -0.1674    0.0000 H   0  0  0  0  0  0  0  0  0  0  0  0
    4.5244   -0.8577    0.0000 H   0  0  0  0  0  0  0  0  0  0  0  0
    2.7924   -1.6423    0.0000 H   0  0  0  0  0  0  0  0  0  0  0  0
    3.1909   -2.3326    0.0000 H   0  0  0  0  0  0  0  0  0  0  0  0
    6.2131   -0.8326    0.0000 H   0  0  0  0  0  0  0  0  0  0  0  0
    6.6116   -0.1423    0.0000 H   0  0  0  0  0  0  0  0  0  0  0  0
    3.4030   -0.1300    0.0000 H   0  0  0  0  0  0  0  0  0  0  0  0
    5.6025   -2.7250    0.0000 H   0  0  0  0  0  0  0  0  0  0  0  0
    6.3996   -2.7250    0.0000 H   0  0  0  0  0  0  0  0  0  0  0  0
    5.7890    1.3326    0.0000 H   0  0  0  0  0  0  0  0  0  0  0  0
    5.3905    0.6423    0.0000 H   0  0  0  0  0  0  0  0  0  0  0  0
    7.0791    0.6674    0.0000 H   0  0  0  0  0  0  0  0  0  0  0  0
    7.4776    1.3577    0.0000 H   0  0  0  0  0  0  0  0  0  0  0  0
    2.8469    0.2869    0.0000 H   0  0  0  0  0  0  0  0  0  0  0  0
    2.0000    0.0600    0.0000 H   0  0  0  0  0  0  0  0  0  0  0  0
    2.2269   -0.7869    0.0000 H   0  0  0  0  0  0  0  0  0  0  0  0
    4.5790   -0.7869    0.0000 H   0  0  0  0  0  0  0  0  0  0  0  0
    4.8059    0.0600    0.0000 H   0  0  0  0  0  0  0  0  0  0  0  0
    3.9590    0.2869    0.0000 H   0  0  0  0  0  0  0  0  0  0  0  0
    7.7331    4.3700    0.0000 H   0  0  0  0  0  0  0  0  0  0  0  0
    8.5991    3.6300    0.0000 H   0  0  0  0  0  0  0  0  0  0  0  0
    6.2471    2.2500    0.0000 H   0  0  0  0  0  0  0  0  0  0  0  0
    7.4040   -2.0600    0.0000 H   0  0  0  0  0  0  0  0  0  0  0  0
    2.8660   -4.4400    0.0000 H   0  0  0  0  0  0  0  0  0  0  0  0
    5.6720   -4.4400    0.0000 H   0  0  0  0  0  0  0  0  0  0  0  0
    6.8671    4.8700    0.0000 H   0  0  0  0  0  0  0  0  0  0  0  0
    5.6720   -6.0600    0.0000 H   0  0  0  0  0  0  0  0  0  0  0  0
    7.1962    5.4400    0.0000 H   0  0  0  0  0  0  0  0  0  0  0  0
   10.3312    4.8700    0.0000 H   0  0  0  0  0  0  0  0  0  0  0  0
   10.0021    5.4400    0.0000 H   0  0  0  0  0  0  0  0  0  0  0  0
    8.9282    2.4400    0.0000 H   0  0  0  0  0  0  0  0  0  0  0  0
    7.1962    7.0600    0.0000 H   0  0  0  0  0  0  0  0  0  0  0  0
   11.7341    4.0600    0.0000 H   0  0  0  0  0  0  0  0  0  0  0  0
   10.0021    7.0600    0.0000 H   0  0  0  0  0  0  0  0  0  0  0  0
   10.3312    1.6300    0.0000 H   0  0  0  0  0  0  0  0  0  0  0  0
    2.0000   -5.9400    0.0000 H   0  0  0  0  0  0  0  0  0  0  0  0
    2.5369   -6.8700    0.0000 H   0  0  0  0  0  0  0  0  0  0  0  0
    8.5991    7.8700    0.0000 H   0  0  0  0  0  0  0  0  0  0  0  0
   11.7341    2.4400    0.0000 H   0  0  0  0  0  0  0  0  0  0  0  0
    4.3671    5.7361    0.0000 H   0  0  0  0  0  0  0  0  0  0  0  0
    3.7471    5.1161    0.0000 H   0  0  0  0  0  0  0  0  0  0  0  0
    4.3671    4.4961    0.0000 H   0  0  0  0  0  0  0  0  0  0  0  0
  1  4  2  0  0  0  0
  1  5  2  0  0  0  0
  1  9  1  0  0  0  0
  1 21  1  0  0  0  0
  2 33  1  0  0  0  0
  3 18  1  0  0  0  0
  3 69  1  0  0  0  0
  6 26  2  0  0  0  0
  7 38  1  0  0  0  0
  7 45  1  0  0  0  0
  8 38  2  0  0  0  0
 13  9  1  1  0  0  0
  9 15  1  0  0  0  0
 10 20  1  0  0  0  0
 10 26  1  0  0  0  0
 10 68  1  0  0  0  0
 24 11  1  1  0  0  0
 11 38  1  0  0  0  0
 11 72  1  0  0  0  0
 12 31  1  0  0  0  0
 12 82  1  0  0  0  0
 12 83  1  0  0  0  0
 13 14  1  0  0  0  0
 13 18  1  0  0  0  0
 13 46  1  0  0  0  0
 14 16  1  0  0  0  0
 14 47  1  0  0  0  0
 14 48  1  0  0  0  0
 15 17  1  0  0  0  0
 15 49  1  0  0  0  0
 15 50  1  0  0  0  0
 16 19  1  0  0  0  0
 16 51  1  0  0  0  0
 16 52  1  0  0  0  0
 17 22  1  0  0  0  0
 17 23  1  0  0  0  0
 17 53  1  0  0  0  0
 18 54  1  0  0  0  0
 18 55  1  0  0  0  0
 19 20  1  0  0  0  0
 19 56  1  0  0  0  0
 19 57  1  0  0  0  0
 20 58  1  0  0  0  0
 20 59  1  0  0  0  0
 21 27  2  0  0  0  0
 21 28  1  0  0  0  0
 22 60  1  0  0  0  0
 22 61  1  0  0  0  0
 22 62  1  0  0  0  0
 23 63  1  0  0  0  0
 23 64  1  0  0  0  0
 23 65  1  0  0  0  0
 24 25  1  0  0  0  0
 24 26  1  0  0  0  0
 24 66  1  0  0  0  0
 25 29  1  0  0  0  0
 25 30  1  0  0  0  0
 25 67  1  0  0  0  0
 27 31  1  0  0  0  0
 27 70  1  0  0  0  0
 28 32  2  0  0  0  0
 28 71  1  0  0  0  0
 29 34  2  0  0  0  0
 29 36  1  0  0  0  0
 30 35  2  0  0  0  0
 30 37  1  0  0  0  0
 31 33  2  0  0  0  0
 32 33  1  0  0  0  0
 32 73  1  0  0  0  0
 34 39  1  0  0  0  0
 34 74  1  0  0  0  0
 35 40  1  0  0  0  0
 35 75  1  0  0  0  0
 36 41  2  0  0  0  0
 36 76  1  0  0  0  0
 37 42  2  0  0  0  0
 37 77  1  0  0  0  0
 39 43  2  0  0  0  0
 39 78  1  0  0  0  0
 40 44  2  0  0  0  0
 40 79  1  0  0  0  0
 41 43  1  0  0  0  0
 41 80  1  0  0  0  0
 42 44  1  0  0  0  0
 42 81  1  0  0  0  0
 43 84  1  0  0  0  0
 44 85  1  0  0  0  0
 45 86  1  0  0  0  0
 45 87  1  0  0  0  0
 45 88  1  0  0  0  0
M  END
> <PUBCHEM_COMPOUND_CID>
513980
> <PUBCHEM_COMPOUND_CANONICALIZED>
1
> <PUBCHEM_CACTVS_COMPLEXITY>
982
> <PUBCHEM_CACTVS_HBOND_ACCEPTOR>
9
> <PUBCHEM_CACTVS_HBOND_DONOR>
4
> <PUBCHEM_CACTVS_ROTATABLE_BOND>
17
> <PUBCHEM_CACTVS_SUBSKEYS>
AAADcfB/uQBAAAAAAAAAAAAAAAAAAAAAAAAwYMAAAAAAAAABUAAAHwQQSAAADSjh2A4yyYLABgKIAiVSWHDCABAgAgAIiJmIZIkKcDKAkbGUYARklgCYyAeYyMCOgAAAACAAAAAAAAAAQAAAAAAAAAAAAA==
> <PUBCHEM_IUPAC_OPENEYE_NAME>
methyl N-[(1S)-1-[[(5S)-5-[(3-amino-4-fluoro-phenyl)sulfonyl-isobutyl-amino]-6-hydroxy-hexyl]carbamoyl]-2,2-diphenyl-ethyl]carbamate
> <PUBCHEM_IUPAC_CAS_NAME>
N-[(2S)-1-[[(5S)-5-[(3-amino-4-fluorophenyl)sulfonyl-(2-methylpropyl)amino]-6-hydroxyhexyl]amino]-1-oxo-3,3-diphenylpropan-2-yl]carbamic acid methyl ester
> <PUBCHEM_IUPAC_NAME_MARKUP>
methyl <I>N</I>-[(2<I>S</I>)-1-[[(5<I>S</I>)-5-[(3-amino-4-fluorophenyl)sulfonyl-(2-methylpropyl)amino]-6-hydroxyhexyl]amino]-1-oxo-3,3-diphenylpropan-2-yl]carbamate
> <PUBCHEM_IUPAC_NAME>
methyl N-[(2S)-1-[[(5S)-5-[(3-amino-4-fluorophenyl)sulfonyl-(2-methylpropyl)amino]-6-hydroxyhexyl]amino]-1-oxo-3,3-diphenylpropan-2-yl]carbamate
> <PUBCHEM_IUPAC_SYSTEMATIC_NAME>
methyl N-[(2S)-1-[[(5S)-5-[(3-azanyl-4-fluoranyl-phenyl)sulfonyl-(2-methylpropyl)amino]-6-oxidanyl-hexyl]amino]-1-oxidanylidene-3,3-diphenyl-propan-2-yl]carbamate
> <PUBCHEM_IUPAC_TRADITIONAL_NAME>
N-[(1S)-1-[[(5S)-5-[(3-amino-4-fluoro-phenyl)sulfonyl-isobutyl-amino]-6-hydroxy-hexyl]carbamoyl]-2,2-diphenyl-ethyl]carbamic acid methyl ester
> <PUBCHEM_IUPAC_INCHI>
InChI=1S/C33H43FN4O6S/c1-23(2)21-38(45(42,43)27-17-18-28(34)29(35)20-27)26(22-39)16-10-11-19-36-32(40)31(37-33(41)44-3)30(24-12-6-4-7-13-24)25-14-8-5-9-15-25/h4-9,12-15,17-18,20,23,26,30-31,39H,10-11,16,19,21-22,35H2,1-3H3,(H,36,40)(H,37,41)/t26-,31-/m0/s1
> <PUBCHEM_IUPAC_INCHIKEY>
SWNMNYRCVOLDBY-HVNZXBJASA-N
> <PUBCHEM_XLOGP3_AA>
4.8
> <PUBCHEM_EXACT_MASS>
642.28873444
> <PUBCHEM_MOLECULAR_FORMULA>
C33H43FN4O6S
> <PUBCHEM_MOLECULAR_WEIGHT>
642.8
> <PUBCHEM_OPENEYE_CAN_SMILES>
CC(C)CN(C(CCCCNC(=O)C(C(C1=CC=CC=C1)C2=CC=CC=C2)NC(=O)OC)CO)S(=O)(=O)C3=CC(=C(C=C3)F)N
> <PUBCHEM_OPENEYE_ISO_SMILES>
CC(C)CN([C@@H](CCCCNC(=O)[C@H](C(C1=CC=CC=C1)C2=CC=CC=C2)NC(=O)OC)CO)S(=O)(=O)C3=CC(=C(C=C3)F)N
> <PUBCHEM_CACTVS_TPSA>
159
> <PUBCHEM_MONOISOTOPIC_WEIGHT>
642.28873444
> <PUBCHEM_TOTAL_CHARGE>
0
> <PUBCHEM_HEAVY_ATOM_COUNT>
45
> <PUBCHEM_ATOM_DEF_STEREO_COUNT>
2
> <PUBCHEM_ATOM_UDEF_STEREO_COUNT>
0
> <PUBCHEM_BOND_DEF_STEREO_COUNT>
0
> <PUBCHEM_BOND_UDEF_STEREO_COUNT>
0
> <PUBCHEM_ISOTOPIC_ATOM_COUNT>
0
> <PUBCHEM_COMPONENT_COUNT>
1
> <PUBCHEM_CACTVS_TAUTO_COUNT>
-1
> <PUBCHEM_COORDINATE_TYPE>
1
5
255
> <PUBCHEM_BONDANNOTATIONS>
24  11  5
21  27  8
21  28  8
27  31  8
28  32  8
29  34  8
29  36  8
30  35  8
30  37  8
31  33  8
32  33  8
34  39  8
35  40  8
36  41  8
37  42  8
39  43  8
40  44  8
41  43  8
42  44  8
13  9  5
$$$$
