513959
  -OEChem-10302200282D
 91 94  0     1  0  0  0  0  0999 V2000
    3.7320    2.9462    0.0000 S   0  0  0  0  0  0  0  0  0  0  0  0
    4.3814   -7.2562    0.0000 O   0  0  0  0  0  0  0  0  0  0  0  0
    6.3301    1.4462    0.0000 O   0  0  0  0  0  0  0  0  0  0  0  0
    2.7320    2.9462    0.0000 O   0  0  0  0  0  0  0  0  0  0  0  0
    4.7320    2.9462    0.0000 O   0  0  0  0  0  0  0  0  0  0  0  0
    7.1962   -6.0538    0.0000 O   0  0  0  0  0  0  0  0  0  0  0  0
    8.0622   -2.5538    0.0000 O   0  0  0  0  0  0  0  0  0  0  0  0
    3.7320    1.9462    0.0000 N   0  0  3  0  0  0  0  0  0  0  0  0
    6.3301   -2.5538    0.0000 N   0  0  0  0  0  0  0  0  0  0  0  0
    6.3301   -4.5538    0.0000 N   0  0  0  0  0  0  0  0  0  0  0  0
    3.7320    6.9462    0.0000 N   0  0  0  0  0  0  0  0  0  0  0  0
    4.5981    1.4462    0.0000 C   0  0  1  0  0  0  0  0  0  0  0  0
    4.5981    0.4462    0.0000 C   0  0  0  0  0  0  0  0  0  0  0  0
    2.8660    1.4462    0.0000 C   0  0  0  0  0  0  0  0  0  0  0  0
    5.4641   -0.0538    0.0000 C   0  0  0  0  0  0  0  0  0  0  0  0
    2.8660    0.4462    0.0000 C   0  0  0  0  0  0  0  0  0  0  0  0
    5.4641    1.9462    0.0000 C   0  0  0  0  0  0  0  0  0  0  0  0
    5.4641   -1.0538    0.0000 C   0  0  0  0  0  0  0  0  0  0  0  0
    5.4641   -6.0538    0.0000 C   0  0  3  0  0  0  0  0  0  0  0  0
    6.3301   -1.5538    0.0000 C   0  0  0  0  0  0  0  0  0  0  0  0
    4.5506   -5.6470    0.0000 C   0  0  0  0  0  0  0  0  0  0  0  0
    3.7320    3.9462    0.0000 C   0  0  0  0  0  0  0  0  0  0  0  0
    2.0000   -0.0538    0.0000 C   0  0  0  0  0  0  0  0  0  0  0  0
    3.7320   -0.0538    0.0000 C   0  0  0  0  0  0  0  0  0  0  0  0
    7.1962   -4.0538    0.0000 C   0  0  1  0  0  0  0  0  0  0  0  0
    5.3596   -7.0483    0.0000 C   0  0  0  0  0  0  0  0  0  0  0  0
    3.8814   -6.3902    0.0000 C   0  0  0  0  0  0  0  0  0  0  0  0
    6.3301   -5.5538    0.0000 C   0  0  0  0  0  0  0  0  0  0  0  0
    8.0622   -4.5538    0.0000 C   0  0  0  0  0  0  0  0  0  0  0  0
    7.1962   -3.0538    0.0000 C   0  0  0  0  0  0  0  0  0  0  0  0
    4.5981    4.4462    0.0000 C   0  0  0  0  0  0  0  0  0  0  0  0
    2.8660    4.4462    0.0000 C   0  0  0  0  0  0  0  0  0  0  0  0
    8.9282   -4.0538    0.0000 C   0  0  0  0  0  0  0  0  0  0  0  0
    4.5981    5.4462    0.0000 C   0  0  0  0  0  0  0  0  0  0  0  0
    2.8660    5.4462    0.0000 C   0  0  0  0  0  0  0  0  0  0  0  0
    3.7320    5.9462    0.0000 C   0  0  0  0  0  0  0  0  0  0  0  0
    9.7942   -4.5538    0.0000 C   0  0  0  0  0  0  0  0  0  0  0  0
    8.9282   -3.0538    0.0000 C   0  0  0  0  0  0  0  0  0  0  0  0
   10.6603   -4.0538    0.0000 C   0  0  0  0  0  0  0  0  0  0  0  0
   10.6603   -3.0538    0.0000 C   0  0  0  0  0  0  0  0  0  0  0  0
    9.7942   -2.5538    0.0000 C   0  0  0  0  0  0  0  0  0  0  0  0
   11.5542   -4.5884    0.0000 C   0  0  0  0  0  0  0  0  0  0  0  0
   11.5542   -2.5191    0.0000 C   0  0  0  0  0  0  0  0  0  0  0  0
   12.4603   -4.0746    0.0000 C   0  0  0  0  0  0  0  0  0  0  0  0
   12.4603   -3.0330    0.0000 C   0  0  0  0  0  0  0  0  0  0  0  0
    4.5981    2.0662    0.0000 H   0  0  0  0  0  0  0  0  0  0  0  0
    3.9875    0.5539    0.0000 H   0  0  0  0  0  0  0  0  0  0  0  0
    4.3860   -0.1364    0.0000 H   0  0  0  0  0  0  0  0  0  0  0  0
    2.6540    2.0288    0.0000 H   0  0  0  0  0  0  0  0  0  0  0  0
    2.2554    1.3385    0.0000 H   0  0  0  0  0  0  0  0  0  0  0  0
    6.0747   -0.1614    0.0000 H   0  0  0  0  0  0  0  0  0  0  0  0
    5.6762    0.5288    0.0000 H   0  0  0  0  0  0  0  0  0  0  0  0
    2.8660   -0.1738    0.0000 H   0  0  0  0  0  0  0  0  0  0  0  0
    5.8626    2.4212    0.0000 H   0  0  0  0  0  0  0  0  0  0  0  0
    5.0656    2.4212    0.0000 H   0  0  0  0  0  0  0  0  0  0  0  0
    4.8535   -0.9461    0.0000 H   0  0  0  0  0  0  0  0  0  0  0  0
    5.2520   -1.6364    0.0000 H   0  0  0  0  0  0  0  0  0  0  0  0
    5.9841   -6.3915    0.0000 H   0  0  0  0  0  0  0  0  0  0  0  0
    6.9407   -1.6614    0.0000 H   0  0  0  0  0  0  0  0  0  0  0  0
    6.5422   -0.9712    0.0000 H   0  0  0  0  0  0  0  0  0  0  0  0
    4.8606   -5.1101    0.0000 H   0  0  0  0  0  0  0  0  0  0  0  0
    4.0490   -5.2826    0.0000 H   0  0  0  0  0  0  0  0  0  0  0  0
    1.6900    0.4832    0.0000 H   0  0  0  0  0  0  0  0  0  0  0  0
    1.4631   -0.3638    0.0000 H   0  0  0  0  0  0  0  0  0  0  0  0
    2.3100   -0.5907    0.0000 H   0  0  0  0  0  0  0  0  0  0  0  0
    3.4220   -0.5907    0.0000 H   0  0  0  0  0  0  0  0  0  0  0  0
    4.2690   -0.3638    0.0000 H   0  0  0  0  0  0  0  0  0  0  0  0
    4.0420    0.4832    0.0000 H   0  0  0  0  0  0  0  0  0  0  0  0
    6.6592   -3.7438    0.0000 H   0  0  0  0  0  0  0  0  0  0  0  0
    5.4244   -7.6649    0.0000 H   0  0  0  0  0  0  0  0  0  0  0  0
    5.9796   -7.0483    0.0000 H   0  0  0  0  0  0  0  0  0  0  0  0
    3.4666   -5.9294    0.0000 H   0  0  0  0  0  0  0  0  0  0  0  0
    3.3798   -6.7546    0.0000 H   0  0  0  0  0  0  0  0  0  0  0  0
    5.7932   -2.8638    0.0000 H   0  0  0  0  0  0  0  0  0  0  0  0
    5.7932   -4.2438    0.0000 H   0  0  0  0  0  0  0  0  0  0  0  0
    7.6636   -5.0287    0.0000 H   0  0  0  0  0  0  0  0  0  0  0  0
    8.4607   -5.0287    0.0000 H   0  0  0  0  0  0  0  0  0  0  0  0
    6.8671    1.7562    0.0000 H   0  0  0  0  0  0  0  0  0  0  0  0
    5.1350    4.1362    0.0000 H   0  0  0  0  0  0  0  0  0  0  0  0
    2.3291    4.1362    0.0000 H   0  0  0  0  0  0  0  0  0  0  0  0
    5.1350    5.7562    0.0000 H   0  0  0  0  0  0  0  0  0  0  0  0
    2.3291    5.7562    0.0000 H   0  0  0  0  0  0  0  0  0  0  0  0
    9.7942   -5.1738    0.0000 H   0  0  0  0  0  0  0  0  0  0  0  0
    8.3913   -2.7438    0.0000 H   0  0  0  0  0  0  0  0  0  0  0  0
    9.7942   -1.9338    0.0000 H   0  0  0  0  0  0  0  0  0  0  0  0
   11.5470   -5.2084    0.0000 H   0  0  0  0  0  0  0  0  0  0  0  0
    3.1951    7.2562    0.0000 H   0  0  0  0  0  0  0  0  0  0  0  0
    4.2690    7.2562    0.0000 H   0  0  0  0  0  0  0  0  0  0  0  0
   11.5470   -1.8992    0.0000 H   0  0  0  0  0  0  0  0  0  0  0  0
   12.9960   -4.3867    0.0000 H   0  0  0  0  0  0  0  0  0  0  0  0
   12.9960   -2.7209    0.0000 H   0  0  0  0  0  0  0  0  0  0  0  0
  1  4  2  0  0  0  0
  1  5  2  0  0  0  0
  1  8  1  0  0  0  0
  1 22  1  0  0  0  0
  2 26  1  0  0  0  0
  2 27  1  0  0  0  0
  3 17  1  0  0  0  0
  3 78  1  0  0  0  0
  6 28  2  0  0  0  0
  7 30  2  0  0  0  0
 12  8  1  6  0  0  0
  8 14  1  0  0  0  0
  9 20  1  0  0  0  0
  9 30  1  0  0  0  0
  9 74  1  0  0  0  0
 25 10  1  6  0  0  0
 10 28  1  0  0  0  0
 10 75  1  0  0  0  0
 11 36  1  0  0  0  0
 11 87  1  0  0  0  0
 11 88  1  0  0  0  0
 12 13  1  0  0  0  0
 12 17  1  0  0  0  0
 12 46  1  0  0  0  0
 13 15  1  0  0  0  0
 13 47  1  0  0  0  0
 13 48  1  0  0  0  0
 14 16  1  0  0  0  0
 14 49  1  0  0  0  0
 14 50  1  0  0  0  0
 15 18  1  0  0  0  0
 15 51  1  0  0  0  0
 15 52  1  0  0  0  0
 16 23  1  0  0  0  0
 16 24  1  0  0  0  0
 16 53  1  0  0  0  0
 17 54  1  0  0  0  0
 17 55  1  0  0  0  0
 18 20  1  0  0  0  0
 18 56  1  0  0  0  0
 18 57  1  0  0  0  0
 19 21  1  0  0  0  0
 19 26  1  0  0  0  0
 19 28  1  0  0  0  0
 19 58  1  0  0  0  0
 20 59  1  0  0  0  0
 20 60  1  0  0  0  0
 21 27  1  0  0  0  0
 21 61  1  0  0  0  0
 21 62  1  0  0  0  0
 22 31  2  0  0  0  0
 22 32  1  0  0  0  0
 23 63  1  0  0  0  0
 23 64  1  0  0  0  0
 23 65  1  0  0  0  0
 24 66  1  0  0  0  0
 24 67  1  0  0  0  0
 24 68  1  0  0  0  0
 25 29  1  0  0  0  0
 25 30  1  0  0  0  0
 25 69  1  0  0  0  0
 26 70  1  0  0  0  0
 26 71  1  0  0  0  0
 27 72  1  0  0  0  0
 27 73  1  0  0  0  0
 29 33  1  0  0  0  0
 29 76  1  0  0  0  0
 29 77  1  0  0  0  0
 31 34  1  0  0  0  0
 31 79  1  0  0  0  0
 32 35  2  0  0  0  0
 32 80  1  0  0  0  0
 33 37  2  0  0  0  0
 33 38  1  0  0  0  0
 34 36  2  0  0  0  0
 34 81  1  0  0  0  0
 35 36  1  0  0  0  0
 35 82  1  0  0  0  0
 37 39  1  0  0  0  0
 37 83  1  0  0  0  0
 38 41  2  0  0  0  0
 38 84  1  0  0  0  0
 39 40  1  0  0  0  0
 39 42  2  0  0  0  0
 40 41  1  0  0  0  0
 40 43  2  0  0  0  0
 41 85  1  0  0  0  0
 42 44  1  0  0  0  0
 42 86  1  0  0  0  0
 43 45  1  0  0  0  0
 43 89  1  0  0  0  0
 44 45  2  0  0  0  0
 44 90  1  0  0  0  0
 45 91  1  0  0  0  0
M  END
> <PUBCHEM_COMPOUND_CID>
513959
> <PUBCHEM_COMPOUND_CANONICALIZED>
1
> <PUBCHEM_CACTVS_COMPLEXITY>
1030
> <PUBCHEM_CACTVS_HBOND_ACCEPTOR>
8
> <PUBCHEM_CACTVS_HBOND_DONOR>
4
> <PUBCHEM_CACTVS_ROTATABLE_BOND>
16
> <PUBCHEM_CACTVS_SUBSKEYS>
AAADcfB/uABAAAAAAAAAAAAAAAAAASAAAAAwYMAAAAAAAADBVAAAHgQQSAAADSjh2AYywcLABgKIAiVSUHDCABAgAgAIiJmIZIgKcDaAkbGWYABmtgCYyAe6yMCOwAQCAAAQAACACAQAACAAAAAAAAAAAA==
> <PUBCHEM_IUPAC_OPENEYE_NAME>
N-[(1S)-2-[[(5S)-5-[(4-aminophenyl)sulfonyl-isobutyl-amino]-6-hydroxy-hexyl]amino]-1-(2-naphthylmethyl)-2-oxo-ethyl]tetrahydrofuran-3-carboxamide
> <PUBCHEM_IUPAC_CAS_NAME>
N-[(2S)-1-[[(5S)-5-[(4-aminophenyl)sulfonyl-(2-methylpropyl)amino]-6-hydroxyhexyl]amino]-3-(2-naphthalenyl)-1-oxopropan-2-yl]-3-oxolanecarboxamide
> <PUBCHEM_IUPAC_NAME_MARKUP>
<I>N</I>-[(2<I>S</I>)-1-[[(5<I>S</I>)-5-[(4-aminophenyl)sulfonyl-(2-methylpropyl)amino]-6-hydroxyhexyl]amino]-3-naphthalen-2-yl-1-oxopropan-2-yl]oxolane-3-carboxamide
> <PUBCHEM_IUPAC_NAME>
N-[(2S)-1-[[(5S)-5-[(4-aminophenyl)sulfonyl-(2-methylpropyl)amino]-6-hydroxyhexyl]amino]-3-naphthalen-2-yl-1-oxopropan-2-yl]oxolane-3-carboxamide
> <PUBCHEM_IUPAC_SYSTEMATIC_NAME>
N-[(2S)-1-[[(5S)-5-[(4-aminophenyl)sulfonyl-(2-methylpropyl)amino]-6-oxidanyl-hexyl]amino]-3-naphthalen-2-yl-1-oxidanylidene-propan-2-yl]oxolane-3-carboxamide
> <PUBCHEM_IUPAC_TRADITIONAL_NAME>
N-[(1S)-2-[[(5S)-6-hydroxy-5-[isobutyl(sulfanilyl)amino]hexyl]amino]-2-keto-1-(2-naphthylmethyl)ethyl]tetrahydrofuran-3-carboxamide
> <PUBCHEM_IUPAC_INCHI>
InChI=1S/C34H46N4O6S/c1-24(2)21-38(45(42,43)31-14-12-29(35)13-15-31)30(22-39)9-5-6-17-36-34(41)32(37-33(40)28-16-18-44-23-28)20-25-10-11-26-7-3-4-8-27(26)19-25/h3-4,7-8,10-15,19,24,28,30,32,39H,5-6,9,16-18,20-23,35H2,1-2H3,(H,36,41)(H,37,40)/t28?,30-,32-/m0/s1
> <PUBCHEM_IUPAC_INCHIKEY>
LHNFPFCINRZQBK-UTFOIKDDSA-N
> <PUBCHEM_XLOGP3_AA>
4
> <PUBCHEM_EXACT_MASS>
638.31380637
> <PUBCHEM_MOLECULAR_FORMULA>
C34H46N4O6S
> <PUBCHEM_MOLECULAR_WEIGHT>
638.8
> <PUBCHEM_OPENEYE_CAN_SMILES>
CC(C)CN(C(CCCCNC(=O)C(CC1=CC2=CC=CC=C2C=C1)NC(=O)C3CCOC3)CO)S(=O)(=O)C4=CC=C(C=C4)N
> <PUBCHEM_OPENEYE_ISO_SMILES>
CC(C)CN([C@@H](CCCCNC(=O)[C@H](CC1=CC2=CC=CC=C2C=C1)NC(=O)C3CCOC3)CO)S(=O)(=O)C4=CC=C(C=C4)N
> <PUBCHEM_CACTVS_TPSA>
159
> <PUBCHEM_MONOISOTOPIC_WEIGHT>
638.31380637
> <PUBCHEM_TOTAL_CHARGE>
0
> <PUBCHEM_HEAVY_ATOM_COUNT>
45
> <PUBCHEM_ATOM_DEF_STEREO_COUNT>
2
> <PUBCHEM_ATOM_UDEF_STEREO_COUNT>
1
> <PUBCHEM_BOND_DEF_STEREO_COUNT>
0
> <PUBCHEM_BOND_UDEF_STEREO_COUNT>
0
> <PUBCHEM_ISOTOPIC_ATOM_COUNT>
0
> <PUBCHEM_COMPONENT_COUNT>
1
> <PUBCHEM_CACTVS_TAUTO_COUNT>
-1
> <PUBCHEM_COORDINATE_TYPE>
1
5
255
> <PUBCHEM_BONDANNOTATIONS>
25  10  6
19  28  3
22  31  8
22  32  8
31  34  8
32  35  8
33  37  8
33  38  8
34  36  8
35  36  8
37  39  8
38  41  8
39  40  8
39  42  8
40  41  8
40  43  8
42  44  8
43  45  8
44  45  8
12  8  6
$$$$
