513927
  -OEChem-10302200282D
 94 97  0     1  0  0  0  0  0999 V2000
    6.0010    0.9827    0.0000 S   0  0  0  0  0  0  0  0  0  0  0  0
    6.8671   -0.5173    0.0000 O   0  0  0  0  0  0  0  0  0  0  0  0
    5.5010    1.8487    0.0000 O   0  0  0  0  0  0  0  0  0  0  0  0
    6.5010    0.1166    0.0000 O   0  0  0  0  0  0  0  0  0  0  0  0
   12.0632    2.4827    0.0000 O   0  0  0  0  0  0  0  0  0  0  0  0
   14.6613   -0.0173    0.0000 O   0  0  0  0  0  0  0  0  0  0  0  0
   17.2594   -3.5173    0.0000 O   0  0  0  0  0  0  0  0  0  0  0  0
    6.8671    1.4827    0.0000 N   0  0  3  0  0  0  0  0  0  0  0  0
   11.1972    0.9827    0.0000 N   0  0  0  0  0  0  0  0  0  0  0  0
   12.9292   -0.0173    0.0000 N   0  0  0  0  0  0  0  0  0  0  0  0
    2.5369   -1.0173    0.0000 N   0  0  0  0  0  0  0  0  0  0  0  0
    7.7331    0.9827    0.0000 C   0  0  1  0  0  0  0  0  0  0  0  0
    8.5991    1.4827    0.0000 C   0  0  0  0  0  0  0  0  0  0  0  0
    6.8671    2.4827    0.0000 C   0  0  0  0  0  0  0  0  0  0  0  0
    7.7331    2.9827    0.0000 C   0  0  0  0  0  0  0  0  0  0  0  0
    9.4651    0.9827    0.0000 C   0  0  0  0  0  0  0  0  0  0  0  0
    7.7331   -0.0173    0.0000 C   0  0  0  0  0  0  0  0  0  0  0  0
   10.3312    1.4827    0.0000 C   0  0  0  0  0  0  0  0  0  0  0  0
    5.1350    0.4827    0.0000 C   0  0  0  0  0  0  0  0  0  0  0  0
    7.7331    3.9827    0.0000 C   0  0  0  0  0  0  0  0  0  0  0  0
    8.5991    2.4827    0.0000 C   0  0  0  0  0  0  0  0  0  0  0  0
   12.9292    0.9827    0.0000 C   0  0  2  0  0  0  0  0  0  0  0  0
    5.1350   -0.5173    0.0000 C   0  0  0  0  0  0  0  0  0  0  0  0
    4.2690    0.9827    0.0000 C   0  0  0  0  0  0  0  0  0  0  0  0
   12.0632    1.4827    0.0000 C   0  0  0  0  0  0  0  0  0  0  0  0
   13.7953    1.4827    0.0000 C   0  0  0  0  0  0  0  0  0  0  0  0
   13.7953    2.4827    0.0000 C   0  0  0  0  0  0  0  0  0  0  0  0
    4.2690   -1.0173    0.0000 C   0  0  0  0  0  0  0  0  0  0  0  0
    3.4030    0.4827    0.0000 C   0  0  0  0  0  0  0  0  0  0  0  0
    3.4030   -0.5173    0.0000 C   0  0  0  0  0  0  0  0  0  0  0  0
   14.6613    2.9827    0.0000 C   0  0  0  0  0  0  0  0  0  0  0  0
   12.9292    2.9827    0.0000 C   0  0  0  0  0  0  0  0  0  0  0  0
   14.6613    3.9827    0.0000 C   0  0  0  0  0  0  0  0  0  0  0  0
   13.7953   -0.5173    0.0000 C   0  0  0  0  0  0  0  0  0  0  0  0
   15.5552    2.4480    0.0000 C   0  0  0  0  0  0  0  0  0  0  0  0
   12.9292    3.9827    0.0000 C   0  0  0  0  0  0  0  0  0  0  0  0
   13.7953   -1.5173    0.0000 C   0  0  0  0  0  0  0  0  0  0  0  0
   13.7953    4.4827    0.0000 C   0  0  0  0  0  0  0  0  0  0  0  0
   15.5552    4.5173    0.0000 C   0  0  0  0  0  0  0  0  0  0  0  0
   16.4613    2.9618    0.0000 C   0  0  0  0  0  0  0  0  0  0  0  0
   16.4613    4.0035    0.0000 C   0  0  0  0  0  0  0  0  0  0  0  0
   14.6613   -2.0173    0.0000 C   0  0  0  0  0  0  0  0  0  0  0  0
   15.5273   -1.5173    0.0000 C   0  0  0  0  0  0  0  0  0  0  0  0
   14.6613   -3.0173    0.0000 C   0  0  0  0  0  0  0  0  0  0  0  0
   16.3933   -2.0173    0.0000 C   0  0  0  0  0  0  0  0  0  0  0  0
   15.5273   -3.5173    0.0000 C   0  0  0  0  0  0  0  0  0  0  0  0
   16.3933   -3.0173    0.0000 C   0  0  0  0  0  0  0  0  0  0  0  0
   17.2594   -4.5173    0.0000 C   0  0  0  0  0  0  0  0  0  0  0  0
    7.7331    1.6027    0.0000 H   0  0  0  0  0  0  0  0  0  0  0  0
    8.9976    1.9576    0.0000 H   0  0  0  0  0  0  0  0  0  0  0  0
    8.2006    1.9576    0.0000 H   0  0  0  0  0  0  0  0  0  0  0  0
    6.6550    3.0653    0.0000 H   0  0  0  0  0  0  0  0  0  0  0  0
    6.2565    2.3750    0.0000 H   0  0  0  0  0  0  0  0  0  0  0  0
    7.7331    2.3627    0.0000 H   0  0  0  0  0  0  0  0  0  0  0  0
    9.0666    0.5077    0.0000 H   0  0  0  0  0  0  0  0  0  0  0  0
    9.8637    0.5077    0.0000 H   0  0  0  0  0  0  0  0  0  0  0  0
    7.9451   -0.5999    0.0000 H   0  0  0  0  0  0  0  0  0  0  0  0
    8.3437    0.0903    0.0000 H   0  0  0  0  0  0  0  0  0  0  0  0
   10.7297    1.9576    0.0000 H   0  0  0  0  0  0  0  0  0  0  0  0
    9.9326    1.9576    0.0000 H   0  0  0  0  0  0  0  0  0  0  0  0
    8.3531    3.9827    0.0000 H   0  0  0  0  0  0  0  0  0  0  0  0
    7.7331    4.6027    0.0000 H   0  0  0  0  0  0  0  0  0  0  0  0
    7.1131    3.9827    0.0000 H   0  0  0  0  0  0  0  0  0  0  0  0
    8.2891    1.9457    0.0000 H   0  0  0  0  0  0  0  0  0  0  0  0
    9.1360    2.1727    0.0000 H   0  0  0  0  0  0  0  0  0  0  0  0
    8.9091    3.0196    0.0000 H   0  0  0  0  0  0  0  0  0  0  0  0
   11.1972    0.3627    0.0000 H   0  0  0  0  0  0  0  0  0  0  0  0
   12.3923    0.6727    0.0000 H   0  0  0  0  0  0  0  0  0  0  0  0
    6.8671   -1.1373    0.0000 H   0  0  0  0  0  0  0  0  0  0  0  0
    5.6720   -0.8273    0.0000 H   0  0  0  0  0  0  0  0  0  0  0  0
    4.2690    1.6027    0.0000 H   0  0  0  0  0  0  0  0  0  0  0  0
   14.0073    0.9001    0.0000 H   0  0  0  0  0  0  0  0  0  0  0  0
   14.4058    1.5903    0.0000 H   0  0  0  0  0  0  0  0  0  0  0  0
    4.2690   -1.6373    0.0000 H   0  0  0  0  0  0  0  0  0  0  0  0
    2.8660    0.7927    0.0000 H   0  0  0  0  0  0  0  0  0  0  0  0
   12.3923   -0.3273    0.0000 H   0  0  0  0  0  0  0  0  0  0  0  0
   12.3923    2.6727    0.0000 H   0  0  0  0  0  0  0  0  0  0  0  0
   15.5481    1.8280    0.0000 H   0  0  0  0  0  0  0  0  0  0  0  0
   12.3923    4.2927    0.0000 H   0  0  0  0  0  0  0  0  0  0  0  0
   13.7953    5.1027    0.0000 H   0  0  0  0  0  0  0  0  0  0  0  0
   13.1847   -1.4097    0.0000 H   0  0  0  0  0  0  0  0  0  0  0  0
   13.5832   -2.0999    0.0000 H   0  0  0  0  0  0  0  0  0  0  0  0
    2.0000   -0.7073    0.0000 H   0  0  0  0  0  0  0  0  0  0  0  0
    2.5369   -1.6373    0.0000 H   0  0  0  0  0  0  0  0  0  0  0  0
   15.5481    5.1373    0.0000 H   0  0  0  0  0  0  0  0  0  0  0  0
   16.9970    2.6498    0.0000 H   0  0  0  0  0  0  0  0  0  0  0  0
   16.9970    4.3156    0.0000 H   0  0  0  0  0  0  0  0  0  0  0  0
   15.5273   -0.8973    0.0000 H   0  0  0  0  0  0  0  0  0  0  0  0
   14.1244   -3.3273    0.0000 H   0  0  0  0  0  0  0  0  0  0  0  0
   16.9303   -1.7073    0.0000 H   0  0  0  0  0  0  0  0  0  0  0  0
   15.5273   -4.1373    0.0000 H   0  0  0  0  0  0  0  0  0  0  0  0
   16.6394   -4.5173    0.0000 H   0  0  0  0  0  0  0  0  0  0  0  0
   17.2594   -5.1373    0.0000 H   0  0  0  0  0  0  0  0  0  0  0  0
   17.8794   -4.5173    0.0000 H   0  0  0  0  0  0  0  0  0  0  0  0
  1  3  2  0  0  0  0
  1  4  2  0  0  0  0
  1  8  1  0  0  0  0
  1 19  1  0  0  0  0
  2 17  1  0  0  0  0
  2 69  1  0  0  0  0
  5 25  2  0  0  0  0
  6 34  2  0  0  0  0
  7 47  1  0  0  0  0
  7 48  1  0  0  0  0
 12  8  1  1  0  0  0
  8 14  1  0  0  0  0
  9 18  1  0  0  0  0
  9 25  1  0  0  0  0
  9 67  1  0  0  0  0
 22 10  1  6  0  0  0
 10 34  1  0  0  0  0
 10 76  1  0  0  0  0
 11 30  1  0  0  0  0
 11 83  1  0  0  0  0
 11 84  1  0  0  0  0
 12 13  1  0  0  0  0
 12 17  1  0  0  0  0
 12 49  1  0  0  0  0
 13 16  1  0  0  0  0
 13 50  1  0  0  0  0
 13 51  1  0  0  0  0
 14 15  1  0  0  0  0
 14 52  1  0  0  0  0
 14 53  1  0  0  0  0
 15 20  1  0  0  0  0
 15 21  1  0  0  0  0
 15 54  1  0  0  0  0
 16 18  1  0  0  0  0
 16 55  1  0  0  0  0
 16 56  1  0  0  0  0
 17 57  1  0  0  0  0
 17 58  1  0  0  0  0
 18 59  1  0  0  0  0
 18 60  1  0  0  0  0
 19 23  2  0  0  0  0
 19 24  1  0  0  0  0
 20 61  1  0  0  0  0
 20 62  1  0  0  0  0
 20 63  1  0  0  0  0
 21 64  1  0  0  0  0
 21 65  1  0  0  0  0
 21 66  1  0  0  0  0
 22 25  1  0  0  0  0
 22 26  1  0  0  0  0
 22 68  1  0  0  0  0
 23 28  1  0  0  0  0
 23 70  1  0  0  0  0
 24 29  2  0  0  0  0
 24 71  1  0  0  0  0
 26 27  1  0  0  0  0
 26 72  1  0  0  0  0
 26 73  1  0  0  0  0
 27 31  1  0  0  0  0
 27 32  2  0  0  0  0
 28 30  2  0  0  0  0
 28 74  1  0  0  0  0
 29 30  1  0  0  0  0
 29 75  1  0  0  0  0
 31 33  1  0  0  0  0
 31 35  2  0  0  0  0
 32 36  1  0  0  0  0
 32 77  1  0  0  0  0
 33 38  1  0  0  0  0
 33 39  2  0  0  0  0
 34 37  1  0  0  0  0
 35 40  1  0  0  0  0
 35 78  1  0  0  0  0
 36 38  2  0  0  0  0
 36 79  1  0  0  0  0
 37 42  1  0  0  0  0
 37 81  1  0  0  0  0
 37 82  1  0  0  0  0
 38 80  1  0  0  0  0
 39 41  1  0  0  0  0
 39 85  1  0  0  0  0
 40 41  2  0  0  0  0
 40 86  1  0  0  0  0
 41 87  1  0  0  0  0
 42 43  2  0  0  0  0
 42 44  1  0  0  0  0
 43 45  1  0  0  0  0
 43 88  1  0  0  0  0
 44 46  2  0  0  0  0
 44 89  1  0  0  0  0
 45 47  2  0  0  0  0
 45 90  1  0  0  0  0
 46 47  1  0  0  0  0
 46 91  1  0  0  0  0
 48 92  1  0  0  0  0
 48 93  1  0  0  0  0
 48 94  1  0  0  0  0
M  END
> <PUBCHEM_COMPOUND_CID>
513927
> <PUBCHEM_COMPOUND_CANONICALIZED>
1
> <PUBCHEM_CACTVS_COMPLEXITY>
1080
> <PUBCHEM_CACTVS_HBOND_ACCEPTOR>
8
> <PUBCHEM_CACTVS_HBOND_DONOR>
4
> <PUBCHEM_CACTVS_ROTATABLE_BOND>
17
> <PUBCHEM_CACTVS_SUBSKEYS>
AAADcfB/uABAAAAAAAAAAAAAAAAAAAAAAAAwYMGAAAAAAADBVAAAHgQQSAAADSzh2AYyx8LABgKIAiVSUHDCCBAgIgAIiJmObIgOdjKEtbuUcCBk1hGY6AeY2MKOoAQCAAAQAABACAQAACAAAAAAAAAAAA==
> <PUBCHEM_IUPAC_OPENEYE_NAME>
(2S)-N-[(4S)-4-[(4-aminophenyl)sulfonyl-isobutyl-amino]-5-hydroxy-pentyl]-2-[[2-(4-methoxyphenyl)acetyl]amino]-3-(1-naphthyl)propanamide
> <PUBCHEM_IUPAC_CAS_NAME>
(2S)-N-[(4S)-4-[(4-aminophenyl)sulfonyl-(2-methylpropyl)amino]-5-hydroxypentyl]-2-[[2-(4-methoxyphenyl)-1-oxoethyl]amino]-3-(1-naphthalenyl)propanamide
> <PUBCHEM_IUPAC_NAME_MARKUP>
(2<I>S</I>)-<I>N</I>-[(4<I>S</I>)-4-[(4-aminophenyl)sulfonyl-(2-methylpropyl)amino]-5-hydroxypentyl]-2-[[2-(4-methoxyphenyl)acetyl]amino]-3-naphthalen-1-ylpropanamide
> <PUBCHEM_IUPAC_NAME>
(2S)-N-[(4S)-4-[(4-aminophenyl)sulfonyl-(2-methylpropyl)amino]-5-hydroxypentyl]-2-[[2-(4-methoxyphenyl)acetyl]amino]-3-naphthalen-1-ylpropanamide
> <PUBCHEM_IUPAC_SYSTEMATIC_NAME>
(2S)-N-[(4S)-4-[(4-aminophenyl)sulfonyl-(2-methylpropyl)amino]-5-oxidanyl-pentyl]-2-[2-(4-methoxyphenyl)ethanoylamino]-3-naphthalen-1-yl-propanamide
> <PUBCHEM_IUPAC_TRADITIONAL_NAME>
(2S)-N-[(4S)-5-hydroxy-4-[isobutyl(sulfanilyl)amino]pentyl]-2-[[2-(4-methoxyphenyl)acetyl]amino]-3-(1-naphthyl)propionamide
> <PUBCHEM_IUPAC_INCHI>
InChI=1S/C37H46N4O6S/c1-26(2)24-41(48(45,46)33-19-15-30(38)16-20-33)31(25-42)11-7-21-39-37(44)35(23-29-10-6-9-28-8-4-5-12-34(28)29)40-36(43)22-27-13-17-32(47-3)18-14-27/h4-6,8-10,12-20,26,31,35,42H,7,11,21-25,38H2,1-3H3,(H,39,44)(H,40,43)/t31-,35-/m0/s1
> <PUBCHEM_IUPAC_INCHIKEY>
RJSIOBPBENPMRZ-ZJJOJAIXSA-N
> <PUBCHEM_XLOGP3_AA>
5.3
> <PUBCHEM_EXACT_MASS>
674.31380637
> <PUBCHEM_MOLECULAR_FORMULA>
C37H46N4O6S
> <PUBCHEM_MOLECULAR_WEIGHT>
674.9
> <PUBCHEM_OPENEYE_CAN_SMILES>
CC(C)CN(C(CCCNC(=O)C(CC1=CC=CC2=CC=CC=C21)NC(=O)CC3=CC=C(C=C3)OC)CO)S(=O)(=O)C4=CC=C(C=C4)N
> <PUBCHEM_OPENEYE_ISO_SMILES>
CC(C)CN([C@@H](CCCNC(=O)[C@H](CC1=CC=CC2=CC=CC=C21)NC(=O)CC3=CC=C(C=C3)OC)CO)S(=O)(=O)C4=CC=C(C=C4)N
> <PUBCHEM_CACTVS_TPSA>
159
> <PUBCHEM_MONOISOTOPIC_WEIGHT>
674.31380637
> <PUBCHEM_TOTAL_CHARGE>
0
> <PUBCHEM_HEAVY_ATOM_COUNT>
48
> <PUBCHEM_ATOM_DEF_STEREO_COUNT>
2
> <PUBCHEM_ATOM_UDEF_STEREO_COUNT>
0
> <PUBCHEM_BOND_DEF_STEREO_COUNT>
0
> <PUBCHEM_BOND_UDEF_STEREO_COUNT>
0
> <PUBCHEM_ISOTOPIC_ATOM_COUNT>
0
> <PUBCHEM_COMPONENT_COUNT>
1
> <PUBCHEM_CACTVS_TAUTO_COUNT>
-1
> <PUBCHEM_COORDINATE_TYPE>
1
5
255
> <PUBCHEM_BONDANNOTATIONS>
22  10  6
19  23  8
19  24  8
23  28  8
24  29  8
27  31  8
27  32  8
28  30  8
29  30  8
31  33  8
31  35  8
32  36  8
33  38  8
33  39  8
35  40  8
36  38  8
39  41  8
40  41  8
42  43  8
42  44  8
43  45  8
44  46  8
45  47  8
46  47  8
12  8  5
$$$$
