513924
  -OEChem-10302200282D
 81 83  0     1  0  0  0  0  0999 V2000
    8.9282   -3.4573    0.0000 S   0  0  0  0  0  0  0  0  0  0  0  0
    9.7942   -1.9573    0.0000 O   0  0  0  0  0  0  0  0  0  0  0  0
    8.4282   -4.3234    0.0000 O   0  0  0  0  0  0  0  0  0  0  0  0
    9.4282   -2.5913    0.0000 O   0  0  0  0  0  0  0  0  0  0  0  0
    4.5981    1.0427    0.0000 O   0  0  0  0  0  0  0  0  0  0  0  0
    2.8660    3.0427    0.0000 O   0  0  0  0  0  0  0  0  0  0  0  0
    3.7320    1.5427    0.0000 O   0  0  0  0  0  0  0  0  0  0  0  0
    8.0622   -2.9573    0.0000 N   0  0  3  0  0  0  0  0  0  0  0  0
    6.3301    1.0427    0.0000 N   0  0  0  0  0  0  0  0  0  0  0  0
    4.5981    3.0427    0.0000 N   0  0  0  0  0  0  0  0  0  0  0  0
   12.3923   -5.4573    0.0000 N   0  0  0  0  0  0  0  0  0  0  0  0
    8.0622   -1.9573    0.0000 C   0  0  1  0  0  0  0  0  0  0  0  0
    7.1962   -1.4573    0.0000 C   0  0  0  0  0  0  0  0  0  0  0  0
    7.1962   -3.4573    0.0000 C   0  0  0  0  0  0  0  0  0  0  0  0
    6.3301   -2.9573    0.0000 C   0  0  0  0  0  0  0  0  0  0  0  0
    7.1962   -0.4573    0.0000 C   0  0  0  0  0  0  0  0  0  0  0  0
    8.9282   -1.4573    0.0000 C   0  0  0  0  0  0  0  0  0  0  0  0
    6.3301    0.0427    0.0000 C   0  0  0  0  0  0  0  0  0  0  0  0
    9.7942   -3.9573    0.0000 C   0  0  0  0  0  0  0  0  0  0  0  0
    5.4641   -3.4573    0.0000 C   0  0  0  0  0  0  0  0  0  0  0  0
    6.3301   -1.9573    0.0000 C   0  0  0  0  0  0  0  0  0  0  0  0
    5.4641    2.5427    0.0000 C   0  0  2  0  0  0  0  0  0  0  0  0
   10.6603   -3.4573    0.0000 C   0  0  0  0  0  0  0  0  0  0  0  0
    9.7942   -4.9573    0.0000 C   0  0  0  0  0  0  0  0  0  0  0  0
    5.4641    1.5427    0.0000 C   0  0  0  0  0  0  0  0  0  0  0  0
    6.3301    3.0427    0.0000 C   0  0  0  0  0  0  0  0  0  0  0  0
    6.3301    4.0427    0.0000 C   0  0  0  0  0  0  0  0  0  0  0  0
   11.5263   -3.9573    0.0000 C   0  0  0  0  0  0  0  0  0  0  0  0
   10.6603   -5.4573    0.0000 C   0  0  0  0  0  0  0  0  0  0  0  0
   11.5263   -4.9573    0.0000 C   0  0  0  0  0  0  0  0  0  0  0  0
    7.1962    4.5427    0.0000 C   0  0  0  0  0  0  0  0  0  0  0  0
    5.4641    4.5427    0.0000 C   0  0  0  0  0  0  0  0  0  0  0  0
    7.1962    5.5427    0.0000 C   0  0  0  0  0  0  0  0  0  0  0  0
    8.0901    4.0080    0.0000 C   0  0  0  0  0  0  0  0  0  0  0  0
    5.4641    5.5427    0.0000 C   0  0  0  0  0  0  0  0  0  0  0  0
    6.3301    6.0427    0.0000 C   0  0  0  0  0  0  0  0  0  0  0  0
    3.7320    2.5427    0.0000 C   0  0  0  0  0  0  0  0  0  0  0  0
    8.0901    6.0773    0.0000 C   0  0  0  0  0  0  0  0  0  0  0  0
    8.9962    4.5218    0.0000 C   0  0  0  0  0  0  0  0  0  0  0  0
    8.9962    5.5635    0.0000 C   0  0  0  0  0  0  0  0  0  0  0  0
    2.0000    2.5427    0.0000 C   0  0  0  0  0  0  0  0  0  0  0  0
    7.5252   -2.2673    0.0000 H   0  0  0  0  0  0  0  0  0  0  0  0
    6.5856   -1.3497    0.0000 H   0  0  0  0  0  0  0  0  0  0  0  0
    6.9841   -2.0399    0.0000 H   0  0  0  0  0  0  0  0  0  0  0  0
    6.7976   -3.9323    0.0000 H   0  0  0  0  0  0  0  0  0  0  0  0
    7.5947   -3.9323    0.0000 H   0  0  0  0  0  0  0  0  0  0  0  0
    6.8671   -2.6473    0.0000 H   0  0  0  0  0  0  0  0  0  0  0  0
    7.8067   -0.5650    0.0000 H   0  0  0  0  0  0  0  0  0  0  0  0
    7.4082    0.1253    0.0000 H   0  0  0  0  0  0  0  0  0  0  0  0
    9.3267   -0.9824    0.0000 H   0  0  0  0  0  0  0  0  0  0  0  0
    8.5297   -0.9824    0.0000 H   0  0  0  0  0  0  0  0  0  0  0  0
    5.7196    0.1503    0.0000 H   0  0  0  0  0  0  0  0  0  0  0  0
    6.1181   -0.5399    0.0000 H   0  0  0  0  0  0  0  0  0  0  0  0
    5.1541   -2.9204    0.0000 H   0  0  0  0  0  0  0  0  0  0  0  0
    4.9272   -3.7673    0.0000 H   0  0  0  0  0  0  0  0  0  0  0  0
    5.7741   -3.9943    0.0000 H   0  0  0  0  0  0  0  0  0  0  0  0
    6.9501   -1.9573    0.0000 H   0  0  0  0  0  0  0  0  0  0  0  0
    6.3301   -1.3373    0.0000 H   0  0  0  0  0  0  0  0  0  0  0  0
    5.7101   -1.9573    0.0000 H   0  0  0  0  0  0  0  0  0  0  0  0
    6.8671    1.3527    0.0000 H   0  0  0  0  0  0  0  0  0  0  0  0
    5.4641    3.1627    0.0000 H   0  0  0  0  0  0  0  0  0  0  0  0
   10.3312   -1.6473    0.0000 H   0  0  0  0  0  0  0  0  0  0  0  0
   10.6603   -2.8373    0.0000 H   0  0  0  0  0  0  0  0  0  0  0  0
    9.2573   -5.2673    0.0000 H   0  0  0  0  0  0  0  0  0  0  0  0
    6.5422    2.4601    0.0000 H   0  0  0  0  0  0  0  0  0  0  0  0
    6.9407    3.1503    0.0000 H   0  0  0  0  0  0  0  0  0  0  0  0
   12.0632   -3.6473    0.0000 H   0  0  0  0  0  0  0  0  0  0  0  0
   10.6603   -6.0773    0.0000 H   0  0  0  0  0  0  0  0  0  0  0  0
    4.5981    3.6627    0.0000 H   0  0  0  0  0  0  0  0  0  0  0  0
    4.9272    4.2327    0.0000 H   0  0  0  0  0  0  0  0  0  0  0  0
    8.0829    3.3880    0.0000 H   0  0  0  0  0  0  0  0  0  0  0  0
    4.9272    5.8527    0.0000 H   0  0  0  0  0  0  0  0  0  0  0  0
    6.3301    6.6627    0.0000 H   0  0  0  0  0  0  0  0  0  0  0  0
    8.0829    6.6973    0.0000 H   0  0  0  0  0  0  0  0  0  0  0  0
   12.3923   -6.0773    0.0000 H   0  0  0  0  0  0  0  0  0  0  0  0
   12.9292   -5.1473    0.0000 H   0  0  0  0  0  0  0  0  0  0  0  0
    9.5319    4.2098    0.0000 H   0  0  0  0  0  0  0  0  0  0  0  0
    9.5319    5.8755    0.0000 H   0  0  0  0  0  0  0  0  0  0  0  0
    1.6900    3.0796    0.0000 H   0  0  0  0  0  0  0  0  0  0  0  0
    1.4631    2.2327    0.0000 H   0  0  0  0  0  0  0  0  0  0  0  0
    2.3100    2.0057    0.0000 H   0  0  0  0  0  0  0  0  0  0  0  0
  1  3  2  0  0  0  0
  1  4  2  0  0  0  0
  1  8  1  0  0  0  0
  1 19  1  0  0  0  0
  2 17  1  0  0  0  0
  2 62  1  0  0  0  0
  5 25  2  0  0  0  0
  6 37  1  0  0  0  0
  6 41  1  0  0  0  0
  7 37  2  0  0  0  0
 12  8  1  1  0  0  0
  8 14  1  0  0  0  0
  9 18  1  0  0  0  0
  9 25  1  0  0  0  0
  9 60  1  0  0  0  0
 22 10  1  1  0  0  0
 10 37  1  0  0  0  0
 10 69  1  0  0  0  0
 11 30  1  0  0  0  0
 11 75  1  0  0  0  0
 11 76  1  0  0  0  0
 12 13  1  0  0  0  0
 12 17  1  0  0  0  0
 12 42  1  0  0  0  0
 13 16  1  0  0  0  0
 13 43  1  0  0  0  0
 13 44  1  0  0  0  0
 14 15  1  0  0  0  0
 14 45  1  0  0  0  0
 14 46  1  0  0  0  0
 15 20  1  0  0  0  0
 15 21  1  0  0  0  0
 15 47  1  0  0  0  0
 16 18  1  0  0  0  0
 16 48  1  0  0  0  0
 16 49  1  0  0  0  0
 17 50  1  0  0  0  0
 17 51  1  0  0  0  0
 18 52  1  0  0  0  0
 18 53  1  0  0  0  0
 19 23  2  0  0  0  0
 19 24  1  0  0  0  0
 20 54  1  0  0  0  0
 20 55  1  0  0  0  0
 20 56  1  0  0  0  0
 21 57  1  0  0  0  0
 21 58  1  0  0  0  0
 21 59  1  0  0  0  0
 22 25  1  0  0  0  0
 22 26  1  0  0  0  0
 22 61  1  0  0  0  0
 23 28  1  0  0  0  0
 23 63  1  0  0  0  0
 24 29  2  0  0  0  0
 24 64  1  0  0  0  0
 26 27  1  0  0  0  0
 26 65  1  0  0  0  0
 26 66  1  0  0  0  0
 27 31  1  0  0  0  0
 27 32  2  0  0  0  0
 28 30  2  0  0  0  0
 28 67  1  0  0  0  0
 29 30  1  0  0  0  0
 29 68  1  0  0  0  0
 31 33  1  0  0  0  0
 31 34  2  0  0  0  0
 32 35  1  0  0  0  0
 32 70  1  0  0  0  0
 33 36  1  0  0  0  0
 33 38  2  0  0  0  0
 34 39  1  0  0  0  0
 34 71  1  0  0  0  0
 35 36  2  0  0  0  0
 35 72  1  0  0  0  0
 36 73  1  0  0  0  0
 38 40  1  0  0  0  0
 38 74  1  0  0  0  0
 39 40  2  0  0  0  0
 39 77  1  0  0  0  0
 40 78  1  0  0  0  0
 41 79  1  0  0  0  0
 41 80  1  0  0  0  0
 41 81  1  0  0  0  0
M  END
> <PUBCHEM_COMPOUND_CID>
513924
> <PUBCHEM_COMPOUND_CANONICALIZED>
1
> <PUBCHEM_CACTVS_COMPLEXITY>
918
> <PUBCHEM_CACTVS_HBOND_ACCEPTOR>
8
> <PUBCHEM_CACTVS_HBOND_DONOR>
4
> <PUBCHEM_CACTVS_ROTATABLE_BOND>
15
> <PUBCHEM_CACTVS_SUBSKEYS>
AAADcfB7uABAAAAAAAAAAAAAAAAAAAAAAAAwYMAAAAAAAADBVAAAHgQQSAAADSjh2AYyycLABgKIAiVSWHDCABAgAgAIiJmIZIkKcDKAkbGUYABklgCYyAeYmMKOgAQCAAAQAAAACAQAACAAAAAAAAAAAA==
> <PUBCHEM_IUPAC_OPENEYE_NAME>
methyl N-[(1S)-2-[[(4S)-4-[(4-aminophenyl)sulfonyl-isobutyl-amino]-5-hydroxy-pentyl]amino]-1-(1-naphthylmethyl)-2-oxo-ethyl]carbamate
> <PUBCHEM_IUPAC_CAS_NAME>
N-[(2S)-1-[[(4S)-4-[(4-aminophenyl)sulfonyl-(2-methylpropyl)amino]-5-hydroxypentyl]amino]-3-(1-naphthalenyl)-1-oxopropan-2-yl]carbamic acid methyl ester
> <PUBCHEM_IUPAC_NAME_MARKUP>
methyl <I>N</I>-[(2<I>S</I>)-1-[[(4<I>S</I>)-4-[(4-aminophenyl)sulfonyl-(2-methylpropyl)amino]-5-hydroxypentyl]amino]-3-naphthalen-1-yl-1-oxopropan-2-yl]carbamate
> <PUBCHEM_IUPAC_NAME>
methyl N-[(2S)-1-[[(4S)-4-[(4-aminophenyl)sulfonyl-(2-methylpropyl)amino]-5-hydroxypentyl]amino]-3-naphthalen-1-yl-1-oxopropan-2-yl]carbamate
> <PUBCHEM_IUPAC_SYSTEMATIC_NAME>
methyl N-[(2S)-1-[[(4S)-4-[(4-aminophenyl)sulfonyl-(2-methylpropyl)amino]-5-oxidanyl-pentyl]amino]-3-naphthalen-1-yl-1-oxidanylidene-propan-2-yl]carbamate
> <PUBCHEM_IUPAC_TRADITIONAL_NAME>
N-[(1S)-2-[[(4S)-5-hydroxy-4-[isobutyl(sulfanilyl)amino]pentyl]amino]-2-keto-1-(1-naphthylmethyl)ethyl]carbamic acid methyl ester
> <PUBCHEM_IUPAC_INCHI>
InChI=1S/C30H40N4O6S/c1-21(2)19-34(41(38,39)26-15-13-24(31)14-16-26)25(20-35)11-7-17-32-29(36)28(33-30(37)40-3)18-23-10-6-9-22-8-4-5-12-27(22)23/h4-6,8-10,12-16,21,25,28,35H,7,11,17-20,31H2,1-3H3,(H,32,36)(H,33,37)/t25-,28-/m0/s1
> <PUBCHEM_IUPAC_INCHIKEY>
WWVBMEDLAWUSNI-LSYYVWMOSA-N
> <PUBCHEM_XLOGP3_AA>
4.1
> <PUBCHEM_EXACT_MASS>
584.26685618
> <PUBCHEM_MOLECULAR_FORMULA>
C30H40N4O6S
> <PUBCHEM_MOLECULAR_WEIGHT>
584.7
> <PUBCHEM_OPENEYE_CAN_SMILES>
CC(C)CN(C(CCCNC(=O)C(CC1=CC=CC2=CC=CC=C21)NC(=O)OC)CO)S(=O)(=O)C3=CC=C(C=C3)N
> <PUBCHEM_OPENEYE_ISO_SMILES>
CC(C)CN([C@@H](CCCNC(=O)[C@H](CC1=CC=CC2=CC=CC=C21)NC(=O)OC)CO)S(=O)(=O)C3=CC=C(C=C3)N
> <PUBCHEM_CACTVS_TPSA>
159
> <PUBCHEM_MONOISOTOPIC_WEIGHT>
584.26685618
> <PUBCHEM_TOTAL_CHARGE>
0
> <PUBCHEM_HEAVY_ATOM_COUNT>
41
> <PUBCHEM_ATOM_DEF_STEREO_COUNT>
2
> <PUBCHEM_ATOM_UDEF_STEREO_COUNT>
0
> <PUBCHEM_BOND_DEF_STEREO_COUNT>
0
> <PUBCHEM_BOND_UDEF_STEREO_COUNT>
0
> <PUBCHEM_ISOTOPIC_ATOM_COUNT>
0
> <PUBCHEM_COMPONENT_COUNT>
1
> <PUBCHEM_CACTVS_TAUTO_COUNT>
-1
> <PUBCHEM_COORDINATE_TYPE>
1
5
255
> <PUBCHEM_BONDANNOTATIONS>
22  10  5
19  23  8
19  24  8
23  28  8
24  29  8
27  31  8
27  32  8
28  30  8
29  30  8
31  33  8
31  34  8
32  35  8
33  36  8
33  38  8
34  39  8
35  36  8
38  40  8
39  40  8
12  8  5
$$$$
