513963
  -OEChem-10302200282D
 88 90  0     1  0  0  0  0  0999 V2000
    3.7320    2.8450    0.0000 S   0  0  0  0  0  0  0  0  0  0  0  0
    6.3301    1.3450    0.0000 O   0  0  0  0  0  0  0  0  0  0  0  0
    2.7320    2.8450    0.0000 O   0  0  0  0  0  0  0  0  0  0  0  0
    4.7320    2.8450    0.0000 O   0  0  0  0  0  0  0  0  0  0  0  0
    8.0622   -2.6550    0.0000 O   0  0  0  0  0  0  0  0  0  0  0  0
    7.1962   -6.1550    0.0000 O   0  0  0  0  0  0  0  0  0  0  0  0
    3.7320    1.8450    0.0000 N   0  0  3  0  0  0  0  0  0  0  0  0
    6.3301   -2.6550    0.0000 N   0  0  0  0  0  0  0  0  0  0  0  0
    6.3301   -4.6550    0.0000 N   0  0  0  0  0  0  0  0  0  0  0  0
    3.7320    6.8450    0.0000 N   0  0  0  0  0  0  0  0  0  0  0  0
    5.4641   -6.1550    0.0000 N   0  0  0  0  0  0  0  0  0  0  0  0
    4.5981    1.3450    0.0000 C   0  0  1  0  0  0  0  0  0  0  0  0
    4.5981    0.3450    0.0000 C   0  0  0  0  0  0  0  0  0  0  0  0
    2.8660    1.3450    0.0000 C   0  0  0  0  0  0  0  0  0  0  0  0
    5.4641   -0.1550    0.0000 C   0  0  0  0  0  0  0  0  0  0  0  0
    2.8660    0.3450    0.0000 C   0  0  0  0  0  0  0  0  0  0  0  0
    5.4641    1.8450    0.0000 C   0  0  0  0  0  0  0  0  0  0  0  0
    5.4641   -1.1550    0.0000 C   0  0  0  0  0  0  0  0  0  0  0  0
    3.7320    3.8450    0.0000 C   0  0  0  0  0  0  0  0  0  0  0  0
    2.0000   -0.1550    0.0000 C   0  0  0  0  0  0  0  0  0  0  0  0
    3.7320   -0.1550    0.0000 C   0  0  0  0  0  0  0  0  0  0  0  0
    6.3301   -1.6550    0.0000 C   0  0  0  0  0  0  0  0  0  0  0  0
    4.5981    4.3450    0.0000 C   0  0  0  0  0  0  0  0  0  0  0  0
    2.8660    4.3450    0.0000 C   0  0  0  0  0  0  0  0  0  0  0  0
    7.1962   -4.1550    0.0000 C   0  0  2  0  0  0  0  0  0  0  0  0
    7.1962   -3.1550    0.0000 C   0  0  0  0  0  0  0  0  0  0  0  0
    8.0622   -4.6550    0.0000 C   0  0  0  0  0  0  0  0  0  0  0  0
    4.5981    5.3450    0.0000 C   0  0  0  0  0  0  0  0  0  0  0  0
    2.8660    5.3450    0.0000 C   0  0  0  0  0  0  0  0  0  0  0  0
    3.7320    5.8450    0.0000 C   0  0  0  0  0  0  0  0  0  0  0  0
    8.9282   -4.1550    0.0000 C   0  0  0  0  0  0  0  0  0  0  0  0
    9.7942   -4.6550    0.0000 C   0  0  0  0  0  0  0  0  0  0  0  0
    8.9282   -3.1550    0.0000 C   0  0  0  0  0  0  0  0  0  0  0  0
   10.6603   -4.1550    0.0000 C   0  0  0  0  0  0  0  0  0  0  0  0
    6.3301   -5.6550    0.0000 C   0  0  0  0  0  0  0  0  0  0  0  0
   10.6603   -3.1550    0.0000 C   0  0  0  0  0  0  0  0  0  0  0  0
    9.7942   -2.6550    0.0000 C   0  0  0  0  0  0  0  0  0  0  0  0
   11.5542   -4.6897    0.0000 C   0  0  0  0  0  0  0  0  0  0  0  0
   11.5542   -2.6203    0.0000 C   0  0  0  0  0  0  0  0  0  0  0  0
   12.4603   -4.1758    0.0000 C   0  0  0  0  0  0  0  0  0  0  0  0
   12.4603   -3.1342    0.0000 C   0  0  0  0  0  0  0  0  0  0  0  0
    5.4641   -7.1550    0.0000 C   0  0  0  0  0  0  0  0  0  0  0  0
    4.5981   -5.6550    0.0000 C   0  0  0  0  0  0  0  0  0  0  0  0
    4.5981    1.9650    0.0000 H   0  0  0  0  0  0  0  0  0  0  0  0
    3.9875    0.4527    0.0000 H   0  0  0  0  0  0  0  0  0  0  0  0
    4.3860   -0.2376    0.0000 H   0  0  0  0  0  0  0  0  0  0  0  0
    2.6540    1.9276    0.0000 H   0  0  0  0  0  0  0  0  0  0  0  0
    2.2554    1.2373    0.0000 H   0  0  0  0  0  0  0  0  0  0  0  0
    6.0747   -0.2627    0.0000 H   0  0  0  0  0  0  0  0  0  0  0  0
    5.6762    0.4276    0.0000 H   0  0  0  0  0  0  0  0  0  0  0  0
    2.8660   -0.2750    0.0000 H   0  0  0  0  0  0  0  0  0  0  0  0
    5.8626    2.3200    0.0000 H   0  0  0  0  0  0  0  0  0  0  0  0
    5.0656    2.3200    0.0000 H   0  0  0  0  0  0  0  0  0  0  0  0
    4.8535   -1.0473    0.0000 H   0  0  0  0  0  0  0  0  0  0  0  0
    5.2520   -1.7376    0.0000 H   0  0  0  0  0  0  0  0  0  0  0  0
    1.6900    0.3819    0.0000 H   0  0  0  0  0  0  0  0  0  0  0  0
    1.4631   -0.4650    0.0000 H   0  0  0  0  0  0  0  0  0  0  0  0
    2.3100   -0.6919    0.0000 H   0  0  0  0  0  0  0  0  0  0  0  0
    3.4220   -0.6919    0.0000 H   0  0  0  0  0  0  0  0  0  0  0  0
    4.2690   -0.4650    0.0000 H   0  0  0  0  0  0  0  0  0  0  0  0
    4.0420    0.3819    0.0000 H   0  0  0  0  0  0  0  0  0  0  0  0
    6.9407   -1.7627    0.0000 H   0  0  0  0  0  0  0  0  0  0  0  0
    6.5422   -1.0724    0.0000 H   0  0  0  0  0  0  0  0  0  0  0  0
    6.8671    1.6550    0.0000 H   0  0  0  0  0  0  0  0  0  0  0  0
    5.7932   -2.9650    0.0000 H   0  0  0  0  0  0  0  0  0  0  0  0
    5.1350    4.0350    0.0000 H   0  0  0  0  0  0  0  0  0  0  0  0
    2.3291    4.0350    0.0000 H   0  0  0  0  0  0  0  0  0  0  0  0
    6.6592   -3.8450    0.0000 H   0  0  0  0  0  0  0  0  0  0  0  0
    7.6636   -5.1300    0.0000 H   0  0  0  0  0  0  0  0  0  0  0  0
    8.4607   -5.1300    0.0000 H   0  0  0  0  0  0  0  0  0  0  0  0
    5.1350    5.6550    0.0000 H   0  0  0  0  0  0  0  0  0  0  0  0
    2.3291    5.6550    0.0000 H   0  0  0  0  0  0  0  0  0  0  0  0
    5.7932   -4.3450    0.0000 H   0  0  0  0  0  0  0  0  0  0  0  0
    9.7942   -5.2750    0.0000 H   0  0  0  0  0  0  0  0  0  0  0  0
    8.3913   -2.8450    0.0000 H   0  0  0  0  0  0  0  0  0  0  0  0
    3.1951    7.1550    0.0000 H   0  0  0  0  0  0  0  0  0  0  0  0
    4.2690    7.1550    0.0000 H   0  0  0  0  0  0  0  0  0  0  0  0
    9.7942   -2.0350    0.0000 H   0  0  0  0  0  0  0  0  0  0  0  0
   11.5470   -5.3096    0.0000 H   0  0  0  0  0  0  0  0  0  0  0  0
   11.5470   -2.0004    0.0000 H   0  0  0  0  0  0  0  0  0  0  0  0
   12.9960   -4.4879    0.0000 H   0  0  0  0  0  0  0  0  0  0  0  0
   12.9960   -2.8221    0.0000 H   0  0  0  0  0  0  0  0  0  0  0  0
    4.8441   -7.1550    0.0000 H   0  0  0  0  0  0  0  0  0  0  0  0
    5.4641   -7.7750    0.0000 H   0  0  0  0  0  0  0  0  0  0  0  0
    6.0841   -7.1550    0.0000 H   0  0  0  0  0  0  0  0  0  0  0  0
    4.9081   -5.1181    0.0000 H   0  0  0  0  0  0  0  0  0  0  0  0
    4.0611   -5.3450    0.0000 H   0  0  0  0  0  0  0  0  0  0  0  0
    4.2881   -6.1919    0.0000 H   0  0  0  0  0  0  0  0  0  0  0  0
  1  3  2  0  0  0  0
  1  4  2  0  0  0  0
  1  7  1  0  0  0  0
  1 19  1  0  0  0  0
  2 17  1  0  0  0  0
  2 64  1  0  0  0  0
  5 26  2  0  0  0  0
  6 35  2  0  0  0  0
 12  7  1  6  0  0  0
  7 14  1  0  0  0  0
  8 22  1  0  0  0  0
  8 26  1  0  0  0  0
  8 65  1  0  0  0  0
 25  9  1  6  0  0  0
  9 35  1  0  0  0  0
  9 73  1  0  0  0  0
 10 30  1  0  0  0  0
 10 76  1  0  0  0  0
 10 77  1  0  0  0  0
 11 35  1  0  0  0  0
 11 42  1  0  0  0  0
 11 43  1  0  0  0  0
 12 13  1  0  0  0  0
 12 17  1  0  0  0  0
 12 44  1  0  0  0  0
 13 15  1  0  0  0  0
 13 45  1  0  0  0  0
 13 46  1  0  0  0  0
 14 16  1  0  0  0  0
 14 47  1  0  0  0  0
 14 48  1  0  0  0  0
 15 18  1  0  0  0  0
 15 49  1  0  0  0  0
 15 50  1  0  0  0  0
 16 20  1  0  0  0  0
 16 21  1  0  0  0  0
 16 51  1  0  0  0  0
 17 52  1  0  0  0  0
 17 53  1  0  0  0  0
 18 22  1  0  0  0  0
 18 54  1  0  0  0  0
 18 55  1  0  0  0  0
 19 23  2  0  0  0  0
 19 24  1  0  0  0  0
 20 56  1  0  0  0  0
 20 57  1  0  0  0  0
 20 58  1  0  0  0  0
 21 59  1  0  0  0  0
 21 60  1  0  0  0  0
 21 61  1  0  0  0  0
 22 62  1  0  0  0  0
 22 63  1  0  0  0  0
 23 28  1  0  0  0  0
 23 66  1  0  0  0  0
 24 29  2  0  0  0  0
 24 67  1  0  0  0  0
 25 26  1  0  0  0  0
 25 27  1  0  0  0  0
 25 68  1  0  0  0  0
 27 31  1  0  0  0  0
 27 69  1  0  0  0  0
 27 70  1  0  0  0  0
 28 30  2  0  0  0  0
 28 71  1  0  0  0  0
 29 30  1  0  0  0  0
 29 72  1  0  0  0  0
 31 32  2  0  0  0  0
 31 33  1  0  0  0  0
 32 34  1  0  0  0  0
 32 74  1  0  0  0  0
 33 37  2  0  0  0  0
 33 75  1  0  0  0  0
 34 36  1  0  0  0  0
 34 38  2  0  0  0  0
 36 37  1  0  0  0  0
 36 39  2  0  0  0  0
 37 78  1  0  0  0  0
 38 40  1  0  0  0  0
 38 79  1  0  0  0  0
 39 41  1  0  0  0  0
 39 80  1  0  0  0  0
 40 41  2  0  0  0  0
 40 81  1  0  0  0  0
 41 82  1  0  0  0  0
 42 83  1  0  0  0  0
 42 84  1  0  0  0  0
 42 85  1  0  0  0  0
 43 86  1  0  0  0  0
 43 87  1  0  0  0  0
 43 88  1  0  0  0  0
M  END
> <PUBCHEM_COMPOUND_CID>
513963
> <PUBCHEM_COMPOUND_CANONICALIZED>
1
> <PUBCHEM_CACTVS_COMPLEXITY>
964
> <PUBCHEM_CACTVS_HBOND_ACCEPTOR>
7
> <PUBCHEM_CACTVS_HBOND_DONOR>
4
> <PUBCHEM_CACTVS_ROTATABLE_BOND>
15
> <PUBCHEM_CACTVS_SUBSKEYS>
AAADcfB/uABAAAAAAAAAAAAAAAAAAAAAAAAwYMAAAAAAAADBVAAAHgQQSAAADSjh2AYzwcPAAgKIAiVSUHDCABAgAgAIiJmIZIiKcDKAkbGUYABslgKYyAeYyMCOwAQCAAAQAACACAQAACAAAAAAAAAAAA==
> <PUBCHEM_IUPAC_OPENEYE_NAME>
(2S)-N-[(5S)-5-[(4-aminophenyl)sulfonyl-isobutyl-amino]-6-hydroxy-hexyl]-2-(dimethylcarbamoylamino)-3-(2-naphthyl)propanamide
> <PUBCHEM_IUPAC_CAS_NAME>
(2S)-N-[(5S)-5-[(4-aminophenyl)sulfonyl-(2-methylpropyl)amino]-6-hydroxyhexyl]-2-[[dimethylamino(oxo)methyl]amino]-3-(2-naphthalenyl)propanamide
> <PUBCHEM_IUPAC_NAME_MARKUP>
(2<I>S</I>)-<I>N</I>-[(5<I>S</I>)-5-[(4-aminophenyl)sulfonyl-(2-methylpropyl)amino]-6-hydroxyhexyl]-2-(dimethylcarbamoylamino)-3-naphthalen-2-ylpropanamide
> <PUBCHEM_IUPAC_NAME>
(2S)-N-[(5S)-5-[(4-aminophenyl)sulfonyl-(2-methylpropyl)amino]-6-hydroxyhexyl]-2-(dimethylcarbamoylamino)-3-naphthalen-2-ylpropanamide
> <PUBCHEM_IUPAC_SYSTEMATIC_NAME>
(2S)-N-[(5S)-5-[(4-aminophenyl)sulfonyl-(2-methylpropyl)amino]-6-oxidanyl-hexyl]-2-(dimethylcarbamoylamino)-3-naphthalen-2-yl-propanamide
> <PUBCHEM_IUPAC_TRADITIONAL_NAME>
(2S)-2-(dimethylcarbamoylamino)-N-[(5S)-6-hydroxy-5-[isobutyl(sulfanilyl)amino]hexyl]-3-(2-naphthyl)propionamide
> <PUBCHEM_IUPAC_INCHI>
InChI=1S/C32H45N5O5S/c1-23(2)21-37(43(41,42)29-16-14-27(33)15-17-29)28(22-38)11-7-8-18-34-31(39)30(35-32(40)36(3)4)20-24-12-13-25-9-5-6-10-26(25)19-24/h5-6,9-10,12-17,19,23,28,30,38H,7-8,11,18,20-22,33H2,1-4H3,(H,34,39)(H,35,40)/t28-,30-/m0/s1
> <PUBCHEM_IUPAC_INCHIKEY>
WDFNIIGPBRFMEV-JDXGNMNLSA-N
> <PUBCHEM_XLOGP3_AA>
4.1
> <PUBCHEM_EXACT_MASS>
611.31414073
> <PUBCHEM_MOLECULAR_FORMULA>
C32H45N5O5S
> <PUBCHEM_MOLECULAR_WEIGHT>
611.8
> <PUBCHEM_OPENEYE_CAN_SMILES>
CC(C)CN(C(CCCCNC(=O)C(CC1=CC2=CC=CC=C2C=C1)NC(=O)N(C)C)CO)S(=O)(=O)C3=CC=C(C=C3)N
> <PUBCHEM_OPENEYE_ISO_SMILES>
CC(C)CN([C@@H](CCCCNC(=O)[C@H](CC1=CC2=CC=CC=C2C=C1)NC(=O)N(C)C)CO)S(=O)(=O)C3=CC=C(C=C3)N
> <PUBCHEM_CACTVS_TPSA>
153
> <PUBCHEM_MONOISOTOPIC_WEIGHT>
611.31414073
> <PUBCHEM_TOTAL_CHARGE>
0
> <PUBCHEM_HEAVY_ATOM_COUNT>
43
> <PUBCHEM_ATOM_DEF_STEREO_COUNT>
2
> <PUBCHEM_ATOM_UDEF_STEREO_COUNT>
0
> <PUBCHEM_BOND_DEF_STEREO_COUNT>
0
> <PUBCHEM_BOND_UDEF_STEREO_COUNT>
0
> <PUBCHEM_ISOTOPIC_ATOM_COUNT>
0
> <PUBCHEM_COMPONENT_COUNT>
1
> <PUBCHEM_CACTVS_TAUTO_COUNT>
-1
> <PUBCHEM_COORDINATE_TYPE>
1
5
255
> <PUBCHEM_BONDANNOTATIONS>
19  23  8
19  24  8
23  28  8
24  29  8
28  30  8
29  30  8
31  32  8
31  33  8
32  34  8
33  37  8
34  36  8
34  38  8
36  37  8
36  39  8
38  40  8
39  41  8
40  41  8
12  7  6
25  9  6
$$$$
