513982
  -OEChem-10302200282D
 93 96  0     1  0  0  0  0  0999 V2000
    3.7320    2.9462    0.0000 S   0  0  0  0  0  0  0  0  0  0  0  0
    7.1962   -6.0538    0.0000 O   0  0  0  0  0  0  0  0  0  0  0  0
    6.3301    1.4462    0.0000 O   0  0  0  0  0  0  0  0  0  0  0  0
    2.7320    2.9462    0.0000 O   0  0  0  0  0  0  0  0  0  0  0  0
    4.7320    2.9462    0.0000 O   0  0  0  0  0  0  0  0  0  0  0  0
    8.0622   -2.5538    0.0000 O   0  0  0  0  0  0  0  0  0  0  0  0
    3.7320    1.9462    0.0000 N   0  0  3  0  0  0  0  0  0  0  0  0
    6.3301   -4.5538    0.0000 N   0  0  0  0  0  0  0  0  0  0  0  0
    6.3301   -2.5538    0.0000 N   0  0  0  0  0  0  0  0  0  0  0  0
    3.7320    6.9462    0.0000 N   0  0  0  0  0  0  0  0  0  0  0  0
    5.4641   -6.0538    0.0000 C   0  0  0  0  0  0  0  0  0  0  0  0
    5.3596   -7.0483    0.0000 C   0  0  0  0  0  0  0  0  0  0  0  0
    4.5506   -5.6470    0.0000 C   0  0  0  0  0  0  0  0  0  0  0  0
    4.3814   -7.2562    0.0000 C   0  0  0  0  0  0  0  0  0  0  0  0
    3.8814   -6.3902    0.0000 C   0  0  0  0  0  0  0  0  0  0  0  0
    6.3301   -5.5538    0.0000 C   0  0  0  0  0  0  0  0  0  0  0  0
    4.5981    1.4462    0.0000 C   0  0  1  0  0  0  0  0  0  0  0  0
    4.5981    0.4462    0.0000 C   0  0  0  0  0  0  0  0  0  0  0  0
    2.8660    1.4462    0.0000 C   0  0  0  0  0  0  0  0  0  0  0  0
    5.4641   -0.0538    0.0000 C   0  0  0  0  0  0  0  0  0  0  0  0
    7.1962   -4.0538    0.0000 C   0  0  1  0  0  0  0  0  0  0  0  0
    2.8660    0.4462    0.0000 C   0  0  0  0  0  0  0  0  0  0  0  0
    5.4641    1.9462    0.0000 C   0  0  0  0  0  0  0  0  0  0  0  0
    5.4641   -1.0538    0.0000 C   0  0  0  0  0  0  0  0  0  0  0  0
    8.0622   -4.5538    0.0000 C   0  0  0  0  0  0  0  0  0  0  0  0
    6.3301   -1.5538    0.0000 C   0  0  0  0  0  0  0  0  0  0  0  0
    7.1962   -3.0538    0.0000 C   0  0  0  0  0  0  0  0  0  0  0  0
    3.7320    3.9462    0.0000 C   0  0  0  0  0  0  0  0  0  0  0  0
    2.0000   -0.0538    0.0000 C   0  0  0  0  0  0  0  0  0  0  0  0
    3.7320   -0.0538    0.0000 C   0  0  0  0  0  0  0  0  0  0  0  0
    8.9282   -4.0538    0.0000 C   0  0  0  0  0  0  0  0  0  0  0  0
    4.5981    4.4462    0.0000 C   0  0  0  0  0  0  0  0  0  0  0  0
    2.8660    4.4462    0.0000 C   0  0  0  0  0  0  0  0  0  0  0  0
    9.7942   -4.5538    0.0000 C   0  0  0  0  0  0  0  0  0  0  0  0
    8.9282   -3.0538    0.0000 C   0  0  0  0  0  0  0  0  0  0  0  0
   10.6603   -4.0538    0.0000 C   0  0  0  0  0  0  0  0  0  0  0  0
    4.5981    5.4462    0.0000 C   0  0  0  0  0  0  0  0  0  0  0  0
    2.8660    5.4462    0.0000 C   0  0  0  0  0  0  0  0  0  0  0  0
   10.6603   -3.0538    0.0000 C   0  0  0  0  0  0  0  0  0  0  0  0
    9.7942   -2.5538    0.0000 C   0  0  0  0  0  0  0  0  0  0  0  0
    3.7320    5.9462    0.0000 C   0  0  0  0  0  0  0  0  0  0  0  0
   11.5542   -4.5884    0.0000 C   0  0  0  0  0  0  0  0  0  0  0  0
   11.5542   -2.5191    0.0000 C   0  0  0  0  0  0  0  0  0  0  0  0
   12.4603   -4.0746    0.0000 C   0  0  0  0  0  0  0  0  0  0  0  0
   12.4603   -3.0330    0.0000 C   0  0  0  0  0  0  0  0  0  0  0  0
    5.9841   -6.3915    0.0000 H   0  0  0  0  0  0  0  0  0  0  0  0
    5.4244   -7.6649    0.0000 H   0  0  0  0  0  0  0  0  0  0  0  0
    5.9796   -7.0483    0.0000 H   0  0  0  0  0  0  0  0  0  0  0  0
    4.8606   -5.1101    0.0000 H   0  0  0  0  0  0  0  0  0  0  0  0
    4.0490   -5.2826    0.0000 H   0  0  0  0  0  0  0  0  0  0  0  0
    3.8150   -7.5084    0.0000 H   0  0  0  0  0  0  0  0  0  0  0  0
    4.5730   -7.8459    0.0000 H   0  0  0  0  0  0  0  0  0  0  0  0
    3.4666   -5.9294    0.0000 H   0  0  0  0  0  0  0  0  0  0  0  0
    3.3798   -6.7546    0.0000 H   0  0  0  0  0  0  0  0  0  0  0  0
    4.5981    2.0662    0.0000 H   0  0  0  0  0  0  0  0  0  0  0  0
    3.9875    0.5539    0.0000 H   0  0  0  0  0  0  0  0  0  0  0  0
    4.3860   -0.1364    0.0000 H   0  0  0  0  0  0  0  0  0  0  0  0
    2.6540    2.0288    0.0000 H   0  0  0  0  0  0  0  0  0  0  0  0
    2.2554    1.3385    0.0000 H   0  0  0  0  0  0  0  0  0  0  0  0
    5.7932   -4.2438    0.0000 H   0  0  0  0  0  0  0  0  0  0  0  0
    6.0747   -0.1614    0.0000 H   0  0  0  0  0  0  0  0  0  0  0  0
    5.6762    0.5288    0.0000 H   0  0  0  0  0  0  0  0  0  0  0  0
    6.6592   -3.7438    0.0000 H   0  0  0  0  0  0  0  0  0  0  0  0
    2.8660   -0.1738    0.0000 H   0  0  0  0  0  0  0  0  0  0  0  0
    5.8626    2.4212    0.0000 H   0  0  0  0  0  0  0  0  0  0  0  0
    5.0656    2.4212    0.0000 H   0  0  0  0  0  0  0  0  0  0  0  0
    4.8535   -0.9461    0.0000 H   0  0  0  0  0  0  0  0  0  0  0  0
    5.2520   -1.6364    0.0000 H   0  0  0  0  0  0  0  0  0  0  0  0
    7.6636   -5.0287    0.0000 H   0  0  0  0  0  0  0  0  0  0  0  0
    8.4607   -5.0287    0.0000 H   0  0  0  0  0  0  0  0  0  0  0  0
    6.9407   -1.6614    0.0000 H   0  0  0  0  0  0  0  0  0  0  0  0
    6.5422   -0.9712    0.0000 H   0  0  0  0  0  0  0  0  0  0  0  0
    5.7932   -2.8638    0.0000 H   0  0  0  0  0  0  0  0  0  0  0  0
    1.6900    0.4832    0.0000 H   0  0  0  0  0  0  0  0  0  0  0  0
    1.4631   -0.3638    0.0000 H   0  0  0  0  0  0  0  0  0  0  0  0
    2.3100   -0.5907    0.0000 H   0  0  0  0  0  0  0  0  0  0  0  0
    3.4220   -0.5907    0.0000 H   0  0  0  0  0  0  0  0  0  0  0  0
    4.2690   -0.3638    0.0000 H   0  0  0  0  0  0  0  0  0  0  0  0
    4.0420    0.4832    0.0000 H   0  0  0  0  0  0  0  0  0  0  0  0
    6.8671    1.7562    0.0000 H   0  0  0  0  0  0  0  0  0  0  0  0
    5.1350    4.1362    0.0000 H   0  0  0  0  0  0  0  0  0  0  0  0
    2.3291    4.1362    0.0000 H   0  0  0  0  0  0  0  0  0  0  0  0
    9.7942   -5.1738    0.0000 H   0  0  0  0  0  0  0  0  0  0  0  0
    8.3913   -2.7438    0.0000 H   0  0  0  0  0  0  0  0  0  0  0  0
    5.1350    5.7562    0.0000 H   0  0  0  0  0  0  0  0  0  0  0  0
    2.3291    5.7562    0.0000 H   0  0  0  0  0  0  0  0  0  0  0  0
    9.7942   -1.9338    0.0000 H   0  0  0  0  0  0  0  0  0  0  0  0
   11.5470   -5.2084    0.0000 H   0  0  0  0  0  0  0  0  0  0  0  0
   11.5470   -1.8992    0.0000 H   0  0  0  0  0  0  0  0  0  0  0  0
    3.1951    7.2562    0.0000 H   0  0  0  0  0  0  0  0  0  0  0  0
    4.2690    7.2562    0.0000 H   0  0  0  0  0  0  0  0  0  0  0  0
   12.9960   -4.3867    0.0000 H   0  0  0  0  0  0  0  0  0  0  0  0
   12.9960   -2.7209    0.0000 H   0  0  0  0  0  0  0  0  0  0  0  0
  1  4  2  0  0  0  0
  1  5  2  0  0  0  0
  1  7  1  0  0  0  0
  1 28  1  0  0  0  0
  2 16  2  0  0  0  0
  3 23  1  0  0  0  0
  3 80  1  0  0  0  0
  6 27  2  0  0  0  0
 17  7  1  6  0  0  0
  7 19  1  0  0  0  0
  8 16  1  0  0  0  0
 21  8  1  6  0  0  0
  8 60  1  0  0  0  0
  9 26  1  0  0  0  0
  9 27  1  0  0  0  0
  9 73  1  0  0  0  0
 10 41  1  0  0  0  0
 10 90  1  0  0  0  0
 10 91  1  0  0  0  0
 11 12  1  0  0  0  0
 11 13  1  0  0  0  0
 11 16  1  0  0  0  0
 11 46  1  0  0  0  0
 12 14  1  0  0  0  0
 12 47  1  0  0  0  0
 12 48  1  0  0  0  0
 13 15  1  0  0  0  0
 13 49  1  0  0  0  0
 13 50  1  0  0  0  0
 14 15  1  0  0  0  0
 14 51  1  0  0  0  0
 14 52  1  0  0  0  0
 15 53  1  0  0  0  0
 15 54  1  0  0  0  0
 17 18  1  0  0  0  0
 17 23  1  0  0  0  0
 17 55  1  0  0  0  0
 18 20  1  0  0  0  0
 18 56  1  0  0  0  0
 18 57  1  0  0  0  0
 19 22  1  0  0  0  0
 19 58  1  0  0  0  0
 19 59  1  0  0  0  0
 20 24  1  0  0  0  0
 20 61  1  0  0  0  0
 20 62  1  0  0  0  0
 21 25  1  0  0  0  0
 21 27  1  0  0  0  0
 21 63  1  0  0  0  0
 22 29  1  0  0  0  0
 22 30  1  0  0  0  0
 22 64  1  0  0  0  0
 23 65  1  0  0  0  0
 23 66  1  0  0  0  0
 24 26  1  0  0  0  0
 24 67  1  0  0  0  0
 24 68  1  0  0  0  0
 25 31  1  0  0  0  0
 25 69  1  0  0  0  0
 25 70  1  0  0  0  0
 26 71  1  0  0  0  0
 26 72  1  0  0  0  0
 28 32  2  0  0  0  0
 28 33  1  0  0  0  0
 29 74  1  0  0  0  0
 29 75  1  0  0  0  0
 29 76  1  0  0  0  0
 30 77  1  0  0  0  0
 30 78  1  0  0  0  0
 30 79  1  0  0  0  0
 31 34  2  0  0  0  0
 31 35  1  0  0  0  0
 32 37  1  0  0  0  0
 32 81  1  0  0  0  0
 33 38  2  0  0  0  0
 33 82  1  0  0  0  0
 34 36  1  0  0  0  0
 34 83  1  0  0  0  0
 35 40  2  0  0  0  0
 35 84  1  0  0  0  0
 36 39  1  0  0  0  0
 36 42  2  0  0  0  0
 37 41  2  0  0  0  0
 37 85  1  0  0  0  0
 38 41  1  0  0  0  0
 38 86  1  0  0  0  0
 39 40  1  0  0  0  0
 39 43  2  0  0  0  0
 40 87  1  0  0  0  0
 42 44  1  0  0  0  0
 42 88  1  0  0  0  0
 43 45  1  0  0  0  0
 43 89  1  0  0  0  0
 44 45  2  0  0  0  0
 44 92  1  0  0  0  0
 45 93  1  0  0  0  0
M  END
> <PUBCHEM_COMPOUND_CID>
513982
> <PUBCHEM_COMPOUND_CANONICALIZED>
1
> <PUBCHEM_CACTVS_COMPLEXITY>
1020
> <PUBCHEM_CACTVS_HBOND_ACCEPTOR>
7
> <PUBCHEM_CACTVS_HBOND_DONOR>
4
> <PUBCHEM_CACTVS_ROTATABLE_BOND>
16
> <PUBCHEM_CACTVS_SUBSKEYS>
AAADcfB/uABAAAAAAAAAAAAAAAAAAYAAAAAwYMAAAAAAAADBVAAAHgQQSAAADSjh2AYywcLAAgKIAiVSUHDCABAgAgAIiJmIZIgKcDKAkbGUYABklgCYyAeYyMCOwAQCAAAQAACACAQAACAAAAAAAAAAAA==
> <PUBCHEM_IUPAC_OPENEYE_NAME>
N-[(1S)-2-[[(5S)-5-[(4-aminophenyl)sulfonyl-isobutyl-amino]-6-hydroxy-hexyl]amino]-1-(2-naphthylmethyl)-2-oxo-ethyl]cyclopentanecarboxamide
> <PUBCHEM_IUPAC_CAS_NAME>
N-[(2S)-1-[[(5S)-5-[(4-aminophenyl)sulfonyl-(2-methylpropyl)amino]-6-hydroxyhexyl]amino]-3-(2-naphthalenyl)-1-oxopropan-2-yl]cyclopentanecarboxamide
> <PUBCHEM_IUPAC_NAME_MARKUP>
<I>N</I>-[(2<I>S</I>)-1-[[(5<I>S</I>)-5-[(4-aminophenyl)sulfonyl-(2-methylpropyl)amino]-6-hydroxyhexyl]amino]-3-naphthalen-2-yl-1-oxopropan-2-yl]cyclopentanecarboxamide
> <PUBCHEM_IUPAC_NAME>
N-[(2S)-1-[[(5S)-5-[(4-aminophenyl)sulfonyl-(2-methylpropyl)amino]-6-hydroxyhexyl]amino]-3-naphthalen-2-yl-1-oxopropan-2-yl]cyclopentanecarboxamide
> <PUBCHEM_IUPAC_SYSTEMATIC_NAME>
N-[(2S)-1-[[(5S)-5-[(4-aminophenyl)sulfonyl-(2-methylpropyl)amino]-6-oxidanyl-hexyl]amino]-3-naphthalen-2-yl-1-oxidanylidene-propan-2-yl]cyclopentanecarboxamide
> <PUBCHEM_IUPAC_TRADITIONAL_NAME>
N-[(1S)-2-[[(5S)-6-hydroxy-5-[isobutyl(sulfanilyl)amino]hexyl]amino]-2-keto-1-(2-naphthylmethyl)ethyl]cyclopentanecarboxamide
> <PUBCHEM_IUPAC_INCHI>
InChI=1S/C35H48N4O5S/c1-25(2)23-39(45(43,44)32-18-16-30(36)17-19-32)31(24-40)13-7-8-20-37-35(42)33(38-34(41)28-10-4-5-11-28)22-26-14-15-27-9-3-6-12-29(27)21-26/h3,6,9,12,14-19,21,25,28,31,33,40H,4-5,7-8,10-11,13,20,22-24,36H2,1-2H3,(H,37,42)(H,38,41)/t31-,33-/m0/s1
> <PUBCHEM_IUPAC_INCHIKEY>
MSXHGBNOKVVYPJ-WEZIJMHWSA-N
> <PUBCHEM_XLOGP3_AA>
5.6
> <PUBCHEM_EXACT_MASS>
636.33454182
> <PUBCHEM_MOLECULAR_FORMULA>
C35H48N4O5S
> <PUBCHEM_MOLECULAR_WEIGHT>
636.8
> <PUBCHEM_OPENEYE_CAN_SMILES>
CC(C)CN(C(CCCCNC(=O)C(CC1=CC2=CC=CC=C2C=C1)NC(=O)C3CCCC3)CO)S(=O)(=O)C4=CC=C(C=C4)N
> <PUBCHEM_OPENEYE_ISO_SMILES>
CC(C)CN([C@@H](CCCCNC(=O)[C@H](CC1=CC2=CC=CC=C2C=C1)NC(=O)C3CCCC3)CO)S(=O)(=O)C4=CC=C(C=C4)N
> <PUBCHEM_CACTVS_TPSA>
150
> <PUBCHEM_MONOISOTOPIC_WEIGHT>
636.33454182
> <PUBCHEM_TOTAL_CHARGE>
0
> <PUBCHEM_HEAVY_ATOM_COUNT>
45
> <PUBCHEM_ATOM_DEF_STEREO_COUNT>
2
> <PUBCHEM_ATOM_UDEF_STEREO_COUNT>
0
> <PUBCHEM_BOND_DEF_STEREO_COUNT>
0
> <PUBCHEM_BOND_UDEF_STEREO_COUNT>
0
> <PUBCHEM_ISOTOPIC_ATOM_COUNT>
0
> <PUBCHEM_COMPONENT_COUNT>
1
> <PUBCHEM_CACTVS_TAUTO_COUNT>
-1
> <PUBCHEM_COORDINATE_TYPE>
1
5
255
> <PUBCHEM_BONDANNOTATIONS>
28  32  8
28  33  8
31  34  8
31  35  8
32  37  8
33  38  8
34  36  8
35  40  8
36  39  8
36  42  8
37  41  8
38  41  8
39  40  8
39  43  8
42  44  8
43  45  8
44  45  8
17  7  6
21  8  6
$$$$
