513935
  -OEChem-10302200282D
 93 96  0     1  0  0  0  0  0999 V2000
    6.0010    0.4827    0.0000 S   0  0  0  0  0  0  0  0  0  0  0  0
   14.6613   -0.5173    0.0000 O   0  0  0  0  0  0  0  0  0  0  0  0
    6.8671   -1.0173    0.0000 O   0  0  0  0  0  0  0  0  0  0  0  0
    5.5010    1.3487    0.0000 O   0  0  0  0  0  0  0  0  0  0  0  0
    6.5010   -0.3834    0.0000 O   0  0  0  0  0  0  0  0  0  0  0  0
   12.0632    1.9827    0.0000 O   0  0  0  0  0  0  0  0  0  0  0  0
    6.8671    0.9827    0.0000 N   0  0  3  0  0  0  0  0  0  0  0  0
   12.9292   -0.5173    0.0000 N   0  0  0  0  0  0  0  0  0  0  0  0
   11.1972    0.4827    0.0000 N   0  0  0  0  0  0  0  0  0  0  0  0
    2.5369   -1.5173    0.0000 N   0  0  0  0  0  0  0  0  0  0  0  0
   13.7953   -2.0173    0.0000 C   0  0  0  0  0  0  0  0  0  0  0  0
   14.6613   -2.5173    0.0000 C   0  0  0  0  0  0  0  0  0  0  0  0
   12.9292   -2.5173    0.0000 C   0  0  0  0  0  0  0  0  0  0  0  0
   14.6613   -3.5173    0.0000 C   0  0  0  0  0  0  0  0  0  0  0  0
   12.9292   -3.5173    0.0000 C   0  0  0  0  0  0  0  0  0  0  0  0
   13.7953   -4.0173    0.0000 C   0  0  0  0  0  0  0  0  0  0  0  0
   13.7953   -1.0173    0.0000 C   0  0  0  0  0  0  0  0  0  0  0  0
    7.7331    0.4827    0.0000 C   0  0  1  0  0  0  0  0  0  0  0  0
    8.5991    0.9827    0.0000 C   0  0  0  0  0  0  0  0  0  0  0  0
    6.8671    1.9827    0.0000 C   0  0  0  0  0  0  0  0  0  0  0  0
   12.9292    0.4827    0.0000 C   0  0  1  0  0  0  0  0  0  0  0  0
    9.4651    0.4827    0.0000 C   0  0  0  0  0  0  0  0  0  0  0  0
    7.7331    2.4827    0.0000 C   0  0  0  0  0  0  0  0  0  0  0  0
    7.7331   -0.5173    0.0000 C   0  0  0  0  0  0  0  0  0  0  0  0
   10.3312    0.9827    0.0000 C   0  0  0  0  0  0  0  0  0  0  0  0
   13.7953    0.9827    0.0000 C   0  0  0  0  0  0  0  0  0  0  0  0
   12.0632    0.9827    0.0000 C   0  0  0  0  0  0  0  0  0  0  0  0
    5.1350   -0.0173    0.0000 C   0  0  0  0  0  0  0  0  0  0  0  0
    7.7331    3.4827    0.0000 C   0  0  0  0  0  0  0  0  0  0  0  0
    8.5991    1.9827    0.0000 C   0  0  0  0  0  0  0  0  0  0  0  0
   13.7953    1.9827    0.0000 C   0  0  0  0  0  0  0  0  0  0  0  0
   14.6613    2.4827    0.0000 C   0  0  0  0  0  0  0  0  0  0  0  0
    5.1350   -1.0173    0.0000 C   0  0  0  0  0  0  0  0  0  0  0  0
    4.2690    0.4827    0.0000 C   0  0  0  0  0  0  0  0  0  0  0  0
   12.9292    2.4827    0.0000 C   0  0  0  0  0  0  0  0  0  0  0  0
   14.6613    3.4827    0.0000 C   0  0  0  0  0  0  0  0  0  0  0  0
    4.2690   -1.5173    0.0000 C   0  0  0  0  0  0  0  0  0  0  0  0
    3.4030   -0.0173    0.0000 C   0  0  0  0  0  0  0  0  0  0  0  0
   15.5552    1.9480    0.0000 C   0  0  0  0  0  0  0  0  0  0  0  0
   12.9292    3.4827    0.0000 C   0  0  0  0  0  0  0  0  0  0  0  0
   13.7953    3.9827    0.0000 C   0  0  0  0  0  0  0  0  0  0  0  0
    3.4030   -1.0173    0.0000 C   0  0  0  0  0  0  0  0  0  0  0  0
   15.5552    4.0173    0.0000 C   0  0  0  0  0  0  0  0  0  0  0  0
   16.4613    2.4618    0.0000 C   0  0  0  0  0  0  0  0  0  0  0  0
   16.4613    3.5035    0.0000 C   0  0  0  0  0  0  0  0  0  0  0  0
   14.3322   -1.7073    0.0000 H   0  0  0  0  0  0  0  0  0  0  0  0
   15.2719   -2.6250    0.0000 H   0  0  0  0  0  0  0  0  0  0  0  0
   14.8733   -1.9347    0.0000 H   0  0  0  0  0  0  0  0  0  0  0  0
   12.7172   -1.9347    0.0000 H   0  0  0  0  0  0  0  0  0  0  0  0
   12.3187   -2.6250    0.0000 H   0  0  0  0  0  0  0  0  0  0  0  0
   14.8733   -4.0999    0.0000 H   0  0  0  0  0  0  0  0  0  0  0  0
   15.2719   -3.4097    0.0000 H   0  0  0  0  0  0  0  0  0  0  0  0
   12.3187   -3.4097    0.0000 H   0  0  0  0  0  0  0  0  0  0  0  0
   12.7172   -4.0999    0.0000 H   0  0  0  0  0  0  0  0  0  0  0  0
   13.3967   -4.4923    0.0000 H   0  0  0  0  0  0  0  0  0  0  0  0
   14.1938   -4.4923    0.0000 H   0  0  0  0  0  0  0  0  0  0  0  0
    7.7331    1.1027    0.0000 H   0  0  0  0  0  0  0  0  0  0  0  0
    8.9976    1.4576    0.0000 H   0  0  0  0  0  0  0  0  0  0  0  0
    8.2006    1.4576    0.0000 H   0  0  0  0  0  0  0  0  0  0  0  0
    6.6550    2.5653    0.0000 H   0  0  0  0  0  0  0  0  0  0  0  0
    6.2565    1.8750    0.0000 H   0  0  0  0  0  0  0  0  0  0  0  0
   12.3923    0.1727    0.0000 H   0  0  0  0  0  0  0  0  0  0  0  0
   12.3923   -0.8273    0.0000 H   0  0  0  0  0  0  0  0  0  0  0  0
    9.0666    0.0077    0.0000 H   0  0  0  0  0  0  0  0  0  0  0  0
    9.8637    0.0077    0.0000 H   0  0  0  0  0  0  0  0  0  0  0  0
    7.7331    1.8627    0.0000 H   0  0  0  0  0  0  0  0  0  0  0  0
    7.9451   -1.0999    0.0000 H   0  0  0  0  0  0  0  0  0  0  0  0
    8.3437   -0.4097    0.0000 H   0  0  0  0  0  0  0  0  0  0  0  0
   10.7297    1.4576    0.0000 H   0  0  0  0  0  0  0  0  0  0  0  0
    9.9326    1.4576    0.0000 H   0  0  0  0  0  0  0  0  0  0  0  0
   14.0073    0.4001    0.0000 H   0  0  0  0  0  0  0  0  0  0  0  0
   14.4058    1.0903    0.0000 H   0  0  0  0  0  0  0  0  0  0  0  0
   11.1972   -0.1373    0.0000 H   0  0  0  0  0  0  0  0  0  0  0  0
    8.3531    3.4827    0.0000 H   0  0  0  0  0  0  0  0  0  0  0  0
    7.7331    4.1027    0.0000 H   0  0  0  0  0  0  0  0  0  0  0  0
    7.1131    3.4827    0.0000 H   0  0  0  0  0  0  0  0  0  0  0  0
    8.2891    1.4457    0.0000 H   0  0  0  0  0  0  0  0  0  0  0  0
    9.1360    1.6727    0.0000 H   0  0  0  0  0  0  0  0  0  0  0  0
    8.9091    2.5196    0.0000 H   0  0  0  0  0  0  0  0  0  0  0  0
    6.8671   -1.6373    0.0000 H   0  0  0  0  0  0  0  0  0  0  0  0
    5.6720   -1.3273    0.0000 H   0  0  0  0  0  0  0  0  0  0  0  0
    4.2690    1.1027    0.0000 H   0  0  0  0  0  0  0  0  0  0  0  0
   12.3923    2.1727    0.0000 H   0  0  0  0  0  0  0  0  0  0  0  0
    4.2690   -2.1373    0.0000 H   0  0  0  0  0  0  0  0  0  0  0  0
    2.8660    0.2927    0.0000 H   0  0  0  0  0  0  0  0  0  0  0  0
   15.5481    1.3280    0.0000 H   0  0  0  0  0  0  0  0  0  0  0  0
   12.3923    3.7927    0.0000 H   0  0  0  0  0  0  0  0  0  0  0  0
   13.7953    4.6027    0.0000 H   0  0  0  0  0  0  0  0  0  0  0  0
   15.5481    4.6373    0.0000 H   0  0  0  0  0  0  0  0  0  0  0  0
   16.9970    2.1498    0.0000 H   0  0  0  0  0  0  0  0  0  0  0  0
   16.9970    3.8156    0.0000 H   0  0  0  0  0  0  0  0  0  0  0  0
    2.0000   -1.2073    0.0000 H   0  0  0  0  0  0  0  0  0  0  0  0
    2.5369   -2.1373    0.0000 H   0  0  0  0  0  0  0  0  0  0  0  0
  1  4  2  0  0  0  0
  1  5  2  0  0  0  0
  1  7  1  0  0  0  0
  1 28  1  0  0  0  0
  2 17  2  0  0  0  0
  3 24  1  0  0  0  0
  3 80  1  0  0  0  0
  6 27  2  0  0  0  0
 18  7  1  1  0  0  0
  7 20  1  0  0  0  0
  8 17  1  0  0  0  0
 21  8  1  6  0  0  0
  8 63  1  0  0  0  0
  9 25  1  0  0  0  0
  9 27  1  0  0  0  0
  9 73  1  0  0  0  0
 10 42  1  0  0  0  0
 10 92  1  0  0  0  0
 10 93  1  0  0  0  0
 11 12  1  0  0  0  0
 11 13  1  0  0  0  0
 11 17  1  0  0  0  0
 11 46  1  0  0  0  0
 12 14  1  0  0  0  0
 12 47  1  0  0  0  0
 12 48  1  0  0  0  0
 13 15  1  0  0  0  0
 13 49  1  0  0  0  0
 13 50  1  0  0  0  0
 14 16  1  0  0  0  0
 14 51  1  0  0  0  0
 14 52  1  0  0  0  0
 15 16  1  0  0  0  0
 15 53  1  0  0  0  0
 15 54  1  0  0  0  0
 16 55  1  0  0  0  0
 16 56  1  0  0  0  0
 18 19  1  0  0  0  0
 18 24  1  0  0  0  0
 18 57  1  0  0  0  0
 19 22  1  0  0  0  0
 19 58  1  0  0  0  0
 19 59  1  0  0  0  0
 20 23  1  0  0  0  0
 20 60  1  0  0  0  0
 20 61  1  0  0  0  0
 21 26  1  0  0  0  0
 21 27  1  0  0  0  0
 21 62  1  0  0  0  0
 22 25  1  0  0  0  0
 22 64  1  0  0  0  0
 22 65  1  0  0  0  0
 23 29  1  0  0  0  0
 23 30  1  0  0  0  0
 23 66  1  0  0  0  0
 24 67  1  0  0  0  0
 24 68  1  0  0  0  0
 25 69  1  0  0  0  0
 25 70  1  0  0  0  0
 26 31  1  0  0  0  0
 26 71  1  0  0  0  0
 26 72  1  0  0  0  0
 28 33  2  0  0  0  0
 28 34  1  0  0  0  0
 29 74  1  0  0  0  0
 29 75  1  0  0  0  0
 29 76  1  0  0  0  0
 30 77  1  0  0  0  0
 30 78  1  0  0  0  0
 30 79  1  0  0  0  0
 31 32  1  0  0  0  0
 31 35  2  0  0  0  0
 32 36  1  0  0  0  0
 32 39  2  0  0  0  0
 33 37  1  0  0  0  0
 33 81  1  0  0  0  0
 34 38  2  0  0  0  0
 34 82  1  0  0  0  0
 35 40  1  0  0  0  0
 35 83  1  0  0  0  0
 36 41  1  0  0  0  0
 36 43  2  0  0  0  0
 37 42  2  0  0  0  0
 37 84  1  0  0  0  0
 38 42  1  0  0  0  0
 38 85  1  0  0  0  0
 39 44  1  0  0  0  0
 39 86  1  0  0  0  0
 40 41  2  0  0  0  0
 40 87  1  0  0  0  0
 41 88  1  0  0  0  0
 43 45  1  0  0  0  0
 43 89  1  0  0  0  0
 44 45  2  0  0  0  0
 44 90  1  0  0  0  0
 45 91  1  0  0  0  0
M  END
> <PUBCHEM_COMPOUND_CID>
513935
> <PUBCHEM_COMPOUND_CANONICALIZED>
1
> <PUBCHEM_CACTVS_COMPLEXITY>
1020
> <PUBCHEM_CACTVS_HBOND_ACCEPTOR>
7
> <PUBCHEM_CACTVS_HBOND_DONOR>
4
> <PUBCHEM_CACTVS_ROTATABLE_BOND>
15
> <PUBCHEM_CACTVS_SUBSKEYS>
AAADcfB/uABAAAAAAAAAAAAAAAAAAAAAAAAwYMGAAAAAAADBVAAAHgQQSAAADSjh2AYywcLAAgKIAiVSUHDCABAgAgAIiJmIZIgKcDKAkbGUYABklgCYyAeYmMKOgAQCAAAQAAAACAQAACAAAAAAAAAAAA==
> <PUBCHEM_IUPAC_OPENEYE_NAME>
N-[(1S)-2-[[(4S)-4-[(4-aminophenyl)sulfonyl-isobutyl-amino]-5-hydroxy-pentyl]amino]-1-(1-naphthylmethyl)-2-oxo-ethyl]cyclohexanecarboxamide
> <PUBCHEM_IUPAC_CAS_NAME>
N-[(2S)-1-[[(4S)-4-[(4-aminophenyl)sulfonyl-(2-methylpropyl)amino]-5-hydroxypentyl]amino]-3-(1-naphthalenyl)-1-oxopropan-2-yl]cyclohexanecarboxamide
> <PUBCHEM_IUPAC_NAME_MARKUP>
<I>N</I>-[(2<I>S</I>)-1-[[(4<I>S</I>)-4-[(4-aminophenyl)sulfonyl-(2-methylpropyl)amino]-5-hydroxypentyl]amino]-3-naphthalen-1-yl-1-oxopropan-2-yl]cyclohexanecarboxamide
> <PUBCHEM_IUPAC_NAME>
N-[(2S)-1-[[(4S)-4-[(4-aminophenyl)sulfonyl-(2-methylpropyl)amino]-5-hydroxypentyl]amino]-3-naphthalen-1-yl-1-oxopropan-2-yl]cyclohexanecarboxamide
> <PUBCHEM_IUPAC_SYSTEMATIC_NAME>
N-[(2S)-1-[[(4S)-4-[(4-aminophenyl)sulfonyl-(2-methylpropyl)amino]-5-oxidanyl-pentyl]amino]-3-naphthalen-1-yl-1-oxidanylidene-propan-2-yl]cyclohexanecarboxamide
> <PUBCHEM_IUPAC_TRADITIONAL_NAME>
N-[(1S)-2-[[(4S)-5-hydroxy-4-[isobutyl(sulfanilyl)amino]pentyl]amino]-2-keto-1-(1-naphthylmethyl)ethyl]cyclohexanecarboxamide
> <PUBCHEM_IUPAC_INCHI>
InChI=1S/C35H48N4O5S/c1-25(2)23-39(45(43,44)31-19-17-29(36)18-20-31)30(24-40)15-9-21-37-35(42)33(38-34(41)27-11-4-3-5-12-27)22-28-14-8-13-26-10-6-7-16-32(26)28/h6-8,10,13-14,16-20,25,27,30,33,40H,3-5,9,11-12,15,21-24,36H2,1-2H3,(H,37,42)(H,38,41)/t30-,33-/m0/s1
> <PUBCHEM_IUPAC_INCHIKEY>
AJYKHLMOHQODCY-DITALETJSA-N
> <PUBCHEM_XLOGP3_AA>
5.8
> <PUBCHEM_EXACT_MASS>
636.33454182
> <PUBCHEM_MOLECULAR_FORMULA>
C35H48N4O5S
> <PUBCHEM_MOLECULAR_WEIGHT>
636.8
> <PUBCHEM_OPENEYE_CAN_SMILES>
CC(C)CN(C(CCCNC(=O)C(CC1=CC=CC2=CC=CC=C21)NC(=O)C3CCCCC3)CO)S(=O)(=O)C4=CC=C(C=C4)N
> <PUBCHEM_OPENEYE_ISO_SMILES>
CC(C)CN([C@@H](CCCNC(=O)[C@H](CC1=CC=CC2=CC=CC=C21)NC(=O)C3CCCCC3)CO)S(=O)(=O)C4=CC=C(C=C4)N
> <PUBCHEM_CACTVS_TPSA>
150
> <PUBCHEM_MONOISOTOPIC_WEIGHT>
636.33454182
> <PUBCHEM_TOTAL_CHARGE>
0
> <PUBCHEM_HEAVY_ATOM_COUNT>
45
> <PUBCHEM_ATOM_DEF_STEREO_COUNT>
2
> <PUBCHEM_ATOM_UDEF_STEREO_COUNT>
0
> <PUBCHEM_BOND_DEF_STEREO_COUNT>
0
> <PUBCHEM_BOND_UDEF_STEREO_COUNT>
0
> <PUBCHEM_ISOTOPIC_ATOM_COUNT>
0
> <PUBCHEM_COMPONENT_COUNT>
1
> <PUBCHEM_CACTVS_TAUTO_COUNT>
-1
> <PUBCHEM_COORDINATE_TYPE>
1
5
255
> <PUBCHEM_BONDANNOTATIONS>
28  33  8
28  34  8
31  32  8
31  35  8
32  36  8
32  39  8
33  37  8
34  38  8
35  40  8
36  41  8
36  43  8
37  42  8
38  42  8
39  44  8
40  41  8
43  45  8
44  45  8
18  7  5
21  8  6
$$$$
