513984
  -OEChem-10302200282D
 88 91  0     1  0  0  0  0  0999 V2000
    3.7320    3.0950    0.0000 S   0  0  0  0  0  0  0  0  0  0  0  0
    6.3301    1.5950    0.0000 O   0  0  0  0  0  0  0  0  0  0  0  0
    2.7320    3.0950    0.0000 O   0  0  0  0  0  0  0  0  0  0  0  0
    4.7320    3.0950    0.0000 O   0  0  0  0  0  0  0  0  0  0  0  0
    8.0622   -2.4050    0.0000 O   0  0  0  0  0  0  0  0  0  0  0  0
    7.1962   -5.9050    0.0000 O   0  0  0  0  0  0  0  0  0  0  0  0
    3.7320    2.0950    0.0000 N   0  0  3  0  0  0  0  0  0  0  0  0
    6.3301   -2.4050    0.0000 N   0  0  0  0  0  0  0  0  0  0  0  0
    6.3301   -4.4050    0.0000 N   0  0  0  0  0  0  0  0  0  0  0  0
    3.7320    7.0950    0.0000 N   0  0  0  0  0  0  0  0  0  0  0  0
    4.5981   -5.4050    0.0000 N   0  0  0  0  0  0  0  0  0  0  0  0
    4.5981   -7.4050    0.0000 N   0  0  0  0  0  0  0  0  0  0  0  0
    4.5981    1.5950    0.0000 C   0  0  1  0  0  0  0  0  0  0  0  0
    4.5981    0.5950    0.0000 C   0  0  0  0  0  0  0  0  0  0  0  0
    2.8660    1.5950    0.0000 C   0  0  0  0  0  0  0  0  0  0  0  0
    5.4641    0.0950    0.0000 C   0  0  0  0  0  0  0  0  0  0  0  0
    2.8660    0.5950    0.0000 C   0  0  0  0  0  0  0  0  0  0  0  0
    5.4641    2.0950    0.0000 C   0  0  0  0  0  0  0  0  0  0  0  0
    5.4641   -0.9050    0.0000 C   0  0  0  0  0  0  0  0  0  0  0  0
    3.7320    4.0950    0.0000 C   0  0  0  0  0  0  0  0  0  0  0  0
    2.0000    0.0950    0.0000 C   0  0  0  0  0  0  0  0  0  0  0  0
    3.7320    0.0950    0.0000 C   0  0  0  0  0  0  0  0  0  0  0  0
    6.3301   -1.4050    0.0000 C   0  0  0  0  0  0  0  0  0  0  0  0
    4.5981    4.5950    0.0000 C   0  0  0  0  0  0  0  0  0  0  0  0
    2.8660    4.5950    0.0000 C   0  0  0  0  0  0  0  0  0  0  0  0
    7.1962   -3.9050    0.0000 C   0  0  2  0  0  0  0  0  0  0  0  0
    7.1962   -2.9050    0.0000 C   0  0  0  0  0  0  0  0  0  0  0  0
    8.0622   -4.4050    0.0000 C   0  0  0  0  0  0  0  0  0  0  0  0
    4.5981    5.5950    0.0000 C   0  0  0  0  0  0  0  0  0  0  0  0
    2.8660    5.5950    0.0000 C   0  0  0  0  0  0  0  0  0  0  0  0
    3.7320    6.0950    0.0000 C   0  0  0  0  0  0  0  0  0  0  0  0
    8.9282   -3.9050    0.0000 C   0  0  0  0  0  0  0  0  0  0  0  0
    9.7942   -4.4050    0.0000 C   0  0  0  0  0  0  0  0  0  0  0  0
    8.9282   -2.9050    0.0000 C   0  0  0  0  0  0  0  0  0  0  0  0
   10.6603   -3.9050    0.0000 C   0  0  0  0  0  0  0  0  0  0  0  0
   10.6603   -2.9050    0.0000 C   0  0  0  0  0  0  0  0  0  0  0  0
    6.3301   -5.4050    0.0000 C   0  0  0  0  0  0  0  0  0  0  0  0
    9.7942   -2.4050    0.0000 C   0  0  0  0  0  0  0  0  0  0  0  0
   11.5542   -4.4397    0.0000 C   0  0  0  0  0  0  0  0  0  0  0  0
   11.5542   -2.3703    0.0000 C   0  0  0  0  0  0  0  0  0  0  0  0
    5.4641   -5.9050    0.0000 C   0  0  0  0  0  0  0  0  0  0  0  0
   12.4603   -3.9258    0.0000 C   0  0  0  0  0  0  0  0  0  0  0  0
   12.4603   -2.8842    0.0000 C   0  0  0  0  0  0  0  0  0  0  0  0
    5.4641   -6.9050    0.0000 C   0  0  0  0  0  0  0  0  0  0  0  0
    3.7320   -5.9050    0.0000 C   0  0  0  0  0  0  0  0  0  0  0  0
    3.7320   -6.9050    0.0000 C   0  0  0  0  0  0  0  0  0  0  0  0
    4.5981    2.2150    0.0000 H   0  0  0  0  0  0  0  0  0  0  0  0
    3.9875    0.7027    0.0000 H   0  0  0  0  0  0  0  0  0  0  0  0
    4.3860    0.0124    0.0000 H   0  0  0  0  0  0  0  0  0  0  0  0
    2.6540    2.1776    0.0000 H   0  0  0  0  0  0  0  0  0  0  0  0
    2.2554    1.4873    0.0000 H   0  0  0  0  0  0  0  0  0  0  0  0
    6.0747   -0.0127    0.0000 H   0  0  0  0  0  0  0  0  0  0  0  0
    5.6762    0.6776    0.0000 H   0  0  0  0  0  0  0  0  0  0  0  0
    2.8660   -0.0250    0.0000 H   0  0  0  0  0  0  0  0  0  0  0  0
    5.8626    2.5700    0.0000 H   0  0  0  0  0  0  0  0  0  0  0  0
    5.0656    2.5700    0.0000 H   0  0  0  0  0  0  0  0  0  0  0  0
    4.8535   -0.7973    0.0000 H   0  0  0  0  0  0  0  0  0  0  0  0
    5.2520   -1.4876    0.0000 H   0  0  0  0  0  0  0  0  0  0  0  0
    1.6900    0.6319    0.0000 H   0  0  0  0  0  0  0  0  0  0  0  0
    1.4631   -0.2150    0.0000 H   0  0  0  0  0  0  0  0  0  0  0  0
    2.3100   -0.4419    0.0000 H   0  0  0  0  0  0  0  0  0  0  0  0
    3.4220   -0.4419    0.0000 H   0  0  0  0  0  0  0  0  0  0  0  0
    4.2690   -0.2150    0.0000 H   0  0  0  0  0  0  0  0  0  0  0  0
    4.0420    0.6319    0.0000 H   0  0  0  0  0  0  0  0  0  0  0  0
    6.9407   -1.5127    0.0000 H   0  0  0  0  0  0  0  0  0  0  0  0
    6.5422   -0.8224    0.0000 H   0  0  0  0  0  0  0  0  0  0  0  0
    6.8671    1.9050    0.0000 H   0  0  0  0  0  0  0  0  0  0  0  0
    5.7932   -2.7150    0.0000 H   0  0  0  0  0  0  0  0  0  0  0  0
    5.1350    4.2850    0.0000 H   0  0  0  0  0  0  0  0  0  0  0  0
    2.3291    4.2850    0.0000 H   0  0  0  0  0  0  0  0  0  0  0  0
    6.6592   -3.5950    0.0000 H   0  0  0  0  0  0  0  0  0  0  0  0
    7.6636   -4.8800    0.0000 H   0  0  0  0  0  0  0  0  0  0  0  0
    8.4607   -4.8800    0.0000 H   0  0  0  0  0  0  0  0  0  0  0  0
    5.1350    5.9050    0.0000 H   0  0  0  0  0  0  0  0  0  0  0  0
    2.3291    5.9050    0.0000 H   0  0  0  0  0  0  0  0  0  0  0  0
    5.7932   -4.0950    0.0000 H   0  0  0  0  0  0  0  0  0  0  0  0
    9.7942   -5.0250    0.0000 H   0  0  0  0  0  0  0  0  0  0  0  0
    8.3913   -2.5950    0.0000 H   0  0  0  0  0  0  0  0  0  0  0  0
    3.1951    7.4050    0.0000 H   0  0  0  0  0  0  0  0  0  0  0  0
    4.2690    7.4050    0.0000 H   0  0  0  0  0  0  0  0  0  0  0  0
    9.7942   -1.7850    0.0000 H   0  0  0  0  0  0  0  0  0  0  0  0
   11.5470   -5.0596    0.0000 H   0  0  0  0  0  0  0  0  0  0  0  0
   11.5470   -1.7504    0.0000 H   0  0  0  0  0  0  0  0  0  0  0  0
   12.9960   -4.2379    0.0000 H   0  0  0  0  0  0  0  0  0  0  0  0
   12.9960   -2.5721    0.0000 H   0  0  0  0  0  0  0  0  0  0  0  0
    6.0010   -7.2150    0.0000 H   0  0  0  0  0  0  0  0  0  0  0  0
    3.1951   -5.5950    0.0000 H   0  0  0  0  0  0  0  0  0  0  0  0
    3.1951   -7.2150    0.0000 H   0  0  0  0  0  0  0  0  0  0  0  0
  1  3  2  0  0  0  0
  1  4  2  0  0  0  0
  1  7  1  0  0  0  0
  1 20  1  0  0  0  0
  2 18  1  0  0  0  0
  2 67  1  0  0  0  0
  5 27  2  0  0  0  0
  6 37  2  0  0  0  0
 13  7  1  6  0  0  0
  7 15  1  0  0  0  0
  8 23  1  0  0  0  0
  8 27  1  0  0  0  0
  8 68  1  0  0  0  0
 26  9  1  6  0  0  0
  9 37  1  0  0  0  0
  9 76  1  0  0  0  0
 10 31  1  0  0  0  0
 10 79  1  0  0  0  0
 10 80  1  0  0  0  0
 11 41  2  0  0  0  0
 11 45  1  0  0  0  0
 12 44  2  0  0  0  0
 12 46  1  0  0  0  0
 13 14  1  0  0  0  0
 13 18  1  0  0  0  0
 13 47  1  0  0  0  0
 14 16  1  0  0  0  0
 14 48  1  0  0  0  0
 14 49  1  0  0  0  0
 15 17  1  0  0  0  0
 15 50  1  0  0  0  0
 15 51  1  0  0  0  0
 16 19  1  0  0  0  0
 16 52  1  0  0  0  0
 16 53  1  0  0  0  0
 17 21  1  0  0  0  0
 17 22  1  0  0  0  0
 17 54  1  0  0  0  0
 18 55  1  0  0  0  0
 18 56  1  0  0  0  0
 19 23  1  0  0  0  0
 19 57  1  0  0  0  0
 19 58  1  0  0  0  0
 20 24  2  0  0  0  0
 20 25  1  0  0  0  0
 21 59  1  0  0  0  0
 21 60  1  0  0  0  0
 21 61  1  0  0  0  0
 22 62  1  0  0  0  0
 22 63  1  0  0  0  0
 22 64  1  0  0  0  0
 23 65  1  0  0  0  0
 23 66  1  0  0  0  0
 24 29  1  0  0  0  0
 24 69  1  0  0  0  0
 25 30  2  0  0  0  0
 25 70  1  0  0  0  0
 26 27  1  0  0  0  0
 26 28  1  0  0  0  0
 26 71  1  0  0  0  0
 28 32  1  0  0  0  0
 28 72  1  0  0  0  0
 28 73  1  0  0  0  0
 29 31  2  0  0  0  0
 29 74  1  0  0  0  0
 30 31  1  0  0  0  0
 30 75  1  0  0  0  0
 32 33  2  0  0  0  0
 32 34  1  0  0  0  0
 33 35  1  0  0  0  0
 33 77  1  0  0  0  0
 34 38  2  0  0  0  0
 34 78  1  0  0  0  0
 35 36  1  0  0  0  0
 35 39  2  0  0  0  0
 36 38  1  0  0  0  0
 36 40  2  0  0  0  0
 37 41  1  0  0  0  0
 38 81  1  0  0  0  0
 39 42  1  0  0  0  0
 39 82  1  0  0  0  0
 40 43  1  0  0  0  0
 40 83  1  0  0  0  0
 41 44  1  0  0  0  0
 42 43  2  0  0  0  0
 42 84  1  0  0  0  0
 43 85  1  0  0  0  0
 44 86  1  0  0  0  0
 45 46  2  0  0  0  0
 45 87  1  0  0  0  0
 46 88  1  0  0  0  0
M  END
> <PUBCHEM_COMPOUND_CID>
513984
> <PUBCHEM_COMPOUND_CANONICALIZED>
1
> <PUBCHEM_CACTVS_COMPLEXITY>
1050
> <PUBCHEM_CACTVS_HBOND_ACCEPTOR>
9
> <PUBCHEM_CACTVS_HBOND_DONOR>
4
> <PUBCHEM_CACTVS_ROTATABLE_BOND>
16
> <PUBCHEM_CACTVS_SUBSKEYS>
AAADcfB/uABAAAAAAAAAAAAAAAAAAAAAAAA8YMEAAAAAAADB1AAAHgQQSAAADSjh3gY+wdLIEgKoAzV3VHDCgDQ3EiAI2Jm4dMgKcHrA0bGUYIhklgDYyMeYyMCOwAQCAAAQAACACAQAACAAAAAAAAAAAA==
> <PUBCHEM_IUPAC_OPENEYE_NAME>
N-[(1S)-2-[[(5S)-5-[(4-aminophenyl)sulfonyl-isobutyl-amino]-6-hydroxy-hexyl]amino]-1-(2-naphthylmethyl)-2-oxo-ethyl]pyrazine-2-carboxamide
> <PUBCHEM_IUPAC_CAS_NAME>
N-[(2S)-1-[[(5S)-5-[(4-aminophenyl)sulfonyl-(2-methylpropyl)amino]-6-hydroxyhexyl]amino]-3-(2-naphthalenyl)-1-oxopropan-2-yl]-2-pyrazinecarboxamide
> <PUBCHEM_IUPAC_NAME_MARKUP>
<I>N</I>-[(2<I>S</I>)-1-[[(5<I>S</I>)-5-[(4-aminophenyl)sulfonyl-(2-methylpropyl)amino]-6-hydroxyhexyl]amino]-3-naphthalen-2-yl-1-oxopropan-2-yl]pyrazine-2-carboxamide
> <PUBCHEM_IUPAC_NAME>
N-[(2S)-1-[[(5S)-5-[(4-aminophenyl)sulfonyl-(2-methylpropyl)amino]-6-hydroxyhexyl]amino]-3-naphthalen-2-yl-1-oxopropan-2-yl]pyrazine-2-carboxamide
> <PUBCHEM_IUPAC_SYSTEMATIC_NAME>
N-[(2S)-1-[[(5S)-5-[(4-aminophenyl)sulfonyl-(2-methylpropyl)amino]-6-oxidanyl-hexyl]amino]-3-naphthalen-2-yl-1-oxidanylidene-propan-2-yl]pyrazine-2-carboxamide
> <PUBCHEM_IUPAC_TRADITIONAL_NAME>
N-[(1S)-2-[[(5S)-6-hydroxy-5-[isobutyl(sulfanilyl)amino]hexyl]amino]-2-keto-1-(2-naphthylmethyl)ethyl]pyrazinamide
> <PUBCHEM_IUPAC_INCHI>
InChI=1S/C34H42N6O5S/c1-24(2)22-40(46(44,45)30-14-12-28(35)13-15-30)29(23-41)9-5-6-16-38-33(42)31(39-34(43)32-21-36-17-18-37-32)20-25-10-11-26-7-3-4-8-27(26)19-25/h3-4,7-8,10-15,17-19,21,24,29,31,41H,5-6,9,16,20,22-23,35H2,1-2H3,(H,38,42)(H,39,43)/t29-,31-/m0/s1
> <PUBCHEM_IUPAC_INCHIKEY>
XKTKKWUKEJPZFL-SMCANUKXSA-N
> <PUBCHEM_XLOGP3_AA>
3.9
> <PUBCHEM_EXACT_MASS>
646.29373964
> <PUBCHEM_MOLECULAR_FORMULA>
C34H42N6O5S
> <PUBCHEM_MOLECULAR_WEIGHT>
646.8
> <PUBCHEM_OPENEYE_CAN_SMILES>
CC(C)CN(C(CCCCNC(=O)C(CC1=CC2=CC=CC=C2C=C1)NC(=O)C3=NC=CN=C3)CO)S(=O)(=O)C4=CC=C(C=C4)N
> <PUBCHEM_OPENEYE_ISO_SMILES>
CC(C)CN([C@@H](CCCCNC(=O)[C@H](CC1=CC2=CC=CC=C2C=C1)NC(=O)C3=NC=CN=C3)CO)S(=O)(=O)C4=CC=C(C=C4)N
> <PUBCHEM_CACTVS_TPSA>
176
> <PUBCHEM_MONOISOTOPIC_WEIGHT>
646.29373964
> <PUBCHEM_TOTAL_CHARGE>
0
> <PUBCHEM_HEAVY_ATOM_COUNT>
46
> <PUBCHEM_ATOM_DEF_STEREO_COUNT>
2
> <PUBCHEM_ATOM_UDEF_STEREO_COUNT>
0
> <PUBCHEM_BOND_DEF_STEREO_COUNT>
0
> <PUBCHEM_BOND_UDEF_STEREO_COUNT>
0
> <PUBCHEM_ISOTOPIC_ATOM_COUNT>
0
> <PUBCHEM_COMPONENT_COUNT>
1
> <PUBCHEM_CACTVS_TAUTO_COUNT>
-1
> <PUBCHEM_COORDINATE_TYPE>
1
5
255
> <PUBCHEM_BONDANNOTATIONS>
11  41  8
11  45  8
12  44  8
12  46  8
20  24  8
20  25  8
24  29  8
25  30  8
29  31  8
30  31  8
32  33  8
32  34  8
33  35  8
34  38  8
35  36  8
35  39  8
36  38  8
36  40  8
39  42  8
40  43  8
41  44  8
42  43  8
45  46  8
13  7  6
26  9  6
$$$$
