513928
  -OEChem-10302200282D
 89 91  0     1  0  0  0  0  0999 V2000
    3.7320   -2.0950    0.0000 S   0  0  0  0  0  0  0  0  0  0  0  0
    6.3301   -0.5950    0.0000 O   0  0  0  0  0  0  0  0  0  0  0  0
    4.7320   -2.0950    0.0000 O   0  0  0  0  0  0  0  0  0  0  0  0
    2.7320   -2.0950    0.0000 O   0  0  0  0  0  0  0  0  0  0  0  0
    5.4641    3.9050    0.0000 O   0  0  0  0  0  0  0  0  0  0  0  0
    5.4641    4.9050    0.0000 O   0  0  0  0  0  0  0  0  0  0  0  0
    6.3301    6.4050    0.0000 O   0  0  0  0  0  0  0  0  0  0  0  0
    9.7942   -0.5950    0.0000 O   0  0  0  0  0  0  0  0  0  0  0  0
    3.7320   -1.0950    0.0000 N   0  0  3  0  0  0  0  0  0  0  0  0
    6.3301    2.4050    0.0000 N   0  0  0  0  0  0  0  0  0  0  0  0
    7.1962    4.9050    0.0000 N   0  0  0  0  0  0  0  0  0  0  0  0
    3.7320   -6.0950    0.0000 N   0  0  0  0  0  0  0  0  0  0  0  0
    4.5981   -0.5950    0.0000 C   0  0  1  0  0  0  0  0  0  0  0  0
    4.5981    0.4050    0.0000 C   0  0  0  0  0  0  0  0  0  0  0  0
    2.8660   -0.5950    0.0000 C   0  0  0  0  0  0  0  0  0  0  0  0
    2.8660    0.4050    0.0000 C   0  0  0  0  0  0  0  0  0  0  0  0
    5.4641    0.9050    0.0000 C   0  0  0  0  0  0  0  0  0  0  0  0
    5.4641   -1.0950    0.0000 C   0  0  0  0  0  0  0  0  0  0  0  0
    5.4641    1.9050    0.0000 C   0  0  0  0  0  0  0  0  0  0  0  0
    3.7320   -3.0950    0.0000 C   0  0  0  0  0  0  0  0  0  0  0  0
    2.0000    0.9050    0.0000 C   0  0  0  0  0  0  0  0  0  0  0  0
    3.7320    0.9050    0.0000 C   0  0  0  0  0  0  0  0  0  0  0  0
    2.8660   -3.5950    0.0000 C   0  0  0  0  0  0  0  0  0  0  0  0
    4.5981   -3.5950    0.0000 C   0  0  0  0  0  0  0  0  0  0  0  0
    7.1962    3.9050    0.0000 C   0  0  2  0  0  0  0  0  0  0  0  0
    6.3301    3.4050    0.0000 C   0  0  0  0  0  0  0  0  0  0  0  0
    8.0622    3.4050    0.0000 C   0  0  0  0  0  0  0  0  0  0  0  0
    2.8660   -4.5950    0.0000 C   0  0  0  0  0  0  0  0  0  0  0  0
    4.5981   -4.5950    0.0000 C   0  0  0  0  0  0  0  0  0  0  0  0
    3.7320   -5.0950    0.0000 C   0  0  0  0  0  0  0  0  0  0  0  0
    8.9282    3.9050    0.0000 C   0  0  0  0  0  0  0  0  0  0  0  0
    9.7942    3.4050    0.0000 C   0  0  0  0  0  0  0  0  0  0  0  0
    8.9282    4.9050    0.0000 C   0  0  0  0  0  0  0  0  0  0  0  0
    9.7942    2.4050    0.0000 C   0  0  0  0  0  0  0  0  0  0  0  0
   10.6603    3.9050    0.0000 C   0  0  0  0  0  0  0  0  0  0  0  0
    6.3301    5.4050    0.0000 C   0  0  0  0  0  0  0  0  0  0  0  0
    9.7942    5.4050    0.0000 C   0  0  0  0  0  0  0  0  0  0  0  0
   10.6603    4.9050    0.0000 C   0  0  0  0  0  0  0  0  0  0  0  0
    8.9282    1.9050    0.0000 C   0  0  0  0  0  0  0  0  0  0  0  0
   10.6603    1.9050    0.0000 C   0  0  0  0  0  0  0  0  0  0  0  0
    8.9282    0.9050    0.0000 C   0  0  0  0  0  0  0  0  0  0  0  0
   10.6603    0.9050    0.0000 C   0  0  0  0  0  0  0  0  0  0  0  0
    9.7942    0.4050    0.0000 C   0  0  0  0  0  0  0  0  0  0  0  0
    4.5981    5.4050    0.0000 C   0  0  0  0  0  0  0  0  0  0  0  0
   10.6603   -1.0950    0.0000 C   0  0  0  0  0  0  0  0  0  0  0  0
    4.5981   -1.2150    0.0000 H   0  0  0  0  0  0  0  0  0  0  0  0
    4.3860    0.9876    0.0000 H   0  0  0  0  0  0  0  0  0  0  0  0
    3.9875    0.2973    0.0000 H   0  0  0  0  0  0  0  0  0  0  0  0
    2.2554   -0.4873    0.0000 H   0  0  0  0  0  0  0  0  0  0  0  0
    2.6540   -1.1776    0.0000 H   0  0  0  0  0  0  0  0  0  0  0  0
    2.8660    1.0250    0.0000 H   0  0  0  0  0  0  0  0  0  0  0  0
    5.6762    0.3224    0.0000 H   0  0  0  0  0  0  0  0  0  0  0  0
    6.0747    1.0127    0.0000 H   0  0  0  0  0  0  0  0  0  0  0  0
    5.0656   -1.5700    0.0000 H   0  0  0  0  0  0  0  0  0  0  0  0
    5.8626   -1.5700    0.0000 H   0  0  0  0  0  0  0  0  0  0  0  0
    5.2520    2.4876    0.0000 H   0  0  0  0  0  0  0  0  0  0  0  0
    4.8535    1.7973    0.0000 H   0  0  0  0  0  0  0  0  0  0  0  0
    2.3100    1.4419    0.0000 H   0  0  0  0  0  0  0  0  0  0  0  0
    1.4631    1.2150    0.0000 H   0  0  0  0  0  0  0  0  0  0  0  0
    1.6900    0.3681    0.0000 H   0  0  0  0  0  0  0  0  0  0  0  0
    4.0420    0.3681    0.0000 H   0  0  0  0  0  0  0  0  0  0  0  0
    4.2690    1.2150    0.0000 H   0  0  0  0  0  0  0  0  0  0  0  0
    3.4220    1.4419    0.0000 H   0  0  0  0  0  0  0  0  0  0  0  0
    6.8671    2.0950    0.0000 H   0  0  0  0  0  0  0  0  0  0  0  0
    6.8671   -0.9050    0.0000 H   0  0  0  0  0  0  0  0  0  0  0  0
    2.3291   -3.2850    0.0000 H   0  0  0  0  0  0  0  0  0  0  0  0
    5.1350   -3.2850    0.0000 H   0  0  0  0  0  0  0  0  0  0  0  0
    6.6592    4.2150    0.0000 H   0  0  0  0  0  0  0  0  0  0  0  0
    7.6636    2.9300    0.0000 H   0  0  0  0  0  0  0  0  0  0  0  0
    8.4607    2.9300    0.0000 H   0  0  0  0  0  0  0  0  0  0  0  0
    2.3291   -4.9050    0.0000 H   0  0  0  0  0  0  0  0  0  0  0  0
    5.1350   -4.9050    0.0000 H   0  0  0  0  0  0  0  0  0  0  0  0
    7.7331    5.2150    0.0000 H   0  0  0  0  0  0  0  0  0  0  0  0
    8.3913    5.2150    0.0000 H   0  0  0  0  0  0  0  0  0  0  0  0
   11.1972    3.5950    0.0000 H   0  0  0  0  0  0  0  0  0  0  0  0
    3.1951   -6.4050    0.0000 H   0  0  0  0  0  0  0  0  0  0  0  0
    4.2690   -6.4050    0.0000 H   0  0  0  0  0  0  0  0  0  0  0  0
    9.7942    6.0250    0.0000 H   0  0  0  0  0  0  0  0  0  0  0  0
   11.1972    5.2150    0.0000 H   0  0  0  0  0  0  0  0  0  0  0  0
    8.3913    2.2150    0.0000 H   0  0  0  0  0  0  0  0  0  0  0  0
   11.1972    2.2150    0.0000 H   0  0  0  0  0  0  0  0  0  0  0  0
    8.3913    0.5950    0.0000 H   0  0  0  0  0  0  0  0  0  0  0  0
   11.1972    0.5950    0.0000 H   0  0  0  0  0  0  0  0  0  0  0  0
    4.9081    5.9419    0.0000 H   0  0  0  0  0  0  0  0  0  0  0  0
    4.0611    5.7150    0.0000 H   0  0  0  0  0  0  0  0  0  0  0  0
    4.2881    4.8681    0.0000 H   0  0  0  0  0  0  0  0  0  0  0  0
   10.3503   -1.6319    0.0000 H   0  0  0  0  0  0  0  0  0  0  0  0
   11.1972   -1.4050    0.0000 H   0  0  0  0  0  0  0  0  0  0  0  0
   10.9703   -0.5581    0.0000 H   0  0  0  0  0  0  0  0  0  0  0  0
  1  3  2  0  0  0  0
  1  4  2  0  0  0  0
  1  9  1  0  0  0  0
  1 20  1  0  0  0  0
  2 18  1  0  0  0  0
  2 65  1  0  0  0  0
  5 26  2  0  0  0  0
  6 36  1  0  0  0  0
  6 44  1  0  0  0  0
  7 36  2  0  0  0  0
  8 43  1  0  0  0  0
  8 45  1  0  0  0  0
 13  9  1  1  0  0  0
  9 15  1  0  0  0  0
 10 19  1  0  0  0  0
 10 26  1  0  0  0  0
 10 64  1  0  0  0  0
 25 11  1  1  0  0  0
 11 36  1  0  0  0  0
 11 73  1  0  0  0  0
 12 30  1  0  0  0  0
 12 76  1  0  0  0  0
 12 77  1  0  0  0  0
 13 14  1  0  0  0  0
 13 18  1  0  0  0  0
 13 46  1  0  0  0  0
 14 17  1  0  0  0  0
 14 47  1  0  0  0  0
 14 48  1  0  0  0  0
 15 16  1  0  0  0  0
 15 49  1  0  0  0  0
 15 50  1  0  0  0  0
 16 21  1  0  0  0  0
 16 22  1  0  0  0  0
 16 51  1  0  0  0  0
 17 19  1  0  0  0  0
 17 52  1  0  0  0  0
 17 53  1  0  0  0  0
 18 54  1  0  0  0  0
 18 55  1  0  0  0  0
 19 56  1  0  0  0  0
 19 57  1  0  0  0  0
 20 23  2  0  0  0  0
 20 24  1  0  0  0  0
 21 58  1  0  0  0  0
 21 59  1  0  0  0  0
 21 60  1  0  0  0  0
 22 61  1  0  0  0  0
 22 62  1  0  0  0  0
 22 63  1  0  0  0  0
 23 28  1  0  0  0  0
 23 66  1  0  0  0  0
 24 29  2  0  0  0  0
 24 67  1  0  0  0  0
 25 26  1  0  0  0  0
 25 27  1  0  0  0  0
 25 68  1  0  0  0  0
 27 31  1  0  0  0  0
 27 69  1  0  0  0  0
 27 70  1  0  0  0  0
 28 30  2  0  0  0  0
 28 71  1  0  0  0  0
 29 30  1  0  0  0  0
 29 72  1  0  0  0  0
 31 32  1  0  0  0  0
 31 33  2  0  0  0  0
 32 34  1  0  0  0  0
 32 35  2  0  0  0  0
 33 37  1  0  0  0  0
 33 74  1  0  0  0  0
 34 39  2  0  0  0  0
 34 40  1  0  0  0  0
 35 38  1  0  0  0  0
 35 75  1  0  0  0  0
 37 38  2  0  0  0  0
 37 78  1  0  0  0  0
 38 79  1  0  0  0  0
 39 41  1  0  0  0  0
 39 80  1  0  0  0  0
 40 42  2  0  0  0  0
 40 81  1  0  0  0  0
 41 43  2  0  0  0  0
 41 82  1  0  0  0  0
 42 43  1  0  0  0  0
 42 83  1  0  0  0  0
 44 84  1  0  0  0  0
 44 85  1  0  0  0  0
 44 86  1  0  0  0  0
 45 87  1  0  0  0  0
 45 88  1  0  0  0  0
 45 89  1  0  0  0  0
M  END
> <PUBCHEM_COMPOUND_CID>
513928
> <PUBCHEM_COMPOUND_CANONICALIZED>
1
> <PUBCHEM_CACTVS_COMPLEXITY>
992
> <PUBCHEM_CACTVS_HBOND_ACCEPTOR>
9
> <PUBCHEM_CACTVS_HBOND_DONOR>
4
> <PUBCHEM_CACTVS_ROTATABLE_BOND>
17
> <PUBCHEM_CACTVS_SUBSKEYS>
AAADcfB/uABAAAAAAAAAAAAAAAAAAAAAAAAwYMAAAAAAAAABUAAAHgQQSAAADSzh2AYyz4LABgKIAiVSWHDCCBAgIgAIiJmObIkOdjKEsbuUcCBk1hGY6AeY2PKOoAQAAAAQAABACAAAACAAAAAAAAAAAA==
> <PUBCHEM_IUPAC_OPENEYE_NAME>
methyl N-[(1S)-2-[[(4S)-4-[(4-aminophenyl)sulfonyl-isobutyl-amino]-5-hydroxy-pentyl]amino]-1-[[2-(4-methoxyphenyl)phenyl]methyl]-2-oxo-ethyl]carbamate
> <PUBCHEM_IUPAC_CAS_NAME>
N-[(2S)-1-[[(4S)-4-[(4-aminophenyl)sulfonyl-(2-methylpropyl)amino]-5-hydroxypentyl]amino]-3-[2-(4-methoxyphenyl)phenyl]-1-oxopropan-2-yl]carbamic acid methyl ester
> <PUBCHEM_IUPAC_NAME_MARKUP>
methyl <I>N</I>-[(2<I>S</I>)-1-[[(4<I>S</I>)-4-[(4-aminophenyl)sulfonyl-(2-methylpropyl)amino]-5-hydroxypentyl]amino]-3-[2-(4-methoxyphenyl)phenyl]-1-oxopropan-2-yl]carbamate
> <PUBCHEM_IUPAC_NAME>
methyl N-[(2S)-1-[[(4S)-4-[(4-aminophenyl)sulfonyl-(2-methylpropyl)amino]-5-hydroxypentyl]amino]-3-[2-(4-methoxyphenyl)phenyl]-1-oxopropan-2-yl]carbamate
> <PUBCHEM_IUPAC_SYSTEMATIC_NAME>
methyl N-[(2S)-1-[[(4S)-4-[(4-aminophenyl)sulfonyl-(2-methylpropyl)amino]-5-oxidanyl-pentyl]amino]-3-[2-(4-methoxyphenyl)phenyl]-1-oxidanylidene-propan-2-yl]carbamate
> <PUBCHEM_IUPAC_TRADITIONAL_NAME>
N-[(1S)-2-[[(4S)-5-hydroxy-4-[isobutyl(sulfanilyl)amino]pentyl]amino]-2-keto-1-[2-(4-methoxyphenyl)benzyl]ethyl]carbamic acid methyl ester
> <PUBCHEM_IUPAC_INCHI>
InChI=1S/C33H44N4O7S/c1-23(2)21-37(45(41,42)29-17-13-26(34)14-18-29)27(22-38)9-7-19-35-32(39)31(36-33(40)44-4)20-25-8-5-6-10-30(25)24-11-15-28(43-3)16-12-24/h5-6,8,10-18,23,27,31,38H,7,9,19-22,34H2,1-4H3,(H,35,39)(H,36,40)/t27-,31-/m0/s1
> <PUBCHEM_IUPAC_INCHIKEY>
LQNJIWFOORVASJ-DHIFEGFHSA-N
> <PUBCHEM_XLOGP3_AA>
4.5
> <PUBCHEM_EXACT_MASS>
640.29307093
> <PUBCHEM_MOLECULAR_FORMULA>
C33H44N4O7S
> <PUBCHEM_MOLECULAR_WEIGHT>
640.8
> <PUBCHEM_OPENEYE_CAN_SMILES>
CC(C)CN(C(CCCNC(=O)C(CC1=CC=CC=C1C2=CC=C(C=C2)OC)NC(=O)OC)CO)S(=O)(=O)C3=CC=C(C=C3)N
> <PUBCHEM_OPENEYE_ISO_SMILES>
CC(C)CN([C@@H](CCCNC(=O)[C@H](CC1=CC=CC=C1C2=CC=C(C=C2)OC)NC(=O)OC)CO)S(=O)(=O)C3=CC=C(C=C3)N
> <PUBCHEM_CACTVS_TPSA>
169
> <PUBCHEM_MONOISOTOPIC_WEIGHT>
640.29307093
> <PUBCHEM_TOTAL_CHARGE>
0
> <PUBCHEM_HEAVY_ATOM_COUNT>
45
> <PUBCHEM_ATOM_DEF_STEREO_COUNT>
2
> <PUBCHEM_ATOM_UDEF_STEREO_COUNT>
0
> <PUBCHEM_BOND_DEF_STEREO_COUNT>
0
> <PUBCHEM_BOND_UDEF_STEREO_COUNT>
0
> <PUBCHEM_ISOTOPIC_ATOM_COUNT>
0
> <PUBCHEM_COMPONENT_COUNT>
1
> <PUBCHEM_CACTVS_TAUTO_COUNT>
-1
> <PUBCHEM_COORDINATE_TYPE>
1
5
255
> <PUBCHEM_BONDANNOTATIONS>
25  11  5
20  23  8
20  24  8
23  28  8
24  29  8
28  30  8
29  30  8
31  32  8
31  33  8
32  35  8
33  37  8
34  39  8
34  40  8
35  38  8
37  38  8
39  41  8
40  42  8
41  43  8
42  43  8
13  9  5
$$$$
