513991
  -OEChem-10302200282D
 93 95  0     1  0  0  0  0  0999 V2000
    6.0010   -0.6900    0.0000 S   0  0  0  0  0  0  0  0  0  0  0  0
    8.5991   -2.1900    0.0000 O   0  0  0  0  0  0  0  0  0  0  0  0
    5.5010    0.1760    0.0000 O   0  0  0  0  0  0  0  0  0  0  0  0
    6.5010   -1.5560    0.0000 O   0  0  0  0  0  0  0  0  0  0  0  0
   12.9292   -1.6900    0.0000 O   0  0  0  0  0  0  0  0  0  0  0  0
    6.8671   -0.1900    0.0000 N   0  0  3  0  0  0  0  0  0  0  0  0
   13.7953    0.8100    0.0000 N   0  0  0  0  0  0  0  0  0  0  0  0
   12.0632   -0.1900    0.0000 N   0  0  0  0  0  0  0  0  0  0  0  0
    2.5369   -2.6900    0.0000 N   0  0  0  0  0  0  0  0  0  0  0  0
    7.7331   -0.6900    0.0000 C   0  0  1  0  0  0  0  0  0  0  0  0
    8.5991   -0.1900    0.0000 C   0  0  0  0  0  0  0  0  0  0  0  0
    6.8671    0.8100    0.0000 C   0  0  0  0  0  0  0  0  0  0  0  0
    9.4651   -0.6900    0.0000 C   0  0  0  0  0  0  0  0  0  0  0  0
    7.7331    1.3100    0.0000 C   0  0  0  0  0  0  0  0  0  0  0  0
    7.7331   -1.6900    0.0000 C   0  0  0  0  0  0  0  0  0  0  0  0
   10.3312   -0.1900    0.0000 C   0  0  0  0  0  0  0  0  0  0  0  0
   12.9292    2.3100    0.0000 C   0  0  0  0  0  0  0  0  0  0  0  0
   12.9292    1.3100    0.0000 C   0  0  0  0  0  0  0  0  0  0  0  0
   13.7953   -0.1900    0.0000 C   0  0  1  0  0  0  0  0  0  0  0  0
   11.1972   -0.6900    0.0000 C   0  0  0  0  0  0  0  0  0  0  0  0
    5.1350   -1.1900    0.0000 C   0  0  0  0  0  0  0  0  0  0  0  0
    7.7331    2.3100    0.0000 C   0  0  0  0  0  0  0  0  0  0  0  0
    8.5991    0.8100    0.0000 C   0  0  0  0  0  0  0  0  0  0  0  0
   14.6613   -0.6900    0.0000 C   0  0  0  0  0  0  0  0  0  0  0  0
   12.9292   -0.6900    0.0000 C   0  0  0  0  0  0  0  0  0  0  0  0
   12.9292    3.3100    0.0000 C   0  0  0  0  0  0  0  0  0  0  0  0
   11.9292    2.3100    0.0000 C   0  0  0  0  0  0  0  0  0  0  0  0
   13.9292    2.3100    0.0000 C   0  0  0  0  0  0  0  0  0  0  0  0
   15.5273   -0.1900    0.0000 C   0  0  0  0  0  0  0  0  0  0  0  0
    5.1350   -2.1900    0.0000 C   0  0  0  0  0  0  0  0  0  0  0  0
    4.2690   -0.6900    0.0000 C   0  0  0  0  0  0  0  0  0  0  0  0
   16.3933   -0.6900    0.0000 C   0  0  0  0  0  0  0  0  0  0  0  0
    4.2690   -2.6900    0.0000 C   0  0  0  0  0  0  0  0  0  0  0  0
    3.4030   -1.1900    0.0000 C   0  0  0  0  0  0  0  0  0  0  0  0
   15.5273    0.8100    0.0000 C   0  0  0  0  0  0  0  0  0  0  0  0
    3.4030   -2.1900    0.0000 C   0  0  0  0  0  0  0  0  0  0  0  0
   17.2594   -0.1900    0.0000 C   0  0  0  0  0  0  0  0  0  0  0  0
   17.2594    0.8100    0.0000 C   0  0  0  0  0  0  0  0  0  0  0  0
   16.3933    1.3100    0.0000 C   0  0  0  0  0  0  0  0  0  0  0  0
   18.1533   -0.7247    0.0000 C   0  0  0  0  0  0  0  0  0  0  0  0
   18.1533    1.3447    0.0000 C   0  0  0  0  0  0  0  0  0  0  0  0
   19.0594   -0.2108    0.0000 C   0  0  0  0  0  0  0  0  0  0  0  0
   19.0594    0.8308    0.0000 C   0  0  0  0  0  0  0  0  0  0  0  0
    7.7331   -0.0700    0.0000 H   0  0  0  0  0  0  0  0  0  0  0  0
    8.9976    0.2849    0.0000 H   0  0  0  0  0  0  0  0  0  0  0  0
    8.2006    0.2849    0.0000 H   0  0  0  0  0  0  0  0  0  0  0  0
    6.6550    1.3926    0.0000 H   0  0  0  0  0  0  0  0  0  0  0  0
    6.2565    0.7023    0.0000 H   0  0  0  0  0  0  0  0  0  0  0  0
    9.0666   -1.1650    0.0000 H   0  0  0  0  0  0  0  0  0  0  0  0
    9.8637   -1.1650    0.0000 H   0  0  0  0  0  0  0  0  0  0  0  0
    7.7331    0.6900    0.0000 H   0  0  0  0  0  0  0  0  0  0  0  0
    7.1225   -1.5823    0.0000 H   0  0  0  0  0  0  0  0  0  0  0  0
    7.5210   -2.2726    0.0000 H   0  0  0  0  0  0  0  0  0  0  0  0
   10.7297    0.2849    0.0000 H   0  0  0  0  0  0  0  0  0  0  0  0
    9.9326    0.2849    0.0000 H   0  0  0  0  0  0  0  0  0  0  0  0
   12.3187    1.4177    0.0000 H   0  0  0  0  0  0  0  0  0  0  0  0
   12.7172    0.7274    0.0000 H   0  0  0  0  0  0  0  0  0  0  0  0
   14.3322    0.1200    0.0000 H   0  0  0  0  0  0  0  0  0  0  0  0
   10.7987   -1.1650    0.0000 H   0  0  0  0  0  0  0  0  0  0  0  0
   11.5957   -1.1650    0.0000 H   0  0  0  0  0  0  0  0  0  0  0  0
   14.3322    1.1200    0.0000 H   0  0  0  0  0  0  0  0  0  0  0  0
    8.3531    2.3100    0.0000 H   0  0  0  0  0  0  0  0  0  0  0  0
    7.7331    2.9300    0.0000 H   0  0  0  0  0  0  0  0  0  0  0  0
    7.1131    2.3100    0.0000 H   0  0  0  0  0  0  0  0  0  0  0  0
    8.2891    0.2731    0.0000 H   0  0  0  0  0  0  0  0  0  0  0  0
    9.1360    0.5000    0.0000 H   0  0  0  0  0  0  0  0  0  0  0  0
    8.9091    1.3469    0.0000 H   0  0  0  0  0  0  0  0  0  0  0  0
   14.2628   -1.1650    0.0000 H   0  0  0  0  0  0  0  0  0  0  0  0
   15.0598   -1.1650    0.0000 H   0  0  0  0  0  0  0  0  0  0  0  0
   13.5492    3.3100    0.0000 H   0  0  0  0  0  0  0  0  0  0  0  0
   12.9292    3.9300    0.0000 H   0  0  0  0  0  0  0  0  0  0  0  0
   12.3092    3.3100    0.0000 H   0  0  0  0  0  0  0  0  0  0  0  0
   11.9292    2.9300    0.0000 H   0  0  0  0  0  0  0  0  0  0  0  0
   11.3092    2.3100    0.0000 H   0  0  0  0  0  0  0  0  0  0  0  0
   11.9292    1.6900    0.0000 H   0  0  0  0  0  0  0  0  0  0  0  0
   13.9292    1.6900    0.0000 H   0  0  0  0  0  0  0  0  0  0  0  0
   14.5492    2.3100    0.0000 H   0  0  0  0  0  0  0  0  0  0  0  0
   13.9292    2.9300    0.0000 H   0  0  0  0  0  0  0  0  0  0  0  0
   12.0632    0.4300    0.0000 H   0  0  0  0  0  0  0  0  0  0  0  0
    8.5991   -2.8100    0.0000 H   0  0  0  0  0  0  0  0  0  0  0  0
    5.6720   -2.5000    0.0000 H   0  0  0  0  0  0  0  0  0  0  0  0
    4.2690   -0.0700    0.0000 H   0  0  0  0  0  0  0  0  0  0  0  0
   16.3933   -1.3100    0.0000 H   0  0  0  0  0  0  0  0  0  0  0  0
   14.9904    1.1200    0.0000 H   0  0  0  0  0  0  0  0  0  0  0  0
    4.2690   -3.3100    0.0000 H   0  0  0  0  0  0  0  0  0  0  0  0
    2.8660   -0.8800    0.0000 H   0  0  0  0  0  0  0  0  0  0  0  0
   16.3933    1.9300    0.0000 H   0  0  0  0  0  0  0  0  0  0  0  0
   18.1461   -1.3446    0.0000 H   0  0  0  0  0  0  0  0  0  0  0  0
   18.1461    1.9646    0.0000 H   0  0  0  0  0  0  0  0  0  0  0  0
    2.0000   -2.3800    0.0000 H   0  0  0  0  0  0  0  0  0  0  0  0
    2.5369   -3.3100    0.0000 H   0  0  0  0  0  0  0  0  0  0  0  0
   19.5951   -0.5229    0.0000 H   0  0  0  0  0  0  0  0  0  0  0  0
   19.5951    1.1429    0.0000 H   0  0  0  0  0  0  0  0  0  0  0  0
  1  3  2  0  0  0  0
  1  4  2  0  0  0  0
  1  6  1  0  0  0  0
  1 21  1  0  0  0  0
  2 15  1  0  0  0  0
  2 80  1  0  0  0  0
  5 25  2  0  0  0  0
 10  6  1  1  0  0  0
  6 12  1  0  0  0  0
  7 18  1  0  0  0  0
 19  7  1  1  0  0  0
  7 61  1  0  0  0  0
  8 20  1  0  0  0  0
  8 25  1  0  0  0  0
  8 79  1  0  0  0  0
  9 36  1  0  0  0  0
  9 90  1  0  0  0  0
  9 91  1  0  0  0  0
 10 11  1  0  0  0  0
 10 15  1  0  0  0  0
 10 44  1  0  0  0  0
 11 13  1  0  0  0  0
 11 45  1  0  0  0  0
 11 46  1  0  0  0  0
 12 14  1  0  0  0  0
 12 47  1  0  0  0  0
 12 48  1  0  0  0  0
 13 16  1  0  0  0  0
 13 49  1  0  0  0  0
 13 50  1  0  0  0  0
 14 22  1  0  0  0  0
 14 23  1  0  0  0  0
 14 51  1  0  0  0  0
 15 52  1  0  0  0  0
 15 53  1  0  0  0  0
 16 20  1  0  0  0  0
 16 54  1  0  0  0  0
 16 55  1  0  0  0  0
 17 18  1  0  0  0  0
 17 26  1  0  0  0  0
 17 27  1  0  0  0  0
 17 28  1  0  0  0  0
 18 56  1  0  0  0  0
 18 57  1  0  0  0  0
 19 24  1  0  0  0  0
 19 25  1  0  0  0  0
 19 58  1  0  0  0  0
 20 59  1  0  0  0  0
 20 60  1  0  0  0  0
 21 30  2  0  0  0  0
 21 31  1  0  0  0  0
 22 62  1  0  0  0  0
 22 63  1  0  0  0  0
 22 64  1  0  0  0  0
 23 65  1  0  0  0  0
 23 66  1  0  0  0  0
 23 67  1  0  0  0  0
 24 29  1  0  0  0  0
 24 68  1  0  0  0  0
 24 69  1  0  0  0  0
 26 70  1  0  0  0  0
 26 71  1  0  0  0  0
 26 72  1  0  0  0  0
 27 73  1  0  0  0  0
 27 74  1  0  0  0  0
 27 75  1  0  0  0  0
 28 76  1  0  0  0  0
 28 77  1  0  0  0  0
 28 78  1  0  0  0  0
 29 32  2  0  0  0  0
 29 35  1  0  0  0  0
 30 33  1  0  0  0  0
 30 81  1  0  0  0  0
 31 34  2  0  0  0  0
 31 82  1  0  0  0  0
 32 37  1  0  0  0  0
 32 83  1  0  0  0  0
 33 36  2  0  0  0  0
 33 85  1  0  0  0  0
 34 36  1  0  0  0  0
 34 86  1  0  0  0  0
 35 39  2  0  0  0  0
 35 84  1  0  0  0  0
 37 38  1  0  0  0  0
 37 40  2  0  0  0  0
 38 39  1  0  0  0  0
 38 41  2  0  0  0  0
 39 87  1  0  0  0  0
 40 42  1  0  0  0  0
 40 88  1  0  0  0  0
 41 43  1  0  0  0  0
 41 89  1  0  0  0  0
 42 43  2  0  0  0  0
 42 92  1  0  0  0  0
 43 93  1  0  0  0  0
M  END
> <PUBCHEM_COMPOUND_CID>
513991
> <PUBCHEM_COMPOUND_CANONICALIZED>
1
> <PUBCHEM_CACTVS_COMPLEXITY>
924
> <PUBCHEM_CACTVS_HBOND_ACCEPTOR>
7
> <PUBCHEM_CACTVS_HBOND_DONOR>
4
> <PUBCHEM_CACTVS_ROTATABLE_BOND>
17
> <PUBCHEM_CACTVS_SUBSKEYS>
AAADcfB/uABAAAAAAAAAAAAAAAAAAAAAAAAwYMAAAAAAAADBVAAAHgQQSAAADyjh2AYywcLAAgKIAiVSUHDCABAgAgAIiJmIZIgKcDKAkbGUYABklgCYyAeYyMCOwAQCAAAQAACACAQAACAAAAAAAAAAAA==
> <PUBCHEM_IUPAC_OPENEYE_NAME>
(2S)-N-[(5S)-5-[(4-aminophenyl)sulfonyl-isobutyl-amino]-6-hydroxy-hexyl]-2-(2,2-dimethylpropylamino)-3-(2-naphthyl)propanamide
> <PUBCHEM_IUPAC_CAS_NAME>
(2S)-N-[(5S)-5-[(4-aminophenyl)sulfonyl-(2-methylpropyl)amino]-6-hydroxyhexyl]-2-(2,2-dimethylpropylamino)-3-(2-naphthalenyl)propanamide
> <PUBCHEM_IUPAC_NAME_MARKUP>
(2<I>S</I>)-<I>N</I>-[(5<I>S</I>)-5-[(4-aminophenyl)sulfonyl-(2-methylpropyl)amino]-6-hydroxyhexyl]-2-(2,2-dimethylpropylamino)-3-naphthalen-2-ylpropanamide
> <PUBCHEM_IUPAC_NAME>
(2S)-N-[(5S)-5-[(4-aminophenyl)sulfonyl-(2-methylpropyl)amino]-6-hydroxyhexyl]-2-(2,2-dimethylpropylamino)-3-naphthalen-2-ylpropanamide
> <PUBCHEM_IUPAC_SYSTEMATIC_NAME>
(2S)-N-[(5S)-5-[(4-aminophenyl)sulfonyl-(2-methylpropyl)amino]-6-oxidanyl-hexyl]-2-(2,2-dimethylpropylamino)-3-naphthalen-2-yl-propanamide
> <PUBCHEM_IUPAC_TRADITIONAL_NAME>
(2S)-N-[(5S)-6-hydroxy-5-[isobutyl(sulfanilyl)amino]hexyl]-3-(2-naphthyl)-2-(neopentylamino)propionamide
> <PUBCHEM_IUPAC_INCHI>
InChI=1S/C34H50N4O4S/c1-25(2)22-38(43(41,42)31-17-15-29(35)16-18-31)30(23-39)12-8-9-19-36-33(40)32(37-24-34(3,4)5)21-26-13-14-27-10-6-7-11-28(27)20-26/h6-7,10-11,13-18,20,25,30,32,37,39H,8-9,12,19,21-24,35H2,1-5H3,(H,36,40)/t30-,32-/m0/s1
> <PUBCHEM_IUPAC_INCHIKEY>
QFDCPNXPYNMRKS-CDZUIXILSA-N
> <PUBCHEM_XLOGP3_AA>
6.1
> <PUBCHEM_EXACT_MASS>
610.35527726
> <PUBCHEM_MOLECULAR_FORMULA>
C34H50N4O4S
> <PUBCHEM_MOLECULAR_WEIGHT>
610.9
> <PUBCHEM_OPENEYE_CAN_SMILES>
CC(C)CN(C(CCCCNC(=O)C(CC1=CC2=CC=CC=C2C=C1)NCC(C)(C)C)CO)S(=O)(=O)C3=CC=C(C=C3)N
> <PUBCHEM_OPENEYE_ISO_SMILES>
CC(C)CN([C@@H](CCCCNC(=O)[C@H](CC1=CC2=CC=CC=C2C=C1)NCC(C)(C)C)CO)S(=O)(=O)C3=CC=C(C=C3)N
> <PUBCHEM_CACTVS_TPSA>
133
> <PUBCHEM_MONOISOTOPIC_WEIGHT>
610.35527726
> <PUBCHEM_TOTAL_CHARGE>
0
> <PUBCHEM_HEAVY_ATOM_COUNT>
43
> <PUBCHEM_ATOM_DEF_STEREO_COUNT>
2
> <PUBCHEM_ATOM_UDEF_STEREO_COUNT>
0
> <PUBCHEM_BOND_DEF_STEREO_COUNT>
0
> <PUBCHEM_BOND_UDEF_STEREO_COUNT>
0
> <PUBCHEM_ISOTOPIC_ATOM_COUNT>
0
> <PUBCHEM_COMPONENT_COUNT>
1
> <PUBCHEM_CACTVS_TAUTO_COUNT>
-1
> <PUBCHEM_COORDINATE_TYPE>
1
5
255
> <PUBCHEM_BONDANNOTATIONS>
21  30  8
21  31  8
29  32  8
29  35  8
30  33  8
31  34  8
32  37  8
33  36  8
34  36  8
35  39  8
37  38  8
37  40  8
38  39  8
38  41  8
40  42  8
41  43  8
42  43  8
10  6  5
19  7  5
$$$$
