513968
  -OEChem-10302200282D
 92 94  0     1  0  0  0  0  0999 V2000
    3.7320    2.7780    0.0000 S   0  0  0  0  0  0  0  0  0  0  0  0
    6.3301    1.2780    0.0000 O   0  0  0  0  0  0  0  0  0  0  0  0
    2.7320    2.7780    0.0000 O   0  0  0  0  0  0  0  0  0  0  0  0
    4.7320    2.7780    0.0000 O   0  0  0  0  0  0  0  0  0  0  0  0
    8.0622   -2.7220    0.0000 O   0  0  0  0  0  0  0  0  0  0  0  0
    7.1962   -6.2220    0.0000 O   0  0  0  0  0  0  0  0  0  0  0  0
    3.7320    1.7780    0.0000 N   0  0  3  0  0  0  0  0  0  0  0  0
    6.3301   -2.7220    0.0000 N   0  0  0  0  0  0  0  0  0  0  0  0
    6.3301   -4.7220    0.0000 N   0  0  0  0  0  0  0  0  0  0  0  0
    3.7320    6.7780    0.0000 N   0  0  0  0  0  0  0  0  0  0  0  0
    4.5981    1.2780    0.0000 C   0  0  1  0  0  0  0  0  0  0  0  0
    4.5981    0.2780    0.0000 C   0  0  0  0  0  0  0  0  0  0  0  0
    2.8660    1.2780    0.0000 C   0  0  0  0  0  0  0  0  0  0  0  0
    5.4641   -0.2220    0.0000 C   0  0  0  0  0  0  0  0  0  0  0  0
    2.8660    0.2780    0.0000 C   0  0  0  0  0  0  0  0  0  0  0  0
    5.4641    1.7780    0.0000 C   0  0  0  0  0  0  0  0  0  0  0  0
    5.4641   -1.2220    0.0000 C   0  0  0  0  0  0  0  0  0  0  0  0
    6.3301   -1.7220    0.0000 C   0  0  0  0  0  0  0  0  0  0  0  0
    3.7320    3.7780    0.0000 C   0  0  0  0  0  0  0  0  0  0  0  0
    2.0000   -0.2220    0.0000 C   0  0  0  0  0  0  0  0  0  0  0  0
    3.7320   -0.2220    0.0000 C   0  0  0  0  0  0  0  0  0  0  0  0
    7.1962   -4.2220    0.0000 C   0  0  2  0  0  0  0  0  0  0  0  0
    7.1962   -3.2220    0.0000 C   0  0  0  0  0  0  0  0  0  0  0  0
    2.8660    4.2780    0.0000 C   0  0  0  0  0  0  0  0  0  0  0  0
    4.5981    4.2780    0.0000 C   0  0  0  0  0  0  0  0  0  0  0  0
    8.0622   -4.7220    0.0000 C   0  0  0  0  0  0  0  0  0  0  0  0
    5.4641   -6.2220    0.0000 C   0  0  0  0  0  0  0  0  0  0  0  0
    6.3301   -5.7220    0.0000 C   0  0  0  0  0  0  0  0  0  0  0  0
    8.9282   -4.2220    0.0000 C   0  0  0  0  0  0  0  0  0  0  0  0
    2.8660    5.2780    0.0000 C   0  0  0  0  0  0  0  0  0  0  0  0
    4.5981    5.2780    0.0000 C   0  0  0  0  0  0  0  0  0  0  0  0
    4.5981   -6.7220    0.0000 C   0  0  0  0  0  0  0  0  0  0  0  0
    5.9641   -7.0880    0.0000 C   0  0  0  0  0  0  0  0  0  0  0  0
    4.9641   -5.3560    0.0000 C   0  0  0  0  0  0  0  0  0  0  0  0
    3.7320    5.7780    0.0000 C   0  0  0  0  0  0  0  0  0  0  0  0
    9.7942   -4.7220    0.0000 C   0  0  0  0  0  0  0  0  0  0  0  0
    8.9282   -3.2220    0.0000 C   0  0  0  0  0  0  0  0  0  0  0  0
   10.6603   -4.2220    0.0000 C   0  0  0  0  0  0  0  0  0  0  0  0
   10.6603   -3.2220    0.0000 C   0  0  0  0  0  0  0  0  0  0  0  0
    9.7942   -2.7220    0.0000 C   0  0  0  0  0  0  0  0  0  0  0  0
   11.5542   -4.7566    0.0000 C   0  0  0  0  0  0  0  0  0  0  0  0
   11.5542   -2.6873    0.0000 C   0  0  0  0  0  0  0  0  0  0  0  0
   12.4603   -4.2428    0.0000 C   0  0  0  0  0  0  0  0  0  0  0  0
   12.4603   -3.2012    0.0000 C   0  0  0  0  0  0  0  0  0  0  0  0
    4.5981    1.8980    0.0000 H   0  0  0  0  0  0  0  0  0  0  0  0
    3.9875    0.3857    0.0000 H   0  0  0  0  0  0  0  0  0  0  0  0
    4.3860   -0.3046    0.0000 H   0  0  0  0  0  0  0  0  0  0  0  0
    2.6540    1.8606    0.0000 H   0  0  0  0  0  0  0  0  0  0  0  0
    2.2554    1.1704    0.0000 H   0  0  0  0  0  0  0  0  0  0  0  0
    6.0747   -0.3296    0.0000 H   0  0  0  0  0  0  0  0  0  0  0  0
    5.6762    0.3606    0.0000 H   0  0  0  0  0  0  0  0  0  0  0  0
    2.8660   -0.3420    0.0000 H   0  0  0  0  0  0  0  0  0  0  0  0
    5.8626    2.2530    0.0000 H   0  0  0  0  0  0  0  0  0  0  0  0
    5.0656    2.2530    0.0000 H   0  0  0  0  0  0  0  0  0  0  0  0
    4.8535   -1.1143    0.0000 H   0  0  0  0  0  0  0  0  0  0  0  0
    5.2520   -1.8046    0.0000 H   0  0  0  0  0  0  0  0  0  0  0  0
    6.9407   -1.8296    0.0000 H   0  0  0  0  0  0  0  0  0  0  0  0
    6.5422   -1.1394    0.0000 H   0  0  0  0  0  0  0  0  0  0  0  0
    1.6900    0.3149    0.0000 H   0  0  0  0  0  0  0  0  0  0  0  0
    1.4631   -0.5320    0.0000 H   0  0  0  0  0  0  0  0  0  0  0  0
    2.3100   -0.7589    0.0000 H   0  0  0  0  0  0  0  0  0  0  0  0
    3.4220   -0.7589    0.0000 H   0  0  0  0  0  0  0  0  0  0  0  0
    4.2690   -0.5320    0.0000 H   0  0  0  0  0  0  0  0  0  0  0  0
    4.0420    0.3149    0.0000 H   0  0  0  0  0  0  0  0  0  0  0  0
    6.6592   -3.9120    0.0000 H   0  0  0  0  0  0  0  0  0  0  0  0
    5.7932   -3.0320    0.0000 H   0  0  0  0  0  0  0  0  0  0  0  0
    6.8671    1.5880    0.0000 H   0  0  0  0  0  0  0  0  0  0  0  0
    7.6636   -5.1969    0.0000 H   0  0  0  0  0  0  0  0  0  0  0  0
    8.4607   -5.1969    0.0000 H   0  0  0  0  0  0  0  0  0  0  0  0
    2.3291    3.9680    0.0000 H   0  0  0  0  0  0  0  0  0  0  0  0
    5.1350    3.9680    0.0000 H   0  0  0  0  0  0  0  0  0  0  0  0
    5.7932   -4.4120    0.0000 H   0  0  0  0  0  0  0  0  0  0  0  0
    2.3291    5.5880    0.0000 H   0  0  0  0  0  0  0  0  0  0  0  0
    5.1350    5.5880    0.0000 H   0  0  0  0  0  0  0  0  0  0  0  0
    4.2881   -6.1851    0.0000 H   0  0  0  0  0  0  0  0  0  0  0  0
    4.0611   -7.0320    0.0000 H   0  0  0  0  0  0  0  0  0  0  0  0
    4.9081   -7.2589    0.0000 H   0  0  0  0  0  0  0  0  0  0  0  0
    5.4272   -7.3980    0.0000 H   0  0  0  0  0  0  0  0  0  0  0  0
    6.2741   -7.6250    0.0000 H   0  0  0  0  0  0  0  0  0  0  0  0
    6.5010   -6.7780    0.0000 H   0  0  0  0  0  0  0  0  0  0  0  0
    5.5010   -5.0460    0.0000 H   0  0  0  0  0  0  0  0  0  0  0  0
    4.6541   -4.8190    0.0000 H   0  0  0  0  0  0  0  0  0  0  0  0
    4.4272   -5.6660    0.0000 H   0  0  0  0  0  0  0  0  0  0  0  0
    9.7942   -5.3420    0.0000 H   0  0  0  0  0  0  0  0  0  0  0  0
    8.3913   -2.9120    0.0000 H   0  0  0  0  0  0  0  0  0  0  0  0
    9.7942   -2.1020    0.0000 H   0  0  0  0  0  0  0  0  0  0  0  0
    3.1951    7.0880    0.0000 H   0  0  0  0  0  0  0  0  0  0  0  0
    4.2690    7.0880    0.0000 H   0  0  0  0  0  0  0  0  0  0  0  0
   11.5470   -5.3766    0.0000 H   0  0  0  0  0  0  0  0  0  0  0  0
   11.5470   -2.0674    0.0000 H   0  0  0  0  0  0  0  0  0  0  0  0
   12.9960   -4.5549    0.0000 H   0  0  0  0  0  0  0  0  0  0  0  0
   12.9960   -2.8891    0.0000 H   0  0  0  0  0  0  0  0  0  0  0  0
  1  3  2  0  0  0  0
  1  4  2  0  0  0  0
  1  7  1  0  0  0  0
  1 19  1  0  0  0  0
  2 16  1  0  0  0  0
  2 67  1  0  0  0  0
  5 23  2  0  0  0  0
  6 28  2  0  0  0  0
 11  7  1  6  0  0  0
  7 13  1  0  0  0  0
  8 18  1  0  0  0  0
  8 23  1  0  0  0  0
  8 66  1  0  0  0  0
 22  9  1  6  0  0  0
  9 28  1  0  0  0  0
  9 72  1  0  0  0  0
 10 35  1  0  0  0  0
 10 87  1  0  0  0  0
 10 88  1  0  0  0  0
 11 12  1  0  0  0  0
 11 16  1  0  0  0  0
 11 45  1  0  0  0  0
 12 14  1  0  0  0  0
 12 46  1  0  0  0  0
 12 47  1  0  0  0  0
 13 15  1  0  0  0  0
 13 48  1  0  0  0  0
 13 49  1  0  0  0  0
 14 17  1  0  0  0  0
 14 50  1  0  0  0  0
 14 51  1  0  0  0  0
 15 20  1  0  0  0  0
 15 21  1  0  0  0  0
 15 52  1  0  0  0  0
 16 53  1  0  0  0  0
 16 54  1  0  0  0  0
 17 18  1  0  0  0  0
 17 55  1  0  0  0  0
 17 56  1  0  0  0  0
 18 57  1  0  0  0  0
 18 58  1  0  0  0  0
 19 24  2  0  0  0  0
 19 25  1  0  0  0  0
 20 59  1  0  0  0  0
 20 60  1  0  0  0  0
 20 61  1  0  0  0  0
 21 62  1  0  0  0  0
 21 63  1  0  0  0  0
 21 64  1  0  0  0  0
 22 23  1  0  0  0  0
 22 26  1  0  0  0  0
 22 65  1  0  0  0  0
 24 30  1  0  0  0  0
 24 70  1  0  0  0  0
 25 31  2  0  0  0  0
 25 71  1  0  0  0  0
 26 29  1  0  0  0  0
 26 68  1  0  0  0  0
 26 69  1  0  0  0  0
 27 28  1  0  0  0  0
 27 32  1  0  0  0  0
 27 33  1  0  0  0  0
 27 34  1  0  0  0  0
 29 36  2  0  0  0  0
 29 37  1  0  0  0  0
 30 35  2  0  0  0  0
 30 73  1  0  0  0  0
 31 35  1  0  0  0  0
 31 74  1  0  0  0  0
 32 75  1  0  0  0  0
 32 76  1  0  0  0  0
 32 77  1  0  0  0  0
 33 78  1  0  0  0  0
 33 79  1  0  0  0  0
 33 80  1  0  0  0  0
 34 81  1  0  0  0  0
 34 82  1  0  0  0  0
 34 83  1  0  0  0  0
 36 38  1  0  0  0  0
 36 84  1  0  0  0  0
 37 40  2  0  0  0  0
 37 85  1  0  0  0  0
 38 39  1  0  0  0  0
 38 41  2  0  0  0  0
 39 40  1  0  0  0  0
 39 42  2  0  0  0  0
 40 86  1  0  0  0  0
 41 43  1  0  0  0  0
 41 89  1  0  0  0  0
 42 44  1  0  0  0  0
 42 90  1  0  0  0  0
 43 44  2  0  0  0  0
 43 91  1  0  0  0  0
 44 92  1  0  0  0  0
M  END
> <PUBCHEM_COMPOUND_CID>
513968
> <PUBCHEM_COMPOUND_CANONICALIZED>
1
> <PUBCHEM_CACTVS_COMPLEXITY>
1000
> <PUBCHEM_CACTVS_HBOND_ACCEPTOR>
7
> <PUBCHEM_CACTVS_HBOND_DONOR>
4
> <PUBCHEM_CACTVS_ROTATABLE_BOND>
16
> <PUBCHEM_CACTVS_SUBSKEYS>
AAADcfB/uABAAAAAAAAAAAAAAAAAAAAAAAAwYMAAAAAAAADBVAAAHgQQSAAADyjh2AYywcLAAgKIAiVSUHDCABAgAgAIiJmIZIgKcDKAkbGUYABklgCYyAeYyMCOwAQCAAAQAACACAQAACAAAAAAAAAAAA==
> <PUBCHEM_IUPAC_OPENEYE_NAME>
N-[(1S)-2-[[(5S)-5-[(4-aminophenyl)sulfonyl-isobutyl-amino]-6-hydroxy-hexyl]amino]-1-(2-naphthylmethyl)-2-oxo-ethyl]-2,2-dimethyl-propanamide
> <PUBCHEM_IUPAC_CAS_NAME>
N-[(2S)-1-[[(5S)-5-[(4-aminophenyl)sulfonyl-(2-methylpropyl)amino]-6-hydroxyhexyl]amino]-3-(2-naphthalenyl)-1-oxopropan-2-yl]-2,2-dimethylpropanamide
> <PUBCHEM_IUPAC_NAME_MARKUP>
<I>N</I>-[(2<I>S</I>)-1-[[(5<I>S</I>)-5-[(4-aminophenyl)sulfonyl-(2-methylpropyl)amino]-6-hydroxyhexyl]amino]-3-naphthalen-2-yl-1-oxopropan-2-yl]-2,2-dimethylpropanamide
> <PUBCHEM_IUPAC_NAME>
N-[(2S)-1-[[(5S)-5-[(4-aminophenyl)sulfonyl-(2-methylpropyl)amino]-6-hydroxyhexyl]amino]-3-naphthalen-2-yl-1-oxopropan-2-yl]-2,2-dimethylpropanamide
> <PUBCHEM_IUPAC_SYSTEMATIC_NAME>
N-[(2S)-1-[[(5S)-5-[(4-aminophenyl)sulfonyl-(2-methylpropyl)amino]-6-oxidanyl-hexyl]amino]-3-naphthalen-2-yl-1-oxidanylidene-propan-2-yl]-2,2-dimethyl-propanamide
> <PUBCHEM_IUPAC_TRADITIONAL_NAME>
N-[(1S)-2-[[(5S)-6-hydroxy-5-[isobutyl(sulfanilyl)amino]hexyl]amino]-2-keto-1-(2-naphthylmethyl)ethyl]-2,2-dimethyl-propionamide
> <PUBCHEM_IUPAC_INCHI>
InChI=1S/C34H48N4O5S/c1-24(2)22-38(44(42,43)30-17-15-28(35)16-18-30)29(23-39)12-8-9-19-36-32(40)31(37-33(41)34(3,4)5)21-25-13-14-26-10-6-7-11-27(26)20-25/h6-7,10-11,13-18,20,24,29,31,39H,8-9,12,19,21-23,35H2,1-5H3,(H,36,40)(H,37,41)/t29-,31-/m0/s1
> <PUBCHEM_IUPAC_INCHIKEY>
QTRIQXMLHOYXAI-SMCANUKXSA-N
> <PUBCHEM_XLOGP3_AA>
5.5
> <PUBCHEM_EXACT_MASS>
624.33454182
> <PUBCHEM_MOLECULAR_FORMULA>
C34H48N4O5S
> <PUBCHEM_MOLECULAR_WEIGHT>
624.8
> <PUBCHEM_OPENEYE_CAN_SMILES>
CC(C)CN(C(CCCCNC(=O)C(CC1=CC2=CC=CC=C2C=C1)NC(=O)C(C)(C)C)CO)S(=O)(=O)C3=CC=C(C=C3)N
> <PUBCHEM_OPENEYE_ISO_SMILES>
CC(C)CN([C@@H](CCCCNC(=O)[C@H](CC1=CC2=CC=CC=C2C=C1)NC(=O)C(C)(C)C)CO)S(=O)(=O)C3=CC=C(C=C3)N
> <PUBCHEM_CACTVS_TPSA>
150
> <PUBCHEM_MONOISOTOPIC_WEIGHT>
624.33454182
> <PUBCHEM_TOTAL_CHARGE>
0
> <PUBCHEM_HEAVY_ATOM_COUNT>
44
> <PUBCHEM_ATOM_DEF_STEREO_COUNT>
2
> <PUBCHEM_ATOM_UDEF_STEREO_COUNT>
0
> <PUBCHEM_BOND_DEF_STEREO_COUNT>
0
> <PUBCHEM_BOND_UDEF_STEREO_COUNT>
0
> <PUBCHEM_ISOTOPIC_ATOM_COUNT>
0
> <PUBCHEM_COMPONENT_COUNT>
1
> <PUBCHEM_CACTVS_TAUTO_COUNT>
-1
> <PUBCHEM_COORDINATE_TYPE>
1
5
255
> <PUBCHEM_BONDANNOTATIONS>
19  24  8
19  25  8
24  30  8
25  31  8
29  36  8
29  37  8
30  35  8
31  35  8
36  38  8
37  40  8
38  39  8
38  41  8
39  40  8
39  42  8
41  43  8
42  44  8
43  44  8
11  7  6
22  9  6
$$$$
