513951
  -OEChem-10302200282D
 84 86  0     1  0  0  0  0  0999 V2000
    6.0010   -3.4400    0.0000 S   0  0  0  0  0  0  0  0  0  0  0  0
    6.0010   -0.4400    0.0000 O   0  0  0  0  0  0  0  0  0  0  0  0
    6.5010   -4.3060    0.0000 O   0  0  0  0  0  0  0  0  0  0  0  0
    5.5010   -2.5740    0.0000 O   0  0  0  0  0  0  0  0  0  0  0  0
    8.5991    3.0600    0.0000 O   0  0  0  0  0  0  0  0  0  0  0  0
    9.4651    5.5600    0.0000 O   0  0  0  0  0  0  0  0  0  0  0  0
    8.5991    4.0600    0.0000 O   0  0  0  0  0  0  0  0  0  0  0  0
    6.8671   -2.9400    0.0000 N   0  0  3  0  0  0  0  0  0  0  0  0
    9.4651    1.5600    0.0000 N   0  0  0  0  0  0  0  0  0  0  0  0
   10.3312    4.0600    0.0000 N   0  0  0  0  0  0  0  0  0  0  0  0
    2.5369   -5.4400    0.0000 N   0  0  0  0  0  0  0  0  0  0  0  0
    6.8671   -1.9400    0.0000 C   0  0  1  0  0  0  0  0  0  0  0  0
    7.7331   -1.4400    0.0000 C   0  0  0  0  0  0  0  0  0  0  0  0
    7.7331   -3.4400    0.0000 C   0  0  0  0  0  0  0  0  0  0  0  0
    7.7331   -0.4400    0.0000 C   0  0  0  0  0  0  0  0  0  0  0  0
    8.5991   -2.9400    0.0000 C   0  0  0  0  0  0  0  0  0  0  0  0
    6.0010   -1.4400    0.0000 C   0  0  0  0  0  0  0  0  0  0  0  0
    8.5991    0.0600    0.0000 C   0  0  0  0  0  0  0  0  0  0  0  0
    5.1350   -3.9400    0.0000 C   0  0  0  0  0  0  0  0  0  0  0  0
    9.4651   -3.4400    0.0000 C   0  0  0  0  0  0  0  0  0  0  0  0
    8.5991   -1.9400    0.0000 C   0  0  0  0  0  0  0  0  0  0  0  0
    8.5991    1.0600    0.0000 C   0  0  0  0  0  0  0  0  0  0  0  0
    4.2690   -3.4400    0.0000 C   0  0  0  0  0  0  0  0  0  0  0  0
    5.1350   -4.9400    0.0000 C   0  0  0  0  0  0  0  0  0  0  0  0
   10.3312    3.0600    0.0000 C   0  0  2  0  0  0  0  0  0  0  0  0
    9.4651    2.5600    0.0000 C   0  0  0  0  0  0  0  0  0  0  0  0
   11.1972    2.5600    0.0000 C   0  0  0  0  0  0  0  0  0  0  0  0
    3.4030   -3.9400    0.0000 C   0  0  0  0  0  0  0  0  0  0  0  0
    4.2690   -5.4400    0.0000 C   0  0  0  0  0  0  0  0  0  0  0  0
    3.4030   -4.9400    0.0000 C   0  0  0  0  0  0  0  0  0  0  0  0
   12.0632    3.0600    0.0000 C   0  0  0  0  0  0  0  0  0  0  0  0
   12.9292    2.5600    0.0000 C   0  0  0  0  0  0  0  0  0  0  0  0
   12.0632    4.0600    0.0000 C   0  0  0  0  0  0  0  0  0  0  0  0
   13.7953    3.0600    0.0000 C   0  0  0  0  0  0  0  0  0  0  0  0
   13.7953    4.0600    0.0000 C   0  0  0  0  0  0  0  0  0  0  0  0
   12.9292    4.5600    0.0000 C   0  0  0  0  0  0  0  0  0  0  0  0
    9.4651    4.5600    0.0000 C   0  0  0  0  0  0  0  0  0  0  0  0
   14.6892    2.5253    0.0000 C   0  0  0  0  0  0  0  0  0  0  0  0
   14.6892    4.5947    0.0000 C   0  0  0  0  0  0  0  0  0  0  0  0
   15.5953    3.0392    0.0000 C   0  0  0  0  0  0  0  0  0  0  0  0
   15.5953    4.0808    0.0000 C   0  0  0  0  0  0  0  0  0  0  0  0
    8.5991    6.0600    0.0000 C   0  0  0  0  0  0  0  0  0  0  0  0
    6.3301   -2.2500    0.0000 H   0  0  0  0  0  0  0  0  0  0  0  0
    7.9451   -2.0226    0.0000 H   0  0  0  0  0  0  0  0  0  0  0  0
    8.3437   -1.3323    0.0000 H   0  0  0  0  0  0  0  0  0  0  0  0
    7.3346   -3.9150    0.0000 H   0  0  0  0  0  0  0  0  0  0  0  0
    8.1316   -3.9150    0.0000 H   0  0  0  0  0  0  0  0  0  0  0  0
    7.5210    0.1426    0.0000 H   0  0  0  0  0  0  0  0  0  0  0  0
    7.1225   -0.5477    0.0000 H   0  0  0  0  0  0  0  0  0  0  0  0
    8.5991   -3.5600    0.0000 H   0  0  0  0  0  0  0  0  0  0  0  0
    5.3905   -1.3323    0.0000 H   0  0  0  0  0  0  0  0  0  0  0  0
    5.7890   -2.0226    0.0000 H   0  0  0  0  0  0  0  0  0  0  0  0
    8.8112   -0.5226    0.0000 H   0  0  0  0  0  0  0  0  0  0  0  0
    9.2097    0.1677    0.0000 H   0  0  0  0  0  0  0  0  0  0  0  0
    9.1551   -3.9769    0.0000 H   0  0  0  0  0  0  0  0  0  0  0  0
   10.0021   -3.7500    0.0000 H   0  0  0  0  0  0  0  0  0  0  0  0
    9.7751   -2.9031    0.0000 H   0  0  0  0  0  0  0  0  0  0  0  0
    9.2191   -1.9400    0.0000 H   0  0  0  0  0  0  0  0  0  0  0  0
    8.5991   -1.3200    0.0000 H   0  0  0  0  0  0  0  0  0  0  0  0
    7.9791   -1.9400    0.0000 H   0  0  0  0  0  0  0  0  0  0  0  0
    8.3871    1.6426    0.0000 H   0  0  0  0  0  0  0  0  0  0  0  0
    7.9885    0.9523    0.0000 H   0  0  0  0  0  0  0  0  0  0  0  0
    5.4641   -0.1300    0.0000 H   0  0  0  0  0  0  0  0  0  0  0  0
   10.0021    1.2500    0.0000 H   0  0  0  0  0  0  0  0  0  0  0  0
    4.2690   -2.8200    0.0000 H   0  0  0  0  0  0  0  0  0  0  0  0
    5.6720   -5.2500    0.0000 H   0  0  0  0  0  0  0  0  0  0  0  0
   10.8681    3.3700    0.0000 H   0  0  0  0  0  0  0  0  0  0  0  0
   10.7987    2.0850    0.0000 H   0  0  0  0  0  0  0  0  0  0  0  0
   11.5957    2.0850    0.0000 H   0  0  0  0  0  0  0  0  0  0  0  0
    2.8660   -3.6300    0.0000 H   0  0  0  0  0  0  0  0  0  0  0  0
    4.2690   -6.0600    0.0000 H   0  0  0  0  0  0  0  0  0  0  0  0
   10.8681    4.3700    0.0000 H   0  0  0  0  0  0  0  0  0  0  0  0
   12.9292    1.9400    0.0000 H   0  0  0  0  0  0  0  0  0  0  0  0
   11.5263    4.3700    0.0000 H   0  0  0  0  0  0  0  0  0  0  0  0
    2.5369   -6.0600    0.0000 H   0  0  0  0  0  0  0  0  0  0  0  0
    2.0000   -5.1300    0.0000 H   0  0  0  0  0  0  0  0  0  0  0  0
   12.9292    5.1800    0.0000 H   0  0  0  0  0  0  0  0  0  0  0  0
   14.6820    1.9054    0.0000 H   0  0  0  0  0  0  0  0  0  0  0  0
   14.6820    5.2146    0.0000 H   0  0  0  0  0  0  0  0  0  0  0  0
   16.1310    2.7271    0.0000 H   0  0  0  0  0  0  0  0  0  0  0  0
   16.1310    4.3929    0.0000 H   0  0  0  0  0  0  0  0  0  0  0  0
    8.9091    6.5969    0.0000 H   0  0  0  0  0  0  0  0  0  0  0  0
    8.0622    6.3700    0.0000 H   0  0  0  0  0  0  0  0  0  0  0  0
    8.2891    5.5231    0.0000 H   0  0  0  0  0  0  0  0  0  0  0  0
  1  3  2  0  0  0  0
  1  4  2  0  0  0  0
  1  8  1  0  0  0  0
  1 19  1  0  0  0  0
  2 17  1  0  0  0  0
  2 63  1  0  0  0  0
  5 26  2  0  0  0  0
  6 37  1  0  0  0  0
  6 42  1  0  0  0  0
  7 37  2  0  0  0  0
 12  8  1  6  0  0  0
  8 14  1  0  0  0  0
  9 22  1  0  0  0  0
  9 26  1  0  0  0  0
  9 64  1  0  0  0  0
 25 10  1  1  0  0  0
 10 37  1  0  0  0  0
 10 72  1  0  0  0  0
 11 30  1  0  0  0  0
 11 75  1  0  0  0  0
 11 76  1  0  0  0  0
 12 13  1  0  0  0  0
 12 17  1  0  0  0  0
 12 43  1  0  0  0  0
 13 15  1  0  0  0  0
 13 44  1  0  0  0  0
 13 45  1  0  0  0  0
 14 16  1  0  0  0  0
 14 46  1  0  0  0  0
 14 47  1  0  0  0  0
 15 18  1  0  0  0  0
 15 48  1  0  0  0  0
 15 49  1  0  0  0  0
 16 20  1  0  0  0  0
 16 21  1  0  0  0  0
 16 50  1  0  0  0  0
 17 51  1  0  0  0  0
 17 52  1  0  0  0  0
 18 22  1  0  0  0  0
 18 53  1  0  0  0  0
 18 54  1  0  0  0  0
 19 23  2  0  0  0  0
 19 24  1  0  0  0  0
 20 55  1  0  0  0  0
 20 56  1  0  0  0  0
 20 57  1  0  0  0  0
 21 58  1  0  0  0  0
 21 59  1  0  0  0  0
 21 60  1  0  0  0  0
 22 61  1  0  0  0  0
 22 62  1  0  0  0  0
 23 28  1  0  0  0  0
 23 65  1  0  0  0  0
 24 29  2  0  0  0  0
 24 66  1  0  0  0  0
 25 26  1  0  0  0  0
 25 27  1  0  0  0  0
 25 67  1  0  0  0  0
 27 31  1  0  0  0  0
 27 68  1  0  0  0  0
 27 69  1  0  0  0  0
 28 30  2  0  0  0  0
 28 70  1  0  0  0  0
 29 30  1  0  0  0  0
 29 71  1  0  0  0  0
 31 32  2  0  0  0  0
 31 33  1  0  0  0  0
 32 34  1  0  0  0  0
 32 73  1  0  0  0  0
 33 36  2  0  0  0  0
 33 74  1  0  0  0  0
 34 35  1  0  0  0  0
 34 38  2  0  0  0  0
 35 36  1  0  0  0  0
 35 39  2  0  0  0  0
 36 77  1  0  0  0  0
 38 40  1  0  0  0  0
 38 78  1  0  0  0  0
 39 41  1  0  0  0  0
 39 79  1  0  0  0  0
 40 41  2  0  0  0  0
 40 80  1  0  0  0  0
 41 81  1  0  0  0  0
 42 82  1  0  0  0  0
 42 83  1  0  0  0  0
 42 84  1  0  0  0  0
M  END
> <PUBCHEM_COMPOUND_CID>
513951
> <PUBCHEM_COMPOUND_CANONICALIZED>
1
> <PUBCHEM_CACTVS_COMPLEXITY>
934
> <PUBCHEM_CACTVS_HBOND_ACCEPTOR>
8
> <PUBCHEM_CACTVS_HBOND_DONOR>
4
> <PUBCHEM_CACTVS_ROTATABLE_BOND>
16
> <PUBCHEM_CACTVS_SUBSKEYS>
AAADcfB7uABAAAAAAAAAAAAAAAAAAAAAAAAwYMAAAAAAAADBVAAAHgQQSAAADSjh2AYyycLABgKIAiVSWHDCABAgAgAIiJmIZIkKcDKAkbGUYABklgCYyAeYyMCOwAQCAAAQAACACAQAACAAAAAAAAAAAA==
> <PUBCHEM_IUPAC_OPENEYE_NAME>
methyl N-[(1S)-2-[[(5S)-5-[(4-aminophenyl)sulfonyl-isobutyl-amino]-6-hydroxy-hexyl]amino]-1-(2-naphthylmethyl)-2-oxo-ethyl]carbamate
> <PUBCHEM_IUPAC_CAS_NAME>
N-[(2S)-1-[[(5S)-5-[(4-aminophenyl)sulfonyl-(2-methylpropyl)amino]-6-hydroxyhexyl]amino]-3-(2-naphthalenyl)-1-oxopropan-2-yl]carbamic acid methyl ester
> <PUBCHEM_IUPAC_NAME_MARKUP>
methyl <I>N</I>-[(2<I>S</I>)-1-[[(5<I>S</I>)-5-[(4-aminophenyl)sulfonyl-(2-methylpropyl)amino]-6-hydroxyhexyl]amino]-3-naphthalen-2-yl-1-oxopropan-2-yl]carbamate
> <PUBCHEM_IUPAC_NAME>
methyl N-[(2S)-1-[[(5S)-5-[(4-aminophenyl)sulfonyl-(2-methylpropyl)amino]-6-hydroxyhexyl]amino]-3-naphthalen-2-yl-1-oxopropan-2-yl]carbamate
> <PUBCHEM_IUPAC_SYSTEMATIC_NAME>
methyl N-[(2S)-1-[[(5S)-5-[(4-aminophenyl)sulfonyl-(2-methylpropyl)amino]-6-oxidanyl-hexyl]amino]-3-naphthalen-2-yl-1-oxidanylidene-propan-2-yl]carbamate
> <PUBCHEM_IUPAC_TRADITIONAL_NAME>
N-[(1S)-2-[[(5S)-6-hydroxy-5-[isobutyl(sulfanilyl)amino]hexyl]amino]-2-keto-1-(2-naphthylmethyl)ethyl]carbamic acid methyl ester
> <PUBCHEM_IUPAC_INCHI>
InChI=1S/C31H42N4O6S/c1-22(2)20-35(42(39,40)28-15-13-26(32)14-16-28)27(21-36)10-6-7-17-33-30(37)29(34-31(38)41-3)19-23-11-12-24-8-4-5-9-25(24)18-23/h4-5,8-9,11-16,18,22,27,29,36H,6-7,10,17,19-21,32H2,1-3H3,(H,33,37)(H,34,38)/t27-,29-/m0/s1
> <PUBCHEM_IUPAC_INCHIKEY>
DRDQKOKQQIVXRZ-YTMVLYRLSA-N
> <PUBCHEM_XLOGP3_AA>
4.5
> <PUBCHEM_EXACT_MASS>
598.28250625
> <PUBCHEM_MOLECULAR_FORMULA>
C31H42N4O6S
> <PUBCHEM_MOLECULAR_WEIGHT>
598.8
> <PUBCHEM_OPENEYE_CAN_SMILES>
CC(C)CN(C(CCCCNC(=O)C(CC1=CC2=CC=CC=C2C=C1)NC(=O)OC)CO)S(=O)(=O)C3=CC=C(C=C3)N
> <PUBCHEM_OPENEYE_ISO_SMILES>
CC(C)CN([C@@H](CCCCNC(=O)[C@H](CC1=CC2=CC=CC=C2C=C1)NC(=O)OC)CO)S(=O)(=O)C3=CC=C(C=C3)N
> <PUBCHEM_CACTVS_TPSA>
159
> <PUBCHEM_MONOISOTOPIC_WEIGHT>
598.28250625
> <PUBCHEM_TOTAL_CHARGE>
0
> <PUBCHEM_HEAVY_ATOM_COUNT>
42
> <PUBCHEM_ATOM_DEF_STEREO_COUNT>
2
> <PUBCHEM_ATOM_UDEF_STEREO_COUNT>
0
> <PUBCHEM_BOND_DEF_STEREO_COUNT>
0
> <PUBCHEM_BOND_UDEF_STEREO_COUNT>
0
> <PUBCHEM_ISOTOPIC_ATOM_COUNT>
0
> <PUBCHEM_COMPONENT_COUNT>
1
> <PUBCHEM_CACTVS_TAUTO_COUNT>
-1
> <PUBCHEM_COORDINATE_TYPE>
1
5
255
> <PUBCHEM_BONDANNOTATIONS>
25  10  5
19  23  8
19  24  8
23  28  8
24  29  8
28  30  8
29  30  8
31  32  8
31  33  8
32  34  8
33  36  8
34  35  8
34  38  8
35  36  8
35  39  8
38  40  8
39  41  8
40  41  8
12  8  6
$$$$
