513953
  -OEChem-10302200282D
 92 94  0     1  0  0  0  0  0999 V2000
    4.5981   -3.0950    0.0000 S   0  0  0  0  0  0  0  0  0  0  0  0
    7.1962   -1.5950    0.0000 O   0  0  0  0  0  0  0  0  0  0  0  0
    5.5981   -3.0950    0.0000 O   0  0  0  0  0  0  0  0  0  0  0  0
    3.5981   -3.0950    0.0000 O   0  0  0  0  0  0  0  0  0  0  0  0
    8.9282    2.4050    0.0000 O   0  0  0  0  0  0  0  0  0  0  0  0
   10.6603    4.4050    0.0000 O   0  0  0  0  0  0  0  0  0  0  0  0
    9.7942    2.9050    0.0000 O   0  0  0  0  0  0  0  0  0  0  0  0
    2.8660    3.9050    0.0000 O   0  0  0  0  0  0  0  0  0  0  0  0
    4.5981   -2.0950    0.0000 N   0  0  3  0  0  0  0  0  0  0  0  0
    7.1962    2.4050    0.0000 N   0  0  0  0  0  0  0  0  0  0  0  0
    8.9282    4.4050    0.0000 N   0  0  0  0  0  0  0  0  0  0  0  0
    4.5981   -7.0950    0.0000 N   0  0  0  0  0  0  0  0  0  0  0  0
    5.4641   -1.5950    0.0000 C   0  0  1  0  0  0  0  0  0  0  0  0
    5.4641   -0.5950    0.0000 C   0  0  0  0  0  0  0  0  0  0  0  0
    3.7320   -1.5950    0.0000 C   0  0  0  0  0  0  0  0  0  0  0  0
    6.3301   -0.0950    0.0000 C   0  0  0  0  0  0  0  0  0  0  0  0
    3.7320   -0.5950    0.0000 C   0  0  0  0  0  0  0  0  0  0  0  0
    6.3301   -2.0950    0.0000 C   0  0  0  0  0  0  0  0  0  0  0  0
    6.3301    0.9050    0.0000 C   0  0  0  0  0  0  0  0  0  0  0  0
    4.5981   -4.0950    0.0000 C   0  0  0  0  0  0  0  0  0  0  0  0
    2.8660   -0.0950    0.0000 C   0  0  0  0  0  0  0  0  0  0  0  0
    4.5981   -0.0950    0.0000 C   0  0  0  0  0  0  0  0  0  0  0  0
    7.1962    1.4050    0.0000 C   0  0  0  0  0  0  0  0  0  0  0  0
    3.7320   -4.5950    0.0000 C   0  0  0  0  0  0  0  0  0  0  0  0
    5.4641   -4.5950    0.0000 C   0  0  0  0  0  0  0  0  0  0  0  0
    8.0622    3.9050    0.0000 C   0  0  2  0  0  0  0  0  0  0  0  0
    8.0622    2.9050    0.0000 C   0  0  0  0  0  0  0  0  0  0  0  0
    7.1962    4.4050    0.0000 C   0  0  0  0  0  0  0  0  0  0  0  0
    3.7320   -5.5950    0.0000 C   0  0  0  0  0  0  0  0  0  0  0  0
    5.4641   -5.5950    0.0000 C   0  0  0  0  0  0  0  0  0  0  0  0
    4.5981   -6.0950    0.0000 C   0  0  0  0  0  0  0  0  0  0  0  0
    7.1962    5.4050    0.0000 C   0  0  0  0  0  0  0  0  0  0  0  0
    6.3301    5.9050    0.0000 C   0  0  0  0  0  0  0  0  0  0  0  0
    8.0622    5.9050    0.0000 C   0  0  0  0  0  0  0  0  0  0  0  0
    5.4641    5.4050    0.0000 C   0  0  0  0  0  0  0  0  0  0  0  0
    6.3301    6.9050    0.0000 C   0  0  0  0  0  0  0  0  0  0  0  0
    9.7942    3.9050    0.0000 C   0  0  0  0  0  0  0  0  0  0  0  0
    8.0622    6.9050    0.0000 C   0  0  0  0  0  0  0  0  0  0  0  0
    7.1962    7.4050    0.0000 C   0  0  0  0  0  0  0  0  0  0  0  0
    4.5981    5.9050    0.0000 C   0  0  0  0  0  0  0  0  0  0  0  0
    5.4641    4.4050    0.0000 C   0  0  0  0  0  0  0  0  0  0  0  0
    3.7320    5.4050    0.0000 C   0  0  0  0  0  0  0  0  0  0  0  0
    4.5981    3.9050    0.0000 C   0  0  0  0  0  0  0  0  0  0  0  0
    3.7320    4.4050    0.0000 C   0  0  0  0  0  0  0  0  0  0  0  0
   11.5263    3.9050    0.0000 C   0  0  0  0  0  0  0  0  0  0  0  0
    2.0000    4.4050    0.0000 C   0  0  0  0  0  0  0  0  0  0  0  0
    5.4641   -2.2150    0.0000 H   0  0  0  0  0  0  0  0  0  0  0  0
    5.2520   -0.0124    0.0000 H   0  0  0  0  0  0  0  0  0  0  0  0
    4.8535   -0.7027    0.0000 H   0  0  0  0  0  0  0  0  0  0  0  0
    3.1215   -1.4873    0.0000 H   0  0  0  0  0  0  0  0  0  0  0  0
    3.5200   -2.1776    0.0000 H   0  0  0  0  0  0  0  0  0  0  0  0
    6.5422   -0.6776    0.0000 H   0  0  0  0  0  0  0  0  0  0  0  0
    6.9407    0.0127    0.0000 H   0  0  0  0  0  0  0  0  0  0  0  0
    3.7320    0.0250    0.0000 H   0  0  0  0  0  0  0  0  0  0  0  0
    5.9316   -2.5700    0.0000 H   0  0  0  0  0  0  0  0  0  0  0  0
    6.7287   -2.5700    0.0000 H   0  0  0  0  0  0  0  0  0  0  0  0
    6.1181    1.4876    0.0000 H   0  0  0  0  0  0  0  0  0  0  0  0
    5.7196    0.7973    0.0000 H   0  0  0  0  0  0  0  0  0  0  0  0
    3.1760    0.4419    0.0000 H   0  0  0  0  0  0  0  0  0  0  0  0
    2.3291    0.2150    0.0000 H   0  0  0  0  0  0  0  0  0  0  0  0
    2.5560   -0.6319    0.0000 H   0  0  0  0  0  0  0  0  0  0  0  0
    4.9081   -0.6319    0.0000 H   0  0  0  0  0  0  0  0  0  0  0  0
    5.1350    0.2150    0.0000 H   0  0  0  0  0  0  0  0  0  0  0  0
    4.2881    0.4419    0.0000 H   0  0  0  0  0  0  0  0  0  0  0  0
    7.4082    0.8224    0.0000 H   0  0  0  0  0  0  0  0  0  0  0  0
    7.8067    1.5127    0.0000 H   0  0  0  0  0  0  0  0  0  0  0  0
    7.7331   -1.9050    0.0000 H   0  0  0  0  0  0  0  0  0  0  0  0
    6.6592    2.7150    0.0000 H   0  0  0  0  0  0  0  0  0  0  0  0
    3.1951   -4.2850    0.0000 H   0  0  0  0  0  0  0  0  0  0  0  0
    6.0010   -4.2850    0.0000 H   0  0  0  0  0  0  0  0  0  0  0  0
    8.5991    3.5950    0.0000 H   0  0  0  0  0  0  0  0  0  0  0  0
    6.5856    4.5127    0.0000 H   0  0  0  0  0  0  0  0  0  0  0  0
    6.9841    3.8224    0.0000 H   0  0  0  0  0  0  0  0  0  0  0  0
    3.1951   -5.9050    0.0000 H   0  0  0  0  0  0  0  0  0  0  0  0
    6.0010   -5.9050    0.0000 H   0  0  0  0  0  0  0  0  0  0  0  0
    8.9282    5.0250    0.0000 H   0  0  0  0  0  0  0  0  0  0  0  0
    8.5991    5.5950    0.0000 H   0  0  0  0  0  0  0  0  0  0  0  0
    4.0611   -7.4050    0.0000 H   0  0  0  0  0  0  0  0  0  0  0  0
    5.1350   -7.4050    0.0000 H   0  0  0  0  0  0  0  0  0  0  0  0
    5.7932    7.2150    0.0000 H   0  0  0  0  0  0  0  0  0  0  0  0
    8.5991    7.2150    0.0000 H   0  0  0  0  0  0  0  0  0  0  0  0
    7.1962    8.0250    0.0000 H   0  0  0  0  0  0  0  0  0  0  0  0
    4.5981    6.5250    0.0000 H   0  0  0  0  0  0  0  0  0  0  0  0
    6.0010    4.0950    0.0000 H   0  0  0  0  0  0  0  0  0  0  0  0
    3.1951    5.7150    0.0000 H   0  0  0  0  0  0  0  0  0  0  0  0
    4.5981    3.2850    0.0000 H   0  0  0  0  0  0  0  0  0  0  0  0
   11.2163    3.3681    0.0000 H   0  0  0  0  0  0  0  0  0  0  0  0
   12.0632    3.5950    0.0000 H   0  0  0  0  0  0  0  0  0  0  0  0
   11.8363    4.4419    0.0000 H   0  0  0  0  0  0  0  0  0  0  0  0
    2.3100    4.9419    0.0000 H   0  0  0  0  0  0  0  0  0  0  0  0
    1.4631    4.7150    0.0000 H   0  0  0  0  0  0  0  0  0  0  0  0
    1.6900    3.8681    0.0000 H   0  0  0  0  0  0  0  0  0  0  0  0
  1  3  2  0  0  0  0
  1  4  2  0  0  0  0
  1  9  1  0  0  0  0
  1 20  1  0  0  0  0
  2 18  1  0  0  0  0
  2 67  1  0  0  0  0
  5 27  2  0  0  0  0
  6 37  1  0  0  0  0
  6 45  1  0  0  0  0
  7 37  2  0  0  0  0
  8 44  1  0  0  0  0
  8 46  1  0  0  0  0
 13  9  1  1  0  0  0
  9 15  1  0  0  0  0
 10 23  1  0  0  0  0
 10 27  1  0  0  0  0
 10 68  1  0  0  0  0
 26 11  1  6  0  0  0
 11 37  1  0  0  0  0
 11 76  1  0  0  0  0
 12 31  1  0  0  0  0
 12 78  1  0  0  0  0
 12 79  1  0  0  0  0
 13 14  1  0  0  0  0
 13 18  1  0  0  0  0
 13 47  1  0  0  0  0
 14 16  1  0  0  0  0
 14 48  1  0  0  0  0
 14 49  1  0  0  0  0
 15 17  1  0  0  0  0
 15 50  1  0  0  0  0
 15 51  1  0  0  0  0
 16 19  1  0  0  0  0
 16 52  1  0  0  0  0
 16 53  1  0  0  0  0
 17 21  1  0  0  0  0
 17 22  1  0  0  0  0
 17 54  1  0  0  0  0
 18 55  1  0  0  0  0
 18 56  1  0  0  0  0
 19 23  1  0  0  0  0
 19 57  1  0  0  0  0
 19 58  1  0  0  0  0
 20 24  2  0  0  0  0
 20 25  1  0  0  0  0
 21 59  1  0  0  0  0
 21 60  1  0  0  0  0
 21 61  1  0  0  0  0
 22 62  1  0  0  0  0
 22 63  1  0  0  0  0
 22 64  1  0  0  0  0
 23 65  1  0  0  0  0
 23 66  1  0  0  0  0
 24 29  1  0  0  0  0
 24 69  1  0  0  0  0
 25 30  2  0  0  0  0
 25 70  1  0  0  0  0
 26 27  1  0  0  0  0
 26 28  1  0  0  0  0
 26 71  1  0  0  0  0
 28 32  1  0  0  0  0
 28 72  1  0  0  0  0
 28 73  1  0  0  0  0
 29 31  2  0  0  0  0
 29 74  1  0  0  0  0
 30 31  1  0  0  0  0
 30 75  1  0  0  0  0
 32 33  1  0  0  0  0
 32 34  2  0  0  0  0
 33 35  1  0  0  0  0
 33 36  2  0  0  0  0
 34 38  1  0  0  0  0
 34 77  1  0  0  0  0
 35 40  2  0  0  0  0
 35 41  1  0  0  0  0
 36 39  1  0  0  0  0
 36 80  1  0  0  0  0
 38 39  2  0  0  0  0
 38 81  1  0  0  0  0
 39 82  1  0  0  0  0
 40 42  1  0  0  0  0
 40 83  1  0  0  0  0
 41 43  2  0  0  0  0
 41 84  1  0  0  0  0
 42 44  2  0  0  0  0
 42 85  1  0  0  0  0
 43 44  1  0  0  0  0
 43 86  1  0  0  0  0
 45 87  1  0  0  0  0
 45 88  1  0  0  0  0
 45 89  1  0  0  0  0
 46 90  1  0  0  0  0
 46 91  1  0  0  0  0
 46 92  1  0  0  0  0
M  END
> <PUBCHEM_COMPOUND_CID>
513953
> <PUBCHEM_COMPOUND_CANONICALIZED>
1
> <PUBCHEM_CACTVS_COMPLEXITY>
1010
> <PUBCHEM_CACTVS_HBOND_ACCEPTOR>
9
> <PUBCHEM_CACTVS_HBOND_DONOR>
4
> <PUBCHEM_CACTVS_ROTATABLE_BOND>
18
> <PUBCHEM_CACTVS_SUBSKEYS>
AAADcfB/uABAAAAAAAAAAAAAAAAAAAAAAAAwYMAAAAAAAAABUAAAHgQQSAAADSzh2AYyz4LABgKIAiVSWHDCCBAgIgAIiJmObIkOdjKEsbuUcCBk1hGY6AeYyPCOoAQAAAAQAABACAAAACAAAAAAAAAAAA==
> <PUBCHEM_IUPAC_OPENEYE_NAME>
methyl N-[(1S)-2-[[(5S)-5-[(4-aminophenyl)sulfonyl-isobutyl-amino]-6-hydroxy-hexyl]amino]-1-[[2-(4-methoxyphenyl)phenyl]methyl]-2-oxo-ethyl]carbamate
> <PUBCHEM_IUPAC_CAS_NAME>
N-[(2S)-1-[[(5S)-5-[(4-aminophenyl)sulfonyl-(2-methylpropyl)amino]-6-hydroxyhexyl]amino]-3-[2-(4-methoxyphenyl)phenyl]-1-oxopropan-2-yl]carbamic acid methyl ester
> <PUBCHEM_IUPAC_NAME_MARKUP>
methyl <I>N</I>-[(2<I>S</I>)-1-[[(5<I>S</I>)-5-[(4-aminophenyl)sulfonyl-(2-methylpropyl)amino]-6-hydroxyhexyl]amino]-3-[2-(4-methoxyphenyl)phenyl]-1-oxopropan-2-yl]carbamate
> <PUBCHEM_IUPAC_NAME>
methyl N-[(2S)-1-[[(5S)-5-[(4-aminophenyl)sulfonyl-(2-methylpropyl)amino]-6-hydroxyhexyl]amino]-3-[2-(4-methoxyphenyl)phenyl]-1-oxopropan-2-yl]carbamate
> <PUBCHEM_IUPAC_SYSTEMATIC_NAME>
methyl N-[(2S)-1-[[(5S)-5-[(4-aminophenyl)sulfonyl-(2-methylpropyl)amino]-6-oxidanyl-hexyl]amino]-3-[2-(4-methoxyphenyl)phenyl]-1-oxidanylidene-propan-2-yl]carbamate
> <PUBCHEM_IUPAC_TRADITIONAL_NAME>
N-[(1S)-2-[[(5S)-6-hydroxy-5-[isobutyl(sulfanilyl)amino]hexyl]amino]-2-keto-1-[2-(4-methoxyphenyl)benzyl]ethyl]carbamic acid methyl ester
> <PUBCHEM_IUPAC_INCHI>
InChI=1S/C34H46N4O7S/c1-24(2)22-38(46(42,43)30-18-14-27(35)15-19-30)28(23-39)10-7-8-20-36-33(40)32(37-34(41)45-4)21-26-9-5-6-11-31(26)25-12-16-29(44-3)17-13-25/h5-6,9,11-19,24,28,32,39H,7-8,10,20-23,35H2,1-4H3,(H,36,40)(H,37,41)/t28-,32-/m0/s1
> <PUBCHEM_IUPAC_INCHIKEY>
XBWHEMLSXDNCJI-IUDBTDONSA-N
> <PUBCHEM_XLOGP3_AA>
4.8
> <PUBCHEM_EXACT_MASS>
654.30872099
> <PUBCHEM_MOLECULAR_FORMULA>
C34H46N4O7S
> <PUBCHEM_MOLECULAR_WEIGHT>
654.8
> <PUBCHEM_OPENEYE_CAN_SMILES>
CC(C)CN(C(CCCCNC(=O)C(CC1=CC=CC=C1C2=CC=C(C=C2)OC)NC(=O)OC)CO)S(=O)(=O)C3=CC=C(C=C3)N
> <PUBCHEM_OPENEYE_ISO_SMILES>
CC(C)CN([C@@H](CCCCNC(=O)[C@H](CC1=CC=CC=C1C2=CC=C(C=C2)OC)NC(=O)OC)CO)S(=O)(=O)C3=CC=C(C=C3)N
> <PUBCHEM_CACTVS_TPSA>
169
> <PUBCHEM_MONOISOTOPIC_WEIGHT>
654.30872099
> <PUBCHEM_TOTAL_CHARGE>
0
> <PUBCHEM_HEAVY_ATOM_COUNT>
46
> <PUBCHEM_ATOM_DEF_STEREO_COUNT>
2
> <PUBCHEM_ATOM_UDEF_STEREO_COUNT>
0
> <PUBCHEM_BOND_DEF_STEREO_COUNT>
0
> <PUBCHEM_BOND_UDEF_STEREO_COUNT>
0
> <PUBCHEM_ISOTOPIC_ATOM_COUNT>
0
> <PUBCHEM_COMPONENT_COUNT>
1
> <PUBCHEM_CACTVS_TAUTO_COUNT>
-1
> <PUBCHEM_COORDINATE_TYPE>
1
5
255
> <PUBCHEM_BONDANNOTATIONS>
26  11  6
20  24  8
20  25  8
24  29  8
25  30  8
29  31  8
30  31  8
32  33  8
32  34  8
33  36  8
34  38  8
35  40  8
35  41  8
36  39  8
38  39  8
40  42  8
41  43  8
42  44  8
43  44  8
13  9  5
$$$$
