513939
  -OEChem-10302200282D
 88 90  0     1  0  0  0  0  0999 V2000
   11.5263   -3.4573    0.0000 S   0  0  0  0  0  0  0  0  0  0  0  0
   12.3923   -1.9573    0.0000 O   0  0  0  0  0  0  0  0  0  0  0  0
   11.0263   -4.3234    0.0000 O   0  0  0  0  0  0  0  0  0  0  0  0
   12.0263   -2.5913    0.0000 O   0  0  0  0  0  0  0  0  0  0  0  0
    7.1962    1.0427    0.0000 O   0  0  0  0  0  0  0  0  0  0  0  0
    5.4641    3.0427    0.0000 O   0  0  0  0  0  0  0  0  0  0  0  0
    6.3301    1.5427    0.0000 O   0  0  0  0  0  0  0  0  0  0  0  0
    2.8660    2.5427    0.0000 O   0  0  0  0  0  0  0  0  0  0  0  0
   10.6603   -2.9573    0.0000 N   0  0  3  0  0  0  0  0  0  0  0  0
    8.9282    1.0427    0.0000 N   0  0  0  0  0  0  0  0  0  0  0  0
    7.1962    3.0427    0.0000 N   0  0  0  0  0  0  0  0  0  0  0  0
   14.9904   -5.4573    0.0000 N   0  0  0  0  0  0  0  0  0  0  0  0
   10.6603   -1.9573    0.0000 C   0  0  1  0  0  0  0  0  0  0  0  0
    9.7942   -1.4573    0.0000 C   0  0  0  0  0  0  0  0  0  0  0  0
    9.7942   -3.4573    0.0000 C   0  0  0  0  0  0  0  0  0  0  0  0
    8.9282   -2.9573    0.0000 C   0  0  0  0  0  0  0  0  0  0  0  0
    9.7942   -0.4573    0.0000 C   0  0  0  0  0  0  0  0  0  0  0  0
   11.5263   -1.4573    0.0000 C   0  0  0  0  0  0  0  0  0  0  0  0
    8.9282    0.0427    0.0000 C   0  0  0  0  0  0  0  0  0  0  0  0
   12.3923   -3.9573    0.0000 C   0  0  0  0  0  0  0  0  0  0  0  0
    8.0622   -3.4573    0.0000 C   0  0  0  0  0  0  0  0  0  0  0  0
    8.9282   -1.9573    0.0000 C   0  0  0  0  0  0  0  0  0  0  0  0
    8.0622    2.5427    0.0000 C   0  0  2  0  0  0  0  0  0  0  0  0
   13.2583   -3.4573    0.0000 C   0  0  0  0  0  0  0  0  0  0  0  0
   12.3923   -4.9573    0.0000 C   0  0  0  0  0  0  0  0  0  0  0  0
    8.0622    1.5427    0.0000 C   0  0  0  0  0  0  0  0  0  0  0  0
    8.9282    3.0427    0.0000 C   0  0  0  0  0  0  0  0  0  0  0  0
    8.9282    4.0427    0.0000 C   0  0  0  0  0  0  0  0  0  0  0  0
   14.1244   -3.9573    0.0000 C   0  0  0  0  0  0  0  0  0  0  0  0
   13.2583   -5.4573    0.0000 C   0  0  0  0  0  0  0  0  0  0  0  0
   14.1244   -4.9573    0.0000 C   0  0  0  0  0  0  0  0  0  0  0  0
    9.7942    4.5427    0.0000 C   0  0  0  0  0  0  0  0  0  0  0  0
    8.0622    4.5427    0.0000 C   0  0  0  0  0  0  0  0  0  0  0  0
    9.7942    5.5427    0.0000 C   0  0  0  0  0  0  0  0  0  0  0  0
   10.6882    4.0080    0.0000 C   0  0  0  0  0  0  0  0  0  0  0  0
    8.0622    5.5427    0.0000 C   0  0  0  0  0  0  0  0  0  0  0  0
    8.9282    6.0427    0.0000 C   0  0  0  0  0  0  0  0  0  0  0  0
    6.3301    2.5427    0.0000 C   0  0  0  0  0  0  0  0  0  0  0  0
   10.6882    6.0773    0.0000 C   0  0  0  0  0  0  0  0  0  0  0  0
   11.5942    4.5218    0.0000 C   0  0  0  0  0  0  0  0  0  0  0  0
   11.5942    5.5635    0.0000 C   0  0  0  0  0  0  0  0  0  0  0  0
    4.5981    2.5427    0.0000 C   0  0  0  0  0  0  0  0  0  0  0  0
    3.7320    3.0427    0.0000 C   0  0  0  0  0  0  0  0  0  0  0  0
    2.0000    3.0427    0.0000 C   0  0  0  0  0  0  0  0  0  0  0  0
   11.1972   -2.2673    0.0000 H   0  0  0  0  0  0  0  0  0  0  0  0
    9.1836   -1.3497    0.0000 H   0  0  0  0  0  0  0  0  0  0  0  0
    9.5822   -2.0399    0.0000 H   0  0  0  0  0  0  0  0  0  0  0  0
    9.3957   -3.9323    0.0000 H   0  0  0  0  0  0  0  0  0  0  0  0
   10.1928   -3.9323    0.0000 H   0  0  0  0  0  0  0  0  0  0  0  0
    9.4651   -2.6473    0.0000 H   0  0  0  0  0  0  0  0  0  0  0  0
   10.4048   -0.5650    0.0000 H   0  0  0  0  0  0  0  0  0  0  0  0
   10.0063    0.1253    0.0000 H   0  0  0  0  0  0  0  0  0  0  0  0
   11.9248   -0.9824    0.0000 H   0  0  0  0  0  0  0  0  0  0  0  0
   11.1278   -0.9824    0.0000 H   0  0  0  0  0  0  0  0  0  0  0  0
    8.3176    0.1503    0.0000 H   0  0  0  0  0  0  0  0  0  0  0  0
    8.7162   -0.5399    0.0000 H   0  0  0  0  0  0  0  0  0  0  0  0
    7.7522   -2.9204    0.0000 H   0  0  0  0  0  0  0  0  0  0  0  0
    7.5252   -3.7673    0.0000 H   0  0  0  0  0  0  0  0  0  0  0  0
    8.3722   -3.9943    0.0000 H   0  0  0  0  0  0  0  0  0  0  0  0
    9.5482   -1.9573    0.0000 H   0  0  0  0  0  0  0  0  0  0  0  0
    8.9282   -1.3373    0.0000 H   0  0  0  0  0  0  0  0  0  0  0  0
    8.3082   -1.9573    0.0000 H   0  0  0  0  0  0  0  0  0  0  0  0
    9.4651    1.3527    0.0000 H   0  0  0  0  0  0  0  0  0  0  0  0
   12.9292   -1.6473    0.0000 H   0  0  0  0  0  0  0  0  0  0  0  0
    8.0622    3.1627    0.0000 H   0  0  0  0  0  0  0  0  0  0  0  0
   13.2583   -2.8373    0.0000 H   0  0  0  0  0  0  0  0  0  0  0  0
   11.8554   -5.2673    0.0000 H   0  0  0  0  0  0  0  0  0  0  0  0
    9.1403    2.4601    0.0000 H   0  0  0  0  0  0  0  0  0  0  0  0
    9.5388    3.1503    0.0000 H   0  0  0  0  0  0  0  0  0  0  0  0
   14.6613   -3.6473    0.0000 H   0  0  0  0  0  0  0  0  0  0  0  0
   13.2583   -6.0773    0.0000 H   0  0  0  0  0  0  0  0  0  0  0  0
    7.1962    3.6627    0.0000 H   0  0  0  0  0  0  0  0  0  0  0  0
    7.5252    4.2327    0.0000 H   0  0  0  0  0  0  0  0  0  0  0  0
   10.6810    3.3880    0.0000 H   0  0  0  0  0  0  0  0  0  0  0  0
    7.5252    5.8527    0.0000 H   0  0  0  0  0  0  0  0  0  0  0  0
    8.9282    6.6627    0.0000 H   0  0  0  0  0  0  0  0  0  0  0  0
   14.9904   -6.0773    0.0000 H   0  0  0  0  0  0  0  0  0  0  0  0
   15.5273   -5.1473    0.0000 H   0  0  0  0  0  0  0  0  0  0  0  0
   10.6810    6.6973    0.0000 H   0  0  0  0  0  0  0  0  0  0  0  0
   12.1300    4.2098    0.0000 H   0  0  0  0  0  0  0  0  0  0  0  0
   12.1300    5.8755    0.0000 H   0  0  0  0  0  0  0  0  0  0  0  0
    4.1996    2.0677    0.0000 H   0  0  0  0  0  0  0  0  0  0  0  0
    4.9966    2.0677    0.0000 H   0  0  0  0  0  0  0  0  0  0  0  0
    4.1306    3.5176    0.0000 H   0  0  0  0  0  0  0  0  0  0  0  0
    3.3335    3.5176    0.0000 H   0  0  0  0  0  0  0  0  0  0  0  0
    2.3100    3.5796    0.0000 H   0  0  0  0  0  0  0  0  0  0  0  0
    1.4631    3.3527    0.0000 H   0  0  0  0  0  0  0  0  0  0  0  0
    1.6900    2.5057    0.0000 H   0  0  0  0  0  0  0  0  0  0  0  0
  1  3  2  0  0  0  0
  1  4  2  0  0  0  0
  1  9  1  0  0  0  0
  1 20  1  0  0  0  0
  2 18  1  0  0  0  0
  2 64  1  0  0  0  0
  5 26  2  0  0  0  0
  6 38  1  0  0  0  0
  6 42  1  0  0  0  0
  7 38  2  0  0  0  0
  8 43  1  0  0  0  0
  8 44  1  0  0  0  0
 13  9  1  1  0  0  0
  9 15  1  0  0  0  0
 10 19  1  0  0  0  0
 10 26  1  0  0  0  0
 10 63  1  0  0  0  0
 23 11  1  1  0  0  0
 11 38  1  0  0  0  0
 11 72  1  0  0  0  0
 12 31  1  0  0  0  0
 12 77  1  0  0  0  0
 12 78  1  0  0  0  0
 13 14  1  0  0  0  0
 13 18  1  0  0  0  0
 13 45  1  0  0  0  0
 14 17  1  0  0  0  0
 14 46  1  0  0  0  0
 14 47  1  0  0  0  0
 15 16  1  0  0  0  0
 15 48  1  0  0  0  0
 15 49  1  0  0  0  0
 16 21  1  0  0  0  0
 16 22  1  0  0  0  0
 16 50  1  0  0  0  0
 17 19  1  0  0  0  0
 17 51  1  0  0  0  0
 17 52  1  0  0  0  0
 18 53  1  0  0  0  0
 18 54  1  0  0  0  0
 19 55  1  0  0  0  0
 19 56  1  0  0  0  0
 20 24  2  0  0  0  0
 20 25  1  0  0  0  0
 21 57  1  0  0  0  0
 21 58  1  0  0  0  0
 21 59  1  0  0  0  0
 22 60  1  0  0  0  0
 22 61  1  0  0  0  0
 22 62  1  0  0  0  0
 23 26  1  0  0  0  0
 23 27  1  0  0  0  0
 23 65  1  0  0  0  0
 24 29  1  0  0  0  0
 24 66  1  0  0  0  0
 25 30  2  0  0  0  0
 25 67  1  0  0  0  0
 27 28  1  0  0  0  0
 27 68  1  0  0  0  0
 27 69  1  0  0  0  0
 28 32  1  0  0  0  0
 28 33  2  0  0  0  0
 29 31  2  0  0  0  0
 29 70  1  0  0  0  0
 30 31  1  0  0  0  0
 30 71  1  0  0  0  0
 32 34  1  0  0  0  0
 32 35  2  0  0  0  0
 33 36  1  0  0  0  0
 33 73  1  0  0  0  0
 34 37  1  0  0  0  0
 34 39  2  0  0  0  0
 35 40  1  0  0  0  0
 35 74  1  0  0  0  0
 36 37  2  0  0  0  0
 36 75  1  0  0  0  0
 37 76  1  0  0  0  0
 39 41  1  0  0  0  0
 39 79  1  0  0  0  0
 40 41  2  0  0  0  0
 40 80  1  0  0  0  0
 41 81  1  0  0  0  0
 42 43  1  0  0  0  0
 42 82  1  0  0  0  0
 42 83  1  0  0  0  0
 43 84  1  0  0  0  0
 43 85  1  0  0  0  0
 44 86  1  0  0  0  0
 44 87  1  0  0  0  0
 44 88  1  0  0  0  0
M  END
> <PUBCHEM_COMPOUND_CID>
513939
> <PUBCHEM_COMPOUND_CANONICALIZED>
1
> <PUBCHEM_CACTVS_COMPLEXITY>
968
> <PUBCHEM_CACTVS_HBOND_ACCEPTOR>
9
> <PUBCHEM_CACTVS_HBOND_DONOR>
4
> <PUBCHEM_CACTVS_ROTATABLE_BOND>
18
> <PUBCHEM_CACTVS_SUBSKEYS>
AAADcfB/uABAAAAAAAAAAAAAAAAAAAAAAAAwYMAAAAAAAADBVAAAHgQQSAAADSjh2AYyycLABgKIAiVSWHDCABAgAgAIiJmIZIkLcDKAkbGcYABklgCayAeYmMKOgAQCAAAQAAAACAQAACAAAAAAAAAAAA==
> <PUBCHEM_IUPAC_OPENEYE_NAME>
2-methoxyethyl N-[(1S)-2-[[(4S)-4-[(4-aminophenyl)sulfonyl-isobutyl-amino]-5-hydroxy-pentyl]amino]-1-(1-naphthylmethyl)-2-oxo-ethyl]carbamate
> <PUBCHEM_IUPAC_CAS_NAME>
N-[(2S)-1-[[(4S)-4-[(4-aminophenyl)sulfonyl-(2-methylpropyl)amino]-5-hydroxypentyl]amino]-3-(1-naphthalenyl)-1-oxopropan-2-yl]carbamic acid 2-methoxyethyl ester
> <PUBCHEM_IUPAC_NAME_MARKUP>
2-methoxyethyl <I>N</I>-[(2<I>S</I>)-1-[[(4<I>S</I>)-4-[(4-aminophenyl)sulfonyl-(2-methylpropyl)amino]-5-hydroxypentyl]amino]-3-naphthalen-1-yl-1-oxopropan-2-yl]carbamate
> <PUBCHEM_IUPAC_NAME>
2-methoxyethyl N-[(2S)-1-[[(4S)-4-[(4-aminophenyl)sulfonyl-(2-methylpropyl)amino]-5-hydroxypentyl]amino]-3-naphthalen-1-yl-1-oxopropan-2-yl]carbamate
> <PUBCHEM_IUPAC_SYSTEMATIC_NAME>
2-methoxyethyl N-[(2S)-1-[[(4S)-4-[(4-aminophenyl)sulfonyl-(2-methylpropyl)amino]-5-oxidanyl-pentyl]amino]-3-naphthalen-1-yl-1-oxidanylidene-propan-2-yl]carbamate
> <PUBCHEM_IUPAC_TRADITIONAL_NAME>
N-[(1S)-2-[[(4S)-5-hydroxy-4-[isobutyl(sulfanilyl)amino]pentyl]amino]-2-keto-1-(1-naphthylmethyl)ethyl]carbamic acid 2-methoxyethyl ester
> <PUBCHEM_IUPAC_INCHI>
InChI=1S/C32H44N4O7S/c1-23(2)21-36(44(40,41)28-15-13-26(33)14-16-28)27(22-37)11-7-17-34-31(38)30(35-32(39)43-19-18-42-3)20-25-10-6-9-24-8-4-5-12-29(24)25/h4-6,8-10,12-16,23,27,30,37H,7,11,17-22,33H2,1-3H3,(H,34,38)(H,35,39)/t27-,30-/m0/s1
> <PUBCHEM_IUPAC_INCHIKEY>
FFISTDKYNKEUJV-FIBWVYCGSA-N
> <PUBCHEM_XLOGP3_AA>
4
> <PUBCHEM_EXACT_MASS>
628.29307093
> <PUBCHEM_MOLECULAR_FORMULA>
C32H44N4O7S
> <PUBCHEM_MOLECULAR_WEIGHT>
628.8
> <PUBCHEM_OPENEYE_CAN_SMILES>
CC(C)CN(C(CCCNC(=O)C(CC1=CC=CC2=CC=CC=C21)NC(=O)OCCOC)CO)S(=O)(=O)C3=CC=C(C=C3)N
> <PUBCHEM_OPENEYE_ISO_SMILES>
CC(C)CN([C@@H](CCCNC(=O)[C@H](CC1=CC=CC2=CC=CC=C21)NC(=O)OCCOC)CO)S(=O)(=O)C3=CC=C(C=C3)N
> <PUBCHEM_CACTVS_TPSA>
169
> <PUBCHEM_MONOISOTOPIC_WEIGHT>
628.29307093
> <PUBCHEM_TOTAL_CHARGE>
0
> <PUBCHEM_HEAVY_ATOM_COUNT>
44
> <PUBCHEM_ATOM_DEF_STEREO_COUNT>
2
> <PUBCHEM_ATOM_UDEF_STEREO_COUNT>
0
> <PUBCHEM_BOND_DEF_STEREO_COUNT>
0
> <PUBCHEM_BOND_UDEF_STEREO_COUNT>
0
> <PUBCHEM_ISOTOPIC_ATOM_COUNT>
0
> <PUBCHEM_COMPONENT_COUNT>
1
> <PUBCHEM_CACTVS_TAUTO_COUNT>
-1
> <PUBCHEM_COORDINATE_TYPE>
1
5
255
> <PUBCHEM_BONDANNOTATIONS>
23  11  5
20  24  8
20  25  8
24  29  8
25  30  8
28  32  8
28  33  8
29  31  8
30  31  8
32  34  8
32  35  8
33  36  8
34  37  8
34  39  8
35  40  8
36  37  8
39  41  8
40  41  8
13  9  5
$$$$
