513950
  -OEChem-10302200282D
 84 86  0     1  0  0  0  0  0999 V2000
    8.9282   -3.1123    0.0000 S   0  0  0  0  0  0  0  0  0  0  0  0
    6.3301   -1.6123    0.0000 O   0  0  0  0  0  0  0  0  0  0  0  0
    9.9282   -3.1123    0.0000 O   0  0  0  0  0  0  0  0  0  0  0  0
    7.9282   -3.1123    0.0000 O   0  0  0  0  0  0  0  0  0  0  0  0
    4.5981    2.3877    0.0000 O   0  0  0  0  0  0  0  0  0  0  0  0
    2.8660    4.3877    0.0000 O   0  0  0  0  0  0  0  0  0  0  0  0
    3.7320    2.8877    0.0000 O   0  0  0  0  0  0  0  0  0  0  0  0
    8.9282   -2.1123    0.0000 N   0  0  3  0  0  0  0  0  0  0  0  0
    6.3301    2.3877    0.0000 N   0  0  0  0  0  0  0  0  0  0  0  0
    4.5981    4.3877    0.0000 N   0  0  0  0  0  0  0  0  0  0  0  0
    8.9282   -7.1123    0.0000 N   0  0  0  0  0  0  0  0  0  0  0  0
    8.0622   -1.6123    0.0000 C   0  0  1  0  0  0  0  0  0  0  0  0
    8.0622   -0.6123    0.0000 C   0  0  0  0  0  0  0  0  0  0  0  0
    9.7942   -1.6123    0.0000 C   0  0  0  0  0  0  0  0  0  0  0  0
    7.1962   -0.1123    0.0000 C   0  0  0  0  0  0  0  0  0  0  0  0
    9.7942   -0.6123    0.0000 C   0  0  0  0  0  0  0  0  0  0  0  0
    7.1962   -2.1123    0.0000 C   0  0  0  0  0  0  0  0  0  0  0  0
    7.1962    0.8877    0.0000 C   0  0  0  0  0  0  0  0  0  0  0  0
    8.9282   -4.1123    0.0000 C   0  0  0  0  0  0  0  0  0  0  0  0
   10.6603   -0.1123    0.0000 C   0  0  0  0  0  0  0  0  0  0  0  0
    8.9282   -0.1123    0.0000 C   0  0  0  0  0  0  0  0  0  0  0  0
    6.3301    1.3877    0.0000 C   0  0  0  0  0  0  0  0  0  0  0  0
    9.7942   -4.6123    0.0000 C   0  0  0  0  0  0  0  0  0  0  0  0
    8.0622   -4.6123    0.0000 C   0  0  0  0  0  0  0  0  0  0  0  0
    5.4641    3.8877    0.0000 C   0  0  2  0  0  0  0  0  0  0  0  0
    5.4641    2.8877    0.0000 C   0  0  0  0  0  0  0  0  0  0  0  0
    6.3301    4.3877    0.0000 C   0  0  0  0  0  0  0  0  0  0  0  0
    9.7942   -5.6123    0.0000 C   0  0  0  0  0  0  0  0  0  0  0  0
    8.0622   -5.6123    0.0000 C   0  0  0  0  0  0  0  0  0  0  0  0
    6.3301    5.3877    0.0000 C   0  0  0  0  0  0  0  0  0  0  0  0
    8.9282   -6.1123    0.0000 C   0  0  0  0  0  0  0  0  0  0  0  0
    7.1962    5.8877    0.0000 C   0  0  0  0  0  0  0  0  0  0  0  0
    5.4641    5.8877    0.0000 C   0  0  0  0  0  0  0  0  0  0  0  0
    7.1962    6.8877    0.0000 C   0  0  0  0  0  0  0  0  0  0  0  0
    8.0901    5.3530    0.0000 C   0  0  0  0  0  0  0  0  0  0  0  0
    5.4641    6.8877    0.0000 C   0  0  0  0  0  0  0  0  0  0  0  0
    6.3301    7.3877    0.0000 C   0  0  0  0  0  0  0  0  0  0  0  0
    3.7320    3.8877    0.0000 C   0  0  0  0  0  0  0  0  0  0  0  0
    8.0901    7.4223    0.0000 C   0  0  0  0  0  0  0  0  0  0  0  0
    8.9962    5.8668    0.0000 C   0  0  0  0  0  0  0  0  0  0  0  0
    8.9962    6.9085    0.0000 C   0  0  0  0  0  0  0  0  0  0  0  0
    2.0000    3.8877    0.0000 C   0  0  0  0  0  0  0  0  0  0  0  0
    8.0622   -2.2323    0.0000 H   0  0  0  0  0  0  0  0  0  0  0  0
    8.6728   -0.7200    0.0000 H   0  0  0  0  0  0  0  0  0  0  0  0
    8.2742   -0.0297    0.0000 H   0  0  0  0  0  0  0  0  0  0  0  0
   10.0063   -2.1949    0.0000 H   0  0  0  0  0  0  0  0  0  0  0  0
   10.4048   -1.5047    0.0000 H   0  0  0  0  0  0  0  0  0  0  0  0
    6.5856   -0.0047    0.0000 H   0  0  0  0  0  0  0  0  0  0  0  0
    6.9841   -0.6949    0.0000 H   0  0  0  0  0  0  0  0  0  0  0  0
    9.2573   -0.9223    0.0000 H   0  0  0  0  0  0  0  0  0  0  0  0
    6.7976   -2.5873    0.0000 H   0  0  0  0  0  0  0  0  0  0  0  0
    7.5947   -2.5873    0.0000 H   0  0  0  0  0  0  0  0  0  0  0  0
    7.8067    0.7800    0.0000 H   0  0  0  0  0  0  0  0  0  0  0  0
    7.4082    1.4703    0.0000 H   0  0  0  0  0  0  0  0  0  0  0  0
   10.9703   -0.6493    0.0000 H   0  0  0  0  0  0  0  0  0  0  0  0
   11.1972    0.1977    0.0000 H   0  0  0  0  0  0  0  0  0  0  0  0
   10.3503    0.4246    0.0000 H   0  0  0  0  0  0  0  0  0  0  0  0
    9.2382    0.4246    0.0000 H   0  0  0  0  0  0  0  0  0  0  0  0
    8.3913    0.1977    0.0000 H   0  0  0  0  0  0  0  0  0  0  0  0
    8.6182   -0.6493    0.0000 H   0  0  0  0  0  0  0  0  0  0  0  0
    5.7196    1.4953    0.0000 H   0  0  0  0  0  0  0  0  0  0  0  0
    6.1181    0.8051    0.0000 H   0  0  0  0  0  0  0  0  0  0  0  0
    5.7932   -1.9223    0.0000 H   0  0  0  0  0  0  0  0  0  0  0  0
    6.8671    2.6977    0.0000 H   0  0  0  0  0  0  0  0  0  0  0  0
   10.3312   -4.3023    0.0000 H   0  0  0  0  0  0  0  0  0  0  0  0
    7.5252   -4.3023    0.0000 H   0  0  0  0  0  0  0  0  0  0  0  0
    4.9272    3.5777    0.0000 H   0  0  0  0  0  0  0  0  0  0  0  0
    6.5422    3.8051    0.0000 H   0  0  0  0  0  0  0  0  0  0  0  0
    6.9407    4.4953    0.0000 H   0  0  0  0  0  0  0  0  0  0  0  0
   10.3312   -5.9223    0.0000 H   0  0  0  0  0  0  0  0  0  0  0  0
    7.5252   -5.9223    0.0000 H   0  0  0  0  0  0  0  0  0  0  0  0
    4.5981    5.0077    0.0000 H   0  0  0  0  0  0  0  0  0  0  0  0
    4.9272    5.5777    0.0000 H   0  0  0  0  0  0  0  0  0  0  0  0
    8.0829    4.7331    0.0000 H   0  0  0  0  0  0  0  0  0  0  0  0
    4.9272    7.1977    0.0000 H   0  0  0  0  0  0  0  0  0  0  0  0
    6.3301    8.0077    0.0000 H   0  0  0  0  0  0  0  0  0  0  0  0
    9.4651   -7.4223    0.0000 H   0  0  0  0  0  0  0  0  0  0  0  0
    8.3913   -7.4223    0.0000 H   0  0  0  0  0  0  0  0  0  0  0  0
    8.0829    8.0423    0.0000 H   0  0  0  0  0  0  0  0  0  0  0  0
    9.5319    5.5548    0.0000 H   0  0  0  0  0  0  0  0  0  0  0  0
    9.5319    7.2206    0.0000 H   0  0  0  0  0  0  0  0  0  0  0  0
    1.6900    4.4246    0.0000 H   0  0  0  0  0  0  0  0  0  0  0  0
    1.4631    3.5777    0.0000 H   0  0  0  0  0  0  0  0  0  0  0  0
    2.3100    3.3507    0.0000 H   0  0  0  0  0  0  0  0  0  0  0  0
  1  3  2  0  0  0  0
  1  4  2  0  0  0  0
  1  8  1  0  0  0  0
  1 19  1  0  0  0  0
  2 17  1  0  0  0  0
  2 63  1  0  0  0  0
  5 26  2  0  0  0  0
  6 38  1  0  0  0  0
  6 42  1  0  0  0  0
  7 38  2  0  0  0  0
 12  8  1  6  0  0  0
  8 14  1  0  0  0  0
  9 22  1  0  0  0  0
  9 26  1  0  0  0  0
  9 64  1  0  0  0  0
 25 10  1  1  0  0  0
 10 38  1  0  0  0  0
 10 72  1  0  0  0  0
 11 31  1  0  0  0  0
 11 77  1  0  0  0  0
 11 78  1  0  0  0  0
 12 13  1  0  0  0  0
 12 17  1  0  0  0  0
 12 43  1  0  0  0  0
 13 15  1  0  0  0  0
 13 44  1  0  0  0  0
 13 45  1  0  0  0  0
 14 16  1  0  0  0  0
 14 46  1  0  0  0  0
 14 47  1  0  0  0  0
 15 18  1  0  0  0  0
 15 48  1  0  0  0  0
 15 49  1  0  0  0  0
 16 20  1  0  0  0  0
 16 21  1  0  0  0  0
 16 50  1  0  0  0  0
 17 51  1  0  0  0  0
 17 52  1  0  0  0  0
 18 22  1  0  0  0  0
 18 53  1  0  0  0  0
 18 54  1  0  0  0  0
 19 23  2  0  0  0  0
 19 24  1  0  0  0  0
 20 55  1  0  0  0  0
 20 56  1  0  0  0  0
 20 57  1  0  0  0  0
 21 58  1  0  0  0  0
 21 59  1  0  0  0  0
 21 60  1  0  0  0  0
 22 61  1  0  0  0  0
 22 62  1  0  0  0  0
 23 28  1  0  0  0  0
 23 65  1  0  0  0  0
 24 29  2  0  0  0  0
 24 66  1  0  0  0  0
 25 26  1  0  0  0  0
 25 27  1  0  0  0  0
 25 67  1  0  0  0  0
 27 30  1  0  0  0  0
 27 68  1  0  0  0  0
 27 69  1  0  0  0  0
 28 31  2  0  0  0  0
 28 70  1  0  0  0  0
 29 31  1  0  0  0  0
 29 71  1  0  0  0  0
 30 32  1  0  0  0  0
 30 33  2  0  0  0  0
 32 34  1  0  0  0  0
 32 35  2  0  0  0  0
 33 36  1  0  0  0  0
 33 73  1  0  0  0  0
 34 37  1  0  0  0  0
 34 39  2  0  0  0  0
 35 40  1  0  0  0  0
 35 74  1  0  0  0  0
 36 37  2  0  0  0  0
 36 75  1  0  0  0  0
 37 76  1  0  0  0  0
 39 41  1  0  0  0  0
 39 79  1  0  0  0  0
 40 41  2  0  0  0  0
 40 80  1  0  0  0  0
 41 81  1  0  0  0  0
 42 82  1  0  0  0  0
 42 83  1  0  0  0  0
 42 84  1  0  0  0  0
M  END
> <PUBCHEM_COMPOUND_CID>
513950
> <PUBCHEM_COMPOUND_CANONICALIZED>
1
> <PUBCHEM_CACTVS_COMPLEXITY>
934
> <PUBCHEM_CACTVS_HBOND_ACCEPTOR>
8
> <PUBCHEM_CACTVS_HBOND_DONOR>
4
> <PUBCHEM_CACTVS_ROTATABLE_BOND>
16
> <PUBCHEM_CACTVS_SUBSKEYS>
AAADcfB7uABAAAAAAAAAAAAAAAAAAAAAAAAwYMAAAAAAAADBVAAAHgQQSAAADSjh2AYyycLABgKIAiVSWHDCABAgAgAIiJmIZIkKcDKAkbGUYABklgCYyAeYyMCOgAQCAAAQAAAACAQAACAAAAAAAAAAAA==
> <PUBCHEM_IUPAC_OPENEYE_NAME>
methyl N-[(1S)-2-[[(5S)-5-[(4-aminophenyl)sulfonyl-isobutyl-amino]-6-hydroxy-hexyl]amino]-1-(1-naphthylmethyl)-2-oxo-ethyl]carbamate
> <PUBCHEM_IUPAC_CAS_NAME>
N-[(2S)-1-[[(5S)-5-[(4-aminophenyl)sulfonyl-(2-methylpropyl)amino]-6-hydroxyhexyl]amino]-3-(1-naphthalenyl)-1-oxopropan-2-yl]carbamic acid methyl ester
> <PUBCHEM_IUPAC_NAME_MARKUP>
methyl <I>N</I>-[(2<I>S</I>)-1-[[(5<I>S</I>)-5-[(4-aminophenyl)sulfonyl-(2-methylpropyl)amino]-6-hydroxyhexyl]amino]-3-naphthalen-1-yl-1-oxopropan-2-yl]carbamate
> <PUBCHEM_IUPAC_NAME>
methyl N-[(2S)-1-[[(5S)-5-[(4-aminophenyl)sulfonyl-(2-methylpropyl)amino]-6-hydroxyhexyl]amino]-3-naphthalen-1-yl-1-oxopropan-2-yl]carbamate
> <PUBCHEM_IUPAC_SYSTEMATIC_NAME>
methyl N-[(2S)-1-[[(5S)-5-[(4-aminophenyl)sulfonyl-(2-methylpropyl)amino]-6-oxidanyl-hexyl]amino]-3-naphthalen-1-yl-1-oxidanylidene-propan-2-yl]carbamate
> <PUBCHEM_IUPAC_TRADITIONAL_NAME>
N-[(1S)-2-[[(5S)-6-hydroxy-5-[isobutyl(sulfanilyl)amino]hexyl]amino]-2-keto-1-(1-naphthylmethyl)ethyl]carbamic acid methyl ester
> <PUBCHEM_IUPAC_INCHI>
InChI=1S/C31H42N4O6S/c1-22(2)20-35(42(39,40)27-16-14-25(32)15-17-27)26(21-36)12-6-7-18-33-30(37)29(34-31(38)41-3)19-24-11-8-10-23-9-4-5-13-28(23)24/h4-5,8-11,13-17,22,26,29,36H,6-7,12,18-21,32H2,1-3H3,(H,33,37)(H,34,38)/t26-,29-/m0/s1
> <PUBCHEM_IUPAC_INCHIKEY>
XLHVKOYUGQVAOC-WNJJXGMVSA-N
> <PUBCHEM_XLOGP3_AA>
4.5
> <PUBCHEM_EXACT_MASS>
598.28250625
> <PUBCHEM_MOLECULAR_FORMULA>
C31H42N4O6S
> <PUBCHEM_MOLECULAR_WEIGHT>
598.8
> <PUBCHEM_OPENEYE_CAN_SMILES>
CC(C)CN(C(CCCCNC(=O)C(CC1=CC=CC2=CC=CC=C21)NC(=O)OC)CO)S(=O)(=O)C3=CC=C(C=C3)N
> <PUBCHEM_OPENEYE_ISO_SMILES>
CC(C)CN([C@@H](CCCCNC(=O)[C@H](CC1=CC=CC2=CC=CC=C21)NC(=O)OC)CO)S(=O)(=O)C3=CC=C(C=C3)N
> <PUBCHEM_CACTVS_TPSA>
159
> <PUBCHEM_MONOISOTOPIC_WEIGHT>
598.28250625
> <PUBCHEM_TOTAL_CHARGE>
0
> <PUBCHEM_HEAVY_ATOM_COUNT>
42
> <PUBCHEM_ATOM_DEF_STEREO_COUNT>
2
> <PUBCHEM_ATOM_UDEF_STEREO_COUNT>
0
> <PUBCHEM_BOND_DEF_STEREO_COUNT>
0
> <PUBCHEM_BOND_UDEF_STEREO_COUNT>
0
> <PUBCHEM_ISOTOPIC_ATOM_COUNT>
0
> <PUBCHEM_COMPONENT_COUNT>
1
> <PUBCHEM_CACTVS_TAUTO_COUNT>
-1
> <PUBCHEM_COORDINATE_TYPE>
1
5
255
> <PUBCHEM_BONDANNOTATIONS>
25  10  5
19  23  8
19  24  8
23  28  8
24  29  8
28  31  8
29  31  8
30  32  8
30  33  8
32  34  8
32  35  8
33  36  8
34  37  8
34  39  8
35  40  8
36  37  8
39  41  8
40  41  8
12  8  6
$$$$
