513983
  -OEChem-10302200282D
 86 88  0     1  0  0  0  0  0999 V2000
    3.7320    3.3450    0.0000 S   0  0  0  0  0  0  0  0  0  0  0  0
    5.4641   -7.6550    0.0000 F   0  0  0  0  0  0  0  0  0  0  0  0
    4.4641   -6.6550    0.0000 F   0  0  0  0  0  0  0  0  0  0  0  0
    6.4641   -6.6550    0.0000 F   0  0  0  0  0  0  0  0  0  0  0  0
    6.3301    1.8450    0.0000 O   0  0  0  0  0  0  0  0  0  0  0  0
    2.7320    3.3450    0.0000 O   0  0  0  0  0  0  0  0  0  0  0  0
    4.7320    3.3450    0.0000 O   0  0  0  0  0  0  0  0  0  0  0  0
    8.0622   -2.1550    0.0000 O   0  0  0  0  0  0  0  0  0  0  0  0
    7.1962   -5.6550    0.0000 O   0  0  0  0  0  0  0  0  0  0  0  0
    3.7320    2.3450    0.0000 N   0  0  3  0  0  0  0  0  0  0  0  0
    6.3301   -2.1550    0.0000 N   0  0  0  0  0  0  0  0  0  0  0  0
    6.3301   -4.1550    0.0000 N   0  0  0  0  0  0  0  0  0  0  0  0
    3.7320    7.3450    0.0000 N   0  0  0  0  0  0  0  0  0  0  0  0
    4.5981    1.8450    0.0000 C   0  0  1  0  0  0  0  0  0  0  0  0
    4.5981    0.8450    0.0000 C   0  0  0  0  0  0  0  0  0  0  0  0
    2.8660    1.8450    0.0000 C   0  0  0  0  0  0  0  0  0  0  0  0
    5.4641    0.3450    0.0000 C   0  0  0  0  0  0  0  0  0  0  0  0
    2.8660    0.8450    0.0000 C   0  0  0  0  0  0  0  0  0  0  0  0
    5.4641    2.3450    0.0000 C   0  0  0  0  0  0  0  0  0  0  0  0
    5.4641   -0.6550    0.0000 C   0  0  0  0  0  0  0  0  0  0  0  0
    3.7320    4.3450    0.0000 C   0  0  0  0  0  0  0  0  0  0  0  0
    2.0000    0.3450    0.0000 C   0  0  0  0  0  0  0  0  0  0  0  0
    3.7320    0.3450    0.0000 C   0  0  0  0  0  0  0  0  0  0  0  0
    6.3301   -1.1550    0.0000 C   0  0  0  0  0  0  0  0  0  0  0  0
    4.5981    4.8450    0.0000 C   0  0  0  0  0  0  0  0  0  0  0  0
    2.8660    4.8450    0.0000 C   0  0  0  0  0  0  0  0  0  0  0  0
    7.1962   -3.6550    0.0000 C   0  0  2  0  0  0  0  0  0  0  0  0
    7.1962   -2.6550    0.0000 C   0  0  0  0  0  0  0  0  0  0  0  0
    8.0622   -4.1550    0.0000 C   0  0  0  0  0  0  0  0  0  0  0  0
    4.5981    5.8450    0.0000 C   0  0  0  0  0  0  0  0  0  0  0  0
    2.8660    5.8450    0.0000 C   0  0  0  0  0  0  0  0  0  0  0  0
    3.7320    6.3450    0.0000 C   0  0  0  0  0  0  0  0  0  0  0  0
    8.9282   -3.6550    0.0000 C   0  0  0  0  0  0  0  0  0  0  0  0
    9.7942   -4.1550    0.0000 C   0  0  0  0  0  0  0  0  0  0  0  0
    8.9282   -2.6550    0.0000 C   0  0  0  0  0  0  0  0  0  0  0  0
   10.6603   -3.6550    0.0000 C   0  0  0  0  0  0  0  0  0  0  0  0
    6.3301   -5.1550    0.0000 C   0  0  0  0  0  0  0  0  0  0  0  0
   10.6603   -2.6550    0.0000 C   0  0  0  0  0  0  0  0  0  0  0  0
    9.7942   -2.1550    0.0000 C   0  0  0  0  0  0  0  0  0  0  0  0
    5.4641   -5.6550    0.0000 C   0  0  0  0  0  0  0  0  0  0  0  0
   11.5542   -4.1897    0.0000 C   0  0  0  0  0  0  0  0  0  0  0  0
   11.5542   -2.1203    0.0000 C   0  0  0  0  0  0  0  0  0  0  0  0
   12.4603   -3.6758    0.0000 C   0  0  0  0  0  0  0  0  0  0  0  0
   12.4603   -2.6342    0.0000 C   0  0  0  0  0  0  0  0  0  0  0  0
    5.4641   -6.6550    0.0000 C   0  0  0  0  0  0  0  0  0  0  0  0
    4.5981    2.4650    0.0000 H   0  0  0  0  0  0  0  0  0  0  0  0
    3.9875    0.9527    0.0000 H   0  0  0  0  0  0  0  0  0  0  0  0
    4.3860    0.2624    0.0000 H   0  0  0  0  0  0  0  0  0  0  0  0
    2.6540    2.4276    0.0000 H   0  0  0  0  0  0  0  0  0  0  0  0
    2.2554    1.7373    0.0000 H   0  0  0  0  0  0  0  0  0  0  0  0
    6.0747    0.2373    0.0000 H   0  0  0  0  0  0  0  0  0  0  0  0
    5.6762    0.9276    0.0000 H   0  0  0  0  0  0  0  0  0  0  0  0
    2.8660    0.2250    0.0000 H   0  0  0  0  0  0  0  0  0  0  0  0
    5.8626    2.8200    0.0000 H   0  0  0  0  0  0  0  0  0  0  0  0
    5.0656    2.8200    0.0000 H   0  0  0  0  0  0  0  0  0  0  0  0
    4.8535   -0.5473    0.0000 H   0  0  0  0  0  0  0  0  0  0  0  0
    5.2520   -1.2376    0.0000 H   0  0  0  0  0  0  0  0  0  0  0  0
    1.6900    0.8819    0.0000 H   0  0  0  0  0  0  0  0  0  0  0  0
    1.4631    0.0350    0.0000 H   0  0  0  0  0  0  0  0  0  0  0  0
    2.3100   -0.1919    0.0000 H   0  0  0  0  0  0  0  0  0  0  0  0
    3.4220   -0.1919    0.0000 H   0  0  0  0  0  0  0  0  0  0  0  0
    4.2690    0.0350    0.0000 H   0  0  0  0  0  0  0  0  0  0  0  0
    4.0420    0.8819    0.0000 H   0  0  0  0  0  0  0  0  0  0  0  0
    6.9407   -1.2627    0.0000 H   0  0  0  0  0  0  0  0  0  0  0  0
    6.5422   -0.5724    0.0000 H   0  0  0  0  0  0  0  0  0  0  0  0
    6.8671    2.1550    0.0000 H   0  0  0  0  0  0  0  0  0  0  0  0
    5.7932   -2.4650    0.0000 H   0  0  0  0  0  0  0  0  0  0  0  0
    5.1350    4.5350    0.0000 H   0  0  0  0  0  0  0  0  0  0  0  0
    2.3291    4.5350    0.0000 H   0  0  0  0  0  0  0  0  0  0  0  0
    6.6592   -3.3450    0.0000 H   0  0  0  0  0  0  0  0  0  0  0  0
    7.6636   -4.6300    0.0000 H   0  0  0  0  0  0  0  0  0  0  0  0
    8.4607   -4.6300    0.0000 H   0  0  0  0  0  0  0  0  0  0  0  0
    5.1350    6.1550    0.0000 H   0  0  0  0  0  0  0  0  0  0  0  0
    2.3291    6.1550    0.0000 H   0  0  0  0  0  0  0  0  0  0  0  0
    5.7932   -3.8450    0.0000 H   0  0  0  0  0  0  0  0  0  0  0  0
    9.7942   -4.7750    0.0000 H   0  0  0  0  0  0  0  0  0  0  0  0
    8.3913   -2.3450    0.0000 H   0  0  0  0  0  0  0  0  0  0  0  0
    9.7942   -1.5350    0.0000 H   0  0  0  0  0  0  0  0  0  0  0  0
    3.1951    7.6550    0.0000 H   0  0  0  0  0  0  0  0  0  0  0  0
    4.2690    7.6550    0.0000 H   0  0  0  0  0  0  0  0  0  0  0  0
    5.2520   -5.0724    0.0000 H   0  0  0  0  0  0  0  0  0  0  0  0
    4.8535   -5.7627    0.0000 H   0  0  0  0  0  0  0  0  0  0  0  0
   11.5470   -4.8096    0.0000 H   0  0  0  0  0  0  0  0  0  0  0  0
   11.5470   -1.5004    0.0000 H   0  0  0  0  0  0  0  0  0  0  0  0
   12.9960   -3.9879    0.0000 H   0  0  0  0  0  0  0  0  0  0  0  0
   12.9960   -2.3221    0.0000 H   0  0  0  0  0  0  0  0  0  0  0  0
  1  6  2  0  0  0  0
  1  7  2  0  0  0  0
  1 10  1  0  0  0  0
  1 21  1  0  0  0  0
  2 45  1  0  0  0  0
  3 45  1  0  0  0  0
  4 45  1  0  0  0  0
  5 19  1  0  0  0  0
  5 66  1  0  0  0  0
  8 28  2  0  0  0  0
  9 37  2  0  0  0  0
 14 10  1  6  0  0  0
 10 16  1  0  0  0  0
 11 24  1  0  0  0  0
 11 28  1  0  0  0  0
 11 67  1  0  0  0  0
 27 12  1  6  0  0  0
 12 37  1  0  0  0  0
 12 75  1  0  0  0  0
 13 32  1  0  0  0  0
 13 79  1  0  0  0  0
 13 80  1  0  0  0  0
 14 15  1  0  0  0  0
 14 19  1  0  0  0  0
 14 46  1  0  0  0  0
 15 17  1  0  0  0  0
 15 47  1  0  0  0  0
 15 48  1  0  0  0  0
 16 18  1  0  0  0  0
 16 49  1  0  0  0  0
 16 50  1  0  0  0  0
 17 20  1  0  0  0  0
 17 51  1  0  0  0  0
 17 52  1  0  0  0  0
 18 22  1  0  0  0  0
 18 23  1  0  0  0  0
 18 53  1  0  0  0  0
 19 54  1  0  0  0  0
 19 55  1  0  0  0  0
 20 24  1  0  0  0  0
 20 56  1  0  0  0  0
 20 57  1  0  0  0  0
 21 25  2  0  0  0  0
 21 26  1  0  0  0  0
 22 58  1  0  0  0  0
 22 59  1  0  0  0  0
 22 60  1  0  0  0  0
 23 61  1  0  0  0  0
 23 62  1  0  0  0  0
 23 63  1  0  0  0  0
 24 64  1  0  0  0  0
 24 65  1  0  0  0  0
 25 30  1  0  0  0  0
 25 68  1  0  0  0  0
 26 31  2  0  0  0  0
 26 69  1  0  0  0  0
 27 28  1  0  0  0  0
 27 29  1  0  0  0  0
 27 70  1  0  0  0  0
 29 33  1  0  0  0  0
 29 71  1  0  0  0  0
 29 72  1  0  0  0  0
 30 32  2  0  0  0  0
 30 73  1  0  0  0  0
 31 32  1  0  0  0  0
 31 74  1  0  0  0  0
 33 34  2  0  0  0  0
 33 35  1  0  0  0  0
 34 36  1  0  0  0  0
 34 76  1  0  0  0  0
 35 39  2  0  0  0  0
 35 77  1  0  0  0  0
 36 38  1  0  0  0  0
 36 41  2  0  0  0  0
 37 40  1  0  0  0  0
 38 39  1  0  0  0  0
 38 42  2  0  0  0  0
 39 78  1  0  0  0  0
 40 45  1  0  0  0  0
 40 81  1  0  0  0  0
 40 82  1  0  0  0  0
 41 43  1  0  0  0  0
 41 83  1  0  0  0  0
 42 44  1  0  0  0  0
 42 84  1  0  0  0  0
 43 44  2  0  0  0  0
 43 85  1  0  0  0  0
 44 86  1  0  0  0  0
M  END
> <PUBCHEM_COMPOUND_CID>
513983
> <PUBCHEM_COMPOUND_CANONICALIZED>
1
> <PUBCHEM_CACTVS_COMPLEXITY>
1030
> <PUBCHEM_CACTVS_HBOND_ACCEPTOR>
10
> <PUBCHEM_CACTVS_HBOND_DONOR>
4
> <PUBCHEM_CACTVS_ROTATABLE_BOND>
16
> <PUBCHEM_CACTVS_SUBSKEYS>
AAADcfB/uYBAAAAAAAAAAAAAAAAAAAAAAAAwYMAAAAAAAADBVAAAHwQQSAAADSjh2BYywcLAAgKIAiVSUHDCABAgAgAIiJmIZIgKcDKAkbGUYABklgCYyAeYyMCOwAQCAAAQAACACAQAACAAAAAAAAAAAA==
> <PUBCHEM_IUPAC_OPENEYE_NAME>
N-[(1S)-2-[[(5S)-5-[(4-aminophenyl)sulfonyl-isobutyl-amino]-6-hydroxy-hexyl]amino]-1-(2-naphthylmethyl)-2-oxo-ethyl]-3,3,3-trifluoro-propanamide
> <PUBCHEM_IUPAC_CAS_NAME>
N-[(2S)-1-[[(5S)-5-[(4-aminophenyl)sulfonyl-(2-methylpropyl)amino]-6-hydroxyhexyl]amino]-3-(2-naphthalenyl)-1-oxopropan-2-yl]-3,3,3-trifluoropropanamide
> <PUBCHEM_IUPAC_NAME_MARKUP>
<I>N</I>-[(2<I>S</I>)-1-[[(5<I>S</I>)-5-[(4-aminophenyl)sulfonyl-(2-methylpropyl)amino]-6-hydroxyhexyl]amino]-3-naphthalen-2-yl-1-oxopropan-2-yl]-3,3,3-trifluoropropanamide
> <PUBCHEM_IUPAC_NAME>
N-[(2S)-1-[[(5S)-5-[(4-aminophenyl)sulfonyl-(2-methylpropyl)amino]-6-hydroxyhexyl]amino]-3-naphthalen-2-yl-1-oxopropan-2-yl]-3,3,3-trifluoropropanamide
> <PUBCHEM_IUPAC_SYSTEMATIC_NAME>
N-[(2S)-1-[[(5S)-5-[(4-aminophenyl)sulfonyl-(2-methylpropyl)amino]-6-oxidanyl-hexyl]amino]-3-naphthalen-2-yl-1-oxidanylidene-propan-2-yl]-3,3,3-tris(fluoranyl)propanamide
> <PUBCHEM_IUPAC_TRADITIONAL_NAME>
3,3,3-trifluoro-N-[(1S)-2-[[(5S)-6-hydroxy-5-[isobutyl(sulfanilyl)amino]hexyl]amino]-2-keto-1-(2-naphthylmethyl)ethyl]propionamide
> <PUBCHEM_IUPAC_INCHI>
InChI=1S/C32H41F3N4O5S/c1-22(2)20-39(45(43,44)28-14-12-26(36)13-15-28)27(21-40)9-5-6-16-37-31(42)29(38-30(41)19-32(33,34)35)18-23-10-11-24-7-3-4-8-25(24)17-23/h3-4,7-8,10-15,17,22,27,29,40H,5-6,9,16,18-21,36H2,1-2H3,(H,37,42)(H,38,41)/t27-,29-/m0/s1
> <PUBCHEM_IUPAC_INCHIKEY>
QSRUBKWOFJNTNX-YTMVLYRLSA-N
> <PUBCHEM_XLOGP3_AA>
5.1
> <PUBCHEM_EXACT_MASS>
650.27497608
> <PUBCHEM_MOLECULAR_FORMULA>
C32H41F3N4O5S
> <PUBCHEM_MOLECULAR_WEIGHT>
650.8
> <PUBCHEM_OPENEYE_CAN_SMILES>
CC(C)CN(C(CCCCNC(=O)C(CC1=CC2=CC=CC=C2C=C1)NC(=O)CC(F)(F)F)CO)S(=O)(=O)C3=CC=C(C=C3)N
> <PUBCHEM_OPENEYE_ISO_SMILES>
CC(C)CN([C@@H](CCCCNC(=O)[C@H](CC1=CC2=CC=CC=C2C=C1)NC(=O)CC(F)(F)F)CO)S(=O)(=O)C3=CC=C(C=C3)N
> <PUBCHEM_CACTVS_TPSA>
150
> <PUBCHEM_MONOISOTOPIC_WEIGHT>
650.27497608
> <PUBCHEM_TOTAL_CHARGE>
0
> <PUBCHEM_HEAVY_ATOM_COUNT>
45
> <PUBCHEM_ATOM_DEF_STEREO_COUNT>
2
> <PUBCHEM_ATOM_UDEF_STEREO_COUNT>
0
> <PUBCHEM_BOND_DEF_STEREO_COUNT>
0
> <PUBCHEM_BOND_UDEF_STEREO_COUNT>
0
> <PUBCHEM_ISOTOPIC_ATOM_COUNT>
0
> <PUBCHEM_COMPONENT_COUNT>
1
> <PUBCHEM_CACTVS_TAUTO_COUNT>
-1
> <PUBCHEM_COORDINATE_TYPE>
1
5
255
> <PUBCHEM_BONDANNOTATIONS>
14  10  6
27  12  6
21  25  8
21  26  8
25  30  8
26  31  8
30  32  8
31  32  8
33  34  8
33  35  8
34  36  8
35  39  8
36  38  8
36  41  8
38  39  8
38  42  8
41  43  8
42  44  8
43  44  8
$$$$
