513967
  -OEChem-10302200282D
 95 98  0     1  0  0  0  0  0999 V2000
    6.3301    0.9827    0.0000 S   0  0  0  0  0  0  0  0  0  0  0  0
    8.9282    2.4827    0.0000 O   0  0  0  0  0  0  0  0  0  0  0  0
    5.8301    0.1166    0.0000 O   0  0  0  0  0  0  0  0  0  0  0  0
    6.8301    1.8487    0.0000 O   0  0  0  0  0  0  0  0  0  0  0  0
   14.9904   -4.0173    0.0000 O   0  0  0  0  0  0  0  0  0  0  0  0
   13.2583    1.9827    0.0000 O   0  0  0  0  0  0  0  0  0  0  0  0
    2.8660    2.9827    0.0000 O   0  0  0  0  0  0  0  0  0  0  0  0
   15.8564   -0.5173    0.0000 O   0  0  0  0  0  0  0  0  0  0  0  0
    7.1962    0.4827    0.0000 N   0  0  3  0  0  0  0  0  0  0  0  0
   12.3923    0.4827    0.0000 N   0  0  0  0  0  0  0  0  0  0  0  0
   14.1244   -0.5173    0.0000 N   0  0  0  0  0  0  0  0  0  0  0  0
   14.9904   -2.0173    0.0000 N   0  0  0  0  0  0  0  0  0  0  0  0
    8.0622    0.9827    0.0000 C   0  0  1  0  0  0  0  0  0  0  0  0
    8.9282    0.4827    0.0000 C   0  0  0  0  0  0  0  0  0  0  0  0
    7.1962   -0.5173    0.0000 C   0  0  0  0  0  0  0  0  0  0  0  0
    9.7942    0.9827    0.0000 C   0  0  0  0  0  0  0  0  0  0  0  0
    8.0622   -1.0173    0.0000 C   0  0  0  0  0  0  0  0  0  0  0  0
    8.0622    1.9827    0.0000 C   0  0  0  0  0  0  0  0  0  0  0  0
   10.6603    0.4827    0.0000 C   0  0  0  0  0  0  0  0  0  0  0  0
   11.5263    0.9827    0.0000 C   0  0  0  0  0  0  0  0  0  0  0  0
    5.4641    1.4827    0.0000 C   0  0  0  0  0  0  0  0  0  0  0  0
    8.0622   -2.0173    0.0000 C   0  0  0  0  0  0  0  0  0  0  0  0
    8.9282   -0.5173    0.0000 C   0  0  0  0  0  0  0  0  0  0  0  0
   14.1244    0.4827    0.0000 C   0  0  2  0  0  0  0  0  0  0  0  0
    4.5981    0.9827    0.0000 C   0  0  0  0  0  0  0  0  0  0  0  0
    5.4641    2.4827    0.0000 C   0  0  0  0  0  0  0  0  0  0  0  0
   13.2583    0.9827    0.0000 C   0  0  0  0  0  0  0  0  0  0  0  0
   14.9904    0.9827    0.0000 C   0  0  0  0  0  0  0  0  0  0  0  0
   14.9904    1.9827    0.0000 C   0  0  0  0  0  0  0  0  0  0  0  0
    3.7320    1.4827    0.0000 C   0  0  0  0  0  0  0  0  0  0  0  0
    4.5981    2.9827    0.0000 C   0  0  0  0  0  0  0  0  0  0  0  0
   14.9904   -1.0173    0.0000 C   0  0  0  0  0  0  0  0  0  0  0  0
   15.8564   -2.5173    0.0000 C   0  0  0  0  0  0  0  0  0  0  0  0
   14.1244   -2.5173    0.0000 C   0  0  0  0  0  0  0  0  0  0  0  0
    3.7320    2.4827    0.0000 C   0  0  0  0  0  0  0  0  0  0  0  0
   15.8564    2.4827    0.0000 C   0  0  0  0  0  0  0  0  0  0  0  0
   15.8564   -3.5173    0.0000 C   0  0  0  0  0  0  0  0  0  0  0  0
   14.1244   -3.5173    0.0000 C   0  0  0  0  0  0  0  0  0  0  0  0
   14.1244    2.4827    0.0000 C   0  0  0  0  0  0  0  0  0  0  0  0
   15.8564    3.4827    0.0000 C   0  0  0  0  0  0  0  0  0  0  0  0
   16.7503    1.9480    0.0000 C   0  0  0  0  0  0  0  0  0  0  0  0
   14.1244    3.4827    0.0000 C   0  0  0  0  0  0  0  0  0  0  0  0
   14.9904    3.9827    0.0000 C   0  0  0  0  0  0  0  0  0  0  0  0
   16.7503    4.0173    0.0000 C   0  0  0  0  0  0  0  0  0  0  0  0
   17.6564    2.4618    0.0000 C   0  0  0  0  0  0  0  0  0  0  0  0
   17.6564    3.5035    0.0000 C   0  0  0  0  0  0  0  0  0  0  0  0
    2.0000    2.4827    0.0000 C   0  0  0  0  0  0  0  0  0  0  0  0
    8.0622    0.3627    0.0000 H   0  0  0  0  0  0  0  0  0  0  0  0
    8.5297    0.0077    0.0000 H   0  0  0  0  0  0  0  0  0  0  0  0
    9.3267    0.0077    0.0000 H   0  0  0  0  0  0  0  0  0  0  0  0
    6.5856   -0.4097    0.0000 H   0  0  0  0  0  0  0  0  0  0  0  0
    6.9841   -1.0999    0.0000 H   0  0  0  0  0  0  0  0  0  0  0  0
   10.1928    1.4576    0.0000 H   0  0  0  0  0  0  0  0  0  0  0  0
    9.3957    1.4576    0.0000 H   0  0  0  0  0  0  0  0  0  0  0  0
    8.0622   -0.3973    0.0000 H   0  0  0  0  0  0  0  0  0  0  0  0
    7.8501    2.5653    0.0000 H   0  0  0  0  0  0  0  0  0  0  0  0
    7.4516    1.8750    0.0000 H   0  0  0  0  0  0  0  0  0  0  0  0
   10.2617    0.0077    0.0000 H   0  0  0  0  0  0  0  0  0  0  0  0
   11.0588    0.0077    0.0000 H   0  0  0  0  0  0  0  0  0  0  0  0
   11.9248    1.4576    0.0000 H   0  0  0  0  0  0  0  0  0  0  0  0
   11.1278    1.4576    0.0000 H   0  0  0  0  0  0  0  0  0  0  0  0
    7.4422   -2.0173    0.0000 H   0  0  0  0  0  0  0  0  0  0  0  0
    8.0622   -2.6373    0.0000 H   0  0  0  0  0  0  0  0  0  0  0  0
    8.6822   -2.0173    0.0000 H   0  0  0  0  0  0  0  0  0  0  0  0
    9.2382   -1.0543    0.0000 H   0  0  0  0  0  0  0  0  0  0  0  0
    9.4651   -0.2073    0.0000 H   0  0  0  0  0  0  0  0  0  0  0  0
    8.6182    0.0196    0.0000 H   0  0  0  0  0  0  0  0  0  0  0  0
   13.5874    0.1727    0.0000 H   0  0  0  0  0  0  0  0  0  0  0  0
   12.3923   -0.1373    0.0000 H   0  0  0  0  0  0  0  0  0  0  0  0
    8.9282    3.1027    0.0000 H   0  0  0  0  0  0  0  0  0  0  0  0
    4.5981    0.3627    0.0000 H   0  0  0  0  0  0  0  0  0  0  0  0
    6.0010    2.7927    0.0000 H   0  0  0  0  0  0  0  0  0  0  0  0
   15.2024    0.4001    0.0000 H   0  0  0  0  0  0  0  0  0  0  0  0
   15.6010    1.0903    0.0000 H   0  0  0  0  0  0  0  0  0  0  0  0
   13.5874   -0.8273    0.0000 H   0  0  0  0  0  0  0  0  0  0  0  0
    3.1951    1.1727    0.0000 H   0  0  0  0  0  0  0  0  0  0  0  0
    4.5981    3.6027    0.0000 H   0  0  0  0  0  0  0  0  0  0  0  0
   16.4670   -2.6250    0.0000 H   0  0  0  0  0  0  0  0  0  0  0  0
   16.0685   -1.9347    0.0000 H   0  0  0  0  0  0  0  0  0  0  0  0
   13.9123   -1.9347    0.0000 H   0  0  0  0  0  0  0  0  0  0  0  0
   13.5138   -2.6250    0.0000 H   0  0  0  0  0  0  0  0  0  0  0  0
   16.0685   -4.0999    0.0000 H   0  0  0  0  0  0  0  0  0  0  0  0
   16.4670   -3.4097    0.0000 H   0  0  0  0  0  0  0  0  0  0  0  0
   13.5138   -3.4097    0.0000 H   0  0  0  0  0  0  0  0  0  0  0  0
   13.9123   -4.0999    0.0000 H   0  0  0  0  0  0  0  0  0  0  0  0
   13.5874    2.1727    0.0000 H   0  0  0  0  0  0  0  0  0  0  0  0
   16.7432    1.3280    0.0000 H   0  0  0  0  0  0  0  0  0  0  0  0
   13.5874    3.7927    0.0000 H   0  0  0  0  0  0  0  0  0  0  0  0
   14.9904    4.6027    0.0000 H   0  0  0  0  0  0  0  0  0  0  0  0
   16.7432    4.6373    0.0000 H   0  0  0  0  0  0  0  0  0  0  0  0
   18.1922    2.1498    0.0000 H   0  0  0  0  0  0  0  0  0  0  0  0
   18.1922    3.8156    0.0000 H   0  0  0  0  0  0  0  0  0  0  0  0
    1.6900    3.0196    0.0000 H   0  0  0  0  0  0  0  0  0  0  0  0
    1.4631    2.1727    0.0000 H   0  0  0  0  0  0  0  0  0  0  0  0
    2.3100    1.9457    0.0000 H   0  0  0  0  0  0  0  0  0  0  0  0
  1  3  2  0  0  0  0
  1  4  2  0  0  0  0
  1  9  1  0  0  0  0
  1 21  1  0  0  0  0
  2 18  1  0  0  0  0
  2 70  1  0  0  0  0
  5 37  1  0  0  0  0
  5 38  1  0  0  0  0
  6 27  2  0  0  0  0
  7 35  1  0  0  0  0
  7 47  1  0  0  0  0
  8 32  2  0  0  0  0
 13  9  1  6  0  0  0
  9 15  1  0  0  0  0
 10 20  1  0  0  0  0
 10 27  1  0  0  0  0
 10 69  1  0  0  0  0
 24 11  1  6  0  0  0
 11 32  1  0  0  0  0
 11 75  1  0  0  0  0
 12 32  1  0  0  0  0
 12 33  1  0  0  0  0
 12 34  1  0  0  0  0
 13 14  1  0  0  0  0
 13 18  1  0  0  0  0
 13 48  1  0  0  0  0
 14 16  1  0  0  0  0
 14 49  1  0  0  0  0
 14 50  1  0  0  0  0
 15 17  1  0  0  0  0
 15 51  1  0  0  0  0
 15 52  1  0  0  0  0
 16 19  1  0  0  0  0
 16 53  1  0  0  0  0
 16 54  1  0  0  0  0
 17 22  1  0  0  0  0
 17 23  1  0  0  0  0
 17 55  1  0  0  0  0
 18 56  1  0  0  0  0
 18 57  1  0  0  0  0
 19 20  1  0  0  0  0
 19 58  1  0  0  0  0
 19 59  1  0  0  0  0
 20 60  1  0  0  0  0
 20 61  1  0  0  0  0
 21 25  2  0  0  0  0
 21 26  1  0  0  0  0
 22 62  1  0  0  0  0
 22 63  1  0  0  0  0
 22 64  1  0  0  0  0
 23 65  1  0  0  0  0
 23 66  1  0  0  0  0
 23 67  1  0  0  0  0
 24 27  1  0  0  0  0
 24 28  1  0  0  0  0
 24 68  1  0  0  0  0
 25 30  1  0  0  0  0
 25 71  1  0  0  0  0
 26 31  2  0  0  0  0
 26 72  1  0  0  0  0
 28 29  1  0  0  0  0
 28 73  1  0  0  0  0
 28 74  1  0  0  0  0
 29 36  1  0  0  0  0
 29 39  2  0  0  0  0
 30 35  2  0  0  0  0
 30 76  1  0  0  0  0
 31 35  1  0  0  0  0
 31 77  1  0  0  0  0
 33 37  1  0  0  0  0
 33 78  1  0  0  0  0
 33 79  1  0  0  0  0
 34 38  1  0  0  0  0
 34 80  1  0  0  0  0
 34 81  1  0  0  0  0
 36 40  1  0  0  0  0
 36 41  2  0  0  0  0
 37 82  1  0  0  0  0
 37 83  1  0  0  0  0
 38 84  1  0  0  0  0
 38 85  1  0  0  0  0
 39 42  1  0  0  0  0
 39 86  1  0  0  0  0
 40 43  1  0  0  0  0
 40 44  2  0  0  0  0
 41 45  1  0  0  0  0
 41 87  1  0  0  0  0
 42 43  2  0  0  0  0
 42 88  1  0  0  0  0
 43 89  1  0  0  0  0
 44 46  1  0  0  0  0
 44 90  1  0  0  0  0
 45 46  2  0  0  0  0
 45 91  1  0  0  0  0
 46 92  1  0  0  0  0
 47 93  1  0  0  0  0
 47 94  1  0  0  0  0
 47 95  1  0  0  0  0
M  END
> <PUBCHEM_COMPOUND_CID>
513967
> <PUBCHEM_COMPOUND_CANONICALIZED>
1
> <PUBCHEM_CACTVS_COMPLEXITY>
1060
> <PUBCHEM_CACTVS_HBOND_ACCEPTOR>
8
> <PUBCHEM_CACTVS_HBOND_DONOR>
3
> <PUBCHEM_CACTVS_ROTATABLE_BOND>
16
> <PUBCHEM_CACTVS_SUBSKEYS>
AAADcfB/uABAAAAAAAAAAAAAAAAAAAAAAAA8YMEAAAAAAADBVAAAHgQQSAAADSzh2AYzB8PABgKIAiFSEHBCCBAgIAAIiJmOCIiOdjKEsTuXcCAs1hOYqAeYyMCOgIACAAAQAAABAAQAACAAAAAAAAAAAA==
> <PUBCHEM_IUPAC_OPENEYE_NAME>
N-[(1S)-2-[[(5S)-6-hydroxy-5-[isobutyl-(4-methoxyphenyl)sulfonyl-amino]hexyl]amino]-1-(1-naphthylmethyl)-2-oxo-ethyl]morpholine-4-carboxamide
> <PUBCHEM_IUPAC_CAS_NAME>
N-[(2S)-1-[[(5S)-6-hydroxy-5-[(4-methoxyphenyl)sulfonyl-(2-methylpropyl)amino]hexyl]amino]-3-(1-naphthalenyl)-1-oxopropan-2-yl]-4-morpholinecarboxamide
> <PUBCHEM_IUPAC_NAME_MARKUP>
<I>N</I>-[(2<I>S</I>)-1-[[(5<I>S</I>)-6-hydroxy-5-[(4-methoxyphenyl)sulfonyl-(2-methylpropyl)amino]hexyl]amino]-3-naphthalen-1-yl-1-oxopropan-2-yl]morpholine-4-carboxamide
> <PUBCHEM_IUPAC_NAME>
N-[(2S)-1-[[(5S)-6-hydroxy-5-[(4-methoxyphenyl)sulfonyl-(2-methylpropyl)amino]hexyl]amino]-3-naphthalen-1-yl-1-oxopropan-2-yl]morpholine-4-carboxamide
> <PUBCHEM_IUPAC_SYSTEMATIC_NAME>
N-[(2S)-1-[[(5S)-5-[(4-methoxyphenyl)sulfonyl-(2-methylpropyl)amino]-6-oxidanyl-hexyl]amino]-3-naphthalen-1-yl-1-oxidanylidene-propan-2-yl]morpholine-4-carboxamide
> <PUBCHEM_IUPAC_TRADITIONAL_NAME>
N-[(1S)-2-[[(5S)-6-hydroxy-5-[isobutyl-(4-methoxyphenyl)sulfonyl-amino]hexyl]amino]-2-keto-1-(1-naphthylmethyl)ethyl]morpholine-4-carboxamide
> <PUBCHEM_IUPAC_INCHI>
InChI=1S/C35H48N4O7S/c1-26(2)24-39(47(43,44)31-16-14-30(45-3)15-17-31)29(25-40)12-6-7-18-36-34(41)33(37-35(42)38-19-21-46-22-20-38)23-28-11-8-10-27-9-4-5-13-32(27)28/h4-5,8-11,13-17,26,29,33,40H,6-7,12,18-25H2,1-3H3,(H,36,41)(H,37,42)/t29-,33-/m0/s1
> <PUBCHEM_IUPAC_INCHIKEY>
XIHRHJPSBGLHHO-ZQAZVOLISA-N
> <PUBCHEM_XLOGP3_AA>
4.4
> <PUBCHEM_EXACT_MASS>
668.32437106
> <PUBCHEM_MOLECULAR_FORMULA>
C35H48N4O7S
> <PUBCHEM_MOLECULAR_WEIGHT>
668.8
> <PUBCHEM_OPENEYE_CAN_SMILES>
CC(C)CN(C(CCCCNC(=O)C(CC1=CC=CC2=CC=CC=C21)NC(=O)N3CCOCC3)CO)S(=O)(=O)C4=CC=C(C=C4)OC
> <PUBCHEM_OPENEYE_ISO_SMILES>
CC(C)CN([C@@H](CCCCNC(=O)[C@H](CC1=CC=CC2=CC=CC=C21)NC(=O)N3CCOCC3)CO)S(=O)(=O)C4=CC=C(C=C4)OC
> <PUBCHEM_CACTVS_TPSA>
146
> <PUBCHEM_MONOISOTOPIC_WEIGHT>
668.32437106
> <PUBCHEM_TOTAL_CHARGE>
0
> <PUBCHEM_HEAVY_ATOM_COUNT>
47
> <PUBCHEM_ATOM_DEF_STEREO_COUNT>
2
> <PUBCHEM_ATOM_UDEF_STEREO_COUNT>
0
> <PUBCHEM_BOND_DEF_STEREO_COUNT>
0
> <PUBCHEM_BOND_UDEF_STEREO_COUNT>
0
> <PUBCHEM_ISOTOPIC_ATOM_COUNT>
0
> <PUBCHEM_COMPONENT_COUNT>
1
> <PUBCHEM_CACTVS_TAUTO_COUNT>
-1
> <PUBCHEM_COORDINATE_TYPE>
1
5
255
> <PUBCHEM_BONDANNOTATIONS>
24  11  6
21  25  8
21  26  8
25  30  8
26  31  8
29  36  8
29  39  8
30  35  8
31  35  8
36  40  8
36  41  8
39  42  8
40  43  8
40  44  8
41  45  8
42  43  8
44  46  8
45  46  8
13  9  6
$$$$
