513989
  -OEChem-10302200282D
 89 92  0     1  0  0  0  0  0999 V2000
   13.2583   -0.5490    0.0000 S   0  0  0  0  0  0  0  0  0  0  0  0
   10.6603   -2.0490    0.0000 O   0  0  0  0  0  0  0  0  0  0  0  0
   12.7583   -1.4151    0.0000 O   0  0  0  0  0  0  0  0  0  0  0  0
   13.7583    0.3170    0.0000 O   0  0  0  0  0  0  0  0  0  0  0  0
   16.8026   -0.7443    0.0000 O   0  0  0  0  0  0  0  0  0  0  0  0
   16.8026   -2.3538    0.0000 O   0  0  0  0  0  0  0  0  0  0  0  0
    6.3301   -1.5490    0.0000 O   0  0  0  0  0  0  0  0  0  0  0  0
    5.4641    2.6830    0.0000 O   0  0  0  0  0  0  0  0  0  0  0  0
    6.9641    1.8170    0.0000 O   0  0  0  0  0  0  0  0  0  0  0  0
   12.3923   -0.0490    0.0000 N   0  0  3  0  0  0  0  0  0  0  0  0
    7.1962   -0.0490    0.0000 N   0  0  0  0  0  0  0  0  0  0  0  0
    5.4641    0.9510    0.0000 N   0  0  0  0  0  0  0  0  0  0  0  0
   11.5263   -0.5490    0.0000 C   0  0  1  0  0  0  0  0  0  0  0  0
   10.6603   -0.0490    0.0000 C   0  0  0  0  0  0  0  0  0  0  0  0
   12.3923    0.9510    0.0000 C   0  0  0  0  0  0  0  0  0  0  0  0
    9.7942   -0.5490    0.0000 C   0  0  0  0  0  0  0  0  0  0  0  0
   11.5263    1.4510    0.0000 C   0  0  0  0  0  0  0  0  0  0  0  0
   11.5263   -1.5490    0.0000 C   0  0  0  0  0  0  0  0  0  0  0  0
    8.9282   -0.0490    0.0000 C   0  0  0  0  0  0  0  0  0  0  0  0
   14.1244   -1.0490    0.0000 C   0  0  0  0  0  0  0  0  0  0  0  0
    8.0622   -0.5490    0.0000 C   0  0  0  0  0  0  0  0  0  0  0  0
   11.5263    2.4510    0.0000 C   0  0  0  0  0  0  0  0  0  0  0  0
   10.6603    0.9510    0.0000 C   0  0  0  0  0  0  0  0  0  0  0  0
    5.4641   -0.0490    0.0000 C   0  0  1  0  0  0  0  0  0  0  0  0
    4.5981   -0.5490    0.0000 C   0  0  0  0  0  0  0  0  0  0  0  0
   14.9904   -0.5490    0.0000 C   0  0  0  0  0  0  0  0  0  0  0  0
    6.3301   -0.5490    0.0000 C   0  0  0  0  0  0  0  0  0  0  0  0
   14.1244   -2.0490    0.0000 C   0  0  0  0  0  0  0  0  0  0  0  0
    3.7320   -0.0490    0.0000 C   0  0  0  0  0  0  0  0  0  0  0  0
    4.5981   -1.5490    0.0000 C   0  0  0  0  0  0  0  0  0  0  0  0
   15.8564   -1.0490    0.0000 C   0  0  0  0  0  0  0  0  0  0  0  0
   14.9904   -2.5490    0.0000 C   0  0  0  0  0  0  0  0  0  0  0  0
   15.8564   -2.0490    0.0000 C   0  0  0  0  0  0  0  0  0  0  0  0
    3.7320    0.9510    0.0000 C   0  0  0  0  0  0  0  0  0  0  0  0
    5.4641   -2.0490    0.0000 C   0  0  0  0  0  0  0  0  0  0  0  0
    2.8660   -0.5490    0.0000 C   0  0  0  0  0  0  0  0  0  0  0  0
    3.7320   -2.0490    0.0000 C   0  0  0  0  0  0  0  0  0  0  0  0
   17.3862   -1.5490    0.0000 C   0  0  0  0  0  0  0  0  0  0  0  0
    5.9641    1.8170    0.0000 C   0  0  0  0  0  0  0  0  0  0  0  0
    2.8660    1.4510    0.0000 C   0  0  0  0  0  0  0  0  0  0  0  0
    5.4641   -3.0490    0.0000 C   0  0  0  0  0  0  0  0  0  0  0  0
    2.0000   -0.0490    0.0000 C   0  0  0  0  0  0  0  0  0  0  0  0
    3.7320   -3.0490    0.0000 C   0  0  0  0  0  0  0  0  0  0  0  0
    2.0000    0.9510    0.0000 C   0  0  0  0  0  0  0  0  0  0  0  0
    4.5981   -3.5490    0.0000 C   0  0  0  0  0  0  0  0  0  0  0  0
    5.9641    3.5490    0.0000 C   0  0  0  0  0  0  0  0  0  0  0  0
   12.0632   -0.8590    0.0000 H   0  0  0  0  0  0  0  0  0  0  0  0
   11.0588    0.4259    0.0000 H   0  0  0  0  0  0  0  0  0  0  0  0
   10.2617    0.4259    0.0000 H   0  0  0  0  0  0  0  0  0  0  0  0
   13.0029    0.8433    0.0000 H   0  0  0  0  0  0  0  0  0  0  0  0
   12.6044    1.5336    0.0000 H   0  0  0  0  0  0  0  0  0  0  0  0
    9.3957   -1.0240    0.0000 H   0  0  0  0  0  0  0  0  0  0  0  0
   10.1928   -1.0240    0.0000 H   0  0  0  0  0  0  0  0  0  0  0  0
   10.9893    1.7610    0.0000 H   0  0  0  0  0  0  0  0  0  0  0  0
   11.7383   -2.1316    0.0000 H   0  0  0  0  0  0  0  0  0  0  0  0
   12.1369   -1.4414    0.0000 H   0  0  0  0  0  0  0  0  0  0  0  0
    9.3267    0.4259    0.0000 H   0  0  0  0  0  0  0  0  0  0  0  0
    8.5297    0.4259    0.0000 H   0  0  0  0  0  0  0  0  0  0  0  0
    7.6636   -1.0240    0.0000 H   0  0  0  0  0  0  0  0  0  0  0  0
    8.4607   -1.0240    0.0000 H   0  0  0  0  0  0  0  0  0  0  0  0
   12.1463    2.4510    0.0000 H   0  0  0  0  0  0  0  0  0  0  0  0
   11.5263    3.0710    0.0000 H   0  0  0  0  0  0  0  0  0  0  0  0
   10.9063    2.4510    0.0000 H   0  0  0  0  0  0  0  0  0  0  0  0
   10.3503    1.4879    0.0000 H   0  0  0  0  0  0  0  0  0  0  0  0
   10.1233    0.6410    0.0000 H   0  0  0  0  0  0  0  0  0  0  0  0
   10.9703    0.4140    0.0000 H   0  0  0  0  0  0  0  0  0  0  0  0
    6.0010    0.2610    0.0000 H   0  0  0  0  0  0  0  0  0  0  0  0
    4.5981    0.0710    0.0000 H   0  0  0  0  0  0  0  0  0  0  0  0
    7.5062    0.4879    0.0000 H   0  0  0  0  0  0  0  0  0  0  0  0
   14.9904    0.0710    0.0000 H   0  0  0  0  0  0  0  0  0  0  0  0
   13.5874   -2.3590    0.0000 H   0  0  0  0  0  0  0  0  0  0  0  0
   10.6603   -2.6690    0.0000 H   0  0  0  0  0  0  0  0  0  0  0  0
   14.9904   -3.1690    0.0000 H   0  0  0  0  0  0  0  0  0  0  0  0
    4.9272    1.2610    0.0000 H   0  0  0  0  0  0  0  0  0  0  0  0
    4.2690    1.2610    0.0000 H   0  0  0  0  0  0  0  0  0  0  0  0
    6.0010   -1.7390    0.0000 H   0  0  0  0  0  0  0  0  0  0  0  0
    2.8660   -1.1690    0.0000 H   0  0  0  0  0  0  0  0  0  0  0  0
    3.1951   -1.7390    0.0000 H   0  0  0  0  0  0  0  0  0  0  0  0
   17.8471   -1.9638    0.0000 H   0  0  0  0  0  0  0  0  0  0  0  0
   17.8471   -1.1343    0.0000 H   0  0  0  0  0  0  0  0  0  0  0  0
    2.8660    2.0710    0.0000 H   0  0  0  0  0  0  0  0  0  0  0  0
    6.0010   -3.3590    0.0000 H   0  0  0  0  0  0  0  0  0  0  0  0
    1.4631   -0.3590    0.0000 H   0  0  0  0  0  0  0  0  0  0  0  0
    3.1951   -3.3590    0.0000 H   0  0  0  0  0  0  0  0  0  0  0  0
    1.4631    1.2610    0.0000 H   0  0  0  0  0  0  0  0  0  0  0  0
    4.5981   -4.1690    0.0000 H   0  0  0  0  0  0  0  0  0  0  0  0
    6.5010    3.2390    0.0000 H   0  0  0  0  0  0  0  0  0  0  0  0
    6.2741    4.0860    0.0000 H   0  0  0  0  0  0  0  0  0  0  0  0
    5.4272    3.8590    0.0000 H   0  0  0  0  0  0  0  0  0  0  0  0
  1  3  2  0  0  0  0
  1  4  2  0  0  0  0
  1 10  1  0  0  0  0
  1 20  1  0  0  0  0
  2 18  1  0  0  0  0
  2 72  1  0  0  0  0
  5 31  1  0  0  0  0
  5 38  1  0  0  0  0
  6 33  1  0  0  0  0
  6 38  1  0  0  0  0
  7 27  2  0  0  0  0
  8 39  1  0  0  0  0
  8 46  1  0  0  0  0
  9 39  2  0  0  0  0
 13 10  1  6  0  0  0
 10 15  1  0  0  0  0
 11 21  1  0  0  0  0
 11 27  1  0  0  0  0
 11 69  1  0  0  0  0
 24 12  1  6  0  0  0
 12 39  1  0  0  0  0
 12 74  1  0  0  0  0
 13 14  1  0  0  0  0
 13 18  1  0  0  0  0
 13 47  1  0  0  0  0
 14 16  1  0  0  0  0
 14 48  1  0  0  0  0
 14 49  1  0  0  0  0
 15 17  1  0  0  0  0
 15 50  1  0  0  0  0
 15 51  1  0  0  0  0
 16 19  1  0  0  0  0
 16 52  1  0  0  0  0
 16 53  1  0  0  0  0
 17 22  1  0  0  0  0
 17 23  1  0  0  0  0
 17 54  1  0  0  0  0
 18 55  1  0  0  0  0
 18 56  1  0  0  0  0
 19 21  1  0  0  0  0
 19 57  1  0  0  0  0
 19 58  1  0  0  0  0
 20 26  2  0  0  0  0
 20 28  1  0  0  0  0
 21 59  1  0  0  0  0
 21 60  1  0  0  0  0
 22 61  1  0  0  0  0
 22 62  1  0  0  0  0
 22 63  1  0  0  0  0
 23 64  1  0  0  0  0
 23 65  1  0  0  0  0
 23 66  1  0  0  0  0
 24 25  1  0  0  0  0
 24 27  1  0  0  0  0
 24 67  1  0  0  0  0
 25 29  1  0  0  0  0
 25 30  1  0  0  0  0
 25 68  1  0  0  0  0
 26 31  1  0  0  0  0
 26 70  1  0  0  0  0
 28 32  2  0  0  0  0
 28 71  1  0  0  0  0
 29 34  2  0  0  0  0
 29 36  1  0  0  0  0
 30 35  2  0  0  0  0
 30 37  1  0  0  0  0
 31 33  2  0  0  0  0
 32 33  1  0  0  0  0
 32 73  1  0  0  0  0
 34 40  1  0  0  0  0
 34 75  1  0  0  0  0
 35 41  1  0  0  0  0
 35 76  1  0  0  0  0
 36 42  2  0  0  0  0
 36 77  1  0  0  0  0
 37 43  2  0  0  0  0
 37 78  1  0  0  0  0
 38 79  1  0  0  0  0
 38 80  1  0  0  0  0
 40 44  2  0  0  0  0
 40 81  1  0  0  0  0
 41 45  2  0  0  0  0
 41 82  1  0  0  0  0
 42 44  1  0  0  0  0
 42 83  1  0  0  0  0
 43 45  1  0  0  0  0
 43 84  1  0  0  0  0
 44 85  1  0  0  0  0
 45 86  1  0  0  0  0
 46 87  1  0  0  0  0
 46 88  1  0  0  0  0
 46 89  1  0  0  0  0
M  END
> <PUBCHEM_COMPOUND_CID>
513989
> <PUBCHEM_COMPOUND_CANONICALIZED>
1
> <PUBCHEM_CACTVS_COMPLEXITY>
1020
> <PUBCHEM_CACTVS_HBOND_ACCEPTOR>
9
> <PUBCHEM_CACTVS_HBOND_DONOR>
3
> <PUBCHEM_CACTVS_ROTATABLE_BOND>
17
> <PUBCHEM_CACTVS_SUBSKEYS>
AAADcfB/PABAAAAAAAAAAAAAAAAAASAAAAAwYMAAAAAAAEgBUAAAHgQQSAAADSzh2AcyD4LABgKIAiFSGHBCCBAgIAAIiJmOiIkfdjKEsTu0cCIk1hGeqAeYyMCOgIAABAAAQAABAAAIAACAAAAAAAAAAA==
> <PUBCHEM_IUPAC_OPENEYE_NAME>
methyl N-[(1S)-1-benzhydryl-2-[[(5S)-5-[1,3-benzodioxol-5-ylsulfonyl(isobutyl)amino]-6-hydroxy-hexyl]amino]-2-oxo-ethyl]carbamate
> <PUBCHEM_IUPAC_CAS_NAME>
N-[(2S)-1-[[(5S)-5-[1,3-benzodioxol-5-ylsulfonyl(2-methylpropyl)amino]-6-hydroxyhexyl]amino]-1-oxo-3,3-diphenylpropan-2-yl]carbamic acid methyl ester
> <PUBCHEM_IUPAC_NAME_MARKUP>
methyl <I>N</I>-[(2<I>S</I>)-1-[[(5<I>S</I>)-5-[1,3-benzodioxol-5-ylsulfonyl(2-methylpropyl)amino]-6-hydroxyhexyl]amino]-1-oxo-3,3-diphenylpropan-2-yl]carbamate
> <PUBCHEM_IUPAC_NAME>
methyl N-[(2S)-1-[[(5S)-5-[1,3-benzodioxol-5-ylsulfonyl(2-methylpropyl)amino]-6-hydroxyhexyl]amino]-1-oxo-3,3-diphenylpropan-2-yl]carbamate
> <PUBCHEM_IUPAC_SYSTEMATIC_NAME>
methyl N-[(2S)-1-[[(5S)-5-[1,3-benzodioxol-5-ylsulfonyl(2-methylpropyl)amino]-6-oxidanyl-hexyl]amino]-1-oxidanylidene-3,3-diphenyl-propan-2-yl]carbamate
> <PUBCHEM_IUPAC_TRADITIONAL_NAME>
N-[(1S)-1-benzhydryl-2-[[(5S)-5-[1,3-benzodioxol-5-ylsulfonyl(isobutyl)amino]-6-hydroxy-hexyl]amino]-2-keto-ethyl]carbamic acid methyl ester
> <PUBCHEM_IUPAC_INCHI>
InChI=1S/C34H43N3O8S/c1-24(2)21-37(46(41,42)28-17-18-29-30(20-28)45-23-44-29)27(22-38)16-10-11-19-35-33(39)32(36-34(40)43-3)31(25-12-6-4-7-13-25)26-14-8-5-9-15-26/h4-9,12-15,17-18,20,24,27,31-32,38H,10-11,16,19,21-23H2,1-3H3,(H,35,39)(H,36,40)/t27-,32-/m0/s1
> <PUBCHEM_IUPAC_INCHIKEY>
FCGPQQMWSBAEIH-UCGGBYDDSA-N
> <PUBCHEM_XLOGP3_AA>
5.2
> <PUBCHEM_EXACT_MASS>
653.27708651
> <PUBCHEM_MOLECULAR_FORMULA>
C34H43N3O8S
> <PUBCHEM_MOLECULAR_WEIGHT>
653.8
> <PUBCHEM_OPENEYE_CAN_SMILES>
CC(C)CN(C(CCCCNC(=O)C(C(C1=CC=CC=C1)C2=CC=CC=C2)NC(=O)OC)CO)S(=O)(=O)C3=CC4=C(C=C3)OCO4
> <PUBCHEM_OPENEYE_ISO_SMILES>
CC(C)CN([C@@H](CCCCNC(=O)[C@H](C(C1=CC=CC=C1)C2=CC=CC=C2)NC(=O)OC)CO)S(=O)(=O)C3=CC4=C(C=C3)OCO4
> <PUBCHEM_CACTVS_TPSA>
152
> <PUBCHEM_MONOISOTOPIC_WEIGHT>
653.27708651
> <PUBCHEM_TOTAL_CHARGE>
0
> <PUBCHEM_HEAVY_ATOM_COUNT>
46
> <PUBCHEM_ATOM_DEF_STEREO_COUNT>
2
> <PUBCHEM_ATOM_UDEF_STEREO_COUNT>
0
> <PUBCHEM_BOND_DEF_STEREO_COUNT>
0
> <PUBCHEM_BOND_UDEF_STEREO_COUNT>
0
> <PUBCHEM_ISOTOPIC_ATOM_COUNT>
0
> <PUBCHEM_COMPONENT_COUNT>
1
> <PUBCHEM_CACTVS_TAUTO_COUNT>
-1
> <PUBCHEM_COORDINATE_TYPE>
1
5
255
> <PUBCHEM_BONDANNOTATIONS>
13  10  6
24  12  6
20  26  8
20  28  8
26  31  8
28  32  8
29  34  8
29  36  8
30  35  8
30  37  8
31  33  8
32  33  8
34  40  8
35  41  8
36  42  8
37  43  8
40  44  8
41  45  8
42  44  8
43  45  8
$$$$
