513915
  -OEChem-10302200282D
 18 20  0     1  0  0  0  0  0999 V2000
    3.5452    2.0750    0.0000 O   0  0  0  0  0  0  0  0  0  0  0  0
    6.0487   -0.5190    0.0000 O   0  0  0  0  0  0  0  0  0  0  0  0
    5.1919   -2.0750    0.0000 O   0  0  0  0  0  0  0  0  0  0  0  0
    6.3925    1.2238    0.0000 O   0  0  0  0  0  0  0  0  0  0  0  0
    4.4401   -0.4656    0.0000 C   0  0  2  0  0  0  0  0  0  0  0  0
    4.7821    0.4741    0.0000 C   0  0  1  0  0  0  0  0  0  0  0  0
    3.0674    0.1265    0.0000 C   0  0  2  0  0  0  0  0  0  0  0  0
    2.8086    1.0924    0.0000 C   0  0  1  0  0  0  0  0  0  0  0  0
    1.6685   -0.3824    0.0000 C   0  0  0  0  0  0  0  0  0  0  0  0
    1.4096    0.5836    0.0000 C   0  0  0  0  0  0  0  0  0  0  0  0
    5.2250   -1.0756    0.0000 C   0  0  0  0  0  0  0  0  0  0  0  0
    5.7755    0.4369    0.0000 C   0  0  0  0  0  0  0  0  0  0  0  0
    4.1494   -1.2643    0.0000 H   0  0  0  0  0  0  0  0  0  0  0  0
    5.0728    1.2729    0.0000 H   0  0  0  0  0  0  0  0  0  0  0  0
    3.2874   -0.6946    0.0000 H   0  0  0  0  0  0  0  0  0  0  0  0
    2.5886    1.9134    0.0000 H   0  0  0  0  0  0  0  0  0  0  0  0
    1.3821   -0.9323    0.0000 H   0  0  0  0  0  0  0  0  0  0  0  0
    0.8597    0.8699    0.0000 H   0  0  0  0  0  0  0  0  0  0  0  0
  1  7  1  0  0  0  0
  1  8  1  0  0  0  0
  2 11  1  0  0  0  0
  2 12  1  0  0  0  0
  3 11  2  0  0  0  0
  4 12  2  0  0  0  0
  5  6  1  0  0  0  0
  5  7  1  0  0  0  0
  5 11  1  0  0  0  0
  5 13  1  6  0  0  0
  6  8  1  0  0  0  0
  6 12  1  0  0  0  0
  6 14  1  6  0  0  0
  7  9  1  0  0  0  0
  7 15  1  1  0  0  0
  8 10  1  0  0  0  0
  8 16  1  6  0  0  0
  9 10  2  0  0  0  0
  9 17  1  0  0  0  0
 10 18  1  0  0  0  0
M  END
> <PUBCHEM_COMPOUND_CID>
513915
> <PUBCHEM_COMPOUND_CANONICALIZED>
1
> <PUBCHEM_CACTVS_COMPLEXITY>
278
> <PUBCHEM_CACTVS_HBOND_ACCEPTOR>
4
> <PUBCHEM_CACTVS_HBOND_DONOR>
0
> <PUBCHEM_CACTVS_ROTATABLE_BOND>
0
> <PUBCHEM_CACTVS_SUBSKEYS>
AAADcYBwOAAAAAAAAAAAAAAAAAAAASJEAAAgAAAAAAASAAAAAAAAGgAAAAAADRSggAIACAAABACIACDSCAAAAAAgAAAICAEAAAgABBYAIQACEAAFoAAIIAPLAAAOgAAAAAAAAAAAAAAAAAAAAAAAAAAAAA==
> <PUBCHEM_IUPAC_OPENEYE_NAME>
(1S,2R,6S,7R)-4,10-dioxatricyclo[5.2.1.02,6]dec-8-ene-3,5-dione
> <PUBCHEM_IUPAC_CAS_NAME>
(1S,2R,6S,7R)-4,10-dioxatricyclo[5.2.1.02,6]dec-8-ene-3,5-dione
> <PUBCHEM_IUPAC_NAME_MARKUP>
(1<I>S</I>,2<I>R</I>,6<I>S</I>,7<I>R</I>)-4,10-dioxatricyclo[5.2.1.0<SUP>2,6</SUP>]dec-8-ene-3,5-dione
> <PUBCHEM_IUPAC_NAME>
(1S,2R,6S,7R)-4,10-dioxatricyclo[5.2.1.02,6]dec-8-ene-3,5-dione
> <PUBCHEM_IUPAC_SYSTEMATIC_NAME>
(1S,2R,6S,7R)-4,10-dioxatricyclo[5.2.1.02,6]dec-8-ene-3,5-dione
> <PUBCHEM_IUPAC_TRADITIONAL_NAME>
(1S,2R,6S,7R)-4,10-dioxatricyclo[5.2.1.02,6]dec-8-ene-3,5-quinone
> <PUBCHEM_IUPAC_INCHI>
InChI=1S/C8H6O4/c9-7-5-3-1-2-4(11-3)6(5)8(10)12-7/h1-6H/t3-,4+,5-,6+
> <PUBCHEM_IUPAC_INCHIKEY>
QQYNRBAAQFZCLF-FBXFSONDSA-N
> <PUBCHEM_XLOGP3_AA>
-0.5
> <PUBCHEM_EXACT_MASS>
166.02660867
> <PUBCHEM_MOLECULAR_FORMULA>
C8H6O4
> <PUBCHEM_MOLECULAR_WEIGHT>
166.13
> <PUBCHEM_OPENEYE_CAN_SMILES>
C1=CC2C3C(C1O2)C(=O)OC3=O
> <PUBCHEM_OPENEYE_ISO_SMILES>
C1=C[C@H]2[C@H]3[C@@H]([C@@H]1O2)C(=O)OC3=O
> <PUBCHEM_CACTVS_TPSA>
52.6
> <PUBCHEM_MONOISOTOPIC_WEIGHT>
166.02660867
> <PUBCHEM_TOTAL_CHARGE>
0
> <PUBCHEM_HEAVY_ATOM_COUNT>
12
> <PUBCHEM_ATOM_DEF_STEREO_COUNT>
4
> <PUBCHEM_ATOM_UDEF_STEREO_COUNT>
0
> <PUBCHEM_BOND_DEF_STEREO_COUNT>
0
> <PUBCHEM_BOND_UDEF_STEREO_COUNT>
0
> <PUBCHEM_ISOTOPIC_ATOM_COUNT>
0
> <PUBCHEM_COMPONENT_COUNT>
1
> <PUBCHEM_CACTVS_TAUTO_COUNT>
-1
> <PUBCHEM_COORDINATE_TYPE>
1
5
255
> <PUBCHEM_BONDANNOTATIONS>
5  13  6
6  14  6
7  15  5
8  16  6
$$$$
