513966
  -OEChem-10302200282D
 93 96  0     1  0  0  0  0  0999 V2000
    4.2690    3.9827    0.0000 Cl  0  0  0  0  0  0  0  0  0  0  0  0
    6.0010    0.9827    0.0000 S   0  0  0  0  0  0  0  0  0  0  0  0
    8.5991    2.4827    0.0000 O   0  0  0  0  0  0  0  0  0  0  0  0
    5.5010    0.1166    0.0000 O   0  0  0  0  0  0  0  0  0  0  0  0
    6.5010    1.8487    0.0000 O   0  0  0  0  0  0  0  0  0  0  0  0
   14.6613   -4.0173    0.0000 O   0  0  0  0  0  0  0  0  0  0  0  0
   12.9292    1.9827    0.0000 O   0  0  0  0  0  0  0  0  0  0  0  0
   15.5273   -0.5173    0.0000 O   0  0  0  0  0  0  0  0  0  0  0  0
    6.8671    0.4827    0.0000 N   0  0  3  0  0  0  0  0  0  0  0  0
   12.0632    0.4827    0.0000 N   0  0  0  0  0  0  0  0  0  0  0  0
   13.7953   -0.5173    0.0000 N   0  0  0  0  0  0  0  0  0  0  0  0
   14.6613   -2.0173    0.0000 N   0  0  0  0  0  0  0  0  0  0  0  0
    2.5369    2.9827    0.0000 N   0  0  0  0  0  0  0  0  0  0  0  0
    7.7331    0.9827    0.0000 C   0  0  1  0  0  0  0  0  0  0  0  0
    8.5991    0.4827    0.0000 C   0  0  0  0  0  0  0  0  0  0  0  0
    6.8671   -0.5173    0.0000 C   0  0  0  0  0  0  0  0  0  0  0  0
    9.4651    0.9827    0.0000 C   0  0  0  0  0  0  0  0  0  0  0  0
    7.7331   -1.0173    0.0000 C   0  0  0  0  0  0  0  0  0  0  0  0
    7.7331    1.9827    0.0000 C   0  0  0  0  0  0  0  0  0  0  0  0
   10.3312    0.4827    0.0000 C   0  0  0  0  0  0  0  0  0  0  0  0
   11.1972    0.9827    0.0000 C   0  0  0  0  0  0  0  0  0  0  0  0
    5.1350    1.4827    0.0000 C   0  0  0  0  0  0  0  0  0  0  0  0
    7.7331   -2.0173    0.0000 C   0  0  0  0  0  0  0  0  0  0  0  0
    8.5991   -0.5173    0.0000 C   0  0  0  0  0  0  0  0  0  0  0  0
   13.7953    0.4827    0.0000 C   0  0  2  0  0  0  0  0  0  0  0  0
    5.1350    2.4827    0.0000 C   0  0  0  0  0  0  0  0  0  0  0  0
    4.2690    0.9827    0.0000 C   0  0  0  0  0  0  0  0  0  0  0  0
   12.9292    0.9827    0.0000 C   0  0  0  0  0  0  0  0  0  0  0  0
   14.6613    0.9827    0.0000 C   0  0  0  0  0  0  0  0  0  0  0  0
   14.6613    1.9827    0.0000 C   0  0  0  0  0  0  0  0  0  0  0  0
    4.2690    2.9827    0.0000 C   0  0  0  0  0  0  0  0  0  0  0  0
    3.4030    1.4827    0.0000 C   0  0  0  0  0  0  0  0  0  0  0  0
   13.7953   -2.5173    0.0000 C   0  0  0  0  0  0  0  0  0  0  0  0
   15.5273   -2.5173    0.0000 C   0  0  0  0  0  0  0  0  0  0  0  0
   14.6613   -1.0173    0.0000 C   0  0  0  0  0  0  0  0  0  0  0  0
    3.4030    2.4827    0.0000 C   0  0  0  0  0  0  0  0  0  0  0  0
   15.5273    2.4827    0.0000 C   0  0  0  0  0  0  0  0  0  0  0  0
   13.7953   -3.5173    0.0000 C   0  0  0  0  0  0  0  0  0  0  0  0
   15.5273   -3.5173    0.0000 C   0  0  0  0  0  0  0  0  0  0  0  0
   13.7953    2.4827    0.0000 C   0  0  0  0  0  0  0  0  0  0  0  0
   15.5273    3.4827    0.0000 C   0  0  0  0  0  0  0  0  0  0  0  0
   16.4213    1.9480    0.0000 C   0  0  0  0  0  0  0  0  0  0  0  0
   13.7953    3.4827    0.0000 C   0  0  0  0  0  0  0  0  0  0  0  0
   14.6613    3.9827    0.0000 C   0  0  0  0  0  0  0  0  0  0  0  0
   16.4213    4.0173    0.0000 C   0  0  0  0  0  0  0  0  0  0  0  0
   17.3273    2.4618    0.0000 C   0  0  0  0  0  0  0  0  0  0  0  0
   17.3273    3.5035    0.0000 C   0  0  0  0  0  0  0  0  0  0  0  0
    7.7331    0.3627    0.0000 H   0  0  0  0  0  0  0  0  0  0  0  0
    8.2006    0.0077    0.0000 H   0  0  0  0  0  0  0  0  0  0  0  0
    8.9976    0.0077    0.0000 H   0  0  0  0  0  0  0  0  0  0  0  0
    6.2565   -0.4097    0.0000 H   0  0  0  0  0  0  0  0  0  0  0  0
    6.6550   -1.0999    0.0000 H   0  0  0  0  0  0  0  0  0  0  0  0
    9.8637    1.4576    0.0000 H   0  0  0  0  0  0  0  0  0  0  0  0
    9.0666    1.4576    0.0000 H   0  0  0  0  0  0  0  0  0  0  0  0
    7.7331   -0.3973    0.0000 H   0  0  0  0  0  0  0  0  0  0  0  0
    7.5210    2.5653    0.0000 H   0  0  0  0  0  0  0  0  0  0  0  0
    7.1225    1.8750    0.0000 H   0  0  0  0  0  0  0  0  0  0  0  0
    9.9326    0.0077    0.0000 H   0  0  0  0  0  0  0  0  0  0  0  0
   10.7297    0.0077    0.0000 H   0  0  0  0  0  0  0  0  0  0  0  0
   11.5957    1.4576    0.0000 H   0  0  0  0  0  0  0  0  0  0  0  0
   10.7987    1.4576    0.0000 H   0  0  0  0  0  0  0  0  0  0  0  0
    7.1131   -2.0173    0.0000 H   0  0  0  0  0  0  0  0  0  0  0  0
    7.7331   -2.6373    0.0000 H   0  0  0  0  0  0  0  0  0  0  0  0
    8.3531   -2.0173    0.0000 H   0  0  0  0  0  0  0  0  0  0  0  0
    8.9091   -1.0543    0.0000 H   0  0  0  0  0  0  0  0  0  0  0  0
    9.1360   -0.2073    0.0000 H   0  0  0  0  0  0  0  0  0  0  0  0
    8.2891    0.0196    0.0000 H   0  0  0  0  0  0  0  0  0  0  0  0
   14.3322    0.1727    0.0000 H   0  0  0  0  0  0  0  0  0  0  0  0
   12.0632   -0.1373    0.0000 H   0  0  0  0  0  0  0  0  0  0  0  0
    8.5991    3.1027    0.0000 H   0  0  0  0  0  0  0  0  0  0  0  0
   14.8733    0.4001    0.0000 H   0  0  0  0  0  0  0  0  0  0  0  0
   15.2719    1.0903    0.0000 H   0  0  0  0  0  0  0  0  0  0  0  0
    5.6720    2.7927    0.0000 H   0  0  0  0  0  0  0  0  0  0  0  0
    4.2690    0.3627    0.0000 H   0  0  0  0  0  0  0  0  0  0  0  0
   13.2583   -0.8273    0.0000 H   0  0  0  0  0  0  0  0  0  0  0  0
    2.8660    1.1727    0.0000 H   0  0  0  0  0  0  0  0  0  0  0  0
   13.5832   -1.9347    0.0000 H   0  0  0  0  0  0  0  0  0  0  0  0
   13.1847   -2.6250    0.0000 H   0  0  0  0  0  0  0  0  0  0  0  0
   16.1379   -2.6250    0.0000 H   0  0  0  0  0  0  0  0  0  0  0  0
   15.7394   -1.9347    0.0000 H   0  0  0  0  0  0  0  0  0  0  0  0
   13.1847   -3.4097    0.0000 H   0  0  0  0  0  0  0  0  0  0  0  0
   13.5832   -4.0999    0.0000 H   0  0  0  0  0  0  0  0  0  0  0  0
   15.7394   -4.0999    0.0000 H   0  0  0  0  0  0  0  0  0  0  0  0
   16.1379   -3.4097    0.0000 H   0  0  0  0  0  0  0  0  0  0  0  0
   13.2583    2.1727    0.0000 H   0  0  0  0  0  0  0  0  0  0  0  0
   16.4141    1.3280    0.0000 H   0  0  0  0  0  0  0  0  0  0  0  0
   13.2583    3.7927    0.0000 H   0  0  0  0  0  0  0  0  0  0  0  0
   14.6613    4.6027    0.0000 H   0  0  0  0  0  0  0  0  0  0  0  0
   16.4141    4.6373    0.0000 H   0  0  0  0  0  0  0  0  0  0  0  0
    2.0000    2.6727    0.0000 H   0  0  0  0  0  0  0  0  0  0  0  0
    2.5369    3.6027    0.0000 H   0  0  0  0  0  0  0  0  0  0  0  0
   17.8631    2.1498    0.0000 H   0  0  0  0  0  0  0  0  0  0  0  0
   17.8631    3.8156    0.0000 H   0  0  0  0  0  0  0  0  0  0  0  0
  1 31  1  0  0  0  0
  2  4  2  0  0  0  0
  2  5  2  0  0  0  0
  2  9  1  0  0  0  0
  2 22  1  0  0  0  0
  3 19  1  0  0  0  0
  3 70  1  0  0  0  0
  6 38  1  0  0  0  0
  6 39  1  0  0  0  0
  7 28  2  0  0  0  0
  8 35  2  0  0  0  0
 14  9  1  6  0  0  0
  9 16  1  0  0  0  0
 10 21  1  0  0  0  0
 10 28  1  0  0  0  0
 10 69  1  0  0  0  0
 25 11  1  6  0  0  0
 11 35  1  0  0  0  0
 11 75  1  0  0  0  0
 12 33  1  0  0  0  0
 12 34  1  0  0  0  0
 12 35  1  0  0  0  0
 13 36  1  0  0  0  0
 13 90  1  0  0  0  0
 13 91  1  0  0  0  0
 14 15  1  0  0  0  0
 14 19  1  0  0  0  0
 14 48  1  0  0  0  0
 15 17  1  0  0  0  0
 15 49  1  0  0  0  0
 15 50  1  0  0  0  0
 16 18  1  0  0  0  0
 16 51  1  0  0  0  0
 16 52  1  0  0  0  0
 17 20  1  0  0  0  0
 17 53  1  0  0  0  0
 17 54  1  0  0  0  0
 18 23  1  0  0  0  0
 18 24  1  0  0  0  0
 18 55  1  0  0  0  0
 19 56  1  0  0  0  0
 19 57  1  0  0  0  0
 20 21  1  0  0  0  0
 20 58  1  0  0  0  0
 20 59  1  0  0  0  0
 21 60  1  0  0  0  0
 21 61  1  0  0  0  0
 22 26  2  0  0  0  0
 22 27  1  0  0  0  0
 23 62  1  0  0  0  0
 23 63  1  0  0  0  0
 23 64  1  0  0  0  0
 24 65  1  0  0  0  0
 24 66  1  0  0  0  0
 24 67  1  0  0  0  0
 25 28  1  0  0  0  0
 25 29  1  0  0  0  0
 25 68  1  0  0  0  0
 26 31  1  0  0  0  0
 26 73  1  0  0  0  0
 27 32  2  0  0  0  0
 27 74  1  0  0  0  0
 29 30  1  0  0  0  0
 29 71  1  0  0  0  0
 29 72  1  0  0  0  0
 30 37  1  0  0  0  0
 30 40  2  0  0  0  0
 31 36  2  0  0  0  0
 32 36  1  0  0  0  0
 32 76  1  0  0  0  0
 33 38  1  0  0  0  0
 33 77  1  0  0  0  0
 33 78  1  0  0  0  0
 34 39  1  0  0  0  0
 34 79  1  0  0  0  0
 34 80  1  0  0  0  0
 37 41  1  0  0  0  0
 37 42  2  0  0  0  0
 38 81  1  0  0  0  0
 38 82  1  0  0  0  0
 39 83  1  0  0  0  0
 39 84  1  0  0  0  0
 40 43  1  0  0  0  0
 40 85  1  0  0  0  0
 41 44  1  0  0  0  0
 41 45  2  0  0  0  0
 42 46  1  0  0  0  0
 42 86  1  0  0  0  0
 43 44  2  0  0  0  0
 43 87  1  0  0  0  0
 44 88  1  0  0  0  0
 45 47  1  0  0  0  0
 45 89  1  0  0  0  0
 46 47  2  0  0  0  0
 46 92  1  0  0  0  0
 47 93  1  0  0  0  0
M  END
> <PUBCHEM_COMPOUND_CID>
513966
> <PUBCHEM_COMPOUND_CANONICALIZED>
1
> <PUBCHEM_CACTVS_COMPLEXITY>
1090
> <PUBCHEM_CACTVS_HBOND_ACCEPTOR>
8
> <PUBCHEM_CACTVS_HBOND_DONOR>
4
> <PUBCHEM_CACTVS_ROTATABLE_BOND>
15
> <PUBCHEM_CACTVS_SUBSKEYS>
AAADcfB/uABEAAAAAAAAAAAAAAAAAAAAAAA8YMEAAAAAAADBVAAAHgYQSAAADSrh2CYzwcPABgKIAiVSUHDCABAgBwAIiJmIZoiKcDKBk7GXYABslgKYyAeYyMCOgAQCABAQABAACAQAICAAIAAAAAAAAA==
> <PUBCHEM_IUPAC_OPENEYE_NAME>
N-[(1S)-2-[[(5S)-5-[(4-amino-3-chloro-phenyl)sulfonyl-isobutyl-amino]-6-hydroxy-hexyl]amino]-1-(1-naphthylmethyl)-2-oxo-ethyl]morpholine-4-carboxamide
> <PUBCHEM_IUPAC_CAS_NAME>
N-[(2S)-1-[[(5S)-5-[(4-amino-3-chlorophenyl)sulfonyl-(2-methylpropyl)amino]-6-hydroxyhexyl]amino]-3-(1-naphthalenyl)-1-oxopropan-2-yl]-4-morpholinecarboxamide
> <PUBCHEM_IUPAC_NAME_MARKUP>
<I>N</I>-[(2<I>S</I>)-1-[[(5<I>S</I>)-5-[(4-amino-3-chlorophenyl)sulfonyl-(2-methylpropyl)amino]-6-hydroxyhexyl]amino]-3-naphthalen-1-yl-1-oxopropan-2-yl]morpholine-4-carboxamide
> <PUBCHEM_IUPAC_NAME>
N-[(2S)-1-[[(5S)-5-[(4-amino-3-chlorophenyl)sulfonyl-(2-methylpropyl)amino]-6-hydroxyhexyl]amino]-3-naphthalen-1-yl-1-oxopropan-2-yl]morpholine-4-carboxamide
> <PUBCHEM_IUPAC_SYSTEMATIC_NAME>
N-[(2S)-1-[[(5S)-5-[(4-azanyl-3-chloranyl-phenyl)sulfonyl-(2-methylpropyl)amino]-6-oxidanyl-hexyl]amino]-3-naphthalen-1-yl-1-oxidanylidene-propan-2-yl]morpholine-4-carboxamide
> <PUBCHEM_IUPAC_TRADITIONAL_NAME>
N-[(1S)-2-[[(5S)-5-[(4-amino-3-chloro-phenyl)sulfonyl-isobutyl-amino]-6-hydroxy-hexyl]amino]-2-keto-1-(1-naphthylmethyl)ethyl]morpholine-4-carboxamide
> <PUBCHEM_IUPAC_INCHI>
InChI=1S/C34H46ClN5O6S/c1-24(2)22-40(47(44,45)28-13-14-31(36)30(35)21-28)27(23-41)11-5-6-15-37-33(42)32(38-34(43)39-16-18-46-19-17-39)20-26-10-7-9-25-8-3-4-12-29(25)26/h3-4,7-10,12-14,21,24,27,32,41H,5-6,11,15-20,22-23,36H2,1-2H3,(H,37,42)(H,38,43)/t27-,32-/m0/s1
> <PUBCHEM_IUPAC_INCHIKEY>
GWGJLIKCGDMRPX-UCGGBYDDSA-N
> <PUBCHEM_XLOGP3_AA>
4.3
> <PUBCHEM_EXACT_MASS>
687.2857331
> <PUBCHEM_MOLECULAR_FORMULA>
C34H46ClN5O6S
> <PUBCHEM_MOLECULAR_WEIGHT>
688.3
> <PUBCHEM_OPENEYE_CAN_SMILES>
CC(C)CN(C(CCCCNC(=O)C(CC1=CC=CC2=CC=CC=C21)NC(=O)N3CCOCC3)CO)S(=O)(=O)C4=CC(=C(C=C4)N)Cl
> <PUBCHEM_OPENEYE_ISO_SMILES>
CC(C)CN([C@@H](CCCCNC(=O)[C@H](CC1=CC=CC2=CC=CC=C21)NC(=O)N3CCOCC3)CO)S(=O)(=O)C4=CC(=C(C=C4)N)Cl
> <PUBCHEM_CACTVS_TPSA>
163
> <PUBCHEM_MONOISOTOPIC_WEIGHT>
687.2857331
> <PUBCHEM_TOTAL_CHARGE>
0
> <PUBCHEM_HEAVY_ATOM_COUNT>
47
> <PUBCHEM_ATOM_DEF_STEREO_COUNT>
2
> <PUBCHEM_ATOM_UDEF_STEREO_COUNT>
0
> <PUBCHEM_BOND_DEF_STEREO_COUNT>
0
> <PUBCHEM_BOND_UDEF_STEREO_COUNT>
0
> <PUBCHEM_ISOTOPIC_ATOM_COUNT>
0
> <PUBCHEM_COMPONENT_COUNT>
1
> <PUBCHEM_CACTVS_TAUTO_COUNT>
-1
> <PUBCHEM_COORDINATE_TYPE>
1
5
255
> <PUBCHEM_BONDANNOTATIONS>
25  11  6
22  26  8
22  27  8
26  31  8
27  32  8
30  37  8
30  40  8
31  36  8
32  36  8
37  41  8
37  42  8
40  43  8
41  44  8
41  45  8
42  46  8
43  44  8
45  47  8
46  47  8
14  9  6
$$$$
