513971
  -OEChem-10302200282D
 78 80  0     1  0  0  0  0  0999 V2000
    6.0010   -0.1900    0.0000 S   0  0  0  0  0  0  0  0  0  0  0  0
    8.5991   -1.6900    0.0000 O   0  0  0  0  0  0  0  0  0  0  0  0
    5.5010    0.6760    0.0000 O   0  0  0  0  0  0  0  0  0  0  0  0
    6.5010   -1.0560    0.0000 O   0  0  0  0  0  0  0  0  0  0  0  0
   12.9292   -1.1900    0.0000 O   0  0  0  0  0  0  0  0  0  0  0  0
    6.8671    0.3100    0.0000 N   0  0  3  0  0  0  0  0  0  0  0  0
   12.0632    0.3100    0.0000 N   0  0  0  0  0  0  0  0  0  0  0  0
   13.7953    1.3100    0.0000 N   0  0  0  0  0  0  0  0  0  0  0  0
    2.5369   -2.1900    0.0000 N   0  0  0  0  0  0  0  0  0  0  0  0
    7.7331   -0.1900    0.0000 C   0  0  1  0  0  0  0  0  0  0  0  0
    8.5991    0.3100    0.0000 C   0  0  0  0  0  0  0  0  0  0  0  0
    6.8671    1.3100    0.0000 C   0  0  0  0  0  0  0  0  0  0  0  0
    9.4651   -0.1900    0.0000 C   0  0  0  0  0  0  0  0  0  0  0  0
    7.7331    1.8100    0.0000 C   0  0  0  0  0  0  0  0  0  0  0  0
    7.7331   -1.1900    0.0000 C   0  0  0  0  0  0  0  0  0  0  0  0
   10.3312    0.3100    0.0000 C   0  0  0  0  0  0  0  0  0  0  0  0
    5.1350   -0.6900    0.0000 C   0  0  0  0  0  0  0  0  0  0  0  0
    7.7331    2.8100    0.0000 C   0  0  0  0  0  0  0  0  0  0  0  0
    8.5991    1.3100    0.0000 C   0  0  0  0  0  0  0  0  0  0  0  0
   11.1972   -0.1900    0.0000 C   0  0  0  0  0  0  0  0  0  0  0  0
    5.1350   -1.6900    0.0000 C   0  0  0  0  0  0  0  0  0  0  0  0
    4.2690   -0.1900    0.0000 C   0  0  0  0  0  0  0  0  0  0  0  0
   13.7953    0.3100    0.0000 C   0  0  2  0  0  0  0  0  0  0  0  0
   12.9292   -0.1900    0.0000 C   0  0  0  0  0  0  0  0  0  0  0  0
    4.2690   -2.1900    0.0000 C   0  0  0  0  0  0  0  0  0  0  0  0
    3.4030   -0.6900    0.0000 C   0  0  0  0  0  0  0  0  0  0  0  0
   14.6613   -0.1900    0.0000 C   0  0  0  0  0  0  0  0  0  0  0  0
    3.4030   -1.6900    0.0000 C   0  0  0  0  0  0  0  0  0  0  0  0
   15.5273    0.3100    0.0000 C   0  0  0  0  0  0  0  0  0  0  0  0
   16.3933   -0.1900    0.0000 C   0  0  0  0  0  0  0  0  0  0  0  0
   15.5273    1.3100    0.0000 C   0  0  0  0  0  0  0  0  0  0  0  0
   17.2594    0.3100    0.0000 C   0  0  0  0  0  0  0  0  0  0  0  0
   17.2594    1.3100    0.0000 C   0  0  0  0  0  0  0  0  0  0  0  0
   16.3933    1.8100    0.0000 C   0  0  0  0  0  0  0  0  0  0  0  0
   18.1533   -0.2247    0.0000 C   0  0  0  0  0  0  0  0  0  0  0  0
   18.1533    1.8447    0.0000 C   0  0  0  0  0  0  0  0  0  0  0  0
   19.0594    0.2892    0.0000 C   0  0  0  0  0  0  0  0  0  0  0  0
   19.0594    1.3308    0.0000 C   0  0  0  0  0  0  0  0  0  0  0  0
    7.7331    0.4300    0.0000 H   0  0  0  0  0  0  0  0  0  0  0  0
    8.9976    0.7849    0.0000 H   0  0  0  0  0  0  0  0  0  0  0  0
    8.2006    0.7849    0.0000 H   0  0  0  0  0  0  0  0  0  0  0  0
    6.6550    1.8926    0.0000 H   0  0  0  0  0  0  0  0  0  0  0  0
    6.2565    1.2023    0.0000 H   0  0  0  0  0  0  0  0  0  0  0  0
    9.0666   -0.6649    0.0000 H   0  0  0  0  0  0  0  0  0  0  0  0
    9.8637   -0.6649    0.0000 H   0  0  0  0  0  0  0  0  0  0  0  0
    7.7331    1.1900    0.0000 H   0  0  0  0  0  0  0  0  0  0  0  0
    7.1225   -1.0823    0.0000 H   0  0  0  0  0  0  0  0  0  0  0  0
    7.5210   -1.7726    0.0000 H   0  0  0  0  0  0  0  0  0  0  0  0
   10.7297    0.7849    0.0000 H   0  0  0  0  0  0  0  0  0  0  0  0
    9.9326    0.7849    0.0000 H   0  0  0  0  0  0  0  0  0  0  0  0
    8.3531    2.8100    0.0000 H   0  0  0  0  0  0  0  0  0  0  0  0
    7.7331    3.4300    0.0000 H   0  0  0  0  0  0  0  0  0  0  0  0
    7.1131    2.8100    0.0000 H   0  0  0  0  0  0  0  0  0  0  0  0
    8.2891    0.7731    0.0000 H   0  0  0  0  0  0  0  0  0  0  0  0
    9.1360    1.0000    0.0000 H   0  0  0  0  0  0  0  0  0  0  0  0
    8.9091    1.8469    0.0000 H   0  0  0  0  0  0  0  0  0  0  0  0
   10.7987   -0.6649    0.0000 H   0  0  0  0  0  0  0  0  0  0  0  0
   11.5957   -0.6649    0.0000 H   0  0  0  0  0  0  0  0  0  0  0  0
    8.5991   -2.3100    0.0000 H   0  0  0  0  0  0  0  0  0  0  0  0
   12.0632    0.9300    0.0000 H   0  0  0  0  0  0  0  0  0  0  0  0
    5.6720   -2.0000    0.0000 H   0  0  0  0  0  0  0  0  0  0  0  0
    4.2690    0.4300    0.0000 H   0  0  0  0  0  0  0  0  0  0  0  0
   14.3322    0.6200    0.0000 H   0  0  0  0  0  0  0  0  0  0  0  0
    4.2690   -2.8100    0.0000 H   0  0  0  0  0  0  0  0  0  0  0  0
    2.8660   -0.3800    0.0000 H   0  0  0  0  0  0  0  0  0  0  0  0
   14.2628   -0.6649    0.0000 H   0  0  0  0  0  0  0  0  0  0  0  0
   15.0598   -0.6649    0.0000 H   0  0  0  0  0  0  0  0  0  0  0  0
   13.2583    1.6200    0.0000 H   0  0  0  0  0  0  0  0  0  0  0  0
   14.3322    1.6200    0.0000 H   0  0  0  0  0  0  0  0  0  0  0  0
   16.3933   -0.8100    0.0000 H   0  0  0  0  0  0  0  0  0  0  0  0
   14.9904    1.6200    0.0000 H   0  0  0  0  0  0  0  0  0  0  0  0
    2.0000   -1.8800    0.0000 H   0  0  0  0  0  0  0  0  0  0  0  0
    2.5369   -2.8100    0.0000 H   0  0  0  0  0  0  0  0  0  0  0  0
   16.3933    2.4300    0.0000 H   0  0  0  0  0  0  0  0  0  0  0  0
   18.1461   -0.8446    0.0000 H   0  0  0  0  0  0  0  0  0  0  0  0
   18.1461    2.4646    0.0000 H   0  0  0  0  0  0  0  0  0  0  0  0
   19.5951   -0.0229    0.0000 H   0  0  0  0  0  0  0  0  0  0  0  0
   19.5951    1.6429    0.0000 H   0  0  0  0  0  0  0  0  0  0  0  0
  1  3  2  0  0  0  0
  1  4  2  0  0  0  0
  1  6  1  0  0  0  0
  1 17  1  0  0  0  0
  2 15  1  0  0  0  0
  2 59  1  0  0  0  0
  5 24  2  0  0  0  0
 10  6  1  1  0  0  0
  6 12  1  0  0  0  0
  7 20  1  0  0  0  0
  7 24  1  0  0  0  0
  7 60  1  0  0  0  0
 23  8  1  1  0  0  0
  8 68  1  0  0  0  0
  8 69  1  0  0  0  0
  9 28  1  0  0  0  0
  9 72  1  0  0  0  0
  9 73  1  0  0  0  0
 10 11  1  0  0  0  0
 10 15  1  0  0  0  0
 10 39  1  0  0  0  0
 11 13  1  0  0  0  0
 11 40  1  0  0  0  0
 11 41  1  0  0  0  0
 12 14  1  0  0  0  0
 12 42  1  0  0  0  0
 12 43  1  0  0  0  0
 13 16  1  0  0  0  0
 13 44  1  0  0  0  0
 13 45  1  0  0  0  0
 14 18  1  0  0  0  0
 14 19  1  0  0  0  0
 14 46  1  0  0  0  0
 15 47  1  0  0  0  0
 15 48  1  0  0  0  0
 16 20  1  0  0  0  0
 16 49  1  0  0  0  0
 16 50  1  0  0  0  0
 17 21  2  0  0  0  0
 17 22  1  0  0  0  0
 18 51  1  0  0  0  0
 18 52  1  0  0  0  0
 18 53  1  0  0  0  0
 19 54  1  0  0  0  0
 19 55  1  0  0  0  0
 19 56  1  0  0  0  0
 20 57  1  0  0  0  0
 20 58  1  0  0  0  0
 21 25  1  0  0  0  0
 21 61  1  0  0  0  0
 22 26  2  0  0  0  0
 22 62  1  0  0  0  0
 23 24  1  0  0  0  0
 23 27  1  0  0  0  0
 23 63  1  0  0  0  0
 25 28  2  0  0  0  0
 25 64  1  0  0  0  0
 26 28  1  0  0  0  0
 26 65  1  0  0  0  0
 27 29  1  0  0  0  0
 27 66  1  0  0  0  0
 27 67  1  0  0  0  0
 29 30  2  0  0  0  0
 29 31  1  0  0  0  0
 30 32  1  0  0  0  0
 30 70  1  0  0  0  0
 31 34  2  0  0  0  0
 31 71  1  0  0  0  0
 32 33  1  0  0  0  0
 32 35  2  0  0  0  0
 33 34  1  0  0  0  0
 33 36  2  0  0  0  0
 34 74  1  0  0  0  0
 35 37  1  0  0  0  0
 35 75  1  0  0  0  0
 36 38  1  0  0  0  0
 36 76  1  0  0  0  0
 37 38  2  0  0  0  0
 37 77  1  0  0  0  0
 38 78  1  0  0  0  0
M  END
> <PUBCHEM_COMPOUND_CID>
513971
> <PUBCHEM_COMPOUND_CANONICALIZED>
1
> <PUBCHEM_CACTVS_COMPLEXITY>
810
> <PUBCHEM_CACTVS_HBOND_ACCEPTOR>
7
> <PUBCHEM_CACTVS_HBOND_DONOR>
4
> <PUBCHEM_CACTVS_ROTATABLE_BOND>
14
> <PUBCHEM_CACTVS_SUBSKEYS>
AAADcfB7uABAAAAAAAAAAAAAAAAAAAAAAAAwYMAAAAAAAADBVAAAHgQQSAAADSjh2AYywcLAAgKIAiVSUHDCABAgAgAIiJmIZIgKcDKAkZGUYABklgCYyAeYyMCOwAQCAAAQAACACAQAACAAAAAAAAAAAA==
> <PUBCHEM_IUPAC_OPENEYE_NAME>
(2S)-2-amino-N-[(5S)-5-[(4-aminophenyl)sulfonyl-isobutyl-amino]-6-hydroxy-hexyl]-3-(2-naphthyl)propanamide
> <PUBCHEM_IUPAC_CAS_NAME>
(2S)-2-amino-N-[(5S)-5-[(4-aminophenyl)sulfonyl-(2-methylpropyl)amino]-6-hydroxyhexyl]-3-(2-naphthalenyl)propanamide
> <PUBCHEM_IUPAC_NAME_MARKUP>
(2<I>S</I>)-2-amino-<I>N</I>-[(5<I>S</I>)-5-[(4-aminophenyl)sulfonyl-(2-methylpropyl)amino]-6-hydroxyhexyl]-3-naphthalen-2-ylpropanamide
> <PUBCHEM_IUPAC_NAME>
(2S)-2-amino-N-[(5S)-5-[(4-aminophenyl)sulfonyl-(2-methylpropyl)amino]-6-hydroxyhexyl]-3-naphthalen-2-ylpropanamide
> <PUBCHEM_IUPAC_SYSTEMATIC_NAME>
(2S)-N-[(5S)-5-[(4-aminophenyl)sulfonyl-(2-methylpropyl)amino]-6-oxidanyl-hexyl]-2-azanyl-3-naphthalen-2-yl-propanamide
> <PUBCHEM_IUPAC_TRADITIONAL_NAME>
(2S)-2-amino-N-[(5S)-6-hydroxy-5-[isobutyl(sulfanilyl)amino]hexyl]-3-(2-naphthyl)propionamide
> <PUBCHEM_IUPAC_INCHI>
InChI=1S/C29H40N4O4S/c1-21(2)19-33(38(36,37)27-14-12-25(30)13-15-27)26(20-34)9-5-6-16-32-29(35)28(31)18-22-10-11-23-7-3-4-8-24(23)17-22/h3-4,7-8,10-15,17,21,26,28,34H,5-6,9,16,18-20,30-31H2,1-2H3,(H,32,35)/t26-,28-/m0/s1
> <PUBCHEM_IUPAC_INCHIKEY>
CAANMIVVJXUHJS-XCZPVHLTSA-N
> <PUBCHEM_XLOGP3_AA>
3.8
> <PUBCHEM_EXACT_MASS>
540.27702694
> <PUBCHEM_MOLECULAR_FORMULA>
C29H40N4O4S
> <PUBCHEM_MOLECULAR_WEIGHT>
540.7
> <PUBCHEM_OPENEYE_CAN_SMILES>
CC(C)CN(C(CCCCNC(=O)C(CC1=CC2=CC=CC=C2C=C1)N)CO)S(=O)(=O)C3=CC=C(C=C3)N
> <PUBCHEM_OPENEYE_ISO_SMILES>
CC(C)CN([C@@H](CCCCNC(=O)[C@H](CC1=CC2=CC=CC=C2C=C1)N)CO)S(=O)(=O)C3=CC=C(C=C3)N
> <PUBCHEM_CACTVS_TPSA>
147
> <PUBCHEM_MONOISOTOPIC_WEIGHT>
540.27702694
> <PUBCHEM_TOTAL_CHARGE>
0
> <PUBCHEM_HEAVY_ATOM_COUNT>
38
> <PUBCHEM_ATOM_DEF_STEREO_COUNT>
2
> <PUBCHEM_ATOM_UDEF_STEREO_COUNT>
0
> <PUBCHEM_BOND_DEF_STEREO_COUNT>
0
> <PUBCHEM_BOND_UDEF_STEREO_COUNT>
0
> <PUBCHEM_ISOTOPIC_ATOM_COUNT>
0
> <PUBCHEM_COMPONENT_COUNT>
1
> <PUBCHEM_CACTVS_TAUTO_COUNT>
-1
> <PUBCHEM_COORDINATE_TYPE>
1
5
255
> <PUBCHEM_BONDANNOTATIONS>
17  21  8
17  22  8
21  25  8
22  26  8
25  28  8
26  28  8
29  30  8
29  31  8
30  32  8
31  34  8
32  33  8
32  35  8
33  34  8
33  36  8
35  37  8
36  38  8
37  38  8
10  6  5
23  8  5
$$$$
