513932
  -OEChem-10302200282D
 85 87  0     1  0  0  0  0  0999 V2000
    3.7320   -2.3450    0.0000 S   0  0  0  0  0  0  0  0  0  0  0  0
    6.3301   -0.8450    0.0000 O   0  0  0  0  0  0  0  0  0  0  0  0
    4.7320   -2.3450    0.0000 O   0  0  0  0  0  0  0  0  0  0  0  0
    2.7320   -2.3450    0.0000 O   0  0  0  0  0  0  0  0  0  0  0  0
    5.4641    3.6550    0.0000 O   0  0  0  0  0  0  0  0  0  0  0  0
    9.5622    2.2890    0.0000 O   0  0  0  0  0  0  0  0  0  0  0  0
    8.0622    1.4230    0.0000 O   0  0  0  0  0  0  0  0  0  0  0  0
    3.7320   -1.3450    0.0000 N   0  0  3  0  0  0  0  0  0  0  0  0
    6.3301    2.1550    0.0000 N   0  0  0  0  0  0  0  0  0  0  0  0
    8.0622    3.1550    0.0000 N   0  0  0  0  0  0  0  0  0  0  0  0
    3.7320   -6.3450    0.0000 N   0  0  0  0  0  0  0  0  0  0  0  0
    4.5981   -0.8450    0.0000 C   0  0  1  0  0  0  0  0  0  0  0  0
    4.5981    0.1550    0.0000 C   0  0  0  0  0  0  0  0  0  0  0  0
    2.8660   -0.8450    0.0000 C   0  0  0  0  0  0  0  0  0  0  0  0
    2.8660    0.1550    0.0000 C   0  0  0  0  0  0  0  0  0  0  0  0
    5.4641    0.6550    0.0000 C   0  0  0  0  0  0  0  0  0  0  0  0
    5.4641   -1.3450    0.0000 C   0  0  0  0  0  0  0  0  0  0  0  0
    5.4641    1.6550    0.0000 C   0  0  0  0  0  0  0  0  0  0  0  0
    3.7320   -3.3450    0.0000 C   0  0  0  0  0  0  0  0  0  0  0  0
    2.0000    0.6550    0.0000 C   0  0  0  0  0  0  0  0  0  0  0  0
    3.7320    0.6550    0.0000 C   0  0  0  0  0  0  0  0  0  0  0  0
    7.1962    3.6550    0.0000 C   0  0  1  0  0  0  0  0  0  0  0  0
    7.1962    4.6550    0.0000 C   0  0  0  0  0  0  0  0  0  0  0  0
    6.3301    3.1550    0.0000 C   0  0  0  0  0  0  0  0  0  0  0  0
    8.0622    5.1550    0.0000 C   0  0  0  0  0  0  0  0  0  0  0  0
    6.3301    5.1550    0.0000 C   0  0  0  0  0  0  0  0  0  0  0  0
    4.5981   -3.8450    0.0000 C   0  0  0  0  0  0  0  0  0  0  0  0
    2.8660   -3.8450    0.0000 C   0  0  0  0  0  0  0  0  0  0  0  0
    4.5981   -4.8450    0.0000 C   0  0  0  0  0  0  0  0  0  0  0  0
    2.8660   -4.8450    0.0000 C   0  0  0  0  0  0  0  0  0  0  0  0
    8.9282    4.6550    0.0000 C   0  0  0  0  0  0  0  0  0  0  0  0
    6.3301    6.1550    0.0000 C   0  0  0  0  0  0  0  0  0  0  0  0
    8.0622    6.1550    0.0000 C   0  0  0  0  0  0  0  0  0  0  0  0
    5.4641    4.6550    0.0000 C   0  0  0  0  0  0  0  0  0  0  0  0
    3.7320   -5.3450    0.0000 C   0  0  0  0  0  0  0  0  0  0  0  0
    8.5623    2.2890    0.0000 C   0  0  0  0  0  0  0  0  0  0  0  0
    9.7942    5.1550    0.0000 C   0  0  0  0  0  0  0  0  0  0  0  0
    5.4641    6.6550    0.0000 C   0  0  0  0  0  0  0  0  0  0  0  0
    8.9282    6.6550    0.0000 C   0  0  0  0  0  0  0  0  0  0  0  0
    4.5981    5.1550    0.0000 C   0  0  0  0  0  0  0  0  0  0  0  0
    9.7942    6.1550    0.0000 C   0  0  0  0  0  0  0  0  0  0  0  0
    4.5981    6.1550    0.0000 C   0  0  0  0  0  0  0  0  0  0  0  0
   10.0622    1.4230    0.0000 C   0  0  0  0  0  0  0  0  0  0  0  0
    4.5981   -1.4650    0.0000 H   0  0  0  0  0  0  0  0  0  0  0  0
    4.3860    0.7376    0.0000 H   0  0  0  0  0  0  0  0  0  0  0  0
    3.9875    0.0473    0.0000 H   0  0  0  0  0  0  0  0  0  0  0  0
    2.2554   -0.7373    0.0000 H   0  0  0  0  0  0  0  0  0  0  0  0
    2.6540   -1.4276    0.0000 H   0  0  0  0  0  0  0  0  0  0  0  0
    2.8660    0.7750    0.0000 H   0  0  0  0  0  0  0  0  0  0  0  0
    5.6762    0.0724    0.0000 H   0  0  0  0  0  0  0  0  0  0  0  0
    6.0747    0.7627    0.0000 H   0  0  0  0  0  0  0  0  0  0  0  0
    5.0656   -1.8200    0.0000 H   0  0  0  0  0  0  0  0  0  0  0  0
    5.8626   -1.8200    0.0000 H   0  0  0  0  0  0  0  0  0  0  0  0
    5.2520    2.2376    0.0000 H   0  0  0  0  0  0  0  0  0  0  0  0
    4.8535    1.5473    0.0000 H   0  0  0  0  0  0  0  0  0  0  0  0
    2.3100    1.1919    0.0000 H   0  0  0  0  0  0  0  0  0  0  0  0
    1.4631    0.9650    0.0000 H   0  0  0  0  0  0  0  0  0  0  0  0
    1.6900    0.1181    0.0000 H   0  0  0  0  0  0  0  0  0  0  0  0
    4.0420    0.1181    0.0000 H   0  0  0  0  0  0  0  0  0  0  0  0
    4.2690    0.9650    0.0000 H   0  0  0  0  0  0  0  0  0  0  0  0
    3.4220    1.1919    0.0000 H   0  0  0  0  0  0  0  0  0  0  0  0
    7.7331    3.9650    0.0000 H   0  0  0  0  0  0  0  0  0  0  0  0
    6.6592    4.3450    0.0000 H   0  0  0  0  0  0  0  0  0  0  0  0
    6.6401    1.6181    0.0000 H   0  0  0  0  0  0  0  0  0  0  0  0
    6.8671   -1.1550    0.0000 H   0  0  0  0  0  0  0  0  0  0  0  0
    5.1350   -3.5350    0.0000 H   0  0  0  0  0  0  0  0  0  0  0  0
    2.3291   -3.5350    0.0000 H   0  0  0  0  0  0  0  0  0  0  0  0
    8.5991    3.4650    0.0000 H   0  0  0  0  0  0  0  0  0  0  0  0
    5.1350   -5.1550    0.0000 H   0  0  0  0  0  0  0  0  0  0  0  0
    2.3291   -5.1550    0.0000 H   0  0  0  0  0  0  0  0  0  0  0  0
    8.9282    4.0350    0.0000 H   0  0  0  0  0  0  0  0  0  0  0  0
    6.8671    6.4650    0.0000 H   0  0  0  0  0  0  0  0  0  0  0  0
    7.5252    6.4650    0.0000 H   0  0  0  0  0  0  0  0  0  0  0  0
    5.4641    4.0350    0.0000 H   0  0  0  0  0  0  0  0  0  0  0  0
   10.3312    4.8450    0.0000 H   0  0  0  0  0  0  0  0  0  0  0  0
    5.4641    7.2750    0.0000 H   0  0  0  0  0  0  0  0  0  0  0  0
    8.9282    7.2750    0.0000 H   0  0  0  0  0  0  0  0  0  0  0  0
    4.0611    4.8450    0.0000 H   0  0  0  0  0  0  0  0  0  0  0  0
   10.3312    6.4650    0.0000 H   0  0  0  0  0  0  0  0  0  0  0  0
    4.0611    6.4650    0.0000 H   0  0  0  0  0  0  0  0  0  0  0  0
    3.1951   -6.6550    0.0000 H   0  0  0  0  0  0  0  0  0  0  0  0
    4.2690   -6.6550    0.0000 H   0  0  0  0  0  0  0  0  0  0  0  0
    9.5252    1.1130    0.0000 H   0  0  0  0  0  0  0  0  0  0  0  0
   10.3722    0.8860    0.0000 H   0  0  0  0  0  0  0  0  0  0  0  0
   10.5991    1.7330    0.0000 H   0  0  0  0  0  0  0  0  0  0  0  0
  1  3  2  0  0  0  0
  1  4  2  0  0  0  0
  1  8  1  0  0  0  0
  1 19  1  0  0  0  0
  2 17  1  0  0  0  0
  2 65  1  0  0  0  0
  5 24  2  0  0  0  0
  6 36  1  0  0  0  0
  6 43  1  0  0  0  0
  7 36  2  0  0  0  0
 12  8  1  1  0  0  0
  8 14  1  0  0  0  0
  9 18  1  0  0  0  0
  9 24  1  0  0  0  0
  9 64  1  0  0  0  0
 22 10  1  6  0  0  0
 10 36  1  0  0  0  0
 10 68  1  0  0  0  0
 11 35  1  0  0  0  0
 11 81  1  0  0  0  0
 11 82  1  0  0  0  0
 12 13  1  0  0  0  0
 12 17  1  0  0  0  0
 12 44  1  0  0  0  0
 13 16  1  0  0  0  0
 13 45  1  0  0  0  0
 13 46  1  0  0  0  0
 14 15  1  0  0  0  0
 14 47  1  0  0  0  0
 14 48  1  0  0  0  0
 15 20  1  0  0  0  0
 15 21  1  0  0  0  0
 15 49  1  0  0  0  0
 16 18  1  0  0  0  0
 16 50  1  0  0  0  0
 16 51  1  0  0  0  0
 17 52  1  0  0  0  0
 17 53  1  0  0  0  0
 18 54  1  0  0  0  0
 18 55  1  0  0  0  0
 19 27  2  0  0  0  0
 19 28  1  0  0  0  0
 20 56  1  0  0  0  0
 20 57  1  0  0  0  0
 20 58  1  0  0  0  0
 21 59  1  0  0  0  0
 21 60  1  0  0  0  0
 21 61  1  0  0  0  0
 22 23  1  0  0  0  0
 22 24  1  0  0  0  0
 22 62  1  0  0  0  0
 23 25  1  0  0  0  0
 23 26  1  0  0  0  0
 23 63  1  0  0  0  0
 25 31  2  0  0  0  0
 25 33  1  0  0  0  0
 26 32  2  0  0  0  0
 26 34  1  0  0  0  0
 27 29  1  0  0  0  0
 27 66  1  0  0  0  0
 28 30  2  0  0  0  0
 28 67  1  0  0  0  0
 29 35  2  0  0  0  0
 29 69  1  0  0  0  0
 30 35  1  0  0  0  0
 30 70  1  0  0  0  0
 31 37  1  0  0  0  0
 31 71  1  0  0  0  0
 32 38  1  0  0  0  0
 32 72  1  0  0  0  0
 33 39  2  0  0  0  0
 33 73  1  0  0  0  0
 34 40  2  0  0  0  0
 34 74  1  0  0  0  0
 37 41  2  0  0  0  0
 37 75  1  0  0  0  0
 38 42  2  0  0  0  0
 38 76  1  0  0  0  0
 39 41  1  0  0  0  0
 39 77  1  0  0  0  0
 40 42  1  0  0  0  0
 40 78  1  0  0  0  0
 41 79  1  0  0  0  0
 42 80  1  0  0  0  0
 43 83  1  0  0  0  0
 43 84  1  0  0  0  0
 43 85  1  0  0  0  0
M  END
> <PUBCHEM_COMPOUND_CID>
513932
> <PUBCHEM_COMPOUND_CANONICALIZED>
1
> <PUBCHEM_CACTVS_COMPLEXITY>
920
> <PUBCHEM_CACTVS_HBOND_ACCEPTOR>
8
> <PUBCHEM_CACTVS_HBOND_DONOR>
4
> <PUBCHEM_CACTVS_ROTATABLE_BOND>
16
> <PUBCHEM_CACTVS_SUBSKEYS>
AAADcfB/uABAAAAAAAAAAAAAAAAAAAAAAAAwYMAAAAAAAAABUAAAHgQQSAAADSjh2AYyyYLABgKIAiVSWHDCABAgAgAIiJmIZIkKcDKAkbGUYABklgCYyAeYmMKOgAQAAAAAAAAACAAAAAAAAAAAAAAAAA==
> <PUBCHEM_IUPAC_OPENEYE_NAME>
methyl N-[(1S)-1-[[(4S)-4-[(4-aminophenyl)sulfonyl-isobutyl-amino]-5-hydroxy-pentyl]carbamoyl]-2,2-diphenyl-ethyl]carbamate
> <PUBCHEM_IUPAC_CAS_NAME>
N-[(2S)-1-[[(4S)-4-[(4-aminophenyl)sulfonyl-(2-methylpropyl)amino]-5-hydroxypentyl]amino]-1-oxo-3,3-diphenylpropan-2-yl]carbamic acid methyl ester
> <PUBCHEM_IUPAC_NAME_MARKUP>
methyl <I>N</I>-[(2<I>S</I>)-1-[[(4<I>S</I>)-4-[(4-aminophenyl)sulfonyl-(2-methylpropyl)amino]-5-hydroxypentyl]amino]-1-oxo-3,3-diphenylpropan-2-yl]carbamate
> <PUBCHEM_IUPAC_NAME>
methyl N-[(2S)-1-[[(4S)-4-[(4-aminophenyl)sulfonyl-(2-methylpropyl)amino]-5-hydroxypentyl]amino]-1-oxo-3,3-diphenylpropan-2-yl]carbamate
> <PUBCHEM_IUPAC_SYSTEMATIC_NAME>
methyl N-[(2S)-1-[[(4S)-4-[(4-aminophenyl)sulfonyl-(2-methylpropyl)amino]-5-oxidanyl-pentyl]amino]-1-oxidanylidene-3,3-diphenyl-propan-2-yl]carbamate
> <PUBCHEM_IUPAC_TRADITIONAL_NAME>
N-[(1S)-1-benzhydryl-2-[[(4S)-5-hydroxy-4-[isobutyl(sulfanilyl)amino]pentyl]amino]-2-keto-ethyl]carbamic acid methyl ester
> <PUBCHEM_IUPAC_INCHI>
InChI=1S/C32H42N4O6S/c1-23(2)21-36(43(40,41)28-18-16-26(33)17-19-28)27(22-37)15-10-20-34-31(38)30(35-32(39)42-3)29(24-11-6-4-7-12-24)25-13-8-5-9-14-25/h4-9,11-14,16-19,23,27,29-30,37H,10,15,20-22,33H2,1-3H3,(H,34,38)(H,35,39)/t27-,30-/m0/s1
> <PUBCHEM_IUPAC_INCHIKEY>
COIRMJNXAYNJQH-FIBWVYCGSA-N
> <PUBCHEM_XLOGP3_AA>
4.3
> <PUBCHEM_EXACT_MASS>
610.28250625
> <PUBCHEM_MOLECULAR_FORMULA>
C32H42N4O6S
> <PUBCHEM_MOLECULAR_WEIGHT>
610.8
> <PUBCHEM_OPENEYE_CAN_SMILES>
CC(C)CN(C(CCCNC(=O)C(C(C1=CC=CC=C1)C2=CC=CC=C2)NC(=O)OC)CO)S(=O)(=O)C3=CC=C(C=C3)N
> <PUBCHEM_OPENEYE_ISO_SMILES>
CC(C)CN([C@@H](CCCNC(=O)[C@H](C(C1=CC=CC=C1)C2=CC=CC=C2)NC(=O)OC)CO)S(=O)(=O)C3=CC=C(C=C3)N
> <PUBCHEM_CACTVS_TPSA>
159
> <PUBCHEM_MONOISOTOPIC_WEIGHT>
610.28250625
> <PUBCHEM_TOTAL_CHARGE>
0
> <PUBCHEM_HEAVY_ATOM_COUNT>
43
> <PUBCHEM_ATOM_DEF_STEREO_COUNT>
2
> <PUBCHEM_ATOM_UDEF_STEREO_COUNT>
0
> <PUBCHEM_BOND_DEF_STEREO_COUNT>
0
> <PUBCHEM_BOND_UDEF_STEREO_COUNT>
0
> <PUBCHEM_ISOTOPIC_ATOM_COUNT>
0
> <PUBCHEM_COMPONENT_COUNT>
1
> <PUBCHEM_CACTVS_TAUTO_COUNT>
-1
> <PUBCHEM_COORDINATE_TYPE>
1
5
255
> <PUBCHEM_BONDANNOTATIONS>
22  10  6
19  27  8
19  28  8
25  31  8
25  33  8
26  32  8
26  34  8
27  29  8
28  30  8
29  35  8
30  35  8
31  37  8
32  38  8
33  39  8
34  40  8
37  41  8
38  42  8
39  41  8
40  42  8
12  8  5
$$$$
