513975
  -OEChem-10302200282D
 93 96  0     1  0  0  0  0  0999 V2000
    5.4641    0.8450    0.0000 S   0  0  0  0  0  0  0  0  0  0  0  0
    2.0000    2.8450    0.0000 F   0  0  0  0  0  0  0  0  0  0  0  0
    8.0622    2.3450    0.0000 O   0  0  0  0  0  0  0  0  0  0  0  0
    4.9641   -0.0210    0.0000 O   0  0  0  0  0  0  0  0  0  0  0  0
    5.9641    1.7110    0.0000 O   0  0  0  0  0  0  0  0  0  0  0  0
   14.1244   -4.1550    0.0000 O   0  0  0  0  0  0  0  0  0  0  0  0
   12.3923    1.8450    0.0000 O   0  0  0  0  0  0  0  0  0  0  0  0
   14.9904   -0.6550    0.0000 O   0  0  0  0  0  0  0  0  0  0  0  0
    6.3301    0.3450    0.0000 N   0  0  3  0  0  0  0  0  0  0  0  0
   11.5263    0.3450    0.0000 N   0  0  0  0  0  0  0  0  0  0  0  0
   13.2583   -0.6550    0.0000 N   0  0  0  0  0  0  0  0  0  0  0  0
   14.1244   -2.1550    0.0000 N   0  0  0  0  0  0  0  0  0  0  0  0
    3.7320    3.8450    0.0000 N   0  0  0  0  0  0  0  0  0  0  0  0
    7.1962    0.8450    0.0000 C   0  0  1  0  0  0  0  0  0  0  0  0
    8.0622    0.3450    0.0000 C   0  0  0  0  0  0  0  0  0  0  0  0
    6.3301   -0.6550    0.0000 C   0  0  0  0  0  0  0  0  0  0  0  0
    8.9282    0.8450    0.0000 C   0  0  0  0  0  0  0  0  0  0  0  0
    7.1962   -1.1550    0.0000 C   0  0  0  0  0  0  0  0  0  0  0  0
    7.1962    1.8450    0.0000 C   0  0  0  0  0  0  0  0  0  0  0  0
    9.7942    0.3450    0.0000 C   0  0  0  0  0  0  0  0  0  0  0  0
   10.6603    0.8450    0.0000 C   0  0  0  0  0  0  0  0  0  0  0  0
    4.5981    1.3450    0.0000 C   0  0  0  0  0  0  0  0  0  0  0  0
    7.1962   -2.1550    0.0000 C   0  0  0  0  0  0  0  0  0  0  0  0
    8.0622   -0.6550    0.0000 C   0  0  0  0  0  0  0  0  0  0  0  0
   13.2583    0.3450    0.0000 C   0  0  2  0  0  0  0  0  0  0  0  0
    4.5981    2.3450    0.0000 C   0  0  0  0  0  0  0  0  0  0  0  0
    3.7320    0.8450    0.0000 C   0  0  0  0  0  0  0  0  0  0  0  0
   12.3923    0.8450    0.0000 C   0  0  0  0  0  0  0  0  0  0  0  0
   14.1244    0.8450    0.0000 C   0  0  0  0  0  0  0  0  0  0  0  0
   14.1244    1.8450    0.0000 C   0  0  0  0  0  0  0  0  0  0  0  0
    3.7320    2.8450    0.0000 C   0  0  0  0  0  0  0  0  0  0  0  0
    2.8660    1.3450    0.0000 C   0  0  0  0  0  0  0  0  0  0  0  0
   13.2583   -2.6550    0.0000 C   0  0  0  0  0  0  0  0  0  0  0  0
   14.9904   -2.6550    0.0000 C   0  0  0  0  0  0  0  0  0  0  0  0
   14.1244   -1.1550    0.0000 C   0  0  0  0  0  0  0  0  0  0  0  0
    2.8660    2.3450    0.0000 C   0  0  0  0  0  0  0  0  0  0  0  0
   14.9904    2.3450    0.0000 C   0  0  0  0  0  0  0  0  0  0  0  0
   13.2583   -3.6550    0.0000 C   0  0  0  0  0  0  0  0  0  0  0  0
   14.9904   -3.6550    0.0000 C   0  0  0  0  0  0  0  0  0  0  0  0
   13.2583    2.3450    0.0000 C   0  0  0  0  0  0  0  0  0  0  0  0
   14.9904    3.3450    0.0000 C   0  0  0  0  0  0  0  0  0  0  0  0
   15.8843    1.8103    0.0000 C   0  0  0  0  0  0  0  0  0  0  0  0
   13.2583    3.3450    0.0000 C   0  0  0  0  0  0  0  0  0  0  0  0
   14.1244    3.8450    0.0000 C   0  0  0  0  0  0  0  0  0  0  0  0
   15.8843    3.8797    0.0000 C   0  0  0  0  0  0  0  0  0  0  0  0
   16.7904    2.3242    0.0000 C   0  0  0  0  0  0  0  0  0  0  0  0
   16.7904    3.3658    0.0000 C   0  0  0  0  0  0  0  0  0  0  0  0
    6.6592    1.1550    0.0000 H   0  0  0  0  0  0  0  0  0  0  0  0
    7.6636   -0.1299    0.0000 H   0  0  0  0  0  0  0  0  0  0  0  0
    8.4607   -0.1299    0.0000 H   0  0  0  0  0  0  0  0  0  0  0  0
    5.7196   -0.5473    0.0000 H   0  0  0  0  0  0  0  0  0  0  0  0
    6.1181   -1.2376    0.0000 H   0  0  0  0  0  0  0  0  0  0  0  0
    9.3267    1.3200    0.0000 H   0  0  0  0  0  0  0  0  0  0  0  0
    8.5297    1.3200    0.0000 H   0  0  0  0  0  0  0  0  0  0  0  0
    6.6592   -1.4650    0.0000 H   0  0  0  0  0  0  0  0  0  0  0  0
    6.9841    2.4276    0.0000 H   0  0  0  0  0  0  0  0  0  0  0  0
    6.5856    1.7373    0.0000 H   0  0  0  0  0  0  0  0  0  0  0  0
    9.3957   -0.1299    0.0000 H   0  0  0  0  0  0  0  0  0  0  0  0
   10.1928   -0.1299    0.0000 H   0  0  0  0  0  0  0  0  0  0  0  0
   11.0588    1.3200    0.0000 H   0  0  0  0  0  0  0  0  0  0  0  0
   10.2617    1.3200    0.0000 H   0  0  0  0  0  0  0  0  0  0  0  0
    6.5762   -2.1550    0.0000 H   0  0  0  0  0  0  0  0  0  0  0  0
    7.1962   -2.7750    0.0000 H   0  0  0  0  0  0  0  0  0  0  0  0
    7.8162   -2.1550    0.0000 H   0  0  0  0  0  0  0  0  0  0  0  0
    8.3722   -1.1919    0.0000 H   0  0  0  0  0  0  0  0  0  0  0  0
    8.5991   -0.3450    0.0000 H   0  0  0  0  0  0  0  0  0  0  0  0
    7.7522   -0.1181    0.0000 H   0  0  0  0  0  0  0  0  0  0  0  0
   13.7953    0.0350    0.0000 H   0  0  0  0  0  0  0  0  0  0  0  0
   11.5263   -0.2750    0.0000 H   0  0  0  0  0  0  0  0  0  0  0  0
    8.0622    2.9650    0.0000 H   0  0  0  0  0  0  0  0  0  0  0  0
    5.1350    2.6550    0.0000 H   0  0  0  0  0  0  0  0  0  0  0  0
    3.7320    0.2250    0.0000 H   0  0  0  0  0  0  0  0  0  0  0  0
   14.3364    0.2624    0.0000 H   0  0  0  0  0  0  0  0  0  0  0  0
   14.7349    0.9527    0.0000 H   0  0  0  0  0  0  0  0  0  0  0  0
   12.7214   -0.9650    0.0000 H   0  0  0  0  0  0  0  0  0  0  0  0
    2.3291    1.0350    0.0000 H   0  0  0  0  0  0  0  0  0  0  0  0
   13.0463   -2.0724    0.0000 H   0  0  0  0  0  0  0  0  0  0  0  0
   12.6477   -2.7627    0.0000 H   0  0  0  0  0  0  0  0  0  0  0  0
   15.6010   -2.7627    0.0000 H   0  0  0  0  0  0  0  0  0  0  0  0
   15.2024   -2.0724    0.0000 H   0  0  0  0  0  0  0  0  0  0  0  0
   12.6477   -3.5473    0.0000 H   0  0  0  0  0  0  0  0  0  0  0  0
   13.0463   -4.2376    0.0000 H   0  0  0  0  0  0  0  0  0  0  0  0
   15.2024   -4.2376    0.0000 H   0  0  0  0  0  0  0  0  0  0  0  0
   15.6010   -3.5473    0.0000 H   0  0  0  0  0  0  0  0  0  0  0  0
   12.7214    2.0350    0.0000 H   0  0  0  0  0  0  0  0  0  0  0  0
   15.8772    1.1904    0.0000 H   0  0  0  0  0  0  0  0  0  0  0  0
   12.7214    3.6550    0.0000 H   0  0  0  0  0  0  0  0  0  0  0  0
    3.1951    4.1550    0.0000 H   0  0  0  0  0  0  0  0  0  0  0  0
    4.2690    4.1550    0.0000 H   0  0  0  0  0  0  0  0  0  0  0  0
   14.1244    4.4650    0.0000 H   0  0  0  0  0  0  0  0  0  0  0  0
   15.8772    4.4996    0.0000 H   0  0  0  0  0  0  0  0  0  0  0  0
   17.3261    2.0121    0.0000 H   0  0  0  0  0  0  0  0  0  0  0  0
   17.3261    3.6779    0.0000 H   0  0  0  0  0  0  0  0  0  0  0  0
  1  4  2  0  0  0  0
  1  5  2  0  0  0  0
  1  9  1  0  0  0  0
  1 22  1  0  0  0  0
  2 36  1  0  0  0  0
  3 19  1  0  0  0  0
  3 70  1  0  0  0  0
  6 38  1  0  0  0  0
  6 39  1  0  0  0  0
  7 28  2  0  0  0  0
  8 35  2  0  0  0  0
 14  9  1  6  0  0  0
  9 16  1  0  0  0  0
 10 21  1  0  0  0  0
 10 28  1  0  0  0  0
 10 69  1  0  0  0  0
 25 11  1  6  0  0  0
 11 35  1  0  0  0  0
 11 75  1  0  0  0  0
 12 33  1  0  0  0  0
 12 34  1  0  0  0  0
 12 35  1  0  0  0  0
 13 31  1  0  0  0  0
 13 88  1  0  0  0  0
 13 89  1  0  0  0  0
 14 15  1  0  0  0  0
 14 19  1  0  0  0  0
 14 48  1  0  0  0  0
 15 17  1  0  0  0  0
 15 49  1  0  0  0  0
 15 50  1  0  0  0  0
 16 18  1  0  0  0  0
 16 51  1  0  0  0  0
 16 52  1  0  0  0  0
 17 20  1  0  0  0  0
 17 53  1  0  0  0  0
 17 54  1  0  0  0  0
 18 23  1  0  0  0  0
 18 24  1  0  0  0  0
 18 55  1  0  0  0  0
 19 56  1  0  0  0  0
 19 57  1  0  0  0  0
 20 21  1  0  0  0  0
 20 58  1  0  0  0  0
 20 59  1  0  0  0  0
 21 60  1  0  0  0  0
 21 61  1  0  0  0  0
 22 26  2  0  0  0  0
 22 27  1  0  0  0  0
 23 62  1  0  0  0  0
 23 63  1  0  0  0  0
 23 64  1  0  0  0  0
 24 65  1  0  0  0  0
 24 66  1  0  0  0  0
 24 67  1  0  0  0  0
 25 28  1  0  0  0  0
 25 29  1  0  0  0  0
 25 68  1  0  0  0  0
 26 31  1  0  0  0  0
 26 71  1  0  0  0  0
 27 32  2  0  0  0  0
 27 72  1  0  0  0  0
 29 30  1  0  0  0  0
 29 73  1  0  0  0  0
 29 74  1  0  0  0  0
 30 37  1  0  0  0  0
 30 40  2  0  0  0  0
 31 36  2  0  0  0  0
 32 36  1  0  0  0  0
 32 76  1  0  0  0  0
 33 38  1  0  0  0  0
 33 77  1  0  0  0  0
 33 78  1  0  0  0  0
 34 39  1  0  0  0  0
 34 79  1  0  0  0  0
 34 80  1  0  0  0  0
 37 41  1  0  0  0  0
 37 42  2  0  0  0  0
 38 81  1  0  0  0  0
 38 82  1  0  0  0  0
 39 83  1  0  0  0  0
 39 84  1  0  0  0  0
 40 43  1  0  0  0  0
 40 85  1  0  0  0  0
 41 44  1  0  0  0  0
 41 45  2  0  0  0  0
 42 46  1  0  0  0  0
 42 86  1  0  0  0  0
 43 44  2  0  0  0  0
 43 87  1  0  0  0  0
 44 90  1  0  0  0  0
 45 47  1  0  0  0  0
 45 91  1  0  0  0  0
 46 47  2  0  0  0  0
 46 92  1  0  0  0  0
 47 93  1  0  0  0  0
M  END
> <PUBCHEM_COMPOUND_CID>
513975
> <PUBCHEM_COMPOUND_CANONICALIZED>
1
> <PUBCHEM_CACTVS_COMPLEXITY>
1090
> <PUBCHEM_CACTVS_HBOND_ACCEPTOR>
9
> <PUBCHEM_CACTVS_HBOND_DONOR>
4
> <PUBCHEM_CACTVS_ROTATABLE_BOND>
15
> <PUBCHEM_CACTVS_SUBSKEYS>
AAADcfB/uQBAAAAAAAAAAAAAAAAAAAAAAAA8YMEAAAAAAADBVAAAHwQQSAAADSjh2A4zwcPABgKIAiVSUHDCABAgAgAIiJmIZIiKcDKAkbGXYARslgKYyAeYyMCOgAACACAQAAAAAAQAQCAAAAAAAAAAAA==
> <PUBCHEM_IUPAC_OPENEYE_NAME>
N-[(1S)-2-[[(5S)-5-[(3-amino-4-fluoro-phenyl)sulfonyl-isobutyl-amino]-6-hydroxy-hexyl]amino]-1-(1-naphthylmethyl)-2-oxo-ethyl]morpholine-4-carboxamide
> <PUBCHEM_IUPAC_CAS_NAME>
N-[(2S)-1-[[(5S)-5-[(3-amino-4-fluorophenyl)sulfonyl-(2-methylpropyl)amino]-6-hydroxyhexyl]amino]-3-(1-naphthalenyl)-1-oxopropan-2-yl]-4-morpholinecarboxamide
> <PUBCHEM_IUPAC_NAME_MARKUP>
<I>N</I>-[(2<I>S</I>)-1-[[(5<I>S</I>)-5-[(3-amino-4-fluorophenyl)sulfonyl-(2-methylpropyl)amino]-6-hydroxyhexyl]amino]-3-naphthalen-1-yl-1-oxopropan-2-yl]morpholine-4-carboxamide
> <PUBCHEM_IUPAC_NAME>
N-[(2S)-1-[[(5S)-5-[(3-amino-4-fluorophenyl)sulfonyl-(2-methylpropyl)amino]-6-hydroxyhexyl]amino]-3-naphthalen-1-yl-1-oxopropan-2-yl]morpholine-4-carboxamide
> <PUBCHEM_IUPAC_SYSTEMATIC_NAME>
N-[(2S)-1-[[(5S)-5-[(3-azanyl-4-fluoranyl-phenyl)sulfonyl-(2-methylpropyl)amino]-6-oxidanyl-hexyl]amino]-3-naphthalen-1-yl-1-oxidanylidene-propan-2-yl]morpholine-4-carboxamide
> <PUBCHEM_IUPAC_TRADITIONAL_NAME>
N-[(1S)-2-[[(5S)-5-[(3-amino-4-fluoro-phenyl)sulfonyl-isobutyl-amino]-6-hydroxy-hexyl]amino]-2-keto-1-(1-naphthylmethyl)ethyl]morpholine-4-carboxamide
> <PUBCHEM_IUPAC_INCHI>
InChI=1S/C34H46FN5O6S/c1-24(2)22-40(47(44,45)28-13-14-30(35)31(36)21-28)27(23-41)11-5-6-15-37-33(42)32(38-34(43)39-16-18-46-19-17-39)20-26-10-7-9-25-8-3-4-12-29(25)26/h3-4,7-10,12-14,21,24,27,32,41H,5-6,11,15-20,22-23,36H2,1-2H3,(H,37,42)(H,38,43)/t27-,32-/m0/s1
> <PUBCHEM_IUPAC_INCHIKEY>
GFFRQCYOONZQMW-UCGGBYDDSA-N
> <PUBCHEM_XLOGP3_AA>
3.8
> <PUBCHEM_EXACT_MASS>
671.31528354
> <PUBCHEM_MOLECULAR_FORMULA>
C34H46FN5O6S
> <PUBCHEM_MOLECULAR_WEIGHT>
671.8
> <PUBCHEM_OPENEYE_CAN_SMILES>
CC(C)CN(C(CCCCNC(=O)C(CC1=CC=CC2=CC=CC=C21)NC(=O)N3CCOCC3)CO)S(=O)(=O)C4=CC(=C(C=C4)F)N
> <PUBCHEM_OPENEYE_ISO_SMILES>
CC(C)CN([C@@H](CCCCNC(=O)[C@H](CC1=CC=CC2=CC=CC=C21)NC(=O)N3CCOCC3)CO)S(=O)(=O)C4=CC(=C(C=C4)F)N
> <PUBCHEM_CACTVS_TPSA>
163
> <PUBCHEM_MONOISOTOPIC_WEIGHT>
671.31528354
> <PUBCHEM_TOTAL_CHARGE>
0
> <PUBCHEM_HEAVY_ATOM_COUNT>
47
> <PUBCHEM_ATOM_DEF_STEREO_COUNT>
2
> <PUBCHEM_ATOM_UDEF_STEREO_COUNT>
0
> <PUBCHEM_BOND_DEF_STEREO_COUNT>
0
> <PUBCHEM_BOND_UDEF_STEREO_COUNT>
0
> <PUBCHEM_ISOTOPIC_ATOM_COUNT>
0
> <PUBCHEM_COMPONENT_COUNT>
1
> <PUBCHEM_CACTVS_TAUTO_COUNT>
-1
> <PUBCHEM_COORDINATE_TYPE>
1
5
255
> <PUBCHEM_BONDANNOTATIONS>
25  11  6
22  26  8
22  27  8
26  31  8
27  32  8
30  37  8
30  40  8
31  36  8
32  36  8
37  41  8
37  42  8
40  43  8
41  44  8
41  45  8
42  46  8
43  44  8
45  47  8
46  47  8
14  9  6
$$$$
