513969
  -OEChem-10302200282D
 87 90  0     1  0  0  0  0  0999 V2000
    3.7320    2.7780    0.0000 S   0  0  0  0  0  0  0  0  0  0  0  0
    7.1962   -6.2220    0.0000 O   0  0  0  0  0  0  0  0  0  0  0  0
    6.3301    1.2780    0.0000 O   0  0  0  0  0  0  0  0  0  0  0  0
    2.7320    2.7780    0.0000 O   0  0  0  0  0  0  0  0  0  0  0  0
    4.7320    2.7780    0.0000 O   0  0  0  0  0  0  0  0  0  0  0  0
    8.0622   -2.7220    0.0000 O   0  0  0  0  0  0  0  0  0  0  0  0
    6.3301   -4.7220    0.0000 N   0  0  0  0  0  0  0  0  0  0  0  0
    3.7320    1.7780    0.0000 N   0  0  3  0  0  0  0  0  0  0  0  0
    6.3301   -2.7220    0.0000 N   0  0  0  0  0  0  0  0  0  0  0  0
    3.7320    6.7780    0.0000 N   0  0  0  0  0  0  0  0  0  0  0  0
    5.4641   -6.2220    0.0000 C   0  0  0  0  0  0  0  0  0  0  0  0
    4.9641   -7.0880    0.0000 C   0  0  0  0  0  0  0  0  0  0  0  0
    4.4641   -6.2220    0.0000 C   0  0  0  0  0  0  0  0  0  0  0  0
    6.3301   -5.7220    0.0000 C   0  0  0  0  0  0  0  0  0  0  0  0
    4.5981    1.2780    0.0000 C   0  0  1  0  0  0  0  0  0  0  0  0
    7.1962   -4.2220    0.0000 C   0  0  1  0  0  0  0  0  0  0  0  0
    4.5981    0.2780    0.0000 C   0  0  0  0  0  0  0  0  0  0  0  0
    2.8660    1.2780    0.0000 C   0  0  0  0  0  0  0  0  0  0  0  0
    5.4641   -0.2220    0.0000 C   0  0  0  0  0  0  0  0  0  0  0  0
    8.0622   -4.7220    0.0000 C   0  0  0  0  0  0  0  0  0  0  0  0
    2.8660    0.2780    0.0000 C   0  0  0  0  0  0  0  0  0  0  0  0
    5.4641   -1.2220    0.0000 C   0  0  0  0  0  0  0  0  0  0  0  0
    5.4641    1.7780    0.0000 C   0  0  0  0  0  0  0  0  0  0  0  0
    7.1962   -3.2220    0.0000 C   0  0  0  0  0  0  0  0  0  0  0  0
    6.3301   -1.7220    0.0000 C   0  0  0  0  0  0  0  0  0  0  0  0
    8.9282   -4.2220    0.0000 C   0  0  0  0  0  0  0  0  0  0  0  0
    3.7320    3.7780    0.0000 C   0  0  0  0  0  0  0  0  0  0  0  0
    2.0000   -0.2220    0.0000 C   0  0  0  0  0  0  0  0  0  0  0  0
    3.7320   -0.2220    0.0000 C   0  0  0  0  0  0  0  0  0  0  0  0
    9.7942   -4.7220    0.0000 C   0  0  0  0  0  0  0  0  0  0  0  0
    8.9282   -3.2220    0.0000 C   0  0  0  0  0  0  0  0  0  0  0  0
    4.5981    4.2780    0.0000 C   0  0  0  0  0  0  0  0  0  0  0  0
    2.8660    4.2780    0.0000 C   0  0  0  0  0  0  0  0  0  0  0  0
   10.6603   -4.2220    0.0000 C   0  0  0  0  0  0  0  0  0  0  0  0
    9.7942   -2.7220    0.0000 C   0  0  0  0  0  0  0  0  0  0  0  0
   10.6603   -3.2220    0.0000 C   0  0  0  0  0  0  0  0  0  0  0  0
    4.5981    5.2780    0.0000 C   0  0  0  0  0  0  0  0  0  0  0  0
    2.8660    5.2780    0.0000 C   0  0  0  0  0  0  0  0  0  0  0  0
    3.7320    5.7780    0.0000 C   0  0  0  0  0  0  0  0  0  0  0  0
   11.5542   -4.7566    0.0000 C   0  0  0  0  0  0  0  0  0  0  0  0
   11.5542   -2.6873    0.0000 C   0  0  0  0  0  0  0  0  0  0  0  0
   12.4603   -4.2428    0.0000 C   0  0  0  0  0  0  0  0  0  0  0  0
   12.4603   -3.2012    0.0000 C   0  0  0  0  0  0  0  0  0  0  0  0
    5.3036   -5.6231    0.0000 H   0  0  0  0  0  0  0  0  0  0  0  0
    4.4892   -7.4865    0.0000 H   0  0  0  0  0  0  0  0  0  0  0  0
    5.4390   -7.4865    0.0000 H   0  0  0  0  0  0  0  0  0  0  0  0
    4.3564   -5.6114    0.0000 H   0  0  0  0  0  0  0  0  0  0  0  0
    3.8815   -6.4340    0.0000 H   0  0  0  0  0  0  0  0  0  0  0  0
    5.7932   -4.4120    0.0000 H   0  0  0  0  0  0  0  0  0  0  0  0
    4.5981    1.8980    0.0000 H   0  0  0  0  0  0  0  0  0  0  0  0
    6.6592   -3.9120    0.0000 H   0  0  0  0  0  0  0  0  0  0  0  0
    3.9875    0.3857    0.0000 H   0  0  0  0  0  0  0  0  0  0  0  0
    4.3860   -0.3046    0.0000 H   0  0  0  0  0  0  0  0  0  0  0  0
    2.6540    1.8606    0.0000 H   0  0  0  0  0  0  0  0  0  0  0  0
    2.2554    1.1704    0.0000 H   0  0  0  0  0  0  0  0  0  0  0  0
    6.0747   -0.3296    0.0000 H   0  0  0  0  0  0  0  0  0  0  0  0
    5.6762    0.3606    0.0000 H   0  0  0  0  0  0  0  0  0  0  0  0
    2.8660   -0.3420    0.0000 H   0  0  0  0  0  0  0  0  0  0  0  0
    7.6636   -5.1969    0.0000 H   0  0  0  0  0  0  0  0  0  0  0  0
    8.4607   -5.1969    0.0000 H   0  0  0  0  0  0  0  0  0  0  0  0
    4.8535   -1.1143    0.0000 H   0  0  0  0  0  0  0  0  0  0  0  0
    5.2520   -1.8046    0.0000 H   0  0  0  0  0  0  0  0  0  0  0  0
    5.8626    2.2530    0.0000 H   0  0  0  0  0  0  0  0  0  0  0  0
    5.0656    2.2530    0.0000 H   0  0  0  0  0  0  0  0  0  0  0  0
    6.9407   -1.8296    0.0000 H   0  0  0  0  0  0  0  0  0  0  0  0
    6.5422   -1.1394    0.0000 H   0  0  0  0  0  0  0  0  0  0  0  0
    5.7932   -3.0320    0.0000 H   0  0  0  0  0  0  0  0  0  0  0  0
    1.6900    0.3149    0.0000 H   0  0  0  0  0  0  0  0  0  0  0  0
    1.4631   -0.5320    0.0000 H   0  0  0  0  0  0  0  0  0  0  0  0
    2.3100   -0.7589    0.0000 H   0  0  0  0  0  0  0  0  0  0  0  0
    3.4220   -0.7589    0.0000 H   0  0  0  0  0  0  0  0  0  0  0  0
    4.2690   -0.5320    0.0000 H   0  0  0  0  0  0  0  0  0  0  0  0
    4.0420    0.3149    0.0000 H   0  0  0  0  0  0  0  0  0  0  0  0
    6.8671    1.5880    0.0000 H   0  0  0  0  0  0  0  0  0  0  0  0
    9.7942   -5.3420    0.0000 H   0  0  0  0  0  0  0  0  0  0  0  0
    8.3913   -2.9120    0.0000 H   0  0  0  0  0  0  0  0  0  0  0  0
    5.1350    3.9680    0.0000 H   0  0  0  0  0  0  0  0  0  0  0  0
    2.3291    3.9680    0.0000 H   0  0  0  0  0  0  0  0  0  0  0  0
    9.7942   -2.1020    0.0000 H   0  0  0  0  0  0  0  0  0  0  0  0
    5.1350    5.5880    0.0000 H   0  0  0  0  0  0  0  0  0  0  0  0
    2.3291    5.5880    0.0000 H   0  0  0  0  0  0  0  0  0  0  0  0
   11.5470   -5.3766    0.0000 H   0  0  0  0  0  0  0  0  0  0  0  0
   11.5470   -2.0674    0.0000 H   0  0  0  0  0  0  0  0  0  0  0  0
   12.9960   -4.5549    0.0000 H   0  0  0  0  0  0  0  0  0  0  0  0
   12.9960   -2.8891    0.0000 H   0  0  0  0  0  0  0  0  0  0  0  0
    3.1951    7.0880    0.0000 H   0  0  0  0  0  0  0  0  0  0  0  0
    4.2690    7.0880    0.0000 H   0  0  0  0  0  0  0  0  0  0  0  0
  1  4  2  0  0  0  0
  1  5  2  0  0  0  0
  1  8  1  0  0  0  0
  1 27  1  0  0  0  0
  2 14  2  0  0  0  0
  3 23  1  0  0  0  0
  3 74  1  0  0  0  0
  6 24  2  0  0  0  0
  7 14  1  0  0  0  0
 16  7  1  6  0  0  0
  7 49  1  0  0  0  0
 15  8  1  6  0  0  0
  8 18  1  0  0  0  0
  9 24  1  0  0  0  0
  9 25  1  0  0  0  0
  9 67  1  0  0  0  0
 10 39  1  0  0  0  0
 10 86  1  0  0  0  0
 10 87  1  0  0  0  0
 11 12  1  0  0  0  0
 11 13  1  0  0  0  0
 11 14  1  0  0  0  0
 11 44  1  0  0  0  0
 12 13  1  0  0  0  0
 12 45  1  0  0  0  0
 12 46  1  0  0  0  0
 13 47  1  0  0  0  0
 13 48  1  0  0  0  0
 15 17  1  0  0  0  0
 15 23  1  0  0  0  0
 15 50  1  0  0  0  0
 16 20  1  0  0  0  0
 16 24  1  0  0  0  0
 16 51  1  0  0  0  0
 17 19  1  0  0  0  0
 17 52  1  0  0  0  0
 17 53  1  0  0  0  0
 18 21  1  0  0  0  0
 18 54  1  0  0  0  0
 18 55  1  0  0  0  0
 19 22  1  0  0  0  0
 19 56  1  0  0  0  0
 19 57  1  0  0  0  0
 20 26  1  0  0  0  0
 20 59  1  0  0  0  0
 20 60  1  0  0  0  0
 21 28  1  0  0  0  0
 21 29  1  0  0  0  0
 21 58  1  0  0  0  0
 22 25  1  0  0  0  0
 22 61  1  0  0  0  0
 22 62  1  0  0  0  0
 23 63  1  0  0  0  0
 23 64  1  0  0  0  0
 25 65  1  0  0  0  0
 25 66  1  0  0  0  0
 26 30  2  0  0  0  0
 26 31  1  0  0  0  0
 27 32  2  0  0  0  0
 27 33  1  0  0  0  0
 28 68  1  0  0  0  0
 28 69  1  0  0  0  0
 28 70  1  0  0  0  0
 29 71  1  0  0  0  0
 29 72  1  0  0  0  0
 29 73  1  0  0  0  0
 30 34  1  0  0  0  0
 30 75  1  0  0  0  0
 31 35  2  0  0  0  0
 31 76  1  0  0  0  0
 32 37  1  0  0  0  0
 32 77  1  0  0  0  0
 33 38  2  0  0  0  0
 33 78  1  0  0  0  0
 34 36  1  0  0  0  0
 34 40  2  0  0  0  0
 35 36  1  0  0  0  0
 35 79  1  0  0  0  0
 36 41  2  0  0  0  0
 37 39  2  0  0  0  0
 37 80  1  0  0  0  0
 38 39  1  0  0  0  0
 38 81  1  0  0  0  0
 40 42  1  0  0  0  0
 40 82  1  0  0  0  0
 41 43  1  0  0  0  0
 41 83  1  0  0  0  0
 42 43  2  0  0  0  0
 42 84  1  0  0  0  0
 43 85  1  0  0  0  0
M  END
> <PUBCHEM_COMPOUND_CID>
513969
> <PUBCHEM_COMPOUND_CANONICALIZED>
1
> <PUBCHEM_CACTVS_COMPLEXITY>
990
> <PUBCHEM_CACTVS_HBOND_ACCEPTOR>
7
> <PUBCHEM_CACTVS_HBOND_DONOR>
4
> <PUBCHEM_CACTVS_ROTATABLE_BOND>
16
> <PUBCHEM_CACTVS_SUBSKEYS>
AAADcfB/uABAAAAAAAAAAAAAGAAAAAAAAAAwYMAAAAAAAADBVAAAHgQQSAAADSjh2AYywcLAAgKIAiVSUHDCABAgAgAIiJmIZIgKcDKAkbGUYABklgCYyAeYyMCOwAQCAAAQAACACAQAACAAAAAAAAAAAA==
> <PUBCHEM_IUPAC_OPENEYE_NAME>
N-[(1S)-2-[[(5S)-5-[(4-aminophenyl)sulfonyl-isobutyl-amino]-6-hydroxy-hexyl]amino]-1-(2-naphthylmethyl)-2-oxo-ethyl]cyclopropanecarboxamide
> <PUBCHEM_IUPAC_CAS_NAME>
N-[(2S)-1-[[(5S)-5-[(4-aminophenyl)sulfonyl-(2-methylpropyl)amino]-6-hydroxyhexyl]amino]-3-(2-naphthalenyl)-1-oxopropan-2-yl]cyclopropanecarboxamide
> <PUBCHEM_IUPAC_NAME_MARKUP>
<I>N</I>-[(2<I>S</I>)-1-[[(5<I>S</I>)-5-[(4-aminophenyl)sulfonyl-(2-methylpropyl)amino]-6-hydroxyhexyl]amino]-3-naphthalen-2-yl-1-oxopropan-2-yl]cyclopropanecarboxamide
> <PUBCHEM_IUPAC_NAME>
N-[(2S)-1-[[(5S)-5-[(4-aminophenyl)sulfonyl-(2-methylpropyl)amino]-6-hydroxyhexyl]amino]-3-naphthalen-2-yl-1-oxopropan-2-yl]cyclopropanecarboxamide
> <PUBCHEM_IUPAC_SYSTEMATIC_NAME>
N-[(2S)-1-[[(5S)-5-[(4-aminophenyl)sulfonyl-(2-methylpropyl)amino]-6-oxidanyl-hexyl]amino]-3-naphthalen-2-yl-1-oxidanylidene-propan-2-yl]cyclopropanecarboxamide
> <PUBCHEM_IUPAC_TRADITIONAL_NAME>
N-[(1S)-2-[[(5S)-6-hydroxy-5-[isobutyl(sulfanilyl)amino]hexyl]amino]-2-keto-1-(2-naphthylmethyl)ethyl]cyclopropanecarboxamide
> <PUBCHEM_IUPAC_INCHI>
InChI=1S/C33H44N4O5S/c1-23(2)21-37(43(41,42)30-16-14-28(34)15-17-30)29(22-38)9-5-6-18-35-33(40)31(36-32(39)26-12-13-26)20-24-10-11-25-7-3-4-8-27(25)19-24/h3-4,7-8,10-11,14-17,19,23,26,29,31,38H,5-6,9,12-13,18,20-22,34H2,1-2H3,(H,35,40)(H,36,39)/t29-,31-/m0/s1
> <PUBCHEM_IUPAC_INCHIKEY>
BOHRTLNJFJQCBS-SMCANUKXSA-N
> <PUBCHEM_XLOGP3_AA>
4.5
> <PUBCHEM_EXACT_MASS>
608.30324169
> <PUBCHEM_MOLECULAR_FORMULA>
C33H44N4O5S
> <PUBCHEM_MOLECULAR_WEIGHT>
608.8
> <PUBCHEM_OPENEYE_CAN_SMILES>
CC(C)CN(C(CCCCNC(=O)C(CC1=CC2=CC=CC=C2C=C1)NC(=O)C3CC3)CO)S(=O)(=O)C4=CC=C(C=C4)N
> <PUBCHEM_OPENEYE_ISO_SMILES>
CC(C)CN([C@@H](CCCCNC(=O)[C@H](CC1=CC2=CC=CC=C2C=C1)NC(=O)C3CC3)CO)S(=O)(=O)C4=CC=C(C=C4)N
> <PUBCHEM_CACTVS_TPSA>
150
> <PUBCHEM_MONOISOTOPIC_WEIGHT>
608.30324169
> <PUBCHEM_TOTAL_CHARGE>
0
> <PUBCHEM_HEAVY_ATOM_COUNT>
43
> <PUBCHEM_ATOM_DEF_STEREO_COUNT>
2
> <PUBCHEM_ATOM_UDEF_STEREO_COUNT>
0
> <PUBCHEM_BOND_DEF_STEREO_COUNT>
0
> <PUBCHEM_BOND_UDEF_STEREO_COUNT>
0
> <PUBCHEM_ISOTOPIC_ATOM_COUNT>
0
> <PUBCHEM_COMPONENT_COUNT>
1
> <PUBCHEM_CACTVS_TAUTO_COUNT>
-1
> <PUBCHEM_COORDINATE_TYPE>
1
5
255
> <PUBCHEM_BONDANNOTATIONS>
26  30  8
26  31  8
27  32  8
27  33  8
30  34  8
31  35  8
32  37  8
33  38  8
34  36  8
34  40  8
35  36  8
36  41  8
37  39  8
38  39  8
40  42  8
41  43  8
42  43  8
16  7  6
15  8  6
$$$$
