513974
  -OEChem-10302200282D
 88 90  0     1  0  0  0  0  0999 V2000
    3.7320   -3.0950    0.0000 S   0  0  0  0  0  0  0  0  0  0  0  0
    2.0000    5.9050    0.0000 F   0  0  0  0  0  0  0  0  0  0  0  0
    6.3301   -1.5950    0.0000 O   0  0  0  0  0  0  0  0  0  0  0  0
    4.7320   -3.0950    0.0000 O   0  0  0  0  0  0  0  0  0  0  0  0
    2.7320   -3.0950    0.0000 O   0  0  0  0  0  0  0  0  0  0  0  0
    8.0622    2.4050    0.0000 O   0  0  0  0  0  0  0  0  0  0  0  0
    9.7942    4.4050    0.0000 O   0  0  0  0  0  0  0  0  0  0  0  0
    8.9282    2.9050    0.0000 O   0  0  0  0  0  0  0  0  0  0  0  0
    3.7320   -2.0950    0.0000 N   0  0  3  0  0  0  0  0  0  0  0  0
    6.3301    2.4050    0.0000 N   0  0  0  0  0  0  0  0  0  0  0  0
    8.0622    4.4050    0.0000 N   0  0  0  0  0  0  0  0  0  0  0  0
    3.7320   -7.0950    0.0000 N   0  0  0  0  0  0  0  0  0  0  0  0
    4.5981   -1.5950    0.0000 C   0  0  1  0  0  0  0  0  0  0  0  0
    4.5981   -0.5950    0.0000 C   0  0  0  0  0  0  0  0  0  0  0  0
    2.8660   -1.5950    0.0000 C   0  0  0  0  0  0  0  0  0  0  0  0
    5.4641   -0.0950    0.0000 C   0  0  0  0  0  0  0  0  0  0  0  0
    2.8660   -0.5950    0.0000 C   0  0  0  0  0  0  0  0  0  0  0  0
    5.4641   -2.0950    0.0000 C   0  0  0  0  0  0  0  0  0  0  0  0
    5.4641    0.9050    0.0000 C   0  0  0  0  0  0  0  0  0  0  0  0
    3.7320   -4.0950    0.0000 C   0  0  0  0  0  0  0  0  0  0  0  0
    2.0000   -0.0950    0.0000 C   0  0  0  0  0  0  0  0  0  0  0  0
    3.7320   -0.0950    0.0000 C   0  0  0  0  0  0  0  0  0  0  0  0
    6.3301    1.4050    0.0000 C   0  0  0  0  0  0  0  0  0  0  0  0
    2.8660   -4.5950    0.0000 C   0  0  0  0  0  0  0  0  0  0  0  0
    4.5981   -4.5950    0.0000 C   0  0  0  0  0  0  0  0  0  0  0  0
    7.1962    3.9050    0.0000 C   0  0  2  0  0  0  0  0  0  0  0  0
    7.1962    2.9050    0.0000 C   0  0  0  0  0  0  0  0  0  0  0  0
    6.3301    4.4050    0.0000 C   0  0  0  0  0  0  0  0  0  0  0  0
    2.8660   -5.5950    0.0000 C   0  0  0  0  0  0  0  0  0  0  0  0
    4.5981   -5.5950    0.0000 C   0  0  0  0  0  0  0  0  0  0  0  0
    3.7320   -6.0950    0.0000 C   0  0  0  0  0  0  0  0  0  0  0  0
    6.3301    5.4050    0.0000 C   0  0  0  0  0  0  0  0  0  0  0  0
    5.4641    5.9050    0.0000 C   0  0  0  0  0  0  0  0  0  0  0  0
    7.1962    5.9050    0.0000 C   0  0  0  0  0  0  0  0  0  0  0  0
    4.5981    5.4050    0.0000 C   0  0  0  0  0  0  0  0  0  0  0  0
    5.4641    6.9050    0.0000 C   0  0  0  0  0  0  0  0  0  0  0  0
    8.9282    3.9050    0.0000 C   0  0  0  0  0  0  0  0  0  0  0  0
    7.1962    6.9050    0.0000 C   0  0  0  0  0  0  0  0  0  0  0  0
    6.3301    7.4050    0.0000 C   0  0  0  0  0  0  0  0  0  0  0  0
    3.7320    5.9050    0.0000 C   0  0  0  0  0  0  0  0  0  0  0  0
    4.5981    4.4050    0.0000 C   0  0  0  0  0  0  0  0  0  0  0  0
    2.8660    5.4050    0.0000 C   0  0  0  0  0  0  0  0  0  0  0  0
    3.7320    3.9050    0.0000 C   0  0  0  0  0  0  0  0  0  0  0  0
    2.8660    4.4050    0.0000 C   0  0  0  0  0  0  0  0  0  0  0  0
   10.6603    3.9050    0.0000 C   0  0  0  0  0  0  0  0  0  0  0  0
    4.5981   -2.2150    0.0000 H   0  0  0  0  0  0  0  0  0  0  0  0
    4.3860   -0.0124    0.0000 H   0  0  0  0  0  0  0  0  0  0  0  0
    3.9875   -0.7027    0.0000 H   0  0  0  0  0  0  0  0  0  0  0  0
    2.2554   -1.4873    0.0000 H   0  0  0  0  0  0  0  0  0  0  0  0
    2.6540   -2.1776    0.0000 H   0  0  0  0  0  0  0  0  0  0  0  0
    5.6762   -0.6776    0.0000 H   0  0  0  0  0  0  0  0  0  0  0  0
    6.0747    0.0127    0.0000 H   0  0  0  0  0  0  0  0  0  0  0  0
    2.8660    0.0250    0.0000 H   0  0  0  0  0  0  0  0  0  0  0  0
    5.0656   -2.5700    0.0000 H   0  0  0  0  0  0  0  0  0  0  0  0
    5.8626   -2.5700    0.0000 H   0  0  0  0  0  0  0  0  0  0  0  0
    5.2520    1.4876    0.0000 H   0  0  0  0  0  0  0  0  0  0  0  0
    4.8535    0.7973    0.0000 H   0  0  0  0  0  0  0  0  0  0  0  0
    2.3100    0.4419    0.0000 H   0  0  0  0  0  0  0  0  0  0  0  0
    1.4631    0.2150    0.0000 H   0  0  0  0  0  0  0  0  0  0  0  0
    1.6900   -0.6319    0.0000 H   0  0  0  0  0  0  0  0  0  0  0  0
    4.0420   -0.6319    0.0000 H   0  0  0  0  0  0  0  0  0  0  0  0
    4.2690    0.2150    0.0000 H   0  0  0  0  0  0  0  0  0  0  0  0
    3.4220    0.4419    0.0000 H   0  0  0  0  0  0  0  0  0  0  0  0
    6.5422    0.8224    0.0000 H   0  0  0  0  0  0  0  0  0  0  0  0
    6.9407    1.5127    0.0000 H   0  0  0  0  0  0  0  0  0  0  0  0
    6.8671   -1.9050    0.0000 H   0  0  0  0  0  0  0  0  0  0  0  0
    5.7932    2.7150    0.0000 H   0  0  0  0  0  0  0  0  0  0  0  0
    2.3291   -4.2850    0.0000 H   0  0  0  0  0  0  0  0  0  0  0  0
    5.1350   -4.2850    0.0000 H   0  0  0  0  0  0  0  0  0  0  0  0
    7.7331    3.5950    0.0000 H   0  0  0  0  0  0  0  0  0  0  0  0
    5.7196    4.5127    0.0000 H   0  0  0  0  0  0  0  0  0  0  0  0
    6.1181    3.8224    0.0000 H   0  0  0  0  0  0  0  0  0  0  0  0
    2.3291   -5.9050    0.0000 H   0  0  0  0  0  0  0  0  0  0  0  0
    5.1350   -5.9050    0.0000 H   0  0  0  0  0  0  0  0  0  0  0  0
    8.0622    5.0250    0.0000 H   0  0  0  0  0  0  0  0  0  0  0  0
    7.7331    5.5950    0.0000 H   0  0  0  0  0  0  0  0  0  0  0  0
    3.1951   -7.4050    0.0000 H   0  0  0  0  0  0  0  0  0  0  0  0
    4.2690   -7.4050    0.0000 H   0  0  0  0  0  0  0  0  0  0  0  0
    4.9272    7.2150    0.0000 H   0  0  0  0  0  0  0  0  0  0  0  0
    7.7331    7.2150    0.0000 H   0  0  0  0  0  0  0  0  0  0  0  0
    6.3301    8.0250    0.0000 H   0  0  0  0  0  0  0  0  0  0  0  0
    3.7320    6.5250    0.0000 H   0  0  0  0  0  0  0  0  0  0  0  0
    5.1350    4.0950    0.0000 H   0  0  0  0  0  0  0  0  0  0  0  0
    3.7320    3.2850    0.0000 H   0  0  0  0  0  0  0  0  0  0  0  0
    2.3291    4.0950    0.0000 H   0  0  0  0  0  0  0  0  0  0  0  0
   10.3503    3.3681    0.0000 H   0  0  0  0  0  0  0  0  0  0  0  0
   11.1972    3.5950    0.0000 H   0  0  0  0  0  0  0  0  0  0  0  0
   10.9703    4.4419    0.0000 H   0  0  0  0  0  0  0  0  0  0  0  0
  1  4  2  0  0  0  0
  1  5  2  0  0  0  0
  1  9  1  0  0  0  0
  1 20  1  0  0  0  0
  2 42  1  0  0  0  0
  3 18  1  0  0  0  0
  3 66  1  0  0  0  0
  6 27  2  0  0  0  0
  7 37  1  0  0  0  0
  7 45  1  0  0  0  0
  8 37  2  0  0  0  0
 13  9  1  1  0  0  0
  9 15  1  0  0  0  0
 10 23  1  0  0  0  0
 10 27  1  0  0  0  0
 10 67  1  0  0  0  0
 26 11  1  6  0  0  0
 11 37  1  0  0  0  0
 11 75  1  0  0  0  0
 12 31  1  0  0  0  0
 12 77  1  0  0  0  0
 12 78  1  0  0  0  0
 13 14  1  0  0  0  0
 13 18  1  0  0  0  0
 13 46  1  0  0  0  0
 14 16  1  0  0  0  0
 14 47  1  0  0  0  0
 14 48  1  0  0  0  0
 15 17  1  0  0  0  0
 15 49  1  0  0  0  0
 15 50  1  0  0  0  0
 16 19  1  0  0  0  0
 16 51  1  0  0  0  0
 16 52  1  0  0  0  0
 17 21  1  0  0  0  0
 17 22  1  0  0  0  0
 17 53  1  0  0  0  0
 18 54  1  0  0  0  0
 18 55  1  0  0  0  0
 19 23  1  0  0  0  0
 19 56  1  0  0  0  0
 19 57  1  0  0  0  0
 20 24  2  0  0  0  0
 20 25  1  0  0  0  0
 21 58  1  0  0  0  0
 21 59  1  0  0  0  0
 21 60  1  0  0  0  0
 22 61  1  0  0  0  0
 22 62  1  0  0  0  0
 22 63  1  0  0  0  0
 23 64  1  0  0  0  0
 23 65  1  0  0  0  0
 24 29  1  0  0  0  0
 24 68  1  0  0  0  0
 25 30  2  0  0  0  0
 25 69  1  0  0  0  0
 26 27  1  0  0  0  0
 26 28  1  0  0  0  0
 26 70  1  0  0  0  0
 28 32  1  0  0  0  0
 28 71  1  0  0  0  0
 28 72  1  0  0  0  0
 29 31  2  0  0  0  0
 29 73  1  0  0  0  0
 30 31  1  0  0  0  0
 30 74  1  0  0  0  0
 32 33  1  0  0  0  0
 32 34  2  0  0  0  0
 33 35  1  0  0  0  0
 33 36  2  0  0  0  0
 34 38  1  0  0  0  0
 34 76  1  0  0  0  0
 35 40  2  0  0  0  0
 35 41  1  0  0  0  0
 36 39  1  0  0  0  0
 36 79  1  0  0  0  0
 38 39  2  0  0  0  0
 38 80  1  0  0  0  0
 39 81  1  0  0  0  0
 40 42  1  0  0  0  0
 40 82  1  0  0  0  0
 41 43  2  0  0  0  0
 41 83  1  0  0  0  0
 42 44  2  0  0  0  0
 43 44  1  0  0  0  0
 43 84  1  0  0  0  0
 44 85  1  0  0  0  0
 45 86  1  0  0  0  0
 45 87  1  0  0  0  0
 45 88  1  0  0  0  0
M  END
> <PUBCHEM_COMPOUND_CID>
513974
> <PUBCHEM_COMPOUND_CANONICALIZED>
1
> <PUBCHEM_CACTVS_COMPLEXITY>
1000
> <PUBCHEM_CACTVS_HBOND_ACCEPTOR>
9
> <PUBCHEM_CACTVS_HBOND_DONOR>
4
> <PUBCHEM_CACTVS_ROTATABLE_BOND>
17
> <PUBCHEM_CACTVS_SUBSKEYS>
AAADcfB/uQBAAAAAAAAAAAAAAAAAAAAAAAAwYMAAAAAAAAABUAAAHwQQSAAADSjh2A4yyYLABgKIAiVSWHDCABAgAgAIiJmIZIkKcDKAkbGUYABklgCYyAeYyMCOgAQAAAAQAAAACAAAACAAAAAAAAAAAA==
> <PUBCHEM_IUPAC_OPENEYE_NAME>
methyl N-[(1S)-2-[[(5S)-5-[(4-aminophenyl)sulfonyl-isobutyl-amino]-6-hydroxy-hexyl]amino]-1-[[2-(3-fluorophenyl)phenyl]methyl]-2-oxo-ethyl]carbamate
> <PUBCHEM_IUPAC_CAS_NAME>
N-[(2S)-1-[[(5S)-5-[(4-aminophenyl)sulfonyl-(2-methylpropyl)amino]-6-hydroxyhexyl]amino]-3-[2-(3-fluorophenyl)phenyl]-1-oxopropan-2-yl]carbamic acid methyl ester
> <PUBCHEM_IUPAC_NAME_MARKUP>
methyl <I>N</I>-[(2<I>S</I>)-1-[[(5<I>S</I>)-5-[(4-aminophenyl)sulfonyl-(2-methylpropyl)amino]-6-hydroxyhexyl]amino]-3-[2-(3-fluorophenyl)phenyl]-1-oxopropan-2-yl]carbamate
> <PUBCHEM_IUPAC_NAME>
methyl N-[(2S)-1-[[(5S)-5-[(4-aminophenyl)sulfonyl-(2-methylpropyl)amino]-6-hydroxyhexyl]amino]-3-[2-(3-fluorophenyl)phenyl]-1-oxopropan-2-yl]carbamate
> <PUBCHEM_IUPAC_SYSTEMATIC_NAME>
methyl N-[(2S)-1-[[(5S)-5-[(4-aminophenyl)sulfonyl-(2-methylpropyl)amino]-6-oxidanyl-hexyl]amino]-3-[2-(3-fluorophenyl)phenyl]-1-oxidanylidene-propan-2-yl]carbamate
> <PUBCHEM_IUPAC_TRADITIONAL_NAME>
N-[(1S)-1-[2-(3-fluorophenyl)benzyl]-2-[[(5S)-6-hydroxy-5-[isobutyl(sulfanilyl)amino]hexyl]amino]-2-keto-ethyl]carbamic acid methyl ester
> <PUBCHEM_IUPAC_INCHI>
InChI=1S/C33H43FN4O6S/c1-23(2)21-38(45(42,43)29-16-14-27(35)15-17-29)28(22-39)12-6-7-18-36-32(40)31(37-33(41)44-3)20-25-9-4-5-13-30(25)24-10-8-11-26(34)19-24/h4-5,8-11,13-17,19,23,28,31,39H,6-7,12,18,20-22,35H2,1-3H3,(H,36,40)(H,37,41)/t28-,31-/m0/s1
> <PUBCHEM_IUPAC_INCHIKEY>
ZGGQPYULYFOGDW-IZEXYCQBSA-N
> <PUBCHEM_XLOGP3_AA>
5
> <PUBCHEM_EXACT_MASS>
642.28873444
> <PUBCHEM_MOLECULAR_FORMULA>
C33H43FN4O6S
> <PUBCHEM_MOLECULAR_WEIGHT>
642.8
> <PUBCHEM_OPENEYE_CAN_SMILES>
CC(C)CN(C(CCCCNC(=O)C(CC1=CC=CC=C1C2=CC(=CC=C2)F)NC(=O)OC)CO)S(=O)(=O)C3=CC=C(C=C3)N
> <PUBCHEM_OPENEYE_ISO_SMILES>
CC(C)CN([C@@H](CCCCNC(=O)[C@H](CC1=CC=CC=C1C2=CC(=CC=C2)F)NC(=O)OC)CO)S(=O)(=O)C3=CC=C(C=C3)N
> <PUBCHEM_CACTVS_TPSA>
159
> <PUBCHEM_MONOISOTOPIC_WEIGHT>
642.28873444
> <PUBCHEM_TOTAL_CHARGE>
0
> <PUBCHEM_HEAVY_ATOM_COUNT>
45
> <PUBCHEM_ATOM_DEF_STEREO_COUNT>
2
> <PUBCHEM_ATOM_UDEF_STEREO_COUNT>
0
> <PUBCHEM_BOND_DEF_STEREO_COUNT>
0
> <PUBCHEM_BOND_UDEF_STEREO_COUNT>
0
> <PUBCHEM_ISOTOPIC_ATOM_COUNT>
0
> <PUBCHEM_COMPONENT_COUNT>
1
> <PUBCHEM_CACTVS_TAUTO_COUNT>
-1
> <PUBCHEM_COORDINATE_TYPE>
1
5
255
> <PUBCHEM_BONDANNOTATIONS>
26  11  6
20  24  8
20  25  8
24  29  8
25  30  8
29  31  8
30  31  8
32  33  8
32  34  8
33  36  8
34  38  8
35  40  8
35  41  8
36  39  8
38  39  8
40  42  8
41  43  8
42  44  8
43  44  8
13  9  5
$$$$
