513957
  -OEChem-10302200282D
 95 98  0     1  0  0  0  0  0999 V2000
    3.7320    3.0000    0.0000 S   0  0  0  0  0  0  0  0  0  0  0  0
    6.3301    1.5000    0.0000 O   0  0  0  0  0  0  0  0  0  0  0  0
    2.7320    3.0000    0.0000 O   0  0  0  0  0  0  0  0  0  0  0  0
    4.7320    3.0000    0.0000 O   0  0  0  0  0  0  0  0  0  0  0  0
    3.7320   -7.0000    0.0000 O   0  0  0  0  0  0  0  0  0  0  0  0
    8.0622   -2.5000    0.0000 O   0  0  0  0  0  0  0  0  0  0  0  0
    3.7320    7.0000    0.0000 O   0  0  0  0  0  0  0  0  0  0  0  0
    7.1962   -6.0000    0.0000 O   0  0  0  0  0  0  0  0  0  0  0  0
    3.7320    2.0000    0.0000 N   0  0  3  0  0  0  0  0  0  0  0  0
    6.3301   -2.5000    0.0000 N   0  0  0  0  0  0  0  0  0  0  0  0
    6.3301   -4.5000    0.0000 N   0  0  0  0  0  0  0  0  0  0  0  0
    5.4641   -6.0000    0.0000 N   0  0  0  0  0  0  0  0  0  0  0  0
    4.5981    1.5000    0.0000 C   0  0  1  0  0  0  0  0  0  0  0  0
    4.5981    0.5000    0.0000 C   0  0  0  0  0  0  0  0  0  0  0  0
    2.8660    1.5000    0.0000 C   0  0  0  0  0  0  0  0  0  0  0  0
    5.4641   -0.0000    0.0000 C   0  0  0  0  0  0  0  0  0  0  0  0
    2.8660    0.5000    0.0000 C   0  0  0  0  0  0  0  0  0  0  0  0
    5.4641    2.0000    0.0000 C   0  0  0  0  0  0  0  0  0  0  0  0
    5.4641   -1.0000    0.0000 C   0  0  0  0  0  0  0  0  0  0  0  0
    6.3301   -1.5000    0.0000 C   0  0  0  0  0  0  0  0  0  0  0  0
    3.7320    4.0000    0.0000 C   0  0  0  0  0  0  0  0  0  0  0  0
    2.0000    0.0000    0.0000 C   0  0  0  0  0  0  0  0  0  0  0  0
    3.7320   -0.0000    0.0000 C   0  0  0  0  0  0  0  0  0  0  0  0
    7.1962   -4.0000    0.0000 C   0  0  2  0  0  0  0  0  0  0  0  0
    4.5981    4.5000    0.0000 C   0  0  0  0  0  0  0  0  0  0  0  0
    2.8660    4.5000    0.0000 C   0  0  0  0  0  0  0  0  0  0  0  0
    7.1962   -3.0000    0.0000 C   0  0  0  0  0  0  0  0  0  0  0  0
    8.0622   -4.5000    0.0000 C   0  0  0  0  0  0  0  0  0  0  0  0
    4.5981    5.5000    0.0000 C   0  0  0  0  0  0  0  0  0  0  0  0
    2.8660    5.5000    0.0000 C   0  0  0  0  0  0  0  0  0  0  0  0
    8.9282   -4.0000    0.0000 C   0  0  0  0  0  0  0  0  0  0  0  0
    4.5981   -5.5000    0.0000 C   0  0  0  0  0  0  0  0  0  0  0  0
    5.4641   -7.0000    0.0000 C   0  0  0  0  0  0  0  0  0  0  0  0
    6.3301   -5.5000    0.0000 C   0  0  0  0  0  0  0  0  0  0  0  0
    3.7320    6.0000    0.0000 C   0  0  0  0  0  0  0  0  0  0  0  0
    3.7320   -6.0000    0.0000 C   0  0  0  0  0  0  0  0  0  0  0  0
    4.5981   -7.5000    0.0000 C   0  0  0  0  0  0  0  0  0  0  0  0
    9.7942   -4.5000    0.0000 C   0  0  0  0  0  0  0  0  0  0  0  0
    8.9282   -3.0000    0.0000 C   0  0  0  0  0  0  0  0  0  0  0  0
   10.6603   -4.0000    0.0000 C   0  0  0  0  0  0  0  0  0  0  0  0
   10.6603   -3.0000    0.0000 C   0  0  0  0  0  0  0  0  0  0  0  0
    9.7942   -2.5000    0.0000 C   0  0  0  0  0  0  0  0  0  0  0  0
   11.5542   -4.5347    0.0000 C   0  0  0  0  0  0  0  0  0  0  0  0
   11.5542   -2.4653    0.0000 C   0  0  0  0  0  0  0  0  0  0  0  0
   12.4603   -4.0208    0.0000 C   0  0  0  0  0  0  0  0  0  0  0  0
   12.4603   -2.9792    0.0000 C   0  0  0  0  0  0  0  0  0  0  0  0
    2.8660    7.5000    0.0000 C   0  0  0  0  0  0  0  0  0  0  0  0
    4.5981    2.1200    0.0000 H   0  0  0  0  0  0  0  0  0  0  0  0
    3.9875    0.6077    0.0000 H   0  0  0  0  0  0  0  0  0  0  0  0
    4.3860   -0.0826    0.0000 H   0  0  0  0  0  0  0  0  0  0  0  0
    2.6540    2.0826    0.0000 H   0  0  0  0  0  0  0  0  0  0  0  0
    2.2554    1.3923    0.0000 H   0  0  0  0  0  0  0  0  0  0  0  0
    6.0747   -0.1077    0.0000 H   0  0  0  0  0  0  0  0  0  0  0  0
    5.6762    0.5826    0.0000 H   0  0  0  0  0  0  0  0  0  0  0  0
    2.8660   -0.1200    0.0000 H   0  0  0  0  0  0  0  0  0  0  0  0
    5.8626    2.4750    0.0000 H   0  0  0  0  0  0  0  0  0  0  0  0
    5.0656    2.4750    0.0000 H   0  0  0  0  0  0  0  0  0  0  0  0
    4.8535   -0.8923    0.0000 H   0  0  0  0  0  0  0  0  0  0  0  0
    5.2520   -1.5826    0.0000 H   0  0  0  0  0  0  0  0  0  0  0  0
    6.9407   -1.6077    0.0000 H   0  0  0  0  0  0  0  0  0  0  0  0
    6.5422   -0.9174    0.0000 H   0  0  0  0  0  0  0  0  0  0  0  0
    1.6900    0.5369    0.0000 H   0  0  0  0  0  0  0  0  0  0  0  0
    1.4631   -0.3100    0.0000 H   0  0  0  0  0  0  0  0  0  0  0  0
    2.3100   -0.5369    0.0000 H   0  0  0  0  0  0  0  0  0  0  0  0
    3.4220   -0.5369    0.0000 H   0  0  0  0  0  0  0  0  0  0  0  0
    4.2690   -0.3100    0.0000 H   0  0  0  0  0  0  0  0  0  0  0  0
    4.0420    0.5369    0.0000 H   0  0  0  0  0  0  0  0  0  0  0  0
    5.7932   -2.8100    0.0000 H   0  0  0  0  0  0  0  0  0  0  0  0
    6.6592   -3.6900    0.0000 H   0  0  0  0  0  0  0  0  0  0  0  0
    6.8671    1.8100    0.0000 H   0  0  0  0  0  0  0  0  0  0  0  0
    5.1350    4.1900    0.0000 H   0  0  0  0  0  0  0  0  0  0  0  0
    2.3291    4.1900    0.0000 H   0  0  0  0  0  0  0  0  0  0  0  0
    7.6636   -4.9750    0.0000 H   0  0  0  0  0  0  0  0  0  0  0  0
    8.4607   -4.9750    0.0000 H   0  0  0  0  0  0  0  0  0  0  0  0
    5.7932   -4.1900    0.0000 H   0  0  0  0  0  0  0  0  0  0  0  0
    5.1350    5.8100    0.0000 H   0  0  0  0  0  0  0  0  0  0  0  0
    2.3291    5.8100    0.0000 H   0  0  0  0  0  0  0  0  0  0  0  0
    4.9966   -5.0250    0.0000 H   0  0  0  0  0  0  0  0  0  0  0  0
    4.1996   -5.0250    0.0000 H   0  0  0  0  0  0  0  0  0  0  0  0
    5.6762   -7.5826    0.0000 H   0  0  0  0  0  0  0  0  0  0  0  0
    6.0747   -6.8923    0.0000 H   0  0  0  0  0  0  0  0  0  0  0  0
    3.5200   -5.4174    0.0000 H   0  0  0  0  0  0  0  0  0  0  0  0
    3.1215   -6.1077    0.0000 H   0  0  0  0  0  0  0  0  0  0  0  0
    4.1996   -7.9750    0.0000 H   0  0  0  0  0  0  0  0  0  0  0  0
    4.9966   -7.9750    0.0000 H   0  0  0  0  0  0  0  0  0  0  0  0
    9.7942   -5.1200    0.0000 H   0  0  0  0  0  0  0  0  0  0  0  0
    8.3913   -2.6900    0.0000 H   0  0  0  0  0  0  0  0  0  0  0  0
    9.7942   -1.8800    0.0000 H   0  0  0  0  0  0  0  0  0  0  0  0
   11.5470   -5.1546    0.0000 H   0  0  0  0  0  0  0  0  0  0  0  0
   11.5470   -1.8454    0.0000 H   0  0  0  0  0  0  0  0  0  0  0  0
   12.9960   -4.3329    0.0000 H   0  0  0  0  0  0  0  0  0  0  0  0
   12.9960   -2.6671    0.0000 H   0  0  0  0  0  0  0  0  0  0  0  0
    3.1760    8.0369    0.0000 H   0  0  0  0  0  0  0  0  0  0  0  0
    2.3291    7.8100    0.0000 H   0  0  0  0  0  0  0  0  0  0  0  0
    2.5560    6.9631    0.0000 H   0  0  0  0  0  0  0  0  0  0  0  0
  1  3  2  0  0  0  0
  1  4  2  0  0  0  0
  1  9  1  0  0  0  0
  1 21  1  0  0  0  0
  2 18  1  0  0  0  0
  2 70  1  0  0  0  0
  5 36  1  0  0  0  0
  5 37  1  0  0  0  0
  6 27  2  0  0  0  0
  7 35  1  0  0  0  0
  7 47  1  0  0  0  0
  8 34  2  0  0  0  0
 13  9  1  6  0  0  0
  9 15  1  0  0  0  0
 10 20  1  0  0  0  0
 10 27  1  0  0  0  0
 10 68  1  0  0  0  0
 24 11  1  6  0  0  0
 11 34  1  0  0  0  0
 11 75  1  0  0  0  0
 12 32  1  0  0  0  0
 12 33  1  0  0  0  0
 12 34  1  0  0  0  0
 13 14  1  0  0  0  0
 13 18  1  0  0  0  0
 13 48  1  0  0  0  0
 14 16  1  0  0  0  0
 14 49  1  0  0  0  0
 14 50  1  0  0  0  0
 15 17  1  0  0  0  0
 15 51  1  0  0  0  0
 15 52  1  0  0  0  0
 16 19  1  0  0  0  0
 16 53  1  0  0  0  0
 16 54  1  0  0  0  0
 17 22  1  0  0  0  0
 17 23  1  0  0  0  0
 17 55  1  0  0  0  0
 18 56  1  0  0  0  0
 18 57  1  0  0  0  0
 19 20  1  0  0  0  0
 19 58  1  0  0  0  0
 19 59  1  0  0  0  0
 20 60  1  0  0  0  0
 20 61  1  0  0  0  0
 21 25  2  0  0  0  0
 21 26  1  0  0  0  0
 22 62  1  0  0  0  0
 22 63  1  0  0  0  0
 22 64  1  0  0  0  0
 23 65  1  0  0  0  0
 23 66  1  0  0  0  0
 23 67  1  0  0  0  0
 24 27  1  0  0  0  0
 24 28  1  0  0  0  0
 24 69  1  0  0  0  0
 25 29  1  0  0  0  0
 25 71  1  0  0  0  0
 26 30  2  0  0  0  0
 26 72  1  0  0  0  0
 28 31  1  0  0  0  0
 28 73  1  0  0  0  0
 28 74  1  0  0  0  0
 29 35  2  0  0  0  0
 29 76  1  0  0  0  0
 30 35  1  0  0  0  0
 30 77  1  0  0  0  0
 31 38  2  0  0  0  0
 31 39  1  0  0  0  0
 32 36  1  0  0  0  0
 32 78  1  0  0  0  0
 32 79  1  0  0  0  0
 33 37  1  0  0  0  0
 33 80  1  0  0  0  0
 33 81  1  0  0  0  0
 36 82  1  0  0  0  0
 36 83  1  0  0  0  0
 37 84  1  0  0  0  0
 37 85  1  0  0  0  0
 38 40  1  0  0  0  0
 38 86  1  0  0  0  0
 39 42  2  0  0  0  0
 39 87  1  0  0  0  0
 40 41  1  0  0  0  0
 40 43  2  0  0  0  0
 41 42  1  0  0  0  0
 41 44  2  0  0  0  0
 42 88  1  0  0  0  0
 43 45  1  0  0  0  0
 43 89  1  0  0  0  0
 44 46  1  0  0  0  0
 44 90  1  0  0  0  0
 45 46  2  0  0  0  0
 45 91  1  0  0  0  0
 46 92  1  0  0  0  0
 47 93  1  0  0  0  0
 47 94  1  0  0  0  0
 47 95  1  0  0  0  0
M  END
> <PUBCHEM_COMPOUND_CID>
513957
> <PUBCHEM_COMPOUND_CANONICALIZED>
1
> <PUBCHEM_CACTVS_COMPLEXITY>
1060
> <PUBCHEM_CACTVS_HBOND_ACCEPTOR>
8
> <PUBCHEM_CACTVS_HBOND_DONOR>
3
> <PUBCHEM_CACTVS_ROTATABLE_BOND>
16
> <PUBCHEM_CACTVS_SUBSKEYS>
AAADcfB/uABAAAAAAAAAAAAAAAAAAAAAAAA8YMEAAAAAAADBVAAAHgQQSAAADSzh2AYzB8PABgKIAiFSEHBCCBAgIAAIiJmOCIiOdjKEsTuXcCAs1hOYqAeYyMCOwIACAAAQAACBAAQAACAAAAAAAAAAAA==
> <PUBCHEM_IUPAC_OPENEYE_NAME>
N-[(1S)-2-[[(5S)-6-hydroxy-5-[isobutyl-(4-methoxyphenyl)sulfonyl-amino]hexyl]amino]-1-(2-naphthylmethyl)-2-oxo-ethyl]morpholine-4-carboxamide
> <PUBCHEM_IUPAC_CAS_NAME>
N-[(2S)-1-[[(5S)-6-hydroxy-5-[(4-methoxyphenyl)sulfonyl-(2-methylpropyl)amino]hexyl]amino]-3-(2-naphthalenyl)-1-oxopropan-2-yl]-4-morpholinecarboxamide
> <PUBCHEM_IUPAC_NAME_MARKUP>
<I>N</I>-[(2<I>S</I>)-1-[[(5<I>S</I>)-6-hydroxy-5-[(4-methoxyphenyl)sulfonyl-(2-methylpropyl)amino]hexyl]amino]-3-naphthalen-2-yl-1-oxopropan-2-yl]morpholine-4-carboxamide
> <PUBCHEM_IUPAC_NAME>
N-[(2S)-1-[[(5S)-6-hydroxy-5-[(4-methoxyphenyl)sulfonyl-(2-methylpropyl)amino]hexyl]amino]-3-naphthalen-2-yl-1-oxopropan-2-yl]morpholine-4-carboxamide
> <PUBCHEM_IUPAC_SYSTEMATIC_NAME>
N-[(2S)-1-[[(5S)-5-[(4-methoxyphenyl)sulfonyl-(2-methylpropyl)amino]-6-oxidanyl-hexyl]amino]-3-naphthalen-2-yl-1-oxidanylidene-propan-2-yl]morpholine-4-carboxamide
> <PUBCHEM_IUPAC_TRADITIONAL_NAME>
N-[(1S)-2-[[(5S)-6-hydroxy-5-[isobutyl-(4-methoxyphenyl)sulfonyl-amino]hexyl]amino]-2-keto-1-(2-naphthylmethyl)ethyl]morpholine-4-carboxamide
> <PUBCHEM_IUPAC_INCHI>
InChI=1S/C35H48N4O7S/c1-26(2)24-39(47(43,44)32-15-13-31(45-3)14-16-32)30(25-40)10-6-7-17-36-34(41)33(37-35(42)38-18-20-46-21-19-38)23-27-11-12-28-8-4-5-9-29(28)22-27/h4-5,8-9,11-16,22,26,30,33,40H,6-7,10,17-21,23-25H2,1-3H3,(H,36,41)(H,37,42)/t30-,33-/m0/s1
> <PUBCHEM_IUPAC_INCHIKEY>
LIBQZTNROKMVTC-DITALETJSA-N
> <PUBCHEM_XLOGP3_AA>
4.4
> <PUBCHEM_EXACT_MASS>
668.32437106
> <PUBCHEM_MOLECULAR_FORMULA>
C35H48N4O7S
> <PUBCHEM_MOLECULAR_WEIGHT>
668.8
> <PUBCHEM_OPENEYE_CAN_SMILES>
CC(C)CN(C(CCCCNC(=O)C(CC1=CC2=CC=CC=C2C=C1)NC(=O)N3CCOCC3)CO)S(=O)(=O)C4=CC=C(C=C4)OC
> <PUBCHEM_OPENEYE_ISO_SMILES>
CC(C)CN([C@@H](CCCCNC(=O)[C@H](CC1=CC2=CC=CC=C2C=C1)NC(=O)N3CCOCC3)CO)S(=O)(=O)C4=CC=C(C=C4)OC
> <PUBCHEM_CACTVS_TPSA>
146
> <PUBCHEM_MONOISOTOPIC_WEIGHT>
668.32437106
> <PUBCHEM_TOTAL_CHARGE>
0
> <PUBCHEM_HEAVY_ATOM_COUNT>
47
> <PUBCHEM_ATOM_DEF_STEREO_COUNT>
2
> <PUBCHEM_ATOM_UDEF_STEREO_COUNT>
0
> <PUBCHEM_BOND_DEF_STEREO_COUNT>
0
> <PUBCHEM_BOND_UDEF_STEREO_COUNT>
0
> <PUBCHEM_ISOTOPIC_ATOM_COUNT>
0
> <PUBCHEM_COMPONENT_COUNT>
1
> <PUBCHEM_CACTVS_TAUTO_COUNT>
-1
> <PUBCHEM_COORDINATE_TYPE>
1
5
255
> <PUBCHEM_BONDANNOTATIONS>
24  11  6
21  25  8
21  26  8
25  29  8
26  30  8
29  35  8
30  35  8
31  38  8
31  39  8
38  40  8
39  42  8
40  41  8
40  43  8
41  42  8
41  44  8
43  45  8
44  46  8
45  46  8
13  9  6
$$$$
