514035
  -OEChem-10302200282D
 92 95  0     1  0  0  0  0  0999 V2000
    3.7320    3.1012    0.0000 S   0  0  0  0  0  0  0  0  0  0  0  0
    3.7320    7.1012    0.0000 F   0  0  0  0  0  0  0  0  0  0  0  0
    6.3301    1.6012    0.0000 O   0  0  0  0  0  0  0  0  0  0  0  0
    2.7320    3.1012    0.0000 O   0  0  0  0  0  0  0  0  0  0  0  0
    4.7320    3.1012    0.0000 O   0  0  0  0  0  0  0  0  0  0  0  0
    7.1962   -5.8988    0.0000 O   0  0  0  0  0  0  0  0  0  0  0  0
    8.0622   -2.3988    0.0000 O   0  0  0  0  0  0  0  0  0  0  0  0
    3.7320    2.1012    0.0000 N   0  0  3  0  0  0  0  0  0  0  0  0
    5.4641   -5.8988    0.0000 N   0  0  0  0  0  0  0  0  0  0  0  0
    6.3301   -2.3988    0.0000 N   0  0  0  0  0  0  0  0  0  0  0  0
    6.3301   -4.3988    0.0000 N   0  0  0  0  0  0  0  0  0  0  0  0
    5.4641    6.1012    0.0000 N   0  0  0  0  0  0  0  0  0  0  0  0
    4.5981    1.6012    0.0000 C   0  0  1  0  0  0  0  0  0  0  0  0
    4.5981    0.6012    0.0000 C   0  0  0  0  0  0  0  0  0  0  0  0
    2.8660    1.6012    0.0000 C   0  0  0  0  0  0  0  0  0  0  0  0
    5.4641    0.1012    0.0000 C   0  0  0  0  0  0  0  0  0  0  0  0
    2.8660    0.6012    0.0000 C   0  0  0  0  0  0  0  0  0  0  0  0
    5.4641    2.1012    0.0000 C   0  0  0  0  0  0  0  0  0  0  0  0
    5.4641   -0.8988    0.0000 C   0  0  0  0  0  0  0  0  0  0  0  0
    4.3814   -7.1012    0.0000 C   0  0  0  0  0  0  0  0  0  0  0  0
    3.8814   -6.2352    0.0000 C   0  0  0  0  0  0  0  0  0  0  0  0
    5.3596   -6.8933    0.0000 C   0  0  0  0  0  0  0  0  0  0  0  0
    4.5506   -5.4920    0.0000 C   0  0  0  0  0  0  0  0  0  0  0  0
    6.3301   -1.3988    0.0000 C   0  0  0  0  0  0  0  0  0  0  0  0
    3.7320    4.1012    0.0000 C   0  0  0  0  0  0  0  0  0  0  0  0
    2.0000    0.1012    0.0000 C   0  0  0  0  0  0  0  0  0  0  0  0
    3.7320    0.1012    0.0000 C   0  0  0  0  0  0  0  0  0  0  0  0
    7.1962   -3.8988    0.0000 C   0  0  1  0  0  0  0  0  0  0  0  0
    6.3301   -5.3988    0.0000 C   0  0  0  0  0  0  0  0  0  0  0  0
    8.0622   -4.3988    0.0000 C   0  0  0  0  0  0  0  0  0  0  0  0
    7.1962   -2.8988    0.0000 C   0  0  0  0  0  0  0  0  0  0  0  0
    4.5981    4.6012    0.0000 C   0  0  0  0  0  0  0  0  0  0  0  0
    2.8660    4.6012    0.0000 C   0  0  0  0  0  0  0  0  0  0  0  0
    8.9282   -3.8988    0.0000 C   0  0  0  0  0  0  0  0  0  0  0  0
    4.5981    5.6012    0.0000 C   0  0  0  0  0  0  0  0  0  0  0  0
    2.8660    5.6012    0.0000 C   0  0  0  0  0  0  0  0  0  0  0  0
    3.7320    6.1012    0.0000 C   0  0  0  0  0  0  0  0  0  0  0  0
    9.7942   -4.3988    0.0000 C   0  0  0  0  0  0  0  0  0  0  0  0
    8.9282   -2.8988    0.0000 C   0  0  0  0  0  0  0  0  0  0  0  0
   10.6603   -3.8988    0.0000 C   0  0  0  0  0  0  0  0  0  0  0  0
   10.6603   -2.8988    0.0000 C   0  0  0  0  0  0  0  0  0  0  0  0
    9.7942   -2.3988    0.0000 C   0  0  0  0  0  0  0  0  0  0  0  0
   11.5542   -4.4334    0.0000 C   0  0  0  0  0  0  0  0  0  0  0  0
   11.5542   -2.3641    0.0000 C   0  0  0  0  0  0  0  0  0  0  0  0
   12.4603   -3.9196    0.0000 C   0  0  0  0  0  0  0  0  0  0  0  0
   12.4603   -2.8780    0.0000 C   0  0  0  0  0  0  0  0  0  0  0  0
    4.5981    2.2212    0.0000 H   0  0  0  0  0  0  0  0  0  0  0  0
    3.9875    0.7089    0.0000 H   0  0  0  0  0  0  0  0  0  0  0  0
    4.3860    0.0186    0.0000 H   0  0  0  0  0  0  0  0  0  0  0  0
    2.6540    2.1838    0.0000 H   0  0  0  0  0  0  0  0  0  0  0  0
    2.2554    1.4936    0.0000 H   0  0  0  0  0  0  0  0  0  0  0  0
    6.0747   -0.0064    0.0000 H   0  0  0  0  0  0  0  0  0  0  0  0
    5.6762    0.6838    0.0000 H   0  0  0  0  0  0  0  0  0  0  0  0
    2.8660   -0.0188    0.0000 H   0  0  0  0  0  0  0  0  0  0  0  0
    5.8626    2.5762    0.0000 H   0  0  0  0  0  0  0  0  0  0  0  0
    5.0656    2.5762    0.0000 H   0  0  0  0  0  0  0  0  0  0  0  0
    4.8535   -0.7911    0.0000 H   0  0  0  0  0  0  0  0  0  0  0  0
    5.2520   -1.4814    0.0000 H   0  0  0  0  0  0  0  0  0  0  0  0
    3.8150   -7.3534    0.0000 H   0  0  0  0  0  0  0  0  0  0  0  0
    4.5730   -7.6909    0.0000 H   0  0  0  0  0  0  0  0  0  0  0  0
    3.4666   -5.7744    0.0000 H   0  0  0  0  0  0  0  0  0  0  0  0
    3.3798   -6.5996    0.0000 H   0  0  0  0  0  0  0  0  0  0  0  0
    5.4244   -7.5099    0.0000 H   0  0  0  0  0  0  0  0  0  0  0  0
    5.9796   -6.8933    0.0000 H   0  0  0  0  0  0  0  0  0  0  0  0
    4.8606   -4.9551    0.0000 H   0  0  0  0  0  0  0  0  0  0  0  0
    4.0490   -5.1276    0.0000 H   0  0  0  0  0  0  0  0  0  0  0  0
    6.9407   -1.5064    0.0000 H   0  0  0  0  0  0  0  0  0  0  0  0
    6.5422   -0.8162    0.0000 H   0  0  0  0  0  0  0  0  0  0  0  0
    1.6900    0.6382    0.0000 H   0  0  0  0  0  0  0  0  0  0  0  0
    1.4631   -0.2088    0.0000 H   0  0  0  0  0  0  0  0  0  0  0  0
    2.3100   -0.4357    0.0000 H   0  0  0  0  0  0  0  0  0  0  0  0
    3.4220   -0.4357    0.0000 H   0  0  0  0  0  0  0  0  0  0  0  0
    4.2690   -0.2088    0.0000 H   0  0  0  0  0  0  0  0  0  0  0  0
    4.0420    0.6382    0.0000 H   0  0  0  0  0  0  0  0  0  0  0  0
    6.6592   -3.5888    0.0000 H   0  0  0  0  0  0  0  0  0  0  0  0
    5.7932   -2.7088    0.0000 H   0  0  0  0  0  0  0  0  0  0  0  0
    5.7932   -4.0888    0.0000 H   0  0  0  0  0  0  0  0  0  0  0  0
    7.6636   -4.8737    0.0000 H   0  0  0  0  0  0  0  0  0  0  0  0
    8.4607   -4.8737    0.0000 H   0  0  0  0  0  0  0  0  0  0  0  0
    6.8671    1.9112    0.0000 H   0  0  0  0  0  0  0  0  0  0  0  0
    5.1350    4.2912    0.0000 H   0  0  0  0  0  0  0  0  0  0  0  0
    2.3291    4.2912    0.0000 H   0  0  0  0  0  0  0  0  0  0  0  0
    2.3291    5.9112    0.0000 H   0  0  0  0  0  0  0  0  0  0  0  0
    9.7942   -5.0188    0.0000 H   0  0  0  0  0  0  0  0  0  0  0  0
    8.3913   -2.5888    0.0000 H   0  0  0  0  0  0  0  0  0  0  0  0
    9.7942   -1.7788    0.0000 H   0  0  0  0  0  0  0  0  0  0  0  0
    5.4641    6.7212    0.0000 H   0  0  0  0  0  0  0  0  0  0  0  0
    6.0010    5.7912    0.0000 H   0  0  0  0  0  0  0  0  0  0  0  0
   11.5470   -5.0534    0.0000 H   0  0  0  0  0  0  0  0  0  0  0  0
   11.5470   -1.7442    0.0000 H   0  0  0  0  0  0  0  0  0  0  0  0
   12.9960   -4.2317    0.0000 H   0  0  0  0  0  0  0  0  0  0  0  0
   12.9960   -2.5659    0.0000 H   0  0  0  0  0  0  0  0  0  0  0  0
  1  4  2  0  0  0  0
  1  5  2  0  0  0  0
  1  8  1  0  0  0  0
  1 25  1  0  0  0  0
  2 37  1  0  0  0  0
  3 18  1  0  0  0  0
  3 80  1  0  0  0  0
  6 29  2  0  0  0  0
  7 31  2  0  0  0  0
 13  8  1  6  0  0  0
  8 15  1  0  0  0  0
  9 22  1  0  0  0  0
  9 23  1  0  0  0  0
  9 29  1  0  0  0  0
 10 24  1  0  0  0  0
 10 31  1  0  0  0  0
 10 76  1  0  0  0  0
 28 11  1  6  0  0  0
 11 29  1  0  0  0  0
 11 77  1  0  0  0  0
 12 35  1  0  0  0  0
 12 87  1  0  0  0  0
 12 88  1  0  0  0  0
 13 14  1  0  0  0  0
 13 18  1  0  0  0  0
 13 47  1  0  0  0  0
 14 16  1  0  0  0  0
 14 48  1  0  0  0  0
 14 49  1  0  0  0  0
 15 17  1  0  0  0  0
 15 50  1  0  0  0  0
 15 51  1  0  0  0  0
 16 19  1  0  0  0  0
 16 52  1  0  0  0  0
 16 53  1  0  0  0  0
 17 26  1  0  0  0  0
 17 27  1  0  0  0  0
 17 54  1  0  0  0  0
 18 55  1  0  0  0  0
 18 56  1  0  0  0  0
 19 24  1  0  0  0  0
 19 57  1  0  0  0  0
 19 58  1  0  0  0  0
 20 21  1  0  0  0  0
 20 22  1  0  0  0  0
 20 59  1  0  0  0  0
 20 60  1  0  0  0  0
 21 23  1  0  0  0  0
 21 61  1  0  0  0  0
 21 62  1  0  0  0  0
 22 63  1  0  0  0  0
 22 64  1  0  0  0  0
 23 65  1  0  0  0  0
 23 66  1  0  0  0  0
 24 67  1  0  0  0  0
 24 68  1  0  0  0  0
 25 32  2  0  0  0  0
 25 33  1  0  0  0  0
 26 69  1  0  0  0  0
 26 70  1  0  0  0  0
 26 71  1  0  0  0  0
 27 72  1  0  0  0  0
 27 73  1  0  0  0  0
 27 74  1  0  0  0  0
 28 30  1  0  0  0  0
 28 31  1  0  0  0  0
 28 75  1  0  0  0  0
 30 34  1  0  0  0  0
 30 78  1  0  0  0  0
 30 79  1  0  0  0  0
 32 35  1  0  0  0  0
 32 81  1  0  0  0  0
 33 36  2  0  0  0  0
 33 82  1  0  0  0  0
 34 38  2  0  0  0  0
 34 39  1  0  0  0  0
 35 37  2  0  0  0  0
 36 37  1  0  0  0  0
 36 83  1  0  0  0  0
 38 40  1  0  0  0  0
 38 84  1  0  0  0  0
 39 42  2  0  0  0  0
 39 85  1  0  0  0  0
 40 41  1  0  0  0  0
 40 43  2  0  0  0  0
 41 42  1  0  0  0  0
 41 44  2  0  0  0  0
 42 86  1  0  0  0  0
 43 45  1  0  0  0  0
 43 89  1  0  0  0  0
 44 46  1  0  0  0  0
 44 90  1  0  0  0  0
 45 46  2  0  0  0  0
 45 91  1  0  0  0  0
 46 92  1  0  0  0  0
M  END
> <PUBCHEM_COMPOUND_CID>
514035
> <PUBCHEM_COMPOUND_CANONICALIZED>
1
> <PUBCHEM_CACTVS_COMPLEXITY>
1070
> <PUBCHEM_CACTVS_HBOND_ACCEPTOR>
8
> <PUBCHEM_CACTVS_HBOND_DONOR>
4
> <PUBCHEM_CACTVS_ROTATABLE_BOND>
15
> <PUBCHEM_CACTVS_SUBSKEYS>
AAADcfB/uQBAAAAAAAAAAAAAAAAAAWAAAAAwYMAAAAAAAADBVAAAHwQQSAAADSjh2A4zwcPAAgKIAiVSUHDCABAgAgAIiJmIZIiKcDKAkbGUYARslgKYyAeYyMCOwAACACAQAACAAAQAQCAAAAAAAAAAAA==
> <PUBCHEM_IUPAC_OPENEYE_NAME>
N-[(1S)-2-[[(5S)-5-[(3-amino-4-fluoro-phenyl)sulfonyl-isobutyl-amino]-6-hydroxy-hexyl]amino]-1-(2-naphthylmethyl)-2-oxo-ethyl]pyrrolidine-1-carboxamide
> <PUBCHEM_IUPAC_CAS_NAME>
N-[(2S)-1-[[(5S)-5-[(3-amino-4-fluorophenyl)sulfonyl-(2-methylpropyl)amino]-6-hydroxyhexyl]amino]-3-(2-naphthalenyl)-1-oxopropan-2-yl]-1-pyrrolidinecarboxamide
> <PUBCHEM_IUPAC_NAME_MARKUP>
<I>N</I>-[(2<I>S</I>)-1-[[(5<I>S</I>)-5-[(3-amino-4-fluorophenyl)sulfonyl-(2-methylpropyl)amino]-6-hydroxyhexyl]amino]-3-naphthalen-2-yl-1-oxopropan-2-yl]pyrrolidine-1-carboxamide
> <PUBCHEM_IUPAC_NAME>
N-[(2S)-1-[[(5S)-5-[(3-amino-4-fluorophenyl)sulfonyl-(2-methylpropyl)amino]-6-hydroxyhexyl]amino]-3-naphthalen-2-yl-1-oxopropan-2-yl]pyrrolidine-1-carboxamide
> <PUBCHEM_IUPAC_SYSTEMATIC_NAME>
N-[(2S)-1-[[(5S)-5-[(3-azanyl-4-fluoranyl-phenyl)sulfonyl-(2-methylpropyl)amino]-6-oxidanyl-hexyl]amino]-3-naphthalen-2-yl-1-oxidanylidene-propan-2-yl]pyrrolidine-1-carboxamide
> <PUBCHEM_IUPAC_TRADITIONAL_NAME>
N-[(1S)-2-[[(5S)-5-[(3-amino-4-fluoro-phenyl)sulfonyl-isobutyl-amino]-6-hydroxy-hexyl]amino]-2-keto-1-(2-naphthylmethyl)ethyl]pyrrolidine-1-carboxamide
> <PUBCHEM_IUPAC_INCHI>
InChI=1S/C34H46FN5O5S/c1-24(2)22-40(46(44,45)29-14-15-30(35)31(36)21-29)28(23-41)11-5-6-16-37-33(42)32(38-34(43)39-17-7-8-18-39)20-25-12-13-26-9-3-4-10-27(26)19-25/h3-4,9-10,12-15,19,21,24,28,32,41H,5-8,11,16-18,20,22-23,36H2,1-2H3,(H,37,42)(H,38,43)/t28-,32-/m0/s1
> <PUBCHEM_IUPAC_INCHIKEY>
HAYDBGFYSXPOTD-IUDBTDONSA-N
> <PUBCHEM_XLOGP3_AA>
4.7
> <PUBCHEM_EXACT_MASS>
655.32036892
> <PUBCHEM_MOLECULAR_FORMULA>
C34H46FN5O5S
> <PUBCHEM_MOLECULAR_WEIGHT>
655.8
> <PUBCHEM_OPENEYE_CAN_SMILES>
CC(C)CN(C(CCCCNC(=O)C(CC1=CC2=CC=CC=C2C=C1)NC(=O)N3CCCC3)CO)S(=O)(=O)C4=CC(=C(C=C4)F)N
> <PUBCHEM_OPENEYE_ISO_SMILES>
CC(C)CN([C@@H](CCCCNC(=O)[C@H](CC1=CC2=CC=CC=C2C=C1)NC(=O)N3CCCC3)CO)S(=O)(=O)C4=CC(=C(C=C4)F)N
> <PUBCHEM_CACTVS_TPSA>
153
> <PUBCHEM_MONOISOTOPIC_WEIGHT>
655.32036892
> <PUBCHEM_TOTAL_CHARGE>
0
> <PUBCHEM_HEAVY_ATOM_COUNT>
46
> <PUBCHEM_ATOM_DEF_STEREO_COUNT>
2
> <PUBCHEM_ATOM_UDEF_STEREO_COUNT>
0
> <PUBCHEM_BOND_DEF_STEREO_COUNT>
0
> <PUBCHEM_BOND_UDEF_STEREO_COUNT>
0
> <PUBCHEM_ISOTOPIC_ATOM_COUNT>
0
> <PUBCHEM_COMPONENT_COUNT>
1
> <PUBCHEM_CACTVS_TAUTO_COUNT>
-1
> <PUBCHEM_COORDINATE_TYPE>
1
5
255
> <PUBCHEM_BONDANNOTATIONS>
28  11  6
25  32  8
25  33  8
32  35  8
33  36  8
34  38  8
34  39  8
35  37  8
36  37  8
38  40  8
39  42  8
40  41  8
40  43  8
41  42  8
41  44  8
43  45  8
44  46  8
45  46  8
13  8  6
$$$$
