514027
  -OEChem-10302200282D
 97100  0     1  0  0  0  0  0999 V2000
    4.6200    2.9816    0.0000 S   0  0  0  0  0  0  0  0  0  0  0  0
    6.1200    3.8476    0.0000 O   0  0  0  0  0  0  0  0  0  0  0  0
    3.7540    2.4816    0.0000 O   0  0  0  0  0  0  0  0  0  0  0  0
    5.4860    3.4815    0.0000 O   0  0  0  0  0  0  0  0  0  0  0  0
   10.6200    0.5174    0.0000 O   0  0  0  0  0  0  0  0  0  0  0  0
    9.7540   -1.9826    0.0000 O   0  0  0  0  0  0  0  0  0  0  0  0
    8.8880   -5.4826    0.0000 O   0  0  0  0  0  0  0  0  0  0  0  0
   11.4860   -6.9826    0.0000 O   0  5  0  0  0  0  0  0  0  0  0  0
    9.7540   -6.9826    0.0000 O   0  0  0  0  0  0  0  0  0  0  0  0
    5.1200    2.1156    0.0000 N   0  0  3  0  0  0  0  0  0  0  0  0
    9.6200   -0.4825    0.0000 N   0  0  0  0  0  0  0  0  0  0  0  0
   11.4860   -1.9826    0.0000 N   0  0  0  0  0  0  0  0  0  0  0  0
    2.6200    6.4456    0.0000 N   0  0  0  0  0  0  0  0  0  0  0  0
   10.6200   -6.4826    0.0000 N   0  3  0  0  0  0  0  0  0  0  0  0
    6.1200    2.1156    0.0000 C   0  0  1  0  0  0  0  0  0  0  0  0
    6.6200    1.2496    0.0000 C   0  0  0  0  0  0  0  0  0  0  0  0
    4.6200    1.2496    0.0000 C   0  0  0  0  0  0  0  0  0  0  0  0
    7.6200    1.2496    0.0000 C   0  0  0  0  0  0  0  0  0  0  0  0
    3.6200    1.2496    0.0000 C   0  0  0  0  0  0  0  0  0  0  0  0
    6.6200    2.9815    0.0000 C   0  0  0  0  0  0  0  0  0  0  0  0
    8.1200    0.3835    0.0000 C   0  0  0  0  0  0  0  0  0  0  0  0
    9.1201    0.3835    0.0000 C   0  0  0  0  0  0  0  0  0  0  0  0
    4.1200    3.8476    0.0000 C   0  0  0  0  0  0  0  0  0  0  0  0
    3.1200    0.3835    0.0000 C   0  0  0  0  0  0  0  0  0  0  0  0
    3.1200    2.1156    0.0000 C   0  0  0  0  0  0  0  0  0  0  0  0
   11.4860   -0.9826    0.0000 C   0  0  1  0  0  0  0  0  0  0  0  0
   12.3521   -0.4826    0.0000 C   0  0  0  0  0  0  0  0  0  0  0  0
   10.6200   -0.4826    0.0000 C   0  0  0  0  0  0  0  0  0  0  0  0
    4.6200    4.7136    0.0000 C   0  0  0  0  0  0  0  0  0  0  0  0
    3.1200    3.8476    0.0000 C   0  0  0  0  0  0  0  0  0  0  0  0
   12.3521    0.5174    0.0000 C   0  0  0  0  0  0  0  0  0  0  0  0
   13.2181   -0.9826    0.0000 C   0  0  0  0  0  0  0  0  0  0  0  0
    4.1200    5.5796    0.0000 C   0  0  0  0  0  0  0  0  0  0  0  0
    2.6200    4.7136    0.0000 C   0  0  0  0  0  0  0  0  0  0  0  0
    3.1200    5.5796    0.0000 C   0  0  0  0  0  0  0  0  0  0  0  0
   13.2181    1.0174    0.0000 C   0  0  0  0  0  0  0  0  0  0  0  0
   14.0841   -0.4826    0.0000 C   0  0  0  0  0  0  0  0  0  0  0  0
   11.4860    1.0174    0.0000 C   0  0  0  0  0  0  0  0  0  0  0  0
   13.2181   -1.9826    0.0000 C   0  0  0  0  0  0  0  0  0  0  0  0
   10.6200   -2.4826    0.0000 C   0  0  0  0  0  0  0  0  0  0  0  0
   13.2181    2.0174    0.0000 C   0  0  0  0  0  0  0  0  0  0  0  0
   14.9501   -0.9826    0.0000 C   0  0  0  0  0  0  0  0  0  0  0  0
   11.4860    2.0174    0.0000 C   0  0  0  0  0  0  0  0  0  0  0  0
   14.0841   -2.4826    0.0000 C   0  0  0  0  0  0  0  0  0  0  0  0
   10.6200   -3.4826    0.0000 C   0  0  0  0  0  0  0  0  0  0  0  0
   12.3521    2.5174    0.0000 C   0  0  0  0  0  0  0  0  0  0  0  0
   14.9501   -1.9826    0.0000 C   0  0  0  0  0  0  0  0  0  0  0  0
    9.7540   -3.9826    0.0000 C   0  0  0  0  0  0  0  0  0  0  0  0
   11.4860   -3.9826    0.0000 C   0  0  0  0  0  0  0  0  0  0  0  0
    9.7540   -4.9826    0.0000 C   0  0  0  0  0  0  0  0  0  0  0  0
   11.4860   -4.9826    0.0000 C   0  0  0  0  0  0  0  0  0  0  0  0
   10.6200   -5.4826    0.0000 C   0  0  0  0  0  0  0  0  0  0  0  0
    5.8101    2.6525    0.0000 H   0  0  0  0  0  0  0  0  0  0  0  0
    6.0374    1.0375    0.0000 H   0  0  0  0  0  0  0  0  0  0  0  0
    6.7277    0.6390    0.0000 H   0  0  0  0  0  0  0  0  0  0  0  0
    4.5124    0.6390    0.0000 H   0  0  0  0  0  0  0  0  0  0  0  0
    5.2026    1.0375    0.0000 H   0  0  0  0  0  0  0  0  0  0  0  0
    8.2027    1.4616    0.0000 H   0  0  0  0  0  0  0  0  0  0  0  0
    7.5124    1.8602    0.0000 H   0  0  0  0  0  0  0  0  0  0  0  0
    3.0000    1.2496    0.0000 H   0  0  0  0  0  0  0  0  0  0  0  0
    7.0950    2.5830    0.0000 H   0  0  0  0  0  0  0  0  0  0  0  0
    7.0950    3.3801    0.0000 H   0  0  0  0  0  0  0  0  0  0  0  0
    7.5374    0.1715    0.0000 H   0  0  0  0  0  0  0  0  0  0  0  0
    8.2277   -0.2270    0.0000 H   0  0  0  0  0  0  0  0  0  0  0  0
    9.7027    0.5956    0.0000 H   0  0  0  0  0  0  0  0  0  0  0  0
    9.0124    0.9941    0.0000 H   0  0  0  0  0  0  0  0  0  0  0  0
    2.5831    0.6935    0.0000 H   0  0  0  0  0  0  0  0  0  0  0  0
    2.8100   -0.1534    0.0000 H   0  0  0  0  0  0  0  0  0  0  0  0
    3.6569    0.0735    0.0000 H   0  0  0  0  0  0  0  0  0  0  0  0
    3.6570    2.4256    0.0000 H   0  0  0  0  0  0  0  0  0  0  0  0
    2.8100    2.6525    0.0000 H   0  0  0  0  0  0  0  0  0  0  0  0
    2.5831    1.8056    0.0000 H   0  0  0  0  0  0  0  0  0  0  0  0
   12.0230   -1.2926    0.0000 H   0  0  0  0  0  0  0  0  0  0  0  0
   11.8151   -0.1726    0.0000 H   0  0  0  0  0  0  0  0  0  0  0  0
    9.3100   -1.0195    0.0000 H   0  0  0  0  0  0  0  0  0  0  0  0
    6.4300    4.3845    0.0000 H   0  0  0  0  0  0  0  0  0  0  0  0
    5.2400    4.7136    0.0000 H   0  0  0  0  0  0  0  0  0  0  0  0
    2.8100    3.3107    0.0000 H   0  0  0  0  0  0  0  0  0  0  0  0
   12.0230   -2.2926    0.0000 H   0  0  0  0  0  0  0  0  0  0  0  0
    4.4300    6.1165    0.0000 H   0  0  0  0  0  0  0  0  0  0  0  0
    2.0000    4.7136    0.0000 H   0  0  0  0  0  0  0  0  0  0  0  0
   13.7550    0.7074    0.0000 H   0  0  0  0  0  0  0  0  0  0  0  0
   14.0841    0.1374    0.0000 H   0  0  0  0  0  0  0  0  0  0  0  0
   10.9491    0.7074    0.0000 H   0  0  0  0  0  0  0  0  0  0  0  0
   12.6811   -2.2926    0.0000 H   0  0  0  0  0  0  0  0  0  0  0  0
   13.7550    2.3274    0.0000 H   0  0  0  0  0  0  0  0  0  0  0  0
   15.4871   -0.6726    0.0000 H   0  0  0  0  0  0  0  0  0  0  0  0
   10.9491    2.3274    0.0000 H   0  0  0  0  0  0  0  0  0  0  0  0
   14.0841   -3.1026    0.0000 H   0  0  0  0  0  0  0  0  0  0  0  0
   12.3521    3.1374    0.0000 H   0  0  0  0  0  0  0  0  0  0  0  0
   15.4871   -2.2926    0.0000 H   0  0  0  0  0  0  0  0  0  0  0  0
    2.0000    6.4456    0.0000 H   0  0  0  0  0  0  0  0  0  0  0  0
    2.9300    6.9826    0.0000 H   0  0  0  0  0  0  0  0  0  0  0  0
    9.2170   -3.6726    0.0000 H   0  0  0  0  0  0  0  0  0  0  0  0
   12.0230   -3.6726    0.0000 H   0  0  0  0  0  0  0  0  0  0  0  0
   12.0230   -5.2926    0.0000 H   0  0  0  0  0  0  0  0  0  0  0  0
    8.3510   -5.1726    0.0000 H   0  0  0  0  0  0  0  0  0  0  0  0
  1  3  2  0  0  0  0
  1  4  2  0  0  0  0
  1 10  1  0  0  0  0
  1 23  1  0  0  0  0
  2 20  1  0  0  0  0
  2 76  1  0  0  0  0
  5 28  2  0  0  0  0
  6 40  2  0  0  0  0
  7 50  1  0  0  0  0
  7 97  1  0  0  0  0
  8 14  1  0  0  0  0
  9 14  2  0  0  0  0
 15 10  1  6  0  0  0
 10 17  1  0  0  0  0
 11 22  1  0  0  0  0
 11 28  1  0  0  0  0
 11 75  1  0  0  0  0
 26 12  1  6  0  0  0
 12 40  1  0  0  0  0
 12 79  1  0  0  0  0
 13 35  1  0  0  0  0
 13 92  1  0  0  0  0
 13 93  1  0  0  0  0
 14 52  1  0  0  0  0
 15 16  1  0  0  0  0
 15 20  1  0  0  0  0
 15 53  1  0  0  0  0
 16 18  1  0  0  0  0
 16 54  1  0  0  0  0
 16 55  1  0  0  0  0
 17 19  1  0  0  0  0
 17 56  1  0  0  0  0
 17 57  1  0  0  0  0
 18 21  1  0  0  0  0
 18 58  1  0  0  0  0
 18 59  1  0  0  0  0
 19 24  1  0  0  0  0
 19 25  1  0  0  0  0
 19 60  1  0  0  0  0
 20 61  1  0  0  0  0
 20 62  1  0  0  0  0
 21 22  1  0  0  0  0
 21 63  1  0  0  0  0
 21 64  1  0  0  0  0
 22 65  1  0  0  0  0
 22 66  1  0  0  0  0
 23 29  2  0  0  0  0
 23 30  1  0  0  0  0
 24 67  1  0  0  0  0
 24 68  1  0  0  0  0
 24 69  1  0  0  0  0
 25 70  1  0  0  0  0
 25 71  1  0  0  0  0
 25 72  1  0  0  0  0
 26 27  1  0  0  0  0
 26 28  1  0  0  0  0
 26 73  1  0  0  0  0
 27 31  1  0  0  0  0
 27 32  1  0  0  0  0
 27 74  1  0  0  0  0
 29 33  1  0  0  0  0
 29 77  1  0  0  0  0
 30 34  2  0  0  0  0
 30 78  1  0  0  0  0
 31 36  2  0  0  0  0
 31 38  1  0  0  0  0
 32 37  2  0  0  0  0
 32 39  1  0  0  0  0
 33 35  2  0  0  0  0
 33 80  1  0  0  0  0
 34 35  1  0  0  0  0
 34 81  1  0  0  0  0
 36 41  1  0  0  0  0
 36 82  1  0  0  0  0
 37 42  1  0  0  0  0
 37 83  1  0  0  0  0
 38 43  2  0  0  0  0
 38 84  1  0  0  0  0
 39 44  2  0  0  0  0
 39 85  1  0  0  0  0
 40 45  1  0  0  0  0
 41 46  2  0  0  0  0
 41 86  1  0  0  0  0
 42 47  2  0  0  0  0
 42 87  1  0  0  0  0
 43 46  1  0  0  0  0
 43 88  1  0  0  0  0
 44 47  1  0  0  0  0
 44 89  1  0  0  0  0
 45 48  2  0  0  0  0
 45 49  1  0  0  0  0
 46 90  1  0  0  0  0
 47 91  1  0  0  0  0
 48 50  1  0  0  0  0
 48 94  1  0  0  0  0
 49 51  2  0  0  0  0
 49 95  1  0  0  0  0
 50 52  2  0  0  0  0
 51 52  1  0  0  0  0
 51 96  1  0  0  0  0
M  CHG  2   8  -1  14   1
M  END
> <PUBCHEM_COMPOUND_CID>
514027
> <PUBCHEM_COMPOUND_CANONICALIZED>
1
> <PUBCHEM_CACTVS_COMPLEXITY>
1200
> <PUBCHEM_CACTVS_HBOND_ACCEPTOR>
10
> <PUBCHEM_CACTVS_HBOND_DONOR>
5
> <PUBCHEM_CACTVS_ROTATABLE_BOND>
17
> <PUBCHEM_CACTVS_SUBSKEYS>
AAADcfB/vABAAAAAAAAAAAAAAAAAAAAAAAAwYMGAAAAAAAABVAAAHgQUSAAADSzh2AYyx4LQQgKJAiVSU3DCABAkIgAoiJmPbMoKdjKSlbOUcQhk1lGY2Ye6ydCeiAQBAAAAEAAQCAIAAAAgAAAAAAAAAA==
> <PUBCHEM_IUPAC_OPENEYE_NAME>
N-[(1S)-1-[[(5S)-5-[(4-aminophenyl)sulfonyl-isobutyl-amino]-6-hydroxy-hexyl]carbamoyl]-2,2-diphenyl-ethyl]-3-hydroxy-4-nitro-benzamide
> <PUBCHEM_IUPAC_CAS_NAME>
N-[(2S)-1-[[(5S)-5-[(4-aminophenyl)sulfonyl-(2-methylpropyl)amino]-6-hydroxyhexyl]amino]-1-oxo-3,3-diphenylpropan-2-yl]-3-hydroxy-4-nitrobenzamide
> <PUBCHEM_IUPAC_NAME_MARKUP>
<I>N</I>-[(2<I>S</I>)-1-[[(5<I>S</I>)-5-[(4-aminophenyl)sulfonyl-(2-methylpropyl)amino]-6-hydroxyhexyl]amino]-1-oxo-3,3-diphenylpropan-2-yl]-3-hydroxy-4-nitrobenzamide
> <PUBCHEM_IUPAC_NAME>
N-[(2S)-1-[[(5S)-5-[(4-aminophenyl)sulfonyl-(2-methylpropyl)amino]-6-hydroxyhexyl]amino]-1-oxo-3,3-diphenylpropan-2-yl]-3-hydroxy-4-nitrobenzamide
> <PUBCHEM_IUPAC_SYSTEMATIC_NAME>
N-[(2S)-1-[[(5S)-5-[(4-aminophenyl)sulfonyl-(2-methylpropyl)amino]-6-oxidanyl-hexyl]amino]-1-oxidanylidene-3,3-diphenyl-propan-2-yl]-4-nitro-3-oxidanyl-benzamide
> <PUBCHEM_IUPAC_TRADITIONAL_NAME>
N-[(1S)-1-benzhydryl-2-[[(5S)-6-hydroxy-5-[isobutyl(sulfanilyl)amino]hexyl]amino]-2-keto-ethyl]-3-hydroxy-4-nitro-benzamide
> <PUBCHEM_IUPAC_INCHI>
InChI=1S/C38H45N5O8S/c1-26(2)24-42(52(50,51)32-19-17-30(39)18-20-32)31(25-44)15-9-10-22-40-38(47)36(41-37(46)29-16-21-33(43(48)49)34(45)23-29)35(27-11-5-3-6-12-27)28-13-7-4-8-14-28/h3-8,11-14,16-21,23,26,31,35-36,44-45H,9-10,15,22,24-25,39H2,1-2H3,(H,40,47)(H,41,46)/t31-,36-/m0/s1
> <PUBCHEM_IUPAC_INCHIKEY>
FFYUPIXBYQYESZ-NWWLCHBLSA-N
> <PUBCHEM_XLOGP3_AA>
6
> <PUBCHEM_EXACT_MASS>
731.29888458
> <PUBCHEM_MOLECULAR_FORMULA>
C38H45N5O8S
> <PUBCHEM_MOLECULAR_WEIGHT>
731.9
> <PUBCHEM_OPENEYE_CAN_SMILES>
CC(C)CN(C(CCCCNC(=O)C(C(C1=CC=CC=C1)C2=CC=CC=C2)NC(=O)C3=CC(=C(C=C3)[N+](=O)[O-])O)CO)S(=O)(=O)C4=CC=C(C=C4)N
> <PUBCHEM_OPENEYE_ISO_SMILES>
CC(C)CN([C@@H](CCCCNC(=O)[C@H](C(C1=CC=CC=C1)C2=CC=CC=C2)NC(=O)C3=CC(=C(C=C3)[N+](=O)[O-])O)CO)S(=O)(=O)C4=CC=C(C=C4)N
> <PUBCHEM_CACTVS_TPSA>
216
> <PUBCHEM_MONOISOTOPIC_WEIGHT>
731.29888458
> <PUBCHEM_TOTAL_CHARGE>
0
> <PUBCHEM_HEAVY_ATOM_COUNT>
52
> <PUBCHEM_ATOM_DEF_STEREO_COUNT>
2
> <PUBCHEM_ATOM_UDEF_STEREO_COUNT>
0
> <PUBCHEM_BOND_DEF_STEREO_COUNT>
0
> <PUBCHEM_BOND_UDEF_STEREO_COUNT>
0
> <PUBCHEM_ISOTOPIC_ATOM_COUNT>
0
> <PUBCHEM_COMPONENT_COUNT>
1
> <PUBCHEM_CACTVS_TAUTO_COUNT>
-1
> <PUBCHEM_COORDINATE_TYPE>
1
5
255
> <PUBCHEM_BONDANNOTATIONS>
15  10  6
26  12  6
23  29  8
23  30  8
29  33  8
30  34  8
31  36  8
31  38  8
32  37  8
32  39  8
33  35  8
34  35  8
36  41  8
37  42  8
38  43  8
39  44  8
41  46  8
42  47  8
43  46  8
44  47  8
45  48  8
45  49  8
48  50  8
49  51  8
50  52  8
51  52  8
$$$$
