514000
  -OEChem-10302200282D
 86 88  0     1  0  0  0  0  0999 V2000
    3.7320   -3.2500    0.0000 S   0  0  0  0  0  0  0  0  0  0  0  0
    3.7320   -7.2500    0.0000 F   0  0  0  0  0  0  0  0  0  0  0  0
    6.3301   -1.7500    0.0000 O   0  0  0  0  0  0  0  0  0  0  0  0
    4.7320   -3.2500    0.0000 O   0  0  0  0  0  0  0  0  0  0  0  0
    2.7320   -3.2500    0.0000 O   0  0  0  0  0  0  0  0  0  0  0  0
    8.0622    2.2500    0.0000 O   0  0  0  0  0  0  0  0  0  0  0  0
    4.8302    5.1161    0.0000 O   0  0  0  0  0  0  0  0  0  0  0  0
    4.8302    3.3839    0.0000 O   0  0  0  0  0  0  0  0  0  0  0  0
    3.7320   -2.2500    0.0000 N   0  0  3  0  0  0  0  0  0  0  0  0
    6.3301    2.2500    0.0000 N   0  0  0  0  0  0  0  0  0  0  0  0
    6.3301    4.2500    0.0000 N   0  0  0  0  0  0  0  0  0  0  0  0
    4.5981   -1.7500    0.0000 C   0  0  1  0  0  0  0  0  0  0  0  0
    4.5981   -0.7500    0.0000 C   0  0  0  0  0  0  0  0  0  0  0  0
    2.8660   -1.7500    0.0000 C   0  0  0  0  0  0  0  0  0  0  0  0
    5.4641   -0.2500    0.0000 C   0  0  0  0  0  0  0  0  0  0  0  0
    2.8660   -0.7500    0.0000 C   0  0  0  0  0  0  0  0  0  0  0  0
    5.4641   -2.2500    0.0000 C   0  0  0  0  0  0  0  0  0  0  0  0
    5.4641    0.7500    0.0000 C   0  0  0  0  0  0  0  0  0  0  0  0
    6.3301    1.2500    0.0000 C   0  0  0  0  0  0  0  0  0  0  0  0
    3.7320   -4.2500    0.0000 C   0  0  0  0  0  0  0  0  0  0  0  0
    2.0000   -0.2500    0.0000 C   0  0  0  0  0  0  0  0  0  0  0  0
    3.7320   -0.2500    0.0000 C   0  0  0  0  0  0  0  0  0  0  0  0
    7.1962    3.7500    0.0000 C   0  0  1  0  0  0  0  0  0  0  0  0
    8.0622    4.2500    0.0000 C   0  0  0  0  0  0  0  0  0  0  0  0
    7.1962    2.7500    0.0000 C   0  0  0  0  0  0  0  0  0  0  0  0
    4.5981   -4.7500    0.0000 C   0  0  0  0  0  0  0  0  0  0  0  0
    2.8660   -4.7500    0.0000 C   0  0  0  0  0  0  0  0  0  0  0  0
    8.0622    5.2500    0.0000 C   0  0  0  0  0  0  0  0  0  0  0  0
    8.9282    3.7500    0.0000 C   0  0  0  0  0  0  0  0  0  0  0  0
    4.5981   -5.7500    0.0000 C   0  0  0  0  0  0  0  0  0  0  0  0
    2.8660   -5.7500    0.0000 C   0  0  0  0  0  0  0  0  0  0  0  0
    8.9282    5.7500    0.0000 C   0  0  0  0  0  0  0  0  0  0  0  0
    8.9282    2.7500    0.0000 C   0  0  0  0  0  0  0  0  0  0  0  0
    7.1962    5.7500    0.0000 C   0  0  0  0  0  0  0  0  0  0  0  0
    9.7942    4.2500    0.0000 C   0  0  0  0  0  0  0  0  0  0  0  0
    3.7320   -6.2500    0.0000 C   0  0  0  0  0  0  0  0  0  0  0  0
    5.3301    4.2500    0.0000 C   0  0  0  0  0  0  0  0  0  0  0  0
    8.9282    6.7500    0.0000 C   0  0  0  0  0  0  0  0  0  0  0  0
    9.7942    2.2500    0.0000 C   0  0  0  0  0  0  0  0  0  0  0  0
    7.1962    6.7500    0.0000 C   0  0  0  0  0  0  0  0  0  0  0  0
   10.6603    3.7500    0.0000 C   0  0  0  0  0  0  0  0  0  0  0  0
    8.0622    7.2500    0.0000 C   0  0  0  0  0  0  0  0  0  0  0  0
   10.6603    2.7500    0.0000 C   0  0  0  0  0  0  0  0  0  0  0  0
    3.8302    5.1161    0.0000 C   0  0  0  0  0  0  0  0  0  0  0  0
    4.5981   -2.3700    0.0000 H   0  0  0  0  0  0  0  0  0  0  0  0
    4.3860   -0.1674    0.0000 H   0  0  0  0  0  0  0  0  0  0  0  0
    3.9875   -0.8577    0.0000 H   0  0  0  0  0  0  0  0  0  0  0  0
    2.2554   -1.6423    0.0000 H   0  0  0  0  0  0  0  0  0  0  0  0
    2.6540   -2.3326    0.0000 H   0  0  0  0  0  0  0  0  0  0  0  0
    5.6762   -0.8326    0.0000 H   0  0  0  0  0  0  0  0  0  0  0  0
    6.0747   -0.1423    0.0000 H   0  0  0  0  0  0  0  0  0  0  0  0
    2.8660   -0.1300    0.0000 H   0  0  0  0  0  0  0  0  0  0  0  0
    5.0656   -2.7250    0.0000 H   0  0  0  0  0  0  0  0  0  0  0  0
    5.8626   -2.7250    0.0000 H   0  0  0  0  0  0  0  0  0  0  0  0
    5.2520    1.3326    0.0000 H   0  0  0  0  0  0  0  0  0  0  0  0
    4.8535    0.6423    0.0000 H   0  0  0  0  0  0  0  0  0  0  0  0
    6.5422    0.6674    0.0000 H   0  0  0  0  0  0  0  0  0  0  0  0
    6.9407    1.3577    0.0000 H   0  0  0  0  0  0  0  0  0  0  0  0
    2.3100    0.2869    0.0000 H   0  0  0  0  0  0  0  0  0  0  0  0
    1.4631    0.0600    0.0000 H   0  0  0  0  0  0  0  0  0  0  0  0
    1.6900   -0.7869    0.0000 H   0  0  0  0  0  0  0  0  0  0  0  0
    4.0420   -0.7869    0.0000 H   0  0  0  0  0  0  0  0  0  0  0  0
    4.2690    0.0600    0.0000 H   0  0  0  0  0  0  0  0  0  0  0  0
    3.4220    0.2869    0.0000 H   0  0  0  0  0  0  0  0  0  0  0  0
    6.6592    3.4400    0.0000 H   0  0  0  0  0  0  0  0  0  0  0  0
    8.0622    3.6300    0.0000 H   0  0  0  0  0  0  0  0  0  0  0  0
    5.7101    2.2500    0.0000 H   0  0  0  0  0  0  0  0  0  0  0  0
    6.8671   -2.0600    0.0000 H   0  0  0  0  0  0  0  0  0  0  0  0
    5.1350   -4.4400    0.0000 H   0  0  0  0  0  0  0  0  0  0  0  0
    2.3291   -4.4400    0.0000 H   0  0  0  0  0  0  0  0  0  0  0  0
    6.3301    4.8700    0.0000 H   0  0  0  0  0  0  0  0  0  0  0  0
    5.1350   -6.0600    0.0000 H   0  0  0  0  0  0  0  0  0  0  0  0
    2.3291   -6.0600    0.0000 H   0  0  0  0  0  0  0  0  0  0  0  0
    9.4651    5.4400    0.0000 H   0  0  0  0  0  0  0  0  0  0  0  0
    8.3913    2.4400    0.0000 H   0  0  0  0  0  0  0  0  0  0  0  0
    6.6592    5.4400    0.0000 H   0  0  0  0  0  0  0  0  0  0  0  0
    9.7942    4.8700    0.0000 H   0  0  0  0  0  0  0  0  0  0  0  0
    9.4651    7.0600    0.0000 H   0  0  0  0  0  0  0  0  0  0  0  0
    9.7942    1.6300    0.0000 H   0  0  0  0  0  0  0  0  0  0  0  0
    6.6592    7.0600    0.0000 H   0  0  0  0  0  0  0  0  0  0  0  0
   11.1972    4.0600    0.0000 H   0  0  0  0  0  0  0  0  0  0  0  0
    8.0622    7.8700    0.0000 H   0  0  0  0  0  0  0  0  0  0  0  0
   11.1972    2.4400    0.0000 H   0  0  0  0  0  0  0  0  0  0  0  0
    3.8302    5.7361    0.0000 H   0  0  0  0  0  0  0  0  0  0  0  0
    3.2102    5.1161    0.0000 H   0  0  0  0  0  0  0  0  0  0  0  0
    3.8302    4.4961    0.0000 H   0  0  0  0  0  0  0  0  0  0  0  0
  1  4  2  0  0  0  0
  1  5  2  0  0  0  0
  1  9  1  0  0  0  0
  1 20  1  0  0  0  0
  2 36  1  0  0  0  0
  3 17  1  0  0  0  0
  3 68  1  0  0  0  0
  6 25  2  0  0  0  0
  7 37  1  0  0  0  0
  7 44  1  0  0  0  0
  8 37  2  0  0  0  0
 12  9  1  1  0  0  0
  9 14  1  0  0  0  0
 10 19  1  0  0  0  0
 10 25  1  0  0  0  0
 10 67  1  0  0  0  0
 23 11  1  1  0  0  0
 11 37  1  0  0  0  0
 11 71  1  0  0  0  0
 12 13  1  0  0  0  0
 12 17  1  0  0  0  0
 12 45  1  0  0  0  0
 13 15  1  0  0  0  0
 13 46  1  0  0  0  0
 13 47  1  0  0  0  0
 14 16  1  0  0  0  0
 14 48  1  0  0  0  0
 14 49  1  0  0  0  0
 15 18  1  0  0  0  0
 15 50  1  0  0  0  0
 15 51  1  0  0  0  0
 16 21  1  0  0  0  0
 16 22  1  0  0  0  0
 16 52  1  0  0  0  0
 17 53  1  0  0  0  0
 17 54  1  0  0  0  0
 18 19  1  0  0  0  0
 18 55  1  0  0  0  0
 18 56  1  0  0  0  0
 19 57  1  0  0  0  0
 19 58  1  0  0  0  0
 20 26  2  0  0  0  0
 20 27  1  0  0  0  0
 21 59  1  0  0  0  0
 21 60  1  0  0  0  0
 21 61  1  0  0  0  0
 22 62  1  0  0  0  0
 22 63  1  0  0  0  0
 22 64  1  0  0  0  0
 23 24  1  0  0  0  0
 23 25  1  0  0  0  0
 23 65  1  0  0  0  0
 24 28  1  0  0  0  0
 24 29  1  0  0  0  0
 24 66  1  0  0  0  0
 26 30  1  0  0  0  0
 26 69  1  0  0  0  0
 27 31  2  0  0  0  0
 27 70  1  0  0  0  0
 28 32  2  0  0  0  0
 28 34  1  0  0  0  0
 29 33  2  0  0  0  0
 29 35  1  0  0  0  0
 30 36  2  0  0  0  0
 30 72  1  0  0  0  0
 31 36  1  0  0  0  0
 31 73  1  0  0  0  0
 32 38  1  0  0  0  0
 32 74  1  0  0  0  0
 33 39  1  0  0  0  0
 33 75  1  0  0  0  0
 34 40  2  0  0  0  0
 34 76  1  0  0  0  0
 35 41  2  0  0  0  0
 35 77  1  0  0  0  0
 38 42  2  0  0  0  0
 38 78  1  0  0  0  0
 39 43  2  0  0  0  0
 39 79  1  0  0  0  0
 40 42  1  0  0  0  0
 40 80  1  0  0  0  0
 41 43  1  0  0  0  0
 41 81  1  0  0  0  0
 42 82  1  0  0  0  0
 43 83  1  0  0  0  0
 44 84  1  0  0  0  0
 44 85  1  0  0  0  0
 44 86  1  0  0  0  0
M  END
> <PUBCHEM_COMPOUND_CID>
514000
> <PUBCHEM_COMPOUND_CANONICALIZED>
1
> <PUBCHEM_CACTVS_COMPLEXITY>
939
> <PUBCHEM_CACTVS_HBOND_ACCEPTOR>
8
> <PUBCHEM_CACTVS_HBOND_DONOR>
3
> <PUBCHEM_CACTVS_ROTATABLE_BOND>
17
> <PUBCHEM_CACTVS_SUBSKEYS>
AAADcfB/OQBAAAAAAAAAAAAAAAAAAAAAAAAwYMAAAAAAAAABUAAAHwQQSAAADSjh2A4yCYLABgKIAiFSGHBCABAgAAAIiJmIAIkKcDKAkTGUYAAklgCYiAeYyMCOgAAAAAAAAAAAAAAAAAAAAAAAAAAAAA==
> <PUBCHEM_IUPAC_OPENEYE_NAME>
methyl N-[(1S)-1-benzhydryl-2-[[(5S)-5-[(4-fluorophenyl)sulfonyl-isobutyl-amino]-6-hydroxy-hexyl]amino]-2-oxo-ethyl]carbamate
> <PUBCHEM_IUPAC_CAS_NAME>
N-[(2S)-1-[[(5S)-5-[(4-fluorophenyl)sulfonyl-(2-methylpropyl)amino]-6-hydroxyhexyl]amino]-1-oxo-3,3-diphenylpropan-2-yl]carbamic acid methyl ester
> <PUBCHEM_IUPAC_NAME_MARKUP>
methyl <I>N</I>-[(2<I>S</I>)-1-[[(5<I>S</I>)-5-[(4-fluorophenyl)sulfonyl-(2-methylpropyl)amino]-6-hydroxyhexyl]amino]-1-oxo-3,3-diphenylpropan-2-yl]carbamate
> <PUBCHEM_IUPAC_NAME>
methyl N-[(2S)-1-[[(5S)-5-[(4-fluorophenyl)sulfonyl-(2-methylpropyl)amino]-6-hydroxyhexyl]amino]-1-oxo-3,3-diphenylpropan-2-yl]carbamate
> <PUBCHEM_IUPAC_SYSTEMATIC_NAME>
methyl N-[(2S)-1-[[(5S)-5-[(4-fluorophenyl)sulfonyl-(2-methylpropyl)amino]-6-oxidanyl-hexyl]amino]-1-oxidanylidene-3,3-diphenyl-propan-2-yl]carbamate
> <PUBCHEM_IUPAC_TRADITIONAL_NAME>
N-[(1S)-1-benzhydryl-2-[[(5S)-5-[(4-fluorophenyl)sulfonyl-isobutyl-amino]-6-hydroxy-hexyl]amino]-2-keto-ethyl]carbamic acid methyl ester
> <PUBCHEM_IUPAC_INCHI>
InChI=1S/C33H42FN3O6S/c1-24(2)22-37(44(41,42)29-19-17-27(34)18-20-29)28(23-38)16-10-11-21-35-32(39)31(36-33(40)43-3)30(25-12-6-4-7-13-25)26-14-8-5-9-15-26/h4-9,12-15,17-20,24,28,30-31,38H,10-11,16,21-23H2,1-3H3,(H,35,39)(H,36,40)/t28-,31-/m0/s1
> <PUBCHEM_IUPAC_INCHIKEY>
CJQWNUMMQADFKJ-IZEXYCQBSA-N
> <PUBCHEM_XLOGP3_AA>
5.5
> <PUBCHEM_EXACT_MASS>
627.27783540
> <PUBCHEM_MOLECULAR_FORMULA>
C33H42FN3O6S
> <PUBCHEM_MOLECULAR_WEIGHT>
627.8
> <PUBCHEM_OPENEYE_CAN_SMILES>
CC(C)CN(C(CCCCNC(=O)C(C(C1=CC=CC=C1)C2=CC=CC=C2)NC(=O)OC)CO)S(=O)(=O)C3=CC=C(C=C3)F
> <PUBCHEM_OPENEYE_ISO_SMILES>
CC(C)CN([C@@H](CCCCNC(=O)[C@H](C(C1=CC=CC=C1)C2=CC=CC=C2)NC(=O)OC)CO)S(=O)(=O)C3=CC=C(C=C3)F
> <PUBCHEM_CACTVS_TPSA>
133
> <PUBCHEM_MONOISOTOPIC_WEIGHT>
627.27783540
> <PUBCHEM_TOTAL_CHARGE>
0
> <PUBCHEM_HEAVY_ATOM_COUNT>
44
> <PUBCHEM_ATOM_DEF_STEREO_COUNT>
2
> <PUBCHEM_ATOM_UDEF_STEREO_COUNT>
0
> <PUBCHEM_BOND_DEF_STEREO_COUNT>
0
> <PUBCHEM_BOND_UDEF_STEREO_COUNT>
0
> <PUBCHEM_ISOTOPIC_ATOM_COUNT>
0
> <PUBCHEM_COMPONENT_COUNT>
1
> <PUBCHEM_CACTVS_TAUTO_COUNT>
-1
> <PUBCHEM_COORDINATE_TYPE>
1
5
255
> <PUBCHEM_BONDANNOTATIONS>
23  11  5
20  26  8
20  27  8
26  30  8
27  31  8
28  32  8
28  34  8
29  33  8
29  35  8
30  36  8
31  36  8
32  38  8
33  39  8
34  40  8
35  41  8
38  42  8
39  43  8
40  42  8
41  43  8
12  9  5
$$$$
