514036
  -OEChem-10302200282D
 84 86  0     1  0  0  0  0  0999 V2000
    6.0010   -3.2500    0.0000 S   0  0  0  0  0  0  0  0  0  0  0  0
    4.2690   -6.2500    0.0000 F   0  0  0  0  0  0  0  0  0  0  0  0
    6.0010   -0.2500    0.0000 O   0  0  0  0  0  0  0  0  0  0  0  0
    6.5010   -4.1160    0.0000 O   0  0  0  0  0  0  0  0  0  0  0  0
    5.5010   -2.3840    0.0000 O   0  0  0  0  0  0  0  0  0  0  0  0
    8.5991    3.2500    0.0000 O   0  0  0  0  0  0  0  0  0  0  0  0
    9.4651    5.7500    0.0000 O   0  0  0  0  0  0  0  0  0  0  0  0
    8.5991    4.2500    0.0000 O   0  0  0  0  0  0  0  0  0  0  0  0
    6.8671   -2.7500    0.0000 N   0  0  3  0  0  0  0  0  0  0  0  0
    9.4651    1.7500    0.0000 N   0  0  0  0  0  0  0  0  0  0  0  0
   10.3312    4.2500    0.0000 N   0  0  0  0  0  0  0  0  0  0  0  0
    2.5369   -5.2500    0.0000 N   0  0  0  0  0  0  0  0  0  0  0  0
    6.8671   -1.7500    0.0000 C   0  0  1  0  0  0  0  0  0  0  0  0
    7.7331   -1.2500    0.0000 C   0  0  0  0  0  0  0  0  0  0  0  0
    7.7331   -3.2500    0.0000 C   0  0  0  0  0  0  0  0  0  0  0  0
    7.7331   -0.2500    0.0000 C   0  0  0  0  0  0  0  0  0  0  0  0
    8.5991   -2.7500    0.0000 C   0  0  0  0  0  0  0  0  0  0  0  0
    6.0010   -1.2500    0.0000 C   0  0  0  0  0  0  0  0  0  0  0  0
    8.5991    0.2500    0.0000 C   0  0  0  0  0  0  0  0  0  0  0  0
    5.1350   -3.7500    0.0000 C   0  0  0  0  0  0  0  0  0  0  0  0
    9.4651   -3.2500    0.0000 C   0  0  0  0  0  0  0  0  0  0  0  0
    8.5991   -1.7500    0.0000 C   0  0  0  0  0  0  0  0  0  0  0  0
    8.5991    1.2500    0.0000 C   0  0  0  0  0  0  0  0  0  0  0  0
    5.1350   -4.7500    0.0000 C   0  0  0  0  0  0  0  0  0  0  0  0
    4.2690   -3.2500    0.0000 C   0  0  0  0  0  0  0  0  0  0  0  0
   10.3312    3.2500    0.0000 C   0  0  2  0  0  0  0  0  0  0  0  0
    9.4651    2.7500    0.0000 C   0  0  0  0  0  0  0  0  0  0  0  0
   11.1972    2.7500    0.0000 C   0  0  0  0  0  0  0  0  0  0  0  0
    4.2690   -5.2500    0.0000 C   0  0  0  0  0  0  0  0  0  0  0  0
    3.4030   -3.7500    0.0000 C   0  0  0  0  0  0  0  0  0  0  0  0
    3.4030   -4.7500    0.0000 C   0  0  0  0  0  0  0  0  0  0  0  0
   12.0632    3.2500    0.0000 C   0  0  0  0  0  0  0  0  0  0  0  0
   12.9292    2.7500    0.0000 C   0  0  0  0  0  0  0  0  0  0  0  0
   12.0632    4.2500    0.0000 C   0  0  0  0  0  0  0  0  0  0  0  0
   13.7953    3.2500    0.0000 C   0  0  0  0  0  0  0  0  0  0  0  0
   13.7953    4.2500    0.0000 C   0  0  0  0  0  0  0  0  0  0  0  0
   12.9292    4.7500    0.0000 C   0  0  0  0  0  0  0  0  0  0  0  0
    9.4651    4.7500    0.0000 C   0  0  0  0  0  0  0  0  0  0  0  0
   14.6892    2.7153    0.0000 C   0  0  0  0  0  0  0  0  0  0  0  0
   14.6892    4.7847    0.0000 C   0  0  0  0  0  0  0  0  0  0  0  0
   15.5953    3.2292    0.0000 C   0  0  0  0  0  0  0  0  0  0  0  0
   15.5953    4.2708    0.0000 C   0  0  0  0  0  0  0  0  0  0  0  0
    8.5991    6.2500    0.0000 C   0  0  0  0  0  0  0  0  0  0  0  0
    6.3301   -2.0600    0.0000 H   0  0  0  0  0  0  0  0  0  0  0  0
    7.9451   -1.8326    0.0000 H   0  0  0  0  0  0  0  0  0  0  0  0
    8.3437   -1.1423    0.0000 H   0  0  0  0  0  0  0  0  0  0  0  0
    7.3346   -3.7250    0.0000 H   0  0  0  0  0  0  0  0  0  0  0  0
    8.1316   -3.7250    0.0000 H   0  0  0  0  0  0  0  0  0  0  0  0
    7.5210    0.3326    0.0000 H   0  0  0  0  0  0  0  0  0  0  0  0
    7.1225   -0.3577    0.0000 H   0  0  0  0  0  0  0  0  0  0  0  0
    8.5991   -3.3700    0.0000 H   0  0  0  0  0  0  0  0  0  0  0  0
    5.3905   -1.1423    0.0000 H   0  0  0  0  0  0  0  0  0  0  0  0
    5.7890   -1.8326    0.0000 H   0  0  0  0  0  0  0  0  0  0  0  0
    8.8112   -0.3326    0.0000 H   0  0  0  0  0  0  0  0  0  0  0  0
    9.2097    0.3577    0.0000 H   0  0  0  0  0  0  0  0  0  0  0  0
    9.1551   -3.7869    0.0000 H   0  0  0  0  0  0  0  0  0  0  0  0
   10.0021   -3.5600    0.0000 H   0  0  0  0  0  0  0  0  0  0  0  0
    9.7751   -2.7131    0.0000 H   0  0  0  0  0  0  0  0  0  0  0  0
    9.2191   -1.7500    0.0000 H   0  0  0  0  0  0  0  0  0  0  0  0
    8.5991   -1.1300    0.0000 H   0  0  0  0  0  0  0  0  0  0  0  0
    7.9791   -1.7500    0.0000 H   0  0  0  0  0  0  0  0  0  0  0  0
    8.3871    1.8326    0.0000 H   0  0  0  0  0  0  0  0  0  0  0  0
    7.9885    1.1423    0.0000 H   0  0  0  0  0  0  0  0  0  0  0  0
    5.4641    0.0600    0.0000 H   0  0  0  0  0  0  0  0  0  0  0  0
   10.0021    1.4400    0.0000 H   0  0  0  0  0  0  0  0  0  0  0  0
    5.6720   -5.0600    0.0000 H   0  0  0  0  0  0  0  0  0  0  0  0
    4.2690   -2.6300    0.0000 H   0  0  0  0  0  0  0  0  0  0  0  0
   10.8681    3.5600    0.0000 H   0  0  0  0  0  0  0  0  0  0  0  0
   10.7987    2.2750    0.0000 H   0  0  0  0  0  0  0  0  0  0  0  0
   11.5957    2.2750    0.0000 H   0  0  0  0  0  0  0  0  0  0  0  0
    2.8660   -3.4400    0.0000 H   0  0  0  0  0  0  0  0  0  0  0  0
   10.8681    4.5600    0.0000 H   0  0  0  0  0  0  0  0  0  0  0  0
   12.9292    2.1300    0.0000 H   0  0  0  0  0  0  0  0  0  0  0  0
   11.5263    4.5600    0.0000 H   0  0  0  0  0  0  0  0  0  0  0  0
    2.0000   -4.9400    0.0000 H   0  0  0  0  0  0  0  0  0  0  0  0
    2.5369   -5.8700    0.0000 H   0  0  0  0  0  0  0  0  0  0  0  0
   12.9292    5.3700    0.0000 H   0  0  0  0  0  0  0  0  0  0  0  0
   14.6820    2.0954    0.0000 H   0  0  0  0  0  0  0  0  0  0  0  0
   14.6820    5.4046    0.0000 H   0  0  0  0  0  0  0  0  0  0  0  0
   16.1310    2.9171    0.0000 H   0  0  0  0  0  0  0  0  0  0  0  0
   16.1310    4.5829    0.0000 H   0  0  0  0  0  0  0  0  0  0  0  0
    8.9091    6.7869    0.0000 H   0  0  0  0  0  0  0  0  0  0  0  0
    8.0622    6.5600    0.0000 H   0  0  0  0  0  0  0  0  0  0  0  0
    8.2891    5.7131    0.0000 H   0  0  0  0  0  0  0  0  0  0  0  0
  1  4  2  0  0  0  0
  1  5  2  0  0  0  0
  1  9  1  0  0  0  0
  1 20  1  0  0  0  0
  2 29  1  0  0  0  0
  3 18  1  0  0  0  0
  3 64  1  0  0  0  0
  6 27  2  0  0  0  0
  7 38  1  0  0  0  0
  7 43  1  0  0  0  0
  8 38  2  0  0  0  0
 13  9  1  6  0  0  0
  9 15  1  0  0  0  0
 10 23  1  0  0  0  0
 10 27  1  0  0  0  0
 10 65  1  0  0  0  0
 26 11  1  1  0  0  0
 11 38  1  0  0  0  0
 11 72  1  0  0  0  0
 12 31  1  0  0  0  0
 12 75  1  0  0  0  0
 12 76  1  0  0  0  0
 13 14  1  0  0  0  0
 13 18  1  0  0  0  0
 13 44  1  0  0  0  0
 14 16  1  0  0  0  0
 14 45  1  0  0  0  0
 14 46  1  0  0  0  0
 15 17  1  0  0  0  0
 15 47  1  0  0  0  0
 15 48  1  0  0  0  0
 16 19  1  0  0  0  0
 16 49  1  0  0  0  0
 16 50  1  0  0  0  0
 17 21  1  0  0  0  0
 17 22  1  0  0  0  0
 17 51  1  0  0  0  0
 18 52  1  0  0  0  0
 18 53  1  0  0  0  0
 19 23  1  0  0  0  0
 19 54  1  0  0  0  0
 19 55  1  0  0  0  0
 20 24  2  0  0  0  0
 20 25  1  0  0  0  0
 21 56  1  0  0  0  0
 21 57  1  0  0  0  0
 21 58  1  0  0  0  0
 22 59  1  0  0  0  0
 22 60  1  0  0  0  0
 22 61  1  0  0  0  0
 23 62  1  0  0  0  0
 23 63  1  0  0  0  0
 24 29  1  0  0  0  0
 24 66  1  0  0  0  0
 25 30  2  0  0  0  0
 25 67  1  0  0  0  0
 26 27  1  0  0  0  0
 26 28  1  0  0  0  0
 26 68  1  0  0  0  0
 28 32  1  0  0  0  0
 28 69  1  0  0  0  0
 28 70  1  0  0  0  0
 29 31  2  0  0  0  0
 30 31  1  0  0  0  0
 30 71  1  0  0  0  0
 32 33  2  0  0  0  0
 32 34  1  0  0  0  0
 33 35  1  0  0  0  0
 33 73  1  0  0  0  0
 34 37  2  0  0  0  0
 34 74  1  0  0  0  0
 35 36  1  0  0  0  0
 35 39  2  0  0  0  0
 36 37  1  0  0  0  0
 36 40  2  0  0  0  0
 37 77  1  0  0  0  0
 39 41  1  0  0  0  0
 39 78  1  0  0  0  0
 40 42  1  0  0  0  0
 40 79  1  0  0  0  0
 41 42  2  0  0  0  0
 41 80  1  0  0  0  0
 42 81  1  0  0  0  0
 43 82  1  0  0  0  0
 43 83  1  0  0  0  0
 43 84  1  0  0  0  0
M  END
> <PUBCHEM_COMPOUND_CID>
514036
> <PUBCHEM_COMPOUND_CANONICALIZED>
1
> <PUBCHEM_CACTVS_COMPLEXITY>
980
> <PUBCHEM_CACTVS_HBOND_ACCEPTOR>
9
> <PUBCHEM_CACTVS_HBOND_DONOR>
4
> <PUBCHEM_CACTVS_ROTATABLE_BOND>
16
> <PUBCHEM_CACTVS_SUBSKEYS>
AAADcfB7uQBAAAAAAAAAAAAAAAAAAAAAAAAwYMAAAAAAAADBVAAAHwQQSAAADSjh2A4yycLABgKIAiVSWHDCABAgAgAIiJmIZIkKcDKAkbGUYABklgCYyAeYyMCOwAQCAAAQAACACAQAACAAAAAAAAAAAA==
> <PUBCHEM_IUPAC_OPENEYE_NAME>
methyl N-[(1S)-2-[[(5S)-5-[(4-amino-3-fluoro-phenyl)sulfonyl-isobutyl-amino]-6-hydroxy-hexyl]amino]-1-(2-naphthylmethyl)-2-oxo-ethyl]carbamate
> <PUBCHEM_IUPAC_CAS_NAME>
N-[(2S)-1-[[(5S)-5-[(4-amino-3-fluorophenyl)sulfonyl-(2-methylpropyl)amino]-6-hydroxyhexyl]amino]-3-(2-naphthalenyl)-1-oxopropan-2-yl]carbamic acid methyl ester
> <PUBCHEM_IUPAC_NAME_MARKUP>
methyl <I>N</I>-[(2<I>S</I>)-1-[[(5<I>S</I>)-5-[(4-amino-3-fluorophenyl)sulfonyl-(2-methylpropyl)amino]-6-hydroxyhexyl]amino]-3-naphthalen-2-yl-1-oxopropan-2-yl]carbamate
> <PUBCHEM_IUPAC_NAME>
methyl N-[(2S)-1-[[(5S)-5-[(4-amino-3-fluorophenyl)sulfonyl-(2-methylpropyl)amino]-6-hydroxyhexyl]amino]-3-naphthalen-2-yl-1-oxopropan-2-yl]carbamate
> <PUBCHEM_IUPAC_SYSTEMATIC_NAME>
methyl N-[(2S)-1-[[(5S)-5-[(4-azanyl-3-fluoranyl-phenyl)sulfonyl-(2-methylpropyl)amino]-6-oxidanyl-hexyl]amino]-3-naphthalen-2-yl-1-oxidanylidene-propan-2-yl]carbamate
> <PUBCHEM_IUPAC_TRADITIONAL_NAME>
N-[(1S)-2-[[(5S)-5-[(4-amino-3-fluoro-phenyl)sulfonyl-isobutyl-amino]-6-hydroxy-hexyl]amino]-2-keto-1-(2-naphthylmethyl)ethyl]carbamic acid methyl ester
> <PUBCHEM_IUPAC_INCHI>
InChI=1S/C31H41FN4O6S/c1-21(2)19-36(43(40,41)26-13-14-28(33)27(32)18-26)25(20-37)10-6-7-15-34-30(38)29(35-31(39)42-3)17-22-11-12-23-8-4-5-9-24(23)16-22/h4-5,8-9,11-14,16,18,21,25,29,37H,6-7,10,15,17,19-20,33H2,1-3H3,(H,34,38)(H,35,39)/t25-,29-/m0/s1
> <PUBCHEM_IUPAC_INCHIKEY>
JAFQVKVJMXYLAD-SVEHJYQDSA-N
> <PUBCHEM_XLOGP3_AA>
4.6
> <PUBCHEM_EXACT_MASS>
616.27308438
> <PUBCHEM_MOLECULAR_FORMULA>
C31H41FN4O6S
> <PUBCHEM_MOLECULAR_WEIGHT>
616.7
> <PUBCHEM_OPENEYE_CAN_SMILES>
CC(C)CN(C(CCCCNC(=O)C(CC1=CC2=CC=CC=C2C=C1)NC(=O)OC)CO)S(=O)(=O)C3=CC(=C(C=C3)N)F
> <PUBCHEM_OPENEYE_ISO_SMILES>
CC(C)CN([C@@H](CCCCNC(=O)[C@H](CC1=CC2=CC=CC=C2C=C1)NC(=O)OC)CO)S(=O)(=O)C3=CC(=C(C=C3)N)F
> <PUBCHEM_CACTVS_TPSA>
159
> <PUBCHEM_MONOISOTOPIC_WEIGHT>
616.27308438
> <PUBCHEM_TOTAL_CHARGE>
0
> <PUBCHEM_HEAVY_ATOM_COUNT>
43
> <PUBCHEM_ATOM_DEF_STEREO_COUNT>
2
> <PUBCHEM_ATOM_UDEF_STEREO_COUNT>
0
> <PUBCHEM_BOND_DEF_STEREO_COUNT>
0
> <PUBCHEM_BOND_UDEF_STEREO_COUNT>
0
> <PUBCHEM_ISOTOPIC_ATOM_COUNT>
0
> <PUBCHEM_COMPONENT_COUNT>
1
> <PUBCHEM_CACTVS_TAUTO_COUNT>
-1
> <PUBCHEM_COORDINATE_TYPE>
1
5
255
> <PUBCHEM_BONDANNOTATIONS>
26  11  5
20  24  8
20  25  8
24  29  8
25  30  8
29  31  8
30  31  8
32  33  8
32  34  8
33  35  8
34  37  8
35  36  8
35  39  8
36  37  8
36  40  8
39  41  8
40  42  8
41  42  8
13  9  6
$$$$
