514016
  -OEChem-10302200282D
 93 96  0     1  0  0  0  0  0999 V2000
    3.7320   -3.0950    0.0000 S   0  0  0  0  0  0  0  0  0  0  0  0
    6.3301   -1.5950    0.0000 O   0  0  0  0  0  0  0  0  0  0  0  0
    4.7320   -3.0950    0.0000 O   0  0  0  0  0  0  0  0  0  0  0  0
    2.7320   -3.0950    0.0000 O   0  0  0  0  0  0  0  0  0  0  0  0
    8.0622    2.4050    0.0000 O   0  0  0  0  0  0  0  0  0  0  0  0
    4.8302    3.5389    0.0000 O   0  0  0  0  0  0  0  0  0  0  0  0
    3.7320   -2.0950    0.0000 N   0  0  3  0  0  0  0  0  0  0  0  0
    6.3301    2.4050    0.0000 N   0  0  0  0  0  0  0  0  0  0  0  0
    6.3301    4.4050    0.0000 N   0  0  0  0  0  0  0  0  0  0  0  0
    3.7320   -7.0950    0.0000 N   0  0  0  0  0  0  0  0  0  0  0  0
    3.8302    5.2711    0.0000 N   0  0  0  0  0  0  0  0  0  0  0  0
    4.5981   -1.5950    0.0000 C   0  0  1  0  0  0  0  0  0  0  0  0
    4.5981   -0.5950    0.0000 C   0  0  0  0  0  0  0  0  0  0  0  0
    2.8660   -1.5950    0.0000 C   0  0  0  0  0  0  0  0  0  0  0  0
    5.4641   -0.0950    0.0000 C   0  0  0  0  0  0  0  0  0  0  0  0
    2.8660   -0.5950    0.0000 C   0  0  0  0  0  0  0  0  0  0  0  0
    5.4641   -2.0950    0.0000 C   0  0  0  0  0  0  0  0  0  0  0  0
    5.4641    0.9050    0.0000 C   0  0  0  0  0  0  0  0  0  0  0  0
    6.3301    1.4050    0.0000 C   0  0  0  0  0  0  0  0  0  0  0  0
    3.7320   -4.0950    0.0000 C   0  0  0  0  0  0  0  0  0  0  0  0
    2.0000   -0.0950    0.0000 C   0  0  0  0  0  0  0  0  0  0  0  0
    3.7320   -0.0950    0.0000 C   0  0  0  0  0  0  0  0  0  0  0  0
    7.1962    3.9050    0.0000 C   0  0  1  0  0  0  0  0  0  0  0  0
    8.0622    4.4050    0.0000 C   0  0  0  0  0  0  0  0  0  0  0  0
    7.1962    2.9050    0.0000 C   0  0  0  0  0  0  0  0  0  0  0  0
    2.8660   -4.5950    0.0000 C   0  0  0  0  0  0  0  0  0  0  0  0
    4.5981   -4.5950    0.0000 C   0  0  0  0  0  0  0  0  0  0  0  0
    8.0622    5.4050    0.0000 C   0  0  0  0  0  0  0  0  0  0  0  0
    8.9282    3.9050    0.0000 C   0  0  0  0  0  0  0  0  0  0  0  0
    2.8660   -5.5950    0.0000 C   0  0  0  0  0  0  0  0  0  0  0  0
    4.5981   -5.5950    0.0000 C   0  0  0  0  0  0  0  0  0  0  0  0
    3.7320   -6.0950    0.0000 C   0  0  0  0  0  0  0  0  0  0  0  0
    7.1962    5.9050    0.0000 C   0  0  0  0  0  0  0  0  0  0  0  0
    9.7942    4.4050    0.0000 C   0  0  0  0  0  0  0  0  0  0  0  0
    8.9282    5.9050    0.0000 C   0  0  0  0  0  0  0  0  0  0  0  0
    8.9282    2.9050    0.0000 C   0  0  0  0  0  0  0  0  0  0  0  0
    5.3301    4.4050    0.0000 C   0  0  0  0  0  0  0  0  0  0  0  0
    7.1962    6.9050    0.0000 C   0  0  0  0  0  0  0  0  0  0  0  0
   10.6603    3.9050    0.0000 C   0  0  0  0  0  0  0  0  0  0  0  0
    8.9282    6.9050    0.0000 C   0  0  0  0  0  0  0  0  0  0  0  0
    9.7942    2.4050    0.0000 C   0  0  0  0  0  0  0  0  0  0  0  0
    8.0622    7.4050    0.0000 C   0  0  0  0  0  0  0  0  0  0  0  0
   10.6603    2.9050    0.0000 C   0  0  0  0  0  0  0  0  0  0  0  0
    4.8302    5.2711    0.0000 C   0  0  0  0  0  0  0  0  0  0  0  0
    5.3301    6.1370    0.0000 C   0  0  0  0  0  0  0  0  0  0  0  0
    4.8301    7.0031    0.0000 C   0  0  0  0  0  0  0  0  0  0  0  0
    3.3302    6.1371    0.0000 C   0  0  0  0  0  0  0  0  0  0  0  0
    3.8301    7.0031    0.0000 C   0  0  0  0  0  0  0  0  0  0  0  0
    4.5981   -2.2150    0.0000 H   0  0  0  0  0  0  0  0  0  0  0  0
    4.3860   -0.0124    0.0000 H   0  0  0  0  0  0  0  0  0  0  0  0
    3.9875   -0.7027    0.0000 H   0  0  0  0  0  0  0  0  0  0  0  0
    2.2554   -1.4873    0.0000 H   0  0  0  0  0  0  0  0  0  0  0  0
    2.6540   -2.1776    0.0000 H   0  0  0  0  0  0  0  0  0  0  0  0
    5.6762   -0.6776    0.0000 H   0  0  0  0  0  0  0  0  0  0  0  0
    6.0747    0.0127    0.0000 H   0  0  0  0  0  0  0  0  0  0  0  0
    2.8660    0.0250    0.0000 H   0  0  0  0  0  0  0  0  0  0  0  0
    5.0656   -2.5700    0.0000 H   0  0  0  0  0  0  0  0  0  0  0  0
    5.8626   -2.5700    0.0000 H   0  0  0  0  0  0  0  0  0  0  0  0
    5.2520    1.4876    0.0000 H   0  0  0  0  0  0  0  0  0  0  0  0
    4.8535    0.7973    0.0000 H   0  0  0  0  0  0  0  0  0  0  0  0
    6.5422    0.8224    0.0000 H   0  0  0  0  0  0  0  0  0  0  0  0
    6.9407    1.5127    0.0000 H   0  0  0  0  0  0  0  0  0  0  0  0
    2.3100    0.4419    0.0000 H   0  0  0  0  0  0  0  0  0  0  0  0
    1.4631    0.2150    0.0000 H   0  0  0  0  0  0  0  0  0  0  0  0
    1.6900   -0.6319    0.0000 H   0  0  0  0  0  0  0  0  0  0  0  0
    4.0420   -0.6319    0.0000 H   0  0  0  0  0  0  0  0  0  0  0  0
    4.2690    0.2150    0.0000 H   0  0  0  0  0  0  0  0  0  0  0  0
    3.4220    0.4419    0.0000 H   0  0  0  0  0  0  0  0  0  0  0  0
    6.6592    3.5950    0.0000 H   0  0  0  0  0  0  0  0  0  0  0  0
    7.5252    4.7150    0.0000 H   0  0  0  0  0  0  0  0  0  0  0  0
    5.7101    2.4050    0.0000 H   0  0  0  0  0  0  0  0  0  0  0  0
    6.8671   -1.9050    0.0000 H   0  0  0  0  0  0  0  0  0  0  0  0
    2.3291   -4.2850    0.0000 H   0  0  0  0  0  0  0  0  0  0  0  0
    5.1350   -4.2850    0.0000 H   0  0  0  0  0  0  0  0  0  0  0  0
    6.3301    5.0250    0.0000 H   0  0  0  0  0  0  0  0  0  0  0  0
    2.3291   -5.9050    0.0000 H   0  0  0  0  0  0  0  0  0  0  0  0
    5.1350   -5.9050    0.0000 H   0  0  0  0  0  0  0  0  0  0  0  0
    6.6592    5.5950    0.0000 H   0  0  0  0  0  0  0  0  0  0  0  0
    9.7942    5.0250    0.0000 H   0  0  0  0  0  0  0  0  0  0  0  0
    9.4651    5.5950    0.0000 H   0  0  0  0  0  0  0  0  0  0  0  0
    8.3913    2.5950    0.0000 H   0  0  0  0  0  0  0  0  0  0  0  0
    6.6592    7.2150    0.0000 H   0  0  0  0  0  0  0  0  0  0  0  0
   11.1972    4.2150    0.0000 H   0  0  0  0  0  0  0  0  0  0  0  0
    9.4651    7.2150    0.0000 H   0  0  0  0  0  0  0  0  0  0  0  0
    9.7942    1.7850    0.0000 H   0  0  0  0  0  0  0  0  0  0  0  0
    8.0622    8.0250    0.0000 H   0  0  0  0  0  0  0  0  0  0  0  0
   11.1972    2.5950    0.0000 H   0  0  0  0  0  0  0  0  0  0  0  0
    3.1951   -7.4050    0.0000 H   0  0  0  0  0  0  0  0  0  0  0  0
    4.2690   -7.4050    0.0000 H   0  0  0  0  0  0  0  0  0  0  0  0
    5.9501    6.1370    0.0000 H   0  0  0  0  0  0  0  0  0  0  0  0
    5.1401    7.5400    0.0000 H   0  0  0  0  0  0  0  0  0  0  0  0
    2.7102    6.1372    0.0000 H   0  0  0  0  0  0  0  0  0  0  0  0
    3.5201    7.5400    0.0000 H   0  0  0  0  0  0  0  0  0  0  0  0
  1  3  2  0  0  0  0
  1  4  2  0  0  0  0
  1  7  1  0  0  0  0
  1 20  1  0  0  0  0
  2 17  1  0  0  0  0
  2 72  1  0  0  0  0
  5 25  2  0  0  0  0
  6 37  2  0  0  0  0
 12  7  1  1  0  0  0
  7 14  1  0  0  0  0
  8 19  1  0  0  0  0
  8 25  1  0  0  0  0
  8 71  1  0  0  0  0
 23  9  1  1  0  0  0
  9 37  1  0  0  0  0
  9 75  1  0  0  0  0
 10 32  1  0  0  0  0
 10 88  1  0  0  0  0
 10 89  1  0  0  0  0
 11 44  1  0  0  0  0
 11 47  2  0  0  0  0
 12 13  1  0  0  0  0
 12 17  1  0  0  0  0
 12 49  1  0  0  0  0
 13 15  1  0  0  0  0
 13 50  1  0  0  0  0
 13 51  1  0  0  0  0
 14 16  1  0  0  0  0
 14 52  1  0  0  0  0
 14 53  1  0  0  0  0
 15 18  1  0  0  0  0
 15 54  1  0  0  0  0
 15 55  1  0  0  0  0
 16 21  1  0  0  0  0
 16 22  1  0  0  0  0
 16 56  1  0  0  0  0
 17 57  1  0  0  0  0
 17 58  1  0  0  0  0
 18 19  1  0  0  0  0
 18 59  1  0  0  0  0
 18 60  1  0  0  0  0
 19 61  1  0  0  0  0
 19 62  1  0  0  0  0
 20 26  2  0  0  0  0
 20 27  1  0  0  0  0
 21 63  1  0  0  0  0
 21 64  1  0  0  0  0
 21 65  1  0  0  0  0
 22 66  1  0  0  0  0
 22 67  1  0  0  0  0
 22 68  1  0  0  0  0
 23 24  1  0  0  0  0
 23 25  1  0  0  0  0
 23 69  1  0  0  0  0
 24 28  1  0  0  0  0
 24 29  1  0  0  0  0
 24 70  1  0  0  0  0
 26 30  1  0  0  0  0
 26 73  1  0  0  0  0
 27 31  2  0  0  0  0
 27 74  1  0  0  0  0
 28 33  2  0  0  0  0
 28 35  1  0  0  0  0
 29 34  2  0  0  0  0
 29 36  1  0  0  0  0
 30 32  2  0  0  0  0
 30 76  1  0  0  0  0
 31 32  1  0  0  0  0
 31 77  1  0  0  0  0
 33 38  1  0  0  0  0
 33 78  1  0  0  0  0
 34 39  1  0  0  0  0
 34 79  1  0  0  0  0
 35 40  2  0  0  0  0
 35 80  1  0  0  0  0
 36 41  2  0  0  0  0
 36 81  1  0  0  0  0
 37 44  1  0  0  0  0
 38 42  2  0  0  0  0
 38 82  1  0  0  0  0
 39 43  2  0  0  0  0
 39 83  1  0  0  0  0
 40 42  1  0  0  0  0
 40 84  1  0  0  0  0
 41 43  1  0  0  0  0
 41 85  1  0  0  0  0
 42 86  1  0  0  0  0
 43 87  1  0  0  0  0
 44 45  2  0  0  0  0
 45 46  1  0  0  0  0
 45 90  1  0  0  0  0
 46 48  2  0  0  0  0
 46 91  1  0  0  0  0
 47 48  1  0  0  0  0
 47 92  1  0  0  0  0
 48 93  1  0  0  0  0
M  END
> <PUBCHEM_COMPOUND_CID>
514016
> <PUBCHEM_COMPOUND_CANONICALIZED>
1
> <PUBCHEM_CACTVS_COMPLEXITY>
1050
> <PUBCHEM_CACTVS_HBOND_ACCEPTOR>
8
> <PUBCHEM_CACTVS_HBOND_DONOR>
4
> <PUBCHEM_CACTVS_ROTATABLE_BOND>
17
> <PUBCHEM_CACTVS_SUBSKEYS>
AAADcfB/uABAAAAAAAAAAAAAAAAAAAAAAAA8YMEAAAAAAAAB1AAAHgQQSAAADSjh3gY+wZLIEgKoAzV3VHDCgDA3AiAI2Lm4ZNgKcPLAlbGUYQhklgDYyYeYyMCOgAQAAAAAAAAACAAAAAAAAAAAAAAAAA==
> <PUBCHEM_IUPAC_OPENEYE_NAME>
N-[(1S)-1-[[(5S)-5-[(4-aminophenyl)sulfonyl-isobutyl-amino]-6-hydroxy-hexyl]carbamoyl]-2,2-diphenyl-ethyl]pyridine-2-carboxamide
> <PUBCHEM_IUPAC_CAS_NAME>
N-[(2S)-1-[[(5S)-5-[(4-aminophenyl)sulfonyl-(2-methylpropyl)amino]-6-hydroxyhexyl]amino]-1-oxo-3,3-diphenylpropan-2-yl]-2-pyridinecarboxamide
> <PUBCHEM_IUPAC_NAME_MARKUP>
<I>N</I>-[(2<I>S</I>)-1-[[(5<I>S</I>)-5-[(4-aminophenyl)sulfonyl-(2-methylpropyl)amino]-6-hydroxyhexyl]amino]-1-oxo-3,3-diphenylpropan-2-yl]pyridine-2-carboxamide
> <PUBCHEM_IUPAC_NAME>
N-[(2S)-1-[[(5S)-5-[(4-aminophenyl)sulfonyl-(2-methylpropyl)amino]-6-hydroxyhexyl]amino]-1-oxo-3,3-diphenylpropan-2-yl]pyridine-2-carboxamide
> <PUBCHEM_IUPAC_SYSTEMATIC_NAME>
N-[(2S)-1-[[(5S)-5-[(4-aminophenyl)sulfonyl-(2-methylpropyl)amino]-6-oxidanyl-hexyl]amino]-1-oxidanylidene-3,3-diphenyl-propan-2-yl]pyridine-2-carboxamide
> <PUBCHEM_IUPAC_TRADITIONAL_NAME>
N-[(1S)-1-benzhydryl-2-[[(5S)-6-hydroxy-5-[isobutyl(sulfanilyl)amino]hexyl]amino]-2-keto-ethyl]picolinamide
> <PUBCHEM_IUPAC_INCHI>
InChI=1S/C37H45N5O5S/c1-27(2)25-42(48(46,47)32-21-19-30(38)20-22-32)31(26-43)17-9-11-24-40-37(45)35(41-36(44)33-18-10-12-23-39-33)34(28-13-5-3-6-14-28)29-15-7-4-8-16-29/h3-8,10,12-16,18-23,27,31,34-35,43H,9,11,17,24-26,38H2,1-2H3,(H,40,45)(H,41,44)/t31-,35-/m0/s1
> <PUBCHEM_IUPAC_INCHIKEY>
PLKVIGSGPBBXJR-ZJJOJAIXSA-N
> <PUBCHEM_XLOGP3_AA>
5.2
> <PUBCHEM_EXACT_MASS>
671.31414073
> <PUBCHEM_MOLECULAR_FORMULA>
C37H45N5O5S
> <PUBCHEM_MOLECULAR_WEIGHT>
671.8
> <PUBCHEM_OPENEYE_CAN_SMILES>
CC(C)CN(C(CCCCNC(=O)C(C(C1=CC=CC=C1)C2=CC=CC=C2)NC(=O)C3=CC=CC=N3)CO)S(=O)(=O)C4=CC=C(C=C4)N
> <PUBCHEM_OPENEYE_ISO_SMILES>
CC(C)CN([C@@H](CCCCNC(=O)[C@H](C(C1=CC=CC=C1)C2=CC=CC=C2)NC(=O)C3=CC=CC=N3)CO)S(=O)(=O)C4=CC=C(C=C4)N
> <PUBCHEM_CACTVS_TPSA>
163
> <PUBCHEM_MONOISOTOPIC_WEIGHT>
671.31414073
> <PUBCHEM_TOTAL_CHARGE>
0
> <PUBCHEM_HEAVY_ATOM_COUNT>
48
> <PUBCHEM_ATOM_DEF_STEREO_COUNT>
2
> <PUBCHEM_ATOM_UDEF_STEREO_COUNT>
0
> <PUBCHEM_BOND_DEF_STEREO_COUNT>
0
> <PUBCHEM_BOND_UDEF_STEREO_COUNT>
0
> <PUBCHEM_ISOTOPIC_ATOM_COUNT>
0
> <PUBCHEM_COMPONENT_COUNT>
1
> <PUBCHEM_CACTVS_TAUTO_COUNT>
-1
> <PUBCHEM_COORDINATE_TYPE>
1
5
255
> <PUBCHEM_BONDANNOTATIONS>
11  44  8
11  47  8
20  26  8
20  27  8
26  30  8
27  31  8
28  33  8
28  35  8
29  34  8
29  36  8
30  32  8
31  32  8
33  38  8
34  39  8
35  40  8
36  41  8
38  42  8
39  43  8
40  42  8
41  43  8
44  45  8
45  46  8
46  48  8
47  48  8
12  7  5
23  9  5
$$$$
