514032
  -OEChem-10302200282D
 96 99  0     1  0  0  0  0  0999 V2000
    3.7320   -3.3270    0.0000 S   0  0  0  0  0  0  0  0  0  0  0  0
    6.3301   -1.8270    0.0000 O   0  0  0  0  0  0  0  0  0  0  0  0
    4.7320   -3.3270    0.0000 O   0  0  0  0  0  0  0  0  0  0  0  0
    2.7320   -3.3270    0.0000 O   0  0  0  0  0  0  0  0  0  0  0  0
    8.0622    2.1730    0.0000 O   0  0  0  0  0  0  0  0  0  0  0  0
    4.8302    3.3069    0.0000 O   0  0  0  0  0  0  0  0  0  0  0  0
    3.7320   -2.3270    0.0000 N   0  0  3  0  0  0  0  0  0  0  0  0
    6.3301    2.1730    0.0000 N   0  0  0  0  0  0  0  0  0  0  0  0
    6.3301    4.1730    0.0000 N   0  0  0  0  0  0  0  0  0  0  0  0
    3.7320   -7.3270    0.0000 N   0  0  0  0  0  0  0  0  0  0  0  0
    3.3302    5.9051    0.0000 N   0  0  0  0  0  0  0  0  0  0  0  0
    4.5981   -1.8270    0.0000 C   0  0  1  0  0  0  0  0  0  0  0  0
    4.5981   -0.8271    0.0000 C   0  0  0  0  0  0  0  0  0  0  0  0
    2.8660   -1.8270    0.0000 C   0  0  0  0  0  0  0  0  0  0  0  0
    5.4641   -0.3271    0.0000 C   0  0  0  0  0  0  0  0  0  0  0  0
    2.8660   -0.8271    0.0000 C   0  0  0  0  0  0  0  0  0  0  0  0
    5.4641   -2.3270    0.0000 C   0  0  0  0  0  0  0  0  0  0  0  0
    5.4641    0.6729    0.0000 C   0  0  0  0  0  0  0  0  0  0  0  0
    6.3301    1.1730    0.0000 C   0  0  0  0  0  0  0  0  0  0  0  0
    3.7320   -4.3270    0.0000 C   0  0  0  0  0  0  0  0  0  0  0  0
    2.0000   -0.3271    0.0000 C   0  0  0  0  0  0  0  0  0  0  0  0
    3.7320   -0.3271    0.0000 C   0  0  0  0  0  0  0  0  0  0  0  0
    7.1962    3.6730    0.0000 C   0  0  1  0  0  0  0  0  0  0  0  0
    8.0622    4.1730    0.0000 C   0  0  0  0  0  0  0  0  0  0  0  0
    7.1962    2.6730    0.0000 C   0  0  0  0  0  0  0  0  0  0  0  0
    4.5981   -4.8270    0.0000 C   0  0  0  0  0  0  0  0  0  0  0  0
    2.8660   -4.8270    0.0000 C   0  0  0  0  0  0  0  0  0  0  0  0
    8.0622    5.1730    0.0000 C   0  0  0  0  0  0  0  0  0  0  0  0
    8.9282    3.6730    0.0000 C   0  0  0  0  0  0  0  0  0  0  0  0
    4.5981   -5.8270    0.0000 C   0  0  0  0  0  0  0  0  0  0  0  0
    2.8660   -5.8270    0.0000 C   0  0  0  0  0  0  0  0  0  0  0  0
    3.7320   -6.3270    0.0000 C   0  0  0  0  0  0  0  0  0  0  0  0
    7.1962    5.6730    0.0000 C   0  0  0  0  0  0  0  0  0  0  0  0
    9.7942    4.1730    0.0000 C   0  0  0  0  0  0  0  0  0  0  0  0
    8.9282    5.6730    0.0000 C   0  0  0  0  0  0  0  0  0  0  0  0
    8.9282    2.6730    0.0000 C   0  0  0  0  0  0  0  0  0  0  0  0
    5.3301    4.1730    0.0000 C   0  0  0  0  0  0  0  0  0  0  0  0
    7.1962    6.6730    0.0000 C   0  0  0  0  0  0  0  0  0  0  0  0
   10.6603    3.6730    0.0000 C   0  0  0  0  0  0  0  0  0  0  0  0
    8.9282    6.6730    0.0000 C   0  0  0  0  0  0  0  0  0  0  0  0
    9.7942    2.1730    0.0000 C   0  0  0  0  0  0  0  0  0  0  0  0
    8.0622    7.1730    0.0000 C   0  0  0  0  0  0  0  0  0  0  0  0
   10.6603    2.6730    0.0000 C   0  0  0  0  0  0  0  0  0  0  0  0
    4.8302    5.0391    0.0000 C   0  0  0  0  0  0  0  0  0  0  0  0
    5.3301    5.9050    0.0000 C   0  0  0  0  0  0  0  0  0  0  0  0
    3.8302    5.0390    0.0000 C   0  0  0  0  0  0  0  0  0  0  0  0
    4.8301    6.7710    0.0000 C   0  0  0  0  0  0  0  0  0  0  0  0
    3.8301    6.7710    0.0000 C   0  0  0  0  0  0  0  0  0  0  0  0
    3.3301    7.6370    0.0000 C   0  0  0  0  0  0  0  0  0  0  0  0
    4.0611   -1.5170    0.0000 H   0  0  0  0  0  0  0  0  0  0  0  0
    4.3860   -0.2444    0.0000 H   0  0  0  0  0  0  0  0  0  0  0  0
    3.9875   -0.9347    0.0000 H   0  0  0  0  0  0  0  0  0  0  0  0
    2.2554   -1.7194    0.0000 H   0  0  0  0  0  0  0  0  0  0  0  0
    2.6540   -2.4097    0.0000 H   0  0  0  0  0  0  0  0  0  0  0  0
    5.6762   -0.9097    0.0000 H   0  0  0  0  0  0  0  0  0  0  0  0
    6.0747   -0.2194    0.0000 H   0  0  0  0  0  0  0  0  0  0  0  0
    2.8660   -0.2071    0.0000 H   0  0  0  0  0  0  0  0  0  0  0  0
    5.0656   -2.8020    0.0000 H   0  0  0  0  0  0  0  0  0  0  0  0
    5.8626   -2.8020    0.0000 H   0  0  0  0  0  0  0  0  0  0  0  0
    5.2520    1.2556    0.0000 H   0  0  0  0  0  0  0  0  0  0  0  0
    4.8535    0.5653    0.0000 H   0  0  0  0  0  0  0  0  0  0  0  0
    6.5422    0.5903    0.0000 H   0  0  0  0  0  0  0  0  0  0  0  0
    6.9407    1.2806    0.0000 H   0  0  0  0  0  0  0  0  0  0  0  0
    2.3100    0.2099    0.0000 H   0  0  0  0  0  0  0  0  0  0  0  0
    1.4631   -0.0171    0.0000 H   0  0  0  0  0  0  0  0  0  0  0  0
    1.6900   -0.8640    0.0000 H   0  0  0  0  0  0  0  0  0  0  0  0
    4.0420   -0.8640    0.0000 H   0  0  0  0  0  0  0  0  0  0  0  0
    4.2690   -0.0171    0.0000 H   0  0  0  0  0  0  0  0  0  0  0  0
    3.4220    0.2099    0.0000 H   0  0  0  0  0  0  0  0  0  0  0  0
    6.6592    3.3630    0.0000 H   0  0  0  0  0  0  0  0  0  0  0  0
    7.5252    4.4830    0.0000 H   0  0  0  0  0  0  0  0  0  0  0  0
    5.7101    2.1730    0.0000 H   0  0  0  0  0  0  0  0  0  0  0  0
    6.8671   -2.1370    0.0000 H   0  0  0  0  0  0  0  0  0  0  0  0
    5.1350   -4.5170    0.0000 H   0  0  0  0  0  0  0  0  0  0  0  0
    2.3291   -4.5170    0.0000 H   0  0  0  0  0  0  0  0  0  0  0  0
    6.3301    4.7930    0.0000 H   0  0  0  0  0  0  0  0  0  0  0  0
    5.1350   -6.1370    0.0000 H   0  0  0  0  0  0  0  0  0  0  0  0
    2.3291   -6.1370    0.0000 H   0  0  0  0  0  0  0  0  0  0  0  0
    6.6592    5.3630    0.0000 H   0  0  0  0  0  0  0  0  0  0  0  0
    9.7942    4.7930    0.0000 H   0  0  0  0  0  0  0  0  0  0  0  0
    9.4651    5.3630    0.0000 H   0  0  0  0  0  0  0  0  0  0  0  0
    8.3913    2.3630    0.0000 H   0  0  0  0  0  0  0  0  0  0  0  0
    6.6592    6.9830    0.0000 H   0  0  0  0  0  0  0  0  0  0  0  0
   11.1972    3.9830    0.0000 H   0  0  0  0  0  0  0  0  0  0  0  0
    9.4651    6.9830    0.0000 H   0  0  0  0  0  0  0  0  0  0  0  0
    9.7942    1.5530    0.0000 H   0  0  0  0  0  0  0  0  0  0  0  0
    8.0622    7.7930    0.0000 H   0  0  0  0  0  0  0  0  0  0  0  0
   11.1972    2.3630    0.0000 H   0  0  0  0  0  0  0  0  0  0  0  0
    3.1951   -7.6370    0.0000 H   0  0  0  0  0  0  0  0  0  0  0  0
    4.2690   -7.6370    0.0000 H   0  0  0  0  0  0  0  0  0  0  0  0
    5.9501    5.9050    0.0000 H   0  0  0  0  0  0  0  0  0  0  0  0
    3.5202    4.5021    0.0000 H   0  0  0  0  0  0  0  0  0  0  0  0
    5.1401    7.3080    0.0000 H   0  0  0  0  0  0  0  0  0  0  0  0
    3.8671    7.9470    0.0000 H   0  0  0  0  0  0  0  0  0  0  0  0
    3.0201    8.1740    0.0000 H   0  0  0  0  0  0  0  0  0  0  0  0
    2.7932    7.3270    0.0000 H   0  0  0  0  0  0  0  0  0  0  0  0
  1  3  2  0  0  0  0
  1  4  2  0  0  0  0
  1  7  1  0  0  0  0
  1 20  1  0  0  0  0
  2 17  1  0  0  0  0
  2 73  1  0  0  0  0
  5 25  2  0  0  0  0
  6 37  2  0  0  0  0
 12  7  1  1  0  0  0
  7 14  1  0  0  0  0
  8 19  1  0  0  0  0
  8 25  1  0  0  0  0
  8 72  1  0  0  0  0
 23  9  1  1  0  0  0
  9 37  1  0  0  0  0
  9 76  1  0  0  0  0
 10 32  1  0  0  0  0
 10 89  1  0  0  0  0
 10 90  1  0  0  0  0
 11 46  1  0  0  0  0
 11 48  2  0  0  0  0
 12 13  1  0  0  0  0
 12 17  1  0  0  0  0
 12 50  1  0  0  0  0
 13 15  1  0  0  0  0
 13 51  1  0  0  0  0
 13 52  1  0  0  0  0
 14 16  1  0  0  0  0
 14 53  1  0  0  0  0
 14 54  1  0  0  0  0
 15 18  1  0  0  0  0
 15 55  1  0  0  0  0
 15 56  1  0  0  0  0
 16 21  1  0  0  0  0
 16 22  1  0  0  0  0
 16 57  1  0  0  0  0
 17 58  1  0  0  0  0
 17 59  1  0  0  0  0
 18 19  1  0  0  0  0
 18 60  1  0  0  0  0
 18 61  1  0  0  0  0
 19 62  1  0  0  0  0
 19 63  1  0  0  0  0
 20 26  2  0  0  0  0
 20 27  1  0  0  0  0
 21 64  1  0  0  0  0
 21 65  1  0  0  0  0
 21 66  1  0  0  0  0
 22 67  1  0  0  0  0
 22 68  1  0  0  0  0
 22 69  1  0  0  0  0
 23 24  1  0  0  0  0
 23 25  1  0  0  0  0
 23 70  1  0  0  0  0
 24 28  1  0  0  0  0
 24 29  1  0  0  0  0
 24 71  1  0  0  0  0
 26 30  1  0  0  0  0
 26 74  1  0  0  0  0
 27 31  2  0  0  0  0
 27 75  1  0  0  0  0
 28 33  2  0  0  0  0
 28 35  1  0  0  0  0
 29 34  2  0  0  0  0
 29 36  1  0  0  0  0
 30 32  2  0  0  0  0
 30 77  1  0  0  0  0
 31 32  1  0  0  0  0
 31 78  1  0  0  0  0
 33 38  1  0  0  0  0
 33 79  1  0  0  0  0
 34 39  1  0  0  0  0
 34 80  1  0  0  0  0
 35 40  2  0  0  0  0
 35 81  1  0  0  0  0
 36 41  2  0  0  0  0
 36 82  1  0  0  0  0
 37 44  1  0  0  0  0
 38 42  2  0  0  0  0
 38 83  1  0  0  0  0
 39 43  2  0  0  0  0
 39 84  1  0  0  0  0
 40 42  1  0  0  0  0
 40 85  1  0  0  0  0
 41 43  1  0  0  0  0
 41 86  1  0  0  0  0
 42 87  1  0  0  0  0
 43 88  1  0  0  0  0
 44 45  1  0  0  0  0
 44 46  2  0  0  0  0
 45 47  2  0  0  0  0
 45 91  1  0  0  0  0
 46 92  1  0  0  0  0
 47 48  1  0  0  0  0
 47 93  1  0  0  0  0
 48 49  1  0  0  0  0
 49 94  1  0  0  0  0
 49 95  1  0  0  0  0
 49 96  1  0  0  0  0
M  END
> <PUBCHEM_COMPOUND_CID>
514032
> <PUBCHEM_COMPOUND_CANONICALIZED>
1
> <PUBCHEM_CACTVS_COMPLEXITY>
1080
> <PUBCHEM_CACTVS_HBOND_ACCEPTOR>
8
> <PUBCHEM_CACTVS_HBOND_DONOR>
4
> <PUBCHEM_CACTVS_ROTATABLE_BOND>
17
> <PUBCHEM_CACTVS_SUBSKEYS>
AAADcfB/uABAAAAAAAAAAAAAAAAAAAAAAAA8YMEAAAAAAAAB1AAAHgQQSAAADSjh3gY+wZLIEgKoAzV3VHDCgDA1AiAI2Lm4ZNgKcPrA1bGUYYhklgDYyceYycCegAQAAAAAAAAACAAAAAAAAAAAAAAAAA==
> <PUBCHEM_IUPAC_OPENEYE_NAME>
N-[(1S)-1-[[(5S)-5-[(4-aminophenyl)sulfonyl-isobutyl-amino]-6-hydroxy-hexyl]carbamoyl]-2,2-diphenyl-ethyl]-6-methyl-pyridine-3-carboxamide
> <PUBCHEM_IUPAC_CAS_NAME>
N-[(2S)-1-[[(5S)-5-[(4-aminophenyl)sulfonyl-(2-methylpropyl)amino]-6-hydroxyhexyl]amino]-1-oxo-3,3-diphenylpropan-2-yl]-6-methyl-3-pyridinecarboxamide
> <PUBCHEM_IUPAC_NAME_MARKUP>
<I>N</I>-[(2<I>S</I>)-1-[[(5<I>S</I>)-5-[(4-aminophenyl)sulfonyl-(2-methylpropyl)amino]-6-hydroxyhexyl]amino]-1-oxo-3,3-diphenylpropan-2-yl]-6-methylpyridine-3-carboxamide
> <PUBCHEM_IUPAC_NAME>
N-[(2S)-1-[[(5S)-5-[(4-aminophenyl)sulfonyl-(2-methylpropyl)amino]-6-hydroxyhexyl]amino]-1-oxo-3,3-diphenylpropan-2-yl]-6-methylpyridine-3-carboxamide
> <PUBCHEM_IUPAC_SYSTEMATIC_NAME>
N-[(2S)-1-[[(5S)-5-[(4-aminophenyl)sulfonyl-(2-methylpropyl)amino]-6-oxidanyl-hexyl]amino]-1-oxidanylidene-3,3-diphenyl-propan-2-yl]-6-methyl-pyridine-3-carboxamide
> <PUBCHEM_IUPAC_TRADITIONAL_NAME>
N-[(1S)-1-benzhydryl-2-[[(5S)-6-hydroxy-5-[isobutyl(sulfanilyl)amino]hexyl]amino]-2-keto-ethyl]-6-methyl-nicotinamide
> <PUBCHEM_IUPAC_INCHI>
InChI=1S/C38H47N5O5S/c1-27(2)25-43(49(47,48)34-21-19-32(39)20-22-34)33(26-44)16-10-11-23-40-38(46)36(42-37(45)31-18-17-28(3)41-24-31)35(29-12-6-4-7-13-29)30-14-8-5-9-15-30/h4-9,12-15,17-22,24,27,33,35-36,44H,10-11,16,23,25-26,39H2,1-3H3,(H,40,46)(H,42,45)/t33-,36-/m0/s1
> <PUBCHEM_IUPAC_INCHIKEY>
YUOMCRCBTBNCCS-JUKUECOXSA-N
> <PUBCHEM_XLOGP3_AA>
5.3
> <PUBCHEM_EXACT_MASS>
685.32979079
> <PUBCHEM_MOLECULAR_FORMULA>
C38H47N5O5S
> <PUBCHEM_MOLECULAR_WEIGHT>
685.9
> <PUBCHEM_OPENEYE_CAN_SMILES>
CC1=NC=C(C=C1)C(=O)NC(C(C2=CC=CC=C2)C3=CC=CC=C3)C(=O)NCCCCC(CO)N(CC(C)C)S(=O)(=O)C4=CC=C(C=C4)N
> <PUBCHEM_OPENEYE_ISO_SMILES>
CC1=NC=C(C=C1)C(=O)N[C@@H](C(C2=CC=CC=C2)C3=CC=CC=C3)C(=O)NCCCC[C@@H](CO)N(CC(C)C)S(=O)(=O)C4=CC=C(C=C4)N
> <PUBCHEM_CACTVS_TPSA>
163
> <PUBCHEM_MONOISOTOPIC_WEIGHT>
685.32979079
> <PUBCHEM_TOTAL_CHARGE>
0
> <PUBCHEM_HEAVY_ATOM_COUNT>
49
> <PUBCHEM_ATOM_DEF_STEREO_COUNT>
2
> <PUBCHEM_ATOM_UDEF_STEREO_COUNT>
0
> <PUBCHEM_BOND_DEF_STEREO_COUNT>
0
> <PUBCHEM_BOND_UDEF_STEREO_COUNT>
0
> <PUBCHEM_ISOTOPIC_ATOM_COUNT>
0
> <PUBCHEM_COMPONENT_COUNT>
1
> <PUBCHEM_CACTVS_TAUTO_COUNT>
-1
> <PUBCHEM_COORDINATE_TYPE>
1
5
255
> <PUBCHEM_BONDANNOTATIONS>
11  46  8
11  48  8
20  26  8
20  27  8
26  30  8
27  31  8
28  33  8
28  35  8
29  34  8
29  36  8
30  32  8
31  32  8
33  38  8
34  39  8
35  40  8
36  41  8
38  42  8
39  43  8
40  42  8
41  43  8
44  45  8
44  46  8
45  47  8
47  48  8
12  7  5
23  9  5
$$$$
