514021
  -OEChem-10302200282D
 97100  0     1  0  0  0  0  0999 V2000
    3.9019   -3.3270    0.0000 S   0  0  0  0  0  0  0  0  0  0  0  0
    6.5000   -1.8270    0.0000 O   0  0  0  0  0  0  0  0  0  0  0  0
    4.9019   -3.3270    0.0000 O   0  0  0  0  0  0  0  0  0  0  0  0
    2.9019   -3.3270    0.0000 O   0  0  0  0  0  0  0  0  0  0  0  0
    8.2320    2.1730    0.0000 O   0  0  0  0  0  0  0  0  0  0  0  0
    5.0000    5.0391    0.0000 O   0  0  0  0  0  0  0  0  0  0  0  0
    5.0000    3.3069    0.0000 O   0  0  0  0  0  0  0  0  0  0  0  0
    3.9019   -2.3270    0.0000 N   0  0  3  0  0  0  0  0  0  0  0  0
    6.5000    2.1730    0.0000 N   0  0  0  0  0  0  0  0  0  0  0  0
    6.5000    4.1730    0.0000 N   0  0  0  0  0  0  0  0  0  0  0  0
    3.9019   -7.3270    0.0000 N   0  0  0  0  0  0  0  0  0  0  0  0
    2.5000    7.6370    0.0000 N   0  0  0  0  0  0  0  0  0  0  0  0
    4.7679   -1.8270    0.0000 C   0  0  1  0  0  0  0  0  0  0  0  0
    4.7679   -0.8271    0.0000 C   0  0  0  0  0  0  0  0  0  0  0  0
    3.0358   -1.8270    0.0000 C   0  0  0  0  0  0  0  0  0  0  0  0
    5.6339   -0.3271    0.0000 C   0  0  0  0  0  0  0  0  0  0  0  0
    3.0358   -0.8271    0.0000 C   0  0  0  0  0  0  0  0  0  0  0  0
    5.6339   -2.3270    0.0000 C   0  0  0  0  0  0  0  0  0  0  0  0
    5.6339    0.6729    0.0000 C   0  0  0  0  0  0  0  0  0  0  0  0
    6.5000    1.1730    0.0000 C   0  0  0  0  0  0  0  0  0  0  0  0
    3.9019   -4.3270    0.0000 C   0  0  0  0  0  0  0  0  0  0  0  0
    2.1698   -0.3271    0.0000 C   0  0  0  0  0  0  0  0  0  0  0  0
    3.9019   -0.3271    0.0000 C   0  0  0  0  0  0  0  0  0  0  0  0
    7.3660    3.6730    0.0000 C   0  0  1  0  0  0  0  0  0  0  0  0
    8.2320    4.1730    0.0000 C   0  0  0  0  0  0  0  0  0  0  0  0
    7.3660    2.6730    0.0000 C   0  0  0  0  0  0  0  0  0  0  0  0
    4.7679   -4.8270    0.0000 C   0  0  0  0  0  0  0  0  0  0  0  0
    3.0358   -4.8270    0.0000 C   0  0  0  0  0  0  0  0  0  0  0  0
    8.2320    5.1730    0.0000 C   0  0  0  0  0  0  0  0  0  0  0  0
    9.0980    3.6730    0.0000 C   0  0  0  0  0  0  0  0  0  0  0  0
    4.7679   -5.8270    0.0000 C   0  0  0  0  0  0  0  0  0  0  0  0
    3.0358   -5.8270    0.0000 C   0  0  0  0  0  0  0  0  0  0  0  0
    3.9019   -6.3270    0.0000 C   0  0  0  0  0  0  0  0  0  0  0  0
    9.0980    5.6730    0.0000 C   0  0  0  0  0  0  0  0  0  0  0  0
    9.0980    2.6730    0.0000 C   0  0  0  0  0  0  0  0  0  0  0  0
    7.3660    5.6730    0.0000 C   0  0  0  0  0  0  0  0  0  0  0  0
    9.9640    4.1730    0.0000 C   0  0  0  0  0  0  0  0  0  0  0  0
    5.5000    4.1730    0.0000 C   0  0  0  0  0  0  0  0  0  0  0  0
    9.0980    6.6730    0.0000 C   0  0  0  0  0  0  0  0  0  0  0  0
    9.9640    2.1730    0.0000 C   0  0  0  0  0  0  0  0  0  0  0  0
    7.3660    6.6730    0.0000 C   0  0  0  0  0  0  0  0  0  0  0  0
   10.8301    3.6730    0.0000 C   0  0  0  0  0  0  0  0  0  0  0  0
    8.2320    7.1730    0.0000 C   0  0  0  0  0  0  0  0  0  0  0  0
   10.8301    2.6730    0.0000 C   0  0  0  0  0  0  0  0  0  0  0  0
    4.0000    5.0390    0.0000 C   0  0  0  0  0  0  0  0  0  0  0  0
    3.5000    5.9051    0.0000 C   0  0  0  0  0  0  0  0  0  0  0  0
    4.0000    6.7710    0.0000 C   0  0  0  0  0  0  0  0  0  0  0  0
    2.5000    5.9051    0.0000 C   0  0  0  0  0  0  0  0  0  0  0  0
    3.5000    7.6370    0.0000 C   0  0  0  0  0  0  0  0  0  0  0  0
    2.0000    6.7711    0.0000 C   0  0  0  0  0  0  0  0  0  0  0  0
    4.2310   -1.5170    0.0000 H   0  0  0  0  0  0  0  0  0  0  0  0
    4.5559   -0.2444    0.0000 H   0  0  0  0  0  0  0  0  0  0  0  0
    4.1573   -0.9347    0.0000 H   0  0  0  0  0  0  0  0  0  0  0  0
    2.4253   -1.7194    0.0000 H   0  0  0  0  0  0  0  0  0  0  0  0
    2.8238   -2.4097    0.0000 H   0  0  0  0  0  0  0  0  0  0  0  0
    5.8460   -0.9097    0.0000 H   0  0  0  0  0  0  0  0  0  0  0  0
    6.2445   -0.2194    0.0000 H   0  0  0  0  0  0  0  0  0  0  0  0
    3.0358   -0.2071    0.0000 H   0  0  0  0  0  0  0  0  0  0  0  0
    5.2354   -2.8020    0.0000 H   0  0  0  0  0  0  0  0  0  0  0  0
    6.0324   -2.8020    0.0000 H   0  0  0  0  0  0  0  0  0  0  0  0
    5.4219    1.2556    0.0000 H   0  0  0  0  0  0  0  0  0  0  0  0
    5.0233    0.5653    0.0000 H   0  0  0  0  0  0  0  0  0  0  0  0
    6.7120    0.5903    0.0000 H   0  0  0  0  0  0  0  0  0  0  0  0
    7.1105    1.2806    0.0000 H   0  0  0  0  0  0  0  0  0  0  0  0
    2.4798    0.2099    0.0000 H   0  0  0  0  0  0  0  0  0  0  0  0
    1.6329   -0.0171    0.0000 H   0  0  0  0  0  0  0  0  0  0  0  0
    1.8598   -0.8640    0.0000 H   0  0  0  0  0  0  0  0  0  0  0  0
    4.2119   -0.8640    0.0000 H   0  0  0  0  0  0  0  0  0  0  0  0
    4.4388   -0.0171    0.0000 H   0  0  0  0  0  0  0  0  0  0  0  0
    3.5919    0.2099    0.0000 H   0  0  0  0  0  0  0  0  0  0  0  0
    6.8290    3.3630    0.0000 H   0  0  0  0  0  0  0  0  0  0  0  0
    7.6951    4.4830    0.0000 H   0  0  0  0  0  0  0  0  0  0  0  0
    5.8800    2.1730    0.0000 H   0  0  0  0  0  0  0  0  0  0  0  0
    7.0369   -2.1370    0.0000 H   0  0  0  0  0  0  0  0  0  0  0  0
    5.3048   -4.5170    0.0000 H   0  0  0  0  0  0  0  0  0  0  0  0
    2.4989   -4.5170    0.0000 H   0  0  0  0  0  0  0  0  0  0  0  0
    6.5000    4.7930    0.0000 H   0  0  0  0  0  0  0  0  0  0  0  0
    5.3048   -6.1370    0.0000 H   0  0  0  0  0  0  0  0  0  0  0  0
    2.4989   -6.1370    0.0000 H   0  0  0  0  0  0  0  0  0  0  0  0
    9.6350    5.3630    0.0000 H   0  0  0  0  0  0  0  0  0  0  0  0
    8.5611    2.3630    0.0000 H   0  0  0  0  0  0  0  0  0  0  0  0
    6.8290    5.3630    0.0000 H   0  0  0  0  0  0  0  0  0  0  0  0
    9.9640    4.7930    0.0000 H   0  0  0  0  0  0  0  0  0  0  0  0
    9.6350    6.9830    0.0000 H   0  0  0  0  0  0  0  0  0  0  0  0
    9.9640    1.5530    0.0000 H   0  0  0  0  0  0  0  0  0  0  0  0
    6.8290    6.9830    0.0000 H   0  0  0  0  0  0  0  0  0  0  0  0
   11.3670    3.9830    0.0000 H   0  0  0  0  0  0  0  0  0  0  0  0
    8.2320    7.7930    0.0000 H   0  0  0  0  0  0  0  0  0  0  0  0
   11.3670    2.3630    0.0000 H   0  0  0  0  0  0  0  0  0  0  0  0
    3.3649   -7.6370    0.0000 H   0  0  0  0  0  0  0  0  0  0  0  0
    4.4388   -7.6370    0.0000 H   0  0  0  0  0  0  0  0  0  0  0  0
    3.4174    4.8270    0.0000 H   0  0  0  0  0  0  0  0  0  0  0  0
    4.1076    4.4285    0.0000 H   0  0  0  0  0  0  0  0  0  0  0  0
    4.6200    6.7710    0.0000 H   0  0  0  0  0  0  0  0  0  0  0  0
    2.1900    5.3682    0.0000 H   0  0  0  0  0  0  0  0  0  0  0  0
    3.8100    8.1740    0.0000 H   0  0  0  0  0  0  0  0  0  0  0  0
    1.3800    6.7711    0.0000 H   0  0  0  0  0  0  0  0  0  0  0  0
  1  3  2  0  0  0  0
  1  4  2  0  0  0  0
  1  8  1  0  0  0  0
  1 21  1  0  0  0  0
  2 18  1  0  0  0  0
  2 74  1  0  0  0  0
  5 26  2  0  0  0  0
  6 38  1  0  0  0  0
  6 45  1  0  0  0  0
  7 38  2  0  0  0  0
 13  8  1  1  0  0  0
  8 15  1  0  0  0  0
  9 20  1  0  0  0  0
  9 26  1  0  0  0  0
  9 73  1  0  0  0  0
 24 10  1  1  0  0  0
 10 38  1  0  0  0  0
 10 77  1  0  0  0  0
 11 33  1  0  0  0  0
 11 90  1  0  0  0  0
 11 91  1  0  0  0  0
 12 49  2  0  0  0  0
 12 50  1  0  0  0  0
 13 14  1  0  0  0  0
 13 18  1  0  0  0  0
 13 51  1  0  0  0  0
 14 16  1  0  0  0  0
 14 52  1  0  0  0  0
 14 53  1  0  0  0  0
 15 17  1  0  0  0  0
 15 54  1  0  0  0  0
 15 55  1  0  0  0  0
 16 19  1  0  0  0  0
 16 56  1  0  0  0  0
 16 57  1  0  0  0  0
 17 22  1  0  0  0  0
 17 23  1  0  0  0  0
 17 58  1  0  0  0  0
 18 59  1  0  0  0  0
 18 60  1  0  0  0  0
 19 20  1  0  0  0  0
 19 61  1  0  0  0  0
 19 62  1  0  0  0  0
 20 63  1  0  0  0  0
 20 64  1  0  0  0  0
 21 27  2  0  0  0  0
 21 28  1  0  0  0  0
 22 65  1  0  0  0  0
 22 66  1  0  0  0  0
 22 67  1  0  0  0  0
 23 68  1  0  0  0  0
 23 69  1  0  0  0  0
 23 70  1  0  0  0  0
 24 25  1  0  0  0  0
 24 26  1  0  0  0  0
 24 71  1  0  0  0  0
 25 29  1  0  0  0  0
 25 30  1  0  0  0  0
 25 72  1  0  0  0  0
 27 31  1  0  0  0  0
 27 75  1  0  0  0  0
 28 32  2  0  0  0  0
 28 76  1  0  0  0  0
 29 34  2  0  0  0  0
 29 36  1  0  0  0  0
 30 35  2  0  0  0  0
 30 37  1  0  0  0  0
 31 33  2  0  0  0  0
 31 78  1  0  0  0  0
 32 33  1  0  0  0  0
 32 79  1  0  0  0  0
 34 39  1  0  0  0  0
 34 80  1  0  0  0  0
 35 40  1  0  0  0  0
 35 81  1  0  0  0  0
 36 41  2  0  0  0  0
 36 82  1  0  0  0  0
 37 42  2  0  0  0  0
 37 83  1  0  0  0  0
 39 43  2  0  0  0  0
 39 84  1  0  0  0  0
 40 44  2  0  0  0  0
 40 85  1  0  0  0  0
 41 43  1  0  0  0  0
 41 86  1  0  0  0  0
 42 44  1  0  0  0  0
 42 87  1  0  0  0  0
 43 88  1  0  0  0  0
 44 89  1  0  0  0  0
 45 46  1  0  0  0  0
 45 92  1  0  0  0  0
 45 93  1  0  0  0  0
 46 47  2  0  0  0  0
 46 48  1  0  0  0  0
 47 49  1  0  0  0  0
 47 94  1  0  0  0  0
 48 50  2  0  0  0  0
 48 95  1  0  0  0  0
 49 96  1  0  0  0  0
 50 97  1  0  0  0  0
M  END
> <PUBCHEM_COMPOUND_CID>
514021
> <PUBCHEM_COMPOUND_CANONICALIZED>
1
> <PUBCHEM_CACTVS_COMPLEXITY>
1080
> <PUBCHEM_CACTVS_HBOND_ACCEPTOR>
9
> <PUBCHEM_CACTVS_HBOND_DONOR>
4
> <PUBCHEM_CACTVS_ROTATABLE_BOND>
19
> <PUBCHEM_CACTVS_SUBSKEYS>
AAADcfB/uABAAAAAAAAAAAAAAAAAAAAAAAA8YMEAAAAAAAAB1AAAHgQQSAAADSjh2gY+yZLIFgKoAjV3XHDCgDAxAiAI2Lm4bJkKdnLAsbmccAhk1gHY6Ae4yMCOgAQAAAAAAAAACAAAAAAAAAAAAAAAAA==
> <PUBCHEM_IUPAC_OPENEYE_NAME>
4-pyridylmethyl N-[(1S)-1-[[(5S)-5-[(4-aminophenyl)sulfonyl-isobutyl-amino]-6-hydroxy-hexyl]carbamoyl]-2,2-diphenyl-ethyl]carbamate
> <PUBCHEM_IUPAC_CAS_NAME>
N-[(2S)-1-[[(5S)-5-[(4-aminophenyl)sulfonyl-(2-methylpropyl)amino]-6-hydroxyhexyl]amino]-1-oxo-3,3-diphenylpropan-2-yl]carbamic acid pyridin-4-ylmethyl ester
> <PUBCHEM_IUPAC_NAME_MARKUP>
pyridin-4-ylmethyl <I>N</I>-[(2<I>S</I>)-1-[[(5<I>S</I>)-5-[(4-aminophenyl)sulfonyl-(2-methylpropyl)amino]-6-hydroxyhexyl]amino]-1-oxo-3,3-diphenylpropan-2-yl]carbamate
> <PUBCHEM_IUPAC_NAME>
pyridin-4-ylmethyl N-[(2S)-1-[[(5S)-5-[(4-aminophenyl)sulfonyl-(2-methylpropyl)amino]-6-hydroxyhexyl]amino]-1-oxo-3,3-diphenylpropan-2-yl]carbamate
> <PUBCHEM_IUPAC_SYSTEMATIC_NAME>
pyridin-4-ylmethyl N-[(2S)-1-[[(5S)-5-[(4-aminophenyl)sulfonyl-(2-methylpropyl)amino]-6-oxidanyl-hexyl]amino]-1-oxidanylidene-3,3-diphenyl-propan-2-yl]carbamate
> <PUBCHEM_IUPAC_TRADITIONAL_NAME>
N-[(1S)-1-benzhydryl-2-[[(5S)-6-hydroxy-5-[isobutyl(sulfanilyl)amino]hexyl]amino]-2-keto-ethyl]carbamic acid 4-pyridylmethyl ester
> <PUBCHEM_IUPAC_INCHI>
InChI=1S/C38H47N5O6S/c1-28(2)25-43(50(47,48)34-18-16-32(39)17-19-34)33(26-44)15-9-10-22-41-37(45)36(42-38(46)49-27-29-20-23-40-24-21-29)35(30-11-5-3-6-12-30)31-13-7-4-8-14-31/h3-8,11-14,16-21,23-24,28,33,35-36,44H,9-10,15,22,25-27,39H2,1-2H3,(H,41,45)(H,42,46)/t33-,36-/m0/s1
> <PUBCHEM_IUPAC_INCHIKEY>
PDCGRTGBLXVGJC-JUKUECOXSA-N
> <PUBCHEM_XLOGP3_AA>
5.1
> <PUBCHEM_EXACT_MASS>
701.32470541
> <PUBCHEM_MOLECULAR_FORMULA>
C38H47N5O6S
> <PUBCHEM_MOLECULAR_WEIGHT>
701.9
> <PUBCHEM_OPENEYE_CAN_SMILES>
CC(C)CN(C(CCCCNC(=O)C(C(C1=CC=CC=C1)C2=CC=CC=C2)NC(=O)OCC3=CC=NC=C3)CO)S(=O)(=O)C4=CC=C(C=C4)N
> <PUBCHEM_OPENEYE_ISO_SMILES>
CC(C)CN([C@@H](CCCCNC(=O)[C@H](C(C1=CC=CC=C1)C2=CC=CC=C2)NC(=O)OCC3=CC=NC=C3)CO)S(=O)(=O)C4=CC=C(C=C4)N
> <PUBCHEM_CACTVS_TPSA>
172
> <PUBCHEM_MONOISOTOPIC_WEIGHT>
701.32470541
> <PUBCHEM_TOTAL_CHARGE>
0
> <PUBCHEM_HEAVY_ATOM_COUNT>
50
> <PUBCHEM_ATOM_DEF_STEREO_COUNT>
2
> <PUBCHEM_ATOM_UDEF_STEREO_COUNT>
0
> <PUBCHEM_BOND_DEF_STEREO_COUNT>
0
> <PUBCHEM_BOND_UDEF_STEREO_COUNT>
0
> <PUBCHEM_ISOTOPIC_ATOM_COUNT>
0
> <PUBCHEM_COMPONENT_COUNT>
1
> <PUBCHEM_CACTVS_TAUTO_COUNT>
-1
> <PUBCHEM_COORDINATE_TYPE>
1
5
255
> <PUBCHEM_BONDANNOTATIONS>
24  10  5
12  49  8
12  50  8
21  27  8
21  28  8
27  31  8
28  32  8
29  34  8
29  36  8
30  35  8
30  37  8
31  33  8
32  33  8
34  39  8
35  40  8
36  41  8
37  42  8
39  43  8
40  44  8
41  43  8
42  44  8
46  47  8
46  48  8
47  49  8
48  50  8
13  8  5
$$$$
