514034
  -OEChem-10302200282D
 87 90  0     1  0  0  0  0  0999 V2000
    3.7320    3.1012    0.0000 S   0  0  0  0  0  0  0  0  0  0  0  0
    3.7320    7.1012    0.0000 F   0  0  0  0  0  0  0  0  0  0  0  0
    6.3301    1.6012    0.0000 O   0  0  0  0  0  0  0  0  0  0  0  0
    2.7320    3.1012    0.0000 O   0  0  0  0  0  0  0  0  0  0  0  0
    4.7320    3.1012    0.0000 O   0  0  0  0  0  0  0  0  0  0  0  0
    8.0622   -2.3988    0.0000 O   0  0  0  0  0  0  0  0  0  0  0  0
    7.1962   -5.8988    0.0000 O   0  0  0  0  0  0  0  0  0  0  0  0
    3.7320    2.1012    0.0000 N   0  0  3  0  0  0  0  0  0  0  0  0
    6.3301   -2.3988    0.0000 N   0  0  0  0  0  0  0  0  0  0  0  0
    6.3301   -4.3988    0.0000 N   0  0  0  0  0  0  0  0  0  0  0  0
    5.4641    6.1012    0.0000 N   0  0  0  0  0  0  0  0  0  0  0  0
    4.5506   -5.4920    0.0000 N   0  0  0  0  0  0  0  0  0  0  0  0
    4.3814   -7.1012    0.0000 N   0  0  0  0  0  0  0  0  0  0  0  0
    4.5981    1.6012    0.0000 C   0  0  1  0  0  0  0  0  0  0  0  0
    4.5981    0.6012    0.0000 C   0  0  0  0  0  0  0  0  0  0  0  0
    2.8660    1.6012    0.0000 C   0  0  0  0  0  0  0  0  0  0  0  0
    5.4641    0.1012    0.0000 C   0  0  0  0  0  0  0  0  0  0  0  0
    2.8660    0.6012    0.0000 C   0  0  0  0  0  0  0  0  0  0  0  0
    5.4641    2.1012    0.0000 C   0  0  0  0  0  0  0  0  0  0  0  0
    5.4641   -0.8988    0.0000 C   0  0  0  0  0  0  0  0  0  0  0  0
    3.7320    4.1012    0.0000 C   0  0  0  0  0  0  0  0  0  0  0  0
    2.0000    0.1012    0.0000 C   0  0  0  0  0  0  0  0  0  0  0  0
    3.7320    0.1012    0.0000 C   0  0  0  0  0  0  0  0  0  0  0  0
    6.3301   -1.3988    0.0000 C   0  0  0  0  0  0  0  0  0  0  0  0
    4.5981    4.6012    0.0000 C   0  0  0  0  0  0  0  0  0  0  0  0
    2.8660    4.6012    0.0000 C   0  0  0  0  0  0  0  0  0  0  0  0
    7.1962   -3.8988    0.0000 C   0  0  2  0  0  0  0  0  0  0  0  0
    7.1962   -2.8988    0.0000 C   0  0  0  0  0  0  0  0  0  0  0  0
    8.0622   -4.3988    0.0000 C   0  0  0  0  0  0  0  0  0  0  0  0
    4.5981    5.6012    0.0000 C   0  0  0  0  0  0  0  0  0  0  0  0
    2.8660    5.6012    0.0000 C   0  0  0  0  0  0  0  0  0  0  0  0
    3.7320    6.1012    0.0000 C   0  0  0  0  0  0  0  0  0  0  0  0
    8.9282   -3.8988    0.0000 C   0  0  0  0  0  0  0  0  0  0  0  0
    9.7942   -4.3988    0.0000 C   0  0  0  0  0  0  0  0  0  0  0  0
    8.9282   -2.8988    0.0000 C   0  0  0  0  0  0  0  0  0  0  0  0
   10.6603   -3.8988    0.0000 C   0  0  0  0  0  0  0  0  0  0  0  0
   10.6603   -2.8988    0.0000 C   0  0  0  0  0  0  0  0  0  0  0  0
    6.3301   -5.3988    0.0000 C   0  0  0  0  0  0  0  0  0  0  0  0
    9.7942   -2.3988    0.0000 C   0  0  0  0  0  0  0  0  0  0  0  0
   11.5542   -4.4334    0.0000 C   0  0  0  0  0  0  0  0  0  0  0  0
    5.4641   -5.8988    0.0000 C   0  0  0  0  0  0  0  0  0  0  0  0
   11.5542   -2.3641    0.0000 C   0  0  0  0  0  0  0  0  0  0  0  0
   12.4603   -3.9196    0.0000 C   0  0  0  0  0  0  0  0  0  0  0  0
   12.4603   -2.8780    0.0000 C   0  0  0  0  0  0  0  0  0  0  0  0
    5.3596   -6.8933    0.0000 C   0  0  0  0  0  0  0  0  0  0  0  0
    3.8814   -6.2352    0.0000 C   0  0  0  0  0  0  0  0  0  0  0  0
    4.5981    2.2212    0.0000 H   0  0  0  0  0  0  0  0  0  0  0  0
    3.9875    0.7089    0.0000 H   0  0  0  0  0  0  0  0  0  0  0  0
    4.3860    0.0186    0.0000 H   0  0  0  0  0  0  0  0  0  0  0  0
    2.6540    2.1838    0.0000 H   0  0  0  0  0  0  0  0  0  0  0  0
    2.2554    1.4936    0.0000 H   0  0  0  0  0  0  0  0  0  0  0  0
    6.0747   -0.0064    0.0000 H   0  0  0  0  0  0  0  0  0  0  0  0
    5.6762    0.6838    0.0000 H   0  0  0  0  0  0  0  0  0  0  0  0
    2.8660   -0.0188    0.0000 H   0  0  0  0  0  0  0  0  0  0  0  0
    5.8626    2.5762    0.0000 H   0  0  0  0  0  0  0  0  0  0  0  0
    5.0656    2.5762    0.0000 H   0  0  0  0  0  0  0  0  0  0  0  0
    4.8535   -0.7911    0.0000 H   0  0  0  0  0  0  0  0  0  0  0  0
    5.2520   -1.4814    0.0000 H   0  0  0  0  0  0  0  0  0  0  0  0
    1.6900    0.6382    0.0000 H   0  0  0  0  0  0  0  0  0  0  0  0
    1.4631   -0.2088    0.0000 H   0  0  0  0  0  0  0  0  0  0  0  0
    2.3100   -0.4357    0.0000 H   0  0  0  0  0  0  0  0  0  0  0  0
    3.4220   -0.4357    0.0000 H   0  0  0  0  0  0  0  0  0  0  0  0
    4.2690   -0.2088    0.0000 H   0  0  0  0  0  0  0  0  0  0  0  0
    4.0420    0.6382    0.0000 H   0  0  0  0  0  0  0  0  0  0  0  0
    6.9407   -1.5064    0.0000 H   0  0  0  0  0  0  0  0  0  0  0  0
    6.5422   -0.8162    0.0000 H   0  0  0  0  0  0  0  0  0  0  0  0
    6.8671    1.9112    0.0000 H   0  0  0  0  0  0  0  0  0  0  0  0
    5.7932   -2.7088    0.0000 H   0  0  0  0  0  0  0  0  0  0  0  0
    5.1350    4.2912    0.0000 H   0  0  0  0  0  0  0  0  0  0  0  0
    2.3291    4.2912    0.0000 H   0  0  0  0  0  0  0  0  0  0  0  0
    6.6592   -3.5888    0.0000 H   0  0  0  0  0  0  0  0  0  0  0  0
    7.6636   -4.8737    0.0000 H   0  0  0  0  0  0  0  0  0  0  0  0
    8.4607   -4.8737    0.0000 H   0  0  0  0  0  0  0  0  0  0  0  0
    2.3291    5.9112    0.0000 H   0  0  0  0  0  0  0  0  0  0  0  0
    5.7932   -4.0888    0.0000 H   0  0  0  0  0  0  0  0  0  0  0  0
    9.7942   -5.0188    0.0000 H   0  0  0  0  0  0  0  0  0  0  0  0
    8.3913   -2.5888    0.0000 H   0  0  0  0  0  0  0  0  0  0  0  0
    5.4641    6.7212    0.0000 H   0  0  0  0  0  0  0  0  0  0  0  0
    6.0010    5.7912    0.0000 H   0  0  0  0  0  0  0  0  0  0  0  0
    9.7942   -1.7788    0.0000 H   0  0  0  0  0  0  0  0  0  0  0  0
   11.5470   -5.0534    0.0000 H   0  0  0  0  0  0  0  0  0  0  0  0
   11.5470   -1.7442    0.0000 H   0  0  0  0  0  0  0  0  0  0  0  0
   12.9960   -4.2317    0.0000 H   0  0  0  0  0  0  0  0  0  0  0  0
   12.9960   -2.5659    0.0000 H   0  0  0  0  0  0  0  0  0  0  0  0
    4.4216   -4.8856    0.0000 H   0  0  0  0  0  0  0  0  0  0  0  0
    5.8203   -7.3082    0.0000 H   0  0  0  0  0  0  0  0  0  0  0  0
    3.2648   -6.1704    0.0000 H   0  0  0  0  0  0  0  0  0  0  0  0
  1  4  2  0  0  0  0
  1  5  2  0  0  0  0
  1  8  1  0  0  0  0
  1 21  1  0  0  0  0
  2 32  1  0  0  0  0
  3 19  1  0  0  0  0
  3 67  1  0  0  0  0
  6 28  2  0  0  0  0
  7 38  2  0  0  0  0
 14  8  1  6  0  0  0
  8 16  1  0  0  0  0
  9 24  1  0  0  0  0
  9 28  1  0  0  0  0
  9 68  1  0  0  0  0
 27 10  1  6  0  0  0
 10 38  1  0  0  0  0
 10 75  1  0  0  0  0
 11 30  1  0  0  0  0
 11 78  1  0  0  0  0
 11 79  1  0  0  0  0
 12 41  1  0  0  0  0
 12 46  1  0  0  0  0
 12 85  1  0  0  0  0
 13 45  1  0  0  0  0
 13 46  2  0  0  0  0
 14 15  1  0  0  0  0
 14 19  1  0  0  0  0
 14 47  1  0  0  0  0
 15 17  1  0  0  0  0
 15 48  1  0  0  0  0
 15 49  1  0  0  0  0
 16 18  1  0  0  0  0
 16 50  1  0  0  0  0
 16 51  1  0  0  0  0
 17 20  1  0  0  0  0
 17 52  1  0  0  0  0
 17 53  1  0  0  0  0
 18 22  1  0  0  0  0
 18 23  1  0  0  0  0
 18 54  1  0  0  0  0
 19 55  1  0  0  0  0
 19 56  1  0  0  0  0
 20 24  1  0  0  0  0
 20 57  1  0  0  0  0
 20 58  1  0  0  0  0
 21 25  2  0  0  0  0
 21 26  1  0  0  0  0
 22 59  1  0  0  0  0
 22 60  1  0  0  0  0
 22 61  1  0  0  0  0
 23 62  1  0  0  0  0
 23 63  1  0  0  0  0
 23 64  1  0  0  0  0
 24 65  1  0  0  0  0
 24 66  1  0  0  0  0
 25 30  1  0  0  0  0
 25 69  1  0  0  0  0
 26 31  2  0  0  0  0
 26 70  1  0  0  0  0
 27 28  1  0  0  0  0
 27 29  1  0  0  0  0
 27 71  1  0  0  0  0
 29 33  1  0  0  0  0
 29 72  1  0  0  0  0
 29 73  1  0  0  0  0
 30 32  2  0  0  0  0
 31 32  1  0  0  0  0
 31 74  1  0  0  0  0
 33 34  2  0  0  0  0
 33 35  1  0  0  0  0
 34 36  1  0  0  0  0
 34 76  1  0  0  0  0
 35 39  2  0  0  0  0
 35 77  1  0  0  0  0
 36 37  1  0  0  0  0
 36 40  2  0  0  0  0
 37 39  1  0  0  0  0
 37 42  2  0  0  0  0
 38 41  1  0  0  0  0
 39 80  1  0  0  0  0
 40 43  1  0  0  0  0
 40 81  1  0  0  0  0
 41 45  2  0  0  0  0
 42 44  1  0  0  0  0
 42 82  1  0  0  0  0
 43 44  2  0  0  0  0
 43 83  1  0  0  0  0
 44 84  1  0  0  0  0
 45 86  1  0  0  0  0
 46 87  1  0  0  0  0
M  END
> <PUBCHEM_COMPOUND_CID>
514034
> <PUBCHEM_COMPOUND_CANONICALIZED>
1
> <PUBCHEM_CACTVS_COMPLEXITY>
1080
> <PUBCHEM_CACTVS_HBOND_ACCEPTOR>
9
> <PUBCHEM_CACTVS_HBOND_DONOR>
5
> <PUBCHEM_CACTVS_ROTATABLE_BOND>
16
> <PUBCHEM_CACTVS_SUBSKEYS>
AAADcfB/uQBAAAAAAAAAAAAAAAAAAWAAAAAwYMAAAAAAAADB1AAAHwQQSAAADSjh3g4/0dbJkgKoAzV3dHDCgD23EqAJ2Zm4dMiKeDrA2bGUYIxslgLYyOeYyMCOwAACACAQAACAAAQAQCAAAAAAAAAAAA==
> <PUBCHEM_IUPAC_OPENEYE_NAME>
N-[(1S)-2-[[(5S)-5-[(3-amino-4-fluoro-phenyl)sulfonyl-isobutyl-amino]-6-hydroxy-hexyl]amino]-1-(2-naphthylmethyl)-2-oxo-ethyl]-1H-imidazole-5-carboxamide
> <PUBCHEM_IUPAC_CAS_NAME>
N-[(2S)-1-[[(5S)-5-[(3-amino-4-fluorophenyl)sulfonyl-(2-methylpropyl)amino]-6-hydroxyhexyl]amino]-3-(2-naphthalenyl)-1-oxopropan-2-yl]-1H-imidazole-5-carboxamide
> <PUBCHEM_IUPAC_NAME_MARKUP>
<I>N</I>-[(2<I>S</I>)-1-[[(5<I>S</I>)-5-[(3-amino-4-fluorophenyl)sulfonyl-(2-methylpropyl)amino]-6-hydroxyhexyl]amino]-3-naphthalen-2-yl-1-oxopropan-2-yl]-1<I>H</I>-imidazole-5-carboxamide
> <PUBCHEM_IUPAC_NAME>
N-[(2S)-1-[[(5S)-5-[(3-amino-4-fluorophenyl)sulfonyl-(2-methylpropyl)amino]-6-hydroxyhexyl]amino]-3-naphthalen-2-yl-1-oxopropan-2-yl]-1H-imidazole-5-carboxamide
> <PUBCHEM_IUPAC_SYSTEMATIC_NAME>
N-[(2S)-1-[[(5S)-5-[(3-azanyl-4-fluoranyl-phenyl)sulfonyl-(2-methylpropyl)amino]-6-oxidanyl-hexyl]amino]-3-naphthalen-2-yl-1-oxidanylidene-propan-2-yl]-1H-imidazole-5-carboxamide
> <PUBCHEM_IUPAC_TRADITIONAL_NAME>
N-[(1S)-2-[[(5S)-5-[(3-amino-4-fluoro-phenyl)sulfonyl-isobutyl-amino]-6-hydroxy-hexyl]amino]-2-keto-1-(2-naphthylmethyl)ethyl]-1H-imidazole-5-carboxamide
> <PUBCHEM_IUPAC_INCHI>
InChI=1S/C33H41FN6O5S/c1-22(2)19-40(46(44,45)27-12-13-28(34)29(35)17-27)26(20-41)9-5-6-14-37-32(42)30(39-33(43)31-18-36-21-38-31)16-23-10-11-24-7-3-4-8-25(24)15-23/h3-4,7-8,10-13,15,17-18,21-22,26,30,41H,5-6,9,14,16,19-20,35H2,1-2H3,(H,36,38)(H,37,42)(H,39,43)/t26-,30-/m0/s1
> <PUBCHEM_IUPAC_INCHIKEY>
ZPTVEFHHINOYGR-YZNIXAGQSA-N
> <PUBCHEM_XLOGP3_AA>
4.3
> <PUBCHEM_EXACT_MASS>
652.28431777
> <PUBCHEM_MOLECULAR_FORMULA>
C33H41FN6O5S
> <PUBCHEM_MOLECULAR_WEIGHT>
652.8
> <PUBCHEM_OPENEYE_CAN_SMILES>
CC(C)CN(C(CCCCNC(=O)C(CC1=CC2=CC=CC=C2C=C1)NC(=O)C3=CN=CN3)CO)S(=O)(=O)C4=CC(=C(C=C4)F)N
> <PUBCHEM_OPENEYE_ISO_SMILES>
CC(C)CN([C@@H](CCCCNC(=O)[C@H](CC1=CC2=CC=CC=C2C=C1)NC(=O)C3=CN=CN3)CO)S(=O)(=O)C4=CC(=C(C=C4)F)N
> <PUBCHEM_CACTVS_TPSA>
179
> <PUBCHEM_MONOISOTOPIC_WEIGHT>
652.28431777
> <PUBCHEM_TOTAL_CHARGE>
0
> <PUBCHEM_HEAVY_ATOM_COUNT>
46
> <PUBCHEM_ATOM_DEF_STEREO_COUNT>
2
> <PUBCHEM_ATOM_UDEF_STEREO_COUNT>
0
> <PUBCHEM_BOND_DEF_STEREO_COUNT>
0
> <PUBCHEM_BOND_UDEF_STEREO_COUNT>
0
> <PUBCHEM_ISOTOPIC_ATOM_COUNT>
0
> <PUBCHEM_COMPONENT_COUNT>
1
> <PUBCHEM_CACTVS_TAUTO_COUNT>
-1
> <PUBCHEM_COORDINATE_TYPE>
1
5
255
> <PUBCHEM_BONDANNOTATIONS>
27  10  6
12  41  8
12  46  8
13  45  8
13  46  8
21  25  8
21  26  8
25  30  8
26  31  8
30  32  8
31  32  8
33  34  8
33  35  8
34  36  8
35  39  8
36  37  8
36  40  8
37  39  8
37  42  8
40  43  8
41  45  8
42  44  8
43  44  8
14  8  6
$$$$
