514025
  -OEChem-10302200282D
 95 98  0     1  0  0  0  0  0999 V2000
    3.7320   -3.5955    0.0000 S   0  0  0  0  0  0  0  0  0  0  0  0
    6.3301   -2.0955    0.0000 O   0  0  0  0  0  0  0  0  0  0  0  0
    4.7320   -3.5955    0.0000 O   0  0  0  0  0  0  0  0  0  0  0  0
    2.7320   -3.5955    0.0000 O   0  0  0  0  0  0  0  0  0  0  0  0
    8.0622    1.9045    0.0000 O   0  0  0  0  0  0  0  0  0  0  0  0
    4.8302    3.0384    0.0000 O   0  0  0  0  0  0  0  0  0  0  0  0
    5.3301    7.3686    0.0000 O   0  0  0  0  0  0  0  0  0  0  0  0
    3.7320   -2.5955    0.0000 N   0  0  3  0  0  0  0  0  0  0  0  0
    6.3301    1.9045    0.0000 N   0  0  0  0  0  0  0  0  0  0  0  0
    6.3301    3.9045    0.0000 N   0  0  0  0  0  0  0  0  0  0  0  0
    3.7320   -7.5955    0.0000 N   0  0  0  0  0  0  0  0  0  0  0  0
    4.5981   -2.0955    0.0000 C   0  0  1  0  0  0  0  0  0  0  0  0
    4.5981   -1.0955    0.0000 C   0  0  0  0  0  0  0  0  0  0  0  0
    2.8660   -2.0955    0.0000 C   0  0  0  0  0  0  0  0  0  0  0  0
    5.4641   -0.5955    0.0000 C   0  0  0  0  0  0  0  0  0  0  0  0
    2.8660   -1.0955    0.0000 C   0  0  0  0  0  0  0  0  0  0  0  0
    5.4641   -2.5955    0.0000 C   0  0  0  0  0  0  0  0  0  0  0  0
    5.4641    0.4045    0.0000 C   0  0  0  0  0  0  0  0  0  0  0  0
    6.3301    0.9045    0.0000 C   0  0  0  0  0  0  0  0  0  0  0  0
    3.7320   -4.5955    0.0000 C   0  0  0  0  0  0  0  0  0  0  0  0
    2.0000   -0.5955    0.0000 C   0  0  0  0  0  0  0  0  0  0  0  0
    3.7320   -0.5955    0.0000 C   0  0  0  0  0  0  0  0  0  0  0  0
    7.1962    3.4045    0.0000 C   0  0  1  0  0  0  0  0  0  0  0  0
    8.0622    3.9045    0.0000 C   0  0  0  0  0  0  0  0  0  0  0  0
    7.1962    2.4045    0.0000 C   0  0  0  0  0  0  0  0  0  0  0  0
    2.8660   -5.0955    0.0000 C   0  0  0  0  0  0  0  0  0  0  0  0
    4.5981   -5.0955    0.0000 C   0  0  0  0  0  0  0  0  0  0  0  0
    8.0622    4.9045    0.0000 C   0  0  0  0  0  0  0  0  0  0  0  0
    8.9282    3.4045    0.0000 C   0  0  0  0  0  0  0  0  0  0  0  0
    2.8660   -6.0955    0.0000 C   0  0  0  0  0  0  0  0  0  0  0  0
    4.5981   -6.0955    0.0000 C   0  0  0  0  0  0  0  0  0  0  0  0
    3.7320   -6.5955    0.0000 C   0  0  0  0  0  0  0  0  0  0  0  0
    7.1962    5.4045    0.0000 C   0  0  0  0  0  0  0  0  0  0  0  0
    9.7942    3.9045    0.0000 C   0  0  0  0  0  0  0  0  0  0  0  0
    8.9282    5.4045    0.0000 C   0  0  0  0  0  0  0  0  0  0  0  0
    8.9282    2.4045    0.0000 C   0  0  0  0  0  0  0  0  0  0  0  0
    5.3301    3.9045    0.0000 C   0  0  0  0  0  0  0  0  0  0  0  0
    7.1962    6.4045    0.0000 C   0  0  0  0  0  0  0  0  0  0  0  0
   10.6603    3.4045    0.0000 C   0  0  0  0  0  0  0  0  0  0  0  0
    8.9282    6.4045    0.0000 C   0  0  0  0  0  0  0  0  0  0  0  0
    9.7942    1.9045    0.0000 C   0  0  0  0  0  0  0  0  0  0  0  0
    4.8302    4.7706    0.0000 C   0  0  0  0  0  0  0  0  0  0  0  0
    8.0622    6.9045    0.0000 C   0  0  0  0  0  0  0  0  0  0  0  0
   10.6603    2.4045    0.0000 C   0  0  0  0  0  0  0  0  0  0  0  0
    5.3301    5.6365    0.0000 C   0  0  0  0  0  0  0  0  0  0  0  0
    3.8302    4.7706    0.0000 C   0  0  0  0  0  0  0  0  0  0  0  0
    4.8301    6.5026    0.0000 C   0  0  0  0  0  0  0  0  0  0  0  0
    3.3302    5.6366    0.0000 C   0  0  0  0  0  0  0  0  0  0  0  0
    3.8301    6.5026    0.0000 C   0  0  0  0  0  0  0  0  0  0  0  0
    4.5981   -2.7155    0.0000 H   0  0  0  0  0  0  0  0  0  0  0  0
    4.3860   -0.5129    0.0000 H   0  0  0  0  0  0  0  0  0  0  0  0
    3.9875   -1.2032    0.0000 H   0  0  0  0  0  0  0  0  0  0  0  0
    2.2554   -1.9879    0.0000 H   0  0  0  0  0  0  0  0  0  0  0  0
    2.6540   -2.6781    0.0000 H   0  0  0  0  0  0  0  0  0  0  0  0
    5.6762   -1.1781    0.0000 H   0  0  0  0  0  0  0  0  0  0  0  0
    6.0747   -0.4879    0.0000 H   0  0  0  0  0  0  0  0  0  0  0  0
    2.8660   -0.4755    0.0000 H   0  0  0  0  0  0  0  0  0  0  0  0
    5.0656   -3.0705    0.0000 H   0  0  0  0  0  0  0  0  0  0  0  0
    5.8626   -3.0705    0.0000 H   0  0  0  0  0  0  0  0  0  0  0  0
    5.2520    0.9871    0.0000 H   0  0  0  0  0  0  0  0  0  0  0  0
    4.8535    0.2968    0.0000 H   0  0  0  0  0  0  0  0  0  0  0  0
    6.5422    0.3219    0.0000 H   0  0  0  0  0  0  0  0  0  0  0  0
    6.9407    1.0121    0.0000 H   0  0  0  0  0  0  0  0  0  0  0  0
    2.3100   -0.0586    0.0000 H   0  0  0  0  0  0  0  0  0  0  0  0
    1.4631   -0.2855    0.0000 H   0  0  0  0  0  0  0  0  0  0  0  0
    1.6900   -1.1324    0.0000 H   0  0  0  0  0  0  0  0  0  0  0  0
    4.0420   -1.1324    0.0000 H   0  0  0  0  0  0  0  0  0  0  0  0
    4.2690   -0.2855    0.0000 H   0  0  0  0  0  0  0  0  0  0  0  0
    3.4220   -0.0586    0.0000 H   0  0  0  0  0  0  0  0  0  0  0  0
    6.6592    3.0945    0.0000 H   0  0  0  0  0  0  0  0  0  0  0  0
    8.0622    3.2845    0.0000 H   0  0  0  0  0  0  0  0  0  0  0  0
    5.7101    1.9045    0.0000 H   0  0  0  0  0  0  0  0  0  0  0  0
    6.8671   -2.4055    0.0000 H   0  0  0  0  0  0  0  0  0  0  0  0
    2.3291   -4.7855    0.0000 H   0  0  0  0  0  0  0  0  0  0  0  0
    5.1350   -4.7855    0.0000 H   0  0  0  0  0  0  0  0  0  0  0  0
    6.3301    4.5245    0.0000 H   0  0  0  0  0  0  0  0  0  0  0  0
    2.3291   -6.4055    0.0000 H   0  0  0  0  0  0  0  0  0  0  0  0
    5.1350   -6.4055    0.0000 H   0  0  0  0  0  0  0  0  0  0  0  0
    6.6592    5.0945    0.0000 H   0  0  0  0  0  0  0  0  0  0  0  0
    9.7942    4.5245    0.0000 H   0  0  0  0  0  0  0  0  0  0  0  0
    9.4651    5.0945    0.0000 H   0  0  0  0  0  0  0  0  0  0  0  0
    8.3913    2.0945    0.0000 H   0  0  0  0  0  0  0  0  0  0  0  0
    6.6592    6.7145    0.0000 H   0  0  0  0  0  0  0  0  0  0  0  0
   11.1972    3.7145    0.0000 H   0  0  0  0  0  0  0  0  0  0  0  0
    9.4651    6.7145    0.0000 H   0  0  0  0  0  0  0  0  0  0  0  0
    9.7942    1.2845    0.0000 H   0  0  0  0  0  0  0  0  0  0  0  0
    8.0622    7.5245    0.0000 H   0  0  0  0  0  0  0  0  0  0  0  0
   11.1972    2.0945    0.0000 H   0  0  0  0  0  0  0  0  0  0  0  0
    3.1951   -7.9055    0.0000 H   0  0  0  0  0  0  0  0  0  0  0  0
    4.2690   -7.9055    0.0000 H   0  0  0  0  0  0  0  0  0  0  0  0
    5.9501    5.6365    0.0000 H   0  0  0  0  0  0  0  0  0  0  0  0
    3.5202    4.2336    0.0000 H   0  0  0  0  0  0  0  0  0  0  0  0
    2.7102    5.6366    0.0000 H   0  0  0  0  0  0  0  0  0  0  0  0
    3.5201    7.0395    0.0000 H   0  0  0  0  0  0  0  0  0  0  0  0
    5.0201    7.9055    0.0000 H   0  0  0  0  0  0  0  0  0  0  0  0
  1  3  2  0  0  0  0
  1  4  2  0  0  0  0
  1  8  1  0  0  0  0
  1 20  1  0  0  0  0
  2 17  1  0  0  0  0
  2 73  1  0  0  0  0
  5 25  2  0  0  0  0
  6 37  2  0  0  0  0
  7 47  1  0  0  0  0
  7 95  1  0  0  0  0
 12  8  1  1  0  0  0
  8 14  1  0  0  0  0
  9 19  1  0  0  0  0
  9 25  1  0  0  0  0
  9 72  1  0  0  0  0
 23 10  1  1  0  0  0
 10 37  1  0  0  0  0
 10 76  1  0  0  0  0
 11 32  1  0  0  0  0
 11 89  1  0  0  0  0
 11 90  1  0  0  0  0
 12 13  1  0  0  0  0
 12 17  1  0  0  0  0
 12 50  1  0  0  0  0
 13 15  1  0  0  0  0
 13 51  1  0  0  0  0
 13 52  1  0  0  0  0
 14 16  1  0  0  0  0
 14 53  1  0  0  0  0
 14 54  1  0  0  0  0
 15 18  1  0  0  0  0
 15 55  1  0  0  0  0
 15 56  1  0  0  0  0
 16 21  1  0  0  0  0
 16 22  1  0  0  0  0
 16 57  1  0  0  0  0
 17 58  1  0  0  0  0
 17 59  1  0  0  0  0
 18 19  1  0  0  0  0
 18 60  1  0  0  0  0
 18 61  1  0  0  0  0
 19 62  1  0  0  0  0
 19 63  1  0  0  0  0
 20 26  2  0  0  0  0
 20 27  1  0  0  0  0
 21 64  1  0  0  0  0
 21 65  1  0  0  0  0
 21 66  1  0  0  0  0
 22 67  1  0  0  0  0
 22 68  1  0  0  0  0
 22 69  1  0  0  0  0
 23 24  1  0  0  0  0
 23 25  1  0  0  0  0
 23 70  1  0  0  0  0
 24 28  1  0  0  0  0
 24 29  1  0  0  0  0
 24 71  1  0  0  0  0
 26 30  1  0  0  0  0
 26 74  1  0  0  0  0
 27 31  2  0  0  0  0
 27 75  1  0  0  0  0
 28 33  2  0  0  0  0
 28 35  1  0  0  0  0
 29 34  2  0  0  0  0
 29 36  1  0  0  0  0
 30 32  2  0  0  0  0
 30 77  1  0  0  0  0
 31 32  1  0  0  0  0
 31 78  1  0  0  0  0
 33 38  1  0  0  0  0
 33 79  1  0  0  0  0
 34 39  1  0  0  0  0
 34 80  1  0  0  0  0
 35 40  2  0  0  0  0
 35 81  1  0  0  0  0
 36 41  2  0  0  0  0
 36 82  1  0  0  0  0
 37 42  1  0  0  0  0
 38 43  2  0  0  0  0
 38 83  1  0  0  0  0
 39 44  2  0  0  0  0
 39 84  1  0  0  0  0
 40 43  1  0  0  0  0
 40 85  1  0  0  0  0
 41 44  1  0  0  0  0
 41 86  1  0  0  0  0
 42 45  2  0  0  0  0
 42 46  1  0  0  0  0
 43 87  1  0  0  0  0
 44 88  1  0  0  0  0
 45 47  1  0  0  0  0
 45 91  1  0  0  0  0
 46 48  2  0  0  0  0
 46 92  1  0  0  0  0
 47 49  2  0  0  0  0
 48 49  1  0  0  0  0
 48 93  1  0  0  0  0
 49 94  1  0  0  0  0
M  END
> <PUBCHEM_COMPOUND_CID>
514025
> <PUBCHEM_COMPOUND_CANONICALIZED>
1
> <PUBCHEM_CACTVS_COMPLEXITY>
1080
> <PUBCHEM_CACTVS_HBOND_ACCEPTOR>
8
> <PUBCHEM_CACTVS_HBOND_DONOR>
5
> <PUBCHEM_CACTVS_ROTATABLE_BOND>
17
> <PUBCHEM_CACTVS_SUBSKEYS>
AAADcfB/uABAAAAAAAAAAAAAAAAAAAAAAAAwYMGAAAAAAAABVAAAHgQQSAAADSzh2AYyx4LAAgKIAiVSUHDCABAkIgAIiJmObMgKdjKClbOUcQhk1hGY2Ye6yNCOgAQBAAAAAAAACAIAAAAAAAAAAAAAAA==
> <PUBCHEM_IUPAC_OPENEYE_NAME>
N-[(1S)-1-[[(5S)-5-[(4-aminophenyl)sulfonyl-isobutyl-amino]-6-hydroxy-hexyl]carbamoyl]-2,2-diphenyl-ethyl]-3-hydroxy-benzamide
> <PUBCHEM_IUPAC_CAS_NAME>
N-[(2S)-1-[[(5S)-5-[(4-aminophenyl)sulfonyl-(2-methylpropyl)amino]-6-hydroxyhexyl]amino]-1-oxo-3,3-diphenylpropan-2-yl]-3-hydroxybenzamide
> <PUBCHEM_IUPAC_NAME_MARKUP>
<I>N</I>-[(2<I>S</I>)-1-[[(5<I>S</I>)-5-[(4-aminophenyl)sulfonyl-(2-methylpropyl)amino]-6-hydroxyhexyl]amino]-1-oxo-3,3-diphenylpropan-2-yl]-3-hydroxybenzamide
> <PUBCHEM_IUPAC_NAME>
N-[(2S)-1-[[(5S)-5-[(4-aminophenyl)sulfonyl-(2-methylpropyl)amino]-6-hydroxyhexyl]amino]-1-oxo-3,3-diphenylpropan-2-yl]-3-hydroxybenzamide
> <PUBCHEM_IUPAC_SYSTEMATIC_NAME>
N-[(2S)-1-[[(5S)-5-[(4-aminophenyl)sulfonyl-(2-methylpropyl)amino]-6-oxidanyl-hexyl]amino]-1-oxidanylidene-3,3-diphenyl-propan-2-yl]-3-oxidanyl-benzamide
> <PUBCHEM_IUPAC_TRADITIONAL_NAME>
N-[(1S)-1-benzhydryl-2-[[(5S)-6-hydroxy-5-[isobutyl(sulfanilyl)amino]hexyl]amino]-2-keto-ethyl]-3-hydroxy-benzamide
> <PUBCHEM_IUPAC_INCHI>
InChI=1S/C38H46N4O6S/c1-27(2)25-42(49(47,48)34-21-19-31(39)20-22-34)32(26-43)17-9-10-23-40-38(46)36(41-37(45)30-16-11-18-33(44)24-30)35(28-12-5-3-6-13-28)29-14-7-4-8-15-29/h3-8,11-16,18-22,24,27,32,35-36,43-44H,9-10,17,23,25-26,39H2,1-2H3,(H,40,46)(H,41,45)/t32-,36-/m0/s1
> <PUBCHEM_IUPAC_INCHIKEY>
KQVVXUOZIWLORH-IKYOIFQTSA-N
> <PUBCHEM_XLOGP3_AA>
5.6
> <PUBCHEM_EXACT_MASS>
686.31380637
> <PUBCHEM_MOLECULAR_FORMULA>
C38H46N4O6S
> <PUBCHEM_MOLECULAR_WEIGHT>
686.9
> <PUBCHEM_OPENEYE_CAN_SMILES>
CC(C)CN(C(CCCCNC(=O)C(C(C1=CC=CC=C1)C2=CC=CC=C2)NC(=O)C3=CC(=CC=C3)O)CO)S(=O)(=O)C4=CC=C(C=C4)N
> <PUBCHEM_OPENEYE_ISO_SMILES>
CC(C)CN([C@@H](CCCCNC(=O)[C@H](C(C1=CC=CC=C1)C2=CC=CC=C2)NC(=O)C3=CC(=CC=C3)O)CO)S(=O)(=O)C4=CC=C(C=C4)N
> <PUBCHEM_CACTVS_TPSA>
170
> <PUBCHEM_MONOISOTOPIC_WEIGHT>
686.31380637
> <PUBCHEM_TOTAL_CHARGE>
0
> <PUBCHEM_HEAVY_ATOM_COUNT>
49
> <PUBCHEM_ATOM_DEF_STEREO_COUNT>
2
> <PUBCHEM_ATOM_UDEF_STEREO_COUNT>
0
> <PUBCHEM_BOND_DEF_STEREO_COUNT>
0
> <PUBCHEM_BOND_UDEF_STEREO_COUNT>
0
> <PUBCHEM_ISOTOPIC_ATOM_COUNT>
0
> <PUBCHEM_COMPONENT_COUNT>
1
> <PUBCHEM_CACTVS_TAUTO_COUNT>
-1
> <PUBCHEM_COORDINATE_TYPE>
1
5
255
> <PUBCHEM_BONDANNOTATIONS>
23  10  5
20  26  8
20  27  8
26  30  8
27  31  8
28  33  8
28  35  8
29  34  8
29  36  8
30  32  8
31  32  8
33  38  8
34  39  8
35  40  8
36  41  8
38  43  8
39  44  8
40  43  8
41  44  8
42  45  8
42  46  8
45  47  8
46  48  8
47  49  8
48  49  8
12  8  5
$$$$
