514004
  -OEChem-10302200282D
 84 86  0     1  0  0  0  0  0999 V2000
    5.4641   -3.0950    0.0000 S   0  0  0  0  0  0  0  0  0  0  0  0
    2.0000   -5.0950    0.0000 F   0  0  0  0  0  0  0  0  0  0  0  0
    5.4641   -0.0950    0.0000 O   0  0  0  0  0  0  0  0  0  0  0  0
    5.9641   -3.9610    0.0000 O   0  0  0  0  0  0  0  0  0  0  0  0
    4.9641   -2.2290    0.0000 O   0  0  0  0  0  0  0  0  0  0  0  0
    8.0622    3.4050    0.0000 O   0  0  0  0  0  0  0  0  0  0  0  0
    8.9282    5.9050    0.0000 O   0  0  0  0  0  0  0  0  0  0  0  0
    8.0622    4.4050    0.0000 O   0  0  0  0  0  0  0  0  0  0  0  0
    6.3301   -2.5950    0.0000 N   0  0  3  0  0  0  0  0  0  0  0  0
    8.9282    1.9050    0.0000 N   0  0  0  0  0  0  0  0  0  0  0  0
    9.7942    4.4050    0.0000 N   0  0  0  0  0  0  0  0  0  0  0  0
    3.7320   -6.0950    0.0000 N   0  0  0  0  0  0  0  0  0  0  0  0
    6.3301   -1.5950    0.0000 C   0  0  1  0  0  0  0  0  0  0  0  0
    7.1962   -1.0950    0.0000 C   0  0  0  0  0  0  0  0  0  0  0  0
    7.1962   -3.0950    0.0000 C   0  0  0  0  0  0  0  0  0  0  0  0
    7.1962   -0.0950    0.0000 C   0  0  0  0  0  0  0  0  0  0  0  0
    8.0622   -2.5950    0.0000 C   0  0  0  0  0  0  0  0  0  0  0  0
    5.4641   -1.0950    0.0000 C   0  0  0  0  0  0  0  0  0  0  0  0
    8.0622    0.4050    0.0000 C   0  0  0  0  0  0  0  0  0  0  0  0
    4.5981   -3.5950    0.0000 C   0  0  0  0  0  0  0  0  0  0  0  0
    8.9282   -3.0950    0.0000 C   0  0  0  0  0  0  0  0  0  0  0  0
    8.0622   -1.5950    0.0000 C   0  0  0  0  0  0  0  0  0  0  0  0
    8.0622    1.4050    0.0000 C   0  0  0  0  0  0  0  0  0  0  0  0
    4.5981   -4.5950    0.0000 C   0  0  0  0  0  0  0  0  0  0  0  0
    3.7320   -3.0950    0.0000 C   0  0  0  0  0  0  0  0  0  0  0  0
    9.7942    3.4050    0.0000 C   0  0  2  0  0  0  0  0  0  0  0  0
    8.9282    2.9050    0.0000 C   0  0  0  0  0  0  0  0  0  0  0  0
    3.7320   -5.0950    0.0000 C   0  0  0  0  0  0  0  0  0  0  0  0
   10.6603    2.9050    0.0000 C   0  0  0  0  0  0  0  0  0  0  0  0
    2.8660   -3.5950    0.0000 C   0  0  0  0  0  0  0  0  0  0  0  0
    2.8660   -4.5950    0.0000 C   0  0  0  0  0  0  0  0  0  0  0  0
   11.5263    3.4050    0.0000 C   0  0  0  0  0  0  0  0  0  0  0  0
   12.3923    2.9050    0.0000 C   0  0  0  0  0  0  0  0  0  0  0  0
   11.5263    4.4050    0.0000 C   0  0  0  0  0  0  0  0  0  0  0  0
   13.2583    3.4050    0.0000 C   0  0  0  0  0  0  0  0  0  0  0  0
   13.2583    4.4050    0.0000 C   0  0  0  0  0  0  0  0  0  0  0  0
   12.3923    4.9050    0.0000 C   0  0  0  0  0  0  0  0  0  0  0  0
    8.9282    4.9050    0.0000 C   0  0  0  0  0  0  0  0  0  0  0  0
   14.1523    2.8703    0.0000 C   0  0  0  0  0  0  0  0  0  0  0  0
   14.1523    4.9397    0.0000 C   0  0  0  0  0  0  0  0  0  0  0  0
   15.0583    3.3842    0.0000 C   0  0  0  0  0  0  0  0  0  0  0  0
   15.0583    4.4258    0.0000 C   0  0  0  0  0  0  0  0  0  0  0  0
    8.0622    6.4050    0.0000 C   0  0  0  0  0  0  0  0  0  0  0  0
    6.8671   -1.9050    0.0000 H   0  0  0  0  0  0  0  0  0  0  0  0
    7.4082   -1.6776    0.0000 H   0  0  0  0  0  0  0  0  0  0  0  0
    7.8067   -0.9873    0.0000 H   0  0  0  0  0  0  0  0  0  0  0  0
    6.7976   -3.5700    0.0000 H   0  0  0  0  0  0  0  0  0  0  0  0
    7.5947   -3.5700    0.0000 H   0  0  0  0  0  0  0  0  0  0  0  0
    6.9841    0.4876    0.0000 H   0  0  0  0  0  0  0  0  0  0  0  0
    6.5856   -0.2027    0.0000 H   0  0  0  0  0  0  0  0  0  0  0  0
    8.0622   -3.2150    0.0000 H   0  0  0  0  0  0  0  0  0  0  0  0
    4.8535   -0.9873    0.0000 H   0  0  0  0  0  0  0  0  0  0  0  0
    5.2520   -1.6776    0.0000 H   0  0  0  0  0  0  0  0  0  0  0  0
    8.2742   -0.1776    0.0000 H   0  0  0  0  0  0  0  0  0  0  0  0
    8.6728    0.5127    0.0000 H   0  0  0  0  0  0  0  0  0  0  0  0
    8.6182   -3.6319    0.0000 H   0  0  0  0  0  0  0  0  0  0  0  0
    9.4651   -3.4050    0.0000 H   0  0  0  0  0  0  0  0  0  0  0  0
    9.2382   -2.5581    0.0000 H   0  0  0  0  0  0  0  0  0  0  0  0
    8.6822   -1.5950    0.0000 H   0  0  0  0  0  0  0  0  0  0  0  0
    8.0622   -0.9750    0.0000 H   0  0  0  0  0  0  0  0  0  0  0  0
    7.4422   -1.5950    0.0000 H   0  0  0  0  0  0  0  0  0  0  0  0
    7.8501    1.9876    0.0000 H   0  0  0  0  0  0  0  0  0  0  0  0
    7.4516    1.2973    0.0000 H   0  0  0  0  0  0  0  0  0  0  0  0
    4.9272    0.2150    0.0000 H   0  0  0  0  0  0  0  0  0  0  0  0
    9.4651    1.5950    0.0000 H   0  0  0  0  0  0  0  0  0  0  0  0
    5.1350   -4.9050    0.0000 H   0  0  0  0  0  0  0  0  0  0  0  0
    3.7320   -2.4750    0.0000 H   0  0  0  0  0  0  0  0  0  0  0  0
    9.2573    3.7150    0.0000 H   0  0  0  0  0  0  0  0  0  0  0  0
   10.2617    2.4300    0.0000 H   0  0  0  0  0  0  0  0  0  0  0  0
   11.0588    2.4300    0.0000 H   0  0  0  0  0  0  0  0  0  0  0  0
    2.3291   -3.2850    0.0000 H   0  0  0  0  0  0  0  0  0  0  0  0
   10.3312    4.7150    0.0000 H   0  0  0  0  0  0  0  0  0  0  0  0
   12.3923    2.2850    0.0000 H   0  0  0  0  0  0  0  0  0  0  0  0
    3.1951   -6.4050    0.0000 H   0  0  0  0  0  0  0  0  0  0  0  0
    4.2690   -6.4050    0.0000 H   0  0  0  0  0  0  0  0  0  0  0  0
   10.9893    4.7150    0.0000 H   0  0  0  0  0  0  0  0  0  0  0  0
   12.3923    5.5250    0.0000 H   0  0  0  0  0  0  0  0  0  0  0  0
   14.1451    2.2504    0.0000 H   0  0  0  0  0  0  0  0  0  0  0  0
   14.1451    5.5596    0.0000 H   0  0  0  0  0  0  0  0  0  0  0  0
   15.5941    3.0721    0.0000 H   0  0  0  0  0  0  0  0  0  0  0  0
   15.5941    4.7379    0.0000 H   0  0  0  0  0  0  0  0  0  0  0  0
    8.3722    6.9419    0.0000 H   0  0  0  0  0  0  0  0  0  0  0  0
    7.5252    6.7150    0.0000 H   0  0  0  0  0  0  0  0  0  0  0  0
    7.7522    5.8681    0.0000 H   0  0  0  0  0  0  0  0  0  0  0  0
  1  4  2  0  0  0  0
  1  5  2  0  0  0  0
  1  9  1  0  0  0  0
  1 20  1  0  0  0  0
  2 31  1  0  0  0  0
  3 18  1  0  0  0  0
  3 64  1  0  0  0  0
  6 27  2  0  0  0  0
  7 38  1  0  0  0  0
  7 43  1  0  0  0  0
  8 38  2  0  0  0  0
 13  9  1  6  0  0  0
  9 15  1  0  0  0  0
 10 23  1  0  0  0  0
 10 27  1  0  0  0  0
 10 65  1  0  0  0  0
 26 11  1  1  0  0  0
 11 38  1  0  0  0  0
 11 72  1  0  0  0  0
 12 28  1  0  0  0  0
 12 74  1  0  0  0  0
 12 75  1  0  0  0  0
 13 14  1  0  0  0  0
 13 18  1  0  0  0  0
 13 44  1  0  0  0  0
 14 16  1  0  0  0  0
 14 45  1  0  0  0  0
 14 46  1  0  0  0  0
 15 17  1  0  0  0  0
 15 47  1  0  0  0  0
 15 48  1  0  0  0  0
 16 19  1  0  0  0  0
 16 49  1  0  0  0  0
 16 50  1  0  0  0  0
 17 21  1  0  0  0  0
 17 22  1  0  0  0  0
 17 51  1  0  0  0  0
 18 52  1  0  0  0  0
 18 53  1  0  0  0  0
 19 23  1  0  0  0  0
 19 54  1  0  0  0  0
 19 55  1  0  0  0  0
 20 24  2  0  0  0  0
 20 25  1  0  0  0  0
 21 56  1  0  0  0  0
 21 57  1  0  0  0  0
 21 58  1  0  0  0  0
 22 59  1  0  0  0  0
 22 60  1  0  0  0  0
 22 61  1  0  0  0  0
 23 62  1  0  0  0  0
 23 63  1  0  0  0  0
 24 28  1  0  0  0  0
 24 66  1  0  0  0  0
 25 30  2  0  0  0  0
 25 67  1  0  0  0  0
 26 27  1  0  0  0  0
 26 29  1  0  0  0  0
 26 68  1  0  0  0  0
 28 31  2  0  0  0  0
 29 32  1  0  0  0  0
 29 69  1  0  0  0  0
 29 70  1  0  0  0  0
 30 31  1  0  0  0  0
 30 71  1  0  0  0  0
 32 33  2  0  0  0  0
 32 34  1  0  0  0  0
 33 35  1  0  0  0  0
 33 73  1  0  0  0  0
 34 37  2  0  0  0  0
 34 76  1  0  0  0  0
 35 36  1  0  0  0  0
 35 39  2  0  0  0  0
 36 37  1  0  0  0  0
 36 40  2  0  0  0  0
 37 77  1  0  0  0  0
 39 41  1  0  0  0  0
 39 78  1  0  0  0  0
 40 42  1  0  0  0  0
 40 79  1  0  0  0  0
 41 42  2  0  0  0  0
 41 80  1  0  0  0  0
 42 81  1  0  0  0  0
 43 82  1  0  0  0  0
 43 83  1  0  0  0  0
 43 84  1  0  0  0  0
M  END
> <PUBCHEM_COMPOUND_CID>
514004
> <PUBCHEM_COMPOUND_CANONICALIZED>
1
> <PUBCHEM_CACTVS_COMPLEXITY>
980
> <PUBCHEM_CACTVS_HBOND_ACCEPTOR>
9
> <PUBCHEM_CACTVS_HBOND_DONOR>
4
> <PUBCHEM_CACTVS_ROTATABLE_BOND>
16
> <PUBCHEM_CACTVS_SUBSKEYS>
AAADcfB7uQBAAAAAAAAAAAAAAAAAAAAAAAAwYMAAAAAAAADBVAAAHwQQSAAADSjh2A4yycLABgKIAiVSWHDCABAgAgAIiJmIZIkKcDKAkbGUYARklgCYyAeYyMCOwAACACAQAACAAAQAQCAAAAAAAAAAAA==
> <PUBCHEM_IUPAC_OPENEYE_NAME>
methyl N-[(1S)-2-[[(5S)-5-[(3-amino-4-fluoro-phenyl)sulfonyl-isobutyl-amino]-6-hydroxy-hexyl]amino]-1-(2-naphthylmethyl)-2-oxo-ethyl]carbamate
> <PUBCHEM_IUPAC_CAS_NAME>
N-[(2S)-1-[[(5S)-5-[(3-amino-4-fluorophenyl)sulfonyl-(2-methylpropyl)amino]-6-hydroxyhexyl]amino]-3-(2-naphthalenyl)-1-oxopropan-2-yl]carbamic acid methyl ester
> <PUBCHEM_IUPAC_NAME_MARKUP>
methyl <I>N</I>-[(2<I>S</I>)-1-[[(5<I>S</I>)-5-[(3-amino-4-fluorophenyl)sulfonyl-(2-methylpropyl)amino]-6-hydroxyhexyl]amino]-3-naphthalen-2-yl-1-oxopropan-2-yl]carbamate
> <PUBCHEM_IUPAC_NAME>
methyl N-[(2S)-1-[[(5S)-5-[(3-amino-4-fluorophenyl)sulfonyl-(2-methylpropyl)amino]-6-hydroxyhexyl]amino]-3-naphthalen-2-yl-1-oxopropan-2-yl]carbamate
> <PUBCHEM_IUPAC_SYSTEMATIC_NAME>
methyl N-[(2S)-1-[[(5S)-5-[(3-azanyl-4-fluoranyl-phenyl)sulfonyl-(2-methylpropyl)amino]-6-oxidanyl-hexyl]amino]-3-naphthalen-2-yl-1-oxidanylidene-propan-2-yl]carbamate
> <PUBCHEM_IUPAC_TRADITIONAL_NAME>
N-[(1S)-2-[[(5S)-5-[(3-amino-4-fluoro-phenyl)sulfonyl-isobutyl-amino]-6-hydroxy-hexyl]amino]-2-keto-1-(2-naphthylmethyl)ethyl]carbamic acid methyl ester
> <PUBCHEM_IUPAC_INCHI>
InChI=1S/C31H41FN4O6S/c1-21(2)19-36(43(40,41)26-13-14-27(32)28(33)18-26)25(20-37)10-6-7-15-34-30(38)29(35-31(39)42-3)17-22-11-12-23-8-4-5-9-24(23)16-22/h4-5,8-9,11-14,16,18,21,25,29,37H,6-7,10,15,17,19-20,33H2,1-3H3,(H,34,38)(H,35,39)/t25-,29-/m0/s1
> <PUBCHEM_IUPAC_INCHIKEY>
VCFFPTOLNIXCEH-SVEHJYQDSA-N
> <PUBCHEM_XLOGP3_AA>
4.6
> <PUBCHEM_EXACT_MASS>
616.27308438
> <PUBCHEM_MOLECULAR_FORMULA>
C31H41FN4O6S
> <PUBCHEM_MOLECULAR_WEIGHT>
616.7
> <PUBCHEM_OPENEYE_CAN_SMILES>
CC(C)CN(C(CCCCNC(=O)C(CC1=CC2=CC=CC=C2C=C1)NC(=O)OC)CO)S(=O)(=O)C3=CC(=C(C=C3)F)N
> <PUBCHEM_OPENEYE_ISO_SMILES>
CC(C)CN([C@@H](CCCCNC(=O)[C@H](CC1=CC2=CC=CC=C2C=C1)NC(=O)OC)CO)S(=O)(=O)C3=CC(=C(C=C3)F)N
> <PUBCHEM_CACTVS_TPSA>
159
> <PUBCHEM_MONOISOTOPIC_WEIGHT>
616.27308438
> <PUBCHEM_TOTAL_CHARGE>
0
> <PUBCHEM_HEAVY_ATOM_COUNT>
43
> <PUBCHEM_ATOM_DEF_STEREO_COUNT>
2
> <PUBCHEM_ATOM_UDEF_STEREO_COUNT>
0
> <PUBCHEM_BOND_DEF_STEREO_COUNT>
0
> <PUBCHEM_BOND_UDEF_STEREO_COUNT>
0
> <PUBCHEM_ISOTOPIC_ATOM_COUNT>
0
> <PUBCHEM_COMPONENT_COUNT>
1
> <PUBCHEM_CACTVS_TAUTO_COUNT>
-1
> <PUBCHEM_COORDINATE_TYPE>
1
5
255
> <PUBCHEM_BONDANNOTATIONS>
26  11  5
20  24  8
20  25  8
24  28  8
25  30  8
28  31  8
30  31  8
32  33  8
32  34  8
33  35  8
34  37  8
35  36  8
35  39  8
36  37  8
36  40  8
39  41  8
40  42  8
41  42  8
13  9  6
$$$$
