514013
  -OEChem-10302200282D
 93 95  0     1  0  0  0  0  0999 V2000
    3.7320    3.3450    0.0000 S   0  0  0  0  0  0  0  0  0  0  0  0
    5.4641    6.3450    0.0000 F   0  0  0  0  0  0  0  0  0  0  0  0
    6.3301    1.8450    0.0000 O   0  0  0  0  0  0  0  0  0  0  0  0
    2.7320    3.3450    0.0000 O   0  0  0  0  0  0  0  0  0  0  0  0
    4.7320    3.3450    0.0000 O   0  0  0  0  0  0  0  0  0  0  0  0
    8.0622   -2.1550    0.0000 O   0  0  0  0  0  0  0  0  0  0  0  0
    5.4641   -5.6550    0.0000 O   0  0  0  0  0  0  0  0  0  0  0  0
    7.1962   -5.6550    0.0000 O   0  0  0  0  0  0  0  0  0  0  0  0
    3.7320    2.3450    0.0000 N   0  0  3  0  0  0  0  0  0  0  0  0
    6.3301   -2.1550    0.0000 N   0  0  0  0  0  0  0  0  0  0  0  0
    6.3301   -4.1550    0.0000 N   0  0  0  0  0  0  0  0  0  0  0  0
    3.7320    7.3450    0.0000 N   0  0  0  0  0  0  0  0  0  0  0  0
    4.5981    1.8450    0.0000 C   0  0  1  0  0  0  0  0  0  0  0  0
    4.5981    0.8450    0.0000 C   0  0  0  0  0  0  0  0  0  0  0  0
    2.8660    1.8450    0.0000 C   0  0  0  0  0  0  0  0  0  0  0  0
    5.4641    0.3450    0.0000 C   0  0  0  0  0  0  0  0  0  0  0  0
    2.8660    0.8450    0.0000 C   0  0  0  0  0  0  0  0  0  0  0  0
    5.4641    2.3450    0.0000 C   0  0  0  0  0  0  0  0  0  0  0  0
    5.4641   -0.6550    0.0000 C   0  0  0  0  0  0  0  0  0  0  0  0
    3.7320    4.3450    0.0000 C   0  0  0  0  0  0  0  0  0  0  0  0
    2.0000    0.3450    0.0000 C   0  0  0  0  0  0  0  0  0  0  0  0
    3.7320    0.3450    0.0000 C   0  0  0  0  0  0  0  0  0  0  0  0
    6.3301   -1.1550    0.0000 C   0  0  0  0  0  0  0  0  0  0  0  0
    4.5981    4.8450    0.0000 C   0  0  0  0  0  0  0  0  0  0  0  0
    2.8660    4.8450    0.0000 C   0  0  0  0  0  0  0  0  0  0  0  0
    7.1962   -3.6550    0.0000 C   0  0  2  0  0  0  0  0  0  0  0  0
    7.1962   -2.6550    0.0000 C   0  0  0  0  0  0  0  0  0  0  0  0
    8.0622   -4.1550    0.0000 C   0  0  0  0  0  0  0  0  0  0  0  0
    4.5981    5.8450    0.0000 C   0  0  0  0  0  0  0  0  0  0  0  0
    2.8660    5.8450    0.0000 C   0  0  0  0  0  0  0  0  0  0  0  0
    3.7320    6.3450    0.0000 C   0  0  0  0  0  0  0  0  0  0  0  0
    8.9282   -3.6550    0.0000 C   0  0  0  0  0  0  0  0  0  0  0  0
    9.7942   -4.1550    0.0000 C   0  0  0  0  0  0  0  0  0  0  0  0
    8.9282   -2.6550    0.0000 C   0  0  0  0  0  0  0  0  0  0  0  0
    5.4641   -6.6550    0.0000 C   0  0  0  0  0  0  0  0  0  0  0  0
    6.3301   -5.1550    0.0000 C   0  0  0  0  0  0  0  0  0  0  0  0
   10.6603   -3.6550    0.0000 C   0  0  0  0  0  0  0  0  0  0  0  0
   10.6603   -2.6550    0.0000 C   0  0  0  0  0  0  0  0  0  0  0  0
    9.7942   -2.1550    0.0000 C   0  0  0  0  0  0  0  0  0  0  0  0
    5.4641   -7.6550    0.0000 C   0  0  0  0  0  0  0  0  0  0  0  0
    4.4641   -6.6550    0.0000 C   0  0  0  0  0  0  0  0  0  0  0  0
    6.4641   -6.6550    0.0000 C   0  0  0  0  0  0  0  0  0  0  0  0
   11.5542   -4.1897    0.0000 C   0  0  0  0  0  0  0  0  0  0  0  0
   11.5542   -2.1203    0.0000 C   0  0  0  0  0  0  0  0  0  0  0  0
   12.4603   -3.6758    0.0000 C   0  0  0  0  0  0  0  0  0  0  0  0
   12.4603   -2.6342    0.0000 C   0  0  0  0  0  0  0  0  0  0  0  0
    4.5981    2.4650    0.0000 H   0  0  0  0  0  0  0  0  0  0  0  0
    3.9875    0.9527    0.0000 H   0  0  0  0  0  0  0  0  0  0  0  0
    4.3860    0.2624    0.0000 H   0  0  0  0  0  0  0  0  0  0  0  0
    2.6540    2.4276    0.0000 H   0  0  0  0  0  0  0  0  0  0  0  0
    2.2554    1.7373    0.0000 H   0  0  0  0  0  0  0  0  0  0  0  0
    6.0747    0.2373    0.0000 H   0  0  0  0  0  0  0  0  0  0  0  0
    5.6762    0.9276    0.0000 H   0  0  0  0  0  0  0  0  0  0  0  0
    2.8660    0.2250    0.0000 H   0  0  0  0  0  0  0  0  0  0  0  0
    5.8626    2.8200    0.0000 H   0  0  0  0  0  0  0  0  0  0  0  0
    5.0656    2.8200    0.0000 H   0  0  0  0  0  0  0  0  0  0  0  0
    4.8535   -0.5473    0.0000 H   0  0  0  0  0  0  0  0  0  0  0  0
    5.2520   -1.2376    0.0000 H   0  0  0  0  0  0  0  0  0  0  0  0
    1.6900    0.8819    0.0000 H   0  0  0  0  0  0  0  0  0  0  0  0
    1.4631    0.0350    0.0000 H   0  0  0  0  0  0  0  0  0  0  0  0
    2.3100   -0.1919    0.0000 H   0  0  0  0  0  0  0  0  0  0  0  0
    3.4220   -0.1919    0.0000 H   0  0  0  0  0  0  0  0  0  0  0  0
    4.2690    0.0350    0.0000 H   0  0  0  0  0  0  0  0  0  0  0  0
    4.0420    0.8819    0.0000 H   0  0  0  0  0  0  0  0  0  0  0  0
    6.9407   -1.2627    0.0000 H   0  0  0  0  0  0  0  0  0  0  0  0
    6.5422   -0.5724    0.0000 H   0  0  0  0  0  0  0  0  0  0  0  0
    6.8671    2.1550    0.0000 H   0  0  0  0  0  0  0  0  0  0  0  0
    5.7932   -2.4650    0.0000 H   0  0  0  0  0  0  0  0  0  0  0  0
    5.1350    4.5350    0.0000 H   0  0  0  0  0  0  0  0  0  0  0  0
    2.3291    4.5350    0.0000 H   0  0  0  0  0  0  0  0  0  0  0  0
    6.6592   -3.3450    0.0000 H   0  0  0  0  0  0  0  0  0  0  0  0
    7.6636   -4.6300    0.0000 H   0  0  0  0  0  0  0  0  0  0  0  0
    8.4607   -4.6300    0.0000 H   0  0  0  0  0  0  0  0  0  0  0  0
    2.3291    6.1550    0.0000 H   0  0  0  0  0  0  0  0  0  0  0  0
    5.7932   -3.8450    0.0000 H   0  0  0  0  0  0  0  0  0  0  0  0
    9.7942   -4.7750    0.0000 H   0  0  0  0  0  0  0  0  0  0  0  0
    8.3913   -2.3450    0.0000 H   0  0  0  0  0  0  0  0  0  0  0  0
    3.1951    7.6550    0.0000 H   0  0  0  0  0  0  0  0  0  0  0  0
    4.2690    7.6550    0.0000 H   0  0  0  0  0  0  0  0  0  0  0  0
    9.7942   -1.5350    0.0000 H   0  0  0  0  0  0  0  0  0  0  0  0
    4.8441   -7.6550    0.0000 H   0  0  0  0  0  0  0  0  0  0  0  0
    5.4641   -8.2750    0.0000 H   0  0  0  0  0  0  0  0  0  0  0  0
    6.0841   -7.6550    0.0000 H   0  0  0  0  0  0  0  0  0  0  0  0
    4.4641   -6.0350    0.0000 H   0  0  0  0  0  0  0  0  0  0  0  0
    3.8441   -6.6550    0.0000 H   0  0  0  0  0  0  0  0  0  0  0  0
    4.4641   -7.2750    0.0000 H   0  0  0  0  0  0  0  0  0  0  0  0
    6.4641   -7.2750    0.0000 H   0  0  0  0  0  0  0  0  0  0  0  0
    7.0841   -6.6550    0.0000 H   0  0  0  0  0  0  0  0  0  0  0  0
    6.4641   -6.0350    0.0000 H   0  0  0  0  0  0  0  0  0  0  0  0
   11.5470   -4.8096    0.0000 H   0  0  0  0  0  0  0  0  0  0  0  0
   11.5470   -1.5004    0.0000 H   0  0  0  0  0  0  0  0  0  0  0  0
   12.9960   -3.9879    0.0000 H   0  0  0  0  0  0  0  0  0  0  0  0
   12.9960   -2.3221    0.0000 H   0  0  0  0  0  0  0  0  0  0  0  0
  1  4  2  0  0  0  0
  1  5  2  0  0  0  0
  1  9  1  0  0  0  0
  1 20  1  0  0  0  0
  2 29  1  0  0  0  0
  3 18  1  0  0  0  0
  3 67  1  0  0  0  0
  6 27  2  0  0  0  0
  7 35  1  0  0  0  0
  7 36  1  0  0  0  0
  8 36  2  0  0  0  0
 13  9  1  6  0  0  0
  9 15  1  0  0  0  0
 10 23  1  0  0  0  0
 10 27  1  0  0  0  0
 10 68  1  0  0  0  0
 26 11  1  6  0  0  0
 11 36  1  0  0  0  0
 11 75  1  0  0  0  0
 12 31  1  0  0  0  0
 12 78  1  0  0  0  0
 12 79  1  0  0  0  0
 13 14  1  0  0  0  0
 13 18  1  0  0  0  0
 13 47  1  0  0  0  0
 14 16  1  0  0  0  0
 14 48  1  0  0  0  0
 14 49  1  0  0  0  0
 15 17  1  0  0  0  0
 15 50  1  0  0  0  0
 15 51  1  0  0  0  0
 16 19  1  0  0  0  0
 16 52  1  0  0  0  0
 16 53  1  0  0  0  0
 17 21  1  0  0  0  0
 17 22  1  0  0  0  0
 17 54  1  0  0  0  0
 18 55  1  0  0  0  0
 18 56  1  0  0  0  0
 19 23  1  0  0  0  0
 19 57  1  0  0  0  0
 19 58  1  0  0  0  0
 20 24  2  0  0  0  0
 20 25  1  0  0  0  0
 21 59  1  0  0  0  0
 21 60  1  0  0  0  0
 21 61  1  0  0  0  0
 22 62  1  0  0  0  0
 22 63  1  0  0  0  0
 22 64  1  0  0  0  0
 23 65  1  0  0  0  0
 23 66  1  0  0  0  0
 24 29  1  0  0  0  0
 24 69  1  0  0  0  0
 25 30  2  0  0  0  0
 25 70  1  0  0  0  0
 26 27  1  0  0  0  0
 26 28  1  0  0  0  0
 26 71  1  0  0  0  0
 28 32  1  0  0  0  0
 28 72  1  0  0  0  0
 28 73  1  0  0  0  0
 29 31  2  0  0  0  0
 30 31  1  0  0  0  0
 30 74  1  0  0  0  0
 32 33  2  0  0  0  0
 32 34  1  0  0  0  0
 33 37  1  0  0  0  0
 33 76  1  0  0  0  0
 34 39  2  0  0  0  0
 34 77  1  0  0  0  0
 35 40  1  0  0  0  0
 35 41  1  0  0  0  0
 35 42  1  0  0  0  0
 37 38  1  0  0  0  0
 37 43  2  0  0  0  0
 38 39  1  0  0  0  0
 38 44  2  0  0  0  0
 39 80  1  0  0  0  0
 40 81  1  0  0  0  0
 40 82  1  0  0  0  0
 40 83  1  0  0  0  0
 41 84  1  0  0  0  0
 41 85  1  0  0  0  0
 41 86  1  0  0  0  0
 42 87  1  0  0  0  0
 42 88  1  0  0  0  0
 42 89  1  0  0  0  0
 43 45  1  0  0  0  0
 43 90  1  0  0  0  0
 44 46  1  0  0  0  0
 44 91  1  0  0  0  0
 45 46  2  0  0  0  0
 45 92  1  0  0  0  0
 46 93  1  0  0  0  0
M  END
> <PUBCHEM_COMPOUND_CID>
514013
> <PUBCHEM_COMPOUND_CANONICALIZED>
1
> <PUBCHEM_CACTVS_COMPLEXITY>
1060
> <PUBCHEM_CACTVS_HBOND_ACCEPTOR>
9
> <PUBCHEM_CACTVS_HBOND_DONOR>
4
> <PUBCHEM_CACTVS_ROTATABLE_BOND>
17
> <PUBCHEM_CACTVS_SUBSKEYS>
AAADcfB/uQBAAAAAAAAAAAAAAAAAAAAAAAAwYMAAAAAAAADBVAAAHwQQSAAADWzh2A4yycLABgKIAiVSWHDCABAgAgAIiJmIZIkKcDKAkbGcYABklgCYyAeYyMCOwAQCAAAQAACACAQAACAAAAAAAAAAAA==
> <PUBCHEM_IUPAC_OPENEYE_NAME>
tert-butyl N-[(1S)-2-[[(5S)-5-[(4-amino-3-fluoro-phenyl)sulfonyl-isobutyl-amino]-6-hydroxy-hexyl]amino]-1-(2-naphthylmethyl)-2-oxo-ethyl]carbamate
> <PUBCHEM_IUPAC_CAS_NAME>
N-[(2S)-1-[[(5S)-5-[(4-amino-3-fluorophenyl)sulfonyl-(2-methylpropyl)amino]-6-hydroxyhexyl]amino]-3-(2-naphthalenyl)-1-oxopropan-2-yl]carbamic acid tert-butyl ester
> <PUBCHEM_IUPAC_NAME_MARKUP>
<I>tert</I>-butyl <I>N</I>-[(2<I>S</I>)-1-[[(5<I>S</I>)-5-[(4-amino-3-fluorophenyl)sulfonyl-(2-methylpropyl)amino]-6-hydroxyhexyl]amino]-3-naphthalen-2-yl-1-oxopropan-2-yl]carbamate
> <PUBCHEM_IUPAC_NAME>
tert-butyl N-[(2S)-1-[[(5S)-5-[(4-amino-3-fluorophenyl)sulfonyl-(2-methylpropyl)amino]-6-hydroxyhexyl]amino]-3-naphthalen-2-yl-1-oxopropan-2-yl]carbamate
> <PUBCHEM_IUPAC_SYSTEMATIC_NAME>
tert-butyl N-[(2S)-1-[[(5S)-5-[(4-azanyl-3-fluoranyl-phenyl)sulfonyl-(2-methylpropyl)amino]-6-oxidanyl-hexyl]amino]-3-naphthalen-2-yl-1-oxidanylidene-propan-2-yl]carbamate
> <PUBCHEM_IUPAC_TRADITIONAL_NAME>
N-[(1S)-2-[[(5S)-5-[(4-amino-3-fluoro-phenyl)sulfonyl-isobutyl-amino]-6-hydroxy-hexyl]amino]-2-keto-1-(2-naphthylmethyl)ethyl]carbamic acid tert-butyl ester
> <PUBCHEM_IUPAC_INCHI>
InChI=1S/C34H47FN4O6S/c1-23(2)21-39(46(43,44)28-15-16-30(36)29(35)20-28)27(22-40)12-8-9-17-37-32(41)31(38-33(42)45-34(3,4)5)19-24-13-14-25-10-6-7-11-26(25)18-24/h6-7,10-11,13-16,18,20,23,27,31,40H,8-9,12,17,19,21-22,36H2,1-5H3,(H,37,41)(H,38,42)/t27-,31-/m0/s1
> <PUBCHEM_IUPAC_INCHIKEY>
DVSLZIYVXUIXFS-DHIFEGFHSA-N
> <PUBCHEM_XLOGP3_AA>
5.6
> <PUBCHEM_EXACT_MASS>
658.32003457
> <PUBCHEM_MOLECULAR_FORMULA>
C34H47FN4O6S
> <PUBCHEM_MOLECULAR_WEIGHT>
658.8
> <PUBCHEM_OPENEYE_CAN_SMILES>
CC(C)CN(C(CCCCNC(=O)C(CC1=CC2=CC=CC=C2C=C1)NC(=O)OC(C)(C)C)CO)S(=O)(=O)C3=CC(=C(C=C3)N)F
> <PUBCHEM_OPENEYE_ISO_SMILES>
CC(C)CN([C@@H](CCCCNC(=O)[C@H](CC1=CC2=CC=CC=C2C=C1)NC(=O)OC(C)(C)C)CO)S(=O)(=O)C3=CC(=C(C=C3)N)F
> <PUBCHEM_CACTVS_TPSA>
159
> <PUBCHEM_MONOISOTOPIC_WEIGHT>
658.32003457
> <PUBCHEM_TOTAL_CHARGE>
0
> <PUBCHEM_HEAVY_ATOM_COUNT>
46
> <PUBCHEM_ATOM_DEF_STEREO_COUNT>
2
> <PUBCHEM_ATOM_UDEF_STEREO_COUNT>
0
> <PUBCHEM_BOND_DEF_STEREO_COUNT>
0
> <PUBCHEM_BOND_UDEF_STEREO_COUNT>
0
> <PUBCHEM_ISOTOPIC_ATOM_COUNT>
0
> <PUBCHEM_COMPONENT_COUNT>
1
> <PUBCHEM_CACTVS_TAUTO_COUNT>
-1
> <PUBCHEM_COORDINATE_TYPE>
1
5
255
> <PUBCHEM_BONDANNOTATIONS>
26  11  6
20  24  8
20  25  8
24  29  8
25  30  8
29  31  8
30  31  8
32  33  8
32  34  8
33  37  8
34  39  8
37  38  8
37  43  8
38  39  8
38  44  8
43  45  8
44  46  8
45  46  8
13  9  6
$$$$
