514008
  -OEChem-10302200282D
 88 90  0     1  0  0  0  0  0999 V2000
    3.7320    3.0000    0.0000 S   0  0  0  0  0  0  0  0  0  0  0  0
    3.7320    7.0000    0.0000 F   0  0  0  0  0  0  0  0  0  0  0  0
    6.3301    1.5000    0.0000 O   0  0  0  0  0  0  0  0  0  0  0  0
    2.7320    3.0000    0.0000 O   0  0  0  0  0  0  0  0  0  0  0  0
    4.7320    3.0000    0.0000 O   0  0  0  0  0  0  0  0  0  0  0  0
    8.0622   -2.5000    0.0000 O   0  0  0  0  0  0  0  0  0  0  0  0
    7.1962   -6.0000    0.0000 O   0  0  0  0  0  0  0  0  0  0  0  0
    3.7320    2.0000    0.0000 N   0  0  3  0  0  0  0  0  0  0  0  0
    6.3301   -2.5000    0.0000 N   0  0  0  0  0  0  0  0  0  0  0  0
    6.3301   -4.5000    0.0000 N   0  0  0  0  0  0  0  0  0  0  0  0
    5.4641    6.0000    0.0000 N   0  0  0  0  0  0  0  0  0  0  0  0
    5.4641   -6.0000    0.0000 N   0  0  0  0  0  0  0  0  0  0  0  0
    4.5981    1.5000    0.0000 C   0  0  1  0  0  0  0  0  0  0  0  0
    4.5981    0.5000    0.0000 C   0  0  0  0  0  0  0  0  0  0  0  0
    2.8660    1.5000    0.0000 C   0  0  0  0  0  0  0  0  0  0  0  0
    5.4641   -0.0000    0.0000 C   0  0  0  0  0  0  0  0  0  0  0  0
    2.8660    0.5000    0.0000 C   0  0  0  0  0  0  0  0  0  0  0  0
    5.4641    2.0000    0.0000 C   0  0  0  0  0  0  0  0  0  0  0  0
    5.4641   -1.0000    0.0000 C   0  0  0  0  0  0  0  0  0  0  0  0
    3.7320    4.0000    0.0000 C   0  0  0  0  0  0  0  0  0  0  0  0
    2.0000    0.0000    0.0000 C   0  0  0  0  0  0  0  0  0  0  0  0
    3.7320    0.0000    0.0000 C   0  0  0  0  0  0  0  0  0  0  0  0
    6.3301   -1.5000    0.0000 C   0  0  0  0  0  0  0  0  0  0  0  0
    4.5981    4.5000    0.0000 C   0  0  0  0  0  0  0  0  0  0  0  0
    2.8660    4.5000    0.0000 C   0  0  0  0  0  0  0  0  0  0  0  0
    7.1962   -4.0000    0.0000 C   0  0  2  0  0  0  0  0  0  0  0  0
    7.1962   -3.0000    0.0000 C   0  0  0  0  0  0  0  0  0  0  0  0
    8.0622   -4.5000    0.0000 C   0  0  0  0  0  0  0  0  0  0  0  0
    4.5981    5.5000    0.0000 C   0  0  0  0  0  0  0  0  0  0  0  0
    2.8660    5.5000    0.0000 C   0  0  0  0  0  0  0  0  0  0  0  0
    3.7320    6.0000    0.0000 C   0  0  0  0  0  0  0  0  0  0  0  0
    8.9282   -4.0000    0.0000 C   0  0  0  0  0  0  0  0  0  0  0  0
    9.7942   -4.5000    0.0000 C   0  0  0  0  0  0  0  0  0  0  0  0
    8.9282   -3.0000    0.0000 C   0  0  0  0  0  0  0  0  0  0  0  0
   10.6603   -4.0000    0.0000 C   0  0  0  0  0  0  0  0  0  0  0  0
    6.3301   -5.5000    0.0000 C   0  0  0  0  0  0  0  0  0  0  0  0
   10.6603   -3.0000    0.0000 C   0  0  0  0  0  0  0  0  0  0  0  0
    9.7942   -2.5000    0.0000 C   0  0  0  0  0  0  0  0  0  0  0  0
   11.5542   -4.5347    0.0000 C   0  0  0  0  0  0  0  0  0  0  0  0
   11.5542   -2.4653    0.0000 C   0  0  0  0  0  0  0  0  0  0  0  0
   12.4603   -4.0208    0.0000 C   0  0  0  0  0  0  0  0  0  0  0  0
   12.4603   -2.9792    0.0000 C   0  0  0  0  0  0  0  0  0  0  0  0
    5.4641   -7.0000    0.0000 C   0  0  0  0  0  0  0  0  0  0  0  0
    4.5981   -5.5000    0.0000 C   0  0  0  0  0  0  0  0  0  0  0  0
    4.5981    2.1200    0.0000 H   0  0  0  0  0  0  0  0  0  0  0  0
    3.9875    0.6077    0.0000 H   0  0  0  0  0  0  0  0  0  0  0  0
    4.3860   -0.0826    0.0000 H   0  0  0  0  0  0  0  0  0  0  0  0
    2.6540    2.0826    0.0000 H   0  0  0  0  0  0  0  0  0  0  0  0
    2.2554    1.3923    0.0000 H   0  0  0  0  0  0  0  0  0  0  0  0
    6.0747   -0.1077    0.0000 H   0  0  0  0  0  0  0  0  0  0  0  0
    5.6762    0.5826    0.0000 H   0  0  0  0  0  0  0  0  0  0  0  0
    2.8660   -0.1200    0.0000 H   0  0  0  0  0  0  0  0  0  0  0  0
    5.8626    2.4750    0.0000 H   0  0  0  0  0  0  0  0  0  0  0  0
    5.0656    2.4750    0.0000 H   0  0  0  0  0  0  0  0  0  0  0  0
    4.8535   -0.8923    0.0000 H   0  0  0  0  0  0  0  0  0  0  0  0
    5.2520   -1.5826    0.0000 H   0  0  0  0  0  0  0  0  0  0  0  0
    1.6900    0.5369    0.0000 H   0  0  0  0  0  0  0  0  0  0  0  0
    1.4631   -0.3100    0.0000 H   0  0  0  0  0  0  0  0  0  0  0  0
    2.3100   -0.5369    0.0000 H   0  0  0  0  0  0  0  0  0  0  0  0
    3.4220   -0.5369    0.0000 H   0  0  0  0  0  0  0  0  0  0  0  0
    4.2690   -0.3100    0.0000 H   0  0  0  0  0  0  0  0  0  0  0  0
    4.0420    0.5369    0.0000 H   0  0  0  0  0  0  0  0  0  0  0  0
    6.9407   -1.6077    0.0000 H   0  0  0  0  0  0  0  0  0  0  0  0
    6.5422   -0.9174    0.0000 H   0  0  0  0  0  0  0  0  0  0  0  0
    6.8671    1.8100    0.0000 H   0  0  0  0  0  0  0  0  0  0  0  0
    5.7932   -2.8100    0.0000 H   0  0  0  0  0  0  0  0  0  0  0  0
    5.1350    4.1900    0.0000 H   0  0  0  0  0  0  0  0  0  0  0  0
    2.3291    4.1900    0.0000 H   0  0  0  0  0  0  0  0  0  0  0  0
    6.6592   -3.6900    0.0000 H   0  0  0  0  0  0  0  0  0  0  0  0
    7.6636   -4.9750    0.0000 H   0  0  0  0  0  0  0  0  0  0  0  0
    8.4607   -4.9750    0.0000 H   0  0  0  0  0  0  0  0  0  0  0  0
    2.3291    5.8100    0.0000 H   0  0  0  0  0  0  0  0  0  0  0  0
    5.7932   -4.1900    0.0000 H   0  0  0  0  0  0  0  0  0  0  0  0
    9.7942   -5.1200    0.0000 H   0  0  0  0  0  0  0  0  0  0  0  0
    8.3913   -2.6900    0.0000 H   0  0  0  0  0  0  0  0  0  0  0  0
    5.4641    6.6200    0.0000 H   0  0  0  0  0  0  0  0  0  0  0  0
    6.0010    5.6900    0.0000 H   0  0  0  0  0  0  0  0  0  0  0  0
    9.7942   -1.8800    0.0000 H   0  0  0  0  0  0  0  0  0  0  0  0
   11.5470   -5.1546    0.0000 H   0  0  0  0  0  0  0  0  0  0  0  0
   11.5470   -1.8454    0.0000 H   0  0  0  0  0  0  0  0  0  0  0  0
   12.9960   -4.3329    0.0000 H   0  0  0  0  0  0  0  0  0  0  0  0
   12.9960   -2.6671    0.0000 H   0  0  0  0  0  0  0  0  0  0  0  0
    4.8441   -7.0000    0.0000 H   0  0  0  0  0  0  0  0  0  0  0  0
    5.4641   -7.6200    0.0000 H   0  0  0  0  0  0  0  0  0  0  0  0
    6.0841   -7.0000    0.0000 H   0  0  0  0  0  0  0  0  0  0  0  0
    4.9081   -4.9631    0.0000 H   0  0  0  0  0  0  0  0  0  0  0  0
    4.0611   -5.1900    0.0000 H   0  0  0  0  0  0  0  0  0  0  0  0
    4.2881   -6.0369    0.0000 H   0  0  0  0  0  0  0  0  0  0  0  0
  1  4  2  0  0  0  0
  1  5  2  0  0  0  0
  1  8  1  0  0  0  0
  1 20  1  0  0  0  0
  2 31  1  0  0  0  0
  3 18  1  0  0  0  0
  3 65  1  0  0  0  0
  6 27  2  0  0  0  0
  7 36  2  0  0  0  0
 13  8  1  6  0  0  0
  8 15  1  0  0  0  0
  9 23  1  0  0  0  0
  9 27  1  0  0  0  0
  9 66  1  0  0  0  0
 26 10  1  6  0  0  0
 10 36  1  0  0  0  0
 10 73  1  0  0  0  0
 11 29  1  0  0  0  0
 11 76  1  0  0  0  0
 11 77  1  0  0  0  0
 12 36  1  0  0  0  0
 12 43  1  0  0  0  0
 12 44  1  0  0  0  0
 13 14  1  0  0  0  0
 13 18  1  0  0  0  0
 13 45  1  0  0  0  0
 14 16  1  0  0  0  0
 14 46  1  0  0  0  0
 14 47  1  0  0  0  0
 15 17  1  0  0  0  0
 15 48  1  0  0  0  0
 15 49  1  0  0  0  0
 16 19  1  0  0  0  0
 16 50  1  0  0  0  0
 16 51  1  0  0  0  0
 17 21  1  0  0  0  0
 17 22  1  0  0  0  0
 17 52  1  0  0  0  0
 18 53  1  0  0  0  0
 18 54  1  0  0  0  0
 19 23  1  0  0  0  0
 19 55  1  0  0  0  0
 19 56  1  0  0  0  0
 20 24  2  0  0  0  0
 20 25  1  0  0  0  0
 21 57  1  0  0  0  0
 21 58  1  0  0  0  0
 21 59  1  0  0  0  0
 22 60  1  0  0  0  0
 22 61  1  0  0  0  0
 22 62  1  0  0  0  0
 23 63  1  0  0  0  0
 23 64  1  0  0  0  0
 24 29  1  0  0  0  0
 24 67  1  0  0  0  0
 25 30  2  0  0  0  0
 25 68  1  0  0  0  0
 26 27  1  0  0  0  0
 26 28  1  0  0  0  0
 26 69  1  0  0  0  0
 28 32  1  0  0  0  0
 28 70  1  0  0  0  0
 28 71  1  0  0  0  0
 29 31  2  0  0  0  0
 30 31  1  0  0  0  0
 30 72  1  0  0  0  0
 32 33  2  0  0  0  0
 32 34  1  0  0  0  0
 33 35  1  0  0  0  0
 33 74  1  0  0  0  0
 34 38  2  0  0  0  0
 34 75  1  0  0  0  0
 35 37  1  0  0  0  0
 35 39  2  0  0  0  0
 37 38  1  0  0  0  0
 37 40  2  0  0  0  0
 38 78  1  0  0  0  0
 39 41  1  0  0  0  0
 39 79  1  0  0  0  0
 40 42  1  0  0  0  0
 40 80  1  0  0  0  0
 41 42  2  0  0  0  0
 41 81  1  0  0  0  0
 42 82  1  0  0  0  0
 43 83  1  0  0  0  0
 43 84  1  0  0  0  0
 43 85  1  0  0  0  0
 44 86  1  0  0  0  0
 44 87  1  0  0  0  0
 44 88  1  0  0  0  0
M  END
> <PUBCHEM_COMPOUND_CID>
514008
> <PUBCHEM_COMPOUND_CANONICALIZED>
1
> <PUBCHEM_CACTVS_COMPLEXITY>
1010
> <PUBCHEM_CACTVS_HBOND_ACCEPTOR>
8
> <PUBCHEM_CACTVS_HBOND_DONOR>
4
> <PUBCHEM_CACTVS_ROTATABLE_BOND>
15
> <PUBCHEM_CACTVS_SUBSKEYS>
AAADcfB/uQBAAAAAAAAAAAAAAAAAAAAAAAAwYMAAAAAAAADBVAAAHwQQSAAADSjh2A4zwcPAAgKIAiVSUHDCABAgAgAIiJmIZIiKcDKAkbGUYARslgKYyAeYyMCOwAACACAQAACAAAQAQCAAAAAAAAAAAA==
> <PUBCHEM_IUPAC_OPENEYE_NAME>
(2S)-N-[(5S)-5-[(3-amino-4-fluoro-phenyl)sulfonyl-isobutyl-amino]-6-hydroxy-hexyl]-2-(dimethylcarbamoylamino)-3-(2-naphthyl)propanamide
> <PUBCHEM_IUPAC_CAS_NAME>
(2S)-N-[(5S)-5-[(3-amino-4-fluorophenyl)sulfonyl-(2-methylpropyl)amino]-6-hydroxyhexyl]-2-[[dimethylamino(oxo)methyl]amino]-3-(2-naphthalenyl)propanamide
> <PUBCHEM_IUPAC_NAME_MARKUP>
(2<I>S</I>)-<I>N</I>-[(5<I>S</I>)-5-[(3-amino-4-fluorophenyl)sulfonyl-(2-methylpropyl)amino]-6-hydroxyhexyl]-2-(dimethylcarbamoylamino)-3-naphthalen-2-ylpropanamide
> <PUBCHEM_IUPAC_NAME>
(2S)-N-[(5S)-5-[(3-amino-4-fluorophenyl)sulfonyl-(2-methylpropyl)amino]-6-hydroxyhexyl]-2-(dimethylcarbamoylamino)-3-naphthalen-2-ylpropanamide
> <PUBCHEM_IUPAC_SYSTEMATIC_NAME>
(2S)-N-[(5S)-5-[(3-azanyl-4-fluoranyl-phenyl)sulfonyl-(2-methylpropyl)amino]-6-oxidanyl-hexyl]-2-(dimethylcarbamoylamino)-3-naphthalen-2-yl-propanamide
> <PUBCHEM_IUPAC_TRADITIONAL_NAME>
(2S)-N-[(5S)-5-[(3-amino-4-fluoro-phenyl)sulfonyl-isobutyl-amino]-6-hydroxy-hexyl]-2-(dimethylcarbamoylamino)-3-(2-naphthyl)propionamide
> <PUBCHEM_IUPAC_INCHI>
InChI=1S/C32H44FN5O5S/c1-22(2)20-38(44(42,43)27-14-15-28(33)29(34)19-27)26(21-39)11-7-8-16-35-31(40)30(36-32(41)37(3)4)18-23-12-13-24-9-5-6-10-25(24)17-23/h5-6,9-10,12-15,17,19,22,26,30,39H,7-8,11,16,18,20-21,34H2,1-4H3,(H,35,40)(H,36,41)/t26-,30-/m0/s1
> <PUBCHEM_IUPAC_INCHIKEY>
WUEWDKDIGLWRCM-YZNIXAGQSA-N
> <PUBCHEM_XLOGP3_AA>
4.2
> <PUBCHEM_EXACT_MASS>
629.30471886
> <PUBCHEM_MOLECULAR_FORMULA>
C32H44FN5O5S
> <PUBCHEM_MOLECULAR_WEIGHT>
629.8
> <PUBCHEM_OPENEYE_CAN_SMILES>
CC(C)CN(C(CCCCNC(=O)C(CC1=CC2=CC=CC=C2C=C1)NC(=O)N(C)C)CO)S(=O)(=O)C3=CC(=C(C=C3)F)N
> <PUBCHEM_OPENEYE_ISO_SMILES>
CC(C)CN([C@@H](CCCCNC(=O)[C@H](CC1=CC2=CC=CC=C2C=C1)NC(=O)N(C)C)CO)S(=O)(=O)C3=CC(=C(C=C3)F)N
> <PUBCHEM_CACTVS_TPSA>
153
> <PUBCHEM_MONOISOTOPIC_WEIGHT>
629.30471886
> <PUBCHEM_TOTAL_CHARGE>
0
> <PUBCHEM_HEAVY_ATOM_COUNT>
44
> <PUBCHEM_ATOM_DEF_STEREO_COUNT>
2
> <PUBCHEM_ATOM_UDEF_STEREO_COUNT>
0
> <PUBCHEM_BOND_DEF_STEREO_COUNT>
0
> <PUBCHEM_BOND_UDEF_STEREO_COUNT>
0
> <PUBCHEM_ISOTOPIC_ATOM_COUNT>
0
> <PUBCHEM_COMPONENT_COUNT>
1
> <PUBCHEM_CACTVS_TAUTO_COUNT>
-1
> <PUBCHEM_COORDINATE_TYPE>
1
5
255
> <PUBCHEM_BONDANNOTATIONS>
26  10  6
20  24  8
20  25  8
24  29  8
25  30  8
29  31  8
30  31  8
32  33  8
32  34  8
33  35  8
34  38  8
35  37  8
35  39  8
37  38  8
37  40  8
39  41  8
40  42  8
41  42  8
13  8  6
$$$$
