514159
  -OEChem-10302200282D
 56 57  0     1  0  0  0  0  0999 V2000
    6.8671   -2.1221    0.0000 S   0  0  0  0  0  0  0  0  0  0  0  0
    5.1350    0.8779    0.0000 S   0  0  0  0  0  0  0  0  0  0  0  0
    9.9685    1.8393    0.0000 O   0  0  0  0  0  0  0  0  0  0  0  0
   11.9255    2.2518    0.0000 O   0  0  0  0  0  0  0  0  0  0  0  0
   12.5468    4.1528    0.0000 O   0  0  0  0  0  0  0  0  0  0  0  0
    6.8671   -4.1221    0.0000 O   0  0  0  0  0  0  0  0  0  0  0  0
    3.4030    1.8779    0.0000 O   0  0  0  0  0  0  0  0  0  0  0  0
    8.6793    0.6826    0.0000 N   0  0  0  0  0  0  0  0  0  0  0  0
    8.6793   -0.9269    0.0000 N   0  0  0  0  0  0  0  0  0  0  0  0
    6.8671    0.8779    0.0000 N   0  0  0  0  0  0  0  0  0  0  0  0
    6.0010   -0.6221    0.0000 N   0  0  0  0  0  0  0  0  0  0  0  0
    5.1350   -4.1221    0.0000 N   0  0  0  0  0  0  0  0  0  0  0  0
    2.5369    0.3779    0.0000 N   0  0  0  0  0  0  0  0  0  0  0  0
    7.7331    0.3779    0.0000 C   0  0  0  0  0  0  0  0  0  0  0  0
    7.7331   -0.6221    0.0000 C   0  0  0  0  0  0  0  0  0  0  0  0
    6.0010   -2.6221    0.0000 C   0  0  3  0  0  0  0  0  0  0  0  0
    8.9900    1.6331    0.0000 C   0  0  0  0  0  0  0  0  0  0  0  0
    6.8671   -1.1221    0.0000 C   0  0  0  0  0  0  0  0  0  0  0  0
    5.1350   -2.1221    0.0000 C   0  0  0  0  0  0  0  0  0  0  0  0
    4.2690    0.3779    0.0000 C   0  0  3  0  0  0  0  0  0  0  0  0
    9.2629   -0.1221    0.0000 C   0  0  0  0  0  0  0  0  0  0  0  0
   10.2791    2.7899    0.0000 C   0  0  0  0  0  0  0  0  0  0  0  0
    6.0010    0.3779    0.0000 C   0  0  0  0  0  0  0  0  0  0  0  0
   11.2576    2.9961    0.0000 C   0  0  3  0  0  0  0  0  0  0  0  0
    4.2690   -0.6221    0.0000 C   0  0  0  0  0  0  0  0  0  0  0  0
    4.2690   -2.6221    0.0000 C   0  0  0  0  0  0  0  0  0  0  0  0
    6.0010   -3.6221    0.0000 C   0  0  0  0  0  0  0  0  0  0  0  0
   11.5683    3.9466    0.0000 C   0  0  0  0  0  0  0  0  0  0  0  0
    3.4030   -1.1221    0.0000 C   0  0  0  0  0  0  0  0  0  0  0  0
    3.4030    0.8779    0.0000 C   0  0  0  0  0  0  0  0  0  0  0  0
    6.5380   -2.9321    0.0000 H   0  0  0  0  0  0  0  0  0  0  0  0
    8.9694    2.2528    0.0000 H   0  0  0  0  0  0  0  0  0  0  0  0
    8.3762    1.7205    0.0000 H   0  0  0  0  0  0  0  0  0  0  0  0
    4.2690    0.9979    0.0000 H   0  0  0  0  0  0  0  0  0  0  0  0
    5.5335   -1.6472    0.0000 H   0  0  0  0  0  0  0  0  0  0  0  0
    4.7365   -1.6472    0.0000 H   0  0  0  0  0  0  0  0  0  0  0  0
    9.8829   -0.1221    0.0000 H   0  0  0  0  0  0  0  0  0  0  0  0
   10.2586    3.4095    0.0000 H   0  0  0  0  0  0  0  0  0  0  0  0
    9.6653    2.8772    0.0000 H   0  0  0  0  0  0  0  0  0  0  0  0
   11.0650    2.4068    0.0000 H   0  0  0  0  0  0  0  0  0  0  0  0
    4.4810   -1.2048    0.0000 H   0  0  0  0  0  0  0  0  0  0  0  0
    4.8796   -0.5145    0.0000 H   0  0  0  0  0  0  0  0  0  0  0  0
    3.9590   -2.0852    0.0000 H   0  0  0  0  0  0  0  0  0  0  0  0
    3.7320   -2.9321    0.0000 H   0  0  0  0  0  0  0  0  0  0  0  0
    4.5790   -3.1591    0.0000 H   0  0  0  0  0  0  0  0  0  0  0  0
   11.5477    4.5662    0.0000 H   0  0  0  0  0  0  0  0  0  0  0  0
   10.9545    4.0339    0.0000 H   0  0  0  0  0  0  0  0  0  0  0  0
    3.0930   -0.5852    0.0000 H   0  0  0  0  0  0  0  0  0  0  0  0
    2.8660   -1.4321    0.0000 H   0  0  0  0  0  0  0  0  0  0  0  0
    3.7130   -1.6591    0.0000 H   0  0  0  0  0  0  0  0  0  0  0  0
   12.5322    2.3796    0.0000 H   0  0  0  0  0  0  0  0  0  0  0  0
    5.1350   -4.7421    0.0000 H   0  0  0  0  0  0  0  0  0  0  0  0
    4.5981   -3.8121    0.0000 H   0  0  0  0  0  0  0  0  0  0  0  0
    2.0000    0.6879    0.0000 H   0  0  0  0  0  0  0  0  0  0  0  0
    2.5369   -0.2421    0.0000 H   0  0  0  0  0  0  0  0  0  0  0  0
   12.7394    4.7421    0.0000 H   0  0  0  0  0  0  0  0  0  0  0  0
  1 16  1  0  0  0  0
  1 18  1  0  0  0  0
  2 20  1  0  0  0  0
  2 23  1  0  0  0  0
  3 17  1  0  0  0  0
  3 22  1  0  0  0  0
  4 24  1  0  0  0  0
  4 51  1  0  0  0  0
  5 28  1  0  0  0  0
  5 56  1  0  0  0  0
  6 27  2  0  0  0  0
  7 30  2  0  0  0  0
  8 14  1  0  0  0  0
  8 17  1  0  0  0  0
  8 21  1  0  0  0  0
  9 15  1  0  0  0  0
  9 21  2  0  0  0  0
 10 14  1  0  0  0  0
 10 23  2  0  0  0  0
 11 18  2  0  0  0  0
 11 23  1  0  0  0  0
 12 27  1  0  0  0  0
 12 52  1  0  0  0  0
 12 53  1  0  0  0  0
 13 30  1  0  0  0  0
 13 54  1  0  0  0  0
 13 55  1  0  0  0  0
 14 15  2  0  0  0  0
 15 18  1  0  0  0  0
 16 19  1  0  0  0  0
 16 27  1  0  0  0  0
 16 31  1  0  0  0  0
 17 32  1  0  0  0  0
 17 33  1  0  0  0  0
 19 26  1  0  0  0  0
 19 35  1  0  0  0  0
 19 36  1  0  0  0  0
 20 25  1  0  0  0  0
 20 30  1  0  0  0  0
 20 34  1  0  0  0  0
 21 37  1  0  0  0  0
 22 24  1  0  0  0  0
 22 38  1  0  0  0  0
 22 39  1  0  0  0  0
 24 28  1  0  0  0  0
 24 40  1  0  0  0  0
 25 29  1  0  0  0  0
 25 41  1  0  0  0  0
 25 42  1  0  0  0  0
 26 43  1  0  0  0  0
 26 44  1  0  0  0  0
 26 45  1  0  0  0  0
 28 46  1  0  0  0  0
 28 47  1  0  0  0  0
 29 48  1  0  0  0  0
 29 49  1  0  0  0  0
 29 50  1  0  0  0  0
M  END
> <PUBCHEM_COMPOUND_CID>
514159
> <PUBCHEM_COMPOUND_CANONICALIZED>
1
> <PUBCHEM_CACTVS_COMPLEXITY>
577
> <PUBCHEM_CACTVS_HBOND_ACCEPTOR>
10
> <PUBCHEM_CACTVS_HBOND_DONOR>
4
> <PUBCHEM_CACTVS_ROTATABLE_BOND>
13
> <PUBCHEM_CACTVS_SUBSKEYS>
AAADceB7uABgAAAAAAAAAAAAAAAAAWAAAAAsAAAAAAAAAFgB+AAAHgQQCAAACByl1waH8b9MFgioAQdxdACA0C1RGLABUDUoVBCBWBBgyEAcRAwJEAJjACAAAAAAAAAAAAAAAAAAAAAAAAAAAAAAAAAAAA==
> <PUBCHEM_IUPAC_OPENEYE_NAME>
2-[2-(1-carbamoylpropylsulfanyl)-9-(2,3-dihydroxypropoxymethyl)purin-6-yl]sulfanylbutanamide
> <PUBCHEM_IUPAC_CAS_NAME>
2-[[2-[(1-amino-1-oxobutan-2-yl)thio]-9-(2,3-dihydroxypropoxymethyl)-6-purinyl]thio]butanamide
> <PUBCHEM_IUPAC_NAME_MARKUP>
2-[2-(1-amino-1-oxobutan-2-yl)sulfanyl-9-(2,3-dihydroxypropoxymethyl)purin-6-yl]sulfanylbutanamide
> <PUBCHEM_IUPAC_NAME>
2-[2-(1-amino-1-oxobutan-2-yl)sulfanyl-9-(2,3-dihydroxypropoxymethyl)purin-6-yl]sulfanylbutanamide
> <PUBCHEM_IUPAC_SYSTEMATIC_NAME>
2-[2-(1-azanyl-1-oxidanylidene-butan-2-yl)sulfanyl-9-[2,3-bis(oxidanyl)propoxymethyl]purin-6-yl]sulfanylbutanamide
> <PUBCHEM_IUPAC_TRADITIONAL_NAME>
2-[[2-(1-carbamoylpropylthio)-9-(glyceryloxymethyl)purin-6-yl]thio]butyramide
> <PUBCHEM_IUPAC_INCHI>
InChI=1S/C17H26N6O5S2/c1-3-10(13(18)26)29-16-12-15(21-17(22-16)30-11(4-2)14(19)27)23(7-20-12)8-28-6-9(25)5-24/h7,9-11,24-25H,3-6,8H2,1-2H3,(H2,18,26)(H2,19,27)
> <PUBCHEM_IUPAC_INCHIKEY>
IYBYRFDBQOPHAK-UHFFFAOYSA-N
> <PUBCHEM_XLOGP3_AA>
0.1
> <PUBCHEM_EXACT_MASS>
458.14061030
> <PUBCHEM_MOLECULAR_FORMULA>
C17H26N6O5S2
> <PUBCHEM_MOLECULAR_WEIGHT>
458.6
> <PUBCHEM_OPENEYE_CAN_SMILES>
CCC(C(=O)N)SC1=NC(=NC2=C1N=CN2COCC(CO)O)SC(CC)C(=O)N
> <PUBCHEM_OPENEYE_ISO_SMILES>
CCC(C(=O)N)SC1=NC(=NC2=C1N=CN2COCC(CO)O)SC(CC)C(=O)N
> <PUBCHEM_CACTVS_TPSA>
230
> <PUBCHEM_MONOISOTOPIC_WEIGHT>
458.14061030
> <PUBCHEM_TOTAL_CHARGE>
0
> <PUBCHEM_HEAVY_ATOM_COUNT>
30
> <PUBCHEM_ATOM_DEF_STEREO_COUNT>
0
> <PUBCHEM_ATOM_UDEF_STEREO_COUNT>
3
> <PUBCHEM_BOND_DEF_STEREO_COUNT>
0
> <PUBCHEM_BOND_UDEF_STEREO_COUNT>
0
> <PUBCHEM_ISOTOPIC_ATOM_COUNT>
0
> <PUBCHEM_COMPONENT_COUNT>
1
> <PUBCHEM_CACTVS_TAUTO_COUNT>
-1
> <PUBCHEM_COORDINATE_TYPE>
1
5
255
> <PUBCHEM_BONDANNOTATIONS>
10  14  8
10  23  8
11  18  8
11  23  8
14  15  8
15  18  8
16  19  3
20  25  3
24  4  3
8  14  8
8  21  8
9  15  8
9  21  8
$$$$
