514136
  -OEChem-10302200282D
 82 85  0     1  0  0  0  0  0999 V2000
    3.4051   -2.3091    0.0000 S   0  0  0  0  0  0  0  0  0  0  0  0
   13.1783    1.7598    0.0000 S   0  0  0  0  0  0  0  0  0  0  0  0
    4.2768   -1.8192    0.0000 O   0  0  0  0  0  0  0  0  0  0  0  0
   12.1998    1.5536    0.0000 O   0  0  0  0  0  0  0  0  0  0  0  0
    4.2607   -3.9108    0.0000 O   0  0  0  0  0  0  0  0  0  0  0  0
    2.5333   -2.7991    0.0000 O   0  0  0  0  0  0  0  0  0  0  0  0
    2.9151   -1.4374    0.0000 O   0  0  0  0  0  0  0  0  0  0  0  0
    3.8950   -3.1809    0.0000 O   0  0  0  0  0  0  0  0  0  0  0  0
   14.1568    1.9660    0.0000 O   0  0  0  0  0  0  0  0  0  0  0  0
   12.9721    2.7383    0.0000 O   0  0  0  0  0  0  0  0  0  0  0  0
   13.3845    0.7813    0.0000 O   0  0  0  0  0  0  0  0  0  0  0  0
    9.6538   -0.8584    0.0000 C   0  0  3  0  0  0  0  0  0  0  0  0
    9.6538   -1.8584    0.0000 C   0  0  3  0  0  0  0  0  0  0  0  0
    8.7878   -2.3584    0.0000 C   0  0  3  0  0  0  0  0  0  0  0  0
    7.9217   -1.8584    0.0000 C   0  0  3  0  0  0  0  0  0  0  0  0
   10.6000   -0.5537    0.0000 C   0  0  3  0  0  0  0  0  0  0  0  0
    8.7878   -0.3584    0.0000 C   0  0  0  0  0  0  0  0  0  0  0  0
    7.0117   -2.3653    0.0000 C   0  0  3  0  0  0  0  0  0  0  0  0
   10.6000   -2.1632    0.0000 C   0  0  0  0  0  0  0  0  0  0  0  0
    7.9217   -0.8584    0.0000 C   0  0  0  0  0  0  0  0  0  0  0  0
   11.1836   -1.3584    0.0000 C   0  0  0  0  0  0  0  0  0  0  0  0
    8.8038   -3.3999    0.0000 C   0  0  0  0  0  0  0  0  0  0  0  0
   10.9107    0.3968    0.0000 C   0  0  3  0  0  0  0  0  0  0  0  0
    9.6538    0.1416    0.0000 C   0  0  0  0  0  0  0  0  0  0  0  0
    7.0037   -3.4069    0.0000 C   0  0  0  0  0  0  0  0  0  0  0  0
    6.0849   -1.8012    0.0000 C   0  0  0  0  0  0  0  0  0  0  0  0
    7.9058   -3.9277    0.0000 C   0  0  0  0  0  0  0  0  0  0  0  0
    7.0194   -1.3653    0.0000 C   0  0  0  0  0  0  0  0  0  0  0  0
    6.0683   -3.9566    0.0000 C   0  0  0  0  0  0  0  0  0  0  0  0
    5.1370   -2.3292    0.0000 C   0  0  1  0  0  0  0  0  0  0  0  0
   10.2428    1.1411    0.0000 C   0  0  0  0  0  0  0  0  0  0  0  0
    5.1286   -3.4141    0.0000 C   0  0  1  0  0  0  0  0  0  0  0  0
   11.8892    0.6030    0.0000 C   0  0  0  0  0  0  0  0  0  0  0  0
   10.5535    2.0916    0.0000 C   0  0  0  0  0  0  0  0  0  0  0  0
    9.8856    2.8359    0.0000 C   0  0  0  0  0  0  0  0  0  0  0  0
   10.1963    3.7865    0.0000 C   0  0  0  0  0  0  0  0  0  0  0  0
    9.5284    4.5308    0.0000 C   0  0  0  0  0  0  0  0  0  0  0  0
   11.1748    3.9927    0.0000 C   0  0  0  0  0  0  0  0  0  0  0  0
    9.7194   -2.4750    0.0000 H   0  0  0  0  0  0  0  0  0  0  0  0
    9.3271   -2.6643    0.0000 H   0  0  0  0  0  0  0  0  0  0  0  0
    8.4587   -1.5484    0.0000 H   0  0  0  0  0  0  0  0  0  0  0  0
   11.2125   -0.4575    0.0000 H   0  0  0  0  0  0  0  0  0  0  0  0
    9.1863    0.1165    0.0000 H   0  0  0  0  0  0  0  0  0  0  0  0
    8.3892    0.1165    0.0000 H   0  0  0  0  0  0  0  0  0  0  0  0
   10.3490   -2.7301    0.0000 H   0  0  0  0  0  0  0  0  0  0  0  0
   11.1374   -2.4724    0.0000 H   0  0  0  0  0  0  0  0  0  0  0  0
    7.7097   -0.2758    0.0000 H   0  0  0  0  0  0  0  0  0  0  0  0
    7.3111   -0.9661    0.0000 H   0  0  0  0  0  0  0  0  0  0  0  0
   11.6445   -1.7732    0.0000 H   0  0  0  0  0  0  0  0  0  0  0  0
   11.6445   -0.9437    0.0000 H   0  0  0  0  0  0  0  0  0  0  0  0
    9.0218   -3.9803    0.0000 H   0  0  0  0  0  0  0  0  0  0  0  0
    9.4130   -3.2844    0.0000 H   0  0  0  0  0  0  0  0  0  0  0  0
   10.3040    0.2690    0.0000 H   0  0  0  0  0  0  0  0  0  0  0  0
   10.2738    0.1416    0.0000 H   0  0  0  0  0  0  0  0  0  0  0  0
    9.6538    0.7616    0.0000 H   0  0  0  0  0  0  0  0  0  0  0  0
    9.0338    0.1416    0.0000 H   0  0  0  0  0  0  0  0  0  0  0  0
    6.4931   -1.3345    0.0000 H   0  0  0  0  0  0  0  0  0  0  0  0
    5.6950   -1.3192    0.0000 H   0  0  0  0  0  0  0  0  0  0  0  0
    7.9082   -4.5477    0.0000 H   0  0  0  0  0  0  0  0  0  0  0  0
    7.6394   -1.3701    0.0000 H   0  0  0  0  0  0  0  0  0  0  0  0
    7.0242   -0.7453    0.0000 H   0  0  0  0  0  0  0  0  0  0  0  0
    6.3994   -1.3605    0.0000 H   0  0  0  0  0  0  0  0  0  0  0  0
    5.6710   -4.4326    0.0000 H   0  0  0  0  0  0  0  0  0  0  0  0
    6.4692   -4.4295    0.0000 H   0  0  0  0  0  0  0  0  0  0  0  0
    4.5971   -2.6340    0.0000 H   0  0  0  0  0  0  0  0  0  0  0  0
    9.6959    1.4331    0.0000 H   0  0  0  0  0  0  0  0  0  0  0  0
    9.8603    0.6532    0.0000 H   0  0  0  0  0  0  0  0  0  0  0  0
    5.1274   -4.0341    0.0000 H   0  0  0  0  0  0  0  0  0  0  0  0
   11.9097   -0.0166    0.0000 H   0  0  0  0  0  0  0  0  0  0  0  0
   12.5030    0.5157    0.0000 H   0  0  0  0  0  0  0  0  0  0  0  0
   11.1004    1.7996    0.0000 H   0  0  0  0  0  0  0  0  0  0  0  0
   10.9360    2.5795    0.0000 H   0  0  0  0  0  0  0  0  0  0  0  0
    4.2583   -4.5308    0.0000 H   0  0  0  0  0  0  0  0  0  0  0  0
    9.2790    2.7081    0.0000 H   0  0  0  0  0  0  0  0  0  0  0  0
    2.0000   -2.4829    0.0000 H   0  0  0  0  0  0  0  0  0  0  0  0
   14.3494    2.5553    0.0000 H   0  0  0  0  0  0  0  0  0  0  0  0
    9.9899    4.9448    0.0000 H   0  0  0  0  0  0  0  0  0  0  0  0
    9.1144    4.9922    0.0000 H   0  0  0  0  0  0  0  0  0  0  0  0
    9.0670    4.1167    0.0000 H   0  0  0  0  0  0  0  0  0  0  0  0
   11.3027    3.3860    0.0000 H   0  0  0  0  0  0  0  0  0  0  0  0
   11.7815    4.1205    0.0000 H   0  0  0  0  0  0  0  0  0  0  0  0
   11.0469    4.5994    0.0000 H   0  0  0  0  0  0  0  0  0  0  0  0
  1  3  1  0  0  0  0
  1  6  1  0  0  0  0
  1  7  2  0  0  0  0
  1  8  2  0  0  0  0
  2  4  1  0  0  0  0
  2  9  1  0  0  0  0
  2 10  2  0  0  0  0
  2 11  2  0  0  0  0
 30  3  1  1  0  0  0
  4 33  1  0  0  0  0
 32  5  1  6  0  0  0
  5 73  1  0  0  0  0
  6 75  1  0  0  0  0
  9 76  1  0  0  0  0
 12 13  1  0  0  0  0
 12 16  1  0  0  0  0
 12 17  1  0  0  0  0
 12 24  1  0  0  0  0
 13 14  1  0  0  0  0
 13 19  1  0  0  0  0
 13 39  1  0  0  0  0
 14 15  1  0  0  0  0
 14 22  1  0  0  0  0
 14 40  1  0  0  0  0
 15 18  1  0  0  0  0
 15 20  1  0  0  0  0
 15 41  1  0  0  0  0
 16 21  1  0  0  0  0
 16 23  1  0  0  0  0
 16 42  1  0  0  0  0
 17 20  1  0  0  0  0
 17 43  1  0  0  0  0
 17 44  1  0  0  0  0
 18 25  1  0  0  0  0
 18 26  1  0  0  0  0
 18 28  1  0  0  0  0
 19 21  1  0  0  0  0
 19 45  1  0  0  0  0
 19 46  1  0  0  0  0
 20 47  1  0  0  0  0
 20 48  1  0  0  0  0
 21 49  1  0  0  0  0
 21 50  1  0  0  0  0
 22 27  1  0  0  0  0
 22 51  1  0  0  0  0
 22 52  1  0  0  0  0
 23 31  1  0  0  0  0
 23 33  1  0  0  0  0
 23 53  1  0  0  0  0
 24 54  1  0  0  0  0
 24 55  1  0  0  0  0
 24 56  1  0  0  0  0
 25 27  2  0  0  0  0
 25 29  1  0  0  0  0
 26 30  1  0  0  0  0
 26 57  1  0  0  0  0
 26 58  1  0  0  0  0
 27 59  1  0  0  0  0
 28 60  1  0  0  0  0
 28 61  1  0  0  0  0
 28 62  1  0  0  0  0
 29 32  1  0  0  0  0
 29 63  1  0  0  0  0
 29 64  1  0  0  0  0
 30 32  1  0  0  0  0
 30 65  1  0  0  0  0
 31 34  1  0  0  0  0
 31 66  1  0  0  0  0
 31 67  1  0  0  0  0
 32 68  1  0  0  0  0
 33 69  1  0  0  0  0
 33 70  1  0  0  0  0
 34 35  1  0  0  0  0
 34 71  1  0  0  0  0
 34 72  1  0  0  0  0
 35 36  2  0  0  0  0
 35 74  1  0  0  0  0
 36 37  1  0  0  0  0
 36 38  1  0  0  0  0
 37 77  1  0  0  0  0
 37 78  1  0  0  0  0
 37 79  1  0  0  0  0
 38 80  1  0  0  0  0
 38 81  1  0  0  0  0
 38 82  1  0  0  0  0
M  END
> <PUBCHEM_COMPOUND_CID>
514136
> <PUBCHEM_COMPOUND_CANONICALIZED>
1
> <PUBCHEM_CACTVS_COMPLEXITY>
1150
> <PUBCHEM_CACTVS_HBOND_ACCEPTOR>
9
> <PUBCHEM_CACTVS_HBOND_DONOR>
3
> <PUBCHEM_CACTVS_ROTATABLE_BOND>
9
> <PUBCHEM_CACTVS_SUBSKEYS>
AAADcfB4PABgAAAAAAAAAAAAAAAAAYAAAAAwYIAAAAAAAGCAAAAAGgAACAAADxSggAICAAAAAoCAAiBCADAAAAAgAAAACAAAAAgBEAIAAQAAQAAEwAAJAAOAwPAPgAAAAAAAAADAAAYAACCAAQAACAAAAA==
> <PUBCHEM_IUPAC_OPENEYE_NAME>
[(2S,3S)-3-hydroxy-10,13-dimethyl-17-[5-methyl-1-(sulfooxymethyl)hex-4-enyl]-2,3,4,7,8,9,11,12,14,15,16,17-dodecahydro-1H-cyclopenta[a]phenanthren-2-yl] hydrogen sulfate
> <PUBCHEM_IUPAC_CAS_NAME>
sulfuric acid [(2S,3S)-3-hydroxy-10,13-dimethyl-17-(6-methyl-1-sulfooxyhept-5-en-2-yl)-2,3,4,7,8,9,11,12,14,15,16,17-dodecahydro-1H-cyclopenta[a]phenanthren-2-yl] ester
> <PUBCHEM_IUPAC_NAME_MARKUP>
[(2<I>S</I>,3<I>S</I>)-3-hydroxy-10,13-dimethyl-17-(6-methyl-1-sulfooxyhept-5-en-2-yl)-2,3,4,7,8,9,11,12,14,15,16,17-dodecahydro-1<I>H</I>-cyclopenta[a]phenanthren-2-yl] hydrogen sulfate
> <PUBCHEM_IUPAC_NAME>
[(2S,3S)-3-hydroxy-10,13-dimethyl-17-(6-methyl-1-sulfooxyhept-5-en-2-yl)-2,3,4,7,8,9,11,12,14,15,16,17-dodecahydro-1H-cyclopenta[a]phenanthren-2-yl] hydrogen sulfate
> <PUBCHEM_IUPAC_SYSTEMATIC_NAME>
[(2S,3S)-10,13-dimethyl-17-(6-methyl-1-sulfooxy-hept-5-en-2-yl)-3-oxidanyl-2,3,4,7,8,9,11,12,14,15,16,17-dodecahydro-1H-cyclopenta[a]phenanthren-2-yl] hydrogen sulfate
> <PUBCHEM_IUPAC_TRADITIONAL_NAME>
sulfuric acid [(2S,3S)-3-hydroxy-10,13-dimethyl-17-[5-methyl-1-(sulfoxymethyl)hex-4-enyl]-2,3,4,7,8,9,11,12,14,15,16,17-dodecahydro-1H-cyclopenta[a]phenanthren-2-yl] ester
> <PUBCHEM_IUPAC_INCHI>
InChI=1S/C27H44O9S2/c1-17(2)6-5-7-18(16-35-37(29,30)31)21-10-11-22-20-9-8-19-14-24(28)25(36-38(32,33)34)15-27(19,4)23(20)12-13-26(21,22)3/h6,8,18,20-25,28H,5,7,9-16H2,1-4H3,(H,29,30,31)(H,32,33,34)/t18?,20?,21?,22?,23?,24-,25-,26?,27?/m0/s1
> <PUBCHEM_IUPAC_INCHIKEY>
FMQHJBSOFSWYOP-WOLMNOQLSA-N
> <PUBCHEM_XLOGP3_AA>
4.9
> <PUBCHEM_EXACT_MASS>
576.24267532
> <PUBCHEM_MOLECULAR_FORMULA>
C27H44O9S2
> <PUBCHEM_MOLECULAR_WEIGHT>
576.8
> <PUBCHEM_OPENEYE_CAN_SMILES>
CC(=CCCC(COS(=O)(=O)O)C1CCC2C1(CCC3C2CC=C4C3(CC(C(C4)O)OS(=O)(=O)O)C)C)C
> <PUBCHEM_OPENEYE_ISO_SMILES>
CC(=CCCC(COS(=O)(=O)O)C1CCC2C1(CCC3C2CC=C4C3(C[C@@H]([C@H](C4)O)OS(=O)(=O)O)C)C)C
> <PUBCHEM_CACTVS_TPSA>
164
> <PUBCHEM_MONOISOTOPIC_WEIGHT>
576.24267532
> <PUBCHEM_TOTAL_CHARGE>
0
> <PUBCHEM_HEAVY_ATOM_COUNT>
38
> <PUBCHEM_ATOM_DEF_STEREO_COUNT>
2
> <PUBCHEM_ATOM_UDEF_STEREO_COUNT>
7
> <PUBCHEM_BOND_DEF_STEREO_COUNT>
0
> <PUBCHEM_BOND_UDEF_STEREO_COUNT>
0
> <PUBCHEM_ISOTOPIC_ATOM_COUNT>
0
> <PUBCHEM_COMPONENT_COUNT>
1
> <PUBCHEM_CACTVS_TAUTO_COUNT>
-1
> <PUBCHEM_COORDINATE_TYPE>
1
5
255
> <PUBCHEM_BONDANNOTATIONS>
12  24  3
13  19  3
14  22  3
15  20  3
16  21  3
18  28  3
23  31  3
30  3  5
32  5  6
$$$$
