514153
  -OEChem-10302200282D
 52 53  0     1  0  0  0  0  0999 V2000
    6.8671   -1.7883    0.0000 S   0  0  0  0  0  0  0  0  0  0  0  0
    5.1350    1.2117    0.0000 S   0  0  0  0  0  0  0  0  0  0  0  0
    9.9685    2.1732    0.0000 O   0  0  0  0  0  0  0  0  0  0  0  0
    6.8671   -3.7883    0.0000 O   0  0  0  0  0  0  0  0  0  0  0  0
    3.4030    2.2117    0.0000 O   0  0  0  0  0  0  0  0  0  0  0  0
   11.5683    4.2804    0.0000 O   0  0  0  0  0  0  0  0  0  0  0  0
    8.6793    1.0164    0.0000 N   0  0  0  0  0  0  0  0  0  0  0  0
    6.8671    1.2117    0.0000 N   0  0  0  0  0  0  0  0  0  0  0  0
    8.6793   -0.5930    0.0000 N   0  0  0  0  0  0  0  0  0  0  0  0
    6.0010   -0.2883    0.0000 N   0  0  0  0  0  0  0  0  0  0  0  0
    5.1350   -3.7883    0.0000 N   0  0  0  0  0  0  0  0  0  0  0  0
    2.5369    0.7117    0.0000 N   0  0  0  0  0  0  0  0  0  0  0  0
    7.7331    0.7117    0.0000 C   0  0  0  0  0  0  0  0  0  0  0  0
    7.7331   -0.2883    0.0000 C   0  0  0  0  0  0  0  0  0  0  0  0
    6.0010   -2.2883    0.0000 C   0  0  3  0  0  0  0  0  0  0  0  0
    6.8671   -0.7883    0.0000 C   0  0  0  0  0  0  0  0  0  0  0  0
    4.2690    0.7117    0.0000 C   0  0  3  0  0  0  0  0  0  0  0  0
    5.1350   -1.7883    0.0000 C   0  0  0  0  0  0  0  0  0  0  0  0
    8.9900    1.9670    0.0000 C   0  0  0  0  0  0  0  0  0  0  0  0
    4.2690   -0.2883    0.0000 C   0  0  0  0  0  0  0  0  0  0  0  0
    9.2629    0.2117    0.0000 C   0  0  0  0  0  0  0  0  0  0  0  0
    6.0010    0.7117    0.0000 C   0  0  0  0  0  0  0  0  0  0  0  0
    4.2690   -2.2883    0.0000 C   0  0  0  0  0  0  0  0  0  0  0  0
    6.0010   -3.2883    0.0000 C   0  0  0  0  0  0  0  0  0  0  0  0
    3.4030   -0.7883    0.0000 C   0  0  0  0  0  0  0  0  0  0  0  0
    3.4030    1.2117    0.0000 C   0  0  0  0  0  0  0  0  0  0  0  0
   10.2791    3.1237    0.0000 C   0  0  0  0  0  0  0  0  0  0  0  0
   11.2576    3.3299    0.0000 C   0  0  0  0  0  0  0  0  0  0  0  0
    6.5380   -2.5983    0.0000 H   0  0  0  0  0  0  0  0  0  0  0  0
    4.2690    1.3317    0.0000 H   0  0  0  0  0  0  0  0  0  0  0  0
    5.5335   -1.3134    0.0000 H   0  0  0  0  0  0  0  0  0  0  0  0
    4.7365   -1.3134    0.0000 H   0  0  0  0  0  0  0  0  0  0  0  0
    8.9694    2.5866    0.0000 H   0  0  0  0  0  0  0  0  0  0  0  0
    8.3762    2.0543    0.0000 H   0  0  0  0  0  0  0  0  0  0  0  0
    4.4810   -0.8709    0.0000 H   0  0  0  0  0  0  0  0  0  0  0  0
    4.8796   -0.1806    0.0000 H   0  0  0  0  0  0  0  0  0  0  0  0
    9.8829    0.2117    0.0000 H   0  0  0  0  0  0  0  0  0  0  0  0
    3.9590   -1.7514    0.0000 H   0  0  0  0  0  0  0  0  0  0  0  0
    3.7320   -2.5983    0.0000 H   0  0  0  0  0  0  0  0  0  0  0  0
    4.5790   -2.8252    0.0000 H   0  0  0  0  0  0  0  0  0  0  0  0
    3.0930   -0.2514    0.0000 H   0  0  0  0  0  0  0  0  0  0  0  0
    2.8660   -1.0983    0.0000 H   0  0  0  0  0  0  0  0  0  0  0  0
    3.7130   -1.3252    0.0000 H   0  0  0  0  0  0  0  0  0  0  0  0
   10.2586    3.7434    0.0000 H   0  0  0  0  0  0  0  0  0  0  0  0
    9.6653    3.2110    0.0000 H   0  0  0  0  0  0  0  0  0  0  0  0
   11.2782    2.7103    0.0000 H   0  0  0  0  0  0  0  0  0  0  0  0
   11.8715    3.2426    0.0000 H   0  0  0  0  0  0  0  0  0  0  0  0
    5.1350   -4.4083    0.0000 H   0  0  0  0  0  0  0  0  0  0  0  0
    4.5981   -3.4783    0.0000 H   0  0  0  0  0  0  0  0  0  0  0  0
    2.0000    1.0217    0.0000 H   0  0  0  0  0  0  0  0  0  0  0  0
    2.5369    0.0917    0.0000 H   0  0  0  0  0  0  0  0  0  0  0  0
   12.1750    4.4083    0.0000 H   0  0  0  0  0  0  0  0  0  0  0  0
  1 15  1  0  0  0  0
  1 16  1  0  0  0  0
  2 17  1  0  0  0  0
  2 22  1  0  0  0  0
  3 19  1  0  0  0  0
  3 27  1  0  0  0  0
  4 24  2  0  0  0  0
  5 26  2  0  0  0  0
  6 28  1  0  0  0  0
  6 52  1  0  0  0  0
  7 13  1  0  0  0  0
  7 19  1  0  0  0  0
  7 21  1  0  0  0  0
  8 13  1  0  0  0  0
  8 22  2  0  0  0  0
  9 14  1  0  0  0  0
  9 21  2  0  0  0  0
 10 16  2  0  0  0  0
 10 22  1  0  0  0  0
 11 24  1  0  0  0  0
 11 48  1  0  0  0  0
 11 49  1  0  0  0  0
 12 26  1  0  0  0  0
 12 50  1  0  0  0  0
 12 51  1  0  0  0  0
 13 14  2  0  0  0  0
 14 16  1  0  0  0  0
 15 18  1  0  0  0  0
 15 24  1  0  0  0  0
 15 29  1  0  0  0  0
 17 20  1  0  0  0  0
 17 26  1  0  0  0  0
 17 30  1  0  0  0  0
 18 23  1  0  0  0  0
 18 31  1  0  0  0  0
 18 32  1  0  0  0  0
 19 33  1  0  0  0  0
 19 34  1  0  0  0  0
 20 25  1  0  0  0  0
 20 35  1  0  0  0  0
 20 36  1  0  0  0  0
 21 37  1  0  0  0  0
 23 38  1  0  0  0  0
 23 39  1  0  0  0  0
 23 40  1  0  0  0  0
 25 41  1  0  0  0  0
 25 42  1  0  0  0  0
 25 43  1  0  0  0  0
 27 28  1  0  0  0  0
 27 44  1  0  0  0  0
 27 45  1  0  0  0  0
 28 46  1  0  0  0  0
 28 47  1  0  0  0  0
M  END
> <PUBCHEM_COMPOUND_CID>
514153
> <PUBCHEM_COMPOUND_CANONICALIZED>
1
> <PUBCHEM_CACTVS_COMPLEXITY>
531
> <PUBCHEM_CACTVS_HBOND_ACCEPTOR>
9
> <PUBCHEM_CACTVS_HBOND_DONOR>
3
> <PUBCHEM_CACTVS_ROTATABLE_BOND>
12
> <PUBCHEM_CACTVS_SUBSKEYS>
AAADceB7uABgAAAAAAAAAAAAAAAAAWAAAAAsAAAAAAAAAFgB+AAAHgQQCAAACAil1waH8b9MFgioAQdxdACA0C1RGLABUDUoVBCBWBBgyEAcBAwIEAJjACAAAAAAAAAAAAAAAAAAAAAAAAAAAAAAAAAAAA==
> <PUBCHEM_IUPAC_OPENEYE_NAME>
2-[2-(1-carbamoylpropylsulfanyl)-9-(2-hydroxyethoxymethyl)purin-6-yl]sulfanylbutanamide
> <PUBCHEM_IUPAC_CAS_NAME>
2-[[2-[(1-amino-1-oxobutan-2-yl)thio]-9-(2-hydroxyethoxymethyl)-6-purinyl]thio]butanamide
> <PUBCHEM_IUPAC_NAME_MARKUP>
2-[2-(1-amino-1-oxobutan-2-yl)sulfanyl-9-(2-hydroxyethoxymethyl)purin-6-yl]sulfanylbutanamide
> <PUBCHEM_IUPAC_NAME>
2-[2-(1-amino-1-oxobutan-2-yl)sulfanyl-9-(2-hydroxyethoxymethyl)purin-6-yl]sulfanylbutanamide
> <PUBCHEM_IUPAC_SYSTEMATIC_NAME>
2-[2-(1-azanyl-1-oxidanylidene-butan-2-yl)sulfanyl-9-(2-hydroxyethyloxymethyl)purin-6-yl]sulfanylbutanamide
> <PUBCHEM_IUPAC_TRADITIONAL_NAME>
2-[[2-(1-carbamoylpropylthio)-9-(2-hydroxyethoxymethyl)purin-6-yl]thio]butyramide
> <PUBCHEM_IUPAC_INCHI>
InChI=1S/C16H24N6O4S2/c1-3-9(12(17)24)27-15-11-14(22(7-19-11)8-26-6-5-23)20-16(21-15)28-10(4-2)13(18)25/h7,9-10,23H,3-6,8H2,1-2H3,(H2,17,24)(H2,18,25)
> <PUBCHEM_IUPAC_INCHIKEY>
YZLDHJYXPDMCPN-UHFFFAOYSA-N
> <PUBCHEM_XLOGP3_AA>
0.7
> <PUBCHEM_EXACT_MASS>
428.13004562
> <PUBCHEM_MOLECULAR_FORMULA>
C16H24N6O4S2
> <PUBCHEM_MOLECULAR_WEIGHT>
428.5
> <PUBCHEM_OPENEYE_CAN_SMILES>
CCC(C(=O)N)SC1=NC(=NC2=C1N=CN2COCCO)SC(CC)C(=O)N
> <PUBCHEM_OPENEYE_ISO_SMILES>
CCC(C(=O)N)SC1=NC(=NC2=C1N=CN2COCCO)SC(CC)C(=O)N
> <PUBCHEM_CACTVS_TPSA>
210
> <PUBCHEM_MONOISOTOPIC_WEIGHT>
428.13004562
> <PUBCHEM_TOTAL_CHARGE>
0
> <PUBCHEM_HEAVY_ATOM_COUNT>
28
> <PUBCHEM_ATOM_DEF_STEREO_COUNT>
0
> <PUBCHEM_ATOM_UDEF_STEREO_COUNT>
2
> <PUBCHEM_BOND_DEF_STEREO_COUNT>
0
> <PUBCHEM_BOND_UDEF_STEREO_COUNT>
0
> <PUBCHEM_ISOTOPIC_ATOM_COUNT>
0
> <PUBCHEM_COMPONENT_COUNT>
1
> <PUBCHEM_CACTVS_TAUTO_COUNT>
-1
> <PUBCHEM_COORDINATE_TYPE>
1
5
255
> <PUBCHEM_BONDANNOTATIONS>
10  16  8
10  22  8
13  14  8
14  16  8
15  18  3
17  20  3
7  13  8
7  21  8
8  13  8
8  22  8
9  14  8
9  21  8
$$$$
