514196
  -OEChem-10302200282D
140141  0     1  0  0  0  0  0999 V2000
   11.1972   -2.3450    0.0000 O   0  0  0  0  0  0  0  0  0  0  0  0
    9.4651   -2.3450    0.0000 O   0  0  0  0  0  0  0  0  0  0  0  0
    9.4651   -1.3450    0.0000 O   0  0  0  0  0  0  0  0  0  0  0  0
    9.4651    0.6550    0.0000 O   0  0  0  0  0  0  0  0  0  0  0  0
    9.4651   -5.3450    0.0000 O   0  0  0  0  0  0  0  0  0  0  0  0
    7.7331   -4.3450    0.0000 O   0  0  0  0  0  0  0  0  0  0  0  0
   13.7953    0.1550    0.0000 O   0  0  0  0  0  0  0  0  0  0  0  0
   12.9292    1.6550    0.0000 O   0  0  0  0  0  0  0  0  0  0  0  0
   10.3312   -5.8450    0.0000 O   0  0  0  0  0  0  0  0  0  0  0  0
    6.0010   -1.3450    0.0000 O   0  0  0  0  0  0  0  0  0  0  0  0
   12.9292   -1.3450    0.0000 N   0  0  0  0  0  0  0  0  0  0  0  0
   11.1972    1.6550    0.0000 N   0  0  0  0  0  0  0  0  0  0  0  0
   11.1972   -4.3450    0.0000 N   0  0  0  0  0  0  0  0  0  0  0  0
    6.8671   -2.8450    0.0000 N   0  0  0  0  0  0  0  0  0  0  0  0
   15.5273   -0.8450    0.0000 N   0  0  0  0  0  0  0  0  0  0  0  0
   12.9292    3.6550    0.0000 N   0  0  0  0  0  0  0  0  0  0  0  0
   12.0632   -6.8450    0.0000 N   0  0  0  0  0  0  0  0  0  0  0  0
    4.2690   -2.3450    0.0000 N   0  0  0  0  0  0  0  0  0  0  0  0
   17.2594   -2.8450    0.0000 N   0  0  0  0  0  0  0  0  0  0  0  0
   10.3312    6.1550    0.0000 N   0  0  0  0  0  0  0  0  0  0  0  0
   15.5273   -5.8450    0.0000 N   0  0  0  0  0  0  0  0  0  0  0  0
    3.4030   -5.8450    0.0000 N   0  0  0  0  0  0  0  0  0  0  0  0
   18.9914   -2.8450    0.0000 N   0  0  0  0  0  0  0  0  0  0  0  0
   18.1254   -1.3450    0.0000 N   0  0  0  0  0  0  0  0  0  0  0  0
    9.4651    7.6550    0.0000 N   0  0  0  0  0  0  0  0  0  0  0  0
    8.5991    6.1550    0.0000 N   0  0  0  0  0  0  0  0  0  0  0  0
   17.2594   -5.8450    0.0000 N   0  0  0  0  0  0  0  0  0  0  0  0
   16.3933   -4.3450    0.0000 N   0  0  0  0  0  0  0  0  0  0  0  0
    2.5369   -7.3450    0.0000 N   0  0  0  0  0  0  0  0  0  0  0  0
    4.2690   -7.3450    0.0000 N   0  0  0  0  0  0  0  0  0  0  0  0
   11.1972   -1.3450    0.0000 C   0  0  2  0  0  0  0  0  0  0  0  0
   12.0632   -0.8450    0.0000 C   0  0  2  0  0  0  0  0  0  0  0  0
   11.1972    0.6550    0.0000 C   0  0  2  0  0  0  0  0  0  0  0  0
   10.3312   -0.8450    0.0000 C   0  0  1  0  0  0  0  0  0  0  0  0
   12.0632    0.1550    0.0000 C   0  0  0  0  0  0  0  0  0  0  0  0
   10.3312    0.1550    0.0000 C   0  0  1  0  0  0  0  0  0  0  0  0
   10.3312   -2.8450    0.0000 C   0  0  1  0  0  0  0  0  0  0  0  0
   10.3312   -3.8450    0.0000 C   0  0  1  0  0  0  0  0  0  0  0  0
    9.4651   -4.3450    0.0000 C   0  0  2  0  0  0  0  0  0  0  0  0
    8.5991   -3.8450    0.0000 C   0  0  1  0  0  0  0  0  0  0  0  0
    8.5991   -2.8450    0.0000 C   0  0  1  0  0  0  0  0  0  0  0  0
    7.7331   -2.3450    0.0000 C   0  0  0  0  0  0  0  0  0  0  0  0
   13.7953   -0.8450    0.0000 C   0  0  0  0  0  0  0  0  0  0  0  0
   12.0632    2.1550    0.0000 C   0  0  0  0  0  0  0  0  0  0  0  0
   14.6613   -1.3450    0.0000 C   0  0  2  0  0  0  0  0  0  0  0  0
   12.0632    3.1550    0.0000 C   0  0  2  0  0  0  0  0  0  0  0  0
   11.1972   -5.3450    0.0000 C   0  0  0  0  0  0  0  0  0  0  0  0
   14.6613   -2.3450    0.0000 C   0  0  0  0  0  0  0  0  0  0  0  0
   12.0632   -5.8450    0.0000 C   0  0  2  0  0  0  0  0  0  0  0  0
   11.1972    3.6550    0.0000 C   0  0  0  0  0  0  0  0  0  0  0  0
   15.5273   -2.8450    0.0000 C   0  0  0  0  0  0  0  0  0  0  0  0
   12.9292   -5.3450    0.0000 C   0  0  0  0  0  0  0  0  0  0  0  0
    6.0010   -2.3450    0.0000 C   0  0  0  0  0  0  0  0  0  0  0  0
   11.1972    4.6550    0.0000 C   0  0  0  0  0  0  0  0  0  0  0  0
    5.1350   -2.8450    0.0000 C   0  0  2  0  0  0  0  0  0  0  0  0
   13.7953   -5.8450    0.0000 C   0  0  0  0  0  0  0  0  0  0  0  0
   16.3933   -2.3450    0.0000 C   0  0  0  0  0  0  0  0  0  0  0  0
   10.3312    5.1550    0.0000 C   0  0  0  0  0  0  0  0  0  0  0  0
    5.1350   -3.8450    0.0000 C   0  0  0  0  0  0  0  0  0  0  0  0
   14.6613   -5.3450    0.0000 C   0  0  0  0  0  0  0  0  0  0  0  0
    4.2690   -4.3450    0.0000 C   0  0  0  0  0  0  0  0  0  0  0  0
    4.2690   -5.3450    0.0000 C   0  0  0  0  0  0  0  0  0  0  0  0
   18.1254   -2.3450    0.0000 C   0  0  0  0  0  0  0  0  0  0  0  0
    9.4651    6.6550    0.0000 C   0  0  0  0  0  0  0  0  0  0  0  0
   16.3933   -5.3450    0.0000 C   0  0  0  0  0  0  0  0  0  0  0  0
    3.4030   -6.8450    0.0000 C   0  0  0  0  0  0  0  0  0  0  0  0
   11.7341   -1.6550    0.0000 H   0  0  0  0  0  0  0  0  0  0  0  0
   12.6002   -0.5350    0.0000 H   0  0  0  0  0  0  0  0  0  0  0  0
   11.7341    0.9650    0.0000 H   0  0  0  0  0  0  0  0  0  0  0  0
    9.7942   -0.5350    0.0000 H   0  0  0  0  0  0  0  0  0  0  0  0
   12.6738    0.0473    0.0000 H   0  0  0  0  0  0  0  0  0  0  0  0
   12.2753    0.7376    0.0000 H   0  0  0  0  0  0  0  0  0  0  0  0
   10.3312    0.7750    0.0000 H   0  0  0  0  0  0  0  0  0  0  0  0
   10.3312   -2.2250    0.0000 H   0  0  0  0  0  0  0  0  0  0  0  0
   10.8681   -3.5350    0.0000 H   0  0  0  0  0  0  0  0  0  0  0  0
   10.0021   -4.6550    0.0000 H   0  0  0  0  0  0  0  0  0  0  0  0
   12.9292   -1.9650    0.0000 H   0  0  0  0  0  0  0  0  0  0  0  0
    8.5991   -4.4650    0.0000 H   0  0  0  0  0  0  0  0  0  0  0  0
    8.5991   -2.2250    0.0000 H   0  0  0  0  0  0  0  0  0  0  0  0
   10.6603    1.9650    0.0000 H   0  0  0  0  0  0  0  0  0  0  0  0
    8.9282   -1.0350    0.0000 H   0  0  0  0  0  0  0  0  0  0  0  0
    9.4651    1.2750    0.0000 H   0  0  0  0  0  0  0  0  0  0  0  0
   11.7341   -4.0350    0.0000 H   0  0  0  0  0  0  0  0  0  0  0  0
    8.1316   -1.8700    0.0000 H   0  0  0  0  0  0  0  0  0  0  0  0
    7.3346   -1.8700    0.0000 H   0  0  0  0  0  0  0  0  0  0  0  0
   14.6613   -0.7250    0.0000 H   0  0  0  0  0  0  0  0  0  0  0  0
    8.9282   -5.6550    0.0000 H   0  0  0  0  0  0  0  0  0  0  0  0
   12.6002    2.8450    0.0000 H   0  0  0  0  0  0  0  0  0  0  0  0
    7.7331   -4.9650    0.0000 H   0  0  0  0  0  0  0  0  0  0  0  0
    6.8671   -3.4650    0.0000 H   0  0  0  0  0  0  0  0  0  0  0  0
   14.0507   -2.2373    0.0000 H   0  0  0  0  0  0  0  0  0  0  0  0
   14.4492   -2.9276    0.0000 H   0  0  0  0  0  0  0  0  0  0  0  0
   11.5263   -6.1550    0.0000 H   0  0  0  0  0  0  0  0  0  0  0  0
   10.5866    3.7627    0.0000 H   0  0  0  0  0  0  0  0  0  0  0  0
   10.9851    3.0724    0.0000 H   0  0  0  0  0  0  0  0  0  0  0  0
   16.0643   -1.1550    0.0000 H   0  0  0  0  0  0  0  0  0  0  0  0
   15.5273   -0.2250    0.0000 H   0  0  0  0  0  0  0  0  0  0  0  0
   15.1288   -3.3200    0.0000 H   0  0  0  0  0  0  0  0  0  0  0  0
   15.9258   -3.3200    0.0000 H   0  0  0  0  0  0  0  0  0  0  0  0
   13.3278   -4.8700    0.0000 H   0  0  0  0  0  0  0  0  0  0  0  0
   12.5307   -4.8700    0.0000 H   0  0  0  0  0  0  0  0  0  0  0  0
   12.9292    4.2750    0.0000 H   0  0  0  0  0  0  0  0  0  0  0  0
   13.4662    3.3450    0.0000 H   0  0  0  0  0  0  0  0  0  0  0  0
   11.8078    4.5473    0.0000 H   0  0  0  0  0  0  0  0  0  0  0  0
   11.4092    5.2376    0.0000 H   0  0  0  0  0  0  0  0  0  0  0  0
    5.1350   -2.2250    0.0000 H   0  0  0  0  0  0  0  0  0  0  0  0
   12.6002   -7.1550    0.0000 H   0  0  0  0  0  0  0  0  0  0  0  0
   11.5263   -7.1550    0.0000 H   0  0  0  0  0  0  0  0  0  0  0  0
   13.3967   -6.3200    0.0000 H   0  0  0  0  0  0  0  0  0  0  0  0
   14.1938   -6.3200    0.0000 H   0  0  0  0  0  0  0  0  0  0  0  0
   16.7919   -1.8700    0.0000 H   0  0  0  0  0  0  0  0  0  0  0  0
   15.9948   -1.8700    0.0000 H   0  0  0  0  0  0  0  0  0  0  0  0
    9.7206    5.2627    0.0000 H   0  0  0  0  0  0  0  0  0  0  0  0
   10.1191    4.5724    0.0000 H   0  0  0  0  0  0  0  0  0  0  0  0
    5.3471   -4.4276    0.0000 H   0  0  0  0  0  0  0  0  0  0  0  0
    5.7456   -3.7373    0.0000 H   0  0  0  0  0  0  0  0  0  0  0  0
   15.0598   -4.8700    0.0000 H   0  0  0  0  0  0  0  0  0  0  0  0
   14.2628   -4.8700    0.0000 H   0  0  0  0  0  0  0  0  0  0  0  0
    3.7320   -2.6550    0.0000 H   0  0  0  0  0  0  0  0  0  0  0  0
    4.2690   -1.7250    0.0000 H   0  0  0  0  0  0  0  0  0  0  0  0
    4.0569   -3.7624    0.0000 H   0  0  0  0  0  0  0  0  0  0  0  0
    3.6584   -4.4527    0.0000 H   0  0  0  0  0  0  0  0  0  0  0  0
    4.4810   -5.9276    0.0000 H   0  0  0  0  0  0  0  0  0  0  0  0
    4.8796   -5.2373    0.0000 H   0  0  0  0  0  0  0  0  0  0  0  0
   19.5284   -2.5350    0.0000 H   0  0  0  0  0  0  0  0  0  0  0  0
   18.9914   -3.4650    0.0000 H   0  0  0  0  0  0  0  0  0  0  0  0
   18.6623   -1.0350    0.0000 H   0  0  0  0  0  0  0  0  0  0  0  0
   17.5885   -1.0350    0.0000 H   0  0  0  0  0  0  0  0  0  0  0  0
    8.9282    7.9650    0.0000 H   0  0  0  0  0  0  0  0  0  0  0  0
   10.0021    7.9650    0.0000 H   0  0  0  0  0  0  0  0  0  0  0  0
    8.0622    6.4650    0.0000 H   0  0  0  0  0  0  0  0  0  0  0  0
    8.5991    5.5350    0.0000 H   0  0  0  0  0  0  0  0  0  0  0  0
   17.2594   -6.4650    0.0000 H   0  0  0  0  0  0  0  0  0  0  0  0
   17.7963   -5.5350    0.0000 H   0  0  0  0  0  0  0  0  0  0  0  0
   16.9303   -4.0350    0.0000 H   0  0  0  0  0  0  0  0  0  0  0  0
   15.8564   -4.0350    0.0000 H   0  0  0  0  0  0  0  0  0  0  0  0
    2.5369   -7.9650    0.0000 H   0  0  0  0  0  0  0  0  0  0  0  0
    2.0000   -7.0350    0.0000 H   0  0  0  0  0  0  0  0  0  0  0  0
    4.2690   -7.9650    0.0000 H   0  0  0  0  0  0  0  0  0  0  0  0
    4.8059   -7.0350    0.0000 H   0  0  0  0  0  0  0  0  0  0  0  0
 31  1  1  1  0  0  0
 37  1  1  6  0  0  0
  2 37  1  0  0  0  0
  2 41  1  0  0  0  0
 34  3  1  6  0  0  0
  3 81  1  0  0  0  0
 36  4  1  1  0  0  0
  4 82  1  0  0  0  0
 39  5  1  1  0  0  0
  5 87  1  0  0  0  0
 40  6  1  6  0  0  0
  6 89  1  0  0  0  0
  7 43  2  0  0  0  0
  8 44  2  0  0  0  0
  9 47  2  0  0  0  0
 10 53  2  0  0  0  0
 32 11  1  6  0  0  0
 11 43  1  0  0  0  0
 11 77  1  0  0  0  0
 33 12  1  6  0  0  0
 12 44  1  0  0  0  0
 12 80  1  0  0  0  0
 38 13  1  6  0  0  0
 13 47  1  0  0  0  0
 13 83  1  0  0  0  0
 14 42  1  0  0  0  0
 14 53  1  0  0  0  0
 14 90  1  0  0  0  0
 45 15  1  1  0  0  0
 15 96  1  0  0  0  0
 15 97  1  0  0  0  0
 46 16  1  6  0  0  0
 16102  1  0  0  0  0
 16103  1  0  0  0  0
 49 17  1  6  0  0  0
 17107  1  0  0  0  0
 17108  1  0  0  0  0
 55 18  1  6  0  0  0
 18119  1  0  0  0  0
 18120  1  0  0  0  0
 19 57  1  0  0  0  0
 19 63  2  0  0  0  0
 20 58  1  0  0  0  0
 20 64  2  0  0  0  0
 21 60  1  0  0  0  0
 21 65  2  0  0  0  0
 22 62  1  0  0  0  0
 22 66  2  0  0  0  0
 23 63  1  0  0  0  0
 23125  1  0  0  0  0
 23126  1  0  0  0  0
 24 63  1  0  0  0  0
 24127  1  0  0  0  0
 24128  1  0  0  0  0
 25 64  1  0  0  0  0
 25129  1  0  0  0  0
 25130  1  0  0  0  0
 26 64  1  0  0  0  0
 26131  1  0  0  0  0
 26132  1  0  0  0  0
 27 65  1  0  0  0  0
 27133  1  0  0  0  0
 27134  1  0  0  0  0
 28 65  1  0  0  0  0
 28135  1  0  0  0  0
 28136  1  0  0  0  0
 29 66  1  0  0  0  0
 29137  1  0  0  0  0
 29138  1  0  0  0  0
 30 66  1  0  0  0  0
 30139  1  0  0  0  0
 30140  1  0  0  0  0
 31 32  1  0  0  0  0
 31 34  1  0  0  0  0
 31 67  1  0  0  0  0
 32 35  1  0  0  0  0
 32 68  1  0  0  0  0
 33 35  1  0  0  0  0
 33 36  1  0  0  0  0
 33 69  1  0  0  0  0
 34 36  1  0  0  0  0
 34 70  1  0  0  0  0
 35 71  1  0  0  0  0
 35 72  1  0  0  0  0
 36 73  1  0  0  0  0
 37 38  1  0  0  0  0
 37 74  1  0  0  0  0
 38 39  1  0  0  0  0
 38 75  1  0  0  0  0
 39 40  1  0  0  0  0
 39 76  1  0  0  0  0
 40 41  1  0  0  0  0
 40 78  1  0  0  0  0
 41 42  1  1  0  0  0
 41 79  1  0  0  0  0
 42 84  1  0  0  0  0
 42 85  1  0  0  0  0
 43 45  1  0  0  0  0
 44 46  1  0  0  0  0
 45 48  1  0  0  0  0
 45 86  1  0  0  0  0
 46 50  1  0  0  0  0
 46 88  1  0  0  0  0
 47 49  1  0  0  0  0
 48 51  1  0  0  0  0
 48 91  1  0  0  0  0
 48 92  1  0  0  0  0
 49 52  1  0  0  0  0
 49 93  1  0  0  0  0
 50 54  1  0  0  0  0
 50 94  1  0  0  0  0
 50 95  1  0  0  0  0
 51 57  1  0  0  0  0
 51 98  1  0  0  0  0
 51 99  1  0  0  0  0
 52 56  1  0  0  0  0
 52100  1  0  0  0  0
 52101  1  0  0  0  0
 53 55  1  0  0  0  0
 54 58  1  0  0  0  0
 54104  1  0  0  0  0
 54105  1  0  0  0  0
 55 59  1  0  0  0  0
 55106  1  0  0  0  0
 56 60  1  0  0  0  0
 56109  1  0  0  0  0
 56110  1  0  0  0  0
 57111  1  0  0  0  0
 57112  1  0  0  0  0
 58113  1  0  0  0  0
 58114  1  0  0  0  0
 59 61  1  0  0  0  0
 59115  1  0  0  0  0
 59116  1  0  0  0  0
 60117  1  0  0  0  0
 60118  1  0  0  0  0
 61 62  1  0  0  0  0
 61121  1  0  0  0  0
 61122  1  0  0  0  0
 62123  1  0  0  0  0
 62124  1  0  0  0  0
M  END
> <PUBCHEM_COMPOUND_CID>
514196
> <PUBCHEM_COMPOUND_CANONICALIZED>
1
> <PUBCHEM_CACTVS_COMPLEXITY>
1660
> <PUBCHEM_CACTVS_HBOND_ACCEPTOR>
18
> <PUBCHEM_CACTVS_HBOND_DONOR>
20
> <PUBCHEM_CACTVS_ROTATABLE_BOND>
27
> <PUBCHEM_CACTVS_SUBSKEYS>
AAADcfB//AAAAAAAAAAAAAAAAAAAAAAAAAA0QAAAAAAAAAAAAAAAHgAQCAAACDzxgAcBCALABgAoAAEQNAAAAAEAAAAAAIGIAAATUBIAwAA3QAAHFgCXAAH4cQ8AAAAAAAAAAAAAgAAUCACgAAAAAAAAAA==
> <PUBCHEM_IUPAC_OPENEYE_NAME>
(2S)-2-amino-N-[[(2R,3S,4R,5R,6R)-5-[[(2S)-2-amino-5-guanidino-pentanoyl]amino]-6-[(1R,2R,3S,4R,6S)-4,6-bis[[(2S)-2-amino-5-guanidino-pentanoyl]amino]-2,3-dihydroxy-cyclohexoxy]-3,4-dihydroxy-tetrahydropyran-2-yl]methyl]-5-guanidino-pentanamide
> <PUBCHEM_IUPAC_CAS_NAME>
(2S)-2-amino-N-[[(2R,3S,4R,5R,6R)-5-[[(2S)-2-amino-5-(diaminomethylideneamino)-1-oxopentyl]amino]-6-[(1R,2R,3S,4R,6S)-4,6-bis[[(2S)-2-amino-5-(diaminomethylideneamino)-1-oxopentyl]amino]-2,3-dihydroxycyclohexyl]oxy-3,4-dihydroxy-2-oxanyl]methyl]-5-(diaminomethylideneamino)pentanamide
> <PUBCHEM_IUPAC_NAME_MARKUP>
(2<I>S</I>)-2-amino-<I>N</I>-[[(2<I>R</I>,3<I>S</I>,4<I>R</I>,5<I>R</I>,6<I>R</I>)-5-[[(2<I>S</I>)-2-amino-5-(diaminomethylideneamino)pentanoyl]amino]-6-[(1<I>R</I>,2<I>R</I>,3<I>S</I>,4<I>R</I>,6<I>S</I>)-4,6-bis[[(2<I>S</I>)-2-amino-5-(diaminomethylideneamino)pentanoyl]amino]-2,3-dihydroxycyclohexyl]oxy-3,4-dihydroxyoxan-2-yl]methyl]-5-(diaminomethylideneamino)pentanamide
> <PUBCHEM_IUPAC_NAME>
(2S)-2-amino-N-[[(2R,3S,4R,5R,6R)-5-[[(2S)-2-amino-5-(diaminomethylideneamino)pentanoyl]amino]-6-[(1R,2R,3S,4R,6S)-4,6-bis[[(2S)-2-amino-5-(diaminomethylideneamino)pentanoyl]amino]-2,3-dihydroxycyclohexyl]oxy-3,4-dihydroxyoxan-2-yl]methyl]-5-(diaminomethylideneamino)pentanamide
> <PUBCHEM_IUPAC_SYSTEMATIC_NAME>
(2S)-2-azanyl-N-[[(2R,3S,4R,5R,6R)-5-[[(2S)-2-azanyl-5-[bis(azanyl)methylideneamino]pentanoyl]amino]-6-[(1R,2R,3S,4R,6S)-4,6-bis[[(2S)-2-azanyl-5-[bis(azanyl)methylideneamino]pentanoyl]amino]-2,3-bis(oxidanyl)cyclohexyl]oxy-3,4-bis(oxidanyl)oxan-2-yl]methyl]-5-[bis(azanyl)methylideneamino]pentanamide
> <PUBCHEM_IUPAC_TRADITIONAL_NAME>
(2S)-2-amino-N-[[(2R,3S,4R,5R,6R)-5-[[(2S)-2-amino-5-guanidino-pentanoyl]amino]-6-[(1R,2R,3S,4R,6S)-4,6-bis[[(2S)-2-amino-5-guanidino-pentanoyl]amino]-2,3-dihydroxy-cyclohexoxy]-3,4-dihydroxy-tetrahydropyran-2-yl]methyl]-5-guanidino-valeramide
> <PUBCHEM_IUPAC_INCHI>
InChI=1S/C36H74N20O10/c37-15(5-1-9-49-33(41)42)28(61)53-14-21-24(58)25(59)22(56-31(64)18(40)8-4-12-52-36(47)48)32(65-21)66-27-20(55-30(63)17(39)7-3-11-51-35(45)46)13-19(23(57)26(27)60)54-29(62)16(38)6-2-10-50-34(43)44/h15-27,32,57-60H,1-14,37-40H2,(H,53,61)(H,54,62)(H,55,63)(H,56,64)(H4,41,42,49)(H4,43,44,50)(H4,45,46,51)(H4,47,48,52)/t15-,16-,17-,18-,19+,20-,21+,22+,23-,24+,25+,26+,27+,32+/m0/s1
> <PUBCHEM_IUPAC_INCHIKEY>
BDWHRAVDZUWWEU-FICBVRPDSA-N
> <PUBCHEM_XLOGP3_AA>
-11.2
> <PUBCHEM_EXACT_MASS>
946.58967864
> <PUBCHEM_MOLECULAR_FORMULA>
C36H74N20O10
> <PUBCHEM_MOLECULAR_WEIGHT>
947.1
> <PUBCHEM_OPENEYE_CAN_SMILES>
C1C(C(C(C(C1NC(=O)C(CCCN=C(N)N)N)OC2C(C(C(C(O2)CNC(=O)C(CCCN=C(N)N)N)O)O)NC(=O)C(CCCN=C(N)N)N)O)O)NC(=O)C(CCCN=C(N)N)N
> <PUBCHEM_OPENEYE_ISO_SMILES>
C1[C@H]([C@@H]([C@H]([C@@H]([C@H]1NC(=O)[C@H](CCCN=C(N)N)N)O[C@@H]2[C@@H]([C@H]([C@@H]([C@H](O2)CNC(=O)[C@H](CCCN=C(N)N)N)O)O)NC(=O)[C@H](CCCN=C(N)N)N)O)O)NC(=O)[C@H](CCCN=C(N)N)N
> <PUBCHEM_CACTVS_TPSA>
578
> <PUBCHEM_MONOISOTOPIC_WEIGHT>
946.58967864
> <PUBCHEM_TOTAL_CHARGE>
0
> <PUBCHEM_HEAVY_ATOM_COUNT>
66
> <PUBCHEM_ATOM_DEF_STEREO_COUNT>
14
> <PUBCHEM_ATOM_UDEF_STEREO_COUNT>
0
> <PUBCHEM_BOND_DEF_STEREO_COUNT>
0
> <PUBCHEM_BOND_UDEF_STEREO_COUNT>
0
> <PUBCHEM_ISOTOPIC_ATOM_COUNT>
0
> <PUBCHEM_COMPONENT_COUNT>
1
> <PUBCHEM_CACTVS_TAUTO_COUNT>
-1
> <PUBCHEM_COORDINATE_TYPE>
1
5
255
> <PUBCHEM_BONDANNOTATIONS>
31  1  5
37  1  6
32  11  6
33  12  6
38  13  6
45  15  5
46  16  6
49  17  6
55  18  6
34  3  6
36  4  5
41  42  5
39  5  5
40  6  6
$$$$
