514155
  -OEChem-10302200282D
 48 49  0     1  0  0  0  0  0999 V2000
    6.8671   -1.7883    0.0000 S   0  0  0  0  0  0  0  0  0  0  0  0
    5.1350    1.2117    0.0000 S   0  0  0  0  0  0  0  0  0  0  0  0
   11.5683    4.2804    0.0000 O   0  0  0  0  0  0  0  0  0  0  0  0
    6.8671   -3.7883    0.0000 O   0  0  0  0  0  0  0  0  0  0  0  0
    3.4030    2.2117    0.0000 O   0  0  0  0  0  0  0  0  0  0  0  0
    8.6793    1.0164    0.0000 N   0  0  0  0  0  0  0  0  0  0  0  0
    8.6793   -0.5930    0.0000 N   0  0  0  0  0  0  0  0  0  0  0  0
    6.8671    1.2117    0.0000 N   0  0  0  0  0  0  0  0  0  0  0  0
    6.0010   -0.2883    0.0000 N   0  0  0  0  0  0  0  0  0  0  0  0
    5.1350   -3.7883    0.0000 N   0  0  0  0  0  0  0  0  0  0  0  0
    2.5369    0.7117    0.0000 N   0  0  0  0  0  0  0  0  0  0  0  0
    8.9900    1.9670    0.0000 C   0  0  0  0  0  0  0  0  0  0  0  0
    9.9685    2.1732    0.0000 C   0  0  0  0  0  0  0  0  0  0  0  0
    7.7331    0.7117    0.0000 C   0  0  0  0  0  0  0  0  0  0  0  0
   10.2791    3.1237    0.0000 C   0  0  0  0  0  0  0  0  0  0  0  0
    7.7331   -0.2883    0.0000 C   0  0  0  0  0  0  0  0  0  0  0  0
    9.2629    0.2117    0.0000 C   0  0  0  0  0  0  0  0  0  0  0  0
    6.8671   -0.7883    0.0000 C   0  0  0  0  0  0  0  0  0  0  0  0
   11.2576    3.3299    0.0000 C   0  0  0  0  0  0  0  0  0  0  0  0
    6.0010    0.7117    0.0000 C   0  0  0  0  0  0  0  0  0  0  0  0
    6.0010   -2.2883    0.0000 C   0  0  3  0  0  0  0  0  0  0  0  0
    4.2690    0.7117    0.0000 C   0  0  3  0  0  0  0  0  0  0  0  0
    5.1350   -1.7883    0.0000 C   0  0  0  0  0  0  0  0  0  0  0  0
    6.0010   -3.2883    0.0000 C   0  0  0  0  0  0  0  0  0  0  0  0
    4.2690   -0.2883    0.0000 C   0  0  0  0  0  0  0  0  0  0  0  0
    3.4030    1.2117    0.0000 C   0  0  0  0  0  0  0  0  0  0  0  0
    8.9694    2.5866    0.0000 H   0  0  0  0  0  0  0  0  0  0  0  0
    8.3762    2.0543    0.0000 H   0  0  0  0  0  0  0  0  0  0  0  0
    9.9890    1.5535    0.0000 H   0  0  0  0  0  0  0  0  0  0  0  0
   10.5823    2.0858    0.0000 H   0  0  0  0  0  0  0  0  0  0  0  0
   10.2586    3.7434    0.0000 H   0  0  0  0  0  0  0  0  0  0  0  0
    9.6653    3.2110    0.0000 H   0  0  0  0  0  0  0  0  0  0  0  0
    9.8829    0.2117    0.0000 H   0  0  0  0  0  0  0  0  0  0  0  0
   11.2782    2.7103    0.0000 H   0  0  0  0  0  0  0  0  0  0  0  0
   11.8715    3.2426    0.0000 H   0  0  0  0  0  0  0  0  0  0  0  0
    6.0010   -1.6683    0.0000 H   0  0  0  0  0  0  0  0  0  0  0  0
    4.8059    0.4017    0.0000 H   0  0  0  0  0  0  0  0  0  0  0  0
    5.4450   -1.2514    0.0000 H   0  0  0  0  0  0  0  0  0  0  0  0
    4.5981   -1.4783    0.0000 H   0  0  0  0  0  0  0  0  0  0  0  0
    4.8250   -2.3252    0.0000 H   0  0  0  0  0  0  0  0  0  0  0  0
   12.1750    4.4083    0.0000 H   0  0  0  0  0  0  0  0  0  0  0  0
    3.6490   -0.2883    0.0000 H   0  0  0  0  0  0  0  0  0  0  0  0
    4.2690   -0.9083    0.0000 H   0  0  0  0  0  0  0  0  0  0  0  0
    4.8890   -0.2883    0.0000 H   0  0  0  0  0  0  0  0  0  0  0  0
    5.1350   -4.4083    0.0000 H   0  0  0  0  0  0  0  0  0  0  0  0
    4.5981   -3.4783    0.0000 H   0  0  0  0  0  0  0  0  0  0  0  0
    2.0000    1.0217    0.0000 H   0  0  0  0  0  0  0  0  0  0  0  0
    2.5369    0.0917    0.0000 H   0  0  0  0  0  0  0  0  0  0  0  0
  1 18  1  0  0  0  0
  1 21  1  0  0  0  0
  2 20  1  0  0  0  0
  2 22  1  0  0  0  0
  3 19  1  0  0  0  0
  3 41  1  0  0  0  0
  4 24  2  0  0  0  0
  5 26  2  0  0  0  0
  6 12  1  0  0  0  0
  6 14  1  0  0  0  0
  6 17  1  0  0  0  0
  7 16  1  0  0  0  0
  7 17  2  0  0  0  0
  8 14  1  0  0  0  0
  8 20  2  0  0  0  0
  9 18  2  0  0  0  0
  9 20  1  0  0  0  0
 10 24  1  0  0  0  0
 10 45  1  0  0  0  0
 10 46  1  0  0  0  0
 11 26  1  0  0  0  0
 11 47  1  0  0  0  0
 11 48  1  0  0  0  0
 12 13  1  0  0  0  0
 12 27  1  0  0  0  0
 12 28  1  0  0  0  0
 13 15  1  0  0  0  0
 13 29  1  0  0  0  0
 13 30  1  0  0  0  0
 14 16  2  0  0  0  0
 15 19  1  0  0  0  0
 15 31  1  0  0  0  0
 15 32  1  0  0  0  0
 16 18  1  0  0  0  0
 17 33  1  0  0  0  0
 19 34  1  0  0  0  0
 19 35  1  0  0  0  0
 21 23  1  0  0  0  0
 21 24  1  0  0  0  0
 21 36  1  0  0  0  0
 22 25  1  0  0  0  0
 22 26  1  0  0  0  0
 22 37  1  0  0  0  0
 23 38  1  0  0  0  0
 23 39  1  0  0  0  0
 23 40  1  0  0  0  0
 25 42  1  0  0  0  0
 25 43  1  0  0  0  0
 25 44  1  0  0  0  0
M  END
> <PUBCHEM_COMPOUND_CID>
514155
> <PUBCHEM_COMPOUND_CANONICALIZED>
1
> <PUBCHEM_CACTVS_COMPLEXITY>
500
> <PUBCHEM_CACTVS_HBOND_ACCEPTOR>
8
> <PUBCHEM_CACTVS_HBOND_DONOR>
3
> <PUBCHEM_CACTVS_ROTATABLE_BOND>
10
> <PUBCHEM_CACTVS_SUBSKEYS>
AAADceBzsABgAAAAAAAAAAAAAAAAAWAAAAAsAAAAAAAAAFgB+AAAHgQQCAAACAjl1waH8b9MEgioAQdxdACA0C1RGLABUDUoVBCAWABgyEAURAwMEALgACAgAAAAAAAAAAAAAAAAAAAAAAAAAAAAAAAAAA==
> <PUBCHEM_IUPAC_OPENEYE_NAME>
2-[2-(2-amino-1-methyl-2-oxo-ethyl)sulfanyl-9-(4-hydroxybutyl)purin-6-yl]sulfanylpropanamide
> <PUBCHEM_IUPAC_CAS_NAME>
2-[[2-[(1-amino-1-oxopropan-2-yl)thio]-9-(4-hydroxybutyl)-6-purinyl]thio]propanamide
> <PUBCHEM_IUPAC_NAME_MARKUP>
2-[2-(1-amino-1-oxopropan-2-yl)sulfanyl-9-(4-hydroxybutyl)purin-6-yl]sulfanylpropanamide
> <PUBCHEM_IUPAC_NAME>
2-[2-(1-amino-1-oxopropan-2-yl)sulfanyl-9-(4-hydroxybutyl)purin-6-yl]sulfanylpropanamide
> <PUBCHEM_IUPAC_SYSTEMATIC_NAME>
2-[2-(1-azanyl-1-oxidanylidene-propan-2-yl)sulfanyl-9-(4-oxidanylbutyl)purin-6-yl]sulfanylpropanamide
> <PUBCHEM_IUPAC_TRADITIONAL_NAME>
2-[[2-[(2-amino-2-keto-1-methyl-ethyl)thio]-9-(4-hydroxybutyl)purin-6-yl]thio]propionamide
> <PUBCHEM_IUPAC_INCHI>
InChI=1S/C15H22N6O3S2/c1-8(11(16)23)25-14-10-13(21(7-18-10)5-3-4-6-22)19-15(20-14)26-9(2)12(17)24/h7-9,22H,3-6H2,1-2H3,(H2,16,23)(H2,17,24)
> <PUBCHEM_IUPAC_INCHIKEY>
OVXLPODCXYACJA-UHFFFAOYSA-N
> <PUBCHEM_XLOGP3_AA>
0.4
> <PUBCHEM_EXACT_MASS>
398.11948093
> <PUBCHEM_MOLECULAR_FORMULA>
C15H22N6O3S2
> <PUBCHEM_MOLECULAR_WEIGHT>
398.5
> <PUBCHEM_OPENEYE_CAN_SMILES>
CC(C(=O)N)SC1=NC(=NC2=C1N=CN2CCCCO)SC(C)C(=O)N
> <PUBCHEM_OPENEYE_ISO_SMILES>
CC(C(=O)N)SC1=NC(=NC2=C1N=CN2CCCCO)SC(C)C(=O)N
> <PUBCHEM_CACTVS_TPSA>
201
> <PUBCHEM_MONOISOTOPIC_WEIGHT>
398.11948093
> <PUBCHEM_TOTAL_CHARGE>
0
> <PUBCHEM_HEAVY_ATOM_COUNT>
26
> <PUBCHEM_ATOM_DEF_STEREO_COUNT>
0
> <PUBCHEM_ATOM_UDEF_STEREO_COUNT>
2
> <PUBCHEM_BOND_DEF_STEREO_COUNT>
0
> <PUBCHEM_BOND_UDEF_STEREO_COUNT>
0
> <PUBCHEM_ISOTOPIC_ATOM_COUNT>
0
> <PUBCHEM_COMPONENT_COUNT>
1
> <PUBCHEM_CACTVS_TAUTO_COUNT>
-1
> <PUBCHEM_COORDINATE_TYPE>
1
5
255
> <PUBCHEM_BONDANNOTATIONS>
14  16  8
16  18  8
21  23  3
22  25  3
6  14  8
6  17  8
7  16  8
7  17  8
8  14  8
8  20  8
9  18  8
9  20  8
$$$$
