514139
  -OEChem-10302200282D
 84 87  0     1  0  0  0  0  0999 V2000
    3.0000   -4.0668    0.0000 S   0  0  0  0  0  0  0  0  0  0  0  0
   11.9215    2.6037    0.0000 S   0  0  0  0  0  0  0  0  0  0  0  0
    3.0038   -3.0668    0.0000 O   0  0  0  0  0  0  0  0  0  0  0  0
    3.0200   -0.9752    0.0000 O   0  0  0  0  0  0  0  0  0  0  0  0
   10.9430    2.3975    0.0000 O   0  0  0  0  0  0  0  0  0  0  0  0
    2.9961   -5.0668    0.0000 O   0  0  0  0  0  0  0  0  0  0  0  0
    2.0000   -4.0630    0.0000 O   0  0  0  0  0  0  0  0  0  0  0  0
    4.0000   -4.0707    0.0000 O   0  0  0  0  0  0  0  0  0  0  0  0
   12.9000    2.8100    0.0000 O   0  0  0  0  0  0  0  0  0  0  0  0
   11.7153    3.5822    0.0000 O   0  0  0  0  0  0  0  0  0  0  0  0
   12.1277    1.6252    0.0000 O   0  0  0  0  0  0  0  0  0  0  0  0
    8.3969   -0.0145    0.0000 C   0  0  3  0  0  0  0  0  0  0  0  0
    8.3969   -1.0145    0.0000 C   0  0  3  0  0  0  0  0  0  0  0  0
    7.5309   -1.5145    0.0000 C   0  0  3  0  0  0  0  0  0  0  0  0
    6.6649   -1.0145    0.0000 C   0  0  3  0  0  0  0  0  0  0  0  0
    5.7549   -1.5213    0.0000 C   0  0  3  0  0  0  0  0  0  0  0  0
    9.3432    0.2903    0.0000 C   0  0  3  0  0  0  0  0  0  0  0  0
    5.7468   -2.5629    0.0000 C   0  0  1  0  0  0  0  0  0  0  0  0
    7.5309    0.4855    0.0000 C   0  0  0  0  0  0  0  0  0  0  0  0
    6.6649   -0.0145    0.0000 C   0  0  0  0  0  0  0  0  0  0  0  0
    9.3432   -1.3192    0.0000 C   0  0  0  0  0  0  0  0  0  0  0  0
    7.5470   -2.5560    0.0000 C   0  0  0  0  0  0  0  0  0  0  0  0
    9.9268   -0.5145    0.0000 C   0  0  0  0  0  0  0  0  0  0  0  0
    6.6489   -3.0837    0.0000 C   0  0  0  0  0  0  0  0  0  0  0  0
    4.8280   -0.9572    0.0000 C   0  0  0  0  0  0  0  0  0  0  0  0
    8.3969    0.9855    0.0000 C   0  0  0  0  0  0  0  0  0  0  0  0
    9.6538    1.2408    0.0000 C   0  0  1  0  0  0  0  0  0  0  0  0
    4.8114   -3.1126    0.0000 C   0  0  0  0  0  0  0  0  0  0  0  0
    5.7626   -0.5214    0.0000 C   0  0  0  0  0  0  0  0  0  0  0  0
    3.8802   -1.4852    0.0000 C   0  0  1  0  0  0  0  0  0  0  0  0
    3.8718   -2.5702    0.0000 C   0  0  1  0  0  0  0  0  0  0  0  0
    8.9860    1.9851    0.0000 C   0  0  0  0  0  0  0  0  0  0  0  0
   10.6323    1.4470    0.0000 C   0  0  0  0  0  0  0  0  0  0  0  0
    9.2966    2.9356    0.0000 C   0  0  0  0  0  0  0  0  0  0  0  0
    8.6288    3.6799    0.0000 C   0  0  0  0  0  0  0  0  0  0  0  0
    8.9395    4.6304    0.0000 C   0  0  0  0  0  0  0  0  0  0  0  0
    8.2716    5.3747    0.0000 C   0  0  0  0  0  0  0  0  0  0  0  0
    9.9180    4.8366    0.0000 C   0  0  0  0  0  0  0  0  0  0  0  0
    8.4625   -1.6310    0.0000 H   0  0  0  0  0  0  0  0  0  0  0  0
    8.0702   -1.8203    0.0000 H   0  0  0  0  0  0  0  0  0  0  0  0
    7.2018   -0.7045    0.0000 H   0  0  0  0  0  0  0  0  0  0  0  0
    9.9556    0.3864    0.0000 H   0  0  0  0  0  0  0  0  0  0  0  0
    5.7501   -3.4129    0.0000 H   0  0  0  0  0  0  0  0  0  0  0  0
    7.9294    0.9605    0.0000 H   0  0  0  0  0  0  0  0  0  0  0  0
    7.1324    0.9605    0.0000 H   0  0  0  0  0  0  0  0  0  0  0  0
    6.4528    0.5681    0.0000 H   0  0  0  0  0  0  0  0  0  0  0  0
    6.0543   -0.1221    0.0000 H   0  0  0  0  0  0  0  0  0  0  0  0
    9.0921   -1.8861    0.0000 H   0  0  0  0  0  0  0  0  0  0  0  0
    9.8805   -1.6284    0.0000 H   0  0  0  0  0  0  0  0  0  0  0  0
    7.7650   -3.1364    0.0000 H   0  0  0  0  0  0  0  0  0  0  0  0
    8.1561   -2.4405    0.0000 H   0  0  0  0  0  0  0  0  0  0  0  0
   10.3876   -0.9292    0.0000 H   0  0  0  0  0  0  0  0  0  0  0  0
   10.3876   -0.0997    0.0000 H   0  0  0  0  0  0  0  0  0  0  0  0
    6.2516   -3.5597    0.0000 H   0  0  0  0  0  0  0  0  0  0  0  0
    7.0499   -3.5566    0.0000 H   0  0  0  0  0  0  0  0  0  0  0  0
    5.2362   -0.4906    0.0000 H   0  0  0  0  0  0  0  0  0  0  0  0
    4.4381   -0.4752    0.0000 H   0  0  0  0  0  0  0  0  0  0  0  0
    9.0169    0.9855    0.0000 H   0  0  0  0  0  0  0  0  0  0  0  0
    8.3969    1.6055    0.0000 H   0  0  0  0  0  0  0  0  0  0  0  0
    7.7769    0.9855    0.0000 H   0  0  0  0  0  0  0  0  0  0  0  0
    9.8464    1.8301    0.0000 H   0  0  0  0  0  0  0  0  0  0  0  0
    4.4141   -3.5886    0.0000 H   0  0  0  0  0  0  0  0  0  0  0  0
    5.2124   -3.5855    0.0000 H   0  0  0  0  0  0  0  0  0  0  0  0
    6.3826   -0.5261    0.0000 H   0  0  0  0  0  0  0  0  0  0  0  0
    5.7674    0.0986    0.0000 H   0  0  0  0  0  0  0  0  0  0  0  0
    5.1426   -0.5166    0.0000 H   0  0  0  0  0  0  0  0  0  0  0  0
    3.8885   -0.8652    0.0000 H   0  0  0  0  0  0  0  0  0  0  0  0
    3.3367   -2.2570    0.0000 H   0  0  0  0  0  0  0  0  0  0  0  0
    8.4390    2.2771    0.0000 H   0  0  0  0  0  0  0  0  0  0  0  0
    8.6034    1.4972    0.0000 H   0  0  0  0  0  0  0  0  0  0  0  0
   10.6529    0.8273    0.0000 H   0  0  0  0  0  0  0  0  0  0  0  0
   11.2461    1.3596    0.0000 H   0  0  0  0  0  0  0  0  0  0  0  0
    3.0271   -0.3552    0.0000 H   0  0  0  0  0  0  0  0  0  0  0  0
    9.8436    2.6436    0.0000 H   0  0  0  0  0  0  0  0  0  0  0  0
    9.6792    3.4235    0.0000 H   0  0  0  0  0  0  0  0  0  0  0  0
    8.0221    3.5520    0.0000 H   0  0  0  0  0  0  0  0  0  0  0  0
    2.4580   -5.3747    0.0000 H   0  0  0  0  0  0  0  0  0  0  0  0
   13.0926    3.3993    0.0000 H   0  0  0  0  0  0  0  0  0  0  0  0
    8.7331    5.7888    0.0000 H   0  0  0  0  0  0  0  0  0  0  0  0
    7.8575    5.8362    0.0000 H   0  0  0  0  0  0  0  0  0  0  0  0
    7.8101    4.9607    0.0000 H   0  0  0  0  0  0  0  0  0  0  0  0
   10.0458    4.2300    0.0000 H   0  0  0  0  0  0  0  0  0  0  0  0
   10.5246    4.9645    0.0000 H   0  0  0  0  0  0  0  0  0  0  0  0
    9.7901    5.4433    0.0000 H   0  0  0  0  0  0  0  0  0  0  0  0
  1  3  1  0  0  0  0
  1  6  1  0  0  0  0
  1  7  2  0  0  0  0
  1  8  2  0  0  0  0
  2  5  1  0  0  0  0
  2  9  1  0  0  0  0
  2 10  2  0  0  0  0
  2 11  2  0  0  0  0
 31  3  1  6  0  0  0
 30  4  1  1  0  0  0
  4 73  1  0  0  0  0
  5 33  1  0  0  0  0
  6 77  1  0  0  0  0
  9 78  1  0  0  0  0
 12 13  1  0  0  0  0
 12 17  1  0  0  0  0
 12 19  1  0  0  0  0
 12 26  1  0  0  0  0
 13 14  1  0  0  0  0
 13 21  1  0  0  0  0
 13 39  1  0  0  0  0
 14 15  1  0  0  0  0
 14 22  1  0  0  0  0
 14 40  1  0  0  0  0
 15 16  1  0  0  0  0
 15 20  1  0  0  0  0
 15 41  1  0  0  0  0
 16 18  1  0  0  0  0
 16 25  1  0  0  0  0
 16 29  1  0  0  0  0
 17 23  1  0  0  0  0
 17 27  1  0  0  0  0
 17 42  1  0  0  0  0
 18 24  1  0  0  0  0
 18 28  1  0  0  0  0
 18 43  1  6  0  0  0
 19 20  1  0  0  0  0
 19 44  1  0  0  0  0
 19 45  1  0  0  0  0
 20 46  1  0  0  0  0
 20 47  1  0  0  0  0
 21 23  1  0  0  0  0
 21 48  1  0  0  0  0
 21 49  1  0  0  0  0
 22 24  1  0  0  0  0
 22 50  1  0  0  0  0
 22 51  1  0  0  0  0
 23 52  1  0  0  0  0
 23 53  1  0  0  0  0
 24 54  1  0  0  0  0
 24 55  1  0  0  0  0
 25 30  1  0  0  0  0
 25 56  1  0  0  0  0
 25 57  1  0  0  0  0
 26 58  1  0  0  0  0
 26 59  1  0  0  0  0
 26 60  1  0  0  0  0
 27 32  1  1  0  0  0
 27 33  1  0  0  0  0
 27 61  1  0  0  0  0
 28 31  1  0  0  0  0
 28 62  1  0  0  0  0
 28 63  1  0  0  0  0
 29 64  1  0  0  0  0
 29 65  1  0  0  0  0
 29 66  1  0  0  0  0
 30 31  1  0  0  0  0
 30 67  1  0  0  0  0
 31 68  1  0  0  0  0
 32 34  1  0  0  0  0
 32 69  1  0  0  0  0
 32 70  1  0  0  0  0
 33 71  1  0  0  0  0
 33 72  1  0  0  0  0
 34 35  1  0  0  0  0
 34 74  1  0  0  0  0
 34 75  1  0  0  0  0
 35 36  2  0  0  0  0
 35 76  1  0  0  0  0
 36 37  1  0  0  0  0
 36 38  1  0  0  0  0
 37 79  1  0  0  0  0
 37 80  1  0  0  0  0
 37 81  1  0  0  0  0
 38 82  1  0  0  0  0
 38 83  1  0  0  0  0
 38 84  1  0  0  0  0
M  END
> <PUBCHEM_COMPOUND_CID>
514139
> <PUBCHEM_COMPOUND_CANONICALIZED>
1
> <PUBCHEM_CACTVS_COMPLEXITY>
1090
> <PUBCHEM_CACTVS_HBOND_ACCEPTOR>
9
> <PUBCHEM_CACTVS_HBOND_DONOR>
3
> <PUBCHEM_CACTVS_ROTATABLE_BOND>
9
> <PUBCHEM_CACTVS_SUBSKEYS>
AAADcfB4PABgAAAAAAAAAAAAAAAAAYAAAAAwYMAAAAAAAGDAAAAAGgAACAAADxSggAICAAAAAoCAAiBCADAAAAAgAAAACAAAAAgBEAIAAQAAQAAEgAAJAAOAwPAPgAAAAAAAAADAAAYAACCAAQAACAAAAA==
> <PUBCHEM_IUPAC_OPENEYE_NAME>
[(2S,3S,5S)-2-hydroxy-10,13-dimethyl-17-[(1R)-5-methyl-1-(sulfooxymethyl)hex-4-enyl]-2,3,4,5,6,7,8,9,11,12,14,15,16,17-tetradecahydro-1H-cyclopenta[a]phenanthren-3-yl] hydrogen sulfate
> <PUBCHEM_IUPAC_CAS_NAME>
sulfuric acid [(2S,3S,5S)-2-hydroxy-10,13-dimethyl-17-[(2R)-6-methyl-1-sulfooxyhept-5-en-2-yl]-2,3,4,5,6,7,8,9,11,12,14,15,16,17-tetradecahydro-1H-cyclopenta[a]phenanthren-3-yl] ester
> <PUBCHEM_IUPAC_NAME_MARKUP>
[(2<I>S</I>,3<I>S</I>,5<I>S</I>)-2-hydroxy-10,13-dimethyl-17-[(2<I>R</I>)-6-methyl-1-sulfooxyhept-5-en-2-yl]-2,3,4,5,6,7,8,9,11,12,14,15,16,17-tetradecahydro-1<I>H</I>-cyclopenta[a]phenanthren-3-yl] hydrogen sulfate
> <PUBCHEM_IUPAC_NAME>
[(2S,3S,5S)-2-hydroxy-10,13-dimethyl-17-[(2R)-6-methyl-1-sulfooxyhept-5-en-2-yl]-2,3,4,5,6,7,8,9,11,12,14,15,16,17-tetradecahydro-1H-cyclopenta[a]phenanthren-3-yl] hydrogen sulfate
> <PUBCHEM_IUPAC_SYSTEMATIC_NAME>
[(2S,3S,5S)-10,13-dimethyl-17-[(2R)-6-methyl-1-sulfooxy-hept-5-en-2-yl]-2-oxidanyl-2,3,4,5,6,7,8,9,11,12,14,15,16,17-tetradecahydro-1H-cyclopenta[a]phenanthren-3-yl] hydrogen sulfate
> <PUBCHEM_IUPAC_TRADITIONAL_NAME>
sulfuric acid [(2S,3S,5S)-2-hydroxy-10,13-dimethyl-17-[(1R)-5-methyl-1-(sulfoxymethyl)hex-4-enyl]-2,3,4,5,6,7,8,9,11,12,14,15,16,17-tetradecahydro-1H-cyclopenta[a]phenanthren-3-yl] ester
> <PUBCHEM_IUPAC_INCHI>
InChI=1S/C27H46O9S2/c1-17(2)6-5-7-18(16-35-37(29,30)31)21-10-11-22-20-9-8-19-14-25(36-38(32,33)34)24(28)15-27(19,4)23(20)12-13-26(21,22)3/h6,18-25,28H,5,7-16H2,1-4H3,(H,29,30,31)(H,32,33,34)/t18-,19-,20?,21?,22?,23?,24-,25-,26?,27?/m0/s1
> <PUBCHEM_IUPAC_INCHIKEY>
WQJNJHSFEXYHDA-VYLFMDCESA-N
> <PUBCHEM_XLOGP3_AA>
5.8
> <PUBCHEM_EXACT_MASS>
578.25832539
> <PUBCHEM_MOLECULAR_FORMULA>
C27H46O9S2
> <PUBCHEM_MOLECULAR_WEIGHT>
578.8
> <PUBCHEM_OPENEYE_CAN_SMILES>
CC(=CCCC(COS(=O)(=O)O)C1CCC2C1(CCC3C2CCC4C3(CC(C(C4)OS(=O)(=O)O)O)C)C)C
> <PUBCHEM_OPENEYE_ISO_SMILES>
CC(=CCC[C@@H](COS(=O)(=O)O)C1CCC2C1(CCC3C2CC[C@@H]4C3(C[C@@H]([C@H](C4)OS(=O)(=O)O)O)C)C)C
> <PUBCHEM_CACTVS_TPSA>
164
> <PUBCHEM_MONOISOTOPIC_WEIGHT>
578.25832539
> <PUBCHEM_TOTAL_CHARGE>
0
> <PUBCHEM_HEAVY_ATOM_COUNT>
38
> <PUBCHEM_ATOM_DEF_STEREO_COUNT>
4
> <PUBCHEM_ATOM_UDEF_STEREO_COUNT>
6
> <PUBCHEM_BOND_DEF_STEREO_COUNT>
0
> <PUBCHEM_BOND_UDEF_STEREO_COUNT>
0
> <PUBCHEM_ISOTOPIC_ATOM_COUNT>
0
> <PUBCHEM_COMPONENT_COUNT>
1
> <PUBCHEM_CACTVS_TAUTO_COUNT>
-1
> <PUBCHEM_COORDINATE_TYPE>
1
5
255
> <PUBCHEM_BONDANNOTATIONS>
12  26  3
13  21  3
14  22  3
15  20  3
16  29  3
17  23  3
18  43  6
27  32  5
31  3  6
30  4  5
$$$$
