514138
  -OEChem-10302200282D
 74 77  0     1  0  0  0  0  0999 V2000
    2.5405   -1.2811    0.0000 O   0  0  0  0  0  0  0  0  0  0  0  0
    2.5244   -3.3727    0.0000 O   0  0  0  0  0  0  0  0  0  0  0  0
    8.8172    2.6297    0.0000 O   0  0  0  0  0  0  0  0  0  0  0  0
    7.9174   -0.3204    0.0000 C   0  0  3  0  0  0  0  0  0  0  0  0
    7.9174   -1.3204    0.0000 C   0  0  3  0  0  0  0  0  0  0  0  0
    7.0514   -1.8204    0.0000 C   0  0  3  0  0  0  0  0  0  0  0  0
    6.1854   -1.3204    0.0000 C   0  0  3  0  0  0  0  0  0  0  0  0
    8.8637   -0.0156    0.0000 C   0  0  3  0  0  0  0  0  0  0  0  0
    7.0514    0.1796    0.0000 C   0  0  0  0  0  0  0  0  0  0  0  0
    5.2754   -1.8272    0.0000 C   0  0  3  0  0  0  0  0  0  0  0  0
    8.8637   -1.6251    0.0000 C   0  0  0  0  0  0  0  0  0  0  0  0
    6.1854   -0.3204    0.0000 C   0  0  0  0  0  0  0  0  0  0  0  0
    9.4473   -0.8204    0.0000 C   0  0  0  0  0  0  0  0  0  0  0  0
    7.0675   -2.8619    0.0000 C   0  0  0  0  0  0  0  0  0  0  0  0
    9.1743    0.9349    0.0000 C   0  0  3  0  0  0  0  0  0  0  0  0
    7.9174    0.6796    0.0000 C   0  0  0  0  0  0  0  0  0  0  0  0
    5.2674   -2.8688    0.0000 C   0  0  0  0  0  0  0  0  0  0  0  0
    4.3486   -1.2631    0.0000 C   0  0  0  0  0  0  0  0  0  0  0  0
    6.1694   -3.3896    0.0000 C   0  0  0  0  0  0  0  0  0  0  0  0
    5.2831   -0.8272    0.0000 C   0  0  0  0  0  0  0  0  0  0  0  0
    4.3319   -3.4185    0.0000 C   0  0  0  0  0  0  0  0  0  0  0  0
    3.4007   -1.7911    0.0000 C   0  0  1  0  0  0  0  0  0  0  0  0
   10.1528    1.1411    0.0000 C   0  0  0  0  0  0  0  0  0  0  0  0
    3.3923   -2.8760    0.0000 C   0  0  1  0  0  0  0  0  0  0  0  0
    8.5065    1.6792    0.0000 C   0  0  0  0  0  0  0  0  0  0  0  0
   10.4635    2.0916    0.0000 C   0  0  0  0  0  0  0  0  0  0  0  0
   11.4420    2.2979    0.0000 C   0  0  0  0  0  0  0  0  0  0  0  0
   11.7527    3.2484    0.0000 C   0  0  0  0  0  0  0  0  0  0  0  0
   12.7312    3.4546    0.0000 C   0  0  0  0  0  0  0  0  0  0  0  0
   11.0848    3.9927    0.0000 C   0  0  0  0  0  0  0  0  0  0  0  0
    7.9830   -1.9369    0.0000 H   0  0  0  0  0  0  0  0  0  0  0  0
    7.5907   -2.1262    0.0000 H   0  0  0  0  0  0  0  0  0  0  0  0
    6.7223   -1.0104    0.0000 H   0  0  0  0  0  0  0  0  0  0  0  0
    9.4762    0.0806    0.0000 H   0  0  0  0  0  0  0  0  0  0  0  0
    7.4500    0.6546    0.0000 H   0  0  0  0  0  0  0  0  0  0  0  0
    6.6529    0.6546    0.0000 H   0  0  0  0  0  0  0  0  0  0  0  0
    8.6126   -2.1920    0.0000 H   0  0  0  0  0  0  0  0  0  0  0  0
    9.4010   -1.9343    0.0000 H   0  0  0  0  0  0  0  0  0  0  0  0
    5.9733    0.2623    0.0000 H   0  0  0  0  0  0  0  0  0  0  0  0
    5.5748   -0.4280    0.0000 H   0  0  0  0  0  0  0  0  0  0  0  0
    9.9081   -1.2351    0.0000 H   0  0  0  0  0  0  0  0  0  0  0  0
    9.9081   -0.4056    0.0000 H   0  0  0  0  0  0  0  0  0  0  0  0
    7.2855   -3.4423    0.0000 H   0  0  0  0  0  0  0  0  0  0  0  0
    7.6766   -2.7464    0.0000 H   0  0  0  0  0  0  0  0  0  0  0  0
    8.5676    0.8070    0.0000 H   0  0  0  0  0  0  0  0  0  0  0  0
    8.5374    0.6796    0.0000 H   0  0  0  0  0  0  0  0  0  0  0  0
    7.9174    1.2996    0.0000 H   0  0  0  0  0  0  0  0  0  0  0  0
    7.2974    0.6796    0.0000 H   0  0  0  0  0  0  0  0  0  0  0  0
    4.7568   -0.7965    0.0000 H   0  0  0  0  0  0  0  0  0  0  0  0
    3.9586   -0.7811    0.0000 H   0  0  0  0  0  0  0  0  0  0  0  0
    6.1718   -4.0096    0.0000 H   0  0  0  0  0  0  0  0  0  0  0  0
    5.9031   -0.8320    0.0000 H   0  0  0  0  0  0  0  0  0  0  0  0
    5.2879   -0.2072    0.0000 H   0  0  0  0  0  0  0  0  0  0  0  0
    4.6631   -0.8224    0.0000 H   0  0  0  0  0  0  0  0  0  0  0  0
    3.9346   -3.8945    0.0000 H   0  0  0  0  0  0  0  0  0  0  0  0
    4.7329   -3.8914    0.0000 H   0  0  0  0  0  0  0  0  0  0  0  0
    2.8608   -2.0959    0.0000 H   0  0  0  0  0  0  0  0  0  0  0  0
   10.1734    0.5215    0.0000 H   0  0  0  0  0  0  0  0  0  0  0  0
   10.7666    1.0538    0.0000 H   0  0  0  0  0  0  0  0  0  0  0  0
    2.8572   -2.5629    0.0000 H   0  0  0  0  0  0  0  0  0  0  0  0
    7.9596    1.9712    0.0000 H   0  0  0  0  0  0  0  0  0  0  0  0
    8.1239    1.1913    0.0000 H   0  0  0  0  0  0  0  0  0  0  0  0
   10.4429    2.7113    0.0000 H   0  0  0  0  0  0  0  0  0  0  0  0
    9.8497    2.1790    0.0000 H   0  0  0  0  0  0  0  0  0  0  0  0
    2.0000   -1.5849    0.0000 H   0  0  0  0  0  0  0  0  0  0  0  0
    2.5220   -3.9927    0.0000 H   0  0  0  0  0  0  0  0  0  0  0  0
    8.4031    3.0912    0.0000 H   0  0  0  0  0  0  0  0  0  0  0  0
   11.8561    1.8364    0.0000 H   0  0  0  0  0  0  0  0  0  0  0  0
   12.8590    2.8479    0.0000 H   0  0  0  0  0  0  0  0  0  0  0  0
   13.3378    3.5824    0.0000 H   0  0  0  0  0  0  0  0  0  0  0  0
   12.6033    4.0613    0.0000 H   0  0  0  0  0  0  0  0  0  0  0  0
   11.5463    4.4067    0.0000 H   0  0  0  0  0  0  0  0  0  0  0  0
   10.6708    4.4542    0.0000 H   0  0  0  0  0  0  0  0  0  0  0  0
   10.6234    3.5786    0.0000 H   0  0  0  0  0  0  0  0  0  0  0  0
 22  1  1  1  0  0  0
  1 65  1  0  0  0  0
 24  2  1  6  0  0  0
  2 66  1  0  0  0  0
  3 25  1  0  0  0  0
  3 67  1  0  0  0  0
  4  5  1  0  0  0  0
  4  8  1  0  0  0  0
  4  9  1  0  0  0  0
  4 16  1  0  0  0  0
  5  6  1  0  0  0  0
  5 11  1  0  0  0  0
  5 31  1  0  0  0  0
  6  7  1  0  0  0  0
  6 14  1  0  0  0  0
  6 32  1  0  0  0  0
  7 10  1  0  0  0  0
  7 12  1  0  0  0  0
  7 33  1  0  0  0  0
  8 13  1  0  0  0  0
  8 15  1  0  0  0  0
  8 34  1  0  0  0  0
  9 12  1  0  0  0  0
  9 35  1  0  0  0  0
  9 36  1  0  0  0  0
 10 17  1  0  0  0  0
 10 18  1  0  0  0  0
 10 20  1  0  0  0  0
 11 13  1  0  0  0  0
 11 37  1  0  0  0  0
 11 38  1  0  0  0  0
 12 39  1  0  0  0  0
 12 40  1  0  0  0  0
 13 41  1  0  0  0  0
 13 42  1  0  0  0  0
 14 19  1  0  0  0  0
 14 43  1  0  0  0  0
 14 44  1  0  0  0  0
 15 23  1  0  0  0  0
 15 25  1  0  0  0  0
 15 45  1  0  0  0  0
 16 46  1  0  0  0  0
 16 47  1  0  0  0  0
 16 48  1  0  0  0  0
 17 19  2  0  0  0  0
 17 21  1  0  0  0  0
 18 22  1  0  0  0  0
 18 49  1  0  0  0  0
 18 50  1  0  0  0  0
 19 51  1  0  0  0  0
 20 52  1  0  0  0  0
 20 53  1  0  0  0  0
 20 54  1  0  0  0  0
 21 24  1  0  0  0  0
 21 55  1  0  0  0  0
 21 56  1  0  0  0  0
 22 24  1  0  0  0  0
 22 57  1  0  0  0  0
 23 26  1  0  0  0  0
 23 58  1  0  0  0  0
 23 59  1  0  0  0  0
 24 60  1  0  0  0  0
 25 61  1  0  0  0  0
 25 62  1  0  0  0  0
 26 27  1  0  0  0  0
 26 63  1  0  0  0  0
 26 64  1  0  0  0  0
 27 28  2  0  0  0  0
 27 68  1  0  0  0  0
 28 29  1  0  0  0  0
 28 30  1  0  0  0  0
 29 69  1  0  0  0  0
 29 70  1  0  0  0  0
 29 71  1  0  0  0  0
 30 72  1  0  0  0  0
 30 73  1  0  0  0  0
 30 74  1  0  0  0  0
M  END
> <PUBCHEM_COMPOUND_CID>
514138
> <PUBCHEM_COMPOUND_CANONICALIZED>
1
> <PUBCHEM_CACTVS_COMPLEXITY>
692
> <PUBCHEM_CACTVS_HBOND_ACCEPTOR>
3
> <PUBCHEM_CACTVS_HBOND_DONOR>
3
> <PUBCHEM_CACTVS_ROTATABLE_BOND>
5
> <PUBCHEM_CACTVS_SUBSKEYS>
AAADcfB4MAAAAAAAAAAAAAAAAAAAAYAAAAAwYIAAAAAAAGCAAAAAGgAACAAADxSggAICAAAAAgCAAiBCAAAAAAAgAAAACAAAAAgBEAIAAQAAQAAEwAAJAAOAwPAPgAAAAAAAAADAAAYAACCAAQAACAAAAA==
> <PUBCHEM_IUPAC_OPENEYE_NAME>
(2S,3S)-17-[1-(hydroxymethyl)-5-methyl-hex-4-enyl]-10,13-dimethyl-2,3,4,7,8,9,11,12,14,15,16,17-dodecahydro-1H-cyclopenta[a]phenanthrene-2,3-diol
> <PUBCHEM_IUPAC_CAS_NAME>
(2S,3S)-17-(1-hydroxy-6-methylhept-5-en-2-yl)-10,13-dimethyl-2,3,4,7,8,9,11,12,14,15,16,17-dodecahydro-1H-cyclopenta[a]phenanthrene-2,3-diol
> <PUBCHEM_IUPAC_NAME_MARKUP>
(2<I>S</I>,3<I>S</I>)-17-(1-hydroxy-6-methylhept-5-en-2-yl)-10,13-dimethyl-2,3,4,7,8,9,11,12,14,15,16,17-dodecahydro-1<I>H</I>-cyclopenta[a]phenanthrene-2,3-diol
> <PUBCHEM_IUPAC_NAME>
(2S,3S)-17-(1-hydroxy-6-methylhept-5-en-2-yl)-10,13-dimethyl-2,3,4,7,8,9,11,12,14,15,16,17-dodecahydro-1H-cyclopenta[a]phenanthrene-2,3-diol
> <PUBCHEM_IUPAC_SYSTEMATIC_NAME>
(2S,3S)-10,13-dimethyl-17-(6-methyl-1-oxidanyl-hept-5-en-2-yl)-2,3,4,7,8,9,11,12,14,15,16,17-dodecahydro-1H-cyclopenta[a]phenanthrene-2,3-diol
> <PUBCHEM_IUPAC_TRADITIONAL_NAME>
(2S,3S)-10,13-dimethyl-17-(5-methyl-1-methylol-hex-4-enyl)-2,3,4,7,8,9,11,12,14,15,16,17-dodecahydro-1H-cyclopenta[a]phenanthrene-2,3-diol
> <PUBCHEM_IUPAC_INCHI>
InChI=1S/C27H44O3/c1-17(2)6-5-7-18(16-28)21-10-11-22-20-9-8-19-14-24(29)25(30)15-27(19,4)23(20)12-13-26(21,22)3/h6,8,18,20-25,28-30H,5,7,9-16H2,1-4H3/t18?,20?,21?,22?,23?,24-,25-,26?,27?/m0/s1
> <PUBCHEM_IUPAC_INCHIKEY>
LVAFGRDFKBLIFB-WOLMNOQLSA-N
> <PUBCHEM_XLOGP3_AA>
5.7
> <PUBCHEM_EXACT_MASS>
416.32904526
> <PUBCHEM_MOLECULAR_FORMULA>
C27H44O3
> <PUBCHEM_MOLECULAR_WEIGHT>
416.6
> <PUBCHEM_OPENEYE_CAN_SMILES>
CC(=CCCC(CO)C1CCC2C1(CCC3C2CC=C4C3(CC(C(C4)O)O)C)C)C
> <PUBCHEM_OPENEYE_ISO_SMILES>
CC(=CCCC(CO)C1CCC2C1(CCC3C2CC=C4C3(C[C@@H]([C@H](C4)O)O)C)C)C
> <PUBCHEM_CACTVS_TPSA>
60.7
> <PUBCHEM_MONOISOTOPIC_WEIGHT>
416.32904526
> <PUBCHEM_TOTAL_CHARGE>
0
> <PUBCHEM_HEAVY_ATOM_COUNT>
30
> <PUBCHEM_ATOM_DEF_STEREO_COUNT>
2
> <PUBCHEM_ATOM_UDEF_STEREO_COUNT>
7
> <PUBCHEM_BOND_DEF_STEREO_COUNT>
0
> <PUBCHEM_BOND_UDEF_STEREO_COUNT>
0
> <PUBCHEM_ISOTOPIC_ATOM_COUNT>
0
> <PUBCHEM_COMPONENT_COUNT>
1
> <PUBCHEM_CACTVS_TAUTO_COUNT>
-1
> <PUBCHEM_COORDINATE_TYPE>
1
5
255
> <PUBCHEM_BONDANNOTATIONS>
22  1  5
10  20  3
15  23  3
24  2  6
4  16  3
5  11  3
6  14  3
7  12  3
8  13  3
$$$$
