514172
  -OEChem-10302200282D
 30 31  0     1  0  0  0  0  0999 V2000
    5.4071   -1.1307    0.0000 O   0  0  0  0  0  0  0  0  0  0  0  0
    2.8380   -0.8216    0.0000 O   0  0  0  0  0  0  0  0  0  0  0  0
    3.5103   -2.8907    0.0000 O   0  0  0  0  0  0  0  0  0  0  0  0
    6.6804   -2.7862    0.0000 O   0  0  0  0  0  0  0  0  0  0  0  0
    6.3301    0.4571    0.0000 O   0  0  0  0  0  0  0  0  0  0  0  0
    4.5981    3.4571    0.0000 O   0  0  0  0  0  0  0  0  0  0  0  0
    4.5981    0.4571    0.0000 N   0  0  0  0  0  0  0  0  0  0  0  0
    5.4641    1.9571    0.0000 N   0  0  0  0  0  0  0  0  0  0  0  0
    2.0000    2.9571    0.0000 N   0  0  0  0  0  0  0  0  0  0  0  0
    3.7891   -1.1307    0.0000 C   0  0  2  0  0  0  0  0  0  0  0  0
    4.0981   -2.0817    0.0000 C   0  0  1  0  0  0  0  0  0  0  0  0
    4.5981   -0.5429    0.0000 C   0  0  3  0  0  0  0  0  0  0  0  0
    5.0981   -2.0817    0.0000 C   0  0  1  0  0  0  0  0  0  0  0  0
    5.6859   -2.8907    0.0000 C   0  0  0  0  0  0  0  0  0  0  0  0
    3.7320    0.9571    0.0000 C   0  0  0  0  0  0  0  0  0  0  0  0
    5.4641    0.9571    0.0000 C   0  0  0  0  0  0  0  0  0  0  0  0
    3.7320    1.9571    0.0000 C   0  0  0  0  0  0  0  0  0  0  0  0
    4.5981    2.4571    0.0000 C   0  0  0  0  0  0  0  0  0  0  0  0
    2.8660    2.4571    0.0000 C   0  0  0  0  0  0  0  0  0  0  0  0
    3.3506   -1.5691    0.0000 H   0  0  0  0  0  0  0  0  0  0  0  0
    4.3796   -2.6341    0.0000 H   0  0  0  0  0  0  0  0  0  0  0  0
    5.1505   -0.2614    0.0000 H   0  0  0  0  0  0  0  0  0  0  0  0
    5.7104   -1.9847    0.0000 H   0  0  0  0  0  0  0  0  0  0  0  0
    5.1286   -3.1625    0.0000 H   0  0  0  0  0  0  0  0  0  0  0  0
    5.8568   -3.4867    0.0000 H   0  0  0  0  0  0  0  0  0  0  0  0
    2.3772   -1.2365    0.0000 H   0  0  0  0  0  0  0  0  0  0  0  0
    3.7625   -3.4571    0.0000 H   0  0  0  0  0  0  0  0  0  0  0  0
    3.1951    0.6471    0.0000 H   0  0  0  0  0  0  0  0  0  0  0  0
    6.0010    2.2671    0.0000 H   0  0  0  0  0  0  0  0  0  0  0  0
    7.0448   -3.2878    0.0000 H   0  0  0  0  0  0  0  0  0  0  0  0
  1 12  1  0  0  0  0
  1 13  1  0  0  0  0
 10  2  1  1  0  0  0
  2 26  1  0  0  0  0
 11  3  1  1  0  0  0
  3 27  1  0  0  0  0
  4 14  1  0  0  0  0
  4 30  1  0  0  0  0
  5 16  2  0  0  0  0
  6 18  2  0  0  0  0
  7 12  1  0  0  0  0
  7 15  1  0  0  0  0
  7 16  1  0  0  0  0
  8 16  1  0  0  0  0
  8 18  1  0  0  0  0
  8 29  1  0  0  0  0
  9 19  3  0  0  0  0
 10 11  1  0  0  0  0
 10 12  1  0  0  0  0
 10 20  1  0  0  0  0
 11 13  1  0  0  0  0
 11 21  1  0  0  0  0
 12 22  1  0  0  0  0
 13 14  1  6  0  0  0
 13 23  1  0  0  0  0
 14 24  1  0  0  0  0
 14 25  1  0  0  0  0
 15 17  2  0  0  0  0
 15 28  1  0  0  0  0
 17 18  1  0  0  0  0
 17 19  1  0  0  0  0
M  END
> <PUBCHEM_COMPOUND_CID>
514172
> <PUBCHEM_COMPOUND_CANONICALIZED>
1
> <PUBCHEM_CACTVS_COMPLEXITY>
495
> <PUBCHEM_CACTVS_HBOND_ACCEPTOR>
7
> <PUBCHEM_CACTVS_HBOND_DONOR>
4
> <PUBCHEM_CACTVS_ROTATABLE_BOND>
2
> <PUBCHEM_CACTVS_SUBSKEYS>
AAADccBzOAAAAAAAAAAAAAAAAAAAASAAAAAgAAAAAAAAAAAAAAAAHgAQCAAADBThgAYBAAPABgCYBgFWUACgAAAAAAAAAAEIAECDkAIAgAAOQAAPByITAMDwMAIAAAAAAAAAAAAAAAAAAAAAAAAAAAAAAA==
> <PUBCHEM_IUPAC_OPENEYE_NAME>
1-[(3R,4S,5R)-3,4-dihydroxy-5-(hydroxymethyl)tetrahydrofuran-2-yl]-2,4-dioxo-pyrimidine-5-carbonitrile
> <PUBCHEM_IUPAC_CAS_NAME>
1-[(3R,4S,5R)-3,4-dihydroxy-5-(hydroxymethyl)-2-oxolanyl]-2,4-dioxo-5-pyrimidinecarbonitrile
> <PUBCHEM_IUPAC_NAME_MARKUP>
1-[(3<I>R</I>,4<I>S</I>,5<I>R</I>)-3,4-dihydroxy-5-(hydroxymethyl)oxolan-2-yl]-2,4-dioxopyrimidine-5-carbonitrile
> <PUBCHEM_IUPAC_NAME>
1-[(3R,4S,5R)-3,4-dihydroxy-5-(hydroxymethyl)oxolan-2-yl]-2,4-dioxopyrimidine-5-carbonitrile
> <PUBCHEM_IUPAC_SYSTEMATIC_NAME>
1-[(3R,4S,5R)-5-(hydroxymethyl)-3,4-bis(oxidanyl)oxolan-2-yl]-2,4-bis(oxidanylidene)pyrimidine-5-carbonitrile
> <PUBCHEM_IUPAC_TRADITIONAL_NAME>
1-[(3R,4S,5R)-3,4-dihydroxy-5-methylol-tetrahydrofuran-2-yl]-2,4-diketo-pyrimidine-5-carbonitrile
> <PUBCHEM_IUPAC_INCHI>
InChI=1S/C10H11N3O6/c11-1-4-2-13(10(18)12-8(4)17)9-7(16)6(15)5(3-14)19-9/h2,5-7,9,14-16H,3H2,(H,12,17,18)/t5-,6-,7-,9?/m1/s1
> <PUBCHEM_IUPAC_INCHIKEY>
VIVLFSUDRCCWEF-PILSHRGASA-N
> <PUBCHEM_XLOGP3>
-2.1
> <PUBCHEM_EXACT_MASS>
269.06478508
> <PUBCHEM_MOLECULAR_FORMULA>
C10H11N3O6
> <PUBCHEM_MOLECULAR_WEIGHT>
269.21
> <PUBCHEM_OPENEYE_CAN_SMILES>
C1=C(C(=O)NC(=O)N1C2C(C(C(O2)CO)O)O)C#N
> <PUBCHEM_OPENEYE_ISO_SMILES>
C1=C(C(=O)NC(=O)N1C2[C@@H]([C@@H]([C@H](O2)CO)O)O)C#N
> <PUBCHEM_CACTVS_TPSA>
143
> <PUBCHEM_MONOISOTOPIC_WEIGHT>
269.06478508
> <PUBCHEM_TOTAL_CHARGE>
0
> <PUBCHEM_HEAVY_ATOM_COUNT>
19
> <PUBCHEM_ATOM_DEF_STEREO_COUNT>
3
> <PUBCHEM_ATOM_UDEF_STEREO_COUNT>
1
> <PUBCHEM_BOND_DEF_STEREO_COUNT>
0
> <PUBCHEM_BOND_UDEF_STEREO_COUNT>
0
> <PUBCHEM_ISOTOPIC_ATOM_COUNT>
0
> <PUBCHEM_COMPONENT_COUNT>
1
> <PUBCHEM_CACTVS_TAUTO_COUNT>
-1
> <PUBCHEM_COORDINATE_TYPE>
1
5
255
> <PUBCHEM_BONDANNOTATIONS>
13  14  6
15  17  8
17  18  8
10  2  5
11  3  5
12  7  3
7  15  8
7  16  8
8  16  8
8  18  8
$$$$
