514152
  -OEChem-10302200282D
 46 47  0     1  0  0  0  0  0999 V2000
    6.8671   -1.7883    0.0000 S   0  0  0  0  0  0  0  0  0  0  0  0
    5.1350    1.2117    0.0000 S   0  0  0  0  0  0  0  0  0  0  0  0
    9.9685    2.1732    0.0000 O   0  0  0  0  0  0  0  0  0  0  0  0
   11.5683    4.2804    0.0000 O   0  0  0  0  0  0  0  0  0  0  0  0
    6.8671   -3.7883    0.0000 O   0  0  0  0  0  0  0  0  0  0  0  0
    3.4030    2.2117    0.0000 O   0  0  0  0  0  0  0  0  0  0  0  0
    8.6793    1.0164    0.0000 N   0  0  0  0  0  0  0  0  0  0  0  0
    8.6793   -0.5930    0.0000 N   0  0  0  0  0  0  0  0  0  0  0  0
    6.8671    1.2117    0.0000 N   0  0  0  0  0  0  0  0  0  0  0  0
    6.0010   -0.2883    0.0000 N   0  0  0  0  0  0  0  0  0  0  0  0
    5.1350   -3.7883    0.0000 N   0  0  0  0  0  0  0  0  0  0  0  0
    2.5369    0.7117    0.0000 N   0  0  0  0  0  0  0  0  0  0  0  0
    7.7331    0.7117    0.0000 C   0  0  0  0  0  0  0  0  0  0  0  0
    7.7331   -0.2883    0.0000 C   0  0  0  0  0  0  0  0  0  0  0  0
    8.9900    1.9670    0.0000 C   0  0  0  0  0  0  0  0  0  0  0  0
    6.8671   -0.7883    0.0000 C   0  0  0  0  0  0  0  0  0  0  0  0
    9.2629    0.2117    0.0000 C   0  0  0  0  0  0  0  0  0  0  0  0
    6.0010   -2.2883    0.0000 C   0  0  3  0  0  0  0  0  0  0  0  0
    6.0010    0.7117    0.0000 C   0  0  0  0  0  0  0  0  0  0  0  0
    4.2690    0.7117    0.0000 C   0  0  3  0  0  0  0  0  0  0  0  0
   10.2791    3.1237    0.0000 C   0  0  0  0  0  0  0  0  0  0  0  0
    5.1350   -1.7883    0.0000 C   0  0  0  0  0  0  0  0  0  0  0  0
    6.0010   -3.2883    0.0000 C   0  0  0  0  0  0  0  0  0  0  0  0
    4.2690   -0.2883    0.0000 C   0  0  0  0  0  0  0  0  0  0  0  0
   11.2576    3.3299    0.0000 C   0  0  0  0  0  0  0  0  0  0  0  0
    3.4030    1.2117    0.0000 C   0  0  0  0  0  0  0  0  0  0  0  0
    8.9694    2.5866    0.0000 H   0  0  0  0  0  0  0  0  0  0  0  0
    8.3762    2.0543    0.0000 H   0  0  0  0  0  0  0  0  0  0  0  0
    9.8829    0.2117    0.0000 H   0  0  0  0  0  0  0  0  0  0  0  0
    6.0010   -1.6683    0.0000 H   0  0  0  0  0  0  0  0  0  0  0  0
    4.8059    0.4017    0.0000 H   0  0  0  0  0  0  0  0  0  0  0  0
   10.2586    3.7434    0.0000 H   0  0  0  0  0  0  0  0  0  0  0  0
    9.6653    3.2110    0.0000 H   0  0  0  0  0  0  0  0  0  0  0  0
    5.4450   -1.2514    0.0000 H   0  0  0  0  0  0  0  0  0  0  0  0
    4.5981   -1.4783    0.0000 H   0  0  0  0  0  0  0  0  0  0  0  0
    4.8250   -2.3252    0.0000 H   0  0  0  0  0  0  0  0  0  0  0  0
    3.6490   -0.2883    0.0000 H   0  0  0  0  0  0  0  0  0  0  0  0
    4.2690   -0.9083    0.0000 H   0  0  0  0  0  0  0  0  0  0  0  0
    4.8890   -0.2883    0.0000 H   0  0  0  0  0  0  0  0  0  0  0  0
   11.2782    2.7103    0.0000 H   0  0  0  0  0  0  0  0  0  0  0  0
   11.8715    3.2426    0.0000 H   0  0  0  0  0  0  0  0  0  0  0  0
    5.1350   -4.4083    0.0000 H   0  0  0  0  0  0  0  0  0  0  0  0
    4.5981   -3.4783    0.0000 H   0  0  0  0  0  0  0  0  0  0  0  0
    2.0000    1.0217    0.0000 H   0  0  0  0  0  0  0  0  0  0  0  0
    2.5369    0.0917    0.0000 H   0  0  0  0  0  0  0  0  0  0  0  0
   12.1750    4.4083    0.0000 H   0  0  0  0  0  0  0  0  0  0  0  0
  1 16  1  0  0  0  0
  1 18  1  0  0  0  0
  2 19  1  0  0  0  0
  2 20  1  0  0  0  0
  3 15  1  0  0  0  0
  3 21  1  0  0  0  0
  4 25  1  0  0  0  0
  4 46  1  0  0  0  0
  5 23  2  0  0  0  0
  6 26  2  0  0  0  0
  7 13  1  0  0  0  0
  7 15  1  0  0  0  0
  7 17  1  0  0  0  0
  8 14  1  0  0  0  0
  8 17  2  0  0  0  0
  9 13  1  0  0  0  0
  9 19  2  0  0  0  0
 10 16  2  0  0  0  0
 10 19  1  0  0  0  0
 11 23  1  0  0  0  0
 11 42  1  0  0  0  0
 11 43  1  0  0  0  0
 12 26  1  0  0  0  0
 12 44  1  0  0  0  0
 12 45  1  0  0  0  0
 13 14  2  0  0  0  0
 14 16  1  0  0  0  0
 15 27  1  0  0  0  0
 15 28  1  0  0  0  0
 17 29  1  0  0  0  0
 18 22  1  0  0  0  0
 18 23  1  0  0  0  0
 18 30  1  0  0  0  0
 20 24  1  0  0  0  0
 20 26  1  0  0  0  0
 20 31  1  0  0  0  0
 21 25  1  0  0  0  0
 21 32  1  0  0  0  0
 21 33  1  0  0  0  0
 22 34  1  0  0  0  0
 22 35  1  0  0  0  0
 22 36  1  0  0  0  0
 24 37  1  0  0  0  0
 24 38  1  0  0  0  0
 24 39  1  0  0  0  0
 25 40  1  0  0  0  0
 25 41  1  0  0  0  0
M  END
> <PUBCHEM_COMPOUND_CID>
514152
> <PUBCHEM_COMPOUND_CANONICALIZED>
1
> <PUBCHEM_CACTVS_COMPLEXITY>
502
> <PUBCHEM_CACTVS_HBOND_ACCEPTOR>
9
> <PUBCHEM_CACTVS_HBOND_DONOR>
3
> <PUBCHEM_CACTVS_ROTATABLE_BOND>
10
> <PUBCHEM_CACTVS_SUBSKEYS>
AAADceBzuABgAAAAAAAAAAAAAAAAAWAAAAAsAAAAAAAAAFgB+AAAHgQQCAAACAil1waH8b9MFgioAQdxdACA0C1RGLABUDUoVBCBWABgSEAcBAwIEAJjACAAAAAAAAAAAAAAAAAAAAAAAAAAAAAAAAAAAA==
> <PUBCHEM_IUPAC_OPENEYE_NAME>
2-[2-(2-amino-1-methyl-2-oxo-ethyl)sulfanyl-9-(2-hydroxyethoxymethyl)purin-6-yl]sulfanylpropanamide
> <PUBCHEM_IUPAC_CAS_NAME>
2-[[2-[(1-amino-1-oxopropan-2-yl)thio]-9-(2-hydroxyethoxymethyl)-6-purinyl]thio]propanamide
> <PUBCHEM_IUPAC_NAME_MARKUP>
2-[2-(1-amino-1-oxopropan-2-yl)sulfanyl-9-(2-hydroxyethoxymethyl)purin-6-yl]sulfanylpropanamide
> <PUBCHEM_IUPAC_NAME>
2-[2-(1-amino-1-oxopropan-2-yl)sulfanyl-9-(2-hydroxyethoxymethyl)purin-6-yl]sulfanylpropanamide
> <PUBCHEM_IUPAC_SYSTEMATIC_NAME>
2-[2-(1-azanyl-1-oxidanylidene-propan-2-yl)sulfanyl-9-(2-hydroxyethyloxymethyl)purin-6-yl]sulfanylpropanamide
> <PUBCHEM_IUPAC_TRADITIONAL_NAME>
2-[[2-[(2-amino-2-keto-1-methyl-ethyl)thio]-9-(2-hydroxyethoxymethyl)purin-6-yl]thio]propionamide
> <PUBCHEM_IUPAC_INCHI>
InChI=1S/C14H20N6O4S2/c1-7(10(15)22)25-13-9-12(20(5-17-9)6-24-4-3-21)18-14(19-13)26-8(2)11(16)23/h5,7-8,21H,3-4,6H2,1-2H3,(H2,15,22)(H2,16,23)
> <PUBCHEM_IUPAC_INCHIKEY>
CEPAJSNEGCSFDU-UHFFFAOYSA-N
> <PUBCHEM_XLOGP3_AA>
-0.4
> <PUBCHEM_EXACT_MASS>
400.09874549
> <PUBCHEM_MOLECULAR_FORMULA>
C14H20N6O4S2
> <PUBCHEM_MOLECULAR_WEIGHT>
400.5
> <PUBCHEM_OPENEYE_CAN_SMILES>
CC(C(=O)N)SC1=NC(=NC2=C1N=CN2COCCO)SC(C)C(=O)N
> <PUBCHEM_OPENEYE_ISO_SMILES>
CC(C(=O)N)SC1=NC(=NC2=C1N=CN2COCCO)SC(C)C(=O)N
> <PUBCHEM_CACTVS_TPSA>
210
> <PUBCHEM_MONOISOTOPIC_WEIGHT>
400.09874549
> <PUBCHEM_TOTAL_CHARGE>
0
> <PUBCHEM_HEAVY_ATOM_COUNT>
26
> <PUBCHEM_ATOM_DEF_STEREO_COUNT>
0
> <PUBCHEM_ATOM_UDEF_STEREO_COUNT>
2
> <PUBCHEM_BOND_DEF_STEREO_COUNT>
0
> <PUBCHEM_BOND_UDEF_STEREO_COUNT>
0
> <PUBCHEM_ISOTOPIC_ATOM_COUNT>
0
> <PUBCHEM_COMPONENT_COUNT>
1
> <PUBCHEM_CACTVS_TAUTO_COUNT>
-1
> <PUBCHEM_COORDINATE_TYPE>
1
5
255
> <PUBCHEM_BONDANNOTATIONS>
10  16  8
10  19  8
13  14  8
14  16  8
18  22  3
20  24  3
7  13  8
7  17  8
8  14  8
8  17  8
9  13  8
9  19  8
$$$$
