514186
  -OEChem-10302200282D
 28 28  0     1  0  0  0  0  0999 V2000
    5.1350    3.0000    0.0000 S   0  0  0  0  0  0  0  0  0  0  0  0
    4.2690    2.5000    0.0000 O   0  0  0  0  0  0  0  0  0  0  0  0
    2.5369   -3.5000    0.0000 O   0  0  0  0  0  0  0  0  0  0  0  0
    4.2690   -3.5000    0.0000 O   0  0  0  0  0  0  0  0  0  0  0  0
    6.0010    3.5000    0.0000 O   0  0  0  0  0  0  0  0  0  0  0  0
    4.6350    3.8660    0.0000 O   0  0  0  0  0  0  0  0  0  0  0  0
    5.6350    2.1340    0.0000 O   0  0  0  0  0  0  0  0  0  0  0  0
    2.5369   -1.5000    0.0000 N   0  0  0  0  0  0  0  0  0  0  0  0
    4.2690   -1.5000    0.0000 C   0  0  0  0  0  0  0  0  0  0  0  0
    3.4030   -2.0000    0.0000 C   0  0  1  0  0  0  0  0  0  0  0  0
    4.2690   -0.5000    0.0000 C   0  0  0  0  0  0  0  0  0  0  0  0
    5.1350   -0.0000    0.0000 C   0  0  0  0  0  0  0  0  0  0  0  0
    3.4030   -0.0000    0.0000 C   0  0  0  0  0  0  0  0  0  0  0  0
    5.1350    1.0000    0.0000 C   0  0  0  0  0  0  0  0  0  0  0  0
    3.4030    1.0000    0.0000 C   0  0  0  0  0  0  0  0  0  0  0  0
    4.2690    1.5000    0.0000 C   0  0  0  0  0  0  0  0  0  0  0  0
    3.4030   -3.0000    0.0000 C   0  0  0  0  0  0  0  0  0  0  0  0
    4.4810   -2.0826    0.0000 H   0  0  0  0  0  0  0  0  0  0  0  0
    4.8796   -1.3923    0.0000 H   0  0  0  0  0  0  0  0  0  0  0  0
    3.4030   -1.3800    0.0000 H   0  0  0  0  0  0  0  0  0  0  0  0
    5.6720   -0.3100    0.0000 H   0  0  0  0  0  0  0  0  0  0  0  0
    2.8660   -0.3100    0.0000 H   0  0  0  0  0  0  0  0  0  0  0  0
    5.6720    1.3100    0.0000 H   0  0  0  0  0  0  0  0  0  0  0  0
    2.8660    1.3100    0.0000 H   0  0  0  0  0  0  0  0  0  0  0  0
    2.0000   -1.8100    0.0000 H   0  0  0  0  0  0  0  0  0  0  0  0
    2.5369   -0.8800    0.0000 H   0  0  0  0  0  0  0  0  0  0  0  0
    2.5369   -4.1200    0.0000 H   0  0  0  0  0  0  0  0  0  0  0  0
    6.0010    4.1200    0.0000 H   0  0  0  0  0  0  0  0  0  0  0  0
  1  2  1  0  0  0  0
  1  5  1  0  0  0  0
  1  6  2  0  0  0  0
  1  7  2  0  0  0  0
  2 16  1  0  0  0  0
  3 17  1  0  0  0  0
  3 27  1  0  0  0  0
  4 17  2  0  0  0  0
  5 28  1  0  0  0  0
 10  8  1  1  0  0  0
  8 25  1  0  0  0  0
  8 26  1  0  0  0  0
  9 10  1  0  0  0  0
  9 11  1  0  0  0  0
  9 18  1  0  0  0  0
  9 19  1  0  0  0  0
 10 17  1  0  0  0  0
 10 20  1  0  0  0  0
 11 12  2  0  0  0  0
 11 13  1  0  0  0  0
 12 14  1  0  0  0  0
 12 21  1  0  0  0  0
 13 15  2  0  0  0  0
 13 22  1  0  0  0  0
 14 16  2  0  0  0  0
 14 23  1  0  0  0  0
 15 16  1  0  0  0  0
 15 24  1  0  0  0  0
M  END
> <PUBCHEM_COMPOUND_CID>
514186
> <PUBCHEM_COMPOUND_CANONICALIZED>
1
> <PUBCHEM_CACTVS_COMPLEXITY>
354
> <PUBCHEM_CACTVS_HBOND_ACCEPTOR>
7
> <PUBCHEM_CACTVS_HBOND_DONOR>
3
> <PUBCHEM_CACTVS_ROTATABLE_BOND>
5
> <PUBCHEM_CACTVS_SUBSKEYS>
AAADccByOABAAAAAAAAAAAAAAAAAAAAAAAAwAAAAAAAAAAABAAAAHgAQCAAADCzBmAQwDoBAAoCIAiDSCDACAAAgIAAIiIGGCIgKJjKAkROAcAAk0BEIiAeYyKCOIAAAAAAAAABAAAAAAAAAAAAAAAAAAA==
> <PUBCHEM_IUPAC_OPENEYE_NAME>
(2S)-2-amino-3-(4-sulfooxyphenyl)propanoic acid
> <PUBCHEM_IUPAC_CAS_NAME>
(2S)-2-amino-3-(4-sulfooxyphenyl)propanoic acid
> <PUBCHEM_IUPAC_NAME_MARKUP>
(2<I>S</I>)-2-amino-3-(4-sulfooxyphenyl)propanoic acid
> <PUBCHEM_IUPAC_NAME>
(2S)-2-amino-3-(4-sulfooxyphenyl)propanoic acid
> <PUBCHEM_IUPAC_SYSTEMATIC_NAME>
(2S)-2-azanyl-3-(4-sulfooxyphenyl)propanoic acid
> <PUBCHEM_IUPAC_TRADITIONAL_NAME>
(2S)-2-amino-3-(4-sulfoxyphenyl)propionic acid
> <PUBCHEM_IUPAC_INCHI>
InChI=1S/C9H11NO6S/c10-8(9(11)12)5-6-1-3-7(4-2-6)16-17(13,14)15/h1-4,8H,5,10H2,(H,11,12)(H,13,14,15)/t8-/m0/s1
> <PUBCHEM_IUPAC_INCHIKEY>
CIQHWLTYGMYQQR-QMMMGPOBSA-N
> <PUBCHEM_XLOGP3>
-2.1
> <PUBCHEM_EXACT_MASS>
261.03070824
> <PUBCHEM_MOLECULAR_FORMULA>
C9H11NO6S
> <PUBCHEM_MOLECULAR_WEIGHT>
261.25
> <PUBCHEM_OPENEYE_CAN_SMILES>
C1=CC(=CC=C1CC(C(=O)O)N)OS(=O)(=O)O
> <PUBCHEM_OPENEYE_ISO_SMILES>
C1=CC(=CC=C1C[C@@H](C(=O)O)N)OS(=O)(=O)O
> <PUBCHEM_CACTVS_TPSA>
135
> <PUBCHEM_MONOISOTOPIC_WEIGHT>
261.03070824
> <PUBCHEM_TOTAL_CHARGE>
0
> <PUBCHEM_HEAVY_ATOM_COUNT>
17
> <PUBCHEM_ATOM_DEF_STEREO_COUNT>
1
> <PUBCHEM_ATOM_UDEF_STEREO_COUNT>
0
> <PUBCHEM_BOND_DEF_STEREO_COUNT>
0
> <PUBCHEM_BOND_UDEF_STEREO_COUNT>
0
> <PUBCHEM_ISOTOPIC_ATOM_COUNT>
0
> <PUBCHEM_COMPONENT_COUNT>
1
> <PUBCHEM_CACTVS_TAUTO_COUNT>
-1
> <PUBCHEM_COORDINATE_TYPE>
1
5
255
> <PUBCHEM_BONDANNOTATIONS>
11  12  8
11  13  8
12  14  8
13  15  8
14  16  8
15  16  8
10  8  5
$$$$
