514192
  -OEChem-10302200282D
222228  0     1  0  0  0  0  0999 V2000
    6.8846   23.5579    0.0000 O   0  0  0  0  0  0  0  0  0  0  0  0
    9.4190    7.4679    0.0000 O   0  0  0  0  0  0  0  0  0  0  0  0
    5.1525   22.5579    0.0000 O   0  0  0  0  0  0  0  0  0  0  0  0
   10.5945    9.0859    0.0000 O   0  0  0  0  0  0  0  0  0  0  0  0
    8.6641   23.6512    0.0000 O   0  0  0  0  0  0  0  0  0  0  0  0
    7.8312    6.6588    0.0000 O   0  0  0  0  0  0  0  0  0  0  0  0
    8.6166   22.5579    0.0000 O   0  0  0  0  0  0  0  0  0  0  0  0
    7.4299    7.6769    0.0000 O   0  0  0  0  0  0  0  0  0  0  0  0
    3.6525   21.6919    0.0000 O   0  0  0  0  0  0  0  0  0  0  0  0
   11.6126   10.4872    0.0000 O   0  0  0  0  0  0  0  0  0  0  0  0
    8.3312    4.1200    0.0000 O   0  0  0  0  0  0  0  0  0  0  0  0
    9.2400   26.1739    0.0000 O   0  0  0  0  0  0  0  0  0  0  0  0
    7.1120   25.7216    0.0000 O   0  0  0  0  0  0  0  0  0  0  0  0
   10.0912    5.3988    0.0000 O   0  0  0  0  0  0  0  0  0  0  0  0
    6.5991    4.1200    0.0000 O   0  0  0  0  0  0  0  0  0  0  0  0
   10.8223   25.4694    0.0000 O   0  0  0  0  0  0  0  0  0  0  0  0
    2.1526   24.2901    0.0000 O   0  0  0  0  0  0  0  0  0  0  0  0
   14.0396    8.7238    0.0000 O   0  0  0  0  0  0  0  0  0  0  0  0
    1.1525   22.5580    0.0000 O   0  0  0  0  0  0  0  0  0  0  0  0
   14.2487   10.7128    0.0000 O   0  0  0  0  0  0  0  0  0  0  0  0
    5.8280    6.0679    0.0000 O   0  0  0  0  0  0  0  0  0  0  0  0
   10.7345   23.3763    0.0000 O   0  0  0  0  0  0  0  0  0  0  0  0
    6.5991    1.1200    0.0000 O   0  0  0  0  0  0  0  0  0  0  0  0
   12.0425   28.2101    0.0000 O   0  0  0  0  0  0  0  0  0  0  0  0
    4.8671    2.1200    0.0000 O   0  0  0  0  0  0  0  0  0  0  0  0
   13.2181   26.5920    0.0000 O   0  0  0  0  0  0  0  0  0  0  0  0
    1.1525   19.0938    0.0000 O   0  0  0  0  0  0  0  0  0  0  0  0
    4.0010    6.6200    0.0000 O   0  0  0  0  0  0  0  0  0  0  0  0
    5.5185   20.1919    0.0000 N   0  0  0  0  0  0  0  0  0  0  0  0
    9.2978   11.0985    0.0000 N   0  0  0  0  0  0  0  0  0  0  0  0
    8.6166   20.5579    0.0000 N   0  0  0  0  0  0  0  0  0  0  0  0
    6.6164    9.5040    0.0000 N   0  0  0  0  0  0  0  0  0  0  0  0
    4.1525   24.2900    0.0000 N   0  0  0  0  0  0  0  0  0  0  0  0
   12.2126    7.9103    0.0000 N   0  0  0  0  0  0  0  0  0  0  0  0
    8.3312    2.1200    0.0000 N   0  0  0  0  0  0  0  0  0  0  0  0
   10.0535   28.0010    0.0000 N   0  0  0  0  0  0  0  0  0  0  0  0
    2.6526   19.9598    0.0000 N   0  0  0  0  0  0  0  0  0  0  0  0
   11.8217   12.4762    0.0000 N   0  0  0  0  0  0  0  0  0  0  0  0
    4.8671    5.1200    0.0000 N   0  0  0  0  0  0  0  0  0  0  0  0
   13.3991   24.8695    0.0000 N   0  0  0  0  0  0  0  0  0  0  0  0
    2.1526   17.3617    0.0000 N   0  0  0  0  0  0  0  0  0  0  0  0
    2.2690    5.6200    0.0000 N   0  0  0  0  0  0  0  0  0  0  0  0
    5.6525   16.4958    0.0000 N   0  0  0  0  0  0  0  0  0  0  0  0
    1.4030    2.1200    0.0000 N   0  0  0  0  0  0  0  0  0  0  0  0
    7.1525   15.6297    0.0000 N   0  0  0  0  0  0  0  0  0  0  0  0
    7.1525   17.3618    0.0000 N   0  0  0  0  0  0  0  0  0  0  0  0
    0.5369    0.6200    0.0000 N   0  0  0  0  0  0  0  0  0  0  0  0
    2.2690    0.6200    0.0000 N   0  0  0  0  0  0  0  0  0  0  0  0
    6.8846   22.5579    0.0000 C   0  0  1  0  0  0  0  0  0  0  0  0
    6.0185   22.0579    0.0000 C   0  0  1  0  0  0  0  0  0  0  0  0
    9.0122    8.3814    0.0000 C   0  0  1  0  0  0  0  0  0  0  0  0
    9.6000    9.1904    0.0000 C   0  0  1  0  0  0  0  0  0  0  0  0
    6.0185   21.0579    0.0000 C   0  0  2  0  0  0  0  0  0  0  0  0
    7.7506   22.0579    0.0000 C   0  0  2  0  0  0  0  0  0  0  0  0
    9.1933   10.1040    0.0000 C   0  0  2  0  0  0  0  0  0  0  0  0
    8.0177    8.4859    0.0000 C   0  0  2  0  0  0  0  0  0  0  0  0
    7.7506   21.0579    0.0000 C   0  0  1  0  0  0  0  0  0  0  0  0
    7.6110    9.3995    0.0000 C   0  0  1  0  0  0  0  0  0  0  0  0
    6.8846   20.5579    0.0000 C   0  0  0  0  0  0  0  0  0  0  0  0
    8.1987   10.2085    0.0000 C   0  0  0  0  0  0  0  0  0  0  0  0
    7.7506   24.0579    0.0000 C   0  0  2  0  0  0  0  0  0  0  0  0
    8.8312    6.6588    0.0000 C   0  0  2  0  0  0  0  0  0  0  0  0
    7.8551   25.0525    0.0000 C   0  0  1  0  0  0  0  0  0  0  0  0
    9.1402    5.7078    0.0000 C   0  0  1  0  0  0  0  0  0  0  0  0
    8.3312    5.1200    0.0000 C   0  0  1  0  0  0  0  0  0  0  0  0
    8.8332   25.2604    0.0000 C   0  0  1  0  0  0  0  0  0  0  0  0
    4.1525   22.5580    0.0000 C   0  0  1  0  0  0  0  0  0  0  0  0
   11.5081    9.4926    0.0000 C   0  0  1  0  0  0  0  0  0  0  0  0
    7.5222    5.7078    0.0000 C   0  0  1  0  0  0  0  0  0  0  0  0
    9.3332   24.3943    0.0000 C   0  0  1  0  0  0  0  0  0  0  0  0
    3.6526   23.4240    0.0000 C   0  0  1  0  0  0  0  0  0  0  0  0
   12.3171    8.9048    0.0000 C   0  0  1  0  0  0  0  0  0  0  0  0
    2.6525   23.4240    0.0000 C   0  0  2  0  0  0  0  0  0  0  0  0
   13.2306    9.3116    0.0000 C   0  0  2  0  0  0  0  0  0  0  0  0
    2.1525   22.5580    0.0000 C   0  0  1  0  0  0  0  0  0  0  0  0
    2.6525   21.6919    0.0000 C   0  0  1  0  0  0  0  0  0  0  0  0
   13.3352   10.3061    0.0000 C   0  0  1  0  0  0  0  0  0  0  0  0
   12.5261   10.8939    0.0000 C   0  0  1  0  0  0  0  0  0  0  0  0
    7.4651    3.6200    0.0000 C   0  0  3  0  0  0  0  0  0  0  0  0
   10.2345   26.2784    0.0000 C   0  0  3  0  0  0  0  0  0  0  0  0
    6.5711    5.3988    0.0000 C   0  0  0  0  0  0  0  0  0  0  0  0
   10.3278   24.2898    0.0000 C   0  0  0  0  0  0  0  0  0  0  0  0
    7.4651    2.6200    0.0000 C   0  0  1  0  0  0  0  0  0  0  0  0
   10.6412   27.1920    0.0000 C   0  0  1  0  0  0  0  0  0  0  0  0
    6.5991    2.1200    0.0000 C   0  0  2  0  0  0  0  0  0  0  0  0
    2.1525   20.8259    0.0000 C   0  0  0  0  0  0  0  0  0  0  0  0
   11.6358   27.2965    0.0000 C   0  0  2  0  0  0  0  0  0  0  0  0
    5.7331    2.6200    0.0000 C   0  0  1  0  0  0  0  0  0  0  0  0
    5.7331    3.6200    0.0000 C   0  0  2  0  0  0  0  0  0  0  0  0
   12.2236   26.4875    0.0000 C   0  0  1  0  0  0  0  0  0  0  0  0
   11.8168   25.5740    0.0000 C   0  0  2  0  0  0  0  0  0  0  0  0
   12.6307   11.8884    0.0000 C   0  0  0  0  0  0  0  0  0  0  0  0
    4.8671    4.1200    0.0000 C   0  0  0  0  0  0  0  0  0  0  0  0
   12.4046   24.7649    0.0000 C   0  0  0  0  0  0  0  0  0  0  0  0
    2.1526   19.0938    0.0000 C   0  0  0  0  0  0  0  0  0  0  0  0
    2.6526   18.2278    0.0000 C   0  0  2  0  0  0  0  0  0  0  0  0
    4.0010    5.6200    0.0000 C   0  0  0  0  0  0  0  0  0  0  0  0
    3.6525   18.2278    0.0000 C   0  0  0  0  0  0  0  0  0  0  0  0
    3.1350    5.1200    0.0000 C   0  0  2  0  0  0  0  0  0  0  0  0
    4.1525   17.3618    0.0000 C   0  0  0  0  0  0  0  0  0  0  0  0
    3.1350    4.1200    0.0000 C   0  0  0  0  0  0  0  0  0  0  0  0
    2.2690    3.6200    0.0000 C   0  0  0  0  0  0  0  0  0  0  0  0
    5.1525   17.3618    0.0000 C   0  0  0  0  0  0  0  0  0  0  0  0
    2.2690    2.6200    0.0000 C   0  0  0  0  0  0  0  0  0  0  0  0
    6.6525   16.4958    0.0000 C   0  0  0  0  0  0  0  0  0  0  0  0
    1.4030    1.1200    0.0000 C   0  0  0  0  0  0  0  0  0  0  0  0
    7.4215   22.8679    0.0000 H   0  0  0  0  0  0  0  0  0  0  0  0
    5.4816   21.7479    0.0000 H   0  0  0  0  0  0  0  0  0  0  0  0
    8.6478    7.8798    0.0000 H   0  0  0  0  0  0  0  0  0  0  0  0
    9.8522    8.6240    0.0000 H   0  0  0  0  0  0  0  0  0  0  0  0
    5.4196   21.2184    0.0000 H   0  0  0  0  0  0  0  0  0  0  0  0
    8.2875   21.7479    0.0000 H   0  0  0  0  0  0  0  0  0  0  0  0
    9.8056   10.2010    0.0000 H   0  0  0  0  0  0  0  0  0  0  0  0
    7.4011    8.5507    0.0000 H   0  0  0  0  0  0  0  0  0  0  0  0
    7.7506   20.4379    0.0000 H   0  0  0  0  0  0  0  0  0  0  0  0
    7.3588    9.9659    0.0000 H   0  0  0  0  0  0  0  0  0  0  0  0
    6.4860   20.0830    0.0000 H   0  0  0  0  0  0  0  0  0  0  0  0
    7.2831   20.0830    0.0000 H   0  0  0  0  0  0  0  0  0  0  0  0
    8.3696   10.8045    0.0000 H   0  0  0  0  0  0  0  0  0  0  0  0
    7.6415   10.4803    0.0000 H   0  0  0  0  0  0  0  0  0  0  0  0
    7.7830   23.4388    0.0000 H   0  0  0  0  0  0  0  0  0  0  0  0
    8.5497    7.2113    0.0000 H   0  0  0  0  0  0  0  0  0  0  0  0
    8.0156   25.6513    0.0000 H   0  0  0  0  0  0  0  0  0  0  0  0
    9.2372    5.0954    0.0000 H   0  0  0  0  0  0  0  0  0  0  0  0
    8.8836    4.8385    0.0000 H   0  0  0  0  0  0  0  0  0  0  0  0
    9.4524   25.2928    0.0000 H   0  0  0  0  0  0  0  0  0  0  0  0
    4.4625   23.0949    0.0000 H   0  0  0  0  0  0  0  0  0  0  0  0
   11.0065    9.8571    0.0000 H   0  0  0  0  0  0  0  0  0  0  0  0
    7.0837    6.1462    0.0000 H   0  0  0  0  0  0  0  0  0  0  0  0
    9.5554   23.8155    0.0000 H   0  0  0  0  0  0  0  0  0  0  0  0
    3.3425   23.9610    0.0000 H   0  0  0  0  0  0  0  0  0  0  0  0
   11.7507    8.6527    0.0000 H   0  0  0  0  0  0  0  0  0  0  0  0
    2.9625   23.9610    0.0000 H   0  0  0  0  0  0  0  0  0  0  0  0
    5.8285   19.6550    0.0000 H   0  0  0  0  0  0  0  0  0  0  0  0
    4.8985   20.1920    0.0000 H   0  0  0  0  0  0  0  0  0  0  0  0
    8.7962   11.4629    0.0000 H   0  0  0  0  0  0  0  0  0  0  0  0
    9.8642   11.3507    0.0000 H   0  0  0  0  0  0  0  0  0  0  0  0
   13.1658    8.6950    0.0000 H   0  0  0  0  0  0  0  0  0  0  0  0
    8.6166   19.9379    0.0000 H   0  0  0  0  0  0  0  0  0  0  0  0
    9.1535   20.8679    0.0000 H   0  0  0  0  0  0  0  0  0  0  0  0
    6.3643   10.0704    0.0000 H   0  0  0  0  0  0  0  0  0  0  0  0
    6.2520    9.0024    0.0000 H   0  0  0  0  0  0  0  0  0  0  0  0
    1.8425   23.0949    0.0000 H   0  0  0  0  0  0  0  0  0  0  0  0
    2.9625   21.1550    0.0000 H   0  0  0  0  0  0  0  0  0  0  0  0
   13.8367    9.9417    0.0000 H   0  0  0  0  0  0  0  0  0  0  0  0
   12.0245   11.2583    0.0000 H   0  0  0  0  0  0  0  0  0  0  0  0
    9.1535   22.2479    0.0000 H   0  0  0  0  0  0  0  0  0  0  0  0
    6.8133    7.7417    0.0000 H   0  0  0  0  0  0  0  0  0  0  0  0
    8.0021    3.3100    0.0000 H   0  0  0  0  0  0  0  0  0  0  0  0
    9.9823   25.7120    0.0000 H   0  0  0  0  0  0  0  0  0  0  0  0
    6.0825    5.0171    0.0000 H   0  0  0  0  0  0  0  0  0  0  0  0
    6.8622    4.8513    0.0000 H   0  0  0  0  0  0  0  0  0  0  0  0
   10.9294   24.4398    0.0000 H   0  0  0  0  0  0  0  0  0  0  0  0
   10.2845   24.9083    0.0000 H   0  0  0  0  0  0  0  0  0  0  0  0
    8.0021    2.9300    0.0000 H   0  0  0  0  0  0  0  0  0  0  0  0
   10.0246   27.1272    0.0000 H   0  0  0  0  0  0  0  0  0  0  0  0
    7.1360    1.8100    0.0000 H   0  0  0  0  0  0  0  0  0  0  0  0
    1.6776   21.2244    0.0000 H   0  0  0  0  0  0  0  0  0  0  0  0
    1.6776   20.4273    0.0000 H   0  0  0  0  0  0  0  0  0  0  0  0
   11.2713   27.7981    0.0000 H   0  0  0  0  0  0  0  0  0  0  0  0
    5.7331    2.0000    0.0000 H   0  0  0  0  0  0  0  0  0  0  0  0
    5.7331    4.2400    0.0000 H   0  0  0  0  0  0  0  0  0  0  0  0
    7.2409   26.3280    0.0000 H   0  0  0  0  0  0  0  0  0  0  0  0
   10.5520    5.8136    0.0000 H   0  0  0  0  0  0  0  0  0  0  0  0
    3.8425   24.8269    0.0000 H   0  0  0  0  0  0  0  0  0  0  0  0
    4.7725   24.2900    0.0000 H   0  0  0  0  0  0  0  0  0  0  0  0
   12.4757   27.0539    0.0000 H   0  0  0  0  0  0  0  0  0  0  0  0
   11.5646   25.0076    0.0000 H   0  0  0  0  0  0  0  0  0  0  0  0
   13.2267   11.7175    0.0000 H   0  0  0  0  0  0  0  0  0  0  0  0
   12.9025   12.4457    0.0000 H   0  0  0  0  0  0  0  0  0  0  0  0
   12.7141    7.5459    0.0000 H   0  0  0  0  0  0  0  0  0  0  0  0
   11.6462    7.6582    0.0000 H   0  0  0  0  0  0  0  0  0  0  0  0
    1.5325   24.2901    0.0000 H   0  0  0  0  0  0  0  0  0  0  0  0
   14.6060    8.9760    0.0000 H   0  0  0  0  0  0  0  0  0  0  0  0
    0.8425   22.0210    0.0000 H   0  0  0  0  0  0  0  0  0  0  0  0
   14.3135   11.3294    0.0000 H   0  0  0  0  0  0  0  0  0  0  0  0
    4.2565    4.2277    0.0000 H   0  0  0  0  0  0  0  0  0  0  0  0
    4.6550    3.5374    0.0000 H   0  0  0  0  0  0  0  0  0  0  0  0
    8.3312    1.5000    0.0000 H   0  0  0  0  0  0  0  0  0  0  0  0
    8.8681    2.4300    0.0000 H   0  0  0  0  0  0  0  0  0  0  0  0
   11.8473   24.4932    0.0000 H   0  0  0  0  0  0  0  0  0  0  0  0
   12.5755   24.1690    0.0000 H   0  0  0  0  0  0  0  0  0  0  0  0
   10.3056   28.5674    0.0000 H   0  0  0  0  0  0  0  0  0  0  0  0
    9.4369   27.9362    0.0000 H   0  0  0  0  0  0  0  0  0  0  0  0
    3.2726   19.9598    0.0000 H   0  0  0  0  0  0  0  0  0  0  0  0
    5.9568    6.6744    0.0000 H   0  0  0  0  0  0  0  0  0  0  0  0
   11.3511   23.3115    0.0000 H   0  0  0  0  0  0  0  0  0  0  0  0
   11.8865   13.0928    0.0000 H   0  0  0  0  0  0  0  0  0  0  0  0
   11.2553   12.2240    0.0000 H   0  0  0  0  0  0  0  0  0  0  0  0
    6.0622    0.8100    0.0000 H   0  0  0  0  0  0  0  0  0  0  0  0
   12.6591   28.2749    0.0000 H   0  0  0  0  0  0  0  0  0  0  0  0
    4.3301    2.4300    0.0000 H   0  0  0  0  0  0  0  0  0  0  0  0
   13.4702   27.1584    0.0000 H   0  0  0  0  0  0  0  0  0  0  0  0
    5.4040    5.4300    0.0000 H   0  0  0  0  0  0  0  0  0  0  0  0
   13.7635   24.3679    0.0000 H   0  0  0  0  0  0  0  0  0  0  0  0
   13.6513   25.4359    0.0000 H   0  0  0  0  0  0  0  0  0  0  0  0
    2.9626   17.6908    0.0000 H   0  0  0  0  0  0  0  0  0  0  0  0
    4.2351   18.4399    0.0000 H   0  0  0  0  0  0  0  0  0  0  0  0
    3.5448   18.8384    0.0000 H   0  0  0  0  0  0  0  0  0  0  0  0
    3.1350    5.7400    0.0000 H   0  0  0  0  0  0  0  0  0  0  0  0
    2.4625   16.8249    0.0000 H   0  0  0  0  0  0  0  0  0  0  0  0
    1.5326   17.3617    0.0000 H   0  0  0  0  0  0  0  0  0  0  0  0
    3.5699   17.1497    0.0000 H   0  0  0  0  0  0  0  0  0  0  0  0
    4.2602   16.7512    0.0000 H   0  0  0  0  0  0  0  0  0  0  0  0
    3.3471    3.5374    0.0000 H   0  0  0  0  0  0  0  0  0  0  0  0
    3.7456    4.2277    0.0000 H   0  0  0  0  0  0  0  0  0  0  0  0
    1.7320    5.3100    0.0000 H   0  0  0  0  0  0  0  0  0  0  0  0
    2.2690    6.2400    0.0000 H   0  0  0  0  0  0  0  0  0  0  0  0
    2.0569    4.2026    0.0000 H   0  0  0  0  0  0  0  0  0  0  0  0
    1.6584    3.5123    0.0000 H   0  0  0  0  0  0  0  0  0  0  0  0
    5.7351   17.5738    0.0000 H   0  0  0  0  0  0  0  0  0  0  0  0
    5.0448   17.9724    0.0000 H   0  0  0  0  0  0  0  0  0  0  0  0
    2.4810    2.0374    0.0000 H   0  0  0  0  0  0  0  0  0  0  0  0
    2.8796    2.7277    0.0000 H   0  0  0  0  0  0  0  0  0  0  0  0
    6.8425   15.0928    0.0000 H   0  0  0  0  0  0  0  0  0  0  0  0
    7.7725   15.6297    0.0000 H   0  0  0  0  0  0  0  0  0  0  0  0
    7.7725   17.3618    0.0000 H   0  0  0  0  0  0  0  0  0  0  0  0
    6.8425   17.8987    0.0000 H   0  0  0  0  0  0  0  0  0  0  0  0
    0.5369    0.0000    0.0000 H   0  0  0  0  0  0  0  0  0  0  0  0
    0.0000    0.9300    0.0000 H   0  0  0  0  0  0  0  0  0  0  0  0
    2.2690    0.0000    0.0000 H   0  0  0  0  0  0  0  0  0  0  0  0
    2.8059    0.9300    0.0000 H   0  0  0  0  0  0  0  0  0  0  0  0
 49  1  1  6  0  0  0
 61  1  1  1  0  0  0
 51  2  1  6  0  0  0
 62  2  1  1  0  0  0
 50  3  1  1  0  0  0
 67  3  1  1  0  0  0
 52  4  1  1  0  0  0
 68  4  1  1  0  0  0
  5 61  1  0  0  0  0
  5 70  1  0  0  0  0
  6 62  1  0  0  0  0
  6 69  1  0  0  0  0
 54  7  1  1  0  0  0
  7147  1  0  0  0  0
 56  8  1  1  0  0  0
  8148  1  0  0  0  0
  9 67  1  0  0  0  0
  9 76  1  0  0  0  0
 10 68  1  0  0  0  0
 10 78  1  0  0  0  0
 65 11  1  6  0  0  0
 11 79  1  0  0  0  0
 66 12  1  6  0  0  0
 12 80  1  0  0  0  0
 63 13  1  6  0  0  0
 13163  1  0  0  0  0
 64 14  1  6  0  0  0
 14164  1  0  0  0  0
 15 79  1  0  0  0  0
 15 89  1  0  0  0  0
 16 80  1  0  0  0  0
 16 91  1  0  0  0  0
 73 17  1  6  0  0  0
 17173  1  0  0  0  0
 74 18  1  6  0  0  0
 18174  1  0  0  0  0
 75 19  1  1  0  0  0
 19175  1  0  0  0  0
 77 20  1  1  0  0  0
 20176  1  0  0  0  0
 21 81  1  0  0  0  0
 21186  1  0  0  0  0
 22 82  1  0  0  0  0
 22187  1  0  0  0  0
 85 23  1  1  0  0  0
 23190  1  0  0  0  0
 87 24  1  1  0  0  0
 24191  1  0  0  0  0
 88 25  1  6  0  0  0
 25192  1  0  0  0  0
 90 26  1  6  0  0  0
 26193  1  0  0  0  0
 27 95  2  0  0  0  0
 28 97  2  0  0  0  0
 53 29  1  6  0  0  0
 29134  1  0  0  0  0
 29135  1  0  0  0  0
 55 30  1  6  0  0  0
 30136  1  0  0  0  0
 30137  1  0  0  0  0
 57 31  1  6  0  0  0
 31139  1  0  0  0  0
 31140  1  0  0  0  0
 58 32  1  6  0  0  0
 32141  1  0  0  0  0
 32142  1  0  0  0  0
 71 33  1  1  0  0  0
 33165  1  0  0  0  0
 33166  1  0  0  0  0
 72 34  1  1  0  0  0
 34171  1  0  0  0  0
 34172  1  0  0  0  0
 83 35  1  6  0  0  0
 35179  1  0  0  0  0
 35180  1  0  0  0  0
 84 36  1  6  0  0  0
 36183  1  0  0  0  0
 36184  1  0  0  0  0
 37 86  1  0  0  0  0
 37 95  1  0  0  0  0
 37185  1  0  0  0  0
 38 92  1  0  0  0  0
 38188  1  0  0  0  0
 38189  1  0  0  0  0
 39 93  1  0  0  0  0
 39 97  1  0  0  0  0
 39194  1  0  0  0  0
 40 94  1  0  0  0  0
 40195  1  0  0  0  0
 40196  1  0  0  0  0
 96 41  1  6  0  0  0
 41201  1  0  0  0  0
 41202  1  0  0  0  0
 99 42  1  6  0  0  0
 42207  1  0  0  0  0
 42208  1  0  0  0  0
 43103  1  0  0  0  0
 43105  2  0  0  0  0
 44104  1  0  0  0  0
 44106  2  0  0  0  0
 45105  1  0  0  0  0
 45215  1  0  0  0  0
 45216  1  0  0  0  0
 46105  1  0  0  0  0
 46217  1  0  0  0  0
 46218  1  0  0  0  0
 47106  1  0  0  0  0
 47219  1  0  0  0  0
 47220  1  0  0  0  0
 48106  1  0  0  0  0
 48221  1  0  0  0  0
 48222  1  0  0  0  0
 49 50  1  0  0  0  0
 49 54  1  0  0  0  0
 49107  1  0  0  0  0
 50 53  1  0  0  0  0
 50108  1  0  0  0  0
 51 52  1  0  0  0  0
 51 56  1  0  0  0  0
 51109  1  0  0  0  0
 52 55  1  0  0  0  0
 52110  1  0  0  0  0
 53 59  1  0  0  0  0
 53111  1  0  0  0  0
 54 57  1  0  0  0  0
 54112  1  0  0  0  0
 55 60  1  0  0  0  0
 55113  1  0  0  0  0
 56 58  1  0  0  0  0
 56114  1  0  0  0  0
 57 59  1  0  0  0  0
 57115  1  0  0  0  0
 58 60  1  0  0  0  0
 58116  1  0  0  0  0
 59117  1  0  0  0  0
 59118  1  0  0  0  0
 60119  1  0  0  0  0
 60120  1  0  0  0  0
 61 63  1  0  0  0  0
 61121  1  0  0  0  0
 62 64  1  0  0  0  0
 62122  1  0  0  0  0
 63 66  1  0  0  0  0
 63123  1  0  0  0  0
 64 65  1  0  0  0  0
 64124  1  0  0  0  0
 65 69  1  0  0  0  0
 65125  1  0  0  0  0
 66 70  1  0  0  0  0
 66126  1  0  0  0  0
 67 71  1  0  0  0  0
 67127  1  0  0  0  0
 68 72  1  0  0  0  0
 68128  1  0  0  0  0
 69 81  1  1  0  0  0
 69129  1  0  0  0  0
 70 82  1  1  0  0  0
 70130  1  0  0  0  0
 71 73  1  0  0  0  0
 71131  1  0  0  0  0
 72 74  1  0  0  0  0
 72132  1  0  0  0  0
 73 75  1  0  0  0  0
 73133  1  0  0  0  0
 74 77  1  0  0  0  0
 74138  1  0  0  0  0
 75 76  1  0  0  0  0
 75143  1  0  0  0  0
 76 86  1  6  0  0  0
 76144  1  0  0  0  0
 77 78  1  0  0  0  0
 77145  1  0  0  0  0
 78 92  1  6  0  0  0
 78146  1  0  0  0  0
 79 83  1  0  0  0  0
 79149  1  0  0  0  0
 80 84  1  0  0  0  0
 80150  1  0  0  0  0
 81151  1  0  0  0  0
 81152  1  0  0  0  0
 82153  1  0  0  0  0
 82154  1  0  0  0  0
 83 85  1  0  0  0  0
 83155  1  0  0  0  0
 84 87  1  0  0  0  0
 84156  1  0  0  0  0
 85 88  1  0  0  0  0
 85157  1  0  0  0  0
 86158  1  0  0  0  0
 86159  1  0  0  0  0
 87 90  1  0  0  0  0
 87160  1  0  0  0  0
 88 89  1  0  0  0  0
 88161  1  0  0  0  0
 89 93  1  6  0  0  0
 89162  1  0  0  0  0
 90 91  1  0  0  0  0
 90167  1  0  0  0  0
 91 94  1  6  0  0  0
 91168  1  0  0  0  0
 92169  1  0  0  0  0
 92170  1  0  0  0  0
 93177  1  0  0  0  0
 93178  1  0  0  0  0
 94181  1  0  0  0  0
 94182  1  0  0  0  0
 95 96  1  0  0  0  0
 96 98  1  0  0  0  0
 96197  1  0  0  0  0
 97 99  1  0  0  0  0
 98100  1  0  0  0  0
 98198  1  0  0  0  0
 98199  1  0  0  0  0
 99101  1  0  0  0  0
 99200  1  0  0  0  0
100103  1  0  0  0  0
100203  1  0  0  0  0
100204  1  0  0  0  0
101102  1  0  0  0  0
101205  1  0  0  0  0
101206  1  0  0  0  0
102104  1  0  0  0  0
102209  1  0  0  0  0
102210  1  0  0  0  0
103211  1  0  0  0  0
103212  1  0  0  0  0
104213  1  0  0  0  0
104214  1  0  0  0  0
M  END
> <PUBCHEM_COMPOUND_CID>
514192
> <PUBCHEM_COMPOUND_CANONICALIZED>
1
> <PUBCHEM_CACTVS_COMPLEXITY>
2400
> <PUBCHEM_CACTVS_HBOND_ACCEPTOR>
42
> <PUBCHEM_CACTVS_HBOND_DONOR>
32
> <PUBCHEM_CACTVS_ROTATABLE_BOND>
30
> <PUBCHEM_CACTVS_SUBSKEYS>
AAADcfB//gAAAAAAAAAAAAAAAAAAASJAAAA0aJEiAAAAAAAAAAAAHgAQCAAACDzxgAcBCALABgAoAAEQNAAAAAEAAAAAAIGIAAATUBIAwAA3QAAHFgCXAAH4cQ0AAAAAAAAAAAAAgAAUCACgAAAAAAAAAA==
> <PUBCHEM_IUPAC_OPENEYE_NAME>
(2S)-2-amino-N-[[(2S,3S,4R,5R)-5-amino-6-[(2R,3S,4R,5S)-5-[(1R,2R,3S,5R,6S)-3,5-diamino-2-[(2R,3R,4R,5S,6R)-3-amino-6-(aminomethyl)-4,5-dihydroxy-tetrahydropyran-2-yl]oxy-6-hydroxy-cyclohexoxy]-4-hydroxy-2-(hydroxymethyl)tetrahydrofuran-3-yl]oxy-3,4-dihydroxy-tetrahydropyran-2-yl]methyl]-5-guanidino-pentanamide;(2S)-2-amino-N-[[(2R,3S,4R,5R,6R)-5-amino-6-[(1R,2R,3S,4R,6S)-4,6-diamino-2-[(2S,3R,4S,5R)-4-[(3R,4R,5S,6S)-3-amino-6-(aminomethyl)-4,5-dihydroxy-tetrahydropyran-2-yl]oxy-3-hydroxy-5-(hydroxymethyl)tetrahydrofuran-2-yl]oxy-3-hydroxy-cyclohexoxy]-3,4-dihydroxy-tetrahydropyran-2-yl]methyl]-5-guanidino-pentanamide
> <PUBCHEM_IUPAC_CAS_NAME>
(2S)-2-amino-N-[[(2S,3S,4R,5R)-5-amino-6-[[(2R,3S,4R,5S)-5-[(1R,2R,3S,5R,6S)-3,5-diamino-2-[[(2R,3R,4R,5S,6R)-3-amino-6-(aminomethyl)-4,5-dihydroxy-2-oxanyl]oxy]-6-hydroxycyclohexyl]oxy-4-hydroxy-2-(hydroxymethyl)-3-oxolanyl]oxy]-3,4-dihydroxy-2-oxanyl]methyl]-5-(diaminomethylideneamino)pentanamide;(2S)-2-amino-N-[[(2R,3S,4R,5R,6R)-5-amino-6-[(1R,2R,3S,4R,6S)-4,6-diamino-2-[[(2S,3R,4S,5R)-4-[[(3R,4R,5S,6S)-3-amino-6-(aminomethyl)-4,5-dihydroxy-2-oxanyl]oxy]-3-hydroxy-5-(hydroxymethyl)-2-oxolanyl]oxy]-3-hydroxycyclohexyl]oxy-3,4-dihydroxy-2-oxanyl]methyl]-5-(diaminomethylideneamino)pentanamide
> <PUBCHEM_IUPAC_NAME_MARKUP>
(2<I>S</I>)-2-amino-<I>N</I>-[[(2<I>S</I>,3<I>S</I>,4<I>R</I>,5<I>R</I>)-5-amino-6-[(2<I>R</I>,3<I>S</I>,4<I>R</I>,5<I>S</I>)-5-[(1<I>R</I>,2<I>R</I>,3<I>S</I>,5<I>R</I>,6<I>S</I>)-3,5-diamino-2-[(2<I>R</I>,3<I>R</I>,4<I>R</I>,5<I>S</I>,6<I>R</I>)-3-amino-6-(aminomethyl)-4,5-dihydroxyoxan-2-yl]oxy-6-hydroxycyclohexyl]oxy-4-hydroxy-2-(hydroxymethyl)oxolan-3-yl]oxy-3,4-dihydroxyoxan-2-yl]methyl]-5-(diaminomethylideneamino)pentanamide;(2<I>S</I>)-2-amino-<I>N</I>-[[(2<I>R</I>,3<I>S</I>,4<I>R</I>,5<I>R</I>,6<I>R</I>)-5-amino-6-[(1<I>R</I>,2<I>R</I>,3<I>S</I>,4<I>R</I>,6<I>S</I>)-4,6-diamino-2-[(2<I>S</I>,3<I>R</I>,4<I>S</I>,5<I>R</I>)-4-[(3<I>R</I>,4<I>R</I>,5<I>S</I>,6<I>S</I>)-3-amino-6-(aminomethyl)-4,5-dihydroxyoxan-2-yl]oxy-3-hydroxy-5-(hydroxymethyl)oxolan-2-yl]oxy-3-hydroxycyclohexyl]oxy-3,4-dihydroxyoxan-2-yl]methyl]-5-(diaminomethylideneamino)pentanamide
> <PUBCHEM_IUPAC_NAME>
(2S)-2-amino-N-[[(2S,3S,4R,5R)-5-amino-6-[(2R,3S,4R,5S)-5-[(1R,2R,3S,5R,6S)-3,5-diamino-2-[(2R,3R,4R,5S,6R)-3-amino-6-(aminomethyl)-4,5-dihydroxyoxan-2-yl]oxy-6-hydroxycyclohexyl]oxy-4-hydroxy-2-(hydroxymethyl)oxolan-3-yl]oxy-3,4-dihydroxyoxan-2-yl]methyl]-5-(diaminomethylideneamino)pentanamide;(2S)-2-amino-N-[[(2R,3S,4R,5R,6R)-5-amino-6-[(1R,2R,3S,4R,6S)-4,6-diamino-2-[(2S,3R,4S,5R)-4-[(3R,4R,5S,6S)-3-amino-6-(aminomethyl)-4,5-dihydroxyoxan-2-yl]oxy-3-hydroxy-5-(hydroxymethyl)oxolan-2-yl]oxy-3-hydroxycyclohexyl]oxy-3,4-dihydroxyoxan-2-yl]methyl]-5-(diaminomethylideneamino)pentanamide
> <PUBCHEM_IUPAC_SYSTEMATIC_NAME>
(2S)-N-[[(2S,3S,4R,5R)-6-[(2R,3S,4R,5S)-5-[(1R,2R,3S,5R,6S)-2-[(2R,3R,4R,5S,6R)-6-(aminomethyl)-3-azanyl-4,5-bis(oxidanyl)oxan-2-yl]oxy-3,5-bis(azanyl)-6-oxidanyl-cyclohexyl]oxy-2-(hydroxymethyl)-4-oxidanyl-oxolan-3-yl]oxy-5-azanyl-3,4-bis(oxidanyl)oxan-2-yl]methyl]-2-azanyl-5-[bis(azanyl)methylideneamino]pentanamide;(2S)-N-[[(2R,3S,4R,5R,6R)-6-[(1R,2R,3S,4R,6S)-2-[(2S,3R,4S,5R)-4-[(3R,4R,5S,6S)-6-(aminomethyl)-3-azanyl-4,5-bis(oxidanyl)oxan-2-yl]oxy-5-(hydroxymethyl)-3-oxidanyl-oxolan-2-yl]oxy-4,6-bis(azanyl)-3-oxidanyl-cyclohexyl]oxy-5-azanyl-3,4-bis(oxidanyl)oxan-2-yl]methyl]-2-azanyl-5-[bis(azanyl)methylideneamino]pentanamide
> <PUBCHEM_IUPAC_TRADITIONAL_NAME>
(2S)-2-amino-N-[[(2S,3S,4R,5R)-5-amino-6-[(2R,3S,4R,5S)-5-[(1R,2R,3S,5R,6S)-3,5-diamino-2-[(2R,3R,4R,5S,6R)-3-amino-6-(aminomethyl)-4,5-dihydroxy-tetrahydropyran-2-yl]oxy-6-hydroxy-cyclohexoxy]-4-hydroxy-2-methylol-tetrahydrofuran-3-yl]oxy-3,4-dihydroxy-tetrahydropyran-2-yl]methyl]-5-guanidino-valeramide;(2S)-2-amino-N-[[(2R,3S,4R,5R,6R)-5-amino-6-[(1R,2R,3S,4R,6S)-4,6-diamino-2-[(2S,3R,4S,5R)-4-[(3R,4R,5S,6S)-3-amino-6-(aminomethyl)-4,5-dihydroxy-tetrahydropyran-2-yl]oxy-3-hydroxy-5-methylol-tetrahydrofuran-2-yl]oxy-3-hydroxy-cyclohexoxy]-3,4-dihydroxy-tetrahydropyran-2-yl]methyl]-5-guanidino-valeramide
> <PUBCHEM_IUPAC_INCHI>
InChI=1S/2C29H58N10O14/c30-5-11-17(42)19(44)14(34)26(48-11)52-23-13(7-40)50-28(21(23)46)53-24-16(41)9(32)4-10(33)22(24)51-27-15(35)20(45)18(43)12(49-27)6-39-25(47)8(31)2-1-3-38-29(36)37;30-5-11-17(42)19(44)14(34)26(48-11)51-22-10(33)4-9(32)16(41)24(22)53-28-21(46)23(13(7-40)50-28)52-27-15(35)20(45)18(43)12(49-27)6-39-25(47)8(31)2-1-3-38-29(36)37/h2*8-24,26-28,40-46H,1-7,30-35H2,(H,39,47)(H4,36,37,38)/t8-,9+,10-,11-,12+,13+,14+,15+,16-,17+,18+,19+,20+,21+,22+,23+,24+,26?,27+,28-;8-,9+,10-,11+,12-,13+,14+,15+,16-,17+,18+,19+,20+,21+,22+,23+,24+,26+,27?,28-/m00/s1
> <PUBCHEM_IUPAC_INCHIKEY>
HBHCCIZSIAGSEQ-FASKWTFTSA-N
> <PUBCHEM_EXACT_MASS>
1540.8267931
> <PUBCHEM_MOLECULAR_FORMULA>
C58H116N20O28
> <PUBCHEM_MOLECULAR_WEIGHT>
1541.7
> <PUBCHEM_OPENEYE_CAN_SMILES>
C1C(C(C(C(C1N)OC2C(C(C(C(O2)CN)O)O)N)OC3C(C(C(O3)CO)OC4C(C(C(C(O4)CNC(=O)C(CCCN=C(N)N)N)O)O)N)O)O)N.C1C(C(C(C(C1N)OC2C(C(C(C(O2)CNC(=O)C(CCCN=C(N)N)N)O)O)N)OC3C(C(C(O3)CO)OC4C(C(C(C(O4)CN)O)O)N)O)O)N
> <PUBCHEM_OPENEYE_ISO_SMILES>
C1[C@H]([C@@H]([C@H]([C@@H]([C@H]1N)O[C@@H]2[C@@H]([C@H]([C@@H]([C@H](O2)CN)O)O)N)O[C@H]3[C@@H]([C@@H]([C@H](O3)CO)OC4[C@@H]([C@H]([C@@H]([C@@H](O4)CNC(=O)[C@H](CCCN=C(N)N)N)O)O)N)O)O)N.C1[C@H]([C@@H]([C@H]([C@@H]([C@H]1N)O[C@@H]2[C@@H]([C@H]([C@@H]([C@H](O2)CNC(=O)[C@H](CCCN=C(N)N)N)O)O)N)O[C@H]3[C@@H]([C@@H]([C@H](O3)CO)OC4[C@@H]([C@H]([C@@H]([C@@H](O4)CN)O)O)N)O)O)N
> <PUBCHEM_CACTVS_TPSA>
893
> <PUBCHEM_MONOISOTOPIC_WEIGHT>
1540.8267931
> <PUBCHEM_TOTAL_CHARGE>
0
> <PUBCHEM_HEAVY_ATOM_COUNT>
106
> <PUBCHEM_ATOM_DEF_STEREO_COUNT>
38
> <PUBCHEM_ATOM_UDEF_STEREO_COUNT>
2
> <PUBCHEM_BOND_DEF_STEREO_COUNT>
0
> <PUBCHEM_BOND_UDEF_STEREO_COUNT>
0
> <PUBCHEM_ISOTOPIC_ATOM_COUNT>
0
> <PUBCHEM_COMPONENT_COUNT>
2
> <PUBCHEM_CACTVS_TAUTO_COUNT>
-1
> <PUBCHEM_COORDINATE_TYPE>
1
5
255
> <PUBCHEM_BONDANNOTATIONS>
49  1  6
61  1  5
65  11  6
79  11  3
66  12  6
80  12  3
63  13  6
64  14  6
73  17  6
74  18  6
75  19  5
51  2  6
62  2  5
77  20  5
85  23  5
87  24  5
88  25  6
90  26  6
53  29  6
50  3  5
67  3  5
55  30  6
57  31  6
58  32  6
71  33  5
72  34  5
83  35  6
84  36  6
52  4  5
68  4  5
96  41  6
99  42  6
69  81  5
54  7  5
70  82  5
76  86  6
78  92  6
56  8  5
89  93  6
91  94  6
$$$$
