514195
  -OEChem-10302200282D
134137  0     1  0  0  0  0  0999 V2000
   11.4190   -0.2409    0.0000 O   0  0  0  0  0  0  0  0  0  0  0  0
   12.5945    1.3772    0.0000 O   0  0  0  0  0  0  0  0  0  0  0  0
    9.8312   -1.0499    0.0000 O   0  0  0  0  0  0  0  0  0  0  0  0
    9.4299   -0.0318    0.0000 O   0  0  0  0  0  0  0  0  0  0  0  0
   10.3312   -3.5887    0.0000 O   0  0  0  0  0  0  0  0  0  0  0  0
   13.6126    2.7784    0.0000 O   0  0  0  0  0  0  0  0  0  0  0  0
   12.0912   -2.3100    0.0000 O   0  0  0  0  0  0  0  0  0  0  0  0
    8.5991   -3.5887    0.0000 O   0  0  0  0  0  0  0  0  0  0  0  0
   16.0396    1.0151    0.0000 O   0  0  0  0  0  0  0  0  0  0  0  0
   16.2487    3.0041    0.0000 O   0  0  0  0  0  0  0  0  0  0  0  0
    7.8280   -1.6408    0.0000 O   0  0  0  0  0  0  0  0  0  0  0  0
    8.5991   -6.5887    0.0000 O   0  0  0  0  0  0  0  0  0  0  0  0
    6.8671   -5.5887    0.0000 O   0  0  0  0  0  0  0  0  0  0  0  0
   14.8397    6.1687    0.0000 O   0  0  0  0  0  0  0  0  0  0  0  0
    6.0010   -1.0887    0.0000 O   0  0  0  0  0  0  0  0  0  0  0  0
   11.2978    3.3898    0.0000 N   0  0  0  0  0  0  0  0  0  0  0  0
    8.6164    1.7953    0.0000 N   0  0  0  0  0  0  0  0  0  0  0  0
   14.2126    0.2016    0.0000 N   0  0  0  0  0  0  0  0  0  0  0  0
   10.3312   -5.5887    0.0000 N   0  0  0  0  0  0  0  0  0  0  0  0
   13.8217    4.7675    0.0000 N   0  0  0  0  0  0  0  0  0  0  0  0
    6.8671   -2.5887    0.0000 N   0  0  0  0  0  0  0  0  0  0  0  0
   13.2217    7.3443    0.0000 N   0  0  0  0  0  0  0  0  0  0  0  0
    4.2690   -2.0887    0.0000 N   0  0  0  0  0  0  0  0  0  0  0  0
    9.6720    6.7119    0.0000 N   0  0  0  0  0  0  0  0  0  0  0  0
    3.4030   -5.5887    0.0000 N   0  0  0  0  0  0  0  0  0  0  0  0
    7.9495    6.8929    0.0000 N   0  0  0  0  0  0  0  0  0  0  0  0
    8.6540    5.3106    0.0000 N   0  0  0  0  0  0  0  0  0  0  0  0
    2.5369   -7.0887    0.0000 N   0  0  0  0  0  0  0  0  0  0  0  0
    4.2690   -7.0887    0.0000 N   0  0  0  0  0  0  0  0  0  0  0  0
   11.0122    0.6727    0.0000 C   0  0  1  0  0  0  0  0  0  0  0  0
   11.6000    1.4817    0.0000 C   0  0  1  0  0  0  0  0  0  0  0  0
   11.1933    2.3952    0.0000 C   0  0  2  0  0  0  0  0  0  0  0  0
   10.0177    0.7772    0.0000 C   0  0  2  0  0  0  0  0  0  0  0  0
    9.6110    1.6908    0.0000 C   0  0  1  0  0  0  0  0  0  0  0  0
   10.1987    2.4998    0.0000 C   0  0  0  0  0  0  0  0  0  0  0  0
   10.8312   -1.0499    0.0000 C   0  0  2  0  0  0  0  0  0  0  0  0
   11.1402   -2.0009    0.0000 C   0  0  1  0  0  0  0  0  0  0  0  0
   10.3312   -2.5887    0.0000 C   0  0  1  0  0  0  0  0  0  0  0  0
   13.5081    1.7839    0.0000 C   0  0  1  0  0  0  0  0  0  0  0  0
    9.5222   -2.0009    0.0000 C   0  0  1  0  0  0  0  0  0  0  0  0
   14.3171    1.1961    0.0000 C   0  0  1  0  0  0  0  0  0  0  0  0
   15.2306    1.6029    0.0000 C   0  0  2  0  0  0  0  0  0  0  0  0
   15.3352    2.5974    0.0000 C   0  0  1  0  0  0  0  0  0  0  0  0
   14.5261    3.1852    0.0000 C   0  0  1  0  0  0  0  0  0  0  0  0
    9.4651   -4.0887    0.0000 C   0  0  3  0  0  0  0  0  0  0  0  0
    9.4651   -5.0887    0.0000 C   0  0  1  0  0  0  0  0  0  0  0  0
    8.5711   -2.3100    0.0000 C   0  0  0  0  0  0  0  0  0  0  0  0
    8.5991   -5.5887    0.0000 C   0  0  2  0  0  0  0  0  0  0  0  0
    7.7331   -5.0887    0.0000 C   0  0  1  0  0  0  0  0  0  0  0  0
    7.7331   -4.0887    0.0000 C   0  0  2  0  0  0  0  0  0  0  0  0
   14.6307    4.1797    0.0000 C   0  0  0  0  0  0  0  0  0  0  0  0
    6.8671   -3.5887    0.0000 C   0  0  0  0  0  0  0  0  0  0  0  0
   13.9262    5.7620    0.0000 C   0  0  0  0  0  0  0  0  0  0  0  0
   13.1172    6.3498    0.0000 C   0  0  2  0  0  0  0  0  0  0  0  0
    6.0010   -2.0887    0.0000 C   0  0  0  0  0  0  0  0  0  0  0  0
    5.1350   -2.5887    0.0000 C   0  0  2  0  0  0  0  0  0  0  0  0
   12.2036    5.9430    0.0000 C   0  0  0  0  0  0  0  0  0  0  0  0
    5.1350   -3.5887    0.0000 C   0  0  0  0  0  0  0  0  0  0  0  0
   11.3946    6.5308    0.0000 C   0  0  0  0  0  0  0  0  0  0  0  0
    4.2690   -4.0887    0.0000 C   0  0  0  0  0  0  0  0  0  0  0  0
   10.4811    6.1241    0.0000 C   0  0  0  0  0  0  0  0  0  0  0  0
    4.2690   -5.0887    0.0000 C   0  0  0  0  0  0  0  0  0  0  0  0
    8.7585    6.3051    0.0000 C   0  0  0  0  0  0  0  0  0  0  0  0
    3.4030   -6.5887    0.0000 C   0  0  0  0  0  0  0  0  0  0  0  0
   10.6478    0.1711    0.0000 H   0  0  0  0  0  0  0  0  0  0  0  0
   11.8522    0.9153    0.0000 H   0  0  0  0  0  0  0  0  0  0  0  0
   11.8056    2.4922    0.0000 H   0  0  0  0  0  0  0  0  0  0  0  0
    9.4011    0.8420    0.0000 H   0  0  0  0  0  0  0  0  0  0  0  0
    9.3588    2.2572    0.0000 H   0  0  0  0  0  0  0  0  0  0  0  0
   10.3696    3.0957    0.0000 H   0  0  0  0  0  0  0  0  0  0  0  0
    9.6415    2.7716    0.0000 H   0  0  0  0  0  0  0  0  0  0  0  0
   10.5497   -0.4975    0.0000 H   0  0  0  0  0  0  0  0  0  0  0  0
   11.2372   -2.6133    0.0000 H   0  0  0  0  0  0  0  0  0  0  0  0
   10.8836   -2.8702    0.0000 H   0  0  0  0  0  0  0  0  0  0  0  0
   13.0065    2.1483    0.0000 H   0  0  0  0  0  0  0  0  0  0  0  0
    9.0837   -1.5625    0.0000 H   0  0  0  0  0  0  0  0  0  0  0  0
   13.7507    0.9439    0.0000 H   0  0  0  0  0  0  0  0  0  0  0  0
   15.1658    0.9863    0.0000 H   0  0  0  0  0  0  0  0  0  0  0  0
   10.7962    3.7542    0.0000 H   0  0  0  0  0  0  0  0  0  0  0  0
   11.8642    3.6419    0.0000 H   0  0  0  0  0  0  0  0  0  0  0  0
   15.8367    2.2330    0.0000 H   0  0  0  0  0  0  0  0  0  0  0  0
    8.3643    2.3617    0.0000 H   0  0  0  0  0  0  0  0  0  0  0  0
    8.2520    1.2937    0.0000 H   0  0  0  0  0  0  0  0  0  0  0  0
   14.0245    3.5496    0.0000 H   0  0  0  0  0  0  0  0  0  0  0  0
   10.0021   -4.3987    0.0000 H   0  0  0  0  0  0  0  0  0  0  0  0
    8.8133    0.0330    0.0000 H   0  0  0  0  0  0  0  0  0  0  0  0
    9.4651   -5.7087    0.0000 H   0  0  0  0  0  0  0  0  0  0  0  0
    8.0825   -2.6917    0.0000 H   0  0  0  0  0  0  0  0  0  0  0  0
    8.8622   -2.8574    0.0000 H   0  0  0  0  0  0  0  0  0  0  0  0
    8.0622   -5.8987    0.0000 H   0  0  0  0  0  0  0  0  0  0  0  0
    7.1962   -4.7787    0.0000 H   0  0  0  0  0  0  0  0  0  0  0  0
    7.7331   -3.4687    0.0000 H   0  0  0  0  0  0  0  0  0  0  0  0
   15.2267    4.0088    0.0000 H   0  0  0  0  0  0  0  0  0  0  0  0
   14.9025    4.7369    0.0000 H   0  0  0  0  0  0  0  0  0  0  0  0
   12.5520   -1.8951    0.0000 H   0  0  0  0  0  0  0  0  0  0  0  0
   14.7141   -0.1628    0.0000 H   0  0  0  0  0  0  0  0  0  0  0  0
   13.6462   -0.0506    0.0000 H   0  0  0  0  0  0  0  0  0  0  0  0
    6.2565   -3.4811    0.0000 H   0  0  0  0  0  0  0  0  0  0  0  0
    6.6550   -4.1713    0.0000 H   0  0  0  0  0  0  0  0  0  0  0  0
   16.6060    1.2672    0.0000 H   0  0  0  0  0  0  0  0  0  0  0  0
   16.3135    3.6207    0.0000 H   0  0  0  0  0  0  0  0  0  0  0  0
   10.3312   -6.2087    0.0000 H   0  0  0  0  0  0  0  0  0  0  0  0
   10.8681   -5.2787    0.0000 H   0  0  0  0  0  0  0  0  0  0  0  0
   13.2553    4.5153    0.0000 H   0  0  0  0  0  0  0  0  0  0  0  0
    7.9568   -1.0344    0.0000 H   0  0  0  0  0  0  0  0  0  0  0  0
    8.0622   -6.8987    0.0000 H   0  0  0  0  0  0  0  0  0  0  0  0
    6.3301   -5.2787    0.0000 H   0  0  0  0  0  0  0  0  0  0  0  0
    7.4040   -2.2787    0.0000 H   0  0  0  0  0  0  0  0  0  0  0  0
   12.6156    6.7142    0.0000 H   0  0  0  0  0  0  0  0  0  0  0  0
    5.1350   -1.9687    0.0000 H   0  0  0  0  0  0  0  0  0  0  0  0
   11.7576    5.5124    0.0000 H   0  0  0  0  0  0  0  0  0  0  0  0
   12.5503    5.4290    0.0000 H   0  0  0  0  0  0  0  0  0  0  0  0
    5.3471   -4.1713    0.0000 H   0  0  0  0  0  0  0  0  0  0  0  0
    5.7456   -3.4811    0.0000 H   0  0  0  0  0  0  0  0  0  0  0  0
   12.7201    7.7087    0.0000 H   0  0  0  0  0  0  0  0  0  0  0  0
   13.7881    7.5965    0.0000 H   0  0  0  0  0  0  0  0  0  0  0  0
   11.8406    6.9615    0.0000 H   0  0  0  0  0  0  0  0  0  0  0  0
   11.0479    7.0448    0.0000 H   0  0  0  0  0  0  0  0  0  0  0  0
    3.7320   -2.3987    0.0000 H   0  0  0  0  0  0  0  0  0  0  0  0
    4.2690   -1.4687    0.0000 H   0  0  0  0  0  0  0  0  0  0  0  0
    4.0569   -3.5061    0.0000 H   0  0  0  0  0  0  0  0  0  0  0  0
    3.6584   -4.1964    0.0000 H   0  0  0  0  0  0  0  0  0  0  0  0
   10.0351    5.6934    0.0000 H   0  0  0  0  0  0  0  0  0  0  0  0
   10.8278    5.6101    0.0000 H   0  0  0  0  0  0  0  0  0  0  0  0
    4.4810   -5.6713    0.0000 H   0  0  0  0  0  0  0  0  0  0  0  0
    4.8796   -4.9811    0.0000 H   0  0  0  0  0  0  0  0  0  0  0  0
    8.0143    7.5095    0.0000 H   0  0  0  0  0  0  0  0  0  0  0  0
    7.3831    6.6408    0.0000 H   0  0  0  0  0  0  0  0  0  0  0  0
    8.0876    5.0584    0.0000 H   0  0  0  0  0  0  0  0  0  0  0  0
    9.1556    4.9462    0.0000 H   0  0  0  0  0  0  0  0  0  0  0  0
    2.5369   -7.7087    0.0000 H   0  0  0  0  0  0  0  0  0  0  0  0
    2.0000   -6.7787    0.0000 H   0  0  0  0  0  0  0  0  0  0  0  0
    4.2690   -7.7087    0.0000 H   0  0  0  0  0  0  0  0  0  0  0  0
    4.8059   -6.7787    0.0000 H   0  0  0  0  0  0  0  0  0  0  0  0
 30  1  1  6  0  0  0
 36  1  1  1  0  0  0
 31  2  1  1  0  0  0
 39  2  1  1  0  0  0
  3 36  1  0  0  0  0
  3 40  1  0  0  0  0
 33  4  1  1  0  0  0
  4 86  1  0  0  0  0
 38  5  1  6  0  0  0
  5 45  1  0  0  0  0
  6 39  1  0  0  0  0
  6 44  1  0  0  0  0
 37  7  1  6  0  0  0
  7 95  1  0  0  0  0
  8 45  1  0  0  0  0
  8 50  1  0  0  0  0
 42  9  1  6  0  0  0
  9100  1  0  0  0  0
 43 10  1  1  0  0  0
 10101  1  0  0  0  0
 11 47  1  0  0  0  0
 11105  1  0  0  0  0
 48 12  1  1  0  0  0
 12106  1  0  0  0  0
 49 13  1  6  0  0  0
 13107  1  0  0  0  0
 14 53  2  0  0  0  0
 15 55  2  0  0  0  0
 32 16  1  6  0  0  0
 16 79  1  0  0  0  0
 16 80  1  0  0  0  0
 34 17  1  6  0  0  0
 17 82  1  0  0  0  0
 17 83  1  0  0  0  0
 41 18  1  1  0  0  0
 18 96  1  0  0  0  0
 18 97  1  0  0  0  0
 46 19  1  6  0  0  0
 19102  1  0  0  0  0
 19103  1  0  0  0  0
 20 51  1  0  0  0  0
 20 53  1  0  0  0  0
 20104  1  0  0  0  0
 21 52  1  0  0  0  0
 21 55  1  0  0  0  0
 21108  1  0  0  0  0
 54 22  1  6  0  0  0
 22115  1  0  0  0  0
 22116  1  0  0  0  0
 56 23  1  6  0  0  0
 23119  1  0  0  0  0
 23120  1  0  0  0  0
 24 61  1  0  0  0  0
 24 63  2  0  0  0  0
 25 62  1  0  0  0  0
 25 64  2  0  0  0  0
 26 63  1  0  0  0  0
 26127  1  0  0  0  0
 26128  1  0  0  0  0
 27 63  1  0  0  0  0
 27129  1  0  0  0  0
 27130  1  0  0  0  0
 28 64  1  0  0  0  0
 28131  1  0  0  0  0
 28132  1  0  0  0  0
 29 64  1  0  0  0  0
 29133  1  0  0  0  0
 29134  1  0  0  0  0
 30 31  1  0  0  0  0
 30 33  1  0  0  0  0
 30 65  1  0  0  0  0
 31 32  1  0  0  0  0
 31 66  1  0  0  0  0
 32 35  1  0  0  0  0
 32 67  1  0  0  0  0
 33 34  1  0  0  0  0
 33 68  1  0  0  0  0
 34 35  1  0  0  0  0
 34 69  1  0  0  0  0
 35 70  1  0  0  0  0
 35 71  1  0  0  0  0
 36 37  1  0  0  0  0
 36 72  1  0  0  0  0
 37 38  1  0  0  0  0
 37 73  1  0  0  0  0
 38 40  1  0  0  0  0
 38 74  1  0  0  0  0
 39 41  1  0  0  0  0
 39 75  1  0  0  0  0
 40 47  1  1  0  0  0
 40 76  1  0  0  0  0
 41 42  1  0  0  0  0
 41 77  1  0  0  0  0
 42 43  1  0  0  0  0
 42 78  1  0  0  0  0
 43 44  1  0  0  0  0
 43 81  1  0  0  0  0
 44 51  1  6  0  0  0
 44 84  1  0  0  0  0
 45 46  1  0  0  0  0
 45 85  1  0  0  0  0
 46 48  1  0  0  0  0
 46 87  1  0  0  0  0
 47 88  1  0  0  0  0
 47 89  1  0  0  0  0
 48 49  1  0  0  0  0
 48 90  1  0  0  0  0
 49 50  1  0  0  0  0
 49 91  1  0  0  0  0
 50 52  1  6  0  0  0
 50 92  1  0  0  0  0
 51 93  1  0  0  0  0
 51 94  1  0  0  0  0
 52 98  1  0  0  0  0
 52 99  1  0  0  0  0
 53 54  1  0  0  0  0
 54 57  1  0  0  0  0
 54109  1  0  0  0  0
 55 56  1  0  0  0  0
 56 58  1  0  0  0  0
 56110  1  0  0  0  0
 57 59  1  0  0  0  0
 57111  1  0  0  0  0
 57112  1  0  0  0  0
 58 60  1  0  0  0  0
 58113  1  0  0  0  0
 58114  1  0  0  0  0
 59 61  1  0  0  0  0
 59117  1  0  0  0  0
 59118  1  0  0  0  0
 60 62  1  0  0  0  0
 60121  1  0  0  0  0
 60122  1  0  0  0  0
 61123  1  0  0  0  0
 61124  1  0  0  0  0
 62125  1  0  0  0  0
 62126  1  0  0  0  0
M  END
> <PUBCHEM_COMPOUND_CID>
514195
> <PUBCHEM_COMPOUND_CANONICALIZED>
1
> <PUBCHEM_CACTVS_COMPLEXITY>
1540
> <PUBCHEM_CACTVS_HBOND_ACCEPTOR>
23
> <PUBCHEM_CACTVS_HBOND_DONOR>
19
> <PUBCHEM_CACTVS_ROTATABLE_BOND>
21
> <PUBCHEM_CACTVS_SUBSKEYS>
AAADcfB//AAAAAAAAAAAAAAAAAAAASAAAAA0SIAAAAAAAAAAAAAAHgAQCAAACDzxgAcBCALABgAoAAEQNAAAAAEAAAAAAIGIAAATUBIAwAA3QAAHFgCXAAH4cQ0AAAAAAAAAAAAAgAAUCACgAAAAAAAAAA==
> <PUBCHEM_IUPAC_OPENEYE_NAME>
(2S)-2-amino-N-[[(2R,3S,4R,5R,6R)-5-amino-6-[(1R,2R,3S,4R,6S)-4,6-diamino-2-[(2S,3R,4S,5R)-4-[(3R,4R,5S,6S)-3-amino-6-[[[(2S)-2-amino-5-guanidino-pentanoyl]amino]methyl]-4,5-dihydroxy-tetrahydropyran-2-yl]oxy-3-hydroxy-5-(hydroxymethyl)tetrahydrofuran-2-yl]oxy-3-hydroxy-cyclohexoxy]-3,4-dihydroxy-tetrahydropyran-2-yl]methyl]-5-guanidino-pentanamide
> <PUBCHEM_IUPAC_CAS_NAME>
(2S)-2-amino-N-[[(2R,3S,4R,5R,6R)-5-amino-6-[(1R,2R,3S,4R,6S)-4,6-diamino-2-[[(2S,3R,4S,5R)-4-[[(3R,4R,5S,6S)-3-amino-6-[[[(2S)-2-amino-5-(diaminomethylideneamino)-1-oxopentyl]amino]methyl]-4,5-dihydroxy-2-oxanyl]oxy]-3-hydroxy-5-(hydroxymethyl)-2-oxolanyl]oxy]-3-hydroxycyclohexyl]oxy-3,4-dihydroxy-2-oxanyl]methyl]-5-(diaminomethylideneamino)pentanamide
> <PUBCHEM_IUPAC_NAME_MARKUP>
(2<I>S</I>)-2-amino-<I>N</I>-[[(2<I>R</I>,3<I>S</I>,4<I>R</I>,5<I>R</I>,6<I>R</I>)-5-amino-6-[(1<I>R</I>,2<I>R</I>,3<I>S</I>,4<I>R</I>,6<I>S</I>)-4,6-diamino-2-[(2<I>S</I>,3<I>R</I>,4<I>S</I>,5<I>R</I>)-4-[(3<I>R</I>,4<I>R</I>,5<I>S</I>,6<I>S</I>)-3-amino-6-[[[(2<I>S</I>)-2-amino-5-(diaminomethylideneamino)pentanoyl]amino]methyl]-4,5-dihydroxyoxan-2-yl]oxy-3-hydroxy-5-(hydroxymethyl)oxolan-2-yl]oxy-3-hydroxycyclohexyl]oxy-3,4-dihydroxyoxan-2-yl]methyl]-5-(diaminomethylideneamino)pentanamide
> <PUBCHEM_IUPAC_NAME>
(2S)-2-amino-N-[[(2R,3S,4R,5R,6R)-5-amino-6-[(1R,2R,3S,4R,6S)-4,6-diamino-2-[(2S,3R,4S,5R)-4-[(3R,4R,5S,6S)-3-amino-6-[[[(2S)-2-amino-5-(diaminomethylideneamino)pentanoyl]amino]methyl]-4,5-dihydroxyoxan-2-yl]oxy-3-hydroxy-5-(hydroxymethyl)oxolan-2-yl]oxy-3-hydroxycyclohexyl]oxy-3,4-dihydroxyoxan-2-yl]methyl]-5-(diaminomethylideneamino)pentanamide
> <PUBCHEM_IUPAC_SYSTEMATIC_NAME>
(2S)-2-azanyl-N-[[(2R,3S,4R,5R,6R)-5-azanyl-6-[(1R,2R,3S,4R,6S)-4,6-bis(azanyl)-2-[(2S,3R,4S,5R)-4-[(3R,4R,5S,6S)-3-azanyl-6-[[[(2S)-2-azanyl-5-[bis(azanyl)methylideneamino]pentanoyl]amino]methyl]-4,5-bis(oxidanyl)oxan-2-yl]oxy-5-(hydroxymethyl)-3-oxidanyl-oxolan-2-yl]oxy-3-oxidanyl-cyclohexyl]oxy-3,4-bis(oxidanyl)oxan-2-yl]methyl]-5-[bis(azanyl)methylideneamino]pentanamide
> <PUBCHEM_IUPAC_TRADITIONAL_NAME>
(2S)-2-amino-N-[[(2R,3S,4R,5R,6R)-5-amino-6-[(1R,2R,3S,4R,6S)-4,6-diamino-2-[(2S,3R,4S,5R)-4-[(3R,4R,5S,6S)-3-amino-6-[[[(2S)-2-amino-5-guanidino-pentanoyl]amino]methyl]-4,5-dihydroxy-tetrahydropyran-2-yl]oxy-3-hydroxy-5-methylol-tetrahydrofuran-2-yl]oxy-3-hydroxy-cyclohexoxy]-3,4-dihydroxy-tetrahydropyran-2-yl]methyl]-5-guanidino-valeramide
> <PUBCHEM_IUPAC_INCHI>
InChI=1S/C35H70N14O15/c36-11(3-1-5-46-34(42)43)29(57)48-8-15-21(52)23(54)18(40)31(59-15)62-26-14(39)7-13(38)20(51)28(26)64-33-25(56)27(17(10-50)61-33)63-32-19(41)24(55)22(53)16(60-32)9-49-30(58)12(37)4-2-6-47-35(44)45/h11-28,31-33,50-56H,1-10,36-41H2,(H,48,57)(H,49,58)(H4,42,43,46)(H4,44,45,47)/t11-,12-,13+,14-,15+,16-,17+,18+,19+,20-,21+,22+,23+,24+,25+,26+,27+,28+,31+,32?,33-/m0/s1
> <PUBCHEM_IUPAC_INCHIKEY>
GSCOXTMXYNDAFF-GKLAWHDLSA-N
> <PUBCHEM_XLOGP3_AA>
-11.9
> <PUBCHEM_EXACT_MASS>
926.51450758
> <PUBCHEM_MOLECULAR_FORMULA>
C35H70N14O15
> <PUBCHEM_MOLECULAR_WEIGHT>
927.0
> <PUBCHEM_OPENEYE_CAN_SMILES>
C1C(C(C(C(C1N)OC2C(C(C(C(O2)CNC(=O)C(CCCN=C(N)N)N)O)O)N)OC3C(C(C(O3)CO)OC4C(C(C(C(O4)CNC(=O)C(CCCN=C(N)N)N)O)O)N)O)O)N
> <PUBCHEM_OPENEYE_ISO_SMILES>
C1[C@H]([C@@H]([C@H]([C@@H]([C@H]1N)O[C@@H]2[C@@H]([C@H]([C@@H]([C@H](O2)CNC(=O)[C@H](CCCN=C(N)N)N)O)O)N)O[C@H]3[C@@H]([C@@H]([C@H](O3)CO)OC4[C@@H]([C@H]([C@@H]([C@@H](O4)CNC(=O)[C@H](CCCN=C(N)N)N)O)O)N)O)O)N
> <PUBCHEM_CACTVS_TPSA>
540
> <PUBCHEM_MONOISOTOPIC_WEIGHT>
926.51450758
> <PUBCHEM_TOTAL_CHARGE>
0
> <PUBCHEM_HEAVY_ATOM_COUNT>
64
> <PUBCHEM_ATOM_DEF_STEREO_COUNT>
20
> <PUBCHEM_ATOM_UDEF_STEREO_COUNT>
1
> <PUBCHEM_BOND_DEF_STEREO_COUNT>
0
> <PUBCHEM_BOND_UDEF_STEREO_COUNT>
0
> <PUBCHEM_ISOTOPIC_ATOM_COUNT>
0
> <PUBCHEM_COMPONENT_COUNT>
1
> <PUBCHEM_CACTVS_TAUTO_COUNT>
-1
> <PUBCHEM_COORDINATE_TYPE>
1
5
255
> <PUBCHEM_BONDANNOTATIONS>
30  1  6
36  1  5
43  10  5
48  12  5
49  13  6
32  16  6
34  17  6
41  18  5
46  19  6
31  2  5
39  2  5
54  22  6
56  23  6
33  4  5
40  47  5
44  51  6
38  5  6
45  5  3
50  52  6
37  7  6
42  9  6
$$$$
