514135
  -OEChem-10302200282D
 67 70  0     1  0  0  0  0  0999 V2000
    8.7832   -2.9946    0.0000 S   0  0  0  0  0  0  0  0  0  0  0  0
    3.4022   -0.9776    0.0000 S   0  0  0  0  0  0  0  0  0  0  0  0
    7.9152   -2.4979    0.0000 O   0  0  0  0  0  0  0  0  0  0  0  0
    4.2663   -1.4810    0.0000 O   0  0  0  0  0  0  0  0  0  0  0  0
   10.2484    3.5709    0.0000 O   0  0  0  0  0  0  0  0  0  0  0  0
   12.2054    3.9834    0.0000 O   0  0  0  0  0  0  0  0  0  0  0  0
    9.6511   -3.4912    0.0000 O   0  0  0  0  0  0  0  0  0  0  0  0
    8.2865   -3.8625    0.0000 O   0  0  0  0  0  0  0  0  0  0  0  0
    9.2798   -2.1266    0.0000 O   0  0  0  0  0  0  0  0  0  0  0  0
    2.5381   -0.4743    0.0000 O   0  0  0  0  0  0  0  0  0  0  0  0
    2.8989   -1.8417    0.0000 O   0  0  0  0  0  0  0  0  0  0  0  0
    3.9056   -0.1135    0.0000 O   0  0  0  0  0  0  0  0  0  0  0  0
    7.9273    0.5714    0.0000 C   0  0  3  0  0  0  0  0  0  0  0  0
    8.7934    0.0714    0.0000 C   0  0  3  0  0  0  0  0  0  0  0  0
    9.6594    0.5714    0.0000 C   0  0  3  0  0  0  0  0  0  0  0  0
    7.0173    0.0645    0.0000 C   0  0  3  0  0  0  0  0  0  0  0  0
    9.6594    1.5714    0.0000 C   0  0  3  0  0  0  0  0  0  0  0  0
    7.0093   -0.9771    0.0000 C   0  0  1  0  0  0  0  0  0  0  0  0
    7.9273    1.5714    0.0000 C   0  0  0  0  0  0  0  0  0  0  0  0
    8.7934    2.0714    0.0000 C   0  0  0  0  0  0  0  0  0  0  0  0
    8.8094   -0.9701    0.0000 C   0  0  0  0  0  0  0  0  0  0  0  0
   10.6056    1.8761    0.0000 C   0  0  3  0  0  0  0  0  0  0  0  0
    7.9114   -1.4979    0.0000 C   0  0  2  0  0  0  0  0  0  0  0  0
   10.6056    0.2666    0.0000 C   0  0  0  0  0  0  0  0  0  0  0  0
    6.0905    0.6286    0.0000 C   0  0  0  0  0  0  0  0  0  0  0  0
   11.1892    1.0714    0.0000 C   0  0  0  0  0  0  0  0  0  0  0  0
    6.0739   -1.5268    0.0000 C   0  0  0  0  0  0  0  0  0  0  0  0
    7.0250    1.0645    0.0000 C   0  0  0  0  0  0  0  0  0  0  0  0
    9.6594    2.5714    0.0000 C   0  0  0  0  0  0  0  0  0  0  0  0
    5.1426    0.1006    0.0000 C   0  0  0  0  0  0  0  0  0  0  0  0
    5.1343   -0.9843    0.0000 C   0  0  2  0  0  0  0  0  0  0  0  0
   10.9163    2.8266    0.0000 C   0  0  0  0  0  0  0  0  0  0  0  0
   11.8948    3.0328    0.0000 C   0  0  0  0  0  0  0  0  0  0  0  0
    8.4643    0.8814    0.0000 H   0  0  0  0  0  0  0  0  0  0  0  0
    9.3327   -0.2345    0.0000 H   0  0  0  0  0  0  0  0  0  0  0  0
    9.7250   -0.0452    0.0000 H   0  0  0  0  0  0  0  0  0  0  0  0
    7.0126   -1.8271    0.0000 H   0  0  0  0  0  0  0  0  0  0  0  0
    7.7153    2.1540    0.0000 H   0  0  0  0  0  0  0  0  0  0  0  0
    7.3168    1.4637    0.0000 H   0  0  0  0  0  0  0  0  0  0  0  0
    9.1919    2.5463    0.0000 H   0  0  0  0  0  0  0  0  0  0  0  0
    8.3948    2.5463    0.0000 H   0  0  0  0  0  0  0  0  0  0  0  0
    9.0275   -1.5506    0.0000 H   0  0  0  0  0  0  0  0  0  0  0  0
    9.4186   -0.8546    0.0000 H   0  0  0  0  0  0  0  0  0  0  0  0
   10.1682    2.3154    0.0000 H   0  0  0  0  0  0  0  0  0  0  0  0
    8.4501   -1.8048    0.0000 H   0  0  0  0  0  0  0  0  0  0  0  0
   10.3546   -0.3003    0.0000 H   0  0  0  0  0  0  0  0  0  0  0  0
   11.1430   -0.0426    0.0000 H   0  0  0  0  0  0  0  0  0  0  0  0
    6.4987    1.0952    0.0000 H   0  0  0  0  0  0  0  0  0  0  0  0
    5.7006    1.1106    0.0000 H   0  0  0  0  0  0  0  0  0  0  0  0
   11.6501    0.6566    0.0000 H   0  0  0  0  0  0  0  0  0  0  0  0
   11.6501    1.4861    0.0000 H   0  0  0  0  0  0  0  0  0  0  0  0
    5.6766   -2.0028    0.0000 H   0  0  0  0  0  0  0  0  0  0  0  0
    6.4748   -1.9997    0.0000 H   0  0  0  0  0  0  0  0  0  0  0  0
    7.6450    1.0597    0.0000 H   0  0  0  0  0  0  0  0  0  0  0  0
    7.0298    1.6845    0.0000 H   0  0  0  0  0  0  0  0  0  0  0  0
    6.4051    1.0693    0.0000 H   0  0  0  0  0  0  0  0  0  0  0  0
   10.2794    2.5714    0.0000 H   0  0  0  0  0  0  0  0  0  0  0  0
    9.6594    3.1914    0.0000 H   0  0  0  0  0  0  0  0  0  0  0  0
    9.0394    2.5714    0.0000 H   0  0  0  0  0  0  0  0  0  0  0  0
    4.9381    0.6859    0.0000 H   0  0  0  0  0  0  0  0  0  0  0  0
    4.5310   -0.0007    0.0000 H   0  0  0  0  0  0  0  0  0  0  0  0
    4.5991   -0.6712    0.0000 H   0  0  0  0  0  0  0  0  0  0  0  0
   11.9153    2.4132    0.0000 H   0  0  0  0  0  0  0  0  0  0  0  0
   12.5086    2.9455    0.0000 H   0  0  0  0  0  0  0  0  0  0  0  0
   12.8121    4.1112    0.0000 H   0  0  0  0  0  0  0  0  0  0  0  0
    9.6535   -4.1112    0.0000 H   0  0  0  0  0  0  0  0  0  0  0  0
    2.0000   -0.7822    0.0000 H   0  0  0  0  0  0  0  0  0  0  0  0
  1  3  1  0  0  0  0
  1  7  1  0  0  0  0
  1  8  2  0  0  0  0
  1  9  2  0  0  0  0
  2  4  1  0  0  0  0
  2 10  1  0  0  0  0
  2 11  2  0  0  0  0
  2 12  2  0  0  0  0
 23  3  1  6  0  0  0
 31  4  1  1  0  0  0
  5 32  2  0  0  0  0
  6 33  1  0  0  0  0
  6 65  1  0  0  0  0
  7 66  1  0  0  0  0
 10 67  1  0  0  0  0
 13 14  1  0  0  0  0
 13 16  1  0  0  0  0
 13 19  1  0  0  0  0
 13 34  1  0  0  0  0
 14 15  1  0  0  0  0
 14 21  1  0  0  0  0
 14 35  1  0  0  0  0
 15 17  1  0  0  0  0
 15 24  1  0  0  0  0
 15 36  1  0  0  0  0
 16 18  1  0  0  0  0
 16 25  1  0  0  0  0
 16 28  1  0  0  0  0
 17 20  1  0  0  0  0
 17 22  1  0  0  0  0
 17 29  1  0  0  0  0
 18 23  1  0  0  0  0
 18 27  1  0  0  0  0
 18 37  1  6  0  0  0
 19 20  1  0  0  0  0
 19 38  1  0  0  0  0
 19 39  1  0  0  0  0
 20 40  1  0  0  0  0
 20 41  1  0  0  0  0
 21 23  1  0  0  0  0
 21 42  1  0  0  0  0
 21 43  1  0  0  0  0
 22 26  1  0  0  0  0
 22 32  1  0  0  0  0
 22 44  1  0  0  0  0
 23 45  1  0  0  0  0
 24 26  1  0  0  0  0
 24 46  1  0  0  0  0
 24 47  1  0  0  0  0
 25 30  1  0  0  0  0
 25 48  1  0  0  0  0
 25 49  1  0  0  0  0
 26 50  1  0  0  0  0
 26 51  1  0  0  0  0
 27 31  1  0  0  0  0
 27 52  1  0  0  0  0
 27 53  1  0  0  0  0
 28 54  1  0  0  0  0
 28 55  1  0  0  0  0
 28 56  1  0  0  0  0
 29 57  1  0  0  0  0
 29 58  1  0  0  0  0
 29 59  1  0  0  0  0
 30 31  1  0  0  0  0
 30 60  1  0  0  0  0
 30 61  1  0  0  0  0
 31 62  1  0  0  0  0
 32 33  1  0  0  0  0
 33 63  1  0  0  0  0
 33 64  1  0  0  0  0
M  END
> <PUBCHEM_COMPOUND_CID>
514135
> <PUBCHEM_COMPOUND_CANONICALIZED>
1
> <PUBCHEM_CACTVS_COMPLEXITY>
984
> <PUBCHEM_CACTVS_HBOND_ACCEPTOR>
10
> <PUBCHEM_CACTVS_HBOND_DONOR>
3
> <PUBCHEM_CACTVS_ROTATABLE_BOND>
6
> <PUBCHEM_CACTVS_SUBSKEYS>
AAADcfB4PABgAAAAAAAAAAAAAAAAAYAAAAAwYMAAAAAAAGDAAAAAGgAACAAADxSggAICAAAAAoAIAIAQADIAAAAAAAAAAAFAAAAAEBIAAAAAQAAEAAAAAAHIyPCPgAAAAAAAAADAAAYAADAAAQAACAAAAA==
> <PUBCHEM_IUPAC_OPENEYE_NAME>
[(3S,5S,6S)-17-(2-hydroxyacetyl)-10,13-dimethyl-3-sulfooxy-2,3,4,5,6,7,8,9,11,12,14,15,16,17-tetradecahydro-1H-cyclopenta[a]phenanthren-6-yl] hydrogen sulfate
> <PUBCHEM_IUPAC_CAS_NAME>
sulfuric acid [(3S,5S,6S)-17-(2-hydroxy-1-oxoethyl)-10,13-dimethyl-3-sulfooxy-2,3,4,5,6,7,8,9,11,12,14,15,16,17-tetradecahydro-1H-cyclopenta[a]phenanthren-6-yl] ester
> <PUBCHEM_IUPAC_NAME_MARKUP>
[(3<I>S</I>,5<I>S</I>,6<I>S</I>)-17-(2-hydroxyacetyl)-10,13-dimethyl-3-sulfooxy-2,3,4,5,6,7,8,9,11,12,14,15,16,17-tetradecahydro-1<I>H</I>-cyclopenta[a]phenanthren-6-yl] hydrogen sulfate
> <PUBCHEM_IUPAC_NAME>
[(3S,5S,6S)-17-(2-hydroxyacetyl)-10,13-dimethyl-3-sulfooxy-2,3,4,5,6,7,8,9,11,12,14,15,16,17-tetradecahydro-1H-cyclopenta[a]phenanthren-6-yl] hydrogen sulfate
> <PUBCHEM_IUPAC_SYSTEMATIC_NAME>
[(3S,5S,6S)-10,13-dimethyl-17-(2-oxidanylethanoyl)-3-sulfooxy-2,3,4,5,6,7,8,9,11,12,14,15,16,17-tetradecahydro-1H-cyclopenta[a]phenanthren-6-yl] hydrogen sulfate
> <PUBCHEM_IUPAC_TRADITIONAL_NAME>
sulfuric acid [(3S,5S,6S)-17-glycoloyl-10,13-dimethyl-3-sulfoxy-2,3,4,5,6,7,8,9,11,12,14,15,16,17-tetradecahydro-1H-cyclopenta[a]phenanthren-6-yl] ester
> <PUBCHEM_IUPAC_INCHI>
InChI=1S/C21H34O10S2/c1-20-8-6-15-13(14(20)3-4-16(20)18(23)11-22)10-19(31-33(27,28)29)17-9-12(30-32(24,25)26)5-7-21(15,17)2/h12-17,19,22H,3-11H2,1-2H3,(H,24,25,26)(H,27,28,29)/t12-,13?,14?,15?,16?,17+,19-,20?,21?/m0/s1
> <PUBCHEM_IUPAC_INCHIKEY>
ASZFMOOVDXQXOA-SZOMJPFOSA-N
> <PUBCHEM_XLOGP3_AA>
2.1
> <PUBCHEM_EXACT_MASS>
510.15933962
> <PUBCHEM_MOLECULAR_FORMULA>
C21H34O10S2
> <PUBCHEM_MOLECULAR_WEIGHT>
510.6
> <PUBCHEM_OPENEYE_CAN_SMILES>
CC12CCC3C(C1CCC2C(=O)CO)CC(C4C3(CCC(C4)OS(=O)(=O)O)C)OS(=O)(=O)O
> <PUBCHEM_OPENEYE_ISO_SMILES>
CC12CC[C@@H](C[C@@H]1[C@H](CC3C2CCC4(C3CCC4C(=O)CO)C)OS(=O)(=O)O)OS(=O)(=O)O
> <PUBCHEM_CACTVS_TPSA>
181
> <PUBCHEM_MONOISOTOPIC_WEIGHT>
510.15933962
> <PUBCHEM_TOTAL_CHARGE>
0
> <PUBCHEM_HEAVY_ATOM_COUNT>
33
> <PUBCHEM_ATOM_DEF_STEREO_COUNT>
3
> <PUBCHEM_ATOM_UDEF_STEREO_COUNT>
6
> <PUBCHEM_BOND_DEF_STEREO_COUNT>
0
> <PUBCHEM_BOND_UDEF_STEREO_COUNT>
0
> <PUBCHEM_ISOTOPIC_ATOM_COUNT>
0
> <PUBCHEM_COMPONENT_COUNT>
1
> <PUBCHEM_CACTVS_TAUTO_COUNT>
-1
> <PUBCHEM_COORDINATE_TYPE>
1
5
255
> <PUBCHEM_BONDANNOTATIONS>
13  19  3
14  21  3
15  24  3
16  28  3
17  29  3
18  37  6
22  32  3
23  3  6
31  4  5
$$$$
