514204
  -OEChem-10302200282D
100 99  0     1  0  0  0  0  0999 V2000
    7.1962   -3.0670    0.0000 P   0  0  3  0  0  0  0  0  0  0  0  0
    6.3301   -3.5670    0.0000 O   0  0  0  0  0  0  0  0  0  0  0  0
    9.7942   -1.5670    0.0000 O   0  0  0  0  0  0  0  0  0  0  0  0
    8.0622   -2.5670    0.0000 O   0  0  0  0  0  0  0  0  0  0  0  0
    6.6962   -2.2010    0.0000 O   0  0  0  0  0  0  0  0  0  0  0  0
   12.3923   -4.0670    0.0000 O   0  0  0  0  0  0  0  0  0  0  0  0
    7.6962   -3.9330    0.0000 O   0  0  0  0  0  0  0  0  0  0  0  0
    2.8660   -3.5670    0.0000 N   0  3  0  0  0  0  0  0  0  0  0  0
   11.5263   -2.5670    0.0000 N   0  0  0  0  0  0  0  0  0  0  0  0
    3.7320   -3.0670    0.0000 C   0  0  0  0  0  0  0  0  0  0  0  0
    4.5981   -3.5670    0.0000 C   0  0  0  0  0  0  0  0  0  0  0  0
    2.0000   -4.0670    0.0000 C   0  0  0  0  0  0  0  0  0  0  0  0
    2.3660   -2.7010    0.0000 C   0  0  0  0  0  0  0  0  0  0  0  0
    3.3660   -4.4330    0.0000 C   0  0  0  0  0  0  0  0  0  0  0  0
   16.7224   -2.5670    0.0000 C   0  0  0  0  0  0  0  0  0  0  0  0
   17.5885   -3.0670    0.0000 C   0  0  0  0  0  0  0  0  0  0  0  0
   15.8564   -3.0670    0.0000 C   0  0  0  0  0  0  0  0  0  0  0  0
   18.4545   -2.5670    0.0000 C   0  0  0  0  0  0  0  0  0  0  0  0
   14.9904   -2.5670    0.0000 C   0  0  0  0  0  0  0  0  0  0  0  0
    5.4641   -3.0670    0.0000 C   0  0  0  0  0  0  0  0  0  0  0  0
   19.3205   -3.0670    0.0000 C   0  0  0  0  0  0  0  0  0  0  0  0
   14.1244   -3.0670    0.0000 C   0  0  0  0  0  0  0  0  0  0  0  0
    9.7942   -2.5670    0.0000 C   0  0  3  0  0  0  0  0  0  0  0  0
   20.1865   -2.5670    0.0000 C   0  0  0  0  0  0  0  0  0  0  0  0
   11.5263    0.4330    0.0000 C   0  0  0  0  0  0  0  0  0  0  0  0
   13.2583   -2.5670    0.0000 C   0  0  0  0  0  0  0  0  0  0  0  0
   11.5263    1.4330    0.0000 C   0  0  0  0  0  0  0  0  0  0  0  0
   10.6603   -0.0670    0.0000 C   0  0  0  0  0  0  0  0  0  0  0  0
   12.3923    1.9330    0.0000 C   0  0  0  0  0  0  0  0  0  0  0  0
   10.6603   -3.0670    0.0000 C   0  0  0  0  0  0  0  0  0  0  0  0
   10.6603   -1.0670    0.0000 C   0  0  0  0  0  0  0  0  0  0  0  0
    8.9282   -3.0670    0.0000 C   0  0  0  0  0  0  0  0  0  0  0  0
   12.3923    2.9330    0.0000 C   0  0  0  0  0  0  0  0  0  0  0  0
   21.0526   -3.0670    0.0000 C   0  0  0  0  0  0  0  0  0  0  0  0
   12.3923   -3.0670    0.0000 C   0  0  0  0  0  0  0  0  0  0  0  0
   13.2583    3.4330    0.0000 C   0  0  0  0  0  0  0  0  0  0  0  0
   21.9186   -2.5670    0.0000 C   0  0  0  0  0  0  0  0  0  0  0  0
   13.2583    4.4330    0.0000 C   0  0  0  0  0  0  0  0  0  0  0  0
    4.1306   -2.5920    0.0000 H   0  0  0  0  0  0  0  0  0  0  0  0
    3.3335   -2.5920    0.0000 H   0  0  0  0  0  0  0  0  0  0  0  0
    4.1996   -4.0419    0.0000 H   0  0  0  0  0  0  0  0  0  0  0  0
    4.9966   -4.0419    0.0000 H   0  0  0  0  0  0  0  0  0  0  0  0
    1.6900   -3.5300    0.0000 H   0  0  0  0  0  0  0  0  0  0  0  0
    1.4631   -4.3770    0.0000 H   0  0  0  0  0  0  0  0  0  0  0  0
    2.3100   -4.6039    0.0000 H   0  0  0  0  0  0  0  0  0  0  0  0
    2.9030   -2.3910    0.0000 H   0  0  0  0  0  0  0  0  0  0  0  0
    2.0560   -2.1640    0.0000 H   0  0  0  0  0  0  0  0  0  0  0  0
    1.8291   -3.0110    0.0000 H   0  0  0  0  0  0  0  0  0  0  0  0
    2.8291   -4.7430    0.0000 H   0  0  0  0  0  0  0  0  0  0  0  0
    3.6760   -4.9700    0.0000 H   0  0  0  0  0  0  0  0  0  0  0  0
    3.9030   -4.1230    0.0000 H   0  0  0  0  0  0  0  0  0  0  0  0
   17.1210   -2.0920    0.0000 H   0  0  0  0  0  0  0  0  0  0  0  0
   16.3239   -2.0920    0.0000 H   0  0  0  0  0  0  0  0  0  0  0  0
   17.1899   -3.5419    0.0000 H   0  0  0  0  0  0  0  0  0  0  0  0
   17.9870   -3.5419    0.0000 H   0  0  0  0  0  0  0  0  0  0  0  0
   15.4579   -3.5419    0.0000 H   0  0  0  0  0  0  0  0  0  0  0  0
   16.2549   -3.5419    0.0000 H   0  0  0  0  0  0  0  0  0  0  0  0
   18.8530   -2.0920    0.0000 H   0  0  0  0  0  0  0  0  0  0  0  0
   18.0560   -2.0920    0.0000 H   0  0  0  0  0  0  0  0  0  0  0  0
   15.3889   -2.0920    0.0000 H   0  0  0  0  0  0  0  0  0  0  0  0
   14.5919   -2.0920    0.0000 H   0  0  0  0  0  0  0  0  0  0  0  0
    5.8626   -2.5920    0.0000 H   0  0  0  0  0  0  0  0  0  0  0  0
    5.0656   -2.5920    0.0000 H   0  0  0  0  0  0  0  0  0  0  0  0
   18.9220   -3.5419    0.0000 H   0  0  0  0  0  0  0  0  0  0  0  0
   19.7190   -3.5419    0.0000 H   0  0  0  0  0  0  0  0  0  0  0  0
   13.7258   -3.5419    0.0000 H   0  0  0  0  0  0  0  0  0  0  0  0
   14.5229   -3.5419    0.0000 H   0  0  0  0  0  0  0  0  0  0  0  0
    9.2573   -2.2570    0.0000 H   0  0  0  0  0  0  0  0  0  0  0  0
   20.5851   -2.0920    0.0000 H   0  0  0  0  0  0  0  0  0  0  0  0
   19.7880   -2.0920    0.0000 H   0  0  0  0  0  0  0  0  0  0  0  0
   11.7383   -0.1496    0.0000 H   0  0  0  0  0  0  0  0  0  0  0  0
   12.1369    0.5407    0.0000 H   0  0  0  0  0  0  0  0  0  0  0  0
   11.3142    2.0156    0.0000 H   0  0  0  0  0  0  0  0  0  0  0  0
   10.9157    1.3254    0.0000 H   0  0  0  0  0  0  0  0  0  0  0  0
   13.6569   -2.0920    0.0000 H   0  0  0  0  0  0  0  0  0  0  0  0
   12.8598   -2.0920    0.0000 H   0  0  0  0  0  0  0  0  0  0  0  0
   10.4482    0.5156    0.0000 H   0  0  0  0  0  0  0  0  0  0  0  0
   10.0497   -0.1746    0.0000 H   0  0  0  0  0  0  0  0  0  0  0  0
   12.6044    1.3504    0.0000 H   0  0  0  0  0  0  0  0  0  0  0  0
   13.0029    2.0407    0.0000 H   0  0  0  0  0  0  0  0  0  0  0  0
   10.2617   -3.5419    0.0000 H   0  0  0  0  0  0  0  0  0  0  0  0
   11.0588   -3.5419    0.0000 H   0  0  0  0  0  0  0  0  0  0  0  0
   10.8723   -1.6496    0.0000 H   0  0  0  0  0  0  0  0  0  0  0  0
   11.2708   -0.9593    0.0000 H   0  0  0  0  0  0  0  0  0  0  0  0
    8.5297   -3.5419    0.0000 H   0  0  0  0  0  0  0  0  0  0  0  0
    9.3267   -3.5419    0.0000 H   0  0  0  0  0  0  0  0  0  0  0  0
   12.1803    3.5156    0.0000 H   0  0  0  0  0  0  0  0  0  0  0  0
   11.7817    2.8253    0.0000 H   0  0  0  0  0  0  0  0  0  0  0  0
   20.6540   -3.5419    0.0000 H   0  0  0  0  0  0  0  0  0  0  0  0
   21.4511   -3.5419    0.0000 H   0  0  0  0  0  0  0  0  0  0  0  0
   11.5263   -1.9470    0.0000 H   0  0  0  0  0  0  0  0  0  0  0  0
   13.4704    2.8504    0.0000 H   0  0  0  0  0  0  0  0  0  0  0  0
   13.8689    3.5407    0.0000 H   0  0  0  0  0  0  0  0  0  0  0  0
   22.2286   -3.1039    0.0000 H   0  0  0  0  0  0  0  0  0  0  0  0
   22.4555   -2.2570    0.0000 H   0  0  0  0  0  0  0  0  0  0  0  0
   21.6086   -2.0300    0.0000 H   0  0  0  0  0  0  0  0  0  0  0  0
   13.8783    4.4330    0.0000 H   0  0  0  0  0  0  0  0  0  0  0  0
   13.2583    5.0530    0.0000 H   0  0  0  0  0  0  0  0  0  0  0  0
   12.6383    4.4330    0.0000 H   0  0  0  0  0  0  0  0  0  0  0  0
    7.0062   -1.6640    0.0000 H   0  0  0  0  0  0  0  0  0  0  0  0
  1  2  1  0  0  0  0
  1  4  1  0  0  0  0
  1  5  1  0  0  0  0
  1  7  2  0  0  0  0
  2 20  1  0  0  0  0
  3 23  1  0  0  0  0
  3 31  1  0  0  0  0
  4 32  1  0  0  0  0
  5100  1  0  0  0  0
  6 35  2  0  0  0  0
  8 10  1  0  0  0  0
  8 12  1  0  0  0  0
  8 13  1  0  0  0  0
  8 14  1  0  0  0  0
  9 30  1  0  0  0  0
  9 35  1  0  0  0  0
  9 91  1  0  0  0  0
 10 11  1  0  0  0  0
 10 39  1  0  0  0  0
 10 40  1  0  0  0  0
 11 20  1  0  0  0  0
 11 41  1  0  0  0  0
 11 42  1  0  0  0  0
 12 43  1  0  0  0  0
 12 44  1  0  0  0  0
 12 45  1  0  0  0  0
 13 46  1  0  0  0  0
 13 47  1  0  0  0  0
 13 48  1  0  0  0  0
 14 49  1  0  0  0  0
 14 50  1  0  0  0  0
 14 51  1  0  0  0  0
 15 16  1  0  0  0  0
 15 17  1  0  0  0  0
 15 52  1  0  0  0  0
 15 53  1  0  0  0  0
 16 18  1  0  0  0  0
 16 54  1  0  0  0  0
 16 55  1  0  0  0  0
 17 19  1  0  0  0  0
 17 56  1  0  0  0  0
 17 57  1  0  0  0  0
 18 21  1  0  0  0  0
 18 58  1  0  0  0  0
 18 59  1  0  0  0  0
 19 22  1  0  0  0  0
 19 60  1  0  0  0  0
 19 61  1  0  0  0  0
 20 62  1  0  0  0  0
 20 63  1  0  0  0  0
 21 24  1  0  0  0  0
 21 64  1  0  0  0  0
 21 65  1  0  0  0  0
 22 26  1  0  0  0  0
 22 66  1  0  0  0  0
 22 67  1  0  0  0  0
 23 30  1  0  0  0  0
 23 32  1  0  0  0  0
 23 68  1  0  0  0  0
 24 34  1  0  0  0  0
 24 69  1  0  0  0  0
 24 70  1  0  0  0  0
 25 27  1  0  0  0  0
 25 28  1  0  0  0  0
 25 71  1  0  0  0  0
 25 72  1  0  0  0  0
 26 35  1  0  0  0  0
 26 75  1  0  0  0  0
 26 76  1  0  0  0  0
 27 29  1  0  0  0  0
 27 73  1  0  0  0  0
 27 74  1  0  0  0  0
 28 31  1  0  0  0  0
 28 77  1  0  0  0  0
 28 78  1  0  0  0  0
 29 33  1  0  0  0  0
 29 79  1  0  0  0  0
 29 80  1  0  0  0  0
 30 81  1  0  0  0  0
 30 82  1  0  0  0  0
 31 83  1  0  0  0  0
 31 84  1  0  0  0  0
 32 85  1  0  0  0  0
 32 86  1  0  0  0  0
 33 36  1  0  0  0  0
 33 87  1  0  0  0  0
 33 88  1  0  0  0  0
 34 37  1  0  0  0  0
 34 89  1  0  0  0  0
 34 90  1  0  0  0  0
 36 38  1  0  0  0  0
 36 92  1  0  0  0  0
 36 93  1  0  0  0  0
 37 94  1  0  0  0  0
 37 95  1  0  0  0  0
 37 96  1  0  0  0  0
 38 97  1  0  0  0  0
 38 98  1  0  0  0  0
 38 99  1  0  0  0  0
M  CHG  1   8   1
M  END
> <PUBCHEM_COMPOUND_CID>
514204
> <PUBCHEM_COMPOUND_CANONICALIZED>
1
> <PUBCHEM_CACTVS_COMPLEXITY>
600
> <PUBCHEM_CACTVS_HBOND_ACCEPTOR>
6
> <PUBCHEM_CACTVS_HBOND_DONOR>
2
> <PUBCHEM_CACTVS_ROTATABLE_BOND>
28
> <PUBCHEM_CACTVS_SUBSKEYS>
AAADcfB7OAIAAAAAAAAAAAAAAAAAAAAAAAAAAAAAAAAAAAAAAAAAHgAQCCAACBThgAYCAAPABRAIQAEQEIAAAAAAAAAAAIEIAAADABIAgAAHAAAGFgCSAAGYyKCAAAAAAAAAAAAAAAAAAAAAAAAAAAAAAA==
> <PUBCHEM_IUPAC_OPENEYE_NAME>
3-[[3-(dodecanoylamino)-2-octoxy-propoxy]-hydroxy-phosphoryl]oxypropyl-trimethyl-ammonium
> <PUBCHEM_IUPAC_CAS_NAME>
3-[hydroxy-[2-octoxy-3-(1-oxododecylamino)propoxy]phosphoryl]oxypropyl-trimethylammonium
> <PUBCHEM_IUPAC_NAME_MARKUP>
3-[[3-(dodecanoylamino)-2-octoxypropoxy]-hydroxyphosphoryl]oxypropyl-trimethylazanium
> <PUBCHEM_IUPAC_NAME>
3-[[3-(dodecanoylamino)-2-octoxypropoxy]-hydroxyphosphoryl]oxypropyl-trimethylazanium
> <PUBCHEM_IUPAC_SYSTEMATIC_NAME>
3-[[3-(dodecanoylamino)-2-octoxy-propoxy]-oxidanyl-phosphoryl]oxypropyl-trimethyl-azanium
> <PUBCHEM_IUPAC_TRADITIONAL_NAME>
3-[hydroxy-[3-(lauroylamino)-2-octoxy-propoxy]phosphoryl]oxypropyl-trimethyl-ammonium
> <PUBCHEM_IUPAC_INCHI>
InChI=1S/C29H61N2O6P/c1-6-8-10-12-14-15-16-17-19-22-29(32)30-26-28(35-24-20-18-13-11-9-7-2)27-37-38(33,34)36-25-21-23-31(3,4)5/h28H,6-27H2,1-5H3,(H-,30,32,33,34)/p+1
> <PUBCHEM_IUPAC_INCHIKEY>
OHAIHADKGJMLHB-UHFFFAOYSA-O
> <PUBCHEM_XLOGP3_AA>
7.2
> <PUBCHEM_EXACT_MASS>
565.43454970
> <PUBCHEM_MOLECULAR_FORMULA>
C29H62N2O6P+
> <PUBCHEM_MOLECULAR_WEIGHT>
565.8
> <PUBCHEM_OPENEYE_CAN_SMILES>
CCCCCCCCCCCC(=O)NCC(COP(=O)(O)OCCC[N+](C)(C)C)OCCCCCCCC
> <PUBCHEM_OPENEYE_ISO_SMILES>
CCCCCCCCCCCC(=O)NCC(COP(=O)(O)OCCC[N+](C)(C)C)OCCCCCCCC
> <PUBCHEM_CACTVS_TPSA>
94.1
> <PUBCHEM_MONOISOTOPIC_WEIGHT>
565.43454970
> <PUBCHEM_TOTAL_CHARGE>
1
> <PUBCHEM_HEAVY_ATOM_COUNT>
38
> <PUBCHEM_ATOM_DEF_STEREO_COUNT>
0
> <PUBCHEM_ATOM_UDEF_STEREO_COUNT>
1
> <PUBCHEM_BOND_DEF_STEREO_COUNT>
0
> <PUBCHEM_BOND_UDEF_STEREO_COUNT>
0
> <PUBCHEM_ISOTOPIC_ATOM_COUNT>
0
> <PUBCHEM_COMPONENT_COUNT>
1
> <PUBCHEM_CACTVS_TAUTO_COUNT>
-1
> <PUBCHEM_COORDINATE_TYPE>
1
5
255
> <PUBCHEM_BONDANNOTATIONS>
23  30  3
$$$$
