514251
  -OEChem-10302200282D
 71 74  0     1  0  0  0  0  0999 V2000
    6.5981    4.4190    0.0000 S   0  0  0  0  0  0  0  0  0  0  0  0
    7.1962   -5.8130    0.0000 F   0  0  0  0  0  0  0  0  0  0  0  0
    5.8301   -6.1791    0.0000 F   0  0  0  0  0  0  0  0  0  0  0  0
    6.8301   -4.4470    0.0000 F   0  0  0  0  0  0  0  0  0  0  0  0
    5.4641   -0.8130    0.0000 O   0  0  0  0  0  0  0  0  0  0  0  0
    5.4641   -4.8130    0.0000 O   0  0  0  0  0  0  0  0  0  0  0  0
    2.8660   -0.3130    0.0000 N   0  0  0  0  0  0  0  0  0  0  0  0
    2.0570   -0.9008    0.0000 N   0  0  0  0  0  0  0  0  0  0  0  0
    3.3660   -1.8519    0.0000 N   0  0  0  0  0  0  0  0  0  0  0  0
    8.1859    5.2280    0.0000 N   0  0  0  0  0  0  0  0  0  0  0  0
    8.1859    3.6100    0.0000 N   0  0  0  0  0  0  0  0  0  0  0  0
    4.5981    2.6870    0.0000 C   0  0  1  0  0  0  0  0  0  0  0  0
    3.7320    2.1870    0.0000 C   0  0  1  0  0  0  0  0  0  0  0  0
    3.7320    1.1870    0.0000 C   0  0  2  0  0  0  0  0  0  0  0  0
    4.5981    0.6870    0.0000 C   0  0  1  0  0  0  0  0  0  0  0  0
    5.4641    2.1870    0.0000 C   0  0  0  0  0  0  0  0  0  0  0  0
    5.4641    1.1870    0.0000 C   0  0  0  0  0  0  0  0  0  0  0  0
    5.0981    3.5530    0.0000 C   0  0  0  0  0  0  0  0  0  0  0  0
    2.8660    2.6870    0.0000 C   0  0  0  0  0  0  0  0  0  0  0  0
    2.8660    0.6870    0.0000 C   0  0  0  0  0  0  0  0  0  0  0  0
    4.0981    3.5530    0.0000 C   0  0  0  0  0  0  0  0  0  0  0  0
    4.5981   -0.3130    0.0000 C   0  0  0  0  0  0  0  0  0  0  0  0
    6.0981    3.5530    0.0000 C   0  0  0  0  0  0  0  0  0  0  0  0
    2.0000    2.1870    0.0000 C   0  0  0  0  0  0  0  0  0  0  0  0
    3.6750   -0.9008    0.0000 C   0  0  0  0  0  0  0  0  0  0  0  0
    5.4641   -1.8130    0.0000 C   0  0  0  0  0  0  0  0  0  0  0  0
    7.5981    4.4190    0.0000 C   0  0  0  0  0  0  0  0  0  0  0  0
    2.3660   -1.8519    0.0000 C   0  0  0  0  0  0  0  0  0  0  0  0
    4.5981   -2.3130    0.0000 C   0  0  0  0  0  0  0  0  0  0  0  0
    6.3301   -2.3130    0.0000 C   0  0  0  0  0  0  0  0  0  0  0  0
    4.5981   -3.3130    0.0000 C   0  0  0  0  0  0  0  0  0  0  0  0
    6.3301   -3.3130    0.0000 C   0  0  0  0  0  0  0  0  0  0  0  0
    9.1369    4.9190    0.0000 C   0  0  0  0  0  0  0  0  0  0  0  0
    5.4641   -3.8130    0.0000 C   0  0  0  0  0  0  0  0  0  0  0  0
    9.1369    3.9190    0.0000 C   0  0  0  0  0  0  0  0  0  0  0  0
    7.8768    6.1791    0.0000 C   0  0  0  0  0  0  0  0  0  0  0  0
    6.3301   -5.3130    0.0000 C   0  0  0  0  0  0  0  0  0  0  0  0
    3.7320    2.8070    0.0000 H   0  0  0  0  0  0  0  0  0  0  0  0
    3.7320    0.5670    0.0000 H   0  0  0  0  0  0  0  0  0  0  0  0
    5.1350    0.3770    0.0000 H   0  0  0  0  0  0  0  0  0  0  0  0
    6.0747    2.0793    0.0000 H   0  0  0  0  0  0  0  0  0  0  0  0
    5.6762    2.7696    0.0000 H   0  0  0  0  0  0  0  0  0  0  0  0
    5.6762    0.6043    0.0000 H   0  0  0  0  0  0  0  0  0  0  0  0
    6.0747    1.2946    0.0000 H   0  0  0  0  0  0  0  0  0  0  0  0
    5.2057    4.1636    0.0000 H   0  0  0  0  0  0  0  0  0  0  0  0
    4.5155    3.7650    0.0000 H   0  0  0  0  0  0  0  0  0  0  0  0
    3.2646    3.1619    0.0000 H   0  0  0  0  0  0  0  0  0  0  0  0
    2.4675    3.1619    0.0000 H   0  0  0  0  0  0  0  0  0  0  0  0
    2.6540    1.2696    0.0000 H   0  0  0  0  0  0  0  0  0  0  0  0
    2.2554    0.5793    0.0000 H   0  0  0  0  0  0  0  0  0  0  0  0
    4.6350    3.8630    0.0000 H   0  0  0  0  0  0  0  0  0  0  0  0
    3.7881    4.0899    0.0000 H   0  0  0  0  0  0  0  0  0  0  0  0
    3.5611    3.2430    0.0000 H   0  0  0  0  0  0  0  0  0  0  0  0
    3.9875   -0.2054    0.0000 H   0  0  0  0  0  0  0  0  0  0  0  0
    4.3860   -0.8957    0.0000 H   0  0  0  0  0  0  0  0  0  0  0  0
    5.9904    2.9424    0.0000 H   0  0  0  0  0  0  0  0  0  0  0  0
    6.6807    3.3409    0.0000 H   0  0  0  0  0  0  0  0  0  0  0  0
    1.6900    2.7239    0.0000 H   0  0  0  0  0  0  0  0  0  0  0  0
    1.4631    1.8770    0.0000 H   0  0  0  0  0  0  0  0  0  0  0  0
    2.3100    1.6500    0.0000 H   0  0  0  0  0  0  0  0  0  0  0  0
    4.2647   -0.7092    0.0000 H   0  0  0  0  0  0  0  0  0  0  0  0
    2.0016   -2.3535    0.0000 H   0  0  0  0  0  0  0  0  0  0  0  0
    4.0611   -2.0030    0.0000 H   0  0  0  0  0  0  0  0  0  0  0  0
    6.8671   -2.0030    0.0000 H   0  0  0  0  0  0  0  0  0  0  0  0
    4.0611   -3.6230    0.0000 H   0  0  0  0  0  0  0  0  0  0  0  0
    6.8671   -3.6230    0.0000 H   0  0  0  0  0  0  0  0  0  0  0  0
    9.6385    5.2834    0.0000 H   0  0  0  0  0  0  0  0  0  0  0  0
    9.6385    3.5546    0.0000 H   0  0  0  0  0  0  0  0  0  0  0  0
    8.4665    6.3707    0.0000 H   0  0  0  0  0  0  0  0  0  0  0  0
    7.6852    6.7687    0.0000 H   0  0  0  0  0  0  0  0  0  0  0  0
    7.2872    5.9875    0.0000 H   0  0  0  0  0  0  0  0  0  0  0  0
  1 23  1  0  0  0  0
  1 27  1  0  0  0  0
  2 37  1  0  0  0  0
  3 37  1  0  0  0  0
  4 37  1  0  0  0  0
  5 22  1  0  0  0  0
  5 26  1  0  0  0  0
  6 34  1  0  0  0  0
  6 37  1  0  0  0  0
  7  8  1  0  0  0  0
  7 20  1  0  0  0  0
  7 25  1  0  0  0  0
  8 28  2  0  0  0  0
  9 25  2  0  0  0  0
  9 28  1  0  0  0  0
 10 27  1  0  0  0  0
 10 33  1  0  0  0  0
 10 36  1  0  0  0  0
 11 27  2  0  0  0  0
 11 35  1  0  0  0  0
 12 13  1  0  0  0  0
 12 16  1  0  0  0  0
 12 18  1  0  0  0  0
 12 21  1  1  0  0  0
 13 14  1  0  0  0  0
 13 19  1  1  0  0  0
 13 38  1  0  0  0  0
 14 15  1  0  0  0  0
 14 20  1  6  0  0  0
 14 39  1  0  0  0  0
 15 17  1  0  0  0  0
 15 22  1  1  0  0  0
 15 40  1  0  0  0  0
 16 17  1  0  0  0  0
 16 41  1  0  0  0  0
 16 42  1  0  0  0  0
 17 43  1  0  0  0  0
 17 44  1  0  0  0  0
 18 23  1  0  0  0  0
 18 45  1  0  0  0  0
 18 46  1  0  0  0  0
 19 24  1  0  0  0  0
 19 47  1  0  0  0  0
 19 48  1  0  0  0  0
 20 49  1  0  0  0  0
 20 50  1  0  0  0  0
 21 51  1  0  0  0  0
 21 52  1  0  0  0  0
 21 53  1  0  0  0  0
 22 54  1  0  0  0  0
 22 55  1  0  0  0  0
 23 56  1  0  0  0  0
 23 57  1  0  0  0  0
 24 58  1  0  0  0  0
 24 59  1  0  0  0  0
 24 60  1  0  0  0  0
 25 61  1  0  0  0  0
 26 29  2  0  0  0  0
 26 30  1  0  0  0  0
 28 62  1  0  0  0  0
 29 31  1  0  0  0  0
 29 63  1  0  0  0  0
 30 32  2  0  0  0  0
 30 64  1  0  0  0  0
 31 34  2  0  0  0  0
 31 65  1  0  0  0  0
 32 34  1  0  0  0  0
 32 66  1  0  0  0  0
 33 35  2  0  0  0  0
 33 67  1  0  0  0  0
 35 68  1  0  0  0  0
 36 69  1  0  0  0  0
 36 70  1  0  0  0  0
 36 71  1  0  0  0  0
M  END
> <PUBCHEM_COMPOUND_CID>
514251
> <PUBCHEM_COMPOUND_CANONICALIZED>
1
> <PUBCHEM_CACTVS_COMPLEXITY>
700
> <PUBCHEM_CACTVS_HBOND_ACCEPTOR>
9
> <PUBCHEM_CACTVS_HBOND_DONOR>
0
> <PUBCHEM_CACTVS_ROTATABLE_BOND>
11
> <PUBCHEM_CACTVS_SUBSKEYS>
AAADcfB7sYBAAAAAAAAAAAAAAAAAAWLAAAAwYAAAAAAAAAAB8AAAHwQIAAAADwTl0ha/lpcMFAiiADBnZAAS2C9xsrAdyAAeOIiMbiKkuRqWOCCswBMIqCfwwPAPgQAAAAAAAACCAAQAACAAAAAAAAAAAA==
> <PUBCHEM_IUPAC_OPENEYE_NAME>
1-[[(1R,2R,3S,6R)-2-ethyl-3-methyl-3-[2-(1-methylimidazol-2-yl)sulfanylethyl]-6-[[4-(trifluoromethoxy)phenoxy]methyl]cyclohexyl]methyl]-1,2,4-triazole
> <PUBCHEM_IUPAC_CAS_NAME>
1-[[(1R,2R,3S,6R)-2-ethyl-3-methyl-3-[2-[(1-methyl-2-imidazolyl)thio]ethyl]-6-[[4-(trifluoromethoxy)phenoxy]methyl]cyclohexyl]methyl]-1,2,4-triazole
> <PUBCHEM_IUPAC_NAME_MARKUP>
1-[[(1<I>R</I>,2<I>R</I>,3<I>S</I>,6<I>R</I>)-2-ethyl-3-methyl-3-[2-(1-methylimidazol-2-yl)sulfanylethyl]-6-[[4-(trifluoromethoxy)phenoxy]methyl]cyclohexyl]methyl]-1,2,4-triazole
> <PUBCHEM_IUPAC_NAME>
1-[[(1R,2R,3S,6R)-2-ethyl-3-methyl-3-[2-(1-methylimidazol-2-yl)sulfanylethyl]-6-[[4-(trifluoromethoxy)phenoxy]methyl]cyclohexyl]methyl]-1,2,4-triazole
> <PUBCHEM_IUPAC_SYSTEMATIC_NAME>
1-[[(1R,2R,3S,6R)-2-ethyl-3-methyl-3-[2-(1-methylimidazol-2-yl)sulfanylethyl]-6-[[4-(trifluoromethyloxy)phenoxy]methyl]cyclohexyl]methyl]-1,2,4-triazole
> <PUBCHEM_IUPAC_TRADITIONAL_NAME>
1-[[(1R,2R,3S,6R)-2-ethyl-3-methyl-3-[2-[(1-methylimidazol-2-yl)thio]ethyl]-6-[[4-(trifluoromethoxy)phenoxy]methyl]cyclohexyl]methyl]-1,2,4-triazole
> <PUBCHEM_IUPAC_INCHI>
InChI=1S/C26H34F3N5O2S/c1-4-23-22(15-34-18-30-17-32-34)19(16-35-20-5-7-21(8-6-20)36-26(27,28)29)9-10-25(23,2)11-14-37-24-31-12-13-33(24)3/h5-8,12-13,17-19,22-23H,4,9-11,14-16H2,1-3H3/t19-,22-,23+,25-/m0/s1
> <PUBCHEM_IUPAC_INCHIKEY>
JBTZWTRETLPWQT-DLRXVWRPSA-N
> <PUBCHEM_XLOGP3_AA>
6.9
> <PUBCHEM_EXACT_MASS>
537.23853100
> <PUBCHEM_MOLECULAR_FORMULA>
C26H34F3N5O2S
> <PUBCHEM_MOLECULAR_WEIGHT>
537.6
> <PUBCHEM_OPENEYE_CAN_SMILES>
CCC1C(C(CCC1(C)CCSC2=NC=CN2C)COC3=CC=C(C=C3)OC(F)(F)F)CN4C=NC=N4
> <PUBCHEM_OPENEYE_ISO_SMILES>
CC[C@@H]1[C@H]([C@@H](CC[C@@]1(C)CCSC2=NC=CN2C)COC3=CC=C(C=C3)OC(F)(F)F)CN4C=NC=N4
> <PUBCHEM_CACTVS_TPSA>
92.3
> <PUBCHEM_MONOISOTOPIC_WEIGHT>
537.23853100
> <PUBCHEM_TOTAL_CHARGE>
0
> <PUBCHEM_HEAVY_ATOM_COUNT>
37
> <PUBCHEM_ATOM_DEF_STEREO_COUNT>
4
> <PUBCHEM_ATOM_UDEF_STEREO_COUNT>
0
> <PUBCHEM_BOND_DEF_STEREO_COUNT>
0
> <PUBCHEM_BOND_UDEF_STEREO_COUNT>
0
> <PUBCHEM_ISOTOPIC_ATOM_COUNT>
0
> <PUBCHEM_COMPONENT_COUNT>
1
> <PUBCHEM_CACTVS_TAUTO_COUNT>
-1
> <PUBCHEM_COORDINATE_TYPE>
1
5
255
> <PUBCHEM_BONDANNOTATIONS>
10  27  8
10  33  8
11  27  8
11  35  8
12  21  5
13  19  5
14  20  6
15  22  5
26  29  8
26  30  8
29  31  8
30  32  8
31  34  8
32  34  8
33  35  8
7  25  8
7  8  8
8  28  8
9  25  8
9  28  8
$$$$
