514213
  -OEChem-10302200282D
103106  0     1  0  0  0  0  0999 V2000
    7.2566    2.9892    0.0000 O   0  0  0  0  0  0  0  0  0  0  0  0
    7.9244    2.2449    0.0000 O   0  0  0  0  0  0  0  0  0  0  0  0
    4.2746    5.0159    0.0000 O   0  0  0  0  0  0  0  0  0  0  0  0
    9.6173   -0.9385    0.0000 O   0  0  0  0  0  0  0  0  0  0  0  0
    7.7068   -3.9963    0.0000 O   0  0  0  0  0  0  0  0  0  0  0  0
   10.5493    1.9130    0.0000 O   0  0  0  0  0  0  0  0  0  0  0  0
    8.9030    2.4511    0.0000 O   0  0  0  0  0  0  0  0  0  0  0  0
    5.7498   -4.4088    0.0000 O   0  0  0  0  0  0  0  0  0  0  0  0
    5.3926   -2.7139    0.0000 O   0  0  0  0  0  0  0  0  0  0  0  0
    4.5387    8.6117    0.0000 O   0  0  0  0  0  0  0  0  0  0  0  0
    6.1851    8.0736    0.0000 O   0  0  0  0  0  0  0  0  0  0  0  0
    5.6103    3.5273    0.0000 N   0  0  0  0  0  0  0  0  0  0  0  0
    6.6353    1.0881    0.0000 N   0  0  0  0  0  0  0  0  0  0  0  0
    7.9710   -0.4005    0.0000 N   0  0  0  0  0  0  0  0  0  0  0  0
    8.9960   -2.8396    0.0000 N   0  0  0  0  0  0  0  0  0  0  0  0
    4.6783   -0.9338    0.0000 N   0  0  0  0  0  0  0  0  0  0  0  0
    5.5637    6.1726    0.0000 N   0  0  0  0  0  0  0  0  0  0  0  0
   11.1042   -7.0340    0.0000 N   0  0  0  0  0  0  0  0  0  0  0  0
   10.3317   -4.3282    0.0000 N   0  0  0  0  0  0  0  0  0  0  0  0
    5.9674    1.8324    0.0000 C   0  0  1  0  0  0  0  0  0  0  0  0
    4.9889    1.6262    0.0000 C   0  0  0  0  0  0  0  0  0  0  0  0
    5.9209    4.4778    0.0000 C   0  0  1  0  0  0  0  0  0  0  0  0
    6.8994    4.6840    0.0000 C   0  0  0  0  0  0  0  0  0  0  0  0
    4.6783    0.6757    0.0000 C   0  0  0  0  0  0  0  0  0  0  0  0
    6.2781    2.7830    0.0000 C   0  0  0  0  0  0  0  0  0  0  0  0
    8.2816    0.5501    0.0000 C   0  0  2  0  0  0  0  0  0  0  0  0
    8.3282   -2.0953    0.0000 C   0  0  1  0  0  0  0  0  0  0  0  0
    3.7320    0.3710    0.0000 C   0  0  0  0  0  0  0  0  0  0  0  0
    7.6138    1.2944    0.0000 C   0  0  0  0  0  0  0  0  0  0  0  0
    7.2101    5.6345    0.0000 C   0  0  0  0  0  0  0  0  0  0  0  0
    7.5673    3.9397    0.0000 C   0  0  0  0  0  0  0  0  0  0  0  0
    7.3496   -2.3015    0.0000 C   0  0  0  0  0  0  0  0  0  0  0  0
    3.7320   -0.6290    0.0000 C   0  0  0  0  0  0  0  0  0  0  0  0
    5.2531    5.2221    0.0000 C   0  0  0  0  0  0  0  0  0  0  0  0
    5.2619   -0.1290    0.0000 C   0  0  0  0  0  0  0  0  0  0  0  0
    9.3532   -4.5344    0.0000 C   0  0  1  0  0  0  0  0  0  0  0  0
    8.6388   -1.1448    0.0000 C   0  0  0  0  0  0  0  0  0  0  0  0
    9.2601    0.7563    0.0000 C   0  0  0  0  0  0  0  0  0  0  0  0
    9.0425   -5.4849    0.0000 C   0  0  0  0  0  0  0  0  0  0  0  0
    9.7104   -6.2292    0.0000 C   0  0  0  0  0  0  0  0  0  0  0  0
    8.6853   -3.7901    0.0000 C   0  0  0  0  0  0  0  0  0  0  0  0
    2.8660    0.8710    0.0000 C   0  0  0  0  0  0  0  0  0  0  0  0
    7.0390   -3.2520    0.0000 C   0  0  0  0  0  0  0  0  0  0  0  0
    9.5012   -7.2010    0.0000 C   0  0  0  0  0  0  0  0  0  0  0  0
    2.8660   -1.1290    0.0000 C   0  0  0  0  0  0  0  0  0  0  0  0
   10.3672   -7.7010    0.0000 C   0  0  0  0  0  0  0  0  0  0  0  0
   10.6991   -6.1262    0.0000 C   0  0  0  0  0  0  0  0  0  0  0  0
    2.0000    0.3710    0.0000 C   0  0  0  0  0  0  0  0  0  0  0  0
    2.0000   -0.6290    0.0000 C   0  0  0  0  0  0  0  0  0  0  0  0
    9.5708    1.7068    0.0000 C   0  0  0  0  0  0  0  0  0  0  0  0
    8.6351   -7.7010    0.0000 C   0  0  0  0  0  0  0  0  0  0  0  0
    4.8959    6.9169    0.0000 C   0  0  0  0  0  0  0  0  0  0  0  0
   10.3672   -8.7010    0.0000 C   0  0  0  0  0  0  0  0  0  0  0  0
    6.0605   -3.4582    0.0000 C   0  0  0  0  0  0  0  0  0  0  0  0
    8.6351   -8.7010    0.0000 C   0  0  0  0  0  0  0  0  0  0  0  0
    9.5012   -9.2010    0.0000 C   0  0  0  0  0  0  0  0  0  0  0  0
    5.2066    7.8674    0.0000 C   0  0  0  0  0  0  0  0  0  0  0  0
    5.7748    1.2431    0.0000 H   0  0  0  0  0  0  0  0  0  0  0  0
    4.9684    2.2459    0.0000 H   0  0  0  0  0  0  0  0  0  0  0  0
    4.3751    1.7136    0.0000 H   0  0  0  0  0  0  0  0  0  0  0  0
    6.3350    4.0163    0.0000 H   0  0  0  0  0  0  0  0  0  0  0  0
    7.5061    4.8119    0.0000 H   0  0  0  0  0  0  0  0  0  0  0  0
    5.0036    3.3994    0.0000 H   0  0  0  0  0  0  0  0  0  0  0  0
    8.6957    0.0886    0.0000 H   0  0  0  0  0  0  0  0  0  0  0  0
    6.4427    0.4988    0.0000 H   0  0  0  0  0  0  0  0  0  0  0  0
    8.1355   -2.6846    0.0000 H   0  0  0  0  0  0  0  0  0  0  0  0
    7.7994    5.4419    0.0000 H   0  0  0  0  0  0  0  0  0  0  0  0
    7.4027    6.2238    0.0000 H   0  0  0  0  0  0  0  0  0  0  0  0
    6.6208    5.8271    0.0000 H   0  0  0  0  0  0  0  0  0  0  0  0
    7.1058    3.5256    0.0000 H   0  0  0  0  0  0  0  0  0  0  0  0
    7.9813    3.4782    0.0000 H   0  0  0  0  0  0  0  0  0  0  0  0
    8.0287    4.3538    0.0000 H   0  0  0  0  0  0  0  0  0  0  0  0
    7.3291   -1.6818    0.0000 H   0  0  0  0  0  0  0  0  0  0  0  0
    6.7358   -2.2142    0.0000 H   0  0  0  0  0  0  0  0  0  0  0  0
    5.8819   -0.1290    0.0000 H   0  0  0  0  0  0  0  0  0  0  0  0
    7.3643   -0.5283    0.0000 H   0  0  0  0  0  0  0  0  0  0  0  0
    9.5458   -3.9451    0.0000 H   0  0  0  0  0  0  0  0  0  0  0  0
    8.4956   -5.1929    0.0000 H   0  0  0  0  0  0  0  0  0  0  0  0
    8.6600   -5.9728    0.0000 H   0  0  0  0  0  0  0  0  0  0  0  0
    9.2807    0.1366    0.0000 H   0  0  0  0  0  0  0  0  0  0  0  0
    9.8740    0.6689    0.0000 H   0  0  0  0  0  0  0  0  0  0  0  0
    9.6027   -2.7117    0.0000 H   0  0  0  0  0  0  0  0  0  0  0  0
    4.8709   -1.5231    0.0000 H   0  0  0  0  0  0  0  0  0  0  0  0
    2.8660    1.4910    0.0000 H   0  0  0  0  0  0  0  0  0  0  0  0
    7.0596   -3.8717    0.0000 H   0  0  0  0  0  0  0  0  0  0  0  0
    7.6528   -3.3394    0.0000 H   0  0  0  0  0  0  0  0  0  0  0  0
    2.8660   -1.7490    0.0000 H   0  0  0  0  0  0  0  0  0  0  0  0
    6.1704    6.3005    0.0000 H   0  0  0  0  0  0  0  0  0  0  0  0
   11.0091   -5.5892    0.0000 H   0  0  0  0  0  0  0  0  0  0  0  0
    1.4631    0.6810    0.0000 H   0  0  0  0  0  0  0  0  0  0  0  0
   11.7109   -7.1618    0.0000 H   0  0  0  0  0  0  0  0  0  0  0  0
    1.4631   -0.9390    0.0000 H   0  0  0  0  0  0  0  0  0  0  0  0
   10.7457   -4.7897    0.0000 H   0  0  0  0  0  0  0  0  0  0  0  0
   10.5243   -3.7389    0.0000 H   0  0  0  0  0  0  0  0  0  0  0  0
    8.0982   -7.3910    0.0000 H   0  0  0  0  0  0  0  0  0  0  0  0
    4.3490    7.2089    0.0000 H   0  0  0  0  0  0  0  0  0  0  0  0
    4.5133    6.4290    0.0000 H   0  0  0  0  0  0  0  0  0  0  0  0
   10.9041   -9.0110    0.0000 H   0  0  0  0  0  0  0  0  0  0  0  0
    8.0982   -9.0110    0.0000 H   0  0  0  0  0  0  0  0  0  0  0  0
    9.5012   -9.8210    0.0000 H   0  0  0  0  0  0  0  0  0  0  0  0
   10.7419    2.5023    0.0000 H   0  0  0  0  0  0  0  0  0  0  0  0
    5.1431   -4.5366    0.0000 H   0  0  0  0  0  0  0  0  0  0  0  0
    4.7313    9.2010    0.0000 H   0  0  0  0  0  0  0  0  0  0  0  0
  1 25  2  0  0  0  0
  2 29  2  0  0  0  0
  3 34  2  0  0  0  0
  4 37  2  0  0  0  0
  5 41  2  0  0  0  0
  6 50  1  0  0  0  0
  6101  1  0  0  0  0
  7 50  2  0  0  0  0
  8 54  1  0  0  0  0
  8102  1  0  0  0  0
  9 54  2  0  0  0  0
 10 57  1  0  0  0  0
 10103  1  0  0  0  0
 11 57  2  0  0  0  0
 22 12  1  6  0  0  0
 12 25  1  0  0  0  0
 12 63  1  0  0  0  0
 20 13  1  1  0  0  0
 13 29  1  0  0  0  0
 13 65  1  0  0  0  0
 26 14  1  6  0  0  0
 14 37  1  0  0  0  0
 14 76  1  0  0  0  0
 27 15  1  1  0  0  0
 15 41  1  0  0  0  0
 15 82  1  0  0  0  0
 16 33  1  0  0  0  0
 16 35  1  0  0  0  0
 16 83  1  0  0  0  0
 17 34  1  0  0  0  0
 17 52  1  0  0  0  0
 17 88  1  0  0  0  0
 18 46  1  0  0  0  0
 18 47  1  0  0  0  0
 18 91  1  0  0  0  0
 36 19  1  1  0  0  0
 19 93  1  0  0  0  0
 19 94  1  0  0  0  0
 20 21  1  0  0  0  0
 20 25  1  0  0  0  0
 20 58  1  0  0  0  0
 21 24  1  0  0  0  0
 21 59  1  0  0  0  0
 21 60  1  0  0  0  0
 22 23  1  0  0  0  0
 22 34  1  0  0  0  0
 22 61  1  0  0  0  0
 23 30  1  0  0  0  0
 23 31  1  0  0  0  0
 23 62  1  0  0  0  0
 24 28  1  0  0  0  0
 24 35  2  0  0  0  0
 26 29  1  0  0  0  0
 26 38  1  0  0  0  0
 26 64  1  0  0  0  0
 27 32  1  0  0  0  0
 27 37  1  0  0  0  0
 27 66  1  0  0  0  0
 28 33  1  0  0  0  0
 28 42  2  0  0  0  0
 30 67  1  0  0  0  0
 30 68  1  0  0  0  0
 30 69  1  0  0  0  0
 31 70  1  0  0  0  0
 31 71  1  0  0  0  0
 31 72  1  0  0  0  0
 32 43  1  0  0  0  0
 32 73  1  0  0  0  0
 32 74  1  0  0  0  0
 33 45  2  0  0  0  0
 35 75  1  0  0  0  0
 36 39  1  0  0  0  0
 36 41  1  0  0  0  0
 36 77  1  0  0  0  0
 38 50  1  0  0  0  0
 38 80  1  0  0  0  0
 38 81  1  0  0  0  0
 39 40  1  0  0  0  0
 39 78  1  0  0  0  0
 39 79  1  0  0  0  0
 40 44  1  0  0  0  0
 40 47  2  0  0  0  0
 42 48  1  0  0  0  0
 42 84  1  0  0  0  0
 43 54  1  0  0  0  0
 43 85  1  0  0  0  0
 43 86  1  0  0  0  0
 44 46  1  0  0  0  0
 44 51  2  0  0  0  0
 45 49  1  0  0  0  0
 45 87  1  0  0  0  0
 46 53  2  0  0  0  0
 47 89  1  0  0  0  0
 48 49  2  0  0  0  0
 48 90  1  0  0  0  0
 49 92  1  0  0  0  0
 51 55  1  0  0  0  0
 51 95  1  0  0  0  0
 52 57  1  0  0  0  0
 52 96  1  0  0  0  0
 52 97  1  0  0  0  0
 53 56  1  0  0  0  0
 53 98  1  0  0  0  0
 55 56  2  0  0  0  0
 55 99  1  0  0  0  0
 56100  1  0  0  0  0
M  END
> <PUBCHEM_COMPOUND_CID>
514213
> <PUBCHEM_COMPOUND_CANONICALIZED>
1
> <PUBCHEM_CACTVS_COMPLEXITY>
1480
> <PUBCHEM_CACTVS_HBOND_ACCEPTOR>
12
> <PUBCHEM_CACTVS_HBOND_DONOR>
11
> <PUBCHEM_CACTVS_ROTATABLE_BOND>
21
> <PUBCHEM_CACTVS_SUBSKEYS>
AAADcfB//AAAAAAAAAAAAAAAAAAAAWLAAAAwYAAAAAAAAFgB/gAAHgAQCAAADSjBngQ+yPLJkgCoAzX3XACCgCAxAiAI2aG4ZJgKYPrAkbGUYAhmlgDYyAe/n8KOgAAAAAACAAAAAAAAAAQAAAAAAAAAAA==
> <PUBCHEM_IUPAC_OPENEYE_NAME>
(4S)-4-[[(2S)-2-amino-3-(1H-indol-3-yl)propanoyl]amino]-5-[[(1S)-1-(carboxymethyl)-2-[[(1S)-2-[[(1S)-1-(carboxymethylcarbamoyl)-2-methyl-propyl]amino]-1-(1H-indol-3-ylmethyl)-2-oxo-ethyl]amino]-2-oxo-ethyl]amino]-5-oxo-pentanoic acid
> <PUBCHEM_IUPAC_CAS_NAME>
(4S)-4-[[(2S)-2-amino-3-(1H-indol-3-yl)-1-oxopropyl]amino]-5-[[(2S)-3-carboxy-1-[[(2S)-1-[[(2S)-1-(carboxymethylamino)-3-methyl-1-oxobutan-2-yl]amino]-3-(1H-indol-3-yl)-1-oxopropan-2-yl]amino]-1-oxopropan-2-yl]amino]-5-oxopentanoic acid
> <PUBCHEM_IUPAC_NAME_MARKUP>
(4<I>S</I>)-4-[[(2<I>S</I>)-2-amino-3-(1<I>H</I>-indol-3-yl)propanoyl]amino]-5-[[(2<I>S</I>)-3-carboxy-1-[[(2<I>S</I>)-1-[[(2<I>S</I>)-1-(carboxymethylamino)-3-methyl-1-oxobutan-2-yl]amino]-3-(1<I>H</I>-indol-3-yl)-1-oxopropan-2-yl]amino]-1-oxopropan-2-yl]amino]-5-oxopentanoic acid
> <PUBCHEM_IUPAC_NAME>
(4S)-4-[[(2S)-2-amino-3-(1H-indol-3-yl)propanoyl]amino]-5-[[(2S)-3-carboxy-1-[[(2S)-1-[[(2S)-1-(carboxymethylamino)-3-methyl-1-oxobutan-2-yl]amino]-3-(1H-indol-3-yl)-1-oxopropan-2-yl]amino]-1-oxopropan-2-yl]amino]-5-oxopentanoic acid
> <PUBCHEM_IUPAC_SYSTEMATIC_NAME>
(4S)-4-[[(2S)-2-azanyl-3-(1H-indol-3-yl)propanoyl]amino]-5-[[(2S)-1-[[(2S)-1-[[(2S)-1-(2-hydroxy-2-oxoethylamino)-3-methyl-1-oxidanylidene-butan-2-yl]amino]-3-(1H-indol-3-yl)-1-oxidanylidene-propan-2-yl]amino]-4-oxidanyl-1,4-bis(oxidanylidene)butan-2-yl]amino]-5-oxidanylidene-pentanoic acid
> <PUBCHEM_IUPAC_TRADITIONAL_NAME>
(4S)-4-[[(2S)-2-amino-3-(1H-indol-3-yl)propanoyl]amino]-5-[[(1S)-1-(carboxymethyl)-2-[[(1S)-2-[[(1S)-1-(carboxymethylcarbamoyl)-2-methyl-propyl]amino]-1-(1H-indol-3-ylmethyl)-2-keto-ethyl]amino]-2-keto-ethyl]amino]-5-keto-valeric acid
> <PUBCHEM_IUPAC_INCHI>
InChI=1S/C38H46N8O11/c1-19(2)33(38(57)42-18-32(51)52)46-37(56)28(14-21-17-41-26-10-6-4-8-23(21)26)44-36(55)29(15-31(49)50)45-35(54)27(11-12-30(47)48)43-34(53)24(39)13-20-16-40-25-9-5-3-7-22(20)25/h3-10,16-17,19,24,27-29,33,40-41H,11-15,18,39H2,1-2H3,(H,42,57)(H,43,53)(H,44,55)(H,45,54)(H,46,56)(H,47,48)(H,49,50)(H,51,52)/t24-,27-,28-,29-,33-/m0/s1
> <PUBCHEM_IUPAC_INCHIKEY>
FQARQHHTYGTVMR-RJOWKWGBSA-N
> <PUBCHEM_XLOGP3_AA>
-1.7
> <PUBCHEM_EXACT_MASS>
790.32860431
> <PUBCHEM_MOLECULAR_FORMULA>
C38H46N8O11
> <PUBCHEM_MOLECULAR_WEIGHT>
790.8
> <PUBCHEM_OPENEYE_CAN_SMILES>
CC(C)C(C(=O)NCC(=O)O)NC(=O)C(CC1=CNC2=CC=CC=C21)NC(=O)C(CC(=O)O)NC(=O)C(CCC(=O)O)NC(=O)C(CC3=CNC4=CC=CC=C43)N
> <PUBCHEM_OPENEYE_ISO_SMILES>
CC(C)[C@@H](C(=O)NCC(=O)O)NC(=O)[C@H](CC1=CNC2=CC=CC=C21)NC(=O)[C@H](CC(=O)O)NC(=O)[C@H](CCC(=O)O)NC(=O)[C@H](CC3=CNC4=CC=CC=C43)N
> <PUBCHEM_CACTVS_TPSA>
315
> <PUBCHEM_MONOISOTOPIC_WEIGHT>
790.32860431
> <PUBCHEM_TOTAL_CHARGE>
0
> <PUBCHEM_HEAVY_ATOM_COUNT>
57
> <PUBCHEM_ATOM_DEF_STEREO_COUNT>
5
> <PUBCHEM_ATOM_UDEF_STEREO_COUNT>
0
> <PUBCHEM_BOND_DEF_STEREO_COUNT>
0
> <PUBCHEM_BOND_UDEF_STEREO_COUNT>
0
> <PUBCHEM_ISOTOPIC_ATOM_COUNT>
0
> <PUBCHEM_COMPONENT_COUNT>
1
> <PUBCHEM_CACTVS_TAUTO_COUNT>
-1
> <PUBCHEM_COORDINATE_TYPE>
1
5
255
> <PUBCHEM_BONDANNOTATIONS>
22  12  6
20  13  5
26  14  6
27  15  5
16  33  8
16  35  8
18  46  8
18  47  8
36  19  5
24  28  8
24  35  8
28  33  8
28  42  8
33  45  8
40  44  8
40  47  8
42  48  8
44  46  8
44  51  8
45  49  8
46  53  8
48  49  8
51  55  8
53  56  8
55  56  8
$$$$
