514217
  -OEChem-10302200282D
132135  0     1  0  0  0  0  0999 V2000
   14.3312    1.8651    0.0000 O   0  0  0  0  0  0  0  0  0  0  0  0
    6.1350    4.3651    0.0000 O   0  0  0  0  0  0  0  0  0  0  0  0
   11.5991    4.3651    0.0000 O   0  0  0  0  0  0  0  0  0  0  0  0
    2.5369    3.3651    0.0000 O   0  0  0  0  0  0  0  0  0  0  0  0
   13.8626   -5.1349    0.0000 O   0  0  0  0  0  0  0  0  0  0  0  0
    3.4030    1.8651    0.0000 O   0  0  0  0  0  0  0  0  0  0  0  0
    8.8671    1.8651    0.0000 O   0  0  0  0  0  0  0  0  0  0  0  0
   11.1305   -2.6349    0.0000 O   0  0  0  0  0  0  0  0  0  0  0  0
   14.7286   -2.6349    0.0000 O   0  0  0  0  0  0  0  0  0  0  0  0
   13.8626   -1.1349    0.0000 O   0  0  0  0  0  0  0  0  0  0  0  0
    8.3985   -5.1349    0.0000 O   0  0  0  0  0  0  0  0  0  0  0  0
   11.9965   -7.1349    0.0000 O   0  0  0  0  0  0  0  0  0  0  0  0
   10.2645   -7.1349    0.0000 O   0  0  0  0  0  0  0  0  0  0  0  0
   13.3312    3.3651    0.0000 N   0  0  0  0  0  0  0  0  0  0  0  0
    5.1350    2.8651    0.0000 N   0  0  0  0  0  0  0  0  0  0  0  0
   16.0632    2.8651    0.0000 N   0  0  0  0  0  0  0  0  0  0  0  0
    7.8671    3.3651    0.0000 N   0  0  0  0  0  0  0  0  0  0  0  0
   10.5991    2.8651    0.0000 N   0  0  0  0  0  0  0  0  0  0  0  0
   17.6381    5.1970    0.0000 N   0  0  0  0  0  0  0  0  0  0  0  0
   12.1305   -4.1349    0.0000 N   0  0  0  0  0  0  0  0  0  0  0  0
    4.5601    1.0332    0.0000 N   0  0  0  0  0  0  0  0  0  0  0  0
    9.3985   -3.6349    0.0000 N   0  0  0  0  0  0  0  0  0  0  0  0
    6.6664   -4.1349    0.0000 N   0  0  0  0  0  0  0  0  0  0  0  0
    4.2690    4.3651    0.0000 C   0  0  2  0  0  0  0  0  0  0  0  0
   12.4651    2.8651    0.0000 C   0  0  1  0  0  0  0  0  0  0  0  0
   15.1972    3.3651    0.0000 C   0  0  1  0  0  0  0  0  0  0  0  0
    4.2690    3.3651    0.0000 C   0  0  1  0  0  0  0  0  0  0  0  0
   12.4651    1.8651    0.0000 C   0  0  0  0  0  0  0  0  0  0  0  0
   15.1972    4.3651    0.0000 C   0  0  0  0  0  0  0  0  0  0  0  0
    7.0010    2.8651    0.0000 C   0  0  1  0  0  0  0  0  0  0  0  0
    7.0010    1.8651    0.0000 C   0  0  0  0  0  0  0  0  0  0  0  0
    3.4030    4.8651    0.0000 C   0  0  0  0  0  0  0  0  0  0  0  0
   14.3312    2.8651    0.0000 C   0  0  0  0  0  0  0  0  0  0  0  0
   16.0632    4.8651    0.0000 C   0  0  0  0  0  0  0  0  0  0  0  0
    6.1350    3.3651    0.0000 C   0  0  0  0  0  0  0  0  0  0  0  0
    6.1350    1.3651    0.0000 C   0  0  0  0  0  0  0  0  0  0  0  0
    5.1350    4.8651    0.0000 C   0  0  0  0  0  0  0  0  0  0  0  0
   11.5991    3.3651    0.0000 C   0  0  0  0  0  0  0  0  0  0  0  0
   16.1663    5.8538    0.0000 C   0  0  0  0  0  0  0  0  0  0  0  0
   11.5991    1.3651    0.0000 C   0  0  0  0  0  0  0  0  0  0  0  0
   13.3312    1.3651    0.0000 C   0  0  0  0  0  0  0  0  0  0  0  0
   12.9965   -3.6349    0.0000 C   0  0  2  0  0  0  0  0  0  0  0  0
    6.0320    0.3764    0.0000 C   0  0  0  0  0  0  0  0  0  0  0  0
   13.8626   -4.1349    0.0000 C   0  0  0  0  0  0  0  0  0  0  0  0
   17.1448    6.0601    0.0000 C   0  0  0  0  0  0  0  0  0  0  0  0
    3.4030    2.8651    0.0000 C   0  0  0  0  0  0  0  0  0  0  0  0
   16.9710    4.4600    0.0000 C   0  0  0  0  0  0  0  0  0  0  0  0
    3.4030    5.8651    0.0000 C   0  0  0  0  0  0  0  0  0  0  0  0
    9.7331    3.3651    0.0000 C   0  0  0  0  0  0  0  0  0  0  0  0
    8.8671    2.8651    0.0000 C   0  0  0  0  0  0  0  0  0  0  0  0
    5.0534    0.1702    0.0000 C   0  0  0  0  0  0  0  0  0  0  0  0
    5.2272    1.7702    0.0000 C   0  0  0  0  0  0  0  0  0  0  0  0
   12.9965   -2.6349    0.0000 C   0  0  0  0  0  0  0  0  0  0  0  0
   10.2645   -4.1349    0.0000 C   0  0  2  0  0  0  0  0  0  0  0  0
   15.4984    6.5981    0.0000 C   0  0  0  0  0  0  0  0  0  0  0  0
   11.1305   -3.6349    0.0000 C   0  0  0  0  0  0  0  0  0  0  0  0
    6.6998   -0.3679    0.0000 C   0  0  0  0  0  0  0  0  0  0  0  0
   17.4554    7.0106    0.0000 C   0  0  0  0  0  0  0  0  0  0  0  0
   10.2645   -5.1349    0.0000 C   0  0  0  0  0  0  0  0  0  0  0  0
    4.7428   -0.7803    0.0000 C   0  0  0  0  0  0  0  0  0  0  0  0
   15.8091    7.5487    0.0000 C   0  0  0  0  0  0  0  0  0  0  0  0
   16.7876    7.7549    0.0000 C   0  0  0  0  0  0  0  0  0  0  0  0
    6.3891   -1.3184    0.0000 C   0  0  0  0  0  0  0  0  0  0  0  0
   11.1305   -5.6349    0.0000 C   0  0  0  0  0  0  0  0  0  0  0  0
    5.4106   -1.5246    0.0000 C   0  0  0  0  0  0  0  0  0  0  0  0
   13.8626   -2.1349    0.0000 C   0  0  0  0  0  0  0  0  0  0  0  0
    8.3985   -4.1349    0.0000 C   0  0  0  0  0  0  0  0  0  0  0  0
    7.5324   -3.6349    0.0000 C   0  0  2  0  0  0  0  0  0  0  0  0
   11.1305   -6.6349    0.0000 C   0  0  0  0  0  0  0  0  0  0  0  0
    7.5324   -2.6349    0.0000 C   0  0  0  0  0  0  0  0  0  0  0  0
    4.8059    4.0551    0.0000 H   0  0  0  0  0  0  0  0  0  0  0  0
   13.0021    2.5551    0.0000 H   0  0  0  0  0  0  0  0  0  0  0  0
   15.1972    2.7451    0.0000 H   0  0  0  0  0  0  0  0  0  0  0  0
    4.2690    2.7451    0.0000 H   0  0  0  0  0  0  0  0  0  0  0  0
   11.9282    2.1751    0.0000 H   0  0  0  0  0  0  0  0  0  0  0  0
   14.9851    4.9477    0.0000 H   0  0  0  0  0  0  0  0  0  0  0  0
   14.5866    4.2575    0.0000 H   0  0  0  0  0  0  0  0  0  0  0  0
    7.5380    2.5551    0.0000 H   0  0  0  0  0  0  0  0  0  0  0  0
    7.2131    1.2825    0.0000 H   0  0  0  0  0  0  0  0  0  0  0  0
    7.6116    1.9728    0.0000 H   0  0  0  0  0  0  0  0  0  0  0  0
    2.7924    4.9728    0.0000 H   0  0  0  0  0  0  0  0  0  0  0  0
    3.1909    4.2825    0.0000 H   0  0  0  0  0  0  0  0  0  0  0  0
   13.8681    3.6751    0.0000 H   0  0  0  0  0  0  0  0  0  0  0  0
    5.6720    2.5551    0.0000 H   0  0  0  0  0  0  0  0  0  0  0  0
   16.6001    2.5551    0.0000 H   0  0  0  0  0  0  0  0  0  0  0  0
    5.4450    4.3282    0.0000 H   0  0  0  0  0  0  0  0  0  0  0  0
    5.6720    5.1751    0.0000 H   0  0  0  0  0  0  0  0  0  0  0  0
    4.8250    5.4021    0.0000 H   0  0  0  0  0  0  0  0  0  0  0  0
   11.2891    1.9020    0.0000 H   0  0  0  0  0  0  0  0  0  0  0  0
   11.0622    1.0551    0.0000 H   0  0  0  0  0  0  0  0  0  0  0  0
   11.9091    0.8282    0.0000 H   0  0  0  0  0  0  0  0  0  0  0  0
   13.0212    0.8282    0.0000 H   0  0  0  0  0  0  0  0  0  0  0  0
   13.8681    1.0551    0.0000 H   0  0  0  0  0  0  0  0  0  0  0  0
   13.6412    1.9020    0.0000 H   0  0  0  0  0  0  0  0  0  0  0  0
   12.4596   -3.3249    0.0000 H   0  0  0  0  0  0  0  0  0  0  0  0
    8.4040    3.6751    0.0000 H   0  0  0  0  0  0  0  0  0  0  0  0
   17.0989    3.8533    0.0000 H   0  0  0  0  0  0  0  0  0  0  0  0
    4.0230    5.8651    0.0000 H   0  0  0  0  0  0  0  0  0  0  0  0
    3.4030    6.4851    0.0000 H   0  0  0  0  0  0  0  0  0  0  0  0
    2.7830    5.8651    0.0000 H   0  0  0  0  0  0  0  0  0  0  0  0
   11.1360    2.5551    0.0000 H   0  0  0  0  0  0  0  0  0  0  0  0
   10.1316    3.8401    0.0000 H   0  0  0  0  0  0  0  0  0  0  0  0
    9.3346    3.8401    0.0000 H   0  0  0  0  0  0  0  0  0  0  0  0
    5.0994    2.3769    0.0000 H   0  0  0  0  0  0  0  0  0  0  0  0
   18.2545    5.1301    0.0000 H   0  0  0  0  0  0  0  0  0  0  0  0
   12.7845   -2.0523    0.0000 H   0  0  0  0  0  0  0  0  0  0  0  0
   12.3860   -2.7425    0.0000 H   0  0  0  0  0  0  0  0  0  0  0  0
   12.6675   -4.4449    0.0000 H   0  0  0  0  0  0  0  0  0  0  0  0
    9.7276   -4.4449    0.0000 H   0  0  0  0  0  0  0  0  0  0  0  0
    3.9438    1.1002    0.0000 H   0  0  0  0  0  0  0  0  0  0  0  0
   14.8917    6.4703    0.0000 H   0  0  0  0  0  0  0  0  0  0  0  0
    7.3065   -0.2400    0.0000 H   0  0  0  0  0  0  0  0  0  0  0  0
   18.0621    7.1384    0.0000 H   0  0  0  0  0  0  0  0  0  0  0  0
    9.6539   -5.0272    0.0000 H   0  0  0  0  0  0  0  0  0  0  0  0
   10.0524   -5.7175    0.0000 H   0  0  0  0  0  0  0  0  0  0  0  0
    4.1361   -0.9082    0.0000 H   0  0  0  0  0  0  0  0  0  0  0  0
   15.3950    8.0101    0.0000 H   0  0  0  0  0  0  0  0  0  0  0  0
   16.9802    8.3442    0.0000 H   0  0  0  0  0  0  0  0  0  0  0  0
    9.9354   -3.3249    0.0000 H   0  0  0  0  0  0  0  0  0  0  0  0
    6.8032   -1.7799    0.0000 H   0  0  0  0  0  0  0  0  0  0  0  0
   11.7411   -5.7425    0.0000 H   0  0  0  0  0  0  0  0  0  0  0  0
   11.3426   -5.0523    0.0000 H   0  0  0  0  0  0  0  0  0  0  0  0
    5.2180   -2.1140    0.0000 H   0  0  0  0  0  0  0  0  0  0  0  0
    2.0000    3.0551    0.0000 H   0  0  0  0  0  0  0  0  0  0  0  0
    7.5324   -4.2549    0.0000 H   0  0  0  0  0  0  0  0  0  0  0  0
    8.1524   -2.6349    0.0000 H   0  0  0  0  0  0  0  0  0  0  0  0
    7.5324   -2.0149    0.0000 H   0  0  0  0  0  0  0  0  0  0  0  0
    6.9124   -2.6349    0.0000 H   0  0  0  0  0  0  0  0  0  0  0  0
   15.2655   -2.3249    0.0000 H   0  0  0  0  0  0  0  0  0  0  0  0
    6.6664   -4.7549    0.0000 H   0  0  0  0  0  0  0  0  0  0  0  0
    7.2034   -3.8249    0.0000 H   0  0  0  0  0  0  0  0  0  0  0  0
   11.9965   -7.7549    0.0000 H   0  0  0  0  0  0  0  0  0  0  0  0
  1 33  2  0  0  0  0
  2 35  2  0  0  0  0
  3 38  2  0  0  0  0
  4 46  1  0  0  0  0
  4124  1  0  0  0  0
  5 44  2  0  0  0  0
  6 46  2  0  0  0  0
  7 50  2  0  0  0  0
  8 56  2  0  0  0  0
  9 66  1  0  0  0  0
  9129  1  0  0  0  0
 10 66  2  0  0  0  0
 11 67  2  0  0  0  0
 12 69  1  0  0  0  0
 12132  1  0  0  0  0
 13 69  2  0  0  0  0
 25 14  1  1  0  0  0
 14 33  1  0  0  0  0
 14 83  1  0  0  0  0
 27 15  1  6  0  0  0
 15 35  1  0  0  0  0
 15 84  1  0  0  0  0
 26 16  1  6  0  0  0
 16 44  1  0  0  0  0
 16 85  1  0  0  0  0
 30 17  1  1  0  0  0
 17 50  1  0  0  0  0
 17 96  1  0  0  0  0
 18 38  1  0  0  0  0
 18 49  1  0  0  0  0
 18101  1  0  0  0  0
 19 45  1  0  0  0  0
 19 47  1  0  0  0  0
 19105  1  0  0  0  0
 42 20  1  1  0  0  0
 20 56  1  0  0  0  0
 20108  1  0  0  0  0
 21 51  1  0  0  0  0
 21 52  1  0  0  0  0
 21110  1  0  0  0  0
 54 22  1  6  0  0  0
 22 67  1  0  0  0  0
 22119  1  0  0  0  0
 68 23  1  1  0  0  0
 23130  1  0  0  0  0
 23131  1  0  0  0  0
 24 27  1  0  0  0  0
 24 32  1  0  0  0  0
 24 37  1  6  0  0  0
 24 71  1  0  0  0  0
 25 28  1  0  0  0  0
 25 38  1  0  0  0  0
 25 72  1  0  0  0  0
 26 29  1  0  0  0  0
 26 33  1  0  0  0  0
 26 73  1  0  0  0  0
 27 46  1  0  0  0  0
 27 74  1  0  0  0  0
 28 40  1  0  0  0  0
 28 41  1  0  0  0  0
 28 75  1  0  0  0  0
 29 34  1  0  0  0  0
 29 76  1  0  0  0  0
 29 77  1  0  0  0  0
 30 31  1  0  0  0  0
 30 35  1  0  0  0  0
 30 78  1  0  0  0  0
 31 36  1  0  0  0  0
 31 79  1  0  0  0  0
 31 80  1  0  0  0  0
 32 48  1  0  0  0  0
 32 81  1  0  0  0  0
 32 82  1  0  0  0  0
 34 39  1  0  0  0  0
 34 47  2  0  0  0  0
 36 43  1  0  0  0  0
 36 52  2  0  0  0  0
 37 86  1  0  0  0  0
 37 87  1  0  0  0  0
 37 88  1  0  0  0  0
 39 45  1  0  0  0  0
 39 55  2  0  0  0  0
 40 89  1  0  0  0  0
 40 90  1  0  0  0  0
 40 91  1  0  0  0  0
 41 92  1  0  0  0  0
 41 93  1  0  0  0  0
 41 94  1  0  0  0  0
 42 44  1  0  0  0  0
 42 53  1  0  0  0  0
 42 95  1  0  0  0  0
 43 51  1  0  0  0  0
 43 57  2  0  0  0  0
 45 58  2  0  0  0  0
 47 97  1  0  0  0  0
 48 98  1  0  0  0  0
 48 99  1  0  0  0  0
 48100  1  0  0  0  0
 49 50  1  0  0  0  0
 49102  1  0  0  0  0
 49103  1  0  0  0  0
 51 60  2  0  0  0  0
 52104  1  0  0  0  0
 53 66  1  0  0  0  0
 53106  1  0  0  0  0
 53107  1  0  0  0  0
 54 56  1  0  0  0  0
 54 59  1  0  0  0  0
 54109  1  0  0  0  0
 55 61  1  0  0  0  0
 55111  1  0  0  0  0
 57 63  1  0  0  0  0
 57112  1  0  0  0  0
 58 62  1  0  0  0  0
 58113  1  0  0  0  0
 59 64  1  0  0  0  0
 59114  1  0  0  0  0
 59115  1  0  0  0  0
 60 65  1  0  0  0  0
 60116  1  0  0  0  0
 61 62  2  0  0  0  0
 61117  1  0  0  0  0
 62118  1  0  0  0  0
 63 65  2  0  0  0  0
 63120  1  0  0  0  0
 64 69  1  0  0  0  0
 64121  1  0  0  0  0
 64122  1  0  0  0  0
 65123  1  0  0  0  0
 67 68  1  0  0  0  0
 68 70  1  0  0  0  0
 68125  1  0  0  0  0
 70126  1  0  0  0  0
 70127  1  0  0  0  0
 70128  1  0  0  0  0
M  END
> <PUBCHEM_COMPOUND_CID>
514217
> <PUBCHEM_COMPOUND_CANONICALIZED>
1
> <PUBCHEM_CACTVS_COMPLEXITY>
1890
> <PUBCHEM_CACTVS_HBOND_ACCEPTOR>
14
> <PUBCHEM_CACTVS_HBOND_DONOR>
13
> <PUBCHEM_CACTVS_ROTATABLE_BOND>
27
> <PUBCHEM_CACTVS_SUBSKEYS>
AAADcfB//AAAAAAAAAAAAAAAAAAAAWLAAAAwYAAAAAAAAFgB/gAAHgAQCAAADSjBngQ+yPLJkgCoAzX3XACCgCAxAiAI2aG4ZJgKYPrAkbGUYAhmlgDYyAe/n8KOgAAAAAACAAAAAAAAAAQAAAAAAAAAAA==
> <PUBCHEM_IUPAC_OPENEYE_NAME>
(2S,3S)-2-[[(2S)-2-[[2-[[(2S)-2-[[(2S)-2-[[(2S)-2-[[(2S)-2-[[(2S)-2-aminopropanoyl]amino]-4-carboxy-butanoyl]amino]-3-carboxy-propanoyl]amino]-3-(1H-indol-3-yl)propanoyl]amino]-3-methyl-butanoyl]amino]acetyl]amino]-3-(1H-indol-3-yl)propanoyl]amino]-3-methyl-pentanoic acid
> <PUBCHEM_IUPAC_CAS_NAME>
(2S,3S)-2-[[(2S)-2-[[2-[[(2S)-2-[[(2S)-2-[[(2S)-2-[[(2S)-2-[[(2S)-2-amino-1-oxopropyl]amino]-4-carboxy-1-oxobutyl]amino]-3-carboxy-1-oxopropyl]amino]-3-(1H-indol-3-yl)-1-oxopropyl]amino]-3-methyl-1-oxobutyl]amino]-1-oxoethyl]amino]-3-(1H-indol-3-yl)-1-oxopropyl]amino]-3-methylpentanoic acid
> <PUBCHEM_IUPAC_NAME_MARKUP>
(2<I>S</I>,3<I>S</I>)-2-[[(2<I>S</I>)-2-[[2-[[(2<I>S</I>)-2-[[(2<I>S</I>)-2-[[(2<I>S</I>)-2-[[(2<I>S</I>)-2-[[(2<I>S</I>)-2-aminopropanoyl]amino]-4-carboxybutanoyl]amino]-3-carboxypropanoyl]amino]-3-(1<I>H</I>-indol-3-yl)propanoyl]amino]-3-methylbutanoyl]amino]acetyl]amino]-3-(1<I>H</I>-indol-3-yl)propanoyl]amino]-3-methylpentanoic acid
> <PUBCHEM_IUPAC_NAME>
(2S,3S)-2-[[(2S)-2-[[2-[[(2S)-2-[[(2S)-2-[[(2S)-2-[[(2S)-2-[[(2S)-2-aminopropanoyl]amino]-4-carboxybutanoyl]amino]-3-carboxypropanoyl]amino]-3-(1H-indol-3-yl)propanoyl]amino]-3-methylbutanoyl]amino]acetyl]amino]-3-(1H-indol-3-yl)propanoyl]amino]-3-methylpentanoic acid
> <PUBCHEM_IUPAC_SYSTEMATIC_NAME>
(2S,3S)-2-[[(2S)-2-[2-[[(2S)-2-[[(2S)-2-[[(2S)-2-[[(2S)-2-[[(2S)-2-azanylpropanoyl]amino]-5-oxidanyl-5-oxidanylidene-pentanoyl]amino]-4-oxidanyl-4-oxidanylidene-butanoyl]amino]-3-(1H-indol-3-yl)propanoyl]amino]-3-methyl-butanoyl]amino]ethanoylamino]-3-(1H-indol-3-yl)propanoyl]amino]-3-methyl-pentanoic acid
> <PUBCHEM_IUPAC_TRADITIONAL_NAME>
(2S,3S)-2-[[(2S)-2-[[2-[[(2S)-2-[[(2S)-2-[[(2S)-2-[[(2S)-2-[[(2S)-2-aminopropanoyl]amino]-4-carboxy-butanoyl]amino]-3-carboxy-propanoyl]amino]-3-(1H-indol-3-yl)propanoyl]amino]-3-methyl-butanoyl]amino]acetyl]amino]-3-(1H-indol-3-yl)propanoyl]amino]-3-methyl-valeric acid
> <PUBCHEM_IUPAC_INCHI>
InChI=1S/C47H62N10O13/c1-6-24(4)40(47(69)70)57-44(66)33(17-26-20-49-30-13-9-7-11-28(26)30)52-36(58)22-51-46(68)39(23(2)3)56-45(67)34(18-27-21-50-31-14-10-8-12-29(27)31)54-43(65)35(19-38(61)62)55-42(64)32(15-16-37(59)60)53-41(63)25(5)48/h7-14,20-21,23-25,32-35,39-40,49-50H,6,15-19,22,48H2,1-5H3,(H,51,68)(H,52,58)(H,53,63)(H,54,65)(H,55,64)(H,56,67)(H,57,66)(H,59,60)(H,61,62)(H,69,70)/t24-,25-,32-,33-,34-,35-,39-,40-/m0/s1
> <PUBCHEM_IUPAC_INCHIKEY>
VTTIJVGZFYJLFQ-PUVLXDMYSA-N
> <PUBCHEM_XLOGP3_AA>
-0.8
> <PUBCHEM_EXACT_MASS>
974.44978207
> <PUBCHEM_MOLECULAR_FORMULA>
C47H62N10O13
> <PUBCHEM_MOLECULAR_WEIGHT>
975.1
> <PUBCHEM_OPENEYE_CAN_SMILES>
CCC(C)C(C(=O)O)NC(=O)C(CC1=CNC2=CC=CC=C21)NC(=O)CNC(=O)C(C(C)C)NC(=O)C(CC3=CNC4=CC=CC=C43)NC(=O)C(CC(=O)O)NC(=O)C(CCC(=O)O)NC(=O)C(C)N
> <PUBCHEM_OPENEYE_ISO_SMILES>
CC[C@H](C)[C@@H](C(=O)O)NC(=O)[C@H](CC1=CNC2=CC=CC=C21)NC(=O)CNC(=O)[C@H](C(C)C)NC(=O)[C@H](CC3=CNC4=CC=CC=C43)NC(=O)[C@H](CC(=O)O)NC(=O)[C@H](CCC(=O)O)NC(=O)[C@H](C)N
> <PUBCHEM_CACTVS_TPSA>
373
> <PUBCHEM_MONOISOTOPIC_WEIGHT>
974.44978207
> <PUBCHEM_TOTAL_CHARGE>
0
> <PUBCHEM_HEAVY_ATOM_COUNT>
70
> <PUBCHEM_ATOM_DEF_STEREO_COUNT>
8
> <PUBCHEM_ATOM_UDEF_STEREO_COUNT>
0
> <PUBCHEM_BOND_DEF_STEREO_COUNT>
0
> <PUBCHEM_BOND_UDEF_STEREO_COUNT>
0
> <PUBCHEM_ISOTOPIC_ATOM_COUNT>
0
> <PUBCHEM_COMPONENT_COUNT>
1
> <PUBCHEM_CACTVS_TAUTO_COUNT>
-1
> <PUBCHEM_COORDINATE_TYPE>
1
5
255
> <PUBCHEM_BONDANNOTATIONS>
25  14  5
27  15  6
26  16  6
30  17  5
19  45  8
19  47  8
42  20  5
21  51  8
21  52  8
54  22  6
68  23  5
24  37  6
34  39  8
34  47  8
36  43  8
36  52  8
39  45  8
39  55  8
43  51  8
43  57  8
45  58  8
51  60  8
55  61  8
57  63  8
58  62  8
60  65  8
61  62  8
63  65  8
$$$$
