514214
  -OEChem-10302200282D
 93 96  0     1  0  0  0  0  0999 V2000
    7.2566    1.3766    0.0000 O   0  0  0  0  0  0  0  0  0  0  0  0
    7.2101    4.0220    0.0000 O   0  0  0  0  0  0  0  0  0  0  0  0
    9.6173   -2.5511    0.0000 O   0  0  0  0  0  0  0  0  0  0  0  0
    7.5673    2.3271    0.0000 O   0  0  0  0  0  0  0  0  0  0  0  0
   12.8635   -0.9819    0.0000 O   0  0  0  0  0  0  0  0  0  0  0  0
    7.9244    0.6323    0.0000 O   0  0  0  0  0  0  0  0  0  0  0  0
    5.6103    1.9147    0.0000 N   0  0  0  0  0  0  0  0  0  0  0  0
    6.6353   -0.5244    0.0000 N   0  0  0  0  0  0  0  0  0  0  0  0
   11.5743   -2.1387    0.0000 N   0  0  0  0  0  0  0  0  0  0  0  0
    9.2601   -0.8563    0.0000 N   0  0  0  0  0  0  0  0  0  0  0  0
    4.6783   -2.5463    0.0000 N   0  0  0  0  0  0  0  0  0  0  0  0
   12.9100   -3.6273    0.0000 N   0  0  0  0  0  0  0  0  0  0  0  0
   15.5166   -4.6874    0.0000 N   0  0  0  0  0  0  0  0  0  0  0  0
    5.2531    3.6095    0.0000 C   0  0  2  0  0  0  0  0  0  0  0  0
    5.9209    2.8652    0.0000 C   0  0  1  0  0  0  0  0  0  0  0  0
    5.9674    0.2199    0.0000 C   0  0  1  0  0  0  0  0  0  0  0  0
    4.9889    0.0137    0.0000 C   0  0  0  0  0  0  0  0  0  0  0  0
   10.9065   -1.3944    0.0000 C   0  0  1  0  0  0  0  0  0  0  0  0
    5.5637    4.5600    0.0000 C   0  0  0  0  0  0  0  0  0  0  0  0
   11.2171   -0.4438    0.0000 C   0  0  0  0  0  0  0  0  0  0  0  0
    6.2781    1.1704    0.0000 C   0  0  0  0  0  0  0  0  0  0  0  0
    4.6783   -0.9369    0.0000 C   0  0  0  0  0  0  0  0  0  0  0  0
    4.2746    3.4033    0.0000 C   0  0  0  0  0  0  0  0  0  0  0  0
   13.2207   -2.6768    0.0000 C   0  0  1  0  0  0  0  0  0  0  0  0
    3.7320   -1.2416    0.0000 C   0  0  0  0  0  0  0  0  0  0  0  0
   14.1992   -2.4705    0.0000 C   0  0  0  0  0  0  0  0  0  0  0  0
    9.9280   -1.6006    0.0000 C   0  0  0  0  0  0  0  0  0  0  0  0
    6.8994    3.0714    0.0000 C   0  0  0  0  0  0  0  0  0  0  0  0
    4.8959    5.3043    0.0000 C   0  0  0  0  0  0  0  0  0  0  0  0
   12.5528   -1.9324    0.0000 C   0  0  0  0  0  0  0  0  0  0  0  0
   12.1957   -0.2376    0.0000 C   0  0  0  0  0  0  0  0  0  0  0  0
   10.5493    0.3005    0.0000 C   0  0  0  0  0  0  0  0  0  0  0  0
   14.8670   -3.2148    0.0000 C   0  0  0  0  0  0  0  0  0  0  0  0
    3.7320   -2.2416    0.0000 C   0  0  0  0  0  0  0  0  0  0  0  0
    5.2619   -1.7416    0.0000 C   0  0  0  0  0  0  0  0  0  0  0  0
    8.2816   -1.0625    0.0000 C   0  0  0  0  0  0  0  0  0  0  0  0
    7.6138   -0.3182    0.0000 C   0  0  0  0  0  0  0  0  0  0  0  0
   15.8558   -3.1118    0.0000 C   0  0  0  0  0  0  0  0  0  0  0  0
    2.8660   -0.7416    0.0000 C   0  0  0  0  0  0  0  0  0  0  0  0
   16.2593   -4.0267    0.0000 C   0  0  0  0  0  0  0  0  0  0  0  0
   14.6578   -4.1866    0.0000 C   0  0  0  0  0  0  0  0  0  0  0  0
    2.8660   -2.7416    0.0000 C   0  0  0  0  0  0  0  0  0  0  0  0
   16.4463   -2.3048    0.0000 C   0  0  0  0  0  0  0  0  0  0  0  0
    2.0000   -1.2416    0.0000 C   0  0  0  0  0  0  0  0  0  0  0  0
    2.0000   -2.2416    0.0000 C   0  0  0  0  0  0  0  0  0  0  0  0
   17.2535   -4.1347    0.0000 C   0  0  0  0  0  0  0  0  0  0  0  0
   17.4405   -2.4128    0.0000 C   0  0  0  0  0  0  0  0  0  0  0  0
   17.8441   -3.3277    0.0000 C   0  0  0  0  0  0  0  0  0  0  0  0
    5.0605    3.0202    0.0000 H   0  0  0  0  0  0  0  0  0  0  0  0
    6.3350    2.4038    0.0000 H   0  0  0  0  0  0  0  0  0  0  0  0
    5.7748   -0.3694    0.0000 H   0  0  0  0  0  0  0  0  0  0  0  0
    4.9684    0.6333    0.0000 H   0  0  0  0  0  0  0  0  0  0  0  0
    4.3751    0.1010    0.0000 H   0  0  0  0  0  0  0  0  0  0  0  0
   10.7139   -1.9837    0.0000 H   0  0  0  0  0  0  0  0  0  0  0  0
    6.1107    4.2680    0.0000 H   0  0  0  0  0  0  0  0  0  0  0  0
    5.9463    5.0480    0.0000 H   0  0  0  0  0  0  0  0  0  0  0  0
   11.4098    0.1455    0.0000 H   0  0  0  0  0  0  0  0  0  0  0  0
    5.0036    1.7868    0.0000 H   0  0  0  0  0  0  0  0  0  0  0  0
    4.1467    4.0100    0.0000 H   0  0  0  0  0  0  0  0  0  0  0  0
    3.6679    3.2755    0.0000 H   0  0  0  0  0  0  0  0  0  0  0  0
    4.4024    2.7966    0.0000 H   0  0  0  0  0  0  0  0  0  0  0  0
   12.6140   -2.8046    0.0000 H   0  0  0  0  0  0  0  0  0  0  0  0
    6.4427   -1.1138    0.0000 H   0  0  0  0  0  0  0  0  0  0  0  0
   11.3817   -2.7280    0.0000 H   0  0  0  0  0  0  0  0  0  0  0  0
   14.7255   -2.1429    0.0000 H   0  0  0  0  0  0  0  0  0  0  0  0
   13.9679   -1.8953    0.0000 H   0  0  0  0  0  0  0  0  0  0  0  0
    5.3574    5.7184    0.0000 H   0  0  0  0  0  0  0  0  0  0  0  0
    4.4818    5.7658    0.0000 H   0  0  0  0  0  0  0  0  0  0  0  0
    4.4344    4.8903    0.0000 H   0  0  0  0  0  0  0  0  0  0  0  0
   12.3235   -0.8443    0.0000 H   0  0  0  0  0  0  0  0  0  0  0  0
   12.8023   -0.1098    0.0000 H   0  0  0  0  0  0  0  0  0  0  0  0
   12.0678    0.3690    0.0000 H   0  0  0  0  0  0  0  0  0  0  0  0
   11.0108    0.7145    0.0000 H   0  0  0  0  0  0  0  0  0  0  0  0
   10.1352    0.7619    0.0000 H   0  0  0  0  0  0  0  0  0  0  0  0
   10.0878   -0.1136    0.0000 H   0  0  0  0  0  0  0  0  0  0  0  0
    5.8819   -1.7416    0.0000 H   0  0  0  0  0  0  0  0  0  0  0  0
    7.7553   -1.3902    0.0000 H   0  0  0  0  0  0  0  0  0  0  0  0
    8.5129   -1.6378    0.0000 H   0  0  0  0  0  0  0  0  0  0  0  0
    9.4528   -0.2670    0.0000 H   0  0  0  0  0  0  0  0  0  0  0  0
    4.8709   -3.1356    0.0000 H   0  0  0  0  0  0  0  0  0  0  0  0
    2.8660   -0.1216    0.0000 H   0  0  0  0  0  0  0  0  0  0  0  0
   14.0906   -4.4369    0.0000 H   0  0  0  0  0  0  0  0  0  0  0  0
    2.8660   -3.3616    0.0000 H   0  0  0  0  0  0  0  0  0  0  0  0
   12.3033   -3.7551    0.0000 H   0  0  0  0  0  0  0  0  0  0  0  0
   13.3241   -4.0887    0.0000 H   0  0  0  0  0  0  0  0  0  0  0  0
   15.5782   -5.3043    0.0000 H   0  0  0  0  0  0  0  0  0  0  0  0
   16.1961   -1.7375    0.0000 H   0  0  0  0  0  0  0  0  0  0  0  0
    1.4631   -0.9316    0.0000 H   0  0  0  0  0  0  0  0  0  0  0  0
    1.4631   -2.5516    0.0000 H   0  0  0  0  0  0  0  0  0  0  0  0
   17.5037   -4.7020    0.0000 H   0  0  0  0  0  0  0  0  0  0  0  0
    7.8168    4.1498    0.0000 H   0  0  0  0  0  0  0  0  0  0  0  0
   17.8067   -1.9124    0.0000 H   0  0  0  0  0  0  0  0  0  0  0  0
   18.4604   -3.3947    0.0000 H   0  0  0  0  0  0  0  0  0  0  0  0
  1 21  2  0  0  0  0
  2 28  1  0  0  0  0
  2 91  1  0  0  0  0
  3 27  2  0  0  0  0
  4 28  2  0  0  0  0
  5 30  2  0  0  0  0
  6 37  2  0  0  0  0
 15  7  1  1  0  0  0
  7 21  1  0  0  0  0
  7 58  1  0  0  0  0
 16  8  1  1  0  0  0
  8 37  1  0  0  0  0
  8 63  1  0  0  0  0
 18  9  1  6  0  0  0
  9 30  1  0  0  0  0
  9 64  1  0  0  0  0
 10 27  1  0  0  0  0
 10 36  1  0  0  0  0
 10 79  1  0  0  0  0
 11 34  1  0  0  0  0
 11 35  1  0  0  0  0
 11 80  1  0  0  0  0
 24 12  1  6  0  0  0
 12 84  1  0  0  0  0
 12 85  1  0  0  0  0
 13 40  1  0  0  0  0
 13 41  1  0  0  0  0
 13 86  1  0  0  0  0
 14 15  1  0  0  0  0
 14 19  1  0  0  0  0
 14 23  1  1  0  0  0
 14 49  1  0  0  0  0
 15 28  1  0  0  0  0
 15 50  1  0  0  0  0
 16 17  1  0  0  0  0
 16 21  1  0  0  0  0
 16 51  1  0  0  0  0
 17 22  1  0  0  0  0
 17 52  1  0  0  0  0
 17 53  1  0  0  0  0
 18 20  1  0  0  0  0
 18 27  1  0  0  0  0
 18 54  1  0  0  0  0
 19 29  1  0  0  0  0
 19 55  1  0  0  0  0
 19 56  1  0  0  0  0
 20 31  1  0  0  0  0
 20 32  1  0  0  0  0
 20 57  1  0  0  0  0
 22 25  1  0  0  0  0
 22 35  2  0  0  0  0
 23 59  1  0  0  0  0
 23 60  1  0  0  0  0
 23 61  1  0  0  0  0
 24 26  1  0  0  0  0
 24 30  1  0  0  0  0
 24 62  1  0  0  0  0
 25 34  1  0  0  0  0
 25 39  2  0  0  0  0
 26 33  1  0  0  0  0
 26 65  1  0  0  0  0
 26 66  1  0  0  0  0
 29 67  1  0  0  0  0
 29 68  1  0  0  0  0
 29 69  1  0  0  0  0
 31 70  1  0  0  0  0
 31 71  1  0  0  0  0
 31 72  1  0  0  0  0
 32 73  1  0  0  0  0
 32 74  1  0  0  0  0
 32 75  1  0  0  0  0
 33 38  1  0  0  0  0
 33 41  2  0  0  0  0
 34 42  2  0  0  0  0
 35 76  1  0  0  0  0
 36 37  1  0  0  0  0
 36 77  1  0  0  0  0
 36 78  1  0  0  0  0
 38 40  1  0  0  0  0
 38 43  2  0  0  0  0
 39 44  1  0  0  0  0
 39 81  1  0  0  0  0
 40 46  2  0  0  0  0
 41 82  1  0  0  0  0
 42 45  1  0  0  0  0
 42 83  1  0  0  0  0
 43 47  1  0  0  0  0
 43 87  1  0  0  0  0
 44 45  2  0  0  0  0
 44 88  1  0  0  0  0
 45 89  1  0  0  0  0
 46 48  1  0  0  0  0
 46 90  1  0  0  0  0
 47 48  2  0  0  0  0
 47 92  1  0  0  0  0
 48 93  1  0  0  0  0
M  END
> <PUBCHEM_COMPOUND_CID>
514214
> <PUBCHEM_COMPOUND_CANONICALIZED>
1
> <PUBCHEM_CACTVS_COMPLEXITY>
1140
> <PUBCHEM_CACTVS_HBOND_ACCEPTOR>
7
> <PUBCHEM_CACTVS_HBOND_DONOR>
8
> <PUBCHEM_CACTVS_ROTATABLE_BOND>
16
> <PUBCHEM_CACTVS_SUBSKEYS>
AAADcfB/uAAAAAAAAAAAAAAAAAAAAWLAAAAwYAAAAAAAAFgB/gAAHgAQCAAADSjBngQ+yPLJkgCoAzX3XACCgCAxAiAI2aG4ZJgKYPLAkbGUYAhklgDYyAeYicCOgAAAAAACAAAAAAAAAAQAAAAAAAAAAA==
> <PUBCHEM_IUPAC_OPENEYE_NAME>
(2S,3S)-2-[[(2S)-2-[[2-[[(2S)-2-[[(2S)-2-amino-3-(1H-indol-3-yl)propanoyl]amino]-3-methyl-butanoyl]amino]acetyl]amino]-3-(1H-indol-3-yl)propanoyl]amino]-3-methyl-pentanoic acid
> <PUBCHEM_IUPAC_CAS_NAME>
(2S,3S)-2-[[(2S)-2-[[2-[[(2S)-2-[[(2S)-2-amino-3-(1H-indol-3-yl)-1-oxopropyl]amino]-3-methyl-1-oxobutyl]amino]-1-oxoethyl]amino]-3-(1H-indol-3-yl)-1-oxopropyl]amino]-3-methylpentanoic acid
> <PUBCHEM_IUPAC_NAME_MARKUP>
(2<I>S</I>,3<I>S</I>)-2-[[(2<I>S</I>)-2-[[2-[[(2<I>S</I>)-2-[[(2<I>S</I>)-2-amino-3-(1<I>H</I>-indol-3-yl)propanoyl]amino]-3-methylbutanoyl]amino]acetyl]amino]-3-(1<I>H</I>-indol-3-yl)propanoyl]amino]-3-methylpentanoic acid
> <PUBCHEM_IUPAC_NAME>
(2S,3S)-2-[[(2S)-2-[[2-[[(2S)-2-[[(2S)-2-amino-3-(1H-indol-3-yl)propanoyl]amino]-3-methylbutanoyl]amino]acetyl]amino]-3-(1H-indol-3-yl)propanoyl]amino]-3-methylpentanoic acid
> <PUBCHEM_IUPAC_SYSTEMATIC_NAME>
(2S,3S)-2-[[(2S)-2-[2-[[(2S)-2-[[(2S)-2-azanyl-3-(1H-indol-3-yl)propanoyl]amino]-3-methyl-butanoyl]amino]ethanoylamino]-3-(1H-indol-3-yl)propanoyl]amino]-3-methyl-pentanoic acid
> <PUBCHEM_IUPAC_TRADITIONAL_NAME>
(2S,3S)-2-[[(2S)-2-[[2-[[(2S)-2-[[(2S)-2-amino-3-(1H-indol-3-yl)propanoyl]amino]-3-methyl-butanoyl]amino]acetyl]amino]-3-(1H-indol-3-yl)propanoyl]amino]-3-methyl-valeric acid
> <PUBCHEM_IUPAC_INCHI>
InChI=1S/C35H45N7O6/c1-5-20(4)31(35(47)48)42-33(45)28(15-22-17-38-27-13-9-7-11-24(22)27)40-29(43)18-39-34(46)30(19(2)3)41-32(44)25(36)14-21-16-37-26-12-8-6-10-23(21)26/h6-13,16-17,19-20,25,28,30-31,37-38H,5,14-15,18,36H2,1-4H3,(H,39,46)(H,40,43)(H,41,44)(H,42,45)(H,47,48)/t20-,25-,28-,30-,31-/m0/s1
> <PUBCHEM_IUPAC_INCHIKEY>
AWHZWUSQGLWBFJ-FZZBGXOTSA-N
> <PUBCHEM_XLOGP3>
0.9
> <PUBCHEM_EXACT_MASS>
659.34313218
> <PUBCHEM_MOLECULAR_FORMULA>
C35H45N7O6
> <PUBCHEM_MOLECULAR_WEIGHT>
659.8
> <PUBCHEM_OPENEYE_CAN_SMILES>
CCC(C)C(C(=O)O)NC(=O)C(CC1=CNC2=CC=CC=C21)NC(=O)CNC(=O)C(C(C)C)NC(=O)C(CC3=CNC4=CC=CC=C43)N
> <PUBCHEM_OPENEYE_ISO_SMILES>
CC[C@H](C)[C@@H](C(=O)O)NC(=O)[C@H](CC1=CNC2=CC=CC=C21)NC(=O)CNC(=O)[C@H](C(C)C)NC(=O)[C@H](CC3=CNC4=CC=CC=C43)N
> <PUBCHEM_CACTVS_TPSA>
211
> <PUBCHEM_MONOISOTOPIC_WEIGHT>
659.34313218
> <PUBCHEM_TOTAL_CHARGE>
0
> <PUBCHEM_HEAVY_ATOM_COUNT>
48
> <PUBCHEM_ATOM_DEF_STEREO_COUNT>
5
> <PUBCHEM_ATOM_UDEF_STEREO_COUNT>
0
> <PUBCHEM_BOND_DEF_STEREO_COUNT>
0
> <PUBCHEM_BOND_UDEF_STEREO_COUNT>
0
> <PUBCHEM_ISOTOPIC_ATOM_COUNT>
0
> <PUBCHEM_COMPONENT_COUNT>
1
> <PUBCHEM_CACTVS_TAUTO_COUNT>
-1
> <PUBCHEM_COORDINATE_TYPE>
1
5
255
> <PUBCHEM_BONDANNOTATIONS>
11  34  8
11  35  8
24  12  6
13  40  8
13  41  8
14  23  5
22  25  8
22  35  8
25  34  8
25  39  8
33  38  8
33  41  8
34  42  8
38  40  8
38  43  8
39  44  8
40  46  8
42  45  8
43  47  8
44  45  8
46  48  8
47  48  8
15  7  5
16  8  5
18  9  6
$$$$
