514241
  -OEChem-10302200282D
 98102  0     1  0  0  0  0  0999 V2000
    6.6137   -0.8179    0.0000 O   0  0  0  0  0  0  0  0  0  0  0  0
    7.1045    1.0140    0.0000 O   0  0  0  0  0  0  0  0  0  0  0  0
    4.1137   -3.4160    0.0000 O   0  0  0  0  0  0  0  0  0  0  0  0
    6.2385    4.5140    0.0000 O   0  0  0  0  0  0  0  0  0  0  0  0
    8.8366    4.0140    0.0000 O   0  0  0  0  0  0  0  0  0  0  0  0
    6.6137   -6.0140    0.0000 O   0  0  0  0  0  0  0  0  0  0  0  0
    5.1137    0.0481    0.0000 N   0  0  0  0  0  0  0  0  0  0  0  0
    6.2385    2.5140    0.0000 N   0  0  0  0  0  0  0  0  0  0  0  0
    5.6137   -2.5500    0.0000 N   0  0  0  0  0  0  0  0  0  0  0  0
    6.6137   -4.2820    0.0000 N   0  0  0  0  0  0  0  0  0  0  0  0
    7.9706    5.5140    0.0000 N   0  0  0  0  0  0  0  0  0  0  0  0
    8.7014   -4.3390    0.0000 N   0  0  0  0  0  0  0  0  0  0  0  0
    8.7014   -5.9570    0.0000 N   0  0  0  0  0  0  0  0  0  0  0  0
    3.9735    1.5229    0.0000 C   0  0  3  0  0  0  0  0  0  0  0  0
    3.7147    0.5569    0.0000 C   0  0  3  0  0  0  0  0  0  0  0  0
    3.2369    2.5055    0.0000 C   0  0  0  0  0  0  0  0  0  0  0  0
    5.3725    1.0140    0.0000 C   0  0  1  0  0  0  0  0  0  0  0  0
    2.0000    0.9046    0.0000 C   0  0  0  0  0  0  0  0  0  0  0  0
    2.3420   -0.0351    0.0000 C   0  0  0  0  0  0  0  0  0  0  0  0
    5.6137   -0.8179    0.0000 C   0  0  0  0  0  0  0  0  0  0  0  0
    6.2385    1.5140    0.0000 C   0  0  0  0  0  0  0  0  0  0  0  0
    5.1137   -1.6839    0.0000 C   0  0  2  0  0  0  0  0  0  0  0  0
    4.1137   -1.6839    0.0000 C   0  0  0  0  0  0  0  0  0  0  0  0
    7.1045    3.0140    0.0000 C   0  0  1  0  0  0  0  0  0  0  0  0
    3.1137   -1.6839    0.0000 C   0  0  0  0  0  0  0  0  0  0  0  0
    4.1137   -2.6839    0.0000 C   0  0  0  0  0  0  0  0  0  0  0  0
    4.1137   -0.6839    0.0000 C   0  0  0  0  0  0  0  0  0  0  0  0
    5.1137   -3.4160    0.0000 C   0  0  0  0  0  0  0  0  0  0  0  0
    5.1137   -5.1480    0.0000 C   0  0  0  0  0  0  0  0  0  0  0  0
    5.6137   -4.2820    0.0000 C   0  0  2  0  0  0  0  0  0  0  0  0
    7.9706    2.5140    0.0000 C   0  0  0  0  0  0  0  0  0  0  0  0
    4.1137   -5.1480    0.0000 C   0  0  0  0  0  0  0  0  0  0  0  0
    5.6137   -6.0140    0.0000 C   0  0  0  0  0  0  0  0  0  0  0  0
    7.1045    4.0140    0.0000 C   0  0  0  0  0  0  0  0  0  0  0  0
    3.6137   -6.0140    0.0000 C   0  0  0  0  0  0  0  0  0  0  0  0
    5.1137   -6.8801    0.0000 C   0  0  0  0  0  0  0  0  0  0  0  0
    4.1137   -6.8801    0.0000 C   0  0  0  0  0  0  0  0  0  0  0  0
    8.8366    6.0140    0.0000 C   0  0  0  0  0  0  0  0  0  0  0  0
    8.8366    3.0140    0.0000 C   0  0  0  0  0  0  0  0  0  0  0  0
    9.8366    6.0140    0.0000 C   0  0  0  0  0  0  0  0  0  0  0  0
    9.3366    6.8801    0.0000 C   0  0  0  0  0  0  0  0  0  0  0  0
    7.9706    4.5140    0.0000 C   0  0  0  0  0  0  0  0  0  0  0  0
    9.7026    2.5140    0.0000 C   0  0  0  0  0  0  0  0  0  0  0  0
    7.1137   -5.1480    0.0000 C   0  0  0  0  0  0  0  0  0  0  0  0
    8.1137   -5.1480    0.0000 C   0  0  0  0  0  0  0  0  0  0  0  0
    9.6525   -4.6480    0.0000 C   0  0  0  0  0  0  0  0  0  0  0  0
    9.6525   -5.6480    0.0000 C   0  0  0  0  0  0  0  0  0  0  0  0
    3.9595    0.9030    0.0000 H   0  0  0  0  0  0  0  0  0  0  0  0
    3.7328   -0.0628    0.0000 H   0  0  0  0  0  0  0  0  0  0  0  0
    3.5547    3.0378    0.0000 H   0  0  0  0  0  0  0  0  0  0  0  0
    2.6238    2.5974    0.0000 H   0  0  0  0  0  0  0  0  0  0  0  0
    5.8644    0.6366    0.0000 H   0  0  0  0  0  0  0  0  0  0  0  0
    1.8057    1.4934    0.0000 H   0  0  0  0  0  0  0  0  0  0  0  0
    1.4142    0.7014    0.0000 H   0  0  0  0  0  0  0  0  0  0  0  0
    1.7636   -0.2584    0.0000 H   0  0  0  0  0  0  0  0  0  0  0  0
    2.5765   -0.6090    0.0000 H   0  0  0  0  0  0  0  0  0  0  0  0
    4.8037   -2.2209    0.0000 H   0  0  0  0  0  0  0  0  0  0  0  0
    5.7016    2.8240    0.0000 H   0  0  0  0  0  0  0  0  0  0  0  0
    6.2337   -2.5500    0.0000 H   0  0  0  0  0  0  0  0  0  0  0  0
    7.1045    2.3940    0.0000 H   0  0  0  0  0  0  0  0  0  0  0  0
    3.1137   -1.0639    0.0000 H   0  0  0  0  0  0  0  0  0  0  0  0
    2.4937   -1.6839    0.0000 H   0  0  0  0  0  0  0  0  0  0  0  0
    3.1137   -2.3039    0.0000 H   0  0  0  0  0  0  0  0  0  0  0  0
    3.4937   -2.6839    0.0000 H   0  0  0  0  0  0  0  0  0  0  0  0
    4.1137   -3.3039    0.0000 H   0  0  0  0  0  0  0  0  0  0  0  0
    4.7337   -2.6839    0.0000 H   0  0  0  0  0  0  0  0  0  0  0  0
    4.7337   -0.6839    0.0000 H   0  0  0  0  0  0  0  0  0  0  0  0
    4.1137   -0.0639    0.0000 H   0  0  0  0  0  0  0  0  0  0  0  0
    3.4937   -0.6839    0.0000 H   0  0  0  0  0  0  0  0  0  0  0  0
    5.7337   -5.1480    0.0000 H   0  0  0  0  0  0  0  0  0  0  0  0
    5.9237   -3.7451    0.0000 H   0  0  0  0  0  0  0  0  0  0  0  0
    7.5720    2.0391    0.0000 H   0  0  0  0  0  0  0  0  0  0  0  0
    8.3691    2.0391    0.0000 H   0  0  0  0  0  0  0  0  0  0  0  0
    4.2213   -4.5374    0.0000 H   0  0  0  0  0  0  0  0  0  0  0  0
    3.5310   -4.9360    0.0000 H   0  0  0  0  0  0  0  0  0  0  0  0
    6.0886   -6.4126    0.0000 H   0  0  0  0  0  0  0  0  0  0  0  0
    6.0886   -5.6155    0.0000 H   0  0  0  0  0  0  0  0  0  0  0  0
    3.1387   -5.6155    0.0000 H   0  0  0  0  0  0  0  0  0  0  0  0
    3.1387   -6.4126    0.0000 H   0  0  0  0  0  0  0  0  0  0  0  0
    5.0060   -7.4907    0.0000 H   0  0  0  0  0  0  0  0  0  0  0  0
    5.6963   -7.0921    0.0000 H   0  0  0  0  0  0  0  0  0  0  0  0
    3.5310   -7.0921    0.0000 H   0  0  0  0  0  0  0  0  0  0  0  0
    4.2213   -7.4907    0.0000 H   0  0  0  0  0  0  0  0  0  0  0  0
    8.9970    5.4152    0.0000 H   0  0  0  0  0  0  0  0  0  0  0  0
    9.2351    3.4890    0.0000 H   0  0  0  0  0  0  0  0  0  0  0  0
    8.4381    3.4890    0.0000 H   0  0  0  0  0  0  0  0  0  0  0  0
    6.9237   -3.7451    0.0000 H   0  0  0  0  0  0  0  0  0  0  0  0
    9.9442    5.4035    0.0000 H   0  0  0  0  0  0  0  0  0  0  0  0
   10.4192    6.2261    0.0000 H   0  0  0  0  0  0  0  0  0  0  0  0
    9.8115    7.2786    0.0000 H   0  0  0  0  0  0  0  0  0  0  0  0
    8.8616    7.2786    0.0000 H   0  0  0  0  0  0  0  0  0  0  0  0
    7.4336    5.8240    0.0000 H   0  0  0  0  0  0  0  0  0  0  0  0
    9.3926    1.9771    0.0000 H   0  0  0  0  0  0  0  0  0  0  0  0
   10.2395    2.2040    0.0000 H   0  0  0  0  0  0  0  0  0  0  0  0
   10.0126    3.0510    0.0000 H   0  0  0  0  0  0  0  0  0  0  0  0
    8.5099   -3.7494    0.0000 H   0  0  0  0  0  0  0  0  0  0  0  0
   10.1541   -4.2836    0.0000 H   0  0  0  0  0  0  0  0  0  0  0  0
   10.1541   -6.0124    0.0000 H   0  0  0  0  0  0  0  0  0  0  0  0
  1 20  2  0  0  0  0
  2 21  2  0  0  0  0
  3 28  2  0  0  0  0
  4 34  2  0  0  0  0
  5 42  2  0  0  0  0
  6 44  2  0  0  0  0
  7 15  1  0  0  0  0
  7 17  1  0  0  0  0
  7 20  1  0  0  0  0
  8 21  1  0  0  0  0
 24  8  1  6  0  0  0
  8 58  1  0  0  0  0
 22  9  1  1  0  0  0
  9 28  1  0  0  0  0
  9 59  1  0  0  0  0
 30 10  1  1  0  0  0
 10 44  1  0  0  0  0
 10 87  1  0  0  0  0
 11 38  1  0  0  0  0
 11 42  1  0  0  0  0
 11 92  1  0  0  0  0
 12 45  1  0  0  0  0
 12 46  1  0  0  0  0
 12 96  1  0  0  0  0
 13 45  2  0  0  0  0
 13 47  1  0  0  0  0
 14 16  1  0  0  0  0
 14 17  1  0  0  0  0
 14 18  1  0  0  0  0
 14 48  1  0  0  0  0
 15 16  1  0  0  0  0
 15 19  1  0  0  0  0
 15 49  1  0  0  0  0
 16 50  1  0  0  0  0
 16 51  1  0  0  0  0
 17 21  1  1  0  0  0
 17 52  1  0  0  0  0
 18 19  1  0  0  0  0
 18 53  1  0  0  0  0
 18 54  1  0  0  0  0
 19 55  1  0  0  0  0
 19 56  1  0  0  0  0
 20 22  1  0  0  0  0
 22 23  1  0  0  0  0
 22 57  1  0  0  0  0
 23 25  1  0  0  0  0
 23 26  1  0  0  0  0
 23 27  1  0  0  0  0
 24 31  1  0  0  0  0
 24 34  1  0  0  0  0
 24 60  1  0  0  0  0
 25 61  1  0  0  0  0
 25 62  1  0  0  0  0
 25 63  1  0  0  0  0
 26 64  1  0  0  0  0
 26 65  1  0  0  0  0
 26 66  1  0  0  0  0
 27 67  1  0  0  0  0
 27 68  1  0  0  0  0
 27 69  1  0  0  0  0
 28 30  1  0  0  0  0
 29 30  1  0  0  0  0
 29 32  1  0  0  0  0
 29 33  1  0  0  0  0
 29 70  1  0  0  0  0
 30 71  1  0  0  0  0
 31 39  1  0  0  0  0
 31 72  1  0  0  0  0
 31 73  1  0  0  0  0
 32 35  1  0  0  0  0
 32 74  1  0  0  0  0
 32 75  1  0  0  0  0
 33 36  1  0  0  0  0
 33 76  1  0  0  0  0
 33 77  1  0  0  0  0
 34 42  1  0  0  0  0
 35 37  1  0  0  0  0
 35 78  1  0  0  0  0
 35 79  1  0  0  0  0
 36 37  1  0  0  0  0
 36 80  1  0  0  0  0
 36 81  1  0  0  0  0
 37 82  1  0  0  0  0
 37 83  1  0  0  0  0
 38 40  1  0  0  0  0
 38 41  1  0  0  0  0
 38 84  1  0  0  0  0
 39 43  1  0  0  0  0
 39 85  1  0  0  0  0
 39 86  1  0  0  0  0
 40 41  1  0  0  0  0
 40 88  1  0  0  0  0
 40 89  1  0  0  0  0
 41 90  1  0  0  0  0
 41 91  1  0  0  0  0
 43 93  1  0  0  0  0
 43 94  1  0  0  0  0
 43 95  1  0  0  0  0
 44 45  1  0  0  0  0
 46 47  2  0  0  0  0
 46 97  1  0  0  0  0
 47 98  1  0  0  0  0
M  END
> <PUBCHEM_COMPOUND_CID>
514241
> <PUBCHEM_COMPOUND_CANONICALIZED>
1
> <PUBCHEM_CACTVS_COMPLEXITY>
1210
> <PUBCHEM_CACTVS_HBOND_ACCEPTOR>
7
> <PUBCHEM_CACTVS_HBOND_DONOR>
5
> <PUBCHEM_CACTVS_ROTATABLE_BOND>
14
> <PUBCHEM_CACTVS_SUBSKEYS>
AAADcfB/uAAAAAAAAAAAAAAAGAAAAeLEAAA8QAAAAAAAAAABgAAAHgAQAAAADyzBgwQvkBfJkACoAJM3dAAAgC2TEqAJQYGYMACASBoAyCAUAAAIFgKAACEYiYCfAAAAAAAAAAAAAAAAAAAAACAAAAAAAA==
> <PUBCHEM_IUPAC_OPENEYE_NAME>
(3S)-2-[(2S)-2-[[(2S)-2-cyclohexyl-2-(1H-imidazole-2-carbonylamino)acetyl]amino]-3,3-dimethyl-butanoyl]-N-[(1S)-1-[2-(cyclopropylamino)-2-oxo-acetyl]butyl]-2-azabicyclo[2.2.1]heptane-3-carboxamide
> <PUBCHEM_IUPAC_CAS_NAME>
(3S)-2-[(2S)-2-[[(2S)-2-cyclohexyl-2-[[1H-imidazol-2-yl(oxo)methyl]amino]-1-oxoethyl]amino]-3,3-dimethyl-1-oxobutyl]-N-[(3S)-1-(cyclopropylamino)-1,2-dioxohexan-3-yl]-2-azabicyclo[2.2.1]heptane-3-carboxamide
> <PUBCHEM_IUPAC_NAME_MARKUP>
(3<I>S</I>)-2-[(2<I>S</I>)-2-[[(2<I>S</I>)-2-cyclohexyl-2-(1<I>H</I>-imidazole-2-carbonylamino)acetyl]amino]-3,3-dimethylbutanoyl]-<I>N</I>-[(3<I>S</I>)-1-(cyclopropylamino)-1,2-dioxohexan-3-yl]-2-azabicyclo[2.2.1]heptane-3-carboxamide
> <PUBCHEM_IUPAC_NAME>
(3S)-2-[(2S)-2-[[(2S)-2-cyclohexyl-2-(1H-imidazole-2-carbonylamino)acetyl]amino]-3,3-dimethylbutanoyl]-N-[(3S)-1-(cyclopropylamino)-1,2-dioxohexan-3-yl]-2-azabicyclo[2.2.1]heptane-3-carboxamide
> <PUBCHEM_IUPAC_SYSTEMATIC_NAME>
(3S)-2-[(2S)-2-[[(2S)-2-cyclohexyl-2-(1H-imidazol-2-ylcarbonylamino)ethanoyl]amino]-3,3-dimethyl-butanoyl]-N-[(3S)-1-(cyclopropylamino)-1,2-bis(oxidanylidene)hexan-3-yl]-2-azabicyclo[2.2.1]heptane-3-carboxamide
> <PUBCHEM_IUPAC_TRADITIONAL_NAME>
(3S)-2-[(2S)-2-[[(2S)-2-cyclohexyl-2-(1H-imidazole-2-carbonylamino)acetyl]amino]-3,3-dimethyl-butanoyl]-N-[(1S)-1-[2-(cyclopropylamino)-2-keto-acetyl]butyl]-2-azabicyclo[2.2.1]heptane-3-carboxamide
> <PUBCHEM_IUPAC_INCHI>
InChI=1S/C34H51N7O6/c1-5-9-23(26(42)31(45)37-21-13-14-21)38-30(44)25-20-12-15-22(18-20)41(25)33(47)27(34(2,3)4)40-29(43)24(19-10-7-6-8-11-19)39-32(46)28-35-16-17-36-28/h16-17,19-25,27H,5-15,18H2,1-4H3,(H,35,36)(H,37,45)(H,38,44)(H,39,46)(H,40,43)/t20?,22?,23-,24-,25-,27+/m0/s1
> <PUBCHEM_IUPAC_INCHIKEY>
UQPRBBKDZFQGMJ-UGKJRECUSA-N
> <PUBCHEM_XLOGP3_AA>
4.1
> <PUBCHEM_EXACT_MASS>
653.39008237
> <PUBCHEM_MOLECULAR_FORMULA>
C34H51N7O6
> <PUBCHEM_MOLECULAR_WEIGHT>
653.8
> <PUBCHEM_OPENEYE_CAN_SMILES>
CCCC(C(=O)C(=O)NC1CC1)NC(=O)C2C3CCC(C3)N2C(=O)C(C(C)(C)C)NC(=O)C(C4CCCCC4)NC(=O)C5=NC=CN5
> <PUBCHEM_OPENEYE_ISO_SMILES>
CCC[C@@H](C(=O)C(=O)NC1CC1)NC(=O)[C@@H]2C3CCC(C3)N2C(=O)[C@H](C(C)(C)C)NC(=O)[C@H](C4CCCCC4)NC(=O)C5=NC=CN5
> <PUBCHEM_CACTVS_TPSA>
183
> <PUBCHEM_MONOISOTOPIC_WEIGHT>
653.39008237
> <PUBCHEM_TOTAL_CHARGE>
0
> <PUBCHEM_HEAVY_ATOM_COUNT>
47
> <PUBCHEM_ATOM_DEF_STEREO_COUNT>
4
> <PUBCHEM_ATOM_UDEF_STEREO_COUNT>
2
> <PUBCHEM_BOND_DEF_STEREO_COUNT>
0
> <PUBCHEM_BOND_UDEF_STEREO_COUNT>
0
> <PUBCHEM_ISOTOPIC_ATOM_COUNT>
0
> <PUBCHEM_COMPONENT_COUNT>
1
> <PUBCHEM_CACTVS_TAUTO_COUNT>
-1
> <PUBCHEM_COORDINATE_TYPE>
1
5
255
> <PUBCHEM_BONDANNOTATIONS>
30  10  5
12  45  8
12  46  8
13  45  8
13  47  8
14  18  3
15  19  3
17  21  5
46  47  8
24  8  6
22  9  5
$$$$
