514218
  -OEChem-10302200282D
140145  0     1  0  0  0  0  0999 V2000
   14.3312    0.5551    0.0000 O   0  0  0  0  0  0  0  0  0  0  0  0
    6.1350    3.0551    0.0000 O   0  0  0  0  0  0  0  0  0  0  0  0
   11.5991    3.0551    0.0000 O   0  0  0  0  0  0  0  0  0  0  0  0
    2.5369    2.0551    0.0000 O   0  0  0  0  0  0  0  0  0  0  0  0
    3.4030    0.5551    0.0000 O   0  0  0  0  0  0  0  0  0  0  0  0
   13.8626   -6.4449    0.0000 O   0  0  0  0  0  0  0  0  0  0  0  0
    8.8671    0.5551    0.0000 O   0  0  0  0  0  0  0  0  0  0  0  0
   11.1305   -3.9449    0.0000 O   0  0  0  0  0  0  0  0  0  0  0  0
   14.7286   -3.9449    0.0000 O   0  0  0  0  0  0  0  0  0  0  0  0
    8.3985   -6.4449    0.0000 O   0  0  0  0  0  0  0  0  0  0  0  0
   13.8626   -2.4449    0.0000 O   0  0  0  0  0  0  0  0  0  0  0  0
   13.3312    2.0551    0.0000 N   0  0  0  0  0  0  0  0  0  0  0  0
    5.1350    1.5551    0.0000 N   0  0  0  0  0  0  0  0  0  0  0  0
   16.0632    1.5551    0.0000 N   0  0  0  0  0  0  0  0  0  0  0  0
    7.8671    2.0551    0.0000 N   0  0  0  0  0  0  0  0  0  0  0  0
   10.5991    1.5551    0.0000 N   0  0  0  0  0  0  0  0  0  0  0  0
   17.6381    3.8870    0.0000 N   0  0  0  0  0  0  0  0  0  0  0  0
    4.5601   -0.2768    0.0000 N   0  0  0  0  0  0  0  0  0  0  0  0
   12.1305   -5.4449    0.0000 N   0  0  0  0  0  0  0  0  0  0  0  0
    9.3985   -4.9449    0.0000 N   0  0  0  0  0  0  0  0  0  0  0  0
    9.9733   -3.1130    0.0000 N   0  0  0  0  0  0  0  0  0  0  0  0
    6.6664   -5.4449    0.0000 N   0  0  0  0  0  0  0  0  0  0  0  0
    4.2690    3.0551    0.0000 C   0  0  2  0  0  0  0  0  0  0  0  0
   12.4651    1.5551    0.0000 C   0  0  1  0  0  0  0  0  0  0  0  0
    4.2690    2.0551    0.0000 C   0  0  1  0  0  0  0  0  0  0  0  0
   15.1972    2.0551    0.0000 C   0  0  1  0  0  0  0  0  0  0  0  0
   12.4651    0.5551    0.0000 C   0  0  0  0  0  0  0  0  0  0  0  0
    7.0010    1.5551    0.0000 C   0  0  1  0  0  0  0  0  0  0  0  0
   15.1972    3.0551    0.0000 C   0  0  0  0  0  0  0  0  0  0  0  0
    7.0010    0.5551    0.0000 C   0  0  0  0  0  0  0  0  0  0  0  0
    3.4030    3.5551    0.0000 C   0  0  0  0  0  0  0  0  0  0  0  0
   14.3312    1.5551    0.0000 C   0  0  0  0  0  0  0  0  0  0  0  0
   16.0632    3.5551    0.0000 C   0  0  0  0  0  0  0  0  0  0  0  0
    6.1350    2.0551    0.0000 C   0  0  0  0  0  0  0  0  0  0  0  0
    6.1350    0.0551    0.0000 C   0  0  0  0  0  0  0  0  0  0  0  0
    5.1350    3.5551    0.0000 C   0  0  0  0  0  0  0  0  0  0  0  0
   11.5991    2.0551    0.0000 C   0  0  0  0  0  0  0  0  0  0  0  0
   13.3312    0.0551    0.0000 C   0  0  0  0  0  0  0  0  0  0  0  0
   11.5991    0.0551    0.0000 C   0  0  0  0  0  0  0  0  0  0  0  0
   16.1663    4.5438    0.0000 C   0  0  0  0  0  0  0  0  0  0  0  0
    6.0320   -0.9336    0.0000 C   0  0  0  0  0  0  0  0  0  0  0  0
   12.9965   -4.9449    0.0000 C   0  0  2  0  0  0  0  0  0  0  0  0
    3.4030    1.5551    0.0000 C   0  0  0  0  0  0  0  0  0  0  0  0
   17.1448    4.7501    0.0000 C   0  0  0  0  0  0  0  0  0  0  0  0
    3.4030    4.5551    0.0000 C   0  0  0  0  0  0  0  0  0  0  0  0
   16.9710    3.1500    0.0000 C   0  0  0  0  0  0  0  0  0  0  0  0
   13.8626   -5.4449    0.0000 C   0  0  0  0  0  0  0  0  0  0  0  0
    9.7331    2.0551    0.0000 C   0  0  0  0  0  0  0  0  0  0  0  0
    5.0534   -1.1398    0.0000 C   0  0  0  0  0  0  0  0  0  0  0  0
    8.8671    1.5551    0.0000 C   0  0  0  0  0  0  0  0  0  0  0  0
    5.2272    0.4602    0.0000 C   0  0  0  0  0  0  0  0  0  0  0  0
   15.4984    5.2881    0.0000 C   0  0  0  0  0  0  0  0  0  0  0  0
   12.9965   -3.9449    0.0000 C   0  0  0  0  0  0  0  0  0  0  0  0
    6.6998   -1.6779    0.0000 C   0  0  0  0  0  0  0  0  0  0  0  0
   17.4554    5.7006    0.0000 C   0  0  0  0  0  0  0  0  0  0  0  0
   10.2645   -5.4449    0.0000 C   0  0  2  0  0  0  0  0  0  0  0  0
    4.7428   -2.0903    0.0000 C   0  0  0  0  0  0  0  0  0  0  0  0
    7.5324   -4.9449    0.0000 C   0  0  1  0  0  0  0  0  0  0  0  0
   11.1305   -4.9449    0.0000 C   0  0  0  0  0  0  0  0  0  0  0  0
    7.5324   -3.9449    0.0000 C   0  0  0  0  0  0  0  0  0  0  0  0
   15.8091    6.2387    0.0000 C   0  0  0  0  0  0  0  0  0  0  0  0
    8.3985   -3.4449    0.0000 C   0  0  0  0  0  0  0  0  0  0  0  0
   16.7876    6.4449    0.0000 C   0  0  0  0  0  0  0  0  0  0  0  0
    6.3891   -2.6284    0.0000 C   0  0  0  0  0  0  0  0  0  0  0  0
    5.4106   -2.8346    0.0000 C   0  0  0  0  0  0  0  0  0  0  0  0
    8.5015   -2.4562    0.0000 C   0  0  0  0  0  0  0  0  0  0  0  0
    8.3985   -5.4449    0.0000 C   0  0  0  0  0  0  0  0  0  0  0  0
   10.2645   -6.4449    0.0000 C   0  0  0  0  0  0  0  0  0  0  0  0
   13.8626   -3.4449    0.0000 C   0  0  0  0  0  0  0  0  0  0  0  0
    9.4800   -2.2499    0.0000 C   0  0  0  0  0  0  0  0  0  0  0  0
    9.3063   -3.8500    0.0000 C   0  0  0  0  0  0  0  0  0  0  0  0
    7.8337   -1.7119    0.0000 C   0  0  0  0  0  0  0  0  0  0  0  0
    9.7907   -1.2994    0.0000 C   0  0  0  0  0  0  0  0  0  0  0  0
    8.1443   -0.7613    0.0000 C   0  0  0  0  0  0  0  0  0  0  0  0
    9.1228   -0.5551    0.0000 C   0  0  0  0  0  0  0  0  0  0  0  0
    4.8059    2.7451    0.0000 H   0  0  0  0  0  0  0  0  0  0  0  0
   13.0021    1.2451    0.0000 H   0  0  0  0  0  0  0  0  0  0  0  0
    4.2690    1.4351    0.0000 H   0  0  0  0  0  0  0  0  0  0  0  0
   15.1972    1.4351    0.0000 H   0  0  0  0  0  0  0  0  0  0  0  0
   11.9282    0.8651    0.0000 H   0  0  0  0  0  0  0  0  0  0  0  0
    7.5380    1.2451    0.0000 H   0  0  0  0  0  0  0  0  0  0  0  0
   14.9851    3.6377    0.0000 H   0  0  0  0  0  0  0  0  0  0  0  0
   14.5866    2.9475    0.0000 H   0  0  0  0  0  0  0  0  0  0  0  0
    7.2131   -0.0275    0.0000 H   0  0  0  0  0  0  0  0  0  0  0  0
    7.6116    0.6628    0.0000 H   0  0  0  0  0  0  0  0  0  0  0  0
    2.7924    3.6628    0.0000 H   0  0  0  0  0  0  0  0  0  0  0  0
    3.1909    2.9725    0.0000 H   0  0  0  0  0  0  0  0  0  0  0  0
   13.8681    2.3651    0.0000 H   0  0  0  0  0  0  0  0  0  0  0  0
    5.6720    1.2451    0.0000 H   0  0  0  0  0  0  0  0  0  0  0  0
    5.4450    3.0182    0.0000 H   0  0  0  0  0  0  0  0  0  0  0  0
    5.6720    3.8651    0.0000 H   0  0  0  0  0  0  0  0  0  0  0  0
    4.8250    4.0921    0.0000 H   0  0  0  0  0  0  0  0  0  0  0  0
   16.6001    1.2451    0.0000 H   0  0  0  0  0  0  0  0  0  0  0  0
   13.0212   -0.4818    0.0000 H   0  0  0  0  0  0  0  0  0  0  0  0
   13.8681   -0.2549    0.0000 H   0  0  0  0  0  0  0  0  0  0  0  0
   13.6412    0.5921    0.0000 H   0  0  0  0  0  0  0  0  0  0  0  0
   11.2891    0.5921    0.0000 H   0  0  0  0  0  0  0  0  0  0  0  0
   11.0622   -0.2549    0.0000 H   0  0  0  0  0  0  0  0  0  0  0  0
   11.9091   -0.4818    0.0000 H   0  0  0  0  0  0  0  0  0  0  0  0
    8.4040    2.3651    0.0000 H   0  0  0  0  0  0  0  0  0  0  0  0
   12.4596   -4.6349    0.0000 H   0  0  0  0  0  0  0  0  0  0  0  0
   17.0989    2.5433    0.0000 H   0  0  0  0  0  0  0  0  0  0  0  0
    4.0230    4.5551    0.0000 H   0  0  0  0  0  0  0  0  0  0  0  0
    3.4030    5.1751    0.0000 H   0  0  0  0  0  0  0  0  0  0  0  0
    2.7830    4.5551    0.0000 H   0  0  0  0  0  0  0  0  0  0  0  0
   11.1360    1.2451    0.0000 H   0  0  0  0  0  0  0  0  0  0  0  0
   10.1316    2.5301    0.0000 H   0  0  0  0  0  0  0  0  0  0  0  0
    9.3346    2.5301    0.0000 H   0  0  0  0  0  0  0  0  0  0  0  0
    5.0994    1.0669    0.0000 H   0  0  0  0  0  0  0  0  0  0  0  0
   18.2545    3.8201    0.0000 H   0  0  0  0  0  0  0  0  0  0  0  0
    3.9438   -0.2098    0.0000 H   0  0  0  0  0  0  0  0  0  0  0  0
   14.8917    5.1603    0.0000 H   0  0  0  0  0  0  0  0  0  0  0  0
   12.7845   -3.3623    0.0000 H   0  0  0  0  0  0  0  0  0  0  0  0
   12.3860   -4.0525    0.0000 H   0  0  0  0  0  0  0  0  0  0  0  0
   12.6675   -5.7549    0.0000 H   0  0  0  0  0  0  0  0  0  0  0  0
    7.3065   -1.5500    0.0000 H   0  0  0  0  0  0  0  0  0  0  0  0
   18.0621    5.8284    0.0000 H   0  0  0  0  0  0  0  0  0  0  0  0
   10.2645   -4.8249    0.0000 H   0  0  0  0  0  0  0  0  0  0  0  0
    4.1361   -2.2182    0.0000 H   0  0  0  0  0  0  0  0  0  0  0  0
    6.9955   -4.6349    0.0000 H   0  0  0  0  0  0  0  0  0  0  0  0
    7.3204   -3.3623    0.0000 H   0  0  0  0  0  0  0  0  0  0  0  0
    6.9219   -4.0526    0.0000 H   0  0  0  0  0  0  0  0  0  0  0  0
   15.3950    6.7001    0.0000 H   0  0  0  0  0  0  0  0  0  0  0  0
   16.9802    7.0342    0.0000 H   0  0  0  0  0  0  0  0  0  0  0  0
    6.8032   -3.0899    0.0000 H   0  0  0  0  0  0  0  0  0  0  0  0
    5.2180   -3.4240    0.0000 H   0  0  0  0  0  0  0  0  0  0  0  0
    9.9354   -4.6349    0.0000 H   0  0  0  0  0  0  0  0  0  0  0  0
    2.0000    1.7451    0.0000 H   0  0  0  0  0  0  0  0  0  0  0  0
    9.6445   -6.4449    0.0000 H   0  0  0  0  0  0  0  0  0  0  0  0
   10.2645   -7.0649    0.0000 H   0  0  0  0  0  0  0  0  0  0  0  0
   10.8845   -6.4449    0.0000 H   0  0  0  0  0  0  0  0  0  0  0  0
    9.4341   -4.4567    0.0000 H   0  0  0  0  0  0  0  0  0  0  0  0
   10.5897   -3.1799    0.0000 H   0  0  0  0  0  0  0  0  0  0  0  0
    6.6664   -6.0649    0.0000 H   0  0  0  0  0  0  0  0  0  0  0  0
    7.2034   -5.1349    0.0000 H   0  0  0  0  0  0  0  0  0  0  0  0
    7.2270   -1.8397    0.0000 H   0  0  0  0  0  0  0  0  0  0  0  0
   10.3974   -1.1716    0.0000 H   0  0  0  0  0  0  0  0  0  0  0  0
    7.7303   -0.2999    0.0000 H   0  0  0  0  0  0  0  0  0  0  0  0
    9.3155    0.0342    0.0000 H   0  0  0  0  0  0  0  0  0  0  0  0
   15.2655   -3.6349    0.0000 H   0  0  0  0  0  0  0  0  0  0  0  0
  1 32  2  0  0  0  0
  2 34  2  0  0  0  0
  3 37  2  0  0  0  0
  4 43  1  0  0  0  0
  4128  1  0  0  0  0
  5 43  2  0  0  0  0
  6 47  2  0  0  0  0
  7 50  2  0  0  0  0
  8 59  2  0  0  0  0
  9 69  1  0  0  0  0
  9140  1  0  0  0  0
 10 67  2  0  0  0  0
 11 69  2  0  0  0  0
 24 12  1  1  0  0  0
 12 32  1  0  0  0  0
 12 88  1  0  0  0  0
 25 13  1  6  0  0  0
 13 34  1  0  0  0  0
 13 89  1  0  0  0  0
 26 14  1  6  0  0  0
 14 47  1  0  0  0  0
 14 93  1  0  0  0  0
 28 15  1  1  0  0  0
 15 50  1  0  0  0  0
 15100  1  0  0  0  0
 16 37  1  0  0  0  0
 16 48  1  0  0  0  0
 16106  1  0  0  0  0
 17 44  1  0  0  0  0
 17 46  1  0  0  0  0
 17110  1  0  0  0  0
 18 49  1  0  0  0  0
 18 51  1  0  0  0  0
 18111  1  0  0  0  0
 42 19  1  1  0  0  0
 19 59  1  0  0  0  0
 19115  1  0  0  0  0
 56 20  1  6  0  0  0
 20 67  1  0  0  0  0
 20127  1  0  0  0  0
 21 70  1  0  0  0  0
 21 71  1  0  0  0  0
 21133  1  0  0  0  0
 58 22  1  1  0  0  0
 22134  1  0  0  0  0
 22135  1  0  0  0  0
 23 25  1  0  0  0  0
 23 31  1  0  0  0  0
 23 36  1  6  0  0  0
 23 76  1  0  0  0  0
 24 27  1  0  0  0  0
 24 37  1  0  0  0  0
 24 77  1  0  0  0  0
 25 43  1  0  0  0  0
 25 78  1  0  0  0  0
 26 29  1  0  0  0  0
 26 32  1  0  0  0  0
 26 79  1  0  0  0  0
 27 38  1  0  0  0  0
 27 39  1  0  0  0  0
 27 80  1  0  0  0  0
 28 30  1  0  0  0  0
 28 34  1  0  0  0  0
 28 81  1  0  0  0  0
 29 33  1  0  0  0  0
 29 82  1  0  0  0  0
 29 83  1  0  0  0  0
 30 35  1  0  0  0  0
 30 84  1  0  0  0  0
 30 85  1  0  0  0  0
 31 45  1  0  0  0  0
 31 86  1  0  0  0  0
 31 87  1  0  0  0  0
 33 40  1  0  0  0  0
 33 46  2  0  0  0  0
 35 41  1  0  0  0  0
 35 51  2  0  0  0  0
 36 90  1  0  0  0  0
 36 91  1  0  0  0  0
 36 92  1  0  0  0  0
 38 94  1  0  0  0  0
 38 95  1  0  0  0  0
 38 96  1  0  0  0  0
 39 97  1  0  0  0  0
 39 98  1  0  0  0  0
 39 99  1  0  0  0  0
 40 44  1  0  0  0  0
 40 52  2  0  0  0  0
 41 49  1  0  0  0  0
 41 54  2  0  0  0  0
 42 47  1  0  0  0  0
 42 53  1  0  0  0  0
 42101  1  0  0  0  0
 44 55  2  0  0  0  0
 45103  1  0  0  0  0
 45104  1  0  0  0  0
 45105  1  0  0  0  0
 46102  1  0  0  0  0
 48 50  1  0  0  0  0
 48107  1  0  0  0  0
 48108  1  0  0  0  0
 49 57  2  0  0  0  0
 51109  1  0  0  0  0
 52 61  1  0  0  0  0
 52112  1  0  0  0  0
 53 69  1  0  0  0  0
 53113  1  0  0  0  0
 53114  1  0  0  0  0
 54 64  1  0  0  0  0
 54116  1  0  0  0  0
 55 63  1  0  0  0  0
 55117  1  0  0  0  0
 56 59  1  0  0  0  0
 56 68  1  0  0  0  0
 56118  1  0  0  0  0
 57 65  1  0  0  0  0
 57119  1  0  0  0  0
 58 60  1  0  0  0  0
 58 67  1  0  0  0  0
 58120  1  0  0  0  0
 60 62  1  0  0  0  0
 60121  1  0  0  0  0
 60122  1  0  0  0  0
 61 63  2  0  0  0  0
 61123  1  0  0  0  0
 62 66  1  0  0  0  0
 62 71  2  0  0  0  0
 63124  1  0  0  0  0
 64 65  2  0  0  0  0
 64125  1  0  0  0  0
 65126  1  0  0  0  0
 66 70  1  0  0  0  0
 66 72  2  0  0  0  0
 68129  1  0  0  0  0
 68130  1  0  0  0  0
 68131  1  0  0  0  0
 70 73  2  0  0  0  0
 71132  1  0  0  0  0
 72 74  1  0  0  0  0
 72136  1  0  0  0  0
 73 75  1  0  0  0  0
 73137  1  0  0  0  0
 74 75  2  0  0  0  0
 74138  1  0  0  0  0
 75139  1  0  0  0  0
M  END
> <PUBCHEM_COMPOUND_CID>
514218
> <PUBCHEM_COMPOUND_CANONICALIZED>
1
> <PUBCHEM_CACTVS_COMPLEXITY>
2030
> <PUBCHEM_CACTVS_HBOND_ACCEPTOR>
12
> <PUBCHEM_CACTVS_HBOND_DONOR>
13
> <PUBCHEM_CACTVS_ROTATABLE_BOND>
26
> <PUBCHEM_CACTVS_SUBSKEYS>
AAADcfB//AAAAAAAAAAAAAAAAAAAAWLFgAAwYMAAAAAAAFgB/gAAHgAQCAAADSjBngQ+yPLJkgCoAzX3XACCgCAxAiAI2aG4ZJgKYPrAkbGUYAhmlgDYyAe/icCOgAAAAAACAAAAAAAAAAQAAAAAAAAAAA==
> <PUBCHEM_IUPAC_OPENEYE_NAME>
(2S,3S)-2-[[(2S)-2-[[2-[[(2S)-2-[[(2S)-2-[[(2S)-2-[[(2S)-2-[[(2S)-2-amino-3-(1H-indol-3-yl)propanoyl]amino]propanoyl]amino]-3-carboxy-propanoyl]amino]-3-(1H-indol-3-yl)propanoyl]amino]-3-methyl-butanoyl]amino]acetyl]amino]-3-(1H-indol-3-yl)propanoyl]amino]-3-methyl-pentanoic acid
> <PUBCHEM_IUPAC_CAS_NAME>
(2S,3S)-2-[[(2S)-2-[[2-[[(2S)-2-[[(2S)-2-[[(2S)-2-[[(2S)-2-[[(2S)-2-amino-3-(1H-indol-3-yl)-1-oxopropyl]amino]-1-oxopropyl]amino]-3-carboxy-1-oxopropyl]amino]-3-(1H-indol-3-yl)-1-oxopropyl]amino]-3-methyl-1-oxobutyl]amino]-1-oxoethyl]amino]-3-(1H-indol-3-yl)-1-oxopropyl]amino]-3-methylpentanoic acid
> <PUBCHEM_IUPAC_NAME_MARKUP>
(2<I>S</I>,3<I>S</I>)-2-[[(2<I>S</I>)-2-[[2-[[(2<I>S</I>)-2-[[(2<I>S</I>)-2-[[(2<I>S</I>)-2-[[(2<I>S</I>)-2-[[(2<I>S</I>)-2-amino-3-(1<I>H</I>-indol-3-yl)propanoyl]amino]propanoyl]amino]-3-carboxypropanoyl]amino]-3-(1<I>H</I>-indol-3-yl)propanoyl]amino]-3-methylbutanoyl]amino]acetyl]amino]-3-(1<I>H</I>-indol-3-yl)propanoyl]amino]-3-methylpentanoic acid
> <PUBCHEM_IUPAC_NAME>
(2S,3S)-2-[[(2S)-2-[[2-[[(2S)-2-[[(2S)-2-[[(2S)-2-[[(2S)-2-[[(2S)-2-amino-3-(1H-indol-3-yl)propanoyl]amino]propanoyl]amino]-3-carboxypropanoyl]amino]-3-(1H-indol-3-yl)propanoyl]amino]-3-methylbutanoyl]amino]acetyl]amino]-3-(1H-indol-3-yl)propanoyl]amino]-3-methylpentanoic acid
> <PUBCHEM_IUPAC_SYSTEMATIC_NAME>
(2S,3S)-2-[[(2S)-2-[2-[[(2S)-2-[[(2S)-2-[[(2S)-2-[[(2S)-2-[[(2S)-2-azanyl-3-(1H-indol-3-yl)propanoyl]amino]propanoyl]amino]-4-oxidanyl-4-oxidanylidene-butanoyl]amino]-3-(1H-indol-3-yl)propanoyl]amino]-3-methyl-butanoyl]amino]ethanoylamino]-3-(1H-indol-3-yl)propanoyl]amino]-3-methyl-pentanoic acid
> <PUBCHEM_IUPAC_TRADITIONAL_NAME>
(2S,3S)-2-[[(2S)-2-[[2-[[(2S)-2-[[(2S)-2-[[(2S)-2-[[(2S)-2-[[(2S)-2-amino-3-(1H-indol-3-yl)propanoyl]amino]propanoyl]amino]-3-carboxy-propanoyl]amino]-3-(1H-indol-3-yl)propanoyl]amino]-3-methyl-butanoyl]amino]acetyl]amino]-3-(1H-indol-3-yl)propanoyl]amino]-3-methyl-valeric acid
> <PUBCHEM_IUPAC_INCHI>
InChI=1S/C53H65N11O11/c1-6-28(4)46(53(74)75)64-50(71)40(20-31-24-56-38-17-11-8-14-34(31)38)60-43(65)26-58-52(73)45(27(2)3)63-51(72)41(21-32-25-57-39-18-12-9-15-35(32)39)62-49(70)42(22-44(66)67)61-47(68)29(5)59-48(69)36(54)19-30-23-55-37-16-10-7-13-33(30)37/h7-18,23-25,27-29,36,40-42,45-46,55-57H,6,19-22,26,54H2,1-5H3,(H,58,73)(H,59,69)(H,60,65)(H,61,68)(H,62,70)(H,63,72)(H,64,71)(H,66,67)(H,74,75)/t28-,29-,36-,40-,41-,42-,45-,46-/m0/s1
> <PUBCHEM_IUPAC_INCHIKEY>
KQYXAKKGSDSCJZ-KQSDCGSZSA-N
> <PUBCHEM_XLOGP3_AA>
1.4
> <PUBCHEM_EXACT_MASS>
1031.48650193
> <PUBCHEM_MOLECULAR_FORMULA>
C53H65N11O11
> <PUBCHEM_MOLECULAR_WEIGHT>
1032.1
> <PUBCHEM_OPENEYE_CAN_SMILES>
CCC(C)C(C(=O)O)NC(=O)C(CC1=CNC2=CC=CC=C21)NC(=O)CNC(=O)C(C(C)C)NC(=O)C(CC3=CNC4=CC=CC=C43)NC(=O)C(CC(=O)O)NC(=O)C(C)NC(=O)C(CC5=CNC6=CC=CC=C65)N
> <PUBCHEM_OPENEYE_ISO_SMILES>
CC[C@H](C)[C@@H](C(=O)O)NC(=O)[C@H](CC1=CNC2=CC=CC=C21)NC(=O)CNC(=O)[C@H](C(C)C)NC(=O)[C@H](CC3=CNC4=CC=CC=C43)NC(=O)[C@H](CC(=O)O)NC(=O)[C@H](C)NC(=O)[C@H](CC5=CNC6=CC=CC=C65)N
> <PUBCHEM_CACTVS_TPSA>
352
> <PUBCHEM_MONOISOTOPIC_WEIGHT>
1031.48650193
> <PUBCHEM_TOTAL_CHARGE>
0
> <PUBCHEM_HEAVY_ATOM_COUNT>
75
> <PUBCHEM_ATOM_DEF_STEREO_COUNT>
8
> <PUBCHEM_ATOM_UDEF_STEREO_COUNT>
0
> <PUBCHEM_BOND_DEF_STEREO_COUNT>
0
> <PUBCHEM_BOND_UDEF_STEREO_COUNT>
0
> <PUBCHEM_ISOTOPIC_ATOM_COUNT>
0
> <PUBCHEM_COMPONENT_COUNT>
1
> <PUBCHEM_CACTVS_TAUTO_COUNT>
-1
> <PUBCHEM_COORDINATE_TYPE>
1
5
255
> <PUBCHEM_BONDANNOTATIONS>
24  12  5
25  13  6
26  14  6
28  15  5
17  44  8
17  46  8
18  49  8
18  51  8
42  19  5
56  20  6
21  70  8
21  71  8
58  22  5
23  36  6
33  40  8
33  46  8
35  41  8
35  51  8
40  44  8
40  52  8
41  49  8
41  54  8
44  55  8
49  57  8
52  61  8
54  64  8
55  63  8
57  65  8
61  63  8
62  66  8
62  71  8
64  65  8
66  70  8
66  72  8
70  73  8
72  74  8
73  75  8
74  75  8
$$$$
