514228
  -OEChem-10302200282D
108109  0     1  0  0  0  0  0999 V2000
    7.7469    1.1325    0.0000 P   0  0  3  0  0  0  0  0  0  0  0  0
    5.8858    3.5970    0.0000 O   0  0  0  0  0  0  0  0  0  0  0  0
    7.1591    1.9415    0.0000 O   0  0  0  0  0  0  0  0  0  0  0  0
    8.3347    0.3235    0.0000 O   0  0  0  0  0  0  0  0  0  0  0  0
    6.8089    5.1848    0.0000 O   0  0  0  0  0  0  0  0  0  0  0  0
    9.5103   -1.2946    0.0000 O   0  0  0  0  0  0  0  0  0  0  0  0
    8.5559    1.7203    0.0000 O   0  0  0  0  0  0  0  0  0  0  0  0
    6.9379    0.5447    0.0000 O   0  0  0  0  0  0  0  0  0  0  0  0
    5.0768    8.1848    0.0000 O   0  0  0  0  0  0  0  0  0  0  0  0
   12.9006   -0.0674    0.0000 O   0  0  0  0  0  0  0  0  0  0  0  0
    5.0768    5.1848    0.0000 N   0  0  0  0  0  0  0  0  0  0  0  0
    3.9890    1.8370    0.0000 N   0  0  0  0  0  0  0  0  0  0  0  0
    5.9428    6.6848    0.0000 N   0  0  0  0  0  0  0  0  0  0  0  0
    2.9945    1.9415    0.0000 N   0  3  0  0  0  0  0  0  0  0  0  0
   11.4993   -1.0855    0.0000 N   0  0  0  0  0  0  0  0  0  0  0  0
    2.0000    2.0460    0.0000 N   0  5  0  0  0  0  0  0  0  0  0  0
    4.5768    2.6460    0.0000 C   0  0  2  0  0  0  0  0  0  0  0  0
    5.5768    2.6460    0.0000 C   0  0  1  0  0  0  0  0  0  0  0  0
    4.2678    3.5970    0.0000 C   0  0  0  0  0  0  0  0  0  0  0  0
    5.0768    4.1848    0.0000 C   0  0  1  0  0  0  0  0  0  0  0  0
    6.1646    1.8370    0.0000 C   0  0  0  0  0  0  0  0  0  0  0  0
    4.2108    5.6848    0.0000 C   0  0  0  0  0  0  0  0  0  0  0  0
    5.9428    5.6848    0.0000 C   0  0  0  0  0  0  0  0  0  0  0  0
    4.2108    6.6848    0.0000 C   0  0  0  0  0  0  0  0  0  0  0  0
    5.0768    7.1848    0.0000 C   0  0  0  0  0  0  0  0  0  0  0  0
   16.2462   -3.1990    0.0000 C   0  0  0  0  0  0  0  0  0  0  0  0
   15.6585   -2.3900    0.0000 C   0  0  0  0  0  0  0  0  0  0  0  0
   17.2408   -3.0944    0.0000 C   0  0  0  0  0  0  0  0  0  0  0  0
    9.9170   -0.3810    0.0000 C   0  0  3  0  0  0  0  0  0  0  0  0
   14.6639   -2.4945    0.0000 C   0  0  0  0  0  0  0  0  0  0  0  0
   17.8286   -3.9035    0.0000 C   0  0  0  0  0  0  0  0  0  0  0  0
    3.3448    7.1848    0.0000 C   0  0  0  0  0  0  0  0  0  0  0  0
    9.3292    0.4280    0.0000 C   0  0  0  0  0  0  0  0  0  0  0  0
   14.0761   -1.6855    0.0000 C   0  0  0  0  0  0  0  0  0  0  0  0
   18.8231   -3.7989    0.0000 C   0  0  0  0  0  0  0  0  0  0  0  0
   10.9115   -0.2765    0.0000 C   0  0  0  0  0  0  0  0  0  0  0  0
   10.2791   -3.8262    0.0000 C   0  0  0  0  0  0  0  0  0  0  0  0
    9.6913   -3.0171    0.0000 C   0  0  0  0  0  0  0  0  0  0  0  0
   13.0816   -1.7900    0.0000 C   0  0  0  0  0  0  0  0  0  0  0  0
   19.4109   -4.6080    0.0000 C   0  0  0  0  0  0  0  0  0  0  0  0
    9.8724   -4.7397    0.0000 C   0  0  0  0  0  0  0  0  0  0  0  0
   10.0981   -2.1036    0.0000 C   0  0  0  0  0  0  0  0  0  0  0  0
   10.4602   -5.5487    0.0000 C   0  0  0  0  0  0  0  0  0  0  0  0
   12.4938   -0.9810    0.0000 C   0  0  0  0  0  0  0  0  0  0  0  0
   10.0534   -6.4623    0.0000 C   0  0  0  0  0  0  0  0  0  0  0  0
   20.4054   -4.5034    0.0000 C   0  0  0  0  0  0  0  0  0  0  0  0
   10.6412   -7.2713    0.0000 C   0  0  0  0  0  0  0  0  0  0  0  0
   20.9932   -5.3124    0.0000 C   0  0  0  0  0  0  0  0  0  0  0  0
   10.2345   -8.1848    0.0000 C   0  0  0  0  0  0  0  0  0  0  0  0
    3.9645    2.7430    0.0000 H   0  0  0  0  0  0  0  0  0  0  0  0
    6.1892    2.7430    0.0000 H   0  0  0  0  0  0  0  0  0  0  0  0
    3.9578    4.1340    0.0000 H   0  0  0  0  0  0  0  0  0  0  0  0
    3.7014    3.3449    0.0000 H   0  0  0  0  0  0  0  0  0  0  0  0
    4.5244    4.4663    0.0000 H   0  0  0  0  0  0  0  0  0  0  0  0
    5.6074    1.5652    0.0000 H   0  0  0  0  0  0  0  0  0  0  0  0
    6.3355    1.2410    0.0000 H   0  0  0  0  0  0  0  0  0  0  0  0
    3.6739    5.3748    0.0000 H   0  0  0  0  0  0  0  0  0  0  0  0
    6.4798    6.9948    0.0000 H   0  0  0  0  0  0  0  0  0  0  0  0
   15.6890   -3.4708    0.0000 H   0  0  0  0  0  0  0  0  0  0  0  0
   16.4171   -3.7950    0.0000 H   0  0  0  0  0  0  0  0  0  0  0  0
   16.2157   -2.1182    0.0000 H   0  0  0  0  0  0  0  0  0  0  0  0
   15.4876   -1.7940    0.0000 H   0  0  0  0  0  0  0  0  0  0  0  0
   17.7980   -2.8227    0.0000 H   0  0  0  0  0  0  0  0  0  0  0  0
   17.0699   -2.4985    0.0000 H   0  0  0  0  0  0  0  0  0  0  0  0
   10.2814   -0.8826    0.0000 H   0  0  0  0  0  0  0  0  0  0  0  0
   14.1067   -2.7663    0.0000 H   0  0  0  0  0  0  0  0  0  0  0  0
   14.8348   -3.0905    0.0000 H   0  0  0  0  0  0  0  0  0  0  0  0
   17.2713   -4.1753    0.0000 H   0  0  0  0  0  0  0  0  0  0  0  0
   17.9994   -4.4995    0.0000 H   0  0  0  0  0  0  0  0  0  0  0  0
    3.6548    7.7218    0.0000 H   0  0  0  0  0  0  0  0  0  0  0  0
    2.8078    7.4948    0.0000 H   0  0  0  0  0  0  0  0  0  0  0  0
    3.0348    6.6479    0.0000 H   0  0  0  0  0  0  0  0  0  0  0  0
    9.8865    0.6998    0.0000 H   0  0  0  0  0  0  0  0  0  0  0  0
    9.1583    1.0240    0.0000 H   0  0  0  0  0  0  0  0  0  0  0  0
   14.6334   -1.4137    0.0000 H   0  0  0  0  0  0  0  0  0  0  0  0
   13.9053   -1.0895    0.0000 H   0  0  0  0  0  0  0  0  0  0  0  0
   19.3803   -3.5272    0.0000 H   0  0  0  0  0  0  0  0  0  0  0  0
   18.6522   -3.2030    0.0000 H   0  0  0  0  0  0  0  0  0  0  0  0
   11.4688   -0.0047    0.0000 H   0  0  0  0  0  0  0  0  0  0  0  0
   10.7406    0.3195    0.0000 H   0  0  0  0  0  0  0  0  0  0  0  0
   10.7931   -4.1729    0.0000 H   0  0  0  0  0  0  0  0  0  0  0  0
   10.7098   -3.3802    0.0000 H   0  0  0  0  0  0  0  0  0  0  0  0
    9.1773   -2.6704    0.0000 H   0  0  0  0  0  0  0  0  0  0  0  0
    9.2606   -3.4631    0.0000 H   0  0  0  0  0  0  0  0  0  0  0  0
   12.5244   -2.0618    0.0000 H   0  0  0  0  0  0  0  0  0  0  0  0
   13.2525   -2.3860    0.0000 H   0  0  0  0  0  0  0  0  0  0  0  0
    9.3584   -4.3930    0.0000 H   0  0  0  0  0  0  0  0  0  0  0  0
    9.4417   -5.1857    0.0000 H   0  0  0  0  0  0  0  0  0  0  0  0
   18.8536   -4.8797    0.0000 H   0  0  0  0  0  0  0  0  0  0  0  0
   19.5818   -5.2039    0.0000 H   0  0  0  0  0  0  0  0  0  0  0  0
   10.6121   -2.4503    0.0000 H   0  0  0  0  0  0  0  0  0  0  0  0
   10.5288   -1.6576    0.0000 H   0  0  0  0  0  0  0  0  0  0  0  0
   10.9742   -5.8954    0.0000 H   0  0  0  0  0  0  0  0  0  0  0  0
   10.8908   -5.1027    0.0000 H   0  0  0  0  0  0  0  0  0  0  0  0
   11.2471   -1.6519    0.0000 H   0  0  0  0  0  0  0  0  0  0  0  0
    8.4911    2.3369    0.0000 H   0  0  0  0  0  0  0  0  0  0  0  0
    9.5394   -6.1156    0.0000 H   0  0  0  0  0  0  0  0  0  0  0  0
    9.6227   -6.9082    0.0000 H   0  0  0  0  0  0  0  0  0  0  0  0
   20.9626   -4.2316    0.0000 H   0  0  0  0  0  0  0  0  0  0  0  0
   20.2345   -3.9074    0.0000 H   0  0  0  0  0  0  0  0  0  0  0  0
   11.1552   -7.6180    0.0000 H   0  0  0  0  0  0  0  0  0  0  0  0
   11.0719   -6.8253    0.0000 H   0  0  0  0  0  0  0  0  0  0  0  0
   20.4916   -5.6769    0.0000 H   0  0  0  0  0  0  0  0  0  0  0  0
   21.3576   -5.8140    0.0000 H   0  0  0  0  0  0  0  0  0  0  0  0
   21.4948   -4.9480    0.0000 H   0  0  0  0  0  0  0  0  0  0  0  0
    9.6681   -7.9326    0.0000 H   0  0  0  0  0  0  0  0  0  0  0  0
    9.9823   -8.7512    0.0000 H   0  0  0  0  0  0  0  0  0  0  0  0
   10.8009   -8.4370    0.0000 H   0  0  0  0  0  0  0  0  0  0  0  0
  1  3  1  0  0  0  0
  1  4  1  0  0  0  0
  1  7  1  0  0  0  0
  1  8  2  0  0  0  0
  2 18  1  0  0  0  0
  2 20  1  0  0  0  0
  3 21  1  0  0  0  0
  4 33  1  0  0  0  0
  5 23  2  0  0  0  0
  6 29  1  0  0  0  0
  6 42  1  0  0  0  0
  7 96  1  0  0  0  0
  9 25  2  0  0  0  0
 10 44  2  0  0  0  0
 20 11  1  6  0  0  0
 11 22  1  0  0  0  0
 11 23  1  0  0  0  0
 12 14  2  0  0  0  0
 17 12  1  1  0  0  0
 13 23  1  0  0  0  0
 13 25  1  0  0  0  0
 13 58  1  0  0  0  0
 14 16  2  0  0  0  0
 15 36  1  0  0  0  0
 15 44  1  0  0  0  0
 15 95  1  0  0  0  0
 17 18  1  0  0  0  0
 17 19  1  0  0  0  0
 17 50  1  0  0  0  0
 18 21  1  6  0  0  0
 18 51  1  0  0  0  0
 19 20  1  0  0  0  0
 19 52  1  0  0  0  0
 19 53  1  0  0  0  0
 20 54  1  0  0  0  0
 21 55  1  0  0  0  0
 21 56  1  0  0  0  0
 22 24  2  0  0  0  0
 22 57  1  0  0  0  0
 24 25  1  0  0  0  0
 24 32  1  0  0  0  0
 26 27  1  0  0  0  0
 26 28  1  0  0  0  0
 26 59  1  0  0  0  0
 26 60  1  0  0  0  0
 27 30  1  0  0  0  0
 27 61  1  0  0  0  0
 27 62  1  0  0  0  0
 28 31  1  0  0  0  0
 28 63  1  0  0  0  0
 28 64  1  0  0  0  0
 29 33  1  0  0  0  0
 29 36  1  0  0  0  0
 29 65  1  0  0  0  0
 30 34  1  0  0  0  0
 30 66  1  0  0  0  0
 30 67  1  0  0  0  0
 31 35  1  0  0  0  0
 31 68  1  0  0  0  0
 31 69  1  0  0  0  0
 32 70  1  0  0  0  0
 32 71  1  0  0  0  0
 32 72  1  0  0  0  0
 33 73  1  0  0  0  0
 33 74  1  0  0  0  0
 34 39  1  0  0  0  0
 34 75  1  0  0  0  0
 34 76  1  0  0  0  0
 35 40  1  0  0  0  0
 35 77  1  0  0  0  0
 35 78  1  0  0  0  0
 36 79  1  0  0  0  0
 36 80  1  0  0  0  0
 37 38  1  0  0  0  0
 37 41  1  0  0  0  0
 37 81  1  0  0  0  0
 37 82  1  0  0  0  0
 38 42  1  0  0  0  0
 38 83  1  0  0  0  0
 38 84  1  0  0  0  0
 39 44  1  0  0  0  0
 39 85  1  0  0  0  0
 39 86  1  0  0  0  0
 40 46  1  0  0  0  0
 40 89  1  0  0  0  0
 40 90  1  0  0  0  0
 41 43  1  0  0  0  0
 41 87  1  0  0  0  0
 41 88  1  0  0  0  0
 42 91  1  0  0  0  0
 42 92  1  0  0  0  0
 43 45  1  0  0  0  0
 43 93  1  0  0  0  0
 43 94  1  0  0  0  0
 45 47  1  0  0  0  0
 45 97  1  0  0  0  0
 45 98  1  0  0  0  0
 46 48  1  0  0  0  0
 46 99  1  0  0  0  0
 46100  1  0  0  0  0
 47 49  1  0  0  0  0
 47101  1  0  0  0  0
 47102  1  0  0  0  0
 48103  1  0  0  0  0
 48104  1  0  0  0  0
 48105  1  0  0  0  0
 49106  1  0  0  0  0
 49107  1  0  0  0  0
 49108  1  0  0  0  0
M  CHG  2  14   1  16  -1
M  END
> <PUBCHEM_COMPOUND_CID>
514228
> <PUBCHEM_COMPOUND_CANONICALIZED>
1
> <PUBCHEM_CACTVS_COMPLEXITY>
1140
> <PUBCHEM_CACTVS_HBOND_ACCEPTOR>
11
> <PUBCHEM_CACTVS_HBOND_DONOR>
3
> <PUBCHEM_CACTVS_ROTATABLE_BOND>
28
> <PUBCHEM_CACTVS_SUBSKEYS>
AAADcfB/vAIAAAAAAAAAAAAAAAAAASAAAAAgAAAAAAAAAAAAAAAAHgAYCCAADDzhgAYDAAPABRCKQgFWUICAAAAAAAAAAIEIAECDABIAwQAPAAAOFyKSAMG4+KKAAAAAAAAAAAAAAAAAAAAAAAAAAAAAAA==
> <PUBCHEM_IUPAC_OPENEYE_NAME>
[(2S,3S,5R)-3-azido-5-(5-methyl-2,4-dioxo-pyrimidin-1-yl)tetrahydrofuran-2-yl]methyl [3-(dodecanoylamino)-2-octoxy-propyl] hydrogen phosphate
> <PUBCHEM_IUPAC_CAS_NAME>
[(2S,3S,5R)-3-azido-5-(5-methyl-2,4-dioxo-1-pyrimidinyl)-2-oxolanyl]methyl [2-octoxy-3-(1-oxododecylamino)propyl] hydrogen phosphate
> <PUBCHEM_IUPAC_NAME_MARKUP>
[(2<I>S</I>,3<I>S</I>,5<I>R</I>)-3-azido-5-(5-methyl-2,4-dioxopyrimidin-1-yl)oxolan-2-yl]methyl [3-(dodecanoylamino)-2-octoxypropyl] hydrogen phosphate
> <PUBCHEM_IUPAC_NAME>
[(2S,3S,5R)-3-azido-5-(5-methyl-2,4-dioxopyrimidin-1-yl)oxolan-2-yl]methyl [3-(dodecanoylamino)-2-octoxypropyl] hydrogen phosphate
> <PUBCHEM_IUPAC_SYSTEMATIC_NAME>
[(2S,3S,5R)-3-azido-5-[5-methyl-2,4-bis(oxidanylidene)pyrimidin-1-yl]oxolan-2-yl]methyl [3-(dodecanoylamino)-2-octoxy-propyl] hydrogen phosphate
> <PUBCHEM_IUPAC_TRADITIONAL_NAME>
[(2S,3S,5R)-3-azido-5-(2,4-diketo-5-methyl-pyrimidin-1-yl)tetrahydrofuran-2-yl]methyl [3-(lauroylamino)-2-octoxy-propyl] hydrogen phosphate
> <PUBCHEM_IUPAC_INCHI>
InChI=1S/C33H59N6O9P/c1-4-6-8-10-12-13-14-15-17-19-30(40)35-22-27(45-20-18-16-11-9-7-5-2)24-46-49(43,44)47-25-29-28(37-38-34)21-31(48-29)39-23-26(3)32(41)36-33(39)42/h23,27-29,31H,4-22,24-25H2,1-3H3,(H,35,40)(H,43,44)(H,36,41,42)/t27?,28-,29+,31+/m0/s1
> <PUBCHEM_IUPAC_INCHIKEY>
REJGFZMNVYFTOY-NIVBRBIASA-N
> <PUBCHEM_XLOGP3>
7.3
> <PUBCHEM_EXACT_MASS>
714.40811448
> <PUBCHEM_MOLECULAR_FORMULA>
C33H59N6O9P
> <PUBCHEM_MOLECULAR_WEIGHT>
714.8
> <PUBCHEM_OPENEYE_CAN_SMILES>
CCCCCCCCCCCC(=O)NCC(COP(=O)(O)OCC1C(CC(O1)N2C=C(C(=O)NC2=O)C)N=[N+]=[N-])OCCCCCCCC
> <PUBCHEM_OPENEYE_ISO_SMILES>
CCCCCCCCCCCC(=O)NCC(COP(=O)(O)OC[C@@H]1[C@H](C[C@@H](O1)N2C=C(C(=O)NC2=O)C)N=[N+]=[N-])OCCCCCCCC
> <PUBCHEM_CACTVS_TPSA>
167
> <PUBCHEM_MONOISOTOPIC_WEIGHT>
714.40811448
> <PUBCHEM_TOTAL_CHARGE>
0
> <PUBCHEM_HEAVY_ATOM_COUNT>
49
> <PUBCHEM_ATOM_DEF_STEREO_COUNT>
3
> <PUBCHEM_ATOM_UDEF_STEREO_COUNT>
1
> <PUBCHEM_BOND_DEF_STEREO_COUNT>
0
> <PUBCHEM_BOND_UDEF_STEREO_COUNT>
0
> <PUBCHEM_ISOTOPIC_ATOM_COUNT>
0
> <PUBCHEM_COMPONENT_COUNT>
1
> <PUBCHEM_CACTVS_TAUTO_COUNT>
-1
> <PUBCHEM_COORDINATE_TYPE>
1
5
255
> <PUBCHEM_BONDANNOTATIONS>
20  11  6
11  22  8
11  23  8
17  12  5
13  23  8
13  25  8
18  21  6
22  24  8
24  25  8
29  36  3
$$$$
