514220
  -OEChem-10302200282D
132135  0     1  0  0  0  0  0999 V2000
    6.1350    5.3100    0.0000 O   0  0  0  0  0  0  0  0  0  0  0  0
    2.5369    4.3100    0.0000 O   0  0  0  0  0  0  0  0  0  0  0  0
    3.4030    2.8100    0.0000 O   0  0  0  0  0  0  0  0  0  0  0  0
   11.5991    5.3100    0.0000 O   0  0  0  0  0  0  0  0  0  0  0  0
    8.8671    2.8100    0.0000 O   0  0  0  0  0  0  0  0  0  0  0  0
   14.3312    2.8100    0.0000 O   0  0  0  0  0  0  0  0  0  0  0  0
   11.1305   -1.6900    0.0000 O   0  0  0  0  0  0  0  0  0  0  0  0
    8.3985   -4.1900    0.0000 O   0  0  0  0  0  0  0  0  0  0  0  0
   13.8626   -4.1900    0.0000 O   0  0  0  0  0  0  0  0  0  0  0  0
   14.7286   -1.6900    0.0000 O   0  0  0  0  0  0  0  0  0  0  0  0
   11.9965   -6.1900    0.0000 O   0  0  0  0  0  0  0  0  0  0  0  0
   13.8626   -0.1900    0.0000 O   0  0  0  0  0  0  0  0  0  0  0  0
   10.2645   -6.1900    0.0000 O   0  0  0  0  0  0  0  0  0  0  0  0
    5.1350    3.8100    0.0000 N   0  0  0  0  0  0  0  0  0  0  0  0
    7.8671    4.3100    0.0000 N   0  0  0  0  0  0  0  0  0  0  0  0
   13.3312    4.3100    0.0000 N   0  0  0  0  0  0  0  0  0  0  0  0
    4.5601    1.9781    0.0000 N   0  0  0  0  0  0  0  0  0  0  0  0
   10.5991    3.8100    0.0000 N   0  0  0  0  0  0  0  0  0  0  0  0
    9.3985   -2.6900    0.0000 N   0  0  0  0  0  0  0  0  0  0  0  0
   12.1305   -3.1900    0.0000 N   0  0  0  0  0  0  0  0  0  0  0  0
   16.0632    3.8100    0.0000 N   0  0  0  0  0  0  0  0  0  0  0  0
    9.9733   -0.8581    0.0000 N   0  0  0  0  0  0  0  0  0  0  0  0
    6.6664   -3.1900    0.0000 N   0  0  0  0  0  0  0  0  0  0  0  0
    4.2690    5.3100    0.0000 C   0  0  2  0  0  0  0  0  0  0  0  0
    4.2690    4.3100    0.0000 C   0  0  1  0  0  0  0  0  0  0  0  0
    7.0010    3.8100    0.0000 C   0  0  1  0  0  0  0  0  0  0  0  0
    3.4030    5.8100    0.0000 C   0  0  0  0  0  0  0  0  0  0  0  0
    7.0010    2.8100    0.0000 C   0  0  0  0  0  0  0  0  0  0  0  0
    6.1350    4.3100    0.0000 C   0  0  0  0  0  0  0  0  0  0  0  0
    5.1350    5.8100    0.0000 C   0  0  0  0  0  0  0  0  0  0  0  0
   12.4651    3.8100    0.0000 C   0  0  1  0  0  0  0  0  0  0  0  0
    6.1350    2.3100    0.0000 C   0  0  0  0  0  0  0  0  0  0  0  0
   12.4651    2.8100    0.0000 C   0  0  0  0  0  0  0  0  0  0  0  0
    6.0320    1.3213    0.0000 C   0  0  0  0  0  0  0  0  0  0  0  0
    3.4030    3.8100    0.0000 C   0  0  0  0  0  0  0  0  0  0  0  0
    3.4030    6.8100    0.0000 C   0  0  0  0  0  0  0  0  0  0  0  0
   10.2645   -3.1900    0.0000 C   0  0  1  0  0  0  0  0  0  0  0  0
    5.0534    1.1151    0.0000 C   0  0  0  0  0  0  0  0  0  0  0  0
    5.2272    2.7151    0.0000 C   0  0  0  0  0  0  0  0  0  0  0  0
   11.5991    4.3100    0.0000 C   0  0  0  0  0  0  0  0  0  0  0  0
   13.3312    2.3100    0.0000 C   0  0  0  0  0  0  0  0  0  0  0  0
   11.5991    2.3100    0.0000 C   0  0  0  0  0  0  0  0  0  0  0  0
   15.1972    4.3100    0.0000 C   0  0  2  0  0  0  0  0  0  0  0  0
    8.8671    3.8100    0.0000 C   0  0  0  0  0  0  0  0  0  0  0  0
    7.5324   -2.6900    0.0000 C   0  0  1  0  0  0  0  0  0  0  0  0
    9.7331    4.3100    0.0000 C   0  0  0  0  0  0  0  0  0  0  0  0
   12.9965   -2.6900    0.0000 C   0  0  2  0  0  0  0  0  0  0  0  0
    7.5324   -1.6900    0.0000 C   0  0  0  0  0  0  0  0  0  0  0  0
   10.2645   -4.1900    0.0000 C   0  0  0  0  0  0  0  0  0  0  0  0
   14.3312    3.8100    0.0000 C   0  0  0  0  0  0  0  0  0  0  0  0
    8.3985   -1.1900    0.0000 C   0  0  0  0  0  0  0  0  0  0  0  0
   11.1305   -2.6900    0.0000 C   0  0  0  0  0  0  0  0  0  0  0  0
    6.6998    0.5770    0.0000 C   0  0  0  0  0  0  0  0  0  0  0  0
    8.3985   -3.1900    0.0000 C   0  0  0  0  0  0  0  0  0  0  0  0
   13.8626   -3.1900    0.0000 C   0  0  0  0  0  0  0  0  0  0  0  0
    8.5015   -0.2013    0.0000 C   0  0  0  0  0  0  0  0  0  0  0  0
    4.7428    0.1645    0.0000 C   0  0  0  0  0  0  0  0  0  0  0  0
   12.9965   -1.6900    0.0000 C   0  0  0  0  0  0  0  0  0  0  0  0
   11.1305   -4.6900    0.0000 C   0  0  0  0  0  0  0  0  0  0  0  0
   15.1972    5.3100    0.0000 C   0  0  0  0  0  0  0  0  0  0  0  0
    9.4800    0.0049    0.0000 C   0  0  0  0  0  0  0  0  0  0  0  0
    9.3063   -1.5951    0.0000 C   0  0  0  0  0  0  0  0  0  0  0  0
    6.3891   -0.3735    0.0000 C   0  0  0  0  0  0  0  0  0  0  0  0
    5.4106   -0.5798    0.0000 C   0  0  0  0  0  0  0  0  0  0  0  0
    7.8337    0.5430    0.0000 C   0  0  0  0  0  0  0  0  0  0  0  0
    9.7907    0.9555    0.0000 C   0  0  0  0  0  0  0  0  0  0  0  0
   13.8626   -1.1900    0.0000 C   0  0  0  0  0  0  0  0  0  0  0  0
   11.1305   -5.6900    0.0000 C   0  0  0  0  0  0  0  0  0  0  0  0
    8.1443    1.4935    0.0000 C   0  0  0  0  0  0  0  0  0  0  0  0
    9.1228    1.6998    0.0000 C   0  0  0  0  0  0  0  0  0  0  0  0
    4.2690    5.9300    0.0000 H   0  0  0  0  0  0  0  0  0  0  0  0
    4.8059    4.6200    0.0000 H   0  0  0  0  0  0  0  0  0  0  0  0
    7.5380    3.5000    0.0000 H   0  0  0  0  0  0  0  0  0  0  0  0
    2.7924    5.9177    0.0000 H   0  0  0  0  0  0  0  0  0  0  0  0
    3.1909    5.2274    0.0000 H   0  0  0  0  0  0  0  0  0  0  0  0
    7.2131    2.2274    0.0000 H   0  0  0  0  0  0  0  0  0  0  0  0
    7.6116    2.9177    0.0000 H   0  0  0  0  0  0  0  0  0  0  0  0
    5.6720    3.5000    0.0000 H   0  0  0  0  0  0  0  0  0  0  0  0
   13.0021    3.5000    0.0000 H   0  0  0  0  0  0  0  0  0  0  0  0
    5.4450    5.2731    0.0000 H   0  0  0  0  0  0  0  0  0  0  0  0
    5.6720    6.1200    0.0000 H   0  0  0  0  0  0  0  0  0  0  0  0
    4.8250    6.3469    0.0000 H   0  0  0  0  0  0  0  0  0  0  0  0
   11.9282    3.1200    0.0000 H   0  0  0  0  0  0  0  0  0  0  0  0
    8.4040    4.6200    0.0000 H   0  0  0  0  0  0  0  0  0  0  0  0
    4.0230    6.8100    0.0000 H   0  0  0  0  0  0  0  0  0  0  0  0
    3.4030    7.4300    0.0000 H   0  0  0  0  0  0  0  0  0  0  0  0
    2.7830    6.8100    0.0000 H   0  0  0  0  0  0  0  0  0  0  0  0
   10.2645   -2.5700    0.0000 H   0  0  0  0  0  0  0  0  0  0  0  0
    5.0994    3.3218    0.0000 H   0  0  0  0  0  0  0  0  0  0  0  0
   13.8681    4.6200    0.0000 H   0  0  0  0  0  0  0  0  0  0  0  0
   13.0212    1.7731    0.0000 H   0  0  0  0  0  0  0  0  0  0  0  0
   13.8681    2.0000    0.0000 H   0  0  0  0  0  0  0  0  0  0  0  0
   13.6412    2.8469    0.0000 H   0  0  0  0  0  0  0  0  0  0  0  0
   11.2891    2.8469    0.0000 H   0  0  0  0  0  0  0  0  0  0  0  0
   11.0622    2.0000    0.0000 H   0  0  0  0  0  0  0  0  0  0  0  0
   11.9091    1.7731    0.0000 H   0  0  0  0  0  0  0  0  0  0  0  0
   15.1972    3.6900    0.0000 H   0  0  0  0  0  0  0  0  0  0  0  0
    7.5324   -3.3100    0.0000 H   0  0  0  0  0  0  0  0  0  0  0  0
   12.4596   -2.3800    0.0000 H   0  0  0  0  0  0  0  0  0  0  0  0
   10.1316    4.7850    0.0000 H   0  0  0  0  0  0  0  0  0  0  0  0
    9.3346    4.7850    0.0000 H   0  0  0  0  0  0  0  0  0  0  0  0
    7.3204   -1.1074    0.0000 H   0  0  0  0  0  0  0  0  0  0  0  0
    6.9219   -1.7977    0.0000 H   0  0  0  0  0  0  0  0  0  0  0  0
    3.9438    2.0450    0.0000 H   0  0  0  0  0  0  0  0  0  0  0  0
    9.6539   -4.0823    0.0000 H   0  0  0  0  0  0  0  0  0  0  0  0
   10.0524   -4.7726    0.0000 H   0  0  0  0  0  0  0  0  0  0  0  0
   11.1360    3.5000    0.0000 H   0  0  0  0  0  0  0  0  0  0  0  0
    9.9354   -2.3800    0.0000 H   0  0  0  0  0  0  0  0  0  0  0  0
    7.3065    0.7048    0.0000 H   0  0  0  0  0  0  0  0  0  0  0  0
   12.6675   -3.5000    0.0000 H   0  0  0  0  0  0  0  0  0  0  0  0
   16.6001    3.5000    0.0000 H   0  0  0  0  0  0  0  0  0  0  0  0
    4.1361    0.0367    0.0000 H   0  0  0  0  0  0  0  0  0  0  0  0
   12.7845   -1.1074    0.0000 H   0  0  0  0  0  0  0  0  0  0  0  0
   12.3860   -1.7977    0.0000 H   0  0  0  0  0  0  0  0  0  0  0  0
   11.7411   -4.7977    0.0000 H   0  0  0  0  0  0  0  0  0  0  0  0
   11.3426   -4.1074    0.0000 H   0  0  0  0  0  0  0  0  0  0  0  0
   15.8172    5.3100    0.0000 H   0  0  0  0  0  0  0  0  0  0  0  0
   15.1972    5.9300    0.0000 H   0  0  0  0  0  0  0  0  0  0  0  0
   14.5772    5.3100    0.0000 H   0  0  0  0  0  0  0  0  0  0  0  0
    9.4341   -2.2018    0.0000 H   0  0  0  0  0  0  0  0  0  0  0  0
    6.8032   -0.8350    0.0000 H   0  0  0  0  0  0  0  0  0  0  0  0
    5.2180   -1.1691    0.0000 H   0  0  0  0  0  0  0  0  0  0  0  0
    2.0000    4.0000    0.0000 H   0  0  0  0  0  0  0  0  0  0  0  0
   10.5897   -0.9250    0.0000 H   0  0  0  0  0  0  0  0  0  0  0  0
    6.6664   -3.8100    0.0000 H   0  0  0  0  0  0  0  0  0  0  0  0
    7.2034   -2.8800    0.0000 H   0  0  0  0  0  0  0  0  0  0  0  0
    7.2270    0.4152    0.0000 H   0  0  0  0  0  0  0  0  0  0  0  0
   10.3974    1.0833    0.0000 H   0  0  0  0  0  0  0  0  0  0  0  0
    7.7303    1.9550    0.0000 H   0  0  0  0  0  0  0  0  0  0  0  0
    9.3155    2.2891    0.0000 H   0  0  0  0  0  0  0  0  0  0  0  0
   15.2655   -1.3800    0.0000 H   0  0  0  0  0  0  0  0  0  0  0  0
   11.9965   -6.8100    0.0000 H   0  0  0  0  0  0  0  0  0  0  0  0
  1 29  2  0  0  0  0
  2 35  1  0  0  0  0
  2123  1  0  0  0  0
  3 35  2  0  0  0  0
  4 40  2  0  0  0  0
  5 44  2  0  0  0  0
  6 50  2  0  0  0  0
  7 52  2  0  0  0  0
  8 54  2  0  0  0  0
  9 55  2  0  0  0  0
 10 67  1  0  0  0  0
 10131  1  0  0  0  0
 11 68  1  0  0  0  0
 11132  1  0  0  0  0
 12 67  2  0  0  0  0
 13 68  2  0  0  0  0
 25 14  1  6  0  0  0
 14 29  1  0  0  0  0
 14 78  1  0  0  0  0
 26 15  1  1  0  0  0
 15 44  1  0  0  0  0
 15 84  1  0  0  0  0
 31 16  1  1  0  0  0
 16 50  1  0  0  0  0
 16 90  1  0  0  0  0
 17 38  1  0  0  0  0
 17 39  1  0  0  0  0
 17104  1  0  0  0  0
 18 40  1  0  0  0  0
 18 46  1  0  0  0  0
 18107  1  0  0  0  0
 37 19  1  6  0  0  0
 19 54  1  0  0  0  0
 19108  1  0  0  0  0
 47 20  1  1  0  0  0
 20 52  1  0  0  0  0
 20110  1  0  0  0  0
 43 21  1  6  0  0  0
 21 55  1  0  0  0  0
 21111  1  0  0  0  0
 22 61  1  0  0  0  0
 22 62  1  0  0  0  0
 22124  1  0  0  0  0
 45 23  1  1  0  0  0
 23125  1  0  0  0  0
 23126  1  0  0  0  0
 24 25  1  0  0  0  0
 24 27  1  0  0  0  0
 24 30  1  6  0  0  0
 24 71  1  0  0  0  0
 25 35  1  0  0  0  0
 25 72  1  0  0  0  0
 26 28  1  0  0  0  0
 26 29  1  0  0  0  0
 26 73  1  0  0  0  0
 27 36  1  0  0  0  0
 27 74  1  0  0  0  0
 27 75  1  0  0  0  0
 28 32  1  0  0  0  0
 28 76  1  0  0  0  0
 28 77  1  0  0  0  0
 30 80  1  0  0  0  0
 30 81  1  0  0  0  0
 30 82  1  0  0  0  0
 31 33  1  0  0  0  0
 31 40  1  0  0  0  0
 31 79  1  0  0  0  0
 32 34  1  0  0  0  0
 32 39  2  0  0  0  0
 33 41  1  0  0  0  0
 33 42  1  0  0  0  0
 33 83  1  0  0  0  0
 34 38  1  0  0  0  0
 34 53  2  0  0  0  0
 36 85  1  0  0  0  0
 36 86  1  0  0  0  0
 36 87  1  0  0  0  0
 37 49  1  0  0  0  0
 37 52  1  0  0  0  0
 37 88  1  0  0  0  0
 38 57  2  0  0  0  0
 39 89  1  0  0  0  0
 41 91  1  0  0  0  0
 41 92  1  0  0  0  0
 41 93  1  0  0  0  0
 42 94  1  0  0  0  0
 42 95  1  0  0  0  0
 42 96  1  0  0  0  0
 43 50  1  0  0  0  0
 43 60  1  0  0  0  0
 43 97  1  0  0  0  0
 44 46  1  0  0  0  0
 45 48  1  0  0  0  0
 45 54  1  0  0  0  0
 45 98  1  0  0  0  0
 46100  1  0  0  0  0
 46101  1  0  0  0  0
 47 55  1  0  0  0  0
 47 58  1  0  0  0  0
 47 99  1  0  0  0  0
 48 51  1  0  0  0  0
 48102  1  0  0  0  0
 48103  1  0  0  0  0
 49 59  1  0  0  0  0
 49105  1  0  0  0  0
 49106  1  0  0  0  0
 51 56  1  0  0  0  0
 51 62  2  0  0  0  0
 53 63  1  0  0  0  0
 53109  1  0  0  0  0
 56 61  1  0  0  0  0
 56 65  2  0  0  0  0
 57 64  1  0  0  0  0
 57112  1  0  0  0  0
 58 67  1  0  0  0  0
 58113  1  0  0  0  0
 58114  1  0  0  0  0
 59 68  1  0  0  0  0
 59115  1  0  0  0  0
 59116  1  0  0  0  0
 60117  1  0  0  0  0
 60118  1  0  0  0  0
 60119  1  0  0  0  0
 61 66  2  0  0  0  0
 62120  1  0  0  0  0
 63 64  2  0  0  0  0
 63121  1  0  0  0  0
 64122  1  0  0  0  0
 65 69  1  0  0  0  0
 65127  1  0  0  0  0
 66 70  1  0  0  0  0
 66128  1  0  0  0  0
 69 70  2  0  0  0  0
 69129  1  0  0  0  0
 70130  1  0  0  0  0
M  END
> <PUBCHEM_COMPOUND_CID>
514220
> <PUBCHEM_COMPOUND_CANONICALIZED>
1
> <PUBCHEM_CACTVS_COMPLEXITY>
1890
> <PUBCHEM_CACTVS_HBOND_ACCEPTOR>
14
> <PUBCHEM_CACTVS_HBOND_DONOR>
13
> <PUBCHEM_CACTVS_ROTATABLE_BOND>
27
> <PUBCHEM_CACTVS_SUBSKEYS>
AAADcfB//AAAAAAAAAAAAAAAAAAAAWLAAAAwYAAAAAAAAFgB/gAAHgAQCAAADSjBngQ+yPLJkgCoAzX3XACCgCAxAiAI2aG4ZJgKYPrAkbGUYAhmlgDYyAe/n8KOgAAAAAACAAAAAAAAAAQAAAAAAAAAAA==
> <PUBCHEM_IUPAC_OPENEYE_NAME>
(2S,3S)-2-[[(2S)-2-[[2-[[(2S)-2-[[(2S)-2-[[(2S)-2-[[(2S)-2-[[(2S)-2-amino-3-(1H-indol-3-yl)propanoyl]amino]-4-carboxy-butanoyl]amino]-3-carboxy-propanoyl]amino]propanoyl]amino]-3-methyl-butanoyl]amino]acetyl]amino]-3-(1H-indol-3-yl)propanoyl]amino]-3-methyl-pentanoic acid
> <PUBCHEM_IUPAC_CAS_NAME>
(2S,3S)-2-[[(2S)-2-[[2-[[(2S)-2-[[(2S)-2-[[(2S)-2-[[(2S)-2-[[(2S)-2-amino-3-(1H-indol-3-yl)-1-oxopropyl]amino]-4-carboxy-1-oxobutyl]amino]-3-carboxy-1-oxopropyl]amino]-1-oxopropyl]amino]-3-methyl-1-oxobutyl]amino]-1-oxoethyl]amino]-3-(1H-indol-3-yl)-1-oxopropyl]amino]-3-methylpentanoic acid
> <PUBCHEM_IUPAC_NAME_MARKUP>
(2<I>S</I>,3<I>S</I>)-2-[[(2<I>S</I>)-2-[[2-[[(2<I>S</I>)-2-[[(2<I>S</I>)-2-[[(2<I>S</I>)-2-[[(2<I>S</I>)-2-[[(2<I>S</I>)-2-amino-3-(1<I>H</I>-indol-3-yl)propanoyl]amino]-4-carboxybutanoyl]amino]-3-carboxypropanoyl]amino]propanoyl]amino]-3-methylbutanoyl]amino]acetyl]amino]-3-(1<I>H</I>-indol-3-yl)propanoyl]amino]-3-methylpentanoic acid
> <PUBCHEM_IUPAC_NAME>
(2S,3S)-2-[[(2S)-2-[[2-[[(2S)-2-[[(2S)-2-[[(2S)-2-[[(2S)-2-[[(2S)-2-amino-3-(1H-indol-3-yl)propanoyl]amino]-4-carboxybutanoyl]amino]-3-carboxypropanoyl]amino]propanoyl]amino]-3-methylbutanoyl]amino]acetyl]amino]-3-(1H-indol-3-yl)propanoyl]amino]-3-methylpentanoic acid
> <PUBCHEM_IUPAC_SYSTEMATIC_NAME>
(2S,3S)-2-[[(2S)-2-[2-[[(2S)-2-[[(2S)-2-[[(2S)-2-[[(2S)-2-[[(2S)-2-azanyl-3-(1H-indol-3-yl)propanoyl]amino]-5-oxidanyl-5-oxidanylidene-pentanoyl]amino]-4-oxidanyl-4-oxidanylidene-butanoyl]amino]propanoyl]amino]-3-methyl-butanoyl]amino]ethanoylamino]-3-(1H-indol-3-yl)propanoyl]amino]-3-methyl-pentanoic acid
> <PUBCHEM_IUPAC_TRADITIONAL_NAME>
(2S,3S)-2-[[(2S)-2-[[2-[[(2S)-2-[[(2S)-2-[[(2S)-2-[[(2S)-2-[[(2S)-2-amino-3-(1H-indol-3-yl)propanoyl]amino]-4-carboxy-butanoyl]amino]-3-carboxy-propanoyl]amino]propanoyl]amino]-3-methyl-butanoyl]amino]acetyl]amino]-3-(1H-indol-3-yl)propanoyl]amino]-3-methyl-valeric acid
> <PUBCHEM_IUPAC_INCHI>
InChI=1S/C47H62N10O13/c1-6-24(4)40(47(69)70)57-45(67)34(18-27-21-50-32-14-10-8-12-29(27)32)53-36(58)22-51-46(68)39(23(2)3)56-41(63)25(5)52-44(66)35(19-38(61)62)55-43(65)33(15-16-37(59)60)54-42(64)30(48)17-26-20-49-31-13-9-7-11-28(26)31/h7-14,20-21,23-25,30,33-35,39-40,49-50H,6,15-19,22,48H2,1-5H3,(H,51,68)(H,52,66)(H,53,58)(H,54,64)(H,55,65)(H,56,63)(H,57,67)(H,59,60)(H,61,62)(H,69,70)/t24-,25-,30-,33-,34-,35-,39-,40-/m0/s1
> <PUBCHEM_IUPAC_INCHIKEY>
PRHZCNQDOSDREI-TZKPBTTKSA-N
> <PUBCHEM_XLOGP3_AA>
-0.8
> <PUBCHEM_EXACT_MASS>
974.44978207
> <PUBCHEM_MOLECULAR_FORMULA>
C47H62N10O13
> <PUBCHEM_MOLECULAR_WEIGHT>
975.1
> <PUBCHEM_OPENEYE_CAN_SMILES>
CCC(C)C(C(=O)O)NC(=O)C(CC1=CNC2=CC=CC=C21)NC(=O)CNC(=O)C(C(C)C)NC(=O)C(C)NC(=O)C(CC(=O)O)NC(=O)C(CCC(=O)O)NC(=O)C(CC3=CNC4=CC=CC=C43)N
> <PUBCHEM_OPENEYE_ISO_SMILES>
CC[C@H](C)[C@@H](C(=O)O)NC(=O)[C@H](CC1=CNC2=CC=CC=C21)NC(=O)CNC(=O)[C@H](C(C)C)NC(=O)[C@H](C)NC(=O)[C@H](CC(=O)O)NC(=O)[C@H](CCC(=O)O)NC(=O)[C@H](CC3=CNC4=CC=CC=C43)N
> <PUBCHEM_CACTVS_TPSA>
373
> <PUBCHEM_MONOISOTOPIC_WEIGHT>
974.44978207
> <PUBCHEM_TOTAL_CHARGE>
0
> <PUBCHEM_HEAVY_ATOM_COUNT>
70
> <PUBCHEM_ATOM_DEF_STEREO_COUNT>
8
> <PUBCHEM_ATOM_UDEF_STEREO_COUNT>
0
> <PUBCHEM_BOND_DEF_STEREO_COUNT>
0
> <PUBCHEM_BOND_UDEF_STEREO_COUNT>
0
> <PUBCHEM_ISOTOPIC_ATOM_COUNT>
0
> <PUBCHEM_COMPONENT_COUNT>
1
> <PUBCHEM_CACTVS_TAUTO_COUNT>
-1
> <PUBCHEM_COORDINATE_TYPE>
1
5
255
> <PUBCHEM_BONDANNOTATIONS>
25  14  6
26  15  5
31  16  5
17  38  8
17  39  8
37  19  6
47  20  5
43  21  6
22  61  8
22  62  8
45  23  5
24  30  6
32  34  8
32  39  8
34  38  8
34  53  8
38  57  8
51  56  8
51  62  8
53  63  8
56  61  8
56  65  8
57  64  8
61  66  8
63  64  8
65  69  8
66  70  8
69  70  8
$$$$
