514212
  -OEChem-10302200282D
106109  0     1  0  0  0  0  0999 V2000
    6.5819    5.4542    0.0000 O   0  0  0  0  0  0  0  0  0  0  0  0
    9.3463   -2.8137    0.0000 O   0  0  0  0  0  0  0  0  0  0  0  0
    6.3642   -0.7870    0.0000 O   0  0  0  0  0  0  0  0  0  0  0  0
    4.2677    6.7366    0.0000 O   0  0  0  0  0  0  0  0  0  0  0  0
    5.9140    6.1985    0.0000 O   0  0  0  0  0  0  0  0  0  0  0  0
    8.2747    2.2708    0.0000 O   0  0  0  0  0  0  0  0  0  0  0  0
   10.0141   -3.5580    0.0000 O   0  0  0  0  0  0  0  0  0  0  0  0
   12.9962   -5.5846    0.0000 O   0  0  0  0  0  0  0  0  0  0  0  0
   11.7070   -6.7414    0.0000 O   0  0  0  0  0  0  0  0  0  0  0  0
    5.2927    4.2975    0.0000 N   0  0  0  0  0  0  0  0  0  0  0  0
    7.6999   -2.2756    0.0000 N   0  0  0  0  0  0  0  0  0  0  0  0
    6.6284    2.8089    0.0000 N   0  0  0  0  0  0  0  0  0  0  0  0
    8.7250   -4.7147    0.0000 N   0  0  0  0  0  0  0  0  0  0  0  0
    7.6534    0.3698    0.0000 N   0  0  0  0  0  0  0  0  0  0  0  0
    8.2282    6.5256    0.0000 N   0  0  0  0  0  0  0  0  0  0  0  0
    6.7679   -6.7366    0.0000 N   0  0  0  0  0  0  0  0  0  0  0  0
   10.0606   -6.2033    0.0000 N   0  0  0  0  0  0  0  0  0  0  0  0
    3.6464    4.8356    0.0000 C   0  0  2  0  0  0  0  0  0  0  0  0
    4.6249    5.0418    0.0000 C   0  0  1  0  0  0  0  0  0  0  0  0
    8.0106   -1.3251    0.0000 C   0  0  1  0  0  0  0  0  0  0  0  0
    8.9891   -1.1188    0.0000 C   0  0  0  0  0  0  0  0  0  0  0  0
    6.9390    3.7594    0.0000 C   0  0  1  0  0  0  0  0  0  0  0  0
    8.0571   -3.9704    0.0000 C   0  0  1  0  0  0  0  0  0  0  0  0
    7.9176    3.9656    0.0000 C   0  0  0  0  0  0  0  0  0  0  0  0
    2.9785    5.5799    0.0000 C   0  0  0  0  0  0  0  0  0  0  0  0
    7.0786   -4.1766    0.0000 C   0  0  0  0  0  0  0  0  0  0  0  0
    6.2712    4.5037    0.0000 C   0  0  0  0  0  0  0  0  0  0  0  0
    8.2282    4.9161    0.0000 C   0  0  0  0  0  0  0  0  0  0  0  0
    8.3678   -3.0199    0.0000 C   0  0  0  0  0  0  0  0  0  0  0  0
    3.3357    3.8850    0.0000 C   0  0  0  0  0  0  0  0  0  0  0  0
    6.7679   -5.1271    0.0000 C   0  0  0  0  0  0  0  0  0  0  0  0
    7.3428   -0.5808    0.0000 C   0  0  0  0  0  0  0  0  0  0  0  0
    9.2998   -0.1683    0.0000 C   0  0  0  0  0  0  0  0  0  0  0  0
    9.6569   -1.8632    0.0000 C   0  0  0  0  0  0  0  0  0  0  0  0
    9.1744    5.2209    0.0000 C   0  0  0  0  0  0  0  0  0  0  0  0
    5.8217   -5.4319    0.0000 C   0  0  0  0  0  0  0  0  0  0  0  0
    4.9355    5.9923    0.0000 C   0  0  0  0  0  0  0  0  0  0  0  0
    2.0000    5.3736    0.0000 C   0  0  0  0  0  0  0  0  0  0  0  0
    6.9856    1.1141    0.0000 C   0  0  0  0  0  0  0  0  0  0  0  0
    9.1744    6.2209    0.0000 C   0  0  0  0  0  0  0  0  0  0  0  0
    7.6446    5.7209    0.0000 C   0  0  0  0  0  0  0  0  0  0  0  0
    5.8217   -6.4319    0.0000 C   0  0  0  0  0  0  0  0  0  0  0  0
    7.3516   -5.9319    0.0000 C   0  0  0  0  0  0  0  0  0  0  0  0
    7.2962    2.0646    0.0000 C   0  0  0  0  0  0  0  0  0  0  0  0
    9.7035   -4.5085    0.0000 C   0  0  0  0  0  0  0  0  0  0  0  0
   10.0405    4.7209    0.0000 C   0  0  0  0  0  0  0  0  0  0  0  0
   10.3713   -5.2528    0.0000 C   0  0  2  0  0  0  0  0  0  0  0  0
    4.9557   -4.9319    0.0000 C   0  0  0  0  0  0  0  0  0  0  0  0
   10.0405    6.7209    0.0000 C   0  0  0  0  0  0  0  0  0  0  0  0
    4.9557   -6.9319    0.0000 C   0  0  0  0  0  0  0  0  0  0  0  0
   10.9065    5.2209    0.0000 C   0  0  0  0  0  0  0  0  0  0  0  0
    4.0897   -5.4319    0.0000 C   0  0  0  0  0  0  0  0  0  0  0  0
   11.3498   -5.0466    0.0000 C   0  0  0  0  0  0  0  0  0  0  0  0
   10.9065    6.2209    0.0000 C   0  0  0  0  0  0  0  0  0  0  0  0
    4.0897   -6.4319    0.0000 C   0  0  0  0  0  0  0  0  0  0  0  0
   12.0177   -5.7909    0.0000 C   0  0  0  0  0  0  0  0  0  0  0  0
    3.0397    4.7077    0.0000 H   0  0  0  0  0  0  0  0  0  0  0  0
    5.2315    5.1696    0.0000 H   0  0  0  0  0  0  0  0  0  0  0  0
    7.4039   -1.4529    0.0000 H   0  0  0  0  0  0  0  0  0  0  0  0
    8.7965   -1.7082    0.0000 H   0  0  0  0  0  0  0  0  0  0  0  0
    7.3531    3.2979    0.0000 H   0  0  0  0  0  0  0  0  0  0  0  0
    7.8645   -4.5597    0.0000 H   0  0  0  0  0  0  0  0  0  0  0  0
    7.9381    3.3460    0.0000 H   0  0  0  0  0  0  0  0  0  0  0  0
    8.5314    3.8783    0.0000 H   0  0  0  0  0  0  0  0  0  0  0  0
    3.5049    5.9075    0.0000 H   0  0  0  0  0  0  0  0  0  0  0  0
    2.7472    6.1551    0.0000 H   0  0  0  0  0  0  0  0  0  0  0  0
    7.0580   -3.5570    0.0000 H   0  0  0  0  0  0  0  0  0  0  0  0
    6.4648   -4.0893    0.0000 H   0  0  0  0  0  0  0  0  0  0  0  0
    5.1001    3.7082    0.0000 H   0  0  0  0  0  0  0  0  0  0  0  0
    7.0933   -2.4034    0.0000 H   0  0  0  0  0  0  0  0  0  0  0  0
    2.7464    4.0777    0.0000 H   0  0  0  0  0  0  0  0  0  0  0  0
    3.1431    3.2957    0.0000 H   0  0  0  0  0  0  0  0  0  0  0  0
    3.9250    3.6924    0.0000 H   0  0  0  0  0  0  0  0  0  0  0  0
    6.0217    2.6810    0.0000 H   0  0  0  0  0  0  0  0  0  0  0  0
    9.8891   -0.3609    0.0000 H   0  0  0  0  0  0  0  0  0  0  0  0
    9.4924    0.4210    0.0000 H   0  0  0  0  0  0  0  0  0  0  0  0
    8.7104    0.0243    0.0000 H   0  0  0  0  0  0  0  0  0  0  0  0
    9.1955   -2.2772    0.0000 H   0  0  0  0  0  0  0  0  0  0  0  0
   10.0710   -2.3246    0.0000 H   0  0  0  0  0  0  0  0  0  0  0  0
   10.1184   -1.4491    0.0000 H   0  0  0  0  0  0  0  0  0  0  0  0
    8.5323   -5.3040    0.0000 H   0  0  0  0  0  0  0  0  0  0  0  0
    1.8721    5.9803    0.0000 H   0  0  0  0  0  0  0  0  0  0  0  0
    1.3933    5.2458    0.0000 H   0  0  0  0  0  0  0  0  0  0  0  0
    2.1279    4.7670    0.0000 H   0  0  0  0  0  0  0  0  0  0  0  0
    6.4386    1.4061    0.0000 H   0  0  0  0  0  0  0  0  0  0  0  0
    6.6030    0.6262    0.0000 H   0  0  0  0  0  0  0  0  0  0  0  0
    8.2601    0.4976    0.0000 H   0  0  0  0  0  0  0  0  0  0  0  0
    7.0246    5.7209    0.0000 H   0  0  0  0  0  0  0  0  0  0  0  0
    7.9716   -5.9319    0.0000 H   0  0  0  0  0  0  0  0  0  0  0  0
    8.0356    7.1149    0.0000 H   0  0  0  0  0  0  0  0  0  0  0  0
    6.9606   -7.3259    0.0000 H   0  0  0  0  0  0  0  0  0  0  0  0
   10.0405    4.1009    0.0000 H   0  0  0  0  0  0  0  0  0  0  0  0
   10.7854   -5.7143    0.0000 H   0  0  0  0  0  0  0  0  0  0  0  0
    4.9557   -4.3119    0.0000 H   0  0  0  0  0  0  0  0  0  0  0  0
   10.0405    7.3409    0.0000 H   0  0  0  0  0  0  0  0  0  0  0  0
    4.9557   -7.5519    0.0000 H   0  0  0  0  0  0  0  0  0  0  0  0
   11.4434    4.9109    0.0000 H   0  0  0  0  0  0  0  0  0  0  0  0
    3.5527   -5.1219    0.0000 H   0  0  0  0  0  0  0  0  0  0  0  0
   11.8762   -4.7189    0.0000 H   0  0  0  0  0  0  0  0  0  0  0  0
   11.1185   -4.4713    0.0000 H   0  0  0  0  0  0  0  0  0  0  0  0
   11.4434    6.5309    0.0000 H   0  0  0  0  0  0  0  0  0  0  0  0
    3.5527   -6.7419    0.0000 H   0  0  0  0  0  0  0  0  0  0  0  0
    4.4603    7.3259    0.0000 H   0  0  0  0  0  0  0  0  0  0  0  0
   10.4747   -6.6648    0.0000 H   0  0  0  0  0  0  0  0  0  0  0  0
    9.4540   -6.3312    0.0000 H   0  0  0  0  0  0  0  0  0  0  0  0
   13.4102   -6.0461    0.0000 H   0  0  0  0  0  0  0  0  0  0  0  0
  1 27  2  0  0  0  0
  2 29  2  0  0  0  0
  3 32  2  0  0  0  0
  4 37  1  0  0  0  0
  4103  1  0  0  0  0
  5 37  2  0  0  0  0
  6 44  2  0  0  0  0
  7 45  2  0  0  0  0
  8 56  1  0  0  0  0
  8106  1  0  0  0  0
  9 56  2  0  0  0  0
 19 10  1  1  0  0  0
 10 27  1  0  0  0  0
 10 69  1  0  0  0  0
 20 11  1  6  0  0  0
 11 29  1  0  0  0  0
 11 70  1  0  0  0  0
 22 12  1  6  0  0  0
 12 44  1  0  0  0  0
 12 74  1  0  0  0  0
 23 13  1  1  0  0  0
 13 45  1  0  0  0  0
 13 81  1  0  0  0  0
 14 32  1  0  0  0  0
 14 39  1  0  0  0  0
 14 87  1  0  0  0  0
 15 40  1  0  0  0  0
 15 41  1  0  0  0  0
 15 90  1  0  0  0  0
 16 42  1  0  0  0  0
 16 43  1  0  0  0  0
 16 91  1  0  0  0  0
 47 17  1  6  0  0  0
 17104  1  0  0  0  0
 17105  1  0  0  0  0
 18 19  1  0  0  0  0
 18 25  1  0  0  0  0
 18 30  1  1  0  0  0
 18 57  1  0  0  0  0
 19 37  1  0  0  0  0
 19 58  1  0  0  0  0
 20 21  1  0  0  0  0
 20 32  1  0  0  0  0
 20 59  1  0  0  0  0
 21 33  1  0  0  0  0
 21 34  1  0  0  0  0
 21 60  1  0  0  0  0
 22 24  1  0  0  0  0
 22 27  1  0  0  0  0
 22 61  1  0  0  0  0
 23 26  1  0  0  0  0
 23 29  1  0  0  0  0
 23 62  1  0  0  0  0
 24 28  1  0  0  0  0
 24 63  1  0  0  0  0
 24 64  1  0  0  0  0
 25 38  1  0  0  0  0
 25 65  1  0  0  0  0
 25 66  1  0  0  0  0
 26 31  1  0  0  0  0
 26 67  1  0  0  0  0
 26 68  1  0  0  0  0
 28 35  1  0  0  0  0
 28 41  2  0  0  0  0
 30 71  1  0  0  0  0
 30 72  1  0  0  0  0
 30 73  1  0  0  0  0
 31 36  1  0  0  0  0
 31 43  2  0  0  0  0
 33 75  1  0  0  0  0
 33 76  1  0  0  0  0
 33 77  1  0  0  0  0
 34 78  1  0  0  0  0
 34 79  1  0  0  0  0
 34 80  1  0  0  0  0
 35 40  1  0  0  0  0
 35 46  2  0  0  0  0
 36 42  1  0  0  0  0
 36 48  2  0  0  0  0
 38 82  1  0  0  0  0
 38 83  1  0  0  0  0
 38 84  1  0  0  0  0
 39 44  1  0  0  0  0
 39 85  1  0  0  0  0
 39 86  1  0  0  0  0
 40 49  2  0  0  0  0
 41 88  1  0  0  0  0
 42 50  2  0  0  0  0
 43 89  1  0  0  0  0
 45 47  1  0  0  0  0
 46 51  1  0  0  0  0
 46 92  1  0  0  0  0
 47 53  1  0  0  0  0
 47 93  1  0  0  0  0
 48 52  1  0  0  0  0
 48 94  1  0  0  0  0
 49 54  1  0  0  0  0
 49 95  1  0  0  0  0
 50 55  1  0  0  0  0
 50 96  1  0  0  0  0
 51 54  2  0  0  0  0
 51 97  1  0  0  0  0
 52 55  2  0  0  0  0
 52 98  1  0  0  0  0
 53 56  1  0  0  0  0
 53 99  1  0  0  0  0
 53100  1  0  0  0  0
 54101  1  0  0  0  0
 55102  1  0  0  0  0
M  END
> <PUBCHEM_COMPOUND_CID>
514212
> <PUBCHEM_COMPOUND_CANONICALIZED>
1
> <PUBCHEM_CACTVS_COMPLEXITY>
1410
> <PUBCHEM_CACTVS_HBOND_ACCEPTOR>
10
> <PUBCHEM_CACTVS_HBOND_DONOR>
10
> <PUBCHEM_CACTVS_ROTATABLE_BOND>
20
> <PUBCHEM_CACTVS_SUBSKEYS>
AAADcfB//AAAAAAAAAAAAAAAAAAAAWLAAAAwYAAAAAAAAFgB/gAAHgAQCAAADSjBngQ+yPLJkgCoAzX3XACCgCAxAiAI2aG4ZJgKYPrAkbGUYAhmlgDYyAe/icCOgAAAAAACAAAAAAAAAAQAAAAAAAAAAA==
> <PUBCHEM_IUPAC_OPENEYE_NAME>
(2S,3S)-2-[[(2S)-2-[[2-[[(2S)-2-[[(2S)-2-[[(2S)-2-amino-3-carboxy-propanoyl]amino]-3-(1H-indol-3-yl)propanoyl]amino]-3-methyl-butanoyl]amino]acetyl]amino]-3-(1H-indol-3-yl)propanoyl]amino]-3-methyl-pentanoic acid
> <PUBCHEM_IUPAC_CAS_NAME>
(2S,3S)-2-[[(2S)-2-[[2-[[(2S)-2-[[(2S)-2-[[(2S)-2-amino-3-carboxy-1-oxopropyl]amino]-3-(1H-indol-3-yl)-1-oxopropyl]amino]-3-methyl-1-oxobutyl]amino]-1-oxoethyl]amino]-3-(1H-indol-3-yl)-1-oxopropyl]amino]-3-methylpentanoic acid
> <PUBCHEM_IUPAC_NAME_MARKUP>
(2<I>S</I>,3<I>S</I>)-2-[[(2<I>S</I>)-2-[[2-[[(2<I>S</I>)-2-[[(2<I>S</I>)-2-[[(2<I>S</I>)-2-amino-3-carboxypropanoyl]amino]-3-(1<I>H</I>-indol-3-yl)propanoyl]amino]-3-methylbutanoyl]amino]acetyl]amino]-3-(1<I>H</I>-indol-3-yl)propanoyl]amino]-3-methylpentanoic acid
> <PUBCHEM_IUPAC_NAME>
(2S,3S)-2-[[(2S)-2-[[2-[[(2S)-2-[[(2S)-2-[[(2S)-2-amino-3-carboxypropanoyl]amino]-3-(1H-indol-3-yl)propanoyl]amino]-3-methylbutanoyl]amino]acetyl]amino]-3-(1H-indol-3-yl)propanoyl]amino]-3-methylpentanoic acid
> <PUBCHEM_IUPAC_SYSTEMATIC_NAME>
(2S,3S)-2-[[(2S)-2-[2-[[(2S)-2-[[(2S)-2-[[(2S)-2-azanyl-4-oxidanyl-4-oxidanylidene-butanoyl]amino]-3-(1H-indol-3-yl)propanoyl]amino]-3-methyl-butanoyl]amino]ethanoylamino]-3-(1H-indol-3-yl)propanoyl]amino]-3-methyl-pentanoic acid
> <PUBCHEM_IUPAC_TRADITIONAL_NAME>
(2S,3S)-2-[[(2S)-2-[[2-[[(2S)-2-[[(2S)-2-[[(2S)-2-amino-3-carboxy-propanoyl]amino]-3-(1H-indol-3-yl)propanoyl]amino]-3-methyl-butanoyl]amino]acetyl]amino]-3-(1H-indol-3-yl)propanoyl]amino]-3-methyl-valeric acid
> <PUBCHEM_IUPAC_INCHI>
InChI=1S/C39H50N8O9/c1-5-21(4)34(39(55)56)47-36(52)29(14-22-17-41-27-12-8-6-10-24(22)27)44-31(48)19-43-38(54)33(20(2)3)46-37(53)30(45-35(51)26(40)16-32(49)50)15-23-18-42-28-13-9-7-11-25(23)28/h6-13,17-18,20-21,26,29-30,33-34,41-42H,5,14-16,19,40H2,1-4H3,(H,43,54)(H,44,48)(H,45,51)(H,46,53)(H,47,52)(H,49,50)(H,55,56)/t21-,26-,29-,30-,33-,34-/m0/s1
> <PUBCHEM_IUPAC_INCHIKEY>
GXLYMWQPVQGPPD-OXDBRXAGSA-N
> <PUBCHEM_XLOGP3>
-0.2
> <PUBCHEM_EXACT_MASS>
774.37007520
> <PUBCHEM_MOLECULAR_FORMULA>
C39H50N8O9
> <PUBCHEM_MOLECULAR_WEIGHT>
774.9
> <PUBCHEM_OPENEYE_CAN_SMILES>
CCC(C)C(C(=O)O)NC(=O)C(CC1=CNC2=CC=CC=C21)NC(=O)CNC(=O)C(C(C)C)NC(=O)C(CC3=CNC4=CC=CC=C43)NC(=O)C(CC(=O)O)N
> <PUBCHEM_OPENEYE_ISO_SMILES>
CC[C@H](C)[C@@H](C(=O)O)NC(=O)[C@H](CC1=CNC2=CC=CC=C21)NC(=O)CNC(=O)[C@H](C(C)C)NC(=O)[C@H](CC3=CNC4=CC=CC=C43)NC(=O)[C@H](CC(=O)O)N
> <PUBCHEM_CACTVS_TPSA>
278
> <PUBCHEM_MONOISOTOPIC_WEIGHT>
774.37007520
> <PUBCHEM_TOTAL_CHARGE>
0
> <PUBCHEM_HEAVY_ATOM_COUNT>
56
> <PUBCHEM_ATOM_DEF_STEREO_COUNT>
6
> <PUBCHEM_ATOM_UDEF_STEREO_COUNT>
0
> <PUBCHEM_BOND_DEF_STEREO_COUNT>
0
> <PUBCHEM_BOND_UDEF_STEREO_COUNT>
0
> <PUBCHEM_ISOTOPIC_ATOM_COUNT>
0
> <PUBCHEM_COMPONENT_COUNT>
1
> <PUBCHEM_CACTVS_TAUTO_COUNT>
-1
> <PUBCHEM_COORDINATE_TYPE>
1
5
255
> <PUBCHEM_BONDANNOTATIONS>
19  10  5
20  11  6
22  12  6
23  13  5
15  40  8
15  41  8
16  42  8
16  43  8
47  17  6
18  30  5
28  35  8
28  41  8
31  36  8
31  43  8
35  40  8
35  46  8
36  42  8
36  48  8
40  49  8
42  50  8
46  51  8
48  52  8
49  54  8
50  55  8
51  54  8
52  55  8
$$$$
