514252
  -OEChem-10302200282D
 73 76  0     1  0  0  0  0  0999 V2000
    5.8301   -6.1651    0.0000 F   0  0  0  0  0  0  0  0  0  0  0  0
    7.1962   -5.7990    0.0000 F   0  0  0  0  0  0  0  0  0  0  0  0
    6.8301   -4.4330    0.0000 F   0  0  0  0  0  0  0  0  0  0  0  0
    5.4641   -0.7990    0.0000 O   0  0  0  0  0  0  0  0  0  0  0  0
    7.5981    6.1651    0.0000 O   0  0  0  0  0  0  0  0  0  0  0  0
    5.4641   -4.7990    0.0000 O   0  0  0  0  0  0  0  0  0  0  0  0
    2.8660   -0.2990    0.0000 N   0  0  0  0  0  0  0  0  0  0  0  0
    6.5981    4.4330    0.0000 N   0  0  0  0  0  0  0  0  0  0  0  0
    2.0570   -0.8868    0.0000 N   0  0  0  0  0  0  0  0  0  0  0  0
    3.3660   -1.8379    0.0000 N   0  0  0  0  0  0  0  0  0  0  0  0
    4.5981    2.7010    0.0000 C   0  0  1  0  0  0  0  0  0  0  0  0
    3.7320    2.2010    0.0000 C   0  0  1  0  0  0  0  0  0  0  0  0
    3.7320    1.2010    0.0000 C   0  0  2  0  0  0  0  0  0  0  0  0
    4.5981    0.7010    0.0000 C   0  0  1  0  0  0  0  0  0  0  0  0
    5.4641    2.2010    0.0000 C   0  0  0  0  0  0  0  0  0  0  0  0
    5.4641    1.2010    0.0000 C   0  0  0  0  0  0  0  0  0  0  0  0
    5.0981    3.5670    0.0000 C   0  0  0  0  0  0  0  0  0  0  0  0
    2.8660    2.7010    0.0000 C   0  0  0  0  0  0  0  0  0  0  0  0
    4.0981    3.5670    0.0000 C   0  0  0  0  0  0  0  0  0  0  0  0
    2.8660    0.7010    0.0000 C   0  0  0  0  0  0  0  0  0  0  0  0
    4.5981   -0.2990    0.0000 C   0  0  0  0  0  0  0  0  0  0  0  0
    6.0981    3.5670    0.0000 C   0  0  0  0  0  0  0  0  0  0  0  0
    2.0000    2.2010    0.0000 C   0  0  0  0  0  0  0  0  0  0  0  0
    6.0981    5.2990    0.0000 C   0  0  0  0  0  0  0  0  0  0  0  0
    7.5981    4.4330    0.0000 C   0  0  0  0  0  0  0  0  0  0  0  0
    3.6750   -0.8868    0.0000 C   0  0  0  0  0  0  0  0  0  0  0  0
    6.5981    6.1651    0.0000 C   0  0  0  0  0  0  0  0  0  0  0  0
    8.0981    5.2990    0.0000 C   0  0  0  0  0  0  0  0  0  0  0  0
    5.4641   -1.7990    0.0000 C   0  0  0  0  0  0  0  0  0  0  0  0
    2.3660   -1.8379    0.0000 C   0  0  0  0  0  0  0  0  0  0  0  0
    4.5981   -2.2990    0.0000 C   0  0  0  0  0  0  0  0  0  0  0  0
    6.3301   -2.2990    0.0000 C   0  0  0  0  0  0  0  0  0  0  0  0
    4.5981   -3.2990    0.0000 C   0  0  0  0  0  0  0  0  0  0  0  0
    6.3301   -3.2990    0.0000 C   0  0  0  0  0  0  0  0  0  0  0  0
    5.4641   -3.7990    0.0000 C   0  0  0  0  0  0  0  0  0  0  0  0
    6.3301   -5.2990    0.0000 C   0  0  0  0  0  0  0  0  0  0  0  0
    3.7320    2.8210    0.0000 H   0  0  0  0  0  0  0  0  0  0  0  0
    3.1951    1.5110    0.0000 H   0  0  0  0  0  0  0  0  0  0  0  0
    5.1350    0.3910    0.0000 H   0  0  0  0  0  0  0  0  0  0  0  0
    6.0747    2.0933    0.0000 H   0  0  0  0  0  0  0  0  0  0  0  0
    5.6762    2.7836    0.0000 H   0  0  0  0  0  0  0  0  0  0  0  0
    5.6762    0.6184    0.0000 H   0  0  0  0  0  0  0  0  0  0  0  0
    6.0747    1.3086    0.0000 H   0  0  0  0  0  0  0  0  0  0  0  0
    5.2057    4.1776    0.0000 H   0  0  0  0  0  0  0  0  0  0  0  0
    4.5155    3.7790    0.0000 H   0  0  0  0  0  0  0  0  0  0  0  0
    3.2646    3.1759    0.0000 H   0  0  0  0  0  0  0  0  0  0  0  0
    2.4675    3.1759    0.0000 H   0  0  0  0  0  0  0  0  0  0  0  0
    4.6350    3.8770    0.0000 H   0  0  0  0  0  0  0  0  0  0  0  0
    3.7881    4.1039    0.0000 H   0  0  0  0  0  0  0  0  0  0  0  0
    3.5611    3.2570    0.0000 H   0  0  0  0  0  0  0  0  0  0  0  0
    2.6540    1.2836    0.0000 H   0  0  0  0  0  0  0  0  0  0  0  0
    2.2554    0.5933    0.0000 H   0  0  0  0  0  0  0  0  0  0  0  0
    3.9875   -0.1914    0.0000 H   0  0  0  0  0  0  0  0  0  0  0  0
    4.3860   -0.8816    0.0000 H   0  0  0  0  0  0  0  0  0  0  0  0
    5.9904    2.9564    0.0000 H   0  0  0  0  0  0  0  0  0  0  0  0
    6.6807    3.3549    0.0000 H   0  0  0  0  0  0  0  0  0  0  0  0
    1.6900    2.7379    0.0000 H   0  0  0  0  0  0  0  0  0  0  0  0
    1.4631    1.8910    0.0000 H   0  0  0  0  0  0  0  0  0  0  0  0
    2.3100    1.6640    0.0000 H   0  0  0  0  0  0  0  0  0  0  0  0
    5.6231    5.6976    0.0000 H   0  0  0  0  0  0  0  0  0  0  0  0
    5.6231    4.9005    0.0000 H   0  0  0  0  0  0  0  0  0  0  0  0
    7.4904    3.8224    0.0000 H   0  0  0  0  0  0  0  0  0  0  0  0
    8.1807    4.2210    0.0000 H   0  0  0  0  0  0  0  0  0  0  0  0
    4.2647   -0.6952    0.0000 H   0  0  0  0  0  0  0  0  0  0  0  0
    6.7057    6.7756    0.0000 H   0  0  0  0  0  0  0  0  0  0  0  0
    6.0155    6.3771    0.0000 H   0  0  0  0  0  0  0  0  0  0  0  0
    8.5730    4.9005    0.0000 H   0  0  0  0  0  0  0  0  0  0  0  0
    8.5730    5.6976    0.0000 H   0  0  0  0  0  0  0  0  0  0  0  0
    2.0016   -2.3395    0.0000 H   0  0  0  0  0  0  0  0  0  0  0  0
    4.0611   -1.9890    0.0000 H   0  0  0  0  0  0  0  0  0  0  0  0
    6.8671   -1.9890    0.0000 H   0  0  0  0  0  0  0  0  0  0  0  0
    4.0611   -3.6090    0.0000 H   0  0  0  0  0  0  0  0  0  0  0  0
    6.8671   -3.6090    0.0000 H   0  0  0  0  0  0  0  0  0  0  0  0
  1 36  1  0  0  0  0
  2 36  1  0  0  0  0
  3 36  1  0  0  0  0
  4 21  1  0  0  0  0
  4 29  1  0  0  0  0
  5 27  1  0  0  0  0
  5 28  1  0  0  0  0
  6 35  1  0  0  0  0
  6 36  1  0  0  0  0
  7  9  1  0  0  0  0
  7 20  1  0  0  0  0
  7 26  1  0  0  0  0
  8 22  1  0  0  0  0
  8 24  1  0  0  0  0
  8 25  1  0  0  0  0
  9 30  2  0  0  0  0
 10 26  2  0  0  0  0
 10 30  1  0  0  0  0
 11 12  1  0  0  0  0
 11 15  1  0  0  0  0
 11 17  1  0  0  0  0
 11 19  1  1  0  0  0
 12 13  1  0  0  0  0
 12 18  1  1  0  0  0
 12 37  1  0  0  0  0
 13 14  1  0  0  0  0
 13 20  1  6  0  0  0
 13 38  1  0  0  0  0
 14 16  1  0  0  0  0
 14 21  1  1  0  0  0
 14 39  1  0  0  0  0
 15 16  1  0  0  0  0
 15 40  1  0  0  0  0
 15 41  1  0  0  0  0
 16 42  1  0  0  0  0
 16 43  1  0  0  0  0
 17 22  1  0  0  0  0
 17 44  1  0  0  0  0
 17 45  1  0  0  0  0
 18 23  1  0  0  0  0
 18 46  1  0  0  0  0
 18 47  1  0  0  0  0
 19 48  1  0  0  0  0
 19 49  1  0  0  0  0
 19 50  1  0  0  0  0
 20 51  1  0  0  0  0
 20 52  1  0  0  0  0
 21 53  1  0  0  0  0
 21 54  1  0  0  0  0
 22 55  1  0  0  0  0
 22 56  1  0  0  0  0
 23 57  1  0  0  0  0
 23 58  1  0  0  0  0
 23 59  1  0  0  0  0
 24 27  1  0  0  0  0
 24 60  1  0  0  0  0
 24 61  1  0  0  0  0
 25 28  1  0  0  0  0
 25 62  1  0  0  0  0
 25 63  1  0  0  0  0
 26 64  1  0  0  0  0
 27 65  1  0  0  0  0
 27 66  1  0  0  0  0
 28 67  1  0  0  0  0
 28 68  1  0  0  0  0
 29 31  2  0  0  0  0
 29 32  1  0  0  0  0
 30 69  1  0  0  0  0
 31 33  1  0  0  0  0
 31 70  1  0  0  0  0
 32 34  2  0  0  0  0
 32 71  1  0  0  0  0
 33 35  2  0  0  0  0
 33 72  1  0  0  0  0
 34 35  1  0  0  0  0
 34 73  1  0  0  0  0
M  END
> <PUBCHEM_COMPOUND_CID>
514252
> <PUBCHEM_COMPOUND_CANONICALIZED>
1
> <PUBCHEM_CACTVS_COMPLEXITY>
659
> <PUBCHEM_CACTVS_HBOND_ACCEPTOR>
9
> <PUBCHEM_CACTVS_HBOND_DONOR>
0
> <PUBCHEM_CACTVS_ROTATABLE_BOND>
10
> <PUBCHEM_CACTVS_SUBSKEYS>
AAADcfB7sYAAAAAAAAAAAAAAAAAAAWAAAAA8YIAAAAAAAAABwAAAHwAIAAAADwThkBY3FocIFACiACBDJAASCAswoIAdyAAOCIiOLiKEuRqHOCCswBOYqAfwwPAPgQAAAAAAAACCAAQAACAAAAAAAAAAAA==
> <PUBCHEM_IUPAC_OPENEYE_NAME>
4-[2-[(1S,2R,3R,4R)-2-ethyl-1-methyl-3-(1,2,4-triazol-1-ylmethyl)-4-[[4-(trifluoromethoxy)phenoxy]methyl]cyclohexyl]ethyl]morpholine
> <PUBCHEM_IUPAC_CAS_NAME>
4-[2-[(1S,2R,3R,4R)-2-ethyl-1-methyl-3-(1,2,4-triazol-1-ylmethyl)-4-[[4-(trifluoromethoxy)phenoxy]methyl]cyclohexyl]ethyl]morpholine
> <PUBCHEM_IUPAC_NAME_MARKUP>
4-[2-[(1<I>S</I>,2<I>R</I>,3<I>R</I>,4<I>R</I>)-2-ethyl-1-methyl-3-(1,2,4-triazol-1-ylmethyl)-4-[[4-(trifluoromethoxy)phenoxy]methyl]cyclohexyl]ethyl]morpholine
> <PUBCHEM_IUPAC_NAME>
4-[2-[(1S,2R,3R,4R)-2-ethyl-1-methyl-3-(1,2,4-triazol-1-ylmethyl)-4-[[4-(trifluoromethoxy)phenoxy]methyl]cyclohexyl]ethyl]morpholine
> <PUBCHEM_IUPAC_SYSTEMATIC_NAME>
4-[2-[(1S,2R,3R,4R)-2-ethyl-1-methyl-3-(1,2,4-triazol-1-ylmethyl)-4-[[4-(trifluoromethyloxy)phenoxy]methyl]cyclohexyl]ethyl]morpholine
> <PUBCHEM_IUPAC_TRADITIONAL_NAME>
4-[2-[(1S,2R,3R,4R)-2-ethyl-1-methyl-3-(1,2,4-triazol-1-ylmethyl)-4-[[4-(trifluoromethoxy)phenoxy]methyl]cyclohexyl]ethyl]morpholine
> <PUBCHEM_IUPAC_INCHI>
InChI=1S/C26H37F3N4O3/c1-3-24-23(16-33-19-30-18-31-33)20(8-9-25(24,2)10-11-32-12-14-34-15-13-32)17-35-21-4-6-22(7-5-21)36-26(27,28)29/h4-7,18-20,23-24H,3,8-17H2,1-2H3/t20-,23-,24+,25-/m0/s1
> <PUBCHEM_IUPAC_INCHIKEY>
WJYXMJHORFWNDV-OXCBMLQPSA-N
> <PUBCHEM_XLOGP3_AA>
6
> <PUBCHEM_EXACT_MASS>
510.28177554
> <PUBCHEM_MOLECULAR_FORMULA>
C26H37F3N4O3
> <PUBCHEM_MOLECULAR_WEIGHT>
510.6
> <PUBCHEM_OPENEYE_CAN_SMILES>
CCC1C(C(CCC1(C)CCN2CCOCC2)COC3=CC=C(C=C3)OC(F)(F)F)CN4C=NC=N4
> <PUBCHEM_OPENEYE_ISO_SMILES>
CC[C@@H]1[C@H]([C@@H](CC[C@@]1(C)CCN2CCOCC2)COC3=CC=C(C=C3)OC(F)(F)F)CN4C=NC=N4
> <PUBCHEM_CACTVS_TPSA>
61.6
> <PUBCHEM_MONOISOTOPIC_WEIGHT>
510.28177554
> <PUBCHEM_TOTAL_CHARGE>
0
> <PUBCHEM_HEAVY_ATOM_COUNT>
36
> <PUBCHEM_ATOM_DEF_STEREO_COUNT>
4
> <PUBCHEM_ATOM_UDEF_STEREO_COUNT>
0
> <PUBCHEM_BOND_DEF_STEREO_COUNT>
0
> <PUBCHEM_BOND_UDEF_STEREO_COUNT>
0
> <PUBCHEM_ISOTOPIC_ATOM_COUNT>
0
> <PUBCHEM_COMPONENT_COUNT>
1
> <PUBCHEM_CACTVS_TAUTO_COUNT>
-1
> <PUBCHEM_COORDINATE_TYPE>
1
5
255
> <PUBCHEM_BONDANNOTATIONS>
10  26  8
10  30  8
11  19  5
12  18  5
13  20  6
14  21  5
29  31  8
29  32  8
31  33  8
32  34  8
33  35  8
34  35  8
7  26  8
7  9  8
9  30  8
$$$$
