514289
  -OEChem-10302200282D
 54 57  0     1  0  0  0  0  0999 V2000
   11.5309    0.1276    0.0000 Br  0  0  0  0  0  0  0  0  0  0  0  0
    5.6116   -2.1657    0.0000 O   0  0  0  0  0  0  0  0  0  0  0  0
    2.5369   -0.3724    0.0000 O   0  0  0  0  0  0  0  0  0  0  0  0
    3.4030   -1.8724    0.0000 O   0  0  0  0  0  0  0  0  0  0  0  0
    6.9473   -0.6771    0.0000 N   0  0  0  0  0  0  0  0  0  0  0  0
    9.0309    0.9936    0.0000 N   0  0  0  0  0  0  0  0  0  0  0  0
    6.9007   -3.3224    0.0000 N   0  0  0  0  0  0  0  0  0  0  0  0
    7.2579    1.8829    0.0000 C   0  0  0  0  0  0  0  0  0  0  0  0
    8.2364    2.0891    0.0000 C   0  0  0  0  0  0  0  0  0  0  0  0
    6.5901    2.6272    0.0000 C   0  0  0  0  0  0  0  0  0  0  0  0
    6.9473    0.9324    0.0000 C   0  0  0  0  0  0  0  0  0  0  0  0
    8.5471    3.0396    0.0000 C   0  0  0  0  0  0  0  0  0  0  0  0
    6.9007    3.5777    0.0000 C   0  0  0  0  0  0  0  0  0  0  0  0
    7.8792    3.7839    0.0000 C   0  0  0  0  0  0  0  0  0  0  0  0
    7.5309    0.1276    0.0000 C   0  0  0  0  0  0  0  0  0  0  0  0
    6.0010    0.6276    0.0000 C   0  0  0  0  0  0  0  0  0  0  0  0
    6.0010   -0.3724    0.0000 C   0  0  0  0  0  0  0  0  0  0  0  0
    7.2579   -1.6276    0.0000 C   0  0  3  0  0  0  0  0  0  0  0  0
    5.1350    1.1276    0.0000 C   0  0  0  0  0  0  0  0  0  0  0  0
    8.5309    0.1276    0.0000 C   0  0  0  0  0  0  0  0  0  0  0  0
    5.1350   -0.8724    0.0000 C   0  0  0  0  0  0  0  0  0  0  0  0
    8.2364   -1.8338    0.0000 C   0  0  0  0  0  0  0  0  0  0  0  0
    4.2690   -0.3724    0.0000 C   0  0  0  0  0  0  0  0  0  0  0  0
    4.2690    0.6276    0.0000 C   0  0  0  0  0  0  0  0  0  0  0  0
    6.5901   -2.3719    0.0000 C   0  0  0  0  0  0  0  0  0  0  0  0
    9.0309   -0.7384    0.0000 C   0  0  0  0  0  0  0  0  0  0  0  0
    3.4030   -0.8724    0.0000 C   0  0  0  0  0  0  0  0  0  0  0  0
   10.0309   -0.7384    0.0000 C   0  0  0  0  0  0  0  0  0  0  0  0
   10.0309    0.9936    0.0000 C   0  0  0  0  0  0  0  0  0  0  0  0
   10.5309    0.1276    0.0000 C   0  0  0  0  0  0  0  0  0  0  0  0
    6.6512    1.7550    0.0000 H   0  0  0  0  0  0  0  0  0  0  0  0
    8.2570    1.4694    0.0000 H   0  0  0  0  0  0  0  0  0  0  0  0
    8.8502    2.0018    0.0000 H   0  0  0  0  0  0  0  0  0  0  0  0
    6.0432    2.9192    0.0000 H   0  0  0  0  0  0  0  0  0  0  0  0
    6.2075    2.1393    0.0000 H   0  0  0  0  0  0  0  0  0  0  0  0
    9.0940    2.7476    0.0000 H   0  0  0  0  0  0  0  0  0  0  0  0
    8.9296    3.5275    0.0000 H   0  0  0  0  0  0  0  0  0  0  0  0
    6.8802    4.1974    0.0000 H   0  0  0  0  0  0  0  0  0  0  0  0
    6.2869    3.6650    0.0000 H   0  0  0  0  0  0  0  0  0  0  0  0
    8.4056    4.1116    0.0000 H   0  0  0  0  0  0  0  0  0  0  0  0
    7.6480    4.3592    0.0000 H   0  0  0  0  0  0  0  0  0  0  0  0
    7.6720   -1.1662    0.0000 H   0  0  0  0  0  0  0  0  0  0  0  0
    5.1350    1.7476    0.0000 H   0  0  0  0  0  0  0  0  0  0  0  0
    5.1350   -1.4924    0.0000 H   0  0  0  0  0  0  0  0  0  0  0  0
    8.1086   -2.4405    0.0000 H   0  0  0  0  0  0  0  0  0  0  0  0
    8.8431   -1.9617    0.0000 H   0  0  0  0  0  0  0  0  0  0  0  0
    8.3643   -1.2272    0.0000 H   0  0  0  0  0  0  0  0  0  0  0  0
    3.7320    0.9376    0.0000 H   0  0  0  0  0  0  0  0  0  0  0  0
    8.7209   -1.2753    0.0000 H   0  0  0  0  0  0  0  0  0  0  0  0
   10.3409   -1.2753    0.0000 H   0  0  0  0  0  0  0  0  0  0  0  0
    6.4867   -3.7839    0.0000 H   0  0  0  0  0  0  0  0  0  0  0  0
    7.5074   -3.4503    0.0000 H   0  0  0  0  0  0  0  0  0  0  0  0
   10.3409    1.5306    0.0000 H   0  0  0  0  0  0  0  0  0  0  0  0
    2.0000   -0.6824    0.0000 H   0  0  0  0  0  0  0  0  0  0  0  0
  1 30  1  0  0  0  0
  2 25  2  0  0  0  0
  3 27  1  0  0  0  0
  3 54  1  0  0  0  0
  4 27  2  0  0  0  0
  5 15  1  0  0  0  0
  5 17  1  0  0  0  0
  5 18  1  0  0  0  0
  6 20  2  0  0  0  0
  6 29  1  0  0  0  0
  7 25  1  0  0  0  0
  7 51  1  0  0  0  0
  7 52  1  0  0  0  0
  8  9  1  0  0  0  0
  8 10  1  0  0  0  0
  8 11  1  0  0  0  0
  8 31  1  0  0  0  0
  9 12  1  0  0  0  0
  9 32  1  0  0  0  0
  9 33  1  0  0  0  0
 10 13  1  0  0  0  0
 10 34  1  0  0  0  0
 10 35  1  0  0  0  0
 11 15  2  0  0  0  0
 11 16  1  0  0  0  0
 12 14  1  0  0  0  0
 12 36  1  0  0  0  0
 12 37  1  0  0  0  0
 13 14  1  0  0  0  0
 13 38  1  0  0  0  0
 13 39  1  0  0  0  0
 14 40  1  0  0  0  0
 14 41  1  0  0  0  0
 15 20  1  0  0  0  0
 16 17  2  0  0  0  0
 16 19  1  0  0  0  0
 17 21  1  0  0  0  0
 18 22  1  0  0  0  0
 18 25  1  0  0  0  0
 18 42  1  0  0  0  0
 19 24  2  0  0  0  0
 19 43  1  0  0  0  0
 20 26  1  0  0  0  0
 21 23  2  0  0  0  0
 21 44  1  0  0  0  0
 22 45  1  0  0  0  0
 22 46  1  0  0  0  0
 22 47  1  0  0  0  0
 23 24  1  0  0  0  0
 23 27  1  0  0  0  0
 24 48  1  0  0  0  0
 26 28  2  0  0  0  0
 26 49  1  0  0  0  0
 28 30  1  0  0  0  0
 28 50  1  0  0  0  0
 29 30  2  0  0  0  0
 29 53  1  0  0  0  0
M  END
> <PUBCHEM_COMPOUND_CID>
514289
> <PUBCHEM_COMPOUND_CANONICALIZED>
1
> <PUBCHEM_CACTVS_COMPLEXITY>
641
> <PUBCHEM_CACTVS_HBOND_ACCEPTOR>
4
> <PUBCHEM_CACTVS_HBOND_DONOR>
2
> <PUBCHEM_CACTVS_ROTATABLE_BOND>
5
> <PUBCHEM_CACTVS_SUBSKEYS>
AAADceB7MAAAEAAAAAAAAAAAAAAAAWAAAAA8YIAAAAAAAFgB/AAAHgBQCAABrSjBngQ+yPNMEgCoAzX3XACCgCA1AiQI2CG4bPgIZvLAlbGUcQhk0AHI25e8yPCOwAAAQAACAACAAACAAAQAAAAAAAAAAA==
> <PUBCHEM_IUPAC_OPENEYE_NAME>
1-(2-amino-1-methyl-2-oxo-ethyl)-2-(5-bromo-2-pyridyl)-3-cyclohexyl-indole-6-carboxylic acid
> <PUBCHEM_IUPAC_CAS_NAME>
1-(1-amino-1-oxopropan-2-yl)-2-(5-bromo-2-pyridinyl)-3-cyclohexyl-6-indolecarboxylic acid
> <PUBCHEM_IUPAC_NAME_MARKUP>
1-(1-amino-1-oxopropan-2-yl)-2-(5-bromopyridin-2-yl)-3-cyclohexylindole-6-carboxylic acid
> <PUBCHEM_IUPAC_NAME>
1-(1-amino-1-oxopropan-2-yl)-2-(5-bromopyridin-2-yl)-3-cyclohexylindole-6-carboxylic acid
> <PUBCHEM_IUPAC_SYSTEMATIC_NAME>
1-(1-azanyl-1-oxidanylidene-propan-2-yl)-2-(5-bromanylpyridin-2-yl)-3-cyclohexyl-indole-6-carboxylic acid
> <PUBCHEM_IUPAC_TRADITIONAL_NAME>
1-(2-amino-2-keto-1-methyl-ethyl)-2-(5-bromo-2-pyridyl)-3-cyclohexyl-indole-6-carboxylic acid
> <PUBCHEM_IUPAC_INCHI>
InChI=1S/C23H24BrN3O3/c1-13(22(25)28)27-19-11-15(23(29)30)7-9-17(19)20(14-5-3-2-4-6-14)21(27)18-10-8-16(24)12-26-18/h7-14H,2-6H2,1H3,(H2,25,28)(H,29,30)
> <PUBCHEM_IUPAC_INCHIKEY>
VMVIUTVSHNBETH-UHFFFAOYSA-N
> <PUBCHEM_XLOGP3_AA>
4.8
> <PUBCHEM_EXACT_MASS>
469.10010
> <PUBCHEM_MOLECULAR_FORMULA>
C23H24BrN3O3
> <PUBCHEM_MOLECULAR_WEIGHT>
470.4
> <PUBCHEM_OPENEYE_CAN_SMILES>
CC(C(=O)N)N1C2=C(C=CC(=C2)C(=O)O)C(=C1C3=NC=C(C=C3)Br)C4CCCCC4
> <PUBCHEM_OPENEYE_ISO_SMILES>
CC(C(=O)N)N1C2=C(C=CC(=C2)C(=O)O)C(=C1C3=NC=C(C=C3)Br)C4CCCCC4
> <PUBCHEM_CACTVS_TPSA>
98.2
> <PUBCHEM_MONOISOTOPIC_WEIGHT>
469.10010
> <PUBCHEM_TOTAL_CHARGE>
0
> <PUBCHEM_HEAVY_ATOM_COUNT>
30
> <PUBCHEM_ATOM_DEF_STEREO_COUNT>
0
> <PUBCHEM_ATOM_UDEF_STEREO_COUNT>
1
> <PUBCHEM_BOND_DEF_STEREO_COUNT>
0
> <PUBCHEM_BOND_UDEF_STEREO_COUNT>
0
> <PUBCHEM_ISOTOPIC_ATOM_COUNT>
0
> <PUBCHEM_COMPONENT_COUNT>
1
> <PUBCHEM_CACTVS_TAUTO_COUNT>
-1
> <PUBCHEM_COORDINATE_TYPE>
1
5
255
> <PUBCHEM_BONDANNOTATIONS>
11  15  8
11  16  8
16  17  8
16  19  8
17  21  8
18  22  3
19  24  8
20  26  8
21  23  8
23  24  8
26  28  8
28  30  8
29  30  8
5  15  8
5  17  8
6  20  8
6  29  8
$$$$
