514210
  -OEChem-10302200282D
103102  0     1  0  0  0  0  0999 V2000
    6.3301   -4.7500    0.0000 P   0  0  3  0  0  0  0  0  0  0  0  0
    8.9282   -3.2500    0.0000 O   0  0  0  0  0  0  0  0  0  0  0  0
    5.4641   -5.2500    0.0000 O   0  0  0  0  0  0  0  0  0  0  0  0
    7.1962   -4.2500    0.0000 O   0  0  0  0  0  0  0  0  0  0  0  0
    5.8301   -3.8840    0.0000 O   0  0  0  0  0  0  0  0  0  0  0  0
   11.5263   -5.7500    0.0000 O   0  0  0  0  0  0  0  0  0  0  0  0
    6.8301   -5.6160    0.0000 O   0  0  0  0  0  0  0  0  0  0  0  0
    2.8660   -4.7500    0.0000 N   0  3  0  0  0  0  0  0  0  0  0  0
   10.6603   -4.2500    0.0000 N   0  0  0  0  0  0  0  0  0  0  0  0
   11.5263    0.2500    0.0000 C   0  0  0  0  0  0  0  0  0  0  0  0
   11.5263    1.2500    0.0000 C   0  0  0  0  0  0  0  0  0  0  0  0
   10.6603   -0.2500    0.0000 C   0  0  0  0  0  0  0  0  0  0  0  0
   12.3923    1.7500    0.0000 C   0  0  0  0  0  0  0  0  0  0  0  0
    3.7320   -5.2500    0.0000 C   0  0  0  0  0  0  0  0  0  0  0  0
   10.6603   -1.2500    0.0000 C   0  0  0  0  0  0  0  0  0  0  0  0
   12.3923    2.7500    0.0000 C   0  0  0  0  0  0  0  0  0  0  0  0
    9.7942   -1.7500    0.0000 C   0  0  0  0  0  0  0  0  0  0  0  0
   13.2583    3.2500    0.0000 C   0  0  0  0  0  0  0  0  0  0  0  0
    2.0000   -4.2500    0.0000 C   0  0  0  0  0  0  0  0  0  0  0  0
    2.3660   -5.6160    0.0000 C   0  0  0  0  0  0  0  0  0  0  0  0
    3.3660   -3.8840    0.0000 C   0  0  0  0  0  0  0  0  0  0  0  0
    4.5981   -4.7500    0.0000 C   0  0  0  0  0  0  0  0  0  0  0  0
    8.9282   -4.2500    0.0000 C   0  0  3  0  0  0  0  0  0  0  0  0
    9.7942   -2.7500    0.0000 C   0  0  0  0  0  0  0  0  0  0  0  0
   13.2583    4.2500    0.0000 C   0  0  0  0  0  0  0  0  0  0  0  0
   14.9904   -4.7500    0.0000 C   0  0  0  0  0  0  0  0  0  0  0  0
   14.1244   -4.2500    0.0000 C   0  0  0  0  0  0  0  0  0  0  0  0
   15.8564   -4.2500    0.0000 C   0  0  0  0  0  0  0  0  0  0  0  0
   13.2583   -4.7500    0.0000 C   0  0  0  0  0  0  0  0  0  0  0  0
   16.7224   -4.7500    0.0000 C   0  0  0  0  0  0  0  0  0  0  0  0
    9.7942   -4.7500    0.0000 C   0  0  0  0  0  0  0  0  0  0  0  0
    8.0622   -4.7500    0.0000 C   0  0  0  0  0  0  0  0  0  0  0  0
   12.3923   -4.2500    0.0000 C   0  0  0  0  0  0  0  0  0  0  0  0
   14.1244    4.7500    0.0000 C   0  0  0  0  0  0  0  0  0  0  0  0
   17.5885   -4.2500    0.0000 C   0  0  0  0  0  0  0  0  0  0  0  0
   11.5263   -4.7500    0.0000 C   0  0  0  0  0  0  0  0  0  0  0  0
   18.4545   -4.7500    0.0000 C   0  0  0  0  0  0  0  0  0  0  0  0
   14.1244    5.7500    0.0000 C   0  0  0  0  0  0  0  0  0  0  0  0
   19.3205   -4.2500    0.0000 C   0  0  0  0  0  0  0  0  0  0  0  0
   11.7383   -0.3326    0.0000 H   0  0  0  0  0  0  0  0  0  0  0  0
   12.1369    0.3577    0.0000 H   0  0  0  0  0  0  0  0  0  0  0  0
   11.3142    1.8326    0.0000 H   0  0  0  0  0  0  0  0  0  0  0  0
   10.9157    1.1423    0.0000 H   0  0  0  0  0  0  0  0  0  0  0  0
   10.4482    0.3326    0.0000 H   0  0  0  0  0  0  0  0  0  0  0  0
   10.0497   -0.3577    0.0000 H   0  0  0  0  0  0  0  0  0  0  0  0
   12.6044    1.1674    0.0000 H   0  0  0  0  0  0  0  0  0  0  0  0
   13.0029    1.8577    0.0000 H   0  0  0  0  0  0  0  0  0  0  0  0
    3.3335   -5.7250    0.0000 H   0  0  0  0  0  0  0  0  0  0  0  0
    4.1306   -5.7250    0.0000 H   0  0  0  0  0  0  0  0  0  0  0  0
   10.8723   -1.8326    0.0000 H   0  0  0  0  0  0  0  0  0  0  0  0
   11.2708   -1.1423    0.0000 H   0  0  0  0  0  0  0  0  0  0  0  0
   12.1803    3.3326    0.0000 H   0  0  0  0  0  0  0  0  0  0  0  0
   11.7817    2.6423    0.0000 H   0  0  0  0  0  0  0  0  0  0  0  0
    9.5822   -1.1674    0.0000 H   0  0  0  0  0  0  0  0  0  0  0  0
    9.1836   -1.8577    0.0000 H   0  0  0  0  0  0  0  0  0  0  0  0
   13.4704    2.6674    0.0000 H   0  0  0  0  0  0  0  0  0  0  0  0
   13.8689    3.3577    0.0000 H   0  0  0  0  0  0  0  0  0  0  0  0
    2.3100   -3.7131    0.0000 H   0  0  0  0  0  0  0  0  0  0  0  0
    1.4631   -3.9400    0.0000 H   0  0  0  0  0  0  0  0  0  0  0  0
    1.6900   -4.7869    0.0000 H   0  0  0  0  0  0  0  0  0  0  0  0
    1.8291   -5.3060    0.0000 H   0  0  0  0  0  0  0  0  0  0  0  0
    2.0560   -6.1530    0.0000 H   0  0  0  0  0  0  0  0  0  0  0  0
    2.9030   -5.9260    0.0000 H   0  0  0  0  0  0  0  0  0  0  0  0
    3.9030   -4.1940    0.0000 H   0  0  0  0  0  0  0  0  0  0  0  0
    3.6760   -3.3470    0.0000 H   0  0  0  0  0  0  0  0  0  0  0  0
    2.8291   -3.5740    0.0000 H   0  0  0  0  0  0  0  0  0  0  0  0
    4.9966   -4.2750    0.0000 H   0  0  0  0  0  0  0  0  0  0  0  0
    4.1996   -4.2750    0.0000 H   0  0  0  0  0  0  0  0  0  0  0  0
    9.4651   -3.9400    0.0000 H   0  0  0  0  0  0  0  0  0  0  0  0
   10.0063   -3.3326    0.0000 H   0  0  0  0  0  0  0  0  0  0  0  0
   10.4048   -2.6423    0.0000 H   0  0  0  0  0  0  0  0  0  0  0  0
   14.5919   -5.2250    0.0000 H   0  0  0  0  0  0  0  0  0  0  0  0
   15.3889   -5.2250    0.0000 H   0  0  0  0  0  0  0  0  0  0  0  0
   13.0463    4.8326    0.0000 H   0  0  0  0  0  0  0  0  0  0  0  0
   12.6477    4.1423    0.0000 H   0  0  0  0  0  0  0  0  0  0  0  0
   14.5229   -3.7750    0.0000 H   0  0  0  0  0  0  0  0  0  0  0  0
   13.7258   -3.7750    0.0000 H   0  0  0  0  0  0  0  0  0  0  0  0
   16.2549   -3.7750    0.0000 H   0  0  0  0  0  0  0  0  0  0  0  0
   15.4579   -3.7750    0.0000 H   0  0  0  0  0  0  0  0  0  0  0  0
   12.8598   -5.2250    0.0000 H   0  0  0  0  0  0  0  0  0  0  0  0
   13.6569   -5.2250    0.0000 H   0  0  0  0  0  0  0  0  0  0  0  0
   16.3239   -5.2250    0.0000 H   0  0  0  0  0  0  0  0  0  0  0  0
   17.1210   -5.2250    0.0000 H   0  0  0  0  0  0  0  0  0  0  0  0
    9.3957   -5.2250    0.0000 H   0  0  0  0  0  0  0  0  0  0  0  0
   10.1928   -5.2250    0.0000 H   0  0  0  0  0  0  0  0  0  0  0  0
    7.6636   -5.2250    0.0000 H   0  0  0  0  0  0  0  0  0  0  0  0
    8.4607   -5.2250    0.0000 H   0  0  0  0  0  0  0  0  0  0  0  0
   12.7908   -3.7750    0.0000 H   0  0  0  0  0  0  0  0  0  0  0  0
   11.9938   -3.7750    0.0000 H   0  0  0  0  0  0  0  0  0  0  0  0
   17.9870   -3.7750    0.0000 H   0  0  0  0  0  0  0  0  0  0  0  0
   17.1899   -3.7750    0.0000 H   0  0  0  0  0  0  0  0  0  0  0  0
   14.3364    4.1674    0.0000 H   0  0  0  0  0  0  0  0  0  0  0  0
   14.7349    4.8577    0.0000 H   0  0  0  0  0  0  0  0  0  0  0  0
   10.6603   -3.6300    0.0000 H   0  0  0  0  0  0  0  0  0  0  0  0
   18.0560   -5.2250    0.0000 H   0  0  0  0  0  0  0  0  0  0  0  0
   18.8530   -5.2250    0.0000 H   0  0  0  0  0  0  0  0  0  0  0  0
   14.7444    5.7500    0.0000 H   0  0  0  0  0  0  0  0  0  0  0  0
   14.1244    6.3700    0.0000 H   0  0  0  0  0  0  0  0  0  0  0  0
   13.5044    5.7500    0.0000 H   0  0  0  0  0  0  0  0  0  0  0  0
   19.6305   -4.7869    0.0000 H   0  0  0  0  0  0  0  0  0  0  0  0
   19.8574   -3.9400    0.0000 H   0  0  0  0  0  0  0  0  0  0  0  0
   19.0105   -3.7131    0.0000 H   0  0  0  0  0  0  0  0  0  0  0  0
    6.1401   -3.3470    0.0000 H   0  0  0  0  0  0  0  0  0  0  0  0
  1  3  1  0  0  0  0
  1  4  1  0  0  0  0
  1  5  1  0  0  0  0
  1  7  2  0  0  0  0
  2 23  1  0  0  0  0
  2 24  1  0  0  0  0
  3 22  1  0  0  0  0
  4 32  1  0  0  0  0
  5103  1  0  0  0  0
  6 36  2  0  0  0  0
  8 14  1  0  0  0  0
  8 19  1  0  0  0  0
  8 20  1  0  0  0  0
  8 21  1  0  0  0  0
  9 31  1  0  0  0  0
  9 36  1  0  0  0  0
  9 94  1  0  0  0  0
 10 11  1  0  0  0  0
 10 12  1  0  0  0  0
 10 40  1  0  0  0  0
 10 41  1  0  0  0  0
 11 13  1  0  0  0  0
 11 42  1  0  0  0  0
 11 43  1  0  0  0  0
 12 15  1  0  0  0  0
 12 44  1  0  0  0  0
 12 45  1  0  0  0  0
 13 16  1  0  0  0  0
 13 46  1  0  0  0  0
 13 47  1  0  0  0  0
 14 22  1  0  0  0  0
 14 48  1  0  0  0  0
 14 49  1  0  0  0  0
 15 17  1  0  0  0  0
 15 50  1  0  0  0  0
 15 51  1  0  0  0  0
 16 18  1  0  0  0  0
 16 52  1  0  0  0  0
 16 53  1  0  0  0  0
 17 24  1  0  0  0  0
 17 54  1  0  0  0  0
 17 55  1  0  0  0  0
 18 25  1  0  0  0  0
 18 56  1  0  0  0  0
 18 57  1  0  0  0  0
 19 58  1  0  0  0  0
 19 59  1  0  0  0  0
 19 60  1  0  0  0  0
 20 61  1  0  0  0  0
 20 62  1  0  0  0  0
 20 63  1  0  0  0  0
 21 64  1  0  0  0  0
 21 65  1  0  0  0  0
 21 66  1  0  0  0  0
 22 67  1  0  0  0  0
 22 68  1  0  0  0  0
 23 31  1  0  0  0  0
 23 32  1  0  0  0  0
 23 69  1  0  0  0  0
 24 70  1  0  0  0  0
 24 71  1  0  0  0  0
 25 34  1  0  0  0  0
 25 74  1  0  0  0  0
 25 75  1  0  0  0  0
 26 27  1  0  0  0  0
 26 28  1  0  0  0  0
 26 72  1  0  0  0  0
 26 73  1  0  0  0  0
 27 29  1  0  0  0  0
 27 76  1  0  0  0  0
 27 77  1  0  0  0  0
 28 30  1  0  0  0  0
 28 78  1  0  0  0  0
 28 79  1  0  0  0  0
 29 33  1  0  0  0  0
 29 80  1  0  0  0  0
 29 81  1  0  0  0  0
 30 35  1  0  0  0  0
 30 82  1  0  0  0  0
 30 83  1  0  0  0  0
 31 84  1  0  0  0  0
 31 85  1  0  0  0  0
 32 86  1  0  0  0  0
 32 87  1  0  0  0  0
 33 36  1  0  0  0  0
 33 88  1  0  0  0  0
 33 89  1  0  0  0  0
 34 38  1  0  0  0  0
 34 92  1  0  0  0  0
 34 93  1  0  0  0  0
 35 37  1  0  0  0  0
 35 90  1  0  0  0  0
 35 91  1  0  0  0  0
 37 39  1  0  0  0  0
 37 95  1  0  0  0  0
 37 96  1  0  0  0  0
 38 97  1  0  0  0  0
 38 98  1  0  0  0  0
 38 99  1  0  0  0  0
 39100  1  0  0  0  0
 39101  1  0  0  0  0
 39102  1  0  0  0  0
M  CHG  1   8   1
M  END
> <PUBCHEM_COMPOUND_CID>
514210
> <PUBCHEM_COMPOUND_CANONICALIZED>
1
> <PUBCHEM_CACTVS_COMPLEXITY>
615
> <PUBCHEM_CACTVS_HBOND_ACCEPTOR>
6
> <PUBCHEM_CACTVS_HBOND_DONOR>
2
> <PUBCHEM_CACTVS_ROTATABLE_BOND>
29
> <PUBCHEM_CACTVS_SUBSKEYS>
AAADcfB7OAIAAAAAAAAAAAAAAAAAAAAAAAAAAAAAAAAAAAAAAAAAHgAQCCAACBThgAYCAAPABRAIQAEQEIAAAAAAAAAAAIEIAAADABIAgAAHAAAGFgCSAAGYyKCAAAAAAAAAAAAAAAAAAAAAAAAAAAAAAA==
> <PUBCHEM_IUPAC_OPENEYE_NAME>
2-[[3-(decanoylamino)-2-dodecoxy-propoxy]-hydroxy-phosphoryl]oxyethyl-trimethyl-ammonium
> <PUBCHEM_IUPAC_CAS_NAME>
2-[[2-dodecoxy-3-(1-oxodecylamino)propoxy]-hydroxyphosphoryl]oxyethyl-trimethylammonium
> <PUBCHEM_IUPAC_NAME_MARKUP>
2-[[3-(decanoylamino)-2-dodecoxypropoxy]-hydroxyphosphoryl]oxyethyl-trimethylazanium
> <PUBCHEM_IUPAC_NAME>
2-[[3-(decanoylamino)-2-dodecoxypropoxy]-hydroxyphosphoryl]oxyethyl-trimethylazanium
> <PUBCHEM_IUPAC_SYSTEMATIC_NAME>
2-[[3-(decanoylamino)-2-dodecoxy-propoxy]-oxidanyl-phosphoryl]oxyethyl-trimethyl-azanium
> <PUBCHEM_IUPAC_TRADITIONAL_NAME>
2-[[3-(caprylamino)-2-lauryloxy-propoxy]-hydroxy-phosphoryl]oxyethyl-trimethyl-ammonium
> <PUBCHEM_IUPAC_INCHI>
InChI=1S/C30H63N2O6P/c1-6-8-10-12-14-15-16-18-20-22-25-36-29(28-38-39(34,35)37-26-24-32(3,4)5)27-31-30(33)23-21-19-17-13-11-9-7-2/h29H,6-28H2,1-5H3,(H-,31,33,34,35)/p+1
> <PUBCHEM_IUPAC_INCHIKEY>
BTCLKQOXONZJCM-UHFFFAOYSA-O
> <PUBCHEM_XLOGP3_AA>
7.9
> <PUBCHEM_EXACT_MASS>
579.45019976
> <PUBCHEM_MOLECULAR_FORMULA>
C30H64N2O6P+
> <PUBCHEM_MOLECULAR_WEIGHT>
579.8
> <PUBCHEM_OPENEYE_CAN_SMILES>
CCCCCCCCCCCCOC(CNC(=O)CCCCCCCCC)COP(=O)(O)OCC[N+](C)(C)C
> <PUBCHEM_OPENEYE_ISO_SMILES>
CCCCCCCCCCCCOC(CNC(=O)CCCCCCCCC)COP(=O)(O)OCC[N+](C)(C)C
> <PUBCHEM_CACTVS_TPSA>
94.1
> <PUBCHEM_MONOISOTOPIC_WEIGHT>
579.45019976
> <PUBCHEM_TOTAL_CHARGE>
1
> <PUBCHEM_HEAVY_ATOM_COUNT>
39
> <PUBCHEM_ATOM_DEF_STEREO_COUNT>
0
> <PUBCHEM_ATOM_UDEF_STEREO_COUNT>
1
> <PUBCHEM_BOND_DEF_STEREO_COUNT>
0
> <PUBCHEM_BOND_UDEF_STEREO_COUNT>
0
> <PUBCHEM_ISOTOPIC_ATOM_COUNT>
0
> <PUBCHEM_COMPONENT_COUNT>
1
> <PUBCHEM_CACTVS_TAUTO_COUNT>
-1
> <PUBCHEM_COORDINATE_TYPE>
1
5
255
> <PUBCHEM_BONDANNOTATIONS>
23  31  3
$$$$
