514225
  -OEChem-10302200282D
 63 66  0     1  0  0  0  0  0999 V2000
    3.1756   -0.9129    0.0000 O   0  0  0  0  0  0  0  0  0  0  0  0
    7.0255   -0.0945    0.0000 N   0  0  0  0  0  0  0  0  0  0  0  0
    4.5768   -1.9309    0.0000 N   0  0  0  0  0  0  0  0  0  0  0  0
    6.1595   -1.5945    0.0000 C   0  0  1  0  0  0  0  0  0  0  0  0
    6.0550   -2.5891    0.0000 C   0  0  2  0  0  0  0  0  0  0  0  0
    7.0255   -1.0945    0.0000 C   0  0  0  0  0  0  0  0  0  0  0  0
    5.2460   -1.1878    0.0000 C   0  0  0  0  0  0  0  0  0  0  0  0
    5.0768   -2.7970    0.0000 C   0  0  0  0  0  0  0  0  0  0  0  0
    6.1595    0.4055    0.0000 C   0  0  0  0  0  0  0  0  0  0  0  0
    7.8916    0.4055    0.0000 C   0  0  0  0  0  0  0  0  0  0  0  0
    7.0255    1.9055    0.0000 C   0  0  0  0  0  0  0  0  0  0  0  0
    6.1595    1.4055    0.0000 C   0  0  0  0  0  0  0  0  0  0  0  0
    7.8916    1.4055    0.0000 C   0  0  0  0  0  0  0  0  0  0  0  0
    6.7981   -3.2582    0.0000 C   0  0  0  0  0  0  0  0  0  0  0  0
    3.5823   -1.8264    0.0000 C   0  0  0  0  0  0  0  0  0  0  0  0
    7.0255    2.9055    0.0000 C   0  0  0  0  0  0  0  0  0  0  0  0
    2.9945   -2.6354    0.0000 C   0  0  0  0  0  0  0  0  0  0  0  0
    6.5902   -4.2363    0.0000 C   0  0  0  0  0  0  0  0  0  0  0  0
    7.7492   -2.9492    0.0000 C   0  0  0  0  0  0  0  0  0  0  0  0
    6.1595    3.4055    0.0000 C   0  0  0  0  0  0  0  0  0  0  0  0
    7.8916    3.4055    0.0000 C   0  0  0  0  0  0  0  0  0  0  0  0
    7.3334   -4.9055    0.0000 C   0  0  0  0  0  0  0  0  0  0  0  0
    8.4923   -3.6183    0.0000 C   0  0  0  0  0  0  0  0  0  0  0  0
    2.0000   -2.5309    0.0000 C   0  0  0  0  0  0  0  0  0  0  0  0
    3.4013   -3.5490    0.0000 C   0  0  0  0  0  0  0  0  0  0  0  0
    8.2844   -4.5964    0.0000 C   0  0  0  0  0  0  0  0  0  0  0  0
    6.1595    4.4055    0.0000 C   0  0  0  0  0  0  0  0  0  0  0  0
    7.8916    4.4055    0.0000 C   0  0  0  0  0  0  0  0  0  0  0  0
    7.0255    4.9055    0.0000 C   0  0  0  0  0  0  0  0  0  0  0  0
    6.6795   -1.9322    0.0000 H   0  0  0  0  0  0  0  0  0  0  0  0
    5.8945   -3.1879    0.0000 H   0  0  0  0  0  0  0  0  0  0  0  0
    7.2376   -1.6771    0.0000 H   0  0  0  0  0  0  0  0  0  0  0  0
    7.6361   -0.9869    0.0000 H   0  0  0  0  0  0  0  0  0  0  0  0
    5.5560   -0.6509    0.0000 H   0  0  0  0  0  0  0  0  0  0  0  0
    4.7444   -0.8234    0.0000 H   0  0  0  0  0  0  0  0  0  0  0  0
    4.5104   -3.0491    0.0000 H   0  0  0  0  0  0  0  0  0  0  0  0
    5.2684   -3.3866    0.0000 H   0  0  0  0  0  0  0  0  0  0  0  0
    5.5489    0.5131    0.0000 H   0  0  0  0  0  0  0  0  0  0  0  0
    5.9474   -0.1771    0.0000 H   0  0  0  0  0  0  0  0  0  0  0  0
    8.1036   -0.1771    0.0000 H   0  0  0  0  0  0  0  0  0  0  0  0
    8.5021    0.5131    0.0000 H   0  0  0  0  0  0  0  0  0  0  0  0
    7.5625    2.2155    0.0000 H   0  0  0  0  0  0  0  0  0  0  0  0
    5.9474    1.9881    0.0000 H   0  0  0  0  0  0  0  0  0  0  0  0
    5.5489    1.2978    0.0000 H   0  0  0  0  0  0  0  0  0  0  0  0
    8.5021    1.2978    0.0000 H   0  0  0  0  0  0  0  0  0  0  0  0
    8.1036    1.9881    0.0000 H   0  0  0  0  0  0  0  0  0  0  0  0
    3.6111   -2.7002    0.0000 H   0  0  0  0  0  0  0  0  0  0  0  0
    6.0006   -4.4279    0.0000 H   0  0  0  0  0  0  0  0  0  0  0  0
    7.8781   -2.3427    0.0000 H   0  0  0  0  0  0  0  0  0  0  0  0
    5.6226    3.0955    0.0000 H   0  0  0  0  0  0  0  0  0  0  0  0
    8.4285    3.0955    0.0000 H   0  0  0  0  0  0  0  0  0  0  0  0
    7.2044   -5.5119    0.0000 H   0  0  0  0  0  0  0  0  0  0  0  0
    9.0820   -3.4267    0.0000 H   0  0  0  0  0  0  0  0  0  0  0  0
    2.0648   -1.9143    0.0000 H   0  0  0  0  0  0  0  0  0  0  0  0
    1.3834   -2.4661    0.0000 H   0  0  0  0  0  0  0  0  0  0  0  0
    1.9352   -3.1475    0.0000 H   0  0  0  0  0  0  0  0  0  0  0  0
    2.8349   -3.8012    0.0000 H   0  0  0  0  0  0  0  0  0  0  0  0
    3.6534   -4.1154    0.0000 H   0  0  0  0  0  0  0  0  0  0  0  0
    3.9677   -3.2968    0.0000 H   0  0  0  0  0  0  0  0  0  0  0  0
    8.7452   -5.0113    0.0000 H   0  0  0  0  0  0  0  0  0  0  0  0
    5.6226    4.7155    0.0000 H   0  0  0  0  0  0  0  0  0  0  0  0
    8.4285    4.7155    0.0000 H   0  0  0  0  0  0  0  0  0  0  0  0
    7.0255    5.5255    0.0000 H   0  0  0  0  0  0  0  0  0  0  0  0
  1 15  2  0  0  0  0
  2  6  1  0  0  0  0
  2  9  1  0  0  0  0
  2 10  1  0  0  0  0
  3  7  1  0  0  0  0
  3  8  1  0  0  0  0
  3 15  1  0  0  0  0
  4  5  1  0  0  0  0
  4  6  1  6  0  0  0
  4  7  1  0  0  0  0
  4 30  1  0  0  0  0
  5  8  1  0  0  0  0
  5 14  1  1  0  0  0
  5 31  1  0  0  0  0
  6 32  1  0  0  0  0
  6 33  1  0  0  0  0
  7 34  1  0  0  0  0
  7 35  1  0  0  0  0
  8 36  1  0  0  0  0
  8 37  1  0  0  0  0
  9 12  1  0  0  0  0
  9 38  1  0  0  0  0
  9 39  1  0  0  0  0
 10 13  1  0  0  0  0
 10 40  1  0  0  0  0
 10 41  1  0  0  0  0
 11 12  1  0  0  0  0
 11 13  1  0  0  0  0
 11 16  1  0  0  0  0
 11 42  1  0  0  0  0
 12 43  1  0  0  0  0
 12 44  1  0  0  0  0
 13 45  1  0  0  0  0
 13 46  1  0  0  0  0
 14 18  2  0  0  0  0
 14 19  1  0  0  0  0
 15 17  1  0  0  0  0
 16 20  2  0  0  0  0
 16 21  1  0  0  0  0
 17 24  1  0  0  0  0
 17 25  1  0  0  0  0
 17 47  1  0  0  0  0
 18 22  1  0  0  0  0
 18 48  1  0  0  0  0
 19 23  2  0  0  0  0
 19 49  1  0  0  0  0
 20 27  1  0  0  0  0
 20 50  1  0  0  0  0
 21 28  2  0  0  0  0
 21 51  1  0  0  0  0
 22 26  2  0  0  0  0
 22 52  1  0  0  0  0
 23 26  1  0  0  0  0
 23 53  1  0  0  0  0
 24 54  1  0  0  0  0
 24 55  1  0  0  0  0
 24 56  1  0  0  0  0
 25 57  1  0  0  0  0
 25 58  1  0  0  0  0
 25 59  1  0  0  0  0
 26 60  1  0  0  0  0
 27 29  2  0  0  0  0
 27 61  1  0  0  0  0
 28 29  1  0  0  0  0
 28 62  1  0  0  0  0
 29 63  1  0  0  0  0
M  END
> <PUBCHEM_COMPOUND_CID>
514225
> <PUBCHEM_COMPOUND_CANONICALIZED>
1
> <PUBCHEM_CACTVS_COMPLEXITY>
513
> <PUBCHEM_CACTVS_HBOND_ACCEPTOR>
2
> <PUBCHEM_CACTVS_HBOND_DONOR>
0
> <PUBCHEM_CACTVS_ROTATABLE_BOND>
5
> <PUBCHEM_CACTVS_SUBSKEYS>
AAADcfB7IAAAAAAAAAAAAAAAAAAAAWAAAAA8YIAAAAAAAAABQAAAHgAAAAAADQDBmAQyAIMAAACIAiFSEAACAAAgAAAIiAEIAIgIICKA0RGEIAAghgCIiAcQgMAOgAAAAAAAAAAAAAAAAAAAAAAAAAAAAA==
> <PUBCHEM_IUPAC_OPENEYE_NAME>
2-methyl-1-[(3S,4S)-3-phenyl-4-[(4-phenyl-1-piperidyl)methyl]pyrrolidin-1-yl]propan-1-one
> <PUBCHEM_IUPAC_CAS_NAME>
2-methyl-1-[(3S,4S)-3-phenyl-4-[(4-phenyl-1-piperidinyl)methyl]-1-pyrrolidinyl]-1-propanone
> <PUBCHEM_IUPAC_NAME_MARKUP>
2-methyl-1-[(3<I>S</I>,4<I>S</I>)-3-phenyl-4-[(4-phenylpiperidin-1-yl)methyl]pyrrolidin-1-yl]propan-1-one
> <PUBCHEM_IUPAC_NAME>
2-methyl-1-[(3S,4S)-3-phenyl-4-[(4-phenylpiperidin-1-yl)methyl]pyrrolidin-1-yl]propan-1-one
> <PUBCHEM_IUPAC_SYSTEMATIC_NAME>
2-methyl-1-[(3S,4S)-3-phenyl-4-[(4-phenylpiperidin-1-yl)methyl]pyrrolidin-1-yl]propan-1-one
> <PUBCHEM_IUPAC_TRADITIONAL_NAME>
2-methyl-1-[(3S,4S)-3-phenyl-4-[(4-phenylpiperidino)methyl]pyrrolidino]propan-1-one
> <PUBCHEM_IUPAC_INCHI>
InChI=1S/C26H34N2O/c1-20(2)26(29)28-18-24(25(19-28)23-11-7-4-8-12-23)17-27-15-13-22(14-16-27)21-9-5-3-6-10-21/h3-12,20,22,24-25H,13-19H2,1-2H3/t24-,25+/m0/s1
> <PUBCHEM_IUPAC_INCHIKEY>
YNQMPJFHSIAFTF-LOSJGSFVSA-N
> <PUBCHEM_XLOGP3_AA>
4.8
> <PUBCHEM_EXACT_MASS>
390.267113712
> <PUBCHEM_MOLECULAR_FORMULA>
C26H34N2O
> <PUBCHEM_MOLECULAR_WEIGHT>
390.6
> <PUBCHEM_OPENEYE_CAN_SMILES>
CC(C)C(=O)N1CC(C(C1)C2=CC=CC=C2)CN3CCC(CC3)C4=CC=CC=C4
> <PUBCHEM_OPENEYE_ISO_SMILES>
CC(C)C(=O)N1C[C@@H]([C@H](C1)C2=CC=CC=C2)CN3CCC(CC3)C4=CC=CC=C4
> <PUBCHEM_CACTVS_TPSA>
23.6
> <PUBCHEM_MONOISOTOPIC_WEIGHT>
390.267113712
> <PUBCHEM_TOTAL_CHARGE>
0
> <PUBCHEM_HEAVY_ATOM_COUNT>
29
> <PUBCHEM_ATOM_DEF_STEREO_COUNT>
2
> <PUBCHEM_ATOM_UDEF_STEREO_COUNT>
0
> <PUBCHEM_BOND_DEF_STEREO_COUNT>
0
> <PUBCHEM_BOND_UDEF_STEREO_COUNT>
0
> <PUBCHEM_ISOTOPIC_ATOM_COUNT>
0
> <PUBCHEM_COMPONENT_COUNT>
1
> <PUBCHEM_CACTVS_TAUTO_COUNT>
-1
> <PUBCHEM_COORDINATE_TYPE>
1
5
255
> <PUBCHEM_BONDANNOTATIONS>
14  18  8
14  19  8
16  20  8
16  21  8
18  22  8
19  23  8
20  27  8
21  28  8
22  26  8
23  26  8
27  29  8
28  29  8
4  6  6
5  14  5
$$$$
