514238
  -OEChem-10302200282D
102105  0     1  0  0  0  0  0999 V2000
    9.6137   -5.9471    0.0000 S   0  0  0  0  0  0  0  0  0  0  0  0
    9.7026    2.5810    0.0000 F   0  0  0  0  0  0  0  0  0  0  0  0
    8.8366    4.0810    0.0000 F   0  0  0  0  0  0  0  0  0  0  0  0
    6.6137   -0.7509    0.0000 O   0  0  0  0  0  0  0  0  0  0  0  0
    7.1045    1.0810    0.0000 O   0  0  0  0  0  0  0  0  0  0  0  0
    4.1137   -3.3490    0.0000 O   0  0  0  0  0  0  0  0  0  0  0  0
    7.9706    4.5810    0.0000 O   0  0  0  0  0  0  0  0  0  0  0  0
    5.3725    4.0810    0.0000 O   0  0  0  0  0  0  0  0  0  0  0  0
    6.6137   -5.9471    0.0000 O   0  0  0  0  0  0  0  0  0  0  0  0
    9.6137   -6.9471    0.0000 O   0  0  0  0  0  0  0  0  0  0  0  0
    9.6137   -4.9471    0.0000 O   0  0  0  0  0  0  0  0  0  0  0  0
    5.1137    0.1151    0.0000 N   0  0  0  0  0  0  0  0  0  0  0  0
    6.2385    2.5810    0.0000 N   0  0  0  0  0  0  0  0  0  0  0  0
    5.6137   -2.4830    0.0000 N   0  0  0  0  0  0  0  0  0  0  0  0
    6.6137   -4.2150    0.0000 N   0  0  0  0  0  0  0  0  0  0  0  0
    6.2385    5.5810    0.0000 N   0  0  0  0  0  0  0  0  0  0  0  0
    8.6137   -5.9471    0.0000 N   0  0  0  0  0  0  0  0  0  0  0  0
    3.9735    1.5899    0.0000 C   0  0  3  0  0  0  0  0  0  0  0  0
    3.7147    0.6239    0.0000 C   0  0  3  0  0  0  0  0  0  0  0  0
    3.2369    2.5725    0.0000 C   0  0  0  0  0  0  0  0  0  0  0  0
    5.3725    1.0810    0.0000 C   0  0  1  0  0  0  0  0  0  0  0  0
    2.0000    0.9716    0.0000 C   0  0  0  0  0  0  0  0  0  0  0  0
    2.3420    0.0319    0.0000 C   0  0  0  0  0  0  0  0  0  0  0  0
    5.6137   -0.7509    0.0000 C   0  0  0  0  0  0  0  0  0  0  0  0
    6.2385    1.5810    0.0000 C   0  0  0  0  0  0  0  0  0  0  0  0
    5.1137   -1.6169    0.0000 C   0  0  2  0  0  0  0  0  0  0  0  0
    4.1137   -1.6169    0.0000 C   0  0  0  0  0  0  0  0  0  0  0  0
    7.1045    3.0810    0.0000 C   0  0  3  0  0  0  0  0  0  0  0  0
    3.1137   -1.6169    0.0000 C   0  0  0  0  0  0  0  0  0  0  0  0
    4.1137   -2.6169    0.0000 C   0  0  0  0  0  0  0  0  0  0  0  0
    4.1137   -0.6169    0.0000 C   0  0  0  0  0  0  0  0  0  0  0  0
    5.1137   -3.3490    0.0000 C   0  0  0  0  0  0  0  0  0  0  0  0
    5.6137   -4.2150    0.0000 C   0  0  2  0  0  0  0  0  0  0  0  0
    5.1137   -5.0810    0.0000 C   0  0  0  0  0  0  0  0  0  0  0  0
    7.9706    2.5810    0.0000 C   0  0  0  0  0  0  0  0  0  0  0  0
    4.1137   -5.0810    0.0000 C   0  0  0  0  0  0  0  0  0  0  0  0
    5.6137   -5.9471    0.0000 C   0  0  0  0  0  0  0  0  0  0  0  0
    7.1045    4.0810    0.0000 C   0  0  0  0  0  0  0  0  0  0  0  0
    3.6137   -5.9471    0.0000 C   0  0  0  0  0  0  0  0  0  0  0  0
    5.1137   -6.8131    0.0000 C   0  0  0  0  0  0  0  0  0  0  0  0
    4.1137   -6.8131    0.0000 C   0  0  0  0  0  0  0  0  0  0  0  0
    5.3725    6.0810    0.0000 C   0  0  0  0  0  0  0  0  0  0  0  0
    4.3725    6.0810    0.0000 C   0  0  0  0  0  0  0  0  0  0  0  0
    4.8725    6.9471    0.0000 C   0  0  0  0  0  0  0  0  0  0  0  0
    8.8366    3.0810    0.0000 C   0  0  0  0  0  0  0  0  0  0  0  0
    6.2385    4.5810    0.0000 C   0  0  0  0  0  0  0  0  0  0  0  0
    7.1137   -5.0810    0.0000 C   0  0  0  0  0  0  0  0  0  0  0  0
    8.1137   -5.0810    0.0000 C   0  0  2  0  0  0  0  0  0  0  0  0
    8.6137   -4.2150    0.0000 C   0  0  0  0  0  0  0  0  0  0  0  0
   10.6137   -5.9471    0.0000 C   0  0  0  0  0  0  0  0  0  0  0  0
    3.9595    0.9700    0.0000 H   0  0  0  0  0  0  0  0  0  0  0  0
    3.7328    0.0042    0.0000 H   0  0  0  0  0  0  0  0  0  0  0  0
    3.5547    3.1048    0.0000 H   0  0  0  0  0  0  0  0  0  0  0  0
    2.6238    2.6644    0.0000 H   0  0  0  0  0  0  0  0  0  0  0  0
    5.8644    0.7036    0.0000 H   0  0  0  0  0  0  0  0  0  0  0  0
    1.8057    1.5604    0.0000 H   0  0  0  0  0  0  0  0  0  0  0  0
    1.4142    0.7684    0.0000 H   0  0  0  0  0  0  0  0  0  0  0  0
    1.7636   -0.1914    0.0000 H   0  0  0  0  0  0  0  0  0  0  0  0
    2.5765   -0.5420    0.0000 H   0  0  0  0  0  0  0  0  0  0  0  0
    4.8037   -2.1539    0.0000 H   0  0  0  0  0  0  0  0  0  0  0  0
    5.7016    2.8910    0.0000 H   0  0  0  0  0  0  0  0  0  0  0  0
    6.2337   -2.4830    0.0000 H   0  0  0  0  0  0  0  0  0  0  0  0
    7.1045    2.4610    0.0000 H   0  0  0  0  0  0  0  0  0  0  0  0
    3.1137   -0.9969    0.0000 H   0  0  0  0  0  0  0  0  0  0  0  0
    2.4937   -1.6169    0.0000 H   0  0  0  0  0  0  0  0  0  0  0  0
    3.1137   -2.2369    0.0000 H   0  0  0  0  0  0  0  0  0  0  0  0
    3.4937   -2.6169    0.0000 H   0  0  0  0  0  0  0  0  0  0  0  0
    4.1137   -3.2369    0.0000 H   0  0  0  0  0  0  0  0  0  0  0  0
    4.7337   -2.6169    0.0000 H   0  0  0  0  0  0  0  0  0  0  0  0
    4.7337   -0.6169    0.0000 H   0  0  0  0  0  0  0  0  0  0  0  0
    4.1137    0.0031    0.0000 H   0  0  0  0  0  0  0  0  0  0  0  0
    3.4937   -0.6169    0.0000 H   0  0  0  0  0  0  0  0  0  0  0  0
    5.7337   -5.0810    0.0000 H   0  0  0  0  0  0  0  0  0  0  0  0
    5.9237   -3.6781    0.0000 H   0  0  0  0  0  0  0  0  0  0  0  0
    7.5720    2.1061    0.0000 H   0  0  0  0  0  0  0  0  0  0  0  0
    8.3691    2.1061    0.0000 H   0  0  0  0  0  0  0  0  0  0  0  0
    4.2213   -4.4705    0.0000 H   0  0  0  0  0  0  0  0  0  0  0  0
    3.5310   -4.8690    0.0000 H   0  0  0  0  0  0  0  0  0  0  0  0
    6.0886   -6.3456    0.0000 H   0  0  0  0  0  0  0  0  0  0  0  0
    6.0886   -5.5485    0.0000 H   0  0  0  0  0  0  0  0  0  0  0  0
    3.1387   -5.5485    0.0000 H   0  0  0  0  0  0  0  0  0  0  0  0
    3.1387   -6.3456    0.0000 H   0  0  0  0  0  0  0  0  0  0  0  0
    5.0060   -7.4237    0.0000 H   0  0  0  0  0  0  0  0  0  0  0  0
    5.6963   -7.0251    0.0000 H   0  0  0  0  0  0  0  0  0  0  0  0
    3.5310   -7.0251    0.0000 H   0  0  0  0  0  0  0  0  0  0  0  0
    4.2213   -7.4237    0.0000 H   0  0  0  0  0  0  0  0  0  0  0  0
    5.8109    6.5194    0.0000 H   0  0  0  0  0  0  0  0  0  0  0  0
    6.9237   -3.6781    0.0000 H   0  0  0  0  0  0  0  0  0  0  0  0
    3.7899    6.2931    0.0000 H   0  0  0  0  0  0  0  0  0  0  0  0
    4.2648    5.4705    0.0000 H   0  0  0  0  0  0  0  0  0  0  0  0
    5.3474    7.3456    0.0000 H   0  0  0  0  0  0  0  0  0  0  0  0
    4.3975    7.3456    0.0000 H   0  0  0  0  0  0  0  0  0  0  0  0
    9.3735    3.3910    0.0000 H   0  0  0  0  0  0  0  0  0  0  0  0
    6.7754    5.8910    0.0000 H   0  0  0  0  0  0  0  0  0  0  0  0
    8.7337   -5.0810    0.0000 H   0  0  0  0  0  0  0  0  0  0  0  0
    9.1506   -4.5250    0.0000 H   0  0  0  0  0  0  0  0  0  0  0  0
    8.9237   -3.6781    0.0000 H   0  0  0  0  0  0  0  0  0  0  0  0
    8.0767   -3.9050    0.0000 H   0  0  0  0  0  0  0  0  0  0  0  0
    8.3037   -6.4840    0.0000 H   0  0  0  0  0  0  0  0  0  0  0  0
   10.6137   -6.5671    0.0000 H   0  0  0  0  0  0  0  0  0  0  0  0
   11.2337   -5.9471    0.0000 H   0  0  0  0  0  0  0  0  0  0  0  0
   10.6137   -5.3271    0.0000 H   0  0  0  0  0  0  0  0  0  0  0  0
  1 10  2  0  0  0  0
  1 11  2  0  0  0  0
  1 17  1  0  0  0  0
  1 50  1  0  0  0  0
  2 45  1  0  0  0  0
  3 45  1  0  0  0  0
  4 24  2  0  0  0  0
  5 25  2  0  0  0  0
  6 32  2  0  0  0  0
  7 38  2  0  0  0  0
  8 46  2  0  0  0  0
  9 47  2  0  0  0  0
 12 19  1  0  0  0  0
 12 21  1  0  0  0  0
 12 24  1  0  0  0  0
 13 25  1  0  0  0  0
 13 28  1  0  0  0  0
 13 61  1  0  0  0  0
 26 14  1  1  0  0  0
 14 32  1  0  0  0  0
 14 62  1  0  0  0  0
 33 15  1  1  0  0  0
 15 47  1  0  0  0  0
 15 88  1  0  0  0  0
 16 42  1  0  0  0  0
 16 46  1  0  0  0  0
 16 94  1  0  0  0  0
 48 17  1  6  0  0  0
 17 99  1  0  0  0  0
 18 20  1  0  0  0  0
 18 21  1  0  0  0  0
 18 22  1  0  0  0  0
 18 51  1  0  0  0  0
 19 20  1  0  0  0  0
 19 23  1  0  0  0  0
 19 52  1  0  0  0  0
 20 53  1  0  0  0  0
 20 54  1  0  0  0  0
 21 25  1  1  0  0  0
 21 55  1  0  0  0  0
 22 23  1  0  0  0  0
 22 56  1  0  0  0  0
 22 57  1  0  0  0  0
 23 58  1  0  0  0  0
 23 59  1  0  0  0  0
 24 26  1  0  0  0  0
 26 27  1  0  0  0  0
 26 60  1  0  0  0  0
 27 29  1  0  0  0  0
 27 30  1  0  0  0  0
 27 31  1  0  0  0  0
 28 35  1  0  0  0  0
 28 38  1  0  0  0  0
 28 63  1  0  0  0  0
 29 64  1  0  0  0  0
 29 65  1  0  0  0  0
 29 66  1  0  0  0  0
 30 67  1  0  0  0  0
 30 68  1  0  0  0  0
 30 69  1  0  0  0  0
 31 70  1  0  0  0  0
 31 71  1  0  0  0  0
 31 72  1  0  0  0  0
 32 33  1  0  0  0  0
 33 34  1  0  0  0  0
 33 74  1  0  0  0  0
 34 36  1  0  0  0  0
 34 37  1  0  0  0  0
 34 73  1  0  0  0  0
 35 45  1  0  0  0  0
 35 75  1  0  0  0  0
 35 76  1  0  0  0  0
 36 39  1  0  0  0  0
 36 77  1  0  0  0  0
 36 78  1  0  0  0  0
 37 40  1  0  0  0  0
 37 79  1  0  0  0  0
 37 80  1  0  0  0  0
 38 46  1  0  0  0  0
 39 41  1  0  0  0  0
 39 81  1  0  0  0  0
 39 82  1  0  0  0  0
 40 41  1  0  0  0  0
 40 83  1  0  0  0  0
 40 84  1  0  0  0  0
 41 85  1  0  0  0  0
 41 86  1  0  0  0  0
 42 43  1  0  0  0  0
 42 44  1  0  0  0  0
 42 87  1  0  0  0  0
 43 44  1  0  0  0  0
 43 89  1  0  0  0  0
 43 90  1  0  0  0  0
 44 91  1  0  0  0  0
 44 92  1  0  0  0  0
 45 93  1  0  0  0  0
 47 48  1  0  0  0  0
 48 49  1  0  0  0  0
 48 95  1  0  0  0  0
 49 96  1  0  0  0  0
 49 97  1  0  0  0  0
 49 98  1  0  0  0  0
 50100  1  0  0  0  0
 50101  1  0  0  0  0
 50102  1  0  0  0  0
M  END
> <PUBCHEM_COMPOUND_CID>
514238
> <PUBCHEM_COMPOUND_CANONICALIZED>
1
> <PUBCHEM_CACTVS_COMPLEXITY>
1420
> <PUBCHEM_CACTVS_HBOND_ACCEPTOR>
11
> <PUBCHEM_CACTVS_HBOND_DONOR>
5
> <PUBCHEM_CACTVS_ROTATABLE_BOND>
16
> <PUBCHEM_CACTVS_SUBSKEYS>
AAADcfB/vYBAAAAAAAAAAAAAGAAAAeIAAAA8QAAAAAAAAAAAAAAAHwQQQAAADyzBgBSCAAPAAAIIAIEQEHAAAAAAAAAAAIGIAAAAQBoAwCAUAAAAFgCAAAEYiYCfAAAAAAAAAAAAAAAAAAAAACAAAAAAAA==
> <PUBCHEM_IUPAC_OPENEYE_NAME>
(3S)-2-[(2S)-2-[[(2S)-2-cyclohexyl-2-[[(2S)-2-(methanesulfonamido)propanoyl]amino]acetyl]amino]-3,3-dimethyl-butanoyl]-N-[3-(cyclopropylamino)-1-(2,2-difluoroethyl)-2,3-dioxo-propyl]-2-azabicyclo[2.2.1]heptane-3-carboxamide
> <PUBCHEM_IUPAC_CAS_NAME>
(3S)-2-[(2S)-2-[[(2S)-2-cyclohexyl-2-[[(2S)-2-(methanesulfonamido)-1-oxopropyl]amino]-1-oxoethyl]amino]-3,3-dimethyl-1-oxobutyl]-N-[1-(cyclopropylamino)-5,5-difluoro-1,2-dioxopentan-3-yl]-2-azabicyclo[2.2.1]heptane-3-carboxamide
> <PUBCHEM_IUPAC_NAME_MARKUP>
(3<I>S</I>)-2-[(2<I>S</I>)-2-[[(2<I>S</I>)-2-cyclohexyl-2-[[(2<I>S</I>)-2-(methanesulfonamido)propanoyl]amino]acetyl]amino]-3,3-dimethylbutanoyl]-<I>N</I>-[1-(cyclopropylamino)-5,5-difluoro-1,2-dioxopentan-3-yl]-2-azabicyclo[2.2.1]heptane-3-carboxamide
> <PUBCHEM_IUPAC_NAME>
(3S)-2-[(2S)-2-[[(2S)-2-cyclohexyl-2-[[(2S)-2-(methanesulfonamido)propanoyl]amino]acetyl]amino]-3,3-dimethylbutanoyl]-N-[1-(cyclopropylamino)-5,5-difluoro-1,2-dioxopentan-3-yl]-2-azabicyclo[2.2.1]heptane-3-carboxamide
> <PUBCHEM_IUPAC_SYSTEMATIC_NAME>
(3S)-2-[(2S)-2-[[(2S)-2-cyclohexyl-2-[[(2S)-2-(methylsulfonylamino)propanoyl]amino]ethanoyl]amino]-3,3-dimethyl-butanoyl]-N-[1-(cyclopropylamino)-5,5-bis(fluoranyl)-1,2-bis(oxidanylidene)pentan-3-yl]-2-azabicyclo[2.2.1]heptane-3-carboxamide
> <PUBCHEM_IUPAC_TRADITIONAL_NAME>
(3S)-2-[(2S)-2-[[(2S)-2-cyclohexyl-2-[[(2S)-2-(methanesulfonamido)propanoyl]amino]acetyl]amino]-3,3-dimethyl-butanoyl]-N-[3-(cyclopropylamino)-1-(2,2-difluoroethyl)-2,3-diketo-propyl]-2-azabicyclo[2.2.1]heptane-3-carboxamide
> <PUBCHEM_IUPAC_INCHI>
InChI=1S/C33H52F2N6O8S/c1-17(40-50(5,48)49)28(43)38-24(18-9-7-6-8-10-18)29(44)39-27(33(2,3)4)32(47)41-21-14-11-19(15-21)25(41)30(45)37-22(16-23(34)35)26(42)31(46)36-20-12-13-20/h17-25,27,40H,6-16H2,1-5H3,(H,36,46)(H,37,45)(H,38,43)(H,39,44)/t17-,19?,21?,22?,24-,25-,27+/m0/s1
> <PUBCHEM_IUPAC_INCHIKEY>
PHJDUHROFHADCS-NWYVACKOSA-N
> <PUBCHEM_XLOGP3_AA>
3.5
> <PUBCHEM_EXACT_MASS>
730.35354014
> <PUBCHEM_MOLECULAR_FORMULA>
C33H52F2N6O8S
> <PUBCHEM_MOLECULAR_WEIGHT>
730.9
> <PUBCHEM_OPENEYE_CAN_SMILES>
CC(C(=O)NC(C1CCCCC1)C(=O)NC(C(=O)N2C3CCC(C3)C2C(=O)NC(CC(F)F)C(=O)C(=O)NC4CC4)C(C)(C)C)NS(=O)(=O)C
> <PUBCHEM_OPENEYE_ISO_SMILES>
C[C@@H](C(=O)N[C@@H](C1CCCCC1)C(=O)N[C@H](C(=O)N2[C@@H](C3CCC2C3)C(=O)NC(CC(F)F)C(=O)C(=O)NC4CC4)C(C)(C)C)NS(=O)(=O)C
> <PUBCHEM_CACTVS_TPSA>
208
> <PUBCHEM_MONOISOTOPIC_WEIGHT>
730.35354014
> <PUBCHEM_TOTAL_CHARGE>
0
> <PUBCHEM_HEAVY_ATOM_COUNT>
50
> <PUBCHEM_ATOM_DEF_STEREO_COUNT>
4
> <PUBCHEM_ATOM_UDEF_STEREO_COUNT>
3
> <PUBCHEM_BOND_DEF_STEREO_COUNT>
0
> <PUBCHEM_BOND_UDEF_STEREO_COUNT>
0
> <PUBCHEM_ISOTOPIC_ATOM_COUNT>
0
> <PUBCHEM_COMPONENT_COUNT>
1
> <PUBCHEM_CACTVS_TAUTO_COUNT>
-1
> <PUBCHEM_COORDINATE_TYPE>
1
5
255
> <PUBCHEM_BONDANNOTATIONS>
26  14  5
33  15  5
48  17  6
18  22  3
19  23  3
21  25  5
28  35  3
$$$$
