514232
  -OEChem-10302200282D
110113  0     1  0  0  0  0  0999 V2000
    7.1045    1.8801    0.0000 O   0  0  0  0  0  0  0  0  0  0  0  0
    6.6137    0.0481    0.0000 O   0  0  0  0  0  0  0  0  0  0  0  0
    4.1137   -2.5500    0.0000 O   0  0  0  0  0  0  0  0  0  0  0  0
    6.2385    5.3801    0.0000 O   0  0  0  0  0  0  0  0  0  0  0  0
    8.8366    4.8801    0.0000 O   0  0  0  0  0  0  0  0  0  0  0  0
    6.6137   -5.1480    0.0000 O   0  0  0  0  0  0  0  0  0  0  0  0
    8.6137   -6.8801    0.0000 O   0  0  0  0  0  0  0  0  0  0  0  0
    7.1137   -6.0140    0.0000 O   0  0  0  0  0  0  0  0  0  0  0  0
   11.1137   -2.5500    0.0000 O   0  0  0  0  0  0  0  0  0  0  0  0
    9.6137   -1.6839    0.0000 O   0  0  0  0  0  0  0  0  0  0  0  0
    5.1137    0.9142    0.0000 N   0  0  0  0  0  0  0  0  0  0  0  0
    6.2385    3.3801    0.0000 N   0  0  0  0  0  0  0  0  0  0  0  0
    5.6137   -1.6839    0.0000 N   0  0  0  0  0  0  0  0  0  0  0  0
    6.6137   -3.4160    0.0000 N   0  0  0  0  0  0  0  0  0  0  0  0
    7.9706    6.3801    0.0000 N   0  0  0  0  0  0  0  0  0  0  0  0
    8.6137   -5.1480    0.0000 N   0  0  0  0  0  0  0  0  0  0  0  0
    9.6137   -3.4160    0.0000 N   0  0  0  0  0  0  0  0  0  0  0  0
    3.9735    2.3889    0.0000 C   0  0  3  0  0  0  0  0  0  0  0  0
    3.7147    1.4230    0.0000 C   0  0  3  0  0  0  0  0  0  0  0  0
    3.2369    3.3715    0.0000 C   0  0  0  0  0  0  0  0  0  0  0  0
    5.3725    1.8801    0.0000 C   0  0  3  0  0  0  0  0  0  0  0  0
    2.0000    1.7706    0.0000 C   0  0  0  0  0  0  0  0  0  0  0  0
    2.3420    0.8310    0.0000 C   0  0  0  0  0  0  0  0  0  0  0  0
    6.2385    2.3801    0.0000 C   0  0  0  0  0  0  0  0  0  0  0  0
    5.6137    0.0481    0.0000 C   0  0  0  0  0  0  0  0  0  0  0  0
    5.1137   -0.8179    0.0000 C   0  0  2  0  0  0  0  0  0  0  0  0
    4.1137   -0.8179    0.0000 C   0  0  0  0  0  0  0  0  0  0  0  0
    7.1045    3.8801    0.0000 C   0  0  3  0  0  0  0  0  0  0  0  0
    3.6137   -1.6839    0.0000 C   0  0  0  0  0  0  0  0  0  0  0  0
    3.6137    0.0481    0.0000 C   0  0  0  0  0  0  0  0  0  0  0  0
    5.1137   -2.5500    0.0000 C   0  0  0  0  0  0  0  0  0  0  0  0
    5.6137   -3.4160    0.0000 C   0  0  2  0  0  0  0  0  0  0  0  0
    5.1137   -4.2820    0.0000 C   0  0  0  0  0  0  0  0  0  0  0  0
    7.9706    3.3801    0.0000 C   0  0  0  0  0  0  0  0  0  0  0  0
    7.1045    4.8801    0.0000 C   0  0  0  0  0  0  0  0  0  0  0  0
    4.1137   -4.2820    0.0000 C   0  0  0  0  0  0  0  0  0  0  0  0
    5.6137   -5.1480    0.0000 C   0  0  0  0  0  0  0  0  0  0  0  0
    3.6137   -5.1480    0.0000 C   0  0  0  0  0  0  0  0  0  0  0  0
    5.1137   -6.0140    0.0000 C   0  0  0  0  0  0  0  0  0  0  0  0
    8.8366    3.8801    0.0000 C   0  0  0  0  0  0  0  0  0  0  0  0
    4.1137   -6.0140    0.0000 C   0  0  0  0  0  0  0  0  0  0  0  0
    8.8366    6.8801    0.0000 C   0  0  0  0  0  0  0  0  0  0  0  0
    9.8366    6.8801    0.0000 C   0  0  0  0  0  0  0  0  0  0  0  0
    9.3366    7.7461    0.0000 C   0  0  0  0  0  0  0  0  0  0  0  0
    7.9706    5.3801    0.0000 C   0  0  0  0  0  0  0  0  0  0  0  0
    9.7026    3.3801    0.0000 C   0  0  0  0  0  0  0  0  0  0  0  0
    7.1137   -4.2820    0.0000 C   0  0  0  0  0  0  0  0  0  0  0  0
    8.1137   -4.2820    0.0000 C   0  0  2  0  0  0  0  0  0  0  0  0
    8.6137   -3.4160    0.0000 C   0  0  0  0  0  0  0  0  0  0  0  0
    8.1137   -6.0140    0.0000 C   0  0  0  0  0  0  0  0  0  0  0  0
   10.1137   -2.5500    0.0000 C   0  0  0  0  0  0  0  0  0  0  0  0
    8.1137   -7.7461    0.0000 C   0  0  0  0  0  0  0  0  0  0  0  0
   11.6137   -1.6839    0.0000 C   0  0  0  0  0  0  0  0  0  0  0  0
    3.9595    1.7691    0.0000 H   0  0  0  0  0  0  0  0  0  0  0  0
    3.7328    0.8032    0.0000 H   0  0  0  0  0  0  0  0  0  0  0  0
    3.5547    3.9039    0.0000 H   0  0  0  0  0  0  0  0  0  0  0  0
    2.6238    3.4635    0.0000 H   0  0  0  0  0  0  0  0  0  0  0  0
    5.8644    1.5026    0.0000 H   0  0  0  0  0  0  0  0  0  0  0  0
    1.8057    2.3594    0.0000 H   0  0  0  0  0  0  0  0  0  0  0  0
    1.4142    1.5674    0.0000 H   0  0  0  0  0  0  0  0  0  0  0  0
    1.7636    0.6077    0.0000 H   0  0  0  0  0  0  0  0  0  0  0  0
    2.5765    0.2570    0.0000 H   0  0  0  0  0  0  0  0  0  0  0  0
    5.7337   -0.8179    0.0000 H   0  0  0  0  0  0  0  0  0  0  0  0
    5.7016    3.6901    0.0000 H   0  0  0  0  0  0  0  0  0  0  0  0
    4.4237   -1.3548    0.0000 H   0  0  0  0  0  0  0  0  0  0  0  0
    6.2337   -1.6839    0.0000 H   0  0  0  0  0  0  0  0  0  0  0  0
    7.1045    3.2601    0.0000 H   0  0  0  0  0  0  0  0  0  0  0  0
    3.0767   -1.3739    0.0000 H   0  0  0  0  0  0  0  0  0  0  0  0
    3.3037   -2.2209    0.0000 H   0  0  0  0  0  0  0  0  0  0  0  0
    4.1506   -1.9939    0.0000 H   0  0  0  0  0  0  0  0  0  0  0  0
    4.1506    0.3581    0.0000 H   0  0  0  0  0  0  0  0  0  0  0  0
    3.3037    0.5851    0.0000 H   0  0  0  0  0  0  0  0  0  0  0  0
    3.0767   -0.2619    0.0000 H   0  0  0  0  0  0  0  0  0  0  0  0
    5.9237   -2.8790    0.0000 H   0  0  0  0  0  0  0  0  0  0  0  0
    5.7337   -4.2820    0.0000 H   0  0  0  0  0  0  0  0  0  0  0  0
    7.5720    2.9051    0.0000 H   0  0  0  0  0  0  0  0  0  0  0  0
    8.3691    2.9051    0.0000 H   0  0  0  0  0  0  0  0  0  0  0  0
    4.2213   -3.6714    0.0000 H   0  0  0  0  0  0  0  0  0  0  0  0
    3.5310   -4.0700    0.0000 H   0  0  0  0  0  0  0  0  0  0  0  0
    6.0886   -5.5466    0.0000 H   0  0  0  0  0  0  0  0  0  0  0  0
    6.0886   -4.7495    0.0000 H   0  0  0  0  0  0  0  0  0  0  0  0
    3.1387   -4.7495    0.0000 H   0  0  0  0  0  0  0  0  0  0  0  0
    3.1387   -5.5466    0.0000 H   0  0  0  0  0  0  0  0  0  0  0  0
    5.0060   -6.6246    0.0000 H   0  0  0  0  0  0  0  0  0  0  0  0
    5.6963   -6.2261    0.0000 H   0  0  0  0  0  0  0  0  0  0  0  0
    3.5310   -6.2261    0.0000 H   0  0  0  0  0  0  0  0  0  0  0  0
    4.2213   -6.6246    0.0000 H   0  0  0  0  0  0  0  0  0  0  0  0
    9.2351    4.3550    0.0000 H   0  0  0  0  0  0  0  0  0  0  0  0
    8.4381    4.3550    0.0000 H   0  0  0  0  0  0  0  0  0  0  0  0
    8.9970    6.2812    0.0000 H   0  0  0  0  0  0  0  0  0  0  0  0
    6.9237   -2.8790    0.0000 H   0  0  0  0  0  0  0  0  0  0  0  0
    9.9442    6.2695    0.0000 H   0  0  0  0  0  0  0  0  0  0  0  0
   10.4192    7.0921    0.0000 H   0  0  0  0  0  0  0  0  0  0  0  0
    9.8115    8.1446    0.0000 H   0  0  0  0  0  0  0  0  0  0  0  0
    8.8616    8.1446    0.0000 H   0  0  0  0  0  0  0  0  0  0  0  0
    7.4336    6.6901    0.0000 H   0  0  0  0  0  0  0  0  0  0  0  0
    9.3926    2.8431    0.0000 H   0  0  0  0  0  0  0  0  0  0  0  0
   10.2395    3.0701    0.0000 H   0  0  0  0  0  0  0  0  0  0  0  0
   10.0126    3.9170    0.0000 H   0  0  0  0  0  0  0  0  0  0  0  0
    8.7337   -4.2820    0.0000 H   0  0  0  0  0  0  0  0  0  0  0  0
    8.7213   -2.8054    0.0000 H   0  0  0  0  0  0  0  0  0  0  0  0
    8.0310   -3.2039    0.0000 H   0  0  0  0  0  0  0  0  0  0  0  0
    9.2337   -5.1480    0.0000 H   0  0  0  0  0  0  0  0  0  0  0  0
    9.9237   -3.9529    0.0000 H   0  0  0  0  0  0  0  0  0  0  0  0
    7.5767   -7.4361    0.0000 H   0  0  0  0  0  0  0  0  0  0  0  0
    7.8037   -8.2830    0.0000 H   0  0  0  0  0  0  0  0  0  0  0  0
    8.6506   -8.0561    0.0000 H   0  0  0  0  0  0  0  0  0  0  0  0
   12.1506   -1.9939    0.0000 H   0  0  0  0  0  0  0  0  0  0  0  0
   11.9237   -1.1470    0.0000 H   0  0  0  0  0  0  0  0  0  0  0  0
   11.0767   -1.3739    0.0000 H   0  0  0  0  0  0  0  0  0  0  0  0
  1 24  2  0  0  0  0
  2 25  2  0  0  0  0
  3 31  2  0  0  0  0
  4 35  2  0  0  0  0
  5 45  2  0  0  0  0
  6 47  2  0  0  0  0
  7 50  1  0  0  0  0
  7 52  1  0  0  0  0
  8 50  2  0  0  0  0
  9 51  1  0  0  0  0
  9 53  1  0  0  0  0
 10 51  2  0  0  0  0
 11 19  1  0  0  0  0
 11 21  1  0  0  0  0
 11 25  1  0  0  0  0
 12 24  1  0  0  0  0
 12 28  1  0  0  0  0
 12 64  1  0  0  0  0
 26 13  1  1  0  0  0
 13 31  1  0  0  0  0
 13 66  1  0  0  0  0
 32 14  1  1  0  0  0
 14 47  1  0  0  0  0
 14 91  1  0  0  0  0
 15 42  1  0  0  0  0
 15 45  1  0  0  0  0
 15 96  1  0  0  0  0
 48 16  1  6  0  0  0
 16 50  1  0  0  0  0
 16103  1  0  0  0  0
 17 49  1  0  0  0  0
 17 51  1  0  0  0  0
 17104  1  0  0  0  0
 18 20  1  0  0  0  0
 18 21  1  0  0  0  0
 18 22  1  0  0  0  0
 18 54  1  0  0  0  0
 19 20  1  0  0  0  0
 19 23  1  0  0  0  0
 19 55  1  0  0  0  0
 20 56  1  0  0  0  0
 20 57  1  0  0  0  0
 21 24  1  0  0  0  0
 21 58  1  0  0  0  0
 22 23  1  0  0  0  0
 22 59  1  0  0  0  0
 22 60  1  0  0  0  0
 23 61  1  0  0  0  0
 23 62  1  0  0  0  0
 25 26  1  0  0  0  0
 26 27  1  0  0  0  0
 26 63  1  0  0  0  0
 27 29  1  0  0  0  0
 27 30  1  0  0  0  0
 27 65  1  0  0  0  0
 28 34  1  0  0  0  0
 28 35  1  0  0  0  0
 28 67  1  0  0  0  0
 29 68  1  0  0  0  0
 29 69  1  0  0  0  0
 29 70  1  0  0  0  0
 30 71  1  0  0  0  0
 30 72  1  0  0  0  0
 30 73  1  0  0  0  0
 31 32  1  0  0  0  0
 32 33  1  0  0  0  0
 32 74  1  0  0  0  0
 33 36  1  0  0  0  0
 33 37  1  0  0  0  0
 33 75  1  0  0  0  0
 34 40  1  0  0  0  0
 34 76  1  0  0  0  0
 34 77  1  0  0  0  0
 35 45  1  0  0  0  0
 36 38  1  0  0  0  0
 36 78  1  0  0  0  0
 36 79  1  0  0  0  0
 37 39  1  0  0  0  0
 37 80  1  0  0  0  0
 37 81  1  0  0  0  0
 38 41  1  0  0  0  0
 38 82  1  0  0  0  0
 38 83  1  0  0  0  0
 39 41  1  0  0  0  0
 39 84  1  0  0  0  0
 39 85  1  0  0  0  0
 40 46  1  0  0  0  0
 40 88  1  0  0  0  0
 40 89  1  0  0  0  0
 41 86  1  0  0  0  0
 41 87  1  0  0  0  0
 42 43  1  0  0  0  0
 42 44  1  0  0  0  0
 42 90  1  0  0  0  0
 43 44  1  0  0  0  0
 43 92  1  0  0  0  0
 43 93  1  0  0  0  0
 44 94  1  0  0  0  0
 44 95  1  0  0  0  0
 46 97  1  0  0  0  0
 46 98  1  0  0  0  0
 46 99  1  0  0  0  0
 47 48  1  0  0  0  0
 48 49  1  0  0  0  0
 48100  1  0  0  0  0
 49101  1  0  0  0  0
 49102  1  0  0  0  0
 52105  1  0  0  0  0
 52106  1  0  0  0  0
 52107  1  0  0  0  0
 53108  1  0  0  0  0
 53109  1  0  0  0  0
 53110  1  0  0  0  0
M  END
> <PUBCHEM_COMPOUND_CID>
514232
> <PUBCHEM_COMPOUND_CANONICALIZED>
1
> <PUBCHEM_CACTVS_COMPLEXITY>
1380
> <PUBCHEM_CACTVS_HBOND_ACCEPTOR>
10
> <PUBCHEM_CACTVS_HBOND_DONOR>
6
> <PUBCHEM_CACTVS_ROTATABLE_BOND>
19
> <PUBCHEM_CACTVS_SUBSKEYS>
AAADcfB/vAAAAAAAAAAAAAAAGAAAAeIAAAA8QAAAAAAAAAAAAAAAHgAQAAAADSzBgAYCCAPABAAIAIEQGAAAAAAAAAAAAIGIAAEAQBoAwCAUAAAAFgCAAAEYiYCeAAAAAAAAAAAAAAAAAAAAACAAAAAAAA==
> <PUBCHEM_IUPAC_OPENEYE_NAME>
methyl N-[(1S)-2-[[(1S)-1-cyclohexyl-2-[[(1S)-1-[3-[1-[2-(cyclopropylamino)-2-oxo-acetyl]butylcarbamoyl]-2-azabicyclo[2.2.1]heptane-2-carbonyl]-2-methyl-propyl]amino]-2-oxo-ethyl]amino]-1-[(methoxycarbonylamino)methyl]-2-oxo-ethyl]carbamate
> <PUBCHEM_IUPAC_CAS_NAME>
N-[(2S)-1-[[(1S)-1-cyclohexyl-2-[[(2S)-1-[3-[[[1-(cyclopropylamino)-1,2-dioxohexan-3-yl]amino]-oxomethyl]-2-azabicyclo[2.2.1]heptan-2-yl]-3-methyl-1-oxobutan-2-yl]amino]-2-oxoethyl]amino]-3-(methoxycarbonylamino)-1-oxopropan-2-yl]carbamic acid methyl ester
> <PUBCHEM_IUPAC_NAME_MARKUP>
methyl <I>N</I>-[(2<I>S</I>)-1-[[(1<I>S</I>)-1-cyclohexyl-2-[[(2<I>S</I>)-1-[3-[[1-(cyclopropylamino)-1,2-dioxohexan-3-yl]carbamoyl]-2-azabicyclo[2.2.1]heptan-2-yl]-3-methyl-1-oxobutan-2-yl]amino]-2-oxoethyl]amino]-3-(methoxycarbonylamino)-1-oxopropan-2-yl]carbamate
> <PUBCHEM_IUPAC_NAME>
methyl N-[(2S)-1-[[(1S)-1-cyclohexyl-2-[[(2S)-1-[3-[[1-(cyclopropylamino)-1,2-dioxohexan-3-yl]carbamoyl]-2-azabicyclo[2.2.1]heptan-2-yl]-3-methyl-1-oxobutan-2-yl]amino]-2-oxoethyl]amino]-3-(methoxycarbonylamino)-1-oxopropan-2-yl]carbamate
> <PUBCHEM_IUPAC_SYSTEMATIC_NAME>
methyl N-[(2S)-1-[[(1S)-1-cyclohexyl-2-[[(2S)-1-[3-[[1-(cyclopropylamino)-1,2-bis(oxidanylidene)hexan-3-yl]carbamoyl]-2-azabicyclo[2.2.1]heptan-2-yl]-3-methyl-1-oxidanylidene-butan-2-yl]amino]-2-oxidanylidene-ethyl]amino]-3-(methoxycarbonylamino)-1-oxidanylidene-propan-2-yl]carbamate
> <PUBCHEM_IUPAC_TRADITIONAL_NAME>
N-[(2S)-2-(carbomethoxyamino)-3-[[(1S)-1-cyclohexyl-2-[[(1S)-1-[3-[1-[2-(cyclopropylamino)-2-keto-acetyl]butylcarbamoyl]-2-azabicyclo[2.2.1]heptane-2-carbonyl]-2-methyl-propyl]amino]-2-keto-ethyl]amino]-3-keto-propyl]carbamic acid methyl ester
> <PUBCHEM_IUPAC_INCHI>
InChI=1S/C36H57N7O10/c1-6-10-24(29(44)33(48)38-22-14-15-22)39-32(47)28-21-13-16-23(17-21)43(28)34(49)26(19(2)3)41-31(46)27(20-11-8-7-9-12-20)42-30(45)25(40-36(51)53-5)18-37-35(50)52-4/h19-28H,6-18H2,1-5H3,(H,37,50)(H,38,48)(H,39,47)(H,40,51)(H,41,46)(H,42,45)/t21?,23?,24?,25-,26-,27-,28?/m0/s1
> <PUBCHEM_IUPAC_INCHIKEY>
QWNISKAYEDSJJQ-YHAPPSADSA-N
> <PUBCHEM_XLOGP3_AA>
3.1
> <PUBCHEM_EXACT_MASS>
747.41669104
> <PUBCHEM_MOLECULAR_FORMULA>
C36H57N7O10
> <PUBCHEM_MOLECULAR_WEIGHT>
747.9
> <PUBCHEM_OPENEYE_CAN_SMILES>
CCCC(C(=O)C(=O)NC1CC1)NC(=O)C2C3CCC(C3)N2C(=O)C(C(C)C)NC(=O)C(C4CCCCC4)NC(=O)C(CNC(=O)OC)NC(=O)OC
> <PUBCHEM_OPENEYE_ISO_SMILES>
CCCC(C(=O)C(=O)NC1CC1)NC(=O)C2C3CCC(C3)N2C(=O)[C@H](C(C)C)NC(=O)[C@H](C4CCCCC4)NC(=O)[C@H](CNC(=O)OC)NC(=O)OC
> <PUBCHEM_CACTVS_TPSA>
230
> <PUBCHEM_MONOISOTOPIC_WEIGHT>
747.41669104
> <PUBCHEM_TOTAL_CHARGE>
0
> <PUBCHEM_HEAVY_ATOM_COUNT>
53
> <PUBCHEM_ATOM_DEF_STEREO_COUNT>
3
> <PUBCHEM_ATOM_UDEF_STEREO_COUNT>
4
> <PUBCHEM_BOND_DEF_STEREO_COUNT>
0
> <PUBCHEM_BOND_UDEF_STEREO_COUNT>
0
> <PUBCHEM_ISOTOPIC_ATOM_COUNT>
0
> <PUBCHEM_COMPONENT_COUNT>
1
> <PUBCHEM_CACTVS_TAUTO_COUNT>
-1
> <PUBCHEM_COORDINATE_TYPE>
1
5
255
> <PUBCHEM_BONDANNOTATIONS>
26  13  5
32  14  5
48  16  6
18  22  3
19  23  3
21  24  3
28  34  3
$$$$
