514242
  -OEChem-10302200282D
102106  0     1  0  0  0  0  0999 V2000
    6.6137   -0.8179    0.0000 O   0  0  0  0  0  0  0  0  0  0  0  0
    7.1045    1.0140    0.0000 O   0  0  0  0  0  0  0  0  0  0  0  0
    4.1137   -3.4160    0.0000 O   0  0  0  0  0  0  0  0  0  0  0  0
    6.2385    4.5140    0.0000 O   0  0  0  0  0  0  0  0  0  0  0  0
    8.8366    4.0140    0.0000 O   0  0  0  0  0  0  0  0  0  0  0  0
    6.6137   -6.0140    0.0000 O   0  0  0  0  0  0  0  0  0  0  0  0
    5.1137    0.0481    0.0000 N   0  0  0  0  0  0  0  0  0  0  0  0
    6.2385    2.5140    0.0000 N   0  0  0  0  0  0  0  0  0  0  0  0
    5.6137   -2.5500    0.0000 N   0  0  0  0  0  0  0  0  0  0  0  0
    6.6137   -4.2820    0.0000 N   0  0  0  0  0  0  0  0  0  0  0  0
    7.9706    5.5140    0.0000 N   0  0  0  0  0  0  0  0  0  0  0  0
    8.6137   -4.2820    0.0000 N   0  0  0  0  0  0  0  0  0  0  0  0
    9.6137   -6.0140    0.0000 N   0  0  0  0  0  0  0  0  0  0  0  0
    3.9735    1.5229    0.0000 C   0  0  0  0  0  0  0  0  0  0  0  0
    3.7147    0.5569    0.0000 C   0  0  0  0  0  0  0  0  0  0  0  0
    5.3725    1.0140    0.0000 C   0  0  1  0  0  0  0  0  0  0  0  0
    2.0000    0.9046    0.0000 C   0  0  0  0  0  0  0  0  0  0  0  0
    3.6030    2.8715    0.0000 C   0  0  0  0  0  0  0  0  0  0  0  0
    2.3420   -0.0351    0.0000 C   0  0  0  0  0  0  0  0  0  0  0  0
    2.7369    2.3715    0.0000 C   0  0  0  0  0  0  0  0  0  0  0  0
    5.6137   -0.8179    0.0000 C   0  0  0  0  0  0  0  0  0  0  0  0
    6.2385    1.5140    0.0000 C   0  0  0  0  0  0  0  0  0  0  0  0
    5.1137   -1.6839    0.0000 C   0  0  3  0  0  0  0  0  0  0  0  0
    4.1137   -1.6839    0.0000 C   0  0  0  0  0  0  0  0  0  0  0  0
    7.1045    3.0140    0.0000 C   0  0  1  0  0  0  0  0  0  0  0  0
    3.1137   -1.6839    0.0000 C   0  0  0  0  0  0  0  0  0  0  0  0
    4.1137   -2.6839    0.0000 C   0  0  0  0  0  0  0  0  0  0  0  0
    4.1137   -0.6839    0.0000 C   0  0  0  0  0  0  0  0  0  0  0  0
    5.1137   -5.1480    0.0000 C   0  0  0  0  0  0  0  0  0  0  0  0
    5.6137   -4.2820    0.0000 C   0  0  1  0  0  0  0  0  0  0  0  0
    5.1137   -3.4160    0.0000 C   0  0  0  0  0  0  0  0  0  0  0  0
    4.1137   -5.1480    0.0000 C   0  0  0  0  0  0  0  0  0  0  0  0
    5.6137   -6.0140    0.0000 C   0  0  0  0  0  0  0  0  0  0  0  0
    7.9706    2.5140    0.0000 C   0  0  0  0  0  0  0  0  0  0  0  0
    3.6137   -6.0140    0.0000 C   0  0  0  0  0  0  0  0  0  0  0  0
    5.1137   -6.8801    0.0000 C   0  0  0  0  0  0  0  0  0  0  0  0
    4.1137   -6.8801    0.0000 C   0  0  0  0  0  0  0  0  0  0  0  0
    7.1045    4.0140    0.0000 C   0  0  0  0  0  0  0  0  0  0  0  0
    8.8366    6.0140    0.0000 C   0  0  0  0  0  0  0  0  0  0  0  0
    9.8366    6.0140    0.0000 C   0  0  0  0  0  0  0  0  0  0  0  0
    9.3366    6.8801    0.0000 C   0  0  0  0  0  0  0  0  0  0  0  0
    8.8366    3.0140    0.0000 C   0  0  0  0  0  0  0  0  0  0  0  0
    7.9706    4.5140    0.0000 C   0  0  0  0  0  0  0  0  0  0  0  0
    7.1137   -5.1480    0.0000 C   0  0  0  0  0  0  0  0  0  0  0  0
    9.7026    2.5140    0.0000 C   0  0  0  0  0  0  0  0  0  0  0  0
    8.1137   -5.1480    0.0000 C   0  0  0  0  0  0  0  0  0  0  0  0
    8.6137   -6.0140    0.0000 C   0  0  0  0  0  0  0  0  0  0  0  0
    9.6137   -4.2820    0.0000 C   0  0  0  0  0  0  0  0  0  0  0  0
   10.1137   -5.1480    0.0000 C   0  0  0  0  0  0  0  0  0  0  0  0
    3.9595    0.9030    0.0000 H   0  0  0  0  0  0  0  0  0  0  0  0
    3.7328   -0.0628    0.0000 H   0  0  0  0  0  0  0  0  0  0  0  0
    5.8644    0.6366    0.0000 H   0  0  0  0  0  0  0  0  0  0  0  0
    1.8057    1.4934    0.0000 H   0  0  0  0  0  0  0  0  0  0  0  0
    1.4142    0.7014    0.0000 H   0  0  0  0  0  0  0  0  0  0  0  0
    4.1847    3.0860    0.0000 H   0  0  0  0  0  0  0  0  0  0  0  0
    3.3397    3.4329    0.0000 H   0  0  0  0  0  0  0  0  0  0  0  0
    1.7636   -0.2584    0.0000 H   0  0  0  0  0  0  0  0  0  0  0  0
    2.5765   -0.6090    0.0000 H   0  0  0  0  0  0  0  0  0  0  0  0
    2.4322    2.9114    0.0000 H   0  0  0  0  0  0  0  0  0  0  0  0
    2.1940    2.0721    0.0000 H   0  0  0  0  0  0  0  0  0  0  0  0
    4.8037   -2.2209    0.0000 H   0  0  0  0  0  0  0  0  0  0  0  0
    5.7016    2.8240    0.0000 H   0  0  0  0  0  0  0  0  0  0  0  0
    6.2337   -2.5500    0.0000 H   0  0  0  0  0  0  0  0  0  0  0  0
    7.1045    2.3940    0.0000 H   0  0  0  0  0  0  0  0  0  0  0  0
    3.1137   -1.0639    0.0000 H   0  0  0  0  0  0  0  0  0  0  0  0
    2.4937   -1.6839    0.0000 H   0  0  0  0  0  0  0  0  0  0  0  0
    3.1137   -2.3039    0.0000 H   0  0  0  0  0  0  0  0  0  0  0  0
    3.4937   -2.6839    0.0000 H   0  0  0  0  0  0  0  0  0  0  0  0
    4.1137   -3.3039    0.0000 H   0  0  0  0  0  0  0  0  0  0  0  0
    4.7337   -2.6839    0.0000 H   0  0  0  0  0  0  0  0  0  0  0  0
    4.7337   -0.6839    0.0000 H   0  0  0  0  0  0  0  0  0  0  0  0
    4.1137   -0.0639    0.0000 H   0  0  0  0  0  0  0  0  0  0  0  0
    3.4937   -0.6839    0.0000 H   0  0  0  0  0  0  0  0  0  0  0  0
    5.7337   -5.1480    0.0000 H   0  0  0  0  0  0  0  0  0  0  0  0
    5.9237   -3.7451    0.0000 H   0  0  0  0  0  0  0  0  0  0  0  0
    4.2213   -4.5374    0.0000 H   0  0  0  0  0  0  0  0  0  0  0  0
    3.5310   -4.9360    0.0000 H   0  0  0  0  0  0  0  0  0  0  0  0
    6.0886   -6.4126    0.0000 H   0  0  0  0  0  0  0  0  0  0  0  0
    6.0886   -5.6155    0.0000 H   0  0  0  0  0  0  0  0  0  0  0  0
    7.5720    2.0391    0.0000 H   0  0  0  0  0  0  0  0  0  0  0  0
    8.3691    2.0391    0.0000 H   0  0  0  0  0  0  0  0  0  0  0  0
    3.1387   -5.6155    0.0000 H   0  0  0  0  0  0  0  0  0  0  0  0
    3.1387   -6.4126    0.0000 H   0  0  0  0  0  0  0  0  0  0  0  0
    5.0060   -7.4907    0.0000 H   0  0  0  0  0  0  0  0  0  0  0  0
    5.6963   -7.0921    0.0000 H   0  0  0  0  0  0  0  0  0  0  0  0
    3.5310   -7.0921    0.0000 H   0  0  0  0  0  0  0  0  0  0  0  0
    4.2213   -7.4907    0.0000 H   0  0  0  0  0  0  0  0  0  0  0  0
    8.9970    5.4152    0.0000 H   0  0  0  0  0  0  0  0  0  0  0  0
    9.9442    5.4035    0.0000 H   0  0  0  0  0  0  0  0  0  0  0  0
   10.4192    6.2261    0.0000 H   0  0  0  0  0  0  0  0  0  0  0  0
    9.8115    7.2786    0.0000 H   0  0  0  0  0  0  0  0  0  0  0  0
    8.8616    7.2786    0.0000 H   0  0  0  0  0  0  0  0  0  0  0  0
    6.9237   -3.7451    0.0000 H   0  0  0  0  0  0  0  0  0  0  0  0
    9.2351    3.4890    0.0000 H   0  0  0  0  0  0  0  0  0  0  0  0
    8.4381    3.4890    0.0000 H   0  0  0  0  0  0  0  0  0  0  0  0
    7.4336    5.8240    0.0000 H   0  0  0  0  0  0  0  0  0  0  0  0
    9.3926    1.9771    0.0000 H   0  0  0  0  0  0  0  0  0  0  0  0
   10.2395    2.2040    0.0000 H   0  0  0  0  0  0  0  0  0  0  0  0
   10.0126    3.0510    0.0000 H   0  0  0  0  0  0  0  0  0  0  0  0
    8.3037   -6.5510    0.0000 H   0  0  0  0  0  0  0  0  0  0  0  0
    9.9237   -3.7451    0.0000 H   0  0  0  0  0  0  0  0  0  0  0  0
   10.7337   -5.1480    0.0000 H   0  0  0  0  0  0  0  0  0  0  0  0
  1 21  2  0  0  0  0
  2 22  2  0  0  0  0
  3 31  2  0  0  0  0
  4 38  2  0  0  0  0
  5 43  2  0  0  0  0
  6 44  2  0  0  0  0
  7 15  1  0  0  0  0
  7 16  1  0  0  0  0
  7 21  1  0  0  0  0
  8 22  1  0  0  0  0
 25  8  1  6  0  0  0
  8 62  1  0  0  0  0
  9 23  1  0  0  0  0
  9 31  1  0  0  0  0
  9 63  1  0  0  0  0
 30 10  1  1  0  0  0
 10 44  1  0  0  0  0
 10 93  1  0  0  0  0
 11 39  1  0  0  0  0
 11 43  1  0  0  0  0
 11 96  1  0  0  0  0
 12 46  2  0  0  0  0
 12 48  1  0  0  0  0
 13 47  2  0  0  0  0
 13 49  1  0  0  0  0
 14 16  1  0  0  0  0
 14 17  1  0  0  0  0
 14 18  1  0  0  0  0
 14 50  1  0  0  0  0
 15 19  1  0  0  0  0
 15 20  1  0  0  0  0
 15 51  1  0  0  0  0
 16 22  1  1  0  0  0
 16 52  1  0  0  0  0
 17 19  1  0  0  0  0
 17 53  1  0  0  0  0
 17 54  1  0  0  0  0
 18 20  1  0  0  0  0
 18 55  1  0  0  0  0
 18 56  1  0  0  0  0
 19 57  1  0  0  0  0
 19 58  1  0  0  0  0
 20 59  1  0  0  0  0
 20 60  1  0  0  0  0
 21 23  1  0  0  0  0
 23 24  1  0  0  0  0
 23 61  1  0  0  0  0
 24 26  1  0  0  0  0
 24 27  1  0  0  0  0
 24 28  1  0  0  0  0
 25 34  1  0  0  0  0
 25 38  1  0  0  0  0
 25 64  1  0  0  0  0
 26 65  1  0  0  0  0
 26 66  1  0  0  0  0
 26 67  1  0  0  0  0
 27 68  1  0  0  0  0
 27 69  1  0  0  0  0
 27 70  1  0  0  0  0
 28 71  1  0  0  0  0
 28 72  1  0  0  0  0
 28 73  1  0  0  0  0
 29 30  1  0  0  0  0
 29 32  1  0  0  0  0
 29 33  1  0  0  0  0
 29 74  1  0  0  0  0
 30 31  1  0  0  0  0
 30 75  1  0  0  0  0
 32 35  1  0  0  0  0
 32 76  1  0  0  0  0
 32 77  1  0  0  0  0
 33 36  1  0  0  0  0
 33 78  1  0  0  0  0
 33 79  1  0  0  0  0
 34 42  1  0  0  0  0
 34 80  1  0  0  0  0
 34 81  1  0  0  0  0
 35 37  1  0  0  0  0
 35 82  1  0  0  0  0
 35 83  1  0  0  0  0
 36 37  1  0  0  0  0
 36 84  1  0  0  0  0
 36 85  1  0  0  0  0
 37 86  1  0  0  0  0
 37 87  1  0  0  0  0
 38 43  1  0  0  0  0
 39 40  1  0  0  0  0
 39 41  1  0  0  0  0
 39 88  1  0  0  0  0
 40 41  1  0  0  0  0
 40 89  1  0  0  0  0
 40 90  1  0  0  0  0
 41 91  1  0  0  0  0
 41 92  1  0  0  0  0
 42 45  1  0  0  0  0
 42 94  1  0  0  0  0
 42 95  1  0  0  0  0
 44 46  1  0  0  0  0
 45 97  1  0  0  0  0
 45 98  1  0  0  0  0
 45 99  1  0  0  0  0
 46 47  1  0  0  0  0
 47100  1  0  0  0  0
 48 49  2  0  0  0  0
 48101  1  0  0  0  0
 49102  1  0  0  0  0
M  END
> <PUBCHEM_COMPOUND_CID>
514242
> <PUBCHEM_COMPOUND_CANONICALIZED>
1
> <PUBCHEM_CACTVS_COMPLEXITY>
1230
> <PUBCHEM_CACTVS_HBOND_ACCEPTOR>
8
> <PUBCHEM_CACTVS_HBOND_DONOR>
4
> <PUBCHEM_CACTVS_ROTATABLE_BOND>
14
> <PUBCHEM_CACTVS_SUBSKEYS>
AAADcfB/uAAAAAAAAAAAAAAAGAAAAAAAAAA8eLECAAAAAAABgAAAHgAQAAAADyzBlgQugBPIEACoAZV3VACAgCQXEiAIUIG4dEAAQFpAwCAUAIgAFgDAAMEYiICPAAAAAAAAAAAQAAAAAAAAAAAAAAAAAA==
> <PUBCHEM_IUPAC_OPENEYE_NAME>
(3S)-2-[2-[[(2S)-2-cyclohexyl-2-(pyrazine-2-carbonylamino)acetyl]amino]-3,3-dimethyl-butanoyl]-N-[(1S)-1-[2-(cyclopropylamino)-2-oxo-acetyl]butyl]-2-azabicyclo[2.2.2]octane-3-carboxamide
> <PUBCHEM_IUPAC_CAS_NAME>
(3S)-2-[2-[[(2S)-2-cyclohexyl-1-oxo-2-[[oxo(2-pyrazinyl)methyl]amino]ethyl]amino]-3,3-dimethyl-1-oxobutyl]-N-[(3S)-1-(cyclopropylamino)-1,2-dioxohexan-3-yl]-2-azabicyclo[2.2.2]octane-3-carboxamide
> <PUBCHEM_IUPAC_NAME_MARKUP>
(3<I>S</I>)-2-[2-[[(2<I>S</I>)-2-cyclohexyl-2-(pyrazine-2-carbonylamino)acetyl]amino]-3,3-dimethylbutanoyl]-<I>N</I>-[(3<I>S</I>)-1-(cyclopropylamino)-1,2-dioxohexan-3-yl]-2-azabicyclo[2.2.2]octane-3-carboxamide
> <PUBCHEM_IUPAC_NAME>
(3S)-2-[2-[[(2S)-2-cyclohexyl-2-(pyrazine-2-carbonylamino)acetyl]amino]-3,3-dimethylbutanoyl]-N-[(3S)-1-(cyclopropylamino)-1,2-dioxohexan-3-yl]-2-azabicyclo[2.2.2]octane-3-carboxamide
> <PUBCHEM_IUPAC_SYSTEMATIC_NAME>
(3S)-2-[2-[[(2S)-2-cyclohexyl-2-(pyrazin-2-ylcarbonylamino)ethanoyl]amino]-3,3-dimethyl-butanoyl]-N-[(3S)-1-(cyclopropylamino)-1,2-bis(oxidanylidene)hexan-3-yl]-2-azabicyclo[2.2.2]octane-3-carboxamide
> <PUBCHEM_IUPAC_TRADITIONAL_NAME>
(3S)-2-[2-[[(2S)-2-cyclohexyl-2-(pyrazinoylamino)acetyl]amino]-3,3-dimethyl-butanoyl]-N-[(1S)-1-[2-(cyclopropylamino)-2-keto-acetyl]butyl]-2-azabicyclo[2.2.2]octane-3-carboxamide
> <PUBCHEM_IUPAC_INCHI>
InChI=1S/C36H53N7O6/c1-5-9-25(29(44)34(48)39-23-14-15-23)40-33(47)28-22-12-16-24(17-13-22)43(28)35(49)30(36(2,3)4)42-32(46)27(21-10-7-6-8-11-21)41-31(45)26-20-37-18-19-38-26/h18-25,27-28,30H,5-17H2,1-4H3,(H,39,48)(H,40,47)(H,41,45)(H,42,46)/t22?,24?,25-,27-,28-,30?/m0/s1
> <PUBCHEM_IUPAC_INCHIKEY>
XSPSVPCUAASXRP-OTBSYZORSA-N
> <PUBCHEM_XLOGP3_AA>
4.2
> <PUBCHEM_EXACT_MASS>
679.40573244
> <PUBCHEM_MOLECULAR_FORMULA>
C36H53N7O6
> <PUBCHEM_MOLECULAR_WEIGHT>
679.8
> <PUBCHEM_OPENEYE_CAN_SMILES>
CCCC(C(=O)C(=O)NC1CC1)NC(=O)C2C3CCC(N2C(=O)C(C(C)(C)C)NC(=O)C(C4CCCCC4)NC(=O)C5=NC=CN=C5)CC3
> <PUBCHEM_OPENEYE_ISO_SMILES>
CCC[C@@H](C(=O)C(=O)NC1CC1)NC(=O)[C@@H]2C3CCC(N2C(=O)C(C(C)(C)C)NC(=O)[C@H](C4CCCCC4)NC(=O)C5=NC=CN=C5)CC3
> <PUBCHEM_CACTVS_TPSA>
180
> <PUBCHEM_MONOISOTOPIC_WEIGHT>
679.40573244
> <PUBCHEM_TOTAL_CHARGE>
0
> <PUBCHEM_HEAVY_ATOM_COUNT>
49
> <PUBCHEM_ATOM_DEF_STEREO_COUNT>
3
> <PUBCHEM_ATOM_UDEF_STEREO_COUNT>
1
> <PUBCHEM_BOND_DEF_STEREO_COUNT>
0
> <PUBCHEM_BOND_UDEF_STEREO_COUNT>
0
> <PUBCHEM_ISOTOPIC_ATOM_COUNT>
0
> <PUBCHEM_COMPONENT_COUNT>
1
> <PUBCHEM_CACTVS_TAUTO_COUNT>
-1
> <PUBCHEM_COORDINATE_TYPE>
1
5
255
> <PUBCHEM_BONDANNOTATIONS>
30  10  5
12  46  8
12  48  8
13  47  8
13  49  8
16  22  5
23  21  3
46  47  8
48  49  8
25  8  6
$$$$
