514215
  -OEChem-10302200282D
 74 77  0     1  0  0  0  0  0999 V2000
   11.7920    1.0939    0.0000 O   0  0  0  0  0  0  0  0  0  0  0  0
    8.1886    1.2196    0.0000 O   0  0  0  0  0  0  0  0  0  0  0  0
    7.9244   -2.3763    0.0000 O   0  0  0  0  0  0  0  0  0  0  0  0
    7.6138   -3.3268    0.0000 O   0  0  0  0  0  0  0  0  0  0  0  0
    6.3246   -4.4836    0.0000 O   0  0  0  0  0  0  0  0  0  0  0  0
   10.1456    1.6320    0.0000 N   0  0  0  0  0  0  0  0  0  0  0  0
    8.5458   -0.4753    0.0000 N   0  0  0  0  0  0  0  0  0  0  0  0
   12.7239    5.5549    0.0000 N   0  0  0  0  0  0  0  0  0  0  0  0
   10.7669    3.5330    0.0000 N   0  0  0  0  0  0  0  0  0  0  0  0
    6.2781   -1.8382    0.0000 N   0  0  0  0  0  0  0  0  0  0  0  0
    4.6783   -5.5549    0.0000 N   0  0  0  0  0  0  0  0  0  0  0  0
    9.8349    0.6815    0.0000 C   0  0  1  0  0  0  0  0  0  0  0  0
   10.5028   -0.0628    0.0000 C   0  0  0  0  0  0  0  0  0  0  0  0
   11.4348    2.7887    0.0000 C   0  0  1  0  0  0  0  0  0  0  0  0
   12.4133    2.9950    0.0000 C   0  0  0  0  0  0  0  0  0  0  0  0
   12.7239    3.9455    0.0000 C   0  0  0  0  0  0  0  0  0  0  0  0
   11.1241    1.8382    0.0000 C   0  0  0  0  0  0  0  0  0  0  0  0
    8.8564    0.4753    0.0000 C   0  0  0  0  0  0  0  0  0  0  0  0
   11.4813    0.1434    0.0000 C   0  0  0  0  0  0  0  0  0  0  0  0
   10.1921   -1.0133    0.0000 C   0  0  0  0  0  0  0  0  0  0  0  0
   13.6702    4.2502    0.0000 C   0  0  0  0  0  0  0  0  0  0  0  0
    4.9889   -2.9950    0.0000 C   0  0  0  0  0  0  0  0  0  0  0  0
    5.9674   -2.7887    0.0000 C   0  0  1  0  0  0  0  0  0  0  0  0
    4.6783   -3.9455    0.0000 C   0  0  0  0  0  0  0  0  0  0  0  0
   13.6702    5.2502    0.0000 C   0  0  0  0  0  0  0  0  0  0  0  0
   12.1403    4.7502    0.0000 C   0  0  0  0  0  0  0  0  0  0  0  0
    3.7320   -4.2502    0.0000 C   0  0  0  0  0  0  0  0  0  0  0  0
    7.5673   -0.6815    0.0000 C   0  0  0  0  0  0  0  0  0  0  0  0
    3.7320   -5.2502    0.0000 C   0  0  0  0  0  0  0  0  0  0  0  0
    5.2619   -4.7502    0.0000 C   0  0  0  0  0  0  0  0  0  0  0  0
   14.5362    3.7502    0.0000 C   0  0  0  0  0  0  0  0  0  0  0  0
    7.2566   -1.6320    0.0000 C   0  0  0  0  0  0  0  0  0  0  0  0
   14.5362    5.7502    0.0000 C   0  0  0  0  0  0  0  0  0  0  0  0
    2.8660   -3.7502    0.0000 C   0  0  0  0  0  0  0  0  0  0  0  0
    6.6353   -3.5330    0.0000 C   0  0  0  0  0  0  0  0  0  0  0  0
    2.8660   -5.7502    0.0000 C   0  0  0  0  0  0  0  0  0  0  0  0
   15.4022    4.2502    0.0000 C   0  0  0  0  0  0  0  0  0  0  0  0
   15.4022    5.2502    0.0000 C   0  0  0  0  0  0  0  0  0  0  0  0
    2.0000   -4.2502    0.0000 C   0  0  0  0  0  0  0  0  0  0  0  0
    2.0000   -5.2502    0.0000 C   0  0  0  0  0  0  0  0  0  0  0  0
    9.4209    1.1430    0.0000 H   0  0  0  0  0  0  0  0  0  0  0  0
   10.9169   -0.5243    0.0000 H   0  0  0  0  0  0  0  0  0  0  0  0
   10.8281    2.6609    0.0000 H   0  0  0  0  0  0  0  0  0  0  0  0
   12.4338    2.3753    0.0000 H   0  0  0  0  0  0  0  0  0  0  0  0
   13.0271    2.9076    0.0000 H   0  0  0  0  0  0  0  0  0  0  0  0
    9.7315    2.0935    0.0000 H   0  0  0  0  0  0  0  0  0  0  0  0
   11.6091   -0.4633    0.0000 H   0  0  0  0  0  0  0  0  0  0  0  0
   12.0880    0.2713    0.0000 H   0  0  0  0  0  0  0  0  0  0  0  0
   11.3534    0.7501    0.0000 H   0  0  0  0  0  0  0  0  0  0  0  0
    9.6028   -0.8207    0.0000 H   0  0  0  0  0  0  0  0  0  0  0  0
    9.9995   -1.6027    0.0000 H   0  0  0  0  0  0  0  0  0  0  0  0
   10.7814   -1.2060    0.0000 H   0  0  0  0  0  0  0  0  0  0  0  0
    4.9684   -2.3753    0.0000 H   0  0  0  0  0  0  0  0  0  0  0  0
    4.3751   -2.9076    0.0000 H   0  0  0  0  0  0  0  0  0  0  0  0
    5.5534   -2.3273    0.0000 H   0  0  0  0  0  0  0  0  0  0  0  0
   11.5203    4.7502    0.0000 H   0  0  0  0  0  0  0  0  0  0  0  0
    8.9598   -0.9367    0.0000 H   0  0  0  0  0  0  0  0  0  0  0  0
    7.5467   -0.0618    0.0000 H   0  0  0  0  0  0  0  0  0  0  0  0
    6.9534   -0.5941    0.0000 H   0  0  0  0  0  0  0  0  0  0  0  0
   12.5313    6.1443    0.0000 H   0  0  0  0  0  0  0  0  0  0  0  0
   10.1603    3.4052    0.0000 H   0  0  0  0  0  0  0  0  0  0  0  0
   10.9595    4.1224    0.0000 H   0  0  0  0  0  0  0  0  0  0  0  0
    5.8640   -1.3768    0.0000 H   0  0  0  0  0  0  0  0  0  0  0  0
    5.8819   -4.7502    0.0000 H   0  0  0  0  0  0  0  0  0  0  0  0
   14.5362    3.1302    0.0000 H   0  0  0  0  0  0  0  0  0  0  0  0
    4.8709   -6.1443    0.0000 H   0  0  0  0  0  0  0  0  0  0  0  0
   14.5362    6.3702    0.0000 H   0  0  0  0  0  0  0  0  0  0  0  0
    2.8660   -3.1302    0.0000 H   0  0  0  0  0  0  0  0  0  0  0  0
    2.8660   -6.3702    0.0000 H   0  0  0  0  0  0  0  0  0  0  0  0
   15.9391    3.9402    0.0000 H   0  0  0  0  0  0  0  0  0  0  0  0
   15.9391    5.5602    0.0000 H   0  0  0  0  0  0  0  0  0  0  0  0
    1.4631   -3.9402    0.0000 H   0  0  0  0  0  0  0  0  0  0  0  0
    1.4631   -5.5602    0.0000 H   0  0  0  0  0  0  0  0  0  0  0  0
    8.0279   -3.7883    0.0000 H   0  0  0  0  0  0  0  0  0  0  0  0
  1 17  2  0  0  0  0
  2 18  2  0  0  0  0
  3 32  2  0  0  0  0
  4 35  1  0  0  0  0
  4 74  1  0  0  0  0
  5 35  2  0  0  0  0
 12  6  1  1  0  0  0
  6 17  1  0  0  0  0
  6 46  1  0  0  0  0
  7 18  1  0  0  0  0
  7 28  1  0  0  0  0
  7 57  1  0  0  0  0
  8 25  1  0  0  0  0
  8 26  1  0  0  0  0
  8 60  1  0  0  0  0
 14  9  1  1  0  0  0
  9 61  1  0  0  0  0
  9 62  1  0  0  0  0
 23 10  1  6  0  0  0
 10 32  1  0  0  0  0
 10 63  1  0  0  0  0
 11 29  1  0  0  0  0
 11 30  1  0  0  0  0
 11 66  1  0  0  0  0
 12 13  1  0  0  0  0
 12 18  1  0  0  0  0
 12 41  1  0  0  0  0
 13 19  1  0  0  0  0
 13 20  1  0  0  0  0
 13 42  1  0  0  0  0
 14 15  1  0  0  0  0
 14 17  1  0  0  0  0
 14 43  1  0  0  0  0
 15 16  1  0  0  0  0
 15 44  1  0  0  0  0
 15 45  1  0  0  0  0
 16 21  1  0  0  0  0
 16 26  2  0  0  0  0
 19 47  1  0  0  0  0
 19 48  1  0  0  0  0
 19 49  1  0  0  0  0
 20 50  1  0  0  0  0
 20 51  1  0  0  0  0
 20 52  1  0  0  0  0
 21 25  1  0  0  0  0
 21 31  2  0  0  0  0
 22 23  1  0  0  0  0
 22 24  1  0  0  0  0
 22 53  1  0  0  0  0
 22 54  1  0  0  0  0
 23 35  1  0  0  0  0
 23 55  1  0  0  0  0
 24 27  1  0  0  0  0
 24 30  2  0  0  0  0
 25 33  2  0  0  0  0
 26 56  1  0  0  0  0
 27 29  1  0  0  0  0
 27 34  2  0  0  0  0
 28 32  1  0  0  0  0
 28 58  1  0  0  0  0
 28 59  1  0  0  0  0
 29 36  2  0  0  0  0
 30 64  1  0  0  0  0
 31 37  1  0  0  0  0
 31 65  1  0  0  0  0
 33 38  1  0  0  0  0
 33 67  1  0  0  0  0
 34 39  1  0  0  0  0
 34 68  1  0  0  0  0
 36 40  1  0  0  0  0
 36 69  1  0  0  0  0
 37 38  2  0  0  0  0
 37 70  1  0  0  0  0
 38 71  1  0  0  0  0
 39 40  2  0  0  0  0
 39 72  1  0  0  0  0
 40 73  1  0  0  0  0
M  END
> <PUBCHEM_COMPOUND_CID>
514215
> <PUBCHEM_COMPOUND_CANONICALIZED>
1
> <PUBCHEM_CACTVS_COMPLEXITY>
915
> <PUBCHEM_CACTVS_HBOND_ACCEPTOR>
6
> <PUBCHEM_CACTVS_HBOND_DONOR>
7
> <PUBCHEM_CACTVS_ROTATABLE_BOND>
12
> <PUBCHEM_CACTVS_SUBSKEYS>
AAADcfB7uAAAAAAAAAAAAAAAAAAAAWLAAAAwYAAAAAAAAFgB/gAAHgAQCAAADSjBngQ+yPLJkgCoAzX3XACCgCAxAiAI2aG4ZJgKYPLAkbGUYAhklgDYyAeY2fKOgAAAAAACAAAAAAAAAAQAAAAAAAAAAA==
> <PUBCHEM_IUPAC_OPENEYE_NAME>
(2S)-2-[[2-[[(2S)-2-[[(2S)-2-amino-3-(1H-indol-3-yl)propanoyl]amino]-3-methyl-butanoyl]amino]acetyl]amino]-3-(1H-indol-3-yl)propanoic acid
> <PUBCHEM_IUPAC_CAS_NAME>
(2S)-2-[[2-[[(2S)-2-[[(2S)-2-amino-3-(1H-indol-3-yl)-1-oxopropyl]amino]-3-methyl-1-oxobutyl]amino]-1-oxoethyl]amino]-3-(1H-indol-3-yl)propanoic acid
> <PUBCHEM_IUPAC_NAME_MARKUP>
(2<I>S</I>)-2-[[2-[[(2<I>S</I>)-2-[[(2<I>S</I>)-2-amino-3-(1<I>H</I>-indol-3-yl)propanoyl]amino]-3-methylbutanoyl]amino]acetyl]amino]-3-(1<I>H</I>-indol-3-yl)propanoic acid
> <PUBCHEM_IUPAC_NAME>
(2S)-2-[[2-[[(2S)-2-[[(2S)-2-amino-3-(1H-indol-3-yl)propanoyl]amino]-3-methylbutanoyl]amino]acetyl]amino]-3-(1H-indol-3-yl)propanoic acid
> <PUBCHEM_IUPAC_SYSTEMATIC_NAME>
(2S)-2-[2-[[(2S)-2-[[(2S)-2-azanyl-3-(1H-indol-3-yl)propanoyl]amino]-3-methyl-butanoyl]amino]ethanoylamino]-3-(1H-indol-3-yl)propanoic acid
> <PUBCHEM_IUPAC_TRADITIONAL_NAME>
(2S)-2-[[2-[[(2S)-2-[[(2S)-2-amino-3-(1H-indol-3-yl)propanoyl]amino]-3-methyl-butanoyl]amino]acetyl]amino]-3-(1H-indol-3-yl)propionic acid
> <PUBCHEM_IUPAC_INCHI>
InChI=1S/C29H34N6O5/c1-16(2)26(35-27(37)21(30)11-17-13-31-22-9-5-3-7-19(17)22)28(38)33-15-25(36)34-24(29(39)40)12-18-14-32-23-10-6-4-8-20(18)23/h3-10,13-14,16,21,24,26,31-32H,11-12,15,30H2,1-2H3,(H,33,38)(H,34,36)(H,35,37)(H,39,40)/t21-,24-,26-/m0/s1
> <PUBCHEM_IUPAC_INCHIKEY>
OFXHTAUDMMIRQW-CVJWPJSTSA-N
> <PUBCHEM_XLOGP3>
-0.2
> <PUBCHEM_EXACT_MASS>
546.25906821
> <PUBCHEM_MOLECULAR_FORMULA>
C29H34N6O5
> <PUBCHEM_MOLECULAR_WEIGHT>
546.6
> <PUBCHEM_OPENEYE_CAN_SMILES>
CC(C)C(C(=O)NCC(=O)NC(CC1=CNC2=CC=CC=C21)C(=O)O)NC(=O)C(CC3=CNC4=CC=CC=C43)N
> <PUBCHEM_OPENEYE_ISO_SMILES>
CC(C)[C@@H](C(=O)NCC(=O)N[C@@H](CC1=CNC2=CC=CC=C21)C(=O)O)NC(=O)[C@H](CC3=CNC4=CC=CC=C43)N
> <PUBCHEM_CACTVS_TPSA>
182
> <PUBCHEM_MONOISOTOPIC_WEIGHT>
546.25906821
> <PUBCHEM_TOTAL_CHARGE>
0
> <PUBCHEM_HEAVY_ATOM_COUNT>
40
> <PUBCHEM_ATOM_DEF_STEREO_COUNT>
3
> <PUBCHEM_ATOM_UDEF_STEREO_COUNT>
0
> <PUBCHEM_BOND_DEF_STEREO_COUNT>
0
> <PUBCHEM_BOND_UDEF_STEREO_COUNT>
0
> <PUBCHEM_ISOTOPIC_ATOM_COUNT>
0
> <PUBCHEM_COMPONENT_COUNT>
1
> <PUBCHEM_CACTVS_TAUTO_COUNT>
-1
> <PUBCHEM_COORDINATE_TYPE>
1
5
255
> <PUBCHEM_BONDANNOTATIONS>
23  10  6
11  29  8
11  30  8
16  21  8
16  26  8
21  25  8
21  31  8
24  27  8
24  30  8
25  33  8
27  29  8
27  34  8
29  36  8
31  37  8
33  38  8
34  39  8
36  40  8
37  38  8
39  40  8
12  6  5
8  25  8
8  26  8
14  9  5
$$$$
