514222
  -OEChem-10302200282D
149154  0     1  0  0  0  0  0999 V2000
   14.3312    1.8651    0.0000 O   0  0  0  0  0  0  0  0  0  0  0  0
   11.5991    4.3651    0.0000 O   0  0  0  0  0  0  0  0  0  0  0  0
    6.1350    4.3651    0.0000 O   0  0  0  0  0  0  0  0  0  0  0  0
    8.8671    1.8651    0.0000 O   0  0  0  0  0  0  0  0  0  0  0  0
    2.5369    3.3651    0.0000 O   0  0  0  0  0  0  0  0  0  0  0  0
   13.8626   -5.1349    0.0000 O   0  0  0  0  0  0  0  0  0  0  0  0
    3.4030    1.8651    0.0000 O   0  0  0  0  0  0  0  0  0  0  0  0
   11.1305   -2.6349    0.0000 O   0  0  0  0  0  0  0  0  0  0  0  0
    8.3985   -5.1349    0.0000 O   0  0  0  0  0  0  0  0  0  0  0  0
   14.7286   -2.6349    0.0000 O   0  0  0  0  0  0  0  0  0  0  0  0
   13.8626   -1.1349    0.0000 O   0  0  0  0  0  0  0  0  0  0  0  0
   11.9965   -7.1349    0.0000 O   0  0  0  0  0  0  0  0  0  0  0  0
   10.2645   -7.1349    0.0000 O   0  0  0  0  0  0  0  0  0  0  0  0
   13.3312    3.3651    0.0000 N   0  0  0  0  0  0  0  0  0  0  0  0
    5.1350    2.8651    0.0000 N   0  0  0  0  0  0  0  0  0  0  0  0
    7.8671    3.3651    0.0000 N   0  0  0  0  0  0  0  0  0  0  0  0
   16.0632    2.8651    0.0000 N   0  0  0  0  0  0  0  0  0  0  0  0
   10.5991    2.8651    0.0000 N   0  0  0  0  0  0  0  0  0  0  0  0
   12.1305   -4.1349    0.0000 N   0  0  0  0  0  0  0  0  0  0  0  0
   17.6381    5.1970    0.0000 N   0  0  0  0  0  0  0  0  0  0  0  0
    4.5601    1.0332    0.0000 N   0  0  0  0  0  0  0  0  0  0  0  0
    9.3985   -3.6349    0.0000 N   0  0  0  0  0  0  0  0  0  0  0  0
    6.6664   -4.1349    0.0000 N   0  0  0  0  0  0  0  0  0  0  0  0
    9.9733   -1.8030    0.0000 N   0  0  0  0  0  0  0  0  0  0  0  0
   12.4651    2.8651    0.0000 C   0  0  1  0  0  0  0  0  0  0  0  0
   12.4651    1.8651    0.0000 C   0  0  0  0  0  0  0  0  0  0  0  0
    4.2690    4.3651    0.0000 C   0  0  2  0  0  0  0  0  0  0  0  0
   15.1972    3.3651    0.0000 C   0  0  1  0  0  0  0  0  0  0  0  0
    4.2690    3.3651    0.0000 C   0  0  1  0  0  0  0  0  0  0  0  0
    7.0010    2.8651    0.0000 C   0  0  1  0  0  0  0  0  0  0  0  0
   15.1972    4.3651    0.0000 C   0  0  0  0  0  0  0  0  0  0  0  0
    7.0010    1.8651    0.0000 C   0  0  0  0  0  0  0  0  0  0  0  0
   14.3312    2.8651    0.0000 C   0  0  0  0  0  0  0  0  0  0  0  0
    3.4030    4.8651    0.0000 C   0  0  0  0  0  0  0  0  0  0  0  0
   11.5991    3.3651    0.0000 C   0  0  0  0  0  0  0  0  0  0  0  0
   16.0632    4.8651    0.0000 C   0  0  0  0  0  0  0  0  0  0  0  0
    9.7331    3.3651    0.0000 C   0  0  2  0  0  0  0  0  0  0  0  0
    6.1350    3.3651    0.0000 C   0  0  0  0  0  0  0  0  0  0  0  0
    6.1350    1.3651    0.0000 C   0  0  0  0  0  0  0  0  0  0  0  0
   13.3312    1.3651    0.0000 C   0  0  0  0  0  0  0  0  0  0  0  0
   11.5991    1.3651    0.0000 C   0  0  0  0  0  0  0  0  0  0  0  0
    5.1350    4.8651    0.0000 C   0  0  0  0  0  0  0  0  0  0  0  0
   12.9965   -3.6349    0.0000 C   0  0  2  0  0  0  0  0  0  0  0  0
    8.8671    2.8651    0.0000 C   0  0  0  0  0  0  0  0  0  0  0  0
   16.1663    5.8538    0.0000 C   0  0  0  0  0  0  0  0  0  0  0  0
    6.0320    0.3764    0.0000 C   0  0  0  0  0  0  0  0  0  0  0  0
   13.8626   -4.1349    0.0000 C   0  0  0  0  0  0  0  0  0  0  0  0
    3.4030    2.8651    0.0000 C   0  0  0  0  0  0  0  0  0  0  0  0
   16.9710    4.4600    0.0000 C   0  0  0  0  0  0  0  0  0  0  0  0
   17.1448    6.0601    0.0000 C   0  0  0  0  0  0  0  0  0  0  0  0
   10.2645   -4.1349    0.0000 C   0  0  1  0  0  0  0  0  0  0  0  0
    3.4030    5.8651    0.0000 C   0  0  0  0  0  0  0  0  0  0  0  0
    5.2272    1.7702    0.0000 C   0  0  0  0  0  0  0  0  0  0  0  0
    5.0534    0.1702    0.0000 C   0  0  0  0  0  0  0  0  0  0  0  0
    9.7331    4.3651    0.0000 C   0  0  0  0  0  0  0  0  0  0  0  0
   12.9965   -2.6349    0.0000 C   0  0  0  0  0  0  0  0  0  0  0  0
   10.2645   -5.1349    0.0000 C   0  0  0  0  0  0  0  0  0  0  0  0
   11.1305   -3.6349    0.0000 C   0  0  0  0  0  0  0  0  0  0  0  0
   15.4984    6.5981    0.0000 C   0  0  0  0  0  0  0  0  0  0  0  0
    7.5324   -3.6349    0.0000 C   0  0  1  0  0  0  0  0  0  0  0  0
    6.6998   -0.3679    0.0000 C   0  0  0  0  0  0  0  0  0  0  0  0
    7.5324   -2.6349    0.0000 C   0  0  0  0  0  0  0  0  0  0  0  0
   17.4554    7.0106    0.0000 C   0  0  0  0  0  0  0  0  0  0  0  0
    4.7428   -0.7803    0.0000 C   0  0  0  0  0  0  0  0  0  0  0  0
    8.3985   -4.1349    0.0000 C   0  0  0  0  0  0  0  0  0  0  0  0
    8.3985   -2.1349    0.0000 C   0  0  0  0  0  0  0  0  0  0  0  0
   11.1305   -5.6349    0.0000 C   0  0  0  0  0  0  0  0  0  0  0  0
   15.8091    7.5487    0.0000 C   0  0  0  0  0  0  0  0  0  0  0  0
   16.7876    7.7549    0.0000 C   0  0  0  0  0  0  0  0  0  0  0  0
    6.3891   -1.3184    0.0000 C   0  0  0  0  0  0  0  0  0  0  0  0
    8.5015   -1.1462    0.0000 C   0  0  0  0  0  0  0  0  0  0  0  0
    5.4106   -1.5246    0.0000 C   0  0  0  0  0  0  0  0  0  0  0  0
   13.8626   -2.1349    0.0000 C   0  0  0  0  0  0  0  0  0  0  0  0
    9.4800   -0.9399    0.0000 C   0  0  0  0  0  0  0  0  0  0  0  0
    9.3063   -2.5400    0.0000 C   0  0  0  0  0  0  0  0  0  0  0  0
    7.8337   -0.4019    0.0000 C   0  0  0  0  0  0  0  0  0  0  0  0
   11.1305   -6.6349    0.0000 C   0  0  0  0  0  0  0  0  0  0  0  0
    9.7907    0.0106    0.0000 C   0  0  0  0  0  0  0  0  0  0  0  0
    8.1443    0.5487    0.0000 C   0  0  0  0  0  0  0  0  0  0  0  0
    9.1228    0.7549    0.0000 C   0  0  0  0  0  0  0  0  0  0  0  0
   13.0021    2.5551    0.0000 H   0  0  0  0  0  0  0  0  0  0  0  0
   11.9282    2.1751    0.0000 H   0  0  0  0  0  0  0  0  0  0  0  0
    4.8059    4.0551    0.0000 H   0  0  0  0  0  0  0  0  0  0  0  0
   15.1972    2.7451    0.0000 H   0  0  0  0  0  0  0  0  0  0  0  0
    4.2690    2.7451    0.0000 H   0  0  0  0  0  0  0  0  0  0  0  0
    7.5380    2.5551    0.0000 H   0  0  0  0  0  0  0  0  0  0  0  0
   14.9851    4.9477    0.0000 H   0  0  0  0  0  0  0  0  0  0  0  0
   14.5866    4.2575    0.0000 H   0  0  0  0  0  0  0  0  0  0  0  0
    7.2131    1.2825    0.0000 H   0  0  0  0  0  0  0  0  0  0  0  0
    7.6116    1.9728    0.0000 H   0  0  0  0  0  0  0  0  0  0  0  0
   13.8681    3.6751    0.0000 H   0  0  0  0  0  0  0  0  0  0  0  0
    2.7924    4.9728    0.0000 H   0  0  0  0  0  0  0  0  0  0  0  0
    3.1909    4.2825    0.0000 H   0  0  0  0  0  0  0  0  0  0  0  0
   10.2700    3.6751    0.0000 H   0  0  0  0  0  0  0  0  0  0  0  0
    5.6720    2.5551    0.0000 H   0  0  0  0  0  0  0  0  0  0  0  0
    8.4040    3.6751    0.0000 H   0  0  0  0  0  0  0  0  0  0  0  0
   16.6001    2.5551    0.0000 H   0  0  0  0  0  0  0  0  0  0  0  0
   13.0212    0.8282    0.0000 H   0  0  0  0  0  0  0  0  0  0  0  0
   13.8681    1.0551    0.0000 H   0  0  0  0  0  0  0  0  0  0  0  0
   13.6412    1.9020    0.0000 H   0  0  0  0  0  0  0  0  0  0  0  0
   11.2891    1.9020    0.0000 H   0  0  0  0  0  0  0  0  0  0  0  0
   11.0622    1.0551    0.0000 H   0  0  0  0  0  0  0  0  0  0  0  0
   11.9091    0.8282    0.0000 H   0  0  0  0  0  0  0  0  0  0  0  0
    5.4450    4.3282    0.0000 H   0  0  0  0  0  0  0  0  0  0  0  0
    5.6720    5.1751    0.0000 H   0  0  0  0  0  0  0  0  0  0  0  0
    4.8250    5.4021    0.0000 H   0  0  0  0  0  0  0  0  0  0  0  0
   11.1360    2.5551    0.0000 H   0  0  0  0  0  0  0  0  0  0  0  0
   12.4596   -3.3249    0.0000 H   0  0  0  0  0  0  0  0  0  0  0  0
   17.0989    3.8533    0.0000 H   0  0  0  0  0  0  0  0  0  0  0  0
    9.7276   -4.4449    0.0000 H   0  0  0  0  0  0  0  0  0  0  0  0
    4.0230    5.8651    0.0000 H   0  0  0  0  0  0  0  0  0  0  0  0
    3.4030    6.4851    0.0000 H   0  0  0  0  0  0  0  0  0  0  0  0
    2.7830    5.8651    0.0000 H   0  0  0  0  0  0  0  0  0  0  0  0
    5.0994    2.3769    0.0000 H   0  0  0  0  0  0  0  0  0  0  0  0
   10.3531    4.3651    0.0000 H   0  0  0  0  0  0  0  0  0  0  0  0
    9.7331    4.9851    0.0000 H   0  0  0  0  0  0  0  0  0  0  0  0
    9.1131    4.3651    0.0000 H   0  0  0  0  0  0  0  0  0  0  0  0
   12.6675   -4.4449    0.0000 H   0  0  0  0  0  0  0  0  0  0  0  0
   18.2545    5.1301    0.0000 H   0  0  0  0  0  0  0  0  0  0  0  0
   12.7845   -2.0523    0.0000 H   0  0  0  0  0  0  0  0  0  0  0  0
   12.3860   -2.7425    0.0000 H   0  0  0  0  0  0  0  0  0  0  0  0
    3.9438    1.1002    0.0000 H   0  0  0  0  0  0  0  0  0  0  0  0
    9.6539   -5.0272    0.0000 H   0  0  0  0  0  0  0  0  0  0  0  0
   10.0524   -5.7175    0.0000 H   0  0  0  0  0  0  0  0  0  0  0  0
   14.8917    6.4703    0.0000 H   0  0  0  0  0  0  0  0  0  0  0  0
    7.5324   -4.2549    0.0000 H   0  0  0  0  0  0  0  0  0  0  0  0
    7.3065   -0.2400    0.0000 H   0  0  0  0  0  0  0  0  0  0  0  0
    9.9354   -3.3249    0.0000 H   0  0  0  0  0  0  0  0  0  0  0  0
    7.3204   -2.0523    0.0000 H   0  0  0  0  0  0  0  0  0  0  0  0
    6.9219   -2.7425    0.0000 H   0  0  0  0  0  0  0  0  0  0  0  0
   18.0621    7.1384    0.0000 H   0  0  0  0  0  0  0  0  0  0  0  0
    4.1361   -0.9082    0.0000 H   0  0  0  0  0  0  0  0  0  0  0  0
   11.7411   -5.7425    0.0000 H   0  0  0  0  0  0  0  0  0  0  0  0
   11.3426   -5.0523    0.0000 H   0  0  0  0  0  0  0  0  0  0  0  0
   15.3950    8.0101    0.0000 H   0  0  0  0  0  0  0  0  0  0  0  0
   16.9802    8.3442    0.0000 H   0  0  0  0  0  0  0  0  0  0  0  0
    6.8032   -1.7799    0.0000 H   0  0  0  0  0  0  0  0  0  0  0  0
    5.2180   -2.1140    0.0000 H   0  0  0  0  0  0  0  0  0  0  0  0
    2.0000    3.0551    0.0000 H   0  0  0  0  0  0  0  0  0  0  0  0
    9.4341   -3.1467    0.0000 H   0  0  0  0  0  0  0  0  0  0  0  0
    6.6664   -4.7549    0.0000 H   0  0  0  0  0  0  0  0  0  0  0  0
    7.2034   -3.8249    0.0000 H   0  0  0  0  0  0  0  0  0  0  0  0
   10.5897   -1.8699    0.0000 H   0  0  0  0  0  0  0  0  0  0  0  0
    7.2270   -0.5297    0.0000 H   0  0  0  0  0  0  0  0  0  0  0  0
   10.3974    0.1384    0.0000 H   0  0  0  0  0  0  0  0  0  0  0  0
    7.7303    1.0101    0.0000 H   0  0  0  0  0  0  0  0  0  0  0  0
    9.3155    1.3442    0.0000 H   0  0  0  0  0  0  0  0  0  0  0  0
   15.2655   -2.3249    0.0000 H   0  0  0  0  0  0  0  0  0  0  0  0
   11.9965   -7.7549    0.0000 H   0  0  0  0  0  0  0  0  0  0  0  0
  1 33  2  0  0  0  0
  2 35  2  0  0  0  0
  3 38  2  0  0  0  0
  4 44  2  0  0  0  0
  5 48  1  0  0  0  0
  5139  1  0  0  0  0
  6 47  2  0  0  0  0
  7 48  2  0  0  0  0
  8 58  2  0  0  0  0
  9 65  2  0  0  0  0
 10 73  1  0  0  0  0
 10148  1  0  0  0  0
 11 73  2  0  0  0  0
 12 77  1  0  0  0  0
 12149  1  0  0  0  0
 13 77  2  0  0  0  0
 25 14  1  1  0  0  0
 14 33  1  0  0  0  0
 14 91  1  0  0  0  0
 29 15  1  6  0  0  0
 15 38  1  0  0  0  0
 15 95  1  0  0  0  0
 30 16  1  1  0  0  0
 16 44  1  0  0  0  0
 16 96  1  0  0  0  0
 28 17  1  6  0  0  0
 17 47  1  0  0  0  0
 17 97  1  0  0  0  0
 18 35  1  0  0  0  0
 37 18  1  6  0  0  0
 18107  1  0  0  0  0
 43 19  1  1  0  0  0
 19 58  1  0  0  0  0
 19118  1  0  0  0  0
 20 49  1  0  0  0  0
 20 50  1  0  0  0  0
 20119  1  0  0  0  0
 21 53  1  0  0  0  0
 21 54  1  0  0  0  0
 21122  1  0  0  0  0
 51 22  1  6  0  0  0
 22 65  1  0  0  0  0
 22128  1  0  0  0  0
 60 23  1  1  0  0  0
 23141  1  0  0  0  0
 23142  1  0  0  0  0
 24 74  1  0  0  0  0
 24 75  1  0  0  0  0
 24143  1  0  0  0  0
 25 26  1  0  0  0  0
 25 35  1  0  0  0  0
 25 81  1  0  0  0  0
 26 40  1  0  0  0  0
 26 41  1  0  0  0  0
 26 82  1  0  0  0  0
 27 29  1  0  0  0  0
 27 34  1  0  0  0  0
 27 42  1  6  0  0  0
 27 83  1  0  0  0  0
 28 31  1  0  0  0  0
 28 33  1  0  0  0  0
 28 84  1  0  0  0  0
 29 48  1  0  0  0  0
 29 85  1  0  0  0  0
 30 32  1  0  0  0  0
 30 38  1  0  0  0  0
 30 86  1  0  0  0  0
 31 36  1  0  0  0  0
 31 87  1  0  0  0  0
 31 88  1  0  0  0  0
 32 39  1  0  0  0  0
 32 89  1  0  0  0  0
 32 90  1  0  0  0  0
 34 52  1  0  0  0  0
 34 92  1  0  0  0  0
 34 93  1  0  0  0  0
 36 45  1  0  0  0  0
 36 49  2  0  0  0  0
 37 44  1  0  0  0  0
 37 55  1  0  0  0  0
 37 94  1  0  0  0  0
 39 46  1  0  0  0  0
 39 53  2  0  0  0  0
 40 98  1  0  0  0  0
 40 99  1  0  0  0  0
 40100  1  0  0  0  0
 41101  1  0  0  0  0
 41102  1  0  0  0  0
 41103  1  0  0  0  0
 42104  1  0  0  0  0
 42105  1  0  0  0  0
 42106  1  0  0  0  0
 43 47  1  0  0  0  0
 43 56  1  0  0  0  0
 43108  1  0  0  0  0
 45 50  1  0  0  0  0
 45 59  2  0  0  0  0
 46 54  1  0  0  0  0
 46 61  2  0  0  0  0
 49109  1  0  0  0  0
 50 63  2  0  0  0  0
 51 57  1  0  0  0  0
 51 58  1  0  0  0  0
 51110  1  0  0  0  0
 52111  1  0  0  0  0
 52112  1  0  0  0  0
 52113  1  0  0  0  0
 53114  1  0  0  0  0
 54 64  2  0  0  0  0
 55115  1  0  0  0  0
 55116  1  0  0  0  0
 55117  1  0  0  0  0
 56 73  1  0  0  0  0
 56120  1  0  0  0  0
 56121  1  0  0  0  0
 57 67  1  0  0  0  0
 57123  1  0  0  0  0
 57124  1  0  0  0  0
 59 68  1  0  0  0  0
 59125  1  0  0  0  0
 60 62  1  0  0  0  0
 60 65  1  0  0  0  0
 60126  1  0  0  0  0
 61 70  1  0  0  0  0
 61127  1  0  0  0  0
 62 66  1  0  0  0  0
 62129  1  0  0  0  0
 62130  1  0  0  0  0
 63 69  1  0  0  0  0
 63131  1  0  0  0  0
 64 72  1  0  0  0  0
 64132  1  0  0  0  0
 66 71  1  0  0  0  0
 66 75  2  0  0  0  0
 67 77  1  0  0  0  0
 67133  1  0  0  0  0
 67134  1  0  0  0  0
 68 69  2  0  0  0  0
 68135  1  0  0  0  0
 69136  1  0  0  0  0
 70 72  2  0  0  0  0
 70137  1  0  0  0  0
 71 74  1  0  0  0  0
 71 76  2  0  0  0  0
 72138  1  0  0  0  0
 74 78  2  0  0  0  0
 75140  1  0  0  0  0
 76 79  1  0  0  0  0
 76144  1  0  0  0  0
 78 80  1  0  0  0  0
 78145  1  0  0  0  0
 79 80  2  0  0  0  0
 79146  1  0  0  0  0
 80147  1  0  0  0  0
M  END
> <PUBCHEM_COMPOUND_CID>
514222
> <PUBCHEM_COMPOUND_CANONICALIZED>
1
> <PUBCHEM_CACTVS_COMPLEXITY>
2200
> <PUBCHEM_CACTVS_HBOND_ACCEPTOR>
14
> <PUBCHEM_CACTVS_HBOND_DONOR>
14
> <PUBCHEM_CACTVS_ROTATABLE_BOND>
29
> <PUBCHEM_CACTVS_SUBSKEYS>
AAADcfB//AAAAAAAAAAAAAAAAAAAAWLFgAAwYMAAAAAAAFgB/gAAHgAQCAAADSjBngQ+yPLJkgCoAzX3XACCgCAxAiAI2aG4ZJgKYPrAkbGUYAhmlgDYyAe/n8KOgAAAAAACAAAAAAAAAAQAAAAAAAAAAA==
> <PUBCHEM_IUPAC_OPENEYE_NAME>
(2S,3S)-2-[[(2S)-2-[[(2S)-2-[[(2S)-2-[[(2S)-2-[[(2S)-2-[[(2S)-2-[[(2S)-2-amino-3-(1H-indol-3-yl)propanoyl]amino]-4-carboxy-butanoyl]amino]-3-carboxy-propanoyl]amino]-3-(1H-indol-3-yl)propanoyl]amino]-3-methyl-butanoyl]amino]propanoyl]amino]-3-(1H-indol-3-yl)propanoyl]amino]-3-methyl-pentanoic acid
> <PUBCHEM_IUPAC_CAS_NAME>
(2S,3S)-2-[[(2S)-2-[[(2S)-2-[[(2S)-2-[[(2S)-2-[[(2S)-2-[[(2S)-2-[[(2S)-2-amino-3-(1H-indol-3-yl)-1-oxopropyl]amino]-4-carboxy-1-oxobutyl]amino]-3-carboxy-1-oxopropyl]amino]-3-(1H-indol-3-yl)-1-oxopropyl]amino]-3-methyl-1-oxobutyl]amino]-1-oxopropyl]amino]-3-(1H-indol-3-yl)-1-oxopropyl]amino]-3-methylpentanoic acid
> <PUBCHEM_IUPAC_NAME_MARKUP>
(2<I>S</I>,3<I>S</I>)-2-[[(2<I>S</I>)-2-[[(2<I>S</I>)-2-[[(2<I>S</I>)-2-[[(2<I>S</I>)-2-[[(2<I>S</I>)-2-[[(2<I>S</I>)-2-[[(2<I>S</I>)-2-amino-3-(1<I>H</I>-indol-3-yl)propanoyl]amino]-4-carboxybutanoyl]amino]-3-carboxypropanoyl]amino]-3-(1<I>H</I>-indol-3-yl)propanoyl]amino]-3-methylbutanoyl]amino]propanoyl]amino]-3-(1<I>H</I>-indol-3-yl)propanoyl]amino]-3-methylpentanoic acid
> <PUBCHEM_IUPAC_NAME>
(2S,3S)-2-[[(2S)-2-[[(2S)-2-[[(2S)-2-[[(2S)-2-[[(2S)-2-[[(2S)-2-[[(2S)-2-amino-3-(1H-indol-3-yl)propanoyl]amino]-4-carboxybutanoyl]amino]-3-carboxypropanoyl]amino]-3-(1H-indol-3-yl)propanoyl]amino]-3-methylbutanoyl]amino]propanoyl]amino]-3-(1H-indol-3-yl)propanoyl]amino]-3-methylpentanoic acid
> <PUBCHEM_IUPAC_SYSTEMATIC_NAME>
(2S,3S)-2-[[(2S)-2-[[(2S)-2-[[(2S)-2-[[(2S)-2-[[(2S)-2-[[(2S)-2-[[(2S)-2-azanyl-3-(1H-indol-3-yl)propanoyl]amino]-5-oxidanyl-5-oxidanylidene-pentanoyl]amino]-4-oxidanyl-4-oxidanylidene-butanoyl]amino]-3-(1H-indol-3-yl)propanoyl]amino]-3-methyl-butanoyl]amino]propanoyl]amino]-3-(1H-indol-3-yl)propanoyl]amino]-3-methyl-pentanoic acid
> <PUBCHEM_IUPAC_TRADITIONAL_NAME>
(2S,3S)-2-[[(2S)-2-[[(2S)-2-[[(2S)-2-[[(2S)-2-[[(2S)-2-[[(2S)-2-[[(2S)-2-amino-3-(1H-indol-3-yl)propanoyl]amino]-4-carboxy-butanoyl]amino]-3-carboxy-propanoyl]amino]-3-(1H-indol-3-yl)propanoyl]amino]-3-methyl-butanoyl]amino]propanoyl]amino]-3-(1H-indol-3-yl)propanoyl]amino]-3-methyl-valeric acid
> <PUBCHEM_IUPAC_INCHI>
InChI=1S/C56H69N11O13/c1-6-29(4)48(56(79)80)67-54(77)42(22-32-26-59-39-17-11-8-14-35(32)39)63-49(72)30(5)61-55(78)47(28(2)3)66-53(76)43(23-33-27-60-40-18-12-9-15-36(33)40)64-52(75)44(24-46(70)71)65-51(74)41(19-20-45(68)69)62-50(73)37(57)21-31-25-58-38-16-10-7-13-34(31)38/h7-18,25-30,37,41-44,47-48,58-60H,6,19-24,57H2,1-5H3,(H,61,78)(H,62,73)(H,63,72)(H,64,75)(H,65,74)(H,66,76)(H,67,77)(H,68,69)(H,70,71)(H,79,80)/t29-,30-,37-,41-,42-,43-,44-,47-,48-/m0/s1
> <PUBCHEM_IUPAC_INCHIKEY>
IRWIVZBXHNAUTF-QWFSNDORSA-N
> <PUBCHEM_XLOGP3_AA>
1.3
> <PUBCHEM_EXACT_MASS>
1103.50763130
> <PUBCHEM_MOLECULAR_FORMULA>
C56H69N11O13
> <PUBCHEM_MOLECULAR_WEIGHT>
1104.2
> <PUBCHEM_OPENEYE_CAN_SMILES>
CCC(C)C(C(=O)O)NC(=O)C(CC1=CNC2=CC=CC=C21)NC(=O)C(C)NC(=O)C(C(C)C)NC(=O)C(CC3=CNC4=CC=CC=C43)NC(=O)C(CC(=O)O)NC(=O)C(CCC(=O)O)NC(=O)C(CC5=CNC6=CC=CC=C65)N
> <PUBCHEM_OPENEYE_ISO_SMILES>
CC[C@H](C)[C@@H](C(=O)O)NC(=O)[C@H](CC1=CNC2=CC=CC=C21)NC(=O)[C@H](C)NC(=O)[C@H](C(C)C)NC(=O)[C@H](CC3=CNC4=CC=CC=C43)NC(=O)[C@H](CC(=O)O)NC(=O)[C@H](CCC(=O)O)NC(=O)[C@H](CC5=CNC6=CC=CC=C65)N
> <PUBCHEM_CACTVS_TPSA>
389
> <PUBCHEM_MONOISOTOPIC_WEIGHT>
1103.50763130
> <PUBCHEM_TOTAL_CHARGE>
0
> <PUBCHEM_HEAVY_ATOM_COUNT>
80
> <PUBCHEM_ATOM_DEF_STEREO_COUNT>
9
> <PUBCHEM_ATOM_UDEF_STEREO_COUNT>
0
> <PUBCHEM_BOND_DEF_STEREO_COUNT>
0
> <PUBCHEM_BOND_UDEF_STEREO_COUNT>
0
> <PUBCHEM_ISOTOPIC_ATOM_COUNT>
0
> <PUBCHEM_COMPONENT_COUNT>
1
> <PUBCHEM_CACTVS_TAUTO_COUNT>
-1
> <PUBCHEM_COORDINATE_TYPE>
1
5
255
> <PUBCHEM_BONDANNOTATIONS>
25  14  5
29  15  6
30  16  5
28  17  6
37  18  6
43  19  5
20  49  8
20  50  8
21  53  8
21  54  8
51  22  6
60  23  5
24  74  8
24  75  8
27  42  6
36  45  8
36  49  8
39  46  8
39  53  8
45  50  8
45  59  8
46  54  8
46  61  8
50  63  8
54  64  8
59  68  8
61  70  8
63  69  8
64  72  8
66  71  8
66  75  8
68  69  8
70  72  8
71  74  8
71  76  8
74  78  8
76  79  8
78  80  8
79  80  8
$$$$
