514231
  -OEChem-10302200282D
 96100  0     1  0  0  0  0  0999 V2000
    9.7026    2.5140    0.0000 F   0  0  0  0  0  0  0  0  0  0  0  0
    8.8366    4.0140    0.0000 F   0  0  0  0  0  0  0  0  0  0  0  0
    6.6137   -0.8179    0.0000 O   0  0  0  0  0  0  0  0  0  0  0  0
    7.1045    1.0140    0.0000 O   0  0  0  0  0  0  0  0  0  0  0  0
    4.1137   -3.4160    0.0000 O   0  0  0  0  0  0  0  0  0  0  0  0
    7.9706    4.5140    0.0000 O   0  0  0  0  0  0  0  0  0  0  0  0
    5.3725    4.0140    0.0000 O   0  0  0  0  0  0  0  0  0  0  0  0
    6.6137   -6.0140    0.0000 O   0  0  0  0  0  0  0  0  0  0  0  0
    5.1137    0.0481    0.0000 N   0  0  0  0  0  0  0  0  0  0  0  0
    6.2385    2.5140    0.0000 N   0  0  0  0  0  0  0  0  0  0  0  0
    5.6137   -2.5500    0.0000 N   0  0  0  0  0  0  0  0  0  0  0  0
    6.6137   -4.2820    0.0000 N   0  0  0  0  0  0  0  0  0  0  0  0
    6.2385    5.5140    0.0000 N   0  0  0  0  0  0  0  0  0  0  0  0
    8.6137   -4.2820    0.0000 N   0  0  0  0  0  0  0  0  0  0  0  0
    9.6137   -6.0140    0.0000 N   0  0  0  0  0  0  0  0  0  0  0  0
    3.9735    1.5229    0.0000 C   0  0  3  0  0  0  0  0  0  0  0  0
    3.7147    0.5569    0.0000 C   0  0  3  0  0  0  0  0  0  0  0  0
    3.2369    2.5055    0.0000 C   0  0  0  0  0  0  0  0  0  0  0  0
    5.3725    1.0140    0.0000 C   0  0  3  0  0  0  0  0  0  0  0  0
    2.0000    0.9046    0.0000 C   0  0  0  0  0  0  0  0  0  0  0  0
    2.3420   -0.0351    0.0000 C   0  0  0  0  0  0  0  0  0  0  0  0
    5.6137   -0.8179    0.0000 C   0  0  0  0  0  0  0  0  0  0  0  0
    6.2385    1.5140    0.0000 C   0  0  0  0  0  0  0  0  0  0  0  0
    5.1137   -1.6839    0.0000 C   0  0  2  0  0  0  0  0  0  0  0  0
    4.1137   -1.6839    0.0000 C   0  0  0  0  0  0  0  0  0  0  0  0
    7.1045    3.0140    0.0000 C   0  0  3  0  0  0  0  0  0  0  0  0
    3.1137   -1.6839    0.0000 C   0  0  0  0  0  0  0  0  0  0  0  0
    4.1137   -2.6839    0.0000 C   0  0  0  0  0  0  0  0  0  0  0  0
    4.1137   -0.6839    0.0000 C   0  0  0  0  0  0  0  0  0  0  0  0
    5.1137   -5.1480    0.0000 C   0  0  0  0  0  0  0  0  0  0  0  0
    5.1137   -3.4160    0.0000 C   0  0  0  0  0  0  0  0  0  0  0  0
    5.6137   -4.2820    0.0000 C   0  0  1  0  0  0  0  0  0  0  0  0
    7.9706    2.5140    0.0000 C   0  0  0  0  0  0  0  0  0  0  0  0
    4.1137   -5.1480    0.0000 C   0  0  0  0  0  0  0  0  0  0  0  0
    5.6137   -6.0140    0.0000 C   0  0  0  0  0  0  0  0  0  0  0  0
    7.1045    4.0140    0.0000 C   0  0  0  0  0  0  0  0  0  0  0  0
    3.6137   -6.0140    0.0000 C   0  0  0  0  0  0  0  0  0  0  0  0
    5.1137   -6.8801    0.0000 C   0  0  0  0  0  0  0  0  0  0  0  0
    4.1137   -6.8801    0.0000 C   0  0  0  0  0  0  0  0  0  0  0  0
    5.3725    6.0140    0.0000 C   0  0  0  0  0  0  0  0  0  0  0  0
    4.3725    6.0140    0.0000 C   0  0  0  0  0  0  0  0  0  0  0  0
    4.8725    6.8801    0.0000 C   0  0  0  0  0  0  0  0  0  0  0  0
    6.2385    4.5140    0.0000 C   0  0  0  0  0  0  0  0  0  0  0  0
    8.8366    3.0140    0.0000 C   0  0  0  0  0  0  0  0  0  0  0  0
    7.1137   -5.1480    0.0000 C   0  0  0  0  0  0  0  0  0  0  0  0
    8.1137   -5.1480    0.0000 C   0  0  0  0  0  0  0  0  0  0  0  0
    8.6137   -6.0140    0.0000 C   0  0  0  0  0  0  0  0  0  0  0  0
    9.6137   -4.2820    0.0000 C   0  0  0  0  0  0  0  0  0  0  0  0
   10.1137   -5.1480    0.0000 C   0  0  0  0  0  0  0  0  0  0  0  0
    3.9595    0.9030    0.0000 H   0  0  0  0  0  0  0  0  0  0  0  0
    3.7328   -0.0628    0.0000 H   0  0  0  0  0  0  0  0  0  0  0  0
    3.5547    3.0378    0.0000 H   0  0  0  0  0  0  0  0  0  0  0  0
    2.6238    2.5974    0.0000 H   0  0  0  0  0  0  0  0  0  0  0  0
    5.8644    0.6366    0.0000 H   0  0  0  0  0  0  0  0  0  0  0  0
    1.8057    1.4934    0.0000 H   0  0  0  0  0  0  0  0  0  0  0  0
    1.4142    0.7014    0.0000 H   0  0  0  0  0  0  0  0  0  0  0  0
    1.7636   -0.2584    0.0000 H   0  0  0  0  0  0  0  0  0  0  0  0
    2.5765   -0.6090    0.0000 H   0  0  0  0  0  0  0  0  0  0  0  0
    4.8037   -2.2209    0.0000 H   0  0  0  0  0  0  0  0  0  0  0  0
    5.7016    2.8240    0.0000 H   0  0  0  0  0  0  0  0  0  0  0  0
    6.2337   -2.5500    0.0000 H   0  0  0  0  0  0  0  0  0  0  0  0
    7.1045    2.3940    0.0000 H   0  0  0  0  0  0  0  0  0  0  0  0
    3.1137   -1.0639    0.0000 H   0  0  0  0  0  0  0  0  0  0  0  0
    2.4937   -1.6839    0.0000 H   0  0  0  0  0  0  0  0  0  0  0  0
    3.1137   -2.3039    0.0000 H   0  0  0  0  0  0  0  0  0  0  0  0
    3.4937   -2.6839    0.0000 H   0  0  0  0  0  0  0  0  0  0  0  0
    4.1137   -3.3039    0.0000 H   0  0  0  0  0  0  0  0  0  0  0  0
    4.7337   -2.6839    0.0000 H   0  0  0  0  0  0  0  0  0  0  0  0
    4.7337   -0.6839    0.0000 H   0  0  0  0  0  0  0  0  0  0  0  0
    4.1137   -0.0639    0.0000 H   0  0  0  0  0  0  0  0  0  0  0  0
    3.4937   -0.6839    0.0000 H   0  0  0  0  0  0  0  0  0  0  0  0
    5.7337   -5.1480    0.0000 H   0  0  0  0  0  0  0  0  0  0  0  0
    5.9237   -3.7451    0.0000 H   0  0  0  0  0  0  0  0  0  0  0  0
    7.5720    2.0391    0.0000 H   0  0  0  0  0  0  0  0  0  0  0  0
    8.3691    2.0391    0.0000 H   0  0  0  0  0  0  0  0  0  0  0  0
    4.2213   -4.5374    0.0000 H   0  0  0  0  0  0  0  0  0  0  0  0
    3.5310   -4.9360    0.0000 H   0  0  0  0  0  0  0  0  0  0  0  0
    6.0886   -6.4126    0.0000 H   0  0  0  0  0  0  0  0  0  0  0  0
    6.0886   -5.6155    0.0000 H   0  0  0  0  0  0  0  0  0  0  0  0
    3.1387   -5.6155    0.0000 H   0  0  0  0  0  0  0  0  0  0  0  0
    3.1387   -6.4126    0.0000 H   0  0  0  0  0  0  0  0  0  0  0  0
    5.0060   -7.4907    0.0000 H   0  0  0  0  0  0  0  0  0  0  0  0
    5.6963   -7.0921    0.0000 H   0  0  0  0  0  0  0  0  0  0  0  0
    3.5310   -7.0921    0.0000 H   0  0  0  0  0  0  0  0  0  0  0  0
    4.2213   -7.4907    0.0000 H   0  0  0  0  0  0  0  0  0  0  0  0
    5.8109    6.4525    0.0000 H   0  0  0  0  0  0  0  0  0  0  0  0
    3.7899    6.2261    0.0000 H   0  0  0  0  0  0  0  0  0  0  0  0
    4.2648    5.4035    0.0000 H   0  0  0  0  0  0  0  0  0  0  0  0
    5.3474    7.2786    0.0000 H   0  0  0  0  0  0  0  0  0  0  0  0
    4.3975    7.2786    0.0000 H   0  0  0  0  0  0  0  0  0  0  0  0
    6.9237   -3.7451    0.0000 H   0  0  0  0  0  0  0  0  0  0  0  0
    9.3735    3.3240    0.0000 H   0  0  0  0  0  0  0  0  0  0  0  0
    6.7754    5.8240    0.0000 H   0  0  0  0  0  0  0  0  0  0  0  0
    8.3037   -6.5510    0.0000 H   0  0  0  0  0  0  0  0  0  0  0  0
    9.9237   -3.7451    0.0000 H   0  0  0  0  0  0  0  0  0  0  0  0
   10.7337   -5.1480    0.0000 H   0  0  0  0  0  0  0  0  0  0  0  0
  1 44  1  0  0  0  0
  2 44  1  0  0  0  0
  3 22  2  0  0  0  0
  4 23  2  0  0  0  0
  5 31  2  0  0  0  0
  6 36  2  0  0  0  0
  7 43  2  0  0  0  0
  8 45  2  0  0  0  0
  9 17  1  0  0  0  0
  9 19  1  0  0  0  0
  9 22  1  0  0  0  0
 10 23  1  0  0  0  0
 10 26  1  0  0  0  0
 10 60  1  0  0  0  0
 24 11  1  1  0  0  0
 11 31  1  0  0  0  0
 11 61  1  0  0  0  0
 32 12  1  1  0  0  0
 12 45  1  0  0  0  0
 12 91  1  0  0  0  0
 13 40  1  0  0  0  0
 13 43  1  0  0  0  0
 13 93  1  0  0  0  0
 14 46  2  0  0  0  0
 14 48  1  0  0  0  0
 15 47  2  0  0  0  0
 15 49  1  0  0  0  0
 16 18  1  0  0  0  0
 16 19  1  0  0  0  0
 16 20  1  0  0  0  0
 16 50  1  0  0  0  0
 17 18  1  0  0  0  0
 17 21  1  0  0  0  0
 17 51  1  0  0  0  0
 18 52  1  0  0  0  0
 18 53  1  0  0  0  0
 19 23  1  0  0  0  0
 19 54  1  0  0  0  0
 20 21  1  0  0  0  0
 20 55  1  0  0  0  0
 20 56  1  0  0  0  0
 21 57  1  0  0  0  0
 21 58  1  0  0  0  0
 22 24  1  0  0  0  0
 24 25  1  0  0  0  0
 24 59  1  0  0  0  0
 25 27  1  0  0  0  0
 25 28  1  0  0  0  0
 25 29  1  0  0  0  0
 26 33  1  0  0  0  0
 26 36  1  0  0  0  0
 26 62  1  0  0  0  0
 27 63  1  0  0  0  0
 27 64  1  0  0  0  0
 27 65  1  0  0  0  0
 28 66  1  0  0  0  0
 28 67  1  0  0  0  0
 28 68  1  0  0  0  0
 29 69  1  0  0  0  0
 29 70  1  0  0  0  0
 29 71  1  0  0  0  0
 30 32  1  0  0  0  0
 30 34  1  0  0  0  0
 30 35  1  0  0  0  0
 30 72  1  0  0  0  0
 31 32  1  0  0  0  0
 32 73  1  0  0  0  0
 33 44  1  0  0  0  0
 33 74  1  0  0  0  0
 33 75  1  0  0  0  0
 34 37  1  0  0  0  0
 34 76  1  0  0  0  0
 34 77  1  0  0  0  0
 35 38  1  0  0  0  0
 35 78  1  0  0  0  0
 35 79  1  0  0  0  0
 36 43  1  0  0  0  0
 37 39  1  0  0  0  0
 37 80  1  0  0  0  0
 37 81  1  0  0  0  0
 38 39  1  0  0  0  0
 38 82  1  0  0  0  0
 38 83  1  0  0  0  0
 39 84  1  0  0  0  0
 39 85  1  0  0  0  0
 40 41  1  0  0  0  0
 40 42  1  0  0  0  0
 40 86  1  0  0  0  0
 41 42  1  0  0  0  0
 41 87  1  0  0  0  0
 41 88  1  0  0  0  0
 42 89  1  0  0  0  0
 42 90  1  0  0  0  0
 44 92  1  0  0  0  0
 45 46  1  0  0  0  0
 46 47  1  0  0  0  0
 47 94  1  0  0  0  0
 48 49  2  0  0  0  0
 48 95  1  0  0  0  0
 49 96  1  0  0  0  0
M  END
> <PUBCHEM_COMPOUND_CID>
514231
> <PUBCHEM_COMPOUND_CANONICALIZED>
1
> <PUBCHEM_CACTVS_COMPLEXITY>
1270
> <PUBCHEM_CACTVS_HBOND_ACCEPTOR>
10
> <PUBCHEM_CACTVS_HBOND_DONOR>
4
> <PUBCHEM_CACTVS_ROTATABLE_BOND>
14
> <PUBCHEM_CACTVS_SUBSKEYS>
AAADcfB/uYAAAAAAAAAAAAAAGAAAAeIAAAA8WIAAAAAAAAABgAAAHwAQAAAADyzBlhQugBPIEACoAZV3VACAgCQXEiAIUIG4dEAAQFpAwCAUAIgAFgDAAMEYiYCfAAAAAAAAAAAAAAAAAAAAACAAAAAAAA==
> <PUBCHEM_IUPAC_OPENEYE_NAME>
2-[(2S)-2-[[(2S)-2-cyclohexyl-2-(pyrazine-2-carbonylamino)acetyl]amino]-3,3-dimethyl-butanoyl]-N-[3-(cyclopropylamino)-1-(2,2-difluoroethyl)-2,3-dioxo-propyl]-2-azabicyclo[2.2.1]heptane-3-carboxamide
> <PUBCHEM_IUPAC_CAS_NAME>
2-[(2S)-2-[[(2S)-2-cyclohexyl-1-oxo-2-[[oxo(2-pyrazinyl)methyl]amino]ethyl]amino]-3,3-dimethyl-1-oxobutyl]-N-[1-(cyclopropylamino)-5,5-difluoro-1,2-dioxopentan-3-yl]-2-azabicyclo[2.2.1]heptane-3-carboxamide
> <PUBCHEM_IUPAC_NAME_MARKUP>
2-[(2<I>S</I>)-2-[[(2<I>S</I>)-2-cyclohexyl-2-(pyrazine-2-carbonylamino)acetyl]amino]-3,3-dimethylbutanoyl]-<I>N</I>-[1-(cyclopropylamino)-5,5-difluoro-1,2-dioxopentan-3-yl]-2-azabicyclo[2.2.1]heptane-3-carboxamide
> <PUBCHEM_IUPAC_NAME>
2-[(2S)-2-[[(2S)-2-cyclohexyl-2-(pyrazine-2-carbonylamino)acetyl]amino]-3,3-dimethylbutanoyl]-N-[1-(cyclopropylamino)-5,5-difluoro-1,2-dioxopentan-3-yl]-2-azabicyclo[2.2.1]heptane-3-carboxamide
> <PUBCHEM_IUPAC_SYSTEMATIC_NAME>
2-[(2S)-2-[[(2S)-2-cyclohexyl-2-(pyrazin-2-ylcarbonylamino)ethanoyl]amino]-3,3-dimethyl-butanoyl]-N-[1-(cyclopropylamino)-5,5-bis(fluoranyl)-1,2-bis(oxidanylidene)pentan-3-yl]-2-azabicyclo[2.2.1]heptane-3-carboxamide
> <PUBCHEM_IUPAC_TRADITIONAL_NAME>
2-[(2S)-2-[[(2S)-2-cyclohexyl-2-(pyrazinoylamino)acetyl]amino]-3,3-dimethyl-butanoyl]-N-[3-(cyclopropylamino)-1-(2,2-difluoroethyl)-2,3-diketo-propyl]-2-azabicyclo[2.2.1]heptane-3-carboxamide
> <PUBCHEM_IUPAC_INCHI>
InChI=1S/C34H47F2N7O6/c1-34(2,3)28(42-30(46)25(18-7-5-4-6-8-18)41-29(45)23-17-37-13-14-38-23)33(49)43-21-12-9-19(15-21)26(43)31(47)40-22(16-24(35)36)27(44)32(48)39-20-10-11-20/h13-14,17-22,24-26,28H,4-12,15-16H2,1-3H3,(H,39,48)(H,40,47)(H,41,45)(H,42,46)/t19?,21?,22?,25-,26?,28+/m0/s1
> <PUBCHEM_IUPAC_INCHIKEY>
ZFLQXBHAPHZFGU-DHUZFHRKSA-N
> <PUBCHEM_XLOGP3_AA>
3.8
> <PUBCHEM_EXACT_MASS>
687.35558857
> <PUBCHEM_MOLECULAR_FORMULA>
C34H47F2N7O6
> <PUBCHEM_MOLECULAR_WEIGHT>
687.8
> <PUBCHEM_OPENEYE_CAN_SMILES>
CC(C)(C)C(C(=O)N1C2CCC(C2)C1C(=O)NC(CC(F)F)C(=O)C(=O)NC3CC3)NC(=O)C(C4CCCCC4)NC(=O)C5=NC=CN=C5
> <PUBCHEM_OPENEYE_ISO_SMILES>
CC(C)(C)[C@@H](C(=O)N1C2CCC(C2)C1C(=O)NC(CC(F)F)C(=O)C(=O)NC3CC3)NC(=O)[C@H](C4CCCCC4)NC(=O)C5=NC=CN=C5
> <PUBCHEM_CACTVS_TPSA>
180
> <PUBCHEM_MONOISOTOPIC_WEIGHT>
687.35558857
> <PUBCHEM_TOTAL_CHARGE>
0
> <PUBCHEM_HEAVY_ATOM_COUNT>
49
> <PUBCHEM_ATOM_DEF_STEREO_COUNT>
2
> <PUBCHEM_ATOM_UDEF_STEREO_COUNT>
4
> <PUBCHEM_BOND_DEF_STEREO_COUNT>
0
> <PUBCHEM_BOND_UDEF_STEREO_COUNT>
0
> <PUBCHEM_ISOTOPIC_ATOM_COUNT>
0
> <PUBCHEM_COMPONENT_COUNT>
1
> <PUBCHEM_CACTVS_TAUTO_COUNT>
-1
> <PUBCHEM_COORDINATE_TYPE>
1
5
255
> <PUBCHEM_BONDANNOTATIONS>
24  11  5
32  12  5
14  46  8
14  48  8
15  47  8
15  49  8
16  20  3
17  21  3
19  23  3
26  33  3
46  47  8
48  49  8
$$$$
