514244
  -OEChem-10302200282D
110114  0     1  0  0  0  0  0999 V2000
    6.6137   -0.4323    0.0000 O   0  0  0  0  0  0  0  0  0  0  0  0
    7.1045    1.3996    0.0000 O   0  0  0  0  0  0  0  0  0  0  0  0
    4.1137   -3.0304    0.0000 O   0  0  0  0  0  0  0  0  0  0  0  0
    6.2385    4.8996    0.0000 O   0  0  0  0  0  0  0  0  0  0  0  0
    8.8366    4.3996    0.0000 O   0  0  0  0  0  0  0  0  0  0  0  0
    6.6137   -5.6285    0.0000 O   0  0  0  0  0  0  0  0  0  0  0  0
    7.4143   -6.7304    0.0000 O   0  0  0  0  0  0  0  0  0  0  0  0
    5.1137    0.4337    0.0000 N   0  0  0  0  0  0  0  0  0  0  0  0
    6.2385    2.8996    0.0000 N   0  0  0  0  0  0  0  0  0  0  0  0
    5.6137   -2.1644    0.0000 N   0  0  0  0  0  0  0  0  0  0  0  0
    6.6137   -3.8964    0.0000 N   0  0  0  0  0  0  0  0  0  0  0  0
    7.9706    5.8996    0.0000 N   0  0  0  0  0  0  0  0  0  0  0  0
    8.7014   -3.9534    0.0000 N   0  0  0  0  0  0  0  0  0  0  0  0
    3.9735    1.9084    0.0000 C   0  0  3  0  0  0  0  0  0  0  0  0
    3.7147    0.9425    0.0000 C   0  0  3  0  0  0  0  0  0  0  0  0
    3.2369    2.8911    0.0000 C   0  0  0  0  0  0  0  0  0  0  0  0
    5.3725    1.3996    0.0000 C   0  0  1  0  0  0  0  0  0  0  0  0
    2.0000    1.2902    0.0000 C   0  0  0  0  0  0  0  0  0  0  0  0
    2.3420    0.3505    0.0000 C   0  0  0  0  0  0  0  0  0  0  0  0
    5.6137   -0.4323    0.0000 C   0  0  0  0  0  0  0  0  0  0  0  0
    6.2385    1.8996    0.0000 C   0  0  0  0  0  0  0  0  0  0  0  0
    5.1137   -1.2983    0.0000 C   0  0  2  0  0  0  0  0  0  0  0  0
    4.1137   -1.2983    0.0000 C   0  0  0  0  0  0  0  0  0  0  0  0
    7.1045    3.3996    0.0000 C   0  0  1  0  0  0  0  0  0  0  0  0
    3.1137   -1.2983    0.0000 C   0  0  0  0  0  0  0  0  0  0  0  0
    4.1137   -2.2983    0.0000 C   0  0  0  0  0  0  0  0  0  0  0  0
    4.1137   -0.2983    0.0000 C   0  0  0  0  0  0  0  0  0  0  0  0
    5.1137   -3.0304    0.0000 C   0  0  0  0  0  0  0  0  0  0  0  0
    5.6137   -3.8964    0.0000 C   0  0  2  0  0  0  0  0  0  0  0  0
    5.1137   -4.7624    0.0000 C   0  0  0  0  0  0  0  0  0  0  0  0
    7.9706    2.8996    0.0000 C   0  0  0  0  0  0  0  0  0  0  0  0
    7.1045    4.3996    0.0000 C   0  0  0  0  0  0  0  0  0  0  0  0
    4.1137   -4.7624    0.0000 C   0  0  0  0  0  0  0  0  0  0  0  0
    5.6137   -5.6285    0.0000 C   0  0  0  0  0  0  0  0  0  0  0  0
    3.6137   -5.6285    0.0000 C   0  0  0  0  0  0  0  0  0  0  0  0
    5.1137   -6.4945    0.0000 C   0  0  0  0  0  0  0  0  0  0  0  0
    4.1137   -6.4945    0.0000 C   0  0  0  0  0  0  0  0  0  0  0  0
    8.8366    3.3996    0.0000 C   0  0  0  0  0  0  0  0  0  0  0  0
    8.8366    6.3996    0.0000 C   0  0  0  0  0  0  0  0  0  0  0  0
    7.9706    4.8996    0.0000 C   0  0  0  0  0  0  0  0  0  0  0  0
    9.8366    6.3996    0.0000 C   0  0  0  0  0  0  0  0  0  0  0  0
    9.3366    7.2657    0.0000 C   0  0  0  0  0  0  0  0  0  0  0  0
    9.7026    2.8996    0.0000 C   0  0  0  0  0  0  0  0  0  0  0  0
    7.1137   -4.7624    0.0000 C   0  0  0  0  0  0  0  0  0  0  0  0
    8.1137   -4.7624    0.0000 C   0  0  0  0  0  0  0  0  0  0  0  0
    8.7014   -5.5715    0.0000 C   0  0  0  0  0  0  0  0  0  0  0  0
    9.6525   -5.2624    0.0000 C   0  0  0  0  0  0  0  0  0  0  0  0
    9.6525   -4.2624    0.0000 C   0  0  0  0  0  0  0  0  0  0  0  0
    8.3924   -6.5225    0.0000 C   0  0  0  0  0  0  0  0  0  0  0  0
   10.4615   -5.8502    0.0000 C   0  0  0  0  0  0  0  0  0  0  0  0
   10.4615   -3.6747    0.0000 C   0  0  0  0  0  0  0  0  0  0  0  0
    9.0616   -7.2657    0.0000 C   0  0  0  0  0  0  0  0  0  0  0  0
    3.9595    1.2886    0.0000 H   0  0  0  0  0  0  0  0  0  0  0  0
    3.7328    0.3228    0.0000 H   0  0  0  0  0  0  0  0  0  0  0  0
    3.5547    3.4234    0.0000 H   0  0  0  0  0  0  0  0  0  0  0  0
    2.6238    2.9830    0.0000 H   0  0  0  0  0  0  0  0  0  0  0  0
    5.8644    1.0222    0.0000 H   0  0  0  0  0  0  0  0  0  0  0  0
    1.8057    1.8790    0.0000 H   0  0  0  0  0  0  0  0  0  0  0  0
    1.4142    1.0870    0.0000 H   0  0  0  0  0  0  0  0  0  0  0  0
    1.7636    0.1272    0.0000 H   0  0  0  0  0  0  0  0  0  0  0  0
    2.5765   -0.2234    0.0000 H   0  0  0  0  0  0  0  0  0  0  0  0
    5.7337   -1.2983    0.0000 H   0  0  0  0  0  0  0  0  0  0  0  0
    5.7016    3.2096    0.0000 H   0  0  0  0  0  0  0  0  0  0  0  0
    6.2337   -2.1644    0.0000 H   0  0  0  0  0  0  0  0  0  0  0  0
    7.1045    2.7796    0.0000 H   0  0  0  0  0  0  0  0  0  0  0  0
    3.1137   -0.6783    0.0000 H   0  0  0  0  0  0  0  0  0  0  0  0
    2.4937   -1.2983    0.0000 H   0  0  0  0  0  0  0  0  0  0  0  0
    3.1137   -1.9183    0.0000 H   0  0  0  0  0  0  0  0  0  0  0  0
    3.4937   -2.2983    0.0000 H   0  0  0  0  0  0  0  0  0  0  0  0
    4.1137   -2.9183    0.0000 H   0  0  0  0  0  0  0  0  0  0  0  0
    4.7337   -2.2983    0.0000 H   0  0  0  0  0  0  0  0  0  0  0  0
    4.7337   -0.2983    0.0000 H   0  0  0  0  0  0  0  0  0  0  0  0
    4.1137    0.3217    0.0000 H   0  0  0  0  0  0  0  0  0  0  0  0
    3.4937   -0.2983    0.0000 H   0  0  0  0  0  0  0  0  0  0  0  0
    5.9237   -3.3595    0.0000 H   0  0  0  0  0  0  0  0  0  0  0  0
    5.7337   -4.7624    0.0000 H   0  0  0  0  0  0  0  0  0  0  0  0
    7.5720    2.4247    0.0000 H   0  0  0  0  0  0  0  0  0  0  0  0
    8.3691    2.4247    0.0000 H   0  0  0  0  0  0  0  0  0  0  0  0
    4.2213   -4.1519    0.0000 H   0  0  0  0  0  0  0  0  0  0  0  0
    3.5310   -4.5504    0.0000 H   0  0  0  0  0  0  0  0  0  0  0  0
    6.0886   -6.0270    0.0000 H   0  0  0  0  0  0  0  0  0  0  0  0
    6.0886   -5.2299    0.0000 H   0  0  0  0  0  0  0  0  0  0  0  0
    3.1387   -5.2299    0.0000 H   0  0  0  0  0  0  0  0  0  0  0  0
    3.1387   -6.0270    0.0000 H   0  0  0  0  0  0  0  0  0  0  0  0
    5.0060   -7.1051    0.0000 H   0  0  0  0  0  0  0  0  0  0  0  0
    5.6963   -6.7066    0.0000 H   0  0  0  0  0  0  0  0  0  0  0  0
    3.5310   -6.7066    0.0000 H   0  0  0  0  0  0  0  0  0  0  0  0
    4.2213   -7.1051    0.0000 H   0  0  0  0  0  0  0  0  0  0  0  0
    9.2351    3.8746    0.0000 H   0  0  0  0  0  0  0  0  0  0  0  0
    8.4381    3.8746    0.0000 H   0  0  0  0  0  0  0  0  0  0  0  0
    8.9970    5.8008    0.0000 H   0  0  0  0  0  0  0  0  0  0  0  0
    6.9237   -3.3595    0.0000 H   0  0  0  0  0  0  0  0  0  0  0  0
    9.9442    5.7890    0.0000 H   0  0  0  0  0  0  0  0  0  0  0  0
   10.4192    6.6117    0.0000 H   0  0  0  0  0  0  0  0  0  0  0  0
    9.8115    7.6642    0.0000 H   0  0  0  0  0  0  0  0  0  0  0  0
    8.8616    7.6642    0.0000 H   0  0  0  0  0  0  0  0  0  0  0  0
    7.4336    6.2096    0.0000 H   0  0  0  0  0  0  0  0  0  0  0  0
    9.3926    2.3627    0.0000 H   0  0  0  0  0  0  0  0  0  0  0  0
   10.2395    2.5896    0.0000 H   0  0  0  0  0  0  0  0  0  0  0  0
   10.0126    3.4366    0.0000 H   0  0  0  0  0  0  0  0  0  0  0  0
    8.5099   -3.3638    0.0000 H   0  0  0  0  0  0  0  0  0  0  0  0
   10.0971   -6.3518    0.0000 H   0  0  0  0  0  0  0  0  0  0  0  0
   10.9631   -6.2146    0.0000 H   0  0  0  0  0  0  0  0  0  0  0  0
   10.8259   -5.3486    0.0000 H   0  0  0  0  0  0  0  0  0  0  0  0
   10.8259   -4.1762    0.0000 H   0  0  0  0  0  0  0  0  0  0  0  0
   10.9631   -3.3102    0.0000 H   0  0  0  0  0  0  0  0  0  0  0  0
   10.0971   -3.1731    0.0000 H   0  0  0  0  0  0  0  0  0  0  0  0
    8.6008   -7.6805    0.0000 H   0  0  0  0  0  0  0  0  0  0  0  0
    9.4764   -7.7264    0.0000 H   0  0  0  0  0  0  0  0  0  0  0  0
    9.5223   -6.8508    0.0000 H   0  0  0  0  0  0  0  0  0  0  0  0
  1 20  2  0  0  0  0
  2 21  2  0  0  0  0
  3 28  2  0  0  0  0
  4 32  2  0  0  0  0
  5 40  2  0  0  0  0
  6 44  2  0  0  0  0
  7 49  2  0  0  0  0
  8 15  1  0  0  0  0
  8 17  1  0  0  0  0
  8 20  1  0  0  0  0
  9 21  1  0  0  0  0
 24  9  1  6  0  0  0
  9 63  1  0  0  0  0
 22 10  1  1  0  0  0
 10 28  1  0  0  0  0
 10 64  1  0  0  0  0
 29 11  1  1  0  0  0
 11 44  1  0  0  0  0
 11 92  1  0  0  0  0
 12 39  1  0  0  0  0
 12 40  1  0  0  0  0
 12 97  1  0  0  0  0
 13 45  1  0  0  0  0
 13 48  1  0  0  0  0
 13101  1  0  0  0  0
 14 16  1  0  0  0  0
 14 17  1  0  0  0  0
 14 18  1  0  0  0  0
 14 53  1  0  0  0  0
 15 16  1  0  0  0  0
 15 19  1  0  0  0  0
 15 54  1  0  0  0  0
 16 55  1  0  0  0  0
 16 56  1  0  0  0  0
 17 21  1  1  0  0  0
 17 57  1  0  0  0  0
 18 19  1  0  0  0  0
 18 58  1  0  0  0  0
 18 59  1  0  0  0  0
 19 60  1  0  0  0  0
 19 61  1  0  0  0  0
 20 22  1  0  0  0  0
 22 23  1  0  0  0  0
 22 62  1  0  0  0  0
 23 25  1  0  0  0  0
 23 26  1  0  0  0  0
 23 27  1  0  0  0  0
 24 31  1  0  0  0  0
 24 32  1  0  0  0  0
 24 65  1  0  0  0  0
 25 66  1  0  0  0  0
 25 67  1  0  0  0  0
 25 68  1  0  0  0  0
 26 69  1  0  0  0  0
 26 70  1  0  0  0  0
 26 71  1  0  0  0  0
 27 72  1  0  0  0  0
 27 73  1  0  0  0  0
 27 74  1  0  0  0  0
 28 29  1  0  0  0  0
 29 30  1  0  0  0  0
 29 75  1  0  0  0  0
 30 33  1  0  0  0  0
 30 34  1  0  0  0  0
 30 76  1  0  0  0  0
 31 38  1  0  0  0  0
 31 77  1  0  0  0  0
 31 78  1  0  0  0  0
 32 40  1  0  0  0  0
 33 35  1  0  0  0  0
 33 79  1  0  0  0  0
 33 80  1  0  0  0  0
 34 36  1  0  0  0  0
 34 81  1  0  0  0  0
 34 82  1  0  0  0  0
 35 37  1  0  0  0  0
 35 83  1  0  0  0  0
 35 84  1  0  0  0  0
 36 37  1  0  0  0  0
 36 85  1  0  0  0  0
 36 86  1  0  0  0  0
 37 87  1  0  0  0  0
 37 88  1  0  0  0  0
 38 43  1  0  0  0  0
 38 89  1  0  0  0  0
 38 90  1  0  0  0  0
 39 41  1  0  0  0  0
 39 42  1  0  0  0  0
 39 91  1  0  0  0  0
 41 42  1  0  0  0  0
 41 93  1  0  0  0  0
 41 94  1  0  0  0  0
 42 95  1  0  0  0  0
 42 96  1  0  0  0  0
 43 98  1  0  0  0  0
 43 99  1  0  0  0  0
 43100  1  0  0  0  0
 44 45  1  0  0  0  0
 45 46  2  0  0  0  0
 46 47  1  0  0  0  0
 46 49  1  0  0  0  0
 47 48  2  0  0  0  0
 47 50  1  0  0  0  0
 48 51  1  0  0  0  0
 49 52  1  0  0  0  0
 50102  1  0  0  0  0
 50103  1  0  0  0  0
 50104  1  0  0  0  0
 51105  1  0  0  0  0
 51106  1  0  0  0  0
 51107  1  0  0  0  0
 52108  1  0  0  0  0
 52109  1  0  0  0  0
 52110  1  0  0  0  0
M  END
> <PUBCHEM_COMPOUND_CID>
514244
> <PUBCHEM_COMPOUND_CANONICALIZED>
1
> <PUBCHEM_CACTVS_COMPLEXITY>
1400
> <PUBCHEM_CACTVS_HBOND_ACCEPTOR>
7
> <PUBCHEM_CACTVS_HBOND_DONOR>
5
> <PUBCHEM_CACTVS_ROTATABLE_BOND>
15
> <PUBCHEM_CACTVS_SUBSKEYS>
AAADcfB/uAAAAAAAAAAAAAAAGAAAAeLEAAA8QAAAAAAAAAABgAAAHgAQAAAADyzBngQCgJPJkACoA4VwVACCgCAnACAAmaG4RNgIYHrA1LGUAYhglgDIyUcdiYCfgAAAAAAAAAAAAAAAAAAAACAAAAAAAA==
> <PUBCHEM_IUPAC_OPENEYE_NAME>
(3S)-2-[(2S)-2-[[(2S)-2-[(3-acetyl-4,5-dimethyl-1H-pyrrole-2-carbonyl)amino]-2-cyclohexyl-acetyl]amino]-3,3-dimethyl-butanoyl]-N-[(1S)-1-[2-(cyclopropylamino)-2-oxo-acetyl]butyl]-2-azabicyclo[2.2.1]heptane-3-carboxamide
> <PUBCHEM_IUPAC_CAS_NAME>
(3S)-2-[(2S)-2-[[(2S)-2-[[(3-acetyl-4,5-dimethyl-1H-pyrrol-2-yl)-oxomethyl]amino]-2-cyclohexyl-1-oxoethyl]amino]-3,3-dimethyl-1-oxobutyl]-N-[(3S)-1-(cyclopropylamino)-1,2-dioxohexan-3-yl]-2-azabicyclo[2.2.1]heptane-3-carboxamide
> <PUBCHEM_IUPAC_NAME_MARKUP>
(3<I>S</I>)-2-[(2<I>S</I>)-2-[[(2<I>S</I>)-2-[(3-acetyl-4,5-dimethyl-1<I>H</I>-pyrrole-2-carbonyl)amino]-2-cyclohexylacetyl]amino]-3,3-dimethylbutanoyl]-<I>N</I>-[(3<I>S</I>)-1-(cyclopropylamino)-1,2-dioxohexan-3-yl]-2-azabicyclo[2.2.1]heptane-3-carboxamide
> <PUBCHEM_IUPAC_NAME>
(3S)-2-[(2S)-2-[[(2S)-2-[(3-acetyl-4,5-dimethyl-1H-pyrrole-2-carbonyl)amino]-2-cyclohexylacetyl]amino]-3,3-dimethylbutanoyl]-N-[(3S)-1-(cyclopropylamino)-1,2-dioxohexan-3-yl]-2-azabicyclo[2.2.1]heptane-3-carboxamide
> <PUBCHEM_IUPAC_SYSTEMATIC_NAME>
(3S)-2-[(2S)-2-[[(2S)-2-cyclohexyl-2-[(3-ethanoyl-4,5-dimethyl-1H-pyrrol-2-yl)carbonylamino]ethanoyl]amino]-3,3-dimethyl-butanoyl]-N-[(3S)-1-(cyclopropylamino)-1,2-bis(oxidanylidene)hexan-3-yl]-2-azabicyclo[2.2.1]heptane-3-carboxamide
> <PUBCHEM_IUPAC_TRADITIONAL_NAME>
(3S)-2-[(2S)-2-[[(2S)-2-[(3-acetyl-4,5-dimethyl-1H-pyrrole-2-carbonyl)amino]-2-cyclohexyl-acetyl]amino]-3,3-dimethyl-butanoyl]-N-[(1S)-1-[2-(cyclopropylamino)-2-keto-acetyl]butyl]-2-azabicyclo[2.2.1]heptane-3-carboxamide
> <PUBCHEM_IUPAC_INCHI>
InChI=1S/C39H58N6O7/c1-8-12-27(32(47)37(51)41-25-16-17-25)42-36(50)31-24-15-18-26(19-24)45(31)38(52)33(39(5,6)7)44-34(48)29(23-13-10-9-11-14-23)43-35(49)30-28(22(4)46)20(2)21(3)40-30/h23-27,29,31,33,40H,8-19H2,1-7H3,(H,41,51)(H,42,50)(H,43,49)(H,44,48)/t24?,26?,27-,29-,31-,33+/m0/s1
> <PUBCHEM_IUPAC_INCHIKEY>
OZEJDDJNXONTTF-IEIGYQCPSA-N
> <PUBCHEM_XLOGP3_AA>
5.2
> <PUBCHEM_EXACT_MASS>
722.43669821
> <PUBCHEM_MOLECULAR_FORMULA>
C39H58N6O7
> <PUBCHEM_MOLECULAR_WEIGHT>
722.9
> <PUBCHEM_OPENEYE_CAN_SMILES>
CCCC(C(=O)C(=O)NC1CC1)NC(=O)C2C3CCC(C3)N2C(=O)C(C(C)(C)C)NC(=O)C(C4CCCCC4)NC(=O)C5=C(C(=C(N5)C)C)C(=O)C
> <PUBCHEM_OPENEYE_ISO_SMILES>
CCC[C@@H](C(=O)C(=O)NC1CC1)NC(=O)[C@@H]2C3CCC(C3)N2C(=O)[C@H](C(C)(C)C)NC(=O)[C@H](C4CCCCC4)NC(=O)C5=C(C(=C(N5)C)C)C(=O)C
> <PUBCHEM_CACTVS_TPSA>
187
> <PUBCHEM_MONOISOTOPIC_WEIGHT>
722.43669821
> <PUBCHEM_TOTAL_CHARGE>
0
> <PUBCHEM_HEAVY_ATOM_COUNT>
52
> <PUBCHEM_ATOM_DEF_STEREO_COUNT>
4
> <PUBCHEM_ATOM_UDEF_STEREO_COUNT>
2
> <PUBCHEM_BOND_DEF_STEREO_COUNT>
0
> <PUBCHEM_BOND_UDEF_STEREO_COUNT>
0
> <PUBCHEM_ISOTOPIC_ATOM_COUNT>
0
> <PUBCHEM_COMPONENT_COUNT>
1
> <PUBCHEM_CACTVS_TAUTO_COUNT>
-1
> <PUBCHEM_COORDINATE_TYPE>
1
5
255
> <PUBCHEM_BONDANNOTATIONS>
22  10  5
29  11  5
13  45  8
13  48  8
14  18  3
15  19  3
17  21  5
45  46  8
46  47  8
47  48  8
24  9  6
$$$$
