514226
  -OEChem-10302200282D
 84 87  0     1  0  0  0  0  0999 V2000
    5.0000   -3.8646    0.0000 S   0  0  0  0  0  0  0  0  0  0  0  0
    7.0000   -7.2694    0.0000 S   0  0  0  0  0  0  0  0  0  0  0  0
    9.2320    2.2694    0.0000 O   0  0  0  0  0  0  0  0  0  0  0  0
   10.0981    0.7694    0.0000 O   0  0  0  0  0  0  0  0  0  0  0  0
    5.0000   -2.8646    0.0000 O   0  0  0  0  0  0  0  0  0  0  0  0
    5.0000   -4.8646    0.0000 O   0  0  0  0  0  0  0  0  0  0  0  0
    6.6340    2.7694    0.0000 O   0  0  0  0  0  0  0  0  0  0  0  0
   10.9641    7.2694    0.0000 O   0  5  0  0  0  0  0  0  0  0  0  0
    9.2320    7.2694    0.0000 O   0  0  0  0  0  0  0  0  0  0  0  0
    8.3660   -2.2306    0.0000 N   0  0  0  0  0  0  0  0  0  0  0  0
    8.3660    0.7694    0.0000 N   0  0  0  0  0  0  0  0  0  0  0  0
    6.0000   -3.8646    0.0000 N   0  0  3  0  0  0  0  0  0  0  0  0
   10.0981    6.7694    0.0000 N   0  3  0  0  0  0  0  0  0  0  0  0
    8.3660   -0.2306    0.0000 C   0  0  0  0  0  0  0  0  0  0  0  0
    7.5000   -4.7306    0.0000 C   0  0  3  0  0  0  0  0  0  0  0  0
    7.5000   -0.7306    0.0000 C   0  0  0  0  0  0  0  0  0  0  0  0
    9.2320   -0.7306    0.0000 C   0  0  0  0  0  0  0  0  0  0  0  0
    7.5000   -3.7306    0.0000 C   0  0  0  0  0  0  0  0  0  0  0  0
    7.5000   -1.7306    0.0000 C   0  0  0  0  0  0  0  0  0  0  0  0
    9.2320   -1.7306    0.0000 C   0  0  0  0  0  0  0  0  0  0  0  0
    8.3660   -3.2306    0.0000 C   0  0  0  0  0  0  0  0  0  0  0  0
    6.5000   -4.7306    0.0000 C   0  0  0  0  0  0  0  0  0  0  0  0
    7.5000   -5.7306    0.0000 C   0  0  0  0  0  0  0  0  0  0  0  0
    8.5000   -4.7306    0.0000 C   0  0  0  0  0  0  0  0  0  0  0  0
    7.5000    1.2694    0.0000 C   0  0  0  0  0  0  0  0  0  0  0  0
    8.3090   -6.3184    0.0000 C   0  0  0  0  0  0  0  0  0  0  0  0
    6.6910   -6.3184    0.0000 C   0  0  0  0  0  0  0  0  0  0  0  0
    9.2320    1.2694    0.0000 C   0  0  0  0  0  0  0  0  0  0  0  0
    6.5000   -2.9985    0.0000 C   0  0  0  0  0  0  0  0  0  0  0  0
    7.5000    2.2694    0.0000 C   0  0  0  0  0  0  0  0  0  0  0  0
    8.0000   -7.2694    0.0000 C   0  0  0  0  0  0  0  0  0  0  0  0
    4.0000   -3.8646    0.0000 C   0  0  0  0  0  0  0  0  0  0  0  0
   10.0981    2.7694    0.0000 C   0  0  0  0  0  0  0  0  0  0  0  0
    3.5000   -2.9985    0.0000 C   0  0  0  0  0  0  0  0  0  0  0  0
    3.5000   -4.7306    0.0000 C   0  0  0  0  0  0  0  0  0  0  0  0
    2.5000   -2.9985    0.0000 C   0  0  0  0  0  0  0  0  0  0  0  0
    2.5000   -4.7306    0.0000 C   0  0  0  0  0  0  0  0  0  0  0  0
   10.0981    3.7694    0.0000 C   0  0  0  0  0  0  0  0  0  0  0  0
    2.0000   -3.8646    0.0000 C   0  0  0  0  0  0  0  0  0  0  0  0
   10.9641    4.2694    0.0000 C   0  0  0  0  0  0  0  0  0  0  0  0
    9.2320    4.2694    0.0000 C   0  0  0  0  0  0  0  0  0  0  0  0
   10.9641    5.2694    0.0000 C   0  0  0  0  0  0  0  0  0  0  0  0
    9.2320    5.2694    0.0000 C   0  0  0  0  0  0  0  0  0  0  0  0
   10.0981    5.7694    0.0000 C   0  0  0  0  0  0  0  0  0  0  0  0
    7.8291    0.0794    0.0000 H   0  0  0  0  0  0  0  0  0  0  0  0
    7.2880   -0.1480    0.0000 H   0  0  0  0  0  0  0  0  0  0  0  0
    6.8894   -0.8382    0.0000 H   0  0  0  0  0  0  0  0  0  0  0  0
    9.8426   -0.8382    0.0000 H   0  0  0  0  0  0  0  0  0  0  0  0
    9.4441   -0.1480    0.0000 H   0  0  0  0  0  0  0  0  0  0  0  0
    7.2880   -3.1480    0.0000 H   0  0  0  0  0  0  0  0  0  0  0  0
    6.8894   -3.8382    0.0000 H   0  0  0  0  0  0  0  0  0  0  0  0
    6.8894   -1.6229    0.0000 H   0  0  0  0  0  0  0  0  0  0  0  0
    7.2880   -2.3132    0.0000 H   0  0  0  0  0  0  0  0  0  0  0  0
    9.4441   -2.3132    0.0000 H   0  0  0  0  0  0  0  0  0  0  0  0
    9.8426   -1.6229    0.0000 H   0  0  0  0  0  0  0  0  0  0  0  0
    8.5781   -3.8132    0.0000 H   0  0  0  0  0  0  0  0  0  0  0  0
    8.9766   -3.1229    0.0000 H   0  0  0  0  0  0  0  0  0  0  0  0
    5.9174   -4.9426    0.0000 H   0  0  0  0  0  0  0  0  0  0  0  0
    6.6077   -5.3412    0.0000 H   0  0  0  0  0  0  0  0  0  0  0  0
    8.5000   -5.3506    0.0000 H   0  0  0  0  0  0  0  0  0  0  0  0
    9.1200   -4.7306    0.0000 H   0  0  0  0  0  0  0  0  0  0  0  0
    8.5000   -4.1106    0.0000 H   0  0  0  0  0  0  0  0  0  0  0  0
    6.8894    1.3771    0.0000 H   0  0  0  0  0  0  0  0  0  0  0  0
    7.2880    0.6868    0.0000 H   0  0  0  0  0  0  0  0  0  0  0  0
    8.8987   -6.1268    0.0000 H   0  0  0  0  0  0  0  0  0  0  0  0
    6.1013   -6.1268    0.0000 H   0  0  0  0  0  0  0  0  0  0  0  0
    7.0369   -3.3085    0.0000 H   0  0  0  0  0  0  0  0  0  0  0  0
    6.8100   -2.4616    0.0000 H   0  0  0  0  0  0  0  0  0  0  0  0
    5.9631   -2.6885    0.0000 H   0  0  0  0  0  0  0  0  0  0  0  0
    8.1106    2.1618    0.0000 H   0  0  0  0  0  0  0  0  0  0  0  0
    7.7120    2.8520    0.0000 H   0  0  0  0  0  0  0  0  0  0  0  0
    8.3644   -7.7710    0.0000 H   0  0  0  0  0  0  0  0  0  0  0  0
    6.6340    3.3894    0.0000 H   0  0  0  0  0  0  0  0  0  0  0  0
   10.3101    2.1868    0.0000 H   0  0  0  0  0  0  0  0  0  0  0  0
   10.7087    2.8771    0.0000 H   0  0  0  0  0  0  0  0  0  0  0  0
    3.8100   -2.4616    0.0000 H   0  0  0  0  0  0  0  0  0  0  0  0
    3.8100   -5.2675    0.0000 H   0  0  0  0  0  0  0  0  0  0  0  0
    2.1900   -2.4616    0.0000 H   0  0  0  0  0  0  0  0  0  0  0  0
    2.1900   -5.2675    0.0000 H   0  0  0  0  0  0  0  0  0  0  0  0
    1.3800   -3.8646    0.0000 H   0  0  0  0  0  0  0  0  0  0  0  0
   11.5010    3.9594    0.0000 H   0  0  0  0  0  0  0  0  0  0  0  0
    8.6951    3.9594    0.0000 H   0  0  0  0  0  0  0  0  0  0  0  0
   11.5010    5.5794    0.0000 H   0  0  0  0  0  0  0  0  0  0  0  0
    8.6951    5.5794    0.0000 H   0  0  0  0  0  0  0  0  0  0  0  0
  1  5  2  0  0  0  0
  1  6  2  0  0  0  0
  1 12  1  0  0  0  0
  1 32  1  0  0  0  0
  2 27  1  0  0  0  0
  2 31  1  0  0  0  0
  3 28  1  0  0  0  0
  3 33  1  0  0  0  0
  4 28  2  0  0  0  0
  7 30  1  0  0  0  0
  7 73  1  0  0  0  0
  8 13  1  0  0  0  0
  9 13  2  0  0  0  0
 10 19  1  0  0  0  0
 10 20  1  0  0  0  0
 10 21  1  0  0  0  0
 11 14  1  0  0  0  0
 11 25  1  0  0  0  0
 11 28  1  0  0  0  0
 12 22  1  0  0  0  0
 12 29  1  0  0  0  0
 13 44  1  0  0  0  0
 14 16  1  0  0  0  0
 14 17  1  0  0  0  0
 14 45  1  0  0  0  0
 15 18  1  0  0  0  0
 15 22  1  0  0  0  0
 15 23  1  0  0  0  0
 15 24  1  0  0  0  0
 16 19  1  0  0  0  0
 16 46  1  0  0  0  0
 16 47  1  0  0  0  0
 17 20  1  0  0  0  0
 17 48  1  0  0  0  0
 17 49  1  0  0  0  0
 18 21  1  0  0  0  0
 18 50  1  0  0  0  0
 18 51  1  0  0  0  0
 19 52  1  0  0  0  0
 19 53  1  0  0  0  0
 20 54  1  0  0  0  0
 20 55  1  0  0  0  0
 21 56  1  0  0  0  0
 21 57  1  0  0  0  0
 22 58  1  0  0  0  0
 22 59  1  0  0  0  0
 23 26  1  0  0  0  0
 23 27  2  0  0  0  0
 24 60  1  0  0  0  0
 24 61  1  0  0  0  0
 24 62  1  0  0  0  0
 25 30  1  0  0  0  0
 25 63  1  0  0  0  0
 25 64  1  0  0  0  0
 26 31  2  0  0  0  0
 26 65  1  0  0  0  0
 27 66  1  0  0  0  0
 29 67  1  0  0  0  0
 29 68  1  0  0  0  0
 29 69  1  0  0  0  0
 30 70  1  0  0  0  0
 30 71  1  0  0  0  0
 31 72  1  0  0  0  0
 32 34  2  0  0  0  0
 32 35  1  0  0  0  0
 33 38  1  0  0  0  0
 33 74  1  0  0  0  0
 33 75  1  0  0  0  0
 34 36  1  0  0  0  0
 34 76  1  0  0  0  0
 35 37  2  0  0  0  0
 35 77  1  0  0  0  0
 36 39  2  0  0  0  0
 36 78  1  0  0  0  0
 37 39  1  0  0  0  0
 37 79  1  0  0  0  0
 38 40  2  0  0  0  0
 38 41  1  0  0  0  0
 39 80  1  0  0  0  0
 40 42  1  0  0  0  0
 40 81  1  0  0  0  0
 41 43  2  0  0  0  0
 41 82  1  0  0  0  0
 42 44  2  0  0  0  0
 42 83  1  0  0  0  0
 43 44  1  0  0  0  0
 43 84  1  0  0  0  0
M  CHG  2   8  -1  13   1
M  END
> <PUBCHEM_COMPOUND_CID>
514226
> <PUBCHEM_COMPOUND_CANONICALIZED>
1
> <PUBCHEM_CACTVS_COMPLEXITY>
1020
> <PUBCHEM_CACTVS_HBOND_ACCEPTOR>
10
> <PUBCHEM_CACTVS_HBOND_DONOR>
1
> <PUBCHEM_CACTVS_ROTATABLE_BOND>
14
> <PUBCHEM_CACTVS_SUBSKEYS>
AAADcfB7uABgAAAAAAAAAAAAAAAAASAAAAA8YIAAAAAAAAAB0AAAHgQESAAADijl2AayyYMQRgqNAiRCW3DDAJAgChBoiBgIbIoKNiKg8ZmMMABkxgG46AeQ0CEPiAAAAAAAAAAQAAAAAAAAAAAAAAAAAA==
> <PUBCHEM_IUPAC_OPENEYE_NAME>
(4-nitrophenyl)methyl N-[1-[4-[benzenesulfonyl(methyl)amino]-3-methyl-3-(3-thienyl)butyl]-4-piperidyl]-N-(2-hydroxyethyl)carbamate
> <PUBCHEM_IUPAC_CAS_NAME>
N-[1-[4-[benzenesulfonyl(methyl)amino]-3-methyl-3-(3-thiophenyl)butyl]-4-piperidinyl]-N-(2-hydroxyethyl)carbamic acid (4-nitrophenyl)methyl ester
> <PUBCHEM_IUPAC_NAME_MARKUP>
(4-nitrophenyl)methyl <I>N</I>-[1-[4-[benzenesulfonyl(methyl)amino]-3-methyl-3-thiophen-3-ylbutyl]piperidin-4-yl]-<I>N</I>-(2-hydroxyethyl)carbamate
> <PUBCHEM_IUPAC_NAME>
(4-nitrophenyl)methyl N-[1-[4-[benzenesulfonyl(methyl)amino]-3-methyl-3-thiophen-3-ylbutyl]piperidin-4-yl]-N-(2-hydroxyethyl)carbamate
> <PUBCHEM_IUPAC_SYSTEMATIC_NAME>
(4-nitrophenyl)methyl N-(2-hydroxyethyl)-N-[1-[3-methyl-4-[methyl(phenylsulfonyl)amino]-3-thiophen-3-yl-butyl]piperidin-4-yl]carbamate
> <PUBCHEM_IUPAC_TRADITIONAL_NAME>
N-[1-[4-[besyl(methyl)amino]-3-methyl-3-(3-thienyl)butyl]-4-piperidyl]-N-(2-hydroxyethyl)carbamic acid (4-nitrobenzyl) ester
> <PUBCHEM_IUPAC_INCHI>
InChI=1S/C31H40N4O7S2/c1-31(26-14-21-43-23-26,24-32(2)44(40,41)29-6-4-3-5-7-29)15-18-33-16-12-27(13-17-33)34(19-20-36)30(37)42-22-25-8-10-28(11-9-25)35(38)39/h3-11,14,21,23,27,36H,12-13,15-20,22,24H2,1-2H3
> <PUBCHEM_IUPAC_INCHIKEY>
PETCVLQGJOSIIL-UHFFFAOYSA-N
> <PUBCHEM_XLOGP3_AA>
4.5
> <PUBCHEM_EXACT_MASS>
644.23384197
> <PUBCHEM_MOLECULAR_FORMULA>
C31H40N4O7S2
> <PUBCHEM_MOLECULAR_WEIGHT>
644.8
> <PUBCHEM_OPENEYE_CAN_SMILES>
CC(CCN1CCC(CC1)N(CCO)C(=O)OCC2=CC=C(C=C2)[N+](=O)[O-])(CN(C)S(=O)(=O)C3=CC=CC=C3)C4=CSC=C4
> <PUBCHEM_OPENEYE_ISO_SMILES>
CC(CCN1CCC(CC1)N(CCO)C(=O)OCC2=CC=C(C=C2)[N+](=O)[O-])(CN(C)S(=O)(=O)C3=CC=CC=C3)C4=CSC=C4
> <PUBCHEM_CACTVS_TPSA>
173
> <PUBCHEM_MONOISOTOPIC_WEIGHT>
644.23384197
> <PUBCHEM_TOTAL_CHARGE>
0
> <PUBCHEM_HEAVY_ATOM_COUNT>
44
> <PUBCHEM_ATOM_DEF_STEREO_COUNT>
0
> <PUBCHEM_ATOM_UDEF_STEREO_COUNT>
1
> <PUBCHEM_BOND_DEF_STEREO_COUNT>
0
> <PUBCHEM_BOND_UDEF_STEREO_COUNT>
0
> <PUBCHEM_ISOTOPIC_ATOM_COUNT>
0
> <PUBCHEM_COMPONENT_COUNT>
1
> <PUBCHEM_CACTVS_TAUTO_COUNT>
-1
> <PUBCHEM_COORDINATE_TYPE>
1
5
255
> <PUBCHEM_BONDANNOTATIONS>
15  24  3
2  27  8
2  31  8
23  26  8
23  27  8
26  31  8
32  34  8
32  35  8
34  36  8
35  37  8
36  39  8
37  39  8
38  40  8
38  41  8
40  42  8
41  43  8
42  44  8
43  44  8
$$$$
