514233
  -OEChem-10302200282D
113116  0     1  0  0  0  0  0999 V2000
    6.6137    0.0481    0.0000 O   0  0  0  0  0  0  0  0  0  0  0  0
    7.1045    1.8801    0.0000 O   0  0  0  0  0  0  0  0  0  0  0  0
    4.1137   -2.5500    0.0000 O   0  0  0  0  0  0  0  0  0  0  0  0
    6.2385    5.3801    0.0000 O   0  0  0  0  0  0  0  0  0  0  0  0
    8.8366    4.8801    0.0000 O   0  0  0  0  0  0  0  0  0  0  0  0
    6.6137   -5.1480    0.0000 O   0  0  0  0  0  0  0  0  0  0  0  0
    8.6137   -6.8801    0.0000 O   0  0  0  0  0  0  0  0  0  0  0  0
    7.1137   -6.0140    0.0000 O   0  0  0  0  0  0  0  0  0  0  0  0
   11.1137   -2.5500    0.0000 O   0  0  0  0  0  0  0  0  0  0  0  0
    9.6137   -1.6839    0.0000 O   0  0  0  0  0  0  0  0  0  0  0  0
    5.1137    0.9142    0.0000 N   0  0  0  0  0  0  0  0  0  0  0  0
    6.2385    3.3801    0.0000 N   0  0  0  0  0  0  0  0  0  0  0  0
    5.6137   -1.6839    0.0000 N   0  0  0  0  0  0  0  0  0  0  0  0
    6.6137   -3.4160    0.0000 N   0  0  0  0  0  0  0  0  0  0  0  0
    7.9706    6.3801    0.0000 N   0  0  0  0  0  0  0  0  0  0  0  0
    8.6137   -5.1480    0.0000 N   0  0  0  0  0  0  0  0  0  0  0  0
    9.6137   -3.4160    0.0000 N   0  0  0  0  0  0  0  0  0  0  0  0
    3.9735    2.3889    0.0000 C   0  0  3  0  0  0  0  0  0  0  0  0
    3.7147    1.4230    0.0000 C   0  0  3  0  0  0  0  0  0  0  0  0
    3.2369    3.3715    0.0000 C   0  0  0  0  0  0  0  0  0  0  0  0
    5.3725    1.8801    0.0000 C   0  0  3  0  0  0  0  0  0  0  0  0
    2.0000    1.7706    0.0000 C   0  0  0  0  0  0  0  0  0  0  0  0
    2.3420    0.8310    0.0000 C   0  0  0  0  0  0  0  0  0  0  0  0
    5.6137    0.0481    0.0000 C   0  0  0  0  0  0  0  0  0  0  0  0
    6.2385    2.3801    0.0000 C   0  0  0  0  0  0  0  0  0  0  0  0
    5.1137   -0.8179    0.0000 C   0  0  2  0  0  0  0  0  0  0  0  0
    4.1137   -0.8179    0.0000 C   0  0  0  0  0  0  0  0  0  0  0  0
    7.1045    3.8801    0.0000 C   0  0  3  0  0  0  0  0  0  0  0  0
    3.1137   -0.8179    0.0000 C   0  0  0  0  0  0  0  0  0  0  0  0
    4.1137   -1.8179    0.0000 C   0  0  0  0  0  0  0  0  0  0  0  0
    4.1137    0.1821    0.0000 C   0  0  0  0  0  0  0  0  0  0  0  0
    5.1137   -2.5500    0.0000 C   0  0  0  0  0  0  0  0  0  0  0  0
    5.6137   -3.4160    0.0000 C   0  0  2  0  0  0  0  0  0  0  0  0
    5.1137   -4.2820    0.0000 C   0  0  0  0  0  0  0  0  0  0  0  0
    7.9706    3.3801    0.0000 C   0  0  0  0  0  0  0  0  0  0  0  0
    7.1045    4.8801    0.0000 C   0  0  0  0  0  0  0  0  0  0  0  0
    4.1137   -4.2820    0.0000 C   0  0  0  0  0  0  0  0  0  0  0  0
    5.6137   -5.1480    0.0000 C   0  0  0  0  0  0  0  0  0  0  0  0
    3.6137   -5.1480    0.0000 C   0  0  0  0  0  0  0  0  0  0  0  0
    5.1137   -6.0140    0.0000 C   0  0  0  0  0  0  0  0  0  0  0  0
    8.8366    3.8801    0.0000 C   0  0  0  0  0  0  0  0  0  0  0  0
    4.1137   -6.0140    0.0000 C   0  0  0  0  0  0  0  0  0  0  0  0
    8.8366    6.8801    0.0000 C   0  0  0  0  0  0  0  0  0  0  0  0
    7.9706    5.3801    0.0000 C   0  0  0  0  0  0  0  0  0  0  0  0
    9.8366    6.8801    0.0000 C   0  0  0  0  0  0  0  0  0  0  0  0
    9.3366    7.7461    0.0000 C   0  0  0  0  0  0  0  0  0  0  0  0
    9.7026    3.3801    0.0000 C   0  0  0  0  0  0  0  0  0  0  0  0
    7.1137   -4.2820    0.0000 C   0  0  0  0  0  0  0  0  0  0  0  0
    8.1137   -4.2820    0.0000 C   0  0  2  0  0  0  0  0  0  0  0  0
    8.6137   -3.4160    0.0000 C   0  0  0  0  0  0  0  0  0  0  0  0
    8.1137   -6.0140    0.0000 C   0  0  0  0  0  0  0  0  0  0  0  0
   10.1137   -2.5500    0.0000 C   0  0  0  0  0  0  0  0  0  0  0  0
    8.1137   -7.7461    0.0000 C   0  0  0  0  0  0  0  0  0  0  0  0
   11.6137   -1.6839    0.0000 C   0  0  0  0  0  0  0  0  0  0  0  0
    3.9595    1.7691    0.0000 H   0  0  0  0  0  0  0  0  0  0  0  0
    3.7328    0.8032    0.0000 H   0  0  0  0  0  0  0  0  0  0  0  0
    3.5547    3.9039    0.0000 H   0  0  0  0  0  0  0  0  0  0  0  0
    2.6238    3.4635    0.0000 H   0  0  0  0  0  0  0  0  0  0  0  0
    5.8644    1.5026    0.0000 H   0  0  0  0  0  0  0  0  0  0  0  0
    1.8057    2.3594    0.0000 H   0  0  0  0  0  0  0  0  0  0  0  0
    1.4142    1.5674    0.0000 H   0  0  0  0  0  0  0  0  0  0  0  0
    1.7636    0.6077    0.0000 H   0  0  0  0  0  0  0  0  0  0  0  0
    2.5765    0.2570    0.0000 H   0  0  0  0  0  0  0  0  0  0  0  0
    4.8037   -1.3548    0.0000 H   0  0  0  0  0  0  0  0  0  0  0  0
    5.7016    3.6901    0.0000 H   0  0  0  0  0  0  0  0  0  0  0  0
    6.2337   -1.6839    0.0000 H   0  0  0  0  0  0  0  0  0  0  0  0
    7.1045    3.2601    0.0000 H   0  0  0  0  0  0  0  0  0  0  0  0
    3.1137   -0.1979    0.0000 H   0  0  0  0  0  0  0  0  0  0  0  0
    2.4937   -0.8179    0.0000 H   0  0  0  0  0  0  0  0  0  0  0  0
    3.1137   -1.4379    0.0000 H   0  0  0  0  0  0  0  0  0  0  0  0
    3.4937   -1.8179    0.0000 H   0  0  0  0  0  0  0  0  0  0  0  0
    4.1137   -2.4379    0.0000 H   0  0  0  0  0  0  0  0  0  0  0  0
    4.7337   -1.8179    0.0000 H   0  0  0  0  0  0  0  0  0  0  0  0
    4.7337    0.1821    0.0000 H   0  0  0  0  0  0  0  0  0  0  0  0
    4.1137    0.8021    0.0000 H   0  0  0  0  0  0  0  0  0  0  0  0
    3.4937    0.1821    0.0000 H   0  0  0  0  0  0  0  0  0  0  0  0
    5.9237   -2.8790    0.0000 H   0  0  0  0  0  0  0  0  0  0  0  0
    5.7337   -4.2820    0.0000 H   0  0  0  0  0  0  0  0  0  0  0  0
    7.5720    2.9051    0.0000 H   0  0  0  0  0  0  0  0  0  0  0  0
    8.3691    2.9051    0.0000 H   0  0  0  0  0  0  0  0  0  0  0  0
    4.2213   -3.6714    0.0000 H   0  0  0  0  0  0  0  0  0  0  0  0
    3.5310   -4.0700    0.0000 H   0  0  0  0  0  0  0  0  0  0  0  0
    6.0886   -5.5466    0.0000 H   0  0  0  0  0  0  0  0  0  0  0  0
    6.0886   -4.7495    0.0000 H   0  0  0  0  0  0  0  0  0  0  0  0
    3.1387   -4.7495    0.0000 H   0  0  0  0  0  0  0  0  0  0  0  0
    3.1387   -5.5466    0.0000 H   0  0  0  0  0  0  0  0  0  0  0  0
    5.0060   -6.6246    0.0000 H   0  0  0  0  0  0  0  0  0  0  0  0
    5.6963   -6.2261    0.0000 H   0  0  0  0  0  0  0  0  0  0  0  0
    3.5310   -6.2261    0.0000 H   0  0  0  0  0  0  0  0  0  0  0  0
    4.2213   -6.6246    0.0000 H   0  0  0  0  0  0  0  0  0  0  0  0
    9.2351    4.3550    0.0000 H   0  0  0  0  0  0  0  0  0  0  0  0
    8.4381    4.3550    0.0000 H   0  0  0  0  0  0  0  0  0  0  0  0
    6.9237   -2.8790    0.0000 H   0  0  0  0  0  0  0  0  0  0  0  0
    8.9970    6.2812    0.0000 H   0  0  0  0  0  0  0  0  0  0  0  0
    9.9442    6.2695    0.0000 H   0  0  0  0  0  0  0  0  0  0  0  0
   10.4192    7.0921    0.0000 H   0  0  0  0  0  0  0  0  0  0  0  0
    9.8115    8.1446    0.0000 H   0  0  0  0  0  0  0  0  0  0  0  0
    8.8616    8.1446    0.0000 H   0  0  0  0  0  0  0  0  0  0  0  0
    7.4336    6.6901    0.0000 H   0  0  0  0  0  0  0  0  0  0  0  0
    9.3926    2.8431    0.0000 H   0  0  0  0  0  0  0  0  0  0  0  0
   10.2395    3.0701    0.0000 H   0  0  0  0  0  0  0  0  0  0  0  0
   10.0126    3.9170    0.0000 H   0  0  0  0  0  0  0  0  0  0  0  0
    8.7337   -4.2820    0.0000 H   0  0  0  0  0  0  0  0  0  0  0  0
    8.7213   -2.8054    0.0000 H   0  0  0  0  0  0  0  0  0  0  0  0
    8.0310   -3.2039    0.0000 H   0  0  0  0  0  0  0  0  0  0  0  0
    9.2337   -5.1480    0.0000 H   0  0  0  0  0  0  0  0  0  0  0  0
    9.9237   -3.9529    0.0000 H   0  0  0  0  0  0  0  0  0  0  0  0
    7.5767   -7.4361    0.0000 H   0  0  0  0  0  0  0  0  0  0  0  0
    7.8037   -8.2830    0.0000 H   0  0  0  0  0  0  0  0  0  0  0  0
    8.6506   -8.0561    0.0000 H   0  0  0  0  0  0  0  0  0  0  0  0
   12.1506   -1.9939    0.0000 H   0  0  0  0  0  0  0  0  0  0  0  0
   11.9237   -1.1470    0.0000 H   0  0  0  0  0  0  0  0  0  0  0  0
   11.0767   -1.3739    0.0000 H   0  0  0  0  0  0  0  0  0  0  0  0
  1 24  2  0  0  0  0
  2 25  2  0  0  0  0
  3 32  2  0  0  0  0
  4 36  2  0  0  0  0
  5 44  2  0  0  0  0
  6 48  2  0  0  0  0
  7 51  1  0  0  0  0
  7 53  1  0  0  0  0
  8 51  2  0  0  0  0
  9 52  1  0  0  0  0
  9 54  1  0  0  0  0
 10 52  2  0  0  0  0
 11 19  1  0  0  0  0
 11 21  1  0  0  0  0
 11 24  1  0  0  0  0
 12 25  1  0  0  0  0
 12 28  1  0  0  0  0
 12 65  1  0  0  0  0
 26 13  1  1  0  0  0
 13 32  1  0  0  0  0
 13 66  1  0  0  0  0
 33 14  1  1  0  0  0
 14 48  1  0  0  0  0
 14 93  1  0  0  0  0
 15 43  1  0  0  0  0
 15 44  1  0  0  0  0
 15 99  1  0  0  0  0
 49 16  1  6  0  0  0
 16 51  1  0  0  0  0
 16106  1  0  0  0  0
 17 50  1  0  0  0  0
 17 52  1  0  0  0  0
 17107  1  0  0  0  0
 18 20  1  0  0  0  0
 18 21  1  0  0  0  0
 18 22  1  0  0  0  0
 18 55  1  0  0  0  0
 19 20  1  0  0  0  0
 19 23  1  0  0  0  0
 19 56  1  0  0  0  0
 20 57  1  0  0  0  0
 20 58  1  0  0  0  0
 21 25  1  0  0  0  0
 21 59  1  0  0  0  0
 22 23  1  0  0  0  0
 22 60  1  0  0  0  0
 22 61  1  0  0  0  0
 23 62  1  0  0  0  0
 23 63  1  0  0  0  0
 24 26  1  0  0  0  0
 26 27  1  0  0  0  0
 26 64  1  0  0  0  0
 27 29  1  0  0  0  0
 27 30  1  0  0  0  0
 27 31  1  0  0  0  0
 28 35  1  0  0  0  0
 28 36  1  0  0  0  0
 28 67  1  0  0  0  0
 29 68  1  0  0  0  0
 29 69  1  0  0  0  0
 29 70  1  0  0  0  0
 30 71  1  0  0  0  0
 30 72  1  0  0  0  0
 30 73  1  0  0  0  0
 31 74  1  0  0  0  0
 31 75  1  0  0  0  0
 31 76  1  0  0  0  0
 32 33  1  0  0  0  0
 33 34  1  0  0  0  0
 33 77  1  0  0  0  0
 34 37  1  0  0  0  0
 34 38  1  0  0  0  0
 34 78  1  0  0  0  0
 35 41  1  0  0  0  0
 35 79  1  0  0  0  0
 35 80  1  0  0  0  0
 36 44  1  0  0  0  0
 37 39  1  0  0  0  0
 37 81  1  0  0  0  0
 37 82  1  0  0  0  0
 38 40  1  0  0  0  0
 38 83  1  0  0  0  0
 38 84  1  0  0  0  0
 39 42  1  0  0  0  0
 39 85  1  0  0  0  0
 39 86  1  0  0  0  0
 40 42  1  0  0  0  0
 40 87  1  0  0  0  0
 40 88  1  0  0  0  0
 41 47  1  0  0  0  0
 41 91  1  0  0  0  0
 41 92  1  0  0  0  0
 42 89  1  0  0  0  0
 42 90  1  0  0  0  0
 43 45  1  0  0  0  0
 43 46  1  0  0  0  0
 43 94  1  0  0  0  0
 45 46  1  0  0  0  0
 45 95  1  0  0  0  0
 45 96  1  0  0  0  0
 46 97  1  0  0  0  0
 46 98  1  0  0  0  0
 47100  1  0  0  0  0
 47101  1  0  0  0  0
 47102  1  0  0  0  0
 48 49  1  0  0  0  0
 49 50  1  0  0  0  0
 49103  1  0  0  0  0
 50104  1  0  0  0  0
 50105  1  0  0  0  0
 53108  1  0  0  0  0
 53109  1  0  0  0  0
 53110  1  0  0  0  0
 54111  1  0  0  0  0
 54112  1  0  0  0  0
 54113  1  0  0  0  0
M  END
> <PUBCHEM_COMPOUND_CID>
514233
> <PUBCHEM_COMPOUND_CANONICALIZED>
1
> <PUBCHEM_CACTVS_COMPLEXITY>
1420
> <PUBCHEM_CACTVS_HBOND_ACCEPTOR>
10
> <PUBCHEM_CACTVS_HBOND_DONOR>
6
> <PUBCHEM_CACTVS_ROTATABLE_BOND>
19
> <PUBCHEM_CACTVS_SUBSKEYS>
AAADcfB/vAAAAAAAAAAAAAAAGAAAAeIAAAA8QAAAAAAAAAAAAAAAHgAQAAAADyzBgAYCCAPABAAIAIEQGAAAAAAAAAAAAIGIAAEAQBoAwCAUAAAAFgCAAAEYiYCfAAAAAAAAAAAAAAAAAAAAACAAAAAAAA==
> <PUBCHEM_IUPAC_OPENEYE_NAME>
methyl N-[(1S)-2-[[(1S)-1-cyclohexyl-2-[[(1S)-1-[3-[1-[2-(cyclopropylamino)-2-oxo-acetyl]butylcarbamoyl]-2-azabicyclo[2.2.1]heptane-2-carbonyl]-2,2-dimethyl-propyl]amino]-2-oxo-ethyl]amino]-1-[(methoxycarbonylamino)methyl]-2-oxo-ethyl]carbamate
> <PUBCHEM_IUPAC_CAS_NAME>
N-[(2S)-1-[[(1S)-1-cyclohexyl-2-[[(2S)-1-[3-[[[1-(cyclopropylamino)-1,2-dioxohexan-3-yl]amino]-oxomethyl]-2-azabicyclo[2.2.1]heptan-2-yl]-3,3-dimethyl-1-oxobutan-2-yl]amino]-2-oxoethyl]amino]-3-(methoxycarbonylamino)-1-oxopropan-2-yl]carbamic acid methyl ester
> <PUBCHEM_IUPAC_NAME_MARKUP>
methyl <I>N</I>-[(2<I>S</I>)-1-[[(1<I>S</I>)-1-cyclohexyl-2-[[(2<I>S</I>)-1-[3-[[1-(cyclopropylamino)-1,2-dioxohexan-3-yl]carbamoyl]-2-azabicyclo[2.2.1]heptan-2-yl]-3,3-dimethyl-1-oxobutan-2-yl]amino]-2-oxoethyl]amino]-3-(methoxycarbonylamino)-1-oxopropan-2-yl]carbamate
> <PUBCHEM_IUPAC_NAME>
methyl N-[(2S)-1-[[(1S)-1-cyclohexyl-2-[[(2S)-1-[3-[[1-(cyclopropylamino)-1,2-dioxohexan-3-yl]carbamoyl]-2-azabicyclo[2.2.1]heptan-2-yl]-3,3-dimethyl-1-oxobutan-2-yl]amino]-2-oxoethyl]amino]-3-(methoxycarbonylamino)-1-oxopropan-2-yl]carbamate
> <PUBCHEM_IUPAC_SYSTEMATIC_NAME>
methyl N-[(2S)-1-[[(1S)-1-cyclohexyl-2-[[(2S)-1-[3-[[1-(cyclopropylamino)-1,2-bis(oxidanylidene)hexan-3-yl]carbamoyl]-2-azabicyclo[2.2.1]heptan-2-yl]-3,3-dimethyl-1-oxidanylidene-butan-2-yl]amino]-2-oxidanylidene-ethyl]amino]-3-(methoxycarbonylamino)-1-oxidanylidene-propan-2-yl]carbamate
> <PUBCHEM_IUPAC_TRADITIONAL_NAME>
N-[(2S)-2-(carbomethoxyamino)-3-[[(1S)-1-cyclohexyl-2-[[(1S)-1-[3-[1-[2-(cyclopropylamino)-2-keto-acetyl]butylcarbamoyl]-2-azabicyclo[2.2.1]heptane-2-carbonyl]-2,2-dimethyl-propyl]amino]-2-keto-ethyl]amino]-3-keto-propyl]carbamic acid methyl ester
> <PUBCHEM_IUPAC_INCHI>
InChI=1S/C37H59N7O10/c1-7-11-24(28(45)33(49)39-22-15-16-22)40-32(48)27-21-14-17-23(18-21)44(27)34(50)29(37(2,3)4)43-31(47)26(20-12-9-8-10-13-20)42-30(46)25(41-36(52)54-6)19-38-35(51)53-5/h20-27,29H,7-19H2,1-6H3,(H,38,51)(H,39,49)(H,40,48)(H,41,52)(H,42,46)(H,43,47)/t21?,23?,24?,25-,26-,27?,29+/m0/s1
> <PUBCHEM_IUPAC_INCHIKEY>
KETHOJHXZPQZNN-SELVMQEWSA-N
> <PUBCHEM_XLOGP3_AA>
3.5
> <PUBCHEM_EXACT_MASS>
761.43234110
> <PUBCHEM_MOLECULAR_FORMULA>
C37H59N7O10
> <PUBCHEM_MOLECULAR_WEIGHT>
761.9
> <PUBCHEM_OPENEYE_CAN_SMILES>
CCCC(C(=O)C(=O)NC1CC1)NC(=O)C2C3CCC(C3)N2C(=O)C(C(C)(C)C)NC(=O)C(C4CCCCC4)NC(=O)C(CNC(=O)OC)NC(=O)OC
> <PUBCHEM_OPENEYE_ISO_SMILES>
CCCC(C(=O)C(=O)NC1CC1)NC(=O)C2C3CCC(C3)N2C(=O)[C@H](C(C)(C)C)NC(=O)[C@H](C4CCCCC4)NC(=O)[C@H](CNC(=O)OC)NC(=O)OC
> <PUBCHEM_CACTVS_TPSA>
230
> <PUBCHEM_MONOISOTOPIC_WEIGHT>
761.43234110
> <PUBCHEM_TOTAL_CHARGE>
0
> <PUBCHEM_HEAVY_ATOM_COUNT>
54
> <PUBCHEM_ATOM_DEF_STEREO_COUNT>
3
> <PUBCHEM_ATOM_UDEF_STEREO_COUNT>
4
> <PUBCHEM_BOND_DEF_STEREO_COUNT>
0
> <PUBCHEM_BOND_UDEF_STEREO_COUNT>
0
> <PUBCHEM_ISOTOPIC_ATOM_COUNT>
0
> <PUBCHEM_COMPONENT_COUNT>
1
> <PUBCHEM_CACTVS_TAUTO_COUNT>
-1
> <PUBCHEM_COORDINATE_TYPE>
1
5
255
> <PUBCHEM_BONDANNOTATIONS>
26  13  5
33  14  5
49  16  6
18  22  3
19  23  3
21  25  3
28  35  3
$$$$
