514208
  -OEChem-10302200282D
 91 90  0     1  0  0  0  0  0999 V2000
    6.3301   -3.2500    0.0000 P   0  0  3  0  0  0  0  0  0  0  0  0
    8.9282   -1.7500    0.0000 O   0  0  0  0  0  0  0  0  0  0  0  0
    5.4641   -3.7500    0.0000 O   0  0  0  0  0  0  0  0  0  0  0  0
    7.1962   -2.7500    0.0000 O   0  0  0  0  0  0  0  0  0  0  0  0
    5.8301   -2.3840    0.0000 O   0  0  0  0  0  0  0  0  0  0  0  0
   11.5263   -4.2500    0.0000 O   0  0  0  0  0  0  0  0  0  0  0  0
    6.8301   -4.1160    0.0000 O   0  0  0  0  0  0  0  0  0  0  0  0
    2.8660   -3.2500    0.0000 N   0  3  0  0  0  0  0  0  0  0  0  0
   10.6603   -2.7500    0.0000 N   0  0  0  0  0  0  0  0  0  0  0  0
    3.7320   -3.7500    0.0000 C   0  0  0  0  0  0  0  0  0  0  0  0
    2.0000   -2.7500    0.0000 C   0  0  0  0  0  0  0  0  0  0  0  0
    2.3660   -4.1160    0.0000 C   0  0  0  0  0  0  0  0  0  0  0  0
    3.3660   -2.3840    0.0000 C   0  0  0  0  0  0  0  0  0  0  0  0
    4.5981   -3.2500    0.0000 C   0  0  0  0  0  0  0  0  0  0  0  0
   14.9904   -3.2500    0.0000 C   0  0  0  0  0  0  0  0  0  0  0  0
   14.1244   -2.7500    0.0000 C   0  0  0  0  0  0  0  0  0  0  0  0
   15.8564   -2.7500    0.0000 C   0  0  0  0  0  0  0  0  0  0  0  0
    8.9282   -2.7500    0.0000 C   0  0  3  0  0  0  0  0  0  0  0  0
   10.6603    0.2500    0.0000 C   0  0  0  0  0  0  0  0  0  0  0  0
   10.6603    1.2500    0.0000 C   0  0  0  0  0  0  0  0  0  0  0  0
   13.2583   -3.2500    0.0000 C   0  0  0  0  0  0  0  0  0  0  0  0
   16.7224   -3.2500    0.0000 C   0  0  0  0  0  0  0  0  0  0  0  0
    9.7942   -0.2500    0.0000 C   0  0  0  0  0  0  0  0  0  0  0  0
   11.5263    1.7500    0.0000 C   0  0  0  0  0  0  0  0  0  0  0  0
    9.7942   -3.2500    0.0000 C   0  0  0  0  0  0  0  0  0  0  0  0
    9.7942   -1.2500    0.0000 C   0  0  0  0  0  0  0  0  0  0  0  0
   12.3923   -2.7500    0.0000 C   0  0  0  0  0  0  0  0  0  0  0  0
   17.5885   -2.7500    0.0000 C   0  0  0  0  0  0  0  0  0  0  0  0
    8.0622   -3.2500    0.0000 C   0  0  0  0  0  0  0  0  0  0  0  0
   11.5263    2.7500    0.0000 C   0  0  0  0  0  0  0  0  0  0  0  0
   18.4545   -3.2500    0.0000 C   0  0  0  0  0  0  0  0  0  0  0  0
   11.5263   -3.2500    0.0000 C   0  0  0  0  0  0  0  0  0  0  0  0
   12.3923    3.2500    0.0000 C   0  0  0  0  0  0  0  0  0  0  0  0
   19.3205   -2.7500    0.0000 C   0  0  0  0  0  0  0  0  0  0  0  0
   12.3923    4.2500    0.0000 C   0  0  0  0  0  0  0  0  0  0  0  0
    3.3335   -4.2250    0.0000 H   0  0  0  0  0  0  0  0  0  0  0  0
    4.1306   -4.2250    0.0000 H   0  0  0  0  0  0  0  0  0  0  0  0
    2.3100   -2.2131    0.0000 H   0  0  0  0  0  0  0  0  0  0  0  0
    1.4631   -2.4400    0.0000 H   0  0  0  0  0  0  0  0  0  0  0  0
    1.6900   -3.2869    0.0000 H   0  0  0  0  0  0  0  0  0  0  0  0
    1.8291   -3.8060    0.0000 H   0  0  0  0  0  0  0  0  0  0  0  0
    2.0560   -4.6530    0.0000 H   0  0  0  0  0  0  0  0  0  0  0  0
    2.9030   -4.4260    0.0000 H   0  0  0  0  0  0  0  0  0  0  0  0
    3.9030   -2.6940    0.0000 H   0  0  0  0  0  0  0  0  0  0  0  0
    3.6760   -1.8470    0.0000 H   0  0  0  0  0  0  0  0  0  0  0  0
    2.8291   -2.0740    0.0000 H   0  0  0  0  0  0  0  0  0  0  0  0
    4.9966   -2.7750    0.0000 H   0  0  0  0  0  0  0  0  0  0  0  0
    4.1996   -2.7750    0.0000 H   0  0  0  0  0  0  0  0  0  0  0  0
   14.5919   -3.7250    0.0000 H   0  0  0  0  0  0  0  0  0  0  0  0
   15.3889   -3.7250    0.0000 H   0  0  0  0  0  0  0  0  0  0  0  0
   14.5229   -2.2750    0.0000 H   0  0  0  0  0  0  0  0  0  0  0  0
   13.7258   -2.2750    0.0000 H   0  0  0  0  0  0  0  0  0  0  0  0
   16.2549   -2.2750    0.0000 H   0  0  0  0  0  0  0  0  0  0  0  0
   15.4579   -2.2750    0.0000 H   0  0  0  0  0  0  0  0  0  0  0  0
    9.4651   -2.4400    0.0000 H   0  0  0  0  0  0  0  0  0  0  0  0
   10.8723   -0.3326    0.0000 H   0  0  0  0  0  0  0  0  0  0  0  0
   11.2708    0.3577    0.0000 H   0  0  0  0  0  0  0  0  0  0  0  0
   10.4482    1.8326    0.0000 H   0  0  0  0  0  0  0  0  0  0  0  0
   10.0497    1.1423    0.0000 H   0  0  0  0  0  0  0  0  0  0  0  0
   12.8598   -3.7250    0.0000 H   0  0  0  0  0  0  0  0  0  0  0  0
   13.6569   -3.7250    0.0000 H   0  0  0  0  0  0  0  0  0  0  0  0
   16.3239   -3.7250    0.0000 H   0  0  0  0  0  0  0  0  0  0  0  0
   17.1210   -3.7250    0.0000 H   0  0  0  0  0  0  0  0  0  0  0  0
    9.5822    0.3326    0.0000 H   0  0  0  0  0  0  0  0  0  0  0  0
    9.1836   -0.3577    0.0000 H   0  0  0  0  0  0  0  0  0  0  0  0
   11.7383    1.1674    0.0000 H   0  0  0  0  0  0  0  0  0  0  0  0
   12.1369    1.8577    0.0000 H   0  0  0  0  0  0  0  0  0  0  0  0
    9.3957   -3.7250    0.0000 H   0  0  0  0  0  0  0  0  0  0  0  0
   10.1928   -3.7250    0.0000 H   0  0  0  0  0  0  0  0  0  0  0  0
   10.0063   -1.8326    0.0000 H   0  0  0  0  0  0  0  0  0  0  0  0
   10.4048   -1.1423    0.0000 H   0  0  0  0  0  0  0  0  0  0  0  0
   12.7908   -2.2750    0.0000 H   0  0  0  0  0  0  0  0  0  0  0  0
   11.9938   -2.2750    0.0000 H   0  0  0  0  0  0  0  0  0  0  0  0
   17.9870   -2.2750    0.0000 H   0  0  0  0  0  0  0  0  0  0  0  0
   17.1899   -2.2750    0.0000 H   0  0  0  0  0  0  0  0  0  0  0  0
    7.6636   -3.7250    0.0000 H   0  0  0  0  0  0  0  0  0  0  0  0
    8.4607   -3.7250    0.0000 H   0  0  0  0  0  0  0  0  0  0  0  0
   11.3142    3.3326    0.0000 H   0  0  0  0  0  0  0  0  0  0  0  0
   10.9157    2.6423    0.0000 H   0  0  0  0  0  0  0  0  0  0  0  0
   10.6603   -2.1300    0.0000 H   0  0  0  0  0  0  0  0  0  0  0  0
   18.0560   -3.7250    0.0000 H   0  0  0  0  0  0  0  0  0  0  0  0
   18.8530   -3.7250    0.0000 H   0  0  0  0  0  0  0  0  0  0  0  0
   12.6044    2.6674    0.0000 H   0  0  0  0  0  0  0  0  0  0  0  0
   13.0029    3.3577    0.0000 H   0  0  0  0  0  0  0  0  0  0  0  0
   19.6305   -3.2869    0.0000 H   0  0  0  0  0  0  0  0  0  0  0  0
   19.8574   -2.4400    0.0000 H   0  0  0  0  0  0  0  0  0  0  0  0
   19.0105   -2.2131    0.0000 H   0  0  0  0  0  0  0  0  0  0  0  0
   13.0123    4.2500    0.0000 H   0  0  0  0  0  0  0  0  0  0  0  0
   12.3923    4.8700    0.0000 H   0  0  0  0  0  0  0  0  0  0  0  0
   11.7723    4.2500    0.0000 H   0  0  0  0  0  0  0  0  0  0  0  0
    6.1401   -1.8470    0.0000 H   0  0  0  0  0  0  0  0  0  0  0  0
  1  3  1  0  0  0  0
  1  4  1  0  0  0  0
  1  5  1  0  0  0  0
  1  7  2  0  0  0  0
  2 18  1  0  0  0  0
  2 26  1  0  0  0  0
  3 14  1  0  0  0  0
  4 29  1  0  0  0  0
  5 91  1  0  0  0  0
  6 32  2  0  0  0  0
  8 10  1  0  0  0  0
  8 11  1  0  0  0  0
  8 12  1  0  0  0  0
  8 13  1  0  0  0  0
  9 25  1  0  0  0  0
  9 32  1  0  0  0  0
  9 80  1  0  0  0  0
 10 14  1  0  0  0  0
 10 36  1  0  0  0  0
 10 37  1  0  0  0  0
 11 38  1  0  0  0  0
 11 39  1  0  0  0  0
 11 40  1  0  0  0  0
 12 41  1  0  0  0  0
 12 42  1  0  0  0  0
 12 43  1  0  0  0  0
 13 44  1  0  0  0  0
 13 45  1  0  0  0  0
 13 46  1  0  0  0  0
 14 47  1  0  0  0  0
 14 48  1  0  0  0  0
 15 16  1  0  0  0  0
 15 17  1  0  0  0  0
 15 49  1  0  0  0  0
 15 50  1  0  0  0  0
 16 21  1  0  0  0  0
 16 51  1  0  0  0  0
 16 52  1  0  0  0  0
 17 22  1  0  0  0  0
 17 53  1  0  0  0  0
 17 54  1  0  0  0  0
 18 25  1  0  0  0  0
 18 29  1  0  0  0  0
 18 55  1  0  0  0  0
 19 20  1  0  0  0  0
 19 23  1  0  0  0  0
 19 56  1  0  0  0  0
 19 57  1  0  0  0  0
 20 24  1  0  0  0  0
 20 58  1  0  0  0  0
 20 59  1  0  0  0  0
 21 27  1  0  0  0  0
 21 60  1  0  0  0  0
 21 61  1  0  0  0  0
 22 28  1  0  0  0  0
 22 62  1  0  0  0  0
 22 63  1  0  0  0  0
 23 26  1  0  0  0  0
 23 64  1  0  0  0  0
 23 65  1  0  0  0  0
 24 30  1  0  0  0  0
 24 66  1  0  0  0  0
 24 67  1  0  0  0  0
 25 68  1  0  0  0  0
 25 69  1  0  0  0  0
 26 70  1  0  0  0  0
 26 71  1  0  0  0  0
 27 32  1  0  0  0  0
 27 72  1  0  0  0  0
 27 73  1  0  0  0  0
 28 31  1  0  0  0  0
 28 74  1  0  0  0  0
 28 75  1  0  0  0  0
 29 76  1  0  0  0  0
 29 77  1  0  0  0  0
 30 33  1  0  0  0  0
 30 78  1  0  0  0  0
 30 79  1  0  0  0  0
 31 34  1  0  0  0  0
 31 81  1  0  0  0  0
 31 82  1  0  0  0  0
 33 35  1  0  0  0  0
 33 83  1  0  0  0  0
 33 84  1  0  0  0  0
 34 85  1  0  0  0  0
 34 86  1  0  0  0  0
 34 87  1  0  0  0  0
 35 88  1  0  0  0  0
 35 89  1  0  0  0  0
 35 90  1  0  0  0  0
M  CHG  1   8   1
M  END
> <PUBCHEM_COMPOUND_CID>
514208
> <PUBCHEM_COMPOUND_CANONICALIZED>
1
> <PUBCHEM_CACTVS_COMPLEXITY>
557
> <PUBCHEM_CACTVS_HBOND_ACCEPTOR>
6
> <PUBCHEM_CACTVS_HBOND_DONOR>
2
> <PUBCHEM_CACTVS_ROTATABLE_BOND>
25
> <PUBCHEM_CACTVS_SUBSKEYS>
AAADcfB7OAIAAAAAAAAAAAAAAAAAAAAAAAAAAAAAAAAAAAAAAAAAHgAQCCAACBThgAYCAAPABRAIQAEQEIAAAAAAAAAAAIEIAAADABIAgAAHAAAGFgCSAAGYyKCAAAAAAAAAAAAAAAAAAAAAAAAAAAAAAA==
> <PUBCHEM_IUPAC_OPENEYE_NAME>
2-[[3-(decanoylamino)-2-octoxy-propoxy]-hydroxy-phosphoryl]oxyethyl-trimethyl-ammonium
> <PUBCHEM_IUPAC_CAS_NAME>
2-[hydroxy-[2-octoxy-3-(1-oxodecylamino)propoxy]phosphoryl]oxyethyl-trimethylammonium
> <PUBCHEM_IUPAC_NAME_MARKUP>
2-[[3-(decanoylamino)-2-octoxypropoxy]-hydroxyphosphoryl]oxyethyl-trimethylazanium
> <PUBCHEM_IUPAC_NAME>
2-[[3-(decanoylamino)-2-octoxypropoxy]-hydroxyphosphoryl]oxyethyl-trimethylazanium
> <PUBCHEM_IUPAC_SYSTEMATIC_NAME>
2-[[3-(decanoylamino)-2-octoxy-propoxy]-oxidanyl-phosphoryl]oxyethyl-trimethyl-azanium
> <PUBCHEM_IUPAC_TRADITIONAL_NAME>
2-[[3-(caprylamino)-2-octoxy-propoxy]-hydroxy-phosphoryl]oxyethyl-trimethyl-ammonium
> <PUBCHEM_IUPAC_INCHI>
InChI=1S/C26H55N2O6P/c1-6-8-10-12-14-15-17-19-26(29)27-23-25(32-21-18-16-13-11-9-7-2)24-34-35(30,31)33-22-20-28(3,4)5/h25H,6-24H2,1-5H3,(H-,27,29,30,31)/p+1
> <PUBCHEM_IUPAC_INCHIKEY>
SYHMKCNFCSIMOZ-UHFFFAOYSA-O
> <PUBCHEM_XLOGP3_AA>
5.8
> <PUBCHEM_EXACT_MASS>
523.38759951
> <PUBCHEM_MOLECULAR_FORMULA>
C26H56N2O6P+
> <PUBCHEM_MOLECULAR_WEIGHT>
523.7
> <PUBCHEM_OPENEYE_CAN_SMILES>
CCCCCCCCCC(=O)NCC(COP(=O)(O)OCC[N+](C)(C)C)OCCCCCCCC
> <PUBCHEM_OPENEYE_ISO_SMILES>
CCCCCCCCCC(=O)NCC(COP(=O)(O)OCC[N+](C)(C)C)OCCCCCCCC
> <PUBCHEM_CACTVS_TPSA>
94.1
> <PUBCHEM_MONOISOTOPIC_WEIGHT>
523.38759951
> <PUBCHEM_TOTAL_CHARGE>
1
> <PUBCHEM_HEAVY_ATOM_COUNT>
35
> <PUBCHEM_ATOM_DEF_STEREO_COUNT>
0
> <PUBCHEM_ATOM_UDEF_STEREO_COUNT>
1
> <PUBCHEM_BOND_DEF_STEREO_COUNT>
0
> <PUBCHEM_BOND_UDEF_STEREO_COUNT>
0
> <PUBCHEM_ISOTOPIC_ATOM_COUNT>
0
> <PUBCHEM_COMPONENT_COUNT>
1
> <PUBCHEM_CACTVS_TAUTO_COUNT>
-1
> <PUBCHEM_COORDINATE_TYPE>
1
5
255
> <PUBCHEM_BONDANNOTATIONS>
18  25  3
$$$$
