514396
  -OEChem-10302200282D
 77 81  0     1  0  0  0  0  0999 V2000
    9.3056   -1.0605    0.0000 S   0  0  0  0  0  0  0  0  0  0  0  0
    4.6095    3.4783    0.0000 O   0  0  0  0  0  0  0  0  0  0  0  0
    2.8037    4.0605    0.0000 O   0  0  0  0  0  0  0  0  0  0  0  0
    4.1095    0.9395    0.0000 O   0  0  0  0  0  0  0  0  0  0  0  0
    6.7075    0.4395    0.0000 O   0  0  0  0  0  0  0  0  0  0  0  0
    5.8415    0.9395    0.0000 O   0  0  0  0  0  0  0  0  0  0  0  0
    8.8056   -1.9266    0.0000 O   0  0  0  0  0  0  0  0  0  0  0  0
    9.8056   -0.1945    0.0000 O   0  0  0  0  0  0  0  0  0  0  0  0
   12.8499   -1.2558    0.0000 O   0  0  0  0  0  0  0  0  0  0  0  0
    4.9755   -0.5605    0.0000 N   0  0  0  0  0  0  0  0  0  0  0  0
    8.4396   -0.5605    0.0000 N   0  0  3  0  0  0  0  0  0  0  0  0
   12.8499   -2.8653    0.0000 N   0  0  0  0  0  0  0  0  0  0  0  0
   14.4335   -2.0605    0.0000 N   0  0  0  0  0  0  0  0  0  0  0  0
    3.3004    2.5273    0.0000 C   0  0  2  0  0  0  0  0  0  0  0  0
    3.6095    3.4783    0.0000 C   0  0  1  0  0  0  0  0  0  0  0  0
    4.1095    1.9395    0.0000 C   0  0  2  0  0  0  0  0  0  0  0  0
    2.3064    2.5298    0.0000 C   0  0  0  0  0  0  0  0  0  0  0  0
    4.9185    2.5273    0.0000 C   0  0  0  0  0  0  0  0  0  0  0  0
    2.0000    3.4755    0.0000 C   0  0  0  0  0  0  0  0  0  0  0  0
    5.8415   -1.0605    0.0000 C   0  0  2  0  0  0  0  0  0  0  0  0
    6.7075   -0.5605    0.0000 C   0  0  1  0  0  0  0  0  0  0  0  0
    4.9755    0.4395    0.0000 C   0  0  0  0  0  0  0  0  0  0  0  0
    7.5736   -1.0605    0.0000 C   0  0  0  0  0  0  0  0  0  0  0  0
    5.8415   -2.0605    0.0000 C   0  0  0  0  0  0  0  0  0  0  0  0
    8.4396    0.4395    0.0000 C   0  0  0  0  0  0  0  0  0  0  0  0
    9.3056    0.9395    0.0000 C   0  0  0  0  0  0  0  0  0  0  0  0
    4.9755   -2.5605    0.0000 C   0  0  0  0  0  0  0  0  0  0  0  0
   10.1716   -1.5605    0.0000 C   0  0  0  0  0  0  0  0  0  0  0  0
    9.3056    1.9395    0.0000 C   0  0  0  0  0  0  0  0  0  0  0  0
   10.1716    0.4395    0.0000 C   0  0  0  0  0  0  0  0  0  0  0  0
    4.9755   -3.5605    0.0000 C   0  0  0  0  0  0  0  0  0  0  0  0
    4.1095   -2.0605    0.0000 C   0  0  0  0  0  0  0  0  0  0  0  0
   11.0377   -1.0605    0.0000 C   0  0  0  0  0  0  0  0  0  0  0  0
   10.1716   -2.5605    0.0000 C   0  0  0  0  0  0  0  0  0  0  0  0
   11.9037   -1.5605    0.0000 C   0  0  0  0  0  0  0  0  0  0  0  0
    4.1095   -4.0605    0.0000 C   0  0  0  0  0  0  0  0  0  0  0  0
    3.2434   -2.5605    0.0000 C   0  0  0  0  0  0  0  0  0  0  0  0
   11.0377   -3.0605    0.0000 C   0  0  0  0  0  0  0  0  0  0  0  0
   11.9037   -2.5605    0.0000 C   0  0  0  0  0  0  0  0  0  0  0  0
    3.2434   -3.5605    0.0000 C   0  0  0  0  0  0  0  0  0  0  0  0
   13.4335   -2.0605    0.0000 C   0  0  0  0  0  0  0  0  0  0  0  0
    3.0367    1.7192    0.0000 H   0  0  0  0  0  0  0  0  0  0  0  0
    3.8711    4.2870    0.0000 H   0  0  0  0  0  0  0  0  0  0  0  0
    3.5570    1.6580    0.0000 H   0  0  0  0  0  0  0  0  0  0  0  0
    1.6997    2.4018    0.0000 H   0  0  0  0  0  0  0  0  0  0  0  0
    2.3699    1.9131    0.0000 H   0  0  0  0  0  0  0  0  0  0  0  0
    5.2285    1.9903    0.0000 H   0  0  0  0  0  0  0  0  0  0  0  0
    5.4849    2.7794    0.0000 H   0  0  0  0  0  0  0  0  0  0  0  0
    1.6898    4.0124    0.0000 H   0  0  0  0  0  0  0  0  0  0  0  0
    1.4335    3.2235    0.0000 H   0  0  0  0  0  0  0  0  0  0  0  0
    5.3046   -1.3705    0.0000 H   0  0  0  0  0  0  0  0  0  0  0  0
    7.2445   -0.2505    0.0000 H   0  0  0  0  0  0  0  0  0  0  0  0
    7.1750   -1.5355    0.0000 H   0  0  0  0  0  0  0  0  0  0  0  0
    7.9721   -1.5355    0.0000 H   0  0  0  0  0  0  0  0  0  0  0  0
    4.4386   -0.8705    0.0000 H   0  0  0  0  0  0  0  0  0  0  0  0
    6.0536   -2.6431    0.0000 H   0  0  0  0  0  0  0  0  0  0  0  0
    6.4521   -1.9529    0.0000 H   0  0  0  0  0  0  0  0  0  0  0  0
    8.2275    1.0221    0.0000 H   0  0  0  0  0  0  0  0  0  0  0  0
    7.8290    0.3318    0.0000 H   0  0  0  0  0  0  0  0  0  0  0  0
    8.7687    1.2495    0.0000 H   0  0  0  0  0  0  0  0  0  0  0  0
    7.2445    0.7495    0.0000 H   0  0  0  0  0  0  0  0  0  0  0  0
    9.9256    1.9395    0.0000 H   0  0  0  0  0  0  0  0  0  0  0  0
    9.3056    2.5595    0.0000 H   0  0  0  0  0  0  0  0  0  0  0  0
    8.6856    1.9395    0.0000 H   0  0  0  0  0  0  0  0  0  0  0  0
    9.8616   -0.0975    0.0000 H   0  0  0  0  0  0  0  0  0  0  0  0
   10.7086    0.1295    0.0000 H   0  0  0  0  0  0  0  0  0  0  0  0
   10.4816    0.9764    0.0000 H   0  0  0  0  0  0  0  0  0  0  0  0
    5.5124   -3.8705    0.0000 H   0  0  0  0  0  0  0  0  0  0  0  0
    4.1095   -1.4405    0.0000 H   0  0  0  0  0  0  0  0  0  0  0  0
   11.0377   -0.4405    0.0000 H   0  0  0  0  0  0  0  0  0  0  0  0
    9.6347   -2.8705    0.0000 H   0  0  0  0  0  0  0  0  0  0  0  0
    4.1095   -4.6805    0.0000 H   0  0  0  0  0  0  0  0  0  0  0  0
    2.7065   -2.2505    0.0000 H   0  0  0  0  0  0  0  0  0  0  0  0
   11.0377   -3.6805    0.0000 H   0  0  0  0  0  0  0  0  0  0  0  0
    2.7065   -3.8705    0.0000 H   0  0  0  0  0  0  0  0  0  0  0  0
   14.7435   -2.5975    0.0000 H   0  0  0  0  0  0  0  0  0  0  0  0
   14.7435   -1.5236    0.0000 H   0  0  0  0  0  0  0  0  0  0  0  0
  1  7  2  0  0  0  0
  1  8  2  0  0  0  0
  1 11  1  0  0  0  0
  1 28  1  0  0  0  0
  2 15  1  0  0  0  0
  2 18  1  0  0  0  0
  3 15  1  0  0  0  0
  3 19  1  0  0  0  0
 16  4  1  6  0  0  0
  4 22  1  0  0  0  0
 21  5  1  6  0  0  0
  5 61  1  0  0  0  0
  6 22  2  0  0  0  0
  9 35  1  0  0  0  0
  9 41  1  0  0  0  0
 20 10  1  6  0  0  0
 10 22  1  0  0  0  0
 10 55  1  0  0  0  0
 11 23  1  0  0  0  0
 11 25  1  0  0  0  0
 12 39  1  0  0  0  0
 12 41  2  0  0  0  0
 13 41  1  0  0  0  0
 13 76  1  0  0  0  0
 13 77  1  0  0  0  0
 14 15  1  0  0  0  0
 14 16  1  0  0  0  0
 14 17  1  0  0  0  0
 14 42  1  1  0  0  0
 15 43  1  1  0  0  0
 16 18  1  0  0  0  0
 16 44  1  0  0  0  0
 17 19  1  0  0  0  0
 17 45  1  0  0  0  0
 17 46  1  0  0  0  0
 18 47  1  0  0  0  0
 18 48  1  0  0  0  0
 19 49  1  0  0  0  0
 19 50  1  0  0  0  0
 20 21  1  0  0  0  0
 20 24  1  0  0  0  0
 20 51  1  0  0  0  0
 21 23  1  0  0  0  0
 21 52  1  0  0  0  0
 23 53  1  0  0  0  0
 23 54  1  0  0  0  0
 24 27  1  0  0  0  0
 24 56  1  0  0  0  0
 24 57  1  0  0  0  0
 25 26  1  0  0  0  0
 25 58  1  0  0  0  0
 25 59  1  0  0  0  0
 26 29  1  0  0  0  0
 26 30  1  0  0  0  0
 26 60  1  0  0  0  0
 27 31  2  0  0  0  0
 27 32  1  0  0  0  0
 28 33  2  0  0  0  0
 28 34  1  0  0  0  0
 29 62  1  0  0  0  0
 29 63  1  0  0  0  0
 29 64  1  0  0  0  0
 30 65  1  0  0  0  0
 30 66  1  0  0  0  0
 30 67  1  0  0  0  0
 31 36  1  0  0  0  0
 31 68  1  0  0  0  0
 32 37  2  0  0  0  0
 32 69  1  0  0  0  0
 33 35  1  0  0  0  0
 33 70  1  0  0  0  0
 34 38  2  0  0  0  0
 34 71  1  0  0  0  0
 35 39  2  0  0  0  0
 36 40  2  0  0  0  0
 36 72  1  0  0  0  0
 37 40  1  0  0  0  0
 37 73  1  0  0  0  0
 38 39  1  0  0  0  0
 38 74  1  0  0  0  0
 40 75  1  0  0  0  0
M  END
> <PUBCHEM_COMPOUND_CID>
514396
> <PUBCHEM_COMPOUND_CANONICALIZED>
1
> <PUBCHEM_CACTVS_COMPLEXITY>
975
> <PUBCHEM_CACTVS_HBOND_ACCEPTOR>
11
> <PUBCHEM_CACTVS_HBOND_DONOR>
3
> <PUBCHEM_CACTVS_ROTATABLE_BOND>
12
> <PUBCHEM_CACTVS_SUBSKEYS>
AAADcfB7vABAAAAAAAAAAAAAAAAAAWJEgAAwYAAAAAASAFgB9AAAHgQQSAAADTzx3gcz37LIFkKoA6RyfHTCiDkvYiAImLm/bNmfNrLE9buvcShl1hPe6afY6KgOAAQABAAAEAAACAAIAAAgAAAAAAAAAA==
> <PUBCHEM_IUPAC_OPENEYE_NAME>
[(3aS,4R,6aR)-2,3,3a,4,5,6a-hexahydrofuro[2,3-b]furan-4-yl] N-[(1S,2R)-3-[(2-amino-1,3-benzoxazol-6-yl)sulfonyl-isobutyl-amino]-1-benzyl-2-hydroxy-propyl]carbamate
> <PUBCHEM_IUPAC_CAS_NAME>
N-[(2S,3R)-4-[(2-amino-1,3-benzoxazol-6-yl)sulfonyl-(2-methylpropyl)amino]-3-hydroxy-1-phenylbutan-2-yl]carbamic acid [(3aS,4R,6aR)-2,3,3a,4,5,6a-hexahydrofuro[2,3-b]furan-4-yl] ester
> <PUBCHEM_IUPAC_NAME_MARKUP>
[(3<I>a</I><I>S</I>,4<I>R</I>,6<I>a</I><I>R</I>)-2,3,3<I>a</I>,4,5,6<I>a</I>-hexahydrofuro[2,3-b]furan-4-yl] <I>N</I>-[(2<I>S</I>,3<I>R</I>)-4-[(2-amino-1,3-benzoxazol-6-yl)sulfonyl-(2-methylpropyl)amino]-3-hydroxy-1-phenylbutan-2-yl]carbamate
> <PUBCHEM_IUPAC_NAME>
[(3aS,4R,6aR)-2,3,3a,4,5,6a-hexahydrofuro[2,3-b]furan-4-yl] N-[(2S,3R)-4-[(2-amino-1,3-benzoxazol-6-yl)sulfonyl-(2-methylpropyl)amino]-3-hydroxy-1-phenylbutan-2-yl]carbamate
> <PUBCHEM_IUPAC_SYSTEMATIC_NAME>
[(3aS,4R,6aR)-2,3,3a,4,5,6a-hexahydrofuro[2,3-b]furan-4-yl] N-[(2S,3R)-4-[(2-azanyl-1,3-benzoxazol-6-yl)sulfonyl-(2-methylpropyl)amino]-3-oxidanyl-1-phenyl-butan-2-yl]carbamate
> <PUBCHEM_IUPAC_TRADITIONAL_NAME>
N-[(1S,2R)-3-[(2-amino-1,3-benzoxazol-6-yl)sulfonyl-isobutyl-amino]-1-benzyl-2-hydroxy-propyl]carbamic acid [(3aS,4R,6aR)-2,3,3a,4,5,6a-hexahydrofuro[2,3-b]furan-4-yl] ester
> <PUBCHEM_IUPAC_INCHI>
InChI=1S/C28H36N4O8S/c1-17(2)14-32(41(35,36)19-8-9-21-24(13-19)39-27(29)30-21)15-23(33)22(12-18-6-4-3-5-7-18)31-28(34)40-25-16-38-26-20(25)10-11-37-26/h3-9,13,17,20,22-23,25-26,33H,10-12,14-16H2,1-2H3,(H2,29,30)(H,31,34)/t20-,22-,23+,25-,26+/m0/s1
> <PUBCHEM_IUPAC_INCHIKEY>
UQSCOEMTMKHABW-OECXIXJESA-N
> <PUBCHEM_XLOGP3_AA>
3.1
> <PUBCHEM_EXACT_MASS>
588.22538529
> <PUBCHEM_MOLECULAR_FORMULA>
C28H36N4O8S
> <PUBCHEM_MOLECULAR_WEIGHT>
588.7
> <PUBCHEM_OPENEYE_CAN_SMILES>
CC(C)CN(CC(C(CC1=CC=CC=C1)NC(=O)OC2COC3C2CCO3)O)S(=O)(=O)C4=CC5=C(C=C4)N=C(O5)N
> <PUBCHEM_OPENEYE_ISO_SMILES>
CC(C)CN(C[C@H]([C@H](CC1=CC=CC=C1)NC(=O)O[C@H]2CO[C@@H]3[C@H]2CCO3)O)S(=O)(=O)C4=CC5=C(C=C4)N=C(O5)N
> <PUBCHEM_CACTVS_TPSA>
175
> <PUBCHEM_MONOISOTOPIC_WEIGHT>
588.22538529
> <PUBCHEM_TOTAL_CHARGE>
0
> <PUBCHEM_HEAVY_ATOM_COUNT>
41
> <PUBCHEM_ATOM_DEF_STEREO_COUNT>
5
> <PUBCHEM_ATOM_UDEF_STEREO_COUNT>
0
> <PUBCHEM_BOND_DEF_STEREO_COUNT>
0
> <PUBCHEM_BOND_UDEF_STEREO_COUNT>
0
> <PUBCHEM_ISOTOPIC_ATOM_COUNT>
0
> <PUBCHEM_COMPONENT_COUNT>
1
> <PUBCHEM_CACTVS_TAUTO_COUNT>
-1
> <PUBCHEM_COORDINATE_TYPE>
1
5
255
> <PUBCHEM_BONDANNOTATIONS>
20  10  6
12  39  8
12  41  8
14  42  5
15  43  5
27  31  8
27  32  8
28  33  8
28  34  8
31  36  8
32  37  8
33  35  8
34  38  8
35  39  8
36  40  8
37  40  8
38  39  8
16  4  6
21  5  6
9  35  8
9  41  8
$$$$
