514399
  -OEChem-10302200282D
 73 76  0     1  0  0  0  0  0999 V2000
    9.6448   -0.8512    0.0000 S   0  0  0  0  0  0  0  0  0  0  0  0
    3.4782    3.6433    0.0000 S   0  0  0  0  0  0  0  0  0  0  0  0
    7.0468    0.6488    0.0000 O   0  0  0  0  0  0  0  0  0  0  0  0
    9.1448   -1.7172    0.0000 O   0  0  0  0  0  0  0  0  0  0  0  0
   10.1449    0.0148    0.0000 O   0  0  0  0  0  0  0  0  0  0  0  0
    4.4487    1.1488    0.0000 O   0  0  0  0  0  0  0  0  0  0  0  0
   13.1891   -1.0465    0.0000 O   0  0  0  0  0  0  0  0  0  0  0  0
    6.1808    1.1488    0.0000 O   0  0  0  0  0  0  0  0  0  0  0  0
    8.7788   -0.3512    0.0000 N   0  0  3  0  0  0  0  0  0  0  0  0
    5.3147   -0.3512    0.0000 N   0  0  0  0  0  0  0  0  0  0  0  0
   13.1891   -2.6559    0.0000 N   0  0  0  0  0  0  0  0  0  0  0  0
   14.7728   -1.8512    0.0000 N   0  0  0  0  0  0  0  0  0  0  0  0
    2.0000    2.9852    0.0000 N   0  0  0  0  0  0  0  0  0  0  0  0
    7.0468   -0.3512    0.0000 C   0  0  2  0  0  0  0  0  0  0  0  0
    7.9128   -0.8512    0.0000 C   0  0  0  0  0  0  0  0  0  0  0  0
    6.1808   -0.8512    0.0000 C   0  0  2  0  0  0  0  0  0  0  0  0
    8.7788    0.6488    0.0000 C   0  0  0  0  0  0  0  0  0  0  0  0
    9.6448    1.1488    0.0000 C   0  0  0  0  0  0  0  0  0  0  0  0
    6.1808   -1.8512    0.0000 C   0  0  0  0  0  0  0  0  0  0  0  0
   10.5109   -1.3512    0.0000 C   0  0  0  0  0  0  0  0  0  0  0  0
    9.6448    2.1488    0.0000 C   0  0  0  0  0  0  0  0  0  0  0  0
   10.5109    0.6488    0.0000 C   0  0  0  0  0  0  0  0  0  0  0  0
    5.3147   -2.3512    0.0000 C   0  0  0  0  0  0  0  0  0  0  0  0
   11.3769   -0.8512    0.0000 C   0  0  0  0  0  0  0  0  0  0  0  0
   10.5109   -2.3512    0.0000 C   0  0  0  0  0  0  0  0  0  0  0  0
    5.3147    0.6488    0.0000 C   0  0  0  0  0  0  0  0  0  0  0  0
    5.3147   -3.3512    0.0000 C   0  0  0  0  0  0  0  0  0  0  0  0
    4.4487   -1.8512    0.0000 C   0  0  0  0  0  0  0  0  0  0  0  0
   12.2429   -1.3512    0.0000 C   0  0  0  0  0  0  0  0  0  0  0  0
   11.3769   -2.8512    0.0000 C   0  0  0  0  0  0  0  0  0  0  0  0
   12.2429   -2.3512    0.0000 C   0  0  0  0  0  0  0  0  0  0  0  0
    4.4487   -3.8512    0.0000 C   0  0  0  0  0  0  0  0  0  0  0  0
    3.5827   -2.3512    0.0000 C   0  0  0  0  0  0  0  0  0  0  0  0
    3.5827   -3.3512    0.0000 C   0  0  0  0  0  0  0  0  0  0  0  0
   13.7728   -1.8512    0.0000 C   0  0  0  0  0  0  0  0  0  0  0  0
    4.4487    2.1488    0.0000 C   0  0  0  0  0  0  0  0  0  0  0  0
    3.5827    2.6488    0.0000 C   0  0  0  0  0  0  0  0  0  0  0  0
   15.2728   -2.7172    0.0000 C   0  0  0  0  0  0  0  0  0  0  0  0
    2.6691    2.2420    0.0000 C   0  0  0  0  0  0  0  0  0  0  0  0
    2.5000    3.8512    0.0000 C   0  0  0  0  0  0  0  0  0  0  0  0
    7.5837   -0.0412    0.0000 H   0  0  0  0  0  0  0  0  0  0  0  0
    7.5143   -1.3262    0.0000 H   0  0  0  0  0  0  0  0  0  0  0  0
    8.3113   -1.3262    0.0000 H   0  0  0  0  0  0  0  0  0  0  0  0
    6.1808   -0.2312    0.0000 H   0  0  0  0  0  0  0  0  0  0  0  0
    8.5668    1.2314    0.0000 H   0  0  0  0  0  0  0  0  0  0  0  0
    8.1682    0.5411    0.0000 H   0  0  0  0  0  0  0  0  0  0  0  0
    9.1079    1.4588    0.0000 H   0  0  0  0  0  0  0  0  0  0  0  0
    6.3928   -2.4338    0.0000 H   0  0  0  0  0  0  0  0  0  0  0  0
    6.7913   -1.7436    0.0000 H   0  0  0  0  0  0  0  0  0  0  0  0
    4.7778   -0.6612    0.0000 H   0  0  0  0  0  0  0  0  0  0  0  0
   10.2649    2.1488    0.0000 H   0  0  0  0  0  0  0  0  0  0  0  0
    9.6448    2.7688    0.0000 H   0  0  0  0  0  0  0  0  0  0  0  0
    9.0248    2.1488    0.0000 H   0  0  0  0  0  0  0  0  0  0  0  0
   10.2009    0.1118    0.0000 H   0  0  0  0  0  0  0  0  0  0  0  0
   11.0478    0.3388    0.0000 H   0  0  0  0  0  0  0  0  0  0  0  0
   10.8209    1.1857    0.0000 H   0  0  0  0  0  0  0  0  0  0  0  0
    7.5837    0.9588    0.0000 H   0  0  0  0  0  0  0  0  0  0  0  0
   11.3769   -0.2312    0.0000 H   0  0  0  0  0  0  0  0  0  0  0  0
    9.9739   -2.6612    0.0000 H   0  0  0  0  0  0  0  0  0  0  0  0
    5.8517   -3.6612    0.0000 H   0  0  0  0  0  0  0  0  0  0  0  0
    4.4487   -1.2312    0.0000 H   0  0  0  0  0  0  0  0  0  0  0  0
   11.3769   -3.4712    0.0000 H   0  0  0  0  0  0  0  0  0  0  0  0
    4.4487   -4.4712    0.0000 H   0  0  0  0  0  0  0  0  0  0  0  0
    3.0457   -2.0412    0.0000 H   0  0  0  0  0  0  0  0  0  0  0  0
    3.0457   -3.6612    0.0000 H   0  0  0  0  0  0  0  0  0  0  0  0
    5.0593    2.0411    0.0000 H   0  0  0  0  0  0  0  0  0  0  0  0
    4.6608    2.7314    0.0000 H   0  0  0  0  0  0  0  0  0  0  0  0
   15.0828   -1.3143    0.0000 H   0  0  0  0  0  0  0  0  0  0  0  0
   14.7358   -3.0272    0.0000 H   0  0  0  0  0  0  0  0  0  0  0  0
   15.5828   -3.2542    0.0000 H   0  0  0  0  0  0  0  0  0  0  0  0
   15.8097   -2.4072    0.0000 H   0  0  0  0  0  0  0  0  0  0  0  0
    2.5402    1.6356    0.0000 H   0  0  0  0  0  0  0  0  0  0  0  0
    2.2478    4.4176    0.0000 H   0  0  0  0  0  0  0  0  0  0  0  0
  1  4  2  0  0  0  0
  1  5  2  0  0  0  0
  1  9  1  0  0  0  0
  1 20  1  0  0  0  0
  2 37  1  0  0  0  0
  2 40  1  0  0  0  0
 14  3  1  6  0  0  0
  3 57  1  0  0  0  0
  6 26  1  0  0  0  0
  6 36  1  0  0  0  0
  7 29  1  0  0  0  0
  7 35  1  0  0  0  0
  8 26  2  0  0  0  0
  9 15  1  0  0  0  0
  9 17  1  0  0  0  0
 16 10  1  6  0  0  0
 10 26  1  0  0  0  0
 10 50  1  0  0  0  0
 11 31  1  0  0  0  0
 11 35  2  0  0  0  0
 12 35  1  0  0  0  0
 12 38  1  0  0  0  0
 12 68  1  0  0  0  0
 13 39  1  0  0  0  0
 13 40  2  0  0  0  0
 14 15  1  0  0  0  0
 14 16  1  0  0  0  0
 14 41  1  0  0  0  0
 15 42  1  0  0  0  0
 15 43  1  0  0  0  0
 16 19  1  0  0  0  0
 16 44  1  0  0  0  0
 17 18  1  0  0  0  0
 17 45  1  0  0  0  0
 17 46  1  0  0  0  0
 18 21  1  0  0  0  0
 18 22  1  0  0  0  0
 18 47  1  0  0  0  0
 19 23  1  0  0  0  0
 19 48  1  0  0  0  0
 19 49  1  0  0  0  0
 20 24  2  0  0  0  0
 20 25  1  0  0  0  0
 21 51  1  0  0  0  0
 21 52  1  0  0  0  0
 21 53  1  0  0  0  0
 22 54  1  0  0  0  0
 22 55  1  0  0  0  0
 22 56  1  0  0  0  0
 23 27  2  0  0  0  0
 23 28  1  0  0  0  0
 24 29  1  0  0  0  0
 24 58  1  0  0  0  0
 25 30  2  0  0  0  0
 25 59  1  0  0  0  0
 27 32  1  0  0  0  0
 27 60  1  0  0  0  0
 28 33  2  0  0  0  0
 28 61  1  0  0  0  0
 29 31  2  0  0  0  0
 30 31  1  0  0  0  0
 30 62  1  0  0  0  0
 32 34  2  0  0  0  0
 32 63  1  0  0  0  0
 33 34  1  0  0  0  0
 33 64  1  0  0  0  0
 34 65  1  0  0  0  0
 36 37  1  0  0  0  0
 36 66  1  0  0  0  0
 36 67  1  0  0  0  0
 37 39  2  0  0  0  0
 38 69  1  0  0  0  0
 38 70  1  0  0  0  0
 38 71  1  0  0  0  0
 39 72  1  0  0  0  0
 40 73  1  0  0  0  0
M  END
> <PUBCHEM_COMPOUND_CID>
514399
> <PUBCHEM_COMPOUND_CANONICALIZED>
1
> <PUBCHEM_CACTVS_COMPLEXITY>
900
> <PUBCHEM_CACTVS_HBOND_ACCEPTOR>
11
> <PUBCHEM_CACTVS_HBOND_DONOR>
3
> <PUBCHEM_CACTVS_ROTATABLE_BOND>
14
> <PUBCHEM_CACTVS_SUBSKEYS>
AAADcfB7uABgAAAAAAAAAAAAAAAAAWLAAAAwYAAAAAAAAFgB/AAAHgQQSAAADTzh3ga/37LIFkqsA7R3fHTC+Ll/ajhJ2L2/bNmONrLE9buNcShu1hPY6aeYyKAOAAQABAAAEAAACAAIAAAgAAAAAAAAAA==
> <PUBCHEM_IUPAC_OPENEYE_NAME>
thiazol-5-ylmethyl N-[(1S,2R)-1-benzyl-2-hydroxy-3-[isobutyl-[[2-(methylamino)-1,3-benzoxazol-6-yl]sulfonyl]amino]propyl]carbamate
> <PUBCHEM_IUPAC_CAS_NAME>
N-[(2S,3R)-3-hydroxy-4-[[2-(methylamino)-1,3-benzoxazol-6-yl]sulfonyl-(2-methylpropyl)amino]-1-phenylbutan-2-yl]carbamic acid 5-thiazolylmethyl ester
> <PUBCHEM_IUPAC_NAME_MARKUP>
1,3-thiazol-5-ylmethyl <I>N</I>-[(2<I>S</I>,3<I>R</I>)-3-hydroxy-4-[[2-(methylamino)-1,3-benzoxazol-6-yl]sulfonyl-(2-methylpropyl)amino]-1-phenylbutan-2-yl]carbamate
> <PUBCHEM_IUPAC_NAME>
1,3-thiazol-5-ylmethyl N-[(2S,3R)-3-hydroxy-4-[[2-(methylamino)-1,3-benzoxazol-6-yl]sulfonyl-(2-methylpropyl)amino]-1-phenylbutan-2-yl]carbamate
> <PUBCHEM_IUPAC_SYSTEMATIC_NAME>
1,3-thiazol-5-ylmethyl N-[(2S,3R)-4-[[2-(methylamino)-1,3-benzoxazol-6-yl]sulfonyl-(2-methylpropyl)amino]-3-oxidanyl-1-phenyl-butan-2-yl]carbamate
> <PUBCHEM_IUPAC_TRADITIONAL_NAME>
N-[(1S,2R)-1-benzyl-2-hydroxy-3-[isobutyl-[[2-(methylamino)-1,3-benzoxazol-6-yl]sulfonyl]amino]propyl]carbamic acid thiazol-5-ylmethyl ester
> <PUBCHEM_IUPAC_INCHI>
InChI=1S/C27H33N5O6S2/c1-18(2)14-32(40(35,36)21-9-10-22-25(12-21)38-26(28-3)30-22)15-24(33)23(11-19-7-5-4-6-8-19)31-27(34)37-16-20-13-29-17-39-20/h4-10,12-13,17-18,23-24,33H,11,14-16H2,1-3H3,(H,28,30)(H,31,34)/t23-,24+/m0/s1
> <PUBCHEM_IUPAC_INCHIKEY>
RSIDGRYMLOOGJQ-BJKOFHAPSA-N
> <PUBCHEM_XLOGP3_AA>
4.2
> <PUBCHEM_EXACT_MASS>
587.18722614
> <PUBCHEM_MOLECULAR_FORMULA>
C27H33N5O6S2
> <PUBCHEM_MOLECULAR_WEIGHT>
587.7
> <PUBCHEM_OPENEYE_CAN_SMILES>
CC(C)CN(CC(C(CC1=CC=CC=C1)NC(=O)OCC2=CN=CS2)O)S(=O)(=O)C3=CC4=C(C=C3)N=C(O4)NC
> <PUBCHEM_OPENEYE_ISO_SMILES>
CC(C)CN(C[C@H]([C@H](CC1=CC=CC=C1)NC(=O)OCC2=CN=CS2)O)S(=O)(=O)C3=CC4=C(C=C3)N=C(O4)NC
> <PUBCHEM_CACTVS_TPSA>
184
> <PUBCHEM_MONOISOTOPIC_WEIGHT>
587.18722614
> <PUBCHEM_TOTAL_CHARGE>
0
> <PUBCHEM_HEAVY_ATOM_COUNT>
40
> <PUBCHEM_ATOM_DEF_STEREO_COUNT>
2
> <PUBCHEM_ATOM_UDEF_STEREO_COUNT>
0
> <PUBCHEM_BOND_DEF_STEREO_COUNT>
0
> <PUBCHEM_BOND_UDEF_STEREO_COUNT>
0
> <PUBCHEM_ISOTOPIC_ATOM_COUNT>
0
> <PUBCHEM_COMPONENT_COUNT>
1
> <PUBCHEM_CACTVS_TAUTO_COUNT>
-1
> <PUBCHEM_COORDINATE_TYPE>
1
5
255
> <PUBCHEM_BONDANNOTATIONS>
16  10  6
11  31  8
11  35  8
13  39  8
13  40  8
2  37  8
2  40  8
20  24  8
20  25  8
23  27  8
23  28  8
24  29  8
25  30  8
27  32  8
28  33  8
29  31  8
14  3  6
30  31  8
32  34  8
33  34  8
37  39  8
7  29  8
7  35  8
$$$$
