514352
  -OEChem-10302200282D
 54 57  0     1  0  0  0  0  0999 V2000
    8.8625    2.5352    0.0000 P   0  0  3  0  0  0  0  0  0  0  0  0
    8.0524    1.9488    0.0000 O   0  0  0  0  0  0  0  0  0  0  0  0
    8.2761    3.3452    0.0000 O   0  0  0  0  0  0  0  0  0  0  0  0
    9.4489    1.7252    0.0000 O   0  0  0  0  0  0  0  0  0  0  0  0
   10.2769    5.6974    0.0000 O   0  0  0  0  0  0  0  0  0  0  0  0
   11.2926    4.2944    0.0000 O   0  0  0  0  0  0  0  0  0  0  0  0
    4.2690   -4.6949    0.0000 N   0  0  0  0  0  0  0  0  0  0  0  0
    6.0812   -1.8902    0.0000 N   0  0  0  0  0  0  0  0  0  0  0  0
    6.0812   -3.4996    0.0000 N   0  0  0  0  0  0  0  0  0  0  0  0
    3.4030   -3.1949    0.0000 N   0  0  0  0  0  0  0  0  0  0  0  0
    4.2690   -1.6949    0.0000 N   0  0  0  0  0  0  0  0  0  0  0  0
    9.6725    3.1216    0.0000 N   0  0  0  0  0  0  0  0  0  0  0  0
    2.5369   -1.6949    0.0000 N   0  0  0  0  0  0  0  0  0  0  0  0
    3.4030   -5.1949    0.0000 C   0  0  0  0  0  0  0  0  0  0  0  0
    2.4030   -5.1949    0.0000 C   0  0  0  0  0  0  0  0  0  0  0  0
    2.9030   -6.0609    0.0000 C   0  0  0  0  0  0  0  0  0  0  0  0
    6.3919   -0.9396    0.0000 C   0  0  2  0  0  0  0  0  0  0  0  0
    7.3435   -0.6323    0.0000 C   0  0  0  0  0  0  0  0  0  0  0  0
    7.3452    0.3677    0.0000 C   0  0  1  0  0  0  0  0  0  0  0  0
    5.8055   -0.1296    0.0000 C   0  0  0  0  0  0  0  0  0  0  0  0
    6.3947    0.6784    0.0000 C   0  0  0  0  0  0  0  0  0  0  0  0
    4.2690   -3.6949    0.0000 C   0  0  0  0  0  0  0  0  0  0  0  0
    8.1552    0.9541    0.0000 C   0  0  0  0  0  0  0  0  0  0  0  0
    5.1350   -2.1949    0.0000 C   0  0  0  0  0  0  0  0  0  0  0  0
    5.1350   -3.1949    0.0000 C   0  0  0  0  0  0  0  0  0  0  0  0
    6.6648   -2.6949    0.0000 C   0  0  0  0  0  0  0  0  0  0  0  0
    3.4030   -2.1949    0.0000 C   0  0  0  0  0  0  0  0  0  0  0  0
    9.5697    4.1163    0.0000 C   0  0  2  0  0  0  0  0  0  0  0  0
    8.6569    4.5246    0.0000 C   0  0  0  0  0  0  0  0  0  0  0  0
   10.3797    4.7027    0.0000 C   0  0  0  0  0  0  0  0  0  0  0  0
    3.2425   -4.5960    0.0000 H   0  0  0  0  0  0  0  0  0  0  0  0
    2.2953   -4.5843    0.0000 H   0  0  0  0  0  0  0  0  0  0  0  0
    1.8204   -5.4070    0.0000 H   0  0  0  0  0  0  0  0  0  0  0  0
    2.4280   -6.4594    0.0000 H   0  0  0  0  0  0  0  0  0  0  0  0
    3.3779   -6.4594    0.0000 H   0  0  0  0  0  0  0  0  0  0  0  0
    5.7794   -1.0356    0.0000 H   0  0  0  0  0  0  0  0  0  0  0  0
    7.4713   -1.2390    0.0000 H   0  0  0  0  0  0  0  0  0  0  0  0
    7.9602   -0.5685    0.0000 H   0  0  0  0  0  0  0  0  0  0  0  0
    7.2493    0.9803    0.0000 H   0  0  0  0  0  0  0  0  0  0  0  0
    4.8059   -5.0049    0.0000 H   0  0  0  0  0  0  0  0  0  0  0  0
    5.1855   -0.1285    0.0000 H   0  0  0  0  0  0  0  0  0  0  0  0
    6.2041    1.2684    0.0000 H   0  0  0  0  0  0  0  0  0  0  0  0
    8.4261    0.3964    0.0000 H   0  0  0  0  0  0  0  0  0  0  0  0
    8.7515    1.1240    0.0000 H   0  0  0  0  0  0  0  0  0  0  0  0
    7.2848   -2.6949    0.0000 H   0  0  0  0  0  0  0  0  0  0  0  0
   10.2385    2.8684    0.0000 H   0  0  0  0  0  0  0  0  0  0  0  0
   10.1357    3.8631    0.0000 H   0  0  0  0  0  0  0  0  0  0  0  0
    2.0000   -2.0049    0.0000 H   0  0  0  0  0  0  0  0  0  0  0  0
    2.5369   -1.0749    0.0000 H   0  0  0  0  0  0  0  0  0  0  0  0
    7.6594    3.2815    0.0000 H   0  0  0  0  0  0  0  0  0  0  0  0
    8.9100    5.0906    0.0000 H   0  0  0  0  0  0  0  0  0  0  0  0
    8.0909    4.7778    0.0000 H   0  0  0  0  0  0  0  0  0  0  0  0
    8.4037    3.9586    0.0000 H   0  0  0  0  0  0  0  0  0  0  0  0
   10.7791    6.0609    0.0000 H   0  0  0  0  0  0  0  0  0  0  0  0
  1  2  1  0  0  0  0
  1  3  1  0  0  0  0
  1  4  2  0  0  0  0
  1 12  1  0  0  0  0
  2 23  1  0  0  0  0
  3 50  1  0  0  0  0
  5 30  1  0  0  0  0
  5 54  1  0  0  0  0
  6 30  2  0  0  0  0
  7 14  1  0  0  0  0
  7 22  1  0  0  0  0
  7 40  1  0  0  0  0
 17  8  1  1  0  0  0
  8 24  1  0  0  0  0
  8 26  1  0  0  0  0
  9 25  1  0  0  0  0
  9 26  2  0  0  0  0
 10 22  1  0  0  0  0
 10 27  2  0  0  0  0
 11 24  2  0  0  0  0
 11 27  1  0  0  0  0
 28 12  1  6  0  0  0
 12 46  1  0  0  0  0
 13 27  1  0  0  0  0
 13 48  1  0  0  0  0
 13 49  1  0  0  0  0
 14 15  1  0  0  0  0
 14 16  1  0  0  0  0
 14 31  1  0  0  0  0
 15 16  1  0  0  0  0
 15 32  1  0  0  0  0
 15 33  1  0  0  0  0
 16 34  1  0  0  0  0
 16 35  1  0  0  0  0
 17 18  1  0  0  0  0
 17 20  1  0  0  0  0
 17 36  1  0  0  0  0
 18 19  1  0  0  0  0
 18 37  1  0  0  0  0
 18 38  1  0  0  0  0
 19 21  1  0  0  0  0
 19 23  1  1  0  0  0
 19 39  1  0  0  0  0
 20 21  2  0  0  0  0
 20 41  1  0  0  0  0
 21 42  1  0  0  0  0
 22 25  2  0  0  0  0
 23 43  1  0  0  0  0
 23 44  1  0  0  0  0
 24 25  1  0  0  0  0
 26 45  1  0  0  0  0
 28 29  1  0  0  0  0
 28 30  1  0  0  0  0
 28 47  1  0  0  0  0
 29 51  1  0  0  0  0
 29 52  1  0  0  0  0
 29 53  1  0  0  0  0
M  END
> <PUBCHEM_COMPOUND_CID>
514352
> <PUBCHEM_COMPOUND_CANONICALIZED>
1
> <PUBCHEM_CACTVS_COMPLEXITY>
723
> <PUBCHEM_CACTVS_HBOND_ACCEPTOR>
11
> <PUBCHEM_CACTVS_HBOND_DONOR>
5
> <PUBCHEM_CACTVS_ROTATABLE_BOND>
9
> <PUBCHEM_CACTVS_SUBSKEYS>
AAADceB7uAIAAAAAAAAAAAAAGAAAAWIAAAAsAAAAAAAAAFgB+AAAHgAQiCAADSjhlwYH+L/MExCoQSbzbICAgC0xEKAJWKGoVBiCSAJAyUAURAgM0ALIACKgAAAMAAAAAAAAAAAAAAAAAAAAAAAAAAAAAA==
> <PUBCHEM_IUPAC_OPENEYE_NAME>
(2R)-2-[[[(1S,4R)-4-[2-amino-6-(cyclopropylamino)purin-9-yl]cyclopent-2-en-1-yl]methoxy-hydroxy-phosphoryl]amino]propanoic acid
> <PUBCHEM_IUPAC_CAS_NAME>
(2R)-2-[[[(1S,4R)-4-[2-amino-6-(cyclopropylamino)-9-purinyl]-1-cyclopent-2-enyl]methoxy-hydroxyphosphoryl]amino]propanoic acid
> <PUBCHEM_IUPAC_NAME_MARKUP>
(2<I>R</I>)-2-[[[(1<I>S</I>,4<I>R</I>)-4-[2-amino-6-(cyclopropylamino)purin-9-yl]cyclopent-2-en-1-yl]methoxy-hydroxyphosphoryl]amino]propanoic acid
> <PUBCHEM_IUPAC_NAME>
(2R)-2-[[[(1S,4R)-4-[2-amino-6-(cyclopropylamino)purin-9-yl]cyclopent-2-en-1-yl]methoxy-hydroxyphosphoryl]amino]propanoic acid
> <PUBCHEM_IUPAC_SYSTEMATIC_NAME>
(2R)-2-[[[(1S,4R)-4-[2-azanyl-6-(cyclopropylamino)purin-9-yl]cyclopent-2-en-1-yl]methoxy-oxidanyl-phosphoryl]amino]propanoic acid
> <PUBCHEM_IUPAC_TRADITIONAL_NAME>
(2R)-2-[[[(1S,4R)-4-[2-amino-6-(cyclopropylamino)purin-9-yl]cyclopent-2-en-1-yl]methoxy-hydroxy-phosphoryl]amino]propionic acid
> <PUBCHEM_IUPAC_INCHI>
InChI=1S/C17H24N7O5P/c1-9(16(25)26)23-30(27,28)29-7-10-2-5-12(6-10)24-8-19-13-14(20-11-3-4-11)21-17(18)22-15(13)24/h2,5,8-12H,3-4,6-7H2,1H3,(H,25,26)(H2,23,27,28)(H3,18,20,21,22)/t9-,10-,12+/m1/s1
> <PUBCHEM_IUPAC_INCHIKEY>
RBWKRPXNZCXHHH-FOGDFJRCSA-N
> <PUBCHEM_XLOGP3_AA>
0
> <PUBCHEM_EXACT_MASS>
437.15765389
> <PUBCHEM_MOLECULAR_FORMULA>
C17H24N7O5P
> <PUBCHEM_MOLECULAR_WEIGHT>
437.4
> <PUBCHEM_OPENEYE_CAN_SMILES>
CC(C(=O)O)NP(=O)(O)OCC1CC(C=C1)N2C=NC3=C(N=C(N=C32)N)NC4CC4
> <PUBCHEM_OPENEYE_ISO_SMILES>
C[C@H](C(=O)O)NP(=O)(O)OC[C@H]1C[C@H](C=C1)N2C=NC3=C(N=C(N=C32)N)NC4CC4
> <PUBCHEM_CACTVS_TPSA>
178
> <PUBCHEM_MONOISOTOPIC_WEIGHT>
437.15765389
> <PUBCHEM_TOTAL_CHARGE>
0
> <PUBCHEM_HEAVY_ATOM_COUNT>
30
> <PUBCHEM_ATOM_DEF_STEREO_COUNT>
3
> <PUBCHEM_ATOM_UDEF_STEREO_COUNT>
0
> <PUBCHEM_BOND_DEF_STEREO_COUNT>
0
> <PUBCHEM_BOND_UDEF_STEREO_COUNT>
0
> <PUBCHEM_ISOTOPIC_ATOM_COUNT>
0
> <PUBCHEM_COMPONENT_COUNT>
1
> <PUBCHEM_CACTVS_TAUTO_COUNT>
-1
> <PUBCHEM_COORDINATE_TYPE>
1
5
255
> <PUBCHEM_BONDANNOTATIONS>
10  22  8
10  27  8
11  24  8
11  27  8
28  12  6
19  23  5
22  25  8
24  25  8
17  8  5
8  24  8
8  26  8
9  25  8
9  26  8
$$$$
