514365
  -OEChem-10302200282D
 73 77  0     1  0  0  0  0  0999 V2000
    8.8625    2.5238    0.0000 P   0  0  3  0  0  0  0  0  0  0  0  0
    8.0524    1.9374    0.0000 O   0  0  0  0  0  0  0  0  0  0  0  0
    8.2761    3.3338    0.0000 O   0  0  0  0  0  0  0  0  0  0  0  0
    9.4489    1.7138    0.0000 O   0  0  0  0  0  0  0  0  0  0  0  0
   12.3082    2.8799    0.0000 O   0  0  0  0  0  0  0  0  0  0  0  0
   11.2926    4.2829    0.0000 O   0  0  0  0  0  0  0  0  0  0  0  0
    4.2690   -4.7063    0.0000 N   0  0  0  0  0  0  0  0  0  0  0  0
    6.0812   -1.9016    0.0000 N   0  0  0  0  0  0  0  0  0  0  0  0
    6.0812   -3.5110    0.0000 N   0  0  0  0  0  0  0  0  0  0  0  0
    3.4030   -3.2063    0.0000 N   0  0  0  0  0  0  0  0  0  0  0  0
    4.2690   -1.7063    0.0000 N   0  0  0  0  0  0  0  0  0  0  0  0
    9.6725    3.1102    0.0000 N   0  0  0  0  0  0  0  0  0  0  0  0
    2.5369   -1.7063    0.0000 N   0  0  0  0  0  0  0  0  0  0  0  0
    3.4030   -5.2063    0.0000 C   0  0  0  0  0  0  0  0  0  0  0  0
    2.4030   -5.2063    0.0000 C   0  0  0  0  0  0  0  0  0  0  0  0
    2.9030   -6.0723    0.0000 C   0  0  0  0  0  0  0  0  0  0  0  0
    6.3919   -0.9511    0.0000 C   0  0  2  0  0  0  0  0  0  0  0  0
    7.3435   -0.6437    0.0000 C   0  0  0  0  0  0  0  0  0  0  0  0
    7.3452    0.3563    0.0000 C   0  0  1  0  0  0  0  0  0  0  0  0
    4.2690   -3.7063    0.0000 C   0  0  0  0  0  0  0  0  0  0  0  0
    5.8055   -0.1410    0.0000 C   0  0  0  0  0  0  0  0  0  0  0  0
    6.3947    0.6670    0.0000 C   0  0  0  0  0  0  0  0  0  0  0  0
    5.1350   -3.2063    0.0000 C   0  0  0  0  0  0  0  0  0  0  0  0
    5.1350   -2.2063    0.0000 C   0  0  0  0  0  0  0  0  0  0  0  0
    8.1552    0.9427    0.0000 C   0  0  0  0  0  0  0  0  0  0  0  0
    6.6648   -2.7063    0.0000 C   0  0  0  0  0  0  0  0  0  0  0  0
    3.4030   -2.2063    0.0000 C   0  0  0  0  0  0  0  0  0  0  0  0
   10.5853    2.7018    0.0000 C   0  0  2  0  0  0  0  0  0  0  0  0
   10.6882    1.7072    0.0000 C   0  0  0  0  0  0  0  0  0  0  0  0
   11.3954    3.2882    0.0000 C   0  0  0  0  0  0  0  0  0  0  0  0
    8.6844    4.2466    0.0000 C   0  0  0  0  0  0  0  0  0  0  0  0
   13.1183    3.4663    0.0000 C   0  0  0  0  0  0  0  0  0  0  0  0
    8.0980    5.0567    0.0000 C   0  0  0  0  0  0  0  0  0  0  0  0
    9.6791    4.3495    0.0000 C   0  0  0  0  0  0  0  0  0  0  0  0
    8.5063    5.9695    0.0000 C   0  0  0  0  0  0  0  0  0  0  0  0
   10.0874    5.2623    0.0000 C   0  0  0  0  0  0  0  0  0  0  0  0
   14.0311    3.0580    0.0000 C   0  0  0  0  0  0  0  0  0  0  0  0
   13.0154    4.4610    0.0000 C   0  0  0  0  0  0  0  0  0  0  0  0
    9.5010    6.0723    0.0000 C   0  0  0  0  0  0  0  0  0  0  0  0
    3.2425   -4.6074    0.0000 H   0  0  0  0  0  0  0  0  0  0  0  0
    2.2953   -4.5957    0.0000 H   0  0  0  0  0  0  0  0  0  0  0  0
    1.8204   -5.4184    0.0000 H   0  0  0  0  0  0  0  0  0  0  0  0
    2.4280   -6.4709    0.0000 H   0  0  0  0  0  0  0  0  0  0  0  0
    3.3779   -6.4709    0.0000 H   0  0  0  0  0  0  0  0  0  0  0  0
    5.7794   -1.0470    0.0000 H   0  0  0  0  0  0  0  0  0  0  0  0
    4.8059   -5.0163    0.0000 H   0  0  0  0  0  0  0  0  0  0  0  0
    7.4713   -1.2504    0.0000 H   0  0  0  0  0  0  0  0  0  0  0  0
    7.9602   -0.5799    0.0000 H   0  0  0  0  0  0  0  0  0  0  0  0
    7.2493    0.9688    0.0000 H   0  0  0  0  0  0  0  0  0  0  0  0
    5.1855   -0.1400    0.0000 H   0  0  0  0  0  0  0  0  0  0  0  0
    6.2041    1.2570    0.0000 H   0  0  0  0  0  0  0  0  0  0  0  0
    8.4261    0.3850    0.0000 H   0  0  0  0  0  0  0  0  0  0  0  0
    8.7515    1.1126    0.0000 H   0  0  0  0  0  0  0  0  0  0  0  0
    7.2848   -2.7063    0.0000 H   0  0  0  0  0  0  0  0  0  0  0  0
    9.6088    3.7269    0.0000 H   0  0  0  0  0  0  0  0  0  0  0  0
    2.0000   -2.0163    0.0000 H   0  0  0  0  0  0  0  0  0  0  0  0
    2.5369   -1.0863    0.0000 H   0  0  0  0  0  0  0  0  0  0  0  0
   10.5216    3.3186    0.0000 H   0  0  0  0  0  0  0  0  0  0  0  0
   10.0714    1.6434    0.0000 H   0  0  0  0  0  0  0  0  0  0  0  0
   10.7519    1.0904    0.0000 H   0  0  0  0  0  0  0  0  0  0  0  0
   11.3049    1.7709    0.0000 H   0  0  0  0  0  0  0  0  0  0  0  0
   13.1820    2.8496    0.0000 H   0  0  0  0  0  0  0  0  0  0  0  0
    7.4813    4.9930    0.0000 H   0  0  0  0  0  0  0  0  0  0  0  0
   10.0427    3.8472    0.0000 H   0  0  0  0  0  0  0  0  0  0  0  0
   13.7779    2.4920    0.0000 H   0  0  0  0  0  0  0  0  0  0  0  0
   14.5971    2.8048    0.0000 H   0  0  0  0  0  0  0  0  0  0  0  0
   14.2842    3.6240    0.0000 H   0  0  0  0  0  0  0  0  0  0  0  0
   13.6322    4.5247    0.0000 H   0  0  0  0  0  0  0  0  0  0  0  0
   12.9517    5.0777    0.0000 H   0  0  0  0  0  0  0  0  0  0  0  0
   12.3987    4.3973    0.0000 H   0  0  0  0  0  0  0  0  0  0  0  0
    8.1428    6.4718    0.0000 H   0  0  0  0  0  0  0  0  0  0  0  0
   10.7041    5.3260    0.0000 H   0  0  0  0  0  0  0  0  0  0  0  0
    9.7542    6.6383    0.0000 H   0  0  0  0  0  0  0  0  0  0  0  0
  1  2  1  0  0  0  0
  1  3  1  0  0  0  0
  1  4  2  0  0  0  0
  1 12  1  0  0  0  0
  2 25  1  0  0  0  0
  3 31  1  0  0  0  0
  5 30  1  0  0  0  0
  5 32  1  0  0  0  0
  6 30  2  0  0  0  0
  7 14  1  0  0  0  0
  7 20  1  0  0  0  0
  7 46  1  0  0  0  0
 17  8  1  1  0  0  0
  8 24  1  0  0  0  0
  8 26  1  0  0  0  0
  9 23  1  0  0  0  0
  9 26  2  0  0  0  0
 10 20  1  0  0  0  0
 10 27  2  0  0  0  0
 11 24  2  0  0  0  0
 11 27  1  0  0  0  0
 28 12  1  1  0  0  0
 12 55  1  0  0  0  0
 13 27  1  0  0  0  0
 13 56  1  0  0  0  0
 13 57  1  0  0  0  0
 14 15  1  0  0  0  0
 14 16  1  0  0  0  0
 14 40  1  0  0  0  0
 15 16  1  0  0  0  0
 15 41  1  0  0  0  0
 15 42  1  0  0  0  0
 16 43  1  0  0  0  0
 16 44  1  0  0  0  0
 17 18  1  0  0  0  0
 17 21  1  0  0  0  0
 17 45  1  0  0  0  0
 18 19  1  0  0  0  0
 18 47  1  0  0  0  0
 18 48  1  0  0  0  0
 19 22  1  0  0  0  0
 19 25  1  1  0  0  0
 19 49  1  0  0  0  0
 20 23  2  0  0  0  0
 21 22  2  0  0  0  0
 21 50  1  0  0  0  0
 22 51  1  0  0  0  0
 23 24  1  0  0  0  0
 25 52  1  0  0  0  0
 25 53  1  0  0  0  0
 26 54  1  0  0  0  0
 28 29  1  0  0  0  0
 28 30  1  0  0  0  0
 28 58  1  0  0  0  0
 29 59  1  0  0  0  0
 29 60  1  0  0  0  0
 29 61  1  0  0  0  0
 31 33  2  0  0  0  0
 31 34  1  0  0  0  0
 32 37  1  0  0  0  0
 32 38  1  0  0  0  0
 32 62  1  0  0  0  0
 33 35  1  0  0  0  0
 33 63  1  0  0  0  0
 34 36  2  0  0  0  0
 34 64  1  0  0  0  0
 35 39  2  0  0  0  0
 35 71  1  0  0  0  0
 36 39  1  0  0  0  0
 36 72  1  0  0  0  0
 37 65  1  0  0  0  0
 37 66  1  0  0  0  0
 37 67  1  0  0  0  0
 38 68  1  0  0  0  0
 38 69  1  0  0  0  0
 38 70  1  0  0  0  0
 39 73  1  0  0  0  0
M  END
> <PUBCHEM_COMPOUND_CID>
514365
> <PUBCHEM_COMPOUND_CANONICALIZED>
1
> <PUBCHEM_CACTVS_COMPLEXITY>
915
> <PUBCHEM_CACTVS_HBOND_ACCEPTOR>
11
> <PUBCHEM_CACTVS_HBOND_DONOR>
3
> <PUBCHEM_CACTVS_ROTATABLE_BOND>
13
> <PUBCHEM_CACTVS_SUBSKEYS>
AAADcfB7uAIAAAAAAAAAAAAAGAAAAWIAAAA8QAAAAAAAAFgB/AAAHgAQgCAADTzhlwY3/r/MFRCoQSbzbICCgC0xMKAJ2KGuXJiKbiLA2VKXNAgs0BPIiCegQAAMAAAAAAAAAAAAAAAAAAAAAAAAAAAAAA==
> <PUBCHEM_IUPAC_OPENEYE_NAME>
isopropyl (2R)-2-[[[(1S,4R)-4-[2-amino-6-(cyclopropylamino)purin-9-yl]cyclopent-2-en-1-yl]methoxy-phenoxy-phosphoryl]amino]propanoate
> <PUBCHEM_IUPAC_CAS_NAME>
(2R)-2-[[[(1S,4R)-4-[2-amino-6-(cyclopropylamino)-9-purinyl]-1-cyclopent-2-enyl]methoxy-phenoxyphosphoryl]amino]propanoic acid propan-2-yl ester
> <PUBCHEM_IUPAC_NAME_MARKUP>
propan-2-yl (2<I>R</I>)-2-[[[(1<I>S</I>,4<I>R</I>)-4-[2-amino-6-(cyclopropylamino)purin-9-yl]cyclopent-2-en-1-yl]methoxy-phenoxyphosphoryl]amino]propanoate
> <PUBCHEM_IUPAC_NAME>
propan-2-yl (2R)-2-[[[(1S,4R)-4-[2-amino-6-(cyclopropylamino)purin-9-yl]cyclopent-2-en-1-yl]methoxy-phenoxyphosphoryl]amino]propanoate
> <PUBCHEM_IUPAC_SYSTEMATIC_NAME>
propan-2-yl (2R)-2-[[[(1S,4R)-4-[2-azanyl-6-(cyclopropylamino)purin-9-yl]cyclopent-2-en-1-yl]methoxy-phenoxy-phosphoryl]amino]propanoate
> <PUBCHEM_IUPAC_TRADITIONAL_NAME>
(2R)-2-[[[(1S,4R)-4-[2-amino-6-(cyclopropylamino)purin-9-yl]cyclopent-2-en-1-yl]methoxy-phenoxy-phosphoryl]amino]propionic acid isopropyl ester
> <PUBCHEM_IUPAC_INCHI>
InChI=1S/C26H34N7O5P/c1-16(2)37-25(34)17(3)32-39(35,38-21-7-5-4-6-8-21)36-14-18-9-12-20(13-18)33-15-28-22-23(29-19-10-11-19)30-26(27)31-24(22)33/h4-9,12,15-20H,10-11,13-14H2,1-3H3,(H,32,35)(H3,27,29,30,31)/t17-,18-,20+,39?/m1/s1
> <PUBCHEM_IUPAC_INCHIKEY>
ASFHVLLZAUHMHQ-WVGIYQGASA-N
> <PUBCHEM_XLOGP3_AA>
3.5
> <PUBCHEM_EXACT_MASS>
555.23590421
> <PUBCHEM_MOLECULAR_FORMULA>
C26H34N7O5P
> <PUBCHEM_MOLECULAR_WEIGHT>
555.6
> <PUBCHEM_OPENEYE_CAN_SMILES>
CC(C)OC(=O)C(C)NP(=O)(OCC1CC(C=C1)N2C=NC3=C(N=C(N=C32)N)NC4CC4)OC5=CC=CC=C5
> <PUBCHEM_OPENEYE_ISO_SMILES>
C[C@H](C(=O)OC(C)C)NP(=O)(OC[C@H]1C[C@H](C=C1)N2C=NC3=C(N=C(N=C32)N)NC4CC4)OC5=CC=CC=C5
> <PUBCHEM_CACTVS_TPSA>
156
> <PUBCHEM_MONOISOTOPIC_WEIGHT>
555.23590421
> <PUBCHEM_TOTAL_CHARGE>
0
> <PUBCHEM_HEAVY_ATOM_COUNT>
39
> <PUBCHEM_ATOM_DEF_STEREO_COUNT>
3
> <PUBCHEM_ATOM_UDEF_STEREO_COUNT>
1
> <PUBCHEM_BOND_DEF_STEREO_COUNT>
0
> <PUBCHEM_BOND_UDEF_STEREO_COUNT>
0
> <PUBCHEM_ISOTOPIC_ATOM_COUNT>
0
> <PUBCHEM_COMPONENT_COUNT>
1
> <PUBCHEM_CACTVS_TAUTO_COUNT>
-1
> <PUBCHEM_COORDINATE_TYPE>
1
5
255
> <PUBCHEM_BONDANNOTATIONS>
1  12  3
10  20  8
10  27  8
11  24  8
11  27  8
28  12  5
19  25  5
20  23  8
23  24  8
31  33  8
31  34  8
33  35  8
34  36  8
35  39  8
36  39  8
17  8  5
8  24  8
8  26  8
9  23  8
9  26  8
$$$$
