514383
  -OEChem-10302200282D
 71 76  0     1  0  0  0  0  0999 V2000
    8.8625    3.3512    0.0000 P   0  0  3  0  0  0  0  0  0  0  0  0
    8.0524    2.7648    0.0000 O   0  0  0  0  0  0  0  0  0  0  0  0
    8.2761    4.1612    0.0000 O   0  0  0  0  0  0  0  0  0  0  0  0
    9.4489    2.5412    0.0000 O   0  0  0  0  0  0  0  0  0  0  0  0
   11.9082    2.4657    0.0000 O   0  0  0  0  0  0  0  0  0  0  0  0
   10.2600    1.9333    0.0000 O   0  0  0  0  0  0  0  0  0  0  0  0
    9.6725    3.9376    0.0000 N   0  0  3  0  0  0  0  0  0  0  0  0
    4.2690   -3.8789    0.0000 N   0  0  0  0  0  0  0  0  0  0  0  0
    6.0812   -1.0742    0.0000 N   0  0  0  0  0  0  0  0  0  0  0  0
    6.0812   -2.6836    0.0000 N   0  0  0  0  0  0  0  0  0  0  0  0
    3.4030   -2.3789    0.0000 N   0  0  0  0  0  0  0  0  0  0  0  0
    4.2690   -0.8789    0.0000 N   0  0  0  0  0  0  0  0  0  0  0  0
    2.5369   -0.8789    0.0000 N   0  0  0  0  0  0  0  0  0  0  0  0
    3.4030   -4.3789    0.0000 C   0  0  0  0  0  0  0  0  0  0  0  0
    2.4030   -4.3789    0.0000 C   0  0  0  0  0  0  0  0  0  0  0  0
    2.9030   -5.2449    0.0000 C   0  0  0  0  0  0  0  0  0  0  0  0
    7.3452    1.1837    0.0000 C   0  0  2  0  0  0  0  0  0  0  0  0
    6.3919   -0.1237    0.0000 C   0  0  2  0  0  0  0  0  0  0  0  0
   10.6230    3.6269    0.0000 C   0  0  1  0  0  0  0  0  0  0  0  0
    7.3435    0.1837    0.0000 C   0  0  0  0  0  0  0  0  0  0  0  0
   11.2122    4.4349    0.0000 C   0  0  0  0  0  0  0  0  0  0  0  0
    9.6742    4.9376    0.0000 C   0  0  0  0  0  0  0  0  0  0  0  0
   10.6258    5.2449    0.0000 C   0  0  0  0  0  0  0  0  0  0  0  0
    8.1552    1.7701    0.0000 C   0  0  0  0  0  0  0  0  0  0  0  0
    6.3947    1.4944    0.0000 C   0  0  0  0  0  0  0  0  0  0  0  0
    5.8055    0.6864    0.0000 C   0  0  0  0  0  0  0  0  0  0  0  0
    4.2690   -2.8789    0.0000 C   0  0  0  0  0  0  0  0  0  0  0  0
    5.1350   -1.3789    0.0000 C   0  0  0  0  0  0  0  0  0  0  0  0
    5.1350   -2.3789    0.0000 C   0  0  0  0  0  0  0  0  0  0  0  0
   10.9304    2.6753    0.0000 C   0  0  0  0  0  0  0  0  0  0  0  0
    6.6648   -1.8789    0.0000 C   0  0  0  0  0  0  0  0  0  0  0  0
    3.4030   -1.3789    0.0000 C   0  0  0  0  0  0  0  0  0  0  0  0
    7.2814    4.0584    0.0000 C   0  0  0  0  0  0  0  0  0  0  0  0
   12.2156    1.5141    0.0000 C   0  0  0  0  0  0  0  0  0  0  0  0
    6.8731    3.1456    0.0000 C   0  0  0  0  0  0  0  0  0  0  0  0
    6.6950    4.8684    0.0000 C   0  0  0  0  0  0  0  0  0  0  0  0
    5.8784    3.0428    0.0000 C   0  0  0  0  0  0  0  0  0  0  0  0
    5.7003    4.7656    0.0000 C   0  0  0  0  0  0  0  0  0  0  0  0
    5.2920    3.8528    0.0000 C   0  0  0  0  0  0  0  0  0  0  0  0
    3.2425   -3.7800    0.0000 H   0  0  0  0  0  0  0  0  0  0  0  0
    2.2953   -3.7683    0.0000 H   0  0  0  0  0  0  0  0  0  0  0  0
    1.8204   -4.5910    0.0000 H   0  0  0  0  0  0  0  0  0  0  0  0
    2.4280   -5.6435    0.0000 H   0  0  0  0  0  0  0  0  0  0  0  0
    3.3779   -5.6435    0.0000 H   0  0  0  0  0  0  0  0  0  0  0  0
    7.2493    1.7962    0.0000 H   0  0  0  0  0  0  0  0  0  0  0  0
    5.7794   -0.2196    0.0000 H   0  0  0  0  0  0  0  0  0  0  0  0
   10.1839    3.1893    0.0000 H   0  0  0  0  0  0  0  0  0  0  0  0
    7.4713   -0.4230    0.0000 H   0  0  0  0  0  0  0  0  0  0  0  0
    7.9602    0.2475    0.0000 H   0  0  0  0  0  0  0  0  0  0  0  0
   11.6722    4.0193    0.0000 H   0  0  0  0  0  0  0  0  0  0  0  0
   11.6737    4.8490    0.0000 H   0  0  0  0  0  0  0  0  0  0  0  0
    9.5464    5.5442    0.0000 H   0  0  0  0  0  0  0  0  0  0  0  0
    9.0575    4.8738    0.0000 H   0  0  0  0  0  0  0  0  0  0  0  0
   11.1633    5.5540    0.0000 H   0  0  0  0  0  0  0  0  0  0  0  0
   10.3746    5.8118    0.0000 H   0  0  0  0  0  0  0  0  0  0  0  0
    4.8059   -4.1889    0.0000 H   0  0  0  0  0  0  0  0  0  0  0  0
    8.4261    1.2124    0.0000 H   0  0  0  0  0  0  0  0  0  0  0  0
    8.7515    1.9400    0.0000 H   0  0  0  0  0  0  0  0  0  0  0  0
    6.2041    2.0844    0.0000 H   0  0  0  0  0  0  0  0  0  0  0  0
    5.1855    0.6874    0.0000 H   0  0  0  0  0  0  0  0  0  0  0  0
    7.2848   -1.8789    0.0000 H   0  0  0  0  0  0  0  0  0  0  0  0
   11.6256    1.3236    0.0000 H   0  0  0  0  0  0  0  0  0  0  0  0
   12.4061    0.9241    0.0000 H   0  0  0  0  0  0  0  0  0  0  0  0
   12.8055    1.7047    0.0000 H   0  0  0  0  0  0  0  0  0  0  0  0
    2.0000   -1.1889    0.0000 H   0  0  0  0  0  0  0  0  0  0  0  0
    2.5369   -0.2589    0.0000 H   0  0  0  0  0  0  0  0  0  0  0  0
    7.2366    2.6434    0.0000 H   0  0  0  0  0  0  0  0  0  0  0  0
    6.9482    5.4344    0.0000 H   0  0  0  0  0  0  0  0  0  0  0  0
    5.6252    2.4768    0.0000 H   0  0  0  0  0  0  0  0  0  0  0  0
    5.3367    5.2678    0.0000 H   0  0  0  0  0  0  0  0  0  0  0  0
    4.6753    3.7890    0.0000 H   0  0  0  0  0  0  0  0  0  0  0  0
  1  2  1  0  0  0  0
  1  3  1  0  0  0  0
  1  4  2  0  0  0  0
  1  7  1  0  0  0  0
  2 24  1  0  0  0  0
  3 33  1  0  0  0  0
  5 30  1  0  0  0  0
  5 34  1  0  0  0  0
  6 30  2  0  0  0  0
  7 19  1  0  0  0  0
  7 22  1  0  0  0  0
  8 14  1  0  0  0  0
  8 27  1  0  0  0  0
  8 56  1  0  0  0  0
 18  9  1  1  0  0  0
  9 28  1  0  0  0  0
  9 31  1  0  0  0  0
 10 29  1  0  0  0  0
 10 31  2  0  0  0  0
 11 27  1  0  0  0  0
 11 32  2  0  0  0  0
 12 28  2  0  0  0  0
 12 32  1  0  0  0  0
 13 32  1  0  0  0  0
 13 65  1  0  0  0  0
 13 66  1  0  0  0  0
 14 15  1  0  0  0  0
 14 16  1  0  0  0  0
 14 40  1  0  0  0  0
 15 16  1  0  0  0  0
 15 41  1  0  0  0  0
 15 42  1  0  0  0  0
 16 43  1  0  0  0  0
 16 44  1  0  0  0  0
 17 20  1  0  0  0  0
 17 24  1  1  0  0  0
 17 25  1  0  0  0  0
 17 45  1  0  0  0  0
 18 20  1  0  0  0  0
 18 26  1  0  0  0  0
 18 46  1  0  0  0  0
 19 21  1  0  0  0  0
 19 30  1  1  0  0  0
 19 47  1  0  0  0  0
 20 48  1  0  0  0  0
 20 49  1  0  0  0  0
 21 23  1  0  0  0  0
 21 50  1  0  0  0  0
 21 51  1  0  0  0  0
 22 23  1  0  0  0  0
 22 52  1  0  0  0  0
 22 53  1  0  0  0  0
 23 54  1  0  0  0  0
 23 55  1  0  0  0  0
 24 57  1  0  0  0  0
 24 58  1  0  0  0  0
 25 26  2  0  0  0  0
 25 59  1  0  0  0  0
 26 60  1  0  0  0  0
 27 29  2  0  0  0  0
 28 29  1  0  0  0  0
 31 61  1  0  0  0  0
 33 35  2  0  0  0  0
 33 36  1  0  0  0  0
 34 62  1  0  0  0  0
 34 63  1  0  0  0  0
 34 64  1  0  0  0  0
 35 37  1  0  0  0  0
 35 67  1  0  0  0  0
 36 38  2  0  0  0  0
 36 68  1  0  0  0  0
 37 39  2  0  0  0  0
 37 69  1  0  0  0  0
 38 39  1  0  0  0  0
 38 70  1  0  0  0  0
 39 71  1  0  0  0  0
M  END
> <PUBCHEM_COMPOUND_CID>
514383
> <PUBCHEM_COMPOUND_CANONICALIZED>
1
> <PUBCHEM_CACTVS_COMPLEXITY>
948
> <PUBCHEM_CACTVS_HBOND_ACCEPTOR>
11
> <PUBCHEM_CACTVS_HBOND_DONOR>
2
> <PUBCHEM_CACTVS_ROTATABLE_BOND>
11
> <PUBCHEM_CACTVS_SUBSKEYS>
AAADcfB7uAIAAAAAAAAAAAAAGAAAAWLEAAA8QAAAAAAAAFgB/AAAHgAQgCAADSzhlwY3/r/MFRCoQSbzbICCgC0xMKAJ2KGuXJiKbjLA2XKVNAgs0BPYiCe4UQAMAAAAAAAAAAAAAAAAAAAAAAAAAAAAAA==
> <PUBCHEM_IUPAC_OPENEYE_NAME>
methyl (2S)-1-[[(1S,4R)-4-[2-amino-6-(cyclopropylamino)purin-9-yl]cyclopent-2-en-1-yl]methoxy-phenoxy-phosphoryl]pyrrolidine-2-carboxylate
> <PUBCHEM_IUPAC_CAS_NAME>
(2S)-1-[[(1S,4R)-4-[2-amino-6-(cyclopropylamino)-9-purinyl]-1-cyclopent-2-enyl]methoxy-phenoxyphosphoryl]-2-pyrrolidinecarboxylic acid methyl ester
> <PUBCHEM_IUPAC_NAME_MARKUP>
methyl (2<I>S</I>)-1-[[(1<I>S</I>,4<I>R</I>)-4-[2-amino-6-(cyclopropylamino)purin-9-yl]cyclopent-2-en-1-yl]methoxy-phenoxyphosphoryl]pyrrolidine-2-carboxylate
> <PUBCHEM_IUPAC_NAME>
methyl (2S)-1-[[(1S,4R)-4-[2-amino-6-(cyclopropylamino)purin-9-yl]cyclopent-2-en-1-yl]methoxy-phenoxyphosphoryl]pyrrolidine-2-carboxylate
> <PUBCHEM_IUPAC_SYSTEMATIC_NAME>
methyl (2S)-1-[[(1S,4R)-4-[2-azanyl-6-(cyclopropylamino)purin-9-yl]cyclopent-2-en-1-yl]methoxy-phenoxy-phosphoryl]pyrrolidine-2-carboxylate
> <PUBCHEM_IUPAC_TRADITIONAL_NAME>
(2S)-1-[[(1S,4R)-4-[2-amino-6-(cyclopropylamino)purin-9-yl]cyclopent-2-en-1-yl]methoxy-phenoxy-phosphoryl]pyrrolidine-2-carboxylic acid methyl ester
> <PUBCHEM_IUPAC_INCHI>
InChI=1S/C26H32N7O5P/c1-36-25(34)21-8-5-13-33(21)39(35,38-20-6-3-2-4-7-20)37-15-17-9-12-19(14-17)32-16-28-22-23(29-18-10-11-18)30-26(27)31-24(22)32/h2-4,6-7,9,12,16-19,21H,5,8,10-11,13-15H2,1H3,(H3,27,29,30,31)/t17-,19+,21+,39?/m1/s1
> <PUBCHEM_IUPAC_INCHIKEY>
MHEOEQXAIZAOOB-OLYQNMPESA-N
> <PUBCHEM_XLOGP3_AA>
3.3
> <PUBCHEM_EXACT_MASS>
553.22025414
> <PUBCHEM_MOLECULAR_FORMULA>
C26H32N7O5P
> <PUBCHEM_MOLECULAR_WEIGHT>
553.5
> <PUBCHEM_OPENEYE_CAN_SMILES>
COC(=O)C1CCCN1P(=O)(OCC2CC(C=C2)N3C=NC4=C(N=C(N=C43)N)NC5CC5)OC6=CC=CC=C6
> <PUBCHEM_OPENEYE_ISO_SMILES>
COC(=O)[C@@H]1CCCN1P(=O)(OC[C@H]2C[C@H](C=C2)N3C=NC4=C(N=C(N=C43)N)NC5CC5)OC6=CC=CC=C6
> <PUBCHEM_CACTVS_TPSA>
147
> <PUBCHEM_MONOISOTOPIC_WEIGHT>
553.22025414
> <PUBCHEM_TOTAL_CHARGE>
0
> <PUBCHEM_HEAVY_ATOM_COUNT>
39
> <PUBCHEM_ATOM_DEF_STEREO_COUNT>
3
> <PUBCHEM_ATOM_UDEF_STEREO_COUNT>
1
> <PUBCHEM_BOND_DEF_STEREO_COUNT>
0
> <PUBCHEM_BOND_UDEF_STEREO_COUNT>
0
> <PUBCHEM_ISOTOPIC_ATOM_COUNT>
0
> <PUBCHEM_COMPONENT_COUNT>
1
> <PUBCHEM_CACTVS_TAUTO_COUNT>
-1
> <PUBCHEM_COORDINATE_TYPE>
1
5
255
> <PUBCHEM_BONDANNOTATIONS>
1  2  3
10  29  8
10  31  8
11  27  8
11  32  8
12  28  8
12  32  8
17  24  5
19  30  5
27  29  8
28  29  8
33  35  8
33  36  8
35  37  8
36  38  8
37  39  8
38  39  8
18  9  5
9  28  8
9  31  8
$$$$
