514398
  -OEChem-10302200282D
 75 78  0     1  0  0  0  0  0999 V2000
    8.0622   -0.7694    0.0000 S   0  0  0  0  0  0  0  0  0  0  0  0
    5.4641    0.7306    0.0000 O   0  0  0  0  0  0  0  0  0  0  0  0
    2.8660    1.2306    0.0000 O   0  0  0  0  0  0  0  0  0  0  0  0
    2.3660    3.7694    0.0000 O   0  0  0  0  0  0  0  0  0  0  0  0
    7.5622   -1.6354    0.0000 O   0  0  0  0  0  0  0  0  0  0  0  0
    8.5622    0.0966    0.0000 O   0  0  0  0  0  0  0  0  0  0  0  0
    4.5981    1.2306    0.0000 O   0  0  0  0  0  0  0  0  0  0  0  0
   11.6065   -0.9647    0.0000 O   0  0  0  0  0  0  0  0  0  0  0  0
    7.1962   -0.2694    0.0000 N   0  0  3  0  0  0  0  0  0  0  0  0
    3.7320   -0.2694    0.0000 N   0  0  0  0  0  0  0  0  0  0  0  0
   11.6065   -2.5742    0.0000 N   0  0  0  0  0  0  0  0  0  0  0  0
   13.1901   -1.7694    0.0000 N   0  0  0  0  0  0  0  0  0  0  0  0
    5.4641   -0.2694    0.0000 C   0  0  1  0  0  0  0  0  0  0  0  0
    4.5981   -0.7694    0.0000 C   0  0  2  0  0  0  0  0  0  0  0  0
    6.3301   -0.7694    0.0000 C   0  0  0  0  0  0  0  0  0  0  0  0
    7.1962    0.7306    0.0000 C   0  0  0  0  0  0  0  0  0  0  0  0
    8.0622    1.2306    0.0000 C   0  0  0  0  0  0  0  0  0  0  0  0
    4.5981   -1.7694    0.0000 C   0  0  0  0  0  0  0  0  0  0  0  0
    2.8660    2.2306    0.0000 C   0  0  1  0  0  0  0  0  0  0  0  0
    8.9282   -1.2694    0.0000 C   0  0  0  0  0  0  0  0  0  0  0  0
    3.7320   -2.2694    0.0000 C   0  0  0  0  0  0  0  0  0  0  0  0
    8.0622    2.2306    0.0000 C   0  0  0  0  0  0  0  0  0  0  0  0
    8.9282    0.7306    0.0000 C   0  0  0  0  0  0  0  0  0  0  0  0
    3.6750    2.8184    0.0000 C   0  0  0  0  0  0  0  0  0  0  0  0
    2.0570    2.8184    0.0000 C   0  0  0  0  0  0  0  0  0  0  0  0
    3.7320    0.7306    0.0000 C   0  0  0  0  0  0  0  0  0  0  0  0
    3.3660    3.7694    0.0000 C   0  0  0  0  0  0  0  0  0  0  0  0
    9.7942   -0.7694    0.0000 C   0  0  0  0  0  0  0  0  0  0  0  0
    8.9282   -2.2694    0.0000 C   0  0  0  0  0  0  0  0  0  0  0  0
    3.7320   -3.2694    0.0000 C   0  0  0  0  0  0  0  0  0  0  0  0
    2.8660   -1.7694    0.0000 C   0  0  0  0  0  0  0  0  0  0  0  0
   10.6603   -1.2694    0.0000 C   0  0  0  0  0  0  0  0  0  0  0  0
    9.7942   -2.7694    0.0000 C   0  0  0  0  0  0  0  0  0  0  0  0
   10.6603   -2.2694    0.0000 C   0  0  0  0  0  0  0  0  0  0  0  0
    2.8660   -3.7694    0.0000 C   0  0  0  0  0  0  0  0  0  0  0  0
    2.0000   -2.2694    0.0000 C   0  0  0  0  0  0  0  0  0  0  0  0
    2.0000   -3.2694    0.0000 C   0  0  0  0  0  0  0  0  0  0  0  0
   12.1901   -1.7694    0.0000 C   0  0  0  0  0  0  0  0  0  0  0  0
   13.6901   -2.6354    0.0000 C   0  0  0  0  0  0  0  0  0  0  0  0
    6.0010    0.0406    0.0000 H   0  0  0  0  0  0  0  0  0  0  0  0
    4.5981   -0.1494    0.0000 H   0  0  0  0  0  0  0  0  0  0  0  0
    5.9316   -1.2444    0.0000 H   0  0  0  0  0  0  0  0  0  0  0  0
    6.7287   -1.2444    0.0000 H   0  0  0  0  0  0  0  0  0  0  0  0
    6.9841    1.3132    0.0000 H   0  0  0  0  0  0  0  0  0  0  0  0
    6.5856    0.6229    0.0000 H   0  0  0  0  0  0  0  0  0  0  0  0
    8.0622    0.6106    0.0000 H   0  0  0  0  0  0  0  0  0  0  0  0
    4.8101   -2.3520    0.0000 H   0  0  0  0  0  0  0  0  0  0  0  0
    5.2087   -1.6618    0.0000 H   0  0  0  0  0  0  0  0  0  0  0  0
    3.1951   -0.5794    0.0000 H   0  0  0  0  0  0  0  0  0  0  0  0
    3.4184    1.9491    0.0000 H   0  0  0  0  0  0  0  0  0  0  0  0
    8.6822    2.2306    0.0000 H   0  0  0  0  0  0  0  0  0  0  0  0
    8.0622    2.8506    0.0000 H   0  0  0  0  0  0  0  0  0  0  0  0
    7.4422    2.2306    0.0000 H   0  0  0  0  0  0  0  0  0  0  0  0
    8.6182    0.1936    0.0000 H   0  0  0  0  0  0  0  0  0  0  0  0
    9.4651    0.4206    0.0000 H   0  0  0  0  0  0  0  0  0  0  0  0
    9.2382    1.2675    0.0000 H   0  0  0  0  0  0  0  0  0  0  0  0
    6.0010    1.0406    0.0000 H   0  0  0  0  0  0  0  0  0  0  0  0
    3.9850    2.2814    0.0000 H   0  0  0  0  0  0  0  0  0  0  0  0
    4.2414    3.0705    0.0000 H   0  0  0  0  0  0  0  0  0  0  0  0
    1.4906    3.0705    0.0000 H   0  0  0  0  0  0  0  0  0  0  0  0
    1.7470    2.2814    0.0000 H   0  0  0  0  0  0  0  0  0  0  0  0
    3.9725    3.8983    0.0000 H   0  0  0  0  0  0  0  0  0  0  0  0
    3.3012    4.3860    0.0000 H   0  0  0  0  0  0  0  0  0  0  0  0
    9.7942   -0.1494    0.0000 H   0  0  0  0  0  0  0  0  0  0  0  0
    8.3913   -2.5794    0.0000 H   0  0  0  0  0  0  0  0  0  0  0  0
    4.2690   -3.5794    0.0000 H   0  0  0  0  0  0  0  0  0  0  0  0
    2.8660   -1.1494    0.0000 H   0  0  0  0  0  0  0  0  0  0  0  0
    9.7942   -3.3894    0.0000 H   0  0  0  0  0  0  0  0  0  0  0  0
    2.8660   -4.3894    0.0000 H   0  0  0  0  0  0  0  0  0  0  0  0
    1.4631   -1.9594    0.0000 H   0  0  0  0  0  0  0  0  0  0  0  0
    1.4631   -3.5794    0.0000 H   0  0  0  0  0  0  0  0  0  0  0  0
   13.5001   -1.2325    0.0000 H   0  0  0  0  0  0  0  0  0  0  0  0
   13.1531   -2.9454    0.0000 H   0  0  0  0  0  0  0  0  0  0  0  0
   14.0001   -3.1724    0.0000 H   0  0  0  0  0  0  0  0  0  0  0  0
   14.2270   -2.3254    0.0000 H   0  0  0  0  0  0  0  0  0  0  0  0
  1  5  2  0  0  0  0
  1  6  2  0  0  0  0
  1  9  1  0  0  0  0
  1 20  1  0  0  0  0
 13  2  1  6  0  0  0
  2 57  1  0  0  0  0
 19  3  1  6  0  0  0
  3 26  1  0  0  0  0
  4 25  1  0  0  0  0
  4 27  1  0  0  0  0
  7 26  2  0  0  0  0
  8 32  1  0  0  0  0
  8 38  1  0  0  0  0
  9 15  1  0  0  0  0
  9 16  1  0  0  0  0
 14 10  1  6  0  0  0
 10 26  1  0  0  0  0
 10 49  1  0  0  0  0
 11 34  1  0  0  0  0
 11 38  2  0  0  0  0
 12 38  1  0  0  0  0
 12 39  1  0  0  0  0
 12 72  1  0  0  0  0
 13 14  1  0  0  0  0
 13 15  1  0  0  0  0
 13 40  1  0  0  0  0
 14 18  1  0  0  0  0
 14 41  1  0  0  0  0
 15 42  1  0  0  0  0
 15 43  1  0  0  0  0
 16 17  1  0  0  0  0
 16 44  1  0  0  0  0
 16 45  1  0  0  0  0
 17 22  1  0  0  0  0
 17 23  1  0  0  0  0
 17 46  1  0  0  0  0
 18 21  1  0  0  0  0
 18 47  1  0  0  0  0
 18 48  1  0  0  0  0
 19 24  1  0  0  0  0
 19 25  1  0  0  0  0
 19 50  1  0  0  0  0
 20 28  2  0  0  0  0
 20 29  1  0  0  0  0
 21 30  2  0  0  0  0
 21 31  1  0  0  0  0
 22 51  1  0  0  0  0
 22 52  1  0  0  0  0
 22 53  1  0  0  0  0
 23 54  1  0  0  0  0
 23 55  1  0  0  0  0
 23 56  1  0  0  0  0
 24 27  1  0  0  0  0
 24 58  1  0  0  0  0
 24 59  1  0  0  0  0
 25 60  1  0  0  0  0
 25 61  1  0  0  0  0
 27 62  1  0  0  0  0
 27 63  1  0  0  0  0
 28 32  1  0  0  0  0
 28 64  1  0  0  0  0
 29 33  2  0  0  0  0
 29 65  1  0  0  0  0
 30 35  1  0  0  0  0
 30 66  1  0  0  0  0
 31 36  2  0  0  0  0
 31 67  1  0  0  0  0
 32 34  2  0  0  0  0
 33 34  1  0  0  0  0
 33 68  1  0  0  0  0
 35 37  2  0  0  0  0
 35 69  1  0  0  0  0
 36 37  1  0  0  0  0
 36 70  1  0  0  0  0
 37 71  1  0  0  0  0
 39 73  1  0  0  0  0
 39 74  1  0  0  0  0
 39 75  1  0  0  0  0
M  END
> <PUBCHEM_COMPOUND_CID>
514398
> <PUBCHEM_COMPOUND_CANONICALIZED>
1
> <PUBCHEM_CACTVS_COMPLEXITY>
880
> <PUBCHEM_CACTVS_HBOND_ACCEPTOR>
10
> <PUBCHEM_CACTVS_HBOND_DONOR>
3
> <PUBCHEM_CACTVS_ROTATABLE_BOND>
13
> <PUBCHEM_CACTVS_SUBSKEYS>
AAADcfB7uABAAAAAAAAAAAAAAAAAAWJAAAAwYAAAAAAAAFgB9AAAHgQQSAAADTzh3gYz37LIFkKoA6RyfHTCiDkvYiAJmLm/bNmPNrLE9buPcSht1hPa6aeYyKAOAAQABAAAEAAACAAIAAAgAAAAAAAAAA==
> <PUBCHEM_IUPAC_OPENEYE_NAME>
[(3S)-tetrahydrofuran-3-yl] N-[(1S,2R)-1-benzyl-2-hydroxy-3-[isobutyl-[[2-(methylamino)-1,3-benzoxazol-6-yl]sulfonyl]amino]propyl]carbamate
> <PUBCHEM_IUPAC_CAS_NAME>
N-[(2S,3R)-3-hydroxy-4-[[2-(methylamino)-1,3-benzoxazol-6-yl]sulfonyl-(2-methylpropyl)amino]-1-phenylbutan-2-yl]carbamic acid [(3S)-3-oxolanyl] ester
> <PUBCHEM_IUPAC_NAME_MARKUP>
[(3<I>S</I>)-oxolan-3-yl] <I>N</I>-[(2<I>S</I>,3<I>R</I>)-3-hydroxy-4-[[2-(methylamino)-1,3-benzoxazol-6-yl]sulfonyl-(2-methylpropyl)amino]-1-phenylbutan-2-yl]carbamate
> <PUBCHEM_IUPAC_NAME>
[(3S)-oxolan-3-yl] N-[(2S,3R)-3-hydroxy-4-[[2-(methylamino)-1,3-benzoxazol-6-yl]sulfonyl-(2-methylpropyl)amino]-1-phenylbutan-2-yl]carbamate
> <PUBCHEM_IUPAC_SYSTEMATIC_NAME>
[(3S)-oxolan-3-yl] N-[(2S,3R)-4-[[2-(methylamino)-1,3-benzoxazol-6-yl]sulfonyl-(2-methylpropyl)amino]-3-oxidanyl-1-phenyl-butan-2-yl]carbamate
> <PUBCHEM_IUPAC_TRADITIONAL_NAME>
N-[(1S,2R)-1-benzyl-2-hydroxy-3-[isobutyl-[[2-(methylamino)-1,3-benzoxazol-6-yl]sulfonyl]amino]propyl]carbamic acid [(3S)-tetrahydrofuran-3-yl] ester
> <PUBCHEM_IUPAC_INCHI>
InChI=1S/C27H36N4O7S/c1-18(2)15-31(39(34,35)21-9-10-22-25(14-21)38-26(28-3)29-22)16-24(32)23(13-19-7-5-4-6-8-19)30-27(33)37-20-11-12-36-17-20/h4-10,14,18,20,23-24,32H,11-13,15-17H2,1-3H3,(H,28,29)(H,30,33)/t20-,23-,24+/m0/s1
> <PUBCHEM_IUPAC_INCHIKEY>
LPMXBBYYYJFEIC-NKKJXINNSA-N
> <PUBCHEM_XLOGP3_AA>
3.7
> <PUBCHEM_EXACT_MASS>
560.23047067
> <PUBCHEM_MOLECULAR_FORMULA>
C27H36N4O7S
> <PUBCHEM_MOLECULAR_WEIGHT>
560.7
> <PUBCHEM_OPENEYE_CAN_SMILES>
CC(C)CN(CC(C(CC1=CC=CC=C1)NC(=O)OC2CCOC2)O)S(=O)(=O)C3=CC4=C(C=C3)N=C(O4)NC
> <PUBCHEM_OPENEYE_ISO_SMILES>
CC(C)CN(C[C@H]([C@H](CC1=CC=CC=C1)NC(=O)O[C@H]2CCOC2)O)S(=O)(=O)C3=CC4=C(C=C3)N=C(O4)NC
> <PUBCHEM_CACTVS_TPSA>
152
> <PUBCHEM_MONOISOTOPIC_WEIGHT>
560.23047067
> <PUBCHEM_TOTAL_CHARGE>
0
> <PUBCHEM_HEAVY_ATOM_COUNT>
39
> <PUBCHEM_ATOM_DEF_STEREO_COUNT>
3
> <PUBCHEM_ATOM_UDEF_STEREO_COUNT>
0
> <PUBCHEM_BOND_DEF_STEREO_COUNT>
0
> <PUBCHEM_BOND_UDEF_STEREO_COUNT>
0
> <PUBCHEM_ISOTOPIC_ATOM_COUNT>
0
> <PUBCHEM_COMPONENT_COUNT>
1
> <PUBCHEM_CACTVS_TAUTO_COUNT>
-1
> <PUBCHEM_COORDINATE_TYPE>
1
5
255
> <PUBCHEM_BONDANNOTATIONS>
14  10  6
11  34  8
11  38  8
13  2  6
20  28  8
20  29  8
21  30  8
21  31  8
28  32  8
29  33  8
19  3  6
30  35  8
31  36  8
32  34  8
33  34  8
35  37  8
36  37  8
8  32  8
8  38  8
$$$$
