514300
  -OEChem-10302200282D
 49 51  0     1  0  0  0  0  0999 V2000
    2.4612   -0.9861    0.0000 O   0  0  0  0  0  0  0  0  0  0  0  0
   12.3231    0.2035    0.0000 O   0  0  0  0  0  0  0  0  0  0  0  0
   12.3231   -1.4060    0.0000 O   0  0  0  0  0  0  0  0  0  0  0  0
    3.5827    0.3988    0.0000 C   0  0  3  0  0  0  0  0  0  0  0  0
    3.4782    1.3933    0.0000 C   0  0  0  0  0  0  0  0  0  0  0  0
    2.5000    1.6012    0.0000 C   0  0  0  0  0  0  0  0  0  0  0  0
    4.4487   -0.1012    0.0000 C   0  0  0  0  0  0  0  0  0  0  0  0
    2.0000    0.7352    0.0000 C   0  0  0  0  0  0  0  0  0  0  0  0
    2.6691   -0.0080    0.0000 C   0  0  0  0  0  0  0  0  0  0  0  0
    5.3147    0.3988    0.0000 C   0  0  0  0  0  0  0  0  0  0  0  0
    6.1808   -0.1012    0.0000 C   0  0  0  0  0  0  0  0  0  0  0  0
    6.1808   -1.1012    0.0000 C   0  0  0  0  0  0  0  0  0  0  0  0
    7.0468    0.3988    0.0000 C   0  0  0  0  0  0  0  0  0  0  0  0
    7.9128   -0.1012    0.0000 C   0  0  0  0  0  0  0  0  0  0  0  0
    8.7788    0.3988    0.0000 C   0  0  0  0  0  0  0  0  0  0  0  0
    5.3147   -1.6012    0.0000 C   0  0  0  0  0  0  0  0  0  0  0  0
    9.6448   -0.1012    0.0000 C   0  0  0  0  0  0  0  0  0  0  0  0
   10.5109    0.3988    0.0000 C   0  0  0  0  0  0  0  0  0  0  0  0
    9.6448   -1.1012    0.0000 C   0  0  0  0  0  0  0  0  0  0  0  0
   11.3769   -0.1012    0.0000 C   0  0  0  0  0  0  0  0  0  0  0  0
   11.3769   -1.1012    0.0000 C   0  0  0  0  0  0  0  0  0  0  0  0
   10.5109   -1.6012    0.0000 C   0  0  0  0  0  0  0  0  0  0  0  0
   12.9067   -0.6012    0.0000 C   0  0  0  0  0  0  0  0  0  0  0  0
    4.1026    0.7365    0.0000 H   0  0  0  0  0  0  0  0  0  0  0  0
    4.0982    1.3933    0.0000 H   0  0  0  0  0  0  0  0  0  0  0  0
    3.5430    2.0099    0.0000 H   0  0  0  0  0  0  0  0  0  0  0  0
    2.6916    2.1909    0.0000 H   0  0  0  0  0  0  0  0  0  0  0  0
    1.9336    1.8534    0.0000 H   0  0  0  0  0  0  0  0  0  0  0  0
    4.0502   -0.5762    0.0000 H   0  0  0  0  0  0  0  0  0  0  0  0
    4.8472   -0.5762    0.0000 H   0  0  0  0  0  0  0  0  0  0  0  0
    1.4984    1.0996    0.0000 H   0  0  0  0  0  0  0  0  0  0  0  0
    1.5851    0.2744    0.0000 H   0  0  0  0  0  0  0  0  0  0  0  0
    5.7133    0.8737    0.0000 H   0  0  0  0  0  0  0  0  0  0  0  0
    4.9162    0.8737    0.0000 H   0  0  0  0  0  0  0  0  0  0  0  0
    6.3928   -1.6838    0.0000 H   0  0  0  0  0  0  0  0  0  0  0  0
    6.7913   -0.9936    0.0000 H   0  0  0  0  0  0  0  0  0  0  0  0
    7.0468    1.0188    0.0000 H   0  0  0  0  0  0  0  0  0  0  0  0
    7.5143   -0.5762    0.0000 H   0  0  0  0  0  0  0  0  0  0  0  0
    8.3113   -0.5762    0.0000 H   0  0  0  0  0  0  0  0  0  0  0  0
    9.1774    0.8737    0.0000 H   0  0  0  0  0  0  0  0  0  0  0  0
    8.3803    0.8737    0.0000 H   0  0  0  0  0  0  0  0  0  0  0  0
    5.0047   -1.0643    0.0000 H   0  0  0  0  0  0  0  0  0  0  0  0
    4.7778   -1.9112    0.0000 H   0  0  0  0  0  0  0  0  0  0  0  0
    5.6247   -2.1382    0.0000 H   0  0  0  0  0  0  0  0  0  0  0  0
   10.5109    1.0188    0.0000 H   0  0  0  0  0  0  0  0  0  0  0  0
    9.1079   -1.4112    0.0000 H   0  0  0  0  0  0  0  0  0  0  0  0
   10.5109   -2.2212    0.0000 H   0  0  0  0  0  0  0  0  0  0  0  0
   13.3676   -1.0159    0.0000 H   0  0  0  0  0  0  0  0  0  0  0  0
   13.3676   -0.1865    0.0000 H   0  0  0  0  0  0  0  0  0  0  0  0
  1  9  2  0  0  0  0
  2 20  1  0  0  0  0
  2 23  1  0  0  0  0
  3 21  1  0  0  0  0
  3 23  1  0  0  0  0
  4  5  1  0  0  0  0
  4  7  1  0  0  0  0
  4  9  1  0  0  0  0
  4 24  1  0  0  0  0
  5  6  1  0  0  0  0
  5 25  1  0  0  0  0
  5 26  1  0  0  0  0
  6  8  1  0  0  0  0
  6 27  1  0  0  0  0
  6 28  1  0  0  0  0
  7 10  1  0  0  0  0
  7 29  1  0  0  0  0
  7 30  1  0  0  0  0
  8  9  1  0  0  0  0
  8 31  1  0  0  0  0
  8 32  1  0  0  0  0
 10 11  1  0  0  0  0
 10 33  1  0  0  0  0
 10 34  1  0  0  0  0
 11 12  1  0  0  0  0
 11 13  2  3  0  0  0
 12 16  1  0  0  0  0
 12 35  1  0  0  0  0
 12 36  1  0  0  0  0
 13 14  1  0  0  0  0
 13 37  1  0  0  0  0
 14 15  1  0  0  0  0
 14 38  1  0  0  0  0
 14 39  1  0  0  0  0
 15 17  1  0  0  0  0
 15 40  1  0  0  0  0
 15 41  1  0  0  0  0
 16 42  1  0  0  0  0
 16 43  1  0  0  0  0
 16 44  1  0  0  0  0
 17 18  2  0  0  0  0
 17 19  1  0  0  0  0
 18 20  1  0  0  0  0
 18 45  1  0  0  0  0
 19 22  2  0  0  0  0
 19 46  1  0  0  0  0
 20 21  2  0  0  0  0
 21 22  1  0  0  0  0
 22 47  1  0  0  0  0
 23 48  1  0  0  0  0
 23 49  1  0  0  0  0
M  END
> <PUBCHEM_COMPOUND_CID>
514300
> <PUBCHEM_COMPOUND_CANONICALIZED>
1
> <PUBCHEM_CACTVS_COMPLEXITY>
429
> <PUBCHEM_CACTVS_HBOND_ACCEPTOR>
3
> <PUBCHEM_CACTVS_HBOND_DONOR>
0
> <PUBCHEM_CACTVS_ROTATABLE_BOND>
7
> <PUBCHEM_CACTVS_SUBSKEYS>
AAADceB4MAAAAAAAAAAAAAAAAAAAAaIAAAAwAAAAAAAAAEgBAAAAGgAAAAAADQSAmAMyDoAABACIAqBSAAACCAAgIAAIiAEGiIgdJjKEMRqgMCIkwBEOqAeIyPCOIAABAAAAQABAAAIAAACAAAAAAAAAAA==
> <PUBCHEM_IUPAC_OPENEYE_NAME>
2-[6-(1,3-benzodioxol-5-yl)-3-ethyl-hex-3-enyl]cyclopentanone
> <PUBCHEM_IUPAC_CAS_NAME>
2-[6-(1,3-benzodioxol-5-yl)-3-ethylhex-3-enyl]-1-cyclopentanone
> <PUBCHEM_IUPAC_NAME_MARKUP>
2-[6-(1,3-benzodioxol-5-yl)-3-ethylhex-3-enyl]cyclopentan-1-one
> <PUBCHEM_IUPAC_NAME>
2-[6-(1,3-benzodioxol-5-yl)-3-ethylhex-3-enyl]cyclopentan-1-one
> <PUBCHEM_IUPAC_SYSTEMATIC_NAME>
2-[6-(1,3-benzodioxol-5-yl)-3-ethyl-hex-3-enyl]cyclopentan-1-one
> <PUBCHEM_IUPAC_TRADITIONAL_NAME>
2-[6-(1,3-benzodioxol-5-yl)-3-ethyl-hex-3-enyl]cyclopentanone
> <PUBCHEM_IUPAC_INCHI>
InChI=1S/C20H26O3/c1-2-15(9-11-17-7-4-8-18(17)21)5-3-6-16-10-12-19-20(13-16)23-14-22-19/h5,10,12-13,17H,2-4,6-9,11,14H2,1H3
> <PUBCHEM_IUPAC_INCHIKEY>
COCMFEYBPXIASI-UHFFFAOYSA-N
> <PUBCHEM_XLOGP3_AA>
4.8
> <PUBCHEM_EXACT_MASS>
314.18819469
> <PUBCHEM_MOLECULAR_FORMULA>
C20H26O3
> <PUBCHEM_MOLECULAR_WEIGHT>
314.4
> <PUBCHEM_OPENEYE_CAN_SMILES>
CCC(=CCCC1=CC2=C(C=C1)OCO2)CCC3CCCC3=O
> <PUBCHEM_OPENEYE_ISO_SMILES>
CCC(=CCCC1=CC2=C(C=C1)OCO2)CCC3CCCC3=O
> <PUBCHEM_CACTVS_TPSA>
35.5
> <PUBCHEM_MONOISOTOPIC_WEIGHT>
314.18819469
> <PUBCHEM_TOTAL_CHARGE>
0
> <PUBCHEM_HEAVY_ATOM_COUNT>
23
> <PUBCHEM_ATOM_DEF_STEREO_COUNT>
0
> <PUBCHEM_ATOM_UDEF_STEREO_COUNT>
1
> <PUBCHEM_BOND_DEF_STEREO_COUNT>
0
> <PUBCHEM_BOND_UDEF_STEREO_COUNT>
1
> <PUBCHEM_ISOTOPIC_ATOM_COUNT>
0
> <PUBCHEM_COMPONENT_COUNT>
1
> <PUBCHEM_CACTVS_TAUTO_COUNT>
-1
> <PUBCHEM_COORDINATE_TYPE>
1
5
255
> <PUBCHEM_BONDANNOTATIONS>
11  13  1
17  18  8
17  19  8
18  20  8
19  22  8
20  21  8
21  22  8
4  7  3
$$$$
