514362
  -OEChem-10302200282D
 76 80  0     1  0  0  0  0  0999 V2000
    8.8625    2.5238    0.0000 P   0  0  3  0  0  0  0  0  0  0  0  0
    8.0524    1.9374    0.0000 O   0  0  0  0  0  0  0  0  0  0  0  0
    8.2761    3.3338    0.0000 O   0  0  0  0  0  0  0  0  0  0  0  0
    9.4489    1.7138    0.0000 O   0  0  0  0  0  0  0  0  0  0  0  0
   12.3082    2.8799    0.0000 O   0  0  0  0  0  0  0  0  0  0  0  0
   11.2926    4.2829    0.0000 O   0  0  0  0  0  0  0  0  0  0  0  0
    4.2690   -4.7063    0.0000 N   0  0  0  0  0  0  0  0  0  0  0  0
    6.0812   -1.9016    0.0000 N   0  0  0  0  0  0  0  0  0  0  0  0
    6.0812   -3.5110    0.0000 N   0  0  0  0  0  0  0  0  0  0  0  0
    3.4030   -3.2063    0.0000 N   0  0  0  0  0  0  0  0  0  0  0  0
    4.2690   -1.7063    0.0000 N   0  0  0  0  0  0  0  0  0  0  0  0
    9.6725    3.1102    0.0000 N   0  0  0  0  0  0  0  0  0  0  0  0
    2.5369   -1.7063    0.0000 N   0  0  0  0  0  0  0  0  0  0  0  0
    3.4030   -5.2063    0.0000 C   0  0  0  0  0  0  0  0  0  0  0  0
    2.4030   -5.2063    0.0000 C   0  0  0  0  0  0  0  0  0  0  0  0
    2.9030   -6.0723    0.0000 C   0  0  0  0  0  0  0  0  0  0  0  0
    6.3919   -0.9511    0.0000 C   0  0  2  0  0  0  0  0  0  0  0  0
    7.3435   -0.6437    0.0000 C   0  0  0  0  0  0  0  0  0  0  0  0
    7.3452    0.3563    0.0000 C   0  0  1  0  0  0  0  0  0  0  0  0
    4.2690   -3.7063    0.0000 C   0  0  0  0  0  0  0  0  0  0  0  0
    5.8055   -0.1410    0.0000 C   0  0  0  0  0  0  0  0  0  0  0  0
    6.3947    0.6670    0.0000 C   0  0  0  0  0  0  0  0  0  0  0  0
    5.1350   -3.2063    0.0000 C   0  0  0  0  0  0  0  0  0  0  0  0
    5.1350   -2.2063    0.0000 C   0  0  0  0  0  0  0  0  0  0  0  0
    8.1552    0.9427    0.0000 C   0  0  0  0  0  0  0  0  0  0  0  0
    6.6648   -2.7063    0.0000 C   0  0  0  0  0  0  0  0  0  0  0  0
    3.4030   -2.2063    0.0000 C   0  0  0  0  0  0  0  0  0  0  0  0
   10.5853    2.7018    0.0000 C   0  0  1  0  0  0  0  0  0  0  0  0
   13.1183    3.4663    0.0000 C   0  0  0  0  0  0  0  0  0  0  0  0
   11.3954    3.2882    0.0000 C   0  0  0  0  0  0  0  0  0  0  0  0
   10.6882    1.7072    0.0000 C   0  0  0  0  0  0  0  0  0  0  0  0
    8.6844    4.2466    0.0000 C   0  0  0  0  0  0  0  0  0  0  0  0
   13.9283    4.0527    0.0000 C   0  0  0  0  0  0  0  0  0  0  0  0
   13.7046    2.6563    0.0000 C   0  0  0  0  0  0  0  0  0  0  0  0
   12.5319    4.2763    0.0000 C   0  0  0  0  0  0  0  0  0  0  0  0
    8.0980    5.0567    0.0000 C   0  0  0  0  0  0  0  0  0  0  0  0
    9.6791    4.3495    0.0000 C   0  0  0  0  0  0  0  0  0  0  0  0
    8.5063    5.9695    0.0000 C   0  0  0  0  0  0  0  0  0  0  0  0
   10.0874    5.2623    0.0000 C   0  0  0  0  0  0  0  0  0  0  0  0
    9.5010    6.0723    0.0000 C   0  0  0  0  0  0  0  0  0  0  0  0
    3.2425   -4.6074    0.0000 H   0  0  0  0  0  0  0  0  0  0  0  0
    2.2953   -4.5957    0.0000 H   0  0  0  0  0  0  0  0  0  0  0  0
    1.8204   -5.4184    0.0000 H   0  0  0  0  0  0  0  0  0  0  0  0
    2.4280   -6.4709    0.0000 H   0  0  0  0  0  0  0  0  0  0  0  0
    3.3779   -6.4709    0.0000 H   0  0  0  0  0  0  0  0  0  0  0  0
    4.8059   -5.0163    0.0000 H   0  0  0  0  0  0  0  0  0  0  0  0
    5.7794   -1.0470    0.0000 H   0  0  0  0  0  0  0  0  0  0  0  0
    7.4713   -1.2504    0.0000 H   0  0  0  0  0  0  0  0  0  0  0  0
    7.9602   -0.5799    0.0000 H   0  0  0  0  0  0  0  0  0  0  0  0
    7.2493    0.9688    0.0000 H   0  0  0  0  0  0  0  0  0  0  0  0
    5.1855   -0.1400    0.0000 H   0  0  0  0  0  0  0  0  0  0  0  0
    6.2041    1.2570    0.0000 H   0  0  0  0  0  0  0  0  0  0  0  0
    8.4261    0.3850    0.0000 H   0  0  0  0  0  0  0  0  0  0  0  0
    8.7515    1.1126    0.0000 H   0  0  0  0  0  0  0  0  0  0  0  0
    7.2848   -2.7063    0.0000 H   0  0  0  0  0  0  0  0  0  0  0  0
    9.6088    3.7269    0.0000 H   0  0  0  0  0  0  0  0  0  0  0  0
   10.5216    3.3186    0.0000 H   0  0  0  0  0  0  0  0  0  0  0  0
    2.0000   -2.0163    0.0000 H   0  0  0  0  0  0  0  0  0  0  0  0
    2.5369   -1.0863    0.0000 H   0  0  0  0  0  0  0  0  0  0  0  0
   10.0714    1.6434    0.0000 H   0  0  0  0  0  0  0  0  0  0  0  0
   10.7519    1.0904    0.0000 H   0  0  0  0  0  0  0  0  0  0  0  0
   11.3049    1.7709    0.0000 H   0  0  0  0  0  0  0  0  0  0  0  0
   14.2918    3.5505    0.0000 H   0  0  0  0  0  0  0  0  0  0  0  0
   14.4305    4.4162    0.0000 H   0  0  0  0  0  0  0  0  0  0  0  0
   13.5647    4.5549    0.0000 H   0  0  0  0  0  0  0  0  0  0  0  0
   13.2024    2.2927    0.0000 H   0  0  0  0  0  0  0  0  0  0  0  0
   14.0682    2.1540    0.0000 H   0  0  0  0  0  0  0  0  0  0  0  0
   14.2069    3.0198    0.0000 H   0  0  0  0  0  0  0  0  0  0  0  0
   13.0341    4.6399    0.0000 H   0  0  0  0  0  0  0  0  0  0  0  0
   12.1683    4.7786    0.0000 H   0  0  0  0  0  0  0  0  0  0  0  0
   12.0296    3.9128    0.0000 H   0  0  0  0  0  0  0  0  0  0  0  0
    7.4813    4.9930    0.0000 H   0  0  0  0  0  0  0  0  0  0  0  0
   10.0427    3.8472    0.0000 H   0  0  0  0  0  0  0  0  0  0  0  0
    8.1428    6.4718    0.0000 H   0  0  0  0  0  0  0  0  0  0  0  0
   10.7041    5.3260    0.0000 H   0  0  0  0  0  0  0  0  0  0  0  0
    9.7542    6.6383    0.0000 H   0  0  0  0  0  0  0  0  0  0  0  0
  1  2  1  0  0  0  0
  1  3  1  0  0  0  0
  1  4  2  0  0  0  0
  1 12  1  0  0  0  0
  2 25  1  0  0  0  0
  3 32  1  0  0  0  0
  5 29  1  0  0  0  0
  5 30  1  0  0  0  0
  6 30  2  0  0  0  0
  7 14  1  0  0  0  0
  7 20  1  0  0  0  0
  7 46  1  0  0  0  0
 17  8  1  1  0  0  0
  8 24  1  0  0  0  0
  8 26  1  0  0  0  0
  9 23  1  0  0  0  0
  9 26  2  0  0  0  0
 10 20  1  0  0  0  0
 10 27  2  0  0  0  0
 11 24  2  0  0  0  0
 11 27  1  0  0  0  0
 28 12  1  1  0  0  0
 12 56  1  0  0  0  0
 13 27  1  0  0  0  0
 13 58  1  0  0  0  0
 13 59  1  0  0  0  0
 14 15  1  0  0  0  0
 14 16  1  0  0  0  0
 14 41  1  0  0  0  0
 15 16  1  0  0  0  0
 15 42  1  0  0  0  0
 15 43  1  0  0  0  0
 16 44  1  0  0  0  0
 16 45  1  0  0  0  0
 17 18  1  0  0  0  0
 17 21  1  0  0  0  0
 17 47  1  0  0  0  0
 18 19  1  0  0  0  0
 18 48  1  0  0  0  0
 18 49  1  0  0  0  0
 19 22  1  0  0  0  0
 19 25  1  1  0  0  0
 19 50  1  0  0  0  0
 20 23  2  0  0  0  0
 21 22  2  0  0  0  0
 21 51  1  0  0  0  0
 22 52  1  0  0  0  0
 23 24  1  0  0  0  0
 25 53  1  0  0  0  0
 25 54  1  0  0  0  0
 26 55  1  0  0  0  0
 28 30  1  0  0  0  0
 28 31  1  0  0  0  0
 28 57  1  0  0  0  0
 29 33  1  0  0  0  0
 29 34  1  0  0  0  0
 29 35  1  0  0  0  0
 31 60  1  0  0  0  0
 31 61  1  0  0  0  0
 31 62  1  0  0  0  0
 32 36  2  0  0  0  0
 32 37  1  0  0  0  0
 33 63  1  0  0  0  0
 33 64  1  0  0  0  0
 33 65  1  0  0  0  0
 34 66  1  0  0  0  0
 34 67  1  0  0  0  0
 34 68  1  0  0  0  0
 35 69  1  0  0  0  0
 35 70  1  0  0  0  0
 35 71  1  0  0  0  0
 36 38  1  0  0  0  0
 36 72  1  0  0  0  0
 37 39  2  0  0  0  0
 37 73  1  0  0  0  0
 38 40  2  0  0  0  0
 38 74  1  0  0  0  0
 39 40  1  0  0  0  0
 39 75  1  0  0  0  0
 40 76  1  0  0  0  0
M  END
> <PUBCHEM_COMPOUND_CID>
514362
> <PUBCHEM_COMPOUND_CANONICALIZED>
1
> <PUBCHEM_CACTVS_COMPLEXITY>
954
> <PUBCHEM_CACTVS_HBOND_ACCEPTOR>
11
> <PUBCHEM_CACTVS_HBOND_DONOR>
3
> <PUBCHEM_CACTVS_ROTATABLE_BOND>
13
> <PUBCHEM_CACTVS_SUBSKEYS>
AAADcfB7uAIAAAAAAAAAAAAAGAAAAWIAAAA8QAAAAAAAAFgB/AAAHgAQgCAADWzhlwY3/r/MFRCoQSbzbICCgC0xMKAJ2KGuXJiKbiLA2VKXNAgs0BPIiCegQAAMAAAAAAAAAAAAAAAAAAAAAAAAAAAAAA==
> <PUBCHEM_IUPAC_OPENEYE_NAME>
tert-butyl (2R)-2-[[[(1S,4R)-4-[2-amino-6-(cyclopropylamino)purin-9-yl]cyclopent-2-en-1-yl]methoxy-phenoxy-phosphoryl]amino]propanoate
> <PUBCHEM_IUPAC_CAS_NAME>
(2R)-2-[[[(1S,4R)-4-[2-amino-6-(cyclopropylamino)-9-purinyl]-1-cyclopent-2-enyl]methoxy-phenoxyphosphoryl]amino]propanoic acid tert-butyl ester
> <PUBCHEM_IUPAC_NAME_MARKUP>
<I>tert</I>-butyl (2<I>R</I>)-2-[[[(1<I>S</I>,4<I>R</I>)-4-[2-amino-6-(cyclopropylamino)purin-9-yl]cyclopent-2-en-1-yl]methoxy-phenoxyphosphoryl]amino]propanoate
> <PUBCHEM_IUPAC_NAME>
tert-butyl (2R)-2-[[[(1S,4R)-4-[2-amino-6-(cyclopropylamino)purin-9-yl]cyclopent-2-en-1-yl]methoxy-phenoxyphosphoryl]amino]propanoate
> <PUBCHEM_IUPAC_SYSTEMATIC_NAME>
tert-butyl (2R)-2-[[[(1S,4R)-4-[2-azanyl-6-(cyclopropylamino)purin-9-yl]cyclopent-2-en-1-yl]methoxy-phenoxy-phosphoryl]amino]propanoate
> <PUBCHEM_IUPAC_TRADITIONAL_NAME>
(2R)-2-[[[(1S,4R)-4-[2-amino-6-(cyclopropylamino)purin-9-yl]cyclopent-2-en-1-yl]methoxy-phenoxy-phosphoryl]amino]propionic acid tert-butyl ester
> <PUBCHEM_IUPAC_INCHI>
InChI=1S/C27H36N7O5P/c1-17(25(35)38-27(2,3)4)33-40(36,39-21-8-6-5-7-9-21)37-15-18-10-13-20(14-18)34-16-29-22-23(30-19-11-12-19)31-26(28)32-24(22)34/h5-10,13,16-20H,11-12,14-15H2,1-4H3,(H,33,36)(H3,28,30,31,32)/t17-,18-,20+,40?/m1/s1
> <PUBCHEM_IUPAC_INCHIKEY>
OQSNJBSJVFZBDZ-WVHAGGLJSA-N
> <PUBCHEM_XLOGP3_AA>
3.7
> <PUBCHEM_EXACT_MASS>
569.25155427
> <PUBCHEM_MOLECULAR_FORMULA>
C27H36N7O5P
> <PUBCHEM_MOLECULAR_WEIGHT>
569.6
> <PUBCHEM_OPENEYE_CAN_SMILES>
CC(C(=O)OC(C)(C)C)NP(=O)(OCC1CC(C=C1)N2C=NC3=C(N=C(N=C32)N)NC4CC4)OC5=CC=CC=C5
> <PUBCHEM_OPENEYE_ISO_SMILES>
C[C@H](C(=O)OC(C)(C)C)NP(=O)(OC[C@H]1C[C@H](C=C1)N2C=NC3=C(N=C(N=C32)N)NC4CC4)OC5=CC=CC=C5
> <PUBCHEM_CACTVS_TPSA>
156
> <PUBCHEM_MONOISOTOPIC_WEIGHT>
569.25155427
> <PUBCHEM_TOTAL_CHARGE>
0
> <PUBCHEM_HEAVY_ATOM_COUNT>
40
> <PUBCHEM_ATOM_DEF_STEREO_COUNT>
3
> <PUBCHEM_ATOM_UDEF_STEREO_COUNT>
1
> <PUBCHEM_BOND_DEF_STEREO_COUNT>
0
> <PUBCHEM_BOND_UDEF_STEREO_COUNT>
0
> <PUBCHEM_ISOTOPIC_ATOM_COUNT>
0
> <PUBCHEM_COMPONENT_COUNT>
1
> <PUBCHEM_CACTVS_TAUTO_COUNT>
-1
> <PUBCHEM_COORDINATE_TYPE>
1
5
255
> <PUBCHEM_BONDANNOTATIONS>
1  12  3
10  20  8
10  27  8
11  24  8
11  27  8
28  12  5
19  25  5
20  23  8
23  24  8
32  36  8
32  37  8
36  38  8
37  39  8
38  40  8
39  40  8
17  8  5
8  24  8
8  26  8
9  23  8
9  26  8
$$$$
