514409
  -OEChem-10302200282D
 84 87  0     1  0  0  0  0  0999 V2000
   11.1972   -1.6550    0.0000 S   0  0  0  0  0  0  0  0  0  0  0  0
    8.5991   -0.1550    0.0000 O   0  0  0  0  0  0  0  0  0  0  0  0
   10.6972   -2.5210    0.0000 O   0  0  0  0  0  0  0  0  0  0  0  0
   11.6972   -0.7890    0.0000 O   0  0  0  0  0  0  0  0  0  0  0  0
    6.0010    1.3450    0.0000 O   0  0  0  0  0  0  0  0  0  0  0  0
   14.7415   -1.8503    0.0000 O   0  0  0  0  0  0  0  0  0  0  0  0
    7.7331    0.3450    0.0000 O   0  0  0  0  0  0  0  0  0  0  0  0
   10.3312   -1.1550    0.0000 N   0  0  3  0  0  0  0  0  0  0  0  0
    6.8671   -1.1550    0.0000 N   0  0  0  0  0  0  0  0  0  0  0  0
   14.7415   -3.4597    0.0000 N   0  0  0  0  0  0  0  0  0  0  0  0
   16.3251   -2.6550    0.0000 N   0  0  0  0  0  0  0  0  0  0  0  0
    4.2690    4.3450    0.0000 N   0  0  0  0  0  0  0  0  0  0  0  0
    2.5369    3.3450    0.0000 N   0  0  0  0  0  0  0  0  0  0  0  0
    8.5991   -1.1550    0.0000 C   0  0  2  0  0  0  0  0  0  0  0  0
    9.4651   -1.6550    0.0000 C   0  0  0  0  0  0  0  0  0  0  0  0
    7.7331   -1.6550    0.0000 C   0  0  2  0  0  0  0  0  0  0  0  0
   10.3312   -0.1550    0.0000 C   0  0  0  0  0  0  0  0  0  0  0  0
   11.1972    0.3450    0.0000 C   0  0  0  0  0  0  0  0  0  0  0  0
    7.7331   -2.6550    0.0000 C   0  0  0  0  0  0  0  0  0  0  0  0
   12.0632   -2.1550    0.0000 C   0  0  0  0  0  0  0  0  0  0  0  0
    6.8671   -3.1550    0.0000 C   0  0  0  0  0  0  0  0  0  0  0  0
   11.1972    1.3450    0.0000 C   0  0  0  0  0  0  0  0  0  0  0  0
   12.0632   -0.1550    0.0000 C   0  0  0  0  0  0  0  0  0  0  0  0
    6.8671   -0.1550    0.0000 C   0  0  0  0  0  0  0  0  0  0  0  0
   12.9292   -1.6550    0.0000 C   0  0  0  0  0  0  0  0  0  0  0  0
   12.0632   -3.1550    0.0000 C   0  0  0  0  0  0  0  0  0  0  0  0
    6.8671   -4.1550    0.0000 C   0  0  0  0  0  0  0  0  0  0  0  0
    6.0010   -2.6550    0.0000 C   0  0  0  0  0  0  0  0  0  0  0  0
    6.0010    0.3450    0.0000 C   0  0  0  0  0  0  0  0  0  0  0  0
   13.7953   -2.1550    0.0000 C   0  0  0  0  0  0  0  0  0  0  0  0
   12.9292   -3.6550    0.0000 C   0  0  0  0  0  0  0  0  0  0  0  0
   13.7953   -3.1550    0.0000 C   0  0  0  0  0  0  0  0  0  0  0  0
    6.0010   -4.6550    0.0000 C   0  0  0  0  0  0  0  0  0  0  0  0
    5.1350   -3.1550    0.0000 C   0  0  0  0  0  0  0  0  0  0  0  0
    5.1350   -4.1550    0.0000 C   0  0  0  0  0  0  0  0  0  0  0  0
    5.1350    1.8450    0.0000 C   0  0  0  0  0  0  0  0  0  0  0  0
   15.3251   -2.6550    0.0000 C   0  0  0  0  0  0  0  0  0  0  0  0
    5.1350    2.8450    0.0000 C   0  0  0  0  0  0  0  0  0  0  0  0
    4.2690    1.3450    0.0000 C   0  0  0  0  0  0  0  0  0  0  0  0
    4.2690    3.3450    0.0000 C   0  0  0  0  0  0  0  0  0  0  0  0
    3.4030    1.8450    0.0000 C   0  0  0  0  0  0  0  0  0  0  0  0
    3.4030    2.8450    0.0000 C   0  0  0  0  0  0  0  0  0  0  0  0
    6.0010    3.3450    0.0000 C   0  0  0  0  0  0  0  0  0  0  0  0
    4.2690    0.3450    0.0000 C   0  0  0  0  0  0  0  0  0  0  0  0
    8.0622   -0.8450    0.0000 H   0  0  0  0  0  0  0  0  0  0  0  0
    9.0666   -2.1300    0.0000 H   0  0  0  0  0  0  0  0  0  0  0  0
    9.8637   -2.1300    0.0000 H   0  0  0  0  0  0  0  0  0  0  0  0
    7.7331   -1.0350    0.0000 H   0  0  0  0  0  0  0  0  0  0  0  0
   10.1191    0.4276    0.0000 H   0  0  0  0  0  0  0  0  0  0  0  0
    9.7206   -0.2627    0.0000 H   0  0  0  0  0  0  0  0  0  0  0  0
   10.6603    0.6550    0.0000 H   0  0  0  0  0  0  0  0  0  0  0  0
    7.9451   -3.2376    0.0000 H   0  0  0  0  0  0  0  0  0  0  0  0
    8.3437   -2.5473    0.0000 H   0  0  0  0  0  0  0  0  0  0  0  0
    6.3301   -1.4650    0.0000 H   0  0  0  0  0  0  0  0  0  0  0  0
   11.8172    1.3450    0.0000 H   0  0  0  0  0  0  0  0  0  0  0  0
   11.1972    1.9650    0.0000 H   0  0  0  0  0  0  0  0  0  0  0  0
   10.5772    1.3450    0.0000 H   0  0  0  0  0  0  0  0  0  0  0  0
   11.7532   -0.6919    0.0000 H   0  0  0  0  0  0  0  0  0  0  0  0
   12.6002   -0.4650    0.0000 H   0  0  0  0  0  0  0  0  0  0  0  0
   12.3732    0.3819    0.0000 H   0  0  0  0  0  0  0  0  0  0  0  0
    9.1360    0.1550    0.0000 H   0  0  0  0  0  0  0  0  0  0  0  0
   12.9292   -1.0350    0.0000 H   0  0  0  0  0  0  0  0  0  0  0  0
   11.5263   -3.4650    0.0000 H   0  0  0  0  0  0  0  0  0  0  0  0
    7.4040   -4.4650    0.0000 H   0  0  0  0  0  0  0  0  0  0  0  0
    6.0010   -2.0350    0.0000 H   0  0  0  0  0  0  0  0  0  0  0  0
    5.3905    0.4527    0.0000 H   0  0  0  0  0  0  0  0  0  0  0  0
    5.7890   -0.2376    0.0000 H   0  0  0  0  0  0  0  0  0  0  0  0
   12.9292   -4.2750    0.0000 H   0  0  0  0  0  0  0  0  0  0  0  0
    6.0010   -5.2750    0.0000 H   0  0  0  0  0  0  0  0  0  0  0  0
    4.5981   -2.8450    0.0000 H   0  0  0  0  0  0  0  0  0  0  0  0
    4.5981   -4.4650    0.0000 H   0  0  0  0  0  0  0  0  0  0  0  0
    2.8660    1.5350    0.0000 H   0  0  0  0  0  0  0  0  0  0  0  0
    6.3110    2.8081    0.0000 H   0  0  0  0  0  0  0  0  0  0  0  0
    6.5380    3.6550    0.0000 H   0  0  0  0  0  0  0  0  0  0  0  0
    5.6910    3.8819    0.0000 H   0  0  0  0  0  0  0  0  0  0  0  0
    3.6490    0.3450    0.0000 H   0  0  0  0  0  0  0  0  0  0  0  0
    4.2690   -0.2750    0.0000 H   0  0  0  0  0  0  0  0  0  0  0  0
    4.8890    0.3450    0.0000 H   0  0  0  0  0  0  0  0  0  0  0  0
   16.6351   -3.1919    0.0000 H   0  0  0  0  0  0  0  0  0  0  0  0
   16.6351   -2.1181    0.0000 H   0  0  0  0  0  0  0  0  0  0  0  0
    3.7320    4.6550    0.0000 H   0  0  0  0  0  0  0  0  0  0  0  0
    4.8059    4.6550    0.0000 H   0  0  0  0  0  0  0  0  0  0  0  0
    2.0000    3.0350    0.0000 H   0  0  0  0  0  0  0  0  0  0  0  0
    2.5369    3.9650    0.0000 H   0  0  0  0  0  0  0  0  0  0  0  0
  1  3  2  0  0  0  0
  1  4  2  0  0  0  0
  1  8  1  0  0  0  0
  1 20  1  0  0  0  0
 14  2  1  6  0  0  0
  2 61  1  0  0  0  0
  5 29  1  0  0  0  0
  5 36  1  0  0  0  0
  6 30  1  0  0  0  0
  6 37  1  0  0  0  0
  7 24  2  0  0  0  0
  8 15  1  0  0  0  0
  8 17  1  0  0  0  0
 16  9  1  6  0  0  0
  9 24  1  0  0  0  0
  9 54  1  0  0  0  0
 10 32  1  0  0  0  0
 10 37  2  0  0  0  0
 11 37  1  0  0  0  0
 11 79  1  0  0  0  0
 11 80  1  0  0  0  0
 12 40  1  0  0  0  0
 12 81  1  0  0  0  0
 12 82  1  0  0  0  0
 13 42  1  0  0  0  0
 13 83  1  0  0  0  0
 13 84  1  0  0  0  0
 14 15  1  0  0  0  0
 14 16  1  0  0  0  0
 14 45  1  0  0  0  0
 15 46  1  0  0  0  0
 15 47  1  0  0  0  0
 16 19  1  0  0  0  0
 16 48  1  0  0  0  0
 17 18  1  0  0  0  0
 17 49  1  0  0  0  0
 17 50  1  0  0  0  0
 18 22  1  0  0  0  0
 18 23  1  0  0  0  0
 18 51  1  0  0  0  0
 19 21  1  0  0  0  0
 19 52  1  0  0  0  0
 19 53  1  0  0  0  0
 20 25  2  0  0  0  0
 20 26  1  0  0  0  0
 21 27  2  0  0  0  0
 21 28  1  0  0  0  0
 22 55  1  0  0  0  0
 22 56  1  0  0  0  0
 22 57  1  0  0  0  0
 23 58  1  0  0  0  0
 23 59  1  0  0  0  0
 23 60  1  0  0  0  0
 24 29  1  0  0  0  0
 25 30  1  0  0  0  0
 25 62  1  0  0  0  0
 26 31  2  0  0  0  0
 26 63  1  0  0  0  0
 27 33  1  0  0  0  0
 27 64  1  0  0  0  0
 28 34  2  0  0  0  0
 28 65  1  0  0  0  0
 29 66  1  0  0  0  0
 29 67  1  0  0  0  0
 30 32  2  0  0  0  0
 31 32  1  0  0  0  0
 31 68  1  0  0  0  0
 33 35  2  0  0  0  0
 33 69  1  0  0  0  0
 34 35  1  0  0  0  0
 34 70  1  0  0  0  0
 35 71  1  0  0  0  0
 36 38  2  0  0  0  0
 36 39  1  0  0  0  0
 38 40  1  0  0  0  0
 38 43  1  0  0  0  0
 39 41  2  0  0  0  0
 39 44  1  0  0  0  0
 40 42  2  0  0  0  0
 41 42  1  0  0  0  0
 41 72  1  0  0  0  0
 43 73  1  0  0  0  0
 43 74  1  0  0  0  0
 43 75  1  0  0  0  0
 44 76  1  0  0  0  0
 44 77  1  0  0  0  0
 44 78  1  0  0  0  0
M  END
> <PUBCHEM_COMPOUND_CID>
514409
> <PUBCHEM_COMPOUND_CANONICALIZED>
1
> <PUBCHEM_CACTVS_COMPLEXITY>
1020
> <PUBCHEM_CACTVS_HBOND_ACCEPTOR>
11
> <PUBCHEM_CACTVS_HBOND_DONOR>
5
> <PUBCHEM_CACTVS_ROTATABLE_BOND>
13
> <PUBCHEM_CACTVS_SUBSKEYS>
AAADcfB7uABAAAAAAAAAAAAAAAAAAWAAAAAwYMAAAAAAAFgB9AAAHgQQSAAADTzh3gYz17LIFkKoA6VydHbCiDkvYiAImLn/fNmOdrLE9b+PeSjm1hvY6ae42OEOCEQCRgAKECAQiASMABQgQAAAAAAAAA==
> <PUBCHEM_IUPAC_OPENEYE_NAME>
N-[(1S,2R)-3-[(2-amino-1,3-benzoxazol-6-yl)sulfonyl-isobutyl-amino]-1-benzyl-2-hydroxy-propyl]-2-(3,4-diamino-2,6-dimethyl-phenoxy)acetamide
> <PUBCHEM_IUPAC_CAS_NAME>
N-[(2S,3R)-4-[(2-amino-1,3-benzoxazol-6-yl)sulfonyl-(2-methylpropyl)amino]-3-hydroxy-1-phenylbutan-2-yl]-2-(3,4-diamino-2,6-dimethylphenoxy)acetamide
> <PUBCHEM_IUPAC_NAME_MARKUP>
<I>N</I>-[(2<I>S</I>,3<I>R</I>)-4-[(2-amino-1,3-benzoxazol-6-yl)sulfonyl-(2-methylpropyl)amino]-3-hydroxy-1-phenylbutan-2-yl]-2-(3,4-diamino-2,6-dimethylphenoxy)acetamide
> <PUBCHEM_IUPAC_NAME>
N-[(2S,3R)-4-[(2-amino-1,3-benzoxazol-6-yl)sulfonyl-(2-methylpropyl)amino]-3-hydroxy-1-phenylbutan-2-yl]-2-(3,4-diamino-2,6-dimethylphenoxy)acetamide
> <PUBCHEM_IUPAC_SYSTEMATIC_NAME>
N-[(2S,3R)-4-[(2-azanyl-1,3-benzoxazol-6-yl)sulfonyl-(2-methylpropyl)amino]-3-oxidanyl-1-phenyl-butan-2-yl]-2-[3,4-bis(azanyl)-2,6-dimethyl-phenoxy]ethanamide
> <PUBCHEM_IUPAC_TRADITIONAL_NAME>
N-[(1S,2R)-3-[(2-amino-1,3-benzoxazol-6-yl)sulfonyl-isobutyl-amino]-1-benzyl-2-hydroxy-propyl]-2-(3,4-diamino-2,6-dimethyl-phenoxy)acetamide
> <PUBCHEM_IUPAC_INCHI>
InChI=1S/C31H40N6O6S/c1-18(2)15-37(44(40,41)22-10-11-24-27(14-22)43-31(34)36-24)16-26(38)25(13-21-8-6-5-7-9-21)35-28(39)17-42-30-19(3)12-23(32)29(33)20(30)4/h5-12,14,18,25-26,38H,13,15-17,32-33H2,1-4H3,(H2,34,36)(H,35,39)/t25-,26+/m0/s1
> <PUBCHEM_IUPAC_INCHIKEY>
KEBMVZOQMZTSOW-IZZNHLLZSA-N
> <PUBCHEM_XLOGP3_AA>
3.7
> <PUBCHEM_EXACT_MASS>
624.27300419
> <PUBCHEM_MOLECULAR_FORMULA>
C31H40N6O6S
> <PUBCHEM_MOLECULAR_WEIGHT>
624.8
> <PUBCHEM_OPENEYE_CAN_SMILES>
CC1=CC(=C(C(=C1OCC(=O)NC(CC2=CC=CC=C2)C(CN(CC(C)C)S(=O)(=O)C3=CC4=C(C=C3)N=C(O4)N)O)C)N)N
> <PUBCHEM_OPENEYE_ISO_SMILES>
CC1=CC(=C(C(=C1OCC(=O)N[C@@H](CC2=CC=CC=C2)[C@@H](CN(CC(C)C)S(=O)(=O)C3=CC4=C(C=C3)N=C(O4)N)O)C)N)N
> <PUBCHEM_CACTVS_TPSA>
208
> <PUBCHEM_MONOISOTOPIC_WEIGHT>
624.27300419
> <PUBCHEM_TOTAL_CHARGE>
0
> <PUBCHEM_HEAVY_ATOM_COUNT>
44
> <PUBCHEM_ATOM_DEF_STEREO_COUNT>
2
> <PUBCHEM_ATOM_UDEF_STEREO_COUNT>
0
> <PUBCHEM_BOND_DEF_STEREO_COUNT>
0
> <PUBCHEM_BOND_UDEF_STEREO_COUNT>
0
> <PUBCHEM_ISOTOPIC_ATOM_COUNT>
0
> <PUBCHEM_COMPONENT_COUNT>
1
> <PUBCHEM_CACTVS_TAUTO_COUNT>
-1
> <PUBCHEM_COORDINATE_TYPE>
1
5
255
> <PUBCHEM_BONDANNOTATIONS>
10  32  8
10  37  8
14  2  6
20  25  8
20  26  8
21  27  8
21  28  8
25  30  8
26  31  8
27  33  8
28  34  8
30  32  8
31  32  8
33  35  8
34  35  8
36  38  8
36  39  8
38  40  8
39  41  8
40  42  8
41  42  8
6  30  8
6  37  8
16  9  6
$$$$
