514488
  -OEChem-10302200282D
 81 84  0     1  0  0  0  0  0999 V2000
    8.2295   -2.8776    0.0000 S   0  0  0  0  0  0  0  0  0  0  0  0
    5.1906   -3.2437    0.0000 O   0  0  0  0  0  0  0  0  0  0  0  0
    5.9913   -0.4097    0.0000 O   0  0  0  0  0  0  0  0  0  0  0  0
    8.6167   -0.0823    0.0000 O   0  0  0  0  0  0  0  0  0  0  0  0
    9.2858    0.6608    0.0000 O   0  0  0  0  0  0  0  0  0  0  0  0
   12.2714    2.6823    0.0000 O   0  0  0  0  0  0  0  0  0  0  0  0
    7.2784   -1.5686    0.0000 N   0  0  0  0  0  0  0  0  0  0  0  0
    5.1906   -1.5116    0.0000 N   0  0  0  0  0  0  0  0  0  0  0  0
    7.9987    1.8198    0.0000 N   0  0  0  0  0  0  0  0  0  0  0  0
    6.6906   -2.3776    0.0000 C   0  0  1  0  0  0  0  0  0  0  0  0
    7.2784   -3.1867    0.0000 C   0  0  0  0  0  0  0  0  0  0  0  0
    4.1906   -1.5116    0.0000 C   0  0  0  0  0  0  0  0  0  0  0  0
    3.7568   -2.4126    0.0000 C   0  0  0  0  0  0  0  0  0  0  0  0
    3.7568   -0.6106    0.0000 C   0  0  0  0  0  0  0  0  0  0  0  0
    5.6906   -2.3776    0.0000 C   0  0  0  0  0  0  0  0  0  0  0  0
    8.2295   -1.8776    0.0000 C   0  0  0  0  0  0  0  0  0  0  0  0
    2.7818   -2.6351    0.0000 C   0  0  0  0  0  0  0  0  0  0  0  0
    2.7818   -0.3881    0.0000 C   0  0  0  0  0  0  0  0  0  0  0  0
    7.5874   -4.1377    0.0000 C   0  0  0  0  0  0  0  0  0  0  0  0
    6.4694   -3.7744    0.0000 C   0  0  0  0  0  0  0  0  0  0  0  0
    2.0000   -2.0116    0.0000 C   0  0  0  0  0  0  0  0  0  0  0  0
    2.0000   -1.0116    0.0000 C   0  0  0  0  0  0  0  0  0  0  0  0
    6.9694   -0.6176    0.0000 C   0  0  0  0  0  0  0  0  0  0  0  0
    7.6385    0.1256    0.0000 C   0  0  2  0  0  0  0  0  0  0  0  0
    7.3295    1.0766    0.0000 C   0  0  2  0  0  0  0  0  0  0  0  0
    6.3514    1.2846    0.0000 C   0  0  0  0  0  0  0  0  0  0  0  0
    6.0424    2.2356    0.0000 C   0  0  0  0  0  0  0  0  0  0  0  0
    8.9768    1.6119    0.0000 C   0  0  0  0  0  0  0  0  0  0  0  0
    5.0642    2.4435    0.0000 C   0  0  0  0  0  0  0  0  0  0  0  0
    6.7115    2.9787    0.0000 C   0  0  0  0  0  0  0  0  0  0  0  0
    9.6459    2.3550    0.0000 C   0  0  0  0  0  0  0  0  0  0  0  0
    4.7552    3.3946    0.0000 C   0  0  0  0  0  0  0  0  0  0  0  0
    6.4025    3.9298    0.0000 C   0  0  0  0  0  0  0  0  0  0  0  0
   10.6241    2.1471    0.0000 C   0  0  0  0  0  0  0  0  0  0  0  0
    5.4243    4.1377    0.0000 C   0  0  0  0  0  0  0  0  0  0  0  0
    9.3369    3.3061    0.0000 C   0  0  0  0  0  0  0  0  0  0  0  0
   11.2932    2.8902    0.0000 C   0  0  0  0  0  0  0  0  0  0  0  0
   10.9331    1.1960    0.0000 C   0  0  0  0  0  0  0  0  0  0  0  0
   10.0060    4.0492    0.0000 C   0  0  0  0  0  0  0  0  0  0  0  0
   10.9842    3.8413    0.0000 C   0  0  0  0  0  0  0  0  0  0  0  0
    6.4092   -1.8252    0.0000 H   0  0  0  0  0  0  0  0  0  0  0  0
    4.5205   -0.9866    0.0000 H   0  0  0  0  0  0  0  0  0  0  0  0
    3.7568   -3.0326    0.0000 H   0  0  0  0  0  0  0  0  0  0  0  0
    4.3612   -2.5506    0.0000 H   0  0  0  0  0  0  0  0  0  0  0  0
    4.3612   -0.4727    0.0000 H   0  0  0  0  0  0  0  0  0  0  0  0
    3.7568    0.0094    0.0000 H   0  0  0  0  0  0  0  0  0  0  0  0
    8.8461   -1.9424    0.0000 H   0  0  0  0  0  0  0  0  0  0  0  0
    8.3584   -1.2712    0.0000 H   0  0  0  0  0  0  0  0  0  0  0  0
    5.5006   -0.9747    0.0000 H   0  0  0  0  0  0  0  0  0  0  0  0
    2.2971   -3.0217    0.0000 H   0  0  0  0  0  0  0  0  0  0  0  0
    3.0508   -3.1937    0.0000 H   0  0  0  0  0  0  0  0  0  0  0  0
    3.0508    0.1705    0.0000 H   0  0  0  0  0  0  0  0  0  0  0  0
    2.2971   -0.0016    0.0000 H   0  0  0  0  0  0  0  0  0  0  0  0
    6.9978   -4.3293    0.0000 H   0  0  0  0  0  0  0  0  0  0  0  0
    7.7790   -4.7274    0.0000 H   0  0  0  0  0  0  0  0  0  0  0  0
    8.1771   -3.9461    0.0000 H   0  0  0  0  0  0  0  0  0  0  0  0
    6.1050   -3.2728    0.0000 H   0  0  0  0  0  0  0  0  0  0  0  0
    5.9678   -4.1389    0.0000 H   0  0  0  0  0  0  0  0  0  0  0  0
    6.8338   -4.2760    0.0000 H   0  0  0  0  0  0  0  0  0  0  0  0
    1.3955   -1.8736    0.0000 H   0  0  0  0  0  0  0  0  0  0  0  0
    1.7310   -2.5702    0.0000 H   0  0  0  0  0  0  0  0  0  0  0  0
    1.7310   -0.4530    0.0000 H   0  0  0  0  0  0  0  0  0  0  0  0
    1.3955   -1.1496    0.0000 H   0  0  0  0  0  0  0  0  0  0  0  0
    8.0534    0.5863    0.0000 H   0  0  0  0  0  0  0  0  0  0  0  0
    7.1379    1.6663    0.0000 H   0  0  0  0  0  0  0  0  0  0  0  0
    5.7374    1.1983    0.0000 H   0  0  0  0  0  0  0  0  0  0  0  0
    6.3297    0.6649    0.0000 H   0  0  0  0  0  0  0  0  0  0  0  0
    7.8071    2.4094    0.0000 H   0  0  0  0  0  0  0  0  0  0  0  0
    8.8083   -0.6720    0.0000 H   0  0  0  0  0  0  0  0  0  0  0  0
    4.6494    1.9828    0.0000 H   0  0  0  0  0  0  0  0  0  0  0  0
    7.3179    2.8498    0.0000 H   0  0  0  0  0  0  0  0  0  0  0  0
    4.1487    3.5235    0.0000 H   0  0  0  0  0  0  0  0  0  0  0  0
    6.8173    4.3906    0.0000 H   0  0  0  0  0  0  0  0  0  0  0  0
    5.2327    4.7274    0.0000 H   0  0  0  0  0  0  0  0  0  0  0  0
    8.7305    3.4350    0.0000 H   0  0  0  0  0  0  0  0  0  0  0  0
   10.3434    1.0044    0.0000 H   0  0  0  0  0  0  0  0  0  0  0  0
   11.1247    0.6064    0.0000 H   0  0  0  0  0  0  0  0  0  0  0  0
   11.5228    1.3876    0.0000 H   0  0  0  0  0  0  0  0  0  0  0  0
    9.8145    4.6389    0.0000 H   0  0  0  0  0  0  0  0  0  0  0  0
   11.3991    4.3021    0.0000 H   0  0  0  0  0  0  0  0  0  0  0  0
   12.6862    3.1431    0.0000 H   0  0  0  0  0  0  0  0  0  0  0  0
  1 11  1  0  0  0  0
  1 16  1  0  0  0  0
  2 15  2  0  0  0  0
  3 23  2  0  0  0  0
 24  4  1  6  0  0  0
  4 69  1  0  0  0  0
  5 28  2  0  0  0  0
  6 37  1  0  0  0  0
  6 81  1  0  0  0  0
  7 10  1  0  0  0  0
  7 16  1  0  0  0  0
  7 23  1  0  0  0  0
  8 12  1  0  0  0  0
  8 15  1  0  0  0  0
  8 49  1  0  0  0  0
 25  9  1  6  0  0  0
  9 28  1  0  0  0  0
  9 68  1  0  0  0  0
 10 11  1  0  0  0  0
 10 15  1  1  0  0  0
 10 41  1  0  0  0  0
 11 19  1  0  0  0  0
 11 20  1  0  0  0  0
 12 13  1  0  0  0  0
 12 14  1  0  0  0  0
 12 42  1  0  0  0  0
 13 17  1  0  0  0  0
 13 43  1  0  0  0  0
 13 44  1  0  0  0  0
 14 18  1  0  0  0  0
 14 45  1  0  0  0  0
 14 46  1  0  0  0  0
 16 47  1  0  0  0  0
 16 48  1  0  0  0  0
 17 21  1  0  0  0  0
 17 50  1  0  0  0  0
 17 51  1  0  0  0  0
 18 22  1  0  0  0  0
 18 52  1  0  0  0  0
 18 53  1  0  0  0  0
 19 54  1  0  0  0  0
 19 55  1  0  0  0  0
 19 56  1  0  0  0  0
 20 57  1  0  0  0  0
 20 58  1  0  0  0  0
 20 59  1  0  0  0  0
 21 22  1  0  0  0  0
 21 60  1  0  0  0  0
 21 61  1  0  0  0  0
 22 62  1  0  0  0  0
 22 63  1  0  0  0  0
 23 24  1  0  0  0  0
 24 25  1  0  0  0  0
 24 64  1  0  0  0  0
 25 26  1  0  0  0  0
 25 65  1  0  0  0  0
 26 27  1  0  0  0  0
 26 66  1  0  0  0  0
 26 67  1  0  0  0  0
 27 29  2  0  0  0  0
 27 30  1  0  0  0  0
 28 31  1  0  0  0  0
 29 32  1  0  0  0  0
 29 70  1  0  0  0  0
 30 33  2  0  0  0  0
 30 71  1  0  0  0  0
 31 34  2  0  0  0  0
 31 36  1  0  0  0  0
 32 35  2  0  0  0  0
 32 72  1  0  0  0  0
 33 35  1  0  0  0  0
 33 73  1  0  0  0  0
 34 37  1  0  0  0  0
 34 38  1  0  0  0  0
 35 74  1  0  0  0  0
 36 39  2  0  0  0  0
 36 75  1  0  0  0  0
 37 40  2  0  0  0  0
 38 76  1  0  0  0  0
 38 77  1  0  0  0  0
 38 78  1  0  0  0  0
 39 40  1  0  0  0  0
 39 79  1  0  0  0  0
 40 80  1  0  0  0  0
M  END
> <PUBCHEM_COMPOUND_CID>
514488
> <PUBCHEM_COMPOUND_CANONICALIZED>
1
> <PUBCHEM_CACTVS_COMPLEXITY>
871
> <PUBCHEM_CACTVS_HBOND_ACCEPTOR>
6
> <PUBCHEM_CACTVS_HBOND_DONOR>
4
> <PUBCHEM_CACTVS_ROTATABLE_BOND>
8
> <PUBCHEM_CACTVS_SUBSKEYS>
AAADcfB7OABAAAAAAAAAAAAAAAAAAWAAAAAwYAAABgAAAAABQAAAHgQQCAAADDzh2AayBoPAAgiIAiFSEAKCAABkIBAIiIHODMgKdjqi1TOUcQhk1hGYmYe6yLCOgAABAAAYAAAAAAIAADAAAAAAAAAAAA==
> <PUBCHEM_IUPAC_OPENEYE_NAME>
(4R)-N-cycloheptyl-3-[(2S,3S)-2-hydroxy-3-[(3-hydroxy-2-methyl-benzoyl)amino]-4-phenyl-butanoyl]-5,5-dimethyl-thiazolidine-4-carboxamide
> <PUBCHEM_IUPAC_CAS_NAME>
(4R)-N-cycloheptyl-3-[(2S,3S)-2-hydroxy-3-[[(3-hydroxy-2-methylphenyl)-oxomethyl]amino]-1-oxo-4-phenylbutyl]-5,5-dimethyl-4-thiazolidinecarboxamide
> <PUBCHEM_IUPAC_NAME_MARKUP>
(4<I>R</I>)-<I>N</I>-cycloheptyl-3-[(2<I>S</I>,3<I>S</I>)-2-hydroxy-3-[(3-hydroxy-2-methylbenzoyl)amino]-4-phenylbutanoyl]-5,5-dimethyl-1,3-thiazolidine-4-carboxamide
> <PUBCHEM_IUPAC_NAME>
(4R)-N-cycloheptyl-3-[(2S,3S)-2-hydroxy-3-[(3-hydroxy-2-methylbenzoyl)amino]-4-phenylbutanoyl]-5,5-dimethyl-1,3-thiazolidine-4-carboxamide
> <PUBCHEM_IUPAC_SYSTEMATIC_NAME>
(4R)-N-cycloheptyl-5,5-dimethyl-3-[(2S,3S)-3-[(2-methyl-3-oxidanyl-phenyl)carbonylamino]-2-oxidanyl-4-phenyl-butanoyl]-1,3-thiazolidine-4-carboxamide
> <PUBCHEM_IUPAC_TRADITIONAL_NAME>
(4R)-N-cycloheptyl-3-[(2S,3S)-2-hydroxy-3-[(3-hydroxy-2-methyl-benzoyl)amino]-4-phenyl-butanoyl]-5,5-dimethyl-thiazolidine-4-carboxamide
> <PUBCHEM_IUPAC_INCHI>
InChI=1S/C31H41N3O5S/c1-20-23(16-11-17-25(20)35)28(37)33-24(18-21-12-7-6-8-13-21)26(36)30(39)34-19-40-31(2,3)27(34)29(38)32-22-14-9-4-5-10-15-22/h6-8,11-13,16-17,22,24,26-27,35-36H,4-5,9-10,14-15,18-19H2,1-3H3,(H,32,38)(H,33,37)/t24-,26-,27+/m0/s1
> <PUBCHEM_IUPAC_INCHIKEY>
YFAYLGOIDXTMAK-DOEKTCAHSA-N
> <PUBCHEM_XLOGP3_AA>
5
> <PUBCHEM_EXACT_MASS>
567.27669259
> <PUBCHEM_MOLECULAR_FORMULA>
C31H41N3O5S
> <PUBCHEM_MOLECULAR_WEIGHT>
567.7
> <PUBCHEM_OPENEYE_CAN_SMILES>
CC1=C(C=CC=C1O)C(=O)NC(CC2=CC=CC=C2)C(C(=O)N3CSC(C3C(=O)NC4CCCCCC4)(C)C)O
> <PUBCHEM_OPENEYE_ISO_SMILES>
CC1=C(C=CC=C1O)C(=O)N[C@@H](CC2=CC=CC=C2)[C@@H](C(=O)N3CSC([C@H]3C(=O)NC4CCCCCC4)(C)C)O
> <PUBCHEM_CACTVS_TPSA>
144
> <PUBCHEM_MONOISOTOPIC_WEIGHT>
567.27669259
> <PUBCHEM_TOTAL_CHARGE>
0
> <PUBCHEM_HEAVY_ATOM_COUNT>
40
> <PUBCHEM_ATOM_DEF_STEREO_COUNT>
3
> <PUBCHEM_ATOM_UDEF_STEREO_COUNT>
0
> <PUBCHEM_BOND_DEF_STEREO_COUNT>
0
> <PUBCHEM_BOND_UDEF_STEREO_COUNT>
0
> <PUBCHEM_ISOTOPIC_ATOM_COUNT>
0
> <PUBCHEM_COMPONENT_COUNT>
1
> <PUBCHEM_CACTVS_TAUTO_COUNT>
-1
> <PUBCHEM_COORDINATE_TYPE>
1
5
255
> <PUBCHEM_BONDANNOTATIONS>
10  15  5
27  29  8
27  30  8
29  32  8
30  33  8
31  34  8
31  36  8
32  35  8
33  35  8
34  37  8
36  39  8
37  40  8
39  40  8
24  4  6
25  9  6
$$$$
