514419
  -OEChem-10302200282D
 79 82  0     1  0  0  0  0  0999 V2000
    9.7942   -1.0000    0.0000 S   0  0  0  0  0  0  0  0  0  0  0  0
    7.1962    0.5000    0.0000 O   0  0  0  0  0  0  0  0  0  0  0  0
    9.2942   -1.8660    0.0000 O   0  0  0  0  0  0  0  0  0  0  0  0
   10.2942   -0.1340    0.0000 O   0  0  0  0  0  0  0  0  0  0  0  0
   13.3385   -1.1953    0.0000 O   0  0  0  0  0  0  0  0  0  0  0  0
    6.3301    1.0000    0.0000 O   0  0  0  0  0  0  0  0  0  0  0  0
    4.5981    2.0000    0.0000 O   0  0  0  0  0  0  0  0  0  0  0  0
    8.9282   -0.5000    0.0000 N   0  0  3  0  0  0  0  0  0  0  0  0
    5.4641   -0.5000    0.0000 N   0  0  0  0  0  0  0  0  0  0  0  0
   13.3385   -2.8047    0.0000 N   0  0  0  0  0  0  0  0  0  0  0  0
   14.9221   -2.0000    0.0000 N   0  0  0  0  0  0  0  0  0  0  0  0
    2.0000    3.5000    0.0000 N   0  0  0  0  0  0  0  0  0  0  0  0
    7.1962   -0.5000    0.0000 C   0  0  2  0  0  0  0  0  0  0  0  0
    8.0622   -1.0000    0.0000 C   0  0  0  0  0  0  0  0  0  0  0  0
    6.3301   -1.0000    0.0000 C   0  0  2  0  0  0  0  0  0  0  0  0
    8.9282    0.5000    0.0000 C   0  0  0  0  0  0  0  0  0  0  0  0
    9.7942    1.0000    0.0000 C   0  0  0  0  0  0  0  0  0  0  0  0
    6.3301   -2.0000    0.0000 C   0  0  0  0  0  0  0  0  0  0  0  0
   10.6603   -1.5000    0.0000 C   0  0  0  0  0  0  0  0  0  0  0  0
    5.4641   -2.5000    0.0000 C   0  0  0  0  0  0  0  0  0  0  0  0
    9.7942    2.0000    0.0000 C   0  0  0  0  0  0  0  0  0  0  0  0
   10.6603    0.5000    0.0000 C   0  0  0  0  0  0  0  0  0  0  0  0
    5.4641    0.5000    0.0000 C   0  0  0  0  0  0  0  0  0  0  0  0
   11.5263   -1.0000    0.0000 C   0  0  0  0  0  0  0  0  0  0  0  0
   10.6603   -2.5000    0.0000 C   0  0  0  0  0  0  0  0  0  0  0  0
    5.4641   -3.5000    0.0000 C   0  0  0  0  0  0  0  0  0  0  0  0
    4.5981   -2.0000    0.0000 C   0  0  0  0  0  0  0  0  0  0  0  0
   12.3923   -1.5000    0.0000 C   0  0  0  0  0  0  0  0  0  0  0  0
    4.5981    1.0000    0.0000 C   0  0  0  0  0  0  0  0  0  0  0  0
   11.5263   -3.0000    0.0000 C   0  0  0  0  0  0  0  0  0  0  0  0
   12.3923   -2.5000    0.0000 C   0  0  0  0  0  0  0  0  0  0  0  0
    4.5981   -4.0000    0.0000 C   0  0  0  0  0  0  0  0  0  0  0  0
    3.7320   -2.5000    0.0000 C   0  0  0  0  0  0  0  0  0  0  0  0
    3.7320   -3.5000    0.0000 C   0  0  0  0  0  0  0  0  0  0  0  0
   13.9221   -2.0000    0.0000 C   0  0  0  0  0  0  0  0  0  0  0  0
    3.7320    2.5000    0.0000 C   0  0  0  0  0  0  0  0  0  0  0  0
    2.8660    2.0000    0.0000 C   0  0  0  0  0  0  0  0  0  0  0  0
    3.7320    3.5000    0.0000 C   0  0  0  0  0  0  0  0  0  0  0  0
    2.8660    1.0000    0.0000 C   0  0  0  0  0  0  0  0  0  0  0  0
    2.0000    2.5000    0.0000 C   0  0  0  0  0  0  0  0  0  0  0  0
    2.8660    4.0000    0.0000 C   0  0  0  0  0  0  0  0  0  0  0  0
    4.5981    4.0000    0.0000 C   0  0  0  0  0  0  0  0  0  0  0  0
    6.6592   -0.1900    0.0000 H   0  0  0  0  0  0  0  0  0  0  0  0
    7.6636   -1.4750    0.0000 H   0  0  0  0  0  0  0  0  0  0  0  0
    8.4607   -1.4750    0.0000 H   0  0  0  0  0  0  0  0  0  0  0  0
    5.7932   -1.3100    0.0000 H   0  0  0  0  0  0  0  0  0  0  0  0
    8.7162    1.0826    0.0000 H   0  0  0  0  0  0  0  0  0  0  0  0
    8.3176    0.3923    0.0000 H   0  0  0  0  0  0  0  0  0  0  0  0
    9.2573    1.3100    0.0000 H   0  0  0  0  0  0  0  0  0  0  0  0
    6.5422   -2.5826    0.0000 H   0  0  0  0  0  0  0  0  0  0  0  0
    6.9407   -1.8923    0.0000 H   0  0  0  0  0  0  0  0  0  0  0  0
    4.9272   -0.8100    0.0000 H   0  0  0  0  0  0  0  0  0  0  0  0
   10.4142    2.0000    0.0000 H   0  0  0  0  0  0  0  0  0  0  0  0
    9.7942    2.6200    0.0000 H   0  0  0  0  0  0  0  0  0  0  0  0
    9.1742    2.0000    0.0000 H   0  0  0  0  0  0  0  0  0  0  0  0
   10.3503   -0.0369    0.0000 H   0  0  0  0  0  0  0  0  0  0  0  0
   11.1972    0.1900    0.0000 H   0  0  0  0  0  0  0  0  0  0  0  0
   10.9703    1.0369    0.0000 H   0  0  0  0  0  0  0  0  0  0  0  0
    7.7331    0.8100    0.0000 H   0  0  0  0  0  0  0  0  0  0  0  0
   11.5263   -0.3800    0.0000 H   0  0  0  0  0  0  0  0  0  0  0  0
   10.1233   -2.8100    0.0000 H   0  0  0  0  0  0  0  0  0  0  0  0
    6.0010   -3.8100    0.0000 H   0  0  0  0  0  0  0  0  0  0  0  0
    4.5981   -1.3800    0.0000 H   0  0  0  0  0  0  0  0  0  0  0  0
    3.9875    1.1077    0.0000 H   0  0  0  0  0  0  0  0  0  0  0  0
    4.3860    0.4174    0.0000 H   0  0  0  0  0  0  0  0  0  0  0  0
   11.5263   -3.6200    0.0000 H   0  0  0  0  0  0  0  0  0  0  0  0
    4.5981   -4.6200    0.0000 H   0  0  0  0  0  0  0  0  0  0  0  0
    3.1951   -2.1900    0.0000 H   0  0  0  0  0  0  0  0  0  0  0  0
    3.1951   -3.8100    0.0000 H   0  0  0  0  0  0  0  0  0  0  0  0
   15.2321   -2.5369    0.0000 H   0  0  0  0  0  0  0  0  0  0  0  0
   15.2321   -1.4631    0.0000 H   0  0  0  0  0  0  0  0  0  0  0  0
    2.2460    1.0000    0.0000 H   0  0  0  0  0  0  0  0  0  0  0  0
    2.8660    0.3800    0.0000 H   0  0  0  0  0  0  0  0  0  0  0  0
    3.4860    1.0000    0.0000 H   0  0  0  0  0  0  0  0  0  0  0  0
    1.4631    2.1900    0.0000 H   0  0  0  0  0  0  0  0  0  0  0  0
    2.8660    4.6200    0.0000 H   0  0  0  0  0  0  0  0  0  0  0  0
    4.9081    3.4631    0.0000 H   0  0  0  0  0  0  0  0  0  0  0  0
    5.1350    4.3100    0.0000 H   0  0  0  0  0  0  0  0  0  0  0  0
    4.2881    4.5369    0.0000 H   0  0  0  0  0  0  0  0  0  0  0  0
  1  3  2  0  0  0  0
  1  4  2  0  0  0  0
  1  8  1  0  0  0  0
  1 19  1  0  0  0  0
 13  2  1  6  0  0  0
  2 59  1  0  0  0  0
  5 28  1  0  0  0  0
  5 35  1  0  0  0  0
  6 23  2  0  0  0  0
  7 29  1  0  0  0  0
  7 36  1  0  0  0  0
  8 14  1  0  0  0  0
  8 16  1  0  0  0  0
 15  9  1  6  0  0  0
  9 23  1  0  0  0  0
  9 52  1  0  0  0  0
 10 31  1  0  0  0  0
 10 35  2  0  0  0  0
 11 35  1  0  0  0  0
 11 70  1  0  0  0  0
 11 71  1  0  0  0  0
 12 40  2  0  0  0  0
 12 41  1  0  0  0  0
 13 14  1  0  0  0  0
 13 15  1  0  0  0  0
 13 43  1  0  0  0  0
 14 44  1  0  0  0  0
 14 45  1  0  0  0  0
 15 18  1  0  0  0  0
 15 46  1  0  0  0  0
 16 17  1  0  0  0  0
 16 47  1  0  0  0  0
 16 48  1  0  0  0  0
 17 21  1  0  0  0  0
 17 22  1  0  0  0  0
 17 49  1  0  0  0  0
 18 20  1  0  0  0  0
 18 50  1  0  0  0  0
 18 51  1  0  0  0  0
 19 24  2  0  0  0  0
 19 25  1  0  0  0  0
 20 26  2  0  0  0  0
 20 27  1  0  0  0  0
 21 53  1  0  0  0  0
 21 54  1  0  0  0  0
 21 55  1  0  0  0  0
 22 56  1  0  0  0  0
 22 57  1  0  0  0  0
 22 58  1  0  0  0  0
 23 29  1  0  0  0  0
 24 28  1  0  0  0  0
 24 60  1  0  0  0  0
 25 30  2  0  0  0  0
 25 61  1  0  0  0  0
 26 32  1  0  0  0  0
 26 62  1  0  0  0  0
 27 33  2  0  0  0  0
 27 63  1  0  0  0  0
 28 31  2  0  0  0  0
 29 64  1  0  0  0  0
 29 65  1  0  0  0  0
 30 31  1  0  0  0  0
 30 66  1  0  0  0  0
 32 34  2  0  0  0  0
 32 67  1  0  0  0  0
 33 34  1  0  0  0  0
 33 68  1  0  0  0  0
 34 69  1  0  0  0  0
 36 37  2  0  0  0  0
 36 38  1  0  0  0  0
 37 39  1  0  0  0  0
 37 40  1  0  0  0  0
 38 41  2  0  0  0  0
 38 42  1  0  0  0  0
 39 72  1  0  0  0  0
 39 73  1  0  0  0  0
 39 74  1  0  0  0  0
 40 75  1  0  0  0  0
 41 76  1  0  0  0  0
 42 77  1  0  0  0  0
 42 78  1  0  0  0  0
 42 79  1  0  0  0  0
M  END
> <PUBCHEM_COMPOUND_CID>
514419
> <PUBCHEM_COMPOUND_CANONICALIZED>
1
> <PUBCHEM_CACTVS_COMPLEXITY>
948
> <PUBCHEM_CACTVS_HBOND_ACCEPTOR>
10
> <PUBCHEM_CACTVS_HBOND_DONOR>
3
> <PUBCHEM_CACTVS_ROTATABLE_BOND>
13
> <PUBCHEM_CACTVS_SUBSKEYS>
AAADcfB7uABAAAAAAAAAAAAAAAAAAWAAAAA8YIAAAAAAAFgB/AAAHgQQSAAADTzh3gY/17LIFkKoA7V3dHbCiDk/YiAI2Ln/bNmONvLE9b+PeSjm1hvY6aeYyKAOAAQABAAAEAAACAAIAAAgAAAAAAAAAA==
> <PUBCHEM_IUPAC_OPENEYE_NAME>
N-[(1S,2R)-3-[(2-amino-1,3-benzoxazol-6-yl)sulfonyl-isobutyl-amino]-1-benzyl-2-hydroxy-propyl]-2-[(3,5-dimethyl-4-pyridyl)oxy]acetamide
> <PUBCHEM_IUPAC_CAS_NAME>
N-[(2S,3R)-4-[(2-amino-1,3-benzoxazol-6-yl)sulfonyl-(2-methylpropyl)amino]-3-hydroxy-1-phenylbutan-2-yl]-2-[(3,5-dimethyl-4-pyridinyl)oxy]acetamide
> <PUBCHEM_IUPAC_NAME_MARKUP>
<I>N</I>-[(2<I>S</I>,3<I>R</I>)-4-[(2-amino-1,3-benzoxazol-6-yl)sulfonyl-(2-methylpropyl)amino]-3-hydroxy-1-phenylbutan-2-yl]-2-(3,5-dimethylpyridin-4-yl)oxyacetamide
> <PUBCHEM_IUPAC_NAME>
N-[(2S,3R)-4-[(2-amino-1,3-benzoxazol-6-yl)sulfonyl-(2-methylpropyl)amino]-3-hydroxy-1-phenylbutan-2-yl]-2-(3,5-dimethylpyridin-4-yl)oxyacetamide
> <PUBCHEM_IUPAC_SYSTEMATIC_NAME>
N-[(2S,3R)-4-[(2-azanyl-1,3-benzoxazol-6-yl)sulfonyl-(2-methylpropyl)amino]-3-oxidanyl-1-phenyl-butan-2-yl]-2-(3,5-dimethylpyridin-4-yl)oxy-ethanamide
> <PUBCHEM_IUPAC_TRADITIONAL_NAME>
N-[(1S,2R)-3-[(2-amino-1,3-benzoxazol-6-yl)sulfonyl-isobutyl-amino]-1-benzyl-2-hydroxy-propyl]-2-[(3,5-dimethyl-4-pyridyl)oxy]acetamide
> <PUBCHEM_IUPAC_INCHI>
InChI=1S/C30H37N5O6S/c1-19(2)16-35(42(38,39)23-10-11-24-27(13-23)41-30(31)34-24)17-26(36)25(12-22-8-6-5-7-9-22)33-28(37)18-40-29-20(3)14-32-15-21(29)4/h5-11,13-15,19,25-26,36H,12,16-18H2,1-4H3,(H2,31,34)(H,33,37)/t25-,26+/m0/s1
> <PUBCHEM_IUPAC_INCHIKEY>
BTUMGKPONVPVRG-IZZNHLLZSA-N
> <PUBCHEM_XLOGP3_AA>
4
> <PUBCHEM_EXACT_MASS>
595.24645509
> <PUBCHEM_MOLECULAR_FORMULA>
C30H37N5O6S
> <PUBCHEM_MOLECULAR_WEIGHT>
595.7
> <PUBCHEM_OPENEYE_CAN_SMILES>
CC1=CN=CC(=C1OCC(=O)NC(CC2=CC=CC=C2)C(CN(CC(C)C)S(=O)(=O)C3=CC4=C(C=C3)N=C(O4)N)O)C
> <PUBCHEM_OPENEYE_ISO_SMILES>
CC1=CN=CC(=C1OCC(=O)N[C@@H](CC2=CC=CC=C2)[C@@H](CN(CC(C)C)S(=O)(=O)C3=CC4=C(C=C3)N=C(O4)N)O)C
> <PUBCHEM_CACTVS_TPSA>
169
> <PUBCHEM_MONOISOTOPIC_WEIGHT>
595.24645509
> <PUBCHEM_TOTAL_CHARGE>
0
> <PUBCHEM_HEAVY_ATOM_COUNT>
42
> <PUBCHEM_ATOM_DEF_STEREO_COUNT>
2
> <PUBCHEM_ATOM_UDEF_STEREO_COUNT>
0
> <PUBCHEM_BOND_DEF_STEREO_COUNT>
0
> <PUBCHEM_BOND_UDEF_STEREO_COUNT>
0
> <PUBCHEM_ISOTOPIC_ATOM_COUNT>
0
> <PUBCHEM_COMPONENT_COUNT>
1
> <PUBCHEM_CACTVS_TAUTO_COUNT>
-1
> <PUBCHEM_COORDINATE_TYPE>
1
5
255
> <PUBCHEM_BONDANNOTATIONS>
10  31  8
10  35  8
12  40  8
12  41  8
19  24  8
19  25  8
13  2  6
20  26  8
20  27  8
24  28  8
25  30  8
26  32  8
27  33  8
28  31  8
30  31  8
32  34  8
33  34  8
36  37  8
36  38  8
37  40  8
38  41  8
5  28  8
5  35  8
15  9  6
$$$$
