514401
  -OEChem-10302200282D
 78 81  0     1  0  0  0  0  0999 V2000
    8.9282   -0.9050    0.0000 S   0  0  0  0  0  0  0  0  0  0  0  0
    6.3301    0.5950    0.0000 O   0  0  0  0  0  0  0  0  0  0  0  0
    8.4282   -1.7710    0.0000 O   0  0  0  0  0  0  0  0  0  0  0  0
    9.4282   -0.0390    0.0000 O   0  0  0  0  0  0  0  0  0  0  0  0
   12.4725   -1.1003    0.0000 O   0  0  0  0  0  0  0  0  0  0  0  0
    5.4641    1.0950    0.0000 O   0  0  0  0  0  0  0  0  0  0  0  0
    8.0622   -0.4050    0.0000 N   0  0  3  0  0  0  0  0  0  0  0  0
    4.5981   -0.4050    0.0000 N   0  0  0  0  0  0  0  0  0  0  0  0
   12.4725   -2.7097    0.0000 N   0  0  0  0  0  0  0  0  0  0  0  0
   14.0561   -1.9050    0.0000 N   0  0  0  0  0  0  0  0  0  0  0  0
    2.8660    3.5950    0.0000 N   0  0  0  0  0  0  0  0  0  0  0  0
    6.3301   -0.4050    0.0000 C   0  0  1  0  0  0  0  0  0  0  0  0
    5.4641   -0.9050    0.0000 C   0  0  2  0  0  0  0  0  0  0  0  0
    7.1962   -0.9050    0.0000 C   0  0  0  0  0  0  0  0  0  0  0  0
    8.0622    0.5950    0.0000 C   0  0  0  0  0  0  0  0  0  0  0  0
    8.9282    1.0950    0.0000 C   0  0  0  0  0  0  0  0  0  0  0  0
    5.4641   -1.9050    0.0000 C   0  0  0  0  0  0  0  0  0  0  0  0
    9.7942   -1.4050    0.0000 C   0  0  0  0  0  0  0  0  0  0  0  0
    4.5981   -2.4050    0.0000 C   0  0  0  0  0  0  0  0  0  0  0  0
    8.9282    2.0950    0.0000 C   0  0  0  0  0  0  0  0  0  0  0  0
    9.7942    0.5950    0.0000 C   0  0  0  0  0  0  0  0  0  0  0  0
    4.5981    0.5950    0.0000 C   0  0  0  0  0  0  0  0  0  0  0  0
   10.6603   -0.9050    0.0000 C   0  0  0  0  0  0  0  0  0  0  0  0
    9.7942   -2.4050    0.0000 C   0  0  0  0  0  0  0  0  0  0  0  0
    4.5981   -3.4050    0.0000 C   0  0  0  0  0  0  0  0  0  0  0  0
    3.7320   -1.9050    0.0000 C   0  0  0  0  0  0  0  0  0  0  0  0
    3.7320    1.0950    0.0000 C   0  0  0  0  0  0  0  0  0  0  0  0
   11.5263   -1.4050    0.0000 C   0  0  0  0  0  0  0  0  0  0  0  0
   10.6603   -2.9050    0.0000 C   0  0  0  0  0  0  0  0  0  0  0  0
   11.5263   -2.4050    0.0000 C   0  0  0  0  0  0  0  0  0  0  0  0
    3.7320   -3.9050    0.0000 C   0  0  0  0  0  0  0  0  0  0  0  0
    2.8660   -2.4050    0.0000 C   0  0  0  0  0  0  0  0  0  0  0  0
    3.7320    2.0950    0.0000 C   0  0  0  0  0  0  0  0  0  0  0  0
    2.8660   -3.4050    0.0000 C   0  0  0  0  0  0  0  0  0  0  0  0
    2.8660    0.5950    0.0000 C   0  0  0  0  0  0  0  0  0  0  0  0
    2.8660    2.5950    0.0000 C   0  0  0  0  0  0  0  0  0  0  0  0
   13.0561   -1.9050    0.0000 C   0  0  0  0  0  0  0  0  0  0  0  0
    4.5981    2.5950    0.0000 C   0  0  0  0  0  0  0  0  0  0  0  0
    2.0000    1.0950    0.0000 C   0  0  0  0  0  0  0  0  0  0  0  0
    2.0000    2.0950    0.0000 C   0  0  0  0  0  0  0  0  0  0  0  0
   14.5561   -2.7710    0.0000 C   0  0  0  0  0  0  0  0  0  0  0  0
    6.8671   -0.0950    0.0000 H   0  0  0  0  0  0  0  0  0  0  0  0
    5.4641   -0.2850    0.0000 H   0  0  0  0  0  0  0  0  0  0  0  0
    6.7976   -1.3800    0.0000 H   0  0  0  0  0  0  0  0  0  0  0  0
    7.5947   -1.3800    0.0000 H   0  0  0  0  0  0  0  0  0  0  0  0
    7.8501    1.1776    0.0000 H   0  0  0  0  0  0  0  0  0  0  0  0
    7.4516    0.4873    0.0000 H   0  0  0  0  0  0  0  0  0  0  0  0
    9.4651    1.4050    0.0000 H   0  0  0  0  0  0  0  0  0  0  0  0
    5.6762   -2.4876    0.0000 H   0  0  0  0  0  0  0  0  0  0  0  0
    6.0747   -1.7973    0.0000 H   0  0  0  0  0  0  0  0  0  0  0  0
    4.0611   -0.7150    0.0000 H   0  0  0  0  0  0  0  0  0  0  0  0
    9.5482    2.0950    0.0000 H   0  0  0  0  0  0  0  0  0  0  0  0
    8.9282    2.7150    0.0000 H   0  0  0  0  0  0  0  0  0  0  0  0
    8.3082    2.0950    0.0000 H   0  0  0  0  0  0  0  0  0  0  0  0
    9.4842    0.0581    0.0000 H   0  0  0  0  0  0  0  0  0  0  0  0
   10.3312    0.2850    0.0000 H   0  0  0  0  0  0  0  0  0  0  0  0
   10.1042    1.1319    0.0000 H   0  0  0  0  0  0  0  0  0  0  0  0
    6.8671    0.9050    0.0000 H   0  0  0  0  0  0  0  0  0  0  0  0
   10.6603   -0.2850    0.0000 H   0  0  0  0  0  0  0  0  0  0  0  0
    9.2573   -2.7150    0.0000 H   0  0  0  0  0  0  0  0  0  0  0  0
    5.1350   -3.7150    0.0000 H   0  0  0  0  0  0  0  0  0  0  0  0
    3.7320   -1.2850    0.0000 H   0  0  0  0  0  0  0  0  0  0  0  0
   10.6603   -3.5250    0.0000 H   0  0  0  0  0  0  0  0  0  0  0  0
    3.7320   -4.5250    0.0000 H   0  0  0  0  0  0  0  0  0  0  0  0
    2.3291   -2.0950    0.0000 H   0  0  0  0  0  0  0  0  0  0  0  0
    2.3291   -3.7150    0.0000 H   0  0  0  0  0  0  0  0  0  0  0  0
    2.8660   -0.0250    0.0000 H   0  0  0  0  0  0  0  0  0  0  0  0
    4.9081    2.0581    0.0000 H   0  0  0  0  0  0  0  0  0  0  0  0
    5.1350    2.9050    0.0000 H   0  0  0  0  0  0  0  0  0  0  0  0
    4.2881    3.1319    0.0000 H   0  0  0  0  0  0  0  0  0  0  0  0
    1.4631    0.7850    0.0000 H   0  0  0  0  0  0  0  0  0  0  0  0
    1.4631    2.4050    0.0000 H   0  0  0  0  0  0  0  0  0  0  0  0
   14.3661   -1.3681    0.0000 H   0  0  0  0  0  0  0  0  0  0  0  0
    2.3291    3.9050    0.0000 H   0  0  0  0  0  0  0  0  0  0  0  0
    3.4030    3.9050    0.0000 H   0  0  0  0  0  0  0  0  0  0  0  0
   14.0192   -3.0810    0.0000 H   0  0  0  0  0  0  0  0  0  0  0  0
   14.8661   -3.3080    0.0000 H   0  0  0  0  0  0  0  0  0  0  0  0
   15.0930   -2.4610    0.0000 H   0  0  0  0  0  0  0  0  0  0  0  0
  1  3  2  0  0  0  0
  1  4  2  0  0  0  0
  1  7  1  0  0  0  0
  1 18  1  0  0  0  0
 12  2  1  6  0  0  0
  2 58  1  0  0  0  0
  5 28  1  0  0  0  0
  5 37  1  0  0  0  0
  6 22  2  0  0  0  0
  7 14  1  0  0  0  0
  7 15  1  0  0  0  0
 13  8  1  6  0  0  0
  8 22  1  0  0  0  0
  8 51  1  0  0  0  0
  9 30  1  0  0  0  0
  9 37  2  0  0  0  0
 10 37  1  0  0  0  0
 10 41  1  0  0  0  0
 10 73  1  0  0  0  0
 11 36  1  0  0  0  0
 11 74  1  0  0  0  0
 11 75  1  0  0  0  0
 12 13  1  0  0  0  0
 12 14  1  0  0  0  0
 12 42  1  0  0  0  0
 13 17  1  0  0  0  0
 13 43  1  0  0  0  0
 14 44  1  0  0  0  0
 14 45  1  0  0  0  0
 15 16  1  0  0  0  0
 15 46  1  0  0  0  0
 15 47  1  0  0  0  0
 16 20  1  0  0  0  0
 16 21  1  0  0  0  0
 16 48  1  0  0  0  0
 17 19  1  0  0  0  0
 17 49  1  0  0  0  0
 17 50  1  0  0  0  0
 18 23  2  0  0  0  0
 18 24  1  0  0  0  0
 19 25  2  0  0  0  0
 19 26  1  0  0  0  0
 20 52  1  0  0  0  0
 20 53  1  0  0  0  0
 20 54  1  0  0  0  0
 21 55  1  0  0  0  0
 21 56  1  0  0  0  0
 21 57  1  0  0  0  0
 22 27  1  0  0  0  0
 23 28  1  0  0  0  0
 23 59  1  0  0  0  0
 24 29  2  0  0  0  0
 24 60  1  0  0  0  0
 25 31  1  0  0  0  0
 25 61  1  0  0  0  0
 26 32  2  0  0  0  0
 26 62  1  0  0  0  0
 27 33  2  0  0  0  0
 27 35  1  0  0  0  0
 28 30  2  0  0  0  0
 29 30  1  0  0  0  0
 29 63  1  0  0  0  0
 31 34  2  0  0  0  0
 31 64  1  0  0  0  0
 32 34  1  0  0  0  0
 32 65  1  0  0  0  0
 33 36  1  0  0  0  0
 33 38  1  0  0  0  0
 34 66  1  0  0  0  0
 35 39  2  0  0  0  0
 35 67  1  0  0  0  0
 36 40  2  0  0  0  0
 38 68  1  0  0  0  0
 38 69  1  0  0  0  0
 38 70  1  0  0  0  0
 39 40  1  0  0  0  0
 39 71  1  0  0  0  0
 40 72  1  0  0  0  0
 41 76  1  0  0  0  0
 41 77  1  0  0  0  0
 41 78  1  0  0  0  0
M  END
> <PUBCHEM_COMPOUND_CID>
514401
> <PUBCHEM_COMPOUND_CANONICALIZED>
1
> <PUBCHEM_CACTVS_COMPLEXITY>
940
> <PUBCHEM_CACTVS_HBOND_ACCEPTOR>
9
> <PUBCHEM_CACTVS_HBOND_DONOR>
4
> <PUBCHEM_CACTVS_ROTATABLE_BOND>
12
> <PUBCHEM_CACTVS_SUBSKEYS>
AAADcfB7uABAAAAAAAAAAAAAAAAAAWAAAAAwYMAAAAAAAFgB9AAAHgQQSAAADTzh3gYz17LIFkKoA6VydHTCiDkvYiAJmLm/bNmONrLE9buNcShs1hPY6aecyKCOgAQARAASEAAACACIACQgAAAAAAAAAA==
> <PUBCHEM_IUPAC_OPENEYE_NAME>
3-amino-N-[(1S,2R)-1-benzyl-2-hydroxy-3-[isobutyl-[[2-(methylamino)-1,3-benzoxazol-6-yl]sulfonyl]amino]propyl]-2-methyl-benzamide
> <PUBCHEM_IUPAC_CAS_NAME>
3-amino-N-[(2S,3R)-3-hydroxy-4-[[2-(methylamino)-1,3-benzoxazol-6-yl]sulfonyl-(2-methylpropyl)amino]-1-phenylbutan-2-yl]-2-methylbenzamide
> <PUBCHEM_IUPAC_NAME_MARKUP>
3-amino-<I>N</I>-[(2<I>S</I>,3<I>R</I>)-3-hydroxy-4-[[2-(methylamino)-1,3-benzoxazol-6-yl]sulfonyl-(2-methylpropyl)amino]-1-phenylbutan-2-yl]-2-methylbenzamide
> <PUBCHEM_IUPAC_NAME>
3-amino-N-[(2S,3R)-3-hydroxy-4-[[2-(methylamino)-1,3-benzoxazol-6-yl]sulfonyl-(2-methylpropyl)amino]-1-phenylbutan-2-yl]-2-methylbenzamide
> <PUBCHEM_IUPAC_SYSTEMATIC_NAME>
3-azanyl-2-methyl-N-[(2S,3R)-4-[[2-(methylamino)-1,3-benzoxazol-6-yl]sulfonyl-(2-methylpropyl)amino]-3-oxidanyl-1-phenyl-butan-2-yl]benzamide
> <PUBCHEM_IUPAC_TRADITIONAL_NAME>
3-amino-N-[(1S,2R)-1-benzyl-2-hydroxy-3-[isobutyl-[[2-(methylamino)-1,3-benzoxazol-6-yl]sulfonyl]amino]propyl]-2-methyl-benzamide
> <PUBCHEM_IUPAC_INCHI>
InChI=1S/C30H37N5O5S/c1-19(2)17-35(41(38,39)22-13-14-25-28(16-22)40-30(32-4)34-25)18-27(36)26(15-21-9-6-5-7-10-21)33-29(37)23-11-8-12-24(31)20(23)3/h5-14,16,19,26-27,36H,15,17-18,31H2,1-4H3,(H,32,34)(H,33,37)/t26-,27+/m0/s1
> <PUBCHEM_IUPAC_INCHIKEY>
ZXSFPPGVNIRPKU-RRPNLBNLSA-N
> <PUBCHEM_XLOGP3_AA>
4.6
> <PUBCHEM_EXACT_MASS>
579.25154047
> <PUBCHEM_MOLECULAR_FORMULA>
C30H37N5O5S
> <PUBCHEM_MOLECULAR_WEIGHT>
579.7
> <PUBCHEM_OPENEYE_CAN_SMILES>
CC1=C(C=CC=C1N)C(=O)NC(CC2=CC=CC=C2)C(CN(CC(C)C)S(=O)(=O)C3=CC4=C(C=C3)N=C(O4)NC)O
> <PUBCHEM_OPENEYE_ISO_SMILES>
CC1=C(C=CC=C1N)C(=O)N[C@@H](CC2=CC=CC=C2)[C@@H](CN(CC(C)C)S(=O)(=O)C3=CC4=C(C=C3)N=C(O4)NC)O
> <PUBCHEM_CACTVS_TPSA>
159
> <PUBCHEM_MONOISOTOPIC_WEIGHT>
579.25154047
> <PUBCHEM_TOTAL_CHARGE>
0
> <PUBCHEM_HEAVY_ATOM_COUNT>
41
> <PUBCHEM_ATOM_DEF_STEREO_COUNT>
2
> <PUBCHEM_ATOM_UDEF_STEREO_COUNT>
0
> <PUBCHEM_BOND_DEF_STEREO_COUNT>
0
> <PUBCHEM_BOND_UDEF_STEREO_COUNT>
0
> <PUBCHEM_ISOTOPIC_ATOM_COUNT>
0
> <PUBCHEM_COMPONENT_COUNT>
1
> <PUBCHEM_CACTVS_TAUTO_COUNT>
-1
> <PUBCHEM_COORDINATE_TYPE>
1
5
255
> <PUBCHEM_BONDANNOTATIONS>
18  23  8
18  24  8
19  25  8
19  26  8
12  2  6
23  28  8
24  29  8
25  31  8
26  32  8
27  33  8
27  35  8
28  30  8
29  30  8
31  34  8
32  34  8
33  36  8
35  39  8
36  40  8
39  40  8
5  28  8
5  37  8
13  8  6
9  30  8
9  37  8
$$$$
