514407
  -OEChem-10302200282D
 80 83  0     1  0  0  0  0  0999 V2000
   11.1972   -1.3100    0.0000 S   0  0  0  0  0  0  0  0  0  0  0  0
    8.5991    0.1900    0.0000 O   0  0  0  0  0  0  0  0  0  0  0  0
   10.6972   -2.1760    0.0000 O   0  0  0  0  0  0  0  0  0  0  0  0
   11.6972   -0.4440    0.0000 O   0  0  0  0  0  0  0  0  0  0  0  0
   14.7415   -1.5053    0.0000 O   0  0  0  0  0  0  0  0  0  0  0  0
    7.7331    0.6900    0.0000 O   0  0  0  0  0  0  0  0  0  0  0  0
    6.0010    1.6900    0.0000 O   0  0  0  0  0  0  0  0  0  0  0  0
   10.3312   -0.8100    0.0000 N   0  0  3  0  0  0  0  0  0  0  0  0
    6.8671   -0.8100    0.0000 N   0  0  0  0  0  0  0  0  0  0  0  0
   14.7415   -3.1147    0.0000 N   0  0  0  0  0  0  0  0  0  0  0  0
   16.3251   -2.3100    0.0000 N   0  0  0  0  0  0  0  0  0  0  0  0
    3.4030    2.1900    0.0000 N   0  0  0  0  0  0  0  0  0  0  0  0
    4.2690    3.6900    0.0000 N   0  0  0  0  0  0  0  0  0  0  0  0
    2.5369    3.6900    0.0000 N   0  0  0  0  0  0  0  0  0  0  0  0
    8.5991   -0.8100    0.0000 C   0  0  2  0  0  0  0  0  0  0  0  0
    9.4651   -1.3100    0.0000 C   0  0  0  0  0  0  0  0  0  0  0  0
    7.7331   -1.3100    0.0000 C   0  0  2  0  0  0  0  0  0  0  0  0
   10.3312    0.1900    0.0000 C   0  0  0  0  0  0  0  0  0  0  0  0
   11.1972    0.6900    0.0000 C   0  0  0  0  0  0  0  0  0  0  0  0
    7.7331   -2.3100    0.0000 C   0  0  0  0  0  0  0  0  0  0  0  0
   12.0632   -1.8100    0.0000 C   0  0  0  0  0  0  0  0  0  0  0  0
    6.8671   -2.8100    0.0000 C   0  0  0  0  0  0  0  0  0  0  0  0
   11.1972    1.6900    0.0000 C   0  0  0  0  0  0  0  0  0  0  0  0
   12.0632    0.1900    0.0000 C   0  0  0  0  0  0  0  0  0  0  0  0
    6.8671    0.1900    0.0000 C   0  0  0  0  0  0  0  0  0  0  0  0
   12.9292   -1.3100    0.0000 C   0  0  0  0  0  0  0  0  0  0  0  0
   12.0632   -2.8100    0.0000 C   0  0  0  0  0  0  0  0  0  0  0  0
    6.8671   -3.8100    0.0000 C   0  0  0  0  0  0  0  0  0  0  0  0
    6.0010   -2.3100    0.0000 C   0  0  0  0  0  0  0  0  0  0  0  0
   13.7953   -1.8100    0.0000 C   0  0  0  0  0  0  0  0  0  0  0  0
    6.0010    0.6900    0.0000 C   0  0  0  0  0  0  0  0  0  0  0  0
   12.9292   -3.3100    0.0000 C   0  0  0  0  0  0  0  0  0  0  0  0
   13.7953   -2.8100    0.0000 C   0  0  0  0  0  0  0  0  0  0  0  0
    6.0010   -4.3100    0.0000 C   0  0  0  0  0  0  0  0  0  0  0  0
    5.1350   -2.8100    0.0000 C   0  0  0  0  0  0  0  0  0  0  0  0
    5.1350   -3.8100    0.0000 C   0  0  0  0  0  0  0  0  0  0  0  0
   15.3251   -2.3100    0.0000 C   0  0  0  0  0  0  0  0  0  0  0  0
    5.1350    2.1900    0.0000 C   0  0  0  0  0  0  0  0  0  0  0  0
    4.2690    1.6900    0.0000 C   0  0  0  0  0  0  0  0  0  0  0  0
    5.1350    3.1900    0.0000 C   0  0  0  0  0  0  0  0  0  0  0  0
    4.2690    0.6900    0.0000 C   0  0  0  0  0  0  0  0  0  0  0  0
    6.0010    3.6900    0.0000 C   0  0  0  0  0  0  0  0  0  0  0  0
    3.4030    3.1900    0.0000 C   0  0  0  0  0  0  0  0  0  0  0  0
    8.0622   -0.5000    0.0000 H   0  0  0  0  0  0  0  0  0  0  0  0
    9.0666   -1.7850    0.0000 H   0  0  0  0  0  0  0  0  0  0  0  0
    9.8637   -1.7850    0.0000 H   0  0  0  0  0  0  0  0  0  0  0  0
    7.7331   -0.6900    0.0000 H   0  0  0  0  0  0  0  0  0  0  0  0
   10.1191    0.7726    0.0000 H   0  0  0  0  0  0  0  0  0  0  0  0
    9.7206    0.0823    0.0000 H   0  0  0  0  0  0  0  0  0  0  0  0
   10.6603    1.0000    0.0000 H   0  0  0  0  0  0  0  0  0  0  0  0
    7.9451   -2.8926    0.0000 H   0  0  0  0  0  0  0  0  0  0  0  0
    8.3437   -2.2023    0.0000 H   0  0  0  0  0  0  0  0  0  0  0  0
    6.3301   -1.1200    0.0000 H   0  0  0  0  0  0  0  0  0  0  0  0
   11.8172    1.6900    0.0000 H   0  0  0  0  0  0  0  0  0  0  0  0
   11.1972    2.3100    0.0000 H   0  0  0  0  0  0  0  0  0  0  0  0
   10.5772    1.6900    0.0000 H   0  0  0  0  0  0  0  0  0  0  0  0
   11.7532   -0.3469    0.0000 H   0  0  0  0  0  0  0  0  0  0  0  0
   12.6002   -0.1200    0.0000 H   0  0  0  0  0  0  0  0  0  0  0  0
   12.3732    0.7269    0.0000 H   0  0  0  0  0  0  0  0  0  0  0  0
    9.1360    0.5000    0.0000 H   0  0  0  0  0  0  0  0  0  0  0  0
   12.9292   -0.6900    0.0000 H   0  0  0  0  0  0  0  0  0  0  0  0
   11.5263   -3.1200    0.0000 H   0  0  0  0  0  0  0  0  0  0  0  0
    7.4040   -4.1200    0.0000 H   0  0  0  0  0  0  0  0  0  0  0  0
    6.0010   -1.6900    0.0000 H   0  0  0  0  0  0  0  0  0  0  0  0
    5.3905    0.7977    0.0000 H   0  0  0  0  0  0  0  0  0  0  0  0
    5.7890    0.1074    0.0000 H   0  0  0  0  0  0  0  0  0  0  0  0
   12.9292   -3.9300    0.0000 H   0  0  0  0  0  0  0  0  0  0  0  0
    6.0010   -4.9300    0.0000 H   0  0  0  0  0  0  0  0  0  0  0  0
    4.5981   -2.5000    0.0000 H   0  0  0  0  0  0  0  0  0  0  0  0
    4.5981   -4.1200    0.0000 H   0  0  0  0  0  0  0  0  0  0  0  0
   16.6351   -2.8469    0.0000 H   0  0  0  0  0  0  0  0  0  0  0  0
   16.6351   -1.7731    0.0000 H   0  0  0  0  0  0  0  0  0  0  0  0
    3.6490    0.6900    0.0000 H   0  0  0  0  0  0  0  0  0  0  0  0
    4.2690    0.0700    0.0000 H   0  0  0  0  0  0  0  0  0  0  0  0
    4.8890    0.6900    0.0000 H   0  0  0  0  0  0  0  0  0  0  0  0
    6.3110    3.1531    0.0000 H   0  0  0  0  0  0  0  0  0  0  0  0
    6.5380    4.0000    0.0000 H   0  0  0  0  0  0  0  0  0  0  0  0
    5.6910    4.2269    0.0000 H   0  0  0  0  0  0  0  0  0  0  0  0
    2.5369    4.3100    0.0000 H   0  0  0  0  0  0  0  0  0  0  0  0
    2.0000    3.3800    0.0000 H   0  0  0  0  0  0  0  0  0  0  0  0
  1  3  2  0  0  0  0
  1  4  2  0  0  0  0
  1  8  1  0  0  0  0
  1 21  1  0  0  0  0
 15  2  1  6  0  0  0
  2 60  1  0  0  0  0
  5 30  1  0  0  0  0
  5 37  1  0  0  0  0
  6 25  2  0  0  0  0
  7 31  1  0  0  0  0
  7 38  1  0  0  0  0
  8 16  1  0  0  0  0
  8 18  1  0  0  0  0
 17  9  1  6  0  0  0
  9 25  1  0  0  0  0
  9 53  1  0  0  0  0
 10 33  1  0  0  0  0
 10 37  2  0  0  0  0
 11 37  1  0  0  0  0
 11 71  1  0  0  0  0
 11 72  1  0  0  0  0
 12 39  2  0  0  0  0
 12 43  1  0  0  0  0
 13 40  1  0  0  0  0
 13 43  2  0  0  0  0
 14 43  1  0  0  0  0
 14 79  1  0  0  0  0
 14 80  1  0  0  0  0
 15 16  1  0  0  0  0
 15 17  1  0  0  0  0
 15 44  1  0  0  0  0
 16 45  1  0  0  0  0
 16 46  1  0  0  0  0
 17 20  1  0  0  0  0
 17 47  1  0  0  0  0
 18 19  1  0  0  0  0
 18 48  1  0  0  0  0
 18 49  1  0  0  0  0
 19 23  1  0  0  0  0
 19 24  1  0  0  0  0
 19 50  1  0  0  0  0
 20 22  1  0  0  0  0
 20 51  1  0  0  0  0
 20 52  1  0  0  0  0
 21 26  2  0  0  0  0
 21 27  1  0  0  0  0
 22 28  2  0  0  0  0
 22 29  1  0  0  0  0
 23 54  1  0  0  0  0
 23 55  1  0  0  0  0
 23 56  1  0  0  0  0
 24 57  1  0  0  0  0
 24 58  1  0  0  0  0
 24 59  1  0  0  0  0
 25 31  1  0  0  0  0
 26 30  1  0  0  0  0
 26 61  1  0  0  0  0
 27 32  2  0  0  0  0
 27 62  1  0  0  0  0
 28 34  1  0  0  0  0
 28 63  1  0  0  0  0
 29 35  2  0  0  0  0
 29 64  1  0  0  0  0
 30 33  2  0  0  0  0
 31 65  1  0  0  0  0
 31 66  1  0  0  0  0
 32 33  1  0  0  0  0
 32 67  1  0  0  0  0
 34 36  2  0  0  0  0
 34 68  1  0  0  0  0
 35 36  1  0  0  0  0
 35 69  1  0  0  0  0
 36 70  1  0  0  0  0
 38 39  1  0  0  0  0
 38 40  2  0  0  0  0
 39 41  1  0  0  0  0
 40 42  1  0  0  0  0
 41 73  1  0  0  0  0
 41 74  1  0  0  0  0
 41 75  1  0  0  0  0
 42 76  1  0  0  0  0
 42 77  1  0  0  0  0
 42 78  1  0  0  0  0
M  END
> <PUBCHEM_COMPOUND_CID>
514407
> <PUBCHEM_COMPOUND_CANONICALIZED>
1
> <PUBCHEM_CACTVS_COMPLEXITY>
982
> <PUBCHEM_CACTVS_HBOND_ACCEPTOR>
12
> <PUBCHEM_CACTVS_HBOND_DONOR>
4
> <PUBCHEM_CACTVS_ROTATABLE_BOND>
13
> <PUBCHEM_CACTVS_SUBSKEYS>
AAADcfB7uABAAAAAAAAAAAAAAAAAAWAAAAA8YIAAAAAAAFgB/AAAHgQQSAAADTzh3gYz17bIFkKoA6VydHbCiDkvYqAJmLn/bNmOPrLE/f+PfSjs1hPY6aeYyKAOAAQABAAAEAAACAAIAAAgAAAAAAAAAA==
> <PUBCHEM_IUPAC_OPENEYE_NAME>
N-[(1S,2R)-3-[(2-amino-1,3-benzoxazol-6-yl)sulfonyl-isobutyl-amino]-1-benzyl-2-hydroxy-propyl]-2-(2-amino-4,6-dimethyl-pyrimidin-5-yl)oxy-acetamide
> <PUBCHEM_IUPAC_CAS_NAME>
N-[(2S,3R)-4-[(2-amino-1,3-benzoxazol-6-yl)sulfonyl-(2-methylpropyl)amino]-3-hydroxy-1-phenylbutan-2-yl]-2-[(2-amino-4,6-dimethyl-5-pyrimidinyl)oxy]acetamide
> <PUBCHEM_IUPAC_NAME_MARKUP>
<I>N</I>-[(2<I>S</I>,3<I>R</I>)-4-[(2-amino-1,3-benzoxazol-6-yl)sulfonyl-(2-methylpropyl)amino]-3-hydroxy-1-phenylbutan-2-yl]-2-(2-amino-4,6-dimethylpyrimidin-5-yl)oxyacetamide
> <PUBCHEM_IUPAC_NAME>
N-[(2S,3R)-4-[(2-amino-1,3-benzoxazol-6-yl)sulfonyl-(2-methylpropyl)amino]-3-hydroxy-1-phenylbutan-2-yl]-2-(2-amino-4,6-dimethylpyrimidin-5-yl)oxyacetamide
> <PUBCHEM_IUPAC_SYSTEMATIC_NAME>
N-[(2S,3R)-4-[(2-azanyl-1,3-benzoxazol-6-yl)sulfonyl-(2-methylpropyl)amino]-3-oxidanyl-1-phenyl-butan-2-yl]-2-(2-azanyl-4,6-dimethyl-pyrimidin-5-yl)oxy-ethanamide
> <PUBCHEM_IUPAC_TRADITIONAL_NAME>
N-[(1S,2R)-3-[(2-amino-1,3-benzoxazol-6-yl)sulfonyl-isobutyl-amino]-1-benzyl-2-hydroxy-propyl]-2-(2-amino-4,6-dimethyl-pyrimidin-5-yl)oxy-acetamide
> <PUBCHEM_IUPAC_INCHI>
InChI=1S/C29H37N7O6S/c1-17(2)14-36(43(39,40)21-10-11-22-25(13-21)42-29(31)35-22)15-24(37)23(12-20-8-6-5-7-9-20)34-26(38)16-41-27-18(3)32-28(30)33-19(27)4/h5-11,13,17,23-24,37H,12,14-16H2,1-4H3,(H2,31,35)(H,34,38)(H2,30,32,33)/t23-,24+/m0/s1
> <PUBCHEM_IUPAC_INCHIKEY>
HSOJOYWPKQRBDP-BJKOFHAPSA-N
> <PUBCHEM_XLOGP3_AA>
3
> <PUBCHEM_EXACT_MASS>
611.25260310
> <PUBCHEM_MOLECULAR_FORMULA>
C29H37N7O6S
> <PUBCHEM_MOLECULAR_WEIGHT>
611.7
> <PUBCHEM_OPENEYE_CAN_SMILES>
CC1=C(C(=NC(=N1)N)C)OCC(=O)NC(CC2=CC=CC=C2)C(CN(CC(C)C)S(=O)(=O)C3=CC4=C(C=C3)N=C(O4)N)O
> <PUBCHEM_OPENEYE_ISO_SMILES>
CC1=C(C(=NC(=N1)N)C)OCC(=O)N[C@@H](CC2=CC=CC=C2)[C@@H](CN(CC(C)C)S(=O)(=O)C3=CC4=C(C=C3)N=C(O4)N)O
> <PUBCHEM_CACTVS_TPSA>
208
> <PUBCHEM_MONOISOTOPIC_WEIGHT>
611.25260310
> <PUBCHEM_TOTAL_CHARGE>
0
> <PUBCHEM_HEAVY_ATOM_COUNT>
43
> <PUBCHEM_ATOM_DEF_STEREO_COUNT>
2
> <PUBCHEM_ATOM_UDEF_STEREO_COUNT>
0
> <PUBCHEM_BOND_DEF_STEREO_COUNT>
0
> <PUBCHEM_BOND_UDEF_STEREO_COUNT>
0
> <PUBCHEM_ISOTOPIC_ATOM_COUNT>
0
> <PUBCHEM_COMPONENT_COUNT>
1
> <PUBCHEM_CACTVS_TAUTO_COUNT>
-1
> <PUBCHEM_COORDINATE_TYPE>
1
5
255
> <PUBCHEM_BONDANNOTATIONS>
10  33  8
10  37  8
12  39  8
12  43  8
13  40  8
13  43  8
15  2  6
21  26  8
21  27  8
22  28  8
22  29  8
26  30  8
27  32  8
28  34  8
29  35  8
30  33  8
32  33  8
34  36  8
35  36  8
38  39  8
38  40  8
5  30  8
5  37  8
17  9  6
$$$$
