514403
  -OEChem-10302200282D
 85 88  0     1  0  0  0  0  0999 V2000
   11.5263   -1.5000    0.0000 S   0  0  0  0  0  0  0  0  0  0  0  0
    8.9282    0.0000    0.0000 O   0  0  0  0  0  0  0  0  0  0  0  0
   11.0263   -2.3660    0.0000 O   0  0  0  0  0  0  0  0  0  0  0  0
   12.0263   -0.6340    0.0000 O   0  0  0  0  0  0  0  0  0  0  0  0
   15.0706   -1.6953    0.0000 O   0  0  0  0  0  0  0  0  0  0  0  0
    6.3301    1.5000    0.0000 O   0  0  0  0  0  0  0  0  0  0  0  0
    8.0622    0.5000    0.0000 O   0  0  0  0  0  0  0  0  0  0  0  0
    2.8660    4.5000    0.0000 O   0  5  0  0  0  0  0  0  0  0  0  0
    2.0000    3.0000    0.0000 O   0  0  0  0  0  0  0  0  0  0  0  0
   10.6603   -1.0000    0.0000 N   0  0  3  0  0  0  0  0  0  0  0  0
    7.1962   -1.0000    0.0000 N   0  0  0  0  0  0  0  0  0  0  0  0
   15.0706   -3.3047    0.0000 N   0  0  0  0  0  0  0  0  0  0  0  0
   16.6542   -2.5000    0.0000 N   0  0  0  0  0  0  0  0  0  0  0  0
    2.8660    3.5000    0.0000 N   0  3  0  0  0  0  0  0  0  0  0  0
    8.9282   -1.0000    0.0000 C   0  0  2  0  0  0  0  0  0  0  0  0
    9.7942   -1.5000    0.0000 C   0  0  0  0  0  0  0  0  0  0  0  0
    8.0622   -1.5000    0.0000 C   0  0  2  0  0  0  0  0  0  0  0  0
   10.6603    0.0000    0.0000 C   0  0  0  0  0  0  0  0  0  0  0  0
   11.5263    0.5000    0.0000 C   0  0  0  0  0  0  0  0  0  0  0  0
    8.0622   -2.5000    0.0000 C   0  0  0  0  0  0  0  0  0  0  0  0
   12.3923   -2.0000    0.0000 C   0  0  0  0  0  0  0  0  0  0  0  0
    7.1962   -3.0000    0.0000 C   0  0  0  0  0  0  0  0  0  0  0  0
   11.5263    1.5000    0.0000 C   0  0  0  0  0  0  0  0  0  0  0  0
   12.3923    0.0000    0.0000 C   0  0  0  0  0  0  0  0  0  0  0  0
    7.1962    0.0000    0.0000 C   0  0  0  0  0  0  0  0  0  0  0  0
   13.2583   -1.5000    0.0000 C   0  0  0  0  0  0  0  0  0  0  0  0
   12.3923   -3.0000    0.0000 C   0  0  0  0  0  0  0  0  0  0  0  0
    7.1962   -4.0000    0.0000 C   0  0  0  0  0  0  0  0  0  0  0  0
    6.3301   -2.5000    0.0000 C   0  0  0  0  0  0  0  0  0  0  0  0
   14.1244   -2.0000    0.0000 C   0  0  0  0  0  0  0  0  0  0  0  0
    6.3301    0.5000    0.0000 C   0  0  0  0  0  0  0  0  0  0  0  0
   13.2583   -3.5000    0.0000 C   0  0  0  0  0  0  0  0  0  0  0  0
   14.1244   -3.0000    0.0000 C   0  0  0  0  0  0  0  0  0  0  0  0
    6.3301   -4.5000    0.0000 C   0  0  0  0  0  0  0  0  0  0  0  0
    5.4641   -3.0000    0.0000 C   0  0  0  0  0  0  0  0  0  0  0  0
    5.4641   -4.0000    0.0000 C   0  0  0  0  0  0  0  0  0  0  0  0
   15.6542   -2.5000    0.0000 C   0  0  0  0  0  0  0  0  0  0  0  0
    5.4641    2.0000    0.0000 C   0  0  0  0  0  0  0  0  0  0  0  0
    5.4641    3.0000    0.0000 C   0  0  0  0  0  0  0  0  0  0  0  0
    4.5981    1.5000    0.0000 C   0  0  0  0  0  0  0  0  0  0  0  0
    4.5981    3.5000    0.0000 C   0  0  0  0  0  0  0  0  0  0  0  0
    3.7320    2.0000    0.0000 C   0  0  0  0  0  0  0  0  0  0  0  0
    3.7320    3.0000    0.0000 C   0  0  0  0  0  0  0  0  0  0  0  0
    6.3301    3.5000    0.0000 C   0  0  0  0  0  0  0  0  0  0  0  0
    4.5981    0.5000    0.0000 C   0  0  0  0  0  0  0  0  0  0  0  0
   17.1542   -3.3660    0.0000 C   0  0  0  0  0  0  0  0  0  0  0  0
    9.4651   -0.6900    0.0000 H   0  0  0  0  0  0  0  0  0  0  0  0
    9.3957   -1.9750    0.0000 H   0  0  0  0  0  0  0  0  0  0  0  0
   10.1928   -1.9750    0.0000 H   0  0  0  0  0  0  0  0  0  0  0  0
    8.0622   -0.8800    0.0000 H   0  0  0  0  0  0  0  0  0  0  0  0
   10.4482    0.5826    0.0000 H   0  0  0  0  0  0  0  0  0  0  0  0
   10.0497   -0.1077    0.0000 H   0  0  0  0  0  0  0  0  0  0  0  0
   12.0632    0.8100    0.0000 H   0  0  0  0  0  0  0  0  0  0  0  0
    8.2742   -3.0826    0.0000 H   0  0  0  0  0  0  0  0  0  0  0  0
    8.6728   -2.3923    0.0000 H   0  0  0  0  0  0  0  0  0  0  0  0
    6.6592   -1.3100    0.0000 H   0  0  0  0  0  0  0  0  0  0  0  0
   12.1463    1.5000    0.0000 H   0  0  0  0  0  0  0  0  0  0  0  0
   11.5263    2.1200    0.0000 H   0  0  0  0  0  0  0  0  0  0  0  0
   10.9063    1.5000    0.0000 H   0  0  0  0  0  0  0  0  0  0  0  0
   12.0823   -0.5369    0.0000 H   0  0  0  0  0  0  0  0  0  0  0  0
   12.9292   -0.3100    0.0000 H   0  0  0  0  0  0  0  0  0  0  0  0
   12.7023    0.5369    0.0000 H   0  0  0  0  0  0  0  0  0  0  0  0
    9.4651    0.3100    0.0000 H   0  0  0  0  0  0  0  0  0  0  0  0
   13.2583   -0.8800    0.0000 H   0  0  0  0  0  0  0  0  0  0  0  0
   11.8554   -3.3100    0.0000 H   0  0  0  0  0  0  0  0  0  0  0  0
    7.7331   -4.3100    0.0000 H   0  0  0  0  0  0  0  0  0  0  0  0
    6.3301   -1.8800    0.0000 H   0  0  0  0  0  0  0  0  0  0  0  0
    5.7196    0.6077    0.0000 H   0  0  0  0  0  0  0  0  0  0  0  0
    6.1181   -0.0826    0.0000 H   0  0  0  0  0  0  0  0  0  0  0  0
   13.2583   -4.1200    0.0000 H   0  0  0  0  0  0  0  0  0  0  0  0
    6.3301   -5.1200    0.0000 H   0  0  0  0  0  0  0  0  0  0  0  0
    4.9272   -2.6900    0.0000 H   0  0  0  0  0  0  0  0  0  0  0  0
    4.9272   -4.3100    0.0000 H   0  0  0  0  0  0  0  0  0  0  0  0
   16.9642   -1.9631    0.0000 H   0  0  0  0  0  0  0  0  0  0  0  0
    4.5981    4.1200    0.0000 H   0  0  0  0  0  0  0  0  0  0  0  0
    3.1951    1.6900    0.0000 H   0  0  0  0  0  0  0  0  0  0  0  0
    6.6401    2.9631    0.0000 H   0  0  0  0  0  0  0  0  0  0  0  0
    6.8671    3.8100    0.0000 H   0  0  0  0  0  0  0  0  0  0  0  0
    6.0201    4.0369    0.0000 H   0  0  0  0  0  0  0  0  0  0  0  0
    3.9781    0.5000    0.0000 H   0  0  0  0  0  0  0  0  0  0  0  0
    4.5981   -0.1200    0.0000 H   0  0  0  0  0  0  0  0  0  0  0  0
    5.2181    0.5000    0.0000 H   0  0  0  0  0  0  0  0  0  0  0  0
   16.6172   -3.6760    0.0000 H   0  0  0  0  0  0  0  0  0  0  0  0
   17.4642   -3.9030    0.0000 H   0  0  0  0  0  0  0  0  0  0  0  0
   17.6911   -3.0560    0.0000 H   0  0  0  0  0  0  0  0  0  0  0  0
  1  3  2  0  0  0  0
  1  4  2  0  0  0  0
  1 10  1  0  0  0  0
  1 21  1  0  0  0  0
 15  2  1  6  0  0  0
  2 63  1  0  0  0  0
  5 30  1  0  0  0  0
  5 37  1  0  0  0  0
  6 31  1  0  0  0  0
  6 38  1  0  0  0  0
  7 25  2  0  0  0  0
  8 14  1  0  0  0  0
  9 14  2  0  0  0  0
 10 16  1  0  0  0  0
 10 18  1  0  0  0  0
 17 11  1  6  0  0  0
 11 25  1  0  0  0  0
 11 56  1  0  0  0  0
 12 33  1  0  0  0  0
 12 37  2  0  0  0  0
 13 37  1  0  0  0  0
 13 46  1  0  0  0  0
 13 74  1  0  0  0  0
 14 43  1  0  0  0  0
 15 16  1  0  0  0  0
 15 17  1  0  0  0  0
 15 47  1  0  0  0  0
 16 48  1  0  0  0  0
 16 49  1  0  0  0  0
 17 20  1  0  0  0  0
 17 50  1  0  0  0  0
 18 19  1  0  0  0  0
 18 51  1  0  0  0  0
 18 52  1  0  0  0  0
 19 23  1  0  0  0  0
 19 24  1  0  0  0  0
 19 53  1  0  0  0  0
 20 22  1  0  0  0  0
 20 54  1  0  0  0  0
 20 55  1  0  0  0  0
 21 26  2  0  0  0  0
 21 27  1  0  0  0  0
 22 28  2  0  0  0  0
 22 29  1  0  0  0  0
 23 57  1  0  0  0  0
 23 58  1  0  0  0  0
 23 59  1  0  0  0  0
 24 60  1  0  0  0  0
 24 61  1  0  0  0  0
 24 62  1  0  0  0  0
 25 31  1  0  0  0  0
 26 30  1  0  0  0  0
 26 64  1  0  0  0  0
 27 32  2  0  0  0  0
 27 65  1  0  0  0  0
 28 34  1  0  0  0  0
 28 66  1  0  0  0  0
 29 35  2  0  0  0  0
 29 67  1  0  0  0  0
 30 33  2  0  0  0  0
 31 68  1  0  0  0  0
 31 69  1  0  0  0  0
 32 33  1  0  0  0  0
 32 70  1  0  0  0  0
 34 36  2  0  0  0  0
 34 71  1  0  0  0  0
 35 36  1  0  0  0  0
 35 72  1  0  0  0  0
 36 73  1  0  0  0  0
 38 39  2  0  0  0  0
 38 40  1  0  0  0  0
 39 41  1  0  0  0  0
 39 44  1  0  0  0  0
 40 42  2  0  0  0  0
 40 45  1  0  0  0  0
 41 43  2  0  0  0  0
 41 75  1  0  0  0  0
 42 43  1  0  0  0  0
 42 76  1  0  0  0  0
 44 77  1  0  0  0  0
 44 78  1  0  0  0  0
 44 79  1  0  0  0  0
 45 80  1  0  0  0  0
 45 81  1  0  0  0  0
 45 82  1  0  0  0  0
 46 83  1  0  0  0  0
 46 84  1  0  0  0  0
 46 85  1  0  0  0  0
M  CHG  2   8  -1  14   1
M  END
> <PUBCHEM_COMPOUND_CID>
514403
> <PUBCHEM_COMPOUND_CANONICALIZED>
1
> <PUBCHEM_CACTVS_COMPLEXITY>
1080
> <PUBCHEM_CACTVS_HBOND_ACCEPTOR>
11
> <PUBCHEM_CACTVS_HBOND_DONOR>
3
> <PUBCHEM_CACTVS_ROTATABLE_BOND>
14
> <PUBCHEM_CACTVS_SUBSKEYS>
AAADcfB/vABAAAAAAAAAAAAAAAAAAWAAAAAwYMAAAAAAAFgB9AAAHgQUSAAADTzh3gYz17LYVkKpA6Vyd3bCiDkvYiApmLn/bNuONrLE9b+PeSjs1hPY6ae4yOAOAEQCRAAIEAAAiASIABAgAAAAAAAAAA==
> <PUBCHEM_IUPAC_OPENEYE_NAME>
N-[(1S,2R)-1-benzyl-2-hydroxy-3-[isobutyl-[[2-(methylamino)-1,3-benzoxazol-6-yl]sulfonyl]amino]propyl]-2-(2,6-dimethyl-4-nitro-phenoxy)acetamide
> <PUBCHEM_IUPAC_CAS_NAME>
2-(2,6-dimethyl-4-nitrophenoxy)-N-[(2S,3R)-3-hydroxy-4-[[2-(methylamino)-1,3-benzoxazol-6-yl]sulfonyl-(2-methylpropyl)amino]-1-phenylbutan-2-yl]acetamide
> <PUBCHEM_IUPAC_NAME_MARKUP>
2-(2,6-dimethyl-4-nitrophenoxy)-<I>N</I>-[(2<I>S</I>,3<I>R</I>)-3-hydroxy-4-[[2-(methylamino)-1,3-benzoxazol-6-yl]sulfonyl-(2-methylpropyl)amino]-1-phenylbutan-2-yl]acetamide
> <PUBCHEM_IUPAC_NAME>
2-(2,6-dimethyl-4-nitrophenoxy)-N-[(2S,3R)-3-hydroxy-4-[[2-(methylamino)-1,3-benzoxazol-6-yl]sulfonyl-(2-methylpropyl)amino]-1-phenylbutan-2-yl]acetamide
> <PUBCHEM_IUPAC_SYSTEMATIC_NAME>
2-(2,6-dimethyl-4-nitro-phenoxy)-N-[(2S,3R)-4-[[2-(methylamino)-1,3-benzoxazol-6-yl]sulfonyl-(2-methylpropyl)amino]-3-oxidanyl-1-phenyl-butan-2-yl]ethanamide
> <PUBCHEM_IUPAC_TRADITIONAL_NAME>
N-[(1S,2R)-1-benzyl-2-hydroxy-3-[isobutyl-[[2-(methylamino)-1,3-benzoxazol-6-yl]sulfonyl]amino]propyl]-2-(2,6-dimethyl-4-nitro-phenoxy)acetamide
> <PUBCHEM_IUPAC_INCHI>
InChI=1S/C32H39N5O8S/c1-20(2)17-36(46(42,43)25-11-12-26-29(16-25)45-32(33-5)35-26)18-28(38)27(15-23-9-7-6-8-10-23)34-30(39)19-44-31-21(3)13-24(37(40)41)14-22(31)4/h6-14,16,20,27-28,38H,15,17-19H2,1-5H3,(H,33,35)(H,34,39)/t27-,28+/m0/s1
> <PUBCHEM_IUPAC_INCHIKEY>
SWOOTWJIGIECFI-WUFINQPMSA-N
> <PUBCHEM_XLOGP3_AA>
5.5
> <PUBCHEM_EXACT_MASS>
653.25193439
> <PUBCHEM_MOLECULAR_FORMULA>
C32H39N5O8S
> <PUBCHEM_MOLECULAR_WEIGHT>
653.7
> <PUBCHEM_OPENEYE_CAN_SMILES>
CC1=CC(=CC(=C1OCC(=O)NC(CC2=CC=CC=C2)C(CN(CC(C)C)S(=O)(=O)C3=CC4=C(C=C3)N=C(O4)NC)O)C)[N+](=O)[O-]
> <PUBCHEM_OPENEYE_ISO_SMILES>
CC1=CC(=CC(=C1OCC(=O)N[C@@H](CC2=CC=CC=C2)[C@@H](CN(CC(C)C)S(=O)(=O)C3=CC4=C(C=C3)N=C(O4)NC)O)C)[N+](=O)[O-]
> <PUBCHEM_CACTVS_TPSA>
188
> <PUBCHEM_MONOISOTOPIC_WEIGHT>
653.25193439
> <PUBCHEM_TOTAL_CHARGE>
0
> <PUBCHEM_HEAVY_ATOM_COUNT>
46
> <PUBCHEM_ATOM_DEF_STEREO_COUNT>
2
> <PUBCHEM_ATOM_UDEF_STEREO_COUNT>
0
> <PUBCHEM_BOND_DEF_STEREO_COUNT>
0
> <PUBCHEM_BOND_UDEF_STEREO_COUNT>
0
> <PUBCHEM_ISOTOPIC_ATOM_COUNT>
0
> <PUBCHEM_COMPONENT_COUNT>
1
> <PUBCHEM_CACTVS_TAUTO_COUNT>
-1
> <PUBCHEM_COORDINATE_TYPE>
1
5
255
> <PUBCHEM_BONDANNOTATIONS>
17  11  6
12  33  8
12  37  8
15  2  6
21  26  8
21  27  8
22  28  8
22  29  8
26  30  8
27  32  8
28  34  8
29  35  8
30  33  8
32  33  8
34  36  8
35  36  8
38  39  8
38  40  8
39  41  8
40  42  8
41  43  8
42  43  8
5  30  8
5  37  8
$$$$
