514491
  -OEChem-10302200282D
 75 78  0     1  0  0  0  0  0999 V2000
    8.2788    2.5124    0.0000 S   0  0  0  0  0  0  0  0  0  0  0  0
    7.5745   -0.7440    0.0000 O   0  0  0  0  0  0  0  0  0  0  0  0
    6.3301   -0.1900    0.0000 O   0  0  0  0  0  0  0  0  0  0  0  0
    5.4641    2.3100    0.0000 O   0  0  0  0  0  0  0  0  0  0  0  0
    2.8660   -0.1900    0.0000 O   0  0  0  0  0  0  0  0  0  0  0  0
    2.0000   -3.6900    0.0000 O   0  0  0  0  0  0  0  0  0  0  0  0
    7.1962    1.3100    0.0000 N   0  0  0  0  0  0  0  0  0  0  0  0
    9.2687   -0.3839    0.0000 N   0  0  0  0  0  0  0  0  0  0  0  0
    4.5981   -0.1900    0.0000 N   0  0  0  0  0  0  0  0  0  0  0  0
    8.1097    0.9033    0.0000 C   0  0  3  0  0  0  0  0  0  0  0  0
    8.7788    1.6464    0.0000 C   0  0  0  0  0  0  0  0  0  0  0  0
    8.3176   -0.0749    0.0000 C   0  0  0  0  0  0  0  0  0  0  0  0
    7.3007    2.3045    0.0000 C   0  0  0  0  0  0  0  0  0  0  0  0
    9.6448    2.1464    0.0000 C   0  0  0  0  0  0  0  0  0  0  0  0
    9.5220    0.9773    0.0000 C   0  0  0  0  0  0  0  0  0  0  0  0
    9.4766   -1.3620    0.0000 C   0  0  0  0  0  0  0  0  0  0  0  0
   10.0118    0.2852    0.0000 C   0  0  0  0  0  0  0  0  0  0  0  0
    6.3301    0.8100    0.0000 C   0  0  0  0  0  0  0  0  0  0  0  0
   10.4276   -1.6711    0.0000 C   0  0  0  0  0  0  0  0  0  0  0  0
   10.9629   -0.0238    0.0000 C   0  0  0  0  0  0  0  0  0  0  0  0
   11.1708   -1.0019    0.0000 C   0  0  0  0  0  0  0  0  0  0  0  0
    5.4641    1.3100    0.0000 C   0  0  2  0  0  0  0  0  0  0  0  0
    4.5981    0.8100    0.0000 C   0  0  2  0  0  0  0  0  0  0  0  0
    3.7320    1.3100    0.0000 C   0  0  0  0  0  0  0  0  0  0  0  0
    3.7320    2.3100    0.0000 C   0  0  0  0  0  0  0  0  0  0  0  0
    3.7320   -0.6900    0.0000 C   0  0  0  0  0  0  0  0  0  0  0  0
    2.8660    2.8100    0.0000 C   0  0  0  0  0  0  0  0  0  0  0  0
    4.5981    2.8100    0.0000 C   0  0  0  0  0  0  0  0  0  0  0  0
    3.7320   -1.6900    0.0000 C   0  0  0  0  0  0  0  0  0  0  0  0
    2.8660    3.8100    0.0000 C   0  0  0  0  0  0  0  0  0  0  0  0
    4.5981    3.8100    0.0000 C   0  0  0  0  0  0  0  0  0  0  0  0
    2.8660   -2.1900    0.0000 C   0  0  0  0  0  0  0  0  0  0  0  0
    3.7320    4.3100    0.0000 C   0  0  0  0  0  0  0  0  0  0  0  0
    4.5981   -2.1900    0.0000 C   0  0  0  0  0  0  0  0  0  0  0  0
    2.8660   -3.1900    0.0000 C   0  0  0  0  0  0  0  0  0  0  0  0
    2.0000   -1.6900    0.0000 C   0  0  0  0  0  0  0  0  0  0  0  0
    4.5981   -3.1900    0.0000 C   0  0  0  0  0  0  0  0  0  0  0  0
    3.7320   -3.6900    0.0000 C   0  0  0  0  0  0  0  0  0  0  0  0
    7.6279    0.5131    0.0000 H   0  0  0  0  0  0  0  0  0  0  0  0
    7.2359    2.9211    0.0000 H   0  0  0  0  0  0  0  0  0  0  0  0
    6.6807    2.3045    0.0000 H   0  0  0  0  0  0  0  0  0  0  0  0
    9.9548    1.6095    0.0000 H   0  0  0  0  0  0  0  0  0  0  0  0
   10.1818    2.4564    0.0000 H   0  0  0  0  0  0  0  0  0  0  0  0
    9.3348    2.6833    0.0000 H   0  0  0  0  0  0  0  0  0  0  0  0
    9.1071    0.5165    0.0000 H   0  0  0  0  0  0  0  0  0  0  0  0
    9.9827    0.5624    0.0000 H   0  0  0  0  0  0  0  0  0  0  0  0
    9.9368    1.4380    0.0000 H   0  0  0  0  0  0  0  0  0  0  0  0
    8.8570   -1.3837    0.0000 H   0  0  0  0  0  0  0  0  0  0  0  0
    9.3903   -1.9760    0.0000 H   0  0  0  0  0  0  0  0  0  0  0  0
   10.3029    0.8327    0.0000 H   0  0  0  0  0  0  0  0  0  0  0  0
    9.5232    0.6669    0.0000 H   0  0  0  0  0  0  0  0  0  0  0  0
   10.1366   -2.2185    0.0000 H   0  0  0  0  0  0  0  0  0  0  0  0
   10.9162   -2.0528    0.0000 H   0  0  0  0  0  0  0  0  0  0  0  0
   11.5825   -0.0022    0.0000 H   0  0  0  0  0  0  0  0  0  0  0  0
   11.0492    0.5902    0.0000 H   0  0  0  0  0  0  0  0  0  0  0  0
   11.4993   -1.5277    0.0000 H   0  0  0  0  0  0  0  0  0  0  0  0
   11.7456   -0.7697    0.0000 H   0  0  0  0  0  0  0  0  0  0  0  0
    6.0010    1.6200    0.0000 H   0  0  0  0  0  0  0  0  0  0  0  0
    5.1350    0.5000    0.0000 H   0  0  0  0  0  0  0  0  0  0  0  0
    3.1215    1.4177    0.0000 H   0  0  0  0  0  0  0  0  0  0  0  0
    3.5200    0.7274    0.0000 H   0  0  0  0  0  0  0  0  0  0  0  0
    5.1350   -0.5000    0.0000 H   0  0  0  0  0  0  0  0  0  0  0  0
    6.0010    2.6200    0.0000 H   0  0  0  0  0  0  0  0  0  0  0  0
    2.3291    2.5000    0.0000 H   0  0  0  0  0  0  0  0  0  0  0  0
    5.1350    2.5000    0.0000 H   0  0  0  0  0  0  0  0  0  0  0  0
    2.3291    4.1200    0.0000 H   0  0  0  0  0  0  0  0  0  0  0  0
    5.1350    4.1200    0.0000 H   0  0  0  0  0  0  0  0  0  0  0  0
    3.7320    4.9300    0.0000 H   0  0  0  0  0  0  0  0  0  0  0  0
    5.1350   -1.8800    0.0000 H   0  0  0  0  0  0  0  0  0  0  0  0
    2.3100   -1.1531    0.0000 H   0  0  0  0  0  0  0  0  0  0  0  0
    1.4631   -1.3800    0.0000 H   0  0  0  0  0  0  0  0  0  0  0  0
    1.6900   -2.2269    0.0000 H   0  0  0  0  0  0  0  0  0  0  0  0
    5.1350   -3.5000    0.0000 H   0  0  0  0  0  0  0  0  0  0  0  0
    3.7320   -4.3100    0.0000 H   0  0  0  0  0  0  0  0  0  0  0  0
    2.0000   -4.3100    0.0000 H   0  0  0  0  0  0  0  0  0  0  0  0
  1 11  1  0  0  0  0
  1 13  1  0  0  0  0
  2 12  2  0  0  0  0
  3 18  2  0  0  0  0
 22  4  1  6  0  0  0
  4 63  1  0  0  0  0
  5 26  2  0  0  0  0
  6 35  1  0  0  0  0
  6 75  1  0  0  0  0
  7 10  1  0  0  0  0
  7 13  1  0  0  0  0
  7 18  1  0  0  0  0
  8 12  1  0  0  0  0
  8 16  1  0  0  0  0
  8 17  1  0  0  0  0
 23  9  1  1  0  0  0
  9 26  1  0  0  0  0
  9 62  1  0  0  0  0
 10 11  1  0  0  0  0
 10 12  1  0  0  0  0
 10 39  1  0  0  0  0
 11 14  1  0  0  0  0
 11 15  1  0  0  0  0
 13 40  1  0  0  0  0
 13 41  1  0  0  0  0
 14 42  1  0  0  0  0
 14 43  1  0  0  0  0
 14 44  1  0  0  0  0
 15 45  1  0  0  0  0
 15 46  1  0  0  0  0
 15 47  1  0  0  0  0
 16 19  1  0  0  0  0
 16 48  1  0  0  0  0
 16 49  1  0  0  0  0
 17 20  1  0  0  0  0
 17 50  1  0  0  0  0
 17 51  1  0  0  0  0
 18 22  1  0  0  0  0
 19 21  1  0  0  0  0
 19 52  1  0  0  0  0
 19 53  1  0  0  0  0
 20 21  1  0  0  0  0
 20 54  1  0  0  0  0
 20 55  1  0  0  0  0
 21 56  1  0  0  0  0
 21 57  1  0  0  0  0
 22 23  1  0  0  0  0
 22 58  1  0  0  0  0
 23 24  1  0  0  0  0
 23 59  1  0  0  0  0
 24 25  1  0  0  0  0
 24 60  1  0  0  0  0
 24 61  1  0  0  0  0
 25 27  2  0  0  0  0
 25 28  1  0  0  0  0
 26 29  1  0  0  0  0
 27 30  1  0  0  0  0
 27 64  1  0  0  0  0
 28 31  2  0  0  0  0
 28 65  1  0  0  0  0
 29 32  2  0  0  0  0
 29 34  1  0  0  0  0
 30 33  2  0  0  0  0
 30 66  1  0  0  0  0
 31 33  1  0  0  0  0
 31 67  1  0  0  0  0
 32 35  1  0  0  0  0
 32 36  1  0  0  0  0
 33 68  1  0  0  0  0
 34 37  2  0  0  0  0
 34 69  1  0  0  0  0
 35 38  2  0  0  0  0
 36 70  1  0  0  0  0
 36 71  1  0  0  0  0
 36 72  1  0  0  0  0
 37 38  1  0  0  0  0
 37 73  1  0  0  0  0
 38 74  1  0  0  0  0
M  END
> <PUBCHEM_COMPOUND_CID>
514491
> <PUBCHEM_COMPOUND_CANONICALIZED>
1
> <PUBCHEM_CACTVS_COMPLEXITY>
842
> <PUBCHEM_CACTVS_HBOND_ACCEPTOR>
6
> <PUBCHEM_CACTVS_HBOND_DONOR>
3
> <PUBCHEM_CACTVS_ROTATABLE_BOND>
7
> <PUBCHEM_CACTVS_SUBSKEYS>
AAADcfB7OABAAAAAAAAAAAAAAAAAAWAAAAA8YIAAAAAAAAABQAAAHgQQCAAADDzh2AayBoPAAgiIAiFSEAKCAABkIBAIiIHODMgKdjqi1TOUcQhk1hGYmYe6yLCOgAABAAAYAAAAAAIAADAAAAAAAAAAAA==
> <PUBCHEM_IUPAC_OPENEYE_NAME>
N-[(1S,2S)-1-benzyl-3-[5,5-dimethyl-4-(piperidine-1-carbonyl)thiazolidin-3-yl]-2-hydroxy-3-oxo-propyl]-3-hydroxy-2-methyl-benzamide
> <PUBCHEM_IUPAC_CAS_NAME>
N-[(2S,3S)-4-[5,5-dimethyl-4-[oxo(1-piperidinyl)methyl]-3-thiazolidinyl]-3-hydroxy-4-oxo-1-phenylbutan-2-yl]-3-hydroxy-2-methylbenzamide
> <PUBCHEM_IUPAC_NAME_MARKUP>
<I>N</I>-[(2<I>S</I>,3<I>S</I>)-4-[5,5-dimethyl-4-(piperidine-1-carbonyl)-1,3-thiazolidin-3-yl]-3-hydroxy-4-oxo-1-phenylbutan-2-yl]-3-hydroxy-2-methylbenzamide
> <PUBCHEM_IUPAC_NAME>
N-[(2S,3S)-4-[5,5-dimethyl-4-(piperidine-1-carbonyl)-1,3-thiazolidin-3-yl]-3-hydroxy-4-oxo-1-phenylbutan-2-yl]-3-hydroxy-2-methylbenzamide
> <PUBCHEM_IUPAC_SYSTEMATIC_NAME>
N-[(2S,3S)-4-(5,5-dimethyl-4-piperidin-1-ylcarbonyl-1,3-thiazolidin-3-yl)-3-oxidanyl-4-oxidanylidene-1-phenyl-butan-2-yl]-2-methyl-3-oxidanyl-benzamide
> <PUBCHEM_IUPAC_TRADITIONAL_NAME>
N-[(1S,2S)-1-benzyl-3-[5,5-dimethyl-4-(piperidine-1-carbonyl)thiazolidin-3-yl]-2-hydroxy-3-keto-propyl]-3-hydroxy-2-methyl-benzamide
> <PUBCHEM_IUPAC_INCHI>
InChI=1S/C29H37N3O5S/c1-19-21(13-10-14-23(19)33)26(35)30-22(17-20-11-6-4-7-12-20)24(34)27(36)32-18-38-29(2,3)25(32)28(37)31-15-8-5-9-16-31/h4,6-7,10-14,22,24-25,33-34H,5,8-9,15-18H2,1-3H3,(H,30,35)/t22-,24-,25?/m0/s1
> <PUBCHEM_IUPAC_INCHIKEY>
OPZAQDGCCASTNZ-VZXIVJASSA-N
> <PUBCHEM_XLOGP3_AA>
3.7
> <PUBCHEM_EXACT_MASS>
539.24539246
> <PUBCHEM_MOLECULAR_FORMULA>
C29H37N3O5S
> <PUBCHEM_MOLECULAR_WEIGHT>
539.7
> <PUBCHEM_OPENEYE_CAN_SMILES>
CC1=C(C=CC=C1O)C(=O)NC(CC2=CC=CC=C2)C(C(=O)N3CSC(C3C(=O)N4CCCCC4)(C)C)O
> <PUBCHEM_OPENEYE_ISO_SMILES>
CC1=C(C=CC=C1O)C(=O)N[C@@H](CC2=CC=CC=C2)[C@@H](C(=O)N3CSC(C3C(=O)N4CCCCC4)(C)C)O
> <PUBCHEM_CACTVS_TPSA>
136
> <PUBCHEM_MONOISOTOPIC_WEIGHT>
539.24539246
> <PUBCHEM_TOTAL_CHARGE>
0
> <PUBCHEM_HEAVY_ATOM_COUNT>
38
> <PUBCHEM_ATOM_DEF_STEREO_COUNT>
2
> <PUBCHEM_ATOM_UDEF_STEREO_COUNT>
1
> <PUBCHEM_BOND_DEF_STEREO_COUNT>
0
> <PUBCHEM_BOND_UDEF_STEREO_COUNT>
0
> <PUBCHEM_ISOTOPIC_ATOM_COUNT>
0
> <PUBCHEM_COMPONENT_COUNT>
1
> <PUBCHEM_CACTVS_TAUTO_COUNT>
-1
> <PUBCHEM_COORDINATE_TYPE>
1
5
255
> <PUBCHEM_BONDANNOTATIONS>
10  12  3
25  27  8
25  28  8
27  30  8
28  31  8
29  32  8
29  34  8
30  33  8
31  33  8
32  35  8
34  37  8
35  38  8
37  38  8
22  4  6
23  9  5
$$$$
