514422
  -OEChem-10302200282D
 76 79  0     1  0  0  0  0  0999 V2000
   10.6603   -0.9050    0.0000 S   0  0  0  0  0  0  0  0  0  0  0  0
    8.0622    0.5950    0.0000 O   0  0  0  0  0  0  0  0  0  0  0  0
   10.1603   -1.7710    0.0000 O   0  0  0  0  0  0  0  0  0  0  0  0
   11.1603   -0.0390    0.0000 O   0  0  0  0  0  0  0  0  0  0  0  0
   14.2045   -1.1003    0.0000 O   0  0  0  0  0  0  0  0  0  0  0  0
    7.1962    1.0950    0.0000 O   0  0  0  0  0  0  0  0  0  0  0  0
    4.5981    3.5950    0.0000 O   0  0  0  0  0  0  0  0  0  0  0  0
    2.0000    2.0950    0.0000 O   0  5  0  0  0  0  0  0  0  0  0  0
    2.8660    3.5950    0.0000 O   0  0  0  0  0  0  0  0  0  0  0  0
    9.7942   -0.4050    0.0000 N   0  0  3  0  0  0  0  0  0  0  0  0
    6.3301   -0.4050    0.0000 N   0  0  0  0  0  0  0  0  0  0  0  0
   14.2045   -2.7097    0.0000 N   0  0  0  0  0  0  0  0  0  0  0  0
   15.7882   -1.9050    0.0000 N   0  0  0  0  0  0  0  0  0  0  0  0
    2.8660    2.5950    0.0000 N   0  3  0  0  0  0  0  0  0  0  0  0
    8.0622   -0.4050    0.0000 C   0  0  1  0  0  0  0  0  0  0  0  0
    7.1962   -0.9050    0.0000 C   0  0  2  0  0  0  0  0  0  0  0  0
    8.9282   -0.9050    0.0000 C   0  0  0  0  0  0  0  0  0  0  0  0
    9.7942    0.5950    0.0000 C   0  0  0  0  0  0  0  0  0  0  0  0
   10.6603    1.0950    0.0000 C   0  0  0  0  0  0  0  0  0  0  0  0
    7.1962   -1.9050    0.0000 C   0  0  0  0  0  0  0  0  0  0  0  0
   11.5263   -1.4050    0.0000 C   0  0  0  0  0  0  0  0  0  0  0  0
    6.3301   -2.4050    0.0000 C   0  0  0  0  0  0  0  0  0  0  0  0
   10.6603    2.0950    0.0000 C   0  0  0  0  0  0  0  0  0  0  0  0
   11.5263    0.5950    0.0000 C   0  0  0  0  0  0  0  0  0  0  0  0
    6.3301    0.5950    0.0000 C   0  0  0  0  0  0  0  0  0  0  0  0
   12.3923   -0.9050    0.0000 C   0  0  0  0  0  0  0  0  0  0  0  0
   11.5263   -2.4050    0.0000 C   0  0  0  0  0  0  0  0  0  0  0  0
    6.3301   -3.4050    0.0000 C   0  0  0  0  0  0  0  0  0  0  0  0
    5.4641   -1.9050    0.0000 C   0  0  0  0  0  0  0  0  0  0  0  0
    5.4641    1.0950    0.0000 C   0  0  0  0  0  0  0  0  0  0  0  0
   13.2583   -1.4050    0.0000 C   0  0  0  0  0  0  0  0  0  0  0  0
   12.3923   -2.9050    0.0000 C   0  0  0  0  0  0  0  0  0  0  0  0
   13.2583   -2.4050    0.0000 C   0  0  0  0  0  0  0  0  0  0  0  0
    5.4641   -3.9050    0.0000 C   0  0  0  0  0  0  0  0  0  0  0  0
    4.5981   -2.4050    0.0000 C   0  0  0  0  0  0  0  0  0  0  0  0
    5.4641    2.0950    0.0000 C   0  0  0  0  0  0  0  0  0  0  0  0
    4.5981   -3.4050    0.0000 C   0  0  0  0  0  0  0  0  0  0  0  0
    4.5981    0.5950    0.0000 C   0  0  0  0  0  0  0  0  0  0  0  0
    4.5981    2.5950    0.0000 C   0  0  0  0  0  0  0  0  0  0  0  0
    6.3301    2.5950    0.0000 C   0  0  0  0  0  0  0  0  0  0  0  0
    3.7320    1.0950    0.0000 C   0  0  0  0  0  0  0  0  0  0  0  0
   14.7882   -1.9050    0.0000 C   0  0  0  0  0  0  0  0  0  0  0  0
    3.7320    2.0950    0.0000 C   0  0  0  0  0  0  0  0  0  0  0  0
    7.5252   -0.0950    0.0000 H   0  0  0  0  0  0  0  0  0  0  0  0
    6.6592   -1.2150    0.0000 H   0  0  0  0  0  0  0  0  0  0  0  0
    8.5297   -1.3800    0.0000 H   0  0  0  0  0  0  0  0  0  0  0  0
    9.3267   -1.3800    0.0000 H   0  0  0  0  0  0  0  0  0  0  0  0
    9.5822    1.1776    0.0000 H   0  0  0  0  0  0  0  0  0  0  0  0
    9.1836    0.4873    0.0000 H   0  0  0  0  0  0  0  0  0  0  0  0
   11.1972    1.4050    0.0000 H   0  0  0  0  0  0  0  0  0  0  0  0
    7.4082   -2.4876    0.0000 H   0  0  0  0  0  0  0  0  0  0  0  0
    7.8067   -1.7973    0.0000 H   0  0  0  0  0  0  0  0  0  0  0  0
    5.7932   -0.7150    0.0000 H   0  0  0  0  0  0  0  0  0  0  0  0
   11.2803    2.0950    0.0000 H   0  0  0  0  0  0  0  0  0  0  0  0
   10.6603    2.7150    0.0000 H   0  0  0  0  0  0  0  0  0  0  0  0
   10.0403    2.0950    0.0000 H   0  0  0  0  0  0  0  0  0  0  0  0
   11.2163    0.0581    0.0000 H   0  0  0  0  0  0  0  0  0  0  0  0
   12.0632    0.2850    0.0000 H   0  0  0  0  0  0  0  0  0  0  0  0
   11.8363    1.1319    0.0000 H   0  0  0  0  0  0  0  0  0  0  0  0
    8.5991    0.9050    0.0000 H   0  0  0  0  0  0  0  0  0  0  0  0
   12.3923   -0.2850    0.0000 H   0  0  0  0  0  0  0  0  0  0  0  0
   10.9893   -2.7150    0.0000 H   0  0  0  0  0  0  0  0  0  0  0  0
    6.8671   -3.7150    0.0000 H   0  0  0  0  0  0  0  0  0  0  0  0
    5.4641   -1.2850    0.0000 H   0  0  0  0  0  0  0  0  0  0  0  0
   12.3923   -3.5250    0.0000 H   0  0  0  0  0  0  0  0  0  0  0  0
    5.4641   -4.5250    0.0000 H   0  0  0  0  0  0  0  0  0  0  0  0
    4.0611   -2.0950    0.0000 H   0  0  0  0  0  0  0  0  0  0  0  0
    4.0611   -3.7150    0.0000 H   0  0  0  0  0  0  0  0  0  0  0  0
    4.5981   -0.0250    0.0000 H   0  0  0  0  0  0  0  0  0  0  0  0
    6.6401    2.0581    0.0000 H   0  0  0  0  0  0  0  0  0  0  0  0
    6.8671    2.9050    0.0000 H   0  0  0  0  0  0  0  0  0  0  0  0
    6.0201    3.1319    0.0000 H   0  0  0  0  0  0  0  0  0  0  0  0
    3.1951    0.7850    0.0000 H   0  0  0  0  0  0  0  0  0  0  0  0
   16.0982   -2.4419    0.0000 H   0  0  0  0  0  0  0  0  0  0  0  0
   16.0982   -1.3681    0.0000 H   0  0  0  0  0  0  0  0  0  0  0  0
    5.1350    3.9050    0.0000 H   0  0  0  0  0  0  0  0  0  0  0  0
  1  3  2  0  0  0  0
  1  4  2  0  0  0  0
  1 10  1  0  0  0  0
  1 21  1  0  0  0  0
 15  2  1  6  0  0  0
  2 60  1  0  0  0  0
  5 31  1  0  0  0  0
  5 42  1  0  0  0  0
  6 25  2  0  0  0  0
  7 39  1  0  0  0  0
  7 76  1  0  0  0  0
  8 14  1  0  0  0  0
  9 14  2  0  0  0  0
 10 17  1  0  0  0  0
 10 18  1  0  0  0  0
 16 11  1  6  0  0  0
 11 25  1  0  0  0  0
 11 53  1  0  0  0  0
 12 33  1  0  0  0  0
 12 42  2  0  0  0  0
 13 42  1  0  0  0  0
 13 74  1  0  0  0  0
 13 75  1  0  0  0  0
 14 43  1  0  0  0  0
 15 16  1  0  0  0  0
 15 17  1  0  0  0  0
 15 44  1  0  0  0  0
 16 20  1  0  0  0  0
 16 45  1  0  0  0  0
 17 46  1  0  0  0  0
 17 47  1  0  0  0  0
 18 19  1  0  0  0  0
 18 48  1  0  0  0  0
 18 49  1  0  0  0  0
 19 23  1  0  0  0  0
 19 24  1  0  0  0  0
 19 50  1  0  0  0  0
 20 22  1  0  0  0  0
 20 51  1  0  0  0  0
 20 52  1  0  0  0  0
 21 26  2  0  0  0  0
 21 27  1  0  0  0  0
 22 28  2  0  0  0  0
 22 29  1  0  0  0  0
 23 54  1  0  0  0  0
 23 55  1  0  0  0  0
 23 56  1  0  0  0  0
 24 57  1  0  0  0  0
 24 58  1  0  0  0  0
 24 59  1  0  0  0  0
 25 30  1  0  0  0  0
 26 31  1  0  0  0  0
 26 61  1  0  0  0  0
 27 32  2  0  0  0  0
 27 62  1  0  0  0  0
 28 34  1  0  0  0  0
 28 63  1  0  0  0  0
 29 35  2  0  0  0  0
 29 64  1  0  0  0  0
 30 36  2  0  0  0  0
 30 38  1  0  0  0  0
 31 33  2  0  0  0  0
 32 33  1  0  0  0  0
 32 65  1  0  0  0  0
 34 37  2  0  0  0  0
 34 66  1  0  0  0  0
 35 37  1  0  0  0  0
 35 67  1  0  0  0  0
 36 39  1  0  0  0  0
 36 40  1  0  0  0  0
 37 68  1  0  0  0  0
 38 41  2  0  0  0  0
 38 69  1  0  0  0  0
 39 43  2  0  0  0  0
 40 70  1  0  0  0  0
 40 71  1  0  0  0  0
 40 72  1  0  0  0  0
 41 43  1  0  0  0  0
 41 73  1  0  0  0  0
M  CHG  2   8  -1  14   1
M  END
> <PUBCHEM_COMPOUND_CID>
514422
> <PUBCHEM_COMPOUND_CANONICALIZED>
1
> <PUBCHEM_CACTVS_COMPLEXITY>
1050
> <PUBCHEM_CACTVS_HBOND_ACCEPTOR>
11
> <PUBCHEM_CACTVS_HBOND_DONOR>
4
> <PUBCHEM_CACTVS_ROTATABLE_BOND>
11
> <PUBCHEM_CACTVS_SUBSKEYS>
AAADcfB7vABAAAAAAAAAAAAAAAAAAWAAAAAwYMAAAAAAAFgB9AAAHgQUSAAADTzh3gYz17LYVkKpA6Vyd3TCiDkvYiAomLm/bNuONrLW9buNcShk1lPY+ae6ybCeiAQBRAAYEAAQCAKIADAgAAAAAAAAAA==
> <PUBCHEM_IUPAC_OPENEYE_NAME>
N-[(1S,2R)-3-[(2-amino-1,3-benzoxazol-6-yl)sulfonyl-isobutyl-amino]-1-benzyl-2-hydroxy-propyl]-3-hydroxy-2-methyl-4-nitro-benzamide
> <PUBCHEM_IUPAC_CAS_NAME>
N-[(2S,3R)-4-[(2-amino-1,3-benzoxazol-6-yl)sulfonyl-(2-methylpropyl)amino]-3-hydroxy-1-phenylbutan-2-yl]-3-hydroxy-2-methyl-4-nitrobenzamide
> <PUBCHEM_IUPAC_NAME_MARKUP>
<I>N</I>-[(2<I>S</I>,3<I>R</I>)-4-[(2-amino-1,3-benzoxazol-6-yl)sulfonyl-(2-methylpropyl)amino]-3-hydroxy-1-phenylbutan-2-yl]-3-hydroxy-2-methyl-4-nitrobenzamide
> <PUBCHEM_IUPAC_NAME>
N-[(2S,3R)-4-[(2-amino-1,3-benzoxazol-6-yl)sulfonyl-(2-methylpropyl)amino]-3-hydroxy-1-phenylbutan-2-yl]-3-hydroxy-2-methyl-4-nitrobenzamide
> <PUBCHEM_IUPAC_SYSTEMATIC_NAME>
N-[(2S,3R)-4-[(2-azanyl-1,3-benzoxazol-6-yl)sulfonyl-(2-methylpropyl)amino]-3-oxidanyl-1-phenyl-butan-2-yl]-2-methyl-4-nitro-3-oxidanyl-benzamide
> <PUBCHEM_IUPAC_TRADITIONAL_NAME>
N-[(1S,2R)-3-[(2-amino-1,3-benzoxazol-6-yl)sulfonyl-isobutyl-amino]-1-benzyl-2-hydroxy-propyl]-3-hydroxy-2-methyl-4-nitro-benzamide
> <PUBCHEM_IUPAC_INCHI>
InChI=1S/C29H33N5O8S/c1-17(2)15-33(43(40,41)20-9-11-22-26(14-20)42-29(30)32-22)16-25(35)23(13-19-7-5-4-6-8-19)31-28(37)21-10-12-24(34(38)39)27(36)18(21)3/h4-12,14,17,23,25,35-36H,13,15-16H2,1-3H3,(H2,30,32)(H,31,37)/t23-,25+/m0/s1
> <PUBCHEM_IUPAC_INCHIKEY>
NAQQPVLMOFPFFW-UKILVPOCSA-N
> <PUBCHEM_XLOGP3_AA>
4.7
> <PUBCHEM_EXACT_MASS>
611.20498420
> <PUBCHEM_MOLECULAR_FORMULA>
C29H33N5O8S
> <PUBCHEM_MOLECULAR_WEIGHT>
611.7
> <PUBCHEM_OPENEYE_CAN_SMILES>
CC1=C(C=CC(=C1O)[N+](=O)[O-])C(=O)NC(CC2=CC=CC=C2)C(CN(CC(C)C)S(=O)(=O)C3=CC4=C(C=C3)N=C(O4)N)O
> <PUBCHEM_OPENEYE_ISO_SMILES>
CC1=C(C=CC(=C1O)[N+](=O)[O-])C(=O)N[C@@H](CC2=CC=CC=C2)[C@@H](CN(CC(C)C)S(=O)(=O)C3=CC4=C(C=C3)N=C(O4)N)O
> <PUBCHEM_CACTVS_TPSA>
213
> <PUBCHEM_MONOISOTOPIC_WEIGHT>
611.20498420
> <PUBCHEM_TOTAL_CHARGE>
0
> <PUBCHEM_HEAVY_ATOM_COUNT>
43
> <PUBCHEM_ATOM_DEF_STEREO_COUNT>
2
> <PUBCHEM_ATOM_UDEF_STEREO_COUNT>
0
> <PUBCHEM_BOND_DEF_STEREO_COUNT>
0
> <PUBCHEM_BOND_UDEF_STEREO_COUNT>
0
> <PUBCHEM_ISOTOPIC_ATOM_COUNT>
0
> <PUBCHEM_COMPONENT_COUNT>
1
> <PUBCHEM_CACTVS_TAUTO_COUNT>
-1
> <PUBCHEM_COORDINATE_TYPE>
1
5
255
> <PUBCHEM_BONDANNOTATIONS>
16  11  6
12  33  8
12  42  8
15  2  6
21  26  8
21  27  8
22  28  8
22  29  8
26  31  8
27  32  8
28  34  8
29  35  8
30  36  8
30  38  8
31  33  8
32  33  8
34  37  8
35  37  8
36  39  8
38  41  8
39  43  8
41  43  8
5  31  8
5  42  8
$$$$
