514424
  -OEChem-10302200282D
 75 79  0     1  0  0  0  0  0999 V2000
    9.6652   -0.7874    0.0000 S   0  0  0  0  0  0  0  0  0  0  0  0
    7.0671    0.7126    0.0000 O   0  0  0  0  0  0  0  0  0  0  0  0
    9.1652   -1.6535    0.0000 O   0  0  0  0  0  0  0  0  0  0  0  0
   10.1652    0.0786    0.0000 O   0  0  0  0  0  0  0  0  0  0  0  0
    6.2011    1.2126    0.0000 O   0  0  0  0  0  0  0  0  0  0  0  0
   13.2095   -0.9827    0.0000 O   0  0  0  0  0  0  0  0  0  0  0  0
    3.3938    3.6844    0.0000 O   0  0  0  0  0  0  0  0  0  0  0  0
    8.7992   -0.2874    0.0000 N   0  0  3  0  0  0  0  0  0  0  0  0
    5.3351   -0.2874    0.0000 N   0  0  0  0  0  0  0  0  0  0  0  0
   13.2095   -2.5922    0.0000 N   0  0  0  0  0  0  0  0  0  0  0  0
    2.0000    2.8796    0.0000 N   0  0  0  0  0  0  0  0  0  0  0  0
   14.7931   -1.7874    0.0000 N   0  0  0  0  0  0  0  0  0  0  0  0
    7.0671   -0.2874    0.0000 C   0  0  1  0  0  0  0  0  0  0  0  0
    6.2011   -0.7874    0.0000 C   0  0  2  0  0  0  0  0  0  0  0  0
    7.9332   -0.7874    0.0000 C   0  0  0  0  0  0  0  0  0  0  0  0
    8.7992    0.7126    0.0000 C   0  0  0  0  0  0  0  0  0  0  0  0
    9.6652    1.2126    0.0000 C   0  0  0  0  0  0  0  0  0  0  0  0
    6.2011   -1.7874    0.0000 C   0  0  0  0  0  0  0  0  0  0  0  0
   10.5312   -1.2874    0.0000 C   0  0  0  0  0  0  0  0  0  0  0  0
    5.3351   -2.2874    0.0000 C   0  0  0  0  0  0  0  0  0  0  0  0
    9.6652    2.2126    0.0000 C   0  0  0  0  0  0  0  0  0  0  0  0
   10.5312    0.7126    0.0000 C   0  0  0  0  0  0  0  0  0  0  0  0
    5.3351    0.7126    0.0000 C   0  0  0  0  0  0  0  0  0  0  0  0
   11.3973   -0.7874    0.0000 C   0  0  0  0  0  0  0  0  0  0  0  0
   10.5312   -2.2874    0.0000 C   0  0  0  0  0  0  0  0  0  0  0  0
    5.3351   -3.2874    0.0000 C   0  0  0  0  0  0  0  0  0  0  0  0
    4.4691   -1.7874    0.0000 C   0  0  0  0  0  0  0  0  0  0  0  0
    4.4691    1.2126    0.0000 C   0  0  0  0  0  0  0  0  0  0  0  0
   12.2633   -1.2874    0.0000 C   0  0  0  0  0  0  0  0  0  0  0  0
   11.3973   -2.7874    0.0000 C   0  0  0  0  0  0  0  0  0  0  0  0
   12.2633   -2.2874    0.0000 C   0  0  0  0  0  0  0  0  0  0  0  0
    4.4691    2.2126    0.0000 C   0  0  0  0  0  0  0  0  0  0  0  0
    4.4691   -3.7874    0.0000 C   0  0  0  0  0  0  0  0  0  0  0  0
    3.6030   -2.2874    0.0000 C   0  0  0  0  0  0  0  0  0  0  0  0
    3.6030    0.7126    0.0000 C   0  0  0  0  0  0  0  0  0  0  0  0
    3.6030   -3.2874    0.0000 C   0  0  0  0  0  0  0  0  0  0  0  0
    3.6030    2.7126    0.0000 C   0  0  0  0  0  0  0  0  0  0  0  0
    2.7370    2.2126    0.0000 C   0  0  0  0  0  0  0  0  0  0  0  0
    2.7370    1.2126    0.0000 C   0  0  0  0  0  0  0  0  0  0  0  0
    5.3351    2.7126    0.0000 C   0  0  0  0  0  0  0  0  0  0  0  0
   13.7931   -1.7874    0.0000 C   0  0  0  0  0  0  0  0  0  0  0  0
    2.4051    3.7874    0.0000 C   0  0  0  0  0  0  0  0  0  0  0  0
    7.6041    0.0226    0.0000 H   0  0  0  0  0  0  0  0  0  0  0  0
    6.2011   -0.1674    0.0000 H   0  0  0  0  0  0  0  0  0  0  0  0
    7.5346   -1.2624    0.0000 H   0  0  0  0  0  0  0  0  0  0  0  0
    8.3317   -1.2624    0.0000 H   0  0  0  0  0  0  0  0  0  0  0  0
    8.5871    1.2952    0.0000 H   0  0  0  0  0  0  0  0  0  0  0  0
    8.1886    0.6049    0.0000 H   0  0  0  0  0  0  0  0  0  0  0  0
   10.2022    1.5226    0.0000 H   0  0  0  0  0  0  0  0  0  0  0  0
    6.4132   -2.3700    0.0000 H   0  0  0  0  0  0  0  0  0  0  0  0
    6.8117   -1.6798    0.0000 H   0  0  0  0  0  0  0  0  0  0  0  0
    4.7982   -0.5974    0.0000 H   0  0  0  0  0  0  0  0  0  0  0  0
   10.2852    2.2126    0.0000 H   0  0  0  0  0  0  0  0  0  0  0  0
    9.6652    2.8326    0.0000 H   0  0  0  0  0  0  0  0  0  0  0  0
    9.0452    2.2126    0.0000 H   0  0  0  0  0  0  0  0  0  0  0  0
   10.2212    0.1756    0.0000 H   0  0  0  0  0  0  0  0  0  0  0  0
   11.0682    0.4026    0.0000 H   0  0  0  0  0  0  0  0  0  0  0  0
   10.8412    1.2495    0.0000 H   0  0  0  0  0  0  0  0  0  0  0  0
    7.6041    1.0226    0.0000 H   0  0  0  0  0  0  0  0  0  0  0  0
   11.3973   -0.1674    0.0000 H   0  0  0  0  0  0  0  0  0  0  0  0
    9.9943   -2.5974    0.0000 H   0  0  0  0  0  0  0  0  0  0  0  0
    5.8720   -3.5974    0.0000 H   0  0  0  0  0  0  0  0  0  0  0  0
    4.4691   -1.1674    0.0000 H   0  0  0  0  0  0  0  0  0  0  0  0
   11.3973   -3.4074    0.0000 H   0  0  0  0  0  0  0  0  0  0  0  0
    4.4691   -4.4074    0.0000 H   0  0  0  0  0  0  0  0  0  0  0  0
    3.0661   -1.9774    0.0000 H   0  0  0  0  0  0  0  0  0  0  0  0
    3.6030    0.0926    0.0000 H   0  0  0  0  0  0  0  0  0  0  0  0
    3.0661   -3.5974    0.0000 H   0  0  0  0  0  0  0  0  0  0  0  0
    2.2001    0.9026    0.0000 H   0  0  0  0  0  0  0  0  0  0  0  0
    5.6451    2.1756    0.0000 H   0  0  0  0  0  0  0  0  0  0  0  0
    5.8720    3.0226    0.0000 H   0  0  0  0  0  0  0  0  0  0  0  0
    5.0251    3.2495    0.0000 H   0  0  0  0  0  0  0  0  0  0  0  0
    2.0951    4.3244    0.0000 H   0  0  0  0  0  0  0  0  0  0  0  0
   15.1031   -2.3244    0.0000 H   0  0  0  0  0  0  0  0  0  0  0  0
   15.1031   -1.2505    0.0000 H   0  0  0  0  0  0  0  0  0  0  0  0
  1  3  2  0  0  0  0
  1  4  2  0  0  0  0
  1  8  1  0  0  0  0
  1 19  1  0  0  0  0
 13  2  1  6  0  0  0
  2 59  1  0  0  0  0
  5 23  2  0  0  0  0
  6 29  1  0  0  0  0
  6 41  1  0  0  0  0
  7 37  1  0  0  0  0
  7 42  1  0  0  0  0
  8 15  1  0  0  0  0
  8 16  1  0  0  0  0
 14  9  1  6  0  0  0
  9 23  1  0  0  0  0
  9 52  1  0  0  0  0
 10 31  1  0  0  0  0
 10 41  2  0  0  0  0
 11 38  1  0  0  0  0
 11 42  2  0  0  0  0
 12 41  1  0  0  0  0
 12 74  1  0  0  0  0
 12 75  1  0  0  0  0
 13 14  1  0  0  0  0
 13 15  1  0  0  0  0
 13 43  1  0  0  0  0
 14 18  1  0  0  0  0
 14 44  1  0  0  0  0
 15 45  1  0  0  0  0
 15 46  1  0  0  0  0
 16 17  1  0  0  0  0
 16 47  1  0  0  0  0
 16 48  1  0  0  0  0
 17 21  1  0  0  0  0
 17 22  1  0  0  0  0
 17 49  1  0  0  0  0
 18 20  1  0  0  0  0
 18 50  1  0  0  0  0
 18 51  1  0  0  0  0
 19 24  2  0  0  0  0
 19 25  1  0  0  0  0
 20 26  2  0  0  0  0
 20 27  1  0  0  0  0
 21 53  1  0  0  0  0
 21 54  1  0  0  0  0
 21 55  1  0  0  0  0
 22 56  1  0  0  0  0
 22 57  1  0  0  0  0
 22 58  1  0  0  0  0
 23 28  1  0  0  0  0
 24 29  1  0  0  0  0
 24 60  1  0  0  0  0
 25 30  2  0  0  0  0
 25 61  1  0  0  0  0
 26 33  1  0  0  0  0
 26 62  1  0  0  0  0
 27 34  2  0  0  0  0
 27 63  1  0  0  0  0
 28 32  2  0  0  0  0
 28 35  1  0  0  0  0
 29 31  2  0  0  0  0
 30 31  1  0  0  0  0
 30 64  1  0  0  0  0
 32 37  1  0  0  0  0
 32 40  1  0  0  0  0
 33 36  2  0  0  0  0
 33 65  1  0  0  0  0
 34 36  1  0  0  0  0
 34 66  1  0  0  0  0
 35 39  2  0  0  0  0
 35 67  1  0  0  0  0
 36 68  1  0  0  0  0
 37 38  2  0  0  0  0
 38 39  1  0  0  0  0
 39 69  1  0  0  0  0
 40 70  1  0  0  0  0
 40 71  1  0  0  0  0
 40 72  1  0  0  0  0
 42 73  1  0  0  0  0
M  END
> <PUBCHEM_COMPOUND_CID>
514424
> <PUBCHEM_COMPOUND_CANONICALIZED>
1
> <PUBCHEM_CACTVS_COMPLEXITY>
1000
> <PUBCHEM_CACTVS_HBOND_ACCEPTOR>
10
> <PUBCHEM_CACTVS_HBOND_DONOR>
3
> <PUBCHEM_CACTVS_ROTATABLE_BOND>
11
> <PUBCHEM_CACTVS_SUBSKEYS>
AAADcfB7uABAAAAAAAAAAAAAAAAAAWLAAAAwYMAAAAAAAFgB/gAAHgQQSAAADTzh3gY317LIFkKoA6Vz9HTCiDk/YiAI2Lm/bNmONrLE9buNcShk1hPY6ae/ybCeiAQBRAAYEAAQCAKIADAgAAAAAAAAAA==
> <PUBCHEM_IUPAC_OPENEYE_NAME>
N-[(1S,2R)-3-[(2-amino-1,3-benzoxazol-6-yl)sulfonyl-isobutyl-amino]-1-benzyl-2-hydroxy-propyl]-7-methyl-1,3-benzoxazole-6-carboxamide
> <PUBCHEM_IUPAC_CAS_NAME>
N-[(2S,3R)-4-[(2-amino-1,3-benzoxazol-6-yl)sulfonyl-(2-methylpropyl)amino]-3-hydroxy-1-phenylbutan-2-yl]-7-methyl-1,3-benzoxazole-6-carboxamide
> <PUBCHEM_IUPAC_NAME_MARKUP>
<I>N</I>-[(2<I>S</I>,3<I>R</I>)-4-[(2-amino-1,3-benzoxazol-6-yl)sulfonyl-(2-methylpropyl)amino]-3-hydroxy-1-phenylbutan-2-yl]-7-methyl-1,3-benzoxazole-6-carboxamide
> <PUBCHEM_IUPAC_NAME>
N-[(2S,3R)-4-[(2-amino-1,3-benzoxazol-6-yl)sulfonyl-(2-methylpropyl)amino]-3-hydroxy-1-phenylbutan-2-yl]-7-methyl-1,3-benzoxazole-6-carboxamide
> <PUBCHEM_IUPAC_SYSTEMATIC_NAME>
N-[(2S,3R)-4-[(2-azanyl-1,3-benzoxazol-6-yl)sulfonyl-(2-methylpropyl)amino]-3-oxidanyl-1-phenyl-butan-2-yl]-7-methyl-1,3-benzoxazole-6-carboxamide
> <PUBCHEM_IUPAC_TRADITIONAL_NAME>
N-[(1S,2R)-3-[(2-amino-1,3-benzoxazol-6-yl)sulfonyl-isobutyl-amino]-1-benzyl-2-hydroxy-propyl]-7-methyl-1,3-benzoxazole-6-carboxamide
> <PUBCHEM_IUPAC_INCHI>
InChI=1S/C30H33N5O6S/c1-18(2)15-35(42(38,39)21-9-11-23-27(14-21)41-30(31)34-23)16-26(36)25(13-20-7-5-4-6-8-20)33-29(37)22-10-12-24-28(19(22)3)40-17-32-24/h4-12,14,17-18,25-26,36H,13,15-16H2,1-3H3,(H2,31,34)(H,33,37)/t25-,26+/m0/s1
> <PUBCHEM_IUPAC_INCHIKEY>
NNBAUCWYZZANNV-IZZNHLLZSA-N
> <PUBCHEM_XLOGP3_AA>
4.5
> <PUBCHEM_EXACT_MASS>
591.21515496
> <PUBCHEM_MOLECULAR_FORMULA>
C30H33N5O6S
> <PUBCHEM_MOLECULAR_WEIGHT>
591.7
> <PUBCHEM_OPENEYE_CAN_SMILES>
CC1=C(C=CC2=C1OC=N2)C(=O)NC(CC3=CC=CC=C3)C(CN(CC(C)C)S(=O)(=O)C4=CC5=C(C=C4)N=C(O5)N)O
> <PUBCHEM_OPENEYE_ISO_SMILES>
CC1=C(C=CC2=C1OC=N2)C(=O)N[C@@H](CC3=CC=CC=C3)[C@@H](CN(CC(C)C)S(=O)(=O)C4=CC5=C(C=C4)N=C(O5)N)O
> <PUBCHEM_CACTVS_TPSA>
173
> <PUBCHEM_MONOISOTOPIC_WEIGHT>
591.21515496
> <PUBCHEM_TOTAL_CHARGE>
0
> <PUBCHEM_HEAVY_ATOM_COUNT>
42
> <PUBCHEM_ATOM_DEF_STEREO_COUNT>
2
> <PUBCHEM_ATOM_UDEF_STEREO_COUNT>
0
> <PUBCHEM_BOND_DEF_STEREO_COUNT>
0
> <PUBCHEM_BOND_UDEF_STEREO_COUNT>
0
> <PUBCHEM_ISOTOPIC_ATOM_COUNT>
0
> <PUBCHEM_COMPONENT_COUNT>
1
> <PUBCHEM_CACTVS_TAUTO_COUNT>
-1
> <PUBCHEM_COORDINATE_TYPE>
1
5
255
> <PUBCHEM_BONDANNOTATIONS>
10  31  8
10  41  8
11  38  8
11  42  8
19  24  8
19  25  8
13  2  6
20  26  8
20  27  8
24  29  8
25  30  8
26  33  8
27  34  8
28  32  8
28  35  8
29  31  8
30  31  8
32  37  8
33  36  8
34  36  8
35  39  8
37  38  8
38  39  8
6  29  8
6  41  8
7  37  8
7  42  8
14  9  6
$$$$
