514415
  -OEChem-10302200282D
164172  0     1  0  0  0  0  0999 V2000
    8.1942   14.9299    0.0000 S   0  0  0  0  0  0  0  0  0  0  0  0
    8.1942    3.6200    0.0000 S   0  0  0  0  0  0  0  0  0  0  0  0
    3.4980   19.4597    0.0000 O   0  0  0  0  0  0  0  0  0  0  0  0
    3.4980    8.1498    0.0000 O   0  0  0  0  0  0  0  0  0  0  0  0
    1.8361   20.2083    0.0000 O   0  0  0  0  0  0  0  0  0  0  0  0
    1.8361    8.8984    0.0000 O   0  0  0  0  0  0  0  0  0  0  0  0
    2.9980   16.9299    0.0000 O   0  0  0  0  0  0  0  0  0  0  0  0
    2.9980    5.6200    0.0000 O   0  0  0  0  0  0  0  0  0  0  0  0
    5.5961   16.4299    0.0000 O   0  0  0  0  0  0  0  0  0  0  0  0
    5.5961    5.1200    0.0000 O   0  0  0  0  0  0  0  0  0  0  0  0
    4.7301   16.9299    0.0000 O   0  0  0  0  0  0  0  0  0  0  0  0
    4.7301    5.6200    0.0000 O   0  0  0  0  0  0  0  0  0  0  0  0
    7.6942   14.0638    0.0000 O   0  0  0  0  0  0  0  0  0  0  0  0
    8.6942   15.7959    0.0000 O   0  0  0  0  0  0  0  0  0  0  0  0
    7.6942    2.7540    0.0000 O   0  0  0  0  0  0  0  0  0  0  0  0
    8.6942    4.4860    0.0000 O   0  0  0  0  0  0  0  0  0  0  0  0
   11.7385   14.7346    0.0000 O   0  0  0  0  0  0  0  0  0  0  0  0
   11.7385    3.4247    0.0000 O   0  0  0  0  0  0  0  0  0  0  0  0
    1.2148   18.3072    0.0000 N   0  0  0  0  0  0  0  0  0  0  0  0
    1.2148    6.9974    0.0000 N   0  0  0  0  0  0  0  0  0  0  0  0
    3.8640   15.4299    0.0000 N   0  0  0  0  0  0  0  0  0  0  0  0
    3.8640    4.1200    0.0000 N   0  0  0  0  0  0  0  0  0  0  0  0
    7.3281   15.4299    0.0000 N   0  0  3  0  0  0  0  0  0  0  0  0
    7.3281    4.1200    0.0000 N   0  0  3  0  0  0  0  0  0  0  0  0
   11.7385   13.1251    0.0000 N   0  0  0  0  0  0  0  0  0  0  0  0
   11.7385    1.8153    0.0000 N   0  0  0  0  0  0  0  0  0  0  0  0
   13.3221   13.9299    0.0000 N   0  0  0  0  0  0  0  0  0  0  0  0
   13.3221    2.6200    0.0000 N   0  0  0  0  0  0  0  0  0  0  0  0
    2.1933   18.5135    0.0000 C   0  0  1  0  0  0  0  0  0  0  0  0
    2.1933    7.2036    0.0000 C   0  0  2  0  0  0  0  0  0  0  0  0
    2.9980   17.9299    0.0000 C   0  0  2  0  0  0  0  0  0  0  0  0
    2.9980    6.6200    0.0000 C   0  0  1  0  0  0  0  0  0  0  0  0
    2.5039   19.4640    0.0000 C   0  0  1  0  0  0  0  0  0  0  0  0
    2.5039    8.1541    0.0000 C   0  0  2  0  0  0  0  0  0  0  0  0
    3.8027   18.5135    0.0000 C   0  0  0  0  0  0  0  0  0  0  0  0
    3.8027    7.2036    0.0000 C   0  0  0  0  0  0  0  0  0  0  0  0
    0.5469   19.0515    0.0000 C   0  0  0  0  0  0  0  0  0  0  0  0
    0.5469    7.7417    0.0000 C   0  0  0  0  0  0  0  0  0  0  0  0
    0.8576   20.0021    0.0000 C   0  0  0  0  0  0  0  0  0  0  0  0
    0.8576    8.6922    0.0000 C   0  0  0  0  0  0  0  0  0  0  0  0
    4.7301   14.9299    0.0000 C   0  0  2  0  0  0  0  0  0  0  0  0
    4.7301    3.6200    0.0000 C   0  0  2  0  0  0  0  0  0  0  0  0
    5.5961   15.4299    0.0000 C   0  0  1  0  0  0  0  0  0  0  0  0
    5.5961    4.1200    0.0000 C   0  0  1  0  0  0  0  0  0  0  0  0
    3.8640   16.4299    0.0000 C   0  0  0  0  0  0  0  0  0  0  0  0
    3.8640    5.1200    0.0000 C   0  0  0  0  0  0  0  0  0  0  0  0
    6.4621   14.9299    0.0000 C   0  0  0  0  0  0  0  0  0  0  0  0
    6.4621    3.6200    0.0000 C   0  0  0  0  0  0  0  0  0  0  0  0
    4.7301   13.9299    0.0000 C   0  0  0  0  0  0  0  0  0  0  0  0
    4.7301    2.6200    0.0000 C   0  0  0  0  0  0  0  0  0  0  0  0
    7.3281   16.4299    0.0000 C   0  0  0  0  0  0  0  0  0  0  0  0
    7.3281    5.1200    0.0000 C   0  0  0  0  0  0  0  0  0  0  0  0
    8.1942   16.9299    0.0000 C   0  0  0  0  0  0  0  0  0  0  0  0
    8.1942    5.6200    0.0000 C   0  0  0  0  0  0  0  0  0  0  0  0
    3.8640   13.4299    0.0000 C   0  0  0  0  0  0  0  0  0  0  0  0
    3.8640    2.1200    0.0000 C   0  0  0  0  0  0  0  0  0  0  0  0
    9.0602   14.4299    0.0000 C   0  0  0  0  0  0  0  0  0  0  0  0
    9.0602    3.1200    0.0000 C   0  0  0  0  0  0  0  0  0  0  0  0
    8.1942   17.9299    0.0000 C   0  0  0  0  0  0  0  0  0  0  0  0
    9.0602   16.4299    0.0000 C   0  0  0  0  0  0  0  0  0  0  0  0
    8.1942    6.6200    0.0000 C   0  0  0  0  0  0  0  0  0  0  0  0
    9.0602    5.1200    0.0000 C   0  0  0  0  0  0  0  0  0  0  0  0
    3.8640   12.4299    0.0000 C   0  0  0  0  0  0  0  0  0  0  0  0
    2.9980   13.9299    0.0000 C   0  0  0  0  0  0  0  0  0  0  0  0
    3.8640    1.1200    0.0000 C   0  0  0  0  0  0  0  0  0  0  0  0
    2.9980    2.6200    0.0000 C   0  0  0  0  0  0  0  0  0  0  0  0
    9.9262   14.9299    0.0000 C   0  0  0  0  0  0  0  0  0  0  0  0
    9.9262    3.6200    0.0000 C   0  0  0  0  0  0  0  0  0  0  0  0
    9.0602   13.4299    0.0000 C   0  0  0  0  0  0  0  0  0  0  0  0
    9.0602    2.1200    0.0000 C   0  0  0  0  0  0  0  0  0  0  0  0
    2.9980   11.9299    0.0000 C   0  0  0  0  0  0  0  0  0  0  0  0
    2.1320   13.4299    0.0000 C   0  0  0  0  0  0  0  0  0  0  0  0
    2.9980    0.6200    0.0000 C   0  0  0  0  0  0  0  0  0  0  0  0
    2.1320    2.1200    0.0000 C   0  0  0  0  0  0  0  0  0  0  0  0
   10.7922   14.4299    0.0000 C   0  0  0  0  0  0  0  0  0  0  0  0
   10.7922    3.1200    0.0000 C   0  0  0  0  0  0  0  0  0  0  0  0
    2.1320   12.4299    0.0000 C   0  0  0  0  0  0  0  0  0  0  0  0
    2.1320    1.1200    0.0000 C   0  0  0  0  0  0  0  0  0  0  0  0
    9.9262   12.9299    0.0000 C   0  0  0  0  0  0  0  0  0  0  0  0
    9.9262    1.6200    0.0000 C   0  0  0  0  0  0  0  0  0  0  0  0
   10.7922   13.4299    0.0000 C   0  0  0  0  0  0  0  0  0  0  0  0
   10.7922    2.1200    0.0000 C   0  0  0  0  0  0  0  0  0  0  0  0
   12.3221   13.9299    0.0000 C   0  0  0  0  0  0  0  0  0  0  0  0
   12.3221    2.6200    0.0000 C   0  0  0  0  0  0  0  0  0  0  0  0
   13.8221   13.0638    0.0000 C   0  0  0  0  0  0  0  0  0  0  0  0
   13.8221    1.7540    0.0000 C   0  0  0  0  0  0  0  0  0  0  0  0
    2.0162   17.6821    0.0000 H   0  0  0  0  0  0  0  0  0  0  0  0
    2.0162    6.3723    0.0000 H   0  0  0  0  0  0  0  0  0  0  0  0
    2.4457   17.6481    0.0000 H   0  0  0  0  0  0  0  0  0  0  0  0
    3.5503    6.3383    0.0000 H   0  0  0  0  0  0  0  0  0  0  0  0
    2.8520   20.2394    0.0000 H   0  0  0  0  0  0  0  0  0  0  0  0
    2.8520    8.9296    0.0000 H   0  0  0  0  0  0  0  0  0  0  0  0
    4.1120   17.9761    0.0000 H   0  0  0  0  0  0  0  0  0  0  0  0
    4.3696   18.7645    0.0000 H   0  0  0  0  0  0  0  0  0  0  0  0
    4.1120    6.6662    0.0000 H   0  0  0  0  0  0  0  0  0  0  0  0
    4.3696    7.4546    0.0000 H   0  0  0  0  0  0  0  0  0  0  0  0
    1.0222   17.7179    0.0000 H   0  0  0  0  0  0  0  0  0  0  0  0
    1.0222    6.4081    0.0000 H   0  0  0  0  0  0  0  0  0  0  0  0
    0.0000   19.3436    0.0000 H   0  0  0  0  0  0  0  0  0  0  0  0
    0.1644   18.5636    0.0000 H   0  0  0  0  0  0  0  0  0  0  0  0
    0.0000    8.0337    0.0000 H   0  0  0  0  0  0  0  0  0  0  0  0
    0.1644    7.2538    0.0000 H   0  0  0  0  0  0  0  0  0  0  0  0
    0.8370   20.6217    0.0000 H   0  0  0  0  0  0  0  0  0  0  0  0
    0.2438   20.0894    0.0000 H   0  0  0  0  0  0  0  0  0  0  0  0
    0.8370    9.3119    0.0000 H   0  0  0  0  0  0  0  0  0  0  0  0
    0.2438    8.7796    0.0000 H   0  0  0  0  0  0  0  0  0  0  0  0
    4.1931   14.6199    0.0000 H   0  0  0  0  0  0  0  0  0  0  0  0
    4.1931    3.3100    0.0000 H   0  0  0  0  0  0  0  0  0  0  0  0
    5.0591   15.7399    0.0000 H   0  0  0  0  0  0  0  0  0  0  0  0
    6.1330    4.4300    0.0000 H   0  0  0  0  0  0  0  0  0  0  0  0
    3.3271   15.1199    0.0000 H   0  0  0  0  0  0  0  0  0  0  0  0
    3.3271    3.8100    0.0000 H   0  0  0  0  0  0  0  0  0  0  0  0
    6.0636   14.4549    0.0000 H   0  0  0  0  0  0  0  0  0  0  0  0
    6.8606   14.4549    0.0000 H   0  0  0  0  0  0  0  0  0  0  0  0
    6.0636    3.1450    0.0000 H   0  0  0  0  0  0  0  0  0  0  0  0
    6.8606    3.1450    0.0000 H   0  0  0  0  0  0  0  0  0  0  0  0
    4.9421   13.3472    0.0000 H   0  0  0  0  0  0  0  0  0  0  0  0
    5.3406   14.0375    0.0000 H   0  0  0  0  0  0  0  0  0  0  0  0
    4.9421    2.0374    0.0000 H   0  0  0  0  0  0  0  0  0  0  0  0
    5.3406    2.7277    0.0000 H   0  0  0  0  0  0  0  0  0  0  0  0
    7.1161   17.0125    0.0000 H   0  0  0  0  0  0  0  0  0  0  0  0
    6.7176   16.3222    0.0000 H   0  0  0  0  0  0  0  0  0  0  0  0
    7.1161    5.7026    0.0000 H   0  0  0  0  0  0  0  0  0  0  0  0
    6.7176    5.0123    0.0000 H   0  0  0  0  0  0  0  0  0  0  0  0
    7.6572   17.2399    0.0000 H   0  0  0  0  0  0  0  0  0  0  0  0
    7.6572    5.9300    0.0000 H   0  0  0  0  0  0  0  0  0  0  0  0
    6.1330   16.7399    0.0000 H   0  0  0  0  0  0  0  0  0  0  0  0
    6.1330    5.4300    0.0000 H   0  0  0  0  0  0  0  0  0  0  0  0
    8.8142   17.9299    0.0000 H   0  0  0  0  0  0  0  0  0  0  0  0
    8.1942   18.5499    0.0000 H   0  0  0  0  0  0  0  0  0  0  0  0
    7.5742   17.9299    0.0000 H   0  0  0  0  0  0  0  0  0  0  0  0
    8.7502   15.8929    0.0000 H   0  0  0  0  0  0  0  0  0  0  0  0
    9.5971   16.1199    0.0000 H   0  0  0  0  0  0  0  0  0  0  0  0
    9.3702   16.9668    0.0000 H   0  0  0  0  0  0  0  0  0  0  0  0
    8.8142    6.6200    0.0000 H   0  0  0  0  0  0  0  0  0  0  0  0
    8.1942    7.2400    0.0000 H   0  0  0  0  0  0  0  0  0  0  0  0
    7.5742    6.6200    0.0000 H   0  0  0  0  0  0  0  0  0  0  0  0
    8.7502    4.5831    0.0000 H   0  0  0  0  0  0  0  0  0  0  0  0
    9.5971    4.8100    0.0000 H   0  0  0  0  0  0  0  0  0  0  0  0
    9.3702    5.6569    0.0000 H   0  0  0  0  0  0  0  0  0  0  0  0
    4.4010   12.1199    0.0000 H   0  0  0  0  0  0  0  0  0  0  0  0
    2.9980   14.5499    0.0000 H   0  0  0  0  0  0  0  0  0  0  0  0
    4.4010    0.8100    0.0000 H   0  0  0  0  0  0  0  0  0  0  0  0
    2.9980    3.2400    0.0000 H   0  0  0  0  0  0  0  0  0  0  0  0
    9.9262   15.5499    0.0000 H   0  0  0  0  0  0  0  0  0  0  0  0
    9.9262    4.2400    0.0000 H   0  0  0  0  0  0  0  0  0  0  0  0
    8.5233   13.1199    0.0000 H   0  0  0  0  0  0  0  0  0  0  0  0
    8.5233    1.8100    0.0000 H   0  0  0  0  0  0  0  0  0  0  0  0
    2.9980   11.3099    0.0000 H   0  0  0  0  0  0  0  0  0  0  0  0
    1.5950   13.7399    0.0000 H   0  0  0  0  0  0  0  0  0  0  0  0
    2.9980    0.0000    0.0000 H   0  0  0  0  0  0  0  0  0  0  0  0
    1.5950    2.4300    0.0000 H   0  0  0  0  0  0  0  0  0  0  0  0
    1.5950   12.1199    0.0000 H   0  0  0  0  0  0  0  0  0  0  0  0
    1.5950    0.8100    0.0000 H   0  0  0  0  0  0  0  0  0  0  0  0
    9.9262   12.3099    0.0000 H   0  0  0  0  0  0  0  0  0  0  0  0
    9.9262    1.0000    0.0000 H   0  0  0  0  0  0  0  0  0  0  0  0
   13.6321   14.4668    0.0000 H   0  0  0  0  0  0  0  0  0  0  0  0
   13.6321    3.1569    0.0000 H   0  0  0  0  0  0  0  0  0  0  0  0
   13.2851   12.7538    0.0000 H   0  0  0  0  0  0  0  0  0  0  0  0
   14.1321   12.5269    0.0000 H   0  0  0  0  0  0  0  0  0  0  0  0
   14.3590   13.3738    0.0000 H   0  0  0  0  0  0  0  0  0  0  0  0
   13.2851    1.4440    0.0000 H   0  0  0  0  0  0  0  0  0  0  0  0
   14.1321    1.2170    0.0000 H   0  0  0  0  0  0  0  0  0  0  0  0
   14.3590    2.0640    0.0000 H   0  0  0  0  0  0  0  0  0  0  0  0
  1 13  2  0  0  0  0
  1 14  2  0  0  0  0
  1 23  1  0  0  0  0
  1 57  1  0  0  0  0
  2 15  2  0  0  0  0
  2 16  2  0  0  0  0
  2 24  1  0  0  0  0
  2 58  1  0  0  0  0
  3 33  1  0  0  0  0
  3 35  1  0  0  0  0
  4 34  1  0  0  0  0
  4 36  1  0  0  0  0
  5 33  1  0  0  0  0
  5 39  1  0  0  0  0
  6 34  1  0  0  0  0
  6 40  1  0  0  0  0
 31  7  1  6  0  0  0
  7 45  1  0  0  0  0
 32  8  1  1  0  0  0
  8 46  1  0  0  0  0
 43  9  1  6  0  0  0
  9127  1  0  0  0  0
 44 10  1  6  0  0  0
 10128  1  0  0  0  0
 11 45  2  0  0  0  0
 12 46  2  0  0  0  0
 17 75  1  0  0  0  0
 17 83  1  0  0  0  0
 18 76  1  0  0  0  0
 18 84  1  0  0  0  0
 19 29  1  0  0  0  0
 19 37  1  0  0  0  0
 19 97  1  0  0  0  0
 20 30  1  0  0  0  0
 20 38  1  0  0  0  0
 20 98  1  0  0  0  0
 41 21  1  6  0  0  0
 21 45  1  0  0  0  0
 21111  1  0  0  0  0
 42 22  1  6  0  0  0
 22 46  1  0  0  0  0
 22112  1  0  0  0  0
 23 47  1  0  0  0  0
 23 51  1  0  0  0  0
 24 48  1  0  0  0  0
 24 52  1  0  0  0  0
 25 81  1  0  0  0  0
 25 83  2  0  0  0  0
 26 82  1  0  0  0  0
 26 84  2  0  0  0  0
 27 83  1  0  0  0  0
 27 85  1  0  0  0  0
 27157  1  0  0  0  0
 28 84  1  0  0  0  0
 28 86  1  0  0  0  0
 28158  1  0  0  0  0
 29 31  1  0  0  0  0
 29 33  1  0  0  0  0
 29 87  1  1  0  0  0
 30 32  1  0  0  0  0
 30 34  1  0  0  0  0
 30 88  1  6  0  0  0
 31 35  1  0  0  0  0
 31 89  1  0  0  0  0
 32 36  1  0  0  0  0
 32 90  1  0  0  0  0
 33 91  1  1  0  0  0
 34 92  1  6  0  0  0
 35 93  1  0  0  0  0
 35 94  1  0  0  0  0
 36 95  1  0  0  0  0
 36 96  1  0  0  0  0
 37 39  1  0  0  0  0
 37 99  1  0  0  0  0
 37100  1  0  0  0  0
 38 40  1  0  0  0  0
 38101  1  0  0  0  0
 38102  1  0  0  0  0
 39103  1  0  0  0  0
 39104  1  0  0  0  0
 40105  1  0  0  0  0
 40106  1  0  0  0  0
 41 43  1  0  0  0  0
 41 49  1  0  0  0  0
 41107  1  0  0  0  0
 42 44  1  0  0  0  0
 42 50  1  0  0  0  0
 42108  1  0  0  0  0
 43 47  1  0  0  0  0
 43109  1  0  0  0  0
 44 48  1  0  0  0  0
 44110  1  0  0  0  0
 47113  1  0  0  0  0
 47114  1  0  0  0  0
 48115  1  0  0  0  0
 48116  1  0  0  0  0
 49 55  1  0  0  0  0
 49117  1  0  0  0  0
 49118  1  0  0  0  0
 50 56  1  0  0  0  0
 50119  1  0  0  0  0
 50120  1  0  0  0  0
 51 53  1  0  0  0  0
 51121  1  0  0  0  0
 51122  1  0  0  0  0
 52 54  1  0  0  0  0
 52123  1  0  0  0  0
 52124  1  0  0  0  0
 53 59  1  0  0  0  0
 53 60  1  0  0  0  0
 53125  1  0  0  0  0
 54 61  1  0  0  0  0
 54 62  1  0  0  0  0
 54126  1  0  0  0  0
 55 63  2  0  0  0  0
 55 64  1  0  0  0  0
 56 65  2  0  0  0  0
 56 66  1  0  0  0  0
 57 67  2  0  0  0  0
 57 69  1  0  0  0  0
 58 68  2  0  0  0  0
 58 70  1  0  0  0  0
 59129  1  0  0  0  0
 59130  1  0  0  0  0
 59131  1  0  0  0  0
 60132  1  0  0  0  0
 60133  1  0  0  0  0
 60134  1  0  0  0  0
 61135  1  0  0  0  0
 61136  1  0  0  0  0
 61137  1  0  0  0  0
 62138  1  0  0  0  0
 62139  1  0  0  0  0
 62140  1  0  0  0  0
 63 71  1  0  0  0  0
 63141  1  0  0  0  0
 64 72  2  0  0  0  0
 64142  1  0  0  0  0
 65 73  1  0  0  0  0
 65143  1  0  0  0  0
 66 74  2  0  0  0  0
 66144  1  0  0  0  0
 67 75  1  0  0  0  0
 67145  1  0  0  0  0
 68 76  1  0  0  0  0
 68146  1  0  0  0  0
 69 79  2  0  0  0  0
 69147  1  0  0  0  0
 70 80  2  0  0  0  0
 70148  1  0  0  0  0
 71 77  2  0  0  0  0
 71149  1  0  0  0  0
 72 77  1  0  0  0  0
 72150  1  0  0  0  0
 73 78  2  0  0  0  0
 73151  1  0  0  0  0
 74 78  1  0  0  0  0
 74152  1  0  0  0  0
 75 81  2  0  0  0  0
 76 82  2  0  0  0  0
 77153  1  0  0  0  0
 78154  1  0  0  0  0
 79 81  1  0  0  0  0
 79155  1  0  0  0  0
 80 82  1  0  0  0  0
 80156  1  0  0  0  0
 85159  1  0  0  0  0
 85160  1  0  0  0  0
 85161  1  0  0  0  0
 86162  1  0  0  0  0
 86163  1  0  0  0  0
 86164  1  0  0  0  0
M  END
> <PUBCHEM_COMPOUND_CID>
514415
> <PUBCHEM_COMPOUND_CANONICALIZED>
1
> <PUBCHEM_CACTVS_COMPLEXITY>
1010
> <PUBCHEM_CACTVS_HBOND_ACCEPTOR>
24
> <PUBCHEM_CACTVS_HBOND_DONOR>
8
> <PUBCHEM_CACTVS_ROTATABLE_BOND>
26
> <PUBCHEM_CACTVS_SUBSKEYS>
AAADcfB//gBgAAAAAAAAAAAAAAAAAWLEiQA8eMGCAAAAAFgB/gAAHgQQSAAADTzx3gcz37LIFkKoA6RyfHTCiDkvYiAJmLm/bNmfNrLE9buvcShv1hPe6afYyKAOAAQABAAAEAAACAAIAAAgAAAAAAAAAA==
> <PUBCHEM_IUPAC_OPENEYE_NAME>
[(4aR,7R,7aS)-2,3,4a,6,7,7a-hexahydro-1H-furo[2,3-b][1,4]oxazin-7-yl] N-[(1S,2R)-1-benzyl-2-hydroxy-3-[isobutyl-[[2-(methylamino)-1,3-benzoxazol-6-yl]sulfonyl]amino]propyl]carbamate;[(4aS,7S,7aR)-2,3,4a,6,7,7a-hexahydro-1H-furo[2,3-b][1,4]oxazin-7-yl] N-[(1S,2R)-1-benzyl-2-hydroxy-3-[isobutyl-[[2-(methylamino)-1,3-benzoxazol-6-yl]sulfonyl]amino]propyl]carbamate
> <PUBCHEM_IUPAC_CAS_NAME>
N-[(2S,3R)-3-hydroxy-4-[[2-(methylamino)-1,3-benzoxazol-6-yl]sulfonyl-(2-methylpropyl)amino]-1-phenylbutan-2-yl]carbamic acid [(4aR,7R,7aS)-2,3,4a,6,7,7a-hexahydro-1H-furo[2,3-b][1,4]oxazin-7-yl] ester;N-[(2S,3R)-3-hydroxy-4-[[2-(methylamino)-1,3-benzoxazol-6-yl]sulfonyl-(2-methylpropyl)amino]-1-phenylbutan-2-yl]carbamic acid [(4aS,7S,7aR)-2,3,4a,6,7,7a-hexahydro-1H-furo[2,3-b][1,4]oxazin-7-yl] ester
> <PUBCHEM_IUPAC_NAME_MARKUP>
[(4<I>a</I><I>R</I>,7<I>R</I>,7<I>a</I><I>S</I>)-2,3,4<I>a</I>,6,7,7<I>a</I>-hexahydro-1<I>H</I>-furo[2,3-b][1,4]oxazin-7-yl] <I>N</I>-[(2<I>S</I>,3<I>R</I>)-3-hydroxy-4-[[2-(methylamino)-1,3-benzoxazol-6-yl]sulfonyl-(2-methylpropyl)amino]-1-phenylbutan-2-yl]carbamate;[(4<I>a</I><I>S</I>,7<I>S</I>,7<I>a</I><I>R</I>)-2,3,4<I>a</I>,6,7,7<I>a</I>-hexahydro-1<I>H</I>-furo[2,3-b][1,4]oxazin-7-yl] <I>N</I>-[(2<I>S</I>,3<I>R</I>)-3-hydroxy-4-[[2-(methylamino)-1,3-benzoxazol-6-yl]sulfonyl-(2-methylpropyl)amino]-1-phenylbutan-2-yl]carbamate
> <PUBCHEM_IUPAC_NAME>
[(4aR,7R,7aS)-2,3,4a,6,7,7a-hexahydro-1H-furo[2,3-b][1,4]oxazin-7-yl] N-[(2S,3R)-3-hydroxy-4-[[2-(methylamino)-1,3-benzoxazol-6-yl]sulfonyl-(2-methylpropyl)amino]-1-phenylbutan-2-yl]carbamate;[(4aS,7S,7aR)-2,3,4a,6,7,7a-hexahydro-1H-furo[2,3-b][1,4]oxazin-7-yl] N-[(2S,3R)-3-hydroxy-4-[[2-(methylamino)-1,3-benzoxazol-6-yl]sulfonyl-(2-methylpropyl)amino]-1-phenylbutan-2-yl]carbamate
> <PUBCHEM_IUPAC_SYSTEMATIC_NAME>
[(4aR,7R,7aS)-2,3,4a,6,7,7a-hexahydro-1H-furo[2,3-b][1,4]oxazin-7-yl] N-[(2S,3R)-4-[[2-(methylamino)-1,3-benzoxazol-6-yl]sulfonyl-(2-methylpropyl)amino]-3-oxidanyl-1-phenyl-butan-2-yl]carbamate;[(4aS,7S,7aR)-2,3,4a,6,7,7a-hexahydro-1H-furo[2,3-b][1,4]oxazin-7-yl] N-[(2S,3R)-4-[[2-(methylamino)-1,3-benzoxazol-6-yl]sulfonyl-(2-methylpropyl)amino]-3-oxidanyl-1-phenyl-butan-2-yl]carbamate
> <PUBCHEM_IUPAC_TRADITIONAL_NAME>
N-[(1S,2R)-1-benzyl-2-hydroxy-3-[isobutyl-[[2-(methylamino)-1,3-benzoxazol-6-yl]sulfonyl]amino]propyl]carbamic acid [(4aR,7R,7aS)-2,3,4a,6,7,7a-hexahydro-1H-furo[2,3-b][1,4]oxazin-7-yl] ester;N-[(1S,2R)-1-benzyl-2-hydroxy-3-[isobutyl-[[2-(methylamino)-1,3-benzoxazol-6-yl]sulfonyl]amino]propyl]carbamic acid [(4aS,7S,7aR)-2,3,4a,6,7,7a-hexahydro-1H-furo[2,3-b][1,4]oxazin-7-yl] ester
> <PUBCHEM_IUPAC_INCHI>
InChI=1S/2C29H39N5O8S/c2*1-18(2)15-34(43(37,38)20-9-10-21-24(14-20)41-28(30-3)32-21)16-23(35)22(13-19-7-5-4-6-8-19)33-29(36)42-25-17-40-27-26(25)31-11-12-39-27/h2*4-10,14,18,22-23,25-27,31,35H,11-13,15-17H2,1-3H3,(H,30,32)(H,33,36)/t22-,23+,25+,26+,27-;22-,23+,25-,26-,27+/m00/s1
> <PUBCHEM_IUPAC_INCHIKEY>
FKPVACDGXRALFN-LRARZUGRSA-N
> <PUBCHEM_EXACT_MASS>
1234.50386879
> <PUBCHEM_MOLECULAR_FORMULA>
C58H78N10O16S2
> <PUBCHEM_MOLECULAR_WEIGHT>
1235.4
> <PUBCHEM_OPENEYE_CAN_SMILES>
CC(C)CN(CC(C(CC1=CC=CC=C1)NC(=O)OC2COC3C2NCCO3)O)S(=O)(=O)C4=CC5=C(C=C4)N=C(O5)NC.CC(C)CN(CC(C(CC1=CC=CC=C1)NC(=O)OC2COC3C2NCCO3)O)S(=O)(=O)C4=CC5=C(C=C4)N=C(O5)NC
> <PUBCHEM_OPENEYE_ISO_SMILES>
CC(C)CN(C[C@H]([C@H](CC1=CC=CC=C1)NC(=O)O[C@@H]2CO[C@H]3[C@@H]2NCCO3)O)S(=O)(=O)C4=CC5=C(C=C4)N=C(O5)NC.CC(C)CN(C[C@H]([C@H](CC1=CC=CC=C1)NC(=O)O[C@H]2CO[C@@H]3[C@H]2NCCO3)O)S(=O)(=O)C4=CC5=C(C=C4)N=C(O5)NC
> <PUBCHEM_CACTVS_TPSA>
346
> <PUBCHEM_MONOISOTOPIC_WEIGHT>
1234.50386879
> <PUBCHEM_TOTAL_CHARGE>
0
> <PUBCHEM_HEAVY_ATOM_COUNT>
86
> <PUBCHEM_ATOM_DEF_STEREO_COUNT>
10
> <PUBCHEM_ATOM_UDEF_STEREO_COUNT>
0
> <PUBCHEM_BOND_DEF_STEREO_COUNT>
0
> <PUBCHEM_BOND_UDEF_STEREO_COUNT>
0
> <PUBCHEM_ISOTOPIC_ATOM_COUNT>
0
> <PUBCHEM_COMPONENT_COUNT>
2
> <PUBCHEM_CACTVS_TAUTO_COUNT>
-1
> <PUBCHEM_COORDINATE_TYPE>
1
5
255
> <PUBCHEM_BONDANNOTATIONS>
44  10  6
17  75  8
17  83  8
18  76  8
18  84  8
41  21  6
42  22  6
25  81  8
25  83  8
26  82  8
26  84  8
29  87  5
30  88  6
33  91  5
34  92  6
55  63  8
55  64  8
56  65  8
56  66  8
57  67  8
57  69  8
58  68  8
58  70  8
63  71  8
64  72  8
65  73  8
66  74  8
67  75  8
68  76  8
69  79  8
31  7  6
70  80  8
71  77  8
72  77  8
73  78  8
74  78  8
75  81  8
76  82  8
79  81  8
32  8  5
80  82  8
43  9  6
$$$$
