514485
  -OEChem-10302200282D
 79 83  0     1  0  0  0  0  0999 V2000
    8.2788    2.6722    0.0000 S   0  0  0  0  0  0  0  0  0  0  0  0
    7.5745   -0.5843    0.0000 O   0  0  0  0  0  0  0  0  0  0  0  0
    6.3301   -0.0302    0.0000 O   0  0  0  0  0  0  0  0  0  0  0  0
    5.4641    2.4698    0.0000 O   0  0  0  0  0  0  0  0  0  0  0  0
    2.8660   -0.0302    0.0000 O   0  0  0  0  0  0  0  0  0  0  0  0
    2.0000   -3.5302    0.0000 O   0  0  0  0  0  0  0  0  0  0  0  0
    9.2687   -0.2241    0.0000 N   0  0  0  0  0  0  0  0  0  0  0  0
    7.1962    1.4698    0.0000 N   0  0  0  0  0  0  0  0  0  0  0  0
    4.5981   -0.0302    0.0000 N   0  0  0  0  0  0  0  0  0  0  0  0
    9.4766   -1.2023    0.0000 C   0  0  1  0  0  0  0  0  0  0  0  0
    9.1676   -2.1534    0.0000 C   0  0  1  0  0  0  0  0  0  0  0  0
   10.1457   -1.9454    0.0000 C   0  0  0  0  0  0  0  0  0  0  0  0
    8.4244   -2.8225    0.0000 C   0  0  0  0  0  0  0  0  0  0  0  0
    8.1097    1.0630    0.0000 C   0  0  1  0  0  0  0  0  0  0  0  0
    8.7788    1.8062    0.0000 C   0  0  0  0  0  0  0  0  0  0  0  0
    8.3176    0.0849    0.0000 C   0  0  0  0  0  0  0  0  0  0  0  0
    7.3007    2.4643    0.0000 C   0  0  0  0  0  0  0  0  0  0  0  0
    8.6323   -3.8006    0.0000 C   0  0  0  0  0  0  0  0  0  0  0  0
    7.4734   -2.5135    0.0000 C   0  0  0  0  0  0  0  0  0  0  0  0
    9.6448    2.3062    0.0000 C   0  0  0  0  0  0  0  0  0  0  0  0
    9.5220    1.1370    0.0000 C   0  0  0  0  0  0  0  0  0  0  0  0
    6.3301    0.9698    0.0000 C   0  0  0  0  0  0  0  0  0  0  0  0
    5.4641    1.4698    0.0000 C   0  0  2  0  0  0  0  0  0  0  0  0
    7.8892   -4.4698    0.0000 C   0  0  0  0  0  0  0  0  0  0  0  0
    6.7302   -3.1826    0.0000 C   0  0  0  0  0  0  0  0  0  0  0  0
    4.5981    0.9698    0.0000 C   0  0  2  0  0  0  0  0  0  0  0  0
    6.9381   -4.1607    0.0000 C   0  0  0  0  0  0  0  0  0  0  0  0
    3.7320    1.4698    0.0000 C   0  0  0  0  0  0  0  0  0  0  0  0
    3.7320    2.4698    0.0000 C   0  0  0  0  0  0  0  0  0  0  0  0
    3.7320   -0.5302    0.0000 C   0  0  0  0  0  0  0  0  0  0  0  0
    2.8660    2.9698    0.0000 C   0  0  0  0  0  0  0  0  0  0  0  0
    4.5981    2.9698    0.0000 C   0  0  0  0  0  0  0  0  0  0  0  0
    3.7320   -1.5302    0.0000 C   0  0  0  0  0  0  0  0  0  0  0  0
    2.8660    3.9698    0.0000 C   0  0  0  0  0  0  0  0  0  0  0  0
    4.5981    3.9698    0.0000 C   0  0  0  0  0  0  0  0  0  0  0  0
    2.8660   -2.0302    0.0000 C   0  0  0  0  0  0  0  0  0  0  0  0
    3.7320    4.4698    0.0000 C   0  0  0  0  0  0  0  0  0  0  0  0
    4.5981   -2.0302    0.0000 C   0  0  0  0  0  0  0  0  0  0  0  0
    2.8660   -3.0302    0.0000 C   0  0  0  0  0  0  0  0  0  0  0  0
    2.0000   -1.5302    0.0000 C   0  0  0  0  0  0  0  0  0  0  0  0
    4.5981   -3.0302    0.0000 C   0  0  0  0  0  0  0  0  0  0  0  0
    3.7320   -3.5302    0.0000 C   0  0  0  0  0  0  0  0  0  0  0  0
   10.0290   -0.9208    0.0000 H   0  0  0  0  0  0  0  0  0  0  0  0
    9.4490   -2.7058    0.0000 H   0  0  0  0  0  0  0  0  0  0  0  0
   10.3780   -2.5203    0.0000 H   0  0  0  0  0  0  0  0  0  0  0  0
   10.6715   -1.6169    0.0000 H   0  0  0  0  0  0  0  0  0  0  0  0
    9.7294    0.1907    0.0000 H   0  0  0  0  0  0  0  0  0  0  0  0
    7.6279    0.6728    0.0000 H   0  0  0  0  0  0  0  0  0  0  0  0
    7.2359    3.0809    0.0000 H   0  0  0  0  0  0  0  0  0  0  0  0
    6.6807    2.4643    0.0000 H   0  0  0  0  0  0  0  0  0  0  0  0
    9.2220   -3.9922    0.0000 H   0  0  0  0  0  0  0  0  0  0  0  0
    7.3444   -1.9070    0.0000 H   0  0  0  0  0  0  0  0  0  0  0  0
    9.9548    1.7692    0.0000 H   0  0  0  0  0  0  0  0  0  0  0  0
   10.1818    2.6162    0.0000 H   0  0  0  0  0  0  0  0  0  0  0  0
    9.3348    2.8431    0.0000 H   0  0  0  0  0  0  0  0  0  0  0  0
    9.1071    0.6763    0.0000 H   0  0  0  0  0  0  0  0  0  0  0  0
    9.9827    0.7222    0.0000 H   0  0  0  0  0  0  0  0  0  0  0  0
    9.9368    1.5978    0.0000 H   0  0  0  0  0  0  0  0  0  0  0  0
    6.0010    1.7798    0.0000 H   0  0  0  0  0  0  0  0  0  0  0  0
    8.0181   -5.0762    0.0000 H   0  0  0  0  0  0  0  0  0  0  0  0
    6.1406   -2.9910    0.0000 H   0  0  0  0  0  0  0  0  0  0  0  0
    5.1350    0.6598    0.0000 H   0  0  0  0  0  0  0  0  0  0  0  0
    6.4774   -4.5756    0.0000 H   0  0  0  0  0  0  0  0  0  0  0  0
    3.1215    1.5774    0.0000 H   0  0  0  0  0  0  0  0  0  0  0  0
    3.5200    0.8871    0.0000 H   0  0  0  0  0  0  0  0  0  0  0  0
    5.1350   -0.3402    0.0000 H   0  0  0  0  0  0  0  0  0  0  0  0
    6.0010    2.7798    0.0000 H   0  0  0  0  0  0  0  0  0  0  0  0
    2.3291    2.6598    0.0000 H   0  0  0  0  0  0  0  0  0  0  0  0
    5.1350    2.6598    0.0000 H   0  0  0  0  0  0  0  0  0  0  0  0
    2.3291    4.2798    0.0000 H   0  0  0  0  0  0  0  0  0  0  0  0
    5.1350    4.2798    0.0000 H   0  0  0  0  0  0  0  0  0  0  0  0
    3.7320    5.0898    0.0000 H   0  0  0  0  0  0  0  0  0  0  0  0
    5.1350   -1.7202    0.0000 H   0  0  0  0  0  0  0  0  0  0  0  0
    2.3100   -0.9933    0.0000 H   0  0  0  0  0  0  0  0  0  0  0  0
    1.4631   -1.2202    0.0000 H   0  0  0  0  0  0  0  0  0  0  0  0
    1.6900   -2.0672    0.0000 H   0  0  0  0  0  0  0  0  0  0  0  0
    5.1350   -3.3402    0.0000 H   0  0  0  0  0  0  0  0  0  0  0  0
    3.7320   -4.1502    0.0000 H   0  0  0  0  0  0  0  0  0  0  0  0
    2.0000   -4.1502    0.0000 H   0  0  0  0  0  0  0  0  0  0  0  0
  1 15  1  0  0  0  0
  1 17  1  0  0  0  0
  2 16  2  0  0  0  0
  3 22  2  0  0  0  0
 23  4  1  6  0  0  0
  4 67  1  0  0  0  0
  5 30  2  0  0  0  0
  6 39  1  0  0  0  0
  6 79  1  0  0  0  0
 10  7  1  6  0  0  0
  7 16  1  0  0  0  0
  7 47  1  0  0  0  0
  8 14  1  0  0  0  0
  8 17  1  0  0  0  0
  8 22  1  0  0  0  0
 26  9  1  1  0  0  0
  9 30  1  0  0  0  0
  9 66  1  0  0  0  0
 10 11  1  0  0  0  0
 10 12  1  0  0  0  0
 10 43  1  0  0  0  0
 11 12  1  0  0  0  0
 11 13  1  1  0  0  0
 11 44  1  0  0  0  0
 12 45  1  0  0  0  0
 12 46  1  0  0  0  0
 13 18  2  0  0  0  0
 13 19  1  0  0  0  0
 14 15  1  0  0  0  0
 14 16  1  1  0  0  0
 14 48  1  0  0  0  0
 15 20  1  0  0  0  0
 15 21  1  0  0  0  0
 17 49  1  0  0  0  0
 17 50  1  0  0  0  0
 18 24  1  0  0  0  0
 18 51  1  0  0  0  0
 19 25  2  0  0  0  0
 19 52  1  0  0  0  0
 20 53  1  0  0  0  0
 20 54  1  0  0  0  0
 20 55  1  0  0  0  0
 21 56  1  0  0  0  0
 21 57  1  0  0  0  0
 21 58  1  0  0  0  0
 22 23  1  0  0  0  0
 23 26  1  0  0  0  0
 23 59  1  0  0  0  0
 24 27  2  0  0  0  0
 24 60  1  0  0  0  0
 25 27  1  0  0  0  0
 25 61  1  0  0  0  0
 26 28  1  0  0  0  0
 26 62  1  0  0  0  0
 27 63  1  0  0  0  0
 28 29  1  0  0  0  0
 28 64  1  0  0  0  0
 28 65  1  0  0  0  0
 29 31  2  0  0  0  0
 29 32  1  0  0  0  0
 30 33  1  0  0  0  0
 31 34  1  0  0  0  0
 31 68  1  0  0  0  0
 32 35  2  0  0  0  0
 32 69  1  0  0  0  0
 33 36  2  0  0  0  0
 33 38  1  0  0  0  0
 34 37  2  0  0  0  0
 34 70  1  0  0  0  0
 35 37  1  0  0  0  0
 35 71  1  0  0  0  0
 36 39  1  0  0  0  0
 36 40  1  0  0  0  0
 37 72  1  0  0  0  0
 38 41  2  0  0  0  0
 38 73  1  0  0  0  0
 39 42  2  0  0  0  0
 40 74  1  0  0  0  0
 40 75  1  0  0  0  0
 40 76  1  0  0  0  0
 41 42  1  0  0  0  0
 41 77  1  0  0  0  0
 42 78  1  0  0  0  0
M  END
> <PUBCHEM_COMPOUND_CID>
514485
> <PUBCHEM_COMPOUND_CANONICALIZED>
1
> <PUBCHEM_CACTVS_COMPLEXITY>
965
> <PUBCHEM_CACTVS_HBOND_ACCEPTOR>
6
> <PUBCHEM_CACTVS_HBOND_DONOR>
4
> <PUBCHEM_CACTVS_ROTATABLE_BOND>
9
> <PUBCHEM_CACTVS_SUBSKEYS>
AAADcfB/OABAAAAAAAAAAAAAGAAAAWAAAAAwYMAAAAAAAAABUAAAHgQQCAAADTzh2AayBoPAAgiIAiFSEAKCAABkIBAIiIHODMgKdjqi1TOUcQhk1hGYmYe6yPCOgAABAAAYAAAAAAIAADAAAAAAAAAAAA==
> <PUBCHEM_IUPAC_OPENEYE_NAME>
(4R)-3-[(2S,3S)-2-hydroxy-3-[(3-hydroxy-2-methyl-benzoyl)amino]-4-phenyl-butanoyl]-5,5-dimethyl-N-[(1R,2S)-2-phenylcyclopropyl]thiazolidine-4-carboxamide
> <PUBCHEM_IUPAC_CAS_NAME>
(4R)-3-[(2S,3S)-2-hydroxy-3-[[(3-hydroxy-2-methylphenyl)-oxomethyl]amino]-1-oxo-4-phenylbutyl]-5,5-dimethyl-N-[(1R,2S)-2-phenylcyclopropyl]-4-thiazolidinecarboxamide
> <PUBCHEM_IUPAC_NAME_MARKUP>
(4<I>R</I>)-3-[(2<I>S</I>,3<I>S</I>)-2-hydroxy-3-[(3-hydroxy-2-methylbenzoyl)amino]-4-phenylbutanoyl]-5,5-dimethyl-<I>N</I>-[(1<I>R</I>,2<I>S</I>)-2-phenylcyclopropyl]-1,3-thiazolidine-4-carboxamide
> <PUBCHEM_IUPAC_NAME>
(4R)-3-[(2S,3S)-2-hydroxy-3-[(3-hydroxy-2-methylbenzoyl)amino]-4-phenylbutanoyl]-5,5-dimethyl-N-[(1R,2S)-2-phenylcyclopropyl]-1,3-thiazolidine-4-carboxamide
> <PUBCHEM_IUPAC_SYSTEMATIC_NAME>
(4R)-5,5-dimethyl-3-[(2S,3S)-3-[(2-methyl-3-oxidanyl-phenyl)carbonylamino]-2-oxidanyl-4-phenyl-butanoyl]-N-[(1R,2S)-2-phenylcyclopropyl]-1,3-thiazolidine-4-carboxamide
> <PUBCHEM_IUPAC_TRADITIONAL_NAME>
(4R)-3-[(2S,3S)-2-hydroxy-3-[(3-hydroxy-2-methyl-benzoyl)amino]-4-phenyl-butanoyl]-5,5-dimethyl-N-[(1R,2S)-2-phenylcyclopropyl]thiazolidine-4-carboxamide
> <PUBCHEM_IUPAC_INCHI>
InChI=1S/C33H37N3O5S/c1-20-23(15-10-16-27(20)37)30(39)35-26(17-21-11-6-4-7-12-21)28(38)32(41)36-19-42-33(2,3)29(36)31(40)34-25-18-24(25)22-13-8-5-9-14-22/h4-16,24-26,28-29,37-38H,17-19H2,1-3H3,(H,34,40)(H,35,39)/t24-,25+,26-,28-,29+/m0/s1
> <PUBCHEM_IUPAC_INCHIKEY>
VPBHRWWZSKYZLO-QYQUYBGJSA-N
> <PUBCHEM_XLOGP3_AA>
4.6
> <PUBCHEM_EXACT_MASS>
587.24539246
> <PUBCHEM_MOLECULAR_FORMULA>
C33H37N3O5S
> <PUBCHEM_MOLECULAR_WEIGHT>
587.7
> <PUBCHEM_OPENEYE_CAN_SMILES>
CC1=C(C=CC=C1O)C(=O)NC(CC2=CC=CC=C2)C(C(=O)N3CSC(C3C(=O)NC4CC4C5=CC=CC=C5)(C)C)O
> <PUBCHEM_OPENEYE_ISO_SMILES>
CC1=C(C=CC=C1O)C(=O)N[C@@H](CC2=CC=CC=C2)[C@@H](C(=O)N3CSC([C@H]3C(=O)N[C@@H]4C[C@H]4C5=CC=CC=C5)(C)C)O
> <PUBCHEM_CACTVS_TPSA>
144
> <PUBCHEM_MONOISOTOPIC_WEIGHT>
587.24539246
> <PUBCHEM_TOTAL_CHARGE>
0
> <PUBCHEM_HEAVY_ATOM_COUNT>
42
> <PUBCHEM_ATOM_DEF_STEREO_COUNT>
5
> <PUBCHEM_ATOM_UDEF_STEREO_COUNT>
0
> <PUBCHEM_BOND_DEF_STEREO_COUNT>
0
> <PUBCHEM_BOND_UDEF_STEREO_COUNT>
0
> <PUBCHEM_ISOTOPIC_ATOM_COUNT>
0
> <PUBCHEM_COMPONENT_COUNT>
1
> <PUBCHEM_CACTVS_TAUTO_COUNT>
-1
> <PUBCHEM_COORDINATE_TYPE>
1
5
255
> <PUBCHEM_BONDANNOTATIONS>
11  13  5
13  18  8
13  19  8
14  16  5
18  24  8
19  25  8
24  27  8
25  27  8
29  31  8
29  32  8
31  34  8
32  35  8
33  36  8
33  38  8
34  37  8
35  37  8
36  39  8
38  41  8
39  42  8
23  4  6
41  42  8
10  7  6
26  9  5
$$$$
