514498
  -OEChem-10302200282D
 71 74  0     1  0  0  0  0  0999 V2000
    8.2788    2.5124    0.0000 S   0  0  0  0  0  0  0  0  0  0  0  0
   10.7367   -2.6221    0.0000 S   0  0  0  0  0  0  0  0  0  0  0  0
    5.4641    2.3100    0.0000 O   0  0  0  0  0  0  0  0  0  0  0  0
    6.3301   -0.1900    0.0000 O   0  0  0  0  0  0  0  0  0  0  0  0
    7.5745   -0.7440    0.0000 O   0  0  0  0  0  0  0  0  0  0  0  0
    2.8660   -0.1900    0.0000 O   0  0  0  0  0  0  0  0  0  0  0  0
    2.0000   -3.6900    0.0000 O   0  0  0  0  0  0  0  0  0  0  0  0
    7.1962    1.3100    0.0000 N   0  0  0  0  0  0  0  0  0  0  0  0
    9.2687   -0.3839    0.0000 N   0  0  0  0  0  0  0  0  0  0  0  0
    4.5981   -0.1900    0.0000 N   0  0  0  0  0  0  0  0  0  0  0  0
   11.2367   -1.0833    0.0000 N   0  0  0  0  0  0  0  0  0  0  0  0
    8.7788    1.6464    0.0000 C   0  0  0  0  0  0  0  0  0  0  0  0
    8.1097    0.9033    0.0000 C   0  0  1  0  0  0  0  0  0  0  0  0
    7.3007    2.3045    0.0000 C   0  0  0  0  0  0  0  0  0  0  0  0
    9.6448    2.1464    0.0000 C   0  0  0  0  0  0  0  0  0  0  0  0
    9.5220    0.9773    0.0000 C   0  0  0  0  0  0  0  0  0  0  0  0
    6.3301    0.8100    0.0000 C   0  0  0  0  0  0  0  0  0  0  0  0
    8.3176   -0.0749    0.0000 C   0  0  0  0  0  0  0  0  0  0  0  0
    5.4641    1.3100    0.0000 C   0  0  2  0  0  0  0  0  0  0  0  0
    4.5981    0.8100    0.0000 C   0  0  2  0  0  0  0  0  0  0  0  0
    3.7320    1.3100    0.0000 C   0  0  0  0  0  0  0  0  0  0  0  0
    9.4766   -1.3620    0.0000 C   0  0  0  0  0  0  0  0  0  0  0  0
    3.7320    2.3100    0.0000 C   0  0  0  0  0  0  0  0  0  0  0  0
    3.7320   -0.6900    0.0000 C   0  0  0  0  0  0  0  0  0  0  0  0
    2.8660    2.8100    0.0000 C   0  0  0  0  0  0  0  0  0  0  0  0
    4.5981    2.8100    0.0000 C   0  0  0  0  0  0  0  0  0  0  0  0
   10.4276   -1.6711    0.0000 C   0  0  0  0  0  0  0  0  0  0  0  0
    3.7320   -1.6900    0.0000 C   0  0  0  0  0  0  0  0  0  0  0  0
    2.8660    3.8100    0.0000 C   0  0  0  0  0  0  0  0  0  0  0  0
    4.5981    3.8100    0.0000 C   0  0  0  0  0  0  0  0  0  0  0  0
    2.8660   -2.1900    0.0000 C   0  0  0  0  0  0  0  0  0  0  0  0
    3.7320    4.3100    0.0000 C   0  0  0  0  0  0  0  0  0  0  0  0
    4.5981   -2.1900    0.0000 C   0  0  0  0  0  0  0  0  0  0  0  0
    2.8660   -3.1900    0.0000 C   0  0  0  0  0  0  0  0  0  0  0  0
    2.0000   -1.6900    0.0000 C   0  0  0  0  0  0  0  0  0  0  0  0
    4.5981   -3.1900    0.0000 C   0  0  0  0  0  0  0  0  0  0  0  0
   11.7367   -2.6221    0.0000 C   0  0  0  0  0  0  0  0  0  0  0  0
   12.0457   -1.6711    0.0000 C   0  0  0  0  0  0  0  0  0  0  0  0
    3.7320   -3.6900    0.0000 C   0  0  0  0  0  0  0  0  0  0  0  0
    7.6279    0.5131    0.0000 H   0  0  0  0  0  0  0  0  0  0  0  0
    7.2359    2.9211    0.0000 H   0  0  0  0  0  0  0  0  0  0  0  0
    6.6807    2.3045    0.0000 H   0  0  0  0  0  0  0  0  0  0  0  0
    9.9548    1.6095    0.0000 H   0  0  0  0  0  0  0  0  0  0  0  0
   10.1818    2.4564    0.0000 H   0  0  0  0  0  0  0  0  0  0  0  0
    9.3348    2.6833    0.0000 H   0  0  0  0  0  0  0  0  0  0  0  0
    9.1071    0.5165    0.0000 H   0  0  0  0  0  0  0  0  0  0  0  0
    9.9827    0.5624    0.0000 H   0  0  0  0  0  0  0  0  0  0  0  0
    9.9368    1.4380    0.0000 H   0  0  0  0  0  0  0  0  0  0  0  0
    6.0010    1.6200    0.0000 H   0  0  0  0  0  0  0  0  0  0  0  0
    5.1350    0.5000    0.0000 H   0  0  0  0  0  0  0  0  0  0  0  0
    3.1215    1.4177    0.0000 H   0  0  0  0  0  0  0  0  0  0  0  0
    3.5200    0.7274    0.0000 H   0  0  0  0  0  0  0  0  0  0  0  0
    9.7294    0.0310    0.0000 H   0  0  0  0  0  0  0  0  0  0  0  0
    5.1350   -0.5000    0.0000 H   0  0  0  0  0  0  0  0  0  0  0  0
    6.0010    2.6200    0.0000 H   0  0  0  0  0  0  0  0  0  0  0  0
    8.8570   -1.3837    0.0000 H   0  0  0  0  0  0  0  0  0  0  0  0
    9.3903   -1.9760    0.0000 H   0  0  0  0  0  0  0  0  0  0  0  0
    2.3291    2.5000    0.0000 H   0  0  0  0  0  0  0  0  0  0  0  0
    5.1350    2.5000    0.0000 H   0  0  0  0  0  0  0  0  0  0  0  0
    2.3291    4.1200    0.0000 H   0  0  0  0  0  0  0  0  0  0  0  0
    5.1350    4.1200    0.0000 H   0  0  0  0  0  0  0  0  0  0  0  0
    3.7320    4.9300    0.0000 H   0  0  0  0  0  0  0  0  0  0  0  0
    5.1350   -1.8800    0.0000 H   0  0  0  0  0  0  0  0  0  0  0  0
    2.3100   -1.1531    0.0000 H   0  0  0  0  0  0  0  0  0  0  0  0
    1.4631   -1.3800    0.0000 H   0  0  0  0  0  0  0  0  0  0  0  0
    1.6900   -2.2269    0.0000 H   0  0  0  0  0  0  0  0  0  0  0  0
    5.1350   -3.5000    0.0000 H   0  0  0  0  0  0  0  0  0  0  0  0
   12.1011   -3.1237    0.0000 H   0  0  0  0  0  0  0  0  0  0  0  0
   12.6353   -1.4795    0.0000 H   0  0  0  0  0  0  0  0  0  0  0  0
    3.7320   -4.3100    0.0000 H   0  0  0  0  0  0  0  0  0  0  0  0
    2.0000   -4.3100    0.0000 H   0  0  0  0  0  0  0  0  0  0  0  0
  1 12  1  0  0  0  0
  1 14  1  0  0  0  0
  2 27  1  0  0  0  0
  2 37  1  0  0  0  0
 19  3  1  6  0  0  0
  3 55  1  0  0  0  0
  4 17  2  0  0  0  0
  5 18  2  0  0  0  0
  6 24  2  0  0  0  0
  7 34  1  0  0  0  0
  7 71  1  0  0  0  0
  8 13  1  0  0  0  0
  8 14  1  0  0  0  0
  8 17  1  0  0  0  0
  9 18  1  0  0  0  0
  9 22  1  0  0  0  0
  9 53  1  0  0  0  0
 20 10  1  1  0  0  0
 10 24  1  0  0  0  0
 10 54  1  0  0  0  0
 11 27  2  0  0  0  0
 11 38  1  0  0  0  0
 12 13  1  0  0  0  0
 12 15  1  0  0  0  0
 12 16  1  0  0  0  0
 13 18  1  1  0  0  0
 13 40  1  0  0  0  0
 14 41  1  0  0  0  0
 14 42  1  0  0  0  0
 15 43  1  0  0  0  0
 15 44  1  0  0  0  0
 15 45  1  0  0  0  0
 16 46  1  0  0  0  0
 16 47  1  0  0  0  0
 16 48  1  0  0  0  0
 17 19  1  0  0  0  0
 19 20  1  0  0  0  0
 19 49  1  0  0  0  0
 20 21  1  0  0  0  0
 20 50  1  0  0  0  0
 21 23  1  0  0  0  0
 21 51  1  0  0  0  0
 21 52  1  0  0  0  0
 22 27  1  0  0  0  0
 22 56  1  0  0  0  0
 22 57  1  0  0  0  0
 23 25  2  0  0  0  0
 23 26  1  0  0  0  0
 24 28  1  0  0  0  0
 25 29  1  0  0  0  0
 25 58  1  0  0  0  0
 26 30  2  0  0  0  0
 26 59  1  0  0  0  0
 28 31  2  0  0  0  0
 28 33  1  0  0  0  0
 29 32  2  0  0  0  0
 29 60  1  0  0  0  0
 30 32  1  0  0  0  0
 30 61  1  0  0  0  0
 31 34  1  0  0  0  0
 31 35  1  0  0  0  0
 32 62  1  0  0  0  0
 33 36  2  0  0  0  0
 33 63  1  0  0  0  0
 34 39  2  0  0  0  0
 35 64  1  0  0  0  0
 35 65  1  0  0  0  0
 35 66  1  0  0  0  0
 36 39  1  0  0  0  0
 36 67  1  0  0  0  0
 37 38  2  0  0  0  0
 37 68  1  0  0  0  0
 38 69  1  0  0  0  0
 39 70  1  0  0  0  0
M  END
> <PUBCHEM_COMPOUND_CID>
514498
> <PUBCHEM_COMPOUND_CANONICALIZED>
1
> <PUBCHEM_CACTVS_COMPLEXITY>
871
> <PUBCHEM_CACTVS_HBOND_ACCEPTOR>
8
> <PUBCHEM_CACTVS_HBOND_DONOR>
4
> <PUBCHEM_CACTVS_ROTATABLE_BOND>
9
> <PUBCHEM_CACTVS_SUBSKEYS>
AAADcfB7uABgAAAAAAAAAAAAAAAAAWLAAAAwYAAAAAAAAAAB0AAAHgQQCAAADDzl2ga+h5PIEgisAjF3VAKC8KB1KjhIyI3eLMgKdjqi1TOUcQhk1hG4mYe6yLCOgAABAAAYAAAAAAIAADAAAAAAAAAAAA==
> <PUBCHEM_IUPAC_OPENEYE_NAME>
(4R)-3-[(2S,3S)-2-hydroxy-3-[(3-hydroxy-2-methyl-benzoyl)amino]-4-phenyl-butanoyl]-5,5-dimethyl-N-(thiazol-2-ylmethyl)thiazolidine-4-carboxamide
> <PUBCHEM_IUPAC_CAS_NAME>
(4R)-3-[(2S,3S)-2-hydroxy-3-[[(3-hydroxy-2-methylphenyl)-oxomethyl]amino]-1-oxo-4-phenylbutyl]-5,5-dimethyl-N-(2-thiazolylmethyl)-4-thiazolidinecarboxamide
> <PUBCHEM_IUPAC_NAME_MARKUP>
(4<I>R</I>)-3-[(2<I>S</I>,3<I>S</I>)-2-hydroxy-3-[(3-hydroxy-2-methylbenzoyl)amino]-4-phenylbutanoyl]-5,5-dimethyl-<I>N</I>-(1,3-thiazol-2-ylmethyl)-1,3-thiazolidine-4-carboxamide
> <PUBCHEM_IUPAC_NAME>
(4R)-3-[(2S,3S)-2-hydroxy-3-[(3-hydroxy-2-methylbenzoyl)amino]-4-phenylbutanoyl]-5,5-dimethyl-N-(1,3-thiazol-2-ylmethyl)-1,3-thiazolidine-4-carboxamide
> <PUBCHEM_IUPAC_SYSTEMATIC_NAME>
(4R)-5,5-dimethyl-3-[(2S,3S)-3-[(2-methyl-3-oxidanyl-phenyl)carbonylamino]-2-oxidanyl-4-phenyl-butanoyl]-N-(1,3-thiazol-2-ylmethyl)-1,3-thiazolidine-4-carboxamide
> <PUBCHEM_IUPAC_TRADITIONAL_NAME>
(4R)-3-[(2S,3S)-2-hydroxy-3-[(3-hydroxy-2-methyl-benzoyl)amino]-4-phenyl-butanoyl]-5,5-dimethyl-N-(thiazol-2-ylmethyl)thiazolidine-4-carboxamide
> <PUBCHEM_IUPAC_INCHI>
InChI=1S/C28H32N4O5S2/c1-17-19(10-7-11-21(17)33)25(35)31-20(14-18-8-5-4-6-9-18)23(34)27(37)32-16-39-28(2,3)24(32)26(36)30-15-22-29-12-13-38-22/h4-13,20,23-24,33-34H,14-16H2,1-3H3,(H,30,36)(H,31,35)/t20-,23-,24+/m0/s1
> <PUBCHEM_IUPAC_INCHIKEY>
QUQLYFYMFVBADA-NKKJXINNSA-N
> <PUBCHEM_XLOGP3_AA>
3.2
> <PUBCHEM_EXACT_MASS>
568.18141248
> <PUBCHEM_MOLECULAR_FORMULA>
C28H32N4O5S2
> <PUBCHEM_MOLECULAR_WEIGHT>
568.7
> <PUBCHEM_OPENEYE_CAN_SMILES>
CC1=C(C=CC=C1O)C(=O)NC(CC2=CC=CC=C2)C(C(=O)N3CSC(C3C(=O)NCC4=NC=CS4)(C)C)O
> <PUBCHEM_OPENEYE_ISO_SMILES>
CC1=C(C=CC=C1O)C(=O)N[C@@H](CC2=CC=CC=C2)[C@@H](C(=O)N3CSC([C@H]3C(=O)NCC4=NC=CS4)(C)C)O
> <PUBCHEM_CACTVS_TPSA>
185
> <PUBCHEM_MONOISOTOPIC_WEIGHT>
568.18141248
> <PUBCHEM_TOTAL_CHARGE>
0
> <PUBCHEM_HEAVY_ATOM_COUNT>
39
> <PUBCHEM_ATOM_DEF_STEREO_COUNT>
3
> <PUBCHEM_ATOM_UDEF_STEREO_COUNT>
0
> <PUBCHEM_BOND_DEF_STEREO_COUNT>
0
> <PUBCHEM_BOND_UDEF_STEREO_COUNT>
0
> <PUBCHEM_ISOTOPIC_ATOM_COUNT>
0
> <PUBCHEM_COMPONENT_COUNT>
1
> <PUBCHEM_CACTVS_TAUTO_COUNT>
-1
> <PUBCHEM_COORDINATE_TYPE>
1
5
255
> <PUBCHEM_BONDANNOTATIONS>
20  10  5
11  27  8
11  38  8
13  18  5
2  27  8
2  37  8
23  25  8
23  26  8
25  29  8
26  30  8
28  31  8
28  33  8
29  32  8
19  3  6
30  32  8
31  34  8
33  36  8
34  39  8
36  39  8
37  38  8
$$$$
