514459
  -OEChem-10302200282D
 82 86  0     1  0  0  0  0  0999 V2000
    3.2601   -0.8084    0.0000 S   0  0  0  0  0  0  0  0  0  0  0  0
    2.8940    2.2305    0.0000 O   0  0  0  0  0  0  0  0  0  0  0  0
    6.0554   -1.1956    0.0000 O   0  0  0  0  0  0  0  0  0  0  0  0
    5.7281    1.4298    0.0000 O   0  0  0  0  0  0  0  0  0  0  0  0
    6.7985   -1.8647    0.0000 O   0  0  0  0  0  0  0  0  0  0  0  0
    8.8200   -4.8503    0.0000 O   0  0  0  0  0  0  0  0  0  0  0  0
    4.5691    0.1427    0.0000 N   0  0  0  0  0  0  0  0  0  0  0  0
    4.6261    2.2305    0.0000 N   0  0  0  0  0  0  0  0  0  0  0  0
    7.9575   -0.5776    0.0000 N   0  0  0  0  0  0  0  0  0  0  0  0
    3.7601    0.7305    0.0000 C   0  0  1  0  0  0  0  0  0  0  0  0
    2.9511    0.1427    0.0000 C   0  0  0  0  0  0  0  0  0  0  0  0
    4.2601   -0.8084    0.0000 C   0  0  0  0  0  0  0  0  0  0  0  0
    4.6261    3.2305    0.0000 C   0  0  1  0  0  0  0  0  0  0  0  0
    3.7601    1.7305    0.0000 C   0  0  0  0  0  0  0  0  0  0  0  0
    2.0000   -0.1663    0.0000 C   0  0  0  0  0  0  0  0  0  0  0  0
    2.3633    0.9517    0.0000 C   0  0  0  0  0  0  0  0  0  0  0  0
    3.7601    3.7305    0.0000 C   0  0  0  0  0  0  0  0  0  0  0  0
    5.5202    0.4517    0.0000 C   0  0  0  0  0  0  0  0  0  0  0  0
    5.4921    3.7305    0.0000 C   0  0  0  0  0  0  0  0  0  0  0  0
    3.7601    4.7305    0.0000 C   0  0  0  0  0  0  0  0  0  0  0  0
    6.2633   -0.2174    0.0000 C   0  0  2  0  0  0  0  0  0  0  0  0
    4.6261    5.2305    0.0000 C   0  0  0  0  0  0  0  0  0  0  0  0
    5.4921    4.7305    0.0000 C   0  0  0  0  0  0  0  0  0  0  0  0
    7.2144    0.0916    0.0000 C   0  0  2  0  0  0  0  0  0  0  0  0
    6.3861    3.1958    0.0000 C   0  0  0  0  0  0  0  0  0  0  0  0
    7.4223    1.0697    0.0000 C   0  0  0  0  0  0  0  0  0  0  0  0
    6.3861    5.2651    0.0000 C   0  0  0  0  0  0  0  0  0  0  0  0
    7.2921    3.7096    0.0000 C   0  0  0  0  0  0  0  0  0  0  0  0
    7.2921    4.7513    0.0000 C   0  0  0  0  0  0  0  0  0  0  0  0
    8.3733    1.3787    0.0000 C   0  0  0  0  0  0  0  0  0  0  0  0
    7.7496   -1.5557    0.0000 C   0  0  0  0  0  0  0  0  0  0  0  0
    8.5812    2.3569    0.0000 C   0  0  0  0  0  0  0  0  0  0  0  0
    9.1165    0.7096    0.0000 C   0  0  0  0  0  0  0  0  0  0  0  0
    8.4927   -2.2248    0.0000 C   0  0  0  0  0  0  0  0  0  0  0  0
    9.5323    2.6659    0.0000 C   0  0  0  0  0  0  0  0  0  0  0  0
   10.0675    1.0186    0.0000 C   0  0  0  0  0  0  0  0  0  0  0  0
    8.2848   -3.2030    0.0000 C   0  0  0  0  0  0  0  0  0  0  0  0
   10.2754    1.9968    0.0000 C   0  0  0  0  0  0  0  0  0  0  0  0
    9.4438   -1.9158    0.0000 C   0  0  0  0  0  0  0  0  0  0  0  0
    9.0280   -3.8721    0.0000 C   0  0  0  0  0  0  0  0  0  0  0  0
    7.3338   -3.5120    0.0000 C   0  0  0  0  0  0  0  0  0  0  0  0
   10.1869   -2.5850    0.0000 C   0  0  0  0  0  0  0  0  0  0  0  0
    9.9790   -3.5631    0.0000 C   0  0  0  0  0  0  0  0  0  0  0  0
    4.3125    1.0119    0.0000 H   0  0  0  0  0  0  0  0  0  0  0  0
    4.1953   -1.4250    0.0000 H   0  0  0  0  0  0  0  0  0  0  0  0
    4.8665   -0.9373    0.0000 H   0  0  0  0  0  0  0  0  0  0  0  0
    5.1630    2.9205    0.0000 H   0  0  0  0  0  0  0  0  0  0  0  0
    1.8084    0.4233    0.0000 H   0  0  0  0  0  0  0  0  0  0  0  0
    1.4103   -0.3579    0.0000 H   0  0  0  0  0  0  0  0  0  0  0  0
    2.1916   -0.7560    0.0000 H   0  0  0  0  0  0  0  0  0  0  0  0
    2.8649    1.3161    0.0000 H   0  0  0  0  0  0  0  0  0  0  0  0
    1.9988    1.4533    0.0000 H   0  0  0  0  0  0  0  0  0  0  0  0
    1.8617    0.5873    0.0000 H   0  0  0  0  0  0  0  0  0  0  0  0
    3.1495    3.8381    0.0000 H   0  0  0  0  0  0  0  0  0  0  0  0
    3.5480    3.1478    0.0000 H   0  0  0  0  0  0  0  0  0  0  0  0
    5.1630    1.9205    0.0000 H   0  0  0  0  0  0  0  0  0  0  0  0
    3.5480    5.3131    0.0000 H   0  0  0  0  0  0  0  0  0  0  0  0
    3.1495    4.6228    0.0000 H   0  0  0  0  0  0  0  0  0  0  0  0
    5.6736   -0.4090    0.0000 H   0  0  0  0  0  0  0  0  0  0  0  0
    5.0246    5.7054    0.0000 H   0  0  0  0  0  0  0  0  0  0  0  0
    4.2276    5.7054    0.0000 H   0  0  0  0  0  0  0  0  0  0  0  0
    7.0854   -0.5149    0.0000 H   0  0  0  0  0  0  0  0  0  0  0  0
    6.3789    2.5758    0.0000 H   0  0  0  0  0  0  0  0  0  0  0  0
    7.3360    1.6837    0.0000 H   0  0  0  0  0  0  0  0  0  0  0  0
    6.8026    1.0914    0.0000 H   0  0  0  0  0  0  0  0  0  0  0  0
    6.3789    5.8851    0.0000 H   0  0  0  0  0  0  0  0  0  0  0  0
    8.5472   -0.3860    0.0000 H   0  0  0  0  0  0  0  0  0  0  0  0
    7.8279    3.3976    0.0000 H   0  0  0  0  0  0  0  0  0  0  0  0
    5.4657   -1.3872    0.0000 H   0  0  0  0  0  0  0  0  0  0  0  0
    7.8279    5.0633    0.0000 H   0  0  0  0  0  0  0  0  0  0  0  0
    8.1205    2.7718    0.0000 H   0  0  0  0  0  0  0  0  0  0  0  0
    8.9876    0.1032    0.0000 H   0  0  0  0  0  0  0  0  0  0  0  0
    9.6612    3.2724    0.0000 H   0  0  0  0  0  0  0  0  0  0  0  0
   10.5283    0.6038    0.0000 H   0  0  0  0  0  0  0  0  0  0  0  0
   10.8651    2.1884    0.0000 H   0  0  0  0  0  0  0  0  0  0  0  0
    9.5727   -1.3094    0.0000 H   0  0  0  0  0  0  0  0  0  0  0  0
    7.1422   -2.9223    0.0000 H   0  0  0  0  0  0  0  0  0  0  0  0
    6.7441   -3.7036    0.0000 H   0  0  0  0  0  0  0  0  0  0  0  0
    7.5254   -4.1016    0.0000 H   0  0  0  0  0  0  0  0  0  0  0  0
   10.7766   -2.3934    0.0000 H   0  0  0  0  0  0  0  0  0  0  0  0
   10.4398   -3.9780    0.0000 H   0  0  0  0  0  0  0  0  0  0  0  0
    9.2808   -5.2651    0.0000 H   0  0  0  0  0  0  0  0  0  0  0  0
  1 11  1  0  0  0  0
  1 12  1  0  0  0  0
  2 14  2  0  0  0  0
 21  3  1  6  0  0  0
  3 69  1  0  0  0  0
  4 18  2  0  0  0  0
  5 31  2  0  0  0  0
  6 40  1  0  0  0  0
  6 82  1  0  0  0  0
  7 10  1  0  0  0  0
  7 12  1  0  0  0  0
  7 18  1  0  0  0  0
 13  8  1  1  0  0  0
  8 14  1  0  0  0  0
  8 56  1  0  0  0  0
 24  9  1  6  0  0  0
  9 31  1  0  0  0  0
  9 67  1  0  0  0  0
 10 11  1  0  0  0  0
 10 14  1  1  0  0  0
 10 44  1  0  0  0  0
 11 15  1  0  0  0  0
 11 16  1  0  0  0  0
 12 45  1  0  0  0  0
 12 46  1  0  0  0  0
 13 17  1  0  0  0  0
 13 19  1  0  0  0  0
 13 47  1  0  0  0  0
 15 48  1  0  0  0  0
 15 49  1  0  0  0  0
 15 50  1  0  0  0  0
 16 51  1  0  0  0  0
 16 52  1  0  0  0  0
 16 53  1  0  0  0  0
 17 20  1  0  0  0  0
 17 54  1  0  0  0  0
 17 55  1  0  0  0  0
 18 21  1  0  0  0  0
 19 23  1  0  0  0  0
 19 25  2  0  0  0  0
 20 22  1  0  0  0  0
 20 57  1  0  0  0  0
 20 58  1  0  0  0  0
 21 24  1  0  0  0  0
 21 59  1  0  0  0  0
 22 23  1  0  0  0  0
 22 60  1  0  0  0  0
 22 61  1  0  0  0  0
 23 27  2  0  0  0  0
 24 26  1  0  0  0  0
 24 62  1  0  0  0  0
 25 28  1  0  0  0  0
 25 63  1  0  0  0  0
 26 30  1  0  0  0  0
 26 64  1  0  0  0  0
 26 65  1  0  0  0  0
 27 29  1  0  0  0  0
 27 66  1  0  0  0  0
 28 29  2  0  0  0  0
 28 68  1  0  0  0  0
 29 70  1  0  0  0  0
 30 32  2  0  0  0  0
 30 33  1  0  0  0  0
 31 34  1  0  0  0  0
 32 35  1  0  0  0  0
 32 71  1  0  0  0  0
 33 36  2  0  0  0  0
 33 72  1  0  0  0  0
 34 37  2  0  0  0  0
 34 39  1  0  0  0  0
 35 38  2  0  0  0  0
 35 73  1  0  0  0  0
 36 38  1  0  0  0  0
 36 74  1  0  0  0  0
 37 40  1  0  0  0  0
 37 41  1  0  0  0  0
 38 75  1  0  0  0  0
 39 42  2  0  0  0  0
 39 76  1  0  0  0  0
 40 43  2  0  0  0  0
 41 77  1  0  0  0  0
 41 78  1  0  0  0  0
 41 79  1  0  0  0  0
 42 43  1  0  0  0  0
 42 80  1  0  0  0  0
 43 81  1  0  0  0  0
M  END
> <PUBCHEM_COMPOUND_CID>
514459
> <PUBCHEM_COMPOUND_CANONICALIZED>
1
> <PUBCHEM_CACTVS_COMPLEXITY>
987
> <PUBCHEM_CACTVS_HBOND_ACCEPTOR>
6
> <PUBCHEM_CACTVS_HBOND_DONOR>
4
> <PUBCHEM_CACTVS_ROTATABLE_BOND>
8
> <PUBCHEM_CACTVS_SUBSKEYS>
AAADcfB/OABAAAAAAAAAAAAAAAAAAWAAAAAwYMGAAAAAAADBUAAAHgQQCAAADDzh2AayBoPAAgiIAiFSEAKCAABkIBAIiIHODMgKdjqi1TOUcQhk1hGYmYe6yLCOgAABAAAYAAAAAAKAADQAAAAAAAAAAA==
> <PUBCHEM_IUPAC_OPENEYE_NAME>
(4R)-3-[(2S,3S)-2-hydroxy-3-[(3-hydroxy-2-methyl-benzoyl)amino]-4-phenyl-butanoyl]-5,5-dimethyl-N-[(1S)-tetralin-1-yl]thiazolidine-4-carboxamide
> <PUBCHEM_IUPAC_CAS_NAME>
(4R)-3-[(2S,3S)-2-hydroxy-3-[[(3-hydroxy-2-methylphenyl)-oxomethyl]amino]-1-oxo-4-phenylbutyl]-5,5-dimethyl-N-[(1S)-1,2,3,4-tetrahydronaphthalen-1-yl]-4-thiazolidinecarboxamide
> <PUBCHEM_IUPAC_NAME_MARKUP>
(4<I>R</I>)-3-[(2<I>S</I>,3<I>S</I>)-2-hydroxy-3-[(3-hydroxy-2-methylbenzoyl)amino]-4-phenylbutanoyl]-5,5-dimethyl-<I>N</I>-[(1<I>S</I>)-1,2,3,4-tetrahydronaphthalen-1-yl]-1,3-thiazolidine-4-carboxamide
> <PUBCHEM_IUPAC_NAME>
(4R)-3-[(2S,3S)-2-hydroxy-3-[(3-hydroxy-2-methylbenzoyl)amino]-4-phenylbutanoyl]-5,5-dimethyl-N-[(1S)-1,2,3,4-tetrahydronaphthalen-1-yl]-1,3-thiazolidine-4-carboxamide
> <PUBCHEM_IUPAC_SYSTEMATIC_NAME>
(4R)-5,5-dimethyl-3-[(2S,3S)-3-[(2-methyl-3-oxidanyl-phenyl)carbonylamino]-2-oxidanyl-4-phenyl-butanoyl]-N-[(1S)-1,2,3,4-tetrahydronaphthalen-1-yl]-1,3-thiazolidine-4-carboxamide
> <PUBCHEM_IUPAC_TRADITIONAL_NAME>
(4R)-3-[(2S,3S)-2-hydroxy-3-[(3-hydroxy-2-methyl-benzoyl)amino]-4-phenyl-butanoyl]-5,5-dimethyl-N-[(1S)-tetralin-1-yl]thiazolidine-4-carboxamide
> <PUBCHEM_IUPAC_INCHI>
InChI=1S/C34H39N3O5S/c1-21-24(16-10-18-28(21)38)31(40)36-27(19-22-11-5-4-6-12-22)29(39)33(42)37-20-43-34(2,3)30(37)32(41)35-26-17-9-14-23-13-7-8-15-25(23)26/h4-8,10-13,15-16,18,26-27,29-30,38-39H,9,14,17,19-20H2,1-3H3,(H,35,41)(H,36,40)/t26-,27-,29-,30+/m0/s1
> <PUBCHEM_IUPAC_INCHIKEY>
XTQBNLZYRBLVDN-ZSEJKAPFSA-N
> <PUBCHEM_XLOGP3_AA>
4.9
> <PUBCHEM_EXACT_MASS>
601.26104253
> <PUBCHEM_MOLECULAR_FORMULA>
C34H39N3O5S
> <PUBCHEM_MOLECULAR_WEIGHT>
601.8
> <PUBCHEM_OPENEYE_CAN_SMILES>
CC1=C(C=CC=C1O)C(=O)NC(CC2=CC=CC=C2)C(C(=O)N3CSC(C3C(=O)NC4CCCC5=CC=CC=C45)(C)C)O
> <PUBCHEM_OPENEYE_ISO_SMILES>
CC1=C(C=CC=C1O)C(=O)N[C@@H](CC2=CC=CC=C2)[C@@H](C(=O)N3CSC([C@H]3C(=O)N[C@H]4CCCC5=CC=CC=C45)(C)C)O
> <PUBCHEM_CACTVS_TPSA>
144
> <PUBCHEM_MONOISOTOPIC_WEIGHT>
601.26104253
> <PUBCHEM_TOTAL_CHARGE>
0
> <PUBCHEM_HEAVY_ATOM_COUNT>
43
> <PUBCHEM_ATOM_DEF_STEREO_COUNT>
4
> <PUBCHEM_ATOM_UDEF_STEREO_COUNT>
0
> <PUBCHEM_BOND_DEF_STEREO_COUNT>
0
> <PUBCHEM_BOND_UDEF_STEREO_COUNT>
0
> <PUBCHEM_ISOTOPIC_ATOM_COUNT>
0
> <PUBCHEM_COMPONENT_COUNT>
1
> <PUBCHEM_CACTVS_TAUTO_COUNT>
-1
> <PUBCHEM_COORDINATE_TYPE>
1
5
255
> <PUBCHEM_BONDANNOTATIONS>
10  14  5
19  23  8
19  25  8
23  27  8
25  28  8
27  29  8
28  29  8
21  3  6
30  32  8
30  33  8
32  35  8
33  36  8
34  37  8
34  39  8
35  38  8
36  38  8
37  40  8
39  42  8
40  43  8
42  43  8
13  8  5
24  9  6
$$$$
