514410
  -OEChem-10302200282D
 83 87  0     1  0  0  0  0  0999 V2000
    4.5981   -0.2611    0.0000 S   0  0  0  0  0  0  0  0  0  0  0  0
    4.5981    2.7389    0.0000 O   0  0  0  0  0  0  0  0  0  0  0  0
    3.5981   -0.2611    0.0000 O   0  0  0  0  0  0  0  0  0  0  0  0
    5.5981   -0.2611    0.0000 O   0  0  0  0  0  0  0  0  0  0  0  0
    9.7942    2.7389    0.0000 O   0  0  0  0  0  0  0  0  0  0  0  0
    2.9950   -3.4282    0.0000 O   0  0  0  0  0  0  0  0  0  0  0  0
    8.0622    3.7389    0.0000 O   0  0  0  0  0  0  0  0  0  0  0  0
    4.5981    0.7389    0.0000 N   0  0  3  0  0  0  0  0  0  0  0  0
    7.1962    2.2389    0.0000 N   0  0  0  0  0  0  0  0  0  0  0  0
    4.3889   -4.2329    0.0000 N   0  0  0  0  0  0  0  0  0  0  0  0
   13.3385    0.9342    0.0000 N   0  0  0  0  0  0  0  0  0  0  0  0
   13.3385    2.5436    0.0000 N   0  0  0  0  0  0  0  0  0  0  0  0
    2.9002   -5.2020    0.0000 N   0  0  0  0  0  0  0  0  0  0  0  0
    5.4641    2.2389    0.0000 C   0  0  1  0  0  0  0  0  0  0  0  0
    6.3301    2.7389    0.0000 C   0  0  2  0  0  0  0  0  0  0  0  0
    5.4641    1.2389    0.0000 C   0  0  0  0  0  0  0  0  0  0  0  0
    3.7320    1.2389    0.0000 C   0  0  0  0  0  0  0  0  0  0  0  0
    2.8660    0.7389    0.0000 C   0  0  0  0  0  0  0  0  0  0  0  0
    6.3301    3.7389    0.0000 C   0  0  0  0  0  0  0  0  0  0  0  0
    4.5981   -1.2611    0.0000 C   0  0  0  0  0  0  0  0  0  0  0  0
    5.4641    4.2389    0.0000 C   0  0  0  0  0  0  0  0  0  0  0  0
    2.0000    1.2389    0.0000 C   0  0  0  0  0  0  0  0  0  0  0  0
    2.8660   -0.2611    0.0000 C   0  0  0  0  0  0  0  0  0  0  0  0
    8.0622    2.7389    0.0000 C   0  0  0  0  0  0  0  0  0  0  0  0
    3.7320   -1.7611    0.0000 C   0  0  0  0  0  0  0  0  0  0  0  0
    5.4641   -1.7611    0.0000 C   0  0  0  0  0  0  0  0  0  0  0  0
    4.5981    3.7389    0.0000 C   0  0  0  0  0  0  0  0  0  0  0  0
    5.4641    5.2389    0.0000 C   0  0  0  0  0  0  0  0  0  0  0  0
    8.9282    2.2389    0.0000 C   0  0  0  0  0  0  0  0  0  0  0  0
    3.7320   -2.7611    0.0000 C   0  0  0  0  0  0  0  0  0  0  0  0
    5.4641   -2.7611    0.0000 C   0  0  0  0  0  0  0  0  0  0  0  0
    4.5981   -3.2611    0.0000 C   0  0  0  0  0  0  0  0  0  0  0  0
    3.7320    4.2389    0.0000 C   0  0  0  0  0  0  0  0  0  0  0  0
    4.5981    5.7389    0.0000 C   0  0  0  0  0  0  0  0  0  0  0  0
    3.7320    5.2389    0.0000 C   0  0  0  0  0  0  0  0  0  0  0  0
   10.6603    2.2389    0.0000 C   0  0  0  0  0  0  0  0  0  0  0  0
   11.5263    2.7389    0.0000 C   0  0  0  0  0  0  0  0  0  0  0  0
   10.6603    1.2389    0.0000 C   0  0  0  0  0  0  0  0  0  0  0  0
    3.4002   -4.3360    0.0000 C   0  0  0  0  0  0  0  0  0  0  0  0
   12.3923    2.2389    0.0000 C   0  0  0  0  0  0  0  0  0  0  0  0
   12.3923    1.2389    0.0000 C   0  0  0  0  0  0  0  0  0  0  0  0
   11.5263    0.7389    0.0000 C   0  0  0  0  0  0  0  0  0  0  0  0
   11.5263    3.7389    0.0000 C   0  0  0  0  0  0  0  0  0  0  0  0
    9.7942    0.7389    0.0000 C   0  0  0  0  0  0  0  0  0  0  0  0
   13.9221    1.7389    0.0000 C   0  0  0  0  0  0  0  0  0  0  0  0
    5.4641    2.8589    0.0000 H   0  0  0  0  0  0  0  0  0  0  0  0
    6.8671    3.0489    0.0000 H   0  0  0  0  0  0  0  0  0  0  0  0
    5.6762    0.6563    0.0000 H   0  0  0  0  0  0  0  0  0  0  0  0
    6.0747    1.3466    0.0000 H   0  0  0  0  0  0  0  0  0  0  0  0
    4.1306    1.7139    0.0000 H   0  0  0  0  0  0  0  0  0  0  0  0
    3.3335    1.7139    0.0000 H   0  0  0  0  0  0  0  0  0  0  0  0
    2.8660    1.3589    0.0000 H   0  0  0  0  0  0  0  0  0  0  0  0
    6.9407    3.6312    0.0000 H   0  0  0  0  0  0  0  0  0  0  0  0
    6.5422    4.3215    0.0000 H   0  0  0  0  0  0  0  0  0  0  0  0
    7.1962    1.6189    0.0000 H   0  0  0  0  0  0  0  0  0  0  0  0
    2.3100    1.7758    0.0000 H   0  0  0  0  0  0  0  0  0  0  0  0
    1.4631    1.5489    0.0000 H   0  0  0  0  0  0  0  0  0  0  0  0
    1.6900    0.7020    0.0000 H   0  0  0  0  0  0  0  0  0  0  0  0
    2.2460   -0.2611    0.0000 H   0  0  0  0  0  0  0  0  0  0  0  0
    2.8660   -0.8811    0.0000 H   0  0  0  0  0  0  0  0  0  0  0  0
    3.4860   -0.2611    0.0000 H   0  0  0  0  0  0  0  0  0  0  0  0
    4.0611    2.4289    0.0000 H   0  0  0  0  0  0  0  0  0  0  0  0
    3.1951   -1.4511    0.0000 H   0  0  0  0  0  0  0  0  0  0  0  0
    6.0010   -1.4511    0.0000 H   0  0  0  0  0  0  0  0  0  0  0  0
    4.5981    3.1189    0.0000 H   0  0  0  0  0  0  0  0  0  0  0  0
    6.0010    5.5489    0.0000 H   0  0  0  0  0  0  0  0  0  0  0  0
    8.5297    1.7640    0.0000 H   0  0  0  0  0  0  0  0  0  0  0  0
    9.3267    1.7640    0.0000 H   0  0  0  0  0  0  0  0  0  0  0  0
    6.0010   -3.0711    0.0000 H   0  0  0  0  0  0  0  0  0  0  0  0
    3.1951    3.9289    0.0000 H   0  0  0  0  0  0  0  0  0  0  0  0
    4.5981    6.3589    0.0000 H   0  0  0  0  0  0  0  0  0  0  0  0
    3.1951    5.5489    0.0000 H   0  0  0  0  0  0  0  0  0  0  0  0
   11.5263    0.1189    0.0000 H   0  0  0  0  0  0  0  0  0  0  0  0
   12.1463    3.7389    0.0000 H   0  0  0  0  0  0  0  0  0  0  0  0
   11.5263    4.3589    0.0000 H   0  0  0  0  0  0  0  0  0  0  0  0
   10.9063    3.7389    0.0000 H   0  0  0  0  0  0  0  0  0  0  0  0
    9.4842    1.2758    0.0000 H   0  0  0  0  0  0  0  0  0  0  0  0
    9.2573    0.4289    0.0000 H   0  0  0  0  0  0  0  0  0  0  0  0
   10.1042    0.2020    0.0000 H   0  0  0  0  0  0  0  0  0  0  0  0
   13.5311    0.3449    0.0000 H   0  0  0  0  0  0  0  0  0  0  0  0
   14.5421    1.7389    0.0000 H   0  0  0  0  0  0  0  0  0  0  0  0
    3.2102   -5.7389    0.0000 H   0  0  0  0  0  0  0  0  0  0  0  0
    2.2802   -5.2020    0.0000 H   0  0  0  0  0  0  0  0  0  0  0  0
  1  3  2  0  0  0  0
  1  4  2  0  0  0  0
  1  8  1  0  0  0  0
  1 20  1  0  0  0  0
 14  2  1  1  0  0  0
  2 62  1  0  0  0  0
  5 29  1  0  0  0  0
  5 36  1  0  0  0  0
  6 30  1  0  0  0  0
  6 39  1  0  0  0  0
  7 24  2  0  0  0  0
  8 16  1  0  0  0  0
  8 17  1  0  0  0  0
 15  9  1  6  0  0  0
  9 24  1  0  0  0  0
  9 55  1  0  0  0  0
 10 32  1  0  0  0  0
 10 39  2  0  0  0  0
 11 41  1  0  0  0  0
 11 45  1  0  0  0  0
 11 80  1  0  0  0  0
 12 40  1  0  0  0  0
 12 45  2  0  0  0  0
 13 39  1  0  0  0  0
 13 82  1  0  0  0  0
 13 83  1  0  0  0  0
 14 15  1  0  0  0  0
 14 16  1  0  0  0  0
 14 46  1  0  0  0  0
 15 19  1  0  0  0  0
 15 47  1  0  0  0  0
 16 48  1  0  0  0  0
 16 49  1  0  0  0  0
 17 18  1  0  0  0  0
 17 50  1  0  0  0  0
 17 51  1  0  0  0  0
 18 22  1  0  0  0  0
 18 23  1  0  0  0  0
 18 52  1  0  0  0  0
 19 21  1  0  0  0  0
 19 53  1  0  0  0  0
 19 54  1  0  0  0  0
 20 25  2  0  0  0  0
 20 26  1  0  0  0  0
 21 27  2  0  0  0  0
 21 28  1  0  0  0  0
 22 56  1  0  0  0  0
 22 57  1  0  0  0  0
 22 58  1  0  0  0  0
 23 59  1  0  0  0  0
 23 60  1  0  0  0  0
 23 61  1  0  0  0  0
 24 29  1  0  0  0  0
 25 30  1  0  0  0  0
 25 63  1  0  0  0  0
 26 31  2  0  0  0  0
 26 64  1  0  0  0  0
 27 33  1  0  0  0  0
 27 65  1  0  0  0  0
 28 34  2  0  0  0  0
 28 66  1  0  0  0  0
 29 67  1  0  0  0  0
 29 68  1  0  0  0  0
 30 32  2  0  0  0  0
 31 32  1  0  0  0  0
 31 69  1  0  0  0  0
 33 35  2  0  0  0  0
 33 70  1  0  0  0  0
 34 35  1  0  0  0  0
 34 71  1  0  0  0  0
 35 72  1  0  0  0  0
 36 37  2  0  0  0  0
 36 38  1  0  0  0  0
 37 40  1  0  0  0  0
 37 43  1  0  0  0  0
 38 42  2  0  0  0  0
 38 44  1  0  0  0  0
 40 41  2  0  0  0  0
 41 42  1  0  0  0  0
 42 73  1  0  0  0  0
 43 74  1  0  0  0  0
 43 75  1  0  0  0  0
 43 76  1  0  0  0  0
 44 77  1  0  0  0  0
 44 78  1  0  0  0  0
 44 79  1  0  0  0  0
 45 81  1  0  0  0  0
M  END
> <PUBCHEM_COMPOUND_CID>
514410
> <PUBCHEM_COMPOUND_CANONICALIZED>
1
> <PUBCHEM_CACTVS_COMPLEXITY>
1070
> <PUBCHEM_CACTVS_HBOND_ACCEPTOR>
10
> <PUBCHEM_CACTVS_HBOND_DONOR>
4
> <PUBCHEM_CACTVS_ROTATABLE_BOND>
13
> <PUBCHEM_CACTVS_SUBSKEYS>
AAADcfB/uABAAAAAAAAAAAAAAAAAAWLAAAAwYMAAAAAAAFgB/gAAHgQQSAAADTzh3gY317bJlkKoA6VzdHbCiD2/cqAJ2bn/fNmOfrLE/b+feSju1hvY6ae42OMOCEQCRgAKECAQiASMABQgQAAAAAAAAA==
> <PUBCHEM_IUPAC_OPENEYE_NAME>
N-[(1S,2R)-3-[(2-amino-1,3-benzoxazol-6-yl)sulfonyl-isobutyl-amino]-1-benzyl-2-hydroxy-propyl]-2-[(4,6-dimethyl-1H-benzimidazol-5-yl)oxy]acetamide
> <PUBCHEM_IUPAC_CAS_NAME>
N-[(2S,3R)-4-[(2-amino-1,3-benzoxazol-6-yl)sulfonyl-(2-methylpropyl)amino]-3-hydroxy-1-phenylbutan-2-yl]-2-[(4,6-dimethyl-1H-benzimidazol-5-yl)oxy]acetamide
> <PUBCHEM_IUPAC_NAME_MARKUP>
<I>N</I>-[(2<I>S</I>,3<I>R</I>)-4-[(2-amino-1,3-benzoxazol-6-yl)sulfonyl-(2-methylpropyl)amino]-3-hydroxy-1-phenylbutan-2-yl]-2-[(4,6-dimethyl-1<I>H</I>-benzimidazol-5-yl)oxy]acetamide
> <PUBCHEM_IUPAC_NAME>
N-[(2S,3R)-4-[(2-amino-1,3-benzoxazol-6-yl)sulfonyl-(2-methylpropyl)amino]-3-hydroxy-1-phenylbutan-2-yl]-2-[(4,6-dimethyl-1H-benzimidazol-5-yl)oxy]acetamide
> <PUBCHEM_IUPAC_SYSTEMATIC_NAME>
N-[(2S,3R)-4-[(2-azanyl-1,3-benzoxazol-6-yl)sulfonyl-(2-methylpropyl)amino]-3-oxidanyl-1-phenyl-butan-2-yl]-2-[(4,6-dimethyl-1H-benzimidazol-5-yl)oxy]ethanamide
> <PUBCHEM_IUPAC_TRADITIONAL_NAME>
N-[(1S,2R)-3-[(2-amino-1,3-benzoxazol-6-yl)sulfonyl-isobutyl-amino]-1-benzyl-2-hydroxy-propyl]-2-[(4,6-dimethyl-1H-benzimidazol-5-yl)oxy]acetamide
> <PUBCHEM_IUPAC_INCHI>
InChI=1S/C32H38N6O6S/c1-19(2)15-38(45(41,42)23-10-11-24-28(14-23)44-32(33)37-24)16-27(39)25(13-22-8-6-5-7-9-22)36-29(40)17-43-31-20(3)12-26-30(21(31)4)35-18-34-26/h5-12,14,18-19,25,27,39H,13,15-17H2,1-4H3,(H2,33,37)(H,34,35)(H,36,40)/t25-,27+/m0/s1
> <PUBCHEM_IUPAC_INCHIKEY>
ZPOWPOYTMFGIBO-AHKZPQOWSA-N
> <PUBCHEM_XLOGP3_AA>
4.6
> <PUBCHEM_EXACT_MASS>
634.25735413
> <PUBCHEM_MOLECULAR_FORMULA>
C32H38N6O6S
> <PUBCHEM_MOLECULAR_WEIGHT>
634.7
> <PUBCHEM_OPENEYE_CAN_SMILES>
CC1=CC2=C(C(=C1OCC(=O)NC(CC3=CC=CC=C3)C(CN(CC(C)C)S(=O)(=O)C4=CC5=C(C=C4)N=C(O5)N)O)C)N=CN2
> <PUBCHEM_OPENEYE_ISO_SMILES>
CC1=CC2=C(C(=C1OCC(=O)N[C@@H](CC3=CC=CC=C3)[C@@H](CN(CC(C)C)S(=O)(=O)C4=CC5=C(C=C4)N=C(O5)N)O)C)N=CN2
> <PUBCHEM_CACTVS_TPSA>
185
> <PUBCHEM_MONOISOTOPIC_WEIGHT>
634.25735413
> <PUBCHEM_TOTAL_CHARGE>
0
> <PUBCHEM_HEAVY_ATOM_COUNT>
45
> <PUBCHEM_ATOM_DEF_STEREO_COUNT>
2
> <PUBCHEM_ATOM_UDEF_STEREO_COUNT>
0
> <PUBCHEM_BOND_DEF_STEREO_COUNT>
0
> <PUBCHEM_BOND_UDEF_STEREO_COUNT>
0
> <PUBCHEM_ISOTOPIC_ATOM_COUNT>
0
> <PUBCHEM_COMPONENT_COUNT>
1
> <PUBCHEM_CACTVS_TAUTO_COUNT>
-1
> <PUBCHEM_COORDINATE_TYPE>
1
5
255
> <PUBCHEM_BONDANNOTATIONS>
10  32  8
10  39  8
11  41  8
11  45  8
12  40  8
12  45  8
14  2  5
20  25  8
20  26  8
21  27  8
21  28  8
25  30  8
26  31  8
27  33  8
28  34  8
30  32  8
31  32  8
33  35  8
34  35  8
36  37  8
36  38  8
37  40  8
38  42  8
40  41  8
41  42  8
6  30  8
6  39  8
15  9  6
$$$$
