514518
  -OEChem-10302200282D
 79 83  0     1  0  0  0  0  0999 V2000
    9.4781   -1.3306    0.0000 S   0  0  0  0  0  0  0  0  0  0  0  0
    7.2508    0.4024    0.0000 O   0  0  0  0  0  0  0  0  0  0  0  0
    8.2756   -4.1453    0.0000 O   0  0  0  0  0  0  0  0  0  0  0  0
    6.2216   -2.0350    0.0000 O   0  0  0  0  0  0  0  0  0  0  0  0
    6.9418    1.3534    0.0000 O   0  0  0  0  0  0  0  0  0  0  0  0
    6.6839    4.9497    0.0000 O   0  0  0  0  0  0  0  0  0  0  0  0
    7.8689   -1.4997    0.0000 N   0  0  0  0  0  0  0  0  0  0  0  0
    6.7756   -3.2793    0.0000 N   0  0  0  0  0  0  0  0  0  0  0  0
    5.2946    0.8182    0.0000 N   0  0  0  0  0  0  0  0  0  0  0  0
    4.6920   -4.9501    0.0000 N   0  0  0  0  0  0  0  0  0  0  0  0
    9.2701   -2.3088    0.0000 C   0  0  0  0  0  0  0  0  0  0  0  0
    8.2756   -2.4133    0.0000 C   0  0  1  0  0  0  0  0  0  0  0  0
    8.6120   -0.8306    0.0000 C   0  0  0  0  0  0  0  0  0  0  0  0
   10.2483   -2.5167    0.0000 C   0  0  0  0  0  0  0  0  0  0  0  0
    9.3747   -3.3033    0.0000 C   0  0  0  0  0  0  0  0  0  0  0  0
    7.7756   -3.2793    0.0000 C   0  0  0  0  0  0  0  0  0  0  0  0
    6.8907   -1.2918    0.0000 C   0  0  0  0  0  0  0  0  0  0  0  0
    6.5817   -0.3408    0.0000 C   0  0  2  0  0  0  0  0  0  0  0  0
    5.6036   -0.1329    0.0000 C   0  0  2  0  0  0  0  0  0  0  0  0
    4.9344   -0.8760    0.0000 C   0  0  0  0  0  0  0  0  0  0  0  0
    6.2756   -4.1453    0.0000 C   0  0  0  0  0  0  0  0  0  0  0  0
    3.9563   -0.6681    0.0000 C   0  0  0  0  0  0  0  0  0  0  0  0
    5.2756   -4.1453    0.0000 C   0  0  0  0  0  0  0  0  0  0  0  0
    5.9637    1.5613    0.0000 C   0  0  0  0  0  0  0  0  0  0  0  0
    4.6920   -3.3406    0.0000 C   0  0  0  0  0  0  0  0  0  0  0  0
    3.2872   -1.4112    0.0000 C   0  0  0  0  0  0  0  0  0  0  0  0
    3.6473    0.2830    0.0000 C   0  0  0  0  0  0  0  0  0  0  0  0
    3.7458   -4.6453    0.0000 C   0  0  0  0  0  0  0  0  0  0  0  0
    3.7458   -3.6453    0.0000 C   0  0  0  0  0  0  0  0  0  0  0  0
    5.6547    2.5124    0.0000 C   0  0  0  0  0  0  0  0  0  0  0  0
    2.3090   -1.2033    0.0000 C   0  0  0  0  0  0  0  0  0  0  0  0
    2.6691    0.4909    0.0000 C   0  0  0  0  0  0  0  0  0  0  0  0
    6.3238    3.2555    0.0000 C   0  0  0  0  0  0  0  0  0  0  0  0
    2.0000   -0.2523    0.0000 C   0  0  0  0  0  0  0  0  0  0  0  0
    2.8798   -5.1453    0.0000 C   0  0  0  0  0  0  0  0  0  0  0  0
    2.8798   -3.1453    0.0000 C   0  0  0  0  0  0  0  0  0  0  0  0
    4.6765    2.7203    0.0000 C   0  0  0  0  0  0  0  0  0  0  0  0
    2.0137   -4.6453    0.0000 C   0  0  0  0  0  0  0  0  0  0  0  0
    2.0137   -3.6453    0.0000 C   0  0  0  0  0  0  0  0  0  0  0  0
    6.0148    4.2066    0.0000 C   0  0  0  0  0  0  0  0  0  0  0  0
    7.3020    3.0476    0.0000 C   0  0  0  0  0  0  0  0  0  0  0  0
    4.3675    3.6714    0.0000 C   0  0  0  0  0  0  0  0  0  0  0  0
    5.0366    4.4145    0.0000 C   0  0  0  0  0  0  0  0  0  0  0  0
    7.6565   -2.3808    0.0000 H   0  0  0  0  0  0  0  0  0  0  0  0
    8.9765   -0.3290    0.0000 H   0  0  0  0  0  0  0  0  0  0  0  0
    8.1513   -0.4158    0.0000 H   0  0  0  0  0  0  0  0  0  0  0  0
   10.1194   -3.1231    0.0000 H   0  0  0  0  0  0  0  0  0  0  0  0
   10.8547   -2.6456    0.0000 H   0  0  0  0  0  0  0  0  0  0  0  0
   10.3772   -1.9102    0.0000 H   0  0  0  0  0  0  0  0  0  0  0  0
    8.7581   -3.3681    0.0000 H   0  0  0  0  0  0  0  0  0  0  0  0
    9.4395   -3.9199    0.0000 H   0  0  0  0  0  0  0  0  0  0  0  0
    9.9913   -3.2385    0.0000 H   0  0  0  0  0  0  0  0  0  0  0  0
    6.3901    0.2489    0.0000 H   0  0  0  0  0  0  0  0  0  0  0  0
    4.9971   -0.0040    0.0000 H   0  0  0  0  0  0  0  0  0  0  0  0
    6.4656   -2.7424    0.0000 H   0  0  0  0  0  0  0  0  0  0  0  0
    4.7022   -1.4509    0.0000 H   0  0  0  0  0  0  0  0  0  0  0  0
    5.4602   -1.2046    0.0000 H   0  0  0  0  0  0  0  0  0  0  0  0
    6.1680   -4.7559    0.0000 H   0  0  0  0  0  0  0  0  0  0  0  0
    6.8582   -4.3574    0.0000 H   0  0  0  0  0  0  0  0  0  0  0  0
    4.6881    0.9471    0.0000 H   0  0  0  0  0  0  0  0  0  0  0  0
    7.8573    0.2735    0.0000 H   0  0  0  0  0  0  0  0  0  0  0  0
    4.8846   -5.5394    0.0000 H   0  0  0  0  0  0  0  0  0  0  0  0
    4.8846   -2.7513    0.0000 H   0  0  0  0  0  0  0  0  0  0  0  0
    3.4788   -2.0009    0.0000 H   0  0  0  0  0  0  0  0  0  0  0  0
    4.0621    0.7437    0.0000 H   0  0  0  0  0  0  0  0  0  0  0  0
    1.8942   -1.6641    0.0000 H   0  0  0  0  0  0  0  0  0  0  0  0
    2.4775    1.0805    0.0000 H   0  0  0  0  0  0  0  0  0  0  0  0
    1.3936   -0.1234    0.0000 H   0  0  0  0  0  0  0  0  0  0  0  0
    2.8798   -5.7653    0.0000 H   0  0  0  0  0  0  0  0  0  0  0  0
    2.8798   -2.5253    0.0000 H   0  0  0  0  0  0  0  0  0  0  0  0
    4.2617    2.2596    0.0000 H   0  0  0  0  0  0  0  0  0  0  0  0
    1.4768   -4.9553    0.0000 H   0  0  0  0  0  0  0  0  0  0  0  0
    1.4768   -3.3353    0.0000 H   0  0  0  0  0  0  0  0  0  0  0  0
    7.1730    2.4412    0.0000 H   0  0  0  0  0  0  0  0  0  0  0  0
    7.9084    2.9187    0.0000 H   0  0  0  0  0  0  0  0  0  0  0  0
    7.4308    3.6541    0.0000 H   0  0  0  0  0  0  0  0  0  0  0  0
    3.7610    3.8003    0.0000 H   0  0  0  0  0  0  0  0  0  0  0  0
    4.8450    5.0042    0.0000 H   0  0  0  0  0  0  0  0  0  0  0  0
    6.4923    5.5394    0.0000 H   0  0  0  0  0  0  0  0  0  0  0  0
  1 11  1  0  0  0  0
  1 13  1  0  0  0  0
 18  2  1  6  0  0  0
  2 61  1  0  0  0  0
  3 16  2  0  0  0  0
  4 17  2  0  0  0  0
  5 24  2  0  0  0  0
  6 40  1  0  0  0  0
  6 79  1  0  0  0  0
  7 12  1  0  0  0  0
  7 13  1  0  0  0  0
  7 17  1  0  0  0  0
  8 16  1  0  0  0  0
  8 21  1  0  0  0  0
  8 55  1  0  0  0  0
 19  9  1  6  0  0  0
  9 24  1  0  0  0  0
  9 60  1  0  0  0  0
 10 23  1  0  0  0  0
 10 28  1  0  0  0  0
 10 62  1  0  0  0  0
 11 12  1  0  0  0  0
 11 14  1  0  0  0  0
 11 15  1  0  0  0  0
 12 16  1  1  0  0  0
 12 44  1  0  0  0  0
 13 45  1  0  0  0  0
 13 46  1  0  0  0  0
 14 47  1  0  0  0  0
 14 48  1  0  0  0  0
 14 49  1  0  0  0  0
 15 50  1  0  0  0  0
 15 51  1  0  0  0  0
 15 52  1  0  0  0  0
 17 18  1  0  0  0  0
 18 19  1  0  0  0  0
 18 53  1  0  0  0  0
 19 20  1  0  0  0  0
 19 54  1  0  0  0  0
 20 22  1  0  0  0  0
 20 56  1  0  0  0  0
 20 57  1  0  0  0  0
 21 23  1  0  0  0  0
 21 58  1  0  0  0  0
 21 59  1  0  0  0  0
 22 26  2  0  0  0  0
 22 27  1  0  0  0  0
 23 25  2  0  0  0  0
 24 30  1  0  0  0  0
 25 29  1  0  0  0  0
 25 63  1  0  0  0  0
 26 31  1  0  0  0  0
 26 64  1  0  0  0  0
 27 32  2  0  0  0  0
 27 65  1  0  0  0  0
 28 29  1  0  0  0  0
 28 35  2  0  0  0  0
 29 36  2  0  0  0  0
 30 33  2  0  0  0  0
 30 37  1  0  0  0  0
 31 34  2  0  0  0  0
 31 66  1  0  0  0  0
 32 34  1  0  0  0  0
 32 67  1  0  0  0  0
 33 40  1  0  0  0  0
 33 41  1  0  0  0  0
 34 68  1  0  0  0  0
 35 38  1  0  0  0  0
 35 69  1  0  0  0  0
 36 39  1  0  0  0  0
 36 70  1  0  0  0  0
 37 42  2  0  0  0  0
 37 71  1  0  0  0  0
 38 39  2  0  0  0  0
 38 72  1  0  0  0  0
 39 73  1  0  0  0  0
 40 43  2  0  0  0  0
 41 74  1  0  0  0  0
 41 75  1  0  0  0  0
 41 76  1  0  0  0  0
 42 43  1  0  0  0  0
 42 77  1  0  0  0  0
 43 78  1  0  0  0  0
M  END
> <PUBCHEM_COMPOUND_CID>
514518
> <PUBCHEM_COMPOUND_CANONICALIZED>
1
> <PUBCHEM_CACTVS_COMPLEXITY>
990
> <PUBCHEM_CACTVS_HBOND_ACCEPTOR>
6
> <PUBCHEM_CACTVS_HBOND_DONOR>
5
> <PUBCHEM_CACTVS_ROTATABLE_BOND>
9
> <PUBCHEM_CACTVS_SUBSKEYS>
AAADcfB/uABAAAAAAAAAAAAAAAAAAWLAAAAwYMAAAAAAAFgB9AAAHgQQCAAADDzh3gayxvPJkgioAyVyVAKCgCBlIjAImaH+bNgKdvri1bOUcQhk1hHY2Ye6yLCOgAABAAAaAAAAAAIAADQAAAAAAAAAAA==
> <PUBCHEM_IUPAC_OPENEYE_NAME>
(4R)-3-[(2S,3S)-2-hydroxy-3-[(3-hydroxy-2-methyl-benzoyl)amino]-4-phenyl-butanoyl]-N-(1H-indol-2-ylmethyl)-5,5-dimethyl-thiazolidine-4-carboxamide
> <PUBCHEM_IUPAC_CAS_NAME>
(4R)-3-[(2S,3S)-2-hydroxy-3-[[(3-hydroxy-2-methylphenyl)-oxomethyl]amino]-1-oxo-4-phenylbutyl]-N-(1H-indol-2-ylmethyl)-5,5-dimethyl-4-thiazolidinecarboxamide
> <PUBCHEM_IUPAC_NAME_MARKUP>
(4<I>R</I>)-3-[(2<I>S</I>,3<I>S</I>)-2-hydroxy-3-[(3-hydroxy-2-methylbenzoyl)amino]-4-phenylbutanoyl]-<I>N</I>-(1<I>H</I>-indol-2-ylmethyl)-5,5-dimethyl-1,3-thiazolidine-4-carboxamide
> <PUBCHEM_IUPAC_NAME>
(4R)-3-[(2S,3S)-2-hydroxy-3-[(3-hydroxy-2-methylbenzoyl)amino]-4-phenylbutanoyl]-N-(1H-indol-2-ylmethyl)-5,5-dimethyl-1,3-thiazolidine-4-carboxamide
> <PUBCHEM_IUPAC_SYSTEMATIC_NAME>
(4R)-N-(1H-indol-2-ylmethyl)-5,5-dimethyl-3-[(2S,3S)-3-[(2-methyl-3-oxidanyl-phenyl)carbonylamino]-2-oxidanyl-4-phenyl-butanoyl]-1,3-thiazolidine-4-carboxamide
> <PUBCHEM_IUPAC_TRADITIONAL_NAME>
(4R)-3-[(2S,3S)-2-hydroxy-3-[(3-hydroxy-2-methyl-benzoyl)amino]-4-phenyl-butanoyl]-N-(1H-indol-2-ylmethyl)-5,5-dimethyl-thiazolidine-4-carboxamide
> <PUBCHEM_IUPAC_INCHI>
InChI=1S/C33H36N4O5S/c1-20-24(13-9-15-27(20)38)30(40)36-26(16-21-10-5-4-6-11-21)28(39)32(42)37-19-43-33(2,3)29(37)31(41)34-18-23-17-22-12-7-8-14-25(22)35-23/h4-15,17,26,28-29,35,38-39H,16,18-19H2,1-3H3,(H,34,41)(H,36,40)/t26-,28-,29+/m0/s1
> <PUBCHEM_IUPAC_INCHIKEY>
YFBVBGQDJOVXPT-PIZZNKLWSA-N
> <PUBCHEM_XLOGP3_AA>
4.3
> <PUBCHEM_EXACT_MASS>
600.24064144
> <PUBCHEM_MOLECULAR_FORMULA>
C33H36N4O5S
> <PUBCHEM_MOLECULAR_WEIGHT>
600.7
> <PUBCHEM_OPENEYE_CAN_SMILES>
CC1=C(C=CC=C1O)C(=O)NC(CC2=CC=CC=C2)C(C(=O)N3CSC(C3C(=O)NCC4=CC5=CC=CC=C5N4)(C)C)O
> <PUBCHEM_OPENEYE_ISO_SMILES>
CC1=C(C=CC=C1O)C(=O)N[C@@H](CC2=CC=CC=C2)[C@@H](C(=O)N3CSC([C@H]3C(=O)NCC4=CC5=CC=CC=C5N4)(C)C)O
> <PUBCHEM_CACTVS_TPSA>
160
> <PUBCHEM_MONOISOTOPIC_WEIGHT>
600.24064144
> <PUBCHEM_TOTAL_CHARGE>
0
> <PUBCHEM_HEAVY_ATOM_COUNT>
43
> <PUBCHEM_ATOM_DEF_STEREO_COUNT>
3
> <PUBCHEM_ATOM_UDEF_STEREO_COUNT>
0
> <PUBCHEM_BOND_DEF_STEREO_COUNT>
0
> <PUBCHEM_BOND_UDEF_STEREO_COUNT>
0
> <PUBCHEM_ISOTOPIC_ATOM_COUNT>
0
> <PUBCHEM_COMPONENT_COUNT>
1
> <PUBCHEM_CACTVS_TAUTO_COUNT>
-1
> <PUBCHEM_COORDINATE_TYPE>
1
5
255
> <PUBCHEM_BONDANNOTATIONS>
10  23  8
10  28  8
12  16  5
18  2  6
22  26  8
22  27  8
23  25  8
25  29  8
26  31  8
27  32  8
28  29  8
28  35  8
29  36  8
30  33  8
30  37  8
31  34  8
32  34  8
33  40  8
35  38  8
36  39  8
37  42  8
38  39  8
40  43  8
42  43  8
19  9  6
$$$$
