514583
  -OEChem-10302200282D
 71 73  0     1  0  0  0  0  0999 V2000
    8.1449   -0.6376    0.0000 S   0  0  0  0  0  0  0  0  0  0  0  0
    7.0826    1.9768    0.0000 O   0  0  0  0  0  0  0  0  0  0  0  0
    4.8302   -0.9740    0.0000 O   0  0  0  0  0  0  0  0  0  0  0  0
    4.9726    0.3806    0.0000 O   0  0  0  0  0  0  0  0  0  0  0  0
    6.7553    4.6022    0.0000 O   0  0  0  0  0  0  0  0  0  0  0  0
    7.2905    2.9550    0.0000 O   0  0  0  0  0  0  0  0  0  0  0  0
    4.8302   -6.9740    0.0000 O   0  0  0  0  0  0  0  0  0  0  0  0
    6.6668    0.0205    0.0000 N   0  0  0  0  0  0  0  0  0  0  0  0
    5.6962   -2.4740    0.0000 N   0  0  0  0  0  0  0  0  0  0  0  0
    5.5963    3.3151    0.0000 N   0  0  0  0  0  0  0  0  0  0  0  0
    7.4758   -1.3807    0.0000 C   0  0  0  0  0  0  0  0  0  0  0  0
    6.5622   -0.9740    0.0000 C   0  0  1  0  0  0  0  0  0  0  0  0
    7.6449    0.2284    0.0000 C   0  0  0  0  0  0  0  0  0  0  0  0
    8.2189   -2.0499    0.0000 C   0  0  0  0  0  0  0  0  0  0  0  0
    7.0691   -2.2943    0.0000 C   0  0  0  0  0  0  0  0  0  0  0  0
    5.6962   -1.4740    0.0000 C   0  0  0  0  0  0  0  0  0  0  0  0
    5.9236    0.6896    0.0000 C   0  0  0  0  0  0  0  0  0  0  0  0
    6.1316    1.6678    0.0000 C   0  0  2  0  0  0  0  0  0  0  0  0
    5.3884    2.3369    0.0000 C   0  0  2  0  0  0  0  0  0  0  0  0
    4.4374    2.0279    0.0000 C   0  0  0  0  0  0  0  0  0  0  0  0
    4.8302   -2.9740    0.0000 C   0  0  0  0  0  0  0  0  0  0  0  0
    3.6942    2.6970    0.0000 C   0  0  0  0  0  0  0  0  0  0  0  0
    4.8302   -3.9740    0.0000 C   0  0  0  0  0  0  0  0  0  0  0  0
    6.5474    3.6241    0.0000 C   0  0  0  0  0  0  0  0  0  0  0  0
    2.7431    2.3880    0.0000 C   0  0  0  0  0  0  0  0  0  0  0  0
    3.9021    3.6752    0.0000 C   0  0  0  0  0  0  0  0  0  0  0  0
    3.9642   -4.4740    0.0000 C   0  0  0  0  0  0  0  0  0  0  0  0
    5.6962   -4.4740    0.0000 C   0  0  0  0  0  0  0  0  0  0  0  0
    2.0000    3.0572    0.0000 C   0  0  0  0  0  0  0  0  0  0  0  0
    3.1590    4.3443    0.0000 C   0  0  0  0  0  0  0  0  0  0  0  0
    2.2079    4.0353    0.0000 C   0  0  0  0  0  0  0  0  0  0  0  0
    3.9642   -5.4740    0.0000 C   0  0  0  0  0  0  0  0  0  0  0  0
    5.6962   -5.4740    0.0000 C   0  0  0  0  0  0  0  0  0  0  0  0
    4.8302   -5.9740    0.0000 C   0  0  0  0  0  0  0  0  0  0  0  0
    7.7063    4.9113    0.0000 C   0  0  0  0  0  0  0  0  0  0  0  0
    7.9142    5.8894    0.0000 C   0  0  0  0  0  0  0  0  0  0  0  0
    3.9642   -7.4740    0.0000 C   0  0  0  0  0  0  0  0  0  0  0  0
    8.1222    6.8676    0.0000 C   0  0  0  0  0  0  0  0  0  0  0  0
    6.0423   -0.6363    0.0000 H   0  0  0  0  0  0  0  0  0  0  0  0
    8.2113    0.4806    0.0000 H   0  0  0  0  0  0  0  0  0  0  0  0
    7.4533    0.8181    0.0000 H   0  0  0  0  0  0  0  0  0  0  0  0
    7.8041   -2.5106    0.0000 H   0  0  0  0  0  0  0  0  0  0  0  0
    8.6797   -2.4647    0.0000 H   0  0  0  0  0  0  0  0  0  0  0  0
    8.6338   -1.5891    0.0000 H   0  0  0  0  0  0  0  0  0  0  0  0
    6.5027   -2.0421    0.0000 H   0  0  0  0  0  0  0  0  0  0  0  0
    6.8169   -2.8607    0.0000 H   0  0  0  0  0  0  0  0  0  0  0  0
    7.6355   -2.5465    0.0000 H   0  0  0  0  0  0  0  0  0  0  0  0
    6.2604    2.2742    0.0000 H   0  0  0  0  0  0  0  0  0  0  0  0
    4.9276    2.7518    0.0000 H   0  0  0  0  0  0  0  0  0  0  0  0
    6.2332   -2.7840    0.0000 H   0  0  0  0  0  0  0  0  0  0  0  0
    3.9488    1.6462    0.0000 H   0  0  0  0  0  0  0  0  0  0  0  0
    4.7284    1.4805    0.0000 H   0  0  0  0  0  0  0  0  0  0  0  0
    5.1356    3.7299    0.0000 H   0  0  0  0  0  0  0  0  0  0  0  0
    4.6182   -2.3914    0.0000 H   0  0  0  0  0  0  0  0  0  0  0  0
    4.2196   -3.0817    0.0000 H   0  0  0  0  0  0  0  0  0  0  0  0
    7.5434    1.5620    0.0000 H   0  0  0  0  0  0  0  0  0  0  0  0
    2.6142    1.7816    0.0000 H   0  0  0  0  0  0  0  0  0  0  0  0
    4.4918    3.8668    0.0000 H   0  0  0  0  0  0  0  0  0  0  0  0
    3.4272   -4.1640    0.0000 H   0  0  0  0  0  0  0  0  0  0  0  0
    6.2332   -4.1640    0.0000 H   0  0  0  0  0  0  0  0  0  0  0  0
    1.4103    2.8656    0.0000 H   0  0  0  0  0  0  0  0  0  0  0  0
    3.2879    4.9508    0.0000 H   0  0  0  0  0  0  0  0  0  0  0  0
    1.7472    4.4502    0.0000 H   0  0  0  0  0  0  0  0  0  0  0  0
    3.4272   -5.7840    0.0000 H   0  0  0  0  0  0  0  0  0  0  0  0
    6.2332   -5.7840    0.0000 H   0  0  0  0  0  0  0  0  0  0  0  0
    7.7926    4.2973    0.0000 H   0  0  0  0  0  0  0  0  0  0  0  0
    8.3260    4.8896    0.0000 H   0  0  0  0  0  0  0  0  0  0  0  0
    3.6542   -6.9371    0.0000 H   0  0  0  0  0  0  0  0  0  0  0  0
    3.4272   -7.7840    0.0000 H   0  0  0  0  0  0  0  0  0  0  0  0
    4.2742   -8.0109    0.0000 H   0  0  0  0  0  0  0  0  0  0  0  0
    8.2511    7.4740    0.0000 H   0  0  0  0  0  0  0  0  0  0  0  0
  1 11  1  0  0  0  0
  1 13  1  0  0  0  0
 18  2  1  6  0  0  0
  2 56  1  0  0  0  0
  3 16  2  0  0  0  0
  4 17  2  0  0  0  0
  5 24  1  0  0  0  0
  5 35  1  0  0  0  0
  6 24  2  0  0  0  0
  7 34  1  0  0  0  0
  7 37  1  0  0  0  0
  8 12  1  0  0  0  0
  8 13  1  0  0  0  0
  8 17  1  0  0  0  0
  9 16  1  0  0  0  0
  9 21  1  0  0  0  0
  9 50  1  0  0  0  0
 19 10  1  6  0  0  0
 10 24  1  0  0  0  0
 10 53  1  0  0  0  0
 11 12  1  0  0  0  0
 11 14  1  0  0  0  0
 11 15  1  0  0  0  0
 12 16  1  1  0  0  0
 12 39  1  0  0  0  0
 13 40  1  0  0  0  0
 13 41  1  0  0  0  0
 14 42  1  0  0  0  0
 14 43  1  0  0  0  0
 14 44  1  0  0  0  0
 15 45  1  0  0  0  0
 15 46  1  0  0  0  0
 15 47  1  0  0  0  0
 17 18  1  0  0  0  0
 18 19  1  0  0  0  0
 18 48  1  0  0  0  0
 19 20  1  0  0  0  0
 19 49  1  0  0  0  0
 20 22  1  0  0  0  0
 20 51  1  0  0  0  0
 20 52  1  0  0  0  0
 21 23  1  0  0  0  0
 21 54  1  0  0  0  0
 21 55  1  0  0  0  0
 22 25  2  0  0  0  0
 22 26  1  0  0  0  0
 23 27  2  0  0  0  0
 23 28  1  0  0  0  0
 25 29  1  0  0  0  0
 25 57  1  0  0  0  0
 26 30  2  0  0  0  0
 26 58  1  0  0  0  0
 27 32  1  0  0  0  0
 27 59  1  0  0  0  0
 28 33  2  0  0  0  0
 28 60  1  0  0  0  0
 29 31  2  0  0  0  0
 29 61  1  0  0  0  0
 30 31  1  0  0  0  0
 30 62  1  0  0  0  0
 31 63  1  0  0  0  0
 32 34  2  0  0  0  0
 32 64  1  0  0  0  0
 33 34  1  0  0  0  0
 33 65  1  0  0  0  0
 35 36  1  0  0  0  0
 35 66  1  0  0  0  0
 35 67  1  0  0  0  0
 36 38  3  0  0  0  0
 37 68  1  0  0  0  0
 37 69  1  0  0  0  0
 37 70  1  0  0  0  0
 38 71  1  0  0  0  0
M  END
> <PUBCHEM_COMPOUND_CID>
514583
> <PUBCHEM_COMPOUND_CANONICALIZED>
1
> <PUBCHEM_CACTVS_COMPLEXITY>
860
> <PUBCHEM_CACTVS_HBOND_ACCEPTOR>
7
> <PUBCHEM_CACTVS_HBOND_DONOR>
3
> <PUBCHEM_CACTVS_ROTATABLE_BOND>
11
> <PUBCHEM_CACTVS_SUBSKEYS>
AAADcfB7OABAAAAAAAAAAAAAAAAAAWAAAAAwYAAAAAAAAAABQAAAHgQQCAAADDzh2AayDoPABgjIGiFSGAKCCABgIBAIiIHODIkOdjqk8TuccChk1hGYqAeY2KKOIAAAAAAAAABAAAAAAAAAAAAAAAAAAA==
> <PUBCHEM_IUPAC_OPENEYE_NAME>
prop-2-ynyl N-[(1S,2S)-1-benzyl-2-hydroxy-3-[(4R)-4-[(4-methoxyphenyl)methylcarbamoyl]-5,5-dimethyl-thiazolidin-3-yl]-3-oxo-propyl]carbamate
> <PUBCHEM_IUPAC_CAS_NAME>
N-[(2S,3S)-3-hydroxy-4-[(4R)-4-[[(4-methoxyphenyl)methylamino]-oxomethyl]-5,5-dimethyl-3-thiazolidinyl]-4-oxo-1-phenylbutan-2-yl]carbamic acid prop-2-ynyl ester
> <PUBCHEM_IUPAC_NAME_MARKUP>
prop-2-ynyl <I>N</I>-[(2<I>S</I>,3<I>S</I>)-3-hydroxy-4-[(4<I>R</I>)-4-[(4-methoxyphenyl)methylcarbamoyl]-5,5-dimethyl-1,3-thiazolidin-3-yl]-4-oxo-1-phenylbutan-2-yl]carbamate
> <PUBCHEM_IUPAC_NAME>
prop-2-ynyl N-[(2S,3S)-3-hydroxy-4-[(4R)-4-[(4-methoxyphenyl)methylcarbamoyl]-5,5-dimethyl-1,3-thiazolidin-3-yl]-4-oxo-1-phenylbutan-2-yl]carbamate
> <PUBCHEM_IUPAC_SYSTEMATIC_NAME>
prop-2-ynyl N-[(2S,3S)-4-[(4R)-4-[(4-methoxyphenyl)methylcarbamoyl]-5,5-dimethyl-1,3-thiazolidin-3-yl]-3-oxidanyl-4-oxidanylidene-1-phenyl-butan-2-yl]carbamate
> <PUBCHEM_IUPAC_TRADITIONAL_NAME>
N-[(1S,2S)-1-benzyl-3-[(4R)-5,5-dimethyl-4-(p-anisylcarbamoyl)thiazolidin-3-yl]-2-hydroxy-3-keto-propyl]carbamic acid propargyl ester
> <PUBCHEM_IUPAC_INCHI>
InChI=1S/C28H33N3O6S/c1-5-15-37-27(35)30-22(16-19-9-7-6-8-10-19)23(32)26(34)31-18-38-28(2,3)24(31)25(33)29-17-20-11-13-21(36-4)14-12-20/h1,6-14,22-24,32H,15-18H2,2-4H3,(H,29,33)(H,30,35)/t22-,23-,24+/m0/s1
> <PUBCHEM_IUPAC_INCHIKEY>
VQBBWCYURJZQOG-KMDXXIMOSA-N
> <PUBCHEM_XLOGP3_AA>
2.9
> <PUBCHEM_EXACT_MASS>
539.20900695
> <PUBCHEM_MOLECULAR_FORMULA>
C28H33N3O6S
> <PUBCHEM_MOLECULAR_WEIGHT>
539.6
> <PUBCHEM_OPENEYE_CAN_SMILES>
CC1(C(N(CS1)C(=O)C(C(CC2=CC=CC=C2)NC(=O)OCC#C)O)C(=O)NCC3=CC=C(C=C3)OC)C
> <PUBCHEM_OPENEYE_ISO_SMILES>
CC1([C@H](N(CS1)C(=O)[C@H]([C@H](CC2=CC=CC=C2)NC(=O)OCC#C)O)C(=O)NCC3=CC=C(C=C3)OC)C
> <PUBCHEM_CACTVS_TPSA>
143
> <PUBCHEM_MONOISOTOPIC_WEIGHT>
539.20900695
> <PUBCHEM_TOTAL_CHARGE>
0
> <PUBCHEM_HEAVY_ATOM_COUNT>
38
> <PUBCHEM_ATOM_DEF_STEREO_COUNT>
3
> <PUBCHEM_ATOM_UDEF_STEREO_COUNT>
0
> <PUBCHEM_BOND_DEF_STEREO_COUNT>
0
> <PUBCHEM_BOND_UDEF_STEREO_COUNT>
0
> <PUBCHEM_ISOTOPIC_ATOM_COUNT>
0
> <PUBCHEM_COMPONENT_COUNT>
1
> <PUBCHEM_CACTVS_TAUTO_COUNT>
-1
> <PUBCHEM_COORDINATE_TYPE>
1
5
255
> <PUBCHEM_BONDANNOTATIONS>
19  10  6
12  16  5
18  2  6
22  25  8
22  26  8
23  27  8
23  28  8
25  29  8
26  30  8
27  32  8
28  33  8
29  31  8
30  31  8
32  34  8
33  34  8
$$$$
