514555
  -OEChem-10302200282D
 66 69  0     1  0  0  0  0  0999 V2000
    5.6895    2.3995    0.0000 S   0  0  0  0  0  0  0  0  0  0  0  0
    8.5042    2.1970    0.0000 O   0  0  0  0  0  0  0  0  0  0  0  0
    7.6382   -0.3030    0.0000 O   0  0  0  0  0  0  0  0  0  0  0  0
    6.3939   -0.8570    0.0000 O   0  0  0  0  0  0  0  0  0  0  0  0
   11.1023   -0.3030    0.0000 O   0  0  0  0  0  0  0  0  0  0  0  0
    6.7722    1.1970    0.0000 N   0  0  0  0  0  0  0  0  0  0  0  0
    4.6997   -0.4969    0.0000 N   0  0  0  0  0  0  0  0  0  0  0  0
    9.3703   -0.3030    0.0000 N   0  0  0  0  0  0  0  0  0  0  0  0
   12.0485   -3.6077    0.0000 N   0  0  0  0  0  0  0  0  0  0  0  0
   12.6321   -2.8030    0.0000 N   0  0  0  0  0  0  0  0  0  0  0  0
    5.1895    1.5334    0.0000 C   0  0  0  0  0  0  0  0  0  0  0  0
    5.8586    0.7903    0.0000 C   0  0  1  0  0  0  0  0  0  0  0  0
    6.6677    2.1916    0.0000 C   0  0  0  0  0  0  0  0  0  0  0  0
    4.3235    2.0334    0.0000 C   0  0  0  0  0  0  0  0  0  0  0  0
    4.4464    0.8643    0.0000 C   0  0  0  0  0  0  0  0  0  0  0  0
    7.6382    0.6970    0.0000 C   0  0  0  0  0  0  0  0  0  0  0  0
    5.6507   -0.1879    0.0000 C   0  0  0  0  0  0  0  0  0  0  0  0
    8.5042    1.1970    0.0000 C   0  0  2  0  0  0  0  0  0  0  0  0
    9.3703    0.6970    0.0000 C   0  0  2  0  0  0  0  0  0  0  0  0
   10.2363    1.1970    0.0000 C   0  0  0  0  0  0  0  0  0  0  0  0
   10.2363    2.1970    0.0000 C   0  0  0  0  0  0  0  0  0  0  0  0
    4.4918   -1.4750    0.0000 C   0  0  0  0  0  0  0  0  0  0  0  0
   10.2363   -0.8030    0.0000 C   0  0  0  0  0  0  0  0  0  0  0  0
    9.3703    2.6970    0.0000 C   0  0  0  0  0  0  0  0  0  0  0  0
   11.1023    2.6970    0.0000 C   0  0  0  0  0  0  0  0  0  0  0  0
   10.2363   -1.8030    0.0000 C   0  0  0  0  0  0  0  0  0  0  0  0
   11.1023   -2.3030    0.0000 C   0  0  0  0  0  0  0  0  0  0  0  0
    9.3703    3.6970    0.0000 C   0  0  0  0  0  0  0  0  0  0  0  0
   11.1023    3.6970    0.0000 C   0  0  0  0  0  0  0  0  0  0  0  0
    3.5407   -1.7840    0.0000 C   0  0  0  0  0  0  0  0  0  0  0  0
    9.3703   -2.3030    0.0000 C   0  0  0  0  0  0  0  0  0  0  0  0
   11.1023   -3.3030    0.0000 C   0  0  0  0  0  0  0  0  0  0  0  0
   10.2363    4.1970    0.0000 C   0  0  0  0  0  0  0  0  0  0  0  0
    9.3703   -3.3030    0.0000 C   0  0  0  0  0  0  0  0  0  0  0  0
   12.0485   -1.9982    0.0000 C   0  0  0  0  0  0  0  0  0  0  0  0
   10.2363   -3.8030    0.0000 C   0  0  0  0  0  0  0  0  0  0  0  0
    2.5896   -2.0931    0.0000 C   0  0  0  0  0  0  0  0  0  0  0  0
    6.3405    0.4001    0.0000 H   0  0  0  0  0  0  0  0  0  0  0  0
    7.2877    2.1916    0.0000 H   0  0  0  0  0  0  0  0  0  0  0  0
    6.7325    2.8082    0.0000 H   0  0  0  0  0  0  0  0  0  0  0  0
    4.6335    2.5704    0.0000 H   0  0  0  0  0  0  0  0  0  0  0  0
    3.7866    2.3434    0.0000 H   0  0  0  0  0  0  0  0  0  0  0  0
    4.0135    1.4965    0.0000 H   0  0  0  0  0  0  0  0  0  0  0  0
    4.0315    1.3250    0.0000 H   0  0  0  0  0  0  0  0  0  0  0  0
    3.9856    0.4494    0.0000 H   0  0  0  0  0  0  0  0  0  0  0  0
    4.8612    0.4036    0.0000 H   0  0  0  0  0  0  0  0  0  0  0  0
    7.9673    1.5070    0.0000 H   0  0  0  0  0  0  0  0  0  0  0  0
    9.9072    0.3870    0.0000 H   0  0  0  0  0  0  0  0  0  0  0  0
   10.4483    0.6144    0.0000 H   0  0  0  0  0  0  0  0  0  0  0  0
   10.8469    1.3047    0.0000 H   0  0  0  0  0  0  0  0  0  0  0  0
    4.2389   -0.0820    0.0000 H   0  0  0  0  0  0  0  0  0  0  0  0
    8.8333   -0.6130    0.0000 H   0  0  0  0  0  0  0  0  0  0  0  0
    7.9673    2.5070    0.0000 H   0  0  0  0  0  0  0  0  0  0  0  0
    4.5781   -2.0890    0.0000 H   0  0  0  0  0  0  0  0  0  0  0  0
    5.1114   -1.4967    0.0000 H   0  0  0  0  0  0  0  0  0  0  0  0
    8.8333    2.3870    0.0000 H   0  0  0  0  0  0  0  0  0  0  0  0
   11.6393    2.3870    0.0000 H   0  0  0  0  0  0  0  0  0  0  0  0
    8.8333    4.0070    0.0000 H   0  0  0  0  0  0  0  0  0  0  0  0
   11.6393    4.0070    0.0000 H   0  0  0  0  0  0  0  0  0  0  0  0
    8.8333   -1.9930    0.0000 H   0  0  0  0  0  0  0  0  0  0  0  0
   10.2363    4.8170    0.0000 H   0  0  0  0  0  0  0  0  0  0  0  0
    8.8333   -3.6130    0.0000 H   0  0  0  0  0  0  0  0  0  0  0  0
   12.2412   -1.4089    0.0000 H   0  0  0  0  0  0  0  0  0  0  0  0
   10.2363   -4.4230    0.0000 H   0  0  0  0  0  0  0  0  0  0  0  0
   12.2412   -4.1970    0.0000 H   0  0  0  0  0  0  0  0  0  0  0  0
    2.0000   -2.2846    0.0000 H   0  0  0  0  0  0  0  0  0  0  0  0
  1 11  1  0  0  0  0
  1 13  1  0  0  0  0
 18  2  1  1  0  0  0
  2 53  1  0  0  0  0
  3 16  2  0  0  0  0
  4 17  2  0  0  0  0
  5 23  2  0  0  0  0
  6 12  1  0  0  0  0
  6 13  1  0  0  0  0
  6 16  1  0  0  0  0
  7 17  1  0  0  0  0
  7 22  1  0  0  0  0
  7 51  1  0  0  0  0
 19  8  1  6  0  0  0
  8 23  1  0  0  0  0
  8 52  1  0  0  0  0
  9 10  1  0  0  0  0
  9 32  1  0  0  0  0
  9 65  1  0  0  0  0
 10 35  2  0  0  0  0
 11 12  1  0  0  0  0
 11 14  1  0  0  0  0
 11 15  1  0  0  0  0
 12 17  1  6  0  0  0
 12 38  1  0  0  0  0
 13 39  1  0  0  0  0
 13 40  1  0  0  0  0
 14 41  1  0  0  0  0
 14 42  1  0  0  0  0
 14 43  1  0  0  0  0
 15 44  1  0  0  0  0
 15 45  1  0  0  0  0
 15 46  1  0  0  0  0
 16 18  1  0  0  0  0
 18 19  1  0  0  0  0
 18 47  1  0  0  0  0
 19 20  1  0  0  0  0
 19 48  1  0  0  0  0
 20 21  1  0  0  0  0
 20 49  1  0  0  0  0
 20 50  1  0  0  0  0
 21 24  2  0  0  0  0
 21 25  1  0  0  0  0
 22 30  1  0  0  0  0
 22 54  1  0  0  0  0
 22 55  1  0  0  0  0
 23 26  1  0  0  0  0
 24 28  1  0  0  0  0
 24 56  1  0  0  0  0
 25 29  2  0  0  0  0
 25 57  1  0  0  0  0
 26 27  2  0  0  0  0
 26 31  1  0  0  0  0
 27 32  1  0  0  0  0
 27 35  1  0  0  0  0
 28 33  2  0  0  0  0
 28 58  1  0  0  0  0
 29 33  1  0  0  0  0
 29 59  1  0  0  0  0
 30 37  3  0  0  0  0
 31 34  2  0  0  0  0
 31 60  1  0  0  0  0
 32 36  2  0  0  0  0
 33 61  1  0  0  0  0
 34 36  1  0  0  0  0
 34 62  1  0  0  0  0
 35 63  1  0  0  0  0
 36 64  1  0  0  0  0
 37 66  1  0  0  0  0
M  END
> <PUBCHEM_COMPOUND_CID>
514555
> <PUBCHEM_COMPOUND_CANONICALIZED>
1
> <PUBCHEM_CACTVS_COMPLEXITY>
899
> <PUBCHEM_CACTVS_HBOND_ACCEPTOR>
6
> <PUBCHEM_CACTVS_HBOND_DONOR>
4
> <PUBCHEM_CACTVS_ROTATABLE_BOND>
8
> <PUBCHEM_CACTVS_SUBSKEYS>
AAADceB7uABAAAAAAAAAAAAAAAAAAWLAAAAwYAAAAAAAAFgB9AAAHgQYCAAADDzh3ga+wPPjAgjqGzV3UAKSBABkghAYuaH4ZNgKcLqg1fGU5QhkngCYyYecyKCOgAAAQAASAAAAAACAACQAAAAAAAAAAA==
> <PUBCHEM_IUPAC_OPENEYE_NAME>
(4R)-3-[(2S,3S)-2-hydroxy-3-(1H-indazole-4-carbonylamino)-4-phenyl-butanoyl]-5,5-dimethyl-N-prop-2-ynyl-thiazolidine-4-carboxamide
> <PUBCHEM_IUPAC_CAS_NAME>
(4R)-3-[(2S,3S)-2-hydroxy-3-[[1H-indazol-4-yl(oxo)methyl]amino]-1-oxo-4-phenylbutyl]-5,5-dimethyl-N-prop-2-ynyl-4-thiazolidinecarboxamide
> <PUBCHEM_IUPAC_NAME_MARKUP>
(4<I>R</I>)-3-[(2<I>S</I>,3<I>S</I>)-2-hydroxy-3-(1<I>H</I>-indazole-4-carbonylamino)-4-phenylbutanoyl]-5,5-dimethyl-<I>N</I>-prop-2-ynyl-1,3-thiazolidine-4-carboxamide
> <PUBCHEM_IUPAC_NAME>
(4R)-3-[(2S,3S)-2-hydroxy-3-(1H-indazole-4-carbonylamino)-4-phenylbutanoyl]-5,5-dimethyl-N-prop-2-ynyl-1,3-thiazolidine-4-carboxamide
> <PUBCHEM_IUPAC_SYSTEMATIC_NAME>
(4R)-3-[(2S,3S)-3-(1H-indazol-4-ylcarbonylamino)-2-oxidanyl-4-phenyl-butanoyl]-5,5-dimethyl-N-prop-2-ynyl-1,3-thiazolidine-4-carboxamide
> <PUBCHEM_IUPAC_TRADITIONAL_NAME>
(4R)-3-[(2S,3S)-2-hydroxy-3-(1H-indazole-4-carbonylamino)-4-phenyl-butanoyl]-5,5-dimethyl-N-propargyl-thiazolidine-4-carboxamide
> <PUBCHEM_IUPAC_INCHI>
InChI=1S/C27H29N5O4S/c1-4-13-28-25(35)23-27(2,3)37-16-32(23)26(36)22(33)21(14-17-9-6-5-7-10-17)30-24(34)18-11-8-12-20-19(18)15-29-31-20/h1,5-12,15,21-23,33H,13-14,16H2,2-3H3,(H,28,35)(H,29,31)(H,30,34)/t21-,22-,23+/m0/s1
> <PUBCHEM_IUPAC_INCHIKEY>
GBVPCMFSRPIEGB-RJGXRXQPSA-N
> <PUBCHEM_XLOGP3_AA>
2.4
> <PUBCHEM_EXACT_MASS>
519.19402560
> <PUBCHEM_MOLECULAR_FORMULA>
C27H29N5O4S
> <PUBCHEM_MOLECULAR_WEIGHT>
519.6
> <PUBCHEM_OPENEYE_CAN_SMILES>
CC1(C(N(CS1)C(=O)C(C(CC2=CC=CC=C2)NC(=O)C3=C4C=NNC4=CC=C3)O)C(=O)NCC#C)C
> <PUBCHEM_OPENEYE_ISO_SMILES>
CC1([C@H](N(CS1)C(=O)[C@H]([C@H](CC2=CC=CC=C2)NC(=O)C3=C4C=NNC4=CC=C3)O)C(=O)NCC#C)C
> <PUBCHEM_CACTVS_TPSA>
153
> <PUBCHEM_MONOISOTOPIC_WEIGHT>
519.19402560
> <PUBCHEM_TOTAL_CHARGE>
0
> <PUBCHEM_HEAVY_ATOM_COUNT>
37
> <PUBCHEM_ATOM_DEF_STEREO_COUNT>
3
> <PUBCHEM_ATOM_UDEF_STEREO_COUNT>
0
> <PUBCHEM_BOND_DEF_STEREO_COUNT>
0
> <PUBCHEM_BOND_UDEF_STEREO_COUNT>
0
> <PUBCHEM_ISOTOPIC_ATOM_COUNT>
0
> <PUBCHEM_COMPONENT_COUNT>
1
> <PUBCHEM_CACTVS_TAUTO_COUNT>
-1
> <PUBCHEM_COORDINATE_TYPE>
1
5
255
> <PUBCHEM_BONDANNOTATIONS>
10  35  8
12  17  6
18  2  5
21  24  8
21  25  8
24  28  8
25  29  8
26  27  8
26  31  8
27  32  8
27  35  8
28  33  8
29  33  8
31  34  8
32  36  8
34  36  8
19  8  6
9  10  8
9  32  8
$$$$
