514512
  -OEChem-10302200282D
 80 84  0     1  0  0  0  0  0999 V2000
    9.0154    1.3083    0.0000 S   0  0  0  0  0  0  0  0  0  0  0  0
    5.9009   -5.7651    0.0000 F   0  0  0  0  0  0  0  0  0  0  0  0
    4.1192   -2.7063    0.0000 F   0  0  0  0  0  0  0  0  0  0  0  0
    9.3814   -1.7305    0.0000 O   0  0  0  0  0  0  0  0  0  0  0  0
    6.2200    1.6956    0.0000 O   0  0  0  0  0  0  0  0  0  0  0  0
    6.5474   -0.9299    0.0000 O   0  0  0  0  0  0  0  0  0  0  0  0
    7.6493   -4.7305    0.0000 O   0  0  0  0  0  0  0  0  0  0  0  0
    5.4769    2.3647    0.0000 O   0  0  0  0  0  0  0  0  0  0  0  0
    3.4554    5.3502    0.0000 O   0  0  0  0  0  0  0  0  0  0  0  0
    7.7063    0.3573    0.0000 N   0  0  0  0  0  0  0  0  0  0  0  0
    7.6493   -1.7305    0.0000 N   0  0  0  0  0  0  0  0  0  0  0  0
    4.3179    1.0775    0.0000 N   0  0  0  0  0  0  0  0  0  0  0  0
    9.3244    0.3573    0.0000 C   0  0  0  0  0  0  0  0  0  0  0  0
    8.5154   -0.2305    0.0000 C   0  0  1  0  0  0  0  0  0  0  0  0
    8.0154    1.3083    0.0000 C   0  0  0  0  0  0  0  0  0  0  0  0
   10.2754    0.6663    0.0000 C   0  0  0  0  0  0  0  0  0  0  0  0
    9.9122   -0.4517    0.0000 C   0  0  0  0  0  0  0  0  0  0  0  0
    8.5154   -1.2305    0.0000 C   0  0  0  0  0  0  0  0  0  0  0  0
    6.7553    0.0483    0.0000 C   0  0  0  0  0  0  0  0  0  0  0  0
    6.0121    0.7174    0.0000 C   0  0  2  0  0  0  0  0  0  0  0  0
    7.6493   -2.7305    0.0000 C   0  0  1  0  0  0  0  0  0  0  0  0
    5.0611    0.4084    0.0000 C   0  0  2  0  0  0  0  0  0  0  0  0
    8.5154   -3.2305    0.0000 C   0  0  0  0  0  0  0  0  0  0  0  0
    6.7833   -3.2305    0.0000 C   0  0  0  0  0  0  0  0  0  0  0  0
    4.8532   -0.5698    0.0000 C   0  0  0  0  0  0  0  0  0  0  0  0
    8.5154   -4.2305    0.0000 C   0  0  0  0  0  0  0  0  0  0  0  0
    6.7833   -4.2305    0.0000 C   0  0  0  0  0  0  0  0  0  0  0  0
    5.8894   -2.6958    0.0000 C   0  0  0  0  0  0  0  0  0  0  0  0
    3.9021   -0.8788    0.0000 C   0  0  0  0  0  0  0  0  0  0  0  0
    5.8894   -4.7652    0.0000 C   0  0  0  0  0  0  0  0  0  0  0  0
    4.5258    2.0557    0.0000 C   0  0  0  0  0  0  0  0  0  0  0  0
    4.9833   -3.2097    0.0000 C   0  0  0  0  0  0  0  0  0  0  0  0
    4.9833   -4.2513    0.0000 C   0  0  0  0  0  0  0  0  0  0  0  0
    3.6942   -1.8569    0.0000 C   0  0  0  0  0  0  0  0  0  0  0  0
    3.1590   -0.2096    0.0000 C   0  0  0  0  0  0  0  0  0  0  0  0
    3.7827    2.7248    0.0000 C   0  0  0  0  0  0  0  0  0  0  0  0
    2.7431   -2.1659    0.0000 C   0  0  0  0  0  0  0  0  0  0  0  0
    2.2079   -0.5187    0.0000 C   0  0  0  0  0  0  0  0  0  0  0  0
    3.9906    3.7030    0.0000 C   0  0  0  0  0  0  0  0  0  0  0  0
    2.0000   -1.4968    0.0000 C   0  0  0  0  0  0  0  0  0  0  0  0
    2.8316    2.4158    0.0000 C   0  0  0  0  0  0  0  0  0  0  0  0
    3.2475    4.3721    0.0000 C   0  0  0  0  0  0  0  0  0  0  0  0
    4.9417    4.0120    0.0000 C   0  0  0  0  0  0  0  0  0  0  0  0
    2.0885    3.0849    0.0000 C   0  0  0  0  0  0  0  0  0  0  0  0
    2.2964    4.0631    0.0000 C   0  0  0  0  0  0  0  0  0  0  0  0
    7.9629   -0.5120    0.0000 H   0  0  0  0  0  0  0  0  0  0  0  0
    8.0802    1.9250    0.0000 H   0  0  0  0  0  0  0  0  0  0  0  0
    7.4089    1.4373    0.0000 H   0  0  0  0  0  0  0  0  0  0  0  0
   10.4670    0.0767    0.0000 H   0  0  0  0  0  0  0  0  0  0  0  0
   10.8651    0.8579    0.0000 H   0  0  0  0  0  0  0  0  0  0  0  0
   10.0838    1.2560    0.0000 H   0  0  0  0  0  0  0  0  0  0  0  0
    9.4106   -0.8162    0.0000 H   0  0  0  0  0  0  0  0  0  0  0  0
   10.2766   -0.9533    0.0000 H   0  0  0  0  0  0  0  0  0  0  0  0
   10.4137   -0.0873    0.0000 H   0  0  0  0  0  0  0  0  0  0  0  0
    6.6018    0.9090    0.0000 H   0  0  0  0  0  0  0  0  0  0  0  0
    8.1863   -2.4205    0.0000 H   0  0  0  0  0  0  0  0  0  0  0  0
    7.1124   -1.4205    0.0000 H   0  0  0  0  0  0  0  0  0  0  0  0
    5.1900    1.0148    0.0000 H   0  0  0  0  0  0  0  0  0  0  0  0
    9.1259   -3.3382    0.0000 H   0  0  0  0  0  0  0  0  0  0  0  0
    8.7274   -2.6479    0.0000 H   0  0  0  0  0  0  0  0  0  0  0  0
    4.9395   -1.1837    0.0000 H   0  0  0  0  0  0  0  0  0  0  0  0
    5.4728   -0.5914    0.0000 H   0  0  0  0  0  0  0  0  0  0  0  0
    8.7274   -4.8131    0.0000 H   0  0  0  0  0  0  0  0  0  0  0  0
    9.1259   -4.1228    0.0000 H   0  0  0  0  0  0  0  0  0  0  0  0
    3.7283    0.8859    0.0000 H   0  0  0  0  0  0  0  0  0  0  0  0
    6.8097    1.8872    0.0000 H   0  0  0  0  0  0  0  0  0  0  0  0
    5.8965   -2.0759    0.0000 H   0  0  0  0  0  0  0  0  0  0  0  0
    4.4476   -4.5634    0.0000 H   0  0  0  0  0  0  0  0  0  0  0  0
    4.1550   -2.2718    0.0000 H   0  0  0  0  0  0  0  0  0  0  0  0
    3.2879    0.3968    0.0000 H   0  0  0  0  0  0  0  0  0  0  0  0
    2.6142   -2.7724    0.0000 H   0  0  0  0  0  0  0  0  0  0  0  0
    1.7472   -0.1038    0.0000 H   0  0  0  0  0  0  0  0  0  0  0  0
    1.4103   -1.6884    0.0000 H   0  0  0  0  0  0  0  0  0  0  0  0
    2.7027    1.8093    0.0000 H   0  0  0  0  0  0  0  0  0  0  0  0
    5.1333    3.4223    0.0000 H   0  0  0  0  0  0  0  0  0  0  0  0
    5.5313    4.2036    0.0000 H   0  0  0  0  0  0  0  0  0  0  0  0
    4.7501    4.6016    0.0000 H   0  0  0  0  0  0  0  0  0  0  0  0
    1.4988    2.8933    0.0000 H   0  0  0  0  0  0  0  0  0  0  0  0
    1.8357    4.4779    0.0000 H   0  0  0  0  0  0  0  0  0  0  0  0
    2.9946    5.7651    0.0000 H   0  0  0  0  0  0  0  0  0  0  0  0
  1 13  1  0  0  0  0
  1 15  1  0  0  0  0
  2 30  1  0  0  0  0
  3 32  1  0  0  0  0
  4 18  2  0  0  0  0
 20  5  1  6  0  0  0
  5 66  1  0  0  0  0
  6 19  2  0  0  0  0
  7 26  1  0  0  0  0
  7 27  1  0  0  0  0
  8 31  2  0  0  0  0
  9 42  1  0  0  0  0
  9 80  1  0  0  0  0
 10 14  1  0  0  0  0
 10 15  1  0  0  0  0
 10 19  1  0  0  0  0
 11 18  1  0  0  0  0
 21 11  1  1  0  0  0
 11 57  1  0  0  0  0
 22 12  1  6  0  0  0
 12 31  1  0  0  0  0
 12 65  1  0  0  0  0
 13 14  1  0  0  0  0
 13 16  1  0  0  0  0
 13 17  1  0  0  0  0
 14 18  1  1  0  0  0
 14 46  1  0  0  0  0
 15 47  1  0  0  0  0
 15 48  1  0  0  0  0
 16 49  1  0  0  0  0
 16 50  1  0  0  0  0
 16 51  1  0  0  0  0
 17 52  1  0  0  0  0
 17 53  1  0  0  0  0
 17 54  1  0  0  0  0
 19 20  1  0  0  0  0
 20 22  1  0  0  0  0
 20 55  1  0  0  0  0
 21 23  1  0  0  0  0
 21 24  1  0  0  0  0
 21 56  1  0  0  0  0
 22 25  1  0  0  0  0
 22 58  1  0  0  0  0
 23 26  1  0  0  0  0
 23 59  1  0  0  0  0
 23 60  1  0  0  0  0
 24 27  2  0  0  0  0
 24 28  1  0  0  0  0
 25 29  1  0  0  0  0
 25 61  1  0  0  0  0
 25 62  1  0  0  0  0
 26 63  1  0  0  0  0
 26 64  1  0  0  0  0
 27 30  1  0  0  0  0
 28 32  2  0  0  0  0
 28 67  1  0  0  0  0
 29 34  2  0  0  0  0
 29 35  1  0  0  0  0
 30 33  2  0  0  0  0
 31 36  1  0  0  0  0
 32 33  1  0  0  0  0
 33 68  1  0  0  0  0
 34 37  1  0  0  0  0
 34 69  1  0  0  0  0
 35 38  2  0  0  0  0
 35 70  1  0  0  0  0
 36 39  2  0  0  0  0
 36 41  1  0  0  0  0
 37 40  2  0  0  0  0
 37 71  1  0  0  0  0
 38 40  1  0  0  0  0
 38 72  1  0  0  0  0
 39 42  1  0  0  0  0
 39 43  1  0  0  0  0
 40 73  1  0  0  0  0
 41 44  2  0  0  0  0
 41 74  1  0  0  0  0
 42 45  2  0  0  0  0
 43 75  1  0  0  0  0
 43 76  1  0  0  0  0
 43 77  1  0  0  0  0
 44 45  1  0  0  0  0
 44 78  1  0  0  0  0
 45 79  1  0  0  0  0
M  END
> <PUBCHEM_COMPOUND_CID>
514512
> <PUBCHEM_COMPOUND_CANONICALIZED>
1
> <PUBCHEM_CACTVS_COMPLEXITY>
1060
> <PUBCHEM_CACTVS_HBOND_ACCEPTOR>
9
> <PUBCHEM_CACTVS_HBOND_DONOR>
4
> <PUBCHEM_CACTVS_ROTATABLE_BOND>
8
> <PUBCHEM_CACTVS_SUBSKEYS>
AAADcfB/OYBAAAAAAAAAAAAAAAAAAWAAAAA0YMEAAAAAAACRUAAAHwQQCAAADDzh2A6yBoPABgiIAiFSEAKCCABkIBAIiIHODMgOdjqm9TuWeSjm1hGYuYe6yLCOgAABAAAYAAAAAAIAADAAAAAAAAAAAA==
> <PUBCHEM_IUPAC_OPENEYE_NAME>
(4R)-N-[(4S)-6,8-difluorochroman-4-yl]-3-[(2S,3S)-2-hydroxy-3-[(3-hydroxy-2-methyl-benzoyl)amino]-4-phenyl-butanoyl]-5,5-dimethyl-thiazolidine-4-carboxamide
> <PUBCHEM_IUPAC_CAS_NAME>
(4R)-N-[(4S)-6,8-difluoro-3,4-dihydro-2H-1-benzopyran-4-yl]-3-[(2S,3S)-2-hydroxy-3-[[(3-hydroxy-2-methylphenyl)-oxomethyl]amino]-1-oxo-4-phenylbutyl]-5,5-dimethyl-4-thiazolidinecarboxamide
> <PUBCHEM_IUPAC_NAME_MARKUP>
(4<I>R</I>)-<I>N</I>-[(4<I>S</I>)-6,8-difluoro-3,4-dihydro-2<I>H</I>-chromen-4-yl]-3-[(2<I>S</I>,3<I>S</I>)-2-hydroxy-3-[(3-hydroxy-2-methylbenzoyl)amino]-4-phenylbutanoyl]-5,5-dimethyl-1,3-thiazolidine-4-carboxamide
> <PUBCHEM_IUPAC_NAME>
(4R)-N-[(4S)-6,8-difluoro-3,4-dihydro-2H-chromen-4-yl]-3-[(2S,3S)-2-hydroxy-3-[(3-hydroxy-2-methylbenzoyl)amino]-4-phenylbutanoyl]-5,5-dimethyl-1,3-thiazolidine-4-carboxamide
> <PUBCHEM_IUPAC_SYSTEMATIC_NAME>
(4R)-N-[(4S)-6,8-bis(fluoranyl)-3,4-dihydro-2H-chromen-4-yl]-5,5-dimethyl-3-[(2S,3S)-3-[(2-methyl-3-oxidanyl-phenyl)carbonylamino]-2-oxidanyl-4-phenyl-butanoyl]-1,3-thiazolidine-4-carboxamide
> <PUBCHEM_IUPAC_TRADITIONAL_NAME>
(4R)-N-[(4S)-6,8-difluorochroman-4-yl]-3-[(2S,3S)-2-hydroxy-3-[(3-hydroxy-2-methyl-benzoyl)amino]-4-phenyl-butanoyl]-5,5-dimethyl-thiazolidine-4-carboxamide
> <PUBCHEM_IUPAC_INCHI>
InChI=1S/C33H35F2N3O6S/c1-18-21(10-7-11-26(18)39)30(41)37-25(14-19-8-5-4-6-9-19)27(40)32(43)38-17-45-33(2,3)29(38)31(42)36-24-12-13-44-28-22(24)15-20(34)16-23(28)35/h4-11,15-16,24-25,27,29,39-40H,12-14,17H2,1-3H3,(H,36,42)(H,37,41)/t24-,25-,27-,29+/m0/s1
> <PUBCHEM_IUPAC_INCHIKEY>
CNBZHRNURZTSOS-SEGPTPNXSA-N
> <PUBCHEM_XLOGP3_AA>
4.5
> <PUBCHEM_EXACT_MASS>
639.22146334
> <PUBCHEM_MOLECULAR_FORMULA>
C33H35F2N3O6S
> <PUBCHEM_MOLECULAR_WEIGHT>
639.7
> <PUBCHEM_OPENEYE_CAN_SMILES>
CC1=C(C=CC=C1O)C(=O)NC(CC2=CC=CC=C2)C(C(=O)N3CSC(C3C(=O)NC4CCOC5=C4C=C(C=C5F)F)(C)C)O
> <PUBCHEM_OPENEYE_ISO_SMILES>
CC1=C(C=CC=C1O)C(=O)N[C@@H](CC2=CC=CC=C2)[C@@H](C(=O)N3CSC([C@H]3C(=O)N[C@H]4CCOC5=C4C=C(C=C5F)F)(C)C)O
> <PUBCHEM_CACTVS_TPSA>
154
> <PUBCHEM_MONOISOTOPIC_WEIGHT>
639.22146334
> <PUBCHEM_TOTAL_CHARGE>
0
> <PUBCHEM_HEAVY_ATOM_COUNT>
45
> <PUBCHEM_ATOM_DEF_STEREO_COUNT>
4
> <PUBCHEM_ATOM_UDEF_STEREO_COUNT>
0
> <PUBCHEM_BOND_DEF_STEREO_COUNT>
0
> <PUBCHEM_BOND_UDEF_STEREO_COUNT>
0
> <PUBCHEM_ISOTOPIC_ATOM_COUNT>
0
> <PUBCHEM_COMPONENT_COUNT>
1
> <PUBCHEM_CACTVS_TAUTO_COUNT>
-1
> <PUBCHEM_COORDINATE_TYPE>
1
5
255
> <PUBCHEM_BONDANNOTATIONS>
21  11  5
22  12  6
14  18  5
24  27  8
24  28  8
27  30  8
28  32  8
29  34  8
29  35  8
30  33  8
32  33  8
34  37  8
35  38  8
36  39  8
36  41  8
37  40  8
38  40  8
39  42  8
41  44  8
42  45  8
44  45  8
20  5  6
$$$$
