514519
  -OEChem-10302200282D
 78 82  0     1  0  0  0  0  0999 V2000
    9.4781    0.9924    0.0000 S   0  0  0  0  0  0  0  0  0  0  0  0
    7.2508   -0.7406    0.0000 O   0  0  0  0  0  0  0  0  0  0  0  0
    6.2216    1.6968    0.0000 O   0  0  0  0  0  0  0  0  0  0  0  0
    8.2756    3.8071    0.0000 O   0  0  0  0  0  0  0  0  0  0  0  0
    4.6920    3.0024    0.0000 O   0  0  0  0  0  0  0  0  0  0  0  0
    6.9418   -1.6916    0.0000 O   0  0  0  0  0  0  0  0  0  0  0  0
    3.3894   -4.2175    0.0000 O   0  0  0  0  0  0  0  0  0  0  0  0
    7.8689    1.1615    0.0000 N   0  0  0  0  0  0  0  0  0  0  0  0
    6.7756    2.9411    0.0000 N   0  0  0  0  0  0  0  0  0  0  0  0
    5.2946   -1.1564    0.0000 N   0  0  0  0  0  0  0  0  0  0  0  0
    9.2701    1.9706    0.0000 C   0  0  0  0  0  0  0  0  0  0  0  0
    8.2756    2.0751    0.0000 C   0  0  1  0  0  0  0  0  0  0  0  0
    8.6120    0.4924    0.0000 C   0  0  0  0  0  0  0  0  0  0  0  0
   10.2483    2.1785    0.0000 C   0  0  0  0  0  0  0  0  0  0  0  0
    9.3747    2.9651    0.0000 C   0  0  0  0  0  0  0  0  0  0  0  0
    6.8907    0.9536    0.0000 C   0  0  0  0  0  0  0  0  0  0  0  0
    7.7756    2.9411    0.0000 C   0  0  0  0  0  0  0  0  0  0  0  0
    6.5817    0.0026    0.0000 C   0  0  2  0  0  0  0  0  0  0  0  0
    5.6036   -0.2053    0.0000 C   0  0  2  0  0  0  0  0  0  0  0  0
    4.9344    0.5378    0.0000 C   0  0  0  0  0  0  0  0  0  0  0  0
    6.2756    3.8071    0.0000 C   0  0  0  0  0  0  0  0  0  0  0  0
    3.9563    0.3299    0.0000 C   0  0  0  0  0  0  0  0  0  0  0  0
    5.2756    3.8071    0.0000 C   0  0  0  0  0  0  0  0  0  0  0  0
    5.9637   -1.8995    0.0000 C   0  0  0  0  0  0  0  0  0  0  0  0
    3.6473   -0.6212    0.0000 C   0  0  0  0  0  0  0  0  0  0  0  0
    3.2872    1.0730    0.0000 C   0  0  0  0  0  0  0  0  0  0  0  0
    5.6547   -2.8506    0.0000 C   0  0  0  0  0  0  0  0  0  0  0  0
    4.6920    4.6119    0.0000 C   0  0  0  0  0  0  0  0  0  0  0  0
    3.7458    4.3071    0.0000 C   0  0  0  0  0  0  0  0  0  0  0  0
    2.6691   -0.8291    0.0000 C   0  0  0  0  0  0  0  0  0  0  0  0
    2.3090    0.8651    0.0000 C   0  0  0  0  0  0  0  0  0  0  0  0
    3.7458    3.3071    0.0000 C   0  0  0  0  0  0  0  0  0  0  0  0
    4.6765   -3.0585    0.0000 C   0  0  0  0  0  0  0  0  0  0  0  0
    2.0000   -0.0859    0.0000 C   0  0  0  0  0  0  0  0  0  0  0  0
    6.3238   -3.5937    0.0000 C   0  0  0  0  0  0  0  0  0  0  0  0
    2.8798    4.8071    0.0000 C   0  0  0  0  0  0  0  0  0  0  0  0
    2.8798    2.8071    0.0000 C   0  0  0  0  0  0  0  0  0  0  0  0
    4.3675   -4.0096    0.0000 C   0  0  0  0  0  0  0  0  0  0  0  0
    4.0074   -2.3154    0.0000 C   0  0  0  0  0  0  0  0  0  0  0  0
    6.0148   -4.5448    0.0000 C   0  0  0  0  0  0  0  0  0  0  0  0
    5.0366   -4.7527    0.0000 C   0  0  0  0  0  0  0  0  0  0  0  0
    2.0137    4.3071    0.0000 C   0  0  0  0  0  0  0  0  0  0  0  0
    2.0137    3.3071    0.0000 C   0  0  0  0  0  0  0  0  0  0  0  0
    7.6565    2.0426    0.0000 H   0  0  0  0  0  0  0  0  0  0  0  0
    8.1513    0.0775    0.0000 H   0  0  0  0  0  0  0  0  0  0  0  0
    8.9765   -0.0092    0.0000 H   0  0  0  0  0  0  0  0  0  0  0  0
   10.3772    1.5720    0.0000 H   0  0  0  0  0  0  0  0  0  0  0  0
   10.8547    2.3074    0.0000 H   0  0  0  0  0  0  0  0  0  0  0  0
   10.1194    2.7849    0.0000 H   0  0  0  0  0  0  0  0  0  0  0  0
    9.9913    2.9003    0.0000 H   0  0  0  0  0  0  0  0  0  0  0  0
    9.4395    3.5817    0.0000 H   0  0  0  0  0  0  0  0  0  0  0  0
    8.7581    3.0299    0.0000 H   0  0  0  0  0  0  0  0  0  0  0  0
    6.3901   -0.5871    0.0000 H   0  0  0  0  0  0  0  0  0  0  0  0
    4.9971   -0.3342    0.0000 H   0  0  0  0  0  0  0  0  0  0  0  0
    6.4656    2.4042    0.0000 H   0  0  0  0  0  0  0  0  0  0  0  0
    5.4602    0.8664    0.0000 H   0  0  0  0  0  0  0  0  0  0  0  0
    4.7022    1.1127    0.0000 H   0  0  0  0  0  0  0  0  0  0  0  0
    4.6881   -1.2853    0.0000 H   0  0  0  0  0  0  0  0  0  0  0  0
    6.8582    4.0192    0.0000 H   0  0  0  0  0  0  0  0  0  0  0  0
    6.1680    4.4177    0.0000 H   0  0  0  0  0  0  0  0  0  0  0  0
    7.8573   -0.6117    0.0000 H   0  0  0  0  0  0  0  0  0  0  0  0
    4.0621   -1.0819    0.0000 H   0  0  0  0  0  0  0  0  0  0  0  0
    3.4788    1.6627    0.0000 H   0  0  0  0  0  0  0  0  0  0  0  0
    4.8846    5.2012    0.0000 H   0  0  0  0  0  0  0  0  0  0  0  0
    2.4775   -1.4187    0.0000 H   0  0  0  0  0  0  0  0  0  0  0  0
    1.8942    1.3259    0.0000 H   0  0  0  0  0  0  0  0  0  0  0  0
    1.3936   -0.2148    0.0000 H   0  0  0  0  0  0  0  0  0  0  0  0
    6.9302   -3.4648    0.0000 H   0  0  0  0  0  0  0  0  0  0  0  0
    2.8798    5.4271    0.0000 H   0  0  0  0  0  0  0  0  0  0  0  0
    2.8798    2.1871    0.0000 H   0  0  0  0  0  0  0  0  0  0  0  0
    4.4681   -1.9005    0.0000 H   0  0  0  0  0  0  0  0  0  0  0  0
    3.5925   -1.8546    0.0000 H   0  0  0  0  0  0  0  0  0  0  0  0
    3.5466   -2.7302    0.0000 H   0  0  0  0  0  0  0  0  0  0  0  0
    6.4296   -5.0056    0.0000 H   0  0  0  0  0  0  0  0  0  0  0  0
    4.8450   -5.3424    0.0000 H   0  0  0  0  0  0  0  0  0  0  0  0
    1.4768    4.6171    0.0000 H   0  0  0  0  0  0  0  0  0  0  0  0
    1.4768    2.9971    0.0000 H   0  0  0  0  0  0  0  0  0  0  0  0
    3.1978   -4.8071    0.0000 H   0  0  0  0  0  0  0  0  0  0  0  0
  1 11  1  0  0  0  0
  1 13  1  0  0  0  0
 18  2  1  1  0  0  0
  2 61  1  0  0  0  0
  3 16  2  0  0  0  0
  4 17  2  0  0  0  0
  5 23  1  0  0  0  0
  5 32  1  0  0  0  0
  6 24  2  0  0  0  0
  7 38  1  0  0  0  0
  7 78  1  0  0  0  0
  8 12  1  0  0  0  0
  8 13  1  0  0  0  0
  8 16  1  0  0  0  0
  9 17  1  0  0  0  0
  9 21  1  0  0  0  0
  9 55  1  0  0  0  0
 19 10  1  1  0  0  0
 10 24  1  0  0  0  0
 10 58  1  0  0  0  0
 11 12  1  0  0  0  0
 11 14  1  0  0  0  0
 11 15  1  0  0  0  0
 12 17  1  6  0  0  0
 12 44  1  0  0  0  0
 13 45  1  0  0  0  0
 13 46  1  0  0  0  0
 14 47  1  0  0  0  0
 14 48  1  0  0  0  0
 14 49  1  0  0  0  0
 15 50  1  0  0  0  0
 15 51  1  0  0  0  0
 15 52  1  0  0  0  0
 16 18  1  0  0  0  0
 18 19  1  0  0  0  0
 18 53  1  0  0  0  0
 19 20  1  0  0  0  0
 19 54  1  0  0  0  0
 20 22  1  0  0  0  0
 20 56  1  0  0  0  0
 20 57  1  0  0  0  0
 21 23  1  0  0  0  0
 21 59  1  0  0  0  0
 21 60  1  0  0  0  0
 22 25  2  0  0  0  0
 22 26  1  0  0  0  0
 23 28  2  0  0  0  0
 24 27  1  0  0  0  0
 25 30  1  0  0  0  0
 25 62  1  0  0  0  0
 26 31  2  0  0  0  0
 26 63  1  0  0  0  0
 27 33  2  0  0  0  0
 27 35  1  0  0  0  0
 28 29  1  0  0  0  0
 28 64  1  0  0  0  0
 29 32  1  0  0  0  0
 29 36  2  0  0  0  0
 30 34  2  0  0  0  0
 30 65  1  0  0  0  0
 31 34  1  0  0  0  0
 31 66  1  0  0  0  0
 32 37  2  0  0  0  0
 33 38  1  0  0  0  0
 33 39  1  0  0  0  0
 34 67  1  0  0  0  0
 35 40  2  0  0  0  0
 35 68  1  0  0  0  0
 36 42  1  0  0  0  0
 36 69  1  0  0  0  0
 37 43  1  0  0  0  0
 37 70  1  0  0  0  0
 38 41  2  0  0  0  0
 39 71  1  0  0  0  0
 39 72  1  0  0  0  0
 39 73  1  0  0  0  0
 40 41  1  0  0  0  0
 40 74  1  0  0  0  0
 41 75  1  0  0  0  0
 42 43  2  0  0  0  0
 42 76  1  0  0  0  0
 43 77  1  0  0  0  0
M  END
> <PUBCHEM_COMPOUND_CID>
514519
> <PUBCHEM_COMPOUND_CANONICALIZED>
1
> <PUBCHEM_CACTVS_COMPLEXITY>
990
> <PUBCHEM_CACTVS_HBOND_ACCEPTOR>
7
> <PUBCHEM_CACTVS_HBOND_DONOR>
4
> <PUBCHEM_CACTVS_ROTATABLE_BOND>
9
> <PUBCHEM_CACTVS_SUBSKEYS>
AAADcfB/OABAAAAAAAAAAAAAAAAAAWJAAAAwYMAAAAAAAEgB9AAAHgQQCAAADDzh2AayBsPABkiIAqFSEAKCCABkIBAIiIHODMgOdjqm9TuXeSjk1hGYuYe62bKOgAABAAAYAAAAAAIAADAAAAAAAAAAAA==
> <PUBCHEM_IUPAC_OPENEYE_NAME>
(4R)-N-(benzofuran-2-ylmethyl)-3-[(2S,3S)-2-hydroxy-3-[(3-hydroxy-2-methyl-benzoyl)amino]-4-phenyl-butanoyl]-5,5-dimethyl-thiazolidine-4-carboxamide
> <PUBCHEM_IUPAC_CAS_NAME>
(4R)-N-(2-benzofuranylmethyl)-3-[(2S,3S)-2-hydroxy-3-[[(3-hydroxy-2-methylphenyl)-oxomethyl]amino]-1-oxo-4-phenylbutyl]-5,5-dimethyl-4-thiazolidinecarboxamide
> <PUBCHEM_IUPAC_NAME_MARKUP>
(4<I>R</I>)-<I>N</I>-(1-benzofuran-2-ylmethyl)-3-[(2<I>S</I>,3<I>S</I>)-2-hydroxy-3-[(3-hydroxy-2-methylbenzoyl)amino]-4-phenylbutanoyl]-5,5-dimethyl-1,3-thiazolidine-4-carboxamide
> <PUBCHEM_IUPAC_NAME>
(4R)-N-(1-benzofuran-2-ylmethyl)-3-[(2S,3S)-2-hydroxy-3-[(3-hydroxy-2-methylbenzoyl)amino]-4-phenylbutanoyl]-5,5-dimethyl-1,3-thiazolidine-4-carboxamide
> <PUBCHEM_IUPAC_SYSTEMATIC_NAME>
(4R)-N-(1-benzofuran-2-ylmethyl)-5,5-dimethyl-3-[(2S,3S)-3-[(2-methyl-3-oxidanyl-phenyl)carbonylamino]-2-oxidanyl-4-phenyl-butanoyl]-1,3-thiazolidine-4-carboxamide
> <PUBCHEM_IUPAC_TRADITIONAL_NAME>
(4R)-N-(benzofuran-2-ylmethyl)-3-[(2S,3S)-2-hydroxy-3-[(3-hydroxy-2-methyl-benzoyl)amino]-4-phenyl-butanoyl]-5,5-dimethyl-thiazolidine-4-carboxamide
> <PUBCHEM_IUPAC_INCHI>
InChI=1S/C33H35N3O6S/c1-20-24(13-9-14-26(20)37)30(39)35-25(16-21-10-5-4-6-11-21)28(38)32(41)36-19-43-33(2,3)29(36)31(40)34-18-23-17-22-12-7-8-15-27(22)42-23/h4-15,17,25,28-29,37-38H,16,18-19H2,1-3H3,(H,34,40)(H,35,39)/t25-,28-,29+/m0/s1
> <PUBCHEM_IUPAC_INCHIKEY>
ZRDROKLLDCFCFX-OWPQXHQJSA-N
> <PUBCHEM_XLOGP3_AA>
4.6
> <PUBCHEM_EXACT_MASS>
601.22465702
> <PUBCHEM_MOLECULAR_FORMULA>
C33H35N3O6S
> <PUBCHEM_MOLECULAR_WEIGHT>
601.7
> <PUBCHEM_OPENEYE_CAN_SMILES>
CC1=C(C=CC=C1O)C(=O)NC(CC2=CC=CC=C2)C(C(=O)N3CSC(C3C(=O)NCC4=CC5=CC=CC=C5O4)(C)C)O
> <PUBCHEM_OPENEYE_ISO_SMILES>
CC1=C(C=CC=C1O)C(=O)N[C@@H](CC2=CC=CC=C2)[C@@H](C(=O)N3CSC([C@H]3C(=O)NCC4=CC5=CC=CC=C5O4)(C)C)O
> <PUBCHEM_CACTVS_TPSA>
157
> <PUBCHEM_MONOISOTOPIC_WEIGHT>
601.22465702
> <PUBCHEM_TOTAL_CHARGE>
0
> <PUBCHEM_HEAVY_ATOM_COUNT>
43
> <PUBCHEM_ATOM_DEF_STEREO_COUNT>
3
> <PUBCHEM_ATOM_UDEF_STEREO_COUNT>
0
> <PUBCHEM_BOND_DEF_STEREO_COUNT>
0
> <PUBCHEM_BOND_UDEF_STEREO_COUNT>
0
> <PUBCHEM_ISOTOPIC_ATOM_COUNT>
0
> <PUBCHEM_COMPONENT_COUNT>
1
> <PUBCHEM_CACTVS_TAUTO_COUNT>
-1
> <PUBCHEM_COORDINATE_TYPE>
1
5
255
> <PUBCHEM_BONDANNOTATIONS>
19  10  5
12  17  6
18  2  5
22  25  8
22  26  8
23  28  8
25  30  8
26  31  8
27  33  8
27  35  8
28  29  8
29  32  8
29  36  8
30  34  8
31  34  8
32  37  8
33  38  8
35  40  8
36  42  8
37  43  8
38  41  8
40  41  8
42  43  8
5  23  8
5  32  8
$$$$
