514544
  -OEChem-10302200282D
 68 71  0     1  0  0  0  0  0999 V2000
    4.3567    2.3995    0.0000 S   0  0  0  0  0  0  0  0  0  0  0  0
    7.1714    2.1970    0.0000 O   0  0  0  0  0  0  0  0  0  0  0  0
    6.3054   -0.3030    0.0000 O   0  0  0  0  0  0  0  0  0  0  0  0
    5.0611   -0.8570    0.0000 O   0  0  0  0  0  0  0  0  0  0  0  0
    9.7695   -0.3030    0.0000 O   0  0  0  0  0  0  0  0  0  0  0  0
    5.4394    1.1970    0.0000 N   0  0  0  0  0  0  0  0  0  0  0  0
    3.3669   -0.4969    0.0000 N   0  0  0  0  0  0  0  0  0  0  0  0
    8.0375   -0.3030    0.0000 N   0  0  0  0  0  0  0  0  0  0  0  0
   10.7157   -3.6077    0.0000 N   0  0  0  0  0  0  0  0  0  0  0  0
   11.2993   -2.8030    0.0000 N   0  0  0  0  0  0  0  0  0  0  0  0
    3.8567    1.5334    0.0000 C   0  0  0  0  0  0  0  0  0  0  0  0
    4.5258    0.7903    0.0000 C   0  0  1  0  0  0  0  0  0  0  0  0
    5.3349    2.1916    0.0000 C   0  0  0  0  0  0  0  0  0  0  0  0
    2.9907    2.0334    0.0000 C   0  0  0  0  0  0  0  0  0  0  0  0
    3.1136    0.8643    0.0000 C   0  0  0  0  0  0  0  0  0  0  0  0
    6.3054    0.6970    0.0000 C   0  0  0  0  0  0  0  0  0  0  0  0
    4.3179   -0.1879    0.0000 C   0  0  0  0  0  0  0  0  0  0  0  0
    7.1714    1.1970    0.0000 C   0  0  2  0  0  0  0  0  0  0  0  0
    8.0375    0.6970    0.0000 C   0  0  2  0  0  0  0  0  0  0  0  0
    8.9035    1.1970    0.0000 C   0  0  0  0  0  0  0  0  0  0  0  0
    8.9035    2.1970    0.0000 C   0  0  0  0  0  0  0  0  0  0  0  0
    3.1590   -1.4750    0.0000 C   0  0  0  0  0  0  0  0  0  0  0  0
    8.9035   -0.8030    0.0000 C   0  0  0  0  0  0  0  0  0  0  0  0
    8.0375    2.6970    0.0000 C   0  0  0  0  0  0  0  0  0  0  0  0
    9.7695    2.6970    0.0000 C   0  0  0  0  0  0  0  0  0  0  0  0
    8.9035   -1.8030    0.0000 C   0  0  0  0  0  0  0  0  0  0  0  0
    2.2079   -1.7840    0.0000 C   0  0  0  0  0  0  0  0  0  0  0  0
    9.7695   -2.3030    0.0000 C   0  0  0  0  0  0  0  0  0  0  0  0
    8.0375    3.6970    0.0000 C   0  0  0  0  0  0  0  0  0  0  0  0
    9.7695    3.6970    0.0000 C   0  0  0  0  0  0  0  0  0  0  0  0
    8.0375   -2.3030    0.0000 C   0  0  0  0  0  0  0  0  0  0  0  0
    8.9035    4.1970    0.0000 C   0  0  0  0  0  0  0  0  0  0  0  0
    9.7695   -3.3030    0.0000 C   0  0  0  0  0  0  0  0  0  0  0  0
    8.0375   -3.3030    0.0000 C   0  0  0  0  0  0  0  0  0  0  0  0
   10.7157   -1.9982    0.0000 C   0  0  0  0  0  0  0  0  0  0  0  0
    8.9035   -3.8030    0.0000 C   0  0  0  0  0  0  0  0  0  0  0  0
    2.0000   -2.7622    0.0000 C   0  0  0  0  0  0  0  0  0  0  0  0
    5.0077    0.4001    0.0000 H   0  0  0  0  0  0  0  0  0  0  0  0
    5.9549    2.1916    0.0000 H   0  0  0  0  0  0  0  0  0  0  0  0
    5.3997    2.8082    0.0000 H   0  0  0  0  0  0  0  0  0  0  0  0
    3.3007    2.5704    0.0000 H   0  0  0  0  0  0  0  0  0  0  0  0
    2.4538    2.3434    0.0000 H   0  0  0  0  0  0  0  0  0  0  0  0
    2.6807    1.4965    0.0000 H   0  0  0  0  0  0  0  0  0  0  0  0
    2.6987    1.3250    0.0000 H   0  0  0  0  0  0  0  0  0  0  0  0
    2.6528    0.4494    0.0000 H   0  0  0  0  0  0  0  0  0  0  0  0
    3.5284    0.4036    0.0000 H   0  0  0  0  0  0  0  0  0  0  0  0
    7.7084    1.5070    0.0000 H   0  0  0  0  0  0  0  0  0  0  0  0
    8.5744    0.3870    0.0000 H   0  0  0  0  0  0  0  0  0  0  0  0
    9.1156    0.6144    0.0000 H   0  0  0  0  0  0  0  0  0  0  0  0
    9.5141    1.3047    0.0000 H   0  0  0  0  0  0  0  0  0  0  0  0
    2.9061   -0.0820    0.0000 H   0  0  0  0  0  0  0  0  0  0  0  0
    7.5005   -0.6130    0.0000 H   0  0  0  0  0  0  0  0  0  0  0  0
    6.6345    2.5070    0.0000 H   0  0  0  0  0  0  0  0  0  0  0  0
    3.2453   -2.0890    0.0000 H   0  0  0  0  0  0  0  0  0  0  0  0
    3.7786   -1.4967    0.0000 H   0  0  0  0  0  0  0  0  0  0  0  0
    7.5005    2.3870    0.0000 H   0  0  0  0  0  0  0  0  0  0  0  0
   10.3065    2.3870    0.0000 H   0  0  0  0  0  0  0  0  0  0  0  0
    1.7472   -1.3692    0.0000 H   0  0  0  0  0  0  0  0  0  0  0  0
    7.5005    4.0070    0.0000 H   0  0  0  0  0  0  0  0  0  0  0  0
   10.3065    4.0070    0.0000 H   0  0  0  0  0  0  0  0  0  0  0  0
    7.5005   -1.9930    0.0000 H   0  0  0  0  0  0  0  0  0  0  0  0
    8.9035    4.8170    0.0000 H   0  0  0  0  0  0  0  0  0  0  0  0
    7.5005   -3.6130    0.0000 H   0  0  0  0  0  0  0  0  0  0  0  0
   10.9084   -1.4089    0.0000 H   0  0  0  0  0  0  0  0  0  0  0  0
    8.9035   -4.4230    0.0000 H   0  0  0  0  0  0  0  0  0  0  0  0
    1.4103   -2.9538    0.0000 H   0  0  0  0  0  0  0  0  0  0  0  0
    2.4608   -3.1770    0.0000 H   0  0  0  0  0  0  0  0  0  0  0  0
   10.9084   -4.1970    0.0000 H   0  0  0  0  0  0  0  0  0  0  0  0
  1 11  1  0  0  0  0
  1 13  1  0  0  0  0
 18  2  1  1  0  0  0
  2 53  1  0  0  0  0
  3 16  2  0  0  0  0
  4 17  2  0  0  0  0
  5 23  2  0  0  0  0
  6 12  1  0  0  0  0
  6 13  1  0  0  0  0
  6 16  1  0  0  0  0
  7 17  1  0  0  0  0
  7 22  1  0  0  0  0
  7 51  1  0  0  0  0
 19  8  1  6  0  0  0
  8 23  1  0  0  0  0
  8 52  1  0  0  0  0
  9 10  1  0  0  0  0
  9 33  1  0  0  0  0
  9 68  1  0  0  0  0
 10 35  2  0  0  0  0
 11 12  1  0  0  0  0
 11 14  1  0  0  0  0
 11 15  1  0  0  0  0
 12 17  1  6  0  0  0
 12 38  1  0  0  0  0
 13 39  1  0  0  0  0
 13 40  1  0  0  0  0
 14 41  1  0  0  0  0
 14 42  1  0  0  0  0
 14 43  1  0  0  0  0
 15 44  1  0  0  0  0
 15 45  1  0  0  0  0
 15 46  1  0  0  0  0
 16 18  1  0  0  0  0
 18 19  1  0  0  0  0
 18 47  1  0  0  0  0
 19 20  1  0  0  0  0
 19 48  1  0  0  0  0
 20 21  1  0  0  0  0
 20 49  1  0  0  0  0
 20 50  1  0  0  0  0
 21 24  2  0  0  0  0
 21 25  1  0  0  0  0
 22 27  1  0  0  0  0
 22 54  1  0  0  0  0
 22 55  1  0  0  0  0
 23 26  1  0  0  0  0
 24 29  1  0  0  0  0
 24 56  1  0  0  0  0
 25 30  2  0  0  0  0
 25 57  1  0  0  0  0
 26 28  2  0  0  0  0
 26 31  1  0  0  0  0
 27 37  2  0  0  0  0
 27 58  1  0  0  0  0
 28 33  1  0  0  0  0
 28 35  1  0  0  0  0
 29 32  2  0  0  0  0
 29 59  1  0  0  0  0
 30 32  1  0  0  0  0
 30 60  1  0  0  0  0
 31 34  2  0  0  0  0
 31 61  1  0  0  0  0
 32 62  1  0  0  0  0
 33 36  2  0  0  0  0
 34 36  1  0  0  0  0
 34 63  1  0  0  0  0
 35 64  1  0  0  0  0
 36 65  1  0  0  0  0
 37 66  1  0  0  0  0
 37 67  1  0  0  0  0
M  END
> <PUBCHEM_COMPOUND_CID>
514544
> <PUBCHEM_COMPOUND_CANONICALIZED>
1
> <PUBCHEM_CACTVS_COMPLEXITY>
849
> <PUBCHEM_CACTVS_HBOND_ACCEPTOR>
6
> <PUBCHEM_CACTVS_HBOND_DONOR>
4
> <PUBCHEM_CACTVS_ROTATABLE_BOND>
9
> <PUBCHEM_CACTVS_SUBSKEYS>
AAADceB7uABAAAAAAAAAAAAAAAAAAWLAAAAwYAAAAAAAAFgB9AAAHgQYCAAADDzh3ga+wPPjAgiqAzV3UAKSBABkghAYuaH4ZNgKcLqg1fGU5QhkngCYyYecyKCOgAAAQAASAAAAAACAACQAAAAAAAAAAA==
> <PUBCHEM_IUPAC_OPENEYE_NAME>
(4R)-N-allyl-3-[(2S,3S)-2-hydroxy-3-(1H-indazole-4-carbonylamino)-4-phenyl-butanoyl]-5,5-dimethyl-thiazolidine-4-carboxamide
> <PUBCHEM_IUPAC_CAS_NAME>
(4R)-3-[(2S,3S)-2-hydroxy-3-[[1H-indazol-4-yl(oxo)methyl]amino]-1-oxo-4-phenylbutyl]-5,5-dimethyl-N-prop-2-enyl-4-thiazolidinecarboxamide
> <PUBCHEM_IUPAC_NAME_MARKUP>
(4<I>R</I>)-3-[(2<I>S</I>,3<I>S</I>)-2-hydroxy-3-(1<I>H</I>-indazole-4-carbonylamino)-4-phenylbutanoyl]-5,5-dimethyl-<I>N</I>-prop-2-enyl-1,3-thiazolidine-4-carboxamide
> <PUBCHEM_IUPAC_NAME>
(4R)-3-[(2S,3S)-2-hydroxy-3-(1H-indazole-4-carbonylamino)-4-phenylbutanoyl]-5,5-dimethyl-N-prop-2-enyl-1,3-thiazolidine-4-carboxamide
> <PUBCHEM_IUPAC_SYSTEMATIC_NAME>
(4R)-3-[(2S,3S)-3-(1H-indazol-4-ylcarbonylamino)-2-oxidanyl-4-phenyl-butanoyl]-5,5-dimethyl-N-prop-2-enyl-1,3-thiazolidine-4-carboxamide
> <PUBCHEM_IUPAC_TRADITIONAL_NAME>
(4R)-N-allyl-3-[(2S,3S)-2-hydroxy-3-(1H-indazole-4-carbonylamino)-4-phenyl-butanoyl]-5,5-dimethyl-thiazolidine-4-carboxamide
> <PUBCHEM_IUPAC_INCHI>
InChI=1S/C27H31N5O4S/c1-4-13-28-25(35)23-27(2,3)37-16-32(23)26(36)22(33)21(14-17-9-6-5-7-10-17)30-24(34)18-11-8-12-20-19(18)15-29-31-20/h4-12,15,21-23,33H,1,13-14,16H2,2-3H3,(H,28,35)(H,29,31)(H,30,34)/t21-,22-,23+/m0/s1
> <PUBCHEM_IUPAC_INCHIKEY>
RBMCIAGBGQMORW-RJGXRXQPSA-N
> <PUBCHEM_XLOGP3_AA>
2.9
> <PUBCHEM_EXACT_MASS>
521.20967566
> <PUBCHEM_MOLECULAR_FORMULA>
C27H31N5O4S
> <PUBCHEM_MOLECULAR_WEIGHT>
521.6
> <PUBCHEM_OPENEYE_CAN_SMILES>
CC1(C(N(CS1)C(=O)C(C(CC2=CC=CC=C2)NC(=O)C3=C4C=NNC4=CC=C3)O)C(=O)NCC=C)C
> <PUBCHEM_OPENEYE_ISO_SMILES>
CC1([C@H](N(CS1)C(=O)[C@H]([C@H](CC2=CC=CC=C2)NC(=O)C3=C4C=NNC4=CC=C3)O)C(=O)NCC=C)C
> <PUBCHEM_CACTVS_TPSA>
153
> <PUBCHEM_MONOISOTOPIC_WEIGHT>
521.20967566
> <PUBCHEM_TOTAL_CHARGE>
0
> <PUBCHEM_HEAVY_ATOM_COUNT>
37
> <PUBCHEM_ATOM_DEF_STEREO_COUNT>
3
> <PUBCHEM_ATOM_UDEF_STEREO_COUNT>
0
> <PUBCHEM_BOND_DEF_STEREO_COUNT>
0
> <PUBCHEM_BOND_UDEF_STEREO_COUNT>
0
> <PUBCHEM_ISOTOPIC_ATOM_COUNT>
0
> <PUBCHEM_COMPONENT_COUNT>
1
> <PUBCHEM_CACTVS_TAUTO_COUNT>
-1
> <PUBCHEM_COORDINATE_TYPE>
1
5
255
> <PUBCHEM_BONDANNOTATIONS>
10  35  8
12  17  6
18  2  5
21  24  8
21  25  8
24  29  8
25  30  8
26  28  8
26  31  8
28  33  8
28  35  8
29  32  8
30  32  8
31  34  8
33  36  8
34  36  8
19  8  6
9  10  8
9  33  8
$$$$
