514558
  -OEChem-10302200282D
 69 72  0     1  0  0  0  0  0999 V2000
    8.1756    3.1842    0.0000 S   0  0  0  0  0  0  0  0  0  0  0  0
    9.4076    0.6454    0.0000 O   0  0  0  0  0  0  0  0  0  0  0  0
   11.2442   -2.3492    0.0000 O   0  0  0  0  0  0  0  0  0  0  0  0
    6.8095    0.1454    0.0000 O   0  0  0  0  0  0  0  0  0  0  0  0
    5.7076    0.9460    0.0000 O   0  0  0  0  0  0  0  0  0  0  0  0
   10.2736    0.1454    0.0000 O   0  0  0  0  0  0  0  0  0  0  0  0
    2.5000    2.7455    0.0000 O   0  0  0  0  0  0  0  0  0  0  0  0
    7.6756    1.6454    0.0000 N   0  0  0  0  0  0  0  0  0  0  0  0
    9.4076   -1.3546    0.0000 N   0  0  0  0  0  0  0  0  0  0  0  0
    5.1724    2.5933    0.0000 N   0  0  0  0  0  0  0  0  0  0  0  0
    7.1756    3.1842    0.0000 C   0  0  0  0  0  0  0  0  0  0  0  0
    6.8666    2.2332    0.0000 C   0  0  1  0  0  0  0  0  0  0  0  0
    8.4846    2.2332    0.0000 C   0  0  0  0  0  0  0  0  0  0  0  0
    7.1756    4.1842    0.0000 C   0  0  0  0  0  0  0  0  0  0  0  0
    6.2245    3.4932    0.0000 C   0  0  0  0  0  0  0  0  0  0  0  0
    7.6756    0.6454    0.0000 C   0  0  0  0  0  0  0  0  0  0  0  0
    8.5416    0.1454    0.0000 C   0  0  2  0  0  0  0  0  0  0  0  0
    8.5416   -0.8546    0.0000 C   0  0  2  0  0  0  0  0  0  0  0  0
    5.9155    1.9241    0.0000 C   0  0  0  0  0  0  0  0  0  0  0  0
    7.6756   -1.3546    0.0000 C   0  0  0  0  0  0  0  0  0  0  0  0
   11.1397   -1.3546    0.0000 C   0  0  1  0  0  0  0  0  0  0  0  0
   12.0532   -0.9479    0.0000 C   0  0  0  0  0  0  0  0  0  0  0  0
   10.2736   -0.8546    0.0000 C   0  0  0  0  0  0  0  0  0  0  0  0
   12.7223   -1.6910    0.0000 C   0  0  0  0  0  0  0  0  0  0  0  0
   12.2223   -2.5571    0.0000 C   0  0  0  0  0  0  0  0  0  0  0  0
    7.6756   -2.3546    0.0000 C   0  0  0  0  0  0  0  0  0  0  0  0
    4.2213    2.2842    0.0000 C   0  0  0  0  0  0  0  0  0  0  0  0
    8.5416   -2.8546    0.0000 C   0  0  0  0  0  0  0  0  0  0  0  0
    6.8095   -2.8546    0.0000 C   0  0  0  0  0  0  0  0  0  0  0  0
    3.4782    2.9534    0.0000 C   0  0  0  0  0  0  0  0  0  0  0  0
    8.5416   -3.8546    0.0000 C   0  0  0  0  0  0  0  0  0  0  0  0
    6.8095   -3.8546    0.0000 C   0  0  0  0  0  0  0  0  0  0  0  0
    7.6756   -4.3546    0.0000 C   0  0  0  0  0  0  0  0  0  0  0  0
    3.5827    3.9479    0.0000 C   0  0  0  0  0  0  0  0  0  0  0  0
    2.6691    4.3546    0.0000 C   0  0  0  0  0  0  0  0  0  0  0  0
    2.0000    3.6115    0.0000 C   0  0  0  0  0  0  0  0  0  0  0  0
    6.7696    1.6208    0.0000 H   0  0  0  0  0  0  0  0  0  0  0  0
    8.7946    1.6962    0.0000 H   0  0  0  0  0  0  0  0  0  0  0  0
    9.0510    2.4853    0.0000 H   0  0  0  0  0  0  0  0  0  0  0  0
    7.7956    4.1842    0.0000 H   0  0  0  0  0  0  0  0  0  0  0  0
    7.1756    4.8042    0.0000 H   0  0  0  0  0  0  0  0  0  0  0  0
    6.5556    4.1842    0.0000 H   0  0  0  0  0  0  0  0  0  0  0  0
    6.4161    4.0829    0.0000 H   0  0  0  0  0  0  0  0  0  0  0  0
    5.6349    3.6848    0.0000 H   0  0  0  0  0  0  0  0  0  0  0  0
    6.0329    2.9036    0.0000 H   0  0  0  0  0  0  0  0  0  0  0  0
    8.5416    0.7654    0.0000 H   0  0  0  0  0  0  0  0  0  0  0  0
    8.5416   -1.4746    0.0000 H   0  0  0  0  0  0  0  0  0  0  0  0
    7.4635   -0.7720    0.0000 H   0  0  0  0  0  0  0  0  0  0  0  0
    7.0650   -1.4623    0.0000 H   0  0  0  0  0  0  0  0  0  0  0  0
    9.4076   -1.9746    0.0000 H   0  0  0  0  0  0  0  0  0  0  0  0
   10.6197   -1.6923    0.0000 H   0  0  0  0  0  0  0  0  0  0  0  0
   12.5548   -0.5835    0.0000 H   0  0  0  0  0  0  0  0  0  0  0  0
   11.7432   -0.4110    0.0000 H   0  0  0  0  0  0  0  0  0  0  0  0
    5.3012    3.1997    0.0000 H   0  0  0  0  0  0  0  0  0  0  0  0
   13.2239   -2.0555    0.0000 H   0  0  0  0  0  0  0  0  0  0  0  0
   13.1372   -1.2303    0.0000 H   0  0  0  0  0  0  0  0  0  0  0  0
   12.0308   -3.1467    0.0000 H   0  0  0  0  0  0  0  0  0  0  0  0
   12.7887   -2.8092    0.0000 H   0  0  0  0  0  0  0  0  0  0  0  0
    9.4076    1.2654    0.0000 H   0  0  0  0  0  0  0  0  0  0  0  0
    3.7327    1.9025    0.0000 H   0  0  0  0  0  0  0  0  0  0  0  0
    4.5124    1.7368    0.0000 H   0  0  0  0  0  0  0  0  0  0  0  0
    9.0785   -2.5446    0.0000 H   0  0  0  0  0  0  0  0  0  0  0  0
    6.2726   -2.5446    0.0000 H   0  0  0  0  0  0  0  0  0  0  0  0
    9.0785   -4.1646    0.0000 H   0  0  0  0  0  0  0  0  0  0  0  0
    6.2726   -4.1646    0.0000 H   0  0  0  0  0  0  0  0  0  0  0  0
    7.6756   -4.9746    0.0000 H   0  0  0  0  0  0  0  0  0  0  0  0
    4.1196    4.2579    0.0000 H   0  0  0  0  0  0  0  0  0  0  0  0
    2.5402    4.9611    0.0000 H   0  0  0  0  0  0  0  0  0  0  0  0
    1.3834    3.6763    0.0000 H   0  0  0  0  0  0  0  0  0  0  0  0
  1 11  1  0  0  0  0
  1 13  1  0  0  0  0
 17  2  1  1  0  0  0
  2 59  1  0  0  0  0
  3 21  1  0  0  0  0
  3 25  1  0  0  0  0
  4 16  2  0  0  0  0
  5 19  2  0  0  0  0
  6 23  2  0  0  0  0
  7 30  1  0  0  0  0
  7 36  1  0  0  0  0
  8 12  1  0  0  0  0
  8 13  1  0  0  0  0
  8 16  1  0  0  0  0
 18  9  1  1  0  0  0
  9 23  1  0  0  0  0
  9 50  1  0  0  0  0
 10 19  1  0  0  0  0
 10 27  1  0  0  0  0
 10 54  1  0  0  0  0
 11 12  1  0  0  0  0
 11 14  1  0  0  0  0
 11 15  1  0  0  0  0
 12 19  1  6  0  0  0
 12 37  1  0  0  0  0
 13 38  1  0  0  0  0
 13 39  1  0  0  0  0
 14 40  1  0  0  0  0
 14 41  1  0  0  0  0
 14 42  1  0  0  0  0
 15 43  1  0  0  0  0
 15 44  1  0  0  0  0
 15 45  1  0  0  0  0
 16 17  1  0  0  0  0
 17 18  1  0  0  0  0
 17 46  1  0  0  0  0
 18 20  1  0  0  0  0
 18 47  1  0  0  0  0
 20 26  1  0  0  0  0
 20 48  1  0  0  0  0
 20 49  1  0  0  0  0
 21 22  1  0  0  0  0
 21 23  1  6  0  0  0
 21 51  1  0  0  0  0
 22 24  1  0  0  0  0
 22 52  1  0  0  0  0
 22 53  1  0  0  0  0
 24 25  1  0  0  0  0
 24 55  1  0  0  0  0
 24 56  1  0  0  0  0
 25 57  1  0  0  0  0
 25 58  1  0  0  0  0
 26 28  2  0  0  0  0
 26 29  1  0  0  0  0
 27 30  1  0  0  0  0
 27 60  1  0  0  0  0
 27 61  1  0  0  0  0
 28 31  1  0  0  0  0
 28 62  1  0  0  0  0
 29 32  2  0  0  0  0
 29 63  1  0  0  0  0
 30 34  2  0  0  0  0
 31 33  2  0  0  0  0
 31 64  1  0  0  0  0
 32 33  1  0  0  0  0
 32 65  1  0  0  0  0
 33 66  1  0  0  0  0
 34 35  1  0  0  0  0
 34 67  1  0  0  0  0
 35 36  2  0  0  0  0
 35 68  1  0  0  0  0
 36 69  1  0  0  0  0
M  END
> <PUBCHEM_COMPOUND_CID>
514558
> <PUBCHEM_COMPOUND_CANONICALIZED>
1
> <PUBCHEM_CACTVS_COMPLEXITY>
790
> <PUBCHEM_CACTVS_HBOND_ACCEPTOR>
7
> <PUBCHEM_CACTVS_HBOND_DONOR>
3
> <PUBCHEM_CACTVS_ROTATABLE_BOND>
9
> <PUBCHEM_CACTVS_SUBSKEYS>
AAADcfB7OABAAAAAAAAAAAAAAAAAAWJEgAAwAAAAAAAAAAABwAAAHgQQCAAADDzh2AayBIPABkiIAqlSkAKCCABkIBAIiIHODMgOdjqk9T+XeSjk1hGYqYeY3aKOAAAAAAAAAAAAAAAAAAAAAAAAAAAAAA==
> <PUBCHEM_IUPAC_OPENEYE_NAME>
(4R)-N-(2-furylmethyl)-3-[(2S,3S)-2-hydroxy-4-phenyl-3-[[(2S)-tetrahydrofuran-2-carbonyl]amino]butanoyl]-5,5-dimethyl-thiazolidine-4-carboxamide
> <PUBCHEM_IUPAC_CAS_NAME>
(4R)-N-(2-furanylmethyl)-3-[(2S,3S)-2-hydroxy-1-oxo-3-[[oxo-[(2S)-2-oxolanyl]methyl]amino]-4-phenylbutyl]-5,5-dimethyl-4-thiazolidinecarboxamide
> <PUBCHEM_IUPAC_NAME_MARKUP>
(4<I>R</I>)-<I>N</I>-(furan-2-ylmethyl)-3-[(2<I>S</I>,3<I>S</I>)-2-hydroxy-3-[[(2<I>S</I>)-oxolane-2-carbonyl]amino]-4-phenylbutanoyl]-5,5-dimethyl-1,3-thiazolidine-4-carboxamide
> <PUBCHEM_IUPAC_NAME>
(4R)-N-(furan-2-ylmethyl)-3-[(2S,3S)-2-hydroxy-3-[[(2S)-oxolane-2-carbonyl]amino]-4-phenylbutanoyl]-5,5-dimethyl-1,3-thiazolidine-4-carboxamide
> <PUBCHEM_IUPAC_SYSTEMATIC_NAME>
(4R)-N-(furan-2-ylmethyl)-5,5-dimethyl-3-[(2S,3S)-2-oxidanyl-3-[[(2S)-oxolan-2-yl]carbonylamino]-4-phenyl-butanoyl]-1,3-thiazolidine-4-carboxamide
> <PUBCHEM_IUPAC_TRADITIONAL_NAME>
(4R)-N-(2-furfuryl)-3-[(2S,3S)-2-hydroxy-4-phenyl-3-[[(2S)-tetrahydrofuran-2-carbonyl]amino]butanoyl]-5,5-dimethyl-thiazolidine-4-carboxamide
> <PUBCHEM_IUPAC_INCHI>
InChI=1S/C26H33N3O6S/c1-26(2)22(24(32)27-15-18-10-6-12-34-18)29(16-36-26)25(33)21(30)19(14-17-8-4-3-5-9-17)28-23(31)20-11-7-13-35-20/h3-6,8-10,12,19-22,30H,7,11,13-16H2,1-2H3,(H,27,32)(H,28,31)/t19-,20-,21-,22+/m0/s1
> <PUBCHEM_IUPAC_INCHIKEY>
WJKAWRQPMPGDTO-MYGLTJDJSA-N
> <PUBCHEM_XLOGP3_AA>
2
> <PUBCHEM_EXACT_MASS>
515.20900695
> <PUBCHEM_MOLECULAR_FORMULA>
C26H33N3O6S
> <PUBCHEM_MOLECULAR_WEIGHT>
515.6
> <PUBCHEM_OPENEYE_CAN_SMILES>
CC1(C(N(CS1)C(=O)C(C(CC2=CC=CC=C2)NC(=O)C3CCCO3)O)C(=O)NCC4=CC=CO4)C
> <PUBCHEM_OPENEYE_ISO_SMILES>
CC1([C@H](N(CS1)C(=O)[C@H]([C@H](CC2=CC=CC=C2)NC(=O)[C@@H]3CCCO3)O)C(=O)NCC4=CC=CO4)C
> <PUBCHEM_CACTVS_TPSA>
146
> <PUBCHEM_MONOISOTOPIC_WEIGHT>
515.20900695
> <PUBCHEM_TOTAL_CHARGE>
0
> <PUBCHEM_HEAVY_ATOM_COUNT>
36
> <PUBCHEM_ATOM_DEF_STEREO_COUNT>
4
> <PUBCHEM_ATOM_UDEF_STEREO_COUNT>
0
> <PUBCHEM_BOND_DEF_STEREO_COUNT>
0
> <PUBCHEM_BOND_UDEF_STEREO_COUNT>
0
> <PUBCHEM_ISOTOPIC_ATOM_COUNT>
0
> <PUBCHEM_COMPONENT_COUNT>
1
> <PUBCHEM_CACTVS_TAUTO_COUNT>
-1
> <PUBCHEM_COORDINATE_TYPE>
1
5
255
> <PUBCHEM_BONDANNOTATIONS>
12  19  6
17  2  5
21  23  6
26  28  8
26  29  8
28  31  8
29  32  8
30  34  8
31  33  8
32  33  8
34  35  8
35  36  8
7  30  8
7  36  8
18  9  5
$$$$
