514585
  -OEChem-10302200282D
 66 68  0     1  0  0  0  0  0999 V2000
    8.3916    3.0612    0.0000 S   0  0  0  0  0  0  0  0  0  0  0  0
    9.6237    0.5224    0.0000 O   0  0  0  0  0  0  0  0  0  0  0  0
    7.0256    0.0224    0.0000 O   0  0  0  0  0  0  0  0  0  0  0  0
    5.9236    0.8230    0.0000 O   0  0  0  0  0  0  0  0  0  0  0  0
   11.3557   -1.4776    0.0000 O   0  0  0  0  0  0  0  0  0  0  0  0
   10.4897    0.0224    0.0000 O   0  0  0  0  0  0  0  0  0  0  0  0
    7.8916    1.5224    0.0000 N   0  0  0  0  0  0  0  0  0  0  0  0
    5.3884    2.4702    0.0000 N   0  0  0  0  0  0  0  0  0  0  0  0
    9.6237   -1.4776    0.0000 N   0  0  0  0  0  0  0  0  0  0  0  0
    2.2079    4.1686    0.0000 N   0  0  0  0  0  0  0  0  0  0  0  0
    7.3916    3.0612    0.0000 C   0  0  0  0  0  0  0  0  0  0  0  0
    7.0826    2.1101    0.0000 C   0  0  1  0  0  0  0  0  0  0  0  0
    8.7006    2.1101    0.0000 C   0  0  0  0  0  0  0  0  0  0  0  0
    7.3916    4.0612    0.0000 C   0  0  0  0  0  0  0  0  0  0  0  0
    6.4406    3.3702    0.0000 C   0  0  0  0  0  0  0  0  0  0  0  0
    7.8916    0.5224    0.0000 C   0  0  0  0  0  0  0  0  0  0  0  0
    6.1316    1.8011    0.0000 C   0  0  0  0  0  0  0  0  0  0  0  0
    8.7576    0.0224    0.0000 C   0  0  2  0  0  0  0  0  0  0  0  0
    8.7576   -0.9776    0.0000 C   0  0  2  0  0  0  0  0  0  0  0  0
    7.8916   -1.4776    0.0000 C   0  0  0  0  0  0  0  0  0  0  0  0
    4.4374    2.1612    0.0000 C   0  0  0  0  0  0  0  0  0  0  0  0
    7.8916   -2.4776    0.0000 C   0  0  0  0  0  0  0  0  0  0  0  0
    3.6942    2.8304    0.0000 C   0  0  0  0  0  0  0  0  0  0  0  0
   10.4897   -0.9776    0.0000 C   0  0  0  0  0  0  0  0  0  0  0  0
    8.7576   -2.9776    0.0000 C   0  0  0  0  0  0  0  0  0  0  0  0
    7.0256   -2.9776    0.0000 C   0  0  0  0  0  0  0  0  0  0  0  0
    8.7576   -3.9776    0.0000 C   0  0  0  0  0  0  0  0  0  0  0  0
    7.0256   -3.9776    0.0000 C   0  0  0  0  0  0  0  0  0  0  0  0
    2.7431    2.5214    0.0000 C   0  0  0  0  0  0  0  0  0  0  0  0
    3.9021    3.8085    0.0000 C   0  0  0  0  0  0  0  0  0  0  0  0
    7.8916   -4.4776    0.0000 C   0  0  0  0  0  0  0  0  0  0  0  0
    2.0000    3.1905    0.0000 C   0  0  0  0  0  0  0  0  0  0  0  0
    3.1590    4.4776    0.0000 C   0  0  0  0  0  0  0  0  0  0  0  0
   12.2217   -0.9776    0.0000 C   0  0  0  0  0  0  0  0  0  0  0  0
   13.0878   -1.4776    0.0000 C   0  0  0  0  0  0  0  0  0  0  0  0
   13.9538   -1.9776    0.0000 C   0  0  0  0  0  0  0  0  0  0  0  0
    6.9856    1.4978    0.0000 H   0  0  0  0  0  0  0  0  0  0  0  0
    9.0106    1.5732    0.0000 H   0  0  0  0  0  0  0  0  0  0  0  0
    9.2670    2.3623    0.0000 H   0  0  0  0  0  0  0  0  0  0  0  0
    8.0116    4.0612    0.0000 H   0  0  0  0  0  0  0  0  0  0  0  0
    7.3916    4.6812    0.0000 H   0  0  0  0  0  0  0  0  0  0  0  0
    6.7716    4.0612    0.0000 H   0  0  0  0  0  0  0  0  0  0  0  0
    6.6322    3.9599    0.0000 H   0  0  0  0  0  0  0  0  0  0  0  0
    5.8509    3.5618    0.0000 H   0  0  0  0  0  0  0  0  0  0  0  0
    6.2490    2.7806    0.0000 H   0  0  0  0  0  0  0  0  0  0  0  0
    8.7576    0.6424    0.0000 H   0  0  0  0  0  0  0  0  0  0  0  0
    9.2946   -0.6676    0.0000 H   0  0  0  0  0  0  0  0  0  0  0  0
    7.6796   -0.8950    0.0000 H   0  0  0  0  0  0  0  0  0  0  0  0
    7.2810   -1.5853    0.0000 H   0  0  0  0  0  0  0  0  0  0  0  0
    5.5173    3.0767    0.0000 H   0  0  0  0  0  0  0  0  0  0  0  0
    9.6237   -2.0976    0.0000 H   0  0  0  0  0  0  0  0  0  0  0  0
    3.9488    1.7795    0.0000 H   0  0  0  0  0  0  0  0  0  0  0  0
    4.7284    1.6138    0.0000 H   0  0  0  0  0  0  0  0  0  0  0  0
    9.6237    1.1424    0.0000 H   0  0  0  0  0  0  0  0  0  0  0  0
    9.2946   -2.6676    0.0000 H   0  0  0  0  0  0  0  0  0  0  0  0
    6.4887   -2.6676    0.0000 H   0  0  0  0  0  0  0  0  0  0  0  0
    9.2946   -4.2876    0.0000 H   0  0  0  0  0  0  0  0  0  0  0  0
    6.4887   -4.2876    0.0000 H   0  0  0  0  0  0  0  0  0  0  0  0
    2.6142    1.9149    0.0000 H   0  0  0  0  0  0  0  0  0  0  0  0
    4.4918    4.0001    0.0000 H   0  0  0  0  0  0  0  0  0  0  0  0
    7.8916   -5.0976    0.0000 H   0  0  0  0  0  0  0  0  0  0  0  0
    1.4103    2.9989    0.0000 H   0  0  0  0  0  0  0  0  0  0  0  0
    3.2879    5.0841    0.0000 H   0  0  0  0  0  0  0  0  0  0  0  0
   12.6203   -0.5027    0.0000 H   0  0  0  0  0  0  0  0  0  0  0  0
   11.8232   -0.5027    0.0000 H   0  0  0  0  0  0  0  0  0  0  0  0
   14.4907   -2.2877    0.0000 H   0  0  0  0  0  0  0  0  0  0  0  0
  1 11  1  0  0  0  0
  1 13  1  0  0  0  0
 18  2  1  1  0  0  0
  2 54  1  0  0  0  0
  3 16  2  0  0  0  0
  4 17  2  0  0  0  0
  5 24  1  0  0  0  0
  5 34  1  0  0  0  0
  6 24  2  0  0  0  0
  7 12  1  0  0  0  0
  7 13  1  0  0  0  0
  7 16  1  0  0  0  0
  8 17  1  0  0  0  0
  8 21  1  0  0  0  0
  8 50  1  0  0  0  0
 19  9  1  1  0  0  0
  9 24  1  0  0  0  0
  9 51  1  0  0  0  0
 10 32  2  0  0  0  0
 10 33  1  0  0  0  0
 11 12  1  0  0  0  0
 11 14  1  0  0  0  0
 11 15  1  0  0  0  0
 12 17  1  6  0  0  0
 12 37  1  0  0  0  0
 13 38  1  0  0  0  0
 13 39  1  0  0  0  0
 14 40  1  0  0  0  0
 14 41  1  0  0  0  0
 14 42  1  0  0  0  0
 15 43  1  0  0  0  0
 15 44  1  0  0  0  0
 15 45  1  0  0  0  0
 16 18  1  0  0  0  0
 18 19  1  0  0  0  0
 18 46  1  0  0  0  0
 19 20  1  0  0  0  0
 19 47  1  0  0  0  0
 20 22  1  0  0  0  0
 20 48  1  0  0  0  0
 20 49  1  0  0  0  0
 21 23  1  0  0  0  0
 21 52  1  0  0  0  0
 21 53  1  0  0  0  0
 22 25  2  0  0  0  0
 22 26  1  0  0  0  0
 23 29  2  0  0  0  0
 23 30  1  0  0  0  0
 25 27  1  0  0  0  0
 25 55  1  0  0  0  0
 26 28  2  0  0  0  0
 26 56  1  0  0  0  0
 27 31  2  0  0  0  0
 27 57  1  0  0  0  0
 28 31  1  0  0  0  0
 28 58  1  0  0  0  0
 29 32  1  0  0  0  0
 29 59  1  0  0  0  0
 30 33  2  0  0  0  0
 30 60  1  0  0  0  0
 31 61  1  0  0  0  0
 32 62  1  0  0  0  0
 33 63  1  0  0  0  0
 34 35  1  0  0  0  0
 34 64  1  0  0  0  0
 34 65  1  0  0  0  0
 35 36  3  0  0  0  0
 36 66  1  0  0  0  0
M  END
> <PUBCHEM_COMPOUND_CID>
514585
> <PUBCHEM_COMPOUND_CANONICALIZED>
1
> <PUBCHEM_CACTVS_COMPLEXITY>
816
> <PUBCHEM_CACTVS_HBOND_ACCEPTOR>
7
> <PUBCHEM_CACTVS_HBOND_DONOR>
3
> <PUBCHEM_CACTVS_ROTATABLE_BOND>
10
> <PUBCHEM_CACTVS_SUBSKEYS>
AAADceB7uABAAAAAAAAAAAAAAAAAAWAAAAA8QAAAAAAAAAABwAAAHgQQCAAADDzh2ga+iJPIFgjoGjF3XAKCgCBxAjAI2KH4ZJkKcHrg0bGcYAhklgDYyAeYyKCOAAAAAAAAAAAAAAAAAAAAAAAAAAAAAA==
> <PUBCHEM_IUPAC_OPENEYE_NAME>
prop-2-ynyl N-[(1S,2S)-1-benzyl-3-[(4R)-5,5-dimethyl-4-(4-pyridylmethylcarbamoyl)thiazolidin-3-yl]-2-hydroxy-3-oxo-propyl]carbamate
> <PUBCHEM_IUPAC_CAS_NAME>
N-[(2S,3S)-4-[(4R)-5,5-dimethyl-4-[oxo-(pyridin-4-ylmethylamino)methyl]-3-thiazolidinyl]-3-hydroxy-4-oxo-1-phenylbutan-2-yl]carbamic acid prop-2-ynyl ester
> <PUBCHEM_IUPAC_NAME_MARKUP>
prop-2-ynyl <I>N</I>-[(2<I>S</I>,3<I>S</I>)-4-[(4<I>R</I>)-5,5-dimethyl-4-(pyridin-4-ylmethylcarbamoyl)-1,3-thiazolidin-3-yl]-3-hydroxy-4-oxo-1-phenylbutan-2-yl]carbamate
> <PUBCHEM_IUPAC_NAME>
prop-2-ynyl N-[(2S,3S)-4-[(4R)-5,5-dimethyl-4-(pyridin-4-ylmethylcarbamoyl)-1,3-thiazolidin-3-yl]-3-hydroxy-4-oxo-1-phenylbutan-2-yl]carbamate
> <PUBCHEM_IUPAC_SYSTEMATIC_NAME>
prop-2-ynyl N-[(2S,3S)-4-[(4R)-5,5-dimethyl-4-(pyridin-4-ylmethylcarbamoyl)-1,3-thiazolidin-3-yl]-3-oxidanyl-4-oxidanylidene-1-phenyl-butan-2-yl]carbamate
> <PUBCHEM_IUPAC_TRADITIONAL_NAME>
N-[(1S,2S)-1-benzyl-3-[(4R)-5,5-dimethyl-4-(4-pyridylmethylcarbamoyl)thiazolidin-3-yl]-2-hydroxy-3-keto-propyl]carbamic acid propargyl ester
> <PUBCHEM_IUPAC_INCHI>
InChI=1S/C26H30N4O5S/c1-4-14-35-25(34)29-20(15-18-8-6-5-7-9-18)21(31)24(33)30-17-36-26(2,3)22(30)23(32)28-16-19-10-12-27-13-11-19/h1,5-13,20-22,31H,14-17H2,2-3H3,(H,28,32)(H,29,34)/t20-,21-,22+/m0/s1
> <PUBCHEM_IUPAC_INCHIKEY>
WTMPCYRZDSICQN-FDFHNCONSA-N
> <PUBCHEM_XLOGP3_AA>
1.9
> <PUBCHEM_EXACT_MASS>
510.19369124
> <PUBCHEM_MOLECULAR_FORMULA>
C26H30N4O5S
> <PUBCHEM_MOLECULAR_WEIGHT>
510.6
> <PUBCHEM_OPENEYE_CAN_SMILES>
CC1(C(N(CS1)C(=O)C(C(CC2=CC=CC=C2)NC(=O)OCC#C)O)C(=O)NCC3=CC=NC=C3)C
> <PUBCHEM_OPENEYE_ISO_SMILES>
CC1([C@H](N(CS1)C(=O)[C@H]([C@H](CC2=CC=CC=C2)NC(=O)OCC#C)O)C(=O)NCC3=CC=NC=C3)C
> <PUBCHEM_CACTVS_TPSA>
146
> <PUBCHEM_MONOISOTOPIC_WEIGHT>
510.19369124
> <PUBCHEM_TOTAL_CHARGE>
0
> <PUBCHEM_HEAVY_ATOM_COUNT>
36
> <PUBCHEM_ATOM_DEF_STEREO_COUNT>
3
> <PUBCHEM_ATOM_UDEF_STEREO_COUNT>
0
> <PUBCHEM_BOND_DEF_STEREO_COUNT>
0
> <PUBCHEM_BOND_UDEF_STEREO_COUNT>
0
> <PUBCHEM_ISOTOPIC_ATOM_COUNT>
0
> <PUBCHEM_COMPONENT_COUNT>
1
> <PUBCHEM_CACTVS_TAUTO_COUNT>
-1
> <PUBCHEM_COORDINATE_TYPE>
1
5
255
> <PUBCHEM_BONDANNOTATIONS>
10  32  8
10  33  8
12  17  6
18  2  5
22  25  8
22  26  8
23  29  8
23  30  8
25  27  8
26  28  8
27  31  8
28  31  8
29  32  8
30  33  8
19  9  5
$$$$
