514541
  -OEChem-10302200282D
 71 74  0     1  0  0  0  0  0999 V2000
    4.3567    2.3995    0.0000 S   0  0  0  0  0  0  0  0  0  0  0  0
    7.1714    2.1970    0.0000 O   0  0  0  0  0  0  0  0  0  0  0  0
    6.3054   -0.3030    0.0000 O   0  0  0  0  0  0  0  0  0  0  0  0
    5.0611   -0.8570    0.0000 O   0  0  0  0  0  0  0  0  0  0  0  0
    9.7695   -0.3030    0.0000 O   0  0  0  0  0  0  0  0  0  0  0  0
    5.4394    1.1970    0.0000 N   0  0  0  0  0  0  0  0  0  0  0  0
    3.3669   -0.4969    0.0000 N   0  0  0  0  0  0  0  0  0  0  0  0
    8.0375   -0.3030    0.0000 N   0  0  0  0  0  0  0  0  0  0  0  0
   10.7157   -3.6077    0.0000 N   0  0  0  0  0  0  0  0  0  0  0  0
    3.8567    1.5334    0.0000 C   0  0  0  0  0  0  0  0  0  0  0  0
    4.5258    0.7903    0.0000 C   0  0  1  0  0  0  0  0  0  0  0  0
    5.3349    2.1916    0.0000 C   0  0  0  0  0  0  0  0  0  0  0  0
    2.9907    2.0334    0.0000 C   0  0  0  0  0  0  0  0  0  0  0  0
    3.1136    0.8643    0.0000 C   0  0  0  0  0  0  0  0  0  0  0  0
    6.3054    0.6970    0.0000 C   0  0  0  0  0  0  0  0  0  0  0  0
    7.1714    1.1970    0.0000 C   0  0  2  0  0  0  0  0  0  0  0  0
    4.3179   -0.1879    0.0000 C   0  0  0  0  0  0  0  0  0  0  0  0
    8.0375    0.6970    0.0000 C   0  0  2  0  0  0  0  0  0  0  0  0
    8.9035    1.1970    0.0000 C   0  0  0  0  0  0  0  0  0  0  0  0
    8.9035    2.1970    0.0000 C   0  0  0  0  0  0  0  0  0  0  0  0
    8.9035   -0.8030    0.0000 C   0  0  0  0  0  0  0  0  0  0  0  0
    9.7695   -2.3030    0.0000 C   0  0  0  0  0  0  0  0  0  0  0  0
    8.9035   -1.8030    0.0000 C   0  0  0  0  0  0  0  0  0  0  0  0
    3.1590   -1.4750    0.0000 C   0  0  0  0  0  0  0  0  0  0  0  0
   10.7157   -1.9982    0.0000 C   0  0  0  0  0  0  0  0  0  0  0  0
    9.7695   -3.3030    0.0000 C   0  0  0  0  0  0  0  0  0  0  0  0
   11.2993   -2.8030    0.0000 C   0  0  0  0  0  0  0  0  0  0  0  0
    8.0375   -2.3030    0.0000 C   0  0  0  0  0  0  0  0  0  0  0  0
    8.0375    2.6970    0.0000 C   0  0  0  0  0  0  0  0  0  0  0  0
    9.7695    2.6970    0.0000 C   0  0  0  0  0  0  0  0  0  0  0  0
    8.9035   -3.8030    0.0000 C   0  0  0  0  0  0  0  0  0  0  0  0
    8.0375   -3.3030    0.0000 C   0  0  0  0  0  0  0  0  0  0  0  0
    2.2079   -1.7840    0.0000 C   0  0  0  0  0  0  0  0  0  0  0  0
    8.0375    3.6970    0.0000 C   0  0  0  0  0  0  0  0  0  0  0  0
    9.7695    3.6970    0.0000 C   0  0  0  0  0  0  0  0  0  0  0  0
    8.9035    4.1970    0.0000 C   0  0  0  0  0  0  0  0  0  0  0  0
    2.0000   -2.7622    0.0000 C   0  0  0  0  0  0  0  0  0  0  0  0
    5.0077    0.4001    0.0000 H   0  0  0  0  0  0  0  0  0  0  0  0
    5.9549    2.1916    0.0000 H   0  0  0  0  0  0  0  0  0  0  0  0
    5.3997    2.8082    0.0000 H   0  0  0  0  0  0  0  0  0  0  0  0
    3.3007    2.5704    0.0000 H   0  0  0  0  0  0  0  0  0  0  0  0
    2.4538    2.3434    0.0000 H   0  0  0  0  0  0  0  0  0  0  0  0
    2.6807    1.4965    0.0000 H   0  0  0  0  0  0  0  0  0  0  0  0
    2.6987    1.3250    0.0000 H   0  0  0  0  0  0  0  0  0  0  0  0
    2.6528    0.4494    0.0000 H   0  0  0  0  0  0  0  0  0  0  0  0
    3.5284    0.4036    0.0000 H   0  0  0  0  0  0  0  0  0  0  0  0
    7.7084    1.5070    0.0000 H   0  0  0  0  0  0  0  0  0  0  0  0
    8.5744    0.3870    0.0000 H   0  0  0  0  0  0  0  0  0  0  0  0
    9.1156    0.6144    0.0000 H   0  0  0  0  0  0  0  0  0  0  0  0
    9.5141    1.3047    0.0000 H   0  0  0  0  0  0  0  0  0  0  0  0
    2.9061   -0.0820    0.0000 H   0  0  0  0  0  0  0  0  0  0  0  0
    7.5005   -0.6130    0.0000 H   0  0  0  0  0  0  0  0  0  0  0  0
    6.6345    2.5070    0.0000 H   0  0  0  0  0  0  0  0  0  0  0  0
    3.2453   -2.0890    0.0000 H   0  0  0  0  0  0  0  0  0  0  0  0
    3.7786   -1.4967    0.0000 H   0  0  0  0  0  0  0  0  0  0  0  0
   11.2531   -1.6890    0.0000 H   0  0  0  0  0  0  0  0  0  0  0  0
   10.4647   -1.4313    0.0000 H   0  0  0  0  0  0  0  0  0  0  0  0
   11.7602   -3.2177    0.0000 H   0  0  0  0  0  0  0  0  0  0  0  0
   11.7602   -2.3882    0.0000 H   0  0  0  0  0  0  0  0  0  0  0  0
   10.9084   -4.1970    0.0000 H   0  0  0  0  0  0  0  0  0  0  0  0
    7.5005   -1.9930    0.0000 H   0  0  0  0  0  0  0  0  0  0  0  0
    7.5005    2.3870    0.0000 H   0  0  0  0  0  0  0  0  0  0  0  0
   10.3065    2.3870    0.0000 H   0  0  0  0  0  0  0  0  0  0  0  0
    8.9035   -4.4230    0.0000 H   0  0  0  0  0  0  0  0  0  0  0  0
    7.5005   -3.6130    0.0000 H   0  0  0  0  0  0  0  0  0  0  0  0
    1.7472   -1.3692    0.0000 H   0  0  0  0  0  0  0  0  0  0  0  0
    7.5005    4.0070    0.0000 H   0  0  0  0  0  0  0  0  0  0  0  0
   10.3065    4.0070    0.0000 H   0  0  0  0  0  0  0  0  0  0  0  0
    8.9035    4.8170    0.0000 H   0  0  0  0  0  0  0  0  0  0  0  0
    1.4103   -2.9538    0.0000 H   0  0  0  0  0  0  0  0  0  0  0  0
    2.4608   -3.1770    0.0000 H   0  0  0  0  0  0  0  0  0  0  0  0
  1 10  1  0  0  0  0
  1 12  1  0  0  0  0
 16  2  1  1  0  0  0
  2 53  1  0  0  0  0
  3 15  2  0  0  0  0
  4 17  2  0  0  0  0
  5 21  2  0  0  0  0
  6 11  1  0  0  0  0
  6 12  1  0  0  0  0
  6 15  1  0  0  0  0
  7 17  1  0  0  0  0
  7 24  1  0  0  0  0
  7 51  1  0  0  0  0
 18  8  1  6  0  0  0
  8 21  1  0  0  0  0
  8 52  1  0  0  0  0
  9 26  1  0  0  0  0
  9 27  1  0  0  0  0
  9 60  1  0  0  0  0
 10 11  1  0  0  0  0
 10 13  1  0  0  0  0
 10 14  1  0  0  0  0
 11 17  1  6  0  0  0
 11 38  1  0  0  0  0
 12 39  1  0  0  0  0
 12 40  1  0  0  0  0
 13 41  1  0  0  0  0
 13 42  1  0  0  0  0
 13 43  1  0  0  0  0
 14 44  1  0  0  0  0
 14 45  1  0  0  0  0
 14 46  1  0  0  0  0
 15 16  1  0  0  0  0
 16 18  1  0  0  0  0
 16 47  1  0  0  0  0
 18 19  1  0  0  0  0
 18 48  1  0  0  0  0
 19 20  1  0  0  0  0
 19 49  1  0  0  0  0
 19 50  1  0  0  0  0
 20 29  2  0  0  0  0
 20 30  1  0  0  0  0
 21 23  1  0  0  0  0
 22 23  2  0  0  0  0
 22 25  1  0  0  0  0
 22 26  1  0  0  0  0
 23 28  1  0  0  0  0
 24 33  1  0  0  0  0
 24 54  1  0  0  0  0
 24 55  1  0  0  0  0
 25 27  1  0  0  0  0
 25 56  1  0  0  0  0
 25 57  1  0  0  0  0
 26 31  2  0  0  0  0
 27 58  1  0  0  0  0
 27 59  1  0  0  0  0
 28 32  2  0  0  0  0
 28 61  1  0  0  0  0
 29 34  1  0  0  0  0
 29 62  1  0  0  0  0
 30 35  2  0  0  0  0
 30 63  1  0  0  0  0
 31 32  1  0  0  0  0
 31 64  1  0  0  0  0
 32 65  1  0  0  0  0
 33 37  2  0  0  0  0
 33 66  1  0  0  0  0
 34 36  2  0  0  0  0
 34 67  1  0  0  0  0
 35 36  1  0  0  0  0
 35 68  1  0  0  0  0
 36 69  1  0  0  0  0
 37 70  1  0  0  0  0
 37 71  1  0  0  0  0
M  END
> <PUBCHEM_COMPOUND_CID>
514541
> <PUBCHEM_COMPOUND_CANONICALIZED>
1
> <PUBCHEM_CACTVS_COMPLEXITY>
846
> <PUBCHEM_CACTVS_HBOND_ACCEPTOR>
6
> <PUBCHEM_CACTVS_HBOND_DONOR>
4
> <PUBCHEM_CACTVS_ROTATABLE_BOND>
9
> <PUBCHEM_CACTVS_SUBSKEYS>
AAADcfB7uABAAAAAAAAAAAAAAAAAAWLAAAAwYAAAAAAAAFgBQAAAHgQQCAAADDzh2AaywIPAAgiIAiVSUAKCAABlAhAIiIHIZMgKcDrg1bGUYQhklgDYyYecyaCOgAAAQAASAAAAAACAACQAAAAAAAAAAA==
> <PUBCHEM_IUPAC_OPENEYE_NAME>
(4R)-N-allyl-3-[(2S,3S)-2-hydroxy-3-(indoline-4-carbonylamino)-4-phenyl-butanoyl]-5,5-dimethyl-thiazolidine-4-carboxamide
> <PUBCHEM_IUPAC_CAS_NAME>
(4R)-3-[(2S,3S)-3-[[2,3-dihydro-1H-indol-4-yl(oxo)methyl]amino]-2-hydroxy-1-oxo-4-phenylbutyl]-5,5-dimethyl-N-prop-2-enyl-4-thiazolidinecarboxamide
> <PUBCHEM_IUPAC_NAME_MARKUP>
(4<I>R</I>)-3-[(2<I>S</I>,3<I>S</I>)-3-(2,3-dihydro-1<I>H</I>-indole-4-carbonylamino)-2-hydroxy-4-phenylbutanoyl]-5,5-dimethyl-<I>N</I>-prop-2-enyl-1,3-thiazolidine-4-carboxamide
> <PUBCHEM_IUPAC_NAME>
(4R)-3-[(2S,3S)-3-(2,3-dihydro-1H-indole-4-carbonylamino)-2-hydroxy-4-phenylbutanoyl]-5,5-dimethyl-N-prop-2-enyl-1,3-thiazolidine-4-carboxamide
> <PUBCHEM_IUPAC_SYSTEMATIC_NAME>
(4R)-3-[(2S,3S)-3-(2,3-dihydro-1H-indol-4-ylcarbonylamino)-2-oxidanyl-4-phenyl-butanoyl]-5,5-dimethyl-N-prop-2-enyl-1,3-thiazolidine-4-carboxamide
> <PUBCHEM_IUPAC_TRADITIONAL_NAME>
(4R)-N-allyl-3-[(2S,3S)-2-hydroxy-3-(indoline-4-carbonylamino)-4-phenyl-butanoyl]-5,5-dimethyl-thiazolidine-4-carboxamide
> <PUBCHEM_IUPAC_INCHI>
InChI=1S/C28H34N4O4S/c1-4-14-30-26(35)24-28(2,3)37-17-32(24)27(36)23(33)22(16-18-9-6-5-7-10-18)31-25(34)20-11-8-12-21-19(20)13-15-29-21/h4-12,22-24,29,33H,1,13-17H2,2-3H3,(H,30,35)(H,31,34)/t22-,23-,24+/m0/s1
> <PUBCHEM_IUPAC_INCHIKEY>
KKWMLQHYYGTKKU-KMDXXIMOSA-N
> <PUBCHEM_XLOGP3_AA>
3.3
> <PUBCHEM_EXACT_MASS>
522.23007675
> <PUBCHEM_MOLECULAR_FORMULA>
C28H34N4O4S
> <PUBCHEM_MOLECULAR_WEIGHT>
522.7
> <PUBCHEM_OPENEYE_CAN_SMILES>
CC1(C(N(CS1)C(=O)C(C(CC2=CC=CC=C2)NC(=O)C3=C4CCNC4=CC=C3)O)C(=O)NCC=C)C
> <PUBCHEM_OPENEYE_ISO_SMILES>
CC1([C@H](N(CS1)C(=O)[C@H]([C@H](CC2=CC=CC=C2)NC(=O)C3=C4CCNC4=CC=C3)O)C(=O)NCC=C)C
> <PUBCHEM_CACTVS_TPSA>
136
> <PUBCHEM_MONOISOTOPIC_WEIGHT>
522.23007675
> <PUBCHEM_TOTAL_CHARGE>
0
> <PUBCHEM_HEAVY_ATOM_COUNT>
37
> <PUBCHEM_ATOM_DEF_STEREO_COUNT>
3
> <PUBCHEM_ATOM_UDEF_STEREO_COUNT>
0
> <PUBCHEM_BOND_DEF_STEREO_COUNT>
0
> <PUBCHEM_BOND_UDEF_STEREO_COUNT>
0
> <PUBCHEM_ISOTOPIC_ATOM_COUNT>
0
> <PUBCHEM_COMPONENT_COUNT>
1
> <PUBCHEM_CACTVS_TAUTO_COUNT>
-1
> <PUBCHEM_COORDINATE_TYPE>
1
5
255
> <PUBCHEM_BONDANNOTATIONS>
11  17  6
16  2  5
20  29  8
20  30  8
22  23  8
22  26  8
23  28  8
26  31  8
28  32  8
29  34  8
30  35  8
31  32  8
34  36  8
35  36  8
18  8  6
$$$$
