514546
  -OEChem-10302200282D
 70 73  0     1  0  0  0  0  0999 V2000
    7.6756    3.2694    0.0000 S   0  0  0  0  0  0  0  0  0  0  0  0
    5.2076    1.0312    0.0000 O   0  0  0  0  0  0  0  0  0  0  0  0
    8.9076    0.7306    0.0000 O   0  0  0  0  0  0  0  0  0  0  0  0
    6.3095    0.2306    0.0000 O   0  0  0  0  0  0  0  0  0  0  0  0
   10.6397   -1.2694    0.0000 O   0  0  0  0  0  0  0  0  0  0  0  0
   13.0884   -0.4330    0.0000 O   0  0  0  0  0  0  0  0  0  0  0  0
    9.7736    0.2306    0.0000 O   0  0  0  0  0  0  0  0  0  0  0  0
    7.1756    1.7306    0.0000 N   0  0  0  0  0  0  0  0  0  0  0  0
    4.6724    2.6785    0.0000 N   0  0  0  0  0  0  0  0  0  0  0  0
    8.9076   -1.2694    0.0000 N   0  0  0  0  0  0  0  0  0  0  0  0
    2.9782    3.0386    0.0000 C   0  0  0  0  0  0  0  0  0  0  0  0
    2.0000    3.2465    0.0000 C   0  0  0  0  0  0  0  0  0  0  0  0
    2.6691    3.9896    0.0000 C   0  0  0  0  0  0  0  0  0  0  0  0
    3.7213    2.3695    0.0000 C   0  0  0  0  0  0  0  0  0  0  0  0
    6.3666    2.3184    0.0000 C   0  0  1  0  0  0  0  0  0  0  0  0
    6.6756    3.2694    0.0000 C   0  0  0  0  0  0  0  0  0  0  0  0
    5.4155    2.0094    0.0000 C   0  0  0  0  0  0  0  0  0  0  0  0
    7.9846    2.3184    0.0000 C   0  0  0  0  0  0  0  0  0  0  0  0
    6.6756    4.2694    0.0000 C   0  0  0  0  0  0  0  0  0  0  0  0
    5.7245    3.5784    0.0000 C   0  0  0  0  0  0  0  0  0  0  0  0
    7.1756    0.7306    0.0000 C   0  0  0  0  0  0  0  0  0  0  0  0
    8.0416    0.2306    0.0000 C   0  0  2  0  0  0  0  0  0  0  0  0
    8.0416   -0.7694    0.0000 C   0  0  2  0  0  0  0  0  0  0  0  0
    7.1756   -1.2694    0.0000 C   0  0  0  0  0  0  0  0  0  0  0  0
    7.1756   -2.2694    0.0000 C   0  0  0  0  0  0  0  0  0  0  0  0
   11.5057   -0.7694    0.0000 C   0  0  1  0  0  0  0  0  0  0  0  0
   11.6102    0.2251    0.0000 C   0  0  0  0  0  0  0  0  0  0  0  0
    9.7736   -0.7694    0.0000 C   0  0  0  0  0  0  0  0  0  0  0  0
   12.4192   -1.1762    0.0000 C   0  0  0  0  0  0  0  0  0  0  0  0
   12.5884    0.4330    0.0000 C   0  0  0  0  0  0  0  0  0  0  0  0
    8.0416   -2.7694    0.0000 C   0  0  0  0  0  0  0  0  0  0  0  0
    6.3095   -2.7694    0.0000 C   0  0  0  0  0  0  0  0  0  0  0  0
    8.0416   -3.7694    0.0000 C   0  0  0  0  0  0  0  0  0  0  0  0
    6.3095   -3.7694    0.0000 C   0  0  0  0  0  0  0  0  0  0  0  0
    7.1756   -4.2694    0.0000 C   0  0  0  0  0  0  0  0  0  0  0  0
    2.6967    2.4862    0.0000 H   0  0  0  0  0  0  0  0  0  0  0  0
    1.4742    3.5750    0.0000 H   0  0  0  0  0  0  0  0  0  0  0  0
    1.7677    2.6716    0.0000 H   0  0  0  0  0  0  0  0  0  0  0  0
    3.2166    4.2807    0.0000 H   0  0  0  0  0  0  0  0  0  0  0  0
    2.2874    4.4782    0.0000 H   0  0  0  0  0  0  0  0  0  0  0  0
    3.2327    1.9878    0.0000 H   0  0  0  0  0  0  0  0  0  0  0  0
    4.0124    1.8220    0.0000 H   0  0  0  0  0  0  0  0  0  0  0  0
    6.2696    1.7060    0.0000 H   0  0  0  0  0  0  0  0  0  0  0  0
    4.8012    3.2849    0.0000 H   0  0  0  0  0  0  0  0  0  0  0  0
    8.2946    1.7814    0.0000 H   0  0  0  0  0  0  0  0  0  0  0  0
    8.5510    2.5705    0.0000 H   0  0  0  0  0  0  0  0  0  0  0  0
    7.2956    4.2694    0.0000 H   0  0  0  0  0  0  0  0  0  0  0  0
    6.6756    4.8894    0.0000 H   0  0  0  0  0  0  0  0  0  0  0  0
    6.0556    4.2694    0.0000 H   0  0  0  0  0  0  0  0  0  0  0  0
    5.9161    4.1681    0.0000 H   0  0  0  0  0  0  0  0  0  0  0  0
    5.1349    3.7700    0.0000 H   0  0  0  0  0  0  0  0  0  0  0  0
    5.5329    2.9888    0.0000 H   0  0  0  0  0  0  0  0  0  0  0  0
    8.0416    0.8506    0.0000 H   0  0  0  0  0  0  0  0  0  0  0  0
    8.0416   -1.3894    0.0000 H   0  0  0  0  0  0  0  0  0  0  0  0
    6.9635   -0.6868    0.0000 H   0  0  0  0  0  0  0  0  0  0  0  0
    6.5650   -1.3771    0.0000 H   0  0  0  0  0  0  0  0  0  0  0  0
    8.9076   -1.8894    0.0000 H   0  0  0  0  0  0  0  0  0  0  0  0
    8.9076    1.3506    0.0000 H   0  0  0  0  0  0  0  0  0  0  0  0
   11.5381   -1.3886    0.0000 H   0  0  0  0  0  0  0  0  0  0  0  0
   11.5454    0.8417    0.0000 H   0  0  0  0  0  0  0  0  0  0  0  0
   10.9902    0.2251    0.0000 H   0  0  0  0  0  0  0  0  0  0  0  0
   12.1092   -1.7131    0.0000 H   0  0  0  0  0  0  0  0  0  0  0  0
   12.9208   -1.5406    0.0000 H   0  0  0  0  0  0  0  0  0  0  0  0
   13.1548    0.6852    0.0000 H   0  0  0  0  0  0  0  0  0  0  0  0
   12.3968    1.0227    0.0000 H   0  0  0  0  0  0  0  0  0  0  0  0
    8.5785   -2.4594    0.0000 H   0  0  0  0  0  0  0  0  0  0  0  0
    5.7726   -2.4594    0.0000 H   0  0  0  0  0  0  0  0  0  0  0  0
    8.5785   -4.0794    0.0000 H   0  0  0  0  0  0  0  0  0  0  0  0
    5.7726   -4.0794    0.0000 H   0  0  0  0  0  0  0  0  0  0  0  0
    7.1756   -4.8894    0.0000 H   0  0  0  0  0  0  0  0  0  0  0  0
  1 16  1  0  0  0  0
  1 18  1  0  0  0  0
  2 17  2  0  0  0  0
 22  3  1  1  0  0  0
  3 58  1  0  0  0  0
  4 21  2  0  0  0  0
 26  5  1  1  0  0  0
  5 28  1  0  0  0  0
  6 29  1  0  0  0  0
  6 30  1  0  0  0  0
  7 28  2  0  0  0  0
  8 15  1  0  0  0  0
  8 18  1  0  0  0  0
  8 21  1  0  0  0  0
  9 14  1  0  0  0  0
  9 17  1  0  0  0  0
  9 44  1  0  0  0  0
 23 10  1  1  0  0  0
 10 28  1  0  0  0  0
 10 57  1  0  0  0  0
 11 12  1  0  0  0  0
 11 13  1  0  0  0  0
 11 14  1  0  0  0  0
 11 36  1  0  0  0  0
 12 13  1  0  0  0  0
 12 37  1  0  0  0  0
 12 38  1  0  0  0  0
 13 39  1  0  0  0  0
 13 40  1  0  0  0  0
 14 41  1  0  0  0  0
 14 42  1  0  0  0  0
 15 16  1  0  0  0  0
 15 17  1  6  0  0  0
 15 43  1  0  0  0  0
 16 19  1  0  0  0  0
 16 20  1  0  0  0  0
 18 45  1  0  0  0  0
 18 46  1  0  0  0  0
 19 47  1  0  0  0  0
 19 48  1  0  0  0  0
 19 49  1  0  0  0  0
 20 50  1  0  0  0  0
 20 51  1  0  0  0  0
 20 52  1  0  0  0  0
 21 22  1  0  0  0  0
 22 23  1  0  0  0  0
 22 53  1  0  0  0  0
 23 24  1  0  0  0  0
 23 54  1  0  0  0  0
 24 25  1  0  0  0  0
 24 55  1  0  0  0  0
 24 56  1  0  0  0  0
 25 31  2  0  0  0  0
 25 32  1  0  0  0  0
 26 27  1  0  0  0  0
 26 29  1  0  0  0  0
 26 59  1  0  0  0  0
 27 30  1  0  0  0  0
 27 60  1  0  0  0  0
 27 61  1  0  0  0  0
 29 62  1  0  0  0  0
 29 63  1  0  0  0  0
 30 64  1  0  0  0  0
 30 65  1  0  0  0  0
 31 33  1  0  0  0  0
 31 66  1  0  0  0  0
 32 34  2  0  0  0  0
 32 67  1  0  0  0  0
 33 35  2  0  0  0  0
 33 68  1  0  0  0  0
 34 35  1  0  0  0  0
 34 69  1  0  0  0  0
 35 70  1  0  0  0  0
M  END
> <PUBCHEM_COMPOUND_CID>
514546
> <PUBCHEM_COMPOUND_CANONICALIZED>
1
> <PUBCHEM_CACTVS_COMPLEXITY>
770
> <PUBCHEM_CACTVS_HBOND_ACCEPTOR>
7
> <PUBCHEM_CACTVS_HBOND_DONOR>
3
> <PUBCHEM_CACTVS_ROTATABLE_BOND>
10
> <PUBCHEM_CACTVS_SUBSKEYS>
AAADcfB7OABAAAAAAAAAAAAAGAAAAWJAAAAwAAAAAAAAAAABAAAAHgQQCAAADTzh2AayCIPABgiIAiFSGAICAABgABAIiIHIAIkLcDqg0TGeYAAllgCaiAeYyKCOAAAAAAAAAAAAAAAAAAAAAAAAAAAAAA==
> <PUBCHEM_IUPAC_OPENEYE_NAME>
[(3S)-tetrahydrofuran-3-yl] N-[(1S,2S)-1-benzyl-3-[(4R)-4-(cyclopropylmethylcarbamoyl)-5,5-dimethyl-thiazolidin-3-yl]-2-hydroxy-3-oxo-propyl]carbamate
> <PUBCHEM_IUPAC_CAS_NAME>
N-[(2S,3S)-4-[(4R)-4-[(cyclopropylmethylamino)-oxomethyl]-5,5-dimethyl-3-thiazolidinyl]-3-hydroxy-4-oxo-1-phenylbutan-2-yl]carbamic acid [(3S)-3-oxolanyl] ester
> <PUBCHEM_IUPAC_NAME_MARKUP>
[(3<I>S</I>)-oxolan-3-yl] <I>N</I>-[(2<I>S</I>,3<I>S</I>)-4-[(4<I>R</I>)-4-(cyclopropylmethylcarbamoyl)-5,5-dimethyl-1,3-thiazolidin-3-yl]-3-hydroxy-4-oxo-1-phenylbutan-2-yl]carbamate
> <PUBCHEM_IUPAC_NAME>
[(3S)-oxolan-3-yl] N-[(2S,3S)-4-[(4R)-4-(cyclopropylmethylcarbamoyl)-5,5-dimethyl-1,3-thiazolidin-3-yl]-3-hydroxy-4-oxo-1-phenylbutan-2-yl]carbamate
> <PUBCHEM_IUPAC_SYSTEMATIC_NAME>
[(3S)-oxolan-3-yl] N-[(2S,3S)-4-[(4R)-4-(cyclopropylmethylcarbamoyl)-5,5-dimethyl-1,3-thiazolidin-3-yl]-3-oxidanyl-4-oxidanylidene-1-phenyl-butan-2-yl]carbamate
> <PUBCHEM_IUPAC_TRADITIONAL_NAME>
N-[(1S,2S)-1-benzyl-3-[(4R)-4-(cyclopropylmethylcarbamoyl)-5,5-dimethyl-thiazolidin-3-yl]-2-hydroxy-3-keto-propyl]carbamic acid [(3S)-tetrahydrofuran-3-yl] ester
> <PUBCHEM_IUPAC_INCHI>
InChI=1S/C25H35N3O6S/c1-25(2)21(22(30)26-13-17-8-9-17)28(15-35-25)23(31)20(29)19(12-16-6-4-3-5-7-16)27-24(32)34-18-10-11-33-14-18/h3-7,17-21,29H,8-15H2,1-2H3,(H,26,30)(H,27,32)/t18-,19-,20-,21+/m0/s1
> <PUBCHEM_IUPAC_INCHIKEY>
LLMHPMUWODSSKM-XSDIEEQYSA-N
> <PUBCHEM_XLOGP3_AA>
2.2
> <PUBCHEM_EXACT_MASS>
505.22465702
> <PUBCHEM_MOLECULAR_FORMULA>
C25H35N3O6S
> <PUBCHEM_MOLECULAR_WEIGHT>
505.6
> <PUBCHEM_OPENEYE_CAN_SMILES>
CC1(C(N(CS1)C(=O)C(C(CC2=CC=CC=C2)NC(=O)OC3CCOC3)O)C(=O)NCC4CC4)C
> <PUBCHEM_OPENEYE_ISO_SMILES>
CC1([C@H](N(CS1)C(=O)[C@H]([C@H](CC2=CC=CC=C2)NC(=O)O[C@H]3CCOC3)O)C(=O)NCC4CC4)C
> <PUBCHEM_CACTVS_TPSA>
143
> <PUBCHEM_MONOISOTOPIC_WEIGHT>
505.22465702
> <PUBCHEM_TOTAL_CHARGE>
0
> <PUBCHEM_HEAVY_ATOM_COUNT>
35
> <PUBCHEM_ATOM_DEF_STEREO_COUNT>
4
> <PUBCHEM_ATOM_UDEF_STEREO_COUNT>
0
> <PUBCHEM_BOND_DEF_STEREO_COUNT>
0
> <PUBCHEM_BOND_UDEF_STEREO_COUNT>
0
> <PUBCHEM_ISOTOPIC_ATOM_COUNT>
0
> <PUBCHEM_COMPONENT_COUNT>
1
> <PUBCHEM_CACTVS_TAUTO_COUNT>
-1
> <PUBCHEM_COORDINATE_TYPE>
1
5
255
> <PUBCHEM_BONDANNOTATIONS>
23  10  5
15  17  6
25  31  8
25  32  8
22  3  5
31  33  8
32  34  8
33  35  8
34  35  8
26  5  5
$$$$
