514596
  -OEChem-10302200282D
 78 82  0     1  0  0  0  0  0999 V2000
    6.2809    2.1129    0.0000 S   0  0  0  0  0  0  0  0  0  0  0  0
    6.6353   -1.2000    0.0000 O   0  0  0  0  0  0  0  0  0  0  0  0
    9.0582    1.6125    0.0000 O   0  0  0  0  0  0  0  0  0  0  0  0
    7.9314   -0.7813    0.0000 O   0  0  0  0  0  0  0  0  0  0  0  0
    9.9724    2.0177    0.0000 O   0  0  0  0  0  0  0  0  0  0  0  0
    7.2297    0.8022    0.0000 N   0  0  0  0  0  0  0  0  0  0  0  0
    4.9889   -0.6619    0.0000 N   0  0  0  0  0  0  0  0  0  0  0  0
   10.6742    0.4341    0.0000 N   0  0  0  0  0  0  0  0  0  0  0  0
    6.2781    0.4948    0.0000 C   0  0  1  0  0  0  0  0  0  0  0  0
    5.6917    1.3049    0.0000 C   0  0  0  0  0  0  0  0  0  0  0  0
    4.6783   -1.6124    0.0000 C   0  0  1  0  0  0  0  0  0  0  0  0
    7.2314    1.8022    0.0000 C   0  0  0  0  0  0  0  0  0  0  0  0
    5.9674   -0.4557    0.0000 C   0  0  0  0  0  0  0  0  0  0  0  0
    4.8837    1.8940    0.0000 C   0  0  0  0  0  0  0  0  0  0  0  0
    4.8817    0.7185    0.0000 C   0  0  0  0  0  0  0  0  0  0  0  0
    5.2619   -2.4172    0.0000 C   0  0  0  0  0  0  0  0  0  0  0  0
    3.7320   -1.9172    0.0000 C   0  0  0  0  0  0  0  0  0  0  0  0
    8.0377    0.2130    0.0000 C   0  0  0  0  0  0  0  0  0  0  0  0
    4.6783   -3.2219    0.0000 C   0  0  0  0  0  0  0  0  0  0  0  0
    3.7320   -2.9172    0.0000 C   0  0  0  0  0  0  0  0  0  0  0  0
    8.9519    0.6182    0.0000 C   0  0  2  0  0  0  0  0  0  0  0  0
    9.7599    0.0290    0.0000 C   0  0  2  0  0  0  0  0  0  0  0  0
    2.8660   -1.4172    0.0000 C   0  0  0  0  0  0  0  0  0  0  0  0
    2.8660   -3.4172    0.0000 C   0  0  0  0  0  0  0  0  0  0  0  0
    9.6537   -0.9654    0.0000 C   0  0  0  0  0  0  0  0  0  0  0  0
    2.0000   -1.9172    0.0000 C   0  0  0  0  0  0  0  0  0  0  0  0
    2.0000   -2.9172    0.0000 C   0  0  0  0  0  0  0  0  0  0  0  0
   10.4617   -1.5545    0.0000 C   0  0  0  0  0  0  0  0  0  0  0  0
   10.7804    1.4285    0.0000 C   0  0  0  0  0  0  0  0  0  0  0  0
   11.3759   -1.1494    0.0000 C   0  0  0  0  0  0  0  0  0  0  0  0
   10.3554   -2.5489    0.0000 C   0  0  0  0  0  0  0  0  0  0  0  0
   11.6947    1.8336    0.0000 C   0  0  0  0  0  0  0  0  0  0  0  0
   12.1839   -1.7386    0.0000 C   0  0  0  0  0  0  0  0  0  0  0  0
   11.1634   -3.1381    0.0000 C   0  0  0  0  0  0  0  0  0  0  0  0
   11.8009    2.8280    0.0000 C   0  0  0  0  0  0  0  0  0  0  0  0
   12.0777   -2.7329    0.0000 C   0  0  0  0  0  0  0  0  0  0  0  0
   12.5027    1.2444    0.0000 C   0  0  0  0  0  0  0  0  0  0  0  0
   12.7152    3.2331    0.0000 C   0  0  0  0  0  0  0  0  0  0  0  0
   10.9929    3.4172    0.0000 C   0  0  0  0  0  0  0  0  0  0  0  0
   13.4169    1.6496    0.0000 C   0  0  0  0  0  0  0  0  0  0  0  0
   13.5232    2.6439    0.0000 C   0  0  0  0  0  0  0  0  0  0  0  0
    6.7158    0.0557    0.0000 H   0  0  0  0  0  0  0  0  0  0  0  0
    5.2908   -1.5162    0.0000 H   0  0  0  0  0  0  0  0  0  0  0  0
    7.8479    1.7363    0.0000 H   0  0  0  0  0  0  0  0  0  0  0  0
    7.3614    2.4084    0.0000 H   0  0  0  0  0  0  0  0  0  0  0  0
    5.2490    2.3950    0.0000 H   0  0  0  0  0  0  0  0  0  0  0  0
    4.3828    2.2593    0.0000 H   0  0  0  0  0  0  0  0  0  0  0  0
    4.5184    1.3931    0.0000 H   0  0  0  0  0  0  0  0  0  0  0  0
    4.5181    1.2207    0.0000 H   0  0  0  0  0  0  0  0  0  0  0  0
    4.3795    0.3549    0.0000 H   0  0  0  0  0  0  0  0  0  0  0  0
    5.2452    0.2163    0.0000 H   0  0  0  0  0  0  0  0  0  0  0  0
    5.7227   -2.8319    0.0000 H   0  0  0  0  0  0  0  0  0  0  0  0
    5.7227   -2.0024    0.0000 H   0  0  0  0  0  0  0  0  0  0  0  0
    4.5749   -0.2004    0.0000 H   0  0  0  0  0  0  0  0  0  0  0  0
    4.4272   -3.7888    0.0000 H   0  0  0  0  0  0  0  0  0  0  0  0
    5.2156   -3.5311    0.0000 H   0  0  0  0  0  0  0  0  0  0  0  0
    9.5188    0.8694    0.0000 H   0  0  0  0  0  0  0  0  0  0  0  0
   10.2609   -0.3363    0.0000 H   0  0  0  0  0  0  0  0  0  0  0  0
    2.8660   -0.7972    0.0000 H   0  0  0  0  0  0  0  0  0  0  0  0
    2.8660   -4.0372    0.0000 H   0  0  0  0  0  0  0  0  0  0  0  0
    9.0580   -0.7934    0.0000 H   0  0  0  0  0  0  0  0  0  0  0  0
    9.3809   -1.5221    0.0000 H   0  0  0  0  0  0  0  0  0  0  0  0
   11.1751    0.0688    0.0000 H   0  0  0  0  0  0  0  0  0  0  0  0
    1.4631   -1.6072    0.0000 H   0  0  0  0  0  0  0  0  0  0  0  0
    1.4631   -3.2272    0.0000 H   0  0  0  0  0  0  0  0  0  0  0  0
    8.5572    1.9778    0.0000 H   0  0  0  0  0  0  0  0  0  0  0  0
   11.4418   -0.5329    0.0000 H   0  0  0  0  0  0  0  0  0  0  0  0
    9.7886   -2.8001    0.0000 H   0  0  0  0  0  0  0  0  0  0  0  0
   12.7508   -1.4874    0.0000 H   0  0  0  0  0  0  0  0  0  0  0  0
   11.0976   -3.7546    0.0000 H   0  0  0  0  0  0  0  0  0  0  0  0
   12.5786   -3.0982    0.0000 H   0  0  0  0  0  0  0  0  0  0  0  0
   12.4368    0.6280    0.0000 H   0  0  0  0  0  0  0  0  0  0  0  0
   12.7811    3.8496    0.0000 H   0  0  0  0  0  0  0  0  0  0  0  0
   11.3582    3.9181    0.0000 H   0  0  0  0  0  0  0  0  0  0  0  0
   10.4920    3.7825    0.0000 H   0  0  0  0  0  0  0  0  0  0  0  0
   10.6276    2.9162    0.0000 H   0  0  0  0  0  0  0  0  0  0  0  0
   13.9179    1.2843    0.0000 H   0  0  0  0  0  0  0  0  0  0  0  0
   14.0900    2.8951    0.0000 H   0  0  0  0  0  0  0  0  0  0  0  0
  1 10  1  0  0  0  0
  1 12  1  0  0  0  0
  2 13  2  0  0  0  0
 21  3  1  1  0  0  0
  3 66  1  0  0  0  0
  4 18  2  0  0  0  0
  5 29  2  0  0  0  0
  6  9  1  0  0  0  0
  6 12  1  0  0  0  0
  6 18  1  0  0  0  0
 11  7  1  1  0  0  0
  7 13  1  0  0  0  0
  7 54  1  0  0  0  0
 22  8  1  1  0  0  0
  8 29  1  0  0  0  0
  8 63  1  0  0  0  0
  9 10  1  0  0  0  0
  9 13  1  6  0  0  0
  9 42  1  0  0  0  0
 10 14  1  0  0  0  0
 10 15  1  0  0  0  0
 11 16  1  0  0  0  0
 11 17  1  0  0  0  0
 11 43  1  0  0  0  0
 12 44  1  0  0  0  0
 12 45  1  0  0  0  0
 14 46  1  0  0  0  0
 14 47  1  0  0  0  0
 14 48  1  0  0  0  0
 15 49  1  0  0  0  0
 15 50  1  0  0  0  0
 15 51  1  0  0  0  0
 16 19  1  0  0  0  0
 16 52  1  0  0  0  0
 16 53  1  0  0  0  0
 17 20  1  0  0  0  0
 17 23  2  0  0  0  0
 18 21  1  0  0  0  0
 19 20  1  0  0  0  0
 19 55  1  0  0  0  0
 19 56  1  0  0  0  0
 20 24  2  0  0  0  0
 21 22  1  0  0  0  0
 21 57  1  0  0  0  0
 22 25  1  0  0  0  0
 22 58  1  0  0  0  0
 23 26  1  0  0  0  0
 23 59  1  0  0  0  0
 24 27  1  0  0  0  0
 24 60  1  0  0  0  0
 25 28  1  0  0  0  0
 25 61  1  0  0  0  0
 25 62  1  0  0  0  0
 26 27  2  0  0  0  0
 26 64  1  0  0  0  0
 27 65  1  0  0  0  0
 28 30  2  0  0  0  0
 28 31  1  0  0  0  0
 29 32  1  0  0  0  0
 30 33  1  0  0  0  0
 30 67  1  0  0  0  0
 31 34  2  0  0  0  0
 31 68  1  0  0  0  0
 32 35  1  0  0  0  0
 32 37  2  0  0  0  0
 33 36  2  0  0  0  0
 33 69  1  0  0  0  0
 34 36  1  0  0  0  0
 34 70  1  0  0  0  0
 35 38  2  0  0  0  0
 35 39  1  0  0  0  0
 36 71  1  0  0  0  0
 37 40  1  0  0  0  0
 37 72  1  0  0  0  0
 38 41  1  0  0  0  0
 38 73  1  0  0  0  0
 39 74  1  0  0  0  0
 39 75  1  0  0  0  0
 39 76  1  0  0  0  0
 40 41  2  0  0  0  0
 40 77  1  0  0  0  0
 41 78  1  0  0  0  0
M  END
> <PUBCHEM_COMPOUND_CID>
514596
> <PUBCHEM_COMPOUND_CANONICALIZED>
1
> <PUBCHEM_CACTVS_COMPLEXITY>
937
> <PUBCHEM_CACTVS_HBOND_ACCEPTOR>
5
> <PUBCHEM_CACTVS_HBOND_DONOR>
3
> <PUBCHEM_CACTVS_ROTATABLE_BOND>
8
> <PUBCHEM_CACTVS_SUBSKEYS>
AAADcfB/OABAAAAAAAAAAAAAAAAAAeIAAAAwYMAAAAAAAGABUAAAHgQQCAAADDzh2AayAIPAAgiIAiFSEAKCAABkABAIiIHIBMgKcDqg1TGUYQhklgCYiYeYyKCOgAAAAAAQAAAAAAAAACAAACAACQAAAA==
> <PUBCHEM_IUPAC_OPENEYE_NAME>
(4R)-3-[(2S,3S)-2-hydroxy-3-[(2-methylbenzoyl)amino]-4-phenyl-butanoyl]-N-[(1S)-indan-1-yl]-5,5-dimethyl-thiazolidine-4-carboxamide
> <PUBCHEM_IUPAC_CAS_NAME>
(4R)-N-[(1S)-2,3-dihydro-1H-inden-1-yl]-3-[(2S,3S)-2-hydroxy-3-[[(2-methylphenyl)-oxomethyl]amino]-1-oxo-4-phenylbutyl]-5,5-dimethyl-4-thiazolidinecarboxamide
> <PUBCHEM_IUPAC_NAME_MARKUP>
(4<I>R</I>)-<I>N</I>-[(1<I>S</I>)-2,3-dihydro-1<I>H</I>-inden-1-yl]-3-[(2<I>S</I>,3<I>S</I>)-2-hydroxy-3-[(2-methylbenzoyl)amino]-4-phenylbutanoyl]-5,5-dimethyl-1,3-thiazolidine-4-carboxamide
> <PUBCHEM_IUPAC_NAME>
(4R)-N-[(1S)-2,3-dihydro-1H-inden-1-yl]-3-[(2S,3S)-2-hydroxy-3-[(2-methylbenzoyl)amino]-4-phenylbutanoyl]-5,5-dimethyl-1,3-thiazolidine-4-carboxamide
> <PUBCHEM_IUPAC_SYSTEMATIC_NAME>
(4R)-N-[(1S)-2,3-dihydro-1H-inden-1-yl]-5,5-dimethyl-3-[(2S,3S)-3-[(2-methylphenyl)carbonylamino]-2-oxidanyl-4-phenyl-butanoyl]-1,3-thiazolidine-4-carboxamide
> <PUBCHEM_IUPAC_TRADITIONAL_NAME>
(4R)-3-[(2S,3S)-2-hydroxy-3-(o-toluoylamino)-4-phenyl-butanoyl]-N-[(1S)-indan-1-yl]-5,5-dimethyl-thiazolidine-4-carboxamide
> <PUBCHEM_IUPAC_INCHI>
InChI=1S/C33H37N3O4S/c1-21-11-7-9-15-24(21)30(38)35-27(19-22-12-5-4-6-13-22)28(37)32(40)36-20-41-33(2,3)29(36)31(39)34-26-18-17-23-14-8-10-16-25(23)26/h4-16,26-29,37H,17-20H2,1-3H3,(H,34,39)(H,35,38)/t26-,27-,28-,29+/m0/s1
> <PUBCHEM_IUPAC_INCHIKEY>
IHIPAJLSEYDUOL-XFTNXAEASA-N
> <PUBCHEM_XLOGP3_AA>
4.9
> <PUBCHEM_EXACT_MASS>
571.25047784
> <PUBCHEM_MOLECULAR_FORMULA>
C33H37N3O4S
> <PUBCHEM_MOLECULAR_WEIGHT>
571.7
> <PUBCHEM_OPENEYE_CAN_SMILES>
CC1=CC=CC=C1C(=O)NC(CC2=CC=CC=C2)C(C(=O)N3CSC(C3C(=O)NC4CCC5=CC=CC=C45)(C)C)O
> <PUBCHEM_OPENEYE_ISO_SMILES>
CC1=CC=CC=C1C(=O)N[C@@H](CC2=CC=CC=C2)[C@@H](C(=O)N3CSC([C@H]3C(=O)N[C@H]4CCC5=CC=CC=C45)(C)C)O
> <PUBCHEM_CACTVS_TPSA>
124
> <PUBCHEM_MONOISOTOPIC_WEIGHT>
571.25047784
> <PUBCHEM_TOTAL_CHARGE>
0
> <PUBCHEM_HEAVY_ATOM_COUNT>
41
> <PUBCHEM_ATOM_DEF_STEREO_COUNT>
4
> <PUBCHEM_ATOM_UDEF_STEREO_COUNT>
0
> <PUBCHEM_BOND_DEF_STEREO_COUNT>
0
> <PUBCHEM_BOND_UDEF_STEREO_COUNT>
0
> <PUBCHEM_ISOTOPIC_ATOM_COUNT>
0
> <PUBCHEM_COMPONENT_COUNT>
1
> <PUBCHEM_CACTVS_TAUTO_COUNT>
-1
> <PUBCHEM_COORDINATE_TYPE>
1
5
255
> <PUBCHEM_BONDANNOTATIONS>
17  20  8
17  23  8
20  24  8
23  26  8
24  27  8
26  27  8
28  30  8
28  31  8
21  3  5
30  33  8
31  34  8
32  35  8
32  37  8
33  36  8
34  36  8
35  38  8
37  40  8
38  41  8
40  41  8
11  7  5
22  8  5
9  13  6
$$$$
