514501
  -OEChem-10302200282D
 78 82  0     1  0  0  0  0  0999 V2000
    8.6593    3.3353    0.0000 S   0  0  0  0  0  0  0  0  0  0  0  0
    9.6146    0.6800    0.0000 O   0  0  0  0  0  0  0  0  0  0  0  0
    5.6103    3.0668    0.0000 O   0  0  0  0  0  0  0  0  0  0  0  0
    6.9781    0.4588    0.0000 O   0  0  0  0  0  0  0  0  0  0  0  0
   10.4226    0.0908    0.0000 O   0  0  0  0  0  0  0  0  0  0  0  0
   11.7198   -4.0706    0.0000 O   0  0  0  0  0  0  0  0  0  0  0  0
    7.9986    1.8583    0.0000 N   0  0  0  0  0  0  0  0  0  0  0  0
    5.9674    1.3720    0.0000 N   0  0  0  0  0  0  0  0  0  0  0  0
    9.4021   -1.3087    0.0000 N   0  0  0  0  0  0  0  0  0  0  0  0
    5.2619   -0.5895    0.0000 N   0  0  0  0  0  0  0  0  0  0  0  0
    4.6783   -1.3942    0.0000 N   0  0  0  0  0  0  0  0  0  0  0  0
    7.6649    3.4416    0.0000 C   0  0  0  0  0  0  0  0  0  0  0  0
    7.2566    2.5287    0.0000 C   0  0  1  0  0  0  0  0  0  0  0  0
    8.8655    2.3568    0.0000 C   0  0  0  0  0  0  0  0  0  0  0  0
    7.7712    4.4359    0.0000 C   0  0  0  0  0  0  0  0  0  0  0  0
    6.7521    3.8499    0.0000 C   0  0  0  0  0  0  0  0  0  0  0  0
    6.2781    2.3225    0.0000 C   0  0  0  0  0  0  0  0  0  0  0  0
    7.8923    0.8640    0.0000 C   0  0  0  0  0  0  0  0  0  0  0  0
    8.7003    0.2748    0.0000 C   0  0  2  0  0  0  0  0  0  0  0  0
    8.5941   -0.7195    0.0000 C   0  0  2  0  0  0  0  0  0  0  0  0
    7.6798   -1.1247    0.0000 C   0  0  0  0  0  0  0  0  0  0  0  0
    4.9889    1.1658    0.0000 C   0  0  0  0  0  0  0  0  0  0  0  0
    7.5736   -2.1190    0.0000 C   0  0  0  0  0  0  0  0  0  0  0  0
    4.6783    0.2153    0.0000 C   0  0  0  0  0  0  0  0  0  0  0  0
   10.3163   -0.9036    0.0000 C   0  0  0  0  0  0  0  0  0  0  0  0
    3.7320   -0.0895    0.0000 C   0  0  0  0  0  0  0  0  0  0  0  0
    8.3816   -2.7082    0.0000 C   0  0  0  0  0  0  0  0  0  0  0  0
    6.6594   -2.5242    0.0000 C   0  0  0  0  0  0  0  0  0  0  0  0
   11.1243   -1.4928    0.0000 C   0  0  0  0  0  0  0  0  0  0  0  0
    3.7320   -1.0895    0.0000 C   0  0  0  0  0  0  0  0  0  0  0  0
    8.2753   -3.7026    0.0000 C   0  0  0  0  0  0  0  0  0  0  0  0
    6.5531   -3.5185    0.0000 C   0  0  0  0  0  0  0  0  0  0  0  0
    2.8660    0.4105    0.0000 C   0  0  0  0  0  0  0  0  0  0  0  0
   11.0181   -2.4871    0.0000 C   0  0  0  0  0  0  0  0  0  0  0  0
    7.3611   -4.1077    0.0000 C   0  0  0  0  0  0  0  0  0  0  0  0
   12.0386   -1.0876    0.0000 C   0  0  0  0  0  0  0  0  0  0  0  0
    2.8660   -1.5895    0.0000 C   0  0  0  0  0  0  0  0  0  0  0  0
    2.0000   -0.0895    0.0000 C   0  0  0  0  0  0  0  0  0  0  0  0
   11.8261   -3.0763    0.0000 C   0  0  0  0  0  0  0  0  0  0  0  0
    2.0000   -1.0895    0.0000 C   0  0  0  0  0  0  0  0  0  0  0  0
   10.1038   -2.8923    0.0000 C   0  0  0  0  0  0  0  0  0  0  0  0
   12.8466   -1.6768    0.0000 C   0  0  0  0  0  0  0  0  0  0  0  0
   12.7403   -2.6711    0.0000 C   0  0  0  0  0  0  0  0  0  0  0  0
    7.0951    1.9301    0.0000 H   0  0  0  0  0  0  0  0  0  0  0  0
    9.1167    1.7900    0.0000 H   0  0  0  0  0  0  0  0  0  0  0  0
    9.4555    2.5474    0.0000 H   0  0  0  0  0  0  0  0  0  0  0  0
    8.3877    4.3700    0.0000 H   0  0  0  0  0  0  0  0  0  0  0  0
    7.8370    5.0524    0.0000 H   0  0  0  0  0  0  0  0  0  0  0  0
    7.1547    4.5018    0.0000 H   0  0  0  0  0  0  0  0  0  0  0  0
    7.0052    4.4158    0.0000 H   0  0  0  0  0  0  0  0  0  0  0  0
    6.1861    4.1030    0.0000 H   0  0  0  0  0  0  0  0  0  0  0  0
    6.4989    3.2839    0.0000 H   0  0  0  0  0  0  0  0  0  0  0  0
    8.7662    0.8913    0.0000 H   0  0  0  0  0  0  0  0  0  0  0  0
    9.1609   -0.4683    0.0000 H   0  0  0  0  0  0  0  0  0  0  0  0
    6.3815    0.9105    0.0000 H   0  0  0  0  0  0  0  0  0  0  0  0
    7.5309   -0.5229    0.0000 H   0  0  0  0  0  0  0  0  0  0  0  0
    7.0613   -1.1669    0.0000 H   0  0  0  0  0  0  0  0  0  0  0  0
    9.3362   -1.9252    0.0000 H   0  0  0  0  0  0  0  0  0  0  0  0
    4.9684    1.7854    0.0000 H   0  0  0  0  0  0  0  0  0  0  0  0
    4.3751    1.2531    0.0000 H   0  0  0  0  0  0  0  0  0  0  0  0
    9.6805    1.2964    0.0000 H   0  0  0  0  0  0  0  0  0  0  0  0
    8.9484   -2.4570    0.0000 H   0  0  0  0  0  0  0  0  0  0  0  0
    6.1584   -2.1589    0.0000 H   0  0  0  0  0  0  0  0  0  0  0  0
    5.8819   -0.5895    0.0000 H   0  0  0  0  0  0  0  0  0  0  0  0
    8.7763   -4.0679    0.0000 H   0  0  0  0  0  0  0  0  0  0  0  0
    5.9863   -3.7697    0.0000 H   0  0  0  0  0  0  0  0  0  0  0  0
    2.8660    1.0305    0.0000 H   0  0  0  0  0  0  0  0  0  0  0  0
    7.2952   -4.7242    0.0000 H   0  0  0  0  0  0  0  0  0  0  0  0
   12.1045   -0.4711    0.0000 H   0  0  0  0  0  0  0  0  0  0  0  0
    2.8660   -2.2095    0.0000 H   0  0  0  0  0  0  0  0  0  0  0  0
    1.4631    0.2205    0.0000 H   0  0  0  0  0  0  0  0  0  0  0  0
    1.4631   -1.3995    0.0000 H   0  0  0  0  0  0  0  0  0  0  0  0
    9.8526   -2.3254    0.0000 H   0  0  0  0  0  0  0  0  0  0  0  0
    9.5370   -3.1434    0.0000 H   0  0  0  0  0  0  0  0  0  0  0  0
   10.3550   -3.4591    0.0000 H   0  0  0  0  0  0  0  0  0  0  0  0
   13.4134   -1.4256    0.0000 H   0  0  0  0  0  0  0  0  0  0  0  0
   13.2413   -3.0364    0.0000 H   0  0  0  0  0  0  0  0  0  0  0  0
   12.2208   -4.4359    0.0000 H   0  0  0  0  0  0  0  0  0  0  0  0
  1 12  1  0  0  0  0
  1 14  1  0  0  0  0
 19  2  1  1  0  0  0
  2 61  1  0  0  0  0
  3 17  2  0  0  0  0
  4 18  2  0  0  0  0
  5 25  2  0  0  0  0
  6 39  1  0  0  0  0
  6 78  1  0  0  0  0
  7 13  1  0  0  0  0
  7 14  1  0  0  0  0
  7 18  1  0  0  0  0
  8 17  1  0  0  0  0
  8 22  1  0  0  0  0
  8 55  1  0  0  0  0
 20  9  1  1  0  0  0
  9 25  1  0  0  0  0
  9 58  1  0  0  0  0
 10 11  1  0  0  0  0
 10 24  1  0  0  0  0
 10 64  1  0  0  0  0
 11 30  2  0  0  0  0
 12 13  1  0  0  0  0
 12 15  1  0  0  0  0
 12 16  1  0  0  0  0
 13 17  1  6  0  0  0
 13 44  1  0  0  0  0
 14 45  1  0  0  0  0
 14 46  1  0  0  0  0
 15 47  1  0  0  0  0
 15 48  1  0  0  0  0
 15 49  1  0  0  0  0
 16 50  1  0  0  0  0
 16 51  1  0  0  0  0
 16 52  1  0  0  0  0
 18 19  1  0  0  0  0
 19 20  1  0  0  0  0
 19 53  1  0  0  0  0
 20 21  1  0  0  0  0
 20 54  1  0  0  0  0
 21 23  1  0  0  0  0
 21 56  1  0  0  0  0
 21 57  1  0  0  0  0
 22 24  1  0  0  0  0
 22 59  1  0  0  0  0
 22 60  1  0  0  0  0
 23 27  2  0  0  0  0
 23 28  1  0  0  0  0
 24 26  2  0  0  0  0
 25 29  1  0  0  0  0
 26 30  1  0  0  0  0
 26 33  1  0  0  0  0
 27 31  1  0  0  0  0
 27 62  1  0  0  0  0
 28 32  2  0  0  0  0
 28 63  1  0  0  0  0
 29 34  2  0  0  0  0
 29 36  1  0  0  0  0
 30 37  1  0  0  0  0
 31 35  2  0  0  0  0
 31 65  1  0  0  0  0
 32 35  1  0  0  0  0
 32 66  1  0  0  0  0
 33 38  2  0  0  0  0
 33 67  1  0  0  0  0
 34 39  1  0  0  0  0
 34 41  1  0  0  0  0
 35 68  1  0  0  0  0
 36 42  2  0  0  0  0
 36 69  1  0  0  0  0
 37 40  2  0  0  0  0
 37 70  1  0  0  0  0
 38 40  1  0  0  0  0
 38 71  1  0  0  0  0
 39 43  2  0  0  0  0
 40 72  1  0  0  0  0
 41 73  1  0  0  0  0
 41 74  1  0  0  0  0
 41 75  1  0  0  0  0
 42 43  1  0  0  0  0
 42 76  1  0  0  0  0
 43 77  1  0  0  0  0
M  END
> <PUBCHEM_COMPOUND_CID>
514501
> <PUBCHEM_COMPOUND_CANONICALIZED>
1
> <PUBCHEM_CACTVS_COMPLEXITY>
993
> <PUBCHEM_CACTVS_HBOND_ACCEPTOR>
7
> <PUBCHEM_CACTVS_HBOND_DONOR>
5
> <PUBCHEM_CACTVS_ROTATABLE_BOND>
9
> <PUBCHEM_CACTVS_SUBSKEYS>
AAADcfB/uABAAAAAAAAAAAAAAAAAAWLAAAAwYMAAAAAAAFgB9AAAHgQYCAAADDzh3gayxvPjAgiqAyVyUAKSBABkIhAYuaH+bNgKdrqi1fOU9Qhk3hGY2Ye6yLCOgAABAAAaAAAAAAIAADQAAAAAAAAAAA==
> <PUBCHEM_IUPAC_OPENEYE_NAME>
(4R)-3-[(2S,3S)-2-hydroxy-3-[(3-hydroxy-2-methyl-benzoyl)amino]-4-phenyl-butanoyl]-N-(2H-indazol-3-ylmethyl)-5,5-dimethyl-thiazolidine-4-carboxamide
> <PUBCHEM_IUPAC_CAS_NAME>
(4R)-3-[(2S,3S)-2-hydroxy-3-[[(3-hydroxy-2-methylphenyl)-oxomethyl]amino]-1-oxo-4-phenylbutyl]-N-(2H-indazol-3-ylmethyl)-5,5-dimethyl-4-thiazolidinecarboxamide
> <PUBCHEM_IUPAC_NAME_MARKUP>
(4<I>R</I>)-3-[(2<I>S</I>,3<I>S</I>)-2-hydroxy-3-[(3-hydroxy-2-methylbenzoyl)amino]-4-phenylbutanoyl]-<I>N</I>-(2<I>H</I>-indazol-3-ylmethyl)-5,5-dimethyl-1,3-thiazolidine-4-carboxamide
> <PUBCHEM_IUPAC_NAME>
(4R)-3-[(2S,3S)-2-hydroxy-3-[(3-hydroxy-2-methylbenzoyl)amino]-4-phenylbutanoyl]-N-(2H-indazol-3-ylmethyl)-5,5-dimethyl-1,3-thiazolidine-4-carboxamide
> <PUBCHEM_IUPAC_SYSTEMATIC_NAME>
(4R)-N-(2H-indazol-3-ylmethyl)-5,5-dimethyl-3-[(2S,3S)-3-[(2-methyl-3-oxidanyl-phenyl)carbonylamino]-2-oxidanyl-4-phenyl-butanoyl]-1,3-thiazolidine-4-carboxamide
> <PUBCHEM_IUPAC_TRADITIONAL_NAME>
(4R)-3-[(2S,3S)-2-hydroxy-3-[(3-hydroxy-2-methyl-benzoyl)amino]-4-phenyl-butanoyl]-N-(2H-indazol-3-ylmethyl)-5,5-dimethyl-thiazolidine-4-carboxamide
> <PUBCHEM_IUPAC_INCHI>
InChI=1S/C32H35N5O5S/c1-19-21(13-9-15-26(19)38)29(40)34-24(16-20-10-5-4-6-11-20)27(39)31(42)37-18-43-32(2,3)28(37)30(41)33-17-25-22-12-7-8-14-23(22)35-36-25/h4-15,24,27-28,38-39H,16-18H2,1-3H3,(H,33,41)(H,34,40)(H,35,36)/t24-,27-,28+/m0/s1
> <PUBCHEM_IUPAC_INCHIKEY>
DCOZJYIXDMDZBS-SAAIGDAKSA-N
> <PUBCHEM_XLOGP3_AA>
3.8
> <PUBCHEM_EXACT_MASS>
601.23589041
> <PUBCHEM_MOLECULAR_FORMULA>
C32H35N5O5S
> <PUBCHEM_MOLECULAR_WEIGHT>
601.7
> <PUBCHEM_OPENEYE_CAN_SMILES>
CC1=C(C=CC=C1O)C(=O)NC(CC2=CC=CC=C2)C(C(=O)N3CSC(C3C(=O)NCC4=C5C=CC=CC5=NN4)(C)C)O
> <PUBCHEM_OPENEYE_ISO_SMILES>
CC1=C(C=CC=C1O)C(=O)N[C@@H](CC2=CC=CC=C2)[C@@H](C(=O)N3CSC([C@H]3C(=O)NCC4=C5C=CC=CC5=NN4)(C)C)O
> <PUBCHEM_CACTVS_TPSA>
173
> <PUBCHEM_MONOISOTOPIC_WEIGHT>
601.23589041
> <PUBCHEM_TOTAL_CHARGE>
0
> <PUBCHEM_HEAVY_ATOM_COUNT>
43
> <PUBCHEM_ATOM_DEF_STEREO_COUNT>
3
> <PUBCHEM_ATOM_UDEF_STEREO_COUNT>
0
> <PUBCHEM_BOND_DEF_STEREO_COUNT>
0
> <PUBCHEM_BOND_UDEF_STEREO_COUNT>
0
> <PUBCHEM_ISOTOPIC_ATOM_COUNT>
0
> <PUBCHEM_COMPONENT_COUNT>
1
> <PUBCHEM_CACTVS_TAUTO_COUNT>
-1
> <PUBCHEM_COORDINATE_TYPE>
1
5
255
> <PUBCHEM_BONDANNOTATIONS>
10  11  8
10  24  8
11  30  8
13  17  6
19  2  5
23  27  8
23  28  8
24  26  8
26  30  8
26  33  8
27  31  8
28  32  8
29  34  8
29  36  8
30  37  8
31  35  8
32  35  8
33  38  8
34  39  8
36  42  8
37  40  8
38  40  8
39  43  8
42  43  8
20  9  5
$$$$
