514549
  -OEChem-10302200282D
 74 78  0     1  0  0  0  0  0999 V2000
    5.1270    2.3995    0.0000 S   0  0  0  0  0  0  0  0  0  0  0  0
    5.8313   -0.8570    0.0000 O   0  0  0  0  0  0  0  0  0  0  0  0
    7.9417    2.1970    0.0000 O   0  0  0  0  0  0  0  0  0  0  0  0
    7.0756   -0.3030    0.0000 O   0  0  0  0  0  0  0  0  0  0  0  0
   10.5398   -0.3030    0.0000 O   0  0  0  0  0  0  0  0  0  0  0  0
    6.2096    1.1970    0.0000 N   0  0  0  0  0  0  0  0  0  0  0  0
    4.1371   -0.4969    0.0000 N   0  0  0  0  0  0  0  0  0  0  0  0
    8.8077   -0.3030    0.0000 N   0  0  0  0  0  0  0  0  0  0  0  0
   11.4860   -3.6077    0.0000 N   0  0  0  0  0  0  0  0  0  0  0  0
    2.9782   -1.7840    0.0000 C   0  0  0  0  0  0  0  0  0  0  0  0
    2.0000   -1.5761    0.0000 C   0  0  0  0  0  0  0  0  0  0  0  0
    2.3090   -2.5272    0.0000 C   0  0  0  0  0  0  0  0  0  0  0  0
    3.9292   -1.4750    0.0000 C   0  0  0  0  0  0  0  0  0  0  0  0
    5.2961    0.7903    0.0000 C   0  0  1  0  0  0  0  0  0  0  0  0
    4.6270    1.5334    0.0000 C   0  0  0  0  0  0  0  0  0  0  0  0
    5.0882   -0.1879    0.0000 C   0  0  0  0  0  0  0  0  0  0  0  0
    6.1051    2.1916    0.0000 C   0  0  0  0  0  0  0  0  0  0  0  0
    3.7609    2.0334    0.0000 C   0  0  0  0  0  0  0  0  0  0  0  0
    3.8838    0.8643    0.0000 C   0  0  0  0  0  0  0  0  0  0  0  0
    7.0756    0.6970    0.0000 C   0  0  0  0  0  0  0  0  0  0  0  0
    7.9417    1.1970    0.0000 C   0  0  2  0  0  0  0  0  0  0  0  0
    8.8077    0.6970    0.0000 C   0  0  2  0  0  0  0  0  0  0  0  0
    9.6737    1.1970    0.0000 C   0  0  0  0  0  0  0  0  0  0  0  0
    9.6737    2.1970    0.0000 C   0  0  0  0  0  0  0  0  0  0  0  0
    9.6737   -0.8030    0.0000 C   0  0  0  0  0  0  0  0  0  0  0  0
   10.5398   -2.3030    0.0000 C   0  0  0  0  0  0  0  0  0  0  0  0
    9.6737   -1.8030    0.0000 C   0  0  0  0  0  0  0  0  0  0  0  0
   11.4860   -1.9982    0.0000 C   0  0  0  0  0  0  0  0  0  0  0  0
   10.5398   -3.3030    0.0000 C   0  0  0  0  0  0  0  0  0  0  0  0
   12.0696   -2.8030    0.0000 C   0  0  0  0  0  0  0  0  0  0  0  0
    8.8077    2.6970    0.0000 C   0  0  0  0  0  0  0  0  0  0  0  0
   10.5398    2.6970    0.0000 C   0  0  0  0  0  0  0  0  0  0  0  0
    8.8077   -2.3030    0.0000 C   0  0  0  0  0  0  0  0  0  0  0  0
    9.6737   -3.8030    0.0000 C   0  0  0  0  0  0  0  0  0  0  0  0
    8.8077   -3.3030    0.0000 C   0  0  0  0  0  0  0  0  0  0  0  0
    8.8077    3.6970    0.0000 C   0  0  0  0  0  0  0  0  0  0  0  0
   10.5398    3.6970    0.0000 C   0  0  0  0  0  0  0  0  0  0  0  0
    9.6737    4.1970    0.0000 C   0  0  0  0  0  0  0  0  0  0  0  0
    3.3158   -2.3040    0.0000 H   0  0  0  0  0  0  0  0  0  0  0  0
    2.0216   -0.9565    0.0000 H   0  0  0  0  0  0  0  0  0  0  0  0
    1.3860   -1.6624    0.0000 H   0  0  0  0  0  0  0  0  0  0  0  0
    1.7616   -2.8183    0.0000 H   0  0  0  0  0  0  0  0  0  0  0  0
    2.6907   -3.0158    0.0000 H   0  0  0  0  0  0  0  0  0  0  0  0
    4.0155   -2.0890    0.0000 H   0  0  0  0  0  0  0  0  0  0  0  0
    4.5488   -1.4967    0.0000 H   0  0  0  0  0  0  0  0  0  0  0  0
    5.7779    0.4001    0.0000 H   0  0  0  0  0  0  0  0  0  0  0  0
    3.6764   -0.0820    0.0000 H   0  0  0  0  0  0  0  0  0  0  0  0
    6.7251    2.1916    0.0000 H   0  0  0  0  0  0  0  0  0  0  0  0
    6.1699    2.8082    0.0000 H   0  0  0  0  0  0  0  0  0  0  0  0
    4.0709    2.5704    0.0000 H   0  0  0  0  0  0  0  0  0  0  0  0
    3.2240    2.3434    0.0000 H   0  0  0  0  0  0  0  0  0  0  0  0
    3.4509    1.4965    0.0000 H   0  0  0  0  0  0  0  0  0  0  0  0
    3.4690    1.3250    0.0000 H   0  0  0  0  0  0  0  0  0  0  0  0
    3.4231    0.4494    0.0000 H   0  0  0  0  0  0  0  0  0  0  0  0
    4.2987    0.4036    0.0000 H   0  0  0  0  0  0  0  0  0  0  0  0
    8.4786    1.5070    0.0000 H   0  0  0  0  0  0  0  0  0  0  0  0
    9.3446    0.3870    0.0000 H   0  0  0  0  0  0  0  0  0  0  0  0
    9.8858    0.6144    0.0000 H   0  0  0  0  0  0  0  0  0  0  0  0
   10.2843    1.3047    0.0000 H   0  0  0  0  0  0  0  0  0  0  0  0
    8.2708   -0.6130    0.0000 H   0  0  0  0  0  0  0  0  0  0  0  0
    7.4047    2.5070    0.0000 H   0  0  0  0  0  0  0  0  0  0  0  0
   12.0234   -1.6890    0.0000 H   0  0  0  0  0  0  0  0  0  0  0  0
   11.2349   -1.4313    0.0000 H   0  0  0  0  0  0  0  0  0  0  0  0
   12.5305   -3.2177    0.0000 H   0  0  0  0  0  0  0  0  0  0  0  0
   12.5305   -2.3882    0.0000 H   0  0  0  0  0  0  0  0  0  0  0  0
   11.6786   -4.1970    0.0000 H   0  0  0  0  0  0  0  0  0  0  0  0
    8.2708    2.3870    0.0000 H   0  0  0  0  0  0  0  0  0  0  0  0
   11.0767    2.3870    0.0000 H   0  0  0  0  0  0  0  0  0  0  0  0
    8.2708   -1.9930    0.0000 H   0  0  0  0  0  0  0  0  0  0  0  0
    9.6737   -4.4230    0.0000 H   0  0  0  0  0  0  0  0  0  0  0  0
    8.2708   -3.6130    0.0000 H   0  0  0  0  0  0  0  0  0  0  0  0
    8.2708    4.0070    0.0000 H   0  0  0  0  0  0  0  0  0  0  0  0
   11.0767    4.0070    0.0000 H   0  0  0  0  0  0  0  0  0  0  0  0
    9.6737    4.8170    0.0000 H   0  0  0  0  0  0  0  0  0  0  0  0
  1 15  1  0  0  0  0
  1 17  1  0  0  0  0
  2 16  2  0  0  0  0
 21  3  1  1  0  0  0
  3 61  1  0  0  0  0
  4 20  2  0  0  0  0
  5 25  2  0  0  0  0
  6 14  1  0  0  0  0
  6 17  1  0  0  0  0
  6 20  1  0  0  0  0
  7 13  1  0  0  0  0
  7 16  1  0  0  0  0
  7 47  1  0  0  0  0
 22  8  1  6  0  0  0
  8 25  1  0  0  0  0
  8 60  1  0  0  0  0
  9 29  1  0  0  0  0
  9 30  1  0  0  0  0
  9 66  1  0  0  0  0
 10 11  1  0  0  0  0
 10 12  1  0  0  0  0
 10 13  1  0  0  0  0
 10 39  1  0  0  0  0
 11 12  1  0  0  0  0
 11 40  1  0  0  0  0
 11 41  1  0  0  0  0
 12 42  1  0  0  0  0
 12 43  1  0  0  0  0
 13 44  1  0  0  0  0
 13 45  1  0  0  0  0
 14 15  1  0  0  0  0
 14 16  1  6  0  0  0
 14 46  1  0  0  0  0
 15 18  1  0  0  0  0
 15 19  1  0  0  0  0
 17 48  1  0  0  0  0
 17 49  1  0  0  0  0
 18 50  1  0  0  0  0
 18 51  1  0  0  0  0
 18 52  1  0  0  0  0
 19 53  1  0  0  0  0
 19 54  1  0  0  0  0
 19 55  1  0  0  0  0
 20 21  1  0  0  0  0
 21 22  1  0  0  0  0
 21 56  1  0  0  0  0
 22 23  1  0  0  0  0
 22 57  1  0  0  0  0
 23 24  1  0  0  0  0
 23 58  1  0  0  0  0
 23 59  1  0  0  0  0
 24 31  2  0  0  0  0
 24 32  1  0  0  0  0
 25 27  1  0  0  0  0
 26 27  2  0  0  0  0
 26 28  1  0  0  0  0
 26 29  1  0  0  0  0
 27 33  1  0  0  0  0
 28 30  1  0  0  0  0
 28 62  1  0  0  0  0
 28 63  1  0  0  0  0
 29 34  2  0  0  0  0
 30 64  1  0  0  0  0
 30 65  1  0  0  0  0
 31 36  1  0  0  0  0
 31 67  1  0  0  0  0
 32 37  2  0  0  0  0
 32 68  1  0  0  0  0
 33 35  2  0  0  0  0
 33 69  1  0  0  0  0
 34 35  1  0  0  0  0
 34 70  1  0  0  0  0
 35 71  1  0  0  0  0
 36 38  2  0  0  0  0
 36 72  1  0  0  0  0
 37 38  1  0  0  0  0
 37 73  1  0  0  0  0
 38 74  1  0  0  0  0
M  END
> <PUBCHEM_COMPOUND_CID>
514549
> <PUBCHEM_COMPOUND_CANONICALIZED>
1
> <PUBCHEM_CACTVS_COMPLEXITY>
875
> <PUBCHEM_CACTVS_HBOND_ACCEPTOR>
6
> <PUBCHEM_CACTVS_HBOND_DONOR>
4
> <PUBCHEM_CACTVS_ROTATABLE_BOND>
9
> <PUBCHEM_CACTVS_SUBSKEYS>
AAADcfB7uABAAAAAAAAAAAAAGAAAAWLAAAAwYAAAAAAAAFgBQAAAHgQQCAAADTzh2AaywIPAAgiIAiVSUAKCAABlAhAIiIHIZMgKcDrg1bGUYQhklgDYyYecyaCOgAAAQAASAAAAAACAACQAAAAAAAAAAA==
> <PUBCHEM_IUPAC_OPENEYE_NAME>
(4R)-N-(cyclopropylmethyl)-3-[(2S,3S)-2-hydroxy-3-(indoline-4-carbonylamino)-4-phenyl-butanoyl]-5,5-dimethyl-thiazolidine-4-carboxamide
> <PUBCHEM_IUPAC_CAS_NAME>
(4R)-N-(cyclopropylmethyl)-3-[(2S,3S)-3-[[2,3-dihydro-1H-indol-4-yl(oxo)methyl]amino]-2-hydroxy-1-oxo-4-phenylbutyl]-5,5-dimethyl-4-thiazolidinecarboxamide
> <PUBCHEM_IUPAC_NAME_MARKUP>
(4<I>R</I>)-<I>N</I>-(cyclopropylmethyl)-3-[(2<I>S</I>,3<I>S</I>)-3-(2,3-dihydro-1<I>H</I>-indole-4-carbonylamino)-2-hydroxy-4-phenylbutanoyl]-5,5-dimethyl-1,3-thiazolidine-4-carboxamide
> <PUBCHEM_IUPAC_NAME>
(4R)-N-(cyclopropylmethyl)-3-[(2S,3S)-3-(2,3-dihydro-1H-indole-4-carbonylamino)-2-hydroxy-4-phenylbutanoyl]-5,5-dimethyl-1,3-thiazolidine-4-carboxamide
> <PUBCHEM_IUPAC_SYSTEMATIC_NAME>
(4R)-N-(cyclopropylmethyl)-3-[(2S,3S)-3-(2,3-dihydro-1H-indol-4-ylcarbonylamino)-2-oxidanyl-4-phenyl-butanoyl]-5,5-dimethyl-1,3-thiazolidine-4-carboxamide
> <PUBCHEM_IUPAC_TRADITIONAL_NAME>
(4R)-N-(cyclopropylmethyl)-3-[(2S,3S)-2-hydroxy-3-(indoline-4-carbonylamino)-4-phenyl-butanoyl]-5,5-dimethyl-thiazolidine-4-carboxamide
> <PUBCHEM_IUPAC_INCHI>
InChI=1S/C29H36N4O4S/c1-29(2)25(27(36)31-16-19-11-12-19)33(17-38-29)28(37)24(34)23(15-18-7-4-3-5-8-18)32-26(35)21-9-6-10-22-20(21)13-14-30-22/h3-10,19,23-25,30,34H,11-17H2,1-2H3,(H,31,36)(H,32,35)/t23-,24-,25+/m0/s1
> <PUBCHEM_IUPAC_INCHIKEY>
APVVSDPBCWXZRT-CCDWMCETSA-N
> <PUBCHEM_XLOGP3_AA>
3.4
> <PUBCHEM_EXACT_MASS>
536.24572682
> <PUBCHEM_MOLECULAR_FORMULA>
C29H36N4O4S
> <PUBCHEM_MOLECULAR_WEIGHT>
536.7
> <PUBCHEM_OPENEYE_CAN_SMILES>
CC1(C(N(CS1)C(=O)C(C(CC2=CC=CC=C2)NC(=O)C3=C4CCNC4=CC=C3)O)C(=O)NCC5CC5)C
> <PUBCHEM_OPENEYE_ISO_SMILES>
CC1([C@H](N(CS1)C(=O)[C@H]([C@H](CC2=CC=CC=C2)NC(=O)C3=C4CCNC4=CC=C3)O)C(=O)NCC5CC5)C
> <PUBCHEM_CACTVS_TPSA>
136
> <PUBCHEM_MONOISOTOPIC_WEIGHT>
536.24572682
> <PUBCHEM_TOTAL_CHARGE>
0
> <PUBCHEM_HEAVY_ATOM_COUNT>
38
> <PUBCHEM_ATOM_DEF_STEREO_COUNT>
3
> <PUBCHEM_ATOM_UDEF_STEREO_COUNT>
0
> <PUBCHEM_BOND_DEF_STEREO_COUNT>
0
> <PUBCHEM_BOND_UDEF_STEREO_COUNT>
0
> <PUBCHEM_ISOTOPIC_ATOM_COUNT>
0
> <PUBCHEM_COMPONENT_COUNT>
1
> <PUBCHEM_CACTVS_TAUTO_COUNT>
-1
> <PUBCHEM_COORDINATE_TYPE>
1
5
255
> <PUBCHEM_BONDANNOTATIONS>
14  16  6
24  31  8
24  32  8
26  27  8
26  29  8
27  33  8
29  34  8
21  3  5
31  36  8
32  37  8
33  35  8
34  35  8
36  38  8
37  38  8
22  8  6
$$$$
