514580
  -OEChem-10302200282D
 76 79  0     1  0  0  0  0  0999 V2000
    8.3916    3.0612    0.0000 S   0  0  0  0  0  0  0  0  0  0  0  0
    9.6237    0.5224    0.0000 O   0  0  0  0  0  0  0  0  0  0  0  0
    7.0256    0.0224    0.0000 O   0  0  0  0  0  0  0  0  0  0  0  0
    5.9236    0.8230    0.0000 O   0  0  0  0  0  0  0  0  0  0  0  0
   10.4897    0.0224    0.0000 O   0  0  0  0  0  0  0  0  0  0  0  0
    7.8916    1.5224    0.0000 N   0  0  0  0  0  0  0  0  0  0  0  0
    5.3884    2.4702    0.0000 N   0  0  0  0  0  0  0  0  0  0  0  0
    9.6237   -1.4776    0.0000 N   0  0  0  0  0  0  0  0  0  0  0  0
   11.3557   -1.4776    0.0000 N   0  0  0  0  0  0  0  0  0  0  0  0
    7.3916    3.0612    0.0000 C   0  0  0  0  0  0  0  0  0  0  0  0
    7.0826    2.1101    0.0000 C   0  0  1  0  0  0  0  0  0  0  0  0
    8.7006    2.1101    0.0000 C   0  0  0  0  0  0  0  0  0  0  0  0
    7.3916    4.0612    0.0000 C   0  0  0  0  0  0  0  0  0  0  0  0
    6.4406    3.3702    0.0000 C   0  0  0  0  0  0  0  0  0  0  0  0
    7.8916    0.5224    0.0000 C   0  0  0  0  0  0  0  0  0  0  0  0
    6.1316    1.8011    0.0000 C   0  0  0  0  0  0  0  0  0  0  0  0
    8.7576    0.0224    0.0000 C   0  0  2  0  0  0  0  0  0  0  0  0
    8.7576   -0.9776    0.0000 C   0  0  2  0  0  0  0  0  0  0  0  0
    7.8916   -1.4776    0.0000 C   0  0  0  0  0  0  0  0  0  0  0  0
    4.4374    2.1612    0.0000 C   0  0  0  0  0  0  0  0  0  0  0  0
    7.8916   -2.4776    0.0000 C   0  0  0  0  0  0  0  0  0  0  0  0
    3.6942    2.8304    0.0000 C   0  0  0  0  0  0  0  0  0  0  0  0
   10.4897   -0.9776    0.0000 C   0  0  0  0  0  0  0  0  0  0  0  0
    7.0256   -2.9776    0.0000 C   0  0  0  0  0  0  0  0  0  0  0  0
    8.7576   -2.9776    0.0000 C   0  0  0  0  0  0  0  0  0  0  0  0
    2.7431    2.5214    0.0000 C   0  0  0  0  0  0  0  0  0  0  0  0
    3.9021    3.8085    0.0000 C   0  0  0  0  0  0  0  0  0  0  0  0
    7.0256   -3.9776    0.0000 C   0  0  0  0  0  0  0  0  0  0  0  0
    8.7576   -3.9776    0.0000 C   0  0  0  0  0  0  0  0  0  0  0  0
    7.8916   -4.4776    0.0000 C   0  0  0  0  0  0  0  0  0  0  0  0
   12.2217   -0.9776    0.0000 C   0  0  0  0  0  0  0  0  0  0  0  0
    2.0000    3.1905    0.0000 C   0  0  0  0  0  0  0  0  0  0  0  0
    3.1590    4.4776    0.0000 C   0  0  0  0  0  0  0  0  0  0  0  0
    2.2079    4.1686    0.0000 C   0  0  0  0  0  0  0  0  0  0  0  0
   13.0878   -1.4776    0.0000 C   0  0  0  0  0  0  0  0  0  0  0  0
   13.0878   -2.4776    0.0000 C   0  0  0  0  0  0  0  0  0  0  0  0
   13.9538   -0.9776    0.0000 C   0  0  0  0  0  0  0  0  0  0  0  0
   13.9538   -2.9776    0.0000 C   0  0  0  0  0  0  0  0  0  0  0  0
   14.8198   -1.4776    0.0000 C   0  0  0  0  0  0  0  0  0  0  0  0
   14.8198   -2.4776    0.0000 C   0  0  0  0  0  0  0  0  0  0  0  0
    6.9856    1.4978    0.0000 H   0  0  0  0  0  0  0  0  0  0  0  0
    9.0106    1.5732    0.0000 H   0  0  0  0  0  0  0  0  0  0  0  0
    9.2670    2.3623    0.0000 H   0  0  0  0  0  0  0  0  0  0  0  0
    8.0116    4.0612    0.0000 H   0  0  0  0  0  0  0  0  0  0  0  0
    7.3916    4.6812    0.0000 H   0  0  0  0  0  0  0  0  0  0  0  0
    6.7716    4.0612    0.0000 H   0  0  0  0  0  0  0  0  0  0  0  0
    6.6322    3.9599    0.0000 H   0  0  0  0  0  0  0  0  0  0  0  0
    5.8509    3.5618    0.0000 H   0  0  0  0  0  0  0  0  0  0  0  0
    6.2490    2.7806    0.0000 H   0  0  0  0  0  0  0  0  0  0  0  0
    8.7576    0.6424    0.0000 H   0  0  0  0  0  0  0  0  0  0  0  0
    9.2946   -0.6676    0.0000 H   0  0  0  0  0  0  0  0  0  0  0  0
    7.6796   -0.8950    0.0000 H   0  0  0  0  0  0  0  0  0  0  0  0
    7.2810   -1.5853    0.0000 H   0  0  0  0  0  0  0  0  0  0  0  0
    5.5173    3.0767    0.0000 H   0  0  0  0  0  0  0  0  0  0  0  0
    9.6237   -2.0976    0.0000 H   0  0  0  0  0  0  0  0  0  0  0  0
    3.9488    1.7795    0.0000 H   0  0  0  0  0  0  0  0  0  0  0  0
    4.7284    1.6138    0.0000 H   0  0  0  0  0  0  0  0  0  0  0  0
    9.6237    1.1424    0.0000 H   0  0  0  0  0  0  0  0  0  0  0  0
    6.4887   -2.6676    0.0000 H   0  0  0  0  0  0  0  0  0  0  0  0
    9.2946   -2.6676    0.0000 H   0  0  0  0  0  0  0  0  0  0  0  0
   11.3557   -2.0976    0.0000 H   0  0  0  0  0  0  0  0  0  0  0  0
    2.6142    1.9149    0.0000 H   0  0  0  0  0  0  0  0  0  0  0  0
    4.4918    4.0001    0.0000 H   0  0  0  0  0  0  0  0  0  0  0  0
    6.4887   -4.2876    0.0000 H   0  0  0  0  0  0  0  0  0  0  0  0
    9.2946   -4.2876    0.0000 H   0  0  0  0  0  0  0  0  0  0  0  0
    7.8916   -5.0976    0.0000 H   0  0  0  0  0  0  0  0  0  0  0  0
   12.6203   -0.5027    0.0000 H   0  0  0  0  0  0  0  0  0  0  0  0
   11.8232   -0.5027    0.0000 H   0  0  0  0  0  0  0  0  0  0  0  0
    1.4103    2.9989    0.0000 H   0  0  0  0  0  0  0  0  0  0  0  0
    3.2879    5.0841    0.0000 H   0  0  0  0  0  0  0  0  0  0  0  0
    1.7472    4.5835    0.0000 H   0  0  0  0  0  0  0  0  0  0  0  0
   12.5508   -2.7877    0.0000 H   0  0  0  0  0  0  0  0  0  0  0  0
   13.9538   -0.3576    0.0000 H   0  0  0  0  0  0  0  0  0  0  0  0
   13.9538   -3.5976    0.0000 H   0  0  0  0  0  0  0  0  0  0  0  0
   15.3568   -1.1676    0.0000 H   0  0  0  0  0  0  0  0  0  0  0  0
   15.3568   -2.7877    0.0000 H   0  0  0  0  0  0  0  0  0  0  0  0
  1 10  1  0  0  0  0
  1 12  1  0  0  0  0
 17  2  1  1  0  0  0
  2 58  1  0  0  0  0
  3 15  2  0  0  0  0
  4 16  2  0  0  0  0
  5 23  2  0  0  0  0
  6 11  1  0  0  0  0
  6 12  1  0  0  0  0
  6 15  1  0  0  0  0
  7 16  1  0  0  0  0
  7 20  1  0  0  0  0
  7 54  1  0  0  0  0
 18  8  1  1  0  0  0
  8 23  1  0  0  0  0
  8 55  1  0  0  0  0
  9 23  1  0  0  0  0
  9 31  1  0  0  0  0
  9 61  1  0  0  0  0
 10 11  1  0  0  0  0
 10 13  1  0  0  0  0
 10 14  1  0  0  0  0
 11 16  1  6  0  0  0
 11 41  1  0  0  0  0
 12 42  1  0  0  0  0
 12 43  1  0  0  0  0
 13 44  1  0  0  0  0
 13 45  1  0  0  0  0
 13 46  1  0  0  0  0
 14 47  1  0  0  0  0
 14 48  1  0  0  0  0
 14 49  1  0  0  0  0
 15 17  1  0  0  0  0
 17 18  1  0  0  0  0
 17 50  1  0  0  0  0
 18 19  1  0  0  0  0
 18 51  1  0  0  0  0
 19 21  1  0  0  0  0
 19 52  1  0  0  0  0
 19 53  1  0  0  0  0
 20 22  1  0  0  0  0
 20 56  1  0  0  0  0
 20 57  1  0  0  0  0
 21 24  2  0  0  0  0
 21 25  1  0  0  0  0
 22 26  2  0  0  0  0
 22 27  1  0  0  0  0
 24 28  1  0  0  0  0
 24 59  1  0  0  0  0
 25 29  2  0  0  0  0
 25 60  1  0  0  0  0
 26 32  1  0  0  0  0
 26 62  1  0  0  0  0
 27 33  2  0  0  0  0
 27 63  1  0  0  0  0
 28 30  2  0  0  0  0
 28 64  1  0  0  0  0
 29 30  1  0  0  0  0
 29 65  1  0  0  0  0
 30 66  1  0  0  0  0
 31 35  1  0  0  0  0
 31 67  1  0  0  0  0
 31 68  1  0  0  0  0
 32 34  2  0  0  0  0
 32 69  1  0  0  0  0
 33 34  1  0  0  0  0
 33 70  1  0  0  0  0
 34 71  1  0  0  0  0
 35 36  2  0  0  0  0
 35 37  1  0  0  0  0
 36 38  1  0  0  0  0
 36 72  1  0  0  0  0
 37 39  2  0  0  0  0
 37 73  1  0  0  0  0
 38 40  2  0  0  0  0
 38 74  1  0  0  0  0
 39 40  1  0  0  0  0
 39 75  1  0  0  0  0
 40 76  1  0  0  0  0
M  END
> <PUBCHEM_COMPOUND_CID>
514580
> <PUBCHEM_COMPOUND_CANONICALIZED>
1
> <PUBCHEM_CACTVS_COMPLEXITY>
837
> <PUBCHEM_CACTVS_HBOND_ACCEPTOR>
5
> <PUBCHEM_CACTVS_HBOND_DONOR>
4
> <PUBCHEM_CACTVS_ROTATABLE_BOND>
10
> <PUBCHEM_CACTVS_SUBSKEYS>
AAADcfB7uABAAAAAAAAAAAAAAAAAAWAAAAAwYMAAAAAAAAABUAAAHgQQCAAADDzh2AazAIPAAgiIAiFSEAKCAABgABAIiIHIBIiKcDqg0TGUYAhslgKYiAeYyKCOAAAAAAAAAAAAAAAAAAAAAAAAAAAAAA==
> <PUBCHEM_IUPAC_OPENEYE_NAME>
(4R)-N-benzyl-3-[(2S,3S)-3-(benzylcarbamoylamino)-2-hydroxy-4-phenyl-butanoyl]-5,5-dimethyl-thiazolidine-4-carboxamide
> <PUBCHEM_IUPAC_CAS_NAME>
(4R)-3-[(2S,3S)-2-hydroxy-1-oxo-3-[[oxo-[(phenylmethyl)amino]methyl]amino]-4-phenylbutyl]-5,5-dimethyl-N-(phenylmethyl)-4-thiazolidinecarboxamide
> <PUBCHEM_IUPAC_NAME_MARKUP>
(4<I>R</I>)-<I>N</I>-benzyl-3-[(2<I>S</I>,3<I>S</I>)-3-(benzylcarbamoylamino)-2-hydroxy-4-phenylbutanoyl]-5,5-dimethyl-1,3-thiazolidine-4-carboxamide
> <PUBCHEM_IUPAC_NAME>
(4R)-N-benzyl-3-[(2S,3S)-3-(benzylcarbamoylamino)-2-hydroxy-4-phenylbutanoyl]-5,5-dimethyl-1,3-thiazolidine-4-carboxamide
> <PUBCHEM_IUPAC_SYSTEMATIC_NAME>
(4R)-5,5-dimethyl-3-[(2S,3S)-2-oxidanyl-4-phenyl-3-[(phenylmethyl)carbamoylamino]butanoyl]-N-(phenylmethyl)-1,3-thiazolidine-4-carboxamide
> <PUBCHEM_IUPAC_TRADITIONAL_NAME>
(4R)-N-benzyl-3-[(2S,3S)-3-(benzylcarbamoylamino)-2-hydroxy-4-phenyl-butanoyl]-5,5-dimethyl-thiazolidine-4-carboxamide
> <PUBCHEM_IUPAC_INCHI>
InChI=1S/C31H36N4O4S/c1-31(2)27(28(37)32-19-23-14-8-4-9-15-23)35(21-40-31)29(38)26(36)25(18-22-12-6-3-7-13-22)34-30(39)33-20-24-16-10-5-11-17-24/h3-17,25-27,36H,18-21H2,1-2H3,(H,32,37)(H2,33,34,39)/t25-,26-,27+/m0/s1
> <PUBCHEM_IUPAC_INCHIKEY>
PXKJRORINHDHOR-GMQQYTKMSA-N
> <PUBCHEM_XLOGP3_AA>
3.8
> <PUBCHEM_EXACT_MASS>
560.24572682
> <PUBCHEM_MOLECULAR_FORMULA>
C31H36N4O4S
> <PUBCHEM_MOLECULAR_WEIGHT>
560.7
> <PUBCHEM_OPENEYE_CAN_SMILES>
CC1(C(N(CS1)C(=O)C(C(CC2=CC=CC=C2)NC(=O)NCC3=CC=CC=C3)O)C(=O)NCC4=CC=CC=C4)C
> <PUBCHEM_OPENEYE_ISO_SMILES>
CC1([C@H](N(CS1)C(=O)[C@H]([C@H](CC2=CC=CC=C2)NC(=O)NCC3=CC=CC=C3)O)C(=O)NCC4=CC=CC=C4)C
> <PUBCHEM_CACTVS_TPSA>
136
> <PUBCHEM_MONOISOTOPIC_WEIGHT>
560.24572682
> <PUBCHEM_TOTAL_CHARGE>
0
> <PUBCHEM_HEAVY_ATOM_COUNT>
40
> <PUBCHEM_ATOM_DEF_STEREO_COUNT>
3
> <PUBCHEM_ATOM_UDEF_STEREO_COUNT>
0
> <PUBCHEM_BOND_DEF_STEREO_COUNT>
0
> <PUBCHEM_BOND_UDEF_STEREO_COUNT>
0
> <PUBCHEM_ISOTOPIC_ATOM_COUNT>
0
> <PUBCHEM_COMPONENT_COUNT>
1
> <PUBCHEM_CACTVS_TAUTO_COUNT>
-1
> <PUBCHEM_COORDINATE_TYPE>
1
5
255
> <PUBCHEM_BONDANNOTATIONS>
11  16  6
17  2  5
21  24  8
21  25  8
22  26  8
22  27  8
24  28  8
25  29  8
26  32  8
27  33  8
28  30  8
29  30  8
32  34  8
33  34  8
35  36  8
35  37  8
36  38  8
37  39  8
38  40  8
39  40  8
18  8  5
$$$$
