514530
  -OEChem-10302200282D
 77 81  0     1  0  0  0  0  0999 V2000
    6.0509    2.3995    0.0000 S   0  0  0  0  0  0  0  0  0  0  0  0
    8.8656    2.1970    0.0000 O   0  0  0  0  0  0  0  0  0  0  0  0
    7.9996   -0.3030    0.0000 O   0  0  0  0  0  0  0  0  0  0  0  0
    6.7553   -0.8570    0.0000 O   0  0  0  0  0  0  0  0  0  0  0  0
   11.4637   -0.3030    0.0000 O   0  0  0  0  0  0  0  0  0  0  0  0
    7.1336    1.1970    0.0000 N   0  0  0  0  0  0  0  0  0  0  0  0
    5.0611   -0.4969    0.0000 N   0  0  0  0  0  0  0  0  0  0  0  0
    9.7317   -0.3030    0.0000 N   0  0  0  0  0  0  0  0  0  0  0  0
   12.4099   -3.6077    0.0000 N   0  0  0  0  0  0  0  0  0  0  0  0
   12.9936   -2.8030    0.0000 N   0  0  0  0  0  0  0  0  0  0  0  0
    5.5509    1.5334    0.0000 C   0  0  0  0  0  0  0  0  0  0  0  0
    6.2200    0.7903    0.0000 C   0  0  1  0  0  0  0  0  0  0  0  0
    7.0291    2.1916    0.0000 C   0  0  0  0  0  0  0  0  0  0  0  0
    4.6849    2.0334    0.0000 C   0  0  0  0  0  0  0  0  0  0  0  0
    4.8078    0.8643    0.0000 C   0  0  0  0  0  0  0  0  0  0  0  0
    7.9996    0.6970    0.0000 C   0  0  0  0  0  0  0  0  0  0  0  0
    6.0121   -0.1879    0.0000 C   0  0  0  0  0  0  0  0  0  0  0  0
    8.8656    1.1970    0.0000 C   0  0  2  0  0  0  0  0  0  0  0  0
    9.7317    0.6970    0.0000 C   0  0  2  0  0  0  0  0  0  0  0  0
   10.5977    1.1970    0.0000 C   0  0  0  0  0  0  0  0  0  0  0  0
    4.8532   -1.4750    0.0000 C   0  0  0  0  0  0  0  0  0  0  0  0
   10.5977    2.1970    0.0000 C   0  0  0  0  0  0  0  0  0  0  0  0
    3.9021   -1.7840    0.0000 C   0  0  0  0  0  0  0  0  0  0  0  0
   10.5977   -0.8030    0.0000 C   0  0  0  0  0  0  0  0  0  0  0  0
    9.7317    2.6970    0.0000 C   0  0  0  0  0  0  0  0  0  0  0  0
   11.4637    2.6970    0.0000 C   0  0  0  0  0  0  0  0  0  0  0  0
   10.5977   -1.8030    0.0000 C   0  0  0  0  0  0  0  0  0  0  0  0
    3.1590   -1.1149    0.0000 C   0  0  0  0  0  0  0  0  0  0  0  0
    3.6942   -2.7622    0.0000 C   0  0  0  0  0  0  0  0  0  0  0  0
   11.4637   -2.3030    0.0000 C   0  0  0  0  0  0  0  0  0  0  0  0
    9.7317    3.6970    0.0000 C   0  0  0  0  0  0  0  0  0  0  0  0
   11.4637    3.6970    0.0000 C   0  0  0  0  0  0  0  0  0  0  0  0
    9.7317   -2.3030    0.0000 C   0  0  0  0  0  0  0  0  0  0  0  0
   10.5977    4.1970    0.0000 C   0  0  0  0  0  0  0  0  0  0  0  0
    2.2079   -1.4239    0.0000 C   0  0  0  0  0  0  0  0  0  0  0  0
    3.3669   -0.1368    0.0000 C   0  0  0  0  0  0  0  0  0  0  0  0
   11.4637   -3.3030    0.0000 C   0  0  0  0  0  0  0  0  0  0  0  0
    2.7431   -3.0712    0.0000 C   0  0  0  0  0  0  0  0  0  0  0  0
    2.0000   -2.4021    0.0000 C   0  0  0  0  0  0  0  0  0  0  0  0
    9.7317   -3.3030    0.0000 C   0  0  0  0  0  0  0  0  0  0  0  0
   12.4099   -1.9982    0.0000 C   0  0  0  0  0  0  0  0  0  0  0  0
   10.5977   -3.8030    0.0000 C   0  0  0  0  0  0  0  0  0  0  0  0
    6.7019    0.4001    0.0000 H   0  0  0  0  0  0  0  0  0  0  0  0
    7.6491    2.1916    0.0000 H   0  0  0  0  0  0  0  0  0  0  0  0
    7.0939    2.8082    0.0000 H   0  0  0  0  0  0  0  0  0  0  0  0
    4.9949    2.5704    0.0000 H   0  0  0  0  0  0  0  0  0  0  0  0
    4.1480    2.3434    0.0000 H   0  0  0  0  0  0  0  0  0  0  0  0
    4.3749    1.4965    0.0000 H   0  0  0  0  0  0  0  0  0  0  0  0
    4.3929    1.3250    0.0000 H   0  0  0  0  0  0  0  0  0  0  0  0
    4.3470    0.4494    0.0000 H   0  0  0  0  0  0  0  0  0  0  0  0
    5.2226    0.4036    0.0000 H   0  0  0  0  0  0  0  0  0  0  0  0
    8.3287    1.5070    0.0000 H   0  0  0  0  0  0  0  0  0  0  0  0
   10.2686    0.3870    0.0000 H   0  0  0  0  0  0  0  0  0  0  0  0
   10.8097    0.6144    0.0000 H   0  0  0  0  0  0  0  0  0  0  0  0
   11.2083    1.3047    0.0000 H   0  0  0  0  0  0  0  0  0  0  0  0
    4.6003   -0.0820    0.0000 H   0  0  0  0  0  0  0  0  0  0  0  0
    9.1947   -0.6130    0.0000 H   0  0  0  0  0  0  0  0  0  0  0  0
    4.9395   -2.0890    0.0000 H   0  0  0  0  0  0  0  0  0  0  0  0
    5.4728   -1.4967    0.0000 H   0  0  0  0  0  0  0  0  0  0  0  0
    8.3287    2.5070    0.0000 H   0  0  0  0  0  0  0  0  0  0  0  0
    9.1947    2.3870    0.0000 H   0  0  0  0  0  0  0  0  0  0  0  0
   12.0007    2.3870    0.0000 H   0  0  0  0  0  0  0  0  0  0  0  0
    4.1550   -3.1770    0.0000 H   0  0  0  0  0  0  0  0  0  0  0  0
    9.1947    4.0070    0.0000 H   0  0  0  0  0  0  0  0  0  0  0  0
   12.0007    4.0070    0.0000 H   0  0  0  0  0  0  0  0  0  0  0  0
    9.1947   -1.9930    0.0000 H   0  0  0  0  0  0  0  0  0  0  0  0
   10.5977    4.8170    0.0000 H   0  0  0  0  0  0  0  0  0  0  0  0
    1.7472   -1.0091    0.0000 H   0  0  0  0  0  0  0  0  0  0  0  0
    3.9733   -0.2657    0.0000 H   0  0  0  0  0  0  0  0  0  0  0  0
    3.4958    0.4697    0.0000 H   0  0  0  0  0  0  0  0  0  0  0  0
    2.7604   -0.0079    0.0000 H   0  0  0  0  0  0  0  0  0  0  0  0
    2.6142   -3.6776    0.0000 H   0  0  0  0  0  0  0  0  0  0  0  0
    1.4103   -2.5937    0.0000 H   0  0  0  0  0  0  0  0  0  0  0  0
    9.1947   -3.6130    0.0000 H   0  0  0  0  0  0  0  0  0  0  0  0
   12.6026   -1.4089    0.0000 H   0  0  0  0  0  0  0  0  0  0  0  0
   10.5977   -4.4230    0.0000 H   0  0  0  0  0  0  0  0  0  0  0  0
   12.6026   -4.1970    0.0000 H   0  0  0  0  0  0  0  0  0  0  0  0
  1 11  1  0  0  0  0
  1 13  1  0  0  0  0
 18  2  1  1  0  0  0
  2 60  1  0  0  0  0
  3 16  2  0  0  0  0
  4 17  2  0  0  0  0
  5 24  2  0  0  0  0
  6 12  1  0  0  0  0
  6 13  1  0  0  0  0
  6 16  1  0  0  0  0
  7 17  1  0  0  0  0
  7 21  1  0  0  0  0
  7 56  1  0  0  0  0
 19  8  1  6  0  0  0
  8 24  1  0  0  0  0
  8 57  1  0  0  0  0
  9 10  1  0  0  0  0
  9 37  1  0  0  0  0
  9 77  1  0  0  0  0
 10 41  2  0  0  0  0
 11 12  1  0  0  0  0
 11 14  1  0  0  0  0
 11 15  1  0  0  0  0
 12 17  1  6  0  0  0
 12 43  1  0  0  0  0
 13 44  1  0  0  0  0
 13 45  1  0  0  0  0
 14 46  1  0  0  0  0
 14 47  1  0  0  0  0
 14 48  1  0  0  0  0
 15 49  1  0  0  0  0
 15 50  1  0  0  0  0
 15 51  1  0  0  0  0
 16 18  1  0  0  0  0
 18 19  1  0  0  0  0
 18 52  1  0  0  0  0
 19 20  1  0  0  0  0
 19 53  1  0  0  0  0
 20 22  1  0  0  0  0
 20 54  1  0  0  0  0
 20 55  1  0  0  0  0
 21 23  1  0  0  0  0
 21 58  1  0  0  0  0
 21 59  1  0  0  0  0
 22 25  2  0  0  0  0
 22 26  1  0  0  0  0
 23 28  1  0  0  0  0
 23 29  2  0  0  0  0
 24 27  1  0  0  0  0
 25 31  1  0  0  0  0
 25 61  1  0  0  0  0
 26 32  2  0  0  0  0
 26 62  1  0  0  0  0
 27 30  2  0  0  0  0
 27 33  1  0  0  0  0
 28 35  2  0  0  0  0
 28 36  1  0  0  0  0
 29 38  1  0  0  0  0
 29 63  1  0  0  0  0
 30 37  1  0  0  0  0
 30 41  1  0  0  0  0
 31 34  2  0  0  0  0
 31 64  1  0  0  0  0
 32 34  1  0  0  0  0
 32 65  1  0  0  0  0
 33 40  2  0  0  0  0
 33 66  1  0  0  0  0
 34 67  1  0  0  0  0
 35 39  1  0  0  0  0
 35 68  1  0  0  0  0
 36 69  1  0  0  0  0
 36 70  1  0  0  0  0
 36 71  1  0  0  0  0
 37 42  2  0  0  0  0
 38 39  2  0  0  0  0
 38 72  1  0  0  0  0
 39 73  1  0  0  0  0
 40 42  1  0  0  0  0
 40 74  1  0  0  0  0
 41 75  1  0  0  0  0
 42 76  1  0  0  0  0
M  END
> <PUBCHEM_COMPOUND_CID>
514530
> <PUBCHEM_COMPOUND_CANONICALIZED>
1
> <PUBCHEM_CACTVS_COMPLEXITY>
959
> <PUBCHEM_CACTVS_HBOND_ACCEPTOR>
6
> <PUBCHEM_CACTVS_HBOND_DONOR>
4
> <PUBCHEM_CACTVS_ROTATABLE_BOND>
9
> <PUBCHEM_CACTVS_SUBSKEYS>
AAADcfB/uABAAAAAAAAAAAAAAAAAAWLAAAAwYMAAAAAAAFgB9AAAHgQYCAAADDzh3ga+wPPjAgiqAzV3UAKSBABkghAYuaH4ZNgKcLqg1fGU5QhkngCYyYecyKCOgAAAQAASAAAAAACAACQAAAAAAAAAAA==
> <PUBCHEM_IUPAC_OPENEYE_NAME>
(4R)-3-[(2S,3S)-2-hydroxy-3-(1H-indazole-4-carbonylamino)-4-phenyl-butanoyl]-5,5-dimethyl-N-(o-tolylmethyl)thiazolidine-4-carboxamide
> <PUBCHEM_IUPAC_CAS_NAME>
(4R)-3-[(2S,3S)-2-hydroxy-3-[[1H-indazol-4-yl(oxo)methyl]amino]-1-oxo-4-phenylbutyl]-5,5-dimethyl-N-[(2-methylphenyl)methyl]-4-thiazolidinecarboxamide
> <PUBCHEM_IUPAC_NAME_MARKUP>
(4<I>R</I>)-3-[(2<I>S</I>,3<I>S</I>)-2-hydroxy-3-(1<I>H</I>-indazole-4-carbonylamino)-4-phenylbutanoyl]-5,5-dimethyl-<I>N</I>-[(2-methylphenyl)methyl]-1,3-thiazolidine-4-carboxamide
> <PUBCHEM_IUPAC_NAME>
(4R)-3-[(2S,3S)-2-hydroxy-3-(1H-indazole-4-carbonylamino)-4-phenylbutanoyl]-5,5-dimethyl-N-[(2-methylphenyl)methyl]-1,3-thiazolidine-4-carboxamide
> <PUBCHEM_IUPAC_SYSTEMATIC_NAME>
(4R)-3-[(2S,3S)-3-(1H-indazol-4-ylcarbonylamino)-2-oxidanyl-4-phenyl-butanoyl]-5,5-dimethyl-N-[(2-methylphenyl)methyl]-1,3-thiazolidine-4-carboxamide
> <PUBCHEM_IUPAC_TRADITIONAL_NAME>
(4R)-3-[(2S,3S)-2-hydroxy-3-(1H-indazole-4-carbonylamino)-4-phenyl-butanoyl]-5,5-dimethyl-N-(2-methylbenzyl)thiazolidine-4-carboxamide
> <PUBCHEM_IUPAC_INCHI>
InChI=1S/C32H35N5O4S/c1-20-10-7-8-13-22(20)17-33-30(40)28-32(2,3)42-19-37(28)31(41)27(38)26(16-21-11-5-4-6-12-21)35-29(39)23-14-9-15-25-24(23)18-34-36-25/h4-15,18,26-28,38H,16-17,19H2,1-3H3,(H,33,40)(H,34,36)(H,35,39)/t26-,27-,28+/m0/s1
> <PUBCHEM_IUPAC_INCHIKEY>
LDCXJMRFODQPIF-HZFUHODCSA-N
> <PUBCHEM_XLOGP3_AA>
4.1
> <PUBCHEM_EXACT_MASS>
585.24097579
> <PUBCHEM_MOLECULAR_FORMULA>
C32H35N5O4S
> <PUBCHEM_MOLECULAR_WEIGHT>
585.7
> <PUBCHEM_OPENEYE_CAN_SMILES>
CC1=CC=CC=C1CNC(=O)C2C(SCN2C(=O)C(C(CC3=CC=CC=C3)NC(=O)C4=C5C=NNC5=CC=C4)O)(C)C
> <PUBCHEM_OPENEYE_ISO_SMILES>
CC1=CC=CC=C1CNC(=O)[C@@H]2C(SCN2C(=O)[C@H]([C@H](CC3=CC=CC=C3)NC(=O)C4=C5C=NNC5=CC=C4)O)(C)C
> <PUBCHEM_CACTVS_TPSA>
153
> <PUBCHEM_MONOISOTOPIC_WEIGHT>
585.24097579
> <PUBCHEM_TOTAL_CHARGE>
0
> <PUBCHEM_HEAVY_ATOM_COUNT>
42
> <PUBCHEM_ATOM_DEF_STEREO_COUNT>
3
> <PUBCHEM_ATOM_UDEF_STEREO_COUNT>
0
> <PUBCHEM_BOND_DEF_STEREO_COUNT>
0
> <PUBCHEM_BOND_UDEF_STEREO_COUNT>
0
> <PUBCHEM_ISOTOPIC_ATOM_COUNT>
0
> <PUBCHEM_COMPONENT_COUNT>
1
> <PUBCHEM_CACTVS_TAUTO_COUNT>
-1
> <PUBCHEM_COORDINATE_TYPE>
1
5
255
> <PUBCHEM_BONDANNOTATIONS>
10  41  8
12  17  6
18  2  5
22  25  8
22  26  8
23  28  8
23  29  8
25  31  8
26  32  8
27  30  8
27  33  8
28  35  8
29  38  8
30  37  8
30  41  8
31  34  8
32  34  8
33  40  8
35  39  8
37  42  8
38  39  8
40  42  8
19  8  6
9  10  8
9  37  8
$$$$
