514508
  -OEChem-10302200282D
 78 82  0     1  0  0  0  0  0999 V2000
    9.5397   -0.4436    0.0000 S   0  0  0  0  0  0  0  0  0  0  0  0
    8.9436   -3.4458    0.0000 O   0  0  0  0  0  0  0  0  0  0  0  0
    7.0030    0.7928    0.0000 O   0  0  0  0  0  0  0  0  0  0  0  0
    6.4985   -1.8044    0.0000 O   0  0  0  0  0  0  0  0  0  0  0  0
    6.5045    1.6597    0.0000 O   0  0  0  0  0  0  0  0  0  0  0  0
    5.5105    5.1255    0.0000 O   0  0  0  0  0  0  0  0  0  0  0  0
    8.0000   -0.9410    0.0000 N   0  0  0  0  0  0  0  0  0  0  0  0
    7.2972   -2.9077    0.0000 N   0  0  0  0  0  0  0  0  0  0  0  0
    5.0030    0.7963    0.0000 N   0  0  0  0  0  0  0  0  0  0  0  0
    5.1743   -5.6630    0.0000 N   0  0  0  0  0  0  0  0  0  0  0  0
    9.5380   -1.4436    0.0000 C   0  0  0  0  0  0  0  0  0  0  0  0
    8.5864   -1.7510    0.0000 C   0  0  1  0  0  0  0  0  0  0  0  0
    8.5892   -0.1330    0.0000 C   0  0  0  0  0  0  0  0  0  0  0  0
    8.2757   -2.7015    0.0000 C   0  0  0  0  0  0  0  0  0  0  0  0
    6.9866   -3.8583    0.0000 C   0  0  1  0  0  0  0  0  0  0  0  0
   10.5380   -1.4454    0.0000 C   0  0  0  0  0  0  0  0  0  0  0  0
    9.8453   -2.3952    0.0000 C   0  0  0  0  0  0  0  0  0  0  0  0
    7.5702   -4.6630    0.0000 C   0  0  0  0  0  0  0  0  0  0  0  0
    7.0000   -0.9392    0.0000 C   0  0  0  0  0  0  0  0  0  0  0  0
    6.0403   -4.1630    0.0000 C   0  0  0  0  0  0  0  0  0  0  0  0
    6.5015   -0.0724    0.0000 C   0  0  2  0  0  0  0  0  0  0  0  0
    6.9866   -5.4677    0.0000 C   0  0  0  0  0  0  0  0  0  0  0  0
    6.0403   -5.1630    0.0000 C   0  0  0  0  0  0  0  0  0  0  0  0
    5.5015   -0.0706    0.0000 C   0  0  2  0  0  0  0  0  0  0  0  0
    5.0000   -0.9358    0.0000 C   0  0  0  0  0  0  0  0  0  0  0  0
    5.1743   -3.6630    0.0000 C   0  0  0  0  0  0  0  0  0  0  0  0
    4.3083   -4.1630    0.0000 C   0  0  0  0  0  0  0  0  0  0  0  0
    4.0000   -0.9340    0.0000 C   0  0  0  0  0  0  0  0  0  0  0  0
    4.3083   -5.1630    0.0000 C   0  0  0  0  0  0  0  0  0  0  0  0
    5.5045    1.6614    0.0000 C   0  0  0  0  0  0  0  0  0  0  0  0
    3.4985   -1.7992    0.0000 C   0  0  0  0  0  0  0  0  0  0  0  0
    3.5015   -0.0672    0.0000 C   0  0  0  0  0  0  0  0  0  0  0  0
    5.0060    2.5283    0.0000 C   0  0  0  0  0  0  0  0  0  0  0  0
    2.4985   -1.7975    0.0000 C   0  0  0  0  0  0  0  0  0  0  0  0
    2.5015   -0.0654    0.0000 C   0  0  0  0  0  0  0  0  0  0  0  0
    5.5075    3.3935    0.0000 C   0  0  0  0  0  0  0  0  0  0  0  0
    2.0000   -0.9306    0.0000 C   0  0  0  0  0  0  0  0  0  0  0  0
    4.0060    2.5300    0.0000 C   0  0  0  0  0  0  0  0  0  0  0  0
    5.0090    4.2604    0.0000 C   0  0  0  0  0  0  0  0  0  0  0  0
    6.5075    3.3918    0.0000 C   0  0  0  0  0  0  0  0  0  0  0  0
    3.5075    3.3969    0.0000 C   0  0  0  0  0  0  0  0  0  0  0  0
    4.0090    4.2621    0.0000 C   0  0  0  0  0  0  0  0  0  0  0  0
    7.9738   -1.8469    0.0000 H   0  0  0  0  0  0  0  0  0  0  0  0
    8.8423    0.4330    0.0000 H   0  0  0  0  0  0  0  0  0  0  0  0
    8.0528    0.1780    0.0000 H   0  0  0  0  0  0  0  0  0  0  0  0
    7.5990   -3.7621    0.0000 H   0  0  0  0  0  0  0  0  0  0  0  0
   10.5369   -2.0654    0.0000 H   0  0  0  0  0  0  0  0  0  0  0  0
   11.1580   -1.4464    0.0000 H   0  0  0  0  0  0  0  0  0  0  0  0
   10.5390   -0.8254    0.0000 H   0  0  0  0  0  0  0  0  0  0  0  0
    9.2554   -2.5858    0.0000 H   0  0  0  0  0  0  0  0  0  0  0  0
   10.0359   -2.9852    0.0000 H   0  0  0  0  0  0  0  0  0  0  0  0
   10.4353   -2.2046    0.0000 H   0  0  0  0  0  0  0  0  0  0  0  0
    8.0310   -5.0777    0.0000 H   0  0  0  0  0  0  0  0  0  0  0  0
    8.0310   -4.2483    0.0000 H   0  0  0  0  0  0  0  0  0  0  0  0
    6.8831   -2.4463    0.0000 H   0  0  0  0  0  0  0  0  0  0  0  0
    7.1215   -0.0734    0.0000 H   0  0  0  0  0  0  0  0  0  0  0  0
    6.7355   -6.0346    0.0000 H   0  0  0  0  0  0  0  0  0  0  0  0
    7.5239   -5.7770    0.0000 H   0  0  0  0  0  0  0  0  0  0  0  0
    5.8124    0.4658    0.0000 H   0  0  0  0  0  0  0  0  0  0  0  0
    4.8913   -1.5462    0.0000 H   0  0  0  0  0  0  0  0  0  0  0  0
    5.5822   -1.1488    0.0000 H   0  0  0  0  0  0  0  0  0  0  0  0
    5.1743   -3.0430    0.0000 H   0  0  0  0  0  0  0  0  0  0  0  0
    4.3830    0.7973    0.0000 H   0  0  0  0  0  0  0  0  0  0  0  0
    7.6230    0.7917    0.0000 H   0  0  0  0  0  0  0  0  0  0  0  0
    3.7713   -3.8530    0.0000 H   0  0  0  0  0  0  0  0  0  0  0  0
    3.7713   -5.4730    0.0000 H   0  0  0  0  0  0  0  0  0  0  0  0
    3.8076   -2.3367    0.0000 H   0  0  0  0  0  0  0  0  0  0  0  0
    3.8124    0.4692    0.0000 H   0  0  0  0  0  0  0  0  0  0  0  0
    2.1876   -2.3339    0.0000 H   0  0  0  0  0  0  0  0  0  0  0  0
    2.1924    0.4720    0.0000 H   0  0  0  0  0  0  0  0  0  0  0  0
    1.3800   -0.9295    0.0000 H   0  0  0  0  0  0  0  0  0  0  0  0
    3.6951    1.9936    0.0000 H   0  0  0  0  0  0  0  0  0  0  0  0
    6.5064    2.7718    0.0000 H   0  0  0  0  0  0  0  0  0  0  0  0
    7.1275    3.3907    0.0000 H   0  0  0  0  0  0  0  0  0  0  0  0
    6.5086    4.0117    0.0000 H   0  0  0  0  0  0  0  0  0  0  0  0
    2.8875    3.3980    0.0000 H   0  0  0  0  0  0  0  0  0  0  0  0
    3.6999    4.7996    0.0000 H   0  0  0  0  0  0  0  0  0  0  0  0
    5.2014    5.6630    0.0000 H   0  0  0  0  0  0  0  0  0  0  0  0
  1 11  1  0  0  0  0
  1 13  1  0  0  0  0
  2 14  2  0  0  0  0
 21  3  1  6  0  0  0
  3 64  1  0  0  0  0
  4 19  2  0  0  0  0
  5 30  2  0  0  0  0
  6 39  1  0  0  0  0
  6 78  1  0  0  0  0
  7 12  1  0  0  0  0
  7 13  1  0  0  0  0
  7 19  1  0  0  0  0
  8 14  1  0  0  0  0
 15  8  1  1  0  0  0
  8 55  1  0  0  0  0
 24  9  1  6  0  0  0
  9 30  1  0  0  0  0
  9 63  1  0  0  0  0
 10 23  1  0  0  0  0
 10 29  2  0  0  0  0
 11 12  1  0  0  0  0
 11 16  1  0  0  0  0
 11 17  1  0  0  0  0
 12 14  1  1  0  0  0
 12 43  1  0  0  0  0
 13 44  1  0  0  0  0
 13 45  1  0  0  0  0
 15 18  1  0  0  0  0
 15 20  1  0  0  0  0
 15 46  1  0  0  0  0
 16 47  1  0  0  0  0
 16 48  1  0  0  0  0
 16 49  1  0  0  0  0
 17 50  1  0  0  0  0
 17 51  1  0  0  0  0
 17 52  1  0  0  0  0
 18 22  1  0  0  0  0
 18 53  1  0  0  0  0
 18 54  1  0  0  0  0
 19 21  1  0  0  0  0
 20 23  2  0  0  0  0
 20 26  1  0  0  0  0
 21 24  1  0  0  0  0
 21 56  1  0  0  0  0
 22 23  1  0  0  0  0
 22 57  1  0  0  0  0
 22 58  1  0  0  0  0
 24 25  1  0  0  0  0
 24 59  1  0  0  0  0
 25 28  1  0  0  0  0
 25 60  1  0  0  0  0
 25 61  1  0  0  0  0
 26 27  2  0  0  0  0
 26 62  1  0  0  0  0
 27 29  1  0  0  0  0
 27 65  1  0  0  0  0
 28 31  2  0  0  0  0
 28 32  1  0  0  0  0
 29 66  1  0  0  0  0
 30 33  1  0  0  0  0
 31 34  1  0  0  0  0
 31 67  1  0  0  0  0
 32 35  2  0  0  0  0
 32 68  1  0  0  0  0
 33 36  2  0  0  0  0
 33 38  1  0  0  0  0
 34 37  2  0  0  0  0
 34 69  1  0  0  0  0
 35 37  1  0  0  0  0
 35 70  1  0  0  0  0
 36 39  1  0  0  0  0
 36 40  1  0  0  0  0
 37 71  1  0  0  0  0
 38 41  2  0  0  0  0
 38 72  1  0  0  0  0
 39 42  2  0  0  0  0
 40 73  1  0  0  0  0
 40 74  1  0  0  0  0
 40 75  1  0  0  0  0
 41 42  1  0  0  0  0
 41 76  1  0  0  0  0
 42 77  1  0  0  0  0
M  END
> <PUBCHEM_COMPOUND_CID>
514508
> <PUBCHEM_COMPOUND_CANONICALIZED>
1
> <PUBCHEM_CACTVS_COMPLEXITY>
975
> <PUBCHEM_CACTVS_HBOND_ACCEPTOR>
7
> <PUBCHEM_CACTVS_HBOND_DONOR>
4
> <PUBCHEM_CACTVS_ROTATABLE_BOND>
8
> <PUBCHEM_CACTVS_SUBSKEYS>
AAADcfB/uABAAAAAAAAAAAAAAAAAAeIAAAA8YIAAAAAAAFgB0AAAHgQQCAAADDzh3ga+hpPIEgioAzV3VAKCgCB1IjAI2KH+bNgKdvri1bOUcQhk1hHY2Ye6yLCOgAABAAAYAAAAAAIAADAAAAACAQAAAA==
> <PUBCHEM_IUPAC_OPENEYE_NAME>
(4R)-N-[(5S)-6,7-dihydro-5H-cyclopenta[b]pyridin-5-yl]-3-[(2S,3S)-2-hydroxy-3-[(3-hydroxy-2-methyl-benzoyl)amino]-4-phenyl-butanoyl]-5,5-dimethyl-thiazolidine-4-carboxamide
> <PUBCHEM_IUPAC_CAS_NAME>
(4R)-N-[(5S)-6,7-dihydro-5H-cyclopenta[b]pyridin-5-yl]-3-[(2S,3S)-2-hydroxy-3-[[(3-hydroxy-2-methylphenyl)-oxomethyl]amino]-1-oxo-4-phenylbutyl]-5,5-dimethyl-4-thiazolidinecarboxamide
> <PUBCHEM_IUPAC_NAME_MARKUP>
(4<I>R</I>)-<I>N</I>-[(5<I>S</I>)-6,7-dihydro-5<I>H</I>-cyclopenta[b]pyridin-5-yl]-3-[(2<I>S</I>,3<I>S</I>)-2-hydroxy-3-[(3-hydroxy-2-methylbenzoyl)amino]-4-phenylbutanoyl]-5,5-dimethyl-1,3-thiazolidine-4-carboxamide
> <PUBCHEM_IUPAC_NAME>
(4R)-N-[(5S)-6,7-dihydro-5H-cyclopenta[b]pyridin-5-yl]-3-[(2S,3S)-2-hydroxy-3-[(3-hydroxy-2-methylbenzoyl)amino]-4-phenylbutanoyl]-5,5-dimethyl-1,3-thiazolidine-4-carboxamide
> <PUBCHEM_IUPAC_SYSTEMATIC_NAME>
(4R)-N-[(5S)-6,7-dihydro-5H-cyclopenta[b]pyridin-5-yl]-5,5-dimethyl-3-[(2S,3S)-3-[(2-methyl-3-oxidanyl-phenyl)carbonylamino]-2-oxidanyl-4-phenyl-butanoyl]-1,3-thiazolidine-4-carboxamide
> <PUBCHEM_IUPAC_TRADITIONAL_NAME>
(4R)-3-[(2S,3S)-2-hydroxy-3-[(3-hydroxy-2-methyl-benzoyl)amino]-4-phenyl-butanoyl]-5,5-dimethyl-N-[(5S)-1-pyrindan-5-yl]thiazolidine-4-carboxamide
> <PUBCHEM_IUPAC_INCHI>
InChI=1S/C32H36N4O5S/c1-19-21(11-7-13-26(19)37)29(39)35-25(17-20-9-5-4-6-10-20)27(38)31(41)36-18-42-32(2,3)28(36)30(40)34-24-15-14-23-22(24)12-8-16-33-23/h4-13,16,24-25,27-28,37-38H,14-15,17-18H2,1-3H3,(H,34,40)(H,35,39)/t24-,25-,27-,28+/m0/s1
> <PUBCHEM_IUPAC_INCHIKEY>
BMQHQXDUYUAPRU-DNZWLJDLSA-N
> <PUBCHEM_XLOGP3_AA>
3.5
> <PUBCHEM_EXACT_MASS>
588.24064144
> <PUBCHEM_MOLECULAR_FORMULA>
C32H36N4O5S
> <PUBCHEM_MOLECULAR_WEIGHT>
588.7
> <PUBCHEM_OPENEYE_CAN_SMILES>
CC1=C(C=CC=C1O)C(=O)NC(CC2=CC=CC=C2)C(C(=O)N3CSC(C3C(=O)NC4CCC5=C4C=CC=N5)(C)C)O
> <PUBCHEM_OPENEYE_ISO_SMILES>
CC1=C(C=CC=C1O)C(=O)N[C@@H](CC2=CC=CC=C2)[C@@H](C(=O)N3CSC([C@H]3C(=O)N[C@H]4CCC5=C4C=CC=N5)(C)C)O
> <PUBCHEM_CACTVS_TPSA>
157
> <PUBCHEM_MONOISOTOPIC_WEIGHT>
588.24064144
> <PUBCHEM_TOTAL_CHARGE>
0
> <PUBCHEM_HEAVY_ATOM_COUNT>
42
> <PUBCHEM_ATOM_DEF_STEREO_COUNT>
4
> <PUBCHEM_ATOM_UDEF_STEREO_COUNT>
0
> <PUBCHEM_BOND_DEF_STEREO_COUNT>
0
> <PUBCHEM_BOND_UDEF_STEREO_COUNT>
0
> <PUBCHEM_ISOTOPIC_ATOM_COUNT>
0
> <PUBCHEM_COMPONENT_COUNT>
1
> <PUBCHEM_CACTVS_TAUTO_COUNT>
-1
> <PUBCHEM_COORDINATE_TYPE>
1
5
255
> <PUBCHEM_BONDANNOTATIONS>
10  23  8
10  29  8
12  14  5
20  23  8
20  26  8
26  27  8
27  29  8
28  31  8
28  32  8
21  3  6
31  34  8
32  35  8
33  36  8
33  38  8
34  37  8
35  37  8
36  39  8
38  41  8
39  42  8
41  42  8
15  8  5
24  9  6
$$$$
