514523
  -OEChem-10302200282D
 83 87  0     1  0  0  0  0  0999 V2000
    6.0509    2.5297    0.0000 S   0  0  0  0  0  0  0  0  0  0  0  0
    8.8656    2.3273    0.0000 O   0  0  0  0  0  0  0  0  0  0  0  0
    7.9996   -0.1727    0.0000 O   0  0  0  0  0  0  0  0  0  0  0  0
    6.7553   -0.7267    0.0000 O   0  0  0  0  0  0  0  0  0  0  0  0
   11.4637   -0.1727    0.0000 O   0  0  0  0  0  0  0  0  0  0  0  0
    7.1336    1.3273    0.0000 N   0  0  0  0  0  0  0  0  0  0  0  0
    5.0611   -0.3666    0.0000 N   0  0  0  0  0  0  0  0  0  0  0  0
    9.7317   -0.1727    0.0000 N   0  0  0  0  0  0  0  0  0  0  0  0
   12.3577   -3.7074    0.0000 N   0  0  0  0  0  0  0  0  0  0  0  0
    5.5509    1.6637    0.0000 C   0  0  0  0  0  0  0  0  0  0  0  0
    6.2200    0.9206    0.0000 C   0  0  1  0  0  0  0  0  0  0  0  0
    7.0291    2.3218    0.0000 C   0  0  0  0  0  0  0  0  0  0  0  0
    4.6849    2.1637    0.0000 C   0  0  0  0  0  0  0  0  0  0  0  0
    4.8078    0.9946    0.0000 C   0  0  0  0  0  0  0  0  0  0  0  0
    7.9996    0.8273    0.0000 C   0  0  0  0  0  0  0  0  0  0  0  0
    6.0121   -0.0576    0.0000 C   0  0  0  0  0  0  0  0  0  0  0  0
    8.8656    1.3273    0.0000 C   0  0  2  0  0  0  0  0  0  0  0  0
    9.7317    0.8273    0.0000 C   0  0  2  0  0  0  0  0  0  0  0  0
   10.5977    1.3273    0.0000 C   0  0  0  0  0  0  0  0  0  0  0  0
    4.8532   -1.3447    0.0000 C   0  0  0  0  0  0  0  0  0  0  0  0
   10.5977    2.3273    0.0000 C   0  0  0  0  0  0  0  0  0  0  0  0
   10.5977   -0.6727    0.0000 C   0  0  0  0  0  0  0  0  0  0  0  0
   11.4637   -2.1727    0.0000 C   0  0  0  0  0  0  0  0  0  0  0  0
   10.5977   -1.6727    0.0000 C   0  0  0  0  0  0  0  0  0  0  0  0
   12.3577   -1.6380    0.0000 C   0  0  0  0  0  0  0  0  0  0  0  0
   13.2637   -2.1519    0.0000 C   0  0  0  0  0  0  0  0  0  0  0  0
   11.4637   -3.1727    0.0000 C   0  0  0  0  0  0  0  0  0  0  0  0
    3.9021   -1.6538    0.0000 C   0  0  0  0  0  0  0  0  0  0  0  0
   13.2637   -3.1935    0.0000 C   0  0  0  0  0  0  0  0  0  0  0  0
   11.4637    2.8273    0.0000 C   0  0  0  0  0  0  0  0  0  0  0  0
    9.7317    2.8273    0.0000 C   0  0  0  0  0  0  0  0  0  0  0  0
    9.7317   -2.1727    0.0000 C   0  0  0  0  0  0  0  0  0  0  0  0
   10.5977   -3.6727    0.0000 C   0  0  0  0  0  0  0  0  0  0  0  0
    3.1590   -0.9846    0.0000 C   0  0  0  0  0  0  0  0  0  0  0  0
    9.7317   -3.1727    0.0000 C   0  0  0  0  0  0  0  0  0  0  0  0
    3.6942   -2.6319    0.0000 C   0  0  0  0  0  0  0  0  0  0  0  0
   11.4637    3.8273    0.0000 C   0  0  0  0  0  0  0  0  0  0  0  0
    9.7317    3.8273    0.0000 C   0  0  0  0  0  0  0  0  0  0  0  0
   10.5977    4.3273    0.0000 C   0  0  0  0  0  0  0  0  0  0  0  0
    2.2079   -1.2936    0.0000 C   0  0  0  0  0  0  0  0  0  0  0  0
    3.3669   -0.0065    0.0000 C   0  0  0  0  0  0  0  0  0  0  0  0
    2.7431   -2.9409    0.0000 C   0  0  0  0  0  0  0  0  0  0  0  0
    2.0000   -2.2718    0.0000 C   0  0  0  0  0  0  0  0  0  0  0  0
    6.7019    0.5304    0.0000 H   0  0  0  0  0  0  0  0  0  0  0  0
    7.6491    2.3218    0.0000 H   0  0  0  0  0  0  0  0  0  0  0  0
    7.0939    2.9384    0.0000 H   0  0  0  0  0  0  0  0  0  0  0  0
    4.9949    2.7006    0.0000 H   0  0  0  0  0  0  0  0  0  0  0  0
    4.1480    2.4737    0.0000 H   0  0  0  0  0  0  0  0  0  0  0  0
    4.3749    1.6268    0.0000 H   0  0  0  0  0  0  0  0  0  0  0  0
    4.3929    1.4553    0.0000 H   0  0  0  0  0  0  0  0  0  0  0  0
    4.3470    0.5797    0.0000 H   0  0  0  0  0  0  0  0  0  0  0  0
    5.2226    0.5338    0.0000 H   0  0  0  0  0  0  0  0  0  0  0  0
    8.3287    1.6373    0.0000 H   0  0  0  0  0  0  0  0  0  0  0  0
   10.2686    0.5173    0.0000 H   0  0  0  0  0  0  0  0  0  0  0  0
   10.8097    0.7447    0.0000 H   0  0  0  0  0  0  0  0  0  0  0  0
   11.2083    1.4350    0.0000 H   0  0  0  0  0  0  0  0  0  0  0  0
    4.6003    0.0483    0.0000 H   0  0  0  0  0  0  0  0  0  0  0  0
    9.1947   -0.4827    0.0000 H   0  0  0  0  0  0  0  0  0  0  0  0
    4.9395   -1.9587    0.0000 H   0  0  0  0  0  0  0  0  0  0  0  0
    5.4728   -1.3664    0.0000 H   0  0  0  0  0  0  0  0  0  0  0  0
    8.3287    2.6373    0.0000 H   0  0  0  0  0  0  0  0  0  0  0  0
   12.7513   -1.1590    0.0000 H   0  0  0  0  0  0  0  0  0  0  0  0
   11.9531   -1.1682    0.0000 H   0  0  0  0  0  0  0  0  0  0  0  0
   13.8746   -2.2580    0.0000 H   0  0  0  0  0  0  0  0  0  0  0  0
   13.4728   -1.5682    0.0000 H   0  0  0  0  0  0  0  0  0  0  0  0
   13.4728   -3.7772    0.0000 H   0  0  0  0  0  0  0  0  0  0  0  0
   13.8746   -3.0874    0.0000 H   0  0  0  0  0  0  0  0  0  0  0  0
   12.3505   -4.3273    0.0000 H   0  0  0  0  0  0  0  0  0  0  0  0
   12.0007    2.5173    0.0000 H   0  0  0  0  0  0  0  0  0  0  0  0
    9.1947    2.5173    0.0000 H   0  0  0  0  0  0  0  0  0  0  0  0
    9.1947   -1.8627    0.0000 H   0  0  0  0  0  0  0  0  0  0  0  0
   10.5977   -4.2927    0.0000 H   0  0  0  0  0  0  0  0  0  0  0  0
    9.1947   -3.4827    0.0000 H   0  0  0  0  0  0  0  0  0  0  0  0
    4.1550   -3.0468    0.0000 H   0  0  0  0  0  0  0  0  0  0  0  0
   12.0007    4.1373    0.0000 H   0  0  0  0  0  0  0  0  0  0  0  0
    9.1947    4.1373    0.0000 H   0  0  0  0  0  0  0  0  0  0  0  0
   10.5977    4.9473    0.0000 H   0  0  0  0  0  0  0  0  0  0  0  0
    1.7472   -0.8788    0.0000 H   0  0  0  0  0  0  0  0  0  0  0  0
    3.9733   -0.1354    0.0000 H   0  0  0  0  0  0  0  0  0  0  0  0
    3.4958    0.6000    0.0000 H   0  0  0  0  0  0  0  0  0  0  0  0
    2.7604    0.1224    0.0000 H   0  0  0  0  0  0  0  0  0  0  0  0
    2.6142   -3.5474    0.0000 H   0  0  0  0  0  0  0  0  0  0  0  0
    1.4103   -2.4634    0.0000 H   0  0  0  0  0  0  0  0  0  0  0  0
  1 10  1  0  0  0  0
  1 12  1  0  0  0  0
 17  2  1  1  0  0  0
  2 61  1  0  0  0  0
  3 15  2  0  0  0  0
  4 16  2  0  0  0  0
  5 22  2  0  0  0  0
  6 11  1  0  0  0  0
  6 12  1  0  0  0  0
  6 15  1  0  0  0  0
  7 16  1  0  0  0  0
  7 20  1  0  0  0  0
  7 57  1  0  0  0  0
 18  8  1  6  0  0  0
  8 22  1  0  0  0  0
  8 58  1  0  0  0  0
  9 27  1  0  0  0  0
  9 29  1  0  0  0  0
  9 68  1  0  0  0  0
 10 11  1  0  0  0  0
 10 13  1  0  0  0  0
 10 14  1  0  0  0  0
 11 16  1  6  0  0  0
 11 44  1  0  0  0  0
 12 45  1  0  0  0  0
 12 46  1  0  0  0  0
 13 47  1  0  0  0  0
 13 48  1  0  0  0  0
 13 49  1  0  0  0  0
 14 50  1  0  0  0  0
 14 51  1  0  0  0  0
 14 52  1  0  0  0  0
 15 17  1  0  0  0  0
 17 18  1  0  0  0  0
 17 53  1  0  0  0  0
 18 19  1  0  0  0  0
 18 54  1  0  0  0  0
 19 21  1  0  0  0  0
 19 55  1  0  0  0  0
 19 56  1  0  0  0  0
 20 28  1  0  0  0  0
 20 59  1  0  0  0  0
 20 60  1  0  0  0  0
 21 30  2  0  0  0  0
 21 31  1  0  0  0  0
 22 24  1  0  0  0  0
 23 24  2  0  0  0  0
 23 25  1  0  0  0  0
 23 27  1  0  0  0  0
 24 32  1  0  0  0  0
 25 26  1  0  0  0  0
 25 62  1  0  0  0  0
 25 63  1  0  0  0  0
 26 29  1  0  0  0  0
 26 64  1  0  0  0  0
 26 65  1  0  0  0  0
 27 33  2  0  0  0  0
 28 34  1  0  0  0  0
 28 36  2  0  0  0  0
 29 66  1  0  0  0  0
 29 67  1  0  0  0  0
 30 37  1  0  0  0  0
 30 69  1  0  0  0  0
 31 38  2  0  0  0  0
 31 70  1  0  0  0  0
 32 35  2  0  0  0  0
 32 71  1  0  0  0  0
 33 35  1  0  0  0  0
 33 72  1  0  0  0  0
 34 40  2  0  0  0  0
 34 41  1  0  0  0  0
 35 73  1  0  0  0  0
 36 42  1  0  0  0  0
 36 74  1  0  0  0  0
 37 39  2  0  0  0  0
 37 75  1  0  0  0  0
 38 39  1  0  0  0  0
 38 76  1  0  0  0  0
 39 77  1  0  0  0  0
 40 43  1  0  0  0  0
 40 78  1  0  0  0  0
 41 79  1  0  0  0  0
 41 80  1  0  0  0  0
 41 81  1  0  0  0  0
 42 43  2  0  0  0  0
 42 82  1  0  0  0  0
 43 83  1  0  0  0  0
M  END
> <PUBCHEM_COMPOUND_CID>
514523
> <PUBCHEM_COMPOUND_CANONICALIZED>
1
> <PUBCHEM_CACTVS_COMPLEXITY>
972
> <PUBCHEM_CACTVS_HBOND_ACCEPTOR>
6
> <PUBCHEM_CACTVS_HBOND_DONOR>
4
> <PUBCHEM_CACTVS_ROTATABLE_BOND>
9
> <PUBCHEM_CACTVS_SUBSKEYS>
AAADcfB/uABAAAAAAAAAAAAAAAAAAWAAAAA8YMEAAAAAAACxUAAAHgQQCAAADDzh2AaywIPAAgiIAiVSUAKCAABlAhAIiIHIZMgKcDrg1bGUYQhklgDYyYecyKCOgAAAQAASAAAAAACAACQAAAAAAAAAAA==
> <PUBCHEM_IUPAC_OPENEYE_NAME>
(4R)-3-[(2S,3S)-2-hydroxy-4-phenyl-3-(1,2,3,4-tetrahydroquinoline-5-carbonylamino)butanoyl]-5,5-dimethyl-N-(o-tolylmethyl)thiazolidine-4-carboxamide
> <PUBCHEM_IUPAC_CAS_NAME>
(4R)-3-[(2S,3S)-2-hydroxy-1-oxo-3-[[oxo(1,2,3,4-tetrahydroquinolin-5-yl)methyl]amino]-4-phenylbutyl]-5,5-dimethyl-N-[(2-methylphenyl)methyl]-4-thiazolidinecarboxamide
> <PUBCHEM_IUPAC_NAME_MARKUP>
(4<I>R</I>)-3-[(2<I>S</I>,3<I>S</I>)-2-hydroxy-4-phenyl-3-(1,2,3,4-tetrahydroquinoline-5-carbonylamino)butanoyl]-5,5-dimethyl-<I>N</I>-[(2-methylphenyl)methyl]-1,3-thiazolidine-4-carboxamide
> <PUBCHEM_IUPAC_NAME>
(4R)-3-[(2S,3S)-2-hydroxy-4-phenyl-3-(1,2,3,4-tetrahydroquinoline-5-carbonylamino)butanoyl]-5,5-dimethyl-N-[(2-methylphenyl)methyl]-1,3-thiazolidine-4-carboxamide
> <PUBCHEM_IUPAC_SYSTEMATIC_NAME>
(4R)-5,5-dimethyl-N-[(2-methylphenyl)methyl]-3-[(2S,3S)-2-oxidanyl-4-phenyl-3-(1,2,3,4-tetrahydroquinolin-5-ylcarbonylamino)butanoyl]-1,3-thiazolidine-4-carboxamide
> <PUBCHEM_IUPAC_TRADITIONAL_NAME>
(4R)-3-[(2S,3S)-2-hydroxy-4-phenyl-3-(1,2,3,4-tetrahydroquinoline-5-carbonylamino)butanoyl]-5,5-dimethyl-N-(2-methylbenzyl)thiazolidine-4-carboxamide
> <PUBCHEM_IUPAC_INCHI>
InChI=1S/C34H40N4O4S/c1-22-11-7-8-14-24(22)20-36-32(41)30-34(2,3)43-21-38(30)33(42)29(39)28(19-23-12-5-4-6-13-23)37-31(40)26-15-9-17-27-25(26)16-10-18-35-27/h4-9,11-15,17,28-30,35,39H,10,16,18-21H2,1-3H3,(H,36,41)(H,37,40)/t28-,29-,30+/m0/s1
> <PUBCHEM_IUPAC_INCHIKEY>
QBOKVGKNDSXXQM-OIFRRMEBSA-N
> <PUBCHEM_XLOGP3_AA>
4.9
> <PUBCHEM_EXACT_MASS>
600.27702694
> <PUBCHEM_MOLECULAR_FORMULA>
C34H40N4O4S
> <PUBCHEM_MOLECULAR_WEIGHT>
600.8
> <PUBCHEM_OPENEYE_CAN_SMILES>
CC1=CC=CC=C1CNC(=O)C2C(SCN2C(=O)C(C(CC3=CC=CC=C3)NC(=O)C4=C5CCCNC5=CC=C4)O)(C)C
> <PUBCHEM_OPENEYE_ISO_SMILES>
CC1=CC=CC=C1CNC(=O)[C@@H]2C(SCN2C(=O)[C@H]([C@H](CC3=CC=CC=C3)NC(=O)C4=C5CCCNC5=CC=C4)O)(C)C
> <PUBCHEM_CACTVS_TPSA>
136
> <PUBCHEM_MONOISOTOPIC_WEIGHT>
600.27702694
> <PUBCHEM_TOTAL_CHARGE>
0
> <PUBCHEM_HEAVY_ATOM_COUNT>
43
> <PUBCHEM_ATOM_DEF_STEREO_COUNT>
3
> <PUBCHEM_ATOM_UDEF_STEREO_COUNT>
0
> <PUBCHEM_BOND_DEF_STEREO_COUNT>
0
> <PUBCHEM_BOND_UDEF_STEREO_COUNT>
0
> <PUBCHEM_ISOTOPIC_ATOM_COUNT>
0
> <PUBCHEM_COMPONENT_COUNT>
1
> <PUBCHEM_CACTVS_TAUTO_COUNT>
-1
> <PUBCHEM_COORDINATE_TYPE>
1
5
255
> <PUBCHEM_BONDANNOTATIONS>
11  16  6
17  2  5
21  30  8
21  31  8
23  24  8
23  27  8
24  32  8
27  33  8
28  34  8
28  36  8
30  37  8
31  38  8
32  35  8
33  35  8
34  40  8
36  42  8
37  39  8
38  39  8
40  43  8
42  43  8
18  8  6
$$$$
