514517
  -OEChem-10302200282D
 78 82  0     1  0  0  0  0  0999 V2000
    8.5983   -2.6478    0.0000 S   0  0  0  0  0  0  0  0  0  0  0  0
   11.2127   -1.5855    0.0000 O   0  0  0  0  0  0  0  0  0  0  0  0
    9.6165    0.5245    0.0000 O   0  0  0  0  0  0  0  0  0  0  0  0
    8.2619    0.6669    0.0000 O   0  0  0  0  0  0  0  0  0  0  0  0
   12.1908   -1.7934    0.0000 O   0  0  0  0  0  0  0  0  0  0  0  0
   15.4343   -3.3682    0.0000 O   0  0  0  0  0  0  0  0  0  0  0  0
    9.2564   -1.1697    0.0000 N   0  0  0  0  0  0  0  0  0  0  0  0
    6.7619   -0.1991    0.0000 N   0  0  0  0  0  0  0  0  0  0  0  0
   12.5510   -0.0992    0.0000 N   0  0  0  0  0  0  0  0  0  0  0  0
    4.6783    1.4716    0.0000 N   0  0  0  0  0  0  0  0  0  0  0  0
    4.6783   -0.1378    0.0000 N   0  0  0  0  0  0  0  0  0  0  0  0
    7.8551   -1.9787    0.0000 C   0  0  0  0  0  0  0  0  0  0  0  0
    8.2619   -1.0652    0.0000 C   0  0  1  0  0  0  0  0  0  0  0  0
    9.4643   -2.1478    0.0000 C   0  0  0  0  0  0  0  0  0  0  0  0
    7.1860   -2.7218    0.0000 C   0  0  0  0  0  0  0  0  0  0  0  0
    6.9416   -1.5720    0.0000 C   0  0  0  0  0  0  0  0  0  0  0  0
    9.9255   -0.4265    0.0000 C   0  0  0  0  0  0  0  0  0  0  0  0
    7.7619   -0.1991    0.0000 C   0  0  0  0  0  0  0  0  0  0  0  0
   10.9037   -0.6344    0.0000 C   0  0  2  0  0  0  0  0  0  0  0  0
   11.5728    0.1087    0.0000 C   0  0  2  0  0  0  0  0  0  0  0  0
   11.2638    1.0598    0.0000 C   0  0  0  0  0  0  0  0  0  0  0  0
    6.2619    0.6669    0.0000 C   0  0  0  0  0  0  0  0  0  0  0  0
   11.9329    1.8029    0.0000 C   0  0  0  0  0  0  0  0  0  0  0  0
    5.2619    0.6669    0.0000 C   0  0  0  0  0  0  0  0  0  0  0  0
   12.8600   -1.0503    0.0000 C   0  0  0  0  0  0  0  0  0  0  0  0
   11.6239    2.7540    0.0000 C   0  0  0  0  0  0  0  0  0  0  0  0
   12.9111    1.5950    0.0000 C   0  0  0  0  0  0  0  0  0  0  0  0
   13.8381   -1.2582    0.0000 C   0  0  0  0  0  0  0  0  0  0  0  0
    3.7320    1.1669    0.0000 C   0  0  0  0  0  0  0  0  0  0  0  0
    3.7320    0.1669    0.0000 C   0  0  0  0  0  0  0  0  0  0  0  0
   12.2930    3.4971    0.0000 C   0  0  0  0  0  0  0  0  0  0  0  0
   13.5802    2.3381    0.0000 C   0  0  0  0  0  0  0  0  0  0  0  0
   14.1471   -2.2092    0.0000 C   0  0  0  0  0  0  0  0  0  0  0  0
   13.2712    3.2892    0.0000 C   0  0  0  0  0  0  0  0  0  0  0  0
   14.5073   -0.5150    0.0000 C   0  0  0  0  0  0  0  0  0  0  0  0
    2.8660    1.6669    0.0000 C   0  0  0  0  0  0  0  0  0  0  0  0
    2.8660   -0.3331    0.0000 C   0  0  0  0  0  0  0  0  0  0  0  0
   15.1253   -2.4171    0.0000 C   0  0  0  0  0  0  0  0  0  0  0  0
   13.4780   -2.9524    0.0000 C   0  0  0  0  0  0  0  0  0  0  0  0
   15.4854   -0.7229    0.0000 C   0  0  0  0  0  0  0  0  0  0  0  0
   15.7944   -1.6740    0.0000 C   0  0  0  0  0  0  0  0  0  0  0  0
    2.0000    1.1669    0.0000 C   0  0  0  0  0  0  0  0  0  0  0  0
    2.0000    0.1669    0.0000 C   0  0  0  0  0  0  0  0  0  0  0  0
    8.5996   -0.5452    0.0000 H   0  0  0  0  0  0  0  0  0  0  0  0
    9.7165   -2.7142    0.0000 H   0  0  0  0  0  0  0  0  0  0  0  0
   10.0540   -1.9562    0.0000 H   0  0  0  0  0  0  0  0  0  0  0  0
    6.7253   -2.3070    0.0000 H   0  0  0  0  0  0  0  0  0  0  0  0
    6.7712   -3.1826    0.0000 H   0  0  0  0  0  0  0  0  0  0  0  0
    7.6468   -3.1367    0.0000 H   0  0  0  0  0  0  0  0  0  0  0  0
    7.1938   -1.0056    0.0000 H   0  0  0  0  0  0  0  0  0  0  0  0
    6.3752   -1.3198    0.0000 H   0  0  0  0  0  0  0  0  0  0  0  0
    6.6894   -2.1384    0.0000 H   0  0  0  0  0  0  0  0  0  0  0  0
   10.4888   -1.0952    0.0000 H   0  0  0  0  0  0  0  0  0  0  0  0
   11.9877    0.5695    0.0000 H   0  0  0  0  0  0  0  0  0  0  0  0
    6.4519   -0.7361    0.0000 H   0  0  0  0  0  0  0  0  0  0  0  0
   10.8821    1.5483    0.0000 H   0  0  0  0  0  0  0  0  0  0  0  0
   10.7164    0.7687    0.0000 H   0  0  0  0  0  0  0  0  0  0  0  0
   12.9658    0.3615    0.0000 H   0  0  0  0  0  0  0  0  0  0  0  0
    6.8445    0.8790    0.0000 H   0  0  0  0  0  0  0  0  0  0  0  0
    6.1542    1.2775    0.0000 H   0  0  0  0  0  0  0  0  0  0  0  0
   10.7978   -2.0462    0.0000 H   0  0  0  0  0  0  0  0  0  0  0  0
   11.0175    2.8829    0.0000 H   0  0  0  0  0  0  0  0  0  0  0  0
   13.1027    1.0053    0.0000 H   0  0  0  0  0  0  0  0  0  0  0  0
    4.8709    2.0610    0.0000 H   0  0  0  0  0  0  0  0  0  0  0  0
   12.1014    4.0868    0.0000 H   0  0  0  0  0  0  0  0  0  0  0  0
   14.1867    2.2092    0.0000 H   0  0  0  0  0  0  0  0  0  0  0  0
   13.6860    3.7499    0.0000 H   0  0  0  0  0  0  0  0  0  0  0  0
   14.3157    0.0746    0.0000 H   0  0  0  0  0  0  0  0  0  0  0  0
    2.8660    2.2869    0.0000 H   0  0  0  0  0  0  0  0  0  0  0  0
    2.8660   -0.9531    0.0000 H   0  0  0  0  0  0  0  0  0  0  0  0
   13.0173   -2.5375    0.0000 H   0  0  0  0  0  0  0  0  0  0  0  0
   13.0631   -3.4131    0.0000 H   0  0  0  0  0  0  0  0  0  0  0  0
   13.9388   -3.3672    0.0000 H   0  0  0  0  0  0  0  0  0  0  0  0
   15.9003   -0.2622    0.0000 H   0  0  0  0  0  0  0  0  0  0  0  0
   16.4009   -1.8029    0.0000 H   0  0  0  0  0  0  0  0  0  0  0  0
    1.4631    1.4769    0.0000 H   0  0  0  0  0  0  0  0  0  0  0  0
    1.4631   -0.1431    0.0000 H   0  0  0  0  0  0  0  0  0  0  0  0
   16.0408   -3.4971    0.0000 H   0  0  0  0  0  0  0  0  0  0  0  0
  1 12  1  0  0  0  0
  1 14  1  0  0  0  0
 19  2  1  6  0  0  0
  2 61  1  0  0  0  0
  3 17  2  0  0  0  0
  4 18  2  0  0  0  0
  5 25  2  0  0  0  0
  6 38  1  0  0  0  0
  6 78  1  0  0  0  0
  7 13  1  0  0  0  0
  7 14  1  0  0  0  0
  7 17  1  0  0  0  0
  8 18  1  0  0  0  0
  8 22  1  0  0  0  0
  8 55  1  0  0  0  0
 20  9  1  6  0  0  0
  9 25  1  0  0  0  0
  9 58  1  0  0  0  0
 10 24  1  0  0  0  0
 10 29  1  0  0  0  0
 10 64  1  0  0  0  0
 11 24  2  0  0  0  0
 11 30  1  0  0  0  0
 12 13  1  0  0  0  0
 12 15  1  0  0  0  0
 12 16  1  0  0  0  0
 13 18  1  1  0  0  0
 13 44  1  0  0  0  0
 14 45  1  0  0  0  0
 14 46  1  0  0  0  0
 15 47  1  0  0  0  0
 15 48  1  0  0  0  0
 15 49  1  0  0  0  0
 16 50  1  0  0  0  0
 16 51  1  0  0  0  0
 16 52  1  0  0  0  0
 17 19  1  0  0  0  0
 19 20  1  0  0  0  0
 19 53  1  0  0  0  0
 20 21  1  0  0  0  0
 20 54  1  0  0  0  0
 21 23  1  0  0  0  0
 21 56  1  0  0  0  0
 21 57  1  0  0  0  0
 22 24  1  0  0  0  0
 22 59  1  0  0  0  0
 22 60  1  0  0  0  0
 23 26  2  0  0  0  0
 23 27  1  0  0  0  0
 25 28  1  0  0  0  0
 26 31  1  0  0  0  0
 26 62  1  0  0  0  0
 27 32  2  0  0  0  0
 27 63  1  0  0  0  0
 28 33  2  0  0  0  0
 28 35  1  0  0  0  0
 29 30  1  0  0  0  0
 29 36  2  0  0  0  0
 30 37  2  0  0  0  0
 31 34  2  0  0  0  0
 31 65  1  0  0  0  0
 32 34  1  0  0  0  0
 32 66  1  0  0  0  0
 33 38  1  0  0  0  0
 33 39  1  0  0  0  0
 34 67  1  0  0  0  0
 35 40  2  0  0  0  0
 35 68  1  0  0  0  0
 36 42  1  0  0  0  0
 36 69  1  0  0  0  0
 37 43  1  0  0  0  0
 37 70  1  0  0  0  0
 38 41  2  0  0  0  0
 39 71  1  0  0  0  0
 39 72  1  0  0  0  0
 39 73  1  0  0  0  0
 40 41  1  0  0  0  0
 40 74  1  0  0  0  0
 41 75  1  0  0  0  0
 42 43  2  0  0  0  0
 42 76  1  0  0  0  0
 43 77  1  0  0  0  0
M  END
> <PUBCHEM_COMPOUND_CID>
514517
> <PUBCHEM_COMPOUND_CANONICALIZED>
1
> <PUBCHEM_CACTVS_COMPLEXITY>
993
> <PUBCHEM_CACTVS_HBOND_ACCEPTOR>
7
> <PUBCHEM_CACTVS_HBOND_DONOR>
5
> <PUBCHEM_CACTVS_ROTATABLE_BOND>
9
> <PUBCHEM_CACTVS_SUBSKEYS>
AAADcfB/uABAAAAAAAAAAAAAAAAAAWLAAAAwYMAAAAAAAFgB9AAAHgQQCAAADDzh3waz1rfJkgioAydydAKCgC3lMrAJmaH+fNiKfrri3bOUcQhs1hPY2ae6yLCOgAABAAAYACAAAAIAADAAQAAAAAAAAA==
> <PUBCHEM_IUPAC_OPENEYE_NAME>
(4R)-N-(1H-benzimidazol-2-ylmethyl)-3-[(2S,3S)-2-hydroxy-3-[(3-hydroxy-2-methyl-benzoyl)amino]-4-phenyl-butanoyl]-5,5-dimethyl-thiazolidine-4-carboxamide
> <PUBCHEM_IUPAC_CAS_NAME>
(4R)-N-(1H-benzimidazol-2-ylmethyl)-3-[(2S,3S)-2-hydroxy-3-[[(3-hydroxy-2-methylphenyl)-oxomethyl]amino]-1-oxo-4-phenylbutyl]-5,5-dimethyl-4-thiazolidinecarboxamide
> <PUBCHEM_IUPAC_NAME_MARKUP>
(4<I>R</I>)-<I>N</I>-(1<I>H</I>-benzimidazol-2-ylmethyl)-3-[(2<I>S</I>,3<I>S</I>)-2-hydroxy-3-[(3-hydroxy-2-methylbenzoyl)amino]-4-phenylbutanoyl]-5,5-dimethyl-1,3-thiazolidine-4-carboxamide
> <PUBCHEM_IUPAC_NAME>
(4R)-N-(1H-benzimidazol-2-ylmethyl)-3-[(2S,3S)-2-hydroxy-3-[(3-hydroxy-2-methylbenzoyl)amino]-4-phenylbutanoyl]-5,5-dimethyl-1,3-thiazolidine-4-carboxamide
> <PUBCHEM_IUPAC_SYSTEMATIC_NAME>
(4R)-N-(1H-benzimidazol-2-ylmethyl)-5,5-dimethyl-3-[(2S,3S)-3-[(2-methyl-3-oxidanyl-phenyl)carbonylamino]-2-oxidanyl-4-phenyl-butanoyl]-1,3-thiazolidine-4-carboxamide
> <PUBCHEM_IUPAC_TRADITIONAL_NAME>
(4R)-N-(1H-benzimidazol-2-ylmethyl)-3-[(2S,3S)-2-hydroxy-3-[(3-hydroxy-2-methyl-benzoyl)amino]-4-phenyl-butanoyl]-5,5-dimethyl-thiazolidine-4-carboxamide
> <PUBCHEM_IUPAC_INCHI>
InChI=1S/C32H35N5O5S/c1-19-21(12-9-15-25(19)38)29(40)36-24(16-20-10-5-4-6-11-20)27(39)31(42)37-18-43-32(2,3)28(37)30(41)33-17-26-34-22-13-7-8-14-23(22)35-26/h4-15,24,27-28,38-39H,16-18H2,1-3H3,(H,33,41)(H,34,35)(H,36,40)/t24-,27-,28+/m0/s1
> <PUBCHEM_IUPAC_INCHIKEY>
GRXCVOYQPQOMMK-SAAIGDAKSA-N
> <PUBCHEM_XLOGP3_AA>
3.7
> <PUBCHEM_EXACT_MASS>
601.23589041
> <PUBCHEM_MOLECULAR_FORMULA>
C32H35N5O5S
> <PUBCHEM_MOLECULAR_WEIGHT>
601.7
> <PUBCHEM_OPENEYE_CAN_SMILES>
CC1=C(C=CC=C1O)C(=O)NC(CC2=CC=CC=C2)C(C(=O)N3CSC(C3C(=O)NCC4=NC5=CC=CC=C5N4)(C)C)O
> <PUBCHEM_OPENEYE_ISO_SMILES>
CC1=C(C=CC=C1O)C(=O)N[C@@H](CC2=CC=CC=C2)[C@@H](C(=O)N3CSC([C@H]3C(=O)NCC4=NC5=CC=CC=C5N4)(C)C)O
> <PUBCHEM_CACTVS_TPSA>
173
> <PUBCHEM_MONOISOTOPIC_WEIGHT>
601.23589041
> <PUBCHEM_TOTAL_CHARGE>
0
> <PUBCHEM_HEAVY_ATOM_COUNT>
43
> <PUBCHEM_ATOM_DEF_STEREO_COUNT>
3
> <PUBCHEM_ATOM_UDEF_STEREO_COUNT>
0
> <PUBCHEM_BOND_DEF_STEREO_COUNT>
0
> <PUBCHEM_BOND_UDEF_STEREO_COUNT>
0
> <PUBCHEM_ISOTOPIC_ATOM_COUNT>
0
> <PUBCHEM_COMPONENT_COUNT>
1
> <PUBCHEM_CACTVS_TAUTO_COUNT>
-1
> <PUBCHEM_COORDINATE_TYPE>
1
5
255
> <PUBCHEM_BONDANNOTATIONS>
10  24  8
10  29  8
11  24  8
11  30  8
13  18  5
19  2  6
23  26  8
23  27  8
26  31  8
27  32  8
28  33  8
28  35  8
29  30  8
29  36  8
30  37  8
31  34  8
32  34  8
33  38  8
35  40  8
36  42  8
37  43  8
38  41  8
40  41  8
42  43  8
20  9  6
$$$$
