514593
  -OEChem-10302200282D
 82 85  0     1  0  0  0  0  0999 V2000
    5.8301   -4.8112    0.0000 S   0  0  0  0  0  0  0  0  0  0  0  0
    8.9282    6.2276    0.0000 F   0  0  0  0  0  0  0  0  0  0  0  0
    9.9282    5.2276    0.0000 F   0  0  0  0  0  0  0  0  0  0  0  0
    7.9282    5.2276    0.0000 F   0  0  0  0  0  0  0  0  0  0  0  0
    4.5981   -2.2724    0.0000 O   0  0  0  0  0  0  0  0  0  0  0  0
    8.2981   -2.5730    0.0000 O   0  0  0  0  0  0  0  0  0  0  0  0
    7.1962   -1.7724    0.0000 O   0  0  0  0  0  0  0  0  0  0  0  0
    5.4641    1.2276    0.0000 O   0  0  0  0  0  0  0  0  0  0  0  0
    6.3301   -3.2724    0.0000 N   0  0  0  0  0  0  0  0  0  0  0  0
    8.8334   -4.2202    0.0000 N   0  0  0  0  0  0  0  0  0  0  0  0
    6.3301   -0.2724    0.0000 N   0  0  0  0  0  0  0  0  0  0  0  0
    7.1962    1.2276    0.0000 N   0  0  0  0  0  0  0  0  0  0  0  0
    6.8301   -4.8112    0.0000 C   0  0  0  0  0  0  0  0  0  0  0  0
    7.1391   -3.8601    0.0000 C   0  0  1  0  0  0  0  0  0  0  0  0
    5.5211   -3.8601    0.0000 C   0  0  0  0  0  0  0  0  0  0  0  0
    6.8301   -5.8112    0.0000 C   0  0  0  0  0  0  0  0  0  0  0  0
    7.7812   -5.1202    0.0000 C   0  0  0  0  0  0  0  0  0  0  0  0
    8.0902   -3.5511    0.0000 C   0  0  0  0  0  0  0  0  0  0  0  0
    6.3301   -2.2724    0.0000 C   0  0  0  0  0  0  0  0  0  0  0  0
    5.4641   -1.7724    0.0000 C   0  0  2  0  0  0  0  0  0  0  0  0
    5.4641   -0.7724    0.0000 C   0  0  2  0  0  0  0  0  0  0  0  0
    4.5981   -0.2724    0.0000 C   0  0  0  0  0  0  0  0  0  0  0  0
    9.7844   -3.9112    0.0000 C   0  0  0  0  0  0  0  0  0  0  0  0
    3.7320   -0.7724    0.0000 C   0  0  0  0  0  0  0  0  0  0  0  0
   10.5275   -4.5804    0.0000 C   0  0  0  0  0  0  0  0  0  0  0  0
    6.3301    0.7276    0.0000 C   0  0  0  0  0  0  0  0  0  0  0  0
    3.7320   -1.7724    0.0000 C   0  0  0  0  0  0  0  0  0  0  0  0
    2.8660   -0.2724    0.0000 C   0  0  0  0  0  0  0  0  0  0  0  0
   10.3196   -5.5585    0.0000 C   0  0  0  0  0  0  0  0  0  0  0  0
   11.4786   -4.2714    0.0000 C   0  0  0  0  0  0  0  0  0  0  0  0
    2.8660   -2.2724    0.0000 C   0  0  0  0  0  0  0  0  0  0  0  0
    2.0000   -0.7724    0.0000 C   0  0  0  0  0  0  0  0  0  0  0  0
    7.1962    2.2276    0.0000 C   0  0  0  0  0  0  0  0  0  0  0  0
   11.0628   -6.2276    0.0000 C   0  0  0  0  0  0  0  0  0  0  0  0
    2.0000   -1.7724    0.0000 C   0  0  0  0  0  0  0  0  0  0  0  0
    9.3686   -5.8675    0.0000 C   0  0  0  0  0  0  0  0  0  0  0  0
   12.2217   -4.9405    0.0000 C   0  0  0  0  0  0  0  0  0  0  0  0
   12.0138   -5.9186    0.0000 C   0  0  0  0  0  0  0  0  0  0  0  0
    8.0622    2.7276    0.0000 C   0  0  0  0  0  0  0  0  0  0  0  0
    8.0622    3.7276    0.0000 C   0  0  0  0  0  0  0  0  0  0  0  0
    8.9282    2.2276    0.0000 C   0  0  0  0  0  0  0  0  0  0  0  0
    8.9282    4.2276    0.0000 C   0  0  0  0  0  0  0  0  0  0  0  0
    9.7942    2.7276    0.0000 C   0  0  0  0  0  0  0  0  0  0  0  0
    9.7942    3.7276    0.0000 C   0  0  0  0  0  0  0  0  0  0  0  0
    8.9282    5.2276    0.0000 C   0  0  0  0  0  0  0  0  0  0  0  0
    7.2361   -3.2478    0.0000 H   0  0  0  0  0  0  0  0  0  0  0  0
    5.2111   -3.3232    0.0000 H   0  0  0  0  0  0  0  0  0  0  0  0
    4.9547   -4.1123    0.0000 H   0  0  0  0  0  0  0  0  0  0  0  0
    6.2101   -5.8112    0.0000 H   0  0  0  0  0  0  0  0  0  0  0  0
    6.8301   -6.4312    0.0000 H   0  0  0  0  0  0  0  0  0  0  0  0
    7.4501   -5.8112    0.0000 H   0  0  0  0  0  0  0  0  0  0  0  0
    7.5896   -5.7099    0.0000 H   0  0  0  0  0  0  0  0  0  0  0  0
    8.3708   -5.3118    0.0000 H   0  0  0  0  0  0  0  0  0  0  0  0
    7.9728   -4.5306    0.0000 H   0  0  0  0  0  0  0  0  0  0  0  0
    5.4641   -2.3924    0.0000 H   0  0  0  0  0  0  0  0  0  0  0  0
    5.4641   -0.1524    0.0000 H   0  0  0  0  0  0  0  0  0  0  0  0
    8.7044   -4.8267    0.0000 H   0  0  0  0  0  0  0  0  0  0  0  0
    4.9966    0.2026    0.0000 H   0  0  0  0  0  0  0  0  0  0  0  0
    4.1996    0.2026    0.0000 H   0  0  0  0  0  0  0  0  0  0  0  0
    6.8671   -0.5824    0.0000 H   0  0  0  0  0  0  0  0  0  0  0  0
   10.2730   -3.5295    0.0000 H   0  0  0  0  0  0  0  0  0  0  0  0
    9.4933   -3.3638    0.0000 H   0  0  0  0  0  0  0  0  0  0  0  0
    4.5981   -2.8924    0.0000 H   0  0  0  0  0  0  0  0  0  0  0  0
    4.2690   -2.0824    0.0000 H   0  0  0  0  0  0  0  0  0  0  0  0
    2.8660    0.3476    0.0000 H   0  0  0  0  0  0  0  0  0  0  0  0
   11.6075   -3.6649    0.0000 H   0  0  0  0  0  0  0  0  0  0  0  0
    7.7331    0.9176    0.0000 H   0  0  0  0  0  0  0  0  0  0  0  0
    2.8660   -2.8924    0.0000 H   0  0  0  0  0  0  0  0  0  0  0  0
    1.4631   -0.4624    0.0000 H   0  0  0  0  0  0  0  0  0  0  0  0
    6.9841    2.8102    0.0000 H   0  0  0  0  0  0  0  0  0  0  0  0
    6.5856    2.1200    0.0000 H   0  0  0  0  0  0  0  0  0  0  0  0
   10.9339   -6.8341    0.0000 H   0  0  0  0  0  0  0  0  0  0  0  0
    1.4631   -2.0824    0.0000 H   0  0  0  0  0  0  0  0  0  0  0  0
    9.1770   -5.2779    0.0000 H   0  0  0  0  0  0  0  0  0  0  0  0
    8.7789   -6.0591    0.0000 H   0  0  0  0  0  0  0  0  0  0  0  0
    9.5602   -6.4572    0.0000 H   0  0  0  0  0  0  0  0  0  0  0  0
   12.8114   -4.7489    0.0000 H   0  0  0  0  0  0  0  0  0  0  0  0
   12.4746   -6.3335    0.0000 H   0  0  0  0  0  0  0  0  0  0  0  0
    7.5252    4.0376    0.0000 H   0  0  0  0  0  0  0  0  0  0  0  0
    8.9282    1.6076    0.0000 H   0  0  0  0  0  0  0  0  0  0  0  0
   10.3312    2.4176    0.0000 H   0  0  0  0  0  0  0  0  0  0  0  0
   10.3312    4.0376    0.0000 H   0  0  0  0  0  0  0  0  0  0  0  0
  1 13  1  0  0  0  0
  1 15  1  0  0  0  0
  2 45  1  0  0  0  0
  3 45  1  0  0  0  0
  4 45  1  0  0  0  0
 20  5  1  1  0  0  0
  5 63  1  0  0  0  0
  6 18  2  0  0  0  0
  7 19  2  0  0  0  0
  8 26  2  0  0  0  0
  9 14  1  0  0  0  0
  9 15  1  0  0  0  0
  9 19  1  0  0  0  0
 10 18  1  0  0  0  0
 10 23  1  0  0  0  0
 10 57  1  0  0  0  0
 21 11  1  6  0  0  0
 11 26  1  0  0  0  0
 11 60  1  0  0  0  0
 12 26  1  0  0  0  0
 12 33  1  0  0  0  0
 12 67  1  0  0  0  0
 13 14  1  0  0  0  0
 13 16  1  0  0  0  0
 13 17  1  0  0  0  0
 14 18  1  6  0  0  0
 14 46  1  0  0  0  0
 15 47  1  0  0  0  0
 15 48  1  0  0  0  0
 16 49  1  0  0  0  0
 16 50  1  0  0  0  0
 16 51  1  0  0  0  0
 17 52  1  0  0  0  0
 17 53  1  0  0  0  0
 17 54  1  0  0  0  0
 19 20  1  0  0  0  0
 20 21  1  0  0  0  0
 20 55  1  0  0  0  0
 21 22  1  0  0  0  0
 21 56  1  0  0  0  0
 22 24  1  0  0  0  0
 22 58  1  0  0  0  0
 22 59  1  0  0  0  0
 23 25  1  0  0  0  0
 23 61  1  0  0  0  0
 23 62  1  0  0  0  0
 24 27  2  0  0  0  0
 24 28  1  0  0  0  0
 25 29  1  0  0  0  0
 25 30  2  0  0  0  0
 27 31  1  0  0  0  0
 27 64  1  0  0  0  0
 28 32  2  0  0  0  0
 28 65  1  0  0  0  0
 29 34  2  0  0  0  0
 29 36  1  0  0  0  0
 30 37  1  0  0  0  0
 30 66  1  0  0  0  0
 31 35  2  0  0  0  0
 31 68  1  0  0  0  0
 32 35  1  0  0  0  0
 32 69  1  0  0  0  0
 33 39  1  0  0  0  0
 33 70  1  0  0  0  0
 33 71  1  0  0  0  0
 34 38  1  0  0  0  0
 34 72  1  0  0  0  0
 35 73  1  0  0  0  0
 36 74  1  0  0  0  0
 36 75  1  0  0  0  0
 36 76  1  0  0  0  0
 37 38  2  0  0  0  0
 37 77  1  0  0  0  0
 38 78  1  0  0  0  0
 39 40  2  0  0  0  0
 39 41  1  0  0  0  0
 40 42  1  0  0  0  0
 40 79  1  0  0  0  0
 41 43  2  0  0  0  0
 41 80  1  0  0  0  0
 42 44  2  0  0  0  0
 42 45  1  0  0  0  0
 43 44  1  0  0  0  0
 43 81  1  0  0  0  0
 44 82  1  0  0  0  0
M  END
> <PUBCHEM_COMPOUND_CID>
514593
> <PUBCHEM_COMPOUND_CANONICALIZED>
1
> <PUBCHEM_CACTVS_COMPLEXITY>
1010
> <PUBCHEM_CACTVS_HBOND_ACCEPTOR>
8
> <PUBCHEM_CACTVS_HBOND_DONOR>
4
> <PUBCHEM_CACTVS_ROTATABLE_BOND>
10
> <PUBCHEM_CACTVS_SUBSKEYS>
AAADcfB/uYBAAAAAAAAAAAAAAAAAAWAAAAAwYMAAAAAAAAABUAAAHwQQCAAADDzh2BazAIPAAgiIAiFSEAKCAABgABAIiIHIBIiKcDqg0TGUYAhslgKYiAeYyOCOgAACAAAQAAAAAAQAACAAAAAAAAAAAA==
> <PUBCHEM_IUPAC_OPENEYE_NAME>
(4R)-3-[(2S,3S)-2-hydroxy-4-phenyl-3-[[3-(trifluoromethyl)phenyl]methylcarbamoylamino]butanoyl]-5,5-dimethyl-N-(o-tolylmethyl)thiazolidine-4-carboxamide
> <PUBCHEM_IUPAC_CAS_NAME>
(4R)-3-[(2S,3S)-2-hydroxy-1-oxo-3-[[oxo-[[3-(trifluoromethyl)phenyl]methylamino]methyl]amino]-4-phenylbutyl]-5,5-dimethyl-N-[(2-methylphenyl)methyl]-4-thiazolidinecarboxamide
> <PUBCHEM_IUPAC_NAME_MARKUP>
(4<I>R</I>)-3-[(2<I>S</I>,3<I>S</I>)-2-hydroxy-4-phenyl-3-[[3-(trifluoromethyl)phenyl]methylcarbamoylamino]butanoyl]-5,5-dimethyl-<I>N</I>-[(2-methylphenyl)methyl]-1,3-thiazolidine-4-carboxamide
> <PUBCHEM_IUPAC_NAME>
(4R)-3-[(2S,3S)-2-hydroxy-4-phenyl-3-[[3-(trifluoromethyl)phenyl]methylcarbamoylamino]butanoyl]-5,5-dimethyl-N-[(2-methylphenyl)methyl]-1,3-thiazolidine-4-carboxamide
> <PUBCHEM_IUPAC_SYSTEMATIC_NAME>
(4R)-5,5-dimethyl-N-[(2-methylphenyl)methyl]-3-[(2S,3S)-2-oxidanyl-4-phenyl-3-[[3-(trifluoromethyl)phenyl]methylcarbamoylamino]butanoyl]-1,3-thiazolidine-4-carboxamide
> <PUBCHEM_IUPAC_TRADITIONAL_NAME>
(4R)-3-[(2S,3S)-2-hydroxy-4-phenyl-3-[[3-(trifluoromethyl)benzyl]carbamoylamino]butanoyl]-5,5-dimethyl-N-(2-methylbenzyl)thiazolidine-4-carboxamide
> <PUBCHEM_IUPAC_INCHI>
InChI=1S/C33H37F3N4O4S/c1-21-10-7-8-14-24(21)19-37-29(42)28-32(2,3)45-20-40(28)30(43)27(41)26(17-22-11-5-4-6-12-22)39-31(44)38-18-23-13-9-15-25(16-23)33(34,35)36/h4-16,26-28,41H,17-20H2,1-3H3,(H,37,42)(H2,38,39,44)/t26-,27-,28+/m0/s1
> <PUBCHEM_IUPAC_INCHIKEY>
ZCJTZZMIZAWQAE-HZFUHODCSA-N
> <PUBCHEM_XLOGP3_AA>
5
> <PUBCHEM_EXACT_MASS>
642.24876133
> <PUBCHEM_MOLECULAR_FORMULA>
C33H37F3N4O4S
> <PUBCHEM_MOLECULAR_WEIGHT>
642.7
> <PUBCHEM_OPENEYE_CAN_SMILES>
CC1=CC=CC=C1CNC(=O)C2C(SCN2C(=O)C(C(CC3=CC=CC=C3)NC(=O)NCC4=CC(=CC=C4)C(F)(F)F)O)(C)C
> <PUBCHEM_OPENEYE_ISO_SMILES>
CC1=CC=CC=C1CNC(=O)[C@@H]2C(SCN2C(=O)[C@H]([C@H](CC3=CC=CC=C3)NC(=O)NCC4=CC(=CC=C4)C(F)(F)F)O)(C)C
> <PUBCHEM_CACTVS_TPSA>
136
> <PUBCHEM_MONOISOTOPIC_WEIGHT>
642.24876133
> <PUBCHEM_TOTAL_CHARGE>
0
> <PUBCHEM_HEAVY_ATOM_COUNT>
45
> <PUBCHEM_ATOM_DEF_STEREO_COUNT>
3
> <PUBCHEM_ATOM_UDEF_STEREO_COUNT>
0
> <PUBCHEM_BOND_DEF_STEREO_COUNT>
0
> <PUBCHEM_BOND_UDEF_STEREO_COUNT>
0
> <PUBCHEM_ISOTOPIC_ATOM_COUNT>
0
> <PUBCHEM_COMPONENT_COUNT>
1
> <PUBCHEM_CACTVS_TAUTO_COUNT>
-1
> <PUBCHEM_COORDINATE_TYPE>
1
5
255
> <PUBCHEM_BONDANNOTATIONS>
21  11  6
14  18  6
24  27  8
24  28  8
25  29  8
25  30  8
27  31  8
28  32  8
29  34  8
30  37  8
31  35  8
32  35  8
34  38  8
37  38  8
39  40  8
39  41  8
40  42  8
41  43  8
42  44  8
43  44  8
20  5  5
$$$$
