514511
  -OEChem-10302200282D
 81 85  0     1  0  0  0  0  0999 V2000
    9.4781    0.6148    0.0000 S   0  0  0  0  0  0  0  0  0  0  0  0
    7.2508   -1.1182    0.0000 O   0  0  0  0  0  0  0  0  0  0  0  0
    8.2756    3.4295    0.0000 O   0  0  0  0  0  0  0  0  0  0  0  0
    6.2216    1.3191    0.0000 O   0  0  0  0  0  0  0  0  0  0  0  0
    4.6920    2.6248    0.0000 O   0  0  0  0  0  0  0  0  0  0  0  0
    6.9418   -2.0693    0.0000 O   0  0  0  0  0  0  0  0  0  0  0  0
    3.3894   -4.5951    0.0000 O   0  0  0  0  0  0  0  0  0  0  0  0
    7.8689    0.7839    0.0000 N   0  0  0  0  0  0  0  0  0  0  0  0
    6.7756    2.5635    0.0000 N   0  0  0  0  0  0  0  0  0  0  0  0
    5.2946   -1.5340    0.0000 N   0  0  0  0  0  0  0  0  0  0  0  0
    9.2701    1.5929    0.0000 C   0  0  0  0  0  0  0  0  0  0  0  0
    8.2756    1.6975    0.0000 C   0  0  1  0  0  0  0  0  0  0  0  0
    8.6120    0.1148    0.0000 C   0  0  0  0  0  0  0  0  0  0  0  0
   10.2483    1.8008    0.0000 C   0  0  0  0  0  0  0  0  0  0  0  0
    9.3747    2.5874    0.0000 C   0  0  0  0  0  0  0  0  0  0  0  0
    7.7756    2.5635    0.0000 C   0  0  0  0  0  0  0  0  0  0  0  0
    6.8907    0.5760    0.0000 C   0  0  0  0  0  0  0  0  0  0  0  0
    6.5817   -0.3751    0.0000 C   0  0  2  0  0  0  0  0  0  0  0  0
    5.6036   -0.5830    0.0000 C   0  0  2  0  0  0  0  0  0  0  0  0
    4.9344    0.1602    0.0000 C   0  0  0  0  0  0  0  0  0  0  0  0
    6.2756    3.4295    0.0000 C   0  0  0  0  0  0  0  0  0  0  0  0
    3.9563   -0.0477    0.0000 C   0  0  0  0  0  0  0  0  0  0  0  0
    5.2756    3.4295    0.0000 C   0  0  0  0  0  0  0  0  0  0  0  0
    5.9637   -2.2772    0.0000 C   0  0  0  0  0  0  0  0  0  0  0  0
    4.6920    4.2342    0.0000 C   0  0  0  0  0  0  0  0  0  0  0  0
    3.6473   -0.9988    0.0000 C   0  0  0  0  0  0  0  0  0  0  0  0
    3.2872    0.6954    0.0000 C   0  0  0  0  0  0  0  0  0  0  0  0
    3.7458    3.9295    0.0000 C   0  0  0  0  0  0  0  0  0  0  0  0
    5.6547   -3.2282    0.0000 C   0  0  0  0  0  0  0  0  0  0  0  0
    3.7458    2.9295    0.0000 C   0  0  0  0  0  0  0  0  0  0  0  0
    5.0027    5.1848    0.0000 C   0  0  0  0  0  0  0  0  0  0  0  0
    2.6691   -1.2067    0.0000 C   0  0  0  0  0  0  0  0  0  0  0  0
    2.3090    0.4875    0.0000 C   0  0  0  0  0  0  0  0  0  0  0  0
    4.6765   -3.4361    0.0000 C   0  0  0  0  0  0  0  0  0  0  0  0
    2.8798    4.4295    0.0000 C   0  0  0  0  0  0  0  0  0  0  0  0
    2.0000   -0.4636    0.0000 C   0  0  0  0  0  0  0  0  0  0  0  0
    2.8798    2.4295    0.0000 C   0  0  0  0  0  0  0  0  0  0  0  0
    6.3238   -3.9714    0.0000 C   0  0  0  0  0  0  0  0  0  0  0  0
    2.0137    3.9295    0.0000 C   0  0  0  0  0  0  0  0  0  0  0  0
    2.0137    2.9295    0.0000 C   0  0  0  0  0  0  0  0  0  0  0  0
    4.3675   -4.3872    0.0000 C   0  0  0  0  0  0  0  0  0  0  0  0
    4.0074   -2.6930    0.0000 C   0  0  0  0  0  0  0  0  0  0  0  0
    6.0148   -4.9224    0.0000 C   0  0  0  0  0  0  0  0  0  0  0  0
    5.0366   -5.1303    0.0000 C   0  0  0  0  0  0  0  0  0  0  0  0
    7.6565    1.6650    0.0000 H   0  0  0  0  0  0  0  0  0  0  0  0
    8.1513   -0.3001    0.0000 H   0  0  0  0  0  0  0  0  0  0  0  0
    8.9765   -0.3868    0.0000 H   0  0  0  0  0  0  0  0  0  0  0  0
   10.3772    1.1944    0.0000 H   0  0  0  0  0  0  0  0  0  0  0  0
   10.8547    1.9298    0.0000 H   0  0  0  0  0  0  0  0  0  0  0  0
   10.1194    2.4073    0.0000 H   0  0  0  0  0  0  0  0  0  0  0  0
    9.9913    2.5226    0.0000 H   0  0  0  0  0  0  0  0  0  0  0  0
    9.4395    3.2040    0.0000 H   0  0  0  0  0  0  0  0  0  0  0  0
    8.7581    2.6523    0.0000 H   0  0  0  0  0  0  0  0  0  0  0  0
    6.3901   -0.9647    0.0000 H   0  0  0  0  0  0  0  0  0  0  0  0
    4.9971   -0.7119    0.0000 H   0  0  0  0  0  0  0  0  0  0  0  0
    6.4656    2.0266    0.0000 H   0  0  0  0  0  0  0  0  0  0  0  0
    5.4602    0.4887    0.0000 H   0  0  0  0  0  0  0  0  0  0  0  0
    4.7022    0.7350    0.0000 H   0  0  0  0  0  0  0  0  0  0  0  0
    6.8582    3.6416    0.0000 H   0  0  0  0  0  0  0  0  0  0  0  0
    6.1680    4.0401    0.0000 H   0  0  0  0  0  0  0  0  0  0  0  0
    4.6881   -1.6629    0.0000 H   0  0  0  0  0  0  0  0  0  0  0  0
    7.8573   -0.9893    0.0000 H   0  0  0  0  0  0  0  0  0  0  0  0
    4.0621   -1.4595    0.0000 H   0  0  0  0  0  0  0  0  0  0  0  0
    3.4788    1.2851    0.0000 H   0  0  0  0  0  0  0  0  0  0  0  0
    5.5920    4.9922    0.0000 H   0  0  0  0  0  0  0  0  0  0  0  0
    5.1953    5.7741    0.0000 H   0  0  0  0  0  0  0  0  0  0  0  0
    4.4134    5.3774    0.0000 H   0  0  0  0  0  0  0  0  0  0  0  0
    2.4775   -1.7964    0.0000 H   0  0  0  0  0  0  0  0  0  0  0  0
    1.8942    0.9482    0.0000 H   0  0  0  0  0  0  0  0  0  0  0  0
    2.8798    5.0495    0.0000 H   0  0  0  0  0  0  0  0  0  0  0  0
    1.3936   -0.5925    0.0000 H   0  0  0  0  0  0  0  0  0  0  0  0
    2.8798    1.8095    0.0000 H   0  0  0  0  0  0  0  0  0  0  0  0
    6.9302   -3.8425    0.0000 H   0  0  0  0  0  0  0  0  0  0  0  0
    1.4768    4.2395    0.0000 H   0  0  0  0  0  0  0  0  0  0  0  0
    1.4768    2.6195    0.0000 H   0  0  0  0  0  0  0  0  0  0  0  0
    4.4681   -2.2781    0.0000 H   0  0  0  0  0  0  0  0  0  0  0  0
    3.5925   -2.2322    0.0000 H   0  0  0  0  0  0  0  0  0  0  0  0
    3.5466   -3.1078    0.0000 H   0  0  0  0  0  0  0  0  0  0  0  0
    6.4296   -5.3832    0.0000 H   0  0  0  0  0  0  0  0  0  0  0  0
    4.8450   -5.7200    0.0000 H   0  0  0  0  0  0  0  0  0  0  0  0
    3.1978   -5.1848    0.0000 H   0  0  0  0  0  0  0  0  0  0  0  0
  1 11  1  0  0  0  0
  1 13  1  0  0  0  0
 18  2  1  1  0  0  0
  2 62  1  0  0  0  0
  3 16  2  0  0  0  0
  4 17  2  0  0  0  0
  5 23  1  0  0  0  0
  5 30  1  0  0  0  0
  6 24  2  0  0  0  0
  7 41  1  0  0  0  0
  7 81  1  0  0  0  0
  8 12  1  0  0  0  0
  8 13  1  0  0  0  0
  8 17  1  0  0  0  0
  9 16  1  0  0  0  0
  9 21  1  0  0  0  0
  9 56  1  0  0  0  0
 19 10  1  1  0  0  0
 10 24  1  0  0  0  0
 10 61  1  0  0  0  0
 11 12  1  0  0  0  0
 11 14  1  0  0  0  0
 11 15  1  0  0  0  0
 12 16  1  6  0  0  0
 12 45  1  0  0  0  0
 13 46  1  0  0  0  0
 13 47  1  0  0  0  0
 14 48  1  0  0  0  0
 14 49  1  0  0  0  0
 14 50  1  0  0  0  0
 15 51  1  0  0  0  0
 15 52  1  0  0  0  0
 15 53  1  0  0  0  0
 17 18  1  0  0  0  0
 18 19  1  0  0  0  0
 18 54  1  0  0  0  0
 19 20  1  0  0  0  0
 19 55  1  0  0  0  0
 20 22  1  0  0  0  0
 20 57  1  0  0  0  0
 20 58  1  0  0  0  0
 21 23  1  0  0  0  0
 21 59  1  0  0  0  0
 21 60  1  0  0  0  0
 22 26  2  0  0  0  0
 22 27  1  0  0  0  0
 23 25  2  0  0  0  0
 24 29  1  0  0  0  0
 25 28  1  0  0  0  0
 25 31  1  0  0  0  0
 26 32  1  0  0  0  0
 26 63  1  0  0  0  0
 27 33  2  0  0  0  0
 27 64  1  0  0  0  0
 28 30  1  0  0  0  0
 28 35  2  0  0  0  0
 29 34  2  0  0  0  0
 29 38  1  0  0  0  0
 30 37  2  0  0  0  0
 31 65  1  0  0  0  0
 31 66  1  0  0  0  0
 31 67  1  0  0  0  0
 32 36  2  0  0  0  0
 32 68  1  0  0  0  0
 33 36  1  0  0  0  0
 33 69  1  0  0  0  0
 34 41  1  0  0  0  0
 34 42  1  0  0  0  0
 35 39  1  0  0  0  0
 35 70  1  0  0  0  0
 36 71  1  0  0  0  0
 37 40  1  0  0  0  0
 37 72  1  0  0  0  0
 38 43  2  0  0  0  0
 38 73  1  0  0  0  0
 39 40  2  0  0  0  0
 39 74  1  0  0  0  0
 40 75  1  0  0  0  0
 41 44  2  0  0  0  0
 42 76  1  0  0  0  0
 42 77  1  0  0  0  0
 42 78  1  0  0  0  0
 43 44  1  0  0  0  0
 43 79  1  0  0  0  0
 44 80  1  0  0  0  0
M  END
> <PUBCHEM_COMPOUND_CID>
514511
> <PUBCHEM_COMPOUND_CANONICALIZED>
1
> <PUBCHEM_CACTVS_COMPLEXITY>
1020
> <PUBCHEM_CACTVS_HBOND_ACCEPTOR>
7
> <PUBCHEM_CACTVS_HBOND_DONOR>
4
> <PUBCHEM_CACTVS_ROTATABLE_BOND>
9
> <PUBCHEM_CACTVS_SUBSKEYS>
AAADcfB/OABAAAAAAAAAAAAAAAAAAWJAAAAwYMAAAAAAAEgB9AAAHgQQCAAADDzh2AayBsPABkiIAqFSEAKCCABkIBAIiIHODMgOdjqm9TuXeSjk1hGYuYe62fKOgAABAAAYAAAAAAIAADAAAAAAAAAAAA==
> <PUBCHEM_IUPAC_OPENEYE_NAME>
(4R)-3-[(2S,3S)-2-hydroxy-3-[(3-hydroxy-2-methyl-benzoyl)amino]-4-phenyl-butanoyl]-5,5-dimethyl-N-[(3-methylbenzofuran-2-yl)methyl]thiazolidine-4-carboxamide
> <PUBCHEM_IUPAC_CAS_NAME>
(4R)-3-[(2S,3S)-2-hydroxy-3-[[(3-hydroxy-2-methylphenyl)-oxomethyl]amino]-1-oxo-4-phenylbutyl]-5,5-dimethyl-N-[(3-methyl-2-benzofuranyl)methyl]-4-thiazolidinecarboxamide
> <PUBCHEM_IUPAC_NAME_MARKUP>
(4<I>R</I>)-3-[(2<I>S</I>,3<I>S</I>)-2-hydroxy-3-[(3-hydroxy-2-methylbenzoyl)amino]-4-phenylbutanoyl]-5,5-dimethyl-<I>N</I>-[(3-methyl-1-benzofuran-2-yl)methyl]-1,3-thiazolidine-4-carboxamide
> <PUBCHEM_IUPAC_NAME>
(4R)-3-[(2S,3S)-2-hydroxy-3-[(3-hydroxy-2-methylbenzoyl)amino]-4-phenylbutanoyl]-5,5-dimethyl-N-[(3-methyl-1-benzofuran-2-yl)methyl]-1,3-thiazolidine-4-carboxamide
> <PUBCHEM_IUPAC_SYSTEMATIC_NAME>
(4R)-5,5-dimethyl-N-[(3-methyl-1-benzofuran-2-yl)methyl]-3-[(2S,3S)-3-[(2-methyl-3-oxidanyl-phenyl)carbonylamino]-2-oxidanyl-4-phenyl-butanoyl]-1,3-thiazolidine-4-carboxamide
> <PUBCHEM_IUPAC_TRADITIONAL_NAME>
(4R)-3-[(2S,3S)-2-hydroxy-3-[(3-hydroxy-2-methyl-benzoyl)amino]-4-phenyl-butanoyl]-5,5-dimethyl-N-[(3-methylbenzofuran-2-yl)methyl]thiazolidine-4-carboxamide
> <PUBCHEM_IUPAC_INCHI>
InChI=1S/C34H37N3O6S/c1-20-24(14-10-15-26(20)38)31(40)36-25(17-22-11-6-5-7-12-22)29(39)33(42)37-19-44-34(3,4)30(37)32(41)35-18-28-21(2)23-13-8-9-16-27(23)43-28/h5-16,25,29-30,38-39H,17-19H2,1-4H3,(H,35,41)(H,36,40)/t25-,29-,30+/m0/s1
> <PUBCHEM_IUPAC_INCHIKEY>
RYFPDZUUQSCKTP-JPHFWNGBSA-N
> <PUBCHEM_XLOGP3_AA>
4.9
> <PUBCHEM_EXACT_MASS>
615.24030708
> <PUBCHEM_MOLECULAR_FORMULA>
C34H37N3O6S
> <PUBCHEM_MOLECULAR_WEIGHT>
615.7
> <PUBCHEM_OPENEYE_CAN_SMILES>
CC1=C(C=CC=C1O)C(=O)NC(CC2=CC=CC=C2)C(C(=O)N3CSC(C3C(=O)NCC4=C(C5=CC=CC=C5O4)C)(C)C)O
> <PUBCHEM_OPENEYE_ISO_SMILES>
CC1=C(C=CC=C1O)C(=O)N[C@@H](CC2=CC=CC=C2)[C@@H](C(=O)N3CSC([C@H]3C(=O)NCC4=C(C5=CC=CC=C5O4)C)(C)C)O
> <PUBCHEM_CACTVS_TPSA>
157
> <PUBCHEM_MONOISOTOPIC_WEIGHT>
615.24030708
> <PUBCHEM_TOTAL_CHARGE>
0
> <PUBCHEM_HEAVY_ATOM_COUNT>
44
> <PUBCHEM_ATOM_DEF_STEREO_COUNT>
3
> <PUBCHEM_ATOM_UDEF_STEREO_COUNT>
0
> <PUBCHEM_BOND_DEF_STEREO_COUNT>
0
> <PUBCHEM_BOND_UDEF_STEREO_COUNT>
0
> <PUBCHEM_ISOTOPIC_ATOM_COUNT>
0
> <PUBCHEM_COMPONENT_COUNT>
1
> <PUBCHEM_CACTVS_TAUTO_COUNT>
-1
> <PUBCHEM_COORDINATE_TYPE>
1
5
255
> <PUBCHEM_BONDANNOTATIONS>
19  10  5
12  16  6
18  2  5
22  26  8
22  27  8
23  25  8
25  28  8
26  32  8
27  33  8
28  30  8
28  35  8
29  34  8
29  38  8
30  37  8
32  36  8
33  36  8
34  41  8
35  39  8
37  40  8
38  43  8
39  40  8
41  44  8
43  44  8
5  23  8
5  30  8
$$$$
