514547
  -OEChem-10302200282D
 78 81  0     1  0  0  0  0  0999 V2000
    9.1448    2.9524    0.0000 S   0  0  0  0  0  0  0  0  0  0  0  0
    8.4405   -0.3040    0.0000 O   0  0  0  0  0  0  0  0  0  0  0  0
    7.1962    0.2500    0.0000 O   0  0  0  0  0  0  0  0  0  0  0  0
    6.3301    2.7500    0.0000 O   0  0  0  0  0  0  0  0  0  0  0  0
    3.7320    0.2500    0.0000 O   0  0  0  0  0  0  0  0  0  0  0  0
    3.7320   -1.7500    0.0000 O   0  0  0  0  0  0  0  0  0  0  0  0
   10.1347    0.0561    0.0000 N   0  0  0  0  0  0  0  0  0  0  0  0
    8.0622    1.7500    0.0000 N   0  0  0  0  0  0  0  0  0  0  0  0
    5.4641    0.2500    0.0000 N   0  0  0  0  0  0  0  0  0  0  0  0
   11.2937   -1.2311    0.0000 C   0  0  0  0  0  0  0  0  0  0  0  0
   11.9628   -1.9742    0.0000 C   0  0  0  0  0  0  0  0  0  0  0  0
   12.2718   -1.0232    0.0000 C   0  0  0  0  0  0  0  0  0  0  0  0
   10.3426   -0.9220    0.0000 C   0  0  0  0  0  0  0  0  0  0  0  0
    8.9757    1.3433    0.0000 C   0  0  1  0  0  0  0  0  0  0  0  0
    9.6448    2.0864    0.0000 C   0  0  0  0  0  0  0  0  0  0  0  0
    9.1836    0.3651    0.0000 C   0  0  0  0  0  0  0  0  0  0  0  0
    8.1667    2.7445    0.0000 C   0  0  0  0  0  0  0  0  0  0  0  0
   10.5109    2.5864    0.0000 C   0  0  0  0  0  0  0  0  0  0  0  0
   10.3880    1.4173    0.0000 C   0  0  0  0  0  0  0  0  0  0  0  0
    7.1962    1.2500    0.0000 C   0  0  0  0  0  0  0  0  0  0  0  0
    6.3301    1.7500    0.0000 C   0  0  2  0  0  0  0  0  0  0  0  0
    5.4641    1.2500    0.0000 C   0  0  2  0  0  0  0  0  0  0  0  0
    4.5981    1.7500    0.0000 C   0  0  0  0  0  0  0  0  0  0  0  0
    4.5981    2.7500    0.0000 C   0  0  0  0  0  0  0  0  0  0  0  0
    4.5981   -0.2500    0.0000 C   0  0  0  0  0  0  0  0  0  0  0  0
    3.7320    3.2500    0.0000 C   0  0  0  0  0  0  0  0  0  0  0  0
    5.4641    3.2500    0.0000 C   0  0  0  0  0  0  0  0  0  0  0  0
    4.5981   -1.2500    0.0000 C   0  0  0  0  0  0  0  0  0  0  0  0
    3.7320    4.2500    0.0000 C   0  0  0  0  0  0  0  0  0  0  0  0
    5.4641    4.2500    0.0000 C   0  0  0  0  0  0  0  0  0  0  0  0
    4.5981    4.7500    0.0000 C   0  0  0  0  0  0  0  0  0  0  0  0
    3.7320   -2.7500    0.0000 C   0  0  0  0  0  0  0  0  0  0  0  0
    4.5981   -3.2500    0.0000 C   0  0  0  0  0  0  0  0  0  0  0  0
    2.8660   -3.2500    0.0000 C   0  0  0  0  0  0  0  0  0  0  0  0
    4.5981   -4.2500    0.0000 C   0  0  0  0  0  0  0  0  0  0  0  0
    2.8660   -4.2500    0.0000 C   0  0  0  0  0  0  0  0  0  0  0  0
    5.4641   -2.7500    0.0000 C   0  0  0  0  0  0  0  0  0  0  0  0
    2.0000   -2.7500    0.0000 C   0  0  0  0  0  0  0  0  0  0  0  0
    3.7320   -4.7500    0.0000 C   0  0  0  0  0  0  0  0  0  0  0  0
   11.3261   -0.6119    0.0000 H   0  0  0  0  0  0  0  0  0  0  0  0
   11.5811   -2.4628    0.0000 H   0  0  0  0  0  0  0  0  0  0  0  0
   12.5102   -2.2653    0.0000 H   0  0  0  0  0  0  0  0  0  0  0  0
   12.8858   -1.1094    0.0000 H   0  0  0  0  0  0  0  0  0  0  0  0
   12.2502   -0.4035    0.0000 H   0  0  0  0  0  0  0  0  0  0  0  0
    9.7230   -0.9437    0.0000 H   0  0  0  0  0  0  0  0  0  0  0  0
   10.2563   -1.5360    0.0000 H   0  0  0  0  0  0  0  0  0  0  0  0
    8.4939    0.9531    0.0000 H   0  0  0  0  0  0  0  0  0  0  0  0
   10.5954    0.4710    0.0000 H   0  0  0  0  0  0  0  0  0  0  0  0
    8.1019    3.3611    0.0000 H   0  0  0  0  0  0  0  0  0  0  0  0
    7.5467    2.7445    0.0000 H   0  0  0  0  0  0  0  0  0  0  0  0
   10.8209    2.0495    0.0000 H   0  0  0  0  0  0  0  0  0  0  0  0
   11.0478    2.8964    0.0000 H   0  0  0  0  0  0  0  0  0  0  0  0
   10.2009    3.1233    0.0000 H   0  0  0  0  0  0  0  0  0  0  0  0
    9.9731    0.9565    0.0000 H   0  0  0  0  0  0  0  0  0  0  0  0
   10.8487    1.0024    0.0000 H   0  0  0  0  0  0  0  0  0  0  0  0
   10.8029    1.8780    0.0000 H   0  0  0  0  0  0  0  0  0  0  0  0
    6.8671    2.0600    0.0000 H   0  0  0  0  0  0  0  0  0  0  0  0
    6.0010    0.9400    0.0000 H   0  0  0  0  0  0  0  0  0  0  0  0
    3.9875    1.8577    0.0000 H   0  0  0  0  0  0  0  0  0  0  0  0
    4.3860    1.1674    0.0000 H   0  0  0  0  0  0  0  0  0  0  0  0
    6.0010   -0.0600    0.0000 H   0  0  0  0  0  0  0  0  0  0  0  0
    6.8671    3.0600    0.0000 H   0  0  0  0  0  0  0  0  0  0  0  0
    3.1951    2.9400    0.0000 H   0  0  0  0  0  0  0  0  0  0  0  0
    6.0010    2.9400    0.0000 H   0  0  0  0  0  0  0  0  0  0  0  0
    4.8101   -1.8326    0.0000 H   0  0  0  0  0  0  0  0  0  0  0  0
    5.2087   -1.1423    0.0000 H   0  0  0  0  0  0  0  0  0  0  0  0
    3.1951    4.5600    0.0000 H   0  0  0  0  0  0  0  0  0  0  0  0
    6.0010    4.5600    0.0000 H   0  0  0  0  0  0  0  0  0  0  0  0
    4.5981    5.3700    0.0000 H   0  0  0  0  0  0  0  0  0  0  0  0
    5.1350   -4.5600    0.0000 H   0  0  0  0  0  0  0  0  0  0  0  0
    2.3291   -4.5600    0.0000 H   0  0  0  0  0  0  0  0  0  0  0  0
    5.7741   -3.2869    0.0000 H   0  0  0  0  0  0  0  0  0  0  0  0
    6.0010   -2.4400    0.0000 H   0  0  0  0  0  0  0  0  0  0  0  0
    5.1541   -2.2131    0.0000 H   0  0  0  0  0  0  0  0  0  0  0  0
    2.3100   -2.2131    0.0000 H   0  0  0  0  0  0  0  0  0  0  0  0
    1.4631   -2.4400    0.0000 H   0  0  0  0  0  0  0  0  0  0  0  0
    1.6900   -3.2869    0.0000 H   0  0  0  0  0  0  0  0  0  0  0  0
    3.7320   -5.3700    0.0000 H   0  0  0  0  0  0  0  0  0  0  0  0
  1 15  1  0  0  0  0
  1 17  1  0  0  0  0
  2 16  2  0  0  0  0
  3 20  2  0  0  0  0
 21  4  1  6  0  0  0
  4 62  1  0  0  0  0
  5 25  2  0  0  0  0
  6 28  1  0  0  0  0
  6 32  1  0  0  0  0
  7 13  1  0  0  0  0
  7 16  1  0  0  0  0
  7 48  1  0  0  0  0
  8 14  1  0  0  0  0
  8 17  1  0  0  0  0
  8 20  1  0  0  0  0
 22  9  1  1  0  0  0
  9 25  1  0  0  0  0
  9 61  1  0  0  0  0
 10 11  1  0  0  0  0
 10 12  1  0  0  0  0
 10 13  1  0  0  0  0
 10 40  1  0  0  0  0
 11 12  1  0  0  0  0
 11 41  1  0  0  0  0
 11 42  1  0  0  0  0
 12 43  1  0  0  0  0
 12 44  1  0  0  0  0
 13 45  1  0  0  0  0
 13 46  1  0  0  0  0
 14 15  1  0  0  0  0
 14 16  1  1  0  0  0
 14 47  1  0  0  0  0
 15 18  1  0  0  0  0
 15 19  1  0  0  0  0
 17 49  1  0  0  0  0
 17 50  1  0  0  0  0
 18 51  1  0  0  0  0
 18 52  1  0  0  0  0
 18 53  1  0  0  0  0
 19 54  1  0  0  0  0
 19 55  1  0  0  0  0
 19 56  1  0  0  0  0
 20 21  1  0  0  0  0
 21 22  1  0  0  0  0
 21 57  1  0  0  0  0
 22 23  1  0  0  0  0
 22 58  1  0  0  0  0
 23 24  1  0  0  0  0
 23 59  1  0  0  0  0
 23 60  1  0  0  0  0
 24 26  2  0  0  0  0
 24 27  1  0  0  0  0
 25 28  1  0  0  0  0
 26 29  1  0  0  0  0
 26 63  1  0  0  0  0
 27 30  2  0  0  0  0
 27 64  1  0  0  0  0
 28 65  1  0  0  0  0
 28 66  1  0  0  0  0
 29 31  2  0  0  0  0
 29 67  1  0  0  0  0
 30 31  1  0  0  0  0
 30 68  1  0  0  0  0
 31 69  1  0  0  0  0
 32 33  2  0  0  0  0
 32 34  1  0  0  0  0
 33 35  1  0  0  0  0
 33 37  1  0  0  0  0
 34 36  2  0  0  0  0
 34 38  1  0  0  0  0
 35 39  2  0  0  0  0
 35 70  1  0  0  0  0
 36 39  1  0  0  0  0
 36 71  1  0  0  0  0
 37 72  1  0  0  0  0
 37 73  1  0  0  0  0
 37 74  1  0  0  0  0
 38 75  1  0  0  0  0
 38 76  1  0  0  0  0
 38 77  1  0  0  0  0
 39 78  1  0  0  0  0
M  END
> <PUBCHEM_COMPOUND_CID>
514547
> <PUBCHEM_COMPOUND_CANONICALIZED>
1
> <PUBCHEM_CACTVS_COMPLEXITY>
850
> <PUBCHEM_CACTVS_HBOND_ACCEPTOR>
6
> <PUBCHEM_CACTVS_HBOND_DONOR>
3
> <PUBCHEM_CACTVS_ROTATABLE_BOND>
11
> <PUBCHEM_CACTVS_SUBSKEYS>
AAADcfB7OABAAAAAAAAAAAAAGAAAAWAAAAAwYAAAAAAAAAABQAAAHgQQCAAADTzh2AayBoPABgiIAiFSEAICCABgIBAIiIHMCIgOdjqk8T+XeCCk1hGYqAeYyOCOAAACAAAIAAAAAAQAABAAAAAAAAAAAA==
> <PUBCHEM_IUPAC_OPENEYE_NAME>
(4R)-N-(cyclopropylmethyl)-3-[(2S,3S)-3-[[2-(2,6-dimethylphenoxy)acetyl]amino]-2-hydroxy-4-phenyl-butanoyl]-5,5-dimethyl-thiazolidine-4-carboxamide
> <PUBCHEM_IUPAC_CAS_NAME>
(4R)-N-(cyclopropylmethyl)-3-[(2S,3S)-3-[[2-(2,6-dimethylphenoxy)-1-oxoethyl]amino]-2-hydroxy-1-oxo-4-phenylbutyl]-5,5-dimethyl-4-thiazolidinecarboxamide
> <PUBCHEM_IUPAC_NAME_MARKUP>
(4<I>R</I>)-<I>N</I>-(cyclopropylmethyl)-3-[(2<I>S</I>,3<I>S</I>)-3-[[2-(2,6-dimethylphenoxy)acetyl]amino]-2-hydroxy-4-phenylbutanoyl]-5,5-dimethyl-1,3-thiazolidine-4-carboxamide
> <PUBCHEM_IUPAC_NAME>
(4R)-N-(cyclopropylmethyl)-3-[(2S,3S)-3-[[2-(2,6-dimethylphenoxy)acetyl]amino]-2-hydroxy-4-phenylbutanoyl]-5,5-dimethyl-1,3-thiazolidine-4-carboxamide
> <PUBCHEM_IUPAC_SYSTEMATIC_NAME>
(4R)-N-(cyclopropylmethyl)-3-[(2S,3S)-3-[2-(2,6-dimethylphenoxy)ethanoylamino]-2-oxidanyl-4-phenyl-butanoyl]-5,5-dimethyl-1,3-thiazolidine-4-carboxamide
> <PUBCHEM_IUPAC_TRADITIONAL_NAME>
(4R)-N-(cyclopropylmethyl)-3-[(2S,3S)-3-[[2-(2,6-dimethylphenoxy)acetyl]amino]-2-hydroxy-4-phenyl-butanoyl]-5,5-dimethyl-thiazolidine-4-carboxamide
> <PUBCHEM_IUPAC_INCHI>
InChI=1S/C30H39N3O5S/c1-19-9-8-10-20(2)26(19)38-17-24(34)32-23(15-21-11-6-5-7-12-21)25(35)29(37)33-18-39-30(3,4)27(33)28(36)31-16-22-13-14-22/h5-12,22-23,25,27,35H,13-18H2,1-4H3,(H,31,36)(H,32,34)/t23-,25-,27+/m0/s1
> <PUBCHEM_IUPAC_INCHIKEY>
FDRZGMOXXXBKSE-SCTDOJESSA-N
> <PUBCHEM_XLOGP3_AA>
4.1
> <PUBCHEM_EXACT_MASS>
553.26104253
> <PUBCHEM_MOLECULAR_FORMULA>
C30H39N3O5S
> <PUBCHEM_MOLECULAR_WEIGHT>
553.7
> <PUBCHEM_OPENEYE_CAN_SMILES>
CC1=C(C(=CC=C1)C)OCC(=O)NC(CC2=CC=CC=C2)C(C(=O)N3CSC(C3C(=O)NCC4CC4)(C)C)O
> <PUBCHEM_OPENEYE_ISO_SMILES>
CC1=C(C(=CC=C1)C)OCC(=O)N[C@@H](CC2=CC=CC=C2)[C@@H](C(=O)N3CSC([C@H]3C(=O)NCC4CC4)(C)C)O
> <PUBCHEM_CACTVS_TPSA>
133
> <PUBCHEM_MONOISOTOPIC_WEIGHT>
553.26104253
> <PUBCHEM_TOTAL_CHARGE>
0
> <PUBCHEM_HEAVY_ATOM_COUNT>
39
> <PUBCHEM_ATOM_DEF_STEREO_COUNT>
3
> <PUBCHEM_ATOM_UDEF_STEREO_COUNT>
0
> <PUBCHEM_BOND_DEF_STEREO_COUNT>
0
> <PUBCHEM_BOND_UDEF_STEREO_COUNT>
0
> <PUBCHEM_ISOTOPIC_ATOM_COUNT>
0
> <PUBCHEM_COMPONENT_COUNT>
1
> <PUBCHEM_CACTVS_TAUTO_COUNT>
-1
> <PUBCHEM_COORDINATE_TYPE>
1
5
255
> <PUBCHEM_BONDANNOTATIONS>
14  16  5
24  26  8
24  27  8
26  29  8
27  30  8
29  31  8
30  31  8
32  33  8
32  34  8
33  35  8
34  36  8
35  39  8
36  39  8
21  4  6
22  9  5
$$$$
