514521
  -OEChem-10302200282D
 84 87  0     1  0  0  0  0  0999 V2000
    8.2788    2.5124    0.0000 S   0  0  0  0  0  0  0  0  0  0  0  0
    7.5745   -0.7440    0.0000 O   0  0  0  0  0  0  0  0  0  0  0  0
    5.4641    2.3100    0.0000 O   0  0  0  0  0  0  0  0  0  0  0  0
    6.3301   -0.1900    0.0000 O   0  0  0  0  0  0  0  0  0  0  0  0
   13.4887   -3.5763    0.0000 O   0  0  0  0  0  0  0  0  0  0  0  0
    2.8660   -0.1900    0.0000 O   0  0  0  0  0  0  0  0  0  0  0  0
    2.0000   -3.6900    0.0000 O   0  0  0  0  0  0  0  0  0  0  0  0
    7.1962    1.3100    0.0000 N   0  0  0  0  0  0  0  0  0  0  0  0
    9.2687   -0.3839    0.0000 N   0  0  0  0  0  0  0  0  0  0  0  0
   11.5866   -2.9582    0.0000 N   0  0  0  0  0  0  0  0  0  0  0  0
    4.5981   -0.1900    0.0000 N   0  0  0  0  0  0  0  0  0  0  0  0
    8.7788    1.6464    0.0000 C   0  0  0  0  0  0  0  0  0  0  0  0
    8.1097    0.9033    0.0000 C   0  0  1  0  0  0  0  0  0  0  0  0
    7.3007    2.3045    0.0000 C   0  0  0  0  0  0  0  0  0  0  0  0
    9.6448    2.1464    0.0000 C   0  0  0  0  0  0  0  0  0  0  0  0
    9.5220    0.9773    0.0000 C   0  0  0  0  0  0  0  0  0  0  0  0
    8.3176   -0.0749    0.0000 C   0  0  0  0  0  0  0  0  0  0  0  0
    6.3301    0.8100    0.0000 C   0  0  0  0  0  0  0  0  0  0  0  0
    5.4641    1.3100    0.0000 C   0  0  2  0  0  0  0  0  0  0  0  0
    4.5981    0.8100    0.0000 C   0  0  2  0  0  0  0  0  0  0  0  0
    9.4766   -1.3620    0.0000 C   0  0  0  0  0  0  0  0  0  0  0  0
    3.7320    1.3100    0.0000 C   0  0  0  0  0  0  0  0  0  0  0  0
   10.4276   -1.6711    0.0000 C   0  0  0  0  0  0  0  0  0  0  0  0
   10.6355   -2.6492    0.0000 C   0  0  0  0  0  0  0  0  0  0  0  0
   11.7945   -3.9364    0.0000 C   0  0  0  0  0  0  0  0  0  0  0  0
   12.3297   -2.2891    0.0000 C   0  0  0  0  0  0  0  0  0  0  0  0
    3.7320    2.3100    0.0000 C   0  0  0  0  0  0  0  0  0  0  0  0
   12.7456   -4.2454    0.0000 C   0  0  0  0  0  0  0  0  0  0  0  0
   13.2808   -2.5981    0.0000 C   0  0  0  0  0  0  0  0  0  0  0  0
    3.7320   -0.6900    0.0000 C   0  0  0  0  0  0  0  0  0  0  0  0
    2.8660    2.8100    0.0000 C   0  0  0  0  0  0  0  0  0  0  0  0
    4.5981    2.8100    0.0000 C   0  0  0  0  0  0  0  0  0  0  0  0
    3.7320   -1.6900    0.0000 C   0  0  0  0  0  0  0  0  0  0  0  0
    2.8660    3.8100    0.0000 C   0  0  0  0  0  0  0  0  0  0  0  0
    4.5981    3.8100    0.0000 C   0  0  0  0  0  0  0  0  0  0  0  0
    2.8660   -2.1900    0.0000 C   0  0  0  0  0  0  0  0  0  0  0  0
    3.7320    4.3100    0.0000 C   0  0  0  0  0  0  0  0  0  0  0  0
    4.5981   -2.1900    0.0000 C   0  0  0  0  0  0  0  0  0  0  0  0
    2.8660   -3.1900    0.0000 C   0  0  0  0  0  0  0  0  0  0  0  0
    2.0000   -1.6900    0.0000 C   0  0  0  0  0  0  0  0  0  0  0  0
    4.5981   -3.1900    0.0000 C   0  0  0  0  0  0  0  0  0  0  0  0
    3.7320   -3.6900    0.0000 C   0  0  0  0  0  0  0  0  0  0  0  0
    7.6279    0.5131    0.0000 H   0  0  0  0  0  0  0  0  0  0  0  0
    7.2359    2.9211    0.0000 H   0  0  0  0  0  0  0  0  0  0  0  0
    6.6807    2.3045    0.0000 H   0  0  0  0  0  0  0  0  0  0  0  0
    9.9548    1.6095    0.0000 H   0  0  0  0  0  0  0  0  0  0  0  0
   10.1818    2.4564    0.0000 H   0  0  0  0  0  0  0  0  0  0  0  0
    9.3348    2.6833    0.0000 H   0  0  0  0  0  0  0  0  0  0  0  0
    9.1071    0.5165    0.0000 H   0  0  0  0  0  0  0  0  0  0  0  0
    9.9827    0.5624    0.0000 H   0  0  0  0  0  0  0  0  0  0  0  0
    9.9368    1.4380    0.0000 H   0  0  0  0  0  0  0  0  0  0  0  0
    6.0010    1.6200    0.0000 H   0  0  0  0  0  0  0  0  0  0  0  0
    5.1350    0.5000    0.0000 H   0  0  0  0  0  0  0  0  0  0  0  0
    9.7294    0.0310    0.0000 H   0  0  0  0  0  0  0  0  0  0  0  0
    8.8570   -1.3837    0.0000 H   0  0  0  0  0  0  0  0  0  0  0  0
    9.3903   -1.9760    0.0000 H   0  0  0  0  0  0  0  0  0  0  0  0
    3.1215    1.4177    0.0000 H   0  0  0  0  0  0  0  0  0  0  0  0
    3.5200    0.7274    0.0000 H   0  0  0  0  0  0  0  0  0  0  0  0
   11.0473   -1.6494    0.0000 H   0  0  0  0  0  0  0  0  0  0  0  0
   10.5139   -1.0571    0.0000 H   0  0  0  0  0  0  0  0  0  0  0  0
   10.0159   -2.6708    0.0000 H   0  0  0  0  0  0  0  0  0  0  0  0
   10.5493   -3.2632    0.0000 H   0  0  0  0  0  0  0  0  0  0  0  0
    5.1350   -0.5000    0.0000 H   0  0  0  0  0  0  0  0  0  0  0  0
    6.0010    2.6200    0.0000 H   0  0  0  0  0  0  0  0  0  0  0  0
   11.1749   -3.9580    0.0000 H   0  0  0  0  0  0  0  0  0  0  0  0
   11.7082   -4.5503    0.0000 H   0  0  0  0  0  0  0  0  0  0  0  0
   12.6208   -1.7417    0.0000 H   0  0  0  0  0  0  0  0  0  0  0  0
   11.8412   -1.9074    0.0000 H   0  0  0  0  0  0  0  0  0  0  0  0
   12.4545   -4.7928    0.0000 H   0  0  0  0  0  0  0  0  0  0  0  0
   13.2341   -4.6271    0.0000 H   0  0  0  0  0  0  0  0  0  0  0  0
   13.9004   -2.5765    0.0000 H   0  0  0  0  0  0  0  0  0  0  0  0
   13.3671   -1.9842    0.0000 H   0  0  0  0  0  0  0  0  0  0  0  0
    2.3291    2.5000    0.0000 H   0  0  0  0  0  0  0  0  0  0  0  0
    5.1350    2.5000    0.0000 H   0  0  0  0  0  0  0  0  0  0  0  0
    2.3291    4.1200    0.0000 H   0  0  0  0  0  0  0  0  0  0  0  0
    5.1350    4.1200    0.0000 H   0  0  0  0  0  0  0  0  0  0  0  0
    3.7320    4.9300    0.0000 H   0  0  0  0  0  0  0  0  0  0  0  0
    5.1350   -1.8800    0.0000 H   0  0  0  0  0  0  0  0  0  0  0  0
    2.3100   -1.1531    0.0000 H   0  0  0  0  0  0  0  0  0  0  0  0
    1.4631   -1.3800    0.0000 H   0  0  0  0  0  0  0  0  0  0  0  0
    1.6900   -2.2269    0.0000 H   0  0  0  0  0  0  0  0  0  0  0  0
    5.1350   -3.5000    0.0000 H   0  0  0  0  0  0  0  0  0  0  0  0
    3.7320   -4.3100    0.0000 H   0  0  0  0  0  0  0  0  0  0  0  0
    2.0000   -4.3100    0.0000 H   0  0  0  0  0  0  0  0  0  0  0  0
  1 12  1  0  0  0  0
  1 14  1  0  0  0  0
  2 17  2  0  0  0  0
 19  3  1  6  0  0  0
  3 64  1  0  0  0  0
  4 18  2  0  0  0  0
  5 28  1  0  0  0  0
  5 29  1  0  0  0  0
  6 30  2  0  0  0  0
  7 39  1  0  0  0  0
  7 84  1  0  0  0  0
  8 13  1  0  0  0  0
  8 14  1  0  0  0  0
  8 18  1  0  0  0  0
  9 17  1  0  0  0  0
  9 21  1  0  0  0  0
  9 54  1  0  0  0  0
 10 24  1  0  0  0  0
 10 25  1  0  0  0  0
 10 26  1  0  0  0  0
 20 11  1  1  0  0  0
 11 30  1  0  0  0  0
 11 63  1  0  0  0  0
 12 13  1  0  0  0  0
 12 15  1  0  0  0  0
 12 16  1  0  0  0  0
 13 17  1  1  0  0  0
 13 43  1  0  0  0  0
 14 44  1  0  0  0  0
 14 45  1  0  0  0  0
 15 46  1  0  0  0  0
 15 47  1  0  0  0  0
 15 48  1  0  0  0  0
 16 49  1  0  0  0  0
 16 50  1  0  0  0  0
 16 51  1  0  0  0  0
 18 19  1  0  0  0  0
 19 20  1  0  0  0  0
 19 52  1  0  0  0  0
 20 22  1  0  0  0  0
 20 53  1  0  0  0  0
 21 23  1  0  0  0  0
 21 55  1  0  0  0  0
 21 56  1  0  0  0  0
 22 27  1  0  0  0  0
 22 57  1  0  0  0  0
 22 58  1  0  0  0  0
 23 24  1  0  0  0  0
 23 59  1  0  0  0  0
 23 60  1  0  0  0  0
 24 61  1  0  0  0  0
 24 62  1  0  0  0  0
 25 28  1  0  0  0  0
 25 65  1  0  0  0  0
 25 66  1  0  0  0  0
 26 29  1  0  0  0  0
 26 67  1  0  0  0  0
 26 68  1  0  0  0  0
 27 31  2  0  0  0  0
 27 32  1  0  0  0  0
 28 69  1  0  0  0  0
 28 70  1  0  0  0  0
 29 71  1  0  0  0  0
 29 72  1  0  0  0  0
 30 33  1  0  0  0  0
 31 34  1  0  0  0  0
 31 73  1  0  0  0  0
 32 35  2  0  0  0  0
 32 74  1  0  0  0  0
 33 36  2  0  0  0  0
 33 38  1  0  0  0  0
 34 37  2  0  0  0  0
 34 75  1  0  0  0  0
 35 37  1  0  0  0  0
 35 76  1  0  0  0  0
 36 39  1  0  0  0  0
 36 40  1  0  0  0  0
 37 77  1  0  0  0  0
 38 41  2  0  0  0  0
 38 78  1  0  0  0  0
 39 42  2  0  0  0  0
 40 79  1  0  0  0  0
 40 80  1  0  0  0  0
 40 81  1  0  0  0  0
 41 42  1  0  0  0  0
 41 82  1  0  0  0  0
 42 83  1  0  0  0  0
M  END
> <PUBCHEM_COMPOUND_CID>
514521
> <PUBCHEM_COMPOUND_CANONICALIZED>
1
> <PUBCHEM_CACTVS_COMPLEXITY>
910
> <PUBCHEM_CACTVS_HBOND_ACCEPTOR>
8
> <PUBCHEM_CACTVS_HBOND_DONOR>
4
> <PUBCHEM_CACTVS_ROTATABLE_BOND>
11
> <PUBCHEM_CACTVS_SUBSKEYS>
AAADcfB7uABAAAAAAAAAAAAAAAAAAWAAAAA8YIAAAAAAAAABQAAAHgQQCAAADDzh2AayBoPABgiIAiFSEAKCAABkIBAIiIHODMgKdjqi1TOXcQhk1hGYmYe6yLCOgAABAAAYAAAAAAIAADAAAAAAAAAAAA==
> <PUBCHEM_IUPAC_OPENEYE_NAME>
(4R)-3-[(2S,3S)-2-hydroxy-3-[(3-hydroxy-2-methyl-benzoyl)amino]-4-phenyl-butanoyl]-5,5-dimethyl-N-(3-morpholinopropyl)thiazolidine-4-carboxamide
> <PUBCHEM_IUPAC_CAS_NAME>
(4R)-3-[(2S,3S)-2-hydroxy-3-[[(3-hydroxy-2-methylphenyl)-oxomethyl]amino]-1-oxo-4-phenylbutyl]-5,5-dimethyl-N-[3-(4-morpholinyl)propyl]-4-thiazolidinecarboxamide
> <PUBCHEM_IUPAC_NAME_MARKUP>
(4<I>R</I>)-3-[(2<I>S</I>,3<I>S</I>)-2-hydroxy-3-[(3-hydroxy-2-methylbenzoyl)amino]-4-phenylbutanoyl]-5,5-dimethyl-<I>N</I>-(3-morpholin-4-ylpropyl)-1,3-thiazolidine-4-carboxamide
> <PUBCHEM_IUPAC_NAME>
(4R)-3-[(2S,3S)-2-hydroxy-3-[(3-hydroxy-2-methylbenzoyl)amino]-4-phenylbutanoyl]-5,5-dimethyl-N-(3-morpholin-4-ylpropyl)-1,3-thiazolidine-4-carboxamide
> <PUBCHEM_IUPAC_SYSTEMATIC_NAME>
(4R)-5,5-dimethyl-3-[(2S,3S)-3-[(2-methyl-3-oxidanyl-phenyl)carbonylamino]-2-oxidanyl-4-phenyl-butanoyl]-N-(3-morpholin-4-ylpropyl)-1,3-thiazolidine-4-carboxamide
> <PUBCHEM_IUPAC_TRADITIONAL_NAME>
(4R)-3-[(2S,3S)-2-hydroxy-3-[(3-hydroxy-2-methyl-benzoyl)amino]-4-phenyl-butanoyl]-5,5-dimethyl-N-(3-morpholinopropyl)thiazolidine-4-carboxamide
> <PUBCHEM_IUPAC_INCHI>
InChI=1S/C31H42N4O6S/c1-21-23(11-7-12-25(21)36)28(38)33-24(19-22-9-5-4-6-10-22)26(37)30(40)35-20-42-31(2,3)27(35)29(39)32-13-8-14-34-15-17-41-18-16-34/h4-7,9-12,24,26-27,36-37H,8,13-20H2,1-3H3,(H,32,39)(H,33,38)/t24-,26-,27+/m0/s1
> <PUBCHEM_IUPAC_INCHIKEY>
XOAWRBYCHZDIJS-DOEKTCAHSA-N
> <PUBCHEM_XLOGP3_AA>
2.6
> <PUBCHEM_EXACT_MASS>
598.28250625
> <PUBCHEM_MOLECULAR_FORMULA>
C31H42N4O6S
> <PUBCHEM_MOLECULAR_WEIGHT>
598.8
> <PUBCHEM_OPENEYE_CAN_SMILES>
CC1=C(C=CC=C1O)C(=O)NC(CC2=CC=CC=C2)C(C(=O)N3CSC(C3C(=O)NCCCN4CCOCC4)(C)C)O
> <PUBCHEM_OPENEYE_ISO_SMILES>
CC1=C(C=CC=C1O)C(=O)N[C@@H](CC2=CC=CC=C2)[C@@H](C(=O)N3CSC([C@H]3C(=O)NCCCN4CCOCC4)(C)C)O
> <PUBCHEM_CACTVS_TPSA>
157
> <PUBCHEM_MONOISOTOPIC_WEIGHT>
598.28250625
> <PUBCHEM_TOTAL_CHARGE>
0
> <PUBCHEM_HEAVY_ATOM_COUNT>
42
> <PUBCHEM_ATOM_DEF_STEREO_COUNT>
3
> <PUBCHEM_ATOM_UDEF_STEREO_COUNT>
0
> <PUBCHEM_BOND_DEF_STEREO_COUNT>
0
> <PUBCHEM_BOND_UDEF_STEREO_COUNT>
0
> <PUBCHEM_ISOTOPIC_ATOM_COUNT>
0
> <PUBCHEM_COMPONENT_COUNT>
1
> <PUBCHEM_CACTVS_TAUTO_COUNT>
-1
> <PUBCHEM_COORDINATE_TYPE>
1
5
255
> <PUBCHEM_BONDANNOTATIONS>
20  11  5
13  17  5
27  31  8
27  32  8
19  3  6
31  34  8
32  35  8
33  36  8
33  38  8
34  37  8
35  37  8
36  39  8
38  41  8
39  42  8
41  42  8
$$$$
