514589
  -OEChem-10302200282D
 79 82  0     1  0  0  0  0  0999 V2000
    9.1448    3.4524    0.0000 S   0  0  0  0  0  0  0  0  0  0  0  0
    2.0000   -2.2500    0.0000 F   0  0  0  0  0  0  0  0  0  0  0  0
    3.7320   -5.2500    0.0000 F   0  0  0  0  0  0  0  0  0  0  0  0
    6.3301    3.2500    0.0000 O   0  0  0  0  0  0  0  0  0  0  0  0
    8.4405    0.1960    0.0000 O   0  0  0  0  0  0  0  0  0  0  0  0
    7.1962    0.7500    0.0000 O   0  0  0  0  0  0  0  0  0  0  0  0
    3.7320    0.7500    0.0000 O   0  0  0  0  0  0  0  0  0  0  0  0
    8.0622    2.2500    0.0000 N   0  0  0  0  0  0  0  0  0  0  0  0
   10.1347    0.5561    0.0000 N   0  0  0  0  0  0  0  0  0  0  0  0
    5.4641    0.7500    0.0000 N   0  0  0  0  0  0  0  0  0  0  0  0
    4.5981   -0.7500    0.0000 N   0  0  0  0  0  0  0  0  0  0  0  0
    9.6448    2.5864    0.0000 C   0  0  0  0  0  0  0  0  0  0  0  0
    8.9757    1.8433    0.0000 C   0  0  1  0  0  0  0  0  0  0  0  0
    8.1667    3.2445    0.0000 C   0  0  0  0  0  0  0  0  0  0  0  0
   10.5109    3.0864    0.0000 C   0  0  0  0  0  0  0  0  0  0  0  0
   10.3880    1.9173    0.0000 C   0  0  0  0  0  0  0  0  0  0  0  0
    9.1836    0.8651    0.0000 C   0  0  0  0  0  0  0  0  0  0  0  0
    7.1962    1.7500    0.0000 C   0  0  0  0  0  0  0  0  0  0  0  0
    6.3301    2.2500    0.0000 C   0  0  2  0  0  0  0  0  0  0  0  0
    5.4641    1.7500    0.0000 C   0  0  2  0  0  0  0  0  0  0  0  0
    4.5981    2.2500    0.0000 C   0  0  0  0  0  0  0  0  0  0  0  0
   10.3426   -0.4220    0.0000 C   0  0  0  0  0  0  0  0  0  0  0  0
    4.5981    3.2500    0.0000 C   0  0  0  0  0  0  0  0  0  0  0  0
   11.2937   -0.7311    0.0000 C   0  0  0  0  0  0  0  0  0  0  0  0
    4.5981    0.2500    0.0000 C   0  0  0  0  0  0  0  0  0  0  0  0
    3.7320    3.7500    0.0000 C   0  0  0  0  0  0  0  0  0  0  0  0
    5.4641    3.7500    0.0000 C   0  0  0  0  0  0  0  0  0  0  0  0
   11.5016   -1.7092    0.0000 C   0  0  0  0  0  0  0  0  0  0  0  0
   12.0368   -0.0619    0.0000 C   0  0  0  0  0  0  0  0  0  0  0  0
    3.7320    4.7500    0.0000 C   0  0  0  0  0  0  0  0  0  0  0  0
    5.4641    4.7500    0.0000 C   0  0  0  0  0  0  0  0  0  0  0  0
   12.4526   -2.0182    0.0000 C   0  0  0  0  0  0  0  0  0  0  0  0
    4.5981    5.2500    0.0000 C   0  0  0  0  0  0  0  0  0  0  0  0
    3.7320   -1.2500    0.0000 C   0  0  0  0  0  0  0  0  0  0  0  0
   10.7584   -2.3783    0.0000 C   0  0  0  0  0  0  0  0  0  0  0  0
   12.9879   -0.3710    0.0000 C   0  0  0  0  0  0  0  0  0  0  0  0
   13.1958   -1.3491    0.0000 C   0  0  0  0  0  0  0  0  0  0  0  0
    3.7320   -2.2500    0.0000 C   0  0  0  0  0  0  0  0  0  0  0  0
    2.8660   -2.7500    0.0000 C   0  0  0  0  0  0  0  0  0  0  0  0
    4.5981   -2.7500    0.0000 C   0  0  0  0  0  0  0  0  0  0  0  0
    2.8660   -3.7500    0.0000 C   0  0  0  0  0  0  0  0  0  0  0  0
    4.5981   -3.7500    0.0000 C   0  0  0  0  0  0  0  0  0  0  0  0
    3.7320   -4.2500    0.0000 C   0  0  0  0  0  0  0  0  0  0  0  0
    8.4939    1.4531    0.0000 H   0  0  0  0  0  0  0  0  0  0  0  0
    8.1019    3.8611    0.0000 H   0  0  0  0  0  0  0  0  0  0  0  0
    7.5467    3.2445    0.0000 H   0  0  0  0  0  0  0  0  0  0  0  0
   10.8209    2.5495    0.0000 H   0  0  0  0  0  0  0  0  0  0  0  0
   11.0478    3.3964    0.0000 H   0  0  0  0  0  0  0  0  0  0  0  0
   10.2009    3.6233    0.0000 H   0  0  0  0  0  0  0  0  0  0  0  0
    9.9731    1.4565    0.0000 H   0  0  0  0  0  0  0  0  0  0  0  0
   10.8487    1.5024    0.0000 H   0  0  0  0  0  0  0  0  0  0  0  0
   10.8029    2.3780    0.0000 H   0  0  0  0  0  0  0  0  0  0  0  0
    6.8671    2.5600    0.0000 H   0  0  0  0  0  0  0  0  0  0  0  0
    6.0010    1.4400    0.0000 H   0  0  0  0  0  0  0  0  0  0  0  0
   10.5954    0.9710    0.0000 H   0  0  0  0  0  0  0  0  0  0  0  0
    3.9875    2.3577    0.0000 H   0  0  0  0  0  0  0  0  0  0  0  0
    4.3860    1.6674    0.0000 H   0  0  0  0  0  0  0  0  0  0  0  0
    6.0010    0.4400    0.0000 H   0  0  0  0  0  0  0  0  0  0  0  0
    9.7230   -0.4437    0.0000 H   0  0  0  0  0  0  0  0  0  0  0  0
   10.2563   -1.0360    0.0000 H   0  0  0  0  0  0  0  0  0  0  0  0
    6.8671    3.5600    0.0000 H   0  0  0  0  0  0  0  0  0  0  0  0
    3.1951    3.4400    0.0000 H   0  0  0  0  0  0  0  0  0  0  0  0
    6.0010    3.4400    0.0000 H   0  0  0  0  0  0  0  0  0  0  0  0
   11.9079    0.5445    0.0000 H   0  0  0  0  0  0  0  0  0  0  0  0
    5.1350   -1.0600    0.0000 H   0  0  0  0  0  0  0  0  0  0  0  0
    3.1951    5.0600    0.0000 H   0  0  0  0  0  0  0  0  0  0  0  0
    6.0010    5.0600    0.0000 H   0  0  0  0  0  0  0  0  0  0  0  0
   12.5815   -2.6247    0.0000 H   0  0  0  0  0  0  0  0  0  0  0  0
    4.5981    5.8700    0.0000 H   0  0  0  0  0  0  0  0  0  0  0  0
    3.5200   -0.6674    0.0000 H   0  0  0  0  0  0  0  0  0  0  0  0
    3.1215   -1.3577    0.0000 H   0  0  0  0  0  0  0  0  0  0  0  0
   10.3436   -1.9176    0.0000 H   0  0  0  0  0  0  0  0  0  0  0  0
   10.2977   -2.7932    0.0000 H   0  0  0  0  0  0  0  0  0  0  0  0
   11.1733   -2.8391    0.0000 H   0  0  0  0  0  0  0  0  0  0  0  0
   13.4486    0.0439    0.0000 H   0  0  0  0  0  0  0  0  0  0  0  0
   13.7854   -1.5407    0.0000 H   0  0  0  0  0  0  0  0  0  0  0  0
    5.1350   -2.4400    0.0000 H   0  0  0  0  0  0  0  0  0  0  0  0
    2.3291   -4.0600    0.0000 H   0  0  0  0  0  0  0  0  0  0  0  0
    5.1350   -4.0600    0.0000 H   0  0  0  0  0  0  0  0  0  0  0  0
  1 12  1  0  0  0  0
  1 14  1  0  0  0  0
  2 39  1  0  0  0  0
  3 43  1  0  0  0  0
 19  4  1  6  0  0  0
  4 61  1  0  0  0  0
  5 17  2  0  0  0  0
  6 18  2  0  0  0  0
  7 25  2  0  0  0  0
  8 13  1  0  0  0  0
  8 14  1  0  0  0  0
  8 18  1  0  0  0  0
  9 17  1  0  0  0  0
  9 22  1  0  0  0  0
  9 55  1  0  0  0  0
 20 10  1  1  0  0  0
 10 25  1  0  0  0  0
 10 58  1  0  0  0  0
 11 25  1  0  0  0  0
 11 34  1  0  0  0  0
 11 65  1  0  0  0  0
 12 13  1  0  0  0  0
 12 15  1  0  0  0  0
 12 16  1  0  0  0  0
 13 17  1  1  0  0  0
 13 44  1  0  0  0  0
 14 45  1  0  0  0  0
 14 46  1  0  0  0  0
 15 47  1  0  0  0  0
 15 48  1  0  0  0  0
 15 49  1  0  0  0  0
 16 50  1  0  0  0  0
 16 51  1  0  0  0  0
 16 52  1  0  0  0  0
 18 19  1  0  0  0  0
 19 20  1  0  0  0  0
 19 53  1  0  0  0  0
 20 21  1  0  0  0  0
 20 54  1  0  0  0  0
 21 23  1  0  0  0  0
 21 56  1  0  0  0  0
 21 57  1  0  0  0  0
 22 24  1  0  0  0  0
 22 59  1  0  0  0  0
 22 60  1  0  0  0  0
 23 26  2  0  0  0  0
 23 27  1  0  0  0  0
 24 28  1  0  0  0  0
 24 29  2  0  0  0  0
 26 30  1  0  0  0  0
 26 62  1  0  0  0  0
 27 31  2  0  0  0  0
 27 63  1  0  0  0  0
 28 32  2  0  0  0  0
 28 35  1  0  0  0  0
 29 36  1  0  0  0  0
 29 64  1  0  0  0  0
 30 33  2  0  0  0  0
 30 66  1  0  0  0  0
 31 33  1  0  0  0  0
 31 67  1  0  0  0  0
 32 37  1  0  0  0  0
 32 68  1  0  0  0  0
 33 69  1  0  0  0  0
 34 38  1  0  0  0  0
 34 70  1  0  0  0  0
 34 71  1  0  0  0  0
 35 72  1  0  0  0  0
 35 73  1  0  0  0  0
 35 74  1  0  0  0  0
 36 37  2  0  0  0  0
 36 75  1  0  0  0  0
 37 76  1  0  0  0  0
 38 39  2  0  0  0  0
 38 40  1  0  0  0  0
 39 41  1  0  0  0  0
 40 42  2  0  0  0  0
 40 77  1  0  0  0  0
 41 43  2  0  0  0  0
 41 78  1  0  0  0  0
 42 43  1  0  0  0  0
 42 79  1  0  0  0  0
M  END
> <PUBCHEM_COMPOUND_CID>
514589
> <PUBCHEM_COMPOUND_CANONICALIZED>
1
> <PUBCHEM_CACTVS_COMPLEXITY>
952
> <PUBCHEM_CACTVS_HBOND_ACCEPTOR>
7
> <PUBCHEM_CACTVS_HBOND_DONOR>
4
> <PUBCHEM_CACTVS_ROTATABLE_BOND>
10
> <PUBCHEM_CACTVS_SUBSKEYS>
AAADcfB/uYBAAAAAAAAAAAAAAAAAAWAAAAAwYMAAAAAAAAABUAAAHwQQCAAADDzh2A6zAIPAAgiIAiFSEAKCAABgABAIiIHIBIiKcDqg0TGUYAhslgKYiAeYyKCOgAAAAAAQAAAAAAAAACAAAAAAAAAAAA==
> <PUBCHEM_IUPAC_OPENEYE_NAME>
(4R)-3-[(2S,3S)-3-[(2,4-difluorophenyl)methylcarbamoylamino]-2-hydroxy-4-phenyl-butanoyl]-5,5-dimethyl-N-(o-tolylmethyl)thiazolidine-4-carboxamide
> <PUBCHEM_IUPAC_CAS_NAME>
(4R)-3-[(2S,3S)-3-[[[(2,4-difluorophenyl)methylamino]-oxomethyl]amino]-2-hydroxy-1-oxo-4-phenylbutyl]-5,5-dimethyl-N-[(2-methylphenyl)methyl]-4-thiazolidinecarboxamide
> <PUBCHEM_IUPAC_NAME_MARKUP>
(4<I>R</I>)-3-[(2<I>S</I>,3<I>S</I>)-3-[(2,4-difluorophenyl)methylcarbamoylamino]-2-hydroxy-4-phenylbutanoyl]-5,5-dimethyl-<I>N</I>-[(2-methylphenyl)methyl]-1,3-thiazolidine-4-carboxamide
> <PUBCHEM_IUPAC_NAME>
(4R)-3-[(2S,3S)-3-[(2,4-difluorophenyl)methylcarbamoylamino]-2-hydroxy-4-phenylbutanoyl]-5,5-dimethyl-N-[(2-methylphenyl)methyl]-1,3-thiazolidine-4-carboxamide
> <PUBCHEM_IUPAC_SYSTEMATIC_NAME>
(4R)-3-[(2S,3S)-3-[[2,4-bis(fluoranyl)phenyl]methylcarbamoylamino]-2-oxidanyl-4-phenyl-butanoyl]-5,5-dimethyl-N-[(2-methylphenyl)methyl]-1,3-thiazolidine-4-carboxamide
> <PUBCHEM_IUPAC_TRADITIONAL_NAME>
(4R)-3-[(2S,3S)-3-[(2,4-difluorobenzyl)carbamoylamino]-2-hydroxy-4-phenyl-butanoyl]-5,5-dimethyl-N-(2-methylbenzyl)thiazolidine-4-carboxamide
> <PUBCHEM_IUPAC_INCHI>
InChI=1S/C32H36F2N4O4S/c1-20-9-7-8-12-22(20)17-35-29(40)28-32(2,3)43-19-38(28)30(41)27(39)26(15-21-10-5-4-6-11-21)37-31(42)36-18-23-13-14-24(33)16-25(23)34/h4-14,16,26-28,39H,15,17-19H2,1-3H3,(H,35,40)(H2,36,37,42)/t26-,27-,28+/m0/s1
> <PUBCHEM_IUPAC_INCHIKEY>
UFMZDYCYWYEHQZ-HZFUHODCSA-N
> <PUBCHEM_XLOGP3_AA>
4.3
> <PUBCHEM_EXACT_MASS>
610.24253314
> <PUBCHEM_MOLECULAR_FORMULA>
C32H36F2N4O4S
> <PUBCHEM_MOLECULAR_WEIGHT>
610.7
> <PUBCHEM_OPENEYE_CAN_SMILES>
CC1=CC=CC=C1CNC(=O)C2C(SCN2C(=O)C(C(CC3=CC=CC=C3)NC(=O)NCC4=C(C=C(C=C4)F)F)O)(C)C
> <PUBCHEM_OPENEYE_ISO_SMILES>
CC1=CC=CC=C1CNC(=O)[C@@H]2C(SCN2C(=O)[C@H]([C@H](CC3=CC=CC=C3)NC(=O)NCC4=C(C=C(C=C4)F)F)O)(C)C
> <PUBCHEM_CACTVS_TPSA>
136
> <PUBCHEM_MONOISOTOPIC_WEIGHT>
610.24253314
> <PUBCHEM_TOTAL_CHARGE>
0
> <PUBCHEM_HEAVY_ATOM_COUNT>
43
> <PUBCHEM_ATOM_DEF_STEREO_COUNT>
3
> <PUBCHEM_ATOM_UDEF_STEREO_COUNT>
0
> <PUBCHEM_BOND_DEF_STEREO_COUNT>
0
> <PUBCHEM_BOND_UDEF_STEREO_COUNT>
0
> <PUBCHEM_ISOTOPIC_ATOM_COUNT>
0
> <PUBCHEM_COMPONENT_COUNT>
1
> <PUBCHEM_CACTVS_TAUTO_COUNT>
-1
> <PUBCHEM_COORDINATE_TYPE>
1
5
255
> <PUBCHEM_BONDANNOTATIONS>
20  10  5
13  17  5
23  26  8
23  27  8
24  28  8
24  29  8
26  30  8
27  31  8
28  32  8
29  36  8
30  33  8
31  33  8
32  37  8
36  37  8
38  39  8
38  40  8
39  41  8
19  4  6
40  42  8
41  43  8
42  43  8
$$$$
