514599
  -OEChem-10302200282D
 75 78  0     1  0  0  0  0  0999 V2000
    8.2788    2.2024    0.0000 S   0  0  0  0  0  0  0  0  0  0  0  0
    2.0000   -4.0000    0.0000 F   0  0  0  0  0  0  0  0  0  0  0  0
    7.5745   -1.0540    0.0000 O   0  0  0  0  0  0  0  0  0  0  0  0
    5.4641    2.0000    0.0000 O   0  0  0  0  0  0  0  0  0  0  0  0
    6.3301   -0.5000    0.0000 O   0  0  0  0  0  0  0  0  0  0  0  0
    2.8660   -0.5000    0.0000 O   0  0  0  0  0  0  0  0  0  0  0  0
    7.1962    1.0000    0.0000 N   0  0  0  0  0  0  0  0  0  0  0  0
    9.2687   -0.6939    0.0000 N   0  0  0  0  0  0  0  0  0  0  0  0
    4.5981   -0.5000    0.0000 N   0  0  0  0  0  0  0  0  0  0  0  0
    8.7788    1.3364    0.0000 C   0  0  0  0  0  0  0  0  0  0  0  0
    8.1097    0.5933    0.0000 C   0  0  1  0  0  0  0  0  0  0  0  0
    7.3007    1.9945    0.0000 C   0  0  0  0  0  0  0  0  0  0  0  0
    9.6448    1.8364    0.0000 C   0  0  0  0  0  0  0  0  0  0  0  0
    9.5220    0.6673    0.0000 C   0  0  0  0  0  0  0  0  0  0  0  0
    8.3176   -0.3849    0.0000 C   0  0  0  0  0  0  0  0  0  0  0  0
    6.3301    0.5000    0.0000 C   0  0  0  0  0  0  0  0  0  0  0  0
    5.4641    1.0000    0.0000 C   0  0  2  0  0  0  0  0  0  0  0  0
    9.4766   -1.6720    0.0000 C   0  0  1  0  0  0  0  0  0  0  0  0
    4.5981    0.5000    0.0000 C   0  0  2  0  0  0  0  0  0  0  0  0
    8.7334   -2.3412    0.0000 C   0  0  0  0  0  0  0  0  0  0  0  0
    8.9413   -3.3193    0.0000 C   0  0  0  0  0  0  0  0  0  0  0  0
    3.7320    1.0000    0.0000 C   0  0  0  0  0  0  0  0  0  0  0  0
   10.4276   -1.9811    0.0000 C   0  0  0  0  0  0  0  0  0  0  0  0
    9.8924   -3.6283    0.0000 C   0  0  0  0  0  0  0  0  0  0  0  0
   10.6355   -2.9592    0.0000 C   0  0  0  0  0  0  0  0  0  0  0  0
    3.7320    2.0000    0.0000 C   0  0  0  0  0  0  0  0  0  0  0  0
    3.7320   -1.0000    0.0000 C   0  0  0  0  0  0  0  0  0  0  0  0
    2.8660    2.5000    0.0000 C   0  0  0  0  0  0  0  0  0  0  0  0
    4.5981    2.5000    0.0000 C   0  0  0  0  0  0  0  0  0  0  0  0
    3.7320   -2.0000    0.0000 C   0  0  0  0  0  0  0  0  0  0  0  0
    2.8660    3.5000    0.0000 C   0  0  0  0  0  0  0  0  0  0  0  0
    4.5981    3.5000    0.0000 C   0  0  0  0  0  0  0  0  0  0  0  0
    2.8660   -2.5000    0.0000 C   0  0  0  0  0  0  0  0  0  0  0  0
    3.7320    4.0000    0.0000 C   0  0  0  0  0  0  0  0  0  0  0  0
    4.5981   -2.5000    0.0000 C   0  0  0  0  0  0  0  0  0  0  0  0
    2.8660   -3.5000    0.0000 C   0  0  0  0  0  0  0  0  0  0  0  0
    2.0000   -2.0000    0.0000 C   0  0  0  0  0  0  0  0  0  0  0  0
    4.5981   -3.5000    0.0000 C   0  0  0  0  0  0  0  0  0  0  0  0
    3.7320   -4.0000    0.0000 C   0  0  0  0  0  0  0  0  0  0  0  0
    7.6279    0.2031    0.0000 H   0  0  0  0  0  0  0  0  0  0  0  0
    7.2359    2.6111    0.0000 H   0  0  0  0  0  0  0  0  0  0  0  0
    6.6807    1.9945    0.0000 H   0  0  0  0  0  0  0  0  0  0  0  0
    9.9548    1.2995    0.0000 H   0  0  0  0  0  0  0  0  0  0  0  0
   10.1818    2.1464    0.0000 H   0  0  0  0  0  0  0  0  0  0  0  0
    9.3348    2.3733    0.0000 H   0  0  0  0  0  0  0  0  0  0  0  0
    9.1071    0.2065    0.0000 H   0  0  0  0  0  0  0  0  0  0  0  0
    9.9827    0.2524    0.0000 H   0  0  0  0  0  0  0  0  0  0  0  0
    9.9368    1.1280    0.0000 H   0  0  0  0  0  0  0  0  0  0  0  0
    6.0010    1.3100    0.0000 H   0  0  0  0  0  0  0  0  0  0  0  0
    8.8869   -1.4805    0.0000 H   0  0  0  0  0  0  0  0  0  0  0  0
    9.7294   -0.2790    0.0000 H   0  0  0  0  0  0  0  0  0  0  0  0
    5.1350    0.1900    0.0000 H   0  0  0  0  0  0  0  0  0  0  0  0
    8.4049   -1.8154    0.0000 H   0  0  0  0  0  0  0  0  0  0  0  0
    8.1586   -2.5734    0.0000 H   0  0  0  0  0  0  0  0  0  0  0  0
    8.3217   -3.3410    0.0000 H   0  0  0  0  0  0  0  0  0  0  0  0
    8.8551   -3.9333    0.0000 H   0  0  0  0  0  0  0  0  0  0  0  0
    3.1215    1.1077    0.0000 H   0  0  0  0  0  0  0  0  0  0  0  0
    3.5200    0.4174    0.0000 H   0  0  0  0  0  0  0  0  0  0  0  0
   10.8884   -1.5662    0.0000 H   0  0  0  0  0  0  0  0  0  0  0  0
    9.6013   -4.1758    0.0000 H   0  0  0  0  0  0  0  0  0  0  0  0
   10.3810   -4.0100    0.0000 H   0  0  0  0  0  0  0  0  0  0  0  0
   11.2252   -3.1508    0.0000 H   0  0  0  0  0  0  0  0  0  0  0  0
    5.1350   -0.8100    0.0000 H   0  0  0  0  0  0  0  0  0  0  0  0
    6.0010    2.3100    0.0000 H   0  0  0  0  0  0  0  0  0  0  0  0
    2.3291    2.1900    0.0000 H   0  0  0  0  0  0  0  0  0  0  0  0
    5.1350    2.1900    0.0000 H   0  0  0  0  0  0  0  0  0  0  0  0
    2.3291    3.8100    0.0000 H   0  0  0  0  0  0  0  0  0  0  0  0
    5.1350    3.8100    0.0000 H   0  0  0  0  0  0  0  0  0  0  0  0
    3.7320    4.6200    0.0000 H   0  0  0  0  0  0  0  0  0  0  0  0
    5.1350   -2.1900    0.0000 H   0  0  0  0  0  0  0  0  0  0  0  0
    2.3100   -1.4631    0.0000 H   0  0  0  0  0  0  0  0  0  0  0  0
    1.4631   -1.6900    0.0000 H   0  0  0  0  0  0  0  0  0  0  0  0
    1.6900   -2.5369    0.0000 H   0  0  0  0  0  0  0  0  0  0  0  0
    5.1350   -3.8100    0.0000 H   0  0  0  0  0  0  0  0  0  0  0  0
    3.7320   -4.6200    0.0000 H   0  0  0  0  0  0  0  0  0  0  0  0
  1 10  1  0  0  0  0
  1 12  1  0  0  0  0
  2 36  1  0  0  0  0
  3 15  2  0  0  0  0
 17  4  1  6  0  0  0
  4 64  1  0  0  0  0
  5 16  2  0  0  0  0
  6 27  2  0  0  0  0
  7 11  1  0  0  0  0
  7 12  1  0  0  0  0
  7 16  1  0  0  0  0
  8 15  1  0  0  0  0
 18  8  1  6  0  0  0
  8 51  1  0  0  0  0
 19  9  1  1  0  0  0
  9 27  1  0  0  0  0
  9 63  1  0  0  0  0
 10 11  1  0  0  0  0
 10 13  1  0  0  0  0
 10 14  1  0  0  0  0
 11 15  1  1  0  0  0
 11 40  1  0  0  0  0
 12 41  1  0  0  0  0
 12 42  1  0  0  0  0
 13 43  1  0  0  0  0
 13 44  1  0  0  0  0
 13 45  1  0  0  0  0
 14 46  1  0  0  0  0
 14 47  1  0  0  0  0
 14 48  1  0  0  0  0
 16 17  1  0  0  0  0
 17 19  1  0  0  0  0
 17 49  1  0  0  0  0
 18 20  1  0  0  0  0
 18 23  1  0  0  0  0
 18 50  1  0  0  0  0
 19 22  1  0  0  0  0
 19 52  1  0  0  0  0
 20 21  1  0  0  0  0
 20 53  1  0  0  0  0
 20 54  1  0  0  0  0
 21 24  1  0  0  0  0
 21 55  1  0  0  0  0
 21 56  1  0  0  0  0
 22 26  1  0  0  0  0
 22 57  1  0  0  0  0
 22 58  1  0  0  0  0
 23 25  2  0  0  0  0
 23 59  1  0  0  0  0
 24 25  1  0  0  0  0
 24 60  1  0  0  0  0
 24 61  1  0  0  0  0
 25 62  1  0  0  0  0
 26 28  2  0  0  0  0
 26 29  1  0  0  0  0
 27 30  1  0  0  0  0
 28 31  1  0  0  0  0
 28 65  1  0  0  0  0
 29 32  2  0  0  0  0
 29 66  1  0  0  0  0
 30 33  2  0  0  0  0
 30 35  1  0  0  0  0
 31 34  2  0  0  0  0
 31 67  1  0  0  0  0
 32 34  1  0  0  0  0
 32 68  1  0  0  0  0
 33 36  1  0  0  0  0
 33 37  1  0  0  0  0
 34 69  1  0  0  0  0
 35 38  2  0  0  0  0
 35 70  1  0  0  0  0
 36 39  2  0  0  0  0
 37 71  1  0  0  0  0
 37 72  1  0  0  0  0
 37 73  1  0  0  0  0
 38 39  1  0  0  0  0
 38 74  1  0  0  0  0
 39 75  1  0  0  0  0
M  END
> <PUBCHEM_COMPOUND_CID>
514599
> <PUBCHEM_COMPOUND_CANONICALIZED>
1
> <PUBCHEM_CACTVS_COMPLEXITY>
909
> <PUBCHEM_CACTVS_HBOND_ACCEPTOR>
6
> <PUBCHEM_CACTVS_HBOND_DONOR>
3
> <PUBCHEM_CACTVS_ROTATABLE_BOND>
8
> <PUBCHEM_CACTVS_SUBSKEYS>
AAADcfB7OQBAAAAAAAAAAAAAAAAAAWAAAAAwYIAAAAAAAAABQAAAHwQQCAAADDzh2A6yAIPAAgiIAiFSEAKCAABkABAIiIHIBMgKcDqg1TGUYQhklgCYiYeYyKCOgAAAAAAQAAAAAAAAACAAAAAAAAAAAA==
> <PUBCHEM_IUPAC_OPENEYE_NAME>
(4R)-N-[(1S)-cyclohex-2-en-1-yl]-3-[(2S,3S)-3-[(3-fluoro-2-methyl-benzoyl)amino]-2-hydroxy-4-phenyl-butanoyl]-5,5-dimethyl-thiazolidine-4-carboxamide
> <PUBCHEM_IUPAC_CAS_NAME>
(4R)-N-[(1S)-1-cyclohex-2-enyl]-3-[(2S,3S)-3-[[(3-fluoro-2-methylphenyl)-oxomethyl]amino]-2-hydroxy-1-oxo-4-phenylbutyl]-5,5-dimethyl-4-thiazolidinecarboxamide
> <PUBCHEM_IUPAC_NAME_MARKUP>
(4<I>R</I>)-<I>N</I>-[(1<I>S</I>)-cyclohex-2-en-1-yl]-3-[(2<I>S</I>,3<I>S</I>)-3-[(3-fluoro-2-methylbenzoyl)amino]-2-hydroxy-4-phenylbutanoyl]-5,5-dimethyl-1,3-thiazolidine-4-carboxamide
> <PUBCHEM_IUPAC_NAME>
(4R)-N-[(1S)-cyclohex-2-en-1-yl]-3-[(2S,3S)-3-[(3-fluoro-2-methylbenzoyl)amino]-2-hydroxy-4-phenylbutanoyl]-5,5-dimethyl-1,3-thiazolidine-4-carboxamide
> <PUBCHEM_IUPAC_SYSTEMATIC_NAME>
(4R)-N-[(1S)-cyclohex-2-en-1-yl]-3-[(2S,3S)-3-[(3-fluoranyl-2-methyl-phenyl)carbonylamino]-2-oxidanyl-4-phenyl-butanoyl]-5,5-dimethyl-1,3-thiazolidine-4-carboxamide
> <PUBCHEM_IUPAC_TRADITIONAL_NAME>
(4R)-N-[(1S)-cyclohex-2-en-1-yl]-3-[(2S,3S)-3-[(3-fluoro-2-methyl-benzoyl)amino]-2-hydroxy-4-phenyl-butanoyl]-5,5-dimethyl-thiazolidine-4-carboxamide
> <PUBCHEM_IUPAC_INCHI>
InChI=1S/C30H36FN3O4S/c1-19-22(15-10-16-23(19)31)27(36)33-24(17-20-11-6-4-7-12-20)25(35)29(38)34-18-39-30(2,3)26(34)28(37)32-21-13-8-5-9-14-21/h4,6-8,10-13,15-16,21,24-26,35H,5,9,14,17-18H2,1-3H3,(H,32,37)(H,33,36)/t21-,24+,25+,26-/m1/s1
> <PUBCHEM_IUPAC_INCHIKEY>
KUXGKHIQUCJJDP-CBRSEMLDSA-N
> <PUBCHEM_XLOGP3_AA>
4.5
> <PUBCHEM_EXACT_MASS>
553.24105597
> <PUBCHEM_MOLECULAR_FORMULA>
C30H36FN3O4S
> <PUBCHEM_MOLECULAR_WEIGHT>
553.7
> <PUBCHEM_OPENEYE_CAN_SMILES>
CC1=C(C=CC=C1F)C(=O)NC(CC2=CC=CC=C2)C(C(=O)N3CSC(C3C(=O)NC4CCCC=C4)(C)C)O
> <PUBCHEM_OPENEYE_ISO_SMILES>
CC1=C(C=CC=C1F)C(=O)N[C@@H](CC2=CC=CC=C2)[C@@H](C(=O)N3CSC([C@H]3C(=O)N[C@H]4CCCC=C4)(C)C)O
> <PUBCHEM_CACTVS_TPSA>
124
> <PUBCHEM_MONOISOTOPIC_WEIGHT>
553.24105597
> <PUBCHEM_TOTAL_CHARGE>
0
> <PUBCHEM_HEAVY_ATOM_COUNT>
39
> <PUBCHEM_ATOM_DEF_STEREO_COUNT>
4
> <PUBCHEM_ATOM_UDEF_STEREO_COUNT>
0
> <PUBCHEM_BOND_DEF_STEREO_COUNT>
0
> <PUBCHEM_BOND_UDEF_STEREO_COUNT>
0
> <PUBCHEM_ISOTOPIC_ATOM_COUNT>
0
> <PUBCHEM_COMPONENT_COUNT>
1
> <PUBCHEM_CACTVS_TAUTO_COUNT>
-1
> <PUBCHEM_COORDINATE_TYPE>
1
5
255
> <PUBCHEM_BONDANNOTATIONS>
11  15  5
26  28  8
26  29  8
28  31  8
29  32  8
30  33  8
30  35  8
31  34  8
32  34  8
33  36  8
35  38  8
36  39  8
38  39  8
17  4  6
18  8  6
19  9  5
$$$$
