514575
  -OEChem-10302200282D
 64 66  0     1  0  0  0  0  0999 V2000
    2.3660    0.3573    0.0000 S   0  0  0  0  0  0  0  0  0  0  0  0
    3.9487   -1.9791    0.0000 O   0  0  0  0  0  0  0  0  0  0  0  0
    5.6808    0.0209    0.0000 O   0  0  0  0  0  0  0  0  0  0  0  0
    5.5384    1.3755    0.0000 O   0  0  0  0  0  0  0  0  0  0  0  0
    7.4128   -2.9791    0.0000 O   0  0  0  0  0  0  0  0  0  0  0  0
    3.9487    0.0209    0.0000 N   0  0  0  0  0  0  0  0  0  0  0  0
    4.3794    2.6627    0.0000 N   0  0  0  0  0  0  0  0  0  0  0  0
    6.5468   -1.4791    0.0000 N   0  0  0  0  0  0  0  0  0  0  0  0
    9.1448   -1.9791    0.0000 N   0  0  0  0  0  0  0  0  0  0  0  0
    2.8660    1.2233    0.0000 C   0  0  0  0  0  0  0  0  0  0  0  0
    3.8442    1.0154    0.0000 C   0  0  1  0  0  0  0  0  0  0  0  0
    3.0352   -0.3858    0.0000 C   0  0  0  0  0  0  0  0  0  0  0  0
    2.0000    1.7233    0.0000 C   0  0  0  0  0  0  0  0  0  0  0  0
    3.0739    2.2015    0.0000 C   0  0  0  0  0  0  0  0  0  0  0  0
    4.8147   -0.4791    0.0000 C   0  0  0  0  0  0  0  0  0  0  0  0
    4.5873    1.6846    0.0000 C   0  0  0  0  0  0  0  0  0  0  0  0
    4.8147   -1.4791    0.0000 C   0  0  2  0  0  0  0  0  0  0  0  0
    5.6808   -1.9791    0.0000 C   0  0  2  0  0  0  0  0  0  0  0  0
    5.6808   -2.9791    0.0000 C   0  0  0  0  0  0  0  0  0  0  0  0
    4.8147   -3.4791    0.0000 C   0  0  0  0  0  0  0  0  0  0  0  0
    5.1226    3.3318    0.0000 C   0  0  0  0  0  0  0  0  0  0  0  0
    7.4128   -1.9791    0.0000 C   0  0  0  0  0  0  0  0  0  0  0  0
    3.9487   -2.9791    0.0000 C   0  0  0  0  0  0  0  0  0  0  0  0
    4.8147   -4.4791    0.0000 C   0  0  0  0  0  0  0  0  0  0  0  0
    4.9146    4.3100    0.0000 C   0  0  0  0  0  0  0  0  0  0  0  0
    8.2788   -1.4791    0.0000 C   0  0  0  0  0  0  0  0  0  0  0  0
    3.0827   -3.4791    0.0000 C   0  0  0  0  0  0  0  0  0  0  0  0
    3.9487   -4.9791    0.0000 C   0  0  0  0  0  0  0  0  0  0  0  0
    3.0827   -4.4791    0.0000 C   0  0  0  0  0  0  0  0  0  0  0  0
    5.6578    4.9791    0.0000 C   0  0  0  0  0  0  0  0  0  0  0  0
    8.2788   -0.4791    0.0000 C   0  0  0  0  0  0  0  0  0  0  0  0
    9.1448    0.0209    0.0000 C   0  0  0  0  0  0  0  0  0  0  0  0
   10.0109   -1.4791    0.0000 C   0  0  0  0  0  0  0  0  0  0  0  0
   10.0109   -0.4791    0.0000 C   0  0  0  0  0  0  0  0  0  0  0  0
    4.4230    0.7932    0.0000 H   0  0  0  0  0  0  0  0  0  0  0  0
    2.5336   -0.7503    0.0000 H   0  0  0  0  0  0  0  0  0  0  0  0
    3.3452   -0.9228    0.0000 H   0  0  0  0  0  0  0  0  0  0  0  0
    2.3100    2.2603    0.0000 H   0  0  0  0  0  0  0  0  0  0  0  0
    1.4631    2.0333    0.0000 H   0  0  0  0  0  0  0  0  0  0  0  0
    1.6900    1.1864    0.0000 H   0  0  0  0  0  0  0  0  0  0  0  0
    3.6804    2.0726    0.0000 H   0  0  0  0  0  0  0  0  0  0  0  0
    3.2028    2.8079    0.0000 H   0  0  0  0  0  0  0  0  0  0  0  0
    2.4675    2.3304    0.0000 H   0  0  0  0  0  0  0  0  0  0  0  0
    4.8147   -2.0991    0.0000 H   0  0  0  0  0  0  0  0  0  0  0  0
    5.6808   -1.3591    0.0000 H   0  0  0  0  0  0  0  0  0  0  0  0
    5.8928   -3.5617    0.0000 H   0  0  0  0  0  0  0  0  0  0  0  0
    6.2913   -2.8714    0.0000 H   0  0  0  0  0  0  0  0  0  0  0  0
    3.7898    2.8543    0.0000 H   0  0  0  0  0  0  0  0  0  0  0  0
    6.5468   -0.8591    0.0000 H   0  0  0  0  0  0  0  0  0  0  0  0
    3.4118   -1.6691    0.0000 H   0  0  0  0  0  0  0  0  0  0  0  0
    5.4511    2.8060    0.0000 H   0  0  0  0  0  0  0  0  0  0  0  0
    5.6974    3.5641    0.0000 H   0  0  0  0  0  0  0  0  0  0  0  0
    3.9487   -2.3591    0.0000 H   0  0  0  0  0  0  0  0  0  0  0  0
    5.3517   -4.7891    0.0000 H   0  0  0  0  0  0  0  0  0  0  0  0
    4.3250    4.5016    0.0000 H   0  0  0  0  0  0  0  0  0  0  0  0
    2.5457   -3.1691    0.0000 H   0  0  0  0  0  0  0  0  0  0  0  0
    3.9487   -5.5991    0.0000 H   0  0  0  0  0  0  0  0  0  0  0  0
    2.5457   -4.7891    0.0000 H   0  0  0  0  0  0  0  0  0  0  0  0
    6.2474    4.7875    0.0000 H   0  0  0  0  0  0  0  0  0  0  0  0
    5.5289    5.5856    0.0000 H   0  0  0  0  0  0  0  0  0  0  0  0
    7.7419   -0.1691    0.0000 H   0  0  0  0  0  0  0  0  0  0  0  0
    9.1448    0.6409    0.0000 H   0  0  0  0  0  0  0  0  0  0  0  0
   10.5478   -1.7891    0.0000 H   0  0  0  0  0  0  0  0  0  0  0  0
   10.5478   -0.1691    0.0000 H   0  0  0  0  0  0  0  0  0  0  0  0
  1 10  1  0  0  0  0
  1 12  1  0  0  0  0
 17  2  1  6  0  0  0
  2 50  1  0  0  0  0
  3 15  2  0  0  0  0
  4 16  2  0  0  0  0
  5 22  2  0  0  0  0
  6 11  1  0  0  0  0
  6 12  1  0  0  0  0
  6 15  1  0  0  0  0
  7 16  1  0  0  0  0
  7 21  1  0  0  0  0
  7 48  1  0  0  0  0
 18  8  1  1  0  0  0
  8 22  1  0  0  0  0
  8 49  1  0  0  0  0
  9 26  1  0  0  0  0
  9 33  2  0  0  0  0
 10 11  1  0  0  0  0
 10 13  1  0  0  0  0
 10 14  1  0  0  0  0
 11 16  1  1  0  0  0
 11 35  1  0  0  0  0
 12 36  1  0  0  0  0
 12 37  1  0  0  0  0
 13 38  1  0  0  0  0
 13 39  1  0  0  0  0
 13 40  1  0  0  0  0
 14 41  1  0  0  0  0
 14 42  1  0  0  0  0
 14 43  1  0  0  0  0
 15 17  1  0  0  0  0
 17 18  1  0  0  0  0
 17 44  1  0  0  0  0
 18 19  1  0  0  0  0
 18 45  1  0  0  0  0
 19 20  1  0  0  0  0
 19 46  1  0  0  0  0
 19 47  1  0  0  0  0
 20 23  2  0  0  0  0
 20 24  1  0  0  0  0
 21 25  1  0  0  0  0
 21 51  1  0  0  0  0
 21 52  1  0  0  0  0
 22 26  1  0  0  0  0
 23 27  1  0  0  0  0
 23 53  1  0  0  0  0
 24 28  2  0  0  0  0
 24 54  1  0  0  0  0
 25 30  2  0  0  0  0
 25 55  1  0  0  0  0
 26 31  2  0  0  0  0
 27 29  2  0  0  0  0
 27 56  1  0  0  0  0
 28 29  1  0  0  0  0
 28 57  1  0  0  0  0
 29 58  1  0  0  0  0
 30 59  1  0  0  0  0
 30 60  1  0  0  0  0
 31 32  1  0  0  0  0
 31 61  1  0  0  0  0
 32 34  2  0  0  0  0
 32 62  1  0  0  0  0
 33 34  1  0  0  0  0
 33 63  1  0  0  0  0
 34 64  1  0  0  0  0
M  END
> <PUBCHEM_COMPOUND_CID>
514575
> <PUBCHEM_COMPOUND_CANONICALIZED>
1
> <PUBCHEM_CACTVS_COMPLEXITY>
740
> <PUBCHEM_CACTVS_HBOND_ACCEPTOR>
6
> <PUBCHEM_CACTVS_HBOND_DONOR>
3
> <PUBCHEM_CACTVS_ROTATABLE_BOND>
9
> <PUBCHEM_CACTVS_SUBSKEYS>
AAADceB7uABAAAAAAAAAAAAAAAAAAWAAAAA8QAAAAAAAAAABwAAAHgQQCAAADDzh3ga+gJPIEgioAzV3VAKCgCB3AjAI2KH4ZNgKcPrg1bGUYQhklgDYyYeYyKCOAAAAAAAAAAAAAAAAAAAAAAAAAAAAAA==
> <PUBCHEM_IUPAC_OPENEYE_NAME>
(4R)-N-allyl-3-[(2S,3S)-2-hydroxy-4-phenyl-3-(pyridine-2-carbonylamino)butanoyl]-5,5-dimethyl-thiazolidine-4-carboxamide
> <PUBCHEM_IUPAC_CAS_NAME>
(4R)-3-[(2S,3S)-2-hydroxy-1-oxo-3-[[oxo(2-pyridinyl)methyl]amino]-4-phenylbutyl]-5,5-dimethyl-N-prop-2-enyl-4-thiazolidinecarboxamide
> <PUBCHEM_IUPAC_NAME_MARKUP>
(4<I>R</I>)-3-[(2<I>S</I>,3<I>S</I>)-2-hydroxy-4-phenyl-3-(pyridine-2-carbonylamino)butanoyl]-5,5-dimethyl-<I>N</I>-prop-2-enyl-1,3-thiazolidine-4-carboxamide
> <PUBCHEM_IUPAC_NAME>
(4R)-3-[(2S,3S)-2-hydroxy-4-phenyl-3-(pyridine-2-carbonylamino)butanoyl]-5,5-dimethyl-N-prop-2-enyl-1,3-thiazolidine-4-carboxamide
> <PUBCHEM_IUPAC_SYSTEMATIC_NAME>
(4R)-5,5-dimethyl-3-[(2S,3S)-2-oxidanyl-4-phenyl-3-(pyridin-2-ylcarbonylamino)butanoyl]-N-prop-2-enyl-1,3-thiazolidine-4-carboxamide
> <PUBCHEM_IUPAC_TRADITIONAL_NAME>
(4R)-N-allyl-3-[(2S,3S)-2-hydroxy-4-phenyl-3-picolinamido-butanoyl]-5,5-dimethyl-thiazolidine-4-carboxamide
> <PUBCHEM_IUPAC_INCHI>
InChI=1S/C25H30N4O4S/c1-4-13-27-23(32)21-25(2,3)34-16-29(21)24(33)20(30)19(15-17-10-6-5-7-11-17)28-22(31)18-12-8-9-14-26-18/h4-12,14,19-21,30H,1,13,15-16H2,2-3H3,(H,27,32)(H,28,31)/t19-,20-,21+/m0/s1
> <PUBCHEM_IUPAC_INCHIKEY>
MNIZNYYIWBEQBX-PCCBWWKXSA-N
> <PUBCHEM_XLOGP3_AA>
2.5
> <PUBCHEM_EXACT_MASS>
482.19877662
> <PUBCHEM_MOLECULAR_FORMULA>
C25H30N4O4S
> <PUBCHEM_MOLECULAR_WEIGHT>
482.6
> <PUBCHEM_OPENEYE_CAN_SMILES>
CC1(C(N(CS1)C(=O)C(C(CC2=CC=CC=C2)NC(=O)C3=CC=CC=N3)O)C(=O)NCC=C)C
> <PUBCHEM_OPENEYE_ISO_SMILES>
CC1([C@H](N(CS1)C(=O)[C@H]([C@H](CC2=CC=CC=C2)NC(=O)C3=CC=CC=N3)O)C(=O)NCC=C)C
> <PUBCHEM_CACTVS_TPSA>
137
> <PUBCHEM_MONOISOTOPIC_WEIGHT>
482.19877662
> <PUBCHEM_TOTAL_CHARGE>
0
> <PUBCHEM_HEAVY_ATOM_COUNT>
34
> <PUBCHEM_ATOM_DEF_STEREO_COUNT>
3
> <PUBCHEM_ATOM_UDEF_STEREO_COUNT>
0
> <PUBCHEM_BOND_DEF_STEREO_COUNT>
0
> <PUBCHEM_BOND_UDEF_STEREO_COUNT>
0
> <PUBCHEM_ISOTOPIC_ATOM_COUNT>
0
> <PUBCHEM_COMPONENT_COUNT>
1
> <PUBCHEM_CACTVS_TAUTO_COUNT>
-1
> <PUBCHEM_COORDINATE_TYPE>
1
5
255
> <PUBCHEM_BONDANNOTATIONS>
11  16  5
17  2  6
20  23  8
20  24  8
23  27  8
24  28  8
26  31  8
27  29  8
28  29  8
31  32  8
32  34  8
33  34  8
18  8  5
9  26  8
9  33  8
$$$$
