514516
  -OEChem-10302200282D
 78 82  0     1  0  0  0  0  0999 V2000
    7.7995   -3.3539    0.0000 S   0  0  0  0  0  0  0  0  0  0  0  0
   16.4172   -3.2393    0.0000 F   0  0  0  0  0  0  0  0  0  0  0  0
   16.4172   -2.0637    0.0000 F   0  0  0  0  0  0  0  0  0  0  0  0
    6.0666   -1.1267    0.0000 O   0  0  0  0  0  0  0  0  0  0  0  0
    9.7482   -0.6515    0.0000 O   0  0  0  0  0  0  0  0  0  0  0  0
    8.5039   -0.0975    0.0000 O   0  0  0  0  0  0  0  0  0  0  0  0
    5.1155   -0.8177    0.0000 O   0  0  0  0  0  0  0  0  0  0  0  0
   15.0246   -1.8467    0.0000 O   0  0  0  0  0  0  0  0  0  0  0  0
   15.0246   -3.4562    0.0000 O   0  0  0  0  0  0  0  0  0  0  0  0
    2.5896    2.7348    0.0000 O   0  0  0  0  0  0  0  0  0  0  0  0
    7.9687   -1.7447    0.0000 N   0  0  0  0  0  0  0  0  0  0  0  0
   10.6143   -2.1515    0.0000 N   0  0  0  0  0  0  0  0  0  0  0  0
    5.6507    0.8296    0.0000 N   0  0  0  0  0  0  0  0  0  0  0  0
    8.7777   -3.1460    0.0000 C   0  0  0  0  0  0  0  0  0  0  0  0
    8.8822   -2.1515    0.0000 C   0  0  1  0  0  0  0  0  0  0  0  0
    7.2995   -2.4879    0.0000 C   0  0  0  0  0  0  0  0  0  0  0  0
    8.9856   -4.1242    0.0000 C   0  0  0  0  0  0  0  0  0  0  0  0
    9.7722   -3.2505    0.0000 C   0  0  0  0  0  0  0  0  0  0  0  0
    9.7482   -1.6515    0.0000 C   0  0  0  0  0  0  0  0  0  0  0  0
    7.7608   -0.7666    0.0000 C   0  0  0  0  0  0  0  0  0  0  0  0
    6.8097   -0.4576    0.0000 C   0  0  2  0  0  0  0  0  0  0  0  0
    6.6018    0.5206    0.0000 C   0  0  2  0  0  0  0  0  0  0  0  0
    7.3449    1.1897    0.0000 C   0  0  0  0  0  0  0  0  0  0  0  0
   11.4803   -1.6515    0.0000 C   0  0  0  0  0  0  0  0  0  0  0  0
    7.1370    2.1678    0.0000 C   0  0  0  0  0  0  0  0  0  0  0  0
   12.3463   -2.1515    0.0000 C   0  0  0  0  0  0  0  0  0  0  0  0
    4.9076    0.1605    0.0000 C   0  0  0  0  0  0  0  0  0  0  0  0
    6.1860    2.4769    0.0000 C   0  0  0  0  0  0  0  0  0  0  0  0
    7.8802    2.8370    0.0000 C   0  0  0  0  0  0  0  0  0  0  0  0
    3.9565    0.4695    0.0000 C   0  0  0  0  0  0  0  0  0  0  0  0
   13.2123   -1.6515    0.0000 C   0  0  0  0  0  0  0  0  0  0  0  0
   12.3463   -3.1515    0.0000 C   0  0  0  0  0  0  0  0  0  0  0  0
    5.9781    3.4550    0.0000 C   0  0  0  0  0  0  0  0  0  0  0  0
    7.6723    3.8151    0.0000 C   0  0  0  0  0  0  0  0  0  0  0  0
   14.0784   -2.1515    0.0000 C   0  0  0  0  0  0  0  0  0  0  0  0
    3.7486    1.4476    0.0000 C   0  0  0  0  0  0  0  0  0  0  0  0
   13.2123   -3.6515    0.0000 C   0  0  0  0  0  0  0  0  0  0  0  0
   14.0784   -3.1515    0.0000 C   0  0  0  0  0  0  0  0  0  0  0  0
    6.7212    4.1242    0.0000 C   0  0  0  0  0  0  0  0  0  0  0  0
    3.2134   -0.1997    0.0000 C   0  0  0  0  0  0  0  0  0  0  0  0
    2.7976    1.7566    0.0000 C   0  0  0  0  0  0  0  0  0  0  0  0
    4.4918    2.1168    0.0000 C   0  0  0  0  0  0  0  0  0  0  0  0
    2.2623    0.1094    0.0000 C   0  0  0  0  0  0  0  0  0  0  0  0
   15.6082   -2.6515    0.0000 C   0  0  0  0  0  0  0  0  0  0  0  0
    2.0544    1.0875    0.0000 C   0  0  0  0  0  0  0  0  0  0  0  0
    8.8498   -1.5323    0.0000 H   0  0  0  0  0  0  0  0  0  0  0  0
    6.8847   -2.0271    0.0000 H   0  0  0  0  0  0  0  0  0  0  0  0
    6.7980   -2.8523    0.0000 H   0  0  0  0  0  0  0  0  0  0  0  0
    8.3791   -4.2530    0.0000 H   0  0  0  0  0  0  0  0  0  0  0  0
    9.1145   -4.7306    0.0000 H   0  0  0  0  0  0  0  0  0  0  0  0
    9.5920   -3.9952    0.0000 H   0  0  0  0  0  0  0  0  0  0  0  0
    9.7074   -3.8671    0.0000 H   0  0  0  0  0  0  0  0  0  0  0  0
   10.3888   -3.3153    0.0000 H   0  0  0  0  0  0  0  0  0  0  0  0
    9.8370   -2.6339    0.0000 H   0  0  0  0  0  0  0  0  0  0  0  0
    6.2200   -0.2660    0.0000 H   0  0  0  0  0  0  0  0  0  0  0  0
    6.4729    1.1270    0.0000 H   0  0  0  0  0  0  0  0  0  0  0  0
   10.6143   -2.7715    0.0000 H   0  0  0  0  0  0  0  0  0  0  0  0
    7.6735    0.6639    0.0000 H   0  0  0  0  0  0  0  0  0  0  0  0
    7.9198    1.4220    0.0000 H   0  0  0  0  0  0  0  0  0  0  0  0
    5.5218    1.4360    0.0000 H   0  0  0  0  0  0  0  0  0  0  0  0
   11.8788   -1.1765    0.0000 H   0  0  0  0  0  0  0  0  0  0  0  0
   11.0818   -1.1765    0.0000 H   0  0  0  0  0  0  0  0  0  0  0  0
    6.1955   -1.7332    0.0000 H   0  0  0  0  0  0  0  0  0  0  0  0
    5.7252    2.0620    0.0000 H   0  0  0  0  0  0  0  0  0  0  0  0
    8.4698    2.6454    0.0000 H   0  0  0  0  0  0  0  0  0  0  0  0
   13.2123   -1.0315    0.0000 H   0  0  0  0  0  0  0  0  0  0  0  0
   11.8094   -3.4615    0.0000 H   0  0  0  0  0  0  0  0  0  0  0  0
    5.3884    3.6466    0.0000 H   0  0  0  0  0  0  0  0  0  0  0  0
    8.1330    4.2300    0.0000 H   0  0  0  0  0  0  0  0  0  0  0  0
   13.2123   -4.2715    0.0000 H   0  0  0  0  0  0  0  0  0  0  0  0
    6.5923    4.7306    0.0000 H   0  0  0  0  0  0  0  0  0  0  0  0
    3.3423   -0.8061    0.0000 H   0  0  0  0  0  0  0  0  0  0  0  0
    4.9066    1.6560    0.0000 H   0  0  0  0  0  0  0  0  0  0  0  0
    4.9525    2.5316    0.0000 H   0  0  0  0  0  0  0  0  0  0  0  0
    4.0769    2.5775    0.0000 H   0  0  0  0  0  0  0  0  0  0  0  0
    1.8016   -0.3055    0.0000 H   0  0  0  0  0  0  0  0  0  0  0  0
    1.4648    1.2791    0.0000 H   0  0  0  0  0  0  0  0  0  0  0  0
    2.0000    2.9264    0.0000 H   0  0  0  0  0  0  0  0  0  0  0  0
  1 14  1  0  0  0  0
  1 16  1  0  0  0  0
  2 44  1  0  0  0  0
  3 44  1  0  0  0  0
 21  4  1  1  0  0  0
  4 63  1  0  0  0  0
  5 19  2  0  0  0  0
  6 20  2  0  0  0  0
  7 27  2  0  0  0  0
  8 35  1  0  0  0  0
  8 44  1  0  0  0  0
  9 38  1  0  0  0  0
  9 44  1  0  0  0  0
 10 41  1  0  0  0  0
 10 78  1  0  0  0  0
 11 15  1  0  0  0  0
 11 16  1  0  0  0  0
 11 20  1  0  0  0  0
 12 19  1  0  0  0  0
 12 24  1  0  0  0  0
 12 57  1  0  0  0  0
 22 13  1  1  0  0  0
 13 27  1  0  0  0  0
 13 60  1  0  0  0  0
 14 15  1  0  0  0  0
 14 17  1  0  0  0  0
 14 18  1  0  0  0  0
 15 19  1  6  0  0  0
 15 46  1  0  0  0  0
 16 47  1  0  0  0  0
 16 48  1  0  0  0  0
 17 49  1  0  0  0  0
 17 50  1  0  0  0  0
 17 51  1  0  0  0  0
 18 52  1  0  0  0  0
 18 53  1  0  0  0  0
 18 54  1  0  0  0  0
 20 21  1  0  0  0  0
 21 22  1  0  0  0  0
 21 55  1  0  0  0  0
 22 23  1  0  0  0  0
 22 56  1  0  0  0  0
 23 25  1  0  0  0  0
 23 58  1  0  0  0  0
 23 59  1  0  0  0  0
 24 26  1  0  0  0  0
 24 61  1  0  0  0  0
 24 62  1  0  0  0  0
 25 28  2  0  0  0  0
 25 29  1  0  0  0  0
 26 31  2  0  0  0  0
 26 32  1  0  0  0  0
 27 30  1  0  0  0  0
 28 33  1  0  0  0  0
 28 64  1  0  0  0  0
 29 34  2  0  0  0  0
 29 65  1  0  0  0  0
 30 36  2  0  0  0  0
 30 40  1  0  0  0  0
 31 35  1  0  0  0  0
 31 66  1  0  0  0  0
 32 37  2  0  0  0  0
 32 67  1  0  0  0  0
 33 39  2  0  0  0  0
 33 68  1  0  0  0  0
 34 39  1  0  0  0  0
 34 69  1  0  0  0  0
 35 38  2  0  0  0  0
 36 41  1  0  0  0  0
 36 42  1  0  0  0  0
 37 38  1  0  0  0  0
 37 70  1  0  0  0  0
 39 71  1  0  0  0  0
 40 43  2  0  0  0  0
 40 72  1  0  0  0  0
 41 45  2  0  0  0  0
 42 73  1  0  0  0  0
 42 74  1  0  0  0  0
 42 75  1  0  0  0  0
 43 45  1  0  0  0  0
 43 76  1  0  0  0  0
 45 77  1  0  0  0  0
M  END
> <PUBCHEM_COMPOUND_CID>
514516
> <PUBCHEM_COMPOUND_CANONICALIZED>
1
> <PUBCHEM_CACTVS_COMPLEXITY>
1080
> <PUBCHEM_CACTVS_HBOND_ACCEPTOR>
10
> <PUBCHEM_CACTVS_HBOND_DONOR>
4
> <PUBCHEM_CACTVS_ROTATABLE_BOND>
9
> <PUBCHEM_CACTVS_SUBSKEYS>
AAADcfB/OYBAAAAAAAAAAAAAAAAAAWJAAAAwYMAAAAAAAEgBUAAAHwQQCAAADDzh2BayDoPABgiIAiFSEAKCCABkIBAIiIHOjMgfdjqm9Tu0cSpk1hGeuYe62LKOoAABAAAYQABAAAIAADCAAAAAAAAAAA==
> <PUBCHEM_IUPAC_OPENEYE_NAME>
(4R)-N-[(2,2-difluoro-1,3-benzodioxol-5-yl)methyl]-3-[(2S,3S)-2-hydroxy-3-[(3-hydroxy-2-methyl-benzoyl)amino]-4-phenyl-butanoyl]-5,5-dimethyl-thiazolidine-4-carboxamide
> <PUBCHEM_IUPAC_CAS_NAME>
(4R)-N-[(2,2-difluoro-1,3-benzodioxol-5-yl)methyl]-3-[(2S,3S)-2-hydroxy-3-[[(3-hydroxy-2-methylphenyl)-oxomethyl]amino]-1-oxo-4-phenylbutyl]-5,5-dimethyl-4-thiazolidinecarboxamide
> <PUBCHEM_IUPAC_NAME_MARKUP>
(4<I>R</I>)-<I>N</I>-[(2,2-difluoro-1,3-benzodioxol-5-yl)methyl]-3-[(2<I>S</I>,3<I>S</I>)-2-hydroxy-3-[(3-hydroxy-2-methylbenzoyl)amino]-4-phenylbutanoyl]-5,5-dimethyl-1,3-thiazolidine-4-carboxamide
> <PUBCHEM_IUPAC_NAME>
(4R)-N-[(2,2-difluoro-1,3-benzodioxol-5-yl)methyl]-3-[(2S,3S)-2-hydroxy-3-[(3-hydroxy-2-methylbenzoyl)amino]-4-phenylbutanoyl]-5,5-dimethyl-1,3-thiazolidine-4-carboxamide
> <PUBCHEM_IUPAC_SYSTEMATIC_NAME>
(4R)-N-[[2,2-bis(fluoranyl)-1,3-benzodioxol-5-yl]methyl]-5,5-dimethyl-3-[(2S,3S)-3-[(2-methyl-3-oxidanyl-phenyl)carbonylamino]-2-oxidanyl-4-phenyl-butanoyl]-1,3-thiazolidine-4-carboxamide
> <PUBCHEM_IUPAC_TRADITIONAL_NAME>
(4R)-N-[(2,2-difluoro-1,3-benzodioxol-5-yl)methyl]-3-[(2S,3S)-2-hydroxy-3-[(3-hydroxy-2-methyl-benzoyl)amino]-4-phenyl-butanoyl]-5,5-dimethyl-thiazolidine-4-carboxamide
> <PUBCHEM_IUPAC_INCHI>
InChI=1S/C32H33F2N3O7S/c1-18-21(10-7-11-23(18)38)28(40)36-22(14-19-8-5-4-6-9-19)26(39)30(42)37-17-45-31(2,3)27(37)29(41)35-16-20-12-13-24-25(15-20)44-32(33,34)43-24/h4-13,15,22,26-27,38-39H,14,16-17H2,1-3H3,(H,35,41)(H,36,40)/t22-,26-,27+/m0/s1
> <PUBCHEM_IUPAC_INCHIKEY>
NNANQHWNNVAHCK-WDDWZANVSA-N
> <PUBCHEM_XLOGP3_AA>
4.7
> <PUBCHEM_EXACT_MASS>
641.20072790
> <PUBCHEM_MOLECULAR_FORMULA>
C32H33F2N3O7S
> <PUBCHEM_MOLECULAR_WEIGHT>
641.7
> <PUBCHEM_OPENEYE_CAN_SMILES>
CC1=C(C=CC=C1O)C(=O)NC(CC2=CC=CC=C2)C(C(=O)N3CSC(C3C(=O)NCC4=CC5=C(C=C4)OC(O5)(F)F)(C)C)O
> <PUBCHEM_OPENEYE_ISO_SMILES>
CC1=C(C=CC=C1O)C(=O)N[C@@H](CC2=CC=CC=C2)[C@@H](C(=O)N3CSC([C@H]3C(=O)NCC4=CC5=C(C=C4)OC(O5)(F)F)(C)C)O
> <PUBCHEM_CACTVS_TPSA>
163
> <PUBCHEM_MONOISOTOPIC_WEIGHT>
641.20072790
> <PUBCHEM_TOTAL_CHARGE>
0
> <PUBCHEM_HEAVY_ATOM_COUNT>
45
> <PUBCHEM_ATOM_DEF_STEREO_COUNT>
3
> <PUBCHEM_ATOM_UDEF_STEREO_COUNT>
0
> <PUBCHEM_BOND_DEF_STEREO_COUNT>
0
> <PUBCHEM_BOND_UDEF_STEREO_COUNT>
0
> <PUBCHEM_ISOTOPIC_ATOM_COUNT>
0
> <PUBCHEM_COMPONENT_COUNT>
1
> <PUBCHEM_CACTVS_TAUTO_COUNT>
-1
> <PUBCHEM_COORDINATE_TYPE>
1
5
255
> <PUBCHEM_BONDANNOTATIONS>
22  13  5
15  19  6
25  28  8
25  29  8
26  31  8
26  32  8
28  33  8
29  34  8
30  36  8
30  40  8
31  35  8
32  37  8
33  39  8
34  39  8
35  38  8
36  41  8
37  38  8
21  4  5
40  43  8
41  45  8
43  45  8
$$$$
