514562
  -OEChem-10302200282D
 81 86  0     1  0  0  0  0  0999 V2000
    5.8285    2.3995    0.0000 S   0  0  0  0  0  0  0  0  0  0  0  0
    6.5328   -0.8570    0.0000 O   0  0  0  0  0  0  0  0  0  0  0  0
    8.6432    2.1970    0.0000 O   0  0  0  0  0  0  0  0  0  0  0  0
    7.7772   -0.3030    0.0000 O   0  0  0  0  0  0  0  0  0  0  0  0
   11.2413   -0.3030    0.0000 O   0  0  0  0  0  0  0  0  0  0  0  0
    6.9112    1.1970    0.0000 N   0  0  0  0  0  0  0  0  0  0  0  0
    4.8386   -0.4969    0.0000 N   0  0  0  0  0  0  0  0  0  0  0  0
    9.5092   -0.3030    0.0000 N   0  0  0  0  0  0  0  0  0  0  0  0
   12.1875   -3.6077    0.0000 N   0  0  0  0  0  0  0  0  0  0  0  0
    5.9976    0.7903    0.0000 C   0  0  1  0  0  0  0  0  0  0  0  0
    5.3285    1.5334    0.0000 C   0  0  0  0  0  0  0  0  0  0  0  0
    6.8066    2.1916    0.0000 C   0  0  0  0  0  0  0  0  0  0  0  0
    4.6307   -1.4750    0.0000 C   0  0  1  0  0  0  0  0  0  0  0  0
    5.7897   -0.1879    0.0000 C   0  0  0  0  0  0  0  0  0  0  0  0
    4.4625    2.0334    0.0000 C   0  0  0  0  0  0  0  0  0  0  0  0
    4.5853    0.8643    0.0000 C   0  0  0  0  0  0  0  0  0  0  0  0
    5.2965   -2.2132    0.0000 C   0  0  0  0  0  0  0  0  0  0  0  0
    7.7772    0.6970    0.0000 C   0  0  0  0  0  0  0  0  0  0  0  0
    3.7222   -1.8786    0.0000 C   0  0  0  0  0  0  0  0  0  0  0  0
    4.8017   -3.0754    0.0000 C   0  0  0  0  0  0  0  0  0  0  0  0
    8.6432    1.1970    0.0000 C   0  0  2  0  0  0  0  0  0  0  0  0
    3.8285   -2.8729    0.0000 C   0  0  0  0  0  0  0  0  0  0  0  0
    9.5092    0.6970    0.0000 C   0  0  2  0  0  0  0  0  0  0  0  0
    2.8080   -1.4734    0.0000 C   0  0  0  0  0  0  0  0  0  0  0  0
   10.3753    1.1970    0.0000 C   0  0  0  0  0  0  0  0  0  0  0  0
    3.0205   -3.4621    0.0000 C   0  0  0  0  0  0  0  0  0  0  0  0
    2.0000   -2.0626    0.0000 C   0  0  0  0  0  0  0  0  0  0  0  0
    2.1062   -3.0569    0.0000 C   0  0  0  0  0  0  0  0  0  0  0  0
   10.3753    2.1970    0.0000 C   0  0  0  0  0  0  0  0  0  0  0  0
   10.3753   -0.8030    0.0000 C   0  0  0  0  0  0  0  0  0  0  0  0
   10.3753   -1.8030    0.0000 C   0  0  0  0  0  0  0  0  0  0  0  0
   11.2413   -2.3030    0.0000 C   0  0  0  0  0  0  0  0  0  0  0  0
   12.1875   -1.9982    0.0000 C   0  0  0  0  0  0  0  0  0  0  0  0
   11.2413   -3.3030    0.0000 C   0  0  0  0  0  0  0  0  0  0  0  0
   12.7711   -2.8030    0.0000 C   0  0  0  0  0  0  0  0  0  0  0  0
    9.5092    2.6970    0.0000 C   0  0  0  0  0  0  0  0  0  0  0  0
   11.2413    2.6970    0.0000 C   0  0  0  0  0  0  0  0  0  0  0  0
    9.5092   -2.3030    0.0000 C   0  0  0  0  0  0  0  0  0  0  0  0
   10.3753   -3.8030    0.0000 C   0  0  0  0  0  0  0  0  0  0  0  0
    9.5092   -3.3030    0.0000 C   0  0  0  0  0  0  0  0  0  0  0  0
    9.5092    3.6970    0.0000 C   0  0  0  0  0  0  0  0  0  0  0  0
   11.2413    3.6970    0.0000 C   0  0  0  0  0  0  0  0  0  0  0  0
   10.3753    4.1970    0.0000 C   0  0  0  0  0  0  0  0  0  0  0  0
    6.4794    0.4001    0.0000 H   0  0  0  0  0  0  0  0  0  0  0  0
    7.4266    2.1916    0.0000 H   0  0  0  0  0  0  0  0  0  0  0  0
    6.8714    2.8082    0.0000 H   0  0  0  0  0  0  0  0  0  0  0  0
    4.1491   -1.0846    0.0000 H   0  0  0  0  0  0  0  0  0  0  0  0
    4.7725    2.5704    0.0000 H   0  0  0  0  0  0  0  0  0  0  0  0
    3.9255    2.3434    0.0000 H   0  0  0  0  0  0  0  0  0  0  0  0
    4.1525    1.4965    0.0000 H   0  0  0  0  0  0  0  0  0  0  0  0
    4.1705    1.3250    0.0000 H   0  0  0  0  0  0  0  0  0  0  0  0
    4.1246    0.4494    0.0000 H   0  0  0  0  0  0  0  0  0  0  0  0
    5.0002    0.4036    0.0000 H   0  0  0  0  0  0  0  0  0  0  0  0
    5.7989   -2.5766    0.0000 H   0  0  0  0  0  0  0  0  0  0  0  0
    5.7107   -1.7518    0.0000 H   0  0  0  0  0  0  0  0  0  0  0  0
    4.3779   -0.0820    0.0000 H   0  0  0  0  0  0  0  0  0  0  0  0
    4.6124   -3.6657    0.0000 H   0  0  0  0  0  0  0  0  0  0  0  0
    5.3689   -3.3258    0.0000 H   0  0  0  0  0  0  0  0  0  0  0  0
    8.1063    1.5070    0.0000 H   0  0  0  0  0  0  0  0  0  0  0  0
   10.0462    0.3870    0.0000 H   0  0  0  0  0  0  0  0  0  0  0  0
    2.7421   -0.8569    0.0000 H   0  0  0  0  0  0  0  0  0  0  0  0
   10.5873    0.6144    0.0000 H   0  0  0  0  0  0  0  0  0  0  0  0
   10.9858    1.3047    0.0000 H   0  0  0  0  0  0  0  0  0  0  0  0
    3.0864   -4.0786    0.0000 H   0  0  0  0  0  0  0  0  0  0  0  0
    8.9723   -0.6130    0.0000 H   0  0  0  0  0  0  0  0  0  0  0  0
    1.4332   -1.8114    0.0000 H   0  0  0  0  0  0  0  0  0  0  0  0
    1.6053   -3.4222    0.0000 H   0  0  0  0  0  0  0  0  0  0  0  0
    8.1063    2.5070    0.0000 H   0  0  0  0  0  0  0  0  0  0  0  0
   12.7249   -1.6890    0.0000 H   0  0  0  0  0  0  0  0  0  0  0  0
   11.9365   -1.4313    0.0000 H   0  0  0  0  0  0  0  0  0  0  0  0
   13.2320   -3.2177    0.0000 H   0  0  0  0  0  0  0  0  0  0  0  0
   13.2320   -2.3882    0.0000 H   0  0  0  0  0  0  0  0  0  0  0  0
    8.9723    2.3870    0.0000 H   0  0  0  0  0  0  0  0  0  0  0  0
   11.7782    2.3870    0.0000 H   0  0  0  0  0  0  0  0  0  0  0  0
   12.3801   -4.1970    0.0000 H   0  0  0  0  0  0  0  0  0  0  0  0
    8.9723   -1.9930    0.0000 H   0  0  0  0  0  0  0  0  0  0  0  0
   10.3753   -4.4230    0.0000 H   0  0  0  0  0  0  0  0  0  0  0  0
    8.9723   -3.6130    0.0000 H   0  0  0  0  0  0  0  0  0  0  0  0
    8.9723    4.0070    0.0000 H   0  0  0  0  0  0  0  0  0  0  0  0
   11.7782    4.0070    0.0000 H   0  0  0  0  0  0  0  0  0  0  0  0
   10.3753    4.8170    0.0000 H   0  0  0  0  0  0  0  0  0  0  0  0
  1 11  1  0  0  0  0
  1 12  1  0  0  0  0
  2 14  2  0  0  0  0
 21  3  1  1  0  0  0
  3 68  1  0  0  0  0
  4 18  2  0  0  0  0
  5 30  2  0  0  0  0
  6 10  1  0  0  0  0
  6 12  1  0  0  0  0
  6 18  1  0  0  0  0
 13  7  1  1  0  0  0
  7 14  1  0  0  0  0
  7 56  1  0  0  0  0
 23  8  1  6  0  0  0
  8 30  1  0  0  0  0
  8 65  1  0  0  0  0
  9 34  1  0  0  0  0
  9 35  1  0  0  0  0
  9 75  1  0  0  0  0
 10 11  1  0  0  0  0
 10 14  1  6  0  0  0
 10 44  1  0  0  0  0
 11 15  1  0  0  0  0
 11 16  1  0  0  0  0
 12 45  1  0  0  0  0
 12 46  1  0  0  0  0
 13 17  1  0  0  0  0
 13 19  1  0  0  0  0
 13 47  1  0  0  0  0
 15 48  1  0  0  0  0
 15 49  1  0  0  0  0
 15 50  1  0  0  0  0
 16 51  1  0  0  0  0
 16 52  1  0  0  0  0
 16 53  1  0  0  0  0
 17 20  1  0  0  0  0
 17 54  1  0  0  0  0
 17 55  1  0  0  0  0
 18 21  1  0  0  0  0
 19 22  1  0  0  0  0
 19 24  2  0  0  0  0
 20 22  1  0  0  0  0
 20 57  1  0  0  0  0
 20 58  1  0  0  0  0
 21 23  1  0  0  0  0
 21 59  1  0  0  0  0
 22 26  2  0  0  0  0
 23 25  1  0  0  0  0
 23 60  1  0  0  0  0
 24 27  1  0  0  0  0
 24 61  1  0  0  0  0
 25 29  1  0  0  0  0
 25 62  1  0  0  0  0
 25 63  1  0  0  0  0
 26 28  1  0  0  0  0
 26 64  1  0  0  0  0
 27 28  2  0  0  0  0
 27 66  1  0  0  0  0
 28 67  1  0  0  0  0
 29 36  2  0  0  0  0
 29 37  1  0  0  0  0
 30 31  1  0  0  0  0
 31 32  2  0  0  0  0
 31 38  1  0  0  0  0
 32 33  1  0  0  0  0
 32 34  1  0  0  0  0
 33 35  1  0  0  0  0
 33 69  1  0  0  0  0
 33 70  1  0  0  0  0
 34 39  2  0  0  0  0
 35 71  1  0  0  0  0
 35 72  1  0  0  0  0
 36 41  1  0  0  0  0
 36 73  1  0  0  0  0
 37 42  2  0  0  0  0
 37 74  1  0  0  0  0
 38 40  2  0  0  0  0
 38 76  1  0  0  0  0
 39 40  1  0  0  0  0
 39 77  1  0  0  0  0
 40 78  1  0  0  0  0
 41 43  2  0  0  0  0
 41 79  1  0  0  0  0
 42 43  1  0  0  0  0
 42 80  1  0  0  0  0
 43 81  1  0  0  0  0
M  END
> <PUBCHEM_COMPOUND_CID>
514562
> <PUBCHEM_COMPOUND_CANONICALIZED>
1
> <PUBCHEM_CACTVS_COMPLEXITY>
1020
> <PUBCHEM_CACTVS_HBOND_ACCEPTOR>
6
> <PUBCHEM_CACTVS_HBOND_DONOR>
4
> <PUBCHEM_CACTVS_ROTATABLE_BOND>
8
> <PUBCHEM_CACTVS_SUBSKEYS>
AAADcfB/uABAAAAAAAAAAAAAAAAAAeLEAAAwYMAAAAAAAHgBUAAAHgQQCAAADDzh2AaywIPAAgiIAiVSUAKCAABlAhAIiIHIZMgKcDrg1bGUYQhklgDYyYecyaCOgAAAQAASAAAAAACAACQAACAACQAAAA==
> <PUBCHEM_IUPAC_OPENEYE_NAME>
(4R)-3-[(2S,3S)-2-hydroxy-3-(indoline-4-carbonylamino)-4-phenyl-butanoyl]-N-[(1S)-indan-1-yl]-5,5-dimethyl-thiazolidine-4-carboxamide
> <PUBCHEM_IUPAC_CAS_NAME>
(4R)-N-[(1S)-2,3-dihydro-1H-inden-1-yl]-3-[(2S,3S)-3-[[2,3-dihydro-1H-indol-4-yl(oxo)methyl]amino]-2-hydroxy-1-oxo-4-phenylbutyl]-5,5-dimethyl-4-thiazolidinecarboxamide
> <PUBCHEM_IUPAC_NAME_MARKUP>
(4<I>R</I>)-<I>N</I>-[(1<I>S</I>)-2,3-dihydro-1<I>H</I>-inden-1-yl]-3-[(2<I>S</I>,3<I>S</I>)-3-(2,3-dihydro-1<I>H</I>-indole-4-carbonylamino)-2-hydroxy-4-phenylbutanoyl]-5,5-dimethyl-1,3-thiazolidine-4-carboxamide
> <PUBCHEM_IUPAC_NAME>
(4R)-N-[(1S)-2,3-dihydro-1H-inden-1-yl]-3-[(2S,3S)-3-(2,3-dihydro-1H-indole-4-carbonylamino)-2-hydroxy-4-phenylbutanoyl]-5,5-dimethyl-1,3-thiazolidine-4-carboxamide
> <PUBCHEM_IUPAC_SYSTEMATIC_NAME>
(4R)-N-[(1S)-2,3-dihydro-1H-inden-1-yl]-3-[(2S,3S)-3-(2,3-dihydro-1H-indol-4-ylcarbonylamino)-2-oxidanyl-4-phenyl-butanoyl]-5,5-dimethyl-1,3-thiazolidine-4-carboxamide
> <PUBCHEM_IUPAC_TRADITIONAL_NAME>
(4R)-3-[(2S,3S)-2-hydroxy-3-(indoline-4-carbonylamino)-4-phenyl-butanoyl]-N-[(1S)-indan-1-yl]-5,5-dimethyl-thiazolidine-4-carboxamide
> <PUBCHEM_IUPAC_INCHI>
InChI=1S/C34H38N4O4S/c1-34(2)30(32(41)36-27-16-15-22-11-6-7-12-23(22)27)38(20-43-34)33(42)29(39)28(19-21-9-4-3-5-10-21)37-31(40)25-13-8-14-26-24(25)17-18-35-26/h3-14,27-30,35,39H,15-20H2,1-2H3,(H,36,41)(H,37,40)/t27-,28-,29-,30+/m0/s1
> <PUBCHEM_IUPAC_INCHIKEY>
QLLCRWVFRRFEJV-GCXHJFECSA-N
> <PUBCHEM_XLOGP3_AA>
4.6
> <PUBCHEM_EXACT_MASS>
598.26137688
> <PUBCHEM_MOLECULAR_FORMULA>
C34H38N4O4S
> <PUBCHEM_MOLECULAR_WEIGHT>
598.8
> <PUBCHEM_OPENEYE_CAN_SMILES>
CC1(C(N(CS1)C(=O)C(C(CC2=CC=CC=C2)NC(=O)C3=C4CCNC4=CC=C3)O)C(=O)NC5CCC6=CC=CC=C56)C
> <PUBCHEM_OPENEYE_ISO_SMILES>
CC1([C@H](N(CS1)C(=O)[C@H]([C@H](CC2=CC=CC=C2)NC(=O)C3=C4CCNC4=CC=C3)O)C(=O)N[C@H]5CCC6=CC=CC=C56)C
> <PUBCHEM_CACTVS_TPSA>
136
> <PUBCHEM_MONOISOTOPIC_WEIGHT>
598.26137688
> <PUBCHEM_TOTAL_CHARGE>
0
> <PUBCHEM_HEAVY_ATOM_COUNT>
43
> <PUBCHEM_ATOM_DEF_STEREO_COUNT>
4
> <PUBCHEM_ATOM_UDEF_STEREO_COUNT>
0
> <PUBCHEM_BOND_DEF_STEREO_COUNT>
0
> <PUBCHEM_BOND_UDEF_STEREO_COUNT>
0
> <PUBCHEM_ISOTOPIC_ATOM_COUNT>
0
> <PUBCHEM_COMPONENT_COUNT>
1
> <PUBCHEM_CACTVS_TAUTO_COUNT>
-1
> <PUBCHEM_COORDINATE_TYPE>
1
5
255
> <PUBCHEM_BONDANNOTATIONS>
10  14  6
19  22  8
19  24  8
22  26  8
24  27  8
26  28  8
27  28  8
29  36  8
29  37  8
21  3  5
31  32  8
31  38  8
32  34  8
34  39  8
36  41  8
37  42  8
38  40  8
39  40  8
41  43  8
42  43  8
13  7  5
23  8  6
$$$$
