514552
  -OEChem-10302200282D
 88 92  0     1  0  0  0  0  0999 V2000
    3.2601   -0.6812    0.0000 S   0  0  0  0  0  0  0  0  0  0  0  0
    2.8940    2.3576    0.0000 O   0  0  0  0  0  0  0  0  0  0  0  0
    6.0554   -1.0684    0.0000 O   0  0  0  0  0  0  0  0  0  0  0  0
    5.7281    1.5570    0.0000 O   0  0  0  0  0  0  0  0  0  0  0  0
    6.7985   -1.7376    0.0000 O   0  0  0  0  0  0  0  0  0  0  0  0
    8.2848   -3.0758    0.0000 O   0  0  0  0  0  0  0  0  0  0  0  0
    4.5691    0.2698    0.0000 N   0  0  0  0  0  0  0  0  0  0  0  0
    4.6261    2.3576    0.0000 N   0  0  0  0  0  0  0  0  0  0  0  0
    7.9575   -0.4504    0.0000 N   0  0  0  0  0  0  0  0  0  0  0  0
    3.7601    0.8576    0.0000 C   0  0  1  0  0  0  0  0  0  0  0  0
    2.9511    0.2698    0.0000 C   0  0  0  0  0  0  0  0  0  0  0  0
    4.2601   -0.6812    0.0000 C   0  0  0  0  0  0  0  0  0  0  0  0
    4.6261    3.3576    0.0000 C   0  0  1  0  0  0  0  0  0  0  0  0
    3.7601    1.8576    0.0000 C   0  0  0  0  0  0  0  0  0  0  0  0
    2.0000   -0.0392    0.0000 C   0  0  0  0  0  0  0  0  0  0  0  0
    2.3633    1.0788    0.0000 C   0  0  0  0  0  0  0  0  0  0  0  0
    3.7601    3.8576    0.0000 C   0  0  0  0  0  0  0  0  0  0  0  0
    5.5202    0.5788    0.0000 C   0  0  0  0  0  0  0  0  0  0  0  0
    5.4921    3.8576    0.0000 C   0  0  0  0  0  0  0  0  0  0  0  0
    3.7601    4.8576    0.0000 C   0  0  0  0  0  0  0  0  0  0  0  0
    6.2633   -0.0903    0.0000 C   0  0  2  0  0  0  0  0  0  0  0  0
    4.6261    5.3576    0.0000 C   0  0  0  0  0  0  0  0  0  0  0  0
    5.4921    4.8576    0.0000 C   0  0  0  0  0  0  0  0  0  0  0  0
    7.2144    0.2187    0.0000 C   0  0  2  0  0  0  0  0  0  0  0  0
    6.3861    3.3229    0.0000 C   0  0  0  0  0  0  0  0  0  0  0  0
    7.4223    1.1969    0.0000 C   0  0  0  0  0  0  0  0  0  0  0  0
    6.3861    5.3922    0.0000 C   0  0  0  0  0  0  0  0  0  0  0  0
    7.2921    3.8368    0.0000 C   0  0  0  0  0  0  0  0  0  0  0  0
    7.2921    4.8784    0.0000 C   0  0  0  0  0  0  0  0  0  0  0  0
    8.3733    1.5059    0.0000 C   0  0  0  0  0  0  0  0  0  0  0  0
    7.7496   -1.4286    0.0000 C   0  0  0  0  0  0  0  0  0  0  0  0
    8.5812    2.4840    0.0000 C   0  0  0  0  0  0  0  0  0  0  0  0
    9.1165    0.8367    0.0000 C   0  0  0  0  0  0  0  0  0  0  0  0
    8.4927   -2.0977    0.0000 C   0  0  0  0  0  0  0  0  0  0  0  0
    9.5323    2.7930    0.0000 C   0  0  0  0  0  0  0  0  0  0  0  0
   10.0675    1.1458    0.0000 C   0  0  0  0  0  0  0  0  0  0  0  0
   10.2754    2.1239    0.0000 C   0  0  0  0  0  0  0  0  0  0  0  0
    9.0280   -3.7450    0.0000 C   0  0  0  0  0  0  0  0  0  0  0  0
    9.9790   -3.4360    0.0000 C   0  0  0  0  0  0  0  0  0  0  0  0
    8.8200   -4.7231    0.0000 C   0  0  0  0  0  0  0  0  0  0  0  0
   10.7222   -4.1051    0.0000 C   0  0  0  0  0  0  0  0  0  0  0  0
    9.5632   -5.3922    0.0000 C   0  0  0  0  0  0  0  0  0  0  0  0
   10.1869   -2.4578    0.0000 C   0  0  0  0  0  0  0  0  0  0  0  0
    7.8690   -5.0321    0.0000 C   0  0  0  0  0  0  0  0  0  0  0  0
   10.5142   -5.0832    0.0000 C   0  0  0  0  0  0  0  0  0  0  0  0
    4.3125    1.1391    0.0000 H   0  0  0  0  0  0  0  0  0  0  0  0
    4.1953   -1.2978    0.0000 H   0  0  0  0  0  0  0  0  0  0  0  0
    4.8665   -0.8102    0.0000 H   0  0  0  0  0  0  0  0  0  0  0  0
    5.1630    3.0476    0.0000 H   0  0  0  0  0  0  0  0  0  0  0  0
    1.8084    0.5504    0.0000 H   0  0  0  0  0  0  0  0  0  0  0  0
    1.4103   -0.2308    0.0000 H   0  0  0  0  0  0  0  0  0  0  0  0
    2.1916   -0.6289    0.0000 H   0  0  0  0  0  0  0  0  0  0  0  0
    2.8649    1.4432    0.0000 H   0  0  0  0  0  0  0  0  0  0  0  0
    1.9988    1.5804    0.0000 H   0  0  0  0  0  0  0  0  0  0  0  0
    1.8617    0.7144    0.0000 H   0  0  0  0  0  0  0  0  0  0  0  0
    3.1495    3.9652    0.0000 H   0  0  0  0  0  0  0  0  0  0  0  0
    3.5480    3.2750    0.0000 H   0  0  0  0  0  0  0  0  0  0  0  0
    5.1630    2.0476    0.0000 H   0  0  0  0  0  0  0  0  0  0  0  0
    3.5480    5.4402    0.0000 H   0  0  0  0  0  0  0  0  0  0  0  0
    3.1495    4.7499    0.0000 H   0  0  0  0  0  0  0  0  0  0  0  0
    5.6736   -0.2819    0.0000 H   0  0  0  0  0  0  0  0  0  0  0  0
    5.0246    5.8325    0.0000 H   0  0  0  0  0  0  0  0  0  0  0  0
    4.2276    5.8325    0.0000 H   0  0  0  0  0  0  0  0  0  0  0  0
    7.0854   -0.3877    0.0000 H   0  0  0  0  0  0  0  0  0  0  0  0
    6.3789    2.7030    0.0000 H   0  0  0  0  0  0  0  0  0  0  0  0
    7.3360    1.8108    0.0000 H   0  0  0  0  0  0  0  0  0  0  0  0
    6.8026    1.2185    0.0000 H   0  0  0  0  0  0  0  0  0  0  0  0
    6.3789    6.0122    0.0000 H   0  0  0  0  0  0  0  0  0  0  0  0
    8.5472   -0.2588    0.0000 H   0  0  0  0  0  0  0  0  0  0  0  0
    7.8279    3.5247    0.0000 H   0  0  0  0  0  0  0  0  0  0  0  0
    7.8279    5.1905    0.0000 H   0  0  0  0  0  0  0  0  0  0  0  0
    5.4657   -1.2600    0.0000 H   0  0  0  0  0  0  0  0  0  0  0  0
    8.1205    2.8989    0.0000 H   0  0  0  0  0  0  0  0  0  0  0  0
    8.9876    0.2303    0.0000 H   0  0  0  0  0  0  0  0  0  0  0  0
    9.0676   -2.3300    0.0000 H   0  0  0  0  0  0  0  0  0  0  0  0
    8.8213   -1.5719    0.0000 H   0  0  0  0  0  0  0  0  0  0  0  0
    9.6612    3.3995    0.0000 H   0  0  0  0  0  0  0  0  0  0  0  0
   10.5283    0.7309    0.0000 H   0  0  0  0  0  0  0  0  0  0  0  0
   10.8651    2.3155    0.0000 H   0  0  0  0  0  0  0  0  0  0  0  0
   11.3118   -3.9135    0.0000 H   0  0  0  0  0  0  0  0  0  0  0  0
    9.4343   -5.9987    0.0000 H   0  0  0  0  0  0  0  0  0  0  0  0
   10.7934   -2.5867    0.0000 H   0  0  0  0  0  0  0  0  0  0  0  0
   10.3158   -1.8514    0.0000 H   0  0  0  0  0  0  0  0  0  0  0  0
    9.5805   -2.3289    0.0000 H   0  0  0  0  0  0  0  0  0  0  0  0
    7.6774   -4.4425    0.0000 H   0  0  0  0  0  0  0  0  0  0  0  0
    7.2793   -5.2237    0.0000 H   0  0  0  0  0  0  0  0  0  0  0  0
    8.0606   -5.6218    0.0000 H   0  0  0  0  0  0  0  0  0  0  0  0
   10.9750   -5.4981    0.0000 H   0  0  0  0  0  0  0  0  0  0  0  0
  1 11  1  0  0  0  0
  1 12  1  0  0  0  0
  2 14  2  0  0  0  0
 21  3  1  6  0  0  0
  3 72  1  0  0  0  0
  4 18  2  0  0  0  0
  5 31  2  0  0  0  0
  6 34  1  0  0  0  0
  6 38  1  0  0  0  0
  7 10  1  0  0  0  0
  7 12  1  0  0  0  0
  7 18  1  0  0  0  0
 13  8  1  1  0  0  0
  8 14  1  0  0  0  0
  8 58  1  0  0  0  0
 24  9  1  6  0  0  0
  9 31  1  0  0  0  0
  9 69  1  0  0  0  0
 10 11  1  0  0  0  0
 10 14  1  1  0  0  0
 10 46  1  0  0  0  0
 11 15  1  0  0  0  0
 11 16  1  0  0  0  0
 12 47  1  0  0  0  0
 12 48  1  0  0  0  0
 13 17  1  0  0  0  0
 13 19  1  0  0  0  0
 13 49  1  0  0  0  0
 15 50  1  0  0  0  0
 15 51  1  0  0  0  0
 15 52  1  0  0  0  0
 16 53  1  0  0  0  0
 16 54  1  0  0  0  0
 16 55  1  0  0  0  0
 17 20  1  0  0  0  0
 17 56  1  0  0  0  0
 17 57  1  0  0  0  0
 18 21  1  0  0  0  0
 19 23  1  0  0  0  0
 19 25  2  0  0  0  0
 20 22  1  0  0  0  0
 20 59  1  0  0  0  0
 20 60  1  0  0  0  0
 21 24  1  0  0  0  0
 21 61  1  0  0  0  0
 22 23  1  0  0  0  0
 22 62  1  0  0  0  0
 22 63  1  0  0  0  0
 23 27  2  0  0  0  0
 24 26  1  0  0  0  0
 24 64  1  0  0  0  0
 25 28  1  0  0  0  0
 25 65  1  0  0  0  0
 26 30  1  0  0  0  0
 26 66  1  0  0  0  0
 26 67  1  0  0  0  0
 27 29  1  0  0  0  0
 27 68  1  0  0  0  0
 28 29  2  0  0  0  0
 28 70  1  0  0  0  0
 29 71  1  0  0  0  0
 30 32  2  0  0  0  0
 30 33  1  0  0  0  0
 31 34  1  0  0  0  0
 32 35  1  0  0  0  0
 32 73  1  0  0  0  0
 33 36  2  0  0  0  0
 33 74  1  0  0  0  0
 34 75  1  0  0  0  0
 34 76  1  0  0  0  0
 35 37  2  0  0  0  0
 35 77  1  0  0  0  0
 36 37  1  0  0  0  0
 36 78  1  0  0  0  0
 37 79  1  0  0  0  0
 38 39  2  0  0  0  0
 38 40  1  0  0  0  0
 39 41  1  0  0  0  0
 39 43  1  0  0  0  0
 40 42  2  0  0  0  0
 40 44  1  0  0  0  0
 41 45  2  0  0  0  0
 41 80  1  0  0  0  0
 42 45  1  0  0  0  0
 42 81  1  0  0  0  0
 43 82  1  0  0  0  0
 43 83  1  0  0  0  0
 43 84  1  0  0  0  0
 44 85  1  0  0  0  0
 44 86  1  0  0  0  0
 44 87  1  0  0  0  0
 45 88  1  0  0  0  0
M  END
> <PUBCHEM_COMPOUND_CID>
514552
> <PUBCHEM_COMPOUND_CANONICALIZED>
1
> <PUBCHEM_CACTVS_COMPLEXITY>
1010
> <PUBCHEM_CACTVS_HBOND_ACCEPTOR>
6
> <PUBCHEM_CACTVS_HBOND_DONOR>
3
> <PUBCHEM_CACTVS_ROTATABLE_BOND>
10
> <PUBCHEM_CACTVS_SUBSKEYS>
AAADcfB/OABAAAAAAAAAAAAAAAAAAWAAAAAwYMGAAAAAAADBUAAAHgQQCAAADDzh2AayBoPABgiIAiFSEAKCCABgIBAIiIHMDIgOdjqk8T+XeCjk1hGYqAeYyOCOgAACAAAYAAAAAASAADQAAAAAAAAAAA==
> <PUBCHEM_IUPAC_OPENEYE_NAME>
(4R)-3-[(2S,3S)-3-[[2-(2,6-dimethylphenoxy)acetyl]amino]-2-hydroxy-4-phenyl-butanoyl]-5,5-dimethyl-N-[(1S)-tetralin-1-yl]thiazolidine-4-carboxamide
> <PUBCHEM_IUPAC_CAS_NAME>
(4R)-3-[(2S,3S)-3-[[2-(2,6-dimethylphenoxy)-1-oxoethyl]amino]-2-hydroxy-1-oxo-4-phenylbutyl]-5,5-dimethyl-N-[(1S)-1,2,3,4-tetrahydronaphthalen-1-yl]-4-thiazolidinecarboxamide
> <PUBCHEM_IUPAC_NAME_MARKUP>
(4<I>R</I>)-3-[(2<I>S</I>,3<I>S</I>)-3-[[2-(2,6-dimethylphenoxy)acetyl]amino]-2-hydroxy-4-phenylbutanoyl]-5,5-dimethyl-<I>N</I>-[(1<I>S</I>)-1,2,3,4-tetrahydronaphthalen-1-yl]-1,3-thiazolidine-4-carboxamide
> <PUBCHEM_IUPAC_NAME>
(4R)-3-[(2S,3S)-3-[[2-(2,6-dimethylphenoxy)acetyl]amino]-2-hydroxy-4-phenylbutanoyl]-5,5-dimethyl-N-[(1S)-1,2,3,4-tetrahydronaphthalen-1-yl]-1,3-thiazolidine-4-carboxamide
> <PUBCHEM_IUPAC_SYSTEMATIC_NAME>
(4R)-3-[(2S,3S)-3-[2-(2,6-dimethylphenoxy)ethanoylamino]-2-oxidanyl-4-phenyl-butanoyl]-5,5-dimethyl-N-[(1S)-1,2,3,4-tetrahydronaphthalen-1-yl]-1,3-thiazolidine-4-carboxamide
> <PUBCHEM_IUPAC_TRADITIONAL_NAME>
(4R)-3-[(2S,3S)-3-[[2-(2,6-dimethylphenoxy)acetyl]amino]-2-hydroxy-4-phenyl-butanoyl]-5,5-dimethyl-N-[(1S)-tetralin-1-yl]thiazolidine-4-carboxamide
> <PUBCHEM_IUPAC_INCHI>
InChI=1S/C36H43N3O5S/c1-23-12-10-13-24(2)32(23)44-21-30(40)37-29(20-25-14-6-5-7-15-25)31(41)35(43)39-22-45-36(3,4)33(39)34(42)38-28-19-11-17-26-16-8-9-18-27(26)28/h5-10,12-16,18,28-29,31,33,41H,11,17,19-22H2,1-4H3,(H,37,40)(H,38,42)/t28-,29-,31-,33+/m0/s1
> <PUBCHEM_IUPAC_INCHIKEY>
DRWUCTPBYJWHMW-PBJXXVJYSA-N
> <PUBCHEM_XLOGP3_AA>
5.7
> <PUBCHEM_EXACT_MASS>
629.29234265
> <PUBCHEM_MOLECULAR_FORMULA>
C36H43N3O5S
> <PUBCHEM_MOLECULAR_WEIGHT>
629.8
> <PUBCHEM_OPENEYE_CAN_SMILES>
CC1=C(C(=CC=C1)C)OCC(=O)NC(CC2=CC=CC=C2)C(C(=O)N3CSC(C3C(=O)NC4CCCC5=CC=CC=C45)(C)C)O
> <PUBCHEM_OPENEYE_ISO_SMILES>
CC1=C(C(=CC=C1)C)OCC(=O)N[C@@H](CC2=CC=CC=C2)[C@@H](C(=O)N3CSC([C@H]3C(=O)N[C@H]4CCCC5=CC=CC=C45)(C)C)O
> <PUBCHEM_CACTVS_TPSA>
133
> <PUBCHEM_MONOISOTOPIC_WEIGHT>
629.29234265
> <PUBCHEM_TOTAL_CHARGE>
0
> <PUBCHEM_HEAVY_ATOM_COUNT>
45
> <PUBCHEM_ATOM_DEF_STEREO_COUNT>
4
> <PUBCHEM_ATOM_UDEF_STEREO_COUNT>
0
> <PUBCHEM_BOND_DEF_STEREO_COUNT>
0
> <PUBCHEM_BOND_UDEF_STEREO_COUNT>
0
> <PUBCHEM_ISOTOPIC_ATOM_COUNT>
0
> <PUBCHEM_COMPONENT_COUNT>
1
> <PUBCHEM_CACTVS_TAUTO_COUNT>
-1
> <PUBCHEM_COORDINATE_TYPE>
1
5
255
> <PUBCHEM_BONDANNOTATIONS>
10  14  5
19  23  8
19  25  8
23  27  8
25  28  8
27  29  8
28  29  8
21  3  6
30  32  8
30  33  8
32  35  8
33  36  8
35  37  8
36  37  8
38  39  8
38  40  8
39  41  8
40  42  8
41  45  8
42  45  8
13  8  5
24  9  6
$$$$
