514574
  -OEChem-10302200282D
 76 79  0     1  0  0  0  0  0999 V2000
    8.3916    3.8112    0.0000 S   0  0  0  0  0  0  0  0  0  0  0  0
    5.2935   -5.2276    0.0000 F   0  0  0  0  0  0  0  0  0  0  0  0
    9.6237    1.2724    0.0000 O   0  0  0  0  0  0  0  0  0  0  0  0
    5.9236    1.5730    0.0000 O   0  0  0  0  0  0  0  0  0  0  0  0
    7.0256    0.7724    0.0000 O   0  0  0  0  0  0  0  0  0  0  0  0
    8.7576   -2.2276    0.0000 O   0  0  0  0  0  0  0  0  0  0  0  0
    7.8916    2.2724    0.0000 N   0  0  0  0  0  0  0  0  0  0  0  0
    5.3884    3.2202    0.0000 N   0  0  0  0  0  0  0  0  0  0  0  0
    7.8916   -0.7276    0.0000 N   0  0  0  0  0  0  0  0  0  0  0  0
    7.0256   -2.2276    0.0000 N   0  0  0  0  0  0  0  0  0  0  0  0
    7.3916    3.8112    0.0000 C   0  0  0  0  0  0  0  0  0  0  0  0
    7.0826    2.8601    0.0000 C   0  0  1  0  0  0  0  0  0  0  0  0
    8.7006    2.8601    0.0000 C   0  0  0  0  0  0  0  0  0  0  0  0
    7.3916    4.8112    0.0000 C   0  0  0  0  0  0  0  0  0  0  0  0
    6.4406    4.1202    0.0000 C   0  0  0  0  0  0  0  0  0  0  0  0
    6.1316    2.5511    0.0000 C   0  0  0  0  0  0  0  0  0  0  0  0
    7.8916    1.2724    0.0000 C   0  0  0  0  0  0  0  0  0  0  0  0
    8.7576    0.7724    0.0000 C   0  0  2  0  0  0  0  0  0  0  0  0
    8.7576   -0.2276    0.0000 C   0  0  2  0  0  0  0  0  0  0  0  0
    9.6237   -0.7276    0.0000 C   0  0  0  0  0  0  0  0  0  0  0  0
    4.4374    2.9112    0.0000 C   0  0  0  0  0  0  0  0  0  0  0  0
   10.4897   -0.2276    0.0000 C   0  0  0  0  0  0  0  0  0  0  0  0
    3.6942    3.5804    0.0000 C   0  0  0  0  0  0  0  0  0  0  0  0
    7.8916   -1.7276    0.0000 C   0  0  0  0  0  0  0  0  0  0  0  0
   10.4897    0.7724    0.0000 C   0  0  0  0  0  0  0  0  0  0  0  0
   11.3557   -0.7276    0.0000 C   0  0  0  0  0  0  0  0  0  0  0  0
    2.7431    3.2714    0.0000 C   0  0  0  0  0  0  0  0  0  0  0  0
    3.9021    4.5585    0.0000 C   0  0  0  0  0  0  0  0  0  0  0  0
   11.3557    1.2724    0.0000 C   0  0  0  0  0  0  0  0  0  0  0  0
   12.2217   -0.2276    0.0000 C   0  0  0  0  0  0  0  0  0  0  0  0
    2.0000    3.9405    0.0000 C   0  0  0  0  0  0  0  0  0  0  0  0
   12.2217    0.7724    0.0000 C   0  0  0  0  0  0  0  0  0  0  0  0
    2.5352    2.2932    0.0000 C   0  0  0  0  0  0  0  0  0  0  0  0
    3.1590    5.2276    0.0000 C   0  0  0  0  0  0  0  0  0  0  0  0
    2.2079    4.9186    0.0000 C   0  0  0  0  0  0  0  0  0  0  0  0
    7.0256   -3.2276    0.0000 C   0  0  0  0  0  0  0  0  0  0  0  0
    6.1596   -3.7276    0.0000 C   0  0  0  0  0  0  0  0  0  0  0  0
    7.8916   -3.7276    0.0000 C   0  0  0  0  0  0  0  0  0  0  0  0
    6.1596   -4.7276    0.0000 C   0  0  0  0  0  0  0  0  0  0  0  0
    7.8916   -4.7276    0.0000 C   0  0  0  0  0  0  0  0  0  0  0  0
    7.0256   -5.2276    0.0000 C   0  0  0  0  0  0  0  0  0  0  0  0
    6.9856    2.2478    0.0000 H   0  0  0  0  0  0  0  0  0  0  0  0
    9.0106    2.3232    0.0000 H   0  0  0  0  0  0  0  0  0  0  0  0
    9.2670    3.1123    0.0000 H   0  0  0  0  0  0  0  0  0  0  0  0
    8.0116    4.8112    0.0000 H   0  0  0  0  0  0  0  0  0  0  0  0
    7.3916    5.4312    0.0000 H   0  0  0  0  0  0  0  0  0  0  0  0
    6.7716    4.8112    0.0000 H   0  0  0  0  0  0  0  0  0  0  0  0
    6.6322    4.7099    0.0000 H   0  0  0  0  0  0  0  0  0  0  0  0
    5.8509    4.3118    0.0000 H   0  0  0  0  0  0  0  0  0  0  0  0
    6.2490    3.5306    0.0000 H   0  0  0  0  0  0  0  0  0  0  0  0
    9.2946    0.4624    0.0000 H   0  0  0  0  0  0  0  0  0  0  0  0
    8.2207    0.0824    0.0000 H   0  0  0  0  0  0  0  0  0  0  0  0
    5.5173    3.8267    0.0000 H   0  0  0  0  0  0  0  0  0  0  0  0
    9.2251   -1.2026    0.0000 H   0  0  0  0  0  0  0  0  0  0  0  0
   10.0222   -1.2026    0.0000 H   0  0  0  0  0  0  0  0  0  0  0  0
    7.3547   -0.4176    0.0000 H   0  0  0  0  0  0  0  0  0  0  0  0
    3.9488    2.5295    0.0000 H   0  0  0  0  0  0  0  0  0  0  0  0
    4.7284    2.3638    0.0000 H   0  0  0  0  0  0  0  0  0  0  0  0
    9.6237    1.8924    0.0000 H   0  0  0  0  0  0  0  0  0  0  0  0
    9.9528    1.0824    0.0000 H   0  0  0  0  0  0  0  0  0  0  0  0
   11.3557   -1.3476    0.0000 H   0  0  0  0  0  0  0  0  0  0  0  0
    4.4918    4.7501    0.0000 H   0  0  0  0  0  0  0  0  0  0  0  0
    6.4887   -1.9176    0.0000 H   0  0  0  0  0  0  0  0  0  0  0  0
   11.3557    1.8924    0.0000 H   0  0  0  0  0  0  0  0  0  0  0  0
   12.7587   -0.5376    0.0000 H   0  0  0  0  0  0  0  0  0  0  0  0
    1.4103    3.7489    0.0000 H   0  0  0  0  0  0  0  0  0  0  0  0
   12.7587    1.0824    0.0000 H   0  0  0  0  0  0  0  0  0  0  0  0
    1.9288    2.4221    0.0000 H   0  0  0  0  0  0  0  0  0  0  0  0
    2.4063    1.6868    0.0000 H   0  0  0  0  0  0  0  0  0  0  0  0
    3.1417    2.1643    0.0000 H   0  0  0  0  0  0  0  0  0  0  0  0
    3.2879    5.8341    0.0000 H   0  0  0  0  0  0  0  0  0  0  0  0
    1.7472    5.3335    0.0000 H   0  0  0  0  0  0  0  0  0  0  0  0
    5.6226   -3.4176    0.0000 H   0  0  0  0  0  0  0  0  0  0  0  0
    8.4286   -3.4176    0.0000 H   0  0  0  0  0  0  0  0  0  0  0  0
    8.4286   -5.0376    0.0000 H   0  0  0  0  0  0  0  0  0  0  0  0
    7.0256   -5.8476    0.0000 H   0  0  0  0  0  0  0  0  0  0  0  0
  1 11  1  0  0  0  0
  1 13  1  0  0  0  0
  2 39  1  0  0  0  0
 18  3  1  1  0  0  0
  3 59  1  0  0  0  0
  4 16  2  0  0  0  0
  5 17  2  0  0  0  0
  6 24  2  0  0  0  0
  7 12  1  0  0  0  0
  7 13  1  0  0  0  0
  7 17  1  0  0  0  0
  8 16  1  0  0  0  0
  8 21  1  0  0  0  0
  8 53  1  0  0  0  0
 19  9  1  6  0  0  0
  9 24  1  0  0  0  0
  9 56  1  0  0  0  0
 10 24  1  0  0  0  0
 10 36  1  0  0  0  0
 10 63  1  0  0  0  0
 11 12  1  0  0  0  0
 11 14  1  0  0  0  0
 11 15  1  0  0  0  0
 12 16  1  6  0  0  0
 12 42  1  0  0  0  0
 13 43  1  0  0  0  0
 13 44  1  0  0  0  0
 14 45  1  0  0  0  0
 14 46  1  0  0  0  0
 14 47  1  0  0  0  0
 15 48  1  0  0  0  0
 15 49  1  0  0  0  0
 15 50  1  0  0  0  0
 17 18  1  0  0  0  0
 18 19  1  0  0  0  0
 18 51  1  0  0  0  0
 19 20  1  0  0  0  0
 19 52  1  0  0  0  0
 20 22  1  0  0  0  0
 20 54  1  0  0  0  0
 20 55  1  0  0  0  0
 21 23  1  0  0  0  0
 21 57  1  0  0  0  0
 21 58  1  0  0  0  0
 22 25  2  0  0  0  0
 22 26  1  0  0  0  0
 23 27  1  0  0  0  0
 23 28  2  0  0  0  0
 25 29  1  0  0  0  0
 25 60  1  0  0  0  0
 26 30  2  0  0  0  0
 26 61  1  0  0  0  0
 27 31  2  0  0  0  0
 27 33  1  0  0  0  0
 28 34  1  0  0  0  0
 28 62  1  0  0  0  0
 29 32  2  0  0  0  0
 29 64  1  0  0  0  0
 30 32  1  0  0  0  0
 30 65  1  0  0  0  0
 31 35  1  0  0  0  0
 31 66  1  0  0  0  0
 32 67  1  0  0  0  0
 33 68  1  0  0  0  0
 33 69  1  0  0  0  0
 33 70  1  0  0  0  0
 34 35  2  0  0  0  0
 34 71  1  0  0  0  0
 35 72  1  0  0  0  0
 36 37  2  0  0  0  0
 36 38  1  0  0  0  0
 37 39  1  0  0  0  0
 37 73  1  0  0  0  0
 38 40  2  0  0  0  0
 38 74  1  0  0  0  0
 39 41  2  0  0  0  0
 40 41  1  0  0  0  0
 40 75  1  0  0  0  0
 41 76  1  0  0  0  0
M  END
> <PUBCHEM_COMPOUND_CID>
514574
> <PUBCHEM_COMPOUND_CANONICALIZED>
1
> <PUBCHEM_CACTVS_COMPLEXITY>
901
> <PUBCHEM_CACTVS_HBOND_ACCEPTOR>
6
> <PUBCHEM_CACTVS_HBOND_DONOR>
4
> <PUBCHEM_CACTVS_ROTATABLE_BOND>
9
> <PUBCHEM_CACTVS_SUBSKEYS>
AAADcfB7uQBAAAAAAAAAAAAAAAAAAWAAAAAwYMAAAAAAAAABUAAAHwQQCAAADDzh2A6zwIPAAgiIAiVSUAKCAABhAhAIiIHIZIiKcDrg0bGUYAhslgLYyCeYyKCOgAAAAAAQAAAAAAAAACAAAAAAAAAAAA==
> <PUBCHEM_IUPAC_OPENEYE_NAME>
(4R)-3-[(2S,3S)-3-[(3-fluorophenyl)carbamoylamino]-2-hydroxy-4-phenyl-butanoyl]-5,5-dimethyl-N-(o-tolylmethyl)thiazolidine-4-carboxamide
> <PUBCHEM_IUPAC_CAS_NAME>
(4R)-3-[(2S,3S)-3-[[(3-fluoroanilino)-oxomethyl]amino]-2-hydroxy-1-oxo-4-phenylbutyl]-5,5-dimethyl-N-[(2-methylphenyl)methyl]-4-thiazolidinecarboxamide
> <PUBCHEM_IUPAC_NAME_MARKUP>
(4<I>R</I>)-3-[(2<I>S</I>,3<I>S</I>)-3-[(3-fluorophenyl)carbamoylamino]-2-hydroxy-4-phenylbutanoyl]-5,5-dimethyl-<I>N</I>-[(2-methylphenyl)methyl]-1,3-thiazolidine-4-carboxamide
> <PUBCHEM_IUPAC_NAME>
(4R)-3-[(2S,3S)-3-[(3-fluorophenyl)carbamoylamino]-2-hydroxy-4-phenylbutanoyl]-5,5-dimethyl-N-[(2-methylphenyl)methyl]-1,3-thiazolidine-4-carboxamide
> <PUBCHEM_IUPAC_SYSTEMATIC_NAME>
(4R)-3-[(2S,3S)-3-[(3-fluorophenyl)carbamoylamino]-2-oxidanyl-4-phenyl-butanoyl]-5,5-dimethyl-N-[(2-methylphenyl)methyl]-1,3-thiazolidine-4-carboxamide
> <PUBCHEM_IUPAC_TRADITIONAL_NAME>
(4R)-3-[(2S,3S)-3-[(3-fluorophenyl)carbamoylamino]-2-hydroxy-4-phenyl-butanoyl]-5,5-dimethyl-N-(2-methylbenzyl)thiazolidine-4-carboxamide
> <PUBCHEM_IUPAC_INCHI>
InChI=1S/C31H35FN4O4S/c1-20-10-7-8-13-22(20)18-33-28(38)27-31(2,3)41-19-36(27)29(39)26(37)25(16-21-11-5-4-6-12-21)35-30(40)34-24-15-9-14-23(32)17-24/h4-15,17,25-27,37H,16,18-19H2,1-3H3,(H,33,38)(H2,34,35,40)/t25-,26-,27+/m0/s1
> <PUBCHEM_IUPAC_INCHIKEY>
LSLNDSSIVIROEQ-GMQQYTKMSA-N
> <PUBCHEM_XLOGP3_AA>
4.3
> <PUBCHEM_EXACT_MASS>
578.23630495
> <PUBCHEM_MOLECULAR_FORMULA>
C31H35FN4O4S
> <PUBCHEM_MOLECULAR_WEIGHT>
578.7
> <PUBCHEM_OPENEYE_CAN_SMILES>
CC1=CC=CC=C1CNC(=O)C2C(SCN2C(=O)C(C(CC3=CC=CC=C3)NC(=O)NC4=CC(=CC=C4)F)O)(C)C
> <PUBCHEM_OPENEYE_ISO_SMILES>
CC1=CC=CC=C1CNC(=O)[C@@H]2C(SCN2C(=O)[C@H]([C@H](CC3=CC=CC=C3)NC(=O)NC4=CC(=CC=C4)F)O)(C)C
> <PUBCHEM_CACTVS_TPSA>
136
> <PUBCHEM_MONOISOTOPIC_WEIGHT>
578.23630495
> <PUBCHEM_TOTAL_CHARGE>
0
> <PUBCHEM_HEAVY_ATOM_COUNT>
41
> <PUBCHEM_ATOM_DEF_STEREO_COUNT>
3
> <PUBCHEM_ATOM_UDEF_STEREO_COUNT>
0
> <PUBCHEM_BOND_DEF_STEREO_COUNT>
0
> <PUBCHEM_BOND_UDEF_STEREO_COUNT>
0
> <PUBCHEM_ISOTOPIC_ATOM_COUNT>
0
> <PUBCHEM_COMPONENT_COUNT>
1
> <PUBCHEM_CACTVS_TAUTO_COUNT>
-1
> <PUBCHEM_COORDINATE_TYPE>
1
5
255
> <PUBCHEM_BONDANNOTATIONS>
12  16  6
22  25  8
22  26  8
23  27  8
23  28  8
25  29  8
26  30  8
27  31  8
28  34  8
29  32  8
18  3  5
30  32  8
31  35  8
34  35  8
36  37  8
36  38  8
37  39  8
38  40  8
39  41  8
40  41  8
19  9  6
$$$$
