514592
  -OEChem-10302200282D
 87 90  0     1  0  0  0  0  0999 V2000
    8.3916   -4.5612    0.0000 S   0  0  0  0  0  0  0  0  0  0  0  0
    9.6237   -2.0224    0.0000 O   0  0  0  0  0  0  0  0  0  0  0  0
    5.9236   -2.3230    0.0000 O   0  0  0  0  0  0  0  0  0  0  0  0
    7.0256   -1.5224    0.0000 O   0  0  0  0  0  0  0  0  0  0  0  0
    8.7576    1.4776    0.0000 O   0  0  0  0  0  0  0  0  0  0  0  0
    5.2935    5.4776    0.0000 O   0  0  0  0  0  0  0  0  0  0  0  0
    3.5615    4.4776    0.0000 O   0  0  0  0  0  0  0  0  0  0  0  0
    7.8916   -3.0224    0.0000 N   0  0  0  0  0  0  0  0  0  0  0  0
    5.3884   -3.9702    0.0000 N   0  0  0  0  0  0  0  0  0  0  0  0
    7.8916   -0.0224    0.0000 N   0  0  0  0  0  0  0  0  0  0  0  0
    7.0256    1.4776    0.0000 N   0  0  0  0  0  0  0  0  0  0  0  0
    7.3916   -4.5612    0.0000 C   0  0  0  0  0  0  0  0  0  0  0  0
    7.0826   -3.6101    0.0000 C   0  0  1  0  0  0  0  0  0  0  0  0
    8.7006   -3.6101    0.0000 C   0  0  0  0  0  0  0  0  0  0  0  0
    7.3916   -5.5612    0.0000 C   0  0  0  0  0  0  0  0  0  0  0  0
    6.4406   -4.8702    0.0000 C   0  0  0  0  0  0  0  0  0  0  0  0
    6.1316   -3.3011    0.0000 C   0  0  0  0  0  0  0  0  0  0  0  0
    7.8916   -2.0224    0.0000 C   0  0  0  0  0  0  0  0  0  0  0  0
    8.7576   -1.5224    0.0000 C   0  0  2  0  0  0  0  0  0  0  0  0
    8.7576   -0.5224    0.0000 C   0  0  2  0  0  0  0  0  0  0  0  0
    9.6237   -0.0224    0.0000 C   0  0  0  0  0  0  0  0  0  0  0  0
    4.4374   -3.6612    0.0000 C   0  0  0  0  0  0  0  0  0  0  0  0
   10.4897   -0.5224    0.0000 C   0  0  0  0  0  0  0  0  0  0  0  0
    3.6942   -4.3304    0.0000 C   0  0  0  0  0  0  0  0  0  0  0  0
    7.8916    0.9776    0.0000 C   0  0  0  0  0  0  0  0  0  0  0  0
   11.3557   -0.0224    0.0000 C   0  0  0  0  0  0  0  0  0  0  0  0
   10.4897   -1.5224    0.0000 C   0  0  0  0  0  0  0  0  0  0  0  0
    2.7431   -4.0214    0.0000 C   0  0  0  0  0  0  0  0  0  0  0  0
    3.9021   -5.3085    0.0000 C   0  0  0  0  0  0  0  0  0  0  0  0
   12.2217   -0.5224    0.0000 C   0  0  0  0  0  0  0  0  0  0  0  0
   11.3557   -2.0224    0.0000 C   0  0  0  0  0  0  0  0  0  0  0  0
    2.0000   -4.6905    0.0000 C   0  0  0  0  0  0  0  0  0  0  0  0
    7.0256    2.4776    0.0000 C   0  0  0  0  0  0  0  0  0  0  0  0
   12.2217   -1.5224    0.0000 C   0  0  0  0  0  0  0  0  0  0  0  0
    2.5352   -3.0432    0.0000 C   0  0  0  0  0  0  0  0  0  0  0  0
    3.1590   -5.9776    0.0000 C   0  0  0  0  0  0  0  0  0  0  0  0
    2.2079   -5.6686    0.0000 C   0  0  0  0  0  0  0  0  0  0  0  0
    6.1596    2.9776    0.0000 C   0  0  0  0  0  0  0  0  0  0  0  0
    6.1596    3.9776    0.0000 C   0  0  0  0  0  0  0  0  0  0  0  0
    5.2935    2.4776    0.0000 C   0  0  0  0  0  0  0  0  0  0  0  0
    5.2935    4.4776    0.0000 C   0  0  0  0  0  0  0  0  0  0  0  0
    4.4275    2.9776    0.0000 C   0  0  0  0  0  0  0  0  0  0  0  0
    4.4275    3.9776    0.0000 C   0  0  0  0  0  0  0  0  0  0  0  0
    6.1596    5.9776    0.0000 C   0  0  0  0  0  0  0  0  0  0  0  0
    2.6955    3.9776    0.0000 C   0  0  0  0  0  0  0  0  0  0  0  0
    6.9856   -2.9978    0.0000 H   0  0  0  0  0  0  0  0  0  0  0  0
    9.2670   -3.8623    0.0000 H   0  0  0  0  0  0  0  0  0  0  0  0
    9.0106   -3.0732    0.0000 H   0  0  0  0  0  0  0  0  0  0  0  0
    6.7716   -5.5612    0.0000 H   0  0  0  0  0  0  0  0  0  0  0  0
    7.3916   -6.1812    0.0000 H   0  0  0  0  0  0  0  0  0  0  0  0
    8.0116   -5.5612    0.0000 H   0  0  0  0  0  0  0  0  0  0  0  0
    6.2490   -4.2806    0.0000 H   0  0  0  0  0  0  0  0  0  0  0  0
    5.8509   -5.0618    0.0000 H   0  0  0  0  0  0  0  0  0  0  0  0
    6.6322   -5.4599    0.0000 H   0  0  0  0  0  0  0  0  0  0  0  0
    9.2946   -1.2124    0.0000 H   0  0  0  0  0  0  0  0  0  0  0  0
    8.2207   -0.8324    0.0000 H   0  0  0  0  0  0  0  0  0  0  0  0
    5.5173   -4.5767    0.0000 H   0  0  0  0  0  0  0  0  0  0  0  0
   10.0222    0.4526    0.0000 H   0  0  0  0  0  0  0  0  0  0  0  0
    9.2251    0.4526    0.0000 H   0  0  0  0  0  0  0  0  0  0  0  0
    7.3547   -0.3324    0.0000 H   0  0  0  0  0  0  0  0  0  0  0  0
    4.7284   -3.1138    0.0000 H   0  0  0  0  0  0  0  0  0  0  0  0
    3.9488   -3.2795    0.0000 H   0  0  0  0  0  0  0  0  0  0  0  0
    9.6237   -2.6424    0.0000 H   0  0  0  0  0  0  0  0  0  0  0  0
   11.3557    0.5976    0.0000 H   0  0  0  0  0  0  0  0  0  0  0  0
    9.9528   -1.8324    0.0000 H   0  0  0  0  0  0  0  0  0  0  0  0
    4.4918   -5.5001    0.0000 H   0  0  0  0  0  0  0  0  0  0  0  0
    6.4887    1.1676    0.0000 H   0  0  0  0  0  0  0  0  0  0  0  0
   12.7587   -0.2124    0.0000 H   0  0  0  0  0  0  0  0  0  0  0  0
   11.3557   -2.6424    0.0000 H   0  0  0  0  0  0  0  0  0  0  0  0
    1.4103   -4.4989    0.0000 H   0  0  0  0  0  0  0  0  0  0  0  0
    7.6362    2.3700    0.0000 H   0  0  0  0  0  0  0  0  0  0  0  0
    7.2376    3.0602    0.0000 H   0  0  0  0  0  0  0  0  0  0  0  0
   12.7587   -1.8324    0.0000 H   0  0  0  0  0  0  0  0  0  0  0  0
    3.1417   -2.9143    0.0000 H   0  0  0  0  0  0  0  0  0  0  0  0
    2.4063   -2.4368    0.0000 H   0  0  0  0  0  0  0  0  0  0  0  0
    1.9288   -3.1721    0.0000 H   0  0  0  0  0  0  0  0  0  0  0  0
    3.2879   -6.5841    0.0000 H   0  0  0  0  0  0  0  0  0  0  0  0
    1.7472   -6.0835    0.0000 H   0  0  0  0  0  0  0  0  0  0  0  0
    6.6965    4.2876    0.0000 H   0  0  0  0  0  0  0  0  0  0  0  0
    5.2935    1.8576    0.0000 H   0  0  0  0  0  0  0  0  0  0  0  0
    3.8906    2.6676    0.0000 H   0  0  0  0  0  0  0  0  0  0  0  0
    6.4696    5.4407    0.0000 H   0  0  0  0  0  0  0  0  0  0  0  0
    6.6965    6.2876    0.0000 H   0  0  0  0  0  0  0  0  0  0  0  0
    5.8496    6.5146    0.0000 H   0  0  0  0  0  0  0  0  0  0  0  0
    2.3855    4.5146    0.0000 H   0  0  0  0  0  0  0  0  0  0  0  0
    2.1585    3.6676    0.0000 H   0  0  0  0  0  0  0  0  0  0  0  0
    3.0055    3.4407    0.0000 H   0  0  0  0  0  0  0  0  0  0  0  0
  1 12  1  0  0  0  0
  1 14  1  0  0  0  0
 19  2  1  6  0  0  0
  2 63  1  0  0  0  0
  3 17  2  0  0  0  0
  4 18  2  0  0  0  0
  5 25  2  0  0  0  0
  6 41  1  0  0  0  0
  6 44  1  0  0  0  0
  7 43  1  0  0  0  0
  7 45  1  0  0  0  0
  8 13  1  0  0  0  0
  8 14  1  0  0  0  0
  8 18  1  0  0  0  0
  9 17  1  0  0  0  0
  9 22  1  0  0  0  0
  9 57  1  0  0  0  0
 20 10  1  1  0  0  0
 10 25  1  0  0  0  0
 10 60  1  0  0  0  0
 11 25  1  0  0  0  0
 11 33  1  0  0  0  0
 11 67  1  0  0  0  0
 12 13  1  0  0  0  0
 12 15  1  0  0  0  0
 12 16  1  0  0  0  0
 13 17  1  1  0  0  0
 13 46  1  0  0  0  0
 14 47  1  0  0  0  0
 14 48  1  0  0  0  0
 15 49  1  0  0  0  0
 15 50  1  0  0  0  0
 15 51  1  0  0  0  0
 16 52  1  0  0  0  0
 16 53  1  0  0  0  0
 16 54  1  0  0  0  0
 18 19  1  0  0  0  0
 19 20  1  0  0  0  0
 19 55  1  0  0  0  0
 20 21  1  0  0  0  0
 20 56  1  0  0  0  0
 21 23  1  0  0  0  0
 21 58  1  0  0  0  0
 21 59  1  0  0  0  0
 22 24  1  0  0  0  0
 22 61  1  0  0  0  0
 22 62  1  0  0  0  0
 23 26  2  0  0  0  0
 23 27  1  0  0  0  0
 24 28  1  0  0  0  0
 24 29  2  0  0  0  0
 26 30  1  0  0  0  0
 26 64  1  0  0  0  0
 27 31  2  0  0  0  0
 27 65  1  0  0  0  0
 28 32  2  0  0  0  0
 28 35  1  0  0  0  0
 29 36  1  0  0  0  0
 29 66  1  0  0  0  0
 30 34  2  0  0  0  0
 30 68  1  0  0  0  0
 31 34  1  0  0  0  0
 31 69  1  0  0  0  0
 32 37  1  0  0  0  0
 32 70  1  0  0  0  0
 33 38  1  0  0  0  0
 33 71  1  0  0  0  0
 33 72  1  0  0  0  0
 34 73  1  0  0  0  0
 35 74  1  0  0  0  0
 35 75  1  0  0  0  0
 35 76  1  0  0  0  0
 36 37  2  0  0  0  0
 36 77  1  0  0  0  0
 37 78  1  0  0  0  0
 38 39  2  0  0  0  0
 38 40  1  0  0  0  0
 39 41  1  0  0  0  0
 39 79  1  0  0  0  0
 40 42  2  0  0  0  0
 40 80  1  0  0  0  0
 41 43  2  0  0  0  0
 42 43  1  0  0  0  0
 42 81  1  0  0  0  0
 44 82  1  0  0  0  0
 44 83  1  0  0  0  0
 44 84  1  0  0  0  0
 45 85  1  0  0  0  0
 45 86  1  0  0  0  0
 45 87  1  0  0  0  0
M  END
> <PUBCHEM_COMPOUND_CID>
514592
> <PUBCHEM_COMPOUND_CANONICALIZED>
1
> <PUBCHEM_CACTVS_COMPLEXITY>
978
> <PUBCHEM_CACTVS_HBOND_ACCEPTOR>
7
> <PUBCHEM_CACTVS_HBOND_DONOR>
4
> <PUBCHEM_CACTVS_ROTATABLE_BOND>
12
> <PUBCHEM_CACTVS_SUBSKEYS>
AAADcfB/uABAAAAAAAAAAAAAAAAAAWAAAAAwYMAAAAAAAAABUAAAHgQQCAAADDzh2AazBoPABgiIAiFSEAKCCABgIBAIiIHOjIiPdjqk8TuUcCps1hOaqAe42LKOoAABAAAQQABAAAIAACCAAAAAAAAAAA==
> <PUBCHEM_IUPAC_OPENEYE_NAME>
(4R)-3-[(2S,3S)-3-[(3,4-dimethoxyphenyl)methylcarbamoylamino]-2-hydroxy-4-phenyl-butanoyl]-5,5-dimethyl-N-(o-tolylmethyl)thiazolidine-4-carboxamide
> <PUBCHEM_IUPAC_CAS_NAME>
(4R)-3-[(2S,3S)-3-[[[(3,4-dimethoxyphenyl)methylamino]-oxomethyl]amino]-2-hydroxy-1-oxo-4-phenylbutyl]-5,5-dimethyl-N-[(2-methylphenyl)methyl]-4-thiazolidinecarboxamide
> <PUBCHEM_IUPAC_NAME_MARKUP>
(4<I>R</I>)-3-[(2<I>S</I>,3<I>S</I>)-3-[(3,4-dimethoxyphenyl)methylcarbamoylamino]-2-hydroxy-4-phenylbutanoyl]-5,5-dimethyl-<I>N</I>-[(2-methylphenyl)methyl]-1,3-thiazolidine-4-carboxamide
> <PUBCHEM_IUPAC_NAME>
(4R)-3-[(2S,3S)-3-[(3,4-dimethoxyphenyl)methylcarbamoylamino]-2-hydroxy-4-phenylbutanoyl]-5,5-dimethyl-N-[(2-methylphenyl)methyl]-1,3-thiazolidine-4-carboxamide
> <PUBCHEM_IUPAC_SYSTEMATIC_NAME>
(4R)-3-[(2S,3S)-3-[(3,4-dimethoxyphenyl)methylcarbamoylamino]-2-oxidanyl-4-phenyl-butanoyl]-5,5-dimethyl-N-[(2-methylphenyl)methyl]-1,3-thiazolidine-4-carboxamide
> <PUBCHEM_IUPAC_TRADITIONAL_NAME>
(4R)-3-[(2S,3S)-2-hydroxy-4-phenyl-3-(veratrylcarbamoylamino)butanoyl]-5,5-dimethyl-N-(2-methylbenzyl)thiazolidine-4-carboxamide
> <PUBCHEM_IUPAC_INCHI>
InChI=1S/C34H42N4O6S/c1-22-11-9-10-14-25(22)20-35-31(40)30-34(2,3)45-21-38(30)32(41)29(39)26(17-23-12-7-6-8-13-23)37-33(42)36-19-24-15-16-27(43-4)28(18-24)44-5/h6-16,18,26,29-30,39H,17,19-21H2,1-5H3,(H,35,40)(H2,36,37,42)/t26-,29-,30+/m0/s1
> <PUBCHEM_IUPAC_INCHIKEY>
MSBINLQOBMEZEE-BHBSRLOASA-N
> <PUBCHEM_XLOGP3_AA>
4.1
> <PUBCHEM_EXACT_MASS>
634.28250625
> <PUBCHEM_MOLECULAR_FORMULA>
C34H42N4O6S
> <PUBCHEM_MOLECULAR_WEIGHT>
634.8
> <PUBCHEM_OPENEYE_CAN_SMILES>
CC1=CC=CC=C1CNC(=O)C2C(SCN2C(=O)C(C(CC3=CC=CC=C3)NC(=O)NCC4=CC(=C(C=C4)OC)OC)O)(C)C
> <PUBCHEM_OPENEYE_ISO_SMILES>
CC1=CC=CC=C1CNC(=O)[C@@H]2C(SCN2C(=O)[C@H]([C@H](CC3=CC=CC=C3)NC(=O)NCC4=CC(=C(C=C4)OC)OC)O)(C)C
> <PUBCHEM_CACTVS_TPSA>
155
> <PUBCHEM_MONOISOTOPIC_WEIGHT>
634.28250625
> <PUBCHEM_TOTAL_CHARGE>
0
> <PUBCHEM_HEAVY_ATOM_COUNT>
45
> <PUBCHEM_ATOM_DEF_STEREO_COUNT>
3
> <PUBCHEM_ATOM_UDEF_STEREO_COUNT>
0
> <PUBCHEM_BOND_DEF_STEREO_COUNT>
0
> <PUBCHEM_BOND_UDEF_STEREO_COUNT>
0
> <PUBCHEM_ISOTOPIC_ATOM_COUNT>
0
> <PUBCHEM_COMPONENT_COUNT>
1
> <PUBCHEM_CACTVS_TAUTO_COUNT>
-1
> <PUBCHEM_COORDINATE_TYPE>
1
5
255
> <PUBCHEM_BONDANNOTATIONS>
20  10  5
13  17  5
19  2  6
23  26  8
23  27  8
24  28  8
24  29  8
26  30  8
27  31  8
28  32  8
29  36  8
30  34  8
31  34  8
32  37  8
36  37  8
38  39  8
38  40  8
39  41  8
40  42  8
41  43  8
42  43  8
$$$$
