514500
  -OEChem-10302200282D
 81 85  0     1  0  0  0  0  0999 V2000
   10.3387    1.5049    0.0000 S   0  0  0  0  0  0  0  0  0  0  0  0
    8.9726   -1.5340    0.0000 O   0  0  0  0  0  0  0  0  0  0  0  0
    7.5434    1.8921    0.0000 O   0  0  0  0  0  0  0  0  0  0  0  0
    7.8707   -0.7333    0.0000 O   0  0  0  0  0  0  0  0  0  0  0  0
    6.8002    2.5612    0.0000 O   0  0  0  0  0  0  0  0  0  0  0  0
    2.4608    2.9724    0.0000 O   0  0  0  0  0  0  0  0  0  0  0  0
    9.0296    0.5538    0.0000 N   0  0  0  0  0  0  0  0  0  0  0  0
   10.7047   -1.5340    0.0000 N   0  0  0  0  0  0  0  0  0  0  0  0
    5.6412    1.2741    0.0000 N   0  0  0  0  0  0  0  0  0  0  0  0
   12.4647   -4.5686    0.0000 N   0  0  0  0  0  0  0  0  0  0  0  0
   10.6477    0.5538    0.0000 C   0  0  0  0  0  0  0  0  0  0  0  0
    9.8387   -0.0340    0.0000 C   0  0  1  0  0  0  0  0  0  0  0  0
    9.3387    1.5049    0.0000 C   0  0  0  0  0  0  0  0  0  0  0  0
    9.8387   -1.0340    0.0000 C   0  0  0  0  0  0  0  0  0  0  0  0
   10.7047   -2.5340    0.0000 C   0  0  2  0  0  0  0  0  0  0  0  0
   11.5987    0.8628    0.0000 C   0  0  0  0  0  0  0  0  0  0  0  0
   11.2355   -0.2552    0.0000 C   0  0  0  0  0  0  0  0  0  0  0  0
    8.0786    0.2448    0.0000 C   0  0  0  0  0  0  0  0  0  0  0  0
    9.8387   -3.0340    0.0000 C   0  0  0  0  0  0  0  0  0  0  0  0
    7.3354    0.9139    0.0000 C   0  0  2  0  0  0  0  0  0  0  0  0
   11.5707   -3.0340    0.0000 C   0  0  0  0  0  0  0  0  0  0  0  0
    9.8387   -4.0340    0.0000 C   0  0  0  0  0  0  0  0  0  0  0  0
   10.7047   -4.5340    0.0000 C   0  0  0  0  0  0  0  0  0  0  0  0
    6.3844    0.6049    0.0000 C   0  0  2  0  0  0  0  0  0  0  0  0
   11.5707   -4.0340    0.0000 C   0  0  0  0  0  0  0  0  0  0  0  0
    6.1765   -0.3732    0.0000 C   0  0  0  0  0  0  0  0  0  0  0  0
   12.4647   -2.4993    0.0000 C   0  0  0  0  0  0  0  0  0  0  0  0
    5.2254   -0.6822    0.0000 C   0  0  0  0  0  0  0  0  0  0  0  0
   13.3707   -3.0131    0.0000 C   0  0  0  0  0  0  0  0  0  0  0  0
   13.3707   -4.0548    0.0000 C   0  0  0  0  0  0  0  0  0  0  0  0
    5.8492    2.2522    0.0000 C   0  0  0  0  0  0  0  0  0  0  0  0
    5.0175   -1.6604    0.0000 C   0  0  0  0  0  0  0  0  0  0  0  0
    4.4823   -0.0131    0.0000 C   0  0  0  0  0  0  0  0  0  0  0  0
    5.1060    2.9213    0.0000 C   0  0  0  0  0  0  0  0  0  0  0  0
    4.0664   -1.9694    0.0000 C   0  0  0  0  0  0  0  0  0  0  0  0
    3.5312   -0.3221    0.0000 C   0  0  0  0  0  0  0  0  0  0  0  0
    4.1550    2.6123    0.0000 C   0  0  0  0  0  0  0  0  0  0  0  0
    3.3233   -1.3003    0.0000 C   0  0  0  0  0  0  0  0  0  0  0  0
    5.3139    3.8995    0.0000 C   0  0  0  0  0  0  0  0  0  0  0  0
    3.4118    3.2814    0.0000 C   0  0  0  0  0  0  0  0  0  0  0  0
    3.9470    1.6342    0.0000 C   0  0  0  0  0  0  0  0  0  0  0  0
    4.5708    4.5686    0.0000 C   0  0  0  0  0  0  0  0  0  0  0  0
    3.6197    4.2596    0.0000 C   0  0  0  0  0  0  0  0  0  0  0  0
    9.2862   -0.3154    0.0000 H   0  0  0  0  0  0  0  0  0  0  0  0
    9.4035    2.1215    0.0000 H   0  0  0  0  0  0  0  0  0  0  0  0
    8.7322    1.6338    0.0000 H   0  0  0  0  0  0  0  0  0  0  0  0
   11.2416   -2.2240    0.0000 H   0  0  0  0  0  0  0  0  0  0  0  0
   11.7903    0.2732    0.0000 H   0  0  0  0  0  0  0  0  0  0  0  0
   12.1884    1.0544    0.0000 H   0  0  0  0  0  0  0  0  0  0  0  0
   11.4071    1.4525    0.0000 H   0  0  0  0  0  0  0  0  0  0  0  0
   10.7339   -0.6196    0.0000 H   0  0  0  0  0  0  0  0  0  0  0  0
   11.5999   -0.7568    0.0000 H   0  0  0  0  0  0  0  0  0  0  0  0
   11.7371    0.1092    0.0000 H   0  0  0  0  0  0  0  0  0  0  0  0
    9.6266   -2.4513    0.0000 H   0  0  0  0  0  0  0  0  0  0  0  0
    9.2281   -3.1416    0.0000 H   0  0  0  0  0  0  0  0  0  0  0  0
   11.2416   -1.2240    0.0000 H   0  0  0  0  0  0  0  0  0  0  0  0
    6.8747    1.3288    0.0000 H   0  0  0  0  0  0  0  0  0  0  0  0
    9.2281   -3.9263    0.0000 H   0  0  0  0  0  0  0  0  0  0  0  0
    9.6266   -4.6166    0.0000 H   0  0  0  0  0  0  0  0  0  0  0  0
   10.3062   -5.0089    0.0000 H   0  0  0  0  0  0  0  0  0  0  0  0
   11.1032   -5.0089    0.0000 H   0  0  0  0  0  0  0  0  0  0  0  0
    5.7947    0.4133    0.0000 H   0  0  0  0  0  0  0  0  0  0  0  0
    6.2628   -0.9872    0.0000 H   0  0  0  0  0  0  0  0  0  0  0  0
    6.7961   -0.3949    0.0000 H   0  0  0  0  0  0  0  0  0  0  0  0
   12.4575   -1.8793    0.0000 H   0  0  0  0  0  0  0  0  0  0  0  0
    5.0516    1.0825    0.0000 H   0  0  0  0  0  0  0  0  0  0  0  0
    8.1330    2.0837    0.0000 H   0  0  0  0  0  0  0  0  0  0  0  0
   13.9065   -2.7011    0.0000 H   0  0  0  0  0  0  0  0  0  0  0  0
   13.9065   -4.3668    0.0000 H   0  0  0  0  0  0  0  0  0  0  0  0
    5.4783   -2.0752    0.0000 H   0  0  0  0  0  0  0  0  0  0  0  0
    4.6112    0.5933    0.0000 H   0  0  0  0  0  0  0  0  0  0  0  0
    3.9375   -2.5758    0.0000 H   0  0  0  0  0  0  0  0  0  0  0  0
    3.0705    0.0927    0.0000 H   0  0  0  0  0  0  0  0  0  0  0  0
    2.7336   -1.4919    0.0000 H   0  0  0  0  0  0  0  0  0  0  0  0
    5.9036    4.0911    0.0000 H   0  0  0  0  0  0  0  0  0  0  0  0
    3.3406    1.7631    0.0000 H   0  0  0  0  0  0  0  0  0  0  0  0
    3.8181    1.0277    0.0000 H   0  0  0  0  0  0  0  0  0  0  0  0
    4.5535    1.5053    0.0000 H   0  0  0  0  0  0  0  0  0  0  0  0
    4.6997    5.1751    0.0000 H   0  0  0  0  0  0  0  0  0  0  0  0
    3.1590    4.6745    0.0000 H   0  0  0  0  0  0  0  0  0  0  0  0
    2.0000    3.3873    0.0000 H   0  0  0  0  0  0  0  0  0  0  0  0
  1 11  1  0  0  0  0
  1 13  1  0  0  0  0
  2 14  2  0  0  0  0
 20  3  1  6  0  0  0
  3 67  1  0  0  0  0
  4 18  2  0  0  0  0
  5 31  2  0  0  0  0
  6 40  1  0  0  0  0
  6 81  1  0  0  0  0
  7 12  1  0  0  0  0
  7 13  1  0  0  0  0
  7 18  1  0  0  0  0
  8 14  1  0  0  0  0
 15  8  1  1  0  0  0
  8 56  1  0  0  0  0
 24  9  1  6  0  0  0
  9 31  1  0  0  0  0
  9 66  1  0  0  0  0
 10 25  1  0  0  0  0
 10 30  2  0  0  0  0
 11 12  1  0  0  0  0
 11 16  1  0  0  0  0
 11 17  1  0  0  0  0
 12 14  1  1  0  0  0
 12 44  1  0  0  0  0
 13 45  1  0  0  0  0
 13 46  1  0  0  0  0
 15 19  1  0  0  0  0
 15 21  1  0  0  0  0
 15 47  1  0  0  0  0
 16 48  1  0  0  0  0
 16 49  1  0  0  0  0
 16 50  1  0  0  0  0
 17 51  1  0  0  0  0
 17 52  1  0  0  0  0
 17 53  1  0  0  0  0
 18 20  1  0  0  0  0
 19 22  1  0  0  0  0
 19 54  1  0  0  0  0
 19 55  1  0  0  0  0
 20 24  1  0  0  0  0
 20 57  1  0  0  0  0
 21 25  2  0  0  0  0
 21 27  1  0  0  0  0
 22 23  1  0  0  0  0
 22 58  1  0  0  0  0
 22 59  1  0  0  0  0
 23 25  1  0  0  0  0
 23 60  1  0  0  0  0
 23 61  1  0  0  0  0
 24 26  1  0  0  0  0
 24 62  1  0  0  0  0
 26 28  1  0  0  0  0
 26 63  1  0  0  0  0
 26 64  1  0  0  0  0
 27 29  2  0  0  0  0
 27 65  1  0  0  0  0
 28 32  2  0  0  0  0
 28 33  1  0  0  0  0
 29 30  1  0  0  0  0
 29 68  1  0  0  0  0
 30 69  1  0  0  0  0
 31 34  1  0  0  0  0
 32 35  1  0  0  0  0
 32 70  1  0  0  0  0
 33 36  2  0  0  0  0
 33 71  1  0  0  0  0
 34 37  2  0  0  0  0
 34 39  1  0  0  0  0
 35 38  2  0  0  0  0
 35 72  1  0  0  0  0
 36 38  1  0  0  0  0
 36 73  1  0  0  0  0
 37 40  1  0  0  0  0
 37 41  1  0  0  0  0
 38 74  1  0  0  0  0
 39 42  2  0  0  0  0
 39 75  1  0  0  0  0
 40 43  2  0  0  0  0
 41 76  1  0  0  0  0
 41 77  1  0  0  0  0
 41 78  1  0  0  0  0
 42 43  1  0  0  0  0
 42 79  1  0  0  0  0
 43 80  1  0  0  0  0
M  END
> <PUBCHEM_COMPOUND_CID>
514500
> <PUBCHEM_COMPOUND_CANONICALIZED>
1
> <PUBCHEM_CACTVS_COMPLEXITY>
990
> <PUBCHEM_CACTVS_HBOND_ACCEPTOR>
7
> <PUBCHEM_CACTVS_HBOND_DONOR>
4
> <PUBCHEM_CACTVS_ROTATABLE_BOND>
8
> <PUBCHEM_CACTVS_SUBSKEYS>
AAADcfB/uABAAAAAAAAAAAAAAAAAAWAAAAA8YMEAAAAAAACx0AAAHgQQCAAADDzh3ga+hpPIEgioAzV3VAKCgCB1IjAI2KH+bNgKdvri1bOUcQhk1hHY2Ye6yLCOgAABAAAYAAAAAAIACDQAAAAAAAAAAA==
> <PUBCHEM_IUPAC_OPENEYE_NAME>
(4R)-3-[(2S,3S)-2-hydroxy-3-[(3-hydroxy-2-methyl-benzoyl)amino]-4-phenyl-butanoyl]-5,5-dimethyl-N-[(5R)-5,6,7,8-tetrahydroquinolin-5-yl]thiazolidine-4-carboxamide
> <PUBCHEM_IUPAC_CAS_NAME>
(4R)-3-[(2S,3S)-2-hydroxy-3-[[(3-hydroxy-2-methylphenyl)-oxomethyl]amino]-1-oxo-4-phenylbutyl]-5,5-dimethyl-N-[(5R)-5,6,7,8-tetrahydroquinolin-5-yl]-4-thiazolidinecarboxamide
> <PUBCHEM_IUPAC_NAME_MARKUP>
(4<I>R</I>)-3-[(2<I>S</I>,3<I>S</I>)-2-hydroxy-3-[(3-hydroxy-2-methylbenzoyl)amino]-4-phenylbutanoyl]-5,5-dimethyl-<I>N</I>-[(5<I>R</I>)-5,6,7,8-tetrahydroquinolin-5-yl]-1,3-thiazolidine-4-carboxamide
> <PUBCHEM_IUPAC_NAME>
(4R)-3-[(2S,3S)-2-hydroxy-3-[(3-hydroxy-2-methylbenzoyl)amino]-4-phenylbutanoyl]-5,5-dimethyl-N-[(5R)-5,6,7,8-tetrahydroquinolin-5-yl]-1,3-thiazolidine-4-carboxamide
> <PUBCHEM_IUPAC_SYSTEMATIC_NAME>
(4R)-5,5-dimethyl-3-[(2S,3S)-3-[(2-methyl-3-oxidanyl-phenyl)carbonylamino]-2-oxidanyl-4-phenyl-butanoyl]-N-[(5R)-5,6,7,8-tetrahydroquinolin-5-yl]-1,3-thiazolidine-4-carboxamide
> <PUBCHEM_IUPAC_TRADITIONAL_NAME>
(4R)-3-[(2S,3S)-2-hydroxy-3-[(3-hydroxy-2-methyl-benzoyl)amino]-4-phenyl-butanoyl]-5,5-dimethyl-N-[(5R)-5,6,7,8-tetrahydroquinolin-5-yl]thiazolidine-4-carboxamide
> <PUBCHEM_IUPAC_INCHI>
InChI=1S/C33H38N4O5S/c1-20-22(12-7-16-27(20)38)30(40)36-26(18-21-10-5-4-6-11-21)28(39)32(42)37-19-43-33(2,3)29(37)31(41)35-25-15-8-14-24-23(25)13-9-17-34-24/h4-7,9-13,16-17,25-26,28-29,38-39H,8,14-15,18-19H2,1-3H3,(H,35,41)(H,36,40)/t25-,26+,28+,29-/m1/s1
> <PUBCHEM_IUPAC_INCHIKEY>
UDZKGRKCULOVSJ-FUCIELGGSA-N
> <PUBCHEM_XLOGP3_AA>
3.9
> <PUBCHEM_EXACT_MASS>
602.25629150
> <PUBCHEM_MOLECULAR_FORMULA>
C33H38N4O5S
> <PUBCHEM_MOLECULAR_WEIGHT>
602.7
> <PUBCHEM_OPENEYE_CAN_SMILES>
CC1=C(C=CC=C1O)C(=O)NC(CC2=CC=CC=C2)C(C(=O)N3CSC(C3C(=O)NC4CCCC5=C4C=CC=N5)(C)C)O
> <PUBCHEM_OPENEYE_ISO_SMILES>
CC1=C(C=CC=C1O)C(=O)N[C@@H](CC2=CC=CC=C2)[C@@H](C(=O)N3CSC([C@H]3C(=O)N[C@@H]4CCCC5=C4C=CC=N5)(C)C)O
> <PUBCHEM_CACTVS_TPSA>
157
> <PUBCHEM_MONOISOTOPIC_WEIGHT>
602.25629150
> <PUBCHEM_TOTAL_CHARGE>
0
> <PUBCHEM_HEAVY_ATOM_COUNT>
43
> <PUBCHEM_ATOM_DEF_STEREO_COUNT>
4
> <PUBCHEM_ATOM_UDEF_STEREO_COUNT>
0
> <PUBCHEM_BOND_DEF_STEREO_COUNT>
0
> <PUBCHEM_BOND_UDEF_STEREO_COUNT>
0
> <PUBCHEM_ISOTOPIC_ATOM_COUNT>
0
> <PUBCHEM_COMPONENT_COUNT>
1
> <PUBCHEM_CACTVS_TAUTO_COUNT>
-1
> <PUBCHEM_COORDINATE_TYPE>
1
5
255
> <PUBCHEM_BONDANNOTATIONS>
10  25  8
10  30  8
12  14  5
21  25  8
21  27  8
27  29  8
28  32  8
28  33  8
29  30  8
20  3  6
32  35  8
33  36  8
34  37  8
34  39  8
35  38  8
36  38  8
37  40  8
39  42  8
40  43  8
42  43  8
15  8  5
24  9  6
$$$$
