514577
  -OEChem-10302200282D
 76 79  0     1  0  0  0  0  0999 V2000
    8.3916    4.5612    0.0000 S   0  0  0  0  0  0  0  0  0  0  0  0
    7.8916   -0.9776    0.0000 S   0  0  0  0  0  0  0  0  0  0  0  0
    9.6237    2.0224    0.0000 O   0  0  0  0  0  0  0  0  0  0  0  0
    7.0256    1.5224    0.0000 O   0  0  0  0  0  0  0  0  0  0  0  0
    5.9236    2.3230    0.0000 O   0  0  0  0  0  0  0  0  0  0  0  0
    8.8916   -0.9776    0.0000 O   0  0  0  0  0  0  0  0  0  0  0  0
    6.8916   -0.9776    0.0000 O   0  0  0  0  0  0  0  0  0  0  0  0
    7.8916    3.0224    0.0000 N   0  0  0  0  0  0  0  0  0  0  0  0
    5.3884    3.9702    0.0000 N   0  0  0  0  0  0  0  0  0  0  0  0
    7.8916    0.0224    0.0000 N   0  0  0  0  0  0  0  0  0  0  0  0
    7.8916   -5.9776    0.0000 N   0  0  0  0  0  0  0  0  0  0  0  0
    7.3916    4.5612    0.0000 C   0  0  0  0  0  0  0  0  0  0  0  0
    7.0826    3.6101    0.0000 C   0  0  1  0  0  0  0  0  0  0  0  0
    8.7006    3.6101    0.0000 C   0  0  0  0  0  0  0  0  0  0  0  0
    7.3916    5.5612    0.0000 C   0  0  0  0  0  0  0  0  0  0  0  0
    6.4406    4.8702    0.0000 C   0  0  0  0  0  0  0  0  0  0  0  0
    7.8916    2.0224    0.0000 C   0  0  0  0  0  0  0  0  0  0  0  0
    6.1316    3.3011    0.0000 C   0  0  0  0  0  0  0  0  0  0  0  0
    8.7576    1.5224    0.0000 C   0  0  2  0  0  0  0  0  0  0  0  0
    8.7576    0.5224    0.0000 C   0  0  2  0  0  0  0  0  0  0  0  0
    9.6237    0.0224    0.0000 C   0  0  0  0  0  0  0  0  0  0  0  0
    4.4374    3.6612    0.0000 C   0  0  0  0  0  0  0  0  0  0  0  0
   10.4897    0.5224    0.0000 C   0  0  0  0  0  0  0  0  0  0  0  0
    3.6942    4.3304    0.0000 C   0  0  0  0  0  0  0  0  0  0  0  0
    7.8916   -1.9776    0.0000 C   0  0  0  0  0  0  0  0  0  0  0  0
   10.4897    1.5224    0.0000 C   0  0  0  0  0  0  0  0  0  0  0  0
   11.3557    0.0224    0.0000 C   0  0  0  0  0  0  0  0  0  0  0  0
    2.7431    4.0214    0.0000 C   0  0  0  0  0  0  0  0  0  0  0  0
    3.9021    5.3085    0.0000 C   0  0  0  0  0  0  0  0  0  0  0  0
   11.3557    2.0224    0.0000 C   0  0  0  0  0  0  0  0  0  0  0  0
   12.2217    0.5224    0.0000 C   0  0  0  0  0  0  0  0  0  0  0  0
    7.0256   -2.4776    0.0000 C   0  0  0  0  0  0  0  0  0  0  0  0
    8.7576   -2.4776    0.0000 C   0  0  0  0  0  0  0  0  0  0  0  0
   12.2217    1.5224    0.0000 C   0  0  0  0  0  0  0  0  0  0  0  0
    2.0000    4.6905    0.0000 C   0  0  0  0  0  0  0  0  0  0  0  0
    2.5352    3.0432    0.0000 C   0  0  0  0  0  0  0  0  0  0  0  0
    3.1590    5.9776    0.0000 C   0  0  0  0  0  0  0  0  0  0  0  0
    7.0256   -3.4776    0.0000 C   0  0  0  0  0  0  0  0  0  0  0  0
    8.7576   -3.4776    0.0000 C   0  0  0  0  0  0  0  0  0  0  0  0
    2.2079    5.6686    0.0000 C   0  0  0  0  0  0  0  0  0  0  0  0
    7.8916   -3.9776    0.0000 C   0  0  0  0  0  0  0  0  0  0  0  0
    7.8916   -4.9776    0.0000 C   0  0  0  0  0  0  0  0  0  0  0  0
    6.9856    2.9978    0.0000 H   0  0  0  0  0  0  0  0  0  0  0  0
    9.0106    3.0732    0.0000 H   0  0  0  0  0  0  0  0  0  0  0  0
    9.2670    3.8623    0.0000 H   0  0  0  0  0  0  0  0  0  0  0  0
    8.0116    5.5612    0.0000 H   0  0  0  0  0  0  0  0  0  0  0  0
    7.3916    6.1812    0.0000 H   0  0  0  0  0  0  0  0  0  0  0  0
    6.7716    5.5612    0.0000 H   0  0  0  0  0  0  0  0  0  0  0  0
    6.6322    5.4599    0.0000 H   0  0  0  0  0  0  0  0  0  0  0  0
    5.8509    5.0618    0.0000 H   0  0  0  0  0  0  0  0  0  0  0  0
    6.2490    4.2806    0.0000 H   0  0  0  0  0  0  0  0  0  0  0  0
    9.2946    1.2124    0.0000 H   0  0  0  0  0  0  0  0  0  0  0  0
    8.2207    0.8324    0.0000 H   0  0  0  0  0  0  0  0  0  0  0  0
    9.2251   -0.4526    0.0000 H   0  0  0  0  0  0  0  0  0  0  0  0
   10.0222   -0.4526    0.0000 H   0  0  0  0  0  0  0  0  0  0  0  0
    5.5173    4.5767    0.0000 H   0  0  0  0  0  0  0  0  0  0  0  0
    7.3547    0.3324    0.0000 H   0  0  0  0  0  0  0  0  0  0  0  0
    3.9488    3.2795    0.0000 H   0  0  0  0  0  0  0  0  0  0  0  0
    4.7284    3.1138    0.0000 H   0  0  0  0  0  0  0  0  0  0  0  0
    9.6237    2.6424    0.0000 H   0  0  0  0  0  0  0  0  0  0  0  0
    9.9528    1.8324    0.0000 H   0  0  0  0  0  0  0  0  0  0  0  0
   11.3557   -0.5976    0.0000 H   0  0  0  0  0  0  0  0  0  0  0  0
    4.4918    5.5001    0.0000 H   0  0  0  0  0  0  0  0  0  0  0  0
   11.3557    2.6424    0.0000 H   0  0  0  0  0  0  0  0  0  0  0  0
   12.7587    0.2124    0.0000 H   0  0  0  0  0  0  0  0  0  0  0  0
    6.4887   -2.1676    0.0000 H   0  0  0  0  0  0  0  0  0  0  0  0
    9.2946   -2.1676    0.0000 H   0  0  0  0  0  0  0  0  0  0  0  0
   12.7587    1.8324    0.0000 H   0  0  0  0  0  0  0  0  0  0  0  0
    1.4103    4.4989    0.0000 H   0  0  0  0  0  0  0  0  0  0  0  0
    1.9288    3.1721    0.0000 H   0  0  0  0  0  0  0  0  0  0  0  0
    2.4063    2.4368    0.0000 H   0  0  0  0  0  0  0  0  0  0  0  0
    3.1417    2.9143    0.0000 H   0  0  0  0  0  0  0  0  0  0  0  0
    3.2879    6.5841    0.0000 H   0  0  0  0  0  0  0  0  0  0  0  0
    6.4887   -3.7876    0.0000 H   0  0  0  0  0  0  0  0  0  0  0  0
    9.2946   -3.7876    0.0000 H   0  0  0  0  0  0  0  0  0  0  0  0
    1.7472    6.0835    0.0000 H   0  0  0  0  0  0  0  0  0  0  0  0
  1 12  1  0  0  0  0
  1 14  1  0  0  0  0
  2  6  2  0  0  0  0
  2  7  2  0  0  0  0
  2 10  1  0  0  0  0
  2 25  1  0  0  0  0
 19  3  1  1  0  0  0
  3 60  1  0  0  0  0
  4 17  2  0  0  0  0
  5 18  2  0  0  0  0
  8 13  1  0  0  0  0
  8 14  1  0  0  0  0
  8 17  1  0  0  0  0
  9 18  1  0  0  0  0
  9 22  1  0  0  0  0
  9 56  1  0  0  0  0
 20 10  1  6  0  0  0
 10 57  1  0  0  0  0
 11 42  3  0  0  0  0
 12 13  1  0  0  0  0
 12 15  1  0  0  0  0
 12 16  1  0  0  0  0
 13 18  1  6  0  0  0
 13 43  1  0  0  0  0
 14 44  1  0  0  0  0
 14 45  1  0  0  0  0
 15 46  1  0  0  0  0
 15 47  1  0  0  0  0
 15 48  1  0  0  0  0
 16 49  1  0  0  0  0
 16 50  1  0  0  0  0
 16 51  1  0  0  0  0
 17 19  1  0  0  0  0
 19 20  1  0  0  0  0
 19 52  1  0  0  0  0
 20 21  1  0  0  0  0
 20 53  1  0  0  0  0
 21 23  1  0  0  0  0
 21 54  1  0  0  0  0
 21 55  1  0  0  0  0
 22 24  1  0  0  0  0
 22 58  1  0  0  0  0
 22 59  1  0  0  0  0
 23 26  2  0  0  0  0
 23 27  1  0  0  0  0
 24 28  1  0  0  0  0
 24 29  2  0  0  0  0
 25 32  2  0  0  0  0
 25 33  1  0  0  0  0
 26 30  1  0  0  0  0
 26 61  1  0  0  0  0
 27 31  2  0  0  0  0
 27 62  1  0  0  0  0
 28 35  2  0  0  0  0
 28 36  1  0  0  0  0
 29 37  1  0  0  0  0
 29 63  1  0  0  0  0
 30 34  2  0  0  0  0
 30 64  1  0  0  0  0
 31 34  1  0  0  0  0
 31 65  1  0  0  0  0
 32 38  1  0  0  0  0
 32 66  1  0  0  0  0
 33 39  2  0  0  0  0
 33 67  1  0  0  0  0
 34 68  1  0  0  0  0
 35 40  1  0  0  0  0
 35 69  1  0  0  0  0
 36 70  1  0  0  0  0
 36 71  1  0  0  0  0
 36 72  1  0  0  0  0
 37 40  2  0  0  0  0
 37 73  1  0  0  0  0
 38 41  2  0  0  0  0
 38 74  1  0  0  0  0
 39 41  1  0  0  0  0
 39 75  1  0  0  0  0
 40 76  1  0  0  0  0
 41 42  1  0  0  0  0
M  END
> <PUBCHEM_COMPOUND_CID>
514577
> <PUBCHEM_COMPOUND_CANONICALIZED>
1
> <PUBCHEM_CACTVS_COMPLEXITY>
1090
> <PUBCHEM_CACTVS_HBOND_ACCEPTOR>
8
> <PUBCHEM_CACTVS_HBOND_DONOR>
3
> <PUBCHEM_CACTVS_ROTATABLE_BOND>
10
> <PUBCHEM_CACTVS_SUBSKEYS>
AAADcfB7uABgAAAAAAAAAAAAAAAAAWAAAAAwYMAAAAAAAAABUAAAHgQQSAAADDzh2AayAYPAAgqYBiFSEHLiABBgABAIiJnIBIgK8Dqg0TGUYAhklgCYiA+YyKCOkAAAAAAQAAAgAAAAACAAAAAAAAAAAA==
> <PUBCHEM_IUPAC_OPENEYE_NAME>
(4R)-3-[(2S,3S)-3-[(4-cyanophenyl)sulfonylamino]-2-hydroxy-4-phenyl-butanoyl]-5,5-dimethyl-N-(o-tolylmethyl)thiazolidine-4-carboxamide
> <PUBCHEM_IUPAC_CAS_NAME>
(4R)-3-[(2S,3S)-3-[(4-cyanophenyl)sulfonylamino]-2-hydroxy-1-oxo-4-phenylbutyl]-5,5-dimethyl-N-[(2-methylphenyl)methyl]-4-thiazolidinecarboxamide
> <PUBCHEM_IUPAC_NAME_MARKUP>
(4<I>R</I>)-3-[(2<I>S</I>,3<I>S</I>)-3-[(4-cyanophenyl)sulfonylamino]-2-hydroxy-4-phenylbutanoyl]-5,5-dimethyl-<I>N</I>-[(2-methylphenyl)methyl]-1,3-thiazolidine-4-carboxamide
> <PUBCHEM_IUPAC_NAME>
(4R)-3-[(2S,3S)-3-[(4-cyanophenyl)sulfonylamino]-2-hydroxy-4-phenylbutanoyl]-5,5-dimethyl-N-[(2-methylphenyl)methyl]-1,3-thiazolidine-4-carboxamide
> <PUBCHEM_IUPAC_SYSTEMATIC_NAME>
(4R)-3-[(2S,3S)-3-[(4-cyanophenyl)sulfonylamino]-2-oxidanyl-4-phenyl-butanoyl]-5,5-dimethyl-N-[(2-methylphenyl)methyl]-1,3-thiazolidine-4-carboxamide
> <PUBCHEM_IUPAC_TRADITIONAL_NAME>
(4R)-3-[(2S,3S)-3-[(4-cyanophenyl)sulfonylamino]-2-hydroxy-4-phenyl-butanoyl]-5,5-dimethyl-N-(2-methylbenzyl)thiazolidine-4-carboxamide
> <PUBCHEM_IUPAC_INCHI>
InChI=1S/C31H34N4O5S2/c1-21-9-7-8-12-24(21)19-33-29(37)28-31(2,3)41-20-35(28)30(38)27(36)26(17-22-10-5-4-6-11-22)34-42(39,40)25-15-13-23(18-32)14-16-25/h4-16,26-28,34,36H,17,19-20H2,1-3H3,(H,33,37)/t26-,27-,28+/m0/s1
> <PUBCHEM_IUPAC_INCHIKEY>
WHDYQHKZTBFELE-HZFUHODCSA-N
> <PUBCHEM_XLOGP3_AA>
3.9
> <PUBCHEM_EXACT_MASS>
606.19706254
> <PUBCHEM_MOLECULAR_FORMULA>
C31H34N4O5S2
> <PUBCHEM_MOLECULAR_WEIGHT>
606.8
> <PUBCHEM_OPENEYE_CAN_SMILES>
CC1=CC=CC=C1CNC(=O)C2C(SCN2C(=O)C(C(CC3=CC=CC=C3)NS(=O)(=O)C4=CC=C(C=C4)C#N)O)(C)C
> <PUBCHEM_OPENEYE_ISO_SMILES>
CC1=CC=CC=C1CNC(=O)[C@@H]2C(SCN2C(=O)[C@H]([C@H](CC3=CC=CC=C3)NS(=O)(=O)C4=CC=C(C=C4)C#N)O)(C)C
> <PUBCHEM_CACTVS_TPSA>
173
> <PUBCHEM_MONOISOTOPIC_WEIGHT>
606.19706254
> <PUBCHEM_TOTAL_CHARGE>
0
> <PUBCHEM_HEAVY_ATOM_COUNT>
42
> <PUBCHEM_ATOM_DEF_STEREO_COUNT>
3
> <PUBCHEM_ATOM_UDEF_STEREO_COUNT>
0
> <PUBCHEM_BOND_DEF_STEREO_COUNT>
0
> <PUBCHEM_BOND_UDEF_STEREO_COUNT>
0
> <PUBCHEM_ISOTOPIC_ATOM_COUNT>
0
> <PUBCHEM_COMPONENT_COUNT>
1
> <PUBCHEM_CACTVS_TAUTO_COUNT>
-1
> <PUBCHEM_COORDINATE_TYPE>
1
5
255
> <PUBCHEM_BONDANNOTATIONS>
20  10  6
13  18  6
23  26  8
23  27  8
24  28  8
24  29  8
25  32  8
25  33  8
26  30  8
27  31  8
28  35  8
29  37  8
19  3  5
30  34  8
31  34  8
32  38  8
33  39  8
35  40  8
37  40  8
38  41  8
39  41  8
$$$$
