514557
  -OEChem-10302200282D
 71 75  0     1  0  0  0  0  0999 V2000
    5.7668    2.3995    0.0000 S   0  0  0  0  0  0  0  0  0  0  0  0
    8.5816    2.1970    0.0000 O   0  0  0  0  0  0  0  0  0  0  0  0
    7.7155   -0.3030    0.0000 O   0  0  0  0  0  0  0  0  0  0  0  0
    6.4712   -0.8570    0.0000 O   0  0  0  0  0  0  0  0  0  0  0  0
    2.8090   -1.1962    0.0000 O   0  0  0  0  0  0  0  0  0  0  0  0
   11.1796   -0.3030    0.0000 O   0  0  0  0  0  0  0  0  0  0  0  0
    6.8495    1.1970    0.0000 N   0  0  0  0  0  0  0  0  0  0  0  0
    4.7770   -0.4969    0.0000 N   0  0  0  0  0  0  0  0  0  0  0  0
    9.4476   -0.3030    0.0000 N   0  0  0  0  0  0  0  0  0  0  0  0
   12.1259   -3.6077    0.0000 N   0  0  0  0  0  0  0  0  0  0  0  0
   12.7095   -2.8030    0.0000 N   0  0  0  0  0  0  0  0  0  0  0  0
    5.2668    1.5334    0.0000 C   0  0  0  0  0  0  0  0  0  0  0  0
    5.9360    0.7903    0.0000 C   0  0  1  0  0  0  0  0  0  0  0  0
    6.7450    2.1916    0.0000 C   0  0  0  0  0  0  0  0  0  0  0  0
    4.4008    2.0334    0.0000 C   0  0  0  0  0  0  0  0  0  0  0  0
    4.5237    0.8643    0.0000 C   0  0  0  0  0  0  0  0  0  0  0  0
    7.7155    0.6970    0.0000 C   0  0  0  0  0  0  0  0  0  0  0  0
    5.7281   -0.1879    0.0000 C   0  0  0  0  0  0  0  0  0  0  0  0
    8.5816    1.1970    0.0000 C   0  0  2  0  0  0  0  0  0  0  0  0
    9.4476    0.6970    0.0000 C   0  0  2  0  0  0  0  0  0  0  0  0
   10.3136    1.1970    0.0000 C   0  0  0  0  0  0  0  0  0  0  0  0
    4.5691   -1.4750    0.0000 C   0  0  0  0  0  0  0  0  0  0  0  0
   10.3136    2.1970    0.0000 C   0  0  0  0  0  0  0  0  0  0  0  0
   10.3136   -0.8030    0.0000 C   0  0  0  0  0  0  0  0  0  0  0  0
    3.6180   -1.7840    0.0000 C   0  0  0  0  0  0  0  0  0  0  0  0
    9.4476    2.6970    0.0000 C   0  0  0  0  0  0  0  0  0  0  0  0
   11.1796    2.6970    0.0000 C   0  0  0  0  0  0  0  0  0  0  0  0
   10.3136   -1.8030    0.0000 C   0  0  0  0  0  0  0  0  0  0  0  0
   11.1796   -2.3030    0.0000 C   0  0  0  0  0  0  0  0  0  0  0  0
    9.4476    3.6970    0.0000 C   0  0  0  0  0  0  0  0  0  0  0  0
   11.1796    3.6970    0.0000 C   0  0  0  0  0  0  0  0  0  0  0  0
    3.3090   -2.7351    0.0000 C   0  0  0  0  0  0  0  0  0  0  0  0
    9.4476   -2.3030    0.0000 C   0  0  0  0  0  0  0  0  0  0  0  0
   10.3136    4.1970    0.0000 C   0  0  0  0  0  0  0  0  0  0  0  0
   11.1796   -3.3030    0.0000 C   0  0  0  0  0  0  0  0  0  0  0  0
    2.3090   -2.7351    0.0000 C   0  0  0  0  0  0  0  0  0  0  0  0
    9.4476   -3.3030    0.0000 C   0  0  0  0  0  0  0  0  0  0  0  0
   12.1259   -1.9982    0.0000 C   0  0  0  0  0  0  0  0  0  0  0  0
   10.3136   -3.8030    0.0000 C   0  0  0  0  0  0  0  0  0  0  0  0
    2.0000   -1.7840    0.0000 C   0  0  0  0  0  0  0  0  0  0  0  0
    6.4178    0.4001    0.0000 H   0  0  0  0  0  0  0  0  0  0  0  0
    7.3650    2.1916    0.0000 H   0  0  0  0  0  0  0  0  0  0  0  0
    6.8098    2.8082    0.0000 H   0  0  0  0  0  0  0  0  0  0  0  0
    4.7108    2.5704    0.0000 H   0  0  0  0  0  0  0  0  0  0  0  0
    3.8639    2.3434    0.0000 H   0  0  0  0  0  0  0  0  0  0  0  0
    4.0908    1.4965    0.0000 H   0  0  0  0  0  0  0  0  0  0  0  0
    4.1088    1.3250    0.0000 H   0  0  0  0  0  0  0  0  0  0  0  0
    4.0630    0.4494    0.0000 H   0  0  0  0  0  0  0  0  0  0  0  0
    4.9386    0.4036    0.0000 H   0  0  0  0  0  0  0  0  0  0  0  0
    9.1185    1.5070    0.0000 H   0  0  0  0  0  0  0  0  0  0  0  0
    8.9107    0.3870    0.0000 H   0  0  0  0  0  0  0  0  0  0  0  0
   10.5257    0.6144    0.0000 H   0  0  0  0  0  0  0  0  0  0  0  0
   10.9242    1.3047    0.0000 H   0  0  0  0  0  0  0  0  0  0  0  0
    4.3162   -0.0820    0.0000 H   0  0  0  0  0  0  0  0  0  0  0  0
    8.9107   -0.6130    0.0000 H   0  0  0  0  0  0  0  0  0  0  0  0
    4.6554   -2.0890    0.0000 H   0  0  0  0  0  0  0  0  0  0  0  0
    5.1887   -1.4967    0.0000 H   0  0  0  0  0  0  0  0  0  0  0  0
    8.0446    2.5070    0.0000 H   0  0  0  0  0  0  0  0  0  0  0  0
    8.9107    2.3870    0.0000 H   0  0  0  0  0  0  0  0  0  0  0  0
   11.7166    2.3870    0.0000 H   0  0  0  0  0  0  0  0  0  0  0  0
    8.9107    4.0070    0.0000 H   0  0  0  0  0  0  0  0  0  0  0  0
   11.7166    4.0070    0.0000 H   0  0  0  0  0  0  0  0  0  0  0  0
    3.6734   -3.2367    0.0000 H   0  0  0  0  0  0  0  0  0  0  0  0
    8.9107   -1.9930    0.0000 H   0  0  0  0  0  0  0  0  0  0  0  0
   10.3136    4.8170    0.0000 H   0  0  0  0  0  0  0  0  0  0  0  0
    1.9446   -3.2367    0.0000 H   0  0  0  0  0  0  0  0  0  0  0  0
    8.9107   -3.6130    0.0000 H   0  0  0  0  0  0  0  0  0  0  0  0
   12.3185   -1.4089    0.0000 H   0  0  0  0  0  0  0  0  0  0  0  0
   10.3136   -4.4230    0.0000 H   0  0  0  0  0  0  0  0  0  0  0  0
    1.4103   -1.5924    0.0000 H   0  0  0  0  0  0  0  0  0  0  0  0
   12.3185   -4.1970    0.0000 H   0  0  0  0  0  0  0  0  0  0  0  0
  1 12  1  0  0  0  0
  1 14  1  0  0  0  0
 19  2  1  1  0  0  0
  2 58  1  0  0  0  0
  3 17  2  0  0  0  0
  4 18  2  0  0  0  0
  5 25  1  0  0  0  0
  5 40  1  0  0  0  0
  6 24  2  0  0  0  0
  7 13  1  0  0  0  0
  7 14  1  0  0  0  0
  7 17  1  0  0  0  0
  8 18  1  0  0  0  0
  8 22  1  0  0  0  0
  8 54  1  0  0  0  0
 20  9  1  6  0  0  0
  9 24  1  0  0  0  0
  9 55  1  0  0  0  0
 10 11  1  0  0  0  0
 10 35  1  0  0  0  0
 10 71  1  0  0  0  0
 11 38  2  0  0  0  0
 12 13  1  0  0  0  0
 12 15  1  0  0  0  0
 12 16  1  0  0  0  0
 13 18  1  6  0  0  0
 13 41  1  0  0  0  0
 14 42  1  0  0  0  0
 14 43  1  0  0  0  0
 15 44  1  0  0  0  0
 15 45  1  0  0  0  0
 15 46  1  0  0  0  0
 16 47  1  0  0  0  0
 16 48  1  0  0  0  0
 16 49  1  0  0  0  0
 17 19  1  0  0  0  0
 19 20  1  0  0  0  0
 19 50  1  0  0  0  0
 20 21  1  0  0  0  0
 20 51  1  0  0  0  0
 21 23  1  0  0  0  0
 21 52  1  0  0  0  0
 21 53  1  0  0  0  0
 22 25  1  0  0  0  0
 22 56  1  0  0  0  0
 22 57  1  0  0  0  0
 23 26  2  0  0  0  0
 23 27  1  0  0  0  0
 24 28  1  0  0  0  0
 25 32  2  0  0  0  0
 26 30  1  0  0  0  0
 26 59  1  0  0  0  0
 27 31  2  0  0  0  0
 27 60  1  0  0  0  0
 28 29  2  0  0  0  0
 28 33  1  0  0  0  0
 29 35  1  0  0  0  0
 29 38  1  0  0  0  0
 30 34  2  0  0  0  0
 30 61  1  0  0  0  0
 31 34  1  0  0  0  0
 31 62  1  0  0  0  0
 32 36  1  0  0  0  0
 32 63  1  0  0  0  0
 33 37  2  0  0  0  0
 33 64  1  0  0  0  0
 34 65  1  0  0  0  0
 35 39  2  0  0  0  0
 36 40  2  0  0  0  0
 36 66  1  0  0  0  0
 37 39  1  0  0  0  0
 37 67  1  0  0  0  0
 38 68  1  0  0  0  0
 39 69  1  0  0  0  0
 40 70  1  0  0  0  0
M  END
> <PUBCHEM_COMPOUND_CID>
514557
> <PUBCHEM_COMPOUND_CANONICALIZED>
1
> <PUBCHEM_CACTVS_COMPLEXITY>
915
> <PUBCHEM_CACTVS_HBOND_ACCEPTOR>
7
> <PUBCHEM_CACTVS_HBOND_DONOR>
4
> <PUBCHEM_CACTVS_ROTATABLE_BOND>
9
> <PUBCHEM_CACTVS_SUBSKEYS>
AAADceB7uABAAAAAAAAAAAAAAAAAAWLEgAAwYAAAAAAAAFgB/AAAHgQYCAAADDzh3ga+xPPjBkiqA7130AKSDABkohAYuaH+bNgOdrqk9fuX/Sjk3hGY6Yec2aKOgAAAQAASAAAAAACAACQAAAAAAAAAAA==
> <PUBCHEM_IUPAC_OPENEYE_NAME>
(4R)-N-(2-furylmethyl)-3-[(2S,3S)-2-hydroxy-3-(1H-indazole-4-carbonylamino)-4-phenyl-butanoyl]-5,5-dimethyl-thiazolidine-4-carboxamide
> <PUBCHEM_IUPAC_CAS_NAME>
(4R)-N-(2-furanylmethyl)-3-[(2S,3S)-2-hydroxy-3-[[1H-indazol-4-yl(oxo)methyl]amino]-1-oxo-4-phenylbutyl]-5,5-dimethyl-4-thiazolidinecarboxamide
> <PUBCHEM_IUPAC_NAME_MARKUP>
(4<I>R</I>)-<I>N</I>-(furan-2-ylmethyl)-3-[(2<I>S</I>,3<I>S</I>)-2-hydroxy-3-(1<I>H</I>-indazole-4-carbonylamino)-4-phenylbutanoyl]-5,5-dimethyl-1,3-thiazolidine-4-carboxamide
> <PUBCHEM_IUPAC_NAME>
(4R)-N-(furan-2-ylmethyl)-3-[(2S,3S)-2-hydroxy-3-(1H-indazole-4-carbonylamino)-4-phenylbutanoyl]-5,5-dimethyl-1,3-thiazolidine-4-carboxamide
> <PUBCHEM_IUPAC_SYSTEMATIC_NAME>
(4R)-N-(furan-2-ylmethyl)-3-[(2S,3S)-3-(1H-indazol-4-ylcarbonylamino)-2-oxidanyl-4-phenyl-butanoyl]-5,5-dimethyl-1,3-thiazolidine-4-carboxamide
> <PUBCHEM_IUPAC_TRADITIONAL_NAME>
(4R)-N-(2-furfuryl)-3-[(2S,3S)-2-hydroxy-3-(1H-indazole-4-carbonylamino)-4-phenyl-butanoyl]-5,5-dimethyl-thiazolidine-4-carboxamide
> <PUBCHEM_IUPAC_INCHI>
InChI=1S/C29H31N5O5S/c1-29(2)25(27(37)30-15-19-10-7-13-39-19)34(17-40-29)28(38)24(35)23(14-18-8-4-3-5-9-18)32-26(36)20-11-6-12-22-21(20)16-31-33-22/h3-13,16,23-25,35H,14-15,17H2,1-2H3,(H,30,37)(H,31,33)(H,32,36)/t23-,24-,25+/m0/s1
> <PUBCHEM_IUPAC_INCHIKEY>
KMUBKEPYOMDAFD-CCDWMCETSA-N
> <PUBCHEM_XLOGP3_AA>
2.8
> <PUBCHEM_EXACT_MASS>
561.20459028
> <PUBCHEM_MOLECULAR_FORMULA>
C29H31N5O5S
> <PUBCHEM_MOLECULAR_WEIGHT>
561.7
> <PUBCHEM_OPENEYE_CAN_SMILES>
CC1(C(N(CS1)C(=O)C(C(CC2=CC=CC=C2)NC(=O)C3=C4C=NNC4=CC=C3)O)C(=O)NCC5=CC=CO5)C
> <PUBCHEM_OPENEYE_ISO_SMILES>
CC1([C@H](N(CS1)C(=O)[C@H]([C@H](CC2=CC=CC=C2)NC(=O)C3=C4C=NNC4=CC=C3)O)C(=O)NCC5=CC=CO5)C
> <PUBCHEM_CACTVS_TPSA>
166
> <PUBCHEM_MONOISOTOPIC_WEIGHT>
561.20459028
> <PUBCHEM_TOTAL_CHARGE>
0
> <PUBCHEM_HEAVY_ATOM_COUNT>
40
> <PUBCHEM_ATOM_DEF_STEREO_COUNT>
3
> <PUBCHEM_ATOM_UDEF_STEREO_COUNT>
0
> <PUBCHEM_BOND_DEF_STEREO_COUNT>
0
> <PUBCHEM_BOND_UDEF_STEREO_COUNT>
0
> <PUBCHEM_ISOTOPIC_ATOM_COUNT>
0
> <PUBCHEM_COMPONENT_COUNT>
1
> <PUBCHEM_CACTVS_TAUTO_COUNT>
-1
> <PUBCHEM_COORDINATE_TYPE>
1
5
255
> <PUBCHEM_BONDANNOTATIONS>
10  11  8
10  35  8
11  38  8
13  18  6
19  2  5
23  26  8
23  27  8
25  32  8
26  30  8
27  31  8
28  29  8
28  33  8
29  35  8
29  38  8
30  34  8
31  34  8
32  36  8
33  37  8
35  39  8
36  40  8
37  39  8
5  25  8
5  40  8
20  9  6
$$$$
