514559
  -OEChem-10302200282D
 78 81  0     1  0  0  0  0  0999 V2000
    9.1448    2.9524    0.0000 S   0  0  0  0  0  0  0  0  0  0  0  0
    6.3301    2.7500    0.0000 O   0  0  0  0  0  0  0  0  0  0  0  0
    7.1962    0.2500    0.0000 O   0  0  0  0  0  0  0  0  0  0  0  0
    8.4405   -0.3040    0.0000 O   0  0  0  0  0  0  0  0  0  0  0  0
   12.1027   -0.6433    0.0000 O   0  0  0  0  0  0  0  0  0  0  0  0
    3.7320    0.2500    0.0000 O   0  0  0  0  0  0  0  0  0  0  0  0
    3.7320   -1.7500    0.0000 O   0  0  0  0  0  0  0  0  0  0  0  0
    8.0622    1.7500    0.0000 N   0  0  0  0  0  0  0  0  0  0  0  0
   10.1347    0.0561    0.0000 N   0  0  0  0  0  0  0  0  0  0  0  0
    5.4641    0.2500    0.0000 N   0  0  0  0  0  0  0  0  0  0  0  0
    9.6448    2.0864    0.0000 C   0  0  0  0  0  0  0  0  0  0  0  0
    8.9757    1.3433    0.0000 C   0  0  1  0  0  0  0  0  0  0  0  0
    8.1667    2.7445    0.0000 C   0  0  0  0  0  0  0  0  0  0  0  0
   10.5109    2.5864    0.0000 C   0  0  0  0  0  0  0  0  0  0  0  0
   10.3880    1.4173    0.0000 C   0  0  0  0  0  0  0  0  0  0  0  0
    7.1962    1.2500    0.0000 C   0  0  0  0  0  0  0  0  0  0  0  0
    9.1836    0.3651    0.0000 C   0  0  0  0  0  0  0  0  0  0  0  0
    6.3301    1.7500    0.0000 C   0  0  2  0  0  0  0  0  0  0  0  0
    5.4641    1.2500    0.0000 C   0  0  2  0  0  0  0  0  0  0  0  0
    4.5981    1.7500    0.0000 C   0  0  0  0  0  0  0  0  0  0  0  0
   10.3426   -0.9220    0.0000 C   0  0  0  0  0  0  0  0  0  0  0  0
    4.5981    2.7500    0.0000 C   0  0  0  0  0  0  0  0  0  0  0  0
    4.5981   -0.2500    0.0000 C   0  0  0  0  0  0  0  0  0  0  0  0
   11.2937   -1.2311    0.0000 C   0  0  0  0  0  0  0  0  0  0  0  0
    3.7320    3.2500    0.0000 C   0  0  0  0  0  0  0  0  0  0  0  0
    5.4641    3.2500    0.0000 C   0  0  0  0  0  0  0  0  0  0  0  0
    4.5981   -1.2500    0.0000 C   0  0  0  0  0  0  0  0  0  0  0  0
   11.6027   -2.1821    0.0000 C   0  0  0  0  0  0  0  0  0  0  0  0
    3.7320    4.2500    0.0000 C   0  0  0  0  0  0  0  0  0  0  0  0
    5.4641    4.2500    0.0000 C   0  0  0  0  0  0  0  0  0  0  0  0
    4.5981    4.7500    0.0000 C   0  0  0  0  0  0  0  0  0  0  0  0
   12.6027   -2.1821    0.0000 C   0  0  0  0  0  0  0  0  0  0  0  0
   12.9117   -1.2311    0.0000 C   0  0  0  0  0  0  0  0  0  0  0  0
    3.7320   -2.7500    0.0000 C   0  0  0  0  0  0  0  0  0  0  0  0
    4.5981   -3.2500    0.0000 C   0  0  0  0  0  0  0  0  0  0  0  0
    2.8660   -3.2500    0.0000 C   0  0  0  0  0  0  0  0  0  0  0  0
    4.5981   -4.2500    0.0000 C   0  0  0  0  0  0  0  0  0  0  0  0
    2.8660   -4.2500    0.0000 C   0  0  0  0  0  0  0  0  0  0  0  0
    5.4641   -2.7500    0.0000 C   0  0  0  0  0  0  0  0  0  0  0  0
    2.0000   -2.7500    0.0000 C   0  0  0  0  0  0  0  0  0  0  0  0
    3.7320   -4.7500    0.0000 C   0  0  0  0  0  0  0  0  0  0  0  0
    8.4939    0.9531    0.0000 H   0  0  0  0  0  0  0  0  0  0  0  0
    8.1019    3.3611    0.0000 H   0  0  0  0  0  0  0  0  0  0  0  0
    7.5467    2.7445    0.0000 H   0  0  0  0  0  0  0  0  0  0  0  0
   10.8209    2.0495    0.0000 H   0  0  0  0  0  0  0  0  0  0  0  0
   11.0478    2.8964    0.0000 H   0  0  0  0  0  0  0  0  0  0  0  0
   10.2009    3.1233    0.0000 H   0  0  0  0  0  0  0  0  0  0  0  0
    9.9731    0.9565    0.0000 H   0  0  0  0  0  0  0  0  0  0  0  0
   10.8487    1.0024    0.0000 H   0  0  0  0  0  0  0  0  0  0  0  0
   10.8029    1.8780    0.0000 H   0  0  0  0  0  0  0  0  0  0  0  0
    6.8671    2.0600    0.0000 H   0  0  0  0  0  0  0  0  0  0  0  0
    6.0010    0.9400    0.0000 H   0  0  0  0  0  0  0  0  0  0  0  0
    3.9875    1.8577    0.0000 H   0  0  0  0  0  0  0  0  0  0  0  0
    4.3860    1.1674    0.0000 H   0  0  0  0  0  0  0  0  0  0  0  0
   10.5954    0.4710    0.0000 H   0  0  0  0  0  0  0  0  0  0  0  0
    6.0010   -0.0600    0.0000 H   0  0  0  0  0  0  0  0  0  0  0  0
    9.7230   -0.9437    0.0000 H   0  0  0  0  0  0  0  0  0  0  0  0
   10.2563   -1.5360    0.0000 H   0  0  0  0  0  0  0  0  0  0  0  0
    6.8671    3.0600    0.0000 H   0  0  0  0  0  0  0  0  0  0  0  0
    3.1951    2.9400    0.0000 H   0  0  0  0  0  0  0  0  0  0  0  0
    6.0010    2.9400    0.0000 H   0  0  0  0  0  0  0  0  0  0  0  0
    4.8101   -1.8326    0.0000 H   0  0  0  0  0  0  0  0  0  0  0  0
    5.2087   -1.1423    0.0000 H   0  0  0  0  0  0  0  0  0  0  0  0
    3.1951    4.5600    0.0000 H   0  0  0  0  0  0  0  0  0  0  0  0
    6.0010    4.5600    0.0000 H   0  0  0  0  0  0  0  0  0  0  0  0
   11.2382   -2.6837    0.0000 H   0  0  0  0  0  0  0  0  0  0  0  0
    4.5981    5.3700    0.0000 H   0  0  0  0  0  0  0  0  0  0  0  0
   12.9671   -2.6837    0.0000 H   0  0  0  0  0  0  0  0  0  0  0  0
   13.5013   -1.0395    0.0000 H   0  0  0  0  0  0  0  0  0  0  0  0
    5.1350   -4.5600    0.0000 H   0  0  0  0  0  0  0  0  0  0  0  0
    2.3291   -4.5600    0.0000 H   0  0  0  0  0  0  0  0  0  0  0  0
    5.7741   -3.2869    0.0000 H   0  0  0  0  0  0  0  0  0  0  0  0
    6.0010   -2.4400    0.0000 H   0  0  0  0  0  0  0  0  0  0  0  0
    5.1541   -2.2131    0.0000 H   0  0  0  0  0  0  0  0  0  0  0  0
    2.3100   -2.2131    0.0000 H   0  0  0  0  0  0  0  0  0  0  0  0
    1.4631   -2.4400    0.0000 H   0  0  0  0  0  0  0  0  0  0  0  0
    1.6900   -3.2869    0.0000 H   0  0  0  0  0  0  0  0  0  0  0  0
    3.7320   -5.3700    0.0000 H   0  0  0  0  0  0  0  0  0  0  0  0
  1 11  1  0  0  0  0
  1 13  1  0  0  0  0
 18  2  1  6  0  0  0
  2 59  1  0  0  0  0
  3 16  2  0  0  0  0
  4 17  2  0  0  0  0
  5 24  1  0  0  0  0
  5 33  1  0  0  0  0
  6 23  2  0  0  0  0
  7 27  1  0  0  0  0
  7 34  1  0  0  0  0
  8 12  1  0  0  0  0
  8 13  1  0  0  0  0
  8 16  1  0  0  0  0
  9 17  1  0  0  0  0
  9 21  1  0  0  0  0
  9 55  1  0  0  0  0
 19 10  1  1  0  0  0
 10 23  1  0  0  0  0
 10 56  1  0  0  0  0
 11 12  1  0  0  0  0
 11 14  1  0  0  0  0
 11 15  1  0  0  0  0
 12 17  1  1  0  0  0
 12 42  1  0  0  0  0
 13 43  1  0  0  0  0
 13 44  1  0  0  0  0
 14 45  1  0  0  0  0
 14 46  1  0  0  0  0
 14 47  1  0  0  0  0
 15 48  1  0  0  0  0
 15 49  1  0  0  0  0
 15 50  1  0  0  0  0
 16 18  1  0  0  0  0
 18 19  1  0  0  0  0
 18 51  1  0  0  0  0
 19 20  1  0  0  0  0
 19 52  1  0  0  0  0
 20 22  1  0  0  0  0
 20 53  1  0  0  0  0
 20 54  1  0  0  0  0
 21 24  1  0  0  0  0
 21 57  1  0  0  0  0
 21 58  1  0  0  0  0
 22 25  2  0  0  0  0
 22 26  1  0  0  0  0
 23 27  1  0  0  0  0
 24 28  2  0  0  0  0
 25 29  1  0  0  0  0
 25 60  1  0  0  0  0
 26 30  2  0  0  0  0
 26 61  1  0  0  0  0
 27 62  1  0  0  0  0
 27 63  1  0  0  0  0
 28 32  1  0  0  0  0
 28 66  1  0  0  0  0
 29 31  2  0  0  0  0
 29 64  1  0  0  0  0
 30 31  1  0  0  0  0
 30 65  1  0  0  0  0
 31 67  1  0  0  0  0
 32 33  2  0  0  0  0
 32 68  1  0  0  0  0
 33 69  1  0  0  0  0
 34 35  2  0  0  0  0
 34 36  1  0  0  0  0
 35 37  1  0  0  0  0
 35 39  1  0  0  0  0
 36 38  2  0  0  0  0
 36 40  1  0  0  0  0
 37 41  2  0  0  0  0
 37 70  1  0  0  0  0
 38 41  1  0  0  0  0
 38 71  1  0  0  0  0
 39 72  1  0  0  0  0
 39 73  1  0  0  0  0
 39 74  1  0  0  0  0
 40 75  1  0  0  0  0
 40 76  1  0  0  0  0
 40 77  1  0  0  0  0
 41 78  1  0  0  0  0
M  END
> <PUBCHEM_COMPOUND_CID>
514559
> <PUBCHEM_COMPOUND_CANONICALIZED>
1
> <PUBCHEM_CACTVS_COMPLEXITY>
887
> <PUBCHEM_CACTVS_HBOND_ACCEPTOR>
7
> <PUBCHEM_CACTVS_HBOND_DONOR>
3
> <PUBCHEM_CACTVS_ROTATABLE_BOND>
11
> <PUBCHEM_CACTVS_SUBSKEYS>
AAADcfB7OABAAAAAAAAAAAAAAAAAAWJAAAAwYAAAAAAAAAAB0AAAHgQQCAAADDzh2AayBoPABkiIAqlSkAKCCABkIBAIiIHODMgOdjqk9T+XeSjk1hGYqYeY2eKOAAACAAAIAAAAAAQAABAAAAAAAAAAAA==
> <PUBCHEM_IUPAC_OPENEYE_NAME>
(4R)-3-[(2S,3S)-3-[[2-(2,6-dimethylphenoxy)acetyl]amino]-2-hydroxy-4-phenyl-butanoyl]-N-(2-furylmethyl)-5,5-dimethyl-thiazolidine-4-carboxamide
> <PUBCHEM_IUPAC_CAS_NAME>
(4R)-3-[(2S,3S)-3-[[2-(2,6-dimethylphenoxy)-1-oxoethyl]amino]-2-hydroxy-1-oxo-4-phenylbutyl]-N-(2-furanylmethyl)-5,5-dimethyl-4-thiazolidinecarboxamide
> <PUBCHEM_IUPAC_NAME_MARKUP>
(4<I>R</I>)-3-[(2<I>S</I>,3<I>S</I>)-3-[[2-(2,6-dimethylphenoxy)acetyl]amino]-2-hydroxy-4-phenylbutanoyl]-<I>N</I>-(furan-2-ylmethyl)-5,5-dimethyl-1,3-thiazolidine-4-carboxamide
> <PUBCHEM_IUPAC_NAME>
(4R)-3-[(2S,3S)-3-[[2-(2,6-dimethylphenoxy)acetyl]amino]-2-hydroxy-4-phenylbutanoyl]-N-(furan-2-ylmethyl)-5,5-dimethyl-1,3-thiazolidine-4-carboxamide
> <PUBCHEM_IUPAC_SYSTEMATIC_NAME>
(4R)-3-[(2S,3S)-3-[2-(2,6-dimethylphenoxy)ethanoylamino]-2-oxidanyl-4-phenyl-butanoyl]-N-(furan-2-ylmethyl)-5,5-dimethyl-1,3-thiazolidine-4-carboxamide
> <PUBCHEM_IUPAC_TRADITIONAL_NAME>
(4R)-3-[(2S,3S)-3-[[2-(2,6-dimethylphenoxy)acetyl]amino]-2-hydroxy-4-phenyl-butanoyl]-N-(2-furfuryl)-5,5-dimethyl-thiazolidine-4-carboxamide
> <PUBCHEM_IUPAC_INCHI>
InChI=1S/C31H37N3O6S/c1-20-10-8-11-21(2)27(20)40-18-25(35)33-24(16-22-12-6-5-7-13-22)26(36)30(38)34-19-41-31(3,4)28(34)29(37)32-17-23-14-9-15-39-23/h5-15,24,26,28,36H,16-19H2,1-4H3,(H,32,37)(H,33,35)/t24-,26-,28+/m0/s1
> <PUBCHEM_IUPAC_INCHIKEY>
IYOZYZWYQQKOHT-GYGTVUFYSA-N
> <PUBCHEM_XLOGP3_AA>
4
> <PUBCHEM_EXACT_MASS>
579.24030708
> <PUBCHEM_MOLECULAR_FORMULA>
C31H37N3O6S
> <PUBCHEM_MOLECULAR_WEIGHT>
579.7
> <PUBCHEM_OPENEYE_CAN_SMILES>
CC1=C(C(=CC=C1)C)OCC(=O)NC(CC2=CC=CC=C2)C(C(=O)N3CSC(C3C(=O)NCC4=CC=CO4)(C)C)O
> <PUBCHEM_OPENEYE_ISO_SMILES>
CC1=C(C(=CC=C1)C)OCC(=O)N[C@@H](CC2=CC=CC=C2)[C@@H](C(=O)N3CSC([C@H]3C(=O)NCC4=CC=CO4)(C)C)O
> <PUBCHEM_CACTVS_TPSA>
146
> <PUBCHEM_MONOISOTOPIC_WEIGHT>
579.24030708
> <PUBCHEM_TOTAL_CHARGE>
0
> <PUBCHEM_HEAVY_ATOM_COUNT>
41
> <PUBCHEM_ATOM_DEF_STEREO_COUNT>
3
> <PUBCHEM_ATOM_UDEF_STEREO_COUNT>
0
> <PUBCHEM_BOND_DEF_STEREO_COUNT>
0
> <PUBCHEM_BOND_UDEF_STEREO_COUNT>
0
> <PUBCHEM_ISOTOPIC_ATOM_COUNT>
0
> <PUBCHEM_COMPONENT_COUNT>
1
> <PUBCHEM_CACTVS_TAUTO_COUNT>
-1
> <PUBCHEM_COORDINATE_TYPE>
1
5
255
> <PUBCHEM_BONDANNOTATIONS>
19  10  5
12  17  5
18  2  6
22  25  8
22  26  8
24  28  8
25  29  8
26  30  8
28  32  8
29  31  8
30  31  8
32  33  8
34  35  8
34  36  8
35  37  8
36  38  8
37  41  8
38  41  8
5  24  8
5  33  8
$$$$
