514679
  -OEChem-10302200282D
 78 80  0     1  0  0  0  0  0999 V2000
    8.1449    0.1682    0.0000 S   0  0  0  0  0  0  0  0  0  0  0  0
    7.0826    2.7827    0.0000 O   0  0  0  0  0  0  0  0  0  0  0  0
    4.9726    1.1865    0.0000 O   0  0  0  0  0  0  0  0  0  0  0  0
    4.8302   -0.1682    0.0000 O   0  0  0  0  0  0  0  0  0  0  0  0
    6.7553    5.4081    0.0000 O   0  0  0  0  0  0  0  0  0  0  0  0
    7.2905    3.7608    0.0000 O   0  0  0  0  0  0  0  0  0  0  0  0
    4.8302   -6.1682    0.0000 O   0  0  0  0  0  0  0  0  0  0  0  0
    6.6668    0.8264    0.0000 N   0  0  0  0  0  0  0  0  0  0  0  0
    5.6962   -1.6682    0.0000 N   0  0  0  0  0  0  0  0  0  0  0  0
    5.5963    4.1209    0.0000 N   0  0  0  0  0  0  0  0  0  0  0  0
    7.4758   -0.5749    0.0000 C   0  0  0  0  0  0  0  0  0  0  0  0
    6.5622   -0.1682    0.0000 C   0  0  3  0  0  0  0  0  0  0  0  0
    7.6449    1.0343    0.0000 C   0  0  0  0  0  0  0  0  0  0  0  0
    8.2189   -1.2440    0.0000 C   0  0  0  0  0  0  0  0  0  0  0  0
    7.0691   -1.4884    0.0000 C   0  0  0  0  0  0  0  0  0  0  0  0
    5.9236    1.4955    0.0000 C   0  0  0  0  0  0  0  0  0  0  0  0
    5.6962   -0.6682    0.0000 C   0  0  0  0  0  0  0  0  0  0  0  0
    6.1316    2.4736    0.0000 C   0  0  2  0  0  0  0  0  0  0  0  0
    5.3884    3.1428    0.0000 C   0  0  2  0  0  0  0  0  0  0  0  0
    4.4374    2.8338    0.0000 C   0  0  0  0  0  0  0  0  0  0  0  0
    4.8302   -2.1682    0.0000 C   0  0  0  0  0  0  0  0  0  0  0  0
    3.6942    3.5029    0.0000 C   0  0  0  0  0  0  0  0  0  0  0  0
    6.5474    4.4299    0.0000 C   0  0  0  0  0  0  0  0  0  0  0  0
    4.8302   -3.1682    0.0000 C   0  0  0  0  0  0  0  0  0  0  0  0
    2.7431    3.1939    0.0000 C   0  0  0  0  0  0  0  0  0  0  0  0
    3.9021    4.4810    0.0000 C   0  0  0  0  0  0  0  0  0  0  0  0
    7.7063    5.7171    0.0000 C   0  0  0  0  0  0  0  0  0  0  0  0
    5.6962   -3.6682    0.0000 C   0  0  0  0  0  0  0  0  0  0  0  0
    3.9642   -3.6682    0.0000 C   0  0  0  0  0  0  0  0  0  0  0  0
    2.0000    3.8630    0.0000 C   0  0  0  0  0  0  0  0  0  0  0  0
    3.1590    5.1502    0.0000 C   0  0  0  0  0  0  0  0  0  0  0  0
    8.6574    6.0261    0.0000 C   0  0  0  0  0  0  0  0  0  0  0  0
    7.3973    6.6682    0.0000 C   0  0  0  0  0  0  0  0  0  0  0  0
    8.0154    4.7660    0.0000 C   0  0  0  0  0  0  0  0  0  0  0  0
    2.2079    4.8412    0.0000 C   0  0  0  0  0  0  0  0  0  0  0  0
    5.6962   -4.6682    0.0000 C   0  0  0  0  0  0  0  0  0  0  0  0
    3.9642   -4.6682    0.0000 C   0  0  0  0  0  0  0  0  0  0  0  0
    4.8302   -5.1682    0.0000 C   0  0  0  0  0  0  0  0  0  0  0  0
    3.9642   -6.6682    0.0000 C   0  0  0  0  0  0  0  0  0  0  0  0
    6.0423    0.1695    0.0000 H   0  0  0  0  0  0  0  0  0  0  0  0
    8.2113    1.2865    0.0000 H   0  0  0  0  0  0  0  0  0  0  0  0
    7.4533    1.6239    0.0000 H   0  0  0  0  0  0  0  0  0  0  0  0
    7.8041   -1.7048    0.0000 H   0  0  0  0  0  0  0  0  0  0  0  0
    8.6797   -1.6589    0.0000 H   0  0  0  0  0  0  0  0  0  0  0  0
    8.6338   -0.7833    0.0000 H   0  0  0  0  0  0  0  0  0  0  0  0
    6.5027   -1.2363    0.0000 H   0  0  0  0  0  0  0  0  0  0  0  0
    6.8169   -2.0548    0.0000 H   0  0  0  0  0  0  0  0  0  0  0  0
    7.6355   -1.7406    0.0000 H   0  0  0  0  0  0  0  0  0  0  0  0
    6.2604    3.0801    0.0000 H   0  0  0  0  0  0  0  0  0  0  0  0
    4.9276    3.5576    0.0000 H   0  0  0  0  0  0  0  0  0  0  0  0
    3.9488    2.4520    0.0000 H   0  0  0  0  0  0  0  0  0  0  0  0
    4.7284    2.2863    0.0000 H   0  0  0  0  0  0  0  0  0  0  0  0
    6.2332   -1.9782    0.0000 H   0  0  0  0  0  0  0  0  0  0  0  0
    5.1356    4.5358    0.0000 H   0  0  0  0  0  0  0  0  0  0  0  0
    4.6182   -1.5856    0.0000 H   0  0  0  0  0  0  0  0  0  0  0  0
    4.2196   -2.2758    0.0000 H   0  0  0  0  0  0  0  0  0  0  0  0
    7.5434    2.3678    0.0000 H   0  0  0  0  0  0  0  0  0  0  0  0
    2.6142    2.5874    0.0000 H   0  0  0  0  0  0  0  0  0  0  0  0
    4.4918    4.6726    0.0000 H   0  0  0  0  0  0  0  0  0  0  0  0
    6.2332   -3.3582    0.0000 H   0  0  0  0  0  0  0  0  0  0  0  0
    3.4272   -3.3582    0.0000 H   0  0  0  0  0  0  0  0  0  0  0  0
    1.4103    3.6714    0.0000 H   0  0  0  0  0  0  0  0  0  0  0  0
    3.2879    5.7566    0.0000 H   0  0  0  0  0  0  0  0  0  0  0  0
    8.8490    5.4365    0.0000 H   0  0  0  0  0  0  0  0  0  0  0  0
    9.2470    6.2177    0.0000 H   0  0  0  0  0  0  0  0  0  0  0  0
    8.4658    6.6158    0.0000 H   0  0  0  0  0  0  0  0  0  0  0  0
    7.9870    6.8598    0.0000 H   0  0  0  0  0  0  0  0  0  0  0  0
    7.2057    7.2578    0.0000 H   0  0  0  0  0  0  0  0  0  0  0  0
    6.8077    6.4766    0.0000 H   0  0  0  0  0  0  0  0  0  0  0  0
    7.4257    4.5744    0.0000 H   0  0  0  0  0  0  0  0  0  0  0  0
    8.2070    4.1764    0.0000 H   0  0  0  0  0  0  0  0  0  0  0  0
    8.6050    4.9576    0.0000 H   0  0  0  0  0  0  0  0  0  0  0  0
    1.7472    5.2560    0.0000 H   0  0  0  0  0  0  0  0  0  0  0  0
    6.2332   -4.9782    0.0000 H   0  0  0  0  0  0  0  0  0  0  0  0
    3.4272   -4.9782    0.0000 H   0  0  0  0  0  0  0  0  0  0  0  0
    3.6542   -6.1312    0.0000 H   0  0  0  0  0  0  0  0  0  0  0  0
    3.4272   -6.9782    0.0000 H   0  0  0  0  0  0  0  0  0  0  0  0
    4.2742   -7.2051    0.0000 H   0  0  0  0  0  0  0  0  0  0  0  0
  1 11  1  0  0  0  0
  1 13  1  0  0  0  0
 18  2  1  6  0  0  0
  2 57  1  0  0  0  0
  3 16  2  0  0  0  0
  4 17  2  0  0  0  0
  5 23  1  0  0  0  0
  5 27  1  0  0  0  0
  6 23  2  0  0  0  0
  7 38  1  0  0  0  0
  7 39  1  0  0  0  0
  8 12  1  0  0  0  0
  8 13  1  0  0  0  0
  8 16  1  0  0  0  0
  9 17  1  0  0  0  0
  9 21  1  0  0  0  0
  9 53  1  0  0  0  0
 19 10  1  6  0  0  0
 10 23  1  0  0  0  0
 10 54  1  0  0  0  0
 11 12  1  0  0  0  0
 11 14  1  0  0  0  0
 11 15  1  0  0  0  0
 12 17  1  0  0  0  0
 12 40  1  0  0  0  0
 13 41  1  0  0  0  0
 13 42  1  0  0  0  0
 14 43  1  0  0  0  0
 14 44  1  0  0  0  0
 14 45  1  0  0  0  0
 15 46  1  0  0  0  0
 15 47  1  0  0  0  0
 15 48  1  0  0  0  0
 16 18  1  0  0  0  0
 18 19  1  0  0  0  0
 18 49  1  0  0  0  0
 19 20  1  0  0  0  0
 19 50  1  0  0  0  0
 20 22  1  0  0  0  0
 20 51  1  0  0  0  0
 20 52  1  0  0  0  0
 21 24  1  0  0  0  0
 21 55  1  0  0  0  0
 21 56  1  0  0  0  0
 22 25  2  0  0  0  0
 22 26  1  0  0  0  0
 24 28  2  0  0  0  0
 24 29  1  0  0  0  0
 25 30  1  0  0  0  0
 25 58  1  0  0  0  0
 26 31  2  0  0  0  0
 26 59  1  0  0  0  0
 27 32  1  0  0  0  0
 27 33  1  0  0  0  0
 27 34  1  0  0  0  0
 28 36  1  0  0  0  0
 28 60  1  0  0  0  0
 29 37  2  0  0  0  0
 29 61  1  0  0  0  0
 30 35  2  0  0  0  0
 30 62  1  0  0  0  0
 31 35  1  0  0  0  0
 31 63  1  0  0  0  0
 32 64  1  0  0  0  0
 32 65  1  0  0  0  0
 32 66  1  0  0  0  0
 33 67  1  0  0  0  0
 33 68  1  0  0  0  0
 33 69  1  0  0  0  0
 34 70  1  0  0  0  0
 34 71  1  0  0  0  0
 34 72  1  0  0  0  0
 35 73  1  0  0  0  0
 36 38  2  0  0  0  0
 36 74  1  0  0  0  0
 37 38  1  0  0  0  0
 37 75  1  0  0  0  0
 39 76  1  0  0  0  0
 39 77  1  0  0  0  0
 39 78  1  0  0  0  0
M  END
> <PUBCHEM_COMPOUND_CID>
514679
> <PUBCHEM_COMPOUND_CANONICALIZED>
1
> <PUBCHEM_CACTVS_COMPLEXITY>
833
> <PUBCHEM_CACTVS_HBOND_ACCEPTOR>
7
> <PUBCHEM_CACTVS_HBOND_DONOR>
3
> <PUBCHEM_CACTVS_ROTATABLE_BOND>
11
> <PUBCHEM_CACTVS_SUBSKEYS>
AAADcfB7OABAAAAAAAAAAAAAAAAAAWAAAAAwYAAAAAAAAAABQAAAHgQQCAAADHzh2AayDoPABgiIAiFSGAKCCABgIBAIiIHODIkOdjqk8TuccChk1hGYqAeY2KKOIAAAAAAAAABAAAAAAAAAAAAAAAAAAA==
> <PUBCHEM_IUPAC_OPENEYE_NAME>
tert-butyl N-[(1S,2S)-1-benzyl-2-hydroxy-3-[4-[(4-methoxyphenyl)methylcarbamoyl]-5,5-dimethyl-thiazolidin-3-yl]-3-oxo-propyl]carbamate
> <PUBCHEM_IUPAC_CAS_NAME>
N-[(2S,3S)-3-hydroxy-4-[4-[[(4-methoxyphenyl)methylamino]-oxomethyl]-5,5-dimethyl-3-thiazolidinyl]-4-oxo-1-phenylbutan-2-yl]carbamic acid tert-butyl ester
> <PUBCHEM_IUPAC_NAME_MARKUP>
<I>tert</I>-butyl <I>N</I>-[(2<I>S</I>,3<I>S</I>)-3-hydroxy-4-[4-[(4-methoxyphenyl)methylcarbamoyl]-5,5-dimethyl-1,3-thiazolidin-3-yl]-4-oxo-1-phenylbutan-2-yl]carbamate
> <PUBCHEM_IUPAC_NAME>
tert-butyl N-[(2S,3S)-3-hydroxy-4-[4-[(4-methoxyphenyl)methylcarbamoyl]-5,5-dimethyl-1,3-thiazolidin-3-yl]-4-oxo-1-phenylbutan-2-yl]carbamate
> <PUBCHEM_IUPAC_SYSTEMATIC_NAME>
tert-butyl N-[(2S,3S)-4-[4-[(4-methoxyphenyl)methylcarbamoyl]-5,5-dimethyl-1,3-thiazolidin-3-yl]-3-oxidanyl-4-oxidanylidene-1-phenyl-butan-2-yl]carbamate
> <PUBCHEM_IUPAC_TRADITIONAL_NAME>
N-[(1S,2S)-1-benzyl-3-[5,5-dimethyl-4-(p-anisylcarbamoyl)thiazolidin-3-yl]-2-hydroxy-3-keto-propyl]carbamic acid tert-butyl ester
> <PUBCHEM_IUPAC_INCHI>
InChI=1S/C29H39N3O6S/c1-28(2,3)38-27(36)31-22(16-19-10-8-7-9-11-19)23(33)26(35)32-18-39-29(4,5)24(32)25(34)30-17-20-12-14-21(37-6)15-13-20/h7-15,22-24,33H,16-18H2,1-6H3,(H,30,34)(H,31,36)/t22-,23-,24?/m0/s1
> <PUBCHEM_IUPAC_INCHIKEY>
KSXYSPOSXRVZQL-NTZARQNWSA-N
> <PUBCHEM_XLOGP3_AA>
3.8
> <PUBCHEM_EXACT_MASS>
557.25595715
> <PUBCHEM_MOLECULAR_FORMULA>
C29H39N3O6S
> <PUBCHEM_MOLECULAR_WEIGHT>
557.7
> <PUBCHEM_OPENEYE_CAN_SMILES>
CC1(C(N(CS1)C(=O)C(C(CC2=CC=CC=C2)NC(=O)OC(C)(C)C)O)C(=O)NCC3=CC=C(C=C3)OC)C
> <PUBCHEM_OPENEYE_ISO_SMILES>
CC1(C(N(CS1)C(=O)[C@H]([C@H](CC2=CC=CC=C2)NC(=O)OC(C)(C)C)O)C(=O)NCC3=CC=C(C=C3)OC)C
> <PUBCHEM_CACTVS_TPSA>
143
> <PUBCHEM_MONOISOTOPIC_WEIGHT>
557.25595715
> <PUBCHEM_TOTAL_CHARGE>
0
> <PUBCHEM_HEAVY_ATOM_COUNT>
39
> <PUBCHEM_ATOM_DEF_STEREO_COUNT>
2
> <PUBCHEM_ATOM_UDEF_STEREO_COUNT>
1
> <PUBCHEM_BOND_DEF_STEREO_COUNT>
0
> <PUBCHEM_BOND_UDEF_STEREO_COUNT>
0
> <PUBCHEM_ISOTOPIC_ATOM_COUNT>
0
> <PUBCHEM_COMPONENT_COUNT>
1
> <PUBCHEM_CACTVS_TAUTO_COUNT>
-1
> <PUBCHEM_COORDINATE_TYPE>
1
5
255
> <PUBCHEM_BONDANNOTATIONS>
19  10  6
12  17  3
18  2  6
22  25  8
22  26  8
24  28  8
24  29  8
25  30  8
26  31  8
28  36  8
29  37  8
30  35  8
31  35  8
36  38  8
37  38  8
$$$$
