514686
  -OEChem-10302200282D
 80 83  0     1  0  0  0  0  0999 V2000
    8.7788    0.7737    0.0000 S   0  0  0  0  0  0  0  0  0  0  0  0
    4.5981   -0.0627    0.0000 S   0  0  0  0  0  0  0  0  0  0  0  0
    7.1962   -1.5627    0.0000 O   0  0  0  0  0  0  0  0  0  0  0  0
    5.6065    1.7920    0.0000 O   0  0  0  0  0  0  0  0  0  0  0  0
    3.7320   -2.5627    0.0000 O   0  0  0  0  0  0  0  0  0  0  0  0
    2.8660   -6.0627    0.0000 O   0  0  0  0  0  0  0  0  0  0  0  0
    7.1962    0.4373    0.0000 N   0  0  3  0  0  0  0  0  0  0  0  0
    6.7654    3.0791    0.0000 N   0  0  0  0  0  0  0  0  0  0  0  0
    5.4641   -2.5627    0.0000 N   0  0  0  0  0  0  0  0  0  0  0  0
    8.2788    1.6398    0.0000 C   0  0  0  0  0  0  0  0  0  0  0  0
    7.3007    1.4318    0.0000 C   0  0  1  0  0  0  0  0  0  0  0  0
    8.1097    0.0306    0.0000 C   0  0  0  0  0  0  0  0  0  0  0  0
    6.3301   -0.0627    0.0000 C   0  0  0  0  0  0  0  0  0  0  0  0
    9.1448    2.1398    0.0000 C   0  0  0  0  0  0  0  0  0  0  0  0
    8.0709    2.6179    0.0000 C   0  0  0  0  0  0  0  0  0  0  0  0
    6.3301   -1.0627    0.0000 C   0  0  2  0  0  0  0  0  0  0  0  0
    6.5575    2.1010    0.0000 C   0  0  0  0  0  0  0  0  0  0  0  0
    5.4641   -1.5627    0.0000 C   0  0  2  0  0  0  0  0  0  0  0  0
    4.5981   -1.0627    0.0000 C   0  0  0  0  0  0  0  0  0  0  0  0
    6.0223    3.7482    0.0000 C   0  0  0  0  0  0  0  0  0  0  0  0
    4.5981   -3.0627    0.0000 C   0  0  0  0  0  0  0  0  0  0  0  0
    6.2302    4.7264    0.0000 C   0  0  0  0  0  0  0  0  0  0  0  0
    4.5981   -4.0627    0.0000 C   0  0  0  0  0  0  0  0  0  0  0  0
    7.1813    5.0354    0.0000 C   0  0  0  0  0  0  0  0  0  0  0  0
    3.7320    0.4373    0.0000 C   0  0  0  0  0  0  0  0  0  0  0  0
    5.4871    5.3955    0.0000 C   0  0  0  0  0  0  0  0  0  0  0  0
    3.7320   -4.5627    0.0000 C   0  0  0  0  0  0  0  0  0  0  0  0
    7.3892    6.0136    0.0000 C   0  0  0  0  0  0  0  0  0  0  0  0
    5.4641   -4.5627    0.0000 C   0  0  0  0  0  0  0  0  0  0  0  0
    7.9244    4.3663    0.0000 C   0  0  0  0  0  0  0  0  0  0  0  0
    5.6950    6.3737    0.0000 C   0  0  0  0  0  0  0  0  0  0  0  0
    3.7320    1.4373    0.0000 C   0  0  0  0  0  0  0  0  0  0  0  0
    2.8660   -0.0627    0.0000 C   0  0  0  0  0  0  0  0  0  0  0  0
    6.6460    6.6827    0.0000 C   0  0  0  0  0  0  0  0  0  0  0  0
    3.7320   -5.5627    0.0000 C   0  0  0  0  0  0  0  0  0  0  0  0
    2.8660   -4.0627    0.0000 C   0  0  0  0  0  0  0  0  0  0  0  0
    5.4641   -5.5627    0.0000 C   0  0  0  0  0  0  0  0  0  0  0  0
    4.5981   -6.0627    0.0000 C   0  0  0  0  0  0  0  0  0  0  0  0
    2.8660    1.9373    0.0000 C   0  0  0  0  0  0  0  0  0  0  0  0
    2.0000    0.4373    0.0000 C   0  0  0  0  0  0  0  0  0  0  0  0
    2.0000    1.4373    0.0000 C   0  0  0  0  0  0  0  0  0  0  0  0
    6.7219    1.2096    0.0000 H   0  0  0  0  0  0  0  0  0  0  0  0
    7.7997   -0.5064    0.0000 H   0  0  0  0  0  0  0  0  0  0  0  0
    8.6113   -0.3338    0.0000 H   0  0  0  0  0  0  0  0  0  0  0  0
    6.1181    0.5199    0.0000 H   0  0  0  0  0  0  0  0  0  0  0  0
    5.7196   -0.1703    0.0000 H   0  0  0  0  0  0  0  0  0  0  0  0
    9.4548    1.6028    0.0000 H   0  0  0  0  0  0  0  0  0  0  0  0
    9.6818    2.4498    0.0000 H   0  0  0  0  0  0  0  0  0  0  0  0
    8.8348    2.6767    0.0000 H   0  0  0  0  0  0  0  0  0  0  0  0
    8.6774    2.7468    0.0000 H   0  0  0  0  0  0  0  0  0  0  0  0
    7.9420    3.2244    0.0000 H   0  0  0  0  0  0  0  0  0  0  0  0
    7.4645    2.4890    0.0000 H   0  0  0  0  0  0  0  0  0  0  0  0
    6.8671   -0.7527    0.0000 H   0  0  0  0  0  0  0  0  0  0  0  0
    6.0010   -1.8727    0.0000 H   0  0  0  0  0  0  0  0  0  0  0  0
    7.3551    3.2707    0.0000 H   0  0  0  0  0  0  0  0  0  0  0  0
    3.9875   -0.9550    0.0000 H   0  0  0  0  0  0  0  0  0  0  0  0
    4.3860   -1.6453    0.0000 H   0  0  0  0  0  0  0  0  0  0  0  0
    6.0010   -2.8727    0.0000 H   0  0  0  0  0  0  0  0  0  0  0  0
    7.1962   -2.1827    0.0000 H   0  0  0  0  0  0  0  0  0  0  0  0
    5.4474    3.9805    0.0000 H   0  0  0  0  0  0  0  0  0  0  0  0
    5.6938    3.2224    0.0000 H   0  0  0  0  0  0  0  0  0  0  0  0
    4.8974    5.2039    0.0000 H   0  0  0  0  0  0  0  0  0  0  0  0
    7.9788    6.2052    0.0000 H   0  0  0  0  0  0  0  0  0  0  0  0
    6.0010   -4.2527    0.0000 H   0  0  0  0  0  0  0  0  0  0  0  0
    7.5096    3.9055    0.0000 H   0  0  0  0  0  0  0  0  0  0  0  0
    8.3852    3.9514    0.0000 H   0  0  0  0  0  0  0  0  0  0  0  0
    8.3393    4.8270    0.0000 H   0  0  0  0  0  0  0  0  0  0  0  0
    5.2342    6.7885    0.0000 H   0  0  0  0  0  0  0  0  0  0  0  0
    4.2690    1.7473    0.0000 H   0  0  0  0  0  0  0  0  0  0  0  0
    2.8660   -0.6827    0.0000 H   0  0  0  0  0  0  0  0  0  0  0  0
    6.7749    7.2891    0.0000 H   0  0  0  0  0  0  0  0  0  0  0  0
    3.1760   -3.5258    0.0000 H   0  0  0  0  0  0  0  0  0  0  0  0
    2.3291   -3.7527    0.0000 H   0  0  0  0  0  0  0  0  0  0  0  0
    2.5560   -4.5996    0.0000 H   0  0  0  0  0  0  0  0  0  0  0  0
    6.0010   -5.8727    0.0000 H   0  0  0  0  0  0  0  0  0  0  0  0
    4.5981   -6.6827    0.0000 H   0  0  0  0  0  0  0  0  0  0  0  0
    2.8660    2.5573    0.0000 H   0  0  0  0  0  0  0  0  0  0  0  0
    1.4631    0.1273    0.0000 H   0  0  0  0  0  0  0  0  0  0  0  0
    1.4631    1.7473    0.0000 H   0  0  0  0  0  0  0  0  0  0  0  0
    2.8660   -6.6827    0.0000 H   0  0  0  0  0  0  0  0  0  0  0  0
  1 10  1  0  0  0  0
  1 12  1  0  0  0  0
  2 19  1  0  0  0  0
  2 25  1  0  0  0  0
 16  3  1  1  0  0  0
  3 59  1  0  0  0  0
  4 17  2  0  0  0  0
  5 21  2  0  0  0  0
  6 35  1  0  0  0  0
  6 80  1  0  0  0  0
  7 11  1  0  0  0  0
  7 12  1  0  0  0  0
  7 13  1  0  0  0  0
  8 17  1  0  0  0  0
  8 20  1  0  0  0  0
  8 55  1  0  0  0  0
 18  9  1  1  0  0  0
  9 21  1  0  0  0  0
  9 58  1  0  0  0  0
 10 11  1  0  0  0  0
 10 14  1  0  0  0  0
 10 15  1  0  0  0  0
 11 17  1  6  0  0  0
 11 42  1  0  0  0  0
 12 43  1  0  0  0  0
 12 44  1  0  0  0  0
 13 16  1  0  0  0  0
 13 45  1  0  0  0  0
 13 46  1  0  0  0  0
 14 47  1  0  0  0  0
 14 48  1  0  0  0  0
 14 49  1  0  0  0  0
 15 50  1  0  0  0  0
 15 51  1  0  0  0  0
 15 52  1  0  0  0  0
 16 18  1  0  0  0  0
 16 53  1  0  0  0  0
 18 19  1  0  0  0  0
 18 54  1  0  0  0  0
 19 56  1  0  0  0  0
 19 57  1  0  0  0  0
 20 22  1  0  0  0  0
 20 60  1  0  0  0  0
 20 61  1  0  0  0  0
 21 23  1  0  0  0  0
 22 24  1  0  0  0  0
 22 26  2  0  0  0  0
 23 27  2  0  0  0  0
 23 29  1  0  0  0  0
 24 28  2  0  0  0  0
 24 30  1  0  0  0  0
 25 32  2  0  0  0  0
 25 33  1  0  0  0  0
 26 31  1  0  0  0  0
 26 62  1  0  0  0  0
 27 35  1  0  0  0  0
 27 36  1  0  0  0  0
 28 34  1  0  0  0  0
 28 63  1  0  0  0  0
 29 37  2  0  0  0  0
 29 64  1  0  0  0  0
 30 65  1  0  0  0  0
 30 66  1  0  0  0  0
 30 67  1  0  0  0  0
 31 34  2  0  0  0  0
 31 68  1  0  0  0  0
 32 39  1  0  0  0  0
 32 69  1  0  0  0  0
 33 40  2  0  0  0  0
 33 70  1  0  0  0  0
 34 71  1  0  0  0  0
 35 38  2  0  0  0  0
 36 72  1  0  0  0  0
 36 73  1  0  0  0  0
 36 74  1  0  0  0  0
 37 38  1  0  0  0  0
 37 75  1  0  0  0  0
 38 76  1  0  0  0  0
 39 41  2  0  0  0  0
 39 77  1  0  0  0  0
 40 41  1  0  0  0  0
 40 78  1  0  0  0  0
 41 79  1  0  0  0  0
M  END
> <PUBCHEM_COMPOUND_CID>
514686
> <PUBCHEM_COMPOUND_CANONICALIZED>
1
> <PUBCHEM_CACTVS_COMPLEXITY>
855
> <PUBCHEM_CACTVS_HBOND_ACCEPTOR>
7
> <PUBCHEM_CACTVS_HBOND_DONOR>
4
> <PUBCHEM_CACTVS_ROTATABLE_BOND>
11
> <PUBCHEM_CACTVS_SUBSKEYS>
AAADcfB/OABgAAAAAAAAAAAAAAAAAWAAAAAwYMAAAAAAAAABUAAAHgQQCAAADDzl2AayB4PAAgiIAiFSEACCAABkKBAIiJmODMgKdjKi1TOUcQhk1hG4mYe6yLCOgAABAAAYAAAAAAIAADAAAAAAAAAAAA==
> <PUBCHEM_IUPAC_OPENEYE_NAME>
(4R)-3-[(2R,3R)-2-hydroxy-3-[(3-hydroxy-2-methyl-benzoyl)amino]-4-phenylsulfanyl-butyl]-5,5-dimethyl-N-(o-tolylmethyl)thiazolidine-4-carboxamide
> <PUBCHEM_IUPAC_CAS_NAME>
(4R)-3-[(2R,3R)-2-hydroxy-3-[[(3-hydroxy-2-methylphenyl)-oxomethyl]amino]-4-(phenylthio)butyl]-5,5-dimethyl-N-[(2-methylphenyl)methyl]-4-thiazolidinecarboxamide
> <PUBCHEM_IUPAC_NAME_MARKUP>
(4<I>R</I>)-3-[(2<I>R</I>,3<I>R</I>)-2-hydroxy-3-[(3-hydroxy-2-methylbenzoyl)amino]-4-phenylsulfanylbutyl]-5,5-dimethyl-<I>N</I>-[(2-methylphenyl)methyl]-1,3-thiazolidine-4-carboxamide
> <PUBCHEM_IUPAC_NAME>
(4R)-3-[(2R,3R)-2-hydroxy-3-[(3-hydroxy-2-methylbenzoyl)amino]-4-phenylsulfanylbutyl]-5,5-dimethyl-N-[(2-methylphenyl)methyl]-1,3-thiazolidine-4-carboxamide
> <PUBCHEM_IUPAC_SYSTEMATIC_NAME>
(4R)-5,5-dimethyl-3-[(2R,3R)-3-[(2-methyl-3-oxidanyl-phenyl)carbonylamino]-2-oxidanyl-4-phenylsulfanyl-butyl]-N-[(2-methylphenyl)methyl]-1,3-thiazolidine-4-carboxamide
> <PUBCHEM_IUPAC_TRADITIONAL_NAME>
(4R)-3-[(2R,3R)-2-hydroxy-3-[(3-hydroxy-2-methyl-benzoyl)amino]-4-(phenylthio)butyl]-5,5-dimethyl-N-(2-methylbenzyl)thiazolidine-4-carboxamide
> <PUBCHEM_IUPAC_INCHI>
InChI=1S/C32H39N3O4S2/c1-21-11-8-9-12-23(21)17-33-31(39)29-32(3,4)41-20-35(29)18-28(37)26(19-40-24-13-6-5-7-14-24)34-30(38)25-15-10-16-27(36)22(25)2/h5-16,26,28-29,36-37H,17-20H2,1-4H3,(H,33,39)(H,34,38)/t26-,28+,29+/m0/s1
> <PUBCHEM_IUPAC_INCHIKEY>
OJVLLAMBJOPACC-WIIGKZCBSA-N
> <PUBCHEM_XLOGP3_AA>
5.3
> <PUBCHEM_EXACT_MASS>
593.23819908
> <PUBCHEM_MOLECULAR_FORMULA>
C32H39N3O4S2
> <PUBCHEM_MOLECULAR_WEIGHT>
593.8
> <PUBCHEM_OPENEYE_CAN_SMILES>
CC1=CC=CC=C1CNC(=O)C2C(SCN2CC(C(CSC3=CC=CC=C3)NC(=O)C4=C(C(=CC=C4)O)C)O)(C)C
> <PUBCHEM_OPENEYE_ISO_SMILES>
CC1=CC=CC=C1CNC(=O)[C@@H]2C(SCN2C[C@H]([C@H](CSC3=CC=CC=C3)NC(=O)C4=C(C(=CC=C4)O)C)O)(C)C
> <PUBCHEM_CACTVS_TPSA>
153
> <PUBCHEM_MONOISOTOPIC_WEIGHT>
593.23819908
> <PUBCHEM_TOTAL_CHARGE>
0
> <PUBCHEM_HEAVY_ATOM_COUNT>
41
> <PUBCHEM_ATOM_DEF_STEREO_COUNT>
3
> <PUBCHEM_ATOM_UDEF_STEREO_COUNT>
0
> <PUBCHEM_BOND_DEF_STEREO_COUNT>
0
> <PUBCHEM_BOND_UDEF_STEREO_COUNT>
0
> <PUBCHEM_ISOTOPIC_ATOM_COUNT>
0
> <PUBCHEM_COMPONENT_COUNT>
1
> <PUBCHEM_CACTVS_TAUTO_COUNT>
-1
> <PUBCHEM_COORDINATE_TYPE>
1
5
255
> <PUBCHEM_BONDANNOTATIONS>
11  17  6
22  24  8
22  26  8
23  27  8
23  29  8
24  28  8
25  32  8
25  33  8
26  31  8
27  35  8
28  34  8
29  37  8
16  3  5
31  34  8
32  39  8
33  40  8
35  38  8
37  38  8
39  41  8
40  41  8
18  9  5
$$$$
