514676
  -OEChem-10302200282D
 74 76  0     1  0  0  0  0  0999 V2000
    8.3916    3.0612    0.0000 S   0  0  0  0  0  0  0  0  0  0  0  0
    9.6237    0.5224    0.0000 O   0  0  0  0  0  0  0  0  0  0  0  0
    7.0256    0.0224    0.0000 O   0  0  0  0  0  0  0  0  0  0  0  0
    5.9236    0.8230    0.0000 O   0  0  0  0  0  0  0  0  0  0  0  0
   11.3557   -1.4776    0.0000 O   0  0  0  0  0  0  0  0  0  0  0  0
   10.4897    0.0224    0.0000 O   0  0  0  0  0  0  0  0  0  0  0  0
    7.8916    1.5224    0.0000 N   0  0  0  0  0  0  0  0  0  0  0  0
    5.3884    2.4702    0.0000 N   0  0  0  0  0  0  0  0  0  0  0  0
    9.6237   -1.4776    0.0000 N   0  0  0  0  0  0  0  0  0  0  0  0
    7.3916    3.0612    0.0000 C   0  0  0  0  0  0  0  0  0  0  0  0
    7.0826    2.1101    0.0000 C   0  0  1  0  0  0  0  0  0  0  0  0
    8.7006    2.1101    0.0000 C   0  0  0  0  0  0  0  0  0  0  0  0
    7.3916    4.0612    0.0000 C   0  0  0  0  0  0  0  0  0  0  0  0
    6.4406    3.3702    0.0000 C   0  0  0  0  0  0  0  0  0  0  0  0
    7.8916    0.5224    0.0000 C   0  0  0  0  0  0  0  0  0  0  0  0
    6.1316    1.8011    0.0000 C   0  0  0  0  0  0  0  0  0  0  0  0
    8.7576    0.0224    0.0000 C   0  0  2  0  0  0  0  0  0  0  0  0
    8.7576   -0.9776    0.0000 C   0  0  2  0  0  0  0  0  0  0  0  0
    7.8916   -1.4776    0.0000 C   0  0  0  0  0  0  0  0  0  0  0  0
    4.4374    2.1612    0.0000 C   0  0  0  0  0  0  0  0  0  0  0  0
    7.8916   -2.4776    0.0000 C   0  0  0  0  0  0  0  0  0  0  0  0
   10.4897   -0.9776    0.0000 C   0  0  0  0  0  0  0  0  0  0  0  0
    3.6942    2.8304    0.0000 C   0  0  0  0  0  0  0  0  0  0  0  0
    8.7576   -2.9776    0.0000 C   0  0  0  0  0  0  0  0  0  0  0  0
    7.0256   -2.9776    0.0000 C   0  0  0  0  0  0  0  0  0  0  0  0
   12.2217   -0.9776    0.0000 C   0  0  0  0  0  0  0  0  0  0  0  0
    2.7431    2.5214    0.0000 C   0  0  0  0  0  0  0  0  0  0  0  0
    3.9021    3.8085    0.0000 C   0  0  0  0  0  0  0  0  0  0  0  0
    8.7576   -3.9776    0.0000 C   0  0  0  0  0  0  0  0  0  0  0  0
    7.0256   -3.9776    0.0000 C   0  0  0  0  0  0  0  0  0  0  0  0
   12.7217   -1.8437    0.0000 C   0  0  0  0  0  0  0  0  0  0  0  0
   13.0878   -0.4776    0.0000 C   0  0  0  0  0  0  0  0  0  0  0  0
   11.7217   -0.1116    0.0000 C   0  0  0  0  0  0  0  0  0  0  0  0
    7.8916   -4.4776    0.0000 C   0  0  0  0  0  0  0  0  0  0  0  0
    2.0000    3.1905    0.0000 C   0  0  0  0  0  0  0  0  0  0  0  0
    3.1590    4.4776    0.0000 C   0  0  0  0  0  0  0  0  0  0  0  0
    2.2079    4.1686    0.0000 C   0  0  0  0  0  0  0  0  0  0  0  0
    6.9856    1.4978    0.0000 H   0  0  0  0  0  0  0  0  0  0  0  0
    9.0106    1.5732    0.0000 H   0  0  0  0  0  0  0  0  0  0  0  0
    9.2670    2.3623    0.0000 H   0  0  0  0  0  0  0  0  0  0  0  0
    8.0116    4.0612    0.0000 H   0  0  0  0  0  0  0  0  0  0  0  0
    7.3916    4.6812    0.0000 H   0  0  0  0  0  0  0  0  0  0  0  0
    6.7716    4.0612    0.0000 H   0  0  0  0  0  0  0  0  0  0  0  0
    6.6322    3.9599    0.0000 H   0  0  0  0  0  0  0  0  0  0  0  0
    5.8509    3.5618    0.0000 H   0  0  0  0  0  0  0  0  0  0  0  0
    6.2490    2.7806    0.0000 H   0  0  0  0  0  0  0  0  0  0  0  0
    8.7576    0.6424    0.0000 H   0  0  0  0  0  0  0  0  0  0  0  0
    9.2946   -0.6676    0.0000 H   0  0  0  0  0  0  0  0  0  0  0  0
    7.6796   -0.8950    0.0000 H   0  0  0  0  0  0  0  0  0  0  0  0
    7.2810   -1.5853    0.0000 H   0  0  0  0  0  0  0  0  0  0  0  0
    5.5173    3.0767    0.0000 H   0  0  0  0  0  0  0  0  0  0  0  0
    9.6237   -2.0976    0.0000 H   0  0  0  0  0  0  0  0  0  0  0  0
    3.9488    1.7795    0.0000 H   0  0  0  0  0  0  0  0  0  0  0  0
    4.7284    1.6138    0.0000 H   0  0  0  0  0  0  0  0  0  0  0  0
    9.6237    1.1424    0.0000 H   0  0  0  0  0  0  0  0  0  0  0  0
    9.2946   -2.6676    0.0000 H   0  0  0  0  0  0  0  0  0  0  0  0
    6.4887   -2.6676    0.0000 H   0  0  0  0  0  0  0  0  0  0  0  0
    2.6142    1.9149    0.0000 H   0  0  0  0  0  0  0  0  0  0  0  0
    4.4918    4.0001    0.0000 H   0  0  0  0  0  0  0  0  0  0  0  0
    9.2946   -4.2876    0.0000 H   0  0  0  0  0  0  0  0  0  0  0  0
    6.4887   -4.2876    0.0000 H   0  0  0  0  0  0  0  0  0  0  0  0
   12.1848   -2.1537    0.0000 H   0  0  0  0  0  0  0  0  0  0  0  0
   13.0317   -2.3806    0.0000 H   0  0  0  0  0  0  0  0  0  0  0  0
   13.2587   -1.5337    0.0000 H   0  0  0  0  0  0  0  0  0  0  0  0
   13.3978   -1.0146    0.0000 H   0  0  0  0  0  0  0  0  0  0  0  0
   13.6247   -0.1676    0.0000 H   0  0  0  0  0  0  0  0  0  0  0  0
   12.7778    0.0593    0.0000 H   0  0  0  0  0  0  0  0  0  0  0  0
   12.2587    0.1984    0.0000 H   0  0  0  0  0  0  0  0  0  0  0  0
   11.4117    0.4253    0.0000 H   0  0  0  0  0  0  0  0  0  0  0  0
   11.1848   -0.4216    0.0000 H   0  0  0  0  0  0  0  0  0  0  0  0
    7.8916   -5.0976    0.0000 H   0  0  0  0  0  0  0  0  0  0  0  0
    1.4103    2.9989    0.0000 H   0  0  0  0  0  0  0  0  0  0  0  0
    3.2879    5.0841    0.0000 H   0  0  0  0  0  0  0  0  0  0  0  0
    1.7472    4.5835    0.0000 H   0  0  0  0  0  0  0  0  0  0  0  0
  1 10  1  0  0  0  0
  1 12  1  0  0  0  0
 17  2  1  1  0  0  0
  2 55  1  0  0  0  0
  3 15  2  0  0  0  0
  4 16  2  0  0  0  0
  5 22  1  0  0  0  0
  5 26  1  0  0  0  0
  6 22  2  0  0  0  0
  7 11  1  0  0  0  0
  7 12  1  0  0  0  0
  7 15  1  0  0  0  0
  8 16  1  0  0  0  0
  8 20  1  0  0  0  0
  8 51  1  0  0  0  0
 18  9  1  1  0  0  0
  9 22  1  0  0  0  0
  9 52  1  0  0  0  0
 10 11  1  0  0  0  0
 10 13  1  0  0  0  0
 10 14  1  0  0  0  0
 11 16  1  6  0  0  0
 11 38  1  0  0  0  0
 12 39  1  0  0  0  0
 12 40  1  0  0  0  0
 13 41  1  0  0  0  0
 13 42  1  0  0  0  0
 13 43  1  0  0  0  0
 14 44  1  0  0  0  0
 14 45  1  0  0  0  0
 14 46  1  0  0  0  0
 15 17  1  0  0  0  0
 17 18  1  0  0  0  0
 17 47  1  0  0  0  0
 18 19  1  0  0  0  0
 18 48  1  0  0  0  0
 19 21  1  0  0  0  0
 19 49  1  0  0  0  0
 19 50  1  0  0  0  0
 20 23  1  0  0  0  0
 20 53  1  0  0  0  0
 20 54  1  0  0  0  0
 21 24  2  0  0  0  0
 21 25  1  0  0  0  0
 23 27  2  0  0  0  0
 23 28  1  0  0  0  0
 24 29  1  0  0  0  0
 24 56  1  0  0  0  0
 25 30  2  0  0  0  0
 25 57  1  0  0  0  0
 26 31  1  0  0  0  0
 26 32  1  0  0  0  0
 26 33  1  0  0  0  0
 27 35  1  0  0  0  0
 27 58  1  0  0  0  0
 28 36  2  0  0  0  0
 28 59  1  0  0  0  0
 29 34  2  0  0  0  0
 29 60  1  0  0  0  0
 30 34  1  0  0  0  0
 30 61  1  0  0  0  0
 31 62  1  0  0  0  0
 31 63  1  0  0  0  0
 31 64  1  0  0  0  0
 32 65  1  0  0  0  0
 32 66  1  0  0  0  0
 32 67  1  0  0  0  0
 33 68  1  0  0  0  0
 33 69  1  0  0  0  0
 33 70  1  0  0  0  0
 34 71  1  0  0  0  0
 35 37  2  0  0  0  0
 35 72  1  0  0  0  0
 36 37  1  0  0  0  0
 36 73  1  0  0  0  0
 37 74  1  0  0  0  0
M  END
> <PUBCHEM_COMPOUND_CID>
514676
> <PUBCHEM_COMPOUND_CANONICALIZED>
1
> <PUBCHEM_CACTVS_COMPLEXITY>
787
> <PUBCHEM_CACTVS_HBOND_ACCEPTOR>
6
> <PUBCHEM_CACTVS_HBOND_DONOR>
3
> <PUBCHEM_CACTVS_ROTATABLE_BOND>
10
> <PUBCHEM_CACTVS_SUBSKEYS>
AAADcfB7OABAAAAAAAAAAAAAAAAAAWAAAAAwYAAAAAAAAAABQAAAHgQQCAAADHzh2AayCIPABgiIAiFSGAKCAABgABAIiIHIBIkKcDqg0TGcYAhklgCYiAeYyKCOAAAAAAAAAAAAAAAAAAAAAAAAAAAAAA==
> <PUBCHEM_IUPAC_OPENEYE_NAME>
tert-butyl N-[(1S,2S)-1-benzyl-3-[(4R)-4-(benzylcarbamoyl)-5,5-dimethyl-thiazolidin-3-yl]-2-hydroxy-3-oxo-propyl]carbamate
> <PUBCHEM_IUPAC_CAS_NAME>
N-[(2S,3S)-4-[(4R)-5,5-dimethyl-4-[oxo-[(phenylmethyl)amino]methyl]-3-thiazolidinyl]-3-hydroxy-4-oxo-1-phenylbutan-2-yl]carbamic acid tert-butyl ester
> <PUBCHEM_IUPAC_NAME_MARKUP>
<I>tert</I>-butyl <I>N</I>-[(2<I>S</I>,3<I>S</I>)-4-[(4<I>R</I>)-4-(benzylcarbamoyl)-5,5-dimethyl-1,3-thiazolidin-3-yl]-3-hydroxy-4-oxo-1-phenylbutan-2-yl]carbamate
> <PUBCHEM_IUPAC_NAME>
tert-butyl N-[(2S,3S)-4-[(4R)-4-(benzylcarbamoyl)-5,5-dimethyl-1,3-thiazolidin-3-yl]-3-hydroxy-4-oxo-1-phenylbutan-2-yl]carbamate
> <PUBCHEM_IUPAC_SYSTEMATIC_NAME>
tert-butyl N-[(2S,3S)-4-[(4R)-5,5-dimethyl-4-[(phenylmethyl)carbamoyl]-1,3-thiazolidin-3-yl]-3-oxidanyl-4-oxidanylidene-1-phenyl-butan-2-yl]carbamate
> <PUBCHEM_IUPAC_TRADITIONAL_NAME>
N-[(1S,2S)-1-benzyl-3-[(4R)-4-(benzylcarbamoyl)-5,5-dimethyl-thiazolidin-3-yl]-2-hydroxy-3-keto-propyl]carbamic acid tert-butyl ester
> <PUBCHEM_IUPAC_INCHI>
InChI=1S/C28H37N3O5S/c1-27(2,3)36-26(35)30-21(16-19-12-8-6-9-13-19)22(32)25(34)31-18-37-28(4,5)23(31)24(33)29-17-20-14-10-7-11-15-20/h6-15,21-23,32H,16-18H2,1-5H3,(H,29,33)(H,30,35)/t21-,22-,23+/m0/s1
> <PUBCHEM_IUPAC_INCHIKEY>
CWVQSZCJNQNOFN-RJGXRXQPSA-N
> <PUBCHEM_XLOGP3_AA>
3.8
> <PUBCHEM_EXACT_MASS>
527.24539246
> <PUBCHEM_MOLECULAR_FORMULA>
C28H37N3O5S
> <PUBCHEM_MOLECULAR_WEIGHT>
527.7
> <PUBCHEM_OPENEYE_CAN_SMILES>
CC1(C(N(CS1)C(=O)C(C(CC2=CC=CC=C2)NC(=O)OC(C)(C)C)O)C(=O)NCC3=CC=CC=C3)C
> <PUBCHEM_OPENEYE_ISO_SMILES>
CC1([C@H](N(CS1)C(=O)[C@H]([C@H](CC2=CC=CC=C2)NC(=O)OC(C)(C)C)O)C(=O)NCC3=CC=CC=C3)C
> <PUBCHEM_CACTVS_TPSA>
133
> <PUBCHEM_MONOISOTOPIC_WEIGHT>
527.24539246
> <PUBCHEM_TOTAL_CHARGE>
0
> <PUBCHEM_HEAVY_ATOM_COUNT>
37
> <PUBCHEM_ATOM_DEF_STEREO_COUNT>
3
> <PUBCHEM_ATOM_UDEF_STEREO_COUNT>
0
> <PUBCHEM_BOND_DEF_STEREO_COUNT>
0
> <PUBCHEM_BOND_UDEF_STEREO_COUNT>
0
> <PUBCHEM_ISOTOPIC_ATOM_COUNT>
0
> <PUBCHEM_COMPONENT_COUNT>
1
> <PUBCHEM_CACTVS_TAUTO_COUNT>
-1
> <PUBCHEM_COORDINATE_TYPE>
1
5
255
> <PUBCHEM_BONDANNOTATIONS>
11  16  6
17  2  5
21  24  8
21  25  8
23  27  8
23  28  8
24  29  8
25  30  8
27  35  8
28  36  8
29  34  8
30  34  8
35  37  8
36  37  8
18  9  5
$$$$
