514616
  -OEChem-10302200282D
 71 74  0     1  0  0  0  0  0999 V2000
   10.9629   -0.0238    0.0000 Cl  0  0  0  0  0  0  0  0  0  0  0  0
    9.1448    3.0124    0.0000 F   0  0  0  0  0  0  0  0  0  0  0  0
    8.0709    3.4906    0.0000 F   0  0  0  0  0  0  0  0  0  0  0  0
    9.8924   -3.3183    0.0000 F   0  0  0  0  0  0  0  0  0  0  0  0
    5.4641    2.3100    0.0000 O   0  0  0  0  0  0  0  0  0  0  0  0
    6.3301   -0.1900    0.0000 O   0  0  0  0  0  0  0  0  0  0  0  0
    7.5745   -0.7440    0.0000 O   0  0  0  0  0  0  0  0  0  0  0  0
    2.8660   -0.1900    0.0000 O   0  0  0  0  0  0  0  0  0  0  0  0
    2.0000   -3.6900    0.0000 O   0  0  0  0  0  0  0  0  0  0  0  0
    7.1962    1.3100    0.0000 N   0  0  0  0  0  0  0  0  0  0  0  0
    9.2687   -0.3839    0.0000 N   0  0  0  0  0  0  0  0  0  0  0  0
    4.5981   -0.1900    0.0000 N   0  0  0  0  0  0  0  0  0  0  0  0
    8.1097    0.9033    0.0000 C   0  0  1  0  0  0  0  0  0  0  0  0
    8.7788    1.6464    0.0000 C   0  0  0  0  0  0  0  0  0  0  0  0
    8.2788    2.5124    0.0000 C   0  0  0  0  0  0  0  0  0  0  0  0
    7.3007    2.3045    0.0000 C   0  0  0  0  0  0  0  0  0  0  0  0
    6.3301    0.8100    0.0000 C   0  0  0  0  0  0  0  0  0  0  0  0
    5.4641    1.3100    0.0000 C   0  0  2  0  0  0  0  0  0  0  0  0
    8.3176   -0.0749    0.0000 C   0  0  0  0  0  0  0  0  0  0  0  0
    4.5981    0.8100    0.0000 C   0  0  2  0  0  0  0  0  0  0  0  0
    3.7320    1.3100    0.0000 C   0  0  0  0  0  0  0  0  0  0  0  0
    3.7320    2.3100    0.0000 C   0  0  0  0  0  0  0  0  0  0  0  0
    9.4766   -1.3620    0.0000 C   0  0  0  0  0  0  0  0  0  0  0  0
    3.7320   -0.6900    0.0000 C   0  0  0  0  0  0  0  0  0  0  0  0
   10.4276   -1.6711    0.0000 C   0  0  0  0  0  0  0  0  0  0  0  0
    2.8660    2.8100    0.0000 C   0  0  0  0  0  0  0  0  0  0  0  0
    4.5981    2.8100    0.0000 C   0  0  0  0  0  0  0  0  0  0  0  0
    3.7320   -1.6900    0.0000 C   0  0  0  0  0  0  0  0  0  0  0  0
    2.8660    3.8100    0.0000 C   0  0  0  0  0  0  0  0  0  0  0  0
    4.5981    3.8100    0.0000 C   0  0  0  0  0  0  0  0  0  0  0  0
    2.8660   -2.1900    0.0000 C   0  0  0  0  0  0  0  0  0  0  0  0
   11.1708   -1.0019    0.0000 C   0  0  0  0  0  0  0  0  0  0  0  0
   10.6355   -2.6492    0.0000 C   0  0  0  0  0  0  0  0  0  0  0  0
    3.7320    4.3100    0.0000 C   0  0  0  0  0  0  0  0  0  0  0  0
    4.5981   -2.1900    0.0000 C   0  0  0  0  0  0  0  0  0  0  0  0
    2.8660   -3.1900    0.0000 C   0  0  0  0  0  0  0  0  0  0  0  0
   12.1218   -1.3110    0.0000 C   0  0  0  0  0  0  0  0  0  0  0  0
   11.5866   -2.9582    0.0000 C   0  0  0  0  0  0  0  0  0  0  0  0
    2.0000   -1.6900    0.0000 C   0  0  0  0  0  0  0  0  0  0  0  0
    4.5981   -3.1900    0.0000 C   0  0  0  0  0  0  0  0  0  0  0  0
    3.7320   -3.6900    0.0000 C   0  0  0  0  0  0  0  0  0  0  0  0
   12.3297   -2.2891    0.0000 C   0  0  0  0  0  0  0  0  0  0  0  0
    7.6279    0.5131    0.0000 H   0  0  0  0  0  0  0  0  0  0  0  0
    9.1937    1.1857    0.0000 H   0  0  0  0  0  0  0  0  0  0  0  0
    9.2804    2.0108    0.0000 H   0  0  0  0  0  0  0  0  0  0  0  0
    7.2359    2.9211    0.0000 H   0  0  0  0  0  0  0  0  0  0  0  0
    6.6807    2.3045    0.0000 H   0  0  0  0  0  0  0  0  0  0  0  0
    6.0010    1.6200    0.0000 H   0  0  0  0  0  0  0  0  0  0  0  0
    5.1350    0.5000    0.0000 H   0  0  0  0  0  0  0  0  0  0  0  0
    3.1215    1.4177    0.0000 H   0  0  0  0  0  0  0  0  0  0  0  0
    3.5200    0.7274    0.0000 H   0  0  0  0  0  0  0  0  0  0  0  0
    9.7294    0.0310    0.0000 H   0  0  0  0  0  0  0  0  0  0  0  0
    5.1350   -0.5000    0.0000 H   0  0  0  0  0  0  0  0  0  0  0  0
    6.0010    2.6200    0.0000 H   0  0  0  0  0  0  0  0  0  0  0  0
    8.8570   -1.3837    0.0000 H   0  0  0  0  0  0  0  0  0  0  0  0
    9.3903   -1.9760    0.0000 H   0  0  0  0  0  0  0  0  0  0  0  0
    2.3291    2.5000    0.0000 H   0  0  0  0  0  0  0  0  0  0  0  0
    5.1350    2.5000    0.0000 H   0  0  0  0  0  0  0  0  0  0  0  0
    2.3291    4.1200    0.0000 H   0  0  0  0  0  0  0  0  0  0  0  0
    5.1350    4.1200    0.0000 H   0  0  0  0  0  0  0  0  0  0  0  0
    3.7320    4.9300    0.0000 H   0  0  0  0  0  0  0  0  0  0  0  0
    5.1350   -1.8800    0.0000 H   0  0  0  0  0  0  0  0  0  0  0  0
   12.5826   -0.8961    0.0000 H   0  0  0  0  0  0  0  0  0  0  0  0
   11.7155   -3.5647    0.0000 H   0  0  0  0  0  0  0  0  0  0  0  0
    2.3100   -1.1531    0.0000 H   0  0  0  0  0  0  0  0  0  0  0  0
    1.4631   -1.3800    0.0000 H   0  0  0  0  0  0  0  0  0  0  0  0
    1.6900   -2.2269    0.0000 H   0  0  0  0  0  0  0  0  0  0  0  0
    5.1350   -3.5000    0.0000 H   0  0  0  0  0  0  0  0  0  0  0  0
    3.7320   -4.3100    0.0000 H   0  0  0  0  0  0  0  0  0  0  0  0
   12.9194   -2.4807    0.0000 H   0  0  0  0  0  0  0  0  0  0  0  0
    2.0000   -4.3100    0.0000 H   0  0  0  0  0  0  0  0  0  0  0  0
  1 32  1  0  0  0  0
  2 15  1  0  0  0  0
  3 15  1  0  0  0  0
  4 33  1  0  0  0  0
 18  5  1  6  0  0  0
  5 54  1  0  0  0  0
  6 17  2  0  0  0  0
  7 19  2  0  0  0  0
  8 24  2  0  0  0  0
  9 36  1  0  0  0  0
  9 71  1  0  0  0  0
 10 13  1  0  0  0  0
 10 16  1  0  0  0  0
 10 17  1  0  0  0  0
 11 19  1  0  0  0  0
 11 23  1  0  0  0  0
 11 52  1  0  0  0  0
 20 12  1  1  0  0  0
 12 24  1  0  0  0  0
 12 53  1  0  0  0  0
 13 14  1  0  0  0  0
 13 19  1  1  0  0  0
 13 43  1  0  0  0  0
 14 15  1  0  0  0  0
 14 44  1  0  0  0  0
 14 45  1  0  0  0  0
 15 16  1  0  0  0  0
 16 46  1  0  0  0  0
 16 47  1  0  0  0  0
 17 18  1  0  0  0  0
 18 20  1  0  0  0  0
 18 48  1  0  0  0  0
 20 21  1  0  0  0  0
 20 49  1  0  0  0  0
 21 22  1  0  0  0  0
 21 50  1  0  0  0  0
 21 51  1  0  0  0  0
 22 26  2  0  0  0  0
 22 27  1  0  0  0  0
 23 25  1  0  0  0  0
 23 55  1  0  0  0  0
 23 56  1  0  0  0  0
 24 28  1  0  0  0  0
 25 32  1  0  0  0  0
 25 33  2  0  0  0  0
 26 29  1  0  0  0  0
 26 57  1  0  0  0  0
 27 30  2  0  0  0  0
 27 58  1  0  0  0  0
 28 31  2  0  0  0  0
 28 35  1  0  0  0  0
 29 34  2  0  0  0  0
 29 59  1  0  0  0  0
 30 34  1  0  0  0  0
 30 60  1  0  0  0  0
 31 36  1  0  0  0  0
 31 39  1  0  0  0  0
 32 37  2  0  0  0  0
 33 38  1  0  0  0  0
 34 61  1  0  0  0  0
 35 40  2  0  0  0  0
 35 62  1  0  0  0  0
 36 41  2  0  0  0  0
 37 42  1  0  0  0  0
 37 63  1  0  0  0  0
 38 42  2  0  0  0  0
 38 64  1  0  0  0  0
 39 65  1  0  0  0  0
 39 66  1  0  0  0  0
 39 67  1  0  0  0  0
 40 41  1  0  0  0  0
 40 68  1  0  0  0  0
 41 69  1  0  0  0  0
 42 70  1  0  0  0  0
M  END
> <PUBCHEM_COMPOUND_CID>
514616
> <PUBCHEM_COMPOUND_CANONICALIZED>
1
> <PUBCHEM_CACTVS_COMPLEXITY>
955
> <PUBCHEM_CACTVS_HBOND_ACCEPTOR>
8
> <PUBCHEM_CACTVS_HBOND_DONOR>
4
> <PUBCHEM_CACTVS_ROTATABLE_BOND>
9
> <PUBCHEM_CACTVS_SUBSKEYS>
AAADceB7OYAEAAAAAAAAAAAAAAAAAWAAAAAwYMAAAAAAAAABUAAAHwIQCAAADD7hmD4yBoPAAgCIAiFSEAKCAAAkJQAIiIHODsgKdjqD1zOUcQhk1hGYmYe6ybCOgAABAAAZAAAAAAIAADIAAAAAAAAAAA==
> <PUBCHEM_IUPAC_OPENEYE_NAME>
(2S)-N-[(2-chloro-6-fluoro-phenyl)methyl]-4,4-difluoro-1-[(2S,3S)-2-hydroxy-3-[(3-hydroxy-2-methyl-benzoyl)amino]-4-phenyl-butanoyl]pyrrolidine-2-carboxamide
> <PUBCHEM_IUPAC_CAS_NAME>
(2S)-N-[(2-chloro-6-fluorophenyl)methyl]-4,4-difluoro-1-[(2S,3S)-2-hydroxy-3-[[(3-hydroxy-2-methylphenyl)-oxomethyl]amino]-1-oxo-4-phenylbutyl]-2-pyrrolidinecarboxamide
> <PUBCHEM_IUPAC_NAME_MARKUP>
(2<I>S</I>)-<I>N</I>-[(2-chloro-6-fluorophenyl)methyl]-4,4-difluoro-1-[(2<I>S</I>,3<I>S</I>)-2-hydroxy-3-[(3-hydroxy-2-methylbenzoyl)amino]-4-phenylbutanoyl]pyrrolidine-2-carboxamide
> <PUBCHEM_IUPAC_NAME>
(2S)-N-[(2-chloro-6-fluorophenyl)methyl]-4,4-difluoro-1-[(2S,3S)-2-hydroxy-3-[(3-hydroxy-2-methylbenzoyl)amino]-4-phenylbutanoyl]pyrrolidine-2-carboxamide
> <PUBCHEM_IUPAC_SYSTEMATIC_NAME>
(2S)-N-[(2-chloranyl-6-fluoranyl-phenyl)methyl]-4,4-bis(fluoranyl)-1-[(2S,3S)-3-[(2-methyl-3-oxidanyl-phenyl)carbonylamino]-2-oxidanyl-4-phenyl-butanoyl]pyrrolidine-2-carboxamide
> <PUBCHEM_IUPAC_TRADITIONAL_NAME>
(2S)-N-(2-chloro-6-fluoro-benzyl)-4,4-difluoro-1-[(2S,3S)-2-hydroxy-3-[(3-hydroxy-2-methyl-benzoyl)amino]-4-phenyl-butanoyl]pyrrolidine-2-carboxamide
> <PUBCHEM_IUPAC_INCHI>
InChI=1S/C30H29ClF3N3O5/c1-17-19(9-5-12-25(17)38)27(40)36-23(13-18-7-3-2-4-8-18)26(39)29(42)37-16-30(33,34)14-24(37)28(41)35-15-20-21(31)10-6-11-22(20)32/h2-12,23-24,26,38-39H,13-16H2,1H3,(H,35,41)(H,36,40)/t23-,24-,26-/m0/s1
> <PUBCHEM_IUPAC_INCHIKEY>
LHQXHGGKCLYCFN-GNKBHMEESA-N
> <PUBCHEM_XLOGP3_AA>
4.5
> <PUBCHEM_EXACT_MASS>
603.1747832
> <PUBCHEM_MOLECULAR_FORMULA>
C30H29ClF3N3O5
> <PUBCHEM_MOLECULAR_WEIGHT>
604.0
> <PUBCHEM_OPENEYE_CAN_SMILES>
CC1=C(C=CC=C1O)C(=O)NC(CC2=CC=CC=C2)C(C(=O)N3CC(CC3C(=O)NCC4=C(C=CC=C4Cl)F)(F)F)O
> <PUBCHEM_OPENEYE_ISO_SMILES>
CC1=C(C=CC=C1O)C(=O)N[C@@H](CC2=CC=CC=C2)[C@@H](C(=O)N3CC(C[C@H]3C(=O)NCC4=C(C=CC=C4Cl)F)(F)F)O
> <PUBCHEM_CACTVS_TPSA>
119
> <PUBCHEM_MONOISOTOPIC_WEIGHT>
603.1747832
> <PUBCHEM_TOTAL_CHARGE>
0
> <PUBCHEM_HEAVY_ATOM_COUNT>
42
> <PUBCHEM_ATOM_DEF_STEREO_COUNT>
3
> <PUBCHEM_ATOM_UDEF_STEREO_COUNT>
0
> <PUBCHEM_BOND_DEF_STEREO_COUNT>
0
> <PUBCHEM_BOND_UDEF_STEREO_COUNT>
0
> <PUBCHEM_ISOTOPIC_ATOM_COUNT>
0
> <PUBCHEM_COMPONENT_COUNT>
1
> <PUBCHEM_CACTVS_TAUTO_COUNT>
-1
> <PUBCHEM_COORDINATE_TYPE>
1
5
255
> <PUBCHEM_BONDANNOTATIONS>
20  12  5
13  19  5
22  26  8
22  27  8
25  32  8
25  33  8
26  29  8
27  30  8
28  31  8
28  35  8
29  34  8
30  34  8
31  36  8
32  37  8
33  38  8
35  40  8
36  41  8
37  42  8
38  42  8
40  41  8
18  5  6
$$$$
