514634
  -OEChem-10302200282D
 79 83  0     1  0  0  0  0  0999 V2000
    8.7006   -2.6197    0.0000 S   0  0  0  0  0  0  0  0  0  0  0  0
    5.9236   -3.9068    0.0000 O   0  0  0  0  0  0  0  0  0  0  0  0
    5.8093   -0.9641    0.0000 O   0  0  0  0  0  0  0  0  0  0  0  0
    8.2051    0.1585    0.0000 O   0  0  0  0  0  0  0  0  0  0  0  0
    8.6118    1.0720    0.0000 O   0  0  0  0  0  0  0  0  0  0  0  0
   10.8266    3.9172    0.0000 O   0  0  0  0  0  0  0  0  0  0  0  0
    7.3916   -1.6686    0.0000 N   0  0  0  0  0  0  0  0  0  0  0  0
    5.3884   -2.2596    0.0000 N   0  0  0  0  0  0  0  0  0  0  0  0
    7.0295    1.7765    0.0000 N   0  0  0  0  0  0  0  0  0  0  0  0
    7.8916   -3.2075    0.0000 C   0  0  0  0  0  0  0  0  0  0  0  0
    8.5987   -3.9146    0.0000 C   0  0  0  0  0  0  0  0  0  0  0  0
    7.1845   -3.9146    0.0000 C   0  0  0  0  0  0  0  0  0  0  0  0
    7.0826   -2.6197    0.0000 C   0  0  1  0  0  0  0  0  0  0  0  0
    7.8916   -4.6217    0.0000 C   0  0  0  0  0  0  0  0  0  0  0  0
    8.3916   -1.6686    0.0000 C   0  0  0  0  0  0  0  0  0  0  0  0
    6.1316   -2.9287    0.0000 C   0  0  0  0  0  0  0  0  0  0  0  0
    6.8038   -0.8596    0.0000 C   0  0  0  0  0  0  0  0  0  0  0  0
    7.2106    0.0539    0.0000 C   0  0  2  0  0  0  0  0  0  0  0  0
    6.6228    0.8630    0.0000 C   0  0  2  0  0  0  0  0  0  0  0  0
    4.4374   -2.5686    0.0000 C   0  0  0  0  0  0  0  0  0  0  0  0
    5.6283    0.7584    0.0000 C   0  0  0  0  0  0  0  0  0  0  0  0
    3.6942   -1.8994    0.0000 C   0  0  0  0  0  0  0  0  0  0  0  0
    5.0405    1.5674    0.0000 C   0  0  0  0  0  0  0  0  0  0  0  0
    8.0241    1.8810    0.0000 C   0  0  0  0  0  0  0  0  0  0  0  0
    3.9021   -0.9213    0.0000 C   0  0  0  0  0  0  0  0  0  0  0  0
    2.7431   -2.2085    0.0000 C   0  0  0  0  0  0  0  0  0  0  0  0
    4.0460    1.4629    0.0000 C   0  0  0  0  0  0  0  0  0  0  0  0
    5.4472    2.4810    0.0000 C   0  0  0  0  0  0  0  0  0  0  0  0
    8.4308    2.7946    0.0000 C   0  0  0  0  0  0  0  0  0  0  0  0
    3.1590   -0.2522    0.0000 C   0  0  0  0  0  0  0  0  0  0  0  0
    4.8532   -0.6123    0.0000 C   0  0  0  0  0  0  0  0  0  0  0  0
    2.0000   -1.5393    0.0000 C   0  0  0  0  0  0  0  0  0  0  0  0
    2.2079   -0.5612    0.0000 C   0  0  0  0  0  0  0  0  0  0  0  0
    3.4582    2.2719    0.0000 C   0  0  0  0  0  0  0  0  0  0  0  0
    4.8594    3.2900    0.0000 C   0  0  0  0  0  0  0  0  0  0  0  0
    9.4253    2.8991    0.0000 C   0  0  0  0  0  0  0  0  0  0  0  0
    3.8649    3.1855    0.0000 C   0  0  0  0  0  0  0  0  0  0  0  0
    7.8430    3.6036    0.0000 C   0  0  0  0  0  0  0  0  0  0  0  0
    9.8320    3.8127    0.0000 C   0  0  0  0  0  0  0  0  0  0  0  0
   10.0131    2.0901    0.0000 C   0  0  0  0  0  0  0  0  0  0  0  0
    8.2497    4.5171    0.0000 C   0  0  0  0  0  0  0  0  0  0  0  0
    9.2443    4.6217    0.0000 C   0  0  0  0  0  0  0  0  0  0  0  0
    9.0371   -4.3530    0.0000 H   0  0  0  0  0  0  0  0  0  0  0  0
    9.0371   -3.4762    0.0000 H   0  0  0  0  0  0  0  0  0  0  0  0
    6.7461   -3.4762    0.0000 H   0  0  0  0  0  0  0  0  0  0  0  0
    6.7461   -4.3530    0.0000 H   0  0  0  0  0  0  0  0  0  0  0  0
    6.6442   -2.1813    0.0000 H   0  0  0  0  0  0  0  0  0  0  0  0
    7.4532   -5.0601    0.0000 H   0  0  0  0  0  0  0  0  0  0  0  0
    8.3300   -5.0601    0.0000 H   0  0  0  0  0  0  0  0  0  0  0  0
    8.9981   -1.5397    0.0000 H   0  0  0  0  0  0  0  0  0  0  0  0
    8.3268   -1.0520    0.0000 H   0  0  0  0  0  0  0  0  0  0  0  0
    7.4628    0.6203    0.0000 H   0  0  0  0  0  0  0  0  0  0  0  0
    5.5173   -1.6531    0.0000 H   0  0  0  0  0  0  0  0  0  0  0  0
    6.2584    1.3646    0.0000 H   0  0  0  0  0  0  0  0  0  0  0  0
    3.9488   -2.9503    0.0000 H   0  0  0  0  0  0  0  0  0  0  0  0
    4.7284   -3.1160    0.0000 H   0  0  0  0  0  0  0  0  0  0  0  0
    5.0710    0.4866    0.0000 H   0  0  0  0  0  0  0  0  0  0  0  0
    5.7992    0.1625    0.0000 H   0  0  0  0  0  0  0  0  0  0  0  0
    8.5695   -0.3431    0.0000 H   0  0  0  0  0  0  0  0  0  0  0  0
    6.6651    2.2781    0.0000 H   0  0  0  0  0  0  0  0  0  0  0  0
    2.6142   -2.8149    0.0000 H   0  0  0  0  0  0  0  0  0  0  0  0
    3.7938    0.8965    0.0000 H   0  0  0  0  0  0  0  0  0  0  0  0
    6.0638    2.5458    0.0000 H   0  0  0  0  0  0  0  0  0  0  0  0
    3.2879    0.3543    0.0000 H   0  0  0  0  0  0  0  0  0  0  0  0
    5.0448   -1.2019    0.0000 H   0  0  0  0  0  0  0  0  0  0  0  0
    5.4428   -0.4207    0.0000 H   0  0  0  0  0  0  0  0  0  0  0  0
    4.6616   -0.0226    0.0000 H   0  0  0  0  0  0  0  0  0  0  0  0
    1.4103   -1.7309    0.0000 H   0  0  0  0  0  0  0  0  0  0  0  0
    1.7472   -0.1463    0.0000 H   0  0  0  0  0  0  0  0  0  0  0  0
    2.8416    2.2071    0.0000 H   0  0  0  0  0  0  0  0  0  0  0  0
    5.1116    3.8564    0.0000 H   0  0  0  0  0  0  0  0  0  0  0  0
    3.5005    3.6871    0.0000 H   0  0  0  0  0  0  0  0  0  0  0  0
    7.2264    3.5388    0.0000 H   0  0  0  0  0  0  0  0  0  0  0  0
    9.5115    1.7257    0.0000 H   0  0  0  0  0  0  0  0  0  0  0  0
   10.3775    1.5885    0.0000 H   0  0  0  0  0  0  0  0  0  0  0  0
   10.5147    2.4545    0.0000 H   0  0  0  0  0  0  0  0  0  0  0  0
    7.8853    5.0187    0.0000 H   0  0  0  0  0  0  0  0  0  0  0  0
    9.4964    5.1881    0.0000 H   0  0  0  0  0  0  0  0  0  0  0  0
   11.0787    4.4836    0.0000 H   0  0  0  0  0  0  0  0  0  0  0  0
  1 10  1  0  0  0  0
  1 15  1  0  0  0  0
  2 16  2  0  0  0  0
  3 17  2  0  0  0  0
 18  4  1  6  0  0  0
  4 59  1  0  0  0  0
  5 24  2  0  0  0  0
  6 39  1  0  0  0  0
  6 79  1  0  0  0  0
  7 13  1  0  0  0  0
  7 15  1  0  0  0  0
  7 17  1  0  0  0  0
  8 16  1  0  0  0  0
  8 20  1  0  0  0  0
  8 53  1  0  0  0  0
 19  9  1  6  0  0  0
  9 24  1  0  0  0  0
  9 60  1  0  0  0  0
 10 11  1  0  0  0  0
 10 12  1  0  0  0  0
 10 13  1  0  0  0  0
 11 14  1  0  0  0  0
 11 43  1  0  0  0  0
 11 44  1  0  0  0  0
 12 14  1  0  0  0  0
 12 45  1  0  0  0  0
 12 46  1  0  0  0  0
 13 16  1  1  0  0  0
 13 47  1  0  0  0  0
 14 48  1  0  0  0  0
 14 49  1  0  0  0  0
 15 50  1  0  0  0  0
 15 51  1  0  0  0  0
 17 18  1  0  0  0  0
 18 19  1  0  0  0  0
 18 52  1  0  0  0  0
 19 21  1  0  0  0  0
 19 54  1  0  0  0  0
 20 22  1  0  0  0  0
 20 55  1  0  0  0  0
 20 56  1  0  0  0  0
 21 23  1  0  0  0  0
 21 57  1  0  0  0  0
 21 58  1  0  0  0  0
 22 25  1  0  0  0  0
 22 26  2  0  0  0  0
 23 27  2  0  0  0  0
 23 28  1  0  0  0  0
 24 29  1  0  0  0  0
 25 30  2  0  0  0  0
 25 31  1  0  0  0  0
 26 32  1  0  0  0  0
 26 61  1  0  0  0  0
 27 34  1  0  0  0  0
 27 62  1  0  0  0  0
 28 35  2  0  0  0  0
 28 63  1  0  0  0  0
 29 36  2  0  0  0  0
 29 38  1  0  0  0  0
 30 33  1  0  0  0  0
 30 64  1  0  0  0  0
 31 65  1  0  0  0  0
 31 66  1  0  0  0  0
 31 67  1  0  0  0  0
 32 33  2  0  0  0  0
 32 68  1  0  0  0  0
 33 69  1  0  0  0  0
 34 37  2  0  0  0  0
 34 70  1  0  0  0  0
 35 37  1  0  0  0  0
 35 71  1  0  0  0  0
 36 39  1  0  0  0  0
 36 40  1  0  0  0  0
 37 72  1  0  0  0  0
 38 41  2  0  0  0  0
 38 73  1  0  0  0  0
 39 42  2  0  0  0  0
 40 74  1  0  0  0  0
 40 75  1  0  0  0  0
 40 76  1  0  0  0  0
 41 42  1  0  0  0  0
 41 77  1  0  0  0  0
 42 78  1  0  0  0  0
M  END
> <PUBCHEM_COMPOUND_CID>
514634
> <PUBCHEM_COMPOUND_CANONICALIZED>
1
> <PUBCHEM_CACTVS_COMPLEXITY>
954
> <PUBCHEM_CACTVS_HBOND_ACCEPTOR>
6
> <PUBCHEM_CACTVS_HBOND_DONOR>
4
> <PUBCHEM_CACTVS_ROTATABLE_BOND>
9
> <PUBCHEM_CACTVS_SUBSKEYS>
AAADcfB/OABAAAAAAAAAAAAAAABgAWAAAAAwYMAAAAAAAAABUAAAHgQQCAAADDzh2AayBoPAAgiIAiFSEAKCAABkIBAIiIHODMgKdjqi1TOUcQhk1hGYmYe6yLCOgAABAAAYAAAAAAIAADAAAAAAAAAAAA==
> <PUBCHEM_IUPAC_OPENEYE_NAME>
(8R)-7-[(2S,3S)-2-hydroxy-3-[(3-hydroxy-2-methyl-benzoyl)amino]-4-phenyl-butanoyl]-N-(o-tolylmethyl)-5-thia-7-azaspiro[3.4]octane-8-carboxamide
> <PUBCHEM_IUPAC_CAS_NAME>
(8R)-7-[(2S,3S)-2-hydroxy-3-[[(3-hydroxy-2-methylphenyl)-oxomethyl]amino]-1-oxo-4-phenylbutyl]-N-[(2-methylphenyl)methyl]-5-thia-7-azaspiro[3.4]octane-8-carboxamide
> <PUBCHEM_IUPAC_NAME_MARKUP>
(8<I>R</I>)-7-[(2<I>S</I>,3<I>S</I>)-2-hydroxy-3-[(3-hydroxy-2-methylbenzoyl)amino]-4-phenylbutanoyl]-<I>N</I>-[(2-methylphenyl)methyl]-5-thia-7-azaspiro[3.4]octane-8-carboxamide
> <PUBCHEM_IUPAC_NAME>
(8R)-7-[(2S,3S)-2-hydroxy-3-[(3-hydroxy-2-methylbenzoyl)amino]-4-phenylbutanoyl]-N-[(2-methylphenyl)methyl]-5-thia-7-azaspiro[3.4]octane-8-carboxamide
> <PUBCHEM_IUPAC_SYSTEMATIC_NAME>
(8R)-7-[(2S,3S)-3-[(2-methyl-3-oxidanyl-phenyl)carbonylamino]-2-oxidanyl-4-phenyl-butanoyl]-N-[(2-methylphenyl)methyl]-5-thia-7-azaspiro[3.4]octane-8-carboxamide
> <PUBCHEM_IUPAC_TRADITIONAL_NAME>
(8R)-7-[(2S,3S)-2-hydroxy-3-[(3-hydroxy-2-methyl-benzoyl)amino]-4-phenyl-butanoyl]-N-(2-methylbenzyl)-5-thia-7-azaspiro[3.4]octane-8-carboxamide
> <PUBCHEM_IUPAC_INCHI>
InChI=1S/C33H37N3O5S/c1-21-10-6-7-13-24(21)19-34-31(40)29-33(16-9-17-33)42-20-36(29)32(41)28(38)26(18-23-11-4-3-5-12-23)35-30(39)25-14-8-15-27(37)22(25)2/h3-8,10-15,26,28-29,37-38H,9,16-20H2,1-2H3,(H,34,40)(H,35,39)/t26-,28-,29+/m0/s1
> <PUBCHEM_IUPAC_INCHIKEY>
YTNCQRPJGVUANQ-PIZZNKLWSA-N
> <PUBCHEM_XLOGP3_AA>
4.6
> <PUBCHEM_EXACT_MASS>
587.24539246
> <PUBCHEM_MOLECULAR_FORMULA>
C33H37N3O5S
> <PUBCHEM_MOLECULAR_WEIGHT>
587.7
> <PUBCHEM_OPENEYE_CAN_SMILES>
CC1=CC=CC=C1CNC(=O)C2C3(CCC3)SCN2C(=O)C(C(CC4=CC=CC=C4)NC(=O)C5=C(C(=CC=C5)O)C)O
> <PUBCHEM_OPENEYE_ISO_SMILES>
CC1=CC=CC=C1CNC(=O)[C@@H]2C3(CCC3)SCN2C(=O)[C@H]([C@H](CC4=CC=CC=C4)NC(=O)C5=C(C(=CC=C5)O)C)O
> <PUBCHEM_CACTVS_TPSA>
144
> <PUBCHEM_MONOISOTOPIC_WEIGHT>
587.24539246
> <PUBCHEM_TOTAL_CHARGE>
0
> <PUBCHEM_HEAVY_ATOM_COUNT>
42
> <PUBCHEM_ATOM_DEF_STEREO_COUNT>
3
> <PUBCHEM_ATOM_UDEF_STEREO_COUNT>
0
> <PUBCHEM_BOND_DEF_STEREO_COUNT>
0
> <PUBCHEM_BOND_UDEF_STEREO_COUNT>
0
> <PUBCHEM_ISOTOPIC_ATOM_COUNT>
0
> <PUBCHEM_COMPONENT_COUNT>
1
> <PUBCHEM_CACTVS_TAUTO_COUNT>
-1
> <PUBCHEM_COORDINATE_TYPE>
1
5
255
> <PUBCHEM_BONDANNOTATIONS>
13  16  5
22  25  8
22  26  8
23  27  8
23  28  8
25  30  8
26  32  8
27  34  8
28  35  8
29  36  8
29  38  8
30  33  8
32  33  8
34  37  8
35  37  8
36  39  8
38  41  8
39  42  8
18  4  6
41  42  8
19  9  6
$$$$
