514669
  -OEChem-10302200282D
 79 82  0     1  0  0  0  0  0999 V2000
    8.7788    0.7737    0.0000 S   0  0  0  0  0  0  0  0  0  0  0  0
    4.5981   -0.0627    0.0000 S   0  0  0  0  0  0  0  0  0  0  0  0
    5.6065    1.7920    0.0000 O   0  0  0  0  0  0  0  0  0  0  0  0
    7.1962   -1.5627    0.0000 O   0  0  0  0  0  0  0  0  0  0  0  0
    5.4641    0.4373    0.0000 O   0  0  0  0  0  0  0  0  0  0  0  0
    3.7320   -2.5627    0.0000 O   0  0  0  0  0  0  0  0  0  0  0  0
    2.8660   -6.0627    0.0000 O   0  0  0  0  0  0  0  0  0  0  0  0
    7.1962    0.4373    0.0000 N   0  0  0  0  0  0  0  0  0  0  0  0
    6.7654    3.0791    0.0000 N   0  0  0  0  0  0  0  0  0  0  0  0
    5.4641   -2.5627    0.0000 N   0  0  0  0  0  0  0  0  0  0  0  0
    8.2788    1.6398    0.0000 C   0  0  0  0  0  0  0  0  0  0  0  0
    7.3007    1.4318    0.0000 C   0  0  1  0  0  0  0  0  0  0  0  0
    8.1097    0.0306    0.0000 C   0  0  0  0  0  0  0  0  0  0  0  0
    9.1448    2.1398    0.0000 C   0  0  0  0  0  0  0  0  0  0  0  0
    8.0709    2.6179    0.0000 C   0  0  0  0  0  0  0  0  0  0  0  0
    6.5575    2.1010    0.0000 C   0  0  0  0  0  0  0  0  0  0  0  0
    6.3301   -0.0627    0.0000 C   0  0  0  0  0  0  0  0  0  0  0  0
    6.3301   -1.0627    0.0000 C   0  0  2  0  0  0  0  0  0  0  0  0
    5.4641   -1.5627    0.0000 C   0  0  2  0  0  0  0  0  0  0  0  0
    4.5981   -1.0627    0.0000 C   0  0  0  0  0  0  0  0  0  0  0  0
    6.0223    3.7482    0.0000 C   0  0  0  0  0  0  0  0  0  0  0  0
    6.2302    4.7264    0.0000 C   0  0  0  0  0  0  0  0  0  0  0  0
    4.5981   -3.0627    0.0000 C   0  0  0  0  0  0  0  0  0  0  0  0
    7.1813    5.0354    0.0000 C   0  0  0  0  0  0  0  0  0  0  0  0
    5.4871    5.3955    0.0000 C   0  0  0  0  0  0  0  0  0  0  0  0
    4.5981   -4.0627    0.0000 C   0  0  0  0  0  0  0  0  0  0  0  0
    3.7320    0.4373    0.0000 C   0  0  0  0  0  0  0  0  0  0  0  0
    7.3892    6.0136    0.0000 C   0  0  0  0  0  0  0  0  0  0  0  0
    7.9244    4.3663    0.0000 C   0  0  0  0  0  0  0  0  0  0  0  0
    3.7320   -4.5627    0.0000 C   0  0  0  0  0  0  0  0  0  0  0  0
    5.6950    6.3737    0.0000 C   0  0  0  0  0  0  0  0  0  0  0  0
    5.4641   -4.5627    0.0000 C   0  0  0  0  0  0  0  0  0  0  0  0
    6.6460    6.6827    0.0000 C   0  0  0  0  0  0  0  0  0  0  0  0
    2.8660   -0.0627    0.0000 C   0  0  0  0  0  0  0  0  0  0  0  0
    3.7320    1.4373    0.0000 C   0  0  0  0  0  0  0  0  0  0  0  0
    3.7320   -5.5627    0.0000 C   0  0  0  0  0  0  0  0  0  0  0  0
    2.8660   -4.0627    0.0000 C   0  0  0  0  0  0  0  0  0  0  0  0
    5.4641   -5.5627    0.0000 C   0  0  0  0  0  0  0  0  0  0  0  0
    4.5981   -6.0627    0.0000 C   0  0  0  0  0  0  0  0  0  0  0  0
    2.0000    0.4373    0.0000 C   0  0  0  0  0  0  0  0  0  0  0  0
    2.8660    1.9373    0.0000 C   0  0  0  0  0  0  0  0  0  0  0  0
    2.0000    1.4373    0.0000 C   0  0  0  0  0  0  0  0  0  0  0  0
    6.7219    1.2096    0.0000 H   0  0  0  0  0  0  0  0  0  0  0  0
    7.7997   -0.5064    0.0000 H   0  0  0  0  0  0  0  0  0  0  0  0
    8.6113   -0.3338    0.0000 H   0  0  0  0  0  0  0  0  0  0  0  0
    9.4548    1.6028    0.0000 H   0  0  0  0  0  0  0  0  0  0  0  0
    9.6818    2.4498    0.0000 H   0  0  0  0  0  0  0  0  0  0  0  0
    8.8348    2.6767    0.0000 H   0  0  0  0  0  0  0  0  0  0  0  0
    8.6774    2.7468    0.0000 H   0  0  0  0  0  0  0  0  0  0  0  0
    7.9420    3.2244    0.0000 H   0  0  0  0  0  0  0  0  0  0  0  0
    7.4645    2.4890    0.0000 H   0  0  0  0  0  0  0  0  0  0  0  0
    6.8671   -0.7527    0.0000 H   0  0  0  0  0  0  0  0  0  0  0  0
    6.0010   -1.8727    0.0000 H   0  0  0  0  0  0  0  0  0  0  0  0
    7.3551    3.2707    0.0000 H   0  0  0  0  0  0  0  0  0  0  0  0
    3.9875   -0.9550    0.0000 H   0  0  0  0  0  0  0  0  0  0  0  0
    4.3860   -1.6453    0.0000 H   0  0  0  0  0  0  0  0  0  0  0  0
    5.4474    3.9805    0.0000 H   0  0  0  0  0  0  0  0  0  0  0  0
    5.6938    3.2224    0.0000 H   0  0  0  0  0  0  0  0  0  0  0  0
    6.0010   -2.8727    0.0000 H   0  0  0  0  0  0  0  0  0  0  0  0
    7.1962   -2.1827    0.0000 H   0  0  0  0  0  0  0  0  0  0  0  0
    4.8974    5.2039    0.0000 H   0  0  0  0  0  0  0  0  0  0  0  0
    7.9788    6.2052    0.0000 H   0  0  0  0  0  0  0  0  0  0  0  0
    7.5096    3.9055    0.0000 H   0  0  0  0  0  0  0  0  0  0  0  0
    8.3852    3.9514    0.0000 H   0  0  0  0  0  0  0  0  0  0  0  0
    8.3393    4.8270    0.0000 H   0  0  0  0  0  0  0  0  0  0  0  0
    5.2342    6.7885    0.0000 H   0  0  0  0  0  0  0  0  0  0  0  0
    6.0010   -4.2527    0.0000 H   0  0  0  0  0  0  0  0  0  0  0  0
    6.7749    7.2891    0.0000 H   0  0  0  0  0  0  0  0  0  0  0  0
    2.8660   -0.6827    0.0000 H   0  0  0  0  0  0  0  0  0  0  0  0
    4.2690    1.7473    0.0000 H   0  0  0  0  0  0  0  0  0  0  0  0
    3.1760   -3.5258    0.0000 H   0  0  0  0  0  0  0  0  0  0  0  0
    2.3291   -3.7527    0.0000 H   0  0  0  0  0  0  0  0  0  0  0  0
    2.5560   -4.5996    0.0000 H   0  0  0  0  0  0  0  0  0  0  0  0
    6.0010   -5.8727    0.0000 H   0  0  0  0  0  0  0  0  0  0  0  0
    4.5981   -6.6827    0.0000 H   0  0  0  0  0  0  0  0  0  0  0  0
    1.4631    0.1273    0.0000 H   0  0  0  0  0  0  0  0  0  0  0  0
    2.8660    2.5573    0.0000 H   0  0  0  0  0  0  0  0  0  0  0  0
    1.4631    1.7473    0.0000 H   0  0  0  0  0  0  0  0  0  0  0  0
    2.8660   -6.6827    0.0000 H   0  0  0  0  0  0  0  0  0  0  0  0
  1 11  1  0  0  0  0
  1 13  1  0  0  0  0
  2 20  1  0  0  0  0
  2 27  1  0  0  0  0
  3 16  2  0  0  0  0
 18  4  1  1  0  0  0
  4 60  1  0  0  0  0
  5 17  2  0  0  0  0
  6 23  2  0  0  0  0
  7 36  1  0  0  0  0
  7 79  1  0  0  0  0
  8 12  1  0  0  0  0
  8 13  1  0  0  0  0
  8 17  1  0  0  0  0
  9 16  1  0  0  0  0
  9 21  1  0  0  0  0
  9 54  1  0  0  0  0
 19 10  1  1  0  0  0
 10 23  1  0  0  0  0
 10 59  1  0  0  0  0
 11 12  1  0  0  0  0
 11 14  1  0  0  0  0
 11 15  1  0  0  0  0
 12 16  1  6  0  0  0
 12 43  1  0  0  0  0
 13 44  1  0  0  0  0
 13 45  1  0  0  0  0
 14 46  1  0  0  0  0
 14 47  1  0  0  0  0
 14 48  1  0  0  0  0
 15 49  1  0  0  0  0
 15 50  1  0  0  0  0
 15 51  1  0  0  0  0
 17 18  1  0  0  0  0
 18 19  1  0  0  0  0
 18 52  1  0  0  0  0
 19 20  1  0  0  0  0
 19 53  1  0  0  0  0
 20 55  1  0  0  0  0
 20 56  1  0  0  0  0
 21 22  1  0  0  0  0
 21 57  1  0  0  0  0
 21 58  1  0  0  0  0
 22 24  1  0  0  0  0
 22 25  2  0  0  0  0
 23 26  1  0  0  0  0
 24 28  2  0  0  0  0
 24 29  1  0  0  0  0
 25 31  1  0  0  0  0
 25 61  1  0  0  0  0
 26 30  2  0  0  0  0
 26 32  1  0  0  0  0
 27 34  2  0  0  0  0
 27 35  1  0  0  0  0
 28 33  1  0  0  0  0
 28 62  1  0  0  0  0
 29 63  1  0  0  0  0
 29 64  1  0  0  0  0
 29 65  1  0  0  0  0
 30 36  1  0  0  0  0
 30 37  1  0  0  0  0
 31 33  2  0  0  0  0
 31 66  1  0  0  0  0
 32 38  2  0  0  0  0
 32 67  1  0  0  0  0
 33 68  1  0  0  0  0
 34 40  1  0  0  0  0
 34 69  1  0  0  0  0
 35 41  2  0  0  0  0
 35 70  1  0  0  0  0
 36 39  2  0  0  0  0
 37 71  1  0  0  0  0
 37 72  1  0  0  0  0
 37 73  1  0  0  0  0
 38 39  1  0  0  0  0
 38 74  1  0  0  0  0
 39 75  1  0  0  0  0
 40 42  2  0  0  0  0
 40 76  1  0  0  0  0
 41 42  1  0  0  0  0
 41 77  1  0  0  0  0
 42 78  1  0  0  0  0
M  END
> <PUBCHEM_COMPOUND_CID>
514669
> <PUBCHEM_COMPOUND_CANONICALIZED>
1
> <PUBCHEM_CACTVS_COMPLEXITY>
930
> <PUBCHEM_CACTVS_HBOND_ACCEPTOR>
7
> <PUBCHEM_CACTVS_HBOND_DONOR>
4
> <PUBCHEM_CACTVS_ROTATABLE_BOND>
10
> <PUBCHEM_CACTVS_SUBSKEYS>
AAADcfB/OABgAAAAAAAAAAAAAAAAAWAAAAAwYMAAAAAAAAABUAAAHgQQCAAADDzl2AayB4PAAgiIAiFSEAKCAABkKBAIiJnODMgKdjqi1TOUcQhk1hG4mYe6yLCOgAABAAAYAAAAAAIAADAAAAAAAAAAAA==
> <PUBCHEM_IUPAC_OPENEYE_NAME>
(4R)-3-[(2S,3R)-2-hydroxy-3-[(3-hydroxy-2-methyl-benzoyl)amino]-4-phenylsulfanyl-butanoyl]-5,5-dimethyl-N-(o-tolylmethyl)thiazolidine-4-carboxamide
> <PUBCHEM_IUPAC_CAS_NAME>
(4R)-3-[(2S,3R)-2-hydroxy-3-[[(3-hydroxy-2-methylphenyl)-oxomethyl]amino]-1-oxo-4-(phenylthio)butyl]-5,5-dimethyl-N-[(2-methylphenyl)methyl]-4-thiazolidinecarboxamide
> <PUBCHEM_IUPAC_NAME_MARKUP>
(4<I>R</I>)-3-[(2<I>S</I>,3<I>R</I>)-2-hydroxy-3-[(3-hydroxy-2-methylbenzoyl)amino]-4-phenylsulfanylbutanoyl]-5,5-dimethyl-<I>N</I>-[(2-methylphenyl)methyl]-1,3-thiazolidine-4-carboxamide
> <PUBCHEM_IUPAC_NAME>
(4R)-3-[(2S,3R)-2-hydroxy-3-[(3-hydroxy-2-methylbenzoyl)amino]-4-phenylsulfanylbutanoyl]-5,5-dimethyl-N-[(2-methylphenyl)methyl]-1,3-thiazolidine-4-carboxamide
> <PUBCHEM_IUPAC_SYSTEMATIC_NAME>
(4R)-5,5-dimethyl-3-[(2S,3R)-3-[(2-methyl-3-oxidanyl-phenyl)carbonylamino]-2-oxidanyl-4-phenylsulfanyl-butanoyl]-N-[(2-methylphenyl)methyl]-1,3-thiazolidine-4-carboxamide
> <PUBCHEM_IUPAC_TRADITIONAL_NAME>
(4R)-3-[(2S,3R)-2-hydroxy-3-[(3-hydroxy-2-methyl-benzoyl)amino]-4-(phenylthio)butanoyl]-5,5-dimethyl-N-(2-methylbenzyl)thiazolidine-4-carboxamide
> <PUBCHEM_IUPAC_INCHI>
InChI=1S/C32H37N3O5S2/c1-20-11-8-9-12-22(20)17-33-30(39)28-32(3,4)42-19-35(28)31(40)27(37)25(18-41-23-13-6-5-7-14-23)34-29(38)24-15-10-16-26(36)21(24)2/h5-16,25,27-28,36-37H,17-19H2,1-4H3,(H,33,39)(H,34,38)/t25-,27-,28+/m0/s1
> <PUBCHEM_IUPAC_INCHIKEY>
JJJXZGZPMFMLDE-RZDMPUFOSA-N
> <PUBCHEM_XLOGP3_AA>
4.7
> <PUBCHEM_EXACT_MASS>
607.21746364
> <PUBCHEM_MOLECULAR_FORMULA>
C32H37N3O5S2
> <PUBCHEM_MOLECULAR_WEIGHT>
607.8
> <PUBCHEM_OPENEYE_CAN_SMILES>
CC1=CC=CC=C1CNC(=O)C2C(SCN2C(=O)C(C(CSC3=CC=CC=C3)NC(=O)C4=C(C(=CC=C4)O)C)O)(C)C
> <PUBCHEM_OPENEYE_ISO_SMILES>
CC1=CC=CC=C1CNC(=O)[C@@H]2C(SCN2C(=O)[C@H]([C@H](CSC3=CC=CC=C3)NC(=O)C4=C(C(=CC=C4)O)C)O)(C)C
> <PUBCHEM_CACTVS_TPSA>
170
> <PUBCHEM_MONOISOTOPIC_WEIGHT>
607.21746364
> <PUBCHEM_TOTAL_CHARGE>
0
> <PUBCHEM_HEAVY_ATOM_COUNT>
42
> <PUBCHEM_ATOM_DEF_STEREO_COUNT>
3
> <PUBCHEM_ATOM_UDEF_STEREO_COUNT>
0
> <PUBCHEM_BOND_DEF_STEREO_COUNT>
0
> <PUBCHEM_BOND_UDEF_STEREO_COUNT>
0
> <PUBCHEM_ISOTOPIC_ATOM_COUNT>
0
> <PUBCHEM_COMPONENT_COUNT>
1
> <PUBCHEM_CACTVS_TAUTO_COUNT>
-1
> <PUBCHEM_COORDINATE_TYPE>
1
5
255
> <PUBCHEM_BONDANNOTATIONS>
19  10  5
12  16  6
22  24  8
22  25  8
24  28  8
25  31  8
26  30  8
26  32  8
27  34  8
27  35  8
28  33  8
30  36  8
31  33  8
32  38  8
34  40  8
35  41  8
36  39  8
38  39  8
18  4  5
40  42  8
41  42  8
$$$$
