514639
  -OEChem-10302200282D
 86 91  0     1  0  0  0  0  0999 V2000
    8.7422   -3.1928    0.0000 S   0  0  0  0  0  0  0  0  0  0  0  0
    5.9652   -4.4800    0.0000 O   0  0  0  0  0  0  0  0  0  0  0  0
    5.8509   -1.5373    0.0000 O   0  0  0  0  0  0  0  0  0  0  0  0
    8.2467   -0.4147    0.0000 O   0  0  0  0  0  0  0  0  0  0  0  0
    8.6534    0.4989    0.0000 O   0  0  0  0  0  0  0  0  0  0  0  0
    7.7035    4.7530    0.0000 O   0  0  0  0  0  0  0  0  0  0  0  0
    7.4332   -2.2418    0.0000 N   0  0  0  0  0  0  0  0  0  0  0  0
    5.4300   -2.8327    0.0000 N   0  0  0  0  0  0  0  0  0  0  0  0
    7.0711    1.2034    0.0000 N   0  0  0  0  0  0  0  0  0  0  0  0
    7.9332   -3.7806    0.0000 C   0  0  0  0  0  0  0  0  0  0  0  0
    7.1242   -3.1928    0.0000 C   0  0  1  0  0  0  0  0  0  0  0  0
    8.7422   -4.3684    0.0000 C   0  0  0  0  0  0  0  0  0  0  0  0
    7.1242   -4.3684    0.0000 C   0  0  0  0  0  0  0  0  0  0  0  0
    8.4332   -5.3194    0.0000 C   0  0  0  0  0  0  0  0  0  0  0  0
    7.4332   -5.3194    0.0000 C   0  0  0  0  0  0  0  0  0  0  0  0
    8.4332   -2.2418    0.0000 C   0  0  0  0  0  0  0  0  0  0  0  0
    6.1731   -3.5018    0.0000 C   0  0  0  0  0  0  0  0  0  0  0  0
    6.8454   -1.4327    0.0000 C   0  0  0  0  0  0  0  0  0  0  0  0
    4.4789   -3.1417    0.0000 C   0  0  1  0  0  0  0  0  0  0  0  0
    7.2522   -0.5192    0.0000 C   0  0  2  0  0  0  0  0  0  0  0  0
    4.2710   -4.1198    0.0000 C   0  0  0  0  0  0  0  0  0  0  0  0
    6.6644    0.2898    0.0000 C   0  0  2  0  0  0  0  0  0  0  0  0
    3.7358   -2.4726    0.0000 C   0  0  0  0  0  0  0  0  0  0  0  0
    3.3200   -4.4289    0.0000 C   0  0  0  0  0  0  0  0  0  0  0  0
    2.5768   -3.7597    0.0000 C   0  0  0  0  0  0  0  0  0  0  0  0
    2.7847   -2.7816    0.0000 C   0  0  0  0  0  0  0  0  0  0  0  0
    5.6699    0.1853    0.0000 C   0  0  0  0  0  0  0  0  0  0  0  0
    3.9680   -1.4572    0.0000 C   0  0  0  0  0  0  0  0  0  0  0  0
    2.0000   -2.0966    0.0000 C   0  0  0  0  0  0  0  0  0  0  0  0
    5.0821    0.9943    0.0000 C   0  0  0  0  0  0  0  0  0  0  0  0
    3.1994   -0.7542    0.0000 C   0  0  0  0  0  0  0  0  0  0  0  0
    2.2087   -1.0761    0.0000 C   0  0  0  0  0  0  0  0  0  0  0  0
    8.0656    1.3079    0.0000 C   0  0  0  0  0  0  0  0  0  0  0  0
    4.0876    0.8898    0.0000 C   0  0  0  0  0  0  0  0  0  0  0  0
    5.4888    1.9079    0.0000 C   0  0  0  0  0  0  0  0  0  0  0  0
    8.4724    2.2214    0.0000 C   0  0  0  0  0  0  0  0  0  0  0  0
    3.4998    1.6988    0.0000 C   0  0  0  0  0  0  0  0  0  0  0  0
    4.9010    2.7169    0.0000 C   0  0  0  0  0  0  0  0  0  0  0  0
    7.8846    3.0305    0.0000 C   0  0  0  0  0  0  0  0  0  0  0  0
    3.9065    2.6124    0.0000 C   0  0  0  0  0  0  0  0  0  0  0  0
    9.4669    2.3260    0.0000 C   0  0  0  0  0  0  0  0  0  0  0  0
    8.2913    3.9440    0.0000 C   0  0  0  0  0  0  0  0  0  0  0  0
    6.8901    2.9259    0.0000 C   0  0  0  0  0  0  0  0  0  0  0  0
    9.8736    3.2395    0.0000 C   0  0  0  0  0  0  0  0  0  0  0  0
    9.2858    4.0485    0.0000 C   0  0  0  0  0  0  0  0  0  0  0  0
    6.6858   -2.7544    0.0000 H   0  0  0  0  0  0  0  0  0  0  0  0
    9.3086   -4.6206    0.0000 H   0  0  0  0  0  0  0  0  0  0  0  0
    9.0522   -3.8314    0.0000 H   0  0  0  0  0  0  0  0  0  0  0  0
    6.8142   -3.8314    0.0000 H   0  0  0  0  0  0  0  0  0  0  0  0
    6.5578   -4.6206    0.0000 H   0  0  0  0  0  0  0  0  0  0  0  0
    8.3684   -5.9360    0.0000 H   0  0  0  0  0  0  0  0  0  0  0  0
    9.0397   -5.4483    0.0000 H   0  0  0  0  0  0  0  0  0  0  0  0
    6.8268   -5.4483    0.0000 H   0  0  0  0  0  0  0  0  0  0  0  0
    7.4980   -5.9360    0.0000 H   0  0  0  0  0  0  0  0  0  0  0  0
    9.0397   -2.1128    0.0000 H   0  0  0  0  0  0  0  0  0  0  0  0
    8.3684   -1.6251    0.0000 H   0  0  0  0  0  0  0  0  0  0  0  0
    5.5589   -2.2262    0.0000 H   0  0  0  0  0  0  0  0  0  0  0  0
    4.9397   -3.5566    0.0000 H   0  0  0  0  0  0  0  0  0  0  0  0
    7.5043    0.0472    0.0000 H   0  0  0  0  0  0  0  0  0  0  0  0
    4.3573   -4.7338    0.0000 H   0  0  0  0  0  0  0  0  0  0  0  0
    4.8906   -4.1415    0.0000 H   0  0  0  0  0  0  0  0  0  0  0  0
    6.3000    0.7914    0.0000 H   0  0  0  0  0  0  0  0  0  0  0  0
    2.8314   -4.8106    0.0000 H   0  0  0  0  0  0  0  0  0  0  0  0
    3.6110   -4.9763    0.0000 H   0  0  0  0  0  0  0  0  0  0  0  0
    2.0020   -3.5275    0.0000 H   0  0  0  0  0  0  0  0  0  0  0  0
    2.2483   -4.2855    0.0000 H   0  0  0  0  0  0  0  0  0  0  0  0
    5.1126   -0.0865    0.0000 H   0  0  0  0  0  0  0  0  0  0  0  0
    5.8408   -0.4107    0.0000 H   0  0  0  0  0  0  0  0  0  0  0  0
    8.6111   -0.9162    0.0000 H   0  0  0  0  0  0  0  0  0  0  0  0
    4.5599   -1.2724    0.0000 H   0  0  0  0  0  0  0  0  0  0  0  0
    6.7067    1.7050    0.0000 H   0  0  0  0  0  0  0  0  0  0  0  0
    1.4126   -2.2950    0.0000 H   0  0  0  0  0  0  0  0  0  0  0  0
    3.3306   -0.1483    0.0000 H   0  0  0  0  0  0  0  0  0  0  0  0
    1.7464   -0.6630    0.0000 H   0  0  0  0  0  0  0  0  0  0  0  0
    3.8354    0.3234    0.0000 H   0  0  0  0  0  0  0  0  0  0  0  0
    6.1054    1.9727    0.0000 H   0  0  0  0  0  0  0  0  0  0  0  0
    2.8832    1.6340    0.0000 H   0  0  0  0  0  0  0  0  0  0  0  0
    5.1532    3.2833    0.0000 H   0  0  0  0  0  0  0  0  0  0  0  0
    3.5421    3.1140    0.0000 H   0  0  0  0  0  0  0  0  0  0  0  0
    9.8313    1.8244    0.0000 H   0  0  0  0  0  0  0  0  0  0  0  0
    6.8253    3.5425    0.0000 H   0  0  0  0  0  0  0  0  0  0  0  0
    6.2735    2.8611    0.0000 H   0  0  0  0  0  0  0  0  0  0  0  0
    6.9549    2.3093    0.0000 H   0  0  0  0  0  0  0  0  0  0  0  0
   10.4902    3.3043    0.0000 H   0  0  0  0  0  0  0  0  0  0  0  0
    9.5380    4.6149    0.0000 H   0  0  0  0  0  0  0  0  0  0  0  0
    7.9557    5.3194    0.0000 H   0  0  0  0  0  0  0  0  0  0  0  0
  1 10  1  0  0  0  0
  1 16  1  0  0  0  0
  2 17  2  0  0  0  0
  3 18  2  0  0  0  0
 20  4  1  6  0  0  0
  4 69  1  0  0  0  0
  5 33  2  0  0  0  0
  6 42  1  0  0  0  0
  6 86  1  0  0  0  0
  7 11  1  0  0  0  0
  7 16  1  0  0  0  0
  7 18  1  0  0  0  0
  8 17  1  0  0  0  0
 19  8  1  1  0  0  0
  8 57  1  0  0  0  0
 22  9  1  6  0  0  0
  9 33  1  0  0  0  0
  9 71  1  0  0  0  0
 10 11  1  0  0  0  0
 10 12  1  0  0  0  0
 10 13  1  0  0  0  0
 11 17  1  1  0  0  0
 11 46  1  0  0  0  0
 12 14  1  0  0  0  0
 12 47  1  0  0  0  0
 12 48  1  0  0  0  0
 13 15  1  0  0  0  0
 13 49  1  0  0  0  0
 13 50  1  0  0  0  0
 14 15  1  0  0  0  0
 14 51  1  0  0  0  0
 14 52  1  0  0  0  0
 15 53  1  0  0  0  0
 15 54  1  0  0  0  0
 16 55  1  0  0  0  0
 16 56  1  0  0  0  0
 18 20  1  0  0  0  0
 19 21  1  0  0  0  0
 19 23  1  0  0  0  0
 19 58  1  0  0  0  0
 20 22  1  0  0  0  0
 20 59  1  0  0  0  0
 21 24  1  0  0  0  0
 21 60  1  0  0  0  0
 21 61  1  0  0  0  0
 22 27  1  0  0  0  0
 22 62  1  0  0  0  0
 23 26  1  0  0  0  0
 23 28  2  0  0  0  0
 24 25  1  0  0  0  0
 24 63  1  0  0  0  0
 24 64  1  0  0  0  0
 25 26  1  0  0  0  0
 25 65  1  0  0  0  0
 25 66  1  0  0  0  0
 26 29  2  0  0  0  0
 27 30  1  0  0  0  0
 27 67  1  0  0  0  0
 27 68  1  0  0  0  0
 28 31  1  0  0  0  0
 28 70  1  0  0  0  0
 29 32  1  0  0  0  0
 29 72  1  0  0  0  0
 30 34  2  0  0  0  0
 30 35  1  0  0  0  0
 31 32  2  0  0  0  0
 31 73  1  0  0  0  0
 32 74  1  0  0  0  0
 33 36  1  0  0  0  0
 34 37  1  0  0  0  0
 34 75  1  0  0  0  0
 35 38  2  0  0  0  0
 35 76  1  0  0  0  0
 36 39  2  0  0  0  0
 36 41  1  0  0  0  0
 37 40  2  0  0  0  0
 37 77  1  0  0  0  0
 38 40  1  0  0  0  0
 38 78  1  0  0  0  0
 39 42  1  0  0  0  0
 39 43  1  0  0  0  0
 40 79  1  0  0  0  0
 41 44  2  0  0  0  0
 41 80  1  0  0  0  0
 42 45  2  0  0  0  0
 43 81  1  0  0  0  0
 43 82  1  0  0  0  0
 43 83  1  0  0  0  0
 44 45  1  0  0  0  0
 44 84  1  0  0  0  0
 45 85  1  0  0  0  0
M  END
> <PUBCHEM_COMPOUND_CID>
514639
> <PUBCHEM_COMPOUND_CANONICALIZED>
1
> <PUBCHEM_CACTVS_COMPLEXITY>
1050
> <PUBCHEM_CACTVS_HBOND_ACCEPTOR>
6
> <PUBCHEM_CACTVS_HBOND_DONOR>
4
> <PUBCHEM_CACTVS_ROTATABLE_BOND>
8
> <PUBCHEM_CACTVS_SUBSKEYS>
AAADcfB/OABAAAAAAAAAAAAAAAAAAeIAAAAwYMGAAAAAAADBUAAAHgQQCAAADDzh2AayBoPAAgiIAiFSEAKCAABkIBAIiIHODMgKdjqi1TOUcQhk1hGYmYe6yLCOgAABAAAYAAAAAAKAADQAAAAAAAAAAA==
> <PUBCHEM_IUPAC_OPENEYE_NAME>
(4R)-3-[(2S,3S)-2-hydroxy-3-[(3-hydroxy-2-methyl-benzoyl)amino]-4-phenyl-butanoyl]-N-[(1S)-tetralin-1-yl]-1-thia-3-azaspiro[4.4]nonane-4-carboxamide
> <PUBCHEM_IUPAC_CAS_NAME>
(4R)-3-[(2S,3S)-2-hydroxy-3-[[(3-hydroxy-2-methylphenyl)-oxomethyl]amino]-1-oxo-4-phenylbutyl]-N-[(1S)-1,2,3,4-tetrahydronaphthalen-1-yl]-1-thia-3-azaspiro[4.4]nonane-4-carboxamide
> <PUBCHEM_IUPAC_NAME_MARKUP>
(4<I>R</I>)-3-[(2<I>S</I>,3<I>S</I>)-2-hydroxy-3-[(3-hydroxy-2-methylbenzoyl)amino]-4-phenylbutanoyl]-<I>N</I>-[(1<I>S</I>)-1,2,3,4-tetrahydronaphthalen-1-yl]-1-thia-3-azaspiro[4.4]nonane-4-carboxamide
> <PUBCHEM_IUPAC_NAME>
(4R)-3-[(2S,3S)-2-hydroxy-3-[(3-hydroxy-2-methylbenzoyl)amino]-4-phenylbutanoyl]-N-[(1S)-1,2,3,4-tetrahydronaphthalen-1-yl]-1-thia-3-azaspiro[4.4]nonane-4-carboxamide
> <PUBCHEM_IUPAC_SYSTEMATIC_NAME>
(4R)-3-[(2S,3S)-3-[(2-methyl-3-oxidanyl-phenyl)carbonylamino]-2-oxidanyl-4-phenyl-butanoyl]-N-[(1S)-1,2,3,4-tetrahydronaphthalen-1-yl]-1-thia-3-azaspiro[4.4]nonane-4-carboxamide
> <PUBCHEM_IUPAC_TRADITIONAL_NAME>
(4R)-3-[(2S,3S)-2-hydroxy-3-[(3-hydroxy-2-methyl-benzoyl)amino]-4-phenyl-butanoyl]-N-[(1S)-tetralin-1-yl]-1-thia-3-azaspiro[4.4]nonane-4-carboxamide
> <PUBCHEM_IUPAC_INCHI>
InChI=1S/C36H41N3O5S/c1-23-26(16-10-18-30(23)40)33(42)38-29(21-24-11-3-2-4-12-24)31(41)35(44)39-22-45-36(19-7-8-20-36)32(39)34(43)37-28-17-9-14-25-13-5-6-15-27(25)28/h2-6,10-13,15-16,18,28-29,31-32,40-41H,7-9,14,17,19-22H2,1H3,(H,37,43)(H,38,42)/t28-,29-,31-,32+/m0/s1
> <PUBCHEM_IUPAC_INCHIKEY>
BOSOZZJQWGFNAH-QAVJZVLGSA-N
> <PUBCHEM_XLOGP3_AA>
5.4
> <PUBCHEM_EXACT_MASS>
627.27669259
> <PUBCHEM_MOLECULAR_FORMULA>
C36H41N3O5S
> <PUBCHEM_MOLECULAR_WEIGHT>
627.8
> <PUBCHEM_OPENEYE_CAN_SMILES>
CC1=C(C=CC=C1O)C(=O)NC(CC2=CC=CC=C2)C(C(=O)N3CSC4(C3C(=O)NC5CCCC6=CC=CC=C56)CCCC4)O
> <PUBCHEM_OPENEYE_ISO_SMILES>
CC1=C(C=CC=C1O)C(=O)N[C@@H](CC2=CC=CC=C2)[C@@H](C(=O)N3CSC4([C@H]3C(=O)N[C@H]5CCCC6=CC=CC=C56)CCCC4)O
> <PUBCHEM_CACTVS_TPSA>
144
> <PUBCHEM_MONOISOTOPIC_WEIGHT>
627.27669259
> <PUBCHEM_TOTAL_CHARGE>
0
> <PUBCHEM_HEAVY_ATOM_COUNT>
45
> <PUBCHEM_ATOM_DEF_STEREO_COUNT>
4
> <PUBCHEM_ATOM_UDEF_STEREO_COUNT>
0
> <PUBCHEM_BOND_DEF_STEREO_COUNT>
0
> <PUBCHEM_BOND_UDEF_STEREO_COUNT>
0
> <PUBCHEM_ISOTOPIC_ATOM_COUNT>
0
> <PUBCHEM_COMPONENT_COUNT>
1
> <PUBCHEM_CACTVS_TAUTO_COUNT>
-1
> <PUBCHEM_COORDINATE_TYPE>
1
5
255
> <PUBCHEM_BONDANNOTATIONS>
11  17  5
23  26  8
23  28  8
26  29  8
28  31  8
29  32  8
30  34  8
30  35  8
31  32  8
34  37  8
35  38  8
36  39  8
36  41  8
37  40  8
38  40  8
39  42  8
20  4  6
41  44  8
42  45  8
44  45  8
19  8  5
22  9  6
$$$$
