514656
  -OEChem-10302200282D
 76 78  0     1  0  0  0  0  0999 V2000
    9.1448    3.0124    0.0000 F   0  0  0  0  0  0  0  0  0  0  0  0
    8.0709    3.4906    0.0000 F   0  0  0  0  0  0  0  0  0  0  0  0
    7.5745   -0.7440    0.0000 O   0  0  0  0  0  0  0  0  0  0  0  0
    6.3301   -0.1900    0.0000 O   0  0  0  0  0  0  0  0  0  0  0  0
    5.4641    2.3100    0.0000 O   0  0  0  0  0  0  0  0  0  0  0  0
    2.8660   -0.1900    0.0000 O   0  0  0  0  0  0  0  0  0  0  0  0
    2.0000   -3.6900    0.0000 O   0  0  0  0  0  0  0  0  0  0  0  0
    7.1962    1.3100    0.0000 N   0  0  0  0  0  0  0  0  0  0  0  0
    9.2687   -0.3839    0.0000 N   0  0  0  0  0  0  0  0  0  0  0  0
    4.5981   -0.1900    0.0000 N   0  0  0  0  0  0  0  0  0  0  0  0
    8.7788    1.6464    0.0000 C   0  0  0  0  0  0  0  0  0  0  0  0
    8.1097    0.9033    0.0000 C   0  0  1  0  0  0  0  0  0  0  0  0
    8.2788    2.5124    0.0000 C   0  0  0  0  0  0  0  0  0  0  0  0
    7.3007    2.3045    0.0000 C   0  0  0  0  0  0  0  0  0  0  0  0
    9.6448    2.1464    0.0000 C   0  0  0  0  0  0  0  0  0  0  0  0
    9.5220    0.9773    0.0000 C   0  0  0  0  0  0  0  0  0  0  0  0
    8.3176   -0.0749    0.0000 C   0  0  0  0  0  0  0  0  0  0  0  0
    6.3301    0.8100    0.0000 C   0  0  0  0  0  0  0  0  0  0  0  0
    5.4641    1.3100    0.0000 C   0  0  2  0  0  0  0  0  0  0  0  0
    4.5981    0.8100    0.0000 C   0  0  2  0  0  0  0  0  0  0  0  0
    9.4766   -1.3620    0.0000 C   0  0  0  0  0  0  0  0  0  0  0  0
    3.7320    1.3100    0.0000 C   0  0  0  0  0  0  0  0  0  0  0  0
   10.4276   -1.6711    0.0000 C   0  0  0  0  0  0  0  0  0  0  0  0
    3.7320    2.3100    0.0000 C   0  0  0  0  0  0  0  0  0  0  0  0
    3.7320   -0.6900    0.0000 C   0  0  0  0  0  0  0  0  0  0  0  0
   10.6355   -2.6492    0.0000 C   0  0  0  0  0  0  0  0  0  0  0  0
    2.8660    2.8100    0.0000 C   0  0  0  0  0  0  0  0  0  0  0  0
    4.5981    2.8100    0.0000 C   0  0  0  0  0  0  0  0  0  0  0  0
    3.7320   -1.6900    0.0000 C   0  0  0  0  0  0  0  0  0  0  0  0
    2.8660    3.8100    0.0000 C   0  0  0  0  0  0  0  0  0  0  0  0
    4.5981    3.8100    0.0000 C   0  0  0  0  0  0  0  0  0  0  0  0
    2.8660   -2.1900    0.0000 C   0  0  0  0  0  0  0  0  0  0  0  0
    4.5981   -2.1900    0.0000 C   0  0  0  0  0  0  0  0  0  0  0  0
    3.7320    4.3100    0.0000 C   0  0  0  0  0  0  0  0  0  0  0  0
    4.5981   -3.1900    0.0000 C   0  0  0  0  0  0  0  0  0  0  0  0
    2.8660   -3.1900    0.0000 C   0  0  0  0  0  0  0  0  0  0  0  0
    2.0000   -1.6900    0.0000 C   0  0  0  0  0  0  0  0  0  0  0  0
    3.7320   -3.6900    0.0000 C   0  0  0  0  0  0  0  0  0  0  0  0
    5.4641   -3.6900    0.0000 C   0  0  0  0  0  0  0  0  0  0  0  0
    7.6279    0.5131    0.0000 H   0  0  0  0  0  0  0  0  0  0  0  0
    7.2359    2.9211    0.0000 H   0  0  0  0  0  0  0  0  0  0  0  0
    6.6807    2.3045    0.0000 H   0  0  0  0  0  0  0  0  0  0  0  0
    9.9548    1.6095    0.0000 H   0  0  0  0  0  0  0  0  0  0  0  0
   10.1818    2.4564    0.0000 H   0  0  0  0  0  0  0  0  0  0  0  0
    9.3348    2.6833    0.0000 H   0  0  0  0  0  0  0  0  0  0  0  0
    9.1071    0.5165    0.0000 H   0  0  0  0  0  0  0  0  0  0  0  0
    9.9827    0.5624    0.0000 H   0  0  0  0  0  0  0  0  0  0  0  0
    9.9368    1.4380    0.0000 H   0  0  0  0  0  0  0  0  0  0  0  0
    6.0010    1.6200    0.0000 H   0  0  0  0  0  0  0  0  0  0  0  0
    5.1350    0.5000    0.0000 H   0  0  0  0  0  0  0  0  0  0  0  0
    9.7294    0.0310    0.0000 H   0  0  0  0  0  0  0  0  0  0  0  0
    3.1215    1.4177    0.0000 H   0  0  0  0  0  0  0  0  0  0  0  0
    3.5200    0.7274    0.0000 H   0  0  0  0  0  0  0  0  0  0  0  0
    8.8570   -1.3837    0.0000 H   0  0  0  0  0  0  0  0  0  0  0  0
    9.3903   -1.9760    0.0000 H   0  0  0  0  0  0  0  0  0  0  0  0
    5.1350   -0.5000    0.0000 H   0  0  0  0  0  0  0  0  0  0  0  0
    6.0010    2.6200    0.0000 H   0  0  0  0  0  0  0  0  0  0  0  0
   11.0473   -1.6494    0.0000 H   0  0  0  0  0  0  0  0  0  0  0  0
   10.5139   -1.0571    0.0000 H   0  0  0  0  0  0  0  0  0  0  0  0
   10.0291   -2.7781    0.0000 H   0  0  0  0  0  0  0  0  0  0  0  0
   10.7645   -3.2557    0.0000 H   0  0  0  0  0  0  0  0  0  0  0  0
   11.2420   -2.5203    0.0000 H   0  0  0  0  0  0  0  0  0  0  0  0
    2.3291    2.5000    0.0000 H   0  0  0  0  0  0  0  0  0  0  0  0
    5.1350    2.5000    0.0000 H   0  0  0  0  0  0  0  0  0  0  0  0
    2.3291    4.1200    0.0000 H   0  0  0  0  0  0  0  0  0  0  0  0
    5.1350    4.1200    0.0000 H   0  0  0  0  0  0  0  0  0  0  0  0
    5.1350   -1.8800    0.0000 H   0  0  0  0  0  0  0  0  0  0  0  0
    3.7320    4.9300    0.0000 H   0  0  0  0  0  0  0  0  0  0  0  0
    2.3100   -1.1531    0.0000 H   0  0  0  0  0  0  0  0  0  0  0  0
    1.4631   -1.3800    0.0000 H   0  0  0  0  0  0  0  0  0  0  0  0
    1.6900   -2.2269    0.0000 H   0  0  0  0  0  0  0  0  0  0  0  0
    3.7320   -4.3100    0.0000 H   0  0  0  0  0  0  0  0  0  0  0  0
    5.1541   -4.2269    0.0000 H   0  0  0  0  0  0  0  0  0  0  0  0
    6.0010   -4.0000    0.0000 H   0  0  0  0  0  0  0  0  0  0  0  0
    5.7741   -3.1531    0.0000 H   0  0  0  0  0  0  0  0  0  0  0  0
    2.0000   -4.3100    0.0000 H   0  0  0  0  0  0  0  0  0  0  0  0
  1 13  1  0  0  0  0
  2 13  1  0  0  0  0
  3 17  2  0  0  0  0
  4 18  2  0  0  0  0
 19  5  1  6  0  0  0
  5 57  1  0  0  0  0
  6 25  2  0  0  0  0
  7 36  1  0  0  0  0
  7 76  1  0  0  0  0
  8 12  1  0  0  0  0
  8 14  1  0  0  0  0
  8 18  1  0  0  0  0
  9 17  1  0  0  0  0
  9 21  1  0  0  0  0
  9 51  1  0  0  0  0
 20 10  1  1  0  0  0
 10 25  1  0  0  0  0
 10 56  1  0  0  0  0
 11 12  1  0  0  0  0
 11 13  1  0  0  0  0
 11 15  1  0  0  0  0
 11 16  1  0  0  0  0
 12 17  1  1  0  0  0
 12 40  1  0  0  0  0
 13 14  1  0  0  0  0
 14 41  1  0  0  0  0
 14 42  1  0  0  0  0
 15 43  1  0  0  0  0
 15 44  1  0  0  0  0
 15 45  1  0  0  0  0
 16 46  1  0  0  0  0
 16 47  1  0  0  0  0
 16 48  1  0  0  0  0
 18 19  1  0  0  0  0
 19 20  1  0  0  0  0
 19 49  1  0  0  0  0
 20 22  1  0  0  0  0
 20 50  1  0  0  0  0
 21 23  1  0  0  0  0
 21 54  1  0  0  0  0
 21 55  1  0  0  0  0
 22 24  1  0  0  0  0
 22 52  1  0  0  0  0
 22 53  1  0  0  0  0
 23 26  1  0  0  0  0
 23 58  1  0  0  0  0
 23 59  1  0  0  0  0
 24 27  2  0  0  0  0
 24 28  1  0  0  0  0
 25 29  1  0  0  0  0
 26 60  1  0  0  0  0
 26 61  1  0  0  0  0
 26 62  1  0  0  0  0
 27 30  1  0  0  0  0
 27 63  1  0  0  0  0
 28 31  2  0  0  0  0
 28 64  1  0  0  0  0
 29 32  2  0  0  0  0
 29 33  1  0  0  0  0
 30 34  2  0  0  0  0
 30 65  1  0  0  0  0
 31 34  1  0  0  0  0
 31 66  1  0  0  0  0
 32 36  1  0  0  0  0
 32 37  1  0  0  0  0
 33 35  2  0  0  0  0
 33 67  1  0  0  0  0
 34 68  1  0  0  0  0
 35 38  1  0  0  0  0
 35 39  1  0  0  0  0
 36 38  2  0  0  0  0
 37 69  1  0  0  0  0
 37 70  1  0  0  0  0
 37 71  1  0  0  0  0
 38 72  1  0  0  0  0
 39 73  1  0  0  0  0
 39 74  1  0  0  0  0
 39 75  1  0  0  0  0
M  END
> <PUBCHEM_COMPOUND_CID>
514656
> <PUBCHEM_COMPOUND_CANONICALIZED>
1
> <PUBCHEM_CACTVS_COMPLEXITY>
879
> <PUBCHEM_CACTVS_HBOND_ACCEPTOR>
7
> <PUBCHEM_CACTVS_HBOND_DONOR>
4
> <PUBCHEM_CACTVS_ROTATABLE_BOND>
9
> <PUBCHEM_CACTVS_SUBSKEYS>
AAADcfB7OYAAAAAAAAAAAAAAAAAAAWAAAAAwYAAAAAAAAAABQAAAHwAQCAAADjzhmBYyBoPAAgCIAiFSEAKCAAAkIAAIiIHODMgKdjqC1TOUcQhk1hGYmYe6yfCPwAADAAAYAACAAAYAADAAAAAAAAAAAA==
> <PUBCHEM_IUPAC_OPENEYE_NAME>
(2S)-4,4-difluoro-1-[(2S,3S)-2-hydroxy-3-[(3-hydroxy-2,5-dimethyl-benzoyl)amino]-4-phenyl-butanoyl]-3,3-dimethyl-N-propyl-pyrrolidine-2-carboxamide
> <PUBCHEM_IUPAC_CAS_NAME>
(2S)-4,4-difluoro-1-[(2S,3S)-2-hydroxy-3-[[(3-hydroxy-2,5-dimethylphenyl)-oxomethyl]amino]-1-oxo-4-phenylbutyl]-3,3-dimethyl-N-propyl-2-pyrrolidinecarboxamide
> <PUBCHEM_IUPAC_NAME_MARKUP>
(2<I>S</I>)-4,4-difluoro-1-[(2<I>S</I>,3<I>S</I>)-2-hydroxy-3-[(3-hydroxy-2,5-dimethylbenzoyl)amino]-4-phenylbutanoyl]-3,3-dimethyl-<I>N</I>-propylpyrrolidine-2-carboxamide
> <PUBCHEM_IUPAC_NAME>
(2S)-4,4-difluoro-1-[(2S,3S)-2-hydroxy-3-[(3-hydroxy-2,5-dimethylbenzoyl)amino]-4-phenylbutanoyl]-3,3-dimethyl-N-propylpyrrolidine-2-carboxamide
> <PUBCHEM_IUPAC_SYSTEMATIC_NAME>
(2S)-1-[(2S,3S)-3-[(2,5-dimethyl-3-oxidanyl-phenyl)carbonylamino]-2-oxidanyl-4-phenyl-butanoyl]-4,4-bis(fluoranyl)-3,3-dimethyl-N-propyl-pyrrolidine-2-carboxamide
> <PUBCHEM_IUPAC_TRADITIONAL_NAME>
(2S)-4,4-difluoro-1-[(2S,3S)-2-hydroxy-3-[(3-hydroxy-2,5-dimethyl-benzoyl)amino]-4-phenyl-butanoyl]-3,3-dimethyl-N-propyl-pyrrolidine-2-carboxamide
> <PUBCHEM_IUPAC_INCHI>
InChI=1S/C29H37F2N3O5/c1-6-12-32-26(38)24-28(4,5)29(30,31)16-34(24)27(39)23(36)21(15-19-10-8-7-9-11-19)33-25(37)20-13-17(2)14-22(35)18(20)3/h7-11,13-14,21,23-24,35-36H,6,12,15-16H2,1-5H3,(H,32,38)(H,33,37)/t21-,23-,24+/m0/s1
> <PUBCHEM_IUPAC_INCHIKEY>
KONLBJJVAYEXHQ-OEMFJLHTSA-N
> <PUBCHEM_XLOGP3_AA>
4.4
> <PUBCHEM_EXACT_MASS>
545.27012761
> <PUBCHEM_MOLECULAR_FORMULA>
C29H37F2N3O5
> <PUBCHEM_MOLECULAR_WEIGHT>
545.6
> <PUBCHEM_OPENEYE_CAN_SMILES>
CCCNC(=O)C1C(C(CN1C(=O)C(C(CC2=CC=CC=C2)NC(=O)C3=C(C(=CC(=C3)C)O)C)O)(F)F)(C)C
> <PUBCHEM_OPENEYE_ISO_SMILES>
CCCNC(=O)[C@@H]1C(C(CN1C(=O)[C@H]([C@H](CC2=CC=CC=C2)NC(=O)C3=C(C(=CC(=C3)C)O)C)O)(F)F)(C)C
> <PUBCHEM_CACTVS_TPSA>
119
> <PUBCHEM_MONOISOTOPIC_WEIGHT>
545.27012761
> <PUBCHEM_TOTAL_CHARGE>
0
> <PUBCHEM_HEAVY_ATOM_COUNT>
39
> <PUBCHEM_ATOM_DEF_STEREO_COUNT>
3
> <PUBCHEM_ATOM_UDEF_STEREO_COUNT>
0
> <PUBCHEM_BOND_DEF_STEREO_COUNT>
0
> <PUBCHEM_BOND_UDEF_STEREO_COUNT>
0
> <PUBCHEM_ISOTOPIC_ATOM_COUNT>
0
> <PUBCHEM_COMPONENT_COUNT>
1
> <PUBCHEM_CACTVS_TAUTO_COUNT>
-1
> <PUBCHEM_COORDINATE_TYPE>
1
5
255
> <PUBCHEM_BONDANNOTATIONS>
20  10  5
12  17  5
24  27  8
24  28  8
27  30  8
28  31  8
29  32  8
29  33  8
30  34  8
31  34  8
32  36  8
33  35  8
35  38  8
36  38  8
19  5  6
$$$$
