514685
  -OEChem-10302200282D
 78 80  0     1  0  0  0  0  0999 V2000
    6.5468    3.3539    0.0000 S   0  0  0  0  0  0  0  0  0  0  0  0
    8.2798    1.1267    0.0000 O   0  0  0  0  0  0  0  0  0  0  0  0
    5.8424    0.0975    0.0000 O   0  0  0  0  0  0  0  0  0  0  0  0
    3.7320    2.1515    0.0000 O   0  0  0  0  0  0  0  0  0  0  0  0
   10.3898   -0.4695    0.0000 O   0  0  0  0  0  0  0  0  0  0  0  0
    9.2308    0.8177    0.0000 O   0  0  0  0  0  0  0  0  0  0  0  0
    2.0000   -2.8485    0.0000 O   0  0  0  0  0  0  0  0  0  0  0  0
    6.3776    1.7447    0.0000 N   0  0  0  0  0  0  0  0  0  0  0  0
    4.5981    0.6515    0.0000 N   0  0  0  0  0  0  0  0  0  0  0  0
    8.6956   -0.8296    0.0000 N   0  0  0  0  0  0  0  0  0  0  0  0
    5.5686    3.1460    0.0000 C   0  0  0  0  0  0  0  0  0  0  0  0
    5.4641    2.1515    0.0000 C   0  0  1  0  0  0  0  0  0  0  0  0
    7.0468    2.4879    0.0000 C   0  0  0  0  0  0  0  0  0  0  0  0
    5.3607    4.1242    0.0000 C   0  0  0  0  0  0  0  0  0  0  0  0
    4.5741    3.2505    0.0000 C   0  0  0  0  0  0  0  0  0  0  0  0
    6.5856    0.7666    0.0000 C   0  0  0  0  0  0  0  0  0  0  0  0
    4.5981    1.6515    0.0000 C   0  0  0  0  0  0  0  0  0  0  0  0
    7.5366    0.4576    0.0000 C   0  0  2  0  0  0  0  0  0  0  0  0
    7.7445   -0.5206    0.0000 C   0  0  2  0  0  0  0  0  0  0  0  0
    7.0014   -1.1897    0.0000 C   0  0  0  0  0  0  0  0  0  0  0  0
    3.7320    0.1515    0.0000 C   0  0  0  0  0  0  0  0  0  0  0  0
    7.2093   -2.1678    0.0000 C   0  0  0  0  0  0  0  0  0  0  0  0
    9.4387   -0.1605    0.0000 C   0  0  0  0  0  0  0  0  0  0  0  0
    3.7320   -0.8485    0.0000 C   0  0  0  0  0  0  0  0  0  0  0  0
    8.1604   -2.4769    0.0000 C   0  0  0  0  0  0  0  0  0  0  0  0
    6.4662   -2.8370    0.0000 C   0  0  0  0  0  0  0  0  0  0  0  0
   11.1329    0.1997    0.0000 C   0  0  0  0  0  0  0  0  0  0  0  0
    2.8660   -1.3485    0.0000 C   0  0  0  0  0  0  0  0  0  0  0  0
    4.5981   -1.3485    0.0000 C   0  0  0  0  0  0  0  0  0  0  0  0
    8.3683   -3.4550    0.0000 C   0  0  0  0  0  0  0  0  0  0  0  0
    6.6741   -3.8151    0.0000 C   0  0  0  0  0  0  0  0  0  0  0  0
   11.8761    0.8688    0.0000 C   0  0  0  0  0  0  0  0  0  0  0  0
   11.8021   -0.5435    0.0000 C   0  0  0  0  0  0  0  0  0  0  0  0
   10.4638    0.9428    0.0000 C   0  0  0  0  0  0  0  0  0  0  0  0
    7.6251   -4.1242    0.0000 C   0  0  0  0  0  0  0  0  0  0  0  0
    2.8660   -2.3485    0.0000 C   0  0  0  0  0  0  0  0  0  0  0  0
    4.5981   -2.3485    0.0000 C   0  0  0  0  0  0  0  0  0  0  0  0
    3.7320   -2.8485    0.0000 C   0  0  0  0  0  0  0  0  0  0  0  0
    2.0000   -3.8485    0.0000 C   0  0  0  0  0  0  0  0  0  0  0  0
    5.4966    1.5323    0.0000 H   0  0  0  0  0  0  0  0  0  0  0  0
    7.4616    2.0271    0.0000 H   0  0  0  0  0  0  0  0  0  0  0  0
    7.5484    2.8523    0.0000 H   0  0  0  0  0  0  0  0  0  0  0  0
    5.9672    4.2530    0.0000 H   0  0  0  0  0  0  0  0  0  0  0  0
    5.2318    4.7306    0.0000 H   0  0  0  0  0  0  0  0  0  0  0  0
    4.7543    3.9952    0.0000 H   0  0  0  0  0  0  0  0  0  0  0  0
    4.6389    3.8671    0.0000 H   0  0  0  0  0  0  0  0  0  0  0  0
    3.9575    3.3153    0.0000 H   0  0  0  0  0  0  0  0  0  0  0  0
    4.5093    2.6339    0.0000 H   0  0  0  0  0  0  0  0  0  0  0  0
    7.4077    1.0640    0.0000 H   0  0  0  0  0  0  0  0  0  0  0  0
    8.2053   -0.1057    0.0000 H   0  0  0  0  0  0  0  0  0  0  0  0
    5.1350    0.3415    0.0000 H   0  0  0  0  0  0  0  0  0  0  0  0
    6.6728   -0.6639    0.0000 H   0  0  0  0  0  0  0  0  0  0  0  0
    6.4265   -1.4220    0.0000 H   0  0  0  0  0  0  0  0  0  0  0  0
    8.8245   -1.4360    0.0000 H   0  0  0  0  0  0  0  0  0  0  0  0
    3.5200    0.7341    0.0000 H   0  0  0  0  0  0  0  0  0  0  0  0
    3.1215    0.0438    0.0000 H   0  0  0  0  0  0  0  0  0  0  0  0
    8.1509    1.7332    0.0000 H   0  0  0  0  0  0  0  0  0  0  0  0
    8.6211   -2.0620    0.0000 H   0  0  0  0  0  0  0  0  0  0  0  0
    5.8765   -2.6454    0.0000 H   0  0  0  0  0  0  0  0  0  0  0  0
    2.3291   -1.0385    0.0000 H   0  0  0  0  0  0  0  0  0  0  0  0
    5.1350   -1.0385    0.0000 H   0  0  0  0  0  0  0  0  0  0  0  0
    8.9579   -3.6466    0.0000 H   0  0  0  0  0  0  0  0  0  0  0  0
    6.2133   -4.2300    0.0000 H   0  0  0  0  0  0  0  0  0  0  0  0
   12.2909    0.4080    0.0000 H   0  0  0  0  0  0  0  0  0  0  0  0
   12.3368    1.2836    0.0000 H   0  0  0  0  0  0  0  0  0  0  0  0
   11.4612    1.3295    0.0000 H   0  0  0  0  0  0  0  0  0  0  0  0
   11.3413   -0.9584    0.0000 H   0  0  0  0  0  0  0  0  0  0  0  0
   12.2169   -1.0042    0.0000 H   0  0  0  0  0  0  0  0  0  0  0  0
   12.2628   -0.1286    0.0000 H   0  0  0  0  0  0  0  0  0  0  0  0
   10.9245    1.3577    0.0000 H   0  0  0  0  0  0  0  0  0  0  0  0
   10.0489    1.4036    0.0000 H   0  0  0  0  0  0  0  0  0  0  0  0
   10.0030    0.5279    0.0000 H   0  0  0  0  0  0  0  0  0  0  0  0
    7.7540   -4.7306    0.0000 H   0  0  0  0  0  0  0  0  0  0  0  0
    5.1350   -2.6585    0.0000 H   0  0  0  0  0  0  0  0  0  0  0  0
    3.7320   -3.4685    0.0000 H   0  0  0  0  0  0  0  0  0  0  0  0
    1.3800   -3.8485    0.0000 H   0  0  0  0  0  0  0  0  0  0  0  0
    2.0000   -4.4685    0.0000 H   0  0  0  0  0  0  0  0  0  0  0  0
    2.6200   -3.8485    0.0000 H   0  0  0  0  0  0  0  0  0  0  0  0
  1 11  1  0  0  0  0
  1 13  1  0  0  0  0
 18  2  1  1  0  0  0
  2 57  1  0  0  0  0
  3 16  2  0  0  0  0
  4 17  2  0  0  0  0
  5 23  1  0  0  0  0
  5 27  1  0  0  0  0
  6 23  2  0  0  0  0
  7 36  1  0  0  0  0
  7 39  1  0  0  0  0
  8 12  1  0  0  0  0
  8 13  1  0  0  0  0
  8 16  1  0  0  0  0
  9 17  1  0  0  0  0
  9 21  1  0  0  0  0
  9 51  1  0  0  0  0
 19 10  1  1  0  0  0
 10 23  1  0  0  0  0
 10 54  1  0  0  0  0
 11 12  1  0  0  0  0
 11 14  1  0  0  0  0
 11 15  1  0  0  0  0
 12 17  1  6  0  0  0
 12 40  1  0  0  0  0
 13 41  1  0  0  0  0
 13 42  1  0  0  0  0
 14 43  1  0  0  0  0
 14 44  1  0  0  0  0
 14 45  1  0  0  0  0
 15 46  1  0  0  0  0
 15 47  1  0  0  0  0
 15 48  1  0  0  0  0
 16 18  1  0  0  0  0
 18 19  1  0  0  0  0
 18 49  1  0  0  0  0
 19 20  1  0  0  0  0
 19 50  1  0  0  0  0
 20 22  1  0  0  0  0
 20 52  1  0  0  0  0
 20 53  1  0  0  0  0
 21 24  1  0  0  0  0
 21 55  1  0  0  0  0
 21 56  1  0  0  0  0
 22 25  2  0  0  0  0
 22 26  1  0  0  0  0
 24 28  2  0  0  0  0
 24 29  1  0  0  0  0
 25 30  1  0  0  0  0
 25 58  1  0  0  0  0
 26 31  2  0  0  0  0
 26 59  1  0  0  0  0
 27 32  1  0  0  0  0
 27 33  1  0  0  0  0
 27 34  1  0  0  0  0
 28 36  1  0  0  0  0
 28 60  1  0  0  0  0
 29 37  2  0  0  0  0
 29 61  1  0  0  0  0
 30 35  2  0  0  0  0
 30 62  1  0  0  0  0
 31 35  1  0  0  0  0
 31 63  1  0  0  0  0
 32 64  1  0  0  0  0
 32 65  1  0  0  0  0
 32 66  1  0  0  0  0
 33 67  1  0  0  0  0
 33 68  1  0  0  0  0
 33 69  1  0  0  0  0
 34 70  1  0  0  0  0
 34 71  1  0  0  0  0
 34 72  1  0  0  0  0
 35 73  1  0  0  0  0
 36 38  2  0  0  0  0
 37 38  1  0  0  0  0
 37 74  1  0  0  0  0
 38 75  1  0  0  0  0
 39 76  1  0  0  0  0
 39 77  1  0  0  0  0
 39 78  1  0  0  0  0
M  END
> <PUBCHEM_COMPOUND_CID>
514685
> <PUBCHEM_COMPOUND_CANONICALIZED>
1
> <PUBCHEM_CACTVS_COMPLEXITY>
841
> <PUBCHEM_CACTVS_HBOND_ACCEPTOR>
7
> <PUBCHEM_CACTVS_HBOND_DONOR>
3
> <PUBCHEM_CACTVS_ROTATABLE_BOND>
11
> <PUBCHEM_CACTVS_SUBSKEYS>
AAADcfB7OABAAAAAAAAAAAAAAAAAAWAAAAAwYAAAAAAAAAABQAAAHgQQCAAADHzh2AayDoPABgiIAiFSGAKCCABgIBAIiIHODIkOdjqk8TuccChk1hGYqAe4yLCOAAABAAAAAAAAAAIAAAAAAAAAAAAAAA==
> <PUBCHEM_IUPAC_OPENEYE_NAME>
tert-butyl N-[(1S,2S)-1-benzyl-2-hydroxy-3-[(4R)-4-[(3-methoxyphenyl)methylcarbamoyl]-5,5-dimethyl-thiazolidin-3-yl]-3-oxo-propyl]carbamate
> <PUBCHEM_IUPAC_CAS_NAME>
N-[(2S,3S)-3-hydroxy-4-[(4R)-4-[[(3-methoxyphenyl)methylamino]-oxomethyl]-5,5-dimethyl-3-thiazolidinyl]-4-oxo-1-phenylbutan-2-yl]carbamic acid tert-butyl ester
> <PUBCHEM_IUPAC_NAME_MARKUP>
<I>tert</I>-butyl <I>N</I>-[(2<I>S</I>,3<I>S</I>)-3-hydroxy-4-[(4<I>R</I>)-4-[(3-methoxyphenyl)methylcarbamoyl]-5,5-dimethyl-1,3-thiazolidin-3-yl]-4-oxo-1-phenylbutan-2-yl]carbamate
> <PUBCHEM_IUPAC_NAME>
tert-butyl N-[(2S,3S)-3-hydroxy-4-[(4R)-4-[(3-methoxyphenyl)methylcarbamoyl]-5,5-dimethyl-1,3-thiazolidin-3-yl]-4-oxo-1-phenylbutan-2-yl]carbamate
> <PUBCHEM_IUPAC_SYSTEMATIC_NAME>
tert-butyl N-[(2S,3S)-4-[(4R)-4-[(3-methoxyphenyl)methylcarbamoyl]-5,5-dimethyl-1,3-thiazolidin-3-yl]-3-oxidanyl-4-oxidanylidene-1-phenyl-butan-2-yl]carbamate
> <PUBCHEM_IUPAC_TRADITIONAL_NAME>
N-[(1S,2S)-1-benzyl-2-hydroxy-3-keto-3-[(4R)-4-(m-anisylcarbamoyl)-5,5-dimethyl-thiazolidin-3-yl]propyl]carbamic acid tert-butyl ester
> <PUBCHEM_IUPAC_INCHI>
InChI=1S/C29H39N3O6S/c1-28(2,3)38-27(36)31-22(16-19-11-8-7-9-12-19)23(33)26(35)32-18-39-29(4,5)24(32)25(34)30-17-20-13-10-14-21(15-20)37-6/h7-15,22-24,33H,16-18H2,1-6H3,(H,30,34)(H,31,36)/t22-,23-,24+/m0/s1
> <PUBCHEM_IUPAC_INCHIKEY>
ROAAECAXWYEKDK-KMDXXIMOSA-N
> <PUBCHEM_XLOGP3_AA>
3.8
> <PUBCHEM_EXACT_MASS>
557.25595715
> <PUBCHEM_MOLECULAR_FORMULA>
C29H39N3O6S
> <PUBCHEM_MOLECULAR_WEIGHT>
557.7
> <PUBCHEM_OPENEYE_CAN_SMILES>
CC1(C(N(CS1)C(=O)C(C(CC2=CC=CC=C2)NC(=O)OC(C)(C)C)O)C(=O)NCC3=CC(=CC=C3)OC)C
> <PUBCHEM_OPENEYE_ISO_SMILES>
CC1([C@H](N(CS1)C(=O)[C@H]([C@H](CC2=CC=CC=C2)NC(=O)OC(C)(C)C)O)C(=O)NCC3=CC(=CC=C3)OC)C
> <PUBCHEM_CACTVS_TPSA>
143
> <PUBCHEM_MONOISOTOPIC_WEIGHT>
557.25595715
> <PUBCHEM_TOTAL_CHARGE>
0
> <PUBCHEM_HEAVY_ATOM_COUNT>
39
> <PUBCHEM_ATOM_DEF_STEREO_COUNT>
3
> <PUBCHEM_ATOM_UDEF_STEREO_COUNT>
0
> <PUBCHEM_BOND_DEF_STEREO_COUNT>
0
> <PUBCHEM_BOND_UDEF_STEREO_COUNT>
0
> <PUBCHEM_ISOTOPIC_ATOM_COUNT>
0
> <PUBCHEM_COMPONENT_COUNT>
1
> <PUBCHEM_CACTVS_TAUTO_COUNT>
-1
> <PUBCHEM_COORDINATE_TYPE>
1
5
255
> <PUBCHEM_BONDANNOTATIONS>
19  10  5
12  17  6
18  2  5
22  25  8
22  26  8
24  28  8
24  29  8
25  30  8
26  31  8
28  36  8
29  37  8
30  35  8
31  35  8
36  38  8
37  38  8
$$$$
