514633
  -OEChem-10302200282D
 85 89  0     1  0  0  0  0  0999 V2000
    4.5878   -2.7846    0.0000 S   0  0  0  0  0  0  0  0  0  0  0  0
    3.3006   -0.0076    0.0000 O   0  0  0  0  0  0  0  0  0  0  0  0
    6.2433    0.1067    0.0000 O   0  0  0  0  0  0  0  0  0  0  0  0
    7.3659   -2.2891    0.0000 O   0  0  0  0  0  0  0  0  0  0  0  0
    8.2795   -2.6958    0.0000 O   0  0  0  0  0  0  0  0  0  0  0  0
   12.5336   -1.7459    0.0000 O   0  0  0  0  0  0  0  0  0  0  0  0
    5.5388   -1.4756    0.0000 N   0  0  0  0  0  0  0  0  0  0  0  0
    4.9479    0.5276    0.0000 N   0  0  0  0  0  0  0  0  0  0  0  0
    8.9840   -1.1135    0.0000 N   0  0  0  0  0  0  0  0  0  0  0  0
    4.0000   -1.9756    0.0000 C   0  0  0  0  0  0  0  0  0  0  0  0
    4.5878   -1.1666    0.0000 C   0  0  1  0  0  0  0  0  0  0  0  0
    3.5000   -2.8416    0.0000 C   0  0  0  0  0  0  0  0  0  0  0  0
    3.5000   -1.1096    0.0000 C   0  0  0  0  0  0  0  0  0  0  0  0
    2.5000   -2.8416    0.0000 C   0  0  0  0  0  0  0  0  0  0  0  0
    2.5000   -1.1096    0.0000 C   0  0  0  0  0  0  0  0  0  0  0  0
    2.0000   -1.9756    0.0000 C   0  0  0  0  0  0  0  0  0  0  0  0
    5.5388   -2.4756    0.0000 C   0  0  0  0  0  0  0  0  0  0  0  0
    4.2788   -0.2155    0.0000 C   0  0  0  0  0  0  0  0  0  0  0  0
    6.3479   -0.8878    0.0000 C   0  0  0  0  0  0  0  0  0  0  0  0
    7.2614   -1.2946    0.0000 C   0  0  2  0  0  0  0  0  0  0  0  0
    8.0704   -0.7068    0.0000 C   0  0  2  0  0  0  0  0  0  0  0  0
    4.6389    1.4787    0.0000 C   0  0  0  0  0  0  0  0  0  0  0  0
    7.9659    0.2878    0.0000 C   0  0  0  0  0  0  0  0  0  0  0  0
    5.3080    2.2218    0.0000 C   0  0  0  0  0  0  0  0  0  0  0  0
    8.7749    0.8755    0.0000 C   0  0  0  0  0  0  0  0  0  0  0  0
    9.0885   -2.1080    0.0000 C   0  0  0  0  0  0  0  0  0  0  0  0
    6.2862    2.0139    0.0000 C   0  0  0  0  0  0  0  0  0  0  0  0
    4.9990    3.1729    0.0000 C   0  0  0  0  0  0  0  0  0  0  0  0
    8.6704    1.8701    0.0000 C   0  0  0  0  0  0  0  0  0  0  0  0
    9.6885    0.4688    0.0000 C   0  0  0  0  0  0  0  0  0  0  0  0
   10.0020   -2.5148    0.0000 C   0  0  0  0  0  0  0  0  0  0  0  0
    6.9553    2.7570    0.0000 C   0  0  0  0  0  0  0  0  0  0  0  0
    6.5952    1.0628    0.0000 C   0  0  0  0  0  0  0  0  0  0  0  0
    5.6681    3.9160    0.0000 C   0  0  0  0  0  0  0  0  0  0  0  0
    9.4794    2.4578    0.0000 C   0  0  0  0  0  0  0  0  0  0  0  0
   10.4975    1.0566    0.0000 C   0  0  0  0  0  0  0  0  0  0  0  0
    6.6463    3.7081    0.0000 C   0  0  0  0  0  0  0  0  0  0  0  0
   10.8111   -1.9270    0.0000 C   0  0  0  0  0  0  0  0  0  0  0  0
   10.3929    2.0511    0.0000 C   0  0  0  0  0  0  0  0  0  0  0  0
   10.1066   -3.5093    0.0000 C   0  0  0  0  0  0  0  0  0  0  0  0
   11.7246   -2.3337    0.0000 C   0  0  0  0  0  0  0  0  0  0  0  0
   10.7065   -0.9325    0.0000 C   0  0  0  0  0  0  0  0  0  0  0  0
   11.0201   -3.9160    0.0000 C   0  0  0  0  0  0  0  0  0  0  0  0
   11.8291   -3.3282    0.0000 C   0  0  0  0  0  0  0  0  0  0  0  0
    5.0262   -0.7282    0.0000 H   0  0  0  0  0  0  0  0  0  0  0  0
    3.3923   -3.4522    0.0000 H   0  0  0  0  0  0  0  0  0  0  0  0
    4.0826   -3.0537    0.0000 H   0  0  0  0  0  0  0  0  0  0  0  0
    4.0826   -0.8975    0.0000 H   0  0  0  0  0  0  0  0  0  0  0  0
    3.3923   -0.4990    0.0000 H   0  0  0  0  0  0  0  0  0  0  0  0
    1.9174   -3.0537    0.0000 H   0  0  0  0  0  0  0  0  0  0  0  0
    2.6077   -3.4522    0.0000 H   0  0  0  0  0  0  0  0  0  0  0  0
    2.6077   -0.4990    0.0000 H   0  0  0  0  0  0  0  0  0  0  0  0
    1.9174   -0.8975    0.0000 H   0  0  0  0  0  0  0  0  0  0  0  0
    1.5250   -1.5771    0.0000 H   0  0  0  0  0  0  0  0  0  0  0  0
    1.5250   -2.3741    0.0000 H   0  0  0  0  0  0  0  0  0  0  0  0
    5.6678   -3.0820    0.0000 H   0  0  0  0  0  0  0  0  0  0  0  0
    6.1554   -2.4108    0.0000 H   0  0  0  0  0  0  0  0  0  0  0  0
    6.7598   -1.6590    0.0000 H   0  0  0  0  0  0  0  0  0  0  0  0
    5.5544    0.3987    0.0000 H   0  0  0  0  0  0  0  0  0  0  0  0
    8.1352   -1.3234    0.0000 H   0  0  0  0  0  0  0  0  0  0  0  0
    4.2572    1.9672    0.0000 H   0  0  0  0  0  0  0  0  0  0  0  0
    4.0914    1.1876    0.0000 H   0  0  0  0  0  0  0  0  0  0  0  0
    7.6941    0.8450    0.0000 H   0  0  0  0  0  0  0  0  0  0  0  0
    7.3699    0.1169    0.0000 H   0  0  0  0  0  0  0  0  0  0  0  0
    6.8643   -2.6535    0.0000 H   0  0  0  0  0  0  0  0  0  0  0  0
    9.4856   -0.7491    0.0000 H   0  0  0  0  0  0  0  0  0  0  0  0
    4.3925    3.3018    0.0000 H   0  0  0  0  0  0  0  0  0  0  0  0
    8.1040    2.1222    0.0000 H   0  0  0  0  0  0  0  0  0  0  0  0
    9.7533   -0.1478    0.0000 H   0  0  0  0  0  0  0  0  0  0  0  0
    7.5617    2.6282    0.0000 H   0  0  0  0  0  0  0  0  0  0  0  0
    6.0055    0.8713    0.0000 H   0  0  0  0  0  0  0  0  0  0  0  0
    6.7868    0.4732    0.0000 H   0  0  0  0  0  0  0  0  0  0  0  0
    7.1848    1.2544    0.0000 H   0  0  0  0  0  0  0  0  0  0  0  0
    5.4765    4.5057    0.0000 H   0  0  0  0  0  0  0  0  0  0  0  0
    9.4146    3.0744    0.0000 H   0  0  0  0  0  0  0  0  0  0  0  0
   11.0639    0.8044    0.0000 H   0  0  0  0  0  0  0  0  0  0  0  0
    7.0611    4.1689    0.0000 H   0  0  0  0  0  0  0  0  0  0  0  0
   10.8945    2.4155    0.0000 H   0  0  0  0  0  0  0  0  0  0  0  0
    9.6050   -3.8737    0.0000 H   0  0  0  0  0  0  0  0  0  0  0  0
   11.3231   -0.8676    0.0000 H   0  0  0  0  0  0  0  0  0  0  0  0
   10.6417   -0.3159    0.0000 H   0  0  0  0  0  0  0  0  0  0  0  0
   10.0899   -0.9973    0.0000 H   0  0  0  0  0  0  0  0  0  0  0  0
   11.0849   -4.5326    0.0000 H   0  0  0  0  0  0  0  0  0  0  0  0
   12.3955   -3.5804    0.0000 H   0  0  0  0  0  0  0  0  0  0  0  0
   13.1000   -1.9981    0.0000 H   0  0  0  0  0  0  0  0  0  0  0  0
  1 10  1  0  0  0  0
  1 17  1  0  0  0  0
  2 18  2  0  0  0  0
  3 19  2  0  0  0  0
 20  4  1  6  0  0  0
  4 65  1  0  0  0  0
  5 26  2  0  0  0  0
  6 41  1  0  0  0  0
  6 85  1  0  0  0  0
  7 11  1  0  0  0  0
  7 17  1  0  0  0  0
  7 19  1  0  0  0  0
  8 18  1  0  0  0  0
  8 22  1  0  0  0  0
  8 59  1  0  0  0  0
 21  9  1  6  0  0  0
  9 26  1  0  0  0  0
  9 66  1  0  0  0  0
 10 11  1  0  0  0  0
 10 12  1  0  0  0  0
 10 13  1  0  0  0  0
 11 18  1  1  0  0  0
 11 45  1  0  0  0  0
 12 14  1  0  0  0  0
 12 46  1  0  0  0  0
 12 47  1  0  0  0  0
 13 15  1  0  0  0  0
 13 48  1  0  0  0  0
 13 49  1  0  0  0  0
 14 16  1  0  0  0  0
 14 50  1  0  0  0  0
 14 51  1  0  0  0  0
 15 16  1  0  0  0  0
 15 52  1  0  0  0  0
 15 53  1  0  0  0  0
 16 54  1  0  0  0  0
 16 55  1  0  0  0  0
 17 56  1  0  0  0  0
 17 57  1  0  0  0  0
 19 20  1  0  0  0  0
 20 21  1  0  0  0  0
 20 58  1  0  0  0  0
 21 23  1  0  0  0  0
 21 60  1  0  0  0  0
 22 24  1  0  0  0  0
 22 61  1  0  0  0  0
 22 62  1  0  0  0  0
 23 25  1  0  0  0  0
 23 63  1  0  0  0  0
 23 64  1  0  0  0  0
 24 27  1  0  0  0  0
 24 28  2  0  0  0  0
 25 29  2  0  0  0  0
 25 30  1  0  0  0  0
 26 31  1  0  0  0  0
 27 32  2  0  0  0  0
 27 33  1  0  0  0  0
 28 34  1  0  0  0  0
 28 67  1  0  0  0  0
 29 35  1  0  0  0  0
 29 68  1  0  0  0  0
 30 36  2  0  0  0  0
 30 69  1  0  0  0  0
 31 38  2  0  0  0  0
 31 40  1  0  0  0  0
 32 37  1  0  0  0  0
 32 70  1  0  0  0  0
 33 71  1  0  0  0  0
 33 72  1  0  0  0  0
 33 73  1  0  0  0  0
 34 37  2  0  0  0  0
 34 74  1  0  0  0  0
 35 39  2  0  0  0  0
 35 75  1  0  0  0  0
 36 39  1  0  0  0  0
 36 76  1  0  0  0  0
 37 77  1  0  0  0  0
 38 41  1  0  0  0  0
 38 42  1  0  0  0  0
 39 78  1  0  0  0  0
 40 43  2  0  0  0  0
 40 79  1  0  0  0  0
 41 44  2  0  0  0  0
 42 80  1  0  0  0  0
 42 81  1  0  0  0  0
 42 82  1  0  0  0  0
 43 44  1  0  0  0  0
 43 83  1  0  0  0  0
 44 84  1  0  0  0  0
M  END
> <PUBCHEM_COMPOUND_CID>
514633
> <PUBCHEM_COMPOUND_CANONICALIZED>
1
> <PUBCHEM_CACTVS_COMPLEXITY>
983
> <PUBCHEM_CACTVS_HBOND_ACCEPTOR>
6
> <PUBCHEM_CACTVS_HBOND_DONOR>
4
> <PUBCHEM_CACTVS_ROTATABLE_BOND>
9
> <PUBCHEM_CACTVS_SUBSKEYS>
AAADcfB/OABAAAAAAAAAAAAAAAAAAWAAAAAwYMGAAAAAAAABUAAAHgQQCAAADDzh2AayBoPAAgiIAiFSEAKCAABkIBAIiIHODMgKdjqi1TOUcQhk1hGYmYe6yLCOgAABAAAYAAAAAAIAADAAAAAAAAAAAA==
> <PUBCHEM_IUPAC_OPENEYE_NAME>
(4R)-3-[(2S,3S)-2-hydroxy-3-[(3-hydroxy-2-methyl-benzoyl)amino]-4-phenyl-butanoyl]-N-(o-tolylmethyl)-1-thia-3-azaspiro[4.5]decane-4-carboxamide
> <PUBCHEM_IUPAC_CAS_NAME>
(4R)-3-[(2S,3S)-2-hydroxy-3-[[(3-hydroxy-2-methylphenyl)-oxomethyl]amino]-1-oxo-4-phenylbutyl]-N-[(2-methylphenyl)methyl]-1-thia-3-azaspiro[4.5]decane-4-carboxamide
> <PUBCHEM_IUPAC_NAME_MARKUP>
(4<I>R</I>)-3-[(2<I>S</I>,3<I>S</I>)-2-hydroxy-3-[(3-hydroxy-2-methylbenzoyl)amino]-4-phenylbutanoyl]-<I>N</I>-[(2-methylphenyl)methyl]-1-thia-3-azaspiro[4.5]decane-4-carboxamide
> <PUBCHEM_IUPAC_NAME>
(4R)-3-[(2S,3S)-2-hydroxy-3-[(3-hydroxy-2-methylbenzoyl)amino]-4-phenylbutanoyl]-N-[(2-methylphenyl)methyl]-1-thia-3-azaspiro[4.5]decane-4-carboxamide
> <PUBCHEM_IUPAC_SYSTEMATIC_NAME>
(4R)-3-[(2S,3S)-3-[(2-methyl-3-oxidanyl-phenyl)carbonylamino]-2-oxidanyl-4-phenyl-butanoyl]-N-[(2-methylphenyl)methyl]-1-thia-3-azaspiro[4.5]decane-4-carboxamide
> <PUBCHEM_IUPAC_TRADITIONAL_NAME>
(4R)-3-[(2S,3S)-2-hydroxy-3-[(3-hydroxy-2-methyl-benzoyl)amino]-4-phenyl-butanoyl]-N-(2-methylbenzyl)-1-thia-3-azaspiro[4.5]decane-4-carboxamide
> <PUBCHEM_IUPAC_INCHI>
InChI=1S/C35H41N3O5S/c1-23-12-7-8-15-26(23)21-36-33(42)31-35(18-9-4-10-19-35)44-22-38(31)34(43)30(40)28(20-25-13-5-3-6-14-25)37-32(41)27-16-11-17-29(39)24(27)2/h3,5-8,11-17,28,30-31,39-40H,4,9-10,18-22H2,1-2H3,(H,36,42)(H,37,41)/t28-,30-,31+/m0/s1
> <PUBCHEM_IUPAC_INCHIKEY>
MATQKZAHEJBUQQ-LHGWWSMPSA-N
> <PUBCHEM_XLOGP3_AA>
5.5
> <PUBCHEM_EXACT_MASS>
615.27669259
> <PUBCHEM_MOLECULAR_FORMULA>
C35H41N3O5S
> <PUBCHEM_MOLECULAR_WEIGHT>
615.8
> <PUBCHEM_OPENEYE_CAN_SMILES>
CC1=CC=CC=C1CNC(=O)C2C3(CCCCC3)SCN2C(=O)C(C(CC4=CC=CC=C4)NC(=O)C5=C(C(=CC=C5)O)C)O
> <PUBCHEM_OPENEYE_ISO_SMILES>
CC1=CC=CC=C1CNC(=O)[C@@H]2C3(CCCCC3)SCN2C(=O)[C@H]([C@H](CC4=CC=CC=C4)NC(=O)C5=C(C(=CC=C5)O)C)O
> <PUBCHEM_CACTVS_TPSA>
144
> <PUBCHEM_MONOISOTOPIC_WEIGHT>
615.27669259
> <PUBCHEM_TOTAL_CHARGE>
0
> <PUBCHEM_HEAVY_ATOM_COUNT>
44
> <PUBCHEM_ATOM_DEF_STEREO_COUNT>
3
> <PUBCHEM_ATOM_UDEF_STEREO_COUNT>
0
> <PUBCHEM_BOND_DEF_STEREO_COUNT>
0
> <PUBCHEM_BOND_UDEF_STEREO_COUNT>
0
> <PUBCHEM_ISOTOPIC_ATOM_COUNT>
0
> <PUBCHEM_COMPONENT_COUNT>
1
> <PUBCHEM_CACTVS_TAUTO_COUNT>
-1
> <PUBCHEM_COORDINATE_TYPE>
1
5
255
> <PUBCHEM_BONDANNOTATIONS>
11  18  5
24  27  8
24  28  8
25  29  8
25  30  8
27  32  8
28  34  8
29  35  8
30  36  8
31  38  8
31  40  8
32  37  8
34  37  8
35  39  8
36  39  8
38  41  8
20  4  6
40  43  8
41  44  8
43  44  8
21  9  6
$$$$
