514632
  -OEChem-10302200282D
 82 86  0     1  0  0  0  0  0999 V2000
    8.7006   -2.5574    0.0000 S   0  0  0  0  0  0  0  0  0  0  0  0
    5.9236   -3.8445    0.0000 O   0  0  0  0  0  0  0  0  0  0  0  0
    5.8093   -0.9018    0.0000 O   0  0  0  0  0  0  0  0  0  0  0  0
    8.2051    0.2208    0.0000 O   0  0  0  0  0  0  0  0  0  0  0  0
    8.6118    1.1343    0.0000 O   0  0  0  0  0  0  0  0  0  0  0  0
   10.8266    3.9795    0.0000 O   0  0  0  0  0  0  0  0  0  0  0  0
    7.3916   -1.6063    0.0000 N   0  0  0  0  0  0  0  0  0  0  0  0
    5.3884   -2.1972    0.0000 N   0  0  0  0  0  0  0  0  0  0  0  0
    7.0295    1.8388    0.0000 N   0  0  0  0  0  0  0  0  0  0  0  0
    7.8916   -3.1451    0.0000 C   0  0  0  0  0  0  0  0  0  0  0  0
    7.0826   -2.5574    0.0000 C   0  0  1  0  0  0  0  0  0  0  0  0
    8.7006   -3.7329    0.0000 C   0  0  0  0  0  0  0  0  0  0  0  0
    7.0826   -3.7329    0.0000 C   0  0  0  0  0  0  0  0  0  0  0  0
    8.3916   -4.6840    0.0000 C   0  0  0  0  0  0  0  0  0  0  0  0
    7.3916   -4.6840    0.0000 C   0  0  0  0  0  0  0  0  0  0  0  0
    8.3916   -1.6063    0.0000 C   0  0  0  0  0  0  0  0  0  0  0  0
    6.1316   -2.8664    0.0000 C   0  0  0  0  0  0  0  0  0  0  0  0
    6.8038   -0.7973    0.0000 C   0  0  0  0  0  0  0  0  0  0  0  0
    7.2106    0.1163    0.0000 C   0  0  2  0  0  0  0  0  0  0  0  0
    6.6228    0.9253    0.0000 C   0  0  2  0  0  0  0  0  0  0  0  0
    4.4374   -2.5063    0.0000 C   0  0  0  0  0  0  0  0  0  0  0  0
    5.6283    0.8207    0.0000 C   0  0  0  0  0  0  0  0  0  0  0  0
    3.6942   -1.8371    0.0000 C   0  0  0  0  0  0  0  0  0  0  0  0
    5.0405    1.6298    0.0000 C   0  0  0  0  0  0  0  0  0  0  0  0
    8.0241    1.9434    0.0000 C   0  0  0  0  0  0  0  0  0  0  0  0
    3.9021   -0.8590    0.0000 C   0  0  0  0  0  0  0  0  0  0  0  0
    2.7431   -2.1462    0.0000 C   0  0  0  0  0  0  0  0  0  0  0  0
    4.0460    1.5252    0.0000 C   0  0  0  0  0  0  0  0  0  0  0  0
    5.4472    2.5433    0.0000 C   0  0  0  0  0  0  0  0  0  0  0  0
    8.4308    2.8569    0.0000 C   0  0  0  0  0  0  0  0  0  0  0  0
    3.1590   -0.1899    0.0000 C   0  0  0  0  0  0  0  0  0  0  0  0
    4.8532   -0.5500    0.0000 C   0  0  0  0  0  0  0  0  0  0  0  0
    2.0000   -1.4770    0.0000 C   0  0  0  0  0  0  0  0  0  0  0  0
    2.2079   -0.4989    0.0000 C   0  0  0  0  0  0  0  0  0  0  0  0
    3.4582    2.3342    0.0000 C   0  0  0  0  0  0  0  0  0  0  0  0
    4.8594    3.3523    0.0000 C   0  0  0  0  0  0  0  0  0  0  0  0
    9.4253    2.9614    0.0000 C   0  0  0  0  0  0  0  0  0  0  0  0
    3.8649    3.2478    0.0000 C   0  0  0  0  0  0  0  0  0  0  0  0
    7.8430    3.6659    0.0000 C   0  0  0  0  0  0  0  0  0  0  0  0
    9.8320    3.8750    0.0000 C   0  0  0  0  0  0  0  0  0  0  0  0
   10.0131    2.1524    0.0000 C   0  0  0  0  0  0  0  0  0  0  0  0
    8.2497    4.5795    0.0000 C   0  0  0  0  0  0  0  0  0  0  0  0
    9.2443    4.6840    0.0000 C   0  0  0  0  0  0  0  0  0  0  0  0
    6.6442   -2.1190    0.0000 H   0  0  0  0  0  0  0  0  0  0  0  0
    9.2670   -3.9851    0.0000 H   0  0  0  0  0  0  0  0  0  0  0  0
    9.0106   -3.1960    0.0000 H   0  0  0  0  0  0  0  0  0  0  0  0
    6.7726   -3.1960    0.0000 H   0  0  0  0  0  0  0  0  0  0  0  0
    6.5162   -3.9851    0.0000 H   0  0  0  0  0  0  0  0  0  0  0  0
    8.3268   -5.3006    0.0000 H   0  0  0  0  0  0  0  0  0  0  0  0
    8.9981   -4.8129    0.0000 H   0  0  0  0  0  0  0  0  0  0  0  0
    6.7852   -4.8129    0.0000 H   0  0  0  0  0  0  0  0  0  0  0  0
    7.4564   -5.3006    0.0000 H   0  0  0  0  0  0  0  0  0  0  0  0
    8.9981   -1.4774    0.0000 H   0  0  0  0  0  0  0  0  0  0  0  0
    8.3268   -0.9897    0.0000 H   0  0  0  0  0  0  0  0  0  0  0  0
    7.4628    0.6827    0.0000 H   0  0  0  0  0  0  0  0  0  0  0  0
    5.5173   -1.5908    0.0000 H   0  0  0  0  0  0  0  0  0  0  0  0
    6.2584    1.4269    0.0000 H   0  0  0  0  0  0  0  0  0  0  0  0
    3.9488   -2.8880    0.0000 H   0  0  0  0  0  0  0  0  0  0  0  0
    4.7284   -3.0537    0.0000 H   0  0  0  0  0  0  0  0  0  0  0  0
    5.0710    0.5490    0.0000 H   0  0  0  0  0  0  0  0  0  0  0  0
    5.7992    0.2248    0.0000 H   0  0  0  0  0  0  0  0  0  0  0  0
    8.5695   -0.2808    0.0000 H   0  0  0  0  0  0  0  0  0  0  0  0
    6.6651    2.3404    0.0000 H   0  0  0  0  0  0  0  0  0  0  0  0
    2.6142   -2.7526    0.0000 H   0  0  0  0  0  0  0  0  0  0  0  0
    3.7938    0.9588    0.0000 H   0  0  0  0  0  0  0  0  0  0  0  0
    6.0638    2.6081    0.0000 H   0  0  0  0  0  0  0  0  0  0  0  0
    3.2879    0.4166    0.0000 H   0  0  0  0  0  0  0  0  0  0  0  0
    5.0448   -1.1396    0.0000 H   0  0  0  0  0  0  0  0  0  0  0  0
    5.4428   -0.3584    0.0000 H   0  0  0  0  0  0  0  0  0  0  0  0
    4.6616    0.0397    0.0000 H   0  0  0  0  0  0  0  0  0  0  0  0
    1.4103   -1.6686    0.0000 H   0  0  0  0  0  0  0  0  0  0  0  0
    2.8416    2.2694    0.0000 H   0  0  0  0  0  0  0  0  0  0  0  0
    5.1116    3.9187    0.0000 H   0  0  0  0  0  0  0  0  0  0  0  0
    1.7472   -0.0840    0.0000 H   0  0  0  0  0  0  0  0  0  0  0  0
    3.5005    3.7494    0.0000 H   0  0  0  0  0  0  0  0  0  0  0  0
    7.2264    3.6011    0.0000 H   0  0  0  0  0  0  0  0  0  0  0  0
    9.5115    1.7880    0.0000 H   0  0  0  0  0  0  0  0  0  0  0  0
   10.3775    1.6508    0.0000 H   0  0  0  0  0  0  0  0  0  0  0  0
   10.5147    2.5168    0.0000 H   0  0  0  0  0  0  0  0  0  0  0  0
    7.8853    5.0810    0.0000 H   0  0  0  0  0  0  0  0  0  0  0  0
    9.4964    5.2504    0.0000 H   0  0  0  0  0  0  0  0  0  0  0  0
   11.0787    4.5459    0.0000 H   0  0  0  0  0  0  0  0  0  0  0  0
  1 10  1  0  0  0  0
  1 16  1  0  0  0  0
  2 17  2  0  0  0  0
  3 18  2  0  0  0  0
 19  4  1  6  0  0  0
  4 62  1  0  0  0  0
  5 25  2  0  0  0  0
  6 40  1  0  0  0  0
  6 82  1  0  0  0  0
  7 11  1  0  0  0  0
  7 16  1  0  0  0  0
  7 18  1  0  0  0  0
  8 17  1  0  0  0  0
  8 21  1  0  0  0  0
  8 56  1  0  0  0  0
 20  9  1  6  0  0  0
  9 25  1  0  0  0  0
  9 63  1  0  0  0  0
 10 11  1  0  0  0  0
 10 12  1  0  0  0  0
 10 13  1  0  0  0  0
 11 17  1  1  0  0  0
 11 44  1  0  0  0  0
 12 14  1  0  0  0  0
 12 45  1  0  0  0  0
 12 46  1  0  0  0  0
 13 15  1  0  0  0  0
 13 47  1  0  0  0  0
 13 48  1  0  0  0  0
 14 15  1  0  0  0  0
 14 49  1  0  0  0  0
 14 50  1  0  0  0  0
 15 51  1  0  0  0  0
 15 52  1  0  0  0  0
 16 53  1  0  0  0  0
 16 54  1  0  0  0  0
 18 19  1  0  0  0  0
 19 20  1  0  0  0  0
 19 55  1  0  0  0  0
 20 22  1  0  0  0  0
 20 57  1  0  0  0  0
 21 23  1  0  0  0  0
 21 58  1  0  0  0  0
 21 59  1  0  0  0  0
 22 24  1  0  0  0  0
 22 60  1  0  0  0  0
 22 61  1  0  0  0  0
 23 26  1  0  0  0  0
 23 27  2  0  0  0  0
 24 28  2  0  0  0  0
 24 29  1  0  0  0  0
 25 30  1  0  0  0  0
 26 31  2  0  0  0  0
 26 32  1  0  0  0  0
 27 33  1  0  0  0  0
 27 64  1  0  0  0  0
 28 35  1  0  0  0  0
 28 65  1  0  0  0  0
 29 36  2  0  0  0  0
 29 66  1  0  0  0  0
 30 37  2  0  0  0  0
 30 39  1  0  0  0  0
 31 34  1  0  0  0  0
 31 67  1  0  0  0  0
 32 68  1  0  0  0  0
 32 69  1  0  0  0  0
 32 70  1  0  0  0  0
 33 34  2  0  0  0  0
 33 71  1  0  0  0  0
 34 74  1  0  0  0  0
 35 38  2  0  0  0  0
 35 72  1  0  0  0  0
 36 38  1  0  0  0  0
 36 73  1  0  0  0  0
 37 40  1  0  0  0  0
 37 41  1  0  0  0  0
 38 75  1  0  0  0  0
 39 42  2  0  0  0  0
 39 76  1  0  0  0  0
 40 43  2  0  0  0  0
 41 77  1  0  0  0  0
 41 78  1  0  0  0  0
 41 79  1  0  0  0  0
 42 43  1  0  0  0  0
 42 80  1  0  0  0  0
 43 81  1  0  0  0  0
M  END
> <PUBCHEM_COMPOUND_CID>
514632
> <PUBCHEM_COMPOUND_CANONICALIZED>
1
> <PUBCHEM_CACTVS_COMPLEXITY>
968
> <PUBCHEM_CACTVS_HBOND_ACCEPTOR>
6
> <PUBCHEM_CACTVS_HBOND_DONOR>
4
> <PUBCHEM_CACTVS_ROTATABLE_BOND>
9
> <PUBCHEM_CACTVS_SUBSKEYS>
AAADcfB/OABAAAAAAAAAAAAAAAAAAeIAAAAwYMAAAAAAAAABUAAAHgQQCAAADDzh2AayBoPAAgiIAiFSEAKCAABkIBAIiIHODMgKdjqi1TOUcQhk1hGYmYe6yLCOgAABAAAYAAAAAAIAADAAAAAAAAAAAA==
> <PUBCHEM_IUPAC_OPENEYE_NAME>
(4R)-3-[(2S,3S)-2-hydroxy-3-[(3-hydroxy-2-methyl-benzoyl)amino]-4-phenyl-butanoyl]-N-(o-tolylmethyl)-1-thia-3-azaspiro[4.4]nonane-4-carboxamide
> <PUBCHEM_IUPAC_CAS_NAME>
(4R)-3-[(2S,3S)-2-hydroxy-3-[[(3-hydroxy-2-methylphenyl)-oxomethyl]amino]-1-oxo-4-phenylbutyl]-N-[(2-methylphenyl)methyl]-1-thia-3-azaspiro[4.4]nonane-4-carboxamide
> <PUBCHEM_IUPAC_NAME_MARKUP>
(4<I>R</I>)-3-[(2<I>S</I>,3<I>S</I>)-2-hydroxy-3-[(3-hydroxy-2-methylbenzoyl)amino]-4-phenylbutanoyl]-<I>N</I>-[(2-methylphenyl)methyl]-1-thia-3-azaspiro[4.4]nonane-4-carboxamide
> <PUBCHEM_IUPAC_NAME>
(4R)-3-[(2S,3S)-2-hydroxy-3-[(3-hydroxy-2-methylbenzoyl)amino]-4-phenylbutanoyl]-N-[(2-methylphenyl)methyl]-1-thia-3-azaspiro[4.4]nonane-4-carboxamide
> <PUBCHEM_IUPAC_SYSTEMATIC_NAME>
(4R)-3-[(2S,3S)-3-[(2-methyl-3-oxidanyl-phenyl)carbonylamino]-2-oxidanyl-4-phenyl-butanoyl]-N-[(2-methylphenyl)methyl]-1-thia-3-azaspiro[4.4]nonane-4-carboxamide
> <PUBCHEM_IUPAC_TRADITIONAL_NAME>
(4R)-3-[(2S,3S)-2-hydroxy-3-[(3-hydroxy-2-methyl-benzoyl)amino]-4-phenyl-butanoyl]-N-(2-methylbenzyl)-1-thia-3-azaspiro[4.4]nonane-4-carboxamide
> <PUBCHEM_IUPAC_INCHI>
InChI=1S/C34H39N3O5S/c1-22-11-6-7-14-25(22)20-35-32(41)30-34(17-8-9-18-34)43-21-37(30)33(42)29(39)27(19-24-12-4-3-5-13-24)36-31(40)26-15-10-16-28(38)23(26)2/h3-7,10-16,27,29-30,38-39H,8-9,17-21H2,1-2H3,(H,35,41)(H,36,40)/t27-,29-,30+/m0/s1
> <PUBCHEM_IUPAC_INCHIKEY>
YTWYRNUERMTJCJ-LOAGWBBBSA-N
> <PUBCHEM_XLOGP3_AA>
5
> <PUBCHEM_EXACT_MASS>
601.26104253
> <PUBCHEM_MOLECULAR_FORMULA>
C34H39N3O5S
> <PUBCHEM_MOLECULAR_WEIGHT>
601.8
> <PUBCHEM_OPENEYE_CAN_SMILES>
CC1=CC=CC=C1CNC(=O)C2C3(CCCC3)SCN2C(=O)C(C(CC4=CC=CC=C4)NC(=O)C5=C(C(=CC=C5)O)C)O
> <PUBCHEM_OPENEYE_ISO_SMILES>
CC1=CC=CC=C1CNC(=O)[C@@H]2C3(CCCC3)SCN2C(=O)[C@H]([C@H](CC4=CC=CC=C4)NC(=O)C5=C(C(=CC=C5)O)C)O
> <PUBCHEM_CACTVS_TPSA>
144
> <PUBCHEM_MONOISOTOPIC_WEIGHT>
601.26104253
> <PUBCHEM_TOTAL_CHARGE>
0
> <PUBCHEM_HEAVY_ATOM_COUNT>
43
> <PUBCHEM_ATOM_DEF_STEREO_COUNT>
3
> <PUBCHEM_ATOM_UDEF_STEREO_COUNT>
0
> <PUBCHEM_BOND_DEF_STEREO_COUNT>
0
> <PUBCHEM_BOND_UDEF_STEREO_COUNT>
0
> <PUBCHEM_ISOTOPIC_ATOM_COUNT>
0
> <PUBCHEM_COMPONENT_COUNT>
1
> <PUBCHEM_CACTVS_TAUTO_COUNT>
-1
> <PUBCHEM_COORDINATE_TYPE>
1
5
255
> <PUBCHEM_BONDANNOTATIONS>
11  17  5
23  26  8
23  27  8
24  28  8
24  29  8
26  31  8
27  33  8
28  35  8
29  36  8
30  37  8
30  39  8
31  34  8
33  34  8
35  38  8
36  38  8
37  40  8
39  42  8
19  4  6
40  43  8
42  43  8
20  9  6
$$$$
