514644
  -OEChem-10302200282D
 77 80  0     1  0  0  0  0  0999 V2000
    8.0709    3.6806    0.0000 F   0  0  0  0  0  0  0  0  0  0  0  0
    9.1448    3.2024    0.0000 F   0  0  0  0  0  0  0  0  0  0  0  0
    5.4641    2.5000    0.0000 O   0  0  0  0  0  0  0  0  0  0  0  0
    6.3301    0.0000    0.0000 O   0  0  0  0  0  0  0  0  0  0  0  0
    7.5745   -0.5540    0.0000 O   0  0  0  0  0  0  0  0  0  0  0  0
    2.8660    0.0000    0.0000 O   0  0  0  0  0  0  0  0  0  0  0  0
    2.0000   -3.5000    0.0000 O   0  0  0  0  0  0  0  0  0  0  0  0
    7.1962    1.5000    0.0000 N   0  0  0  0  0  0  0  0  0  0  0  0
    9.2687   -0.1939    0.0000 N   0  0  0  0  0  0  0  0  0  0  0  0
    4.5981    0.0000    0.0000 N   0  0  0  0  0  0  0  0  0  0  0  0
    8.1097    1.0933    0.0000 C   0  0  1  0  0  0  0  0  0  0  0  0
    8.7788    1.8364    0.0000 C   0  0  0  0  0  0  0  0  0  0  0  0
    8.2788    2.7024    0.0000 C   0  0  0  0  0  0  0  0  0  0  0  0
    7.3007    2.4945    0.0000 C   0  0  0  0  0  0  0  0  0  0  0  0
    6.3301    1.0000    0.0000 C   0  0  0  0  0  0  0  0  0  0  0  0
    5.4641    1.5000    0.0000 C   0  0  2  0  0  0  0  0  0  0  0  0
    8.3176    0.1151    0.0000 C   0  0  0  0  0  0  0  0  0  0  0  0
    4.5981    1.0000    0.0000 C   0  0  2  0  0  0  0  0  0  0  0  0
    3.7320    1.5000    0.0000 C   0  0  0  0  0  0  0  0  0  0  0  0
    9.4766   -1.1720    0.0000 C   0  0  0  0  0  0  0  0  0  0  0  0
    3.7320    2.5000    0.0000 C   0  0  0  0  0  0  0  0  0  0  0  0
    3.7320   -0.5000    0.0000 C   0  0  0  0  0  0  0  0  0  0  0  0
   10.4276   -1.4811    0.0000 C   0  0  0  0  0  0  0  0  0  0  0  0
    2.8660    3.0000    0.0000 C   0  0  0  0  0  0  0  0  0  0  0  0
    4.5981    3.0000    0.0000 C   0  0  0  0  0  0  0  0  0  0  0  0
    3.7320   -1.5000    0.0000 C   0  0  0  0  0  0  0  0  0  0  0  0
   10.6355   -2.4592    0.0000 C   0  0  0  0  0  0  0  0  0  0  0  0
   11.1708   -0.8119    0.0000 C   0  0  0  0  0  0  0  0  0  0  0  0
    2.8660   -2.0000    0.0000 C   0  0  0  0  0  0  0  0  0  0  0  0
    2.8660    4.0000    0.0000 C   0  0  0  0  0  0  0  0  0  0  0  0
    4.5981    4.0000    0.0000 C   0  0  0  0  0  0  0  0  0  0  0  0
    4.5981   -2.0000    0.0000 C   0  0  0  0  0  0  0  0  0  0  0  0
    3.7320    4.5000    0.0000 C   0  0  0  0  0  0  0  0  0  0  0  0
   11.5866   -2.7682    0.0000 C   0  0  0  0  0  0  0  0  0  0  0  0
    2.8660   -3.0000    0.0000 C   0  0  0  0  0  0  0  0  0  0  0  0
    9.8924   -3.1283    0.0000 C   0  0  0  0  0  0  0  0  0  0  0  0
   12.1218   -1.1209    0.0000 C   0  0  0  0  0  0  0  0  0  0  0  0
    3.7320   -3.5000    0.0000 C   0  0  0  0  0  0  0  0  0  0  0  0
    4.5981   -3.0000    0.0000 C   0  0  0  0  0  0  0  0  0  0  0  0
    2.0000   -1.5000    0.0000 C   0  0  0  0  0  0  0  0  0  0  0  0
   12.3297   -2.0991    0.0000 C   0  0  0  0  0  0  0  0  0  0  0  0
    3.7320   -4.5000    0.0000 C   0  0  0  0  0  0  0  0  0  0  0  0
    7.6279    0.7031    0.0000 H   0  0  0  0  0  0  0  0  0  0  0  0
    9.1937    1.3757    0.0000 H   0  0  0  0  0  0  0  0  0  0  0  0
    9.2804    2.2008    0.0000 H   0  0  0  0  0  0  0  0  0  0  0  0
    7.2359    3.1111    0.0000 H   0  0  0  0  0  0  0  0  0  0  0  0
    6.6807    2.4945    0.0000 H   0  0  0  0  0  0  0  0  0  0  0  0
    6.0010    1.8100    0.0000 H   0  0  0  0  0  0  0  0  0  0  0  0
    5.1350    0.6900    0.0000 H   0  0  0  0  0  0  0  0  0  0  0  0
    3.1215    1.6077    0.0000 H   0  0  0  0  0  0  0  0  0  0  0  0
    3.5200    0.9174    0.0000 H   0  0  0  0  0  0  0  0  0  0  0  0
    9.7294    0.2210    0.0000 H   0  0  0  0  0  0  0  0  0  0  0  0
    5.1350   -0.3100    0.0000 H   0  0  0  0  0  0  0  0  0  0  0  0
    6.0010    2.8100    0.0000 H   0  0  0  0  0  0  0  0  0  0  0  0
    8.8570   -1.1937    0.0000 H   0  0  0  0  0  0  0  0  0  0  0  0
    9.3903   -1.7860    0.0000 H   0  0  0  0  0  0  0  0  0  0  0  0
    2.3291    2.6900    0.0000 H   0  0  0  0  0  0  0  0  0  0  0  0
    5.1350    2.6900    0.0000 H   0  0  0  0  0  0  0  0  0  0  0  0
   11.0419   -0.2055    0.0000 H   0  0  0  0  0  0  0  0  0  0  0  0
    2.3291    4.3100    0.0000 H   0  0  0  0  0  0  0  0  0  0  0  0
    5.1350    4.3100    0.0000 H   0  0  0  0  0  0  0  0  0  0  0  0
    5.1350   -1.6900    0.0000 H   0  0  0  0  0  0  0  0  0  0  0  0
    3.7320    5.1200    0.0000 H   0  0  0  0  0  0  0  0  0  0  0  0
   11.7155   -3.3747    0.0000 H   0  0  0  0  0  0  0  0  0  0  0  0
    9.4775   -2.6676    0.0000 H   0  0  0  0  0  0  0  0  0  0  0  0
    9.4316   -3.5432    0.0000 H   0  0  0  0  0  0  0  0  0  0  0  0
   10.3073   -3.5891    0.0000 H   0  0  0  0  0  0  0  0  0  0  0  0
   12.5826   -0.7061    0.0000 H   0  0  0  0  0  0  0  0  0  0  0  0
    5.1350   -3.3100    0.0000 H   0  0  0  0  0  0  0  0  0  0  0  0
    2.3100   -0.9631    0.0000 H   0  0  0  0  0  0  0  0  0  0  0  0
    1.4631   -1.1900    0.0000 H   0  0  0  0  0  0  0  0  0  0  0  0
    1.6900   -2.0369    0.0000 H   0  0  0  0  0  0  0  0  0  0  0  0
   12.9194   -2.2907    0.0000 H   0  0  0  0  0  0  0  0  0  0  0  0
    3.1120   -4.5000    0.0000 H   0  0  0  0  0  0  0  0  0  0  0  0
    3.7320   -5.1200    0.0000 H   0  0  0  0  0  0  0  0  0  0  0  0
    4.3520   -4.5000    0.0000 H   0  0  0  0  0  0  0  0  0  0  0  0
    2.0000   -4.1200    0.0000 H   0  0  0  0  0  0  0  0  0  0  0  0
  1 13  1  0  0  0  0
  2 13  1  0  0  0  0
 16  3  1  6  0  0  0
  3 54  1  0  0  0  0
  4 15  2  0  0  0  0
  5 17  2  0  0  0  0
  6 22  2  0  0  0  0
  7 35  1  0  0  0  0
  7 77  1  0  0  0  0
  8 11  1  0  0  0  0
  8 14  1  0  0  0  0
  8 15  1  0  0  0  0
  9 17  1  0  0  0  0
  9 20  1  0  0  0  0
  9 52  1  0  0  0  0
 18 10  1  1  0  0  0
 10 22  1  0  0  0  0
 10 53  1  0  0  0  0
 11 12  1  0  0  0  0
 11 17  1  1  0  0  0
 11 43  1  0  0  0  0
 12 13  1  0  0  0  0
 12 44  1  0  0  0  0
 12 45  1  0  0  0  0
 13 14  1  0  0  0  0
 14 46  1  0  0  0  0
 14 47  1  0  0  0  0
 15 16  1  0  0  0  0
 16 18  1  0  0  0  0
 16 48  1  0  0  0  0
 18 19  1  0  0  0  0
 18 49  1  0  0  0  0
 19 21  1  0  0  0  0
 19 50  1  0  0  0  0
 19 51  1  0  0  0  0
 20 23  1  0  0  0  0
 20 55  1  0  0  0  0
 20 56  1  0  0  0  0
 21 24  2  0  0  0  0
 21 25  1  0  0  0  0
 22 26  1  0  0  0  0
 23 27  1  0  0  0  0
 23 28  2  0  0  0  0
 24 30  1  0  0  0  0
 24 57  1  0  0  0  0
 25 31  2  0  0  0  0
 25 58  1  0  0  0  0
 26 29  2  0  0  0  0
 26 32  1  0  0  0  0
 27 34  2  0  0  0  0
 27 36  1  0  0  0  0
 28 37  1  0  0  0  0
 28 59  1  0  0  0  0
 29 35  1  0  0  0  0
 29 40  1  0  0  0  0
 30 33  2  0  0  0  0
 30 60  1  0  0  0  0
 31 33  1  0  0  0  0
 31 61  1  0  0  0  0
 32 39  2  0  0  0  0
 32 62  1  0  0  0  0
 33 63  1  0  0  0  0
 34 41  1  0  0  0  0
 34 64  1  0  0  0  0
 35 38  2  0  0  0  0
 36 65  1  0  0  0  0
 36 66  1  0  0  0  0
 36 67  1  0  0  0  0
 37 41  2  0  0  0  0
 37 68  1  0  0  0  0
 38 39  1  0  0  0  0
 38 42  1  0  0  0  0
 39 69  1  0  0  0  0
 40 70  1  0  0  0  0
 40 71  1  0  0  0  0
 40 72  1  0  0  0  0
 41 73  1  0  0  0  0
 42 74  1  0  0  0  0
 42 75  1  0  0  0  0
 42 76  1  0  0  0  0
M  END
> <PUBCHEM_COMPOUND_CID>
514644
> <PUBCHEM_COMPOUND_CANONICALIZED>
1
> <PUBCHEM_CACTVS_COMPLEXITY>
945
> <PUBCHEM_CACTVS_HBOND_ACCEPTOR>
7
> <PUBCHEM_CACTVS_HBOND_DONOR>
4
> <PUBCHEM_CACTVS_ROTATABLE_BOND>
9
> <PUBCHEM_CACTVS_SUBSKEYS>
AAADcfB/OYAAAAAAAAAAAAAAAAAAAWAAAAAwYMAAAAAAAAABUAAAHwAQCAAADDzhmBYyBoPAAgCIAiFSEAKCAAAkIAAIiIHMDMgKdjqC1TOUcQhk1hGYmYe6yfCOwAADAAAYAACAAAYAADAAAAAAAAAAAA==
> <PUBCHEM_IUPAC_OPENEYE_NAME>
(2S)-4,4-difluoro-1-[(2S,3S)-2-hydroxy-3-[(3-hydroxy-2,4-dimethyl-benzoyl)amino]-4-phenyl-butanoyl]-N-(o-tolylmethyl)pyrrolidine-2-carboxamide
> <PUBCHEM_IUPAC_CAS_NAME>
(2S)-4,4-difluoro-1-[(2S,3S)-2-hydroxy-3-[[(3-hydroxy-2,4-dimethylphenyl)-oxomethyl]amino]-1-oxo-4-phenylbutyl]-N-[(2-methylphenyl)methyl]-2-pyrrolidinecarboxamide
> <PUBCHEM_IUPAC_NAME_MARKUP>
(2<I>S</I>)-4,4-difluoro-1-[(2<I>S</I>,3<I>S</I>)-2-hydroxy-3-[(3-hydroxy-2,4-dimethylbenzoyl)amino]-4-phenylbutanoyl]-<I>N</I>-[(2-methylphenyl)methyl]pyrrolidine-2-carboxamide
> <PUBCHEM_IUPAC_NAME>
(2S)-4,4-difluoro-1-[(2S,3S)-2-hydroxy-3-[(3-hydroxy-2,4-dimethylbenzoyl)amino]-4-phenylbutanoyl]-N-[(2-methylphenyl)methyl]pyrrolidine-2-carboxamide
> <PUBCHEM_IUPAC_SYSTEMATIC_NAME>
(2S)-1-[(2S,3S)-3-[(2,4-dimethyl-3-oxidanyl-phenyl)carbonylamino]-2-oxidanyl-4-phenyl-butanoyl]-4,4-bis(fluoranyl)-N-[(2-methylphenyl)methyl]pyrrolidine-2-carboxamide
> <PUBCHEM_IUPAC_TRADITIONAL_NAME>
(2S)-4,4-difluoro-1-[(2S,3S)-2-hydroxy-3-[(3-hydroxy-2,4-dimethyl-benzoyl)amino]-4-phenyl-butanoyl]-N-(2-methylbenzyl)pyrrolidine-2-carboxamide
> <PUBCHEM_IUPAC_INCHI>
InChI=1S/C32H35F2N3O5/c1-19-9-7-8-12-23(19)17-35-30(41)26-16-32(33,34)18-37(26)31(42)28(39)25(15-22-10-5-4-6-11-22)36-29(40)24-14-13-20(2)27(38)21(24)3/h4-14,25-26,28,38-39H,15-18H2,1-3H3,(H,35,41)(H,36,40)/t25-,26-,28-/m0/s1
> <PUBCHEM_IUPAC_INCHIKEY>
XJGQRDFBQQZBRQ-NSVAZKTRSA-N
> <PUBCHEM_XLOGP3_AA>
4.5
> <PUBCHEM_EXACT_MASS>
579.25447755
> <PUBCHEM_MOLECULAR_FORMULA>
C32H35F2N3O5
> <PUBCHEM_MOLECULAR_WEIGHT>
579.6
> <PUBCHEM_OPENEYE_CAN_SMILES>
CC1=C(C(=C(C=C1)C(=O)NC(CC2=CC=CC=C2)C(C(=O)N3CC(CC3C(=O)NCC4=CC=CC=C4C)(F)F)O)C)O
> <PUBCHEM_OPENEYE_ISO_SMILES>
CC1=C(C(=C(C=C1)C(=O)N[C@@H](CC2=CC=CC=C2)[C@@H](C(=O)N3CC(C[C@H]3C(=O)NCC4=CC=CC=C4C)(F)F)O)C)O
> <PUBCHEM_CACTVS_TPSA>
119
> <PUBCHEM_MONOISOTOPIC_WEIGHT>
579.25447755
> <PUBCHEM_TOTAL_CHARGE>
0
> <PUBCHEM_HEAVY_ATOM_COUNT>
42
> <PUBCHEM_ATOM_DEF_STEREO_COUNT>
3
> <PUBCHEM_ATOM_UDEF_STEREO_COUNT>
0
> <PUBCHEM_BOND_DEF_STEREO_COUNT>
0
> <PUBCHEM_BOND_UDEF_STEREO_COUNT>
0
> <PUBCHEM_ISOTOPIC_ATOM_COUNT>
0
> <PUBCHEM_COMPONENT_COUNT>
1
> <PUBCHEM_CACTVS_TAUTO_COUNT>
-1
> <PUBCHEM_COORDINATE_TYPE>
1
5
255
> <PUBCHEM_BONDANNOTATIONS>
18  10  5
11  17  5
21  24  8
21  25  8
23  27  8
23  28  8
24  30  8
25  31  8
26  29  8
26  32  8
27  34  8
28  37  8
29  35  8
16  3  6
30  33  8
31  33  8
32  39  8
34  41  8
35  38  8
37  41  8
38  39  8
$$$$
