514671
  -OEChem-10302200282D
 86 89  0     1  0  0  0  0  0999 V2000
   14.0429   -0.3573    0.0000 S   0  0  0  0  0  0  0  0  0  0  0  0
   12.4603    1.9791    0.0000 O   0  0  0  0  0  0  0  0  0  0  0  0
   10.7282   -0.0209    0.0000 O   0  0  0  0  0  0  0  0  0  0  0  0
   10.8706   -1.3755    0.0000 O   0  0  0  0  0  0  0  0  0  0  0  0
    8.9962    2.9791    0.0000 O   0  0  0  0  0  0  0  0  0  0  0  0
    6.3981    0.4791    0.0000 O   0  0  0  0  0  0  0  0  0  0  0  0
   12.4603   -0.0209    0.0000 N   0  0  0  0  0  0  0  0  0  0  0  0
    9.8622    1.4791    0.0000 N   0  0  0  0  0  0  0  0  0  0  0  0
   12.0296   -2.6627    0.0000 N   0  0  0  0  0  0  0  0  0  0  0  0
    7.2641    1.9791    0.0000 N   0  0  0  0  0  0  0  0  0  0  0  0
    4.6660    1.4791    0.0000 N   0  0  0  0  0  0  0  0  0  0  0  0
   13.5429   -1.2233    0.0000 C   0  0  0  0  0  0  0  0  0  0  0  0
   12.5648   -1.0154    0.0000 C   0  0  1  0  0  0  0  0  0  0  0  0
   13.3738    0.3858    0.0000 C   0  0  0  0  0  0  0  0  0  0  0  0
   14.4090   -1.7233    0.0000 C   0  0  0  0  0  0  0  0  0  0  0  0
   13.3350   -2.2015    0.0000 C   0  0  0  0  0  0  0  0  0  0  0  0
   11.5942    0.4791    0.0000 C   0  0  0  0  0  0  0  0  0  0  0  0
   11.5942    1.4791    0.0000 C   0  0  2  0  0  0  0  0  0  0  0  0
   11.8216   -1.6846    0.0000 C   0  0  0  0  0  0  0  0  0  0  0  0
   10.7282    1.9791    0.0000 C   0  0  2  0  0  0  0  0  0  0  0  0
   10.7282    2.9791    0.0000 C   0  0  0  0  0  0  0  0  0  0  0  0
    8.1301    1.4791    0.0000 C   0  0  2  0  0  0  0  0  0  0  0  0
    8.9962    1.9791    0.0000 C   0  0  0  0  0  0  0  0  0  0  0  0
   11.5942    3.4791    0.0000 C   0  0  0  0  0  0  0  0  0  0  0  0
    8.1301    0.4791    0.0000 C   0  0  0  0  0  0  0  0  0  0  0  0
   11.2864   -3.3318    0.0000 C   0  0  0  0  0  0  0  0  0  0  0  0
    8.9962   -0.0209    0.0000 C   0  0  0  0  0  0  0  0  0  0  0  0
    7.2641   -0.0209    0.0000 C   0  0  0  0  0  0  0  0  0  0  0  0
   12.4603    2.9791    0.0000 C   0  0  0  0  0  0  0  0  0  0  0  0
   11.5942    4.4791    0.0000 C   0  0  0  0  0  0  0  0  0  0  0  0
   11.4943   -4.3100    0.0000 C   0  0  0  0  0  0  0  0  0  0  0  0
   13.3263    3.4791    0.0000 C   0  0  0  0  0  0  0  0  0  0  0  0
   12.4603    4.9791    0.0000 C   0  0  0  0  0  0  0  0  0  0  0  0
    6.3981    1.4791    0.0000 C   0  0  0  0  0  0  0  0  0  0  0  0
   13.3263    4.4791    0.0000 C   0  0  0  0  0  0  0  0  0  0  0  0
    5.5321    1.9791    0.0000 C   0  0  0  0  0  0  0  0  0  0  0  0
   10.7512   -4.9791    0.0000 C   0  0  0  0  0  0  0  0  0  0  0  0
    5.5321    2.9791    0.0000 C   0  0  0  0  0  0  0  0  0  0  0  0
    3.8000    1.9791    0.0000 C   0  0  0  0  0  0  0  0  0  0  0  0
    4.6660    3.4791    0.0000 C   0  0  0  0  0  0  0  0  0  0  0  0
    3.8000    2.9791    0.0000 C   0  0  0  0  0  0  0  0  0  0  0  0
    2.9061    1.4444    0.0000 C   0  0  0  0  0  0  0  0  0  0  0  0
    2.9061    3.5138    0.0000 C   0  0  0  0  0  0  0  0  0  0  0  0
    2.0000    1.9583    0.0000 C   0  0  0  0  0  0  0  0  0  0  0  0
    2.0000    2.9999    0.0000 C   0  0  0  0  0  0  0  0  0  0  0  0
   11.9860   -0.7932    0.0000 H   0  0  0  0  0  0  0  0  0  0  0  0
   13.8754    0.7503    0.0000 H   0  0  0  0  0  0  0  0  0  0  0  0
   13.0638    0.9228    0.0000 H   0  0  0  0  0  0  0  0  0  0  0  0
   14.0990   -2.2603    0.0000 H   0  0  0  0  0  0  0  0  0  0  0  0
   14.9459   -2.0333    0.0000 H   0  0  0  0  0  0  0  0  0  0  0  0
   14.7190   -1.1864    0.0000 H   0  0  0  0  0  0  0  0  0  0  0  0
   12.7286   -2.0726    0.0000 H   0  0  0  0  0  0  0  0  0  0  0  0
   13.2061   -2.8079    0.0000 H   0  0  0  0  0  0  0  0  0  0  0  0
   13.9415   -2.3304    0.0000 H   0  0  0  0  0  0  0  0  0  0  0  0
   11.5942    2.0991    0.0000 H   0  0  0  0  0  0  0  0  0  0  0  0
   10.7282    1.3591    0.0000 H   0  0  0  0  0  0  0  0  0  0  0  0
   10.5162    3.5617    0.0000 H   0  0  0  0  0  0  0  0  0  0  0  0
   10.1176    2.8714    0.0000 H   0  0  0  0  0  0  0  0  0  0  0  0
    9.8622    0.8591    0.0000 H   0  0  0  0  0  0  0  0  0  0  0  0
   12.6192   -2.8543    0.0000 H   0  0  0  0  0  0  0  0  0  0  0  0
    8.1301    2.0991    0.0000 H   0  0  0  0  0  0  0  0  0  0  0  0
   12.9972    1.6691    0.0000 H   0  0  0  0  0  0  0  0  0  0  0  0
    7.5932    0.7891    0.0000 H   0  0  0  0  0  0  0  0  0  0  0  0
   10.9579   -2.8060    0.0000 H   0  0  0  0  0  0  0  0  0  0  0  0
   10.7116   -3.5641    0.0000 H   0  0  0  0  0  0  0  0  0  0  0  0
    7.2641    2.5991    0.0000 H   0  0  0  0  0  0  0  0  0  0  0  0
    8.6862   -0.5578    0.0000 H   0  0  0  0  0  0  0  0  0  0  0  0
    9.5331   -0.3309    0.0000 H   0  0  0  0  0  0  0  0  0  0  0  0
    9.3062    0.5160    0.0000 H   0  0  0  0  0  0  0  0  0  0  0  0
    6.9541    0.5160    0.0000 H   0  0  0  0  0  0  0  0  0  0  0  0
    6.7272   -0.3309    0.0000 H   0  0  0  0  0  0  0  0  0  0  0  0
    7.5741   -0.5578    0.0000 H   0  0  0  0  0  0  0  0  0  0  0  0
   12.4603    2.3591    0.0000 H   0  0  0  0  0  0  0  0  0  0  0  0
   11.0573    4.7891    0.0000 H   0  0  0  0  0  0  0  0  0  0  0  0
   12.0840   -4.5016    0.0000 H   0  0  0  0  0  0  0  0  0  0  0  0
   13.8632    3.1691    0.0000 H   0  0  0  0  0  0  0  0  0  0  0  0
   12.4603    5.5991    0.0000 H   0  0  0  0  0  0  0  0  0  0  0  0
   13.8632    4.7891    0.0000 H   0  0  0  0  0  0  0  0  0  0  0  0
   10.1615   -4.7875    0.0000 H   0  0  0  0  0  0  0  0  0  0  0  0
   10.8801   -5.5856    0.0000 H   0  0  0  0  0  0  0  0  0  0  0  0
    6.0690    3.2891    0.0000 H   0  0  0  0  0  0  0  0  0  0  0  0
    4.6660    4.0991    0.0000 H   0  0  0  0  0  0  0  0  0  0  0  0
    2.9132    0.8245    0.0000 H   0  0  0  0  0  0  0  0  0  0  0  0
    2.9132    4.1337    0.0000 H   0  0  0  0  0  0  0  0  0  0  0  0
    1.4643    1.6462    0.0000 H   0  0  0  0  0  0  0  0  0  0  0  0
    1.4643    3.3120    0.0000 H   0  0  0  0  0  0  0  0  0  0  0  0
  1 12  1  0  0  0  0
  1 14  1  0  0  0  0
 18  2  1  6  0  0  0
  2 62  1  0  0  0  0
  3 17  2  0  0  0  0
  4 19  2  0  0  0  0
  5 23  2  0  0  0  0
  6 34  2  0  0  0  0
  7 13  1  0  0  0  0
  7 14  1  0  0  0  0
  7 17  1  0  0  0  0
 20  8  1  1  0  0  0
  8 23  1  0  0  0  0
  8 59  1  0  0  0  0
  9 19  1  0  0  0  0
  9 26  1  0  0  0  0
  9 60  1  0  0  0  0
 22 10  1  6  0  0  0
 10 34  1  0  0  0  0
 10 66  1  0  0  0  0
 11 36  2  0  0  0  0
 11 39  1  0  0  0  0
 12 13  1  0  0  0  0
 12 15  1  0  0  0  0
 12 16  1  0  0  0  0
 13 19  1  1  0  0  0
 13 46  1  0  0  0  0
 14 47  1  0  0  0  0
 14 48  1  0  0  0  0
 15 49  1  0  0  0  0
 15 50  1  0  0  0  0
 15 51  1  0  0  0  0
 16 52  1  0  0  0  0
 16 53  1  0  0  0  0
 16 54  1  0  0  0  0
 17 18  1  0  0  0  0
 18 20  1  0  0  0  0
 18 55  1  0  0  0  0
 20 21  1  0  0  0  0
 20 56  1  0  0  0  0
 21 24  1  0  0  0  0
 21 57  1  0  0  0  0
 21 58  1  0  0  0  0
 22 23  1  0  0  0  0
 22 25  1  0  0  0  0
 22 61  1  0  0  0  0
 24 29  2  0  0  0  0
 24 30  1  0  0  0  0
 25 27  1  0  0  0  0
 25 28  1  0  0  0  0
 25 63  1  0  0  0  0
 26 31  1  0  0  0  0
 26 64  1  0  0  0  0
 26 65  1  0  0  0  0
 27 67  1  0  0  0  0
 27 68  1  0  0  0  0
 27 69  1  0  0  0  0
 28 70  1  0  0  0  0
 28 71  1  0  0  0  0
 28 72  1  0  0  0  0
 29 32  1  0  0  0  0
 29 73  1  0  0  0  0
 30 33  2  0  0  0  0
 30 74  1  0  0  0  0
 31 37  2  0  0  0  0
 31 75  1  0  0  0  0
 32 35  2  0  0  0  0
 32 76  1  0  0  0  0
 33 35  1  0  0  0  0
 33 77  1  0  0  0  0
 34 36  1  0  0  0  0
 35 78  1  0  0  0  0
 36 38  1  0  0  0  0
 37 79  1  0  0  0  0
 37 80  1  0  0  0  0
 38 40  2  0  0  0  0
 38 81  1  0  0  0  0
 39 41  1  0  0  0  0
 39 42  2  0  0  0  0
 40 41  1  0  0  0  0
 40 82  1  0  0  0  0
 41 43  2  0  0  0  0
 42 44  1  0  0  0  0
 42 83  1  0  0  0  0
 43 45  1  0  0  0  0
 43 84  1  0  0  0  0
 44 45  2  0  0  0  0
 44 85  1  0  0  0  0
 45 86  1  0  0  0  0
M  END
> <PUBCHEM_COMPOUND_CID>
514671
> <PUBCHEM_COMPOUND_CANONICALIZED>
1
> <PUBCHEM_CACTVS_COMPLEXITY>
1060
> <PUBCHEM_CACTVS_HBOND_ACCEPTOR>
7
> <PUBCHEM_CACTVS_HBOND_DONOR>
4
> <PUBCHEM_CACTVS_ROTATABLE_BOND>
12
> <PUBCHEM_CACTVS_SUBSKEYS>
AAADcfB/uABAAAAAAAAAAAAAAAAAAWAAAAA8YIAAAAAAAACx9AAAHgQQCAAADTzh3gaywPPIEgioAyVyVAKCgCBnAjAImKH4ZNgKcPrg1bGUYQhklgDYyYeYyKCOAAAAAAACAAAAAAAAAAQAAAAAAAAAAA==
> <PUBCHEM_IUPAC_OPENEYE_NAME>
(4R)-N-allyl-3-[(2S,3S)-2-hydroxy-3-[[(2S)-3-methyl-2-(quinoline-2-carbonylamino)butanoyl]amino]-4-phenyl-butanoyl]-5,5-dimethyl-thiazolidine-4-carboxamide
> <PUBCHEM_IUPAC_CAS_NAME>
(4R)-3-[(2S,3S)-2-hydroxy-3-[[(2S)-3-methyl-1-oxo-2-[[oxo(2-quinolinyl)methyl]amino]butyl]amino]-1-oxo-4-phenylbutyl]-5,5-dimethyl-N-prop-2-enyl-4-thiazolidinecarboxamide
> <PUBCHEM_IUPAC_NAME_MARKUP>
(4<I>R</I>)-3-[(2<I>S</I>,3<I>S</I>)-2-hydroxy-3-[[(2<I>S</I>)-3-methyl-2-(quinoline-2-carbonylamino)butanoyl]amino]-4-phenylbutanoyl]-5,5-dimethyl-<I>N</I>-prop-2-enyl-1,3-thiazolidine-4-carboxamide
> <PUBCHEM_IUPAC_NAME>
(4R)-3-[(2S,3S)-2-hydroxy-3-[[(2S)-3-methyl-2-(quinoline-2-carbonylamino)butanoyl]amino]-4-phenylbutanoyl]-5,5-dimethyl-N-prop-2-enyl-1,3-thiazolidine-4-carboxamide
> <PUBCHEM_IUPAC_SYSTEMATIC_NAME>
(4R)-5,5-dimethyl-3-[(2S,3S)-3-[[(2S)-3-methyl-2-(quinolin-2-ylcarbonylamino)butanoyl]amino]-2-oxidanyl-4-phenyl-butanoyl]-N-prop-2-enyl-1,3-thiazolidine-4-carboxamide
> <PUBCHEM_IUPAC_TRADITIONAL_NAME>
(4R)-N-allyl-3-[(2S,3S)-2-hydroxy-3-[[(2S)-3-methyl-2-(quinaldoylamino)butanoyl]amino]-4-phenyl-butanoyl]-5,5-dimethyl-thiazolidine-4-carboxamide
> <PUBCHEM_IUPAC_INCHI>
InChI=1S/C34H41N5O5S/c1-6-18-35-32(43)29-34(4,5)45-20-39(29)33(44)28(40)26(19-22-12-8-7-9-13-22)37-31(42)27(21(2)3)38-30(41)25-17-16-23-14-10-11-15-24(23)36-25/h6-17,21,26-29,40H,1,18-20H2,2-5H3,(H,35,43)(H,37,42)(H,38,41)/t26-,27-,28-,29+/m0/s1
> <PUBCHEM_IUPAC_INCHIKEY>
GSHVZUJHDFXQQG-XFTNXAEASA-N
> <PUBCHEM_XLOGP3_AA>
4.6
> <PUBCHEM_EXACT_MASS>
631.28284060
> <PUBCHEM_MOLECULAR_FORMULA>
C34H41N5O5S
> <PUBCHEM_MOLECULAR_WEIGHT>
631.8
> <PUBCHEM_OPENEYE_CAN_SMILES>
CC(C)C(C(=O)NC(CC1=CC=CC=C1)C(C(=O)N2CSC(C2C(=O)NCC=C)(C)C)O)NC(=O)C3=NC4=CC=CC=C4C=C3
> <PUBCHEM_OPENEYE_ISO_SMILES>
CC(C)[C@@H](C(=O)N[C@@H](CC1=CC=CC=C1)[C@@H](C(=O)N2CSC([C@H]2C(=O)NCC=C)(C)C)O)NC(=O)C3=NC4=CC=CC=C4C=C3
> <PUBCHEM_CACTVS_TPSA>
166
> <PUBCHEM_MONOISOTOPIC_WEIGHT>
631.28284060
> <PUBCHEM_TOTAL_CHARGE>
0
> <PUBCHEM_HEAVY_ATOM_COUNT>
45
> <PUBCHEM_ATOM_DEF_STEREO_COUNT>
4
> <PUBCHEM_ATOM_UDEF_STEREO_COUNT>
0
> <PUBCHEM_BOND_DEF_STEREO_COUNT>
0
> <PUBCHEM_BOND_UDEF_STEREO_COUNT>
0
> <PUBCHEM_ISOTOPIC_ATOM_COUNT>
0
> <PUBCHEM_COMPONENT_COUNT>
1
> <PUBCHEM_CACTVS_TAUTO_COUNT>
-1
> <PUBCHEM_COORDINATE_TYPE>
1
5
255
> <PUBCHEM_BONDANNOTATIONS>
22  10  6
11  36  8
11  39  8
13  19  5
18  2  6
24  29  8
24  30  8
29  32  8
30  33  8
32  35  8
33  35  8
36  38  8
38  40  8
39  41  8
39  42  8
40  41  8
41  43  8
42  44  8
43  45  8
44  45  8
20  8  5
$$$$
