514629
  -OEChem-10302200282D
 79 83  0     1  0  0  0  0  0999 V2000
    6.2809    1.5821    0.0000 O   0  0  0  0  0  0  0  0  0  0  0  0
    6.6353   -1.7307    0.0000 O   0  0  0  0  0  0  0  0  0  0  0  0
    9.0582    1.0818    0.0000 O   0  0  0  0  0  0  0  0  0  0  0  0
    7.9314   -1.3121    0.0000 O   0  0  0  0  0  0  0  0  0  0  0  0
    9.9724    1.4869    0.0000 O   0  0  0  0  0  0  0  0  0  0  0  0
   12.8214    3.6967    0.0000 O   0  0  0  0  0  0  0  0  0  0  0  0
    7.2297    0.2714    0.0000 N   0  0  0  0  0  0  0  0  0  0  0  0
    4.9889   -1.1927    0.0000 N   0  0  0  0  0  0  0  0  0  0  0  0
   10.6742   -0.0966    0.0000 N   0  0  0  0  0  0  0  0  0  0  0  0
    6.2781   -0.0359    0.0000 C   0  0  1  0  0  0  0  0  0  0  0  0
    5.6917    0.7741    0.0000 C   0  0  0  0  0  0  0  0  0  0  0  0
    4.6783   -2.1432    0.0000 C   0  0  1  0  0  0  0  0  0  0  0  0
    7.2314    1.2714    0.0000 C   0  0  0  0  0  0  0  0  0  0  0  0
    5.9674   -0.9864    0.0000 C   0  0  0  0  0  0  0  0  0  0  0  0
    4.8837    1.3633    0.0000 C   0  0  0  0  0  0  0  0  0  0  0  0
    4.8817    0.1877    0.0000 C   0  0  0  0  0  0  0  0  0  0  0  0
    5.2619   -2.9479    0.0000 C   0  0  0  0  0  0  0  0  0  0  0  0
    3.7320   -2.4479    0.0000 C   0  0  0  0  0  0  0  0  0  0  0  0
    8.0377   -0.3177    0.0000 C   0  0  0  0  0  0  0  0  0  0  0  0
    4.6783   -3.7526    0.0000 C   0  0  0  0  0  0  0  0  0  0  0  0
    3.7320   -3.4479    0.0000 C   0  0  0  0  0  0  0  0  0  0  0  0
    8.9519    0.0874    0.0000 C   0  0  2  0  0  0  0  0  0  0  0  0
    9.7599   -0.5018    0.0000 C   0  0  2  0  0  0  0  0  0  0  0  0
    2.8660   -1.9479    0.0000 C   0  0  0  0  0  0  0  0  0  0  0  0
    2.8660   -3.9479    0.0000 C   0  0  0  0  0  0  0  0  0  0  0  0
    9.6537   -1.4961    0.0000 C   0  0  0  0  0  0  0  0  0  0  0  0
    2.0000   -2.4479    0.0000 C   0  0  0  0  0  0  0  0  0  0  0  0
    2.0000   -3.4479    0.0000 C   0  0  0  0  0  0  0  0  0  0  0  0
   10.4617   -2.0853    0.0000 C   0  0  0  0  0  0  0  0  0  0  0  0
   10.7804    0.8977    0.0000 C   0  0  0  0  0  0  0  0  0  0  0  0
   10.3554   -3.0796    0.0000 C   0  0  0  0  0  0  0  0  0  0  0  0
   11.3759   -1.6801    0.0000 C   0  0  0  0  0  0  0  0  0  0  0  0
   11.6947    1.3029    0.0000 C   0  0  0  0  0  0  0  0  0  0  0  0
   11.1634   -3.6688    0.0000 C   0  0  0  0  0  0  0  0  0  0  0  0
   12.1839   -2.2693    0.0000 C   0  0  0  0  0  0  0  0  0  0  0  0
   11.8009    2.2972    0.0000 C   0  0  0  0  0  0  0  0  0  0  0  0
   12.0777   -3.2637    0.0000 C   0  0  0  0  0  0  0  0  0  0  0  0
   12.5027    0.7137    0.0000 C   0  0  0  0  0  0  0  0  0  0  0  0
   12.7152    2.7024    0.0000 C   0  0  0  0  0  0  0  0  0  0  0  0
   10.9929    2.8864    0.0000 C   0  0  0  0  0  0  0  0  0  0  0  0
   13.4169    1.1188    0.0000 C   0  0  0  0  0  0  0  0  0  0  0  0
   13.5232    2.1132    0.0000 C   0  0  0  0  0  0  0  0  0  0  0  0
    6.7158   -0.4751    0.0000 H   0  0  0  0  0  0  0  0  0  0  0  0
    5.2908   -2.0470    0.0000 H   0  0  0  0  0  0  0  0  0  0  0  0
    7.8479    1.2056    0.0000 H   0  0  0  0  0  0  0  0  0  0  0  0
    7.3614    1.8777    0.0000 H   0  0  0  0  0  0  0  0  0  0  0  0
    5.2490    1.8642    0.0000 H   0  0  0  0  0  0  0  0  0  0  0  0
    4.3828    1.7286    0.0000 H   0  0  0  0  0  0  0  0  0  0  0  0
    4.5184    0.8623    0.0000 H   0  0  0  0  0  0  0  0  0  0  0  0
    4.5181    0.6899    0.0000 H   0  0  0  0  0  0  0  0  0  0  0  0
    4.3795   -0.1758    0.0000 H   0  0  0  0  0  0  0  0  0  0  0  0
    5.2452   -0.3145    0.0000 H   0  0  0  0  0  0  0  0  0  0  0  0
    5.7227   -3.3626    0.0000 H   0  0  0  0  0  0  0  0  0  0  0  0
    5.7227   -2.5332    0.0000 H   0  0  0  0  0  0  0  0  0  0  0  0
    4.5749   -0.7312    0.0000 H   0  0  0  0  0  0  0  0  0  0  0  0
    4.4272   -4.3195    0.0000 H   0  0  0  0  0  0  0  0  0  0  0  0
    5.2156   -4.0619    0.0000 H   0  0  0  0  0  0  0  0  0  0  0  0
    9.5188    0.3386    0.0000 H   0  0  0  0  0  0  0  0  0  0  0  0
   10.2609   -0.8671    0.0000 H   0  0  0  0  0  0  0  0  0  0  0  0
    2.8660   -1.3279    0.0000 H   0  0  0  0  0  0  0  0  0  0  0  0
    2.8660   -4.5679    0.0000 H   0  0  0  0  0  0  0  0  0  0  0  0
    9.0580   -1.3242    0.0000 H   0  0  0  0  0  0  0  0  0  0  0  0
    9.3809   -2.0529    0.0000 H   0  0  0  0  0  0  0  0  0  0  0  0
   11.1751   -0.4619    0.0000 H   0  0  0  0  0  0  0  0  0  0  0  0
    1.4631   -2.1379    0.0000 H   0  0  0  0  0  0  0  0  0  0  0  0
    1.4631   -3.7579    0.0000 H   0  0  0  0  0  0  0  0  0  0  0  0
    8.5572    1.4470    0.0000 H   0  0  0  0  0  0  0  0  0  0  0  0
    9.7886   -3.3308    0.0000 H   0  0  0  0  0  0  0  0  0  0  0  0
   11.4418   -1.0636    0.0000 H   0  0  0  0  0  0  0  0  0  0  0  0
   11.0976   -4.2853    0.0000 H   0  0  0  0  0  0  0  0  0  0  0  0
   12.7508   -2.0181    0.0000 H   0  0  0  0  0  0  0  0  0  0  0  0
   12.5786   -3.6290    0.0000 H   0  0  0  0  0  0  0  0  0  0  0  0
   12.4368    0.0972    0.0000 H   0  0  0  0  0  0  0  0  0  0  0  0
   11.3582    3.3874    0.0000 H   0  0  0  0  0  0  0  0  0  0  0  0
   10.4920    3.2517    0.0000 H   0  0  0  0  0  0  0  0  0  0  0  0
   10.6276    2.3854    0.0000 H   0  0  0  0  0  0  0  0  0  0  0  0
   13.9179    0.7536    0.0000 H   0  0  0  0  0  0  0  0  0  0  0  0
   14.0900    2.3644    0.0000 H   0  0  0  0  0  0  0  0  0  0  0  0
   13.3883    3.9479    0.0000 H   0  0  0  0  0  0  0  0  0  0  0  0
  1 11  1  0  0  0  0
  1 13  1  0  0  0  0
  2 14  2  0  0  0  0
 22  3  1  1  0  0  0
  3 67  1  0  0  0  0
  4 19  2  0  0  0  0
  5 30  2  0  0  0  0
  6 39  1  0  0  0  0
  6 79  1  0  0  0  0
  7 10  1  0  0  0  0
  7 13  1  0  0  0  0
  7 19  1  0  0  0  0
 12  8  1  1  0  0  0
  8 14  1  0  0  0  0
  8 55  1  0  0  0  0
 23  9  1  1  0  0  0
  9 30  1  0  0  0  0
  9 64  1  0  0  0  0
 10 11  1  0  0  0  0
 10 14  1  6  0  0  0
 10 43  1  0  0  0  0
 11 15  1  0  0  0  0
 11 16  1  0  0  0  0
 12 17  1  0  0  0  0
 12 18  1  0  0  0  0
 12 44  1  0  0  0  0
 13 45  1  0  0  0  0
 13 46  1  0  0  0  0
 15 47  1  0  0  0  0
 15 48  1  0  0  0  0
 15 49  1  0  0  0  0
 16 50  1  0  0  0  0
 16 51  1  0  0  0  0
 16 52  1  0  0  0  0
 17 20  1  0  0  0  0
 17 53  1  0  0  0  0
 17 54  1  0  0  0  0
 18 21  1  0  0  0  0
 18 24  2  0  0  0  0
 19 22  1  0  0  0  0
 20 21  1  0  0  0  0
 20 56  1  0  0  0  0
 20 57  1  0  0  0  0
 21 25  2  0  0  0  0
 22 23  1  0  0  0  0
 22 58  1  0  0  0  0
 23 26  1  0  0  0  0
 23 59  1  0  0  0  0
 24 27  1  0  0  0  0
 24 60  1  0  0  0  0
 25 28  1  0  0  0  0
 25 61  1  0  0  0  0
 26 29  1  0  0  0  0
 26 62  1  0  0  0  0
 26 63  1  0  0  0  0
 27 28  2  0  0  0  0
 27 65  1  0  0  0  0
 28 66  1  0  0  0  0
 29 31  2  0  0  0  0
 29 32  1  0  0  0  0
 30 33  1  0  0  0  0
 31 34  1  0  0  0  0
 31 68  1  0  0  0  0
 32 35  2  0  0  0  0
 32 69  1  0  0  0  0
 33 36  2  0  0  0  0
 33 38  1  0  0  0  0
 34 37  2  0  0  0  0
 34 70  1  0  0  0  0
 35 37  1  0  0  0  0
 35 71  1  0  0  0  0
 36 39  1  0  0  0  0
 36 40  1  0  0  0  0
 37 72  1  0  0  0  0
 38 41  2  0  0  0  0
 38 73  1  0  0  0  0
 39 42  2  0  0  0  0
 40 74  1  0  0  0  0
 40 75  1  0  0  0  0
 40 76  1  0  0  0  0
 41 42  1  0  0  0  0
 41 77  1  0  0  0  0
 42 78  1  0  0  0  0
M  END
> <PUBCHEM_COMPOUND_CID>
514629
> <PUBCHEM_COMPOUND_CANONICALIZED>
1
> <PUBCHEM_CACTVS_COMPLEXITY>
967
> <PUBCHEM_CACTVS_HBOND_ACCEPTOR>
6
> <PUBCHEM_CACTVS_HBOND_DONOR>
4
> <PUBCHEM_CACTVS_ROTATABLE_BOND>
8
> <PUBCHEM_CACTVS_SUBSKEYS>
AAADcfB/OAAAAAAAAAAAAAAAAAAAAeIAAAAwYMAAAAAAAGABUAAAHgAQCAAADHzhmAYyBoPABgCIAiFSEAKCAAAkIAAIiIHODMgKdj6C1TOdcQhm9hGYmYe6yLCOgAABAAAYAAAAAAIAADAAACAACQAAAA==
> <PUBCHEM_IUPAC_OPENEYE_NAME>
(4S)-3-[(2S,3S)-2-hydroxy-3-[(3-hydroxy-2-methyl-benzoyl)amino]-4-phenyl-butanoyl]-N-[(1S)-indan-1-yl]-5,5-dimethyl-oxazolidine-4-carboxamide
> <PUBCHEM_IUPAC_CAS_NAME>
(4S)-N-[(1S)-2,3-dihydro-1H-inden-1-yl]-3-[(2S,3S)-2-hydroxy-3-[[(3-hydroxy-2-methylphenyl)-oxomethyl]amino]-1-oxo-4-phenylbutyl]-5,5-dimethyl-4-oxazolidinecarboxamide
> <PUBCHEM_IUPAC_NAME_MARKUP>
(4<I>S</I>)-<I>N</I>-[(1<I>S</I>)-2,3-dihydro-1<I>H</I>-inden-1-yl]-3-[(2<I>S</I>,3<I>S</I>)-2-hydroxy-3-[(3-hydroxy-2-methylbenzoyl)amino]-4-phenylbutanoyl]-5,5-dimethyl-1,3-oxazolidine-4-carboxamide
> <PUBCHEM_IUPAC_NAME>
(4S)-N-[(1S)-2,3-dihydro-1H-inden-1-yl]-3-[(2S,3S)-2-hydroxy-3-[(3-hydroxy-2-methylbenzoyl)amino]-4-phenylbutanoyl]-5,5-dimethyl-1,3-oxazolidine-4-carboxamide
> <PUBCHEM_IUPAC_SYSTEMATIC_NAME>
(4S)-N-[(1S)-2,3-dihydro-1H-inden-1-yl]-5,5-dimethyl-3-[(2S,3S)-3-[(2-methyl-3-oxidanyl-phenyl)carbonylamino]-2-oxidanyl-4-phenyl-butanoyl]-1,3-oxazolidine-4-carboxamide
> <PUBCHEM_IUPAC_TRADITIONAL_NAME>
(4S)-3-[(2S,3S)-2-hydroxy-3-[(3-hydroxy-2-methyl-benzoyl)amino]-4-phenyl-butanoyl]-N-[(1S)-indan-1-yl]-5,5-dimethyl-oxazolidine-4-carboxamide
> <PUBCHEM_IUPAC_INCHI>
InChI=1S/C33H37N3O6/c1-20-23(14-9-15-27(20)37)30(39)35-26(18-21-10-5-4-6-11-21)28(38)32(41)36-19-42-33(2,3)29(36)31(40)34-25-17-16-22-12-7-8-13-24(22)25/h4-15,25-26,28-29,37-38H,16-19H2,1-3H3,(H,34,40)(H,35,39)/t25-,26-,28-,29+/m0/s1
> <PUBCHEM_IUPAC_INCHIKEY>
LGLXMIHMMFWJAA-ZSLRCHCDSA-N
> <PUBCHEM_XLOGP3_AA>
3.8
> <PUBCHEM_EXACT_MASS>
571.26823591
> <PUBCHEM_MOLECULAR_FORMULA>
C33H37N3O6
> <PUBCHEM_MOLECULAR_WEIGHT>
571.7
> <PUBCHEM_OPENEYE_CAN_SMILES>
CC1=C(C=CC=C1O)C(=O)NC(CC2=CC=CC=C2)C(C(=O)N3COC(C3C(=O)NC4CCC5=CC=CC=C45)(C)C)O
> <PUBCHEM_OPENEYE_ISO_SMILES>
CC1=C(C=CC=C1O)C(=O)N[C@@H](CC2=CC=CC=C2)[C@@H](C(=O)N3COC([C@H]3C(=O)N[C@H]4CCC5=CC=CC=C45)(C)C)O
> <PUBCHEM_CACTVS_TPSA>
128
> <PUBCHEM_MONOISOTOPIC_WEIGHT>
571.26823591
> <PUBCHEM_TOTAL_CHARGE>
0
> <PUBCHEM_HEAVY_ATOM_COUNT>
42
> <PUBCHEM_ATOM_DEF_STEREO_COUNT>
4
> <PUBCHEM_ATOM_UDEF_STEREO_COUNT>
0
> <PUBCHEM_BOND_DEF_STEREO_COUNT>
0
> <PUBCHEM_BOND_UDEF_STEREO_COUNT>
0
> <PUBCHEM_ISOTOPIC_ATOM_COUNT>
0
> <PUBCHEM_COMPONENT_COUNT>
1
> <PUBCHEM_CACTVS_TAUTO_COUNT>
-1
> <PUBCHEM_COORDINATE_TYPE>
1
5
255
> <PUBCHEM_BONDANNOTATIONS>
10  14  6
18  21  8
18  24  8
21  25  8
24  27  8
25  28  8
27  28  8
29  31  8
29  32  8
22  3  5
31  34  8
32  35  8
33  36  8
33  38  8
34  37  8
35  37  8
36  39  8
38  41  8
39  42  8
41  42  8
12  8  5
23  9  5
$$$$
