514674
  -OEChem-10302200282D
 73 76  0     1  0  0  0  0  0999 V2000
    8.1756    3.1842    0.0000 S   0  0  0  0  0  0  0  0  0  0  0  0
    2.5000    2.7455    0.0000 O   0  0  0  0  0  0  0  0  0  0  0  0
    9.4076    0.6454    0.0000 O   0  0  0  0  0  0  0  0  0  0  0  0
    5.7076    0.9460    0.0000 O   0  0  0  0  0  0  0  0  0  0  0  0
    6.8095    0.1454    0.0000 O   0  0  0  0  0  0  0  0  0  0  0  0
   11.2442   -2.3492    0.0000 O   0  0  0  0  0  0  0  0  0  0  0  0
   10.2736    0.1454    0.0000 O   0  0  0  0  0  0  0  0  0  0  0  0
    7.6756    1.6454    0.0000 N   0  0  0  0  0  0  0  0  0  0  0  0
    5.1724    2.5933    0.0000 N   0  0  0  0  0  0  0  0  0  0  0  0
    9.4076   -1.3546    0.0000 N   0  0  0  0  0  0  0  0  0  0  0  0
    7.1756    3.1842    0.0000 C   0  0  0  0  0  0  0  0  0  0  0  0
    6.8666    2.2332    0.0000 C   0  0  1  0  0  0  0  0  0  0  0  0
    8.4846    2.2332    0.0000 C   0  0  0  0  0  0  0  0  0  0  0  0
    7.1756    4.1842    0.0000 C   0  0  0  0  0  0  0  0  0  0  0  0
    6.2245    3.4932    0.0000 C   0  0  0  0  0  0  0  0  0  0  0  0
    5.9155    1.9241    0.0000 C   0  0  0  0  0  0  0  0  0  0  0  0
    7.6756    0.6454    0.0000 C   0  0  0  0  0  0  0  0  0  0  0  0
    8.5416    0.1454    0.0000 C   0  0  2  0  0  0  0  0  0  0  0  0
    8.5416   -0.8546    0.0000 C   0  0  2  0  0  0  0  0  0  0  0  0
    3.4782    2.9534    0.0000 C   0  0  1  0  0  0  0  0  0  0  0  0
    4.2213    2.2842    0.0000 C   0  0  0  0  0  0  0  0  0  0  0  0
    3.5827    3.9479    0.0000 C   0  0  0  0  0  0  0  0  0  0  0  0
    7.6756   -1.3546    0.0000 C   0  0  0  0  0  0  0  0  0  0  0  0
    2.6691    4.3546    0.0000 C   0  0  0  0  0  0  0  0  0  0  0  0
    2.0000    3.6115    0.0000 C   0  0  0  0  0  0  0  0  0  0  0  0
   11.1397   -1.3546    0.0000 C   0  0  1  0  0  0  0  0  0  0  0  0
   12.0532   -0.9479    0.0000 C   0  0  0  0  0  0  0  0  0  0  0  0
   10.2736   -0.8546    0.0000 C   0  0  0  0  0  0  0  0  0  0  0  0
   12.7223   -1.6910    0.0000 C   0  0  0  0  0  0  0  0  0  0  0  0
    7.6756   -2.3546    0.0000 C   0  0  0  0  0  0  0  0  0  0  0  0
   12.2223   -2.5571    0.0000 C   0  0  0  0  0  0  0  0  0  0  0  0
    8.5416   -2.8546    0.0000 C   0  0  0  0  0  0  0  0  0  0  0  0
    6.8095   -2.8546    0.0000 C   0  0  0  0  0  0  0  0  0  0  0  0
    8.5416   -3.8546    0.0000 C   0  0  0  0  0  0  0  0  0  0  0  0
    6.8095   -3.8546    0.0000 C   0  0  0  0  0  0  0  0  0  0  0  0
    7.6756   -4.3546    0.0000 C   0  0  0  0  0  0  0  0  0  0  0  0
    6.7696    1.6208    0.0000 H   0  0  0  0  0  0  0  0  0  0  0  0
    8.7946    1.6962    0.0000 H   0  0  0  0  0  0  0  0  0  0  0  0
    9.0510    2.4853    0.0000 H   0  0  0  0  0  0  0  0  0  0  0  0
    7.7956    4.1842    0.0000 H   0  0  0  0  0  0  0  0  0  0  0  0
    7.1756    4.8042    0.0000 H   0  0  0  0  0  0  0  0  0  0  0  0
    6.5556    4.1842    0.0000 H   0  0  0  0  0  0  0  0  0  0  0  0
    6.4161    4.0829    0.0000 H   0  0  0  0  0  0  0  0  0  0  0  0
    5.6349    3.6848    0.0000 H   0  0  0  0  0  0  0  0  0  0  0  0
    6.0329    2.9036    0.0000 H   0  0  0  0  0  0  0  0  0  0  0  0
    8.5416    0.7654    0.0000 H   0  0  0  0  0  0  0  0  0  0  0  0
    8.5416   -1.4746    0.0000 H   0  0  0  0  0  0  0  0  0  0  0  0
    3.3177    2.3545    0.0000 H   0  0  0  0  0  0  0  0  0  0  0  0
    3.7327    1.9025    0.0000 H   0  0  0  0  0  0  0  0  0  0  0  0
    4.5124    1.7368    0.0000 H   0  0  0  0  0  0  0  0  0  0  0  0
    5.3012    3.1997    0.0000 H   0  0  0  0  0  0  0  0  0  0  0  0
    4.1891    3.8190    0.0000 H   0  0  0  0  0  0  0  0  0  0  0  0
    3.7743    4.5376    0.0000 H   0  0  0  0  0  0  0  0  0  0  0  0
    7.4635   -0.7720    0.0000 H   0  0  0  0  0  0  0  0  0  0  0  0
    7.0650   -1.4623    0.0000 H   0  0  0  0  0  0  0  0  0  0  0  0
    2.9791    4.8916    0.0000 H   0  0  0  0  0  0  0  0  0  0  0  0
    2.1675    4.7191    0.0000 H   0  0  0  0  0  0  0  0  0  0  0  0
    9.4076   -1.9746    0.0000 H   0  0  0  0  0  0  0  0  0  0  0  0
    1.5851    4.0722    0.0000 H   0  0  0  0  0  0  0  0  0  0  0  0
    1.4984    3.2471    0.0000 H   0  0  0  0  0  0  0  0  0  0  0  0
   10.6197   -1.6923    0.0000 H   0  0  0  0  0  0  0  0  0  0  0  0
   12.5548   -0.5835    0.0000 H   0  0  0  0  0  0  0  0  0  0  0  0
   11.7432   -0.4110    0.0000 H   0  0  0  0  0  0  0  0  0  0  0  0
   13.2239   -2.0555    0.0000 H   0  0  0  0  0  0  0  0  0  0  0  0
   13.1372   -1.2303    0.0000 H   0  0  0  0  0  0  0  0  0  0  0  0
    9.4076    1.2654    0.0000 H   0  0  0  0  0  0  0  0  0  0  0  0
   12.0308   -3.1467    0.0000 H   0  0  0  0  0  0  0  0  0  0  0  0
   12.7887   -2.8092    0.0000 H   0  0  0  0  0  0  0  0  0  0  0  0
    9.0785   -2.5446    0.0000 H   0  0  0  0  0  0  0  0  0  0  0  0
    6.2726   -2.5446    0.0000 H   0  0  0  0  0  0  0  0  0  0  0  0
    9.0785   -4.1646    0.0000 H   0  0  0  0  0  0  0  0  0  0  0  0
    6.2726   -4.1646    0.0000 H   0  0  0  0  0  0  0  0  0  0  0  0
    7.6756   -4.9746    0.0000 H   0  0  0  0  0  0  0  0  0  0  0  0
  1 11  1  0  0  0  0
  1 13  1  0  0  0  0
  2 20  1  0  0  0  0
  2 25  1  0  0  0  0
 18  3  1  1  0  0  0
  3 66  1  0  0  0  0
  4 16  2  0  0  0  0
  5 17  2  0  0  0  0
  6 26  1  0  0  0  0
  6 31  1  0  0  0  0
  7 28  2  0  0  0  0
  8 12  1  0  0  0  0
  8 13  1  0  0  0  0
  8 17  1  0  0  0  0
  9 16  1  0  0  0  0
  9 21  1  0  0  0  0
  9 51  1  0  0  0  0
 19 10  1  1  0  0  0
 10 28  1  0  0  0  0
 10 58  1  0  0  0  0
 11 12  1  0  0  0  0
 11 14  1  0  0  0  0
 11 15  1  0  0  0  0
 12 16  1  6  0  0  0
 12 37  1  0  0  0  0
 13 38  1  0  0  0  0
 13 39  1  0  0  0  0
 14 40  1  0  0  0  0
 14 41  1  0  0  0  0
 14 42  1  0  0  0  0
 15 43  1  0  0  0  0
 15 44  1  0  0  0  0
 15 45  1  0  0  0  0
 17 18  1  0  0  0  0
 18 19  1  0  0  0  0
 18 46  1  0  0  0  0
 19 23  1  0  0  0  0
 19 47  1  0  0  0  0
 20 21  1  6  0  0  0
 20 22  1  0  0  0  0
 20 48  1  0  0  0  0
 21 49  1  0  0  0  0
 21 50  1  0  0  0  0
 22 24  1  0  0  0  0
 22 52  1  0  0  0  0
 22 53  1  0  0  0  0
 23 30  1  0  0  0  0
 23 54  1  0  0  0  0
 23 55  1  0  0  0  0
 24 25  1  0  0  0  0
 24 56  1  0  0  0  0
 24 57  1  0  0  0  0
 25 59  1  0  0  0  0
 25 60  1  0  0  0  0
 26 27  1  0  0  0  0
 26 28  1  6  0  0  0
 26 61  1  0  0  0  0
 27 29  1  0  0  0  0
 27 62  1  0  0  0  0
 27 63  1  0  0  0  0
 29 31  1  0  0  0  0
 29 64  1  0  0  0  0
 29 65  1  0  0  0  0
 30 32  2  0  0  0  0
 30 33  1  0  0  0  0
 31 67  1  0  0  0  0
 31 68  1  0  0  0  0
 32 34  1  0  0  0  0
 32 69  1  0  0  0  0
 33 35  2  0  0  0  0
 33 70  1  0  0  0  0
 34 36  2  0  0  0  0
 34 71  1  0  0  0  0
 35 36  1  0  0  0  0
 35 72  1  0  0  0  0
 36 73  1  0  0  0  0
M  END
> <PUBCHEM_COMPOUND_CID>
514674
> <PUBCHEM_COMPOUND_CANONICALIZED>
1
> <PUBCHEM_CACTVS_COMPLEXITY>
790
> <PUBCHEM_CACTVS_HBOND_ACCEPTOR>
7
> <PUBCHEM_CACTVS_HBOND_DONOR>
3
> <PUBCHEM_CACTVS_ROTATABLE_BOND>
9
> <PUBCHEM_CACTVS_SUBSKEYS>
AAADcfB7OABAAAAAAAAAAAAAAAAAAWJEgAAwAAAAAAAAAAABAAAAHgQQCAAADDzh2AayAIPABgiIAiFSEAICAABgABAIiIHIAIgKcDqg0TWXYAAklgCYiAeY3KKOAAAAAAAAAAAAAAAAAAAAAAAAAAAAAA==
> <PUBCHEM_IUPAC_OPENEYE_NAME>
(4R)-3-[(2S,3S)-2-hydroxy-4-phenyl-3-[[(2S)-tetrahydrofuran-2-carbonyl]amino]butanoyl]-5,5-dimethyl-N-[[(2R)-tetrahydrofuran-2-yl]methyl]thiazolidine-4-carboxamide
> <PUBCHEM_IUPAC_CAS_NAME>
(4R)-3-[(2S,3S)-2-hydroxy-1-oxo-3-[[oxo-[(2S)-2-oxolanyl]methyl]amino]-4-phenylbutyl]-5,5-dimethyl-N-[[(2R)-2-oxolanyl]methyl]-4-thiazolidinecarboxamide
> <PUBCHEM_IUPAC_NAME_MARKUP>
(4<I>R</I>)-3-[(2<I>S</I>,3<I>S</I>)-2-hydroxy-3-[[(2<I>S</I>)-oxolane-2-carbonyl]amino]-4-phenylbutanoyl]-5,5-dimethyl-<I>N</I>-[[(2<I>R</I>)-oxolan-2-yl]methyl]-1,3-thiazolidine-4-carboxamide
> <PUBCHEM_IUPAC_NAME>
(4R)-3-[(2S,3S)-2-hydroxy-3-[[(2S)-oxolane-2-carbonyl]amino]-4-phenylbutanoyl]-5,5-dimethyl-N-[[(2R)-oxolan-2-yl]methyl]-1,3-thiazolidine-4-carboxamide
> <PUBCHEM_IUPAC_SYSTEMATIC_NAME>
(4R)-5,5-dimethyl-3-[(2S,3S)-2-oxidanyl-3-[[(2S)-oxolan-2-yl]carbonylamino]-4-phenyl-butanoyl]-N-[[(2R)-oxolan-2-yl]methyl]-1,3-thiazolidine-4-carboxamide
> <PUBCHEM_IUPAC_TRADITIONAL_NAME>
(4R)-3-[(2S,3S)-2-hydroxy-4-phenyl-3-[[(2S)-tetrahydrofuran-2-carbonyl]amino]butanoyl]-5,5-dimethyl-N-[[(2R)-tetrahydrofuran-2-yl]methyl]thiazolidine-4-carboxamide
> <PUBCHEM_IUPAC_INCHI>
InChI=1S/C26H37N3O6S/c1-26(2)22(24(32)27-15-18-10-6-12-34-18)29(16-36-26)25(33)21(30)19(14-17-8-4-3-5-9-17)28-23(31)20-11-7-13-35-20/h3-5,8-9,18-22,30H,6-7,10-16H2,1-2H3,(H,27,32)(H,28,31)/t18-,19+,20+,21+,22-/m1/s1
> <PUBCHEM_IUPAC_INCHIKEY>
QJPVYNNQROSAEX-LLVBAIKDSA-N
> <PUBCHEM_XLOGP3_AA>
1.8
> <PUBCHEM_EXACT_MASS>
519.24030708
> <PUBCHEM_MOLECULAR_FORMULA>
C26H37N3O6S
> <PUBCHEM_MOLECULAR_WEIGHT>
519.7
> <PUBCHEM_OPENEYE_CAN_SMILES>
CC1(C(N(CS1)C(=O)C(C(CC2=CC=CC=C2)NC(=O)C3CCCO3)O)C(=O)NCC4CCCO4)C
> <PUBCHEM_OPENEYE_ISO_SMILES>
CC1([C@H](N(CS1)C(=O)[C@H]([C@H](CC2=CC=CC=C2)NC(=O)[C@@H]3CCCO3)O)C(=O)NC[C@H]4CCCO4)C
> <PUBCHEM_CACTVS_TPSA>
143
> <PUBCHEM_MONOISOTOPIC_WEIGHT>
519.24030708
> <PUBCHEM_TOTAL_CHARGE>
0
> <PUBCHEM_HEAVY_ATOM_COUNT>
36
> <PUBCHEM_ATOM_DEF_STEREO_COUNT>
5
> <PUBCHEM_ATOM_UDEF_STEREO_COUNT>
0
> <PUBCHEM_BOND_DEF_STEREO_COUNT>
0
> <PUBCHEM_BOND_UDEF_STEREO_COUNT>
0
> <PUBCHEM_ISOTOPIC_ATOM_COUNT>
0
> <PUBCHEM_COMPONENT_COUNT>
1
> <PUBCHEM_CACTVS_TAUTO_COUNT>
-1
> <PUBCHEM_COORDINATE_TYPE>
1
5
255
> <PUBCHEM_BONDANNOTATIONS>
19  10  5
12  16  6
20  21  6
26  28  6
18  3  5
30  32  8
30  33  8
32  34  8
33  35  8
34  36  8
35  36  8
$$$$
