514601
  -OEChem-10302200282D
 83 88  0     1  0  0  0  0  0999 V2000
    8.8955   -3.1928    0.0000 S   0  0  0  0  0  0  0  0  0  0  0  0
    6.1185   -4.4800    0.0000 O   0  0  0  0  0  0  0  0  0  0  0  0
    6.0042   -1.5373    0.0000 O   0  0  0  0  0  0  0  0  0  0  0  0
    8.4000   -0.4147    0.0000 O   0  0  0  0  0  0  0  0  0  0  0  0
    8.8067    0.4989    0.0000 O   0  0  0  0  0  0  0  0  0  0  0  0
    7.8568    4.7530    0.0000 O   0  0  0  0  0  0  0  0  0  0  0  0
    7.5865   -2.2418    0.0000 N   0  0  0  0  0  0  0  0  0  0  0  0
    5.5833   -2.8327    0.0000 N   0  0  0  0  0  0  0  0  0  0  0  0
    7.2244    1.2034    0.0000 N   0  0  0  0  0  0  0  0  0  0  0  0
    8.0865   -3.7806    0.0000 C   0  0  0  0  0  0  0  0  0  0  0  0
    7.2775   -3.1928    0.0000 C   0  0  1  0  0  0  0  0  0  0  0  0
    8.8955   -4.3684    0.0000 C   0  0  0  0  0  0  0  0  0  0  0  0
    7.2775   -4.3684    0.0000 C   0  0  0  0  0  0  0  0  0  0  0  0
    8.5865   -5.3194    0.0000 C   0  0  0  0  0  0  0  0  0  0  0  0
    7.5865   -5.3194    0.0000 C   0  0  0  0  0  0  0  0  0  0  0  0
    8.5865   -2.2418    0.0000 C   0  0  0  0  0  0  0  0  0  0  0  0
    6.3264   -3.5018    0.0000 C   0  0  0  0  0  0  0  0  0  0  0  0
    6.9987   -1.4327    0.0000 C   0  0  0  0  0  0  0  0  0  0  0  0
    4.6322   -3.1417    0.0000 C   0  0  1  0  0  0  0  0  0  0  0  0
    7.4054   -0.5192    0.0000 C   0  0  2  0  0  0  0  0  0  0  0  0
    4.3258   -4.0874    0.0000 C   0  0  0  0  0  0  0  0  0  0  0  0
    3.8285   -2.5567    0.0000 C   0  0  0  0  0  0  0  0  0  0  0  0
    6.8177    0.2898    0.0000 C   0  0  2  0  0  0  0  0  0  0  0  0
    3.3318   -4.0900    0.0000 C   0  0  0  0  0  0  0  0  0  0  0  0
    3.0205   -3.1459    0.0000 C   0  0  0  0  0  0  0  0  0  0  0  0
    5.8231    0.1853    0.0000 C   0  0  0  0  0  0  0  0  0  0  0  0
    3.7222   -1.5624    0.0000 C   0  0  0  0  0  0  0  0  0  0  0  0
    2.1062   -2.7407    0.0000 C   0  0  0  0  0  0  0  0  0  0  0  0
    2.8080   -1.1572    0.0000 C   0  0  0  0  0  0  0  0  0  0  0  0
    5.2354    0.9943    0.0000 C   0  0  0  0  0  0  0  0  0  0  0  0
    2.0000   -1.7464    0.0000 C   0  0  0  0  0  0  0  0  0  0  0  0
    8.2189    1.3079    0.0000 C   0  0  0  0  0  0  0  0  0  0  0  0
    4.2408    0.8898    0.0000 C   0  0  0  0  0  0  0  0  0  0  0  0
    5.6421    1.9079    0.0000 C   0  0  0  0  0  0  0  0  0  0  0  0
    8.6256    2.2214    0.0000 C   0  0  0  0  0  0  0  0  0  0  0  0
    3.6530    1.6988    0.0000 C   0  0  0  0  0  0  0  0  0  0  0  0
    5.0543    2.7169    0.0000 C   0  0  0  0  0  0  0  0  0  0  0  0
    8.0379    3.0305    0.0000 C   0  0  0  0  0  0  0  0  0  0  0  0
    4.0598    2.6124    0.0000 C   0  0  0  0  0  0  0  0  0  0  0  0
    9.6202    2.3260    0.0000 C   0  0  0  0  0  0  0  0  0  0  0  0
    8.4446    3.9440    0.0000 C   0  0  0  0  0  0  0  0  0  0  0  0
    7.0434    2.9259    0.0000 C   0  0  0  0  0  0  0  0  0  0  0  0
   10.0269    3.2395    0.0000 C   0  0  0  0  0  0  0  0  0  0  0  0
    9.4391    4.0485    0.0000 C   0  0  0  0  0  0  0  0  0  0  0  0
    6.8391   -2.7544    0.0000 H   0  0  0  0  0  0  0  0  0  0  0  0
    9.4619   -4.6206    0.0000 H   0  0  0  0  0  0  0  0  0  0  0  0
    9.2055   -3.8314    0.0000 H   0  0  0  0  0  0  0  0  0  0  0  0
    6.9675   -3.8314    0.0000 H   0  0  0  0  0  0  0  0  0  0  0  0
    6.7111   -4.6206    0.0000 H   0  0  0  0  0  0  0  0  0  0  0  0
    8.5217   -5.9360    0.0000 H   0  0  0  0  0  0  0  0  0  0  0  0
    9.1929   -5.4483    0.0000 H   0  0  0  0  0  0  0  0  0  0  0  0
    6.9800   -5.4483    0.0000 H   0  0  0  0  0  0  0  0  0  0  0  0
    7.6513   -5.9360    0.0000 H   0  0  0  0  0  0  0  0  0  0  0  0
    9.1929   -2.1128    0.0000 H   0  0  0  0  0  0  0  0  0  0  0  0
    8.5217   -1.6251    0.0000 H   0  0  0  0  0  0  0  0  0  0  0  0
    5.7122   -2.2262    0.0000 H   0  0  0  0  0  0  0  0  0  0  0  0
    5.0708   -3.5799    0.0000 H   0  0  0  0  0  0  0  0  0  0  0  0
    7.6576    0.0472    0.0000 H   0  0  0  0  0  0  0  0  0  0  0  0
    4.2623   -4.7041    0.0000 H   0  0  0  0  0  0  0  0  0  0  0  0
    4.9325   -4.2154    0.0000 H   0  0  0  0  0  0  0  0  0  0  0  0
    6.4532    0.7914    0.0000 H   0  0  0  0  0  0  0  0  0  0  0  0
    2.7258   -4.2212    0.0000 H   0  0  0  0  0  0  0  0  0  0  0  0
    3.3985   -4.7064    0.0000 H   0  0  0  0  0  0  0  0  0  0  0  0
    5.2659   -0.0865    0.0000 H   0  0  0  0  0  0  0  0  0  0  0  0
    5.9940   -0.4107    0.0000 H   0  0  0  0  0  0  0  0  0  0  0  0
    4.2232   -1.1971    0.0000 H   0  0  0  0  0  0  0  0  0  0  0  0
    8.7644   -0.9162    0.0000 H   0  0  0  0  0  0  0  0  0  0  0  0
    6.8600    1.7050    0.0000 H   0  0  0  0  0  0  0  0  0  0  0  0
    1.6053   -3.1060    0.0000 H   0  0  0  0  0  0  0  0  0  0  0  0
    2.7421   -0.5407    0.0000 H   0  0  0  0  0  0  0  0  0  0  0  0
    1.4332   -1.4952    0.0000 H   0  0  0  0  0  0  0  0  0  0  0  0
    3.9886    0.3234    0.0000 H   0  0  0  0  0  0  0  0  0  0  0  0
    6.2587    1.9727    0.0000 H   0  0  0  0  0  0  0  0  0  0  0  0
    3.0364    1.6340    0.0000 H   0  0  0  0  0  0  0  0  0  0  0  0
    5.3065    3.2833    0.0000 H   0  0  0  0  0  0  0  0  0  0  0  0
    3.6954    3.1140    0.0000 H   0  0  0  0  0  0  0  0  0  0  0  0
    9.9846    1.8244    0.0000 H   0  0  0  0  0  0  0  0  0  0  0  0
    6.9785    3.5425    0.0000 H   0  0  0  0  0  0  0  0  0  0  0  0
    6.4267    2.8611    0.0000 H   0  0  0  0  0  0  0  0  0  0  0  0
    7.1082    2.3093    0.0000 H   0  0  0  0  0  0  0  0  0  0  0  0
   10.6435    3.3043    0.0000 H   0  0  0  0  0  0  0  0  0  0  0  0
    9.6913    4.6149    0.0000 H   0  0  0  0  0  0  0  0  0  0  0  0
    8.1090    5.3194    0.0000 H   0  0  0  0  0  0  0  0  0  0  0  0
  1 10  1  0  0  0  0
  1 16  1  0  0  0  0
  2 17  2  0  0  0  0
  3 18  2  0  0  0  0
 20  4  1  6  0  0  0
  4 67  1  0  0  0  0
  5 32  2  0  0  0  0
  6 41  1  0  0  0  0
  6 83  1  0  0  0  0
  7 11  1  0  0  0  0
  7 16  1  0  0  0  0
  7 18  1  0  0  0  0
  8 17  1  0  0  0  0
 19  8  1  1  0  0  0
  8 56  1  0  0  0  0
 23  9  1  6  0  0  0
  9 32  1  0  0  0  0
  9 68  1  0  0  0  0
 10 11  1  0  0  0  0
 10 12  1  0  0  0  0
 10 13  1  0  0  0  0
 11 17  1  1  0  0  0
 11 45  1  0  0  0  0
 12 14  1  0  0  0  0
 12 46  1  0  0  0  0
 12 47  1  0  0  0  0
 13 15  1  0  0  0  0
 13 48  1  0  0  0  0
 13 49  1  0  0  0  0
 14 15  1  0  0  0  0
 14 50  1  0  0  0  0
 14 51  1  0  0  0  0
 15 52  1  0  0  0  0
 15 53  1  0  0  0  0
 16 54  1  0  0  0  0
 16 55  1  0  0  0  0
 18 20  1  0  0  0  0
 19 21  1  0  0  0  0
 19 22  1  0  0  0  0
 19 57  1  0  0  0  0
 20 23  1  0  0  0  0
 20 58  1  0  0  0  0
 21 24  1  0  0  0  0
 21 59  1  0  0  0  0
 21 60  1  0  0  0  0
 22 25  1  0  0  0  0
 22 27  2  0  0  0  0
 23 26  1  0  0  0  0
 23 61  1  0  0  0  0
 24 25  1  0  0  0  0
 24 62  1  0  0  0  0
 24 63  1  0  0  0  0
 25 28  2  0  0  0  0
 26 30  1  0  0  0  0
 26 64  1  0  0  0  0
 26 65  1  0  0  0  0
 27 29  1  0  0  0  0
 27 66  1  0  0  0  0
 28 31  1  0  0  0  0
 28 69  1  0  0  0  0
 29 31  2  0  0  0  0
 29 70  1  0  0  0  0
 30 33  2  0  0  0  0
 30 34  1  0  0  0  0
 31 71  1  0  0  0  0
 32 35  1  0  0  0  0
 33 36  1  0  0  0  0
 33 72  1  0  0  0  0
 34 37  2  0  0  0  0
 34 73  1  0  0  0  0
 35 38  2  0  0  0  0
 35 40  1  0  0  0  0
 36 39  2  0  0  0  0
 36 74  1  0  0  0  0
 37 39  1  0  0  0  0
 37 75  1  0  0  0  0
 38 41  1  0  0  0  0
 38 42  1  0  0  0  0
 39 76  1  0  0  0  0
 40 43  2  0  0  0  0
 40 77  1  0  0  0  0
 41 44  2  0  0  0  0
 42 78  1  0  0  0  0
 42 79  1  0  0  0  0
 42 80  1  0  0  0  0
 43 44  1  0  0  0  0
 43 81  1  0  0  0  0
 44 82  1  0  0  0  0
M  END
> <PUBCHEM_COMPOUND_CID>
514601
> <PUBCHEM_COMPOUND_CANONICALIZED>
1
> <PUBCHEM_CACTVS_COMPLEXITY>
1030
> <PUBCHEM_CACTVS_HBOND_ACCEPTOR>
6
> <PUBCHEM_CACTVS_HBOND_DONOR>
4
> <PUBCHEM_CACTVS_ROTATABLE_BOND>
8
> <PUBCHEM_CACTVS_SUBSKEYS>
AAADcfB/OABAAAAAAAAAAAAAAAAAAeMEAAAwYMAAAAAAAGABUAAAHgQQCAAADDzh2AayBoPAAgiIAiFSEAKCAABkIBAIiIHODMgKdjqi1TOUcQhk1hGYmYe6yLCOgAABAAAYAAAAAAIAADAAACAACQAAAA==
> <PUBCHEM_IUPAC_OPENEYE_NAME>
(4R)-3-[(2S,3S)-2-hydroxy-3-[(3-hydroxy-2-methyl-benzoyl)amino]-4-phenyl-butanoyl]-N-[(1S)-indan-1-yl]-1-thia-3-azaspiro[4.4]nonane-4-carboxamide
> <PUBCHEM_IUPAC_CAS_NAME>
(4R)-N-[(1S)-2,3-dihydro-1H-inden-1-yl]-3-[(2S,3S)-2-hydroxy-3-[[(3-hydroxy-2-methylphenyl)-oxomethyl]amino]-1-oxo-4-phenylbutyl]-1-thia-3-azaspiro[4.4]nonane-4-carboxamide
> <PUBCHEM_IUPAC_NAME_MARKUP>
(4<I>R</I>)-<I>N</I>-[(1<I>S</I>)-2,3-dihydro-1<I>H</I>-inden-1-yl]-3-[(2<I>S</I>,3<I>S</I>)-2-hydroxy-3-[(3-hydroxy-2-methylbenzoyl)amino]-4-phenylbutanoyl]-1-thia-3-azaspiro[4.4]nonane-4-carboxamide
> <PUBCHEM_IUPAC_NAME>
(4R)-N-[(1S)-2,3-dihydro-1H-inden-1-yl]-3-[(2S,3S)-2-hydroxy-3-[(3-hydroxy-2-methylbenzoyl)amino]-4-phenylbutanoyl]-1-thia-3-azaspiro[4.4]nonane-4-carboxamide
> <PUBCHEM_IUPAC_SYSTEMATIC_NAME>
(4R)-N-[(1S)-2,3-dihydro-1H-inden-1-yl]-3-[(2S,3S)-3-[(2-methyl-3-oxidanyl-phenyl)carbonylamino]-2-oxidanyl-4-phenyl-butanoyl]-1-thia-3-azaspiro[4.4]nonane-4-carboxamide
> <PUBCHEM_IUPAC_TRADITIONAL_NAME>
(4R)-3-[(2S,3S)-2-hydroxy-3-[(3-hydroxy-2-methyl-benzoyl)amino]-4-phenyl-butanoyl]-N-[(1S)-indan-1-yl]-1-thia-3-azaspiro[4.4]nonane-4-carboxamide
> <PUBCHEM_IUPAC_INCHI>
InChI=1S/C35H39N3O5S/c1-22-25(14-9-15-29(22)39)32(41)37-28(20-23-10-3-2-4-11-23)30(40)34(43)38-21-44-35(18-7-8-19-35)31(38)33(42)36-27-17-16-24-12-5-6-13-26(24)27/h2-6,9-15,27-28,30-31,39-40H,7-8,16-21H2,1H3,(H,36,42)(H,37,41)/t27-,28-,30-,31+/m0/s1
> <PUBCHEM_IUPAC_INCHIKEY>
WZUOZKSJISRMIT-UOPKXQBNSA-N
> <PUBCHEM_XLOGP3_AA>
5
> <PUBCHEM_EXACT_MASS>
613.26104253
> <PUBCHEM_MOLECULAR_FORMULA>
C35H39N3O5S
> <PUBCHEM_MOLECULAR_WEIGHT>
613.8
> <PUBCHEM_OPENEYE_CAN_SMILES>
CC1=C(C=CC=C1O)C(=O)NC(CC2=CC=CC=C2)C(C(=O)N3CSC4(C3C(=O)NC5CCC6=CC=CC=C56)CCCC4)O
> <PUBCHEM_OPENEYE_ISO_SMILES>
CC1=C(C=CC=C1O)C(=O)N[C@@H](CC2=CC=CC=C2)[C@@H](C(=O)N3CSC4([C@H]3C(=O)N[C@H]5CCC6=CC=CC=C56)CCCC4)O
> <PUBCHEM_CACTVS_TPSA>
144
> <PUBCHEM_MONOISOTOPIC_WEIGHT>
613.26104253
> <PUBCHEM_TOTAL_CHARGE>
0
> <PUBCHEM_HEAVY_ATOM_COUNT>
44
> <PUBCHEM_ATOM_DEF_STEREO_COUNT>
4
> <PUBCHEM_ATOM_UDEF_STEREO_COUNT>
0
> <PUBCHEM_BOND_DEF_STEREO_COUNT>
0
> <PUBCHEM_BOND_UDEF_STEREO_COUNT>
0
> <PUBCHEM_ISOTOPIC_ATOM_COUNT>
0
> <PUBCHEM_COMPONENT_COUNT>
1
> <PUBCHEM_CACTVS_TAUTO_COUNT>
-1
> <PUBCHEM_COORDINATE_TYPE>
1
5
255
> <PUBCHEM_BONDANNOTATIONS>
11  17  5
22  25  8
22  27  8
25  28  8
27  29  8
28  31  8
29  31  8
30  33  8
30  34  8
33  36  8
34  37  8
35  38  8
35  40  8
36  39  8
37  39  8
38  41  8
20  4  6
40  43  8
41  44  8
43  44  8
19  8  5
23  9  6
$$$$
