514681
  -OEChem-10302200282D
 75 78  0     1  0  0  0  0  0999 V2000
    8.2788    2.7024    0.0000 S   0  0  0  0  0  0  0  0  0  0  0  0
   11.2367   -0.8933    0.0000 S   0  0  0  0  0  0  0  0  0  0  0  0
    5.4641    2.5000    0.0000 O   0  0  0  0  0  0  0  0  0  0  0  0
    6.3301    0.0000    0.0000 O   0  0  0  0  0  0  0  0  0  0  0  0
    7.5745   -0.5540    0.0000 O   0  0  0  0  0  0  0  0  0  0  0  0
    2.8660    0.0000    0.0000 O   0  0  0  0  0  0  0  0  0  0  0  0
    2.0000   -3.5000    0.0000 O   0  0  0  0  0  0  0  0  0  0  0  0
    7.1962    1.5000    0.0000 N   0  0  0  0  0  0  0  0  0  0  0  0
    9.2687   -0.1939    0.0000 N   0  0  0  0  0  0  0  0  0  0  0  0
    4.5981    0.0000    0.0000 N   0  0  0  0  0  0  0  0  0  0  0  0
    8.7788    1.8364    0.0000 C   0  0  0  0  0  0  0  0  0  0  0  0
    8.1097    1.0933    0.0000 C   0  0  1  0  0  0  0  0  0  0  0  0
    7.3007    2.4945    0.0000 C   0  0  0  0  0  0  0  0  0  0  0  0
    9.6448    2.3364    0.0000 C   0  0  0  0  0  0  0  0  0  0  0  0
    9.5220    1.1673    0.0000 C   0  0  0  0  0  0  0  0  0  0  0  0
    6.3301    1.0000    0.0000 C   0  0  0  0  0  0  0  0  0  0  0  0
    8.3176    0.1151    0.0000 C   0  0  0  0  0  0  0  0  0  0  0  0
    5.4641    1.5000    0.0000 C   0  0  2  0  0  0  0  0  0  0  0  0
    4.5981    1.0000    0.0000 C   0  0  2  0  0  0  0  0  0  0  0  0
    3.7320    1.5000    0.0000 C   0  0  0  0  0  0  0  0  0  0  0  0
    9.4766   -1.1720    0.0000 C   0  0  0  0  0  0  0  0  0  0  0  0
    3.7320    2.5000    0.0000 C   0  0  0  0  0  0  0  0  0  0  0  0
    3.7320   -0.5000    0.0000 C   0  0  0  0  0  0  0  0  0  0  0  0
   10.4276   -1.4811    0.0000 C   0  0  0  0  0  0  0  0  0  0  0  0
    2.8660    3.0000    0.0000 C   0  0  0  0  0  0  0  0  0  0  0  0
    4.5981    3.0000    0.0000 C   0  0  0  0  0  0  0  0  0  0  0  0
    3.7320   -1.5000    0.0000 C   0  0  0  0  0  0  0  0  0  0  0  0
    2.8660   -2.0000    0.0000 C   0  0  0  0  0  0  0  0  0  0  0  0
    2.8660    4.0000    0.0000 C   0  0  0  0  0  0  0  0  0  0  0  0
    4.5981    4.0000    0.0000 C   0  0  0  0  0  0  0  0  0  0  0  0
   10.7367   -2.4321    0.0000 C   0  0  0  0  0  0  0  0  0  0  0  0
    4.5981   -2.0000    0.0000 C   0  0  0  0  0  0  0  0  0  0  0  0
    3.7320    4.5000    0.0000 C   0  0  0  0  0  0  0  0  0  0  0  0
    2.8660   -3.0000    0.0000 C   0  0  0  0  0  0  0  0  0  0  0  0
    3.7320   -3.5000    0.0000 C   0  0  0  0  0  0  0  0  0  0  0  0
   11.7367   -2.4321    0.0000 C   0  0  0  0  0  0  0  0  0  0  0  0
    4.5981   -3.0000    0.0000 C   0  0  0  0  0  0  0  0  0  0  0  0
    2.0000   -1.5000    0.0000 C   0  0  0  0  0  0  0  0  0  0  0  0
   12.0457   -1.4811    0.0000 C   0  0  0  0  0  0  0  0  0  0  0  0
    3.7320   -4.5000    0.0000 C   0  0  0  0  0  0  0  0  0  0  0  0
    7.6279    0.7031    0.0000 H   0  0  0  0  0  0  0  0  0  0  0  0
    7.2359    3.1111    0.0000 H   0  0  0  0  0  0  0  0  0  0  0  0
    6.6807    2.4945    0.0000 H   0  0  0  0  0  0  0  0  0  0  0  0
    9.9548    1.7995    0.0000 H   0  0  0  0  0  0  0  0  0  0  0  0
   10.1818    2.6464    0.0000 H   0  0  0  0  0  0  0  0  0  0  0  0
    9.3348    2.8733    0.0000 H   0  0  0  0  0  0  0  0  0  0  0  0
    9.1071    0.7065    0.0000 H   0  0  0  0  0  0  0  0  0  0  0  0
    9.9827    0.7524    0.0000 H   0  0  0  0  0  0  0  0  0  0  0  0
    9.9368    1.6280    0.0000 H   0  0  0  0  0  0  0  0  0  0  0  0
    6.0010    1.8100    0.0000 H   0  0  0  0  0  0  0  0  0  0  0  0
    5.1350    0.6900    0.0000 H   0  0  0  0  0  0  0  0  0  0  0  0
    3.1215    1.6077    0.0000 H   0  0  0  0  0  0  0  0  0  0  0  0
    3.5200    0.9174    0.0000 H   0  0  0  0  0  0  0  0  0  0  0  0
    9.7294    0.2210    0.0000 H   0  0  0  0  0  0  0  0  0  0  0  0
    5.1350   -0.3100    0.0000 H   0  0  0  0  0  0  0  0  0  0  0  0
    8.8570   -1.1937    0.0000 H   0  0  0  0  0  0  0  0  0  0  0  0
    9.3903   -1.7860    0.0000 H   0  0  0  0  0  0  0  0  0  0  0  0
    6.0010    2.8100    0.0000 H   0  0  0  0  0  0  0  0  0  0  0  0
    2.3291    2.6900    0.0000 H   0  0  0  0  0  0  0  0  0  0  0  0
    5.1350    2.6900    0.0000 H   0  0  0  0  0  0  0  0  0  0  0  0
    2.3291    4.3100    0.0000 H   0  0  0  0  0  0  0  0  0  0  0  0
    5.1350    4.3100    0.0000 H   0  0  0  0  0  0  0  0  0  0  0  0
   10.3722   -2.9337    0.0000 H   0  0  0  0  0  0  0  0  0  0  0  0
    5.1350   -1.6900    0.0000 H   0  0  0  0  0  0  0  0  0  0  0  0
    3.7320    5.1200    0.0000 H   0  0  0  0  0  0  0  0  0  0  0  0
    5.1350   -3.3100    0.0000 H   0  0  0  0  0  0  0  0  0  0  0  0
   12.1011   -2.9337    0.0000 H   0  0  0  0  0  0  0  0  0  0  0  0
    2.3100   -0.9631    0.0000 H   0  0  0  0  0  0  0  0  0  0  0  0
    1.4631   -1.1900    0.0000 H   0  0  0  0  0  0  0  0  0  0  0  0
    1.6900   -2.0369    0.0000 H   0  0  0  0  0  0  0  0  0  0  0  0
   12.6353   -1.2895    0.0000 H   0  0  0  0  0  0  0  0  0  0  0  0
    3.1120   -4.5000    0.0000 H   0  0  0  0  0  0  0  0  0  0  0  0
    3.7320   -5.1200    0.0000 H   0  0  0  0  0  0  0  0  0  0  0  0
    4.3520   -4.5000    0.0000 H   0  0  0  0  0  0  0  0  0  0  0  0
    2.0000   -4.1200    0.0000 H   0  0  0  0  0  0  0  0  0  0  0  0
  1 11  1  0  0  0  0
  1 13  1  0  0  0  0
  2 24  1  0  0  0  0
  2 39  1  0  0  0  0
 18  3  1  6  0  0  0
  3 58  1  0  0  0  0
  4 16  2  0  0  0  0
  5 17  2  0  0  0  0
  6 23  2  0  0  0  0
  7 34  1  0  0  0  0
  7 75  1  0  0  0  0
  8 12  1  0  0  0  0
  8 13  1  0  0  0  0
  8 16  1  0  0  0  0
  9 17  1  0  0  0  0
  9 21  1  0  0  0  0
  9 54  1  0  0  0  0
 19 10  1  1  0  0  0
 10 23  1  0  0  0  0
 10 55  1  0  0  0  0
 11 12  1  0  0  0  0
 11 14  1  0  0  0  0
 11 15  1  0  0  0  0
 12 17  1  1  0  0  0
 12 41  1  0  0  0  0
 13 42  1  0  0  0  0
 13 43  1  0  0  0  0
 14 44  1  0  0  0  0
 14 45  1  0  0  0  0
 14 46  1  0  0  0  0
 15 47  1  0  0  0  0
 15 48  1  0  0  0  0
 15 49  1  0  0  0  0
 16 18  1  0  0  0  0
 18 19  1  0  0  0  0
 18 50  1  0  0  0  0
 19 20  1  0  0  0  0
 19 51  1  0  0  0  0
 20 22  1  0  0  0  0
 20 52  1  0  0  0  0
 20 53  1  0  0  0  0
 21 24  1  0  0  0  0
 21 56  1  0  0  0  0
 21 57  1  0  0  0  0
 22 25  2  0  0  0  0
 22 26  1  0  0  0  0
 23 27  1  0  0  0  0
 24 31  2  0  0  0  0
 25 29  1  0  0  0  0
 25 59  1  0  0  0  0
 26 30  2  0  0  0  0
 26 60  1  0  0  0  0
 27 28  2  0  0  0  0
 27 32  1  0  0  0  0
 28 34  1  0  0  0  0
 28 38  1  0  0  0  0
 29 33  2  0  0  0  0
 29 61  1  0  0  0  0
 30 33  1  0  0  0  0
 30 62  1  0  0  0  0
 31 36  1  0  0  0  0
 31 63  1  0  0  0  0
 32 37  2  0  0  0  0
 32 64  1  0  0  0  0
 33 65  1  0  0  0  0
 34 35  2  0  0  0  0
 35 37  1  0  0  0  0
 35 40  1  0  0  0  0
 36 39  2  0  0  0  0
 36 67  1  0  0  0  0
 37 66  1  0  0  0  0
 38 68  1  0  0  0  0
 38 69  1  0  0  0  0
 38 70  1  0  0  0  0
 39 71  1  0  0  0  0
 40 72  1  0  0  0  0
 40 73  1  0  0  0  0
 40 74  1  0  0  0  0
M  END
> <PUBCHEM_COMPOUND_CID>
514681
> <PUBCHEM_COMPOUND_CANONICALIZED>
1
> <PUBCHEM_CACTVS_COMPLEXITY>
899
> <PUBCHEM_CACTVS_HBOND_ACCEPTOR>
7
> <PUBCHEM_CACTVS_HBOND_DONOR>
4
> <PUBCHEM_CACTVS_ROTATABLE_BOND>
9
> <PUBCHEM_CACTVS_SUBSKEYS>
AAADcfB7OABgAAAAAAAAAAAAAAAAAWJAAAAwYAAAAAAAAAAB0AAAHgQQCAAADDzl2AayB4PAAgiMAiFSEAKDAIBkKBBIiJnMDMgKdjqi1TOUcQhk1hG4mYe6yPCOwAADAAAYAACAAAYAADAAAAAAAAAAAA==
> <PUBCHEM_IUPAC_OPENEYE_NAME>
(4R)-3-[(2S,3S)-2-hydroxy-3-[(3-hydroxy-2,4-dimethyl-benzoyl)amino]-4-phenyl-butanoyl]-5,5-dimethyl-N-(2-thienylmethyl)thiazolidine-4-carboxamide
> <PUBCHEM_IUPAC_CAS_NAME>
(4R)-3-[(2S,3S)-2-hydroxy-3-[[(3-hydroxy-2,4-dimethylphenyl)-oxomethyl]amino]-1-oxo-4-phenylbutyl]-5,5-dimethyl-N-(thiophen-2-ylmethyl)-4-thiazolidinecarboxamide
> <PUBCHEM_IUPAC_NAME_MARKUP>
(4<I>R</I>)-3-[(2<I>S</I>,3<I>S</I>)-2-hydroxy-3-[(3-hydroxy-2,4-dimethylbenzoyl)amino]-4-phenylbutanoyl]-5,5-dimethyl-<I>N</I>-(thiophen-2-ylmethyl)-1,3-thiazolidine-4-carboxamide
> <PUBCHEM_IUPAC_NAME>
(4R)-3-[(2S,3S)-2-hydroxy-3-[(3-hydroxy-2,4-dimethylbenzoyl)amino]-4-phenylbutanoyl]-5,5-dimethyl-N-(thiophen-2-ylmethyl)-1,3-thiazolidine-4-carboxamide
> <PUBCHEM_IUPAC_SYSTEMATIC_NAME>
(4R)-3-[(2S,3S)-3-[(2,4-dimethyl-3-oxidanyl-phenyl)carbonylamino]-2-oxidanyl-4-phenyl-butanoyl]-5,5-dimethyl-N-(thiophen-2-ylmethyl)-1,3-thiazolidine-4-carboxamide
> <PUBCHEM_IUPAC_TRADITIONAL_NAME>
(4R)-3-[(2S,3S)-2-hydroxy-3-[(3-hydroxy-2,4-dimethyl-benzoyl)amino]-4-phenyl-butanoyl]-5,5-dimethyl-N-(2-thenyl)thiazolidine-4-carboxamide
> <PUBCHEM_IUPAC_INCHI>
InChI=1S/C30H35N3O5S2/c1-18-12-13-22(19(2)24(18)34)27(36)32-23(15-20-9-6-5-7-10-20)25(35)29(38)33-17-40-30(3,4)26(33)28(37)31-16-21-11-8-14-39-21/h5-14,23,25-26,34-35H,15-17H2,1-4H3,(H,31,37)(H,32,36)/t23-,25-,26+/m0/s1
> <PUBCHEM_IUPAC_INCHIKEY>
XMRJOWWDJZSBMV-AYRHNUGRSA-N
> <PUBCHEM_XLOGP3_AA>
4.2
> <PUBCHEM_EXACT_MASS>
581.20181357
> <PUBCHEM_MOLECULAR_FORMULA>
C30H35N3O5S2
> <PUBCHEM_MOLECULAR_WEIGHT>
581.7
> <PUBCHEM_OPENEYE_CAN_SMILES>
CC1=C(C(=C(C=C1)C(=O)NC(CC2=CC=CC=C2)C(C(=O)N3CSC(C3C(=O)NCC4=CC=CS4)(C)C)O)C)O
> <PUBCHEM_OPENEYE_ISO_SMILES>
CC1=C(C(=C(C=C1)C(=O)N[C@@H](CC2=CC=CC=C2)[C@@H](C(=O)N3CSC([C@H]3C(=O)NCC4=CC=CS4)(C)C)O)C)O
> <PUBCHEM_CACTVS_TPSA>
173
> <PUBCHEM_MONOISOTOPIC_WEIGHT>
581.20181357
> <PUBCHEM_TOTAL_CHARGE>
0
> <PUBCHEM_HEAVY_ATOM_COUNT>
40
> <PUBCHEM_ATOM_DEF_STEREO_COUNT>
3
> <PUBCHEM_ATOM_UDEF_STEREO_COUNT>
0
> <PUBCHEM_BOND_DEF_STEREO_COUNT>
0
> <PUBCHEM_BOND_UDEF_STEREO_COUNT>
0
> <PUBCHEM_ISOTOPIC_ATOM_COUNT>
0
> <PUBCHEM_COMPONENT_COUNT>
1
> <PUBCHEM_CACTVS_TAUTO_COUNT>
-1
> <PUBCHEM_COORDINATE_TYPE>
1
5
255
> <PUBCHEM_BONDANNOTATIONS>
19  10  5
12  17  5
2  24  8
2  39  8
22  25  8
22  26  8
24  31  8
25  29  8
26  30  8
27  28  8
27  32  8
28  34  8
29  33  8
18  3  6
30  33  8
31  36  8
32  37  8
34  35  8
35  37  8
36  39  8
$$$$
