514664
  -OEChem-10302200282D
 74 78  0     1  0  0  0  0  0999 V2000
    5.7668    2.3995    0.0000 S   0  0  0  0  0  0  0  0  0  0  0  0
    3.3090   -2.7351    0.0000 S   0  0  0  0  0  0  0  0  0  0  0  0
    8.5816    2.1970    0.0000 O   0  0  0  0  0  0  0  0  0  0  0  0
    7.7155   -0.3030    0.0000 O   0  0  0  0  0  0  0  0  0  0  0  0
    6.4712   -0.8570    0.0000 O   0  0  0  0  0  0  0  0  0  0  0  0
   11.1796   -0.3030    0.0000 O   0  0  0  0  0  0  0  0  0  0  0  0
    6.8495    1.1970    0.0000 N   0  0  0  0  0  0  0  0  0  0  0  0
    4.7770   -0.4969    0.0000 N   0  0  0  0  0  0  0  0  0  0  0  0
    9.4476   -0.3030    0.0000 N   0  0  0  0  0  0  0  0  0  0  0  0
   12.1259   -3.6077    0.0000 N   0  0  0  0  0  0  0  0  0  0  0  0
    5.2668    1.5334    0.0000 C   0  0  0  0  0  0  0  0  0  0  0  0
    5.9360    0.7903    0.0000 C   0  0  1  0  0  0  0  0  0  0  0  0
    6.7450    2.1916    0.0000 C   0  0  0  0  0  0  0  0  0  0  0  0
    4.4008    2.0334    0.0000 C   0  0  0  0  0  0  0  0  0  0  0  0
    4.5237    0.8643    0.0000 C   0  0  0  0  0  0  0  0  0  0  0  0
    7.7155    0.6970    0.0000 C   0  0  0  0  0  0  0  0  0  0  0  0
    5.7281   -0.1879    0.0000 C   0  0  0  0  0  0  0  0  0  0  0  0
    8.5816    1.1970    0.0000 C   0  0  2  0  0  0  0  0  0  0  0  0
    9.4476    0.6970    0.0000 C   0  0  2  0  0  0  0  0  0  0  0  0
   10.3136    1.1970    0.0000 C   0  0  0  0  0  0  0  0  0  0  0  0
   10.3136    2.1970    0.0000 C   0  0  0  0  0  0  0  0  0  0  0  0
    4.5691   -1.4750    0.0000 C   0  0  0  0  0  0  0  0  0  0  0  0
   10.3136   -0.8030    0.0000 C   0  0  0  0  0  0  0  0  0  0  0  0
   11.1796   -2.3030    0.0000 C   0  0  0  0  0  0  0  0  0  0  0  0
   10.3136   -1.8030    0.0000 C   0  0  0  0  0  0  0  0  0  0  0  0
   12.1259   -1.9982    0.0000 C   0  0  0  0  0  0  0  0  0  0  0  0
   11.1796   -3.3030    0.0000 C   0  0  0  0  0  0  0  0  0  0  0  0
   12.7095   -2.8030    0.0000 C   0  0  0  0  0  0  0  0  0  0  0  0
    3.6180   -1.7840    0.0000 C   0  0  0  0  0  0  0  0  0  0  0  0
    9.4476    2.6970    0.0000 C   0  0  0  0  0  0  0  0  0  0  0  0
   11.1796    2.6970    0.0000 C   0  0  0  0  0  0  0  0  0  0  0  0
    9.4476   -2.3030    0.0000 C   0  0  0  0  0  0  0  0  0  0  0  0
   10.3136   -3.8030    0.0000 C   0  0  0  0  0  0  0  0  0  0  0  0
    9.4476   -3.3030    0.0000 C   0  0  0  0  0  0  0  0  0  0  0  0
    9.4476    3.6970    0.0000 C   0  0  0  0  0  0  0  0  0  0  0  0
   11.1796    3.6970    0.0000 C   0  0  0  0  0  0  0  0  0  0  0  0
    2.8090   -1.1962    0.0000 C   0  0  0  0  0  0  0  0  0  0  0  0
   10.3136    4.1970    0.0000 C   0  0  0  0  0  0  0  0  0  0  0  0
    2.0000   -1.7840    0.0000 C   0  0  0  0  0  0  0  0  0  0  0  0
    2.3090   -2.7351    0.0000 C   0  0  0  0  0  0  0  0  0  0  0  0
    6.4178    0.4001    0.0000 H   0  0  0  0  0  0  0  0  0  0  0  0
    7.3650    2.1916    0.0000 H   0  0  0  0  0  0  0  0  0  0  0  0
    6.8098    2.8082    0.0000 H   0  0  0  0  0  0  0  0  0  0  0  0
    4.7108    2.5704    0.0000 H   0  0  0  0  0  0  0  0  0  0  0  0
    3.8639    2.3434    0.0000 H   0  0  0  0  0  0  0  0  0  0  0  0
    4.0908    1.4965    0.0000 H   0  0  0  0  0  0  0  0  0  0  0  0
    4.1088    1.3250    0.0000 H   0  0  0  0  0  0  0  0  0  0  0  0
    4.0630    0.4494    0.0000 H   0  0  0  0  0  0  0  0  0  0  0  0
    4.9386    0.4036    0.0000 H   0  0  0  0  0  0  0  0  0  0  0  0
    9.1185    1.5070    0.0000 H   0  0  0  0  0  0  0  0  0  0  0  0
    8.9107    0.3870    0.0000 H   0  0  0  0  0  0  0  0  0  0  0  0
   10.5257    0.6144    0.0000 H   0  0  0  0  0  0  0  0  0  0  0  0
   10.9242    1.3047    0.0000 H   0  0  0  0  0  0  0  0  0  0  0  0
    4.3162   -0.0820    0.0000 H   0  0  0  0  0  0  0  0  0  0  0  0
    8.9107   -0.6130    0.0000 H   0  0  0  0  0  0  0  0  0  0  0  0
    8.0446    2.5070    0.0000 H   0  0  0  0  0  0  0  0  0  0  0  0
    4.6554   -2.0890    0.0000 H   0  0  0  0  0  0  0  0  0  0  0  0
    5.1887   -1.4967    0.0000 H   0  0  0  0  0  0  0  0  0  0  0  0
   12.6632   -1.6890    0.0000 H   0  0  0  0  0  0  0  0  0  0  0  0
   11.8748   -1.4313    0.0000 H   0  0  0  0  0  0  0  0  0  0  0  0
   13.1703   -3.2177    0.0000 H   0  0  0  0  0  0  0  0  0  0  0  0
   13.1703   -2.3882    0.0000 H   0  0  0  0  0  0  0  0  0  0  0  0
   12.3185   -4.1970    0.0000 H   0  0  0  0  0  0  0  0  0  0  0  0
    8.9107    2.3870    0.0000 H   0  0  0  0  0  0  0  0  0  0  0  0
   11.7166    2.3870    0.0000 H   0  0  0  0  0  0  0  0  0  0  0  0
    8.9107   -1.9930    0.0000 H   0  0  0  0  0  0  0  0  0  0  0  0
   10.3136   -4.4230    0.0000 H   0  0  0  0  0  0  0  0  0  0  0  0
    8.9107   -3.6130    0.0000 H   0  0  0  0  0  0  0  0  0  0  0  0
    8.9107    4.0070    0.0000 H   0  0  0  0  0  0  0  0  0  0  0  0
   11.7166    4.0070    0.0000 H   0  0  0  0  0  0  0  0  0  0  0  0
    2.8090   -0.5763    0.0000 H   0  0  0  0  0  0  0  0  0  0  0  0
   10.3136    4.8170    0.0000 H   0  0  0  0  0  0  0  0  0  0  0  0
    1.4103   -1.5924    0.0000 H   0  0  0  0  0  0  0  0  0  0  0  0
    1.9446   -3.2367    0.0000 H   0  0  0  0  0  0  0  0  0  0  0  0
  1 11  1  0  0  0  0
  1 13  1  0  0  0  0
  2 29  1  0  0  0  0
  2 40  1  0  0  0  0
 18  3  1  1  0  0  0
  3 56  1  0  0  0  0
  4 16  2  0  0  0  0
  5 17  2  0  0  0  0
  6 23  2  0  0  0  0
  7 12  1  0  0  0  0
  7 13  1  0  0  0  0
  7 16  1  0  0  0  0
  8 17  1  0  0  0  0
  8 22  1  0  0  0  0
  8 54  1  0  0  0  0
 19  9  1  6  0  0  0
  9 23  1  0  0  0  0
  9 55  1  0  0  0  0
 10 27  1  0  0  0  0
 10 28  1  0  0  0  0
 10 63  1  0  0  0  0
 11 12  1  0  0  0  0
 11 14  1  0  0  0  0
 11 15  1  0  0  0  0
 12 17  1  6  0  0  0
 12 41  1  0  0  0  0
 13 42  1  0  0  0  0
 13 43  1  0  0  0  0
 14 44  1  0  0  0  0
 14 45  1  0  0  0  0
 14 46  1  0  0  0  0
 15 47  1  0  0  0  0
 15 48  1  0  0  0  0
 15 49  1  0  0  0  0
 16 18  1  0  0  0  0
 18 19  1  0  0  0  0
 18 50  1  0  0  0  0
 19 20  1  0  0  0  0
 19 51  1  0  0  0  0
 20 21  1  0  0  0  0
 20 52  1  0  0  0  0
 20 53  1  0  0  0  0
 21 30  2  0  0  0  0
 21 31  1  0  0  0  0
 22 29  1  0  0  0  0
 22 57  1  0  0  0  0
 22 58  1  0  0  0  0
 23 25  1  0  0  0  0
 24 25  2  0  0  0  0
 24 26  1  0  0  0  0
 24 27  1  0  0  0  0
 25 32  1  0  0  0  0
 26 28  1  0  0  0  0
 26 59  1  0  0  0  0
 26 60  1  0  0  0  0
 27 33  2  0  0  0  0
 28 61  1  0  0  0  0
 28 62  1  0  0  0  0
 29 37  2  0  0  0  0
 30 35  1  0  0  0  0
 30 64  1  0  0  0  0
 31 36  2  0  0  0  0
 31 65  1  0  0  0  0
 32 34  2  0  0  0  0
 32 66  1  0  0  0  0
 33 34  1  0  0  0  0
 33 67  1  0  0  0  0
 34 68  1  0  0  0  0
 35 38  2  0  0  0  0
 35 69  1  0  0  0  0
 36 38  1  0  0  0  0
 36 70  1  0  0  0  0
 37 39  1  0  0  0  0
 37 71  1  0  0  0  0
 38 72  1  0  0  0  0
 39 40  2  0  0  0  0
 39 73  1  0  0  0  0
 40 74  1  0  0  0  0
M  END
> <PUBCHEM_COMPOUND_CID>
514664
> <PUBCHEM_COMPOUND_CANONICALIZED>
1
> <PUBCHEM_CACTVS_COMPLEXITY>
914
> <PUBCHEM_CACTVS_HBOND_ACCEPTOR>
7
> <PUBCHEM_CACTVS_HBOND_DONOR>
4
> <PUBCHEM_CACTVS_ROTATABLE_BOND>
9
> <PUBCHEM_CACTVS_SUBSKEYS>
AAADcfB7uABgAAAAAAAAAAAAAAAAAWLEgAAwYAAAAAAAAFgB0AAAHgQQCAAADDzl2AaywYPAAgiMAiVSUAKDAIBlChBIiJnIZMgKcDrg1bGUYQhklgD4yYecyaCOgAAAQAASAAAAAACAACQAAAAAAAAAAA==
> <PUBCHEM_IUPAC_OPENEYE_NAME>
(4R)-3-[(2S,3S)-2-hydroxy-3-(indoline-4-carbonylamino)-4-phenyl-butanoyl]-5,5-dimethyl-N-(2-thienylmethyl)thiazolidine-4-carboxamide
> <PUBCHEM_IUPAC_CAS_NAME>
(4R)-3-[(2S,3S)-3-[[2,3-dihydro-1H-indol-4-yl(oxo)methyl]amino]-2-hydroxy-1-oxo-4-phenylbutyl]-5,5-dimethyl-N-(thiophen-2-ylmethyl)-4-thiazolidinecarboxamide
> <PUBCHEM_IUPAC_NAME_MARKUP>
(4<I>R</I>)-3-[(2<I>S</I>,3<I>S</I>)-3-(2,3-dihydro-1<I>H</I>-indole-4-carbonylamino)-2-hydroxy-4-phenylbutanoyl]-5,5-dimethyl-<I>N</I>-(thiophen-2-ylmethyl)-1,3-thiazolidine-4-carboxamide
> <PUBCHEM_IUPAC_NAME>
(4R)-3-[(2S,3S)-3-(2,3-dihydro-1H-indole-4-carbonylamino)-2-hydroxy-4-phenylbutanoyl]-5,5-dimethyl-N-(thiophen-2-ylmethyl)-1,3-thiazolidine-4-carboxamide
> <PUBCHEM_IUPAC_SYSTEMATIC_NAME>
(4R)-3-[(2S,3S)-3-(2,3-dihydro-1H-indol-4-ylcarbonylamino)-2-oxidanyl-4-phenyl-butanoyl]-5,5-dimethyl-N-(thiophen-2-ylmethyl)-1,3-thiazolidine-4-carboxamide
> <PUBCHEM_IUPAC_TRADITIONAL_NAME>
(4R)-3-[(2S,3S)-2-hydroxy-3-(indoline-4-carbonylamino)-4-phenyl-butanoyl]-5,5-dimethyl-N-(2-thenyl)thiazolidine-4-carboxamide
> <PUBCHEM_IUPAC_INCHI>
InChI=1S/C30H34N4O4S2/c1-30(2)26(28(37)32-17-20-10-7-15-39-20)34(18-40-30)29(38)25(35)24(16-19-8-4-3-5-9-19)33-27(36)22-11-6-12-23-21(22)13-14-31-23/h3-12,15,24-26,31,35H,13-14,16-18H2,1-2H3,(H,32,37)(H,33,36)/t24-,25-,26+/m0/s1
> <PUBCHEM_IUPAC_INCHIKEY>
LAOLVFLAWNQWDR-KKUQBAQOSA-N
> <PUBCHEM_XLOGP3_AA>
3.8
> <PUBCHEM_EXACT_MASS>
578.20214793
> <PUBCHEM_MOLECULAR_FORMULA>
C30H34N4O4S2
> <PUBCHEM_MOLECULAR_WEIGHT>
578.7
> <PUBCHEM_OPENEYE_CAN_SMILES>
CC1(C(N(CS1)C(=O)C(C(CC2=CC=CC=C2)NC(=O)C3=C4CCNC4=CC=C3)O)C(=O)NCC5=CC=CS5)C
> <PUBCHEM_OPENEYE_ISO_SMILES>
CC1([C@H](N(CS1)C(=O)[C@H]([C@H](CC2=CC=CC=C2)NC(=O)C3=C4CCNC4=CC=C3)O)C(=O)NCC5=CC=CS5)C
> <PUBCHEM_CACTVS_TPSA>
164
> <PUBCHEM_MONOISOTOPIC_WEIGHT>
578.20214793
> <PUBCHEM_TOTAL_CHARGE>
0
> <PUBCHEM_HEAVY_ATOM_COUNT>
40
> <PUBCHEM_ATOM_DEF_STEREO_COUNT>
3
> <PUBCHEM_ATOM_UDEF_STEREO_COUNT>
0
> <PUBCHEM_BOND_DEF_STEREO_COUNT>
0
> <PUBCHEM_BOND_UDEF_STEREO_COUNT>
0
> <PUBCHEM_ISOTOPIC_ATOM_COUNT>
0
> <PUBCHEM_COMPONENT_COUNT>
1
> <PUBCHEM_CACTVS_TAUTO_COUNT>
-1
> <PUBCHEM_COORDINATE_TYPE>
1
5
255
> <PUBCHEM_BONDANNOTATIONS>
12  17  6
2  29  8
2  40  8
21  30  8
21  31  8
24  25  8
24  27  8
25  32  8
27  33  8
29  37  8
18  3  5
30  35  8
31  36  8
32  34  8
33  34  8
35  38  8
36  38  8
37  39  8
39  40  8
19  9  6
$$$$
