514655
  -OEChem-10302200282D
 76 78  0     1  0  0  0  0  0999 V2000
    9.1448    3.0124    0.0000 F   0  0  0  0  0  0  0  0  0  0  0  0
    8.0709    3.4906    0.0000 F   0  0  0  0  0  0  0  0  0  0  0  0
    5.4641    4.3100    0.0000 F   0  0  0  0  0  0  0  0  0  0  0  0
    7.5745   -0.7440    0.0000 O   0  0  0  0  0  0  0  0  0  0  0  0
    6.3301   -0.1900    0.0000 O   0  0  0  0  0  0  0  0  0  0  0  0
    5.4641    2.3100    0.0000 O   0  0  0  0  0  0  0  0  0  0  0  0
    2.8660   -0.1900    0.0000 O   0  0  0  0  0  0  0  0  0  0  0  0
    2.0000   -3.6900    0.0000 O   0  0  0  0  0  0  0  0  0  0  0  0
    7.1962    1.3100    0.0000 N   0  0  0  0  0  0  0  0  0  0  0  0
    9.2687   -0.3839    0.0000 N   0  0  0  0  0  0  0  0  0  0  0  0
    4.5981   -0.1900    0.0000 N   0  0  0  0  0  0  0  0  0  0  0  0
    8.7788    1.6464    0.0000 C   0  0  0  0  0  0  0  0  0  0  0  0
    8.1097    0.9033    0.0000 C   0  0  1  0  0  0  0  0  0  0  0  0
    8.2788    2.5124    0.0000 C   0  0  0  0  0  0  0  0  0  0  0  0
    7.3007    2.3045    0.0000 C   0  0  0  0  0  0  0  0  0  0  0  0
    9.6448    2.1464    0.0000 C   0  0  0  0  0  0  0  0  0  0  0  0
    9.5220    0.9773    0.0000 C   0  0  0  0  0  0  0  0  0  0  0  0
    8.3176   -0.0749    0.0000 C   0  0  0  0  0  0  0  0  0  0  0  0
    6.3301    0.8100    0.0000 C   0  0  0  0  0  0  0  0  0  0  0  0
    5.4641    1.3100    0.0000 C   0  0  2  0  0  0  0  0  0  0  0  0
    4.5981    0.8100    0.0000 C   0  0  2  0  0  0  0  0  0  0  0  0
    9.4766   -1.3620    0.0000 C   0  0  0  0  0  0  0  0  0  0  0  0
    3.7320    1.3100    0.0000 C   0  0  0  0  0  0  0  0  0  0  0  0
   10.4276   -1.6711    0.0000 C   0  0  0  0  0  0  0  0  0  0  0  0
    3.7320    2.3100    0.0000 C   0  0  0  0  0  0  0  0  0  0  0  0
   10.6355   -2.6492    0.0000 C   0  0  0  0  0  0  0  0  0  0  0  0
   11.1708   -1.0019    0.0000 C   0  0  0  0  0  0  0  0  0  0  0  0
    3.7320   -0.6900    0.0000 C   0  0  0  0  0  0  0  0  0  0  0  0
    4.5981    2.8100    0.0000 C   0  0  0  0  0  0  0  0  0  0  0  0
    2.8660    2.8100    0.0000 C   0  0  0  0  0  0  0  0  0  0  0  0
    3.7320   -1.6900    0.0000 C   0  0  0  0  0  0  0  0  0  0  0  0
    4.5981    3.8100    0.0000 C   0  0  0  0  0  0  0  0  0  0  0  0
    2.8660    3.8100    0.0000 C   0  0  0  0  0  0  0  0  0  0  0  0
    2.8660   -2.1900    0.0000 C   0  0  0  0  0  0  0  0  0  0  0  0
    3.7320    4.3100    0.0000 C   0  0  0  0  0  0  0  0  0  0  0  0
    4.5981   -2.1900    0.0000 C   0  0  0  0  0  0  0  0  0  0  0  0
    2.8660   -3.1900    0.0000 C   0  0  0  0  0  0  0  0  0  0  0  0
    2.0000   -1.6900    0.0000 C   0  0  0  0  0  0  0  0  0  0  0  0
    4.5981   -3.1900    0.0000 C   0  0  0  0  0  0  0  0  0  0  0  0
    3.7320   -3.6900    0.0000 C   0  0  0  0  0  0  0  0  0  0  0  0
    7.6279    0.5131    0.0000 H   0  0  0  0  0  0  0  0  0  0  0  0
    7.2359    2.9211    0.0000 H   0  0  0  0  0  0  0  0  0  0  0  0
    6.6807    2.3045    0.0000 H   0  0  0  0  0  0  0  0  0  0  0  0
    9.9548    1.6095    0.0000 H   0  0  0  0  0  0  0  0  0  0  0  0
   10.1818    2.4564    0.0000 H   0  0  0  0  0  0  0  0  0  0  0  0
    9.3348    2.6833    0.0000 H   0  0  0  0  0  0  0  0  0  0  0  0
    9.1071    0.5165    0.0000 H   0  0  0  0  0  0  0  0  0  0  0  0
    9.9827    0.5624    0.0000 H   0  0  0  0  0  0  0  0  0  0  0  0
    9.9368    1.4380    0.0000 H   0  0  0  0  0  0  0  0  0  0  0  0
    6.0010    1.6200    0.0000 H   0  0  0  0  0  0  0  0  0  0  0  0
    9.7294    0.0310    0.0000 H   0  0  0  0  0  0  0  0  0  0  0  0
    5.1350    0.5000    0.0000 H   0  0  0  0  0  0  0  0  0  0  0  0
    8.8570   -1.3837    0.0000 H   0  0  0  0  0  0  0  0  0  0  0  0
    9.3903   -1.9760    0.0000 H   0  0  0  0  0  0  0  0  0  0  0  0
    3.1215    1.4177    0.0000 H   0  0  0  0  0  0  0  0  0  0  0  0
    3.5200    0.7274    0.0000 H   0  0  0  0  0  0  0  0  0  0  0  0
   10.2987   -1.0646    0.0000 H   0  0  0  0  0  0  0  0  0  0  0  0
    5.1350   -0.5000    0.0000 H   0  0  0  0  0  0  0  0  0  0  0  0
    6.0010    2.6200    0.0000 H   0  0  0  0  0  0  0  0  0  0  0  0
   10.0291   -2.7781    0.0000 H   0  0  0  0  0  0  0  0  0  0  0  0
   10.7645   -3.2557    0.0000 H   0  0  0  0  0  0  0  0  0  0  0  0
   11.2420   -2.5203    0.0000 H   0  0  0  0  0  0  0  0  0  0  0  0
   11.5856   -1.4627    0.0000 H   0  0  0  0  0  0  0  0  0  0  0  0
   11.6315   -0.5871    0.0000 H   0  0  0  0  0  0  0  0  0  0  0  0
   10.7559   -0.5412    0.0000 H   0  0  0  0  0  0  0  0  0  0  0  0
    5.1350    2.5000    0.0000 H   0  0  0  0  0  0  0  0  0  0  0  0
    2.3291    2.5000    0.0000 H   0  0  0  0  0  0  0  0  0  0  0  0
    2.3291    4.1200    0.0000 H   0  0  0  0  0  0  0  0  0  0  0  0
    3.7320    4.9300    0.0000 H   0  0  0  0  0  0  0  0  0  0  0  0
    5.1350   -1.8800    0.0000 H   0  0  0  0  0  0  0  0  0  0  0  0
    2.3100   -1.1531    0.0000 H   0  0  0  0  0  0  0  0  0  0  0  0
    1.4631   -1.3800    0.0000 H   0  0  0  0  0  0  0  0  0  0  0  0
    1.6900   -2.2269    0.0000 H   0  0  0  0  0  0  0  0  0  0  0  0
    5.1350   -3.5000    0.0000 H   0  0  0  0  0  0  0  0  0  0  0  0
    3.7320   -4.3100    0.0000 H   0  0  0  0  0  0  0  0  0  0  0  0
    2.0000   -4.3100    0.0000 H   0  0  0  0  0  0  0  0  0  0  0  0
  1 14  1  0  0  0  0
  2 14  1  0  0  0  0
  3 32  1  0  0  0  0
  4 18  2  0  0  0  0
  5 19  2  0  0  0  0
 20  6  1  6  0  0  0
  6 59  1  0  0  0  0
  7 28  2  0  0  0  0
  8 37  1  0  0  0  0
  8 76  1  0  0  0  0
  9 13  1  0  0  0  0
  9 15  1  0  0  0  0
  9 19  1  0  0  0  0
 10 18  1  0  0  0  0
 10 22  1  0  0  0  0
 10 51  1  0  0  0  0
 21 11  1  1  0  0  0
 11 28  1  0  0  0  0
 11 58  1  0  0  0  0
 12 13  1  0  0  0  0
 12 14  1  0  0  0  0
 12 16  1  0  0  0  0
 12 17  1  0  0  0  0
 13 18  1  1  0  0  0
 13 41  1  0  0  0  0
 14 15  1  0  0  0  0
 15 42  1  0  0  0  0
 15 43  1  0  0  0  0
 16 44  1  0  0  0  0
 16 45  1  0  0  0  0
 16 46  1  0  0  0  0
 17 47  1  0  0  0  0
 17 48  1  0  0  0  0
 17 49  1  0  0  0  0
 19 20  1  0  0  0  0
 20 21  1  0  0  0  0
 20 50  1  0  0  0  0
 21 23  1  0  0  0  0
 21 52  1  0  0  0  0
 22 24  1  0  0  0  0
 22 53  1  0  0  0  0
 22 54  1  0  0  0  0
 23 25  1  0  0  0  0
 23 55  1  0  0  0  0
 23 56  1  0  0  0  0
 24 26  1  0  0  0  0
 24 27  1  0  0  0  0
 24 57  1  0  0  0  0
 25 29  2  0  0  0  0
 25 30  1  0  0  0  0
 26 60  1  0  0  0  0
 26 61  1  0  0  0  0
 26 62  1  0  0  0  0
 27 63  1  0  0  0  0
 27 64  1  0  0  0  0
 27 65  1  0  0  0  0
 28 31  1  0  0  0  0
 29 32  1  0  0  0  0
 29 66  1  0  0  0  0
 30 33  2  0  0  0  0
 30 67  1  0  0  0  0
 31 34  2  0  0  0  0
 31 36  1  0  0  0  0
 32 35  2  0  0  0  0
 33 35  1  0  0  0  0
 33 68  1  0  0  0  0
 34 37  1  0  0  0  0
 34 38  1  0  0  0  0
 35 69  1  0  0  0  0
 36 39  2  0  0  0  0
 36 70  1  0  0  0  0
 37 40  2  0  0  0  0
 38 71  1  0  0  0  0
 38 72  1  0  0  0  0
 38 73  1  0  0  0  0
 39 40  1  0  0  0  0
 39 74  1  0  0  0  0
 40 75  1  0  0  0  0
M  END
> <PUBCHEM_COMPOUND_CID>
514655
> <PUBCHEM_COMPOUND_CANONICALIZED>
1
> <PUBCHEM_CACTVS_COMPLEXITY>
917
> <PUBCHEM_CACTVS_HBOND_ACCEPTOR>
8
> <PUBCHEM_CACTVS_HBOND_DONOR>
4
> <PUBCHEM_CACTVS_ROTATABLE_BOND>
9
> <PUBCHEM_CACTVS_SUBSKEYS>
AAADcfB7OYAAAAAAAAAAAAAAAAAAAWAAAAAwYAAAAAAAAAABQAAAHwAQCAAADzzhmB4yBoPAAgCIAiFSEAKCAAAkIAAIiIHODMgKdjqC1TOUcQhk1hGYmYe6ybCPgAABAAAYAAAAAAIAADAAAAAAAAAAAA==
> <PUBCHEM_IUPAC_OPENEYE_NAME>
(2S)-4,4-difluoro-1-[(2S,3S)-4-(3-fluorophenyl)-2-hydroxy-3-[(3-hydroxy-2-methyl-benzoyl)amino]butanoyl]-N-isobutyl-3,3-dimethyl-pyrrolidine-2-carboxamide
> <PUBCHEM_IUPAC_CAS_NAME>
(2S)-4,4-difluoro-1-[(2S,3S)-4-(3-fluorophenyl)-2-hydroxy-3-[[(3-hydroxy-2-methylphenyl)-oxomethyl]amino]-1-oxobutyl]-3,3-dimethyl-N-(2-methylpropyl)-2-pyrrolidinecarboxamide
> <PUBCHEM_IUPAC_NAME_MARKUP>
(2<I>S</I>)-4,4-difluoro-1-[(2<I>S</I>,3<I>S</I>)-4-(3-fluorophenyl)-2-hydroxy-3-[(3-hydroxy-2-methylbenzoyl)amino]butanoyl]-3,3-dimethyl-<I>N</I>-(2-methylpropyl)pyrrolidine-2-carboxamide
> <PUBCHEM_IUPAC_NAME>
(2S)-4,4-difluoro-1-[(2S,3S)-4-(3-fluorophenyl)-2-hydroxy-3-[(3-hydroxy-2-methylbenzoyl)amino]butanoyl]-3,3-dimethyl-N-(2-methylpropyl)pyrrolidine-2-carboxamide
> <PUBCHEM_IUPAC_SYSTEMATIC_NAME>
(2S)-4,4-bis(fluoranyl)-1-[(2S,3S)-4-(3-fluorophenyl)-3-[(2-methyl-3-oxidanyl-phenyl)carbonylamino]-2-oxidanyl-butanoyl]-3,3-dimethyl-N-(2-methylpropyl)pyrrolidine-2-carboxamide
> <PUBCHEM_IUPAC_TRADITIONAL_NAME>
(2S)-4,4-difluoro-1-[(2S,3S)-4-(3-fluorophenyl)-2-hydroxy-3-[(3-hydroxy-2-methyl-benzoyl)amino]butanoyl]-N-isobutyl-3,3-dimethyl-pyrrolidine-2-carboxamide
> <PUBCHEM_IUPAC_INCHI>
InChI=1S/C29H36F3N3O5/c1-16(2)14-33-26(39)24-28(4,5)29(31,32)15-35(24)27(40)23(37)21(13-18-8-6-9-19(30)12-18)34-25(38)20-10-7-11-22(36)17(20)3/h6-12,16,21,23-24,36-37H,13-15H2,1-5H3,(H,33,39)(H,34,38)/t21-,23-,24+/m0/s1
> <PUBCHEM_IUPAC_INCHIKEY>
HDWYQSIMWJRXBD-OEMFJLHTSA-N
> <PUBCHEM_XLOGP3_AA>
4.6
> <PUBCHEM_EXACT_MASS>
563.26070574
> <PUBCHEM_MOLECULAR_FORMULA>
C29H36F3N3O5
> <PUBCHEM_MOLECULAR_WEIGHT>
563.6
> <PUBCHEM_OPENEYE_CAN_SMILES>
CC1=C(C=CC=C1O)C(=O)NC(CC2=CC(=CC=C2)F)C(C(=O)N3CC(C(C3C(=O)NCC(C)C)(C)C)(F)F)O
> <PUBCHEM_OPENEYE_ISO_SMILES>
CC1=C(C=CC=C1O)C(=O)N[C@@H](CC2=CC(=CC=C2)F)[C@@H](C(=O)N3CC(C([C@H]3C(=O)NCC(C)C)(C)C)(F)F)O
> <PUBCHEM_CACTVS_TPSA>
119
> <PUBCHEM_MONOISOTOPIC_WEIGHT>
563.26070574
> <PUBCHEM_TOTAL_CHARGE>
0
> <PUBCHEM_HEAVY_ATOM_COUNT>
40
> <PUBCHEM_ATOM_DEF_STEREO_COUNT>
3
> <PUBCHEM_ATOM_UDEF_STEREO_COUNT>
0
> <PUBCHEM_BOND_DEF_STEREO_COUNT>
0
> <PUBCHEM_BOND_UDEF_STEREO_COUNT>
0
> <PUBCHEM_ISOTOPIC_ATOM_COUNT>
0
> <PUBCHEM_COMPONENT_COUNT>
1
> <PUBCHEM_CACTVS_TAUTO_COUNT>
-1
> <PUBCHEM_COORDINATE_TYPE>
1
5
255
> <PUBCHEM_BONDANNOTATIONS>
21  11  5
13  18  5
25  29  8
25  30  8
29  32  8
30  33  8
31  34  8
31  36  8
32  35  8
33  35  8
34  37  8
36  39  8
37  40  8
39  40  8
20  6  6
$$$$
