514683
  -OEChem-10302200282D
 74 76  0     1  0  0  0  0  0999 V2000
    6.5468    3.3539    0.0000 S   0  0  0  0  0  0  0  0  0  0  0  0
    8.2798    1.1267    0.0000 O   0  0  0  0  0  0  0  0  0  0  0  0
    3.7320    2.1515    0.0000 O   0  0  0  0  0  0  0  0  0  0  0  0
    5.8424    0.0975    0.0000 O   0  0  0  0  0  0  0  0  0  0  0  0
    9.2308    0.8177    0.0000 O   0  0  0  0  0  0  0  0  0  0  0  0
    6.3776    1.7447    0.0000 N   0  0  0  0  0  0  0  0  0  0  0  0
    4.5981    0.6515    0.0000 N   0  0  0  0  0  0  0  0  0  0  0  0
    8.6956   -0.8296    0.0000 N   0  0  0  0  0  0  0  0  0  0  0  0
    5.5686    3.1460    0.0000 C   0  0  0  0  0  0  0  0  0  0  0  0
    5.4641    2.1515    0.0000 C   0  0  1  0  0  0  0  0  0  0  0  0
    7.0468    2.4879    0.0000 C   0  0  0  0  0  0  0  0  0  0  0  0
    5.3607    4.1242    0.0000 C   0  0  0  0  0  0  0  0  0  0  0  0
    4.5741    3.2505    0.0000 C   0  0  0  0  0  0  0  0  0  0  0  0
    4.5981    1.6515    0.0000 C   0  0  0  0  0  0  0  0  0  0  0  0
    6.5856    0.7666    0.0000 C   0  0  0  0  0  0  0  0  0  0  0  0
    7.5366    0.4576    0.0000 C   0  0  2  0  0  0  0  0  0  0  0  0
    7.7445   -0.5206    0.0000 C   0  0  2  0  0  0  0  0  0  0  0  0
    7.0014   -1.1897    0.0000 C   0  0  0  0  0  0  0  0  0  0  0  0
    3.7320    0.1515    0.0000 C   0  0  0  0  0  0  0  0  0  0  0  0
    7.2093   -2.1678    0.0000 C   0  0  0  0  0  0  0  0  0  0  0  0
    3.7320   -0.8485    0.0000 C   0  0  0  0  0  0  0  0  0  0  0  0
    9.4387   -0.1605    0.0000 C   0  0  0  0  0  0  0  0  0  0  0  0
    8.1604   -2.4769    0.0000 C   0  0  0  0  0  0  0  0  0  0  0  0
    6.4662   -2.8370    0.0000 C   0  0  0  0  0  0  0  0  0  0  0  0
    2.8660   -1.3485    0.0000 C   0  0  0  0  0  0  0  0  0  0  0  0
    4.5981   -1.3485    0.0000 C   0  0  0  0  0  0  0  0  0  0  0  0
   10.3898   -0.4695    0.0000 C   0  0  0  0  0  0  0  0  0  0  0  0
    8.3683   -3.4550    0.0000 C   0  0  0  0  0  0  0  0  0  0  0  0
    6.6741   -3.8151    0.0000 C   0  0  0  0  0  0  0  0  0  0  0  0
    2.8660   -2.3485    0.0000 C   0  0  0  0  0  0  0  0  0  0  0  0
    7.6251   -4.1242    0.0000 C   0  0  0  0  0  0  0  0  0  0  0  0
    2.0000   -0.8485    0.0000 C   0  0  0  0  0  0  0  0  0  0  0  0
    4.5981   -2.3485    0.0000 C   0  0  0  0  0  0  0  0  0  0  0  0
    3.7320   -2.8485    0.0000 C   0  0  0  0  0  0  0  0  0  0  0  0
   11.1329    0.1997    0.0000 C   0  0  0  0  0  0  0  0  0  0  0  0
   12.0840   -0.1094    0.0000 C   0  0  0  0  0  0  0  0  0  0  0  0
   10.9250    1.1778    0.0000 C   0  0  0  0  0  0  0  0  0  0  0  0
    5.4966    1.5323    0.0000 H   0  0  0  0  0  0  0  0  0  0  0  0
    7.4616    2.0271    0.0000 H   0  0  0  0  0  0  0  0  0  0  0  0
    7.5484    2.8523    0.0000 H   0  0  0  0  0  0  0  0  0  0  0  0
    5.9672    4.2530    0.0000 H   0  0  0  0  0  0  0  0  0  0  0  0
    5.2318    4.7306    0.0000 H   0  0  0  0  0  0  0  0  0  0  0  0
    4.7543    3.9952    0.0000 H   0  0  0  0  0  0  0  0  0  0  0  0
    4.6389    3.8671    0.0000 H   0  0  0  0  0  0  0  0  0  0  0  0
    3.9575    3.3153    0.0000 H   0  0  0  0  0  0  0  0  0  0  0  0
    4.5093    2.6339    0.0000 H   0  0  0  0  0  0  0  0  0  0  0  0
    7.4077    1.0640    0.0000 H   0  0  0  0  0  0  0  0  0  0  0  0
    8.2053   -0.1057    0.0000 H   0  0  0  0  0  0  0  0  0  0  0  0
    5.1350    0.3415    0.0000 H   0  0  0  0  0  0  0  0  0  0  0  0
    6.6728   -0.6639    0.0000 H   0  0  0  0  0  0  0  0  0  0  0  0
    6.4265   -1.4220    0.0000 H   0  0  0  0  0  0  0  0  0  0  0  0
    8.8245   -1.4360    0.0000 H   0  0  0  0  0  0  0  0  0  0  0  0
    3.5200    0.7341    0.0000 H   0  0  0  0  0  0  0  0  0  0  0  0
    3.1215    0.0438    0.0000 H   0  0  0  0  0  0  0  0  0  0  0  0
    8.1509    1.7332    0.0000 H   0  0  0  0  0  0  0  0  0  0  0  0
    8.6211   -2.0620    0.0000 H   0  0  0  0  0  0  0  0  0  0  0  0
    5.8765   -2.6454    0.0000 H   0  0  0  0  0  0  0  0  0  0  0  0
    5.1350   -1.0385    0.0000 H   0  0  0  0  0  0  0  0  0  0  0  0
   10.5187   -1.0759    0.0000 H   0  0  0  0  0  0  0  0  0  0  0  0
    8.9579   -3.6466    0.0000 H   0  0  0  0  0  0  0  0  0  0  0  0
    6.2133   -4.2300    0.0000 H   0  0  0  0  0  0  0  0  0  0  0  0
    2.3291   -2.6585    0.0000 H   0  0  0  0  0  0  0  0  0  0  0  0
    7.7540   -4.7306    0.0000 H   0  0  0  0  0  0  0  0  0  0  0  0
    2.3100   -0.3116    0.0000 H   0  0  0  0  0  0  0  0  0  0  0  0
    1.4631   -0.5385    0.0000 H   0  0  0  0  0  0  0  0  0  0  0  0
    1.6900   -1.3855    0.0000 H   0  0  0  0  0  0  0  0  0  0  0  0
    5.1350   -2.6585    0.0000 H   0  0  0  0  0  0  0  0  0  0  0  0
    3.7320   -3.4685    0.0000 H   0  0  0  0  0  0  0  0  0  0  0  0
   11.8924   -0.6990    0.0000 H   0  0  0  0  0  0  0  0  0  0  0  0
   12.6736   -0.3010    0.0000 H   0  0  0  0  0  0  0  0  0  0  0  0
   12.2756    0.4803    0.0000 H   0  0  0  0  0  0  0  0  0  0  0  0
   11.5315    1.3067    0.0000 H   0  0  0  0  0  0  0  0  0  0  0  0
   10.7961    1.7842    0.0000 H   0  0  0  0  0  0  0  0  0  0  0  0
   10.3186    1.0489    0.0000 H   0  0  0  0  0  0  0  0  0  0  0  0
  1  9  1  0  0  0  0
  1 11  1  0  0  0  0
 16  2  1  1  0  0  0
  2 55  1  0  0  0  0
  3 14  2  0  0  0  0
  4 15  2  0  0  0  0
  5 22  2  0  0  0  0
  6 10  1  0  0  0  0
  6 11  1  0  0  0  0
  6 15  1  0  0  0  0
  7 14  1  0  0  0  0
  7 19  1  0  0  0  0
  7 49  1  0  0  0  0
 17  8  1  1  0  0  0
  8 22  1  0  0  0  0
  8 52  1  0  0  0  0
  9 10  1  0  0  0  0
  9 12  1  0  0  0  0
  9 13  1  0  0  0  0
 10 14  1  6  0  0  0
 10 38  1  0  0  0  0
 11 39  1  0  0  0  0
 11 40  1  0  0  0  0
 12 41  1  0  0  0  0
 12 42  1  0  0  0  0
 12 43  1  0  0  0  0
 13 44  1  0  0  0  0
 13 45  1  0  0  0  0
 13 46  1  0  0  0  0
 15 16  1  0  0  0  0
 16 17  1  0  0  0  0
 16 47  1  0  0  0  0
 17 18  1  0  0  0  0
 17 48  1  0  0  0  0
 18 20  1  0  0  0  0
 18 50  1  0  0  0  0
 18 51  1  0  0  0  0
 19 21  1  0  0  0  0
 19 53  1  0  0  0  0
 19 54  1  0  0  0  0
 20 23  2  0  0  0  0
 20 24  1  0  0  0  0
 21 25  1  0  0  0  0
 21 26  2  0  0  0  0
 22 27  1  0  0  0  0
 23 28  1  0  0  0  0
 23 56  1  0  0  0  0
 24 29  2  0  0  0  0
 24 57  1  0  0  0  0
 25 30  2  0  0  0  0
 25 32  1  0  0  0  0
 26 33  1  0  0  0  0
 26 58  1  0  0  0  0
 27 35  2  0  0  0  0
 27 59  1  0  0  0  0
 28 31  2  0  0  0  0
 28 60  1  0  0  0  0
 29 31  1  0  0  0  0
 29 61  1  0  0  0  0
 30 34  1  0  0  0  0
 30 62  1  0  0  0  0
 31 63  1  0  0  0  0
 32 64  1  0  0  0  0
 32 65  1  0  0  0  0
 32 66  1  0  0  0  0
 33 34  2  0  0  0  0
 33 67  1  0  0  0  0
 34 68  1  0  0  0  0
 35 36  1  0  0  0  0
 35 37  1  0  0  0  0
 36 69  1  0  0  0  0
 36 70  1  0  0  0  0
 36 71  1  0  0  0  0
 37 72  1  0  0  0  0
 37 73  1  0  0  0  0
 37 74  1  0  0  0  0
M  END
> <PUBCHEM_COMPOUND_CID>
514683
> <PUBCHEM_COMPOUND_CANONICALIZED>
1
> <PUBCHEM_CACTVS_COMPLEXITY>
835
> <PUBCHEM_CACTVS_HBOND_ACCEPTOR>
5
> <PUBCHEM_CACTVS_HBOND_DONOR>
3
> <PUBCHEM_CACTVS_ROTATABLE_BOND>
9
> <PUBCHEM_CACTVS_SUBSKEYS>
AAADcfB7OABAAAAAAAAAAAAAAAAAAWAAAAAwYAAAAAAAAAABQAAAHgQQCAAADDzh2AayAIPAAgiIAiFSEAKCAABgABAIiIHIBMgKcDqg0TGUYAhklgCYiQeYyKCOgAAAAAAQAAAAAAAAACAAAAAAAAAAAA==
> <PUBCHEM_IUPAC_OPENEYE_NAME>
(4R)-3-[(2S,3S)-2-hydroxy-3-(3-methylbut-2-enoylamino)-4-phenyl-butanoyl]-5,5-dimethyl-N-(o-tolylmethyl)thiazolidine-4-carboxamide
> <PUBCHEM_IUPAC_CAS_NAME>
(4R)-3-[(2S,3S)-2-hydroxy-3-[(3-methyl-1-oxobut-2-enyl)amino]-1-oxo-4-phenylbutyl]-5,5-dimethyl-N-[(2-methylphenyl)methyl]-4-thiazolidinecarboxamide
> <PUBCHEM_IUPAC_NAME_MARKUP>
(4<I>R</I>)-3-[(2<I>S</I>,3<I>S</I>)-2-hydroxy-3-(3-methylbut-2-enoylamino)-4-phenylbutanoyl]-5,5-dimethyl-<I>N</I>-[(2-methylphenyl)methyl]-1,3-thiazolidine-4-carboxamide
> <PUBCHEM_IUPAC_NAME>
(4R)-3-[(2S,3S)-2-hydroxy-3-(3-methylbut-2-enoylamino)-4-phenylbutanoyl]-5,5-dimethyl-N-[(2-methylphenyl)methyl]-1,3-thiazolidine-4-carboxamide
> <PUBCHEM_IUPAC_SYSTEMATIC_NAME>
(4R)-5,5-dimethyl-3-[(2S,3S)-3-(3-methylbut-2-enoylamino)-2-oxidanyl-4-phenyl-butanoyl]-N-[(2-methylphenyl)methyl]-1,3-thiazolidine-4-carboxamide
> <PUBCHEM_IUPAC_TRADITIONAL_NAME>
(4R)-3-[(2S,3S)-2-hydroxy-3-(3-methylbut-2-enoylamino)-4-phenyl-butanoyl]-5,5-dimethyl-N-(2-methylbenzyl)thiazolidine-4-carboxamide
> <PUBCHEM_IUPAC_INCHI>
InChI=1S/C29H37N3O4S/c1-19(2)15-24(33)31-23(16-21-12-7-6-8-13-21)25(34)28(36)32-18-37-29(4,5)26(32)27(35)30-17-22-14-10-9-11-20(22)3/h6-15,23,25-26,34H,16-18H2,1-5H3,(H,30,35)(H,31,33)/t23-,25-,26+/m0/s1
> <PUBCHEM_IUPAC_INCHIKEY>
NTHCYLRUMBMVCM-AYRHNUGRSA-N
> <PUBCHEM_XLOGP3_AA>
4.3
> <PUBCHEM_EXACT_MASS>
523.25047784
> <PUBCHEM_MOLECULAR_FORMULA>
C29H37N3O4S
> <PUBCHEM_MOLECULAR_WEIGHT>
523.7
> <PUBCHEM_OPENEYE_CAN_SMILES>
CC1=CC=CC=C1CNC(=O)C2C(SCN2C(=O)C(C(CC3=CC=CC=C3)NC(=O)C=C(C)C)O)(C)C
> <PUBCHEM_OPENEYE_ISO_SMILES>
CC1=CC=CC=C1CNC(=O)[C@@H]2C(SCN2C(=O)[C@H]([C@H](CC3=CC=CC=C3)NC(=O)C=C(C)C)O)(C)C
> <PUBCHEM_CACTVS_TPSA>
124
> <PUBCHEM_MONOISOTOPIC_WEIGHT>
523.25047784
> <PUBCHEM_TOTAL_CHARGE>
0
> <PUBCHEM_HEAVY_ATOM_COUNT>
37
> <PUBCHEM_ATOM_DEF_STEREO_COUNT>
3
> <PUBCHEM_ATOM_UDEF_STEREO_COUNT>
0
> <PUBCHEM_BOND_DEF_STEREO_COUNT>
0
> <PUBCHEM_BOND_UDEF_STEREO_COUNT>
0
> <PUBCHEM_ISOTOPIC_ATOM_COUNT>
0
> <PUBCHEM_COMPONENT_COUNT>
1
> <PUBCHEM_CACTVS_TAUTO_COUNT>
-1
> <PUBCHEM_COORDINATE_TYPE>
1
5
255
> <PUBCHEM_BONDANNOTATIONS>
10  14  6
16  2  5
20  23  8
20  24  8
21  25  8
21  26  8
23  28  8
24  29  8
25  30  8
26  33  8
28  31  8
29  31  8
30  34  8
33  34  8
17  8  5
$$$$
