514692
  -OEChem-10302200282D
 94 98  0     1  0  0  0  0  0999 V2000
    8.9962   -1.0000    0.0000 S   0  0  0  0  0  0  0  0  0  0  0  0
    7.2641    2.0000    0.0000 O   0  0  0  0  0  0  0  0  0  0  0  0
    5.5321   -1.0000    0.0000 O   0  0  0  0  0  0  0  0  0  0  0  0
    8.9962   -2.0000    0.0000 O   0  0  0  0  0  0  0  0  0  0  0  0
    6.3981   -5.5000    0.0000 O   0  0  0  0  0  0  0  0  0  0  0  0
    7.2641   -7.0000    0.0000 O   0  0  0  0  0  0  0  0  0  0  0  0
    5.5321    1.0000    0.0000 N   0  0  3  0  0  0  0  0  0  0  0  0
    6.3981    3.5000    0.0000 N   0  0  0  0  0  0  0  0  0  0  0  0
    7.2641   -2.0000    0.0000 N   0  0  0  0  0  0  0  0  0  0  0  0
    3.8000    2.0000    0.0000 C   0  0  2  0  0  0  0  0  0  0  0  0
    3.8000    1.0000    0.0000 C   0  0  1  0  0  0  0  0  0  0  0  0
    4.6660    2.5000    0.0000 C   0  0  0  0  0  0  0  0  0  0  0  0
    4.6660    0.5000    0.0000 C   0  0  0  0  0  0  0  0  0  0  0  0
    2.9061    2.5347    0.0000 C   0  0  0  0  0  0  0  0  0  0  0  0
    2.9061    0.4653    0.0000 C   0  0  0  0  0  0  0  0  0  0  0  0
    5.5321    2.0000    0.0000 C   0  0  1  0  0  0  0  0  0  0  0  0
    2.0000    2.0208    0.0000 C   0  0  0  0  0  0  0  0  0  0  0  0
    2.0000    0.9792    0.0000 C   0  0  0  0  0  0  0  0  0  0  0  0
    6.3981    0.5000    0.0000 C   0  0  0  0  0  0  0  0  0  0  0  0
    6.3981    2.5000    0.0000 C   0  0  0  0  0  0  0  0  0  0  0  0
    6.3981   -0.5000    0.0000 C   0  0  2  0  0  0  0  0  0  0  0  0
    7.2641   -1.0000    0.0000 C   0  0  2  0  0  0  0  0  0  0  0  0
    8.1301   -0.5000    0.0000 C   0  0  0  0  0  0  0  0  0  0  0  0
    7.2641    4.0000    0.0000 C   0  0  0  0  0  0  0  0  0  0  0  0
    7.2641    5.0000    0.0000 C   0  0  0  0  0  0  0  0  0  0  0  0
    8.1301   -2.5000    0.0000 C   0  0  0  0  0  0  0  0  0  0  0  0
    8.1301    5.5000    0.0000 C   0  0  0  0  0  0  0  0  0  0  0  0
    6.3981    5.5000    0.0000 C   0  0  0  0  0  0  0  0  0  0  0  0
    8.1301   -3.5000    0.0000 C   0  0  0  0  0  0  0  0  0  0  0  0
    9.8622   -0.5000    0.0000 C   0  0  0  0  0  0  0  0  0  0  0  0
    8.1301    6.5000    0.0000 C   0  0  0  0  0  0  0  0  0  0  0  0
    8.9962    5.0000    0.0000 C   0  0  0  0  0  0  0  0  0  0  0  0
    6.3981    6.5000    0.0000 C   0  0  0  0  0  0  0  0  0  0  0  0
    7.2641   -4.0000    0.0000 C   0  0  0  0  0  0  0  0  0  0  0  0
    8.9962   -4.0000    0.0000 C   0  0  0  0  0  0  0  0  0  0  0  0
    7.2641    7.0000    0.0000 C   0  0  0  0  0  0  0  0  0  0  0  0
    9.8622    0.5000    0.0000 C   0  0  0  0  0  0  0  0  0  0  0  0
   10.7282   -1.0000    0.0000 C   0  0  0  0  0  0  0  0  0  0  0  0
    7.2641   -5.0000    0.0000 C   0  0  0  0  0  0  0  0  0  0  0  0
    6.3981   -3.5000    0.0000 C   0  0  0  0  0  0  0  0  0  0  0  0
    8.9962   -5.0000    0.0000 C   0  0  0  0  0  0  0  0  0  0  0  0
   10.7282    1.0000    0.0000 C   0  0  0  0  0  0  0  0  0  0  0  0
   11.5942   -0.5000    0.0000 C   0  0  0  0  0  0  0  0  0  0  0  0
    8.1301   -5.5000    0.0000 C   0  0  0  0  0  0  0  0  0  0  0  0
   11.5942    0.5000    0.0000 C   0  0  0  0  0  0  0  0  0  0  0  0
    6.3981   -6.5000    0.0000 C   0  0  0  0  0  0  0  0  0  0  0  0
    5.5321   -7.0000    0.0000 C   0  0  0  0  0  0  0  0  0  0  0  0
    3.8066    2.8500    0.0000 H   0  0  0  0  0  0  0  0  0  0  0  0
    3.8066    0.1500    0.0000 H   0  0  0  0  0  0  0  0  0  0  0  0
    5.0646    2.9750    0.0000 H   0  0  0  0  0  0  0  0  0  0  0  0
    4.2675    2.9750    0.0000 H   0  0  0  0  0  0  0  0  0  0  0  0
    4.2675    0.0251    0.0000 H   0  0  0  0  0  0  0  0  0  0  0  0
    5.0646    0.0251    0.0000 H   0  0  0  0  0  0  0  0  0  0  0  0
    3.3107    3.0044    0.0000 H   0  0  0  0  0  0  0  0  0  0  0  0
    2.5124    3.0137    0.0000 H   0  0  0  0  0  0  0  0  0  0  0  0
    2.5124   -0.0137    0.0000 H   0  0  0  0  0  0  0  0  0  0  0  0
    3.3107   -0.0044    0.0000 H   0  0  0  0  0  0  0  0  0  0  0  0
    6.0690    1.6900    0.0000 H   0  0  0  0  0  0  0  0  0  0  0  0
    1.7909    2.6045    0.0000 H   0  0  0  0  0  0  0  0  0  0  0  0
    1.3891    1.9147    0.0000 H   0  0  0  0  0  0  0  0  0  0  0  0
    1.3891    1.0853    0.0000 H   0  0  0  0  0  0  0  0  0  0  0  0
    1.7909    0.3955    0.0000 H   0  0  0  0  0  0  0  0  0  0  0  0
    7.0087    0.3923    0.0000 H   0  0  0  0  0  0  0  0  0  0  0  0
    6.6101    1.0826    0.0000 H   0  0  0  0  0  0  0  0  0  0  0  0
    6.3981   -1.1200    0.0000 H   0  0  0  0  0  0  0  0  0  0  0  0
    7.8010   -1.3100    0.0000 H   0  0  0  0  0  0  0  0  0  0  0  0
    5.8612    3.8100    0.0000 H   0  0  0  0  0  0  0  0  0  0  0  0
    5.5321   -1.6200    0.0000 H   0  0  0  0  0  0  0  0  0  0  0  0
    8.5287   -0.0251    0.0000 H   0  0  0  0  0  0  0  0  0  0  0  0
    7.7316   -0.0251    0.0000 H   0  0  0  0  0  0  0  0  0  0  0  0
    7.4762    3.4174    0.0000 H   0  0  0  0  0  0  0  0  0  0  0  0
    7.8747    4.1077    0.0000 H   0  0  0  0  0  0  0  0  0  0  0  0
    6.7272   -2.3100    0.0000 H   0  0  0  0  0  0  0  0  0  0  0  0
    5.8612    5.1900    0.0000 H   0  0  0  0  0  0  0  0  0  0  0  0
    8.6671    6.8100    0.0000 H   0  0  0  0  0  0  0  0  0  0  0  0
    8.6862    4.4631    0.0000 H   0  0  0  0  0  0  0  0  0  0  0  0
    9.5331    4.6900    0.0000 H   0  0  0  0  0  0  0  0  0  0  0  0
    9.3062    5.5369    0.0000 H   0  0  0  0  0  0  0  0  0  0  0  0
    5.8612    6.8100    0.0000 H   0  0  0  0  0  0  0  0  0  0  0  0
    9.5331   -3.6900    0.0000 H   0  0  0  0  0  0  0  0  0  0  0  0
    7.2641    7.6200    0.0000 H   0  0  0  0  0  0  0  0  0  0  0  0
    9.3252    0.8100    0.0000 H   0  0  0  0  0  0  0  0  0  0  0  0
   10.7282   -1.6200    0.0000 H   0  0  0  0  0  0  0  0  0  0  0  0
    6.7081   -2.9631    0.0000 H   0  0  0  0  0  0  0  0  0  0  0  0
    5.8612   -3.1900    0.0000 H   0  0  0  0  0  0  0  0  0  0  0  0
    6.0881   -4.0369    0.0000 H   0  0  0  0  0  0  0  0  0  0  0  0
    9.5331   -5.3100    0.0000 H   0  0  0  0  0  0  0  0  0  0  0  0
   10.7282    1.6200    0.0000 H   0  0  0  0  0  0  0  0  0  0  0  0
   12.1312   -0.8100    0.0000 H   0  0  0  0  0  0  0  0  0  0  0  0
    8.1301   -6.1200    0.0000 H   0  0  0  0  0  0  0  0  0  0  0  0
   12.1312    0.8100    0.0000 H   0  0  0  0  0  0  0  0  0  0  0  0
    5.2221   -6.4631    0.0000 H   0  0  0  0  0  0  0  0  0  0  0  0
    4.9951   -7.3100    0.0000 H   0  0  0  0  0  0  0  0  0  0  0  0
    5.8421   -7.5369    0.0000 H   0  0  0  0  0  0  0  0  0  0  0  0
  1 23  1  0  0  0  0
  1 30  1  0  0  0  0
  2 20  2  0  0  0  0
 21  3  1  6  0  0  0
  3 68  1  0  0  0  0
  4 26  2  0  0  0  0
  5 39  1  0  0  0  0
  5 46  1  0  0  0  0
  6 46  2  0  0  0  0
  7 13  1  0  0  0  0
  7 16  1  0  0  0  0
  7 19  1  0  0  0  0
  8 20  1  0  0  0  0
  8 24  1  0  0  0  0
  8 67  1  0  0  0  0
 22  9  1  6  0  0  0
  9 26  1  0  0  0  0
  9 73  1  0  0  0  0
 10 11  1  0  0  0  0
 10 12  1  0  0  0  0
 10 14  1  0  0  0  0
 10 48  1  6  0  0  0
 11 13  1  0  0  0  0
 11 15  1  0  0  0  0
 11 49  1  6  0  0  0
 12 16  1  0  0  0  0
 12 50  1  0  0  0  0
 12 51  1  0  0  0  0
 13 52  1  0  0  0  0
 13 53  1  0  0  0  0
 14 17  1  0  0  0  0
 14 54  1  0  0  0  0
 14 55  1  0  0  0  0
 15 18  1  0  0  0  0
 15 56  1  0  0  0  0
 15 57  1  0  0  0  0
 16 20  1  1  0  0  0
 16 58  1  0  0  0  0
 17 18  1  0  0  0  0
 17 59  1  0  0  0  0
 17 60  1  0  0  0  0
 18 61  1  0  0  0  0
 18 62  1  0  0  0  0
 19 21  1  0  0  0  0
 19 63  1  0  0  0  0
 19 64  1  0  0  0  0
 21 22  1  0  0  0  0
 21 65  1  0  0  0  0
 22 23  1  0  0  0  0
 22 66  1  0  0  0  0
 23 69  1  0  0  0  0
 23 70  1  0  0  0  0
 24 25  1  0  0  0  0
 24 71  1  0  0  0  0
 24 72  1  0  0  0  0
 25 27  1  0  0  0  0
 25 28  2  0  0  0  0
 26 29  1  0  0  0  0
 27 31  2  0  0  0  0
 27 32  1  0  0  0  0
 28 33  1  0  0  0  0
 28 74  1  0  0  0  0
 29 34  2  0  0  0  0
 29 35  1  0  0  0  0
 30 37  2  0  0  0  0
 30 38  1  0  0  0  0
 31 36  1  0  0  0  0
 31 75  1  0  0  0  0
 32 76  1  0  0  0  0
 32 77  1  0  0  0  0
 32 78  1  0  0  0  0
 33 36  2  0  0  0  0
 33 79  1  0  0  0  0
 34 39  1  0  0  0  0
 34 40  1  0  0  0  0
 35 41  2  0  0  0  0
 35 80  1  0  0  0  0
 36 81  1  0  0  0  0
 37 42  1  0  0  0  0
 37 82  1  0  0  0  0
 38 43  2  0  0  0  0
 38 83  1  0  0  0  0
 39 44  2  0  0  0  0
 40 84  1  0  0  0  0
 40 85  1  0  0  0  0
 40 86  1  0  0  0  0
 41 44  1  0  0  0  0
 41 87  1  0  0  0  0
 42 45  2  0  0  0  0
 42 88  1  0  0  0  0
 43 45  1  0  0  0  0
 43 89  1  0  0  0  0
 44 90  1  0  0  0  0
 45 91  1  0  0  0  0
 46 47  1  0  0  0  0
 47 92  1  0  0  0  0
 47 93  1  0  0  0  0
 47 94  1  0  0  0  0
M  END
> <PUBCHEM_COMPOUND_CID>
514692
> <PUBCHEM_COMPOUND_CANONICALIZED>
1
> <PUBCHEM_CACTVS_COMPLEXITY>
1020
> <PUBCHEM_CACTVS_HBOND_ACCEPTOR>
7
> <PUBCHEM_CACTVS_HBOND_DONOR>
3
> <PUBCHEM_CACTVS_ROTATABLE_BOND>
13
> <PUBCHEM_CACTVS_SUBSKEYS>
AAADcfB/OABAAAAAAAAAAAAAAAAAAAAAAAA8YMGCAAAAAACxUAAAHgQQCAAADTzl2AayD4PABgiIAiHSGACCCAAkKBAIiJmODMgOdjKk9TuWeyjk1hG4qYe6yLCOgAABAAAYAAAAAAIAADAAAAAAAAAAAA==
> <PUBCHEM_IUPAC_OPENEYE_NAME>
[3-[[(1R,2R)-3-[(3S,4aS,8aS)-3-(o-tolylmethylcarbamoyl)-3,4,4a,5,6,7,8,8a-octahydro-1H-isoquinolin-2-yl]-2-hydroxy-1-(phenylsulfanylmethyl)propyl]carbamoyl]-2-methyl-phenyl] acetate
> <PUBCHEM_IUPAC_CAS_NAME>
acetic acid [3-[[[(2R,3R)-4-[(3S,4aS,8aS)-3-[[(2-methylphenyl)methylamino]-oxomethyl]-3,4,4a,5,6,7,8,8a-octahydro-1H-isoquinolin-2-yl]-3-hydroxy-1-(phenylthio)butan-2-yl]amino]-oxomethyl]-2-methylphenyl] ester
> <PUBCHEM_IUPAC_NAME_MARKUP>
[3-[[(2<I>R</I>,3<I>R</I>)-4-[(3<I>S</I>,4<I>a</I><I>S</I>,8<I>a</I><I>S</I>)-3-[(2-methylphenyl)methylcarbamoyl]-3,4,4<I>a</I>,5,6,7,8,8<I>a</I>-octahydro-1<I>H</I>-isoquinolin-2-yl]-3-hydroxy-1-phenylsulfanylbutan-2-yl]carbamoyl]-2-methylphenyl] acetate
> <PUBCHEM_IUPAC_NAME>
[3-[[(2R,3R)-4-[(3S,4aS,8aS)-3-[(2-methylphenyl)methylcarbamoyl]-3,4,4a,5,6,7,8,8a-octahydro-1H-isoquinolin-2-yl]-3-hydroxy-1-phenylsulfanylbutan-2-yl]carbamoyl]-2-methylphenyl] acetate
> <PUBCHEM_IUPAC_SYSTEMATIC_NAME>
[3-[[(2R,3R)-4-[(3S,4aS,8aS)-3-[(2-methylphenyl)methylcarbamoyl]-3,4,4a,5,6,7,8,8a-octahydro-1H-isoquinolin-2-yl]-3-oxidanyl-1-phenylsulfanyl-butan-2-yl]carbamoyl]-2-methyl-phenyl] ethanoate
> <PUBCHEM_IUPAC_TRADITIONAL_NAME>
acetic acid [3-[[(1R,2R)-3-[(3S,4aS,8aS)-3-[(2-methylbenzyl)carbamoyl]-3,4,4a,5,6,7,8,8a-octahydro-1H-isoquinolin-2-yl]-2-hydroxy-1-[(phenylthio)methyl]propyl]carbamoyl]-2-methyl-phenyl] ester
> <PUBCHEM_IUPAC_INCHI>
InChI=1S/C38H47N3O5S/c1-25-12-7-8-14-29(25)21-39-38(45)34-20-28-13-9-10-15-30(28)22-41(34)23-35(43)33(24-47-31-16-5-4-6-17-31)40-37(44)32-18-11-19-36(26(32)2)46-27(3)42/h4-8,11-12,14,16-19,28,30,33-35,43H,9-10,13,15,20-24H2,1-3H3,(H,39,45)(H,40,44)/t28-,30+,33-,34-,35+/m0/s1
> <PUBCHEM_IUPAC_INCHIKEY>
SIEUMINXWMGQNN-YVPJGPODSA-N
> <PUBCHEM_XLOGP3_AA>
6.6
> <PUBCHEM_EXACT_MASS>
657.32364278
> <PUBCHEM_MOLECULAR_FORMULA>
C38H47N3O5S
> <PUBCHEM_MOLECULAR_WEIGHT>
657.9
> <PUBCHEM_OPENEYE_CAN_SMILES>
CC1=CC=CC=C1CNC(=O)C2CC3CCCCC3CN2CC(C(CSC4=CC=CC=C4)NC(=O)C5=C(C(=CC=C5)OC(=O)C)C)O
> <PUBCHEM_OPENEYE_ISO_SMILES>
CC1=CC=CC=C1CNC(=O)[C@@H]2C[C@@H]3CCCC[C@@H]3CN2C[C@H]([C@H](CSC4=CC=CC=C4)NC(=O)C5=C(C(=CC=C5)OC(=O)C)C)O
> <PUBCHEM_CACTVS_TPSA>
133
> <PUBCHEM_MONOISOTOPIC_WEIGHT>
657.32364278
> <PUBCHEM_TOTAL_CHARGE>
0
> <PUBCHEM_HEAVY_ATOM_COUNT>
47
> <PUBCHEM_ATOM_DEF_STEREO_COUNT>
5
> <PUBCHEM_ATOM_UDEF_STEREO_COUNT>
0
> <PUBCHEM_BOND_DEF_STEREO_COUNT>
0
> <PUBCHEM_BOND_UDEF_STEREO_COUNT>
0
> <PUBCHEM_ISOTOPIC_ATOM_COUNT>
0
> <PUBCHEM_COMPONENT_COUNT>
1
> <PUBCHEM_CACTVS_TAUTO_COUNT>
-1
> <PUBCHEM_COORDINATE_TYPE>
1
5
255
> <PUBCHEM_BONDANNOTATIONS>
10  48  6
11  49  6
16  20  5
25  27  8
25  28  8
27  31  8
28  33  8
29  34  8
29  35  8
21  3  6
30  37  8
30  38  8
31  36  8
33  36  8
34  39  8
35  41  8
37  42  8
38  43  8
39  44  8
41  44  8
42  45  8
43  45  8
22  9  6
$$$$
