514651
  -OEChem-10302200282D
 87 91  0     1  0  0  0  0  0999 V2000
    7.2641    1.5600    0.0000 O   0  0  0  0  0  0  0  0  0  0  0  0
    7.2641    0.5600    0.0000 O   0  0  0  0  0  0  0  0  0  0  0  0
    5.5321   -1.4400    0.0000 O   0  0  0  0  0  0  0  0  0  0  0  0
    5.5321   -2.4400    0.0000 O   0  0  0  0  0  0  0  0  0  0  0  0
    8.1301   -5.9400    0.0000 O   0  0  0  0  0  0  0  0  0  0  0  0
    5.5321    0.5600    0.0000 N   0  0  0  0  0  0  0  0  0  0  0  0
    6.3981    3.0600    0.0000 N   0  0  0  0  0  0  0  0  0  0  0  0
    7.2641   -2.4400    0.0000 N   0  0  0  0  0  0  0  0  0  0  0  0
    3.8000    1.5600    0.0000 C   0  0  2  0  0  0  0  0  0  0  0  0
    3.8000    0.5600    0.0000 C   0  0  2  0  0  0  0  0  0  0  0  0
    4.6660    2.0600    0.0000 C   0  0  0  0  0  0  0  0  0  0  0  0
    2.9061    2.0947    0.0000 C   0  0  0  0  0  0  0  0  0  0  0  0
    2.9061    0.0253    0.0000 C   0  0  0  0  0  0  0  0  0  0  0  0
    4.6660    0.0600    0.0000 C   0  0  0  0  0  0  0  0  0  0  0  0
    5.5321    1.5600    0.0000 C   0  0  1  0  0  0  0  0  0  0  0  0
    2.0000    1.5808    0.0000 C   0  0  0  0  0  0  0  0  0  0  0  0
    2.0000    0.5392    0.0000 C   0  0  0  0  0  0  0  0  0  0  0  0
    6.3981    2.0600    0.0000 C   0  0  0  0  0  0  0  0  0  0  0  0
    6.3981    0.0600    0.0000 C   0  0  0  0  0  0  0  0  0  0  0  0
    6.3981   -0.9400    0.0000 C   0  0  2  0  0  0  0  0  0  0  0  0
    7.2641   -1.4400    0.0000 C   0  0  2  0  0  0  0  0  0  0  0  0
    7.2641    3.5600    0.0000 C   0  0  0  0  0  0  0  0  0  0  0  0
    8.1301   -0.9400    0.0000 C   0  0  0  0  0  0  0  0  0  0  0  0
    7.2641    4.5600    0.0000 C   0  0  0  0  0  0  0  0  0  0  0  0
    8.9962   -1.4400    0.0000 C   0  0  0  0  0  0  0  0  0  0  0  0
    6.3981   -2.9400    0.0000 C   0  0  0  0  0  0  0  0  0  0  0  0
    8.1301    5.0600    0.0000 C   0  0  0  0  0  0  0  0  0  0  0  0
    6.3981    5.0600    0.0000 C   0  0  0  0  0  0  0  0  0  0  0  0
    8.9962   -2.4400    0.0000 C   0  0  0  0  0  0  0  0  0  0  0  0
    9.8622   -0.9400    0.0000 C   0  0  0  0  0  0  0  0  0  0  0  0
    6.3981   -3.9400    0.0000 C   0  0  0  0  0  0  0  0  0  0  0  0
    8.1301    6.0600    0.0000 C   0  0  0  0  0  0  0  0  0  0  0  0
    8.9962    4.5600    0.0000 C   0  0  0  0  0  0  0  0  0  0  0  0
    6.3981    6.0600    0.0000 C   0  0  0  0  0  0  0  0  0  0  0  0
    9.8622   -2.9400    0.0000 C   0  0  0  0  0  0  0  0  0  0  0  0
   10.7282   -1.4400    0.0000 C   0  0  0  0  0  0  0  0  0  0  0  0
    7.2641    6.5600    0.0000 C   0  0  0  0  0  0  0  0  0  0  0  0
    7.2641   -4.4400    0.0000 C   0  0  0  0  0  0  0  0  0  0  0  0
   10.7282   -2.4400    0.0000 C   0  0  0  0  0  0  0  0  0  0  0  0
    5.5321   -4.4400    0.0000 C   0  0  0  0  0  0  0  0  0  0  0  0
    7.2641   -5.4400    0.0000 C   0  0  0  0  0  0  0  0  0  0  0  0
    8.1301   -3.9400    0.0000 C   0  0  0  0  0  0  0  0  0  0  0  0
    5.5321   -5.4400    0.0000 C   0  0  0  0  0  0  0  0  0  0  0  0
    6.3981   -5.9400    0.0000 C   0  0  0  0  0  0  0  0  0  0  0  0
    3.8066    2.4100    0.0000 H   0  0  0  0  0  0  0  0  0  0  0  0
    3.8066   -0.2900    0.0000 H   0  0  0  0  0  0  0  0  0  0  0  0
    5.0646    2.5349    0.0000 H   0  0  0  0  0  0  0  0  0  0  0  0
    4.2675    2.5349    0.0000 H   0  0  0  0  0  0  0  0  0  0  0  0
    3.3107    2.5644    0.0000 H   0  0  0  0  0  0  0  0  0  0  0  0
    2.5124    2.5737    0.0000 H   0  0  0  0  0  0  0  0  0  0  0  0
    2.5124   -0.4537    0.0000 H   0  0  0  0  0  0  0  0  0  0  0  0
    3.3107   -0.4444    0.0000 H   0  0  0  0  0  0  0  0  0  0  0  0
    4.2675   -0.4149    0.0000 H   0  0  0  0  0  0  0  0  0  0  0  0
    5.0646   -0.4149    0.0000 H   0  0  0  0  0  0  0  0  0  0  0  0
    6.0690    1.2500    0.0000 H   0  0  0  0  0  0  0  0  0  0  0  0
    1.7909    2.1645    0.0000 H   0  0  0  0  0  0  0  0  0  0  0  0
    1.3891    1.4747    0.0000 H   0  0  0  0  0  0  0  0  0  0  0  0
    1.3891    0.6453    0.0000 H   0  0  0  0  0  0  0  0  0  0  0  0
    1.7909   -0.0445    0.0000 H   0  0  0  0  0  0  0  0  0  0  0  0
    5.8612   -0.6300    0.0000 H   0  0  0  0  0  0  0  0  0  0  0  0
    5.8612    3.3700    0.0000 H   0  0  0  0  0  0  0  0  0  0  0  0
    7.8010   -1.7500    0.0000 H   0  0  0  0  0  0  0  0  0  0  0  0
    7.4762    2.9774    0.0000 H   0  0  0  0  0  0  0  0  0  0  0  0
    7.8747    3.6677    0.0000 H   0  0  0  0  0  0  0  0  0  0  0  0
    8.5287   -0.4651    0.0000 H   0  0  0  0  0  0  0  0  0  0  0  0
    7.7316   -0.4651    0.0000 H   0  0  0  0  0  0  0  0  0  0  0  0
    4.9951   -1.1300    0.0000 H   0  0  0  0  0  0  0  0  0  0  0  0
    7.8010   -2.7500    0.0000 H   0  0  0  0  0  0  0  0  0  0  0  0
    5.8612    4.7500    0.0000 H   0  0  0  0  0  0  0  0  0  0  0  0
    8.4592   -2.7500    0.0000 H   0  0  0  0  0  0  0  0  0  0  0  0
    9.8622   -0.3200    0.0000 H   0  0  0  0  0  0  0  0  0  0  0  0
    8.6671    6.3700    0.0000 H   0  0  0  0  0  0  0  0  0  0  0  0
    8.6862    4.0231    0.0000 H   0  0  0  0  0  0  0  0  0  0  0  0
    9.5331    4.2500    0.0000 H   0  0  0  0  0  0  0  0  0  0  0  0
    9.3062    5.0969    0.0000 H   0  0  0  0  0  0  0  0  0  0  0  0
    5.8612    6.3700    0.0000 H   0  0  0  0  0  0  0  0  0  0  0  0
    9.8622   -3.5600    0.0000 H   0  0  0  0  0  0  0  0  0  0  0  0
   11.2651   -1.1300    0.0000 H   0  0  0  0  0  0  0  0  0  0  0  0
    7.2641    7.1800    0.0000 H   0  0  0  0  0  0  0  0  0  0  0  0
   11.2651   -2.7500    0.0000 H   0  0  0  0  0  0  0  0  0  0  0  0
    4.9951   -4.1300    0.0000 H   0  0  0  0  0  0  0  0  0  0  0  0
    8.4401   -4.4769    0.0000 H   0  0  0  0  0  0  0  0  0  0  0  0
    8.6671   -3.6300    0.0000 H   0  0  0  0  0  0  0  0  0  0  0  0
    7.8201   -3.4031    0.0000 H   0  0  0  0  0  0  0  0  0  0  0  0
    4.9951   -5.7500    0.0000 H   0  0  0  0  0  0  0  0  0  0  0  0
    6.3981   -6.5600    0.0000 H   0  0  0  0  0  0  0  0  0  0  0  0
    8.1301   -6.5600    0.0000 H   0  0  0  0  0  0  0  0  0  0  0  0
  1 18  2  0  0  0  0
  2 19  2  0  0  0  0
 20  3  1  6  0  0  0
  3 67  1  0  0  0  0
  4 26  2  0  0  0  0
  5 41  1  0  0  0  0
  5 87  1  0  0  0  0
  6 14  1  0  0  0  0
  6 15  1  0  0  0  0
  6 19  1  0  0  0  0
  7 18  1  0  0  0  0
  7 22  1  0  0  0  0
  7 61  1  0  0  0  0
 21  8  1  6  0  0  0
  8 26  1  0  0  0  0
  8 68  1  0  0  0  0
  9 10  1  0  0  0  0
  9 11  1  0  0  0  0
  9 12  1  0  0  0  0
  9 45  1  6  0  0  0
 10 13  1  0  0  0  0
 10 14  1  0  0  0  0
 10 46  1  6  0  0  0
 11 15  1  0  0  0  0
 11 47  1  0  0  0  0
 11 48  1  0  0  0  0
 12 16  1  0  0  0  0
 12 49  1  0  0  0  0
 12 50  1  0  0  0  0
 13 17  1  0  0  0  0
 13 51  1  0  0  0  0
 13 52  1  0  0  0  0
 14 53  1  0  0  0  0
 14 54  1  0  0  0  0
 15 18  1  1  0  0  0
 15 55  1  0  0  0  0
 16 17  1  0  0  0  0
 16 56  1  0  0  0  0
 16 57  1  0  0  0  0
 17 58  1  0  0  0  0
 17 59  1  0  0  0  0
 19 20  1  0  0  0  0
 20 21  1  0  0  0  0
 20 60  1  0  0  0  0
 21 23  1  0  0  0  0
 21 62  1  0  0  0  0
 22 24  1  0  0  0  0
 22 63  1  0  0  0  0
 22 64  1  0  0  0  0
 23 25  1  0  0  0  0
 23 65  1  0  0  0  0
 23 66  1  0  0  0  0
 24 27  1  0  0  0  0
 24 28  2  0  0  0  0
 25 29  2  0  0  0  0
 25 30  1  0  0  0  0
 26 31  1  0  0  0  0
 27 32  2  0  0  0  0
 27 33  1  0  0  0  0
 28 34  1  0  0  0  0
 28 69  1  0  0  0  0
 29 35  1  0  0  0  0
 29 70  1  0  0  0  0
 30 36  2  0  0  0  0
 30 71  1  0  0  0  0
 31 38  2  0  0  0  0
 31 40  1  0  0  0  0
 32 37  1  0  0  0  0
 32 72  1  0  0  0  0
 33 73  1  0  0  0  0
 33 74  1  0  0  0  0
 33 75  1  0  0  0  0
 34 37  2  0  0  0  0
 34 76  1  0  0  0  0
 35 39  2  0  0  0  0
 35 77  1  0  0  0  0
 36 39  1  0  0  0  0
 36 78  1  0  0  0  0
 37 79  1  0  0  0  0
 38 41  1  0  0  0  0
 38 42  1  0  0  0  0
 39 80  1  0  0  0  0
 40 43  2  0  0  0  0
 40 81  1  0  0  0  0
 41 44  2  0  0  0  0
 42 82  1  0  0  0  0
 42 83  1  0  0  0  0
 42 84  1  0  0  0  0
 43 44  1  0  0  0  0
 43 85  1  0  0  0  0
 44 86  1  0  0  0  0
M  END
> <PUBCHEM_COMPOUND_CID>
514651
> <PUBCHEM_COMPOUND_CANONICALIZED>
1
> <PUBCHEM_CACTVS_COMPLEXITY>
969
> <PUBCHEM_CACTVS_HBOND_ACCEPTOR>
5
> <PUBCHEM_CACTVS_HBOND_DONOR>
4
> <PUBCHEM_CACTVS_ROTATABLE_BOND>
9
> <PUBCHEM_CACTVS_SUBSKEYS>
AAADcfB/OAAAAAAAAAAAAAAAAAAAAAAAAAA8YMGCAAAAAACxUAAAHgAQCAAADTzhmAYyBoPAAgCIAiFSEAKCAAAkIAAIiIHODMgKdjqC1TOUcQhk1hGYmYe6yLCOgAABAAAYAAAAAAIAADAAAAAAAAAAAA==
> <PUBCHEM_IUPAC_OPENEYE_NAME>
(3S,4aS,8aS)-2-[(2S,3S)-2-hydroxy-3-[(3-hydroxy-2-methyl-benzoyl)amino]-4-phenyl-butanoyl]-N-(o-tolylmethyl)-3,4,4a,5,6,7,8,8a-octahydro-1H-isoquinoline-3-carboxamide
> <PUBCHEM_IUPAC_CAS_NAME>
(3S,4aS,8aS)-2-[(2S,3S)-2-hydroxy-3-[[(3-hydroxy-2-methylphenyl)-oxomethyl]amino]-1-oxo-4-phenylbutyl]-N-[(2-methylphenyl)methyl]-3,4,4a,5,6,7,8,8a-octahydro-1H-isoquinoline-3-carboxamide
> <PUBCHEM_IUPAC_NAME_MARKUP>
(3<I>S</I>,4<I>a</I><I>S</I>,8<I>a</I><I>S</I>)-2-[(2<I>S</I>,3<I>S</I>)-2-hydroxy-3-[(3-hydroxy-2-methylbenzoyl)amino]-4-phenylbutanoyl]-<I>N</I>-[(2-methylphenyl)methyl]-3,4,4<I>a</I>,5,6,7,8,8<I>a</I>-octahydro-1<I>H</I>-isoquinoline-3-carboxamide
> <PUBCHEM_IUPAC_NAME>
(3S,4aS,8aS)-2-[(2S,3S)-2-hydroxy-3-[(3-hydroxy-2-methylbenzoyl)amino]-4-phenylbutanoyl]-N-[(2-methylphenyl)methyl]-3,4,4a,5,6,7,8,8a-octahydro-1H-isoquinoline-3-carboxamide
> <PUBCHEM_IUPAC_SYSTEMATIC_NAME>
(3S,4aS,8aS)-2-[(2S,3S)-3-[(2-methyl-3-oxidanyl-phenyl)carbonylamino]-2-oxidanyl-4-phenyl-butanoyl]-N-[(2-methylphenyl)methyl]-3,4,4a,5,6,7,8,8a-octahydro-1H-isoquinoline-3-carboxamide
> <PUBCHEM_IUPAC_TRADITIONAL_NAME>
(3S,4aS,8aS)-2-[(2S,3S)-2-hydroxy-3-[(3-hydroxy-2-methyl-benzoyl)amino]-4-phenyl-butanoyl]-N-(2-methylbenzyl)-3,4,4a,5,6,7,8,8a-octahydro-1H-isoquinoline-3-carboxamide
> <PUBCHEM_IUPAC_INCHI>
InChI=1S/C36H43N3O5/c1-23-11-6-7-15-27(23)21-37-35(43)31-20-26-14-8-9-16-28(26)22-39(31)36(44)33(41)30(19-25-12-4-3-5-13-25)38-34(42)29-17-10-18-32(40)24(29)2/h3-7,10-13,15,17-18,26,28,30-31,33,40-41H,8-9,14,16,19-22H2,1-2H3,(H,37,43)(H,38,42)/t26-,28+,30-,31-,33-/m0/s1
> <PUBCHEM_IUPAC_INCHIKEY>
HJPZQKYCYHHKCI-PBXXGURBSA-N
> <PUBCHEM_XLOGP3_AA>
5.7
> <PUBCHEM_EXACT_MASS>
597.32027148
> <PUBCHEM_MOLECULAR_FORMULA>
C36H43N3O5
> <PUBCHEM_MOLECULAR_WEIGHT>
597.7
> <PUBCHEM_OPENEYE_CAN_SMILES>
CC1=CC=CC=C1CNC(=O)C2CC3CCCCC3CN2C(=O)C(C(CC4=CC=CC=C4)NC(=O)C5=C(C(=CC=C5)O)C)O
> <PUBCHEM_OPENEYE_ISO_SMILES>
CC1=CC=CC=C1CNC(=O)[C@@H]2C[C@@H]3CCCC[C@@H]3CN2C(=O)[C@H]([C@H](CC4=CC=CC=C4)NC(=O)C5=C(C(=CC=C5)O)C)O
> <PUBCHEM_CACTVS_TPSA>
119
> <PUBCHEM_MONOISOTOPIC_WEIGHT>
597.32027148
> <PUBCHEM_TOTAL_CHARGE>
0
> <PUBCHEM_HEAVY_ATOM_COUNT>
44
> <PUBCHEM_ATOM_DEF_STEREO_COUNT>
5
> <PUBCHEM_ATOM_UDEF_STEREO_COUNT>
0
> <PUBCHEM_BOND_DEF_STEREO_COUNT>
0
> <PUBCHEM_BOND_UDEF_STEREO_COUNT>
0
> <PUBCHEM_ISOTOPIC_ATOM_COUNT>
0
> <PUBCHEM_COMPONENT_COUNT>
1
> <PUBCHEM_CACTVS_TAUTO_COUNT>
-1
> <PUBCHEM_COORDINATE_TYPE>
1
5
255
> <PUBCHEM_BONDANNOTATIONS>
10  46  6
15  18  5
24  27  8
24  28  8
25  29  8
25  30  8
27  32  8
28  34  8
29  35  8
20  3  6
30  36  8
31  38  8
31  40  8
32  37  8
34  37  8
35  39  8
36  39  8
38  41  8
40  43  8
41  44  8
43  44  8
21  8  6
9  45  6
$$$$
