514691
  -OEChem-10302200282D
 71 73  0     1  0  0  0  0  0999 V2000
    6.5468    3.3539    0.0000 S   0  0  0  0  0  0  0  0  0  0  0  0
    8.2798    1.1267    0.0000 O   0  0  0  0  0  0  0  0  0  0  0  0
    3.7320    2.1515    0.0000 O   0  0  0  0  0  0  0  0  0  0  0  0
    5.8424    0.0975    0.0000 O   0  0  0  0  0  0  0  0  0  0  0  0
   10.3898   -0.4695    0.0000 O   0  0  0  0  0  0  0  0  0  0  0  0
    9.2308    0.8177    0.0000 O   0  0  0  0  0  0  0  0  0  0  0  0
    2.0000   -2.8485    0.0000 O   0  0  0  0  0  0  0  0  0  0  0  0
    6.3776    1.7447    0.0000 N   0  0  0  0  0  0  0  0  0  0  0  0
    4.5981    0.6515    0.0000 N   0  0  0  0  0  0  0  0  0  0  0  0
    8.6956   -0.8296    0.0000 N   0  0  0  0  0  0  0  0  0  0  0  0
    5.5686    3.1460    0.0000 C   0  0  0  0  0  0  0  0  0  0  0  0
    5.4641    2.1515    0.0000 C   0  0  1  0  0  0  0  0  0  0  0  0
    7.0468    2.4879    0.0000 C   0  0  0  0  0  0  0  0  0  0  0  0
    5.3607    4.1242    0.0000 C   0  0  0  0  0  0  0  0  0  0  0  0
    4.5741    3.2505    0.0000 C   0  0  0  0  0  0  0  0  0  0  0  0
    4.5981    1.6515    0.0000 C   0  0  0  0  0  0  0  0  0  0  0  0
    6.5856    0.7666    0.0000 C   0  0  0  0  0  0  0  0  0  0  0  0
    7.5366    0.4576    0.0000 C   0  0  2  0  0  0  0  0  0  0  0  0
    7.7445   -0.5206    0.0000 C   0  0  2  0  0  0  0  0  0  0  0  0
    7.0014   -1.1897    0.0000 C   0  0  0  0  0  0  0  0  0  0  0  0
    3.7320    0.1515    0.0000 C   0  0  0  0  0  0  0  0  0  0  0  0
    7.2093   -2.1678    0.0000 C   0  0  0  0  0  0  0  0  0  0  0  0
    3.7320   -0.8485    0.0000 C   0  0  0  0  0  0  0  0  0  0  0  0
    9.4387   -0.1605    0.0000 C   0  0  0  0  0  0  0  0  0  0  0  0
    8.1604   -2.4769    0.0000 C   0  0  0  0  0  0  0  0  0  0  0  0
    6.4662   -2.8370    0.0000 C   0  0  0  0  0  0  0  0  0  0  0  0
    2.8660   -1.3485    0.0000 C   0  0  0  0  0  0  0  0  0  0  0  0
    4.5981   -1.3485    0.0000 C   0  0  0  0  0  0  0  0  0  0  0  0
    8.3683   -3.4550    0.0000 C   0  0  0  0  0  0  0  0  0  0  0  0
    6.6741   -3.8151    0.0000 C   0  0  0  0  0  0  0  0  0  0  0  0
    7.6251   -4.1242    0.0000 C   0  0  0  0  0  0  0  0  0  0  0  0
    2.8660   -2.3485    0.0000 C   0  0  0  0  0  0  0  0  0  0  0  0
    4.5981   -2.3485    0.0000 C   0  0  0  0  0  0  0  0  0  0  0  0
    3.7320   -2.8485    0.0000 C   0  0  0  0  0  0  0  0  0  0  0  0
   11.1329    0.1997    0.0000 C   0  0  0  0  0  0  0  0  0  0  0  0
    2.0000   -3.8485    0.0000 C   0  0  0  0  0  0  0  0  0  0  0  0
   12.0840   -0.1094    0.0000 C   0  0  0  0  0  0  0  0  0  0  0  0
   13.0350   -0.4184    0.0000 C   0  0  0  0  0  0  0  0  0  0  0  0
    5.4966    1.5323    0.0000 H   0  0  0  0  0  0  0  0  0  0  0  0
    7.4616    2.0271    0.0000 H   0  0  0  0  0  0  0  0  0  0  0  0
    7.5484    2.8523    0.0000 H   0  0  0  0  0  0  0  0  0  0  0  0
    5.9672    4.2530    0.0000 H   0  0  0  0  0  0  0  0  0  0  0  0
    5.2318    4.7306    0.0000 H   0  0  0  0  0  0  0  0  0  0  0  0
    4.7543    3.9952    0.0000 H   0  0  0  0  0  0  0  0  0  0  0  0
    4.6389    3.8671    0.0000 H   0  0  0  0  0  0  0  0  0  0  0  0
    3.9575    3.3153    0.0000 H   0  0  0  0  0  0  0  0  0  0  0  0
    4.5093    2.6339    0.0000 H   0  0  0  0  0  0  0  0  0  0  0  0
    7.4077    1.0640    0.0000 H   0  0  0  0  0  0  0  0  0  0  0  0
    8.2053   -0.1057    0.0000 H   0  0  0  0  0  0  0  0  0  0  0  0
    5.1350    0.3415    0.0000 H   0  0  0  0  0  0  0  0  0  0  0  0
    6.6728   -0.6639    0.0000 H   0  0  0  0  0  0  0  0  0  0  0  0
    6.4265   -1.4220    0.0000 H   0  0  0  0  0  0  0  0  0  0  0  0
    8.8245   -1.4360    0.0000 H   0  0  0  0  0  0  0  0  0  0  0  0
    3.5200    0.7341    0.0000 H   0  0  0  0  0  0  0  0  0  0  0  0
    3.1215    0.0438    0.0000 H   0  0  0  0  0  0  0  0  0  0  0  0
    8.1509    1.7332    0.0000 H   0  0  0  0  0  0  0  0  0  0  0  0
    8.6211   -2.0620    0.0000 H   0  0  0  0  0  0  0  0  0  0  0  0
    5.8765   -2.6454    0.0000 H   0  0  0  0  0  0  0  0  0  0  0  0
    2.3291   -1.0385    0.0000 H   0  0  0  0  0  0  0  0  0  0  0  0
    5.1350   -1.0385    0.0000 H   0  0  0  0  0  0  0  0  0  0  0  0
    8.9579   -3.6466    0.0000 H   0  0  0  0  0  0  0  0  0  0  0  0
    6.2133   -4.2300    0.0000 H   0  0  0  0  0  0  0  0  0  0  0  0
    7.7540   -4.7306    0.0000 H   0  0  0  0  0  0  0  0  0  0  0  0
    5.1350   -2.6585    0.0000 H   0  0  0  0  0  0  0  0  0  0  0  0
    3.7320   -3.4685    0.0000 H   0  0  0  0  0  0  0  0  0  0  0  0
   11.4240    0.7471    0.0000 H   0  0  0  0  0  0  0  0  0  0  0  0
   10.6444    0.5814    0.0000 H   0  0  0  0  0  0  0  0  0  0  0  0
    1.3800   -3.8485    0.0000 H   0  0  0  0  0  0  0  0  0  0  0  0
    2.0000   -4.4685    0.0000 H   0  0  0  0  0  0  0  0  0  0  0  0
    2.6200   -3.8485    0.0000 H   0  0  0  0  0  0  0  0  0  0  0  0
   13.6247   -0.6100    0.0000 H   0  0  0  0  0  0  0  0  0  0  0  0
  1 11  1  0  0  0  0
  1 13  1  0  0  0  0
 18  2  1  1  0  0  0
  2 56  1  0  0  0  0
  3 16  2  0  0  0  0
  4 17  2  0  0  0  0
  5 24  1  0  0  0  0
  5 35  1  0  0  0  0
  6 24  2  0  0  0  0
  7 32  1  0  0  0  0
  7 36  1  0  0  0  0
  8 12  1  0  0  0  0
  8 13  1  0  0  0  0
  8 17  1  0  0  0  0
  9 16  1  0  0  0  0
  9 21  1  0  0  0  0
  9 50  1  0  0  0  0
 19 10  1  1  0  0  0
 10 24  1  0  0  0  0
 10 53  1  0  0  0  0
 11 12  1  0  0  0  0
 11 14  1  0  0  0  0
 11 15  1  0  0  0  0
 12 16  1  6  0  0  0
 12 39  1  0  0  0  0
 13 40  1  0  0  0  0
 13 41  1  0  0  0  0
 14 42  1  0  0  0  0
 14 43  1  0  0  0  0
 14 44  1  0  0  0  0
 15 45  1  0  0  0  0
 15 46  1  0  0  0  0
 15 47  1  0  0  0  0
 17 18  1  0  0  0  0
 18 19  1  0  0  0  0
 18 48  1  0  0  0  0
 19 20  1  0  0  0  0
 19 49  1  0  0  0  0
 20 22  1  0  0  0  0
 20 51  1  0  0  0  0
 20 52  1  0  0  0  0
 21 23  1  0  0  0  0
 21 54  1  0  0  0  0
 21 55  1  0  0  0  0
 22 25  2  0  0  0  0
 22 26  1  0  0  0  0
 23 27  2  0  0  0  0
 23 28  1  0  0  0  0
 25 29  1  0  0  0  0
 25 57  1  0  0  0  0
 26 30  2  0  0  0  0
 26 58  1  0  0  0  0
 27 32  1  0  0  0  0
 27 59  1  0  0  0  0
 28 33  2  0  0  0  0
 28 60  1  0  0  0  0
 29 31  2  0  0  0  0
 29 61  1  0  0  0  0
 30 31  1  0  0  0  0
 30 62  1  0  0  0  0
 31 63  1  0  0  0  0
 32 34  2  0  0  0  0
 33 34  1  0  0  0  0
 33 64  1  0  0  0  0
 34 65  1  0  0  0  0
 35 37  1  0  0  0  0
 35 66  1  0  0  0  0
 35 67  1  0  0  0  0
 36 68  1  0  0  0  0
 36 69  1  0  0  0  0
 36 70  1  0  0  0  0
 37 38  3  0  0  0  0
 38 71  1  0  0  0  0
M  END
> <PUBCHEM_COMPOUND_CID>
514691
> <PUBCHEM_COMPOUND_CANONICALIZED>
1
> <PUBCHEM_CACTVS_COMPLEXITY>
868
> <PUBCHEM_CACTVS_HBOND_ACCEPTOR>
7
> <PUBCHEM_CACTVS_HBOND_DONOR>
3
> <PUBCHEM_CACTVS_ROTATABLE_BOND>
11
> <PUBCHEM_CACTVS_SUBSKEYS>
AAADcfB7OABAAAAAAAAAAAAAAAAAAWAAAAAwYAAAAAAAAAABQAAAHgQQCAAADDzh2AayDoPABgjIGiFSGAKCCABgIBAIiIHODIkOdjqk8TuccChk1hGYqAe4yLCOAAABAAAAAAAAAAIAAAAAAAAAAAAAAA==
> <PUBCHEM_IUPAC_OPENEYE_NAME>
prop-2-ynyl N-[(1S,2S)-1-benzyl-2-hydroxy-3-[(4R)-4-[(3-methoxyphenyl)methylcarbamoyl]-5,5-dimethyl-thiazolidin-3-yl]-3-oxo-propyl]carbamate
> <PUBCHEM_IUPAC_CAS_NAME>
N-[(2S,3S)-3-hydroxy-4-[(4R)-4-[[(3-methoxyphenyl)methylamino]-oxomethyl]-5,5-dimethyl-3-thiazolidinyl]-4-oxo-1-phenylbutan-2-yl]carbamic acid prop-2-ynyl ester
> <PUBCHEM_IUPAC_NAME_MARKUP>
prop-2-ynyl <I>N</I>-[(2<I>S</I>,3<I>S</I>)-3-hydroxy-4-[(4<I>R</I>)-4-[(3-methoxyphenyl)methylcarbamoyl]-5,5-dimethyl-1,3-thiazolidin-3-yl]-4-oxo-1-phenylbutan-2-yl]carbamate
> <PUBCHEM_IUPAC_NAME>
prop-2-ynyl N-[(2S,3S)-3-hydroxy-4-[(4R)-4-[(3-methoxyphenyl)methylcarbamoyl]-5,5-dimethyl-1,3-thiazolidin-3-yl]-4-oxo-1-phenylbutan-2-yl]carbamate
> <PUBCHEM_IUPAC_SYSTEMATIC_NAME>
prop-2-ynyl N-[(2S,3S)-4-[(4R)-4-[(3-methoxyphenyl)methylcarbamoyl]-5,5-dimethyl-1,3-thiazolidin-3-yl]-3-oxidanyl-4-oxidanylidene-1-phenyl-butan-2-yl]carbamate
> <PUBCHEM_IUPAC_TRADITIONAL_NAME>
N-[(1S,2S)-1-benzyl-2-hydroxy-3-keto-3-[(4R)-4-(m-anisylcarbamoyl)-5,5-dimethyl-thiazolidin-3-yl]propyl]carbamic acid propargyl ester
> <PUBCHEM_IUPAC_INCHI>
InChI=1S/C28H33N3O6S/c1-5-14-37-27(35)30-22(16-19-10-7-6-8-11-19)23(32)26(34)31-18-38-28(2,3)24(31)25(33)29-17-20-12-9-13-21(15-20)36-4/h1,6-13,15,22-24,32H,14,16-18H2,2-4H3,(H,29,33)(H,30,35)/t22-,23-,24+/m0/s1
> <PUBCHEM_IUPAC_INCHIKEY>
NNBAPJMSSUQPCG-KMDXXIMOSA-N
> <PUBCHEM_XLOGP3_AA>
2.9
> <PUBCHEM_EXACT_MASS>
539.20900695
> <PUBCHEM_MOLECULAR_FORMULA>
C28H33N3O6S
> <PUBCHEM_MOLECULAR_WEIGHT>
539.6
> <PUBCHEM_OPENEYE_CAN_SMILES>
CC1(C(N(CS1)C(=O)C(C(CC2=CC=CC=C2)NC(=O)OCC#C)O)C(=O)NCC3=CC(=CC=C3)OC)C
> <PUBCHEM_OPENEYE_ISO_SMILES>
CC1([C@H](N(CS1)C(=O)[C@H]([C@H](CC2=CC=CC=C2)NC(=O)OCC#C)O)C(=O)NCC3=CC(=CC=C3)OC)C
> <PUBCHEM_CACTVS_TPSA>
143
> <PUBCHEM_MONOISOTOPIC_WEIGHT>
539.20900695
> <PUBCHEM_TOTAL_CHARGE>
0
> <PUBCHEM_HEAVY_ATOM_COUNT>
38
> <PUBCHEM_ATOM_DEF_STEREO_COUNT>
3
> <PUBCHEM_ATOM_UDEF_STEREO_COUNT>
0
> <PUBCHEM_BOND_DEF_STEREO_COUNT>
0
> <PUBCHEM_BOND_UDEF_STEREO_COUNT>
0
> <PUBCHEM_ISOTOPIC_ATOM_COUNT>
0
> <PUBCHEM_COMPONENT_COUNT>
1
> <PUBCHEM_CACTVS_TAUTO_COUNT>
-1
> <PUBCHEM_COORDINATE_TYPE>
1
5
255
> <PUBCHEM_BONDANNOTATIONS>
19  10  5
12  16  6
18  2  5
22  25  8
22  26  8
23  27  8
23  28  8
25  29  8
26  30  8
27  32  8
28  33  8
29  31  8
30  31  8
32  34  8
33  34  8
$$$$
