514628
  -OEChem-10302200282D
 80 84  0     1  0  0  0  0  0999 V2000
    2.1229    3.8323    0.0000 F   0  0  0  0  0  0  0  0  0  0  0  0
    2.0000    2.6631    0.0000 F   0  0  0  0  0  0  0  0  0  0  0  0
    5.3147    4.9996    0.0000 O   0  0  0  0  0  0  0  0  0  0  0  0
    6.0384    2.1449    0.0000 O   0  0  0  0  0  0  0  0  0  0  0  0
    3.9284    0.5487    0.0000 O   0  0  0  0  0  0  0  0  0  0  0  0
    3.7204   -0.4294    0.0000 O   0  0  0  0  0  0  0  0  0  0  0  0
   10.5911    3.8043    0.0000 O   0  0  0  0  0  0  0  0  0  0  0  0
   10.5911    2.1948    0.0000 O   0  0  0  0  0  0  0  0  0  0  0  0
    5.5340   -4.3931    0.0000 O   0  0  0  0  0  0  0  0  0  0  0  0
    4.3442    2.5050    0.0000 N   0  0  0  0  0  0  0  0  0  0  0  0
    6.1808    3.4996    0.0000 N   0  0  0  0  0  0  0  0  0  0  0  0
    5.4146   -0.7895    0.0000 N   0  0  0  0  0  0  0  0  0  0  0  0
    3.5352    3.9063    0.0000 C   0  0  0  0  0  0  0  0  0  0  0  0
    4.4487    3.4996    0.0000 C   0  0  1  0  0  0  0  0  0  0  0  0
    2.8660    3.1631    0.0000 C   0  0  0  0  0  0  0  0  0  0  0  0
    3.3660    2.2971    0.0000 C   0  0  0  0  0  0  0  0  0  0  0  0
    2.7920    4.5754    0.0000 C   0  0  0  0  0  0  0  0  0  0  0  0
    3.9419    4.8198    0.0000 C   0  0  0  0  0  0  0  0  0  0  0  0
    5.3147    3.9996    0.0000 C   0  0  0  0  0  0  0  0  0  0  0  0
    5.0873    1.8359    0.0000 C   0  0  0  0  0  0  0  0  0  0  0  0
    4.8794    0.8578    0.0000 C   0  0  2  0  0  0  0  0  0  0  0  0
    5.6226    0.1886    0.0000 C   0  0  2  0  0  0  0  0  0  0  0  0
    6.5736    0.4976    0.0000 C   0  0  0  0  0  0  0  0  0  0  0  0
    7.0468    3.9996    0.0000 C   0  0  0  0  0  0  0  0  0  0  0  0
    7.3168   -0.1715    0.0000 C   0  0  0  0  0  0  0  0  0  0  0  0
    7.9128    3.4996    0.0000 C   0  0  0  0  0  0  0  0  0  0  0  0
    4.4636   -1.0985    0.0000 C   0  0  0  0  0  0  0  0  0  0  0  0
    8.7788    3.9996    0.0000 C   0  0  0  0  0  0  0  0  0  0  0  0
    7.1088   -1.1496    0.0000 C   0  0  0  0  0  0  0  0  0  0  0  0
    8.2678    0.1375    0.0000 C   0  0  0  0  0  0  0  0  0  0  0  0
    7.9128    2.4996    0.0000 C   0  0  0  0  0  0  0  0  0  0  0  0
    4.2557   -2.0767    0.0000 C   0  0  0  0  0  0  0  0  0  0  0  0
    9.6448    3.4996    0.0000 C   0  0  0  0  0  0  0  0  0  0  0  0
    8.7788    1.9996    0.0000 C   0  0  0  0  0  0  0  0  0  0  0  0
    7.8520   -1.8188    0.0000 C   0  0  0  0  0  0  0  0  0  0  0  0
    9.0110   -0.5316    0.0000 C   0  0  0  0  0  0  0  0  0  0  0  0
    9.6448    2.4996    0.0000 C   0  0  0  0  0  0  0  0  0  0  0  0
    4.9988   -2.7458    0.0000 C   0  0  0  0  0  0  0  0  0  0  0  0
    8.8030   -1.5098    0.0000 C   0  0  0  0  0  0  0  0  0  0  0  0
    3.3046   -2.3857    0.0000 C   0  0  0  0  0  0  0  0  0  0  0  0
   11.1747    2.9996    0.0000 C   0  0  0  0  0  0  0  0  0  0  0  0
    4.7909   -3.7240    0.0000 C   0  0  0  0  0  0  0  0  0  0  0  0
    5.9499   -2.4368    0.0000 C   0  0  0  0  0  0  0  0  0  0  0  0
    3.0967   -3.3639    0.0000 C   0  0  0  0  0  0  0  0  0  0  0  0
    3.8398   -4.0330    0.0000 C   0  0  0  0  0  0  0  0  0  0  0  0
    4.9687    3.1619    0.0000 H   0  0  0  0  0  0  0  0  0  0  0  0
    2.7996    2.0449    0.0000 H   0  0  0  0  0  0  0  0  0  0  0  0
    3.5576    1.7075    0.0000 H   0  0  0  0  0  0  0  0  0  0  0  0
    3.2069    5.0362    0.0000 H   0  0  0  0  0  0  0  0  0  0  0  0
    2.3313    4.9903    0.0000 H   0  0  0  0  0  0  0  0  0  0  0  0
    2.3772    4.1147    0.0000 H   0  0  0  0  0  0  0  0  0  0  0  0
    4.5083    4.5677    0.0000 H   0  0  0  0  0  0  0  0  0  0  0  0
    4.1941    5.3862    0.0000 H   0  0  0  0  0  0  0  0  0  0  0  0
    3.3755    5.0720    0.0000 H   0  0  0  0  0  0  0  0  0  0  0  0
    4.4187    1.2726    0.0000 H   0  0  0  0  0  0  0  0  0  0  0  0
    5.0329   -0.0030    0.0000 H   0  0  0  0  0  0  0  0  0  0  0  0
    6.1808    2.8796    0.0000 H   0  0  0  0  0  0  0  0  0  0  0  0
    7.0622    0.8793    0.0000 H   0  0  0  0  0  0  0  0  0  0  0  0
    6.2825    1.0451    0.0000 H   0  0  0  0  0  0  0  0  0  0  0  0
    7.4453    4.4745    0.0000 H   0  0  0  0  0  0  0  0  0  0  0  0
    6.6482    4.4745    0.0000 H   0  0  0  0  0  0  0  0  0  0  0  0
    5.8754   -1.2044    0.0000 H   0  0  0  0  0  0  0  0  0  0  0  0
    3.4676    0.9636    0.0000 H   0  0  0  0  0  0  0  0  0  0  0  0
    8.7788    4.6196    0.0000 H   0  0  0  0  0  0  0  0  0  0  0  0
    6.5192   -1.3412    0.0000 H   0  0  0  0  0  0  0  0  0  0  0  0
    8.3967    0.7440    0.0000 H   0  0  0  0  0  0  0  0  0  0  0  0
    7.3759    2.1896    0.0000 H   0  0  0  0  0  0  0  0  0  0  0  0
    8.7788    1.3796    0.0000 H   0  0  0  0  0  0  0  0  0  0  0  0
    7.7231   -2.4252    0.0000 H   0  0  0  0  0  0  0  0  0  0  0  0
    9.6006   -0.3400    0.0000 H   0  0  0  0  0  0  0  0  0  0  0  0
    9.2638   -1.9246    0.0000 H   0  0  0  0  0  0  0  0  0  0  0  0
    2.8439   -1.9708    0.0000 H   0  0  0  0  0  0  0  0  0  0  0  0
   11.6356    2.5848    0.0000 H   0  0  0  0  0  0  0  0  0  0  0  0
   11.6356    3.4143    0.0000 H   0  0  0  0  0  0  0  0  0  0  0  0
    6.1415   -3.0265    0.0000 H   0  0  0  0  0  0  0  0  0  0  0  0
    6.5395   -2.2452    0.0000 H   0  0  0  0  0  0  0  0  0  0  0  0
    5.7583   -1.8472    0.0000 H   0  0  0  0  0  0  0  0  0  0  0  0
    2.5070   -3.5554    0.0000 H   0  0  0  0  0  0  0  0  0  0  0  0
    3.7109   -4.6394    0.0000 H   0  0  0  0  0  0  0  0  0  0  0  0
    5.4051   -4.9996    0.0000 H   0  0  0  0  0  0  0  0  0  0  0  0
  1 15  1  0  0  0  0
  2 15  1  0  0  0  0
  3 19  2  0  0  0  0
  4 20  2  0  0  0  0
 21  5  1  6  0  0  0
  5 63  1  0  0  0  0
  6 27  2  0  0  0  0
  7 33  1  0  0  0  0
  7 41  1  0  0  0  0
  8 37  1  0  0  0  0
  8 41  1  0  0  0  0
  9 42  1  0  0  0  0
  9 80  1  0  0  0  0
 10 14  1  0  0  0  0
 10 16  1  0  0  0  0
 10 20  1  0  0  0  0
 11 19  1  0  0  0  0
 11 24  1  0  0  0  0
 11 57  1  0  0  0  0
 22 12  1  6  0  0  0
 12 27  1  0  0  0  0
 12 62  1  0  0  0  0
 13 14  1  0  0  0  0
 13 15  1  0  0  0  0
 13 17  1  0  0  0  0
 13 18  1  0  0  0  0
 14 19  1  1  0  0  0
 14 46  1  0  0  0  0
 15 16  1  0  0  0  0
 16 47  1  0  0  0  0
 16 48  1  0  0  0  0
 17 49  1  0  0  0  0
 17 50  1  0  0  0  0
 17 51  1  0  0  0  0
 18 52  1  0  0  0  0
 18 53  1  0  0  0  0
 18 54  1  0  0  0  0
 20 21  1  0  0  0  0
 21 22  1  0  0  0  0
 21 55  1  0  0  0  0
 22 23  1  0  0  0  0
 22 56  1  0  0  0  0
 23 25  1  0  0  0  0
 23 58  1  0  0  0  0
 23 59  1  0  0  0  0
 24 26  1  0  0  0  0
 24 60  1  0  0  0  0
 24 61  1  0  0  0  0
 25 29  2  0  0  0  0
 25 30  1  0  0  0  0
 26 28  2  0  0  0  0
 26 31  1  0  0  0  0
 27 32  1  0  0  0  0
 28 33  1  0  0  0  0
 28 64  1  0  0  0  0
 29 35  1  0  0  0  0
 29 65  1  0  0  0  0
 30 36  2  0  0  0  0
 30 66  1  0  0  0  0
 31 34  2  0  0  0  0
 31 67  1  0  0  0  0
 32 38  2  0  0  0  0
 32 40  1  0  0  0  0
 33 37  2  0  0  0  0
 34 37  1  0  0  0  0
 34 68  1  0  0  0  0
 35 39  2  0  0  0  0
 35 69  1  0  0  0  0
 36 39  1  0  0  0  0
 36 70  1  0  0  0  0
 38 42  1  0  0  0  0
 38 43  1  0  0  0  0
 39 71  1  0  0  0  0
 40 44  2  0  0  0  0
 40 72  1  0  0  0  0
 41 73  1  0  0  0  0
 41 74  1  0  0  0  0
 42 45  2  0  0  0  0
 43 75  1  0  0  0  0
 43 76  1  0  0  0  0
 43 77  1  0  0  0  0
 44 45  1  0  0  0  0
 44 78  1  0  0  0  0
 45 79  1  0  0  0  0
M  END
> <PUBCHEM_COMPOUND_CID>
514628
> <PUBCHEM_COMPOUND_CANONICALIZED>
1
> <PUBCHEM_CACTVS_COMPLEXITY>
1070
> <PUBCHEM_CACTVS_HBOND_ACCEPTOR>
9
> <PUBCHEM_CACTVS_HBOND_DONOR>
4
> <PUBCHEM_CACTVS_ROTATABLE_BOND>
9
> <PUBCHEM_CACTVS_SUBSKEYS>
AAADcfB/OYAAAAAAAAAAAAAAAAAAAWJAAAAwYMAAAAAAAEgBUAAAHwAQCAAADjzhmBcyDoPABgCIAiFSEAKCCAAkIAAIiIHOjMgfdjqG9Tu0cSpk1hGeuYe62bKPoAABAAAYQABAAAIAADCAAAAAAAAAAA==
> <PUBCHEM_IUPAC_OPENEYE_NAME>
(2S)-N-(1,3-benzodioxol-5-ylmethyl)-4,4-difluoro-1-[(2S,3S)-2-hydroxy-3-[(3-hydroxy-2-methyl-benzoyl)amino]-4-phenyl-butanoyl]-3,3-dimethyl-pyrrolidine-2-carboxamide
> <PUBCHEM_IUPAC_CAS_NAME>
(2S)-N-(1,3-benzodioxol-5-ylmethyl)-4,4-difluoro-1-[(2S,3S)-2-hydroxy-3-[[(3-hydroxy-2-methylphenyl)-oxomethyl]amino]-1-oxo-4-phenylbutyl]-3,3-dimethyl-2-pyrrolidinecarboxamide
> <PUBCHEM_IUPAC_NAME_MARKUP>
(2<I>S</I>)-<I>N</I>-(1,3-benzodioxol-5-ylmethyl)-4,4-difluoro-1-[(2<I>S</I>,3<I>S</I>)-2-hydroxy-3-[(3-hydroxy-2-methylbenzoyl)amino]-4-phenylbutanoyl]-3,3-dimethylpyrrolidine-2-carboxamide
> <PUBCHEM_IUPAC_NAME>
(2S)-N-(1,3-benzodioxol-5-ylmethyl)-4,4-difluoro-1-[(2S,3S)-2-hydroxy-3-[(3-hydroxy-2-methylbenzoyl)amino]-4-phenylbutanoyl]-3,3-dimethylpyrrolidine-2-carboxamide
> <PUBCHEM_IUPAC_SYSTEMATIC_NAME>
(2S)-N-(1,3-benzodioxol-5-ylmethyl)-4,4-bis(fluoranyl)-3,3-dimethyl-1-[(2S,3S)-3-[(2-methyl-3-oxidanyl-phenyl)carbonylamino]-2-oxidanyl-4-phenyl-butanoyl]pyrrolidine-2-carboxamide
> <PUBCHEM_IUPAC_TRADITIONAL_NAME>
(2S)-4,4-difluoro-1-[(2S,3S)-2-hydroxy-3-[(3-hydroxy-2-methyl-benzoyl)amino]-4-phenyl-butanoyl]-3,3-dimethyl-N-piperonyl-pyrrolidine-2-carboxamide
> <PUBCHEM_IUPAC_INCHI>
InChI=1S/C33H35F2N3O7/c1-19-22(10-7-11-24(19)39)29(41)37-23(14-20-8-5-4-6-9-20)27(40)31(43)38-17-33(34,35)32(2,3)28(38)30(42)36-16-21-12-13-25-26(15-21)45-18-44-25/h4-13,15,23,27-28,39-40H,14,16-18H2,1-3H3,(H,36,42)(H,37,41)/t23-,27-,28+/m0/s1
> <PUBCHEM_IUPAC_INCHIKEY>
ULSOFARPMDHPKT-MXSCXNJPSA-N
> <PUBCHEM_XLOGP3_AA>
4.4
> <PUBCHEM_EXACT_MASS>
623.24430679
> <PUBCHEM_MOLECULAR_FORMULA>
C33H35F2N3O7
> <PUBCHEM_MOLECULAR_WEIGHT>
623.6
> <PUBCHEM_OPENEYE_CAN_SMILES>
CC1=C(C=CC=C1O)C(=O)NC(CC2=CC=CC=C2)C(C(=O)N3CC(C(C3C(=O)NCC4=CC5=C(C=C4)OCO5)(C)C)(F)F)O
> <PUBCHEM_OPENEYE_ISO_SMILES>
CC1=C(C=CC=C1O)C(=O)N[C@@H](CC2=CC=CC=C2)[C@@H](C(=O)N3CC(C([C@H]3C(=O)NCC4=CC5=C(C=C4)OCO5)(C)C)(F)F)O
> <PUBCHEM_CACTVS_TPSA>
137
> <PUBCHEM_MONOISOTOPIC_WEIGHT>
623.24430679
> <PUBCHEM_TOTAL_CHARGE>
0
> <PUBCHEM_HEAVY_ATOM_COUNT>
45
> <PUBCHEM_ATOM_DEF_STEREO_COUNT>
3
> <PUBCHEM_ATOM_UDEF_STEREO_COUNT>
0
> <PUBCHEM_BOND_DEF_STEREO_COUNT>
0
> <PUBCHEM_BOND_UDEF_STEREO_COUNT>
0
> <PUBCHEM_ISOTOPIC_ATOM_COUNT>
0
> <PUBCHEM_COMPONENT_COUNT>
1
> <PUBCHEM_CACTVS_TAUTO_COUNT>
-1
> <PUBCHEM_COORDINATE_TYPE>
1
5
255
> <PUBCHEM_BONDANNOTATIONS>
22  12  6
14  19  5
25  29  8
25  30  8
26  28  8
26  31  8
28  33  8
29  35  8
30  36  8
31  34  8
32  38  8
32  40  8
33  37  8
34  37  8
35  39  8
36  39  8
38  42  8
40  44  8
42  45  8
44  45  8
21  5  6
$$$$
