514613
  -OEChem-10302200282D
 74 78  0     1  0  0  0  0  0999 V2000
    8.0074   -4.2281    0.0000 F   0  0  0  0  0  0  0  0  0  0  0  0
    6.9335   -3.7500    0.0000 F   0  0  0  0  0  0  0  0  0  0  0  0
    6.0666   -1.0228    0.0000 O   0  0  0  0  0  0  0  0  0  0  0  0
    8.5039    0.0065    0.0000 O   0  0  0  0  0  0  0  0  0  0  0  0
    9.7482   -0.5475    0.0000 O   0  0  0  0  0  0  0  0  0  0  0  0
    5.1155   -0.7137    0.0000 O   0  0  0  0  0  0  0  0  0  0  0  0
   15.0246   -1.7428    0.0000 O   0  0  0  0  0  0  0  0  0  0  0  0
   15.0246   -3.3522    0.0000 O   0  0  0  0  0  0  0  0  0  0  0  0
    2.5896    2.8387    0.0000 O   0  0  0  0  0  0  0  0  0  0  0  0
    7.9687   -1.6408    0.0000 N   0  0  0  0  0  0  0  0  0  0  0  0
   10.6143   -2.0475    0.0000 N   0  0  0  0  0  0  0  0  0  0  0  0
    5.6507    0.9335    0.0000 N   0  0  0  0  0  0  0  0  0  0  0  0
    8.8822   -2.0475    0.0000 C   0  0  1  0  0  0  0  0  0  0  0  0
    8.7777   -3.0420    0.0000 C   0  0  0  0  0  0  0  0  0  0  0  0
    7.7995   -3.2500    0.0000 C   0  0  0  0  0  0  0  0  0  0  0  0
    7.2995   -2.3839    0.0000 C   0  0  0  0  0  0  0  0  0  0  0  0
    7.7608   -0.6626    0.0000 C   0  0  0  0  0  0  0  0  0  0  0  0
    6.8097   -0.3536    0.0000 C   0  0  2  0  0  0  0  0  0  0  0  0
    9.7482   -1.5475    0.0000 C   0  0  0  0  0  0  0  0  0  0  0  0
    6.6018    0.6245    0.0000 C   0  0  2  0  0  0  0  0  0  0  0  0
    7.3449    1.2937    0.0000 C   0  0  0  0  0  0  0  0  0  0  0  0
   11.4803   -1.5475    0.0000 C   0  0  0  0  0  0  0  0  0  0  0  0
    7.1370    2.2718    0.0000 C   0  0  0  0  0  0  0  0  0  0  0  0
    4.9076    0.2644    0.0000 C   0  0  0  0  0  0  0  0  0  0  0  0
   12.3463   -2.0475    0.0000 C   0  0  0  0  0  0  0  0  0  0  0  0
    6.1860    2.5808    0.0000 C   0  0  0  0  0  0  0  0  0  0  0  0
    7.8802    2.9409    0.0000 C   0  0  0  0  0  0  0  0  0  0  0  0
    3.9565    0.5734    0.0000 C   0  0  0  0  0  0  0  0  0  0  0  0
   13.2123   -1.5475    0.0000 C   0  0  0  0  0  0  0  0  0  0  0  0
   12.3463   -3.0475    0.0000 C   0  0  0  0  0  0  0  0  0  0  0  0
    5.9781    3.5590    0.0000 C   0  0  0  0  0  0  0  0  0  0  0  0
    7.6723    3.9191    0.0000 C   0  0  0  0  0  0  0  0  0  0  0  0
    3.7486    1.5516    0.0000 C   0  0  0  0  0  0  0  0  0  0  0  0
   14.0784   -2.0475    0.0000 C   0  0  0  0  0  0  0  0  0  0  0  0
    6.7212    4.2281    0.0000 C   0  0  0  0  0  0  0  0  0  0  0  0
    3.2134   -0.0957    0.0000 C   0  0  0  0  0  0  0  0  0  0  0  0
   13.2123   -3.5475    0.0000 C   0  0  0  0  0  0  0  0  0  0  0  0
   14.0784   -3.0475    0.0000 C   0  0  0  0  0  0  0  0  0  0  0  0
    2.7976    1.8606    0.0000 C   0  0  0  0  0  0  0  0  0  0  0  0
    4.4918    2.2207    0.0000 C   0  0  0  0  0  0  0  0  0  0  0  0
    2.2623    0.2133    0.0000 C   0  0  0  0  0  0  0  0  0  0  0  0
    2.0544    1.1915    0.0000 C   0  0  0  0  0  0  0  0  0  0  0  0
   15.6082   -2.5475    0.0000 C   0  0  0  0  0  0  0  0  0  0  0  0
    8.8498   -1.4284    0.0000 H   0  0  0  0  0  0  0  0  0  0  0  0
    8.8425   -3.6586    0.0000 H   0  0  0  0  0  0  0  0  0  0  0  0
    9.3977   -3.0420    0.0000 H   0  0  0  0  0  0  0  0  0  0  0  0
    6.8847   -1.9232    0.0000 H   0  0  0  0  0  0  0  0  0  0  0  0
    6.7980   -2.7484    0.0000 H   0  0  0  0  0  0  0  0  0  0  0  0
    6.2200   -0.1620    0.0000 H   0  0  0  0  0  0  0  0  0  0  0  0
    6.4729    1.2310    0.0000 H   0  0  0  0  0  0  0  0  0  0  0  0
    7.6735    0.7679    0.0000 H   0  0  0  0  0  0  0  0  0  0  0  0
    7.9198    1.5259    0.0000 H   0  0  0  0  0  0  0  0  0  0  0  0
   10.6143   -2.6675    0.0000 H   0  0  0  0  0  0  0  0  0  0  0  0
    5.5218    1.5400    0.0000 H   0  0  0  0  0  0  0  0  0  0  0  0
   11.8788   -1.0726    0.0000 H   0  0  0  0  0  0  0  0  0  0  0  0
   11.0818   -1.0726    0.0000 H   0  0  0  0  0  0  0  0  0  0  0  0
    6.1955   -1.6292    0.0000 H   0  0  0  0  0  0  0  0  0  0  0  0
    5.7252    2.1660    0.0000 H   0  0  0  0  0  0  0  0  0  0  0  0
    8.4698    2.7494    0.0000 H   0  0  0  0  0  0  0  0  0  0  0  0
   13.2123   -0.9275    0.0000 H   0  0  0  0  0  0  0  0  0  0  0  0
   11.8094   -3.3575    0.0000 H   0  0  0  0  0  0  0  0  0  0  0  0
    5.3884    3.7506    0.0000 H   0  0  0  0  0  0  0  0  0  0  0  0
    8.1330    4.3340    0.0000 H   0  0  0  0  0  0  0  0  0  0  0  0
    6.5923    4.8346    0.0000 H   0  0  0  0  0  0  0  0  0  0  0  0
    3.3423   -0.7022    0.0000 H   0  0  0  0  0  0  0  0  0  0  0  0
   13.2123   -4.1675    0.0000 H   0  0  0  0  0  0  0  0  0  0  0  0
    4.9066    1.7600    0.0000 H   0  0  0  0  0  0  0  0  0  0  0  0
    4.9525    2.6356    0.0000 H   0  0  0  0  0  0  0  0  0  0  0  0
    4.0769    2.6815    0.0000 H   0  0  0  0  0  0  0  0  0  0  0  0
    1.8016   -0.2015    0.0000 H   0  0  0  0  0  0  0  0  0  0  0  0
    1.4648    1.3831    0.0000 H   0  0  0  0  0  0  0  0  0  0  0  0
   16.0691   -2.9622    0.0000 H   0  0  0  0  0  0  0  0  0  0  0  0
   16.0691   -2.1328    0.0000 H   0  0  0  0  0  0  0  0  0  0  0  0
    2.0000    3.0303    0.0000 H   0  0  0  0  0  0  0  0  0  0  0  0
  1 15  1  0  0  0  0
  2 15  1  0  0  0  0
 18  3  1  1  0  0  0
  3 57  1  0  0  0  0
  4 17  2  0  0  0  0
  5 19  2  0  0  0  0
  6 24  2  0  0  0  0
  7 34  1  0  0  0  0
  7 43  1  0  0  0  0
  8 38  1  0  0  0  0
  8 43  1  0  0  0  0
  9 39  1  0  0  0  0
  9 74  1  0  0  0  0
 10 13  1  0  0  0  0
 10 16  1  0  0  0  0
 10 17  1  0  0  0  0
 11 19  1  0  0  0  0
 11 22  1  0  0  0  0
 11 53  1  0  0  0  0
 20 12  1  1  0  0  0
 12 24  1  0  0  0  0
 12 54  1  0  0  0  0
 13 14  1  0  0  0  0
 13 19  1  6  0  0  0
 13 44  1  0  0  0  0
 14 15  1  0  0  0  0
 14 45  1  0  0  0  0
 14 46  1  0  0  0  0
 15 16  1  0  0  0  0
 16 47  1  0  0  0  0
 16 48  1  0  0  0  0
 17 18  1  0  0  0  0
 18 20  1  0  0  0  0
 18 49  1  0  0  0  0
 20 21  1  0  0  0  0
 20 50  1  0  0  0  0
 21 23  1  0  0  0  0
 21 51  1  0  0  0  0
 21 52  1  0  0  0  0
 22 25  1  0  0  0  0
 22 55  1  0  0  0  0
 22 56  1  0  0  0  0
 23 26  2  0  0  0  0
 23 27  1  0  0  0  0
 24 28  1  0  0  0  0
 25 29  2  0  0  0  0
 25 30  1  0  0  0  0
 26 31  1  0  0  0  0
 26 58  1  0  0  0  0
 27 32  2  0  0  0  0
 27 59  1  0  0  0  0
 28 33  2  0  0  0  0
 28 36  1  0  0  0  0
 29 34  1  0  0  0  0
 29 60  1  0  0  0  0
 30 37  2  0  0  0  0
 30 61  1  0  0  0  0
 31 35  2  0  0  0  0
 31 62  1  0  0  0  0
 32 35  1  0  0  0  0
 32 63  1  0  0  0  0
 33 39  1  0  0  0  0
 33 40  1  0  0  0  0
 34 38  2  0  0  0  0
 35 64  1  0  0  0  0
 36 41  2  0  0  0  0
 36 65  1  0  0  0  0
 37 38  1  0  0  0  0
 37 66  1  0  0  0  0
 39 42  2  0  0  0  0
 40 67  1  0  0  0  0
 40 68  1  0  0  0  0
 40 69  1  0  0  0  0
 41 42  1  0  0  0  0
 41 70  1  0  0  0  0
 42 71  1  0  0  0  0
 43 72  1  0  0  0  0
 43 73  1  0  0  0  0
M  END
> <PUBCHEM_COMPOUND_CID>
514613
> <PUBCHEM_COMPOUND_CANONICALIZED>
1
> <PUBCHEM_CACTVS_COMPLEXITY>
996
> <PUBCHEM_CACTVS_HBOND_ACCEPTOR>
9
> <PUBCHEM_CACTVS_HBOND_DONOR>
4
> <PUBCHEM_CACTVS_ROTATABLE_BOND>
9
> <PUBCHEM_CACTVS_SUBSKEYS>
AAADceB7OYAAAAAAAAAAAAAAAAAAAWJAAAAwYMAAAAAAAEgBUAAAHwAQCAAADDzhmBcyDoPABgCIAiFSEAKCCAAkIAAIiIHOjMgfdjqG9Tu0cSpk1hGeuYe62bKOoAABAAAYQABAAAIAADCAAAAAAAAAAA==
> <PUBCHEM_IUPAC_OPENEYE_NAME>
(2S)-N-(1,3-benzodioxol-5-ylmethyl)-4,4-difluoro-1-[(2S,3S)-2-hydroxy-3-[(3-hydroxy-2-methyl-benzoyl)amino]-4-phenyl-butanoyl]pyrrolidine-2-carboxamide
> <PUBCHEM_IUPAC_CAS_NAME>
(2S)-N-(1,3-benzodioxol-5-ylmethyl)-4,4-difluoro-1-[(2S,3S)-2-hydroxy-3-[[(3-hydroxy-2-methylphenyl)-oxomethyl]amino]-1-oxo-4-phenylbutyl]-2-pyrrolidinecarboxamide
> <PUBCHEM_IUPAC_NAME_MARKUP>
(2<I>S</I>)-<I>N</I>-(1,3-benzodioxol-5-ylmethyl)-4,4-difluoro-1-[(2<I>S</I>,3<I>S</I>)-2-hydroxy-3-[(3-hydroxy-2-methylbenzoyl)amino]-4-phenylbutanoyl]pyrrolidine-2-carboxamide
> <PUBCHEM_IUPAC_NAME>
(2S)-N-(1,3-benzodioxol-5-ylmethyl)-4,4-difluoro-1-[(2S,3S)-2-hydroxy-3-[(3-hydroxy-2-methylbenzoyl)amino]-4-phenylbutanoyl]pyrrolidine-2-carboxamide
> <PUBCHEM_IUPAC_SYSTEMATIC_NAME>
(2S)-N-(1,3-benzodioxol-5-ylmethyl)-4,4-bis(fluoranyl)-1-[(2S,3S)-3-[(2-methyl-3-oxidanyl-phenyl)carbonylamino]-2-oxidanyl-4-phenyl-butanoyl]pyrrolidine-2-carboxamide
> <PUBCHEM_IUPAC_TRADITIONAL_NAME>
(2S)-4,4-difluoro-1-[(2S,3S)-2-hydroxy-3-[(3-hydroxy-2-methyl-benzoyl)amino]-4-phenyl-butanoyl]-N-piperonyl-pyrrolidine-2-carboxamide
> <PUBCHEM_IUPAC_INCHI>
InChI=1S/C31H31F2N3O7/c1-18-21(8-5-9-24(18)37)28(39)35-22(12-19-6-3-2-4-7-19)27(38)30(41)36-16-31(32,33)14-23(36)29(40)34-15-20-10-11-25-26(13-20)43-17-42-25/h2-11,13,22-23,27,37-38H,12,14-17H2,1H3,(H,34,40)(H,35,39)/t22-,23-,27-/m0/s1
> <PUBCHEM_IUPAC_INCHIKEY>
KQQNZDFGOLAOGJ-WCYRKSIYSA-N
> <PUBCHEM_XLOGP3_AA>
3.6
> <PUBCHEM_EXACT_MASS>
595.21300666
> <PUBCHEM_MOLECULAR_FORMULA>
C31H31F2N3O7
> <PUBCHEM_MOLECULAR_WEIGHT>
595.6
> <PUBCHEM_OPENEYE_CAN_SMILES>
CC1=C(C=CC=C1O)C(=O)NC(CC2=CC=CC=C2)C(C(=O)N3CC(CC3C(=O)NCC4=CC5=C(C=C4)OCO5)(F)F)O
> <PUBCHEM_OPENEYE_ISO_SMILES>
CC1=C(C=CC=C1O)C(=O)N[C@@H](CC2=CC=CC=C2)[C@@H](C(=O)N3CC(C[C@H]3C(=O)NCC4=CC5=C(C=C4)OCO5)(F)F)O
> <PUBCHEM_CACTVS_TPSA>
137
> <PUBCHEM_MONOISOTOPIC_WEIGHT>
595.21300666
> <PUBCHEM_TOTAL_CHARGE>
0
> <PUBCHEM_HEAVY_ATOM_COUNT>
43
> <PUBCHEM_ATOM_DEF_STEREO_COUNT>
3
> <PUBCHEM_ATOM_UDEF_STEREO_COUNT>
0
> <PUBCHEM_BOND_DEF_STEREO_COUNT>
0
> <PUBCHEM_BOND_UDEF_STEREO_COUNT>
0
> <PUBCHEM_ISOTOPIC_ATOM_COUNT>
0
> <PUBCHEM_COMPONENT_COUNT>
1
> <PUBCHEM_CACTVS_TAUTO_COUNT>
-1
> <PUBCHEM_COORDINATE_TYPE>
1
5
255
> <PUBCHEM_BONDANNOTATIONS>
20  12  5
13  19  6
23  26  8
23  27  8
25  29  8
25  30  8
26  31  8
27  32  8
28  33  8
28  36  8
29  34  8
18  3  5
30  37  8
31  35  8
32  35  8
33  39  8
34  38  8
36  41  8
37  38  8
39  42  8
41  42  8
$$$$
