514663
  -OEChem-10302200282D
 75 78  0     1  0  0  0  0  0999 V2000
    8.3916    3.5612    0.0000 S   0  0  0  0  0  0  0  0  0  0  0  0
    7.8916   -1.9776    0.0000 S   0  0  0  0  0  0  0  0  0  0  0  0
    9.6237    1.0224    0.0000 O   0  0  0  0  0  0  0  0  0  0  0  0
    7.0256    0.5224    0.0000 O   0  0  0  0  0  0  0  0  0  0  0  0
    5.9236    1.3230    0.0000 O   0  0  0  0  0  0  0  0  0  0  0  0
    8.8916   -1.9776    0.0000 O   0  0  0  0  0  0  0  0  0  0  0  0
    6.8916   -1.9776    0.0000 O   0  0  0  0  0  0  0  0  0  0  0  0
    7.8916    2.0224    0.0000 N   0  0  0  0  0  0  0  0  0  0  0  0
    5.3884    2.9702    0.0000 N   0  0  0  0  0  0  0  0  0  0  0  0
    7.8916   -0.9776    0.0000 N   0  0  0  0  0  0  0  0  0  0  0  0
    7.3916    3.5612    0.0000 C   0  0  0  0  0  0  0  0  0  0  0  0
    7.0826    2.6101    0.0000 C   0  0  1  0  0  0  0  0  0  0  0  0
    8.7006    2.6101    0.0000 C   0  0  0  0  0  0  0  0  0  0  0  0
    7.3916    4.5612    0.0000 C   0  0  0  0  0  0  0  0  0  0  0  0
    6.4406    3.8702    0.0000 C   0  0  0  0  0  0  0  0  0  0  0  0
    7.8916    1.0224    0.0000 C   0  0  0  0  0  0  0  0  0  0  0  0
    6.1316    2.3011    0.0000 C   0  0  0  0  0  0  0  0  0  0  0  0
    8.7576    0.5224    0.0000 C   0  0  2  0  0  0  0  0  0  0  0  0
    8.7576   -0.4776    0.0000 C   0  0  2  0  0  0  0  0  0  0  0  0
    9.6237   -0.9776    0.0000 C   0  0  0  0  0  0  0  0  0  0  0  0
    4.4374    2.6612    0.0000 C   0  0  0  0  0  0  0  0  0  0  0  0
   10.4897   -0.4776    0.0000 C   0  0  0  0  0  0  0  0  0  0  0  0
    3.6942    3.3304    0.0000 C   0  0  0  0  0  0  0  0  0  0  0  0
    7.8916   -2.9776    0.0000 C   0  0  0  0  0  0  0  0  0  0  0  0
   11.3557   -0.9776    0.0000 C   0  0  0  0  0  0  0  0  0  0  0  0
   10.4897    0.5224    0.0000 C   0  0  0  0  0  0  0  0  0  0  0  0
    2.7431    3.0214    0.0000 C   0  0  0  0  0  0  0  0  0  0  0  0
    3.9021    4.3085    0.0000 C   0  0  0  0  0  0  0  0  0  0  0  0
   12.2217   -0.4776    0.0000 C   0  0  0  0  0  0  0  0  0  0  0  0
   11.3557    1.0224    0.0000 C   0  0  0  0  0  0  0  0  0  0  0  0
    8.7576   -3.4776    0.0000 C   0  0  0  0  0  0  0  0  0  0  0  0
    7.0256   -3.4776    0.0000 C   0  0  0  0  0  0  0  0  0  0  0  0
   12.2217    0.5224    0.0000 C   0  0  0  0  0  0  0  0  0  0  0  0
    2.0000    3.6905    0.0000 C   0  0  0  0  0  0  0  0  0  0  0  0
    2.5352    2.0432    0.0000 C   0  0  0  0  0  0  0  0  0  0  0  0
    3.1590    4.9776    0.0000 C   0  0  0  0  0  0  0  0  0  0  0  0
    8.7576   -4.4776    0.0000 C   0  0  0  0  0  0  0  0  0  0  0  0
    7.0256   -4.4776    0.0000 C   0  0  0  0  0  0  0  0  0  0  0  0
    2.2079    4.6686    0.0000 C   0  0  0  0  0  0  0  0  0  0  0  0
    7.8916   -4.9776    0.0000 C   0  0  0  0  0  0  0  0  0  0  0  0
    6.9856    1.9978    0.0000 H   0  0  0  0  0  0  0  0  0  0  0  0
    9.0106    2.0732    0.0000 H   0  0  0  0  0  0  0  0  0  0  0  0
    9.2670    2.8623    0.0000 H   0  0  0  0  0  0  0  0  0  0  0  0
    8.0116    4.5612    0.0000 H   0  0  0  0  0  0  0  0  0  0  0  0
    7.3916    5.1812    0.0000 H   0  0  0  0  0  0  0  0  0  0  0  0
    6.7716    4.5612    0.0000 H   0  0  0  0  0  0  0  0  0  0  0  0
    6.6322    4.4599    0.0000 H   0  0  0  0  0  0  0  0  0  0  0  0
    5.8509    4.0618    0.0000 H   0  0  0  0  0  0  0  0  0  0  0  0
    6.2490    3.2806    0.0000 H   0  0  0  0  0  0  0  0  0  0  0  0
    9.2946    0.2124    0.0000 H   0  0  0  0  0  0  0  0  0  0  0  0
    8.2207   -0.1676    0.0000 H   0  0  0  0  0  0  0  0  0  0  0  0
    9.2251   -1.4526    0.0000 H   0  0  0  0  0  0  0  0  0  0  0  0
   10.0222   -1.4526    0.0000 H   0  0  0  0  0  0  0  0  0  0  0  0
    5.5173    3.5767    0.0000 H   0  0  0  0  0  0  0  0  0  0  0  0
    7.3547   -0.6676    0.0000 H   0  0  0  0  0  0  0  0  0  0  0  0
    3.9488    2.2795    0.0000 H   0  0  0  0  0  0  0  0  0  0  0  0
    4.7284    2.1138    0.0000 H   0  0  0  0  0  0  0  0  0  0  0  0
    9.6237    1.6424    0.0000 H   0  0  0  0  0  0  0  0  0  0  0  0
   11.3557   -1.5976    0.0000 H   0  0  0  0  0  0  0  0  0  0  0  0
    9.9528    0.8324    0.0000 H   0  0  0  0  0  0  0  0  0  0  0  0
    4.4918    4.5001    0.0000 H   0  0  0  0  0  0  0  0  0  0  0  0
   12.7587   -0.7876    0.0000 H   0  0  0  0  0  0  0  0  0  0  0  0
   11.3557    1.6424    0.0000 H   0  0  0  0  0  0  0  0  0  0  0  0
    9.2946   -3.1676    0.0000 H   0  0  0  0  0  0  0  0  0  0  0  0
    6.4887   -3.1676    0.0000 H   0  0  0  0  0  0  0  0  0  0  0  0
   12.7587    0.8324    0.0000 H   0  0  0  0  0  0  0  0  0  0  0  0
    1.4103    3.4989    0.0000 H   0  0  0  0  0  0  0  0  0  0  0  0
    1.9288    2.1721    0.0000 H   0  0  0  0  0  0  0  0  0  0  0  0
    2.4063    1.4368    0.0000 H   0  0  0  0  0  0  0  0  0  0  0  0
    3.1417    1.9143    0.0000 H   0  0  0  0  0  0  0  0  0  0  0  0
    3.2879    5.5841    0.0000 H   0  0  0  0  0  0  0  0  0  0  0  0
    9.2946   -4.7876    0.0000 H   0  0  0  0  0  0  0  0  0  0  0  0
    6.4887   -4.7876    0.0000 H   0  0  0  0  0  0  0  0  0  0  0  0
    1.7472    5.0835    0.0000 H   0  0  0  0  0  0  0  0  0  0  0  0
    7.8916   -5.5976    0.0000 H   0  0  0  0  0  0  0  0  0  0  0  0
  1 11  1  0  0  0  0
  1 13  1  0  0  0  0
  2  6  2  0  0  0  0
  2  7  2  0  0  0  0
  2 10  1  0  0  0  0
  2 24  1  0  0  0  0
 18  3  1  1  0  0  0
  3 58  1  0  0  0  0
  4 16  2  0  0  0  0
  5 17  2  0  0  0  0
  8 12  1  0  0  0  0
  8 13  1  0  0  0  0
  8 16  1  0  0  0  0
  9 17  1  0  0  0  0
  9 21  1  0  0  0  0
  9 54  1  0  0  0  0
 19 10  1  6  0  0  0
 10 55  1  0  0  0  0
 11 12  1  0  0  0  0
 11 14  1  0  0  0  0
 11 15  1  0  0  0  0
 12 17  1  6  0  0  0
 12 41  1  0  0  0  0
 13 42  1  0  0  0  0
 13 43  1  0  0  0  0
 14 44  1  0  0  0  0
 14 45  1  0  0  0  0
 14 46  1  0  0  0  0
 15 47  1  0  0  0  0
 15 48  1  0  0  0  0
 15 49  1  0  0  0  0
 16 18  1  0  0  0  0
 18 19  1  0  0  0  0
 18 50  1  0  0  0  0
 19 20  1  0  0  0  0
 19 51  1  0  0  0  0
 20 22  1  0  0  0  0
 20 52  1  0  0  0  0
 20 53  1  0  0  0  0
 21 23  1  0  0  0  0
 21 56  1  0  0  0  0
 21 57  1  0  0  0  0
 22 25  2  0  0  0  0
 22 26  1  0  0  0  0
 23 27  1  0  0  0  0
 23 28  2  0  0  0  0
 24 31  2  0  0  0  0
 24 32  1  0  0  0  0
 25 29  1  0  0  0  0
 25 59  1  0  0  0  0
 26 30  2  0  0  0  0
 26 60  1  0  0  0  0
 27 34  2  0  0  0  0
 27 35  1  0  0  0  0
 28 36  1  0  0  0  0
 28 61  1  0  0  0  0
 29 33  2  0  0  0  0
 29 62  1  0  0  0  0
 30 33  1  0  0  0  0
 30 63  1  0  0  0  0
 31 37  1  0  0  0  0
 31 64  1  0  0  0  0
 32 38  2  0  0  0  0
 32 65  1  0  0  0  0
 33 66  1  0  0  0  0
 34 39  1  0  0  0  0
 34 67  1  0  0  0  0
 35 68  1  0  0  0  0
 35 69  1  0  0  0  0
 35 70  1  0  0  0  0
 36 39  2  0  0  0  0
 36 71  1  0  0  0  0
 37 40  2  0  0  0  0
 37 72  1  0  0  0  0
 38 40  1  0  0  0  0
 38 73  1  0  0  0  0
 39 74  1  0  0  0  0
 40 75  1  0  0  0  0
M  END
> <PUBCHEM_COMPOUND_CID>
514663
> <PUBCHEM_COMPOUND_CANONICALIZED>
1
> <PUBCHEM_CACTVS_COMPLEXITY>
957
> <PUBCHEM_CACTVS_HBOND_ACCEPTOR>
7
> <PUBCHEM_CACTVS_HBOND_DONOR>
3
> <PUBCHEM_CACTVS_ROTATABLE_BOND>
10
> <PUBCHEM_CACTVS_SUBSKEYS>
AAADcfB7OABgAAAAAAAAAAAAAAAAAWAAAAAwYMAAAAAAAAABUAAAHgQQSAAADDzh2AayAYPAAgqIAiFSEHLCABBgABAIiJnIBIgKcDqg0TGUYAhklgCYiAeYyKCOgAAAAAAQAAAAAAAAACAAAAAAAAAAAA==
> <PUBCHEM_IUPAC_OPENEYE_NAME>
(4R)-3-[(2S,3S)-3-(benzenesulfonamido)-2-hydroxy-4-phenyl-butanoyl]-5,5-dimethyl-N-(o-tolylmethyl)thiazolidine-4-carboxamide
> <PUBCHEM_IUPAC_CAS_NAME>
(4R)-3-[(2S,3S)-3-(benzenesulfonamido)-2-hydroxy-1-oxo-4-phenylbutyl]-5,5-dimethyl-N-[(2-methylphenyl)methyl]-4-thiazolidinecarboxamide
> <PUBCHEM_IUPAC_NAME_MARKUP>
(4<I>R</I>)-3-[(2<I>S</I>,3<I>S</I>)-3-(benzenesulfonamido)-2-hydroxy-4-phenylbutanoyl]-5,5-dimethyl-<I>N</I>-[(2-methylphenyl)methyl]-1,3-thiazolidine-4-carboxamide
> <PUBCHEM_IUPAC_NAME>
(4R)-3-[(2S,3S)-3-(benzenesulfonamido)-2-hydroxy-4-phenylbutanoyl]-5,5-dimethyl-N-[(2-methylphenyl)methyl]-1,3-thiazolidine-4-carboxamide
> <PUBCHEM_IUPAC_SYSTEMATIC_NAME>
(4R)-5,5-dimethyl-N-[(2-methylphenyl)methyl]-3-[(2S,3S)-2-oxidanyl-4-phenyl-3-(phenylsulfonylamino)butanoyl]-1,3-thiazolidine-4-carboxamide
> <PUBCHEM_IUPAC_TRADITIONAL_NAME>
(4R)-3-[(2S,3S)-3-(benzenesulfonamido)-2-hydroxy-4-phenyl-butanoyl]-5,5-dimethyl-N-(2-methylbenzyl)thiazolidine-4-carboxamide
> <PUBCHEM_IUPAC_INCHI>
InChI=1S/C30H35N3O5S2/c1-21-12-10-11-15-23(21)19-31-28(35)27-30(2,3)39-20-33(27)29(36)26(34)25(18-22-13-6-4-7-14-22)32-40(37,38)24-16-8-5-9-17-24/h4-17,25-27,32,34H,18-20H2,1-3H3,(H,31,35)/t25-,26-,27+/m0/s1
> <PUBCHEM_IUPAC_INCHIKEY>
TVXWFDFZJQCLQH-GMQQYTKMSA-N
> <PUBCHEM_XLOGP3_AA>
4.2
> <PUBCHEM_EXACT_MASS>
581.20181357
> <PUBCHEM_MOLECULAR_FORMULA>
C30H35N3O5S2
> <PUBCHEM_MOLECULAR_WEIGHT>
581.7
> <PUBCHEM_OPENEYE_CAN_SMILES>
CC1=CC=CC=C1CNC(=O)C2C(SCN2C(=O)C(C(CC3=CC=CC=C3)NS(=O)(=O)C4=CC=CC=C4)O)(C)C
> <PUBCHEM_OPENEYE_ISO_SMILES>
CC1=CC=CC=C1CNC(=O)[C@@H]2C(SCN2C(=O)[C@H]([C@H](CC3=CC=CC=C3)NS(=O)(=O)C4=CC=CC=C4)O)(C)C
> <PUBCHEM_CACTVS_TPSA>
150
> <PUBCHEM_MONOISOTOPIC_WEIGHT>
581.20181357
> <PUBCHEM_TOTAL_CHARGE>
0
> <PUBCHEM_HEAVY_ATOM_COUNT>
40
> <PUBCHEM_ATOM_DEF_STEREO_COUNT>
3
> <PUBCHEM_ATOM_UDEF_STEREO_COUNT>
0
> <PUBCHEM_BOND_DEF_STEREO_COUNT>
0
> <PUBCHEM_BOND_UDEF_STEREO_COUNT>
0
> <PUBCHEM_ISOTOPIC_ATOM_COUNT>
0
> <PUBCHEM_COMPONENT_COUNT>
1
> <PUBCHEM_CACTVS_TAUTO_COUNT>
-1
> <PUBCHEM_COORDINATE_TYPE>
1
5
255
> <PUBCHEM_BONDANNOTATIONS>
19  10  6
12  17  6
22  25  8
22  26  8
23  27  8
23  28  8
24  31  8
24  32  8
25  29  8
26  30  8
27  34  8
28  36  8
29  33  8
18  3  5
30  33  8
31  37  8
32  38  8
34  39  8
36  39  8
37  40  8
38  40  8
$$$$
