514780
  -OEChem-10302200282D
 77 80  0     1  0  0  0  0  0999 V2000
    8.2788    2.6602    0.0000 S   0  0  0  0  0  0  0  0  0  0  0  0
    5.4641    2.4578    0.0000 O   0  0  0  0  0  0  0  0  0  0  0  0
    7.5745   -0.5963    0.0000 O   0  0  0  0  0  0  0  0  0  0  0  0
    6.3301   -0.0422    0.0000 O   0  0  0  0  0  0  0  0  0  0  0  0
    2.8660   -0.0422    0.0000 O   0  0  0  0  0  0  0  0  0  0  0  0
    2.0000   -3.5422    0.0000 O   0  0  0  0  0  0  0  0  0  0  0  0
    7.1962    1.4578    0.0000 N   0  0  0  0  0  0  0  0  0  0  0  0
    9.2687   -0.2361    0.0000 N   0  0  0  0  0  0  0  0  0  0  0  0
    4.5981   -0.0422    0.0000 N   0  0  0  0  0  0  0  0  0  0  0  0
    9.8924   -3.1706    0.0000 N   0  0  0  0  0  0  0  0  0  0  0  0
    8.7788    1.7942    0.0000 C   0  0  0  0  0  0  0  0  0  0  0  0
    8.1097    1.0510    0.0000 C   0  0  3  0  0  0  0  0  0  0  0  0
    7.3007    2.4523    0.0000 C   0  0  0  0  0  0  0  0  0  0  0  0
    9.6448    2.2942    0.0000 C   0  0  0  0  0  0  0  0  0  0  0  0
    9.5220    1.1250    0.0000 C   0  0  0  0  0  0  0  0  0  0  0  0
    8.3176    0.0729    0.0000 C   0  0  0  0  0  0  0  0  0  0  0  0
    6.3301    0.9578    0.0000 C   0  0  0  0  0  0  0  0  0  0  0  0
    5.4641    1.4578    0.0000 C   0  0  2  0  0  0  0  0  0  0  0  0
    4.5981    0.9578    0.0000 C   0  0  2  0  0  0  0  0  0  0  0  0
    3.7320    1.4578    0.0000 C   0  0  0  0  0  0  0  0  0  0  0  0
    9.4766   -1.2143    0.0000 C   0  0  0  0  0  0  0  0  0  0  0  0
    3.7320    2.4578    0.0000 C   0  0  0  0  0  0  0  0  0  0  0  0
   10.4276   -1.5233    0.0000 C   0  0  0  0  0  0  0  0  0  0  0  0
    3.7320   -0.5422    0.0000 C   0  0  0  0  0  0  0  0  0  0  0  0
    2.8660    2.9578    0.0000 C   0  0  0  0  0  0  0  0  0  0  0  0
    4.5981    2.9578    0.0000 C   0  0  0  0  0  0  0  0  0  0  0  0
    3.7320   -1.5422    0.0000 C   0  0  0  0  0  0  0  0  0  0  0  0
   10.6355   -2.5015    0.0000 C   0  0  0  0  0  0  0  0  0  0  0  0
    2.8660    3.9578    0.0000 C   0  0  0  0  0  0  0  0  0  0  0  0
    4.5981    3.9578    0.0000 C   0  0  0  0  0  0  0  0  0  0  0  0
    2.8660   -2.0422    0.0000 C   0  0  0  0  0  0  0  0  0  0  0  0
    3.7320    4.4578    0.0000 C   0  0  0  0  0  0  0  0  0  0  0  0
    4.5981   -2.0422    0.0000 C   0  0  0  0  0  0  0  0  0  0  0  0
   11.5866   -2.8105    0.0000 C   0  0  0  0  0  0  0  0  0  0  0  0
    2.8660   -3.0422    0.0000 C   0  0  0  0  0  0  0  0  0  0  0  0
    2.0000   -1.5422    0.0000 C   0  0  0  0  0  0  0  0  0  0  0  0
    4.5981   -3.0422    0.0000 C   0  0  0  0  0  0  0  0  0  0  0  0
    3.7320   -3.5422    0.0000 C   0  0  0  0  0  0  0  0  0  0  0  0
   11.7945   -3.7886    0.0000 C   0  0  0  0  0  0  0  0  0  0  0  0
   10.1003   -4.1487    0.0000 C   0  0  0  0  0  0  0  0  0  0  0  0
   11.0514   -4.4578    0.0000 C   0  0  0  0  0  0  0  0  0  0  0  0
    7.6279    0.6608    0.0000 H   0  0  0  0  0  0  0  0  0  0  0  0
    7.2359    3.0689    0.0000 H   0  0  0  0  0  0  0  0  0  0  0  0
    6.6807    2.4523    0.0000 H   0  0  0  0  0  0  0  0  0  0  0  0
    9.9548    1.7572    0.0000 H   0  0  0  0  0  0  0  0  0  0  0  0
   10.1818    2.6042    0.0000 H   0  0  0  0  0  0  0  0  0  0  0  0
    9.3348    2.8311    0.0000 H   0  0  0  0  0  0  0  0  0  0  0  0
    9.1071    0.6643    0.0000 H   0  0  0  0  0  0  0  0  0  0  0  0
    9.9827    0.7102    0.0000 H   0  0  0  0  0  0  0  0  0  0  0  0
    9.9368    1.5858    0.0000 H   0  0  0  0  0  0  0  0  0  0  0  0
    6.0010    1.7678    0.0000 H   0  0  0  0  0  0  0  0  0  0  0  0
    5.1350    0.6478    0.0000 H   0  0  0  0  0  0  0  0  0  0  0  0
    9.7294    0.1787    0.0000 H   0  0  0  0  0  0  0  0  0  0  0  0
    3.1215    1.5654    0.0000 H   0  0  0  0  0  0  0  0  0  0  0  0
    3.5200    0.8751    0.0000 H   0  0  0  0  0  0  0  0  0  0  0  0
    5.1350   -0.3522    0.0000 H   0  0  0  0  0  0  0  0  0  0  0  0
    8.8570   -1.2359    0.0000 H   0  0  0  0  0  0  0  0  0  0  0  0
    9.3903   -1.8283    0.0000 H   0  0  0  0  0  0  0  0  0  0  0  0
    6.0010    2.7678    0.0000 H   0  0  0  0  0  0  0  0  0  0  0  0
   11.0473   -1.5017    0.0000 H   0  0  0  0  0  0  0  0  0  0  0  0
   10.5139   -0.9093    0.0000 H   0  0  0  0  0  0  0  0  0  0  0  0
    2.3291    2.6478    0.0000 H   0  0  0  0  0  0  0  0  0  0  0  0
    5.1350    2.6478    0.0000 H   0  0  0  0  0  0  0  0  0  0  0  0
    2.3291    4.2678    0.0000 H   0  0  0  0  0  0  0  0  0  0  0  0
    5.1350    4.2678    0.0000 H   0  0  0  0  0  0  0  0  0  0  0  0
    3.7320    5.0778    0.0000 H   0  0  0  0  0  0  0  0  0  0  0  0
    5.1350   -1.7322    0.0000 H   0  0  0  0  0  0  0  0  0  0  0  0
   12.0474   -2.3956    0.0000 H   0  0  0  0  0  0  0  0  0  0  0  0
    2.3100   -1.0053    0.0000 H   0  0  0  0  0  0  0  0  0  0  0  0
    1.4631   -1.2322    0.0000 H   0  0  0  0  0  0  0  0  0  0  0  0
    1.6900   -2.0792    0.0000 H   0  0  0  0  0  0  0  0  0  0  0  0
    5.1350   -3.3522    0.0000 H   0  0  0  0  0  0  0  0  0  0  0  0
    3.7320   -4.1622    0.0000 H   0  0  0  0  0  0  0  0  0  0  0  0
   12.3842   -3.9802    0.0000 H   0  0  0  0  0  0  0  0  0  0  0  0
    9.6396   -4.5636    0.0000 H   0  0  0  0  0  0  0  0  0  0  0  0
   11.1803   -5.0642    0.0000 H   0  0  0  0  0  0  0  0  0  0  0  0
    2.0000   -4.1622    0.0000 H   0  0  0  0  0  0  0  0  0  0  0  0
  1 11  1  0  0  0  0
  1 13  1  0  0  0  0
 18  2  1  6  0  0  0
  2 59  1  0  0  0  0
  3 16  2  0  0  0  0
  4 17  2  0  0  0  0
  5 24  2  0  0  0  0
  6 35  1  0  0  0  0
  6 77  1  0  0  0  0
  7 12  1  0  0  0  0
  7 13  1  0  0  0  0
  7 17  1  0  0  0  0
  8 16  1  0  0  0  0
  8 21  1  0  0  0  0
  8 53  1  0  0  0  0
 19  9  1  1  0  0  0
  9 24  1  0  0  0  0
  9 56  1  0  0  0  0
 10 28  1  0  0  0  0
 10 40  2  0  0  0  0
 11 12  1  0  0  0  0
 11 14  1  0  0  0  0
 11 15  1  0  0  0  0
 12 16  1  0  0  0  0
 12 42  1  0  0  0  0
 13 43  1  0  0  0  0
 13 44  1  0  0  0  0
 14 45  1  0  0  0  0
 14 46  1  0  0  0  0
 14 47  1  0  0  0  0
 15 48  1  0  0  0  0
 15 49  1  0  0  0  0
 15 50  1  0  0  0  0
 17 18  1  0  0  0  0
 18 19  1  0  0  0  0
 18 51  1  0  0  0  0
 19 20  1  0  0  0  0
 19 52  1  0  0  0  0
 20 22  1  0  0  0  0
 20 54  1  0  0  0  0
 20 55  1  0  0  0  0
 21 23  1  0  0  0  0
 21 57  1  0  0  0  0
 21 58  1  0  0  0  0
 22 25  2  0  0  0  0
 22 26  1  0  0  0  0
 23 28  1  0  0  0  0
 23 60  1  0  0  0  0
 23 61  1  0  0  0  0
 24 27  1  0  0  0  0
 25 29  1  0  0  0  0
 25 62  1  0  0  0  0
 26 30  2  0  0  0  0
 26 63  1  0  0  0  0
 27 31  2  0  0  0  0
 27 33  1  0  0  0  0
 28 34  2  0  0  0  0
 29 32  2  0  0  0  0
 29 64  1  0  0  0  0
 30 32  1  0  0  0  0
 30 65  1  0  0  0  0
 31 35  1  0  0  0  0
 31 36  1  0  0  0  0
 32 66  1  0  0  0  0
 33 37  2  0  0  0  0
 33 67  1  0  0  0  0
 34 39  1  0  0  0  0
 34 68  1  0  0  0  0
 35 38  2  0  0  0  0
 36 69  1  0  0  0  0
 36 70  1  0  0  0  0
 36 71  1  0  0  0  0
 37 38  1  0  0  0  0
 37 72  1  0  0  0  0
 38 73  1  0  0  0  0
 39 41  2  0  0  0  0
 39 74  1  0  0  0  0
 40 41  1  0  0  0  0
 40 75  1  0  0  0  0
 41 76  1  0  0  0  0
M  END
> <PUBCHEM_COMPOUND_CID>
514780
> <PUBCHEM_COMPOUND_CANONICALIZED>
1
> <PUBCHEM_CACTVS_COMPLEXITY>
898
> <PUBCHEM_CACTVS_HBOND_ACCEPTOR>
7
> <PUBCHEM_CACTVS_HBOND_DONOR>
4
> <PUBCHEM_CACTVS_ROTATABLE_BOND>
10
> <PUBCHEM_CACTVS_SUBSKEYS>
AAADcfB7uABAAAAAAAAAAAAAAAAAAWAAAAA8YIAAAAAAAAAB0AAAHgQQCAAADDzh3ga+hpPIEgioAzV3VAKCgCB1IjAI2KH+bNgKdvri1bOUcQhk1hHY2Ye6yLCOgAABAAAYAAAAAAIAADAAAAAAAAAAAA==
> <PUBCHEM_IUPAC_OPENEYE_NAME>
3-[(2S,3S)-2-hydroxy-3-[(3-hydroxy-2-methyl-benzoyl)amino]-4-phenyl-butanoyl]-5,5-dimethyl-N-[2-(2-pyridyl)ethyl]thiazolidine-4-carboxamide
> <PUBCHEM_IUPAC_CAS_NAME>
3-[(2S,3S)-2-hydroxy-3-[[(3-hydroxy-2-methylphenyl)-oxomethyl]amino]-1-oxo-4-phenylbutyl]-5,5-dimethyl-N-[2-(2-pyridinyl)ethyl]-4-thiazolidinecarboxamide
> <PUBCHEM_IUPAC_NAME_MARKUP>
3-[(2<I>S</I>,3<I>S</I>)-2-hydroxy-3-[(3-hydroxy-2-methylbenzoyl)amino]-4-phenylbutanoyl]-5,5-dimethyl-<I>N</I>-(2-pyridin-2-ylethyl)-1,3-thiazolidine-4-carboxamide
> <PUBCHEM_IUPAC_NAME>
3-[(2S,3S)-2-hydroxy-3-[(3-hydroxy-2-methylbenzoyl)amino]-4-phenylbutanoyl]-5,5-dimethyl-N-(2-pyridin-2-ylethyl)-1,3-thiazolidine-4-carboxamide
> <PUBCHEM_IUPAC_SYSTEMATIC_NAME>
5,5-dimethyl-3-[(2S,3S)-3-[(2-methyl-3-oxidanyl-phenyl)carbonylamino]-2-oxidanyl-4-phenyl-butanoyl]-N-(2-pyridin-2-ylethyl)-1,3-thiazolidine-4-carboxamide
> <PUBCHEM_IUPAC_TRADITIONAL_NAME>
3-[(2S,3S)-2-hydroxy-3-[(3-hydroxy-2-methyl-benzoyl)amino]-4-phenyl-butanoyl]-5,5-dimethyl-N-[2-(2-pyridyl)ethyl]thiazolidine-4-carboxamide
> <PUBCHEM_IUPAC_INCHI>
InChI=1S/C31H36N4O5S/c1-20-23(13-9-14-25(20)36)28(38)34-24(18-21-10-5-4-6-11-21)26(37)30(40)35-19-41-31(2,3)27(35)29(39)33-17-15-22-12-7-8-16-32-22/h4-14,16,24,26-27,36-37H,15,17-19H2,1-3H3,(H,33,39)(H,34,38)/t24-,26-,27?/m0/s1
> <PUBCHEM_IUPAC_INCHIKEY>
QWSCHYNTUKYRAN-OGUPFJCYSA-N
> <PUBCHEM_XLOGP3_AA>
3.5
> <PUBCHEM_EXACT_MASS>
576.24064144
> <PUBCHEM_MOLECULAR_FORMULA>
C31H36N4O5S
> <PUBCHEM_MOLECULAR_WEIGHT>
576.7
> <PUBCHEM_OPENEYE_CAN_SMILES>
CC1=C(C=CC=C1O)C(=O)NC(CC2=CC=CC=C2)C(C(=O)N3CSC(C3C(=O)NCCC4=CC=CC=N4)(C)C)O
> <PUBCHEM_OPENEYE_ISO_SMILES>
CC1=C(C=CC=C1O)C(=O)N[C@@H](CC2=CC=CC=C2)[C@@H](C(=O)N3CSC(C3C(=O)NCCC4=CC=CC=N4)(C)C)O
> <PUBCHEM_CACTVS_TPSA>
157
> <PUBCHEM_MONOISOTOPIC_WEIGHT>
576.24064144
> <PUBCHEM_TOTAL_CHARGE>
0
> <PUBCHEM_HEAVY_ATOM_COUNT>
41
> <PUBCHEM_ATOM_DEF_STEREO_COUNT>
2
> <PUBCHEM_ATOM_UDEF_STEREO_COUNT>
1
> <PUBCHEM_BOND_DEF_STEREO_COUNT>
0
> <PUBCHEM_BOND_UDEF_STEREO_COUNT>
0
> <PUBCHEM_ISOTOPIC_ATOM_COUNT>
0
> <PUBCHEM_COMPONENT_COUNT>
1
> <PUBCHEM_CACTVS_TAUTO_COUNT>
-1
> <PUBCHEM_COORDINATE_TYPE>
1
5
255
> <PUBCHEM_BONDANNOTATIONS>
10  28  8
10  40  8
12  16  3
18  2  6
22  25  8
22  26  8
25  29  8
26  30  8
27  31  8
27  33  8
28  34  8
29  32  8
30  32  8
31  35  8
33  37  8
34  39  8
35  38  8
37  38  8
39  41  8
40  41  8
19  9  5
$$$$
