514738
  -OEChem-10302200282D
 67 69  0     1  0  0  0  0  0999 V2000
    6.5439    3.0612    0.0000 F   0  0  0  0  0  0  0  0  0  0  0  0
    5.5929    3.7522    0.0000 F   0  0  0  0  0  0  0  0  0  0  0  0
   11.0057   -0.9503    0.0000 O   0  0  0  0  0  0  0  0  0  0  0  0
    6.8249    0.2133    0.0000 O   0  0  0  0  0  0  0  0  0  0  0  0
    4.2268   -0.2867    0.0000 O   0  0  0  0  0  0  0  0  0  0  0  0
    3.1249    0.5140    0.0000 O   0  0  0  0  0  0  0  0  0  0  0  0
    7.6910   -0.2867    0.0000 O   0  0  0  0  0  0  0  0  0  0  0  0
    5.0929    1.2133    0.0000 N   0  0  0  0  0  0  0  0  0  0  0  0
    6.8249   -1.7867    0.0000 N   0  0  0  0  0  0  0  0  0  0  0  0
    2.5896    2.1612    0.0000 N   0  0  0  0  0  0  0  0  0  0  0  0
    4.2839    1.8011    0.0000 C   0  0  1  0  0  0  0  0  0  0  0  0
    4.5929    2.7522    0.0000 C   0  0  0  0  0  0  0  0  0  0  0  0
    5.5929    2.7522    0.0000 C   0  0  0  0  0  0  0  0  0  0  0  0
    5.9019    1.8011    0.0000 C   0  0  0  0  0  0  0  0  0  0  0  0
    5.9589   -0.2867    0.0000 C   0  0  2  0  0  0  0  0  0  0  0  0
    5.0929    0.2133    0.0000 C   0  0  0  0  0  0  0  0  0  0  0  0
    5.9589   -1.2867    0.0000 C   0  0  2  0  0  0  0  0  0  0  0  0
    9.4230   -1.2867    0.0000 C   0  0  2  0  0  0  0  0  0  0  0  0
    3.3328    1.4921    0.0000 C   0  0  0  0  0  0  0  0  0  0  0  0
    9.5275   -0.2921    0.0000 C   0  0  0  0  0  0  0  0  0  0  0  0
    8.5570   -1.7867    0.0000 C   0  0  0  0  0  0  0  0  0  0  0  0
   10.3365   -1.6934    0.0000 C   0  0  0  0  0  0  0  0  0  0  0  0
    5.0929   -1.7867    0.0000 C   0  0  0  0  0  0  0  0  0  0  0  0
   10.5057   -0.0842    0.0000 C   0  0  0  0  0  0  0  0  0  0  0  0
    7.6910   -1.2867    0.0000 C   0  0  0  0  0  0  0  0  0  0  0  0
    5.0929   -2.7867    0.0000 C   0  0  0  0  0  0  0  0  0  0  0  0
    2.7976    3.1394    0.0000 C   0  0  0  0  0  0  0  0  0  0  0  0
    2.0544    3.8085    0.0000 C   0  0  0  0  0  0  0  0  0  0  0  0
    5.9589   -3.2867    0.0000 C   0  0  0  0  0  0  0  0  0  0  0  0
    4.2268   -3.2867    0.0000 C   0  0  0  0  0  0  0  0  0  0  0  0
    5.9589   -4.2867    0.0000 C   0  0  0  0  0  0  0  0  0  0  0  0
    4.2268   -4.2867    0.0000 C   0  0  0  0  0  0  0  0  0  0  0  0
    2.2623    4.7867    0.0000 C   0  0  0  0  0  0  0  0  0  0  0  0
    5.0929   -4.7867    0.0000 C   0  0  0  0  0  0  0  0  0  0  0  0
    4.1869    1.1888    0.0000 H   0  0  0  0  0  0  0  0  0  0  0  0
    4.6577    3.3688    0.0000 H   0  0  0  0  0  0  0  0  0  0  0  0
    3.9864    2.8811    0.0000 H   0  0  0  0  0  0  0  0  0  0  0  0
    6.2119    1.2642    0.0000 H   0  0  0  0  0  0  0  0  0  0  0  0
    6.4683    2.0533    0.0000 H   0  0  0  0  0  0  0  0  0  0  0  0
    5.9589    0.3333    0.0000 H   0  0  0  0  0  0  0  0  0  0  0  0
    6.4958   -0.9767    0.0000 H   0  0  0  0  0  0  0  0  0  0  0  0
    8.9030   -0.9490    0.0000 H   0  0  0  0  0  0  0  0  0  0  0  0
    9.4627    0.3245    0.0000 H   0  0  0  0  0  0  0  0  0  0  0  0
    8.9075   -0.2921    0.0000 H   0  0  0  0  0  0  0  0  0  0  0  0
    8.1584   -2.2616    0.0000 H   0  0  0  0  0  0  0  0  0  0  0  0
    8.9555   -2.2616    0.0000 H   0  0  0  0  0  0  0  0  0  0  0  0
   10.0265   -2.2303    0.0000 H   0  0  0  0  0  0  0  0  0  0  0  0
   10.8381   -2.0578    0.0000 H   0  0  0  0  0  0  0  0  0  0  0  0
    4.8808   -1.2040    0.0000 H   0  0  0  0  0  0  0  0  0  0  0  0
    4.4823   -1.8943    0.0000 H   0  0  0  0  0  0  0  0  0  0  0  0
    6.8249   -2.4067    0.0000 H   0  0  0  0  0  0  0  0  0  0  0  0
   11.0721    0.1679    0.0000 H   0  0  0  0  0  0  0  0  0  0  0  0
   10.3141    0.5054    0.0000 H   0  0  0  0  0  0  0  0  0  0  0  0
    2.0000    1.9696    0.0000 H   0  0  0  0  0  0  0  0  0  0  0  0
    6.8249    0.8333    0.0000 H   0  0  0  0  0  0  0  0  0  0  0  0
    3.3724    2.9071    0.0000 H   0  0  0  0  0  0  0  0  0  0  0  0
    3.1261    3.6652    0.0000 H   0  0  0  0  0  0  0  0  0  0  0  0
    1.4796    4.0408    0.0000 H   0  0  0  0  0  0  0  0  0  0  0  0
    1.7259    3.2827    0.0000 H   0  0  0  0  0  0  0  0  0  0  0  0
    6.4958   -2.9767    0.0000 H   0  0  0  0  0  0  0  0  0  0  0  0
    3.6899   -2.9767    0.0000 H   0  0  0  0  0  0  0  0  0  0  0  0
    6.4958   -4.5967    0.0000 H   0  0  0  0  0  0  0  0  0  0  0  0
    3.6899   -4.5967    0.0000 H   0  0  0  0  0  0  0  0  0  0  0  0
    2.8688    4.6578    0.0000 H   0  0  0  0  0  0  0  0  0  0  0  0
    2.3912    5.3931    0.0000 H   0  0  0  0  0  0  0  0  0  0  0  0
    1.6559    4.9156    0.0000 H   0  0  0  0  0  0  0  0  0  0  0  0
    5.0929   -5.4067    0.0000 H   0  0  0  0  0  0  0  0  0  0  0  0
  1 13  1  0  0  0  0
  2 13  1  0  0  0  0
  3 22  1  0  0  0  0
  3 24  1  0  0  0  0
 15  4  1  1  0  0  0
  4 55  1  0  0  0  0
  5 16  2  0  0  0  0
  6 19  2  0  0  0  0
  7 25  2  0  0  0  0
  8 11  1  0  0  0  0
  8 14  1  0  0  0  0
  8 16  1  0  0  0  0
 17  9  1  1  0  0  0
  9 25  1  0  0  0  0
  9 51  1  0  0  0  0
 10 19  1  0  0  0  0
 10 27  1  0  0  0  0
 10 54  1  0  0  0  0
 11 12  1  0  0  0  0
 11 19  1  6  0  0  0
 11 35  1  0  0  0  0
 12 13  1  0  0  0  0
 12 36  1  0  0  0  0
 12 37  1  0  0  0  0
 13 14  1  0  0  0  0
 14 38  1  0  0  0  0
 14 39  1  0  0  0  0
 15 16  1  0  0  0  0
 15 17  1  0  0  0  0
 15 40  1  0  0  0  0
 17 23  1  0  0  0  0
 17 41  1  0  0  0  0
 18 20  1  0  0  0  0
 18 21  1  1  0  0  0
 18 22  1  0  0  0  0
 18 42  1  0  0  0  0
 20 24  1  0  0  0  0
 20 43  1  0  0  0  0
 20 44  1  0  0  0  0
 21 25  1  0  0  0  0
 21 45  1  0  0  0  0
 21 46  1  0  0  0  0
 22 47  1  0  0  0  0
 22 48  1  0  0  0  0
 23 26  1  0  0  0  0
 23 49  1  0  0  0  0
 23 50  1  0  0  0  0
 24 52  1  0  0  0  0
 24 53  1  0  0  0  0
 26 29  2  0  0  0  0
 26 30  1  0  0  0  0
 27 28  1  0  0  0  0
 27 56  1  0  0  0  0
 27 57  1  0  0  0  0
 28 33  1  0  0  0  0
 28 58  1  0  0  0  0
 28 59  1  0  0  0  0
 29 31  1  0  0  0  0
 29 60  1  0  0  0  0
 30 32  2  0  0  0  0
 30 61  1  0  0  0  0
 31 34  2  0  0  0  0
 31 62  1  0  0  0  0
 32 34  1  0  0  0  0
 32 63  1  0  0  0  0
 33 64  1  0  0  0  0
 33 65  1  0  0  0  0
 33 66  1  0  0  0  0
 34 67  1  0  0  0  0
M  END
> <PUBCHEM_COMPOUND_CID>
514738
> <PUBCHEM_COMPOUND_CANONICALIZED>
1
> <PUBCHEM_CACTVS_COMPLEXITY>
717
> <PUBCHEM_CACTVS_HBOND_ACCEPTOR>
7
> <PUBCHEM_CACTVS_HBOND_DONOR>
3
> <PUBCHEM_CACTVS_ROTATABLE_BOND>
10
> <PUBCHEM_CACTVS_SUBSKEYS>
AAADcfB7OYAAAAAAAAAAAAAAAAAAAWJAAAAwAAAAAAAAAAABAAAAHwAQCAAADTzhmBYyAIPABgCIAiFSEAICAAAgAAAIiIHIAIgKcDqA0TGWYAAklgCYiAe63aKOAAAAAAAAAAAAAAAAAAAAAAAAAAAAAA==
> <PUBCHEM_IUPAC_OPENEYE_NAME>
(2S)-4,4-difluoro-1-[(2S,3S)-2-hydroxy-4-phenyl-3-[[2-[(3R)-tetrahydrofuran-3-yl]acetyl]amino]butanoyl]-N-propyl-pyrrolidine-2-carboxamide
> <PUBCHEM_IUPAC_CAS_NAME>
(2S)-4,4-difluoro-1-[(2S,3S)-2-hydroxy-1-oxo-3-[[1-oxo-2-[(3R)-3-oxolanyl]ethyl]amino]-4-phenylbutyl]-N-propyl-2-pyrrolidinecarboxamide
> <PUBCHEM_IUPAC_NAME_MARKUP>
(2<I>S</I>)-4,4-difluoro-1-[(2<I>S</I>,3<I>S</I>)-2-hydroxy-3-[[2-[(3<I>R</I>)-oxolan-3-yl]acetyl]amino]-4-phenylbutanoyl]-<I>N</I>-propylpyrrolidine-2-carboxamide
> <PUBCHEM_IUPAC_NAME>
(2S)-4,4-difluoro-1-[(2S,3S)-2-hydroxy-3-[[2-[(3R)-oxolan-3-yl]acetyl]amino]-4-phenylbutanoyl]-N-propylpyrrolidine-2-carboxamide
> <PUBCHEM_IUPAC_SYSTEMATIC_NAME>
(2S)-4,4-bis(fluoranyl)-1-[(2S,3S)-2-oxidanyl-3-[2-[(3R)-oxolan-3-yl]ethanoylamino]-4-phenyl-butanoyl]-N-propyl-pyrrolidine-2-carboxamide
> <PUBCHEM_IUPAC_TRADITIONAL_NAME>
(2S)-4,4-difluoro-1-[(2S,3S)-2-hydroxy-4-phenyl-3-[[2-[(3R)-tetrahydrofuran-3-yl]acetyl]amino]butanoyl]-N-propyl-pyrrolidine-2-carboxamide
> <PUBCHEM_IUPAC_INCHI>
InChI=1S/C24H33F2N3O5/c1-2-9-27-22(32)19-13-24(25,26)15-29(19)23(33)21(31)18(11-16-6-4-3-5-7-16)28-20(30)12-17-8-10-34-14-17/h3-7,17-19,21,31H,2,8-15H2,1H3,(H,27,32)(H,28,30)/t17-,18+,19+,21+/m1/s1
> <PUBCHEM_IUPAC_INCHIKEY>
OTMYBXVRWXTPKP-JKBKZWBZSA-N
> <PUBCHEM_XLOGP3_AA>
1.7
> <PUBCHEM_EXACT_MASS>
481.23882749
> <PUBCHEM_MOLECULAR_FORMULA>
C24H33F2N3O5
> <PUBCHEM_MOLECULAR_WEIGHT>
481.5
> <PUBCHEM_OPENEYE_CAN_SMILES>
CCCNC(=O)C1CC(CN1C(=O)C(C(CC2=CC=CC=C2)NC(=O)CC3CCOC3)O)(F)F
> <PUBCHEM_OPENEYE_ISO_SMILES>
CCCNC(=O)[C@@H]1CC(CN1C(=O)[C@H]([C@H](CC2=CC=CC=C2)NC(=O)C[C@H]3CCOC3)O)(F)F
> <PUBCHEM_CACTVS_TPSA>
108
> <PUBCHEM_MONOISOTOPIC_WEIGHT>
481.23882749
> <PUBCHEM_TOTAL_CHARGE>
0
> <PUBCHEM_HEAVY_ATOM_COUNT>
34
> <PUBCHEM_ATOM_DEF_STEREO_COUNT>
4
> <PUBCHEM_ATOM_UDEF_STEREO_COUNT>
0
> <PUBCHEM_BOND_DEF_STEREO_COUNT>
0
> <PUBCHEM_BOND_UDEF_STEREO_COUNT>
0
> <PUBCHEM_ISOTOPIC_ATOM_COUNT>
0
> <PUBCHEM_COMPONENT_COUNT>
1
> <PUBCHEM_CACTVS_TAUTO_COUNT>
-1
> <PUBCHEM_COORDINATE_TYPE>
1
5
255
> <PUBCHEM_BONDANNOTATIONS>
11  19  6
18  21  5
26  29  8
26  30  8
29  31  8
30  32  8
31  34  8
32  34  8
15  4  5
17  9  5
$$$$
