514761
  -OEChem-10302200282D
 81 85  0     1  0  0  0  0  0999 V2000
   10.9643   -1.3780    0.0000 S   0  0  0  0  0  0  0  0  0  0  0  0
    6.2619    4.0348    0.0000 S   0  0  0  0  0  0  0  0  0  0  0  0
   10.7619    1.4368    0.0000 O   0  0  0  0  0  0  0  0  0  0  0  0
    7.7079   -0.6736    0.0000 O   0  0  0  0  0  0  0  0  0  0  0  0
    8.2619    0.5707    0.0000 O   0  0  0  0  0  0  0  0  0  0  0  0
    8.2619    4.0348    0.0000 O   0  0  0  0  0  0  0  0  0  0  0  0
    9.7619   -0.2953    0.0000 N   0  0  0  0  0  0  0  0  0  0  0  0
    8.0680   -2.3678    0.0000 N   0  0  0  0  0  0  0  0  0  0  0  0
    8.2619    2.3028    0.0000 N   0  0  0  0  0  0  0  0  0  0  0  0
    4.6783    4.8396    0.0000 N   0  0  0  0  0  0  0  0  0  0  0  0
    4.6783    3.2301    0.0000 N   0  0  0  0  0  0  0  0  0  0  0  0
   10.0983   -1.8780    0.0000 C   0  0  0  0  0  0  0  0  0  0  0  0
    9.3551   -1.2088    0.0000 C   0  0  1  0  0  0  0  0  0  0  0  0
   10.7564   -0.3998    0.0000 C   0  0  0  0  0  0  0  0  0  0  0  0
   10.5983   -2.7440    0.0000 C   0  0  0  0  0  0  0  0  0  0  0  0
    9.4292   -2.6211    0.0000 C   0  0  0  0  0  0  0  0  0  0  0  0
    8.3770   -1.4168    0.0000 C   0  0  0  0  0  0  0  0  0  0  0  0
    9.2619    0.5707    0.0000 C   0  0  0  0  0  0  0  0  0  0  0  0
    9.7619    1.4368    0.0000 C   0  0  2  0  0  0  0  0  0  0  0  0
    9.2619    2.3028    0.0000 C   0  0  2  0  0  0  0  0  0  0  0  0
    9.7619    3.1688    0.0000 C   0  0  0  0  0  0  0  0  0  0  0  0
    7.0898   -2.5757    0.0000 C   0  0  0  0  0  0  0  0  0  0  0  0
   10.7619    3.1688    0.0000 C   0  0  0  0  0  0  0  0  0  0  0  0
    6.7808   -3.5268    0.0000 C   0  0  0  0  0  0  0  0  0  0  0  0
    7.7619    3.1688    0.0000 C   0  0  0  0  0  0  0  0  0  0  0  0
   11.2619    2.3028    0.0000 C   0  0  0  0  0  0  0  0  0  0  0  0
   11.2619    4.0348    0.0000 C   0  0  0  0  0  0  0  0  0  0  0  0
    7.4499   -4.2699    0.0000 C   0  0  0  0  0  0  0  0  0  0  0  0
    6.7619    3.1688    0.0000 C   0  0  0  0  0  0  0  0  0  0  0  0
    5.8027   -3.7347    0.0000 C   0  0  0  0  0  0  0  0  0  0  0  0
   12.2619    2.3028    0.0000 C   0  0  0  0  0  0  0  0  0  0  0  0
   12.2619    4.0348    0.0000 C   0  0  0  0  0  0  0  0  0  0  0  0
    7.1409   -5.2210    0.0000 C   0  0  0  0  0  0  0  0  0  0  0  0
   12.7619    3.1688    0.0000 C   0  0  0  0  0  0  0  0  0  0  0  0
    8.4281   -4.0620    0.0000 C   0  0  0  0  0  0  0  0  0  0  0  0
    5.4936   -4.6857    0.0000 C   0  0  0  0  0  0  0  0  0  0  0  0
    6.1628   -5.4289    0.0000 C   0  0  0  0  0  0  0  0  0  0  0  0
    5.2619    4.0348    0.0000 C   0  0  0  0  0  0  0  0  0  0  0  0
    3.7320    4.5348    0.0000 C   0  0  0  0  0  0  0  0  0  0  0  0
    3.7320    3.5348    0.0000 C   0  0  0  0  0  0  0  0  0  0  0  0
    2.8660    5.0348    0.0000 C   0  0  0  0  0  0  0  0  0  0  0  0
    2.8660    3.0348    0.0000 C   0  0  0  0  0  0  0  0  0  0  0  0
    2.0000    4.5348    0.0000 C   0  0  0  0  0  0  0  0  0  0  0  0
    2.0000    3.5348    0.0000 C   0  0  0  0  0  0  0  0  0  0  0  0
    8.9650   -0.7270    0.0000 H   0  0  0  0  0  0  0  0  0  0  0  0
   11.3730   -0.3350    0.0000 H   0  0  0  0  0  0  0  0  0  0  0  0
   10.7564    0.2202    0.0000 H   0  0  0  0  0  0  0  0  0  0  0  0
   10.0614   -3.0540    0.0000 H   0  0  0  0  0  0  0  0  0  0  0  0
   10.9083   -3.2809    0.0000 H   0  0  0  0  0  0  0  0  0  0  0  0
   11.1352   -2.4340    0.0000 H   0  0  0  0  0  0  0  0  0  0  0  0
    8.9684   -2.2062    0.0000 H   0  0  0  0  0  0  0  0  0  0  0  0
    9.0143   -3.0819    0.0000 H   0  0  0  0  0  0  0  0  0  0  0  0
    9.8899   -3.0360    0.0000 H   0  0  0  0  0  0  0  0  0  0  0  0
   10.0719    1.9737    0.0000 H   0  0  0  0  0  0  0  0  0  0  0  0
    8.9519    2.8397    0.0000 H   0  0  0  0  0  0  0  0  0  0  0  0
    8.4828   -2.8286    0.0000 H   0  0  0  0  0  0  0  0  0  0  0  0
    9.8695    3.7794    0.0000 H   0  0  0  0  0  0  0  0  0  0  0  0
    9.1793    3.3809    0.0000 H   0  0  0  0  0  0  0  0  0  0  0  0
    7.9519    1.7658    0.0000 H   0  0  0  0  0  0  0  0  0  0  0  0
    7.0682   -1.9561    0.0000 H   0  0  0  0  0  0  0  0  0  0  0  0
    6.4759   -2.4894    0.0000 H   0  0  0  0  0  0  0  0  0  0  0  0
   11.0719    0.8998    0.0000 H   0  0  0  0  0  0  0  0  0  0  0  0
   10.9519    1.7658    0.0000 H   0  0  0  0  0  0  0  0  0  0  0  0
   10.9519    4.5718    0.0000 H   0  0  0  0  0  0  0  0  0  0  0  0
    6.1793    2.9568    0.0000 H   0  0  0  0  0  0  0  0  0  0  0  0
    6.8695    2.5582    0.0000 H   0  0  0  0  0  0  0  0  0  0  0  0
    5.3878   -3.2739    0.0000 H   0  0  0  0  0  0  0  0  0  0  0  0
   12.5719    1.7658    0.0000 H   0  0  0  0  0  0  0  0  0  0  0  0
   12.5719    4.5718    0.0000 H   0  0  0  0  0  0  0  0  0  0  0  0
    7.5558   -5.6817    0.0000 H   0  0  0  0  0  0  0  0  0  0  0  0
   13.3819    3.1688    0.0000 H   0  0  0  0  0  0  0  0  0  0  0  0
    8.5570   -4.6685    0.0000 H   0  0  0  0  0  0  0  0  0  0  0  0
    9.0345   -3.9331    0.0000 H   0  0  0  0  0  0  0  0  0  0  0  0
    8.2992   -3.4556    0.0000 H   0  0  0  0  0  0  0  0  0  0  0  0
    4.8872   -4.8146    0.0000 H   0  0  0  0  0  0  0  0  0  0  0  0
    5.9712   -6.0185    0.0000 H   0  0  0  0  0  0  0  0  0  0  0  0
    4.8709    5.4289    0.0000 H   0  0  0  0  0  0  0  0  0  0  0  0
    2.8660    5.6548    0.0000 H   0  0  0  0  0  0  0  0  0  0  0  0
    2.8660    2.4148    0.0000 H   0  0  0  0  0  0  0  0  0  0  0  0
    1.4631    4.8448    0.0000 H   0  0  0  0  0  0  0  0  0  0  0  0
    1.4631    3.2248    0.0000 H   0  0  0  0  0  0  0  0  0  0  0  0
  1 12  1  0  0  0  0
  1 14  1  0  0  0  0
  2 29  1  0  0  0  0
  2 38  1  0  0  0  0
 19  3  1  6  0  0  0
  3 62  1  0  0  0  0
  4 17  2  0  0  0  0
  5 18  2  0  0  0  0
  6 25  2  0  0  0  0
  7 13  1  0  0  0  0
  7 14  1  0  0  0  0
  7 18  1  0  0  0  0
  8 17  1  0  0  0  0
  8 22  1  0  0  0  0
  8 56  1  0  0  0  0
 20  9  1  1  0  0  0
  9 25  1  0  0  0  0
  9 59  1  0  0  0  0
 10 38  1  0  0  0  0
 10 39  1  0  0  0  0
 10 77  1  0  0  0  0
 11 38  2  0  0  0  0
 11 40  1  0  0  0  0
 12 13  1  0  0  0  0
 12 15  1  0  0  0  0
 12 16  1  0  0  0  0
 13 17  1  1  0  0  0
 13 45  1  0  0  0  0
 14 46  1  0  0  0  0
 14 47  1  0  0  0  0
 15 48  1  0  0  0  0
 15 49  1  0  0  0  0
 15 50  1  0  0  0  0
 16 51  1  0  0  0  0
 16 52  1  0  0  0  0
 16 53  1  0  0  0  0
 18 19  1  0  0  0  0
 19 20  1  0  0  0  0
 19 54  1  0  0  0  0
 20 21  1  0  0  0  0
 20 55  1  0  0  0  0
 21 23  1  0  0  0  0
 21 57  1  0  0  0  0
 21 58  1  0  0  0  0
 22 24  1  0  0  0  0
 22 60  1  0  0  0  0
 22 61  1  0  0  0  0
 23 26  2  0  0  0  0
 23 27  1  0  0  0  0
 24 28  1  0  0  0  0
 24 30  2  0  0  0  0
 25 29  1  0  0  0  0
 26 31  1  0  0  0  0
 26 63  1  0  0  0  0
 27 32  2  0  0  0  0
 27 64  1  0  0  0  0
 28 33  2  0  0  0  0
 28 35  1  0  0  0  0
 29 65  1  0  0  0  0
 29 66  1  0  0  0  0
 30 36  1  0  0  0  0
 30 67  1  0  0  0  0
 31 34  2  0  0  0  0
 31 68  1  0  0  0  0
 32 34  1  0  0  0  0
 32 69  1  0  0  0  0
 33 37  1  0  0  0  0
 33 70  1  0  0  0  0
 34 71  1  0  0  0  0
 35 72  1  0  0  0  0
 35 73  1  0  0  0  0
 35 74  1  0  0  0  0
 36 37  2  0  0  0  0
 36 75  1  0  0  0  0
 37 76  1  0  0  0  0
 39 40  1  0  0  0  0
 39 41  2  0  0  0  0
 40 42  2  0  0  0  0
 41 43  1  0  0  0  0
 41 78  1  0  0  0  0
 42 44  1  0  0  0  0
 42 79  1  0  0  0  0
 43 44  2  0  0  0  0
 43 80  1  0  0  0  0
 44 81  1  0  0  0  0
M  END
> <PUBCHEM_COMPOUND_CID>
514761
> <PUBCHEM_COMPOUND_CANONICALIZED>
1
> <PUBCHEM_CACTVS_COMPLEXITY>
995
> <PUBCHEM_CACTVS_HBOND_ACCEPTOR>
7
> <PUBCHEM_CACTVS_HBOND_DONOR>
4
> <PUBCHEM_CACTVS_ROTATABLE_BOND>
11
> <PUBCHEM_CACTVS_SUBSKEYS>
AAADcfB/uABgAAAAAAAAAAAAAAAAAWLAAAAwYMAAAAAAAFgB9AAAHgQQCAAADDzl3gaz0LfJkgioAyVydAKC0i3hErAJmaH4dJiKeLrg2bGUYAhslgLYyCeYyKCOgAAAAAAQACAAAAAAACAAQAAAAAAAAA==
> <PUBCHEM_IUPAC_OPENEYE_NAME>
(4R)-3-[(2S,3S)-3-[[2-(1H-benzimidazol-2-ylsulfanyl)acetyl]amino]-2-hydroxy-4-phenyl-butanoyl]-5,5-dimethyl-N-(o-tolylmethyl)thiazolidine-4-carboxamide
> <PUBCHEM_IUPAC_CAS_NAME>
(4R)-3-[(2S,3S)-3-[[2-(1H-benzimidazol-2-ylthio)-1-oxoethyl]amino]-2-hydroxy-1-oxo-4-phenylbutyl]-5,5-dimethyl-N-[(2-methylphenyl)methyl]-4-thiazolidinecarboxamide
> <PUBCHEM_IUPAC_NAME_MARKUP>
(4<I>R</I>)-3-[(2<I>S</I>,3<I>S</I>)-3-[[2-(1<I>H</I>-benzimidazol-2-ylsulfanyl)acetyl]amino]-2-hydroxy-4-phenylbutanoyl]-5,5-dimethyl-<I>N</I>-[(2-methylphenyl)methyl]-1,3-thiazolidine-4-carboxamide
> <PUBCHEM_IUPAC_NAME>
(4R)-3-[(2S,3S)-3-[[2-(1H-benzimidazol-2-ylsulfanyl)acetyl]amino]-2-hydroxy-4-phenylbutanoyl]-5,5-dimethyl-N-[(2-methylphenyl)methyl]-1,3-thiazolidine-4-carboxamide
> <PUBCHEM_IUPAC_SYSTEMATIC_NAME>
(4R)-3-[(2S,3S)-3-[2-(1H-benzimidazol-2-ylsulfanyl)ethanoylamino]-2-oxidanyl-4-phenyl-butanoyl]-5,5-dimethyl-N-[(2-methylphenyl)methyl]-1,3-thiazolidine-4-carboxamide
> <PUBCHEM_IUPAC_TRADITIONAL_NAME>
(4R)-3-[(2S,3S)-3-[[2-(1H-benzimidazol-2-ylthio)acetyl]amino]-2-hydroxy-4-phenyl-butanoyl]-5,5-dimethyl-N-(2-methylbenzyl)thiazolidine-4-carboxamide
> <PUBCHEM_IUPAC_INCHI>
InChI=1S/C33H37N5O4S2/c1-21-11-7-8-14-23(21)18-34-30(41)29-33(2,3)44-20-38(29)31(42)28(40)26(17-22-12-5-4-6-13-22)35-27(39)19-43-32-36-24-15-9-10-16-25(24)37-32/h4-16,26,28-29,40H,17-20H2,1-3H3,(H,34,41)(H,35,39)(H,36,37)/t26-,28-,29+/m0/s1
> <PUBCHEM_IUPAC_INCHIKEY>
NNPJCLUQSDIQIV-PIZZNKLWSA-N
> <PUBCHEM_XLOGP3_AA>
5
> <PUBCHEM_EXACT_MASS>
631.22869703
> <PUBCHEM_MOLECULAR_FORMULA>
C33H37N5O4S2
> <PUBCHEM_MOLECULAR_WEIGHT>
631.8
> <PUBCHEM_OPENEYE_CAN_SMILES>
CC1=CC=CC=C1CNC(=O)C2C(SCN2C(=O)C(C(CC3=CC=CC=C3)NC(=O)CSC4=NC5=CC=CC=C5N4)O)(C)C
> <PUBCHEM_OPENEYE_ISO_SMILES>
CC1=CC=CC=C1CNC(=O)[C@@H]2C(SCN2C(=O)[C@H]([C@H](CC3=CC=CC=C3)NC(=O)CSC4=NC5=CC=CC=C5N4)O)(C)C
> <PUBCHEM_CACTVS_TPSA>
178
> <PUBCHEM_MONOISOTOPIC_WEIGHT>
631.22869703
> <PUBCHEM_TOTAL_CHARGE>
0
> <PUBCHEM_HEAVY_ATOM_COUNT>
44
> <PUBCHEM_ATOM_DEF_STEREO_COUNT>
3
> <PUBCHEM_ATOM_UDEF_STEREO_COUNT>
0
> <PUBCHEM_BOND_DEF_STEREO_COUNT>
0
> <PUBCHEM_BOND_UDEF_STEREO_COUNT>
0
> <PUBCHEM_ISOTOPIC_ATOM_COUNT>
0
> <PUBCHEM_COMPONENT_COUNT>
1
> <PUBCHEM_CACTVS_TAUTO_COUNT>
-1
> <PUBCHEM_COORDINATE_TYPE>
1
5
255
> <PUBCHEM_BONDANNOTATIONS>
10  38  8
10  39  8
11  38  8
11  40  8
13  17  5
23  26  8
23  27  8
24  28  8
24  30  8
26  31  8
27  32  8
28  33  8
19  3  6
30  36  8
31  34  8
32  34  8
33  37  8
36  37  8
39  40  8
39  41  8
40  42  8
41  43  8
42  44  8
43  44  8
20  9  5
$$$$
