514714
  -OEChem-10302200282D
 76 78  0     1  0  0  0  0  0999 V2000
    6.5468    3.3539    0.0000 S   0  0  0  0  0  0  0  0  0  0  0  0
    8.2798    1.1267    0.0000 O   0  0  0  0  0  0  0  0  0  0  0  0
    3.7320    2.1515    0.0000 O   0  0  0  0  0  0  0  0  0  0  0  0
    5.8424    0.0975    0.0000 O   0  0  0  0  0  0  0  0  0  0  0  0
   10.3898   -0.4695    0.0000 O   0  0  0  0  0  0  0  0  0  0  0  0
    9.2308    0.8177    0.0000 O   0  0  0  0  0  0  0  0  0  0  0  0
    6.3776    1.7447    0.0000 N   0  0  0  0  0  0  0  0  0  0  0  0
    4.5981    0.6515    0.0000 N   0  0  0  0  0  0  0  0  0  0  0  0
    8.6956   -0.8296    0.0000 N   0  0  0  0  0  0  0  0  0  0  0  0
    5.5686    3.1460    0.0000 C   0  0  0  0  0  0  0  0  0  0  0  0
    5.4641    2.1515    0.0000 C   0  0  3  0  0  0  0  0  0  0  0  0
    7.0468    2.4879    0.0000 C   0  0  0  0  0  0  0  0  0  0  0  0
    5.3607    4.1242    0.0000 C   0  0  0  0  0  0  0  0  0  0  0  0
    4.5741    3.2505    0.0000 C   0  0  0  0  0  0  0  0  0  0  0  0
    4.5981    1.6515    0.0000 C   0  0  0  0  0  0  0  0  0  0  0  0
    6.5856    0.7666    0.0000 C   0  0  0  0  0  0  0  0  0  0  0  0
    7.5366    0.4576    0.0000 C   0  0  2  0  0  0  0  0  0  0  0  0
    7.7445   -0.5206    0.0000 C   0  0  3  0  0  0  0  0  0  0  0  0
    7.0014   -1.1897    0.0000 C   0  0  0  0  0  0  0  0  0  0  0  0
    3.7320    0.1515    0.0000 C   0  0  0  0  0  0  0  0  0  0  0  0
    7.2093   -2.1678    0.0000 C   0  0  0  0  0  0  0  0  0  0  0  0
    3.7320   -0.8485    0.0000 C   0  0  0  0  0  0  0  0  0  0  0  0
    9.4387   -0.1605    0.0000 C   0  0  0  0  0  0  0  0  0  0  0  0
    8.1604   -2.4769    0.0000 C   0  0  0  0  0  0  0  0  0  0  0  0
    6.4662   -2.8370    0.0000 C   0  0  0  0  0  0  0  0  0  0  0  0
    2.8660   -1.3485    0.0000 C   0  0  0  0  0  0  0  0  0  0  0  0
    4.5981   -1.3485    0.0000 C   0  0  0  0  0  0  0  0  0  0  0  0
    8.3683   -3.4550    0.0000 C   0  0  0  0  0  0  0  0  0  0  0  0
    6.6741   -3.8151    0.0000 C   0  0  0  0  0  0  0  0  0  0  0  0
    2.8660   -2.3485    0.0000 C   0  0  0  0  0  0  0  0  0  0  0  0
    2.0000   -0.8485    0.0000 C   0  0  0  0  0  0  0  0  0  0  0  0
    7.6251   -4.1242    0.0000 C   0  0  0  0  0  0  0  0  0  0  0  0
    4.5981   -2.3485    0.0000 C   0  0  0  0  0  0  0  0  0  0  0  0
    3.7320   -2.8485    0.0000 C   0  0  0  0  0  0  0  0  0  0  0  0
   11.1329    0.1997    0.0000 C   0  0  3  0  0  0  0  0  0  0  0  0
   10.9250    1.1778    0.0000 C   0  0  0  0  0  0  0  0  0  0  0  0
   12.0840   -0.1094    0.0000 C   0  0  0  0  0  0  0  0  0  0  0  0
   13.0350   -0.4184    0.0000 C   0  0  0  0  0  0  0  0  0  0  0  0
   13.9861   -0.7274    0.0000 C   0  0  0  0  0  0  0  0  0  0  0  0
    5.4966    1.5323    0.0000 H   0  0  0  0  0  0  0  0  0  0  0  0
    7.4616    2.0271    0.0000 H   0  0  0  0  0  0  0  0  0  0  0  0
    7.5484    2.8523    0.0000 H   0  0  0  0  0  0  0  0  0  0  0  0
    5.9672    4.2530    0.0000 H   0  0  0  0  0  0  0  0  0  0  0  0
    5.2318    4.7306    0.0000 H   0  0  0  0  0  0  0  0  0  0  0  0
    4.7543    3.9952    0.0000 H   0  0  0  0  0  0  0  0  0  0  0  0
    4.6389    3.8671    0.0000 H   0  0  0  0  0  0  0  0  0  0  0  0
    3.9575    3.3153    0.0000 H   0  0  0  0  0  0  0  0  0  0  0  0
    4.5093    2.6339    0.0000 H   0  0  0  0  0  0  0  0  0  0  0  0
    7.4077    1.0640    0.0000 H   0  0  0  0  0  0  0  0  0  0  0  0
    8.2053   -0.1057    0.0000 H   0  0  0  0  0  0  0  0  0  0  0  0
    5.1350    0.3415    0.0000 H   0  0  0  0  0  0  0  0  0  0  0  0
    6.6728   -0.6639    0.0000 H   0  0  0  0  0  0  0  0  0  0  0  0
    6.4265   -1.4220    0.0000 H   0  0  0  0  0  0  0  0  0  0  0  0
    3.5200    0.7341    0.0000 H   0  0  0  0  0  0  0  0  0  0  0  0
    3.1215    0.0438    0.0000 H   0  0  0  0  0  0  0  0  0  0  0  0
    8.8245   -1.4360    0.0000 H   0  0  0  0  0  0  0  0  0  0  0  0
    8.1509    1.7332    0.0000 H   0  0  0  0  0  0  0  0  0  0  0  0
    8.6211   -2.0620    0.0000 H   0  0  0  0  0  0  0  0  0  0  0  0
    5.8765   -2.6454    0.0000 H   0  0  0  0  0  0  0  0  0  0  0  0
    5.1350   -1.0385    0.0000 H   0  0  0  0  0  0  0  0  0  0  0  0
    8.9579   -3.6466    0.0000 H   0  0  0  0  0  0  0  0  0  0  0  0
    6.2133   -4.2300    0.0000 H   0  0  0  0  0  0  0  0  0  0  0  0
    2.3291   -2.6585    0.0000 H   0  0  0  0  0  0  0  0  0  0  0  0
    7.7540   -4.7306    0.0000 H   0  0  0  0  0  0  0  0  0  0  0  0
    2.3100   -0.3116    0.0000 H   0  0  0  0  0  0  0  0  0  0  0  0
    1.4631   -0.5385    0.0000 H   0  0  0  0  0  0  0  0  0  0  0  0
    1.6900   -1.3855    0.0000 H   0  0  0  0  0  0  0  0  0  0  0  0
    5.1350   -2.6585    0.0000 H   0  0  0  0  0  0  0  0  0  0  0  0
    3.7320   -3.4685    0.0000 H   0  0  0  0  0  0  0  0  0  0  0  0
   11.2618   -0.4068    0.0000 H   0  0  0  0  0  0  0  0  0  0  0  0
   11.5315    1.3067    0.0000 H   0  0  0  0  0  0  0  0  0  0  0  0
   10.7961    1.7842    0.0000 H   0  0  0  0  0  0  0  0  0  0  0  0
   10.3186    1.0489    0.0000 H   0  0  0  0  0  0  0  0  0  0  0  0
   13.7945   -1.3170    0.0000 H   0  0  0  0  0  0  0  0  0  0  0  0
   14.5758   -0.9190    0.0000 H   0  0  0  0  0  0  0  0  0  0  0  0
   14.1777   -0.1377    0.0000 H   0  0  0  0  0  0  0  0  0  0  0  0
  1 10  1  0  0  0  0
  1 12  1  0  0  0  0
 17  2  1  1  0  0  0
  2 57  1  0  0  0  0
  3 15  2  0  0  0  0
  4 16  2  0  0  0  0
  5 23  1  0  0  0  0
  5 35  1  0  0  0  0
  6 23  2  0  0  0  0
  7 11  1  0  0  0  0
  7 12  1  0  0  0  0
  7 16  1  0  0  0  0
  8 15  1  0  0  0  0
  8 20  1  0  0  0  0
  8 51  1  0  0  0  0
  9 18  1  0  0  0  0
  9 23  1  0  0  0  0
  9 56  1  0  0  0  0
 10 11  1  0  0  0  0
 10 13  1  0  0  0  0
 10 14  1  0  0  0  0
 11 15  1  0  0  0  0
 11 40  1  0  0  0  0
 12 41  1  0  0  0  0
 12 42  1  0  0  0  0
 13 43  1  0  0  0  0
 13 44  1  0  0  0  0
 13 45  1  0  0  0  0
 14 46  1  0  0  0  0
 14 47  1  0  0  0  0
 14 48  1  0  0  0  0
 16 17  1  0  0  0  0
 17 18  1  0  0  0  0
 17 49  1  0  0  0  0
 18 19  1  0  0  0  0
 18 50  1  0  0  0  0
 19 21  1  0  0  0  0
 19 52  1  0  0  0  0
 19 53  1  0  0  0  0
 20 22  1  0  0  0  0
 20 54  1  0  0  0  0
 20 55  1  0  0  0  0
 21 24  2  0  0  0  0
 21 25  1  0  0  0  0
 22 26  1  0  0  0  0
 22 27  2  0  0  0  0
 24 28  1  0  0  0  0
 24 58  1  0  0  0  0
 25 29  2  0  0  0  0
 25 59  1  0  0  0  0
 26 30  2  0  0  0  0
 26 31  1  0  0  0  0
 27 33  1  0  0  0  0
 27 60  1  0  0  0  0
 28 32  2  0  0  0  0
 28 61  1  0  0  0  0
 29 32  1  0  0  0  0
 29 62  1  0  0  0  0
 30 34  1  0  0  0  0
 30 63  1  0  0  0  0
 31 65  1  0  0  0  0
 31 66  1  0  0  0  0
 31 67  1  0  0  0  0
 32 64  1  0  0  0  0
 33 34  2  0  0  0  0
 33 68  1  0  0  0  0
 34 69  1  0  0  0  0
 35 36  1  0  0  0  0
 35 37  1  0  0  0  0
 35 70  1  0  0  0  0
 36 71  1  0  0  0  0
 36 72  1  0  0  0  0
 36 73  1  0  0  0  0
 37 38  3  0  0  0  0
 38 39  1  0  0  0  0
 39 74  1  0  0  0  0
 39 75  1  0  0  0  0
 39 76  1  0  0  0  0
M  END
> <PUBCHEM_COMPOUND_CID>
514714
> <PUBCHEM_COMPOUND_CANONICALIZED>
1
> <PUBCHEM_CACTVS_COMPLEXITY>
922
> <PUBCHEM_CACTVS_HBOND_ACCEPTOR>
6
> <PUBCHEM_CACTVS_HBOND_DONOR>
3
> <PUBCHEM_CACTVS_ROTATABLE_BOND>
10
> <PUBCHEM_CACTVS_SUBSKEYS>
AAADcfB7OABAAAAAAAAAAAAAAAAAAWAAAAAwYAAAAAAAAAABQAAAHgQQCAAADDzh2AayCIPABgjIEiFSGAqCAABgABAIiIHIBIkKcDqg0TGcYAhklgCYiAeYyKCOgAAAAAAQAAAAAAAAACAAAAAAAAAAAA==
> <PUBCHEM_IUPAC_OPENEYE_NAME>
1-methylbut-2-ynyl N-[(2S)-1-benzyl-3-[5,5-dimethyl-4-(o-tolylmethylcarbamoyl)thiazolidin-3-yl]-2-hydroxy-3-oxo-propyl]carbamate
> <PUBCHEM_IUPAC_CAS_NAME>
N-[(3S)-4-[5,5-dimethyl-4-[[(2-methylphenyl)methylamino]-oxomethyl]-3-thiazolidinyl]-3-hydroxy-4-oxo-1-phenylbutan-2-yl]carbamic acid pent-3-yn-2-yl ester
> <PUBCHEM_IUPAC_NAME_MARKUP>
pent-3-yn-2-yl <I>N</I>-[(3<I>S</I>)-4-[5,5-dimethyl-4-[(2-methylphenyl)methylcarbamoyl]-1,3-thiazolidin-3-yl]-3-hydroxy-4-oxo-1-phenylbutan-2-yl]carbamate
> <PUBCHEM_IUPAC_NAME>
pent-3-yn-2-yl N-[(3S)-4-[5,5-dimethyl-4-[(2-methylphenyl)methylcarbamoyl]-1,3-thiazolidin-3-yl]-3-hydroxy-4-oxo-1-phenylbutan-2-yl]carbamate
> <PUBCHEM_IUPAC_SYSTEMATIC_NAME>
pent-3-yn-2-yl N-[(3S)-4-[5,5-dimethyl-4-[(2-methylphenyl)methylcarbamoyl]-1,3-thiazolidin-3-yl]-3-oxidanyl-4-oxidanylidene-1-phenyl-butan-2-yl]carbamate
> <PUBCHEM_IUPAC_TRADITIONAL_NAME>
N-[(2S)-1-benzyl-3-[5,5-dimethyl-4-[(2-methylbenzyl)carbamoyl]thiazolidin-3-yl]-2-hydroxy-3-keto-propyl]carbamic acid 1-methylbut-2-ynyl ester
> <PUBCHEM_IUPAC_INCHI>
InChI=1S/C30H37N3O5S/c1-6-12-21(3)38-29(37)32-24(17-22-14-8-7-9-15-22)25(34)28(36)33-19-39-30(4,5)26(33)27(35)31-18-23-16-11-10-13-20(23)2/h7-11,13-16,21,24-26,34H,17-19H2,1-5H3,(H,31,35)(H,32,37)/t21?,24?,25-,26?/m0/s1
> <PUBCHEM_IUPAC_INCHIKEY>
CYPDTRNNWCZEQB-LJWXGCJOSA-N
> <PUBCHEM_XLOGP3_AA>
4.3
> <PUBCHEM_EXACT_MASS>
551.24539246
> <PUBCHEM_MOLECULAR_FORMULA>
C30H37N3O5S
> <PUBCHEM_MOLECULAR_WEIGHT>
551.7
> <PUBCHEM_OPENEYE_CAN_SMILES>
CC#CC(C)OC(=O)NC(CC1=CC=CC=C1)C(C(=O)N2CSC(C2C(=O)NCC3=CC=CC=C3C)(C)C)O
> <PUBCHEM_OPENEYE_ISO_SMILES>
CC#CC(C)OC(=O)NC(CC1=CC=CC=C1)[C@@H](C(=O)N2CSC(C2C(=O)NCC3=CC=CC=C3C)(C)C)O
> <PUBCHEM_CACTVS_TPSA>
133
> <PUBCHEM_MONOISOTOPIC_WEIGHT>
551.24539246
> <PUBCHEM_TOTAL_CHARGE>
0
> <PUBCHEM_HEAVY_ATOM_COUNT>
39
> <PUBCHEM_ATOM_DEF_STEREO_COUNT>
1
> <PUBCHEM_ATOM_UDEF_STEREO_COUNT>
3
> <PUBCHEM_BOND_DEF_STEREO_COUNT>
0
> <PUBCHEM_BOND_UDEF_STEREO_COUNT>
0
> <PUBCHEM_ISOTOPIC_ATOM_COUNT>
0
> <PUBCHEM_COMPONENT_COUNT>
1
> <PUBCHEM_CACTVS_TAUTO_COUNT>
-1
> <PUBCHEM_COORDINATE_TYPE>
1
5
255
> <PUBCHEM_BONDANNOTATIONS>
11  15  3
18  19  3
17  2  5
21  24  8
21  25  8
22  26  8
22  27  8
24  28  8
25  29  8
26  30  8
27  33  8
28  32  8
29  32  8
30  34  8
33  34  8
35  36  3
$$$$
