514706
  -OEChem-10302200282D
 75 79  0     1  0  0  0  0  0999 V2000
    6.2809    1.4852    0.0000 S   0  0  0  0  0  0  0  0  0  0  0  0
   11.8009    2.2004    0.0000 S   0  0  0  0  0  0  0  0  0  0  0  0
    6.6353   -1.8276    0.0000 O   0  0  0  0  0  0  0  0  0  0  0  0
    9.0582    0.9849    0.0000 O   0  0  0  0  0  0  0  0  0  0  0  0
    7.9314   -1.4089    0.0000 O   0  0  0  0  0  0  0  0  0  0  0  0
    9.9724    1.3900    0.0000 O   0  0  0  0  0  0  0  0  0  0  0  0
    7.2297    0.1746    0.0000 N   0  0  0  0  0  0  0  0  0  0  0  0
    4.9889   -1.2895    0.0000 N   0  0  0  0  0  0  0  0  0  0  0  0
   10.6742   -0.1935    0.0000 N   0  0  0  0  0  0  0  0  0  0  0  0
   12.9248    3.5833    0.0000 N   0  0  0  0  0  0  0  0  0  0  0  0
   13.5803    2.1040    0.0000 N   0  0  0  0  0  0  0  0  0  0  0  0
   13.9195    3.6861    0.0000 N   0  0  0  0  0  0  0  0  0  0  0  0
    6.2781   -0.1328    0.0000 C   0  0  1  0  0  0  0  0  0  0  0  0
    5.6917    0.6773    0.0000 C   0  0  0  0  0  0  0  0  0  0  0  0
    4.6783   -2.2400    0.0000 C   0  0  1  0  0  0  0  0  0  0  0  0
    7.2314    1.1746    0.0000 C   0  0  0  0  0  0  0  0  0  0  0  0
    5.9674   -1.0833    0.0000 C   0  0  0  0  0  0  0  0  0  0  0  0
    4.8837    1.2664    0.0000 C   0  0  0  0  0  0  0  0  0  0  0  0
    4.8817    0.0909    0.0000 C   0  0  0  0  0  0  0  0  0  0  0  0
    5.2619   -3.0448    0.0000 C   0  0  0  0  0  0  0  0  0  0  0  0
    3.7320   -2.5448    0.0000 C   0  0  0  0  0  0  0  0  0  0  0  0
    8.0377   -0.4146    0.0000 C   0  0  0  0  0  0  0  0  0  0  0  0
    4.6783   -3.8495    0.0000 C   0  0  0  0  0  0  0  0  0  0  0  0
    3.7320   -3.5448    0.0000 C   0  0  0  0  0  0  0  0  0  0  0  0
    8.9519   -0.0094    0.0000 C   0  0  2  0  0  0  0  0  0  0  0  0
    9.7599   -0.5986    0.0000 C   0  0  2  0  0  0  0  0  0  0  0  0
    2.8660   -2.0448    0.0000 C   0  0  0  0  0  0  0  0  0  0  0  0
    2.8660   -4.0448    0.0000 C   0  0  0  0  0  0  0  0  0  0  0  0
    9.6537   -1.5930    0.0000 C   0  0  0  0  0  0  0  0  0  0  0  0
    2.0000   -2.5448    0.0000 C   0  0  0  0  0  0  0  0  0  0  0  0
    2.0000   -3.5448    0.0000 C   0  0  0  0  0  0  0  0  0  0  0  0
   10.4617   -2.1822    0.0000 C   0  0  0  0  0  0  0  0  0  0  0  0
   10.7804    0.8009    0.0000 C   0  0  0  0  0  0  0  0  0  0  0  0
   11.3759   -1.7770    0.0000 C   0  0  0  0  0  0  0  0  0  0  0  0
   10.3554   -3.1765    0.0000 C   0  0  0  0  0  0  0  0  0  0  0  0
   11.6947    1.2060    0.0000 C   0  0  0  0  0  0  0  0  0  0  0  0
   12.1839   -2.3662    0.0000 C   0  0  0  0  0  0  0  0  0  0  0  0
   11.1634   -3.7657    0.0000 C   0  0  0  0  0  0  0  0  0  0  0  0
   12.0777   -3.3605    0.0000 C   0  0  0  0  0  0  0  0  0  0  0  0
   12.7152    2.6055    0.0000 C   0  0  0  0  0  0  0  0  0  0  0  0
   14.3246    2.7719    0.0000 C   0  0  0  0  0  0  0  0  0  0  0  0
    6.7158   -0.5719    0.0000 H   0  0  0  0  0  0  0  0  0  0  0  0
    5.2908   -2.1438    0.0000 H   0  0  0  0  0  0  0  0  0  0  0  0
    7.8479    1.1087    0.0000 H   0  0  0  0  0  0  0  0  0  0  0  0
    7.3614    1.7808    0.0000 H   0  0  0  0  0  0  0  0  0  0  0  0
    5.2490    1.7674    0.0000 H   0  0  0  0  0  0  0  0  0  0  0  0
    4.3828    1.6317    0.0000 H   0  0  0  0  0  0  0  0  0  0  0  0
    4.5184    0.7655    0.0000 H   0  0  0  0  0  0  0  0  0  0  0  0
    4.5181    0.5931    0.0000 H   0  0  0  0  0  0  0  0  0  0  0  0
    4.3795   -0.2727    0.0000 H   0  0  0  0  0  0  0  0  0  0  0  0
    5.2452   -0.4114    0.0000 H   0  0  0  0  0  0  0  0  0  0  0  0
    5.7227   -3.4595    0.0000 H   0  0  0  0  0  0  0  0  0  0  0  0
    5.7227   -2.6301    0.0000 H   0  0  0  0  0  0  0  0  0  0  0  0
    4.5749   -0.8281    0.0000 H   0  0  0  0  0  0  0  0  0  0  0  0
    4.4272   -4.4164    0.0000 H   0  0  0  0  0  0  0  0  0  0  0  0
    5.2156   -4.1587    0.0000 H   0  0  0  0  0  0  0  0  0  0  0  0
    9.5188    0.2418    0.0000 H   0  0  0  0  0  0  0  0  0  0  0  0
   10.2609   -0.9639    0.0000 H   0  0  0  0  0  0  0  0  0  0  0  0
    2.8660   -1.4248    0.0000 H   0  0  0  0  0  0  0  0  0  0  0  0
    2.8660   -4.6648    0.0000 H   0  0  0  0  0  0  0  0  0  0  0  0
    9.0580   -1.4210    0.0000 H   0  0  0  0  0  0  0  0  0  0  0  0
    9.3809   -2.1498    0.0000 H   0  0  0  0  0  0  0  0  0  0  0  0
   11.1751   -0.5588    0.0000 H   0  0  0  0  0  0  0  0  0  0  0  0
    1.4631   -2.2348    0.0000 H   0  0  0  0  0  0  0  0  0  0  0  0
    1.4631   -3.8548    0.0000 H   0  0  0  0  0  0  0  0  0  0  0  0
    8.5572    1.3502    0.0000 H   0  0  0  0  0  0  0  0  0  0  0  0
   11.4418   -1.1605    0.0000 H   0  0  0  0  0  0  0  0  0  0  0  0
    9.7886   -3.4277    0.0000 H   0  0  0  0  0  0  0  0  0  0  0  0
   11.8436    0.6042    0.0000 H   0  0  0  0  0  0  0  0  0  0  0  0
   12.3132    1.2482    0.0000 H   0  0  0  0  0  0  0  0  0  0  0  0
   12.7508   -2.1150    0.0000 H   0  0  0  0  0  0  0  0  0  0  0  0
   11.0976   -4.3822    0.0000 H   0  0  0  0  0  0  0  0  0  0  0  0
   12.5786   -3.7258    0.0000 H   0  0  0  0  0  0  0  0  0  0  0  0
   12.5107    4.0448    0.0000 H   0  0  0  0  0  0  0  0  0  0  0  0
   14.9309    2.6419    0.0000 H   0  0  0  0  0  0  0  0  0  0  0  0
  1 14  1  0  0  0  0
  1 16  1  0  0  0  0
  2 36  1  0  0  0  0
  2 40  1  0  0  0  0
  3 17  2  0  0  0  0
 25  4  1  1  0  0  0
  4 66  1  0  0  0  0
  5 22  2  0  0  0  0
  6 33  2  0  0  0  0
  7 13  1  0  0  0  0
  7 16  1  0  0  0  0
  7 22  1  0  0  0  0
 15  8  1  1  0  0  0
  8 17  1  0  0  0  0
  8 54  1  0  0  0  0
 26  9  1  1  0  0  0
  9 33  1  0  0  0  0
  9 63  1  0  0  0  0
 10 12  1  0  0  0  0
 10 40  1  0  0  0  0
 10 74  1  0  0  0  0
 11 40  2  0  0  0  0
 11 41  1  0  0  0  0
 12 41  2  0  0  0  0
 13 14  1  0  0  0  0
 13 17  1  6  0  0  0
 13 42  1  0  0  0  0
 14 18  1  0  0  0  0
 14 19  1  0  0  0  0
 15 20  1  0  0  0  0
 15 21  1  0  0  0  0
 15 43  1  0  0  0  0
 16 44  1  0  0  0  0
 16 45  1  0  0  0  0
 18 46  1  0  0  0  0
 18 47  1  0  0  0  0
 18 48  1  0  0  0  0
 19 49  1  0  0  0  0
 19 50  1  0  0  0  0
 19 51  1  0  0  0  0
 20 23  1  0  0  0  0
 20 52  1  0  0  0  0
 20 53  1  0  0  0  0
 21 24  1  0  0  0  0
 21 27  2  0  0  0  0
 22 25  1  0  0  0  0
 23 24  1  0  0  0  0
 23 55  1  0  0  0  0
 23 56  1  0  0  0  0
 24 28  2  0  0  0  0
 25 26  1  0  0  0  0
 25 57  1  0  0  0  0
 26 29  1  0  0  0  0
 26 58  1  0  0  0  0
 27 30  1  0  0  0  0
 27 59  1  0  0  0  0
 28 31  1  0  0  0  0
 28 60  1  0  0  0  0
 29 32  1  0  0  0  0
 29 61  1  0  0  0  0
 29 62  1  0  0  0  0
 30 31  2  0  0  0  0
 30 64  1  0  0  0  0
 31 65  1  0  0  0  0
 32 34  2  0  0  0  0
 32 35  1  0  0  0  0
 33 36  1  0  0  0  0
 34 37  1  0  0  0  0
 34 67  1  0  0  0  0
 35 38  2  0  0  0  0
 35 68  1  0  0  0  0
 36 69  1  0  0  0  0
 36 70  1  0  0  0  0
 37 39  2  0  0  0  0
 37 71  1  0  0  0  0
 38 39  1  0  0  0  0
 38 72  1  0  0  0  0
 39 73  1  0  0  0  0
 41 75  1  0  0  0  0
M  END
> <PUBCHEM_COMPOUND_CID>
514706
> <PUBCHEM_COMPOUND_CANONICALIZED>
1
> <PUBCHEM_CACTVS_COMPLEXITY>
935
> <PUBCHEM_CACTVS_HBOND_ACCEPTOR>
8
> <PUBCHEM_CACTVS_HBOND_DONOR>
4
> <PUBCHEM_CACTVS_ROTATABLE_BOND>
10
> <PUBCHEM_CACTVS_SUBSKEYS>
AAADcfB7uABgAAAAAAAAAAAAAAAAAeLEAAAwYAAAAAAAAGAB0AAAHgQYCAAADDzl2Aa3EIfrEgiqAiFTNAKSUgvwgJAN6IHIBIiKeDqg0TGUYAhklgCYiAeYyKCOgAAAAAAQAAAAAAAAACAAACAACQAAAA==
> <PUBCHEM_IUPAC_OPENEYE_NAME>
(4R)-3-[(2S,3S)-2-hydroxy-4-phenyl-3-[[2-(1H-1,2,4-triazol-5-ylsulfanyl)acetyl]amino]butanoyl]-N-[(1S)-indan-1-yl]-5,5-dimethyl-thiazolidine-4-carboxamide
> <PUBCHEM_IUPAC_CAS_NAME>
(4R)-N-[(1S)-2,3-dihydro-1H-inden-1-yl]-3-[(2S,3S)-2-hydroxy-1-oxo-3-[[1-oxo-2-(1H-1,2,4-triazol-5-ylthio)ethyl]amino]-4-phenylbutyl]-5,5-dimethyl-4-thiazolidinecarboxamide
> <PUBCHEM_IUPAC_NAME_MARKUP>
(4<I>R</I>)-<I>N</I>-[(1<I>S</I>)-2,3-dihydro-1<I>H</I>-inden-1-yl]-3-[(2<I>S</I>,3<I>S</I>)-2-hydroxy-4-phenyl-3-[[2-(1<I>H</I>-1,2,4-triazol-5-ylsulfanyl)acetyl]amino]butanoyl]-5,5-dimethyl-1,3-thiazolidine-4-carboxamide
> <PUBCHEM_IUPAC_NAME>
(4R)-N-[(1S)-2,3-dihydro-1H-inden-1-yl]-3-[(2S,3S)-2-hydroxy-4-phenyl-3-[[2-(1H-1,2,4-triazol-5-ylsulfanyl)acetyl]amino]butanoyl]-5,5-dimethyl-1,3-thiazolidine-4-carboxamide
> <PUBCHEM_IUPAC_SYSTEMATIC_NAME>
(4R)-N-[(1S)-2,3-dihydro-1H-inden-1-yl]-5,5-dimethyl-3-[(2S,3S)-2-oxidanyl-4-phenyl-3-[2-(1H-1,2,4-triazol-5-ylsulfanyl)ethanoylamino]butanoyl]-1,3-thiazolidine-4-carboxamide
> <PUBCHEM_IUPAC_TRADITIONAL_NAME>
(4R)-3-[(2S,3S)-2-hydroxy-4-phenyl-3-[[2-(1H-1,2,4-triazol-5-ylthio)acetyl]amino]butanoyl]-N-[(1S)-indan-1-yl]-5,5-dimethyl-thiazolidine-4-carboxamide
> <PUBCHEM_IUPAC_INCHI>
InChI=1S/C29H34N6O4S2/c1-29(2)25(26(38)33-21-13-12-19-10-6-7-11-20(19)21)35(17-41-29)27(39)24(37)22(14-18-8-4-3-5-9-18)32-23(36)15-40-28-30-16-31-34-28/h3-11,16,21-22,24-25,37H,12-15,17H2,1-2H3,(H,32,36)(H,33,38)(H,30,31,34)/t21-,22-,24-,25+/m0/s1
> <PUBCHEM_IUPAC_INCHIKEY>
HXNGVGDTDWPCRE-OPBMBUAESA-N
> <PUBCHEM_XLOGP3_AA>
3.5
> <PUBCHEM_EXACT_MASS>
594.20829593
> <PUBCHEM_MOLECULAR_FORMULA>
C29H34N6O4S2
> <PUBCHEM_MOLECULAR_WEIGHT>
594.8
> <PUBCHEM_OPENEYE_CAN_SMILES>
CC1(C(N(CS1)C(=O)C(C(CC2=CC=CC=C2)NC(=O)CSC3=NC=NN3)O)C(=O)NC4CCC5=CC=CC=C45)C
> <PUBCHEM_OPENEYE_ISO_SMILES>
CC1([C@H](N(CS1)C(=O)[C@H]([C@H](CC2=CC=CC=C2)NC(=O)CSC3=NC=NN3)O)C(=O)N[C@H]4CCC5=CC=CC=C45)C
> <PUBCHEM_CACTVS_TPSA>
191
> <PUBCHEM_MONOISOTOPIC_WEIGHT>
594.20829593
> <PUBCHEM_TOTAL_CHARGE>
0
> <PUBCHEM_HEAVY_ATOM_COUNT>
41
> <PUBCHEM_ATOM_DEF_STEREO_COUNT>
4
> <PUBCHEM_ATOM_UDEF_STEREO_COUNT>
0
> <PUBCHEM_BOND_DEF_STEREO_COUNT>
0
> <PUBCHEM_BOND_UDEF_STEREO_COUNT>
0
> <PUBCHEM_ISOTOPIC_ATOM_COUNT>
0
> <PUBCHEM_COMPONENT_COUNT>
1
> <PUBCHEM_CACTVS_TAUTO_COUNT>
-1
> <PUBCHEM_COORDINATE_TYPE>
1
5
255
> <PUBCHEM_BONDANNOTATIONS>
10  12  8
10  40  8
11  40  8
11  41  8
12  41  8
13  17  6
21  24  8
21  27  8
24  28  8
27  30  8
28  31  8
30  31  8
32  34  8
32  35  8
34  37  8
35  38  8
37  39  8
38  39  8
25  4  5
15  8  5
26  9  5
$$$$
