514733
  -OEChem-10302200282D
 79 82  0     1  0  0  0  0  0999 V2000
    5.8301    3.3712    0.0000 S   0  0  0  0  0  0  0  0  0  0  0  0
    4.5981    0.8324    0.0000 O   0  0  0  0  0  0  0  0  0  0  0  0
    7.1962    0.3324    0.0000 O   0  0  0  0  0  0  0  0  0  0  0  0
    8.2981    1.1330    0.0000 O   0  0  0  0  0  0  0  0  0  0  0  0
    5.4641   -2.6676    0.0000 O   0  0  0  0  0  0  0  0  0  0  0  0
    6.3301    1.8324    0.0000 N   0  0  0  0  0  0  0  0  0  0  0  0
    6.3301   -1.1676    0.0000 N   0  0  0  0  0  0  0  0  0  0  0  0
    8.0622   -4.1676    0.0000 N   0  0  0  0  0  0  0  0  0  0  0  0
    8.8334    2.7802    0.0000 N   0  0  0  0  0  0  0  0  0  0  0  0
    6.8301    3.3712    0.0000 C   0  0  0  0  0  0  0  0  0  0  0  0
    7.1391    2.4201    0.0000 C   0  0  1  0  0  0  0  0  0  0  0  0
    5.5211    2.4201    0.0000 C   0  0  0  0  0  0  0  0  0  0  0  0
    5.4641   -0.6676    0.0000 C   0  0  2  0  0  0  0  0  0  0  0  0
    5.4641    0.3324    0.0000 C   0  0  1  0  0  0  0  0  0  0  0  0
    6.8301    4.3712    0.0000 C   0  0  0  0  0  0  0  0  0  0  0  0
    7.7812    3.6802    0.0000 C   0  0  0  0  0  0  0  0  0  0  0  0
    6.3301    0.8324    0.0000 C   0  0  0  0  0  0  0  0  0  0  0  0
    7.1962   -2.6676    0.0000 C   0  0  3  0  0  0  0  0  0  0  0  0
    8.0902    2.1111    0.0000 C   0  0  0  0  0  0  0  0  0  0  0  0
    8.0622   -2.1676    0.0000 C   0  0  0  0  0  0  0  0  0  0  0  0
    7.1962   -3.6676    0.0000 C   0  0  0  0  0  0  0  0  0  0  0  0
    8.9282   -2.6676    0.0000 C   0  0  0  0  0  0  0  0  0  0  0  0
    4.5981   -1.1676    0.0000 C   0  0  0  0  0  0  0  0  0  0  0  0
    6.3301   -2.1676    0.0000 C   0  0  0  0  0  0  0  0  0  0  0  0
    8.9282   -3.6676    0.0000 C   0  0  0  0  0  0  0  0  0  0  0  0
    3.7320   -0.6676    0.0000 C   0  0  0  0  0  0  0  0  0  0  0  0
    9.7844    2.4712    0.0000 C   0  0  0  0  0  0  0  0  0  0  0  0
   10.5275    3.1404    0.0000 C   0  0  0  0  0  0  0  0  0  0  0  0
    2.8660   -1.1676    0.0000 C   0  0  0  0  0  0  0  0  0  0  0  0
    3.7320    0.3324    0.0000 C   0  0  0  0  0  0  0  0  0  0  0  0
   11.4786    2.8314    0.0000 C   0  0  0  0  0  0  0  0  0  0  0  0
    2.0000   -0.6676    0.0000 C   0  0  0  0  0  0  0  0  0  0  0  0
    2.8660    0.8324    0.0000 C   0  0  0  0  0  0  0  0  0  0  0  0
   10.3196    4.1185    0.0000 C   0  0  0  0  0  0  0  0  0  0  0  0
    2.0000    0.3324    0.0000 C   0  0  0  0  0  0  0  0  0  0  0  0
   12.2217    3.5005    0.0000 C   0  0  0  0  0  0  0  0  0  0  0  0
   11.6865    1.8532    0.0000 C   0  0  0  0  0  0  0  0  0  0  0  0
   11.0628    4.7876    0.0000 C   0  0  0  0  0  0  0  0  0  0  0  0
   12.0138    4.4786    0.0000 C   0  0  0  0  0  0  0  0  0  0  0  0
    7.2361    1.8078    0.0000 H   0  0  0  0  0  0  0  0  0  0  0  0
    4.9547    2.6723    0.0000 H   0  0  0  0  0  0  0  0  0  0  0  0
    5.2111    1.8832    0.0000 H   0  0  0  0  0  0  0  0  0  0  0  0
    5.4641   -1.2876    0.0000 H   0  0  0  0  0  0  0  0  0  0  0  0
    5.4641    0.9524    0.0000 H   0  0  0  0  0  0  0  0  0  0  0  0
    7.4501    4.3712    0.0000 H   0  0  0  0  0  0  0  0  0  0  0  0
    6.8301    4.9912    0.0000 H   0  0  0  0  0  0  0  0  0  0  0  0
    6.2101    4.3712    0.0000 H   0  0  0  0  0  0  0  0  0  0  0  0
    7.9728    3.0906    0.0000 H   0  0  0  0  0  0  0  0  0  0  0  0
    8.3708    3.8718    0.0000 H   0  0  0  0  0  0  0  0  0  0  0  0
    7.5896    4.2699    0.0000 H   0  0  0  0  0  0  0  0  0  0  0  0
    6.6592   -2.9776    0.0000 H   0  0  0  0  0  0  0  0  0  0  0  0
    8.4607   -1.6927    0.0000 H   0  0  0  0  0  0  0  0  0  0  0  0
    7.6636   -1.6927    0.0000 H   0  0  0  0  0  0  0  0  0  0  0  0
    6.5856   -3.5600    0.0000 H   0  0  0  0  0  0  0  0  0  0  0  0
    6.9841   -4.2503    0.0000 H   0  0  0  0  0  0  0  0  0  0  0  0
    9.5388   -2.7753    0.0000 H   0  0  0  0  0  0  0  0  0  0  0  0
    9.1403   -2.0850    0.0000 H   0  0  0  0  0  0  0  0  0  0  0  0
    4.1996   -1.6426    0.0000 H   0  0  0  0  0  0  0  0  0  0  0  0
    4.9966   -1.6426    0.0000 H   0  0  0  0  0  0  0  0  0  0  0  0
    6.8671   -0.8576    0.0000 H   0  0  0  0  0  0  0  0  0  0  0  0
    9.1403   -4.2503    0.0000 H   0  0  0  0  0  0  0  0  0  0  0  0
    9.5388   -3.5600    0.0000 H   0  0  0  0  0  0  0  0  0  0  0  0
    8.0622   -4.7876    0.0000 H   0  0  0  0  0  0  0  0  0  0  0  0
    8.7044    3.3867    0.0000 H   0  0  0  0  0  0  0  0  0  0  0  0
    4.5981    1.4524    0.0000 H   0  0  0  0  0  0  0  0  0  0  0  0
    9.4933    1.9238    0.0000 H   0  0  0  0  0  0  0  0  0  0  0  0
   10.2730    2.0895    0.0000 H   0  0  0  0  0  0  0  0  0  0  0  0
    2.8660   -1.7876    0.0000 H   0  0  0  0  0  0  0  0  0  0  0  0
    4.2690    0.6424    0.0000 H   0  0  0  0  0  0  0  0  0  0  0  0
    1.4631   -0.9776    0.0000 H   0  0  0  0  0  0  0  0  0  0  0  0
    2.8660    1.4524    0.0000 H   0  0  0  0  0  0  0  0  0  0  0  0
    9.7300    4.3101    0.0000 H   0  0  0  0  0  0  0  0  0  0  0  0
    1.4631    0.6424    0.0000 H   0  0  0  0  0  0  0  0  0  0  0  0
   12.8114    3.3089    0.0000 H   0  0  0  0  0  0  0  0  0  0  0  0
   11.0801    1.7243    0.0000 H   0  0  0  0  0  0  0  0  0  0  0  0
   11.8154    1.2468    0.0000 H   0  0  0  0  0  0  0  0  0  0  0  0
   12.2930    1.9821    0.0000 H   0  0  0  0  0  0  0  0  0  0  0  0
   10.9339    5.3941    0.0000 H   0  0  0  0  0  0  0  0  0  0  0  0
   12.4746    4.8935    0.0000 H   0  0  0  0  0  0  0  0  0  0  0  0
  1 10  1  0  0  0  0
  1 12  1  0  0  0  0
 14  2  1  6  0  0  0
  2 65  1  0  0  0  0
  3 17  2  0  0  0  0
  4 19  2  0  0  0  0
  5 24  2  0  0  0  0
  6 11  1  0  0  0  0
  6 12  1  0  0  0  0
  6 17  1  0  0  0  0
 13  7  1  1  0  0  0
  7 24  1  0  0  0  0
  7 60  1  0  0  0  0
  8 21  1  0  0  0  0
  8 25  1  0  0  0  0
  8 63  1  0  0  0  0
  9 19  1  0  0  0  0
  9 27  1  0  0  0  0
  9 64  1  0  0  0  0
 10 11  1  0  0  0  0
 10 15  1  0  0  0  0
 10 16  1  0  0  0  0
 11 19  1  1  0  0  0
 11 40  1  0  0  0  0
 12 41  1  0  0  0  0
 12 42  1  0  0  0  0
 13 14  1  0  0  0  0
 13 23  1  0  0  0  0
 13 43  1  0  0  0  0
 14 17  1  0  0  0  0
 14 44  1  0  0  0  0
 15 45  1  0  0  0  0
 15 46  1  0  0  0  0
 15 47  1  0  0  0  0
 16 48  1  0  0  0  0
 16 49  1  0  0  0  0
 16 50  1  0  0  0  0
 18 20  1  0  0  0  0
 18 21  1  0  0  0  0
 18 24  1  0  0  0  0
 18 51  1  0  0  0  0
 20 22  1  0  0  0  0
 20 52  1  0  0  0  0
 20 53  1  0  0  0  0
 21 54  1  0  0  0  0
 21 55  1  0  0  0  0
 22 25  1  0  0  0  0
 22 56  1  0  0  0  0
 22 57  1  0  0  0  0
 23 26  1  0  0  0  0
 23 58  1  0  0  0  0
 23 59  1  0  0  0  0
 25 61  1  0  0  0  0
 25 62  1  0  0  0  0
 26 29  2  0  0  0  0
 26 30  1  0  0  0  0
 27 28  1  0  0  0  0
 27 66  1  0  0  0  0
 27 67  1  0  0  0  0
 28 31  1  0  0  0  0
 28 34  2  0  0  0  0
 29 32  1  0  0  0  0
 29 68  1  0  0  0  0
 30 33  2  0  0  0  0
 30 69  1  0  0  0  0
 31 36  2  0  0  0  0
 31 37  1  0  0  0  0
 32 35  2  0  0  0  0
 32 70  1  0  0  0  0
 33 35  1  0  0  0  0
 33 71  1  0  0  0  0
 34 38  1  0  0  0  0
 34 72  1  0  0  0  0
 35 73  1  0  0  0  0
 36 39  1  0  0  0  0
 36 74  1  0  0  0  0
 37 75  1  0  0  0  0
 37 76  1  0  0  0  0
 37 77  1  0  0  0  0
 38 39  2  0  0  0  0
 38 78  1  0  0  0  0
 39 79  1  0  0  0  0
M  END
> <PUBCHEM_COMPOUND_CID>
514733
> <PUBCHEM_COMPOUND_CANONICALIZED>
1
> <PUBCHEM_CACTVS_COMPLEXITY>
849
> <PUBCHEM_CACTVS_HBOND_ACCEPTOR>
6
> <PUBCHEM_CACTVS_HBOND_DONOR>
4
> <PUBCHEM_CACTVS_ROTATABLE_BOND>
9
> <PUBCHEM_CACTVS_SUBSKEYS>
AAADcfB7uABAAAAAAAAAAAAAAAAAAWAAAAA8YIAAAAAAAAABQAAAHgQQCAAADTzh2AayAIPAAgiIAiFSEAKCAABgABAIiIHIBIgKcDqg0TGUYAhklgCYiAeYyaCOgAAAAAAQAAAAAAAAACAAAAAAAAAAAA==
> <PUBCHEM_IUPAC_OPENEYE_NAME>
(4R)-3-[(2S,3S)-2-hydroxy-4-phenyl-3-(piperidine-3-carbonylamino)butanoyl]-5,5-dimethyl-N-(o-tolylmethyl)thiazolidine-4-carboxamide
> <PUBCHEM_IUPAC_CAS_NAME>
(4R)-3-[(2S,3S)-2-hydroxy-1-oxo-3-[[oxo(3-piperidinyl)methyl]amino]-4-phenylbutyl]-5,5-dimethyl-N-[(2-methylphenyl)methyl]-4-thiazolidinecarboxamide
> <PUBCHEM_IUPAC_NAME_MARKUP>
(4<I>R</I>)-3-[(2<I>S</I>,3<I>S</I>)-2-hydroxy-4-phenyl-3-(piperidine-3-carbonylamino)butanoyl]-5,5-dimethyl-<I>N</I>-[(2-methylphenyl)methyl]-1,3-thiazolidine-4-carboxamide
> <PUBCHEM_IUPAC_NAME>
(4R)-3-[(2S,3S)-2-hydroxy-4-phenyl-3-(piperidine-3-carbonylamino)butanoyl]-5,5-dimethyl-N-[(2-methylphenyl)methyl]-1,3-thiazolidine-4-carboxamide
> <PUBCHEM_IUPAC_SYSTEMATIC_NAME>
(4R)-5,5-dimethyl-N-[(2-methylphenyl)methyl]-3-[(2S,3S)-2-oxidanyl-4-phenyl-3-(piperidin-3-ylcarbonylamino)butanoyl]-1,3-thiazolidine-4-carboxamide
> <PUBCHEM_IUPAC_TRADITIONAL_NAME>
(4R)-3-[(2S,3S)-2-hydroxy-3-(nipecotoylamino)-4-phenyl-butanoyl]-5,5-dimethyl-N-(2-methylbenzyl)thiazolidine-4-carboxamide
> <PUBCHEM_IUPAC_INCHI>
InChI=1S/C30H40N4O4S/c1-20-10-7-8-13-22(20)18-32-28(37)26-30(2,3)39-19-34(26)29(38)25(35)24(16-21-11-5-4-6-12-21)33-27(36)23-14-9-15-31-17-23/h4-8,10-13,23-26,31,35H,9,14-19H2,1-3H3,(H,32,37)(H,33,36)/t23?,24-,25-,26+/m0/s1
> <PUBCHEM_IUPAC_INCHIKEY>
CHGVRDONPDRSGN-GHMBPFNYSA-N
> <PUBCHEM_XLOGP3_AA>
2.8
> <PUBCHEM_EXACT_MASS>
552.27702694
> <PUBCHEM_MOLECULAR_FORMULA>
C30H40N4O4S
> <PUBCHEM_MOLECULAR_WEIGHT>
552.7
> <PUBCHEM_OPENEYE_CAN_SMILES>
CC1=CC=CC=C1CNC(=O)C2C(SCN2C(=O)C(C(CC3=CC=CC=C3)NC(=O)C4CCCNC4)O)(C)C
> <PUBCHEM_OPENEYE_ISO_SMILES>
CC1=CC=CC=C1CNC(=O)[C@@H]2C(SCN2C(=O)[C@H]([C@H](CC3=CC=CC=C3)NC(=O)C4CCCNC4)O)(C)C
> <PUBCHEM_CACTVS_TPSA>
136
> <PUBCHEM_MONOISOTOPIC_WEIGHT>
552.27702694
> <PUBCHEM_TOTAL_CHARGE>
0
> <PUBCHEM_HEAVY_ATOM_COUNT>
39
> <PUBCHEM_ATOM_DEF_STEREO_COUNT>
3
> <PUBCHEM_ATOM_UDEF_STEREO_COUNT>
1
> <PUBCHEM_BOND_DEF_STEREO_COUNT>
0
> <PUBCHEM_BOND_UDEF_STEREO_COUNT>
0
> <PUBCHEM_ISOTOPIC_ATOM_COUNT>
0
> <PUBCHEM_COMPONENT_COUNT>
1
> <PUBCHEM_CACTVS_TAUTO_COUNT>
-1
> <PUBCHEM_COORDINATE_TYPE>
1
5
255
> <PUBCHEM_BONDANNOTATIONS>
11  19  5
18  24  3
14  2  6
26  29  8
26  30  8
28  31  8
28  34  8
29  32  8
30  33  8
31  36  8
32  35  8
33  35  8
34  38  8
36  39  8
38  39  8
13  7  5
$$$$
