514702
  -OEChem-10302200282D
 79 83  0     1  0  0  0  0  0999 V2000
    8.3468    3.3539    0.0000 S   0  0  0  0  0  0  0  0  0  0  0  0
    6.3981    0.6515    0.0000 O   0  0  0  0  0  0  0  0  0  0  0  0
   10.0798    1.1267    0.0000 O   0  0  0  0  0  0  0  0  0  0  0  0
    7.6424    0.0975    0.0000 O   0  0  0  0  0  0  0  0  0  0  0  0
   11.0308    0.8177    0.0000 O   0  0  0  0  0  0  0  0  0  0  0  0
   13.5567   -2.7348    0.0000 O   0  0  0  0  0  0  0  0  0  0  0  0
    8.1777    1.7447    0.0000 N   0  0  0  0  0  0  0  0  0  0  0  0
    5.5321    2.1515    0.0000 N   0  0  0  0  0  0  0  0  0  0  0  0
   10.4956   -0.8296    0.0000 N   0  0  0  0  0  0  0  0  0  0  0  0
    7.2641    2.1515    0.0000 C   0  0  1  0  0  0  0  0  0  0  0  0
    7.3686    3.1460    0.0000 C   0  0  0  0  0  0  0  0  0  0  0  0
    8.8468    2.4879    0.0000 C   0  0  0  0  0  0  0  0  0  0  0  0
    6.3981    1.6515    0.0000 C   0  0  0  0  0  0  0  0  0  0  0  0
    7.1607    4.1242    0.0000 C   0  0  0  0  0  0  0  0  0  0  0  0
    6.3741    3.2505    0.0000 C   0  0  0  0  0  0  0  0  0  0  0  0
    8.3856    0.7666    0.0000 C   0  0  0  0  0  0  0  0  0  0  0  0
    5.5321    3.1515    0.0000 C   0  0  0  0  0  0  0  0  0  0  0  0
    9.3366    0.4576    0.0000 C   0  0  2  0  0  0  0  0  0  0  0  0
    4.6660    1.6515    0.0000 C   0  0  0  0  0  0  0  0  0  0  0  0
    4.6660    3.6515    0.0000 C   0  0  0  0  0  0  0  0  0  0  0  0
    9.5445   -0.5206    0.0000 C   0  0  2  0  0  0  0  0  0  0  0  0
    3.8000    2.1515    0.0000 C   0  0  0  0  0  0  0  0  0  0  0  0
    3.8000    3.1515    0.0000 C   0  0  0  0  0  0  0  0  0  0  0  0
    8.8014   -1.1897    0.0000 C   0  0  0  0  0  0  0  0  0  0  0  0
    2.9061    1.6168    0.0000 C   0  0  0  0  0  0  0  0  0  0  0  0
    2.9061    3.6861    0.0000 C   0  0  0  0  0  0  0  0  0  0  0  0
    9.0093   -2.1678    0.0000 C   0  0  0  0  0  0  0  0  0  0  0  0
    2.0000    2.1307    0.0000 C   0  0  0  0  0  0  0  0  0  0  0  0
    2.0000    3.1723    0.0000 C   0  0  0  0  0  0  0  0  0  0  0  0
   11.2387   -0.1605    0.0000 C   0  0  0  0  0  0  0  0  0  0  0  0
    9.9604   -2.4769    0.0000 C   0  0  0  0  0  0  0  0  0  0  0  0
    8.2662   -2.8370    0.0000 C   0  0  0  0  0  0  0  0  0  0  0  0
   12.1898   -0.4695    0.0000 C   0  0  0  0  0  0  0  0  0  0  0  0
   10.1683   -3.4550    0.0000 C   0  0  0  0  0  0  0  0  0  0  0  0
    8.4741   -3.8151    0.0000 C   0  0  0  0  0  0  0  0  0  0  0  0
   12.3977   -1.4476    0.0000 C   0  0  0  0  0  0  0  0  0  0  0  0
    9.4251   -4.1242    0.0000 C   0  0  0  0  0  0  0  0  0  0  0  0
   12.9329    0.1997    0.0000 C   0  0  0  0  0  0  0  0  0  0  0  0
   13.3488   -1.7566    0.0000 C   0  0  0  0  0  0  0  0  0  0  0  0
   11.6546   -2.1168    0.0000 C   0  0  0  0  0  0  0  0  0  0  0  0
   13.8840   -0.1094    0.0000 C   0  0  0  0  0  0  0  0  0  0  0  0
   14.0919   -1.0875    0.0000 C   0  0  0  0  0  0  0  0  0  0  0  0
    7.2966    1.5323    0.0000 H   0  0  0  0  0  0  0  0  0  0  0  0
    9.2616    2.0271    0.0000 H   0  0  0  0  0  0  0  0  0  0  0  0
    9.3484    2.8523    0.0000 H   0  0  0  0  0  0  0  0  0  0  0  0
    7.7672    4.2530    0.0000 H   0  0  0  0  0  0  0  0  0  0  0  0
    7.0318    4.7306    0.0000 H   0  0  0  0  0  0  0  0  0  0  0  0
    6.5543    3.9952    0.0000 H   0  0  0  0  0  0  0  0  0  0  0  0
    6.4389    3.8671    0.0000 H   0  0  0  0  0  0  0  0  0  0  0  0
    5.7575    3.3153    0.0000 H   0  0  0  0  0  0  0  0  0  0  0  0
    6.3093    2.6339    0.0000 H   0  0  0  0  0  0  0  0  0  0  0  0
    6.1426    3.0438    0.0000 H   0  0  0  0  0  0  0  0  0  0  0  0
    5.7441    3.7341    0.0000 H   0  0  0  0  0  0  0  0  0  0  0  0
    9.9263    0.2660    0.0000 H   0  0  0  0  0  0  0  0  0  0  0  0
    4.2675    1.1765    0.0000 H   0  0  0  0  0  0  0  0  0  0  0  0
    5.0646    1.1765    0.0000 H   0  0  0  0  0  0  0  0  0  0  0  0
    5.0646    4.1264    0.0000 H   0  0  0  0  0  0  0  0  0  0  0  0
    4.2675    4.1264    0.0000 H   0  0  0  0  0  0  0  0  0  0  0  0
    9.6734   -1.1270    0.0000 H   0  0  0  0  0  0  0  0  0  0  0  0
    8.4728   -0.6639    0.0000 H   0  0  0  0  0  0  0  0  0  0  0  0
    8.2265   -1.4220    0.0000 H   0  0  0  0  0  0  0  0  0  0  0  0
   10.6245   -1.4360    0.0000 H   0  0  0  0  0  0  0  0  0  0  0  0
    2.9132    0.9969    0.0000 H   0  0  0  0  0  0  0  0  0  0  0  0
    2.9132    4.3061    0.0000 H   0  0  0  0  0  0  0  0  0  0  0  0
    9.9509    1.7332    0.0000 H   0  0  0  0  0  0  0  0  0  0  0  0
    1.4643    1.8186    0.0000 H   0  0  0  0  0  0  0  0  0  0  0  0
    1.4643    3.4844    0.0000 H   0  0  0  0  0  0  0  0  0  0  0  0
   10.4211   -2.0620    0.0000 H   0  0  0  0  0  0  0  0  0  0  0  0
    7.6765   -2.6454    0.0000 H   0  0  0  0  0  0  0  0  0  0  0  0
   10.7579   -3.6466    0.0000 H   0  0  0  0  0  0  0  0  0  0  0  0
    8.0133   -4.2300    0.0000 H   0  0  0  0  0  0  0  0  0  0  0  0
    9.5540   -4.7306    0.0000 H   0  0  0  0  0  0  0  0  0  0  0  0
   12.8040    0.8061    0.0000 H   0  0  0  0  0  0  0  0  0  0  0  0
   11.2397   -1.6560    0.0000 H   0  0  0  0  0  0  0  0  0  0  0  0
   11.1938   -2.5316    0.0000 H   0  0  0  0  0  0  0  0  0  0  0  0
   12.0694   -2.5775    0.0000 H   0  0  0  0  0  0  0  0  0  0  0  0
   14.3447    0.3055    0.0000 H   0  0  0  0  0  0  0  0  0  0  0  0
   14.6816   -1.2791    0.0000 H   0  0  0  0  0  0  0  0  0  0  0  0
   14.1463   -2.9264    0.0000 H   0  0  0  0  0  0  0  0  0  0  0  0
  1 11  1  0  0  0  0
  1 12  1  0  0  0  0
  2 13  2  0  0  0  0
 18  3  1  1  0  0  0
  3 65  1  0  0  0  0
  4 16  2  0  0  0  0
  5 30  2  0  0  0  0
  6 39  1  0  0  0  0
  6 79  1  0  0  0  0
  7 10  1  0  0  0  0
  7 12  1  0  0  0  0
  7 16  1  0  0  0  0
  8 13  1  0  0  0  0
  8 17  1  0  0  0  0
  8 19  1  0  0  0  0
 21  9  1  1  0  0  0
  9 30  1  0  0  0  0
  9 62  1  0  0  0  0
 10 11  1  0  0  0  0
 10 13  1  6  0  0  0
 10 43  1  0  0  0  0
 11 14  1  0  0  0  0
 11 15  1  0  0  0  0
 12 44  1  0  0  0  0
 12 45  1  0  0  0  0
 14 46  1  0  0  0  0
 14 47  1  0  0  0  0
 14 48  1  0  0  0  0
 15 49  1  0  0  0  0
 15 50  1  0  0  0  0
 15 51  1  0  0  0  0
 16 18  1  0  0  0  0
 17 20  1  0  0  0  0
 17 52  1  0  0  0  0
 17 53  1  0  0  0  0
 18 21  1  0  0  0  0
 18 54  1  0  0  0  0
 19 22  1  0  0  0  0
 19 55  1  0  0  0  0
 19 56  1  0  0  0  0
 20 23  1  0  0  0  0
 20 57  1  0  0  0  0
 20 58  1  0  0  0  0
 21 24  1  0  0  0  0
 21 59  1  0  0  0  0
 22 23  1  0  0  0  0
 22 25  2  0  0  0  0
 23 26  2  0  0  0  0
 24 27  1  0  0  0  0
 24 60  1  0  0  0  0
 24 61  1  0  0  0  0
 25 28  1  0  0  0  0
 25 63  1  0  0  0  0
 26 29  1  0  0  0  0
 26 64  1  0  0  0  0
 27 31  2  0  0  0  0
 27 32  1  0  0  0  0
 28 29  2  0  0  0  0
 28 66  1  0  0  0  0
 29 67  1  0  0  0  0
 30 33  1  0  0  0  0
 31 34  1  0  0  0  0
 31 68  1  0  0  0  0
 32 35  2  0  0  0  0
 32 69  1  0  0  0  0
 33 36  2  0  0  0  0
 33 38  1  0  0  0  0
 34 37  2  0  0  0  0
 34 70  1  0  0  0  0
 35 37  1  0  0  0  0
 35 71  1  0  0  0  0
 36 39  1  0  0  0  0
 36 40  1  0  0  0  0
 37 72  1  0  0  0  0
 38 41  2  0  0  0  0
 38 73  1  0  0  0  0
 39 42  2  0  0  0  0
 40 74  1  0  0  0  0
 40 75  1  0  0  0  0
 40 76  1  0  0  0  0
 41 42  1  0  0  0  0
 41 77  1  0  0  0  0
 42 78  1  0  0  0  0
M  END
> <PUBCHEM_COMPOUND_CID>
514702
> <PUBCHEM_COMPOUND_CANONICALIZED>
1
> <PUBCHEM_CACTVS_COMPLEXITY>
971
> <PUBCHEM_CACTVS_HBOND_ACCEPTOR>
6
> <PUBCHEM_CACTVS_HBOND_DONOR>
3
> <PUBCHEM_CACTVS_ROTATABLE_BOND>
7
> <PUBCHEM_CACTVS_SUBSKEYS>
AAADcfB/OABAAAAAAAAAAAAAAAAAAWAAAAA8YMEAAAAAAACxUAAAHgQQCAAADDzh2AayBoPAAgiIAiFSEAKCAABkIBAIiIHODMgKdjqi1TOUcQhk1hGYmYe6yLCOgAABAAAYAAAAAAIAADAAAAAAAAAAAA==
> <PUBCHEM_IUPAC_OPENEYE_NAME>
N-[(1S,2S)-1-benzyl-3-[(4R)-4-(3,4-dihydro-1H-isoquinoline-2-carbonyl)-5,5-dimethyl-thiazolidin-3-yl]-2-hydroxy-3-oxo-propyl]-3-hydroxy-2-methyl-benzamide
> <PUBCHEM_IUPAC_CAS_NAME>
N-[(2S,3S)-4-[(4R)-4-[3,4-dihydro-1H-isoquinolin-2-yl(oxo)methyl]-5,5-dimethyl-3-thiazolidinyl]-3-hydroxy-4-oxo-1-phenylbutan-2-yl]-3-hydroxy-2-methylbenzamide
> <PUBCHEM_IUPAC_NAME_MARKUP>
<I>N</I>-[(2<I>S</I>,3<I>S</I>)-4-[(4<I>R</I>)-4-(3,4-dihydro-1<I>H</I>-isoquinoline-2-carbonyl)-5,5-dimethyl-1,3-thiazolidin-3-yl]-3-hydroxy-4-oxo-1-phenylbutan-2-yl]-3-hydroxy-2-methylbenzamide
> <PUBCHEM_IUPAC_NAME>
N-[(2S,3S)-4-[(4R)-4-(3,4-dihydro-1H-isoquinoline-2-carbonyl)-5,5-dimethyl-1,3-thiazolidin-3-yl]-3-hydroxy-4-oxo-1-phenylbutan-2-yl]-3-hydroxy-2-methylbenzamide
> <PUBCHEM_IUPAC_SYSTEMATIC_NAME>
N-[(2S,3S)-4-[(4R)-4-(3,4-dihydro-1H-isoquinolin-2-ylcarbonyl)-5,5-dimethyl-1,3-thiazolidin-3-yl]-3-oxidanyl-4-oxidanylidene-1-phenyl-butan-2-yl]-2-methyl-3-oxidanyl-benzamide
> <PUBCHEM_IUPAC_TRADITIONAL_NAME>
N-[(1S,2S)-1-benzyl-3-[(4R)-4-(3,4-dihydro-1H-isoquinoline-2-carbonyl)-5,5-dimethyl-thiazolidin-3-yl]-2-hydroxy-3-keto-propyl]-3-hydroxy-2-methyl-benzamide
> <PUBCHEM_IUPAC_INCHI>
InChI=1S/C33H37N3O5S/c1-21-25(14-9-15-27(21)37)30(39)34-26(18-22-10-5-4-6-11-22)28(38)31(40)36-20-42-33(2,3)29(36)32(41)35-17-16-23-12-7-8-13-24(23)19-35/h4-15,26,28-29,37-38H,16-20H2,1-3H3,(H,34,39)/t26-,28-,29+/m0/s1
> <PUBCHEM_IUPAC_INCHIKEY>
QRVGXHSOPWEIHB-PIZZNKLWSA-N
> <PUBCHEM_XLOGP3_AA>
4.3
> <PUBCHEM_EXACT_MASS>
587.24539246
> <PUBCHEM_MOLECULAR_FORMULA>
C33H37N3O5S
> <PUBCHEM_MOLECULAR_WEIGHT>
587.7
> <PUBCHEM_OPENEYE_CAN_SMILES>
CC1=C(C=CC=C1O)C(=O)NC(CC2=CC=CC=C2)C(C(=O)N3CSC(C3C(=O)N4CCC5=CC=CC=C5C4)(C)C)O
> <PUBCHEM_OPENEYE_ISO_SMILES>
CC1=C(C=CC=C1O)C(=O)N[C@@H](CC2=CC=CC=C2)[C@@H](C(=O)N3CSC([C@H]3C(=O)N4CCC5=CC=CC=C5C4)(C)C)O
> <PUBCHEM_CACTVS_TPSA>
136
> <PUBCHEM_MONOISOTOPIC_WEIGHT>
587.24539246
> <PUBCHEM_TOTAL_CHARGE>
0
> <PUBCHEM_HEAVY_ATOM_COUNT>
42
> <PUBCHEM_ATOM_DEF_STEREO_COUNT>
3
> <PUBCHEM_ATOM_UDEF_STEREO_COUNT>
0
> <PUBCHEM_BOND_DEF_STEREO_COUNT>
0
> <PUBCHEM_BOND_UDEF_STEREO_COUNT>
0
> <PUBCHEM_ISOTOPIC_ATOM_COUNT>
0
> <PUBCHEM_COMPONENT_COUNT>
1
> <PUBCHEM_CACTVS_TAUTO_COUNT>
-1
> <PUBCHEM_COORDINATE_TYPE>
1
5
255
> <PUBCHEM_BONDANNOTATIONS>
10  13  6
22  23  8
22  25  8
23  26  8
25  28  8
26  29  8
27  31  8
27  32  8
28  29  8
18  3  5
31  34  8
32  35  8
33  36  8
33  38  8
34  37  8
35  37  8
36  39  8
38  41  8
39  42  8
41  42  8
21  9  5
$$$$
