514740
  -OEChem-10302200282D
 78 82  0     1  0  0  0  0  0999 V2000
    9.0154    1.0349    0.0000 S   0  0  0  0  0  0  0  0  0  0  0  0
    9.3814   -2.0040    0.0000 O   0  0  0  0  0  0  0  0  0  0  0  0
    6.2200    1.4221    0.0000 O   0  0  0  0  0  0  0  0  0  0  0  0
    6.5474   -1.2034    0.0000 O   0  0  0  0  0  0  0  0  0  0  0  0
    7.6493   -5.0040    0.0000 O   0  0  0  0  0  0  0  0  0  0  0  0
    3.7827    2.4513    0.0000 O   0  0  0  0  0  0  0  0  0  0  0  0
    4.7996    4.8307    0.0000 O   0  0  0  0  0  0  0  0  0  0  0  0
    5.4769    2.0912    0.0000 O   0  0  0  0  0  0  0  0  0  0  0  0
    7.7063    0.0838    0.0000 N   0  0  0  0  0  0  0  0  0  0  0  0
    7.6493   -2.0040    0.0000 N   0  0  0  0  0  0  0  0  0  0  0  0
    4.3179    0.8040    0.0000 N   0  0  0  0  0  0  0  0  0  0  0  0
    9.3244    0.0838    0.0000 C   0  0  0  0  0  0  0  0  0  0  0  0
    8.5154   -0.5040    0.0000 C   0  0  1  0  0  0  0  0  0  0  0  0
    8.0154    1.0349    0.0000 C   0  0  0  0  0  0  0  0  0  0  0  0
   10.2754    0.3928    0.0000 C   0  0  0  0  0  0  0  0  0  0  0  0
    9.9122   -0.7252    0.0000 C   0  0  0  0  0  0  0  0  0  0  0  0
    8.5154   -1.5040    0.0000 C   0  0  0  0  0  0  0  0  0  0  0  0
    6.7553   -0.2252    0.0000 C   0  0  0  0  0  0  0  0  0  0  0  0
    6.0121    0.4439    0.0000 C   0  0  2  0  0  0  0  0  0  0  0  0
    7.6493   -3.0040    0.0000 C   0  0  2  0  0  0  0  0  0  0  0  0
    5.0611    0.1349    0.0000 C   0  0  2  0  0  0  0  0  0  0  0  0
    8.5154   -3.5040    0.0000 C   0  0  0  0  0  0  0  0  0  0  0  0
    6.7833   -3.5040    0.0000 C   0  0  0  0  0  0  0  0  0  0  0  0
    4.8532   -0.8432    0.0000 C   0  0  0  0  0  0  0  0  0  0  0  0
    8.5154   -4.5040    0.0000 C   0  0  0  0  0  0  0  0  0  0  0  0
    6.7833   -4.5040    0.0000 C   0  0  0  0  0  0  0  0  0  0  0  0
    3.9021   -1.1523    0.0000 C   0  0  0  0  0  0  0  0  0  0  0  0
    5.8894   -2.9693    0.0000 C   0  0  0  0  0  0  0  0  0  0  0  0
    3.9906    3.4295    0.0000 C   0  0  1  0  0  0  0  0  0  0  0  0
    4.5258    1.7822    0.0000 C   0  0  0  0  0  0  0  0  0  0  0  0
    3.3215    4.1726    0.0000 C   0  0  0  0  0  0  0  0  0  0  0  0
    5.8894   -5.0386    0.0000 C   0  0  0  0  0  0  0  0  0  0  0  0
    4.9042    3.8362    0.0000 C   0  0  0  0  0  0  0  0  0  0  0  0
    4.9833   -3.4832    0.0000 C   0  0  0  0  0  0  0  0  0  0  0  0
    3.8215    5.0386    0.0000 C   0  0  0  0  0  0  0  0  0  0  0  0
    4.9833   -4.5248    0.0000 C   0  0  0  0  0  0  0  0  0  0  0  0
    3.6942   -2.1304    0.0000 C   0  0  0  0  0  0  0  0  0  0  0  0
    3.1590   -0.4831    0.0000 C   0  0  0  0  0  0  0  0  0  0  0  0
    2.7431   -2.4394    0.0000 C   0  0  0  0  0  0  0  0  0  0  0  0
    2.2079   -0.7921    0.0000 C   0  0  0  0  0  0  0  0  0  0  0  0
    2.0000   -1.7703    0.0000 C   0  0  0  0  0  0  0  0  0  0  0  0
    7.9629   -0.7854    0.0000 H   0  0  0  0  0  0  0  0  0  0  0  0
    8.0802    1.6515    0.0000 H   0  0  0  0  0  0  0  0  0  0  0  0
    7.4089    1.1638    0.0000 H   0  0  0  0  0  0  0  0  0  0  0  0
   10.4670   -0.1968    0.0000 H   0  0  0  0  0  0  0  0  0  0  0  0
   10.8651    0.5844    0.0000 H   0  0  0  0  0  0  0  0  0  0  0  0
   10.0838    0.9825    0.0000 H   0  0  0  0  0  0  0  0  0  0  0  0
    9.4106   -1.0896    0.0000 H   0  0  0  0  0  0  0  0  0  0  0  0
   10.2766   -1.2268    0.0000 H   0  0  0  0  0  0  0  0  0  0  0  0
   10.4137   -0.3608    0.0000 H   0  0  0  0  0  0  0  0  0  0  0  0
    6.6018    0.6355    0.0000 H   0  0  0  0  0  0  0  0  0  0  0  0
    8.1863   -2.6940    0.0000 H   0  0  0  0  0  0  0  0  0  0  0  0
    7.1124   -1.6940    0.0000 H   0  0  0  0  0  0  0  0  0  0  0  0
    5.1900    0.7414    0.0000 H   0  0  0  0  0  0  0  0  0  0  0  0
    9.1259   -3.6116    0.0000 H   0  0  0  0  0  0  0  0  0  0  0  0
    8.7274   -2.9214    0.0000 H   0  0  0  0  0  0  0  0  0  0  0  0
    4.9395   -1.4572    0.0000 H   0  0  0  0  0  0  0  0  0  0  0  0
    5.4728   -0.8649    0.0000 H   0  0  0  0  0  0  0  0  0  0  0  0
    8.7274   -5.0866    0.0000 H   0  0  0  0  0  0  0  0  0  0  0  0
    9.1259   -4.3963    0.0000 H   0  0  0  0  0  0  0  0  0  0  0  0
    3.7283    0.6124    0.0000 H   0  0  0  0  0  0  0  0  0  0  0  0
    6.8097    1.6137    0.0000 H   0  0  0  0  0  0  0  0  0  0  0  0
    5.8965   -2.3494    0.0000 H   0  0  0  0  0  0  0  0  0  0  0  0
    4.4724    3.0393    0.0000 H   0  0  0  0  0  0  0  0  0  0  0  0
    2.8199    4.5370    0.0000 H   0  0  0  0  0  0  0  0  0  0  0  0
    2.9066    3.7119    0.0000 H   0  0  0  0  0  0  0  0  0  0  0  0
    5.8965   -5.6586    0.0000 H   0  0  0  0  0  0  0  0  0  0  0  0
    5.0958    3.2466    0.0000 H   0  0  0  0  0  0  0  0  0  0  0  0
    5.5106    3.9651    0.0000 H   0  0  0  0  0  0  0  0  0  0  0  0
    4.4476   -3.1711    0.0000 H   0  0  0  0  0  0  0  0  0  0  0  0
    4.0131    5.6283    0.0000 H   0  0  0  0  0  0  0  0  0  0  0  0
    3.2551    5.2908    0.0000 H   0  0  0  0  0  0  0  0  0  0  0  0
    4.4476   -4.8369    0.0000 H   0  0  0  0  0  0  0  0  0  0  0  0
    4.1550   -2.5453    0.0000 H   0  0  0  0  0  0  0  0  0  0  0  0
    3.2879    0.1233    0.0000 H   0  0  0  0  0  0  0  0  0  0  0  0
    2.6142   -3.0459    0.0000 H   0  0  0  0  0  0  0  0  0  0  0  0
    1.7472   -0.3773    0.0000 H   0  0  0  0  0  0  0  0  0  0  0  0
    1.4103   -1.9619    0.0000 H   0  0  0  0  0  0  0  0  0  0  0  0
  1 12  1  0  0  0  0
  1 14  1  0  0  0  0
  2 17  2  0  0  0  0
 19  3  1  6  0  0  0
  3 62  1  0  0  0  0
  4 18  2  0  0  0  0
  5 25  1  0  0  0  0
  5 26  1  0  0  0  0
 29  6  1  1  0  0  0
  6 30  1  0  0  0  0
  7 33  1  0  0  0  0
  7 35  1  0  0  0  0
  8 30  2  0  0  0  0
  9 13  1  0  0  0  0
  9 14  1  0  0  0  0
  9 18  1  0  0  0  0
 10 17  1  0  0  0  0
 20 10  1  6  0  0  0
 10 53  1  0  0  0  0
 21 11  1  6  0  0  0
 11 30  1  0  0  0  0
 11 61  1  0  0  0  0
 12 13  1  0  0  0  0
 12 15  1  0  0  0  0
 12 16  1  0  0  0  0
 13 17  1  1  0  0  0
 13 42  1  0  0  0  0
 14 43  1  0  0  0  0
 14 44  1  0  0  0  0
 15 45  1  0  0  0  0
 15 46  1  0  0  0  0
 15 47  1  0  0  0  0
 16 48  1  0  0  0  0
 16 49  1  0  0  0  0
 16 50  1  0  0  0  0
 18 19  1  0  0  0  0
 19 21  1  0  0  0  0
 19 51  1  0  0  0  0
 20 22  1  0  0  0  0
 20 23  1  0  0  0  0
 20 52  1  0  0  0  0
 21 24  1  0  0  0  0
 21 54  1  0  0  0  0
 22 25  1  0  0  0  0
 22 55  1  0  0  0  0
 22 56  1  0  0  0  0
 23 26  1  0  0  0  0
 23 28  2  0  0  0  0
 24 27  1  0  0  0  0
 24 57  1  0  0  0  0
 24 58  1  0  0  0  0
 25 59  1  0  0  0  0
 25 60  1  0  0  0  0
 26 32  2  0  0  0  0
 27 37  2  0  0  0  0
 27 38  1  0  0  0  0
 28 34  1  0  0  0  0
 28 63  1  0  0  0  0
 29 31  1  0  0  0  0
 29 33  1  0  0  0  0
 29 64  1  0  0  0  0
 31 35  1  0  0  0  0
 31 65  1  0  0  0  0
 31 66  1  0  0  0  0
 32 36  1  0  0  0  0
 32 67  1  0  0  0  0
 33 68  1  0  0  0  0
 33 69  1  0  0  0  0
 34 36  2  0  0  0  0
 34 70  1  0  0  0  0
 35 71  1  0  0  0  0
 35 72  1  0  0  0  0
 36 73  1  0  0  0  0
 37 39  1  0  0  0  0
 37 74  1  0  0  0  0
 38 40  2  0  0  0  0
 38 75  1  0  0  0  0
 39 41  2  0  0  0  0
 39 76  1  0  0  0  0
 40 41  1  0  0  0  0
 40 77  1  0  0  0  0
 41 78  1  0  0  0  0
M  END
> <PUBCHEM_COMPOUND_CID>
514740
> <PUBCHEM_COMPOUND_CANONICALIZED>
1
> <PUBCHEM_CACTVS_COMPLEXITY>
930
> <PUBCHEM_CACTVS_HBOND_ACCEPTOR>
8
> <PUBCHEM_CACTVS_HBOND_DONOR>
3
> <PUBCHEM_CACTVS_ROTATABLE_BOND>
9
> <PUBCHEM_CACTVS_SUBSKEYS>
AAADcfB7OABAAAAAAAAAAAAAAAAAAWJAAAA0YIAAAAAAAACRQAAAHgQQCAAADDzh2AayDoPABgiIAiFSGAKCCABgIBAIiIHODIkPdjqk8TueeCjn1hGaqAeYyKCOAAAAAAAIAAAAAAAAABAAAAAAAAAAAA==
> <PUBCHEM_IUPAC_OPENEYE_NAME>
[(3S)-tetrahydrofuran-3-yl] N-[(1S,2S)-1-benzyl-3-[(4R)-4-[[(4R)-chroman-4-yl]carbamoyl]-5,5-dimethyl-thiazolidin-3-yl]-2-hydroxy-3-oxo-propyl]carbamate
> <PUBCHEM_IUPAC_CAS_NAME>
N-[(2S,3S)-4-[(4R)-4-[[[(4R)-3,4-dihydro-2H-1-benzopyran-4-yl]amino]-oxomethyl]-5,5-dimethyl-3-thiazolidinyl]-3-hydroxy-4-oxo-1-phenylbutan-2-yl]carbamic acid [(3S)-3-oxolanyl] ester
> <PUBCHEM_IUPAC_NAME_MARKUP>
[(3<I>S</I>)-oxolan-3-yl] <I>N</I>-[(2<I>S</I>,3<I>S</I>)-4-[(4<I>R</I>)-4-[[(4<I>R</I>)-3,4-dihydro-2<I>H</I>-chromen-4-yl]carbamoyl]-5,5-dimethyl-1,3-thiazolidin-3-yl]-3-hydroxy-4-oxo-1-phenylbutan-2-yl]carbamate
> <PUBCHEM_IUPAC_NAME>
[(3S)-oxolan-3-yl] N-[(2S,3S)-4-[(4R)-4-[[(4R)-3,4-dihydro-2H-chromen-4-yl]carbamoyl]-5,5-dimethyl-1,3-thiazolidin-3-yl]-3-hydroxy-4-oxo-1-phenylbutan-2-yl]carbamate
> <PUBCHEM_IUPAC_SYSTEMATIC_NAME>
[(3S)-oxolan-3-yl] N-[(2S,3S)-4-[(4R)-4-[[(4R)-3,4-dihydro-2H-chromen-4-yl]carbamoyl]-5,5-dimethyl-1,3-thiazolidin-3-yl]-3-oxidanyl-4-oxidanylidene-1-phenyl-butan-2-yl]carbamate
> <PUBCHEM_IUPAC_TRADITIONAL_NAME>
N-[(1S,2S)-1-benzyl-3-[(4R)-4-[[(4R)-chroman-4-yl]carbamoyl]-5,5-dimethyl-thiazolidin-3-yl]-2-hydroxy-3-keto-propyl]carbamic acid [(3S)-tetrahydrofuran-3-yl] ester
> <PUBCHEM_IUPAC_INCHI>
InChI=1S/C30H37N3O7S/c1-30(2)26(27(35)31-22-13-15-39-24-11-7-6-10-21(22)24)33(18-41-30)28(36)25(34)23(16-19-8-4-3-5-9-19)32-29(37)40-20-12-14-38-17-20/h3-11,20,22-23,25-26,34H,12-18H2,1-2H3,(H,31,35)(H,32,37)/t20-,22+,23-,25-,26+/m0/s1
> <PUBCHEM_IUPAC_INCHIKEY>
PYGQDGSUUFESGG-BEZVEXFWSA-N
> <PUBCHEM_XLOGP3_AA>
3
> <PUBCHEM_EXACT_MASS>
583.23522170
> <PUBCHEM_MOLECULAR_FORMULA>
C30H37N3O7S
> <PUBCHEM_MOLECULAR_WEIGHT>
583.7
> <PUBCHEM_OPENEYE_CAN_SMILES>
CC1(C(N(CS1)C(=O)C(C(CC2=CC=CC=C2)NC(=O)OC3CCOC3)O)C(=O)NC4CCOC5=CC=CC=C45)C
> <PUBCHEM_OPENEYE_ISO_SMILES>
CC1([C@H](N(CS1)C(=O)[C@H]([C@H](CC2=CC=CC=C2)NC(=O)O[C@H]3CCOC3)O)C(=O)N[C@@H]4CCOC5=CC=CC=C45)C
> <PUBCHEM_CACTVS_TPSA>
152
> <PUBCHEM_MONOISOTOPIC_WEIGHT>
583.23522170
> <PUBCHEM_TOTAL_CHARGE>
0
> <PUBCHEM_HEAVY_ATOM_COUNT>
41
> <PUBCHEM_ATOM_DEF_STEREO_COUNT>
5
> <PUBCHEM_ATOM_UDEF_STEREO_COUNT>
0
> <PUBCHEM_BOND_DEF_STEREO_COUNT>
0
> <PUBCHEM_BOND_UDEF_STEREO_COUNT>
0
> <PUBCHEM_ISOTOPIC_ATOM_COUNT>
0
> <PUBCHEM_COMPONENT_COUNT>
1
> <PUBCHEM_CACTVS_TAUTO_COUNT>
-1
> <PUBCHEM_COORDINATE_TYPE>
1
5
255
> <PUBCHEM_BONDANNOTATIONS>
20  10  6
21  11  6
13  17  5
23  26  8
23  28  8
26  32  8
27  37  8
27  38  8
28  34  8
19  3  6
32  36  8
34  36  8
37  39  8
38  40  8
39  41  8
40  41  8
29  6  5
$$$$
