514710
  -OEChem-10302200282D
 84 87  0     1  0  0  0  0  0999 V2000
    3.7320   -5.2500    0.0000 Cl  0  0  0  0  0  0  0  0  0  0  0  0
    9.1448    3.4524    0.0000 S   0  0  0  0  0  0  0  0  0  0  0  0
    6.3301    3.2500    0.0000 O   0  0  0  0  0  0  0  0  0  0  0  0
    8.4405    0.1960    0.0000 O   0  0  0  0  0  0  0  0  0  0  0  0
    7.1962    0.7500    0.0000 O   0  0  0  0  0  0  0  0  0  0  0  0
    3.7320    0.7500    0.0000 O   0  0  0  0  0  0  0  0  0  0  0  0
    3.7320   -1.2500    0.0000 O   0  0  0  0  0  0  0  0  0  0  0  0
    8.0622    2.2500    0.0000 N   0  0  0  0  0  0  0  0  0  0  0  0
   10.1347    0.5561    0.0000 N   0  0  0  0  0  0  0  0  0  0  0  0
    5.4641    0.7500    0.0000 N   0  0  0  0  0  0  0  0  0  0  0  0
    9.6448    2.5864    0.0000 C   0  0  0  0  0  0  0  0  0  0  0  0
    8.9757    1.8433    0.0000 C   0  0  1  0  0  0  0  0  0  0  0  0
    8.1667    3.2445    0.0000 C   0  0  0  0  0  0  0  0  0  0  0  0
   10.5109    3.0864    0.0000 C   0  0  0  0  0  0  0  0  0  0  0  0
   10.3880    1.9173    0.0000 C   0  0  0  0  0  0  0  0  0  0  0  0
    9.1836    0.8651    0.0000 C   0  0  0  0  0  0  0  0  0  0  0  0
    7.1962    1.7500    0.0000 C   0  0  0  0  0  0  0  0  0  0  0  0
    6.3301    2.2500    0.0000 C   0  0  2  0  0  0  0  0  0  0  0  0
    5.4641    1.7500    0.0000 C   0  0  2  0  0  0  0  0  0  0  0  0
    4.5981    2.2500    0.0000 C   0  0  0  0  0  0  0  0  0  0  0  0
   10.3426   -0.4220    0.0000 C   0  0  0  0  0  0  0  0  0  0  0  0
    4.5981    3.2500    0.0000 C   0  0  0  0  0  0  0  0  0  0  0  0
   11.2937   -0.7311    0.0000 C   0  0  0  0  0  0  0  0  0  0  0  0
    4.5981    0.2500    0.0000 C   0  0  0  0  0  0  0  0  0  0  0  0
    3.7320    3.7500    0.0000 C   0  0  0  0  0  0  0  0  0  0  0  0
    5.4641    3.7500    0.0000 C   0  0  0  0  0  0  0  0  0  0  0  0
   11.5016   -1.7092    0.0000 C   0  0  0  0  0  0  0  0  0  0  0  0
    4.5981   -0.7500    0.0000 C   0  0  0  0  0  0  0  0  0  0  0  0
   12.0368   -0.0619    0.0000 C   0  0  0  0  0  0  0  0  0  0  0  0
    3.7320    4.7500    0.0000 C   0  0  0  0  0  0  0  0  0  0  0  0
    5.4641    4.7500    0.0000 C   0  0  0  0  0  0  0  0  0  0  0  0
   12.4526   -2.0182    0.0000 C   0  0  0  0  0  0  0  0  0  0  0  0
    4.5981    5.2500    0.0000 C   0  0  0  0  0  0  0  0  0  0  0  0
   10.7584   -2.3783    0.0000 C   0  0  0  0  0  0  0  0  0  0  0  0
   12.9879   -0.3710    0.0000 C   0  0  0  0  0  0  0  0  0  0  0  0
   13.1958   -1.3491    0.0000 C   0  0  0  0  0  0  0  0  0  0  0  0
    3.7320   -2.2500    0.0000 C   0  0  0  0  0  0  0  0  0  0  0  0
    4.5981   -2.7500    0.0000 C   0  0  0  0  0  0  0  0  0  0  0  0
    2.8660   -2.7500    0.0000 C   0  0  0  0  0  0  0  0  0  0  0  0
    4.5981   -3.7500    0.0000 C   0  0  0  0  0  0  0  0  0  0  0  0
    2.8660   -3.7500    0.0000 C   0  0  0  0  0  0  0  0  0  0  0  0
    5.4641   -2.2500    0.0000 C   0  0  0  0  0  0  0  0  0  0  0  0
    2.0000   -2.2500    0.0000 C   0  0  0  0  0  0  0  0  0  0  0  0
    3.7320   -4.2500    0.0000 C   0  0  0  0  0  0  0  0  0  0  0  0
    8.4939    1.4531    0.0000 H   0  0  0  0  0  0  0  0  0  0  0  0
    8.1019    3.8611    0.0000 H   0  0  0  0  0  0  0  0  0  0  0  0
    7.5467    3.2445    0.0000 H   0  0  0  0  0  0  0  0  0  0  0  0
   10.8209    2.5495    0.0000 H   0  0  0  0  0  0  0  0  0  0  0  0
   11.0478    3.3964    0.0000 H   0  0  0  0  0  0  0  0  0  0  0  0
   10.2009    3.6233    0.0000 H   0  0  0  0  0  0  0  0  0  0  0  0
    9.9731    1.4565    0.0000 H   0  0  0  0  0  0  0  0  0  0  0  0
   10.8487    1.5024    0.0000 H   0  0  0  0  0  0  0  0  0  0  0  0
   10.8029    2.3780    0.0000 H   0  0  0  0  0  0  0  0  0  0  0  0
    6.8671    2.5600    0.0000 H   0  0  0  0  0  0  0  0  0  0  0  0
    6.0010    1.4400    0.0000 H   0  0  0  0  0  0  0  0  0  0  0  0
   10.5954    0.9710    0.0000 H   0  0  0  0  0  0  0  0  0  0  0  0
    3.9875    2.3577    0.0000 H   0  0  0  0  0  0  0  0  0  0  0  0
    4.3860    1.6674    0.0000 H   0  0  0  0  0  0  0  0  0  0  0  0
    6.0010    0.4400    0.0000 H   0  0  0  0  0  0  0  0  0  0  0  0
    9.7230   -0.4437    0.0000 H   0  0  0  0  0  0  0  0  0  0  0  0
   10.2563   -1.0360    0.0000 H   0  0  0  0  0  0  0  0  0  0  0  0
    6.8671    3.5600    0.0000 H   0  0  0  0  0  0  0  0  0  0  0  0
    3.1951    3.4400    0.0000 H   0  0  0  0  0  0  0  0  0  0  0  0
    6.0010    3.4400    0.0000 H   0  0  0  0  0  0  0  0  0  0  0  0
    4.8101   -1.3326    0.0000 H   0  0  0  0  0  0  0  0  0  0  0  0
    5.2087   -0.6423    0.0000 H   0  0  0  0  0  0  0  0  0  0  0  0
   11.9079    0.5445    0.0000 H   0  0  0  0  0  0  0  0  0  0  0  0
    3.1951    5.0600    0.0000 H   0  0  0  0  0  0  0  0  0  0  0  0
    6.0010    5.0600    0.0000 H   0  0  0  0  0  0  0  0  0  0  0  0
   12.5815   -2.6247    0.0000 H   0  0  0  0  0  0  0  0  0  0  0  0
    4.5981    5.8700    0.0000 H   0  0  0  0  0  0  0  0  0  0  0  0
   10.3436   -1.9176    0.0000 H   0  0  0  0  0  0  0  0  0  0  0  0
   10.2977   -2.7932    0.0000 H   0  0  0  0  0  0  0  0  0  0  0  0
   11.1733   -2.8391    0.0000 H   0  0  0  0  0  0  0  0  0  0  0  0
   13.4486    0.0439    0.0000 H   0  0  0  0  0  0  0  0  0  0  0  0
   13.7854   -1.5407    0.0000 H   0  0  0  0  0  0  0  0  0  0  0  0
    5.1350   -4.0600    0.0000 H   0  0  0  0  0  0  0  0  0  0  0  0
    2.3291   -4.0600    0.0000 H   0  0  0  0  0  0  0  0  0  0  0  0
    5.7741   -2.7869    0.0000 H   0  0  0  0  0  0  0  0  0  0  0  0
    6.0010   -1.9400    0.0000 H   0  0  0  0  0  0  0  0  0  0  0  0
    5.1541   -1.7131    0.0000 H   0  0  0  0  0  0  0  0  0  0  0  0
    2.3100   -1.7131    0.0000 H   0  0  0  0  0  0  0  0  0  0  0  0
    1.4631   -1.9400    0.0000 H   0  0  0  0  0  0  0  0  0  0  0  0
    1.6900   -2.7869    0.0000 H   0  0  0  0  0  0  0  0  0  0  0  0
  1 44  1  0  0  0  0
  2 11  1  0  0  0  0
  2 13  1  0  0  0  0
 18  3  1  6  0  0  0
  3 62  1  0  0  0  0
  4 16  2  0  0  0  0
  5 17  2  0  0  0  0
  6 24  2  0  0  0  0
  7 28  1  0  0  0  0
  7 37  1  0  0  0  0
  8 12  1  0  0  0  0
  8 13  1  0  0  0  0
  8 17  1  0  0  0  0
  9 16  1  0  0  0  0
  9 21  1  0  0  0  0
  9 56  1  0  0  0  0
 19 10  1  1  0  0  0
 10 24  1  0  0  0  0
 10 59  1  0  0  0  0
 11 12  1  0  0  0  0
 11 14  1  0  0  0  0
 11 15  1  0  0  0  0
 12 16  1  1  0  0  0
 12 45  1  0  0  0  0
 13 46  1  0  0  0  0
 13 47  1  0  0  0  0
 14 48  1  0  0  0  0
 14 49  1  0  0  0  0
 14 50  1  0  0  0  0
 15 51  1  0  0  0  0
 15 52  1  0  0  0  0
 15 53  1  0  0  0  0
 17 18  1  0  0  0  0
 18 19  1  0  0  0  0
 18 54  1  0  0  0  0
 19 20  1  0  0  0  0
 19 55  1  0  0  0  0
 20 22  1  0  0  0  0
 20 57  1  0  0  0  0
 20 58  1  0  0  0  0
 21 23  1  0  0  0  0
 21 60  1  0  0  0  0
 21 61  1  0  0  0  0
 22 25  2  0  0  0  0
 22 26  1  0  0  0  0
 23 27  1  0  0  0  0
 23 29  2  0  0  0  0
 24 28  1  0  0  0  0
 25 30  1  0  0  0  0
 25 63  1  0  0  0  0
 26 31  2  0  0  0  0
 26 64  1  0  0  0  0
 27 32  2  0  0  0  0
 27 34  1  0  0  0  0
 28 65  1  0  0  0  0
 28 66  1  0  0  0  0
 29 35  1  0  0  0  0
 29 67  1  0  0  0  0
 30 33  2  0  0  0  0
 30 68  1  0  0  0  0
 31 33  1  0  0  0  0
 31 69  1  0  0  0  0
 32 36  1  0  0  0  0
 32 70  1  0  0  0  0
 33 71  1  0  0  0  0
 34 72  1  0  0  0  0
 34 73  1  0  0  0  0
 34 74  1  0  0  0  0
 35 36  2  0  0  0  0
 35 75  1  0  0  0  0
 36 76  1  0  0  0  0
 37 38  2  0  0  0  0
 37 39  1  0  0  0  0
 38 40  1  0  0  0  0
 38 42  1  0  0  0  0
 39 41  2  0  0  0  0
 39 43  1  0  0  0  0
 40 44  2  0  0  0  0
 40 77  1  0  0  0  0
 41 44  1  0  0  0  0
 41 78  1  0  0  0  0
 42 79  1  0  0  0  0
 42 80  1  0  0  0  0
 42 81  1  0  0  0  0
 43 82  1  0  0  0  0
 43 83  1  0  0  0  0
 43 84  1  0  0  0  0
M  END
> <PUBCHEM_COMPOUND_CID>
514710
> <PUBCHEM_COMPOUND_CANONICALIZED>
1
> <PUBCHEM_CACTVS_COMPLEXITY>
967
> <PUBCHEM_CACTVS_HBOND_ACCEPTOR>
6
> <PUBCHEM_CACTVS_HBOND_DONOR>
3
> <PUBCHEM_CACTVS_ROTATABLE_BOND>
11
> <PUBCHEM_CACTVS_SUBSKEYS>
AAADcfB/OABEAAAAAAAAAAAAAAAAAWAAAAAwYMAAAAAAAAABUAAAHgYQCAAADD7h2CayBoPABgiIAiFSEAKCCABgJRAIiIHMDogOdjql8z+XeCjk1hGYqAeYyOCOgCACIAAYAAAAQARAADAAAAAAAAAAAA==
> <PUBCHEM_IUPAC_OPENEYE_NAME>
(4R)-3-[(2S,3S)-3-[[2-(4-chloro-2,6-dimethyl-phenoxy)acetyl]amino]-2-hydroxy-4-phenyl-butanoyl]-5,5-dimethyl-N-(o-tolylmethyl)thiazolidine-4-carboxamide
> <PUBCHEM_IUPAC_CAS_NAME>
(4R)-3-[(2S,3S)-3-[[2-(4-chloro-2,6-dimethylphenoxy)-1-oxoethyl]amino]-2-hydroxy-1-oxo-4-phenylbutyl]-5,5-dimethyl-N-[(2-methylphenyl)methyl]-4-thiazolidinecarboxamide
> <PUBCHEM_IUPAC_NAME_MARKUP>
(4<I>R</I>)-3-[(2<I>S</I>,3<I>S</I>)-3-[[2-(4-chloro-2,6-dimethylphenoxy)acetyl]amino]-2-hydroxy-4-phenylbutanoyl]-5,5-dimethyl-<I>N</I>-[(2-methylphenyl)methyl]-1,3-thiazolidine-4-carboxamide
> <PUBCHEM_IUPAC_NAME>
(4R)-3-[(2S,3S)-3-[[2-(4-chloro-2,6-dimethylphenoxy)acetyl]amino]-2-hydroxy-4-phenylbutanoyl]-5,5-dimethyl-N-[(2-methylphenyl)methyl]-1,3-thiazolidine-4-carboxamide
> <PUBCHEM_IUPAC_SYSTEMATIC_NAME>
(4R)-3-[(2S,3S)-3-[2-(4-chloranyl-2,6-dimethyl-phenoxy)ethanoylamino]-2-oxidanyl-4-phenyl-butanoyl]-5,5-dimethyl-N-[(2-methylphenyl)methyl]-1,3-thiazolidine-4-carboxamide
> <PUBCHEM_IUPAC_TRADITIONAL_NAME>
(4R)-3-[(2S,3S)-3-[[2-(4-chloro-2,6-dimethyl-phenoxy)acetyl]amino]-2-hydroxy-4-phenyl-butanoyl]-5,5-dimethyl-N-(2-methylbenzyl)thiazolidine-4-carboxamide
> <PUBCHEM_IUPAC_INCHI>
InChI=1S/C34H40ClN3O5S/c1-21-11-9-10-14-25(21)18-36-32(41)31-34(4,5)44-20-38(31)33(42)29(40)27(17-24-12-7-6-8-13-24)37-28(39)19-43-30-22(2)15-26(35)16-23(30)3/h6-16,27,29,31,40H,17-20H2,1-5H3,(H,36,41)(H,37,39)/t27-,29-,31+/m0/s1
> <PUBCHEM_IUPAC_INCHIKEY>
IADOSOKPDNRQMR-DEDOGFMKSA-N
> <PUBCHEM_XLOGP3_AA>
5.9
> <PUBCHEM_EXACT_MASS>
637.2377203
> <PUBCHEM_MOLECULAR_FORMULA>
C34H40ClN3O5S
> <PUBCHEM_MOLECULAR_WEIGHT>
638.2
> <PUBCHEM_OPENEYE_CAN_SMILES>
CC1=CC=CC=C1CNC(=O)C2C(SCN2C(=O)C(C(CC3=CC=CC=C3)NC(=O)COC4=C(C=C(C=C4C)Cl)C)O)(C)C
> <PUBCHEM_OPENEYE_ISO_SMILES>
CC1=CC=CC=C1CNC(=O)[C@@H]2C(SCN2C(=O)[C@H]([C@H](CC3=CC=CC=C3)NC(=O)COC4=C(C=C(C=C4C)Cl)C)O)(C)C
> <PUBCHEM_CACTVS_TPSA>
133
> <PUBCHEM_MONOISOTOPIC_WEIGHT>
637.2377203
> <PUBCHEM_TOTAL_CHARGE>
0
> <PUBCHEM_HEAVY_ATOM_COUNT>
44
> <PUBCHEM_ATOM_DEF_STEREO_COUNT>
3
> <PUBCHEM_ATOM_UDEF_STEREO_COUNT>
0
> <PUBCHEM_BOND_DEF_STEREO_COUNT>
0
> <PUBCHEM_BOND_UDEF_STEREO_COUNT>
0
> <PUBCHEM_ISOTOPIC_ATOM_COUNT>
0
> <PUBCHEM_COMPONENT_COUNT>
1
> <PUBCHEM_CACTVS_TAUTO_COUNT>
-1
> <PUBCHEM_COORDINATE_TYPE>
1
5
255
> <PUBCHEM_BONDANNOTATIONS>
19  10  5
12  16  5
22  25  8
22  26  8
23  27  8
23  29  8
25  30  8
26  31  8
27  32  8
29  35  8
18  3  6
30  33  8
31  33  8
32  36  8
35  36  8
37  38  8
37  39  8
38  40  8
39  41  8
40  44  8
41  44  8
$$$$
