514736
  -OEChem-10302200282D
 90 94  0     1  0  0  0  0  0999 V2000
    7.2641    1.5600    0.0000 O   0  0  0  0  0  0  0  0  0  0  0  0
    7.2641    0.5600    0.0000 O   0  0  0  0  0  0  0  0  0  0  0  0
    5.5321   -1.4400    0.0000 O   0  0  0  0  0  0  0  0  0  0  0  0
    5.5321   -2.4400    0.0000 O   0  0  0  0  0  0  0  0  0  0  0  0
    8.1301   -5.9400    0.0000 O   0  0  0  0  0  0  0  0  0  0  0  0
    5.5321    0.5600    0.0000 N   0  0  0  0  0  0  0  0  0  0  0  0
    6.3981    3.0600    0.0000 N   0  0  0  0  0  0  0  0  0  0  0  0
    7.2641   -2.4400    0.0000 N   0  0  0  0  0  0  0  0  0  0  0  0
    3.8000    1.5600    0.0000 C   0  0  2  0  0  0  0  0  0  0  0  0
    3.8000    0.5600    0.0000 C   0  0  2  0  0  0  0  0  0  0  0  0
    4.6660    2.0600    0.0000 C   0  0  0  0  0  0  0  0  0  0  0  0
    2.9061    2.0947    0.0000 C   0  0  0  0  0  0  0  0  0  0  0  0
    2.9061    0.0253    0.0000 C   0  0  0  0  0  0  0  0  0  0  0  0
    4.6660    0.0600    0.0000 C   0  0  0  0  0  0  0  0  0  0  0  0
    5.5321    1.5600    0.0000 C   0  0  1  0  0  0  0  0  0  0  0  0
    2.0000    1.5808    0.0000 C   0  0  0  0  0  0  0  0  0  0  0  0
    2.0000    0.5392    0.0000 C   0  0  0  0  0  0  0  0  0  0  0  0
    6.3981    2.0600    0.0000 C   0  0  0  0  0  0  0  0  0  0  0  0
    6.3981    0.0600    0.0000 C   0  0  0  0  0  0  0  0  0  0  0  0
    6.3981   -0.9400    0.0000 C   0  0  2  0  0  0  0  0  0  0  0  0
    7.2641   -1.4400    0.0000 C   0  0  2  0  0  0  0  0  0  0  0  0
    7.2641    3.5600    0.0000 C   0  0  0  0  0  0  0  0  0  0  0  0
    8.1301   -0.9400    0.0000 C   0  0  0  0  0  0  0  0  0  0  0  0
    7.2641    4.5600    0.0000 C   0  0  0  0  0  0  0  0  0  0  0  0
    8.9962   -1.4400    0.0000 C   0  0  0  0  0  0  0  0  0  0  0  0
    6.3981   -2.9400    0.0000 C   0  0  0  0  0  0  0  0  0  0  0  0
    6.3981    5.0600    0.0000 C   0  0  0  0  0  0  0  0  0  0  0  0
    8.1301    5.0600    0.0000 C   0  0  0  0  0  0  0  0  0  0  0  0
    8.9962   -2.4400    0.0000 C   0  0  0  0  0  0  0  0  0  0  0  0
    9.8622   -0.9400    0.0000 C   0  0  0  0  0  0  0  0  0  0  0  0
    6.3981   -3.9400    0.0000 C   0  0  0  0  0  0  0  0  0  0  0  0
    6.3981    6.0600    0.0000 C   0  0  0  0  0  0  0  0  0  0  0  0
    8.1301    6.0600    0.0000 C   0  0  0  0  0  0  0  0  0  0  0  0
    5.5321    4.5600    0.0000 C   0  0  0  0  0  0  0  0  0  0  0  0
    8.9962    4.5600    0.0000 C   0  0  0  0  0  0  0  0  0  0  0  0
    9.8622   -2.9400    0.0000 C   0  0  0  0  0  0  0  0  0  0  0  0
   10.7282   -1.4400    0.0000 C   0  0  0  0  0  0  0  0  0  0  0  0
    7.2641    6.5600    0.0000 C   0  0  0  0  0  0  0  0  0  0  0  0
    7.2641   -4.4400    0.0000 C   0  0  0  0  0  0  0  0  0  0  0  0
   10.7282   -2.4400    0.0000 C   0  0  0  0  0  0  0  0  0  0  0  0
    5.5321   -4.4400    0.0000 C   0  0  0  0  0  0  0  0  0  0  0  0
    7.2641   -5.4400    0.0000 C   0  0  0  0  0  0  0  0  0  0  0  0
    8.1301   -3.9400    0.0000 C   0  0  0  0  0  0  0  0  0  0  0  0
    5.5321   -5.4400    0.0000 C   0  0  0  0  0  0  0  0  0  0  0  0
    6.3981   -5.9400    0.0000 C   0  0  0  0  0  0  0  0  0  0  0  0
    3.8066    2.4100    0.0000 H   0  0  0  0  0  0  0  0  0  0  0  0
    3.8066   -0.2900    0.0000 H   0  0  0  0  0  0  0  0  0  0  0  0
    5.0646    2.5349    0.0000 H   0  0  0  0  0  0  0  0  0  0  0  0
    4.2675    2.5349    0.0000 H   0  0  0  0  0  0  0  0  0  0  0  0
    3.3107    2.5644    0.0000 H   0  0  0  0  0  0  0  0  0  0  0  0
    2.5124    2.5737    0.0000 H   0  0  0  0  0  0  0  0  0  0  0  0
    2.5124   -0.4537    0.0000 H   0  0  0  0  0  0  0  0  0  0  0  0
    3.3107   -0.4444    0.0000 H   0  0  0  0  0  0  0  0  0  0  0  0
    4.2675   -0.4149    0.0000 H   0  0  0  0  0  0  0  0  0  0  0  0
    5.0646   -0.4149    0.0000 H   0  0  0  0  0  0  0  0  0  0  0  0
    6.0690    1.2500    0.0000 H   0  0  0  0  0  0  0  0  0  0  0  0
    1.7909    2.1645    0.0000 H   0  0  0  0  0  0  0  0  0  0  0  0
    1.3891    1.4747    0.0000 H   0  0  0  0  0  0  0  0  0  0  0  0
    1.3891    0.6453    0.0000 H   0  0  0  0  0  0  0  0  0  0  0  0
    1.7909   -0.0445    0.0000 H   0  0  0  0  0  0  0  0  0  0  0  0
    5.8612   -0.6300    0.0000 H   0  0  0  0  0  0  0  0  0  0  0  0
    5.8612    3.3700    0.0000 H   0  0  0  0  0  0  0  0  0  0  0  0
    7.8010   -1.7500    0.0000 H   0  0  0  0  0  0  0  0  0  0  0  0
    7.4762    2.9774    0.0000 H   0  0  0  0  0  0  0  0  0  0  0  0
    7.8747    3.6677    0.0000 H   0  0  0  0  0  0  0  0  0  0  0  0
    8.5287   -0.4651    0.0000 H   0  0  0  0  0  0  0  0  0  0  0  0
    7.7316   -0.4651    0.0000 H   0  0  0  0  0  0  0  0  0  0  0  0
    4.9951   -1.1300    0.0000 H   0  0  0  0  0  0  0  0  0  0  0  0
    7.8010   -2.7500    0.0000 H   0  0  0  0  0  0  0  0  0  0  0  0
    8.4592   -2.7500    0.0000 H   0  0  0  0  0  0  0  0  0  0  0  0
    9.8622   -0.3200    0.0000 H   0  0  0  0  0  0  0  0  0  0  0  0
    5.8612    6.3700    0.0000 H   0  0  0  0  0  0  0  0  0  0  0  0
    8.6671    6.3700    0.0000 H   0  0  0  0  0  0  0  0  0  0  0  0
    5.2221    5.0969    0.0000 H   0  0  0  0  0  0  0  0  0  0  0  0
    4.9951    4.2500    0.0000 H   0  0  0  0  0  0  0  0  0  0  0  0
    5.8421    4.0231    0.0000 H   0  0  0  0  0  0  0  0  0  0  0  0
    8.6862    4.0231    0.0000 H   0  0  0  0  0  0  0  0  0  0  0  0
    9.5331    4.2500    0.0000 H   0  0  0  0  0  0  0  0  0  0  0  0
    9.3062    5.0969    0.0000 H   0  0  0  0  0  0  0  0  0  0  0  0
    9.8622   -3.5600    0.0000 H   0  0  0  0  0  0  0  0  0  0  0  0
   11.2651   -1.1300    0.0000 H   0  0  0  0  0  0  0  0  0  0  0  0
    7.2641    7.1800    0.0000 H   0  0  0  0  0  0  0  0  0  0  0  0
   11.2651   -2.7500    0.0000 H   0  0  0  0  0  0  0  0  0  0  0  0
    4.9951   -4.1300    0.0000 H   0  0  0  0  0  0  0  0  0  0  0  0
    8.4401   -4.4769    0.0000 H   0  0  0  0  0  0  0  0  0  0  0  0
    8.6671   -3.6300    0.0000 H   0  0  0  0  0  0  0  0  0  0  0  0
    7.8201   -3.4031    0.0000 H   0  0  0  0  0  0  0  0  0  0  0  0
    4.9951   -5.7500    0.0000 H   0  0  0  0  0  0  0  0  0  0  0  0
    6.3981   -6.5600    0.0000 H   0  0  0  0  0  0  0  0  0  0  0  0
    8.1301   -6.5600    0.0000 H   0  0  0  0  0  0  0  0  0  0  0  0
  1 18  2  0  0  0  0
  2 19  2  0  0  0  0
 20  3  1  6  0  0  0
  3 68  1  0  0  0  0
  4 26  2  0  0  0  0
  5 42  1  0  0  0  0
  5 90  1  0  0  0  0
  6 14  1  0  0  0  0
  6 15  1  0  0  0  0
  6 19  1  0  0  0  0
  7 18  1  0  0  0  0
  7 22  1  0  0  0  0
  7 62  1  0  0  0  0
 21  8  1  6  0  0  0
  8 26  1  0  0  0  0
  8 69  1  0  0  0  0
  9 10  1  0  0  0  0
  9 11  1  0  0  0  0
  9 12  1  0  0  0  0
  9 46  1  6  0  0  0
 10 13  1  0  0  0  0
 10 14  1  0  0  0  0
 10 47  1  6  0  0  0
 11 15  1  0  0  0  0
 11 48  1  0  0  0  0
 11 49  1  0  0  0  0
 12 16  1  0  0  0  0
 12 50  1  0  0  0  0
 12 51  1  0  0  0  0
 13 17  1  0  0  0  0
 13 52  1  0  0  0  0
 13 53  1  0  0  0  0
 14 54  1  0  0  0  0
 14 55  1  0  0  0  0
 15 18  1  1  0  0  0
 15 56  1  0  0  0  0
 16 17  1  0  0  0  0
 16 57  1  0  0  0  0
 16 58  1  0  0  0  0
 17 59  1  0  0  0  0
 17 60  1  0  0  0  0
 19 20  1  0  0  0  0
 20 21  1  0  0  0  0
 20 61  1  0  0  0  0
 21 23  1  0  0  0  0
 21 63  1  0  0  0  0
 22 24  1  0  0  0  0
 22 64  1  0  0  0  0
 22 65  1  0  0  0  0
 23 25  1  0  0  0  0
 23 66  1  0  0  0  0
 23 67  1  0  0  0  0
 24 27  2  0  0  0  0
 24 28  1  0  0  0  0
 25 29  2  0  0  0  0
 25 30  1  0  0  0  0
 26 31  1  0  0  0  0
 27 32  1  0  0  0  0
 27 34  1  0  0  0  0
 28 33  2  0  0  0  0
 28 35  1  0  0  0  0
 29 36  1  0  0  0  0
 29 70  1  0  0  0  0
 30 37  2  0  0  0  0
 30 71  1  0  0  0  0
 31 39  2  0  0  0  0
 31 41  1  0  0  0  0
 32 38  2  0  0  0  0
 32 72  1  0  0  0  0
 33 38  1  0  0  0  0
 33 73  1  0  0  0  0
 34 74  1  0  0  0  0
 34 75  1  0  0  0  0
 34 76  1  0  0  0  0
 35 77  1  0  0  0  0
 35 78  1  0  0  0  0
 35 79  1  0  0  0  0
 36 40  2  0  0  0  0
 36 80  1  0  0  0  0
 37 40  1  0  0  0  0
 37 81  1  0  0  0  0
 38 82  1  0  0  0  0
 39 42  1  0  0  0  0
 39 43  1  0  0  0  0
 40 83  1  0  0  0  0
 41 44  2  0  0  0  0
 41 84  1  0  0  0  0
 42 45  2  0  0  0  0
 43 85  1  0  0  0  0
 43 86  1  0  0  0  0
 43 87  1  0  0  0  0
 44 45  1  0  0  0  0
 44 88  1  0  0  0  0
 45 89  1  0  0  0  0
M  END
> <PUBCHEM_COMPOUND_CID>
514736
> <PUBCHEM_COMPOUND_CANONICALIZED>
1
> <PUBCHEM_CACTVS_COMPLEXITY>
991
> <PUBCHEM_CACTVS_HBOND_ACCEPTOR>
5
> <PUBCHEM_CACTVS_HBOND_DONOR>
4
> <PUBCHEM_CACTVS_ROTATABLE_BOND>
9
> <PUBCHEM_CACTVS_SUBSKEYS>
AAADcfB/OAAAAAAAAAAAAAAAAAAAAAAAAAA8YMGCAAAAAACxUAAAHgAQCAAADTzhmAYyBoPAAgCIAiFSEAKCAAAkIAAIiIHODMgKdjqC1TOUcQhk1hGYmYe6yPCOgAADAAAYAAAAAAYAADAAAAAAAAAAAA==
> <PUBCHEM_IUPAC_OPENEYE_NAME>
(3S,4aS,8aS)-N-[(2,6-dimethylphenyl)methyl]-2-[(2S,3S)-2-hydroxy-3-[(3-hydroxy-2-methyl-benzoyl)amino]-4-phenyl-butanoyl]-3,4,4a,5,6,7,8,8a-octahydro-1H-isoquinoline-3-carboxamide
> <PUBCHEM_IUPAC_CAS_NAME>
(3S,4aS,8aS)-N-[(2,6-dimethylphenyl)methyl]-2-[(2S,3S)-2-hydroxy-3-[[(3-hydroxy-2-methylphenyl)-oxomethyl]amino]-1-oxo-4-phenylbutyl]-3,4,4a,5,6,7,8,8a-octahydro-1H-isoquinoline-3-carboxamide
> <PUBCHEM_IUPAC_NAME_MARKUP>
(3<I>S</I>,4<I>a</I><I>S</I>,8<I>a</I><I>S</I>)-<I>N</I>-[(2,6-dimethylphenyl)methyl]-2-[(2<I>S</I>,3<I>S</I>)-2-hydroxy-3-[(3-hydroxy-2-methylbenzoyl)amino]-4-phenylbutanoyl]-3,4,4<I>a</I>,5,6,7,8,8<I>a</I>-octahydro-1<I>H</I>-isoquinoline-3-carboxamide
> <PUBCHEM_IUPAC_NAME>
(3S,4aS,8aS)-N-[(2,6-dimethylphenyl)methyl]-2-[(2S,3S)-2-hydroxy-3-[(3-hydroxy-2-methylbenzoyl)amino]-4-phenylbutanoyl]-3,4,4a,5,6,7,8,8a-octahydro-1H-isoquinoline-3-carboxamide
> <PUBCHEM_IUPAC_SYSTEMATIC_NAME>
(3S,4aS,8aS)-N-[(2,6-dimethylphenyl)methyl]-2-[(2S,3S)-3-[(2-methyl-3-oxidanyl-phenyl)carbonylamino]-2-oxidanyl-4-phenyl-butanoyl]-3,4,4a,5,6,7,8,8a-octahydro-1H-isoquinoline-3-carboxamide
> <PUBCHEM_IUPAC_TRADITIONAL_NAME>
(3S,4aS,8aS)-N-(2,6-dimethylbenzyl)-2-[(2S,3S)-2-hydroxy-3-[(3-hydroxy-2-methyl-benzoyl)amino]-4-phenyl-butanoyl]-3,4,4a,5,6,7,8,8a-octahydro-1H-isoquinoline-3-carboxamide
> <PUBCHEM_IUPAC_INCHI>
InChI=1S/C37H45N3O5/c1-23-11-9-12-24(2)30(23)21-38-36(44)32-20-27-15-7-8-16-28(27)22-40(32)37(45)34(42)31(19-26-13-5-4-6-14-26)39-35(43)29-17-10-18-33(41)25(29)3/h4-6,9-14,17-18,27-28,31-32,34,41-42H,7-8,15-16,19-22H2,1-3H3,(H,38,44)(H,39,43)/t27-,28+,31-,32-,34-/m0/s1
> <PUBCHEM_IUPAC_INCHIKEY>
RKMYQVKAOWOBEP-LNXXJDRTSA-N
> <PUBCHEM_XLOGP3_AA>
6.1
> <PUBCHEM_EXACT_MASS>
611.33592154
> <PUBCHEM_MOLECULAR_FORMULA>
C37H45N3O5
> <PUBCHEM_MOLECULAR_WEIGHT>
611.8
> <PUBCHEM_OPENEYE_CAN_SMILES>
CC1=C(C(=CC=C1)C)CNC(=O)C2CC3CCCCC3CN2C(=O)C(C(CC4=CC=CC=C4)NC(=O)C5=C(C(=CC=C5)O)C)O
> <PUBCHEM_OPENEYE_ISO_SMILES>
CC1=C(C(=CC=C1)C)CNC(=O)[C@@H]2C[C@@H]3CCCC[C@@H]3CN2C(=O)[C@H]([C@H](CC4=CC=CC=C4)NC(=O)C5=C(C(=CC=C5)O)C)O
> <PUBCHEM_CACTVS_TPSA>
119
> <PUBCHEM_MONOISOTOPIC_WEIGHT>
611.33592154
> <PUBCHEM_TOTAL_CHARGE>
0
> <PUBCHEM_HEAVY_ATOM_COUNT>
45
> <PUBCHEM_ATOM_DEF_STEREO_COUNT>
5
> <PUBCHEM_ATOM_UDEF_STEREO_COUNT>
0
> <PUBCHEM_BOND_DEF_STEREO_COUNT>
0
> <PUBCHEM_BOND_UDEF_STEREO_COUNT>
0
> <PUBCHEM_ISOTOPIC_ATOM_COUNT>
0
> <PUBCHEM_COMPONENT_COUNT>
1
> <PUBCHEM_CACTVS_TAUTO_COUNT>
-1
> <PUBCHEM_COORDINATE_TYPE>
1
5
255
> <PUBCHEM_BONDANNOTATIONS>
10  47  6
15  18  5
24  27  8
24  28  8
25  29  8
25  30  8
27  32  8
28  33  8
29  36  8
20  3  6
30  37  8
31  39  8
31  41  8
32  38  8
33  38  8
36  40  8
37  40  8
39  42  8
41  44  8
42  45  8
44  45  8
21  8  6
9  46  6
$$$$
