514748
  -OEChem-10302200282D
 84 86  0     1  0  0  0  0  0999 V2000
    6.5468    3.3539    0.0000 S   0  0  0  0  0  0  0  0  0  0  0  0
    8.2798    1.1267    0.0000 O   0  0  0  0  0  0  0  0  0  0  0  0
    3.7320    2.1515    0.0000 O   0  0  0  0  0  0  0  0  0  0  0  0
    5.8424    0.0975    0.0000 O   0  0  0  0  0  0  0  0  0  0  0  0
    9.2308    0.8177    0.0000 O   0  0  0  0  0  0  0  0  0  0  0  0
   12.8271    0.5598    0.0000 O   0  0  0  0  0  0  0  0  0  0  0  0
   12.2919   -1.0875    0.0000 O   0  0  0  0  0  0  0  0  0  0  0  0
    6.3776    1.7447    0.0000 N   0  0  0  0  0  0  0  0  0  0  0  0
    4.5981    0.6515    0.0000 N   0  0  0  0  0  0  0  0  0  0  0  0
    8.6956   -0.8296    0.0000 N   0  0  0  0  0  0  0  0  0  0  0  0
   11.1329    0.1997    0.0000 N   0  0  0  0  0  0  0  0  0  0  0  0
    5.5686    3.1460    0.0000 C   0  0  0  0  0  0  0  0  0  0  0  0
    5.4641    2.1515    0.0000 C   0  0  1  0  0  0  0  0  0  0  0  0
    7.0468    2.4879    0.0000 C   0  0  0  0  0  0  0  0  0  0  0  0
    5.3607    4.1242    0.0000 C   0  0  0  0  0  0  0  0  0  0  0  0
    4.5741    3.2505    0.0000 C   0  0  0  0  0  0  0  0  0  0  0  0
    4.5981    1.6515    0.0000 C   0  0  0  0  0  0  0  0  0  0  0  0
    6.5856    0.7666    0.0000 C   0  0  0  0  0  0  0  0  0  0  0  0
    7.5366    0.4576    0.0000 C   0  0  2  0  0  0  0  0  0  0  0  0
    7.7445   -0.5206    0.0000 C   0  0  2  0  0  0  0  0  0  0  0  0
    7.0014   -1.1897    0.0000 C   0  0  0  0  0  0  0  0  0  0  0  0
    3.7320    0.1515    0.0000 C   0  0  0  0  0  0  0  0  0  0  0  0
    7.2093   -2.1678    0.0000 C   0  0  0  0  0  0  0  0  0  0  0  0
    3.7320   -0.8485    0.0000 C   0  0  0  0  0  0  0  0  0  0  0  0
    9.4387   -0.1605    0.0000 C   0  0  0  0  0  0  0  0  0  0  0  0
    8.1604   -2.4769    0.0000 C   0  0  0  0  0  0  0  0  0  0  0  0
    6.4662   -2.8370    0.0000 C   0  0  0  0  0  0  0  0  0  0  0  0
   10.3898   -0.4695    0.0000 C   0  0  0  0  0  0  0  0  0  0  0  0
    2.8660   -1.3485    0.0000 C   0  0  0  0  0  0  0  0  0  0  0  0
    4.5981   -1.3485    0.0000 C   0  0  0  0  0  0  0  0  0  0  0  0
    8.3683   -3.4550    0.0000 C   0  0  0  0  0  0  0  0  0  0  0  0
    6.6741   -3.8151    0.0000 C   0  0  0  0  0  0  0  0  0  0  0  0
    2.8660   -2.3485    0.0000 C   0  0  0  0  0  0  0  0  0  0  0  0
    7.6251   -4.1242    0.0000 C   0  0  0  0  0  0  0  0  0  0  0  0
    2.0000   -0.8485    0.0000 C   0  0  0  0  0  0  0  0  0  0  0  0
    4.5981   -2.3485    0.0000 C   0  0  0  0  0  0  0  0  0  0  0  0
    3.7320   -2.8485    0.0000 C   0  0  0  0  0  0  0  0  0  0  0  0
   13.7782    0.2508    0.0000 C   0  0  0  0  0  0  0  0  0  0  0  0
   12.0840   -0.1094    0.0000 C   0  0  0  0  0  0  0  0  0  0  0  0
   14.7292   -0.0583    0.0000 C   0  0  0  0  0  0  0  0  0  0  0  0
   14.0872    1.2018    0.0000 C   0  0  0  0  0  0  0  0  0  0  0  0
   13.4692   -0.7003    0.0000 C   0  0  0  0  0  0  0  0  0  0  0  0
    5.4966    1.5323    0.0000 H   0  0  0  0  0  0  0  0  0  0  0  0
    7.4616    2.0271    0.0000 H   0  0  0  0  0  0  0  0  0  0  0  0
    7.5484    2.8523    0.0000 H   0  0  0  0  0  0  0  0  0  0  0  0
    5.9672    4.2530    0.0000 H   0  0  0  0  0  0  0  0  0  0  0  0
    5.2318    4.7306    0.0000 H   0  0  0  0  0  0  0  0  0  0  0  0
    4.7543    3.9952    0.0000 H   0  0  0  0  0  0  0  0  0  0  0  0
    4.6389    3.8671    0.0000 H   0  0  0  0  0  0  0  0  0  0  0  0
    3.9575    3.3153    0.0000 H   0  0  0  0  0  0  0  0  0  0  0  0
    4.5093    2.6339    0.0000 H   0  0  0  0  0  0  0  0  0  0  0  0
    7.4077    1.0640    0.0000 H   0  0  0  0  0  0  0  0  0  0  0  0
    8.2053   -0.1057    0.0000 H   0  0  0  0  0  0  0  0  0  0  0  0
    5.1350    0.3415    0.0000 H   0  0  0  0  0  0  0  0  0  0  0  0
    6.6728   -0.6639    0.0000 H   0  0  0  0  0  0  0  0  0  0  0  0
    6.4265   -1.4220    0.0000 H   0  0  0  0  0  0  0  0  0  0  0  0
    8.8245   -1.4360    0.0000 H   0  0  0  0  0  0  0  0  0  0  0  0
    3.5200    0.7341    0.0000 H   0  0  0  0  0  0  0  0  0  0  0  0
    3.1215    0.0438    0.0000 H   0  0  0  0  0  0  0  0  0  0  0  0
    8.1509    1.7332    0.0000 H   0  0  0  0  0  0  0  0  0  0  0  0
    8.6211   -2.0620    0.0000 H   0  0  0  0  0  0  0  0  0  0  0  0
    5.8765   -2.6454    0.0000 H   0  0  0  0  0  0  0  0  0  0  0  0
   10.0987   -1.0169    0.0000 H   0  0  0  0  0  0  0  0  0  0  0  0
   10.8784   -0.8512    0.0000 H   0  0  0  0  0  0  0  0  0  0  0  0
    5.1350   -1.0385    0.0000 H   0  0  0  0  0  0  0  0  0  0  0  0
    8.9579   -3.6466    0.0000 H   0  0  0  0  0  0  0  0  0  0  0  0
    6.2133   -4.2300    0.0000 H   0  0  0  0  0  0  0  0  0  0  0  0
    2.3291   -2.6585    0.0000 H   0  0  0  0  0  0  0  0  0  0  0  0
    7.7540   -4.7306    0.0000 H   0  0  0  0  0  0  0  0  0  0  0  0
    2.3100   -0.3116    0.0000 H   0  0  0  0  0  0  0  0  0  0  0  0
    1.4631   -0.5385    0.0000 H   0  0  0  0  0  0  0  0  0  0  0  0
    1.6900   -1.3855    0.0000 H   0  0  0  0  0  0  0  0  0  0  0  0
   11.0040    0.8061    0.0000 H   0  0  0  0  0  0  0  0  0  0  0  0
    5.1350   -2.6585    0.0000 H   0  0  0  0  0  0  0  0  0  0  0  0
    3.7320   -3.4685    0.0000 H   0  0  0  0  0  0  0  0  0  0  0  0
   14.5377   -0.6479    0.0000 H   0  0  0  0  0  0  0  0  0  0  0  0
   15.3189   -0.2499    0.0000 H   0  0  0  0  0  0  0  0  0  0  0  0
   14.9208    0.5314    0.0000 H   0  0  0  0  0  0  0  0  0  0  0  0
   14.6769    1.0102    0.0000 H   0  0  0  0  0  0  0  0  0  0  0  0
   14.2788    1.7915    0.0000 H   0  0  0  0  0  0  0  0  0  0  0  0
   13.4976    1.3934    0.0000 H   0  0  0  0  0  0  0  0  0  0  0  0
   12.8795   -0.5087    0.0000 H   0  0  0  0  0  0  0  0  0  0  0  0
   13.2776   -1.2900    0.0000 H   0  0  0  0  0  0  0  0  0  0  0  0
   14.0588   -0.8919    0.0000 H   0  0  0  0  0  0  0  0  0  0  0  0
  1 12  1  0  0  0  0
  1 14  1  0  0  0  0
 19  2  1  1  0  0  0
  2 60  1  0  0  0  0
  3 17  2  0  0  0  0
  4 18  2  0  0  0  0
  5 25  2  0  0  0  0
  6 38  1  0  0  0  0
  6 39  1  0  0  0  0
  7 39  2  0  0  0  0
  8 13  1  0  0  0  0
  8 14  1  0  0  0  0
  8 18  1  0  0  0  0
  9 17  1  0  0  0  0
  9 22  1  0  0  0  0
  9 54  1  0  0  0  0
 20 10  1  1  0  0  0
 10 25  1  0  0  0  0
 10 57  1  0  0  0  0
 11 28  1  0  0  0  0
 11 39  1  0  0  0  0
 11 73  1  0  0  0  0
 12 13  1  0  0  0  0
 12 15  1  0  0  0  0
 12 16  1  0  0  0  0
 13 17  1  6  0  0  0
 13 43  1  0  0  0  0
 14 44  1  0  0  0  0
 14 45  1  0  0  0  0
 15 46  1  0  0  0  0
 15 47  1  0  0  0  0
 15 48  1  0  0  0  0
 16 49  1  0  0  0  0
 16 50  1  0  0  0  0
 16 51  1  0  0  0  0
 18 19  1  0  0  0  0
 19 20  1  0  0  0  0
 19 52  1  0  0  0  0
 20 21  1  0  0  0  0
 20 53  1  0  0  0  0
 21 23  1  0  0  0  0
 21 55  1  0  0  0  0
 21 56  1  0  0  0  0
 22 24  1  0  0  0  0
 22 58  1  0  0  0  0
 22 59  1  0  0  0  0
 23 26  2  0  0  0  0
 23 27  1  0  0  0  0
 24 29  1  0  0  0  0
 24 30  2  0  0  0  0
 25 28  1  0  0  0  0
 26 31  1  0  0  0  0
 26 61  1  0  0  0  0
 27 32  2  0  0  0  0
 27 62  1  0  0  0  0
 28 63  1  0  0  0  0
 28 64  1  0  0  0  0
 29 33  2  0  0  0  0
 29 35  1  0  0  0  0
 30 36  1  0  0  0  0
 30 65  1  0  0  0  0
 31 34  2  0  0  0  0
 31 66  1  0  0  0  0
 32 34  1  0  0  0  0
 32 67  1  0  0  0  0
 33 37  1  0  0  0  0
 33 68  1  0  0  0  0
 34 69  1  0  0  0  0
 35 70  1  0  0  0  0
 35 71  1  0  0  0  0
 35 72  1  0  0  0  0
 36 37  2  0  0  0  0
 36 74  1  0  0  0  0
 37 75  1  0  0  0  0
 38 40  1  0  0  0  0
 38 41  1  0  0  0  0
 38 42  1  0  0  0  0
 40 76  1  0  0  0  0
 40 77  1  0  0  0  0
 40 78  1  0  0  0  0
 41 79  1  0  0  0  0
 41 80  1  0  0  0  0
 41 81  1  0  0  0  0
 42 82  1  0  0  0  0
 42 83  1  0  0  0  0
 42 84  1  0  0  0  0
M  END
> <PUBCHEM_COMPOUND_CID>
514748
> <PUBCHEM_COMPOUND_CANONICALIZED>
1
> <PUBCHEM_CACTVS_COMPLEXITY>
948
> <PUBCHEM_CACTVS_HBOND_ACCEPTOR>
7
> <PUBCHEM_CACTVS_HBOND_DONOR>
4
> <PUBCHEM_CACTVS_ROTATABLE_BOND>
12
> <PUBCHEM_CACTVS_SUBSKEYS>
AAADcfB7uABAAAAAAAAAAAAAAAAAAWAAAAAwYAAAAAAAAAABQAAAHgQQCAAADHzh2AayCIPABgiIAiFSGAKCAABgABAIiIHIBIkKcDqg0TGcYAhklgCYiAeYyKCOgAAAAAAQAAAAAAAAACAAAAAAAAAAAA==
> <PUBCHEM_IUPAC_OPENEYE_NAME>
tert-butyl N-[2-[[(1S,2S)-1-benzyl-3-[(4R)-5,5-dimethyl-4-(o-tolylmethylcarbamoyl)thiazolidin-3-yl]-2-hydroxy-3-oxo-propyl]amino]-2-oxo-ethyl]carbamate
> <PUBCHEM_IUPAC_CAS_NAME>
N-[2-[[(2S,3S)-4-[(4R)-5,5-dimethyl-4-[[(2-methylphenyl)methylamino]-oxomethyl]-3-thiazolidinyl]-3-hydroxy-4-oxo-1-phenylbutan-2-yl]amino]-2-oxoethyl]carbamic acid tert-butyl ester
> <PUBCHEM_IUPAC_NAME_MARKUP>
<I>tert</I>-butyl <I>N</I>-[2-[[(2<I>S</I>,3<I>S</I>)-4-[(4<I>R</I>)-5,5-dimethyl-4-[(2-methylphenyl)methylcarbamoyl]-1,3-thiazolidin-3-yl]-3-hydroxy-4-oxo-1-phenylbutan-2-yl]amino]-2-oxoethyl]carbamate
> <PUBCHEM_IUPAC_NAME>
tert-butyl N-[2-[[(2S,3S)-4-[(4R)-5,5-dimethyl-4-[(2-methylphenyl)methylcarbamoyl]-1,3-thiazolidin-3-yl]-3-hydroxy-4-oxo-1-phenylbutan-2-yl]amino]-2-oxoethyl]carbamate
> <PUBCHEM_IUPAC_SYSTEMATIC_NAME>
tert-butyl N-[2-[[(2S,3S)-4-[(4R)-5,5-dimethyl-4-[(2-methylphenyl)methylcarbamoyl]-1,3-thiazolidin-3-yl]-3-oxidanyl-4-oxidanylidene-1-phenyl-butan-2-yl]amino]-2-oxidanylidene-ethyl]carbamate
> <PUBCHEM_IUPAC_TRADITIONAL_NAME>
N-[2-[[(1S,2S)-1-benzyl-3-[(4R)-5,5-dimethyl-4-[(2-methylbenzyl)carbamoyl]thiazolidin-3-yl]-2-hydroxy-3-keto-propyl]amino]-2-keto-ethyl]carbamic acid tert-butyl ester
> <PUBCHEM_IUPAC_INCHI>
InChI=1S/C31H42N4O6S/c1-20-12-10-11-15-22(20)17-32-27(38)26-31(5,6)42-19-35(26)28(39)25(37)23(16-21-13-8-7-9-14-21)34-24(36)18-33-29(40)41-30(2,3)4/h7-15,23,25-26,37H,16-19H2,1-6H3,(H,32,38)(H,33,40)(H,34,36)/t23-,25-,26+/m0/s1
> <PUBCHEM_IUPAC_INCHIKEY>
HZNMKDZKJMFKRG-AYRHNUGRSA-N
> <PUBCHEM_XLOGP3_AA>
3.6
> <PUBCHEM_EXACT_MASS>
598.28250625
> <PUBCHEM_MOLECULAR_FORMULA>
C31H42N4O6S
> <PUBCHEM_MOLECULAR_WEIGHT>
598.8
> <PUBCHEM_OPENEYE_CAN_SMILES>
CC1=CC=CC=C1CNC(=O)C2C(SCN2C(=O)C(C(CC3=CC=CC=C3)NC(=O)CNC(=O)OC(C)(C)C)O)(C)C
> <PUBCHEM_OPENEYE_ISO_SMILES>
CC1=CC=CC=C1CNC(=O)[C@@H]2C(SCN2C(=O)[C@H]([C@H](CC3=CC=CC=C3)NC(=O)CNC(=O)OC(C)(C)C)O)(C)C
> <PUBCHEM_CACTVS_TPSA>
162
> <PUBCHEM_MONOISOTOPIC_WEIGHT>
598.28250625
> <PUBCHEM_TOTAL_CHARGE>
0
> <PUBCHEM_HEAVY_ATOM_COUNT>
42
> <PUBCHEM_ATOM_DEF_STEREO_COUNT>
3
> <PUBCHEM_ATOM_UDEF_STEREO_COUNT>
0
> <PUBCHEM_BOND_DEF_STEREO_COUNT>
0
> <PUBCHEM_BOND_UDEF_STEREO_COUNT>
0
> <PUBCHEM_ISOTOPIC_ATOM_COUNT>
0
> <PUBCHEM_COMPONENT_COUNT>
1
> <PUBCHEM_CACTVS_TAUTO_COUNT>
-1
> <PUBCHEM_COORDINATE_TYPE>
1
5
255
> <PUBCHEM_BONDANNOTATIONS>
20  10  5
13  17  6
19  2  5
23  26  8
23  27  8
24  29  8
24  30  8
26  31  8
27  32  8
29  33  8
30  36  8
31  34  8
32  34  8
33  37  8
36  37  8
$$$$
