514750
  -OEChem-10302200282D
 63 65  0     1  0  0  0  0  0999 V2000
    7.9013    3.2694    0.0000 S   0  0  0  0  0  0  0  0  0  0  0  0
   11.7314   -0.7694    0.0000 S   0  0  0  0  0  0  0  0  0  0  0  0
    9.1334    0.7306    0.0000 O   0  0  0  0  0  0  0  0  0  0  0  0
    6.5353    0.2306    0.0000 O   0  0  0  0  0  0  0  0  0  0  0  0
    5.4333    1.0312    0.0000 O   0  0  0  0  0  0  0  0  0  0  0  0
    9.9994    0.2306    0.0000 O   0  0  0  0  0  0  0  0  0  0  0  0
    7.4013    1.7306    0.0000 N   0  0  0  0  0  0  0  0  0  0  0  0
    4.8981    2.6785    0.0000 N   0  0  0  0  0  0  0  0  0  0  0  0
    9.1334   -1.2694    0.0000 N   0  0  0  0  0  0  0  0  0  0  0  0
   13.5110   -0.8627    0.0000 N   0  0  0  0  0  0  0  0  0  0  0  0
   12.7020   -2.2639    0.0000 N   0  0  0  0  0  0  0  0  0  0  0  0
   14.1801   -1.6058    0.0000 N   0  0  0  0  0  0  0  0  0  0  0  0
    6.9013    3.2694    0.0000 C   0  0  0  0  0  0  0  0  0  0  0  0
    6.5923    2.3184    0.0000 C   0  0  1  0  0  0  0  0  0  0  0  0
    8.2103    2.3184    0.0000 C   0  0  0  0  0  0  0  0  0  0  0  0
    6.9013    4.2694    0.0000 C   0  0  0  0  0  0  0  0  0  0  0  0
    5.9503    3.5784    0.0000 C   0  0  0  0  0  0  0  0  0  0  0  0
    7.4013    0.7306    0.0000 C   0  0  0  0  0  0  0  0  0  0  0  0
    5.6412    2.0094    0.0000 C   0  0  0  0  0  0  0  0  0  0  0  0
    8.2673    0.2306    0.0000 C   0  0  2  0  0  0  0  0  0  0  0  0
    8.2673   -0.7694    0.0000 C   0  0  2  0  0  0  0  0  0  0  0  0
    7.4013   -1.2694    0.0000 C   0  0  0  0  0  0  0  0  0  0  0  0
    7.4013   -2.2694    0.0000 C   0  0  0  0  0  0  0  0  0  0  0  0
    3.9470    2.3695    0.0000 C   0  0  0  0  0  0  0  0  0  0  0  0
    9.9994   -0.7694    0.0000 C   0  0  0  0  0  0  0  0  0  0  0  0
    8.2673   -2.7694    0.0000 C   0  0  0  0  0  0  0  0  0  0  0  0
    6.5353   -2.7694    0.0000 C   0  0  0  0  0  0  0  0  0  0  0  0
   10.8654   -1.2694    0.0000 C   0  0  0  0  0  0  0  0  0  0  0  0
    8.2673   -3.7694    0.0000 C   0  0  0  0  0  0  0  0  0  0  0  0
    6.5353   -3.7694    0.0000 C   0  0  0  0  0  0  0  0  0  0  0  0
    3.2039    3.0386    0.0000 C   0  0  0  0  0  0  0  0  0  0  0  0
    7.4013   -4.2694    0.0000 C   0  0  0  0  0  0  0  0  0  0  0  0
    2.4608    3.7077    0.0000 C   0  0  0  0  0  0  0  0  0  0  0  0
   12.5975   -1.2694    0.0000 C   0  0  0  0  0  0  0  0  0  0  0  0
   13.6801   -2.4718    0.0000 C   0  0  0  0  0  0  0  0  0  0  0  0
    6.4953    1.7060    0.0000 H   0  0  0  0  0  0  0  0  0  0  0  0
    8.5203    1.7814    0.0000 H   0  0  0  0  0  0  0  0  0  0  0  0
    8.7767    2.5705    0.0000 H   0  0  0  0  0  0  0  0  0  0  0  0
    7.5213    4.2694    0.0000 H   0  0  0  0  0  0  0  0  0  0  0  0
    6.9013    4.8894    0.0000 H   0  0  0  0  0  0  0  0  0  0  0  0
    6.2813    4.2694    0.0000 H   0  0  0  0  0  0  0  0  0  0  0  0
    6.1418    4.1681    0.0000 H   0  0  0  0  0  0  0  0  0  0  0  0
    5.3606    3.7700    0.0000 H   0  0  0  0  0  0  0  0  0  0  0  0
    5.7587    2.9888    0.0000 H   0  0  0  0  0  0  0  0  0  0  0  0
    8.2673    0.8506    0.0000 H   0  0  0  0  0  0  0  0  0  0  0  0
    8.8043   -0.4594    0.0000 H   0  0  0  0  0  0  0  0  0  0  0  0
    7.1893   -0.6868    0.0000 H   0  0  0  0  0  0  0  0  0  0  0  0
    6.7907   -1.3771    0.0000 H   0  0  0  0  0  0  0  0  0  0  0  0
    5.0270    3.2849    0.0000 H   0  0  0  0  0  0  0  0  0  0  0  0
    9.1334   -1.8894    0.0000 H   0  0  0  0  0  0  0  0  0  0  0  0
    9.1334    1.3506    0.0000 H   0  0  0  0  0  0  0  0  0  0  0  0
    3.4585    1.9878    0.0000 H   0  0  0  0  0  0  0  0  0  0  0  0
    4.2381    1.8220    0.0000 H   0  0  0  0  0  0  0  0  0  0  0  0
    8.8043   -2.4594    0.0000 H   0  0  0  0  0  0  0  0  0  0  0  0
    5.9984   -2.4594    0.0000 H   0  0  0  0  0  0  0  0  0  0  0  0
   10.4669   -1.7444    0.0000 H   0  0  0  0  0  0  0  0  0  0  0  0
   11.2639   -1.7444    0.0000 H   0  0  0  0  0  0  0  0  0  0  0  0
    8.8043   -4.0794    0.0000 H   0  0  0  0  0  0  0  0  0  0  0  0
    5.9984   -4.0794    0.0000 H   0  0  0  0  0  0  0  0  0  0  0  0
    7.4013   -4.8894    0.0000 H   0  0  0  0  0  0  0  0  0  0  0  0
    2.0000    4.1226    0.0000 H   0  0  0  0  0  0  0  0  0  0  0  0
   13.6399   -0.2562    0.0000 H   0  0  0  0  0  0  0  0  0  0  0  0
   13.9323   -3.0382    0.0000 H   0  0  0  0  0  0  0  0  0  0  0  0
  1 13  1  0  0  0  0
  1 15  1  0  0  0  0
  2 28  1  0  0  0  0
  2 34  1  0  0  0  0
 20  3  1  1  0  0  0
  3 51  1  0  0  0  0
  4 18  2  0  0  0  0
  5 19  2  0  0  0  0
  6 25  2  0  0  0  0
  7 14  1  0  0  0  0
  7 15  1  0  0  0  0
  7 18  1  0  0  0  0
  8 19  1  0  0  0  0
  8 24  1  0  0  0  0
  8 49  1  0  0  0  0
 21  9  1  1  0  0  0
  9 25  1  0  0  0  0
  9 50  1  0  0  0  0
 10 12  1  0  0  0  0
 10 34  1  0  0  0  0
 10 62  1  0  0  0  0
 11 34  2  0  0  0  0
 11 35  1  0  0  0  0
 12 35  2  0  0  0  0
 13 14  1  0  0  0  0
 13 16  1  0  0  0  0
 13 17  1  0  0  0  0
 14 19  1  6  0  0  0
 14 36  1  0  0  0  0
 15 37  1  0  0  0  0
 15 38  1  0  0  0  0
 16 39  1  0  0  0  0
 16 40  1  0  0  0  0
 16 41  1  0  0  0  0
 17 42  1  0  0  0  0
 17 43  1  0  0  0  0
 17 44  1  0  0  0  0
 18 20  1  0  0  0  0
 20 21  1  0  0  0  0
 20 45  1  0  0  0  0
 21 22  1  0  0  0  0
 21 46  1  0  0  0  0
 22 23  1  0  0  0  0
 22 47  1  0  0  0  0
 22 48  1  0  0  0  0
 23 26  2  0  0  0  0
 23 27  1  0  0  0  0
 24 31  1  0  0  0  0
 24 52  1  0  0  0  0
 24 53  1  0  0  0  0
 25 28  1  0  0  0  0
 26 29  1  0  0  0  0
 26 54  1  0  0  0  0
 27 30  2  0  0  0  0
 27 55  1  0  0  0  0
 28 56  1  0  0  0  0
 28 57  1  0  0  0  0
 29 32  2  0  0  0  0
 29 58  1  0  0  0  0
 30 32  1  0  0  0  0
 30 59  1  0  0  0  0
 31 33  3  0  0  0  0
 32 60  1  0  0  0  0
 33 61  1  0  0  0  0
 35 63  1  0  0  0  0
M  END
> <PUBCHEM_COMPOUND_CID>
514750
> <PUBCHEM_COMPOUND_CANONICALIZED>
1
> <PUBCHEM_CACTVS_COMPLEXITY>
813
> <PUBCHEM_CACTVS_HBOND_ACCEPTOR>
8
> <PUBCHEM_CACTVS_HBOND_DONOR>
4
> <PUBCHEM_CACTVS_ROTATABLE_BOND>
10
> <PUBCHEM_CACTVS_SUBSKEYS>
AAADceB7uABgAAAAAAAAAAAAAAAAAWLAAAAwAAAAAAAAAAABwAAAHgQYCAAADDzl2Aa3EIfrEgjqGiFTNAISUgvwgJAN6IHIAIiKeDqg0TGUYAAklgCYiAeYyKCOAAAAAAAAAAAAAAAAAAAAAAAAAAAAAA==
> <PUBCHEM_IUPAC_OPENEYE_NAME>
(4R)-3-[(2S,3S)-2-hydroxy-4-phenyl-3-[[2-(1H-1,2,4-triazol-5-ylsulfanyl)acetyl]amino]butanoyl]-5,5-dimethyl-N-prop-2-ynyl-thiazolidine-4-carboxamide
> <PUBCHEM_IUPAC_CAS_NAME>
(4R)-3-[(2S,3S)-2-hydroxy-1-oxo-3-[[1-oxo-2-(1H-1,2,4-triazol-5-ylthio)ethyl]amino]-4-phenylbutyl]-5,5-dimethyl-N-prop-2-ynyl-4-thiazolidinecarboxamide
> <PUBCHEM_IUPAC_NAME_MARKUP>
(4<I>R</I>)-3-[(2<I>S</I>,3<I>S</I>)-2-hydroxy-4-phenyl-3-[[2-(1<I>H</I>-1,2,4-triazol-5-ylsulfanyl)acetyl]amino]butanoyl]-5,5-dimethyl-<I>N</I>-prop-2-ynyl-1,3-thiazolidine-4-carboxamide
> <PUBCHEM_IUPAC_NAME>
(4R)-3-[(2S,3S)-2-hydroxy-4-phenyl-3-[[2-(1H-1,2,4-triazol-5-ylsulfanyl)acetyl]amino]butanoyl]-5,5-dimethyl-N-prop-2-ynyl-1,3-thiazolidine-4-carboxamide
> <PUBCHEM_IUPAC_SYSTEMATIC_NAME>
(4R)-5,5-dimethyl-3-[(2S,3S)-2-oxidanyl-4-phenyl-3-[2-(1H-1,2,4-triazol-5-ylsulfanyl)ethanoylamino]butanoyl]-N-prop-2-ynyl-1,3-thiazolidine-4-carboxamide
> <PUBCHEM_IUPAC_TRADITIONAL_NAME>
(4R)-3-[(2S,3S)-2-hydroxy-4-phenyl-3-[[2-(1H-1,2,4-triazol-5-ylthio)acetyl]amino]butanoyl]-5,5-dimethyl-N-propargyl-thiazolidine-4-carboxamide
> <PUBCHEM_IUPAC_INCHI>
InChI=1S/C23H28N6O4S2/c1-4-10-24-20(32)19-23(2,3)35-14-29(19)21(33)18(31)16(11-15-8-6-5-7-9-15)27-17(30)12-34-22-25-13-26-28-22/h1,5-9,13,16,18-19,31H,10-12,14H2,2-3H3,(H,24,32)(H,27,30)(H,25,26,28)/t16-,18-,19+/m0/s1
> <PUBCHEM_IUPAC_INCHIKEY>
MNTKULBGVKOWAQ-YTQUADARSA-N
> <PUBCHEM_XLOGP3_AA>
1.7
> <PUBCHEM_EXACT_MASS>
516.16134574
> <PUBCHEM_MOLECULAR_FORMULA>
C23H28N6O4S2
> <PUBCHEM_MOLECULAR_WEIGHT>
516.6
> <PUBCHEM_OPENEYE_CAN_SMILES>
CC1(C(N(CS1)C(=O)C(C(CC2=CC=CC=C2)NC(=O)CSC3=NC=NN3)O)C(=O)NCC#C)C
> <PUBCHEM_OPENEYE_ISO_SMILES>
CC1([C@H](N(CS1)C(=O)[C@H]([C@H](CC2=CC=CC=C2)NC(=O)CSC3=NC=NN3)O)C(=O)NCC#C)C
> <PUBCHEM_CACTVS_TPSA>
191
> <PUBCHEM_MONOISOTOPIC_WEIGHT>
516.16134574
> <PUBCHEM_TOTAL_CHARGE>
0
> <PUBCHEM_HEAVY_ATOM_COUNT>
35
> <PUBCHEM_ATOM_DEF_STEREO_COUNT>
3
> <PUBCHEM_ATOM_UDEF_STEREO_COUNT>
0
> <PUBCHEM_BOND_DEF_STEREO_COUNT>
0
> <PUBCHEM_BOND_UDEF_STEREO_COUNT>
0
> <PUBCHEM_ISOTOPIC_ATOM_COUNT>
0
> <PUBCHEM_COMPONENT_COUNT>
1
> <PUBCHEM_CACTVS_TAUTO_COUNT>
-1
> <PUBCHEM_COORDINATE_TYPE>
1
5
255
> <PUBCHEM_BONDANNOTATIONS>
10  12  8
10  34  8
11  34  8
11  35  8
12  35  8
14  19  6
23  26  8
23  27  8
26  29  8
27  30  8
29  32  8
20  3  5
30  32  8
21  9  5
$$$$
