514779
  -OEChem-10302200282D
 73 76  0     1  0  0  0  0  0999 V2000
    8.8881   -1.6560    0.0000 F   0  0  0  0  0  0  0  0  0  0  0  0
    9.0110   -0.4869    0.0000 F   0  0  0  0  0  0  0  0  0  0  0  0
    7.0826    1.6275    0.0000 O   0  0  0  0  0  0  0  0  0  0  0  0
    4.9726    0.0313    0.0000 O   0  0  0  0  0  0  0  0  0  0  0  0
    4.8302   -1.3233    0.0000 O   0  0  0  0  0  0  0  0  0  0  0  0
    7.2905    2.6056    0.0000 O   0  0  0  0  0  0  0  0  0  0  0  0
    6.5862    5.8621    0.0000 O   0  0  0  0  0  0  0  0  0  0  0  0
    8.3074    6.3233    0.0000 O   0  0  0  0  0  0  0  0  0  0  0  0
    6.6668   -0.3288    0.0000 N   0  0  0  0  0  0  0  0  0  0  0  0
    5.6962   -2.8233    0.0000 N   0  0  0  0  0  0  0  0  0  0  0  0
    5.5963    2.9658    0.0000 N   0  0  0  0  0  0  0  0  0  0  0  0
    6.0862    4.9961    0.0000 N   0  0  0  0  0  0  0  0  0  0  0  0
    6.5622   -1.3233    0.0000 C   0  0  1  0  0  0  0  0  0  0  0  0
    7.4758   -1.7300    0.0000 C   0  0  0  0  0  0  0  0  0  0  0  0
    8.1449   -0.9869    0.0000 C   0  0  0  0  0  0  0  0  0  0  0  0
    7.6449   -0.1209    0.0000 C   0  0  0  0  0  0  0  0  0  0  0  0
    5.9236    0.3403    0.0000 C   0  0  0  0  0  0  0  0  0  0  0  0
    6.1316    1.3185    0.0000 C   0  0  2  0  0  0  0  0  0  0  0  0
    5.6962   -1.8233    0.0000 C   0  0  0  0  0  0  0  0  0  0  0  0
    5.3884    1.9876    0.0000 C   0  0  2  0  0  0  0  0  0  0  0  0
    4.4374    1.6786    0.0000 C   0  0  0  0  0  0  0  0  0  0  0  0
    3.6942    2.3477    0.0000 C   0  0  0  0  0  0  0  0  0  0  0  0
    4.8302   -3.3233    0.0000 C   0  0  0  0  0  0  0  0  0  0  0  0
    6.5474    3.2748    0.0000 C   0  0  0  0  0  0  0  0  0  0  0  0
    4.8302   -4.3233    0.0000 C   0  0  0  0  0  0  0  0  0  0  0  0
    2.7431    2.0387    0.0000 C   0  0  0  0  0  0  0  0  0  0  0  0
    3.9021    3.3259    0.0000 C   0  0  0  0  0  0  0  0  0  0  0  0
    6.7553    4.2529    0.0000 C   0  0  0  0  0  0  0  0  0  0  0  0
    3.9642   -4.8233    0.0000 C   0  0  0  0  0  0  0  0  0  0  0  0
    7.6688    4.6597    0.0000 C   0  0  0  0  0  0  0  0  0  0  0  0
    5.6962   -4.8233    0.0000 C   0  0  0  0  0  0  0  0  0  0  0  0
    2.0000    2.7078    0.0000 C   0  0  0  0  0  0  0  0  0  0  0  0
    3.1590    3.9950    0.0000 C   0  0  0  0  0  0  0  0  0  0  0  0
    2.2079    3.6860    0.0000 C   0  0  0  0  0  0  0  0  0  0  0  0
    3.9642   -5.8233    0.0000 C   0  0  0  0  0  0  0  0  0  0  0  0
    3.0982   -4.3233    0.0000 C   0  0  0  0  0  0  0  0  0  0  0  0
    7.5643    5.6542    0.0000 C   0  0  0  0  0  0  0  0  0  0  0  0
    5.6962   -5.8233    0.0000 C   0  0  0  0  0  0  0  0  0  0  0  0
    8.5348    4.1597    0.0000 C   0  0  0  0  0  0  0  0  0  0  0  0
    5.0916    4.8915    0.0000 C   0  0  0  0  0  0  0  0  0  0  0  0
    4.8302   -6.3233    0.0000 C   0  0  0  0  0  0  0  0  0  0  0  0
    6.0423   -0.9856    0.0000 H   0  0  0  0  0  0  0  0  0  0  0  0
    7.1658   -2.2670    0.0000 H   0  0  0  0  0  0  0  0  0  0  0  0
    7.9774   -2.0945    0.0000 H   0  0  0  0  0  0  0  0  0  0  0  0
    8.2113    0.1313    0.0000 H   0  0  0  0  0  0  0  0  0  0  0  0
    7.4533    0.4688    0.0000 H   0  0  0  0  0  0  0  0  0  0  0  0
    6.2604    1.9249    0.0000 H   0  0  0  0  0  0  0  0  0  0  0  0
    4.9276    2.4025    0.0000 H   0  0  0  0  0  0  0  0  0  0  0  0
    3.9488    1.2969    0.0000 H   0  0  0  0  0  0  0  0  0  0  0  0
    4.7284    1.1312    0.0000 H   0  0  0  0  0  0  0  0  0  0  0  0
    6.2332   -3.1333    0.0000 H   0  0  0  0  0  0  0  0  0  0  0  0
    5.1356    3.3806    0.0000 H   0  0  0  0  0  0  0  0  0  0  0  0
    7.5434    1.2126    0.0000 H   0  0  0  0  0  0  0  0  0  0  0  0
    4.6182   -2.7407    0.0000 H   0  0  0  0  0  0  0  0  0  0  0  0
    4.2196   -3.4310    0.0000 H   0  0  0  0  0  0  0  0  0  0  0  0
    2.6142    1.4323    0.0000 H   0  0  0  0  0  0  0  0  0  0  0  0
    4.4918    3.5175    0.0000 H   0  0  0  0  0  0  0  0  0  0  0  0
    6.2332   -4.5133    0.0000 H   0  0  0  0  0  0  0  0  0  0  0  0
    1.4103    2.5162    0.0000 H   0  0  0  0  0  0  0  0  0  0  0  0
    3.2879    4.6015    0.0000 H   0  0  0  0  0  0  0  0  0  0  0  0
    1.7472    4.1008    0.0000 H   0  0  0  0  0  0  0  0  0  0  0  0
    3.4272   -6.1333    0.0000 H   0  0  0  0  0  0  0  0  0  0  0  0
    3.4082   -3.7864    0.0000 H   0  0  0  0  0  0  0  0  0  0  0  0
    2.5612   -4.0133    0.0000 H   0  0  0  0  0  0  0  0  0  0  0  0
    2.7882   -4.8602    0.0000 H   0  0  0  0  0  0  0  0  0  0  0  0
    6.2332   -6.1333    0.0000 H   0  0  0  0  0  0  0  0  0  0  0  0
    8.2248    3.6227    0.0000 H   0  0  0  0  0  0  0  0  0  0  0  0
    9.0718    3.8497    0.0000 H   0  0  0  0  0  0  0  0  0  0  0  0
    8.8448    4.6966    0.0000 H   0  0  0  0  0  0  0  0  0  0  0  0
    5.0268    5.5082    0.0000 H   0  0  0  0  0  0  0  0  0  0  0  0
    4.4750    4.8267    0.0000 H   0  0  0  0  0  0  0  0  0  0  0  0
    5.1564    4.2749    0.0000 H   0  0  0  0  0  0  0  0  0  0  0  0
    4.8302   -6.9433    0.0000 H   0  0  0  0  0  0  0  0  0  0  0  0
  1 15  1  0  0  0  0
  2 15  1  0  0  0  0
 18  3  1  6  0  0  0
  3 53  1  0  0  0  0
  4 17  2  0  0  0  0
  5 19  2  0  0  0  0
  6 24  2  0  0  0  0
  7 12  1  0  0  0  0
  7 37  1  0  0  0  0
  8 37  2  0  0  0  0
  9 13  1  0  0  0  0
  9 16  1  0  0  0  0
  9 17  1  0  0  0  0
 10 19  1  0  0  0  0
 10 23  1  0  0  0  0
 10 51  1  0  0  0  0
 20 11  1  6  0  0  0
 11 24  1  0  0  0  0
 11 52  1  0  0  0  0
 12 28  1  0  0  0  0
 12 40  1  0  0  0  0
 13 14  1  0  0  0  0
 13 19  1  1  0  0  0
 13 42  1  0  0  0  0
 14 15  1  0  0  0  0
 14 43  1  0  0  0  0
 14 44  1  0  0  0  0
 15 16  1  0  0  0  0
 16 45  1  0  0  0  0
 16 46  1  0  0  0  0
 17 18  1  0  0  0  0
 18 20  1  0  0  0  0
 18 47  1  0  0  0  0
 20 21  1  0  0  0  0
 20 48  1  0  0  0  0
 21 22  1  0  0  0  0
 21 49  1  0  0  0  0
 21 50  1  0  0  0  0
 22 26  2  0  0  0  0
 22 27  1  0  0  0  0
 23 25  1  0  0  0  0
 23 54  1  0  0  0  0
 23 55  1  0  0  0  0
 24 28  1  0  0  0  0
 25 29  1  0  0  0  0
 25 31  2  0  0  0  0
 26 32  1  0  0  0  0
 26 56  1  0  0  0  0
 27 33  2  0  0  0  0
 27 57  1  0  0  0  0
 28 30  2  0  0  0  0
 29 35  2  0  0  0  0
 29 36  1  0  0  0  0
 30 37  1  0  0  0  0
 30 39  1  0  0  0  0
 31 38  1  0  0  0  0
 31 58  1  0  0  0  0
 32 34  2  0  0  0  0
 32 59  1  0  0  0  0
 33 34  1  0  0  0  0
 33 60  1  0  0  0  0
 34 61  1  0  0  0  0
 35 41  1  0  0  0  0
 35 62  1  0  0  0  0
 36 63  1  0  0  0  0
 36 64  1  0  0  0  0
 36 65  1  0  0  0  0
 38 41  2  0  0  0  0
 38 66  1  0  0  0  0
 39 67  1  0  0  0  0
 39 68  1  0  0  0  0
 39 69  1  0  0  0  0
 40 70  1  0  0  0  0
 40 71  1  0  0  0  0
 40 72  1  0  0  0  0
 41 73  1  0  0  0  0
M  END
> <PUBCHEM_COMPOUND_CID>
514779
> <PUBCHEM_COMPOUND_CANONICALIZED>
1
> <PUBCHEM_CACTVS_COMPLEXITY>
1050
> <PUBCHEM_CACTVS_HBOND_ACCEPTOR>
9
> <PUBCHEM_CACTVS_HBOND_DONOR>
3
> <PUBCHEM_CACTVS_ROTATABLE_BOND>
9
> <PUBCHEM_CACTVS_SUBSKEYS>
AAADcfB7uYAAAAAAAAAAAAAAAAAAAWIAAAAwYAAAAAAAAAABQAAAHwAUCAAADDzhmBYyCIPQAgCIAiXSWAKCAAAgAAAoiIHIBMgKdDqA0TGUcAhklgCYiUeYyaCOgAAAAAAQAAAAAAAAACAAAAAAAAAAAA==
> <PUBCHEM_IUPAC_OPENEYE_NAME>
N-[(1S,2S)-1-benzyl-3-[(2S)-4,4-difluoro-2-(o-tolylmethylcarbamoyl)pyrrolidin-1-yl]-2-hydroxy-3-oxo-propyl]-2,4-dimethyl-5-oxo-isoxazole-3-carboxamide
> <PUBCHEM_IUPAC_CAS_NAME>
N-[(2S,3S)-4-[(2S)-4,4-difluoro-2-[[(2-methylphenyl)methylamino]-oxomethyl]-1-pyrrolidinyl]-3-hydroxy-4-oxo-1-phenylbutan-2-yl]-2,4-dimethyl-5-oxo-3-isoxazolecarboxamide
> <PUBCHEM_IUPAC_NAME_MARKUP>
<I>N</I>-[(2<I>S</I>,3<I>S</I>)-4-[(2<I>S</I>)-4,4-difluoro-2-[(2-methylphenyl)methylcarbamoyl]pyrrolidin-1-yl]-3-hydroxy-4-oxo-1-phenylbutan-2-yl]-2,4-dimethyl-5-oxo-1,2-oxazole-3-carboxamide
> <PUBCHEM_IUPAC_NAME>
N-[(2S,3S)-4-[(2S)-4,4-difluoro-2-[(2-methylphenyl)methylcarbamoyl]pyrrolidin-1-yl]-3-hydroxy-4-oxo-1-phenylbutan-2-yl]-2,4-dimethyl-5-oxo-1,2-oxazole-3-carboxamide
> <PUBCHEM_IUPAC_SYSTEMATIC_NAME>
N-[(2S,3S)-4-[(2S)-4,4-bis(fluoranyl)-2-[(2-methylphenyl)methylcarbamoyl]pyrrolidin-1-yl]-3-oxidanyl-4-oxidanylidene-1-phenyl-butan-2-yl]-2,4-dimethyl-5-oxidanylidene-1,2-oxazole-3-carboxamide
> <PUBCHEM_IUPAC_TRADITIONAL_NAME>
N-[(1S,2S)-1-benzyl-3-[(2S)-4,4-difluoro-2-[(2-methylbenzyl)carbamoyl]pyrrolidino]-2-hydroxy-3-keto-propyl]-5-keto-2,4-dimethyl-3-isoxazoline-3-carboxamide
> <PUBCHEM_IUPAC_INCHI>
InChI=1S/C29H32F2N4O6/c1-17-9-7-8-12-20(17)15-32-25(37)22-14-29(30,31)16-35(22)27(39)24(36)21(13-19-10-5-4-6-11-19)33-26(38)23-18(2)28(40)41-34(23)3/h4-12,21-22,24,36H,13-16H2,1-3H3,(H,32,37)(H,33,38)/t21-,22-,24-/m0/s1
> <PUBCHEM_IUPAC_INCHIKEY>
CXWNFFYFADHRIH-FIXSFTCYSA-N
> <PUBCHEM_XLOGP3_AA>
3.3
> <PUBCHEM_EXACT_MASS>
570.22899108
> <PUBCHEM_MOLECULAR_FORMULA>
C29H32F2N4O6
> <PUBCHEM_MOLECULAR_WEIGHT>
570.6
> <PUBCHEM_OPENEYE_CAN_SMILES>
CC1=CC=CC=C1CNC(=O)C2CC(CN2C(=O)C(C(CC3=CC=CC=C3)NC(=O)C4=C(C(=O)ON4C)C)O)(F)F
> <PUBCHEM_OPENEYE_ISO_SMILES>
CC1=CC=CC=C1CNC(=O)[C@@H]2CC(CN2C(=O)[C@H]([C@H](CC3=CC=CC=C3)NC(=O)C4=C(C(=O)ON4C)C)O)(F)F
> <PUBCHEM_CACTVS_TPSA>
128
> <PUBCHEM_MONOISOTOPIC_WEIGHT>
570.22899108
> <PUBCHEM_TOTAL_CHARGE>
0
> <PUBCHEM_HEAVY_ATOM_COUNT>
41
> <PUBCHEM_ATOM_DEF_STEREO_COUNT>
3
> <PUBCHEM_ATOM_UDEF_STEREO_COUNT>
0
> <PUBCHEM_BOND_DEF_STEREO_COUNT>
0
> <PUBCHEM_BOND_UDEF_STEREO_COUNT>
0
> <PUBCHEM_ISOTOPIC_ATOM_COUNT>
0
> <PUBCHEM_COMPONENT_COUNT>
1
> <PUBCHEM_CACTVS_TAUTO_COUNT>
-1
> <PUBCHEM_COORDINATE_TYPE>
1
5
255
> <PUBCHEM_BONDANNOTATIONS>
20  11  6
12  28  8
13  19  5
22  26  8
22  27  8
25  29  8
25  31  8
26  32  8
27  33  8
28  30  8
29  35  8
18  3  6
30  37  8
31  38  8
32  34  8
33  34  8
35  41  8
38  41  8
7  12  8
7  37  8
$$$$
