514766
  -OEChem-10302200282D
 81 85  0     1  0  0  0  0  0999 V2000
    2.0740    3.1689    0.0000 S   0  0  0  0  0  0  0  0  0  0  0  0
    3.1363    0.5545    0.0000 O   0  0  0  0  0  0  0  0  0  0  0  0
    5.2464    2.1507    0.0000 O   0  0  0  0  0  0  0  0  0  0  0  0
    4.5227    5.0053    0.0000 O   0  0  0  0  0  0  0  0  0  0  0  0
    2.9284   -0.4236    0.0000 O   0  0  0  0  0  0  0  0  0  0  0  0
    9.7991    3.8101    0.0000 O   0  0  0  0  0  0  0  0  0  0  0  0
    9.7991    2.2006    0.0000 O   0  0  0  0  0  0  0  0  0  0  0  0
    4.7420   -4.3873    0.0000 O   0  0  0  0  0  0  0  0  0  0  0  0
    3.5522    2.5108    0.0000 N   0  0  0  0  0  0  0  0  0  0  0  0
    5.3887    3.5053    0.0000 N   0  0  0  0  0  0  0  0  0  0  0  0
    4.6226   -0.7837    0.0000 N   0  0  0  0  0  0  0  0  0  0  0  0
    2.7431    3.9121    0.0000 C   0  0  0  0  0  0  0  0  0  0  0  0
    3.6567    3.5053    0.0000 C   0  0  3  0  0  0  0  0  0  0  0  0
    2.5740    2.3029    0.0000 C   0  0  0  0  0  0  0  0  0  0  0  0
    2.0000    4.5812    0.0000 C   0  0  0  0  0  0  0  0  0  0  0  0
    3.1499    4.8256    0.0000 C   0  0  0  0  0  0  0  0  0  0  0  0
    4.5227    4.0053    0.0000 C   0  0  0  0  0  0  0  0  0  0  0  0
    4.2953    1.8417    0.0000 C   0  0  0  0  0  0  0  0  0  0  0  0
    4.0874    0.8635    0.0000 C   0  0  2  0  0  0  0  0  0  0  0  0
    4.8305    0.1944    0.0000 C   0  0  2  0  0  0  0  0  0  0  0  0
    5.7816    0.5034    0.0000 C   0  0  0  0  0  0  0  0  0  0  0  0
    6.2548    4.0053    0.0000 C   0  0  0  0  0  0  0  0  0  0  0  0
    6.5247   -0.1657    0.0000 C   0  0  0  0  0  0  0  0  0  0  0  0
    7.1208    3.5053    0.0000 C   0  0  0  0  0  0  0  0  0  0  0  0
    3.6716   -1.0928    0.0000 C   0  0  0  0  0  0  0  0  0  0  0  0
    7.4758    0.1433    0.0000 C   0  0  0  0  0  0  0  0  0  0  0  0
    6.3168   -1.1438    0.0000 C   0  0  0  0  0  0  0  0  0  0  0  0
    3.4637   -2.0709    0.0000 C   0  0  0  0  0  0  0  0  0  0  0  0
    7.9868    4.0053    0.0000 C   0  0  0  0  0  0  0  0  0  0  0  0
    7.1208    2.5053    0.0000 C   0  0  0  0  0  0  0  0  0  0  0  0
    8.2189   -0.5258    0.0000 C   0  0  0  0  0  0  0  0  0  0  0  0
    7.0600   -1.8130    0.0000 C   0  0  0  0  0  0  0  0  0  0  0  0
    4.2068   -2.7400    0.0000 C   0  0  0  0  0  0  0  0  0  0  0  0
    8.8528    3.5053    0.0000 C   0  0  0  0  0  0  0  0  0  0  0  0
    2.5126   -2.3799    0.0000 C   0  0  0  0  0  0  0  0  0  0  0  0
    7.9868    2.0053    0.0000 C   0  0  0  0  0  0  0  0  0  0  0  0
    8.0110   -1.5040    0.0000 C   0  0  0  0  0  0  0  0  0  0  0  0
    8.8528    2.5053    0.0000 C   0  0  0  0  0  0  0  0  0  0  0  0
    3.9989   -3.7182    0.0000 C   0  0  0  0  0  0  0  0  0  0  0  0
    3.0478   -4.0272    0.0000 C   0  0  0  0  0  0  0  0  0  0  0  0
    2.3047   -3.3581    0.0000 C   0  0  0  0  0  0  0  0  0  0  0  0
    5.1579   -2.4310    0.0000 C   0  0  0  0  0  0  0  0  0  0  0  0
   10.3827    3.0053    0.0000 C   0  0  0  0  0  0  0  0  0  0  0  0
    2.8399   -5.0053    0.0000 C   0  0  0  0  0  0  0  0  0  0  0  0
    4.1767    3.1677    0.0000 H   0  0  0  0  0  0  0  0  0  0  0  0
    2.0076    2.0507    0.0000 H   0  0  0  0  0  0  0  0  0  0  0  0
    2.7656    1.7132    0.0000 H   0  0  0  0  0  0  0  0  0  0  0  0
    2.4149    5.0420    0.0000 H   0  0  0  0  0  0  0  0  0  0  0  0
    1.5392    4.9961    0.0000 H   0  0  0  0  0  0  0  0  0  0  0  0
    1.5851    4.1205    0.0000 H   0  0  0  0  0  0  0  0  0  0  0  0
    3.7163    4.5734    0.0000 H   0  0  0  0  0  0  0  0  0  0  0  0
    3.4021    5.3920    0.0000 H   0  0  0  0  0  0  0  0  0  0  0  0
    2.5835    5.0778    0.0000 H   0  0  0  0  0  0  0  0  0  0  0  0
    3.6266    1.2784    0.0000 H   0  0  0  0  0  0  0  0  0  0  0  0
    4.2409    0.0028    0.0000 H   0  0  0  0  0  0  0  0  0  0  0  0
    5.3887    2.8853    0.0000 H   0  0  0  0  0  0  0  0  0  0  0  0
    6.2702    0.8851    0.0000 H   0  0  0  0  0  0  0  0  0  0  0  0
    5.4905    1.0509    0.0000 H   0  0  0  0  0  0  0  0  0  0  0  0
    5.0834   -1.1986    0.0000 H   0  0  0  0  0  0  0  0  0  0  0  0
    6.6533    4.4803    0.0000 H   0  0  0  0  0  0  0  0  0  0  0  0
    5.8562    4.4803    0.0000 H   0  0  0  0  0  0  0  0  0  0  0  0
    2.6756    0.9694    0.0000 H   0  0  0  0  0  0  0  0  0  0  0  0
    7.6047    0.7498    0.0000 H   0  0  0  0  0  0  0  0  0  0  0  0
    5.7272   -1.3354    0.0000 H   0  0  0  0  0  0  0  0  0  0  0  0
    7.9868    4.6253    0.0000 H   0  0  0  0  0  0  0  0  0  0  0  0
    6.5839    2.1953    0.0000 H   0  0  0  0  0  0  0  0  0  0  0  0
    8.8086   -0.3342    0.0000 H   0  0  0  0  0  0  0  0  0  0  0  0
    6.9311   -2.4194    0.0000 H   0  0  0  0  0  0  0  0  0  0  0  0
    2.0518   -1.9651    0.0000 H   0  0  0  0  0  0  0  0  0  0  0  0
    7.9868    1.3853    0.0000 H   0  0  0  0  0  0  0  0  0  0  0  0
    8.4718   -1.9188    0.0000 H   0  0  0  0  0  0  0  0  0  0  0  0
    1.7150   -3.5497    0.0000 H   0  0  0  0  0  0  0  0  0  0  0  0
    5.3494   -3.0207    0.0000 H   0  0  0  0  0  0  0  0  0  0  0  0
    5.7475   -2.2394    0.0000 H   0  0  0  0  0  0  0  0  0  0  0  0
    4.9663   -1.8414    0.0000 H   0  0  0  0  0  0  0  0  0  0  0  0
   10.8435    2.5906    0.0000 H   0  0  0  0  0  0  0  0  0  0  0  0
   10.8435    3.4201    0.0000 H   0  0  0  0  0  0  0  0  0  0  0  0
    2.2335   -4.8764    0.0000 H   0  0  0  0  0  0  0  0  0  0  0  0
    2.7110   -5.6118    0.0000 H   0  0  0  0  0  0  0  0  0  0  0  0
    3.4464   -5.1342    0.0000 H   0  0  0  0  0  0  0  0  0  0  0  0
    4.6131   -4.9938    0.0000 H   0  0  0  0  0  0  0  0  0  0  0  0
  1 12  1  0  0  0  0
  1 14  1  0  0  0  0
 19  2  1  6  0  0  0
  2 62  1  0  0  0  0
  3 18  2  0  0  0  0
  4 17  2  0  0  0  0
  5 25  2  0  0  0  0
  6 34  1  0  0  0  0
  6 43  1  0  0  0  0
  7 38  1  0  0  0  0
  7 43  1  0  0  0  0
  8 39  1  0  0  0  0
  8 81  1  0  0  0  0
  9 13  1  0  0  0  0
  9 14  1  0  0  0  0
  9 18  1  0  0  0  0
 10 17  1  0  0  0  0
 10 22  1  0  0  0  0
 10 56  1  0  0  0  0
 20 11  1  6  0  0  0
 11 25  1  0  0  0  0
 11 59  1  0  0  0  0
 12 13  1  0  0  0  0
 12 15  1  0  0  0  0
 12 16  1  0  0  0  0
 13 17  1  0  0  0  0
 13 45  1  0  0  0  0
 14 46  1  0  0  0  0
 14 47  1  0  0  0  0
 15 48  1  0  0  0  0
 15 49  1  0  0  0  0
 15 50  1  0  0  0  0
 16 51  1  0  0  0  0
 16 52  1  0  0  0  0
 16 53  1  0  0  0  0
 18 19  1  0  0  0  0
 19 20  1  0  0  0  0
 19 54  1  0  0  0  0
 20 21  1  0  0  0  0
 20 55  1  0  0  0  0
 21 23  1  0  0  0  0
 21 57  1  0  0  0  0
 21 58  1  0  0  0  0
 22 24  1  0  0  0  0
 22 60  1  0  0  0  0
 22 61  1  0  0  0  0
 23 26  2  0  0  0  0
 23 27  1  0  0  0  0
 24 29  2  0  0  0  0
 24 30  1  0  0  0  0
 25 28  1  0  0  0  0
 26 31  1  0  0  0  0
 26 63  1  0  0  0  0
 27 32  2  0  0  0  0
 27 64  1  0  0  0  0
 28 33  2  0  0  0  0
 28 35  1  0  0  0  0
 29 34  1  0  0  0  0
 29 65  1  0  0  0  0
 30 36  2  0  0  0  0
 30 66  1  0  0  0  0
 31 37  2  0  0  0  0
 31 67  1  0  0  0  0
 32 37  1  0  0  0  0
 32 68  1  0  0  0  0
 33 39  1  0  0  0  0
 33 42  1  0  0  0  0
 34 38  2  0  0  0  0
 35 41  2  0  0  0  0
 35 69  1  0  0  0  0
 36 38  1  0  0  0  0
 36 70  1  0  0  0  0
 37 71  1  0  0  0  0
 39 40  2  0  0  0  0
 40 41  1  0  0  0  0
 40 44  1  0  0  0  0
 41 72  1  0  0  0  0
 42 73  1  0  0  0  0
 42 74  1  0  0  0  0
 42 75  1  0  0  0  0
 43 76  1  0  0  0  0
 43 77  1  0  0  0  0
 44 78  1  0  0  0  0
 44 79  1  0  0  0  0
 44 80  1  0  0  0  0
M  END
> <PUBCHEM_COMPOUND_CID>
514766
> <PUBCHEM_COMPOUND_CANONICALIZED>
1
> <PUBCHEM_CACTVS_COMPLEXITY>
1020
> <PUBCHEM_CACTVS_HBOND_ACCEPTOR>
8
> <PUBCHEM_CACTVS_HBOND_DONOR>
4
> <PUBCHEM_CACTVS_ROTATABLE_BOND>
9
> <PUBCHEM_CACTVS_SUBSKEYS>
AAADcfB/OABAAAAAAAAAAAAAAAAAAWJAAAAwYMAAAAAAAEgBUAAAHgQQCAAADDzh2AeyDoPABgiIAiFSEAKCCABkIBAIiIHOjMgfdjqm9Tu0cSpk1hGeuYe62PKO4AADAAAYQADAAAYAADCAAAAAAAAAAA==
> <PUBCHEM_IUPAC_OPENEYE_NAME>
N-(1,3-benzodioxol-5-ylmethyl)-3-[(2S,3S)-2-hydroxy-3-[(3-hydroxy-2,4-dimethyl-benzoyl)amino]-4-phenyl-butanoyl]-5,5-dimethyl-thiazolidine-4-carboxamide
> <PUBCHEM_IUPAC_CAS_NAME>
N-(1,3-benzodioxol-5-ylmethyl)-3-[(2S,3S)-2-hydroxy-3-[[(3-hydroxy-2,4-dimethylphenyl)-oxomethyl]amino]-1-oxo-4-phenylbutyl]-5,5-dimethyl-4-thiazolidinecarboxamide
> <PUBCHEM_IUPAC_NAME_MARKUP>
<I>N</I>-(1,3-benzodioxol-5-ylmethyl)-3-[(2<I>S</I>,3<I>S</I>)-2-hydroxy-3-[(3-hydroxy-2,4-dimethylbenzoyl)amino]-4-phenylbutanoyl]-5,5-dimethyl-1,3-thiazolidine-4-carboxamide
> <PUBCHEM_IUPAC_NAME>
N-(1,3-benzodioxol-5-ylmethyl)-3-[(2S,3S)-2-hydroxy-3-[(3-hydroxy-2,4-dimethylbenzoyl)amino]-4-phenylbutanoyl]-5,5-dimethyl-1,3-thiazolidine-4-carboxamide
> <PUBCHEM_IUPAC_SYSTEMATIC_NAME>
N-(1,3-benzodioxol-5-ylmethyl)-3-[(2S,3S)-3-[(2,4-dimethyl-3-oxidanyl-phenyl)carbonylamino]-2-oxidanyl-4-phenyl-butanoyl]-5,5-dimethyl-1,3-thiazolidine-4-carboxamide
> <PUBCHEM_IUPAC_TRADITIONAL_NAME>
3-[(2S,3S)-2-hydroxy-3-[(3-hydroxy-2,4-dimethyl-benzoyl)amino]-4-phenyl-butanoyl]-5,5-dimethyl-N-piperonyl-thiazolidine-4-carboxamide
> <PUBCHEM_IUPAC_INCHI>
InChI=1S/C33H37N3O7S/c1-19-10-12-23(20(2)27(19)37)30(39)35-24(14-21-8-6-5-7-9-21)28(38)32(41)36-17-44-33(3,4)29(36)31(40)34-16-22-11-13-25-26(15-22)43-18-42-25/h5-13,15,24,28-29,37-38H,14,16-18H2,1-4H3,(H,34,40)(H,35,39)/t24-,28-,29?/m0/s1
> <PUBCHEM_IUPAC_INCHIKEY>
AGTHCNLWBGDXCN-QXXDYXCYSA-N
> <PUBCHEM_XLOGP3_AA>
4.3
> <PUBCHEM_EXACT_MASS>
619.23522170
> <PUBCHEM_MOLECULAR_FORMULA>
C33H37N3O7S
> <PUBCHEM_MOLECULAR_WEIGHT>
619.7
> <PUBCHEM_OPENEYE_CAN_SMILES>
CC1=C(C(=C(C=C1)C(=O)NC(CC2=CC=CC=C2)C(C(=O)N3CSC(C3C(=O)NCC4=CC5=C(C=C4)OCO5)(C)C)O)C)O
> <PUBCHEM_OPENEYE_ISO_SMILES>
CC1=C(C(=C(C=C1)C(=O)N[C@@H](CC2=CC=CC=C2)[C@@H](C(=O)N3CSC(C3C(=O)NCC4=CC5=C(C=C4)OCO5)(C)C)O)C)O
> <PUBCHEM_CACTVS_TPSA>
163
> <PUBCHEM_MONOISOTOPIC_WEIGHT>
619.23522170
> <PUBCHEM_TOTAL_CHARGE>
0
> <PUBCHEM_HEAVY_ATOM_COUNT>
44
> <PUBCHEM_ATOM_DEF_STEREO_COUNT>
2
> <PUBCHEM_ATOM_UDEF_STEREO_COUNT>
1
> <PUBCHEM_BOND_DEF_STEREO_COUNT>
0
> <PUBCHEM_BOND_UDEF_STEREO_COUNT>
0
> <PUBCHEM_ISOTOPIC_ATOM_COUNT>
0
> <PUBCHEM_COMPONENT_COUNT>
1
> <PUBCHEM_CACTVS_TAUTO_COUNT>
-1
> <PUBCHEM_COORDINATE_TYPE>
1
5
255
> <PUBCHEM_BONDANNOTATIONS>
20  11  6
13  17  3
19  2  6
23  26  8
23  27  8
24  29  8
24  30  8
26  31  8
27  32  8
28  33  8
28  35  8
29  34  8
30  36  8
31  37  8
32  37  8
33  39  8
34  38  8
35  41  8
36  38  8
39  40  8
40  41  8
$$$$
