514715
  -OEChem-10302200282D
 90 93  0     1  0  0  0  0  0999 V2000
    8.2788    2.9947    0.0000 S   0  0  0  0  0  0  0  0  0  0  0  0
    7.5745   -0.2617    0.0000 O   0  0  0  0  0  0  0  0  0  0  0  0
    6.3301    0.2923    0.0000 O   0  0  0  0  0  0  0  0  0  0  0  0
    5.4641    2.7923    0.0000 O   0  0  0  0  0  0  0  0  0  0  0  0
    2.8660    0.2923    0.0000 O   0  0  0  0  0  0  0  0  0  0  0  0
    2.0000   -3.2077    0.0000 O   0  0  0  0  0  0  0  0  0  0  0  0
    9.2687    0.0984    0.0000 N   0  0  0  0  0  0  0  0  0  0  0  0
    7.1962    1.7923    0.0000 N   0  0  0  0  0  0  0  0  0  0  0  0
    4.5981    0.2923    0.0000 N   0  0  0  0  0  0  0  0  0  0  0  0
    9.8924   -2.8360    0.0000 C   0  0  0  0  0  0  0  0  0  0  0  0
   10.1003   -3.8142    0.0000 C   0  0  0  0  0  0  0  0  0  0  0  0
    8.9413   -2.5270    0.0000 C   0  0  0  0  0  0  0  0  0  0  0  0
   10.6355   -2.1669    0.0000 C   0  0  0  0  0  0  0  0  0  0  0  0
    9.4766   -0.8797    0.0000 C   0  0  0  0  0  0  0  0  0  0  0  0
    8.7334   -1.5489    0.0000 C   0  0  0  0  0  0  0  0  0  0  0  0
   10.4276   -1.1888    0.0000 C   0  0  0  0  0  0  0  0  0  0  0  0
   10.3082   -4.7923    0.0000 C   0  0  0  0  0  0  0  0  0  0  0  0
   11.0785   -3.6063    0.0000 C   0  0  0  0  0  0  0  0  0  0  0  0
    9.1222   -4.0221    0.0000 C   0  0  0  0  0  0  0  0  0  0  0  0
    8.1097    1.3856    0.0000 C   0  0  1  0  0  0  0  0  0  0  0  0
    8.7788    2.1287    0.0000 C   0  0  0  0  0  0  0  0  0  0  0  0
    8.3176    0.4074    0.0000 C   0  0  0  0  0  0  0  0  0  0  0  0
    7.3007    2.7868    0.0000 C   0  0  0  0  0  0  0  0  0  0  0  0
    9.6448    2.6287    0.0000 C   0  0  0  0  0  0  0  0  0  0  0  0
    9.5220    1.4596    0.0000 C   0  0  0  0  0  0  0  0  0  0  0  0
    6.3301    1.2923    0.0000 C   0  0  0  0  0  0  0  0  0  0  0  0
    5.4641    1.7923    0.0000 C   0  0  2  0  0  0  0  0  0  0  0  0
    4.5981    1.2923    0.0000 C   0  0  2  0  0  0  0  0  0  0  0  0
    3.7320    1.7923    0.0000 C   0  0  0  0  0  0  0  0  0  0  0  0
    3.7320    2.7923    0.0000 C   0  0  0  0  0  0  0  0  0  0  0  0
    3.7320   -0.2077    0.0000 C   0  0  0  0  0  0  0  0  0  0  0  0
    2.8660    3.2923    0.0000 C   0  0  0  0  0  0  0  0  0  0  0  0
    4.5981    3.2923    0.0000 C   0  0  0  0  0  0  0  0  0  0  0  0
    3.7320   -1.2077    0.0000 C   0  0  0  0  0  0  0  0  0  0  0  0
    2.8660    4.2923    0.0000 C   0  0  0  0  0  0  0  0  0  0  0  0
    4.5981    4.2923    0.0000 C   0  0  0  0  0  0  0  0  0  0  0  0
    2.8660   -1.7077    0.0000 C   0  0  0  0  0  0  0  0  0  0  0  0
    3.7320    4.7923    0.0000 C   0  0  0  0  0  0  0  0  0  0  0  0
    4.5981   -1.7077    0.0000 C   0  0  0  0  0  0  0  0  0  0  0  0
    2.8660   -2.7077    0.0000 C   0  0  0  0  0  0  0  0  0  0  0  0
    2.0000   -1.2077    0.0000 C   0  0  0  0  0  0  0  0  0  0  0  0
    4.5981   -2.7077    0.0000 C   0  0  0  0  0  0  0  0  0  0  0  0
    3.7320   -3.2077    0.0000 C   0  0  0  0  0  0  0  0  0  0  0  0
    9.4316   -3.2509    0.0000 H   0  0  0  0  0  0  0  0  0  0  0  0
    8.3217   -2.5486    0.0000 H   0  0  0  0  0  0  0  0  0  0  0  0
    8.8551   -3.1410    0.0000 H   0  0  0  0  0  0  0  0  0  0  0  0
   10.9641   -2.6927    0.0000 H   0  0  0  0  0  0  0  0  0  0  0  0
   11.2104   -1.9346    0.0000 H   0  0  0  0  0  0  0  0  0  0  0  0
    8.8869   -0.6881    0.0000 H   0  0  0  0  0  0  0  0  0  0  0  0
    8.4049   -1.0231    0.0000 H   0  0  0  0  0  0  0  0  0  0  0  0
    8.1586   -1.7811    0.0000 H   0  0  0  0  0  0  0  0  0  0  0  0
   11.0473   -1.1671    0.0000 H   0  0  0  0  0  0  0  0  0  0  0  0
   10.5139   -0.5748    0.0000 H   0  0  0  0  0  0  0  0  0  0  0  0
    9.7018   -4.9212    0.0000 H   0  0  0  0  0  0  0  0  0  0  0  0
   10.4371   -5.3988    0.0000 H   0  0  0  0  0  0  0  0  0  0  0  0
   10.9147   -4.6634    0.0000 H   0  0  0  0  0  0  0  0  0  0  0  0
   11.2074   -4.2127    0.0000 H   0  0  0  0  0  0  0  0  0  0  0  0
   11.6849   -3.4774    0.0000 H   0  0  0  0  0  0  0  0  0  0  0  0
   10.9496   -2.9998    0.0000 H   0  0  0  0  0  0  0  0  0  0  0  0
    8.9933   -3.4156    0.0000 H   0  0  0  0  0  0  0  0  0  0  0  0
    8.5157   -4.1510    0.0000 H   0  0  0  0  0  0  0  0  0  0  0  0
    9.2511   -4.6285    0.0000 H   0  0  0  0  0  0  0  0  0  0  0  0
    9.7294    0.5133    0.0000 H   0  0  0  0  0  0  0  0  0  0  0  0
    7.6279    0.9954    0.0000 H   0  0  0  0  0  0  0  0  0  0  0  0
    7.2359    3.4034    0.0000 H   0  0  0  0  0  0  0  0  0  0  0  0
    6.6807    2.7868    0.0000 H   0  0  0  0  0  0  0  0  0  0  0  0
    9.9548    2.0918    0.0000 H   0  0  0  0  0  0  0  0  0  0  0  0
   10.1818    2.9387    0.0000 H   0  0  0  0  0  0  0  0  0  0  0  0
    9.3348    3.1657    0.0000 H   0  0  0  0  0  0  0  0  0  0  0  0
    9.1071    0.9988    0.0000 H   0  0  0  0  0  0  0  0  0  0  0  0
    9.9827    1.0447    0.0000 H   0  0  0  0  0  0  0  0  0  0  0  0
    9.9368    1.9204    0.0000 H   0  0  0  0  0  0  0  0  0  0  0  0
    6.0010    2.1023    0.0000 H   0  0  0  0  0  0  0  0  0  0  0  0
    5.1350    0.9823    0.0000 H   0  0  0  0  0  0  0  0  0  0  0  0
    3.1215    1.9000    0.0000 H   0  0  0  0  0  0  0  0  0  0  0  0
    3.5200    1.2097    0.0000 H   0  0  0  0  0  0  0  0  0  0  0  0
    5.1350   -0.0177    0.0000 H   0  0  0  0  0  0  0  0  0  0  0  0
    6.0010    3.1023    0.0000 H   0  0  0  0  0  0  0  0  0  0  0  0
    2.3291    2.9823    0.0000 H   0  0  0  0  0  0  0  0  0  0  0  0
    5.1350    2.9823    0.0000 H   0  0  0  0  0  0  0  0  0  0  0  0
    2.3291    4.6023    0.0000 H   0  0  0  0  0  0  0  0  0  0  0  0
    5.1350    4.6023    0.0000 H   0  0  0  0  0  0  0  0  0  0  0  0
    3.7320    5.4123    0.0000 H   0  0  0  0  0  0  0  0  0  0  0  0
    5.1350   -1.3977    0.0000 H   0  0  0  0  0  0  0  0  0  0  0  0
    2.3100   -0.6707    0.0000 H   0  0  0  0  0  0  0  0  0  0  0  0
    1.4631   -0.8977    0.0000 H   0  0  0  0  0  0  0  0  0  0  0  0
    1.6900   -1.7446    0.0000 H   0  0  0  0  0  0  0  0  0  0  0  0
    5.1350   -3.0177    0.0000 H   0  0  0  0  0  0  0  0  0  0  0  0
    3.7320   -3.8277    0.0000 H   0  0  0  0  0  0  0  0  0  0  0  0
    2.0000   -3.8277    0.0000 H   0  0  0  0  0  0  0  0  0  0  0  0
  1 21  1  0  0  0  0
  1 23  1  0  0  0  0
  2 22  2  0  0  0  0
  3 26  2  0  0  0  0
 27  4  1  6  0  0  0
  4 78  1  0  0  0  0
  5 31  2  0  0  0  0
  6 40  1  0  0  0  0
  6 90  1  0  0  0  0
  7 14  1  0  0  0  0
  7 22  1  0  0  0  0
  7 63  1  0  0  0  0
  8 20  1  0  0  0  0
  8 23  1  0  0  0  0
  8 26  1  0  0  0  0
 28  9  1  1  0  0  0
  9 31  1  0  0  0  0
  9 77  1  0  0  0  0
 10 11  1  0  0  0  0
 10 12  1  0  0  0  0
 10 13  1  0  0  0  0
 10 44  1  0  0  0  0
 11 17  1  0  0  0  0
 11 18  1  0  0  0  0
 11 19  1  0  0  0  0
 12 15  1  0  0  0  0
 12 45  1  0  0  0  0
 12 46  1  0  0  0  0
 13 16  1  0  0  0  0
 13 47  1  0  0  0  0
 13 48  1  0  0  0  0
 14 15  1  0  0  0  0
 14 16  1  0  0  0  0
 14 49  1  0  0  0  0
 15 50  1  0  0  0  0
 15 51  1  0  0  0  0
 16 52  1  0  0  0  0
 16 53  1  0  0  0  0
 17 54  1  0  0  0  0
 17 55  1  0  0  0  0
 17 56  1  0  0  0  0
 18 57  1  0  0  0  0
 18 58  1  0  0  0  0
 18 59  1  0  0  0  0
 19 60  1  0  0  0  0
 19 61  1  0  0  0  0
 19 62  1  0  0  0  0
 20 21  1  0  0  0  0
 20 22  1  1  0  0  0
 20 64  1  0  0  0  0
 21 24  1  0  0  0  0
 21 25  1  0  0  0  0
 23 65  1  0  0  0  0
 23 66  1  0  0  0  0
 24 67  1  0  0  0  0
 24 68  1  0  0  0  0
 24 69  1  0  0  0  0
 25 70  1  0  0  0  0
 25 71  1  0  0  0  0
 25 72  1  0  0  0  0
 26 27  1  0  0  0  0
 27 28  1  0  0  0  0
 27 73  1  0  0  0  0
 28 29  1  0  0  0  0
 28 74  1  0  0  0  0
 29 30  1  0  0  0  0
 29 75  1  0  0  0  0
 29 76  1  0  0  0  0
 30 32  2  0  0  0  0
 30 33  1  0  0  0  0
 31 34  1  0  0  0  0
 32 35  1  0  0  0  0
 32 79  1  0  0  0  0
 33 36  2  0  0  0  0
 33 80  1  0  0  0  0
 34 37  2  0  0  0  0
 34 39  1  0  0  0  0
 35 38  2  0  0  0  0
 35 81  1  0  0  0  0
 36 38  1  0  0  0  0
 36 82  1  0  0  0  0
 37 40  1  0  0  0  0
 37 41  1  0  0  0  0
 38 83  1  0  0  0  0
 39 42  2  0  0  0  0
 39 84  1  0  0  0  0
 40 43  2  0  0  0  0
 41 85  1  0  0  0  0
 41 86  1  0  0  0  0
 41 87  1  0  0  0  0
 42 43  1  0  0  0  0
 42 88  1  0  0  0  0
 43 89  1  0  0  0  0
M  END
> <PUBCHEM_COMPOUND_CID>
514715
> <PUBCHEM_COMPOUND_CANONICALIZED>
1
> <PUBCHEM_CACTVS_COMPLEXITY>
970
> <PUBCHEM_CACTVS_HBOND_ACCEPTOR>
6
> <PUBCHEM_CACTVS_HBOND_DONOR>
4
> <PUBCHEM_CACTVS_ROTATABLE_BOND>
9
> <PUBCHEM_CACTVS_SUBSKEYS>
AAADcfB/OABAAAAAAAAAAAAAAAAAAWAAAAAwYMAAAAAAAAABQAAAHgQQCAAADzzh2AayBoPAAgiIAiFSEAKCAABkIBAIiIHODMgKdjqi1TOUcQhk1hGYmYe6yPCPgAABAAAYAAAQAAIAADAAAAAAAAAAAA==
> <PUBCHEM_IUPAC_OPENEYE_NAME>
(4R)-N-(4-tert-butylcyclohexyl)-3-[(2S,3S)-2-hydroxy-3-[(3-hydroxy-2-methyl-benzoyl)amino]-4-phenyl-butanoyl]-5,5-dimethyl-thiazolidine-4-carboxamide
> <PUBCHEM_IUPAC_CAS_NAME>
(4R)-N-(4-tert-butylcyclohexyl)-3-[(2S,3S)-2-hydroxy-3-[[(3-hydroxy-2-methylphenyl)-oxomethyl]amino]-1-oxo-4-phenylbutyl]-5,5-dimethyl-4-thiazolidinecarboxamide
> <PUBCHEM_IUPAC_NAME_MARKUP>
(4<I>R</I>)-<I>N</I>-(4-<I>tert</I>-butylcyclohexyl)-3-[(2<I>S</I>,3<I>S</I>)-2-hydroxy-3-[(3-hydroxy-2-methylbenzoyl)amino]-4-phenylbutanoyl]-5,5-dimethyl-1,3-thiazolidine-4-carboxamide
> <PUBCHEM_IUPAC_NAME>
(4R)-N-(4-tert-butylcyclohexyl)-3-[(2S,3S)-2-hydroxy-3-[(3-hydroxy-2-methylbenzoyl)amino]-4-phenylbutanoyl]-5,5-dimethyl-1,3-thiazolidine-4-carboxamide
> <PUBCHEM_IUPAC_SYSTEMATIC_NAME>
(4R)-N-(4-tert-butylcyclohexyl)-5,5-dimethyl-3-[(2S,3S)-3-[(2-methyl-3-oxidanyl-phenyl)carbonylamino]-2-oxidanyl-4-phenyl-butanoyl]-1,3-thiazolidine-4-carboxamide
> <PUBCHEM_IUPAC_TRADITIONAL_NAME>
(4R)-N-(4-tert-butylcyclohexyl)-3-[(2S,3S)-2-hydroxy-3-[(3-hydroxy-2-methyl-benzoyl)amino]-4-phenyl-butanoyl]-5,5-dimethyl-thiazolidine-4-carboxamide
> <PUBCHEM_IUPAC_INCHI>
InChI=1S/C34H47N3O5S/c1-21-25(13-10-14-27(21)38)30(40)36-26(19-22-11-8-7-9-12-22)28(39)32(42)37-20-43-34(5,6)29(37)31(41)35-24-17-15-23(16-18-24)33(2,3)4/h7-14,23-24,26,28-29,38-39H,15-20H2,1-6H3,(H,35,41)(H,36,40)/t23?,24?,26-,28-,29+/m0/s1
> <PUBCHEM_IUPAC_INCHIKEY>
DBTSOHLNASDRTQ-JPPAFOFTSA-N
> <PUBCHEM_XLOGP3_AA>
5.9
> <PUBCHEM_EXACT_MASS>
609.32364278
> <PUBCHEM_MOLECULAR_FORMULA>
C34H47N3O5S
> <PUBCHEM_MOLECULAR_WEIGHT>
609.8
> <PUBCHEM_OPENEYE_CAN_SMILES>
CC1=C(C=CC=C1O)C(=O)NC(CC2=CC=CC=C2)C(C(=O)N3CSC(C3C(=O)NC4CCC(CC4)C(C)(C)C)(C)C)O
> <PUBCHEM_OPENEYE_ISO_SMILES>
CC1=C(C=CC=C1O)C(=O)N[C@@H](CC2=CC=CC=C2)[C@@H](C(=O)N3CSC([C@H]3C(=O)NC4CCC(CC4)C(C)(C)C)(C)C)O
> <PUBCHEM_CACTVS_TPSA>
144
> <PUBCHEM_MONOISOTOPIC_WEIGHT>
609.32364278
> <PUBCHEM_TOTAL_CHARGE>
0
> <PUBCHEM_HEAVY_ATOM_COUNT>
43
> <PUBCHEM_ATOM_DEF_STEREO_COUNT>
3
> <PUBCHEM_ATOM_UDEF_STEREO_COUNT>
0
> <PUBCHEM_BOND_DEF_STEREO_COUNT>
0
> <PUBCHEM_BOND_UDEF_STEREO_COUNT>
0
> <PUBCHEM_ISOTOPIC_ATOM_COUNT>
0
> <PUBCHEM_COMPONENT_COUNT>
1
> <PUBCHEM_CACTVS_TAUTO_COUNT>
-1
> <PUBCHEM_COORDINATE_TYPE>
1
5
255
> <PUBCHEM_BONDANNOTATIONS>
20  22  5
30  32  8
30  33  8
32  35  8
33  36  8
34  37  8
34  39  8
35  38  8
36  38  8
37  40  8
39  42  8
27  4  6
40  43  8
42  43  8
28  9  5
$$$$
