514718
  -OEChem-10302200282D
 72 75  0     1  0  0  0  0  0999 V2000
    9.2460    0.7869    0.0000 S   0  0  0  0  0  0  0  0  0  0  0  0
    4.2213    3.1815    0.0000 S   0  0  0  0  0  0  0  0  0  0  0  0
    9.6121   -2.2519    0.0000 O   0  0  0  0  0  0  0  0  0  0  0  0
    6.4507    1.1741    0.0000 O   0  0  0  0  0  0  0  0  0  0  0  0
    6.7780   -1.4513    0.0000 O   0  0  0  0  0  0  0  0  0  0  0  0
    5.7076    1.8433    0.0000 O   0  0  0  0  0  0  0  0  0  0  0  0
    7.9370   -0.1641    0.0000 N   0  0  0  0  0  0  0  0  0  0  0  0
    7.8800   -2.2519    0.0000 N   0  0  0  0  0  0  0  0  0  0  0  0
    4.5486    0.5561    0.0000 N   0  0  0  0  0  0  0  0  0  0  0  0
    3.5827    4.8452    0.0000 N   0  0  0  0  0  0  0  0  0  0  0  0
    2.5000    3.6427    0.0000 N   0  0  0  0  0  0  0  0  0  0  0  0
    2.6691    5.2519    0.0000 N   0  0  0  0  0  0  0  0  0  0  0  0
    9.5550   -0.1641    0.0000 C   0  0  0  0  0  0  0  0  0  0  0  0
    8.7460   -0.7519    0.0000 C   0  0  1  0  0  0  0  0  0  0  0  0
    8.2460    0.7869    0.0000 C   0  0  0  0  0  0  0  0  0  0  0  0
   10.5061    0.1449    0.0000 C   0  0  0  0  0  0  0  0  0  0  0  0
   10.1428   -0.9731    0.0000 C   0  0  0  0  0  0  0  0  0  0  0  0
    8.7460   -1.7519    0.0000 C   0  0  0  0  0  0  0  0  0  0  0  0
    6.9860   -0.4731    0.0000 C   0  0  0  0  0  0  0  0  0  0  0  0
    6.2428    0.1960    0.0000 C   0  0  2  0  0  0  0  0  0  0  0  0
    7.8800   -3.2519    0.0000 C   0  0  1  0  0  0  0  0  0  0  0  0
    5.2918   -0.1130    0.0000 C   0  0  2  0  0  0  0  0  0  0  0  0
    7.0140   -3.7519    0.0000 C   0  0  0  0  0  0  0  0  0  0  0  0
    7.0140   -4.7519    0.0000 C   0  0  0  0  0  0  0  0  0  0  0  0
    5.0838   -1.0912    0.0000 C   0  0  0  0  0  0  0  0  0  0  0  0
    8.7460   -3.7519    0.0000 C   0  0  0  0  0  0  0  0  0  0  0  0
    7.8800   -5.2519    0.0000 C   0  0  0  0  0  0  0  0  0  0  0  0
    8.7460   -4.7519    0.0000 C   0  0  0  0  0  0  0  0  0  0  0  0
    4.1328   -1.4002    0.0000 C   0  0  0  0  0  0  0  0  0  0  0  0
    4.7565    1.5342    0.0000 C   0  0  0  0  0  0  0  0  0  0  0  0
    3.9249   -2.3783    0.0000 C   0  0  0  0  0  0  0  0  0  0  0  0
    3.3896   -0.7311    0.0000 C   0  0  0  0  0  0  0  0  0  0  0  0
    4.0134    2.2034    0.0000 C   0  0  0  0  0  0  0  0  0  0  0  0
    2.9738   -2.6874    0.0000 C   0  0  0  0  0  0  0  0  0  0  0  0
    2.4386   -1.0401    0.0000 C   0  0  0  0  0  0  0  0  0  0  0  0
    2.2307   -2.0182    0.0000 C   0  0  0  0  0  0  0  0  0  0  0  0
    3.4782    3.8507    0.0000 C   0  0  0  0  0  0  0  0  0  0  0  0
    2.0000    4.5088    0.0000 C   0  0  0  0  0  0  0  0  0  0  0  0
    8.1936   -1.0334    0.0000 H   0  0  0  0  0  0  0  0  0  0  0  0
    8.3108    1.4035    0.0000 H   0  0  0  0  0  0  0  0  0  0  0  0
    7.6396    0.9158    0.0000 H   0  0  0  0  0  0  0  0  0  0  0  0
   10.6977   -0.4448    0.0000 H   0  0  0  0  0  0  0  0  0  0  0  0
   11.0958    0.3365    0.0000 H   0  0  0  0  0  0  0  0  0  0  0  0
   10.3145    0.7345    0.0000 H   0  0  0  0  0  0  0  0  0  0  0  0
    9.6412   -1.3376    0.0000 H   0  0  0  0  0  0  0  0  0  0  0  0
   10.5073   -1.4747    0.0000 H   0  0  0  0  0  0  0  0  0  0  0  0
   10.6444   -0.6087    0.0000 H   0  0  0  0  0  0  0  0  0  0  0  0
    5.7821    0.6108    0.0000 H   0  0  0  0  0  0  0  0  0  0  0  0
    8.4169   -2.9419    0.0000 H   0  0  0  0  0  0  0  0  0  0  0  0
    7.3431   -1.9419    0.0000 H   0  0  0  0  0  0  0  0  0  0  0  0
    4.7021   -0.3046    0.0000 H   0  0  0  0  0  0  0  0  0  0  0  0
    6.8019   -3.1693    0.0000 H   0  0  0  0  0  0  0  0  0  0  0  0
    6.4034   -3.8596    0.0000 H   0  0  0  0  0  0  0  0  0  0  0  0
    6.4034   -4.6443    0.0000 H   0  0  0  0  0  0  0  0  0  0  0  0
    6.8019   -5.3345    0.0000 H   0  0  0  0  0  0  0  0  0  0  0  0
    5.1701   -1.7052    0.0000 H   0  0  0  0  0  0  0  0  0  0  0  0
    5.7035   -1.1128    0.0000 H   0  0  0  0  0  0  0  0  0  0  0  0
    9.2830   -3.4419    0.0000 H   0  0  0  0  0  0  0  0  0  0  0  0
    7.4815   -5.7269    0.0000 H   0  0  0  0  0  0  0  0  0  0  0  0
    8.2785   -5.7269    0.0000 H   0  0  0  0  0  0  0  0  0  0  0  0
    9.2830   -5.0619    0.0000 H   0  0  0  0  0  0  0  0  0  0  0  0
    3.9590    0.3645    0.0000 H   0  0  0  0  0  0  0  0  0  0  0  0
    7.0404    1.3657    0.0000 H   0  0  0  0  0  0  0  0  0  0  0  0
    4.3856   -2.7932    0.0000 H   0  0  0  0  0  0  0  0  0  0  0  0
    3.5186   -0.1246    0.0000 H   0  0  0  0  0  0  0  0  0  0  0  0
    3.4385    2.4356    0.0000 H   0  0  0  0  0  0  0  0  0  0  0  0
    3.6848    1.6776    0.0000 H   0  0  0  0  0  0  0  0  0  0  0  0
    2.8449   -3.2938    0.0000 H   0  0  0  0  0  0  0  0  0  0  0  0
    1.9778   -0.6252    0.0000 H   0  0  0  0  0  0  0  0  0  0  0  0
    1.6410   -2.2098    0.0000 H   0  0  0  0  0  0  0  0  0  0  0  0
    4.1196    5.1552    0.0000 H   0  0  0  0  0  0  0  0  0  0  0  0
    1.3834    4.5736    0.0000 H   0  0  0  0  0  0  0  0  0  0  0  0
  1 13  1  0  0  0  0
  1 15  1  0  0  0  0
  2 33  1  0  0  0  0
  2 37  1  0  0  0  0
  3 18  2  0  0  0  0
 20  4  1  6  0  0  0
  4 63  1  0  0  0  0
  5 19  2  0  0  0  0
  6 30  2  0  0  0  0
  7 14  1  0  0  0  0
  7 15  1  0  0  0  0
  7 19  1  0  0  0  0
  8 18  1  0  0  0  0
 21  8  1  6  0  0  0
  8 50  1  0  0  0  0
 22  9  1  6  0  0  0
  9 30  1  0  0  0  0
  9 62  1  0  0  0  0
 10 12  1  0  0  0  0
 10 37  1  0  0  0  0
 10 71  1  0  0  0  0
 11 37  2  0  0  0  0
 11 38  1  0  0  0  0
 12 38  2  0  0  0  0
 13 14  1  0  0  0  0
 13 16  1  0  0  0  0
 13 17  1  0  0  0  0
 14 18  1  1  0  0  0
 14 39  1  0  0  0  0
 15 40  1  0  0  0  0
 15 41  1  0  0  0  0
 16 42  1  0  0  0  0
 16 43  1  0  0  0  0
 16 44  1  0  0  0  0
 17 45  1  0  0  0  0
 17 46  1  0  0  0  0
 17 47  1  0  0  0  0
 19 20  1  0  0  0  0
 20 22  1  0  0  0  0
 20 48  1  0  0  0  0
 21 23  1  0  0  0  0
 21 26  1  0  0  0  0
 21 49  1  0  0  0  0
 22 25  1  0  0  0  0
 22 51  1  0  0  0  0
 23 24  1  0  0  0  0
 23 52  1  0  0  0  0
 23 53  1  0  0  0  0
 24 27  1  0  0  0  0
 24 54  1  0  0  0  0
 24 55  1  0  0  0  0
 25 29  1  0  0  0  0
 25 56  1  0  0  0  0
 25 57  1  0  0  0  0
 26 28  2  0  0  0  0
 26 58  1  0  0  0  0
 27 28  1  0  0  0  0
 27 59  1  0  0  0  0
 27 60  1  0  0  0  0
 28 61  1  0  0  0  0
 29 31  2  0  0  0  0
 29 32  1  0  0  0  0
 30 33  1  0  0  0  0
 31 34  1  0  0  0  0
 31 64  1  0  0  0  0
 32 35  2  0  0  0  0
 32 65  1  0  0  0  0
 33 66  1  0  0  0  0
 33 67  1  0  0  0  0
 34 36  2  0  0  0  0
 34 68  1  0  0  0  0
 35 36  1  0  0  0  0
 35 69  1  0  0  0  0
 36 70  1  0  0  0  0
 38 72  1  0  0  0  0
M  END
> <PUBCHEM_COMPOUND_CID>
514718
> <PUBCHEM_COMPOUND_CANONICALIZED>
1
> <PUBCHEM_CACTVS_COMPLEXITY>
869
> <PUBCHEM_CACTVS_HBOND_ACCEPTOR>
8
> <PUBCHEM_CACTVS_HBOND_DONOR>
4
> <PUBCHEM_CACTVS_ROTATABLE_BOND>
10
> <PUBCHEM_CACTVS_SUBSKEYS>
AAADcfB7uABgAAAAAAAAAAAAAAAAAWLAAAAwQAAAAAAAAAABwAAAHgQYCAAADDzl2Aa3EIfrEgiqAiFTNAKSUgvwgJAN6IHIAIiKeDqg0TGUYAAklgCYiAeYyKCOAAAAAAAAAAAAAAAAAAAAAAAAAAAAAA==
> <PUBCHEM_IUPAC_OPENEYE_NAME>
(4R)-N-[(1S)-cyclohex-2-en-1-yl]-3-[(2S,3S)-2-hydroxy-4-phenyl-3-[[2-(1H-1,2,4-triazol-5-ylsulfanyl)acetyl]amino]butanoyl]-5,5-dimethyl-thiazolidine-4-carboxamide
> <PUBCHEM_IUPAC_CAS_NAME>
(4R)-N-[(1S)-1-cyclohex-2-enyl]-3-[(2S,3S)-2-hydroxy-1-oxo-3-[[1-oxo-2-(1H-1,2,4-triazol-5-ylthio)ethyl]amino]-4-phenylbutyl]-5,5-dimethyl-4-thiazolidinecarboxamide
> <PUBCHEM_IUPAC_NAME_MARKUP>
(4<I>R</I>)-<I>N</I>-[(1<I>S</I>)-cyclohex-2-en-1-yl]-3-[(2<I>S</I>,3<I>S</I>)-2-hydroxy-4-phenyl-3-[[2-(1<I>H</I>-1,2,4-triazol-5-ylsulfanyl)acetyl]amino]butanoyl]-5,5-dimethyl-1,3-thiazolidine-4-carboxamide
> <PUBCHEM_IUPAC_NAME>
(4R)-N-[(1S)-cyclohex-2-en-1-yl]-3-[(2S,3S)-2-hydroxy-4-phenyl-3-[[2-(1H-1,2,4-triazol-5-ylsulfanyl)acetyl]amino]butanoyl]-5,5-dimethyl-1,3-thiazolidine-4-carboxamide
> <PUBCHEM_IUPAC_SYSTEMATIC_NAME>
(4R)-N-[(1S)-cyclohex-2-en-1-yl]-5,5-dimethyl-3-[(2S,3S)-2-oxidanyl-4-phenyl-3-[2-(1H-1,2,4-triazol-5-ylsulfanyl)ethanoylamino]butanoyl]-1,3-thiazolidine-4-carboxamide
> <PUBCHEM_IUPAC_TRADITIONAL_NAME>
(4R)-N-[(1S)-cyclohex-2-en-1-yl]-3-[(2S,3S)-2-hydroxy-4-phenyl-3-[[2-(1H-1,2,4-triazol-5-ylthio)acetyl]amino]butanoyl]-5,5-dimethyl-thiazolidine-4-carboxamide
> <PUBCHEM_IUPAC_INCHI>
InChI=1S/C26H34N6O4S2/c1-26(2)22(23(35)29-18-11-7-4-8-12-18)32(16-38-26)24(36)21(34)19(13-17-9-5-3-6-10-17)30-20(33)14-37-25-27-15-28-31-25/h3,5-7,9-11,15,18-19,21-22,34H,4,8,12-14,16H2,1-2H3,(H,29,35)(H,30,33)(H,27,28,31)/t18-,19+,21+,22-/m1/s1
> <PUBCHEM_IUPAC_INCHIKEY>
SJIONEWHOYJZIU-XMGTWHOFSA-N
> <PUBCHEM_XLOGP3_AA>
3
> <PUBCHEM_EXACT_MASS>
558.20829593
> <PUBCHEM_MOLECULAR_FORMULA>
C26H34N6O4S2
> <PUBCHEM_MOLECULAR_WEIGHT>
558.7
> <PUBCHEM_OPENEYE_CAN_SMILES>
CC1(C(N(CS1)C(=O)C(C(CC2=CC=CC=C2)NC(=O)CSC3=NC=NN3)O)C(=O)NC4CCCC=C4)C
> <PUBCHEM_OPENEYE_ISO_SMILES>
CC1([C@H](N(CS1)C(=O)[C@H]([C@H](CC2=CC=CC=C2)NC(=O)CSC3=NC=NN3)O)C(=O)N[C@H]4CCCC=C4)C
> <PUBCHEM_CACTVS_TPSA>
191
> <PUBCHEM_MONOISOTOPIC_WEIGHT>
558.20829593
> <PUBCHEM_TOTAL_CHARGE>
0
> <PUBCHEM_HEAVY_ATOM_COUNT>
38
> <PUBCHEM_ATOM_DEF_STEREO_COUNT>
4
> <PUBCHEM_ATOM_UDEF_STEREO_COUNT>
0
> <PUBCHEM_BOND_DEF_STEREO_COUNT>
0
> <PUBCHEM_BOND_UDEF_STEREO_COUNT>
0
> <PUBCHEM_ISOTOPIC_ATOM_COUNT>
0
> <PUBCHEM_COMPONENT_COUNT>
1
> <PUBCHEM_CACTVS_TAUTO_COUNT>
-1
> <PUBCHEM_COORDINATE_TYPE>
1
5
255
> <PUBCHEM_BONDANNOTATIONS>
10  12  8
10  37  8
11  37  8
11  38  8
12  38  8
14  18  5
29  31  8
29  32  8
31  34  8
32  35  8
34  36  8
35  36  8
20  4  6
21  8  6
22  9  6
$$$$
