514728
  -OEChem-10302200282D
 79 82  0     1  0  0  0  0  0999 V2000
    7.4128    2.5124    0.0000 S   0  0  0  0  0  0  0  0  0  0  0  0
    4.5981    2.3100    0.0000 O   0  0  0  0  0  0  0  0  0  0  0  0
    5.4641   -0.1900    0.0000 O   0  0  0  0  0  0  0  0  0  0  0  0
    6.7084   -0.7440    0.0000 O   0  0  0  0  0  0  0  0  0  0  0  0
    2.0000   -0.1900    0.0000 O   0  0  0  0  0  0  0  0  0  0  0  0
    6.3301    1.3100    0.0000 N   0  0  0  0  0  0  0  0  0  0  0  0
    3.7320   -0.1900    0.0000 N   0  0  0  0  0  0  0  0  0  0  0  0
    2.8660   -3.6900    0.0000 N   0  0  0  0  0  0  0  0  0  0  0  0
    8.4026   -0.3839    0.0000 N   0  0  0  0  0  0  0  0  0  0  0  0
    7.9128    1.6464    0.0000 C   0  0  0  0  0  0  0  0  0  0  0  0
    7.2437    0.9033    0.0000 C   0  0  1  0  0  0  0  0  0  0  0  0
    6.4347    2.3045    0.0000 C   0  0  0  0  0  0  0  0  0  0  0  0
    3.7320    0.8100    0.0000 C   0  0  2  0  0  0  0  0  0  0  0  0
    4.5981    1.3100    0.0000 C   0  0  1  0  0  0  0  0  0  0  0  0
    8.7788    2.1464    0.0000 C   0  0  0  0  0  0  0  0  0  0  0  0
    8.6560    0.9773    0.0000 C   0  0  0  0  0  0  0  0  0  0  0  0
    5.4641    0.8100    0.0000 C   0  0  0  0  0  0  0  0  0  0  0  0
    2.8660   -1.6900    0.0000 C   0  0  0  0  0  0  0  0  0  0  0  0
    7.4516   -0.0749    0.0000 C   0  0  0  0  0  0  0  0  0  0  0  0
    2.0000   -2.1900    0.0000 C   0  0  0  0  0  0  0  0  0  0  0  0
    3.7320   -2.1900    0.0000 C   0  0  0  0  0  0  0  0  0  0  0  0
    2.8660    1.3100    0.0000 C   0  0  0  0  0  0  0  0  0  0  0  0
    2.8660   -0.6900    0.0000 C   0  0  0  0  0  0  0  0  0  0  0  0
    2.0000   -3.1900    0.0000 C   0  0  0  0  0  0  0  0  0  0  0  0
    3.7320   -3.1900    0.0000 C   0  0  0  0  0  0  0  0  0  0  0  0
    2.8660    2.3100    0.0000 C   0  0  0  0  0  0  0  0  0  0  0  0
    8.6106   -1.3620    0.0000 C   0  0  0  0  0  0  0  0  0  0  0  0
    2.0000    2.8100    0.0000 C   0  0  0  0  0  0  0  0  0  0  0  0
    3.7320    2.8100    0.0000 C   0  0  0  0  0  0  0  0  0  0  0  0
    9.5616   -1.6711    0.0000 C   0  0  0  0  0  0  0  0  0  0  0  0
    9.7695   -2.6492    0.0000 C   0  0  0  0  0  0  0  0  0  0  0  0
    2.0000    3.8100    0.0000 C   0  0  0  0  0  0  0  0  0  0  0  0
    3.7320    3.8100    0.0000 C   0  0  0  0  0  0  0  0  0  0  0  0
   10.3048   -1.0019    0.0000 C   0  0  0  0  0  0  0  0  0  0  0  0
    2.8660    4.3100    0.0000 C   0  0  0  0  0  0  0  0  0  0  0  0
   10.7206   -2.9582    0.0000 C   0  0  0  0  0  0  0  0  0  0  0  0
    9.0264   -3.3183    0.0000 C   0  0  0  0  0  0  0  0  0  0  0  0
   11.2558   -1.3110    0.0000 C   0  0  0  0  0  0  0  0  0  0  0  0
   11.4637   -2.2891    0.0000 C   0  0  0  0  0  0  0  0  0  0  0  0
    6.7618    0.5131    0.0000 H   0  0  0  0  0  0  0  0  0  0  0  0
    6.3698    2.9211    0.0000 H   0  0  0  0  0  0  0  0  0  0  0  0
    5.8147    2.3045    0.0000 H   0  0  0  0  0  0  0  0  0  0  0  0
    4.2690    0.5000    0.0000 H   0  0  0  0  0  0  0  0  0  0  0  0
    5.1350    1.6200    0.0000 H   0  0  0  0  0  0  0  0  0  0  0  0
    9.0888    1.6095    0.0000 H   0  0  0  0  0  0  0  0  0  0  0  0
    9.3158    2.4564    0.0000 H   0  0  0  0  0  0  0  0  0  0  0  0
    8.4688    2.6833    0.0000 H   0  0  0  0  0  0  0  0  0  0  0  0
    8.2411    0.5165    0.0000 H   0  0  0  0  0  0  0  0  0  0  0  0
    9.1167    0.5624    0.0000 H   0  0  0  0  0  0  0  0  0  0  0  0
    9.0708    1.4380    0.0000 H   0  0  0  0  0  0  0  0  0  0  0  0
    3.4030   -1.3800    0.0000 H   0  0  0  0  0  0  0  0  0  0  0  0
    1.7880   -1.6074    0.0000 H   0  0  0  0  0  0  0  0  0  0  0  0
    1.3894   -2.2977    0.0000 H   0  0  0  0  0  0  0  0  0  0  0  0
    4.3426   -2.2977    0.0000 H   0  0  0  0  0  0  0  0  0  0  0  0
    3.9441   -1.6074    0.0000 H   0  0  0  0  0  0  0  0  0  0  0  0
    4.2690   -0.5000    0.0000 H   0  0  0  0  0  0  0  0  0  0  0  0
    2.2554    1.4177    0.0000 H   0  0  0  0  0  0  0  0  0  0  0  0
    2.6540    0.7274    0.0000 H   0  0  0  0  0  0  0  0  0  0  0  0
    1.3894   -3.0823    0.0000 H   0  0  0  0  0  0  0  0  0  0  0  0
    1.7880   -3.7726    0.0000 H   0  0  0  0  0  0  0  0  0  0  0  0
    3.9441   -3.7726    0.0000 H   0  0  0  0  0  0  0  0  0  0  0  0
    4.3426   -3.0823    0.0000 H   0  0  0  0  0  0  0  0  0  0  0  0
    2.8660   -4.3100    0.0000 H   0  0  0  0  0  0  0  0  0  0  0  0
    8.8634    0.0310    0.0000 H   0  0  0  0  0  0  0  0  0  0  0  0
    5.1350    2.6200    0.0000 H   0  0  0  0  0  0  0  0  0  0  0  0
    7.9909   -1.3837    0.0000 H   0  0  0  0  0  0  0  0  0  0  0  0
    8.5243   -1.9760    0.0000 H   0  0  0  0  0  0  0  0  0  0  0  0
    1.4631    2.5000    0.0000 H   0  0  0  0  0  0  0  0  0  0  0  0
    4.2690    2.5000    0.0000 H   0  0  0  0  0  0  0  0  0  0  0  0
    1.4631    4.1200    0.0000 H   0  0  0  0  0  0  0  0  0  0  0  0
    4.2690    4.1200    0.0000 H   0  0  0  0  0  0  0  0  0  0  0  0
   10.1758   -0.3955    0.0000 H   0  0  0  0  0  0  0  0  0  0  0  0
    2.8660    4.9300    0.0000 H   0  0  0  0  0  0  0  0  0  0  0  0
   10.8495   -3.5647    0.0000 H   0  0  0  0  0  0  0  0  0  0  0  0
    8.6115   -2.8576    0.0000 H   0  0  0  0  0  0  0  0  0  0  0  0
    8.5656   -3.7332    0.0000 H   0  0  0  0  0  0  0  0  0  0  0  0
    9.4412   -3.7791    0.0000 H   0  0  0  0  0  0  0  0  0  0  0  0
   11.7166   -0.8961    0.0000 H   0  0  0  0  0  0  0  0  0  0  0  0
   12.0534   -2.4807    0.0000 H   0  0  0  0  0  0  0  0  0  0  0  0
  1 10  1  0  0  0  0
  1 12  1  0  0  0  0
 14  2  1  6  0  0  0
  2 65  1  0  0  0  0
  3 17  2  0  0  0  0
  4 19  2  0  0  0  0
  5 23  2  0  0  0  0
  6 11  1  0  0  0  0
  6 12  1  0  0  0  0
  6 17  1  0  0  0  0
 13  7  1  1  0  0  0
  7 23  1  0  0  0  0
  7 56  1  0  0  0  0
  8 24  1  0  0  0  0
  8 25  1  0  0  0  0
  8 63  1  0  0  0  0
  9 19  1  0  0  0  0
  9 27  1  0  0  0  0
  9 64  1  0  0  0  0
 10 11  1  0  0  0  0
 10 15  1  0  0  0  0
 10 16  1  0  0  0  0
 11 19  1  1  0  0  0
 11 40  1  0  0  0  0
 12 41  1  0  0  0  0
 12 42  1  0  0  0  0
 13 14  1  0  0  0  0
 13 22  1  0  0  0  0
 13 43  1  0  0  0  0
 14 17  1  0  0  0  0
 14 44  1  0  0  0  0
 15 45  1  0  0  0  0
 15 46  1  0  0  0  0
 15 47  1  0  0  0  0
 16 48  1  0  0  0  0
 16 49  1  0  0  0  0
 16 50  1  0  0  0  0
 18 20  1  0  0  0  0
 18 21  1  0  0  0  0
 18 23  1  0  0  0  0
 18 51  1  0  0  0  0
 20 24  1  0  0  0  0
 20 52  1  0  0  0  0
 20 53  1  0  0  0  0
 21 25  1  0  0  0  0
 21 54  1  0  0  0  0
 21 55  1  0  0  0  0
 22 26  1  0  0  0  0
 22 57  1  0  0  0  0
 22 58  1  0  0  0  0
 24 59  1  0  0  0  0
 24 60  1  0  0  0  0
 25 61  1  0  0  0  0
 25 62  1  0  0  0  0
 26 28  2  0  0  0  0
 26 29  1  0  0  0  0
 27 30  1  0  0  0  0
 27 66  1  0  0  0  0
 27 67  1  0  0  0  0
 28 32  1  0  0  0  0
 28 68  1  0  0  0  0
 29 33  2  0  0  0  0
 29 69  1  0  0  0  0
 30 31  1  0  0  0  0
 30 34  2  0  0  0  0
 31 36  2  0  0  0  0
 31 37  1  0  0  0  0
 32 35  2  0  0  0  0
 32 70  1  0  0  0  0
 33 35  1  0  0  0  0
 33 71  1  0  0  0  0
 34 38  1  0  0  0  0
 34 72  1  0  0  0  0
 35 73  1  0  0  0  0
 36 39  1  0  0  0  0
 36 74  1  0  0  0  0
 37 75  1  0  0  0  0
 37 76  1  0  0  0  0
 37 77  1  0  0  0  0
 38 39  2  0  0  0  0
 38 78  1  0  0  0  0
 39 79  1  0  0  0  0
M  END
> <PUBCHEM_COMPOUND_CID>
514728
> <PUBCHEM_COMPOUND_CANONICALIZED>
1
> <PUBCHEM_CACTVS_COMPLEXITY>
843
> <PUBCHEM_CACTVS_HBOND_ACCEPTOR>
6
> <PUBCHEM_CACTVS_HBOND_DONOR>
4
> <PUBCHEM_CACTVS_ROTATABLE_BOND>
9
> <PUBCHEM_CACTVS_SUBSKEYS>
AAADcfB7uABAAAAAAAAAAAAAAAAAAWAAAAA8YIAAAAAAAAABQAAAHgQQCAAADTzh2AayAIPAAgiIAiFSEAKCAABgABAIiIHIBIgKcDqg0TGUYAhklgCYiAecyKCOgAAAAAAQAAAAAAAAACAAAAAAAAAAAA==
> <PUBCHEM_IUPAC_OPENEYE_NAME>
(4R)-3-[(2S,3S)-2-hydroxy-4-phenyl-3-(piperidine-4-carbonylamino)butanoyl]-5,5-dimethyl-N-(o-tolylmethyl)thiazolidine-4-carboxamide
> <PUBCHEM_IUPAC_CAS_NAME>
(4R)-3-[(2S,3S)-2-hydroxy-1-oxo-3-[[oxo(4-piperidinyl)methyl]amino]-4-phenylbutyl]-5,5-dimethyl-N-[(2-methylphenyl)methyl]-4-thiazolidinecarboxamide
> <PUBCHEM_IUPAC_NAME_MARKUP>
(4<I>R</I>)-3-[(2<I>S</I>,3<I>S</I>)-2-hydroxy-4-phenyl-3-(piperidine-4-carbonylamino)butanoyl]-5,5-dimethyl-<I>N</I>-[(2-methylphenyl)methyl]-1,3-thiazolidine-4-carboxamide
> <PUBCHEM_IUPAC_NAME>
(4R)-3-[(2S,3S)-2-hydroxy-4-phenyl-3-(piperidine-4-carbonylamino)butanoyl]-5,5-dimethyl-N-[(2-methylphenyl)methyl]-1,3-thiazolidine-4-carboxamide
> <PUBCHEM_IUPAC_SYSTEMATIC_NAME>
(4R)-5,5-dimethyl-N-[(2-methylphenyl)methyl]-3-[(2S,3S)-2-oxidanyl-4-phenyl-3-(piperidin-4-ylcarbonylamino)butanoyl]-1,3-thiazolidine-4-carboxamide
> <PUBCHEM_IUPAC_TRADITIONAL_NAME>
(4R)-3-[(2S,3S)-2-hydroxy-3-(isonipecotoylamino)-4-phenyl-butanoyl]-5,5-dimethyl-N-(2-methylbenzyl)thiazolidine-4-carboxamide
> <PUBCHEM_IUPAC_INCHI>
InChI=1S/C30H40N4O4S/c1-20-9-7-8-12-23(20)18-32-28(37)26-30(2,3)39-19-34(26)29(38)25(35)24(17-21-10-5-4-6-11-21)33-27(36)22-13-15-31-16-14-22/h4-12,22,24-26,31,35H,13-19H2,1-3H3,(H,32,37)(H,33,36)/t24-,25-,26+/m0/s1
> <PUBCHEM_IUPAC_INCHIKEY>
HIDRLQOITVZFHG-KKUQBAQOSA-N
> <PUBCHEM_XLOGP3_AA>
2.8
> <PUBCHEM_EXACT_MASS>
552.27702694
> <PUBCHEM_MOLECULAR_FORMULA>
C30H40N4O4S
> <PUBCHEM_MOLECULAR_WEIGHT>
552.7
> <PUBCHEM_OPENEYE_CAN_SMILES>
CC1=CC=CC=C1CNC(=O)C2C(SCN2C(=O)C(C(CC3=CC=CC=C3)NC(=O)C4CCNCC4)O)(C)C
> <PUBCHEM_OPENEYE_ISO_SMILES>
CC1=CC=CC=C1CNC(=O)[C@@H]2C(SCN2C(=O)[C@H]([C@H](CC3=CC=CC=C3)NC(=O)C4CCNCC4)O)(C)C
> <PUBCHEM_CACTVS_TPSA>
136
> <PUBCHEM_MONOISOTOPIC_WEIGHT>
552.27702694
> <PUBCHEM_TOTAL_CHARGE>
0
> <PUBCHEM_HEAVY_ATOM_COUNT>
39
> <PUBCHEM_ATOM_DEF_STEREO_COUNT>
3
> <PUBCHEM_ATOM_UDEF_STEREO_COUNT>
0
> <PUBCHEM_BOND_DEF_STEREO_COUNT>
0
> <PUBCHEM_BOND_UDEF_STEREO_COUNT>
0
> <PUBCHEM_ISOTOPIC_ATOM_COUNT>
0
> <PUBCHEM_COMPONENT_COUNT>
1
> <PUBCHEM_CACTVS_TAUTO_COUNT>
-1
> <PUBCHEM_COORDINATE_TYPE>
1
5
255
> <PUBCHEM_BONDANNOTATIONS>
11  19  5
14  2  6
26  28  8
26  29  8
28  32  8
29  33  8
30  31  8
30  34  8
31  36  8
32  35  8
33  35  8
34  38  8
36  39  8
38  39  8
13  7  5
$$$$
