514765
  -OEChem-10302200282D
 80 84  0     1  0  0  0  0  0999 V2000
    8.1654   -2.5574    0.0000 S   0  0  0  0  0  0  0  0  0  0  0  0
    5.3884   -3.8445    0.0000 O   0  0  0  0  0  0  0  0  0  0  0  0
    5.2741   -0.9018    0.0000 O   0  0  0  0  0  0  0  0  0  0  0  0
    7.6699    0.2208    0.0000 O   0  0  0  0  0  0  0  0  0  0  0  0
    8.0766    1.1343    0.0000 O   0  0  0  0  0  0  0  0  0  0  0  0
   10.2913    3.9795    0.0000 O   0  0  0  0  0  0  0  0  0  0  0  0
    6.8564   -1.6063    0.0000 N   0  0  0  0  0  0  0  0  0  0  0  0
    4.8532   -2.1972    0.0000 N   0  0  0  0  0  0  0  0  0  0  0  0
    6.4943    1.8388    0.0000 N   0  0  0  0  0  0  0  0  0  0  0  0
    7.3564   -3.1451    0.0000 C   0  0  0  0  0  0  0  0  0  0  0  0
    6.5474   -2.5574    0.0000 C   0  0  2  0  0  0  0  0  0  0  0  0
    8.1654   -3.7329    0.0000 C   0  0  0  0  0  0  0  0  0  0  0  0
    6.5474   -3.7329    0.0000 C   0  0  0  0  0  0  0  0  0  0  0  0
    7.8564   -4.6840    0.0000 C   0  0  0  0  0  0  0  0  0  0  0  0
    6.8564   -4.6840    0.0000 C   0  0  0  0  0  0  0  0  0  0  0  0
    7.8564   -1.6063    0.0000 C   0  0  0  0  0  0  0  0  0  0  0  0
    5.5963   -2.8664    0.0000 C   0  0  0  0  0  0  0  0  0  0  0  0
    6.2686   -0.7973    0.0000 C   0  0  0  0  0  0  0  0  0  0  0  0
    6.6753    0.1163    0.0000 C   0  0  2  0  0  0  0  0  0  0  0  0
    3.9021   -2.5063    0.0000 C   0  0  1  0  0  0  0  0  0  0  0  0
    6.0876    0.9253    0.0000 C   0  0  2  0  0  0  0  0  0  0  0  0
    3.1590   -1.8371    0.0000 C   0  0  0  0  0  0  0  0  0  0  0  0
    3.6942   -3.4844    0.0000 C   0  0  0  0  0  0  0  0  0  0  0  0
    2.2079   -2.1462    0.0000 C   0  0  0  0  0  0  0  0  0  0  0  0
    5.0930    0.8207    0.0000 C   0  0  0  0  0  0  0  0  0  0  0  0
    2.0000   -3.1243    0.0000 C   0  0  0  0  0  0  0  0  0  0  0  0
    2.7431   -3.7934    0.0000 C   0  0  0  0  0  0  0  0  0  0  0  0
    4.5052    1.6298    0.0000 C   0  0  0  0  0  0  0  0  0  0  0  0
    7.4888    1.9434    0.0000 C   0  0  0  0  0  0  0  0  0  0  0  0
    3.5107    1.5252    0.0000 C   0  0  0  0  0  0  0  0  0  0  0  0
    4.9120    2.5433    0.0000 C   0  0  0  0  0  0  0  0  0  0  0  0
    7.8956    2.8569    0.0000 C   0  0  0  0  0  0  0  0  0  0  0  0
    2.9229    2.3342    0.0000 C   0  0  0  0  0  0  0  0  0  0  0  0
    4.3242    3.3523    0.0000 C   0  0  0  0  0  0  0  0  0  0  0  0
    8.8901    2.9614    0.0000 C   0  0  0  0  0  0  0  0  0  0  0  0
    3.3297    3.2478    0.0000 C   0  0  0  0  0  0  0  0  0  0  0  0
    7.3078    3.6659    0.0000 C   0  0  0  0  0  0  0  0  0  0  0  0
    9.2968    3.8750    0.0000 C   0  0  0  0  0  0  0  0  0  0  0  0
    9.4779    2.1524    0.0000 C   0  0  0  0  0  0  0  0  0  0  0  0
    7.7145    4.5795    0.0000 C   0  0  0  0  0  0  0  0  0  0  0  0
    8.7090    4.6840    0.0000 C   0  0  0  0  0  0  0  0  0  0  0  0
    6.1090   -2.1190    0.0000 H   0  0  0  0  0  0  0  0  0  0  0  0
    8.7318   -3.9851    0.0000 H   0  0  0  0  0  0  0  0  0  0  0  0
    8.4754   -3.1960    0.0000 H   0  0  0  0  0  0  0  0  0  0  0  0
    6.2374   -3.1960    0.0000 H   0  0  0  0  0  0  0  0  0  0  0  0
    5.9810   -3.9851    0.0000 H   0  0  0  0  0  0  0  0  0  0  0  0
    7.7916   -5.3006    0.0000 H   0  0  0  0  0  0  0  0  0  0  0  0
    8.4628   -4.8129    0.0000 H   0  0  0  0  0  0  0  0  0  0  0  0
    6.2499   -4.8129    0.0000 H   0  0  0  0  0  0  0  0  0  0  0  0
    6.9212   -5.3006    0.0000 H   0  0  0  0  0  0  0  0  0  0  0  0
    8.4628   -1.4774    0.0000 H   0  0  0  0  0  0  0  0  0  0  0  0
    7.7916   -0.9897    0.0000 H   0  0  0  0  0  0  0  0  0  0  0  0
    4.9821   -1.5908    0.0000 H   0  0  0  0  0  0  0  0  0  0  0  0
    6.9275    0.6827    0.0000 H   0  0  0  0  0  0  0  0  0  0  0  0
    4.3629   -2.9211    0.0000 H   0  0  0  0  0  0  0  0  0  0  0  0
    5.7231    1.4269    0.0000 H   0  0  0  0  0  0  0  0  0  0  0  0
    3.6475   -1.4554    0.0000 H   0  0  0  0  0  0  0  0  0  0  0  0
    2.8679   -1.2897    0.0000 H   0  0  0  0  0  0  0  0  0  0  0  0
    4.1550   -3.8993    0.0000 H   0  0  0  0  0  0  0  0  0  0  0  0
    2.1216   -1.5322    0.0000 H   0  0  0  0  0  0  0  0  0  0  0  0
    1.5883   -2.1245    0.0000 H   0  0  0  0  0  0  0  0  0  0  0  0
    4.5358    0.5490    0.0000 H   0  0  0  0  0  0  0  0  0  0  0  0
    5.2639    0.2248    0.0000 H   0  0  0  0  0  0  0  0  0  0  0  0
    8.0343   -0.2808    0.0000 H   0  0  0  0  0  0  0  0  0  0  0  0
    1.4252   -2.8920    0.0000 H   0  0  0  0  0  0  0  0  0  0  0  0
    1.6714   -3.6501    0.0000 H   0  0  0  0  0  0  0  0  0  0  0  0
    6.1299    2.3404    0.0000 H   0  0  0  0  0  0  0  0  0  0  0  0
    2.6142   -4.3999    0.0000 H   0  0  0  0  0  0  0  0  0  0  0  0
    3.2586    0.9588    0.0000 H   0  0  0  0  0  0  0  0  0  0  0  0
    5.5286    2.6081    0.0000 H   0  0  0  0  0  0  0  0  0  0  0  0
    2.3063    2.2694    0.0000 H   0  0  0  0  0  0  0  0  0  0  0  0
    4.5764    3.9187    0.0000 H   0  0  0  0  0  0  0  0  0  0  0  0
    2.9652    3.7494    0.0000 H   0  0  0  0  0  0  0  0  0  0  0  0
    6.6912    3.6011    0.0000 H   0  0  0  0  0  0  0  0  0  0  0  0
    8.9763    1.7880    0.0000 H   0  0  0  0  0  0  0  0  0  0  0  0
    9.8423    1.6508    0.0000 H   0  0  0  0  0  0  0  0  0  0  0  0
    9.9794    2.5168    0.0000 H   0  0  0  0  0  0  0  0  0  0  0  0
    7.3501    5.0810    0.0000 H   0  0  0  0  0  0  0  0  0  0  0  0
    8.9612    5.2504    0.0000 H   0  0  0  0  0  0  0  0  0  0  0  0
   10.5435    4.5459    0.0000 H   0  0  0  0  0  0  0  0  0  0  0  0
  1 10  1  0  0  0  0
  1 16  1  0  0  0  0
  2 17  2  0  0  0  0
  3 18  2  0  0  0  0
 19  4  1  6  0  0  0
  4 64  1  0  0  0  0
  5 29  2  0  0  0  0
  6 38  1  0  0  0  0
  6 80  1  0  0  0  0
  7 11  1  0  0  0  0
  7 16  1  0  0  0  0
  7 18  1  0  0  0  0
  8 17  1  0  0  0  0
 20  8  1  6  0  0  0
  8 53  1  0  0  0  0
 21  9  1  6  0  0  0
  9 29  1  0  0  0  0
  9 67  1  0  0  0  0
 10 11  1  0  0  0  0
 10 12  1  0  0  0  0
 10 13  1  0  0  0  0
 11 17  1  6  0  0  0
 11 42  1  0  0  0  0
 12 14  1  0  0  0  0
 12 43  1  0  0  0  0
 12 44  1  0  0  0  0
 13 15  1  0  0  0  0
 13 45  1  0  0  0  0
 13 46  1  0  0  0  0
 14 15  1  0  0  0  0
 14 47  1  0  0  0  0
 14 48  1  0  0  0  0
 15 49  1  0  0  0  0
 15 50  1  0  0  0  0
 16 51  1  0  0  0  0
 16 52  1  0  0  0  0
 18 19  1  0  0  0  0
 19 21  1  0  0  0  0
 19 54  1  0  0  0  0
 20 22  1  0  0  0  0
 20 23  1  0  0  0  0
 20 55  1  0  0  0  0
 21 25  1  0  0  0  0
 21 56  1  0  0  0  0
 22 24  1  0  0  0  0
 22 57  1  0  0  0  0
 22 58  1  0  0  0  0
 23 27  2  0  0  0  0
 23 59  1  0  0  0  0
 24 26  1  0  0  0  0
 24 60  1  0  0  0  0
 24 61  1  0  0  0  0
 25 28  1  0  0  0  0
 25 62  1  0  0  0  0
 25 63  1  0  0  0  0
 26 27  1  0  0  0  0
 26 65  1  0  0  0  0
 26 66  1  0  0  0  0
 27 68  1  0  0  0  0
 28 30  2  0  0  0  0
 28 31  1  0  0  0  0
 29 32  1  0  0  0  0
 30 33  1  0  0  0  0
 30 69  1  0  0  0  0
 31 34  2  0  0  0  0
 31 70  1  0  0  0  0
 32 35  2  0  0  0  0
 32 37  1  0  0  0  0
 33 36  2  0  0  0  0
 33 71  1  0  0  0  0
 34 36  1  0  0  0  0
 34 72  1  0  0  0  0
 35 38  1  0  0  0  0
 35 39  1  0  0  0  0
 36 73  1  0  0  0  0
 37 40  2  0  0  0  0
 37 74  1  0  0  0  0
 38 41  2  0  0  0  0
 39 75  1  0  0  0  0
 39 76  1  0  0  0  0
 39 77  1  0  0  0  0
 40 41  1  0  0  0  0
 40 78  1  0  0  0  0
 41 79  1  0  0  0  0
M  END
> <PUBCHEM_COMPOUND_CID>
514765
> <PUBCHEM_COMPOUND_CANONICALIZED>
1
> <PUBCHEM_CACTVS_COMPLEXITY>
963
> <PUBCHEM_CACTVS_HBOND_ACCEPTOR>
6
> <PUBCHEM_CACTVS_HBOND_DONOR>
4
> <PUBCHEM_CACTVS_ROTATABLE_BOND>
8
> <PUBCHEM_CACTVS_SUBSKEYS>
AAADcfB/OABAAAAAAAAAAAAAAAAAAeIAAAAwYIAAAAAAAAABQAAAHgQQCAAADDzh2AayBoPAAgiIAiFSEAKCAABkIBAIiIHODMgKdjqi1TOUcQhk1hGYmYe6yLCOgAABAAAYAAAAAAIAADAAAAAAAAAAAA==
> <PUBCHEM_IUPAC_OPENEYE_NAME>
(4S)-N-[(1S)-cyclohex-2-en-1-yl]-3-[(2S,3S)-2-hydroxy-3-[(3-hydroxy-2-methyl-benzoyl)amino]-4-phenyl-butanoyl]-1-thia-3-azaspiro[4.4]nonane-4-carboxamide
> <PUBCHEM_IUPAC_CAS_NAME>
(4S)-N-[(1S)-1-cyclohex-2-enyl]-3-[(2S,3S)-2-hydroxy-3-[[(3-hydroxy-2-methylphenyl)-oxomethyl]amino]-1-oxo-4-phenylbutyl]-1-thia-3-azaspiro[4.4]nonane-4-carboxamide
> <PUBCHEM_IUPAC_NAME_MARKUP>
(4<I>S</I>)-<I>N</I>-[(1<I>S</I>)-cyclohex-2-en-1-yl]-3-[(2<I>S</I>,3<I>S</I>)-2-hydroxy-3-[(3-hydroxy-2-methylbenzoyl)amino]-4-phenylbutanoyl]-1-thia-3-azaspiro[4.4]nonane-4-carboxamide
> <PUBCHEM_IUPAC_NAME>
(4S)-N-[(1S)-cyclohex-2-en-1-yl]-3-[(2S,3S)-2-hydroxy-3-[(3-hydroxy-2-methylbenzoyl)amino]-4-phenylbutanoyl]-1-thia-3-azaspiro[4.4]nonane-4-carboxamide
> <PUBCHEM_IUPAC_SYSTEMATIC_NAME>
(4S)-N-[(1S)-cyclohex-2-en-1-yl]-3-[(2S,3S)-3-[(2-methyl-3-oxidanyl-phenyl)carbonylamino]-2-oxidanyl-4-phenyl-butanoyl]-1-thia-3-azaspiro[4.4]nonane-4-carboxamide
> <PUBCHEM_IUPAC_TRADITIONAL_NAME>
(4S)-N-[(1S)-cyclohex-2-en-1-yl]-3-[(2S,3S)-2-hydroxy-3-[(3-hydroxy-2-methyl-benzoyl)amino]-4-phenyl-butanoyl]-1-thia-3-azaspiro[4.4]nonane-4-carboxamide
> <PUBCHEM_IUPAC_INCHI>
InChI=1S/C32H39N3O5S/c1-21-24(15-10-16-26(21)36)29(38)34-25(19-22-11-4-2-5-12-22)27(37)31(40)35-20-41-32(17-8-9-18-32)28(35)30(39)33-23-13-6-3-7-14-23/h2,4-6,10-13,15-16,23,25,27-28,36-37H,3,7-9,14,17-20H2,1H3,(H,33,39)(H,34,38)/t23-,25+,27+,28+/m1/s1
> <PUBCHEM_IUPAC_INCHIKEY>
ACVBIBMOFIWSAY-DEKSYSNASA-N
> <PUBCHEM_XLOGP3_AA>
4.5
> <PUBCHEM_EXACT_MASS>
577.26104253
> <PUBCHEM_MOLECULAR_FORMULA>
C32H39N3O5S
> <PUBCHEM_MOLECULAR_WEIGHT>
577.7
> <PUBCHEM_OPENEYE_CAN_SMILES>
CC1=C(C=CC=C1O)C(=O)NC(CC2=CC=CC=C2)C(C(=O)N3CSC4(C3C(=O)NC5CCCC=C5)CCCC4)O
> <PUBCHEM_OPENEYE_ISO_SMILES>
CC1=C(C=CC=C1O)C(=O)N[C@@H](CC2=CC=CC=C2)[C@@H](C(=O)N3CSC4([C@@H]3C(=O)N[C@H]5CCCC=C5)CCCC4)O
> <PUBCHEM_CACTVS_TPSA>
144
> <PUBCHEM_MONOISOTOPIC_WEIGHT>
577.26104253
> <PUBCHEM_TOTAL_CHARGE>
0
> <PUBCHEM_HEAVY_ATOM_COUNT>
41
> <PUBCHEM_ATOM_DEF_STEREO_COUNT>
4
> <PUBCHEM_ATOM_UDEF_STEREO_COUNT>
0
> <PUBCHEM_BOND_DEF_STEREO_COUNT>
0
> <PUBCHEM_BOND_UDEF_STEREO_COUNT>
0
> <PUBCHEM_ISOTOPIC_ATOM_COUNT>
0
> <PUBCHEM_COMPONENT_COUNT>
1
> <PUBCHEM_CACTVS_TAUTO_COUNT>
-1
> <PUBCHEM_COORDINATE_TYPE>
1
5
255
> <PUBCHEM_BONDANNOTATIONS>
11  17  6
28  30  8
28  31  8
30  33  8
31  34  8
32  35  8
32  37  8
33  36  8
34  36  8
35  38  8
37  40  8
38  41  8
19  4  6
40  41  8
20  8  6
21  9  6
$$$$
