514712
  -OEChem-10302200282D
 79 83  0     1  0  0  0  0  0999 V2000
    3.2601   -1.6279    0.0000 S   0  0  0  0  0  0  0  0  0  0  0  0
    2.8940    1.4109    0.0000 O   0  0  0  0  0  0  0  0  0  0  0  0
    6.0554   -2.0151    0.0000 O   0  0  0  0  0  0  0  0  0  0  0  0
    5.7281    0.6103    0.0000 O   0  0  0  0  0  0  0  0  0  0  0  0
    9.4709   -2.8364    0.0000 O   0  0  0  0  0  0  0  0  0  0  0  0
    6.7985   -2.6842    0.0000 O   0  0  0  0  0  0  0  0  0  0  0  0
    4.5691   -0.6768    0.0000 N   0  0  0  0  0  0  0  0  0  0  0  0
    4.6261    1.4109    0.0000 N   0  0  0  0  0  0  0  0  0  0  0  0
    7.9575   -1.3971    0.0000 N   0  0  0  0  0  0  0  0  0  0  0  0
    3.7601   -0.0891    0.0000 C   0  0  1  0  0  0  0  0  0  0  0  0
    2.9511   -0.6768    0.0000 C   0  0  0  0  0  0  0  0  0  0  0  0
    4.2601   -1.6279    0.0000 C   0  0  0  0  0  0  0  0  0  0  0  0
    4.6261    2.4109    0.0000 C   0  0  1  0  0  0  0  0  0  0  0  0
    3.7601    0.9109    0.0000 C   0  0  0  0  0  0  0  0  0  0  0  0
    2.0000   -0.9859    0.0000 C   0  0  0  0  0  0  0  0  0  0  0  0
    2.3633    0.1322    0.0000 C   0  0  0  0  0  0  0  0  0  0  0  0
    3.7601    2.9109    0.0000 C   0  0  0  0  0  0  0  0  0  0  0  0
    5.5202   -0.3678    0.0000 C   0  0  0  0  0  0  0  0  0  0  0  0
    6.2633   -1.0370    0.0000 C   0  0  2  0  0  0  0  0  0  0  0  0
    5.4921    2.9109    0.0000 C   0  0  0  0  0  0  0  0  0  0  0  0
    3.7601    3.9109    0.0000 C   0  0  0  0  0  0  0  0  0  0  0  0
    7.2144   -0.7279    0.0000 C   0  0  2  0  0  0  0  0  0  0  0  0
    4.6261    4.4109    0.0000 C   0  0  0  0  0  0  0  0  0  0  0  0
    5.4921    3.9109    0.0000 C   0  0  0  0  0  0  0  0  0  0  0  0
    7.4223    0.2502    0.0000 C   0  0  0  0  0  0  0  0  0  0  0  0
    6.3861    2.3763    0.0000 C   0  0  0  0  0  0  0  0  0  0  0  0
    8.4927   -3.0444    0.0000 C   0  0  1  0  0  0  0  0  0  0  0  0
    6.3861    4.4456    0.0000 C   0  0  0  0  0  0  0  0  0  0  0  0
    8.3882   -4.0389    0.0000 C   0  0  0  0  0  0  0  0  0  0  0  0
    7.7496   -2.3752    0.0000 C   0  0  0  0  0  0  0  0  0  0  0  0
    9.3017   -4.4456    0.0000 C   0  0  0  0  0  0  0  0  0  0  0  0
    8.3733    0.5592    0.0000 C   0  0  0  0  0  0  0  0  0  0  0  0
    7.2921    2.8901    0.0000 C   0  0  0  0  0  0  0  0  0  0  0  0
    9.9709   -3.7025    0.0000 C   0  0  0  0  0  0  0  0  0  0  0  0
    7.2921    3.9318    0.0000 C   0  0  0  0  0  0  0  0  0  0  0  0
    8.5812    1.5374    0.0000 C   0  0  0  0  0  0  0  0  0  0  0  0
    9.1165   -0.1099    0.0000 C   0  0  0  0  0  0  0  0  0  0  0  0
    9.5323    1.8464    0.0000 C   0  0  0  0  0  0  0  0  0  0  0  0
   10.0675    0.1991    0.0000 C   0  0  0  0  0  0  0  0  0  0  0  0
   10.2754    1.1773    0.0000 C   0  0  0  0  0  0  0  0  0  0  0  0
    4.3125    0.1924    0.0000 H   0  0  0  0  0  0  0  0  0  0  0  0
    4.1953   -2.2445    0.0000 H   0  0  0  0  0  0  0  0  0  0  0  0
    4.8665   -1.7568    0.0000 H   0  0  0  0  0  0  0  0  0  0  0  0
    5.1630    2.1009    0.0000 H   0  0  0  0  0  0  0  0  0  0  0  0
    1.8084   -0.3962    0.0000 H   0  0  0  0  0  0  0  0  0  0  0  0
    1.4103   -1.1775    0.0000 H   0  0  0  0  0  0  0  0  0  0  0  0
    2.1916   -1.5755    0.0000 H   0  0  0  0  0  0  0  0  0  0  0  0
    2.8649    0.4966    0.0000 H   0  0  0  0  0  0  0  0  0  0  0  0
    1.9988    0.6338    0.0000 H   0  0  0  0  0  0  0  0  0  0  0  0
    1.8617   -0.2323    0.0000 H   0  0  0  0  0  0  0  0  0  0  0  0
    3.1495    3.0186    0.0000 H   0  0  0  0  0  0  0  0  0  0  0  0
    3.5480    2.3283    0.0000 H   0  0  0  0  0  0  0  0  0  0  0  0
    5.1630    1.1009    0.0000 H   0  0  0  0  0  0  0  0  0  0  0  0
    5.6736   -1.2286    0.0000 H   0  0  0  0  0  0  0  0  0  0  0  0
    3.5480    4.4936    0.0000 H   0  0  0  0  0  0  0  0  0  0  0  0
    3.1495    3.8033    0.0000 H   0  0  0  0  0  0  0  0  0  0  0  0
    7.0854   -1.3344    0.0000 H   0  0  0  0  0  0  0  0  0  0  0  0
    5.0246    4.8859    0.0000 H   0  0  0  0  0  0  0  0  0  0  0  0
    4.2276    4.8859    0.0000 H   0  0  0  0  0  0  0  0  0  0  0  0
    7.3360    0.8642    0.0000 H   0  0  0  0  0  0  0  0  0  0  0  0
    6.8026    0.2718    0.0000 H   0  0  0  0  0  0  0  0  0  0  0  0
    8.5472   -1.2055    0.0000 H   0  0  0  0  0  0  0  0  0  0  0  0
    6.3789    1.7563    0.0000 H   0  0  0  0  0  0  0  0  0  0  0  0
    8.6532   -2.4455    0.0000 H   0  0  0  0  0  0  0  0  0  0  0  0
    6.3789    5.0656    0.0000 H   0  0  0  0  0  0  0  0  0  0  0  0
    7.7818   -3.9100    0.0000 H   0  0  0  0  0  0  0  0  0  0  0  0
    8.1966   -4.6285    0.0000 H   0  0  0  0  0  0  0  0  0  0  0  0
    5.4657   -2.2067    0.0000 H   0  0  0  0  0  0  0  0  0  0  0  0
    8.9917   -4.9825    0.0000 H   0  0  0  0  0  0  0  0  0  0  0  0
    9.8033   -4.8100    0.0000 H   0  0  0  0  0  0  0  0  0  0  0  0
    7.8279    2.5781    0.0000 H   0  0  0  0  0  0  0  0  0  0  0  0
   10.3857   -4.1632    0.0000 H   0  0  0  0  0  0  0  0  0  0  0  0
   10.4725   -3.3380    0.0000 H   0  0  0  0  0  0  0  0  0  0  0  0
    7.8279    4.2438    0.0000 H   0  0  0  0  0  0  0  0  0  0  0  0
    8.1205    1.9522    0.0000 H   0  0  0  0  0  0  0  0  0  0  0  0
    8.9876   -0.7164    0.0000 H   0  0  0  0  0  0  0  0  0  0  0  0
    9.6612    2.4528    0.0000 H   0  0  0  0  0  0  0  0  0  0  0  0
   10.5283   -0.2157    0.0000 H   0  0  0  0  0  0  0  0  0  0  0  0
   10.8651    1.3688    0.0000 H   0  0  0  0  0  0  0  0  0  0  0  0
  1 11  1  0  0  0  0
  1 12  1  0  0  0  0
  2 14  2  0  0  0  0
 19  3  1  6  0  0  0
  3 68  1  0  0  0  0
  4 18  2  0  0  0  0
  5 27  1  0  0  0  0
  5 34  1  0  0  0  0
  6 30  2  0  0  0  0
  7 10  1  0  0  0  0
  7 12  1  0  0  0  0
  7 18  1  0  0  0  0
 13  8  1  1  0  0  0
  8 14  1  0  0  0  0
  8 53  1  0  0  0  0
 22  9  1  6  0  0  0
  9 30  1  0  0  0  0
  9 62  1  0  0  0  0
 10 11  1  0  0  0  0
 10 14  1  1  0  0  0
 10 41  1  0  0  0  0
 11 15  1  0  0  0  0
 11 16  1  0  0  0  0
 12 42  1  0  0  0  0
 12 43  1  0  0  0  0
 13 17  1  0  0  0  0
 13 20  1  0  0  0  0
 13 44  1  0  0  0  0
 15 45  1  0  0  0  0
 15 46  1  0  0  0  0
 15 47  1  0  0  0  0
 16 48  1  0  0  0  0
 16 49  1  0  0  0  0
 16 50  1  0  0  0  0
 17 21  1  0  0  0  0
 17 51  1  0  0  0  0
 17 52  1  0  0  0  0
 18 19  1  0  0  0  0
 19 22  1  0  0  0  0
 19 54  1  0  0  0  0
 20 24  1  0  0  0  0
 20 26  2  0  0  0  0
 21 23  1  0  0  0  0
 21 55  1  0  0  0  0
 21 56  1  0  0  0  0
 22 25  1  0  0  0  0
 22 57  1  0  0  0  0
 23 24  1  0  0  0  0
 23 58  1  0  0  0  0
 23 59  1  0  0  0  0
 24 28  2  0  0  0  0
 25 32  1  0  0  0  0
 25 60  1  0  0  0  0
 25 61  1  0  0  0  0
 26 33  1  0  0  0  0
 26 63  1  0  0  0  0
 27 29  1  0  0  0  0
 27 30  1  1  0  0  0
 27 64  1  0  0  0  0
 28 35  1  0  0  0  0
 28 65  1  0  0  0  0
 29 31  1  0  0  0  0
 29 66  1  0  0  0  0
 29 67  1  0  0  0  0
 31 34  1  0  0  0  0
 31 69  1  0  0  0  0
 31 70  1  0  0  0  0
 32 36  2  0  0  0  0
 32 37  1  0  0  0  0
 33 35  2  0  0  0  0
 33 71  1  0  0  0  0
 34 72  1  0  0  0  0
 34 73  1  0  0  0  0
 35 74  1  0  0  0  0
 36 38  1  0  0  0  0
 36 75  1  0  0  0  0
 37 39  2  0  0  0  0
 37 76  1  0  0  0  0
 38 40  2  0  0  0  0
 38 77  1  0  0  0  0
 39 40  1  0  0  0  0
 39 78  1  0  0  0  0
 40 79  1  0  0  0  0
M  END
> <PUBCHEM_COMPOUND_CID>
514712
> <PUBCHEM_COMPOUND_CANONICALIZED>
1
> <PUBCHEM_CACTVS_COMPLEXITY>
909
> <PUBCHEM_CACTVS_HBOND_ACCEPTOR>
6
> <PUBCHEM_CACTVS_HBOND_DONOR>
3
> <PUBCHEM_CACTVS_ROTATABLE_BOND>
8
> <PUBCHEM_CACTVS_SUBSKEYS>
AAADcfB7OABAAAAAAAAAAAAAAAAAAWJAAAAwYMAAAAAAAADBQAAAHgQQCAAADDzh2AayAIPABgiIAiFSEAKCAABgABAIiIHIBIgKcDqg0TWXYAhklgCYiAeY3KKOgAAAAAAQAAAAAACAACQAAAAAAAAAAA==
> <PUBCHEM_IUPAC_OPENEYE_NAME>
(4R)-3-[(2S,3S)-2-hydroxy-4-phenyl-3-[[(2S)-tetrahydrofuran-2-carbonyl]amino]butanoyl]-5,5-dimethyl-N-[(1S)-tetralin-1-yl]thiazolidine-4-carboxamide
> <PUBCHEM_IUPAC_CAS_NAME>
(4R)-3-[(2S,3S)-2-hydroxy-1-oxo-3-[[oxo-[(2S)-2-oxolanyl]methyl]amino]-4-phenylbutyl]-5,5-dimethyl-N-[(1S)-1,2,3,4-tetrahydronaphthalen-1-yl]-4-thiazolidinecarboxamide
> <PUBCHEM_IUPAC_NAME_MARKUP>
(4<I>R</I>)-3-[(2<I>S</I>,3<I>S</I>)-2-hydroxy-3-[[(2<I>S</I>)-oxolane-2-carbonyl]amino]-4-phenylbutanoyl]-5,5-dimethyl-<I>N</I>-[(1<I>S</I>)-1,2,3,4-tetrahydronaphthalen-1-yl]-1,3-thiazolidine-4-carboxamide
> <PUBCHEM_IUPAC_NAME>
(4R)-3-[(2S,3S)-2-hydroxy-3-[[(2S)-oxolane-2-carbonyl]amino]-4-phenylbutanoyl]-5,5-dimethyl-N-[(1S)-1,2,3,4-tetrahydronaphthalen-1-yl]-1,3-thiazolidine-4-carboxamide
> <PUBCHEM_IUPAC_SYSTEMATIC_NAME>
(4R)-5,5-dimethyl-3-[(2S,3S)-2-oxidanyl-3-[[(2S)-oxolan-2-yl]carbonylamino]-4-phenyl-butanoyl]-N-[(1S)-1,2,3,4-tetrahydronaphthalen-1-yl]-1,3-thiazolidine-4-carboxamide
> <PUBCHEM_IUPAC_TRADITIONAL_NAME>
(4R)-3-[(2S,3S)-2-hydroxy-4-phenyl-3-[[(2S)-tetrahydrofuran-2-carbonyl]amino]butanoyl]-5,5-dimethyl-N-[(1S)-tetralin-1-yl]thiazolidine-4-carboxamide
> <PUBCHEM_IUPAC_INCHI>
InChI=1S/C31H39N3O5S/c1-31(2)27(29(37)32-23-15-8-13-21-12-6-7-14-22(21)23)34(19-40-31)30(38)26(35)24(18-20-10-4-3-5-11-20)33-28(36)25-16-9-17-39-25/h3-7,10-12,14,23-27,35H,8-9,13,15-19H2,1-2H3,(H,32,37)(H,33,36)/t23-,24-,25-,26-,27+/m0/s1
> <PUBCHEM_IUPAC_INCHIKEY>
BZBZGTPLEZDUMB-JSLVBRCRSA-N
> <PUBCHEM_XLOGP3_AA>
3.6
> <PUBCHEM_EXACT_MASS>
565.26104253
> <PUBCHEM_MOLECULAR_FORMULA>
C31H39N3O5S
> <PUBCHEM_MOLECULAR_WEIGHT>
565.7
> <PUBCHEM_OPENEYE_CAN_SMILES>
CC1(C(N(CS1)C(=O)C(C(CC2=CC=CC=C2)NC(=O)C3CCCO3)O)C(=O)NC4CCCC5=CC=CC=C45)C
> <PUBCHEM_OPENEYE_ISO_SMILES>
CC1([C@H](N(CS1)C(=O)[C@H]([C@H](CC2=CC=CC=C2)NC(=O)[C@@H]3CCCO3)O)C(=O)N[C@H]4CCCC5=CC=CC=C45)C
> <PUBCHEM_CACTVS_TPSA>
133
> <PUBCHEM_MONOISOTOPIC_WEIGHT>
565.26104253
> <PUBCHEM_TOTAL_CHARGE>
0
> <PUBCHEM_HEAVY_ATOM_COUNT>
40
> <PUBCHEM_ATOM_DEF_STEREO_COUNT>
5
> <PUBCHEM_ATOM_UDEF_STEREO_COUNT>
0
> <PUBCHEM_BOND_DEF_STEREO_COUNT>
0
> <PUBCHEM_BOND_UDEF_STEREO_COUNT>
0
> <PUBCHEM_ISOTOPIC_ATOM_COUNT>
0
> <PUBCHEM_COMPONENT_COUNT>
1
> <PUBCHEM_CACTVS_TAUTO_COUNT>
-1
> <PUBCHEM_COORDINATE_TYPE>
1
5
255
> <PUBCHEM_BONDANNOTATIONS>
10  14  5
20  24  8
20  26  8
24  28  8
26  33  8
27  30  5
28  35  8
19  3  6
32  36  8
32  37  8
33  35  8
36  38  8
37  39  8
38  40  8
39  40  8
13  8  5
22  9  6
$$$$
