514757
  -OEChem-10302200282D
 72 74  0     1  0  0  0  0  0999 V2000
    8.9369    3.9306    0.0000 F   0  0  0  0  0  0  0  0  0  0  0  0
   10.0109    3.4524    0.0000 F   0  0  0  0  0  0  0  0  0  0  0  0
    6.3301    2.7500    0.0000 O   0  0  0  0  0  0  0  0  0  0  0  0
    7.1962    0.2500    0.0000 O   0  0  0  0  0  0  0  0  0  0  0  0
    8.4405   -0.3040    0.0000 O   0  0  0  0  0  0  0  0  0  0  0  0
    3.7320    0.2500    0.0000 O   0  0  0  0  0  0  0  0  0  0  0  0
    2.8660   -3.2500    0.0000 O   0  0  0  0  0  0  0  0  0  0  0  0
    3.7320   -4.7500    0.0000 O   0  0  0  0  0  0  0  0  0  0  0  0
    8.0622    1.7500    0.0000 N   0  0  0  0  0  0  0  0  0  0  0  0
   10.1347    0.0561    0.0000 N   0  0  0  0  0  0  0  0  0  0  0  0
    5.4641    0.2500    0.0000 N   0  0  0  0  0  0  0  0  0  0  0  0
    8.9757    1.3433    0.0000 C   0  0  3  0  0  0  0  0  0  0  0  0
    9.6448    2.0864    0.0000 C   0  0  0  0  0  0  0  0  0  0  0  0
    9.1448    2.9524    0.0000 C   0  0  0  0  0  0  0  0  0  0  0  0
    8.1667    2.7445    0.0000 C   0  0  0  0  0  0  0  0  0  0  0  0
    7.1962    1.2500    0.0000 C   0  0  0  0  0  0  0  0  0  0  0  0
    6.3301    1.7500    0.0000 C   0  0  2  0  0  0  0  0  0  0  0  0
    9.1836    0.3651    0.0000 C   0  0  0  0  0  0  0  0  0  0  0  0
    5.4641    1.2500    0.0000 C   0  0  2  0  0  0  0  0  0  0  0  0
    4.5981    1.7500    0.0000 C   0  0  0  0  0  0  0  0  0  0  0  0
   10.3426   -0.9220    0.0000 C   0  0  0  0  0  0  0  0  0  0  0  0
    4.5981    2.7500    0.0000 C   0  0  0  0  0  0  0  0  0  0  0  0
    4.5981   -0.2500    0.0000 C   0  0  0  0  0  0  0  0  0  0  0  0
   11.2937   -1.2311    0.0000 C   0  0  0  0  0  0  0  0  0  0  0  0
    3.7320    3.2500    0.0000 C   0  0  0  0  0  0  0  0  0  0  0  0
    5.4641    3.2500    0.0000 C   0  0  0  0  0  0  0  0  0  0  0  0
    4.5981   -1.2500    0.0000 C   0  0  0  0  0  0  0  0  0  0  0  0
   11.5016   -2.2092    0.0000 C   0  0  0  0  0  0  0  0  0  0  0  0
    3.7320    4.2500    0.0000 C   0  0  0  0  0  0  0  0  0  0  0  0
    5.4641    4.2500    0.0000 C   0  0  0  0  0  0  0  0  0  0  0  0
    3.7320   -1.7500    0.0000 C   0  0  0  0  0  0  0  0  0  0  0  0
    4.5981    4.7500    0.0000 C   0  0  0  0  0  0  0  0  0  0  0  0
    5.4641   -1.7500    0.0000 C   0  0  0  0  0  0  0  0  0  0  0  0
    3.7320   -2.7500    0.0000 C   0  0  0  0  0  0  0  0  0  0  0  0
    2.8660   -1.2500    0.0000 C   0  0  0  0  0  0  0  0  0  0  0  0
    5.4641   -2.7500    0.0000 C   0  0  0  0  0  0  0  0  0  0  0  0
    4.5981   -3.2500    0.0000 C   0  0  0  0  0  0  0  0  0  0  0  0
    2.8660   -4.2500    0.0000 C   0  0  0  0  0  0  0  0  0  0  0  0
    2.0000   -4.7500    0.0000 C   0  0  0  0  0  0  0  0  0  0  0  0
    8.4939    0.9531    0.0000 H   0  0  0  0  0  0  0  0  0  0  0  0
   10.0597    1.6257    0.0000 H   0  0  0  0  0  0  0  0  0  0  0  0
   10.1464    2.4508    0.0000 H   0  0  0  0  0  0  0  0  0  0  0  0
    8.1019    3.3611    0.0000 H   0  0  0  0  0  0  0  0  0  0  0  0
    7.5467    2.7445    0.0000 H   0  0  0  0  0  0  0  0  0  0  0  0
    6.8671    2.0600    0.0000 H   0  0  0  0  0  0  0  0  0  0  0  0
    6.0010    0.9400    0.0000 H   0  0  0  0  0  0  0  0  0  0  0  0
    3.9875    1.8577    0.0000 H   0  0  0  0  0  0  0  0  0  0  0  0
    4.3860    1.1674    0.0000 H   0  0  0  0  0  0  0  0  0  0  0  0
   10.5954    0.4710    0.0000 H   0  0  0  0  0  0  0  0  0  0  0  0
    6.0010   -0.0600    0.0000 H   0  0  0  0  0  0  0  0  0  0  0  0
    9.7230   -0.9437    0.0000 H   0  0  0  0  0  0  0  0  0  0  0  0
   10.2563   -1.5360    0.0000 H   0  0  0  0  0  0  0  0  0  0  0  0
    6.8671    3.0600    0.0000 H   0  0  0  0  0  0  0  0  0  0  0  0
   11.9133   -1.2094    0.0000 H   0  0  0  0  0  0  0  0  0  0  0  0
   11.3799   -0.6171    0.0000 H   0  0  0  0  0  0  0  0  0  0  0  0
    3.1951    2.9400    0.0000 H   0  0  0  0  0  0  0  0  0  0  0  0
    6.0010    2.9400    0.0000 H   0  0  0  0  0  0  0  0  0  0  0  0
   10.8951   -2.3381    0.0000 H   0  0  0  0  0  0  0  0  0  0  0  0
   11.6305   -2.8157    0.0000 H   0  0  0  0  0  0  0  0  0  0  0  0
   12.1080   -2.0803    0.0000 H   0  0  0  0  0  0  0  0  0  0  0  0
    3.1951    4.5600    0.0000 H   0  0  0  0  0  0  0  0  0  0  0  0
    6.0010    4.5600    0.0000 H   0  0  0  0  0  0  0  0  0  0  0  0
    4.5981    5.3700    0.0000 H   0  0  0  0  0  0  0  0  0  0  0  0
    6.0010   -1.4400    0.0000 H   0  0  0  0  0  0  0  0  0  0  0  0
    3.1760   -0.7131    0.0000 H   0  0  0  0  0  0  0  0  0  0  0  0
    2.3291   -0.9400    0.0000 H   0  0  0  0  0  0  0  0  0  0  0  0
    2.5560   -1.7869    0.0000 H   0  0  0  0  0  0  0  0  0  0  0  0
    6.0010   -3.0600    0.0000 H   0  0  0  0  0  0  0  0  0  0  0  0
    4.5981   -3.8700    0.0000 H   0  0  0  0  0  0  0  0  0  0  0  0
    1.6900   -4.2131    0.0000 H   0  0  0  0  0  0  0  0  0  0  0  0
    1.4631   -5.0600    0.0000 H   0  0  0  0  0  0  0  0  0  0  0  0
    2.3100   -5.2869    0.0000 H   0  0  0  0  0  0  0  0  0  0  0  0
  1 14  1  0  0  0  0
  2 14  1  0  0  0  0
 17  3  1  6  0  0  0
  3 53  1  0  0  0  0
  4 16  2  0  0  0  0
  5 18  2  0  0  0  0
  6 23  2  0  0  0  0
  7 34  1  0  0  0  0
  7 38  1  0  0  0  0
  8 38  2  0  0  0  0
  9 12  1  0  0  0  0
  9 15  1  0  0  0  0
  9 16  1  0  0  0  0
 10 18  1  0  0  0  0
 10 21  1  0  0  0  0
 10 49  1  0  0  0  0
 19 11  1  1  0  0  0
 11 23  1  0  0  0  0
 11 50  1  0  0  0  0
 12 13  1  0  0  0  0
 12 18  1  0  0  0  0
 12 40  1  0  0  0  0
 13 14  1  0  0  0  0
 13 41  1  0  0  0  0
 13 42  1  0  0  0  0
 14 15  1  0  0  0  0
 15 43  1  0  0  0  0
 15 44  1  0  0  0  0
 16 17  1  0  0  0  0
 17 19  1  0  0  0  0
 17 45  1  0  0  0  0
 19 20  1  0  0  0  0
 19 46  1  0  0  0  0
 20 22  1  0  0  0  0
 20 47  1  0  0  0  0
 20 48  1  0  0  0  0
 21 24  1  0  0  0  0
 21 51  1  0  0  0  0
 21 52  1  0  0  0  0
 22 25  2  0  0  0  0
 22 26  1  0  0  0  0
 23 27  1  0  0  0  0
 24 28  1  0  0  0  0
 24 54  1  0  0  0  0
 24 55  1  0  0  0  0
 25 29  1  0  0  0  0
 25 56  1  0  0  0  0
 26 30  2  0  0  0  0
 26 57  1  0  0  0  0
 27 31  2  0  0  0  0
 27 33  1  0  0  0  0
 28 58  1  0  0  0  0
 28 59  1  0  0  0  0
 28 60  1  0  0  0  0
 29 32  2  0  0  0  0
 29 61  1  0  0  0  0
 30 32  1  0  0  0  0
 30 62  1  0  0  0  0
 31 34  1  0  0  0  0
 31 35  1  0  0  0  0
 32 63  1  0  0  0  0
 33 36  2  0  0  0  0
 33 64  1  0  0  0  0
 34 37  2  0  0  0  0
 35 65  1  0  0  0  0
 35 66  1  0  0  0  0
 35 67  1  0  0  0  0
 36 37  1  0  0  0  0
 36 68  1  0  0  0  0
 37 69  1  0  0  0  0
 38 39  1  0  0  0  0
 39 70  1  0  0  0  0
 39 71  1  0  0  0  0
 39 72  1  0  0  0  0
M  END
> <PUBCHEM_COMPOUND_CID>
514757
> <PUBCHEM_COMPOUND_CANONICALIZED>
1
> <PUBCHEM_CACTVS_COMPLEXITY>
881
> <PUBCHEM_CACTVS_HBOND_ACCEPTOR>
8
> <PUBCHEM_CACTVS_HBOND_DONOR>
3
> <PUBCHEM_CACTVS_ROTATABLE_BOND>
11
> <PUBCHEM_CACTVS_SUBSKEYS>
AAADcfB7OYAAAAAAAAAAAAAAAAAAAWAAAAAwYAAAAAAAAAABQAAAHwAQCAAADDzhmBYyDoPABgCIAiHSGAKCCAAkIAAIiIHODMgOdjqE9TuWeyjk1hGYqYe6ybCOgAABAAAYAAAAAAIAADAAAAAAAAAAAA==
> <PUBCHEM_IUPAC_OPENEYE_NAME>
[3-[[(1S,2S)-1-benzyl-3-[4,4-difluoro-2-(propylcarbamoyl)pyrrolidin-1-yl]-2-hydroxy-3-oxo-propyl]carbamoyl]-2-methyl-phenyl] acetate
> <PUBCHEM_IUPAC_CAS_NAME>
acetic acid [3-[[[(2S,3S)-4-[4,4-difluoro-2-[oxo(propylamino)methyl]-1-pyrrolidinyl]-3-hydroxy-4-oxo-1-phenylbutan-2-yl]amino]-oxomethyl]-2-methylphenyl] ester
> <PUBCHEM_IUPAC_NAME_MARKUP>
[3-[[(2<I>S</I>,3<I>S</I>)-4-[4,4-difluoro-2-(propylcarbamoyl)pyrrolidin-1-yl]-3-hydroxy-4-oxo-1-phenylbutan-2-yl]carbamoyl]-2-methylphenyl] acetate
> <PUBCHEM_IUPAC_NAME>
[3-[[(2S,3S)-4-[4,4-difluoro-2-(propylcarbamoyl)pyrrolidin-1-yl]-3-hydroxy-4-oxo-1-phenylbutan-2-yl]carbamoyl]-2-methylphenyl] acetate
> <PUBCHEM_IUPAC_SYSTEMATIC_NAME>
[3-[[(2S,3S)-4-[4,4-bis(fluoranyl)-2-(propylcarbamoyl)pyrrolidin-1-yl]-3-oxidanyl-4-oxidanylidene-1-phenyl-butan-2-yl]carbamoyl]-2-methyl-phenyl] ethanoate
> <PUBCHEM_IUPAC_TRADITIONAL_NAME>
acetic acid [3-[[(1S,2S)-1-benzyl-3-[4,4-difluoro-2-(propylcarbamoyl)pyrrolidino]-2-hydroxy-3-keto-propyl]carbamoyl]-2-methyl-phenyl] ester
> <PUBCHEM_IUPAC_INCHI>
InChI=1S/C28H33F2N3O6/c1-4-13-31-26(37)22-15-28(29,30)16-33(22)27(38)24(35)21(14-19-9-6-5-7-10-19)32-25(36)20-11-8-12-23(17(20)2)39-18(3)34/h5-12,21-22,24,35H,4,13-16H2,1-3H3,(H,31,37)(H,32,36)/t21-,22?,24-/m0/s1
> <PUBCHEM_IUPAC_INCHIKEY>
NAZUZDIDJWWMSN-WKJLPXBYSA-N
> <PUBCHEM_XLOGP3_AA>
3.3
> <PUBCHEM_EXACT_MASS>
545.23374211
> <PUBCHEM_MOLECULAR_FORMULA>
C28H33F2N3O6
> <PUBCHEM_MOLECULAR_WEIGHT>
545.6
> <PUBCHEM_OPENEYE_CAN_SMILES>
CCCNC(=O)C1CC(CN1C(=O)C(C(CC2=CC=CC=C2)NC(=O)C3=C(C(=CC=C3)OC(=O)C)C)O)(F)F
> <PUBCHEM_OPENEYE_ISO_SMILES>
CCCNC(=O)C1CC(CN1C(=O)[C@H]([C@H](CC2=CC=CC=C2)NC(=O)C3=C(C(=CC=C3)OC(=O)C)C)O)(F)F
> <PUBCHEM_CACTVS_TPSA>
125
> <PUBCHEM_MONOISOTOPIC_WEIGHT>
545.23374211
> <PUBCHEM_TOTAL_CHARGE>
0
> <PUBCHEM_HEAVY_ATOM_COUNT>
39
> <PUBCHEM_ATOM_DEF_STEREO_COUNT>
2
> <PUBCHEM_ATOM_UDEF_STEREO_COUNT>
1
> <PUBCHEM_BOND_DEF_STEREO_COUNT>
0
> <PUBCHEM_BOND_UDEF_STEREO_COUNT>
0
> <PUBCHEM_ISOTOPIC_ATOM_COUNT>
0
> <PUBCHEM_COMPONENT_COUNT>
1
> <PUBCHEM_CACTVS_TAUTO_COUNT>
-1
> <PUBCHEM_COORDINATE_TYPE>
1
5
255
> <PUBCHEM_BONDANNOTATIONS>
19  11  5
12  18  3
22  25  8
22  26  8
25  29  8
26  30  8
27  31  8
27  33  8
29  32  8
17  3  6
30  32  8
31  34  8
33  36  8
34  37  8
36  37  8
$$$$
