514722
  -OEChem-10302200282D
 94 97  0     1  0  0  0  0  0999 V2000
    5.8301    4.8112    0.0000 S   0  0  0  0  0  0  0  0  0  0  0  0
    4.5981    2.2724    0.0000 O   0  0  0  0  0  0  0  0  0  0  0  0
    7.1962    1.7724    0.0000 O   0  0  0  0  0  0  0  0  0  0  0  0
    8.2981    2.5730    0.0000 O   0  0  0  0  0  0  0  0  0  0  0  0
    5.4641   -1.2276    0.0000 O   0  0  0  0  0  0  0  0  0  0  0  0
    8.9282   -4.2276    0.0000 O   0  0  0  0  0  0  0  0  0  0  0  0
    7.1962   -4.2276    0.0000 O   0  0  0  0  0  0  0  0  0  0  0  0
    6.3301    3.2724    0.0000 N   0  0  0  0  0  0  0  0  0  0  0  0
    8.0622   -2.7276    0.0000 N   0  0  0  0  0  0  0  0  0  0  0  0
    6.3301    0.2724    0.0000 N   0  0  0  0  0  0  0  0  0  0  0  0
    8.8334    4.2202    0.0000 N   0  0  0  0  0  0  0  0  0  0  0  0
    6.8301    4.8112    0.0000 C   0  0  0  0  0  0  0  0  0  0  0  0
    7.1391    3.8601    0.0000 C   0  0  1  0  0  0  0  0  0  0  0  0
    7.1962   -1.2276    0.0000 C   0  0  3  0  0  0  0  0  0  0  0  0
    5.5211    3.8601    0.0000 C   0  0  0  0  0  0  0  0  0  0  0  0
    5.4641    0.7724    0.0000 C   0  0  2  0  0  0  0  0  0  0  0  0
    8.0622   -0.7276    0.0000 C   0  0  0  0  0  0  0  0  0  0  0  0
    5.4641    1.7724    0.0000 C   0  0  1  0  0  0  0  0  0  0  0  0
    7.1962   -2.2276    0.0000 C   0  0  0  0  0  0  0  0  0  0  0  0
    6.3301    2.2724    0.0000 C   0  0  0  0  0  0  0  0  0  0  0  0
    6.8301    5.8112    0.0000 C   0  0  0  0  0  0  0  0  0  0  0  0
    7.7812    5.1202    0.0000 C   0  0  0  0  0  0  0  0  0  0  0  0
    8.9282   -1.2276    0.0000 C   0  0  0  0  0  0  0  0  0  0  0  0
    8.0902    3.5511    0.0000 C   0  0  0  0  0  0  0  0  0  0  0  0
    8.9282   -2.2276    0.0000 C   0  0  0  0  0  0  0  0  0  0  0  0
    6.3301   -0.7276    0.0000 C   0  0  0  0  0  0  0  0  0  0  0  0
    4.5981    0.2724    0.0000 C   0  0  0  0  0  0  0  0  0  0  0  0
    8.0622   -3.7276    0.0000 C   0  0  0  0  0  0  0  0  0  0  0  0
    3.7320    0.7724    0.0000 C   0  0  0  0  0  0  0  0  0  0  0  0
    9.7844    3.9112    0.0000 C   0  0  0  0  0  0  0  0  0  0  0  0
    8.9282   -5.2276    0.0000 C   0  0  0  0  0  0  0  0  0  0  0  0
    2.8660    0.2724    0.0000 C   0  0  0  0  0  0  0  0  0  0  0  0
    3.7320    1.7724    0.0000 C   0  0  0  0  0  0  0  0  0  0  0  0
   10.5275    4.5804    0.0000 C   0  0  0  0  0  0  0  0  0  0  0  0
    8.9282   -6.2276    0.0000 C   0  0  0  0  0  0  0  0  0  0  0  0
    9.9282   -5.2276    0.0000 C   0  0  0  0  0  0  0  0  0  0  0  0
    7.9282   -5.2276    0.0000 C   0  0  0  0  0  0  0  0  0  0  0  0
    2.0000    0.7724    0.0000 C   0  0  0  0  0  0  0  0  0  0  0  0
    2.8660    2.2724    0.0000 C   0  0  0  0  0  0  0  0  0  0  0  0
   11.4786    4.2714    0.0000 C   0  0  0  0  0  0  0  0  0  0  0  0
   10.3196    5.5585    0.0000 C   0  0  0  0  0  0  0  0  0  0  0  0
    2.0000    1.7724    0.0000 C   0  0  0  0  0  0  0  0  0  0  0  0
   12.2217    4.9405    0.0000 C   0  0  0  0  0  0  0  0  0  0  0  0
   11.6865    3.2932    0.0000 C   0  0  0  0  0  0  0  0  0  0  0  0
   11.0628    6.2276    0.0000 C   0  0  0  0  0  0  0  0  0  0  0  0
   12.0138    5.9186    0.0000 C   0  0  0  0  0  0  0  0  0  0  0  0
    7.2361    3.2478    0.0000 H   0  0  0  0  0  0  0  0  0  0  0  0
    6.6592   -1.5376    0.0000 H   0  0  0  0  0  0  0  0  0  0  0  0
    4.9547    4.1123    0.0000 H   0  0  0  0  0  0  0  0  0  0  0  0
    5.2111    3.3232    0.0000 H   0  0  0  0  0  0  0  0  0  0  0  0
    5.4641    0.1524    0.0000 H   0  0  0  0  0  0  0  0  0  0  0  0
    8.4607   -0.2527    0.0000 H   0  0  0  0  0  0  0  0  0  0  0  0
    7.6636   -0.2527    0.0000 H   0  0  0  0  0  0  0  0  0  0  0  0
    5.4641    2.3924    0.0000 H   0  0  0  0  0  0  0  0  0  0  0  0
    6.5856   -2.1200    0.0000 H   0  0  0  0  0  0  0  0  0  0  0  0
    6.9841   -2.8102    0.0000 H   0  0  0  0  0  0  0  0  0  0  0  0
    7.4501    5.8112    0.0000 H   0  0  0  0  0  0  0  0  0  0  0  0
    6.8301    6.4312    0.0000 H   0  0  0  0  0  0  0  0  0  0  0  0
    6.2101    5.8112    0.0000 H   0  0  0  0  0  0  0  0  0  0  0  0
    7.9728    4.5306    0.0000 H   0  0  0  0  0  0  0  0  0  0  0  0
    8.3708    5.3118    0.0000 H   0  0  0  0  0  0  0  0  0  0  0  0
    7.5896    5.7099    0.0000 H   0  0  0  0  0  0  0  0  0  0  0  0
    9.5388   -1.3353    0.0000 H   0  0  0  0  0  0  0  0  0  0  0  0
    9.1403   -0.6450    0.0000 H   0  0  0  0  0  0  0  0  0  0  0  0
    9.1403   -2.8102    0.0000 H   0  0  0  0  0  0  0  0  0  0  0  0
    9.5388   -2.1200    0.0000 H   0  0  0  0  0  0  0  0  0  0  0  0
    6.8671    0.5824    0.0000 H   0  0  0  0  0  0  0  0  0  0  0  0
    4.1996   -0.2026    0.0000 H   0  0  0  0  0  0  0  0  0  0  0  0
    4.9966   -0.2026    0.0000 H   0  0  0  0  0  0  0  0  0  0  0  0
    8.7044    4.8267    0.0000 H   0  0  0  0  0  0  0  0  0  0  0  0
    4.5981    2.8924    0.0000 H   0  0  0  0  0  0  0  0  0  0  0  0
    9.4933    3.3638    0.0000 H   0  0  0  0  0  0  0  0  0  0  0  0
   10.2730    3.5295    0.0000 H   0  0  0  0  0  0  0  0  0  0  0  0
    2.8660   -0.3476    0.0000 H   0  0  0  0  0  0  0  0  0  0  0  0
    4.2690    2.0824    0.0000 H   0  0  0  0  0  0  0  0  0  0  0  0
    8.3082   -6.2276    0.0000 H   0  0  0  0  0  0  0  0  0  0  0  0
    8.9282   -6.8476    0.0000 H   0  0  0  0  0  0  0  0  0  0  0  0
    9.5482   -6.2276    0.0000 H   0  0  0  0  0  0  0  0  0  0  0  0
    9.9282   -5.8476    0.0000 H   0  0  0  0  0  0  0  0  0  0  0  0
   10.5482   -5.2276    0.0000 H   0  0  0  0  0  0  0  0  0  0  0  0
    9.9282   -4.6076    0.0000 H   0  0  0  0  0  0  0  0  0  0  0  0
    7.9282   -4.6076    0.0000 H   0  0  0  0  0  0  0  0  0  0  0  0
    7.3082   -5.2276    0.0000 H   0  0  0  0  0  0  0  0  0  0  0  0
    7.9282   -5.8476    0.0000 H   0  0  0  0  0  0  0  0  0  0  0  0
    1.4631    0.4624    0.0000 H   0  0  0  0  0  0  0  0  0  0  0  0
    2.8660    2.8924    0.0000 H   0  0  0  0  0  0  0  0  0  0  0  0
    9.7300    5.7501    0.0000 H   0  0  0  0  0  0  0  0  0  0  0  0
    1.4631    2.0824    0.0000 H   0  0  0  0  0  0  0  0  0  0  0  0
   12.8114    4.7489    0.0000 H   0  0  0  0  0  0  0  0  0  0  0  0
   11.0801    3.1643    0.0000 H   0  0  0  0  0  0  0  0  0  0  0  0
   11.8154    2.6868    0.0000 H   0  0  0  0  0  0  0  0  0  0  0  0
   12.2930    3.4221    0.0000 H   0  0  0  0  0  0  0  0  0  0  0  0
   10.9339    6.8341    0.0000 H   0  0  0  0  0  0  0  0  0  0  0  0
   12.4746    6.3335    0.0000 H   0  0  0  0  0  0  0  0  0  0  0  0
  1 12  1  0  0  0  0
  1 15  1  0  0  0  0
 18  2  1  6  0  0  0
  2 71  1  0  0  0  0
  3 20  2  0  0  0  0
  4 24  2  0  0  0  0
  5 26  2  0  0  0  0
  6 28  1  0  0  0  0
  6 31  1  0  0  0  0
  7 28  2  0  0  0  0
  8 13  1  0  0  0  0
  8 15  1  0  0  0  0
  8 20  1  0  0  0  0
  9 19  1  0  0  0  0
  9 25  1  0  0  0  0
  9 28  1  0  0  0  0
 16 10  1  1  0  0  0
 10 26  1  0  0  0  0
 10 67  1  0  0  0  0
 11 24  1  0  0  0  0
 11 30  1  0  0  0  0
 11 70  1  0  0  0  0
 12 13  1  0  0  0  0
 12 21  1  0  0  0  0
 12 22  1  0  0  0  0
 13 24  1  1  0  0  0
 13 47  1  0  0  0  0
 14 17  1  0  0  0  0
 14 19  1  0  0  0  0
 14 26  1  0  0  0  0
 14 48  1  0  0  0  0
 15 49  1  0  0  0  0
 15 50  1  0  0  0  0
 16 18  1  0  0  0  0
 16 27  1  0  0  0  0
 16 51  1  0  0  0  0
 17 23  1  0  0  0  0
 17 52  1  0  0  0  0
 17 53  1  0  0  0  0
 18 20  1  0  0  0  0
 18 54  1  0  0  0  0
 19 55  1  0  0  0  0
 19 56  1  0  0  0  0
 21 57  1  0  0  0  0
 21 58  1  0  0  0  0
 21 59  1  0  0  0  0
 22 60  1  0  0  0  0
 22 61  1  0  0  0  0
 22 62  1  0  0  0  0
 23 25  1  0  0  0  0
 23 63  1  0  0  0  0
 23 64  1  0  0  0  0
 25 65  1  0  0  0  0
 25 66  1  0  0  0  0
 27 29  1  0  0  0  0
 27 68  1  0  0  0  0
 27 69  1  0  0  0  0
 29 32  2  0  0  0  0
 29 33  1  0  0  0  0
 30 34  1  0  0  0  0
 30 72  1  0  0  0  0
 30 73  1  0  0  0  0
 31 35  1  0  0  0  0
 31 36  1  0  0  0  0
 31 37  1  0  0  0  0
 32 38  1  0  0  0  0
 32 74  1  0  0  0  0
 33 39  2  0  0  0  0
 33 75  1  0  0  0  0
 34 40  1  0  0  0  0
 34 41  2  0  0  0  0
 35 76  1  0  0  0  0
 35 77  1  0  0  0  0
 35 78  1  0  0  0  0
 36 79  1  0  0  0  0
 36 80  1  0  0  0  0
 36 81  1  0  0  0  0
 37 82  1  0  0  0  0
 37 83  1  0  0  0  0
 37 84  1  0  0  0  0
 38 42  2  0  0  0  0
 38 85  1  0  0  0  0
 39 42  1  0  0  0  0
 39 86  1  0  0  0  0
 40 43  2  0  0  0  0
 40 44  1  0  0  0  0
 41 45  1  0  0  0  0
 41 87  1  0  0  0  0
 42 88  1  0  0  0  0
 43 46  1  0  0  0  0
 43 89  1  0  0  0  0
 44 90  1  0  0  0  0
 44 91  1  0  0  0  0
 44 92  1  0  0  0  0
 45 46  2  0  0  0  0
 45 93  1  0  0  0  0
 46 94  1  0  0  0  0
M  END
> <PUBCHEM_COMPOUND_CID>
514722
> <PUBCHEM_COMPOUND_CANONICALIZED>
1
> <PUBCHEM_CACTVS_COMPLEXITY>
1070
> <PUBCHEM_CACTVS_HBOND_ACCEPTOR>
7
> <PUBCHEM_CACTVS_HBOND_DONOR>
3
> <PUBCHEM_CACTVS_ROTATABLE_BOND>
11
> <PUBCHEM_CACTVS_SUBSKEYS>
AAADcfB/uABAAAAAAAAAAAAAAAAAAWAAAAA8YIAAAAAAAAABQAAAHgQQCAAADXzh2AayCIPABgiIAiFSGAKCAABgABAIiIHIBIgKcDqg0TGcYAhklgCYiAeYyaCOgAAAAAAQAAAAAAAAACAAAAAAAAAAAA==
> <PUBCHEM_IUPAC_OPENEYE_NAME>
tert-butyl 3-[[(1S,2S)-1-benzyl-3-[(4R)-5,5-dimethyl-4-(o-tolylmethylcarbamoyl)thiazolidin-3-yl]-2-hydroxy-3-oxo-propyl]carbamoyl]piperidine-1-carboxylate
> <PUBCHEM_IUPAC_CAS_NAME>
3-[[[(2S,3S)-4-[(4R)-5,5-dimethyl-4-[[(2-methylphenyl)methylamino]-oxomethyl]-3-thiazolidinyl]-3-hydroxy-4-oxo-1-phenylbutan-2-yl]amino]-oxomethyl]-1-piperidinecarboxylic acid tert-butyl ester
> <PUBCHEM_IUPAC_NAME_MARKUP>
<I>tert</I>-butyl 3-[[(2<I>S</I>,3<I>S</I>)-4-[(4<I>R</I>)-5,5-dimethyl-4-[(2-methylphenyl)methylcarbamoyl]-1,3-thiazolidin-3-yl]-3-hydroxy-4-oxo-1-phenylbutan-2-yl]carbamoyl]piperidine-1-carboxylate
> <PUBCHEM_IUPAC_NAME>
tert-butyl 3-[[(2S,3S)-4-[(4R)-5,5-dimethyl-4-[(2-methylphenyl)methylcarbamoyl]-1,3-thiazolidin-3-yl]-3-hydroxy-4-oxo-1-phenylbutan-2-yl]carbamoyl]piperidine-1-carboxylate
> <PUBCHEM_IUPAC_SYSTEMATIC_NAME>
tert-butyl 3-[[(2S,3S)-4-[(4R)-5,5-dimethyl-4-[(2-methylphenyl)methylcarbamoyl]-1,3-thiazolidin-3-yl]-3-oxidanyl-4-oxidanylidene-1-phenyl-butan-2-yl]carbamoyl]piperidine-1-carboxylate
> <PUBCHEM_IUPAC_TRADITIONAL_NAME>
3-[[(1S,2S)-1-benzyl-3-[(4R)-5,5-dimethyl-4-[(2-methylbenzyl)carbamoyl]thiazolidin-3-yl]-2-hydroxy-3-keto-propyl]carbamoyl]piperidine-1-carboxylic acid tert-butyl ester
> <PUBCHEM_IUPAC_INCHI>
InChI=1S/C35H48N4O6S/c1-23-13-10-11-16-25(23)20-36-31(42)29-35(5,6)46-22-39(29)32(43)28(40)27(19-24-14-8-7-9-15-24)37-30(41)26-17-12-18-38(21-26)33(44)45-34(2,3)4/h7-11,13-16,26-29,40H,12,17-22H2,1-6H3,(H,36,42)(H,37,41)/t26?,27-,28-,29+/m0/s1
> <PUBCHEM_IUPAC_INCHIKEY>
CHHUNWBNYWIUBV-XYRQFGDDSA-N
> <PUBCHEM_XLOGP3_AA>
4.2
> <PUBCHEM_EXACT_MASS>
652.32945644
> <PUBCHEM_MOLECULAR_FORMULA>
C35H48N4O6S
> <PUBCHEM_MOLECULAR_WEIGHT>
652.8
> <PUBCHEM_OPENEYE_CAN_SMILES>
CC1=CC=CC=C1CNC(=O)C2C(SCN2C(=O)C(C(CC3=CC=CC=C3)NC(=O)C4CCCN(C4)C(=O)OC(C)(C)C)O)(C)C
> <PUBCHEM_OPENEYE_ISO_SMILES>
CC1=CC=CC=C1CNC(=O)[C@@H]2C(SCN2C(=O)[C@H]([C@H](CC3=CC=CC=C3)NC(=O)C4CCCN(C4)C(=O)OC(C)(C)C)O)(C)C
> <PUBCHEM_CACTVS_TPSA>
154
> <PUBCHEM_MONOISOTOPIC_WEIGHT>
652.32945644
> <PUBCHEM_TOTAL_CHARGE>
0
> <PUBCHEM_HEAVY_ATOM_COUNT>
46
> <PUBCHEM_ATOM_DEF_STEREO_COUNT>
3
> <PUBCHEM_ATOM_UDEF_STEREO_COUNT>
1
> <PUBCHEM_BOND_DEF_STEREO_COUNT>
0
> <PUBCHEM_BOND_UDEF_STEREO_COUNT>
0
> <PUBCHEM_ISOTOPIC_ATOM_COUNT>
0
> <PUBCHEM_COMPONENT_COUNT>
1
> <PUBCHEM_CACTVS_TAUTO_COUNT>
-1
> <PUBCHEM_COORDINATE_TYPE>
1
5
255
> <PUBCHEM_BONDANNOTATIONS>
16  10  5
13  24  5
14  26  3
18  2  6
29  32  8
29  33  8
32  38  8
33  39  8
34  40  8
34  41  8
38  42  8
39  42  8
40  43  8
41  45  8
43  46  8
45  46  8
$$$$
