514772
  -OEChem-10302200282D
 87 91  0     1  0  0  0  0  0999 V2000
    9.2174    3.0765    0.0000 S   0  0  0  0  0  0  0  0  0  0  0  0
    7.2583    0.3816    0.0000 O   0  0  0  0  0  0  0  0  0  0  0  0
    8.5005   -0.1773    0.0000 O   0  0  0  0  0  0  0  0  0  0  0  0
   10.9418    0.8426    0.0000 O   0  0  0  0  0  0  0  0  0  0  0  0
    2.0000    1.4057    0.0000 O   0  0  0  0  0  0  0  0  0  0  0  0
    2.0000    3.4057    0.0000 O   0  0  0  0  0  0  0  0  0  0  0  0
   11.8917    0.5299    0.0000 O   0  0  0  0  0  0  0  0  0  0  0  0
   14.4038   -3.0323    0.0000 O   0  0  0  0  0  0  0  0  0  0  0  0
    9.0421    1.4680    0.0000 N   0  0  0  0  0  0  0  0  0  0  0  0
    6.3981    1.8849    0.0000 N   0  0  0  0  0  0  0  0  0  0  0  0
   11.3501   -1.1153    0.0000 N   0  0  0  0  0  0  0  0  0  0  0  0
    8.1301    1.8782    0.0000 C   0  0  1  0  0  0  0  0  0  0  0  0
    8.2385    2.8723    0.0000 C   0  0  0  0  0  0  0  0  0  0  0  0
    9.7141    2.2085    0.0000 C   0  0  0  0  0  0  0  0  0  0  0  0
    7.2622    1.3816    0.0000 C   0  0  0  0  0  0  0  0  0  0  0  0
    8.0343    3.8513    0.0000 C   0  0  0  0  0  0  0  0  0  0  0  0
    7.2444    2.9807    0.0000 C   0  0  0  0  0  0  0  0  0  0  0  0
    9.2462    0.4890    0.0000 C   0  0  0  0  0  0  0  0  0  0  0  0
    6.3981    2.9265    0.0000 C   0  0  0  0  0  0  0  0  0  0  0  0
    5.4920    1.3710    0.0000 C   0  0  0  0  0  0  0  0  0  0  0  0
   10.1961    0.1763    0.0000 C   0  0  2  0  0  0  0  0  0  0  0  0
    5.4920    3.4404    0.0000 C   0  0  0  0  0  0  0  0  0  0  0  0
    4.5981    1.9057    0.0000 C   0  0  0  0  0  0  0  0  0  0  0  0
   10.4002   -0.8026    0.0000 C   0  0  2  0  0  0  0  0  0  0  0  0
    4.5981    2.9057    0.0000 C   0  0  0  0  0  0  0  0  0  0  0  0
    9.6545   -1.4689    0.0000 C   0  0  0  0  0  0  0  0  0  0  0  0
    3.7320    1.4057    0.0000 C   0  0  0  0  0  0  0  0  0  0  0  0
    3.7320    3.4057    0.0000 C   0  0  0  0  0  0  0  0  0  0  0  0
    2.8660    1.9057    0.0000 C   0  0  0  0  0  0  0  0  0  0  0  0
    2.8660    2.9057    0.0000 C   0  0  0  0  0  0  0  0  0  0  0  0
    9.8587   -2.4478    0.0000 C   0  0  0  0  0  0  0  0  0  0  0  0
   12.0958   -0.4490    0.0000 C   0  0  0  0  0  0  0  0  0  0  0  0
   10.8085   -2.7605    0.0000 C   0  0  0  0  0  0  0  0  0  0  0  0
    9.1129   -3.1141    0.0000 C   0  0  0  0  0  0  0  0  0  0  0  0
   13.0457   -0.7617    0.0000 C   0  0  0  0  0  0  0  0  0  0  0  0
   11.0127   -3.7394    0.0000 C   0  0  0  0  0  0  0  0  0  0  0  0
    9.3171   -4.0930    0.0000 C   0  0  0  0  0  0  0  0  0  0  0  0
   13.2498   -1.7406    0.0000 C   0  0  0  0  0  0  0  0  0  0  0  0
   10.2669   -4.4057    0.0000 C   0  0  0  0  0  0  0  0  0  0  0  0
    2.0000    0.4057    0.0000 C   0  0  0  0  0  0  0  0  0  0  0  0
    2.0000    4.4057    0.0000 C   0  0  0  0  0  0  0  0  0  0  0  0
   13.7914   -0.0955    0.0000 C   0  0  0  0  0  0  0  0  0  0  0  0
   14.1997   -2.0533    0.0000 C   0  0  0  0  0  0  0  0  0  0  0  0
   12.5041   -2.4069    0.0000 C   0  0  0  0  0  0  0  0  0  0  0  0
   14.7412   -0.4081    0.0000 C   0  0  0  0  0  0  0  0  0  0  0  0
   14.9454   -1.3871    0.0000 C   0  0  0  0  0  0  0  0  0  0  0  0
    8.1602    1.2589    0.0000 H   0  0  0  0  0  0  0  0  0  0  0  0
   10.1272    1.7462    0.0000 H   0  0  0  0  0  0  0  0  0  0  0  0
   10.2171    2.5710    0.0000 H   0  0  0  0  0  0  0  0  0  0  0  0
    8.6413    3.9778    0.0000 H   0  0  0  0  0  0  0  0  0  0  0  0
    7.9078    4.4582    0.0000 H   0  0  0  0  0  0  0  0  0  0  0  0
    7.4274    3.7247    0.0000 H   0  0  0  0  0  0  0  0  0  0  0  0
    7.3116    3.5970    0.0000 H   0  0  0  0  0  0  0  0  0  0  0  0
    6.6280    3.0479    0.0000 H   0  0  0  0  0  0  0  0  0  0  0  0
    7.1772    2.3643    0.0000 H   0  0  0  0  0  0  0  0  0  0  0  0
    7.0089    2.8204    0.0000 H   0  0  0  0  0  0  0  0  0  0  0  0
    6.6071    3.5102    0.0000 H   0  0  0  0  0  0  0  0  0  0  0  0
    5.0874    0.9012    0.0000 H   0  0  0  0  0  0  0  0  0  0  0  0
    5.8856    0.8920    0.0000 H   0  0  0  0  0  0  0  0  0  0  0  0
   10.0695    0.7833    0.0000 H   0  0  0  0  0  0  0  0  0  0  0  0
    5.8856    3.9194    0.0000 H   0  0  0  0  0  0  0  0  0  0  0  0
    5.0874    3.9102    0.0000 H   0  0  0  0  0  0  0  0  0  0  0  0
   10.8626   -0.3895    0.0000 H   0  0  0  0  0  0  0  0  0  0  0  0
    9.3280   -0.9418    0.0000 H   0  0  0  0  0  0  0  0  0  0  0  0
    9.0788   -1.6989    0.0000 H   0  0  0  0  0  0  0  0  0  0  0  0
    3.7320    0.7857    0.0000 H   0  0  0  0  0  0  0  0  0  0  0  0
    3.7320    4.0257    0.0000 H   0  0  0  0  0  0  0  0  0  0  0  0
   11.4767   -1.7222    0.0000 H   0  0  0  0  0  0  0  0  0  0  0  0
   10.8152    1.4495    0.0000 H   0  0  0  0  0  0  0  0  0  0  0  0
   11.2709   -2.3474    0.0000 H   0  0  0  0  0  0  0  0  0  0  0  0
    8.5240   -2.9202    0.0000 H   0  0  0  0  0  0  0  0  0  0  0  0
   11.6016   -3.9333    0.0000 H   0  0  0  0  0  0  0  0  0  0  0  0
    8.8547   -4.5061    0.0000 H   0  0  0  0  0  0  0  0  0  0  0  0
   10.3935   -5.0126    0.0000 H   0  0  0  0  0  0  0  0  0  0  0  0
    1.3800    0.4057    0.0000 H   0  0  0  0  0  0  0  0  0  0  0  0
    2.0000   -0.2143    0.0000 H   0  0  0  0  0  0  0  0  0  0  0  0
    2.6200    0.4057    0.0000 H   0  0  0  0  0  0  0  0  0  0  0  0
    2.6200    4.4057    0.0000 H   0  0  0  0  0  0  0  0  0  0  0  0
    2.0000    5.0257    0.0000 H   0  0  0  0  0  0  0  0  0  0  0  0
    1.3800    4.4057    0.0000 H   0  0  0  0  0  0  0  0  0  0  0  0
   13.6648    0.5115    0.0000 H   0  0  0  0  0  0  0  0  0  0  0  0
   12.0910   -1.9446    0.0000 H   0  0  0  0  0  0  0  0  0  0  0  0
   12.0417   -2.8200    0.0000 H   0  0  0  0  0  0  0  0  0  0  0  0
   12.9172   -2.8693    0.0000 H   0  0  0  0  0  0  0  0  0  0  0  0
   15.2036    0.0050    0.0000 H   0  0  0  0  0  0  0  0  0  0  0  0
   15.5343   -1.5809    0.0000 H   0  0  0  0  0  0  0  0  0  0  0  0
   14.9927   -3.2261    0.0000 H   0  0  0  0  0  0  0  0  0  0  0  0
  1 13  1  0  0  0  0
  1 14  1  0  0  0  0
  2 15  2  0  0  0  0
  3 18  2  0  0  0  0
 21  4  1  1  0  0  0
  4 69  1  0  0  0  0
  5 29  1  0  0  0  0
  5 40  1  0  0  0  0
  6 30  1  0  0  0  0
  6 41  1  0  0  0  0
  7 32  2  0  0  0  0
  8 43  1  0  0  0  0
  8 87  1  0  0  0  0
  9 12  1  0  0  0  0
  9 14  1  0  0  0  0
  9 18  1  0  0  0  0
 10 15  1  0  0  0  0
 10 19  1  0  0  0  0
 10 20  1  0  0  0  0
 24 11  1  1  0  0  0
 11 32  1  0  0  0  0
 11 68  1  0  0  0  0
 12 13  1  0  0  0  0
 12 15  1  6  0  0  0
 12 47  1  0  0  0  0
 13 16  1  0  0  0  0
 13 17  1  0  0  0  0
 14 48  1  0  0  0  0
 14 49  1  0  0  0  0
 16 50  1  0  0  0  0
 16 51  1  0  0  0  0
 16 52  1  0  0  0  0
 17 53  1  0  0  0  0
 17 54  1  0  0  0  0
 17 55  1  0  0  0  0
 18 21  1  0  0  0  0
 19 22  1  0  0  0  0
 19 56  1  0  0  0  0
 19 57  1  0  0  0  0
 20 23  1  0  0  0  0
 20 58  1  0  0  0  0
 20 59  1  0  0  0  0
 21 24  1  0  0  0  0
 21 60  1  0  0  0  0
 22 25  1  0  0  0  0
 22 61  1  0  0  0  0
 22 62  1  0  0  0  0
 23 25  1  0  0  0  0
 23 27  2  0  0  0  0
 24 26  1  0  0  0  0
 24 63  1  0  0  0  0
 25 28  2  0  0  0  0
 26 31  1  0  0  0  0
 26 64  1  0  0  0  0
 26 65  1  0  0  0  0
 27 29  1  0  0  0  0
 27 66  1  0  0  0  0
 28 30  1  0  0  0  0
 28 67  1  0  0  0  0
 29 30  2  0  0  0  0
 31 33  2  0  0  0  0
 31 34  1  0  0  0  0
 32 35  1  0  0  0  0
 33 36  1  0  0  0  0
 33 70  1  0  0  0  0
 34 37  2  0  0  0  0
 34 71  1  0  0  0  0
 35 38  2  0  0  0  0
 35 42  1  0  0  0  0
 36 39  2  0  0  0  0
 36 72  1  0  0  0  0
 37 39  1  0  0  0  0
 37 73  1  0  0  0  0
 38 43  1  0  0  0  0
 38 44  1  0  0  0  0
 39 74  1  0  0  0  0
 40 75  1  0  0  0  0
 40 76  1  0  0  0  0
 40 77  1  0  0  0  0
 41 78  1  0  0  0  0
 41 79  1  0  0  0  0
 41 80  1  0  0  0  0
 42 45  2  0  0  0  0
 42 81  1  0  0  0  0
 43 46  2  0  0  0  0
 44 82  1  0  0  0  0
 44 83  1  0  0  0  0
 44 84  1  0  0  0  0
 45 46  1  0  0  0  0
 45 85  1  0  0  0  0
 46 86  1  0  0  0  0
M  END
> <PUBCHEM_COMPOUND_CID>
514772
> <PUBCHEM_COMPOUND_CANONICALIZED>
1
> <PUBCHEM_CACTVS_COMPLEXITY>
1070
> <PUBCHEM_CACTVS_HBOND_ACCEPTOR>
8
> <PUBCHEM_CACTVS_HBOND_DONOR>
3
> <PUBCHEM_CACTVS_ROTATABLE_BOND>
9
> <PUBCHEM_CACTVS_SUBSKEYS>
AAADcfB/OABAAAAAAAAAAAAAAAAAAWAAAAA8YMEAAAAAAACxUAAAHgQQCAAADDzh2AayBoPABgiIAiFSEAKCCABkIBAIiIHOjMgPdjqm9TuUcSpk1hGauYe62LKOoAABAAAYQABAAAIAADCAAAAAAAAAAA==
> <PUBCHEM_IUPAC_OPENEYE_NAME>
N-[(1S,2S)-1-benzyl-3-[(4R)-4-(6,7-dimethoxy-3,4-dihydro-1H-isoquinoline-2-carbonyl)-5,5-dimethyl-thiazolidin-3-yl]-2-hydroxy-3-oxo-propyl]-3-hydroxy-2-methyl-benzamide
> <PUBCHEM_IUPAC_CAS_NAME>
N-[(2S,3S)-4-[(4R)-4-[(6,7-dimethoxy-3,4-dihydro-1H-isoquinolin-2-yl)-oxomethyl]-5,5-dimethyl-3-thiazolidinyl]-3-hydroxy-4-oxo-1-phenylbutan-2-yl]-3-hydroxy-2-methylbenzamide
> <PUBCHEM_IUPAC_NAME_MARKUP>
<I>N</I>-[(2<I>S</I>,3<I>S</I>)-4-[(4<I>R</I>)-4-(6,7-dimethoxy-3,4-dihydro-1<I>H</I>-isoquinoline-2-carbonyl)-5,5-dimethyl-1,3-thiazolidin-3-yl]-3-hydroxy-4-oxo-1-phenylbutan-2-yl]-3-hydroxy-2-methylbenzamide
> <PUBCHEM_IUPAC_NAME>
N-[(2S,3S)-4-[(4R)-4-(6,7-dimethoxy-3,4-dihydro-1H-isoquinoline-2-carbonyl)-5,5-dimethyl-1,3-thiazolidin-3-yl]-3-hydroxy-4-oxo-1-phenylbutan-2-yl]-3-hydroxy-2-methylbenzamide
> <PUBCHEM_IUPAC_SYSTEMATIC_NAME>
N-[(2S,3S)-4-[(4R)-4-[(6,7-dimethoxy-3,4-dihydro-1H-isoquinolin-2-yl)carbonyl]-5,5-dimethyl-1,3-thiazolidin-3-yl]-3-oxidanyl-4-oxidanylidene-1-phenyl-butan-2-yl]-2-methyl-3-oxidanyl-benzamide
> <PUBCHEM_IUPAC_TRADITIONAL_NAME>
N-[(1S,2S)-1-benzyl-3-[(4R)-4-(6,7-dimethoxy-3,4-dihydro-1H-isoquinoline-2-carbonyl)-5,5-dimethyl-thiazolidin-3-yl]-2-hydroxy-3-keto-propyl]-3-hydroxy-2-methyl-benzamide
> <PUBCHEM_IUPAC_INCHI>
InChI=1S/C35H41N3O7S/c1-21-25(12-9-13-27(21)39)32(41)36-26(16-22-10-7-6-8-11-22)30(40)33(42)38-20-46-35(2,3)31(38)34(43)37-15-14-23-17-28(44-4)29(45-5)18-24(23)19-37/h6-13,17-18,26,30-31,39-40H,14-16,19-20H2,1-5H3,(H,36,41)/t26-,30-,31+/m0/s1
> <PUBCHEM_IUPAC_INCHIKEY>
OZLWCBNJBBOGBN-HOSFBAFGSA-N
> <PUBCHEM_XLOGP3_AA>
4.3
> <PUBCHEM_EXACT_MASS>
647.26652183
> <PUBCHEM_MOLECULAR_FORMULA>
C35H41N3O7S
> <PUBCHEM_MOLECULAR_WEIGHT>
647.8
> <PUBCHEM_OPENEYE_CAN_SMILES>
CC1=C(C=CC=C1O)C(=O)NC(CC2=CC=CC=C2)C(C(=O)N3CSC(C3C(=O)N4CCC5=CC(=C(C=C5C4)OC)OC)(C)C)O
> <PUBCHEM_OPENEYE_ISO_SMILES>
CC1=C(C=CC=C1O)C(=O)N[C@@H](CC2=CC=CC=C2)[C@@H](C(=O)N3CSC([C@H]3C(=O)N4CCC5=CC(=C(C=C5C4)OC)OC)(C)C)O
> <PUBCHEM_CACTVS_TPSA>
154
> <PUBCHEM_MONOISOTOPIC_WEIGHT>
647.26652183
> <PUBCHEM_TOTAL_CHARGE>
0
> <PUBCHEM_HEAVY_ATOM_COUNT>
46
> <PUBCHEM_ATOM_DEF_STEREO_COUNT>
3
> <PUBCHEM_ATOM_UDEF_STEREO_COUNT>
0
> <PUBCHEM_BOND_DEF_STEREO_COUNT>
0
> <PUBCHEM_BOND_UDEF_STEREO_COUNT>
0
> <PUBCHEM_ISOTOPIC_ATOM_COUNT>
0
> <PUBCHEM_COMPONENT_COUNT>
1
> <PUBCHEM_CACTVS_TAUTO_COUNT>
-1
> <PUBCHEM_COORDINATE_TYPE>
1
5
255
> <PUBCHEM_BONDANNOTATIONS>
24  11  5
12  15  6
23  25  8
23  27  8
25  28  8
27  29  8
28  30  8
29  30  8
31  33  8
31  34  8
33  36  8
34  37  8
35  38  8
35  42  8
36  39  8
37  39  8
38  43  8
21  4  5
42  45  8
43  46  8
45  46  8
$$$$
