514809
  -OEChem-10302200282D
 42 43  0     1  0  0  0  0  0999 V2000
    2.8660    3.2071    0.0000 S   0  0  0  0  0  0  0  0  0  0  0  0
    4.5700   -1.0716    0.0000 F   0  0  0  0  0  0  0  0  0  0  0  0
    7.1391   -1.3807    0.0000 O   0  0  0  0  0  0  0  0  0  0  0  0
    5.2423   -3.1407    0.0000 O   0  0  0  0  0  0  0  0  0  0  0  0
    8.4124   -3.0362    0.0000 O   0  0  0  0  0  0  0  0  0  0  0  0
    8.0622    0.2071    0.0000 O   0  0  0  0  0  0  0  0  0  0  0  0
    6.3301    3.2071    0.0000 O   0  0  0  0  0  0  0  0  0  0  0  0
    6.3301    0.2071    0.0000 N   0  0  0  0  0  0  0  0  0  0  0  0
    7.1962    1.7071    0.0000 N   0  0  0  0  0  0  0  0  0  0  0  0
    5.8301   -2.3317    0.0000 C   0  0  1  0  0  0  0  0  0  0  0  0
    5.5211   -1.3807    0.0000 C   0  0  1  0  0  0  0  0  0  0  0  0
    6.3301   -0.7929    0.0000 C   0  0  1  0  0  0  0  0  0  0  0  0
    6.8301   -2.3317    0.0000 C   0  0  1  0  0  0  0  0  0  0  0  0
    7.4179   -3.1407    0.0000 C   0  0  0  0  0  0  0  0  0  0  0  0
    5.4641    0.7071    0.0000 C   0  0  0  0  0  0  0  0  0  0  0  0
    7.1962    0.7071    0.0000 C   0  0  0  0  0  0  0  0  0  0  0  0
    5.4641    1.7071    0.0000 C   0  0  0  0  0  0  0  0  0  0  0  0
    6.3301    2.2071    0.0000 C   0  0  0  0  0  0  0  0  0  0  0  0
    4.5981    2.2071    0.0000 C   0  0  0  0  0  0  0  0  0  0  0  0
    2.0000    3.7071    0.0000 C   0  0  0  0  0  0  0  0  0  0  0  0
    2.0000    2.7071    0.0000 C   0  0  0  0  0  0  0  0  0  0  0  0
    2.8660    2.2071    0.0000 C   0  0  0  0  0  0  0  0  0  0  0  0
    3.7320    2.7071    0.0000 C   0  0  0  0  0  0  0  0  0  0  0  0
    5.2178   -2.2347    0.0000 H   0  0  0  0  0  0  0  0  0  0  0  0
    6.8826   -0.5114    0.0000 H   0  0  0  0  0  0  0  0  0  0  0  0
    5.0827   -1.8191    0.0000 H   0  0  0  0  0  0  0  0  0  0  0  0
    7.4425   -2.2347    0.0000 H   0  0  0  0  0  0  0  0  0  0  0  0
    6.8607   -3.4125    0.0000 H   0  0  0  0  0  0  0  0  0  0  0  0
    7.5888   -3.7367    0.0000 H   0  0  0  0  0  0  0  0  0  0  0  0
    5.4945   -3.7071    0.0000 H   0  0  0  0  0  0  0  0  0  0  0  0
    4.9272    0.3971    0.0000 H   0  0  0  0  0  0  0  0  0  0  0  0
    7.7331    2.0171    0.0000 H   0  0  0  0  0  0  0  0  0  0  0  0
    8.7769   -3.5378    0.0000 H   0  0  0  0  0  0  0  0  0  0  0  0
    2.3100    4.2441    0.0000 H   0  0  0  0  0  0  0  0  0  0  0  0
    1.4631    4.0171    0.0000 H   0  0  0  0  0  0  0  0  0  0  0  0
    1.6900    3.1702    0.0000 H   0  0  0  0  0  0  0  0  0  0  0  0
    1.6900    3.2441    0.0000 H   0  0  0  0  0  0  0  0  0  0  0  0
    1.4631    2.3971    0.0000 H   0  0  0  0  0  0  0  0  0  0  0  0
    2.3100    2.1702    0.0000 H   0  0  0  0  0  0  0  0  0  0  0  0
    2.2460    2.2071    0.0000 H   0  0  0  0  0  0  0  0  0  0  0  0
    2.8660    1.5871    0.0000 H   0  0  0  0  0  0  0  0  0  0  0  0
    3.4860    2.2071    0.0000 H   0  0  0  0  0  0  0  0  0  0  0  0
  1 20  1  0  0  0  0
  1 21  1  0  0  0  0
  1 22  1  0  0  0  0
  1 23  1  0  0  0  0
 11  2  1  6  0  0  0
  3 12  1  0  0  0  0
  3 13  1  0  0  0  0
 10  4  1  1  0  0  0
  4 30  1  0  0  0  0
  5 14  1  0  0  0  0
  5 33  1  0  0  0  0
  6 16  2  0  0  0  0
  7 18  2  0  0  0  0
 12  8  1  6  0  0  0
  8 15  1  0  0  0  0
  8 16  1  0  0  0  0
  9 16  1  0  0  0  0
  9 18  1  0  0  0  0
  9 32  1  0  0  0  0
 10 11  1  0  0  0  0
 10 13  1  0  0  0  0
 10 24  1  0  0  0  0
 11 12  1  0  0  0  0
 11 26  1  0  0  0  0
 12 25  1  0  0  0  0
 13 14  1  6  0  0  0
 13 27  1  0  0  0  0
 14 28  1  0  0  0  0
 14 29  1  0  0  0  0
 15 17  2  0  0  0  0
 15 31  1  0  0  0  0
 17 18  1  0  0  0  0
 17 19  1  0  0  0  0
 19 23  3  0  0  0  0
 20 34  1  0  0  0  0
 20 35  1  0  0  0  0
 20 36  1  0  0  0  0
 21 37  1  0  0  0  0
 21 38  1  0  0  0  0
 21 39  1  0  0  0  0
 22 40  1  0  0  0  0
 22 41  1  0  0  0  0
 22 42  1  0  0  0  0
M  END
> <PUBCHEM_COMPOUND_CID>
514809
> <PUBCHEM_COMPOUND_CANONICALIZED>
1
> <PUBCHEM_CACTVS_COMPLEXITY>
618
> <PUBCHEM_CACTVS_HBOND_ACCEPTOR>
7
> <PUBCHEM_CACTVS_HBOND_DONOR>
3
> <PUBCHEM_CACTVS_ROTATABLE_BOND>
4
> <PUBCHEM_CACTVS_SUBSKEYS>
AAADceBzOQBAAAAAAAAAAAAAAAAAASAAAAAgAAAAAAAAAAAAAAAAHwQQCAAADBThwAaDAAPABgjIEgFWUAiAAAAAAAAAAAEIAECBEAIAgAAOQAAPByIDAMCwMAIAAAAAAAAAAAAAAAAAAAAAAAAAAAAAAA==
> <PUBCHEM_IUPAC_OPENEYE_NAME>
1-[(2R,3S,4R,5R)-3-fluoro-4-hydroxy-5-(hydroxymethyl)tetrahydrofuran-2-yl]-5-[2-(trimethyl-lambda4-sulfanyl)ethynyl]pyrimidine-2,4-dione
> <PUBCHEM_IUPAC_CAS_NAME>
1-[(2R,3S,4R,5R)-3-fluoro-4-hydroxy-5-(hydroxymethyl)-2-oxolanyl]-5-[2-(trimethyl-lambda4-sulfanyl)ethynyl]pyrimidine-2,4-dione
> <PUBCHEM_IUPAC_NAME_MARKUP>
1-[(2<I>R</I>,3<I>S</I>,4<I>R</I>,5<I>R</I>)-3-fluoro-4-hydroxy-5-(hydroxymethyl)oxolan-2-yl]-5-[2-(trimethyl-&lambda;<SUP>4</SUP>-sulfanyl)ethynyl]pyrimidine-2,4-dione
> <PUBCHEM_IUPAC_NAME>
1-[(2R,3S,4R,5R)-3-fluoro-4-hydroxy-5-(hydroxymethyl)oxolan-2-yl]-5-[2-(trimethyl-lambda4-sulfanyl)ethynyl]pyrimidine-2,4-dione
> <PUBCHEM_IUPAC_SYSTEMATIC_NAME>
1-[(2R,3S,4R,5R)-3-fluoranyl-5-(hydroxymethyl)-4-oxidanyl-oxolan-2-yl]-5-[2-(trimethyl-lambda4-sulfanyl)ethynyl]pyrimidine-2,4-dione
> <PUBCHEM_IUPAC_TRADITIONAL_NAME>
1-[(2R,3S,4R,5R)-3-fluoro-4-hydroxy-5-methylol-tetrahydrofuran-2-yl]-5-(2-trimethylsulfuranylethynyl)pyrimidine-2,4-quinone
> <PUBCHEM_IUPAC_INCHI>
InChI=1S/C14H19FN2O5S/c1-23(2,3)5-4-8-6-17(14(21)16-12(8)20)13-10(15)11(19)9(7-18)22-13/h6,9-11,13,18-19H,7H2,1-3H3,(H,16,20,21)/t9-,10+,11-,13-/m1/s1
> <PUBCHEM_IUPAC_INCHIKEY>
QWBSNUBFTGFUNX-LSCVPOLPSA-N
> <PUBCHEM_XLOGP3_AA>
-0.1
> <PUBCHEM_EXACT_MASS>
346.09987105
> <PUBCHEM_MOLECULAR_FORMULA>
C14H19FN2O5S
> <PUBCHEM_MOLECULAR_WEIGHT>
346.38
> <PUBCHEM_OPENEYE_CAN_SMILES>
CS(C)(C)C#CC1=CN(C(=O)NC1=O)C2C(C(C(O2)CO)O)F
> <PUBCHEM_OPENEYE_ISO_SMILES>
CS(C)(C)C#CC1=CN(C(=O)NC1=O)[C@H]2[C@H]([C@@H]([C@H](O2)CO)O)F
> <PUBCHEM_CACTVS_TPSA>
100
> <PUBCHEM_MONOISOTOPIC_WEIGHT>
346.09987105
> <PUBCHEM_TOTAL_CHARGE>
0
> <PUBCHEM_HEAVY_ATOM_COUNT>
23
> <PUBCHEM_ATOM_DEF_STEREO_COUNT>
4
> <PUBCHEM_ATOM_UDEF_STEREO_COUNT>
0
> <PUBCHEM_BOND_DEF_STEREO_COUNT>
0
> <PUBCHEM_BOND_UDEF_STEREO_COUNT>
0
> <PUBCHEM_ISOTOPIC_ATOM_COUNT>
0
> <PUBCHEM_COMPONENT_COUNT>
1
> <PUBCHEM_CACTVS_TAUTO_COUNT>
3
> <PUBCHEM_COORDINATE_TYPE>
1
5
255
> <PUBCHEM_BONDANNOTATIONS>
13  14  6
15  17  8
17  18  8
11  2  6
10  4  5
12  8  6
8  15  8
8  16  8
9  16  8
9  18  8
$$$$
