514811
  -OEChem-10302200282D
 32 34  0     1  0  0  0  0  0999 V2000
    4.6870   -0.7155    0.0000 O   0  0  0  0  0  0  0  0  0  0  0  0
    4.1111    1.8072    0.0000 O   0  0  0  0  0  0  0  0  0  0  0  0
    9.1448   -2.1135    0.0000 O   0  0  0  0  0  0  0  0  0  0  0  0
    2.6166   -0.9905    0.0000 O   0  0  0  0  0  0  0  0  0  0  0  0
    5.6005   -2.3088    0.0000 O   0  0  0  0  0  0  0  0  0  0  0  0
    6.4666   -0.8088    0.0000 N   0  0  0  0  0  0  0  0  0  0  0  0
    7.3326   -2.3088    0.0000 N   0  0  0  0  0  0  0  0  0  0  0  0
    5.6005   -0.3088    0.0000 C   0  0  1  0  0  0  0  0  0  0  0  0
    4.5179    0.8936    0.0000 C   0  0  1  0  0  0  0  0  0  0  0  0
    5.4960    0.6857    0.0000 C   0  0  0  0  0  0  0  0  0  0  0  0
    4.0179    0.0276    0.0000 C   0  0  1  0  0  0  0  0  0  0  0  0
    3.0233   -0.0769    0.0000 C   0  0  0  0  0  0  0  0  0  0  0  0
    7.3326   -0.3088    0.0000 C   0  0  0  0  0  0  0  0  0  0  0  0
    8.1986   -0.8088    0.0000 C   0  0  0  0  0  0  0  0  0  0  0  0
    6.4666   -1.8088    0.0000 C   0  0  0  0  0  0  0  0  0  0  0  0
    9.1448   -0.5041    0.0000 C   0  0  0  0  0  0  0  0  0  0  0  0
    8.1986   -1.8088    0.0000 C   0  0  0  0  0  0  0  0  0  0  0  0
    9.7284   -1.3088    0.0000 C   0  0  0  0  0  0  0  0  0  0  0  0
    5.5681   -0.9279    0.0000 H   0  0  0  0  0  0  0  0  0  0  0  0
    4.9080    1.3755    0.0000 H   0  0  0  0  0  0  0  0  0  0  0  0
    6.1160    0.6857    0.0000 H   0  0  0  0  0  0  0  0  0  0  0  0
    5.5608    1.3023    0.0000 H   0  0  0  0  0  0  0  0  0  0  0  0
    3.7957   -0.5512    0.0000 H   0  0  0  0  0  0  0  0  0  0  0  0
    3.0666    0.5416    0.0000 H   0  0  0  0  0  0  0  0  0  0  0  0
    2.4218    0.0731    0.0000 H   0  0  0  0  0  0  0  0  0  0  0  0
    7.3326    0.3112    0.0000 H   0  0  0  0  0  0  0  0  0  0  0  0
    9.6822   -0.1948    0.0000 H   0  0  0  0  0  0  0  0  0  0  0  0
    8.8938    0.0629    0.0000 H   0  0  0  0  0  0  0  0  0  0  0  0
    4.4756    2.3088    0.0000 H   0  0  0  0  0  0  0  0  0  0  0  0
   10.1893   -1.7235    0.0000 H   0  0  0  0  0  0  0  0  0  0  0  0
   10.1893   -0.8941    0.0000 H   0  0  0  0  0  0  0  0  0  0  0  0
    2.0000   -1.0553    0.0000 H   0  0  0  0  0  0  0  0  0  0  0  0
  1  8  1  0  0  0  0
  1 11  1  0  0  0  0
  9  2  1  1  0  0  0
  2 29  1  0  0  0  0
  3 17  1  0  0  0  0
  3 18  1  0  0  0  0
  4 12  1  0  0  0  0
  4 32  1  0  0  0  0
  5 15  2  0  0  0  0
  8  6  1  6  0  0  0
  6 13  1  0  0  0  0
  6 15  1  0  0  0  0
  7 15  1  0  0  0  0
  7 17  2  0  0  0  0
  8 10  1  0  0  0  0
  8 19  1  0  0  0  0
  9 10  1  0  0  0  0
  9 11  1  0  0  0  0
  9 20  1  0  0  0  0
 10 21  1  0  0  0  0
 10 22  1  0  0  0  0
 11 12  1  6  0  0  0
 11 23  1  0  0  0  0
 12 24  1  0  0  0  0
 12 25  1  0  0  0  0
 13 14  2  0  0  0  0
 13 26  1  0  0  0  0
 14 16  1  0  0  0  0
 14 17  1  0  0  0  0
 16 18  1  0  0  0  0
 16 27  1  0  0  0  0
 16 28  1  0  0  0  0
 18 30  1  0  0  0  0
 18 31  1  0  0  0  0
M  END
> <PUBCHEM_COMPOUND_CID>
514811
> <PUBCHEM_COMPOUND_CANONICALIZED>
1
> <PUBCHEM_CACTVS_COMPLEXITY>
433
> <PUBCHEM_CACTVS_HBOND_ACCEPTOR>
5
> <PUBCHEM_CACTVS_HBOND_DONOR>
2
> <PUBCHEM_CACTVS_ROTATABLE_BOND>
2
> <PUBCHEM_CACTVS_SUBSKEYS>
AAADccBzOAAAAAAAAAAAAAAAAAAAASJAAAAgAAAAAAAAAEAAAAAAHgAACAAADBThgAYBAAMABgCoAgBmVAAAAAAgAAAAAAAoABiBFAIAoQAOQAAHRgIDIACwMAIAAAAAAAAAAAAAAAAAAAAAAAAAAAAAAA==
> <PUBCHEM_IUPAC_OPENEYE_NAME>
3-[(2R,4S,5R)-4-hydroxy-5-(hydroxymethyl)tetrahydrofuran-2-yl]-5,6-dihydrofuro[2,3-d]pyrimidin-2-one
> <PUBCHEM_IUPAC_CAS_NAME>
3-[(2R,4S,5R)-4-hydroxy-5-(hydroxymethyl)-2-oxolanyl]-5,6-dihydrofuro[2,3-d]pyrimidin-2-one
> <PUBCHEM_IUPAC_NAME_MARKUP>
3-[(2<I>R</I>,4<I>S</I>,5<I>R</I>)-4-hydroxy-5-(hydroxymethyl)oxolan-2-yl]-5,6-dihydrofuro[2,3-d]pyrimidin-2-one
> <PUBCHEM_IUPAC_NAME>
3-[(2R,4S,5R)-4-hydroxy-5-(hydroxymethyl)oxolan-2-yl]-5,6-dihydrofuro[2,3-d]pyrimidin-2-one
> <PUBCHEM_IUPAC_SYSTEMATIC_NAME>
3-[(2R,4S,5R)-5-(hydroxymethyl)-4-oxidanyl-oxolan-2-yl]-5,6-dihydrofuro[2,3-d]pyrimidin-2-one
> <PUBCHEM_IUPAC_TRADITIONAL_NAME>
3-[(2R,4S,5R)-4-hydroxy-5-methylol-tetrahydrofuran-2-yl]-5,6-dihydrofuro[2,3-d]pyrimidin-2-one
> <PUBCHEM_IUPAC_INCHI>
InChI=1S/C11H14N2O5/c14-5-8-7(15)3-9(18-8)13-4-6-1-2-17-10(6)12-11(13)16/h4,7-9,14-15H,1-3,5H2/t7-,8+,9+/m0/s1
> <PUBCHEM_IUPAC_INCHIKEY>
QCIBQMMNYYRIGG-DJLDLDEBSA-N
> <PUBCHEM_XLOGP3_AA>
-0.6
> <PUBCHEM_EXACT_MASS>
254.09027155
> <PUBCHEM_MOLECULAR_FORMULA>
C11H14N2O5
> <PUBCHEM_MOLECULAR_WEIGHT>
254.24
> <PUBCHEM_OPENEYE_CAN_SMILES>
C1COC2=NC(=O)N(C=C21)C3CC(C(O3)CO)O
> <PUBCHEM_OPENEYE_ISO_SMILES>
C1COC2=NC(=O)N(C=C21)[C@H]3C[C@@H]([C@H](O3)CO)O
> <PUBCHEM_CACTVS_TPSA>
91.6
> <PUBCHEM_MONOISOTOPIC_WEIGHT>
254.09027155
> <PUBCHEM_TOTAL_CHARGE>
0
> <PUBCHEM_HEAVY_ATOM_COUNT>
18
> <PUBCHEM_ATOM_DEF_STEREO_COUNT>
3
> <PUBCHEM_ATOM_UDEF_STEREO_COUNT>
0
> <PUBCHEM_BOND_DEF_STEREO_COUNT>
0
> <PUBCHEM_BOND_UDEF_STEREO_COUNT>
0
> <PUBCHEM_ISOTOPIC_ATOM_COUNT>
0
> <PUBCHEM_COMPONENT_COUNT>
1
> <PUBCHEM_CACTVS_TAUTO_COUNT>
1
> <PUBCHEM_COORDINATE_TYPE>
1
5
255
> <PUBCHEM_BONDANNOTATIONS>
11  12  6
13  14  8
14  17  8
9  2  5
6  13  8
6  15  8
8  6  6
7  15  8
7  17  8
$$$$
