514806
  -OEChem-10302200282D
 32 33  0     1  0  0  0  0  0999 V2000
    2.0000   -0.9766    0.0000 F   0  0  0  0  0  0  0  0  0  0  0  0
    4.5691   -1.2857    0.0000 O   0  0  0  0  0  0  0  0  0  0  0  0
    2.6723   -3.0457    0.0000 O   0  0  0  0  0  0  0  0  0  0  0  0
    5.8424   -2.9412    0.0000 O   0  0  0  0  0  0  0  0  0  0  0  0
    5.4921    0.3021    0.0000 O   0  0  0  0  0  0  0  0  0  0  0  0
    3.7601    0.3021    0.0000 N   0  0  0  0  0  0  0  0  0  0  0  0
    4.6261    1.8021    0.0000 N   0  0  0  0  0  0  0  0  0  0  0  0
    3.7601    3.3021    0.0000 N   0  0  0  0  0  0  0  0  0  0  0  0
    3.2601   -2.2367    0.0000 C   0  0  1  0  0  0  0  0  0  0  0  0
    3.7601   -0.6979    0.0000 C   0  0  1  0  0  0  0  0  0  0  0  0
    2.9511   -1.2857    0.0000 C   0  0  1  0  0  0  0  0  0  0  0  0
    4.2601   -2.2367    0.0000 C   0  0  1  0  0  0  0  0  0  0  0  0
    4.8479   -3.0457    0.0000 C   0  0  0  0  0  0  0  0  0  0  0  0
    2.8940    0.8021    0.0000 C   0  0  0  0  0  0  0  0  0  0  0  0
    4.6261    0.8021    0.0000 C   0  0  0  0  0  0  0  0  0  0  0  0
    2.8940    1.8021    0.0000 C   0  0  0  0  0  0  0  0  0  0  0  0
    3.7601    2.3021    0.0000 C   0  0  0  0  0  0  0  0  0  0  0  0
    2.0280    2.3021    0.0000 C   0  0  0  0  0  0  0  0  0  0  0  0
    2.6477   -2.1397    0.0000 H   0  0  0  0  0  0  0  0  0  0  0  0
    4.3125   -0.4164    0.0000 H   0  0  0  0  0  0  0  0  0  0  0  0
    2.5126   -1.7241    0.0000 H   0  0  0  0  0  0  0  0  0  0  0  0
    4.8724   -2.1397    0.0000 H   0  0  0  0  0  0  0  0  0  0  0  0
    4.2906   -3.3175    0.0000 H   0  0  0  0  0  0  0  0  0  0  0  0
    5.0188   -3.6417    0.0000 H   0  0  0  0  0  0  0  0  0  0  0  0
    2.9245   -3.6121    0.0000 H   0  0  0  0  0  0  0  0  0  0  0  0
    2.3571    0.4921    0.0000 H   0  0  0  0  0  0  0  0  0  0  0  0
    6.2068   -3.4428    0.0000 H   0  0  0  0  0  0  0  0  0  0  0  0
    2.3380    2.8391    0.0000 H   0  0  0  0  0  0  0  0  0  0  0  0
    1.4911    2.6121    0.0000 H   0  0  0  0  0  0  0  0  0  0  0  0
    1.7180    1.7652    0.0000 H   0  0  0  0  0  0  0  0  0  0  0  0
    4.2970    3.6121    0.0000 H   0  0  0  0  0  0  0  0  0  0  0  0
    3.2231    3.6121    0.0000 H   0  0  0  0  0  0  0  0  0  0  0  0
 11  1  1  6  0  0  0
  2 10  1  0  0  0  0
  2 12  1  0  0  0  0
  9  3  1  1  0  0  0
  3 25  1  0  0  0  0
  4 13  1  0  0  0  0
  4 27  1  0  0  0  0
  5 15  2  0  0  0  0
 10  6  1  6  0  0  0
  6 14  1  0  0  0  0
  6 15  1  0  0  0  0
  7 15  1  0  0  0  0
  7 17  2  0  0  0  0
  8 17  1  0  0  0  0
  8 31  1  0  0  0  0
  8 32  1  0  0  0  0
  9 11  1  0  0  0  0
  9 12  1  0  0  0  0
  9 19  1  0  0  0  0
 10 11  1  0  0  0  0
 10 20  1  0  0  0  0
 11 21  1  0  0  0  0
 12 13  1  6  0  0  0
 12 22  1  0  0  0  0
 13 23  1  0  0  0  0
 13 24  1  0  0  0  0
 14 16  2  0  0  0  0
 14 26  1  0  0  0  0
 16 17  1  0  0  0  0
 16 18  1  0  0  0  0
 18 28  1  0  0  0  0
 18 29  1  0  0  0  0
 18 30  1  0  0  0  0
M  END
> <PUBCHEM_COMPOUND_CID>
514806
> <PUBCHEM_COMPOUND_CANONICALIZED>
1
> <PUBCHEM_CACTVS_COMPLEXITY>
425
> <PUBCHEM_CACTVS_HBOND_ACCEPTOR>
5
> <PUBCHEM_CACTVS_HBOND_DONOR>
3
> <PUBCHEM_CACTVS_ROTATABLE_BOND>
2
> <PUBCHEM_CACTVS_SUBSKEYS>
AAADccBzOQAAAAAAAAAAAAAAAAAAASAAAAAgAAAAAAAAAAAAAAAAHwAQCAAADBThgAYDAANABgCoAgJmdACAAAEAAAAAAAAoABCBEAIAgQAOQAAHBgIDAACwMAIAAAAAAAAAAAAAAAAAAAAAAAAAAAAAAA==
> <PUBCHEM_IUPAC_OPENEYE_NAME>
4-amino-1-[(2R,3S,4R,5R)-3-fluoro-4-hydroxy-5-(hydroxymethyl)tetrahydrofuran-2-yl]-5-methyl-pyrimidin-2-one
> <PUBCHEM_IUPAC_CAS_NAME>
4-amino-1-[(2R,3S,4R,5R)-3-fluoro-4-hydroxy-5-(hydroxymethyl)-2-oxolanyl]-5-methyl-2-pyrimidinone
> <PUBCHEM_IUPAC_NAME_MARKUP>
4-amino-1-[(2<I>R</I>,3<I>S</I>,4<I>R</I>,5<I>R</I>)-3-fluoro-4-hydroxy-5-(hydroxymethyl)oxolan-2-yl]-5-methylpyrimidin-2-one
> <PUBCHEM_IUPAC_NAME>
4-amino-1-[(2R,3S,4R,5R)-3-fluoro-4-hydroxy-5-(hydroxymethyl)oxolan-2-yl]-5-methylpyrimidin-2-one
> <PUBCHEM_IUPAC_SYSTEMATIC_NAME>
4-azanyl-1-[(2R,3S,4R,5R)-3-fluoranyl-5-(hydroxymethyl)-4-oxidanyl-oxolan-2-yl]-5-methyl-pyrimidin-2-one
> <PUBCHEM_IUPAC_TRADITIONAL_NAME>
4-amino-1-[(2R,3S,4R,5R)-3-fluoro-4-hydroxy-5-methylol-tetrahydrofuran-2-yl]-5-methyl-pyrimidin-2-one
> <PUBCHEM_IUPAC_INCHI>
InChI=1S/C10H14FN3O4/c1-4-2-14(10(17)13-8(4)12)9-6(11)7(16)5(3-15)18-9/h2,5-7,9,15-16H,3H2,1H3,(H2,12,13,17)/t5-,6+,7-,9-/m1/s1
> <PUBCHEM_IUPAC_INCHIKEY>
QZZJZXAWLQYJFK-JVZYCSMKSA-N
> <PUBCHEM_XLOGP3>
-1
> <PUBCHEM_EXACT_MASS>
259.09683410
> <PUBCHEM_MOLECULAR_FORMULA>
C10H14FN3O4
> <PUBCHEM_MOLECULAR_WEIGHT>
259.23
> <PUBCHEM_OPENEYE_CAN_SMILES>
CC1=CN(C(=O)N=C1N)C2C(C(C(O2)CO)O)F
> <PUBCHEM_OPENEYE_ISO_SMILES>
CC1=CN(C(=O)N=C1N)[C@H]2[C@H]([C@@H]([C@H](O2)CO)O)F
> <PUBCHEM_CACTVS_TPSA>
108
> <PUBCHEM_MONOISOTOPIC_WEIGHT>
259.09683410
> <PUBCHEM_TOTAL_CHARGE>
0
> <PUBCHEM_HEAVY_ATOM_COUNT>
18
> <PUBCHEM_ATOM_DEF_STEREO_COUNT>
4
> <PUBCHEM_ATOM_UDEF_STEREO_COUNT>
0
> <PUBCHEM_BOND_DEF_STEREO_COUNT>
0
> <PUBCHEM_BOND_UDEF_STEREO_COUNT>
0
> <PUBCHEM_ISOTOPIC_ATOM_COUNT>
0
> <PUBCHEM_COMPONENT_COUNT>
1
> <PUBCHEM_CACTVS_TAUTO_COUNT>
-1
> <PUBCHEM_COORDINATE_TYPE>
1
5
255
> <PUBCHEM_BONDANNOTATIONS>
11  1  6
12  13  6
14  16  8
16  17  8
9  3  5
10  6  6
6  14  8
6  15  8
7  15  8
7  17  8
$$$$
