514821
  -OEChem-10302200282D
 34 36  0     1  0  0  0  0  0999 V2000
    4.6870   -0.4055    0.0000 O   0  0  0  0  0  0  0  0  0  0  0  0
    9.1448   -1.8035    0.0000 O   0  0  0  0  0  0  0  0  0  0  0  0
    4.1111    2.1172    0.0000 O   0  0  0  0  0  0  0  0  0  0  0  0
    2.6166   -0.6804    0.0000 O   0  0  0  0  0  0  0  0  0  0  0  0
    5.6005   -1.9988    0.0000 O   0  0  0  0  0  0  0  0  0  0  0  0
    6.4666   -0.4988    0.0000 N   0  0  0  0  0  0  0  0  0  0  0  0
    7.3326   -1.9988    0.0000 N   0  0  0  0  0  0  0  0  0  0  0  0
    5.6005    0.0012    0.0000 C   0  0  2  0  0  0  0  0  0  0  0  0
    5.4960    0.9957    0.0000 C   0  0  0  0  0  0  0  0  0  0  0  0
    4.5179    1.2037    0.0000 C   0  0  1  0  0  0  0  0  0  0  0  0
    4.0179    0.3376    0.0000 C   0  0  1  0  0  0  0  0  0  0  0  0
    8.1986   -0.4988    0.0000 C   0  0  0  0  0  0  0  0  0  0  0  0
    8.1986   -1.4988    0.0000 C   0  0  3  0  0  0  0  0  0  0  0  0
    7.3326    0.0012    0.0000 C   0  0  0  0  0  0  0  0  0  0  0  0
    9.1448   -0.1941    0.0000 C   0  0  0  0  0  0  0  0  0  0  0  0
    3.0233    0.2331    0.0000 C   0  0  0  0  0  0  0  0  0  0  0  0
    6.4666   -1.4988    0.0000 C   0  0  0  0  0  0  0  0  0  0  0  0
    9.7284   -0.9988    0.0000 C   0  0  0  0  0  0  0  0  0  0  0  0
    5.5681   -0.6179    0.0000 H   0  0  0  0  0  0  0  0  0  0  0  0
    6.1160    0.9957    0.0000 H   0  0  0  0  0  0  0  0  0  0  0  0
    5.5608    1.6123    0.0000 H   0  0  0  0  0  0  0  0  0  0  0  0
    4.9080    1.6855    0.0000 H   0  0  0  0  0  0  0  0  0  0  0  0
    3.7957   -0.2412    0.0000 H   0  0  0  0  0  0  0  0  0  0  0  0
    8.2886   -2.3440    0.0000 H   0  0  0  0  0  0  0  0  0  0  0  0
    7.3326    0.6212    0.0000 H   0  0  0  0  0  0  0  0  0  0  0  0
    9.6822    0.1152    0.0000 H   0  0  0  0  0  0  0  0  0  0  0  0
    8.8938    0.3729    0.0000 H   0  0  0  0  0  0  0  0  0  0  0  0
    3.0666    0.8516    0.0000 H   0  0  0  0  0  0  0  0  0  0  0  0
    2.4218    0.3831    0.0000 H   0  0  0  0  0  0  0  0  0  0  0  0
    7.3326   -2.6188    0.0000 H   0  0  0  0  0  0  0  0  0  0  0  0
   10.1893   -1.4135    0.0000 H   0  0  0  0  0  0  0  0  0  0  0  0
   10.1893   -0.5841    0.0000 H   0  0  0  0  0  0  0  0  0  0  0  0
    4.4756    2.6188    0.0000 H   0  0  0  0  0  0  0  0  0  0  0  0
    2.0000   -0.7453    0.0000 H   0  0  0  0  0  0  0  0  0  0  0  0
  1  8  1  0  0  0  0
  1 11  1  0  0  0  0
  2 13  1  0  0  0  0
  2 18  1  0  0  0  0
 10  3  1  1  0  0  0
  3 33  1  0  0  0  0
  4 16  1  0  0  0  0
  4 34  1  0  0  0  0
  5 17  2  0  0  0  0
  8  6  1  1  0  0  0
  6 14  1  0  0  0  0
  6 17  1  0  0  0  0
  7 13  1  0  0  0  0
  7 17  1  0  0  0  0
  7 30  1  0  0  0  0
  8  9  1  0  0  0  0
  8 19  1  0  0  0  0
  9 10  1  0  0  0  0
  9 20  1  0  0  0  0
  9 21  1  0  0  0  0
 10 11  1  0  0  0  0
 10 22  1  0  0  0  0
 11 16  1  6  0  0  0
 11 23  1  0  0  0  0
 12 13  1  0  0  0  0
 12 14  2  0  0  0  0
 12 15  1  0  0  0  0
 13 24  1  0  0  0  0
 14 25  1  0  0  0  0
 15 18  1  0  0  0  0
 15 26  1  0  0  0  0
 15 27  1  0  0  0  0
 16 28  1  0  0  0  0
 16 29  1  0  0  0  0
 18 31  1  0  0  0  0
 18 32  1  0  0  0  0
M  END
> <PUBCHEM_COMPOUND_CID>
514821
> <PUBCHEM_COMPOUND_CANONICALIZED>
1
> <PUBCHEM_CACTVS_COMPLEXITY>
386
> <PUBCHEM_CACTVS_HBOND_ACCEPTOR>
5
> <PUBCHEM_CACTVS_HBOND_DONOR>
3
> <PUBCHEM_CACTVS_ROTATABLE_BOND>
2
> <PUBCHEM_CACTVS_SUBSKEYS>
AAADceBzOAAAAAAAAAAAAAAAAAAAASJAAAAgAAAAAAAAAEAAAAAAHgAQCAAADBThgAYBAAPABgCIAgBGUACAAAAgAAAAAIAIAAmBFAIAoQAOQAAPRgIDIACwMAIAAAAAAAAAAAAAAAAAAAAAAAAAAAAAAA==
> <PUBCHEM_IUPAC_OPENEYE_NAME>
3-[(2S,4S,5R)-4-hydroxy-5-(hydroxymethyl)tetrahydrofuran-2-yl]-1,5,6,7a-tetrahydrofuro[2,3-d]pyrimidin-2-one
> <PUBCHEM_IUPAC_CAS_NAME>
3-[(2S,4S,5R)-4-hydroxy-5-(hydroxymethyl)-2-oxolanyl]-1,5,6,7a-tetrahydrofuro[2,3-d]pyrimidin-2-one
> <PUBCHEM_IUPAC_NAME_MARKUP>
3-[(2<I>S</I>,4<I>S</I>,5<I>R</I>)-4-hydroxy-5-(hydroxymethyl)oxolan-2-yl]-1,5,6,7<I>a</I>-tetrahydrofuro[2,3-d]pyrimidin-2-one
> <PUBCHEM_IUPAC_NAME>
3-[(2S,4S,5R)-4-hydroxy-5-(hydroxymethyl)oxolan-2-yl]-1,5,6,7a-tetrahydrofuro[2,3-d]pyrimidin-2-one
> <PUBCHEM_IUPAC_SYSTEMATIC_NAME>
3-[(2S,4S,5R)-5-(hydroxymethyl)-4-oxidanyl-oxolan-2-yl]-1,5,6,7a-tetrahydrofuro[2,3-d]pyrimidin-2-one
> <PUBCHEM_IUPAC_TRADITIONAL_NAME>
3-[(2S,4S,5R)-4-hydroxy-5-methylol-tetrahydrofuran-2-yl]-1,5,6,7a-tetrahydrofuro[2,3-d]pyrimidin-2-one
> <PUBCHEM_IUPAC_INCHI>
InChI=1S/C11H16N2O5/c14-5-8-7(15)3-9(18-8)13-4-6-1-2-17-10(6)12-11(13)16/h4,7-10,14-15H,1-3,5H2,(H,12,16)/t7-,8+,9-,10?/m0/s1
> <PUBCHEM_IUPAC_INCHIKEY>
XFWKKGQIQWPSIG-GFMAATOTSA-N
> <PUBCHEM_XLOGP3_AA>
-1.4
> <PUBCHEM_EXACT_MASS>
256.10592162
> <PUBCHEM_MOLECULAR_FORMULA>
C11H16N2O5
> <PUBCHEM_MOLECULAR_WEIGHT>
256.25
> <PUBCHEM_OPENEYE_CAN_SMILES>
C1COC2C1=CN(C(=O)N2)C3CC(C(O3)CO)O
> <PUBCHEM_OPENEYE_ISO_SMILES>
C1COC2C1=CN(C(=O)N2)[C@@H]3C[C@@H]([C@H](O3)CO)O
> <PUBCHEM_CACTVS_TPSA>
91.3
> <PUBCHEM_MONOISOTOPIC_WEIGHT>
256.10592162
> <PUBCHEM_TOTAL_CHARGE>
0
> <PUBCHEM_HEAVY_ATOM_COUNT>
18
> <PUBCHEM_ATOM_DEF_STEREO_COUNT>
3
> <PUBCHEM_ATOM_UDEF_STEREO_COUNT>
1
> <PUBCHEM_BOND_DEF_STEREO_COUNT>
0
> <PUBCHEM_BOND_UDEF_STEREO_COUNT>
0
> <PUBCHEM_ISOTOPIC_ATOM_COUNT>
0
> <PUBCHEM_COMPONENT_COUNT>
1
> <PUBCHEM_CACTVS_TAUTO_COUNT>
2
> <PUBCHEM_COORDINATE_TYPE>
1
5
255
> <PUBCHEM_BONDANNOTATIONS>
11  16  6
13  24  3
10  3  5
8  6  5
$$$$
