514810
  -OEChem-10302200282D
 30 31  0     1  0  0  0  0  0999 V2000
    3.3749   -0.8216    0.0000 F   0  0  0  0  0  0  0  0  0  0  0  0
    5.9440   -1.1307    0.0000 O   0  0  0  0  0  0  0  0  0  0  0  0
    4.0472   -2.8907    0.0000 O   0  0  0  0  0  0  0  0  0  0  0  0
    7.2173   -2.7862    0.0000 O   0  0  0  0  0  0  0  0  0  0  0  0
    6.8671    0.4571    0.0000 O   0  0  0  0  0  0  0  0  0  0  0  0
    5.1350    3.4571    0.0000 O   0  0  0  0  0  0  0  0  0  0  0  0
    5.1350    0.4571    0.0000 N   0  0  0  0  0  0  0  0  0  0  0  0
    6.0010    1.9571    0.0000 N   0  0  0  0  0  0  0  0  0  0  0  0
    4.6350   -2.0817    0.0000 C   0  0  1  0  0  0  0  0  0  0  0  0
    5.1350   -0.5429    0.0000 C   0  0  1  0  0  0  0  0  0  0  0  0
    4.3260   -1.1307    0.0000 C   0  0  1  0  0  0  0  0  0  0  0  0
    5.6350   -2.0817    0.0000 C   0  0  1  0  0  0  0  0  0  0  0  0
    6.2228   -2.8907    0.0000 C   0  0  0  0  0  0  0  0  0  0  0  0
    4.2690    0.9571    0.0000 C   0  0  0  0  0  0  0  0  0  0  0  0
    6.0010    0.9571    0.0000 C   0  0  0  0  0  0  0  0  0  0  0  0
    4.2690    1.9571    0.0000 C   0  0  0  0  0  0  0  0  0  0  0  0
    5.1350    2.4571    0.0000 C   0  0  0  0  0  0  0  0  0  0  0  0
    3.4030    2.4571    0.0000 C   0  0  0  0  0  0  0  0  0  0  0  0
    2.5369    2.9571    0.0000 C   0  0  0  0  0  0  0  0  0  0  0  0
    4.0226   -1.9847    0.0000 H   0  0  0  0  0  0  0  0  0  0  0  0
    5.6874   -0.2614    0.0000 H   0  0  0  0  0  0  0  0  0  0  0  0
    3.8876   -1.5691    0.0000 H   0  0  0  0  0  0  0  0  0  0  0  0
    6.2474   -1.9847    0.0000 H   0  0  0  0  0  0  0  0  0  0  0  0
    5.6655   -3.1625    0.0000 H   0  0  0  0  0  0  0  0  0  0  0  0
    6.3937   -3.4867    0.0000 H   0  0  0  0  0  0  0  0  0  0  0  0
    4.2994   -3.4571    0.0000 H   0  0  0  0  0  0  0  0  0  0  0  0
    3.7320    0.6471    0.0000 H   0  0  0  0  0  0  0  0  0  0  0  0
    6.5380    2.2671    0.0000 H   0  0  0  0  0  0  0  0  0  0  0  0
    7.5818   -3.2878    0.0000 H   0  0  0  0  0  0  0  0  0  0  0  0
    2.0000    3.2671    0.0000 H   0  0  0  0  0  0  0  0  0  0  0  0
 11  1  1  6  0  0  0
  2 10  1  0  0  0  0
  2 12  1  0  0  0  0
  9  3  1  1  0  0  0
  3 26  1  0  0  0  0
  4 13  1  0  0  0  0
  4 29  1  0  0  0  0
  5 15  2  0  0  0  0
  6 17  2  0  0  0  0
 10  7  1  6  0  0  0
  7 14  1  0  0  0  0
  7 15  1  0  0  0  0
  8 15  1  0  0  0  0
  8 17  1  0  0  0  0
  8 28  1  0  0  0  0
  9 11  1  0  0  0  0
  9 12  1  0  0  0  0
  9 20  1  0  0  0  0
 10 11  1  0  0  0  0
 10 21  1  0  0  0  0
 11 22  1  0  0  0  0
 12 13  1  6  0  0  0
 12 23  1  0  0  0  0
 13 24  1  0  0  0  0
 13 25  1  0  0  0  0
 14 16  2  0  0  0  0
 14 27  1  0  0  0  0
 16 17  1  0  0  0  0
 16 18  1  0  0  0  0
 18 19  3  0  0  0  0
 19 30  1  0  0  0  0
M  END
> <PUBCHEM_COMPOUND_CID>
514810
> <PUBCHEM_COMPOUND_CANONICALIZED>
1
> <PUBCHEM_CACTVS_COMPLEXITY>
497
> <PUBCHEM_CACTVS_HBOND_ACCEPTOR>
6
> <PUBCHEM_CACTVS_HBOND_DONOR>
3
> <PUBCHEM_CACTVS_ROTATABLE_BOND>
3
> <PUBCHEM_CACTVS_SUBSKEYS>
AAADccBzOQAAAAAAAAAAAAAAAAAAASAAAAAgAAAAAAAAAAAAAAAAHwAQCAAADBThgAYBAAPABgDIGgFWUAiAAAAAAAAAAAEIAECBEAIAgAAOQAAPByIDAMCwMAIAAAAAAAAAAAAAAAAAAAAAAAAAAAAAAA==
> <PUBCHEM_IUPAC_OPENEYE_NAME>
5-ethynyl-1-[(2R,3S,4R,5R)-3-fluoro-4-hydroxy-5-(hydroxymethyl)tetrahydrofuran-2-yl]pyrimidine-2,4-dione
> <PUBCHEM_IUPAC_CAS_NAME>
5-ethynyl-1-[(2R,3S,4R,5R)-3-fluoro-4-hydroxy-5-(hydroxymethyl)-2-oxolanyl]pyrimidine-2,4-dione
> <PUBCHEM_IUPAC_NAME_MARKUP>
5-ethynyl-1-[(2<I>R</I>,3<I>S</I>,4<I>R</I>,5<I>R</I>)-3-fluoro-4-hydroxy-5-(hydroxymethyl)oxolan-2-yl]pyrimidine-2,4-dione
> <PUBCHEM_IUPAC_NAME>
5-ethynyl-1-[(2R,3S,4R,5R)-3-fluoro-4-hydroxy-5-(hydroxymethyl)oxolan-2-yl]pyrimidine-2,4-dione
> <PUBCHEM_IUPAC_SYSTEMATIC_NAME>
5-ethynyl-1-[(2R,3S,4R,5R)-3-fluoranyl-5-(hydroxymethyl)-4-oxidanyl-oxolan-2-yl]pyrimidine-2,4-dione
> <PUBCHEM_IUPAC_TRADITIONAL_NAME>
5-ethynyl-1-[(2R,3S,4R,5R)-3-fluoro-4-hydroxy-5-methylol-tetrahydrofuran-2-yl]pyrimidine-2,4-quinone
> <PUBCHEM_IUPAC_INCHI>
InChI=1S/C11H11FN2O5/c1-2-5-3-14(11(18)13-9(5)17)10-7(12)8(16)6(4-15)19-10/h1,3,6-8,10,15-16H,4H2,(H,13,17,18)/t6-,7+,8-,10-/m1/s1
> <PUBCHEM_IUPAC_INCHIKEY>
YEEGMPUOCRQFRV-IBCQBUCCSA-N
> <PUBCHEM_XLOGP3_AA>
-1
> <PUBCHEM_EXACT_MASS>
270.06519962
> <PUBCHEM_MOLECULAR_FORMULA>
C11H11FN2O5
> <PUBCHEM_MOLECULAR_WEIGHT>
270.21
> <PUBCHEM_OPENEYE_CAN_SMILES>
C#CC1=CN(C(=O)NC1=O)C2C(C(C(O2)CO)O)F
> <PUBCHEM_OPENEYE_ISO_SMILES>
C#CC1=CN(C(=O)NC1=O)[C@H]2[C@H]([C@@H]([C@H](O2)CO)O)F
> <PUBCHEM_CACTVS_TPSA>
99.1
> <PUBCHEM_MONOISOTOPIC_WEIGHT>
270.06519962
> <PUBCHEM_TOTAL_CHARGE>
0
> <PUBCHEM_HEAVY_ATOM_COUNT>
19
> <PUBCHEM_ATOM_DEF_STEREO_COUNT>
4
> <PUBCHEM_ATOM_UDEF_STEREO_COUNT>
0
> <PUBCHEM_BOND_DEF_STEREO_COUNT>
0
> <PUBCHEM_BOND_UDEF_STEREO_COUNT>
0
> <PUBCHEM_ISOTOPIC_ATOM_COUNT>
0
> <PUBCHEM_COMPONENT_COUNT>
1
> <PUBCHEM_CACTVS_TAUTO_COUNT>
3
> <PUBCHEM_COORDINATE_TYPE>
1
5
255
> <PUBCHEM_BONDANNOTATIONS>
11  1  6
12  13  6
14  16  8
16  17  8
9  3  5
10  7  6
7  14  8
7  15  8
8  15  8
8  17  8
$$$$
