514817
  -OEChem-10302200282D
 33 34  0     1  0  0  0  0  0999 V2000
    7.5464   -3.0694    0.0000 Cl  0  0  0  0  0  0  0  0  0  0  0  0
    2.0000    2.1739    0.0000 Cl  0  0  0  0  0  0  0  0  0  0  0  0
    6.2731   -1.4139    0.0000 O   0  0  0  0  0  0  0  0  0  0  0  0
    4.3763   -3.1739    0.0000 O   0  0  0  0  0  0  0  0  0  0  0  0
    7.1962    0.1739    0.0000 O   0  0  0  0  0  0  0  0  0  0  0  0
    5.4641    3.1739    0.0000 O   0  0  0  0  0  0  0  0  0  0  0  0
    5.4641    0.1739    0.0000 N   0  0  0  0  0  0  0  0  0  0  0  0
    6.3301    1.6739    0.0000 N   0  0  0  0  0  0  0  0  0  0  0  0
    5.4641   -0.8261    0.0000 C   0  0  1  0  0  0  0  0  0  0  0  0
    4.9641   -2.3649    0.0000 C   0  0  1  0  0  0  0  0  0  0  0  0
    4.6551   -1.4139    0.0000 C   0  0  0  0  0  0  0  0  0  0  0  0
    5.9641   -2.3649    0.0000 C   0  0  1  0  0  0  0  0  0  0  0  0
    6.5519   -3.1739    0.0000 C   0  0  0  0  0  0  0  0  0  0  0  0
    4.5981    0.6739    0.0000 C   0  0  0  0  0  0  0  0  0  0  0  0
    6.3301    0.6739    0.0000 C   0  0  0  0  0  0  0  0  0  0  0  0
    4.5981    1.6739    0.0000 C   0  0  0  0  0  0  0  0  0  0  0  0
    5.4641    2.1739    0.0000 C   0  0  0  0  0  0  0  0  0  0  0  0
    3.7320    2.1739    0.0000 C   0  0  0  0  0  0  0  0  0  0  0  0
    2.8660    1.6739    0.0000 C   0  0  0  0  0  0  0  0  0  0  0  0
    6.0165   -0.5446    0.0000 H   0  0  0  0  0  0  0  0  0  0  0  0
    4.3517   -2.2679    0.0000 H   0  0  0  0  0  0  0  0  0  0  0  0
    4.3451   -0.8769    0.0000 H   0  0  0  0  0  0  0  0  0  0  0  0
    4.0887   -1.6660    0.0000 H   0  0  0  0  0  0  0  0  0  0  0  0
    6.5765   -2.2679    0.0000 H   0  0  0  0  0  0  0  0  0  0  0  0
    5.9946   -3.4457    0.0000 H   0  0  0  0  0  0  0  0  0  0  0  0
    6.7228   -3.7699    0.0000 H   0  0  0  0  0  0  0  0  0  0  0  0
    4.0611    0.3639    0.0000 H   0  0  0  0  0  0  0  0  0  0  0  0
    3.7597   -3.1091    0.0000 H   0  0  0  0  0  0  0  0  0  0  0  0
    6.8671    1.9839    0.0000 H   0  0  0  0  0  0  0  0  0  0  0  0
    4.1306    2.6489    0.0000 H   0  0  0  0  0  0  0  0  0  0  0  0
    3.3335    2.6489    0.0000 H   0  0  0  0  0  0  0  0  0  0  0  0
    2.4675    1.1990    0.0000 H   0  0  0  0  0  0  0  0  0  0  0  0
    3.2646    1.1990    0.0000 H   0  0  0  0  0  0  0  0  0  0  0  0
  1 13  1  0  0  0  0
  2 19  1  0  0  0  0
  3  9  1  0  0  0  0
  3 12  1  0  0  0  0
 10  4  1  1  0  0  0
  4 28  1  0  0  0  0
  5 15  2  0  0  0  0
  6 17  2  0  0  0  0
  9  7  1  6  0  0  0
  7 14  1  0  0  0  0
  7 15  1  0  0  0  0
  8 15  1  0  0  0  0
  8 17  1  0  0  0  0
  8 29  1  0  0  0  0
  9 11  1  0  0  0  0
  9 20  1  0  0  0  0
 10 11  1  0  0  0  0
 10 12  1  0  0  0  0
 10 21  1  0  0  0  0
 11 22  1  0  0  0  0
 11 23  1  0  0  0  0
 12 13  1  6  0  0  0
 12 24  1  0  0  0  0
 13 25  1  0  0  0  0
 13 26  1  0  0  0  0
 14 16  2  0  0  0  0
 14 27  1  0  0  0  0
 16 17  1  0  0  0  0
 16 18  1  0  0  0  0
 18 19  1  0  0  0  0
 18 30  1  0  0  0  0
 18 31  1  0  0  0  0
 19 32  1  0  0  0  0
 19 33  1  0  0  0  0
M  END
> <PUBCHEM_COMPOUND_CID>
514817
> <PUBCHEM_COMPOUND_CANONICALIZED>
1
> <PUBCHEM_CACTVS_COMPLEXITY>
416
> <PUBCHEM_CACTVS_HBOND_ACCEPTOR>
4
> <PUBCHEM_CACTVS_HBOND_DONOR>
2
> <PUBCHEM_CACTVS_ROTATABLE_BOND>
4
> <PUBCHEM_CACTVS_SUBSKEYS>
AAADccBzOAAGAAAAAAAAAAAAAAAAASAAAAAgAAAAAAAAAAAAAAAAHgIQCAAADBfhgEYBAAPABgCIAgFWUACAAAAgAAAAAAEIA0iBEBIBgQAOQAAPByIDAMCwAAAAAAAAAAAAAAAAAAAAAAAAAAAAAAAAAA==
> <PUBCHEM_IUPAC_OPENEYE_NAME>
5-(2-chloroethyl)-1-[(2R,4S,5S)-5-(chloromethyl)-4-hydroxy-tetrahydrofuran-2-yl]pyrimidine-2,4-dione
> <PUBCHEM_IUPAC_CAS_NAME>
5-(2-chloroethyl)-1-[(2R,4S,5S)-5-(chloromethyl)-4-hydroxy-2-oxolanyl]pyrimidine-2,4-dione
> <PUBCHEM_IUPAC_NAME_MARKUP>
5-(2-chloroethyl)-1-[(2<I>R</I>,4<I>S</I>,5<I>S</I>)-5-(chloromethyl)-4-hydroxyoxolan-2-yl]pyrimidine-2,4-dione
> <PUBCHEM_IUPAC_NAME>
5-(2-chloroethyl)-1-[(2R,4S,5S)-5-(chloromethyl)-4-hydroxyoxolan-2-yl]pyrimidine-2,4-dione
> <PUBCHEM_IUPAC_SYSTEMATIC_NAME>
5-(2-chloroethyl)-1-[(2R,4S,5S)-5-(chloromethyl)-4-oxidanyl-oxolan-2-yl]pyrimidine-2,4-dione
> <PUBCHEM_IUPAC_TRADITIONAL_NAME>
5-(2-chloroethyl)-1-[(2R,4S,5S)-5-(chloromethyl)-4-hydroxy-tetrahydrofuran-2-yl]pyrimidine-2,4-quinone
> <PUBCHEM_IUPAC_INCHI>
InChI=1S/C11H14Cl2N2O4/c12-2-1-6-5-15(11(18)14-10(6)17)9-3-7(16)8(4-13)19-9/h5,7-9,16H,1-4H2,(H,14,17,18)/t7-,8+,9+/m0/s1
> <PUBCHEM_IUPAC_INCHIKEY>
UZZUOHQKNROJAN-DJLDLDEBSA-N
> <PUBCHEM_XLOGP3>
0
> <PUBCHEM_EXACT_MASS>
308.0330623
> <PUBCHEM_MOLECULAR_FORMULA>
C11H14Cl2N2O4
> <PUBCHEM_MOLECULAR_WEIGHT>
309.14
> <PUBCHEM_OPENEYE_CAN_SMILES>
C1C(C(OC1N2C=C(C(=O)NC2=O)CCCl)CCl)O
> <PUBCHEM_OPENEYE_ISO_SMILES>
C1[C@@H]([C@H](O[C@H]1N2C=C(C(=O)NC2=O)CCCl)CCl)O
> <PUBCHEM_CACTVS_TPSA>
78.9
> <PUBCHEM_MONOISOTOPIC_WEIGHT>
308.0330623
> <PUBCHEM_TOTAL_CHARGE>
0
> <PUBCHEM_HEAVY_ATOM_COUNT>
19
> <PUBCHEM_ATOM_DEF_STEREO_COUNT>
3
> <PUBCHEM_ATOM_UDEF_STEREO_COUNT>
0
> <PUBCHEM_BOND_DEF_STEREO_COUNT>
0
> <PUBCHEM_BOND_UDEF_STEREO_COUNT>
0
> <PUBCHEM_ISOTOPIC_ATOM_COUNT>
0
> <PUBCHEM_COMPONENT_COUNT>
1
> <PUBCHEM_CACTVS_TAUTO_COUNT>
3
> <PUBCHEM_COORDINATE_TYPE>
1
5
255
> <PUBCHEM_BONDANNOTATIONS>
12  13  6
14  16  8
16  17  8
10  4  5
7  14  8
7  15  8
9  7  6
8  15  8
8  17  8
$$$$
