514959
  -OEChem-10302200282D
 93 97  0     1  0  0  0  0  0999 V2000
    8.0622   -0.2372    0.0000 S   0  0  0  0  0  0  0  0  0  0  0  0
    7.1665   -6.4179    0.0000 O   0  0  0  0  0  0  0  0  0  0  0  0
    5.8938   -7.8250    0.0000 O   0  0  0  0  0  0  0  0  0  0  0  0
    5.4641   -4.4692    0.0000 O   0  0  0  0  0  0  0  0  0  0  0  0
    7.1962   -1.7372    0.0000 O   0  0  0  0  0  0  0  0  0  0  0  0
    7.5622   -1.1032    0.0000 O   0  0  0  0  0  0  0  0  0  0  0  0
    8.5622    0.6289    0.0000 O   0  0  0  0  0  0  0  0  0  0  0  0
    6.9641   -3.6032    0.0000 O   0  0  0  0  0  0  0  0  0  0  0  0
   11.6065   -0.4324    0.0000 O   0  0  0  0  0  0  0  0  0  0  0  0
   11.6065   -2.0419    0.0000 O   0  0  0  0  0  0  0  0  0  0  0  0
    6.3301    6.9590    0.0000 O   0  0  0  0  0  0  0  0  0  0  0  0
    7.8301    6.0930    0.0000 O   0  0  0  0  0  0  0  0  0  0  0  0
    7.1962    0.2628    0.0000 N   0  0  3  0  0  0  0  0  0  0  0  0
    5.4641   -2.7372    0.0000 N   0  0  0  0  0  0  0  0  0  0  0  0
    6.3301    5.2269    0.0000 N   0  0  0  0  0  0  0  0  0  0  0  0
    5.5574   -6.2488    0.0000 C   0  0  2  0  0  0  0  0  0  0  0  0
    6.3005   -6.9179    0.0000 C   0  0  1  0  0  0  0  0  0  0  0  0
    5.9641   -5.3352    0.0000 C   0  0  2  0  0  0  0  0  0  0  0  0
    4.6978   -6.7481    0.0000 C   0  0  0  0  0  0  0  0  0  0  0  0
    6.9586   -5.4398    0.0000 C   0  0  0  0  0  0  0  0  0  0  0  0
    4.9053   -7.7202    0.0000 C   0  0  0  0  0  0  0  0  0  0  0  0
    6.3301    1.7628    0.0000 C   0  0  0  0  0  0  0  0  0  0  0  0
    7.1962    1.2628    0.0000 C   0  0  0  0  0  0  0  0  0  0  0  0
    6.8301    2.6288    0.0000 C   0  0  0  0  0  0  0  0  0  0  0  0
    6.3301   -0.2372    0.0000 C   0  0  0  0  0  0  0  0  0  0  0  0
    6.3301   -1.2372    0.0000 C   0  0  2  0  0  0  0  0  0  0  0  0
    5.4641   -1.7372    0.0000 C   0  0  2  0  0  0  0  0  0  0  0  0
    5.4641    2.2628    0.0000 C   0  0  0  0  0  0  0  0  0  0  0  0
    5.8301    0.8968    0.0000 C   0  0  0  0  0  0  0  0  0  0  0  0
    6.3301    3.4949    0.0000 C   0  0  0  0  0  0  0  0  0  0  0  0
    5.9641   -3.6032    0.0000 C   0  0  0  0  0  0  0  0  0  0  0  0
    4.5981   -1.2372    0.0000 C   0  0  0  0  0  0  0  0  0  0  0  0
    6.8301    4.3609    0.0000 C   0  0  0  0  0  0  0  0  0  0  0  0
    8.9282   -0.7372    0.0000 C   0  0  0  0  0  0  0  0  0  0  0  0
    3.7320   -1.7372    0.0000 C   0  0  0  0  0  0  0  0  0  0  0  0
    9.7942   -0.2372    0.0000 C   0  0  0  0  0  0  0  0  0  0  0  0
    8.9282   -1.7372    0.0000 C   0  0  0  0  0  0  0  0  0  0  0  0
    2.8660   -1.2372    0.0000 C   0  0  0  0  0  0  0  0  0  0  0  0
    3.7320   -2.7372    0.0000 C   0  0  0  0  0  0  0  0  0  0  0  0
   10.6603   -0.7372    0.0000 C   0  0  0  0  0  0  0  0  0  0  0  0
    9.7942   -2.2372    0.0000 C   0  0  0  0  0  0  0  0  0  0  0  0
   10.6603   -1.7372    0.0000 C   0  0  0  0  0  0  0  0  0  0  0  0
    2.0000   -1.7372    0.0000 C   0  0  0  0  0  0  0  0  0  0  0  0
    2.8660   -3.2372    0.0000 C   0  0  0  0  0  0  0  0  0  0  0  0
    6.8301    6.0930    0.0000 C   0  0  0  0  0  0  0  0  0  0  0  0
    2.0000   -2.7372    0.0000 C   0  0  0  0  0  0  0  0  0  0  0  0
   12.1901   -1.2372    0.0000 C   0  0  0  0  0  0  0  0  0  0  0  0
    6.8301    7.8250    0.0000 C   0  0  0  0  0  0  0  0  0  0  0  0
    4.9250   -5.6809    0.0000 H   0  0  0  0  0  0  0  0  0  0  0  0
    6.9314   -7.4875    0.0000 H   0  0  0  0  0  0  0  0  0  0  0  0
    6.3018   -4.8153    0.0000 H   0  0  0  0  0  0  0  0  0  0  0  0
    4.4444   -6.1822    0.0000 H   0  0  0  0  0  0  0  0  0  0  0  0
    4.1084   -6.9405    0.0000 H   0  0  0  0  0  0  0  0  0  0  0  0
    7.5752   -5.3750    0.0000 H   0  0  0  0  0  0  0  0  0  0  0  0
    6.9586   -4.8198    0.0000 H   0  0  0  0  0  0  0  0  0  0  0  0
    4.2887   -7.7852    0.0000 H   0  0  0  0  0  0  0  0  0  0  0  0
    4.9051   -8.3402    0.0000 H   0  0  0  0  0  0  0  0  0  0  0  0
    7.8067    1.1552    0.0000 H   0  0  0  0  0  0  0  0  0  0  0  0
    7.4082    1.8454    0.0000 H   0  0  0  0  0  0  0  0  0  0  0  0
    7.3051    2.2303    0.0000 H   0  0  0  0  0  0  0  0  0  0  0  0
    7.3051    3.0274    0.0000 H   0  0  0  0  0  0  0  0  0  0  0  0
    6.1181    0.3454    0.0000 H   0  0  0  0  0  0  0  0  0  0  0  0
    5.7196   -0.3448    0.0000 H   0  0  0  0  0  0  0  0  0  0  0  0
    6.8671   -0.9272    0.0000 H   0  0  0  0  0  0  0  0  0  0  0  0
    6.0010   -2.0472    0.0000 H   0  0  0  0  0  0  0  0  0  0  0  0
    5.7741    2.7998    0.0000 H   0  0  0  0  0  0  0  0  0  0  0  0
    4.9272    2.5728    0.0000 H   0  0  0  0  0  0  0  0  0  0  0  0
    5.1541    1.7259    0.0000 H   0  0  0  0  0  0  0  0  0  0  0  0
    5.2932    1.2068    0.0000 H   0  0  0  0  0  0  0  0  0  0  0  0
    5.5201    0.3599    0.0000 H   0  0  0  0  0  0  0  0  0  0  0  0
    6.3671    0.5868    0.0000 H   0  0  0  0  0  0  0  0  0  0  0  0
    5.8552    3.8934    0.0000 H   0  0  0  0  0  0  0  0  0  0  0  0
    5.8552    3.0964    0.0000 H   0  0  0  0  0  0  0  0  0  0  0  0
    4.9272   -3.0472    0.0000 H   0  0  0  0  0  0  0  0  0  0  0  0
    4.9966   -0.7622    0.0000 H   0  0  0  0  0  0  0  0  0  0  0  0
    4.1996   -0.7622    0.0000 H   0  0  0  0  0  0  0  0  0  0  0  0
    7.3051    3.9624    0.0000 H   0  0  0  0  0  0  0  0  0  0  0  0
    7.3051    4.7594    0.0000 H   0  0  0  0  0  0  0  0  0  0  0  0
    7.5062   -2.2741    0.0000 H   0  0  0  0  0  0  0  0  0  0  0  0
    9.7942    0.3828    0.0000 H   0  0  0  0  0  0  0  0  0  0  0  0
    8.3913   -2.0472    0.0000 H   0  0  0  0  0  0  0  0  0  0  0  0
    5.7101    5.2269    0.0000 H   0  0  0  0  0  0  0  0  0  0  0  0
    2.8660   -0.6172    0.0000 H   0  0  0  0  0  0  0  0  0  0  0  0
    4.2690   -3.0472    0.0000 H   0  0  0  0  0  0  0  0  0  0  0  0
    9.7942   -2.8572    0.0000 H   0  0  0  0  0  0  0  0  0  0  0  0
    1.4631   -1.4272    0.0000 H   0  0  0  0  0  0  0  0  0  0  0  0
    2.8660   -3.8572    0.0000 H   0  0  0  0  0  0  0  0  0  0  0  0
    1.4631   -3.0472    0.0000 H   0  0  0  0  0  0  0  0  0  0  0  0
   12.6510   -1.6519    0.0000 H   0  0  0  0  0  0  0  0  0  0  0  0
   12.6510   -0.8224    0.0000 H   0  0  0  0  0  0  0  0  0  0  0  0
    7.3671    7.5150    0.0000 H   0  0  0  0  0  0  0  0  0  0  0  0
    7.1401    8.3619    0.0000 H   0  0  0  0  0  0  0  0  0  0  0  0
    6.2932    8.1350    0.0000 H   0  0  0  0  0  0  0  0  0  0  0  0
  1  6  2  0  0  0  0
  1  7  2  0  0  0  0
  1 13  1  0  0  0  0
  1 34  1  0  0  0  0
  2 17  1  0  0  0  0
  2 20  1  0  0  0  0
  3 17  1  0  0  0  0
  3 21  1  0  0  0  0
 18  4  1  1  0  0  0
  4 31  1  0  0  0  0
 26  5  1  1  0  0  0
  5 79  1  0  0  0  0
  8 31  2  0  0  0  0
  9 40  1  0  0  0  0
  9 47  1  0  0  0  0
 10 42  1  0  0  0  0
 10 47  1  0  0  0  0
 11 45  1  0  0  0  0
 11 48  1  0  0  0  0
 12 45  2  0  0  0  0
 13 23  1  0  0  0  0
 13 25  1  0  0  0  0
 27 14  1  1  0  0  0
 14 31  1  0  0  0  0
 14 74  1  0  0  0  0
 15 33  1  0  0  0  0
 15 45  1  0  0  0  0
 15 82  1  0  0  0  0
 16 17  1  0  0  0  0
 16 18  1  0  0  0  0
 16 19  1  0  0  0  0
 16 49  1  6  0  0  0
 17 50  1  6  0  0  0
 18 20  1  0  0  0  0
 18 51  1  0  0  0  0
 19 21  1  0  0  0  0
 19 52  1  0  0  0  0
 19 53  1  0  0  0  0
 20 54  1  0  0  0  0
 20 55  1  0  0  0  0
 21 56  1  0  0  0  0
 21 57  1  0  0  0  0
 22 23  1  0  0  0  0
 22 24  1  0  0  0  0
 22 28  1  0  0  0  0
 22 29  1  0  0  0  0
 23 58  1  0  0  0  0
 23 59  1  0  0  0  0
 24 30  1  0  0  0  0
 24 60  1  0  0  0  0
 24 61  1  0  0  0  0
 25 26  1  0  0  0  0
 25 62  1  0  0  0  0
 25 63  1  0  0  0  0
 26 27  1  0  0  0  0
 26 64  1  0  0  0  0
 27 32  1  0  0  0  0
 27 65  1  0  0  0  0
 28 66  1  0  0  0  0
 28 67  1  0  0  0  0
 28 68  1  0  0  0  0
 29 69  1  0  0  0  0
 29 70  1  0  0  0  0
 29 71  1  0  0  0  0
 30 33  1  0  0  0  0
 30 72  1  0  0  0  0
 30 73  1  0  0  0  0
 32 35  1  0  0  0  0
 32 75  1  0  0  0  0
 32 76  1  0  0  0  0
 33 77  1  0  0  0  0
 33 78  1  0  0  0  0
 34 36  2  0  0  0  0
 34 37  1  0  0  0  0
 35 38  2  0  0  0  0
 35 39  1  0  0  0  0
 36 40  1  0  0  0  0
 36 80  1  0  0  0  0
 37 41  2  0  0  0  0
 37 81  1  0  0  0  0
 38 43  1  0  0  0  0
 38 83  1  0  0  0  0
 39 44  2  0  0  0  0
 39 84  1  0  0  0  0
 40 42  2  0  0  0  0
 41 42  1  0  0  0  0
 41 85  1  0  0  0  0
 43 46  2  0  0  0  0
 43 86  1  0  0  0  0
 44 46  1  0  0  0  0
 44 87  1  0  0  0  0
 46 88  1  0  0  0  0
 47 89  1  0  0  0  0
 47 90  1  0  0  0  0
 48 91  1  0  0  0  0
 48 92  1  0  0  0  0
 48 93  1  0  0  0  0
M  END
> <PUBCHEM_COMPOUND_CID>
514959
> <PUBCHEM_COMPOUND_CANONICALIZED>
1
> <PUBCHEM_CACTVS_COMPLEXITY>
1160
> <PUBCHEM_CACTVS_HBOND_ACCEPTOR>
12
> <PUBCHEM_CACTVS_HBOND_DONOR>
3
> <PUBCHEM_CACTVS_ROTATABLE_BOND>
17
> <PUBCHEM_CACTVS_SUBSKEYS>
AAADcfB/PABAAAAAAAAAAAAAAAAAASJEgAAwYAAAAAASAEgBQAAAHgQQSAAADzzx2AcyD4LABgKIAiBCGHBCCBAgIAAIiJgOiIkfNiKE8RuucCIl1hGeqAfQ4KgPAIAABAAAQAABAAAIAACAAAAAAAAAAA==
> <PUBCHEM_IUPAC_OPENEYE_NAME>
methyl N-[5-[[(2R,3S)-3-[[(3aS,4R,6aR)-2,3,3a,4,5,6a-hexahydrofuro[2,3-b]furan-4-yl]oxycarbonylamino]-2-hydroxy-4-phenyl-butyl]-(1,3-benzodioxol-5-ylsulfonyl)amino]-4,4-dimethyl-pentyl]carbamate
> <PUBCHEM_IUPAC_CAS_NAME>
N-[5-[[(2R,3S)-3-[[[(3aS,4R,6aR)-2,3,3a,4,5,6a-hexahydrofuro[2,3-b]furan-4-yl]oxy-oxomethyl]amino]-2-hydroxy-4-phenylbutyl]-(1,3-benzodioxol-5-ylsulfonyl)amino]-4,4-dimethylpentyl]carbamic acid methyl ester
> <PUBCHEM_IUPAC_NAME_MARKUP>
methyl <I>N</I>-[5-[[(2<I>R</I>,3<I>S</I>)-3-[[(3<I>a</I><I>S</I>,4<I>R</I>,6<I>a</I><I>R</I>)-2,3,3<I>a</I>,4,5,6<I>a</I>-hexahydrofuro[2,3-b]furan-4-yl]oxycarbonylamino]-2-hydroxy-4-phenylbutyl]-(1,3-benzodioxol-5-ylsulfonyl)amino]-4,4-dimethylpentyl]carbamate
> <PUBCHEM_IUPAC_NAME>
methyl N-[5-[[(2R,3S)-3-[[(3aS,4R,6aR)-2,3,3a,4,5,6a-hexahydrofuro[2,3-b]furan-4-yl]oxycarbonylamino]-2-hydroxy-4-phenylbutyl]-(1,3-benzodioxol-5-ylsulfonyl)amino]-4,4-dimethylpentyl]carbamate
> <PUBCHEM_IUPAC_SYSTEMATIC_NAME>
methyl N-[5-[[(2R,3S)-3-[[(3aS,4R,6aR)-2,3,3a,4,5,6a-hexahydrofuro[2,3-b]furan-4-yl]oxycarbonylamino]-2-oxidanyl-4-phenyl-butyl]-(1,3-benzodioxol-5-ylsulfonyl)amino]-4,4-dimethyl-pentyl]carbamate
> <PUBCHEM_IUPAC_TRADITIONAL_NAME>
N-[5-[[(2R,3S)-3-[[(3aS,4R,6aR)-2,3,3a,4,5,6a-hexahydrofuro[2,3-b]furan-4-yl]oxycarbonylamino]-2-hydroxy-4-phenyl-butyl]-(1,3-benzodioxol-5-ylsulfonyl)amino]-4,4-dimethyl-pentyl]carbamic acid methyl ester
> <PUBCHEM_IUPAC_INCHI>
InChI=1S/C33H45N3O11S/c1-33(2,13-7-14-34-31(38)42-3)20-36(48(40,41)23-10-11-27-28(17-23)46-21-45-27)18-26(37)25(16-22-8-5-4-6-9-22)35-32(39)47-29-19-44-30-24(29)12-15-43-30/h4-6,8-11,17,24-26,29-30,37H,7,12-16,18-21H2,1-3H3,(H,34,38)(H,35,39)/t24-,25-,26+,29-,30+/m0/s1
> <PUBCHEM_IUPAC_INCHIKEY>
UKZQSSUNRDMWKJ-UGSBDYSCSA-N
> <PUBCHEM_XLOGP3_AA>
3.7
> <PUBCHEM_EXACT_MASS>
691.27748043
> <PUBCHEM_MOLECULAR_FORMULA>
C33H45N3O11S
> <PUBCHEM_MOLECULAR_WEIGHT>
691.8
> <PUBCHEM_OPENEYE_CAN_SMILES>
CC(C)(CCCNC(=O)OC)CN(CC(C(CC1=CC=CC=C1)NC(=O)OC2COC3C2CCO3)O)S(=O)(=O)C4=CC5=C(C=C4)OCO5
> <PUBCHEM_OPENEYE_ISO_SMILES>
CC(C)(CCCNC(=O)OC)CN(C[C@H]([C@H](CC1=CC=CC=C1)NC(=O)O[C@H]2CO[C@@H]3[C@H]2CCO3)O)S(=O)(=O)C4=CC5=C(C=C4)OCO5
> <PUBCHEM_CACTVS_TPSA>
180
> <PUBCHEM_MONOISOTOPIC_WEIGHT>
691.27748043
> <PUBCHEM_TOTAL_CHARGE>
0
> <PUBCHEM_HEAVY_ATOM_COUNT>
48
> <PUBCHEM_ATOM_DEF_STEREO_COUNT>
5
> <PUBCHEM_ATOM_UDEF_STEREO_COUNT>
0
> <PUBCHEM_BOND_DEF_STEREO_COUNT>
0
> <PUBCHEM_BOND_UDEF_STEREO_COUNT>
0
> <PUBCHEM_ISOTOPIC_ATOM_COUNT>
0
> <PUBCHEM_COMPONENT_COUNT>
1
> <PUBCHEM_CACTVS_TAUTO_COUNT>
-1
> <PUBCHEM_COORDINATE_TYPE>
1
5
255
> <PUBCHEM_BONDANNOTATIONS>
27  14  5
16  49  6
17  50  6
34  36  8
34  37  8
35  38  8
35  39  8
36  40  8
37  41  8
38  43  8
39  44  8
18  4  5
40  42  8
41  42  8
43  46  8
44  46  8
26  5  5
$$$$
