514991
  -OEChem-10302200282D
 70 73  0     1  0  0  0  0  0999 V2000
    9.6602   -3.4239    0.0000 F   0  0  0  0  0  0  0  0  0  0  0  0
   10.6603   -4.4239    0.0000 F   0  0  0  0  0  0  0  0  0  0  0  0
   11.6603   -3.4239    0.0000 F   0  0  0  0  0  0  0  0  0  0  0  0
   12.3923    0.5761    0.0000 O   0  0  0  0  0  0  0  0  0  0  0  0
   10.4385    4.4239    0.0000 O   0  0  0  0  0  0  0  0  0  0  0  0
    7.1962    0.5761    0.0000 N   0  0  0  0  0  0  0  0  0  0  0  0
   10.6603    0.5761    0.0000 N   0  0  0  0  0  0  0  0  0  0  0  0
   12.0263    3.6149    0.0000 N   0  0  0  0  0  0  0  0  0  0  0  0
    5.4641   -0.4239    0.0000 C   0  0  0  0  0  0  0  0  0  0  0  0
    5.4641    0.5761    0.0000 C   0  0  0  0  0  0  0  0  0  0  0  0
    6.3301   -0.9239    0.0000 C   0  0  0  0  0  0  0  0  0  0  0  0
    6.3301    1.0761    0.0000 C   0  0  0  0  0  0  0  0  0  0  0  0
    7.1962   -0.4239    0.0000 C   0  0  0  0  0  0  0  0  0  0  0  0
    4.5981   -0.9239    0.0000 C   0  0  0  0  0  0  0  0  0  0  0  0
    8.0622    1.0761    0.0000 C   0  0  0  0  0  0  0  0  0  0  0  0
    8.9282    0.5761    0.0000 C   0  0  0  0  0  0  0  0  0  0  0  0
   11.5263    2.0761    0.0000 C   0  0  3  0  0  0  0  0  0  0  0  0
    9.7942    1.0761    0.0000 C   0  0  0  0  0  0  0  0  0  0  0  0
    3.7320   -0.4239    0.0000 C   0  0  0  0  0  0  0  0  0  0  0  0
   12.3353    2.6639    0.0000 C   0  0  0  0  0  0  0  0  0  0  0  0
   10.7173    2.6639    0.0000 C   0  0  0  0  0  0  0  0  0  0  0  0
   11.5263    1.0761    0.0000 C   0  0  0  0  0  0  0  0  0  0  0  0
   11.0263    3.6149    0.0000 C   0  0  0  0  0  0  0  0  0  0  0  0
   10.6603   -0.4239    0.0000 C   0  0  0  0  0  0  0  0  0  0  0  0
    2.8660   -0.9239    0.0000 C   0  0  0  0  0  0  0  0  0  0  0  0
    3.7320    0.5761    0.0000 C   0  0  0  0  0  0  0  0  0  0  0  0
   12.6141    4.4239    0.0000 C   0  0  0  0  0  0  0  0  0  0  0  0
    2.0000   -0.4239    0.0000 C   0  0  0  0  0  0  0  0  0  0  0  0
    2.8660    1.0761    0.0000 C   0  0  0  0  0  0  0  0  0  0  0  0
    9.7942   -0.9239    0.0000 C   0  0  0  0  0  0  0  0  0  0  0  0
   11.5263   -0.9239    0.0000 C   0  0  0  0  0  0  0  0  0  0  0  0
    2.0000    0.5761    0.0000 C   0  0  0  0  0  0  0  0  0  0  0  0
    9.7942   -1.9239    0.0000 C   0  0  0  0  0  0  0  0  0  0  0  0
   11.5263   -1.9239    0.0000 C   0  0  0  0  0  0  0  0  0  0  0  0
   10.6603   -2.4239    0.0000 C   0  0  0  0  0  0  0  0  0  0  0  0
   10.6603   -3.4239    0.0000 C   0  0  0  0  0  0  0  0  0  0  0  0
    5.4641   -1.0439    0.0000 H   0  0  0  0  0  0  0  0  0  0  0  0
    5.2520    1.1587    0.0000 H   0  0  0  0  0  0  0  0  0  0  0  0
    4.8535    0.4684    0.0000 H   0  0  0  0  0  0  0  0  0  0  0  0
    5.9316   -1.3989    0.0000 H   0  0  0  0  0  0  0  0  0  0  0  0
    6.7287   -1.3989    0.0000 H   0  0  0  0  0  0  0  0  0  0  0  0
    6.7287    1.5510    0.0000 H   0  0  0  0  0  0  0  0  0  0  0  0
    5.9316    1.5510    0.0000 H   0  0  0  0  0  0  0  0  0  0  0  0
    7.4082   -1.0065    0.0000 H   0  0  0  0  0  0  0  0  0  0  0  0
    7.8067   -0.3163    0.0000 H   0  0  0  0  0  0  0  0  0  0  0  0
    4.1996   -1.3989    0.0000 H   0  0  0  0  0  0  0  0  0  0  0  0
    4.9966   -1.3989    0.0000 H   0  0  0  0  0  0  0  0  0  0  0  0
    8.4607    1.5510    0.0000 H   0  0  0  0  0  0  0  0  0  0  0  0
    7.6636    1.5510    0.0000 H   0  0  0  0  0  0  0  0  0  0  0  0
    8.5297    0.1011    0.0000 H   0  0  0  0  0  0  0  0  0  0  0  0
    9.3267    0.1011    0.0000 H   0  0  0  0  0  0  0  0  0  0  0  0
   12.0787    1.7946    0.0000 H   0  0  0  0  0  0  0  0  0  0  0  0
   10.1928    1.5510    0.0000 H   0  0  0  0  0  0  0  0  0  0  0  0
    9.3957    1.5510    0.0000 H   0  0  0  0  0  0  0  0  0  0  0  0
   12.6453    2.1269    0.0000 H   0  0  0  0  0  0  0  0  0  0  0  0
   12.9017    2.9160    0.0000 H   0  0  0  0  0  0  0  0  0  0  0  0
   10.1509    2.9160    0.0000 H   0  0  0  0  0  0  0  0  0  0  0  0
   10.4073    2.1269    0.0000 H   0  0  0  0  0  0  0  0  0  0  0  0
    2.8660   -1.5439    0.0000 H   0  0  0  0  0  0  0  0  0  0  0  0
    4.2690    0.8861    0.0000 H   0  0  0  0  0  0  0  0  0  0  0  0
   13.1157    4.0595    0.0000 H   0  0  0  0  0  0  0  0  0  0  0  0
   12.9785    4.9255    0.0000 H   0  0  0  0  0  0  0  0  0  0  0  0
   12.1125    4.7884    0.0000 H   0  0  0  0  0  0  0  0  0  0  0  0
    1.4631   -0.7339    0.0000 H   0  0  0  0  0  0  0  0  0  0  0  0
    2.8660    1.6961    0.0000 H   0  0  0  0  0  0  0  0  0  0  0  0
    9.2573   -0.6139    0.0000 H   0  0  0  0  0  0  0  0  0  0  0  0
   12.0632   -0.6139    0.0000 H   0  0  0  0  0  0  0  0  0  0  0  0
    1.4631    0.8861    0.0000 H   0  0  0  0  0  0  0  0  0  0  0  0
    9.2573   -2.2339    0.0000 H   0  0  0  0  0  0  0  0  0  0  0  0
   12.0632   -2.2339    0.0000 H   0  0  0  0  0  0  0  0  0  0  0  0
  1 36  1  0  0  0  0
  2 36  1  0  0  0  0
  3 36  1  0  0  0  0
  4 22  2  0  0  0  0
  5 23  2  0  0  0  0
  6 12  1  0  0  0  0
  6 13  1  0  0  0  0
  6 15  1  0  0  0  0
  7 18  1  0  0  0  0
  7 22  1  0  0  0  0
  7 24  1  0  0  0  0
  8 20  1  0  0  0  0
  8 23  1  0  0  0  0
  8 27  1  0  0  0  0
  9 10  1  0  0  0  0
  9 11  1  0  0  0  0
  9 14  1  0  0  0  0
  9 37  1  0  0  0  0
 10 12  1  0  0  0  0
 10 38  1  0  0  0  0
 10 39  1  0  0  0  0
 11 13  1  0  0  0  0
 11 40  1  0  0  0  0
 11 41  1  0  0  0  0
 12 42  1  0  0  0  0
 12 43  1  0  0  0  0
 13 44  1  0  0  0  0
 13 45  1  0  0  0  0
 14 19  1  0  0  0  0
 14 46  1  0  0  0  0
 14 47  1  0  0  0  0
 15 16  1  0  0  0  0
 15 48  1  0  0  0  0
 15 49  1  0  0  0  0
 16 18  1  0  0  0  0
 16 50  1  0  0  0  0
 16 51  1  0  0  0  0
 17 20  1  0  0  0  0
 17 21  1  0  0  0  0
 17 22  1  0  0  0  0
 17 52  1  0  0  0  0
 18 53  1  0  0  0  0
 18 54  1  0  0  0  0
 19 25  2  0  0  0  0
 19 26  1  0  0  0  0
 20 55  1  0  0  0  0
 20 56  1  0  0  0  0
 21 23  1  0  0  0  0
 21 57  1  0  0  0  0
 21 58  1  0  0  0  0
 24 30  2  0  0  0  0
 24 31  1  0  0  0  0
 25 28  1  0  0  0  0
 25 59  1  0  0  0  0
 26 29  2  0  0  0  0
 26 60  1  0  0  0  0
 27 61  1  0  0  0  0
 27 62  1  0  0  0  0
 27 63  1  0  0  0  0
 28 32  2  0  0  0  0
 28 64  1  0  0  0  0
 29 32  1  0  0  0  0
 29 65  1  0  0  0  0
 30 33  1  0  0  0  0
 30 66  1  0  0  0  0
 31 34  2  0  0  0  0
 31 67  1  0  0  0  0
 32 68  1  0  0  0  0
 33 35  2  0  0  0  0
 33 69  1  0  0  0  0
 34 35  1  0  0  0  0
 34 70  1  0  0  0  0
 35 36  1  0  0  0  0
M  END
> <PUBCHEM_COMPOUND_CID>
514991
> <PUBCHEM_COMPOUND_CANONICALIZED>
1
> <PUBCHEM_CACTVS_COMPLEXITY>
724
> <PUBCHEM_CACTVS_HBOND_ACCEPTOR>
6
> <PUBCHEM_CACTVS_HBOND_DONOR>
0
> <PUBCHEM_CACTVS_ROTATABLE_BOND>
8
> <PUBCHEM_CACTVS_SUBSKEYS>
AAADcfB7MYAAAAAAAAAAAAAAAAAAAWAAAAA8YIAAAAAAAAABQAAAHwAAAAAADQjBmBQywIMAAACIAiVSUACCAAAhAgAIiAEIZIgIIDrA0ZGEIAhghgDIyAcVgMAOCAAAAAAAAAAQAAAAAAAAAAAAAAAAAA==
> <PUBCHEM_IUPAC_OPENEYE_NAME>
N-[3-(4-benzyl-1-piperidyl)propyl]-1-methyl-5-oxo-N-[4-(trifluoromethyl)phenyl]pyrrolidine-3-carboxamide
> <PUBCHEM_IUPAC_CAS_NAME>
1-methyl-5-oxo-N-[3-[4-(phenylmethyl)-1-piperidinyl]propyl]-N-[4-(trifluoromethyl)phenyl]-3-pyrrolidinecarboxamide
> <PUBCHEM_IUPAC_NAME_MARKUP>
<I>N</I>-[3-(4-benzylpiperidin-1-yl)propyl]-1-methyl-5-oxo-<I>N</I>-[4-(trifluoromethyl)phenyl]pyrrolidine-3-carboxamide
> <PUBCHEM_IUPAC_NAME>
N-[3-(4-benzylpiperidin-1-yl)propyl]-1-methyl-5-oxo-N-[4-(trifluoromethyl)phenyl]pyrrolidine-3-carboxamide
> <PUBCHEM_IUPAC_SYSTEMATIC_NAME>
1-methyl-5-oxidanylidene-N-[3-[4-(phenylmethyl)piperidin-1-yl]propyl]-N-[4-(trifluoromethyl)phenyl]pyrrolidine-3-carboxamide
> <PUBCHEM_IUPAC_TRADITIONAL_NAME>
N-[3-(4-benzylpiperidino)propyl]-5-keto-1-methyl-N-[4-(trifluoromethyl)phenyl]pyrrolidine-3-carboxamide
> <PUBCHEM_IUPAC_INCHI>
InChI=1S/C28H34F3N3O2/c1-32-20-23(19-26(32)35)27(36)34(25-10-8-24(9-11-25)28(29,30)31)15-5-14-33-16-12-22(13-17-33)18-21-6-3-2-4-7-21/h2-4,6-11,22-23H,5,12-20H2,1H3
> <PUBCHEM_IUPAC_INCHIKEY>
NMGXPPFCUDAQGV-UHFFFAOYSA-N
> <PUBCHEM_XLOGP3_AA>
4.4
> <PUBCHEM_EXACT_MASS>
501.26031182
> <PUBCHEM_MOLECULAR_FORMULA>
C28H34F3N3O2
> <PUBCHEM_MOLECULAR_WEIGHT>
501.6
> <PUBCHEM_OPENEYE_CAN_SMILES>
CN1CC(CC1=O)C(=O)N(CCCN2CCC(CC2)CC3=CC=CC=C3)C4=CC=C(C=C4)C(F)(F)F
> <PUBCHEM_OPENEYE_ISO_SMILES>
CN1CC(CC1=O)C(=O)N(CCCN2CCC(CC2)CC3=CC=CC=C3)C4=CC=C(C=C4)C(F)(F)F
> <PUBCHEM_CACTVS_TPSA>
43.9
> <PUBCHEM_MONOISOTOPIC_WEIGHT>
501.26031182
> <PUBCHEM_TOTAL_CHARGE>
0
> <PUBCHEM_HEAVY_ATOM_COUNT>
36
> <PUBCHEM_ATOM_DEF_STEREO_COUNT>
0
> <PUBCHEM_ATOM_UDEF_STEREO_COUNT>
1
> <PUBCHEM_BOND_DEF_STEREO_COUNT>
0
> <PUBCHEM_BOND_UDEF_STEREO_COUNT>
0
> <PUBCHEM_ISOTOPIC_ATOM_COUNT>
0
> <PUBCHEM_COMPONENT_COUNT>
1
> <PUBCHEM_CACTVS_TAUTO_COUNT>
-1
> <PUBCHEM_COORDINATE_TYPE>
1
5
255
> <PUBCHEM_BONDANNOTATIONS>
17  22  3
19  25  8
19  26  8
24  30  8
24  31  8
25  28  8
26  29  8
28  32  8
29  32  8
30  33  8
31  34  8
33  35  8
34  35  8
$$$$
