514969
  -OEChem-10302200282D
 66 70  0     1  0  0  0  0  0999 V2000
    7.1254   -0.6618    0.0000 O   0  0  0  0  0  0  0  0  0  0  0  0
   10.5687   -2.3937    0.0000 O   0  0  0  0  0  0  0  0  0  0  0  0
    4.5274    0.8382    0.0000 N   0  0  0  0  0  0  0  0  0  0  0  0
    6.2594   -2.1618    0.0000 N   0  0  0  0  0  0  0  0  0  0  0  0
    9.0741   -3.3642    0.0000 N   0  0  0  0  0  0  0  0  0  0  0  0
    4.5274    2.8382    0.0000 C   0  0  0  0  0  0  0  0  0  0  0  0
    3.6613    2.3382    0.0000 C   0  0  0  0  0  0  0  0  0  0  0  0
    5.3934    2.3382    0.0000 C   0  0  0  0  0  0  0  0  0  0  0  0
    3.6613    1.3382    0.0000 C   0  0  0  0  0  0  0  0  0  0  0  0
    5.3934    1.3382    0.0000 C   0  0  0  0  0  0  0  0  0  0  0  0
    3.7183    3.4260    0.0000 C   0  0  0  0  0  0  0  0  0  0  0  0
    5.3364    3.4260    0.0000 C   0  0  0  0  0  0  0  0  0  0  0  0
    4.5274   -0.1618    0.0000 C   0  0  0  0  0  0  0  0  0  0  0  0
    4.0274    4.3770    0.0000 C   0  0  0  0  0  0  0  0  0  0  0  0
    5.0274    4.3770    0.0000 C   0  0  0  0  0  0  0  0  0  0  0  0
    5.3934   -0.6618    0.0000 C   0  0  0  0  0  0  0  0  0  0  0  0
    2.7029    3.1938    0.0000 C   0  0  0  0  0  0  0  0  0  0  0  0
    5.3934   -1.6618    0.0000 C   0  0  0  0  0  0  0  0  0  0  0  0
    3.3424    5.1618    0.0000 C   0  0  0  0  0  0  0  0  0  0  0  0
    7.9915   -2.1618    0.0000 C   0  0  3  0  0  0  0  0  0  0  0  0
    2.0000    3.9624    0.0000 C   0  0  0  0  0  0  0  0  0  0  0  0
    2.3219    4.9531    0.0000 C   0  0  0  0  0  0  0  0  0  0  0  0
    8.0960   -3.1563    0.0000 C   0  0  0  0  0  0  0  0  0  0  0  0
    8.9050   -1.7550    0.0000 C   0  0  0  0  0  0  0  0  0  0  0  0
    7.1254   -1.6618    0.0000 C   0  0  0  0  0  0  0  0  0  0  0  0
    9.5741   -2.4982    0.0000 C   0  0  0  0  0  0  0  0  0  0  0  0
    6.2594   -3.1618    0.0000 C   0  0  0  0  0  0  0  0  0  0  0  0
    9.4809   -4.2778    0.0000 C   0  0  0  0  0  0  0  0  0  0  0  0
    5.3934   -3.6618    0.0000 C   0  0  0  0  0  0  0  0  0  0  0  0
    7.1254   -3.6618    0.0000 C   0  0  0  0  0  0  0  0  0  0  0  0
    5.3934   -4.6618    0.0000 C   0  0  0  0  0  0  0  0  0  0  0  0
    7.1254   -4.6618    0.0000 C   0  0  0  0  0  0  0  0  0  0  0  0
    6.2594   -5.1618    0.0000 C   0  0  0  0  0  0  0  0  0  0  0  0
    3.4493    2.9208    0.0000 H   0  0  0  0  0  0  0  0  0  0  0  0
    3.0508    2.2306    0.0000 H   0  0  0  0  0  0  0  0  0  0  0  0
    6.0040    2.2306    0.0000 H   0  0  0  0  0  0  0  0  0  0  0  0
    5.6054    2.9208    0.0000 H   0  0  0  0  0  0  0  0  0  0  0  0
    3.0508    1.4459    0.0000 H   0  0  0  0  0  0  0  0  0  0  0  0
    3.4493    0.7556    0.0000 H   0  0  0  0  0  0  0  0  0  0  0  0
    5.6054    0.7556    0.0000 H   0  0  0  0  0  0  0  0  0  0  0  0
    6.0040    1.4459    0.0000 H   0  0  0  0  0  0  0  0  0  0  0  0
    5.9260    3.2344    0.0000 H   0  0  0  0  0  0  0  0  0  0  0  0
    3.9168   -0.0541    0.0000 H   0  0  0  0  0  0  0  0  0  0  0  0
    4.3153   -0.7444    0.0000 H   0  0  0  0  0  0  0  0  0  0  0  0
    5.3918    4.8786    0.0000 H   0  0  0  0  0  0  0  0  0  0  0  0
    6.0040   -0.7695    0.0000 H   0  0  0  0  0  0  0  0  0  0  0  0
    5.6054   -0.0792    0.0000 H   0  0  0  0  0  0  0  0  0  0  0  0
    2.5182    2.6019    0.0000 H   0  0  0  0  0  0  0  0  0  0  0  0
    4.7828   -1.5541    0.0000 H   0  0  0  0  0  0  0  0  0  0  0  0
    5.1813   -2.2444    0.0000 H   0  0  0  0  0  0  0  0  0  0  0  0
    3.5408    5.7492    0.0000 H   0  0  0  0  0  0  0  0  0  0  0  0
    8.0239   -1.5426    0.0000 H   0  0  0  0  0  0  0  0  0  0  0  0
    1.3940    3.8312    0.0000 H   0  0  0  0  0  0  0  0  0  0  0  0
    7.4760   -3.1563    0.0000 H   0  0  0  0  0  0  0  0  0  0  0  0
    8.0312   -3.7729    0.0000 H   0  0  0  0  0  0  0  0  0  0  0  0
    1.9088    5.4154    0.0000 H   0  0  0  0  0  0  0  0  0  0  0  0
    9.4066   -1.3906    0.0000 H   0  0  0  0  0  0  0  0  0  0  0  0
    8.5950   -1.2181    0.0000 H   0  0  0  0  0  0  0  0  0  0  0  0
    8.9145   -4.5300    0.0000 H   0  0  0  0  0  0  0  0  0  0  0  0
    9.7330   -4.8442    0.0000 H   0  0  0  0  0  0  0  0  0  0  0  0
   10.0473   -4.0256    0.0000 H   0  0  0  0  0  0  0  0  0  0  0  0
    4.8564   -3.3518    0.0000 H   0  0  0  0  0  0  0  0  0  0  0  0
    7.6624   -3.3518    0.0000 H   0  0  0  0  0  0  0  0  0  0  0  0
    4.8564   -4.9718    0.0000 H   0  0  0  0  0  0  0  0  0  0  0  0
    7.6624   -4.9718    0.0000 H   0  0  0  0  0  0  0  0  0  0  0  0
    6.2594   -5.7818    0.0000 H   0  0  0  0  0  0  0  0  0  0  0  0
  1 25  2  0  0  0  0
  2 26  2  0  0  0  0
  3  9  1  0  0  0  0
  3 10  1  0  0  0  0
  3 13  1  0  0  0  0
  4 18  1  0  0  0  0
  4 25  1  0  0  0  0
  4 27  1  0  0  0  0
  5 23  1  0  0  0  0
  5 26  1  0  0  0  0
  5 28  1  0  0  0  0
  6  7  1  0  0  0  0
  6  8  1  0  0  0  0
  6 11  1  0  0  0  0
  6 12  1  0  0  0  0
  7  9  1  0  0  0  0
  7 34  1  0  0  0  0
  7 35  1  0  0  0  0
  8 10  1  0  0  0  0
  8 36  1  0  0  0  0
  8 37  1  0  0  0  0
  9 38  1  0  0  0  0
  9 39  1  0  0  0  0
 10 40  1  0  0  0  0
 10 41  1  0  0  0  0
 11 14  1  0  0  0  0
 11 17  2  0  0  0  0
 12 15  2  0  0  0  0
 12 42  1  0  0  0  0
 13 16  1  0  0  0  0
 13 43  1  0  0  0  0
 13 44  1  0  0  0  0
 14 15  1  0  0  0  0
 14 19  2  0  0  0  0
 15 45  1  0  0  0  0
 16 18  1  0  0  0  0
 16 46  1  0  0  0  0
 16 47  1  0  0  0  0
 17 21  1  0  0  0  0
 17 48  1  0  0  0  0
 18 49  1  0  0  0  0
 18 50  1  0  0  0  0
 19 22  1  0  0  0  0
 19 51  1  0  0  0  0
 20 23  1  0  0  0  0
 20 24  1  0  0  0  0
 20 25  1  0  0  0  0
 20 52  1  0  0  0  0
 21 22  2  0  0  0  0
 21 53  1  0  0  0  0
 22 56  1  0  0  0  0
 23 54  1  0  0  0  0
 23 55  1  0  0  0  0
 24 26  1  0  0  0  0
 24 57  1  0  0  0  0
 24 58  1  0  0  0  0
 27 29  2  0  0  0  0
 27 30  1  0  0  0  0
 28 59  1  0  0  0  0
 28 60  1  0  0  0  0
 28 61  1  0  0  0  0
 29 31  1  0  0  0  0
 29 62  1  0  0  0  0
 30 32  2  0  0  0  0
 30 63  1  0  0  0  0
 31 33  2  0  0  0  0
 31 64  1  0  0  0  0
 32 33  1  0  0  0  0
 32 65  1  0  0  0  0
 33 66  1  0  0  0  0
M  END
> <PUBCHEM_COMPOUND_CID>
514969
> <PUBCHEM_COMPOUND_CANONICALIZED>
1
> <PUBCHEM_CACTVS_COMPLEXITY>
735
> <PUBCHEM_CACTVS_HBOND_ACCEPTOR>
3
> <PUBCHEM_CACTVS_HBOND_DONOR>
0
> <PUBCHEM_CACTVS_ROTATABLE_BOND>
6
> <PUBCHEM_CACTVS_SUBSKEYS>
AAADcfB7MAAAAAAAAAAAAAAAAAAAAWIAAAA8YIAAAAAAAEABQAAAHgAAAAAADwjBmAQywIMAAACIAiVSUACCAAAhAgAIiAEIZIgIIDrA0ZGEIAhghgDIyAcVgMAPgAAAAAAQAAAAAAAAACAAAAAAAAAAAA==
> <PUBCHEM_IUPAC_OPENEYE_NAME>
1-methyl-5-oxo-N-phenyl-N-(3-spiro[indene-1,4'-piperidine]-1'-ylpropyl)pyrrolidine-3-carboxamide
> <PUBCHEM_IUPAC_CAS_NAME>
1-methyl-5-oxo-N-phenyl-N-[3-(1'-spiro[indene-1,4'-piperidine]yl)propyl]-3-pyrrolidinecarboxamide
> <PUBCHEM_IUPAC_NAME_MARKUP>
1-methyl-5-oxo-<I>N</I>-phenyl-<I>N</I>-(3-spiro[indene-1,4&apos;-piperidine]-1&apos;-ylpropyl)pyrrolidine-3-carboxamide
> <PUBCHEM_IUPAC_NAME>
1-methyl-5-oxo-N-phenyl-N-(3-spiro[indene-1,4'-piperidine]-1'-ylpropyl)pyrrolidine-3-carboxamide
> <PUBCHEM_IUPAC_SYSTEMATIC_NAME>
1-methyl-5-oxidanylidene-N-phenyl-N-(3-spiro[indene-1,4'-piperidine]-1'-ylpropyl)pyrrolidine-3-carboxamide
> <PUBCHEM_IUPAC_TRADITIONAL_NAME>
5-keto-1-methyl-N-phenyl-N-(3-spiro[indene-1,4'-piperidine]-1'-ylpropyl)pyrrolidine-3-carboxamide
> <PUBCHEM_IUPAC_INCHI>
InChI=1S/C28H33N3O2/c1-29-21-23(20-26(29)32)27(33)31(24-9-3-2-4-10-24)17-7-16-30-18-14-28(15-19-30)13-12-22-8-5-6-11-25(22)28/h2-6,8-13,23H,7,14-21H2,1H3
> <PUBCHEM_IUPAC_INCHIKEY>
GXIOUZSOMPVSQL-UHFFFAOYSA-N
> <PUBCHEM_XLOGP3_AA>
3.6
> <PUBCHEM_EXACT_MASS>
443.25727730
> <PUBCHEM_MOLECULAR_FORMULA>
C28H33N3O2
> <PUBCHEM_MOLECULAR_WEIGHT>
443.6
> <PUBCHEM_OPENEYE_CAN_SMILES>
CN1CC(CC1=O)C(=O)N(CCCN2CCC3(CC2)C=CC4=CC=CC=C34)C5=CC=CC=C5
> <PUBCHEM_OPENEYE_ISO_SMILES>
CN1CC(CC1=O)C(=O)N(CCCN2CCC3(CC2)C=CC4=CC=CC=C34)C5=CC=CC=C5
> <PUBCHEM_CACTVS_TPSA>
43.9
> <PUBCHEM_MONOISOTOPIC_WEIGHT>
443.25727730
> <PUBCHEM_TOTAL_CHARGE>
0
> <PUBCHEM_HEAVY_ATOM_COUNT>
33
> <PUBCHEM_ATOM_DEF_STEREO_COUNT>
0
> <PUBCHEM_ATOM_UDEF_STEREO_COUNT>
1
> <PUBCHEM_BOND_DEF_STEREO_COUNT>
0
> <PUBCHEM_BOND_UDEF_STEREO_COUNT>
0
> <PUBCHEM_ISOTOPIC_ATOM_COUNT>
0
> <PUBCHEM_COMPONENT_COUNT>
1
> <PUBCHEM_CACTVS_TAUTO_COUNT>
-1
> <PUBCHEM_COORDINATE_TYPE>
1
5
255
> <PUBCHEM_BONDANNOTATIONS>
11  14  8
11  17  8
14  19  8
17  21  8
19  22  8
20  25  3
21  22  8
27  29  8
27  30  8
29  31  8
30  32  8
31  33  8
32  33  8
$$$$
