514999
  -OEChem-10302200282D
 83 87  0     1  0  0  0  0  0999 V2000
    4.8958   -4.6160    0.0000 O   0  0  0  0  0  0  0  0  0  0  0  0
    7.2512   -1.0000    0.0000 O   0  0  0  0  0  0  0  0  0  0  0  0
    4.8025   -2.8364    0.0000 N   0  0  0  0  0  0  0  0  0  0  0  0
    9.8493    0.5000    0.0000 N   0  0  0  0  0  0  0  0  0  0  0  0
    8.1172   -2.5000    0.0000 N   0  0  0  0  0  0  0  0  0  0  0  0
    3.4013   -1.8183    0.0000 C   0  0  0  0  0  0  0  0  0  0  0  0
    3.8080   -2.7319    0.0000 C   0  0  0  0  0  0  0  0  0  0  0  0
    3.9890   -1.0093    0.0000 C   0  0  0  0  0  0  0  0  0  0  0  0
    2.4067   -1.7138    0.0000 C   0  0  0  0  0  0  0  0  0  0  0  0
    3.5823   -0.0958    0.0000 C   0  0  0  0  0  0  0  0  0  0  0  0
    2.0000   -0.8003    0.0000 C   0  0  0  0  0  0  0  0  0  0  0  0
    6.3852   -2.5000    0.0000 C   0  0  3  0  0  0  0  0  0  0  0  0
    2.5878    0.0088    0.0000 C   0  0  0  0  0  0  0  0  0  0  0  0
    5.4716   -2.0933    0.0000 C   0  0  0  0  0  0  0  0  0  0  0  0
    9.8493    2.5000    0.0000 C   0  0  0  0  0  0  0  0  0  0  0  0
    6.2807   -3.4945    0.0000 C   0  0  0  0  0  0  0  0  0  0  0  0
    8.9833    2.0000    0.0000 C   0  0  0  0  0  0  0  0  0  0  0  0
   10.7153    2.0000    0.0000 C   0  0  0  0  0  0  0  0  0  0  0  0
    8.9833    1.0000    0.0000 C   0  0  0  0  0  0  0  0  0  0  0  0
   10.7153    1.0000    0.0000 C   0  0  0  0  0  0  0  0  0  0  0  0
    5.3025   -3.7024    0.0000 C   0  0  0  0  0  0  0  0  0  0  0  0
    9.8493   -0.5000    0.0000 C   0  0  0  0  0  0  0  0  0  0  0  0
    9.8493    3.5000    0.0000 C   0  0  0  0  0  0  0  0  0  0  0  0
    7.2512   -2.0000    0.0000 C   0  0  0  0  0  0  0  0  0  0  0  0
    8.9833   -1.0000    0.0000 C   0  0  0  0  0  0  0  0  0  0  0  0
    8.9833   -2.0000    0.0000 C   0  0  0  0  0  0  0  0  0  0  0  0
   10.7153    4.0000    0.0000 C   0  0  0  0  0  0  0  0  0  0  0  0
    8.1172   -3.5000    0.0000 C   0  0  0  0  0  0  0  0  0  0  0  0
   11.5813    3.5000    0.0000 C   0  0  0  0  0  0  0  0  0  0  0  0
   10.7153    5.0000    0.0000 C   0  0  0  0  0  0  0  0  0  0  0  0
    8.9833   -4.0000    0.0000 C   0  0  0  0  0  0  0  0  0  0  0  0
    7.2512   -4.0000    0.0000 C   0  0  0  0  0  0  0  0  0  0  0  0
   12.4474    4.0000    0.0000 C   0  0  0  0  0  0  0  0  0  0  0  0
   11.5813    5.5000    0.0000 C   0  0  0  0  0  0  0  0  0  0  0  0
   12.4474    5.0000    0.0000 C   0  0  0  0  0  0  0  0  0  0  0  0
    8.9833   -5.0000    0.0000 C   0  0  0  0  0  0  0  0  0  0  0  0
    7.2512   -5.0000    0.0000 C   0  0  0  0  0  0  0  0  0  0  0  0
    8.1172   -5.5000    0.0000 C   0  0  0  0  0  0  0  0  0  0  0  0
    4.0179   -1.8831    0.0000 H   0  0  0  0  0  0  0  0  0  0  0  0
    3.2064   -2.8819    0.0000 H   0  0  0  0  0  0  0  0  0  0  0  0
    3.8512   -3.3504    0.0000 H   0  0  0  0  0  0  0  0  0  0  0  0
    4.4197   -1.4553    0.0000 H   0  0  0  0  0  0  0  0  0  0  0  0
    4.5030   -0.6626    0.0000 H   0  0  0  0  0  0  0  0  0  0  0  0
    1.8052   -1.8638    0.0000 H   0  0  0  0  0  0  0  0  0  0  0  0
    2.4500   -2.3323    0.0000 H   0  0  0  0  0  0  0  0  0  0  0  0
    4.1839    0.0542    0.0000 H   0  0  0  0  0  0  0  0  0  0  0  0
    3.5391    0.5227    0.0000 H   0  0  0  0  0  0  0  0  0  0  0  0
    1.5693   -0.3543    0.0000 H   0  0  0  0  0  0  0  0  0  0  0  0
    1.4860   -1.1470    0.0000 H   0  0  0  0  0  0  0  0  0  0  0  0
    6.9052   -2.8377    0.0000 H   0  0  0  0  0  0  0  0  0  0  0  0
    2.7587    0.6047    0.0000 H   0  0  0  0  0  0  0  0  0  0  0  0
    2.0305    0.2805    0.0000 H   0  0  0  0  0  0  0  0  0  0  0  0
    5.7816   -1.5563    0.0000 H   0  0  0  0  0  0  0  0  0  0  0  0
    4.9701   -1.7288    0.0000 H   0  0  0  0  0  0  0  0  0  0  0  0
    9.3124    2.8100    0.0000 H   0  0  0  0  0  0  0  0  0  0  0  0
    6.3455   -4.1111    0.0000 H   0  0  0  0  0  0  0  0  0  0  0  0
    6.9007   -3.4945    0.0000 H   0  0  0  0  0  0  0  0  0  0  0  0
    8.7712    2.5826    0.0000 H   0  0  0  0  0  0  0  0  0  0  0  0
    8.3727    1.8923    0.0000 H   0  0  0  0  0  0  0  0  0  0  0  0
   11.3259    1.8923    0.0000 H   0  0  0  0  0  0  0  0  0  0  0  0
   10.9274    2.5826    0.0000 H   0  0  0  0  0  0  0  0  0  0  0  0
    8.3727    1.1077    0.0000 H   0  0  0  0  0  0  0  0  0  0  0  0
    8.7712    0.4174    0.0000 H   0  0  0  0  0  0  0  0  0  0  0  0
   10.9274    0.4174    0.0000 H   0  0  0  0  0  0  0  0  0  0  0  0
   11.3259    1.1077    0.0000 H   0  0  0  0  0  0  0  0  0  0  0  0
   10.0613   -1.0826    0.0000 H   0  0  0  0  0  0  0  0  0  0  0  0
   10.4599   -0.3923    0.0000 H   0  0  0  0  0  0  0  0  0  0  0  0
    9.6372    4.0826    0.0000 H   0  0  0  0  0  0  0  0  0  0  0  0
    9.2387    3.3923    0.0000 H   0  0  0  0  0  0  0  0  0  0  0  0
    8.7712   -0.4174    0.0000 H   0  0  0  0  0  0  0  0  0  0  0  0
    8.3727   -1.1077    0.0000 H   0  0  0  0  0  0  0  0  0  0  0  0
    9.1953   -2.5826    0.0000 H   0  0  0  0  0  0  0  0  0  0  0  0
    9.5938   -1.8923    0.0000 H   0  0  0  0  0  0  0  0  0  0  0  0
   11.5813    2.8800    0.0000 H   0  0  0  0  0  0  0  0  0  0  0  0
   10.1784    5.3100    0.0000 H   0  0  0  0  0  0  0  0  0  0  0  0
    9.5202   -3.6900    0.0000 H   0  0  0  0  0  0  0  0  0  0  0  0
    6.7143   -3.6900    0.0000 H   0  0  0  0  0  0  0  0  0  0  0  0
   12.9843    3.6900    0.0000 H   0  0  0  0  0  0  0  0  0  0  0  0
   11.5813    6.1200    0.0000 H   0  0  0  0  0  0  0  0  0  0  0  0
   12.9843    5.3100    0.0000 H   0  0  0  0  0  0  0  0  0  0  0  0
    9.5202   -5.3100    0.0000 H   0  0  0  0  0  0  0  0  0  0  0  0
    6.7143   -5.3100    0.0000 H   0  0  0  0  0  0  0  0  0  0  0  0
    8.1172   -6.1200    0.0000 H   0  0  0  0  0  0  0  0  0  0  0  0
  1 21  2  0  0  0  0
  2 24  2  0  0  0  0
  3  7  1  0  0  0  0
  3 14  1  0  0  0  0
  3 21  1  0  0  0  0
  4 19  1  0  0  0  0
  4 20  1  0  0  0  0
  4 22  1  0  0  0  0
  5 24  1  0  0  0  0
  5 26  1  0  0  0  0
  5 28  1  0  0  0  0
  6  7  1  0  0  0  0
  6  8  1  0  0  0  0
  6  9  1  0  0  0  0
  6 39  1  0  0  0  0
  7 40  1  0  0  0  0
  7 41  1  0  0  0  0
  8 10  1  0  0  0  0
  8 42  1  0  0  0  0
  8 43  1  0  0  0  0
  9 11  1  0  0  0  0
  9 44  1  0  0  0  0
  9 45  1  0  0  0  0
 10 13  1  0  0  0  0
 10 46  1  0  0  0  0
 10 47  1  0  0  0  0
 11 13  1  0  0  0  0
 11 48  1  0  0  0  0
 11 49  1  0  0  0  0
 12 14  1  0  0  0  0
 12 16  1  0  0  0  0
 12 24  1  0  0  0  0
 12 50  1  0  0  0  0
 13 51  1  0  0  0  0
 13 52  1  0  0  0  0
 14 53  1  0  0  0  0
 14 54  1  0  0  0  0
 15 17  1  0  0  0  0
 15 18  1  0  0  0  0
 15 23  1  0  0  0  0
 15 55  1  0  0  0  0
 16 21  1  0  0  0  0
 16 56  1  0  0  0  0
 16 57  1  0  0  0  0
 17 19  1  0  0  0  0
 17 58  1  0  0  0  0
 17 59  1  0  0  0  0
 18 20  1  0  0  0  0
 18 60  1  0  0  0  0
 18 61  1  0  0  0  0
 19 62  1  0  0  0  0
 19 63  1  0  0  0  0
 20 64  1  0  0  0  0
 20 65  1  0  0  0  0
 22 25  1  0  0  0  0
 22 66  1  0  0  0  0
 22 67  1  0  0  0  0
 23 27  1  0  0  0  0
 23 68  1  0  0  0  0
 23 69  1  0  0  0  0
 25 26  1  0  0  0  0
 25 70  1  0  0  0  0
 25 71  1  0  0  0  0
 26 72  1  0  0  0  0
 26 73  1  0  0  0  0
 27 29  2  0  0  0  0
 27 30  1  0  0  0  0
 28 31  2  0  0  0  0
 28 32  1  0  0  0  0
 29 33  1  0  0  0  0
 29 74  1  0  0  0  0
 30 34  2  0  0  0  0
 30 75  1  0  0  0  0
 31 36  1  0  0  0  0
 31 76  1  0  0  0  0
 32 37  2  0  0  0  0
 32 77  1  0  0  0  0
 33 35  2  0  0  0  0
 33 78  1  0  0  0  0
 34 35  1  0  0  0  0
 34 79  1  0  0  0  0
 35 80  1  0  0  0  0
 36 38  2  0  0  0  0
 36 81  1  0  0  0  0
 37 38  1  0  0  0  0
 37 82  1  0  0  0  0
 38 83  1  0  0  0  0
M  END
> <PUBCHEM_COMPOUND_CID>
514999
> <PUBCHEM_COMPOUND_CANONICALIZED>
1
> <PUBCHEM_CACTVS_COMPLEXITY>
731
> <PUBCHEM_CACTVS_HBOND_ACCEPTOR>
3
> <PUBCHEM_CACTVS_HBOND_DONOR>
0
> <PUBCHEM_CACTVS_ROTATABLE_BOND>
10
> <PUBCHEM_CACTVS_SUBSKEYS>
AAADcfB/MAAAAAAAAAAAAAAAAAAAAWAAAAA8YMEAAAAAAAABQAAAHgAAAAAADQjBmAQwwIMAAACIAiVSUACCAAAhAgAIiAEIZIgIIDrA0ZGEIAhghgDIyAcVgMAOAAAAAAAAAAAAAAAAAAAAAAAAAAAAAA==
> <PUBCHEM_IUPAC_OPENEYE_NAME>
N-[3-(4-benzyl-1-piperidyl)propyl]-1-(cyclohexylmethyl)-5-oxo-N-phenyl-pyrrolidine-3-carboxamide
> <PUBCHEM_IUPAC_CAS_NAME>
1-(cyclohexylmethyl)-5-oxo-N-phenyl-N-[3-[4-(phenylmethyl)-1-piperidinyl]propyl]-3-pyrrolidinecarboxamide
> <PUBCHEM_IUPAC_NAME_MARKUP>
<I>N</I>-[3-(4-benzylpiperidin-1-yl)propyl]-1-(cyclohexylmethyl)-5-oxo-<I>N</I>-phenylpyrrolidine-3-carboxamide
> <PUBCHEM_IUPAC_NAME>
N-[3-(4-benzylpiperidin-1-yl)propyl]-1-(cyclohexylmethyl)-5-oxo-N-phenylpyrrolidine-3-carboxamide
> <PUBCHEM_IUPAC_SYSTEMATIC_NAME>
1-(cyclohexylmethyl)-5-oxidanylidene-N-phenyl-N-[3-[4-(phenylmethyl)piperidin-1-yl]propyl]pyrrolidine-3-carboxamide
> <PUBCHEM_IUPAC_TRADITIONAL_NAME>
N-[3-(4-benzylpiperidino)propyl]-1-(cyclohexylmethyl)-5-keto-N-phenyl-pyrrolidine-3-carboxamide
> <PUBCHEM_IUPAC_INCHI>
InChI=1S/C33H45N3O2/c37-32-24-30(26-35(32)25-29-13-6-2-7-14-29)33(38)36(31-15-8-3-9-16-31)20-10-19-34-21-17-28(18-22-34)23-27-11-4-1-5-12-27/h1,3-5,8-9,11-12,15-16,28-30H,2,6-7,10,13-14,17-26H2
> <PUBCHEM_IUPAC_INCHIKEY>
AQQVWINXIGIGEN-UHFFFAOYSA-N
> <PUBCHEM_XLOGP3_AA>
5.9
> <PUBCHEM_EXACT_MASS>
515.35117769
> <PUBCHEM_MOLECULAR_FORMULA>
C33H45N3O2
> <PUBCHEM_MOLECULAR_WEIGHT>
515.7
> <PUBCHEM_OPENEYE_CAN_SMILES>
C1CCC(CC1)CN2CC(CC2=O)C(=O)N(CCCN3CCC(CC3)CC4=CC=CC=C4)C5=CC=CC=C5
> <PUBCHEM_OPENEYE_ISO_SMILES>
C1CCC(CC1)CN2CC(CC2=O)C(=O)N(CCCN3CCC(CC3)CC4=CC=CC=C4)C5=CC=CC=C5
> <PUBCHEM_CACTVS_TPSA>
43.9
> <PUBCHEM_MONOISOTOPIC_WEIGHT>
515.35117769
> <PUBCHEM_TOTAL_CHARGE>
0
> <PUBCHEM_HEAVY_ATOM_COUNT>
38
> <PUBCHEM_ATOM_DEF_STEREO_COUNT>
0
> <PUBCHEM_ATOM_UDEF_STEREO_COUNT>
1
> <PUBCHEM_BOND_DEF_STEREO_COUNT>
0
> <PUBCHEM_BOND_UDEF_STEREO_COUNT>
0
> <PUBCHEM_ISOTOPIC_ATOM_COUNT>
0
> <PUBCHEM_COMPONENT_COUNT>
1
> <PUBCHEM_CACTVS_TAUTO_COUNT>
-1
> <PUBCHEM_COORDINATE_TYPE>
1
5
255
> <PUBCHEM_BONDANNOTATIONS>
12  24  3
27  29  8
27  30  8
28  31  8
28  32  8
29  33  8
30  34  8
31  36  8
32  37  8
33  35  8
34  35  8
36  38  8
37  38  8
$$$$
