514995
  -OEChem-10302200282D
 70 73  0     1  0  0  0  0  0999 V2000
    6.3092   -3.6920    0.0000 O   0  0  0  0  0  0  0  0  0  0  0  0
    3.0878   -5.8080    0.0000 O   0  0  0  0  0  0  0  0  0  0  0  0
    7.1753    0.8080    0.0000 N   0  0  0  0  0  0  0  0  0  0  0  0
    5.4432   -2.1920    0.0000 N   0  0  0  0  0  0  0  0  0  0  0  0
    2.9945   -4.0284    0.0000 N   0  0  0  0  0  0  0  0  0  0  0  0
    7.1753    2.8080    0.0000 C   0  0  0  0  0  0  0  0  0  0  0  0
    6.3092    2.3080    0.0000 C   0  0  0  0  0  0  0  0  0  0  0  0
    8.0413    2.3080    0.0000 C   0  0  0  0  0  0  0  0  0  0  0  0
    6.3092    1.3080    0.0000 C   0  0  0  0  0  0  0  0  0  0  0  0
    8.0413    1.3080    0.0000 C   0  0  0  0  0  0  0  0  0  0  0  0
    7.1753    3.8080    0.0000 C   0  0  0  0  0  0  0  0  0  0  0  0
    7.1753   -0.1920    0.0000 C   0  0  0  0  0  0  0  0  0  0  0  0
    6.3092   -0.6920    0.0000 C   0  0  0  0  0  0  0  0  0  0  0  0
    4.5772   -3.6920    0.0000 C   0  0  3  0  0  0  0  0  0  0  0  0
    6.3092   -1.6920    0.0000 C   0  0  0  0  0  0  0  0  0  0  0  0
    8.0413    4.3080    0.0000 C   0  0  0  0  0  0  0  0  0  0  0  0
    3.6636   -3.2853    0.0000 C   0  0  0  0  0  0  0  0  0  0  0  0
    4.4727   -4.6865    0.0000 C   0  0  0  0  0  0  0  0  0  0  0  0
    5.4432   -3.1920    0.0000 C   0  0  0  0  0  0  0  0  0  0  0  0
    3.4945   -4.8944    0.0000 C   0  0  0  0  0  0  0  0  0  0  0  0
    4.5772   -1.6920    0.0000 C   0  0  0  0  0  0  0  0  0  0  0  0
    8.9073    3.8080    0.0000 C   0  0  0  0  0  0  0  0  0  0  0  0
    8.0413    5.3080    0.0000 C   0  0  0  0  0  0  0  0  0  0  0  0
    2.0000   -3.9239    0.0000 C   0  0  0  0  0  0  0  0  0  0  0  0
    4.5772   -0.6920    0.0000 C   0  0  0  0  0  0  0  0  0  0  0  0
    9.7734    4.3080    0.0000 C   0  0  0  0  0  0  0  0  0  0  0  0
    8.9073    5.8080    0.0000 C   0  0  0  0  0  0  0  0  0  0  0  0
    9.7734    5.3080    0.0000 C   0  0  0  0  0  0  0  0  0  0  0  0
    5.4432   -0.1920    0.0000 C   0  0  0  0  0  0  0  0  0  0  0  0
    3.7112   -0.1920    0.0000 C   0  0  0  0  0  0  0  0  0  0  0  0
    5.4432    0.8080    0.0000 C   0  0  0  0  0  0  0  0  0  0  0  0
    3.7112    0.8080    0.0000 C   0  0  0  0  0  0  0  0  0  0  0  0
    4.5772    1.3080    0.0000 C   0  0  0  0  0  0  0  0  0  0  0  0
    7.7122    3.1180    0.0000 H   0  0  0  0  0  0  0  0  0  0  0  0
    6.0972    2.8906    0.0000 H   0  0  0  0  0  0  0  0  0  0  0  0
    5.6987    2.2003    0.0000 H   0  0  0  0  0  0  0  0  0  0  0  0
    8.6519    2.2003    0.0000 H   0  0  0  0  0  0  0  0  0  0  0  0
    8.2534    2.8906    0.0000 H   0  0  0  0  0  0  0  0  0  0  0  0
    5.6987    1.4156    0.0000 H   0  0  0  0  0  0  0  0  0  0  0  0
    6.0972    0.7254    0.0000 H   0  0  0  0  0  0  0  0  0  0  0  0
    8.2534    0.7254    0.0000 H   0  0  0  0  0  0  0  0  0  0  0  0
    8.6519    1.4156    0.0000 H   0  0  0  0  0  0  0  0  0  0  0  0
    6.9632    4.3906    0.0000 H   0  0  0  0  0  0  0  0  0  0  0  0
    6.5647    3.7003    0.0000 H   0  0  0  0  0  0  0  0  0  0  0  0
    7.3873   -0.7746    0.0000 H   0  0  0  0  0  0  0  0  0  0  0  0
    7.7859   -0.0843    0.0000 H   0  0  0  0  0  0  0  0  0  0  0  0
    6.0972   -0.1094    0.0000 H   0  0  0  0  0  0  0  0  0  0  0  0
    5.6987   -0.7997    0.0000 H   0  0  0  0  0  0  0  0  0  0  0  0
    4.5447   -3.0729    0.0000 H   0  0  0  0  0  0  0  0  0  0  0  0
    6.5213   -2.2746    0.0000 H   0  0  0  0  0  0  0  0  0  0  0  0
    6.9198   -1.5844    0.0000 H   0  0  0  0  0  0  0  0  0  0  0  0
    3.9736   -2.7483    0.0000 H   0  0  0  0  0  0  0  0  0  0  0  0
    3.1621   -2.9208    0.0000 H   0  0  0  0  0  0  0  0  0  0  0  0
    4.5375   -5.3031    0.0000 H   0  0  0  0  0  0  0  0  0  0  0  0
    5.0927   -4.6865    0.0000 H   0  0  0  0  0  0  0  0  0  0  0  0
    3.9666   -1.5844    0.0000 H   0  0  0  0  0  0  0  0  0  0  0  0
    4.3652   -2.2746    0.0000 H   0  0  0  0  0  0  0  0  0  0  0  0
    8.9073    3.1880    0.0000 H   0  0  0  0  0  0  0  0  0  0  0  0
    7.5044    5.6180    0.0000 H   0  0  0  0  0  0  0  0  0  0  0  0
    2.0648   -3.3073    0.0000 H   0  0  0  0  0  0  0  0  0  0  0  0
    1.3834   -3.8591    0.0000 H   0  0  0  0  0  0  0  0  0  0  0  0
    1.9352   -4.5405    0.0000 H   0  0  0  0  0  0  0  0  0  0  0  0
   10.3103    3.9980    0.0000 H   0  0  0  0  0  0  0  0  0  0  0  0
    8.9073    6.4280    0.0000 H   0  0  0  0  0  0  0  0  0  0  0  0
   10.3103    5.6180    0.0000 H   0  0  0  0  0  0  0  0  0  0  0  0
    5.9802   -0.5020    0.0000 H   0  0  0  0  0  0  0  0  0  0  0  0
    3.1742   -0.5020    0.0000 H   0  0  0  0  0  0  0  0  0  0  0  0
    5.9802    1.1180    0.0000 H   0  0  0  0  0  0  0  0  0  0  0  0
    3.1742    1.1180    0.0000 H   0  0  0  0  0  0  0  0  0  0  0  0
    4.5772    1.9280    0.0000 H   0  0  0  0  0  0  0  0  0  0  0  0
  1 19  2  0  0  0  0
  2 20  2  0  0  0  0
  3  9  1  0  0  0  0
  3 10  1  0  0  0  0
  3 12  1  0  0  0  0
  4 15  1  0  0  0  0
  4 19  1  0  0  0  0
  4 21  1  0  0  0  0
  5 17  1  0  0  0  0
  5 20  1  0  0  0  0
  5 24  1  0  0  0  0
  6  7  1  0  0  0  0
  6  8  1  0  0  0  0
  6 11  1  0  0  0  0
  6 34  1  0  0  0  0
  7  9  1  0  0  0  0
  7 35  1  0  0  0  0
  7 36  1  0  0  0  0
  8 10  1  0  0  0  0
  8 37  1  0  0  0  0
  8 38  1  0  0  0  0
  9 39  1  0  0  0  0
  9 40  1  0  0  0  0
 10 41  1  0  0  0  0
 10 42  1  0  0  0  0
 11 16  1  0  0  0  0
 11 43  1  0  0  0  0
 11 44  1  0  0  0  0
 12 13  1  0  0  0  0
 12 45  1  0  0  0  0
 12 46  1  0  0  0  0
 13 15  1  0  0  0  0
 13 47  1  0  0  0  0
 13 48  1  0  0  0  0
 14 17  1  0  0  0  0
 14 18  1  0  0  0  0
 14 19  1  0  0  0  0
 14 49  1  0  0  0  0
 15 50  1  0  0  0  0
 15 51  1  0  0  0  0
 16 22  2  0  0  0  0
 16 23  1  0  0  0  0
 17 52  1  0  0  0  0
 17 53  1  0  0  0  0
 18 20  1  0  0  0  0
 18 54  1  0  0  0  0
 18 55  1  0  0  0  0
 21 25  1  0  0  0  0
 21 56  1  0  0  0  0
 21 57  1  0  0  0  0
 22 26  1  0  0  0  0
 22 58  1  0  0  0  0
 23 27  2  0  0  0  0
 23 59  1  0  0  0  0
 24 60  1  0  0  0  0
 24 61  1  0  0  0  0
 24 62  1  0  0  0  0
 25 29  2  0  0  0  0
 25 30  1  0  0  0  0
 26 28  2  0  0  0  0
 26 63  1  0  0  0  0
 27 28  1  0  0  0  0
 27 64  1  0  0  0  0
 28 65  1  0  0  0  0
 29 31  1  0  0  0  0
 29 66  1  0  0  0  0
 30 32  2  0  0  0  0
 30 67  1  0  0  0  0
 31 33  2  0  0  0  0
 31 68  1  0  0  0  0
 32 33  1  0  0  0  0
 32 69  1  0  0  0  0
 33 70  1  0  0  0  0
M  END
> <PUBCHEM_COMPOUND_CID>
514995
> <PUBCHEM_COMPOUND_CANONICALIZED>
1
> <PUBCHEM_CACTVS_COMPLEXITY>
619
> <PUBCHEM_CACTVS_HBOND_ACCEPTOR>
3
> <PUBCHEM_CACTVS_HBOND_DONOR>
0
> <PUBCHEM_CACTVS_ROTATABLE_BOND>
9
> <PUBCHEM_CACTVS_SUBSKEYS>
AAADcfB7MAAAAAAAAAAAAAAAAAAAAWAAAAA8YIAAAAAAAAABQAAAHgAAAAAADQDBmAQyAIMAAACIAiFSEACCAAAgAAAIiAEIBIgIIDqA0RGEIAhghgCIiAcVgMAOAAAAAAAAAAAAAAAAAAAAAAAAAAAAAA==
> <PUBCHEM_IUPAC_OPENEYE_NAME>
N-benzyl-N-[3-(4-benzyl-1-piperidyl)propyl]-1-methyl-5-oxo-pyrrolidine-3-carboxamide
> <PUBCHEM_IUPAC_CAS_NAME>
1-methyl-5-oxo-N-(phenylmethyl)-N-[3-[4-(phenylmethyl)-1-piperidinyl]propyl]-3-pyrrolidinecarboxamide
> <PUBCHEM_IUPAC_NAME_MARKUP>
<I>N</I>-benzyl-<I>N</I>-[3-(4-benzylpiperidin-1-yl)propyl]-1-methyl-5-oxopyrrolidine-3-carboxamide
> <PUBCHEM_IUPAC_NAME>
N-benzyl-N-[3-(4-benzylpiperidin-1-yl)propyl]-1-methyl-5-oxopyrrolidine-3-carboxamide
> <PUBCHEM_IUPAC_SYSTEMATIC_NAME>
1-methyl-5-oxidanylidene-N-(phenylmethyl)-N-[3-[4-(phenylmethyl)piperidin-1-yl]propyl]pyrrolidine-3-carboxamide
> <PUBCHEM_IUPAC_TRADITIONAL_NAME>
N-benzyl-N-[3-(4-benzylpiperidino)propyl]-5-keto-1-methyl-pyrrolidine-3-carboxamide
> <PUBCHEM_IUPAC_INCHI>
InChI=1S/C28H37N3O2/c1-29-22-26(20-27(29)32)28(33)31(21-25-11-6-3-7-12-25)16-8-15-30-17-13-24(14-18-30)19-23-9-4-2-5-10-23/h2-7,9-12,24,26H,8,13-22H2,1H3
> <PUBCHEM_IUPAC_INCHIKEY>
JKVVSLYBSBZBTA-UHFFFAOYSA-N
> <PUBCHEM_XLOGP3_AA>
3.5
> <PUBCHEM_EXACT_MASS>
447.28857743
> <PUBCHEM_MOLECULAR_FORMULA>
C28H37N3O2
> <PUBCHEM_MOLECULAR_WEIGHT>
447.6
> <PUBCHEM_OPENEYE_CAN_SMILES>
CN1CC(CC1=O)C(=O)N(CCCN2CCC(CC2)CC3=CC=CC=C3)CC4=CC=CC=C4
> <PUBCHEM_OPENEYE_ISO_SMILES>
CN1CC(CC1=O)C(=O)N(CCCN2CCC(CC2)CC3=CC=CC=C3)CC4=CC=CC=C4
> <PUBCHEM_CACTVS_TPSA>
43.9
> <PUBCHEM_MONOISOTOPIC_WEIGHT>
447.28857743
> <PUBCHEM_TOTAL_CHARGE>
0
> <PUBCHEM_HEAVY_ATOM_COUNT>
33
> <PUBCHEM_ATOM_DEF_STEREO_COUNT>
0
> <PUBCHEM_ATOM_UDEF_STEREO_COUNT>
1
> <PUBCHEM_BOND_DEF_STEREO_COUNT>
0
> <PUBCHEM_BOND_UDEF_STEREO_COUNT>
0
> <PUBCHEM_ISOTOPIC_ATOM_COUNT>
0
> <PUBCHEM_COMPONENT_COUNT>
1
> <PUBCHEM_CACTVS_TAUTO_COUNT>
-1
> <PUBCHEM_COORDINATE_TYPE>
1
5
255
> <PUBCHEM_BONDANNOTATIONS>
14  19  3
16  22  8
16  23  8
22  26  8
23  27  8
25  29  8
25  30  8
26  28  8
27  28  8
29  31  8
30  32  8
31  33  8
32  33  8
$$$$
