514982
  -OEChem-10302200282D
 79 82  0     1  0  0  0  0  0999 V2000
   12.3923    0.5761    0.0000 O   0  0  0  0  0  0  0  0  0  0  0  0
   10.4385    4.4239    0.0000 O   0  0  0  0  0  0  0  0  0  0  0  0
    7.1962    0.5761    0.0000 N   0  0  0  0  0  0  0  0  0  0  0  0
   10.6603    0.5761    0.0000 N   0  0  0  0  0  0  0  0  0  0  0  0
   12.0263    3.6149    0.0000 N   0  0  0  0  0  0  0  0  0  0  0  0
    5.4641   -0.4239    0.0000 C   0  0  0  0  0  0  0  0  0  0  0  0
    5.4641    0.5761    0.0000 C   0  0  0  0  0  0  0  0  0  0  0  0
    6.3301   -0.9239    0.0000 C   0  0  0  0  0  0  0  0  0  0  0  0
    6.3301    1.0761    0.0000 C   0  0  0  0  0  0  0  0  0  0  0  0
    7.1962   -0.4239    0.0000 C   0  0  0  0  0  0  0  0  0  0  0  0
    4.5981   -0.9239    0.0000 C   0  0  0  0  0  0  0  0  0  0  0  0
    8.0622    1.0761    0.0000 C   0  0  0  0  0  0  0  0  0  0  0  0
    8.9282    0.5761    0.0000 C   0  0  0  0  0  0  0  0  0  0  0  0
    9.7942    1.0761    0.0000 C   0  0  0  0  0  0  0  0  0  0  0  0
   11.5263    2.0761    0.0000 C   0  0  3  0  0  0  0  0  0  0  0  0
    3.7320   -0.4239    0.0000 C   0  0  0  0  0  0  0  0  0  0  0  0
   12.3353    2.6639    0.0000 C   0  0  0  0  0  0  0  0  0  0  0  0
   10.7173    2.6639    0.0000 C   0  0  0  0  0  0  0  0  0  0  0  0
   11.5263    1.0761    0.0000 C   0  0  0  0  0  0  0  0  0  0  0  0
   11.0263    3.6149    0.0000 C   0  0  0  0  0  0  0  0  0  0  0  0
   10.6603   -0.4239    0.0000 C   0  0  0  0  0  0  0  0  0  0  0  0
    2.8660   -0.9239    0.0000 C   0  0  0  0  0  0  0  0  0  0  0  0
    3.7320    0.5761    0.0000 C   0  0  0  0  0  0  0  0  0  0  0  0
   10.6603   -3.4239    0.0000 C   0  0  0  0  0  0  0  0  0  0  0  0
   10.6603   -2.4239    0.0000 C   0  0  0  0  0  0  0  0  0  0  0  0
   12.6141    4.4239    0.0000 C   0  0  0  0  0  0  0  0  0  0  0  0
    9.7942   -0.9239    0.0000 C   0  0  0  0  0  0  0  0  0  0  0  0
   11.5263   -0.9239    0.0000 C   0  0  0  0  0  0  0  0  0  0  0  0
    9.7942   -1.9239    0.0000 C   0  0  0  0  0  0  0  0  0  0  0  0
   11.5263   -1.9239    0.0000 C   0  0  0  0  0  0  0  0  0  0  0  0
    2.0000   -0.4239    0.0000 C   0  0  0  0  0  0  0  0  0  0  0  0
    2.8660    1.0761    0.0000 C   0  0  0  0  0  0  0  0  0  0  0  0
   10.6603   -4.4239    0.0000 C   0  0  0  0  0  0  0  0  0  0  0  0
    9.6602   -3.4239    0.0000 C   0  0  0  0  0  0  0  0  0  0  0  0
   11.6603   -3.4239    0.0000 C   0  0  0  0  0  0  0  0  0  0  0  0
    2.0000    0.5761    0.0000 C   0  0  0  0  0  0  0  0  0  0  0  0
    5.4641   -1.0439    0.0000 H   0  0  0  0  0  0  0  0  0  0  0  0
    5.2520    1.1587    0.0000 H   0  0  0  0  0  0  0  0  0  0  0  0
    4.8535    0.4684    0.0000 H   0  0  0  0  0  0  0  0  0  0  0  0
    5.9316   -1.3989    0.0000 H   0  0  0  0  0  0  0  0  0  0  0  0
    6.7287   -1.3989    0.0000 H   0  0  0  0  0  0  0  0  0  0  0  0
    6.7287    1.5510    0.0000 H   0  0  0  0  0  0  0  0  0  0  0  0
    5.9316    1.5510    0.0000 H   0  0  0  0  0  0  0  0  0  0  0  0
    7.4082   -1.0065    0.0000 H   0  0  0  0  0  0  0  0  0  0  0  0
    7.8067   -0.3163    0.0000 H   0  0  0  0  0  0  0  0  0  0  0  0
    4.1996   -1.3989    0.0000 H   0  0  0  0  0  0  0  0  0  0  0  0
    4.9966   -1.3989    0.0000 H   0  0  0  0  0  0  0  0  0  0  0  0
    8.4607    1.5510    0.0000 H   0  0  0  0  0  0  0  0  0  0  0  0
    7.6636    1.5510    0.0000 H   0  0  0  0  0  0  0  0  0  0  0  0
    8.5297    0.1011    0.0000 H   0  0  0  0  0  0  0  0  0  0  0  0
    9.3267    0.1011    0.0000 H   0  0  0  0  0  0  0  0  0  0  0  0
   10.1928    1.5510    0.0000 H   0  0  0  0  0  0  0  0  0  0  0  0
    9.3957    1.5510    0.0000 H   0  0  0  0  0  0  0  0  0  0  0  0
   12.0787    1.7946    0.0000 H   0  0  0  0  0  0  0  0  0  0  0  0
   12.6453    2.1269    0.0000 H   0  0  0  0  0  0  0  0  0  0  0  0
   12.9017    2.9160    0.0000 H   0  0  0  0  0  0  0  0  0  0  0  0
   10.1509    2.9160    0.0000 H   0  0  0  0  0  0  0  0  0  0  0  0
   10.4073    2.1269    0.0000 H   0  0  0  0  0  0  0  0  0  0  0  0
    2.8660   -1.5439    0.0000 H   0  0  0  0  0  0  0  0  0  0  0  0
    4.2690    0.8861    0.0000 H   0  0  0  0  0  0  0  0  0  0  0  0
   13.1157    4.0595    0.0000 H   0  0  0  0  0  0  0  0  0  0  0  0
   12.9785    4.9255    0.0000 H   0  0  0  0  0  0  0  0  0  0  0  0
   12.1125    4.7884    0.0000 H   0  0  0  0  0  0  0  0  0  0  0  0
    9.2573   -0.6139    0.0000 H   0  0  0  0  0  0  0  0  0  0  0  0
   12.0632   -0.6139    0.0000 H   0  0  0  0  0  0  0  0  0  0  0  0
    9.2573   -2.2339    0.0000 H   0  0  0  0  0  0  0  0  0  0  0  0
   12.0632   -2.2339    0.0000 H   0  0  0  0  0  0  0  0  0  0  0  0
    1.4631   -0.7339    0.0000 H   0  0  0  0  0  0  0  0  0  0  0  0
    2.8660    1.6961    0.0000 H   0  0  0  0  0  0  0  0  0  0  0  0
   10.0403   -4.4239    0.0000 H   0  0  0  0  0  0  0  0  0  0  0  0
   10.6603   -5.0439    0.0000 H   0  0  0  0  0  0  0  0  0  0  0  0
   11.2803   -4.4239    0.0000 H   0  0  0  0  0  0  0  0  0  0  0  0
    9.6602   -2.8039    0.0000 H   0  0  0  0  0  0  0  0  0  0  0  0
    9.0402   -3.4239    0.0000 H   0  0  0  0  0  0  0  0  0  0  0  0
    9.6602   -4.0439    0.0000 H   0  0  0  0  0  0  0  0  0  0  0  0
   11.6603   -4.0439    0.0000 H   0  0  0  0  0  0  0  0  0  0  0  0
   12.2803   -3.4239    0.0000 H   0  0  0  0  0  0  0  0  0  0  0  0
   11.6603   -2.8039    0.0000 H   0  0  0  0  0  0  0  0  0  0  0  0
    1.4631    0.8861    0.0000 H   0  0  0  0  0  0  0  0  0  0  0  0
  1 19  2  0  0  0  0
  2 20  2  0  0  0  0
  3  9  1  0  0  0  0
  3 10  1  0  0  0  0
  3 12  1  0  0  0  0
  4 14  1  0  0  0  0
  4 19  1  0  0  0  0
  4 21  1  0  0  0  0
  5 17  1  0  0  0  0
  5 20  1  0  0  0  0
  5 26  1  0  0  0  0
  6  7  1  0  0  0  0
  6  8  1  0  0  0  0
  6 11  1  0  0  0  0
  6 37  1  0  0  0  0
  7  9  1  0  0  0  0
  7 38  1  0  0  0  0
  7 39  1  0  0  0  0
  8 10  1  0  0  0  0
  8 40  1  0  0  0  0
  8 41  1  0  0  0  0
  9 42  1  0  0  0  0
  9 43  1  0  0  0  0
 10 44  1  0  0  0  0
 10 45  1  0  0  0  0
 11 16  1  0  0  0  0
 11 46  1  0  0  0  0
 11 47  1  0  0  0  0
 12 13  1  0  0  0  0
 12 48  1  0  0  0  0
 12 49  1  0  0  0  0
 13 14  1  0  0  0  0
 13 50  1  0  0  0  0
 13 51  1  0  0  0  0
 14 52  1  0  0  0  0
 14 53  1  0  0  0  0
 15 17  1  0  0  0  0
 15 18  1  0  0  0  0
 15 19  1  0  0  0  0
 15 54  1  0  0  0  0
 16 22  2  0  0  0  0
 16 23  1  0  0  0  0
 17 55  1  0  0  0  0
 17 56  1  0  0  0  0
 18 20  1  0  0  0  0
 18 57  1  0  0  0  0
 18 58  1  0  0  0  0
 21 27  2  0  0  0  0
 21 28  1  0  0  0  0
 22 31  1  0  0  0  0
 22 59  1  0  0  0  0
 23 32  2  0  0  0  0
 23 60  1  0  0  0  0
 24 25  1  0  0  0  0
 24 33  1  0  0  0  0
 24 34  1  0  0  0  0
 24 35  1  0  0  0  0
 25 29  2  0  0  0  0
 25 30  1  0  0  0  0
 26 61  1  0  0  0  0
 26 62  1  0  0  0  0
 26 63  1  0  0  0  0
 27 29  1  0  0  0  0
 27 64  1  0  0  0  0
 28 30  2  0  0  0  0
 28 65  1  0  0  0  0
 29 66  1  0  0  0  0
 30 67  1  0  0  0  0
 31 36  2  0  0  0  0
 31 68  1  0  0  0  0
 32 36  1  0  0  0  0
 32 69  1  0  0  0  0
 33 70  1  0  0  0  0
 33 71  1  0  0  0  0
 33 72  1  0  0  0  0
 34 73  1  0  0  0  0
 34 74  1  0  0  0  0
 34 75  1  0  0  0  0
 35 76  1  0  0  0  0
 35 77  1  0  0  0  0
 35 78  1  0  0  0  0
 36 79  1  0  0  0  0
M  END
> <PUBCHEM_COMPOUND_CID>
514982
> <PUBCHEM_COMPOUND_CANONICALIZED>
1
> <PUBCHEM_CACTVS_COMPLEXITY>
710
> <PUBCHEM_CACTVS_HBOND_ACCEPTOR>
3
> <PUBCHEM_CACTVS_HBOND_DONOR>
0
> <PUBCHEM_CACTVS_ROTATABLE_BOND>
9
> <PUBCHEM_CACTVS_SUBSKEYS>
AAADcfB7MAAAAAAAAAAAAAAAAAAAAWAAAAA8YIAAAAAAAAABQAAAHgAAAAAADwjBmAQywIMAAACIAiVSUACCAAAhAgAIiAEIZIgIIDrA0ZGEIAhghgDIyAcVgMAPiAAAAAAAAAAQAAAAAAAAAAAAAAAAAA==
> <PUBCHEM_IUPAC_OPENEYE_NAME>
N-[3-(4-benzyl-1-piperidyl)propyl]-N-(4-tert-butylphenyl)-1-methyl-5-oxo-pyrrolidine-3-carboxamide
> <PUBCHEM_IUPAC_CAS_NAME>
N-(4-tert-butylphenyl)-1-methyl-5-oxo-N-[3-[4-(phenylmethyl)-1-piperidinyl]propyl]-3-pyrrolidinecarboxamide
> <PUBCHEM_IUPAC_NAME_MARKUP>
<I>N</I>-[3-(4-benzylpiperidin-1-yl)propyl]-<I>N</I>-(4-<I>tert</I>-butylphenyl)-1-methyl-5-oxopyrrolidine-3-carboxamide
> <PUBCHEM_IUPAC_NAME>
N-[3-(4-benzylpiperidin-1-yl)propyl]-N-(4-tert-butylphenyl)-1-methyl-5-oxopyrrolidine-3-carboxamide
> <PUBCHEM_IUPAC_SYSTEMATIC_NAME>
N-(4-tert-butylphenyl)-1-methyl-5-oxidanylidene-N-[3-[4-(phenylmethyl)piperidin-1-yl]propyl]pyrrolidine-3-carboxamide
> <PUBCHEM_IUPAC_TRADITIONAL_NAME>
N-[3-(4-benzylpiperidino)propyl]-N-(4-tert-butylphenyl)-5-keto-1-methyl-pyrrolidine-3-carboxamide
> <PUBCHEM_IUPAC_INCHI>
InChI=1S/C31H43N3O2/c1-31(2,3)27-11-13-28(14-12-27)34(30(36)26-22-29(35)32(4)23-26)18-8-17-33-19-15-25(16-20-33)21-24-9-6-5-7-10-24/h5-7,9-14,25-26H,8,15-23H2,1-4H3
> <PUBCHEM_IUPAC_INCHIKEY>
ZKNKDRWUMNBAET-UHFFFAOYSA-N
> <PUBCHEM_XLOGP3_AA>
5.2
> <PUBCHEM_EXACT_MASS>
489.33552762
> <PUBCHEM_MOLECULAR_FORMULA>
C31H43N3O2
> <PUBCHEM_MOLECULAR_WEIGHT>
489.7
> <PUBCHEM_OPENEYE_CAN_SMILES>
CC(C)(C)C1=CC=C(C=C1)N(CCCN2CCC(CC2)CC3=CC=CC=C3)C(=O)C4CC(=O)N(C4)C
> <PUBCHEM_OPENEYE_ISO_SMILES>
CC(C)(C)C1=CC=C(C=C1)N(CCCN2CCC(CC2)CC3=CC=CC=C3)C(=O)C4CC(=O)N(C4)C
> <PUBCHEM_CACTVS_TPSA>
43.9
> <PUBCHEM_MONOISOTOPIC_WEIGHT>
489.33552762
> <PUBCHEM_TOTAL_CHARGE>
0
> <PUBCHEM_HEAVY_ATOM_COUNT>
36
> <PUBCHEM_ATOM_DEF_STEREO_COUNT>
0
> <PUBCHEM_ATOM_UDEF_STEREO_COUNT>
1
> <PUBCHEM_BOND_DEF_STEREO_COUNT>
0
> <PUBCHEM_BOND_UDEF_STEREO_COUNT>
0
> <PUBCHEM_ISOTOPIC_ATOM_COUNT>
0
> <PUBCHEM_COMPONENT_COUNT>
1
> <PUBCHEM_CACTVS_TAUTO_COUNT>
-1
> <PUBCHEM_COORDINATE_TYPE>
1
5
255
> <PUBCHEM_BONDANNOTATIONS>
15  19  3
16  22  8
16  23  8
21  27  8
21  28  8
22  31  8
23  32  8
25  29  8
25  30  8
27  29  8
28  30  8
31  36  8
32  36  8
$$$$
