514915
  -OEChem-10302200282D
 64 67  0     1  0  0  0  0  0999 V2000
    6.2619   -1.6005    0.0000 O   0  0  0  0  0  0  0  0  0  0  0  0
    6.7619    0.9976    0.0000 O   0  0  0  0  0  0  0  0  0  0  0  0
    5.9674    2.0930    0.0000 O   0  0  0  0  0  0  0  0  0  0  0  0
    6.7619   -2.4665    0.0000 O   0  0  0  0  0  0  0  0  0  0  0  0
    3.9639    4.3259    0.0000 O   0  0  0  0  0  0  0  0  0  0  0  0
    8.5983   -4.9152    0.0000 O   0  0  0  0  0  0  0  0  0  0  0  0
    5.2619    0.1315    0.0000 N   0  0  0  0  0  0  0  0  0  0  0  0
    8.2619   -1.6005    0.0000 N   0  0  0  0  0  0  0  0  0  0  0  0
    4.3211    2.6311    0.0000 N   0  0  0  0  0  0  0  0  0  0  0  0
    9.4643   -4.4152    0.0000 N   0  0  0  0  0  0  0  0  0  0  0  0
    4.6783    0.9363    0.0000 C   0  0  3  0  0  0  0  0  0  0  0  0
    4.6783   -0.6732    0.0000 C   0  0  0  0  0  0  0  0  0  0  0  0
    3.7320    0.6315    0.0000 C   0  0  0  0  0  0  0  0  0  0  0  0
    3.7320   -0.3685    0.0000 C   0  0  0  0  0  0  0  0  0  0  0  0
    6.7619   -0.7345    0.0000 C   0  0  1  0  0  0  0  0  0  0  0  0
    7.7619   -0.7345    0.0000 C   0  0  2  0  0  0  0  0  0  0  0  0
    6.2619    0.1315    0.0000 C   0  0  0  0  0  0  0  0  0  0  0  0
    8.2619    0.1315    0.0000 C   0  0  0  0  0  0  0  0  0  0  0  0
    4.9889    1.8868    0.0000 C   0  0  0  0  0  0  0  0  0  0  0  0
    2.8660    1.1315    0.0000 C   0  0  0  0  0  0  0  0  0  0  0  0
    2.8660   -0.8685    0.0000 C   0  0  0  0  0  0  0  0  0  0  0  0
    2.0000    0.6315    0.0000 C   0  0  0  0  0  0  0  0  0  0  0  0
    2.0000   -0.3685    0.0000 C   0  0  0  0  0  0  0  0  0  0  0  0
    9.2619    0.1315    0.0000 C   0  0  0  0  0  0  0  0  0  0  0  0
    7.7619   -2.4665    0.0000 C   0  0  0  0  0  0  0  0  0  0  0  0
    9.7619    0.9976    0.0000 C   0  0  0  0  0  0  0  0  0  0  0  0
    9.7619   -0.7345    0.0000 C   0  0  0  0  0  0  0  0  0  0  0  0
    4.6318    3.5816    0.0000 C   0  0  0  0  0  0  0  0  0  0  0  0
    8.2619   -3.3326    0.0000 C   0  0  0  0  0  0  0  0  0  0  0  0
   10.7619    0.9976    0.0000 C   0  0  0  0  0  0  0  0  0  0  0  0
   10.7619   -0.7345    0.0000 C   0  0  0  0  0  0  0  0  0  0  0  0
    7.8551   -4.2461    0.0000 C   0  0  0  0  0  0  0  0  0  0  0  0
    9.2564   -3.4371    0.0000 C   0  0  0  0  0  0  0  0  0  0  0  0
   11.2619    0.1315    0.0000 C   0  0  0  0  0  0  0  0  0  0  0  0
    6.8770   -4.4540    0.0000 C   0  0  0  0  0  0  0  0  0  0  0  0
    9.9255   -2.6940    0.0000 C   0  0  0  0  0  0  0  0  0  0  0  0
    5.2908    1.0325    0.0000 H   0  0  0  0  0  0  0  0  0  0  0  0
    4.4272   -1.2401    0.0000 H   0  0  0  0  0  0  0  0  0  0  0  0
    5.2156   -0.9824    0.0000 H   0  0  0  0  0  0  0  0  0  0  0  0
    6.1419   -0.7345    0.0000 H   0  0  0  0  0  0  0  0  0  0  0  0
    7.4519   -1.2714    0.0000 H   0  0  0  0  0  0  0  0  0  0  0  0
    8.3695    0.7421    0.0000 H   0  0  0  0  0  0  0  0  0  0  0  0
    7.6793    0.3436    0.0000 H   0  0  0  0  0  0  0  0  0  0  0  0
    2.8660    1.7515    0.0000 H   0  0  0  0  0  0  0  0  0  0  0  0
    2.8660   -1.4885    0.0000 H   0  0  0  0  0  0  0  0  0  0  0  0
    8.8819   -1.6005    0.0000 H   0  0  0  0  0  0  0  0  0  0  0  0
    1.4631    0.9415    0.0000 H   0  0  0  0  0  0  0  0  0  0  0  0
    1.4631   -0.6785    0.0000 H   0  0  0  0  0  0  0  0  0  0  0  0
    5.6419   -1.6005    0.0000 H   0  0  0  0  0  0  0  0  0  0  0  0
    3.7144    2.5032    0.0000 H   0  0  0  0  0  0  0  0  0  0  0  0
    9.4519    1.5345    0.0000 H   0  0  0  0  0  0  0  0  0  0  0  0
    9.4519   -1.2714    0.0000 H   0  0  0  0  0  0  0  0  0  0  0  0
    5.1787    3.2896    0.0000 H   0  0  0  0  0  0  0  0  0  0  0  0
    5.0143    4.0695    0.0000 H   0  0  0  0  0  0  0  0  0  0  0  0
   11.0719    1.5345    0.0000 H   0  0  0  0  0  0  0  0  0  0  0  0
   11.0719   -1.2714    0.0000 H   0  0  0  0  0  0  0  0  0  0  0  0
   11.8819    0.1315    0.0000 H   0  0  0  0  0  0  0  0  0  0  0  0
    4.1565    4.9152    0.0000 H   0  0  0  0  0  0  0  0  0  0  0  0
    6.7481   -3.8476    0.0000 H   0  0  0  0  0  0  0  0  0  0  0  0
    6.2705   -4.5829    0.0000 H   0  0  0  0  0  0  0  0  0  0  0  0
    7.0059   -5.0605    0.0000 H   0  0  0  0  0  0  0  0  0  0  0  0
   10.3863   -3.1088    0.0000 H   0  0  0  0  0  0  0  0  0  0  0  0
   10.3404   -2.2332    0.0000 H   0  0  0  0  0  0  0  0  0  0  0  0
    9.4648   -2.2791    0.0000 H   0  0  0  0  0  0  0  0  0  0  0  0
 15  1  1  6  0  0  0
  1 49  1  0  0  0  0
  2 17  2  0  0  0  0
  3 19  2  0  0  0  0
  4 25  2  0  0  0  0
  5 28  1  0  0  0  0
  5 58  1  0  0  0  0
  6 10  1  0  0  0  0
  6 32  1  0  0  0  0
  7 11  1  0  0  0  0
  7 12  1  0  0  0  0
  7 17  1  0  0  0  0
 16  8  1  6  0  0  0
  8 25  1  0  0  0  0
  8 46  1  0  0  0  0
  9 19  1  0  0  0  0
  9 28  1  0  0  0  0
  9 50  1  0  0  0  0
 10 33  2  0  0  0  0
 11 13  1  0  0  0  0
 11 19  1  0  0  0  0
 11 37  1  0  0  0  0
 12 14  1  0  0  0  0
 12 38  1  0  0  0  0
 12 39  1  0  0  0  0
 13 14  1  0  0  0  0
 13 20  2  0  0  0  0
 14 21  2  0  0  0  0
 15 16  1  0  0  0  0
 15 17  1  0  0  0  0
 15 40  1  0  0  0  0
 16 18  1  0  0  0  0
 16 41  1  0  0  0  0
 18 24  1  0  0  0  0
 18 42  1  0  0  0  0
 18 43  1  0  0  0  0
 20 22  1  0  0  0  0
 20 44  1  0  0  0  0
 21 23  1  0  0  0  0
 21 45  1  0  0  0  0
 22 23  2  0  0  0  0
 22 47  1  0  0  0  0
 23 48  1  0  0  0  0
 24 26  2  0  0  0  0
 24 27  1  0  0  0  0
 25 29  1  0  0  0  0
 26 30  1  0  0  0  0
 26 51  1  0  0  0  0
 27 31  2  0  0  0  0
 27 52  1  0  0  0  0
 28 53  1  0  0  0  0
 28 54  1  0  0  0  0
 29 32  2  0  0  0  0
 29 33  1  0  0  0  0
 30 34  2  0  0  0  0
 30 55  1  0  0  0  0
 31 34  1  0  0  0  0
 31 56  1  0  0  0  0
 32 35  1  0  0  0  0
 33 36  1  0  0  0  0
 34 57  1  0  0  0  0
 35 59  1  0  0  0  0
 35 60  1  0  0  0  0
 35 61  1  0  0  0  0
 36 62  1  0  0  0  0
 36 63  1  0  0  0  0
 36 64  1  0  0  0  0
M  END
> <PUBCHEM_COMPOUND_CID>
514915
> <PUBCHEM_COMPOUND_CANONICALIZED>
1
> <PUBCHEM_CACTVS_COMPLEXITY>
790
> <PUBCHEM_CACTVS_HBOND_ACCEPTOR>
7
> <PUBCHEM_CACTVS_HBOND_DONOR>
4
> <PUBCHEM_CACTVS_ROTATABLE_BOND>
8
> <PUBCHEM_CACTVS_SUBSKEYS>
AAADceB7uAAAAAAAAAAAAAAAAAAAAWLAAAAwYAAAAAAAAFgB0AAAHgAUCAAADDzhngYyhJPQAgCpA6VyUgKCAAAkIAAomKH8TNsKdj6I1bOUcchmthiYyUeYyaCOgAAAAAAQAAAAAAAAACAAAAAAAAAAAA==
> <PUBCHEM_IUPAC_OPENEYE_NAME>
N-[(1S,2S)-1-benzyl-2-hydroxy-3-[1-(hydroxymethylcarbamoyl)isoindolin-2-yl]-3-oxo-propyl]-3,5-dimethyl-isoxazole-4-carboxamide
> <PUBCHEM_IUPAC_CAS_NAME>
N-[(2S,3S)-3-hydroxy-4-[1-[(hydroxymethylamino)-oxomethyl]-1,3-dihydroisoindol-2-yl]-4-oxo-1-phenylbutan-2-yl]-3,5-dimethyl-4-isoxazolecarboxamide
> <PUBCHEM_IUPAC_NAME_MARKUP>
<I>N</I>-[(2<I>S</I>,3<I>S</I>)-3-hydroxy-4-[1-(hydroxymethylcarbamoyl)-1,3-dihydroisoindol-2-yl]-4-oxo-1-phenylbutan-2-yl]-3,5-dimethyl-1,2-oxazole-4-carboxamide
> <PUBCHEM_IUPAC_NAME>
N-[(2S,3S)-3-hydroxy-4-[1-(hydroxymethylcarbamoyl)-1,3-dihydroisoindol-2-yl]-4-oxo-1-phenylbutan-2-yl]-3,5-dimethyl-1,2-oxazole-4-carboxamide
> <PUBCHEM_IUPAC_SYSTEMATIC_NAME>
N-[(2S,3S)-4-[1-(hydroxymethylcarbamoyl)-1,3-dihydroisoindol-2-yl]-3-oxidanyl-4-oxidanylidene-1-phenyl-butan-2-yl]-3,5-dimethyl-1,2-oxazole-4-carboxamide
> <PUBCHEM_IUPAC_TRADITIONAL_NAME>
N-[(1S,2S)-1-benzyl-2-hydroxy-3-keto-3-[1-(methylolcarbamoyl)isoindolin-2-yl]propyl]-3,5-dimethyl-isoxazole-4-carboxamide
> <PUBCHEM_IUPAC_INCHI>
InChI=1S/C26H28N4O6/c1-15-21(16(2)36-29-15)24(33)28-20(12-17-8-4-3-5-9-17)23(32)26(35)30-13-18-10-6-7-11-19(18)22(30)25(34)27-14-31/h3-11,20,22-23,31-32H,12-14H2,1-2H3,(H,27,34)(H,28,33)/t20-,22?,23-/m0/s1
> <PUBCHEM_IUPAC_INCHIKEY>
YJBNVKNTSRGQSC-SLNZLALYSA-N
> <PUBCHEM_XLOGP3_AA>
1.4
> <PUBCHEM_EXACT_MASS>
492.20088463
> <PUBCHEM_MOLECULAR_FORMULA>
C26H28N4O6
> <PUBCHEM_MOLECULAR_WEIGHT>
492.5
> <PUBCHEM_OPENEYE_CAN_SMILES>
CC1=C(C(=NO1)C)C(=O)NC(CC2=CC=CC=C2)C(C(=O)N3CC4=CC=CC=C4C3C(=O)NCO)O
> <PUBCHEM_OPENEYE_ISO_SMILES>
CC1=C(C(=NO1)C)C(=O)N[C@@H](CC2=CC=CC=C2)[C@@H](C(=O)N3CC4=CC=CC=C4C3C(=O)NCO)O
> <PUBCHEM_CACTVS_TPSA>
145
> <PUBCHEM_MONOISOTOPIC_WEIGHT>
492.20088463
> <PUBCHEM_TOTAL_CHARGE>
0
> <PUBCHEM_HEAVY_ATOM_COUNT>
36
> <PUBCHEM_ATOM_DEF_STEREO_COUNT>
2
> <PUBCHEM_ATOM_UDEF_STEREO_COUNT>
1
> <PUBCHEM_BOND_DEF_STEREO_COUNT>
0
> <PUBCHEM_BOND_UDEF_STEREO_COUNT>
0
> <PUBCHEM_ISOTOPIC_ATOM_COUNT>
0
> <PUBCHEM_COMPONENT_COUNT>
1
> <PUBCHEM_CACTVS_TAUTO_COUNT>
-1
> <PUBCHEM_COORDINATE_TYPE>
1
5
255
> <PUBCHEM_BONDANNOTATIONS>
15  1  6
10  33  8
11  19  3
13  14  8
13  20  8
14  21  8
20  22  8
21  23  8
22  23  8
24  26  8
24  27  8
26  30  8
27  31  8
29  32  8
29  33  8
30  34  8
31  34  8
6  10  8
6  32  8
16  8  6
$$$$
