514911
  -OEChem-10302200282D
 32 34  0     1  0  0  0  0  0999 V2000
    3.0000    1.2990    0.0000 Cl  0  0  0  0  0  0  0  0  0  0  0  0
   10.3962    1.0911    0.0000 Cl  0  0  0  0  0  0  0  0  0  0  0  0
    2.0000   -0.4330    0.0000 Cl  0  0  0  0  0  0  0  0  0  0  0  0
    6.8660   -0.9330    0.0000 O   0  0  0  0  0  0  0  0  0  0  0  0
    8.6260   -0.9677    0.0000 N   0  0  0  0  0  0  0  0  0  0  0  0
    6.0000   -0.4330    0.0000 C   0  0  3  0  0  0  0  0  0  0  0  0
    6.0000    0.5670    0.0000 C   0  0  0  0  0  0  0  0  0  0  0  0
    6.8660    1.0670    0.0000 C   0  0  0  0  0  0  0  0  0  0  0  0
    5.0000   -0.4330    0.0000 C   0  0  0  0  0  0  0  0  0  0  0  0
    5.5000   -1.2990    0.0000 C   0  0  0  0  0  0  0  0  0  0  0  0
    7.7320    0.5670    0.0000 C   0  0  0  0  0  0  0  0  0  0  0  0
    7.7320   -0.4330    0.0000 C   0  0  0  0  0  0  0  0  0  0  0  0
    4.5000    0.4330    0.0000 C   0  0  0  0  0  0  0  0  0  0  0  0
    4.5000   -1.2990    0.0000 C   0  0  0  0  0  0  0  0  0  0  0  0
    8.6260    1.1016    0.0000 C   0  0  0  0  0  0  0  0  0  0  0  0
    3.5000    0.4330    0.0000 C   0  0  0  0  0  0  0  0  0  0  0  0
    3.5000   -1.2990    0.0000 C   0  0  0  0  0  0  0  0  0  0  0  0
    9.5321    0.5878    0.0000 C   0  0  0  0  0  0  0  0  0  0  0  0
    9.5321   -0.4538    0.0000 C   0  0  0  0  0  0  0  0  0  0  0  0
    3.0000   -0.4330    0.0000 C   0  0  0  0  0  0  0  0  0  0  0  0
    5.7880    1.1496    0.0000 H   0  0  0  0  0  0  0  0  0  0  0  0
    5.3894    0.4593    0.0000 H   0  0  0  0  0  0  0  0  0  0  0  0
    7.2646    1.5419    0.0000 H   0  0  0  0  0  0  0  0  0  0  0  0
    6.4675    1.5419    0.0000 H   0  0  0  0  0  0  0  0  0  0  0  0
    4.9631   -0.9890    0.0000 H   0  0  0  0  0  0  0  0  0  0  0  0
    5.1900   -1.8360    0.0000 H   0  0  0  0  0  0  0  0  0  0  0  0
    6.0369   -1.6090    0.0000 H   0  0  0  0  0  0  0  0  0  0  0  0
    4.8100    0.9699    0.0000 H   0  0  0  0  0  0  0  0  0  0  0  0
    4.8100   -1.8360    0.0000 H   0  0  0  0  0  0  0  0  0  0  0  0
    8.6188    1.7216    0.0000 H   0  0  0  0  0  0  0  0  0  0  0  0
    3.1900   -1.8360    0.0000 H   0  0  0  0  0  0  0  0  0  0  0  0
   10.0678   -0.7659    0.0000 H   0  0  0  0  0  0  0  0  0  0  0  0
  1 16  1  0  0  0  0
  2 18  1  0  0  0  0
  3 20  1  0  0  0  0
  4  6  1  0  0  0  0
  4 12  1  0  0  0  0
  5 12  1  0  0  0  0
  5 19  2  0  0  0  0
  6  7  1  0  0  0  0
  6  9  1  0  0  0  0
  6 10  1  0  0  0  0
  7  8  1  0  0  0  0
  7 21  1  0  0  0  0
  7 22  1  0  0  0  0
  8 11  1  0  0  0  0
  8 23  1  0  0  0  0
  8 24  1  0  0  0  0
  9 13  2  0  0  0  0
  9 14  1  0  0  0  0
 10 25  1  0  0  0  0
 10 26  1  0  0  0  0
 10 27  1  0  0  0  0
 11 12  2  0  0  0  0
 11 15  1  0  0  0  0
 13 16  1  0  0  0  0
 13 28  1  0  0  0  0
 14 17  2  0  0  0  0
 14 29  1  0  0  0  0
 15 18  2  0  0  0  0
 15 30  1  0  0  0  0
 16 20  2  0  0  0  0
 17 20  1  0  0  0  0
 17 31  1  0  0  0  0
 18 19  1  0  0  0  0
 19 32  1  0  0  0  0
M  END
> <PUBCHEM_COMPOUND_CID>
514911
> <PUBCHEM_COMPOUND_CANONICALIZED>
1
> <PUBCHEM_CACTVS_COMPLEXITY>
356
> <PUBCHEM_CACTVS_HBOND_ACCEPTOR>
2
> <PUBCHEM_CACTVS_HBOND_DONOR>
0
> <PUBCHEM_CACTVS_ROTATABLE_BOND>
1
> <PUBCHEM_CACTVS_SUBSKEYS>
AAADccByIAAGAAAAAAAAAAAAAAAAAAAAAAA8SIAAAAAAAACxwAAAHgIAAAAADEbBmiQ+hJIIFACgAjBnRACCiCAxJSAI2mAsTpgMJuLFs5vOOCjkwBHI6AeQ0PIOhAAAIAAAAAQIAABAAAAACAAAAAAAAA==
> <PUBCHEM_IUPAC_OPENEYE_NAME>
6-chloro-2-(3,4-dichlorophenyl)-2-methyl-3,4-dihydropyrano[2,3-b]pyridine
> <PUBCHEM_IUPAC_CAS_NAME>
6-chloro-2-(3,4-dichlorophenyl)-2-methyl-3,4-dihydropyrano[2,3-b]pyridine
> <PUBCHEM_IUPAC_NAME_MARKUP>
6-chloro-2-(3,4-dichlorophenyl)-2-methyl-3,4-dihydropyrano[2,3-b]pyridine
> <PUBCHEM_IUPAC_NAME>
6-chloro-2-(3,4-dichlorophenyl)-2-methyl-3,4-dihydropyrano[2,3-b]pyridine
> <PUBCHEM_IUPAC_SYSTEMATIC_NAME>
6-chloranyl-2-(3,4-dichlorophenyl)-2-methyl-3,4-dihydropyrano[2,3-b]pyridine
> <PUBCHEM_IUPAC_TRADITIONAL_NAME>
6-chloro-2-(3,4-dichlorophenyl)-2-methyl-3,4-dihydropyrano[2,3-b]pyridine
> <PUBCHEM_IUPAC_INCHI>
InChI=1S/C15H12Cl3NO/c1-15(10-2-3-12(17)13(18)7-10)5-4-9-6-11(16)8-19-14(9)20-15/h2-3,6-8H,4-5H2,1H3
> <PUBCHEM_IUPAC_INCHIKEY>
CLMOJMGQOOXBMX-UHFFFAOYSA-N
> <PUBCHEM_XLOGP3_AA>
5.1
> <PUBCHEM_EXACT_MASS>
326.998447
> <PUBCHEM_MOLECULAR_FORMULA>
C15H12Cl3NO
> <PUBCHEM_MOLECULAR_WEIGHT>
328.6
> <PUBCHEM_OPENEYE_CAN_SMILES>
CC1(CCC2=C(O1)N=CC(=C2)Cl)C3=CC(=C(C=C3)Cl)Cl
> <PUBCHEM_OPENEYE_ISO_SMILES>
CC1(CCC2=C(O1)N=CC(=C2)Cl)C3=CC(=C(C=C3)Cl)Cl
> <PUBCHEM_CACTVS_TPSA>
22.1
> <PUBCHEM_MONOISOTOPIC_WEIGHT>
326.998447
> <PUBCHEM_TOTAL_CHARGE>
0
> <PUBCHEM_HEAVY_ATOM_COUNT>
20
> <PUBCHEM_ATOM_DEF_STEREO_COUNT>
0
> <PUBCHEM_ATOM_UDEF_STEREO_COUNT>
1
> <PUBCHEM_BOND_DEF_STEREO_COUNT>
0
> <PUBCHEM_BOND_UDEF_STEREO_COUNT>
0
> <PUBCHEM_ISOTOPIC_ATOM_COUNT>
0
> <PUBCHEM_COMPONENT_COUNT>
1
> <PUBCHEM_CACTVS_TAUTO_COUNT>
1
> <PUBCHEM_COORDINATE_TYPE>
1
5
255
> <PUBCHEM_BONDANNOTATIONS>
11  12  8
11  15  8
13  16  8
14  17  8
15  18  8
16  20  8
17  20  8
18  19  8
5  12  8
5  19  8
6  10  3
9  13  8
9  14  8
$$$$
