514985
  -OEChem-10302200282D
 67 70  0     1  0  0  0  0  0999 V2000
    8.9282   -3.4239    0.0000 Cl  0  0  0  0  0  0  0  0  0  0  0  0
   12.3923   -0.4239    0.0000 O   0  0  0  0  0  0  0  0  0  0  0  0
   10.4385    3.4239    0.0000 O   0  0  0  0  0  0  0  0  0  0  0  0
    7.1962   -0.4239    0.0000 N   0  0  0  0  0  0  0  0  0  0  0  0
   10.6603   -0.4239    0.0000 N   0  0  0  0  0  0  0  0  0  0  0  0
   12.0263    2.6149    0.0000 N   0  0  0  0  0  0  0  0  0  0  0  0
    5.4641   -1.4239    0.0000 C   0  0  0  0  0  0  0  0  0  0  0  0
    5.4641   -0.4239    0.0000 C   0  0  0  0  0  0  0  0  0  0  0  0
    6.3301   -1.9239    0.0000 C   0  0  0  0  0  0  0  0  0  0  0  0
    6.3301    0.0761    0.0000 C   0  0  0  0  0  0  0  0  0  0  0  0
    7.1962   -1.4239    0.0000 C   0  0  0  0  0  0  0  0  0  0  0  0
    4.5981   -1.9239    0.0000 C   0  0  0  0  0  0  0  0  0  0  0  0
    8.0622    0.0761    0.0000 C   0  0  0  0  0  0  0  0  0  0  0  0
    8.9282   -0.4239    0.0000 C   0  0  0  0  0  0  0  0  0  0  0  0
   11.5263    1.0761    0.0000 C   0  0  3  0  0  0  0  0  0  0  0  0
    9.7942    0.0761    0.0000 C   0  0  0  0  0  0  0  0  0  0  0  0
    3.7320   -1.4239    0.0000 C   0  0  0  0  0  0  0  0  0  0  0  0
   12.3353    1.6639    0.0000 C   0  0  0  0  0  0  0  0  0  0  0  0
   10.7173    1.6639    0.0000 C   0  0  0  0  0  0  0  0  0  0  0  0
   11.5263    0.0761    0.0000 C   0  0  0  0  0  0  0  0  0  0  0  0
   11.0263    2.6149    0.0000 C   0  0  0  0  0  0  0  0  0  0  0  0
    2.8660   -1.9239    0.0000 C   0  0  0  0  0  0  0  0  0  0  0  0
    3.7320   -0.4239    0.0000 C   0  0  0  0  0  0  0  0  0  0  0  0
   10.6603   -1.4239    0.0000 C   0  0  0  0  0  0  0  0  0  0  0  0
   12.6141    3.4239    0.0000 C   0  0  0  0  0  0  0  0  0  0  0  0
    2.0000   -1.4239    0.0000 C   0  0  0  0  0  0  0  0  0  0  0  0
    2.8660    0.0761    0.0000 C   0  0  0  0  0  0  0  0  0  0  0  0
    9.7942   -1.9239    0.0000 C   0  0  0  0  0  0  0  0  0  0  0  0
   11.5263   -1.9239    0.0000 C   0  0  0  0  0  0  0  0  0  0  0  0
    2.0000   -0.4239    0.0000 C   0  0  0  0  0  0  0  0  0  0  0  0
    9.7942   -2.9239    0.0000 C   0  0  0  0  0  0  0  0  0  0  0  0
   11.5263   -2.9239    0.0000 C   0  0  0  0  0  0  0  0  0  0  0  0
   10.6603   -3.4239    0.0000 C   0  0  0  0  0  0  0  0  0  0  0  0
    5.4641   -2.0439    0.0000 H   0  0  0  0  0  0  0  0  0  0  0  0
    5.2520    0.1587    0.0000 H   0  0  0  0  0  0  0  0  0  0  0  0
    4.8535   -0.5316    0.0000 H   0  0  0  0  0  0  0  0  0  0  0  0
    5.9316   -2.3989    0.0000 H   0  0  0  0  0  0  0  0  0  0  0  0
    6.7287   -2.3989    0.0000 H   0  0  0  0  0  0  0  0  0  0  0  0
    6.7287    0.5510    0.0000 H   0  0  0  0  0  0  0  0  0  0  0  0
    5.9316    0.5510    0.0000 H   0  0  0  0  0  0  0  0  0  0  0  0
    7.4082   -2.0065    0.0000 H   0  0  0  0  0  0  0  0  0  0  0  0
    7.8067   -1.3163    0.0000 H   0  0  0  0  0  0  0  0  0  0  0  0
    4.1996   -2.3989    0.0000 H   0  0  0  0  0  0  0  0  0  0  0  0
    4.9966   -2.3989    0.0000 H   0  0  0  0  0  0  0  0  0  0  0  0
    8.4607    0.5510    0.0000 H   0  0  0  0  0  0  0  0  0  0  0  0
    7.6636    0.5510    0.0000 H   0  0  0  0  0  0  0  0  0  0  0  0
    8.5297   -0.8989    0.0000 H   0  0  0  0  0  0  0  0  0  0  0  0
    9.3267   -0.8989    0.0000 H   0  0  0  0  0  0  0  0  0  0  0  0
   12.0787    0.7946    0.0000 H   0  0  0  0  0  0  0  0  0  0  0  0
   10.1928    0.5510    0.0000 H   0  0  0  0  0  0  0  0  0  0  0  0
    9.3957    0.5510    0.0000 H   0  0  0  0  0  0  0  0  0  0  0  0
   12.6453    1.1269    0.0000 H   0  0  0  0  0  0  0  0  0  0  0  0
   12.9017    1.9160    0.0000 H   0  0  0  0  0  0  0  0  0  0  0  0
   10.1509    1.9160    0.0000 H   0  0  0  0  0  0  0  0  0  0  0  0
   10.4073    1.1269    0.0000 H   0  0  0  0  0  0  0  0  0  0  0  0
    2.8660   -2.5439    0.0000 H   0  0  0  0  0  0  0  0  0  0  0  0
    4.2690   -0.1139    0.0000 H   0  0  0  0  0  0  0  0  0  0  0  0
   13.1157    3.0595    0.0000 H   0  0  0  0  0  0  0  0  0  0  0  0
   12.9785    3.9255    0.0000 H   0  0  0  0  0  0  0  0  0  0  0  0
   12.1125    3.7884    0.0000 H   0  0  0  0  0  0  0  0  0  0  0  0
    1.4631   -1.7339    0.0000 H   0  0  0  0  0  0  0  0  0  0  0  0
    2.8660    0.6961    0.0000 H   0  0  0  0  0  0  0  0  0  0  0  0
    9.2573   -1.6139    0.0000 H   0  0  0  0  0  0  0  0  0  0  0  0
   12.0632   -1.6139    0.0000 H   0  0  0  0  0  0  0  0  0  0  0  0
    1.4631   -0.1139    0.0000 H   0  0  0  0  0  0  0  0  0  0  0  0
   12.0632   -3.2339    0.0000 H   0  0  0  0  0  0  0  0  0  0  0  0
   10.6603   -4.0439    0.0000 H   0  0  0  0  0  0  0  0  0  0  0  0
  1 31  1  0  0  0  0
  2 20  2  0  0  0  0
  3 21  2  0  0  0  0
  4 10  1  0  0  0  0
  4 11  1  0  0  0  0
  4 13  1  0  0  0  0
  5 16  1  0  0  0  0
  5 20  1  0  0  0  0
  5 24  1  0  0  0  0
  6 18  1  0  0  0  0
  6 21  1  0  0  0  0
  6 25  1  0  0  0  0
  7  8  1  0  0  0  0
  7  9  1  0  0  0  0
  7 12  1  0  0  0  0
  7 34  1  0  0  0  0
  8 10  1  0  0  0  0
  8 35  1  0  0  0  0
  8 36  1  0  0  0  0
  9 11  1  0  0  0  0
  9 37  1  0  0  0  0
  9 38  1  0  0  0  0
 10 39  1  0  0  0  0
 10 40  1  0  0  0  0
 11 41  1  0  0  0  0
 11 42  1  0  0  0  0
 12 17  1  0  0  0  0
 12 43  1  0  0  0  0
 12 44  1  0  0  0  0
 13 14  1  0  0  0  0
 13 45  1  0  0  0  0
 13 46  1  0  0  0  0
 14 16  1  0  0  0  0
 14 47  1  0  0  0  0
 14 48  1  0  0  0  0
 15 18  1  0  0  0  0
 15 19  1  0  0  0  0
 15 20  1  0  0  0  0
 15 49  1  0  0  0  0
 16 50  1  0  0  0  0
 16 51  1  0  0  0  0
 17 22  2  0  0  0  0
 17 23  1  0  0  0  0
 18 52  1  0  0  0  0
 18 53  1  0  0  0  0
 19 21  1  0  0  0  0
 19 54  1  0  0  0  0
 19 55  1  0  0  0  0
 22 26  1  0  0  0  0
 22 56  1  0  0  0  0
 23 27  2  0  0  0  0
 23 57  1  0  0  0  0
 24 28  2  0  0  0  0
 24 29  1  0  0  0  0
 25 58  1  0  0  0  0
 25 59  1  0  0  0  0
 25 60  1  0  0  0  0
 26 30  2  0  0  0  0
 26 61  1  0  0  0  0
 27 30  1  0  0  0  0
 27 62  1  0  0  0  0
 28 31  1  0  0  0  0
 28 63  1  0  0  0  0
 29 32  2  0  0  0  0
 29 64  1  0  0  0  0
 30 65  1  0  0  0  0
 31 33  2  0  0  0  0
 32 33  1  0  0  0  0
 32 66  1  0  0  0  0
 33 67  1  0  0  0  0
M  END
> <PUBCHEM_COMPOUND_CID>
514985
> <PUBCHEM_COMPOUND_CANONICALIZED>
1
> <PUBCHEM_CACTVS_COMPLEXITY>
645
> <PUBCHEM_CACTVS_HBOND_ACCEPTOR>
3
> <PUBCHEM_CACTVS_HBOND_DONOR>
0
> <PUBCHEM_CACTVS_ROTATABLE_BOND>
8
> <PUBCHEM_CACTVS_SUBSKEYS>
AAADcfB7MAAEAAAAAAAAAAAAAAAAAWAAAAA8YIAAAAAAAAABQAAAHgIAAAAADQrBmCQywIMAAACIAiVSUACCAAAhBwAIiAEIZogIIDrB05GEIAhghgDIyAcVgMAOAAAAAAIAAAAAAAAABAAAAAAAAAAAAA==
> <PUBCHEM_IUPAC_OPENEYE_NAME>
N-[3-(4-benzyl-1-piperidyl)propyl]-N-(3-chlorophenyl)-1-methyl-5-oxo-pyrrolidine-3-carboxamide
> <PUBCHEM_IUPAC_CAS_NAME>
N-(3-chlorophenyl)-1-methyl-5-oxo-N-[3-[4-(phenylmethyl)-1-piperidinyl]propyl]-3-pyrrolidinecarboxamide
> <PUBCHEM_IUPAC_NAME_MARKUP>
<I>N</I>-[3-(4-benzylpiperidin-1-yl)propyl]-<I>N</I>-(3-chlorophenyl)-1-methyl-5-oxopyrrolidine-3-carboxamide
> <PUBCHEM_IUPAC_NAME>
N-[3-(4-benzylpiperidin-1-yl)propyl]-N-(3-chlorophenyl)-1-methyl-5-oxopyrrolidine-3-carboxamide
> <PUBCHEM_IUPAC_SYSTEMATIC_NAME>
N-(3-chlorophenyl)-1-methyl-5-oxidanylidene-N-[3-[4-(phenylmethyl)piperidin-1-yl]propyl]pyrrolidine-3-carboxamide
> <PUBCHEM_IUPAC_TRADITIONAL_NAME>
N-[3-(4-benzylpiperidino)propyl]-N-(3-chlorophenyl)-5-keto-1-methyl-pyrrolidine-3-carboxamide
> <PUBCHEM_IUPAC_INCHI>
InChI=1S/C27H34ClN3O2/c1-29-20-23(18-26(29)32)27(33)31(25-10-5-9-24(28)19-25)14-6-13-30-15-11-22(12-16-30)17-21-7-3-2-4-8-21/h2-5,7-10,19,22-23H,6,11-18,20H2,1H3
> <PUBCHEM_IUPAC_INCHIKEY>
XFDYMIYXVRMFEM-UHFFFAOYSA-N
> <PUBCHEM_XLOGP3_AA>
4.2
> <PUBCHEM_EXACT_MASS>
467.2339550
> <PUBCHEM_MOLECULAR_FORMULA>
C27H34ClN3O2
> <PUBCHEM_MOLECULAR_WEIGHT>
468.0
> <PUBCHEM_OPENEYE_CAN_SMILES>
CN1CC(CC1=O)C(=O)N(CCCN2CCC(CC2)CC3=CC=CC=C3)C4=CC(=CC=C4)Cl
> <PUBCHEM_OPENEYE_ISO_SMILES>
CN1CC(CC1=O)C(=O)N(CCCN2CCC(CC2)CC3=CC=CC=C3)C4=CC(=CC=C4)Cl
> <PUBCHEM_CACTVS_TPSA>
43.9
> <PUBCHEM_MONOISOTOPIC_WEIGHT>
467.2339550
> <PUBCHEM_TOTAL_CHARGE>
0
> <PUBCHEM_HEAVY_ATOM_COUNT>
33
> <PUBCHEM_ATOM_DEF_STEREO_COUNT>
0
> <PUBCHEM_ATOM_UDEF_STEREO_COUNT>
1
> <PUBCHEM_BOND_DEF_STEREO_COUNT>
0
> <PUBCHEM_BOND_UDEF_STEREO_COUNT>
0
> <PUBCHEM_ISOTOPIC_ATOM_COUNT>
0
> <PUBCHEM_COMPONENT_COUNT>
1
> <PUBCHEM_CACTVS_TAUTO_COUNT>
-1
> <PUBCHEM_COORDINATE_TYPE>
1
5
255
> <PUBCHEM_BONDANNOTATIONS>
15  20  3
17  22  8
17  23  8
22  26  8
23  27  8
24  28  8
24  29  8
26  30  8
27  30  8
28  31  8
29  32  8
31  33  8
32  33  8
$$$$
