514961
  -OEChem-10302200282D
 93 97  0     1  0  0  0  0  0999 V2000
    8.0622    0.1958    0.0000 S   0  0  0  0  0  0  0  0  0  0  0  0
    6.8301    6.5260    0.0000 S   0  0  0  0  0  0  0  0  0  0  0  0
    7.1665   -5.9849    0.0000 O   0  0  0  0  0  0  0  0  0  0  0  0
    5.8938   -7.3920    0.0000 O   0  0  0  0  0  0  0  0  0  0  0  0
    5.4641   -4.0362    0.0000 O   0  0  0  0  0  0  0  0  0  0  0  0
    7.1962   -1.3042    0.0000 O   0  0  0  0  0  0  0  0  0  0  0  0
    7.5622   -0.6702    0.0000 O   0  0  0  0  0  0  0  0  0  0  0  0
    8.5622    1.0619    0.0000 O   0  0  0  0  0  0  0  0  0  0  0  0
    6.9641   -3.1702    0.0000 O   0  0  0  0  0  0  0  0  0  0  0  0
   11.6065    0.0006    0.0000 O   0  0  0  0  0  0  0  0  0  0  0  0
   11.6065   -1.6089    0.0000 O   0  0  0  0  0  0  0  0  0  0  0  0
    5.9641    7.0260    0.0000 O   0  0  0  0  0  0  0  0  0  0  0  0
    7.6962    6.0260    0.0000 O   0  0  0  0  0  0  0  0  0  0  0  0
    7.1962    0.6958    0.0000 N   0  0  3  0  0  0  0  0  0  0  0  0
    5.4641   -2.3042    0.0000 N   0  0  0  0  0  0  0  0  0  0  0  0
    6.3301    5.6599    0.0000 N   0  0  0  0  0  0  0  0  0  0  0  0
    5.5574   -5.8158    0.0000 C   0  0  2  0  0  0  0  0  0  0  0  0
    6.3005   -6.4849    0.0000 C   0  0  1  0  0  0  0  0  0  0  0  0
    5.9641   -4.9022    0.0000 C   0  0  2  0  0  0  0  0  0  0  0  0
    4.6978   -6.3150    0.0000 C   0  0  0  0  0  0  0  0  0  0  0  0
    6.9586   -5.0068    0.0000 C   0  0  0  0  0  0  0  0  0  0  0  0
    4.9053   -7.2872    0.0000 C   0  0  0  0  0  0  0  0  0  0  0  0
    6.3301    2.1958    0.0000 C   0  0  0  0  0  0  0  0  0  0  0  0
    7.1962    1.6958    0.0000 C   0  0  0  0  0  0  0  0  0  0  0  0
    6.8301    3.0619    0.0000 C   0  0  0  0  0  0  0  0  0  0  0  0
    6.3301    0.1958    0.0000 C   0  0  0  0  0  0  0  0  0  0  0  0
    6.3301   -0.8042    0.0000 C   0  0  2  0  0  0  0  0  0  0  0  0
    5.4641   -1.3042    0.0000 C   0  0  2  0  0  0  0  0  0  0  0  0
    5.4641    2.6958    0.0000 C   0  0  0  0  0  0  0  0  0  0  0  0
    5.8301    1.3298    0.0000 C   0  0  0  0  0  0  0  0  0  0  0  0
    6.3301    3.9279    0.0000 C   0  0  0  0  0  0  0  0  0  0  0  0
    5.9641   -3.1702    0.0000 C   0  0  0  0  0  0  0  0  0  0  0  0
    4.5981   -0.8042    0.0000 C   0  0  0  0  0  0  0  0  0  0  0  0
    6.8301    4.7939    0.0000 C   0  0  0  0  0  0  0  0  0  0  0  0
    8.9282   -0.3042    0.0000 C   0  0  0  0  0  0  0  0  0  0  0  0
    3.7320   -1.3042    0.0000 C   0  0  0  0  0  0  0  0  0  0  0  0
    9.7942    0.1958    0.0000 C   0  0  0  0  0  0  0  0  0  0  0  0
    8.9282   -1.3042    0.0000 C   0  0  0  0  0  0  0  0  0  0  0  0
    2.8660   -0.8042    0.0000 C   0  0  0  0  0  0  0  0  0  0  0  0
    3.7320   -2.3042    0.0000 C   0  0  0  0  0  0  0  0  0  0  0  0
   10.6603   -0.3042    0.0000 C   0  0  0  0  0  0  0  0  0  0  0  0
    9.7942   -1.8042    0.0000 C   0  0  0  0  0  0  0  0  0  0  0  0
   10.6603   -1.3042    0.0000 C   0  0  0  0  0  0  0  0  0  0  0  0
    2.0000   -1.3042    0.0000 C   0  0  0  0  0  0  0  0  0  0  0  0
    2.8660   -2.8042    0.0000 C   0  0  0  0  0  0  0  0  0  0  0  0
    7.3301    7.3920    0.0000 C   0  0  0  0  0  0  0  0  0  0  0  0
    2.0000   -2.3042    0.0000 C   0  0  0  0  0  0  0  0  0  0  0  0
   12.1901   -0.8042    0.0000 C   0  0  0  0  0  0  0  0  0  0  0  0
    4.9250   -5.2478    0.0000 H   0  0  0  0  0  0  0  0  0  0  0  0
    6.9314   -7.0545    0.0000 H   0  0  0  0  0  0  0  0  0  0  0  0
    6.3018   -4.3823    0.0000 H   0  0  0  0  0  0  0  0  0  0  0  0
    4.4444   -5.7492    0.0000 H   0  0  0  0  0  0  0  0  0  0  0  0
    4.1084   -6.5075    0.0000 H   0  0  0  0  0  0  0  0  0  0  0  0
    7.5752   -4.9420    0.0000 H   0  0  0  0  0  0  0  0  0  0  0  0
    6.9586   -4.3868    0.0000 H   0  0  0  0  0  0  0  0  0  0  0  0
    4.2887   -7.3522    0.0000 H   0  0  0  0  0  0  0  0  0  0  0  0
    4.9051   -7.9072    0.0000 H   0  0  0  0  0  0  0  0  0  0  0  0
    7.8067    1.5882    0.0000 H   0  0  0  0  0  0  0  0  0  0  0  0
    7.4082    2.2784    0.0000 H   0  0  0  0  0  0  0  0  0  0  0  0
    7.3051    2.6633    0.0000 H   0  0  0  0  0  0  0  0  0  0  0  0
    7.3051    3.4604    0.0000 H   0  0  0  0  0  0  0  0  0  0  0  0
    6.1181    0.7785    0.0000 H   0  0  0  0  0  0  0  0  0  0  0  0
    5.7196    0.0882    0.0000 H   0  0  0  0  0  0  0  0  0  0  0  0
    6.8671   -0.4942    0.0000 H   0  0  0  0  0  0  0  0  0  0  0  0
    6.0010   -1.6142    0.0000 H   0  0  0  0  0  0  0  0  0  0  0  0
    5.7741    3.2328    0.0000 H   0  0  0  0  0  0  0  0  0  0  0  0
    4.9272    3.0058    0.0000 H   0  0  0  0  0  0  0  0  0  0  0  0
    5.1541    2.1589    0.0000 H   0  0  0  0  0  0  0  0  0  0  0  0
    5.2932    1.6398    0.0000 H   0  0  0  0  0  0  0  0  0  0  0  0
    5.5201    0.7929    0.0000 H   0  0  0  0  0  0  0  0  0  0  0  0
    6.3671    1.0198    0.0000 H   0  0  0  0  0  0  0  0  0  0  0  0
    5.8552    4.3264    0.0000 H   0  0  0  0  0  0  0  0  0  0  0  0
    5.8552    3.5294    0.0000 H   0  0  0  0  0  0  0  0  0  0  0  0
    4.9272   -2.6142    0.0000 H   0  0  0  0  0  0  0  0  0  0  0  0
    4.9966   -0.3292    0.0000 H   0  0  0  0  0  0  0  0  0  0  0  0
    4.1996   -0.3292    0.0000 H   0  0  0  0  0  0  0  0  0  0  0  0
    7.3051    4.3954    0.0000 H   0  0  0  0  0  0  0  0  0  0  0  0
    7.3051    5.1924    0.0000 H   0  0  0  0  0  0  0  0  0  0  0  0
    7.5062   -1.8410    0.0000 H   0  0  0  0  0  0  0  0  0  0  0  0
    5.7101    5.6599    0.0000 H   0  0  0  0  0  0  0  0  0  0  0  0
    9.7942    0.8158    0.0000 H   0  0  0  0  0  0  0  0  0  0  0  0
    8.3913   -1.6142    0.0000 H   0  0  0  0  0  0  0  0  0  0  0  0
    2.8660   -0.1842    0.0000 H   0  0  0  0  0  0  0  0  0  0  0  0
    4.2690   -2.6142    0.0000 H   0  0  0  0  0  0  0  0  0  0  0  0
    9.7942   -2.4242    0.0000 H   0  0  0  0  0  0  0  0  0  0  0  0
    1.4631   -0.9942    0.0000 H   0  0  0  0  0  0  0  0  0  0  0  0
    2.8660   -3.4242    0.0000 H   0  0  0  0  0  0  0  0  0  0  0  0
    7.8671    7.0820    0.0000 H   0  0  0  0  0  0  0  0  0  0  0  0
    7.6401    7.9289    0.0000 H   0  0  0  0  0  0  0  0  0  0  0  0
    6.7932    7.7020    0.0000 H   0  0  0  0  0  0  0  0  0  0  0  0
    1.4631   -2.6142    0.0000 H   0  0  0  0  0  0  0  0  0  0  0  0
   12.6510   -1.2189    0.0000 H   0  0  0  0  0  0  0  0  0  0  0  0
   12.6510   -0.3894    0.0000 H   0  0  0  0  0  0  0  0  0  0  0  0
  1  7  2  0  0  0  0
  1  8  2  0  0  0  0
  1 14  1  0  0  0  0
  1 35  1  0  0  0  0
  2 12  2  0  0  0  0
  2 13  2  0  0  0  0
  2 16  1  0  0  0  0
  2 46  1  0  0  0  0
  3 18  1  0  0  0  0
  3 21  1  0  0  0  0
  4 18  1  0  0  0  0
  4 22  1  0  0  0  0
 19  5  1  1  0  0  0
  5 32  1  0  0  0  0
 27  6  1  1  0  0  0
  6 79  1  0  0  0  0
  9 32  2  0  0  0  0
 10 41  1  0  0  0  0
 10 48  1  0  0  0  0
 11 43  1  0  0  0  0
 11 48  1  0  0  0  0
 14 24  1  0  0  0  0
 14 26  1  0  0  0  0
 28 15  1  1  0  0  0
 15 32  1  0  0  0  0
 15 74  1  0  0  0  0
 16 34  1  0  0  0  0
 16 80  1  0  0  0  0
 17 18  1  0  0  0  0
 17 19  1  0  0  0  0
 17 20  1  0  0  0  0
 17 49  1  6  0  0  0
 18 50  1  6  0  0  0
 19 21  1  0  0  0  0
 19 51  1  0  0  0  0
 20 22  1  0  0  0  0
 20 52  1  0  0  0  0
 20 53  1  0  0  0  0
 21 54  1  0  0  0  0
 21 55  1  0  0  0  0
 22 56  1  0  0  0  0
 22 57  1  0  0  0  0
 23 24  1  0  0  0  0
 23 25  1  0  0  0  0
 23 29  1  0  0  0  0
 23 30  1  0  0  0  0
 24 58  1  0  0  0  0
 24 59  1  0  0  0  0
 25 31  1  0  0  0  0
 25 60  1  0  0  0  0
 25 61  1  0  0  0  0
 26 27  1  0  0  0  0
 26 62  1  0  0  0  0
 26 63  1  0  0  0  0
 27 28  1  0  0  0  0
 27 64  1  0  0  0  0
 28 33  1  0  0  0  0
 28 65  1  0  0  0  0
 29 66  1  0  0  0  0
 29 67  1  0  0  0  0
 29 68  1  0  0  0  0
 30 69  1  0  0  0  0
 30 70  1  0  0  0  0
 30 71  1  0  0  0  0
 31 34  1  0  0  0  0
 31 72  1  0  0  0  0
 31 73  1  0  0  0  0
 33 36  1  0  0  0  0
 33 75  1  0  0  0  0
 33 76  1  0  0  0  0
 34 77  1  0  0  0  0
 34 78  1  0  0  0  0
 35 37  2  0  0  0  0
 35 38  1  0  0  0  0
 36 39  2  0  0  0  0
 36 40  1  0  0  0  0
 37 41  1  0  0  0  0
 37 81  1  0  0  0  0
 38 42  2  0  0  0  0
 38 82  1  0  0  0  0
 39 44  1  0  0  0  0
 39 83  1  0  0  0  0
 40 45  2  0  0  0  0
 40 84  1  0  0  0  0
 41 43  2  0  0  0  0
 42 43  1  0  0  0  0
 42 85  1  0  0  0  0
 44 47  2  0  0  0  0
 44 86  1  0  0  0  0
 45 47  1  0  0  0  0
 45 87  1  0  0  0  0
 46 88  1  0  0  0  0
 46 89  1  0  0  0  0
 46 90  1  0  0  0  0
 47 91  1  0  0  0  0
 48 92  1  0  0  0  0
 48 93  1  0  0  0  0
M  END
> <PUBCHEM_COMPOUND_CID>
514961
> <PUBCHEM_COMPOUND_CANONICALIZED>
1
> <PUBCHEM_CACTVS_COMPLEXITY>
1270
> <PUBCHEM_CACTVS_HBOND_ACCEPTOR>
13
> <PUBCHEM_CACTVS_HBOND_DONOR>
3
> <PUBCHEM_CACTVS_ROTATABLE_BOND>
17
> <PUBCHEM_CACTVS_SUBSKEYS>
AAADcfB/PABgAAAAAAAAAAAAAAAAASJEgAAwYAAAAAASAEgBQAAAHgQQSAAADzzx2AeyD4LABgKIAiBCGHBCCBAgIAAIiJgOiIkfNiKE8RuucCIl1hGeqAfQ4KgPAIAABAAAQAABAAAIAACAAAAAAAAAAA==
> <PUBCHEM_IUPAC_OPENEYE_NAME>
[(3aS,4R,6aR)-2,3,3a,4,5,6a-hexahydrofuro[2,3-b]furan-4-yl] N-[(1S,2R)-3-[1,3-benzodioxol-5-ylsulfonyl-[5-(methanesulfonamido)-2,2-dimethyl-pentyl]amino]-1-benzyl-2-hydroxy-propyl]carbamate
> <PUBCHEM_IUPAC_CAS_NAME>
N-[(2S,3R)-4-[1,3-benzodioxol-5-ylsulfonyl-[5-(methanesulfonamido)-2,2-dimethylpentyl]amino]-3-hydroxy-1-phenylbutan-2-yl]carbamic acid [(3aS,4R,6aR)-2,3,3a,4,5,6a-hexahydrofuro[2,3-b]furan-4-yl] ester
> <PUBCHEM_IUPAC_NAME_MARKUP>
[(3<I>a</I><I>S</I>,4<I>R</I>,6<I>a</I><I>R</I>)-2,3,3<I>a</I>,4,5,6<I>a</I>-hexahydrofuro[2,3-b]furan-4-yl] <I>N</I>-[(2<I>S</I>,3<I>R</I>)-4-[1,3-benzodioxol-5-ylsulfonyl-[5-(methanesulfonamido)-2,2-dimethylpentyl]amino]-3-hydroxy-1-phenylbutan-2-yl]carbamate
> <PUBCHEM_IUPAC_NAME>
[(3aS,4R,6aR)-2,3,3a,4,5,6a-hexahydrofuro[2,3-b]furan-4-yl] N-[(2S,3R)-4-[1,3-benzodioxol-5-ylsulfonyl-[5-(methanesulfonamido)-2,2-dimethylpentyl]amino]-3-hydroxy-1-phenylbutan-2-yl]carbamate
> <PUBCHEM_IUPAC_SYSTEMATIC_NAME>
[(3aS,4R,6aR)-2,3,3a,4,5,6a-hexahydrofuro[2,3-b]furan-4-yl] N-[(2S,3R)-4-[1,3-benzodioxol-5-ylsulfonyl-[2,2-dimethyl-5-(methylsulfonylamino)pentyl]amino]-3-oxidanyl-1-phenyl-butan-2-yl]carbamate
> <PUBCHEM_IUPAC_TRADITIONAL_NAME>
N-[(1S,2R)-3-[1,3-benzodioxol-5-ylsulfonyl-[5-(methanesulfonamido)-2,2-dimethyl-pentyl]amino]-1-benzyl-2-hydroxy-propyl]carbamic acid [(3aS,4R,6aR)-2,3,3a,4,5,6a-hexahydrofuro[2,3-b]furan-4-yl] ester
> <PUBCHEM_IUPAC_INCHI>
InChI=1S/C32H45N3O11S2/c1-32(2,13-7-14-33-47(3,38)39)20-35(48(40,41)23-10-11-27-28(17-23)45-21-44-27)18-26(36)25(16-22-8-5-4-6-9-22)34-31(37)46-29-19-43-30-24(29)12-15-42-30/h4-6,8-11,17,24-26,29-30,33,36H,7,12-16,18-21H2,1-3H3,(H,34,37)/t24-,25-,26+,29-,30+/m0/s1
> <PUBCHEM_IUPAC_INCHIKEY>
HHBSGEZINSPRQJ-UGSBDYSCSA-N
> <PUBCHEM_XLOGP3_AA>
3.1
> <PUBCHEM_EXACT_MASS>
711.24955161
> <PUBCHEM_MOLECULAR_FORMULA>
C32H45N3O11S2
> <PUBCHEM_MOLECULAR_WEIGHT>
711.8
> <PUBCHEM_OPENEYE_CAN_SMILES>
CC(C)(CCCNS(=O)(=O)C)CN(CC(C(CC1=CC=CC=C1)NC(=O)OC2COC3C2CCO3)O)S(=O)(=O)C4=CC5=C(C=C4)OCO5
> <PUBCHEM_OPENEYE_ISO_SMILES>
CC(C)(CCCNS(=O)(=O)C)CN(C[C@H]([C@H](CC1=CC=CC=C1)NC(=O)O[C@H]2CO[C@@H]3[C@H]2CCO3)O)S(=O)(=O)C4=CC5=C(C=C4)OCO5
> <PUBCHEM_CACTVS_TPSA>
196
> <PUBCHEM_MONOISOTOPIC_WEIGHT>
711.24955161
> <PUBCHEM_TOTAL_CHARGE>
0
> <PUBCHEM_HEAVY_ATOM_COUNT>
48
> <PUBCHEM_ATOM_DEF_STEREO_COUNT>
5
> <PUBCHEM_ATOM_UDEF_STEREO_COUNT>
0
> <PUBCHEM_BOND_DEF_STEREO_COUNT>
0
> <PUBCHEM_BOND_UDEF_STEREO_COUNT>
0
> <PUBCHEM_ISOTOPIC_ATOM_COUNT>
0
> <PUBCHEM_COMPONENT_COUNT>
1
> <PUBCHEM_CACTVS_TAUTO_COUNT>
-1
> <PUBCHEM_COORDINATE_TYPE>
1
5
255
> <PUBCHEM_BONDANNOTATIONS>
28  15  5
17  49  6
18  50  6
35  37  8
35  38  8
36  39  8
36  40  8
37  41  8
38  42  8
39  44  8
40  45  8
41  43  8
42  43  8
44  47  8
45  47  8
19  5  5
27  6  5
$$$$
