514981
  -OEChem-10302200282D
 70 73  0     1  0  0  0  0  0999 V2000
   12.3923    0.0761    0.0000 O   0  0  0  0  0  0  0  0  0  0  0  0
   10.4385    3.9239    0.0000 O   0  0  0  0  0  0  0  0  0  0  0  0
    7.1962    0.0761    0.0000 N   0  0  0  0  0  0  0  0  0  0  0  0
   10.6603    0.0761    0.0000 N   0  0  0  0  0  0  0  0  0  0  0  0
   12.0263    3.1149    0.0000 N   0  0  0  0  0  0  0  0  0  0  0  0
    5.4641   -0.9239    0.0000 C   0  0  0  0  0  0  0  0  0  0  0  0
    5.4641    0.0761    0.0000 C   0  0  0  0  0  0  0  0  0  0  0  0
    6.3301   -1.4239    0.0000 C   0  0  0  0  0  0  0  0  0  0  0  0
    6.3301    0.5761    0.0000 C   0  0  0  0  0  0  0  0  0  0  0  0
    7.1962   -0.9239    0.0000 C   0  0  0  0  0  0  0  0  0  0  0  0
    4.5981   -1.4239    0.0000 C   0  0  0  0  0  0  0  0  0  0  0  0
    8.0622    0.5761    0.0000 C   0  0  0  0  0  0  0  0  0  0  0  0
    8.9282    0.0761    0.0000 C   0  0  0  0  0  0  0  0  0  0  0  0
   11.5263    1.5761    0.0000 C   0  0  3  0  0  0  0  0  0  0  0  0
    9.7942    0.5761    0.0000 C   0  0  0  0  0  0  0  0  0  0  0  0
    3.7320   -0.9239    0.0000 C   0  0  0  0  0  0  0  0  0  0  0  0
   12.3353    2.1639    0.0000 C   0  0  0  0  0  0  0  0  0  0  0  0
   10.7173    2.1639    0.0000 C   0  0  0  0  0  0  0  0  0  0  0  0
   11.5263    0.5761    0.0000 C   0  0  0  0  0  0  0  0  0  0  0  0
   11.0263    3.1149    0.0000 C   0  0  0  0  0  0  0  0  0  0  0  0
    2.8660   -1.4239    0.0000 C   0  0  0  0  0  0  0  0  0  0  0  0
    3.7320    0.0761    0.0000 C   0  0  0  0  0  0  0  0  0  0  0  0
   10.6603   -0.9239    0.0000 C   0  0  0  0  0  0  0  0  0  0  0  0
   12.6141    3.9239    0.0000 C   0  0  0  0  0  0  0  0  0  0  0  0
    2.0000   -0.9239    0.0000 C   0  0  0  0  0  0  0  0  0  0  0  0
    2.8660    0.5761    0.0000 C   0  0  0  0  0  0  0  0  0  0  0  0
    9.7942   -1.4239    0.0000 C   0  0  0  0  0  0  0  0  0  0  0  0
   11.5263   -1.4239    0.0000 C   0  0  0  0  0  0  0  0  0  0  0  0
    2.0000    0.0761    0.0000 C   0  0  0  0  0  0  0  0  0  0  0  0
    9.7942   -2.4239    0.0000 C   0  0  0  0  0  0  0  0  0  0  0  0
   11.5263   -2.4239    0.0000 C   0  0  0  0  0  0  0  0  0  0  0  0
   10.6603   -2.9239    0.0000 C   0  0  0  0  0  0  0  0  0  0  0  0
   10.6603   -3.9239    0.0000 C   0  0  0  0  0  0  0  0  0  0  0  0
    5.4641   -1.5439    0.0000 H   0  0  0  0  0  0  0  0  0  0  0  0
    5.2520    0.6587    0.0000 H   0  0  0  0  0  0  0  0  0  0  0  0
    4.8535   -0.0316    0.0000 H   0  0  0  0  0  0  0  0  0  0  0  0
    5.9316   -1.8989    0.0000 H   0  0  0  0  0  0  0  0  0  0  0  0
    6.7287   -1.8989    0.0000 H   0  0  0  0  0  0  0  0  0  0  0  0
    6.7287    1.0510    0.0000 H   0  0  0  0  0  0  0  0  0  0  0  0
    5.9316    1.0510    0.0000 H   0  0  0  0  0  0  0  0  0  0  0  0
    7.4082   -1.5065    0.0000 H   0  0  0  0  0  0  0  0  0  0  0  0
    7.8067   -0.8163    0.0000 H   0  0  0  0  0  0  0  0  0  0  0  0
    4.1996   -1.8989    0.0000 H   0  0  0  0  0  0  0  0  0  0  0  0
    4.9966   -1.8989    0.0000 H   0  0  0  0  0  0  0  0  0  0  0  0
    8.4607    1.0510    0.0000 H   0  0  0  0  0  0  0  0  0  0  0  0
    7.6636    1.0510    0.0000 H   0  0  0  0  0  0  0  0  0  0  0  0
    8.5297   -0.3989    0.0000 H   0  0  0  0  0  0  0  0  0  0  0  0
    9.3267   -0.3989    0.0000 H   0  0  0  0  0  0  0  0  0  0  0  0
   10.9739    1.2946    0.0000 H   0  0  0  0  0  0  0  0  0  0  0  0
   10.1928    1.0510    0.0000 H   0  0  0  0  0  0  0  0  0  0  0  0
    9.3957    1.0510    0.0000 H   0  0  0  0  0  0  0  0  0  0  0  0
   12.6453    1.6269    0.0000 H   0  0  0  0  0  0  0  0  0  0  0  0
   12.9017    2.4160    0.0000 H   0  0  0  0  0  0  0  0  0  0  0  0
   10.1509    2.4160    0.0000 H   0  0  0  0  0  0  0  0  0  0  0  0
   10.4073    1.6269    0.0000 H   0  0  0  0  0  0  0  0  0  0  0  0
    2.8660   -2.0439    0.0000 H   0  0  0  0  0  0  0  0  0  0  0  0
    4.2690    0.3861    0.0000 H   0  0  0  0  0  0  0  0  0  0  0  0
   13.1157    3.5595    0.0000 H   0  0  0  0  0  0  0  0  0  0  0  0
   12.9785    4.4255    0.0000 H   0  0  0  0  0  0  0  0  0  0  0  0
   12.1125    4.2884    0.0000 H   0  0  0  0  0  0  0  0  0  0  0  0
    1.4631   -1.2339    0.0000 H   0  0  0  0  0  0  0  0  0  0  0  0
    2.8660    1.1961    0.0000 H   0  0  0  0  0  0  0  0  0  0  0  0
    9.2573   -1.1139    0.0000 H   0  0  0  0  0  0  0  0  0  0  0  0
   12.0632   -1.1139    0.0000 H   0  0  0  0  0  0  0  0  0  0  0  0
    1.4631    0.3861    0.0000 H   0  0  0  0  0  0  0  0  0  0  0  0
    9.2573   -2.7339    0.0000 H   0  0  0  0  0  0  0  0  0  0  0  0
   12.0632   -2.7339    0.0000 H   0  0  0  0  0  0  0  0  0  0  0  0
   10.0403   -3.9239    0.0000 H   0  0  0  0  0  0  0  0  0  0  0  0
   10.6603   -4.5439    0.0000 H   0  0  0  0  0  0  0  0  0  0  0  0
   11.2803   -3.9239    0.0000 H   0  0  0  0  0  0  0  0  0  0  0  0
  1 19  2  0  0  0  0
  2 20  2  0  0  0  0
  3  9  1  0  0  0  0
  3 10  1  0  0  0  0
  3 12  1  0  0  0  0
  4 15  1  0  0  0  0
  4 19  1  0  0  0  0
  4 23  1  0  0  0  0
  5 17  1  0  0  0  0
  5 20  1  0  0  0  0
  5 24  1  0  0  0  0
  6  7  1  0  0  0  0
  6  8  1  0  0  0  0
  6 11  1  0  0  0  0
  6 34  1  0  0  0  0
  7  9  1  0  0  0  0
  7 35  1  0  0  0  0
  7 36  1  0  0  0  0
  8 10  1  0  0  0  0
  8 37  1  0  0  0  0
  8 38  1  0  0  0  0
  9 39  1  0  0  0  0
  9 40  1  0  0  0  0
 10 41  1  0  0  0  0
 10 42  1  0  0  0  0
 11 16  1  0  0  0  0
 11 43  1  0  0  0  0
 11 44  1  0  0  0  0
 12 13  1  0  0  0  0
 12 45  1  0  0  0  0
 12 46  1  0  0  0  0
 13 15  1  0  0  0  0
 13 47  1  0  0  0  0
 13 48  1  0  0  0  0
 14 17  1  0  0  0  0
 14 18  1  0  0  0  0
 14 19  1  0  0  0  0
 14 49  1  0  0  0  0
 15 50  1  0  0  0  0
 15 51  1  0  0  0  0
 16 21  2  0  0  0  0
 16 22  1  0  0  0  0
 17 52  1  0  0  0  0
 17 53  1  0  0  0  0
 18 20  1  0  0  0  0
 18 54  1  0  0  0  0
 18 55  1  0  0  0  0
 21 25  1  0  0  0  0
 21 56  1  0  0  0  0
 22 26  2  0  0  0  0
 22 57  1  0  0  0  0
 23 27  2  0  0  0  0
 23 28  1  0  0  0  0
 24 58  1  0  0  0  0
 24 59  1  0  0  0  0
 24 60  1  0  0  0  0
 25 29  2  0  0  0  0
 25 61  1  0  0  0  0
 26 29  1  0  0  0  0
 26 62  1  0  0  0  0
 27 30  1  0  0  0  0
 27 63  1  0  0  0  0
 28 31  2  0  0  0  0
 28 64  1  0  0  0  0
 29 65  1  0  0  0  0
 30 32  2  0  0  0  0
 30 66  1  0  0  0  0
 31 32  1  0  0  0  0
 31 67  1  0  0  0  0
 32 33  1  0  0  0  0
 33 68  1  0  0  0  0
 33 69  1  0  0  0  0
 33 70  1  0  0  0  0
M  END
> <PUBCHEM_COMPOUND_CID>
514981
> <PUBCHEM_COMPOUND_CANONICALIZED>
1
> <PUBCHEM_CACTVS_COMPLEXITY>
631
> <PUBCHEM_CACTVS_HBOND_ACCEPTOR>
3
> <PUBCHEM_CACTVS_HBOND_DONOR>
0
> <PUBCHEM_CACTVS_ROTATABLE_BOND>
8
> <PUBCHEM_CACTVS_SUBSKEYS>
AAADcfB7MAAAAAAAAAAAAAAAAAAAAWAAAAA8YIAAAAAAAAABQAAAHgAAAAAADQjBmAQywIMAAACIAiVSUACCAAAhAgAIiAEIZIgIIDrA0ZGEIAhghgDIyAcVgMAOCAAAAAAAAAAQAAAAAAAAAAAAAAAAAA==
> <PUBCHEM_IUPAC_OPENEYE_NAME>
N-[3-(4-benzyl-1-piperidyl)propyl]-1-methyl-5-oxo-N-(p-tolyl)pyrrolidine-3-carboxamide
> <PUBCHEM_IUPAC_CAS_NAME>
1-methyl-N-(4-methylphenyl)-5-oxo-N-[3-[4-(phenylmethyl)-1-piperidinyl]propyl]-3-pyrrolidinecarboxamide
> <PUBCHEM_IUPAC_NAME_MARKUP>
<I>N</I>-[3-(4-benzylpiperidin-1-yl)propyl]-1-methyl-<I>N</I>-(4-methylphenyl)-5-oxopyrrolidine-3-carboxamide
> <PUBCHEM_IUPAC_NAME>
N-[3-(4-benzylpiperidin-1-yl)propyl]-1-methyl-N-(4-methylphenyl)-5-oxopyrrolidine-3-carboxamide
> <PUBCHEM_IUPAC_SYSTEMATIC_NAME>
1-methyl-N-(4-methylphenyl)-5-oxidanylidene-N-[3-[4-(phenylmethyl)piperidin-1-yl]propyl]pyrrolidine-3-carboxamide
> <PUBCHEM_IUPAC_TRADITIONAL_NAME>
N-[3-(4-benzylpiperidino)propyl]-5-keto-1-methyl-N-(p-tolyl)pyrrolidine-3-carboxamide
> <PUBCHEM_IUPAC_INCHI>
InChI=1S/C28H37N3O2/c1-22-9-11-26(12-10-22)31(28(33)25-20-27(32)29(2)21-25)16-6-15-30-17-13-24(14-18-30)19-23-7-4-3-5-8-23/h3-5,7-12,24-25H,6,13-21H2,1-2H3
> <PUBCHEM_IUPAC_INCHIKEY>
BRTLLXHPUWXQEM-UHFFFAOYSA-N
> <PUBCHEM_XLOGP3_AA>
3.9
> <PUBCHEM_EXACT_MASS>
447.28857743
> <PUBCHEM_MOLECULAR_FORMULA>
C28H37N3O2
> <PUBCHEM_MOLECULAR_WEIGHT>
447.6
> <PUBCHEM_OPENEYE_CAN_SMILES>
CC1=CC=C(C=C1)N(CCCN2CCC(CC2)CC3=CC=CC=C3)C(=O)C4CC(=O)N(C4)C
> <PUBCHEM_OPENEYE_ISO_SMILES>
CC1=CC=C(C=C1)N(CCCN2CCC(CC2)CC3=CC=CC=C3)C(=O)C4CC(=O)N(C4)C
> <PUBCHEM_CACTVS_TPSA>
43.9
> <PUBCHEM_MONOISOTOPIC_WEIGHT>
447.28857743
> <PUBCHEM_TOTAL_CHARGE>
0
> <PUBCHEM_HEAVY_ATOM_COUNT>
33
> <PUBCHEM_ATOM_DEF_STEREO_COUNT>
0
> <PUBCHEM_ATOM_UDEF_STEREO_COUNT>
1
> <PUBCHEM_BOND_DEF_STEREO_COUNT>
0
> <PUBCHEM_BOND_UDEF_STEREO_COUNT>
0
> <PUBCHEM_ISOTOPIC_ATOM_COUNT>
0
> <PUBCHEM_COMPONENT_COUNT>
1
> <PUBCHEM_CACTVS_TAUTO_COUNT>
-1
> <PUBCHEM_COORDINATE_TYPE>
1
5
255
> <PUBCHEM_BONDANNOTATIONS>
14  19  3
16  21  8
16  22  8
21  25  8
22  26  8
23  27  8
23  28  8
25  29  8
26  29  8
27  30  8
28  31  8
30  32  8
31  32  8
$$$$
