514962
  -OEChem-10302200282D
 66 69  0     1  0  0  0  0  0999 V2000
   11.5054    5.5000    0.0000 F   0  0  0  0  0  0  0  0  0  0  0  0
    7.1753    4.0000    0.0000 O   0  0  0  0  0  0  0  0  0  0  0  0
    5.4432   -1.0000    0.0000 O   0  0  0  0  0  0  0  0  0  0  0  0
    2.0000   -2.7319    0.0000 O   0  0  0  0  0  0  0  0  0  0  0  0
    8.0413    0.5000    0.0000 N   0  0  0  0  0  0  0  0  0  0  0  0
    6.3092   -2.5000    0.0000 N   0  0  0  0  0  0  0  0  0  0  0  0
    3.4945   -3.7024    0.0000 N   0  0  0  0  0  0  0  0  0  0  0  0
    8.0413    2.5000    0.0000 C   0  0  0  0  0  0  0  0  0  0  0  0
    7.1753    2.0000    0.0000 C   0  0  0  0  0  0  0  0  0  0  0  0
    8.9073    2.0000    0.0000 C   0  0  0  0  0  0  0  0  0  0  0  0
    7.1753    1.0000    0.0000 C   0  0  0  0  0  0  0  0  0  0  0  0
    8.9073    1.0000    0.0000 C   0  0  0  0  0  0  0  0  0  0  0  0
    8.0413   -0.5000    0.0000 C   0  0  0  0  0  0  0  0  0  0  0  0
    7.1753   -1.0000    0.0000 C   0  0  0  0  0  0  0  0  0  0  0  0
    4.5772   -2.5000    0.0000 C   0  0  3  0  0  0  0  0  0  0  0  0
    8.0413    3.5000    0.0000 C   0  0  0  0  0  0  0  0  0  0  0  0
    7.1753   -2.0000    0.0000 C   0  0  0  0  0  0  0  0  0  0  0  0
    4.4727   -3.4945    0.0000 C   0  0  0  0  0  0  0  0  0  0  0  0
    3.6636   -2.0933    0.0000 C   0  0  0  0  0  0  0  0  0  0  0  0
    5.4432   -2.0000    0.0000 C   0  0  0  0  0  0  0  0  0  0  0  0
    2.9945   -2.8364    0.0000 C   0  0  0  0  0  0  0  0  0  0  0  0
    8.9073    4.0000    0.0000 C   0  0  0  0  0  0  0  0  0  0  0  0
    6.3092   -3.5000    0.0000 C   0  0  0  0  0  0  0  0  0  0  0  0
    3.0878   -4.6160    0.0000 C   0  0  0  0  0  0  0  0  0  0  0  0
    8.9073    5.0000    0.0000 C   0  0  0  0  0  0  0  0  0  0  0  0
    9.7734    3.5000    0.0000 C   0  0  0  0  0  0  0  0  0  0  0  0
    7.1753   -4.0000    0.0000 C   0  0  0  0  0  0  0  0  0  0  0  0
    5.4432   -4.0000    0.0000 C   0  0  0  0  0  0  0  0  0  0  0  0
    9.7734    5.5000    0.0000 C   0  0  0  0  0  0  0  0  0  0  0  0
   10.6394    4.0000    0.0000 C   0  0  0  0  0  0  0  0  0  0  0  0
    7.1753   -5.0000    0.0000 C   0  0  0  0  0  0  0  0  0  0  0  0
    5.4432   -5.0000    0.0000 C   0  0  0  0  0  0  0  0  0  0  0  0
   10.6394    5.0000    0.0000 C   0  0  0  0  0  0  0  0  0  0  0  0
    6.3092   -5.5000    0.0000 C   0  0  0  0  0  0  0  0  0  0  0  0
    8.5782    2.8100    0.0000 H   0  0  0  0  0  0  0  0  0  0  0  0
    6.9632    2.5826    0.0000 H   0  0  0  0  0  0  0  0  0  0  0  0
    6.5647    1.8923    0.0000 H   0  0  0  0  0  0  0  0  0  0  0  0
    9.5179    1.8923    0.0000 H   0  0  0  0  0  0  0  0  0  0  0  0
    9.1194    2.5826    0.0000 H   0  0  0  0  0  0  0  0  0  0  0  0
    6.5647    1.1077    0.0000 H   0  0  0  0  0  0  0  0  0  0  0  0
    6.9632    0.4174    0.0000 H   0  0  0  0  0  0  0  0  0  0  0  0
    9.1194    0.4174    0.0000 H   0  0  0  0  0  0  0  0  0  0  0  0
    9.5179    1.1077    0.0000 H   0  0  0  0  0  0  0  0  0  0  0  0
    8.2534   -1.0826    0.0000 H   0  0  0  0  0  0  0  0  0  0  0  0
    8.6519   -0.3923    0.0000 H   0  0  0  0  0  0  0  0  0  0  0  0
    6.9632   -0.4174    0.0000 H   0  0  0  0  0  0  0  0  0  0  0  0
    6.5647   -1.1077    0.0000 H   0  0  0  0  0  0  0  0  0  0  0  0
    4.5447   -1.8808    0.0000 H   0  0  0  0  0  0  0  0  0  0  0  0
    7.3873   -2.5826    0.0000 H   0  0  0  0  0  0  0  0  0  0  0  0
    7.7859   -1.8923    0.0000 H   0  0  0  0  0  0  0  0  0  0  0  0
    4.5375   -4.1111    0.0000 H   0  0  0  0  0  0  0  0  0  0  0  0
    5.0927   -3.4945    0.0000 H   0  0  0  0  0  0  0  0  0  0  0  0
    3.9736   -1.5563    0.0000 H   0  0  0  0  0  0  0  0  0  0  0  0
    3.1621   -1.7288    0.0000 H   0  0  0  0  0  0  0  0  0  0  0  0
    2.5214   -4.3638    0.0000 H   0  0  0  0  0  0  0  0  0  0  0  0
    2.8356   -5.1824    0.0000 H   0  0  0  0  0  0  0  0  0  0  0  0
    3.6542   -4.8682    0.0000 H   0  0  0  0  0  0  0  0  0  0  0  0
    8.3704    5.3100    0.0000 H   0  0  0  0  0  0  0  0  0  0  0  0
    9.7734    2.8800    0.0000 H   0  0  0  0  0  0  0  0  0  0  0  0
    7.7122   -3.6900    0.0000 H   0  0  0  0  0  0  0  0  0  0  0  0
    4.9063   -3.6900    0.0000 H   0  0  0  0  0  0  0  0  0  0  0  0
    9.7734    6.1200    0.0000 H   0  0  0  0  0  0  0  0  0  0  0  0
   11.1763    3.6900    0.0000 H   0  0  0  0  0  0  0  0  0  0  0  0
    7.7122   -5.3100    0.0000 H   0  0  0  0  0  0  0  0  0  0  0  0
    4.9063   -5.3100    0.0000 H   0  0  0  0  0  0  0  0  0  0  0  0
    6.3092   -6.1200    0.0000 H   0  0  0  0  0  0  0  0  0  0  0  0
  1 33  1  0  0  0  0
  2 16  2  0  0  0  0
  3 20  2  0  0  0  0
  4 21  2  0  0  0  0
  5 11  1  0  0  0  0
  5 12  1  0  0  0  0
  5 13  1  0  0  0  0
  6 17  1  0  0  0  0
  6 20  1  0  0  0  0
  6 23  1  0  0  0  0
  7 18  1  0  0  0  0
  7 21  1  0  0  0  0
  7 24  1  0  0  0  0
  8  9  1  0  0  0  0
  8 10  1  0  0  0  0
  8 16  1  0  0  0  0
  8 35  1  0  0  0  0
  9 11  1  0  0  0  0
  9 36  1  0  0  0  0
  9 37  1  0  0  0  0
 10 12  1  0  0  0  0
 10 38  1  0  0  0  0
 10 39  1  0  0  0  0
 11 40  1  0  0  0  0
 11 41  1  0  0  0  0
 12 42  1  0  0  0  0
 12 43  1  0  0  0  0
 13 14  1  0  0  0  0
 13 44  1  0  0  0  0
 13 45  1  0  0  0  0
 14 17  1  0  0  0  0
 14 46  1  0  0  0  0
 14 47  1  0  0  0  0
 15 18  1  0  0  0  0
 15 19  1  0  0  0  0
 15 20  1  0  0  0  0
 15 48  1  0  0  0  0
 16 22  1  0  0  0  0
 17 49  1  0  0  0  0
 17 50  1  0  0  0  0
 18 51  1  0  0  0  0
 18 52  1  0  0  0  0
 19 21  1  0  0  0  0
 19 53  1  0  0  0  0
 19 54  1  0  0  0  0
 22 25  2  0  0  0  0
 22 26  1  0  0  0  0
 23 27  2  0  0  0  0
 23 28  1  0  0  0  0
 24 55  1  0  0  0  0
 24 56  1  0  0  0  0
 24 57  1  0  0  0  0
 25 29  1  0  0  0  0
 25 58  1  0  0  0  0
 26 30  2  0  0  0  0
 26 59  1  0  0  0  0
 27 31  1  0  0  0  0
 27 60  1  0  0  0  0
 28 32  2  0  0  0  0
 28 61  1  0  0  0  0
 29 33  2  0  0  0  0
 29 62  1  0  0  0  0
 30 33  1  0  0  0  0
 30 63  1  0  0  0  0
 31 34  2  0  0  0  0
 31 64  1  0  0  0  0
 32 34  1  0  0  0  0
 32 65  1  0  0  0  0
 34 66  1  0  0  0  0
M  END
> <PUBCHEM_COMPOUND_CID>
514962
> <PUBCHEM_COMPOUND_CANONICALIZED>
1
> <PUBCHEM_CACTVS_COMPLEXITY>
710
> <PUBCHEM_CACTVS_HBOND_ACCEPTOR>
5
> <PUBCHEM_CACTVS_HBOND_DONOR>
0
> <PUBCHEM_CACTVS_ROTATABLE_BOND>
8
> <PUBCHEM_CACTVS_SUBSKEYS>
AAADcfB7MQAAAAAAAAAAAAAAAAAAAWAAAAA8YIAAAAAAAAABQAAAHwAAAAAADQzBmAwywIMAAACIAqVSUACCAAAlAgAIiAEIZMgIIDrA1ZGEIQhghgDIyYcdiMCOAAAAAAAAAAAAAAAAAAAAAAAAAAAAAA==
> <PUBCHEM_IUPAC_OPENEYE_NAME>
N-[3-[4-(4-fluorobenzoyl)-1-piperidyl]propyl]-1-methyl-5-oxo-N-phenyl-pyrrolidine-3-carboxamide
> <PUBCHEM_IUPAC_CAS_NAME>
N-[3-[4-[(4-fluorophenyl)-oxomethyl]-1-piperidinyl]propyl]-1-methyl-5-oxo-N-phenyl-3-pyrrolidinecarboxamide
> <PUBCHEM_IUPAC_NAME_MARKUP>
<I>N</I>-[3-[4-(4-fluorobenzoyl)piperidin-1-yl]propyl]-1-methyl-5-oxo-<I>N</I>-phenylpyrrolidine-3-carboxamide
> <PUBCHEM_IUPAC_NAME>
N-[3-[4-(4-fluorobenzoyl)piperidin-1-yl]propyl]-1-methyl-5-oxo-N-phenylpyrrolidine-3-carboxamide
> <PUBCHEM_IUPAC_SYSTEMATIC_NAME>
N-[3-[4-(4-fluorophenyl)carbonylpiperidin-1-yl]propyl]-1-methyl-5-oxidanylidene-N-phenyl-pyrrolidine-3-carboxamide
> <PUBCHEM_IUPAC_TRADITIONAL_NAME>
N-[3-[4-(4-fluorobenzoyl)piperidino]propyl]-5-keto-1-methyl-N-phenyl-pyrrolidine-3-carboxamide
> <PUBCHEM_IUPAC_INCHI>
InChI=1S/C27H32FN3O3/c1-29-19-22(18-25(29)32)27(34)31(24-6-3-2-4-7-24)15-5-14-30-16-12-21(13-17-30)26(33)20-8-10-23(28)11-9-20/h2-4,6-11,21-22H,5,12-19H2,1H3
> <PUBCHEM_IUPAC_INCHIKEY>
OFTNWUUCOLONDQ-UHFFFAOYSA-N
> <PUBCHEM_XLOGP3_AA>
2.8
> <PUBCHEM_EXACT_MASS>
465.24277005
> <PUBCHEM_MOLECULAR_FORMULA>
C27H32FN3O3
> <PUBCHEM_MOLECULAR_WEIGHT>
465.6
> <PUBCHEM_OPENEYE_CAN_SMILES>
CN1CC(CC1=O)C(=O)N(CCCN2CCC(CC2)C(=O)C3=CC=C(C=C3)F)C4=CC=CC=C4
> <PUBCHEM_OPENEYE_ISO_SMILES>
CN1CC(CC1=O)C(=O)N(CCCN2CCC(CC2)C(=O)C3=CC=C(C=C3)F)C4=CC=CC=C4
> <PUBCHEM_CACTVS_TPSA>
60.9
> <PUBCHEM_MONOISOTOPIC_WEIGHT>
465.24277005
> <PUBCHEM_TOTAL_CHARGE>
0
> <PUBCHEM_HEAVY_ATOM_COUNT>
34
> <PUBCHEM_ATOM_DEF_STEREO_COUNT>
0
> <PUBCHEM_ATOM_UDEF_STEREO_COUNT>
1
> <PUBCHEM_BOND_DEF_STEREO_COUNT>
0
> <PUBCHEM_BOND_UDEF_STEREO_COUNT>
0
> <PUBCHEM_ISOTOPIC_ATOM_COUNT>
0
> <PUBCHEM_COMPONENT_COUNT>
1
> <PUBCHEM_CACTVS_TAUTO_COUNT>
-1
> <PUBCHEM_COORDINATE_TYPE>
1
5
255
> <PUBCHEM_BONDANNOTATIONS>
15  20  3
22  25  8
22  26  8
23  27  8
23  28  8
25  29  8
26  30  8
27  31  8
28  32  8
29  33  8
30  33  8
31  34  8
32  34  8
$$$$
