514983
  -OEChem-10302200282D
 74 78  0     1  0  0  0  0  0999 V2000
    5.4432   -4.2500    0.0000 O   0  0  0  0  0  0  0  0  0  0  0  0
    2.0000   -2.5181    0.0000 O   0  0  0  0  0  0  0  0  0  0  0  0
    8.0413    0.2500    0.0000 N   0  0  0  0  0  0  0  0  0  0  0  0
    6.3092   -2.7500    0.0000 N   0  0  0  0  0  0  0  0  0  0  0  0
    3.4945   -1.5476    0.0000 N   0  0  0  0  0  0  0  0  0  0  0  0
    9.7734    1.2500    0.0000 C   0  0  0  0  0  0  0  0  0  0  0  0
    9.7734    0.2500    0.0000 C   0  0  0  0  0  0  0  0  0  0  0  0
    8.9073    1.7500    0.0000 C   0  0  0  0  0  0  0  0  0  0  0  0
    8.9073   -0.2500    0.0000 C   0  0  0  0  0  0  0  0  0  0  0  0
    8.0413    1.2500    0.0000 C   0  0  0  0  0  0  0  0  0  0  0  0
    7.1753   -0.2500    0.0000 C   0  0  0  0  0  0  0  0  0  0  0  0
   10.6394    1.7500    0.0000 C   0  0  0  0  0  0  0  0  0  0  0  0
    7.1753   -1.2500    0.0000 C   0  0  0  0  0  0  0  0  0  0  0  0
    6.3092   -1.7500    0.0000 C   0  0  0  0  0  0  0  0  0  0  0  0
    4.5772   -2.7500    0.0000 C   0  0  3  0  0  0  0  0  0  0  0  0
   10.6394    2.7500    0.0000 C   0  0  0  0  0  0  0  0  0  0  0  0
    4.4727   -1.7555    0.0000 C   0  0  0  0  0  0  0  0  0  0  0  0
    5.4432   -3.2500    0.0000 C   0  0  0  0  0  0  0  0  0  0  0  0
    3.6636   -3.1567    0.0000 C   0  0  0  0  0  0  0  0  0  0  0  0
    7.1753   -3.2500    0.0000 C   0  0  0  0  0  0  0  0  0  0  0  0
    8.9073   -3.2500    0.0000 C   0  0  0  0  0  0  0  0  0  0  0  0
    8.9073   -4.2500    0.0000 C   0  0  0  0  0  0  0  0  0  0  0  0
    9.8536   -2.9453    0.0000 C   0  0  0  0  0  0  0  0  0  0  0  0
    9.8536   -4.5547    0.0000 C   0  0  0  0  0  0  0  0  0  0  0  0
   10.4372   -3.7500    0.0000 C   0  0  0  0  0  0  0  0  0  0  0  0
    2.9945   -2.4136    0.0000 C   0  0  0  0  0  0  0  0  0  0  0  0
    8.0413   -2.7500    0.0000 C   0  0  0  0  0  0  0  0  0  0  0  0
    7.1753   -4.2500    0.0000 C   0  0  0  0  0  0  0  0  0  0  0  0
    8.0413   -4.7500    0.0000 C   0  0  0  0  0  0  0  0  0  0  0  0
    9.7734    3.2500    0.0000 C   0  0  0  0  0  0  0  0  0  0  0  0
   11.5054    3.2500    0.0000 C   0  0  0  0  0  0  0  0  0  0  0  0
    3.0878   -0.6340    0.0000 C   0  0  0  0  0  0  0  0  0  0  0  0
    9.7734    4.2500    0.0000 C   0  0  0  0  0  0  0  0  0  0  0  0
   11.5054    4.2500    0.0000 C   0  0  0  0  0  0  0  0  0  0  0  0
   10.6394    4.7500    0.0000 C   0  0  0  0  0  0  0  0  0  0  0  0
   10.3103    0.9400    0.0000 H   0  0  0  0  0  0  0  0  0  0  0  0
    9.9854   -0.3326    0.0000 H   0  0  0  0  0  0  0  0  0  0  0  0
   10.3839    0.3577    0.0000 H   0  0  0  0  0  0  0  0  0  0  0  0
    9.3058    2.2250    0.0000 H   0  0  0  0  0  0  0  0  0  0  0  0
    8.5088    2.2250    0.0000 H   0  0  0  0  0  0  0  0  0  0  0  0
    8.5088   -0.7249    0.0000 H   0  0  0  0  0  0  0  0  0  0  0  0
    9.3058   -0.7249    0.0000 H   0  0  0  0  0  0  0  0  0  0  0  0
    7.8292    1.8326    0.0000 H   0  0  0  0  0  0  0  0  0  0  0  0
    7.4307    1.1423    0.0000 H   0  0  0  0  0  0  0  0  0  0  0  0
    6.9632    0.3326    0.0000 H   0  0  0  0  0  0  0  0  0  0  0  0
    6.5647   -0.3577    0.0000 H   0  0  0  0  0  0  0  0  0  0  0  0
   10.8514    1.1674    0.0000 H   0  0  0  0  0  0  0  0  0  0  0  0
   11.2500    1.8577    0.0000 H   0  0  0  0  0  0  0  0  0  0  0  0
    7.3873   -1.8326    0.0000 H   0  0  0  0  0  0  0  0  0  0  0  0
    7.7859   -1.1423    0.0000 H   0  0  0  0  0  0  0  0  0  0  0  0
    6.0972   -1.1674    0.0000 H   0  0  0  0  0  0  0  0  0  0  0  0
    5.6987   -1.8577    0.0000 H   0  0  0  0  0  0  0  0  0  0  0  0
    4.5447   -3.3692    0.0000 H   0  0  0  0  0  0  0  0  0  0  0  0
    5.0927   -1.7555    0.0000 H   0  0  0  0  0  0  0  0  0  0  0  0
    4.5375   -1.1389    0.0000 H   0  0  0  0  0  0  0  0  0  0  0  0
    3.1621   -3.5212    0.0000 H   0  0  0  0  0  0  0  0  0  0  0  0
    3.9736   -3.6937    0.0000 H   0  0  0  0  0  0  0  0  0  0  0  0
   10.3909   -2.6360    0.0000 H   0  0  0  0  0  0  0  0  0  0  0  0
    9.6025   -2.3784    0.0000 H   0  0  0  0  0  0  0  0  0  0  0  0
    9.6025   -5.1216    0.0000 H   0  0  0  0  0  0  0  0  0  0  0  0
   10.3909   -4.8640    0.0000 H   0  0  0  0  0  0  0  0  0  0  0  0
   10.8980   -4.1647    0.0000 H   0  0  0  0  0  0  0  0  0  0  0  0
   10.8980   -3.3353    0.0000 H   0  0  0  0  0  0  0  0  0  0  0  0
    8.0413   -2.1300    0.0000 H   0  0  0  0  0  0  0  0  0  0  0  0
    6.6383   -4.5600    0.0000 H   0  0  0  0  0  0  0  0  0  0  0  0
    8.0413   -5.3700    0.0000 H   0  0  0  0  0  0  0  0  0  0  0  0
    9.2364    2.9400    0.0000 H   0  0  0  0  0  0  0  0  0  0  0  0
   12.0423    2.9400    0.0000 H   0  0  0  0  0  0  0  0  0  0  0  0
    3.6542   -0.3818    0.0000 H   0  0  0  0  0  0  0  0  0  0  0  0
    2.8356   -0.0676    0.0000 H   0  0  0  0  0  0  0  0  0  0  0  0
    2.5214   -0.8862    0.0000 H   0  0  0  0  0  0  0  0  0  0  0  0
    9.2364    4.5600    0.0000 H   0  0  0  0  0  0  0  0  0  0  0  0
   12.0423    4.5600    0.0000 H   0  0  0  0  0  0  0  0  0  0  0  0
   10.6394    5.3700    0.0000 H   0  0  0  0  0  0  0  0  0  0  0  0
  1 18  2  0  0  0  0
  2 26  2  0  0  0  0
  3  9  1  0  0  0  0
  3 10  1  0  0  0  0
  3 11  1  0  0  0  0
  4 14  1  0  0  0  0
  4 18  1  0  0  0  0
  4 20  1  0  0  0  0
  5 17  1  0  0  0  0
  5 26  1  0  0  0  0
  5 32  1  0  0  0  0
  6  7  1  0  0  0  0
  6  8  1  0  0  0  0
  6 12  1  0  0  0  0
  6 36  1  0  0  0  0
  7  9  1  0  0  0  0
  7 37  1  0  0  0  0
  7 38  1  0  0  0  0
  8 10  1  0  0  0  0
  8 39  1  0  0  0  0
  8 40  1  0  0  0  0
  9 41  1  0  0  0  0
  9 42  1  0  0  0  0
 10 43  1  0  0  0  0
 10 44  1  0  0  0  0
 11 13  1  0  0  0  0
 11 45  1  0  0  0  0
 11 46  1  0  0  0  0
 12 16  1  0  0  0  0
 12 47  1  0  0  0  0
 12 48  1  0  0  0  0
 13 14  1  0  0  0  0
 13 49  1  0  0  0  0
 13 50  1  0  0  0  0
 14 51  1  0  0  0  0
 14 52  1  0  0  0  0
 15 17  1  0  0  0  0
 15 18  1  0  0  0  0
 15 19  1  0  0  0  0
 15 53  1  0  0  0  0
 16 30  2  0  0  0  0
 16 31  1  0  0  0  0
 17 54  1  0  0  0  0
 17 55  1  0  0  0  0
 19 26  1  0  0  0  0
 19 56  1  0  0  0  0
 19 57  1  0  0  0  0
 20 27  2  0  0  0  0
 20 28  1  0  0  0  0
 21 22  2  0  0  0  0
 21 23  1  0  0  0  0
 21 27  1  0  0  0  0
 22 24  1  0  0  0  0
 22 29  1  0  0  0  0
 23 25  1  0  0  0  0
 23 58  1  0  0  0  0
 23 59  1  0  0  0  0
 24 25  1  0  0  0  0
 24 60  1  0  0  0  0
 24 61  1  0  0  0  0
 25 62  1  0  0  0  0
 25 63  1  0  0  0  0
 27 64  1  0  0  0  0
 28 29  2  0  0  0  0
 28 65  1  0  0  0  0
 29 66  1  0  0  0  0
 30 33  1  0  0  0  0
 30 67  1  0  0  0  0
 31 34  2  0  0  0  0
 31 68  1  0  0  0  0
 32 69  1  0  0  0  0
 32 70  1  0  0  0  0
 32 71  1  0  0  0  0
 33 35  2  0  0  0  0
 33 72  1  0  0  0  0
 34 35  1  0  0  0  0
 34 73  1  0  0  0  0
 35 74  1  0  0  0  0
M  END
> <PUBCHEM_COMPOUND_CID>
514983
> <PUBCHEM_COMPOUND_CANONICALIZED>
1
> <PUBCHEM_CACTVS_COMPLEXITY>
712
> <PUBCHEM_CACTVS_HBOND_ACCEPTOR>
3
> <PUBCHEM_CACTVS_HBOND_DONOR>
0
> <PUBCHEM_CACTVS_ROTATABLE_BOND>
8
> <PUBCHEM_CACTVS_SUBSKEYS>
AAADcfB7MAAAAAAAAAAAAAAAAAAAAeIAAAA8YIAAAAAAAGABQAAAHgAAAAAADQjBmAQywIMAAACIAiVSUACCAAAhAgAIiAEIZIgIIDrA0ZGEIAhghgDIyAcVgMAOiAAAQAAQAAAQAACAACAAAAAACAAAAA==
> <PUBCHEM_IUPAC_OPENEYE_NAME>
N-[3-(4-benzyl-1-piperidyl)propyl]-N-indan-5-yl-1-methyl-5-oxo-pyrrolidine-3-carboxamide
> <PUBCHEM_IUPAC_CAS_NAME>
N-(2,3-dihydro-1H-inden-5-yl)-1-methyl-5-oxo-N-[3-[4-(phenylmethyl)-1-piperidinyl]propyl]-3-pyrrolidinecarboxamide
> <PUBCHEM_IUPAC_NAME_MARKUP>
<I>N</I>-[3-(4-benzylpiperidin-1-yl)propyl]-<I>N</I>-(2,3-dihydro-1<I>H</I>-inden-5-yl)-1-methyl-5-oxopyrrolidine-3-carboxamide
> <PUBCHEM_IUPAC_NAME>
N-[3-(4-benzylpiperidin-1-yl)propyl]-N-(2,3-dihydro-1H-inden-5-yl)-1-methyl-5-oxopyrrolidine-3-carboxamide
> <PUBCHEM_IUPAC_SYSTEMATIC_NAME>
N-(2,3-dihydro-1H-inden-5-yl)-1-methyl-5-oxidanylidene-N-[3-[4-(phenylmethyl)piperidin-1-yl]propyl]pyrrolidine-3-carboxamide
> <PUBCHEM_IUPAC_TRADITIONAL_NAME>
N-[3-(4-benzylpiperidino)propyl]-N-indan-5-yl-5-keto-1-methyl-pyrrolidine-3-carboxamide
> <PUBCHEM_IUPAC_INCHI>
InChI=1S/C30H39N3O2/c1-31-22-27(21-29(31)34)30(35)33(28-12-11-25-9-5-10-26(25)20-28)16-6-15-32-17-13-24(14-18-32)19-23-7-3-2-4-8-23/h2-4,7-8,11-12,20,24,27H,5-6,9-10,13-19,21-22H2,1H3
> <PUBCHEM_IUPAC_INCHIKEY>
MSNFAJGQMGFTCB-UHFFFAOYSA-N
> <PUBCHEM_XLOGP3_AA>
4.4
> <PUBCHEM_EXACT_MASS>
473.30422750
> <PUBCHEM_MOLECULAR_FORMULA>
C30H39N3O2
> <PUBCHEM_MOLECULAR_WEIGHT>
473.6
> <PUBCHEM_OPENEYE_CAN_SMILES>
CN1CC(CC1=O)C(=O)N(CCCN2CCC(CC2)CC3=CC=CC=C3)C4=CC5=C(CCC5)C=C4
> <PUBCHEM_OPENEYE_ISO_SMILES>
CN1CC(CC1=O)C(=O)N(CCCN2CCC(CC2)CC3=CC=CC=C3)C4=CC5=C(CCC5)C=C4
> <PUBCHEM_CACTVS_TPSA>
43.9
> <PUBCHEM_MONOISOTOPIC_WEIGHT>
473.30422750
> <PUBCHEM_TOTAL_CHARGE>
0
> <PUBCHEM_HEAVY_ATOM_COUNT>
35
> <PUBCHEM_ATOM_DEF_STEREO_COUNT>
0
> <PUBCHEM_ATOM_UDEF_STEREO_COUNT>
1
> <PUBCHEM_BOND_DEF_STEREO_COUNT>
0
> <PUBCHEM_BOND_UDEF_STEREO_COUNT>
0
> <PUBCHEM_ISOTOPIC_ATOM_COUNT>
0
> <PUBCHEM_COMPONENT_COUNT>
1
> <PUBCHEM_CACTVS_TAUTO_COUNT>
-1
> <PUBCHEM_COORDINATE_TYPE>
1
5
255
> <PUBCHEM_BONDANNOTATIONS>
15  18  3
16  30  8
16  31  8
20  27  8
20  28  8
21  22  8
21  27  8
22  29  8
28  29  8
30  33  8
31  34  8
33  35  8
34  35  8
$$$$
