514975
  -OEChem-10302200282D
 70 73  0     1  0  0  0  0  0999 V2000
    5.4432   -1.7500    0.0000 O   0  0  0  0  0  0  0  0  0  0  0  0
    3.0878   -5.3660    0.0000 O   0  0  0  0  0  0  0  0  0  0  0  0
    8.0413   -0.2500    0.0000 N   0  0  0  0  0  0  0  0  0  0  0  0
    6.3092   -3.2500    0.0000 N   0  0  0  0  0  0  0  0  0  0  0  0
    2.9945   -3.5864    0.0000 N   0  0  0  0  0  0  0  0  0  0  0  0
    8.0413    1.7500    0.0000 C   0  0  0  0  0  0  0  0  0  0  0  0
    7.1753    1.2500    0.0000 C   0  0  0  0  0  0  0  0  0  0  0  0
    8.9073    1.2500    0.0000 C   0  0  0  0  0  0  0  0  0  0  0  0
    7.1753    0.2500    0.0000 C   0  0  0  0  0  0  0  0  0  0  0  0
    8.9073    0.2500    0.0000 C   0  0  0  0  0  0  0  0  0  0  0  0
    8.0413    2.7500    0.0000 C   0  0  0  0  0  0  0  0  0  0  0  0
    8.0413   -1.2500    0.0000 C   0  0  0  0  0  0  0  0  0  0  0  0
    7.1753   -1.7500    0.0000 C   0  0  0  0  0  0  0  0  0  0  0  0
    8.9073    3.2500    0.0000 C   0  0  0  0  0  0  0  0  0  0  0  0
    7.1753   -2.7500    0.0000 C   0  0  0  0  0  0  0  0  0  0  0  0
    4.5772   -3.2500    0.0000 C   0  0  3  0  0  0  0  0  0  0  0  0
    3.6636   -2.8433    0.0000 C   0  0  0  0  0  0  0  0  0  0  0  0
    4.4727   -4.2445    0.0000 C   0  0  0  0  0  0  0  0  0  0  0  0
    5.4432   -2.7500    0.0000 C   0  0  0  0  0  0  0  0  0  0  0  0
    8.9073    4.2500    0.0000 C   0  0  0  0  0  0  0  0  0  0  0  0
    3.4945   -4.4524    0.0000 C   0  0  0  0  0  0  0  0  0  0  0  0
    6.3092   -4.2500    0.0000 C   0  0  0  0  0  0  0  0  0  0  0  0
    9.7734    4.7500    0.0000 C   0  0  0  0  0  0  0  0  0  0  0  0
    8.0413    4.7500    0.0000 C   0  0  0  0  0  0  0  0  0  0  0  0
    2.0000   -3.4819    0.0000 C   0  0  0  0  0  0  0  0  0  0  0  0
    5.4432   -4.7500    0.0000 C   0  0  0  0  0  0  0  0  0  0  0  0
    7.1753   -4.7500    0.0000 C   0  0  0  0  0  0  0  0  0  0  0  0
    9.7734    5.7500    0.0000 C   0  0  0  0  0  0  0  0  0  0  0  0
    8.0413    5.7500    0.0000 C   0  0  0  0  0  0  0  0  0  0  0  0
    8.9073    6.2500    0.0000 C   0  0  0  0  0  0  0  0  0  0  0  0
    5.4432   -5.7500    0.0000 C   0  0  0  0  0  0  0  0  0  0  0  0
    7.1753   -5.7500    0.0000 C   0  0  0  0  0  0  0  0  0  0  0  0
    6.3092   -6.2500    0.0000 C   0  0  0  0  0  0  0  0  0  0  0  0
    8.5782    2.0600    0.0000 H   0  0  0  0  0  0  0  0  0  0  0  0
    6.9632    1.8326    0.0000 H   0  0  0  0  0  0  0  0  0  0  0  0
    6.5647    1.1423    0.0000 H   0  0  0  0  0  0  0  0  0  0  0  0
    9.5179    1.1423    0.0000 H   0  0  0  0  0  0  0  0  0  0  0  0
    9.1194    1.8326    0.0000 H   0  0  0  0  0  0  0  0  0  0  0  0
    6.5647    0.3577    0.0000 H   0  0  0  0  0  0  0  0  0  0  0  0
    6.9632   -0.3326    0.0000 H   0  0  0  0  0  0  0  0  0  0  0  0
    9.1194   -0.3326    0.0000 H   0  0  0  0  0  0  0  0  0  0  0  0
    9.5179    0.3577    0.0000 H   0  0  0  0  0  0  0  0  0  0  0  0
    7.8292    3.3326    0.0000 H   0  0  0  0  0  0  0  0  0  0  0  0
    7.4307    2.6423    0.0000 H   0  0  0  0  0  0  0  0  0  0  0  0
    8.2534   -1.8326    0.0000 H   0  0  0  0  0  0  0  0  0  0  0  0
    8.6519   -1.1423    0.0000 H   0  0  0  0  0  0  0  0  0  0  0  0
    6.9632   -1.1674    0.0000 H   0  0  0  0  0  0  0  0  0  0  0  0
    6.5647   -1.8577    0.0000 H   0  0  0  0  0  0  0  0  0  0  0  0
    9.1194    2.6674    0.0000 H   0  0  0  0  0  0  0  0  0  0  0  0
    9.5179    3.3577    0.0000 H   0  0  0  0  0  0  0  0  0  0  0  0
    7.3873   -3.3326    0.0000 H   0  0  0  0  0  0  0  0  0  0  0  0
    7.7859   -2.6423    0.0000 H   0  0  0  0  0  0  0  0  0  0  0  0
    4.5447   -2.6308    0.0000 H   0  0  0  0  0  0  0  0  0  0  0  0
    3.9736   -2.3063    0.0000 H   0  0  0  0  0  0  0  0  0  0  0  0
    3.1621   -2.4788    0.0000 H   0  0  0  0  0  0  0  0  0  0  0  0
    4.5375   -4.8611    0.0000 H   0  0  0  0  0  0  0  0  0  0  0  0
    5.0927   -4.2445    0.0000 H   0  0  0  0  0  0  0  0  0  0  0  0
    2.0648   -2.8653    0.0000 H   0  0  0  0  0  0  0  0  0  0  0  0
    1.3834   -3.4171    0.0000 H   0  0  0  0  0  0  0  0  0  0  0  0
    1.9352   -4.0985    0.0000 H   0  0  0  0  0  0  0  0  0  0  0  0
   10.3103    4.4400    0.0000 H   0  0  0  0  0  0  0  0  0  0  0  0
    7.5044    4.4400    0.0000 H   0  0  0  0  0  0  0  0  0  0  0  0
    4.9063   -4.4400    0.0000 H   0  0  0  0  0  0  0  0  0  0  0  0
    7.7122   -4.4400    0.0000 H   0  0  0  0  0  0  0  0  0  0  0  0
   10.3103    6.0600    0.0000 H   0  0  0  0  0  0  0  0  0  0  0  0
    7.5044    6.0600    0.0000 H   0  0  0  0  0  0  0  0  0  0  0  0
    8.9073    6.8700    0.0000 H   0  0  0  0  0  0  0  0  0  0  0  0
    4.9063   -6.0600    0.0000 H   0  0  0  0  0  0  0  0  0  0  0  0
    7.7122   -6.0600    0.0000 H   0  0  0  0  0  0  0  0  0  0  0  0
    6.3092   -6.8700    0.0000 H   0  0  0  0  0  0  0  0  0  0  0  0
  1 19  2  0  0  0  0
  2 21  2  0  0  0  0
  3  9  1  0  0  0  0
  3 10  1  0  0  0  0
  3 12  1  0  0  0  0
  4 15  1  0  0  0  0
  4 19  1  0  0  0  0
  4 22  1  0  0  0  0
  5 17  1  0  0  0  0
  5 21  1  0  0  0  0
  5 25  1  0  0  0  0
  6  7  1  0  0  0  0
  6  8  1  0  0  0  0
  6 11  1  0  0  0  0
  6 34  1  0  0  0  0
  7  9  1  0  0  0  0
  7 35  1  0  0  0  0
  7 36  1  0  0  0  0
  8 10  1  0  0  0  0
  8 37  1  0  0  0  0
  8 38  1  0  0  0  0
  9 39  1  0  0  0  0
  9 40  1  0  0  0  0
 10 41  1  0  0  0  0
 10 42  1  0  0  0  0
 11 14  1  0  0  0  0
 11 43  1  0  0  0  0
 11 44  1  0  0  0  0
 12 13  1  0  0  0  0
 12 45  1  0  0  0  0
 12 46  1  0  0  0  0
 13 15  1  0  0  0  0
 13 47  1  0  0  0  0
 13 48  1  0  0  0  0
 14 20  1  0  0  0  0
 14 49  1  0  0  0  0
 14 50  1  0  0  0  0
 15 51  1  0  0  0  0
 15 52  1  0  0  0  0
 16 17  1  0  0  0  0
 16 18  1  0  0  0  0
 16 19  1  0  0  0  0
 16 53  1  0  0  0  0
 17 54  1  0  0  0  0
 17 55  1  0  0  0  0
 18 21  1  0  0  0  0
 18 56  1  0  0  0  0
 18 57  1  0  0  0  0
 20 23  2  0  0  0  0
 20 24  1  0  0  0  0
 22 26  2  0  0  0  0
 22 27  1  0  0  0  0
 23 28  1  0  0  0  0
 23 61  1  0  0  0  0
 24 29  2  0  0  0  0
 24 62  1  0  0  0  0
 25 58  1  0  0  0  0
 25 59  1  0  0  0  0
 25 60  1  0  0  0  0
 26 31  1  0  0  0  0
 26 63  1  0  0  0  0
 27 32  2  0  0  0  0
 27 64  1  0  0  0  0
 28 30  2  0  0  0  0
 28 65  1  0  0  0  0
 29 30  1  0  0  0  0
 29 66  1  0  0  0  0
 30 67  1  0  0  0  0
 31 33  2  0  0  0  0
 31 68  1  0  0  0  0
 32 33  1  0  0  0  0
 32 69  1  0  0  0  0
 33 70  1  0  0  0  0
M  END
> <PUBCHEM_COMPOUND_CID>
514975
> <PUBCHEM_COMPOUND_CANONICALIZED>
1
> <PUBCHEM_CACTVS_COMPLEXITY>
619
> <PUBCHEM_CACTVS_HBOND_ACCEPTOR>
3
> <PUBCHEM_CACTVS_HBOND_DONOR>
0
> <PUBCHEM_CACTVS_ROTATABLE_BOND>
9
> <PUBCHEM_CACTVS_SUBSKEYS>
AAADcfB7MAAAAAAAAAAAAAAAAAAAAWAAAAA8YIAAAAAAAAABQAAAHgAAAAAADQjBmAQywIMAAACIAiVSUACCAAAhAgAIiAEIZIgIIDrA0ZGEIAhghgDIyAcVgMAOAAAAAAAAAAAAAAAAAAAAAAAAAAAAAA==
> <PUBCHEM_IUPAC_OPENEYE_NAME>
1-methyl-5-oxo-N-phenyl-N-[3-[4-(2-phenylethyl)-1-piperidyl]propyl]pyrrolidine-3-carboxamide
> <PUBCHEM_IUPAC_CAS_NAME>
1-methyl-5-oxo-N-phenyl-N-[3-[4-(2-phenylethyl)-1-piperidinyl]propyl]-3-pyrrolidinecarboxamide
> <PUBCHEM_IUPAC_NAME_MARKUP>
1-methyl-5-oxo-<I>N</I>-phenyl-<I>N</I>-[3-[4-(2-phenylethyl)piperidin-1-yl]propyl]pyrrolidine-3-carboxamide
> <PUBCHEM_IUPAC_NAME>
1-methyl-5-oxo-N-phenyl-N-[3-[4-(2-phenylethyl)piperidin-1-yl]propyl]pyrrolidine-3-carboxamide
> <PUBCHEM_IUPAC_SYSTEMATIC_NAME>
1-methyl-5-oxidanylidene-N-phenyl-N-[3-[4-(2-phenylethyl)piperidin-1-yl]propyl]pyrrolidine-3-carboxamide
> <PUBCHEM_IUPAC_TRADITIONAL_NAME>
5-keto-1-methyl-N-[3-(4-phenethylpiperidino)propyl]-N-phenyl-pyrrolidine-3-carboxamide
> <PUBCHEM_IUPAC_INCHI>
InChI=1S/C28H37N3O2/c1-29-22-25(21-27(29)32)28(33)31(26-11-6-3-7-12-26)18-8-17-30-19-15-24(16-20-30)14-13-23-9-4-2-5-10-23/h2-7,9-12,24-25H,8,13-22H2,1H3
> <PUBCHEM_IUPAC_INCHIKEY>
MFGVOEPJLDRNKD-UHFFFAOYSA-N
> <PUBCHEM_XLOGP3_AA>
4.1
> <PUBCHEM_EXACT_MASS>
447.28857743
> <PUBCHEM_MOLECULAR_FORMULA>
C28H37N3O2
> <PUBCHEM_MOLECULAR_WEIGHT>
447.6
> <PUBCHEM_OPENEYE_CAN_SMILES>
CN1CC(CC1=O)C(=O)N(CCCN2CCC(CC2)CCC3=CC=CC=C3)C4=CC=CC=C4
> <PUBCHEM_OPENEYE_ISO_SMILES>
CN1CC(CC1=O)C(=O)N(CCCN2CCC(CC2)CCC3=CC=CC=C3)C4=CC=CC=C4
> <PUBCHEM_CACTVS_TPSA>
43.9
> <PUBCHEM_MONOISOTOPIC_WEIGHT>
447.28857743
> <PUBCHEM_TOTAL_CHARGE>
0
> <PUBCHEM_HEAVY_ATOM_COUNT>
33
> <PUBCHEM_ATOM_DEF_STEREO_COUNT>
0
> <PUBCHEM_ATOM_UDEF_STEREO_COUNT>
1
> <PUBCHEM_BOND_DEF_STEREO_COUNT>
0
> <PUBCHEM_BOND_UDEF_STEREO_COUNT>
0
> <PUBCHEM_ISOTOPIC_ATOM_COUNT>
0
> <PUBCHEM_COMPONENT_COUNT>
1
> <PUBCHEM_CACTVS_TAUTO_COUNT>
-1
> <PUBCHEM_COORDINATE_TYPE>
1
5
255
> <PUBCHEM_BONDANNOTATIONS>
16  19  3
20  23  8
20  24  8
22  26  8
22  27  8
23  28  8
24  29  8
26  31  8
27  32  8
28  30  8
29  30  8
31  33  8
32  33  8
$$$$
