514902
  -OEChem-10302200282D
 34 36  0     1  0  0  0  0  0999 V2000
    2.0000   -0.2621    0.0000 Cl  0  0  0  0  0  0  0  0  0  0  0  0
    2.0000   -2.2621    0.0000 Cl  0  0  0  0  0  0  0  0  0  0  0  0
    9.8602    1.2621    0.0000 S   0  0  3  0  0  0  0  0  0  0  0  0
    6.3301   -0.7621    0.0000 O   0  0  0  0  0  0  0  0  0  0  0  0
    9.8564    2.2621    0.0000 O   0  0  0  0  0  0  0  0  0  0  0  0
    8.0901   -0.7967    0.0000 N   0  0  0  0  0  0  0  0  0  0  0  0
    5.4641   -0.2621    0.0000 C   0  0  3  0  0  0  0  0  0  0  0  0
    5.4641    0.7379    0.0000 C   0  0  0  0  0  0  0  0  0  0  0  0
    6.3301    1.2379    0.0000 C   0  0  0  0  0  0  0  0  0  0  0  0
    7.1962    0.7379    0.0000 C   0  0  0  0  0  0  0  0  0  0  0  0
    4.5981   -0.7621    0.0000 C   0  0  0  0  0  0  0  0  0  0  0  0
    7.1962   -0.2621    0.0000 C   0  0  0  0  0  0  0  0  0  0  0  0
    8.0901    1.2726    0.0000 C   0  0  0  0  0  0  0  0  0  0  0  0
    3.7320   -0.2621    0.0000 C   0  0  0  0  0  0  0  0  0  0  0  0
    4.5981   -1.7621    0.0000 C   0  0  0  0  0  0  0  0  0  0  0  0
    8.9962    0.7587    0.0000 C   0  0  0  0  0  0  0  0  0  0  0  0
    8.9962   -0.2829    0.0000 C   0  0  0  0  0  0  0  0  0  0  0  0
    2.8660   -0.7621    0.0000 C   0  0  0  0  0  0  0  0  0  0  0  0
    3.7320   -2.2621    0.0000 C   0  0  0  0  0  0  0  0  0  0  0  0
    2.8660   -1.7621    0.0000 C   0  0  0  0  0  0  0  0  0  0  0  0
   10.7282    0.7654    0.0000 C   0  0  0  0  0  0  0  0  0  0  0  0
    5.4641   -0.8821    0.0000 H   0  0  0  0  0  0  0  0  0  0  0  0
    5.2520    1.3205    0.0000 H   0  0  0  0  0  0  0  0  0  0  0  0
    4.8535    0.6303    0.0000 H   0  0  0  0  0  0  0  0  0  0  0  0
    6.7287    1.7129    0.0000 H   0  0  0  0  0  0  0  0  0  0  0  0
    5.9316    1.7129    0.0000 H   0  0  0  0  0  0  0  0  0  0  0  0
    8.0829    1.8926    0.0000 H   0  0  0  0  0  0  0  0  0  0  0  0
    3.7320    0.3579    0.0000 H   0  0  0  0  0  0  0  0  0  0  0  0
    5.1350   -2.0721    0.0000 H   0  0  0  0  0  0  0  0  0  0  0  0
    9.5319   -0.5950    0.0000 H   0  0  0  0  0  0  0  0  0  0  0  0
    3.7320   -2.8821    0.0000 H   0  0  0  0  0  0  0  0  0  0  0  0
   10.4203    0.2273    0.0000 H   0  0  0  0  0  0  0  0  0  0  0  0
   11.2663    0.4575    0.0000 H   0  0  0  0  0  0  0  0  0  0  0  0
   11.0361    1.3036    0.0000 H   0  0  0  0  0  0  0  0  0  0  0  0
  1 18  1  0  0  0  0
  2 20  1  0  0  0  0
  3  5  2  0  0  0  0
  3 16  1  0  0  0  0
  3 21  1  0  0  0  0
  4  7  1  0  0  0  0
  4 12  1  0  0  0  0
  6 12  1  0  0  0  0
  6 17  2  0  0  0  0
  7  8  1  0  0  0  0
  7 11  1  0  0  0  0
  7 22  1  0  0  0  0
  8  9  1  0  0  0  0
  8 23  1  0  0  0  0
  8 24  1  0  0  0  0
  9 10  1  0  0  0  0
  9 25  1  0  0  0  0
  9 26  1  0  0  0  0
 10 12  2  0  0  0  0
 10 13  1  0  0  0  0
 11 14  2  0  0  0  0
 11 15  1  0  0  0  0
 13 16  2  0  0  0  0
 13 27  1  0  0  0  0
 14 18  1  0  0  0  0
 14 28  1  0  0  0  0
 15 19  2  0  0  0  0
 15 29  1  0  0  0  0
 16 17  1  0  0  0  0
 17 30  1  0  0  0  0
 18 20  2  0  0  0  0
 19 20  1  0  0  0  0
 19 31  1  0  0  0  0
 21 32  1  0  0  0  0
 21 33  1  0  0  0  0
 21 34  1  0  0  0  0
M  END
> <PUBCHEM_COMPOUND_CID>
514902
> <PUBCHEM_COMPOUND_CANONICALIZED>
1
> <PUBCHEM_CACTVS_COMPLEXITY>
398
> <PUBCHEM_CACTVS_HBOND_ACCEPTOR>
4
> <PUBCHEM_CACTVS_HBOND_DONOR>
0
> <PUBCHEM_CACTVS_ROTATABLE_BOND>
2
> <PUBCHEM_CACTVS_SUBSKEYS>
AAADccByMABGAAAAAAAAAAAAAAAAAAAAAAA8SIAAAAAAAACxwAAAHgYAAAAADBbh2ia+hZIIFAqgAjBnREDCiCAxLTAI2nwsTpgMJuLls5uOOCjkwBHI6AeQ0OIOBAAAIAAAAAQIAABAAAAACAAAAAAAAA==
> <PUBCHEM_IUPAC_OPENEYE_NAME>
2-(3,4-dichlorophenyl)-6-methylsulfinyl-3,4-dihydro-2H-pyrano[2,3-b]pyridine
> <PUBCHEM_IUPAC_CAS_NAME>
2-(3,4-dichlorophenyl)-6-methylsulfinyl-3,4-dihydro-2H-pyrano[2,3-b]pyridine
> <PUBCHEM_IUPAC_NAME_MARKUP>
2-(3,4-dichlorophenyl)-6-methylsulfinyl-3,4-dihydro-2<I>H</I>-pyrano[2,3-b]pyridine
> <PUBCHEM_IUPAC_NAME>
2-(3,4-dichlorophenyl)-6-methylsulfinyl-3,4-dihydro-2H-pyrano[2,3-b]pyridine
> <PUBCHEM_IUPAC_SYSTEMATIC_NAME>
2-(3,4-dichlorophenyl)-6-methylsulfinyl-3,4-dihydro-2H-pyrano[2,3-b]pyridine
> <PUBCHEM_IUPAC_TRADITIONAL_NAME>
2-(3,4-dichlorophenyl)-6-methylsulfinyl-3,4-dihydro-2H-pyrano[2,3-b]pyridine
> <PUBCHEM_IUPAC_INCHI>
InChI=1S/C15H13Cl2NO2S/c1-21(19)11-6-10-3-5-14(20-15(10)18-8-11)9-2-4-12(16)13(17)7-9/h2,4,6-8,14H,3,5H2,1H3
> <PUBCHEM_IUPAC_INCHIKEY>
MYBDTGDPCIIJEQ-UHFFFAOYSA-N
> <PUBCHEM_XLOGP3_AA>
3.5
> <PUBCHEM_EXACT_MASS>
341.0044052
> <PUBCHEM_MOLECULAR_FORMULA>
C15H13Cl2NO2S
> <PUBCHEM_MOLECULAR_WEIGHT>
342.2
> <PUBCHEM_OPENEYE_CAN_SMILES>
CS(=O)C1=CC2=C(N=C1)OC(CC2)C3=CC(=C(C=C3)Cl)Cl
> <PUBCHEM_OPENEYE_ISO_SMILES>
CS(=O)C1=CC2=C(N=C1)OC(CC2)C3=CC(=C(C=C3)Cl)Cl
> <PUBCHEM_CACTVS_TPSA>
58.4
> <PUBCHEM_MONOISOTOPIC_WEIGHT>
341.0044052
> <PUBCHEM_TOTAL_CHARGE>
0
> <PUBCHEM_HEAVY_ATOM_COUNT>
21
> <PUBCHEM_ATOM_DEF_STEREO_COUNT>
0
> <PUBCHEM_ATOM_UDEF_STEREO_COUNT>
2
> <PUBCHEM_BOND_DEF_STEREO_COUNT>
0
> <PUBCHEM_BOND_UDEF_STEREO_COUNT>
0
> <PUBCHEM_ISOTOPIC_ATOM_COUNT>
0
> <PUBCHEM_COMPONENT_COUNT>
1
> <PUBCHEM_CACTVS_TAUTO_COUNT>
1
> <PUBCHEM_COORDINATE_TYPE>
1
5
255
> <PUBCHEM_BONDANNOTATIONS>
10  12  8
10  13  8
11  14  8
11  15  8
13  16  8
14  18  8
15  19  8
16  17  8
18  20  8
19  20  8
3  21  3
6  12  8
6  17  8
7  11  3
$$$$
