514958
  -OEChem-10302200282D
 87 91  0     1  0  0  0  0  0999 V2000
    8.0622    0.7934    0.0000 S   0  0  0  0  0  0  0  0  0  0  0  0
    7.1665   -5.3874    0.0000 O   0  0  0  0  0  0  0  0  0  0  0  0
    5.8938   -6.7944    0.0000 O   0  0  0  0  0  0  0  0  0  0  0  0
    5.4641   -3.4386    0.0000 O   0  0  0  0  0  0  0  0  0  0  0  0
    7.1962   -0.7066    0.0000 O   0  0  0  0  0  0  0  0  0  0  0  0
    7.5622   -0.0726    0.0000 O   0  0  0  0  0  0  0  0  0  0  0  0
    8.5622    1.6594    0.0000 O   0  0  0  0  0  0  0  0  0  0  0  0
    6.9641   -2.5726    0.0000 O   0  0  0  0  0  0  0  0  0  0  0  0
   11.6065    0.5981    0.0000 O   0  0  0  0  0  0  0  0  0  0  0  0
   11.6065   -1.0113    0.0000 O   0  0  0  0  0  0  0  0  0  0  0  0
    7.1962    1.2934    0.0000 N   0  0  3  0  0  0  0  0  0  0  0  0
    5.4641   -1.7066    0.0000 N   0  0  0  0  0  0  0  0  0  0  0  0
    6.3301    6.2575    0.0000 N   0  0  0  0  0  0  0  0  0  0  0  0
    5.5574   -5.2182    0.0000 C   0  0  2  0  0  0  0  0  0  0  0  0
    6.3005   -5.8874    0.0000 C   0  0  1  0  0  0  0  0  0  0  0  0
    5.9641   -4.3047    0.0000 C   0  0  2  0  0  0  0  0  0  0  0  0
    4.6978   -5.7175    0.0000 C   0  0  0  0  0  0  0  0  0  0  0  0
    6.9586   -4.4092    0.0000 C   0  0  0  0  0  0  0  0  0  0  0  0
    4.9053   -6.6897    0.0000 C   0  0  0  0  0  0  0  0  0  0  0  0
    6.3301    2.7934    0.0000 C   0  0  0  0  0  0  0  0  0  0  0  0
    7.1962    2.2934    0.0000 C   0  0  0  0  0  0  0  0  0  0  0  0
    6.8301    3.6594    0.0000 C   0  0  0  0  0  0  0  0  0  0  0  0
    6.3301    0.7934    0.0000 C   0  0  0  0  0  0  0  0  0  0  0  0
    6.3301   -0.2066    0.0000 C   0  0  2  0  0  0  0  0  0  0  0  0
    5.4641   -0.7066    0.0000 C   0  0  2  0  0  0  0  0  0  0  0  0
    5.4641    3.2934    0.0000 C   0  0  0  0  0  0  0  0  0  0  0  0
    5.8301    1.9274    0.0000 C   0  0  0  0  0  0  0  0  0  0  0  0
    6.3301    4.5254    0.0000 C   0  0  0  0  0  0  0  0  0  0  0  0
    5.9641   -2.5726    0.0000 C   0  0  0  0  0  0  0  0  0  0  0  0
    4.5981   -0.2066    0.0000 C   0  0  0  0  0  0  0  0  0  0  0  0
    6.8301    5.3915    0.0000 C   0  0  0  0  0  0  0  0  0  0  0  0
    8.9282    0.2934    0.0000 C   0  0  0  0  0  0  0  0  0  0  0  0
    3.7320   -0.7066    0.0000 C   0  0  0  0  0  0  0  0  0  0  0  0
    9.7942    0.7934    0.0000 C   0  0  0  0  0  0  0  0  0  0  0  0
    8.9282   -0.7066    0.0000 C   0  0  0  0  0  0  0  0  0  0  0  0
    2.8660   -0.2066    0.0000 C   0  0  0  0  0  0  0  0  0  0  0  0
    3.7320   -1.7066    0.0000 C   0  0  0  0  0  0  0  0  0  0  0  0
   10.6603    0.2934    0.0000 C   0  0  0  0  0  0  0  0  0  0  0  0
    9.7942   -1.2066    0.0000 C   0  0  0  0  0  0  0  0  0  0  0  0
   10.6603   -0.7066    0.0000 C   0  0  0  0  0  0  0  0  0  0  0  0
    2.0000   -0.7066    0.0000 C   0  0  0  0  0  0  0  0  0  0  0  0
    2.8660   -2.2066    0.0000 C   0  0  0  0  0  0  0  0  0  0  0  0
    2.0000   -1.7066    0.0000 C   0  0  0  0  0  0  0  0  0  0  0  0
   12.1901   -0.2066    0.0000 C   0  0  0  0  0  0  0  0  0  0  0  0
    4.9250   -4.6503    0.0000 H   0  0  0  0  0  0  0  0  0  0  0  0
    6.9314   -6.4569    0.0000 H   0  0  0  0  0  0  0  0  0  0  0  0
    6.3018   -3.7847    0.0000 H   0  0  0  0  0  0  0  0  0  0  0  0
    4.4444   -5.1516    0.0000 H   0  0  0  0  0  0  0  0  0  0  0  0
    4.1084   -5.9099    0.0000 H   0  0  0  0  0  0  0  0  0  0  0  0
    7.5752   -4.3444    0.0000 H   0  0  0  0  0  0  0  0  0  0  0  0
    6.9586   -3.7892    0.0000 H   0  0  0  0  0  0  0  0  0  0  0  0
    4.2887   -6.7547    0.0000 H   0  0  0  0  0  0  0  0  0  0  0  0
    4.9051   -7.3097    0.0000 H   0  0  0  0  0  0  0  0  0  0  0  0
    7.8067    2.1857    0.0000 H   0  0  0  0  0  0  0  0  0  0  0  0
    7.4082    2.8760    0.0000 H   0  0  0  0  0  0  0  0  0  0  0  0
    7.3051    3.2609    0.0000 H   0  0  0  0  0  0  0  0  0  0  0  0
    7.3051    4.0580    0.0000 H   0  0  0  0  0  0  0  0  0  0  0  0
    6.1181    1.3760    0.0000 H   0  0  0  0  0  0  0  0  0  0  0  0
    5.7196    0.6857    0.0000 H   0  0  0  0  0  0  0  0  0  0  0  0
    6.8671    0.1034    0.0000 H   0  0  0  0  0  0  0  0  0  0  0  0
    6.0010   -1.0166    0.0000 H   0  0  0  0  0  0  0  0  0  0  0  0
    5.7741    3.8303    0.0000 H   0  0  0  0  0  0  0  0  0  0  0  0
    4.9272    3.6034    0.0000 H   0  0  0  0  0  0  0  0  0  0  0  0
    5.1541    2.7565    0.0000 H   0  0  0  0  0  0  0  0  0  0  0  0
    5.2932    2.2374    0.0000 H   0  0  0  0  0  0  0  0  0  0  0  0
    5.5201    1.3904    0.0000 H   0  0  0  0  0  0  0  0  0  0  0  0
    6.3671    1.6174    0.0000 H   0  0  0  0  0  0  0  0  0  0  0  0
    5.8552    4.9240    0.0000 H   0  0  0  0  0  0  0  0  0  0  0  0
    5.8552    4.1269    0.0000 H   0  0  0  0  0  0  0  0  0  0  0  0
    4.9272   -2.0166    0.0000 H   0  0  0  0  0  0  0  0  0  0  0  0
    4.9966    0.2683    0.0000 H   0  0  0  0  0  0  0  0  0  0  0  0
    4.1996    0.2683    0.0000 H   0  0  0  0  0  0  0  0  0  0  0  0
    7.3051    4.9930    0.0000 H   0  0  0  0  0  0  0  0  0  0  0  0
    7.3051    5.7900    0.0000 H   0  0  0  0  0  0  0  0  0  0  0  0
    7.5062   -1.2435    0.0000 H   0  0  0  0  0  0  0  0  0  0  0  0
    9.7942    1.4134    0.0000 H   0  0  0  0  0  0  0  0  0  0  0  0
    8.3913   -1.0166    0.0000 H   0  0  0  0  0  0  0  0  0  0  0  0
    6.6401    6.7944    0.0000 H   0  0  0  0  0  0  0  0  0  0  0  0
    5.7101    6.2575    0.0000 H   0  0  0  0  0  0  0  0  0  0  0  0
    2.8660    0.4134    0.0000 H   0  0  0  0  0  0  0  0  0  0  0  0
    4.2690   -2.0166    0.0000 H   0  0  0  0  0  0  0  0  0  0  0  0
    9.7942   -1.8266    0.0000 H   0  0  0  0  0  0  0  0  0  0  0  0
    1.4631   -0.3966    0.0000 H   0  0  0  0  0  0  0  0  0  0  0  0
    2.8660   -2.8266    0.0000 H   0  0  0  0  0  0  0  0  0  0  0  0
    1.4631   -2.0166    0.0000 H   0  0  0  0  0  0  0  0  0  0  0  0
   12.6510   -0.6213    0.0000 H   0  0  0  0  0  0  0  0  0  0  0  0
   12.6510    0.2081    0.0000 H   0  0  0  0  0  0  0  0  0  0  0  0
  1  6  2  0  0  0  0
  1  7  2  0  0  0  0
  1 11  1  0  0  0  0
  1 32  1  0  0  0  0
  2 15  1  0  0  0  0
  2 18  1  0  0  0  0
  3 15  1  0  0  0  0
  3 19  1  0  0  0  0
 16  4  1  1  0  0  0
  4 29  1  0  0  0  0
 24  5  1  1  0  0  0
  5 75  1  0  0  0  0
  8 29  2  0  0  0  0
  9 38  1  0  0  0  0
  9 44  1  0  0  0  0
 10 40  1  0  0  0  0
 10 44  1  0  0  0  0
 11 21  1  0  0  0  0
 11 23  1  0  0  0  0
 25 12  1  1  0  0  0
 12 29  1  0  0  0  0
 12 70  1  0  0  0  0
 13 31  1  0  0  0  0
 13 78  1  0  0  0  0
 13 79  1  0  0  0  0
 14 15  1  0  0  0  0
 14 16  1  0  0  0  0
 14 17  1  0  0  0  0
 14 45  1  6  0  0  0
 15 46  1  6  0  0  0
 16 18  1  0  0  0  0
 16 47  1  0  0  0  0
 17 19  1  0  0  0  0
 17 48  1  0  0  0  0
 17 49  1  0  0  0  0
 18 50  1  0  0  0  0
 18 51  1  0  0  0  0
 19 52  1  0  0  0  0
 19 53  1  0  0  0  0
 20 21  1  0  0  0  0
 20 22  1  0  0  0  0
 20 26  1  0  0  0  0
 20 27  1  0  0  0  0
 21 54  1  0  0  0  0
 21 55  1  0  0  0  0
 22 28  1  0  0  0  0
 22 56  1  0  0  0  0
 22 57  1  0  0  0  0
 23 24  1  0  0  0  0
 23 58  1  0  0  0  0
 23 59  1  0  0  0  0
 24 25  1  0  0  0  0
 24 60  1  0  0  0  0
 25 30  1  0  0  0  0
 25 61  1  0  0  0  0
 26 62  1  0  0  0  0
 26 63  1  0  0  0  0
 26 64  1  0  0  0  0
 27 65  1  0  0  0  0
 27 66  1  0  0  0  0
 27 67  1  0  0  0  0
 28 31  1  0  0  0  0
 28 68  1  0  0  0  0
 28 69  1  0  0  0  0
 30 33  1  0  0  0  0
 30 71  1  0  0  0  0
 30 72  1  0  0  0  0
 31 73  1  0  0  0  0
 31 74  1  0  0  0  0
 32 34  2  0  0  0  0
 32 35  1  0  0  0  0
 33 36  2  0  0  0  0
 33 37  1  0  0  0  0
 34 38  1  0  0  0  0
 34 76  1  0  0  0  0
 35 39  2  0  0  0  0
 35 77  1  0  0  0  0
 36 41  1  0  0  0  0
 36 80  1  0  0  0  0
 37 42  2  0  0  0  0
 37 81  1  0  0  0  0
 38 40  2  0  0  0  0
 39 40  1  0  0  0  0
 39 82  1  0  0  0  0
 41 43  2  0  0  0  0
 41 83  1  0  0  0  0
 42 43  1  0  0  0  0
 42 84  1  0  0  0  0
 43 85  1  0  0  0  0
 44 86  1  0  0  0  0
 44 87  1  0  0  0  0
M  END
> <PUBCHEM_COMPOUND_CID>
514958
> <PUBCHEM_COMPOUND_CANONICALIZED>
1
> <PUBCHEM_CACTVS_COMPLEXITY>
1030
> <PUBCHEM_CACTVS_HBOND_ACCEPTOR>
11
> <PUBCHEM_CACTVS_HBOND_DONOR>
3
> <PUBCHEM_CACTVS_ROTATABLE_BOND>
15
> <PUBCHEM_CACTVS_SUBSKEYS>
AAADcfB7PABAAAAAAAAAAAAAAAAAASJEgAAwYAAAAAASAEgBQAAAHgQQSAAADzzx2AcyD4LABgKIAiBCGHBCCBAgIAAIiJgOiIkfNiKE8RuucCIl1hGeqAfQ4KgPAIAABAAAQAABAAAIAACAAAAAAAAAAA==
> <PUBCHEM_IUPAC_OPENEYE_NAME>
[(3aS,4R,6aR)-2,3,3a,4,5,6a-hexahydrofuro[2,3-b]furan-4-yl] N-[(1S,2R)-3-[(5-amino-2,2-dimethyl-pentyl)-(1,3-benzodioxol-5-ylsulfonyl)amino]-1-benzyl-2-hydroxy-propyl]carbamate
> <PUBCHEM_IUPAC_CAS_NAME>
N-[(2S,3R)-4-[(5-amino-2,2-dimethylpentyl)-(1,3-benzodioxol-5-ylsulfonyl)amino]-3-hydroxy-1-phenylbutan-2-yl]carbamic acid [(3aS,4R,6aR)-2,3,3a,4,5,6a-hexahydrofuro[2,3-b]furan-4-yl] ester
> <PUBCHEM_IUPAC_NAME_MARKUP>
[(3<I>a</I><I>S</I>,4<I>R</I>,6<I>a</I><I>R</I>)-2,3,3<I>a</I>,4,5,6<I>a</I>-hexahydrofuro[2,3-b]furan-4-yl] <I>N</I>-[(2<I>S</I>,3<I>R</I>)-4-[(5-amino-2,2-dimethylpentyl)-(1,3-benzodioxol-5-ylsulfonyl)amino]-3-hydroxy-1-phenylbutan-2-yl]carbamate
> <PUBCHEM_IUPAC_NAME>
[(3aS,4R,6aR)-2,3,3a,4,5,6a-hexahydrofuro[2,3-b]furan-4-yl] N-[(2S,3R)-4-[(5-amino-2,2-dimethylpentyl)-(1,3-benzodioxol-5-ylsulfonyl)amino]-3-hydroxy-1-phenylbutan-2-yl]carbamate
> <PUBCHEM_IUPAC_SYSTEMATIC_NAME>
[(3aS,4R,6aR)-2,3,3a,4,5,6a-hexahydrofuro[2,3-b]furan-4-yl] N-[(2S,3R)-4-[(5-azanyl-2,2-dimethyl-pentyl)-(1,3-benzodioxol-5-ylsulfonyl)amino]-3-oxidanyl-1-phenyl-butan-2-yl]carbamate
> <PUBCHEM_IUPAC_TRADITIONAL_NAME>
N-[(1S,2R)-3-[(5-amino-2,2-dimethyl-pentyl)-(1,3-benzodioxol-5-ylsulfonyl)amino]-1-benzyl-2-hydroxy-propyl]carbamic acid [(3aS,4R,6aR)-2,3,3a,4,5,6a-hexahydrofuro[2,3-b]furan-4-yl] ester
> <PUBCHEM_IUPAC_INCHI>
InChI=1S/C31H43N3O9S/c1-31(2,12-6-13-32)19-34(44(37,38)22-9-10-26-27(16-22)42-20-41-26)17-25(35)24(15-21-7-4-3-5-8-21)33-30(36)43-28-18-40-29-23(28)11-14-39-29/h3-5,7-10,16,23-25,28-29,35H,6,11-15,17-20,32H2,1-2H3,(H,33,36)/t23-,24-,25+,28-,29+/m0/s1
> <PUBCHEM_IUPAC_INCHIKEY>
VBKYKUHUVHNPMS-KTJDEMTHSA-N
> <PUBCHEM_XLOGP3_AA>
3.1
> <PUBCHEM_EXACT_MASS>
633.27200113
> <PUBCHEM_MOLECULAR_FORMULA>
C31H43N3O9S
> <PUBCHEM_MOLECULAR_WEIGHT>
633.8
> <PUBCHEM_OPENEYE_CAN_SMILES>
CC(C)(CCCN)CN(CC(C(CC1=CC=CC=C1)NC(=O)OC2COC3C2CCO3)O)S(=O)(=O)C4=CC5=C(C=C4)OCO5
> <PUBCHEM_OPENEYE_ISO_SMILES>
CC(C)(CCCN)CN(C[C@H]([C@H](CC1=CC=CC=C1)NC(=O)O[C@H]2CO[C@@H]3[C@H]2CCO3)O)S(=O)(=O)C4=CC5=C(C=C4)OCO5
> <PUBCHEM_CACTVS_TPSA>
167
> <PUBCHEM_MONOISOTOPIC_WEIGHT>
633.27200113
> <PUBCHEM_TOTAL_CHARGE>
0
> <PUBCHEM_HEAVY_ATOM_COUNT>
44
> <PUBCHEM_ATOM_DEF_STEREO_COUNT>
5
> <PUBCHEM_ATOM_UDEF_STEREO_COUNT>
0
> <PUBCHEM_BOND_DEF_STEREO_COUNT>
0
> <PUBCHEM_BOND_UDEF_STEREO_COUNT>
0
> <PUBCHEM_ISOTOPIC_ATOM_COUNT>
0
> <PUBCHEM_COMPONENT_COUNT>
1
> <PUBCHEM_CACTVS_TAUTO_COUNT>
-1
> <PUBCHEM_COORDINATE_TYPE>
1
5
255
> <PUBCHEM_BONDANNOTATIONS>
25  12  5
14  45  6
15  46  6
32  34  8
32  35  8
33  36  8
33  37  8
34  38  8
35  39  8
36  41  8
37  42  8
38  40  8
39  40  8
16  4  5
41  43  8
42  43  8
24  5  5
$$$$
