514964
  -OEChem-10302200282D
 72 75  0     1  0  0  0  0  0999 V2000
   12.3714    6.2500    0.0000 F   0  0  0  0  0  0  0  0  0  0  0  0
    8.0413    4.7500    0.0000 O   0  0  0  0  0  0  0  0  0  0  0  0
    5.4432   -1.7500    0.0000 O   0  0  0  0  0  0  0  0  0  0  0  0
    2.0000   -3.4819    0.0000 O   0  0  0  0  0  0  0  0  0  0  0  0
    8.9073    1.2500    0.0000 N   0  0  0  0  0  0  0  0  0  0  0  0
    6.3092   -3.2500    0.0000 N   0  0  0  0  0  0  0  0  0  0  0  0
    3.4945   -4.4524    0.0000 N   0  0  0  0  0  0  0  0  0  0  0  0
    8.9073    3.2500    0.0000 C   0  0  0  0  0  0  0  0  0  0  0  0
    9.7734    2.7500    0.0000 C   0  0  0  0  0  0  0  0  0  0  0  0
    8.0413    2.7500    0.0000 C   0  0  0  0  0  0  0  0  0  0  0  0
    9.7734    1.7500    0.0000 C   0  0  0  0  0  0  0  0  0  0  0  0
    8.0413    1.7500    0.0000 C   0  0  0  0  0  0  0  0  0  0  0  0
    8.9073    0.2500    0.0000 C   0  0  0  0  0  0  0  0  0  0  0  0
    8.0413   -0.2500    0.0000 C   0  0  0  0  0  0  0  0  0  0  0  0
    8.0413   -1.2500    0.0000 C   0  0  0  0  0  0  0  0  0  0  0  0
    8.9073    4.2500    0.0000 C   0  0  0  0  0  0  0  0  0  0  0  0
    4.5772   -3.2500    0.0000 C   0  0  3  0  0  0  0  0  0  0  0  0
    7.1753   -1.7500    0.0000 C   0  0  0  0  0  0  0  0  0  0  0  0
    4.4727   -4.2445    0.0000 C   0  0  0  0  0  0  0  0  0  0  0  0
    3.6636   -2.8433    0.0000 C   0  0  0  0  0  0  0  0  0  0  0  0
    7.1753   -2.7500    0.0000 C   0  0  0  0  0  0  0  0  0  0  0  0
    5.4432   -2.7500    0.0000 C   0  0  0  0  0  0  0  0  0  0  0  0
    2.9945   -3.5864    0.0000 C   0  0  0  0  0  0  0  0  0  0  0  0
    9.7734    4.7500    0.0000 C   0  0  0  0  0  0  0  0  0  0  0  0
    6.3092   -4.2500    0.0000 C   0  0  0  0  0  0  0  0  0  0  0  0
    3.0878   -5.3660    0.0000 C   0  0  0  0  0  0  0  0  0  0  0  0
    9.7734    5.7500    0.0000 C   0  0  0  0  0  0  0  0  0  0  0  0
   10.6394    4.2500    0.0000 C   0  0  0  0  0  0  0  0  0  0  0  0
    5.4432   -4.7500    0.0000 C   0  0  0  0  0  0  0  0  0  0  0  0
    7.1753   -4.7500    0.0000 C   0  0  0  0  0  0  0  0  0  0  0  0
   10.6394    6.2500    0.0000 C   0  0  0  0  0  0  0  0  0  0  0  0
   11.5054    4.7500    0.0000 C   0  0  0  0  0  0  0  0  0  0  0  0
   11.5054    5.7500    0.0000 C   0  0  0  0  0  0  0  0  0  0  0  0
    5.4432   -5.7500    0.0000 C   0  0  0  0  0  0  0  0  0  0  0  0
    7.1753   -5.7500    0.0000 C   0  0  0  0  0  0  0  0  0  0  0  0
    6.3092   -6.2500    0.0000 C   0  0  0  0  0  0  0  0  0  0  0  0
    8.3704    3.5600    0.0000 H   0  0  0  0  0  0  0  0  0  0  0  0
   10.3839    2.6423    0.0000 H   0  0  0  0  0  0  0  0  0  0  0  0
    9.9854    3.3326    0.0000 H   0  0  0  0  0  0  0  0  0  0  0  0
    7.8292    3.3326    0.0000 H   0  0  0  0  0  0  0  0  0  0  0  0
    7.4307    2.6423    0.0000 H   0  0  0  0  0  0  0  0  0  0  0  0
    9.9854    1.1674    0.0000 H   0  0  0  0  0  0  0  0  0  0  0  0
   10.3839    1.8577    0.0000 H   0  0  0  0  0  0  0  0  0  0  0  0
    7.4307    1.8577    0.0000 H   0  0  0  0  0  0  0  0  0  0  0  0
    7.8292    1.1674    0.0000 H   0  0  0  0  0  0  0  0  0  0  0  0
    9.1194   -0.3326    0.0000 H   0  0  0  0  0  0  0  0  0  0  0  0
    9.5179    0.3577    0.0000 H   0  0  0  0  0  0  0  0  0  0  0  0
    7.8292    0.3326    0.0000 H   0  0  0  0  0  0  0  0  0  0  0  0
    7.4307   -0.3577    0.0000 H   0  0  0  0  0  0  0  0  0  0  0  0
    8.2534   -1.8326    0.0000 H   0  0  0  0  0  0  0  0  0  0  0  0
    8.6519   -1.1423    0.0000 H   0  0  0  0  0  0  0  0  0  0  0  0
    4.5447   -2.6308    0.0000 H   0  0  0  0  0  0  0  0  0  0  0  0
    6.9632   -1.1674    0.0000 H   0  0  0  0  0  0  0  0  0  0  0  0
    6.5647   -1.8577    0.0000 H   0  0  0  0  0  0  0  0  0  0  0  0
    4.5375   -4.8611    0.0000 H   0  0  0  0  0  0  0  0  0  0  0  0
    5.0927   -4.2445    0.0000 H   0  0  0  0  0  0  0  0  0  0  0  0
    3.9736   -2.3063    0.0000 H   0  0  0  0  0  0  0  0  0  0  0  0
    3.1621   -2.4788    0.0000 H   0  0  0  0  0  0  0  0  0  0  0  0
    7.3873   -3.3326    0.0000 H   0  0  0  0  0  0  0  0  0  0  0  0
    7.7859   -2.6423    0.0000 H   0  0  0  0  0  0  0  0  0  0  0  0
    2.5214   -5.1138    0.0000 H   0  0  0  0  0  0  0  0  0  0  0  0
    2.8356   -5.9324    0.0000 H   0  0  0  0  0  0  0  0  0  0  0  0
    3.6542   -5.6182    0.0000 H   0  0  0  0  0  0  0  0  0  0  0  0
    9.2364    6.0600    0.0000 H   0  0  0  0  0  0  0  0  0  0  0  0
   10.6394    3.6300    0.0000 H   0  0  0  0  0  0  0  0  0  0  0  0
    4.9063   -4.4400    0.0000 H   0  0  0  0  0  0  0  0  0  0  0  0
    7.7122   -4.4400    0.0000 H   0  0  0  0  0  0  0  0  0  0  0  0
   10.6394    6.8700    0.0000 H   0  0  0  0  0  0  0  0  0  0  0  0
   12.0423    4.4400    0.0000 H   0  0  0  0  0  0  0  0  0  0  0  0
    4.9063   -6.0600    0.0000 H   0  0  0  0  0  0  0  0  0  0  0  0
    7.7122   -6.0600    0.0000 H   0  0  0  0  0  0  0  0  0  0  0  0
    6.3092   -6.8700    0.0000 H   0  0  0  0  0  0  0  0  0  0  0  0
  1 33  1  0  0  0  0
  2 16  2  0  0  0  0
  3 22  2  0  0  0  0
  4 23  2  0  0  0  0
  5 11  1  0  0  0  0
  5 12  1  0  0  0  0
  5 13  1  0  0  0  0
  6 21  1  0  0  0  0
  6 22  1  0  0  0  0
  6 25  1  0  0  0  0
  7 19  1  0  0  0  0
  7 23  1  0  0  0  0
  7 26  1  0  0  0  0
  8  9  1  0  0  0  0
  8 10  1  0  0  0  0
  8 16  1  0  0  0  0
  8 37  1  0  0  0  0
  9 11  1  0  0  0  0
  9 38  1  0  0  0  0
  9 39  1  0  0  0  0
 10 12  1  0  0  0  0
 10 40  1  0  0  0  0
 10 41  1  0  0  0  0
 11 42  1  0  0  0  0
 11 43  1  0  0  0  0
 12 44  1  0  0  0  0
 12 45  1  0  0  0  0
 13 14  1  0  0  0  0
 13 46  1  0  0  0  0
 13 47  1  0  0  0  0
 14 15  1  0  0  0  0
 14 48  1  0  0  0  0
 14 49  1  0  0  0  0
 15 18  1  0  0  0  0
 15 50  1  0  0  0  0
 15 51  1  0  0  0  0
 16 24  1  0  0  0  0
 17 19  1  0  0  0  0
 17 20  1  0  0  0  0
 17 22  1  0  0  0  0
 17 52  1  0  0  0  0
 18 21  1  0  0  0  0
 18 53  1  0  0  0  0
 18 54  1  0  0  0  0
 19 55  1  0  0  0  0
 19 56  1  0  0  0  0
 20 23  1  0  0  0  0
 20 57  1  0  0  0  0
 20 58  1  0  0  0  0
 21 59  1  0  0  0  0
 21 60  1  0  0  0  0
 24 27  2  0  0  0  0
 24 28  1  0  0  0  0
 25 29  2  0  0  0  0
 25 30  1  0  0  0  0
 26 61  1  0  0  0  0
 26 62  1  0  0  0  0
 26 63  1  0  0  0  0
 27 31  1  0  0  0  0
 27 64  1  0  0  0  0
 28 32  2  0  0  0  0
 28 65  1  0  0  0  0
 29 34  1  0  0  0  0
 29 66  1  0  0  0  0
 30 35  2  0  0  0  0
 30 67  1  0  0  0  0
 31 33  2  0  0  0  0
 31 68  1  0  0  0  0
 32 33  1  0  0  0  0
 32 69  1  0  0  0  0
 34 36  2  0  0  0  0
 34 70  1  0  0  0  0
 35 36  1  0  0  0  0
 35 71  1  0  0  0  0
 36 72  1  0  0  0  0
M  END
> <PUBCHEM_COMPOUND_CID>
514964
> <PUBCHEM_COMPOUND_CANONICALIZED>
1
> <PUBCHEM_CACTVS_COMPLEXITY>
740
> <PUBCHEM_CACTVS_HBOND_ACCEPTOR>
5
> <PUBCHEM_CACTVS_HBOND_DONOR>
0
> <PUBCHEM_CACTVS_ROTATABLE_BOND>
10
> <PUBCHEM_CACTVS_SUBSKEYS>
AAADcfB7MQAAAAAAAAAAAAAAAAAAAWAAAAA8YIAAAAAAAAABQAAAHwAAAAAADQzBmAwywIMAAACIAqVSUACCAAAlAgAIiAEIZMgIIDrA1ZGEIQhghgDIyYcdiMCOAAAAAAAAAAAAAAAAAAAAAAAAAAAAAA==
> <PUBCHEM_IUPAC_OPENEYE_NAME>
N-[5-[4-(4-fluorobenzoyl)-1-piperidyl]pentyl]-1-methyl-5-oxo-N-phenyl-pyrrolidine-3-carboxamide
> <PUBCHEM_IUPAC_CAS_NAME>
N-[5-[4-[(4-fluorophenyl)-oxomethyl]-1-piperidinyl]pentyl]-1-methyl-5-oxo-N-phenyl-3-pyrrolidinecarboxamide
> <PUBCHEM_IUPAC_NAME_MARKUP>
<I>N</I>-[5-[4-(4-fluorobenzoyl)piperidin-1-yl]pentyl]-1-methyl-5-oxo-<I>N</I>-phenylpyrrolidine-3-carboxamide
> <PUBCHEM_IUPAC_NAME>
N-[5-[4-(4-fluorobenzoyl)piperidin-1-yl]pentyl]-1-methyl-5-oxo-N-phenylpyrrolidine-3-carboxamide
> <PUBCHEM_IUPAC_SYSTEMATIC_NAME>
N-[5-[4-(4-fluorophenyl)carbonylpiperidin-1-yl]pentyl]-1-methyl-5-oxidanylidene-N-phenyl-pyrrolidine-3-carboxamide
> <PUBCHEM_IUPAC_TRADITIONAL_NAME>
N-[5-[4-(4-fluorobenzoyl)piperidino]pentyl]-5-keto-1-methyl-N-phenyl-pyrrolidine-3-carboxamide
> <PUBCHEM_IUPAC_INCHI>
InChI=1S/C29H36FN3O3/c1-31-21-24(20-27(31)34)29(36)33(26-8-4-2-5-9-26)17-7-3-6-16-32-18-14-23(15-19-32)28(35)22-10-12-25(30)13-11-22/h2,4-5,8-13,23-24H,3,6-7,14-21H2,1H3
> <PUBCHEM_IUPAC_INCHIKEY>
JIGAEYJIAMZACL-UHFFFAOYSA-N
> <PUBCHEM_XLOGP3_AA>
3.5
> <PUBCHEM_EXACT_MASS>
493.27407018
> <PUBCHEM_MOLECULAR_FORMULA>
C29H36FN3O3
> <PUBCHEM_MOLECULAR_WEIGHT>
493.6
> <PUBCHEM_OPENEYE_CAN_SMILES>
CN1CC(CC1=O)C(=O)N(CCCCCN2CCC(CC2)C(=O)C3=CC=C(C=C3)F)C4=CC=CC=C4
> <PUBCHEM_OPENEYE_ISO_SMILES>
CN1CC(CC1=O)C(=O)N(CCCCCN2CCC(CC2)C(=O)C3=CC=C(C=C3)F)C4=CC=CC=C4
> <PUBCHEM_CACTVS_TPSA>
60.9
> <PUBCHEM_MONOISOTOPIC_WEIGHT>
493.27407018
> <PUBCHEM_TOTAL_CHARGE>
0
> <PUBCHEM_HEAVY_ATOM_COUNT>
36
> <PUBCHEM_ATOM_DEF_STEREO_COUNT>
0
> <PUBCHEM_ATOM_UDEF_STEREO_COUNT>
1
> <PUBCHEM_BOND_DEF_STEREO_COUNT>
0
> <PUBCHEM_BOND_UDEF_STEREO_COUNT>
0
> <PUBCHEM_ISOTOPIC_ATOM_COUNT>
0
> <PUBCHEM_COMPONENT_COUNT>
1
> <PUBCHEM_CACTVS_TAUTO_COUNT>
-1
> <PUBCHEM_COORDINATE_TYPE>
1
5
255
> <PUBCHEM_BONDANNOTATIONS>
17  22  3
24  27  8
24  28  8
25  29  8
25  30  8
27  31  8
28  32  8
29  34  8
30  35  8
31  33  8
32  33  8
34  36  8
35  36  8
$$$$
