514917
  -OEChem-10302200282D
199202  0     1  0  0  0  0  0999 V2000
    3.5385    9.9014    0.0000 O   0  0  0  0  0  0  0  0  0  0  0  0
    2.0000   10.6969    0.0000 O   0  0  0  0  0  0  0  0  0  0  0  0
    4.9165   12.5662    0.0000 O   0  0  0  0  0  0  0  0  0  0  0  0
    5.9957   10.8823    0.0000 O   0  0  0  0  0  0  0  0  0  0  0  0
    2.9186   12.4735    0.0000 O   0  0  0  0  0  0  0  0  0  0  0  0
    6.2553    9.7263    0.0000 O   0  0  0  0  0  0  0  0  0  0  0  0
    4.0817    8.0251    0.0000 O   0  0  0  0  0  0  0  0  0  0  0  0
    7.6798    9.0251    0.0000 O   0  0  0  0  0  0  0  0  0  0  0  0
    4.9477    6.5251    0.0000 O   0  0  0  0  0  0  0  0  0  0  0  0
   10.2778    6.5251    0.0000 O   0  0  0  0  0  0  0  0  0  0  0  0
   12.0099    3.5251    0.0000 O   0  0  0  0  0  0  0  0  0  0  0  0
   12.8759   -0.9749    0.0000 N   0  0  3  0  0  0  0  0  0  0  0  0
   12.8759   -3.9749    0.0000 N   0  0  3  0  0  0  0  0  0  0  0  0
    6.6798    7.5251    0.0000 N   0  0  0  0  0  0  0  0  0  0  0  0
   15.4740   -1.4749    0.0000 N   0  0  0  0  0  0  0  0  0  0  0  0
    9.4118    8.0251    0.0000 N   0  0  0  0  0  0  0  0  0  0  0  0
   15.4740   -4.4749    0.0000 N   0  0  0  0  0  0  0  0  0  0  0  0
   11.1439   -8.9749    0.0000 N   0  0  3  0  0  0  0  0  0  0  0  0
   10.2778    3.5251    0.0000 N   0  0  0  0  0  0  0  0  0  0  0  0
    8.5458   -8.4749    0.0000 N   0  0  0  0  0  0  0  0  0  0  0  0
   11.1439  -11.9749    0.0000 N   0  0  0  0  0  0  0  0  0  0  0  0
    8.5458  -11.4749    0.0000 N   0  0  0  0  0  0  0  0  0  0  0  0
    4.4572   11.6779    0.0000 C   0  0  1  0  0  0  0  0  0  0  0  0
    4.9968   10.8360    0.0000 C   0  0  2  0  0  0  0  0  0  0  0  0
    3.4582   11.6316    0.0000 C   0  0  2  0  0  0  0  0  0  0  0  0
    4.5374    9.9477    0.0000 C   0  0  1  0  0  0  0  0  0  0  0  0
    2.9989   10.7433    0.0000 C   0  0  1  0  0  0  0  0  0  0  0  0
    5.3324    9.3412    0.0000 C   0  0  0  0  0  0  0  0  0  0  0  0
    5.8137    9.0251    0.0000 C   0  0  0  0  0  0  0  0  0  0  0  0
    5.8137    8.0251    0.0000 C   0  0  1  0  0  0  0  0  0  0  0  0
   12.0099   -1.4749    0.0000 C   0  0  0  0  0  0  0  0  0  0  0  0
   12.0099   -2.4749    0.0000 C   0  0  0  0  0  0  0  0  0  0  0  0
   12.8759   -2.9749    0.0000 C   0  0  0  0  0  0  0  0  0  0  0  0
   12.8759    0.0251    0.0000 C   0  0  0  0  0  0  0  0  0  0  0  0
   13.7419   -1.4749    0.0000 C   0  0  0  0  0  0  0  0  0  0  0  0
   12.0099    0.5251    0.0000 C   0  0  0  0  0  0  0  0  0  0  0  0
    8.5458    7.5251    0.0000 C   0  0  1  0  0  0  0  0  0  0  0  0
   13.7419   -4.4749    0.0000 C   0  0  0  0  0  0  0  0  0  0  0  0
   12.0099   -4.4749    0.0000 C   0  0  0  0  0  0  0  0  0  0  0  0
   14.6080   -0.9749    0.0000 C   0  0  0  0  0  0  0  0  0  0  0  0
    8.5458    6.5251    0.0000 C   0  0  0  0  0  0  0  0  0  0  0  0
   12.0099    1.5251    0.0000 C   0  0  0  0  0  0  0  0  0  0  0  0
    7.6798    8.0251    0.0000 C   0  0  0  0  0  0  0  0  0  0  0  0
   14.6080   -3.9749    0.0000 C   0  0  0  0  0  0  0  0  0  0  0  0
    9.4118    6.0251    0.0000 C   0  0  0  0  0  0  0  0  0  0  0  0
    4.9477    7.5251    0.0000 C   0  0  0  0  0  0  0  0  0  0  0  0
   12.0099   -5.4749    0.0000 C   0  0  0  0  0  0  0  0  0  0  0  0
   15.4740   -2.4749    0.0000 C   0  0  0  0  0  0  0  0  0  0  0  0
    9.4118    5.0251    0.0000 C   0  0  0  0  0  0  0  0  0  0  0  0
   16.3400   -2.9749    0.0000 C   0  0  0  0  0  0  0  0  0  0  0  0
   11.1439    2.0251    0.0000 C   0  0  0  0  0  0  0  0  0  0  0  0
   16.3400   -3.9749    0.0000 C   0  0  0  0  0  0  0  0  0  0  0  0
   14.6080    8.0251    0.0000 C   0  0  0  0  0  0  0  0  0  0  0  0
   13.7419    7.5251    0.0000 C   0  0  0  0  0  0  0  0  0  0  0  0
   15.4740    7.5251    0.0000 C   0  0  0  0  0  0  0  0  0  0  0  0
   12.8759    8.0251    0.0000 C   0  0  0  0  0  0  0  0  0  0  0  0
   12.0099    7.5251    0.0000 C   0  0  0  0  0  0  0  0  0  0  0  0
   16.3400    8.0251    0.0000 C   0  0  0  0  0  0  0  0  0  0  0  0
   10.2778    4.5251    0.0000 C   0  0  0  0  0  0  0  0  0  0  0  0
   11.1439    8.0251    0.0000 C   0  0  0  0  0  0  0  0  0  0  0  0
   17.2060    7.5251    0.0000 C   0  0  0  0  0  0  0  0  0  0  0  0
   12.0099   -8.4749    0.0000 C   0  0  0  0  0  0  0  0  0  0  0  0
   10.2778    7.5251    0.0000 C   0  0  0  0  0  0  0  0  0  0  0  0
   12.0099   -7.4749    0.0000 C   0  0  0  0  0  0  0  0  0  0  0  0
   11.1439   -9.9749    0.0000 C   0  0  0  0  0  0  0  0  0  0  0  0
   18.0721    8.0251    0.0000 C   0  0  0  0  0  0  0  0  0  0  0  0
   11.1439   -5.9749    0.0000 C   0  0  0  0  0  0  0  0  0  0  0  0
   12.8759   -5.9749    0.0000 C   0  0  0  0  0  0  0  0  0  0  0  0
   11.1439    3.0251    0.0000 C   0  0  0  0  0  0  0  0  0  0  0  0
   10.2778   -8.4749    0.0000 C   0  0  0  0  0  0  0  0  0  0  0  0
   12.0099  -10.4749    0.0000 C   0  0  0  0  0  0  0  0  0  0  0  0
   11.1439   -6.9749    0.0000 C   0  0  0  0  0  0  0  0  0  0  0  0
   12.8759   -6.9749    0.0000 C   0  0  0  0  0  0  0  0  0  0  0  0
   18.9381    7.5251    0.0000 C   0  0  0  0  0  0  0  0  0  0  0  0
    9.4118   -8.9749    0.0000 C   0  0  0  0  0  0  0  0  0  0  0  0
   19.8041    8.0251    0.0000 C   0  0  0  0  0  0  0  0  0  0  0  0
   12.0099  -11.4749    0.0000 C   0  0  0  0  0  0  0  0  0  0  0  0
    7.6798   -8.9749    0.0000 C   0  0  0  0  0  0  0  0  0  0  0  0
   20.6701    7.5251    0.0000 C   0  0  0  0  0  0  0  0  0  0  0  0
    7.6798   -9.9749    0.0000 C   0  0  0  0  0  0  0  0  0  0  0  0
   10.2778  -11.4749    0.0000 C   0  0  0  0  0  0  0  0  0  0  0  0
    8.5458  -10.4749    0.0000 C   0  0  0  0  0  0  0  0  0  0  0  0
    9.4118  -11.9749    0.0000 C   0  0  0  0  0  0  0  0  0  0  0  0
   21.5362    8.0251    0.0000 C   0  0  0  0  0  0  0  0  0  0  0  0
    5.0765   11.7067    0.0000 H   0  0  0  0  0  0  0  0  0  0  0  0
    5.2816   11.3867    0.0000 H   0  0  0  0  0  0  0  0  0  0  0  0
    3.7430   12.1823    0.0000 H   0  0  0  0  0  0  0  0  0  0  0  0
    4.3526    9.3559    0.0000 H   0  0  0  0  0  0  0  0  0  0  0  0
    2.6644   11.2653    0.0000 H   0  0  0  0  0  0  0  0  0  0  0  0
    4.8765    8.9211    0.0000 H   0  0  0  0  0  0  0  0  0  0  0  0
    5.6670    8.8192    0.0000 H   0  0  0  0  0  0  0  0  0  0  0  0
    5.5358   12.5949    0.0000 H   0  0  0  0  0  0  0  0  0  0  0  0
    6.2805   11.4331    0.0000 H   0  0  0  0  0  0  0  0  0  0  0  0
    2.2993   12.4447    0.0000 H   0  0  0  0  0  0  0  0  0  0  0  0
    6.4279    8.9400    0.0000 H   0  0  0  0  0  0  0  0  0  0  0  0
    5.9824    9.6217    0.0000 H   0  0  0  0  0  0  0  0  0  0  0  0
    6.3507    8.3351    0.0000 H   0  0  0  0  0  0  0  0  0  0  0  0
   11.7978   -0.8923    0.0000 H   0  0  0  0  0  0  0  0  0  0  0  0
   11.3993   -1.5826    0.0000 H   0  0  0  0  0  0  0  0  0  0  0  0
   11.3993   -2.3673    0.0000 H   0  0  0  0  0  0  0  0  0  0  0  0
   11.7978   -3.0575    0.0000 H   0  0  0  0  0  0  0  0  0  0  0  0
   13.4865   -3.0826    0.0000 H   0  0  0  0  0  0  0  0  0  0  0  0
   13.0880   -2.3923    0.0000 H   0  0  0  0  0  0  0  0  0  0  0  0
   13.4865   -0.0826    0.0000 H   0  0  0  0  0  0  0  0  0  0  0  0
   13.0880    0.6077    0.0000 H   0  0  0  0  0  0  0  0  0  0  0  0
    6.3345   10.3413    0.0000 H   0  0  0  0  0  0  0  0  0  0  0  0
   13.3434   -1.9499    0.0000 H   0  0  0  0  0  0  0  0  0  0  0  0
   14.1405   -1.9499    0.0000 H   0  0  0  0  0  0  0  0  0  0  0  0
   11.3993    0.6327    0.0000 H   0  0  0  0  0  0  0  0  0  0  0  0
   11.7978   -0.0575    0.0000 H   0  0  0  0  0  0  0  0  0  0  0  0
   13.3434   -4.9499    0.0000 H   0  0  0  0  0  0  0  0  0  0  0  0
   14.1405   -4.9499    0.0000 H   0  0  0  0  0  0  0  0  0  0  0  0
    9.0827    7.2151    0.0000 H   0  0  0  0  0  0  0  0  0  0  0  0
    7.2167    7.2151    0.0000 H   0  0  0  0  0  0  0  0  0  0  0  0
   11.7978   -3.8923    0.0000 H   0  0  0  0  0  0  0  0  0  0  0  0
   11.3993   -4.5826    0.0000 H   0  0  0  0  0  0  0  0  0  0  0  0
   15.0065   -0.5000    0.0000 H   0  0  0  0  0  0  0  0  0  0  0  0
   14.2094   -0.5000    0.0000 H   0  0  0  0  0  0  0  0  0  0  0  0
    7.9352    6.6327    0.0000 H   0  0  0  0  0  0  0  0  0  0  0  0
    8.3337    5.9425    0.0000 H   0  0  0  0  0  0  0  0  0  0  0  0
   12.6205    1.4174    0.0000 H   0  0  0  0  0  0  0  0  0  0  0  0
   12.2219    2.1077    0.0000 H   0  0  0  0  0  0  0  0  0  0  0  0
   15.0065   -3.5000    0.0000 H   0  0  0  0  0  0  0  0  0  0  0  0
   14.2094   -3.5000    0.0000 H   0  0  0  0  0  0  0  0  0  0  0  0
   10.0224    5.9174    0.0000 H   0  0  0  0  0  0  0  0  0  0  0  0
    9.6239    6.6077    0.0000 H   0  0  0  0  0  0  0  0  0  0  0  0
   14.8634   -2.3673    0.0000 H   0  0  0  0  0  0  0  0  0  0  0  0
   15.2619   -3.0575    0.0000 H   0  0  0  0  0  0  0  0  0  0  0  0
   16.0109   -1.1649    0.0000 H   0  0  0  0  0  0  0  0  0  0  0  0
    8.8012    5.1327    0.0000 H   0  0  0  0  0  0  0  0  0  0  0  0
    9.1998    4.4425    0.0000 H   0  0  0  0  0  0  0  0  0  0  0  0
   16.9506   -3.0826    0.0000 H   0  0  0  0  0  0  0  0  0  0  0  0
   16.5521   -2.3923    0.0000 H   0  0  0  0  0  0  0  0  0  0  0  0
   10.5333    2.1327    0.0000 H   0  0  0  0  0  0  0  0  0  0  0  0
   10.9318    1.4425    0.0000 H   0  0  0  0  0  0  0  0  0  0  0  0
   16.5521   -4.5575    0.0000 H   0  0  0  0  0  0  0  0  0  0  0  0
   16.9506   -3.8673    0.0000 H   0  0  0  0  0  0  0  0  0  0  0  0
    9.4118    8.6451    0.0000 H   0  0  0  0  0  0  0  0  0  0  0  0
   15.4740   -5.0949    0.0000 H   0  0  0  0  0  0  0  0  0  0  0  0
   15.0065    8.5000    0.0000 H   0  0  0  0  0  0  0  0  0  0  0  0
   14.2094    8.5000    0.0000 H   0  0  0  0  0  0  0  0  0  0  0  0
   13.3434    7.0501    0.0000 H   0  0  0  0  0  0  0  0  0  0  0  0
   14.1405    7.0501    0.0000 H   0  0  0  0  0  0  0  0  0  0  0  0
   15.0755    7.0501    0.0000 H   0  0  0  0  0  0  0  0  0  0  0  0
   15.8725    7.0501    0.0000 H   0  0  0  0  0  0  0  0  0  0  0  0
   13.2744    8.5000    0.0000 H   0  0  0  0  0  0  0  0  0  0  0  0
   12.4774    8.5000    0.0000 H   0  0  0  0  0  0  0  0  0  0  0  0
   16.7385    8.5000    0.0000 H   0  0  0  0  0  0  0  0  0  0  0  0
   15.9415    8.5000    0.0000 H   0  0  0  0  0  0  0  0  0  0  0  0
   11.6114    7.0501    0.0000 H   0  0  0  0  0  0  0  0  0  0  0  0
   12.4084    7.0501    0.0000 H   0  0  0  0  0  0  0  0  0  0  0  0
   10.8884    4.4174    0.0000 H   0  0  0  0  0  0  0  0  0  0  0  0
   10.4899    5.1077    0.0000 H   0  0  0  0  0  0  0  0  0  0  0  0
   11.5424    8.5000    0.0000 H   0  0  0  0  0  0  0  0  0  0  0  0
   10.7453    8.5000    0.0000 H   0  0  0  0  0  0  0  0  0  0  0  0
   16.8075    7.0501    0.0000 H   0  0  0  0  0  0  0  0  0  0  0  0
   17.6046    7.0501    0.0000 H   0  0  0  0  0  0  0  0  0  0  0  0
   12.2219   -9.0575    0.0000 H   0  0  0  0  0  0  0  0  0  0  0  0
   12.6205   -8.3673    0.0000 H   0  0  0  0  0  0  0  0  0  0  0  0
   10.5333   -9.8673    0.0000 H   0  0  0  0  0  0  0  0  0  0  0  0
   10.9318  -10.5575    0.0000 H   0  0  0  0  0  0  0  0  0  0  0  0
   18.4706    8.5000    0.0000 H   0  0  0  0  0  0  0  0  0  0  0  0
   17.6735    8.5000    0.0000 H   0  0  0  0  0  0  0  0  0  0  0  0
   10.6069   -5.6649    0.0000 H   0  0  0  0  0  0  0  0  0  0  0  0
   13.4129   -5.6649    0.0000 H   0  0  0  0  0  0  0  0  0  0  0  0
   10.6764   -8.0000    0.0000 H   0  0  0  0  0  0  0  0  0  0  0  0
    9.8793   -8.0000    0.0000 H   0  0  0  0  0  0  0  0  0  0  0  0
    9.7409    3.2151    0.0000 H   0  0  0  0  0  0  0  0  0  0  0  0
   12.6205  -10.5826    0.0000 H   0  0  0  0  0  0  0  0  0  0  0  0
   12.2219   -9.8923    0.0000 H   0  0  0  0  0  0  0  0  0  0  0  0
   18.5396    7.0501    0.0000 H   0  0  0  0  0  0  0  0  0  0  0  0
   19.3366    7.0501    0.0000 H   0  0  0  0  0  0  0  0  0  0  0  0
   10.6069   -7.2849    0.0000 H   0  0  0  0  0  0  0  0  0  0  0  0
   13.4129   -7.2849    0.0000 H   0  0  0  0  0  0  0  0  0  0  0  0
    9.0133   -9.4499    0.0000 H   0  0  0  0  0  0  0  0  0  0  0  0
    9.8103   -9.4499    0.0000 H   0  0  0  0  0  0  0  0  0  0  0  0
   20.2027    8.5000    0.0000 H   0  0  0  0  0  0  0  0  0  0  0  0
   19.4056    8.5000    0.0000 H   0  0  0  0  0  0  0  0  0  0  0  0
   12.2219  -12.0575    0.0000 H   0  0  0  0  0  0  0  0  0  0  0  0
   12.6205  -11.3673    0.0000 H   0  0  0  0  0  0  0  0  0  0  0  0
    3.5448    7.7151    0.0000 H   0  0  0  0  0  0  0  0  0  0  0  0
    8.5458   -7.8549    0.0000 H   0  0  0  0  0  0  0  0  0  0  0  0
    7.4677   -8.3923    0.0000 H   0  0  0  0  0  0  0  0  0  0  0  0
    7.0692   -9.0826    0.0000 H   0  0  0  0  0  0  0  0  0  0  0  0
   20.2716    7.0501    0.0000 H   0  0  0  0  0  0  0  0  0  0  0  0
   21.0687    7.0501    0.0000 H   0  0  0  0  0  0  0  0  0  0  0  0
    7.0692   -9.8673    0.0000 H   0  0  0  0  0  0  0  0  0  0  0  0
    7.4677  -10.5575    0.0000 H   0  0  0  0  0  0  0  0  0  0  0  0
   11.1439  -12.5949    0.0000 H   0  0  0  0  0  0  0  0  0  0  0  0
   10.6764  -11.0000    0.0000 H   0  0  0  0  0  0  0  0  0  0  0  0
    9.8793  -11.0000    0.0000 H   0  0  0  0  0  0  0  0  0  0  0  0
    9.1564  -10.5826    0.0000 H   0  0  0  0  0  0  0  0  0  0  0  0
    8.7578   -9.8923    0.0000 H   0  0  0  0  0  0  0  0  0  0  0  0
    9.0133  -12.4499    0.0000 H   0  0  0  0  0  0  0  0  0  0  0  0
    9.8103  -12.4499    0.0000 H   0  0  0  0  0  0  0  0  0  0  0  0
    8.0088  -11.7849    0.0000 H   0  0  0  0  0  0  0  0  0  0  0  0
   21.8462    7.4881    0.0000 H   0  0  0  0  0  0  0  0  0  0  0  0
   22.0731    8.3351    0.0000 H   0  0  0  0  0  0  0  0  0  0  0  0
   21.2262    8.5620    0.0000 H   0  0  0  0  0  0  0  0  0  0  0  0
  1 26  1  0  0  0  0
  1 27  1  0  0  0  0
 27  2  1  1  0  0  0
  2 29  1  0  0  0  0
 23  3  1  1  0  0  0
  3 92  1  0  0  0  0
 24  4  1  1  0  0  0
  4 93  1  0  0  0  0
 25  5  1  6  0  0  0
  5 94  1  0  0  0  0
  6 28  1  0  0  0  0
  6106  1  0  0  0  0
  7 46  1  0  0  0  0
  7181  1  0  0  0  0
  8 43  2  0  0  0  0
  9 46  2  0  0  0  0
 10 63  2  0  0  0  0
 11 69  2  0  0  0  0
 12 31  1  0  0  0  0
 12 34  1  0  0  0  0
 12 35  1  0  0  0  0
 13 33  1  0  0  0  0
 13 38  1  0  0  0  0
 13 39  1  0  0  0  0
 30 14  1  6  0  0  0
 14 43  1  0  0  0  0
 14114  1  0  0  0  0
 15 40  1  0  0  0  0
 15 48  1  0  0  0  0
 15129  1  0  0  0  0
 37 16  1  1  0  0  0
 16 63  1  0  0  0  0
 16138  1  0  0  0  0
 17 44  1  0  0  0  0
 17 52  1  0  0  0  0
 17139  1  0  0  0  0
 18 62  1  0  0  0  0
 18 65  1  0  0  0  0
 18 70  1  0  0  0  0
 19 59  1  0  0  0  0
 19 69  1  0  0  0  0
 19168  1  0  0  0  0
 20 75  1  0  0  0  0
 20 78  1  0  0  0  0
 20182  1  0  0  0  0
 21 77  1  0  0  0  0
 21 81  1  0  0  0  0
 21189  1  0  0  0  0
 22 82  1  0  0  0  0
 22 83  1  0  0  0  0
 22196  1  0  0  0  0
 23 24  1  0  0  0  0
 23 25  1  0  0  0  0
 23 85  1  0  0  0  0
 24 26  1  0  0  0  0
 24 86  1  0  0  0  0
 25 27  1  0  0  0  0
 25 87  1  0  0  0  0
 26 28  1  1  0  0  0
 26 88  1  0  0  0  0
 27 89  1  0  0  0  0
 28 90  1  0  0  0  0
 28 91  1  0  0  0  0
 29 30  1  0  0  0  0
 29 95  1  0  0  0  0
 29 96  1  0  0  0  0
 30 46  1  0  0  0  0
 30 97  1  0  0  0  0
 31 32  1  0  0  0  0
 31 98  1  0  0  0  0
 31 99  1  0  0  0  0
 32 33  1  0  0  0  0
 32100  1  0  0  0  0
 32101  1  0  0  0  0
 33102  1  0  0  0  0
 33103  1  0  0  0  0
 34 36  1  0  0  0  0
 34104  1  0  0  0  0
 34105  1  0  0  0  0
 35 40  1  0  0  0  0
 35107  1  0  0  0  0
 35108  1  0  0  0  0
 36 42  1  0  0  0  0
 36109  1  0  0  0  0
 36110  1  0  0  0  0
 37 41  1  0  0  0  0
 37 43  1  0  0  0  0
 37113  1  0  0  0  0
 38 44  1  0  0  0  0
 38111  1  0  0  0  0
 38112  1  0  0  0  0
 39 47  1  0  0  0  0
 39115  1  0  0  0  0
 39116  1  0  0  0  0
 40117  1  0  0  0  0
 40118  1  0  0  0  0
 41 45  1  0  0  0  0
 41119  1  0  0  0  0
 41120  1  0  0  0  0
 42 51  1  0  0  0  0
 42121  1  0  0  0  0
 42122  1  0  0  0  0
 44123  1  0  0  0  0
 44124  1  0  0  0  0
 45 49  1  0  0  0  0
 45125  1  0  0  0  0
 45126  1  0  0  0  0
 47 67  2  0  0  0  0
 47 68  1  0  0  0  0
 48 50  1  0  0  0  0
 48127  1  0  0  0  0
 48128  1  0  0  0  0
 49 59  1  0  0  0  0
 49130  1  0  0  0  0
 49131  1  0  0  0  0
 50 52  1  0  0  0  0
 50132  1  0  0  0  0
 50133  1  0  0  0  0
 51 69  1  0  0  0  0
 51134  1  0  0  0  0
 51135  1  0  0  0  0
 52136  1  0  0  0  0
 52137  1  0  0  0  0
 53 54  1  0  0  0  0
 53 55  1  0  0  0  0
 53140  1  0  0  0  0
 53141  1  0  0  0  0
 54 56  1  0  0  0  0
 54142  1  0  0  0  0
 54143  1  0  0  0  0
 55 58  1  0  0  0  0
 55144  1  0  0  0  0
 55145  1  0  0  0  0
 56 57  1  0  0  0  0
 56146  1  0  0  0  0
 56147  1  0  0  0  0
 57 60  1  0  0  0  0
 57150  1  0  0  0  0
 57151  1  0  0  0  0
 58 61  1  0  0  0  0
 58148  1  0  0  0  0
 58149  1  0  0  0  0
 59152  1  0  0  0  0
 59153  1  0  0  0  0
 60 63  1  0  0  0  0
 60154  1  0  0  0  0
 60155  1  0  0  0  0
 61 66  1  0  0  0  0
 61156  1  0  0  0  0
 61157  1  0  0  0  0
 62 64  1  0  0  0  0
 62158  1  0  0  0  0
 62159  1  0  0  0  0
 64 72  2  0  0  0  0
 64 73  1  0  0  0  0
 65 71  1  0  0  0  0
 65160  1  0  0  0  0
 65161  1  0  0  0  0
 66 74  1  0  0  0  0
 66162  1  0  0  0  0
 66163  1  0  0  0  0
 67 72  1  0  0  0  0
 67164  1  0  0  0  0
 68 73  2  0  0  0  0
 68165  1  0  0  0  0
 70 75  1  0  0  0  0
 70166  1  0  0  0  0
 70167  1  0  0  0  0
 71 77  1  0  0  0  0
 71169  1  0  0  0  0
 71170  1  0  0  0  0
 72173  1  0  0  0  0
 73174  1  0  0  0  0
 74 76  1  0  0  0  0
 74171  1  0  0  0  0
 74172  1  0  0  0  0
 75175  1  0  0  0  0
 75176  1  0  0  0  0
 76 79  1  0  0  0  0
 76177  1  0  0  0  0
 76178  1  0  0  0  0
 77179  1  0  0  0  0
 77180  1  0  0  0  0
 78 80  1  0  0  0  0
 78183  1  0  0  0  0
 78184  1  0  0  0  0
 79 84  1  0  0  0  0
 79185  1  0  0  0  0
 79186  1  0  0  0  0
 80 82  1  0  0  0  0
 80187  1  0  0  0  0
 80188  1  0  0  0  0
 81 83  1  0  0  0  0
 81190  1  0  0  0  0
 81191  1  0  0  0  0
 82192  1  0  0  0  0
 82193  1  0  0  0  0
 83194  1  0  0  0  0
 83195  1  0  0  0  0
 84197  1  0  0  0  0
 84198  1  0  0  0  0
 84199  1  0  0  0  0
M  END
> <PUBCHEM_COMPOUND_CID>
514917
> <PUBCHEM_COMPOUND_CANONICALIZED>
1
> <PUBCHEM_CACTVS_COMPLEXITY>
1690
> <PUBCHEM_CACTVS_HBOND_ACCEPTOR>
19
> <PUBCHEM_CACTVS_HBOND_DONOR>
13
> <PUBCHEM_CACTVS_ROTATABLE_BOND>
34
> <PUBCHEM_CACTVS_SUBSKEYS>
AAADcfB//AAAAAAAAAAAAAAAAAAAAAAAAAA0QAAAAAAAAAABAAAAHgAQCAAADDzxmAcyCIPABgCIAiHSGACCAAAgAAAIiIGIBIgbcDaA0TG3YAhltgCfiAfY6YyOQAAAAAAAAACAAAAAAAAAAAAAAAAAAA==
> <PUBCHEM_IUPAC_OPENEYE_NAME>
(2S)-2-[[(2S)-2-(tetradecanoylamino)-6-[5-[11-[[4-(1,4,8,11-tetrazacyclotetradec-1-ylmethyl)phenyl]methyl]-1,4,8,11-tetrazacyclotetradec-1-yl]pentanoylamino]hexanoyl]amino]-3-[(2R,3R,4S,5R,6R)-3,4,5-trihydroxy-6-(hydroxymethyl)tetrahydropyran-2-yl]oxy-propanoic acid
> <PUBCHEM_IUPAC_CAS_NAME>
(2S)-2-[[(2S)-1-oxo-2-(1-oxotetradecylamino)-6-[[1-oxo-5-[11-[[4-(1,4,8,11-tetrazacyclotetradec-1-ylmethyl)phenyl]methyl]-1,4,8,11-tetrazacyclotetradec-1-yl]pentyl]amino]hexyl]amino]-3-[[(2R,3R,4S,5R,6R)-3,4,5-trihydroxy-6-(hydroxymethyl)-2-oxanyl]oxy]propanoic acid
> <PUBCHEM_IUPAC_NAME_MARKUP>
(2<I>S</I>)-2-[[(2<I>S</I>)-2-(tetradecanoylamino)-6-[5-[11-[[4-(1,4,8,11-tetrazacyclotetradec-1-ylmethyl)phenyl]methyl]-1,4,8,11-tetrazacyclotetradec-1-yl]pentanoylamino]hexanoyl]amino]-3-[(2<I>R</I>,3<I>R</I>,4<I>S</I>,5<I>R</I>,6<I>R</I>)-3,4,5-trihydroxy-6-(hydroxymethyl)oxan-2-yl]oxypropanoic acid
> <PUBCHEM_IUPAC_NAME>
(2S)-2-[[(2S)-2-(tetradecanoylamino)-6-[5-[11-[[4-(1,4,8,11-tetrazacyclotetradec-1-ylmethyl)phenyl]methyl]-1,4,8,11-tetrazacyclotetradec-1-yl]pentanoylamino]hexanoyl]amino]-3-[(2R,3R,4S,5R,6R)-3,4,5-trihydroxy-6-(hydroxymethyl)oxan-2-yl]oxypropanoic acid
> <PUBCHEM_IUPAC_SYSTEMATIC_NAME>
(2S)-3-[(2R,3R,4S,5R,6R)-6-(hydroxymethyl)-3,4,5-tris(oxidanyl)oxan-2-yl]oxy-2-[[(2S)-2-(tetradecanoylamino)-6-[5-[11-[[4-(1,4,8,11-tetrazacyclotetradec-1-ylmethyl)phenyl]methyl]-1,4,8,11-tetrazacyclotetradec-1-yl]pentanoylamino]hexanoyl]amino]propanoic acid
> <PUBCHEM_IUPAC_TRADITIONAL_NAME>
(2S)-2-[[(2S)-2-(tetradecanoylamino)-6-[5-[11-[4-(1,4,8,11-tetrazacyclotetradec-1-ylmethyl)benzyl]-1,4,8,11-tetrazacyclotetradec-1-yl]pentanoylamino]hexanoyl]amino]-3-[(2R,3R,4S,5R,6R)-3,4,5-trihydroxy-6-methylol-tetrahydropyran-2-yl]oxy-propionic acid
> <PUBCHEM_IUPAC_INCHI>
InChI=1S/C62H115N11O11/c1-2-3-4-5-6-7-8-9-10-11-12-23-56(76)69-52(60(80)70-53(61(81)82)49-83-62-59(79)58(78)57(77)54(48-74)84-62)21-13-15-33-68-55(75)22-14-16-39-71-41-20-42-73(45-38-67-31-18-30-65-36-43-71)47-51-26-24-50(25-27-51)46-72-40-19-32-64-35-34-63-28-17-29-66-37-44-72/h24-27,52-54,57-59,62-67,74,77-79H,2-23,28-49H2,1H3,(H,68,75)(H,69,76)(H,70,80)(H,81,82)/t52-,53-,54+,57-,58-,59+,62+/m0/s1
> <PUBCHEM_IUPAC_INCHIKEY>
JQWANFDXKJXQKY-FKCTUZENSA-N
> <PUBCHEM_XLOGP3_AA>
1.5
> <PUBCHEM_EXACT_MASS>
1189.87775353
> <PUBCHEM_MOLECULAR_FORMULA>
C62H115N11O11
> <PUBCHEM_MOLECULAR_WEIGHT>
1190.6
> <PUBCHEM_OPENEYE_CAN_SMILES>
CCCCCCCCCCCCCC(=O)NC(CCCCNC(=O)CCCCN1CCCN(CCNCCCNCC1)CC2=CC=C(C=C2)CN3CCCNCCNCCCNCC3)C(=O)NC(COC4C(C(C(C(O4)CO)O)O)O)C(=O)O
> <PUBCHEM_OPENEYE_ISO_SMILES>
CCCCCCCCCCCCCC(=O)N[C@@H](CCCCNC(=O)CCCCN1CCCN(CCNCCCNCC1)CC2=CC=C(C=C2)CN3CCCNCCNCCCNCC3)C(=O)N[C@@H](CO[C@H]4[C@@H]([C@H]([C@H]([C@H](O4)CO)O)O)O)C(=O)O
> <PUBCHEM_CACTVS_TPSA>
294
> <PUBCHEM_MONOISOTOPIC_WEIGHT>
1189.87775353
> <PUBCHEM_TOTAL_CHARGE>
0
> <PUBCHEM_HEAVY_ATOM_COUNT>
84
> <PUBCHEM_ATOM_DEF_STEREO_COUNT>
7
> <PUBCHEM_ATOM_UDEF_STEREO_COUNT>
0
> <PUBCHEM_BOND_DEF_STEREO_COUNT>
0
> <PUBCHEM_BOND_UDEF_STEREO_COUNT>
0
> <PUBCHEM_ISOTOPIC_ATOM_COUNT>
0
> <PUBCHEM_COMPONENT_COUNT>
1
> <PUBCHEM_CACTVS_TAUTO_COUNT>
-1
> <PUBCHEM_COORDINATE_TYPE>
1
5
255
> <PUBCHEM_BONDANNOTATIONS>
30  14  6
37  16  5
27  2  5
26  28  5
23  3  5
24  4  5
47  67  8
47  68  8
25  5  6
64  72  8
64  73  8
67  72  8
68  73  8
$$$$
