514997
  -OEChem-10302200282D
 76 79  0     1  0  0  0  0  0999 V2000
    7.2512   -1.0000    0.0000 O   0  0  0  0  0  0  0  0  0  0  0  0
    4.8958   -4.6160    0.0000 O   0  0  0  0  0  0  0  0  0  0  0  0
    9.8493    0.5000    0.0000 N   0  0  0  0  0  0  0  0  0  0  0  0
    4.8025   -2.8364    0.0000 N   0  0  0  0  0  0  0  0  0  0  0  0
    8.1172   -2.5000    0.0000 N   0  0  0  0  0  0  0  0  0  0  0  0
    9.8493    2.5000    0.0000 C   0  0  0  0  0  0  0  0  0  0  0  0
    8.9833    2.0000    0.0000 C   0  0  0  0  0  0  0  0  0  0  0  0
   10.7153    2.0000    0.0000 C   0  0  0  0  0  0  0  0  0  0  0  0
    8.9833    1.0000    0.0000 C   0  0  0  0  0  0  0  0  0  0  0  0
   10.7153    1.0000    0.0000 C   0  0  0  0  0  0  0  0  0  0  0  0
    9.8493    3.5000    0.0000 C   0  0  0  0  0  0  0  0  0  0  0  0
    9.8493   -0.5000    0.0000 C   0  0  0  0  0  0  0  0  0  0  0  0
    6.3852   -2.5000    0.0000 C   0  0  3  0  0  0  0  0  0  0  0  0
    8.9833   -1.0000    0.0000 C   0  0  0  0  0  0  0  0  0  0  0  0
    5.4716   -2.0933    0.0000 C   0  0  0  0  0  0  0  0  0  0  0  0
    8.9833   -2.0000    0.0000 C   0  0  0  0  0  0  0  0  0  0  0  0
    6.2807   -3.4945    0.0000 C   0  0  0  0  0  0  0  0  0  0  0  0
   10.7153    4.0000    0.0000 C   0  0  0  0  0  0  0  0  0  0  0  0
    7.2512   -2.0000    0.0000 C   0  0  0  0  0  0  0  0  0  0  0  0
    5.3025   -3.7024    0.0000 C   0  0  0  0  0  0  0  0  0  0  0  0
    3.8080   -2.7319    0.0000 C   0  0  0  0  0  0  0  0  0  0  0  0
    3.4013   -1.8183    0.0000 C   0  0  0  0  0  0  0  0  0  0  0  0
    8.1172   -3.5000    0.0000 C   0  0  0  0  0  0  0  0  0  0  0  0
   10.7153    5.0000    0.0000 C   0  0  0  0  0  0  0  0  0  0  0  0
   11.5813    3.5000    0.0000 C   0  0  0  0  0  0  0  0  0  0  0  0
    2.4067   -1.7138    0.0000 C   0  0  0  0  0  0  0  0  0  0  0  0
   11.5813    5.5000    0.0000 C   0  0  0  0  0  0  0  0  0  0  0  0
   12.4474    4.0000    0.0000 C   0  0  0  0  0  0  0  0  0  0  0  0
    7.2512   -4.0000    0.0000 C   0  0  0  0  0  0  0  0  0  0  0  0
    8.9833   -4.0000    0.0000 C   0  0  0  0  0  0  0  0  0  0  0  0
   12.4474    5.0000    0.0000 C   0  0  0  0  0  0  0  0  0  0  0  0
    2.0000   -0.8003    0.0000 C   0  0  0  0  0  0  0  0  0  0  0  0
    7.2512   -5.0000    0.0000 C   0  0  0  0  0  0  0  0  0  0  0  0
    8.9833   -5.0000    0.0000 C   0  0  0  0  0  0  0  0  0  0  0  0
    8.1172   -5.5000    0.0000 C   0  0  0  0  0  0  0  0  0  0  0  0
    9.3124    2.8100    0.0000 H   0  0  0  0  0  0  0  0  0  0  0  0
    8.7712    2.5826    0.0000 H   0  0  0  0  0  0  0  0  0  0  0  0
    8.3727    1.8923    0.0000 H   0  0  0  0  0  0  0  0  0  0  0  0
   11.3259    1.8923    0.0000 H   0  0  0  0  0  0  0  0  0  0  0  0
   10.9274    2.5826    0.0000 H   0  0  0  0  0  0  0  0  0  0  0  0
    8.3727    1.1077    0.0000 H   0  0  0  0  0  0  0  0  0  0  0  0
    8.7712    0.4174    0.0000 H   0  0  0  0  0  0  0  0  0  0  0  0
   10.9274    0.4174    0.0000 H   0  0  0  0  0  0  0  0  0  0  0  0
   11.3259    1.1077    0.0000 H   0  0  0  0  0  0  0  0  0  0  0  0
    9.6372    4.0826    0.0000 H   0  0  0  0  0  0  0  0  0  0  0  0
    9.2387    3.3923    0.0000 H   0  0  0  0  0  0  0  0  0  0  0  0
   10.0613   -1.0826    0.0000 H   0  0  0  0  0  0  0  0  0  0  0  0
   10.4599   -0.3923    0.0000 H   0  0  0  0  0  0  0  0  0  0  0  0
    6.9052   -2.8377    0.0000 H   0  0  0  0  0  0  0  0  0  0  0  0
    8.7712   -0.4174    0.0000 H   0  0  0  0  0  0  0  0  0  0  0  0
    8.3727   -1.1077    0.0000 H   0  0  0  0  0  0  0  0  0  0  0  0
    5.7816   -1.5563    0.0000 H   0  0  0  0  0  0  0  0  0  0  0  0
    4.9701   -1.7288    0.0000 H   0  0  0  0  0  0  0  0  0  0  0  0
    6.3455   -4.1111    0.0000 H   0  0  0  0  0  0  0  0  0  0  0  0
    6.9007   -3.4945    0.0000 H   0  0  0  0  0  0  0  0  0  0  0  0
    9.1953   -2.5826    0.0000 H   0  0  0  0  0  0  0  0  0  0  0  0
    9.5938   -1.8923    0.0000 H   0  0  0  0  0  0  0  0  0  0  0  0
    3.2064   -2.8819    0.0000 H   0  0  0  0  0  0  0  0  0  0  0  0
    3.8512   -3.3504    0.0000 H   0  0  0  0  0  0  0  0  0  0  0  0
    4.0028   -1.6683    0.0000 H   0  0  0  0  0  0  0  0  0  0  0  0
    3.3580   -1.1998    0.0000 H   0  0  0  0  0  0  0  0  0  0  0  0
   10.1784    5.3100    0.0000 H   0  0  0  0  0  0  0  0  0  0  0  0
   11.5813    2.8800    0.0000 H   0  0  0  0  0  0  0  0  0  0  0  0
    1.8052   -1.8638    0.0000 H   0  0  0  0  0  0  0  0  0  0  0  0
    2.4500   -2.3323    0.0000 H   0  0  0  0  0  0  0  0  0  0  0  0
   11.5813    6.1200    0.0000 H   0  0  0  0  0  0  0  0  0  0  0  0
   12.9843    3.6900    0.0000 H   0  0  0  0  0  0  0  0  0  0  0  0
    6.7143   -3.6900    0.0000 H   0  0  0  0  0  0  0  0  0  0  0  0
    9.5202   -3.6900    0.0000 H   0  0  0  0  0  0  0  0  0  0  0  0
   12.9843    5.3100    0.0000 H   0  0  0  0  0  0  0  0  0  0  0  0
    2.5664   -0.5481    0.0000 H   0  0  0  0  0  0  0  0  0  0  0  0
    1.7478   -0.2339    0.0000 H   0  0  0  0  0  0  0  0  0  0  0  0
    1.4336   -1.0524    0.0000 H   0  0  0  0  0  0  0  0  0  0  0  0
    6.7143   -5.3100    0.0000 H   0  0  0  0  0  0  0  0  0  0  0  0
    9.5202   -5.3100    0.0000 H   0  0  0  0  0  0  0  0  0  0  0  0
    8.1172   -6.1200    0.0000 H   0  0  0  0  0  0  0  0  0  0  0  0
  1 19  2  0  0  0  0
  2 20  2  0  0  0  0
  3  9  1  0  0  0  0
  3 10  1  0  0  0  0
  3 12  1  0  0  0  0
  4 15  1  0  0  0  0
  4 20  1  0  0  0  0
  4 21  1  0  0  0  0
  5 16  1  0  0  0  0
  5 19  1  0  0  0  0
  5 23  1  0  0  0  0
  6  7  1  0  0  0  0
  6  8  1  0  0  0  0
  6 11  1  0  0  0  0
  6 36  1  0  0  0  0
  7  9  1  0  0  0  0
  7 37  1  0  0  0  0
  7 38  1  0  0  0  0
  8 10  1  0  0  0  0
  8 39  1  0  0  0  0
  8 40  1  0  0  0  0
  9 41  1  0  0  0  0
  9 42  1  0  0  0  0
 10 43  1  0  0  0  0
 10 44  1  0  0  0  0
 11 18  1  0  0  0  0
 11 45  1  0  0  0  0
 11 46  1  0  0  0  0
 12 14  1  0  0  0  0
 12 47  1  0  0  0  0
 12 48  1  0  0  0  0
 13 15  1  0  0  0  0
 13 17  1  0  0  0  0
 13 19  1  0  0  0  0
 13 49  1  0  0  0  0
 14 16  1  0  0  0  0
 14 50  1  0  0  0  0
 14 51  1  0  0  0  0
 15 52  1  0  0  0  0
 15 53  1  0  0  0  0
 16 56  1  0  0  0  0
 16 57  1  0  0  0  0
 17 20  1  0  0  0  0
 17 54  1  0  0  0  0
 17 55  1  0  0  0  0
 18 24  2  0  0  0  0
 18 25  1  0  0  0  0
 21 22  1  0  0  0  0
 21 58  1  0  0  0  0
 21 59  1  0  0  0  0
 22 26  1  0  0  0  0
 22 60  1  0  0  0  0
 22 61  1  0  0  0  0
 23 29  2  0  0  0  0
 23 30  1  0  0  0  0
 24 27  1  0  0  0  0
 24 62  1  0  0  0  0
 25 28  2  0  0  0  0
 25 63  1  0  0  0  0
 26 32  1  0  0  0  0
 26 64  1  0  0  0  0
 26 65  1  0  0  0  0
 27 31  2  0  0  0  0
 27 66  1  0  0  0  0
 28 31  1  0  0  0  0
 28 67  1  0  0  0  0
 29 33  1  0  0  0  0
 29 68  1  0  0  0  0
 30 34  2  0  0  0  0
 30 69  1  0  0  0  0
 31 70  1  0  0  0  0
 32 71  1  0  0  0  0
 32 72  1  0  0  0  0
 32 73  1  0  0  0  0
 33 35  2  0  0  0  0
 33 74  1  0  0  0  0
 34 35  1  0  0  0  0
 34 75  1  0  0  0  0
 35 76  1  0  0  0  0
M  END
> <PUBCHEM_COMPOUND_CID>
514997
> <PUBCHEM_COMPOUND_CANONICALIZED>
1
> <PUBCHEM_CACTVS_COMPLEXITY>
648
> <PUBCHEM_CACTVS_HBOND_ACCEPTOR>
3
> <PUBCHEM_CACTVS_HBOND_DONOR>
0
> <PUBCHEM_CACTVS_ROTATABLE_BOND>
11
> <PUBCHEM_CACTVS_SUBSKEYS>
AAADcfB7MAAAAAAAAAAAAAAAAAAAAWAAAAA8YIAAAAAAAAABQAAAHgAAAAAADQjBmAQywIMAAACIAiVSUACCAAAhAgAIiAEIZIgIIDrA0ZGEIAhghgDIyAcVgMAOAAAAAAAAAAAAAAAAAAAAAAAAAAAAAA==
> <PUBCHEM_IUPAC_OPENEYE_NAME>
N-[3-(4-benzyl-1-piperidyl)propyl]-1-butyl-5-oxo-N-phenyl-pyrrolidine-3-carboxamide
> <PUBCHEM_IUPAC_CAS_NAME>
1-butyl-5-oxo-N-phenyl-N-[3-[4-(phenylmethyl)-1-piperidinyl]propyl]-3-pyrrolidinecarboxamide
> <PUBCHEM_IUPAC_NAME_MARKUP>
<I>N</I>-[3-(4-benzylpiperidin-1-yl)propyl]-1-butyl-5-oxo-<I>N</I>-phenylpyrrolidine-3-carboxamide
> <PUBCHEM_IUPAC_NAME>
N-[3-(4-benzylpiperidin-1-yl)propyl]-1-butyl-5-oxo-N-phenylpyrrolidine-3-carboxamide
> <PUBCHEM_IUPAC_SYSTEMATIC_NAME>
1-butyl-5-oxidanylidene-N-phenyl-N-[3-[4-(phenylmethyl)piperidin-1-yl]propyl]pyrrolidine-3-carboxamide
> <PUBCHEM_IUPAC_TRADITIONAL_NAME>
N-[3-(4-benzylpiperidino)propyl]-1-butyl-5-keto-N-phenyl-pyrrolidine-3-carboxamide
> <PUBCHEM_IUPAC_INCHI>
InChI=1S/C30H41N3O2/c1-2-3-18-32-24-27(23-29(32)34)30(35)33(28-13-8-5-9-14-28)19-10-17-31-20-15-26(16-21-31)22-25-11-6-4-7-12-25/h4-9,11-14,26-27H,2-3,10,15-24H2,1H3
> <PUBCHEM_IUPAC_INCHIKEY>
OSIBQQYUPGEQCY-UHFFFAOYSA-N
> <PUBCHEM_XLOGP3_AA>
4.8
> <PUBCHEM_EXACT_MASS>
475.31987756
> <PUBCHEM_MOLECULAR_FORMULA>
C30H41N3O2
> <PUBCHEM_MOLECULAR_WEIGHT>
475.7
> <PUBCHEM_OPENEYE_CAN_SMILES>
CCCCN1CC(CC1=O)C(=O)N(CCCN2CCC(CC2)CC3=CC=CC=C3)C4=CC=CC=C4
> <PUBCHEM_OPENEYE_ISO_SMILES>
CCCCN1CC(CC1=O)C(=O)N(CCCN2CCC(CC2)CC3=CC=CC=C3)C4=CC=CC=C4
> <PUBCHEM_CACTVS_TPSA>
43.9
> <PUBCHEM_MONOISOTOPIC_WEIGHT>
475.31987756
> <PUBCHEM_TOTAL_CHARGE>
0
> <PUBCHEM_HEAVY_ATOM_COUNT>
35
> <PUBCHEM_ATOM_DEF_STEREO_COUNT>
0
> <PUBCHEM_ATOM_UDEF_STEREO_COUNT>
1
> <PUBCHEM_BOND_DEF_STEREO_COUNT>
0
> <PUBCHEM_BOND_UDEF_STEREO_COUNT>
0
> <PUBCHEM_ISOTOPIC_ATOM_COUNT>
0
> <PUBCHEM_COMPONENT_COUNT>
1
> <PUBCHEM_CACTVS_TAUTO_COUNT>
-1
> <PUBCHEM_COORDINATE_TYPE>
1
5
255
> <PUBCHEM_BONDANNOTATIONS>
13  19  3
18  24  8
18  25  8
23  29  8
23  30  8
24  27  8
25  28  8
27  31  8
28  31  8
29  33  8
30  34  8
33  35  8
34  35  8
$$$$
