514996
  -OEChem-10302200282D
 67 70  0     1  0  0  0  0  0999 V2000
    9.7942   -2.9239    0.0000 Cl  0  0  0  0  0  0  0  0  0  0  0  0
   11.5263   -3.9239    0.0000 Cl  0  0  0  0  0  0  0  0  0  0  0  0
    2.0000    0.5761    0.0000 F   0  0  0  0  0  0  0  0  0  0  0  0
   13.2583    0.0761    0.0000 O   0  0  0  0  0  0  0  0  0  0  0  0
   11.3045    3.9239    0.0000 O   0  0  0  0  0  0  0  0  0  0  0  0
    8.0622    0.0761    0.0000 N   0  0  0  0  0  0  0  0  0  0  0  0
   11.5263    0.0761    0.0000 N   0  0  0  0  0  0  0  0  0  0  0  0
   12.8923    3.1149    0.0000 N   0  0  0  0  0  0  0  0  0  0  0  0
    6.3301   -0.9239    0.0000 C   0  0  0  0  0  0  0  0  0  0  0  0
    6.3301    0.0761    0.0000 C   0  0  0  0  0  0  0  0  0  0  0  0
    7.1962   -1.4239    0.0000 C   0  0  0  0  0  0  0  0  0  0  0  0
    7.1962    0.5761    0.0000 C   0  0  0  0  0  0  0  0  0  0  0  0
    8.0622   -0.9239    0.0000 C   0  0  0  0  0  0  0  0  0  0  0  0
    5.4641   -1.4239    0.0000 C   0  0  0  0  0  0  0  0  0  0  0  0
    8.9282    0.5761    0.0000 C   0  0  0  0  0  0  0  0  0  0  0  0
    9.7942    0.0761    0.0000 C   0  0  0  0  0  0  0  0  0  0  0  0
   12.3923    1.5761    0.0000 C   0  0  3  0  0  0  0  0  0  0  0  0
   10.6603    0.5761    0.0000 C   0  0  0  0  0  0  0  0  0  0  0  0
    4.5981   -0.9239    0.0000 C   0  0  0  0  0  0  0  0  0  0  0  0
   13.2013    2.1639    0.0000 C   0  0  0  0  0  0  0  0  0  0  0  0
   11.5833    2.1639    0.0000 C   0  0  0  0  0  0  0  0  0  0  0  0
   12.3923    0.5761    0.0000 C   0  0  0  0  0  0  0  0  0  0  0  0
   11.8923    3.1149    0.0000 C   0  0  0  0  0  0  0  0  0  0  0  0
    3.7320   -1.4239    0.0000 C   0  0  0  0  0  0  0  0  0  0  0  0
    4.5981    0.0761    0.0000 C   0  0  0  0  0  0  0  0  0  0  0  0
   11.5263   -0.9239    0.0000 C   0  0  0  0  0  0  0  0  0  0  0  0
   13.4801    3.9239    0.0000 C   0  0  0  0  0  0  0  0  0  0  0  0
    2.8660   -0.9239    0.0000 C   0  0  0  0  0  0  0  0  0  0  0  0
    3.7320    0.5761    0.0000 C   0  0  0  0  0  0  0  0  0  0  0  0
   10.6603   -1.4239    0.0000 C   0  0  0  0  0  0  0  0  0  0  0  0
   12.3923   -1.4239    0.0000 C   0  0  0  0  0  0  0  0  0  0  0  0
    2.8660    0.0761    0.0000 C   0  0  0  0  0  0  0  0  0  0  0  0
   10.6603   -2.4239    0.0000 C   0  0  0  0  0  0  0  0  0  0  0  0
   12.3923   -2.4239    0.0000 C   0  0  0  0  0  0  0  0  0  0  0  0
   11.5263   -2.9239    0.0000 C   0  0  0  0  0  0  0  0  0  0  0  0
    5.7932   -0.6139    0.0000 H   0  0  0  0  0  0  0  0  0  0  0  0
    6.1181    0.6587    0.0000 H   0  0  0  0  0  0  0  0  0  0  0  0
    5.7196   -0.0316    0.0000 H   0  0  0  0  0  0  0  0  0  0  0  0
    6.7976   -1.8989    0.0000 H   0  0  0  0  0  0  0  0  0  0  0  0
    7.5947   -1.8989    0.0000 H   0  0  0  0  0  0  0  0  0  0  0  0
    7.5947    1.0510    0.0000 H   0  0  0  0  0  0  0  0  0  0  0  0
    6.7976    1.0510    0.0000 H   0  0  0  0  0  0  0  0  0  0  0  0
    8.2742   -1.5065    0.0000 H   0  0  0  0  0  0  0  0  0  0  0  0
    8.6728   -0.8163    0.0000 H   0  0  0  0  0  0  0  0  0  0  0  0
    5.0656   -1.8989    0.0000 H   0  0  0  0  0  0  0  0  0  0  0  0
    5.8626   -1.8989    0.0000 H   0  0  0  0  0  0  0  0  0  0  0  0
    9.3267    1.0510    0.0000 H   0  0  0  0  0  0  0  0  0  0  0  0
    8.5297    1.0510    0.0000 H   0  0  0  0  0  0  0  0  0  0  0  0
    9.3957   -0.3989    0.0000 H   0  0  0  0  0  0  0  0  0  0  0  0
   10.1928   -0.3989    0.0000 H   0  0  0  0  0  0  0  0  0  0  0  0
   11.8399    1.2946    0.0000 H   0  0  0  0  0  0  0  0  0  0  0  0
   11.0588    1.0510    0.0000 H   0  0  0  0  0  0  0  0  0  0  0  0
   10.2617    1.0510    0.0000 H   0  0  0  0  0  0  0  0  0  0  0  0
   13.5113    1.6269    0.0000 H   0  0  0  0  0  0  0  0  0  0  0  0
   13.7677    2.4160    0.0000 H   0  0  0  0  0  0  0  0  0  0  0  0
   11.0169    2.4160    0.0000 H   0  0  0  0  0  0  0  0  0  0  0  0
   11.2733    1.6269    0.0000 H   0  0  0  0  0  0  0  0  0  0  0  0
    3.7320   -2.0439    0.0000 H   0  0  0  0  0  0  0  0  0  0  0  0
    5.1350    0.3861    0.0000 H   0  0  0  0  0  0  0  0  0  0  0  0
   13.9817    3.5595    0.0000 H   0  0  0  0  0  0  0  0  0  0  0  0
   13.8445    4.4255    0.0000 H   0  0  0  0  0  0  0  0  0  0  0  0
   12.9785    4.2884    0.0000 H   0  0  0  0  0  0  0  0  0  0  0  0
    2.3291   -1.2339    0.0000 H   0  0  0  0  0  0  0  0  0  0  0  0
    3.7320    1.1961    0.0000 H   0  0  0  0  0  0  0  0  0  0  0  0
   10.1233   -1.1139    0.0000 H   0  0  0  0  0  0  0  0  0  0  0  0
   12.9292   -1.1139    0.0000 H   0  0  0  0  0  0  0  0  0  0  0  0
   12.9292   -2.7339    0.0000 H   0  0  0  0  0  0  0  0  0  0  0  0
  1 33  1  0  0  0  0
  2 35  1  0  0  0  0
  3 32  1  0  0  0  0
  4 22  2  0  0  0  0
  5 23  2  0  0  0  0
  6 12  1  0  0  0  0
  6 13  1  0  0  0  0
  6 15  1  0  0  0  0
  7 18  1  0  0  0  0
  7 22  1  0  0  0  0
  7 26  1  0  0  0  0
  8 20  1  0  0  0  0
  8 23  1  0  0  0  0
  8 27  1  0  0  0  0
  9 10  1  0  0  0  0
  9 11  1  0  0  0  0
  9 14  1  0  0  0  0
  9 36  1  0  0  0  0
 10 12  1  0  0  0  0
 10 37  1  0  0  0  0
 10 38  1  0  0  0  0
 11 13  1  0  0  0  0
 11 39  1  0  0  0  0
 11 40  1  0  0  0  0
 12 41  1  0  0  0  0
 12 42  1  0  0  0  0
 13 43  1  0  0  0  0
 13 44  1  0  0  0  0
 14 19  1  0  0  0  0
 14 45  1  0  0  0  0
 14 46  1  0  0  0  0
 15 16  1  0  0  0  0
 15 47  1  0  0  0  0
 15 48  1  0  0  0  0
 16 18  1  0  0  0  0
 16 49  1  0  0  0  0
 16 50  1  0  0  0  0
 17 20  1  0  0  0  0
 17 21  1  0  0  0  0
 17 22  1  0  0  0  0
 17 51  1  0  0  0  0
 18 52  1  0  0  0  0
 18 53  1  0  0  0  0
 19 24  2  0  0  0  0
 19 25  1  0  0  0  0
 20 54  1  0  0  0  0
 20 55  1  0  0  0  0
 21 23  1  0  0  0  0
 21 56  1  0  0  0  0
 21 57  1  0  0  0  0
 24 28  1  0  0  0  0
 24 58  1  0  0  0  0
 25 29  2  0  0  0  0
 25 59  1  0  0  0  0
 26 30  2  0  0  0  0
 26 31  1  0  0  0  0
 27 60  1  0  0  0  0
 27 61  1  0  0  0  0
 27 62  1  0  0  0  0
 28 32  2  0  0  0  0
 28 63  1  0  0  0  0
 29 32  1  0  0  0  0
 29 64  1  0  0  0  0
 30 33  1  0  0  0  0
 30 65  1  0  0  0  0
 31 34  2  0  0  0  0
 31 66  1  0  0  0  0
 33 35  2  0  0  0  0
 34 35  1  0  0  0  0
 34 67  1  0  0  0  0
M  END
> <PUBCHEM_COMPOUND_CID>
514996
> <PUBCHEM_COMPOUND_CANONICALIZED>
1
> <PUBCHEM_CACTVS_COMPLEXITY>
713
> <PUBCHEM_CACTVS_HBOND_ACCEPTOR>
4
> <PUBCHEM_CACTVS_HBOND_DONOR>
0
> <PUBCHEM_CACTVS_ROTATABLE_BOND>
8
> <PUBCHEM_CACTVS_SUBSKEYS>
AAADcfB7MQAGAAAAAAAAAAAAAAAAAWAAAAA8YIAAAAAAAAABQAAAHwIAAAAADQrBmCwywIMAAACIAiVSUACCAAAhBwAIikEIZogIIDrB05GEIAhghgDIyAcVgMAOAABAAAIAAAQAAIAABAAACAAAAAAAAA==
> <PUBCHEM_IUPAC_OPENEYE_NAME>
N-(3,4-dichlorophenyl)-N-[3-[4-[(4-fluorophenyl)methyl]-1-piperidyl]propyl]-1-methyl-5-oxo-pyrrolidine-3-carboxamide
> <PUBCHEM_IUPAC_CAS_NAME>
N-(3,4-dichlorophenyl)-N-[3-[4-[(4-fluorophenyl)methyl]-1-piperidinyl]propyl]-1-methyl-5-oxo-3-pyrrolidinecarboxamide
> <PUBCHEM_IUPAC_NAME_MARKUP>
<I>N</I>-(3,4-dichlorophenyl)-<I>N</I>-[3-[4-[(4-fluorophenyl)methyl]piperidin-1-yl]propyl]-1-methyl-5-oxopyrrolidine-3-carboxamide
> <PUBCHEM_IUPAC_NAME>
N-(3,4-dichlorophenyl)-N-[3-[4-[(4-fluorophenyl)methyl]piperidin-1-yl]propyl]-1-methyl-5-oxopyrrolidine-3-carboxamide
> <PUBCHEM_IUPAC_SYSTEMATIC_NAME>
N-(3,4-dichlorophenyl)-N-[3-[4-[(4-fluorophenyl)methyl]piperidin-1-yl]propyl]-1-methyl-5-oxidanylidene-pyrrolidine-3-carboxamide
> <PUBCHEM_IUPAC_TRADITIONAL_NAME>
N-(3,4-dichlorophenyl)-N-[3-[4-(4-fluorobenzyl)piperidino]propyl]-5-keto-1-methyl-pyrrolidine-3-carboxamide
> <PUBCHEM_IUPAC_INCHI>
InChI=1S/C27H32Cl2FN3O2/c1-31-18-21(16-26(31)34)27(35)33(23-7-8-24(28)25(29)17-23)12-2-11-32-13-9-20(10-14-32)15-19-3-5-22(30)6-4-19/h3-8,17,20-21H,2,9-16,18H2,1H3
> <PUBCHEM_IUPAC_INCHIKEY>
MTFQBYPFEMFFPR-UHFFFAOYSA-N
> <PUBCHEM_XLOGP3_AA>
4.9
> <PUBCHEM_EXACT_MASS>
519.1855608
> <PUBCHEM_MOLECULAR_FORMULA>
C27H32Cl2FN3O2
> <PUBCHEM_MOLECULAR_WEIGHT>
520.5
> <PUBCHEM_OPENEYE_CAN_SMILES>
CN1CC(CC1=O)C(=O)N(CCCN2CCC(CC2)CC3=CC=C(C=C3)F)C4=CC(=C(C=C4)Cl)Cl
> <PUBCHEM_OPENEYE_ISO_SMILES>
CN1CC(CC1=O)C(=O)N(CCCN2CCC(CC2)CC3=CC=C(C=C3)F)C4=CC(=C(C=C4)Cl)Cl
> <PUBCHEM_CACTVS_TPSA>
43.9
> <PUBCHEM_MONOISOTOPIC_WEIGHT>
519.1855608
> <PUBCHEM_TOTAL_CHARGE>
0
> <PUBCHEM_HEAVY_ATOM_COUNT>
35
> <PUBCHEM_ATOM_DEF_STEREO_COUNT>
0
> <PUBCHEM_ATOM_UDEF_STEREO_COUNT>
1
> <PUBCHEM_BOND_DEF_STEREO_COUNT>
0
> <PUBCHEM_BOND_UDEF_STEREO_COUNT>
0
> <PUBCHEM_ISOTOPIC_ATOM_COUNT>
0
> <PUBCHEM_COMPONENT_COUNT>
1
> <PUBCHEM_CACTVS_TAUTO_COUNT>
-1
> <PUBCHEM_COORDINATE_TYPE>
1
5
255
> <PUBCHEM_BONDANNOTATIONS>
17  22  3
19  24  8
19  25  8
24  28  8
25  29  8
26  30  8
26  31  8
28  32  8
29  32  8
30  33  8
31  34  8
33  35  8
34  35  8
$$$$
