514903
  -OEChem-10302200282D
 35 37  0     1  0  0  0  0  0999 V2000
   10.7205   -2.2001    0.0000 Cl  0  0  0  0  0  0  0  0  0  0  0  0
    2.8660    1.3341    0.0000 S   0  0  0  0  0  0  0  0  0  0  0  0
    6.3580   -0.7006    0.0000 O   0  0  0  0  0  0  0  0  0  0  0  0
    2.3660    0.4680    0.0000 O   0  0  0  0  0  0  0  0  0  0  0  0
    3.3660    2.2001    0.0000 O   0  0  0  0  0  0  0  0  0  0  0  0
    4.5981   -0.6659    0.0000 N   0  0  0  0  0  0  0  0  0  0  0  0
    7.2641   -0.1868    0.0000 C   0  0  3  0  0  0  0  0  0  0  0  0
    7.2641    0.8549    0.0000 C   0  0  0  0  0  0  0  0  0  0  0  0
    6.3580    1.3687    0.0000 C   0  0  0  0  0  0  0  0  0  0  0  0
    5.4641    0.8341    0.0000 C   0  0  0  0  0  0  0  0  0  0  0  0
    5.4641   -0.1659    0.0000 C   0  0  0  0  0  0  0  0  0  0  0  0
    8.1282   -0.6901    0.0000 C   0  0  0  0  0  0  0  0  0  0  0  0
    4.5981    1.3341    0.0000 C   0  0  0  0  0  0  0  0  0  0  0  0
    3.7320    0.8341    0.0000 C   0  0  0  0  0  0  0  0  0  0  0  0
    8.9962   -0.1934    0.0000 C   0  0  0  0  0  0  0  0  0  0  0  0
    8.1244   -1.6901    0.0000 C   0  0  0  0  0  0  0  0  0  0  0  0
    3.7320   -0.1659    0.0000 C   0  0  0  0  0  0  0  0  0  0  0  0
    9.8602   -0.6968    0.0000 C   0  0  0  0  0  0  0  0  0  0  0  0
    8.9884   -2.1934    0.0000 C   0  0  0  0  0  0  0  0  0  0  0  0
    2.0000    1.8341    0.0000 C   0  0  0  0  0  0  0  0  0  0  0  0
    9.8564   -1.6968    0.0000 C   0  0  0  0  0  0  0  0  0  0  0  0
    7.2605   -0.8067    0.0000 H   0  0  0  0  0  0  0  0  0  0  0  0
    7.8750    0.7488    0.0000 H   0  0  0  0  0  0  0  0  0  0  0  0
    7.4732    1.4386    0.0000 H   0  0  0  0  0  0  0  0  0  0  0  0
    6.7517    1.8477    0.0000 H   0  0  0  0  0  0  0  0  0  0  0  0
    5.9534    1.8385    0.0000 H   0  0  0  0  0  0  0  0  0  0  0  0
    4.5981    1.9541    0.0000 H   0  0  0  0  0  0  0  0  0  0  0  0
    8.9985    0.4266    0.0000 H   0  0  0  0  0  0  0  0  0  0  0  0
    7.5862   -1.9980    0.0000 H   0  0  0  0  0  0  0  0  0  0  0  0
    3.1951   -0.4759    0.0000 H   0  0  0  0  0  0  0  0  0  0  0  0
   10.3984   -0.3888    0.0000 H   0  0  0  0  0  0  0  0  0  0  0  0
    8.9860   -2.8134    0.0000 H   0  0  0  0  0  0  0  0  0  0  0  0
    2.3100    2.3710    0.0000 H   0  0  0  0  0  0  0  0  0  0  0  0
    1.4631    2.1441    0.0000 H   0  0  0  0  0  0  0  0  0  0  0  0
    1.6900    1.2971    0.0000 H   0  0  0  0  0  0  0  0  0  0  0  0
  1 21  1  0  0  0  0
  2  4  2  0  0  0  0
  2  5  2  0  0  0  0
  2 14  1  0  0  0  0
  2 20  1  0  0  0  0
  3  7  1  0  0  0  0
  3 11  1  0  0  0  0
  6 11  1  0  0  0  0
  6 17  2  0  0  0  0
  7  8  1  0  0  0  0
  7 12  1  0  0  0  0
  7 22  1  0  0  0  0
  8  9  1  0  0  0  0
  8 23  1  0  0  0  0
  8 24  1  0  0  0  0
  9 10  1  0  0  0  0
  9 25  1  0  0  0  0
  9 26  1  0  0  0  0
 10 11  2  0  0  0  0
 10 13  1  0  0  0  0
 12 15  2  0  0  0  0
 12 16  1  0  0  0  0
 13 14  2  0  0  0  0
 13 27  1  0  0  0  0
 14 17  1  0  0  0  0
 15 18  1  0  0  0  0
 15 28  1  0  0  0  0
 16 19  2  0  0  0  0
 16 29  1  0  0  0  0
 17 30  1  0  0  0  0
 18 21  2  0  0  0  0
 18 31  1  0  0  0  0
 19 21  1  0  0  0  0
 19 32  1  0  0  0  0
 20 33  1  0  0  0  0
 20 34  1  0  0  0  0
 20 35  1  0  0  0  0
M  END
> <PUBCHEM_COMPOUND_CID>
514903
> <PUBCHEM_COMPOUND_CANONICALIZED>
1
> <PUBCHEM_CACTVS_COMPLEXITY>
456
> <PUBCHEM_CACTVS_HBOND_ACCEPTOR>
4
> <PUBCHEM_CACTVS_HBOND_DONOR>
0
> <PUBCHEM_CACTVS_ROTATABLE_BOND>
2
> <PUBCHEM_CACTVS_SUBSKEYS>
AAADccByMABEAAAAAAAAAAAAAAAAAAAAAAA8SIAAAAAAAACxwAAAHgYAAAAADBbh2ia+hZIIFAqgAjBnRHDCiCAxLTAI2DwsTpgMJuLls5uOOCjkwBHI6AeQ0OIOBAAAAAAAAAAIAAAAAAAAAAAAAAAAAA==
> <PUBCHEM_IUPAC_OPENEYE_NAME>
2-(4-chlorophenyl)-6-methylsulfonyl-3,4-dihydro-2H-pyrano[2,3-b]pyridine
> <PUBCHEM_IUPAC_CAS_NAME>
2-(4-chlorophenyl)-6-methylsulfonyl-3,4-dihydro-2H-pyrano[2,3-b]pyridine
> <PUBCHEM_IUPAC_NAME_MARKUP>
2-(4-chlorophenyl)-6-methylsulfonyl-3,4-dihydro-2<I>H</I>-pyrano[2,3-b]pyridine
> <PUBCHEM_IUPAC_NAME>
2-(4-chlorophenyl)-6-methylsulfonyl-3,4-dihydro-2H-pyrano[2,3-b]pyridine
> <PUBCHEM_IUPAC_SYSTEMATIC_NAME>
2-(4-chlorophenyl)-6-methylsulfonyl-3,4-dihydro-2H-pyrano[2,3-b]pyridine
> <PUBCHEM_IUPAC_TRADITIONAL_NAME>
2-(4-chlorophenyl)-6-mesyl-3,4-dihydro-2H-pyrano[2,3-b]pyridine
> <PUBCHEM_IUPAC_INCHI>
InChI=1S/C15H14ClNO3S/c1-21(18,19)13-8-11-4-7-14(20-15(11)17-9-13)10-2-5-12(16)6-3-10/h2-3,5-6,8-9,14H,4,7H2,1H3
> <PUBCHEM_IUPAC_INCHIKEY>
PTCGDPJRBUOVKQ-UHFFFAOYSA-N
> <PUBCHEM_XLOGP3_AA>
2.9
> <PUBCHEM_EXACT_MASS>
323.0382922
> <PUBCHEM_MOLECULAR_FORMULA>
C15H14ClNO3S
> <PUBCHEM_MOLECULAR_WEIGHT>
323.8
> <PUBCHEM_OPENEYE_CAN_SMILES>
CS(=O)(=O)C1=CC2=C(N=C1)OC(CC2)C3=CC=C(C=C3)Cl
> <PUBCHEM_OPENEYE_ISO_SMILES>
CS(=O)(=O)C1=CC2=C(N=C1)OC(CC2)C3=CC=C(C=C3)Cl
> <PUBCHEM_CACTVS_TPSA>
64.6
> <PUBCHEM_MONOISOTOPIC_WEIGHT>
323.0382922
> <PUBCHEM_TOTAL_CHARGE>
0
> <PUBCHEM_HEAVY_ATOM_COUNT>
21
> <PUBCHEM_ATOM_DEF_STEREO_COUNT>
0
> <PUBCHEM_ATOM_UDEF_STEREO_COUNT>
1
> <PUBCHEM_BOND_DEF_STEREO_COUNT>
0
> <PUBCHEM_BOND_UDEF_STEREO_COUNT>
0
> <PUBCHEM_ISOTOPIC_ATOM_COUNT>
0
> <PUBCHEM_COMPONENT_COUNT>
1
> <PUBCHEM_CACTVS_TAUTO_COUNT>
1
> <PUBCHEM_COORDINATE_TYPE>
1
5
255
> <PUBCHEM_BONDANNOTATIONS>
10  11  8
10  13  8
12  15  8
12  16  8
13  14  8
14  17  8
15  18  8
16  19  8
18  21  8
19  21  8
6  11  8
6  17  8
7  12  3
$$$$
