514988
  -OEChem-10302200282D
 67 70  0     1  0  0  0  0  0999 V2000
    8.9282   -2.9239    0.0000 Cl  0  0  0  0  0  0  0  0  0  0  0  0
   10.6603   -3.9239    0.0000 F   0  0  0  0  0  0  0  0  0  0  0  0
   12.3923    0.0761    0.0000 O   0  0  0  0  0  0  0  0  0  0  0  0
   10.4385    3.9239    0.0000 O   0  0  0  0  0  0  0  0  0  0  0  0
    7.1962    0.0761    0.0000 N   0  0  0  0  0  0  0  0  0  0  0  0
   10.6603    0.0761    0.0000 N   0  0  0  0  0  0  0  0  0  0  0  0
   12.0263    3.1149    0.0000 N   0  0  0  0  0  0  0  0  0  0  0  0
    5.4641   -0.9239    0.0000 C   0  0  0  0  0  0  0  0  0  0  0  0
    5.4641    0.0761    0.0000 C   0  0  0  0  0  0  0  0  0  0  0  0
    6.3301   -1.4239    0.0000 C   0  0  0  0  0  0  0  0  0  0  0  0
    6.3301    0.5761    0.0000 C   0  0  0  0  0  0  0  0  0  0  0  0
    7.1962   -0.9239    0.0000 C   0  0  0  0  0  0  0  0  0  0  0  0
    4.5981   -1.4239    0.0000 C   0  0  0  0  0  0  0  0  0  0  0  0
    8.0622    0.5761    0.0000 C   0  0  0  0  0  0  0  0  0  0  0  0
    8.9282    0.0761    0.0000 C   0  0  0  0  0  0  0  0  0  0  0  0
   11.5263    1.5761    0.0000 C   0  0  3  0  0  0  0  0  0  0  0  0
    9.7942    0.5761    0.0000 C   0  0  0  0  0  0  0  0  0  0  0  0
    3.7320   -0.9239    0.0000 C   0  0  0  0  0  0  0  0  0  0  0  0
   12.3353    2.1639    0.0000 C   0  0  0  0  0  0  0  0  0  0  0  0
   10.7173    2.1639    0.0000 C   0  0  0  0  0  0  0  0  0  0  0  0
   11.5263    0.5761    0.0000 C   0  0  0  0  0  0  0  0  0  0  0  0
   11.0263    3.1149    0.0000 C   0  0  0  0  0  0  0  0  0  0  0  0
    2.8660   -1.4239    0.0000 C   0  0  0  0  0  0  0  0  0  0  0  0
    3.7320    0.0761    0.0000 C   0  0  0  0  0  0  0  0  0  0  0  0
   10.6603   -0.9239    0.0000 C   0  0  0  0  0  0  0  0  0  0  0  0
   12.6141    3.9239    0.0000 C   0  0  0  0  0  0  0  0  0  0  0  0
    2.0000   -0.9239    0.0000 C   0  0  0  0  0  0  0  0  0  0  0  0
    2.8660    0.5761    0.0000 C   0  0  0  0  0  0  0  0  0  0  0  0
    9.7942   -1.4239    0.0000 C   0  0  0  0  0  0  0  0  0  0  0  0
   11.5263   -1.4239    0.0000 C   0  0  0  0  0  0  0  0  0  0  0  0
    2.0000    0.0761    0.0000 C   0  0  0  0  0  0  0  0  0  0  0  0
    9.7942   -2.4239    0.0000 C   0  0  0  0  0  0  0  0  0  0  0  0
   11.5263   -2.4239    0.0000 C   0  0  0  0  0  0  0  0  0  0  0  0
   10.6603   -2.9239    0.0000 C   0  0  0  0  0  0  0  0  0  0  0  0
    5.4641   -1.5439    0.0000 H   0  0  0  0  0  0  0  0  0  0  0  0
    5.2520    0.6587    0.0000 H   0  0  0  0  0  0  0  0  0  0  0  0
    4.8535   -0.0316    0.0000 H   0  0  0  0  0  0  0  0  0  0  0  0
    5.9316   -1.8989    0.0000 H   0  0  0  0  0  0  0  0  0  0  0  0
    6.7287   -1.8989    0.0000 H   0  0  0  0  0  0  0  0  0  0  0  0
    6.7287    1.0510    0.0000 H   0  0  0  0  0  0  0  0  0  0  0  0
    5.9316    1.0510    0.0000 H   0  0  0  0  0  0  0  0  0  0  0  0
    7.4082   -1.5065    0.0000 H   0  0  0  0  0  0  0  0  0  0  0  0
    7.8067   -0.8163    0.0000 H   0  0  0  0  0  0  0  0  0  0  0  0
    4.1996   -1.8989    0.0000 H   0  0  0  0  0  0  0  0  0  0  0  0
    4.9966   -1.8989    0.0000 H   0  0  0  0  0  0  0  0  0  0  0  0
    8.4607    1.0510    0.0000 H   0  0  0  0  0  0  0  0  0  0  0  0
    7.6636    1.0510    0.0000 H   0  0  0  0  0  0  0  0  0  0  0  0
    8.5297   -0.3989    0.0000 H   0  0  0  0  0  0  0  0  0  0  0  0
    9.3267   -0.3989    0.0000 H   0  0  0  0  0  0  0  0  0  0  0  0
   10.9739    1.2946    0.0000 H   0  0  0  0  0  0  0  0  0  0  0  0
   10.1928    1.0510    0.0000 H   0  0  0  0  0  0  0  0  0  0  0  0
    9.3957    1.0510    0.0000 H   0  0  0  0  0  0  0  0  0  0  0  0
   12.6453    1.6269    0.0000 H   0  0  0  0  0  0  0  0  0  0  0  0
   12.9017    2.4160    0.0000 H   0  0  0  0  0  0  0  0  0  0  0  0
   10.1509    2.4160    0.0000 H   0  0  0  0  0  0  0  0  0  0  0  0
   10.4073    1.6269    0.0000 H   0  0  0  0  0  0  0  0  0  0  0  0
    2.8660   -2.0439    0.0000 H   0  0  0  0  0  0  0  0  0  0  0  0
    4.2690    0.3861    0.0000 H   0  0  0  0  0  0  0  0  0  0  0  0
   13.1157    3.5595    0.0000 H   0  0  0  0  0  0  0  0  0  0  0  0
   12.9785    4.4255    0.0000 H   0  0  0  0  0  0  0  0  0  0  0  0
   12.1125    4.2884    0.0000 H   0  0  0  0  0  0  0  0  0  0  0  0
    1.4631   -1.2339    0.0000 H   0  0  0  0  0  0  0  0  0  0  0  0
    2.8660    1.1961    0.0000 H   0  0  0  0  0  0  0  0  0  0  0  0
    9.2573   -1.1139    0.0000 H   0  0  0  0  0  0  0  0  0  0  0  0
   12.0632   -1.1139    0.0000 H   0  0  0  0  0  0  0  0  0  0  0  0
    1.4631    0.3861    0.0000 H   0  0  0  0  0  0  0  0  0  0  0  0
   12.0632   -2.7339    0.0000 H   0  0  0  0  0  0  0  0  0  0  0  0
  1 32  1  0  0  0  0
  2 34  1  0  0  0  0
  3 21  2  0  0  0  0
  4 22  2  0  0  0  0
  5 11  1  0  0  0  0
  5 12  1  0  0  0  0
  5 14  1  0  0  0  0
  6 17  1  0  0  0  0
  6 21  1  0  0  0  0
  6 25  1  0  0  0  0
  7 19  1  0  0  0  0
  7 22  1  0  0  0  0
  7 26  1  0  0  0  0
  8  9  1  0  0  0  0
  8 10  1  0  0  0  0
  8 13  1  0  0  0  0
  8 35  1  0  0  0  0
  9 11  1  0  0  0  0
  9 36  1  0  0  0  0
  9 37  1  0  0  0  0
 10 12  1  0  0  0  0
 10 38  1  0  0  0  0
 10 39  1  0  0  0  0
 11 40  1  0  0  0  0
 11 41  1  0  0  0  0
 12 42  1  0  0  0  0
 12 43  1  0  0  0  0
 13 18  1  0  0  0  0
 13 44  1  0  0  0  0
 13 45  1  0  0  0  0
 14 15  1  0  0  0  0
 14 46  1  0  0  0  0
 14 47  1  0  0  0  0
 15 17  1  0  0  0  0
 15 48  1  0  0  0  0
 15 49  1  0  0  0  0
 16 19  1  0  0  0  0
 16 20  1  0  0  0  0
 16 21  1  0  0  0  0
 16 50  1  0  0  0  0
 17 51  1  0  0  0  0
 17 52  1  0  0  0  0
 18 23  2  0  0  0  0
 18 24  1  0  0  0  0
 19 53  1  0  0  0  0
 19 54  1  0  0  0  0
 20 22  1  0  0  0  0
 20 55  1  0  0  0  0
 20 56  1  0  0  0  0
 23 27  1  0  0  0  0
 23 57  1  0  0  0  0
 24 28  2  0  0  0  0
 24 58  1  0  0  0  0
 25 29  2  0  0  0  0
 25 30  1  0  0  0  0
 26 59  1  0  0  0  0
 26 60  1  0  0  0  0
 26 61  1  0  0  0  0
 27 31  2  0  0  0  0
 27 62  1  0  0  0  0
 28 31  1  0  0  0  0
 28 63  1  0  0  0  0
 29 32  1  0  0  0  0
 29 64  1  0  0  0  0
 30 33  2  0  0  0  0
 30 65  1  0  0  0  0
 31 66  1  0  0  0  0
 32 34  2  0  0  0  0
 33 34  1  0  0  0  0
 33 67  1  0  0  0  0
M  END
> <PUBCHEM_COMPOUND_CID>
514988
> <PUBCHEM_COMPOUND_CANONICALIZED>
1
> <PUBCHEM_CACTVS_COMPLEXITY>
681
> <PUBCHEM_CACTVS_HBOND_ACCEPTOR>
4
> <PUBCHEM_CACTVS_HBOND_DONOR>
0
> <PUBCHEM_CACTVS_ROTATABLE_BOND>
8
> <PUBCHEM_CACTVS_SUBSKEYS>
AAADcfB7MQAEAAAAAAAAAAAAAAAAAWAAAAA8YIAAAAAAAAABQAAAHwIAAAAADQrBmCwywIMAAACIAiVSUACCAAAhBwAIiAEIZogIIDrB05GEIAhghgDIyAcVgMAOAAAAAAIAAAAAAAAABAAAAAAAAAAAAA==
> <PUBCHEM_IUPAC_OPENEYE_NAME>
N-[3-(4-benzyl-1-piperidyl)propyl]-N-(3-chloro-4-fluoro-phenyl)-1-methyl-5-oxo-pyrrolidine-3-carboxamide
> <PUBCHEM_IUPAC_CAS_NAME>
N-(3-chloro-4-fluorophenyl)-1-methyl-5-oxo-N-[3-[4-(phenylmethyl)-1-piperidinyl]propyl]-3-pyrrolidinecarboxamide
> <PUBCHEM_IUPAC_NAME_MARKUP>
<I>N</I>-[3-(4-benzylpiperidin-1-yl)propyl]-<I>N</I>-(3-chloro-4-fluorophenyl)-1-methyl-5-oxopyrrolidine-3-carboxamide
> <PUBCHEM_IUPAC_NAME>
N-[3-(4-benzylpiperidin-1-yl)propyl]-N-(3-chloro-4-fluorophenyl)-1-methyl-5-oxopyrrolidine-3-carboxamide
> <PUBCHEM_IUPAC_SYSTEMATIC_NAME>
N-(3-chloranyl-4-fluoranyl-phenyl)-1-methyl-5-oxidanylidene-N-[3-[4-(phenylmethyl)piperidin-1-yl]propyl]pyrrolidine-3-carboxamide
> <PUBCHEM_IUPAC_TRADITIONAL_NAME>
N-[3-(4-benzylpiperidino)propyl]-N-(3-chloro-4-fluoro-phenyl)-5-keto-1-methyl-pyrrolidine-3-carboxamide
> <PUBCHEM_IUPAC_INCHI>
InChI=1S/C27H33ClFN3O2/c1-30-19-22(17-26(30)33)27(34)32(23-8-9-25(29)24(28)18-23)13-5-12-31-14-10-21(11-15-31)16-20-6-3-2-4-7-20/h2-4,6-9,18,21-22H,5,10-17,19H2,1H3
> <PUBCHEM_IUPAC_INCHIKEY>
BGOSGXDNBGSAJC-UHFFFAOYSA-N
> <PUBCHEM_XLOGP3_AA>
4.3
> <PUBCHEM_EXACT_MASS>
485.2245332
> <PUBCHEM_MOLECULAR_FORMULA>
C27H33ClFN3O2
> <PUBCHEM_MOLECULAR_WEIGHT>
486.0
> <PUBCHEM_OPENEYE_CAN_SMILES>
CN1CC(CC1=O)C(=O)N(CCCN2CCC(CC2)CC3=CC=CC=C3)C4=CC(=C(C=C4)F)Cl
> <PUBCHEM_OPENEYE_ISO_SMILES>
CN1CC(CC1=O)C(=O)N(CCCN2CCC(CC2)CC3=CC=CC=C3)C4=CC(=C(C=C4)F)Cl
> <PUBCHEM_CACTVS_TPSA>
43.9
> <PUBCHEM_MONOISOTOPIC_WEIGHT>
485.2245332
> <PUBCHEM_TOTAL_CHARGE>
0
> <PUBCHEM_HEAVY_ATOM_COUNT>
34
> <PUBCHEM_ATOM_DEF_STEREO_COUNT>
0
> <PUBCHEM_ATOM_UDEF_STEREO_COUNT>
1
> <PUBCHEM_BOND_DEF_STEREO_COUNT>
0
> <PUBCHEM_BOND_UDEF_STEREO_COUNT>
0
> <PUBCHEM_ISOTOPIC_ATOM_COUNT>
0
> <PUBCHEM_COMPONENT_COUNT>
1
> <PUBCHEM_CACTVS_TAUTO_COUNT>
-1
> <PUBCHEM_COORDINATE_TYPE>
1
5
255
> <PUBCHEM_BONDANNOTATIONS>
16  21  3
18  23  8
18  24  8
23  27  8
24  28  8
25  29  8
25  30  8
27  31  8
28  31  8
29  32  8
30  33  8
32  34  8
33  34  8
$$$$
