514970
  -OEChem-10302200282D
 67 70  0     1  0  0  0  0  0999 V2000
    5.4432   -1.0000    0.0000 O   0  0  0  0  0  0  0  0  0  0  0  0
    3.0878   -4.6160    0.0000 O   0  0  0  0  0  0  0  0  0  0  0  0
    8.0413    0.5000    0.0000 N   0  0  0  0  0  0  0  0  0  0  0  0
    6.3092   -2.5000    0.0000 N   0  0  0  0  0  0  0  0  0  0  0  0
    2.9945   -2.8364    0.0000 N   0  0  0  0  0  0  0  0  0  0  0  0
    8.0413    2.5000    0.0000 C   0  0  0  0  0  0  0  0  0  0  0  0
    7.1753    2.0000    0.0000 C   0  0  0  0  0  0  0  0  0  0  0  0
    8.9073    2.0000    0.0000 C   0  0  0  0  0  0  0  0  0  0  0  0
    7.1753    1.0000    0.0000 C   0  0  0  0  0  0  0  0  0  0  0  0
    8.9073    1.0000    0.0000 C   0  0  0  0  0  0  0  0  0  0  0  0
    8.0413    3.5000    0.0000 C   0  0  0  0  0  0  0  0  0  0  0  0
    8.0413   -0.5000    0.0000 C   0  0  0  0  0  0  0  0  0  0  0  0
    7.1753   -1.0000    0.0000 C   0  0  0  0  0  0  0  0  0  0  0  0
    4.5772   -2.5000    0.0000 C   0  0  3  0  0  0  0  0  0  0  0  0
    7.1753   -2.0000    0.0000 C   0  0  0  0  0  0  0  0  0  0  0  0
    8.9073    4.0000    0.0000 C   0  0  0  0  0  0  0  0  0  0  0  0
    3.6636   -2.0933    0.0000 C   0  0  0  0  0  0  0  0  0  0  0  0
    4.4727   -3.4945    0.0000 C   0  0  0  0  0  0  0  0  0  0  0  0
    5.4432   -2.0000    0.0000 C   0  0  0  0  0  0  0  0  0  0  0  0
    3.4945   -3.7024    0.0000 C   0  0  0  0  0  0  0  0  0  0  0  0
    9.7734    3.5000    0.0000 C   0  0  0  0  0  0  0  0  0  0  0  0
    8.9073    5.0000    0.0000 C   0  0  0  0  0  0  0  0  0  0  0  0
    6.3092   -3.5000    0.0000 C   0  0  0  0  0  0  0  0  0  0  0  0
    2.0000   -2.7319    0.0000 C   0  0  0  0  0  0  0  0  0  0  0  0
   10.6394    4.0000    0.0000 C   0  0  0  0  0  0  0  0  0  0  0  0
    9.7734    5.5000    0.0000 C   0  0  0  0  0  0  0  0  0  0  0  0
    7.1753   -4.0000    0.0000 C   0  0  0  0  0  0  0  0  0  0  0  0
    5.4432   -4.0000    0.0000 C   0  0  0  0  0  0  0  0  0  0  0  0
   10.6394    5.0000    0.0000 C   0  0  0  0  0  0  0  0  0  0  0  0
    7.1753   -5.0000    0.0000 C   0  0  0  0  0  0  0  0  0  0  0  0
    5.4432   -5.0000    0.0000 C   0  0  0  0  0  0  0  0  0  0  0  0
    6.3092   -5.5000    0.0000 C   0  0  0  0  0  0  0  0  0  0  0  0
    8.5782    2.8100    0.0000 H   0  0  0  0  0  0  0  0  0  0  0  0
    6.9632    2.5826    0.0000 H   0  0  0  0  0  0  0  0  0  0  0  0
    6.5647    1.8923    0.0000 H   0  0  0  0  0  0  0  0  0  0  0  0
    9.5179    1.8923    0.0000 H   0  0  0  0  0  0  0  0  0  0  0  0
    9.1194    2.5826    0.0000 H   0  0  0  0  0  0  0  0  0  0  0  0
    6.5647    1.1077    0.0000 H   0  0  0  0  0  0  0  0  0  0  0  0
    6.9632    0.4174    0.0000 H   0  0  0  0  0  0  0  0  0  0  0  0
    9.1194    0.4174    0.0000 H   0  0  0  0  0  0  0  0  0  0  0  0
    9.5179    1.1077    0.0000 H   0  0  0  0  0  0  0  0  0  0  0  0
    7.8292    4.0826    0.0000 H   0  0  0  0  0  0  0  0  0  0  0  0
    7.4307    3.3923    0.0000 H   0  0  0  0  0  0  0  0  0  0  0  0
    8.2534   -1.0826    0.0000 H   0  0  0  0  0  0  0  0  0  0  0  0
    8.6519   -0.3923    0.0000 H   0  0  0  0  0  0  0  0  0  0  0  0
    6.9632   -0.4174    0.0000 H   0  0  0  0  0  0  0  0  0  0  0  0
    6.5647   -1.1077    0.0000 H   0  0  0  0  0  0  0  0  0  0  0  0
    4.5447   -1.8808    0.0000 H   0  0  0  0  0  0  0  0  0  0  0  0
    7.3873   -2.5826    0.0000 H   0  0  0  0  0  0  0  0  0  0  0  0
    7.7859   -1.8923    0.0000 H   0  0  0  0  0  0  0  0  0  0  0  0
    3.9736   -1.5563    0.0000 H   0  0  0  0  0  0  0  0  0  0  0  0
    3.1621   -1.7288    0.0000 H   0  0  0  0  0  0  0  0  0  0  0  0
    4.5375   -4.1111    0.0000 H   0  0  0  0  0  0  0  0  0  0  0  0
    5.0927   -3.4945    0.0000 H   0  0  0  0  0  0  0  0  0  0  0  0
    9.7734    2.8800    0.0000 H   0  0  0  0  0  0  0  0  0  0  0  0
    8.3704    5.3100    0.0000 H   0  0  0  0  0  0  0  0  0  0  0  0
    2.0648   -2.1153    0.0000 H   0  0  0  0  0  0  0  0  0  0  0  0
    1.3834   -2.6671    0.0000 H   0  0  0  0  0  0  0  0  0  0  0  0
    1.9352   -3.3485    0.0000 H   0  0  0  0  0  0  0  0  0  0  0  0
   11.1763    3.6900    0.0000 H   0  0  0  0  0  0  0  0  0  0  0  0
    9.7734    6.1200    0.0000 H   0  0  0  0  0  0  0  0  0  0  0  0
    7.7122   -3.6900    0.0000 H   0  0  0  0  0  0  0  0  0  0  0  0
    4.9063   -3.6900    0.0000 H   0  0  0  0  0  0  0  0  0  0  0  0
   11.1763    5.3100    0.0000 H   0  0  0  0  0  0  0  0  0  0  0  0
    7.7122   -5.3100    0.0000 H   0  0  0  0  0  0  0  0  0  0  0  0
    4.9063   -5.3100    0.0000 H   0  0  0  0  0  0  0  0  0  0  0  0
    6.3092   -6.1200    0.0000 H   0  0  0  0  0  0  0  0  0  0  0  0
  1 19  2  0  0  0  0
  2 20  2  0  0  0  0
  3  9  1  0  0  0  0
  3 10  1  0  0  0  0
  3 12  1  0  0  0  0
  4 15  1  0  0  0  0
  4 19  1  0  0  0  0
  4 23  1  0  0  0  0
  5 17  1  0  0  0  0
  5 20  1  0  0  0  0
  5 24  1  0  0  0  0
  6  7  1  0  0  0  0
  6  8  1  0  0  0  0
  6 11  1  0  0  0  0
  6 33  1  0  0  0  0
  7  9  1  0  0  0  0
  7 34  1  0  0  0  0
  7 35  1  0  0  0  0
  8 10  1  0  0  0  0
  8 36  1  0  0  0  0
  8 37  1  0  0  0  0
  9 38  1  0  0  0  0
  9 39  1  0  0  0  0
 10 40  1  0  0  0  0
 10 41  1  0  0  0  0
 11 16  1  0  0  0  0
 11 42  1  0  0  0  0
 11 43  1  0  0  0  0
 12 13  1  0  0  0  0
 12 44  1  0  0  0  0
 12 45  1  0  0  0  0
 13 15  1  0  0  0  0
 13 46  1  0  0  0  0
 13 47  1  0  0  0  0
 14 17  1  0  0  0  0
 14 18  1  0  0  0  0
 14 19  1  0  0  0  0
 14 48  1  0  0  0  0
 15 49  1  0  0  0  0
 15 50  1  0  0  0  0
 16 21  2  0  0  0  0
 16 22  1  0  0  0  0
 17 51  1  0  0  0  0
 17 52  1  0  0  0  0
 18 20  1  0  0  0  0
 18 53  1  0  0  0  0
 18 54  1  0  0  0  0
 21 25  1  0  0  0  0
 21 55  1  0  0  0  0
 22 26  2  0  0  0  0
 22 56  1  0  0  0  0
 23 27  2  0  0  0  0
 23 28  1  0  0  0  0
 24 57  1  0  0  0  0
 24 58  1  0  0  0  0
 24 59  1  0  0  0  0
 25 29  2  0  0  0  0
 25 60  1  0  0  0  0
 26 29  1  0  0  0  0
 26 61  1  0  0  0  0
 27 30  1  0  0  0  0
 27 62  1  0  0  0  0
 28 31  2  0  0  0  0
 28 63  1  0  0  0  0
 29 64  1  0  0  0  0
 30 32  2  0  0  0  0
 30 65  1  0  0  0  0
 31 32  1  0  0  0  0
 31 66  1  0  0  0  0
 32 67  1  0  0  0  0
M  END
> <PUBCHEM_COMPOUND_CID>
514970
> <PUBCHEM_COMPOUND_CANONICALIZED>
1
> <PUBCHEM_CACTVS_COMPLEXITY>
604
> <PUBCHEM_CACTVS_HBOND_ACCEPTOR>
3
> <PUBCHEM_CACTVS_HBOND_DONOR>
0
> <PUBCHEM_CACTVS_ROTATABLE_BOND>
8
> <PUBCHEM_CACTVS_SUBSKEYS>
AAADcfB7MAAAAAAAAAAAAAAAAAAAAWAAAAA8YIAAAAAAAAABQAAAHgAAAAAADQjBmAQywIMAAACIAiVSUACCAAAhAgAIiAEIZIgIIDrA0ZGEIAhghgDIyAcVgMAOAAAAAAAAAAAAAAAAAAAAAAAAAAAAAA==
> <PUBCHEM_IUPAC_OPENEYE_NAME>
N-[3-(4-benzyl-1-piperidyl)propyl]-1-methyl-5-oxo-N-phenyl-pyrrolidine-3-carboxamide
> <PUBCHEM_IUPAC_CAS_NAME>
1-methyl-5-oxo-N-phenyl-N-[3-[4-(phenylmethyl)-1-piperidinyl]propyl]-3-pyrrolidinecarboxamide
> <PUBCHEM_IUPAC_NAME_MARKUP>
<I>N</I>-[3-(4-benzylpiperidin-1-yl)propyl]-1-methyl-5-oxo-<I>N</I>-phenylpyrrolidine-3-carboxamide
> <PUBCHEM_IUPAC_NAME>
N-[3-(4-benzylpiperidin-1-yl)propyl]-1-methyl-5-oxo-N-phenylpyrrolidine-3-carboxamide
> <PUBCHEM_IUPAC_SYSTEMATIC_NAME>
1-methyl-5-oxidanylidene-N-phenyl-N-[3-[4-(phenylmethyl)piperidin-1-yl]propyl]pyrrolidine-3-carboxamide
> <PUBCHEM_IUPAC_TRADITIONAL_NAME>
N-[3-(4-benzylpiperidino)propyl]-5-keto-1-methyl-N-phenyl-pyrrolidine-3-carboxamide
> <PUBCHEM_IUPAC_INCHI>
InChI=1S/C27H35N3O2/c1-28-21-24(20-26(28)31)27(32)30(25-11-6-3-7-12-25)16-8-15-29-17-13-23(14-18-29)19-22-9-4-2-5-10-22/h2-7,9-12,23-24H,8,13-21H2,1H3
> <PUBCHEM_IUPAC_INCHIKEY>
WXZSXOCGVZWUQT-UHFFFAOYSA-N
> <PUBCHEM_XLOGP3_AA>
3.6
> <PUBCHEM_EXACT_MASS>
433.27292737
> <PUBCHEM_MOLECULAR_FORMULA>
C27H35N3O2
> <PUBCHEM_MOLECULAR_WEIGHT>
433.6
> <PUBCHEM_OPENEYE_CAN_SMILES>
CN1CC(CC1=O)C(=O)N(CCCN2CCC(CC2)CC3=CC=CC=C3)C4=CC=CC=C4
> <PUBCHEM_OPENEYE_ISO_SMILES>
CN1CC(CC1=O)C(=O)N(CCCN2CCC(CC2)CC3=CC=CC=C3)C4=CC=CC=C4
> <PUBCHEM_CACTVS_TPSA>
43.9
> <PUBCHEM_MONOISOTOPIC_WEIGHT>
433.27292737
> <PUBCHEM_TOTAL_CHARGE>
0
> <PUBCHEM_HEAVY_ATOM_COUNT>
32
> <PUBCHEM_ATOM_DEF_STEREO_COUNT>
0
> <PUBCHEM_ATOM_UDEF_STEREO_COUNT>
1
> <PUBCHEM_BOND_DEF_STEREO_COUNT>
0
> <PUBCHEM_BOND_UDEF_STEREO_COUNT>
0
> <PUBCHEM_ISOTOPIC_ATOM_COUNT>
0
> <PUBCHEM_COMPONENT_COUNT>
1
> <PUBCHEM_CACTVS_TAUTO_COUNT>
-1
> <PUBCHEM_COORDINATE_TYPE>
1
5
255
> <PUBCHEM_BONDANNOTATIONS>
14  19  3
16  21  8
16  22  8
21  25  8
22  26  8
23  27  8
23  28  8
25  29  8
26  29  8
27  30  8
28  31  8
30  32  8
31  32  8
$$$$
