514960
  -OEChem-10302200282D
 96100  0     1  0  0  0  0  0999 V2000
    8.0622   -0.6702    0.0000 S   0  0  0  0  0  0  0  0  0  0  0  0
    7.1665   -6.8509    0.0000 O   0  0  0  0  0  0  0  0  0  0  0  0
    5.8938   -8.2580    0.0000 O   0  0  0  0  0  0  0  0  0  0  0  0
    5.4641   -4.9022    0.0000 O   0  0  0  0  0  0  0  0  0  0  0  0
    7.1962   -2.1702    0.0000 O   0  0  0  0  0  0  0  0  0  0  0  0
    7.5622   -1.5362    0.0000 O   0  0  0  0  0  0  0  0  0  0  0  0
    8.5622    0.1958    0.0000 O   0  0  0  0  0  0  0  0  0  0  0  0
    6.9641   -4.0362    0.0000 O   0  0  0  0  0  0  0  0  0  0  0  0
   11.6065   -0.8655    0.0000 O   0  0  0  0  0  0  0  0  0  0  0  0
   11.6065   -2.4749    0.0000 O   0  0  0  0  0  0  0  0  0  0  0  0
    6.8301    7.3920    0.0000 O   0  0  0  0  0  0  0  0  0  0  0  0
    5.3301    6.5260    0.0000 O   0  0  0  0  0  0  0  0  0  0  0  0
    7.1962   -0.1702    0.0000 N   0  0  3  0  0  0  0  0  0  0  0  0
    5.4641   -3.1702    0.0000 N   0  0  0  0  0  0  0  0  0  0  0  0
    6.8301    5.6599    0.0000 N   0  0  0  0  0  0  0  0  0  0  0  0
    5.5574   -6.6818    0.0000 C   0  0  2  0  0  0  0  0  0  0  0  0
    6.3005   -7.3509    0.0000 C   0  0  1  0  0  0  0  0  0  0  0  0
    5.9641   -5.7683    0.0000 C   0  0  2  0  0  0  0  0  0  0  0  0
    4.6978   -7.1811    0.0000 C   0  0  0  0  0  0  0  0  0  0  0  0
    6.9586   -5.8728    0.0000 C   0  0  0  0  0  0  0  0  0  0  0  0
    4.9053   -8.1532    0.0000 C   0  0  0  0  0  0  0  0  0  0  0  0
    6.3301    1.3298    0.0000 C   0  0  0  0  0  0  0  0  0  0  0  0
    7.1962    0.8298    0.0000 C   0  0  0  0  0  0  0  0  0  0  0  0
    6.8301    2.1958    0.0000 C   0  0  0  0  0  0  0  0  0  0  0  0
    6.3301   -0.6702    0.0000 C   0  0  0  0  0  0  0  0  0  0  0  0
    6.3301   -1.6702    0.0000 C   0  0  2  0  0  0  0  0  0  0  0  0
    5.4641   -2.1702    0.0000 C   0  0  2  0  0  0  0  0  0  0  0  0
    5.4641    1.8298    0.0000 C   0  0  0  0  0  0  0  0  0  0  0  0
    5.8301    0.4638    0.0000 C   0  0  0  0  0  0  0  0  0  0  0  0
    6.3301    3.0619    0.0000 C   0  0  0  0  0  0  0  0  0  0  0  0
    5.9641   -4.0362    0.0000 C   0  0  0  0  0  0  0  0  0  0  0  0
    4.5981   -1.6702    0.0000 C   0  0  0  0  0  0  0  0  0  0  0  0
    6.8301    3.9279    0.0000 C   0  0  0  0  0  0  0  0  0  0  0  0
    8.9282   -1.1702    0.0000 C   0  0  0  0  0  0  0  0  0  0  0  0
    6.3301    4.7939    0.0000 C   0  0  0  0  0  0  0  0  0  0  0  0
    3.7320   -2.1702    0.0000 C   0  0  0  0  0  0  0  0  0  0  0  0
    9.7942   -0.6702    0.0000 C   0  0  0  0  0  0  0  0  0  0  0  0
    8.9282   -2.1702    0.0000 C   0  0  0  0  0  0  0  0  0  0  0  0
    2.8660   -1.6702    0.0000 C   0  0  0  0  0  0  0  0  0  0  0  0
    3.7320   -3.1702    0.0000 C   0  0  0  0  0  0  0  0  0  0  0  0
   10.6603   -1.1702    0.0000 C   0  0  0  0  0  0  0  0  0  0  0  0
    9.7942   -2.6702    0.0000 C   0  0  0  0  0  0  0  0  0  0  0  0
   10.6603   -2.1702    0.0000 C   0  0  0  0  0  0  0  0  0  0  0  0
    2.0000   -2.1702    0.0000 C   0  0  0  0  0  0  0  0  0  0  0  0
    2.8660   -3.6702    0.0000 C   0  0  0  0  0  0  0  0  0  0  0  0
    2.0000   -3.1702    0.0000 C   0  0  0  0  0  0  0  0  0  0  0  0
    6.3301    6.5260    0.0000 C   0  0  0  0  0  0  0  0  0  0  0  0
   12.1901   -1.6702    0.0000 C   0  0  0  0  0  0  0  0  0  0  0  0
    6.3301    8.2580    0.0000 C   0  0  0  0  0  0  0  0  0  0  0  0
    4.9250   -6.1139    0.0000 H   0  0  0  0  0  0  0  0  0  0  0  0
    6.9314   -7.9205    0.0000 H   0  0  0  0  0  0  0  0  0  0  0  0
    6.3018   -5.2483    0.0000 H   0  0  0  0  0  0  0  0  0  0  0  0
    4.4444   -6.6152    0.0000 H   0  0  0  0  0  0  0  0  0  0  0  0
    4.1084   -7.3735    0.0000 H   0  0  0  0  0  0  0  0  0  0  0  0
    7.5752   -5.8080    0.0000 H   0  0  0  0  0  0  0  0  0  0  0  0
    6.9586   -5.2528    0.0000 H   0  0  0  0  0  0  0  0  0  0  0  0
    4.2887   -8.2182    0.0000 H   0  0  0  0  0  0  0  0  0  0  0  0
    4.9051   -8.7733    0.0000 H   0  0  0  0  0  0  0  0  0  0  0  0
    7.8067    0.7222    0.0000 H   0  0  0  0  0  0  0  0  0  0  0  0
    7.4082    1.4124    0.0000 H   0  0  0  0  0  0  0  0  0  0  0  0
    7.3051    1.7973    0.0000 H   0  0  0  0  0  0  0  0  0  0  0  0
    7.3051    2.5944    0.0000 H   0  0  0  0  0  0  0  0  0  0  0  0
    6.1181   -0.0876    0.0000 H   0  0  0  0  0  0  0  0  0  0  0  0
    5.7196   -0.7778    0.0000 H   0  0  0  0  0  0  0  0  0  0  0  0
    6.8671   -1.3602    0.0000 H   0  0  0  0  0  0  0  0  0  0  0  0
    6.0010   -2.4802    0.0000 H   0  0  0  0  0  0  0  0  0  0  0  0
    5.7741    2.3668    0.0000 H   0  0  0  0  0  0  0  0  0  0  0  0
    4.9272    2.1398    0.0000 H   0  0  0  0  0  0  0  0  0  0  0  0
    5.1541    1.2929    0.0000 H   0  0  0  0  0  0  0  0  0  0  0  0
    5.2932    0.7738    0.0000 H   0  0  0  0  0  0  0  0  0  0  0  0
    5.5201   -0.0731    0.0000 H   0  0  0  0  0  0  0  0  0  0  0  0
    6.3671    0.1538    0.0000 H   0  0  0  0  0  0  0  0  0  0  0  0
    5.8552    3.4604    0.0000 H   0  0  0  0  0  0  0  0  0  0  0  0
    5.8552    2.6633    0.0000 H   0  0  0  0  0  0  0  0  0  0  0  0
    4.9272   -3.4802    0.0000 H   0  0  0  0  0  0  0  0  0  0  0  0
    4.9966   -1.1952    0.0000 H   0  0  0  0  0  0  0  0  0  0  0  0
    4.1996   -1.1952    0.0000 H   0  0  0  0  0  0  0  0  0  0  0  0
    7.3051    3.5294    0.0000 H   0  0  0  0  0  0  0  0  0  0  0  0
    7.3051    4.3264    0.0000 H   0  0  0  0  0  0  0  0  0  0  0  0
    7.5062   -2.7071    0.0000 H   0  0  0  0  0  0  0  0  0  0  0  0
    5.8552    5.1924    0.0000 H   0  0  0  0  0  0  0  0  0  0  0  0
    5.8552    4.3954    0.0000 H   0  0  0  0  0  0  0  0  0  0  0  0
    9.7942   -0.0502    0.0000 H   0  0  0  0  0  0  0  0  0  0  0  0
    8.3913   -2.4802    0.0000 H   0  0  0  0  0  0  0  0  0  0  0  0
    2.8660   -1.0502    0.0000 H   0  0  0  0  0  0  0  0  0  0  0  0
    4.2690   -3.4802    0.0000 H   0  0  0  0  0  0  0  0  0  0  0  0
    7.4501    5.6599    0.0000 H   0  0  0  0  0  0  0  0  0  0  0  0
    9.7942   -3.2902    0.0000 H   0  0  0  0  0  0  0  0  0  0  0  0
    1.4631   -1.8602    0.0000 H   0  0  0  0  0  0  0  0  0  0  0  0
    2.8660   -4.2902    0.0000 H   0  0  0  0  0  0  0  0  0  0  0  0
    1.4631   -3.4802    0.0000 H   0  0  0  0  0  0  0  0  0  0  0  0
   12.6510   -2.0849    0.0000 H   0  0  0  0  0  0  0  0  0  0  0  0
   12.6510   -1.2555    0.0000 H   0  0  0  0  0  0  0  0  0  0  0  0
    6.8671    8.5680    0.0000 H   0  0  0  0  0  0  0  0  0  0  0  0
    6.0201    8.7950    0.0000 H   0  0  0  0  0  0  0  0  0  0  0  0
    5.7932    7.9480    0.0000 H   0  0  0  0  0  0  0  0  0  0  0  0
  1  6  2  0  0  0  0
  1  7  2  0  0  0  0
  1 13  1  0  0  0  0
  1 34  1  0  0  0  0
  2 17  1  0  0  0  0
  2 20  1  0  0  0  0
  3 17  1  0  0  0  0
  3 21  1  0  0  0  0
 18  4  1  1  0  0  0
  4 31  1  0  0  0  0
 26  5  1  1  0  0  0
  5 80  1  0  0  0  0
  8 31  2  0  0  0  0
  9 41  1  0  0  0  0
  9 48  1  0  0  0  0
 10 43  1  0  0  0  0
 10 48  1  0  0  0  0
 11 47  1  0  0  0  0
 11 49  1  0  0  0  0
 12 47  2  0  0  0  0
 13 23  1  0  0  0  0
 13 25  1  0  0  0  0
 27 14  1  1  0  0  0
 14 31  1  0  0  0  0
 14 75  1  0  0  0  0
 15 35  1  0  0  0  0
 15 47  1  0  0  0  0
 15 87  1  0  0  0  0
 16 17  1  0  0  0  0
 16 18  1  0  0  0  0
 16 19  1  0  0  0  0
 16 50  1  6  0  0  0
 17 51  1  6  0  0  0
 18 20  1  0  0  0  0
 18 52  1  0  0  0  0
 19 21  1  0  0  0  0
 19 53  1  0  0  0  0
 19 54  1  0  0  0  0
 20 55  1  0  0  0  0
 20 56  1  0  0  0  0
 21 57  1  0  0  0  0
 21 58  1  0  0  0  0
 22 23  1  0  0  0  0
 22 24  1  0  0  0  0
 22 28  1  0  0  0  0
 22 29  1  0  0  0  0
 23 59  1  0  0  0  0
 23 60  1  0  0  0  0
 24 30  1  0  0  0  0
 24 61  1  0  0  0  0
 24 62  1  0  0  0  0
 25 26  1  0  0  0  0
 25 63  1  0  0  0  0
 25 64  1  0  0  0  0
 26 27  1  0  0  0  0
 26 65  1  0  0  0  0
 27 32  1  0  0  0  0
 27 66  1  0  0  0  0
 28 67  1  0  0  0  0
 28 68  1  0  0  0  0
 28 69  1  0  0  0  0
 29 70  1  0  0  0  0
 29 71  1  0  0  0  0
 29 72  1  0  0  0  0
 30 33  1  0  0  0  0
 30 73  1  0  0  0  0
 30 74  1  0  0  0  0
 32 36  1  0  0  0  0
 32 76  1  0  0  0  0
 32 77  1  0  0  0  0
 33 35  1  0  0  0  0
 33 78  1  0  0  0  0
 33 79  1  0  0  0  0
 34 37  2  0  0  0  0
 34 38  1  0  0  0  0
 35 81  1  0  0  0  0
 35 82  1  0  0  0  0
 36 39  2  0  0  0  0
 36 40  1  0  0  0  0
 37 41  1  0  0  0  0
 37 83  1  0  0  0  0
 38 42  2  0  0  0  0
 38 84  1  0  0  0  0
 39 44  1  0  0  0  0
 39 85  1  0  0  0  0
 40 45  2  0  0  0  0
 40 86  1  0  0  0  0
 41 43  2  0  0  0  0
 42 43  1  0  0  0  0
 42 88  1  0  0  0  0
 44 46  2  0  0  0  0
 44 89  1  0  0  0  0
 45 46  1  0  0  0  0
 45 90  1  0  0  0  0
 46 91  1  0  0  0  0
 48 92  1  0  0  0  0
 48 93  1  0  0  0  0
 49 94  1  0  0  0  0
 49 95  1  0  0  0  0
 49 96  1  0  0  0  0
M  END
> <PUBCHEM_COMPOUND_CID>
514960
> <PUBCHEM_COMPOUND_CANONICALIZED>
1
> <PUBCHEM_CACTVS_COMPLEXITY>
1180
> <PUBCHEM_CACTVS_HBOND_ACCEPTOR>
12
> <PUBCHEM_CACTVS_HBOND_DONOR>
3
> <PUBCHEM_CACTVS_ROTATABLE_BOND>
18
> <PUBCHEM_CACTVS_SUBSKEYS>
AAADcfB/PABAAAAAAAAAAAAAAAAAASJEgAAwYAAAAAASAEgBQAAAHgQQSAAADzzx2AcyD4LABgKIAiBCGHBCCBAgIAAIiJgOiIkfNiKE8RuucCIl1hGeqAfQ4KgPAIAABAAAQAABAAAIAACAAAAAAAAAAA==
> <PUBCHEM_IUPAC_OPENEYE_NAME>
methyl N-[6-[[(2R,3S)-3-[[(3aS,4R,6aR)-2,3,3a,4,5,6a-hexahydrofuro[2,3-b]furan-4-yl]oxycarbonylamino]-2-hydroxy-4-phenyl-butyl]-(1,3-benzodioxol-5-ylsulfonyl)amino]-5,5-dimethyl-hexyl]carbamate
> <PUBCHEM_IUPAC_CAS_NAME>
N-[6-[[(2R,3S)-3-[[[(3aS,4R,6aR)-2,3,3a,4,5,6a-hexahydrofuro[2,3-b]furan-4-yl]oxy-oxomethyl]amino]-2-hydroxy-4-phenylbutyl]-(1,3-benzodioxol-5-ylsulfonyl)amino]-5,5-dimethylhexyl]carbamic acid methyl ester
> <PUBCHEM_IUPAC_NAME_MARKUP>
methyl <I>N</I>-[6-[[(2<I>R</I>,3<I>S</I>)-3-[[(3<I>a</I><I>S</I>,4<I>R</I>,6<I>a</I><I>R</I>)-2,3,3<I>a</I>,4,5,6<I>a</I>-hexahydrofuro[2,3-b]furan-4-yl]oxycarbonylamino]-2-hydroxy-4-phenylbutyl]-(1,3-benzodioxol-5-ylsulfonyl)amino]-5,5-dimethylhexyl]carbamate
> <PUBCHEM_IUPAC_NAME>
methyl N-[6-[[(2R,3S)-3-[[(3aS,4R,6aR)-2,3,3a,4,5,6a-hexahydrofuro[2,3-b]furan-4-yl]oxycarbonylamino]-2-hydroxy-4-phenylbutyl]-(1,3-benzodioxol-5-ylsulfonyl)amino]-5,5-dimethylhexyl]carbamate
> <PUBCHEM_IUPAC_SYSTEMATIC_NAME>
methyl N-[6-[[(2R,3S)-3-[[(3aS,4R,6aR)-2,3,3a,4,5,6a-hexahydrofuro[2,3-b]furan-4-yl]oxycarbonylamino]-2-oxidanyl-4-phenyl-butyl]-(1,3-benzodioxol-5-ylsulfonyl)amino]-5,5-dimethyl-hexyl]carbamate
> <PUBCHEM_IUPAC_TRADITIONAL_NAME>
N-[6-[[(2R,3S)-3-[[(3aS,4R,6aR)-2,3,3a,4,5,6a-hexahydrofuro[2,3-b]furan-4-yl]oxycarbonylamino]-2-hydroxy-4-phenyl-butyl]-(1,3-benzodioxol-5-ylsulfonyl)amino]-5,5-dimethyl-hexyl]carbamic acid methyl ester
> <PUBCHEM_IUPAC_INCHI>
InChI=1S/C34H47N3O11S/c1-34(2,14-7-8-15-35-32(39)43-3)21-37(49(41,42)24-11-12-28-29(18-24)47-22-46-28)19-27(38)26(17-23-9-5-4-6-10-23)36-33(40)48-30-20-45-31-25(30)13-16-44-31/h4-6,9-12,18,25-27,30-31,38H,7-8,13-17,19-22H2,1-3H3,(H,35,39)(H,36,40)/t25-,26-,27+,30-,31+/m0/s1
> <PUBCHEM_IUPAC_INCHIKEY>
KSQCICICDZVMLY-JIPUOCAHSA-N
> <PUBCHEM_XLOGP3_AA>
4.1
> <PUBCHEM_EXACT_MASS>
705.29313050
> <PUBCHEM_MOLECULAR_FORMULA>
C34H47N3O11S
> <PUBCHEM_MOLECULAR_WEIGHT>
705.8
> <PUBCHEM_OPENEYE_CAN_SMILES>
CC(C)(CCCCNC(=O)OC)CN(CC(C(CC1=CC=CC=C1)NC(=O)OC2COC3C2CCO3)O)S(=O)(=O)C4=CC5=C(C=C4)OCO5
> <PUBCHEM_OPENEYE_ISO_SMILES>
CC(C)(CCCCNC(=O)OC)CN(C[C@H]([C@H](CC1=CC=CC=C1)NC(=O)O[C@H]2CO[C@@H]3[C@H]2CCO3)O)S(=O)(=O)C4=CC5=C(C=C4)OCO5
> <PUBCHEM_CACTVS_TPSA>
180
> <PUBCHEM_MONOISOTOPIC_WEIGHT>
705.29313050
> <PUBCHEM_TOTAL_CHARGE>
0
> <PUBCHEM_HEAVY_ATOM_COUNT>
49
> <PUBCHEM_ATOM_DEF_STEREO_COUNT>
5
> <PUBCHEM_ATOM_UDEF_STEREO_COUNT>
0
> <PUBCHEM_BOND_DEF_STEREO_COUNT>
0
> <PUBCHEM_BOND_UDEF_STEREO_COUNT>
0
> <PUBCHEM_ISOTOPIC_ATOM_COUNT>
0
> <PUBCHEM_COMPONENT_COUNT>
1
> <PUBCHEM_CACTVS_TAUTO_COUNT>
-1
> <PUBCHEM_COORDINATE_TYPE>
1
5
255
> <PUBCHEM_BONDANNOTATIONS>
27  14  5
16  50  6
17  51  6
34  37  8
34  38  8
36  39  8
36  40  8
37  41  8
38  42  8
39  44  8
18  4  5
40  45  8
41  43  8
42  43  8
44  46  8
45  46  8
26  5  5
$$$$
