514994
  -OEChem-10302200282D
 68 71  0     1  0  0  0  0  0999 V2000
   12.3923    0.5761    0.0000 O   0  0  0  0  0  0  0  0  0  0  0  0
   10.4385    4.4239    0.0000 O   0  0  0  0  0  0  0  0  0  0  0  0
    7.1962    0.5761    0.0000 N   0  0  0  0  0  0  0  0  0  0  0  0
   10.6603    0.5761    0.0000 N   0  0  0  0  0  0  0  0  0  0  0  0
   12.0263    3.6149    0.0000 N   0  0  0  0  0  0  0  0  0  0  0  0
   10.6603   -4.4239    0.0000 N   0  0  0  0  0  0  0  0  0  0  0  0
    5.4641   -0.4239    0.0000 C   0  0  0  0  0  0  0  0  0  0  0  0
    5.4641    0.5761    0.0000 C   0  0  0  0  0  0  0  0  0  0  0  0
    6.3301   -0.9239    0.0000 C   0  0  0  0  0  0  0  0  0  0  0  0
    6.3301    1.0761    0.0000 C   0  0  0  0  0  0  0  0  0  0  0  0
    7.1962   -0.4239    0.0000 C   0  0  0  0  0  0  0  0  0  0  0  0
    4.5981   -0.9239    0.0000 C   0  0  0  0  0  0  0  0  0  0  0  0
    8.0622    1.0761    0.0000 C   0  0  0  0  0  0  0  0  0  0  0  0
    8.9282    0.5761    0.0000 C   0  0  0  0  0  0  0  0  0  0  0  0
   11.5263    2.0761    0.0000 C   0  0  3  0  0  0  0  0  0  0  0  0
    9.7942    1.0761    0.0000 C   0  0  0  0  0  0  0  0  0  0  0  0
    3.7320   -0.4239    0.0000 C   0  0  0  0  0  0  0  0  0  0  0  0
   12.3353    2.6639    0.0000 C   0  0  0  0  0  0  0  0  0  0  0  0
   10.7173    2.6639    0.0000 C   0  0  0  0  0  0  0  0  0  0  0  0
   11.5263    1.0761    0.0000 C   0  0  0  0  0  0  0  0  0  0  0  0
   11.0263    3.6149    0.0000 C   0  0  0  0  0  0  0  0  0  0  0  0
    2.8660   -0.9239    0.0000 C   0  0  0  0  0  0  0  0  0  0  0  0
    3.7320    0.5761    0.0000 C   0  0  0  0  0  0  0  0  0  0  0  0
   10.6603   -0.4239    0.0000 C   0  0  0  0  0  0  0  0  0  0  0  0
   12.6141    4.4239    0.0000 C   0  0  0  0  0  0  0  0  0  0  0  0
    2.0000   -0.4239    0.0000 C   0  0  0  0  0  0  0  0  0  0  0  0
    2.8660    1.0761    0.0000 C   0  0  0  0  0  0  0  0  0  0  0  0
   11.5263   -0.9239    0.0000 C   0  0  0  0  0  0  0  0  0  0  0  0
    9.7942   -0.9239    0.0000 C   0  0  0  0  0  0  0  0  0  0  0  0
    2.0000    0.5761    0.0000 C   0  0  0  0  0  0  0  0  0  0  0  0
   11.5263   -1.9239    0.0000 C   0  0  0  0  0  0  0  0  0  0  0  0
    9.7942   -1.9239    0.0000 C   0  0  0  0  0  0  0  0  0  0  0  0
   10.6603   -2.4239    0.0000 C   0  0  0  0  0  0  0  0  0  0  0  0
   10.6603   -3.4239    0.0000 C   0  0  0  0  0  0  0  0  0  0  0  0
    5.4641   -1.0439    0.0000 H   0  0  0  0  0  0  0  0  0  0  0  0
    5.2520    1.1587    0.0000 H   0  0  0  0  0  0  0  0  0  0  0  0
    4.8535    0.4684    0.0000 H   0  0  0  0  0  0  0  0  0  0  0  0
    5.9316   -1.3989    0.0000 H   0  0  0  0  0  0  0  0  0  0  0  0
    6.7287   -1.3989    0.0000 H   0  0  0  0  0  0  0  0  0  0  0  0
    6.7287    1.5510    0.0000 H   0  0  0  0  0  0  0  0  0  0  0  0
    5.9316    1.5510    0.0000 H   0  0  0  0  0  0  0  0  0  0  0  0
    7.4082   -1.0065    0.0000 H   0  0  0  0  0  0  0  0  0  0  0  0
    7.8067   -0.3163    0.0000 H   0  0  0  0  0  0  0  0  0  0  0  0
    4.1996   -1.3989    0.0000 H   0  0  0  0  0  0  0  0  0  0  0  0
    4.9966   -1.3989    0.0000 H   0  0  0  0  0  0  0  0  0  0  0  0
    8.4607    1.5510    0.0000 H   0  0  0  0  0  0  0  0  0  0  0  0
    7.6636    1.5510    0.0000 H   0  0  0  0  0  0  0  0  0  0  0  0
    8.5297    0.1011    0.0000 H   0  0  0  0  0  0  0  0  0  0  0  0
    9.3267    0.1011    0.0000 H   0  0  0  0  0  0  0  0  0  0  0  0
   12.0787    1.7946    0.0000 H   0  0  0  0  0  0  0  0  0  0  0  0
   10.1928    1.5510    0.0000 H   0  0  0  0  0  0  0  0  0  0  0  0
    9.3957    1.5510    0.0000 H   0  0  0  0  0  0  0  0  0  0  0  0
   12.6453    2.1269    0.0000 H   0  0  0  0  0  0  0  0  0  0  0  0
   12.9017    2.9160    0.0000 H   0  0  0  0  0  0  0  0  0  0  0  0
   10.1509    2.9160    0.0000 H   0  0  0  0  0  0  0  0  0  0  0  0
   10.4073    2.1269    0.0000 H   0  0  0  0  0  0  0  0  0  0  0  0
    2.8660   -1.5439    0.0000 H   0  0  0  0  0  0  0  0  0  0  0  0
    4.2690    0.8861    0.0000 H   0  0  0  0  0  0  0  0  0  0  0  0
   13.1157    4.0595    0.0000 H   0  0  0  0  0  0  0  0  0  0  0  0
   12.9785    4.9255    0.0000 H   0  0  0  0  0  0  0  0  0  0  0  0
   12.1125    4.7884    0.0000 H   0  0  0  0  0  0  0  0  0  0  0  0
    1.4631   -0.7339    0.0000 H   0  0  0  0  0  0  0  0  0  0  0  0
    2.8660    1.6961    0.0000 H   0  0  0  0  0  0  0  0  0  0  0  0
   12.0632   -0.6139    0.0000 H   0  0  0  0  0  0  0  0  0  0  0  0
    9.2573   -0.6139    0.0000 H   0  0  0  0  0  0  0  0  0  0  0  0
    1.4631    0.8861    0.0000 H   0  0  0  0  0  0  0  0  0  0  0  0
   12.0632   -2.2339    0.0000 H   0  0  0  0  0  0  0  0  0  0  0  0
    9.2573   -2.2339    0.0000 H   0  0  0  0  0  0  0  0  0  0  0  0
  1 20  2  0  0  0  0
  2 21  2  0  0  0  0
  3 10  1  0  0  0  0
  3 11  1  0  0  0  0
  3 13  1  0  0  0  0
  4 16  1  0  0  0  0
  4 20  1  0  0  0  0
  4 24  1  0  0  0  0
  5 18  1  0  0  0  0
  5 21  1  0  0  0  0
  5 25  1  0  0  0  0
  6 34  3  0  0  0  0
  7  8  1  0  0  0  0
  7  9  1  0  0  0  0
  7 12  1  0  0  0  0
  7 35  1  0  0  0  0
  8 10  1  0  0  0  0
  8 36  1  0  0  0  0
  8 37  1  0  0  0  0
  9 11  1  0  0  0  0
  9 38  1  0  0  0  0
  9 39  1  0  0  0  0
 10 40  1  0  0  0  0
 10 41  1  0  0  0  0
 11 42  1  0  0  0  0
 11 43  1  0  0  0  0
 12 17  1  0  0  0  0
 12 44  1  0  0  0  0
 12 45  1  0  0  0  0
 13 14  1  0  0  0  0
 13 46  1  0  0  0  0
 13 47  1  0  0  0  0
 14 16  1  0  0  0  0
 14 48  1  0  0  0  0
 14 49  1  0  0  0  0
 15 18  1  0  0  0  0
 15 19  1  0  0  0  0
 15 20  1  0  0  0  0
 15 50  1  0  0  0  0
 16 51  1  0  0  0  0
 16 52  1  0  0  0  0
 17 22  2  0  0  0  0
 17 23  1  0  0  0  0
 18 53  1  0  0  0  0
 18 54  1  0  0  0  0
 19 21  1  0  0  0  0
 19 55  1  0  0  0  0
 19 56  1  0  0  0  0
 22 26  1  0  0  0  0
 22 57  1  0  0  0  0
 23 27  2  0  0  0  0
 23 58  1  0  0  0  0
 24 28  2  0  0  0  0
 24 29  1  0  0  0  0
 25 59  1  0  0  0  0
 25 60  1  0  0  0  0
 25 61  1  0  0  0  0
 26 30  2  0  0  0  0
 26 62  1  0  0  0  0
 27 30  1  0  0  0  0
 27 63  1  0  0  0  0
 28 31  1  0  0  0  0
 28 64  1  0  0  0  0
 29 32  2  0  0  0  0
 29 65  1  0  0  0  0
 30 66  1  0  0  0  0
 31 33  2  0  0  0  0
 31 67  1  0  0  0  0
 32 33  1  0  0  0  0
 32 68  1  0  0  0  0
 33 34  1  0  0  0  0
M  END
> <PUBCHEM_COMPOUND_CID>
514994
> <PUBCHEM_COMPOUND_CANONICALIZED>
1
> <PUBCHEM_CACTVS_COMPLEXITY>
724
> <PUBCHEM_CACTVS_HBOND_ACCEPTOR>
4
> <PUBCHEM_CACTVS_HBOND_DONOR>
0
> <PUBCHEM_CACTVS_ROTATABLE_BOND>
8
> <PUBCHEM_CACTVS_SUBSKEYS>
AAADcfB7sAAAAAAAAAAAAAAAAAAAAWAAAAA8YIAAAAAAAAABQAAAHgAAAAAADQjBmAQywIMAAACYBiVSUACiAAAhAgAIiAEIZIgIoDrA0ZGEIAhghgDIyA8VgMAOCAAAAAAAAAAQAAAAAAAAAAAAAAAAAA==
> <PUBCHEM_IUPAC_OPENEYE_NAME>
N-[3-(4-benzyl-1-piperidyl)propyl]-N-(4-cyanophenyl)-1-methyl-5-oxo-pyrrolidine-3-carboxamide
> <PUBCHEM_IUPAC_CAS_NAME>
N-(4-cyanophenyl)-1-methyl-5-oxo-N-[3-[4-(phenylmethyl)-1-piperidinyl]propyl]-3-pyrrolidinecarboxamide
> <PUBCHEM_IUPAC_NAME_MARKUP>
<I>N</I>-[3-(4-benzylpiperidin-1-yl)propyl]-<I>N</I>-(4-cyanophenyl)-1-methyl-5-oxopyrrolidine-3-carboxamide
> <PUBCHEM_IUPAC_NAME>
N-[3-(4-benzylpiperidin-1-yl)propyl]-N-(4-cyanophenyl)-1-methyl-5-oxopyrrolidine-3-carboxamide
> <PUBCHEM_IUPAC_SYSTEMATIC_NAME>
N-(4-cyanophenyl)-1-methyl-5-oxidanylidene-N-[3-[4-(phenylmethyl)piperidin-1-yl]propyl]pyrrolidine-3-carboxamide
> <PUBCHEM_IUPAC_TRADITIONAL_NAME>
N-[3-(4-benzylpiperidino)propyl]-N-(4-cyanophenyl)-5-keto-1-methyl-pyrrolidine-3-carboxamide
> <PUBCHEM_IUPAC_INCHI>
InChI=1S/C28H34N4O2/c1-30-21-25(19-27(30)33)28(34)32(26-10-8-24(20-29)9-11-26)15-5-14-31-16-12-23(13-17-31)18-22-6-3-2-4-7-22/h2-4,6-11,23,25H,5,12-19,21H2,1H3
> <PUBCHEM_IUPAC_INCHIKEY>
VQXIQFRBRUEHAH-UHFFFAOYSA-N
> <PUBCHEM_XLOGP3_AA>
3.3
> <PUBCHEM_EXACT_MASS>
458.26817634
> <PUBCHEM_MOLECULAR_FORMULA>
C28H34N4O2
> <PUBCHEM_MOLECULAR_WEIGHT>
458.6
> <PUBCHEM_OPENEYE_CAN_SMILES>
CN1CC(CC1=O)C(=O)N(CCCN2CCC(CC2)CC3=CC=CC=C3)C4=CC=C(C=C4)C#N
> <PUBCHEM_OPENEYE_ISO_SMILES>
CN1CC(CC1=O)C(=O)N(CCCN2CCC(CC2)CC3=CC=CC=C3)C4=CC=C(C=C4)C#N
> <PUBCHEM_CACTVS_TPSA>
67.6
> <PUBCHEM_MONOISOTOPIC_WEIGHT>
458.26817634
> <PUBCHEM_TOTAL_CHARGE>
0
> <PUBCHEM_HEAVY_ATOM_COUNT>
34
> <PUBCHEM_ATOM_DEF_STEREO_COUNT>
0
> <PUBCHEM_ATOM_UDEF_STEREO_COUNT>
1
> <PUBCHEM_BOND_DEF_STEREO_COUNT>
0
> <PUBCHEM_BOND_UDEF_STEREO_COUNT>
0
> <PUBCHEM_ISOTOPIC_ATOM_COUNT>
0
> <PUBCHEM_COMPONENT_COUNT>
1
> <PUBCHEM_CACTVS_TAUTO_COUNT>
-1
> <PUBCHEM_COORDINATE_TYPE>
1
5
255
> <PUBCHEM_BONDANNOTATIONS>
15  20  3
17  22  8
17  23  8
22  26  8
23  27  8
24  28  8
24  29  8
26  30  8
27  30  8
28  31  8
29  32  8
31  33  8
32  33  8
$$$$
