514963
  -OEChem-10302200282D
 69 72  0     1  0  0  0  0  0999 V2000
    9.7942    6.4239    0.0000 F   0  0  0  0  0  0  0  0  0  0  0  0
    5.4641    4.9239    0.0000 O   0  0  0  0  0  0  0  0  0  0  0  0
    6.3301   -2.5761    0.0000 O   0  0  0  0  0  0  0  0  0  0  0  0
    6.5519   -6.4239    0.0000 O   0  0  0  0  0  0  0  0  0  0  0  0
    6.3301    1.4239    0.0000 N   0  0  0  0  0  0  0  0  0  0  0  0
    4.5981   -2.5761    0.0000 N   0  0  0  0  0  0  0  0  0  0  0  0
    4.9641   -5.6149    0.0000 N   0  0  0  0  0  0  0  0  0  0  0  0
    6.3301    3.4239    0.0000 C   0  0  0  0  0  0  0  0  0  0  0  0
    7.1962    2.9239    0.0000 C   0  0  0  0  0  0  0  0  0  0  0  0
    5.4641    2.9239    0.0000 C   0  0  0  0  0  0  0  0  0  0  0  0
    7.1962    1.9239    0.0000 C   0  0  0  0  0  0  0  0  0  0  0  0
    5.4641    1.9239    0.0000 C   0  0  0  0  0  0  0  0  0  0  0  0
    6.3301    0.4239    0.0000 C   0  0  0  0  0  0  0  0  0  0  0  0
    5.4641   -0.0761    0.0000 C   0  0  0  0  0  0  0  0  0  0  0  0
    5.4641   -4.0761    0.0000 C   0  0  3  0  0  0  0  0  0  0  0  0
    5.4641   -1.0761    0.0000 C   0  0  0  0  0  0  0  0  0  0  0  0
    6.3301    4.4239    0.0000 C   0  0  0  0  0  0  0  0  0  0  0  0
    4.6551   -4.6639    0.0000 C   0  0  0  0  0  0  0  0  0  0  0  0
    4.5981   -1.5761    0.0000 C   0  0  0  0  0  0  0  0  0  0  0  0
    6.2731   -4.6639    0.0000 C   0  0  0  0  0  0  0  0  0  0  0  0
    5.4641   -3.0761    0.0000 C   0  0  0  0  0  0  0  0  0  0  0  0
    5.9641   -5.6149    0.0000 C   0  0  0  0  0  0  0  0  0  0  0  0
    7.1962    4.9239    0.0000 C   0  0  0  0  0  0  0  0  0  0  0  0
    3.7320   -3.0761    0.0000 C   0  0  0  0  0  0  0  0  0  0  0  0
    4.3763   -6.4239    0.0000 C   0  0  0  0  0  0  0  0  0  0  0  0
    7.1962    5.9239    0.0000 C   0  0  0  0  0  0  0  0  0  0  0  0
    8.0622    4.4239    0.0000 C   0  0  0  0  0  0  0  0  0  0  0  0
    3.7320   -4.0761    0.0000 C   0  0  0  0  0  0  0  0  0  0  0  0
    2.8660   -2.5761    0.0000 C   0  0  0  0  0  0  0  0  0  0  0  0
    8.0622    6.4239    0.0000 C   0  0  0  0  0  0  0  0  0  0  0  0
    8.9282    4.9239    0.0000 C   0  0  0  0  0  0  0  0  0  0  0  0
    2.8660   -4.5761    0.0000 C   0  0  0  0  0  0  0  0  0  0  0  0
    2.0000   -3.0761    0.0000 C   0  0  0  0  0  0  0  0  0  0  0  0
    8.9282    5.9239    0.0000 C   0  0  0  0  0  0  0  0  0  0  0  0
    2.0000   -4.0761    0.0000 C   0  0  0  0  0  0  0  0  0  0  0  0
    6.8671    3.7339    0.0000 H   0  0  0  0  0  0  0  0  0  0  0  0
    7.8067    2.8163    0.0000 H   0  0  0  0  0  0  0  0  0  0  0  0
    7.4082    3.5065    0.0000 H   0  0  0  0  0  0  0  0  0  0  0  0
    5.2520    3.5065    0.0000 H   0  0  0  0  0  0  0  0  0  0  0  0
    4.8535    2.8163    0.0000 H   0  0  0  0  0  0  0  0  0  0  0  0
    7.4082    1.3413    0.0000 H   0  0  0  0  0  0  0  0  0  0  0  0
    7.8067    2.0316    0.0000 H   0  0  0  0  0  0  0  0  0  0  0  0
    4.8535    2.0316    0.0000 H   0  0  0  0  0  0  0  0  0  0  0  0
    5.2520    1.3413    0.0000 H   0  0  0  0  0  0  0  0  0  0  0  0
    6.5422   -0.1587    0.0000 H   0  0  0  0  0  0  0  0  0  0  0  0
    6.9407    0.5316    0.0000 H   0  0  0  0  0  0  0  0  0  0  0  0
    5.2520    0.5065    0.0000 H   0  0  0  0  0  0  0  0  0  0  0  0
    4.8535   -0.1837    0.0000 H   0  0  0  0  0  0  0  0  0  0  0  0
    6.0165   -3.7946    0.0000 H   0  0  0  0  0  0  0  0  0  0  0  0
    5.6762   -1.6587    0.0000 H   0  0  0  0  0  0  0  0  0  0  0  0
    6.0747   -0.9684    0.0000 H   0  0  0  0  0  0  0  0  0  0  0  0
    4.3451   -4.1269    0.0000 H   0  0  0  0  0  0  0  0  0  0  0  0
    4.0887   -4.9160    0.0000 H   0  0  0  0  0  0  0  0  0  0  0  0
    4.3860   -0.9935    0.0000 H   0  0  0  0  0  0  0  0  0  0  0  0
    3.9875   -1.6837    0.0000 H   0  0  0  0  0  0  0  0  0  0  0  0
    6.8395   -4.9160    0.0000 H   0  0  0  0  0  0  0  0  0  0  0  0
    6.5831   -4.1269    0.0000 H   0  0  0  0  0  0  0  0  0  0  0  0
    3.8747   -6.0595    0.0000 H   0  0  0  0  0  0  0  0  0  0  0  0
    4.0119   -6.9255    0.0000 H   0  0  0  0  0  0  0  0  0  0  0  0
    4.8779   -6.7884    0.0000 H   0  0  0  0  0  0  0  0  0  0  0  0
    6.6592    6.2339    0.0000 H   0  0  0  0  0  0  0  0  0  0  0  0
    8.0622    3.8039    0.0000 H   0  0  0  0  0  0  0  0  0  0  0  0
    4.2690   -4.3861    0.0000 H   0  0  0  0  0  0  0  0  0  0  0  0
    2.8660   -1.9561    0.0000 H   0  0  0  0  0  0  0  0  0  0  0  0
    8.0622    7.0439    0.0000 H   0  0  0  0  0  0  0  0  0  0  0  0
    9.4651    4.6139    0.0000 H   0  0  0  0  0  0  0  0  0  0  0  0
    2.8660   -5.1961    0.0000 H   0  0  0  0  0  0  0  0  0  0  0  0
    1.4631   -2.7661    0.0000 H   0  0  0  0  0  0  0  0  0  0  0  0
    1.4631   -4.3861    0.0000 H   0  0  0  0  0  0  0  0  0  0  0  0
  1 34  1  0  0  0  0
  2 17  2  0  0  0  0
  3 21  2  0  0  0  0
  4 22  2  0  0  0  0
  5 11  1  0  0  0  0
  5 12  1  0  0  0  0
  5 13  1  0  0  0  0
  6 19  1  0  0  0  0
  6 21  1  0  0  0  0
  6 24  1  0  0  0  0
  7 18  1  0  0  0  0
  7 22  1  0  0  0  0
  7 25  1  0  0  0  0
  8  9  1  0  0  0  0
  8 10  1  0  0  0  0
  8 17  1  0  0  0  0
  8 36  1  0  0  0  0
  9 11  1  0  0  0  0
  9 37  1  0  0  0  0
  9 38  1  0  0  0  0
 10 12  1  0  0  0  0
 10 39  1  0  0  0  0
 10 40  1  0  0  0  0
 11 41  1  0  0  0  0
 11 42  1  0  0  0  0
 12 43  1  0  0  0  0
 12 44  1  0  0  0  0
 13 14  1  0  0  0  0
 13 45  1  0  0  0  0
 13 46  1  0  0  0  0
 14 16  1  0  0  0  0
 14 47  1  0  0  0  0
 14 48  1  0  0  0  0
 15 18  1  0  0  0  0
 15 20  1  0  0  0  0
 15 21  1  0  0  0  0
 15 49  1  0  0  0  0
 16 19  1  0  0  0  0
 16 50  1  0  0  0  0
 16 51  1  0  0  0  0
 17 23  1  0  0  0  0
 18 52  1  0  0  0  0
 18 53  1  0  0  0  0
 19 54  1  0  0  0  0
 19 55  1  0  0  0  0
 20 22  1  0  0  0  0
 20 56  1  0  0  0  0
 20 57  1  0  0  0  0
 23 26  2  0  0  0  0
 23 27  1  0  0  0  0
 24 28  2  0  0  0  0
 24 29  1  0  0  0  0
 25 58  1  0  0  0  0
 25 59  1  0  0  0  0
 25 60  1  0  0  0  0
 26 30  1  0  0  0  0
 26 61  1  0  0  0  0
 27 31  2  0  0  0  0
 27 62  1  0  0  0  0
 28 32  1  0  0  0  0
 28 63  1  0  0  0  0
 29 33  2  0  0  0  0
 29 64  1  0  0  0  0
 30 34  2  0  0  0  0
 30 65  1  0  0  0  0
 31 34  1  0  0  0  0
 31 66  1  0  0  0  0
 32 35  2  0  0  0  0
 32 67  1  0  0  0  0
 33 35  1  0  0  0  0
 33 68  1  0  0  0  0
 35 69  1  0  0  0  0
M  END
> <PUBCHEM_COMPOUND_CID>
514963
> <PUBCHEM_COMPOUND_CANONICALIZED>
1
> <PUBCHEM_CACTVS_COMPLEXITY>
725
> <PUBCHEM_CACTVS_HBOND_ACCEPTOR>
5
> <PUBCHEM_CACTVS_HBOND_DONOR>
0
> <PUBCHEM_CACTVS_ROTATABLE_BOND>
9
> <PUBCHEM_CACTVS_SUBSKEYS>
AAADcfB7MQAAAAAAAAAAAAAAAAAAAWAAAAA8YIAAAAAAAAABQAAAHwAAAAAADQzBmAwywIMAAACIAqVSUACCAAAlAgAIiAEIZMgIIDrA1ZGEIQhghgDIyYcdiMCOAAAAAAAAAAAAAAAAAAAAAAAAAAAAAA==
> <PUBCHEM_IUPAC_OPENEYE_NAME>
N-[4-[4-(4-fluorobenzoyl)-1-piperidyl]butyl]-1-methyl-5-oxo-N-phenyl-pyrrolidine-3-carboxamide
> <PUBCHEM_IUPAC_CAS_NAME>
N-[4-[4-[(4-fluorophenyl)-oxomethyl]-1-piperidinyl]butyl]-1-methyl-5-oxo-N-phenyl-3-pyrrolidinecarboxamide
> <PUBCHEM_IUPAC_NAME_MARKUP>
<I>N</I>-[4-[4-(4-fluorobenzoyl)piperidin-1-yl]butyl]-1-methyl-5-oxo-<I>N</I>-phenylpyrrolidine-3-carboxamide
> <PUBCHEM_IUPAC_NAME>
N-[4-[4-(4-fluorobenzoyl)piperidin-1-yl]butyl]-1-methyl-5-oxo-N-phenylpyrrolidine-3-carboxamide
> <PUBCHEM_IUPAC_SYSTEMATIC_NAME>
N-[4-[4-(4-fluorophenyl)carbonylpiperidin-1-yl]butyl]-1-methyl-5-oxidanylidene-N-phenyl-pyrrolidine-3-carboxamide
> <PUBCHEM_IUPAC_TRADITIONAL_NAME>
N-[4-[4-(4-fluorobenzoyl)piperidino]butyl]-5-keto-1-methyl-N-phenyl-pyrrolidine-3-carboxamide
> <PUBCHEM_IUPAC_INCHI>
InChI=1S/C28H34FN3O3/c1-30-20-23(19-26(30)33)28(35)32(25-7-3-2-4-8-25)16-6-5-15-31-17-13-22(14-18-31)27(34)21-9-11-24(29)12-10-21/h2-4,7-12,22-23H,5-6,13-20H2,1H3
> <PUBCHEM_IUPAC_INCHIKEY>
LQLHYAAEMBCTKK-UHFFFAOYSA-N
> <PUBCHEM_XLOGP3_AA>
3.1
> <PUBCHEM_EXACT_MASS>
479.25842012
> <PUBCHEM_MOLECULAR_FORMULA>
C28H34FN3O3
> <PUBCHEM_MOLECULAR_WEIGHT>
479.6
> <PUBCHEM_OPENEYE_CAN_SMILES>
CN1CC(CC1=O)C(=O)N(CCCCN2CCC(CC2)C(=O)C3=CC=C(C=C3)F)C4=CC=CC=C4
> <PUBCHEM_OPENEYE_ISO_SMILES>
CN1CC(CC1=O)C(=O)N(CCCCN2CCC(CC2)C(=O)C3=CC=C(C=C3)F)C4=CC=CC=C4
> <PUBCHEM_CACTVS_TPSA>
60.9
> <PUBCHEM_MONOISOTOPIC_WEIGHT>
479.25842012
> <PUBCHEM_TOTAL_CHARGE>
0
> <PUBCHEM_HEAVY_ATOM_COUNT>
35
> <PUBCHEM_ATOM_DEF_STEREO_COUNT>
0
> <PUBCHEM_ATOM_UDEF_STEREO_COUNT>
1
> <PUBCHEM_BOND_DEF_STEREO_COUNT>
0
> <PUBCHEM_BOND_UDEF_STEREO_COUNT>
0
> <PUBCHEM_ISOTOPIC_ATOM_COUNT>
0
> <PUBCHEM_COMPONENT_COUNT>
1
> <PUBCHEM_CACTVS_TAUTO_COUNT>
-1
> <PUBCHEM_COORDINATE_TYPE>
1
5
255
> <PUBCHEM_BONDANNOTATIONS>
15  21  3
23  26  8
23  27  8
24  28  8
24  29  8
26  30  8
27  31  8
28  32  8
29  33  8
30  34  8
31  34  8
32  35  8
33  35  8
$$$$
