514972
  -OEChem-10302200282D
 65 68  0     1  0  0  0  0  0999 V2000
    7.1962    1.0000    0.0000 O   0  0  0  0  0  0  0  0  0  0  0  0
   10.6394    2.7319    0.0000 O   0  0  0  0  0  0  0  0  0  0  0  0
    5.4641   -4.0000    0.0000 O   0  0  0  0  0  0  0  0  0  0  0  0
    4.5981   -0.5000    0.0000 N   0  0  0  0  0  0  0  0  0  0  0  0
    4.5981   -2.5000    0.0000 N   0  0  0  0  0  0  0  0  0  0  0  0
    6.3301    2.5000    0.0000 N   0  0  0  0  0  0  0  0  0  0  0  0
    9.1448    3.7024    0.0000 N   0  0  0  0  0  0  0  0  0  0  0  0
    8.0622    2.5000    0.0000 C   0  0  3  0  0  0  0  0  0  0  0  0
    5.4641   -1.0000    0.0000 C   0  0  0  0  0  0  0  0  0  0  0  0
    3.7320   -1.0000    0.0000 C   0  0  0  0  0  0  0  0  0  0  0  0
    4.5981    0.5000    0.0000 C   0  0  0  0  0  0  0  0  0  0  0  0
    8.1667    3.4945    0.0000 C   0  0  0  0  0  0  0  0  0  0  0  0
    5.4641   -2.0000    0.0000 C   0  0  0  0  0  0  0  0  0  0  0  0
    3.7320   -2.0000    0.0000 C   0  0  0  0  0  0  0  0  0  0  0  0
    5.4641    1.0000    0.0000 C   0  0  0  0  0  0  0  0  0  0  0  0
    8.9757    2.0933    0.0000 C   0  0  0  0  0  0  0  0  0  0  0  0
    5.4641    2.0000    0.0000 C   0  0  0  0  0  0  0  0  0  0  0  0
    7.1962    2.0000    0.0000 C   0  0  0  0  0  0  0  0  0  0  0  0
    9.6448    2.8364    0.0000 C   0  0  0  0  0  0  0  0  0  0  0  0
    6.3301    3.5000    0.0000 C   0  0  0  0  0  0  0  0  0  0  0  0
    4.5981   -3.5000    0.0000 C   0  0  0  0  0  0  0  0  0  0  0  0
    9.5516    4.6160    0.0000 C   0  0  0  0  0  0  0  0  0  0  0  0
    3.7320   -4.0000    0.0000 C   0  0  0  0  0  0  0  0  0  0  0  0
    7.1962    4.0000    0.0000 C   0  0  0  0  0  0  0  0  0  0  0  0
    5.4641    4.0000    0.0000 C   0  0  0  0  0  0  0  0  0  0  0  0
    7.1962    5.0000    0.0000 C   0  0  0  0  0  0  0  0  0  0  0  0
    5.4641    5.0000    0.0000 C   0  0  0  0  0  0  0  0  0  0  0  0
    3.7320   -5.0000    0.0000 C   0  0  0  0  0  0  0  0  0  0  0  0
    2.8660   -3.5000    0.0000 C   0  0  0  0  0  0  0  0  0  0  0  0
    6.3301    5.5000    0.0000 C   0  0  0  0  0  0  0  0  0  0  0  0
    2.8660   -5.5000    0.0000 C   0  0  0  0  0  0  0  0  0  0  0  0
    2.0000   -4.0000    0.0000 C   0  0  0  0  0  0  0  0  0  0  0  0
    2.0000   -5.0000    0.0000 C   0  0  0  0  0  0  0  0  0  0  0  0
    8.0946    1.8808    0.0000 H   0  0  0  0  0  0  0  0  0  0  0  0
    6.0747   -1.1077    0.0000 H   0  0  0  0  0  0  0  0  0  0  0  0
    5.6762   -0.4174    0.0000 H   0  0  0  0  0  0  0  0  0  0  0  0
    3.5200   -0.4174    0.0000 H   0  0  0  0  0  0  0  0  0  0  0  0
    3.1215   -1.1077    0.0000 H   0  0  0  0  0  0  0  0  0  0  0  0
    4.3860    1.0826    0.0000 H   0  0  0  0  0  0  0  0  0  0  0  0
    3.9875    0.3923    0.0000 H   0  0  0  0  0  0  0  0  0  0  0  0
    8.1019    4.1111    0.0000 H   0  0  0  0  0  0  0  0  0  0  0  0
    7.5467    3.4945    0.0000 H   0  0  0  0  0  0  0  0  0  0  0  0
    5.6762   -2.5826    0.0000 H   0  0  0  0  0  0  0  0  0  0  0  0
    6.0747   -1.8923    0.0000 H   0  0  0  0  0  0  0  0  0  0  0  0
    3.1215   -1.8923    0.0000 H   0  0  0  0  0  0  0  0  0  0  0  0
    3.5200   -2.5826    0.0000 H   0  0  0  0  0  0  0  0  0  0  0  0
    5.6762    0.4174    0.0000 H   0  0  0  0  0  0  0  0  0  0  0  0
    6.0747    1.1077    0.0000 H   0  0  0  0  0  0  0  0  0  0  0  0
    8.6657    1.5563    0.0000 H   0  0  0  0  0  0  0  0  0  0  0  0
    9.4773    1.7288    0.0000 H   0  0  0  0  0  0  0  0  0  0  0  0
    5.2520    2.5826    0.0000 H   0  0  0  0  0  0  0  0  0  0  0  0
    4.8535    1.8923    0.0000 H   0  0  0  0  0  0  0  0  0  0  0  0
   10.1180    4.3638    0.0000 H   0  0  0  0  0  0  0  0  0  0  0  0
    9.8038    5.1824    0.0000 H   0  0  0  0  0  0  0  0  0  0  0  0
    8.9852    4.8682    0.0000 H   0  0  0  0  0  0  0  0  0  0  0  0
    7.7331    3.6900    0.0000 H   0  0  0  0  0  0  0  0  0  0  0  0
    4.9272    3.6900    0.0000 H   0  0  0  0  0  0  0  0  0  0  0  0
    7.7331    5.3100    0.0000 H   0  0  0  0  0  0  0  0  0  0  0  0
    4.9272    5.3100    0.0000 H   0  0  0  0  0  0  0  0  0  0  0  0
    4.2690   -5.3100    0.0000 H   0  0  0  0  0  0  0  0  0  0  0  0
    2.8660   -2.8800    0.0000 H   0  0  0  0  0  0  0  0  0  0  0  0
    6.3301    6.1200    0.0000 H   0  0  0  0  0  0  0  0  0  0  0  0
    2.8660   -6.1200    0.0000 H   0  0  0  0  0  0  0  0  0  0  0  0
    1.4631   -3.6900    0.0000 H   0  0  0  0  0  0  0  0  0  0  0  0
    1.4631   -5.3100    0.0000 H   0  0  0  0  0  0  0  0  0  0  0  0
  1 18  2  0  0  0  0
  2 19  2  0  0  0  0
  3 21  2  0  0  0  0
  4  9  1  0  0  0  0
  4 10  1  0  0  0  0
  4 11  1  0  0  0  0
  5 13  1  0  0  0  0
  5 14  1  0  0  0  0
  5 21  1  0  0  0  0
  6 17  1  0  0  0  0
  6 18  1  0  0  0  0
  6 20  1  0  0  0  0
  7 12  1  0  0  0  0
  7 19  1  0  0  0  0
  7 22  1  0  0  0  0
  8 12  1  0  0  0  0
  8 16  1  0  0  0  0
  8 18  1  0  0  0  0
  8 34  1  0  0  0  0
  9 13  1  0  0  0  0
  9 35  1  0  0  0  0
  9 36  1  0  0  0  0
 10 14  1  0  0  0  0
 10 37  1  0  0  0  0
 10 38  1  0  0  0  0
 11 15  1  0  0  0  0
 11 39  1  0  0  0  0
 11 40  1  0  0  0  0
 12 41  1  0  0  0  0
 12 42  1  0  0  0  0
 13 43  1  0  0  0  0
 13 44  1  0  0  0  0
 14 45  1  0  0  0  0
 14 46  1  0  0  0  0
 15 17  1  0  0  0  0
 15 47  1  0  0  0  0
 15 48  1  0  0  0  0
 16 19  1  0  0  0  0
 16 49  1  0  0  0  0
 16 50  1  0  0  0  0
 17 51  1  0  0  0  0
 17 52  1  0  0  0  0
 20 24  2  0  0  0  0
 20 25  1  0  0  0  0
 21 23  1  0  0  0  0
 22 53  1  0  0  0  0
 22 54  1  0  0  0  0
 22 55  1  0  0  0  0
 23 28  2  0  0  0  0
 23 29  1  0  0  0  0
 24 26  1  0  0  0  0
 24 56  1  0  0  0  0
 25 27  2  0  0  0  0
 25 57  1  0  0  0  0
 26 30  2  0  0  0  0
 26 58  1  0  0  0  0
 27 30  1  0  0  0  0
 27 59  1  0  0  0  0
 28 31  1  0  0  0  0
 28 60  1  0  0  0  0
 29 32  2  0  0  0  0
 29 61  1  0  0  0  0
 30 62  1  0  0  0  0
 31 33  2  0  0  0  0
 31 63  1  0  0  0  0
 32 33  1  0  0  0  0
 32 64  1  0  0  0  0
 33 65  1  0  0  0  0
M  END
> <PUBCHEM_COMPOUND_CID>
514972
> <PUBCHEM_COMPOUND_CANONICALIZED>
1
> <PUBCHEM_CACTVS_COMPLEXITY>
679
> <PUBCHEM_CACTVS_HBOND_ACCEPTOR>
4
> <PUBCHEM_CACTVS_HBOND_DONOR>
0
> <PUBCHEM_CACTVS_ROTATABLE_BOND>
7
> <PUBCHEM_CACTVS_SUBSKEYS>
AAADcfB7sAAAAAAAAAAAAAAAAAAAAWAAAAA8YIAAAAAAAAABQAAAHgAAAAAADQjBmAQywIMAAACIAiVSUACCAAAlAgAIiAEIZMgIYDrA1ZGUIQhghgDIyYcdiACOAAAAAAAAAAAAAAAAAAAAAAAAAAAAAA==
> <PUBCHEM_IUPAC_OPENEYE_NAME>
N-[3-(4-benzoylpiperazin-1-yl)propyl]-1-methyl-5-oxo-N-phenyl-pyrrolidine-3-carboxamide
> <PUBCHEM_IUPAC_CAS_NAME>
N-[3-(4-benzoyl-1-piperazinyl)propyl]-1-methyl-5-oxo-N-phenyl-3-pyrrolidinecarboxamide
> <PUBCHEM_IUPAC_NAME_MARKUP>
<I>N</I>-[3-(4-benzoylpiperazin-1-yl)propyl]-1-methyl-5-oxo-<I>N</I>-phenylpyrrolidine-3-carboxamide
> <PUBCHEM_IUPAC_NAME>
N-[3-(4-benzoylpiperazin-1-yl)propyl]-1-methyl-5-oxo-N-phenylpyrrolidine-3-carboxamide
> <PUBCHEM_IUPAC_SYSTEMATIC_NAME>
1-methyl-5-oxidanylidene-N-phenyl-N-[3-[4-(phenylcarbonyl)piperazin-1-yl]propyl]pyrrolidine-3-carboxamide
> <PUBCHEM_IUPAC_TRADITIONAL_NAME>
N-[3-(4-benzoylpiperazino)propyl]-5-keto-1-methyl-N-phenyl-pyrrolidine-3-carboxamide
> <PUBCHEM_IUPAC_INCHI>
InChI=1S/C26H32N4O3/c1-27-20-22(19-24(27)31)26(33)30(23-11-6-3-7-12-23)14-8-13-28-15-17-29(18-16-28)25(32)21-9-4-2-5-10-21/h2-7,9-12,22H,8,13-20H2,1H3
> <PUBCHEM_IUPAC_INCHIKEY>
WCLVECKTWJQUTF-UHFFFAOYSA-N
> <PUBCHEM_XLOGP3_AA>
1.8
> <PUBCHEM_EXACT_MASS>
448.24744090
> <PUBCHEM_MOLECULAR_FORMULA>
C26H32N4O3
> <PUBCHEM_MOLECULAR_WEIGHT>
448.6
> <PUBCHEM_OPENEYE_CAN_SMILES>
CN1CC(CC1=O)C(=O)N(CCCN2CCN(CC2)C(=O)C3=CC=CC=C3)C4=CC=CC=C4
> <PUBCHEM_OPENEYE_ISO_SMILES>
CN1CC(CC1=O)C(=O)N(CCCN2CCN(CC2)C(=O)C3=CC=CC=C3)C4=CC=CC=C4
> <PUBCHEM_CACTVS_TPSA>
64.2
> <PUBCHEM_MONOISOTOPIC_WEIGHT>
448.24744090
> <PUBCHEM_TOTAL_CHARGE>
0
> <PUBCHEM_HEAVY_ATOM_COUNT>
33
> <PUBCHEM_ATOM_DEF_STEREO_COUNT>
0
> <PUBCHEM_ATOM_UDEF_STEREO_COUNT>
1
> <PUBCHEM_BOND_DEF_STEREO_COUNT>
0
> <PUBCHEM_BOND_UDEF_STEREO_COUNT>
0
> <PUBCHEM_ISOTOPIC_ATOM_COUNT>
0
> <PUBCHEM_COMPONENT_COUNT>
1
> <PUBCHEM_CACTVS_TAUTO_COUNT>
-1
> <PUBCHEM_COORDINATE_TYPE>
1
5
255
> <PUBCHEM_BONDANNOTATIONS>
20  24  8
20  25  8
23  28  8
23  29  8
24  26  8
25  27  8
26  30  8
27  30  8
28  31  8
29  32  8
31  33  8
32  33  8
8  18  3
$$$$
