515043
  -OEChem-10302200282D
132136  0     1  0  0  0  0  0999 V2000
    6.8639   -2.6896    0.0000 O   0  0  0  0  0  0  0  0  0  0  0  0
   14.9346   -1.1097    0.0000 O   0  0  0  0  0  0  0  0  0  0  0  0
    6.0037   -1.1862    0.0000 O   0  0  0  0  0  0  0  0  0  0  0  0
    2.5357   -2.1729    0.0000 O   0  0  0  0  0  0  0  0  0  0  0  0
    3.4075   -0.6762    0.0000 O   0  0  0  0  0  0  0  0  0  0  0  0
   26.1810    0.4770    0.0000 O   0  0  0  0  0  0  0  0  0  0  0  0
   25.3266   -1.0296    0.0000 O   0  0  0  0  0  0  0  0  0  0  0  0
   15.7890    0.3969    0.0000 N   0  0  0  0  0  0  0  0  0  0  0  0
   11.3910   -1.1372    0.0000 C   0  0  1  0  0  0  0  0  0  0  0  0
   12.2570   -0.6372    0.0000 C   0  0  1  0  0  0  0  0  0  0  0  0
   10.5249   -0.6372    0.0000 C   0  0  1  0  0  0  0  0  0  0  0  0
   12.2570    0.3628    0.0000 C   0  0  1  0  0  0  0  0  0  0  0  0
    9.6149   -1.1441    0.0000 C   0  0  2  0  0  0  0  0  0  0  0  0
   13.1509    0.8974    0.0000 C   0  0  2  0  0  0  0  0  0  0  0  0
    9.6069   -2.1857    0.0000 C   0  0  1  0  0  0  0  0  0  0  0  0
   14.0570    0.3836    0.0000 C   0  0  1  0  0  0  0  0  0  0  0  0
   11.4070   -2.1788    0.0000 C   0  0  0  0  0  0  0  0  0  0  0  0
   10.5249    0.3628    0.0000 C   0  0  0  0  0  0  0  0  0  0  0  0
   13.1509   -1.1719    0.0000 C   0  0  0  0  0  0  0  0  0  0  0  0
   11.3910    0.8628    0.0000 C   0  0  0  0  0  0  0  0  0  0  0  0
   10.5090   -2.7065    0.0000 C   0  0  0  0  0  0  0  0  0  0  0  0
   14.0570   -0.6581    0.0000 C   0  0  0  0  0  0  0  0  0  0  0  0
    8.6715   -2.7354    0.0000 C   0  0  0  0  0  0  0  0  0  0  0  0
   13.3610    1.9113    0.0000 C   0  0  1  0  0  0  0  0  0  0  0  0
    8.6881   -0.5800    0.0000 C   0  0  0  0  0  0  0  0  0  0  0  0
   12.0338   -1.9033    0.0000 C   0  0  0  0  0  0  0  0  0  0  0  0
   12.5991   -1.5769    0.0000 C   0  0  0  0  0  0  0  0  0  0  0  0
   14.8193    1.0843    0.0000 C   0  0  0  0  0  0  0  0  0  0  0  0
   14.3901    2.0266    0.0000 C   0  0  0  0  0  0  0  0  0  0  0  0
    9.6226   -0.1441    0.0000 C   0  0  0  0  0  0  0  0  0  0  0  0
    7.7318   -2.1929    0.0000 C   0  0  2  0  0  0  0  0  0  0  0  0
    7.7402   -1.1080    0.0000 C   0  0  0  0  0  0  0  0  0  0  0  0
   14.9269   -0.1097    0.0000 C   0  0  0  0  0  0  0  0  0  0  0  0
    8.1748   -3.6034    0.0000 C   0  0  0  0  0  0  0  0  0  0  0  0
    9.1748   -3.5995    0.0000 C   0  0  0  0  0  0  0  0  0  0  0  0
   12.6875    2.6505    0.0000 C   0  0  0  0  0  0  0  0  0  0  0  0
   12.9908    3.6034    0.0000 C   0  0  0  0  0  0  0  0  0  0  0  0
   11.7106    2.4367    0.0000 C   0  0  0  0  0  0  0  0  0  0  0  0
   16.6589   -0.0964    0.0000 C   0  0  0  0  0  0  0  0  0  0  0  0
    5.9998   -2.1862    0.0000 C   0  0  0  0  0  0  0  0  0  0  0  0
   17.5210    0.4103    0.0000 C   0  0  0  0  0  0  0  0  0  0  0  0
    5.1319   -2.6829    0.0000 C   0  0  0  0  0  0  0  0  0  0  0  0
    4.2678   -2.1796    0.0000 C   0  0  0  0  0  0  0  0  0  0  0  0
   18.3909   -0.0830    0.0000 C   0  0  0  0  0  0  0  0  0  0  0  0
   19.2530    0.4236    0.0000 C   0  0  0  0  0  0  0  0  0  0  0  0
    3.7644   -3.0437    0.0000 C   0  0  0  0  0  0  0  0  0  0  0  0
    4.7711   -1.3155    0.0000 C   0  0  0  0  0  0  0  0  0  0  0  0
    3.4037   -1.6762    0.0000 C   0  0  0  0  0  0  0  0  0  0  0  0
   20.1229   -0.0697    0.0000 C   0  0  0  0  0  0  0  0  0  0  0  0
   20.9850    0.4370    0.0000 C   0  0  0  0  0  0  0  0  0  0  0  0
   21.8548   -0.0563    0.0000 C   0  0  0  0  0  0  0  0  0  0  0  0
   22.7170    0.4503    0.0000 C   0  0  0  0  0  0  0  0  0  0  0  0
   23.5868   -0.0430    0.0000 C   0  0  0  0  0  0  0  0  0  0  0  0
   24.4490    0.4637    0.0000 C   0  0  0  0  0  0  0  0  0  0  0  0
   25.3188   -0.0296    0.0000 C   0  0  0  0  0  0  0  0  0  0  0  0
   11.2611   -0.2122    0.0000 H   0  0  0  0  0  0  0  0  0  0  0  0
   12.2504    1.2127    0.0000 H   0  0  0  0  0  0  0  0  0  0  0  0
   12.4582    1.3900    0.0000 H   0  0  0  0  0  0  0  0  0  0  0  0
    9.6102   -3.0357    0.0000 H   0  0  0  0  0  0  0  0  0  0  0  0
   11.6251   -2.7592    0.0000 H   0  0  0  0  0  0  0  0  0  0  0  0
   12.0162   -2.0632    0.0000 H   0  0  0  0  0  0  0  0  0  0  0  0
   10.3129    0.9454    0.0000 H   0  0  0  0  0  0  0  0  0  0  0  0
    9.9144    0.2551    0.0000 H   0  0  0  0  0  0  0  0  0  0  0  0
   12.7463   -1.6417    0.0000 H   0  0  0  0  0  0  0  0  0  0  0  0
   13.5446   -1.6509    0.0000 H   0  0  0  0  0  0  0  0  0  0  0  0
   11.7895    1.3377    0.0000 H   0  0  0  0  0  0  0  0  0  0  0  0
   10.9924    1.3377    0.0000 H   0  0  0  0  0  0  0  0  0  0  0  0
   10.1117   -3.1825    0.0000 H   0  0  0  0  0  0  0  0  0  0  0  0
   10.9099   -3.1794    0.0000 H   0  0  0  0  0  0  0  0  0  0  0  0
   14.2661   -1.2418    0.0000 H   0  0  0  0  0  0  0  0  0  0  0  0
   14.6679   -0.5520    0.0000 H   0  0  0  0  0  0  0  0  0  0  0  0
   12.7631    1.7476    0.0000 H   0  0  0  0  0  0  0  0  0  0  0  0
    9.0963   -0.1134    0.0000 H   0  0  0  0  0  0  0  0  0  0  0  0
    8.2982   -0.0980    0.0000 H   0  0  0  0  0  0  0  0  0  0  0  0
   11.5588   -2.3018    0.0000 H   0  0  0  0  0  0  0  0  0  0  0  0
   12.4323   -2.3782    0.0000 H   0  0  0  0  0  0  0  0  0  0  0  0
   12.5087   -1.5048    0.0000 H   0  0  0  0  0  0  0  0  0  0  0  0
   12.0165   -1.7890    0.0000 H   0  0  0  0  0  0  0  0  0  0  0  0
   12.8112   -2.1595    0.0000 H   0  0  0  0  0  0  0  0  0  0  0  0
   13.1817   -1.3648    0.0000 H   0  0  0  0  0  0  0  0  0  0  0  0
   15.1886    0.5863    0.0000 H   0  0  0  0  0  0  0  0  0  0  0  0
   15.3534    1.3992    0.0000 H   0  0  0  0  0  0  0  0  0  0  0  0
   14.9782    2.2229    0.0000 H   0  0  0  0  0  0  0  0  0  0  0  0
   14.2567    2.6321    0.0000 H   0  0  0  0  0  0  0  0  0  0  0  0
   10.2426   -0.1489    0.0000 H   0  0  0  0  0  0  0  0  0  0  0  0
    9.6274    0.4759    0.0000 H   0  0  0  0  0  0  0  0  0  0  0  0
    9.0027   -0.1393    0.0000 H   0  0  0  0  0  0  0  0  0  0  0  0
    7.7307   -2.8129    0.0000 H   0  0  0  0  0  0  0  0  0  0  0  0
    7.5357   -0.5227    0.0000 H   0  0  0  0  0  0  0  0  0  0  0  0
    7.1286   -1.2093    0.0000 H   0  0  0  0  0  0  0  0  0  0  0  0
    7.6367   -3.2954    0.0000 H   0  0  0  0  0  0  0  0  0  0  0  0
    7.8669   -4.1415    0.0000 H   0  0  0  0  0  0  0  0  0  0  0  0
    8.7130   -3.9113    0.0000 H   0  0  0  0  0  0  0  0  0  0  0  0
    8.6391   -3.9116    0.0000 H   0  0  0  0  0  0  0  0  0  0  0  0
    9.4869   -4.1352    0.0000 H   0  0  0  0  0  0  0  0  0  0  0  0
    9.7106   -3.2874    0.0000 H   0  0  0  0  0  0  0  0  0  0  0  0
   15.7842    1.0169    0.0000 H   0  0  0  0  0  0  0  0  0  0  0  0
   13.5816    3.4153    0.0000 H   0  0  0  0  0  0  0  0  0  0  0  0
   13.1789    4.1941    0.0000 H   0  0  0  0  0  0  0  0  0  0  0  0
   12.4000    3.7914    0.0000 H   0  0  0  0  0  0  0  0  0  0  0  0
   11.2930    2.8950    0.0000 H   0  0  0  0  0  0  0  0  0  0  0  0
   11.5225    1.8459    0.0000 H   0  0  0  0  0  0  0  0  0  0  0  0
   16.2640   -0.5744    0.0000 H   0  0  0  0  0  0  0  0  0  0  0  0
   17.0610   -0.5682    0.0000 H   0  0  0  0  0  0  0  0  0  0  0  0
   17.9159    0.8883    0.0000 H   0  0  0  0  0  0  0  0  0  0  0  0
   17.1188    0.8821    0.0000 H   0  0  0  0  0  0  0  0  0  0  0  0
    4.7315   -3.1563    0.0000 H   0  0  0  0  0  0  0  0  0  0  0  0
    5.5286   -3.1594    0.0000 H   0  0  0  0  0  0  0  0  0  0  0  0
   17.9960   -0.5610    0.0000 H   0  0  0  0  0  0  0  0  0  0  0  0
   18.7930   -0.5549    0.0000 H   0  0  0  0  0  0  0  0  0  0  0  0
   19.6479    0.9016    0.0000 H   0  0  0  0  0  0  0  0  0  0  0  0
   18.8508    0.8955    0.0000 H   0  0  0  0  0  0  0  0  0  0  0  0
    3.2287   -2.7316    0.0000 H   0  0  0  0  0  0  0  0  0  0  0  0
    3.4524   -3.5794    0.0000 H   0  0  0  0  0  0  0  0  0  0  0  0
    4.3002   -3.3557    0.0000 H   0  0  0  0  0  0  0  0  0  0  0  0
    5.3068   -1.6275    0.0000 H   0  0  0  0  0  0  0  0  0  0  0  0
    5.0832   -0.7797    0.0000 H   0  0  0  0  0  0  0  0  0  0  0  0
    4.2354   -1.0034    0.0000 H   0  0  0  0  0  0  0  0  0  0  0  0
   19.7280   -0.5477    0.0000 H   0  0  0  0  0  0  0  0  0  0  0  0
   20.5250   -0.5415    0.0000 H   0  0  0  0  0  0  0  0  0  0  0  0
    2.0000   -1.8608    0.0000 H   0  0  0  0  0  0  0  0  0  0  0  0
   21.3799    0.9150    0.0000 H   0  0  0  0  0  0  0  0  0  0  0  0
   20.5828    0.9088    0.0000 H   0  0  0  0  0  0  0  0  0  0  0  0
   21.4600   -0.5343    0.0000 H   0  0  0  0  0  0  0  0  0  0  0  0
   22.2570   -0.5282    0.0000 H   0  0  0  0  0  0  0  0  0  0  0  0
   23.1118    0.9283    0.0000 H   0  0  0  0  0  0  0  0  0  0  0  0
   22.3148    0.9222    0.0000 H   0  0  0  0  0  0  0  0  0  0  0  0
   23.1920   -0.5210    0.0000 H   0  0  0  0  0  0  0  0  0  0  0  0
   23.9890   -0.5148    0.0000 H   0  0  0  0  0  0  0  0  0  0  0  0
   24.8438    0.9417    0.0000 H   0  0  0  0  0  0  0  0  0  0  0  0
   24.0468    0.9355    0.0000 H   0  0  0  0  0  0  0  0  0  0  0  0
   26.7203    0.1712    0.0000 H   0  0  0  0  0  0  0  0  0  0  0  0
 31  1  1  1  0  0  0
  1 40  1  0  0  0  0
  2 33  2  0  0  0  0
  3 40  2  0  0  0  0
  4 48  1  0  0  0  0
  4121  1  0  0  0  0
  5 48  2  0  0  0  0
  6 55  1  0  0  0  0
  6132  1  0  0  0  0
  7 55  2  0  0  0  0
  8 33  1  0  0  0  0
  8 39  1  0  0  0  0
  8 97  1  0  0  0  0
  9 10  1  0  0  0  0
  9 11  1  0  0  0  0
  9 17  1  0  0  0  0
  9 26  1  1  0  0  0
 10 12  1  0  0  0  0
 10 19  1  0  0  0  0
 10 27  1  6  0  0  0
 11 13  1  0  0  0  0
 11 18  1  0  0  0  0
 11 56  1  6  0  0  0
 12 14  1  0  0  0  0
 12 20  1  0  0  0  0
 12 57  1  1  0  0  0
 13 15  1  0  0  0  0
 13 25  1  0  0  0  0
 13 30  1  1  0  0  0
 14 16  1  0  0  0  0
 14 24  1  0  0  0  0
 14 58  1  6  0  0  0
 15 21  1  0  0  0  0
 15 23  1  0  0  0  0
 15 59  1  6  0  0  0
 16 22  1  0  0  0  0
 16 28  1  0  0  0  0
 16 33  1  1  0  0  0
 17 21  1  0  0  0  0
 17 60  1  0  0  0  0
 17 61  1  0  0  0  0
 18 20  1  0  0  0  0
 18 62  1  0  0  0  0
 18 63  1  0  0  0  0
 19 22  1  0  0  0  0
 19 64  1  0  0  0  0
 19 65  1  0  0  0  0
 20 66  1  0  0  0  0
 20 67  1  0  0  0  0
 21 68  1  0  0  0  0
 21 69  1  0  0  0  0
 22 70  1  0  0  0  0
 22 71  1  0  0  0  0
 23 31  1  0  0  0  0
 23 34  1  0  0  0  0
 23 35  1  0  0  0  0
 24 29  1  0  0  0  0
 24 36  1  6  0  0  0
 24 72  1  0  0  0  0
 25 32  1  0  0  0  0
 25 73  1  0  0  0  0
 25 74  1  0  0  0  0
 26 75  1  0  0  0  0
 26 76  1  0  0  0  0
 26 77  1  0  0  0  0
 27 78  1  0  0  0  0
 27 79  1  0  0  0  0
 27 80  1  0  0  0  0
 28 29  1  0  0  0  0
 28 81  1  0  0  0  0
 28 82  1  0  0  0  0
 29 83  1  0  0  0  0
 29 84  1  0  0  0  0
 30 85  1  0  0  0  0
 30 86  1  0  0  0  0
 30 87  1  0  0  0  0
 31 32  1  0  0  0  0
 31 88  1  0  0  0  0
 32 89  1  0  0  0  0
 32 90  1  0  0  0  0
 34 91  1  0  0  0  0
 34 92  1  0  0  0  0
 34 93  1  0  0  0  0
 35 94  1  0  0  0  0
 35 95  1  0  0  0  0
 35 96  1  0  0  0  0
 36 37  1  0  0  0  0
 36 38  2  0  0  0  0
 37 98  1  0  0  0  0
 37 99  1  0  0  0  0
 37100  1  0  0  0  0
 38101  1  0  0  0  0
 38102  1  0  0  0  0
 39 41  1  0  0  0  0
 39103  1  0  0  0  0
 39104  1  0  0  0  0
 40 42  1  0  0  0  0
 41 44  1  0  0  0  0
 41105  1  0  0  0  0
 41106  1  0  0  0  0
 42 43  1  0  0  0  0
 42107  1  0  0  0  0
 42108  1  0  0  0  0
 43 46  1  0  0  0  0
 43 47  1  0  0  0  0
 43 48  1  0  0  0  0
 44 45  1  0  0  0  0
 44109  1  0  0  0  0
 44110  1  0  0  0  0
 45 49  1  0  0  0  0
 45111  1  0  0  0  0
 45112  1  0  0  0  0
 46113  1  0  0  0  0
 46114  1  0  0  0  0
 46115  1  0  0  0  0
 47116  1  0  0  0  0
 47117  1  0  0  0  0
 47118  1  0  0  0  0
 49 50  1  0  0  0  0
 49119  1  0  0  0  0
 49120  1  0  0  0  0
 50 51  1  0  0  0  0
 50122  1  0  0  0  0
 50123  1  0  0  0  0
 51 52  1  0  0  0  0
 51124  1  0  0  0  0
 51125  1  0  0  0  0
 52 53  1  0  0  0  0
 52126  1  0  0  0  0
 52127  1  0  0  0  0
 53 54  1  0  0  0  0
 53128  1  0  0  0  0
 53129  1  0  0  0  0
 54 55  1  0  0  0  0
 54130  1  0  0  0  0
 54131  1  0  0  0  0
M  END
> <PUBCHEM_COMPOUND_CID>
515043
> <PUBCHEM_COMPOUND_CANONICALIZED>
1
> <PUBCHEM_CACTVS_COMPLEXITY>
1450
> <PUBCHEM_CACTVS_HBOND_ACCEPTOR>
7
> <PUBCHEM_CACTVS_HBOND_DONOR>
3
> <PUBCHEM_CACTVS_ROTATABLE_BOND>
18
> <PUBCHEM_CACTVS_SUBSKEYS>
AAADcfB+OAAAAAAAAAAAAAAAAAAAAYAAAAAwYMGAAAAAAGDAAAAAHgAQCAAADxThgAYCCALABgCIAgHSGAAAAAAgAAAAAIEIAAgAABIAgQAGQAAElgCAAAHbyPCPgAAAAAAAAADAAAYAADAAAQAACAAAAA==
> <PUBCHEM_IUPAC_OPENEYE_NAME>
11-[[(1R,3aS,5aR,5bR,7aR,9S,11aR,11bR,13aR,13bR)-9-(3-carboxy-3-methyl-butanoyl)oxy-1-isopropenyl-5a,5b,8,8,11a-pentamethyl-1,2,3,4,5,6,7,7a,9,10,11,11b,12,13,13a,13b-hexadecahydrocyclopenta[a]chrysene-3a-carbonyl]amino]undecanoic acid
> <PUBCHEM_IUPAC_CAS_NAME>
11-[[[(1R,3aS,5aR,5bR,7aR,9S,11aR,11bR,13aR,13bR)-9-(3-carboxy-3-methyl-1-oxobutoxy)-5a,5b,8,8,11a-pentamethyl-1-(1-methylethenyl)-1,2,3,4,5,6,7,7a,9,10,11,11b,12,13,13a,13b-hexadecahydrocyclopenta[a]chrysen-3a-yl]-oxomethyl]amino]undecanoic acid
> <PUBCHEM_IUPAC_NAME_MARKUP>
11-[[(1<I>R</I>,3<I>a</I><I>S</I>,5<I>a</I><I>R</I>,5<I>b</I><I>R</I>,7<I>a</I><I>R</I>,9<I>S</I>,11<I>a</I><I>R</I>,11<I>b</I><I>R</I>,13<I>a</I><I>R</I>,13<I>b</I><I>R</I>)-9-(3-carboxy-3-methylbutanoyl)oxy-5<I>a</I>,5<I>b</I>,8,8,11<I>a</I>-pentamethyl-1-prop-1-en-2-yl-1,2,3,4,5,6,7,7<I>a</I>,9,10,11,11<I>b</I>,12,13,13<I>a</I>,13<I>b</I>-hexadecahydrocyclopenta[a]chrysene-3<I>a</I>-carbonyl]amino]undecanoic acid
> <PUBCHEM_IUPAC_NAME>
11-[[(1R,3aS,5aR,5bR,7aR,9S,11aR,11bR,13aR,13bR)-9-(3-carboxy-3-methylbutanoyl)oxy-5a,5b,8,8,11a-pentamethyl-1-prop-1-en-2-yl-1,2,3,4,5,6,7,7a,9,10,11,11b,12,13,13a,13b-hexadecahydrocyclopenta[a]chrysene-3a-carbonyl]amino]undecanoic acid
> <PUBCHEM_IUPAC_SYSTEMATIC_NAME>
11-[[(1R,3aS,5aR,5bR,7aR,9S,11aR,11bR,13aR,13bR)-9-(3,3-dimethyl-4-oxidanyl-4-oxidanylidene-butanoyl)oxy-5a,5b,8,8,11a-pentamethyl-1-prop-1-en-2-yl-1,2,3,4,5,6,7,7a,9,10,11,11b,12,13,13a,13b-hexadecahydrocyclopenta[a]chrysen-3a-yl]carbonylamino]undecanoic acid
> <PUBCHEM_IUPAC_TRADITIONAL_NAME>
11-[[(1R,3aS,5aR,5bR,7aR,9S,11aR,11bR,13aR,13bR)-9-(3-carboxy-3-methyl-butanoyl)oxy-1-isopropenyl-5a,5b,8,8,11a-pentamethyl-1,2,3,4,5,6,7,7a,9,10,11,11b,12,13,13a,13b-hexadecahydrocyclopenta[a]chrysene-3a-carbonyl]amino]undecanoic acid
> <PUBCHEM_IUPAC_INCHI>
InChI=1S/C47H77NO7/c1-31(2)32-21-26-47(40(52)48-29-17-15-13-11-10-12-14-16-18-37(49)50)28-27-45(8)33(39(32)47)19-20-35-44(7)24-23-36(55-38(51)30-42(3,4)41(53)54)43(5,6)34(44)22-25-46(35,45)9/h32-36,39H,1,10-30H2,2-9H3,(H,48,52)(H,49,50)(H,53,54)/t32-,33+,34-,35+,36-,39+,44-,45+,46+,47-/m0/s1
> <PUBCHEM_IUPAC_INCHIKEY>
VTASNVPQADZTNQ-OLPGORLFSA-N
> <PUBCHEM_XLOGP3_AA>
12.2
> <PUBCHEM_EXACT_MASS>
767.57000380
> <PUBCHEM_MOLECULAR_FORMULA>
C47H77NO7
> <PUBCHEM_MOLECULAR_WEIGHT>
768.1
> <PUBCHEM_OPENEYE_CAN_SMILES>
CC(=C)C1CCC2(C1C3CCC4C5(CCC(C(C5CCC4(C3(CC2)C)C)(C)C)OC(=O)CC(C)(C)C(=O)O)C)C(=O)NCCCCCCCCCCC(=O)O
> <PUBCHEM_OPENEYE_ISO_SMILES>
CC(=C)[C@@H]1CC[C@]2([C@H]1[C@H]3CC[C@@H]4[C@]5(CC[C@@H](C([C@@H]5CC[C@]4([C@@]3(CC2)C)C)(C)C)OC(=O)CC(C)(C)C(=O)O)C)C(=O)NCCCCCCCCCCC(=O)O
> <PUBCHEM_CACTVS_TPSA>
130
> <PUBCHEM_MONOISOTOPIC_WEIGHT>
767.57000380
> <PUBCHEM_TOTAL_CHARGE>
0
> <PUBCHEM_HEAVY_ATOM_COUNT>
55
> <PUBCHEM_ATOM_DEF_STEREO_COUNT>
10
> <PUBCHEM_ATOM_UDEF_STEREO_COUNT>
0
> <PUBCHEM_BOND_DEF_STEREO_COUNT>
0
> <PUBCHEM_BOND_UDEF_STEREO_COUNT>
0
> <PUBCHEM_ISOTOPIC_ATOM_COUNT>
0
> <PUBCHEM_COMPONENT_COUNT>
1
> <PUBCHEM_CACTVS_TAUTO_COUNT>
-1
> <PUBCHEM_COORDINATE_TYPE>
1
5
255
> <PUBCHEM_BONDANNOTATIONS>
31  1  5
10  27  6
11  56  6
12  57  5
13  30  5
14  58  6
15  59  6
16  33  5
24  36  6
9  26  5
$$$$
