515057
  -OEChem-10302200282D
 57 60  0     1  0  0  0  0  0999 V2000
    5.8301   -3.9073    0.0000 S   0  0  0  0  0  0  0  0  0  0  0  0
    7.1391   -2.9563    0.0000 O   0  0  0  0  0  0  0  0  0  0  0  0
    7.0112   -5.6299    0.0000 O   0  0  0  0  0  0  0  0  0  0  0  0
    8.0622   -1.3685    0.0000 O   0  0  0  0  0  0  0  0  0  0  0  0
    2.0000    5.1315    0.0000 O   0  0  0  0  0  0  0  0  0  0  0  0
    8.9282    5.1315    0.0000 O   0  0  0  0  0  0  0  0  0  0  0  0
    6.3301   -1.3685    0.0000 N   0  0  0  0  0  0  0  0  0  0  0  0
    7.1962    0.1315    0.0000 N   0  0  0  0  0  0  0  0  0  0  0  0
    5.4641    3.1315    0.0000 N   0  0  0  0  0  0  0  0  0  0  0  0
    6.3301    1.6315    0.0000 N   0  0  0  0  0  0  0  0  0  0  0  0
    6.3301   -2.3685    0.0000 C   0  0  2  0  0  0  0  0  0  0  0  0
    5.5211   -2.9563    0.0000 C   0  0  0  0  0  0  0  0  0  0  0  0
    6.8301   -3.9073    0.0000 C   0  0  1  0  0  0  0  0  0  0  0  0
    7.4179   -4.7164    0.0000 C   0  0  0  0  0  0  0  0  0  0  0  0
    5.4641   -0.8685    0.0000 C   0  0  0  0  0  0  0  0  0  0  0  0
    7.1962   -0.8685    0.0000 C   0  0  0  0  0  0  0  0  0  0  0  0
    5.4641    0.1315    0.0000 C   0  0  0  0  0  0  0  0  0  0  0  0
    6.3301    0.6315    0.0000 C   0  0  0  0  0  0  0  0  0  0  0  0
    4.5981    3.6315    0.0000 C   0  0  0  0  0  0  0  0  0  0  0  0
    6.3301    3.6315    0.0000 C   0  0  0  0  0  0  0  0  0  0  0  0
    5.4641    2.1315    0.0000 C   0  0  0  0  0  0  0  0  0  0  0  0
    3.7320    3.1315    0.0000 C   0  0  0  0  0  0  0  0  0  0  0  0
    6.3301    4.6315    0.0000 C   0  0  0  0  0  0  0  0  0  0  0  0
    4.5981    4.6315    0.0000 C   0  0  0  0  0  0  0  0  0  0  0  0
    7.1962    3.1315    0.0000 C   0  0  0  0  0  0  0  0  0  0  0  0
    2.8660    3.6315    0.0000 C   0  0  0  0  0  0  0  0  0  0  0  0
    7.1962    5.1315    0.0000 C   0  0  0  0  0  0  0  0  0  0  0  0
    3.7320    5.1315    0.0000 C   0  0  0  0  0  0  0  0  0  0  0  0
    8.0622    3.6315    0.0000 C   0  0  0  0  0  0  0  0  0  0  0  0
    2.8660    4.6315    0.0000 C   0  0  0  0  0  0  0  0  0  0  0  0
    8.0622    4.6315    0.0000 C   0  0  0  0  0  0  0  0  0  0  0  0
    2.0000    6.1315    0.0000 C   0  0  0  0  0  0  0  0  0  0  0  0
    8.9282    6.1315    0.0000 C   0  0  0  0  0  0  0  0  0  0  0  0
    6.8826   -2.0870    0.0000 H   0  0  0  0  0  0  0  0  0  0  0  0
    5.2111   -2.4194    0.0000 H   0  0  0  0  0  0  0  0  0  0  0  0
    4.9547   -3.2085    0.0000 H   0  0  0  0  0  0  0  0  0  0  0  0
    7.4425   -3.8104    0.0000 H   0  0  0  0  0  0  0  0  0  0  0  0
    7.9319   -5.0631    0.0000 H   0  0  0  0  0  0  0  0  0  0  0  0
    7.8486   -4.2704    0.0000 H   0  0  0  0  0  0  0  0  0  0  0  0
    4.9272   -1.1785    0.0000 H   0  0  0  0  0  0  0  0  0  0  0  0
    4.9272    0.4415    0.0000 H   0  0  0  0  0  0  0  0  0  0  0  0
    7.3756   -6.1315    0.0000 H   0  0  0  0  0  0  0  0  0  0  0  0
    4.9272    1.8215    0.0000 H   0  0  0  0  0  0  0  0  0  0  0  0
    3.7320    2.5115    0.0000 H   0  0  0  0  0  0  0  0  0  0  0  0
    5.7932    4.9415    0.0000 H   0  0  0  0  0  0  0  0  0  0  0  0
    5.1350    4.9415    0.0000 H   0  0  0  0  0  0  0  0  0  0  0  0
    7.1962    2.5115    0.0000 H   0  0  0  0  0  0  0  0  0  0  0  0
    2.3291    3.3215    0.0000 H   0  0  0  0  0  0  0  0  0  0  0  0
    7.1962    5.7515    0.0000 H   0  0  0  0  0  0  0  0  0  0  0  0
    3.7320    5.7515    0.0000 H   0  0  0  0  0  0  0  0  0  0  0  0
    8.5991    3.3215    0.0000 H   0  0  0  0  0  0  0  0  0  0  0  0
    2.6200    6.1315    0.0000 H   0  0  0  0  0  0  0  0  0  0  0  0
    2.0000    6.7515    0.0000 H   0  0  0  0  0  0  0  0  0  0  0  0
    1.3800    6.1315    0.0000 H   0  0  0  0  0  0  0  0  0  0  0  0
    9.5482    6.1315    0.0000 H   0  0  0  0  0  0  0  0  0  0  0  0
    8.9282    6.7515    0.0000 H   0  0  0  0  0  0  0  0  0  0  0  0
    8.3082    6.1315    0.0000 H   0  0  0  0  0  0  0  0  0  0  0  0
  1 12  1  0  0  0  0
  1 13  1  0  0  0  0
  2 11  1  0  0  0  0
  2 13  1  0  0  0  0
  3 14  1  0  0  0  0
  3 42  1  0  0  0  0
  4 16  2  0  0  0  0
  5 30  1  0  0  0  0
  5 32  1  0  0  0  0
  6 31  1  0  0  0  0
  6 33  1  0  0  0  0
 11  7  1  1  0  0  0
  7 15  1  0  0  0  0
  7 16  1  0  0  0  0
  8 16  1  0  0  0  0
  8 18  2  0  0  0  0
  9 19  1  0  0  0  0
  9 20  1  0  0  0  0
  9 21  1  0  0  0  0
 10 18  1  0  0  0  0
 10 21  2  0  0  0  0
 11 12  1  0  0  0  0
 11 34  1  0  0  0  0
 12 35  1  0  0  0  0
 12 36  1  0  0  0  0
 13 14  1  1  0  0  0
 13 37  1  0  0  0  0
 14 38  1  0  0  0  0
 14 39  1  0  0  0  0
 15 17  2  0  0  0  0
 15 40  1  0  0  0  0
 17 18  1  0  0  0  0
 17 41  1  0  0  0  0
 19 22  2  0  0  0  0
 19 24  1  0  0  0  0
 20 23  2  0  0  0  0
 20 25  1  0  0  0  0
 21 43  1  0  0  0  0
 22 26  1  0  0  0  0
 22 44  1  0  0  0  0
 23 27  1  0  0  0  0
 23 45  1  0  0  0  0
 24 28  2  0  0  0  0
 24 46  1  0  0  0  0
 25 29  2  0  0  0  0
 25 47  1  0  0  0  0
 26 30  2  0  0  0  0
 26 48  1  0  0  0  0
 27 31  2  0  0  0  0
 27 49  1  0  0  0  0
 28 30  1  0  0  0  0
 28 50  1  0  0  0  0
 29 31  1  0  0  0  0
 29 51  1  0  0  0  0
 32 52  1  0  0  0  0
 32 53  1  0  0  0  0
 32 54  1  0  0  0  0
 33 55  1  0  0  0  0
 33 56  1  0  0  0  0
 33 57  1  0  0  0  0
M  END
> <PUBCHEM_COMPOUND_CID>
515057
> <PUBCHEM_COMPOUND_CANONICALIZED>
1
> <PUBCHEM_CACTVS_COMPLEXITY>
723
> <PUBCHEM_CACTVS_HBOND_ACCEPTOR>
6
> <PUBCHEM_CACTVS_HBOND_DONOR>
1
> <PUBCHEM_CACTVS_ROTATABLE_BOND>
8
> <PUBCHEM_CACTVS_SUBSKEYS>
AAADceB7uABAAAAAAAAAAAAAAAAAASAAAAAwYIAAAAAAAAABQAAAHgQACAAACAzl0AazxoMABgioACZndACCCAEhIhAJiAAebJiNNmLEuZuOMChkxhPr6AewQAAAAEAAAAAAAAAAgAAAAAAAAAAAAAAAAA==
> <PUBCHEM_IUPAC_OPENEYE_NAME>
N'-[1-[(2R,5S)-2-(hydroxymethyl)-1,3-oxathiolan-5-yl]-2-oxo-pyrimidin-4-yl]-N,N-bis(4-methoxyphenyl)formamidine
> <PUBCHEM_IUPAC_CAS_NAME>
N'-[1-[(2R,5S)-2-(hydroxymethyl)-1,3-oxathiolan-5-yl]-2-oxo-4-pyrimidinyl]-N,N-bis(4-methoxyphenyl)methanimidamide
> <PUBCHEM_IUPAC_NAME_MARKUP>
<I>N</I>&apos;-[1-[(2<I>R</I>,5<I>S</I>)-2-(hydroxymethyl)-1,3-oxathiolan-5-yl]-2-oxopyrimidin-4-yl]-<I>N</I>,<I>N</I>-bis(4-methoxyphenyl)methanimidamide
> <PUBCHEM_IUPAC_NAME>
N'-[1-[(2R,5S)-2-(hydroxymethyl)-1,3-oxathiolan-5-yl]-2-oxopyrimidin-4-yl]-N,N-bis(4-methoxyphenyl)methanimidamide
> <PUBCHEM_IUPAC_SYSTEMATIC_NAME>
N'-[1-[(2R,5S)-2-(hydroxymethyl)-1,3-oxathiolan-5-yl]-2-oxidanylidene-pyrimidin-4-yl]-N,N-bis(4-methoxyphenyl)methanimidamide
> <PUBCHEM_IUPAC_TRADITIONAL_NAME>
N'-[2-keto-1-[(2R,5S)-2-methylol-1,3-oxathiolan-5-yl]pyrimidin-4-yl]-N,N-bis(4-methoxyphenyl)formamidine
> <PUBCHEM_IUPAC_INCHI>
InChI=1S/C23H24N4O5S/c1-30-18-7-3-16(4-8-18)27(17-5-9-19(31-2)10-6-17)15-24-20-11-12-26(23(29)25-20)21-14-33-22(13-28)32-21/h3-12,15,21-22,28H,13-14H2,1-2H3/t21-,22+/m0/s1
> <PUBCHEM_IUPAC_INCHIKEY>
XDQYHFZVMBYLCZ-FCHUYYIVSA-N
> <PUBCHEM_XLOGP3>
2.8
> <PUBCHEM_EXACT_MASS>
468.14674105
> <PUBCHEM_MOLECULAR_FORMULA>
C23H24N4O5S
> <PUBCHEM_MOLECULAR_WEIGHT>
468.5
> <PUBCHEM_OPENEYE_CAN_SMILES>
COC1=CC=C(C=C1)N(C=NC2=NC(=O)N(C=C2)C3CSC(O3)CO)C4=CC=C(C=C4)OC
> <PUBCHEM_OPENEYE_ISO_SMILES>
COC1=CC=C(C=C1)N(C=NC2=NC(=O)N(C=C2)[C@@H]3CS[C@@H](O3)CO)C4=CC=C(C=C4)OC
> <PUBCHEM_CACTVS_TPSA>
122
> <PUBCHEM_MONOISOTOPIC_WEIGHT>
468.14674105
> <PUBCHEM_TOTAL_CHARGE>
0
> <PUBCHEM_HEAVY_ATOM_COUNT>
33
> <PUBCHEM_ATOM_DEF_STEREO_COUNT>
2
> <PUBCHEM_ATOM_UDEF_STEREO_COUNT>
0
> <PUBCHEM_BOND_DEF_STEREO_COUNT>
0
> <PUBCHEM_BOND_UDEF_STEREO_COUNT>
0
> <PUBCHEM_ISOTOPIC_ATOM_COUNT>
0
> <PUBCHEM_COMPONENT_COUNT>
1
> <PUBCHEM_CACTVS_TAUTO_COUNT>
-1
> <PUBCHEM_COORDINATE_TYPE>
1
5
255
> <PUBCHEM_BONDANNOTATIONS>
13  14  5
15  17  8
17  18  8
19  22  8
19  24  8
20  23  8
20  25  8
22  26  8
23  27  8
24  28  8
25  29  8
26  30  8
27  31  8
28  30  8
29  31  8
11  7  5
7  15  8
7  16  8
8  16  8
8  18  8
$$$$
