515099
  -OEChem-10302200282D
 30 31  0     1  0  0  0  0  0999 V2000
    2.0280    2.3021    0.0000 I   0  0  0  0  0  0  0  0  0  0  0  0
    2.0000   -0.9766    0.0000 F   0  0  0  0  0  0  0  0  0  0  0  0
    4.5691   -1.2857    0.0000 O   0  0  0  0  0  0  0  0  0  0  0  0
    2.6723   -3.0457    0.0000 O   0  0  0  0  0  0  0  0  0  0  0  0
    5.4921    0.3021    0.0000 O   0  0  0  0  0  0  0  0  0  0  0  0
    3.7601    0.3021    0.0000 N   0  0  0  0  0  0  0  0  0  0  0  0
    5.8424   -2.9412    0.0000 N   0  0  0  0  0  0  0  0  0  0  0  0
    4.6261    1.8021    0.0000 N   0  0  0  0  0  0  0  0  0  0  0  0
    3.7601    3.3021    0.0000 N   0  0  0  0  0  0  0  0  0  0  0  0
    3.2601   -2.2367    0.0000 C   0  0  2  0  0  0  0  0  0  0  0  0
    4.2601   -2.2367    0.0000 C   0  0  1  0  0  0  0  0  0  0  0  0
    2.9511   -1.2857    0.0000 C   0  0  1  0  0  0  0  0  0  0  0  0
    3.7601   -0.6979    0.0000 C   0  0  1  0  0  0  0  0  0  0  0  0
    4.8479   -3.0457    0.0000 C   0  0  0  0  0  0  0  0  0  0  0  0
    2.8940    0.8021    0.0000 C   0  0  0  0  0  0  0  0  0  0  0  0
    4.6261    0.8021    0.0000 C   0  0  0  0  0  0  0  0  0  0  0  0
    2.8940    1.8021    0.0000 C   0  0  0  0  0  0  0  0  0  0  0  0
    3.7601    2.3021    0.0000 C   0  0  0  0  0  0  0  0  0  0  0  0
    2.6477   -2.1397    0.0000 H   0  0  0  0  0  0  0  0  0  0  0  0
    4.8724   -2.1397    0.0000 H   0  0  0  0  0  0  0  0  0  0  0  0
    2.5126   -1.7241    0.0000 H   0  0  0  0  0  0  0  0  0  0  0  0
    4.3125   -0.4164    0.0000 H   0  0  0  0  0  0  0  0  0  0  0  0
    4.2906   -3.3175    0.0000 H   0  0  0  0  0  0  0  0  0  0  0  0
    5.0188   -3.6417    0.0000 H   0  0  0  0  0  0  0  0  0  0  0  0
    2.9245   -3.6121    0.0000 H   0  0  0  0  0  0  0  0  0  0  0  0
    2.3571    0.4921    0.0000 H   0  0  0  0  0  0  0  0  0  0  0  0
    6.2068   -3.4428    0.0000 H   0  0  0  0  0  0  0  0  0  0  0  0
    6.0946   -2.3748    0.0000 H   0  0  0  0  0  0  0  0  0  0  0  0
    4.2970    3.6121    0.0000 H   0  0  0  0  0  0  0  0  0  0  0  0
    3.2231    3.6121    0.0000 H   0  0  0  0  0  0  0  0  0  0  0  0
  1 17  1  0  0  0  0
 12  2  1  6  0  0  0
  3 11  1  0  0  0  0
  3 13  1  0  0  0  0
 10  4  1  1  0  0  0
  4 25  1  0  0  0  0
  5 16  2  0  0  0  0
 13  6  1  6  0  0  0
  6 15  1  0  0  0  0
  6 16  1  0  0  0  0
  7 14  1  0  0  0  0
  7 27  1  0  0  0  0
  7 28  1  0  0  0  0
  8 16  1  0  0  0  0
  8 18  2  0  0  0  0
  9 18  1  0  0  0  0
  9 29  1  0  0  0  0
  9 30  1  0  0  0  0
 10 11  1  0  0  0  0
 10 12  1  0  0  0  0
 10 19  1  0  0  0  0
 11 14  1  6  0  0  0
 11 20  1  0  0  0  0
 12 13  1  0  0  0  0
 12 21  1  0  0  0  0
 13 22  1  0  0  0  0
 14 23  1  0  0  0  0
 14 24  1  0  0  0  0
 15 17  2  0  0  0  0
 15 26  1  0  0  0  0
 17 18  1  0  0  0  0
M  END
> <PUBCHEM_COMPOUND_CID>
515099
> <PUBCHEM_COMPOUND_CANONICALIZED>
1
> <PUBCHEM_CACTVS_COMPLEXITY>
430
> <PUBCHEM_CACTVS_HBOND_ACCEPTOR>
5
> <PUBCHEM_CACTVS_HBOND_DONOR>
3
> <PUBCHEM_CACTVS_ROTATABLE_BOND>
2
> <PUBCHEM_CACTVS_SUBSKEYS>
AAADccBzsQAAAgAAAAAAAAAAAAAAASAAAAAgAAAAAAAAAAAAAAAAHwAwCAAACBTjgAYBAANABgCoAAJmdACAAAEAAAAAAIAIABCDEAIAgAAPQAAHFgIDAACwEAAAAAAAAAAAAAAAAAAAAAAAAAAAAAAAAA==
> <PUBCHEM_IUPAC_OPENEYE_NAME>
4-amino-1-[(2R,3S,4R,5R)-5-(aminomethyl)-3-fluoro-4-hydroxy-tetrahydrofuran-2-yl]-5-iodo-pyrimidin-2-one
> <PUBCHEM_IUPAC_CAS_NAME>
4-amino-1-[(2R,3S,4R,5R)-5-(aminomethyl)-3-fluoro-4-hydroxy-2-oxolanyl]-5-iodo-2-pyrimidinone
> <PUBCHEM_IUPAC_NAME_MARKUP>
4-amino-1-[(2<I>R</I>,3<I>S</I>,4<I>R</I>,5<I>R</I>)-5-(aminomethyl)-3-fluoro-4-hydroxyoxolan-2-yl]-5-iodopyrimidin-2-one
> <PUBCHEM_IUPAC_NAME>
4-amino-1-[(2R,3S,4R,5R)-5-(aminomethyl)-3-fluoro-4-hydroxyoxolan-2-yl]-5-iodopyrimidin-2-one
> <PUBCHEM_IUPAC_SYSTEMATIC_NAME>
1-[(2R,3S,4R,5R)-5-(aminomethyl)-3-fluoranyl-4-oxidanyl-oxolan-2-yl]-4-azanyl-5-iodanyl-pyrimidin-2-one
> <PUBCHEM_IUPAC_TRADITIONAL_NAME>
4-amino-1-[(2R,3S,4R,5R)-5-(aminomethyl)-3-fluoro-4-hydroxy-tetrahydrofuran-2-yl]-5-iodo-pyrimidin-2-one
> <PUBCHEM_IUPAC_INCHI>
InChI=1S/C9H12FIN4O3/c10-5-6(16)4(1-12)18-8(5)15-2-3(11)7(13)14-9(15)17/h2,4-6,8,16H,1,12H2,(H2,13,14,17)/t4-,5+,6-,8-/m1/s1
> <PUBCHEM_IUPAC_INCHIKEY>
PLTHDZDHDMWBBR-BYPJNBLXSA-N
> <PUBCHEM_XLOGP3>
-1
> <PUBCHEM_EXACT_MASS>
369.99382
> <PUBCHEM_MOLECULAR_FORMULA>
C9H12FIN4O3
> <PUBCHEM_MOLECULAR_WEIGHT>
370.12
> <PUBCHEM_OPENEYE_CAN_SMILES>
C1=C(C(=NC(=O)N1C2C(C(C(O2)CN)O)F)N)I
> <PUBCHEM_OPENEYE_ISO_SMILES>
C1=C(C(=NC(=O)N1[C@H]2[C@H]([C@@H]([C@H](O2)CN)O)F)N)I
> <PUBCHEM_CACTVS_TPSA>
114
> <PUBCHEM_MONOISOTOPIC_WEIGHT>
369.99382
> <PUBCHEM_TOTAL_CHARGE>
0
> <PUBCHEM_HEAVY_ATOM_COUNT>
18
> <PUBCHEM_ATOM_DEF_STEREO_COUNT>
4
> <PUBCHEM_ATOM_UDEF_STEREO_COUNT>
0
> <PUBCHEM_BOND_DEF_STEREO_COUNT>
0
> <PUBCHEM_BOND_UDEF_STEREO_COUNT>
0
> <PUBCHEM_ISOTOPIC_ATOM_COUNT>
0
> <PUBCHEM_COMPONENT_COUNT>
1
> <PUBCHEM_CACTVS_TAUTO_COUNT>
3
> <PUBCHEM_COORDINATE_TYPE>
1
5
255
> <PUBCHEM_BONDANNOTATIONS>
11  14  6
15  17  8
17  18  8
12  2  6
10  4  5
13  6  6
6  15  8
6  16  8
8  16  8
8  18  8
$$$$
