515083
  -OEChem-10302200282D
 30 31  0     1  0  0  0  0  0999 V2000
    5.4791   -1.0616    0.0000 O   0  0  0  0  0  0  0  0  0  0  0  0
    3.5823   -2.8217    0.0000 O   0  0  0  0  0  0  0  0  0  0  0  0
    6.7524   -2.7172    0.0000 O   0  0  0  0  0  0  0  0  0  0  0  0
    6.4021    0.5262    0.0000 O   0  0  0  0  0  0  0  0  0  0  0  0
    2.0000   -3.5262    0.0000 O   0  5  0  0  0  0  0  0  0  0  0  0
    2.1810   -1.8036    0.0000 O   0  0  0  0  0  0  0  0  0  0  0  0
    4.6701    3.5262    0.0000 O   0  0  0  0  0  0  0  0  0  0  0  0
    4.6701    0.5262    0.0000 N   0  0  0  0  0  0  0  0  0  0  0  0
    5.5361    2.0262    0.0000 N   0  0  0  0  0  0  0  0  0  0  0  0
    2.5878   -2.7172    0.0000 N   0  3  0  0  0  0  0  0  0  0  0  0
    4.1701   -2.0127    0.0000 C   0  0  3  0  0  0  0  0  0  0  0  0
    3.8611   -1.0616    0.0000 C   0  0  0  0  0  0  0  0  0  0  0  0
    5.1701   -2.0127    0.0000 C   0  0  3  0  0  0  0  0  0  0  0  0
    4.6701   -0.4738    0.0000 C   0  0  3  0  0  0  0  0  0  0  0  0
    5.7579   -2.8217    0.0000 C   0  0  0  0  0  0  0  0  0  0  0  0
    5.5361    1.0262    0.0000 C   0  0  0  0  0  0  0  0  0  0  0  0
    3.8041    1.0262    0.0000 C   0  0  0  0  0  0  0  0  0  0  0  0
    3.8041    2.0262    0.0000 C   0  0  0  0  0  0  0  0  0  0  0  0
    4.6701    2.5262    0.0000 C   0  0  0  0  0  0  0  0  0  0  0  0
    4.4516   -2.5651    0.0000 H   0  0  0  0  0  0  0  0  0  0  0  0
    3.5511   -0.5247    0.0000 H   0  0  0  0  0  0  0  0  0  0  0  0
    3.2947   -1.3138    0.0000 H   0  0  0  0  0  0  0  0  0  0  0  0
    5.7825   -1.9157    0.0000 H   0  0  0  0  0  0  0  0  0  0  0  0
    5.2225   -0.1924    0.0000 H   0  0  0  0  0  0  0  0  0  0  0  0
    5.2006   -3.0935    0.0000 H   0  0  0  0  0  0  0  0  0  0  0  0
    5.9288   -3.4177    0.0000 H   0  0  0  0  0  0  0  0  0  0  0  0
    3.2671    0.7162    0.0000 H   0  0  0  0  0  0  0  0  0  0  0  0
    7.1168   -3.2188    0.0000 H   0  0  0  0  0  0  0  0  0  0  0  0
    6.0730    2.3362    0.0000 H   0  0  0  0  0  0  0  0  0  0  0  0
    3.2671    2.3362    0.0000 H   0  0  0  0  0  0  0  0  0  0  0  0
  1 13  1  0  0  0  0
  1 14  1  0  0  0  0
  2 10  1  0  0  0  0
  2 11  1  0  0  0  0
  3 15  1  0  0  0  0
  3 28  1  0  0  0  0
  4 16  2  0  0  0  0
  5 10  1  0  0  0  0
  6 10  2  0  0  0  0
  7 19  2  0  0  0  0
  8 14  1  0  0  0  0
  8 16  1  0  0  0  0
  8 17  1  0  0  0  0
  9 16  1  0  0  0  0
  9 19  1  0  0  0  0
  9 29  1  0  0  0  0
 11 12  1  0  0  0  0
 11 13  1  0  0  0  0
 11 20  1  0  0  0  0
 12 14  1  0  0  0  0
 12 21  1  0  0  0  0
 12 22  1  0  0  0  0
 13 15  1  0  0  0  0
 13 23  1  0  0  0  0
 14 24  1  0  0  0  0
 15 25  1  0  0  0  0
 15 26  1  0  0  0  0
 17 18  2  0  0  0  0
 17 27  1  0  0  0  0
 18 19  1  0  0  0  0
 18 30  1  0  0  0  0
M  CHG  2   5  -1  10   1
M  END
> <PUBCHEM_COMPOUND_CID>
515083
> <PUBCHEM_COMPOUND_CANONICALIZED>
1
> <PUBCHEM_CACTVS_COMPLEXITY>
432
> <PUBCHEM_CACTVS_HBOND_ACCEPTOR>
7
> <PUBCHEM_CACTVS_HBOND_DONOR>
2
> <PUBCHEM_CACTVS_ROTATABLE_BOND>
3
> <PUBCHEM_CACTVS_SUBSKEYS>
AAADccBzOAAAAAAAAAAAAAAAAAAAASAAAAAgAAAAAAAAAAAAAAAAHgAUCAAACBThgAYBAAPARgCJACFWUQCAAAAAAgAIAAAIAECBEAIAgAAOQAAPFyIDAMCwMAIAAAAAAAAAAAAAAAAAAAAAAAAAAAAAAA==
> <PUBCHEM_IUPAC_OPENEYE_NAME>
[5-(2,4-dioxopyrimidin-1-yl)-2-(hydroxymethyl)tetrahydrofuran-3-yl] nitrate
> <PUBCHEM_IUPAC_CAS_NAME>
nitric acid [5-(2,4-dioxo-1-pyrimidinyl)-2-(hydroxymethyl)-3-oxolanyl] ester
> <PUBCHEM_IUPAC_NAME_MARKUP>
[5-(2,4-dioxopyrimidin-1-yl)-2-(hydroxymethyl)oxolan-3-yl] nitrate
> <PUBCHEM_IUPAC_NAME>
[5-(2,4-dioxopyrimidin-1-yl)-2-(hydroxymethyl)oxolan-3-yl] nitrate
> <PUBCHEM_IUPAC_SYSTEMATIC_NAME>
[5-[2,4-bis(oxidanylidene)pyrimidin-1-yl]-2-(hydroxymethyl)oxolan-3-yl] nitrate
> <PUBCHEM_IUPAC_TRADITIONAL_NAME>
nitric acid [5-(2,4-diketopyrimidin-1-yl)-2-methylol-tetrahydrofuran-3-yl] ester
> <PUBCHEM_IUPAC_INCHI>
InChI=1S/C9H11N3O7/c13-4-6-5(19-12(16)17)3-8(18-6)11-2-1-7(14)10-9(11)15/h1-2,5-6,8,13H,3-4H2,(H,10,14,15)
> <PUBCHEM_IUPAC_INCHIKEY>
FWHIZMZQPHLUAG-UHFFFAOYSA-N
> <PUBCHEM_XLOGP3>
-0.6
> <PUBCHEM_EXACT_MASS>
273.05969970
> <PUBCHEM_MOLECULAR_FORMULA>
C9H11N3O7
> <PUBCHEM_MOLECULAR_WEIGHT>
273.20
> <PUBCHEM_OPENEYE_CAN_SMILES>
C1C(C(OC1N2C=CC(=O)NC2=O)CO)O[N+](=O)[O-]
> <PUBCHEM_OPENEYE_ISO_SMILES>
C1C(C(OC1N2C=CC(=O)NC2=O)CO)O[N+](=O)[O-]
> <PUBCHEM_CACTVS_TPSA>
134
> <PUBCHEM_MONOISOTOPIC_WEIGHT>
273.05969970
> <PUBCHEM_TOTAL_CHARGE>
0
> <PUBCHEM_HEAVY_ATOM_COUNT>
19
> <PUBCHEM_ATOM_DEF_STEREO_COUNT>
0
> <PUBCHEM_ATOM_UDEF_STEREO_COUNT>
3
> <PUBCHEM_BOND_DEF_STEREO_COUNT>
0
> <PUBCHEM_BOND_UDEF_STEREO_COUNT>
0
> <PUBCHEM_ISOTOPIC_ATOM_COUNT>
0
> <PUBCHEM_COMPONENT_COUNT>
1
> <PUBCHEM_CACTVS_TAUTO_COUNT>
-1
> <PUBCHEM_COORDINATE_TYPE>
1
5
255
> <PUBCHEM_BONDANNOTATIONS>
13  15  3
17  18  8
18  19  8
11  2  3
14  8  3
8  16  8
8  17  8
9  16  8
9  19  8
$$$$
