515054
  -OEChem-10302200282D
 35 36  0     1  0  0  0  0  0999 V2000
    3.2320   -2.6573    0.0000 S   0  0  0  0  0  0  0  0  0  0  0  0
    4.5411   -1.7063    0.0000 O   0  0  0  0  0  0  0  0  0  0  0  0
    4.4131   -4.3799    0.0000 O   0  0  0  0  0  0  0  0  0  0  0  0
    5.4641   -0.1185    0.0000 O   0  0  0  0  0  0  0  0  0  0  0  0
    3.7320   -0.1185    0.0000 N   0  0  0  0  0  0  0  0  0  0  0  0
    4.5981    1.3815    0.0000 N   0  0  0  0  0  0  0  0  0  0  0  0
    3.7320    2.8815    0.0000 N   0  0  0  0  0  0  0  0  0  0  0  0
    2.8660    4.3815    0.0000 N   0  0  0  0  0  0  0  0  0  0  0  0
    3.7320   -1.1185    0.0000 C   0  0  2  0  0  0  0  0  0  0  0  0
    2.9230   -1.7063    0.0000 C   0  0  0  0  0  0  0  0  0  0  0  0
    4.2320   -2.6573    0.0000 C   0  0  1  0  0  0  0  0  0  0  0  0
    4.8198   -3.4664    0.0000 C   0  0  0  0  0  0  0  0  0  0  0  0
    2.8660    0.3815    0.0000 C   0  0  0  0  0  0  0  0  0  0  0  0
    4.5981    0.3815    0.0000 C   0  0  0  0  0  0  0  0  0  0  0  0
    2.8660    1.3815    0.0000 C   0  0  0  0  0  0  0  0  0  0  0  0
    3.7320    1.8815    0.0000 C   0  0  0  0  0  0  0  0  0  0  0  0
    2.8660    3.3815    0.0000 C   0  0  0  0  0  0  0  0  0  0  0  0
    2.0000    4.8815    0.0000 C   0  0  0  0  0  0  0  0  0  0  0  0
    3.7320    4.8815    0.0000 C   0  0  0  0  0  0  0  0  0  0  0  0
    4.2845   -0.8370    0.0000 H   0  0  0  0  0  0  0  0  0  0  0  0
    2.6130   -1.1693    0.0000 H   0  0  0  0  0  0  0  0  0  0  0  0
    2.3566   -1.9585    0.0000 H   0  0  0  0  0  0  0  0  0  0  0  0
    4.8444   -2.5604    0.0000 H   0  0  0  0  0  0  0  0  0  0  0  0
    5.3338   -3.8131    0.0000 H   0  0  0  0  0  0  0  0  0  0  0  0
    5.2505   -3.0204    0.0000 H   0  0  0  0  0  0  0  0  0  0  0  0
    2.3291    0.0715    0.0000 H   0  0  0  0  0  0  0  0  0  0  0  0
    2.3291    1.6915    0.0000 H   0  0  0  0  0  0  0  0  0  0  0  0
    4.7775   -4.8815    0.0000 H   0  0  0  0  0  0  0  0  0  0  0  0
    2.3291    3.0715    0.0000 H   0  0  0  0  0  0  0  0  0  0  0  0
    2.3100    5.4184    0.0000 H   0  0  0  0  0  0  0  0  0  0  0  0
    1.4631    5.1915    0.0000 H   0  0  0  0  0  0  0  0  0  0  0  0
    1.6900    4.3446    0.0000 H   0  0  0  0  0  0  0  0  0  0  0  0
    4.0420    4.3446    0.0000 H   0  0  0  0  0  0  0  0  0  0  0  0
    4.2690    5.1915    0.0000 H   0  0  0  0  0  0  0  0  0  0  0  0
    3.4220    5.4184    0.0000 H   0  0  0  0  0  0  0  0  0  0  0  0
  1 10  1  0  0  0  0
  1 11  1  0  0  0  0
  2  9  1  0  0  0  0
  2 11  1  0  0  0  0
  3 12  1  0  0  0  0
  3 28  1  0  0  0  0
  4 14  2  0  0  0  0
  9  5  1  1  0  0  0
  5 13  1  0  0  0  0
  5 14  1  0  0  0  0
  6 14  1  0  0  0  0
  6 16  2  0  0  0  0
  7 16  1  0  0  0  0
  7 17  2  0  0  0  0
  8 17  1  0  0  0  0
  8 18  1  0  0  0  0
  8 19  1  0  0  0  0
  9 10  1  0  0  0  0
  9 20  1  0  0  0  0
 10 21  1  0  0  0  0
 10 22  1  0  0  0  0
 11 12  1  1  0  0  0
 11 23  1  0  0  0  0
 12 24  1  0  0  0  0
 12 25  1  0  0  0  0
 13 15  2  0  0  0  0
 13 26  1  0  0  0  0
 15 16  1  0  0  0  0
 15 27  1  0  0  0  0
 17 29  1  0  0  0  0
 18 30  1  0  0  0  0
 18 31  1  0  0  0  0
 18 32  1  0  0  0  0
 19 33  1  0  0  0  0
 19 34  1  0  0  0  0
 19 35  1  0  0  0  0
M  END
> <PUBCHEM_COMPOUND_CID>
515054
> <PUBCHEM_COMPOUND_CANONICALIZED>
1
> <PUBCHEM_CACTVS_COMPLEXITY>
436
> <PUBCHEM_CACTVS_HBOND_ACCEPTOR>
4
> <PUBCHEM_CACTVS_HBOND_DONOR>
1
> <PUBCHEM_CACTVS_ROTATABLE_BOND>
4
> <PUBCHEM_CACTVS_SUBSKEYS>
AAADceBzsABAAAAAAAAAAAAAAAAAASAAAAAgAAAAAAAAAAAAAAAAHgQACAAACADlwAaDAAMABgioACJndACAAAEAAhAJAAAYABCBEAAAAAAKAAAABgIjAAAAAAAAAAAAAAAAAAAAAAAAAAAAAAAAAAAAAA==
> <PUBCHEM_IUPAC_OPENEYE_NAME>
N'-[1-[(2R,5S)-2-(hydroxymethyl)-1,3-oxathiolan-5-yl]-2-oxo-pyrimidin-4-yl]-N,N-dimethyl-formamidine
> <PUBCHEM_IUPAC_CAS_NAME>
N'-[1-[(2R,5S)-2-(hydroxymethyl)-1,3-oxathiolan-5-yl]-2-oxo-4-pyrimidinyl]-N,N-dimethylmethanimidamide
> <PUBCHEM_IUPAC_NAME_MARKUP>
<I>N</I>&apos;-[1-[(2<I>R</I>,5<I>S</I>)-2-(hydroxymethyl)-1,3-oxathiolan-5-yl]-2-oxopyrimidin-4-yl]-<I>N</I>,<I>N</I>-dimethylmethanimidamide
> <PUBCHEM_IUPAC_NAME>
N'-[1-[(2R,5S)-2-(hydroxymethyl)-1,3-oxathiolan-5-yl]-2-oxopyrimidin-4-yl]-N,N-dimethylmethanimidamide
> <PUBCHEM_IUPAC_SYSTEMATIC_NAME>
N'-[1-[(2R,5S)-2-(hydroxymethyl)-1,3-oxathiolan-5-yl]-2-oxidanylidene-pyrimidin-4-yl]-N,N-dimethyl-methanimidamide
> <PUBCHEM_IUPAC_TRADITIONAL_NAME>
N'-[2-keto-1-[(2R,5S)-2-methylol-1,3-oxathiolan-5-yl]pyrimidin-4-yl]-N,N-dimethyl-formamidine
> <PUBCHEM_IUPAC_INCHI>
InChI=1S/C11H16N4O3S/c1-14(2)7-12-8-3-4-15(11(17)13-8)9-6-19-10(5-16)18-9/h3-4,7,9-10,16H,5-6H2,1-2H3/t9-,10+/m0/s1
> <PUBCHEM_IUPAC_INCHIKEY>
RNXBLTWOYHAQMD-VHSXEESVSA-N
> <PUBCHEM_XLOGP3>
-0.3
> <PUBCHEM_EXACT_MASS>
284.09431156
> <PUBCHEM_MOLECULAR_FORMULA>
C11H16N4O3S
> <PUBCHEM_MOLECULAR_WEIGHT>
284.34
> <PUBCHEM_OPENEYE_CAN_SMILES>
CN(C)C=NC1=NC(=O)N(C=C1)C2CSC(O2)CO
> <PUBCHEM_OPENEYE_ISO_SMILES>
CN(C)C=NC1=NC(=O)N(C=C1)[C@@H]2CS[C@@H](O2)CO
> <PUBCHEM_CACTVS_TPSA>
103
> <PUBCHEM_MONOISOTOPIC_WEIGHT>
284.09431156
> <PUBCHEM_TOTAL_CHARGE>
0
> <PUBCHEM_HEAVY_ATOM_COUNT>
19
> <PUBCHEM_ATOM_DEF_STEREO_COUNT>
2
> <PUBCHEM_ATOM_UDEF_STEREO_COUNT>
0
> <PUBCHEM_BOND_DEF_STEREO_COUNT>
0
> <PUBCHEM_BOND_UDEF_STEREO_COUNT>
0
> <PUBCHEM_ISOTOPIC_ATOM_COUNT>
0
> <PUBCHEM_COMPONENT_COUNT>
1
> <PUBCHEM_CACTVS_TAUTO_COUNT>
-1
> <PUBCHEM_COORDINATE_TYPE>
1
5
255
> <PUBCHEM_BONDANNOTATIONS>
11  12  5
13  15  8
15  16  8
5  13  8
5  14  8
9  5  5
6  14  8
6  16  8
$$$$
