515009
  -OEChem-10302200282D
 64 67  0     1  0  0  0  0  0999 V2000
    5.0653   -1.0000    0.0000 O   0  0  0  0  0  0  0  0  0  0  0  0
    2.7099   -4.6160    0.0000 O   0  0  0  0  0  0  0  0  0  0  0  0
    7.6634    0.5000    0.0000 N   0  0  0  0  0  0  0  0  0  0  0  0
    5.9313   -2.5000    0.0000 N   0  0  0  0  0  0  0  0  0  0  0  0
    2.6166   -2.8364    0.0000 N   0  0  0  0  0  0  0  0  0  0  0  0
    7.6634    2.5000    0.0000 C   0  0  0  0  0  0  0  0  0  0  0  0
    6.7974    2.0000    0.0000 C   0  0  0  0  0  0  0  0  0  0  0  0
    8.5294    2.0000    0.0000 C   0  0  0  0  0  0  0  0  0  0  0  0
    6.7974    1.0000    0.0000 C   0  0  0  0  0  0  0  0  0  0  0  0
    8.5294    1.0000    0.0000 C   0  0  0  0  0  0  0  0  0  0  0  0
    7.6634    3.5000    0.0000 C   0  0  0  0  0  0  0  0  0  0  0  0
    7.6634   -0.5000    0.0000 C   0  0  0  0  0  0  0  0  0  0  0  0
    6.7974   -1.0000    0.0000 C   0  0  0  0  0  0  0  0  0  0  0  0
    6.7974   -2.0000    0.0000 C   0  0  0  0  0  0  0  0  0  0  0  0
    8.5294    4.0000    0.0000 C   0  0  0  0  0  0  0  0  0  0  0  0
    4.1993   -2.5000    0.0000 C   0  0  3  0  0  0  0  0  0  0  0  0
    5.0653   -2.0000    0.0000 C   0  0  0  0  0  0  0  0  0  0  0  0
    3.2857   -2.0933    0.0000 C   0  0  0  0  0  0  0  0  0  0  0  0
    4.0948   -3.4945    0.0000 C   0  0  0  0  0  0  0  0  0  0  0  0
    8.5294    5.0000    0.0000 C   0  0  0  0  0  0  0  0  0  0  0  0
    9.3954    3.5000    0.0000 C   0  0  0  0  0  0  0  0  0  0  0  0
    5.9313   -3.5000    0.0000 C   0  0  0  0  0  0  0  0  0  0  0  0
    3.1166   -3.7024    0.0000 C   0  0  0  0  0  0  0  0  0  0  0  0
    9.3954    5.5000    0.0000 C   0  0  0  0  0  0  0  0  0  0  0  0
   10.2615    4.0000    0.0000 C   0  0  0  0  0  0  0  0  0  0  0  0
    6.7974   -4.0000    0.0000 C   0  0  0  0  0  0  0  0  0  0  0  0
    5.0653   -4.0000    0.0000 C   0  0  0  0  0  0  0  0  0  0  0  0
   10.2615    5.0000    0.0000 C   0  0  0  0  0  0  0  0  0  0  0  0
    6.7974   -5.0000    0.0000 C   0  0  0  0  0  0  0  0  0  0  0  0
    5.0653   -5.0000    0.0000 C   0  0  0  0  0  0  0  0  0  0  0  0
    5.9313   -5.5000    0.0000 C   0  0  0  0  0  0  0  0  0  0  0  0
    8.2003    2.8100    0.0000 H   0  0  0  0  0  0  0  0  0  0  0  0
    6.5853    2.5826    0.0000 H   0  0  0  0  0  0  0  0  0  0  0  0
    6.1868    1.8923    0.0000 H   0  0  0  0  0  0  0  0  0  0  0  0
    9.1400    1.8923    0.0000 H   0  0  0  0  0  0  0  0  0  0  0  0
    8.7415    2.5826    0.0000 H   0  0  0  0  0  0  0  0  0  0  0  0
    6.1868    1.1077    0.0000 H   0  0  0  0  0  0  0  0  0  0  0  0
    6.5853    0.4174    0.0000 H   0  0  0  0  0  0  0  0  0  0  0  0
    8.7415    0.4174    0.0000 H   0  0  0  0  0  0  0  0  0  0  0  0
    9.1400    1.1077    0.0000 H   0  0  0  0  0  0  0  0  0  0  0  0
    7.4513    4.0826    0.0000 H   0  0  0  0  0  0  0  0  0  0  0  0
    7.0528    3.3923    0.0000 H   0  0  0  0  0  0  0  0  0  0  0  0
    7.8754   -1.0826    0.0000 H   0  0  0  0  0  0  0  0  0  0  0  0
    8.2740   -0.3923    0.0000 H   0  0  0  0  0  0  0  0  0  0  0  0
    6.5853   -0.4174    0.0000 H   0  0  0  0  0  0  0  0  0  0  0  0
    6.1868   -1.1077    0.0000 H   0  0  0  0  0  0  0  0  0  0  0  0
    7.0094   -2.5826    0.0000 H   0  0  0  0  0  0  0  0  0  0  0  0
    7.4079   -1.8923    0.0000 H   0  0  0  0  0  0  0  0  0  0  0  0
    4.1668   -1.8808    0.0000 H   0  0  0  0  0  0  0  0  0  0  0  0
    3.5957   -1.5563    0.0000 H   0  0  0  0  0  0  0  0  0  0  0  0
    2.7841   -1.7288    0.0000 H   0  0  0  0  0  0  0  0  0  0  0  0
    4.1596   -4.1111    0.0000 H   0  0  0  0  0  0  0  0  0  0  0  0
    4.7148   -3.4945    0.0000 H   0  0  0  0  0  0  0  0  0  0  0  0
    7.9925    5.3100    0.0000 H   0  0  0  0  0  0  0  0  0  0  0  0
    9.3954    2.8800    0.0000 H   0  0  0  0  0  0  0  0  0  0  0  0
    2.0000   -2.7716    0.0000 H   0  0  0  0  0  0  0  0  0  0  0  0
    9.3954    6.1200    0.0000 H   0  0  0  0  0  0  0  0  0  0  0  0
   10.7984    3.6900    0.0000 H   0  0  0  0  0  0  0  0  0  0  0  0
    7.3343   -3.6900    0.0000 H   0  0  0  0  0  0  0  0  0  0  0  0
    4.5284   -3.6900    0.0000 H   0  0  0  0  0  0  0  0  0  0  0  0
   10.7984    5.3100    0.0000 H   0  0  0  0  0  0  0  0  0  0  0  0
    7.3343   -5.3100    0.0000 H   0  0  0  0  0  0  0  0  0  0  0  0
    4.5284   -5.3100    0.0000 H   0  0  0  0  0  0  0  0  0  0  0  0
    5.9313   -6.1200    0.0000 H   0  0  0  0  0  0  0  0  0  0  0  0
  1 17  2  0  0  0  0
  2 23  2  0  0  0  0
  3  9  1  0  0  0  0
  3 10  1  0  0  0  0
  3 12  1  0  0  0  0
  4 14  1  0  0  0  0
  4 17  1  0  0  0  0
  4 22  1  0  0  0  0
  5 18  1  0  0  0  0
  5 23  1  0  0  0  0
  5 56  1  0  0  0  0
  6  7  1  0  0  0  0
  6  8  1  0  0  0  0
  6 11  1  0  0  0  0
  6 32  1  0  0  0  0
  7  9  1  0  0  0  0
  7 33  1  0  0  0  0
  7 34  1  0  0  0  0
  8 10  1  0  0  0  0
  8 35  1  0  0  0  0
  8 36  1  0  0  0  0
  9 37  1  0  0  0  0
  9 38  1  0  0  0  0
 10 39  1  0  0  0  0
 10 40  1  0  0  0  0
 11 15  1  0  0  0  0
 11 41  1  0  0  0  0
 11 42  1  0  0  0  0
 12 13  1  0  0  0  0
 12 43  1  0  0  0  0
 12 44  1  0  0  0  0
 13 14  1  0  0  0  0
 13 45  1  0  0  0  0
 13 46  1  0  0  0  0
 14 47  1  0  0  0  0
 14 48  1  0  0  0  0
 15 20  2  0  0  0  0
 15 21  1  0  0  0  0
 16 17  1  0  0  0  0
 16 18  1  0  0  0  0
 16 19  1  0  0  0  0
 16 49  1  0  0  0  0
 18 50  1  0  0  0  0
 18 51  1  0  0  0  0
 19 23  1  0  0  0  0
 19 52  1  0  0  0  0
 19 53  1  0  0  0  0
 20 24  1  0  0  0  0
 20 54  1  0  0  0  0
 21 25  2  0  0  0  0
 21 55  1  0  0  0  0
 22 26  2  0  0  0  0
 22 27  1  0  0  0  0
 24 28  2  0  0  0  0
 24 57  1  0  0  0  0
 25 28  1  0  0  0  0
 25 58  1  0  0  0  0
 26 29  1  0  0  0  0
 26 59  1  0  0  0  0
 27 30  2  0  0  0  0
 27 60  1  0  0  0  0
 28 61  1  0  0  0  0
 29 31  2  0  0  0  0
 29 62  1  0  0  0  0
 30 31  1  0  0  0  0
 30 63  1  0  0  0  0
 31 64  1  0  0  0  0
M  END
> <PUBCHEM_COMPOUND_CID>
515009
> <PUBCHEM_COMPOUND_CANONICALIZED>
1
> <PUBCHEM_CACTVS_COMPLEXITY>
575
> <PUBCHEM_CACTVS_HBOND_ACCEPTOR>
3
> <PUBCHEM_CACTVS_HBOND_DONOR>
1
> <PUBCHEM_CACTVS_ROTATABLE_BOND>
8
> <PUBCHEM_CACTVS_SUBSKEYS>
AAADcfB7MAAAAAAAAAAAAAAAAAAAAWAAAAA8YIAAAAAAAAABQAAAHgAQAAAADQjBmAQwwIPAAACIAiVSUACCAAAhAgAIiIEIZIgIIDrA0ZGEIAhglgDIyAcVgMAOAAAAAAAAAAAAAAAAAAAAAAAAAAAAAA==
> <PUBCHEM_IUPAC_OPENEYE_NAME>
N-[3-(4-benzyl-1-piperidyl)propyl]-5-oxo-N-phenyl-pyrrolidine-3-carboxamide
> <PUBCHEM_IUPAC_CAS_NAME>
5-oxo-N-phenyl-N-[3-[4-(phenylmethyl)-1-piperidinyl]propyl]-3-pyrrolidinecarboxamide
> <PUBCHEM_IUPAC_NAME_MARKUP>
<I>N</I>-[3-(4-benzylpiperidin-1-yl)propyl]-5-oxo-<I>N</I>-phenylpyrrolidine-3-carboxamide
> <PUBCHEM_IUPAC_NAME>
N-[3-(4-benzylpiperidin-1-yl)propyl]-5-oxo-N-phenylpyrrolidine-3-carboxamide
> <PUBCHEM_IUPAC_SYSTEMATIC_NAME>
5-oxidanylidene-N-phenyl-N-[3-[4-(phenylmethyl)piperidin-1-yl]propyl]pyrrolidine-3-carboxamide
> <PUBCHEM_IUPAC_TRADITIONAL_NAME>
N-[3-(4-benzylpiperidino)propyl]-5-keto-N-phenyl-pyrrolidine-3-carboxamide
> <PUBCHEM_IUPAC_INCHI>
InChI=1S/C26H33N3O2/c30-25-19-23(20-27-25)26(31)29(24-10-5-2-6-11-24)15-7-14-28-16-12-22(13-17-28)18-21-8-3-1-4-9-21/h1-6,8-11,22-23H,7,12-20H2,(H,27,30)
> <PUBCHEM_IUPAC_INCHIKEY>
KFMOCSHYSCJPNN-UHFFFAOYSA-N
> <PUBCHEM_XLOGP3_AA>
3.4
> <PUBCHEM_EXACT_MASS>
419.25727730
> <PUBCHEM_MOLECULAR_FORMULA>
C26H33N3O2
> <PUBCHEM_MOLECULAR_WEIGHT>
419.6
> <PUBCHEM_OPENEYE_CAN_SMILES>
C1CN(CCC1CC2=CC=CC=C2)CCCN(C3=CC=CC=C3)C(=O)C4CC(=O)NC4
> <PUBCHEM_OPENEYE_ISO_SMILES>
C1CN(CCC1CC2=CC=CC=C2)CCCN(C3=CC=CC=C3)C(=O)C4CC(=O)NC4
> <PUBCHEM_CACTVS_TPSA>
52.6
> <PUBCHEM_MONOISOTOPIC_WEIGHT>
419.25727730
> <PUBCHEM_TOTAL_CHARGE>
0
> <PUBCHEM_HEAVY_ATOM_COUNT>
31
> <PUBCHEM_ATOM_DEF_STEREO_COUNT>
0
> <PUBCHEM_ATOM_UDEF_STEREO_COUNT>
1
> <PUBCHEM_BOND_DEF_STEREO_COUNT>
0
> <PUBCHEM_BOND_UDEF_STEREO_COUNT>
0
> <PUBCHEM_ISOTOPIC_ATOM_COUNT>
0
> <PUBCHEM_COMPONENT_COUNT>
1
> <PUBCHEM_CACTVS_TAUTO_COUNT>
-1
> <PUBCHEM_COORDINATE_TYPE>
1
5
255
> <PUBCHEM_BONDANNOTATIONS>
15  20  8
15  21  8
16  17  3
20  24  8
21  25  8
22  26  8
22  27  8
24  28  8
25  28  8
26  29  8
27  30  8
29  31  8
30  31  8
$$$$
