515084
  -OEChem-10302200282D
 33 34  0     1  0  0  0  0  0999 V2000
    5.4791   -1.0616    0.0000 O   0  0  0  0  0  0  0  0  0  0  0  0
    3.5823   -2.8217    0.0000 O   0  0  0  0  0  0  0  0  0  0  0  0
    6.7524   -2.7172    0.0000 O   0  0  0  0  0  0  0  0  0  0  0  0
    6.4021    0.5262    0.0000 O   0  0  0  0  0  0  0  0  0  0  0  0
    4.6701    3.5262    0.0000 O   0  0  0  0  0  0  0  0  0  0  0  0
    2.0000   -3.5262    0.0000 O   0  5  0  0  0  0  0  0  0  0  0  0
    2.1810   -1.8036    0.0000 O   0  0  0  0  0  0  0  0  0  0  0  0
    4.6701    0.5262    0.0000 N   0  0  0  0  0  0  0  0  0  0  0  0
    5.5361    2.0262    0.0000 N   0  0  0  0  0  0  0  0  0  0  0  0
    2.5878   -2.7172    0.0000 N   0  3  0  0  0  0  0  0  0  0  0  0
    4.1701   -2.0127    0.0000 C   0  0  3  0  0  0  0  0  0  0  0  0
    3.8611   -1.0616    0.0000 C   0  0  0  0  0  0  0  0  0  0  0  0
    4.6701   -0.4738    0.0000 C   0  0  3  0  0  0  0  0  0  0  0  0
    5.1701   -2.0127    0.0000 C   0  0  3  0  0  0  0  0  0  0  0  0
    5.7579   -2.8217    0.0000 C   0  0  0  0  0  0  0  0  0  0  0  0
    3.8041    1.0262    0.0000 C   0  0  0  0  0  0  0  0  0  0  0  0
    5.5361    1.0262    0.0000 C   0  0  0  0  0  0  0  0  0  0  0  0
    3.8041    2.0262    0.0000 C   0  0  0  0  0  0  0  0  0  0  0  0
    4.6701    2.5262    0.0000 C   0  0  0  0  0  0  0  0  0  0  0  0
    2.9380    2.5262    0.0000 C   0  0  0  0  0  0  0  0  0  0  0  0
    4.4516   -2.5651    0.0000 H   0  0  0  0  0  0  0  0  0  0  0  0
    3.5511   -0.5247    0.0000 H   0  0  0  0  0  0  0  0  0  0  0  0
    3.2947   -1.3138    0.0000 H   0  0  0  0  0  0  0  0  0  0  0  0
    5.2225   -0.1924    0.0000 H   0  0  0  0  0  0  0  0  0  0  0  0
    5.7825   -1.9157    0.0000 H   0  0  0  0  0  0  0  0  0  0  0  0
    5.2006   -3.0935    0.0000 H   0  0  0  0  0  0  0  0  0  0  0  0
    5.9288   -3.4177    0.0000 H   0  0  0  0  0  0  0  0  0  0  0  0
    3.2671    0.7162    0.0000 H   0  0  0  0  0  0  0  0  0  0  0  0
    6.0730    2.3362    0.0000 H   0  0  0  0  0  0  0  0  0  0  0  0
    7.1168   -3.2188    0.0000 H   0  0  0  0  0  0  0  0  0  0  0  0
    3.2480    3.0631    0.0000 H   0  0  0  0  0  0  0  0  0  0  0  0
    2.4011    2.8362    0.0000 H   0  0  0  0  0  0  0  0  0  0  0  0
    2.6280    1.9892    0.0000 H   0  0  0  0  0  0  0  0  0  0  0  0
  1 13  1  0  0  0  0
  1 14  1  0  0  0  0
  2 10  1  0  0  0  0
  2 11  1  0  0  0  0
  3 15  1  0  0  0  0
  3 30  1  0  0  0  0
  4 17  2  0  0  0  0
  5 19  2  0  0  0  0
  6 10  1  0  0  0  0
  7 10  2  0  0  0  0
  8 13  1  0  0  0  0
  8 16  1  0  0  0  0
  8 17  1  0  0  0  0
  9 17  1  0  0  0  0
  9 19  1  0  0  0  0
  9 29  1  0  0  0  0
 11 12  1  0  0  0  0
 11 14  1  0  0  0  0
 11 21  1  0  0  0  0
 12 13  1  0  0  0  0
 12 22  1  0  0  0  0
 12 23  1  0  0  0  0
 13 24  1  0  0  0  0
 14 15  1  0  0  0  0
 14 25  1  0  0  0  0
 15 26  1  0  0  0  0
 15 27  1  0  0  0  0
 16 18  2  0  0  0  0
 16 28  1  0  0  0  0
 18 19  1  0  0  0  0
 18 20  1  0  0  0  0
 20 31  1  0  0  0  0
 20 32  1  0  0  0  0
 20 33  1  0  0  0  0
M  CHG  2   6  -1  10   1
M  END
> <PUBCHEM_COMPOUND_CID>
515084
> <PUBCHEM_COMPOUND_CANONICALIZED>
1
> <PUBCHEM_CACTVS_COMPLEXITY>
472
> <PUBCHEM_CACTVS_HBOND_ACCEPTOR>
7
> <PUBCHEM_CACTVS_HBOND_DONOR>
2
> <PUBCHEM_CACTVS_ROTATABLE_BOND>
3
> <PUBCHEM_CACTVS_SUBSKEYS>
AAADccBzOAAAAAAAAAAAAAAAAAAAASAAAAAgAAAAAAAAAAAAAAAAHgAUCAAADBThgAYDAAPARgCJAgFWUQCAAAAAAAAAAAEIAECBEAIAgQAOQAAPByIDAMCwMAIAAAAAAAAAAAAAAAAAAAAAAAAAAAAAAA==
> <PUBCHEM_IUPAC_OPENEYE_NAME>
[2-(hydroxymethyl)-5-(5-methyl-2,4-dioxo-pyrimidin-1-yl)tetrahydrofuran-3-yl] nitrate
> <PUBCHEM_IUPAC_CAS_NAME>
nitric acid [2-(hydroxymethyl)-5-(5-methyl-2,4-dioxo-1-pyrimidinyl)-3-oxolanyl] ester
> <PUBCHEM_IUPAC_NAME_MARKUP>
[2-(hydroxymethyl)-5-(5-methyl-2,4-dioxopyrimidin-1-yl)oxolan-3-yl] nitrate
> <PUBCHEM_IUPAC_NAME>
[2-(hydroxymethyl)-5-(5-methyl-2,4-dioxopyrimidin-1-yl)oxolan-3-yl] nitrate
> <PUBCHEM_IUPAC_SYSTEMATIC_NAME>
[2-(hydroxymethyl)-5-[5-methyl-2,4-bis(oxidanylidene)pyrimidin-1-yl]oxolan-3-yl] nitrate
> <PUBCHEM_IUPAC_TRADITIONAL_NAME>
nitric acid [5-(2,4-diketo-5-methyl-pyrimidin-1-yl)-2-methylol-tetrahydrofuran-3-yl] ester
> <PUBCHEM_IUPAC_INCHI>
InChI=1S/C10H13N3O7/c1-5-3-12(10(16)11-9(5)15)8-2-6(20-13(17)18)7(4-14)19-8/h3,6-8,14H,2,4H2,1H3,(H,11,15,16)
> <PUBCHEM_IUPAC_INCHIKEY>
IETUTDWZXUFCPZ-UHFFFAOYSA-N
> <PUBCHEM_XLOGP3>
-0.4
> <PUBCHEM_EXACT_MASS>
287.07534976
> <PUBCHEM_MOLECULAR_FORMULA>
C10H13N3O7
> <PUBCHEM_MOLECULAR_WEIGHT>
287.23
> <PUBCHEM_OPENEYE_CAN_SMILES>
CC1=CN(C(=O)NC1=O)C2CC(C(O2)CO)O[N+](=O)[O-]
> <PUBCHEM_OPENEYE_ISO_SMILES>
CC1=CN(C(=O)NC1=O)C2CC(C(O2)CO)O[N+](=O)[O-]
> <PUBCHEM_CACTVS_TPSA>
134
> <PUBCHEM_MONOISOTOPIC_WEIGHT>
287.07534976
> <PUBCHEM_TOTAL_CHARGE>
0
> <PUBCHEM_HEAVY_ATOM_COUNT>
20
> <PUBCHEM_ATOM_DEF_STEREO_COUNT>
0
> <PUBCHEM_ATOM_UDEF_STEREO_COUNT>
3
> <PUBCHEM_BOND_DEF_STEREO_COUNT>
0
> <PUBCHEM_BOND_UDEF_STEREO_COUNT>
0
> <PUBCHEM_ISOTOPIC_ATOM_COUNT>
0
> <PUBCHEM_COMPONENT_COUNT>
1
> <PUBCHEM_CACTVS_TAUTO_COUNT>
-1
> <PUBCHEM_COORDINATE_TYPE>
1
5
255
> <PUBCHEM_BONDANNOTATIONS>
14  15  3
16  18  8
18  19  8
11  2  3
13  8  3
8  16  8
8  17  8
9  17  8
9  19  8
$$$$
