515059
  -OEChem-10302200282D
 55 58  0     1  0  0  0  0  0999 V2000
    5.8301   -3.4073    0.0000 S   0  0  0  0  0  0  0  0  0  0  0  0
    7.1391   -2.4563    0.0000 O   0  0  0  0  0  0  0  0  0  0  0  0
    7.0112   -5.1299    0.0000 O   0  0  0  0  0  0  0  0  0  0  0  0
    8.0622   -0.8685    0.0000 O   0  0  0  0  0  0  0  0  0  0  0  0
    6.3301   -0.8685    0.0000 N   0  0  0  0  0  0  0  0  0  0  0  0
    7.1962    0.6315    0.0000 N   0  0  0  0  0  0  0  0  0  0  0  0
    5.4641    3.6315    0.0000 N   0  0  0  0  0  0  0  0  0  0  0  0
    6.3301    2.1315    0.0000 N   0  0  0  0  0  0  0  0  0  0  0  0
    6.3301   -1.8685    0.0000 C   0  0  2  0  0  0  0  0  0  0  0  0
    5.5211   -2.4563    0.0000 C   0  0  0  0  0  0  0  0  0  0  0  0
    6.8301   -3.4073    0.0000 C   0  0  1  0  0  0  0  0  0  0  0  0
    7.4179   -4.2164    0.0000 C   0  0  0  0  0  0  0  0  0  0  0  0
    5.4641   -0.3685    0.0000 C   0  0  0  0  0  0  0  0  0  0  0  0
    7.1962   -0.3685    0.0000 C   0  0  0  0  0  0  0  0  0  0  0  0
    5.4641    0.6315    0.0000 C   0  0  0  0  0  0  0  0  0  0  0  0
    6.3301    1.1315    0.0000 C   0  0  0  0  0  0  0  0  0  0  0  0
    4.5981    4.1315    0.0000 C   0  0  0  0  0  0  0  0  0  0  0  0
    6.3301    4.1315    0.0000 C   0  0  0  0  0  0  0  0  0  0  0  0
    5.4641    2.6315    0.0000 C   0  0  0  0  0  0  0  0  0  0  0  0
    4.5981    5.1315    0.0000 C   0  0  0  0  0  0  0  0  0  0  0  0
    7.1962    3.6315    0.0000 C   0  0  0  0  0  0  0  0  0  0  0  0
    3.7320    3.6315    0.0000 C   0  0  0  0  0  0  0  0  0  0  0  0
    6.3301    5.1315    0.0000 C   0  0  0  0  0  0  0  0  0  0  0  0
    2.8660    5.1315    0.0000 C   0  0  0  0  0  0  0  0  0  0  0  0
    8.0622    5.1315    0.0000 C   0  0  0  0  0  0  0  0  0  0  0  0
    3.7320    5.6315    0.0000 C   0  0  0  0  0  0  0  0  0  0  0  0
    8.0622    4.1315    0.0000 C   0  0  0  0  0  0  0  0  0  0  0  0
    2.8660    4.1315    0.0000 C   0  0  0  0  0  0  0  0  0  0  0  0
    7.1962    5.6315    0.0000 C   0  0  0  0  0  0  0  0  0  0  0  0
    2.0000    5.6315    0.0000 C   0  0  0  0  0  0  0  0  0  0  0  0
    8.9282    5.6315    0.0000 C   0  0  0  0  0  0  0  0  0  0  0  0
    6.8826   -1.5870    0.0000 H   0  0  0  0  0  0  0  0  0  0  0  0
    5.2111   -1.9194    0.0000 H   0  0  0  0  0  0  0  0  0  0  0  0
    4.9547   -2.7085    0.0000 H   0  0  0  0  0  0  0  0  0  0  0  0
    7.4425   -3.3104    0.0000 H   0  0  0  0  0  0  0  0  0  0  0  0
    7.9319   -4.5631    0.0000 H   0  0  0  0  0  0  0  0  0  0  0  0
    7.8486   -3.7704    0.0000 H   0  0  0  0  0  0  0  0  0  0  0  0
    4.9272   -0.6785    0.0000 H   0  0  0  0  0  0  0  0  0  0  0  0
    4.9272    0.9415    0.0000 H   0  0  0  0  0  0  0  0  0  0  0  0
    7.3756   -5.6315    0.0000 H   0  0  0  0  0  0  0  0  0  0  0  0
    4.9272    2.3215    0.0000 H   0  0  0  0  0  0  0  0  0  0  0  0
    5.1350    5.4415    0.0000 H   0  0  0  0  0  0  0  0  0  0  0  0
    7.1962    3.0115    0.0000 H   0  0  0  0  0  0  0  0  0  0  0  0
    3.7320    3.0115    0.0000 H   0  0  0  0  0  0  0  0  0  0  0  0
    5.7932    5.4415    0.0000 H   0  0  0  0  0  0  0  0  0  0  0  0
    3.7320    6.2515    0.0000 H   0  0  0  0  0  0  0  0  0  0  0  0
    8.5991    3.8215    0.0000 H   0  0  0  0  0  0  0  0  0  0  0  0
    2.3291    3.8215    0.0000 H   0  0  0  0  0  0  0  0  0  0  0  0
    7.1962    6.2515    0.0000 H   0  0  0  0  0  0  0  0  0  0  0  0
    2.3100    6.1684    0.0000 H   0  0  0  0  0  0  0  0  0  0  0  0
    1.4631    5.9415    0.0000 H   0  0  0  0  0  0  0  0  0  0  0  0
    1.6900    5.0946    0.0000 H   0  0  0  0  0  0  0  0  0  0  0  0
    9.2382    5.0946    0.0000 H   0  0  0  0  0  0  0  0  0  0  0  0
    9.4651    5.9415    0.0000 H   0  0  0  0  0  0  0  0  0  0  0  0
    8.6182    6.1684    0.0000 H   0  0  0  0  0  0  0  0  0  0  0  0
  1 10  1  0  0  0  0
  1 11  1  0  0  0  0
  2  9  1  0  0  0  0
  2 11  1  0  0  0  0
  3 12  1  0  0  0  0
  3 40  1  0  0  0  0
  4 14  2  0  0  0  0
  9  5  1  1  0  0  0
  5 13  1  0  0  0  0
  5 14  1  0  0  0  0
  6 14  1  0  0  0  0
  6 16  2  0  0  0  0
  7 17  1  0  0  0  0
  7 18  1  0  0  0  0
  7 19  1  0  0  0  0
  8 16  1  0  0  0  0
  8 19  2  0  0  0  0
  9 10  1  0  0  0  0
  9 32  1  0  0  0  0
 10 33  1  0  0  0  0
 10 34  1  0  0  0  0
 11 12  1  1  0  0  0
 11 35  1  0  0  0  0
 12 36  1  0  0  0  0
 12 37  1  0  0  0  0
 13 15  2  0  0  0  0
 13 38  1  0  0  0  0
 15 16  1  0  0  0  0
 15 39  1  0  0  0  0
 17 20  2  0  0  0  0
 17 22  1  0  0  0  0
 18 21  2  0  0  0  0
 18 23  1  0  0  0  0
 19 41  1  0  0  0  0
 20 26  1  0  0  0  0
 20 42  1  0  0  0  0
 21 27  1  0  0  0  0
 21 43  1  0  0  0  0
 22 28  2  0  0  0  0
 22 44  1  0  0  0  0
 23 29  2  0  0  0  0
 23 45  1  0  0  0  0
 24 26  2  0  0  0  0
 24 28  1  0  0  0  0
 24 30  1  0  0  0  0
 25 27  2  0  0  0  0
 25 29  1  0  0  0  0
 25 31  1  0  0  0  0
 26 46  1  0  0  0  0
 27 47  1  0  0  0  0
 28 48  1  0  0  0  0
 29 49  1  0  0  0  0
 30 50  1  0  0  0  0
 30 51  1  0  0  0  0
 30 52  1  0  0  0  0
 31 53  1  0  0  0  0
 31 54  1  0  0  0  0
 31 55  1  0  0  0  0
M  END
> <PUBCHEM_COMPOUND_CID>
515059
> <PUBCHEM_COMPOUND_CANONICALIZED>
1
> <PUBCHEM_CACTVS_COMPLEXITY>
690
> <PUBCHEM_CACTVS_HBOND_ACCEPTOR>
4
> <PUBCHEM_CACTVS_HBOND_DONOR>
1
> <PUBCHEM_CACTVS_ROTATABLE_BOND>
6
> <PUBCHEM_CACTVS_SUBSKEYS>
AAADceB7sABAAAAAAAAAAAAAAAAAASAAAAAwYIAAAAAAAAABQAAAHgQACAAADAjl2AazwIMABgioAiZndACCAAEhAhAJiAAYZJiJMGLAmZGOIAhghgLryAcQgAAOCAAAAAAAAAAQAAAAAAAAAAAAAAAAAA==
> <PUBCHEM_IUPAC_OPENEYE_NAME>
N'-[1-[(2R,5S)-2-(hydroxymethyl)-1,3-oxathiolan-5-yl]-2-oxo-pyrimidin-4-yl]-N,N-bis(p-tolyl)formamidine
> <PUBCHEM_IUPAC_CAS_NAME>
N'-[1-[(2R,5S)-2-(hydroxymethyl)-1,3-oxathiolan-5-yl]-2-oxo-4-pyrimidinyl]-N,N-bis(4-methylphenyl)methanimidamide
> <PUBCHEM_IUPAC_NAME_MARKUP>
<I>N</I>&apos;-[1-[(2<I>R</I>,5<I>S</I>)-2-(hydroxymethyl)-1,3-oxathiolan-5-yl]-2-oxopyrimidin-4-yl]-<I>N</I>,<I>N</I>-bis(4-methylphenyl)methanimidamide
> <PUBCHEM_IUPAC_NAME>
N'-[1-[(2R,5S)-2-(hydroxymethyl)-1,3-oxathiolan-5-yl]-2-oxopyrimidin-4-yl]-N,N-bis(4-methylphenyl)methanimidamide
> <PUBCHEM_IUPAC_SYSTEMATIC_NAME>
N'-[1-[(2R,5S)-2-(hydroxymethyl)-1,3-oxathiolan-5-yl]-2-oxidanylidene-pyrimidin-4-yl]-N,N-bis(4-methylphenyl)methanimidamide
> <PUBCHEM_IUPAC_TRADITIONAL_NAME>
N'-[2-keto-1-[(2R,5S)-2-methylol-1,3-oxathiolan-5-yl]pyrimidin-4-yl]-N,N-bis(p-tolyl)formamidine
> <PUBCHEM_IUPAC_INCHI>
InChI=1S/C23H24N4O3S/c1-16-3-7-18(8-4-16)27(19-9-5-17(2)6-10-19)15-24-20-11-12-26(23(29)25-20)21-14-31-22(13-28)30-21/h3-12,15,21-22,28H,13-14H2,1-2H3/t21-,22+/m0/s1
> <PUBCHEM_IUPAC_INCHIKEY>
KSOPLBGTHVWPGH-FCHUYYIVSA-N
> <PUBCHEM_XLOGP3>
3.6
> <PUBCHEM_EXACT_MASS>
436.15691181
> <PUBCHEM_MOLECULAR_FORMULA>
C23H24N4O3S
> <PUBCHEM_MOLECULAR_WEIGHT>
436.5
> <PUBCHEM_OPENEYE_CAN_SMILES>
CC1=CC=C(C=C1)N(C=NC2=NC(=O)N(C=C2)C3CSC(O3)CO)C4=CC=C(C=C4)C
> <PUBCHEM_OPENEYE_ISO_SMILES>
CC1=CC=C(C=C1)N(C=NC2=NC(=O)N(C=C2)[C@@H]3CS[C@@H](O3)CO)C4=CC=C(C=C4)C
> <PUBCHEM_CACTVS_TPSA>
103
> <PUBCHEM_MONOISOTOPIC_WEIGHT>
436.15691181
> <PUBCHEM_TOTAL_CHARGE>
0
> <PUBCHEM_HEAVY_ATOM_COUNT>
31
> <PUBCHEM_ATOM_DEF_STEREO_COUNT>
2
> <PUBCHEM_ATOM_UDEF_STEREO_COUNT>
0
> <PUBCHEM_BOND_DEF_STEREO_COUNT>
0
> <PUBCHEM_BOND_UDEF_STEREO_COUNT>
0
> <PUBCHEM_ISOTOPIC_ATOM_COUNT>
0
> <PUBCHEM_COMPONENT_COUNT>
1
> <PUBCHEM_CACTVS_TAUTO_COUNT>
-1
> <PUBCHEM_COORDINATE_TYPE>
1
5
255
> <PUBCHEM_BONDANNOTATIONS>
11  12  5
13  15  8
15  16  8
17  20  8
17  22  8
18  21  8
18  23  8
20  26  8
21  27  8
22  28  8
23  29  8
24  26  8
24  28  8
25  27  8
25  29  8
5  13  8
5  14  8
9  5  5
6  14  8
6  16  8
$$$$
