515015
  -OEChem-10302200282D
 36 38  0     1  0  0  0  0  0999 V2000
    4.6261    2.4190    0.0000 S   0  0  0  0  0  0  0  0  0  0  0  0
    5.5966    4.9135    0.0000 S   0  0  0  0  0  0  0  0  0  0  0  0
    5.6261    2.4190    0.0000 O   0  0  0  0  0  0  0  0  0  0  0  0
    3.6261    2.4190    0.0000 O   0  0  0  0  0  0  0  0  0  0  0  0
    5.5202   -3.3598    0.0000 O   0  0  0  0  0  0  0  0  0  0  0  0
    4.6261    3.4190    0.0000 N   0  0  0  0  0  0  0  0  0  0  0  0
    4.2601   -4.6198    0.0000 N   0  0  0  0  0  0  0  0  0  0  0  0
    3.7601   -2.0810    0.0000 N   0  0  0  0  0  0  0  0  0  0  0  0
    3.2601   -4.6198    0.0000 N   0  0  0  0  0  0  0  0  0  0  0  0
    4.6261   -1.5810    0.0000 N   0  0  0  0  0  0  0  0  0  0  0  0
    6.4057    3.5123    0.0000 N   0  0  0  0  0  0  0  0  0  0  0  0
    3.7601   -3.0810    0.0000 C   0  0  3  0  0  0  0  0  0  0  0  0
    4.6261    1.4190    0.0000 C   0  0  0  0  0  0  0  0  0  0  0  0
    2.9511   -3.6688    0.0000 C   0  0  0  0  0  0  0  0  0  0  0  0
    4.5691   -3.6688    0.0000 C   0  0  0  0  0  0  0  0  0  0  0  0
    3.7601    0.9190    0.0000 C   0  0  0  0  0  0  0  0  0  0  0  0
    5.4921    0.9190    0.0000 C   0  0  0  0  0  0  0  0  0  0  0  0
    4.6261   -0.5810    0.0000 C   0  0  0  0  0  0  0  0  0  0  0  0
    3.7601   -0.0810    0.0000 C   0  0  0  0  0  0  0  0  0  0  0  0
    5.4921   -0.0810    0.0000 C   0  0  0  0  0  0  0  0  0  0  0  0
    2.0000   -3.3598    0.0000 C   0  0  0  0  0  0  0  0  0  0  0  0
    5.4921    3.9190    0.0000 C   0  0  0  0  0  0  0  0  0  0  0  0
    6.5748    5.1214    0.0000 C   0  0  0  0  0  0  0  0  0  0  0  0
    7.0748    4.2554    0.0000 C   0  0  0  0  0  0  0  0  0  0  0  0
    4.3125   -2.7995    0.0000 H   0  0  0  0  0  0  0  0  0  0  0  0
    3.2231    1.2290    0.0000 H   0  0  0  0  0  0  0  0  0  0  0  0
    6.0291    1.2290    0.0000 H   0  0  0  0  0  0  0  0  0  0  0  0
    3.2231   -0.3910    0.0000 H   0  0  0  0  0  0  0  0  0  0  0  0
    6.0291   -0.3910    0.0000 H   0  0  0  0  0  0  0  0  0  0  0  0
    4.0892    3.7290    0.0000 H   0  0  0  0  0  0  0  0  0  0  0  0
    2.1916   -2.7701    0.0000 H   0  0  0  0  0  0  0  0  0  0  0  0
    1.4103   -3.1682    0.0000 H   0  0  0  0  0  0  0  0  0  0  0  0
    1.8084   -3.9494    0.0000 H   0  0  0  0  0  0  0  0  0  0  0  0
    4.6245   -5.1214    0.0000 H   0  0  0  0  0  0  0  0  0  0  0  0
    6.8270    5.6878    0.0000 H   0  0  0  0  0  0  0  0  0  0  0  0
    7.6914    4.1906    0.0000 H   0  0  0  0  0  0  0  0  0  0  0  0
  1  3  2  0  0  0  0
  1  4  2  0  0  0  0
  1  6  1  0  0  0  0
  1 13  1  0  0  0  0
  2 22  1  0  0  0  0
  2 23  1  0  0  0  0
  5 15  2  0  0  0  0
  6 22  1  0  0  0  0
  6 30  1  0  0  0  0
  7  9  1  0  0  0  0
  7 15  1  0  0  0  0
  7 34  1  0  0  0  0
  8 10  2  0  0  0  0
  8 12  1  0  0  0  0
  9 14  2  0  0  0  0
 10 18  1  0  0  0  0
 11 22  2  0  0  0  0
 11 24  1  0  0  0  0
 12 14  1  0  0  0  0
 12 15  1  0  0  0  0
 12 25  1  0  0  0  0
 13 16  2  0  0  0  0
 13 17  1  0  0  0  0
 14 21  1  0  0  0  0
 16 19  1  0  0  0  0
 16 26  1  0  0  0  0
 17 20  2  0  0  0  0
 17 27  1  0  0  0  0
 18 19  2  0  0  0  0
 18 20  1  0  0  0  0
 19 28  1  0  0  0  0
 20 29  1  0  0  0  0
 21 31  1  0  0  0  0
 21 32  1  0  0  0  0
 21 33  1  0  0  0  0
 23 24  2  0  0  0  0
 23 35  1  0  0  0  0
 24 36  1  0  0  0  0
M  END
> <PUBCHEM_COMPOUND_CID>
515015
> <PUBCHEM_COMPOUND_CANONICALIZED>
1
> <PUBCHEM_CACTVS_COMPLEXITY>
637
> <PUBCHEM_CACTVS_HBOND_ACCEPTOR>
9
> <PUBCHEM_CACTVS_HBOND_DONOR>
2
> <PUBCHEM_CACTVS_ROTATABLE_BOND>
5
> <PUBCHEM_CACTVS_SUBSKEYS>
AAADccBzsABgAAAAAAAAAAAAAAAAAWIAAAAwAAAAAAAAAAABwAAAHgQYQAAACCjF0gS/0ZJqEAquATV3dHDS8LlxCjlayB24ZIiIYDKAkZGAIABgmAIIyCcQAAAAAAQAAAAAAAAACAAAAAAAAAAAAAAAAA==
> <PUBCHEM_IUPAC_OPENEYE_NAME>
4-[(3-methyl-5-oxo-1,4-dihydropyrazol-4-yl)azo]-N-thiazol-2-yl-benzenesulfonamide
> <PUBCHEM_IUPAC_CAS_NAME>
4-[(3-methyl-5-oxo-1,4-dihydropyrazol-4-yl)azo]-N-(2-thiazolyl)benzenesulfonamide
> <PUBCHEM_IUPAC_NAME_MARKUP>
4-[(3-methyl-5-oxo-1,4-dihydropyrazol-4-yl)diazenyl]-<I>N</I>-(1,3-thiazol-2-yl)benzenesulfonamide
> <PUBCHEM_IUPAC_NAME>
4-[(3-methyl-5-oxo-1,4-dihydropyrazol-4-yl)diazenyl]-N-(1,3-thiazol-2-yl)benzenesulfonamide
> <PUBCHEM_IUPAC_SYSTEMATIC_NAME>
4-[(3-methyl-5-oxidanylidene-1,4-dihydropyrazol-4-yl)diazenyl]-N-(1,3-thiazol-2-yl)benzenesulfonamide
> <PUBCHEM_IUPAC_TRADITIONAL_NAME>
4-[(3-keto-5-methyl-2-pyrazolin-4-yl)azo]-N-thiazol-2-yl-benzenesulfonamide
> <PUBCHEM_IUPAC_INCHI>
InChI=1S/C13H12N6O3S2/c1-8-11(12(20)18-15-8)17-16-9-2-4-10(5-3-9)24(21,22)19-13-14-6-7-23-13/h2-7,11H,1H3,(H,14,19)(H,18,20)
> <PUBCHEM_IUPAC_INCHIKEY>
GVOQEMCDLZKQPG-UHFFFAOYSA-N
> <PUBCHEM_XLOGP3_AA>
1.5
> <PUBCHEM_EXACT_MASS>
364.04123061
> <PUBCHEM_MOLECULAR_FORMULA>
C13H12N6O3S2
> <PUBCHEM_MOLECULAR_WEIGHT>
364.4
> <PUBCHEM_OPENEYE_CAN_SMILES>
CC1=NNC(=O)C1N=NC2=CC=C(C=C2)S(=O)(=O)NC3=NC=CS3
> <PUBCHEM_OPENEYE_ISO_SMILES>
CC1=NNC(=O)C1N=NC2=CC=C(C=C2)S(=O)(=O)NC3=NC=CS3
> <PUBCHEM_CACTVS_TPSA>
162
> <PUBCHEM_MONOISOTOPIC_WEIGHT>
364.04123061
> <PUBCHEM_TOTAL_CHARGE>
0
> <PUBCHEM_HEAVY_ATOM_COUNT>
24
> <PUBCHEM_ATOM_DEF_STEREO_COUNT>
0
> <PUBCHEM_ATOM_UDEF_STEREO_COUNT>
1
> <PUBCHEM_BOND_DEF_STEREO_COUNT>
0
> <PUBCHEM_BOND_UDEF_STEREO_COUNT>
0
> <PUBCHEM_ISOTOPIC_ATOM_COUNT>
0
> <PUBCHEM_COMPONENT_COUNT>
1
> <PUBCHEM_CACTVS_TAUTO_COUNT>
-1
> <PUBCHEM_COORDINATE_TYPE>
1
5
255
> <PUBCHEM_BONDANNOTATIONS>
11  22  8
11  24  8
13  16  8
13  17  8
16  19  8
17  20  8
18  19  8
18  20  8
2  22  8
2  23  8
23  24  8
12  8  3
$$$$
