515042
  -OEChem-10302200282D
117121  0     1  0  0  0  0  0999 V2000
    6.8639   -2.6896    0.0000 O   0  0  0  0  0  0  0  0  0  0  0  0
   14.9346   -1.1097    0.0000 O   0  0  0  0  0  0  0  0  0  0  0  0
    6.0037   -1.1862    0.0000 O   0  0  0  0  0  0  0  0  0  0  0  0
   18.3909   -0.0830    0.0000 O   0  0  0  0  0  0  0  0  0  0  0  0
   17.5133    1.4102    0.0000 O   0  0  0  0  0  0  0  0  0  0  0  0
    2.5357   -2.1729    0.0000 O   0  0  0  0  0  0  0  0  0  0  0  0
    3.4075   -0.6762    0.0000 O   0  0  0  0  0  0  0  0  0  0  0  0
   15.7890    0.3969    0.0000 N   0  0  0  0  0  0  0  0  0  0  0  0
   11.3910   -1.1372    0.0000 C   0  0  1  0  0  0  0  0  0  0  0  0
   12.2570   -0.6372    0.0000 C   0  0  1  0  0  0  0  0  0  0  0  0
   10.5249   -0.6372    0.0000 C   0  0  1  0  0  0  0  0  0  0  0  0
   12.2570    0.3628    0.0000 C   0  0  1  0  0  0  0  0  0  0  0  0
    9.6149   -1.1441    0.0000 C   0  0  2  0  0  0  0  0  0  0  0  0
   13.1509    0.8974    0.0000 C   0  0  2  0  0  0  0  0  0  0  0  0
    9.6069   -2.1857    0.0000 C   0  0  1  0  0  0  0  0  0  0  0  0
   14.0570    0.3836    0.0000 C   0  0  1  0  0  0  0  0  0  0  0  0
   11.4070   -2.1788    0.0000 C   0  0  0  0  0  0  0  0  0  0  0  0
   10.5249    0.3628    0.0000 C   0  0  0  0  0  0  0  0  0  0  0  0
   13.1509   -1.1719    0.0000 C   0  0  0  0  0  0  0  0  0  0  0  0
   11.3910    0.8628    0.0000 C   0  0  0  0  0  0  0  0  0  0  0  0
   10.5090   -2.7065    0.0000 C   0  0  0  0  0  0  0  0  0  0  0  0
   14.0570   -0.6581    0.0000 C   0  0  0  0  0  0  0  0  0  0  0  0
    8.6715   -2.7354    0.0000 C   0  0  0  0  0  0  0  0  0  0  0  0
   13.3610    1.9113    0.0000 C   0  0  1  0  0  0  0  0  0  0  0  0
    8.6881   -0.5800    0.0000 C   0  0  0  0  0  0  0  0  0  0  0  0
   12.0338   -1.9033    0.0000 C   0  0  0  0  0  0  0  0  0  0  0  0
   12.5991   -1.5769    0.0000 C   0  0  0  0  0  0  0  0  0  0  0  0
   14.8193    1.0843    0.0000 C   0  0  0  0  0  0  0  0  0  0  0  0
   14.3901    2.0266    0.0000 C   0  0  0  0  0  0  0  0  0  0  0  0
    9.6226   -0.1441    0.0000 C   0  0  0  0  0  0  0  0  0  0  0  0
    7.7318   -2.1929    0.0000 C   0  0  2  0  0  0  0  0  0  0  0  0
    7.7402   -1.1080    0.0000 C   0  0  0  0  0  0  0  0  0  0  0  0
   14.9269   -0.1097    0.0000 C   0  0  0  0  0  0  0  0  0  0  0  0
    8.1748   -3.6034    0.0000 C   0  0  0  0  0  0  0  0  0  0  0  0
    9.1748   -3.5995    0.0000 C   0  0  0  0  0  0  0  0  0  0  0  0
   12.6875    2.6505    0.0000 C   0  0  0  0  0  0  0  0  0  0  0  0
   12.9908    3.6034    0.0000 C   0  0  0  0  0  0  0  0  0  0  0  0
   11.7106    2.4367    0.0000 C   0  0  0  0  0  0  0  0  0  0  0  0
   16.6589   -0.0964    0.0000 C   0  0  1  0  0  0  0  0  0  0  0  0
    5.9998   -2.1862    0.0000 C   0  0  0  0  0  0  0  0  0  0  0  0
   16.6666   -1.0964    0.0000 C   0  0  0  0  0  0  0  0  0  0  0  0
    5.1319   -2.6829    0.0000 C   0  0  0  0  0  0  0  0  0  0  0  0
   17.5210    0.4103    0.0000 C   0  0  0  0  0  0  0  0  0  0  0  0
   17.5364   -1.5897    0.0000 C   0  0  0  0  0  0  0  0  0  0  0  0
    4.2678   -2.1796    0.0000 C   0  0  0  0  0  0  0  0  0  0  0  0
   17.5441   -2.5896    0.0000 C   0  0  0  0  0  0  0  0  0  0  0  0
   18.3986   -1.0830    0.0000 C   0  0  0  0  0  0  0  0  0  0  0  0
    3.7644   -3.0437    0.0000 C   0  0  0  0  0  0  0  0  0  0  0  0
    4.7711   -1.3155    0.0000 C   0  0  0  0  0  0  0  0  0  0  0  0
    3.4037   -1.6762    0.0000 C   0  0  0  0  0  0  0  0  0  0  0  0
   11.2611   -0.2122    0.0000 H   0  0  0  0  0  0  0  0  0  0  0  0
   12.2504    1.2127    0.0000 H   0  0  0  0  0  0  0  0  0  0  0  0
   12.4582    1.3900    0.0000 H   0  0  0  0  0  0  0  0  0  0  0  0
    9.6102   -3.0357    0.0000 H   0  0  0  0  0  0  0  0  0  0  0  0
   11.6251   -2.7592    0.0000 H   0  0  0  0  0  0  0  0  0  0  0  0
   12.0162   -2.0632    0.0000 H   0  0  0  0  0  0  0  0  0  0  0  0
   10.3129    0.9454    0.0000 H   0  0  0  0  0  0  0  0  0  0  0  0
    9.9144    0.2551    0.0000 H   0  0  0  0  0  0  0  0  0  0  0  0
   12.7463   -1.6417    0.0000 H   0  0  0  0  0  0  0  0  0  0  0  0
   13.5446   -1.6509    0.0000 H   0  0  0  0  0  0  0  0  0  0  0  0
   11.7895    1.3377    0.0000 H   0  0  0  0  0  0  0  0  0  0  0  0
   10.9924    1.3377    0.0000 H   0  0  0  0  0  0  0  0  0  0  0  0
   10.1117   -3.1825    0.0000 H   0  0  0  0  0  0  0  0  0  0  0  0
   10.9099   -3.1794    0.0000 H   0  0  0  0  0  0  0  0  0  0  0  0
   14.2661   -1.2418    0.0000 H   0  0  0  0  0  0  0  0  0  0  0  0
   14.6679   -0.5520    0.0000 H   0  0  0  0  0  0  0  0  0  0  0  0
   12.7631    1.7476    0.0000 H   0  0  0  0  0  0  0  0  0  0  0  0
    9.0963   -0.1134    0.0000 H   0  0  0  0  0  0  0  0  0  0  0  0
    8.2982   -0.0980    0.0000 H   0  0  0  0  0  0  0  0  0  0  0  0
   11.5588   -2.3018    0.0000 H   0  0  0  0  0  0  0  0  0  0  0  0
   12.4323   -2.3782    0.0000 H   0  0  0  0  0  0  0  0  0  0  0  0
   12.5087   -1.5048    0.0000 H   0  0  0  0  0  0  0  0  0  0  0  0
   12.0165   -1.7890    0.0000 H   0  0  0  0  0  0  0  0  0  0  0  0
   12.8112   -2.1595    0.0000 H   0  0  0  0  0  0  0  0  0  0  0  0
   13.1817   -1.3648    0.0000 H   0  0  0  0  0  0  0  0  0  0  0  0
   15.1886    0.5863    0.0000 H   0  0  0  0  0  0  0  0  0  0  0  0
   15.3534    1.3992    0.0000 H   0  0  0  0  0  0  0  0  0  0  0  0
   14.9782    2.2229    0.0000 H   0  0  0  0  0  0  0  0  0  0  0  0
   14.2567    2.6321    0.0000 H   0  0  0  0  0  0  0  0  0  0  0  0
   10.2426   -0.1489    0.0000 H   0  0  0  0  0  0  0  0  0  0  0  0
    9.6274    0.4759    0.0000 H   0  0  0  0  0  0  0  0  0  0  0  0
    9.0027   -0.1393    0.0000 H   0  0  0  0  0  0  0  0  0  0  0  0
    7.7307   -2.8129    0.0000 H   0  0  0  0  0  0  0  0  0  0  0  0
    7.5357   -0.5227    0.0000 H   0  0  0  0  0  0  0  0  0  0  0  0
    7.1286   -1.2093    0.0000 H   0  0  0  0  0  0  0  0  0  0  0  0
    7.6367   -3.2954    0.0000 H   0  0  0  0  0  0  0  0  0  0  0  0
    7.8669   -4.1415    0.0000 H   0  0  0  0  0  0  0  0  0  0  0  0
    8.7130   -3.9113    0.0000 H   0  0  0  0  0  0  0  0  0  0  0  0
    8.6391   -3.9116    0.0000 H   0  0  0  0  0  0  0  0  0  0  0  0
    9.4869   -4.1352    0.0000 H   0  0  0  0  0  0  0  0  0  0  0  0
    9.7106   -3.2874    0.0000 H   0  0  0  0  0  0  0  0  0  0  0  0
   15.7842    1.0169    0.0000 H   0  0  0  0  0  0  0  0  0  0  0  0
   13.5816    3.4153    0.0000 H   0  0  0  0  0  0  0  0  0  0  0  0
   13.1789    4.1941    0.0000 H   0  0  0  0  0  0  0  0  0  0  0  0
   12.4000    3.7914    0.0000 H   0  0  0  0  0  0  0  0  0  0  0  0
   11.2930    2.8950    0.0000 H   0  0  0  0  0  0  0  0  0  0  0  0
   11.5225    1.8459    0.0000 H   0  0  0  0  0  0  0  0  0  0  0  0
   16.6541    0.5236    0.0000 H   0  0  0  0  0  0  0  0  0  0  0  0
   16.0552   -0.9934    0.0000 H   0  0  0  0  0  0  0  0  0  0  0  0
   16.4590   -1.6806    0.0000 H   0  0  0  0  0  0  0  0  0  0  0  0
    4.7315   -3.1563    0.0000 H   0  0  0  0  0  0  0  0  0  0  0  0
    5.5286   -3.1594    0.0000 H   0  0  0  0  0  0  0  0  0  0  0  0
   17.5316   -0.9697    0.0000 H   0  0  0  0  0  0  0  0  0  0  0  0
   18.9254    0.2311    0.0000 H   0  0  0  0  0  0  0  0  0  0  0  0
   16.9241   -2.5944    0.0000 H   0  0  0  0  0  0  0  0  0  0  0  0
   17.5489   -3.2096    0.0000 H   0  0  0  0  0  0  0  0  0  0  0  0
   18.1641   -2.5848    0.0000 H   0  0  0  0  0  0  0  0  0  0  0  0
   18.7127   -1.6175    0.0000 H   0  0  0  0  0  0  0  0  0  0  0  0
   18.9331   -0.7689    0.0000 H   0  0  0  0  0  0  0  0  0  0  0  0
   18.0844   -0.5485    0.0000 H   0  0  0  0  0  0  0  0  0  0  0  0
    3.2287   -2.7316    0.0000 H   0  0  0  0  0  0  0  0  0  0  0  0
    3.4524   -3.5794    0.0000 H   0  0  0  0  0  0  0  0  0  0  0  0
    4.3002   -3.3557    0.0000 H   0  0  0  0  0  0  0  0  0  0  0  0
    5.3068   -1.6275    0.0000 H   0  0  0  0  0  0  0  0  0  0  0  0
    5.0832   -0.7797    0.0000 H   0  0  0  0  0  0  0  0  0  0  0  0
    4.2354   -1.0034    0.0000 H   0  0  0  0  0  0  0  0  0  0  0  0
    2.0000   -1.8608    0.0000 H   0  0  0  0  0  0  0  0  0  0  0  0
 31  1  1  1  0  0  0
  1 40  1  0  0  0  0
  2 33  2  0  0  0  0
  3 40  2  0  0  0  0
  4 43  1  0  0  0  0
  4104  1  0  0  0  0
  5 43  2  0  0  0  0
  6 50  1  0  0  0  0
  6117  1  0  0  0  0
  7 50  2  0  0  0  0
  8 33  1  0  0  0  0
 39  8  1  6  0  0  0
  8 92  1  0  0  0  0
  9 10  1  0  0  0  0
  9 11  1  0  0  0  0
  9 17  1  0  0  0  0
  9 26  1  1  0  0  0
 10 12  1  0  0  0  0
 10 19  1  0  0  0  0
 10 27  1  6  0  0  0
 11 13  1  0  0  0  0
 11 18  1  0  0  0  0
 11 51  1  6  0  0  0
 12 14  1  0  0  0  0
 12 20  1  0  0  0  0
 12 52  1  1  0  0  0
 13 15  1  0  0  0  0
 13 25  1  0  0  0  0
 13 30  1  1  0  0  0
 14 16  1  0  0  0  0
 14 24  1  0  0  0  0
 14 53  1  6  0  0  0
 15 21  1  0  0  0  0
 15 23  1  0  0  0  0
 15 54  1  6  0  0  0
 16 22  1  0  0  0  0
 16 28  1  0  0  0  0
 16 33  1  1  0  0  0
 17 21  1  0  0  0  0
 17 55  1  0  0  0  0
 17 56  1  0  0  0  0
 18 20  1  0  0  0  0
 18 57  1  0  0  0  0
 18 58  1  0  0  0  0
 19 22  1  0  0  0  0
 19 59  1  0  0  0  0
 19 60  1  0  0  0  0
 20 61  1  0  0  0  0
 20 62  1  0  0  0  0
 21 63  1  0  0  0  0
 21 64  1  0  0  0  0
 22 65  1  0  0  0  0
 22 66  1  0  0  0  0
 23 31  1  0  0  0  0
 23 34  1  0  0  0  0
 23 35  1  0  0  0  0
 24 29  1  0  0  0  0
 24 36  1  6  0  0  0
 24 67  1  0  0  0  0
 25 32  1  0  0  0  0
 25 68  1  0  0  0  0
 25 69  1  0  0  0  0
 26 70  1  0  0  0  0
 26 71  1  0  0  0  0
 26 72  1  0  0  0  0
 27 73  1  0  0  0  0
 27 74  1  0  0  0  0
 27 75  1  0  0  0  0
 28 29  1  0  0  0  0
 28 76  1  0  0  0  0
 28 77  1  0  0  0  0
 29 78  1  0  0  0  0
 29 79  1  0  0  0  0
 30 80  1  0  0  0  0
 30 81  1  0  0  0  0
 30 82  1  0  0  0  0
 31 32  1  0  0  0  0
 31 83  1  0  0  0  0
 32 84  1  0  0  0  0
 32 85  1  0  0  0  0
 34 86  1  0  0  0  0
 34 87  1  0  0  0  0
 34 88  1  0  0  0  0
 35 89  1  0  0  0  0
 35 90  1  0  0  0  0
 35 91  1  0  0  0  0
 36 37  1  0  0  0  0
 36 38  2  0  0  0  0
 37 93  1  0  0  0  0
 37 94  1  0  0  0  0
 37 95  1  0  0  0  0
 38 96  1  0  0  0  0
 38 97  1  0  0  0  0
 39 41  1  0  0  0  0
 39 43  1  0  0  0  0
 39 98  1  0  0  0  0
 40 42  1  0  0  0  0
 41 44  1  0  0  0  0
 41 99  1  0  0  0  0
 41100  1  0  0  0  0
 42 45  1  0  0  0  0
 42101  1  0  0  0  0
 42102  1  0  0  0  0
 44 46  1  0  0  0  0
 44 47  1  0  0  0  0
 44103  1  0  0  0  0
 45 48  1  0  0  0  0
 45 49  1  0  0  0  0
 45 50  1  0  0  0  0
 46105  1  0  0  0  0
 46106  1  0  0  0  0
 46107  1  0  0  0  0
 47108  1  0  0  0  0
 47109  1  0  0  0  0
 47110  1  0  0  0  0
 48111  1  0  0  0  0
 48112  1  0  0  0  0
 48113  1  0  0  0  0
 49114  1  0  0  0  0
 49115  1  0  0  0  0
 49116  1  0  0  0  0
M  END
> <PUBCHEM_COMPOUND_CID>
515042
> <PUBCHEM_COMPOUND_CANONICALIZED>
1
> <PUBCHEM_CACTVS_COMPLEXITY>
1400
> <PUBCHEM_CACTVS_HBOND_ACCEPTOR>
7
> <PUBCHEM_CACTVS_HBOND_DONOR>
3
> <PUBCHEM_CACTVS_ROTATABLE_BOND>
11
> <PUBCHEM_CACTVS_SUBSKEYS>
AAADcfB+OAAAAAAAAAAAAAAAAAAAAYAAAAAwYMGAAAAAAGDAAAAAHgAQCAAADzzhgAYCCALABgCIAgHSGAAAAAAgAAAAAIGIAAgCABIAgSAGQAAElgCQAAHbyPCPgAAAAAAAAADAAAYAADAAAQAACAAAAA==
> <PUBCHEM_IUPAC_OPENEYE_NAME>
4-[[(1R,3aS,5aR,5bR,7aR,9S,11aR,11bR,13aR,13bR)-3a-[[(1S)-1-carboxy-3-methyl-butyl]carbamoyl]-1-isopropenyl-5a,5b,8,8,11a-pentamethyl-1,2,3,4,5,6,7,7a,9,10,11,11b,12,13,13a,13b-hexadecahydrocyclopenta[a]chrysen-9-yl]oxy]-2,2-dimethyl-4-oxo-butanoic acid
> <PUBCHEM_IUPAC_CAS_NAME>
4-[[(1R,3aS,5aR,5bR,7aR,9S,11aR,11bR,13aR,13bR)-3a-[[[(1S)-1-carboxy-3-methylbutyl]amino]-oxomethyl]-5a,5b,8,8,11a-pentamethyl-1-(1-methylethenyl)-1,2,3,4,5,6,7,7a,9,10,11,11b,12,13,13a,13b-hexadecahydrocyclopenta[a]chrysen-9-yl]oxy]-2,2-dimethyl-4-oxobutanoic acid
> <PUBCHEM_IUPAC_NAME_MARKUP>
4-[[(1<I>R</I>,3<I>a</I><I>S</I>,5<I>a</I><I>R</I>,5<I>b</I><I>R</I>,7<I>a</I><I>R</I>,9<I>S</I>,11<I>a</I><I>R</I>,11<I>b</I><I>R</I>,13<I>a</I><I>R</I>,13<I>b</I><I>R</I>)-3<I>a</I>-[[(1<I>S</I>)-1-carboxy-3-methylbutyl]carbamoyl]-5<I>a</I>,5<I>b</I>,8,8,11<I>a</I>-pentamethyl-1-prop-1-en-2-yl-1,2,3,4,5,6,7,7<I>a</I>,9,10,11,11<I>b</I>,12,13,13<I>a</I>,13<I>b</I>-hexadecahydrocyclopenta[a]chrysen-9-yl]oxy]-2,2-dimethyl-4-oxobutanoic acid
> <PUBCHEM_IUPAC_NAME>
4-[[(1R,3aS,5aR,5bR,7aR,9S,11aR,11bR,13aR,13bR)-3a-[[(1S)-1-carboxy-3-methylbutyl]carbamoyl]-5a,5b,8,8,11a-pentamethyl-1-prop-1-en-2-yl-1,2,3,4,5,6,7,7a,9,10,11,11b,12,13,13a,13b-hexadecahydrocyclopenta[a]chrysen-9-yl]oxy]-2,2-dimethyl-4-oxobutanoic acid
> <PUBCHEM_IUPAC_SYSTEMATIC_NAME>
4-[[(1R,3aS,5aR,5bR,7aR,9S,11aR,11bR,13aR,13bR)-5a,5b,8,8,11a-pentamethyl-3a-[[(2S)-4-methyl-1-oxidanyl-1-oxidanylidene-pentan-2-yl]carbamoyl]-1-prop-1-en-2-yl-1,2,3,4,5,6,7,7a,9,10,11,11b,12,13,13a,13b-hexadecahydrocyclopenta[a]chrysen-9-yl]oxy]-2,2-dimethyl-4-oxidanylidene-butanoic acid
> <PUBCHEM_IUPAC_TRADITIONAL_NAME>
4-[[(1R,3aS,5aR,5bR,7aR,9S,11aR,11bR,13aR,13bR)-3a-[[(1S)-1-carboxy-3-methyl-butyl]carbamoyl]-1-isopropenyl-5a,5b,8,8,11a-pentamethyl-1,2,3,4,5,6,7,7a,9,10,11,11b,12,13,13a,13b-hexadecahydrocyclopenta[a]chrysen-9-yl]oxy]-4-keto-2,2-dimethyl-butyric acid
> <PUBCHEM_IUPAC_INCHI>
InChI=1S/C42H67NO7/c1-24(2)22-28(34(45)46)43-35(47)42-19-14-26(25(3)4)33(42)27-12-13-30-39(9)17-16-31(50-32(44)23-37(5,6)36(48)49)38(7,8)29(39)15-18-41(30,11)40(27,10)20-21-42/h24,26-31,33H,3,12-23H2,1-2,4-11H3,(H,43,47)(H,45,46)(H,48,49)/t26-,27+,28-,29-,30+,31-,33+,39-,40+,41+,42-/m0/s1
> <PUBCHEM_IUPAC_INCHIKEY>
MLUASTSUFAUBTJ-HMDNUBJVSA-N
> <PUBCHEM_XLOGP3_AA>
10.2
> <PUBCHEM_EXACT_MASS>
697.49175348
> <PUBCHEM_MOLECULAR_FORMULA>
C42H67NO7
> <PUBCHEM_MOLECULAR_WEIGHT>
698.0
> <PUBCHEM_OPENEYE_CAN_SMILES>
CC(C)CC(C(=O)O)NC(=O)C12CCC(C1C3CCC4C5(CCC(C(C5CCC4(C3(CC2)C)C)(C)C)OC(=O)CC(C)(C)C(=O)O)C)C(=C)C
> <PUBCHEM_OPENEYE_ISO_SMILES>
CC(C)C[C@@H](C(=O)O)NC(=O)[C@]12CC[C@H]([C@@H]1[C@H]3CC[C@@H]4[C@]5(CC[C@@H](C([C@@H]5CC[C@]4([C@@]3(CC2)C)C)(C)C)OC(=O)CC(C)(C)C(=O)O)C)C(=C)C
> <PUBCHEM_CACTVS_TPSA>
130
> <PUBCHEM_MONOISOTOPIC_WEIGHT>
697.49175348
> <PUBCHEM_TOTAL_CHARGE>
0
> <PUBCHEM_HEAVY_ATOM_COUNT>
50
> <PUBCHEM_ATOM_DEF_STEREO_COUNT>
11
> <PUBCHEM_ATOM_UDEF_STEREO_COUNT>
0
> <PUBCHEM_BOND_DEF_STEREO_COUNT>
0
> <PUBCHEM_BOND_UDEF_STEREO_COUNT>
0
> <PUBCHEM_ISOTOPIC_ATOM_COUNT>
0
> <PUBCHEM_COMPONENT_COUNT>
1
> <PUBCHEM_CACTVS_TAUTO_COUNT>
-1
> <PUBCHEM_COORDINATE_TYPE>
1
5
255
> <PUBCHEM_BONDANNOTATIONS>
31  1  5
10  27  6
11  51  6
12  52  5
13  30  5
14  53  6
15  54  6
16  33  5
24  36  6
39  8  6
9  26  5
$$$$
