515000
  -OEChem-10302200282D
 74 78  0     1  0  0  0  0  0999 V2000
    7.4323   -1.0000    0.0000 O   0  0  0  0  0  0  0  0  0  0  0  0
    5.0768   -4.6160    0.0000 O   0  0  0  0  0  0  0  0  0  0  0  0
   10.0303    0.5000    0.0000 N   0  0  0  0  0  0  0  0  0  0  0  0
    8.2983   -2.5000    0.0000 N   0  0  0  0  0  0  0  0  0  0  0  0
    4.9836   -2.8364    0.0000 N   0  0  0  0  0  0  0  0  0  0  0  0
   10.0303    2.5000    0.0000 C   0  0  0  0  0  0  0  0  0  0  0  0
    9.1643    2.0000    0.0000 C   0  0  0  0  0  0  0  0  0  0  0  0
   10.8964    2.0000    0.0000 C   0  0  0  0  0  0  0  0  0  0  0  0
    9.1643    1.0000    0.0000 C   0  0  0  0  0  0  0  0  0  0  0  0
   10.8964    1.0000    0.0000 C   0  0  0  0  0  0  0  0  0  0  0  0
   10.0303    3.5000    0.0000 C   0  0  0  0  0  0  0  0  0  0  0  0
   10.0303   -0.5000    0.0000 C   0  0  0  0  0  0  0  0  0  0  0  0
    9.1643   -1.0000    0.0000 C   0  0  0  0  0  0  0  0  0  0  0  0
    6.5662   -2.5000    0.0000 C   0  0  3  0  0  0  0  0  0  0  0  0
    9.1643   -2.0000    0.0000 C   0  0  0  0  0  0  0  0  0  0  0  0
   10.8964    4.0000    0.0000 C   0  0  0  0  0  0  0  0  0  0  0  0
    5.6527   -2.0933    0.0000 C   0  0  0  0  0  0  0  0  0  0  0  0
    6.4617   -3.4945    0.0000 C   0  0  0  0  0  0  0  0  0  0  0  0
    7.4323   -2.0000    0.0000 C   0  0  0  0  0  0  0  0  0  0  0  0
    5.4836   -3.7024    0.0000 C   0  0  0  0  0  0  0  0  0  0  0  0
   10.8964    5.0000    0.0000 C   0  0  0  0  0  0  0  0  0  0  0  0
   11.7624    3.5000    0.0000 C   0  0  0  0  0  0  0  0  0  0  0  0
    8.2983   -3.5000    0.0000 C   0  0  0  0  0  0  0  0  0  0  0  0
    3.9890   -2.7319    0.0000 C   0  0  0  0  0  0  0  0  0  0  0  0
   11.7624    5.5000    0.0000 C   0  0  0  0  0  0  0  0  0  0  0  0
   12.6284    4.0000    0.0000 C   0  0  0  0  0  0  0  0  0  0  0  0
    7.4323   -4.0000    0.0000 C   0  0  0  0  0  0  0  0  0  0  0  0
    9.1643   -4.0000    0.0000 C   0  0  0  0  0  0  0  0  0  0  0  0
   12.6284    5.0000    0.0000 C   0  0  0  0  0  0  0  0  0  0  0  0
    3.4013   -3.5409    0.0000 C   0  0  0  0  0  0  0  0  0  0  0  0
    3.5823   -1.8183    0.0000 C   0  0  0  0  0  0  0  0  0  0  0  0
    7.4323   -5.0000    0.0000 C   0  0  0  0  0  0  0  0  0  0  0  0
    9.1643   -5.0000    0.0000 C   0  0  0  0  0  0  0  0  0  0  0  0
    2.4067   -3.4364    0.0000 C   0  0  0  0  0  0  0  0  0  0  0  0
    2.5878   -1.7138    0.0000 C   0  0  0  0  0  0  0  0  0  0  0  0
    8.2983   -5.5000    0.0000 C   0  0  0  0  0  0  0  0  0  0  0  0
    2.0000   -2.5228    0.0000 C   0  0  0  0  0  0  0  0  0  0  0  0
    9.4934    2.8100    0.0000 H   0  0  0  0  0  0  0  0  0  0  0  0
    8.9523    2.5826    0.0000 H   0  0  0  0  0  0  0  0  0  0  0  0
    8.5537    1.8923    0.0000 H   0  0  0  0  0  0  0  0  0  0  0  0
   11.5069    1.8923    0.0000 H   0  0  0  0  0  0  0  0  0  0  0  0
   11.1084    2.5826    0.0000 H   0  0  0  0  0  0  0  0  0  0  0  0
    8.5537    1.1077    0.0000 H   0  0  0  0  0  0  0  0  0  0  0  0
    8.9523    0.4174    0.0000 H   0  0  0  0  0  0  0  0  0  0  0  0
   11.1084    0.4174    0.0000 H   0  0  0  0  0  0  0  0  0  0  0  0
   11.5069    1.1077    0.0000 H   0  0  0  0  0  0  0  0  0  0  0  0
    9.8183    4.0826    0.0000 H   0  0  0  0  0  0  0  0  0  0  0  0
    9.4198    3.3923    0.0000 H   0  0  0  0  0  0  0  0  0  0  0  0
   10.2424   -1.0826    0.0000 H   0  0  0  0  0  0  0  0  0  0  0  0
   10.6409   -0.3923    0.0000 H   0  0  0  0  0  0  0  0  0  0  0  0
    8.9523   -0.4174    0.0000 H   0  0  0  0  0  0  0  0  0  0  0  0
    8.5537   -1.1077    0.0000 H   0  0  0  0  0  0  0  0  0  0  0  0
    6.5338   -1.8808    0.0000 H   0  0  0  0  0  0  0  0  0  0  0  0
    9.3764   -2.5826    0.0000 H   0  0  0  0  0  0  0  0  0  0  0  0
    9.7749   -1.8923    0.0000 H   0  0  0  0  0  0  0  0  0  0  0  0
    5.9627   -1.5563    0.0000 H   0  0  0  0  0  0  0  0  0  0  0  0
    5.1511   -1.7288    0.0000 H   0  0  0  0  0  0  0  0  0  0  0  0
    6.5265   -4.1111    0.0000 H   0  0  0  0  0  0  0  0  0  0  0  0
    7.0817   -3.4945    0.0000 H   0  0  0  0  0  0  0  0  0  0  0  0
   10.3594    5.3100    0.0000 H   0  0  0  0  0  0  0  0  0  0  0  0
   11.7624    2.8800    0.0000 H   0  0  0  0  0  0  0  0  0  0  0  0
   11.7624    6.1200    0.0000 H   0  0  0  0  0  0  0  0  0  0  0  0
   13.1654    3.6900    0.0000 H   0  0  0  0  0  0  0  0  0  0  0  0
    6.8953   -3.6900    0.0000 H   0  0  0  0  0  0  0  0  0  0  0  0
    9.7012   -3.6900    0.0000 H   0  0  0  0  0  0  0  0  0  0  0  0
   13.1654    5.3100    0.0000 H   0  0  0  0  0  0  0  0  0  0  0  0
    3.6534   -4.1073    0.0000 H   0  0  0  0  0  0  0  0  0  0  0  0
    3.9467   -1.3167    0.0000 H   0  0  0  0  0  0  0  0  0  0  0  0
    6.8953   -5.3100    0.0000 H   0  0  0  0  0  0  0  0  0  0  0  0
    9.7012   -5.3100    0.0000 H   0  0  0  0  0  0  0  0  0  0  0  0
    2.0423   -3.9380    0.0000 H   0  0  0  0  0  0  0  0  0  0  0  0
    2.3356   -1.1474    0.0000 H   0  0  0  0  0  0  0  0  0  0  0  0
    8.2983   -6.1200    0.0000 H   0  0  0  0  0  0  0  0  0  0  0  0
    1.3834   -2.4580    0.0000 H   0  0  0  0  0  0  0  0  0  0  0  0
  1 19  2  0  0  0  0
  2 20  2  0  0  0  0
  3  9  1  0  0  0  0
  3 10  1  0  0  0  0
  3 12  1  0  0  0  0
  4 15  1  0  0  0  0
  4 19  1  0  0  0  0
  4 23  1  0  0  0  0
  5 17  1  0  0  0  0
  5 20  1  0  0  0  0
  5 24  1  0  0  0  0
  6  7  1  0  0  0  0
  6  8  1  0  0  0  0
  6 11  1  0  0  0  0
  6 38  1  0  0  0  0
  7  9  1  0  0  0  0
  7 39  1  0  0  0  0
  7 40  1  0  0  0  0
  8 10  1  0  0  0  0
  8 41  1  0  0  0  0
  8 42  1  0  0  0  0
  9 43  1  0  0  0  0
  9 44  1  0  0  0  0
 10 45  1  0  0  0  0
 10 46  1  0  0  0  0
 11 16  1  0  0  0  0
 11 47  1  0  0  0  0
 11 48  1  0  0  0  0
 12 13  1  0  0  0  0
 12 49  1  0  0  0  0
 12 50  1  0  0  0  0
 13 15  1  0  0  0  0
 13 51  1  0  0  0  0
 13 52  1  0  0  0  0
 14 17  1  0  0  0  0
 14 18  1  0  0  0  0
 14 19  1  0  0  0  0
 14 53  1  0  0  0  0
 15 54  1  0  0  0  0
 15 55  1  0  0  0  0
 16 21  2  0  0  0  0
 16 22  1  0  0  0  0
 17 56  1  0  0  0  0
 17 57  1  0  0  0  0
 18 20  1  0  0  0  0
 18 58  1  0  0  0  0
 18 59  1  0  0  0  0
 21 25  1  0  0  0  0
 21 60  1  0  0  0  0
 22 26  2  0  0  0  0
 22 61  1  0  0  0  0
 23 27  2  0  0  0  0
 23 28  1  0  0  0  0
 24 30  2  0  0  0  0
 24 31  1  0  0  0  0
 25 29  2  0  0  0  0
 25 62  1  0  0  0  0
 26 29  1  0  0  0  0
 26 63  1  0  0  0  0
 27 32  1  0  0  0  0
 27 64  1  0  0  0  0
 28 33  2  0  0  0  0
 28 65  1  0  0  0  0
 29 66  1  0  0  0  0
 30 34  1  0  0  0  0
 30 67  1  0  0  0  0
 31 35  2  0  0  0  0
 31 68  1  0  0  0  0
 32 36  2  0  0  0  0
 32 69  1  0  0  0  0
 33 36  1  0  0  0  0
 33 70  1  0  0  0  0
 34 37  2  0  0  0  0
 34 71  1  0  0  0  0
 35 37  1  0  0  0  0
 35 72  1  0  0  0  0
 36 73  1  0  0  0  0
 37 74  1  0  0  0  0
M  END
> <PUBCHEM_COMPOUND_CID>
515000
> <PUBCHEM_COMPOUND_CANONICALIZED>
1
> <PUBCHEM_CACTVS_COMPLEXITY>
716
> <PUBCHEM_CACTVS_HBOND_ACCEPTOR>
3
> <PUBCHEM_CACTVS_HBOND_DONOR>
0
> <PUBCHEM_CACTVS_ROTATABLE_BOND>
9
> <PUBCHEM_CACTVS_SUBSKEYS>
AAADcfB/MAAAAAAAAAAAAAAAAAAAAWAAAAA8YMEAAAAAAAABUAAAHgAAAAAADQjBmAQwwIMAAACIAiVSUACCAAAhAgAIiAEIZIgIIDrA0ZGEIAhghgDIyAcVgMAOAAAAAAAAAAAAAAAAAAAAAAAAAAAAAA==
> <PUBCHEM_IUPAC_OPENEYE_NAME>
N-[3-(4-benzyl-1-piperidyl)propyl]-5-oxo-N,1-diphenyl-pyrrolidine-3-carboxamide
> <PUBCHEM_IUPAC_CAS_NAME>
5-oxo-N,1-diphenyl-N-[3-[4-(phenylmethyl)-1-piperidinyl]propyl]-3-pyrrolidinecarboxamide
> <PUBCHEM_IUPAC_NAME_MARKUP>
<I>N</I>-[3-(4-benzylpiperidin-1-yl)propyl]-5-oxo-<I>N</I>,1-diphenylpyrrolidine-3-carboxamide
> <PUBCHEM_IUPAC_NAME>
N-[3-(4-benzylpiperidin-1-yl)propyl]-5-oxo-N,1-diphenylpyrrolidine-3-carboxamide
> <PUBCHEM_IUPAC_SYSTEMATIC_NAME>
5-oxidanylidene-N,1-diphenyl-N-[3-[4-(phenylmethyl)piperidin-1-yl]propyl]pyrrolidine-3-carboxamide
> <PUBCHEM_IUPAC_TRADITIONAL_NAME>
N-[3-(4-benzylpiperidino)propyl]-5-keto-N,1-diphenyl-pyrrolidine-3-carboxamide
> <PUBCHEM_IUPAC_INCHI>
InChI=1S/C32H37N3O2/c36-31-24-28(25-35(31)30-15-8-3-9-16-30)32(37)34(29-13-6-2-7-14-29)20-10-19-33-21-17-27(18-22-33)23-26-11-4-1-5-12-26/h1-9,11-16,27-28H,10,17-25H2
> <PUBCHEM_IUPAC_INCHIKEY>
ABFBPFPFJRLKHF-UHFFFAOYSA-N
> <PUBCHEM_XLOGP3_AA>
5.1
> <PUBCHEM_EXACT_MASS>
495.28857743
> <PUBCHEM_MOLECULAR_FORMULA>
C32H37N3O2
> <PUBCHEM_MOLECULAR_WEIGHT>
495.7
> <PUBCHEM_OPENEYE_CAN_SMILES>
C1CN(CCC1CC2=CC=CC=C2)CCCN(C3=CC=CC=C3)C(=O)C4CC(=O)N(C4)C5=CC=CC=C5
> <PUBCHEM_OPENEYE_ISO_SMILES>
C1CN(CCC1CC2=CC=CC=C2)CCCN(C3=CC=CC=C3)C(=O)C4CC(=O)N(C4)C5=CC=CC=C5
> <PUBCHEM_CACTVS_TPSA>
43.9
> <PUBCHEM_MONOISOTOPIC_WEIGHT>
495.28857743
> <PUBCHEM_TOTAL_CHARGE>
0
> <PUBCHEM_HEAVY_ATOM_COUNT>
37
> <PUBCHEM_ATOM_DEF_STEREO_COUNT>
0
> <PUBCHEM_ATOM_UDEF_STEREO_COUNT>
1
> <PUBCHEM_BOND_DEF_STEREO_COUNT>
0
> <PUBCHEM_BOND_UDEF_STEREO_COUNT>
0
> <PUBCHEM_ISOTOPIC_ATOM_COUNT>
0
> <PUBCHEM_COMPONENT_COUNT>
1
> <PUBCHEM_CACTVS_TAUTO_COUNT>
-1
> <PUBCHEM_COORDINATE_TYPE>
1
5
255
> <PUBCHEM_BONDANNOTATIONS>
14  19  3
16  21  8
16  22  8
21  25  8
22  26  8
23  27  8
23  28  8
24  30  8
24  31  8
25  29  8
26  29  8
27  32  8
28  33  8
30  34  8
31  35  8
32  36  8
33  36  8
34  37  8
35  37  8
$$$$
