515085
  -OEChem-10302200282D
 30 31  0     1  0  0  0  0  0999 V2000
    2.9380    2.5262    0.0000 F   0  0  0  0  0  0  0  0  0  0  0  0
    5.4791   -1.0616    0.0000 O   0  0  0  0  0  0  0  0  0  0  0  0
    3.5823   -2.8217    0.0000 O   0  0  0  0  0  0  0  0  0  0  0  0
    6.7524   -2.7172    0.0000 O   0  0  0  0  0  0  0  0  0  0  0  0
    6.4021    0.5262    0.0000 O   0  0  0  0  0  0  0  0  0  0  0  0
    2.0000   -3.5262    0.0000 O   0  5  0  0  0  0  0  0  0  0  0  0
    2.1810   -1.8036    0.0000 O   0  0  0  0  0  0  0  0  0  0  0  0
    4.6701    3.5262    0.0000 O   0  0  0  0  0  0  0  0  0  0  0  0
    4.6701    0.5262    0.0000 N   0  0  0  0  0  0  0  0  0  0  0  0
    5.5361    2.0262    0.0000 N   0  0  0  0  0  0  0  0  0  0  0  0
    2.5878   -2.7172    0.0000 N   0  3  0  0  0  0  0  0  0  0  0  0
    4.1701   -2.0127    0.0000 C   0  0  3  0  0  0  0  0  0  0  0  0
    3.8611   -1.0616    0.0000 C   0  0  0  0  0  0  0  0  0  0  0  0
    5.1701   -2.0127    0.0000 C   0  0  3  0  0  0  0  0  0  0  0  0
    4.6701   -0.4738    0.0000 C   0  0  3  0  0  0  0  0  0  0  0  0
    5.7579   -2.8217    0.0000 C   0  0  0  0  0  0  0  0  0  0  0  0
    5.5361    1.0262    0.0000 C   0  0  0  0  0  0  0  0  0  0  0  0
    3.8041    1.0262    0.0000 C   0  0  0  0  0  0  0  0  0  0  0  0
    3.8041    2.0262    0.0000 C   0  0  0  0  0  0  0  0  0  0  0  0
    4.6701    2.5262    0.0000 C   0  0  0  0  0  0  0  0  0  0  0  0
    4.4516   -2.5651    0.0000 H   0  0  0  0  0  0  0  0  0  0  0  0
    3.5511   -0.5247    0.0000 H   0  0  0  0  0  0  0  0  0  0  0  0
    3.2947   -1.3138    0.0000 H   0  0  0  0  0  0  0  0  0  0  0  0
    5.2225   -0.1924    0.0000 H   0  0  0  0  0  0  0  0  0  0  0  0
    5.7825   -1.9157    0.0000 H   0  0  0  0  0  0  0  0  0  0  0  0
    5.2006   -3.0935    0.0000 H   0  0  0  0  0  0  0  0  0  0  0  0
    5.9288   -3.4177    0.0000 H   0  0  0  0  0  0  0  0  0  0  0  0
    3.2671    0.7162    0.0000 H   0  0  0  0  0  0  0  0  0  0  0  0
    7.1168   -3.2188    0.0000 H   0  0  0  0  0  0  0  0  0  0  0  0
    6.0730    2.3362    0.0000 H   0  0  0  0  0  0  0  0  0  0  0  0
  1 19  1  0  0  0  0
  2 14  1  0  0  0  0
  2 15  1  0  0  0  0
  3 11  1  0  0  0  0
  3 12  1  0  0  0  0
  4 16  1  0  0  0  0
  4 29  1  0  0  0  0
  5 17  2  0  0  0  0
  6 11  1  0  0  0  0
  7 11  2  0  0  0  0
  8 20  2  0  0  0  0
  9 15  1  0  0  0  0
  9 17  1  0  0  0  0
  9 18  1  0  0  0  0
 10 17  1  0  0  0  0
 10 20  1  0  0  0  0
 10 30  1  0  0  0  0
 12 13  1  0  0  0  0
 12 14  1  0  0  0  0
 12 21  1  0  0  0  0
 13 15  1  0  0  0  0
 13 22  1  0  0  0  0
 13 23  1  0  0  0  0
 14 16  1  0  0  0  0
 14 25  1  0  0  0  0
 15 24  1  0  0  0  0
 16 26  1  0  0  0  0
 16 27  1  0  0  0  0
 18 19  2  0  0  0  0
 18 28  1  0  0  0  0
 19 20  1  0  0  0  0
M  CHG  2   6  -1  11   1
M  END
> <PUBCHEM_COMPOUND_CID>
515085
> <PUBCHEM_COMPOUND_CANONICALIZED>
1
> <PUBCHEM_CACTVS_COMPLEXITY>
477
> <PUBCHEM_CACTVS_HBOND_ACCEPTOR>
8
> <PUBCHEM_CACTVS_HBOND_DONOR>
2
> <PUBCHEM_CACTVS_ROTATABLE_BOND>
3
> <PUBCHEM_CACTVS_SUBSKEYS>
AAADccBzOQAAAAAAAAAAAAAAAAAAASAAAAAgAAAAAAAAAAAAAAAAHwAUCAAACBThgAYBAAPARgCJAAFWUQCAAAAAAAAAAAAIAECBEAIAgAAOQAAPByIDAMCwMAIAAAAAAAAAAAAAAAAAAAAAAAAAAAAAAA==
> <PUBCHEM_IUPAC_OPENEYE_NAME>
[5-(5-fluoro-2,4-dioxo-pyrimidin-1-yl)-2-(hydroxymethyl)tetrahydrofuran-3-yl] nitrate
> <PUBCHEM_IUPAC_CAS_NAME>
nitric acid [5-(5-fluoro-2,4-dioxo-1-pyrimidinyl)-2-(hydroxymethyl)-3-oxolanyl] ester
> <PUBCHEM_IUPAC_NAME_MARKUP>
[5-(5-fluoro-2,4-dioxopyrimidin-1-yl)-2-(hydroxymethyl)oxolan-3-yl] nitrate
> <PUBCHEM_IUPAC_NAME>
[5-(5-fluoro-2,4-dioxopyrimidin-1-yl)-2-(hydroxymethyl)oxolan-3-yl] nitrate
> <PUBCHEM_IUPAC_SYSTEMATIC_NAME>
[5-[5-fluoranyl-2,4-bis(oxidanylidene)pyrimidin-1-yl]-2-(hydroxymethyl)oxolan-3-yl] nitrate
> <PUBCHEM_IUPAC_TRADITIONAL_NAME>
nitric acid [5-(5-fluoro-2,4-diketo-pyrimidin-1-yl)-2-methylol-tetrahydrofuran-3-yl] ester
> <PUBCHEM_IUPAC_INCHI>
InChI=1S/C9H10FN3O7/c10-4-2-12(9(16)11-8(4)15)7-1-5(20-13(17)18)6(3-14)19-7/h2,5-7,14H,1,3H2,(H,11,15,16)
> <PUBCHEM_IUPAC_INCHIKEY>
GATRUOCWFUMUMV-UHFFFAOYSA-N
> <PUBCHEM_XLOGP3>
-0.8
> <PUBCHEM_EXACT_MASS>
291.05027783
> <PUBCHEM_MOLECULAR_FORMULA>
C9H10FN3O7
> <PUBCHEM_MOLECULAR_WEIGHT>
291.19
> <PUBCHEM_OPENEYE_CAN_SMILES>
C1C(C(OC1N2C=C(C(=O)NC2=O)F)CO)O[N+](=O)[O-]
> <PUBCHEM_OPENEYE_ISO_SMILES>
C1C(C(OC1N2C=C(C(=O)NC2=O)F)CO)O[N+](=O)[O-]
> <PUBCHEM_CACTVS_TPSA>
134
> <PUBCHEM_MONOISOTOPIC_WEIGHT>
291.05027783
> <PUBCHEM_TOTAL_CHARGE>
0
> <PUBCHEM_HEAVY_ATOM_COUNT>
20
> <PUBCHEM_ATOM_DEF_STEREO_COUNT>
0
> <PUBCHEM_ATOM_UDEF_STEREO_COUNT>
3
> <PUBCHEM_BOND_DEF_STEREO_COUNT>
0
> <PUBCHEM_BOND_UDEF_STEREO_COUNT>
0
> <PUBCHEM_ISOTOPIC_ATOM_COUNT>
0
> <PUBCHEM_COMPONENT_COUNT>
1
> <PUBCHEM_CACTVS_TAUTO_COUNT>
-1
> <PUBCHEM_COORDINATE_TYPE>
1
5
255
> <PUBCHEM_BONDANNOTATIONS>
10  17  8
10  20  8
14  16  3
18  19  8
19  20  8
12  3  3
15  9  3
9  17  8
9  18  8
$$$$
