515061
  -OEChem-10302200282D
 57 60  0     1  0  0  0  0  0999 V2000
    5.4071   -3.2063    0.0000 O   0  0  0  0  0  0  0  0  0  0  0  0
    5.2791   -5.8799    0.0000 O   0  0  0  0  0  0  0  0  0  0  0  0
    6.3301   -1.6185    0.0000 O   0  0  0  0  0  0  0  0  0  0  0  0
    4.5981   -1.6185    0.0000 N   0  0  0  0  0  0  0  0  0  0  0  0
    5.4641   -0.1185    0.0000 N   0  0  0  0  0  0  0  0  0  0  0  0
    3.7320    2.8815    0.0000 N   0  0  0  0  0  0  0  0  0  0  0  0
    4.5981    1.3815    0.0000 N   0  0  0  0  0  0  0  0  0  0  0  0
    4.5981   -2.6185    0.0000 C   0  0  1  0  0  0  0  0  0  0  0  0
    3.7891   -3.2063    0.0000 C   0  0  0  0  0  0  0  0  0  0  0  0
    4.0981   -4.1573    0.0000 C   0  0  0  0  0  0  0  0  0  0  0  0
    5.0981   -4.1573    0.0000 C   0  0  1  0  0  0  0  0  0  0  0  0
    5.6859   -4.9664    0.0000 C   0  0  0  0  0  0  0  0  0  0  0  0
    3.7320   -1.1185    0.0000 C   0  0  0  0  0  0  0  0  0  0  0  0
    5.4641   -1.1185    0.0000 C   0  0  0  0  0  0  0  0  0  0  0  0
    3.7320   -0.1185    0.0000 C   0  0  0  0  0  0  0  0  0  0  0  0
    4.5981    0.3815    0.0000 C   0  0  0  0  0  0  0  0  0  0  0  0
    2.8660    3.3815    0.0000 C   0  0  0  0  0  0  0  0  0  0  0  0
    4.5981    3.3815    0.0000 C   0  0  0  0  0  0  0  0  0  0  0  0
    3.7320    1.8815    0.0000 C   0  0  0  0  0  0  0  0  0  0  0  0
    2.8660    4.3815    0.0000 C   0  0  0  0  0  0  0  0  0  0  0  0
    5.4641    2.8815    0.0000 C   0  0  0  0  0  0  0  0  0  0  0  0
    3.7320    4.8815    0.0000 C   0  0  0  0  0  0  0  0  0  0  0  0
    6.3301    3.3815    0.0000 C   0  0  0  0  0  0  0  0  0  0  0  0
    2.0000    4.8815    0.0000 C   0  0  0  0  0  0  0  0  0  0  0  0
    5.4641    1.8815    0.0000 C   0  0  0  0  0  0  0  0  0  0  0  0
    3.7320    5.8815    0.0000 C   0  0  0  0  0  0  0  0  0  0  0  0
    7.1962    2.8815    0.0000 C   0  0  0  0  0  0  0  0  0  0  0  0
    2.0000    5.8815    0.0000 C   0  0  0  0  0  0  0  0  0  0  0  0
    6.3301    1.3815    0.0000 C   0  0  0  0  0  0  0  0  0  0  0  0
    2.8660    6.3815    0.0000 C   0  0  0  0  0  0  0  0  0  0  0  0
    7.1962    1.8815    0.0000 C   0  0  0  0  0  0  0  0  0  0  0  0
    5.1505   -2.3370    0.0000 H   0  0  0  0  0  0  0  0  0  0  0  0
    3.4791   -2.6694    0.0000 H   0  0  0  0  0  0  0  0  0  0  0  0
    3.2227   -3.4585    0.0000 H   0  0  0  0  0  0  0  0  0  0  0  0
    3.4916   -4.2862    0.0000 H   0  0  0  0  0  0  0  0  0  0  0  0
    4.1629   -4.7740    0.0000 H   0  0  0  0  0  0  0  0  0  0  0  0
    5.7104   -4.0604    0.0000 H   0  0  0  0  0  0  0  0  0  0  0  0
    6.1999   -5.3131    0.0000 H   0  0  0  0  0  0  0  0  0  0  0  0
    6.1166   -4.5204    0.0000 H   0  0  0  0  0  0  0  0  0  0  0  0
    3.1951   -1.4285    0.0000 H   0  0  0  0  0  0  0  0  0  0  0  0
    5.6436   -6.3815    0.0000 H   0  0  0  0  0  0  0  0  0  0  0  0
    3.1951    0.1915    0.0000 H   0  0  0  0  0  0  0  0  0  0  0  0
    2.2554    3.4892    0.0000 H   0  0  0  0  0  0  0  0  0  0  0  0
    2.6540    2.7989    0.0000 H   0  0  0  0  0  0  0  0  0  0  0  0
    4.9966    3.8564    0.0000 H   0  0  0  0  0  0  0  0  0  0  0  0
    4.1996    3.8564    0.0000 H   0  0  0  0  0  0  0  0  0  0  0  0
    3.1951    1.5715    0.0000 H   0  0  0  0  0  0  0  0  0  0  0  0
    4.2690    4.5715    0.0000 H   0  0  0  0  0  0  0  0  0  0  0  0
    6.3301    4.0015    0.0000 H   0  0  0  0  0  0  0  0  0  0  0  0
    1.4631    4.5715    0.0000 H   0  0  0  0  0  0  0  0  0  0  0  0
    4.9272    1.5715    0.0000 H   0  0  0  0  0  0  0  0  0  0  0  0
    4.2690    6.1915    0.0000 H   0  0  0  0  0  0  0  0  0  0  0  0
    7.7331    3.1915    0.0000 H   0  0  0  0  0  0  0  0  0  0  0  0
    1.4631    6.1915    0.0000 H   0  0  0  0  0  0  0  0  0  0  0  0
    6.3301    0.7615    0.0000 H   0  0  0  0  0  0  0  0  0  0  0  0
    2.8660    7.0015    0.0000 H   0  0  0  0  0  0  0  0  0  0  0  0
    7.7331    1.5715    0.0000 H   0  0  0  0  0  0  0  0  0  0  0  0
  1  8  1  0  0  0  0
  1 11  1  0  0  0  0
  2 12  1  0  0  0  0
  2 41  1  0  0  0  0
  3 14  2  0  0  0  0
  8  4  1  6  0  0  0
  4 13  1  0  0  0  0
  4 14  1  0  0  0  0
  5 14  1  0  0  0  0
  5 16  2  0  0  0  0
  6 17  1  0  0  0  0
  6 18  1  0  0  0  0
  6 19  1  0  0  0  0
  7 16  1  0  0  0  0
  7 19  2  0  0  0  0
  8  9  1  0  0  0  0
  8 32  1  0  0  0  0
  9 10  1  0  0  0  0
  9 33  1  0  0  0  0
  9 34  1  0  0  0  0
 10 11  1  0  0  0  0
 10 35  1  0  0  0  0
 10 36  1  0  0  0  0
 11 12  1  6  0  0  0
 11 37  1  0  0  0  0
 12 38  1  0  0  0  0
 12 39  1  0  0  0  0
 13 15  2  0  0  0  0
 13 40  1  0  0  0  0
 15 16  1  0  0  0  0
 15 42  1  0  0  0  0
 17 20  1  0  0  0  0
 17 43  1  0  0  0  0
 17 44  1  0  0  0  0
 18 21  1  0  0  0  0
 18 45  1  0  0  0  0
 18 46  1  0  0  0  0
 19 47  1  0  0  0  0
 20 22  2  0  0  0  0
 20 24  1  0  0  0  0
 21 23  2  0  0  0  0
 21 25  1  0  0  0  0
 22 26  1  0  0  0  0
 22 48  1  0  0  0  0
 23 27  1  0  0  0  0
 23 49  1  0  0  0  0
 24 28  2  0  0  0  0
 24 50  1  0  0  0  0
 25 29  2  0  0  0  0
 25 51  1  0  0  0  0
 26 30  2  0  0  0  0
 26 52  1  0  0  0  0
 27 31  2  0  0  0  0
 27 53  1  0  0  0  0
 28 30  1  0  0  0  0
 28 54  1  0  0  0  0
 29 31  1  0  0  0  0
 29 55  1  0  0  0  0
 30 56  1  0  0  0  0
 31 57  1  0  0  0  0
M  END
> <PUBCHEM_COMPOUND_CID>
515061
> <PUBCHEM_COMPOUND_CANONICALIZED>
1
> <PUBCHEM_CACTVS_COMPLEXITY>
660
> <PUBCHEM_CACTVS_HBOND_ACCEPTOR>
3
> <PUBCHEM_CACTVS_HBOND_DONOR>
1
> <PUBCHEM_CACTVS_ROTATABLE_BOND>
8
> <PUBCHEM_CACTVS_SUBSKEYS>
AAADceB7sAAAAAAAAAAAAAAAAAAAASAAAAAwYIAAAAAAAAABQAAAHgAACAAADBThmAYxAIMABgCoAiJndACCAAEgAgAJiAAYBJiJMCKAmRGOYAhkhgKLiAewsAIOAAAAAAAAAAAAAAAAAAAAAAAAAAAAAA==
> <PUBCHEM_IUPAC_OPENEYE_NAME>
N,N-dibenzyl-N'-[1-[(2R,5S)-5-(hydroxymethyl)tetrahydrofuran-2-yl]-2-oxo-pyrimidin-4-yl]formamidine
> <PUBCHEM_IUPAC_CAS_NAME>
N'-[1-[(2R,5S)-5-(hydroxymethyl)-2-oxolanyl]-2-oxo-4-pyrimidinyl]-N,N-bis(phenylmethyl)methanimidamide
> <PUBCHEM_IUPAC_NAME_MARKUP>
<I>N</I>,<I>N</I>-dibenzyl-<I>N</I>&apos;-[1-[(2<I>R</I>,5<I>S</I>)-5-(hydroxymethyl)oxolan-2-yl]-2-oxopyrimidin-4-yl]methanimidamide
> <PUBCHEM_IUPAC_NAME>
N,N-dibenzyl-N'-[1-[(2R,5S)-5-(hydroxymethyl)oxolan-2-yl]-2-oxopyrimidin-4-yl]methanimidamide
> <PUBCHEM_IUPAC_SYSTEMATIC_NAME>
N'-[1-[(2R,5S)-5-(hydroxymethyl)oxolan-2-yl]-2-oxidanylidene-pyrimidin-4-yl]-N,N-bis(phenylmethyl)methanimidamide
> <PUBCHEM_IUPAC_TRADITIONAL_NAME>
N,N-dibenzyl-N'-[2-keto-1-[(2R,5S)-5-methyloltetrahydrofuran-2-yl]pyrimidin-4-yl]formamidine
> <PUBCHEM_IUPAC_INCHI>
InChI=1S/C24H26N4O3/c29-17-21-11-12-23(31-21)28-14-13-22(26-24(28)30)25-18-27(15-19-7-3-1-4-8-19)16-20-9-5-2-6-10-20/h1-10,13-14,18,21,23,29H,11-12,15-17H2/t21-,23+/m0/s1
> <PUBCHEM_IUPAC_INCHIKEY>
VHNITFNIJSBSIS-JTHBVZDNSA-N
> <PUBCHEM_XLOGP3>
2
> <PUBCHEM_EXACT_MASS>
418.20049070
> <PUBCHEM_MOLECULAR_FORMULA>
C24H26N4O3
> <PUBCHEM_MOLECULAR_WEIGHT>
418.5
> <PUBCHEM_OPENEYE_CAN_SMILES>
C1CC(OC1CO)N2C=CC(=NC2=O)N=CN(CC3=CC=CC=C3)CC4=CC=CC=C4
> <PUBCHEM_OPENEYE_ISO_SMILES>
C1C[C@@H](O[C@@H]1CO)N2C=CC(=NC2=O)N=CN(CC3=CC=CC=C3)CC4=CC=CC=C4
> <PUBCHEM_CACTVS_TPSA>
77.7
> <PUBCHEM_MONOISOTOPIC_WEIGHT>
418.20049070
> <PUBCHEM_TOTAL_CHARGE>
0
> <PUBCHEM_HEAVY_ATOM_COUNT>
31
> <PUBCHEM_ATOM_DEF_STEREO_COUNT>
2
> <PUBCHEM_ATOM_UDEF_STEREO_COUNT>
0
> <PUBCHEM_BOND_DEF_STEREO_COUNT>
0
> <PUBCHEM_BOND_UDEF_STEREO_COUNT>
0
> <PUBCHEM_ISOTOPIC_ATOM_COUNT>
0
> <PUBCHEM_COMPONENT_COUNT>
1
> <PUBCHEM_CACTVS_TAUTO_COUNT>
-1
> <PUBCHEM_COORDINATE_TYPE>
1
5
255
> <PUBCHEM_BONDANNOTATIONS>
11  12  6
13  15  8
15  16  8
20  22  8
20  24  8
21  23  8
21  25  8
22  26  8
23  27  8
24  28  8
25  29  8
26  30  8
27  31  8
28  30  8
29  31  8
4  13  8
4  14  8
8  4  6
5  14  8
5  16  8
$$$$
