515013
  -OEChem-10302200282D
 77 81  0     1  0  0  0  0  0999 V2000
    8.9282   -3.2762    0.0000 Cl  0  0  0  0  0  0  0  0  0  0  0  0
   10.6603   -4.2762    0.0000 Cl  0  0  0  0  0  0  0  0  0  0  0  0
   12.3923   -0.2762    0.0000 O   0  0  0  0  0  0  0  0  0  0  0  0
   10.4385    3.5717    0.0000 O   0  0  0  0  0  0  0  0  0  0  0  0
    7.1962   -0.2762    0.0000 N   0  0  0  0  0  0  0  0  0  0  0  0
   10.6603   -0.2762    0.0000 N   0  0  0  0  0  0  0  0  0  0  0  0
   12.0263    2.7627    0.0000 N   0  0  0  0  0  0  0  0  0  0  0  0
    5.4641   -1.2762    0.0000 C   0  0  0  0  0  0  0  0  0  0  0  0
    5.4641   -0.2762    0.0000 C   0  0  0  0  0  0  0  0  0  0  0  0
    6.3301   -1.7762    0.0000 C   0  0  0  0  0  0  0  0  0  0  0  0
    6.3301    0.2238    0.0000 C   0  0  0  0  0  0  0  0  0  0  0  0
    7.1962   -1.2762    0.0000 C   0  0  0  0  0  0  0  0  0  0  0  0
    4.5981   -1.7762    0.0000 C   0  0  0  0  0  0  0  0  0  0  0  0
    8.0622    0.2238    0.0000 C   0  0  0  0  0  0  0  0  0  0  0  0
    8.9282   -0.2762    0.0000 C   0  0  0  0  0  0  0  0  0  0  0  0
   11.5263    1.2238    0.0000 C   0  0  3  0  0  0  0  0  0  0  0  0
    9.7942    0.2238    0.0000 C   0  0  0  0  0  0  0  0  0  0  0  0
   12.3353    1.8116    0.0000 C   0  0  0  0  0  0  0  0  0  0  0  0
    3.7320   -1.2762    0.0000 C   0  0  0  0  0  0  0  0  0  0  0  0
   10.7173    1.8116    0.0000 C   0  0  0  0  0  0  0  0  0  0  0  0
   11.5263    0.2238    0.0000 C   0  0  0  0  0  0  0  0  0  0  0  0
   11.0263    2.7627    0.0000 C   0  0  0  0  0  0  0  0  0  0  0  0
   12.6141    3.5717    0.0000 C   0  0  0  0  0  0  0  0  0  0  0  0
   10.6603   -1.2762    0.0000 C   0  0  0  0  0  0  0  0  0  0  0  0
    2.8660   -1.7762    0.0000 C   0  0  0  0  0  0  0  0  0  0  0  0
    3.7320   -0.2762    0.0000 C   0  0  0  0  0  0  0  0  0  0  0  0
   13.6086    3.4672    0.0000 C   0  0  0  0  0  0  0  0  0  0  0  0
    2.0000   -1.2762    0.0000 C   0  0  0  0  0  0  0  0  0  0  0  0
    2.8660    0.2238    0.0000 C   0  0  0  0  0  0  0  0  0  0  0  0
    9.7942   -1.7762    0.0000 C   0  0  0  0  0  0  0  0  0  0  0  0
   11.5263   -1.7762    0.0000 C   0  0  0  0  0  0  0  0  0  0  0  0
    2.0000   -0.2762    0.0000 C   0  0  0  0  0  0  0  0  0  0  0  0
   14.0153    2.5536    0.0000 C   0  0  0  0  0  0  0  0  0  0  0  0
   14.1964    4.2762    0.0000 C   0  0  0  0  0  0  0  0  0  0  0  0
    9.7942   -2.7762    0.0000 C   0  0  0  0  0  0  0  0  0  0  0  0
   11.5263   -2.7762    0.0000 C   0  0  0  0  0  0  0  0  0  0  0  0
   10.6603   -3.2762    0.0000 C   0  0  0  0  0  0  0  0  0  0  0  0
   15.0098    2.4491    0.0000 C   0  0  0  0  0  0  0  0  0  0  0  0
   15.1909    4.1716    0.0000 C   0  0  0  0  0  0  0  0  0  0  0  0
   15.5976    3.2581    0.0000 C   0  0  0  0  0  0  0  0  0  0  0  0
    5.4641   -1.8962    0.0000 H   0  0  0  0  0  0  0  0  0  0  0  0
    5.2520    0.3064    0.0000 H   0  0  0  0  0  0  0  0  0  0  0  0
    4.8535   -0.3838    0.0000 H   0  0  0  0  0  0  0  0  0  0  0  0
    5.9316   -2.2511    0.0000 H   0  0  0  0  0  0  0  0  0  0  0  0
    6.7287   -2.2511    0.0000 H   0  0  0  0  0  0  0  0  0  0  0  0
    6.7287    0.6988    0.0000 H   0  0  0  0  0  0  0  0  0  0  0  0
    5.9316    0.6988    0.0000 H   0  0  0  0  0  0  0  0  0  0  0  0
    7.4082   -1.8588    0.0000 H   0  0  0  0  0  0  0  0  0  0  0  0
    7.8067   -1.1685    0.0000 H   0  0  0  0  0  0  0  0  0  0  0  0
    4.1996   -2.2511    0.0000 H   0  0  0  0  0  0  0  0  0  0  0  0
    4.9966   -2.2511    0.0000 H   0  0  0  0  0  0  0  0  0  0  0  0
    8.4607    0.6988    0.0000 H   0  0  0  0  0  0  0  0  0  0  0  0
    7.6636    0.6988    0.0000 H   0  0  0  0  0  0  0  0  0  0  0  0
    8.5297   -0.7511    0.0000 H   0  0  0  0  0  0  0  0  0  0  0  0
    9.3267   -0.7511    0.0000 H   0  0  0  0  0  0  0  0  0  0  0  0
   12.0787    0.9424    0.0000 H   0  0  0  0  0  0  0  0  0  0  0  0
   10.1928    0.6988    0.0000 H   0  0  0  0  0  0  0  0  0  0  0  0
    9.3957    0.6988    0.0000 H   0  0  0  0  0  0  0  0  0  0  0  0
   12.6453    1.2747    0.0000 H   0  0  0  0  0  0  0  0  0  0  0  0
   12.9017    2.0638    0.0000 H   0  0  0  0  0  0  0  0  0  0  0  0
   10.1509    2.0638    0.0000 H   0  0  0  0  0  0  0  0  0  0  0  0
   10.4073    1.2747    0.0000 H   0  0  0  0  0  0  0  0  0  0  0  0
   12.7850    4.1677    0.0000 H   0  0  0  0  0  0  0  0  0  0  0  0
   12.0568    3.8435    0.0000 H   0  0  0  0  0  0  0  0  0  0  0  0
    2.8660   -2.3962    0.0000 H   0  0  0  0  0  0  0  0  0  0  0  0
    4.2690    0.0338    0.0000 H   0  0  0  0  0  0  0  0  0  0  0  0
    1.4631   -1.5862    0.0000 H   0  0  0  0  0  0  0  0  0  0  0  0
    2.8660    0.8438    0.0000 H   0  0  0  0  0  0  0  0  0  0  0  0
    9.2573   -1.4662    0.0000 H   0  0  0  0  0  0  0  0  0  0  0  0
   12.0632   -1.4662    0.0000 H   0  0  0  0  0  0  0  0  0  0  0  0
    1.4631    0.0338    0.0000 H   0  0  0  0  0  0  0  0  0  0  0  0
   13.6509    2.0520    0.0000 H   0  0  0  0  0  0  0  0  0  0  0  0
   13.9442    4.8426    0.0000 H   0  0  0  0  0  0  0  0  0  0  0  0
   12.0632   -3.0862    0.0000 H   0  0  0  0  0  0  0  0  0  0  0  0
   15.2620    1.8827    0.0000 H   0  0  0  0  0  0  0  0  0  0  0  0
   15.5553    4.6732    0.0000 H   0  0  0  0  0  0  0  0  0  0  0  0
   16.2142    3.1933    0.0000 H   0  0  0  0  0  0  0  0  0  0  0  0
  1 35  1  0  0  0  0
  2 37  1  0  0  0  0
  3 21  2  0  0  0  0
  4 22  2  0  0  0  0
  5 11  1  0  0  0  0
  5 12  1  0  0  0  0
  5 14  1  0  0  0  0
  6 17  1  0  0  0  0
  6 21  1  0  0  0  0
  6 24  1  0  0  0  0
  7 18  1  0  0  0  0
  7 22  1  0  0  0  0
  7 23  1  0  0  0  0
  8  9  1  0  0  0  0
  8 10  1  0  0  0  0
  8 13  1  0  0  0  0
  8 41  1  0  0  0  0
  9 11  1  0  0  0  0
  9 42  1  0  0  0  0
  9 43  1  0  0  0  0
 10 12  1  0  0  0  0
 10 44  1  0  0  0  0
 10 45  1  0  0  0  0
 11 46  1  0  0  0  0
 11 47  1  0  0  0  0
 12 48  1  0  0  0  0
 12 49  1  0  0  0  0
 13 19  1  0  0  0  0
 13 50  1  0  0  0  0
 13 51  1  0  0  0  0
 14 15  1  0  0  0  0
 14 52  1  0  0  0  0
 14 53  1  0  0  0  0
 15 17  1  0  0  0  0
 15 54  1  0  0  0  0
 15 55  1  0  0  0  0
 16 18  1  0  0  0  0
 16 20  1  0  0  0  0
 16 21  1  0  0  0  0
 16 56  1  0  0  0  0
 17 57  1  0  0  0  0
 17 58  1  0  0  0  0
 18 59  1  0  0  0  0
 18 60  1  0  0  0  0
 19 25  2  0  0  0  0
 19 26  1  0  0  0  0
 20 22  1  0  0  0  0
 20 61  1  0  0  0  0
 20 62  1  0  0  0  0
 23 27  1  0  0  0  0
 23 63  1  0  0  0  0
 23 64  1  0  0  0  0
 24 30  2  0  0  0  0
 24 31  1  0  0  0  0
 25 28  1  0  0  0  0
 25 65  1  0  0  0  0
 26 29  2  0  0  0  0
 26 66  1  0  0  0  0
 27 33  2  0  0  0  0
 27 34  1  0  0  0  0
 28 32  2  0  0  0  0
 28 67  1  0  0  0  0
 29 32  1  0  0  0  0
 29 68  1  0  0  0  0
 30 35  1  0  0  0  0
 30 69  1  0  0  0  0
 31 36  2  0  0  0  0
 31 70  1  0  0  0  0
 32 71  1  0  0  0  0
 33 38  1  0  0  0  0
 33 72  1  0  0  0  0
 34 39  2  0  0  0  0
 34 73  1  0  0  0  0
 35 37  2  0  0  0  0
 36 37  1  0  0  0  0
 36 74  1  0  0  0  0
 38 40  2  0  0  0  0
 38 75  1  0  0  0  0
 39 40  1  0  0  0  0
 39 76  1  0  0  0  0
 40 77  1  0  0  0  0
M  END
> <PUBCHEM_COMPOUND_CID>
515013
> <PUBCHEM_COMPOUND_CANONICALIZED>
1
> <PUBCHEM_CACTVS_COMPLEXITY>
808
> <PUBCHEM_CACTVS_HBOND_ACCEPTOR>
3
> <PUBCHEM_CACTVS_HBOND_DONOR>
0
> <PUBCHEM_CACTVS_ROTATABLE_BOND>
10
> <PUBCHEM_CACTVS_SUBSKEYS>
AAADcfB/MAAGAAAAAAAAAAAAAAAAAWAAAAA8YMEAAAAAAAABUAAAHgIAAAAADQrBmCQwwIMAAACIAiVSUACCAAAhBwAIikEIZogIIDrB05GEIAhghgDIyAcVgMAOAABAAAIAAAQAAIAABAAACAAAAAAAAA==
> <PUBCHEM_IUPAC_OPENEYE_NAME>
1-benzyl-N-[3-(4-benzyl-1-piperidyl)propyl]-N-(3,4-dichlorophenyl)-5-oxo-pyrrolidine-3-carboxamide
> <PUBCHEM_IUPAC_CAS_NAME>
N-(3,4-dichlorophenyl)-5-oxo-1-(phenylmethyl)-N-[3-[4-(phenylmethyl)-1-piperidinyl]propyl]-3-pyrrolidinecarboxamide
> <PUBCHEM_IUPAC_NAME_MARKUP>
1-benzyl-<I>N</I>-[3-(4-benzylpiperidin-1-yl)propyl]-<I>N</I>-(3,4-dichlorophenyl)-5-oxopyrrolidine-3-carboxamide
> <PUBCHEM_IUPAC_NAME>
1-benzyl-N-[3-(4-benzylpiperidin-1-yl)propyl]-N-(3,4-dichlorophenyl)-5-oxopyrrolidine-3-carboxamide
> <PUBCHEM_IUPAC_SYSTEMATIC_NAME>
N-(3,4-dichlorophenyl)-5-oxidanylidene-1-(phenylmethyl)-N-[3-[4-(phenylmethyl)piperidin-1-yl]propyl]pyrrolidine-3-carboxamide
> <PUBCHEM_IUPAC_TRADITIONAL_NAME>
1-benzyl-N-[3-(4-benzylpiperidino)propyl]-N-(3,4-dichlorophenyl)-5-keto-pyrrolidine-3-carboxamide
> <PUBCHEM_IUPAC_INCHI>
InChI=1S/C33H37Cl2N3O2/c34-30-13-12-29(22-31(30)35)38(33(40)28-21-32(39)37(24-28)23-27-10-5-2-6-11-27)17-7-16-36-18-14-26(15-19-36)20-25-8-3-1-4-9-25/h1-6,8-13,22,26,28H,7,14-21,23-24H2
> <PUBCHEM_IUPAC_INCHIKEY>
BFKJUWWBLJSSRU-UHFFFAOYSA-N
> <PUBCHEM_XLOGP3_AA>
6.3
> <PUBCHEM_EXACT_MASS>
577.2262828
> <PUBCHEM_MOLECULAR_FORMULA>
C33H37Cl2N3O2
> <PUBCHEM_MOLECULAR_WEIGHT>
578.6
> <PUBCHEM_OPENEYE_CAN_SMILES>
C1CN(CCC1CC2=CC=CC=C2)CCCN(C3=CC(=C(C=C3)Cl)Cl)C(=O)C4CC(=O)N(C4)CC5=CC=CC=C5
> <PUBCHEM_OPENEYE_ISO_SMILES>
C1CN(CCC1CC2=CC=CC=C2)CCCN(C3=CC(=C(C=C3)Cl)Cl)C(=O)C4CC(=O)N(C4)CC5=CC=CC=C5
> <PUBCHEM_CACTVS_TPSA>
43.9
> <PUBCHEM_MONOISOTOPIC_WEIGHT>
577.2262828
> <PUBCHEM_TOTAL_CHARGE>
0
> <PUBCHEM_HEAVY_ATOM_COUNT>
40
> <PUBCHEM_ATOM_DEF_STEREO_COUNT>
0
> <PUBCHEM_ATOM_UDEF_STEREO_COUNT>
1
> <PUBCHEM_BOND_DEF_STEREO_COUNT>
0
> <PUBCHEM_BOND_UDEF_STEREO_COUNT>
0
> <PUBCHEM_ISOTOPIC_ATOM_COUNT>
0
> <PUBCHEM_COMPONENT_COUNT>
1
> <PUBCHEM_CACTVS_TAUTO_COUNT>
-1
> <PUBCHEM_COORDINATE_TYPE>
1
5
255
> <PUBCHEM_BONDANNOTATIONS>
16  21  3
19  25  8
19  26  8
24  30  8
24  31  8
25  28  8
26  29  8
27  33  8
27  34  8
28  32  8
29  32  8
30  35  8
31  36  8
33  38  8
34  39  8
35  37  8
36  37  8
38  40  8
39  40  8
$$$$
