515023
  -OEChem-10302200282D
 38 40  0     1  0  0  0  0  0999 V2000
    2.0000   -0.0428    0.0000 Cl  0  0  0  0  0  0  0  0  0  0  0  0
    5.5301   -2.0670    0.0000 S   0  0  0  0  0  0  0  0  0  0  0  0
    5.5301   -0.0670    0.0000 S   0  0  0  0  0  0  0  0  0  0  0  0
    6.0301   -2.9330    0.0000 O   0  0  0  0  0  0  0  0  0  0  0  0
    5.0301   -2.9330    0.0000 O   0  0  0  0  0  0  0  0  0  0  0  0
    6.3961    1.4330    0.0000 O   0  0  0  0  0  0  0  0  0  0  0  0
    6.3961   -1.5670    0.0000 N   0  0  0  0  0  0  0  0  0  0  0  0
    8.9942   -1.0670    0.0000 N   0  0  0  0  0  0  0  0  0  0  0  0
    6.3961   -0.5670    0.0000 C   0  0  3  0  0  0  0  0  0  0  0  0
    7.2622   -0.0670    0.0000 C   0  0  3  0  0  0  0  0  0  0  0  0
    4.6641   -1.5670    0.0000 C   0  0  0  0  0  0  0  0  0  0  0  0
    4.6641   -0.5670    0.0000 C   0  0  0  0  0  0  0  0  0  0  0  0
    3.7702   -2.1016    0.0000 C   0  0  0  0  0  0  0  0  0  0  0  0
    7.2622    0.9330    0.0000 C   0  0  0  0  0  0  0  0  0  0  0  0
    3.7702   -0.0323    0.0000 C   0  0  0  0  0  0  0  0  0  0  0  0
    2.8641   -1.5878    0.0000 C   0  0  0  0  0  0  0  0  0  0  0  0
    2.8641   -0.5462    0.0000 C   0  0  0  0  0  0  0  0  0  0  0  0
    8.1282    1.4330    0.0000 C   0  0  0  0  0  0  0  0  0  0  0  0
    8.1282   -0.5670    0.0000 C   0  0  0  0  0  0  0  0  0  0  0  0
    2.0000   -2.0911    0.0000 C   0  0  0  0  0  0  0  0  0  0  0  0
    8.1282    2.4330    0.0000 C   0  0  0  0  0  0  0  0  0  0  0  0
    8.9942    0.9330    0.0000 C   0  0  0  0  0  0  0  0  0  0  0  0
    8.9942    2.9330    0.0000 C   0  0  0  0  0  0  0  0  0  0  0  0
    9.8602    1.4330    0.0000 C   0  0  0  0  0  0  0  0  0  0  0  0
    9.8602    2.4330    0.0000 C   0  0  0  0  0  0  0  0  0  0  0  0
    6.9331   -0.8770    0.0000 H   0  0  0  0  0  0  0  0  0  0  0  0
    7.2622   -0.6870    0.0000 H   0  0  0  0  0  0  0  0  0  0  0  0
    6.9331   -1.8770    0.0000 H   0  0  0  0  0  0  0  0  0  0  0  0
    3.7773   -2.7216    0.0000 H   0  0  0  0  0  0  0  0  0  0  0  0
    3.7773    0.5876    0.0000 H   0  0  0  0  0  0  0  0  0  0  0  0
    1.6879   -1.5554    0.0000 H   0  0  0  0  0  0  0  0  0  0  0  0
    1.4643   -2.4032    0.0000 H   0  0  0  0  0  0  0  0  0  0  0  0
    2.3121   -2.6269    0.0000 H   0  0  0  0  0  0  0  0  0  0  0  0
    7.5913    2.7430    0.0000 H   0  0  0  0  0  0  0  0  0  0  0  0
    8.9942    0.3130    0.0000 H   0  0  0  0  0  0  0  0  0  0  0  0
    8.9942    3.5530    0.0000 H   0  0  0  0  0  0  0  0  0  0  0  0
   10.3972    1.1230    0.0000 H   0  0  0  0  0  0  0  0  0  0  0  0
   10.3972    2.7430    0.0000 H   0  0  0  0  0  0  0  0  0  0  0  0
  1 17  1  0  0  0  0
  2  4  2  0  0  0  0
  2  5  2  0  0  0  0
  2  7  1  0  0  0  0
  2 11  1  0  0  0  0
  3  9  1  0  0  0  0
  3 12  1  0  0  0  0
  6 14  2  0  0  0  0
  7  9  1  0  0  0  0
  7 28  1  0  0  0  0
  8 19  3  0  0  0  0
  9 10  1  0  0  0  0
  9 26  1  0  0  0  0
 10 14  1  0  0  0  0
 10 19  1  0  0  0  0
 10 27  1  0  0  0  0
 11 12  2  0  0  0  0
 11 13  1  0  0  0  0
 12 15  1  0  0  0  0
 13 16  2  0  0  0  0
 13 29  1  0  0  0  0
 14 18  1  0  0  0  0
 15 17  2  0  0  0  0
 15 30  1  0  0  0  0
 16 17  1  0  0  0  0
 16 20  1  0  0  0  0
 18 21  2  0  0  0  0
 18 22  1  0  0  0  0
 20 31  1  0  0  0  0
 20 32  1  0  0  0  0
 20 33  1  0  0  0  0
 21 23  1  0  0  0  0
 21 34  1  0  0  0  0
 22 24  2  0  0  0  0
 22 35  1  0  0  0  0
 23 25  2  0  0  0  0
 23 36  1  0  0  0  0
 24 25  1  0  0  0  0
 24 37  1  0  0  0  0
 25 38  1  0  0  0  0
M  END
> <PUBCHEM_COMPOUND_CID>
515023
> <PUBCHEM_COMPOUND_CANONICALIZED>
1
> <PUBCHEM_CACTVS_COMPLEXITY>
663
> <PUBCHEM_CACTVS_HBOND_ACCEPTOR>
6
> <PUBCHEM_CACTVS_HBOND_DONOR>
1
> <PUBCHEM_CACTVS_ROTATABLE_BOND>
3
> <PUBCHEM_CACTVS_SUBSKEYS>
AAADccB7MABkAAAAAAAAAAAAAAAAAAAAAAA8YIAAAAAAAACxQAAAHgYQQAAADQbF2CSyAYBAAAqYBqBSAHBCABBkDRAIiJkAAsgIoDqhlxCAIQAgkAAoiY8YiMCOEAIAgBABAgAgBAEAIAIEAAAAAAAAAA==
> <PUBCHEM_IUPAC_OPENEYE_NAME>
2-(6-chloro-7-methyl-1,1-dioxo-2,3-dihydro-1lambda6,4,2-benzodithiazin-3-yl)-3-oxo-3-phenyl-propanenitrile
> <PUBCHEM_IUPAC_CAS_NAME>
2-(6-chloro-7-methyl-1,1-dioxo-2,3-dihydro-1lambda6,4,2-benzodithiazin-3-yl)-3-oxo-3-phenylpropanenitrile
> <PUBCHEM_IUPAC_NAME_MARKUP>
2-(6-chloro-7-methyl-1,1-dioxo-2,3-dihydro-1&lambda;<SUP>6</SUP>,4,2-benzodithiazin-3-yl)-3-oxo-3-phenylpropanenitrile
> <PUBCHEM_IUPAC_NAME>
2-(6-chloro-7-methyl-1,1-dioxo-2,3-dihydro-1lambda6,4,2-benzodithiazin-3-yl)-3-oxo-3-phenylpropanenitrile
> <PUBCHEM_IUPAC_SYSTEMATIC_NAME>
2-[6-chloranyl-7-methyl-1,1-bis(oxidanylidene)-2,3-dihydro-1lambda6,4,2-benzodithiazin-3-yl]-3-oxidanylidene-3-phenyl-propanenitrile
> <PUBCHEM_IUPAC_TRADITIONAL_NAME>
2-(6-chloro-1,1-diketo-7-methyl-2,3-dihydro-1lambda6,4,2-benzodithiazin-3-yl)-3-keto-3-phenyl-propionitrile
> <PUBCHEM_IUPAC_INCHI>
InChI=1S/C17H13ClN2O3S2/c1-10-7-15-14(8-13(10)18)24-17(20-25(15,22)23)12(9-19)16(21)11-5-3-2-4-6-11/h2-8,12,17,20H,1H3
> <PUBCHEM_IUPAC_INCHIKEY>
YDORUSFUMOMLCK-UHFFFAOYSA-N
> <PUBCHEM_XLOGP3_AA>
3.6
> <PUBCHEM_EXACT_MASS>
392.0056123
> <PUBCHEM_MOLECULAR_FORMULA>
C17H13ClN2O3S2
> <PUBCHEM_MOLECULAR_WEIGHT>
392.9
> <PUBCHEM_OPENEYE_CAN_SMILES>
CC1=CC2=C(C=C1Cl)SC(NS2(=O)=O)C(C#N)C(=O)C3=CC=CC=C3
> <PUBCHEM_OPENEYE_ISO_SMILES>
CC1=CC2=C(C=C1Cl)SC(NS2(=O)=O)C(C#N)C(=O)C3=CC=CC=C3
> <PUBCHEM_CACTVS_TPSA>
121
> <PUBCHEM_MONOISOTOPIC_WEIGHT>
392.0056123
> <PUBCHEM_TOTAL_CHARGE>
0
> <PUBCHEM_HEAVY_ATOM_COUNT>
25
> <PUBCHEM_ATOM_DEF_STEREO_COUNT>
0
> <PUBCHEM_ATOM_UDEF_STEREO_COUNT>
2
> <PUBCHEM_BOND_DEF_STEREO_COUNT>
0
> <PUBCHEM_BOND_UDEF_STEREO_COUNT>
0
> <PUBCHEM_ISOTOPIC_ATOM_COUNT>
0
> <PUBCHEM_COMPONENT_COUNT>
1
> <PUBCHEM_CACTVS_TAUTO_COUNT>
-1
> <PUBCHEM_COORDINATE_TYPE>
1
5
255
> <PUBCHEM_BONDANNOTATIONS>
10  19  3
11  12  8
11  13  8
12  15  8
13  16  8
15  17  8
16  17  8
18  21  8
18  22  8
21  23  8
22  24  8
23  25  8
24  25  8
9  7  3
$$$$
