515020
  -OEChem-10302200282D
 33 35  0     1  0  0  0  0  0999 V2000
    2.0000    0.3972    0.0000 Cl  0  0  0  0  0  0  0  0  0  0  0  0
    5.5301   -1.6270    0.0000 S   0  0  0  0  0  0  0  0  0  0  0  0
    5.5301    0.3730    0.0000 S   0  0  0  0  0  0  0  0  0  0  0  0
    6.0301   -2.4930    0.0000 O   0  0  0  0  0  0  0  0  0  0  0  0
    5.0301   -2.4930    0.0000 O   0  0  0  0  0  0  0  0  0  0  0  0
    8.1282   -1.1270    0.0000 O   0  0  0  0  0  0  0  0  0  0  0  0
    6.3961    1.8730    0.0000 O   0  0  0  0  0  0  0  0  0  0  0  0
    9.8602    1.8730    0.0000 O   0  0  0  0  0  0  0  0  0  0  0  0
    6.3961   -1.1270    0.0000 N   0  0  0  0  0  0  0  0  0  0  0  0
    8.9942    0.3730    0.0000 N   0  0  0  0  0  0  0  0  0  0  0  0
    8.1282    1.8730    0.0000 N   0  0  0  0  0  0  0  0  0  0  0  0
    6.3961   -0.1270    0.0000 C   0  0  3  0  0  0  0  0  0  0  0  0
    7.2622    0.3730    0.0000 C   0  0  0  0  0  0  0  0  0  0  0  0
    4.6641   -1.1270    0.0000 C   0  0  0  0  0  0  0  0  0  0  0  0
    4.6641   -0.1270    0.0000 C   0  0  0  0  0  0  0  0  0  0  0  0
    8.1282   -0.1270    0.0000 C   0  0  0  0  0  0  0  0  0  0  0  0
    7.2622    1.3730    0.0000 C   0  0  0  0  0  0  0  0  0  0  0  0
    3.7702   -1.6616    0.0000 C   0  0  0  0  0  0  0  0  0  0  0  0
    3.7702    0.4077    0.0000 C   0  0  0  0  0  0  0  0  0  0  0  0
    2.8641   -1.1478    0.0000 C   0  0  0  0  0  0  0  0  0  0  0  0
    2.8641   -0.1062    0.0000 C   0  0  0  0  0  0  0  0  0  0  0  0
    8.9942    1.3730    0.0000 C   0  0  0  0  0  0  0  0  0  0  0  0
    2.0000   -1.6511    0.0000 C   0  0  0  0  0  0  0  0  0  0  0  0
    6.9331   -0.4370    0.0000 H   0  0  0  0  0  0  0  0  0  0  0  0
    6.7252    0.6830    0.0000 H   0  0  0  0  0  0  0  0  0  0  0  0
    6.9331   -1.4370    0.0000 H   0  0  0  0  0  0  0  0  0  0  0  0
    3.7773   -2.2816    0.0000 H   0  0  0  0  0  0  0  0  0  0  0  0
    3.7773    1.0276    0.0000 H   0  0  0  0  0  0  0  0  0  0  0  0
    9.5312    0.0630    0.0000 H   0  0  0  0  0  0  0  0  0  0  0  0
    8.1282    2.4930    0.0000 H   0  0  0  0  0  0  0  0  0  0  0  0
    1.6879   -1.1154    0.0000 H   0  0  0  0  0  0  0  0  0  0  0  0
    1.4643   -1.9632    0.0000 H   0  0  0  0  0  0  0  0  0  0  0  0
    2.3121   -2.1869    0.0000 H   0  0  0  0  0  0  0  0  0  0  0  0
  1 21  1  0  0  0  0
  2  4  2  0  0  0  0
  2  5  2  0  0  0  0
  2  9  1  0  0  0  0
  2 14  1  0  0  0  0
  3 12  1  0  0  0  0
  3 15  1  0  0  0  0
  6 16  2  0  0  0  0
  7 17  2  0  0  0  0
  8 22  2  0  0  0  0
  9 12  1  0  0  0  0
  9 26  1  0  0  0  0
 10 16  1  0  0  0  0
 10 22  1  0  0  0  0
 10 29  1  0  0  0  0
 11 17  1  0  0  0  0
 11 22  1  0  0  0  0
 11 30  1  0  0  0  0
 12 13  1  0  0  0  0
 12 24  1  0  0  0  0
 13 16  1  0  0  0  0
 13 17  1  0  0  0  0
 13 25  1  0  0  0  0
 14 15  2  0  0  0  0
 14 18  1  0  0  0  0
 15 19  1  0  0  0  0
 18 20  2  0  0  0  0
 18 27  1  0  0  0  0
 19 21  2  0  0  0  0
 19 28  1  0  0  0  0
 20 21  1  0  0  0  0
 20 23  1  0  0  0  0
 23 31  1  0  0  0  0
 23 32  1  0  0  0  0
 23 33  1  0  0  0  0
M  END
> <PUBCHEM_COMPOUND_CID>
515020
> <PUBCHEM_COMPOUND_CANONICALIZED>
1
> <PUBCHEM_CACTVS_COMPLEXITY>
644
> <PUBCHEM_CACTVS_HBOND_ACCEPTOR>
7
> <PUBCHEM_CACTVS_HBOND_DONOR>
3
> <PUBCHEM_CACTVS_ROTATABLE_BOND>
1
> <PUBCHEM_CACTVS_SUBSKEYS>
AAADccBzOABkAAAAAAAAAAAAAAAAAAAAAAA8WIAAAAAAAACxAAAAHgYQQAAADQLF2CSzAYLAAAqIAiFSEHBCABBgDRAAiJkAAoiIICqpUxCEIAAolSIoiAcAgAAOEAIAgBABAgAgBAEAIAIEAAAAAAAAAA==
> <PUBCHEM_IUPAC_OPENEYE_NAME>
5-(6-chloro-7-methyl-1,1-dioxo-2,3-dihydro-1lambda6,4,2-benzodithiazin-3-yl)hexahydropyrimidine-2,4,6-trione
> <PUBCHEM_IUPAC_CAS_NAME>
5-(6-chloro-7-methyl-1,1-dioxo-2,3-dihydro-1lambda6,4,2-benzodithiazin-3-yl)-1,3-diazinane-2,4,6-trione
> <PUBCHEM_IUPAC_NAME_MARKUP>
5-(6-chloro-7-methyl-1,1-dioxo-2,3-dihydro-1&lambda;<SUP>6</SUP>,4,2-benzodithiazin-3-yl)-1,3-diazinane-2,4,6-trione
> <PUBCHEM_IUPAC_NAME>
5-(6-chloro-7-methyl-1,1-dioxo-2,3-dihydro-1lambda6,4,2-benzodithiazin-3-yl)-1,3-diazinane-2,4,6-trione
> <PUBCHEM_IUPAC_SYSTEMATIC_NAME>
5-[6-chloranyl-7-methyl-1,1-bis(oxidanylidene)-2,3-dihydro-1lambda6,4,2-benzodithiazin-3-yl]-1,3-diazinane-2,4,6-trione
> <PUBCHEM_IUPAC_TRADITIONAL_NAME>
5-(6-chloro-1,1-diketo-7-methyl-2,3-dihydro-1lambda6,4,2-benzodithiazin-3-yl)barbituric acid
> <PUBCHEM_IUPAC_INCHI>
InChI=1S/C12H10ClN3O5S2/c1-4-2-7-6(3-5(4)13)22-11(16-23(7,20)21)8-9(17)14-12(19)15-10(8)18/h2-3,8,11,16H,1H3,(H2,14,15,17,18,19)
> <PUBCHEM_IUPAC_INCHIKEY>
VLEMSTJEJTVXGK-UHFFFAOYSA-N
> <PUBCHEM_XLOGP3_AA>
1
> <PUBCHEM_EXACT_MASS>
374.9750405
> <PUBCHEM_MOLECULAR_FORMULA>
C12H10ClN3O5S2
> <PUBCHEM_MOLECULAR_WEIGHT>
375.8
> <PUBCHEM_OPENEYE_CAN_SMILES>
CC1=CC2=C(C=C1Cl)SC(NS2(=O)=O)C3C(=O)NC(=O)NC3=O
> <PUBCHEM_OPENEYE_ISO_SMILES>
CC1=CC2=C(C=C1Cl)SC(NS2(=O)=O)C3C(=O)NC(=O)NC3=O
> <PUBCHEM_CACTVS_TPSA>
155
> <PUBCHEM_MONOISOTOPIC_WEIGHT>
374.9750405
> <PUBCHEM_TOTAL_CHARGE>
0
> <PUBCHEM_HEAVY_ATOM_COUNT>
23
> <PUBCHEM_ATOM_DEF_STEREO_COUNT>
0
> <PUBCHEM_ATOM_UDEF_STEREO_COUNT>
1
> <PUBCHEM_BOND_DEF_STEREO_COUNT>
0
> <PUBCHEM_BOND_UDEF_STEREO_COUNT>
0
> <PUBCHEM_ISOTOPIC_ATOM_COUNT>
0
> <PUBCHEM_COMPONENT_COUNT>
1
> <PUBCHEM_CACTVS_TAUTO_COUNT>
-1
> <PUBCHEM_COORDINATE_TYPE>
1
5
255
> <PUBCHEM_BONDANNOTATIONS>
12  13  3
14  15  8
14  18  8
15  19  8
18  20  8
19  21  8
20  21  8
$$$$
