515060
  -OEChem-10302200282D
 67 70  0     1  0  0  0  0  0999 V2000
    6.6962   -4.6573    0.0000 S   0  0  0  0  0  0  0  0  0  0  0  0
    8.0052   -3.7063    0.0000 O   0  0  0  0  0  0  0  0  0  0  0  0
    7.8772   -6.3799    0.0000 O   0  0  0  0  0  0  0  0  0  0  0  0
    8.9282   -2.1185    0.0000 O   0  0  0  0  0  0  0  0  0  0  0  0
    2.8660    5.3815    0.0000 O   0  0  0  0  0  0  0  0  0  0  0  0
    9.7942    5.3815    0.0000 O   0  0  0  0  0  0  0  0  0  0  0  0
    2.0000    3.8815    0.0000 O   0  0  0  0  0  0  0  0  0  0  0  0
   10.6603    3.8815    0.0000 O   0  0  0  0  0  0  0  0  0  0  0  0
    7.1962   -2.1185    0.0000 N   0  0  0  0  0  0  0  0  0  0  0  0
    8.0622   -0.6185    0.0000 N   0  0  0  0  0  0  0  0  0  0  0  0
    6.3301    2.3815    0.0000 N   0  0  0  0  0  0  0  0  0  0  0  0
    7.1962    0.8815    0.0000 N   0  0  0  0  0  0  0  0  0  0  0  0
    7.1962   -3.1185    0.0000 C   0  0  2  0  0  0  0  0  0  0  0  0
    6.3871   -3.7063    0.0000 C   0  0  0  0  0  0  0  0  0  0  0  0
    7.6962   -4.6573    0.0000 C   0  0  1  0  0  0  0  0  0  0  0  0
    8.2839   -5.4664    0.0000 C   0  0  0  0  0  0  0  0  0  0  0  0
    6.3301   -1.6185    0.0000 C   0  0  0  0  0  0  0  0  0  0  0  0
    8.0622   -1.6185    0.0000 C   0  0  0  0  0  0  0  0  0  0  0  0
    6.3301   -0.6185    0.0000 C   0  0  0  0  0  0  0  0  0  0  0  0
    7.1962   -0.1185    0.0000 C   0  0  0  0  0  0  0  0  0  0  0  0
    5.4641    2.8815    0.0000 C   0  0  0  0  0  0  0  0  0  0  0  0
    7.1962    2.8815    0.0000 C   0  0  0  0  0  0  0  0  0  0  0  0
    6.3301    1.3815    0.0000 C   0  0  0  0  0  0  0  0  0  0  0  0
    5.4641    3.8815    0.0000 C   0  0  0  0  0  0  0  0  0  0  0  0
    8.0622    2.3815    0.0000 C   0  0  0  0  0  0  0  0  0  0  0  0
    4.5981    2.3815    0.0000 C   0  0  0  0  0  0  0  0  0  0  0  0
    7.1962    3.8815    0.0000 C   0  0  0  0  0  0  0  0  0  0  0  0
    3.7320    3.8815    0.0000 C   0  0  0  0  0  0  0  0  0  0  0  0
    8.9282    3.8815    0.0000 C   0  0  0  0  0  0  0  0  0  0  0  0
    4.5981    4.3815    0.0000 C   0  0  0  0  0  0  0  0  0  0  0  0
    8.9282    2.8815    0.0000 C   0  0  0  0  0  0  0  0  0  0  0  0
    3.7320    2.8815    0.0000 C   0  0  0  0  0  0  0  0  0  0  0  0
    8.0622    4.3815    0.0000 C   0  0  0  0  0  0  0  0  0  0  0  0
    2.8660    4.3815    0.0000 C   0  0  0  0  0  0  0  0  0  0  0  0
    9.7942    4.3815    0.0000 C   0  0  0  0  0  0  0  0  0  0  0  0
    2.0000    5.8815    0.0000 C   0  0  0  0  0  0  0  0  0  0  0  0
   10.6603    5.8815    0.0000 C   0  0  0  0  0  0  0  0  0  0  0  0
    2.0000    6.8815    0.0000 C   0  0  0  0  0  0  0  0  0  0  0  0
   10.6603    6.8815    0.0000 C   0  0  0  0  0  0  0  0  0  0  0  0
    6.6437   -2.8370    0.0000 H   0  0  0  0  0  0  0  0  0  0  0  0
    6.0771   -3.1694    0.0000 H   0  0  0  0  0  0  0  0  0  0  0  0
    5.8207   -3.9585    0.0000 H   0  0  0  0  0  0  0  0  0  0  0  0
    7.4147   -5.2098    0.0000 H   0  0  0  0  0  0  0  0  0  0  0  0
    8.7979   -5.8131    0.0000 H   0  0  0  0  0  0  0  0  0  0  0  0
    8.7146   -5.0204    0.0000 H   0  0  0  0  0  0  0  0  0  0  0  0
    5.7932   -1.9285    0.0000 H   0  0  0  0  0  0  0  0  0  0  0  0
    5.7932   -0.3085    0.0000 H   0  0  0  0  0  0  0  0  0  0  0  0
    8.2416   -6.8815    0.0000 H   0  0  0  0  0  0  0  0  0  0  0  0
    5.7932    1.0715    0.0000 H   0  0  0  0  0  0  0  0  0  0  0  0
    6.0010    4.1915    0.0000 H   0  0  0  0  0  0  0  0  0  0  0  0
    8.0622    1.7615    0.0000 H   0  0  0  0  0  0  0  0  0  0  0  0
    4.5981    1.7615    0.0000 H   0  0  0  0  0  0  0  0  0  0  0  0
    6.6592    4.1915    0.0000 H   0  0  0  0  0  0  0  0  0  0  0  0
    4.5981    5.0015    0.0000 H   0  0  0  0  0  0  0  0  0  0  0  0
    9.4651    2.5715    0.0000 H   0  0  0  0  0  0  0  0  0  0  0  0
    3.1951    2.5715    0.0000 H   0  0  0  0  0  0  0  0  0  0  0  0
    8.0622    5.0015    0.0000 H   0  0  0  0  0  0  0  0  0  0  0  0
    1.3894    5.9892    0.0000 H   0  0  0  0  0  0  0  0  0  0  0  0
    1.7880    5.2989    0.0000 H   0  0  0  0  0  0  0  0  0  0  0  0
   10.8723    5.2989    0.0000 H   0  0  0  0  0  0  0  0  0  0  0  0
   11.2708    5.9892    0.0000 H   0  0  0  0  0  0  0  0  0  0  0  0
    2.6200    6.8815    0.0000 H   0  0  0  0  0  0  0  0  0  0  0  0
    2.0000    7.5015    0.0000 H   0  0  0  0  0  0  0  0  0  0  0  0
    1.3800    6.8815    0.0000 H   0  0  0  0  0  0  0  0  0  0  0  0
   11.2803    6.8815    0.0000 H   0  0  0  0  0  0  0  0  0  0  0  0
   10.6603    7.5015    0.0000 H   0  0  0  0  0  0  0  0  0  0  0  0
   10.0403    6.8815    0.0000 H   0  0  0  0  0  0  0  0  0  0  0  0
  1 14  1  0  0  0  0
  1 15  1  0  0  0  0
  2 13  1  0  0  0  0
  2 15  1  0  0  0  0
  3 16  1  0  0  0  0
  3 48  1  0  0  0  0
  4 18  2  0  0  0  0
  5 34  1  0  0  0  0
  5 36  1  0  0  0  0
  6 35  1  0  0  0  0
  6 37  1  0  0  0  0
  7 34  2  0  0  0  0
  8 35  2  0  0  0  0
 13  9  1  1  0  0  0
  9 17  1  0  0  0  0
  9 18  1  0  0  0  0
 10 18  1  0  0  0  0
 10 20  2  0  0  0  0
 11 21  1  0  0  0  0
 11 22  1  0  0  0  0
 11 23  1  0  0  0  0
 12 20  1  0  0  0  0
 12 23  2  0  0  0  0
 13 14  1  0  0  0  0
 13 40  1  0  0  0  0
 14 41  1  0  0  0  0
 14 42  1  0  0  0  0
 15 16  1  1  0  0  0
 15 43  1  0  0  0  0
 16 44  1  0  0  0  0
 16 45  1  0  0  0  0
 17 19  2  0  0  0  0
 17 46  1  0  0  0  0
 19 20  1  0  0  0  0
 19 47  1  0  0  0  0
 21 24  2  0  0  0  0
 21 26  1  0  0  0  0
 22 25  2  0  0  0  0
 22 27  1  0  0  0  0
 23 49  1  0  0  0  0
 24 30  1  0  0  0  0
 24 50  1  0  0  0  0
 25 31  1  0  0  0  0
 25 51  1  0  0  0  0
 26 32  2  0  0  0  0
 26 52  1  0  0  0  0
 27 33  2  0  0  0  0
 27 53  1  0  0  0  0
 28 30  2  0  0  0  0
 28 32  1  0  0  0  0
 28 34  1  0  0  0  0
 29 31  2  0  0  0  0
 29 33  1  0  0  0  0
 29 35  1  0  0  0  0
 30 54  1  0  0  0  0
 31 55  1  0  0  0  0
 32 56  1  0  0  0  0
 33 57  1  0  0  0  0
 36 38  1  0  0  0  0
 36 58  1  0  0  0  0
 36 59  1  0  0  0  0
 37 39  1  0  0  0  0
 37 60  1  0  0  0  0
 37 61  1  0  0  0  0
 38 62  1  0  0  0  0
 38 63  1  0  0  0  0
 38 64  1  0  0  0  0
 39 65  1  0  0  0  0
 39 66  1  0  0  0  0
 39 67  1  0  0  0  0
M  END
> <PUBCHEM_COMPOUND_CID>
515060
> <PUBCHEM_COMPOUND_CANONICALIZED>
1
> <PUBCHEM_CACTVS_COMPLEXITY>
920
> <PUBCHEM_CACTVS_HBOND_ACCEPTOR>
8
> <PUBCHEM_CACTVS_HBOND_DONOR>
1
> <PUBCHEM_CACTVS_ROTATABLE_BOND>
12
> <PUBCHEM_CACTVS_SUBSKEYS>
AAADceB7uABAAAAAAAAAAAAAAAAAASAAAAAwYIAAAAAAAAABQAAAHgQACAAADAjl2AazyIMABgioAib3fACCAAElAhAJiAEYbNiJNnLAvZmOMQhkxgPr6YeY2SOeCAAAAAAAAAAQAAAAAAAAAAAAAAAAAA==
> <PUBCHEM_IUPAC_OPENEYE_NAME>
ethyl 4-[4-ethoxycarbonyl-N-[[1-[(2R,5S)-2-(hydroxymethyl)-1,3-oxathiolan-5-yl]-2-oxo-pyrimidin-4-yl]iminomethyl]anilino]benzoate
> <PUBCHEM_IUPAC_CAS_NAME>
4-[4-ethoxycarbonyl-N-[[1-[(2R,5S)-2-(hydroxymethyl)-1,3-oxathiolan-5-yl]-2-oxo-4-pyrimidinyl]iminomethyl]anilino]benzoic acid ethyl ester
> <PUBCHEM_IUPAC_NAME_MARKUP>
ethyl 4-[4-ethoxycarbonyl-<I>N</I>-[[1-[(2<I>R</I>,5<I>S</I>)-2-(hydroxymethyl)-1,3-oxathiolan-5-yl]-2-oxopyrimidin-4-yl]iminomethyl]anilino]benzoate
> <PUBCHEM_IUPAC_NAME>
ethyl 4-[4-ethoxycarbonyl-N-[[1-[(2R,5S)-2-(hydroxymethyl)-1,3-oxathiolan-5-yl]-2-oxopyrimidin-4-yl]iminomethyl]anilino]benzoate
> <PUBCHEM_IUPAC_SYSTEMATIC_NAME>
ethyl 4-[(4-ethoxycarbonylphenyl)-[[1-[(2R,5S)-2-(hydroxymethyl)-1,3-oxathiolan-5-yl]-2-oxidanylidene-pyrimidin-4-yl]iminomethyl]amino]benzoate
> <PUBCHEM_IUPAC_TRADITIONAL_NAME>
4-[4-carbethoxy-N-[[2-keto-1-[(2R,5S)-2-methylol-1,3-oxathiolan-5-yl]pyrimidin-4-yl]iminomethyl]anilino]benzoic acid ethyl ester
> <PUBCHEM_IUPAC_INCHI>
InChI=1S/C27H28N4O7S/c1-3-36-25(33)18-5-9-20(10-6-18)31(21-11-7-19(8-12-21)26(34)37-4-2)17-28-22-13-14-30(27(35)29-22)23-16-39-24(15-32)38-23/h5-14,17,23-24,32H,3-4,15-16H2,1-2H3/t23-,24+/m0/s1
> <PUBCHEM_IUPAC_INCHIKEY>
XFPIFFRFJRHPJS-BJKOFHAPSA-N
> <PUBCHEM_XLOGP3>
3.3
> <PUBCHEM_EXACT_MASS>
552.16787042
> <PUBCHEM_MOLECULAR_FORMULA>
C27H28N4O7S
> <PUBCHEM_MOLECULAR_WEIGHT>
552.6
> <PUBCHEM_OPENEYE_CAN_SMILES>
CCOC(=O)C1=CC=C(C=C1)N(C=NC2=NC(=O)N(C=C2)C3CSC(O3)CO)C4=CC=C(C=C4)C(=O)OCC
> <PUBCHEM_OPENEYE_ISO_SMILES>
CCOC(=O)C1=CC=C(C=C1)N(C=NC2=NC(=O)N(C=C2)[C@@H]3CS[C@@H](O3)CO)C4=CC=C(C=C4)C(=O)OCC
> <PUBCHEM_CACTVS_TPSA>
156
> <PUBCHEM_MONOISOTOPIC_WEIGHT>
552.16787042
> <PUBCHEM_TOTAL_CHARGE>
0
> <PUBCHEM_HEAVY_ATOM_COUNT>
39
> <PUBCHEM_ATOM_DEF_STEREO_COUNT>
2
> <PUBCHEM_ATOM_UDEF_STEREO_COUNT>
0
> <PUBCHEM_BOND_DEF_STEREO_COUNT>
0
> <PUBCHEM_BOND_UDEF_STEREO_COUNT>
0
> <PUBCHEM_ISOTOPIC_ATOM_COUNT>
0
> <PUBCHEM_COMPONENT_COUNT>
1
> <PUBCHEM_CACTVS_TAUTO_COUNT>
-1
> <PUBCHEM_COORDINATE_TYPE>
1
5
255
> <PUBCHEM_BONDANNOTATIONS>
10  18  8
10  20  8
15  16  5
17  19  8
19  20  8
21  24  8
21  26  8
22  25  8
22  27  8
24  30  8
25  31  8
26  32  8
27  33  8
28  30  8
28  32  8
29  31  8
29  33  8
13  9  5
9  17  8
9  18  8
$$$$
