515010
  -OEChem-10302200282D
 70 73  0     1  0  0  0  0  0999 V2000
    2.0000   -2.2251    0.0000 F   0  0  0  0  0  0  0  0  0  0  0  0
    2.5068   -0.9048    0.0000 F   0  0  0  0  0  0  0  0  0  0  0  0
    3.8271   -1.4116    0.0000 F   0  0  0  0  0  0  0  0  0  0  0  0
    6.7635   -1.0000    0.0000 O   0  0  0  0  0  0  0  0  0  0  0  0
    4.4081   -4.6160    0.0000 O   0  0  0  0  0  0  0  0  0  0  0  0
    9.3616    0.5000    0.0000 N   0  0  0  0  0  0  0  0  0  0  0  0
    7.6295   -2.5000    0.0000 N   0  0  0  0  0  0  0  0  0  0  0  0
    4.3148   -2.8364    0.0000 N   0  0  0  0  0  0  0  0  0  0  0  0
    9.3616    2.5000    0.0000 C   0  0  0  0  0  0  0  0  0  0  0  0
    8.4956    2.0000    0.0000 C   0  0  0  0  0  0  0  0  0  0  0  0
   10.2276    2.0000    0.0000 C   0  0  0  0  0  0  0  0  0  0  0  0
    8.4956    1.0000    0.0000 C   0  0  0  0  0  0  0  0  0  0  0  0
   10.2276    1.0000    0.0000 C   0  0  0  0  0  0  0  0  0  0  0  0
    9.3616    3.5000    0.0000 C   0  0  0  0  0  0  0  0  0  0  0  0
    9.3616   -0.5000    0.0000 C   0  0  0  0  0  0  0  0  0  0  0  0
    8.4956   -1.0000    0.0000 C   0  0  0  0  0  0  0  0  0  0  0  0
    5.8975   -2.5000    0.0000 C   0  0  3  0  0  0  0  0  0  0  0  0
    8.4956   -2.0000    0.0000 C   0  0  0  0  0  0  0  0  0  0  0  0
    4.9839   -2.0933    0.0000 C   0  0  0  0  0  0  0  0  0  0  0  0
    5.7930   -3.4945    0.0000 C   0  0  0  0  0  0  0  0  0  0  0  0
   10.2276    4.0000    0.0000 C   0  0  0  0  0  0  0  0  0  0  0  0
    6.7635   -2.0000    0.0000 C   0  0  0  0  0  0  0  0  0  0  0  0
    4.8148   -3.7024    0.0000 C   0  0  0  0  0  0  0  0  0  0  0  0
    3.3203   -2.7319    0.0000 C   0  0  0  0  0  0  0  0  0  0  0  0
    7.6295   -3.5000    0.0000 C   0  0  0  0  0  0  0  0  0  0  0  0
   10.2276    5.0000    0.0000 C   0  0  0  0  0  0  0  0  0  0  0  0
   11.0936    3.5000    0.0000 C   0  0  0  0  0  0  0  0  0  0  0  0
    2.9136   -1.8183    0.0000 C   0  0  0  0  0  0  0  0  0  0  0  0
   11.0936    5.5000    0.0000 C   0  0  0  0  0  0  0  0  0  0  0  0
   11.9597    4.0000    0.0000 C   0  0  0  0  0  0  0  0  0  0  0  0
    8.4956   -4.0000    0.0000 C   0  0  0  0  0  0  0  0  0  0  0  0
    6.7635   -4.0000    0.0000 C   0  0  0  0  0  0  0  0  0  0  0  0
   11.9597    5.0000    0.0000 C   0  0  0  0  0  0  0  0  0  0  0  0
    8.4956   -5.0000    0.0000 C   0  0  0  0  0  0  0  0  0  0  0  0
    6.7635   -5.0000    0.0000 C   0  0  0  0  0  0  0  0  0  0  0  0
    7.6295   -5.5000    0.0000 C   0  0  0  0  0  0  0  0  0  0  0  0
    9.8985    2.8100    0.0000 H   0  0  0  0  0  0  0  0  0  0  0  0
    8.2835    2.5826    0.0000 H   0  0  0  0  0  0  0  0  0  0  0  0
    7.8850    1.8923    0.0000 H   0  0  0  0  0  0  0  0  0  0  0  0
   10.8382    1.8923    0.0000 H   0  0  0  0  0  0  0  0  0  0  0  0
   10.4397    2.5826    0.0000 H   0  0  0  0  0  0  0  0  0  0  0  0
    7.8850    1.1077    0.0000 H   0  0  0  0  0  0  0  0  0  0  0  0
    8.2835    0.4174    0.0000 H   0  0  0  0  0  0  0  0  0  0  0  0
   10.4397    0.4174    0.0000 H   0  0  0  0  0  0  0  0  0  0  0  0
   10.8382    1.1077    0.0000 H   0  0  0  0  0  0  0  0  0  0  0  0
    9.1495    4.0826    0.0000 H   0  0  0  0  0  0  0  0  0  0  0  0
    8.7510    3.3923    0.0000 H   0  0  0  0  0  0  0  0  0  0  0  0
    9.5736   -1.0826    0.0000 H   0  0  0  0  0  0  0  0  0  0  0  0
    9.9722   -0.3923    0.0000 H   0  0  0  0  0  0  0  0  0  0  0  0
    8.2835   -0.4174    0.0000 H   0  0  0  0  0  0  0  0  0  0  0  0
    7.8850   -1.1077    0.0000 H   0  0  0  0  0  0  0  0  0  0  0  0
    5.8650   -1.8808    0.0000 H   0  0  0  0  0  0  0  0  0  0  0  0
    8.7076   -2.5826    0.0000 H   0  0  0  0  0  0  0  0  0  0  0  0
    9.1061   -1.8923    0.0000 H   0  0  0  0  0  0  0  0  0  0  0  0
    5.2939   -1.5563    0.0000 H   0  0  0  0  0  0  0  0  0  0  0  0
    4.4823   -1.7288    0.0000 H   0  0  0  0  0  0  0  0  0  0  0  0
    5.8578   -4.1111    0.0000 H   0  0  0  0  0  0  0  0  0  0  0  0
    6.4130   -3.4945    0.0000 H   0  0  0  0  0  0  0  0  0  0  0  0
    2.7187   -2.8819    0.0000 H   0  0  0  0  0  0  0  0  0  0  0  0
    3.3635   -3.3504    0.0000 H   0  0  0  0  0  0  0  0  0  0  0  0
    9.6907    5.3100    0.0000 H   0  0  0  0  0  0  0  0  0  0  0  0
   11.0936    2.8800    0.0000 H   0  0  0  0  0  0  0  0  0  0  0  0
   11.0936    6.1200    0.0000 H   0  0  0  0  0  0  0  0  0  0  0  0
   12.4966    3.6900    0.0000 H   0  0  0  0  0  0  0  0  0  0  0  0
    9.0325   -3.6900    0.0000 H   0  0  0  0  0  0  0  0  0  0  0  0
    6.2266   -3.6900    0.0000 H   0  0  0  0  0  0  0  0  0  0  0  0
   12.4966    5.3100    0.0000 H   0  0  0  0  0  0  0  0  0  0  0  0
    9.0325   -5.3100    0.0000 H   0  0  0  0  0  0  0  0  0  0  0  0
    6.2266   -5.3100    0.0000 H   0  0  0  0  0  0  0  0  0  0  0  0
    7.6295   -6.1200    0.0000 H   0  0  0  0  0  0  0  0  0  0  0  0
  1 28  1  0  0  0  0
  2 28  1  0  0  0  0
  3 28  1  0  0  0  0
  4 22  2  0  0  0  0
  5 23  2  0  0  0  0
  6 12  1  0  0  0  0
  6 13  1  0  0  0  0
  6 15  1  0  0  0  0
  7 18  1  0  0  0  0
  7 22  1  0  0  0  0
  7 25  1  0  0  0  0
  8 19  1  0  0  0  0
  8 23  1  0  0  0  0
  8 24  1  0  0  0  0
  9 10  1  0  0  0  0
  9 11  1  0  0  0  0
  9 14  1  0  0  0  0
  9 37  1  0  0  0  0
 10 12  1  0  0  0  0
 10 38  1  0  0  0  0
 10 39  1  0  0  0  0
 11 13  1  0  0  0  0
 11 40  1  0  0  0  0
 11 41  1  0  0  0  0
 12 42  1  0  0  0  0
 12 43  1  0  0  0  0
 13 44  1  0  0  0  0
 13 45  1  0  0  0  0
 14 21  1  0  0  0  0
 14 46  1  0  0  0  0
 14 47  1  0  0  0  0
 15 16  1  0  0  0  0
 15 48  1  0  0  0  0
 15 49  1  0  0  0  0
 16 18  1  0  0  0  0
 16 50  1  0  0  0  0
 16 51  1  0  0  0  0
 17 19  1  0  0  0  0
 17 20  1  0  0  0  0
 17 22  1  0  0  0  0
 17 52  1  0  0  0  0
 18 53  1  0  0  0  0
 18 54  1  0  0  0  0
 19 55  1  0  0  0  0
 19 56  1  0  0  0  0
 20 23  1  0  0  0  0
 20 57  1  0  0  0  0
 20 58  1  0  0  0  0
 21 26  2  0  0  0  0
 21 27  1  0  0  0  0
 24 28  1  0  0  0  0
 24 59  1  0  0  0  0
 24 60  1  0  0  0  0
 25 31  2  0  0  0  0
 25 32  1  0  0  0  0
 26 29  1  0  0  0  0
 26 61  1  0  0  0  0
 27 30  2  0  0  0  0
 27 62  1  0  0  0  0
 29 33  2  0  0  0  0
 29 63  1  0  0  0  0
 30 33  1  0  0  0  0
 30 64  1  0  0  0  0
 31 34  1  0  0  0  0
 31 65  1  0  0  0  0
 32 35  2  0  0  0  0
 32 66  1  0  0  0  0
 33 67  1  0  0  0  0
 34 36  2  0  0  0  0
 34 68  1  0  0  0  0
 35 36  1  0  0  0  0
 35 69  1  0  0  0  0
 36 70  1  0  0  0  0
M  END
> <PUBCHEM_COMPOUND_CID>
515010
> <PUBCHEM_COMPOUND_CANONICALIZED>
1
> <PUBCHEM_CACTVS_COMPLEXITY>
711
> <PUBCHEM_CACTVS_HBOND_ACCEPTOR>
6
> <PUBCHEM_CACTVS_HBOND_DONOR>
0
> <PUBCHEM_CACTVS_ROTATABLE_BOND>
9
> <PUBCHEM_CACTVS_SUBSKEYS>
AAADcfB7MYAAAAAAAAAAAAAAAAAAAWAAAAA8YIAAAAAAAAABQAAAHwAAAAAADQjBmBQwwIMAAACIAiVSUACCAAAhAgAIiAEIZIgIIDrA0ZGEIAhghgDIyAcVgMAOAAAAAAAAAAAAAAAAAAAAAAAAAAAAAA==
> <PUBCHEM_IUPAC_OPENEYE_NAME>
N-[3-(4-benzyl-1-piperidyl)propyl]-5-oxo-N-phenyl-1-(2,2,2-trifluoroethyl)pyrrolidine-3-carboxamide
> <PUBCHEM_IUPAC_CAS_NAME>
5-oxo-N-phenyl-N-[3-[4-(phenylmethyl)-1-piperidinyl]propyl]-1-(2,2,2-trifluoroethyl)-3-pyrrolidinecarboxamide
> <PUBCHEM_IUPAC_NAME_MARKUP>
<I>N</I>-[3-(4-benzylpiperidin-1-yl)propyl]-5-oxo-<I>N</I>-phenyl-1-(2,2,2-trifluoroethyl)pyrrolidine-3-carboxamide
> <PUBCHEM_IUPAC_NAME>
N-[3-(4-benzylpiperidin-1-yl)propyl]-5-oxo-N-phenyl-1-(2,2,2-trifluoroethyl)pyrrolidine-3-carboxamide
> <PUBCHEM_IUPAC_SYSTEMATIC_NAME>
5-oxidanylidene-N-phenyl-N-[3-[4-(phenylmethyl)piperidin-1-yl]propyl]-1-[2,2,2-tris(fluoranyl)ethyl]pyrrolidine-3-carboxamide
> <PUBCHEM_IUPAC_TRADITIONAL_NAME>
N-[3-(4-benzylpiperidino)propyl]-5-keto-N-phenyl-1-(2,2,2-trifluoroethyl)pyrrolidine-3-carboxamide
> <PUBCHEM_IUPAC_INCHI>
InChI=1S/C28H34F3N3O2/c29-28(30,31)21-33-20-24(19-26(33)35)27(36)34(25-10-5-2-6-11-25)15-7-14-32-16-12-23(13-17-32)18-22-8-3-1-4-9-22/h1-6,8-11,23-24H,7,12-21H2
> <PUBCHEM_IUPAC_INCHIKEY>
JTCPPDCVKQWJEV-UHFFFAOYSA-N
> <PUBCHEM_XLOGP3_AA>
4.7
> <PUBCHEM_EXACT_MASS>
501.26031182
> <PUBCHEM_MOLECULAR_FORMULA>
C28H34F3N3O2
> <PUBCHEM_MOLECULAR_WEIGHT>
501.6
> <PUBCHEM_OPENEYE_CAN_SMILES>
C1CN(CCC1CC2=CC=CC=C2)CCCN(C3=CC=CC=C3)C(=O)C4CC(=O)N(C4)CC(F)(F)F
> <PUBCHEM_OPENEYE_ISO_SMILES>
C1CN(CCC1CC2=CC=CC=C2)CCCN(C3=CC=CC=C3)C(=O)C4CC(=O)N(C4)CC(F)(F)F
> <PUBCHEM_CACTVS_TPSA>
43.9
> <PUBCHEM_MONOISOTOPIC_WEIGHT>
501.26031182
> <PUBCHEM_TOTAL_CHARGE>
0
> <PUBCHEM_HEAVY_ATOM_COUNT>
36
> <PUBCHEM_ATOM_DEF_STEREO_COUNT>
0
> <PUBCHEM_ATOM_UDEF_STEREO_COUNT>
1
> <PUBCHEM_BOND_DEF_STEREO_COUNT>
0
> <PUBCHEM_BOND_UDEF_STEREO_COUNT>
0
> <PUBCHEM_ISOTOPIC_ATOM_COUNT>
0
> <PUBCHEM_COMPONENT_COUNT>
1
> <PUBCHEM_CACTVS_TAUTO_COUNT>
-1
> <PUBCHEM_COORDINATE_TYPE>
1
5
255
> <PUBCHEM_BONDANNOTATIONS>
17  22  3
21  26  8
21  27  8
25  31  8
25  32  8
26  29  8
27  30  8
29  33  8
30  33  8
31  34  8
32  35  8
34  36  8
35  36  8
$$$$
