515007
  -OEChem-10302200282D
 74 78  0     1  0  0  0  0  0999 V2000
    6.9326   -1.0000    0.0000 O   0  0  0  0  0  0  0  0  0  0  0  0
    4.5772   -4.6160    0.0000 O   0  0  0  0  0  0  0  0  0  0  0  0
    3.5827   -0.9523    0.0000 O   0  0  0  0  0  0  0  0  0  0  0  0
    9.5307    0.5000    0.0000 N   0  0  0  0  0  0  0  0  0  0  0  0
    7.7987   -2.5000    0.0000 N   0  0  0  0  0  0  0  0  0  0  0  0
    4.4839   -2.8364    0.0000 N   0  0  0  0  0  0  0  0  0  0  0  0
    9.5307    2.5000    0.0000 C   0  0  0  0  0  0  0  0  0  0  0  0
    8.6647    2.0000    0.0000 C   0  0  0  0  0  0  0  0  0  0  0  0
   10.3967    2.0000    0.0000 C   0  0  0  0  0  0  0  0  0  0  0  0
    8.6647    1.0000    0.0000 C   0  0  0  0  0  0  0  0  0  0  0  0
   10.3967    1.0000    0.0000 C   0  0  0  0  0  0  0  0  0  0  0  0
    9.5307    3.5000    0.0000 C   0  0  0  0  0  0  0  0  0  0  0  0
    9.5307   -0.5000    0.0000 C   0  0  0  0  0  0  0  0  0  0  0  0
    8.6647   -1.0000    0.0000 C   0  0  0  0  0  0  0  0  0  0  0  0
    6.0666   -2.5000    0.0000 C   0  0  3  0  0  0  0  0  0  0  0  0
    8.6647   -2.0000    0.0000 C   0  0  0  0  0  0  0  0  0  0  0  0
    5.1531   -2.0933    0.0000 C   0  0  0  0  0  0  0  0  0  0  0  0
   10.3967    4.0000    0.0000 C   0  0  0  0  0  0  0  0  0  0  0  0
    5.9621   -3.4945    0.0000 C   0  0  0  0  0  0  0  0  0  0  0  0
    6.9326   -2.0000    0.0000 C   0  0  0  0  0  0  0  0  0  0  0  0
    4.9839   -3.7024    0.0000 C   0  0  0  0  0  0  0  0  0  0  0  0
    3.4894   -2.7319    0.0000 C   0  0  0  0  0  0  0  0  0  0  0  0
    7.7987   -3.5000    0.0000 C   0  0  0  0  0  0  0  0  0  0  0  0
   11.2628    3.5000    0.0000 C   0  0  0  0  0  0  0  0  0  0  0  0
   10.3967    5.0000    0.0000 C   0  0  0  0  0  0  0  0  0  0  0  0
    3.0827   -1.8183    0.0000 C   0  0  0  0  0  0  0  0  0  0  0  0
   12.1288    4.0000    0.0000 C   0  0  0  0  0  0  0  0  0  0  0  0
   11.2628    5.5000    0.0000 C   0  0  0  0  0  0  0  0  0  0  0  0
    8.6647   -4.0000    0.0000 C   0  0  0  0  0  0  0  0  0  0  0  0
    6.9326   -4.0000    0.0000 C   0  0  0  0  0  0  0  0  0  0  0  0
   12.1288    5.0000    0.0000 C   0  0  0  0  0  0  0  0  0  0  0  0
    2.1045   -1.6104    0.0000 C   0  0  0  0  0  0  0  0  0  0  0  0
    8.6647   -5.0000    0.0000 C   0  0  0  0  0  0  0  0  0  0  0  0
    6.9326   -5.0000    0.0000 C   0  0  0  0  0  0  0  0  0  0  0  0
    7.7987   -5.5000    0.0000 C   0  0  0  0  0  0  0  0  0  0  0  0
    2.0000   -0.6159    0.0000 C   0  0  0  0  0  0  0  0  0  0  0  0
    2.9136   -0.2092    0.0000 C   0  0  0  0  0  0  0  0  0  0  0  0
    8.9938    2.8100    0.0000 H   0  0  0  0  0  0  0  0  0  0  0  0
    8.4526    2.5826    0.0000 H   0  0  0  0  0  0  0  0  0  0  0  0
    8.0541    1.8923    0.0000 H   0  0  0  0  0  0  0  0  0  0  0  0
   11.0073    1.8923    0.0000 H   0  0  0  0  0  0  0  0  0  0  0  0
   10.6088    2.5826    0.0000 H   0  0  0  0  0  0  0  0  0  0  0  0
    8.0541    1.1077    0.0000 H   0  0  0  0  0  0  0  0  0  0  0  0
    8.4526    0.4174    0.0000 H   0  0  0  0  0  0  0  0  0  0  0  0
   10.6088    0.4174    0.0000 H   0  0  0  0  0  0  0  0  0  0  0  0
   11.0073    1.1077    0.0000 H   0  0  0  0  0  0  0  0  0  0  0  0
    9.3187    4.0826    0.0000 H   0  0  0  0  0  0  0  0  0  0  0  0
    8.9201    3.3923    0.0000 H   0  0  0  0  0  0  0  0  0  0  0  0
    9.7428   -1.0826    0.0000 H   0  0  0  0  0  0  0  0  0  0  0  0
   10.1413   -0.3923    0.0000 H   0  0  0  0  0  0  0  0  0  0  0  0
    8.4526   -0.4174    0.0000 H   0  0  0  0  0  0  0  0  0  0  0  0
    8.0541   -1.1077    0.0000 H   0  0  0  0  0  0  0  0  0  0  0  0
    6.0342   -1.8808    0.0000 H   0  0  0  0  0  0  0  0  0  0  0  0
    8.8767   -2.5826    0.0000 H   0  0  0  0  0  0  0  0  0  0  0  0
    9.2753   -1.8923    0.0000 H   0  0  0  0  0  0  0  0  0  0  0  0
    5.4631   -1.5563    0.0000 H   0  0  0  0  0  0  0  0  0  0  0  0
    4.6515   -1.7288    0.0000 H   0  0  0  0  0  0  0  0  0  0  0  0
    6.0269   -4.1111    0.0000 H   0  0  0  0  0  0  0  0  0  0  0  0
    6.5821   -3.4945    0.0000 H   0  0  0  0  0  0  0  0  0  0  0  0
    2.8878   -2.8819    0.0000 H   0  0  0  0  0  0  0  0  0  0  0  0
    3.5327   -3.3504    0.0000 H   0  0  0  0  0  0  0  0  0  0  0  0
   11.2628    2.8800    0.0000 H   0  0  0  0  0  0  0  0  0  0  0  0
    9.8598    5.3100    0.0000 H   0  0  0  0  0  0  0  0  0  0  0  0
   12.6657    3.6900    0.0000 H   0  0  0  0  0  0  0  0  0  0  0  0
   11.2628    6.1200    0.0000 H   0  0  0  0  0  0  0  0  0  0  0  0
    9.2016   -3.6900    0.0000 H   0  0  0  0  0  0  0  0  0  0  0  0
    6.3957   -3.6900    0.0000 H   0  0  0  0  0  0  0  0  0  0  0  0
   12.6657    5.3100    0.0000 H   0  0  0  0  0  0  0  0  0  0  0  0
    1.6438   -2.0253    0.0000 H   0  0  0  0  0  0  0  0  0  0  0  0
    9.2016   -5.3100    0.0000 H   0  0  0  0  0  0  0  0  0  0  0  0
    6.3957   -5.3100    0.0000 H   0  0  0  0  0  0  0  0  0  0  0  0
    7.7987   -6.1200    0.0000 H   0  0  0  0  0  0  0  0  0  0  0  0
    1.4631   -0.3059    0.0000 H   0  0  0  0  0  0  0  0  0  0  0  0
    3.0424    0.3973    0.0000 H   0  0  0  0  0  0  0  0  0  0  0  0
  1 20  2  0  0  0  0
  2 21  2  0  0  0  0
  3 26  1  0  0  0  0
  3 37  1  0  0  0  0
  4 10  1  0  0  0  0
  4 11  1  0  0  0  0
  4 13  1  0  0  0  0
  5 16  1  0  0  0  0
  5 20  1  0  0  0  0
  5 23  1  0  0  0  0
  6 17  1  0  0  0  0
  6 21  1  0  0  0  0
  6 22  1  0  0  0  0
  7  8  1  0  0  0  0
  7  9  1  0  0  0  0
  7 12  1  0  0  0  0
  7 38  1  0  0  0  0
  8 10  1  0  0  0  0
  8 39  1  0  0  0  0
  8 40  1  0  0  0  0
  9 11  1  0  0  0  0
  9 41  1  0  0  0  0
  9 42  1  0  0  0  0
 10 43  1  0  0  0  0
 10 44  1  0  0  0  0
 11 45  1  0  0  0  0
 11 46  1  0  0  0  0
 12 18  1  0  0  0  0
 12 47  1  0  0  0  0
 12 48  1  0  0  0  0
 13 14  1  0  0  0  0
 13 49  1  0  0  0  0
 13 50  1  0  0  0  0
 14 16  1  0  0  0  0
 14 51  1  0  0  0  0
 14 52  1  0  0  0  0
 15 17  1  0  0  0  0
 15 19  1  0  0  0  0
 15 20  1  0  0  0  0
 15 53  1  0  0  0  0
 16 54  1  0  0  0  0
 16 55  1  0  0  0  0
 17 56  1  0  0  0  0
 17 57  1  0  0  0  0
 18 24  2  0  0  0  0
 18 25  1  0  0  0  0
 19 21  1  0  0  0  0
 19 58  1  0  0  0  0
 19 59  1  0  0  0  0
 22 26  1  0  0  0  0
 22 60  1  0  0  0  0
 22 61  1  0  0  0  0
 23 29  2  0  0  0  0
 23 30  1  0  0  0  0
 24 27  1  0  0  0  0
 24 62  1  0  0  0  0
 25 28  2  0  0  0  0
 25 63  1  0  0  0  0
 26 32  2  0  0  0  0
 27 31  2  0  0  0  0
 27 64  1  0  0  0  0
 28 31  1  0  0  0  0
 28 65  1  0  0  0  0
 29 33  1  0  0  0  0
 29 66  1  0  0  0  0
 30 34  2  0  0  0  0
 30 67  1  0  0  0  0
 31 68  1  0  0  0  0
 32 36  1  0  0  0  0
 32 69  1  0  0  0  0
 33 35  2  0  0  0  0
 33 70  1  0  0  0  0
 34 35  1  0  0  0  0
 34 71  1  0  0  0  0
 35 72  1  0  0  0  0
 36 37  2  0  0  0  0
 36 73  1  0  0  0  0
 37 74  1  0  0  0  0
M  END
> <PUBCHEM_COMPOUND_CID>
515007
> <PUBCHEM_COMPOUND_CANONICALIZED>
1
> <PUBCHEM_CACTVS_COMPLEXITY>
725
> <PUBCHEM_CACTVS_HBOND_ACCEPTOR>
4
> <PUBCHEM_CACTVS_HBOND_DONOR>
0
> <PUBCHEM_CACTVS_ROTATABLE_BOND>
10
> <PUBCHEM_CACTVS_SUBSKEYS>
AAADcfB7MAAAAAAAAAAAAAAAAAAAAWJAAAA8YIAAAAAAAAAB0AAAHgAAAAAADQzhmAYwxIMABECIAq1S0ACCCAAlIgAIiAGObMgOJjrE9buHOSjkxhHY6YedkcIOAAAAAAAAAAAAAAAAAAAAAAAAAAAAAA==
> <PUBCHEM_IUPAC_OPENEYE_NAME>
N-[3-(4-benzyl-1-piperidyl)propyl]-1-(2-furylmethyl)-5-oxo-N-phenyl-pyrrolidine-3-carboxamide
> <PUBCHEM_IUPAC_CAS_NAME>
1-(2-furanylmethyl)-5-oxo-N-phenyl-N-[3-[4-(phenylmethyl)-1-piperidinyl]propyl]-3-pyrrolidinecarboxamide
> <PUBCHEM_IUPAC_NAME_MARKUP>
<I>N</I>-[3-(4-benzylpiperidin-1-yl)propyl]-1-(furan-2-ylmethyl)-5-oxo-<I>N</I>-phenylpyrrolidine-3-carboxamide
> <PUBCHEM_IUPAC_NAME>
N-[3-(4-benzylpiperidin-1-yl)propyl]-1-(furan-2-ylmethyl)-5-oxo-N-phenylpyrrolidine-3-carboxamide
> <PUBCHEM_IUPAC_SYSTEMATIC_NAME>
1-(furan-2-ylmethyl)-5-oxidanylidene-N-phenyl-N-[3-[4-(phenylmethyl)piperidin-1-yl]propyl]pyrrolidine-3-carboxamide
> <PUBCHEM_IUPAC_TRADITIONAL_NAME>
N-[3-(4-benzylpiperidino)propyl]-1-(2-furfuryl)-5-keto-N-phenyl-pyrrolidine-3-carboxamide
> <PUBCHEM_IUPAC_INCHI>
InChI=1S/C31H37N3O3/c35-30-22-27(23-33(30)24-29-13-7-20-37-29)31(36)34(28-11-5-2-6-12-28)17-8-16-32-18-14-26(15-19-32)21-25-9-3-1-4-10-25/h1-7,9-13,20,26-27H,8,14-19,21-24H2
> <PUBCHEM_IUPAC_INCHIKEY>
OOBDDOWBPTXISM-UHFFFAOYSA-N
> <PUBCHEM_XLOGP3_AA>
4.1
> <PUBCHEM_EXACT_MASS>
499.28349205
> <PUBCHEM_MOLECULAR_FORMULA>
C31H37N3O3
> <PUBCHEM_MOLECULAR_WEIGHT>
499.6
> <PUBCHEM_OPENEYE_CAN_SMILES>
C1CN(CCC1CC2=CC=CC=C2)CCCN(C3=CC=CC=C3)C(=O)C4CC(=O)N(C4)CC5=CC=CO5
> <PUBCHEM_OPENEYE_ISO_SMILES>
C1CN(CCC1CC2=CC=CC=C2)CCCN(C3=CC=CC=C3)C(=O)C4CC(=O)N(C4)CC5=CC=CO5
> <PUBCHEM_CACTVS_TPSA>
57
> <PUBCHEM_MONOISOTOPIC_WEIGHT>
499.28349205
> <PUBCHEM_TOTAL_CHARGE>
0
> <PUBCHEM_HEAVY_ATOM_COUNT>
37
> <PUBCHEM_ATOM_DEF_STEREO_COUNT>
0
> <PUBCHEM_ATOM_UDEF_STEREO_COUNT>
1
> <PUBCHEM_BOND_DEF_STEREO_COUNT>
0
> <PUBCHEM_BOND_UDEF_STEREO_COUNT>
0
> <PUBCHEM_ISOTOPIC_ATOM_COUNT>
0
> <PUBCHEM_COMPONENT_COUNT>
1
> <PUBCHEM_CACTVS_TAUTO_COUNT>
-1
> <PUBCHEM_COORDINATE_TYPE>
1
5
255
> <PUBCHEM_BONDANNOTATIONS>
15  20  3
18  24  8
18  25  8
23  29  8
23  30  8
24  27  8
25  28  8
26  32  8
27  31  8
28  31  8
29  33  8
3  26  8
3  37  8
30  34  8
32  36  8
33  35  8
34  35  8
36  37  8
$$$$
