515158
  -OEChem-10302200282D
 54 56  0     1  0  0  0  0  0999 V2000
    7.1962    3.8450    0.0000 S   0  0  0  0  0  0  0  0  0  0  0  0
    6.3301   -3.6550    0.0000 O   0  0  0  0  0  0  0  0  0  0  0  0
    8.1962    3.8450    0.0000 O   0  0  0  0  0  0  0  0  0  0  0  0
    6.1962    3.8450    0.0000 O   0  0  0  0  0  0  0  0  0  0  0  0
    8.0622    6.3450    0.0000 O   0  0  0  0  0  0  0  0  0  0  0  0
    8.9282    4.8450    0.0000 O   0  0  0  0  0  0  0  0  0  0  0  0
    4.5981   -3.6550    0.0000 N   0  0  0  0  0  0  0  0  0  0  0  0
    4.5981   -4.6550    0.0000 C   0  0  2  0  0  0  0  0  0  0  0  0
    6.3301   -1.6550    0.0000 C   0  0  0  0  0  0  0  0  0  0  0  0
    5.4641   -2.1550    0.0000 C   0  0  0  0  0  0  0  0  0  0  0  0
    7.1962   -0.1550    0.0000 C   0  0  0  0  0  0  0  0  0  0  0  0
    7.1962    0.8450    0.0000 C   0  0  0  0  0  0  0  0  0  0  0  0
    3.7320   -5.1550    0.0000 C   0  0  0  0  0  0  0  0  0  0  0  0
    7.1962    2.8450    0.0000 C   0  0  0  0  0  0  0  0  0  0  0  0
    6.3301   -0.6550    0.0000 C   0  0  0  0  0  0  0  0  0  0  0  0
    5.4641   -3.1550    0.0000 C   0  0  0  0  0  0  0  0  0  0  0  0
    5.4641   -5.1550    0.0000 C   0  0  0  0  0  0  0  0  0  0  0  0
    6.3301    1.3450    0.0000 C   0  0  0  0  0  0  0  0  0  0  0  0
    8.0622    1.3450    0.0000 C   0  0  0  0  0  0  0  0  0  0  0  0
    7.1962   -2.1550    0.0000 C   0  0  0  0  0  0  0  0  0  0  0  0
    6.3301    2.3450    0.0000 C   0  0  0  0  0  0  0  0  0  0  0  0
    8.0622    2.3450    0.0000 C   0  0  0  0  0  0  0  0  0  0  0  0
    8.0622   -0.6550    0.0000 C   0  0  0  0  0  0  0  0  0  0  0  0
    7.1962    4.8450    0.0000 C   0  0  0  0  0  0  0  0  0  0  0  0
    8.0622   -1.6550    0.0000 C   0  0  0  0  0  0  0  0  0  0  0  0
    2.8660   -4.6550    0.0000 C   0  0  0  0  0  0  0  0  0  0  0  0
    3.7320   -6.1550    0.0000 C   0  0  0  0  0  0  0  0  0  0  0  0
    2.0000   -5.1550    0.0000 C   0  0  0  0  0  0  0  0  0  0  0  0
    2.8660   -6.6550    0.0000 C   0  0  0  0  0  0  0  0  0  0  0  0
    2.0000   -6.1550    0.0000 C   0  0  0  0  0  0  0  0  0  0  0  0
    8.0622    5.3450    0.0000 C   0  0  0  0  0  0  0  0  0  0  0  0
    5.1350   -4.3450    0.0000 H   0  0  0  0  0  0  0  0  0  0  0  0
    5.2520   -1.5724    0.0000 H   0  0  0  0  0  0  0  0  0  0  0  0
    4.8535   -2.2627    0.0000 H   0  0  0  0  0  0  0  0  0  0  0  0
    4.0611   -3.3450    0.0000 H   0  0  0  0  0  0  0  0  0  0  0  0
    5.7932   -0.3450    0.0000 H   0  0  0  0  0  0  0  0  0  0  0  0
    5.1541   -5.6919    0.0000 H   0  0  0  0  0  0  0  0  0  0  0  0
    6.0010   -5.4650    0.0000 H   0  0  0  0  0  0  0  0  0  0  0  0
    5.7741   -4.6181    0.0000 H   0  0  0  0  0  0  0  0  0  0  0  0
    5.7932    1.0350    0.0000 H   0  0  0  0  0  0  0  0  0  0  0  0
    8.5991    1.0350    0.0000 H   0  0  0  0  0  0  0  0  0  0  0  0
    5.7932    2.6550    0.0000 H   0  0  0  0  0  0  0  0  0  0  0  0
    8.5991    2.6550    0.0000 H   0  0  0  0  0  0  0  0  0  0  0  0
    7.1962   -2.7750    0.0000 H   0  0  0  0  0  0  0  0  0  0  0  0
    8.5991   -0.3450    0.0000 H   0  0  0  0  0  0  0  0  0  0  0  0
    6.9841    5.4276    0.0000 H   0  0  0  0  0  0  0  0  0  0  0  0
    6.5856    4.7373    0.0000 H   0  0  0  0  0  0  0  0  0  0  0  0
    8.5991   -1.9650    0.0000 H   0  0  0  0  0  0  0  0  0  0  0  0
    2.8660   -4.0350    0.0000 H   0  0  0  0  0  0  0  0  0  0  0  0
    4.2690   -6.4650    0.0000 H   0  0  0  0  0  0  0  0  0  0  0  0
    1.4631   -4.8450    0.0000 H   0  0  0  0  0  0  0  0  0  0  0  0
    2.8660   -7.2750    0.0000 H   0  0  0  0  0  0  0  0  0  0  0  0
    1.4631   -6.4650    0.0000 H   0  0  0  0  0  0  0  0  0  0  0  0
    8.5991    6.6550    0.0000 H   0  0  0  0  0  0  0  0  0  0  0  0
  1  3  2  0  0  0  0
  1  4  2  0  0  0  0
  1 14  1  0  0  0  0
  1 24  1  0  0  0  0
  2 16  2  0  0  0  0
  5 31  1  0  0  0  0
  5 54  1  0  0  0  0
  6 31  2  0  0  0  0
  8  7  1  1  0  0  0
  7 16  1  0  0  0  0
  7 35  1  0  0  0  0
  8 13  1  0  0  0  0
  8 17  1  0  0  0  0
  8 32  1  0  0  0  0
  9 10  1  0  0  0  0
  9 15  2  0  0  0  0
  9 20  1  0  0  0  0
 10 16  1  0  0  0  0
 10 33  1  0  0  0  0
 10 34  1  0  0  0  0
 11 12  1  0  0  0  0
 11 15  1  0  0  0  0
 11 23  2  0  0  0  0
 12 18  2  0  0  0  0
 12 19  1  0  0  0  0
 13 26  2  0  0  0  0
 13 27  1  0  0  0  0
 14 21  2  0  0  0  0
 14 22  1  0  0  0  0
 15 36  1  0  0  0  0
 17 37  1  0  0  0  0
 17 38  1  0  0  0  0
 17 39  1  0  0  0  0
 18 21  1  0  0  0  0
 18 40  1  0  0  0  0
 19 22  2  0  0  0  0
 19 41  1  0  0  0  0
 20 25  2  0  0  0  0
 20 44  1  0  0  0  0
 21 42  1  0  0  0  0
 22 43  1  0  0  0  0
 23 25  1  0  0  0  0
 23 45  1  0  0  0  0
 24 31  1  0  0  0  0
 24 46  1  0  0  0  0
 24 47  1  0  0  0  0
 25 48  1  0  0  0  0
 26 28  1  0  0  0  0
 26 49  1  0  0  0  0
 27 29  2  0  0  0  0
 27 50  1  0  0  0  0
 28 30  2  0  0  0  0
 28 51  1  0  0  0  0
 29 30  1  0  0  0  0
 29 52  1  0  0  0  0
 30 53  1  0  0  0  0
M  END
> <PUBCHEM_COMPOUND_CID>
515158
> <PUBCHEM_COMPOUND_CANONICALIZED>
1
> <PUBCHEM_CACTVS_COMPLEXITY>
702
> <PUBCHEM_CACTVS_HBOND_ACCEPTOR>
5
> <PUBCHEM_CACTVS_HBOND_DONOR>
2
> <PUBCHEM_CACTVS_ROTATABLE_BOND>
8
> <PUBCHEM_CACTVS_SUBSKEYS>
AAADceB6OABAAAAAAAAAAAAAAAAAAAAAAAAwYMAAAAAAAAABUAAAHgQQCAAADCjF2ASyCYLAAgqIAiHSGHDCAAAgCBAIiJkIBIgIIDKglRGEIAhglgCoiAcYiMCOkAACAAAAAAAgAAQAAAAAAAAAAAAAAA==
> <PUBCHEM_IUPAC_OPENEYE_NAME>
2-[4-[3-[2-oxo-2-[[(1S)-1-phenylethyl]amino]ethyl]phenyl]phenyl]sulfonylacetic acid
> <PUBCHEM_IUPAC_CAS_NAME>
2-[4-[3-[2-oxo-2-[[(1S)-1-phenylethyl]amino]ethyl]phenyl]phenyl]sulfonylacetic acid
> <PUBCHEM_IUPAC_NAME_MARKUP>
2-[4-[3-[2-oxo-2-[[(1<I>S</I>)-1-phenylethyl]amino]ethyl]phenyl]phenyl]sulfonylacetic acid
> <PUBCHEM_IUPAC_NAME>
2-[4-[3-[2-oxo-2-[[(1S)-1-phenylethyl]amino]ethyl]phenyl]phenyl]sulfonylacetic acid
> <PUBCHEM_IUPAC_SYSTEMATIC_NAME>
2-[4-[3-[2-oxidanylidene-2-[[(1S)-1-phenylethyl]amino]ethyl]phenyl]phenyl]sulfonylethanoic acid
> <PUBCHEM_IUPAC_TRADITIONAL_NAME>
2-[4-[3-[2-keto-2-[[(1S)-1-phenylethyl]amino]ethyl]phenyl]phenyl]sulfonylacetic acid
> <PUBCHEM_IUPAC_INCHI>
InChI=1S/C24H23NO5S/c1-17(19-7-3-2-4-8-19)25-23(26)15-18-6-5-9-21(14-18)20-10-12-22(13-11-20)31(29,30)16-24(27)28/h2-14,17H,15-16H2,1H3,(H,25,26)(H,27,28)/t17-/m0/s1
> <PUBCHEM_IUPAC_INCHIKEY>
BTZDSENLZFIOIZ-KRWDZBQOSA-N
> <PUBCHEM_XLOGP3_AA>
3.5
> <PUBCHEM_EXACT_MASS>
437.12969401
> <PUBCHEM_MOLECULAR_FORMULA>
C24H23NO5S
> <PUBCHEM_MOLECULAR_WEIGHT>
437.5
> <PUBCHEM_OPENEYE_CAN_SMILES>
CC(C1=CC=CC=C1)NC(=O)CC2=CC(=CC=C2)C3=CC=C(C=C3)S(=O)(=O)CC(=O)O
> <PUBCHEM_OPENEYE_ISO_SMILES>
C[C@@H](C1=CC=CC=C1)NC(=O)CC2=CC(=CC=C2)C3=CC=C(C=C3)S(=O)(=O)CC(=O)O
> <PUBCHEM_CACTVS_TPSA>
109
> <PUBCHEM_MONOISOTOPIC_WEIGHT>
437.12969401
> <PUBCHEM_TOTAL_CHARGE>
0
> <PUBCHEM_HEAVY_ATOM_COUNT>
31
> <PUBCHEM_ATOM_DEF_STEREO_COUNT>
1
> <PUBCHEM_ATOM_UDEF_STEREO_COUNT>
0
> <PUBCHEM_BOND_DEF_STEREO_COUNT>
0
> <PUBCHEM_BOND_UDEF_STEREO_COUNT>
0
> <PUBCHEM_ISOTOPIC_ATOM_COUNT>
0
> <PUBCHEM_COMPONENT_COUNT>
1
> <PUBCHEM_CACTVS_TAUTO_COUNT>
-1
> <PUBCHEM_COORDINATE_TYPE>
1
5
255
> <PUBCHEM_BONDANNOTATIONS>
11  15  8
11  23  8
12  18  8
12  19  8
13  26  8
13  27  8
14  21  8
14  22  8
18  21  8
19  22  8
20  25  8
23  25  8
26  28  8
27  29  8
28  30  8
29  30  8
8  7  5
9  15  8
9  20  8
$$$$
