515170
  -OEChem-10302200282D
 30 32  0     1  0  0  0  0  0999 V2000
    4.6660    0.5053    0.0000 S   0  0  3  0  0  0  0  0  0  0  0  0
    4.6660   -1.4947    0.0000 O   0  0  0  0  0  0  0  0  0  0  0  0
    9.0641    0.0328    0.0000 O   0  0  0  0  0  0  0  0  0  0  0  0
    4.6660    1.5053    0.0000 O   0  0  0  0  0  0  0  0  0  0  0  0
    5.5321    0.0053    0.0000 C   0  0  0  0  0  0  0  0  0  0  0  0
    7.3321    0.0261    0.0000 C   0  0  0  0  0  0  0  0  0  0  0  0
    5.5321   -0.9947    0.0000 C   0  0  0  0  0  0  0  0  0  0  0  0
    6.4260    0.5399    0.0000 C   0  0  0  0  0  0  0  0  0  0  0  0
    8.1962    0.5294    0.0000 C   0  0  3  0  0  0  0  0  0  0  0  0
    3.8000    0.0053    0.0000 C   0  0  0  0  0  0  0  0  0  0  0  0
    3.8000   -0.9947    0.0000 C   0  0  0  0  0  0  0  0  0  0  0  0
    7.3321   -1.0156    0.0000 C   0  0  0  0  0  0  0  0  0  0  0  0
    6.4260   -1.5294    0.0000 C   0  0  0  0  0  0  0  0  0  0  0  0
    8.1923    1.5294    0.0000 C   0  0  0  0  0  0  0  0  0  0  0  0
    2.9061    0.5399    0.0000 C   0  0  0  0  0  0  0  0  0  0  0  0
    2.9061   -1.5294    0.0000 C   0  0  0  0  0  0  0  0  0  0  0  0
    2.0000    0.0261    0.0000 C   0  0  0  0  0  0  0  0  0  0  0  0
    2.0000   -1.0156    0.0000 C   0  0  0  0  0  0  0  0  0  0  0  0
    6.4188    1.1599    0.0000 H   0  0  0  0  0  0  0  0  0  0  0  0
    8.7319    0.8415    0.0000 H   0  0  0  0  0  0  0  0  0  0  0  0
    7.8678   -1.3276    0.0000 H   0  0  0  0  0  0  0  0  0  0  0  0
    6.4188   -2.1494    0.0000 H   0  0  0  0  0  0  0  0  0  0  0  0
    8.8123    1.5318    0.0000 H   0  0  0  0  0  0  0  0  0  0  0  0
    8.1899    2.1494    0.0000 H   0  0  0  0  0  0  0  0  0  0  0  0
    7.5723    1.5270    0.0000 H   0  0  0  0  0  0  0  0  0  0  0  0
    2.9132    1.1599    0.0000 H   0  0  0  0  0  0  0  0  0  0  0  0
    2.9132   -2.1494    0.0000 H   0  0  0  0  0  0  0  0  0  0  0  0
    1.4643    0.3381    0.0000 H   0  0  0  0  0  0  0  0  0  0  0  0
    1.4643   -1.3276    0.0000 H   0  0  0  0  0  0  0  0  0  0  0  0
    9.5998    0.3448    0.0000 H   0  0  0  0  0  0  0  0  0  0  0  0
  1  4  2  0  0  0  0
  1  5  1  0  0  0  0
  1 10  1  0  0  0  0
  2  7  1  0  0  0  0
  2 11  1  0  0  0  0
  3  9  1  0  0  0  0
  3 30  1  0  0  0  0
  5  7  2  0  0  0  0
  5  8  1  0  0  0  0
  6  8  2  0  0  0  0
  6  9  1  0  0  0  0
  6 12  1  0  0  0  0
  7 13  1  0  0  0  0
  8 19  1  0  0  0  0
  9 14  1  0  0  0  0
  9 20  1  0  0  0  0
 10 11  1  0  0  0  0
 10 15  2  0  0  0  0
 11 16  2  0  0  0  0
 12 13  2  0  0  0  0
 12 21  1  0  0  0  0
 13 22  1  0  0  0  0
 14 23  1  0  0  0  0
 14 24  1  0  0  0  0
 14 25  1  0  0  0  0
 15 17  1  0  0  0  0
 15 26  1  0  0  0  0
 16 18  1  0  0  0  0
 16 27  1  0  0  0  0
 17 18  2  0  0  0  0
 17 28  1  0  0  0  0
 18 29  1  0  0  0  0
M  END
> <PUBCHEM_COMPOUND_CID>
515170
> <PUBCHEM_COMPOUND_CANONICALIZED>
1
> <PUBCHEM_CACTVS_COMPLEXITY>
333
> <PUBCHEM_CACTVS_HBOND_ACCEPTOR>
4
> <PUBCHEM_CACTVS_HBOND_DONOR>
1
> <PUBCHEM_CACTVS_ROTATABLE_BOND>
1
> <PUBCHEM_CACTVS_SUBSKEYS>
AAADccBwMABAAAAAAAAAAAAAAAAAAAAAAAA0YIAAAAAAAACR0AAAGgQACAAADBSg2AIyB4AABkqMAqBSAEBDCIAkKBBIiBsGCMgMNjKkNRqCeSCkwBEouYeI7KxOIAAAgAAAIABAAAEAAABAAAAAAAAAAA==
> <PUBCHEM_IUPAC_OPENEYE_NAME>
1-(10-oxophenoxathiin-2-yl)ethanol
> <PUBCHEM_IUPAC_CAS_NAME>
1-(10-oxo-2-phenoxathiinyl)ethanol
> <PUBCHEM_IUPAC_NAME_MARKUP>
1-(10-oxophenoxathiin-2-yl)ethanol
> <PUBCHEM_IUPAC_NAME>
1-(10-oxophenoxathiin-2-yl)ethanol
> <PUBCHEM_IUPAC_SYSTEMATIC_NAME>
1-(10-oxidanylidenephenoxathiin-2-yl)ethanol
> <PUBCHEM_IUPAC_TRADITIONAL_NAME>
1-(10-ketophenoxathiin-2-yl)ethanol
> <PUBCHEM_IUPAC_INCHI>
InChI=1S/C14H12O3S/c1-9(15)10-6-7-12-14(8-10)18(16)13-5-3-2-4-11(13)17-12/h2-9,15H,1H3
> <PUBCHEM_IUPAC_INCHIKEY>
ROTMKNCHXJMWHM-UHFFFAOYSA-N
> <PUBCHEM_XLOGP3_AA>
1.8
> <PUBCHEM_EXACT_MASS>
260.05071541
> <PUBCHEM_MOLECULAR_FORMULA>
C14H12O3S
> <PUBCHEM_MOLECULAR_WEIGHT>
260.31
> <PUBCHEM_OPENEYE_CAN_SMILES>
CC(C1=CC2=C(C=C1)OC3=CC=CC=C3S2=O)O
> <PUBCHEM_OPENEYE_ISO_SMILES>
CC(C1=CC2=C(C=C1)OC3=CC=CC=C3S2=O)O
> <PUBCHEM_CACTVS_TPSA>
78.7
> <PUBCHEM_MONOISOTOPIC_WEIGHT>
260.05071541
> <PUBCHEM_TOTAL_CHARGE>
0
> <PUBCHEM_HEAVY_ATOM_COUNT>
18
> <PUBCHEM_ATOM_DEF_STEREO_COUNT>
0
> <PUBCHEM_ATOM_UDEF_STEREO_COUNT>
2
> <PUBCHEM_BOND_DEF_STEREO_COUNT>
0
> <PUBCHEM_BOND_UDEF_STEREO_COUNT>
0
> <PUBCHEM_ISOTOPIC_ATOM_COUNT>
0
> <PUBCHEM_COMPONENT_COUNT>
1
> <PUBCHEM_CACTVS_TAUTO_COUNT>
-1
> <PUBCHEM_COORDINATE_TYPE>
1
5
255
> <PUBCHEM_BONDANNOTATIONS>
1  10  3
10  11  8
10  15  8
11  16  8
12  13  8
15  17  8
16  18  8
17  18  8
9  3  3
5  7  8
5  8  8
6  12  8
6  8  8
7  13  8
$$$$
