515194
  -OEChem-10302200282D
134137  0     1  0  0  0  0  0999 V2000
   11.1459   13.1576    0.0000 S   0  0  0  0  0  0  0  0  0  0  0  0
    7.5127   11.7667    0.0000 S   0  0  0  0  0  0  0  0  0  0  0  0
    8.4324    2.6200    0.0000 S   0  0  0  0  0  0  0  0  0  0  0  0
    1.4030   13.3600    0.0000 O   0  0  0  0  0  0  0  0  0  0  0  0
    4.8671   13.3600    0.0000 O   0  0  0  0  0  0  0  0  0  0  0  0
    4.8671   11.3600    0.0000 O   0  0  0  0  0  0  0  0  0  0  0  0
    4.0010   12.8600    0.0000 O   0  0  0  0  0  0  0  0  0  0  0  0
    7.4651   15.8600    0.0000 O   0  0  0  0  0  0  0  0  0  0  0  0
   10.1645    3.6200    0.0000 O   0  0  0  0  0  0  0  0  0  0  0  0
   11.8965    3.6200    0.0000 O   0  0  0  0  0  0  0  0  0  0  0  0
    4.0010   14.8600    0.0000 N   0  0  0  0  0  0  0  0  0  0  0  0
    3.1350   11.3600    0.0000 N   0  0  0  0  0  0  0  0  0  0  0  0
    6.5991   14.3600    0.0000 N   0  0  0  0  0  0  0  0  0  0  0  0
    8.3312   14.3600    0.0000 N   0  0  0  0  0  0  0  0  0  0  0  0
   10.9768   14.7667    0.0000 N   0  0  0  0  0  0  0  0  0  0  0  0
    7.6818   10.1576    0.0000 N   0  0  0  0  0  0  0  0  0  0  0  0
    3.1350   14.3600    0.0000 C   0  0  2  0  0  0  0  0  0  0  0  0
    3.1350   13.3600    0.0000 C   0  0  0  0  0  0  0  0  0  0  0  0
    2.2690   12.8600    0.0000 C   0  0  1  0  0  0  0  0  0  0  0  0
    2.2690   11.8600    0.0000 C   0  0  2  0  0  0  0  0  0  0  0  0
    2.2690   14.8600    0.0000 C   0  0  0  0  0  0  0  0  0  0  0  0
    1.4030   11.3600    0.0000 C   0  0  0  0  0  0  0  0  0  0  0  0
    5.7331   14.8600    0.0000 C   0  0  2  0  0  0  0  0  0  0  0  0
    4.8671   14.3600    0.0000 C   0  0  0  0  0  0  0  0  0  0  0  0
    5.7331   15.8600    0.0000 C   0  0  0  0  0  0  0  0  0  0  0  0
    2.2690   15.8600    0.0000 C   0  0  0  0  0  0  0  0  0  0  0  0
    1.4030   10.3600    0.0000 C   0  0  0  0  0  0  0  0  0  0  0  0
    6.5991   16.3600    0.0000 C   0  0  0  0  0  0  0  0  0  0  0  0
    4.8671   16.3600    0.0000 C   0  0  0  0  0  0  0  0  0  0  0  0
    1.4030   16.3600    0.0000 C   0  0  0  0  0  0  0  0  0  0  0  0
    3.1350   16.3600    0.0000 C   0  0  0  0  0  0  0  0  0  0  0  0
    4.0010   11.8600    0.0000 C   0  0  0  0  0  0  0  0  0  0  0  0
    2.2690    9.8600    0.0000 C   0  0  0  0  0  0  0  0  0  0  0  0
    0.5369    9.8600    0.0000 C   0  0  0  0  0  0  0  0  0  0  0  0
    7.4651   14.8600    0.0000 C   0  0  0  0  0  0  0  0  0  0  0  0
    1.4030   17.3600    0.0000 C   0  0  0  0  0  0  0  0  0  0  0  0
    3.1350   17.3600    0.0000 C   0  0  0  0  0  0  0  0  0  0  0  0
    2.2690    8.8600    0.0000 C   0  0  0  0  0  0  0  0  0  0  0  0
    0.5369    8.8600    0.0000 C   0  0  0  0  0  0  0  0  0  0  0  0
    2.2690   17.8600    0.0000 C   0  0  0  0  0  0  0  0  0  0  0  0
    1.4030    8.3600    0.0000 C   0  0  0  0  0  0  0  0  0  0  0  0
    9.1972   14.8600    0.0000 C   0  0  0  0  0  0  0  0  0  0  0  0
    5.7331   11.8600    0.0000 C   0  0  0  0  0  0  0  0  0  0  0  0
    8.3312   13.3600    0.0000 C   0  0  0  0  0  0  0  0  0  0  0  0
   10.0632   14.3600    0.0000 C   0  0  0  0  0  0  0  0  0  0  0  0
    6.5991   11.3600    0.0000 C   0  0  0  0  0  0  0  0  0  0  0  0
   10.1677   13.3655    0.0000 C   0  0  0  0  0  0  0  0  0  0  0  0
   11.6459   14.0236    0.0000 C   0  0  0  0  0  0  0  0  0  0  0  0
   12.6404   14.1281    0.0000 C   0  0  0  0  0  0  0  0  0  0  0  0
    6.7036   10.3655    0.0000 C   0  0  0  0  0  0  0  0  0  0  0  0
   13.2282   13.3191    0.0000 C   0  0  0  0  0  0  0  0  0  0  0  0
   13.0471   15.0417    0.0000 C   0  0  0  0  0  0  0  0  0  0  0  0
    8.1818   11.0236    0.0000 C   0  0  0  0  0  0  0  0  0  0  0  0
    4.1023    3.1200    0.0000 C   0  0  0  0  0  0  0  0  0  0  0  0
    3.2362    3.6200    0.0000 C   0  0  0  0  0  0  0  0  0  0  0  0
    4.9683    3.6200    0.0000 C   0  0  0  0  0  0  0  0  0  0  0  0
    2.3702    3.1200    0.0000 C   0  0  0  0  0  0  0  0  0  0  0  0
    5.8343    3.1200    0.0000 C   0  0  0  0  0  0  0  0  0  0  0  0
    6.7004    2.6200    0.0000 C   0  0  0  0  0  0  0  0  0  0  0  0
    7.5664    2.1200    0.0000 C   0  0  0  0  0  0  0  0  0  0  0  0
    9.2984    2.1200    0.0000 C   0  0  0  0  0  0  0  0  0  0  0  0
   10.1645    2.6200    0.0000 C   0  0  0  0  0  0  0  0  0  0  0  0
    9.2984    1.1200    0.0000 C   0  0  0  0  0  0  0  0  0  0  0  0
   11.0305    2.1200    0.0000 C   0  0  0  0  0  0  0  0  0  0  0  0
   10.1645    0.6200    0.0000 C   0  0  0  0  0  0  0  0  0  0  0  0
   11.0305    1.1200    0.0000 C   0  0  0  0  0  0  0  0  0  0  0  0
   11.0305    4.1200    0.0000 C   0  0  0  0  0  0  0  0  0  0  0  0
   11.0305    5.1200    0.0000 C   0  0  0  0  0  0  0  0  0  0  0  0
    3.1350   14.9800    0.0000 H   0  0  0  0  0  0  0  0  0  0  0  0
    3.3471   12.7774    0.0000 H   0  0  0  0  0  0  0  0  0  0  0  0
    3.7456   13.4677    0.0000 H   0  0  0  0  0  0  0  0  0  0  0  0
    2.2690   13.4800    0.0000 H   0  0  0  0  0  0  0  0  0  0  0  0
    2.8059   12.1700    0.0000 H   0  0  0  0  0  0  0  0  0  0  0  0
    1.6584   14.9677    0.0000 H   0  0  0  0  0  0  0  0  0  0  0  0
    2.0569   14.2774    0.0000 H   0  0  0  0  0  0  0  0  0  0  0  0
    1.1909   11.9426    0.0000 H   0  0  0  0  0  0  0  0  0  0  0  0
    0.7924   11.2523    0.0000 H   0  0  0  0  0  0  0  0  0  0  0  0
    4.0010   15.4800    0.0000 H   0  0  0  0  0  0  0  0  0  0  0  0
    6.2700   15.1700    0.0000 H   0  0  0  0  0  0  0  0  0  0  0  0
    5.1962   15.5500    0.0000 H   0  0  0  0  0  0  0  0  0  0  0  0
    3.1350   10.7400    0.0000 H   0  0  0  0  0  0  0  0  0  0  0  0
    1.4030   13.9800    0.0000 H   0  0  0  0  0  0  0  0  0  0  0  0
    6.5991   13.7400    0.0000 H   0  0  0  0  0  0  0  0  0  0  0  0
    6.9091   15.8231    0.0000 H   0  0  0  0  0  0  0  0  0  0  0  0
    7.1360   16.6700    0.0000 H   0  0  0  0  0  0  0  0  0  0  0  0
    6.2891   16.8969    0.0000 H   0  0  0  0  0  0  0  0  0  0  0  0
    5.1771   16.8969    0.0000 H   0  0  0  0  0  0  0  0  0  0  0  0
    4.3301   16.6700    0.0000 H   0  0  0  0  0  0  0  0  0  0  0  0
    4.5571   15.8231    0.0000 H   0  0  0  0  0  0  0  0  0  0  0  0
    0.8660   16.0500    0.0000 H   0  0  0  0  0  0  0  0  0  0  0  0
    3.6720   16.0500    0.0000 H   0  0  0  0  0  0  0  0  0  0  0  0
    2.8059   10.1700    0.0000 H   0  0  0  0  0  0  0  0  0  0  0  0
    0.0000   10.1700    0.0000 H   0  0  0  0  0  0  0  0  0  0  0  0
    0.8660   17.6700    0.0000 H   0  0  0  0  0  0  0  0  0  0  0  0
    3.6720   17.6700    0.0000 H   0  0  0  0  0  0  0  0  0  0  0  0
    2.8059    8.5500    0.0000 H   0  0  0  0  0  0  0  0  0  0  0  0
    0.0000    8.5500    0.0000 H   0  0  0  0  0  0  0  0  0  0  0  0
    2.2690   18.4800    0.0000 H   0  0  0  0  0  0  0  0  0  0  0  0
    1.4030    7.7400    0.0000 H   0  0  0  0  0  0  0  0  0  0  0  0
    9.5957   15.3349    0.0000 H   0  0  0  0  0  0  0  0  0  0  0  0
    8.7987   15.3349    0.0000 H   0  0  0  0  0  0  0  0  0  0  0  0
    6.1316   12.3349    0.0000 H   0  0  0  0  0  0  0  0  0  0  0  0
    5.3346   12.3349    0.0000 H   0  0  0  0  0  0  0  0  0  0  0  0
    7.7112   13.3600    0.0000 H   0  0  0  0  0  0  0  0  0  0  0  0
    8.3312   12.7400    0.0000 H   0  0  0  0  0  0  0  0  0  0  0  0
    8.9512   13.3600    0.0000 H   0  0  0  0  0  0  0  0  0  0  0  0
    9.7070   12.9506    0.0000 H   0  0  0  0  0  0  0  0  0  0  0  0
   12.3882   13.5617    0.0000 H   0  0  0  0  0  0  0  0  0  0  0  0
    6.2429    9.9506    0.0000 H   0  0  0  0  0  0  0  0  0  0  0  0
   12.7266   12.9547    0.0000 H   0  0  0  0  0  0  0  0  0  0  0  0
   13.5926   12.8175    0.0000 H   0  0  0  0  0  0  0  0  0  0  0  0
   13.7298   13.6835    0.0000 H   0  0  0  0  0  0  0  0  0  0  0  0
   13.6135   14.7895    0.0000 H   0  0  0  0  0  0  0  0  0  0  0  0
   13.2993   15.6081    0.0000 H   0  0  0  0  0  0  0  0  0  0  0  0
   12.4808   15.2938    0.0000 H   0  0  0  0  0  0  0  0  0  0  0  0
    8.7984   11.0884    0.0000 H   0  0  0  0  0  0  0  0  0  0  0  0
    3.7038    2.6450    0.0000 H   0  0  0  0  0  0  0  0  0  0  0  0
    4.5008    2.6450    0.0000 H   0  0  0  0  0  0  0  0  0  0  0  0
    3.6348    4.0950    0.0000 H   0  0  0  0  0  0  0  0  0  0  0  0
    2.8377    4.0950    0.0000 H   0  0  0  0  0  0  0  0  0  0  0  0
    5.3668    4.0950    0.0000 H   0  0  0  0  0  0  0  0  0  0  0  0
    4.5698    4.0950    0.0000 H   0  0  0  0  0  0  0  0  0  0  0  0
    2.0602    3.6569    0.0000 H   0  0  0  0  0  0  0  0  0  0  0  0
    1.8333    2.8100    0.0000 H   0  0  0  0  0  0  0  0  0  0  0  0
    2.6802    2.5831    0.0000 H   0  0  0  0  0  0  0  0  0  0  0  0
    7.1678    1.6450    0.0000 H   0  0  0  0  0  0  0  0  0  0  0  0
    7.9649    1.6450    0.0000 H   0  0  0  0  0  0  0  0  0  0  0  0
    8.7615    0.8100    0.0000 H   0  0  0  0  0  0  0  0  0  0  0  0
   11.5674    2.4300    0.0000 H   0  0  0  0  0  0  0  0  0  0  0  0
   10.1645    0.0000    0.0000 H   0  0  0  0  0  0  0  0  0  0  0  0
   11.5674    0.8100    0.0000 H   0  0  0  0  0  0  0  0  0  0  0  0
   11.6505    5.1200    0.0000 H   0  0  0  0  0  0  0  0  0  0  0  0
   11.0305    5.7400    0.0000 H   0  0  0  0  0  0  0  0  0  0  0  0
   10.4105    5.1200    0.0000 H   0  0  0  0  0  0  0  0  0  0  0  0
  1 47  1  0  0  0  0
  1 48  1  0  0  0  0
  2 46  1  0  0  0  0
  2 53  1  0  0  0  0
  3 60  1  0  0  0  0
  3 61  1  0  0  0  0
 19  4  1  1  0  0  0
  4 82  1  0  0  0  0
  5 24  2  0  0  0  0
  6 32  1  0  0  0  0
  6 43  1  0  0  0  0
  7 32  2  0  0  0  0
  8 35  2  0  0  0  0
  9 62  1  0  0  0  0
  9 67  1  0  0  0  0
 10 67  2  0  0  0  0
 17 11  1  6  0  0  0
 11 24  1  0  0  0  0
 11 78  1  0  0  0  0
 20 12  1  1  0  0  0
 12 32  1  0  0  0  0
 12 81  1  0  0  0  0
 23 13  1  6  0  0  0
 13 35  1  0  0  0  0
 13 83  1  0  0  0  0
 14 35  1  0  0  0  0
 14 42  1  0  0  0  0
 14 44  1  0  0  0  0
 15 45  1  0  0  0  0
 15 48  2  0  0  0  0
 16 50  1  0  0  0  0
 16 53  2  0  0  0  0
 17 18  1  0  0  0  0
 17 21  1  0  0  0  0
 17 69  1  0  0  0  0
 18 19  1  0  0  0  0
 18 70  1  0  0  0  0
 18 71  1  0  0  0  0
 19 20  1  0  0  0  0
 19 72  1  0  0  0  0
 20 22  1  0  0  0  0
 20 73  1  0  0  0  0
 21 26  1  0  0  0  0
 21 74  1  0  0  0  0
 21 75  1  0  0  0  0
 22 27  1  0  0  0  0
 22 76  1  0  0  0  0
 22 77  1  0  0  0  0
 23 24  1  0  0  0  0
 23 25  1  0  0  0  0
 23 79  1  0  0  0  0
 25 28  1  0  0  0  0
 25 29  1  0  0  0  0
 25 80  1  0  0  0  0
 26 30  2  0  0  0  0
 26 31  1  0  0  0  0
 27 33  2  0  0  0  0
 27 34  1  0  0  0  0
 28 84  1  0  0  0  0
 28 85  1  0  0  0  0
 28 86  1  0  0  0  0
 29 87  1  0  0  0  0
 29 88  1  0  0  0  0
 29 89  1  0  0  0  0
 30 36  1  0  0  0  0
 30 90  1  0  0  0  0
 31 37  2  0  0  0  0
 31 91  1  0  0  0  0
 33 38  1  0  0  0  0
 33 92  1  0  0  0  0
 34 39  2  0  0  0  0
 34 93  1  0  0  0  0
 36 40  2  0  0  0  0
 36 94  1  0  0  0  0
 37 40  1  0  0  0  0
 37 95  1  0  0  0  0
 38 41  2  0  0  0  0
 38 96  1  0  0  0  0
 39 41  1  0  0  0  0
 39 97  1  0  0  0  0
 40 98  1  0  0  0  0
 41 99  1  0  0  0  0
 42 45  1  0  0  0  0
 42100  1  0  0  0  0
 42101  1  0  0  0  0
 43 46  1  0  0  0  0
 43102  1  0  0  0  0
 43103  1  0  0  0  0
 44104  1  0  0  0  0
 44105  1  0  0  0  0
 44106  1  0  0  0  0
 45 47  2  0  0  0  0
 46 50  2  0  0  0  0
 47107  1  0  0  0  0
 48 49  1  0  0  0  0
 49 51  1  0  0  0  0
 49 52  1  0  0  0  0
 49108  1  0  0  0  0
 50109  1  0  0  0  0
 51110  1  0  0  0  0
 51111  1  0  0  0  0
 51112  1  0  0  0  0
 52113  1  0  0  0  0
 52114  1  0  0  0  0
 52115  1  0  0  0  0
 53116  1  0  0  0  0
 54 55  1  0  0  0  0
 54 56  1  0  0  0  0
 54117  1  0  0  0  0
 54118  1  0  0  0  0
 55 57  1  0  0  0  0
 55119  1  0  0  0  0
 55120  1  0  0  0  0
 56 58  1  0  0  0  0
 56121  1  0  0  0  0
 56122  1  0  0  0  0
 57123  1  0  0  0  0
 57124  1  0  0  0  0
 57125  1  0  0  0  0
 58 59  3  0  0  0  0
 59 60  1  0  0  0  0
 60126  1  0  0  0  0
 60127  1  0  0  0  0
 61 62  1  0  0  0  0
 61 63  2  0  0  0  0
 62 64  2  0  0  0  0
 63 65  1  0  0  0  0
 63128  1  0  0  0  0
 64 66  1  0  0  0  0
 64129  1  0  0  0  0
 65 66  2  0  0  0  0
 65130  1  0  0  0  0
 66131  1  0  0  0  0
 67 68  1  0  0  0  0
 68132  1  0  0  0  0
 68133  1  0  0  0  0
 68134  1  0  0  0  0
M  END
> <PUBCHEM_COMPOUND_CID>
515194
> <PUBCHEM_COMPOUND_CANONICALIZED>
1
> <PUBCHEM_CACTVS_COMPLEXITY>
1360
> <PUBCHEM_CACTVS_HBOND_ACCEPTOR>
12
> <PUBCHEM_CACTVS_HBOND_DONOR>
4
> <PUBCHEM_CACTVS_ROTATABLE_BOND>
24
> <PUBCHEM_CACTVS_SUBSKEYS>
AAADcfB/uABgAAAAAAAAAAAAAAAAAWLAAAAwYMAAAAAAAAAB9AAAHgQQCAAADTzl3ga/j5PIFgjsEzX3XAiC+KBxKjhI2J++bImOdjLksTueeiiu1hP4qAeQwPAOAAAAAAAAIAAAAAAAAABAAAAAAAAAAA==
> <PUBCHEM_IUPAC_OPENEYE_NAME>
(2-hept-2-ynylsulfanylphenyl) acetate;thiazol-5-ylmethyl N-[(1S,2S,4S)-1-benzyl-2-hydroxy-4-[[(2S)-2-[[(2-isopropylthiazol-4-yl)methyl-methyl-carbamoyl]amino]-3-methyl-butanoyl]amino]-5-phenyl-pentyl]carbamate
> <PUBCHEM_IUPAC_CAS_NAME>
acetic acid [2-(hept-2-ynylthio)phenyl] ester;N-[(2S,3S,5S)-3-hydroxy-5-[[(2S)-3-methyl-2-[[[methyl-[(2-propan-2-yl-4-thiazolyl)methyl]amino]-oxomethyl]amino]-1-oxobutyl]amino]-1,6-diphenylhexan-2-yl]carbamic acid 5-thiazolylmethyl ester
> <PUBCHEM_IUPAC_NAME_MARKUP>
(2-hept-2-ynylsulfanylphenyl) acetate;1,3-thiazol-5-ylmethyl <I>N</I>-[(2<I>S</I>,3<I>S</I>,5<I>S</I>)-3-hydroxy-5-[[(2<I>S</I>)-3-methyl-2-[[methyl-[(2-propan-2-yl-1,3-thiazol-4-yl)methyl]carbamoyl]amino]butanoyl]amino]-1,6-diphenylhexan-2-yl]carbamate
> <PUBCHEM_IUPAC_NAME>
(2-hept-2-ynylsulfanylphenyl) acetate;1,3-thiazol-5-ylmethyl N-[(2S,3S,5S)-3-hydroxy-5-[[(2S)-3-methyl-2-[[methyl-[(2-propan-2-yl-1,3-thiazol-4-yl)methyl]carbamoyl]amino]butanoyl]amino]-1,6-diphenylhexan-2-yl]carbamate
> <PUBCHEM_IUPAC_SYSTEMATIC_NAME>
(2-hept-2-ynylsulfanylphenyl) ethanoate;1,3-thiazol-5-ylmethyl N-[(2S,3S,5S)-5-[[(2S)-3-methyl-2-[[methyl-[(2-propan-2-yl-1,3-thiazol-4-yl)methyl]carbamoyl]amino]butanoyl]amino]-3-oxidanyl-1,6-diphenyl-hexan-2-yl]carbamate
> <PUBCHEM_IUPAC_TRADITIONAL_NAME>
acetic acid [2-(hept-2-ynylthio)phenyl] ester;N-[(1S,2S,4S)-1-benzyl-2-hydroxy-4-[[(2S)-2-[[(2-isopropylthiazol-4-yl)methyl-methyl-carbamoyl]amino]-3-methyl-butanoyl]amino]-5-phenyl-pentyl]carbamic acid thiazol-5-ylmethyl ester
> <PUBCHEM_IUPAC_INCHI>
InChI=1S/C37H48N6O5S2.C15H18O2S/c1-24(2)33(42-36(46)43(5)20-29-22-49-35(40-29)25(3)4)34(45)39-28(16-26-12-8-6-9-13-26)18-32(44)31(17-27-14-10-7-11-15-27)41-37(47)48-21-30-19-38-23-50-30;1-3-4-5-6-9-12-18-15-11-8-7-10-14(15)17-13(2)16/h6-15,19,22-25,28,31-33,44H,16-18,20-21H2,1-5H3,(H,39,45)(H,41,47)(H,42,46);7-8,10-11H,3-5,12H2,1-2H3/t28-,31-,32-,33-;/m0./s1
> <PUBCHEM_IUPAC_INCHIKEY>
ZBGXQFHVXXEPEP-BWOCORGPSA-N
> <PUBCHEM_EXACT_MASS>
982.41551199
> <PUBCHEM_MOLECULAR_FORMULA>
C52H66N6O7S3
> <PUBCHEM_MOLECULAR_WEIGHT>
983.3
> <PUBCHEM_OPENEYE_CAN_SMILES>
CCCCC#CCSC1=CC=CC=C1OC(=O)C.CC(C)C1=NC(=CS1)CN(C)C(=O)NC(C(C)C)C(=O)NC(CC2=CC=CC=C2)CC(C(CC3=CC=CC=C3)NC(=O)OCC4=CN=CS4)O
> <PUBCHEM_OPENEYE_ISO_SMILES>
CCCCC#CCSC1=CC=CC=C1OC(=O)C.CC(C)C1=NC(=CS1)CN(C)C(=O)N[C@@H](C(C)C)C(=O)N[C@@H](CC2=CC=CC=C2)C[C@@H]([C@H](CC3=CC=CC=C3)NC(=O)OCC4=CN=CS4)O
> <PUBCHEM_CACTVS_TPSA>
254
> <PUBCHEM_MONOISOTOPIC_WEIGHT>
982.41551199
> <PUBCHEM_TOTAL_CHARGE>
0
> <PUBCHEM_HEAVY_ATOM_COUNT>
68
> <PUBCHEM_ATOM_DEF_STEREO_COUNT>
4
> <PUBCHEM_ATOM_UDEF_STEREO_COUNT>
0
> <PUBCHEM_BOND_DEF_STEREO_COUNT>
0
> <PUBCHEM_BOND_UDEF_STEREO_COUNT>
0
> <PUBCHEM_ISOTOPIC_ATOM_COUNT>
0
> <PUBCHEM_COMPONENT_COUNT>
2
> <PUBCHEM_CACTVS_TAUTO_COUNT>
-1
> <PUBCHEM_COORDINATE_TYPE>
1
5
255
> <PUBCHEM_BONDANNOTATIONS>
1  47  8
1  48  8
17  11  6
20  12  5
23  13  6
15  45  8
15  48  8
16  50  8
16  53  8
2  46  8
2  53  8
26  30  8
26  31  8
27  33  8
27  34  8
30  36  8
31  37  8
33  38  8
34  39  8
36  40  8
37  40  8
38  41  8
39  41  8
19  4  5
45  47  8
46  50  8
61  62  8
61  63  8
62  64  8
63  65  8
64  66  8
65  66  8
$$$$
