515171
  -OEChem-10302200282D
 31 33  0     1  0  0  0  0  0999 V2000
    4.6660    0.5053    0.0000 S   0  0  0  0  0  0  0  0  0  0  0  0
    4.6660   -1.4947    0.0000 O   0  0  0  0  0  0  0  0  0  0  0  0
    5.1660    1.3713    0.0000 O   0  0  0  0  0  0  0  0  0  0  0  0
    4.1660    1.3713    0.0000 O   0  0  0  0  0  0  0  0  0  0  0  0
    9.0641    0.0328    0.0000 O   0  0  0  0  0  0  0  0  0  0  0  0
    5.5321    0.0053    0.0000 C   0  0  0  0  0  0  0  0  0  0  0  0
    3.8000    0.0053    0.0000 C   0  0  0  0  0  0  0  0  0  0  0  0
    5.5321   -0.9947    0.0000 C   0  0  0  0  0  0  0  0  0  0  0  0
    7.3321    0.0261    0.0000 C   0  0  0  0  0  0  0  0  0  0  0  0
    6.4260    0.5399    0.0000 C   0  0  0  0  0  0  0  0  0  0  0  0
    3.8000   -0.9947    0.0000 C   0  0  0  0  0  0  0  0  0  0  0  0
    8.1962    0.5294    0.0000 C   0  0  3  0  0  0  0  0  0  0  0  0
    6.4260   -1.5294    0.0000 C   0  0  0  0  0  0  0  0  0  0  0  0
    7.3321   -1.0156    0.0000 C   0  0  0  0  0  0  0  0  0  0  0  0
    2.9061    0.5399    0.0000 C   0  0  0  0  0  0  0  0  0  0  0  0
    2.9061   -1.5294    0.0000 C   0  0  0  0  0  0  0  0  0  0  0  0
    8.1923    1.5294    0.0000 C   0  0  0  0  0  0  0  0  0  0  0  0
    2.0000    0.0261    0.0000 C   0  0  0  0  0  0  0  0  0  0  0  0
    2.0000   -1.0156    0.0000 C   0  0  0  0  0  0  0  0  0  0  0  0
    6.4188    1.1599    0.0000 H   0  0  0  0  0  0  0  0  0  0  0  0
    8.7319    0.8415    0.0000 H   0  0  0  0  0  0  0  0  0  0  0  0
    6.4188   -2.1494    0.0000 H   0  0  0  0  0  0  0  0  0  0  0  0
    7.8678   -1.3276    0.0000 H   0  0  0  0  0  0  0  0  0  0  0  0
    2.9132    1.1599    0.0000 H   0  0  0  0  0  0  0  0  0  0  0  0
    2.9132   -2.1494    0.0000 H   0  0  0  0  0  0  0  0  0  0  0  0
    8.8123    1.5318    0.0000 H   0  0  0  0  0  0  0  0  0  0  0  0
    8.1899    2.1494    0.0000 H   0  0  0  0  0  0  0  0  0  0  0  0
    7.5723    1.5270    0.0000 H   0  0  0  0  0  0  0  0  0  0  0  0
    1.4643    0.3381    0.0000 H   0  0  0  0  0  0  0  0  0  0  0  0
    1.4643   -1.3276    0.0000 H   0  0  0  0  0  0  0  0  0  0  0  0
    9.5998    0.3448    0.0000 H   0  0  0  0  0  0  0  0  0  0  0  0
  1  3  2  0  0  0  0
  1  4  2  0  0  0  0
  1  6  1  0  0  0  0
  1  7  1  0  0  0  0
  2  8  1  0  0  0  0
  2 11  1  0  0  0  0
  5 12  1  0  0  0  0
  5 31  1  0  0  0  0
  6  8  2  0  0  0  0
  6 10  1  0  0  0  0
  7 11  1  0  0  0  0
  7 15  2  0  0  0  0
  8 13  1  0  0  0  0
  9 10  2  0  0  0  0
  9 12  1  0  0  0  0
  9 14  1  0  0  0  0
 10 20  1  0  0  0  0
 11 16  2  0  0  0  0
 12 17  1  0  0  0  0
 12 21  1  0  0  0  0
 13 14  2  0  0  0  0
 13 22  1  0  0  0  0
 14 23  1  0  0  0  0
 15 18  1  0  0  0  0
 15 24  1  0  0  0  0
 16 19  1  0  0  0  0
 16 25  1  0  0  0  0
 17 26  1  0  0  0  0
 17 27  1  0  0  0  0
 17 28  1  0  0  0  0
 18 19  2  0  0  0  0
 18 29  1  0  0  0  0
 19 30  1  0  0  0  0
M  END
> <PUBCHEM_COMPOUND_CID>
515171
> <PUBCHEM_COMPOUND_CANONICALIZED>
1
> <PUBCHEM_CACTVS_COMPLEXITY>
427
> <PUBCHEM_CACTVS_HBOND_ACCEPTOR>
4
> <PUBCHEM_CACTVS_HBOND_DONOR>
1
> <PUBCHEM_CACTVS_ROTATABLE_BOND>
1
> <PUBCHEM_CACTVS_SUBSKEYS>
AAADccBwOABAAAAAAAAAAAAAAAAAAAAAAAA0YIAAAAAAAACRQAAAGgQACAAADBSg2AIyB4AABgqAAiBCAHBCCAAgKBAIiBoGCIgMNiKkMRqCeCCkwBEouAeA4KwOIAAAgAAAIABAAAEAAABAAAAAAAAAAA==
> <PUBCHEM_IUPAC_OPENEYE_NAME>
1-(10,10-dioxophenoxathiin-2-yl)ethanol
> <PUBCHEM_IUPAC_CAS_NAME>
1-(10,10-dioxo-2-phenoxathiinyl)ethanol
> <PUBCHEM_IUPAC_NAME_MARKUP>
1-(10,10-dioxophenoxathiin-2-yl)ethanol
> <PUBCHEM_IUPAC_NAME>
1-(10,10-dioxophenoxathiin-2-yl)ethanol
> <PUBCHEM_IUPAC_SYSTEMATIC_NAME>
1-[10,10-bis(oxidanylidene)phenoxathiin-2-yl]ethanol
> <PUBCHEM_IUPAC_TRADITIONAL_NAME>
1-(10,10-diketophenoxathiin-2-yl)ethanol
> <PUBCHEM_IUPAC_INCHI>
InChI=1S/C14H12O4S/c1-9(15)10-6-7-12-14(8-10)19(16,17)13-5-3-2-4-11(13)18-12/h2-9,15H,1H3
> <PUBCHEM_IUPAC_INCHIKEY>
CNBXNOMIYWIOAD-UHFFFAOYSA-N
> <PUBCHEM_XLOGP3_AA>
1.8
> <PUBCHEM_EXACT_MASS>
276.04563003
> <PUBCHEM_MOLECULAR_FORMULA>
C14H12O4S
> <PUBCHEM_MOLECULAR_WEIGHT>
276.31
> <PUBCHEM_OPENEYE_CAN_SMILES>
CC(C1=CC2=C(C=C1)OC3=CC=CC=C3S2(=O)=O)O
> <PUBCHEM_OPENEYE_ISO_SMILES>
CC(C1=CC2=C(C=C1)OC3=CC=CC=C3S2(=O)=O)O
> <PUBCHEM_CACTVS_TPSA>
72
> <PUBCHEM_MONOISOTOPIC_WEIGHT>
276.04563003
> <PUBCHEM_TOTAL_CHARGE>
0
> <PUBCHEM_HEAVY_ATOM_COUNT>
19
> <PUBCHEM_ATOM_DEF_STEREO_COUNT>
0
> <PUBCHEM_ATOM_UDEF_STEREO_COUNT>
1
> <PUBCHEM_BOND_DEF_STEREO_COUNT>
0
> <PUBCHEM_BOND_UDEF_STEREO_COUNT>
0
> <PUBCHEM_ISOTOPIC_ATOM_COUNT>
0
> <PUBCHEM_COMPONENT_COUNT>
1
> <PUBCHEM_CACTVS_TAUTO_COUNT>
-1
> <PUBCHEM_COORDINATE_TYPE>
1
5
255
> <PUBCHEM_BONDANNOTATIONS>
11  16  8
13  14  8
15  18  8
16  19  8
18  19  8
12  5  3
6  10  8
6  8  8
7  11  8
7  15  8
8  13  8
9  10  8
9  14  8
$$$$
