515185
  -OEChem-10302200282D
 32 34  0     1  0  0  0  0  0999 V2000
    4.6660    0.5053    0.0000 S   0  0  0  0  0  0  0  0  0  0  0  0
    4.6660   -1.4947    0.0000 O   0  0  0  0  0  0  0  0  0  0  0  0
    9.0641    0.0328    0.0000 O   0  0  0  0  0  0  0  0  0  0  0  0
    7.3321    0.0261    0.0000 C   0  0  0  0  0  0  0  0  0  0  0  0
    8.1962    0.5294    0.0000 C   0  0  3  0  0  0  0  0  0  0  0  0
    5.5321    0.0053    0.0000 C   0  0  0  0  0  0  0  0  0  0  0  0
    6.4260    0.5399    0.0000 C   0  0  0  0  0  0  0  0  0  0  0  0
    5.5321   -0.9947    0.0000 C   0  0  0  0  0  0  0  0  0  0  0  0
    7.3321   -1.0156    0.0000 C   0  0  0  0  0  0  0  0  0  0  0  0
    6.4260   -1.5294    0.0000 C   0  0  0  0  0  0  0  0  0  0  0  0
    8.1923    1.5294    0.0000 C   0  0  0  0  0  0  0  0  0  0  0  0
    3.8000    0.0053    0.0000 C   0  0  0  0  0  0  0  0  0  0  0  0
    3.8000   -0.9947    0.0000 C   0  0  0  0  0  0  0  0  0  0  0  0
    2.9061    0.5399    0.0000 C   0  0  0  0  0  0  0  0  0  0  0  0
    2.9061   -1.5294    0.0000 C   0  0  0  0  0  0  0  0  0  0  0  0
    2.0000    0.0261    0.0000 C   0  0  0  0  0  0  0  0  0  0  0  0
    2.0000   -1.0156    0.0000 C   0  0  0  0  0  0  0  0  0  0  0  0
    9.9282    0.5361    0.0000 C   0  0  0  0  0  0  0  0  0  0  0  0
    8.7319    0.8415    0.0000 H   0  0  0  0  0  0  0  0  0  0  0  0
    6.4188    1.1599    0.0000 H   0  0  0  0  0  0  0  0  0  0  0  0
    7.8678   -1.3276    0.0000 H   0  0  0  0  0  0  0  0  0  0  0  0
    6.4188   -2.1494    0.0000 H   0  0  0  0  0  0  0  0  0  0  0  0
    8.8123    1.5318    0.0000 H   0  0  0  0  0  0  0  0  0  0  0  0
    8.1899    2.1494    0.0000 H   0  0  0  0  0  0  0  0  0  0  0  0
    7.5723    1.5270    0.0000 H   0  0  0  0  0  0  0  0  0  0  0  0
    2.9132    1.1599    0.0000 H   0  0  0  0  0  0  0  0  0  0  0  0
    2.9132   -2.1494    0.0000 H   0  0  0  0  0  0  0  0  0  0  0  0
    1.4643    0.3381    0.0000 H   0  0  0  0  0  0  0  0  0  0  0  0
    1.4643   -1.3276    0.0000 H   0  0  0  0  0  0  0  0  0  0  0  0
   10.2403    0.0003    0.0000 H   0  0  0  0  0  0  0  0  0  0  0  0
   10.4639    0.8482    0.0000 H   0  0  0  0  0  0  0  0  0  0  0  0
    9.6161    1.0718    0.0000 H   0  0  0  0  0  0  0  0  0  0  0  0
  1  6  1  0  0  0  0
  1 12  1  0  0  0  0
  2  8  1  0  0  0  0
  2 13  1  0  0  0  0
  3  5  1  0  0  0  0
  3 18  1  0  0  0  0
  4  5  1  0  0  0  0
  4  7  2  0  0  0  0
  4  9  1  0  0  0  0
  5 11  1  0  0  0  0
  5 19  1  0  0  0  0
  6  7  1  0  0  0  0
  6  8  2  0  0  0  0
  7 20  1  0  0  0  0
  8 10  1  0  0  0  0
  9 10  2  0  0  0  0
  9 21  1  0  0  0  0
 10 22  1  0  0  0  0
 11 23  1  0  0  0  0
 11 24  1  0  0  0  0
 11 25  1  0  0  0  0
 12 13  1  0  0  0  0
 12 14  2  0  0  0  0
 13 15  2  0  0  0  0
 14 16  1  0  0  0  0
 14 26  1  0  0  0  0
 15 17  1  0  0  0  0
 15 27  1  0  0  0  0
 16 17  2  0  0  0  0
 16 28  1  0  0  0  0
 17 29  1  0  0  0  0
 18 30  1  0  0  0  0
 18 31  1  0  0  0  0
 18 32  1  0  0  0  0
M  END
> <PUBCHEM_COMPOUND_CID>
515185
> <PUBCHEM_COMPOUND_CANONICALIZED>
1
> <PUBCHEM_CACTVS_COMPLEXITY>
284
> <PUBCHEM_CACTVS_HBOND_ACCEPTOR>
3
> <PUBCHEM_CACTVS_HBOND_DONOR>
0
> <PUBCHEM_CACTVS_ROTATABLE_BOND>
2
> <PUBCHEM_CACTVS_SUBSKEYS>
AAADccBwMABAAAAAAAAAAAAAAAAAAAAAAAA0YIAAAAAAAACRQAAAGgQAAAAADBSg2AIyB4AABAiAAiBCAAACCAAgKBAIiBoGCIgMJiKkMRqCOCCkwBEoqAeA4KwOIAAAgAAAIABAAAEAAABAAAAAAAAAAA==
> <PUBCHEM_IUPAC_OPENEYE_NAME>
2-(1-methoxyethyl)phenoxathiine
> <PUBCHEM_IUPAC_CAS_NAME>
2-(1-methoxyethyl)phenoxathiine
> <PUBCHEM_IUPAC_NAME_MARKUP>
2-(1-methoxyethyl)phenoxathiine
> <PUBCHEM_IUPAC_NAME>
2-(1-methoxyethyl)phenoxathiine
> <PUBCHEM_IUPAC_SYSTEMATIC_NAME>
2-(1-methoxyethyl)phenoxathiine
> <PUBCHEM_IUPAC_TRADITIONAL_NAME>
2-(1-methoxyethyl)phenoxathiine
> <PUBCHEM_IUPAC_INCHI>
InChI=1S/C15H14O2S/c1-10(16-2)11-7-8-13-15(9-11)18-14-6-4-3-5-12(14)17-13/h3-10H,1-2H3
> <PUBCHEM_IUPAC_INCHIKEY>
LPUYCELXOGGMAD-UHFFFAOYSA-N
> <PUBCHEM_XLOGP3>
4.6
> <PUBCHEM_EXACT_MASS>
258.07145086
> <PUBCHEM_MOLECULAR_FORMULA>
C15H14O2S
> <PUBCHEM_MOLECULAR_WEIGHT>
258.3
> <PUBCHEM_OPENEYE_CAN_SMILES>
CC(C1=CC2=C(C=C1)OC3=CC=CC=C3S2)OC
> <PUBCHEM_OPENEYE_ISO_SMILES>
CC(C1=CC2=C(C=C1)OC3=CC=CC=C3S2)OC
> <PUBCHEM_CACTVS_TPSA>
43.8
> <PUBCHEM_MONOISOTOPIC_WEIGHT>
258.07145086
> <PUBCHEM_TOTAL_CHARGE>
0
> <PUBCHEM_HEAVY_ATOM_COUNT>
18
> <PUBCHEM_ATOM_DEF_STEREO_COUNT>
0
> <PUBCHEM_ATOM_UDEF_STEREO_COUNT>
1
> <PUBCHEM_BOND_DEF_STEREO_COUNT>
0
> <PUBCHEM_BOND_UDEF_STEREO_COUNT>
0
> <PUBCHEM_ISOTOPIC_ATOM_COUNT>
0
> <PUBCHEM_COMPONENT_COUNT>
1
> <PUBCHEM_CACTVS_TAUTO_COUNT>
-1
> <PUBCHEM_COORDINATE_TYPE>
1
5
255
> <PUBCHEM_BONDANNOTATIONS>
12  13  8
12  14  8
13  15  8
14  16  8
15  17  8
16  17  8
4  7  8
4  9  8
5  11  3
6  7  8
6  8  8
8  10  8
9  10  8
$$$$
