515128
  -OEChem-10302200282D
 34 35  0     1  0  0  0  0  0999 V2000
    3.0000    1.5950    0.0000 S   0  0  0  0  0  0  0  0  0  0  0  0
    4.0000    1.5950    0.0000 O   0  0  0  0  0  0  0  0  0  0  0  0
    2.0000    1.5950    0.0000 O   0  0  0  0  0  0  0  0  0  0  0  0
    3.8660    4.0950    0.0000 O   0  0  0  0  0  0  0  0  0  0  0  0
    4.7320    2.5950    0.0000 O   0  0  0  0  0  0  0  0  0  0  0  0
    3.0000    2.5950    0.0000 C   0  0  3  0  0  0  0  0  0  0  0  0
    3.0000    0.5950    0.0000 C   0  0  0  0  0  0  0  0  0  0  0  0
    2.1340    3.0950    0.0000 C   0  0  0  0  0  0  0  0  0  0  0  0
    3.8660    0.0950    0.0000 C   0  0  0  0  0  0  0  0  0  0  0  0
    2.1340    0.0950    0.0000 C   0  0  0  0  0  0  0  0  0  0  0  0
    3.0000   -1.4050    0.0000 C   0  0  0  0  0  0  0  0  0  0  0  0
    3.8660   -0.9050    0.0000 C   0  0  0  0  0  0  0  0  0  0  0  0
    2.1340   -0.9050    0.0000 C   0  0  0  0  0  0  0  0  0  0  0  0
    3.8660    3.0950    0.0000 C   0  0  0  0  0  0  0  0  0  0  0  0
    3.0000   -2.4050    0.0000 C   0  0  0  0  0  0  0  0  0  0  0  0
    3.8660   -2.9050    0.0000 C   0  0  0  0  0  0  0  0  0  0  0  0
    2.1340   -2.9050    0.0000 C   0  0  0  0  0  0  0  0  0  0  0  0
    3.8660   -3.9050    0.0000 C   0  0  0  0  0  0  0  0  0  0  0  0
    2.1340   -3.9050    0.0000 C   0  0  0  0  0  0  0  0  0  0  0  0
    3.0000   -4.4050    0.0000 C   0  0  0  0  0  0  0  0  0  0  0  0
    2.4631    2.2850    0.0000 H   0  0  0  0  0  0  0  0  0  0  0  0
    2.4440    3.6319    0.0000 H   0  0  0  0  0  0  0  0  0  0  0  0
    1.5970    3.4050    0.0000 H   0  0  0  0  0  0  0  0  0  0  0  0
    1.8240    2.5581    0.0000 H   0  0  0  0  0  0  0  0  0  0  0  0
    4.4030    0.4050    0.0000 H   0  0  0  0  0  0  0  0  0  0  0  0
    1.5970    0.4050    0.0000 H   0  0  0  0  0  0  0  0  0  0  0  0
    4.4030   -1.2150    0.0000 H   0  0  0  0  0  0  0  0  0  0  0  0
    1.5970   -1.2150    0.0000 H   0  0  0  0  0  0  0  0  0  0  0  0
    4.4030   -2.5950    0.0000 H   0  0  0  0  0  0  0  0  0  0  0  0
    1.5970   -2.5950    0.0000 H   0  0  0  0  0  0  0  0  0  0  0  0
    4.4030   -4.2150    0.0000 H   0  0  0  0  0  0  0  0  0  0  0  0
    1.5970   -4.2150    0.0000 H   0  0  0  0  0  0  0  0  0  0  0  0
    3.0000   -5.0250    0.0000 H   0  0  0  0  0  0  0  0  0  0  0  0
    4.4030    4.4050    0.0000 H   0  0  0  0  0  0  0  0  0  0  0  0
  1  2  2  0  0  0  0
  1  3  2  0  0  0  0
  1  6  1  0  0  0  0
  1  7  1  0  0  0  0
  4 14  1  0  0  0  0
  4 34  1  0  0  0  0
  5 14  2  0  0  0  0
  6  8  1  0  0  0  0
  6 14  1  0  0  0  0
  6 21  1  0  0  0  0
  7  9  2  0  0  0  0
  7 10  1  0  0  0  0
  8 22  1  0  0  0  0
  8 23  1  0  0  0  0
  8 24  1  0  0  0  0
  9 12  1  0  0  0  0
  9 25  1  0  0  0  0
 10 13  2  0  0  0  0
 10 26  1  0  0  0  0
 11 12  2  0  0  0  0
 11 13  1  0  0  0  0
 11 15  1  0  0  0  0
 12 27  1  0  0  0  0
 13 28  1  0  0  0  0
 15 16  2  0  0  0  0
 15 17  1  0  0  0  0
 16 18  1  0  0  0  0
 16 29  1  0  0  0  0
 17 19  2  0  0  0  0
 17 30  1  0  0  0  0
 18 20  2  0  0  0  0
 18 31  1  0  0  0  0
 19 20  1  0  0  0  0
 19 32  1  0  0  0  0
 20 33  1  0  0  0  0
M  END
> <PUBCHEM_COMPOUND_CID>
515128
> <PUBCHEM_COMPOUND_CANONICALIZED>
1
> <PUBCHEM_CACTVS_COMPLEXITY>
423
> <PUBCHEM_CACTVS_HBOND_ACCEPTOR>
4
> <PUBCHEM_CACTVS_HBOND_DONOR>
1
> <PUBCHEM_CACTVS_ROTATABLE_BOND>
4
> <PUBCHEM_CACTVS_SUBSKEYS>
AAADccBwOABAAAAAAAAAAAAAAAAAAAAAAAAwYAAAAAAAAAABQAAAGgQACAAADACE2ACyCYAAAgqIAiDSCHBCAAAgCBAIiBkAAIgIICKgERCAYAAggAAoiAcAgMAOkAAAAAAAAAAgAAAAAAAAAAAAAAAAAA==
> <PUBCHEM_IUPAC_OPENEYE_NAME>
2-(4-phenylphenyl)sulfonylpropanoic acid
> <PUBCHEM_IUPAC_CAS_NAME>
2-(4-phenylphenyl)sulfonylpropanoic acid
> <PUBCHEM_IUPAC_NAME_MARKUP>
2-(4-phenylphenyl)sulfonylpropanoic acid
> <PUBCHEM_IUPAC_NAME>
2-(4-phenylphenyl)sulfonylpropanoic acid
> <PUBCHEM_IUPAC_SYSTEMATIC_NAME>
2-(4-phenylphenyl)sulfonylpropanoic acid
> <PUBCHEM_IUPAC_TRADITIONAL_NAME>
2-(4-phenylphenyl)sulfonylpropionic acid
> <PUBCHEM_IUPAC_INCHI>
InChI=1S/C15H14O4S/c1-11(15(16)17)20(18,19)14-9-7-13(8-10-14)12-5-3-2-4-6-12/h2-11H,1H3,(H,16,17)
> <PUBCHEM_IUPAC_INCHIKEY>
HHAXEJZXVILWHM-UHFFFAOYSA-N
> <PUBCHEM_XLOGP3_AA>
2.8
> <PUBCHEM_EXACT_MASS>
290.06128010
> <PUBCHEM_MOLECULAR_FORMULA>
C15H14O4S
> <PUBCHEM_MOLECULAR_WEIGHT>
290.3
> <PUBCHEM_OPENEYE_CAN_SMILES>
CC(C(=O)O)S(=O)(=O)C1=CC=C(C=C1)C2=CC=CC=C2
> <PUBCHEM_OPENEYE_ISO_SMILES>
CC(C(=O)O)S(=O)(=O)C1=CC=C(C=C1)C2=CC=CC=C2
> <PUBCHEM_CACTVS_TPSA>
79.8
> <PUBCHEM_MONOISOTOPIC_WEIGHT>
290.06128010
> <PUBCHEM_TOTAL_CHARGE>
0
> <PUBCHEM_HEAVY_ATOM_COUNT>
20
> <PUBCHEM_ATOM_DEF_STEREO_COUNT>
0
> <PUBCHEM_ATOM_UDEF_STEREO_COUNT>
1
> <PUBCHEM_BOND_DEF_STEREO_COUNT>
0
> <PUBCHEM_BOND_UDEF_STEREO_COUNT>
0
> <PUBCHEM_ISOTOPIC_ATOM_COUNT>
0
> <PUBCHEM_COMPONENT_COUNT>
1
> <PUBCHEM_CACTVS_TAUTO_COUNT>
-1
> <PUBCHEM_COORDINATE_TYPE>
1
5
255
> <PUBCHEM_BONDANNOTATIONS>
10  13  8
11  12  8
11  13  8
15  16  8
15  17  8
16  18  8
17  19  8
18  20  8
19  20  8
6  8  3
7  10  8
7  9  8
9  12  8
$$$$
