515153
  -OEChem-10302200282D
 51 53  0     1  0  0  0  0  0999 V2000
    5.4641    3.8450    0.0000 S   0  0  0  0  0  0  0  0  0  0  0  0
    6.4641    3.8450    0.0000 O   0  0  0  0  0  0  0  0  0  0  0  0
    4.4641    3.8450    0.0000 O   0  0  0  0  0  0  0  0  0  0  0  0
    2.8660   -1.6550    0.0000 O   0  0  0  0  0  0  0  0  0  0  0  0
    6.3301    6.3450    0.0000 O   0  0  0  0  0  0  0  0  0  0  0  0
    7.1962    4.8450    0.0000 O   0  0  0  0  0  0  0  0  0  0  0  0
    3.7320   -3.1550    0.0000 N   0  0  0  0  0  0  0  0  0  0  0  0
    2.8660   -3.6550    0.0000 C   0  0  1  0  0  0  0  0  0  0  0  0
    5.4641    0.8450    0.0000 C   0  0  0  0  0  0  0  0  0  0  0  0
    2.8660   -4.6550    0.0000 C   0  0  0  0  0  0  0  0  0  0  0  0
    5.4641   -0.1550    0.0000 C   0  0  0  0  0  0  0  0  0  0  0  0
    5.4641    2.8450    0.0000 C   0  0  0  0  0  0  0  0  0  0  0  0
    4.5981   -1.6550    0.0000 C   0  0  0  0  0  0  0  0  0  0  0  0
    2.0000   -3.1550    0.0000 C   0  0  0  0  0  0  0  0  0  0  0  0
    4.5981   -0.6550    0.0000 C   0  0  0  0  0  0  0  0  0  0  0  0
    3.7320   -2.1550    0.0000 C   0  0  0  0  0  0  0  0  0  0  0  0
    6.3301    1.3450    0.0000 C   0  0  0  0  0  0  0  0  0  0  0  0
    4.5981    1.3450    0.0000 C   0  0  0  0  0  0  0  0  0  0  0  0
    6.3301    2.3450    0.0000 C   0  0  0  0  0  0  0  0  0  0  0  0
    4.5981    2.3450    0.0000 C   0  0  0  0  0  0  0  0  0  0  0  0
    5.4641    4.8450    0.0000 C   0  0  0  0  0  0  0  0  0  0  0  0
    6.3301   -0.6550    0.0000 C   0  0  0  0  0  0  0  0  0  0  0  0
    5.4641   -2.1550    0.0000 C   0  0  0  0  0  0  0  0  0  0  0  0
    2.0000   -5.1550    0.0000 C   0  0  0  0  0  0  0  0  0  0  0  0
    3.7320   -5.1550    0.0000 C   0  0  0  0  0  0  0  0  0  0  0  0
    6.3301   -1.6550    0.0000 C   0  0  0  0  0  0  0  0  0  0  0  0
    2.0000   -6.1550    0.0000 C   0  0  0  0  0  0  0  0  0  0  0  0
    3.7320   -6.1550    0.0000 C   0  0  0  0  0  0  0  0  0  0  0  0
    2.8660   -6.6550    0.0000 C   0  0  0  0  0  0  0  0  0  0  0  0
    6.3301    5.3450    0.0000 C   0  0  0  0  0  0  0  0  0  0  0  0
    2.8660   -3.0350    0.0000 H   0  0  0  0  0  0  0  0  0  0  0  0
    4.2690   -3.4650    0.0000 H   0  0  0  0  0  0  0  0  0  0  0  0
    2.3100   -2.6181    0.0000 H   0  0  0  0  0  0  0  0  0  0  0  0
    1.4631   -2.8450    0.0000 H   0  0  0  0  0  0  0  0  0  0  0  0
    1.6900   -3.6919    0.0000 H   0  0  0  0  0  0  0  0  0  0  0  0
    4.0611   -0.3450    0.0000 H   0  0  0  0  0  0  0  0  0  0  0  0
    6.8671    1.0350    0.0000 H   0  0  0  0  0  0  0  0  0  0  0  0
    4.0611    1.0350    0.0000 H   0  0  0  0  0  0  0  0  0  0  0  0
    6.8671    2.6550    0.0000 H   0  0  0  0  0  0  0  0  0  0  0  0
    4.0611    2.6550    0.0000 H   0  0  0  0  0  0  0  0  0  0  0  0
    5.2520    5.4276    0.0000 H   0  0  0  0  0  0  0  0  0  0  0  0
    4.8535    4.7373    0.0000 H   0  0  0  0  0  0  0  0  0  0  0  0
    6.8671   -0.3450    0.0000 H   0  0  0  0  0  0  0  0  0  0  0  0
    5.4641   -2.7750    0.0000 H   0  0  0  0  0  0  0  0  0  0  0  0
    1.4631   -4.8450    0.0000 H   0  0  0  0  0  0  0  0  0  0  0  0
    4.2690   -4.8450    0.0000 H   0  0  0  0  0  0  0  0  0  0  0  0
    6.8671   -1.9650    0.0000 H   0  0  0  0  0  0  0  0  0  0  0  0
    1.4631   -6.4650    0.0000 H   0  0  0  0  0  0  0  0  0  0  0  0
    4.2690   -6.4650    0.0000 H   0  0  0  0  0  0  0  0  0  0  0  0
    2.8660   -7.2750    0.0000 H   0  0  0  0  0  0  0  0  0  0  0  0
    6.8671    6.6550    0.0000 H   0  0  0  0  0  0  0  0  0  0  0  0
  1  2  2  0  0  0  0
  1  3  2  0  0  0  0
  1 12  1  0  0  0  0
  1 21  1  0  0  0  0
  4 16  2  0  0  0  0
  5 30  1  0  0  0  0
  5 51  1  0  0  0  0
  6 30  2  0  0  0  0
  8  7  1  1  0  0  0
  7 16  1  0  0  0  0
  7 32  1  0  0  0  0
  8 10  1  0  0  0  0
  8 14  1  0  0  0  0
  8 31  1  0  0  0  0
  9 11  1  0  0  0  0
  9 17  2  0  0  0  0
  9 18  1  0  0  0  0
 10 24  2  0  0  0  0
 10 25  1  0  0  0  0
 11 15  2  0  0  0  0
 11 22  1  0  0  0  0
 12 19  2  0  0  0  0
 12 20  1  0  0  0  0
 13 15  1  0  0  0  0
 13 16  1  0  0  0  0
 13 23  2  0  0  0  0
 14 33  1  0  0  0  0
 14 34  1  0  0  0  0
 14 35  1  0  0  0  0
 15 36  1  0  0  0  0
 17 19  1  0  0  0  0
 17 37  1  0  0  0  0
 18 20  2  0  0  0  0
 18 38  1  0  0  0  0
 19 39  1  0  0  0  0
 20 40  1  0  0  0  0
 21 30  1  0  0  0  0
 21 41  1  0  0  0  0
 21 42  1  0  0  0  0
 22 26  2  0  0  0  0
 22 43  1  0  0  0  0
 23 26  1  0  0  0  0
 23 44  1  0  0  0  0
 24 27  1  0  0  0  0
 24 45  1  0  0  0  0
 25 28  2  0  0  0  0
 25 46  1  0  0  0  0
 26 47  1  0  0  0  0
 27 29  2  0  0  0  0
 27 48  1  0  0  0  0
 28 29  1  0  0  0  0
 28 49  1  0  0  0  0
 29 50  1  0  0  0  0
M  END
> <PUBCHEM_COMPOUND_CID>
515153
> <PUBCHEM_COMPOUND_CANONICALIZED>
1
> <PUBCHEM_CACTVS_COMPLEXITY>
687
> <PUBCHEM_CACTVS_HBOND_ACCEPTOR>
5
> <PUBCHEM_CACTVS_HBOND_DONOR>
2
> <PUBCHEM_CACTVS_ROTATABLE_BOND>
7
> <PUBCHEM_CACTVS_SUBSKEYS>
AAADceB6OABAAAAAAAAAAAAAAAAAAAAAAAAwYMAAAAAAAAABUAAAHgQQCAAADCjF2ASyCYLAAgqIAiHSGHDCAAAkCBAIiJkIBMgIIDKglRGEIQhglgCoiYcYiMCOkAACAAAAAAAgAAQAAAAAAAAAAAAAAA==
> <PUBCHEM_IUPAC_OPENEYE_NAME>
2-[4-[3-[[(1R)-1-phenylethyl]carbamoyl]phenyl]phenyl]sulfonylacetic acid
> <PUBCHEM_IUPAC_CAS_NAME>
2-[4-[3-[oxo-[[(1R)-1-phenylethyl]amino]methyl]phenyl]phenyl]sulfonylacetic acid
> <PUBCHEM_IUPAC_NAME_MARKUP>
2-[4-[3-[[(1<I>R</I>)-1-phenylethyl]carbamoyl]phenyl]phenyl]sulfonylacetic acid
> <PUBCHEM_IUPAC_NAME>
2-[4-[3-[[(1R)-1-phenylethyl]carbamoyl]phenyl]phenyl]sulfonylacetic acid
> <PUBCHEM_IUPAC_SYSTEMATIC_NAME>
2-[4-[3-[[(1R)-1-phenylethyl]carbamoyl]phenyl]phenyl]sulfonylethanoic acid
> <PUBCHEM_IUPAC_TRADITIONAL_NAME>
2-[4-[3-[[(1R)-1-phenylethyl]carbamoyl]phenyl]phenyl]sulfonylacetic acid
> <PUBCHEM_IUPAC_INCHI>
InChI=1S/C23H21NO5S/c1-16(17-6-3-2-4-7-17)24-23(27)20-9-5-8-19(14-20)18-10-12-21(13-11-18)30(28,29)15-22(25)26/h2-14,16H,15H2,1H3,(H,24,27)(H,25,26)/t16-/m1/s1
> <PUBCHEM_IUPAC_INCHIKEY>
PIOOGZRVKAYOEW-MRXNPFEDSA-N
> <PUBCHEM_XLOGP3_AA>
3.6
> <PUBCHEM_EXACT_MASS>
423.11404394
> <PUBCHEM_MOLECULAR_FORMULA>
C23H21NO5S
> <PUBCHEM_MOLECULAR_WEIGHT>
423.5
> <PUBCHEM_OPENEYE_CAN_SMILES>
CC(C1=CC=CC=C1)NC(=O)C2=CC=CC(=C2)C3=CC=C(C=C3)S(=O)(=O)CC(=O)O
> <PUBCHEM_OPENEYE_ISO_SMILES>
C[C@H](C1=CC=CC=C1)NC(=O)C2=CC=CC(=C2)C3=CC=C(C=C3)S(=O)(=O)CC(=O)O
> <PUBCHEM_CACTVS_TPSA>
109
> <PUBCHEM_MONOISOTOPIC_WEIGHT>
423.11404394
> <PUBCHEM_TOTAL_CHARGE>
0
> <PUBCHEM_HEAVY_ATOM_COUNT>
30
> <PUBCHEM_ATOM_DEF_STEREO_COUNT>
1
> <PUBCHEM_ATOM_UDEF_STEREO_COUNT>
0
> <PUBCHEM_BOND_DEF_STEREO_COUNT>
0
> <PUBCHEM_BOND_UDEF_STEREO_COUNT>
0
> <PUBCHEM_ISOTOPIC_ATOM_COUNT>
0
> <PUBCHEM_COMPONENT_COUNT>
1
> <PUBCHEM_CACTVS_TAUTO_COUNT>
-1
> <PUBCHEM_COORDINATE_TYPE>
1
5
255
> <PUBCHEM_BONDANNOTATIONS>
10  24  8
10  25  8
11  15  8
11  22  8
12  19  8
12  20  8
13  15  8
13  23  8
17  19  8
18  20  8
22  26  8
23  26  8
24  27  8
25  28  8
27  29  8
28  29  8
8  7  5
9  17  8
9  18  8
$$$$
