515198
  -OEChem-10302200282D
 43 45  0     1  0  0  0  0  0999 V2000
    7.2627   -0.2905    0.0000 O   0  0  0  0  0  0  0  0  0  0  0  0
    4.7406   -2.6818    0.0000 O   0  0  0  0  0  0  0  0  0  0  0  0
    6.3962   -0.7905    0.0000 N   0  0  3  0  0  0  0  0  0  0  0  0
    6.3962    0.2095    0.0000 C   0  0  1  0  0  0  0  0  0  0  0  0
    5.4451   -1.0995    0.0000 C   0  0  1  0  0  0  0  0  0  0  0  0
    5.4451    0.5185    0.0000 C   0  0  0  0  0  0  0  0  0  0  0  0
    4.8573   -0.2905    0.0000 C   0  0  0  0  0  0  0  0  0  0  0  0
    5.7541   -2.0506    0.0000 C   0  0  0  0  0  0  0  0  0  0  0  0
    6.3962    1.2095    0.0000 C   0  0  0  0  0  0  0  0  0  0  0  0
    4.6361   -1.6873    0.0000 C   0  0  0  0  0  0  0  0  0  0  0  0
    6.7323   -2.2585    0.0000 C   0  0  0  0  0  0  0  0  0  0  0  0
    3.7226   -1.2805    0.0000 C   0  0  0  0  0  0  0  0  0  0  0  0
    5.5302    1.7095    0.0000 C   0  0  0  0  0  0  0  0  0  0  0  0
    7.2622    1.7095    0.0000 C   0  0  0  0  0  0  0  0  0  0  0  0
    7.0413   -3.2095    0.0000 C   0  0  0  0  0  0  0  0  0  0  0  0
    2.9136   -1.8683    0.0000 C   0  0  0  0  0  0  0  0  0  0  0  0
    5.5302    2.7095    0.0000 C   0  0  0  0  0  0  0  0  0  0  0  0
    7.2622    2.7095    0.0000 C   0  0  0  0  0  0  0  0  0  0  0  0
    6.3962    3.2095    0.0000 C   0  0  0  0  0  0  0  0  0  0  0  0
    2.0000   -1.4616    0.0000 C   0  0  0  0  0  0  0  0  0  0  0  0
    5.6973    1.0849    0.0000 H   0  0  0  0  0  0  0  0  0  0  0  0
    4.9082    0.8285    0.0000 H   0  0  0  0  0  0  0  0  0  0  0  0
    4.3966    0.1244    0.0000 H   0  0  0  0  0  0  0  0  0  0  0  0
    4.3966   -0.7053    0.0000 H   0  0  0  0  0  0  0  0  0  0  0  0
    5.1402   -2.1368    0.0000 H   0  0  0  0  0  0  0  0  0  0  0  0
    5.7325   -2.6702    0.0000 H   0  0  0  0  0  0  0  0  0  0  0  0
    7.3463   -2.1722    0.0000 H   0  0  0  0  0  0  0  0  0  0  0  0
    6.7539   -1.6388    0.0000 H   0  0  0  0  0  0  0  0  0  0  0  0
    4.0693   -0.7665    0.0000 H   0  0  0  0  0  0  0  0  0  0  0  0
    3.2766   -0.8499    0.0000 H   0  0  0  0  0  0  0  0  0  0  0  0
    4.9932    1.3995    0.0000 H   0  0  0  0  0  0  0  0  0  0  0  0
    7.7991    1.3995    0.0000 H   0  0  0  0  0  0  0  0  0  0  0  0
    6.4516   -3.4011    0.0000 H   0  0  0  0  0  0  0  0  0  0  0  0
    7.2329   -3.7992    0.0000 H   0  0  0  0  0  0  0  0  0  0  0  0
    7.6310   -3.0179    0.0000 H   0  0  0  0  0  0  0  0  0  0  0  0
    2.5668   -2.3823    0.0000 H   0  0  0  0  0  0  0  0  0  0  0  0
    3.3595   -2.2990    0.0000 H   0  0  0  0  0  0  0  0  0  0  0  0
    4.9932    3.0195    0.0000 H   0  0  0  0  0  0  0  0  0  0  0  0
    7.7991    3.0195    0.0000 H   0  0  0  0  0  0  0  0  0  0  0  0
    6.3962    3.8295    0.0000 H   0  0  0  0  0  0  0  0  0  0  0  0
    2.2522   -0.8952    0.0000 H   0  0  0  0  0  0  0  0  0  0  0  0
    1.4336   -1.2094    0.0000 H   0  0  0  0  0  0  0  0  0  0  0  0
    1.7478   -2.0280    0.0000 H   0  0  0  0  0  0  0  0  0  0  0  0
  1  3  1  0  0  0  0
  1  4  1  0  0  0  0
  2 10  2  0  0  0  0
  3  4  1  0  0  0  0
  3  5  1  0  0  0  0
  4  6  1  0  0  0  0
  4  9  1  6  0  0  0
  5  7  1  0  0  0  0
  5  8  1  6  0  0  0
  5 10  1  0  0  0  0
  6  7  1  0  0  0  0
  6 21  1  0  0  0  0
  6 22  1  0  0  0  0
  7 23  1  0  0  0  0
  7 24  1  0  0  0  0
  8 11  1  0  0  0  0
  8 25  1  0  0  0  0
  8 26  1  0  0  0  0
  9 13  2  0  0  0  0
  9 14  1  0  0  0  0
 10 12  1  0  0  0  0
 11 15  1  0  0  0  0
 11 27  1  0  0  0  0
 11 28  1  0  0  0  0
 12 16  1  0  0  0  0
 12 29  1  0  0  0  0
 12 30  1  0  0  0  0
 13 17  1  0  0  0  0
 13 31  1  0  0  0  0
 14 18  2  0  0  0  0
 14 32  1  0  0  0  0
 15 33  1  0  0  0  0
 15 34  1  0  0  0  0
 15 35  1  0  0  0  0
 16 20  1  0  0  0  0
 16 36  1  0  0  0  0
 16 37  1  0  0  0  0
 17 19  2  0  0  0  0
 17 38  1  0  0  0  0
 18 19  1  0  0  0  0
 18 39  1  0  0  0  0
 19 40  1  0  0  0  0
 20 41  1  0  0  0  0
 20 42  1  0  0  0  0
 20 43  1  0  0  0  0
M  END
> <PUBCHEM_COMPOUND_CID>
515198
> <PUBCHEM_COMPOUND_CANONICALIZED>
1
> <PUBCHEM_CACTVS_COMPLEXITY>
377
> <PUBCHEM_CACTVS_HBOND_ACCEPTOR>
3
> <PUBCHEM_CACTVS_HBOND_DONOR>
0
> <PUBCHEM_CACTVS_ROTATABLE_BOND>
6
> <PUBCHEM_CACTVS_SUBSKEYS>
AAADceB6MAAAAAAAAAAAAAAAFgAAAWAAAAA8QAAAAAAAAAABAAAAHgAEAAAADIyBmAAyAIIQAACIAqBSAACCAAAgAAAoiAGADIgIJjKAkTGEMAhkwAGIiAe4zeDeAAAAAAAAAAAAAAAAAAAAAAAAAAAAAA==
> <PUBCHEM_IUPAC_OPENEYE_NAME>
1-[(2R,5S)-5-phenyl-2-propyl-6-oxa-1-azabicyclo[3.1.0]hexan-2-yl]butan-1-one
> <PUBCHEM_IUPAC_CAS_NAME>
1-[(2R,5S)-5-phenyl-2-propyl-6-oxa-1-azabicyclo[3.1.0]hexan-2-yl]-1-butanone
> <PUBCHEM_IUPAC_NAME_MARKUP>
1-[(2<I>R</I>,5<I>S</I>)-5-phenyl-2-propyl-6-oxa-1-azabicyclo[3.1.0]hexan-2-yl]butan-1-one
> <PUBCHEM_IUPAC_NAME>
1-[(2R,5S)-5-phenyl-2-propyl-6-oxa-1-azabicyclo[3.1.0]hexan-2-yl]butan-1-one
> <PUBCHEM_IUPAC_SYSTEMATIC_NAME>
1-[(2R,5S)-5-phenyl-2-propyl-6-oxa-1-azabicyclo[3.1.0]hexan-2-yl]butan-1-one
> <PUBCHEM_IUPAC_TRADITIONAL_NAME>
1-[(2R,5S)-5-phenyl-2-propyl-6-oxa-1-azabicyclo[3.1.0]hexan-2-yl]butan-1-one
> <PUBCHEM_IUPAC_INCHI>
InChI=1S/C17H23NO2/c1-3-8-15(19)16(11-4-2)12-13-17(18(16)20-17)14-9-6-5-7-10-14/h5-7,9-10H,3-4,8,11-13H2,1-2H3/t16-,17+,18?/m1/s1
> <PUBCHEM_IUPAC_INCHIKEY>
RRAPSQMNCIQDEX-DVKDBIPTSA-N
> <PUBCHEM_XLOGP3_AA>
3.7
> <PUBCHEM_EXACT_MASS>
273.172878976
> <PUBCHEM_MOLECULAR_FORMULA>
C17H23NO2
> <PUBCHEM_MOLECULAR_WEIGHT>
273.37
> <PUBCHEM_OPENEYE_CAN_SMILES>
CCCC(=O)C1(CCC2(N1O2)C3=CC=CC=C3)CCC
> <PUBCHEM_OPENEYE_ISO_SMILES>
CCCC(=O)[C@]1(CC[C@@]2(N1O2)C3=CC=CC=C3)CCC
> <PUBCHEM_CACTVS_TPSA>
32.6
> <PUBCHEM_MONOISOTOPIC_WEIGHT>
273.172878976
> <PUBCHEM_TOTAL_CHARGE>
0
> <PUBCHEM_HEAVY_ATOM_COUNT>
20
> <PUBCHEM_ATOM_DEF_STEREO_COUNT>
2
> <PUBCHEM_ATOM_UDEF_STEREO_COUNT>
0
> <PUBCHEM_BOND_DEF_STEREO_COUNT>
0
> <PUBCHEM_BOND_UDEF_STEREO_COUNT>
0
> <PUBCHEM_ISOTOPIC_ATOM_COUNT>
0
> <PUBCHEM_COMPONENT_COUNT>
1
> <PUBCHEM_CACTVS_TAUTO_COUNT>
-1
> <PUBCHEM_COORDINATE_TYPE>
1
5
255
> <PUBCHEM_BONDANNOTATIONS>
13  17  8
14  18  8
17  19  8
18  19  8
4  9  6
5  8  6
9  13  8
9  14  8
$$$$
