515184
  -OEChem-10302200282D
 30 32  0     1  0  0  0  0  0999 V2000
    4.6660    0.5053    0.0000 S   0  0  0  0  0  0  0  0  0  0  0  0
    4.6660   -1.4947    0.0000 O   0  0  0  0  0  0  0  0  0  0  0  0
    9.0641    0.0328    0.0000 N   0  0  0  0  0  0  0  0  0  0  0  0
    7.3321    0.0261    0.0000 C   0  0  0  0  0  0  0  0  0  0  0  0
    8.1962    0.5294    0.0000 C   0  0  3  0  0  0  0  0  0  0  0  0
    5.5321    0.0053    0.0000 C   0  0  0  0  0  0  0  0  0  0  0  0
    6.4260    0.5399    0.0000 C   0  0  0  0  0  0  0  0  0  0  0  0
    5.5321   -0.9947    0.0000 C   0  0  0  0  0  0  0  0  0  0  0  0
    7.3321   -1.0156    0.0000 C   0  0  0  0  0  0  0  0  0  0  0  0
    6.4260   -1.5294    0.0000 C   0  0  0  0  0  0  0  0  0  0  0  0
    3.8000    0.0053    0.0000 C   0  0  0  0  0  0  0  0  0  0  0  0
    8.1923    1.5294    0.0000 C   0  0  0  0  0  0  0  0  0  0  0  0
    3.8000   -0.9947    0.0000 C   0  0  0  0  0  0  0  0  0  0  0  0
    2.9061    0.5399    0.0000 C   0  0  0  0  0  0  0  0  0  0  0  0
    2.9061   -1.5294    0.0000 C   0  0  0  0  0  0  0  0  0  0  0  0
    2.0000    0.0261    0.0000 C   0  0  0  0  0  0  0  0  0  0  0  0
    2.0000   -1.0156    0.0000 C   0  0  0  0  0  0  0  0  0  0  0  0
    8.7319    0.8415    0.0000 H   0  0  0  0  0  0  0  0  0  0  0  0
    6.4188    1.1599    0.0000 H   0  0  0  0  0  0  0  0  0  0  0  0
    7.8678   -1.3276    0.0000 H   0  0  0  0  0  0  0  0  0  0  0  0
    6.4188   -2.1494    0.0000 H   0  0  0  0  0  0  0  0  0  0  0  0
    8.8123    1.5318    0.0000 H   0  0  0  0  0  0  0  0  0  0  0  0
    8.1899    2.1494    0.0000 H   0  0  0  0  0  0  0  0  0  0  0  0
    7.5723    1.5270    0.0000 H   0  0  0  0  0  0  0  0  0  0  0  0
    9.5998    0.3448    0.0000 H   0  0  0  0  0  0  0  0  0  0  0  0
    9.0665   -0.5872    0.0000 H   0  0  0  0  0  0  0  0  0  0  0  0
    2.9132    1.1599    0.0000 H   0  0  0  0  0  0  0  0  0  0  0  0
    2.9132   -2.1494    0.0000 H   0  0  0  0  0  0  0  0  0  0  0  0
    1.4643    0.3381    0.0000 H   0  0  0  0  0  0  0  0  0  0  0  0
    1.4643   -1.3276    0.0000 H   0  0  0  0  0  0  0  0  0  0  0  0
  1  6  1  0  0  0  0
  1 11  1  0  0  0  0
  2  8  1  0  0  0  0
  2 13  1  0  0  0  0
  3  5  1  0  0  0  0
  3 25  1  0  0  0  0
  3 26  1  0  0  0  0
  4  5  1  0  0  0  0
  4  7  2  0  0  0  0
  4  9  1  0  0  0  0
  5 12  1  0  0  0  0
  5 18  1  0  0  0  0
  6  7  1  0  0  0  0
  6  8  2  0  0  0  0
  7 19  1  0  0  0  0
  8 10  1  0  0  0  0
  9 10  2  0  0  0  0
  9 20  1  0  0  0  0
 10 21  1  0  0  0  0
 11 13  1  0  0  0  0
 11 14  2  0  0  0  0
 12 22  1  0  0  0  0
 12 23  1  0  0  0  0
 12 24  1  0  0  0  0
 13 15  2  0  0  0  0
 14 16  1  0  0  0  0
 14 27  1  0  0  0  0
 15 17  1  0  0  0  0
 15 28  1  0  0  0  0
 16 17  2  0  0  0  0
 16 29  1  0  0  0  0
 17 30  1  0  0  0  0
M  END
> <PUBCHEM_COMPOUND_CID>
515184
> <PUBCHEM_COMPOUND_CANONICALIZED>
1
> <PUBCHEM_CACTVS_COMPLEXITY>
273
> <PUBCHEM_CACTVS_HBOND_ACCEPTOR>
3
> <PUBCHEM_CACTVS_HBOND_DONOR>
1
> <PUBCHEM_CACTVS_ROTATABLE_BOND>
1
> <PUBCHEM_CACTVS_SUBSKEYS>
AAADccByIABAAAAAAAAAAAAAAAAAAAAAAAA0YIAAAAAAAACRQAAAHgQQAAAADCzB2AQyB4BABAiAAiBCAACCCAAgKBAIiJoGDIgMJiKksRuCOCDk0BEoqAeQ0IEOIAAAgAAAIABAAAEAAABAAAAAAAAAAA==
> <PUBCHEM_IUPAC_OPENEYE_NAME>
1-phenoxathiin-2-ylethanamine
> <PUBCHEM_IUPAC_CAS_NAME>
1-(2-phenoxathiinyl)ethanamine
> <PUBCHEM_IUPAC_NAME_MARKUP>
1-phenoxathiin-2-ylethanamine
> <PUBCHEM_IUPAC_NAME>
1-phenoxathiin-2-ylethanamine
> <PUBCHEM_IUPAC_SYSTEMATIC_NAME>
1-phenoxathiin-2-ylethanamine
> <PUBCHEM_IUPAC_TRADITIONAL_NAME>
1-phenoxathiin-2-ylethylamine
> <PUBCHEM_IUPAC_INCHI>
InChI=1S/C14H13NOS/c1-9(15)10-6-7-12-14(8-10)17-13-5-3-2-4-11(13)16-12/h2-9H,15H2,1H3
> <PUBCHEM_IUPAC_INCHIKEY>
RFMVTRYCELBBQG-UHFFFAOYSA-N
> <PUBCHEM_XLOGP3>
3.8
> <PUBCHEM_EXACT_MASS>
243.07178521
> <PUBCHEM_MOLECULAR_FORMULA>
C14H13NOS
> <PUBCHEM_MOLECULAR_WEIGHT>
243.33
> <PUBCHEM_OPENEYE_CAN_SMILES>
CC(C1=CC2=C(C=C1)OC3=CC=CC=C3S2)N
> <PUBCHEM_OPENEYE_ISO_SMILES>
CC(C1=CC2=C(C=C1)OC3=CC=CC=C3S2)N
> <PUBCHEM_CACTVS_TPSA>
60.6
> <PUBCHEM_MONOISOTOPIC_WEIGHT>
243.07178521
> <PUBCHEM_TOTAL_CHARGE>
0
> <PUBCHEM_HEAVY_ATOM_COUNT>
17
> <PUBCHEM_ATOM_DEF_STEREO_COUNT>
0
> <PUBCHEM_ATOM_UDEF_STEREO_COUNT>
1
> <PUBCHEM_BOND_DEF_STEREO_COUNT>
0
> <PUBCHEM_BOND_UDEF_STEREO_COUNT>
0
> <PUBCHEM_ISOTOPIC_ATOM_COUNT>
0
> <PUBCHEM_COMPONENT_COUNT>
1
> <PUBCHEM_CACTVS_TAUTO_COUNT>
-1
> <PUBCHEM_COORDINATE_TYPE>
1
5
255
> <PUBCHEM_BONDANNOTATIONS>
11  13  8
11  14  8
13  15  8
14  16  8
15  17  8
16  17  8
5  3  3
4  7  8
4  9  8
6  7  8
6  8  8
8  10  8
9  10  8
$$$$
