515105
  -OEChem-10302200282D
 28 29  0     1  0  0  0  0  0999 V2000
    2.0000   -0.9766    0.0000 F   0  0  0  0  0  0  0  0  0  0  0  0
    4.5691   -1.2857    0.0000 O   0  0  0  0  0  0  0  0  0  0  0  0
    2.6723   -3.0457    0.0000 O   0  0  0  0  0  0  0  0  0  0  0  0
    5.4921    0.3021    0.0000 O   0  0  0  0  0  0  0  0  0  0  0  0
    3.7601    0.3021    0.0000 N   0  0  0  0  0  0  0  0  0  0  0  0
    4.6261    1.8021    0.0000 N   0  0  0  0  0  0  0  0  0  0  0  0
    3.7601    3.3021    0.0000 N   0  0  0  0  0  0  0  0  0  0  0  0
    3.2601   -2.2367    0.0000 C   0  0  1  0  0  0  0  0  0  0  0  0
    2.9511   -1.2857    0.0000 C   0  0  1  0  0  0  0  0  0  0  0  0
    3.7601   -0.6979    0.0000 C   0  0  1  0  0  0  0  0  0  0  0  0
    4.2601   -2.2367    0.0000 C   0  0  1  0  0  0  0  0  0  0  0  0
    4.8479   -3.0457    0.0000 C   0  0  0  0  0  0  0  0  0  0  0  0
    2.8940    0.8021    0.0000 C   0  0  0  0  0  0  0  0  0  0  0  0
    4.6261    0.8021    0.0000 C   0  0  0  0  0  0  0  0  0  0  0  0
    2.8940    1.8021    0.0000 C   0  0  0  0  0  0  0  0  0  0  0  0
    3.7601    2.3021    0.0000 C   0  0  0  0  0  0  0  0  0  0  0  0
    2.6477   -2.1397    0.0000 H   0  0  0  0  0  0  0  0  0  0  0  0
    2.5126   -1.7241    0.0000 H   0  0  0  0  0  0  0  0  0  0  0  0
    4.3125   -0.4164    0.0000 H   0  0  0  0  0  0  0  0  0  0  0  0
    4.8724   -2.1397    0.0000 H   0  0  0  0  0  0  0  0  0  0  0  0
    4.3463   -3.4102    0.0000 H   0  0  0  0  0  0  0  0  0  0  0  0
    5.2123   -3.5473    0.0000 H   0  0  0  0  0  0  0  0  0  0  0  0
    5.3494   -2.6813    0.0000 H   0  0  0  0  0  0  0  0  0  0  0  0
    2.9245   -3.6121    0.0000 H   0  0  0  0  0  0  0  0  0  0  0  0
    2.3571    0.4921    0.0000 H   0  0  0  0  0  0  0  0  0  0  0  0
    2.3571    2.1121    0.0000 H   0  0  0  0  0  0  0  0  0  0  0  0
    3.2231    3.6121    0.0000 H   0  0  0  0  0  0  0  0  0  0  0  0
    4.2970    3.6121    0.0000 H   0  0  0  0  0  0  0  0  0  0  0  0
  9  1  1  6  0  0  0
  2 10  1  0  0  0  0
  2 11  1  0  0  0  0
  8  3  1  1  0  0  0
  3 24  1  0  0  0  0
  4 14  2  0  0  0  0
 10  5  1  6  0  0  0
  5 13  1  0  0  0  0
  5 14  1  0  0  0  0
  6 14  1  0  0  0  0
  6 16  2  0  0  0  0
  7 16  1  0  0  0  0
  7 27  1  0  0  0  0
  7 28  1  0  0  0  0
  8  9  1  0  0  0  0
  8 11  1  0  0  0  0
  8 17  1  0  0  0  0
  9 10  1  0  0  0  0
  9 18  1  0  0  0  0
 10 19  1  0  0  0  0
 11 12  1  6  0  0  0
 11 20  1  0  0  0  0
 12 21  1  0  0  0  0
 12 22  1  0  0  0  0
 12 23  1  0  0  0  0
 13 15  2  0  0  0  0
 13 25  1  0  0  0  0
 15 16  1  0  0  0  0
 15 26  1  0  0  0  0
M  END
> <PUBCHEM_COMPOUND_CID>
515105
> <PUBCHEM_COMPOUND_CANONICALIZED>
1
> <PUBCHEM_CACTVS_COMPLEXITY>
371
> <PUBCHEM_CACTVS_HBOND_ACCEPTOR>
4
> <PUBCHEM_CACTVS_HBOND_DONOR>
2
> <PUBCHEM_CACTVS_ROTATABLE_BOND>
1
> <PUBCHEM_CACTVS_SUBSKEYS>
AAADccBzMQAAAAAAAAAAAAAAAAAAASAAAAAgAAAAAAAAAAAAAAAAHwAQCAAACBThgAYDAANABgCoACJmdACAAAEAAgAIAAAYABCBEAIAgAAOQAAHFgIDAACwAAAAAAAAAAAAAAAAAAAAAAAAAAAAAAAAAA==
> <PUBCHEM_IUPAC_OPENEYE_NAME>
4-amino-1-[(2R,3S,4R,5R)-3-fluoro-4-hydroxy-5-methyl-tetrahydrofuran-2-yl]pyrimidin-2-one
> <PUBCHEM_IUPAC_CAS_NAME>
4-amino-1-[(2R,3S,4R,5R)-3-fluoro-4-hydroxy-5-methyl-2-oxolanyl]-2-pyrimidinone
> <PUBCHEM_IUPAC_NAME_MARKUP>
4-amino-1-[(2<I>R</I>,3<I>S</I>,4<I>R</I>,5<I>R</I>)-3-fluoro-4-hydroxy-5-methyloxolan-2-yl]pyrimidin-2-one
> <PUBCHEM_IUPAC_NAME>
4-amino-1-[(2R,3S,4R,5R)-3-fluoro-4-hydroxy-5-methyloxolan-2-yl]pyrimidin-2-one
> <PUBCHEM_IUPAC_SYSTEMATIC_NAME>
4-azanyl-1-[(2R,3S,4R,5R)-3-fluoranyl-5-methyl-4-oxidanyl-oxolan-2-yl]pyrimidin-2-one
> <PUBCHEM_IUPAC_TRADITIONAL_NAME>
4-amino-1-[(2R,3S,4R,5R)-3-fluoro-4-hydroxy-5-methyl-tetrahydrofuran-2-yl]pyrimidin-2-one
> <PUBCHEM_IUPAC_INCHI>
InChI=1S/C9H12FN3O3/c1-4-7(14)6(10)8(16-4)13-3-2-5(11)12-9(13)15/h2-4,6-8,14H,1H3,(H2,11,12,15)/t4-,6+,7-,8-/m1/s1
> <PUBCHEM_IUPAC_INCHIKEY>
OCXOUAZGYAUARN-PXBUCIJWSA-N
> <PUBCHEM_XLOGP3>
-0.2
> <PUBCHEM_EXACT_MASS>
229.08626942
> <PUBCHEM_MOLECULAR_FORMULA>
C9H12FN3O3
> <PUBCHEM_MOLECULAR_WEIGHT>
229.21
> <PUBCHEM_OPENEYE_CAN_SMILES>
CC1C(C(C(O1)N2C=CC(=NC2=O)N)F)O
> <PUBCHEM_OPENEYE_ISO_SMILES>
C[C@@H]1[C@H]([C@@H]([C@@H](O1)N2C=CC(=NC2=O)N)F)O
> <PUBCHEM_CACTVS_TPSA>
88.2
> <PUBCHEM_MONOISOTOPIC_WEIGHT>
229.08626942
> <PUBCHEM_TOTAL_CHARGE>
0
> <PUBCHEM_HEAVY_ATOM_COUNT>
16
> <PUBCHEM_ATOM_DEF_STEREO_COUNT>
4
> <PUBCHEM_ATOM_UDEF_STEREO_COUNT>
0
> <PUBCHEM_BOND_DEF_STEREO_COUNT>
0
> <PUBCHEM_BOND_UDEF_STEREO_COUNT>
0
> <PUBCHEM_ISOTOPIC_ATOM_COUNT>
0
> <PUBCHEM_COMPONENT_COUNT>
1
> <PUBCHEM_CACTVS_TAUTO_COUNT>
3
> <PUBCHEM_COORDINATE_TYPE>
1
5
255
> <PUBCHEM_BONDANNOTATIONS>
9  1  6
11  12  6
13  15  8
15  16  8
8  3  5
10  5  6
5  13  8
5  14  8
6  14  8
6  16  8
$$$$
