515173
  -OEChem-10302200282D
 32 33  0     1  0  0  0  0  0999 V2000
    5.4641    2.9400    0.0000 O   0  0  0  0  0  0  0  0  0  0  0  0
    3.7320   -0.0600    0.0000 C   0  0  0  0  0  0  0  0  0  0  0  0
    2.8660   -0.5600    0.0000 C   0  0  0  0  0  0  0  0  0  0  0  0
    4.5981    1.4400    0.0000 C   0  0  0  0  0  0  0  0  0  0  0  0
    4.5981    2.4400    0.0000 C   0  0  3  0  0  0  0  0  0  0  0  0
    3.7320    0.9400    0.0000 C   0  0  0  0  0  0  0  0  0  0  0  0
    2.8660   -1.5600    0.0000 C   0  0  0  0  0  0  0  0  0  0  0  0
    4.5981   -0.5600    0.0000 C   0  0  0  0  0  0  0  0  0  0  0  0
    5.4641    0.9400    0.0000 C   0  0  0  0  0  0  0  0  0  0  0  0
    5.4641   -0.0600    0.0000 C   0  0  0  0  0  0  0  0  0  0  0  0
    3.7320    2.9400    0.0000 C   0  0  0  0  0  0  0  0  0  0  0  0
    3.7320   -2.0600    0.0000 C   0  0  0  0  0  0  0  0  0  0  0  0
    2.0000   -2.0600    0.0000 C   0  0  0  0  0  0  0  0  0  0  0  0
    3.7320   -3.0600    0.0000 C   0  0  0  0  0  0  0  0  0  0  0  0
    2.0000   -3.0600    0.0000 C   0  0  0  0  0  0  0  0  0  0  0  0
    2.8660   -3.5600    0.0000 C   0  0  0  0  0  0  0  0  0  0  0  0
    2.6540    0.0226    0.0000 H   0  0  0  0  0  0  0  0  0  0  0  0
    2.2554   -0.6677    0.0000 H   0  0  0  0  0  0  0  0  0  0  0  0
    4.5981    3.0600    0.0000 H   0  0  0  0  0  0  0  0  0  0  0  0
    3.1951    1.2500    0.0000 H   0  0  0  0  0  0  0  0  0  0  0  0
    4.5981   -1.1800    0.0000 H   0  0  0  0  0  0  0  0  0  0  0  0
    6.0010    1.2500    0.0000 H   0  0  0  0  0  0  0  0  0  0  0  0
    6.0010   -0.3700    0.0000 H   0  0  0  0  0  0  0  0  0  0  0  0
    4.0420    3.4769    0.0000 H   0  0  0  0  0  0  0  0  0  0  0  0
    3.1951    3.2500    0.0000 H   0  0  0  0  0  0  0  0  0  0  0  0
    3.4220    2.4031    0.0000 H   0  0  0  0  0  0  0  0  0  0  0  0
    4.2690   -1.7500    0.0000 H   0  0  0  0  0  0  0  0  0  0  0  0
    1.4631   -1.7500    0.0000 H   0  0  0  0  0  0  0  0  0  0  0  0
    4.2690   -3.3700    0.0000 H   0  0  0  0  0  0  0  0  0  0  0  0
    1.4631   -3.3700    0.0000 H   0  0  0  0  0  0  0  0  0  0  0  0
    5.4641    3.5600    0.0000 H   0  0  0  0  0  0  0  0  0  0  0  0
    2.8660   -4.1800    0.0000 H   0  0  0  0  0  0  0  0  0  0  0  0
  1  5  1  0  0  0  0
  1 31  1  0  0  0  0
  2  3  1  0  0  0  0
  2  6  2  0  0  0  0
  2  8  1  0  0  0  0
  3  7  1  0  0  0  0
  3 17  1  0  0  0  0
  3 18  1  0  0  0  0
  4  5  1  0  0  0  0
  4  6  1  0  0  0  0
  4  9  2  0  0  0  0
  5 11  1  0  0  0  0
  5 19  1  0  0  0  0
  6 20  1  0  0  0  0
  7 12  2  0  0  0  0
  7 13  1  0  0  0  0
  8 10  2  0  0  0  0
  8 21  1  0  0  0  0
  9 10  1  0  0  0  0
  9 22  1  0  0  0  0
 10 23  1  0  0  0  0
 11 24  1  0  0  0  0
 11 25  1  0  0  0  0
 11 26  1  0  0  0  0
 12 14  1  0  0  0  0
 12 27  1  0  0  0  0
 13 15  2  0  0  0  0
 13 28  1  0  0  0  0
 14 16  2  0  0  0  0
 14 29  1  0  0  0  0
 15 16  1  0  0  0  0
 15 30  1  0  0  0  0
 16 32  1  0  0  0  0
M  END
> <PUBCHEM_COMPOUND_CID>
515173
> <PUBCHEM_COMPOUND_CANONICALIZED>
1
> <PUBCHEM_CACTVS_COMPLEXITY>
196
> <PUBCHEM_CACTVS_HBOND_ACCEPTOR>
1
> <PUBCHEM_CACTVS_HBOND_DONOR>
1
> <PUBCHEM_CACTVS_ROTATABLE_BOND>
3
> <PUBCHEM_CACTVS_SUBSKEYS>
AAADceBwIAAAAAAAAAAAAAAAAAAAAAAAAAAwYAAAAAAAAAABQAAAGgAACAAADBSgmAIyAIAAAgCAAiBCAAACAAAgAAAIiAAACIgINiKAERCAcAAkwAEImAeAwOAOAAACAAAAAAAAAAQAAAAAAAAAAAAAAA==
> <PUBCHEM_IUPAC_OPENEYE_NAME>
1-(3-benzylphenyl)ethanol
> <PUBCHEM_IUPAC_CAS_NAME>
1-[3-(phenylmethyl)phenyl]ethanol
> <PUBCHEM_IUPAC_NAME_MARKUP>
1-(3-benzylphenyl)ethanol
> <PUBCHEM_IUPAC_NAME>
1-(3-benzylphenyl)ethanol
> <PUBCHEM_IUPAC_SYSTEMATIC_NAME>
1-[3-(phenylmethyl)phenyl]ethanol
> <PUBCHEM_IUPAC_TRADITIONAL_NAME>
1-(3-benzylphenyl)ethanol
> <PUBCHEM_IUPAC_INCHI>
InChI=1S/C15H16O/c1-12(16)15-9-5-8-14(11-15)10-13-6-3-2-4-7-13/h2-9,11-12,16H,10H2,1H3
> <PUBCHEM_IUPAC_INCHIKEY>
SYZABQBDHZTRPV-UHFFFAOYSA-N
> <PUBCHEM_XLOGP3_AA>
3.4
> <PUBCHEM_EXACT_MASS>
212.120115130
> <PUBCHEM_MOLECULAR_FORMULA>
C15H16O
> <PUBCHEM_MOLECULAR_WEIGHT>
212.29
> <PUBCHEM_OPENEYE_CAN_SMILES>
CC(C1=CC=CC(=C1)CC2=CC=CC=C2)O
> <PUBCHEM_OPENEYE_ISO_SMILES>
CC(C1=CC=CC(=C1)CC2=CC=CC=C2)O
> <PUBCHEM_CACTVS_TPSA>
20.2
> <PUBCHEM_MONOISOTOPIC_WEIGHT>
212.120115130
> <PUBCHEM_TOTAL_CHARGE>
0
> <PUBCHEM_HEAVY_ATOM_COUNT>
16
> <PUBCHEM_ATOM_DEF_STEREO_COUNT>
0
> <PUBCHEM_ATOM_UDEF_STEREO_COUNT>
1
> <PUBCHEM_BOND_DEF_STEREO_COUNT>
0
> <PUBCHEM_BOND_UDEF_STEREO_COUNT>
0
> <PUBCHEM_ISOTOPIC_ATOM_COUNT>
0
> <PUBCHEM_COMPONENT_COUNT>
1
> <PUBCHEM_CACTVS_TAUTO_COUNT>
-1
> <PUBCHEM_COORDINATE_TYPE>
1
5
255
> <PUBCHEM_BONDANNOTATIONS>
5  1  3
12  14  8
13  15  8
14  16  8
15  16  8
2  6  8
2  8  8
4  6  8
4  9  8
7  12  8
7  13  8
8  10  8
9  10  8
$$$$
