515268
  -OEChem-10302200282D
 87 87  0     1  0  0  0  0  0999 V2000
    7.1962   -1.1045    0.0000 O   0  0  0  0  0  0  0  0  0  0  0  0
    8.2981   -0.3039    0.0000 O   0  0  0  0  0  0  0  0  0  0  0  0
    3.7320   -2.1045    0.0000 O   0  0  0  0  0  0  0  0  0  0  0  0
   11.4786    1.3945    0.0000 O   0  0  0  0  0  0  0  0  0  0  0  0
   11.1513   -1.2309    0.0000 O   0  0  0  0  0  0  0  0  0  0  0  0
   11.6865    0.4163    0.0000 O   0  0  0  0  0  0  0  0  0  0  0  0
   11.5980    4.9981    0.0000 O   0  0  0  0  0  0  0  0  0  0  0  0
    9.9038    4.6380    0.0000 O   0  0  0  0  0  0  0  0  0  0  0  0
    6.3301    0.3955    0.0000 N   0  0  0  0  0  0  0  0  0  0  0  0
    5.4641   -2.1045    0.0000 N   0  0  0  0  0  0  0  0  0  0  0  0
    8.8334    1.3434    0.0000 N   0  0  0  0  0  0  0  0  0  0  0  0
    4.5981   -3.6045    0.0000 N   0  0  0  0  0  0  0  0  0  0  0  0
   10.3196    2.6816    0.0000 N   0  0  0  0  0  0  0  0  0  0  0  0
    7.1391    0.9833    0.0000 C   0  0  3  0  0  0  0  0  0  0  0  0
    6.8301    1.9343    0.0000 C   0  0  0  0  0  0  0  0  0  0  0  0
    5.5211    0.9833    0.0000 C   0  0  0  0  0  0  0  0  0  0  0  0
    5.8301    1.9343    0.0000 C   0  0  0  0  0  0  0  0  0  0  0  0
    5.4641   -1.1045    0.0000 C   0  0  1  0  0  0  0  0  0  0  0  0
    4.5981   -0.6045    0.0000 C   0  0  0  0  0  0  0  0  0  0  0  0
    6.3301   -0.6045    0.0000 C   0  0  0  0  0  0  0  0  0  0  0  0
    8.0902    0.6743    0.0000 C   0  0  0  0  0  0  0  0  0  0  0  0
    3.7320   -0.1045    0.0000 C   0  0  0  0  0  0  0  0  0  0  0  0
    4.0981   -1.4705    0.0000 C   0  0  0  0  0  0  0  0  0  0  0  0
    5.0981    0.2615    0.0000 C   0  0  0  0  0  0  0  0  0  0  0  0
    9.7844    1.0344    0.0000 C   0  0  1  0  0  0  0  0  0  0  0  0
    4.5981   -2.6045    0.0000 C   0  0  0  0  0  0  0  0  0  0  0  0
    9.9923    0.0562    0.0000 C   0  0  0  0  0  0  0  0  0  0  0  0
    3.7320   -4.1045    0.0000 C   0  0  0  0  0  0  0  0  0  0  0  0
   10.5275    1.7035    0.0000 C   0  0  0  0  0  0  0  0  0  0  0  0
   11.0628    3.3508    0.0000 C   0  0  1  0  0  0  0  0  0  0  0  0
   12.0138    3.0418    0.0000 C   0  0  0  0  0  0  0  0  0  0  0  0
    3.7320   -5.1045    0.0000 C   0  0  0  0  0  0  0  0  0  0  0  0
    2.8660   -3.6045    0.0000 C   0  0  0  0  0  0  0  0  0  0  0  0
   12.7570    3.7109    0.0000 C   0  0  0  0  0  0  0  0  0  0  0  0
   10.9434   -0.2528    0.0000 C   0  0  0  0  0  0  0  0  0  0  0  0
    2.8660   -5.6045    0.0000 C   0  0  0  0  0  0  0  0  0  0  0  0
    2.0000   -4.1045    0.0000 C   0  0  0  0  0  0  0  0  0  0  0  0
   10.8549    4.3289    0.0000 C   0  0  0  0  0  0  0  0  0  0  0  0
   13.7080    3.4019    0.0000 C   0  0  0  0  0  0  0  0  0  0  0  0
   12.5491    4.6890    0.0000 C   0  0  0  0  0  0  0  0  0  0  0  0
    7.2361    0.3709    0.0000 H   0  0  0  0  0  0  0  0  0  0  0  0
    7.4366    2.0632    0.0000 H   0  0  0  0  0  0  0  0  0  0  0  0
    6.7653    2.5509    0.0000 H   0  0  0  0  0  0  0  0  0  0  0  0
    4.9547    1.2354    0.0000 H   0  0  0  0  0  0  0  0  0  0  0  0
    5.2111    0.4463    0.0000 H   0  0  0  0  0  0  0  0  0  0  0  0
    5.8949    2.5509    0.0000 H   0  0  0  0  0  0  0  0  0  0  0  0
    5.2237    2.0632    0.0000 H   0  0  0  0  0  0  0  0  0  0  0  0
    6.0010   -1.4145    0.0000 H   0  0  0  0  0  0  0  0  0  0  0  0
    4.0420    0.4324    0.0000 H   0  0  0  0  0  0  0  0  0  0  0  0
    3.1951    0.2055    0.0000 H   0  0  0  0  0  0  0  0  0  0  0  0
    3.4220   -0.6414    0.0000 H   0  0  0  0  0  0  0  0  0  0  0  0
    3.5611   -1.1605    0.0000 H   0  0  0  0  0  0  0  0  0  0  0  0
    3.7881   -2.0075    0.0000 H   0  0  0  0  0  0  0  0  0  0  0  0
    4.6350   -1.7805    0.0000 H   0  0  0  0  0  0  0  0  0  0  0  0
    5.6350   -0.0485    0.0000 H   0  0  0  0  0  0  0  0  0  0  0  0
    5.4081    0.7985    0.0000 H   0  0  0  0  0  0  0  0  0  0  0  0
    4.5611    0.5715    0.0000 H   0  0  0  0  0  0  0  0  0  0  0  0
    6.0010   -2.4145    0.0000 H   0  0  0  0  0  0  0  0  0  0  0  0
    8.7044    1.9498    0.0000 H   0  0  0  0  0  0  0  0  0  0  0  0
    9.6555    1.6408    0.0000 H   0  0  0  0  0  0  0  0  0  0  0  0
    9.3727    0.0346    0.0000 H   0  0  0  0  0  0  0  0  0  0  0  0
    9.9060   -0.5577    0.0000 H   0  0  0  0  0  0  0  0  0  0  0  0
    3.7320   -3.4845    0.0000 H   0  0  0  0  0  0  0  0  0  0  0  0
    5.1350   -3.9145    0.0000 H   0  0  0  0  0  0  0  0  0  0  0  0
   10.4731    3.5424    0.0000 H   0  0  0  0  0  0  0  0  0  0  0  0
    9.7300    2.8732    0.0000 H   0  0  0  0  0  0  0  0  0  0  0  0
   11.7228    2.4943    0.0000 H   0  0  0  0  0  0  0  0  0  0  0  0
   12.5024    2.6600    0.0000 H   0  0  0  0  0  0  0  0  0  0  0  0
    3.9441   -5.6871    0.0000 H   0  0  0  0  0  0  0  0  0  0  0  0
    4.3426   -4.9968    0.0000 H   0  0  0  0  0  0  0  0  0  0  0  0
    3.2646   -3.1296    0.0000 H   0  0  0  0  0  0  0  0  0  0  0  0
    2.4675   -3.1296    0.0000 H   0  0  0  0  0  0  0  0  0  0  0  0
   12.8859    3.1044    0.0000 H   0  0  0  0  0  0  0  0  0  0  0  0
    2.5560   -5.0676    0.0000 H   0  0  0  0  0  0  0  0  0  0  0  0
    2.3291   -5.9145    0.0000 H   0  0  0  0  0  0  0  0  0  0  0  0
    3.1760   -6.1414    0.0000 H   0  0  0  0  0  0  0  0  0  0  0  0
    1.6900   -3.5676    0.0000 H   0  0  0  0  0  0  0  0  0  0  0  0
    1.4631   -4.4145    0.0000 H   0  0  0  0  0  0  0  0  0  0  0  0
    2.3100   -4.6414    0.0000 H   0  0  0  0  0  0  0  0  0  0  0  0
   13.5164    2.8122    0.0000 H   0  0  0  0  0  0  0  0  0  0  0  0
   14.2977    3.2103    0.0000 H   0  0  0  0  0  0  0  0  0  0  0  0
   13.8996    3.9915    0.0000 H   0  0  0  0  0  0  0  0  0  0  0  0
   13.1555    4.8180    0.0000 H   0  0  0  0  0  0  0  0  0  0  0  0
   12.4202    5.2955    0.0000 H   0  0  0  0  0  0  0  0  0  0  0  0
   11.9426    4.5601    0.0000 H   0  0  0  0  0  0  0  0  0  0  0  0
   11.7409   -1.4225    0.0000 H   0  0  0  0  0  0  0  0  0  0  0  0
   11.4691    5.6045    0.0000 H   0  0  0  0  0  0  0  0  0  0  0  0
  1 20  2  0  0  0  0
  2 21  2  0  0  0  0
  3 26  2  0  0  0  0
  4 29  2  0  0  0  0
  5 35  1  0  0  0  0
  5 86  1  0  0  0  0
  6 35  2  0  0  0  0
  7 38  1  0  0  0  0
  7 87  1  0  0  0  0
  8 38  2  0  0  0  0
  9 14  1  0  0  0  0
  9 16  1  0  0  0  0
  9 20  1  0  0  0  0
 18 10  1  1  0  0  0
 10 26  1  0  0  0  0
 10 58  1  0  0  0  0
 11 21  1  0  0  0  0
 25 11  1  6  0  0  0
 11 59  1  0  0  0  0
 12 26  1  0  0  0  0
 12 28  1  0  0  0  0
 12 64  1  0  0  0  0
 13 29  1  0  0  0  0
 30 13  1  6  0  0  0
 13 66  1  0  0  0  0
 14 15  1  0  0  0  0
 14 21  1  0  0  0  0
 14 41  1  0  0  0  0
 15 17  1  0  0  0  0
 15 42  1  0  0  0  0
 15 43  1  0  0  0  0
 16 17  1  0  0  0  0
 16 44  1  0  0  0  0
 16 45  1  0  0  0  0
 17 46  1  0  0  0  0
 17 47  1  0  0  0  0
 18 19  1  0  0  0  0
 18 20  1  0  0  0  0
 18 48  1  0  0  0  0
 19 22  1  0  0  0  0
 19 23  1  0  0  0  0
 19 24  1  0  0  0  0
 22 49  1  0  0  0  0
 22 50  1  0  0  0  0
 22 51  1  0  0  0  0
 23 52  1  0  0  0  0
 23 53  1  0  0  0  0
 23 54  1  0  0  0  0
 24 55  1  0  0  0  0
 24 56  1  0  0  0  0
 24 57  1  0  0  0  0
 25 27  1  0  0  0  0
 25 29  1  0  0  0  0
 25 60  1  0  0  0  0
 27 35  1  0  0  0  0
 27 61  1  0  0  0  0
 27 62  1  0  0  0  0
 28 32  1  0  0  0  0
 28 33  1  0  0  0  0
 28 63  1  0  0  0  0
 30 31  1  0  0  0  0
 30 38  1  0  0  0  0
 30 65  1  0  0  0  0
 31 34  1  0  0  0  0
 31 67  1  0  0  0  0
 31 68  1  0  0  0  0
 32 36  1  0  0  0  0
 32 69  1  0  0  0  0
 32 70  1  0  0  0  0
 33 37  1  0  0  0  0
 33 71  1  0  0  0  0
 33 72  1  0  0  0  0
 34 39  1  0  0  0  0
 34 40  1  0  0  0  0
 34 73  1  0  0  0  0
 36 74  1  0  0  0  0
 36 75  1  0  0  0  0
 36 76  1  0  0  0  0
 37 77  1  0  0  0  0
 37 78  1  0  0  0  0
 37 79  1  0  0  0  0
 39 80  1  0  0  0  0
 39 81  1  0  0  0  0
 39 82  1  0  0  0  0
 40 83  1  0  0  0  0
 40 84  1  0  0  0  0
 40 85  1  0  0  0  0
M  END
> <PUBCHEM_COMPOUND_CID>
515268
> <PUBCHEM_COMPOUND_CANONICALIZED>
1
> <PUBCHEM_CACTVS_COMPLEXITY>
928
> <PUBCHEM_CACTVS_HBOND_ACCEPTOR>
8
> <PUBCHEM_CACTVS_HBOND_DONOR>
6
> <PUBCHEM_CACTVS_ROTATABLE_BOND>
15
> <PUBCHEM_CACTVS_SUBSKEYS>
AAADcfB7vAAAAAAAAAAAAAAAAAAAAWAAAAAAAAAAAAAAAAAAAAAAHgAQCAAADyjBgAQDCAPAAgAIAAGQGAAAAAAAAAAAAIGIAACCQBoAgCAUQAAOFgKQAAC/AQANAAAAAAAAAAAAAAAAAAAAAAAAAAAAAA==
> <PUBCHEM_IUPAC_OPENEYE_NAME>
(2S)-2-[[(2S)-3-carboxy-2-[[1-[(2S)-2-(1-ethylpropylcarbamoylamino)-3,3-dimethyl-butanoyl]pyrrolidine-2-carbonyl]amino]propanoyl]amino]-4-methyl-pentanoic acid
> <PUBCHEM_IUPAC_CAS_NAME>
(2S)-2-[[(2S)-3-carboxy-2-[[[1-[(2S)-3,3-dimethyl-1-oxo-2-[[oxo-(pentan-3-ylamino)methyl]amino]butyl]-2-pyrrolidinyl]-oxomethyl]amino]-1-oxopropyl]amino]-4-methylpentanoic acid
> <PUBCHEM_IUPAC_NAME_MARKUP>
(2<I>S</I>)-2-[[(2<I>S</I>)-3-carboxy-2-[[1-[(2<I>S</I>)-3,3-dimethyl-2-(pentan-3-ylcarbamoylamino)butanoyl]pyrrolidine-2-carbonyl]amino]propanoyl]amino]-4-methylpentanoic acid
> <PUBCHEM_IUPAC_NAME>
(2S)-2-[[(2S)-3-carboxy-2-[[1-[(2S)-3,3-dimethyl-2-(pentan-3-ylcarbamoylamino)butanoyl]pyrrolidine-2-carbonyl]amino]propanoyl]amino]-4-methylpentanoic acid
> <PUBCHEM_IUPAC_SYSTEMATIC_NAME>
(2S)-2-[[(2S)-2-[[1-[(2S)-3,3-dimethyl-2-(pentan-3-ylcarbamoylamino)butanoyl]pyrrolidin-2-yl]carbonylamino]-4-oxidanyl-4-oxidanylidene-butanoyl]amino]-4-methyl-pentanoic acid
> <PUBCHEM_IUPAC_TRADITIONAL_NAME>
(2S)-2-[[(2S)-3-carboxy-2-[[1-[(2S)-2-(1-ethylpropylcarbamoylamino)-3,3-dimethyl-butanoyl]prolyl]amino]propanoyl]amino]-4-methyl-valeric acid
> <PUBCHEM_IUPAC_INCHI>
InChI=1S/C27H47N5O8/c1-8-16(9-2)28-26(40)31-21(27(5,6)7)24(37)32-12-10-11-19(32)23(36)29-17(14-20(33)34)22(35)30-18(25(38)39)13-15(3)4/h15-19,21H,8-14H2,1-7H3,(H,29,36)(H,30,35)(H,33,34)(H,38,39)(H2,28,31,40)/t17-,18-,19?,21+/m0/s1
> <PUBCHEM_IUPAC_INCHIKEY>
UBWLOPRRHAHAEP-TZARRNBISA-N
> <PUBCHEM_XLOGP3>
0.9
> <PUBCHEM_EXACT_MASS>
569.34246347
> <PUBCHEM_MOLECULAR_FORMULA>
C27H47N5O8
> <PUBCHEM_MOLECULAR_WEIGHT>
569.7
> <PUBCHEM_OPENEYE_CAN_SMILES>
CCC(CC)NC(=O)NC(C(=O)N1CCCC1C(=O)NC(CC(=O)O)C(=O)NC(CC(C)C)C(=O)O)C(C)(C)C
> <PUBCHEM_OPENEYE_ISO_SMILES>
CCC(CC)NC(=O)N[C@H](C(=O)N1CCCC1C(=O)N[C@@H](CC(=O)O)C(=O)N[C@@H](CC(C)C)C(=O)O)C(C)(C)C
> <PUBCHEM_CACTVS_TPSA>
194
> <PUBCHEM_MONOISOTOPIC_WEIGHT>
569.34246347
> <PUBCHEM_TOTAL_CHARGE>
0
> <PUBCHEM_HEAVY_ATOM_COUNT>
40
> <PUBCHEM_ATOM_DEF_STEREO_COUNT>
3
> <PUBCHEM_ATOM_UDEF_STEREO_COUNT>
1
> <PUBCHEM_BOND_DEF_STEREO_COUNT>
0
> <PUBCHEM_BOND_UDEF_STEREO_COUNT>
0
> <PUBCHEM_ISOTOPIC_ATOM_COUNT>
0
> <PUBCHEM_COMPONENT_COUNT>
1
> <PUBCHEM_CACTVS_TAUTO_COUNT>
-1
> <PUBCHEM_COORDINATE_TYPE>
1
5
255
> <PUBCHEM_BONDANNOTATIONS>
18  10  5
25  11  6
30  13  6
14  21  3
$$$$
