515269
  -OEChem-10302200282D
 83 82  0     1  0  0  0  0  0999 V2000
   10.6603    1.6900    0.0000 O   0  0  0  0  0  0  0  0  0  0  0  0
   13.2583   -0.8100    0.0000 O   0  0  0  0  0  0  0  0  0  0  0  0
    8.0622   -0.8100    0.0000 O   0  0  0  0  0  0  0  0  0  0  0  0
    4.5981    0.1900    0.0000 O   0  0  0  0  0  0  0  0  0  0  0  0
    3.7320    3.6900    0.0000 O   0  0  0  0  0  0  0  0  0  0  0  0
    5.4641    3.6900    0.0000 O   0  0  0  0  0  0  0  0  0  0  0  0
    5.4641   -2.3100    0.0000 O   0  0  0  0  0  0  0  0  0  0  0  0
    4.5981   -0.8100    0.0000 O   0  0  0  0  0  0  0  0  0  0  0  0
   11.5263   -0.8100    0.0000 N   0  0  0  0  0  0  0  0  0  0  0  0
    9.7942    0.1900    0.0000 N   0  0  0  0  0  0  0  0  0  0  0  0
   12.3923   -2.3100    0.0000 N   0  0  0  0  0  0  0  0  0  0  0  0
    7.1962    0.6900    0.0000 N   0  0  0  0  0  0  0  0  0  0  0  0
    5.4641    1.6900    0.0000 N   0  0  0  0  0  0  0  0  0  0  0  0
   12.3923    0.6900    0.0000 C   0  0  0  0  0  0  0  0  0  0  0  0
   11.5263    0.1900    0.0000 C   0  0  1  0  0  0  0  0  0  0  0  0
   13.2583    1.1900    0.0000 C   0  0  0  0  0  0  0  0  0  0  0  0
   12.8923   -0.1760    0.0000 C   0  0  0  0  0  0  0  0  0  0  0  0
   11.8923    1.5560    0.0000 C   0  0  0  0  0  0  0  0  0  0  0  0
   10.6603    0.6900    0.0000 C   0  0  0  0  0  0  0  0  0  0  0  0
    8.9282    0.6900    0.0000 C   0  0  3  0  0  0  0  0  0  0  0  0
   13.2583   -2.8100    0.0000 C   0  0  0  0  0  0  0  0  0  0  0  0
   12.3923   -1.3100    0.0000 C   0  0  0  0  0  0  0  0  0  0  0  0
    3.7320    1.6900    0.0000 C   0  0  0  0  0  0  0  0  0  0  0  0
    2.8660    2.1900    0.0000 C   0  0  0  0  0  0  0  0  0  0  0  0
    4.5981    2.1900    0.0000 C   0  0  1  0  0  0  0  0  0  0  0  0
    6.3301    0.1900    0.0000 C   0  0  2  0  0  0  0  0  0  0  0  0
   13.2583   -3.8100    0.0000 C   0  0  0  0  0  0  0  0  0  0  0  0
   14.1244   -2.3100    0.0000 C   0  0  0  0  0  0  0  0  0  0  0  0
    8.0622    0.1900    0.0000 C   0  0  0  0  0  0  0  0  0  0  0  0
    8.9282    1.6900    0.0000 C   0  0  0  0  0  0  0  0  0  0  0  0
    5.4641    0.6900    0.0000 C   0  0  0  0  0  0  0  0  0  0  0  0
    6.3301   -0.8100    0.0000 C   0  0  0  0  0  0  0  0  0  0  0  0
    2.0000    1.6900    0.0000 C   0  0  0  0  0  0  0  0  0  0  0  0
    2.8660    3.1900    0.0000 C   0  0  0  0  0  0  0  0  0  0  0  0
   14.1244   -4.3100    0.0000 C   0  0  0  0  0  0  0  0  0  0  0  0
   14.9904   -2.8100    0.0000 C   0  0  0  0  0  0  0  0  0  0  0  0
    4.5981    3.1900    0.0000 C   0  0  0  0  0  0  0  0  0  0  0  0
    5.4641   -1.3100    0.0000 C   0  0  0  0  0  0  0  0  0  0  0  0
   12.0632   -0.1200    0.0000 H   0  0  0  0  0  0  0  0  0  0  0  0
   13.5683    0.6531    0.0000 H   0  0  0  0  0  0  0  0  0  0  0  0
   13.7953    1.5000    0.0000 H   0  0  0  0  0  0  0  0  0  0  0  0
   12.9483    1.7269    0.0000 H   0  0  0  0  0  0  0  0  0  0  0  0
   12.3554   -0.4860    0.0000 H   0  0  0  0  0  0  0  0  0  0  0  0
   13.2023   -0.7130    0.0000 H   0  0  0  0  0  0  0  0  0  0  0  0
   13.4292    0.1340    0.0000 H   0  0  0  0  0  0  0  0  0  0  0  0
   12.4292    1.8660    0.0000 H   0  0  0  0  0  0  0  0  0  0  0  0
   11.5823    2.0930    0.0000 H   0  0  0  0  0  0  0  0  0  0  0  0
   11.3554    1.2460    0.0000 H   0  0  0  0  0  0  0  0  0  0  0  0
   10.9893   -1.1200    0.0000 H   0  0  0  0  0  0  0  0  0  0  0  0
    9.7942   -0.4300    0.0000 H   0  0  0  0  0  0  0  0  0  0  0  0
    9.4651    1.0000    0.0000 H   0  0  0  0  0  0  0  0  0  0  0  0
   13.2583   -2.1900    0.0000 H   0  0  0  0  0  0  0  0  0  0  0  0
    3.3335    1.2150    0.0000 H   0  0  0  0  0  0  0  0  0  0  0  0
    4.1306    1.2150    0.0000 H   0  0  0  0  0  0  0  0  0  0  0  0
   11.8554   -2.6200    0.0000 H   0  0  0  0  0  0  0  0  0  0  0  0
    2.8660    1.5700    0.0000 H   0  0  0  0  0  0  0  0  0  0  0  0
    4.5981    1.5700    0.0000 H   0  0  0  0  0  0  0  0  0  0  0  0
    6.8671   -0.1200    0.0000 H   0  0  0  0  0  0  0  0  0  0  0  0
   12.6477   -3.7023    0.0000 H   0  0  0  0  0  0  0  0  0  0  0  0
   13.0463   -4.3926    0.0000 H   0  0  0  0  0  0  0  0  0  0  0  0
   14.5229   -1.8350    0.0000 H   0  0  0  0  0  0  0  0  0  0  0  0
   13.7258   -1.8350    0.0000 H   0  0  0  0  0  0  0  0  0  0  0  0
    9.5482    1.6900    0.0000 H   0  0  0  0  0  0  0  0  0  0  0  0
    8.9282    2.3100    0.0000 H   0  0  0  0  0  0  0  0  0  0  0  0
    8.3082    1.6900    0.0000 H   0  0  0  0  0  0  0  0  0  0  0  0
    7.1962    1.3100    0.0000 H   0  0  0  0  0  0  0  0  0  0  0  0
    6.0010    2.0000    0.0000 H   0  0  0  0  0  0  0  0  0  0  0  0
    6.5422   -1.3926    0.0000 H   0  0  0  0  0  0  0  0  0  0  0  0
    6.9407   -0.7023    0.0000 H   0  0  0  0  0  0  0  0  0  0  0  0
    1.6900    2.2269    0.0000 H   0  0  0  0  0  0  0  0  0  0  0  0
    1.4631    1.3800    0.0000 H   0  0  0  0  0  0  0  0  0  0  0  0
    2.3100    1.1531    0.0000 H   0  0  0  0  0  0  0  0  0  0  0  0
    3.4860    3.1900    0.0000 H   0  0  0  0  0  0  0  0  0  0  0  0
    2.8660    3.8100    0.0000 H   0  0  0  0  0  0  0  0  0  0  0  0
    2.2460    3.1900    0.0000 H   0  0  0  0  0  0  0  0  0  0  0  0
   13.8144   -4.8469    0.0000 H   0  0  0  0  0  0  0  0  0  0  0  0
   14.6613   -4.6200    0.0000 H   0  0  0  0  0  0  0  0  0  0  0  0
   14.4344   -3.7731    0.0000 H   0  0  0  0  0  0  0  0  0  0  0  0
   14.6804   -3.3469    0.0000 H   0  0  0  0  0  0  0  0  0  0  0  0
   15.5273   -3.1200    0.0000 H   0  0  0  0  0  0  0  0  0  0  0  0
   15.3004   -2.2731    0.0000 H   0  0  0  0  0  0  0  0  0  0  0  0
    3.7320    4.3100    0.0000 H   0  0  0  0  0  0  0  0  0  0  0  0
    4.9272   -2.6200    0.0000 H   0  0  0  0  0  0  0  0  0  0  0  0
  1 19  2  0  0  0  0
  2 22  2  0  0  0  0
  3 29  2  0  0  0  0
  4 31  2  0  0  0  0
  5 37  1  0  0  0  0
  5 82  1  0  0  0  0
  6 37  2  0  0  0  0
  7 38  1  0  0  0  0
  7 83  1  0  0  0  0
  8 38  2  0  0  0  0
 15  9  1  6  0  0  0
  9 22  1  0  0  0  0
  9 49  1  0  0  0  0
 10 19  1  0  0  0  0
 10 20  1  0  0  0  0
 10 50  1  0  0  0  0
 11 21  1  0  0  0  0
 11 22  1  0  0  0  0
 11 55  1  0  0  0  0
 26 12  1  1  0  0  0
 12 29  1  0  0  0  0
 12 66  1  0  0  0  0
 25 13  1  1  0  0  0
 13 31  1  0  0  0  0
 13 67  1  0  0  0  0
 14 15  1  0  0  0  0
 14 16  1  0  0  0  0
 14 17  1  0  0  0  0
 14 18  1  0  0  0  0
 15 19  1  0  0  0  0
 15 39  1  0  0  0  0
 16 40  1  0  0  0  0
 16 41  1  0  0  0  0
 16 42  1  0  0  0  0
 17 43  1  0  0  0  0
 17 44  1  0  0  0  0
 17 45  1  0  0  0  0
 18 46  1  0  0  0  0
 18 47  1  0  0  0  0
 18 48  1  0  0  0  0
 20 29  1  0  0  0  0
 20 30  1  0  0  0  0
 20 51  1  0  0  0  0
 21 27  1  0  0  0  0
 21 28  1  0  0  0  0
 21 52  1  0  0  0  0
 23 24  1  0  0  0  0
 23 25  1  0  0  0  0
 23 53  1  0  0  0  0
 23 54  1  0  0  0  0
 24 33  1  0  0  0  0
 24 34  1  0  0  0  0
 24 56  1  0  0  0  0
 25 37  1  0  0  0  0
 25 57  1  0  0  0  0
 26 31  1  0  0  0  0
 26 32  1  0  0  0  0
 26 58  1  0  0  0  0
 27 35  1  0  0  0  0
 27 59  1  0  0  0  0
 27 60  1  0  0  0  0
 28 36  1  0  0  0  0
 28 61  1  0  0  0  0
 28 62  1  0  0  0  0
 30 63  1  0  0  0  0
 30 64  1  0  0  0  0
 30 65  1  0  0  0  0
 32 38  1  0  0  0  0
 32 68  1  0  0  0  0
 32 69  1  0  0  0  0
 33 70  1  0  0  0  0
 33 71  1  0  0  0  0
 33 72  1  0  0  0  0
 34 73  1  0  0  0  0
 34 74  1  0  0  0  0
 34 75  1  0  0  0  0
 35 76  1  0  0  0  0
 35 77  1  0  0  0  0
 35 78  1  0  0  0  0
 36 79  1  0  0  0  0
 36 80  1  0  0  0  0
 36 81  1  0  0  0  0
M  END
> <PUBCHEM_COMPOUND_CID>
515269
> <PUBCHEM_COMPOUND_CANONICALIZED>
1
> <PUBCHEM_CACTVS_COMPLEXITY>
851
> <PUBCHEM_CACTVS_HBOND_ACCEPTOR>
8
> <PUBCHEM_CACTVS_HBOND_DONOR>
7
> <PUBCHEM_CACTVS_ROTATABLE_BOND>
16
> <PUBCHEM_CACTVS_SUBSKEYS>
AAADcfB7vAAAAAAAAAAAAAAAAAAAAAAAAAAAAAAAAAAAAAAAAAAAHgAQCAAADyjBgAQDCALAAgAIAAGQGAAAAAAAAAAAAIGIAACCQBoAgCAUQAAOFgKQAACvAAANAAAAAAAAAAAAAAAAAAAAAAAAAAAAAA==
> <PUBCHEM_IUPAC_OPENEYE_NAME>
(2S)-2-[[(2S)-3-carboxy-2-[2-[[(2S)-2-(1-ethylpropylcarbamoylamino)-3,3-dimethyl-butanoyl]amino]propanoylamino]propanoyl]amino]-4-methyl-pentanoic acid
> <PUBCHEM_IUPAC_CAS_NAME>
(2S)-2-[[(2S)-3-carboxy-2-[[2-[[(2S)-3,3-dimethyl-1-oxo-2-[[oxo-(pentan-3-ylamino)methyl]amino]butyl]amino]-1-oxopropyl]amino]-1-oxopropyl]amino]-4-methylpentanoic acid
> <PUBCHEM_IUPAC_NAME_MARKUP>
(2<I>S</I>)-2-[[(2<I>S</I>)-3-carboxy-2-[2-[[(2<I>S</I>)-3,3-dimethyl-2-(pentan-3-ylcarbamoylamino)butanoyl]amino]propanoylamino]propanoyl]amino]-4-methylpentanoic acid
> <PUBCHEM_IUPAC_NAME>
(2S)-2-[[(2S)-3-carboxy-2-[2-[[(2S)-3,3-dimethyl-2-(pentan-3-ylcarbamoylamino)butanoyl]amino]propanoylamino]propanoyl]amino]-4-methylpentanoic acid
> <PUBCHEM_IUPAC_SYSTEMATIC_NAME>
(2S)-2-[[(2S)-2-[2-[[(2S)-3,3-dimethyl-2-(pentan-3-ylcarbamoylamino)butanoyl]amino]propanoylamino]-4-oxidanyl-4-oxidanylidene-butanoyl]amino]-4-methyl-pentanoic acid
> <PUBCHEM_IUPAC_TRADITIONAL_NAME>
(2S)-2-[[(2S)-3-carboxy-2-[2-[[(2S)-2-(1-ethylpropylcarbamoylamino)-3,3-dimethyl-butanoyl]amino]propanoylamino]propanoyl]amino]-4-methyl-valeric acid
> <PUBCHEM_IUPAC_INCHI>
InChI=1S/C25H45N5O8/c1-9-15(10-2)27-24(38)30-19(25(6,7)8)22(35)26-14(5)20(33)28-16(12-18(31)32)21(34)29-17(23(36)37)11-13(3)4/h13-17,19H,9-12H2,1-8H3,(H,26,35)(H,28,33)(H,29,34)(H,31,32)(H,36,37)(H2,27,30,38)/t14?,16-,17-,19+/m0/s1
> <PUBCHEM_IUPAC_INCHIKEY>
CCORZXPYDRTOSV-VOSOLIDTSA-N
> <PUBCHEM_XLOGP3_AA>
2.3
> <PUBCHEM_EXACT_MASS>
543.32681341
> <PUBCHEM_MOLECULAR_FORMULA>
C25H45N5O8
> <PUBCHEM_MOLECULAR_WEIGHT>
543.7
> <PUBCHEM_OPENEYE_CAN_SMILES>
CCC(CC)NC(=O)NC(C(=O)NC(C)C(=O)NC(CC(=O)O)C(=O)NC(CC(C)C)C(=O)O)C(C)(C)C
> <PUBCHEM_OPENEYE_ISO_SMILES>
CCC(CC)NC(=O)N[C@H](C(=O)NC(C)C(=O)N[C@@H](CC(=O)O)C(=O)N[C@@H](CC(C)C)C(=O)O)C(C)(C)C
> <PUBCHEM_CACTVS_TPSA>
203
> <PUBCHEM_MONOISOTOPIC_WEIGHT>
543.32681341
> <PUBCHEM_TOTAL_CHARGE>
0
> <PUBCHEM_HEAVY_ATOM_COUNT>
38
> <PUBCHEM_ATOM_DEF_STEREO_COUNT>
3
> <PUBCHEM_ATOM_UDEF_STEREO_COUNT>
1
> <PUBCHEM_BOND_DEF_STEREO_COUNT>
0
> <PUBCHEM_BOND_UDEF_STEREO_COUNT>
0
> <PUBCHEM_ISOTOPIC_ATOM_COUNT>
0
> <PUBCHEM_COMPONENT_COUNT>
1
> <PUBCHEM_CACTVS_TAUTO_COUNT>
-1
> <PUBCHEM_COORDINATE_TYPE>
1
5
255
> <PUBCHEM_BONDANNOTATIONS>
26  12  5
25  13  5
20  30  3
15  9  6
$$$$
