515200
  -OEChem-10302200282D
 46 48  0     1  0  0  0  0  0999 V2000
    7.2627   -0.1865    0.0000 O   0  0  0  0  0  0  0  0  0  0  0  0
    4.7406   -2.5779    0.0000 O   0  0  0  0  0  0  0  0  0  0  0  0
    6.3962   -0.6865    0.0000 N   0  0  3  0  0  0  0  0  0  0  0  0
    6.3962    0.3135    0.0000 C   0  0  1  0  0  0  0  0  0  0  0  0
    5.4451   -0.9955    0.0000 C   0  0  1  0  0  0  0  0  0  0  0  0
    5.4451    0.6225    0.0000 C   0  0  0  0  0  0  0  0  0  0  0  0
    4.8573   -0.1865    0.0000 C   0  0  0  0  0  0  0  0  0  0  0  0
    5.7541   -1.9466    0.0000 C   0  0  0  0  0  0  0  0  0  0  0  0
    6.3962    1.3135    0.0000 C   0  0  0  0  0  0  0  0  0  0  0  0
    4.6361   -1.5833    0.0000 C   0  0  0  0  0  0  0  0  0  0  0  0
    6.7323   -2.1545    0.0000 C   0  0  0  0  0  0  0  0  0  0  0  0
    3.7226   -1.1766    0.0000 C   0  0  0  0  0  0  0  0  0  0  0  0
    5.5302    1.8135    0.0000 C   0  0  0  0  0  0  0  0  0  0  0  0
    7.2622    1.8135    0.0000 C   0  0  0  0  0  0  0  0  0  0  0  0
    7.0413   -3.1056    0.0000 C   0  0  0  0  0  0  0  0  0  0  0  0
    2.9136   -1.7644    0.0000 C   0  0  0  0  0  0  0  0  0  0  0  0
    5.5302    2.8135    0.0000 C   0  0  0  0  0  0  0  0  0  0  0  0
    7.2622    2.8135    0.0000 C   0  0  0  0  0  0  0  0  0  0  0  0
    8.0195   -3.3135    0.0000 C   0  0  0  0  0  0  0  0  0  0  0  0
    6.3962    3.3135    0.0000 C   0  0  0  0  0  0  0  0  0  0  0  0
    2.0000   -1.3576    0.0000 C   0  0  0  0  0  0  0  0  0  0  0  0
    5.6973    1.1889    0.0000 H   0  0  0  0  0  0  0  0  0  0  0  0
    4.9082    0.9325    0.0000 H   0  0  0  0  0  0  0  0  0  0  0  0
    4.3966    0.2283    0.0000 H   0  0  0  0  0  0  0  0  0  0  0  0
    4.3966   -0.6014    0.0000 H   0  0  0  0  0  0  0  0  0  0  0  0
    5.1402   -2.0329    0.0000 H   0  0  0  0  0  0  0  0  0  0  0  0
    5.7325   -2.5662    0.0000 H   0  0  0  0  0  0  0  0  0  0  0  0
    7.3463   -2.0682    0.0000 H   0  0  0  0  0  0  0  0  0  0  0  0
    6.7539   -1.5349    0.0000 H   0  0  0  0  0  0  0  0  0  0  0  0
    4.0693   -0.6626    0.0000 H   0  0  0  0  0  0  0  0  0  0  0  0
    3.2766   -0.7459    0.0000 H   0  0  0  0  0  0  0  0  0  0  0  0
    4.9932    1.5035    0.0000 H   0  0  0  0  0  0  0  0  0  0  0  0
    7.7991    1.5035    0.0000 H   0  0  0  0  0  0  0  0  0  0  0  0
    6.4273   -3.1918    0.0000 H   0  0  0  0  0  0  0  0  0  0  0  0
    7.0197   -3.7252    0.0000 H   0  0  0  0  0  0  0  0  0  0  0  0
    2.5668   -2.2784    0.0000 H   0  0  0  0  0  0  0  0  0  0  0  0
    3.3595   -2.1951    0.0000 H   0  0  0  0  0  0  0  0  0  0  0  0
    4.9932    3.1235    0.0000 H   0  0  0  0  0  0  0  0  0  0  0  0
    7.7991    3.1235    0.0000 H   0  0  0  0  0  0  0  0  0  0  0  0
    7.8906   -3.9199    0.0000 H   0  0  0  0  0  0  0  0  0  0  0  0
    8.6259   -3.4424    0.0000 H   0  0  0  0  0  0  0  0  0  0  0  0
    8.1484   -2.7070    0.0000 H   0  0  0  0  0  0  0  0  0  0  0  0
    6.3962    3.9335    0.0000 H   0  0  0  0  0  0  0  0  0  0  0  0
    2.2522   -0.7912    0.0000 H   0  0  0  0  0  0  0  0  0  0  0  0
    1.4336   -1.1055    0.0000 H   0  0  0  0  0  0  0  0  0  0  0  0
    1.7478   -1.9240    0.0000 H   0  0  0  0  0  0  0  0  0  0  0  0
  1  3  1  0  0  0  0
  1  4  1  0  0  0  0
  2 10  2  0  0  0  0
  3  4  1  0  0  0  0
  3  5  1  0  0  0  0
  4  6  1  0  0  0  0
  4  9  1  6  0  0  0
  5  7  1  0  0  0  0
  5  8  1  6  0  0  0
  5 10  1  0  0  0  0
  6  7  1  0  0  0  0
  6 22  1  0  0  0  0
  6 23  1  0  0  0  0
  7 24  1  0  0  0  0
  7 25  1  0  0  0  0
  8 11  1  0  0  0  0
  8 26  1  0  0  0  0
  8 27  1  0  0  0  0
  9 13  2  0  0  0  0
  9 14  1  0  0  0  0
 10 12  1  0  0  0  0
 11 15  1  0  0  0  0
 11 28  1  0  0  0  0
 11 29  1  0  0  0  0
 12 16  1  0  0  0  0
 12 30  1  0  0  0  0
 12 31  1  0  0  0  0
 13 17  1  0  0  0  0
 13 32  1  0  0  0  0
 14 18  2  0  0  0  0
 14 33  1  0  0  0  0
 15 19  1  0  0  0  0
 15 34  1  0  0  0  0
 15 35  1  0  0  0  0
 16 21  1  0  0  0  0
 16 36  1  0  0  0  0
 16 37  1  0  0  0  0
 17 20  2  0  0  0  0
 17 38  1  0  0  0  0
 18 20  1  0  0  0  0
 18 39  1  0  0  0  0
 19 40  1  0  0  0  0
 19 41  1  0  0  0  0
 19 42  1  0  0  0  0
 20 43  1  0  0  0  0
 21 44  1  0  0  0  0
 21 45  1  0  0  0  0
 21 46  1  0  0  0  0
M  END
> <PUBCHEM_COMPOUND_CID>
515200
> <PUBCHEM_COMPOUND_CANONICALIZED>
1
> <PUBCHEM_CACTVS_COMPLEXITY>
391
> <PUBCHEM_CACTVS_HBOND_ACCEPTOR>
3
> <PUBCHEM_CACTVS_HBOND_DONOR>
0
> <PUBCHEM_CACTVS_ROTATABLE_BOND>
7
> <PUBCHEM_CACTVS_SUBSKEYS>
AAADceB6MAAAAAAAAAAAAAAAFgAAAWAAAAA8QAAAAAAAAAABAAAAHgAEAAAADIyBmAAyAIIQAACIAqBSAACCAAAgAAAoiAGADIgIJjKAkTGEMAhkwAGIiAe4zeDeAAAAAAAAAAAAAAAAAAAAAAAAAAAAAA==
> <PUBCHEM_IUPAC_OPENEYE_NAME>
1-[(2R,5S)-2-butyl-5-phenyl-6-oxa-1-azabicyclo[3.1.0]hexan-2-yl]butan-1-one
> <PUBCHEM_IUPAC_CAS_NAME>
1-[(2R,5S)-2-butyl-5-phenyl-6-oxa-1-azabicyclo[3.1.0]hexan-2-yl]-1-butanone
> <PUBCHEM_IUPAC_NAME_MARKUP>
1-[(2<I>R</I>,5<I>S</I>)-2-butyl-5-phenyl-6-oxa-1-azabicyclo[3.1.0]hexan-2-yl]butan-1-one
> <PUBCHEM_IUPAC_NAME>
1-[(2R,5S)-2-butyl-5-phenyl-6-oxa-1-azabicyclo[3.1.0]hexan-2-yl]butan-1-one
> <PUBCHEM_IUPAC_SYSTEMATIC_NAME>
1-[(2R,5S)-2-butyl-5-phenyl-6-oxa-1-azabicyclo[3.1.0]hexan-2-yl]butan-1-one
> <PUBCHEM_IUPAC_TRADITIONAL_NAME>
1-[(2R,5S)-2-butyl-5-phenyl-6-oxa-1-azabicyclo[3.1.0]hexan-2-yl]butan-1-one
> <PUBCHEM_IUPAC_INCHI>
InChI=1S/C18H25NO2/c1-3-5-12-17(16(20)9-4-2)13-14-18(19(17)21-18)15-10-7-6-8-11-15/h6-8,10-11H,3-5,9,12-14H2,1-2H3/t17-,18+,19?/m1/s1
> <PUBCHEM_IUPAC_INCHIKEY>
GMKVIQXJQUSVGX-YTYFACEESA-N
> <PUBCHEM_XLOGP3_AA>
4.2
> <PUBCHEM_EXACT_MASS>
287.188529040
> <PUBCHEM_MOLECULAR_FORMULA>
C18H25NO2
> <PUBCHEM_MOLECULAR_WEIGHT>
287.4
> <PUBCHEM_OPENEYE_CAN_SMILES>
CCCCC1(CCC2(N1O2)C3=CC=CC=C3)C(=O)CCC
> <PUBCHEM_OPENEYE_ISO_SMILES>
CCCC[C@@]1(CC[C@@]2(N1O2)C3=CC=CC=C3)C(=O)CCC
> <PUBCHEM_CACTVS_TPSA>
32.6
> <PUBCHEM_MONOISOTOPIC_WEIGHT>
287.188529040
> <PUBCHEM_TOTAL_CHARGE>
0
> <PUBCHEM_HEAVY_ATOM_COUNT>
21
> <PUBCHEM_ATOM_DEF_STEREO_COUNT>
2
> <PUBCHEM_ATOM_UDEF_STEREO_COUNT>
0
> <PUBCHEM_BOND_DEF_STEREO_COUNT>
0
> <PUBCHEM_BOND_UDEF_STEREO_COUNT>
0
> <PUBCHEM_ISOTOPIC_ATOM_COUNT>
0
> <PUBCHEM_COMPONENT_COUNT>
1
> <PUBCHEM_CACTVS_TAUTO_COUNT>
-1
> <PUBCHEM_COORDINATE_TYPE>
1
5
255
> <PUBCHEM_BONDANNOTATIONS>
13  17  8
14  18  8
17  20  8
18  20  8
4  9  6
5  8  6
9  13  8
9  14  8
$$$$
