515281
  -OEChem-10302200282D
 94 94  0     1  0  0  0  0  0999 V2000
    8.0622    1.9136    0.0000 O   0  0  0  0  0  0  0  0  0  0  0  0
   11.5263    1.9136    0.0000 O   0  0  0  0  0  0  0  0  0  0  0  0
   11.5263    0.9136    0.0000 O   0  0  0  0  0  0  0  0  0  0  0  0
    5.4641   -0.5864    0.0000 O   0  0  0  0  0  0  0  0  0  0  0  0
   12.3923   -2.5864    0.0000 O   0  0  0  0  0  0  0  0  0  0  0  0
   14.1244   -0.5864    0.0000 O   0  0  0  0  0  0  0  0  0  0  0  0
   13.2583   -2.0864    0.0000 O   0  0  0  0  0  0  0  0  0  0  0  0
   10.6603    3.4136    0.0000 N   0  0  0  0  0  0  0  0  0  0  0  0
    8.9282    0.4136    0.0000 N   0  0  0  0  0  0  0  0  0  0  0  0
    6.3301    0.9136    0.0000 N   0  0  0  0  0  0  0  0  0  0  0  0
   10.6603   -0.5864    0.0000 N   0  0  0  0  0  0  0  0  0  0  0  0
    4.5981    0.9136    0.0000 N   0  0  0  0  0  0  0  0  0  0  0  0
   10.6603   -2.5864    0.0000 N   0  0  0  0  0  0  0  0  0  0  0  0
    7.1962   -0.5864    0.0000 C   0  0  0  0  0  0  0  0  0  0  0  0
    7.1962    0.4136    0.0000 C   0  0  1  0  0  0  0  0  0  0  0  0
   11.4693    4.0014    0.0000 C   0  0  0  0  0  0  0  0  0  0  0  0
    9.8512    4.0014    0.0000 C   0  0  0  0  0  0  0  0  0  0  0  0
   11.1603    4.9524    0.0000 C   0  0  0  0  0  0  0  0  0  0  0  0
   10.1603    4.9524    0.0000 C   0  0  0  0  0  0  0  0  0  0  0  0
    9.7942    0.9136    0.0000 C   0  0  1  0  0  0  0  0  0  0  0  0
    9.7942    1.9136    0.0000 C   0  0  0  0  0  0  0  0  0  0  0  0
    7.1962   -1.5864    0.0000 C   0  0  0  0  0  0  0  0  0  0  0  0
    6.1962   -0.5864    0.0000 C   0  0  0  0  0  0  0  0  0  0  0  0
    8.1962   -0.5864    0.0000 C   0  0  0  0  0  0  0  0  0  0  0  0
    8.0622    0.9136    0.0000 C   0  0  0  0  0  0  0  0  0  0  0  0
   10.6603    2.4136    0.0000 C   0  0  0  0  0  0  0  0  0  0  0  0
   10.6603    0.4136    0.0000 C   0  0  0  0  0  0  0  0  0  0  0  0
    9.7942   -4.0864    0.0000 C   0  0  0  0  0  0  0  0  0  0  0  0
   11.5263   -1.0864    0.0000 C   0  0  2  0  0  0  0  0  0  0  0  0
    5.4641    0.4136    0.0000 C   0  0  0  0  0  0  0  0  0  0  0  0
   10.6603   -3.5864    0.0000 C   0  0  0  0  0  0  0  0  0  0  0  0
    3.7320    0.4136    0.0000 C   0  0  0  0  0  0  0  0  0  0  0  0
   11.5263   -2.0864    0.0000 C   0  0  0  0  0  0  0  0  0  0  0  0
    8.9282   -4.5864    0.0000 C   0  0  0  0  0  0  0  0  0  0  0  0
   10.2942   -4.9524    0.0000 C   0  0  0  0  0  0  0  0  0  0  0  0
    9.2942   -3.2204    0.0000 C   0  0  0  0  0  0  0  0  0  0  0  0
   12.3923   -0.5864    0.0000 C   0  0  0  0  0  0  0  0  0  0  0  0
    2.8660    0.9136    0.0000 C   0  0  0  0  0  0  0  0  0  0  0  0
    3.7320   -0.5864    0.0000 C   0  0  0  0  0  0  0  0  0  0  0  0
    2.0000    0.4136    0.0000 C   0  0  0  0  0  0  0  0  0  0  0  0
    2.8660   -1.0864    0.0000 C   0  0  0  0  0  0  0  0  0  0  0  0
   13.2583   -1.0864    0.0000 C   0  0  0  0  0  0  0  0  0  0  0  0
    6.6592    0.1036    0.0000 H   0  0  0  0  0  0  0  0  0  0  0  0
   11.7793    3.4644    0.0000 H   0  0  0  0  0  0  0  0  0  0  0  0
   12.0357    4.2536    0.0000 H   0  0  0  0  0  0  0  0  0  0  0  0
    9.2848    4.2536    0.0000 H   0  0  0  0  0  0  0  0  0  0  0  0
    9.5412    3.4644    0.0000 H   0  0  0  0  0  0  0  0  0  0  0  0
   11.7667    5.0813    0.0000 H   0  0  0  0  0  0  0  0  0  0  0  0
   11.0954    5.5690    0.0000 H   0  0  0  0  0  0  0  0  0  0  0  0
   10.2251    5.5690    0.0000 H   0  0  0  0  0  0  0  0  0  0  0  0
    9.5538    5.0813    0.0000 H   0  0  0  0  0  0  0  0  0  0  0  0
    9.2573    1.2236    0.0000 H   0  0  0  0  0  0  0  0  0  0  0  0
    9.5822    2.4962    0.0000 H   0  0  0  0  0  0  0  0  0  0  0  0
    9.1836    1.8059    0.0000 H   0  0  0  0  0  0  0  0  0  0  0  0
    6.5762   -1.5864    0.0000 H   0  0  0  0  0  0  0  0  0  0  0  0
    7.1962   -2.2064    0.0000 H   0  0  0  0  0  0  0  0  0  0  0  0
    7.8162   -1.5864    0.0000 H   0  0  0  0  0  0  0  0  0  0  0  0
    6.1962    0.0336    0.0000 H   0  0  0  0  0  0  0  0  0  0  0  0
    5.5762   -0.5864    0.0000 H   0  0  0  0  0  0  0  0  0  0  0  0
    6.1962   -1.2064    0.0000 H   0  0  0  0  0  0  0  0  0  0  0  0
    8.1962   -1.2064    0.0000 H   0  0  0  0  0  0  0  0  0  0  0  0
    8.8162   -0.5864    0.0000 H   0  0  0  0  0  0  0  0  0  0  0  0
    8.1962    0.0336    0.0000 H   0  0  0  0  0  0  0  0  0  0  0  0
    8.9282   -0.2064    0.0000 H   0  0  0  0  0  0  0  0  0  0  0  0
    6.3301    1.5336    0.0000 H   0  0  0  0  0  0  0  0  0  0  0  0
   10.9893   -1.3964    0.0000 H   0  0  0  0  0  0  0  0  0  0  0  0
   10.1233   -0.8964    0.0000 H   0  0  0  0  0  0  0  0  0  0  0  0
   10.8723   -4.1690    0.0000 H   0  0  0  0  0  0  0  0  0  0  0  0
   11.2708   -3.4788    0.0000 H   0  0  0  0  0  0  0  0  0  0  0  0
    3.7320    1.0336    0.0000 H   0  0  0  0  0  0  0  0  0  0  0  0
    4.5981    1.5336    0.0000 H   0  0  0  0  0  0  0  0  0  0  0  0
   10.1233   -2.2764    0.0000 H   0  0  0  0  0  0  0  0  0  0  0  0
    8.6182   -4.0495    0.0000 H   0  0  0  0  0  0  0  0  0  0  0  0
    8.3913   -4.8964    0.0000 H   0  0  0  0  0  0  0  0  0  0  0  0
    9.2382   -5.1233    0.0000 H   0  0  0  0  0  0  0  0  0  0  0  0
    9.7573   -5.2624    0.0000 H   0  0  0  0  0  0  0  0  0  0  0  0
   10.6042   -5.4894    0.0000 H   0  0  0  0  0  0  0  0  0  0  0  0
   10.8312   -4.6424    0.0000 H   0  0  0  0  0  0  0  0  0  0  0  0
    9.8312   -2.9104    0.0000 H   0  0  0  0  0  0  0  0  0  0  0  0
    8.9842   -2.6834    0.0000 H   0  0  0  0  0  0  0  0  0  0  0  0
    8.7573   -3.5304    0.0000 H   0  0  0  0  0  0  0  0  0  0  0  0
   12.7908   -0.1115    0.0000 H   0  0  0  0  0  0  0  0  0  0  0  0
   11.9938   -0.1115    0.0000 H   0  0  0  0  0  0  0  0  0  0  0  0
    3.2646    1.3885    0.0000 H   0  0  0  0  0  0  0  0  0  0  0  0
    2.4675    1.3885    0.0000 H   0  0  0  0  0  0  0  0  0  0  0  0
    3.9441   -1.1690    0.0000 H   0  0  0  0  0  0  0  0  0  0  0  0
    4.3426   -0.4787    0.0000 H   0  0  0  0  0  0  0  0  0  0  0  0
    1.6900    0.9505    0.0000 H   0  0  0  0  0  0  0  0  0  0  0  0
    1.4631    0.1036    0.0000 H   0  0  0  0  0  0  0  0  0  0  0  0
    2.3100   -0.1233    0.0000 H   0  0  0  0  0  0  0  0  0  0  0  0
    2.5560   -0.5495    0.0000 H   0  0  0  0  0  0  0  0  0  0  0  0
    2.3291   -1.3964    0.0000 H   0  0  0  0  0  0  0  0  0  0  0  0
    3.1760   -1.6233    0.0000 H   0  0  0  0  0  0  0  0  0  0  0  0
   14.6613   -0.8964    0.0000 H   0  0  0  0  0  0  0  0  0  0  0  0
  1 25  2  0  0  0  0
  2 26  2  0  0  0  0
  3 27  2  0  0  0  0
  4 30  2  0  0  0  0
  5 33  2  0  0  0  0
  6 42  1  0  0  0  0
  6 94  1  0  0  0  0
  7 42  2  0  0  0  0
  8 16  1  0  0  0  0
  8 17  1  0  0  0  0
  8 26  1  0  0  0  0
 20  9  1  1  0  0  0
  9 25  1  0  0  0  0
  9 64  1  0  0  0  0
 15 10  1  6  0  0  0
 10 30  1  0  0  0  0
 10 65  1  0  0  0  0
 11 27  1  0  0  0  0
 29 11  1  1  0  0  0
 11 67  1  0  0  0  0
 12 30  1  0  0  0  0
 12 32  1  0  0  0  0
 12 71  1  0  0  0  0
 13 31  1  0  0  0  0
 13 33  1  0  0  0  0
 13 72  1  0  0  0  0
 14 15  1  0  0  0  0
 14 22  1  0  0  0  0
 14 23  1  0  0  0  0
 14 24  1  0  0  0  0
 15 25  1  0  0  0  0
 15 43  1  0  0  0  0
 16 18  1  0  0  0  0
 16 44  1  0  0  0  0
 16 45  1  0  0  0  0
 17 19  1  0  0  0  0
 17 46  1  0  0  0  0
 17 47  1  0  0  0  0
 18 19  1  0  0  0  0
 18 48  1  0  0  0  0
 18 49  1  0  0  0  0
 19 50  1  0  0  0  0
 19 51  1  0  0  0  0
 20 21  1  0  0  0  0
 20 27  1  0  0  0  0
 20 52  1  0  0  0  0
 21 26  1  0  0  0  0
 21 53  1  0  0  0  0
 21 54  1  0  0  0  0
 22 55  1  0  0  0  0
 22 56  1  0  0  0  0
 22 57  1  0  0  0  0
 23 58  1  0  0  0  0
 23 59  1  0  0  0  0
 23 60  1  0  0  0  0
 24 61  1  0  0  0  0
 24 62  1  0  0  0  0
 24 63  1  0  0  0  0
 28 31  1  0  0  0  0
 28 34  1  0  0  0  0
 28 35  1  0  0  0  0
 28 36  1  0  0  0  0
 29 33  1  0  0  0  0
 29 37  1  0  0  0  0
 29 66  1  0  0  0  0
 31 68  1  0  0  0  0
 31 69  1  0  0  0  0
 32 38  1  0  0  0  0
 32 39  1  0  0  0  0
 32 70  1  0  0  0  0
 34 73  1  0  0  0  0
 34 74  1  0  0  0  0
 34 75  1  0  0  0  0
 35 76  1  0  0  0  0
 35 77  1  0  0  0  0
 35 78  1  0  0  0  0
 36 79  1  0  0  0  0
 36 80  1  0  0  0  0
 36 81  1  0  0  0  0
 37 42  1  0  0  0  0
 37 82  1  0  0  0  0
 37 83  1  0  0  0  0
 38 40  1  0  0  0  0
 38 84  1  0  0  0  0
 38 85  1  0  0  0  0
 39 41  1  0  0  0  0
 39 86  1  0  0  0  0
 39 87  1  0  0  0  0
 40 88  1  0  0  0  0
 40 89  1  0  0  0  0
 40 90  1  0  0  0  0
 41 91  1  0  0  0  0
 41 92  1  0  0  0  0
 41 93  1  0  0  0  0
M  END
> <PUBCHEM_COMPOUND_CID>
515281
> <PUBCHEM_COMPOUND_CANONICALIZED>
1
> <PUBCHEM_CACTVS_COMPLEXITY>
963
> <PUBCHEM_CACTVS_HBOND_ACCEPTOR>
7
> <PUBCHEM_CACTVS_HBOND_DONOR>
6
> <PUBCHEM_CACTVS_ROTATABLE_BOND>
16
> <PUBCHEM_CACTVS_SUBSKEYS>
AAADcfB7uAAAAAAAAAAAAAAAAAAAAWAAAAAAAAAAAAAAAAAAAAAAHgAQCAAADijBgAQDCAPAAgAIAAGQGAAAAAAAAAAAAIGIAACAQBoAwCAUQAAOFgKAAAAnAAAJAAAAAAAAAAAAAAAAAAAAAAAAAAAAAA==
> <PUBCHEM_IUPAC_OPENEYE_NAME>
(3S)-4-(2,2-dimethylpropylamino)-3-[[(2S)-2-[[(2S)-2-(1-ethylpropylcarbamoylamino)-3,3-dimethyl-butanoyl]amino]-4-oxo-4-pyrrolidin-1-yl-butanoyl]amino]-4-oxo-butanoic acid
> <PUBCHEM_IUPAC_CAS_NAME>
(3S)-3-[[(2S)-2-[[(2S)-3,3-dimethyl-1-oxo-2-[[oxo-(pentan-3-ylamino)methyl]amino]butyl]amino]-1,4-dioxo-4-(1-pyrrolidinyl)butyl]amino]-4-(2,2-dimethylpropylamino)-4-oxobutanoic acid
> <PUBCHEM_IUPAC_NAME_MARKUP>
(3<I>S</I>)-3-[[(2<I>S</I>)-2-[[(2<I>S</I>)-3,3-dimethyl-2-(pentan-3-ylcarbamoylamino)butanoyl]amino]-4-oxo-4-pyrrolidin-1-ylbutanoyl]amino]-4-(2,2-dimethylpropylamino)-4-oxobutanoic acid
> <PUBCHEM_IUPAC_NAME>
(3S)-3-[[(2S)-2-[[(2S)-3,3-dimethyl-2-(pentan-3-ylcarbamoylamino)butanoyl]amino]-4-oxo-4-pyrrolidin-1-ylbutanoyl]amino]-4-(2,2-dimethylpropylamino)-4-oxobutanoic acid
> <PUBCHEM_IUPAC_SYSTEMATIC_NAME>
(3S)-3-[[(2S)-2-[[(2S)-3,3-dimethyl-2-(pentan-3-ylcarbamoylamino)butanoyl]amino]-4-oxidanylidene-4-pyrrolidin-1-yl-butanoyl]amino]-4-(2,2-dimethylpropylamino)-4-oxidanylidene-butanoic acid
> <PUBCHEM_IUPAC_TRADITIONAL_NAME>
(3S)-3-[[(2S)-2-[[(2S)-2-(1-ethylpropylcarbamoylamino)-3,3-dimethyl-butanoyl]amino]-4-keto-4-pyrrolidino-butanoyl]amino]-4-keto-4-(neopentylamino)butyric acid
> <PUBCHEM_IUPAC_INCHI>
InChI=1S/C29H52N6O7/c1-9-18(10-2)31-27(42)34-23(29(6,7)8)26(41)33-19(15-21(36)35-13-11-12-14-35)25(40)32-20(16-22(37)38)24(39)30-17-28(3,4)5/h18-20,23H,9-17H2,1-8H3,(H,30,39)(H,32,40)(H,33,41)(H,37,38)(H2,31,34,42)/t19-,20-,23+/m0/s1
> <PUBCHEM_IUPAC_INCHIKEY>
KPGBASAKRFATDZ-SXWKCWPCSA-N
> <PUBCHEM_XLOGP3_AA>
2.2
> <PUBCHEM_EXACT_MASS>
596.38974802
> <PUBCHEM_MOLECULAR_FORMULA>
C29H52N6O7
> <PUBCHEM_MOLECULAR_WEIGHT>
596.8
> <PUBCHEM_OPENEYE_CAN_SMILES>
CCC(CC)NC(=O)NC(C(=O)NC(CC(=O)N1CCCC1)C(=O)NC(CC(=O)O)C(=O)NCC(C)(C)C)C(C)(C)C
> <PUBCHEM_OPENEYE_ISO_SMILES>
CCC(CC)NC(=O)N[C@H](C(=O)N[C@@H](CC(=O)N1CCCC1)C(=O)N[C@@H](CC(=O)O)C(=O)NCC(C)(C)C)C(C)(C)C
> <PUBCHEM_CACTVS_TPSA>
186
> <PUBCHEM_MONOISOTOPIC_WEIGHT>
596.38974802
> <PUBCHEM_TOTAL_CHARGE>
0
> <PUBCHEM_HEAVY_ATOM_COUNT>
42
> <PUBCHEM_ATOM_DEF_STEREO_COUNT>
3
> <PUBCHEM_ATOM_UDEF_STEREO_COUNT>
0
> <PUBCHEM_BOND_DEF_STEREO_COUNT>
0
> <PUBCHEM_BOND_UDEF_STEREO_COUNT>
0
> <PUBCHEM_ISOTOPIC_ATOM_COUNT>
0
> <PUBCHEM_COMPONENT_COUNT>
1
> <PUBCHEM_CACTVS_TAUTO_COUNT>
-1
> <PUBCHEM_COORDINATE_TYPE>
1
5
255
> <PUBCHEM_BONDANNOTATIONS>
15  10  6
29  11  5
20  9  5
$$$$
