515272
  -OEChem-10302200282D
 95 96  0     1  0  0  0  0  0999 V2000
    4.5981   -2.4050    0.0000 O   0  0  0  0  0  0  0  0  0  0  0  0
    5.4641    4.0950    0.0000 O   0  0  0  0  0  0  0  0  0  0  0  0
    3.7320    1.0950    0.0000 O   0  0  0  0  0  0  0  0  0  0  0  0
    6.3301    3.5950    0.0000 O   0  0  0  0  0  0  0  0  0  0  0  0
    9.7942    2.5950    0.0000 O   0  0  0  0  0  0  0  0  0  0  0  0
   10.6603   -0.9050    0.0000 O   0  0  0  0  0  0  0  0  0  0  0  0
    8.9282   -0.9050    0.0000 O   0  0  0  0  0  0  0  0  0  0  0  0
    8.9282    5.0950    0.0000 O   0  0  0  0  0  0  0  0  0  0  0  0
    9.7942    3.5950    0.0000 O   0  0  0  0  0  0  0  0  0  0  0  0
    2.8660   -2.4050    0.0000 N   0  0  0  0  0  0  0  0  0  0  0  0
    3.7320    4.0950    0.0000 N   0  0  0  0  0  0  0  0  0  0  0  0
    3.7320   -0.9050    0.0000 N   0  0  0  0  0  0  0  0  0  0  0  0
    5.4641    1.0950    0.0000 N   0  0  0  0  0  0  0  0  0  0  0  0
    7.1962    2.0950    0.0000 N   0  0  0  0  0  0  0  0  0  0  0  0
    8.9282    1.0950    0.0000 N   0  0  0  0  0  0  0  0  0  0  0  0
    2.8660   -3.4050    0.0000 C   0  0  0  0  0  0  0  0  0  0  0  0
    2.0000   -3.9050    0.0000 C   0  0  0  0  0  0  0  0  0  0  0  0
    3.7320   -3.9050    0.0000 C   0  0  0  0  0  0  0  0  0  0  0  0
    2.0000   -4.9050    0.0000 C   0  0  0  0  0  0  0  0  0  0  0  0
    3.7320   -4.9050    0.0000 C   0  0  0  0  0  0  0  0  0  0  0  0
    2.8660   -5.4050    0.0000 C   0  0  0  0  0  0  0  0  0  0  0  0
    3.6275    5.0895    0.0000 C   0  0  0  0  0  0  0  0  0  0  0  0
    2.8185    3.6883    0.0000 C   0  0  0  0  0  0  0  0  0  0  0  0
    2.6494    5.2974    0.0000 C   0  0  0  0  0  0  0  0  0  0  0  0
    2.1494    4.4314    0.0000 C   0  0  0  0  0  0  0  0  0  0  0  0
    4.5981   -0.4050    0.0000 C   0  0  1  0  0  0  0  0  0  0  0  0
    3.7320   -1.9050    0.0000 C   0  0  0  0  0  0  0  0  0  0  0  0
    5.4641    2.0950    0.0000 C   0  0  1  0  0  0  0  0  0  0  0  0
    5.4641   -0.9050    0.0000 C   0  0  0  0  0  0  0  0  0  0  0  0
    4.5981    2.5950    0.0000 C   0  0  0  0  0  0  0  0  0  0  0  0
    4.5981    3.5950    0.0000 C   0  0  0  0  0  0  0  0  0  0  0  0
    4.5981    0.5950    0.0000 C   0  0  0  0  0  0  0  0  0  0  0  0
    6.3301    2.5950    0.0000 C   0  0  0  0  0  0  0  0  0  0  0  0
    6.3301   -0.4050    0.0000 C   0  0  0  0  0  0  0  0  0  0  0  0
    5.4641   -1.9050    0.0000 C   0  0  0  0  0  0  0  0  0  0  0  0
    8.0622    2.5950    0.0000 C   0  0  2  0  0  0  0  0  0  0  0  0
    9.7942    0.5950    0.0000 C   0  0  1  0  0  0  0  0  0  0  0  0
   10.6603    1.0950    0.0000 C   0  0  0  0  0  0  0  0  0  0  0  0
   11.5263    0.5950    0.0000 C   0  0  0  0  0  0  0  0  0  0  0  0
    8.9282    2.0950    0.0000 C   0  0  0  0  0  0  0  0  0  0  0  0
    8.0622    3.5950    0.0000 C   0  0  0  0  0  0  0  0  0  0  0  0
   12.3923    1.0950    0.0000 C   0  0  0  0  0  0  0  0  0  0  0  0
   11.5263   -0.4050    0.0000 C   0  0  0  0  0  0  0  0  0  0  0  0
    9.7942   -0.4050    0.0000 C   0  0  0  0  0  0  0  0  0  0  0  0
    8.9282    4.0950    0.0000 C   0  0  0  0  0  0  0  0  0  0  0  0
    3.4030   -3.0950    0.0000 H   0  0  0  0  0  0  0  0  0  0  0  0
    1.7880   -3.3224    0.0000 H   0  0  0  0  0  0  0  0  0  0  0  0
    1.3894   -4.0127    0.0000 H   0  0  0  0  0  0  0  0  0  0  0  0
    4.3426   -4.0127    0.0000 H   0  0  0  0  0  0  0  0  0  0  0  0
    3.9441   -3.3224    0.0000 H   0  0  0  0  0  0  0  0  0  0  0  0
    1.3894   -4.7973    0.0000 H   0  0  0  0  0  0  0  0  0  0  0  0
    1.7880   -5.4876    0.0000 H   0  0  0  0  0  0  0  0  0  0  0  0
    3.9441   -5.4876    0.0000 H   0  0  0  0  0  0  0  0  0  0  0  0
    4.3426   -4.7973    0.0000 H   0  0  0  0  0  0  0  0  0  0  0  0
    2.4675   -5.8800    0.0000 H   0  0  0  0  0  0  0  0  0  0  0  0
    3.2646   -5.8800    0.0000 H   0  0  0  0  0  0  0  0  0  0  0  0
    2.3291   -2.0950    0.0000 H   0  0  0  0  0  0  0  0  0  0  0  0
    4.2475    5.0895    0.0000 H   0  0  0  0  0  0  0  0  0  0  0  0
    3.6923    5.7061    0.0000 H   0  0  0  0  0  0  0  0  0  0  0  0
    2.3169    3.3238    0.0000 H   0  0  0  0  0  0  0  0  0  0  0  0
    3.1285    3.1513    0.0000 H   0  0  0  0  0  0  0  0  0  0  0  0
    2.8410    5.8871    0.0000 H   0  0  0  0  0  0  0  0  0  0  0  0
    2.0830    5.5496    0.0000 H   0  0  0  0  0  0  0  0  0  0  0  0
    1.6478    4.7958    0.0000 H   0  0  0  0  0  0  0  0  0  0  0  0
    1.7345    3.9707    0.0000 H   0  0  0  0  0  0  0  0  0  0  0  0
    4.5981   -1.0250    0.0000 H   0  0  0  0  0  0  0  0  0  0  0  0
    6.0010    1.7850    0.0000 H   0  0  0  0  0  0  0  0  0  0  0  0
    5.4641   -0.2850    0.0000 H   0  0  0  0  0  0  0  0  0  0  0  0
    3.9875    2.7027    0.0000 H   0  0  0  0  0  0  0  0  0  0  0  0
    4.3860    2.0124    0.0000 H   0  0  0  0  0  0  0  0  0  0  0  0
    3.1951   -0.5950    0.0000 H   0  0  0  0  0  0  0  0  0  0  0  0
    6.0010    0.7850    0.0000 H   0  0  0  0  0  0  0  0  0  0  0  0
    6.6401   -0.9419    0.0000 H   0  0  0  0  0  0  0  0  0  0  0  0
    6.8671   -0.0950    0.0000 H   0  0  0  0  0  0  0  0  0  0  0  0
    6.0201    0.1319    0.0000 H   0  0  0  0  0  0  0  0  0  0  0  0
    4.8441   -1.9050    0.0000 H   0  0  0  0  0  0  0  0  0  0  0  0
    5.4641   -2.5250    0.0000 H   0  0  0  0  0  0  0  0  0  0  0  0
    6.0841   -1.9050    0.0000 H   0  0  0  0  0  0  0  0  0  0  0  0
    8.0622    1.9750    0.0000 H   0  0  0  0  0  0  0  0  0  0  0  0
    7.1962    1.4750    0.0000 H   0  0  0  0  0  0  0  0  0  0  0  0
    9.2573    0.2850    0.0000 H   0  0  0  0  0  0  0  0  0  0  0  0
   11.0588    1.5700    0.0000 H   0  0  0  0  0  0  0  0  0  0  0  0
   10.2617    1.5700    0.0000 H   0  0  0  0  0  0  0  0  0  0  0  0
   12.0632    0.2850    0.0000 H   0  0  0  0  0  0  0  0  0  0  0  0
    7.8501    4.1776    0.0000 H   0  0  0  0  0  0  0  0  0  0  0  0
    7.4516    3.4873    0.0000 H   0  0  0  0  0  0  0  0  0  0  0  0
    8.3913    0.7850    0.0000 H   0  0  0  0  0  0  0  0  0  0  0  0
   12.7023    0.5581    0.0000 H   0  0  0  0  0  0  0  0  0  0  0  0
   12.9292    1.4050    0.0000 H   0  0  0  0  0  0  0  0  0  0  0  0
   12.0823    1.6319    0.0000 H   0  0  0  0  0  0  0  0  0  0  0  0
   10.9063   -0.4050    0.0000 H   0  0  0  0  0  0  0  0  0  0  0  0
   11.5263   -1.0250    0.0000 H   0  0  0  0  0  0  0  0  0  0  0  0
   12.1463   -0.4050    0.0000 H   0  0  0  0  0  0  0  0  0  0  0  0
   10.6603   -1.5250    0.0000 H   0  0  0  0  0  0  0  0  0  0  0  0
    9.4651    5.4050    0.0000 H   0  0  0  0  0  0  0  0  0  0  0  0
  1 27  2  0  0  0  0
  2 31  2  0  0  0  0
  3 32  2  0  0  0  0
  4 33  2  0  0  0  0
  5 40  2  0  0  0  0
  6 44  1  0  0  0  0
  6 94  1  0  0  0  0
  7 44  2  0  0  0  0
  8 45  1  0  0  0  0
  8 95  1  0  0  0  0
  9 45  2  0  0  0  0
 10 16  1  0  0  0  0
 10 27  1  0  0  0  0
 10 57  1  0  0  0  0
 11 22  1  0  0  0  0
 11 23  1  0  0  0  0
 11 31  1  0  0  0  0
 26 12  1  6  0  0  0
 12 27  1  0  0  0  0
 12 71  1  0  0  0  0
 28 13  1  1  0  0  0
 13 32  1  0  0  0  0
 13 72  1  0  0  0  0
 14 33  1  0  0  0  0
 36 14  1  1  0  0  0
 14 80  1  0  0  0  0
 37 15  1  1  0  0  0
 15 40  1  0  0  0  0
 15 87  1  0  0  0  0
 16 17  1  0  0  0  0
 16 18  1  0  0  0  0
 16 46  1  0  0  0  0
 17 19  1  0  0  0  0
 17 47  1  0  0  0  0
 17 48  1  0  0  0  0
 18 20  1  0  0  0  0
 18 49  1  0  0  0  0
 18 50  1  0  0  0  0
 19 21  1  0  0  0  0
 19 51  1  0  0  0  0
 19 52  1  0  0  0  0
 20 21  1  0  0  0  0
 20 53  1  0  0  0  0
 20 54  1  0  0  0  0
 21 55  1  0  0  0  0
 21 56  1  0  0  0  0
 22 24  1  0  0  0  0
 22 58  1  0  0  0  0
 22 59  1  0  0  0  0
 23 25  1  0  0  0  0
 23 60  1  0  0  0  0
 23 61  1  0  0  0  0
 24 25  1  0  0  0  0
 24 62  1  0  0  0  0
 24 63  1  0  0  0  0
 25 64  1  0  0  0  0
 25 65  1  0  0  0  0
 26 29  1  0  0  0  0
 26 32  1  0  0  0  0
 26 66  1  0  0  0  0
 28 30  1  0  0  0  0
 28 33  1  0  0  0  0
 28 67  1  0  0  0  0
 29 34  1  0  0  0  0
 29 35  1  0  0  0  0
 29 68  1  0  0  0  0
 30 31  1  0  0  0  0
 30 69  1  0  0  0  0
 30 70  1  0  0  0  0
 34 73  1  0  0  0  0
 34 74  1  0  0  0  0
 34 75  1  0  0  0  0
 35 76  1  0  0  0  0
 35 77  1  0  0  0  0
 35 78  1  0  0  0  0
 36 40  1  0  0  0  0
 36 41  1  0  0  0  0
 36 79  1  0  0  0  0
 37 38  1  0  0  0  0
 37 44  1  0  0  0  0
 37 81  1  0  0  0  0
 38 39  1  0  0  0  0
 38 82  1  0  0  0  0
 38 83  1  0  0  0  0
 39 42  1  0  0  0  0
 39 43  1  0  0  0  0
 39 84  1  0  0  0  0
 41 45  1  0  0  0  0
 41 85  1  0  0  0  0
 41 86  1  0  0  0  0
 42 88  1  0  0  0  0
 42 89  1  0  0  0  0
 42 90  1  0  0  0  0
 43 91  1  0  0  0  0
 43 92  1  0  0  0  0
 43 93  1  0  0  0  0
M  END
> <PUBCHEM_COMPOUND_CID>
515272
> <PUBCHEM_COMPOUND_CANONICALIZED>
1
> <PUBCHEM_CACTVS_COMPLEXITY>
1070
> <PUBCHEM_CACTVS_HBOND_ACCEPTOR>
9
> <PUBCHEM_CACTVS_HBOND_DONOR>
7
> <PUBCHEM_CACTVS_ROTATABLE_BOND>
16
> <PUBCHEM_CACTVS_SUBSKEYS>
AAADcfB7vAAAAAAAAAAAAAAAAAAAAWAAAAAwAAAAAAAAAAAAAAAAHgAQCAAADSjBgAQDCAPAAgAIAAGQGAAAAAAAAAAAAIGIAACCQBoAwCAUQAAOFgKQAAG/AAAMAAAAAAAAAAAAAAAAAAAAAAAAAAAAAA==
> <PUBCHEM_IUPAC_OPENEYE_NAME>
(2S)-2-[[(2S)-3-carboxy-2-[[(2S)-2-[[(2S)-2-(cyclohexylcarbamoylamino)-3-methyl-butanoyl]amino]-4-oxo-4-pyrrolidin-1-yl-butanoyl]amino]propanoyl]amino]-4-methyl-pentanoic acid
> <PUBCHEM_IUPAC_CAS_NAME>
(2S)-2-[[(2S)-3-carboxy-2-[[(2S)-2-[[(2S)-2-[[(cyclohexylamino)-oxomethyl]amino]-3-methyl-1-oxobutyl]amino]-1,4-dioxo-4-(1-pyrrolidinyl)butyl]amino]-1-oxopropyl]amino]-4-methylpentanoic acid
> <PUBCHEM_IUPAC_NAME_MARKUP>
(2<I>S</I>)-2-[[(2<I>S</I>)-3-carboxy-2-[[(2<I>S</I>)-2-[[(2<I>S</I>)-2-(cyclohexylcarbamoylamino)-3-methylbutanoyl]amino]-4-oxo-4-pyrrolidin-1-ylbutanoyl]amino]propanoyl]amino]-4-methylpentanoic acid
> <PUBCHEM_IUPAC_NAME>
(2S)-2-[[(2S)-3-carboxy-2-[[(2S)-2-[[(2S)-2-(cyclohexylcarbamoylamino)-3-methylbutanoyl]amino]-4-oxo-4-pyrrolidin-1-ylbutanoyl]amino]propanoyl]amino]-4-methylpentanoic acid
> <PUBCHEM_IUPAC_SYSTEMATIC_NAME>
(2S)-2-[[(2S)-2-[[(2S)-2-[[(2S)-2-(cyclohexylcarbamoylamino)-3-methyl-butanoyl]amino]-4-oxidanylidene-4-pyrrolidin-1-yl-butanoyl]amino]-4-oxidanyl-4-oxidanylidene-butanoyl]amino]-4-methyl-pentanoic acid
> <PUBCHEM_IUPAC_TRADITIONAL_NAME>
(2S)-2-[[(2S)-3-carboxy-2-[[(2S)-2-[[(2S)-2-(cyclohexylcarbamoylamino)-3-methyl-butanoyl]amino]-4-keto-4-pyrrolidino-butanoyl]amino]propanoyl]amino]-4-methyl-valeric acid
> <PUBCHEM_IUPAC_INCHI>
InChI=1S/C30H50N6O9/c1-17(2)14-22(29(43)44)34-27(41)21(16-24(38)39)32-26(40)20(15-23(37)36-12-8-9-13-36)33-28(42)25(18(3)4)35-30(45)31-19-10-6-5-7-11-19/h17-22,25H,5-16H2,1-4H3,(H,32,40)(H,33,42)(H,34,41)(H,38,39)(H,43,44)(H2,31,35,45)/t20-,21-,22-,25-/m0/s1
> <PUBCHEM_IUPAC_INCHIKEY>
JHNRYSVFRLYZDT-UEOMBKFZSA-N
> <PUBCHEM_XLOGP3_AA>
1.4
> <PUBCHEM_EXACT_MASS>
638.36392719
> <PUBCHEM_MOLECULAR_FORMULA>
C30H50N6O9
> <PUBCHEM_MOLECULAR_WEIGHT>
638.8
> <PUBCHEM_OPENEYE_CAN_SMILES>
CC(C)CC(C(=O)O)NC(=O)C(CC(=O)O)NC(=O)C(CC(=O)N1CCCC1)NC(=O)C(C(C)C)NC(=O)NC2CCCCC2
> <PUBCHEM_OPENEYE_ISO_SMILES>
CC(C)C[C@@H](C(=O)O)NC(=O)[C@H](CC(=O)O)NC(=O)[C@H](CC(=O)N1CCCC1)NC(=O)[C@H](C(C)C)NC(=O)NC2CCCCC2
> <PUBCHEM_CACTVS_TPSA>
223
> <PUBCHEM_MONOISOTOPIC_WEIGHT>
638.36392719
> <PUBCHEM_TOTAL_CHARGE>
0
> <PUBCHEM_HEAVY_ATOM_COUNT>
45
> <PUBCHEM_ATOM_DEF_STEREO_COUNT>
4
> <PUBCHEM_ATOM_UDEF_STEREO_COUNT>
0
> <PUBCHEM_BOND_DEF_STEREO_COUNT>
0
> <PUBCHEM_BOND_UDEF_STEREO_COUNT>
0
> <PUBCHEM_ISOTOPIC_ATOM_COUNT>
0
> <PUBCHEM_COMPONENT_COUNT>
1
> <PUBCHEM_CACTVS_TAUTO_COUNT>
-1
> <PUBCHEM_COORDINATE_TYPE>
1
5
255
> <PUBCHEM_BONDANNOTATIONS>
26  12  6
28  13  5
36  14  5
37  15  5
$$$$
