515290
  -OEChem-10302200282D
117119  0     1  0  0  0  0  0999 V2000
   11.3020    0.9415    0.0000 O   0  0  0  0  0  0  0  0  0  0  0  0
   10.4888    2.4708    0.0000 O   0  0  0  0  0  0  0  0  0  0  0  0
    8.0622    3.2680    0.0000 O   0  0  0  0  0  0  0  0  0  0  0  0
    7.1962    2.7680    0.0000 O   0  0  0  0  0  0  0  0  0  0  0  0
    5.4641   -3.2320    0.0000 O   0  0  0  0  0  0  0  0  0  0  0  0
    4.5981    0.2679    0.0000 O   0  0  0  0  0  0  0  0  0  0  0  0
    6.3301    3.2680    0.0000 O   0  0  0  0  0  0  0  0  0  0  0  0
    8.0622    1.2680    0.0000 N   0  0  0  0  0  0  0  0  0  0  0  0
    3.7320   -3.2320    0.0000 N   0  0  0  0  0  0  0  0  0  0  0  0
    9.4282    3.6340    0.0000 N   0  0  0  0  0  0  0  0  0  0  0  0
    4.5981   -1.7320    0.0000 N   0  0  0  0  0  0  0  0  0  0  0  0
    6.3301    0.2679    0.0000 N   0  0  0  0  0  0  0  0  0  0  0  0
    4.5981    3.2680    0.0000 N   0  0  0  0  0  0  0  0  0  0  0  0
    9.5710    1.0019    0.0000 C   0  0  0  0  0  0  0  0  0  0  0  0
   10.4190    0.4720    0.0000 C   0  0  0  0  0  0  0  0  0  0  0  0
    8.8050    0.3591    0.0000 C   0  0  0  0  0  0  0  0  0  0  0  0
    8.9282    1.7680    0.0000 C   0  0  1  0  0  0  0  0  0  0  0  0
   10.1771   -0.4983    0.0000 C   0  0  0  0  0  0  0  0  0  0  0  0
    9.1796   -0.5681    0.0000 C   0  0  0  0  0  0  0  0  0  0  0  0
    3.7320   -4.2320    0.0000 C   0  0  0  0  0  0  0  0  0  0  0  0
    2.8660   -4.7320    0.0000 C   0  0  1  0  0  0  0  0  0  0  0  0
    4.5981   -4.7320    0.0000 C   0  0  2  0  0  0  0  0  0  0  0  0
   10.4539    1.4714    0.0000 C   0  0  0  0  0  0  0  0  0  0  0  0
    2.8660   -5.7320    0.0000 C   0  0  0  0  0  0  0  0  0  0  0  0
    4.5981   -5.7320    0.0000 C   0  0  0  0  0  0  0  0  0  0  0  0
    3.7320   -6.2320    0.0000 C   0  0  0  0  0  0  0  0  0  0  0  0
    8.9282    2.7680    0.0000 C   0  0  0  0  0  0  0  0  0  0  0  0
    8.9282    4.5000    0.0000 C   0  0  1  0  0  0  0  0  0  0  0  0
    2.0000   -4.2320    0.0000 C   0  0  0  0  0  0  0  0  0  0  0  0
    5.4641   -4.2320    0.0000 C   0  0  0  0  0  0  0  0  0  0  0  0
    9.4282    5.3660    0.0000 C   0  0  0  0  0  0  0  0  0  0  0  0
    7.1962    1.7680    0.0000 C   0  0  0  0  0  0  0  0  0  0  0  0
    6.3301    1.2680    0.0000 C   0  0  2  0  0  0  0  0  0  0  0  0
    7.9282    4.5000    0.0000 C   0  0  0  0  0  0  0  0  0  0  0  0
    4.5981   -2.7320    0.0000 C   0  0  0  0  0  0  0  0  0  0  0  0
    5.4641   -1.2320    0.0000 C   0  0  1  0  0  0  0  0  0  0  0  0
    6.3301   -1.7320    0.0000 C   0  0  0  0  0  0  0  0  0  0  0  0
    9.9282    6.2320    0.0000 C   0  0  0  0  0  0  0  0  0  0  0  0
    8.5622    5.8660    0.0000 C   0  0  0  0  0  0  0  0  0  0  0  0
   10.2942    4.8660    0.0000 C   0  0  0  0  0  0  0  0  0  0  0  0
    5.4641    1.7680    0.0000 C   0  0  0  0  0  0  0  0  0  0  0  0
    5.4641   -0.2321    0.0000 C   0  0  0  0  0  0  0  0  0  0  0  0
    7.4282    5.3660    0.0000 C   0  0  0  0  0  0  0  0  0  0  0  0
    5.4641    2.7680    0.0000 C   0  0  0  0  0  0  0  0  0  0  0  0
    7.1962   -2.2320    0.0000 C   0  0  0  0  0  0  0  0  0  0  0  0
    6.8301   -0.8660    0.0000 C   0  0  0  0  0  0  0  0  0  0  0  0
    5.8301   -2.5981    0.0000 C   0  0  0  0  0  0  0  0  0  0  0  0
    4.4936    4.2625    0.0000 C   0  0  0  0  0  0  0  0  0  0  0  0
    3.6845    2.8612    0.0000 C   0  0  0  0  0  0  0  0  0  0  0  0
    3.5154    4.4704    0.0000 C   0  0  0  0  0  0  0  0  0  0  0  0
    3.0154    3.6044    0.0000 C   0  0  0  0  0  0  0  0  0  0  0  0
   11.0016    0.2599    0.0000 H   0  0  0  0  0  0  0  0  0  0  0  0
   10.6908    1.0292    0.0000 H   0  0  0  0  0  0  0  0  0  0  0  0
    8.4582    0.8731    0.0000 H   0  0  0  0  0  0  0  0  0  0  0  0
    8.2575    0.0680    0.0000 H   0  0  0  0  0  0  0  0  0  0  0  0
    8.3913    2.0780    0.0000 H   0  0  0  0  0  0  0  0  0  0  0  0
   10.1555   -1.1179    0.0000 H   0  0  0  0  0  0  0  0  0  0  0  0
   10.7911   -0.5846    0.0000 H   0  0  0  0  0  0  0  0  0  0  0  0
    8.5836   -0.7390    0.0000 H   0  0  0  0  0  0  0  0  0  0  0  0
    9.2872   -1.1786    0.0000 H   0  0  0  0  0  0  0  0  0  0  0  0
    4.2690   -3.9220    0.0000 H   0  0  0  0  0  0  0  0  0  0  0  0
    2.8660   -4.1120    0.0000 H   0  0  0  0  0  0  0  0  0  0  0  0
    5.1350   -5.0420    0.0000 H   0  0  0  0  0  0  0  0  0  0  0  0
    2.2554   -5.6244    0.0000 H   0  0  0  0  0  0  0  0  0  0  0  0
    2.6540   -6.3147    0.0000 H   0  0  0  0  0  0  0  0  0  0  0  0
    4.8101   -6.3147    0.0000 H   0  0  0  0  0  0  0  0  0  0  0  0
    5.2087   -5.6244    0.0000 H   0  0  0  0  0  0  0  0  0  0  0  0
    3.3335   -6.7070    0.0000 H   0  0  0  0  0  0  0  0  0  0  0  0
    4.1306   -6.7070    0.0000 H   0  0  0  0  0  0  0  0  0  0  0  0
    8.0622    0.6479    0.0000 H   0  0  0  0  0  0  0  0  0  0  0  0
    9.5482    4.5000    0.0000 H   0  0  0  0  0  0  0  0  0  0  0  0
    2.3100   -3.6951    0.0000 H   0  0  0  0  0  0  0  0  0  0  0  0
    1.4631   -3.9220    0.0000 H   0  0  0  0  0  0  0  0  0  0  0  0
    1.6900   -4.7690    0.0000 H   0  0  0  0  0  0  0  0  0  0  0  0
    5.7741   -4.7690    0.0000 H   0  0  0  0  0  0  0  0  0  0  0  0
    6.0010   -3.9220    0.0000 H   0  0  0  0  0  0  0  0  0  0  0  0
    5.1541   -3.6951    0.0000 H   0  0  0  0  0  0  0  0  0  0  0  0
    3.1951   -2.9220    0.0000 H   0  0  0  0  0  0  0  0  0  0  0  0
   10.0482    3.6340    0.0000 H   0  0  0  0  0  0  0  0  0  0  0  0
    6.8671    0.9579    0.0000 H   0  0  0  0  0  0  0  0  0  0  0  0
    7.3456    4.2880    0.0000 H   0  0  0  0  0  0  0  0  0  0  0  0
    8.0359    3.8894    0.0000 H   0  0  0  0  0  0  0  0  0  0  0  0
   11.2803    0.3218    0.0000 H   0  0  0  0  0  0  0  0  0  0  0  0
    5.4641   -1.8520    0.0000 H   0  0  0  0  0  0  0  0  0  0  0  0
   10.4651    5.9220    0.0000 H   0  0  0  0  0  0  0  0  0  0  0  0
   10.2382    6.7690    0.0000 H   0  0  0  0  0  0  0  0  0  0  0  0
    9.3913    6.5420    0.0000 H   0  0  0  0  0  0  0  0  0  0  0  0
    8.8722    6.4030    0.0000 H   0  0  0  0  0  0  0  0  0  0  0  0
    8.0252    6.1760    0.0000 H   0  0  0  0  0  0  0  0  0  0  0  0
    8.2522    5.3291    0.0000 H   0  0  0  0  0  0  0  0  0  0  0  0
    9.9842    4.3291    0.0000 H   0  0  0  0  0  0  0  0  0  0  0  0
   10.8312    4.5560    0.0000 H   0  0  0  0  0  0  0  0  0  0  0  0
   10.6042    5.4030    0.0000 H   0  0  0  0  0  0  0  0  0  0  0  0
    4.0611   -1.4220    0.0000 H   0  0  0  0  0  0  0  0  0  0  0  0
    4.8535    1.8756    0.0000 H   0  0  0  0  0  0  0  0  0  0  0  0
    5.2520    1.1853    0.0000 H   0  0  0  0  0  0  0  0  0  0  0  0
    6.8671   -0.0421    0.0000 H   0  0  0  0  0  0  0  0  0  0  0  0
    7.9651    5.6760    0.0000 H   0  0  0  0  0  0  0  0  0  0  0  0
    7.1182    5.9030    0.0000 H   0  0  0  0  0  0  0  0  0  0  0  0
    6.8913    5.0560    0.0000 H   0  0  0  0  0  0  0  0  0  0  0  0
    6.8862   -2.7690    0.0000 H   0  0  0  0  0  0  0  0  0  0  0  0
    7.7331   -2.5420    0.0000 H   0  0  0  0  0  0  0  0  0  0  0  0
    7.5062   -1.6951    0.0000 H   0  0  0  0  0  0  0  0  0  0  0  0
    7.3671   -1.1760    0.0000 H   0  0  0  0  0  0  0  0  0  0  0  0
    7.1401   -0.3291    0.0000 H   0  0  0  0  0  0  0  0  0  0  0  0
    6.2932   -0.5560    0.0000 H   0  0  0  0  0  0  0  0  0  0  0  0
    5.2932   -2.2881    0.0000 H   0  0  0  0  0  0  0  0  0  0  0  0
    5.5201   -3.1350    0.0000 H   0  0  0  0  0  0  0  0  0  0  0  0
    6.3671   -2.9081    0.0000 H   0  0  0  0  0  0  0  0  0  0  0  0
    5.1136    4.2625    0.0000 H   0  0  0  0  0  0  0  0  0  0  0  0
    4.5584    4.8791    0.0000 H   0  0  0  0  0  0  0  0  0  0  0  0
    3.1829    2.4968    0.0000 H   0  0  0  0  0  0  0  0  0  0  0  0
    3.9945    2.3243    0.0000 H   0  0  0  0  0  0  0  0  0  0  0  0
    3.7070    5.0600    0.0000 H   0  0  0  0  0  0  0  0  0  0  0  0
    2.9490    4.7226    0.0000 H   0  0  0  0  0  0  0  0  0  0  0  0
    2.5138    3.9688    0.0000 H   0  0  0  0  0  0  0  0  0  0  0  0
    2.6005    3.1436    0.0000 H   0  0  0  0  0  0  0  0  0  0  0  0
  1 23  1  0  0  0  0
  1 83  1  0  0  0  0
  2 23  2  0  0  0  0
  3 27  2  0  0  0  0
  4 32  2  0  0  0  0
  5 35  2  0  0  0  0
  6 42  2  0  0  0  0
  7 44  2  0  0  0  0
 17  8  1  6  0  0  0
  8 32  1  0  0  0  0
  8 70  1  0  0  0  0
  9 20  1  0  0  0  0
  9 35  1  0  0  0  0
  9 78  1  0  0  0  0
 10 27  1  0  0  0  0
 28 10  1  6  0  0  0
 10 79  1  0  0  0  0
 11 35  1  0  0  0  0
 36 11  1  6  0  0  0
 11 94  1  0  0  0  0
 33 12  1  1  0  0  0
 12 42  1  0  0  0  0
 12 97  1  0  0  0  0
 13 44  1  0  0  0  0
 13 48  1  0  0  0  0
 13 49  1  0  0  0  0
 14 15  1  0  0  0  0
 14 16  1  0  0  0  0
 14 17  1  0  0  0  0
 14 23  1  0  0  0  0
 15 18  1  0  0  0  0
 15 52  1  0  0  0  0
 15 53  1  0  0  0  0
 16 19  1  0  0  0  0
 16 54  1  0  0  0  0
 16 55  1  0  0  0  0
 17 27  1  0  0  0  0
 17 56  1  0  0  0  0
 18 19  1  0  0  0  0
 18 57  1  0  0  0  0
 18 58  1  0  0  0  0
 19 59  1  0  0  0  0
 19 60  1  0  0  0  0
 20 21  1  0  0  0  0
 20 22  1  0  0  0  0
 20 61  1  0  0  0  0
 21 24  1  0  0  0  0
 21 29  1  1  0  0  0
 21 62  1  0  0  0  0
 22 25  1  0  0  0  0
 22 30  1  1  0  0  0
 22 63  1  0  0  0  0
 24 26  1  0  0  0  0
 24 64  1  0  0  0  0
 24 65  1  0  0  0  0
 25 26  1  0  0  0  0
 25 66  1  0  0  0  0
 25 67  1  0  0  0  0
 26 68  1  0  0  0  0
 26 69  1  0  0  0  0
 28 31  1  0  0  0  0
 28 34  1  0  0  0  0
 28 71  1  0  0  0  0
 29 72  1  0  0  0  0
 29 73  1  0  0  0  0
 29 74  1  0  0  0  0
 30 75  1  0  0  0  0
 30 76  1  0  0  0  0
 30 77  1  0  0  0  0
 31 38  1  0  0  0  0
 31 39  1  0  0  0  0
 31 40  1  0  0  0  0
 32 33  1  0  0  0  0
 33 41  1  0  0  0  0
 33 80  1  0  0  0  0
 34 43  1  0  0  0  0
 34 81  1  0  0  0  0
 34 82  1  0  0  0  0
 36 37  1  0  0  0  0
 36 42  1  0  0  0  0
 36 84  1  0  0  0  0
 37 45  1  0  0  0  0
 37 46  1  0  0  0  0
 37 47  1  0  0  0  0
 38 85  1  0  0  0  0
 38 86  1  0  0  0  0
 38 87  1  0  0  0  0
 39 88  1  0  0  0  0
 39 89  1  0  0  0  0
 39 90  1  0  0  0  0
 40 91  1  0  0  0  0
 40 92  1  0  0  0  0
 40 93  1  0  0  0  0
 41 44  1  0  0  0  0
 41 95  1  0  0  0  0
 41 96  1  0  0  0  0
 43 98  1  0  0  0  0
 43 99  1  0  0  0  0
 43100  1  0  0  0  0
 45101  1  0  0  0  0
 45102  1  0  0  0  0
 45103  1  0  0  0  0
 46104  1  0  0  0  0
 46105  1  0  0  0  0
 46106  1  0  0  0  0
 47107  1  0  0  0  0
 47108  1  0  0  0  0
 47109  1  0  0  0  0
 48 50  1  0  0  0  0
 48110  1  0  0  0  0
 48111  1  0  0  0  0
 49 51  1  0  0  0  0
 49112  1  0  0  0  0
 49113  1  0  0  0  0
 50 51  1  0  0  0  0
 50114  1  0  0  0  0
 50115  1  0  0  0  0
 51116  1  0  0  0  0
 51117  1  0  0  0  0
M  END
> <PUBCHEM_COMPOUND_CID>
515290
> <PUBCHEM_COMPOUND_CANONICALIZED>
1
> <PUBCHEM_CACTVS_COMPLEXITY>
1250
> <PUBCHEM_CACTVS_HBOND_ACCEPTOR>
7
> <PUBCHEM_CACTVS_HBOND_DONOR>
6
> <PUBCHEM_CACTVS_ROTATABLE_BOND>
15
> <PUBCHEM_CACTVS_SUBSKEYS>
AAADcfB/uAAAAAAAAAAAAAAAAAAAAeIAAAAwAAAAAAAAAAAAAAAAHgAQCAAADyjBgAQDCAPAAgAIAAGQGAAAAAAAAAAAAIGIAACAQBoAwCAUQAAOFgKAAAG/yECPAAAAAAAAAAAAAAQAAAQAAAAAAAAAAA==
> <PUBCHEM_IUPAC_OPENEYE_NAME>
1-[(1S)-1-[[(2S)-2-[[(2S)-2-[[(2R,6S)-2,6-dimethylcyclohexyl]carbamoylamino]-3,3-dimethyl-butanoyl]amino]-4-oxo-4-pyrrolidin-1-yl-butanoyl]amino]-2-[[(1R)-1-ethyl-2,2-dimethyl-propyl]amino]-2-oxo-ethyl]cyclopentanecarboxylic acid
> <PUBCHEM_IUPAC_CAS_NAME>
1-[(1S)-1-[[(2S)-2-[[(2S)-2-[[[[(2R,6S)-2,6-dimethylcyclohexyl]amino]-oxomethyl]amino]-3,3-dimethyl-1-oxobutyl]amino]-1,4-dioxo-4-(1-pyrrolidinyl)butyl]amino]-2-[[(3R)-2,2-dimethylpentan-3-yl]amino]-2-oxoethyl]-1-cyclopentanecarboxylic acid
> <PUBCHEM_IUPAC_NAME_MARKUP>
1-[(1<I>S</I>)-1-[[(2<I>S</I>)-2-[[(2<I>S</I>)-2-[[(2<I>R</I>,6<I>S</I>)-2,6-dimethylcyclohexyl]carbamoylamino]-3,3-dimethylbutanoyl]amino]-4-oxo-4-pyrrolidin-1-ylbutanoyl]amino]-2-[[(3<I>R</I>)-2,2-dimethylpentan-3-yl]amino]-2-oxoethyl]cyclopentane-1-carboxylic acid
> <PUBCHEM_IUPAC_NAME>
1-[(1S)-1-[[(2S)-2-[[(2S)-2-[[(2R,6S)-2,6-dimethylcyclohexyl]carbamoylamino]-3,3-dimethylbutanoyl]amino]-4-oxo-4-pyrrolidin-1-ylbutanoyl]amino]-2-[[(3R)-2,2-dimethylpentan-3-yl]amino]-2-oxoethyl]cyclopentane-1-carboxylic acid
> <PUBCHEM_IUPAC_SYSTEMATIC_NAME>
1-[(1S)-1-[[(2S)-2-[[(2S)-2-[[(2R,6S)-2,6-dimethylcyclohexyl]carbamoylamino]-3,3-dimethyl-butanoyl]amino]-4-oxidanylidene-4-pyrrolidin-1-yl-butanoyl]amino]-2-[[(3R)-2,2-dimethylpentan-3-yl]amino]-2-oxidanylidene-ethyl]cyclopentane-1-carboxylic acid
> <PUBCHEM_IUPAC_TRADITIONAL_NAME>
1-[(1S)-1-[[(2S)-2-[[(2S)-2-[[(2R,6S)-2,6-dimethylcyclohexyl]carbamoylamino]-3,3-dimethyl-butanoyl]amino]-4-keto-4-pyrrolidino-butanoyl]amino]-2-[[(1R)-1-ethyl-2,2-dimethyl-propyl]amino]-2-keto-ethyl]cyclopentanecarboxylic acid
> <PUBCHEM_IUPAC_INCHI>
InChI=1S/C38H66N6O7/c1-10-26(36(4,5)6)40-33(48)30(38(34(49)50)18-11-12-19-38)42-31(46)25(22-27(45)44-20-13-14-21-44)39-32(47)29(37(7,8)9)43-35(51)41-28-23(2)16-15-17-24(28)3/h23-26,28-30H,10-22H2,1-9H3,(H,39,47)(H,40,48)(H,42,46)(H,49,50)(H2,41,43,51)/t23-,24+,25-,26+,28?,29+,30+/m0/s1
> <PUBCHEM_IUPAC_INCHIKEY>
QPDPSEHGOMCVLL-KMWVNVQTSA-N
> <PUBCHEM_XLOGP3_AA>
5.5
> <PUBCHEM_EXACT_MASS>
718.49929847
> <PUBCHEM_MOLECULAR_FORMULA>
C38H66N6O7
> <PUBCHEM_MOLECULAR_WEIGHT>
719.0
> <PUBCHEM_OPENEYE_CAN_SMILES>
CCC(C(C)(C)C)NC(=O)C(C1(CCCC1)C(=O)O)NC(=O)C(CC(=O)N2CCCC2)NC(=O)C(C(C)(C)C)NC(=O)NC3C(CCCC3C)C
> <PUBCHEM_OPENEYE_ISO_SMILES>
CC[C@H](C(C)(C)C)NC(=O)[C@H](C1(CCCC1)C(=O)O)NC(=O)[C@H](CC(=O)N2CCCC2)NC(=O)[C@H](C(C)(C)C)NC(=O)NC3[C@@H](CCC[C@@H]3C)C
> <PUBCHEM_CACTVS_TPSA>
186
> <PUBCHEM_MONOISOTOPIC_WEIGHT>
718.49929847
> <PUBCHEM_TOTAL_CHARGE>
0
> <PUBCHEM_HEAVY_ATOM_COUNT>
51
> <PUBCHEM_ATOM_DEF_STEREO_COUNT>
6
> <PUBCHEM_ATOM_UDEF_STEREO_COUNT>
0
> <PUBCHEM_BOND_DEF_STEREO_COUNT>
0
> <PUBCHEM_BOND_UDEF_STEREO_COUNT>
0
> <PUBCHEM_ISOTOPIC_ATOM_COUNT>
0
> <PUBCHEM_COMPONENT_COUNT>
1
> <PUBCHEM_CACTVS_TAUTO_COUNT>
-1
> <PUBCHEM_COORDINATE_TYPE>
1
5
255
> <PUBCHEM_BONDANNOTATIONS>
28  10  6
36  11  6
33  12  5
21  29  5
22  30  5
17  8  6
$$$$
