515266
  -OEChem-10302200282D
101102  0     1  0  0  0  0  0999 V2000
    8.4124    2.8080    0.0000 O   0  0  0  0  0  0  0  0  0  0  0  0
    7.1962   -0.9353    0.0000 O   0  0  0  0  0  0  0  0  0  0  0  0
    8.8334    1.5126    0.0000 O   0  0  0  0  0  0  0  0  0  0  0  0
    3.7320   -1.9353    0.0000 O   0  0  0  0  0  0  0  0  0  0  0  0
   10.4081   -1.7308    0.0000 O   0  0  0  0  0  0  0  0  0  0  0  0
   11.6865    0.5856    0.0000 O   0  0  0  0  0  0  0  0  0  0  0  0
   11.1513   -1.0617    0.0000 O   0  0  0  0  0  0  0  0  0  0  0  0
    8.3866   -4.7164    0.0000 O   0  0  0  0  0  0  0  0  0  0  0  0
    7.2276   -3.4292    0.0000 O   0  0  0  0  0  0  0  0  0  0  0  0
    6.3301    0.5647    0.0000 N   0  0  0  0  0  0  0  0  0  0  0  0
    7.0112    3.8261    0.0000 N   0  0  0  0  0  0  0  0  0  0  0  0
    8.2981   -0.1347    0.0000 N   0  0  0  0  0  0  0  0  0  0  0  0
    5.4641   -1.9353    0.0000 N   0  0  0  0  0  0  0  0  0  0  0  0
    4.5981   -3.4353    0.0000 N   0  0  0  0  0  0  0  0  0  0  0  0
    8.7139   -2.0910    0.0000 N   0  0  0  0  0  0  0  0  0  0  0  0
    6.8301    2.1035    0.0000 C   0  0  3  0  0  0  0  0  0  0  0  0
    7.1391    1.1525    0.0000 C   0  0  3  0  0  0  0  0  0  0  0  0
    5.8301    2.1035    0.0000 C   0  0  0  0  0  0  0  0  0  0  0  0
    5.5211    1.1525    0.0000 C   0  0  0  0  0  0  0  0  0  0  0  0
    7.4179    2.9126    0.0000 C   0  0  0  0  0  0  0  0  0  0  0  0
    5.4641   -0.9353    0.0000 C   0  0  2  0  0  0  0  0  0  0  0  0
    6.3301   -0.4353    0.0000 C   0  0  0  0  0  0  0  0  0  0  0  0
    4.5981   -0.4353    0.0000 C   0  0  0  0  0  0  0  0  0  0  0  0
    8.0902    0.8435    0.0000 C   0  0  0  0  0  0  0  0  0  0  0  0
    7.5112    4.6921    0.0000 C   0  0  0  0  0  0  0  0  0  0  0  0
    6.0330    4.0340    0.0000 C   0  0  0  0  0  0  0  0  0  0  0  0
    6.8420    5.4353    0.0000 C   0  0  0  0  0  0  0  0  0  0  0  0
    5.9285    5.0286    0.0000 C   0  0  0  0  0  0  0  0  0  0  0  0
    3.7320    0.0647    0.0000 C   0  0  0  0  0  0  0  0  0  0  0  0
    4.0981   -1.3013    0.0000 C   0  0  0  0  0  0  0  0  0  0  0  0
    5.0981    0.4307    0.0000 C   0  0  0  0  0  0  0  0  0  0  0  0
    9.2492   -0.4437    0.0000 C   0  0  1  0  0  0  0  0  0  0  0  0
    4.5981   -2.4353    0.0000 C   0  0  0  0  0  0  0  0  0  0  0  0
    9.9923    0.2254    0.0000 C   0  0  0  0  0  0  0  0  0  0  0  0
    9.4571   -1.4218    0.0000 C   0  0  0  0  0  0  0  0  0  0  0  0
    3.7320   -3.9353    0.0000 C   0  0  0  0  0  0  0  0  0  0  0  0
    8.9218   -3.0691    0.0000 C   0  0  1  0  0  0  0  0  0  0  0  0
   10.9434   -0.0836    0.0000 C   0  0  0  0  0  0  0  0  0  0  0  0
    3.7320   -4.9353    0.0000 C   0  0  0  0  0  0  0  0  0  0  0  0
    2.8660   -3.4353    0.0000 C   0  0  0  0  0  0  0  0  0  0  0  0
    9.8729   -3.3781    0.0000 C   0  0  0  0  0  0  0  0  0  0  0  0
   10.0808   -4.3563    0.0000 C   0  0  0  0  0  0  0  0  0  0  0  0
    8.1787   -3.7382    0.0000 C   0  0  0  0  0  0  0  0  0  0  0  0
    2.8660   -5.4353    0.0000 C   0  0  0  0  0  0  0  0  0  0  0  0
    2.0000   -3.9353    0.0000 C   0  0  0  0  0  0  0  0  0  0  0  0
   11.0319   -4.6653    0.0000 C   0  0  0  0  0  0  0  0  0  0  0  0
    9.3377   -5.0254    0.0000 C   0  0  0  0  0  0  0  0  0  0  0  0
    7.4425    2.0066    0.0000 H   0  0  0  0  0  0  0  0  0  0  0  0
    7.2361    0.5401    0.0000 H   0  0  0  0  0  0  0  0  0  0  0  0
    5.8949    2.7202    0.0000 H   0  0  0  0  0  0  0  0  0  0  0  0
    5.2237    2.2325    0.0000 H   0  0  0  0  0  0  0  0  0  0  0  0
    4.9547    1.4047    0.0000 H   0  0  0  0  0  0  0  0  0  0  0  0
    5.2111    0.6156    0.0000 H   0  0  0  0  0  0  0  0  0  0  0  0
    6.0010   -1.2453    0.0000 H   0  0  0  0  0  0  0  0  0  0  0  0
    8.0128    4.3277    0.0000 H   0  0  0  0  0  0  0  0  0  0  0  0
    7.9260    5.1529    0.0000 H   0  0  0  0  0  0  0  0  0  0  0  0
    5.4130    4.0340    0.0000 H   0  0  0  0  0  0  0  0  0  0  0  0
    5.9682    3.4174    0.0000 H   0  0  0  0  0  0  0  0  0  0  0  0
    7.3436    5.7997    0.0000 H   0  0  0  0  0  0  0  0  0  0  0  0
    6.5320    5.9722    0.0000 H   0  0  0  0  0  0  0  0  0  0  0  0
    5.7369    5.6182    0.0000 H   0  0  0  0  0  0  0  0  0  0  0  0
    5.3220    4.8996    0.0000 H   0  0  0  0  0  0  0  0  0  0  0  0
    7.8374   -0.5495    0.0000 H   0  0  0  0  0  0  0  0  0  0  0  0
    4.0420    0.6016    0.0000 H   0  0  0  0  0  0  0  0  0  0  0  0
    3.1951    0.3747    0.0000 H   0  0  0  0  0  0  0  0  0  0  0  0
    3.4220   -0.4722    0.0000 H   0  0  0  0  0  0  0  0  0  0  0  0
    3.5611   -0.9913    0.0000 H   0  0  0  0  0  0  0  0  0  0  0  0
    3.7881   -1.8382    0.0000 H   0  0  0  0  0  0  0  0  0  0  0  0
    4.6350   -1.6113    0.0000 H   0  0  0  0  0  0  0  0  0  0  0  0
    5.6350    0.1207    0.0000 H   0  0  0  0  0  0  0  0  0  0  0  0
    5.4081    0.9677    0.0000 H   0  0  0  0  0  0  0  0  0  0  0  0
    4.5611    0.7407    0.0000 H   0  0  0  0  0  0  0  0  0  0  0  0
    6.0010   -2.2453    0.0000 H   0  0  0  0  0  0  0  0  0  0  0  0
    8.7884   -0.8585    0.0000 H   0  0  0  0  0  0  0  0  0  0  0  0
   10.2834    0.7729    0.0000 H   0  0  0  0  0  0  0  0  0  0  0  0
    9.5038    0.6072    0.0000 H   0  0  0  0  0  0  0  0  0  0  0  0
    5.1350   -3.7453    0.0000 H   0  0  0  0  0  0  0  0  0  0  0  0
    3.7320   -3.3153    0.0000 H   0  0  0  0  0  0  0  0  0  0  0  0
    8.1243   -1.8994    0.0000 H   0  0  0  0  0  0  0  0  0  0  0  0
    8.3322   -2.8775    0.0000 H   0  0  0  0  0  0  0  0  0  0  0  0
    3.9441   -5.5179    0.0000 H   0  0  0  0  0  0  0  0  0  0  0  0
    4.3426   -4.8276    0.0000 H   0  0  0  0  0  0  0  0  0  0  0  0
    3.2646   -2.9603    0.0000 H   0  0  0  0  0  0  0  0  0  0  0  0
    2.4675   -2.9603    0.0000 H   0  0  0  0  0  0  0  0  0  0  0  0
   10.4925   -3.3565    0.0000 H   0  0  0  0  0  0  0  0  0  0  0  0
    9.9592   -2.7642    0.0000 H   0  0  0  0  0  0  0  0  0  0  0  0
   10.2097   -4.9627    0.0000 H   0  0  0  0  0  0  0  0  0  0  0  0
    2.5560   -4.8984    0.0000 H   0  0  0  0  0  0  0  0  0  0  0  0
    2.3291   -5.7453    0.0000 H   0  0  0  0  0  0  0  0  0  0  0  0
    3.1760   -5.9722    0.0000 H   0  0  0  0  0  0  0  0  0  0  0  0
    1.6900   -3.3984    0.0000 H   0  0  0  0  0  0  0  0  0  0  0  0
    1.4631   -4.2453    0.0000 H   0  0  0  0  0  0  0  0  0  0  0  0
    2.3100   -4.4722    0.0000 H   0  0  0  0  0  0  0  0  0  0  0  0
   10.8403   -5.2550    0.0000 H   0  0  0  0  0  0  0  0  0  0  0  0
   11.6215   -4.8569    0.0000 H   0  0  0  0  0  0  0  0  0  0  0  0
   11.2235   -4.0756    0.0000 H   0  0  0  0  0  0  0  0  0  0  0  0
    8.9228   -4.5646    0.0000 H   0  0  0  0  0  0  0  0  0  0  0  0
    8.8769   -5.4403    0.0000 H   0  0  0  0  0  0  0  0  0  0  0  0
    9.7525   -5.4862    0.0000 H   0  0  0  0  0  0  0  0  0  0  0  0
   12.2762    0.3940    0.0000 H   0  0  0  0  0  0  0  0  0  0  0  0
    7.9259   -5.1312    0.0000 H   0  0  0  0  0  0  0  0  0  0  0  0
  1 20  2  0  0  0  0
  2 22  2  0  0  0  0
  3 24  2  0  0  0  0
  4 33  2  0  0  0  0
  5 35  2  0  0  0  0
  6 38  1  0  0  0  0
  6100  1  0  0  0  0
  7 38  2  0  0  0  0
  8 43  1  0  0  0  0
  8101  1  0  0  0  0
  9 43  2  0  0  0  0
 10 17  1  0  0  0  0
 10 19  1  0  0  0  0
 10 22  1  0  0  0  0
 11 20  1  0  0  0  0
 11 25  1  0  0  0  0
 11 26  1  0  0  0  0
 12 24  1  0  0  0  0
 32 12  1  1  0  0  0
 12 63  1  0  0  0  0
 21 13  1  1  0  0  0
 13 33  1  0  0  0  0
 13 73  1  0  0  0  0
 14 33  1  0  0  0  0
 14 36  1  0  0  0  0
 14 77  1  0  0  0  0
 15 35  1  0  0  0  0
 37 15  1  1  0  0  0
 15 79  1  0  0  0  0
 16 17  1  0  0  0  0
 16 18  1  0  0  0  0
 16 20  1  0  0  0  0
 16 48  1  0  0  0  0
 17 24  1  0  0  0  0
 17 49  1  0  0  0  0
 18 19  1  0  0  0  0
 18 50  1  0  0  0  0
 18 51  1  0  0  0  0
 19 52  1  0  0  0  0
 19 53  1  0  0  0  0
 21 22  1  0  0  0  0
 21 23  1  0  0  0  0
 21 54  1  0  0  0  0
 23 29  1  0  0  0  0
 23 30  1  0  0  0  0
 23 31  1  0  0  0  0
 25 27  1  0  0  0  0
 25 55  1  0  0  0  0
 25 56  1  0  0  0  0
 26 28  1  0  0  0  0
 26 57  1  0  0  0  0
 26 58  1  0  0  0  0
 27 28  1  0  0  0  0
 27 59  1  0  0  0  0
 27 60  1  0  0  0  0
 28 61  1  0  0  0  0
 28 62  1  0  0  0  0
 29 64  1  0  0  0  0
 29 65  1  0  0  0  0
 29 66  1  0  0  0  0
 30 67  1  0  0  0  0
 30 68  1  0  0  0  0
 30 69  1  0  0  0  0
 31 70  1  0  0  0  0
 31 71  1  0  0  0  0
 31 72  1  0  0  0  0
 32 34  1  0  0  0  0
 32 35  1  0  0  0  0
 32 74  1  0  0  0  0
 34 38  1  0  0  0  0
 34 75  1  0  0  0  0
 34 76  1  0  0  0  0
 36 39  1  0  0  0  0
 36 40  1  0  0  0  0
 36 78  1  0  0  0  0
 37 41  1  0  0  0  0
 37 43  1  0  0  0  0
 37 80  1  0  0  0  0
 39 44  1  0  0  0  0
 39 81  1  0  0  0  0
 39 82  1  0  0  0  0
 40 45  1  0  0  0  0
 40 83  1  0  0  0  0
 40 84  1  0  0  0  0
 41 42  1  0  0  0  0
 41 85  1  0  0  0  0
 41 86  1  0  0  0  0
 42 46  1  0  0  0  0
 42 47  1  0  0  0  0
 42 87  1  0  0  0  0
 44 88  1  0  0  0  0
 44 89  1  0  0  0  0
 44 90  1  0  0  0  0
 45 91  1  0  0  0  0
 45 92  1  0  0  0  0
 45 93  1  0  0  0  0
 46 94  1  0  0  0  0
 46 95  1  0  0  0  0
 46 96  1  0  0  0  0
 47 97  1  0  0  0  0
 47 98  1  0  0  0  0
 47 99  1  0  0  0  0
M  END
> <PUBCHEM_COMPOUND_CID>
515266
> <PUBCHEM_COMPOUND_CANONICALIZED>
1
> <PUBCHEM_CACTVS_COMPLEXITY>
1160
> <PUBCHEM_CACTVS_HBOND_ACCEPTOR>
9
> <PUBCHEM_CACTVS_HBOND_DONOR>
6
> <PUBCHEM_CACTVS_ROTATABLE_BOND>
16
> <PUBCHEM_CACTVS_SUBSKEYS>
AAADcfB/vAAAAAAAAAAAAAAAAAAAAWLAAAAAAAAAAAAAAAAAAAAAHgAQCAAADyjBgAQDCAPAAgAIAAGQGAAAAAAAAAAAAIGIAACCQBoAwCAUQAAOFgKQAAC/AQAPAAAAAAAAAAAAAAAAAAAAAAAAAAAAAA==
> <PUBCHEM_IUPAC_OPENEYE_NAME>
(2S)-2-[[(2S)-3-carboxy-2-[[1-[(2S)-2-(1-ethylpropylcarbamoylamino)-3,3-dimethyl-butanoyl]-3-(pyrrolidine-1-carbonyl)pyrrolidine-2-carbonyl]amino]propanoyl]amino]-4-methyl-pentanoic acid
> <PUBCHEM_IUPAC_CAS_NAME>
(2S)-2-[[(2S)-3-carboxy-2-[[[1-[(2S)-3,3-dimethyl-1-oxo-2-[[oxo-(pentan-3-ylamino)methyl]amino]butyl]-3-[oxo(1-pyrrolidinyl)methyl]-2-pyrrolidinyl]-oxomethyl]amino]-1-oxopropyl]amino]-4-methylpentanoic acid
> <PUBCHEM_IUPAC_NAME_MARKUP>
(2<I>S</I>)-2-[[(2<I>S</I>)-3-carboxy-2-[[1-[(2<I>S</I>)-3,3-dimethyl-2-(pentan-3-ylcarbamoylamino)butanoyl]-3-(pyrrolidine-1-carbonyl)pyrrolidine-2-carbonyl]amino]propanoyl]amino]-4-methylpentanoic acid
> <PUBCHEM_IUPAC_NAME>
(2S)-2-[[(2S)-3-carboxy-2-[[1-[(2S)-3,3-dimethyl-2-(pentan-3-ylcarbamoylamino)butanoyl]-3-(pyrrolidine-1-carbonyl)pyrrolidine-2-carbonyl]amino]propanoyl]amino]-4-methylpentanoic acid
> <PUBCHEM_IUPAC_SYSTEMATIC_NAME>
(2S)-2-[[(2S)-2-[[1-[(2S)-3,3-dimethyl-2-(pentan-3-ylcarbamoylamino)butanoyl]-3-pyrrolidin-1-ylcarbonyl-pyrrolidin-2-yl]carbonylamino]-4-oxidanyl-4-oxidanylidene-butanoyl]amino]-4-methyl-pentanoic acid
> <PUBCHEM_IUPAC_TRADITIONAL_NAME>
(2S)-2-[[(2S)-3-carboxy-2-[[1-[(2S)-2-(1-ethylpropylcarbamoylamino)-3,3-dimethyl-butanoyl]-3-(pyrrolidine-1-carbonyl)prolyl]amino]propanoyl]amino]-4-methyl-valeric acid
> <PUBCHEM_IUPAC_INCHI>
InChI=1S/C32H54N6O9/c1-8-19(9-2)33-31(47)36-25(32(5,6)7)29(44)38-15-12-20(28(43)37-13-10-11-14-37)24(38)27(42)34-21(17-23(39)40)26(41)35-22(30(45)46)16-18(3)4/h18-22,24-25H,8-17H2,1-7H3,(H,34,42)(H,35,41)(H,39,40)(H,45,46)(H2,33,36,47)/t20?,21-,22-,24?,25+/m0/s1
> <PUBCHEM_IUPAC_INCHIKEY>
DSTSPNSXBAVLLD-DZFYUVNBSA-N
> <PUBCHEM_XLOGP3_AA>
2.2
> <PUBCHEM_EXACT_MASS>
666.39522732
> <PUBCHEM_MOLECULAR_FORMULA>
C32H54N6O9
> <PUBCHEM_MOLECULAR_WEIGHT>
666.8
> <PUBCHEM_OPENEYE_CAN_SMILES>
CCC(CC)NC(=O)NC(C(=O)N1CCC(C1C(=O)NC(CC(=O)O)C(=O)NC(CC(C)C)C(=O)O)C(=O)N2CCCC2)C(C)(C)C
> <PUBCHEM_OPENEYE_ISO_SMILES>
CCC(CC)NC(=O)N[C@H](C(=O)N1CCC(C1C(=O)N[C@@H](CC(=O)O)C(=O)N[C@@H](CC(C)C)C(=O)O)C(=O)N2CCCC2)C(C)(C)C
> <PUBCHEM_CACTVS_TPSA>
215
> <PUBCHEM_MONOISOTOPIC_WEIGHT>
666.39522732
> <PUBCHEM_TOTAL_CHARGE>
0
> <PUBCHEM_HEAVY_ATOM_COUNT>
47
> <PUBCHEM_ATOM_DEF_STEREO_COUNT>
3
> <PUBCHEM_ATOM_UDEF_STEREO_COUNT>
2
> <PUBCHEM_BOND_DEF_STEREO_COUNT>
0
> <PUBCHEM_BOND_UDEF_STEREO_COUNT>
0
> <PUBCHEM_ISOTOPIC_ATOM_COUNT>
0
> <PUBCHEM_COMPONENT_COUNT>
1
> <PUBCHEM_CACTVS_TAUTO_COUNT>
-1
> <PUBCHEM_COORDINATE_TYPE>
1
5
255
> <PUBCHEM_BONDANNOTATIONS>
32  12  5
21  13  5
37  15  5
16  20  3
17  24  3
$$$$
