515253
  -OEChem-10302200282D
 82 82  0     1  0  0  0  0  0999 V2000
    9.7942    2.2306    0.0000 O   0  0  0  0  0  0  0  0  0  0  0  0
    9.7942    1.2306    0.0000 O   0  0  0  0  0  0  0  0  0  0  0  0
    6.3301    2.2306    0.0000 O   0  0  0  0  0  0  0  0  0  0  0  0
   10.6603   -2.2694    0.0000 O   0  0  0  0  0  0  0  0  0  0  0  0
    8.0622   -4.7694    0.0000 O   0  0  0  0  0  0  0  0  0  0  0  0
    7.1962   -3.2694    0.0000 O   0  0  0  0  0  0  0  0  0  0  0  0
   12.3923   -0.2694    0.0000 O   0  0  0  0  0  0  0  0  0  0  0  0
    3.7320   -0.2694    0.0000 O   0  0  0  0  0  0  0  0  0  0  0  0
   11.5263   -1.7694    0.0000 O   0  0  0  0  0  0  0  0  0  0  0  0
    8.9282    3.7306    0.0000 N   0  0  0  0  0  0  0  0  0  0  0  0
    7.1962    0.7306    0.0000 N   0  0  0  0  0  0  0  0  0  0  0  0
    8.9282   -0.2694    0.0000 N   0  0  0  0  0  0  0  0  0  0  0  0
    8.9282   -2.2694    0.0000 N   0  0  0  0  0  0  0  0  0  0  0  0
    4.5981    1.2306    0.0000 N   0  0  0  0  0  0  0  0  0  0  0  0
    2.8660    1.2306    0.0000 N   0  0  0  0  0  0  0  0  0  0  0  0
    9.7372    4.3184    0.0000 C   0  0  0  0  0  0  0  0  0  0  0  0
    8.1192    4.3184    0.0000 C   0  0  0  0  0  0  0  0  0  0  0  0
    9.4282    5.2694    0.0000 C   0  0  0  0  0  0  0  0  0  0  0  0
    8.4282    5.2694    0.0000 C   0  0  0  0  0  0  0  0  0  0  0  0
    8.9282    2.7306    0.0000 C   0  0  0  0  0  0  0  0  0  0  0  0
    8.0622    2.2306    0.0000 C   0  0  0  0  0  0  0  0  0  0  0  0
    8.0622    1.2306    0.0000 C   0  0  1  0  0  0  0  0  0  0  0  0
    5.4641    0.7306    0.0000 C   0  0  1  0  0  0  0  0  0  0  0  0
    5.4641   -0.2694    0.0000 C   0  0  0  0  0  0  0  0  0  0  0  0
    8.9282    0.7306    0.0000 C   0  0  0  0  0  0  0  0  0  0  0  0
    6.3301    1.2306    0.0000 C   0  0  0  0  0  0  0  0  0  0  0  0
    9.7942   -0.7694    0.0000 C   0  0  2  0  0  0  0  0  0  0  0  0
    9.7942   -3.7694    0.0000 C   0  0  0  0  0  0  0  0  0  0  0  0
    8.9282   -3.2694    0.0000 C   0  0  1  0  0  0  0  0  0  0  0  0
    9.7942   -4.7694    0.0000 C   0  0  0  0  0  0  0  0  0  0  0  0
    9.7942   -1.7694    0.0000 C   0  0  0  0  0  0  0  0  0  0  0  0
    4.5981   -0.7694    0.0000 C   0  0  0  0  0  0  0  0  0  0  0  0
    6.3301   -0.7694    0.0000 C   0  0  0  0  0  0  0  0  0  0  0  0
   10.6603   -0.2694    0.0000 C   0  0  0  0  0  0  0  0  0  0  0  0
   10.6603   -5.2694    0.0000 C   0  0  0  0  0  0  0  0  0  0  0  0
    8.9282   -5.2694    0.0000 C   0  0  0  0  0  0  0  0  0  0  0  0
    8.0622   -3.7694    0.0000 C   0  0  0  0  0  0  0  0  0  0  0  0
    3.7320    0.7306    0.0000 C   0  0  0  0  0  0  0  0  0  0  0  0
   11.5263   -0.7694    0.0000 C   0  0  0  0  0  0  0  0  0  0  0  0
    2.0000    0.7306    0.0000 C   0  0  0  0  0  0  0  0  0  0  0  0
   10.0472    3.7814    0.0000 H   0  0  0  0  0  0  0  0  0  0  0  0
   10.3036    4.5705    0.0000 H   0  0  0  0  0  0  0  0  0  0  0  0
    7.5528    4.5705    0.0000 H   0  0  0  0  0  0  0  0  0  0  0  0
    7.8092    3.7814    0.0000 H   0  0  0  0  0  0  0  0  0  0  0  0
   10.0347    5.3983    0.0000 H   0  0  0  0  0  0  0  0  0  0  0  0
    9.3634    5.8860    0.0000 H   0  0  0  0  0  0  0  0  0  0  0  0
    8.4930    5.8860    0.0000 H   0  0  0  0  0  0  0  0  0  0  0  0
    7.8218    5.3983    0.0000 H   0  0  0  0  0  0  0  0  0  0  0  0
    7.8501    2.8132    0.0000 H   0  0  0  0  0  0  0  0  0  0  0  0
    7.4516    2.1229    0.0000 H   0  0  0  0  0  0  0  0  0  0  0  0
    8.0622    0.6106    0.0000 H   0  0  0  0  0  0  0  0  0  0  0  0
    5.4641    1.3506    0.0000 H   0  0  0  0  0  0  0  0  0  0  0  0
    7.1962    0.1106    0.0000 H   0  0  0  0  0  0  0  0  0  0  0  0
    5.4641   -0.8894    0.0000 H   0  0  0  0  0  0  0  0  0  0  0  0
    9.2573   -1.0794    0.0000 H   0  0  0  0  0  0  0  0  0  0  0  0
   10.4048   -3.8771    0.0000 H   0  0  0  0  0  0  0  0  0  0  0  0
   10.0063   -3.1868    0.0000 H   0  0  0  0  0  0  0  0  0  0  0  0
    9.4651   -2.9594    0.0000 H   0  0  0  0  0  0  0  0  0  0  0  0
    8.3913   -0.5794    0.0000 H   0  0  0  0  0  0  0  0  0  0  0  0
    9.2573   -4.4594    0.0000 H   0  0  0  0  0  0  0  0  0  0  0  0
    8.3913   -1.9594    0.0000 H   0  0  0  0  0  0  0  0  0  0  0  0
    4.2881   -0.2325    0.0000 H   0  0  0  0  0  0  0  0  0  0  0  0
    4.0611   -1.0794    0.0000 H   0  0  0  0  0  0  0  0  0  0  0  0
    4.9081   -1.3064    0.0000 H   0  0  0  0  0  0  0  0  0  0  0  0
    6.0201   -1.3064    0.0000 H   0  0  0  0  0  0  0  0  0  0  0  0
    6.8671   -1.0794    0.0000 H   0  0  0  0  0  0  0  0  0  0  0  0
    6.6401   -0.2325    0.0000 H   0  0  0  0  0  0  0  0  0  0  0  0
   11.0588    0.2055    0.0000 H   0  0  0  0  0  0  0  0  0  0  0  0
   10.2617    0.2055    0.0000 H   0  0  0  0  0  0  0  0  0  0  0  0
    4.5981    1.8506    0.0000 H   0  0  0  0  0  0  0  0  0  0  0  0
   10.3503   -5.8064    0.0000 H   0  0  0  0  0  0  0  0  0  0  0  0
   11.1972   -5.5794    0.0000 H   0  0  0  0  0  0  0  0  0  0  0  0
   10.9703   -4.7325    0.0000 H   0  0  0  0  0  0  0  0  0  0  0  0
    8.6182   -4.7325    0.0000 H   0  0  0  0  0  0  0  0  0  0  0  0
    8.3913   -5.5794    0.0000 H   0  0  0  0  0  0  0  0  0  0  0  0
    9.2382   -5.8064    0.0000 H   0  0  0  0  0  0  0  0  0  0  0  0
    2.8660    1.8506    0.0000 H   0  0  0  0  0  0  0  0  0  0  0  0
    7.5252   -5.0794    0.0000 H   0  0  0  0  0  0  0  0  0  0  0  0
   12.9292   -0.5794    0.0000 H   0  0  0  0  0  0  0  0  0  0  0  0
    1.6900    1.2675    0.0000 H   0  0  0  0  0  0  0  0  0  0  0  0
    1.4631    0.4206    0.0000 H   0  0  0  0  0  0  0  0  0  0  0  0
    2.3100    0.1936    0.0000 H   0  0  0  0  0  0  0  0  0  0  0  0
  1 20  2  0  0  0  0
  2 25  2  0  0  0  0
  3 26  2  0  0  0  0
  4 31  2  0  0  0  0
  5 37  1  0  0  0  0
  5 78  1  0  0  0  0
  6 37  2  0  0  0  0
  7 39  1  0  0  0  0
  7 79  1  0  0  0  0
  8 38  2  0  0  0  0
  9 39  2  0  0  0  0
 10 16  1  0  0  0  0
 10 17  1  0  0  0  0
 10 20  1  0  0  0  0
 22 11  1  1  0  0  0
 11 26  1  0  0  0  0
 11 53  1  0  0  0  0
 12 25  1  0  0  0  0
 27 12  1  1  0  0  0
 12 59  1  0  0  0  0
 29 13  1  1  0  0  0
 13 31  1  0  0  0  0
 13 61  1  0  0  0  0
 23 14  1  6  0  0  0
 14 38  1  0  0  0  0
 14 70  1  0  0  0  0
 15 38  1  0  0  0  0
 15 40  1  0  0  0  0
 15 77  1  0  0  0  0
 16 18  1  0  0  0  0
 16 41  1  0  0  0  0
 16 42  1  0  0  0  0
 17 19  1  0  0  0  0
 17 43  1  0  0  0  0
 17 44  1  0  0  0  0
 18 19  1  0  0  0  0
 18 45  1  0  0  0  0
 18 46  1  0  0  0  0
 19 47  1  0  0  0  0
 19 48  1  0  0  0  0
 20 21  1  0  0  0  0
 21 22  1  0  0  0  0
 21 49  1  0  0  0  0
 21 50  1  0  0  0  0
 22 25  1  0  0  0  0
 22 51  1  0  0  0  0
 23 24  1  0  0  0  0
 23 26  1  0  0  0  0
 23 52  1  0  0  0  0
 24 32  1  0  0  0  0
 24 33  1  0  0  0  0
 24 54  1  0  0  0  0
 27 31  1  0  0  0  0
 27 34  1  0  0  0  0
 27 55  1  0  0  0  0
 28 29  1  0  0  0  0
 28 30  1  0  0  0  0
 28 56  1  0  0  0  0
 28 57  1  0  0  0  0
 29 37  1  0  0  0  0
 29 58  1  0  0  0  0
 30 35  1  0  0  0  0
 30 36  1  0  0  0  0
 30 60  1  0  0  0  0
 32 62  1  0  0  0  0
 32 63  1  0  0  0  0
 32 64  1  0  0  0  0
 33 65  1  0  0  0  0
 33 66  1  0  0  0  0
 33 67  1  0  0  0  0
 34 39  1  0  0  0  0
 34 68  1  0  0  0  0
 34 69  1  0  0  0  0
 35 71  1  0  0  0  0
 35 72  1  0  0  0  0
 35 73  1  0  0  0  0
 36 74  1  0  0  0  0
 36 75  1  0  0  0  0
 36 76  1  0  0  0  0
 40 80  1  0  0  0  0
 40 81  1  0  0  0  0
 40 82  1  0  0  0  0
M  END
> <PUBCHEM_COMPOUND_CID>
515253
> <PUBCHEM_COMPOUND_CANONICALIZED>
1
> <PUBCHEM_CACTVS_COMPLEXITY>
949
> <PUBCHEM_CACTVS_HBOND_ACCEPTOR>
9
> <PUBCHEM_CACTVS_HBOND_DONOR>
7
> <PUBCHEM_CACTVS_ROTATABLE_BOND>
15
> <PUBCHEM_CACTVS_SUBSKEYS>
AAADcfB7vAAAAAAAAAAAAAAAAAAAAWAAAAAAAAAAAAAAAAAAAAAAHgAQCAAADSjBgAQDCAPAAgAIAAGQGAAAAAAAAAAAAIGIAACCQBoAwCAUQAAOFgKQAACvAAAMAAAAAAAAAAAAAAAAAAAAAAAAAAAAAA==
> <PUBCHEM_IUPAC_OPENEYE_NAME>
(2S)-2-[[(2S)-3-carboxy-2-[[(2S)-2-[[(2S)-3-methyl-2-(methylcarbamoylamino)butanoyl]amino]-4-oxo-4-pyrrolidin-1-yl-butanoyl]amino]propanoyl]amino]-4-methyl-pentanoic acid
> <PUBCHEM_IUPAC_CAS_NAME>
(2S)-2-[[(2S)-3-carboxy-2-[[(2S)-2-[[(2S)-3-methyl-2-(methylcarbamoylamino)-1-oxobutyl]amino]-1,4-dioxo-4-(1-pyrrolidinyl)butyl]amino]-1-oxopropyl]amino]-4-methylpentanoic acid
> <PUBCHEM_IUPAC_NAME_MARKUP>
(2<I>S</I>)-2-[[(2<I>S</I>)-3-carboxy-2-[[(2<I>S</I>)-2-[[(2<I>S</I>)-3-methyl-2-(methylcarbamoylamino)butanoyl]amino]-4-oxo-4-pyrrolidin-1-ylbutanoyl]amino]propanoyl]amino]-4-methylpentanoic acid
> <PUBCHEM_IUPAC_NAME>
(2S)-2-[[(2S)-3-carboxy-2-[[(2S)-2-[[(2S)-3-methyl-2-(methylcarbamoylamino)butanoyl]amino]-4-oxo-4-pyrrolidin-1-ylbutanoyl]amino]propanoyl]amino]-4-methylpentanoic acid
> <PUBCHEM_IUPAC_SYSTEMATIC_NAME>
(2S)-4-methyl-2-[[(2S)-2-[[(2S)-2-[[(2S)-3-methyl-2-(methylcarbamoylamino)butanoyl]amino]-4-oxidanylidene-4-pyrrolidin-1-yl-butanoyl]amino]-4-oxidanyl-4-oxidanylidene-butanoyl]amino]pentanoic acid
> <PUBCHEM_IUPAC_TRADITIONAL_NAME>
(2S)-2-[[(2S)-3-carboxy-2-[[(2S)-4-keto-2-[[(2S)-3-methyl-2-(methylcarbamoylamino)butanoyl]amino]-4-pyrrolidino-butanoyl]amino]propanoyl]amino]-4-methyl-valeric acid
> <PUBCHEM_IUPAC_INCHI>
InChI=1S/C25H42N6O9/c1-13(2)10-17(24(38)39)29-22(36)16(12-19(33)34)27-21(35)15(11-18(32)31-8-6-7-9-31)28-23(37)20(14(3)4)30-25(40)26-5/h13-17,20H,6-12H2,1-5H3,(H,27,35)(H,28,37)(H,29,36)(H,33,34)(H,38,39)(H2,26,30,40)/t15-,16-,17-,20-/m0/s1
> <PUBCHEM_IUPAC_INCHIKEY>
OIBQDRADGJEXQS-BOSXTWCSSA-N
> <PUBCHEM_XLOGP3_AA>
-0.4
> <PUBCHEM_EXACT_MASS>
570.30132694
> <PUBCHEM_MOLECULAR_FORMULA>
C25H42N6O9
> <PUBCHEM_MOLECULAR_WEIGHT>
570.6
> <PUBCHEM_OPENEYE_CAN_SMILES>
CC(C)CC(C(=O)O)NC(=O)C(CC(=O)O)NC(=O)C(CC(=O)N1CCCC1)NC(=O)C(C(C)C)NC(=O)NC
> <PUBCHEM_OPENEYE_ISO_SMILES>
CC(C)C[C@@H](C(=O)O)NC(=O)[C@H](CC(=O)O)NC(=O)[C@H](CC(=O)N1CCCC1)NC(=O)[C@H](C(C)C)NC(=O)NC
> <PUBCHEM_CACTVS_TPSA>
223
> <PUBCHEM_MONOISOTOPIC_WEIGHT>
570.30132694
> <PUBCHEM_TOTAL_CHARGE>
0
> <PUBCHEM_HEAVY_ATOM_COUNT>
40
> <PUBCHEM_ATOM_DEF_STEREO_COUNT>
4
> <PUBCHEM_ATOM_UDEF_STEREO_COUNT>
0
> <PUBCHEM_BOND_DEF_STEREO_COUNT>
0
> <PUBCHEM_BOND_UDEF_STEREO_COUNT>
0
> <PUBCHEM_ISOTOPIC_ATOM_COUNT>
0
> <PUBCHEM_COMPONENT_COUNT>
1
> <PUBCHEM_CACTVS_TAUTO_COUNT>
-1
> <PUBCHEM_COORDINATE_TYPE>
1
5
255
> <PUBCHEM_BONDANNOTATIONS>
22  11  5
27  12  5
29  13  5
23  14  6
$$$$
