515254
  -OEChem-10302200282D
100100  0     1  0  0  0  0  0999 V2000
   12.3923    2.2306    0.0000 O   0  0  0  0  0  0  0  0  0  0  0  0
    8.9282    2.2306    0.0000 O   0  0  0  0  0  0  0  0  0  0  0  0
   12.3923    1.2306    0.0000 O   0  0  0  0  0  0  0  0  0  0  0  0
    6.3301   -0.2694    0.0000 O   0  0  0  0  0  0  0  0  0  0  0  0
   13.2583   -2.2694    0.0000 O   0  0  0  0  0  0  0  0  0  0  0  0
   10.6603   -4.7694    0.0000 O   0  0  0  0  0  0  0  0  0  0  0  0
    9.7942   -3.2694    0.0000 O   0  0  0  0  0  0  0  0  0  0  0  0
   14.9904   -0.2694    0.0000 O   0  0  0  0  0  0  0  0  0  0  0  0
   14.1244   -1.7694    0.0000 O   0  0  0  0  0  0  0  0  0  0  0  0
   11.5263    3.7306    0.0000 N   0  0  0  0  0  0  0  0  0  0  0  0
    9.7942    0.7306    0.0000 N   0  0  0  0  0  0  0  0  0  0  0  0
    7.1962    1.2306    0.0000 N   0  0  0  0  0  0  0  0  0  0  0  0
    5.4641    1.2306    0.0000 N   0  0  0  0  0  0  0  0  0  0  0  0
   11.5263   -0.2694    0.0000 N   0  0  0  0  0  0  0  0  0  0  0  0
   11.5263   -2.2694    0.0000 N   0  0  0  0  0  0  0  0  0  0  0  0
   12.3353    4.3184    0.0000 C   0  0  0  0  0  0  0  0  0  0  0  0
   10.7173    4.3184    0.0000 C   0  0  0  0  0  0  0  0  0  0  0  0
   12.0263    5.2694    0.0000 C   0  0  0  0  0  0  0  0  0  0  0  0
   11.0263    5.2694    0.0000 C   0  0  0  0  0  0  0  0  0  0  0  0
   11.5263    2.7306    0.0000 C   0  0  0  0  0  0  0  0  0  0  0  0
   10.6603    2.2306    0.0000 C   0  0  0  0  0  0  0  0  0  0  0  0
   10.6603    1.2306    0.0000 C   0  0  1  0  0  0  0  0  0  0  0  0
    8.0622    0.7306    0.0000 C   0  0  1  0  0  0  0  0  0  0  0  0
    8.0622   -0.2694    0.0000 C   0  0  0  0  0  0  0  0  0  0  0  0
    4.5981    0.7306    0.0000 C   0  0  0  0  0  0  0  0  0  0  0  0
    8.9282    1.2306    0.0000 C   0  0  0  0  0  0  0  0  0  0  0  0
   11.5263    0.7306    0.0000 C   0  0  0  0  0  0  0  0  0  0  0  0
    3.7320    1.2306    0.0000 C   0  0  0  0  0  0  0  0  0  0  0  0
    4.5981   -0.2694    0.0000 C   0  0  0  0  0  0  0  0  0  0  0  0
   12.3923   -0.7694    0.0000 C   0  0  2  0  0  0  0  0  0  0  0  0
    7.1962   -0.7694    0.0000 C   0  0  0  0  0  0  0  0  0  0  0  0
    8.9282   -0.7694    0.0000 C   0  0  0  0  0  0  0  0  0  0  0  0
    6.3301    0.7306    0.0000 C   0  0  0  0  0  0  0  0  0  0  0  0
   11.5263   -3.2694    0.0000 C   0  0  1  0  0  0  0  0  0  0  0  0
    2.8660    0.7306    0.0000 C   0  0  0  0  0  0  0  0  0  0  0  0
    3.7320   -0.7694    0.0000 C   0  0  0  0  0  0  0  0  0  0  0  0
   12.3923   -3.7694    0.0000 C   0  0  0  0  0  0  0  0  0  0  0  0
   12.3923   -4.7694    0.0000 C   0  0  0  0  0  0  0  0  0  0  0  0
   12.3923   -1.7694    0.0000 C   0  0  0  0  0  0  0  0  0  0  0  0
   13.2583   -0.2694    0.0000 C   0  0  0  0  0  0  0  0  0  0  0  0
    2.0000    1.2306    0.0000 C   0  0  0  0  0  0  0  0  0  0  0  0
    3.7320   -1.7694    0.0000 C   0  0  0  0  0  0  0  0  0  0  0  0
   13.2583   -5.2694    0.0000 C   0  0  0  0  0  0  0  0  0  0  0  0
   11.5263   -5.2694    0.0000 C   0  0  0  0  0  0  0  0  0  0  0  0
   10.6603   -3.7694    0.0000 C   0  0  0  0  0  0  0  0  0  0  0  0
   14.1244   -0.7694    0.0000 C   0  0  0  0  0  0  0  0  0  0  0  0
   12.6453    3.7814    0.0000 H   0  0  0  0  0  0  0  0  0  0  0  0
   12.9017    4.5705    0.0000 H   0  0  0  0  0  0  0  0  0  0  0  0
   10.1509    4.5705    0.0000 H   0  0  0  0  0  0  0  0  0  0  0  0
   10.4073    3.7814    0.0000 H   0  0  0  0  0  0  0  0  0  0  0  0
   12.6327    5.3983    0.0000 H   0  0  0  0  0  0  0  0  0  0  0  0
   11.9615    5.8860    0.0000 H   0  0  0  0  0  0  0  0  0  0  0  0
   11.0911    5.8860    0.0000 H   0  0  0  0  0  0  0  0  0  0  0  0
   10.4198    5.3983    0.0000 H   0  0  0  0  0  0  0  0  0  0  0  0
   10.4482    2.8132    0.0000 H   0  0  0  0  0  0  0  0  0  0  0  0
   10.0497    2.1229    0.0000 H   0  0  0  0  0  0  0  0  0  0  0  0
   10.6603    0.6106    0.0000 H   0  0  0  0  0  0  0  0  0  0  0  0
    8.0622    1.3506    0.0000 H   0  0  0  0  0  0  0  0  0  0  0  0
    8.0622   -0.8894    0.0000 H   0  0  0  0  0  0  0  0  0  0  0  0
    4.5981    1.3506    0.0000 H   0  0  0  0  0  0  0  0  0  0  0  0
    9.7942    0.1106    0.0000 H   0  0  0  0  0  0  0  0  0  0  0  0
    4.1306    1.7055    0.0000 H   0  0  0  0  0  0  0  0  0  0  0  0
    3.3335    1.7055    0.0000 H   0  0  0  0  0  0  0  0  0  0  0  0
    4.8101   -0.8520    0.0000 H   0  0  0  0  0  0  0  0  0  0  0  0
    5.2087   -0.1618    0.0000 H   0  0  0  0  0  0  0  0  0  0  0  0
    7.1962    1.8506    0.0000 H   0  0  0  0  0  0  0  0  0  0  0  0
   11.8554   -1.0794    0.0000 H   0  0  0  0  0  0  0  0  0  0  0  0
    5.4641    1.8506    0.0000 H   0  0  0  0  0  0  0  0  0  0  0  0
   10.9893   -0.5794    0.0000 H   0  0  0  0  0  0  0  0  0  0  0  0
    6.8862   -0.2325    0.0000 H   0  0  0  0  0  0  0  0  0  0  0  0
    6.6592   -1.0794    0.0000 H   0  0  0  0  0  0  0  0  0  0  0  0
    7.5062   -1.3064    0.0000 H   0  0  0  0  0  0  0  0  0  0  0  0
    8.6182   -1.3064    0.0000 H   0  0  0  0  0  0  0  0  0  0  0  0
    9.4651   -1.0794    0.0000 H   0  0  0  0  0  0  0  0  0  0  0  0
    9.2382   -0.2325    0.0000 H   0  0  0  0  0  0  0  0  0  0  0  0
   13.0029   -3.8771    0.0000 H   0  0  0  0  0  0  0  0  0  0  0  0
   12.6044   -3.1868    0.0000 H   0  0  0  0  0  0  0  0  0  0  0  0
   12.0632   -2.9594    0.0000 H   0  0  0  0  0  0  0  0  0  0  0  0
    2.4675    0.2556    0.0000 H   0  0  0  0  0  0  0  0  0  0  0  0
    3.2646    0.2556    0.0000 H   0  0  0  0  0  0  0  0  0  0  0  0
    3.5200   -0.1868    0.0000 H   0  0  0  0  0  0  0  0  0  0  0  0
    3.1215   -0.8771    0.0000 H   0  0  0  0  0  0  0  0  0  0  0  0
   11.8554   -4.4594    0.0000 H   0  0  0  0  0  0  0  0  0  0  0  0
   13.6569    0.2055    0.0000 H   0  0  0  0  0  0  0  0  0  0  0  0
   12.8598    0.2055    0.0000 H   0  0  0  0  0  0  0  0  0  0  0  0
   10.9893   -1.9594    0.0000 H   0  0  0  0  0  0  0  0  0  0  0  0
    2.3100    1.7675    0.0000 H   0  0  0  0  0  0  0  0  0  0  0  0
    1.4631    1.5406    0.0000 H   0  0  0  0  0  0  0  0  0  0  0  0
    1.6900    0.6936    0.0000 H   0  0  0  0  0  0  0  0  0  0  0  0
    3.1120   -1.7694    0.0000 H   0  0  0  0  0  0  0  0  0  0  0  0
    3.7320   -2.3894    0.0000 H   0  0  0  0  0  0  0  0  0  0  0  0
    4.3520   -1.7694    0.0000 H   0  0  0  0  0  0  0  0  0  0  0  0
   12.9483   -5.8064    0.0000 H   0  0  0  0  0  0  0  0  0  0  0  0
   13.7953   -5.5794    0.0000 H   0  0  0  0  0  0  0  0  0  0  0  0
   13.5683   -4.7325    0.0000 H   0  0  0  0  0  0  0  0  0  0  0  0
   11.2163   -4.7325    0.0000 H   0  0  0  0  0  0  0  0  0  0  0  0
   10.9893   -5.5794    0.0000 H   0  0  0  0  0  0  0  0  0  0  0  0
   11.8363   -5.8064    0.0000 H   0  0  0  0  0  0  0  0  0  0  0  0
   10.1233   -5.0794    0.0000 H   0  0  0  0  0  0  0  0  0  0  0  0
   15.5273   -0.5794    0.0000 H   0  0  0  0  0  0  0  0  0  0  0  0
  1 20  2  0  0  0  0
  2 26  2  0  0  0  0
  3 27  2  0  0  0  0
  4 33  2  0  0  0  0
  5 39  2  0  0  0  0
  6 45  1  0  0  0  0
  6 99  1  0  0  0  0
  7 45  2  0  0  0  0
  8 46  1  0  0  0  0
  8100  1  0  0  0  0
  9 46  2  0  0  0  0
 10 16  1  0  0  0  0
 10 17  1  0  0  0  0
 10 20  1  0  0  0  0
 22 11  1  1  0  0  0
 11 26  1  0  0  0  0
 11 61  1  0  0  0  0
 23 12  1  6  0  0  0
 12 33  1  0  0  0  0
 12 66  1  0  0  0  0
 13 25  1  0  0  0  0
 13 33  1  0  0  0  0
 13 68  1  0  0  0  0
 14 27  1  0  0  0  0
 30 14  1  1  0  0  0
 14 69  1  0  0  0  0
 34 15  1  1  0  0  0
 15 39  1  0  0  0  0
 15 86  1  0  0  0  0
 16 18  1  0  0  0  0
 16 47  1  0  0  0  0
 16 48  1  0  0  0  0
 17 19  1  0  0  0  0
 17 49  1  0  0  0  0
 17 50  1  0  0  0  0
 18 19  1  0  0  0  0
 18 51  1  0  0  0  0
 18 52  1  0  0  0  0
 19 53  1  0  0  0  0
 19 54  1  0  0  0  0
 20 21  1  0  0  0  0
 21 22  1  0  0  0  0
 21 55  1  0  0  0  0
 21 56  1  0  0  0  0
 22 27  1  0  0  0  0
 22 57  1  0  0  0  0
 23 24  1  0  0  0  0
 23 26  1  0  0  0  0
 23 58  1  0  0  0  0
 24 31  1  0  0  0  0
 24 32  1  0  0  0  0
 24 59  1  0  0  0  0
 25 28  1  0  0  0  0
 25 29  1  0  0  0  0
 25 60  1  0  0  0  0
 28 35  1  0  0  0  0
 28 62  1  0  0  0  0
 28 63  1  0  0  0  0
 29 36  1  0  0  0  0
 29 64  1  0  0  0  0
 29 65  1  0  0  0  0
 30 39  1  0  0  0  0
 30 40  1  0  0  0  0
 30 67  1  0  0  0  0
 31 70  1  0  0  0  0
 31 71  1  0  0  0  0
 31 72  1  0  0  0  0
 32 73  1  0  0  0  0
 32 74  1  0  0  0  0
 32 75  1  0  0  0  0
 34 37  1  0  0  0  0
 34 45  1  0  0  0  0
 34 78  1  0  0  0  0
 35 41  1  0  0  0  0
 35 79  1  0  0  0  0
 35 80  1  0  0  0  0
 36 42  1  0  0  0  0
 36 81  1  0  0  0  0
 36 82  1  0  0  0  0
 37 38  1  0  0  0  0
 37 76  1  0  0  0  0
 37 77  1  0  0  0  0
 38 43  1  0  0  0  0
 38 44  1  0  0  0  0
 38 83  1  0  0  0  0
 40 46  1  0  0  0  0
 40 84  1  0  0  0  0
 40 85  1  0  0  0  0
 41 87  1  0  0  0  0
 41 88  1  0  0  0  0
 41 89  1  0  0  0  0
 42 90  1  0  0  0  0
 42 91  1  0  0  0  0
 42 92  1  0  0  0  0
 43 93  1  0  0  0  0
 43 94  1  0  0  0  0
 43 95  1  0  0  0  0
 44 96  1  0  0  0  0
 44 97  1  0  0  0  0
 44 98  1  0  0  0  0
M  END
> <PUBCHEM_COMPOUND_CID>
515254
> <PUBCHEM_COMPOUND_CANONICALIZED>
1
> <PUBCHEM_CACTVS_COMPLEXITY>
1060
> <PUBCHEM_CACTVS_HBOND_ACCEPTOR>
9
> <PUBCHEM_CACTVS_HBOND_DONOR>
7
> <PUBCHEM_CACTVS_ROTATABLE_BOND>
20
> <PUBCHEM_CACTVS_SUBSKEYS>
AAADcfB7vAAAAAAAAAAAAAAAAAAAAWAAAAAAAAAAAAAAAAAAAAAAHgAQCAAADSjBgAQDCAPAAgAIAAGQGAAAAAAAAAAAAIGIAACCQBoAwCAUQAAOFgKQAAGvgAAMAAAAAAAAAAAAAAAAAAAAAAAAAAAAAA==
> <PUBCHEM_IUPAC_OPENEYE_NAME>
(2S)-2-[[(2S)-3-carboxy-2-[[(2S)-2-[[(2S)-3-methyl-2-(1-propylbutylcarbamoylamino)butanoyl]amino]-4-oxo-4-pyrrolidin-1-yl-butanoyl]amino]propanoyl]amino]-4-methyl-pentanoic acid
> <PUBCHEM_IUPAC_CAS_NAME>
(2S)-2-[[(2S)-3-carboxy-2-[[(2S)-2-[[(2S)-2-[[(heptan-4-ylamino)-oxomethyl]amino]-3-methyl-1-oxobutyl]amino]-1,4-dioxo-4-(1-pyrrolidinyl)butyl]amino]-1-oxopropyl]amino]-4-methylpentanoic acid
> <PUBCHEM_IUPAC_NAME_MARKUP>
(2<I>S</I>)-2-[[(2<I>S</I>)-3-carboxy-2-[[(2<I>S</I>)-2-[[(2<I>S</I>)-2-(heptan-4-ylcarbamoylamino)-3-methylbutanoyl]amino]-4-oxo-4-pyrrolidin-1-ylbutanoyl]amino]propanoyl]amino]-4-methylpentanoic acid
> <PUBCHEM_IUPAC_NAME>
(2S)-2-[[(2S)-3-carboxy-2-[[(2S)-2-[[(2S)-2-(heptan-4-ylcarbamoylamino)-3-methylbutanoyl]amino]-4-oxo-4-pyrrolidin-1-ylbutanoyl]amino]propanoyl]amino]-4-methylpentanoic acid
> <PUBCHEM_IUPAC_SYSTEMATIC_NAME>
(2S)-2-[[(2S)-2-[[(2S)-2-[[(2S)-2-(heptan-4-ylcarbamoylamino)-3-methyl-butanoyl]amino]-4-oxidanylidene-4-pyrrolidin-1-yl-butanoyl]amino]-4-oxidanyl-4-oxidanylidene-butanoyl]amino]-4-methyl-pentanoic acid
> <PUBCHEM_IUPAC_TRADITIONAL_NAME>
(2S)-2-[[(2S)-3-carboxy-2-[[(2S)-4-keto-2-[[(2S)-3-methyl-2-(1-propylbutylcarbamoylamino)butanoyl]amino]-4-pyrrolidino-butanoyl]amino]propanoyl]amino]-4-methyl-valeric acid
> <PUBCHEM_IUPAC_INCHI>
InChI=1S/C31H54N6O9/c1-7-11-20(12-8-2)32-31(46)36-26(19(5)6)29(43)34-21(16-24(38)37-13-9-10-14-37)27(41)33-22(17-25(39)40)28(42)35-23(30(44)45)15-18(3)4/h18-23,26H,7-17H2,1-6H3,(H,33,41)(H,34,43)(H,35,42)(H,39,40)(H,44,45)(H2,32,36,46)/t21-,22-,23-,26-/m0/s1
> <PUBCHEM_IUPAC_INCHIKEY>
VZCCGVWOKWCBRR-HZLPDVBGSA-N
> <PUBCHEM_XLOGP3_AA>
2.1
> <PUBCHEM_EXACT_MASS>
654.39522732
> <PUBCHEM_MOLECULAR_FORMULA>
C31H54N6O9
> <PUBCHEM_MOLECULAR_WEIGHT>
654.8
> <PUBCHEM_OPENEYE_CAN_SMILES>
CCCC(CCC)NC(=O)NC(C(C)C)C(=O)NC(CC(=O)N1CCCC1)C(=O)NC(CC(=O)O)C(=O)NC(CC(C)C)C(=O)O
> <PUBCHEM_OPENEYE_ISO_SMILES>
CCCC(CCC)NC(=O)N[C@@H](C(C)C)C(=O)N[C@@H](CC(=O)N1CCCC1)C(=O)N[C@@H](CC(=O)O)C(=O)N[C@@H](CC(C)C)C(=O)O
> <PUBCHEM_CACTVS_TPSA>
223
> <PUBCHEM_MONOISOTOPIC_WEIGHT>
654.39522732
> <PUBCHEM_TOTAL_CHARGE>
0
> <PUBCHEM_HEAVY_ATOM_COUNT>
46
> <PUBCHEM_ATOM_DEF_STEREO_COUNT>
4
> <PUBCHEM_ATOM_UDEF_STEREO_COUNT>
0
> <PUBCHEM_BOND_DEF_STEREO_COUNT>
0
> <PUBCHEM_BOND_UDEF_STEREO_COUNT>
0
> <PUBCHEM_ISOTOPIC_ATOM_COUNT>
0
> <PUBCHEM_COMPONENT_COUNT>
1
> <PUBCHEM_CACTVS_TAUTO_COUNT>
-1
> <PUBCHEM_COORDINATE_TYPE>
1
5
255
> <PUBCHEM_BONDANNOTATIONS>
22  11  5
23  12  6
30  14  5
34  15  5
$$$$
