515298
  -OEChem-10302200282D
144147  0     1  0  0  0  0  0999 V2000
   12.1680    2.4415    0.0000 O   0  0  0  0  0  0  0  0  0  0  0  0
   11.3549    3.9708    0.0000 O   0  0  0  0  0  0  0  0  0  0  0  0
    8.9282    4.7680    0.0000 O   0  0  0  0  0  0  0  0  0  0  0  0
    8.0622    4.2680    0.0000 O   0  0  0  0  0  0  0  0  0  0  0  0
    5.4641    1.7680    0.0000 O   0  0  0  0  0  0  0  0  0  0  0  0
    7.1962    4.7680    0.0000 O   0  0  0  0  0  0  0  0  0  0  0  0
    6.3301   -1.7320    0.0000 O   0  0  0  0  0  0  0  0  0  0  0  0
    2.8660   -2.7320    0.0000 O   0  0  0  0  0  0  0  0  0  0  0  0
    8.9282    2.7680    0.0000 N   0  0  0  0  0  0  0  0  0  0  0  0
   10.2942    5.1340    0.0000 N   0  0  0  0  0  0  0  0  0  0  0  0
    7.1962    1.7680    0.0000 N   0  0  0  0  0  0  0  0  0  0  0  0
    5.4641    4.7680    0.0000 N   0  0  0  0  0  0  0  0  0  0  0  0
    5.4641   -0.2321    0.0000 N   0  0  0  0  0  0  0  0  0  0  0  0
    4.5981   -2.7320    0.0000 N   0  0  0  0  0  0  0  0  0  0  0  0
   10.4370    2.5019    0.0000 C   0  0  0  0  0  0  0  0  0  0  0  0
   11.2851    1.9720    0.0000 C   0  0  0  0  0  0  0  0  0  0  0  0
    9.6710    1.8591    0.0000 C   0  0  0  0  0  0  0  0  0  0  0  0
    9.7942    3.2680    0.0000 C   0  0  1  0  0  0  0  0  0  0  0  0
   11.0431    1.0017    0.0000 C   0  0  0  0  0  0  0  0  0  0  0  0
   10.0456    0.9319    0.0000 C   0  0  0  0  0  0  0  0  0  0  0  0
   11.3200    2.9714    0.0000 C   0  0  0  0  0  0  0  0  0  0  0  0
    9.7942    4.2680    0.0000 C   0  0  0  0  0  0  0  0  0  0  0  0
    9.7942    6.0000    0.0000 C   0  0  1  0  0  0  0  0  0  0  0  0
   10.2942    6.8660    0.0000 C   0  0  0  0  0  0  0  0  0  0  0  0
    8.0622    3.2680    0.0000 C   0  0  0  0  0  0  0  0  0  0  0  0
    8.7942    6.0000    0.0000 C   0  0  0  0  0  0  0  0  0  0  0  0
    7.1962    2.7680    0.0000 C   0  0  2  0  0  0  0  0  0  0  0  0
   10.7942    7.7320    0.0000 C   0  0  0  0  0  0  0  0  0  0  0  0
    9.4282    7.3660    0.0000 C   0  0  0  0  0  0  0  0  0  0  0  0
   11.1603    6.3660    0.0000 C   0  0  0  0  0  0  0  0  0  0  0  0
    6.3301    3.2680    0.0000 C   0  0  0  0  0  0  0  0  0  0  0  0
    8.2942    6.8660    0.0000 C   0  0  0  0  0  0  0  0  0  0  0  0
    6.3301    0.2679    0.0000 C   0  0  1  0  0  0  0  0  0  0  0  0
    7.1962   -0.2321    0.0000 C   0  0  0  0  0  0  0  0  0  0  0  0
    6.3301    4.2680    0.0000 C   0  0  0  0  0  0  0  0  0  0  0  0
    6.3301    1.2680    0.0000 C   0  0  0  0  0  0  0  0  0  0  0  0
    5.3596    5.7625    0.0000 C   0  0  0  0  0  0  0  0  0  0  0  0
    4.5506    4.3612    0.0000 C   0  0  0  0  0  0  0  0  0  0  0  0
    4.3814    5.9704    0.0000 C   0  0  0  0  0  0  0  0  0  0  0  0
    3.8814    5.1044    0.0000 C   0  0  0  0  0  0  0  0  0  0  0  0
    8.0622   -0.7321    0.0000 C   0  0  0  0  0  0  0  0  0  0  0  0
    7.6962    0.6340    0.0000 C   0  0  0  0  0  0  0  0  0  0  0  0
    6.6962   -1.0981    0.0000 C   0  0  0  0  0  0  0  0  0  0  0  0
    4.5981   -1.7320    0.0000 C   0  0  2  0  0  0  0  0  0  0  0  0
    5.4641   -1.2320    0.0000 C   0  0  0  0  0  0  0  0  0  0  0  0
    3.7320   -1.2320    0.0000 C   0  0  0  0  0  0  0  0  0  0  0  0
    3.7320   -4.2320    0.0000 C   0  0  3  0  0  0  0  0  0  0  0  0
    3.7320   -3.2320    0.0000 C   0  0  0  0  0  0  0  0  0  0  0  0
    3.7320   -0.2321    0.0000 C   0  0  0  0  0  0  0  0  0  0  0  0
    2.8660   -1.7320    0.0000 C   0  0  0  0  0  0  0  0  0  0  0  0
    4.5981   -4.7320    0.0000 C   0  0  0  0  0  0  0  0  0  0  0  0
    5.4641   -3.2320    0.0000 C   0  0  0  0  0  0  0  0  0  0  0  0
    2.8660   -4.7320    0.0000 C   0  0  0  0  0  0  0  0  0  0  0  0
    5.4641   -4.2320    0.0000 C   0  0  0  0  0  0  0  0  0  0  0  0
    2.8660   -5.7320    0.0000 C   0  0  0  0  0  0  0  0  0  0  0  0
    6.3301   -4.7320    0.0000 C   0  0  0  0  0  0  0  0  0  0  0  0
    3.7320   -6.2320    0.0000 C   0  0  0  0  0  0  0  0  0  0  0  0
    2.0000   -6.2320    0.0000 C   0  0  0  0  0  0  0  0  0  0  0  0
    7.1962   -4.2320    0.0000 C   0  0  0  0  0  0  0  0  0  0  0  0
    6.3301   -5.7320    0.0000 C   0  0  0  0  0  0  0  0  0  0  0  0
    3.7320   -7.2320    0.0000 C   0  0  0  0  0  0  0  0  0  0  0  0
    2.0000   -7.2320    0.0000 C   0  0  0  0  0  0  0  0  0  0  0  0
    2.8660   -7.7320    0.0000 C   0  0  0  0  0  0  0  0  0  0  0  0
    8.0622   -4.7320    0.0000 C   0  0  0  0  0  0  0  0  0  0  0  0
    7.1962   -6.2320    0.0000 C   0  0  0  0  0  0  0  0  0  0  0  0
    8.0622   -5.7320    0.0000 C   0  0  0  0  0  0  0  0  0  0  0  0
   11.8677    1.7599    0.0000 H   0  0  0  0  0  0  0  0  0  0  0  0
   11.5569    2.5292    0.0000 H   0  0  0  0  0  0  0  0  0  0  0  0
    9.3243    2.3731    0.0000 H   0  0  0  0  0  0  0  0  0  0  0  0
    9.1235    1.5680    0.0000 H   0  0  0  0  0  0  0  0  0  0  0  0
    9.2573    3.5780    0.0000 H   0  0  0  0  0  0  0  0  0  0  0  0
   11.0215    0.3821    0.0000 H   0  0  0  0  0  0  0  0  0  0  0  0
   11.6571    0.9154    0.0000 H   0  0  0  0  0  0  0  0  0  0  0  0
    9.4496    0.7610    0.0000 H   0  0  0  0  0  0  0  0  0  0  0  0
   10.1532    0.3214    0.0000 H   0  0  0  0  0  0  0  0  0  0  0  0
    8.9282    2.1479    0.0000 H   0  0  0  0  0  0  0  0  0  0  0  0
   10.4142    6.0000    0.0000 H   0  0  0  0  0  0  0  0  0  0  0  0
   10.9142    5.1340    0.0000 H   0  0  0  0  0  0  0  0  0  0  0  0
    8.2116    5.7880    0.0000 H   0  0  0  0  0  0  0  0  0  0  0  0
    8.9019    5.3894    0.0000 H   0  0  0  0  0  0  0  0  0  0  0  0
    6.6592    2.4580    0.0000 H   0  0  0  0  0  0  0  0  0  0  0  0
   12.1464    1.8218    0.0000 H   0  0  0  0  0  0  0  0  0  0  0  0
   11.3312    7.4220    0.0000 H   0  0  0  0  0  0  0  0  0  0  0  0
   11.1042    8.2690    0.0000 H   0  0  0  0  0  0  0  0  0  0  0  0
   10.2573    8.0420    0.0000 H   0  0  0  0  0  0  0  0  0  0  0  0
    9.7382    7.9030    0.0000 H   0  0  0  0  0  0  0  0  0  0  0  0
    8.8913    7.6760    0.0000 H   0  0  0  0  0  0  0  0  0  0  0  0
    9.1182    6.8291    0.0000 H   0  0  0  0  0  0  0  0  0  0  0  0
   10.8503    5.8291    0.0000 H   0  0  0  0  0  0  0  0  0  0  0  0
   11.6972    6.0560    0.0000 H   0  0  0  0  0  0  0  0  0  0  0  0
   11.4703    6.9030    0.0000 H   0  0  0  0  0  0  0  0  0  0  0  0
    5.7196    3.3756    0.0000 H   0  0  0  0  0  0  0  0  0  0  0  0
    6.1181    2.6853    0.0000 H   0  0  0  0  0  0  0  0  0  0  0  0
    7.7331    1.4580    0.0000 H   0  0  0  0  0  0  0  0  0  0  0  0
    8.8312    7.1760    0.0000 H   0  0  0  0  0  0  0  0  0  0  0  0
    7.9842    7.4030    0.0000 H   0  0  0  0  0  0  0  0  0  0  0  0
    7.7573    6.5560    0.0000 H   0  0  0  0  0  0  0  0  0  0  0  0
    5.7932    0.5779    0.0000 H   0  0  0  0  0  0  0  0  0  0  0  0
    5.9796    5.7625    0.0000 H   0  0  0  0  0  0  0  0  0  0  0  0
    5.4244    6.3791    0.0000 H   0  0  0  0  0  0  0  0  0  0  0  0
    4.0490    3.9968    0.0000 H   0  0  0  0  0  0  0  0  0  0  0  0
    4.8606    3.8243    0.0000 H   0  0  0  0  0  0  0  0  0  0  0  0
    4.5730    6.5600    0.0000 H   0  0  0  0  0  0  0  0  0  0  0  0
    3.8150    6.2226    0.0000 H   0  0  0  0  0  0  0  0  0  0  0  0
    3.3798    5.4688    0.0000 H   0  0  0  0  0  0  0  0  0  0  0  0
    3.4666    4.6436    0.0000 H   0  0  0  0  0  0  0  0  0  0  0  0
    4.9272    0.0779    0.0000 H   0  0  0  0  0  0  0  0  0  0  0  0
    7.7522   -1.2690    0.0000 H   0  0  0  0  0  0  0  0  0  0  0  0
    8.5991   -1.0420    0.0000 H   0  0  0  0  0  0  0  0  0  0  0  0
    8.3722   -0.1951    0.0000 H   0  0  0  0  0  0  0  0  0  0  0  0
    8.2331    0.3240    0.0000 H   0  0  0  0  0  0  0  0  0  0  0  0
    8.0062    1.1709    0.0000 H   0  0  0  0  0  0  0  0  0  0  0  0
    7.1592    0.9440    0.0000 H   0  0  0  0  0  0  0  0  0  0  0  0
    6.1592   -0.7881    0.0000 H   0  0  0  0  0  0  0  0  0  0  0  0
    6.3862   -1.6350    0.0000 H   0  0  0  0  0  0  0  0  0  0  0  0
    7.2331   -1.4081    0.0000 H   0  0  0  0  0  0  0  0  0  0  0  0
    5.1350   -2.0420    0.0000 H   0  0  0  0  0  0  0  0  0  0  0  0
    3.7320   -1.8520    0.0000 H   0  0  0  0  0  0  0  0  0  0  0  0
    3.7320   -4.8520    0.0000 H   0  0  0  0  0  0  0  0  0  0  0  0
    4.3520   -0.2321    0.0000 H   0  0  0  0  0  0  0  0  0  0  0  0
    3.7320    0.3879    0.0000 H   0  0  0  0  0  0  0  0  0  0  0  0
    3.1120   -0.2321    0.0000 H   0  0  0  0  0  0  0  0  0  0  0  0
    2.5560   -1.1951    0.0000 H   0  0  0  0  0  0  0  0  0  0  0  0
    2.3291   -2.0420    0.0000 H   0  0  0  0  0  0  0  0  0  0  0  0
    3.1760   -2.2690    0.0000 H   0  0  0  0  0  0  0  0  0  0  0  0
    4.1996   -5.2070    0.0000 H   0  0  0  0  0  0  0  0  0  0  0  0
    4.9966   -5.2070    0.0000 H   0  0  0  0  0  0  0  0  0  0  0  0
    5.1541   -3.7690    0.0000 H   0  0  0  0  0  0  0  0  0  0  0  0
    6.0010   -3.5420    0.0000 H   0  0  0  0  0  0  0  0  0  0  0  0
    5.7741   -2.6951    0.0000 H   0  0  0  0  0  0  0  0  0  0  0  0
    2.6540   -4.1494    0.0000 H   0  0  0  0  0  0  0  0  0  0  0  0
    2.2554   -4.8397    0.0000 H   0  0  0  0  0  0  0  0  0  0  0  0
    5.8626   -3.7571    0.0000 H   0  0  0  0  0  0  0  0  0  0  0  0
    5.0656   -3.7571    0.0000 H   0  0  0  0  0  0  0  0  0  0  0  0
    4.2690   -5.9220    0.0000 H   0  0  0  0  0  0  0  0  0  0  0  0
    1.4631   -5.9220    0.0000 H   0  0  0  0  0  0  0  0  0  0  0  0
    7.1962   -3.6120    0.0000 H   0  0  0  0  0  0  0  0  0  0  0  0
    5.7932   -6.0420    0.0000 H   0  0  0  0  0  0  0  0  0  0  0  0
    4.2690   -7.5420    0.0000 H   0  0  0  0  0  0  0  0  0  0  0  0
    1.4631   -7.5420    0.0000 H   0  0  0  0  0  0  0  0  0  0  0  0
    2.8660   -8.3520    0.0000 H   0  0  0  0  0  0  0  0  0  0  0  0
    8.5991   -4.4220    0.0000 H   0  0  0  0  0  0  0  0  0  0  0  0
    7.1962   -6.8520    0.0000 H   0  0  0  0  0  0  0  0  0  0  0  0
    8.5991   -6.0420    0.0000 H   0  0  0  0  0  0  0  0  0  0  0  0
  1 21  1  0  0  0  0
  1 82  1  0  0  0  0
  2 21  2  0  0  0  0
  3 22  2  0  0  0  0
  4 25  2  0  0  0  0
  5 36  2  0  0  0  0
  6 35  2  0  0  0  0
  7 45  2  0  0  0  0
  8 48  2  0  0  0  0
 18  9  1  6  0  0  0
  9 25  1  0  0  0  0
  9 76  1  0  0  0  0
 10 22  1  0  0  0  0
 23 10  1  6  0  0  0
 10 78  1  0  0  0  0
 27 11  1  1  0  0  0
 11 36  1  0  0  0  0
 11 94  1  0  0  0  0
 12 35  1  0  0  0  0
 12 37  1  0  0  0  0
 12 38  1  0  0  0  0
 33 13  1  6  0  0  0
 13 45  1  0  0  0  0
 13107  1  0  0  0  0
 44 14  1  1  0  0  0
 14 48  1  0  0  0  0
 14 52  1  0  0  0  0
 15 16  1  0  0  0  0
 15 17  1  0  0  0  0
 15 18  1  0  0  0  0
 15 21  1  0  0  0  0
 16 19  1  0  0  0  0
 16 67  1  0  0  0  0
 16 68  1  0  0  0  0
 17 20  1  0  0  0  0
 17 69  1  0  0  0  0
 17 70  1  0  0  0  0
 18 22  1  0  0  0  0
 18 71  1  0  0  0  0
 19 20  1  0  0  0  0
 19 72  1  0  0  0  0
 19 73  1  0  0  0  0
 20 74  1  0  0  0  0
 20 75  1  0  0  0  0
 23 24  1  0  0  0  0
 23 26  1  0  0  0  0
 23 77  1  0  0  0  0
 24 28  1  0  0  0  0
 24 29  1  0  0  0  0
 24 30  1  0  0  0  0
 25 27  1  0  0  0  0
 26 32  1  0  0  0  0
 26 79  1  0  0  0  0
 26 80  1  0  0  0  0
 27 31  1  0  0  0  0
 27 81  1  0  0  0  0
 28 83  1  0  0  0  0
 28 84  1  0  0  0  0
 28 85  1  0  0  0  0
 29 86  1  0  0  0  0
 29 87  1  0  0  0  0
 29 88  1  0  0  0  0
 30 89  1  0  0  0  0
 30 90  1  0  0  0  0
 30 91  1  0  0  0  0
 31 35  1  0  0  0  0
 31 92  1  0  0  0  0
 31 93  1  0  0  0  0
 32 95  1  0  0  0  0
 32 96  1  0  0  0  0
 32 97  1  0  0  0  0
 33 34  1  0  0  0  0
 33 36  1  0  0  0  0
 33 98  1  0  0  0  0
 34 41  1  0  0  0  0
 34 42  1  0  0  0  0
 34 43  1  0  0  0  0
 37 39  1  0  0  0  0
 37 99  1  0  0  0  0
 37100  1  0  0  0  0
 38 40  1  0  0  0  0
 38101  1  0  0  0  0
 38102  1  0  0  0  0
 39 40  1  0  0  0  0
 39103  1  0  0  0  0
 39104  1  0  0  0  0
 40105  1  0  0  0  0
 40106  1  0  0  0  0
 41108  1  0  0  0  0
 41109  1  0  0  0  0
 41110  1  0  0  0  0
 42111  1  0  0  0  0
 42112  1  0  0  0  0
 42113  1  0  0  0  0
 43114  1  0  0  0  0
 43115  1  0  0  0  0
 43116  1  0  0  0  0
 44 45  1  0  0  0  0
 44 46  1  0  0  0  0
 44117  1  0  0  0  0
 46 49  1  0  0  0  0
 46 50  1  0  0  0  0
 46118  1  0  0  0  0
 47 48  1  0  0  0  0
 47 51  1  0  0  0  0
 47 53  1  0  0  0  0
 47119  1  0  0  0  0
 49120  1  0  0  0  0
 49121  1  0  0  0  0
 49122  1  0  0  0  0
 50123  1  0  0  0  0
 50124  1  0  0  0  0
 50125  1  0  0  0  0
 51 54  1  0  0  0  0
 51126  1  0  0  0  0
 51127  1  0  0  0  0
 52128  1  0  0  0  0
 52129  1  0  0  0  0
 52130  1  0  0  0  0
 53 55  1  0  0  0  0
 53131  1  0  0  0  0
 53132  1  0  0  0  0
 54 56  1  0  0  0  0
 54133  1  0  0  0  0
 54134  1  0  0  0  0
 55 57  2  0  0  0  0
 55 58  1  0  0  0  0
 56 59  2  0  0  0  0
 56 60  1  0  0  0  0
 57 61  1  0  0  0  0
 57135  1  0  0  0  0
 58 62  2  0  0  0  0
 58136  1  0  0  0  0
 59 64  1  0  0  0  0
 59137  1  0  0  0  0
 60 65  2  0  0  0  0
 60138  1  0  0  0  0
 61 63  2  0  0  0  0
 61139  1  0  0  0  0
 62 63  1  0  0  0  0
 62140  1  0  0  0  0
 63141  1  0  0  0  0
 64 66  2  0  0  0  0
 64142  1  0  0  0  0
 65 66  1  0  0  0  0
 65143  1  0  0  0  0
 66144  1  0  0  0  0
M  END
> <PUBCHEM_COMPOUND_CID>
515298
> <PUBCHEM_COMPOUND_CANONICALIZED>
1
> <PUBCHEM_CACTVS_COMPLEXITY>
1650
> <PUBCHEM_CACTVS_HBOND_ACCEPTOR>
8
> <PUBCHEM_CACTVS_HBOND_DONOR>
5
> <PUBCHEM_CACTVS_ROTATABLE_BOND>
23
> <PUBCHEM_CACTVS_SUBSKEYS>
AAADcfB/vAAAAAAAAAAAAAAAAAAAAeIAAAAwYAAAAAAAAAABQAAAHgAQCAAADyjBmAQyCIPAAgCIAiHSGAACAAAgAAAIiIGIAIgIYDqA0TCUYAAmlgCIiAe/yMCPAAAAAAAAAAAAAAAAAAAAAAAAAAAAAA==
> <PUBCHEM_IUPAC_OPENEYE_NAME>
1-[(1S)-1-[[(2S)-2-[[(2S)-2-[[(2S)-2-[(2-benzyl-4-phenyl-butanoyl)-methyl-amino]-3-methyl-butanoyl]amino]-3,3-dimethyl-butanoyl]amino]-4-oxo-4-pyrrolidin-1-yl-butanoyl]amino]-2-[[(1R)-1-ethyl-2,2-dimethyl-propyl]amino]-2-oxo-ethyl]cyclopentanecarboxylic acid
> <PUBCHEM_IUPAC_CAS_NAME>
1-[(1S)-1-[[(2S)-2-[[(2S)-3,3-dimethyl-2-[[(2S)-3-methyl-2-[methyl-[1-oxo-4-phenyl-2-(phenylmethyl)butyl]amino]-1-oxobutyl]amino]-1-oxobutyl]amino]-1,4-dioxo-4-(1-pyrrolidinyl)butyl]amino]-2-[[(3R)-2,2-dimethylpentan-3-yl]amino]-2-oxoethyl]-1-cyclopentanecarboxylic acid
> <PUBCHEM_IUPAC_NAME_MARKUP>
1-[(1<I>S</I>)-1-[[(2<I>S</I>)-2-[[(2<I>S</I>)-2-[[(2<I>S</I>)-2-[(2-benzyl-4-phenylbutanoyl)-methylamino]-3-methylbutanoyl]amino]-3,3-dimethylbutanoyl]amino]-4-oxo-4-pyrrolidin-1-ylbutanoyl]amino]-2-[[(3<I>R</I>)-2,2-dimethylpentan-3-yl]amino]-2-oxoethyl]cyclopentane-1-carboxylic acid
> <PUBCHEM_IUPAC_NAME>
1-[(1S)-1-[[(2S)-2-[[(2S)-2-[[(2S)-2-[(2-benzyl-4-phenylbutanoyl)-methylamino]-3-methylbutanoyl]amino]-3,3-dimethylbutanoyl]amino]-4-oxo-4-pyrrolidin-1-ylbutanoyl]amino]-2-[[(3R)-2,2-dimethylpentan-3-yl]amino]-2-oxoethyl]cyclopentane-1-carboxylic acid
> <PUBCHEM_IUPAC_SYSTEMATIC_NAME>
1-[(1S)-1-[[(2S)-2-[[(2S)-3,3-dimethyl-2-[[(2S)-3-methyl-2-[methyl-[4-phenyl-2-(phenylmethyl)butanoyl]amino]butanoyl]amino]butanoyl]amino]-4-oxidanylidene-4-pyrrolidin-1-yl-butanoyl]amino]-2-[[(3R)-2,2-dimethylpentan-3-yl]amino]-2-oxidanylidene-ethyl]cyclopentane-1-carboxylic acid
> <PUBCHEM_IUPAC_TRADITIONAL_NAME>
1-[(1S)-1-[[(2S)-2-[[(2S)-2-[[(2S)-2-[(2-benzyl-4-phenyl-butanoyl)-methyl-amino]-3-methyl-butanoyl]amino]-3,3-dimethyl-butanoyl]amino]-4-keto-4-pyrrolidino-butanoyl]amino]-2-[[(1R)-1-ethyl-2,2-dimethyl-propyl]amino]-2-keto-ethyl]cyclopentanecarboxylic acid
> <PUBCHEM_IUPAC_INCHI>
InChI=1S/C52H78N6O8/c1-11-39(50(4,5)6)54-47(63)43(52(49(65)66)28-18-19-29-52)56-44(60)38(33-40(59)58-30-20-21-31-58)53-46(62)42(51(7,8)9)55-45(61)41(34(2)3)57(10)48(64)37(32-36-24-16-13-17-25-36)27-26-35-22-14-12-15-23-35/h12-17,22-25,34,37-39,41-43H,11,18-21,26-33H2,1-10H3,(H,53,62)(H,54,63)(H,55,61)(H,56,60)(H,65,66)/t37?,38-,39+,41-,42+,43+/m0/s1
> <PUBCHEM_IUPAC_INCHIKEY>
NTGPKEWMSLDZLR-KYSOHTNDSA-N
> <PUBCHEM_XLOGP3_AA>
8.1
> <PUBCHEM_EXACT_MASS>
914.58811347
> <PUBCHEM_MOLECULAR_FORMULA>
C52H78N6O8
> <PUBCHEM_MOLECULAR_WEIGHT>
915.2
> <PUBCHEM_OPENEYE_CAN_SMILES>
CCC(C(C)(C)C)NC(=O)C(C1(CCCC1)C(=O)O)NC(=O)C(CC(=O)N2CCCC2)NC(=O)C(C(C)(C)C)NC(=O)C(C(C)C)N(C)C(=O)C(CCC3=CC=CC=C3)CC4=CC=CC=C4
> <PUBCHEM_OPENEYE_ISO_SMILES>
CC[C@H](C(C)(C)C)NC(=O)[C@H](C1(CCCC1)C(=O)O)NC(=O)[C@H](CC(=O)N2CCCC2)NC(=O)[C@H](C(C)(C)C)NC(=O)[C@H](C(C)C)N(C)C(=O)C(CCC3=CC=CC=C3)CC4=CC=CC=C4
> <PUBCHEM_CACTVS_TPSA>
194
> <PUBCHEM_MONOISOTOPIC_WEIGHT>
914.58811347
> <PUBCHEM_TOTAL_CHARGE>
0
> <PUBCHEM_HEAVY_ATOM_COUNT>
66
> <PUBCHEM_ATOM_DEF_STEREO_COUNT>
5
> <PUBCHEM_ATOM_UDEF_STEREO_COUNT>
1
> <PUBCHEM_BOND_DEF_STEREO_COUNT>
0
> <PUBCHEM_BOND_UDEF_STEREO_COUNT>
0
> <PUBCHEM_ISOTOPIC_ATOM_COUNT>
0
> <PUBCHEM_COMPONENT_COUNT>
1
> <PUBCHEM_CACTVS_TAUTO_COUNT>
-1
> <PUBCHEM_COORDINATE_TYPE>
1
5
255
> <PUBCHEM_BONDANNOTATIONS>
23  10  6
27  11  5
33  13  6
44  14  5
47  51  3
55  57  8
55  58  8
56  59  8
56  60  8
57  61  8
58  62  8
59  64  8
60  65  8
61  63  8
62  63  8
64  66  8
65  66  8
18  9  6
$$$$
