515209
  -OEChem-10302200282D
 35 37  0     1  0  0  0  0  0999 V2000
    2.4612    0.4296    0.0000 Br  0  0  0  0  0  0  0  0  0  0  0  0
    2.0933    3.9304    0.0000 Br  0  0  0  0  0  0  0  0  0  0  0  0
    3.4782    2.8090    0.0000 S   0  0  0  0  0  0  0  0  0  0  0  0
    6.1237   -1.7733    0.0000 O   0  0  0  0  0  0  0  0  0  0  0  0
    4.2269   -3.5334    0.0000 O   0  0  0  0  0  0  0  0  0  0  0  0
    7.3970   -3.4289    0.0000 O   0  0  0  0  0  0  0  0  0  0  0  0
    7.0468   -0.1855    0.0000 O   0  0  0  0  0  0  0  0  0  0  0  0
    5.3147    2.8145    0.0000 O   0  0  0  0  0  0  0  0  0  0  0  0
    5.3147   -0.1855    0.0000 N   0  0  0  0  0  0  0  0  0  0  0  0
    6.1808    1.3145    0.0000 N   0  0  0  0  0  0  0  0  0  0  0  0
    5.3147   -1.1855    0.0000 C   0  0  1  0  0  0  0  0  0  0  0  0
    4.8147   -2.7244    0.0000 C   0  0  1  0  0  0  0  0  0  0  0  0
    4.5057   -1.7733    0.0000 C   0  0  0  0  0  0  0  0  0  0  0  0
    5.8147   -2.7244    0.0000 C   0  0  1  0  0  0  0  0  0  0  0  0
    6.4025   -3.5334    0.0000 C   0  0  0  0  0  0  0  0  0  0  0  0
    4.4487    0.3145    0.0000 C   0  0  0  0  0  0  0  0  0  0  0  0
    6.1808    0.3145    0.0000 C   0  0  0  0  0  0  0  0  0  0  0  0
    4.4487    1.3145    0.0000 C   0  0  0  0  0  0  0  0  0  0  0  0
    5.3147    1.8145    0.0000 C   0  0  0  0  0  0  0  0  0  0  0  0
    3.5827    1.8145    0.0000 C   0  0  0  0  0  0  0  0  0  0  0  0
    2.6691    1.4077    0.0000 C   0  0  0  0  0  0  0  0  0  0  0  0
    2.0000    2.1509    0.0000 C   0  0  0  0  0  0  0  0  0  0  0  0
    2.5000    3.0169    0.0000 C   0  0  0  0  0  0  0  0  0  0  0  0
    5.8672   -0.9041    0.0000 H   0  0  0  0  0  0  0  0  0  0  0  0
    5.0962   -3.2768    0.0000 H   0  0  0  0  0  0  0  0  0  0  0  0
    4.1957   -1.2364    0.0000 H   0  0  0  0  0  0  0  0  0  0  0  0
    3.9393   -2.0255    0.0000 H   0  0  0  0  0  0  0  0  0  0  0  0
    6.4271   -2.6274    0.0000 H   0  0  0  0  0  0  0  0  0  0  0  0
    5.8453   -3.8052    0.0000 H   0  0  0  0  0  0  0  0  0  0  0  0
    6.5734   -4.1294    0.0000 H   0  0  0  0  0  0  0  0  0  0  0  0
    3.9118    0.0045    0.0000 H   0  0  0  0  0  0  0  0  0  0  0  0
    3.6103   -3.4686    0.0000 H   0  0  0  0  0  0  0  0  0  0  0  0
    6.7177    1.6245    0.0000 H   0  0  0  0  0  0  0  0  0  0  0  0
    7.7615   -3.9304    0.0000 H   0  0  0  0  0  0  0  0  0  0  0  0
    1.3834    2.0861    0.0000 H   0  0  0  0  0  0  0  0  0  0  0  0
  1 21  1  0  0  0  0
  2 23  1  0  0  0  0
  3 20  1  0  0  0  0
  3 23  1  0  0  0  0
  4 11  1  0  0  0  0
  4 14  1  0  0  0  0
 12  5  1  1  0  0  0
  5 32  1  0  0  0  0
  6 15  1  0  0  0  0
  6 34  1  0  0  0  0
  7 17  2  0  0  0  0
  8 19  2  0  0  0  0
 11  9  1  6  0  0  0
  9 16  1  0  0  0  0
  9 17  1  0  0  0  0
 10 17  1  0  0  0  0
 10 19  1  0  0  0  0
 10 33  1  0  0  0  0
 11 13  1  0  0  0  0
 11 24  1  0  0  0  0
 12 13  1  0  0  0  0
 12 14  1  0  0  0  0
 12 25  1  0  0  0  0
 13 26  1  0  0  0  0
 13 27  1  0  0  0  0
 14 15  1  6  0  0  0
 14 28  1  0  0  0  0
 15 29  1  0  0  0  0
 15 30  1  0  0  0  0
 16 18  2  0  0  0  0
 16 31  1  0  0  0  0
 18 19  1  0  0  0  0
 18 20  1  0  0  0  0
 20 21  2  0  0  0  0
 21 22  1  0  0  0  0
 22 23  2  0  0  0  0
 22 35  1  0  0  0  0
M  END
> <PUBCHEM_COMPOUND_CID>
515209
> <PUBCHEM_COMPOUND_CANONICALIZED>
1
> <PUBCHEM_CACTVS_COMPLEXITY>
549
> <PUBCHEM_CACTVS_HBOND_ACCEPTOR>
6
> <PUBCHEM_CACTVS_HBOND_DONOR>
3
> <PUBCHEM_CACTVS_ROTATABLE_BOND>
3
> <PUBCHEM_CACTVS_SUBSKEYS>
AAADccBzOABAGAAAAAAAAAAAAAAAASJAAAAgAAAAAAAAAAABgAAAHgRQCAABrBTh0AYxAYPABgiMAiFWUACDAIAgCBRAiBkIAOiJMDKglBGOQAAvhyIrite4OAIAAAAAAAAAAAAAAAAAAAAAAAAAAAAAAA==
> <PUBCHEM_IUPAC_OPENEYE_NAME>
5-(3,5-dibromo-2-thienyl)-1-[(2R,4S,5R)-4-hydroxy-5-(hydroxymethyl)tetrahydrofuran-2-yl]pyrimidine-2,4-dione
> <PUBCHEM_IUPAC_CAS_NAME>
5-(3,5-dibromo-2-thiophenyl)-1-[(2R,4S,5R)-4-hydroxy-5-(hydroxymethyl)-2-oxolanyl]pyrimidine-2,4-dione
> <PUBCHEM_IUPAC_NAME_MARKUP>
5-(3,5-dibromothiophen-2-yl)-1-[(2<I>R</I>,4<I>S</I>,5<I>R</I>)-4-hydroxy-5-(hydroxymethyl)oxolan-2-yl]pyrimidine-2,4-dione
> <PUBCHEM_IUPAC_NAME>
5-(3,5-dibromothiophen-2-yl)-1-[(2R,4S,5R)-4-hydroxy-5-(hydroxymethyl)oxolan-2-yl]pyrimidine-2,4-dione
> <PUBCHEM_IUPAC_SYSTEMATIC_NAME>
5-[3,5-bis(bromanyl)thiophen-2-yl]-1-[(2R,4S,5R)-5-(hydroxymethyl)-4-oxidanyl-oxolan-2-yl]pyrimidine-2,4-dione
> <PUBCHEM_IUPAC_TRADITIONAL_NAME>
5-(3,5-dibromo-2-thienyl)-1-[(2R,4S,5R)-4-hydroxy-5-methylol-tetrahydrofuran-2-yl]pyrimidine-2,4-quinone
> <PUBCHEM_IUPAC_INCHI>
InChI=1S/C13H12Br2N2O5S/c14-6-1-9(15)23-11(6)5-3-17(13(21)16-12(5)20)10-2-7(19)8(4-18)22-10/h1,3,7-8,10,18-19H,2,4H2,(H,16,20,21)/t7-,8+,10+/m0/s1
> <PUBCHEM_IUPAC_INCHIKEY>
YFJVHSAGAFZFQS-QXFUBDJGSA-N
> <PUBCHEM_XLOGP3>
1.5
> <PUBCHEM_EXACT_MASS>
467.88132
> <PUBCHEM_MOLECULAR_FORMULA>
C13H12Br2N2O5S
> <PUBCHEM_MOLECULAR_WEIGHT>
468.12
> <PUBCHEM_OPENEYE_CAN_SMILES>
C1C(C(OC1N2C=C(C(=O)NC2=O)C3=C(C=C(S3)Br)Br)CO)O
> <PUBCHEM_OPENEYE_ISO_SMILES>
C1[C@@H]([C@H](O[C@H]1N2C=C(C(=O)NC2=O)C3=C(C=C(S3)Br)Br)CO)O
> <PUBCHEM_CACTVS_TPSA>
127
> <PUBCHEM_MONOISOTOPIC_WEIGHT>
465.88337
> <PUBCHEM_TOTAL_CHARGE>
0
> <PUBCHEM_HEAVY_ATOM_COUNT>
23
> <PUBCHEM_ATOM_DEF_STEREO_COUNT>
3
> <PUBCHEM_ATOM_UDEF_STEREO_COUNT>
0
> <PUBCHEM_BOND_DEF_STEREO_COUNT>
0
> <PUBCHEM_BOND_UDEF_STEREO_COUNT>
0
> <PUBCHEM_ISOTOPIC_ATOM_COUNT>
0
> <PUBCHEM_COMPONENT_COUNT>
1
> <PUBCHEM_CACTVS_TAUTO_COUNT>
-1
> <PUBCHEM_COORDINATE_TYPE>
1
5
255
> <PUBCHEM_BONDANNOTATIONS>
10  17  8
10  19  8
14  15  6
16  18  8
18  19  8
20  21  8
21  22  8
22  23  8
3  20  8
3  23  8
12  5  5
11  9  6
9  16  8
9  17  8
$$$$
