515295
  -OEChem-10302200282D
119120  0     1  0  0  0  0  0999 V2000
   10.5186    4.2114    0.0000 O   0  0  0  0  0  0  0  0  0  0  0  0
   11.1674    2.6055    0.0000 O   0  0  0  0  0  0  0  0  0  0  0  0
   10.6603    0.4069    0.0000 O   0  0  0  0  0  0  0  0  0  0  0  0
    9.7942   -0.0931    0.0000 O   0  0  0  0  0  0  0  0  0  0  0  0
    5.4641   -1.5931    0.0000 O   0  0  0  0  0  0  0  0  0  0  0  0
    6.3301   -1.0931    0.0000 O   0  0  0  0  0  0  0  0  0  0  0  0
   12.5886   -0.8913    0.0000 O   0  0  0  0  0  0  0  0  0  0  0  0
    9.7942   -1.0931    0.0000 O   0  0  0  0  0  0  0  0  0  0  0  0
    8.9282    1.4069    0.0000 N   0  0  0  0  0  0  0  0  0  0  0  0
    3.7320   -1.5931    0.0000 N   0  0  0  0  0  0  0  0  0  0  0  0
   11.6451    1.5805    0.0000 N   0  0  0  0  0  0  0  0  0  0  0  0
    4.5981   -0.0931    0.0000 N   0  0  0  0  0  0  0  0  0  0  0  0
    9.4522    2.8466    0.0000 C   0  0  0  0  0  0  0  0  0  0  0  0
    8.5125    2.5045    0.0000 C   0  0  0  0  0  0  0  0  0  0  0  0
    9.4173    3.8459    0.0000 C   0  0  0  0  0  0  0  0  0  0  0  0
    9.7942    1.9069    0.0000 C   0  0  1  0  0  0  0  0  0  0  0  0
    7.8968    3.2925    0.0000 C   0  0  0  0  0  0  0  0  0  0  0  0
    8.4560    4.1216    0.0000 C   0  0  0  0  0  0  0  0  0  0  0  0
    3.7320   -2.5931    0.0000 C   0  0  0  0  0  0  0  0  0  0  0  0
    2.8660   -3.0931    0.0000 C   0  0  2  0  0  0  0  0  0  0  0  0
    4.5981   -3.0931    0.0000 C   0  0  1  0  0  0  0  0  0  0  0  0
    2.8660   -4.0931    0.0000 C   0  0  0  0  0  0  0  0  0  0  0  0
    4.5981   -4.0931    0.0000 C   0  0  0  0  0  0  0  0  0  0  0  0
   10.3794    3.2212    0.0000 C   0  0  0  0  0  0  0  0  0  0  0  0
    3.7320   -4.5931    0.0000 C   0  0  0  0  0  0  0  0  0  0  0  0
   10.6603    1.4069    0.0000 C   0  0  0  0  0  0  0  0  0  0  0  0
    2.0000   -2.5931    0.0000 C   0  0  0  0  0  0  0  0  0  0  0  0
    5.4641   -2.5931    0.0000 C   0  0  0  0  0  0  0  0  0  0  0  0
    8.0622   -0.0931    0.0000 C   0  0  2  0  0  0  0  0  0  0  0  0
    8.9282    0.4069    0.0000 C   0  0  0  0  0  0  0  0  0  0  0  0
   12.2878    0.8145    0.0000 C   0  0  1  0  0  0  0  0  0  0  0  0
    5.4641    0.4069    0.0000 C   0  0  1  0  0  0  0  0  0  0  0  0
    7.1962    0.4069    0.0000 C   0  0  0  0  0  0  0  0  0  0  0  0
    5.4641    1.4069    0.0000 C   0  0  0  0  0  0  0  0  0  0  0  0
   13.2727    0.9881    0.0000 C   0  0  0  0  0  0  0  0  0  0  0  0
    4.5981   -1.0931    0.0000 C   0  0  0  0  0  0  0  0  0  0  0  0
    8.0622   -1.0931    0.0000 C   0  0  0  0  0  0  0  0  0  0  0  0
   13.9154    0.2221    0.0000 C   0  0  0  0  0  0  0  0  0  0  0  0
    6.3301   -0.0931    0.0000 C   0  0  0  0  0  0  0  0  0  0  0  0
   11.9458   -0.1252    0.0000 C   0  0  0  0  0  0  0  0  0  0  0  0
    5.4641    2.4069    0.0000 C   0  0  0  0  0  0  0  0  0  0  0  0
    6.4641    1.4069    0.0000 C   0  0  0  0  0  0  0  0  0  0  0  0
    4.4641    1.4069    0.0000 C   0  0  0  0  0  0  0  0  0  0  0  0
    8.9282   -1.5931    0.0000 C   0  0  0  0  0  0  0  0  0  0  0  0
    8.9282   -2.5931    0.0000 C   0  0  0  0  0  0  0  0  0  0  0  0
   14.5582   -0.5440    0.0000 C   0  0  0  0  0  0  0  0  0  0  0  0
   14.6815    0.8649    0.0000 C   0  0  0  0  0  0  0  0  0  0  0  0
   13.1494   -0.4207    0.0000 C   0  0  0  0  0  0  0  0  0  0  0  0
    8.9282   -3.5931    0.0000 C   0  0  0  0  0  0  0  0  0  0  0  0
    7.9282   -2.5931    0.0000 C   0  0  0  0  0  0  0  0  0  0  0  0
    9.9282   -2.5931    0.0000 C   0  0  0  0  0  0  0  0  0  0  0  0
    7.9867    2.1760    0.0000 H   0  0  0  0  0  0  0  0  0  0  0  0
    8.7843    1.9473    0.0000 H   0  0  0  0  0  0  0  0  0  0  0  0
   10.0358    3.8027    0.0000 H   0  0  0  0  0  0  0  0  0  0  0  0
    9.5250    4.4565    0.0000 H   0  0  0  0  0  0  0  0  0  0  0  0
    9.7942    1.2869    0.0000 H   0  0  0  0  0  0  0  0  0  0  0  0
    7.4219    3.6911    0.0000 H   0  0  0  0  0  0  0  0  0  0  0  0
    7.4509    2.8619    0.0000 H   0  0  0  0  0  0  0  0  0  0  0  0
    8.6883    4.6964    0.0000 H   0  0  0  0  0  0  0  0  0  0  0  0
    7.9086    4.4126    0.0000 H   0  0  0  0  0  0  0  0  0  0  0  0
    4.2690   -2.2831    0.0000 H   0  0  0  0  0  0  0  0  0  0  0  0
    2.8660   -2.4731    0.0000 H   0  0  0  0  0  0  0  0  0  0  0  0
    5.1350   -3.4031    0.0000 H   0  0  0  0  0  0  0  0  0  0  0  0
    2.2554   -3.9855    0.0000 H   0  0  0  0  0  0  0  0  0  0  0  0
    2.6540   -4.6758    0.0000 H   0  0  0  0  0  0  0  0  0  0  0  0
    4.8101   -4.6758    0.0000 H   0  0  0  0  0  0  0  0  0  0  0  0
    5.2087   -3.9855    0.0000 H   0  0  0  0  0  0  0  0  0  0  0  0
    3.3335   -5.0681    0.0000 H   0  0  0  0  0  0  0  0  0  0  0  0
    4.1306   -5.0681    0.0000 H   0  0  0  0  0  0  0  0  0  0  0  0
    8.3913    1.7169    0.0000 H   0  0  0  0  0  0  0  0  0  0  0  0
    2.3100   -2.0562    0.0000 H   0  0  0  0  0  0  0  0  0  0  0  0
    1.4631   -2.2831    0.0000 H   0  0  0  0  0  0  0  0  0  0  0  0
    1.6900   -3.1301    0.0000 H   0  0  0  0  0  0  0  0  0  0  0  0
    5.7741   -3.1301    0.0000 H   0  0  0  0  0  0  0  0  0  0  0  0
    6.0010   -2.2831    0.0000 H   0  0  0  0  0  0  0  0  0  0  0  0
    5.1541   -2.0562    0.0000 H   0  0  0  0  0  0  0  0  0  0  0  0
    3.1951   -1.2831    0.0000 H   0  0  0  0  0  0  0  0  0  0  0  0
    8.5991    0.2169    0.0000 H   0  0  0  0  0  0  0  0  0  0  0  0
   11.8571    2.1631    0.0000 H   0  0  0  0  0  0  0  0  0  0  0  0
   12.4999    1.3971    0.0000 H   0  0  0  0  0  0  0  0  0  0  0  0
    5.4641   -0.2131    0.0000 H   0  0  0  0  0  0  0  0  0  0  0  0
    7.5947    0.8818    0.0000 H   0  0  0  0  0  0  0  0  0  0  0  0
    6.7976    0.8818    0.0000 H   0  0  0  0  0  0  0  0  0  0  0  0
   13.8096    1.2981    0.0000 H   0  0  0  0  0  0  0  0  0  0  0  0
   13.0606    1.5707    0.0000 H   0  0  0  0  0  0  0  0  0  0  0  0
   10.0300    4.5931    0.0000 H   0  0  0  0  0  0  0  0  0  0  0  0
    7.4516   -0.9855    0.0000 H   0  0  0  0  0  0  0  0  0  0  0  0
    7.8501   -1.6758    0.0000 H   0  0  0  0  0  0  0  0  0  0  0  0
    4.0611    0.2169    0.0000 H   0  0  0  0  0  0  0  0  0  0  0  0
   11.4089    0.1848    0.0000 H   0  0  0  0  0  0  0  0  0  0  0  0
   11.5473   -0.6002    0.0000 H   0  0  0  0  0  0  0  0  0  0  0  0
    6.0841    2.4069    0.0000 H   0  0  0  0  0  0  0  0  0  0  0  0
    5.4641    3.0269    0.0000 H   0  0  0  0  0  0  0  0  0  0  0  0
    4.8441    2.4069    0.0000 H   0  0  0  0  0  0  0  0  0  0  0  0
    6.4641    0.7869    0.0000 H   0  0  0  0  0  0  0  0  0  0  0  0
    7.0841    1.4069    0.0000 H   0  0  0  0  0  0  0  0  0  0  0  0
    6.4641    2.0269    0.0000 H   0  0  0  0  0  0  0  0  0  0  0  0
    4.4641    2.0269    0.0000 H   0  0  0  0  0  0  0  0  0  0  0  0
    3.8441    1.4069    0.0000 H   0  0  0  0  0  0  0  0  0  0  0  0
    4.4641    0.7869    0.0000 H   0  0  0  0  0  0  0  0  0  0  0  0
   14.0833   -0.9425    0.0000 H   0  0  0  0  0  0  0  0  0  0  0  0
   14.9568   -1.0189    0.0000 H   0  0  0  0  0  0  0  0  0  0  0  0
   15.0332   -0.1454    0.0000 H   0  0  0  0  0  0  0  0  0  0  0  0
   15.0800    0.3899    0.0000 H   0  0  0  0  0  0  0  0  0  0  0  0
   15.1564    1.2634    0.0000 H   0  0  0  0  0  0  0  0  0  0  0  0
   14.2830    1.3398    0.0000 H   0  0  0  0  0  0  0  0  0  0  0  0
   12.7509    0.0542    0.0000 H   0  0  0  0  0  0  0  0  0  0  0  0
   12.6745   -0.8192    0.0000 H   0  0  0  0  0  0  0  0  0  0  0  0
   13.5479   -0.8957    0.0000 H   0  0  0  0  0  0  0  0  0  0  0  0
    8.3082   -3.5931    0.0000 H   0  0  0  0  0  0  0  0  0  0  0  0
    8.9282   -4.2131    0.0000 H   0  0  0  0  0  0  0  0  0  0  0  0
    9.5482   -3.5931    0.0000 H   0  0  0  0  0  0  0  0  0  0  0  0
    7.9282   -1.9731    0.0000 H   0  0  0  0  0  0  0  0  0  0  0  0
    7.3082   -2.5931    0.0000 H   0  0  0  0  0  0  0  0  0  0  0  0
    7.9282   -3.2131    0.0000 H   0  0  0  0  0  0  0  0  0  0  0  0
    9.9282   -3.2131    0.0000 H   0  0  0  0  0  0  0  0  0  0  0  0
   10.5482   -2.5931    0.0000 H   0  0  0  0  0  0  0  0  0  0  0  0
    9.9282   -1.9731    0.0000 H   0  0  0  0  0  0  0  0  0  0  0  0
   12.3766   -1.4739    0.0000 H   0  0  0  0  0  0  0  0  0  0  0  0
  1 24  1  0  0  0  0
  1 86  1  0  0  0  0
  2 24  2  0  0  0  0
  3 26  2  0  0  0  0
  4 30  2  0  0  0  0
  5 36  2  0  0  0  0
  6 39  2  0  0  0  0
  7 40  1  0  0  0  0
  7119  1  0  0  0  0
  8 44  2  0  0  0  0
 16  9  1  1  0  0  0
  9 30  1  0  0  0  0
  9 70  1  0  0  0  0
 10 19  1  0  0  0  0
 10 36  1  0  0  0  0
 10 77  1  0  0  0  0
 11 26  1  0  0  0  0
 31 11  1  1  0  0  0
 11 79  1  0  0  0  0
 32 12  1  1  0  0  0
 12 36  1  0  0  0  0
 12 89  1  0  0  0  0
 13 14  1  0  0  0  0
 13 15  1  0  0  0  0
 13 16  1  0  0  0  0
 13 24  1  0  0  0  0
 14 17  1  0  0  0  0
 14 52  1  0  0  0  0
 14 53  1  0  0  0  0
 15 18  1  0  0  0  0
 15 54  1  0  0  0  0
 15 55  1  0  0  0  0
 16 26  1  0  0  0  0
 16 56  1  0  0  0  0
 17 18  1  0  0  0  0
 17 57  1  0  0  0  0
 17 58  1  0  0  0  0
 18 59  1  0  0  0  0
 18 60  1  0  0  0  0
 19 20  1  0  0  0  0
 19 21  1  0  0  0  0
 19 61  1  0  0  0  0
 20 22  1  0  0  0  0
 20 27  1  6  0  0  0
 20 62  1  0  0  0  0
 21 23  1  0  0  0  0
 21 28  1  6  0  0  0
 21 63  1  0  0  0  0
 22 25  1  0  0  0  0
 22 64  1  0  0  0  0
 22 65  1  0  0  0  0
 23 25  1  0  0  0  0
 23 66  1  0  0  0  0
 23 67  1  0  0  0  0
 25 68  1  0  0  0  0
 25 69  1  0  0  0  0
 27 71  1  0  0  0  0
 27 72  1  0  0  0  0
 27 73  1  0  0  0  0
 28 74  1  0  0  0  0
 28 75  1  0  0  0  0
 28 76  1  0  0  0  0
 29 30  1  0  0  0  0
 29 33  1  0  0  0  0
 29 37  1  1  0  0  0
 29 78  1  0  0  0  0
 31 35  1  0  0  0  0
 31 40  1  0  0  0  0
 31 80  1  0  0  0  0
 32 34  1  0  0  0  0
 32 39  1  0  0  0  0
 32 81  1  0  0  0  0
 33 39  1  0  0  0  0
 33 82  1  0  0  0  0
 33 83  1  0  0  0  0
 34 41  1  0  0  0  0
 34 42  1  0  0  0  0
 34 43  1  0  0  0  0
 35 38  1  0  0  0  0
 35 84  1  0  0  0  0
 35 85  1  0  0  0  0
 37 44  1  0  0  0  0
 37 87  1  0  0  0  0
 37 88  1  0  0  0  0
 38 46  1  0  0  0  0
 38 47  1  0  0  0  0
 38 48  1  0  0  0  0
 40 90  1  0  0  0  0
 40 91  1  0  0  0  0
 41 92  1  0  0  0  0
 41 93  1  0  0  0  0
 41 94  1  0  0  0  0
 42 95  1  0  0  0  0
 42 96  1  0  0  0  0
 42 97  1  0  0  0  0
 43 98  1  0  0  0  0
 43 99  1  0  0  0  0
 43100  1  0  0  0  0
 44 45  1  0  0  0  0
 45 49  1  0  0  0  0
 45 50  1  0  0  0  0
 45 51  1  0  0  0  0
 46101  1  0  0  0  0
 46102  1  0  0  0  0
 46103  1  0  0  0  0
 47104  1  0  0  0  0
 47105  1  0  0  0  0
 47106  1  0  0  0  0
 48107  1  0  0  0  0
 48108  1  0  0  0  0
 48109  1  0  0  0  0
 49110  1  0  0  0  0
 49111  1  0  0  0  0
 49112  1  0  0  0  0
 50113  1  0  0  0  0
 50114  1  0  0  0  0
 50115  1  0  0  0  0
 51116  1  0  0  0  0
 51117  1  0  0  0  0
 51118  1  0  0  0  0
M  END
> <PUBCHEM_COMPOUND_CID>
515295
> <PUBCHEM_COMPOUND_CANONICALIZED>
1
> <PUBCHEM_CACTVS_COMPLEXITY>
1240
> <PUBCHEM_CACTVS_HBOND_ACCEPTOR>
8
> <PUBCHEM_CACTVS_HBOND_DONOR>
6
> <PUBCHEM_CACTVS_ROTATABLE_BOND>
18
> <PUBCHEM_CACTVS_SUBSKEYS>
AAADcfB/vAAAAAAAAAAAAAAAAAAAAYAAAAAwAAAAAAAAAAAAAAAAHgAQCAAADyzhgAYDCALAAgAIAIGQGAAAAAAAAAAAAIGIAACCUBoAgCAUQAAOFgKQAAG/y8C/AAAAAAAAAAAAAAQAAAQAAAAAAAAAAA==
> <PUBCHEM_IUPAC_OPENEYE_NAME>
1-[(1S)-1-[[(2S,5S)-5-[[(2S,6R)-2,6-dimethylcyclohexyl]carbamoylamino]-2-(3,3-dimethyl-2-oxo-butyl)-6,6-dimethyl-4-oxo-heptanoyl]amino]-2-[[(1S)-1-(hydroxymethyl)-3,3-dimethyl-butyl]amino]-2-oxo-ethyl]cyclopentanecarboxylic acid
> <PUBCHEM_IUPAC_CAS_NAME>
1-[(1S)-1-[[(2S,5S)-5-[[[[(2S,6R)-2,6-dimethylcyclohexyl]amino]-oxomethyl]amino]-2-(3,3-dimethyl-2-oxobutyl)-6,6-dimethyl-1,4-dioxoheptyl]amino]-2-[[(2S)-1-hydroxy-4,4-dimethylpentan-2-yl]amino]-2-oxoethyl]-1-cyclopentanecarboxylic acid
> <PUBCHEM_IUPAC_NAME_MARKUP>
1-[(1<I>S</I>)-1-[[(2<I>S</I>,5<I>S</I>)-5-[[(2<I>S</I>,6<I>R</I>)-2,6-dimethylcyclohexyl]carbamoylamino]-2-(3,3-dimethyl-2-oxobutyl)-6,6-dimethyl-4-oxoheptanoyl]amino]-2-[[(2<I>S</I>)-1-hydroxy-4,4-dimethylpentan-2-yl]amino]-2-oxoethyl]cyclopentane-1-carboxylic acid
> <PUBCHEM_IUPAC_NAME>
1-[(1S)-1-[[(2S,5S)-5-[[(2S,6R)-2,6-dimethylcyclohexyl]carbamoylamino]-2-(3,3-dimethyl-2-oxobutyl)-6,6-dimethyl-4-oxoheptanoyl]amino]-2-[[(2S)-1-hydroxy-4,4-dimethylpentan-2-yl]amino]-2-oxoethyl]cyclopentane-1-carboxylic acid
> <PUBCHEM_IUPAC_SYSTEMATIC_NAME>
1-[(1S)-1-[[(2S,5S)-5-[[(2S,6R)-2,6-dimethylcyclohexyl]carbamoylamino]-2-(3,3-dimethyl-2-oxidanylidene-butyl)-6,6-dimethyl-4-oxidanylidene-heptanoyl]amino]-2-[[(2S)-4,4-dimethyl-1-oxidanyl-pentan-2-yl]amino]-2-oxidanylidene-ethyl]cyclopentane-1-carboxylic acid
> <PUBCHEM_IUPAC_TRADITIONAL_NAME>
1-[(1S)-1-[[(2S,5S)-5-[[(2S,6R)-2,6-dimethylcyclohexyl]carbamoylamino]-4-keto-2-(2-keto-3,3-dimethyl-butyl)-6,6-dimethyl-heptanoyl]amino]-2-[[(1S)-3,3-dimethyl-1-methylol-butyl]amino]-2-keto-ethyl]cyclopentanecarboxylic acid
> <PUBCHEM_IUPAC_INCHI>
InChI=1S/C39H68N4O8/c1-23-15-14-16-24(2)29(23)41-35(51)43-30(38(9,10)11)27(45)19-25(20-28(46)37(6,7)8)32(47)42-31(39(34(49)50)17-12-13-18-39)33(48)40-26(22-44)21-36(3,4)5/h23-26,29-31,44H,12-22H2,1-11H3,(H,40,48)(H,42,47)(H,49,50)(H2,41,43,51)/t23-,24+,25-,26+,29?,30-,31-/m1/s1
> <PUBCHEM_IUPAC_INCHIKEY>
IZKIFAPYEQGURM-IUBWRWPLSA-N
> <PUBCHEM_XLOGP3_AA>
5.6
> <PUBCHEM_EXACT_MASS>
720.50371514
> <PUBCHEM_MOLECULAR_FORMULA>
C39H68N4O8
> <PUBCHEM_MOLECULAR_WEIGHT>
721.0
> <PUBCHEM_OPENEYE_CAN_SMILES>
CC1CCCC(C1NC(=O)NC(C(=O)CC(CC(=O)C(C)(C)C)C(=O)NC(C(=O)NC(CC(C)(C)C)CO)C2(CCCC2)C(=O)O)C(C)(C)C)C
> <PUBCHEM_OPENEYE_ISO_SMILES>
C[C@@H]1CCC[C@@H](C1NC(=O)N[C@H](C(=O)C[C@H](CC(=O)C(C)(C)C)C(=O)N[C@H](C(=O)N[C@@H](CC(C)(C)C)CO)C2(CCCC2)C(=O)O)C(C)(C)C)C
> <PUBCHEM_CACTVS_TPSA>
191
> <PUBCHEM_MONOISOTOPIC_WEIGHT>
720.50371514
> <PUBCHEM_TOTAL_CHARGE>
0
> <PUBCHEM_HEAVY_ATOM_COUNT>
51
> <PUBCHEM_ATOM_DEF_STEREO_COUNT>
6
> <PUBCHEM_ATOM_UDEF_STEREO_COUNT>
0
> <PUBCHEM_BOND_DEF_STEREO_COUNT>
0
> <PUBCHEM_BOND_UDEF_STEREO_COUNT>
0
> <PUBCHEM_ISOTOPIC_ATOM_COUNT>
0
> <PUBCHEM_COMPONENT_COUNT>
1
> <PUBCHEM_CACTVS_TAUTO_COUNT>
-1
> <PUBCHEM_COORDINATE_TYPE>
1
5
255
> <PUBCHEM_BONDANNOTATIONS>
31  11  5
32  12  5
20  27  6
21  28  6
29  37  5
16  9  5
$$$$
