515267
  -OEChem-10302200282D
 90 90  0     1  0  0  0  0  0999 V2000
    8.9282   -0.5600    0.0000 O   0  0  0  0  0  0  0  0  0  0  0  0
    8.0622   -0.0600    0.0000 O   0  0  0  0  0  0  0  0  0  0  0  0
   12.3923   -1.5600    0.0000 O   0  0  0  0  0  0  0  0  0  0  0  0
    4.5981    0.9400    0.0000 O   0  0  0  0  0  0  0  0  0  0  0  0
    5.4641   -1.5600    0.0000 O   0  0  0  0  0  0  0  0  0  0  0  0
    4.5981   -0.0600    0.0000 O   0  0  0  0  0  0  0  0  0  0  0  0
    3.7320    4.4400    0.0000 O   0  0  0  0  0  0  0  0  0  0  0  0
    5.4641    4.4400    0.0000 O   0  0  0  0  0  0  0  0  0  0  0  0
    9.7942    0.9400    0.0000 N   0  0  0  0  0  0  0  0  0  0  0  0
   10.6603   -1.5600    0.0000 N   0  0  0  0  0  0  0  0  0  0  0  0
    7.1962    1.4400    0.0000 N   0  0  0  0  0  0  0  0  0  0  0  0
   11.5263   -3.0600    0.0000 N   0  0  0  0  0  0  0  0  0  0  0  0
    5.4641    2.4400    0.0000 N   0  0  0  0  0  0  0  0  0  0  0  0
    8.9282    1.4400    0.0000 C   0  0  3  0  0  0  0  0  0  0  0  0
    8.9282    2.4400    0.0000 C   0  0  0  0  0  0  0  0  0  0  0  0
   11.5263   -0.0600    0.0000 C   0  0  0  0  0  0  0  0  0  0  0  0
   10.6603   -0.5600    0.0000 C   0  0  1  0  0  0  0  0  0  0  0  0
   10.6603    1.4400    0.0000 C   0  0  0  0  0  0  0  0  0  0  0  0
    9.7942    2.9400    0.0000 C   0  0  0  0  0  0  0  0  0  0  0  0
   10.6603    2.4400    0.0000 C   0  0  0  0  0  0  0  0  0  0  0  0
    9.7942   -0.0600    0.0000 C   0  0  0  0  0  0  0  0  0  0  0  0
    8.0622    0.9400    0.0000 C   0  0  0  0  0  0  0  0  0  0  0  0
   12.3923    0.4400    0.0000 C   0  0  0  0  0  0  0  0  0  0  0  0
   12.0263   -0.9260    0.0000 C   0  0  0  0  0  0  0  0  0  0  0  0
   11.0263    0.8060    0.0000 C   0  0  0  0  0  0  0  0  0  0  0  0
    6.3301    0.9400    0.0000 C   0  0  1  0  0  0  0  0  0  0  0  0
   11.5263   -2.0600    0.0000 C   0  0  0  0  0  0  0  0  0  0  0  0
    6.3301   -0.0600    0.0000 C   0  0  0  0  0  0  0  0  0  0  0  0
   12.3923   -3.5600    0.0000 C   0  0  0  0  0  0  0  0  0  0  0  0
    5.4641    1.4400    0.0000 C   0  0  0  0  0  0  0  0  0  0  0  0
    4.5981    2.9400    0.0000 C   0  0  1  0  0  0  0  0  0  0  0  0
   12.3923   -4.5600    0.0000 C   0  0  0  0  0  0  0  0  0  0  0  0
   13.2583   -3.0600    0.0000 C   0  0  0  0  0  0  0  0  0  0  0  0
    3.7320    2.4400    0.0000 C   0  0  0  0  0  0  0  0  0  0  0  0
    2.8660    2.9400    0.0000 C   0  0  0  0  0  0  0  0  0  0  0  0
    5.4641   -0.5600    0.0000 C   0  0  0  0  0  0  0  0  0  0  0  0
   13.2583   -5.0600    0.0000 C   0  0  0  0  0  0  0  0  0  0  0  0
   14.1244   -3.5600    0.0000 C   0  0  0  0  0  0  0  0  0  0  0  0
    4.5981    3.9400    0.0000 C   0  0  0  0  0  0  0  0  0  0  0  0
    2.0000    2.4400    0.0000 C   0  0  0  0  0  0  0  0  0  0  0  0
    2.8660    3.9400    0.0000 C   0  0  0  0  0  0  0  0  0  0  0  0
    8.9282    0.8200    0.0000 H   0  0  0  0  0  0  0  0  0  0  0  0
    8.7162    3.0226    0.0000 H   0  0  0  0  0  0  0  0  0  0  0  0
    8.3176    2.3323    0.0000 H   0  0  0  0  0  0  0  0  0  0  0  0
   11.1972   -0.8700    0.0000 H   0  0  0  0  0  0  0  0  0  0  0  0
   10.8723    0.8574    0.0000 H   0  0  0  0  0  0  0  0  0  0  0  0
   11.2708    1.5477    0.0000 H   0  0  0  0  0  0  0  0  0  0  0  0
   10.1928    3.4150    0.0000 H   0  0  0  0  0  0  0  0  0  0  0  0
    9.3957    3.4150    0.0000 H   0  0  0  0  0  0  0  0  0  0  0  0
   11.2708    2.3323    0.0000 H   0  0  0  0  0  0  0  0  0  0  0  0
   10.8723    3.0226    0.0000 H   0  0  0  0  0  0  0  0  0  0  0  0
   12.7023   -0.0969    0.0000 H   0  0  0  0  0  0  0  0  0  0  0  0
   12.9292    0.7500    0.0000 H   0  0  0  0  0  0  0  0  0  0  0  0
   12.0823    0.9769    0.0000 H   0  0  0  0  0  0  0  0  0  0  0  0
   11.4893   -1.2360    0.0000 H   0  0  0  0  0  0  0  0  0  0  0  0
   12.3363   -1.4630    0.0000 H   0  0  0  0  0  0  0  0  0  0  0  0
   12.5632   -0.6160    0.0000 H   0  0  0  0  0  0  0  0  0  0  0  0
   11.5632    1.1160    0.0000 H   0  0  0  0  0  0  0  0  0  0  0  0
   10.7163    1.3430    0.0000 H   0  0  0  0  0  0  0  0  0  0  0  0
   10.4893    0.4960    0.0000 H   0  0  0  0  0  0  0  0  0  0  0  0
   10.1233   -1.8700    0.0000 H   0  0  0  0  0  0  0  0  0  0  0  0
    7.1962    2.0600    0.0000 H   0  0  0  0  0  0  0  0  0  0  0  0
    6.8671    0.6300    0.0000 H   0  0  0  0  0  0  0  0  0  0  0  0
    6.5422   -0.6426    0.0000 H   0  0  0  0  0  0  0  0  0  0  0  0
    6.9407    0.0477    0.0000 H   0  0  0  0  0  0  0  0  0  0  0  0
   11.8554   -3.8700    0.0000 H   0  0  0  0  0  0  0  0  0  0  0  0
   10.9893   -3.3700    0.0000 H   0  0  0  0  0  0  0  0  0  0  0  0
    4.5981    2.3200    0.0000 H   0  0  0  0  0  0  0  0  0  0  0  0
    6.0010    2.7500    0.0000 H   0  0  0  0  0  0  0  0  0  0  0  0
    3.3335    1.9650    0.0000 H   0  0  0  0  0  0  0  0  0  0  0  0
    4.1306    1.9650    0.0000 H   0  0  0  0  0  0  0  0  0  0  0  0
   11.7817   -4.4523    0.0000 H   0  0  0  0  0  0  0  0  0  0  0  0
   12.1803   -5.1426    0.0000 H   0  0  0  0  0  0  0  0  0  0  0  0
   13.6569   -2.5850    0.0000 H   0  0  0  0  0  0  0  0  0  0  0  0
   12.8598   -2.5850    0.0000 H   0  0  0  0  0  0  0  0  0  0  0  0
    2.8660    2.3200    0.0000 H   0  0  0  0  0  0  0  0  0  0  0  0
   12.9483   -5.5969    0.0000 H   0  0  0  0  0  0  0  0  0  0  0  0
   13.7953   -5.3700    0.0000 H   0  0  0  0  0  0  0  0  0  0  0  0
   13.5683   -4.5231    0.0000 H   0  0  0  0  0  0  0  0  0  0  0  0
   13.8144   -4.0969    0.0000 H   0  0  0  0  0  0  0  0  0  0  0  0
   14.6613   -3.8700    0.0000 H   0  0  0  0  0  0  0  0  0  0  0  0
   14.4344   -3.0231    0.0000 H   0  0  0  0  0  0  0  0  0  0  0  0
    1.6900    2.9769    0.0000 H   0  0  0  0  0  0  0  0  0  0  0  0
    1.4631    2.1300    0.0000 H   0  0  0  0  0  0  0  0  0  0  0  0
    2.3100    1.9031    0.0000 H   0  0  0  0  0  0  0  0  0  0  0  0
    3.4860    3.9400    0.0000 H   0  0  0  0  0  0  0  0  0  0  0  0
    2.8660    4.5600    0.0000 H   0  0  0  0  0  0  0  0  0  0  0  0
    2.2460    3.9400    0.0000 H   0  0  0  0  0  0  0  0  0  0  0  0
    4.9272   -1.8700    0.0000 H   0  0  0  0  0  0  0  0  0  0  0  0
    3.7320    5.0600    0.0000 H   0  0  0  0  0  0  0  0  0  0  0  0
  1 21  2  0  0  0  0
  2 22  2  0  0  0  0
  3 27  2  0  0  0  0
  4 30  2  0  0  0  0
  5 36  1  0  0  0  0
  5 89  1  0  0  0  0
  6 36  2  0  0  0  0
  7 39  1  0  0  0  0
  7 90  1  0  0  0  0
  8 39  2  0  0  0  0
  9 14  1  0  0  0  0
  9 18  1  0  0  0  0
  9 21  1  0  0  0  0
 17 10  1  6  0  0  0
 10 27  1  0  0  0  0
 10 61  1  0  0  0  0
 11 22  1  0  0  0  0
 26 11  1  1  0  0  0
 11 62  1  0  0  0  0
 12 27  1  0  0  0  0
 12 29  1  0  0  0  0
 12 67  1  0  0  0  0
 13 30  1  0  0  0  0
 31 13  1  1  0  0  0
 13 69  1  0  0  0  0
 14 15  1  0  0  0  0
 14 22  1  0  0  0  0
 14 42  1  0  0  0  0
 15 19  1  0  0  0  0
 15 43  1  0  0  0  0
 15 44  1  0  0  0  0
 16 17  1  0  0  0  0
 16 23  1  0  0  0  0
 16 24  1  0  0  0  0
 16 25  1  0  0  0  0
 17 21  1  0  0  0  0
 17 45  1  0  0  0  0
 18 20  1  0  0  0  0
 18 46  1  0  0  0  0
 18 47  1  0  0  0  0
 19 20  1  0  0  0  0
 19 48  1  0  0  0  0
 19 49  1  0  0  0  0
 20 50  1  0  0  0  0
 20 51  1  0  0  0  0
 23 52  1  0  0  0  0
 23 53  1  0  0  0  0
 23 54  1  0  0  0  0
 24 55  1  0  0  0  0
 24 56  1  0  0  0  0
 24 57  1  0  0  0  0
 25 58  1  0  0  0  0
 25 59  1  0  0  0  0
 25 60  1  0  0  0  0
 26 28  1  0  0  0  0
 26 30  1  0  0  0  0
 26 63  1  0  0  0  0
 28 36  1  0  0  0  0
 28 64  1  0  0  0  0
 28 65  1  0  0  0  0
 29 32  1  0  0  0  0
 29 33  1  0  0  0  0
 29 66  1  0  0  0  0
 31 34  1  0  0  0  0
 31 39  1  0  0  0  0
 31 68  1  0  0  0  0
 32 37  1  0  0  0  0
 32 72  1  0  0  0  0
 32 73  1  0  0  0  0
 33 38  1  0  0  0  0
 33 74  1  0  0  0  0
 33 75  1  0  0  0  0
 34 35  1  0  0  0  0
 34 70  1  0  0  0  0
 34 71  1  0  0  0  0
 35 40  1  0  0  0  0
 35 41  1  0  0  0  0
 35 76  1  0  0  0  0
 37 77  1  0  0  0  0
 37 78  1  0  0  0  0
 37 79  1  0  0  0  0
 38 80  1  0  0  0  0
 38 81  1  0  0  0  0
 38 82  1  0  0  0  0
 40 83  1  0  0  0  0
 40 84  1  0  0  0  0
 40 85  1  0  0  0  0
 41 86  1  0  0  0  0
 41 87  1  0  0  0  0
 41 88  1  0  0  0  0
M  END
> <PUBCHEM_COMPOUND_CID>
515267
> <PUBCHEM_COMPOUND_CANONICALIZED>
1
> <PUBCHEM_CACTVS_COMPLEXITY>
944
> <PUBCHEM_CACTVS_HBOND_ACCEPTOR>
8
> <PUBCHEM_CACTVS_HBOND_DONOR>
6
> <PUBCHEM_CACTVS_ROTATABLE_BOND>
15
> <PUBCHEM_CACTVS_SUBSKEYS>
AAADcfB7vAAAAAAAAAAAAAAAAAAAAAAAAAAsAAAAAAAAAAAAAAAAHgAQCAAADyjBgAQDCAPAAgAIAAGQGAAAAAAAAAAAAIGIAACCQBoAgCAUQAAOFgKQAAG/CAANAAAAAAAAAAAAAAAAAAAAAAAAAAAAAA==
> <PUBCHEM_IUPAC_OPENEYE_NAME>
(2S)-2-[[(2S)-3-carboxy-2-[[1-[(2S)-2-(1-ethylpropylcarbamoylamino)-3,3-dimethyl-butanoyl]piperidine-2-carbonyl]amino]propanoyl]amino]-4-methyl-pentanoic acid
> <PUBCHEM_IUPAC_CAS_NAME>
(2S)-2-[[(2S)-3-carboxy-2-[[[1-[(2S)-3,3-dimethyl-1-oxo-2-[[oxo-(pentan-3-ylamino)methyl]amino]butyl]-2-piperidinyl]-oxomethyl]amino]-1-oxopropyl]amino]-4-methylpentanoic acid
> <PUBCHEM_IUPAC_NAME_MARKUP>
(2<I>S</I>)-2-[[(2<I>S</I>)-3-carboxy-2-[[1-[(2<I>S</I>)-3,3-dimethyl-2-(pentan-3-ylcarbamoylamino)butanoyl]piperidine-2-carbonyl]amino]propanoyl]amino]-4-methylpentanoic acid
> <PUBCHEM_IUPAC_NAME>
(2S)-2-[[(2S)-3-carboxy-2-[[1-[(2S)-3,3-dimethyl-2-(pentan-3-ylcarbamoylamino)butanoyl]piperidine-2-carbonyl]amino]propanoyl]amino]-4-methylpentanoic acid
> <PUBCHEM_IUPAC_SYSTEMATIC_NAME>
(2S)-2-[[(2S)-2-[[1-[(2S)-3,3-dimethyl-2-(pentan-3-ylcarbamoylamino)butanoyl]piperidin-2-yl]carbonylamino]-4-oxidanyl-4-oxidanylidene-butanoyl]amino]-4-methyl-pentanoic acid
> <PUBCHEM_IUPAC_TRADITIONAL_NAME>
(2S)-2-[[(2S)-3-carboxy-2-[[1-[(2S)-2-(1-ethylpropylcarbamoylamino)-3,3-dimethyl-butanoyl]pipecoloyl]amino]propanoyl]amino]-4-methyl-valeric acid
> <PUBCHEM_IUPAC_INCHI>
InChI=1S/C28H49N5O8/c1-8-17(9-2)29-27(41)32-22(28(5,6)7)25(38)33-13-11-10-12-20(33)24(37)30-18(15-21(34)35)23(36)31-19(26(39)40)14-16(3)4/h16-20,22H,8-15H2,1-7H3,(H,30,37)(H,31,36)(H,34,35)(H,39,40)(H2,29,32,41)/t18-,19-,20?,22+/m0/s1
> <PUBCHEM_IUPAC_INCHIKEY>
JVYMGIMJTABOGF-WMQDSIHESA-N
> <PUBCHEM_XLOGP3_AA>
2.9
> <PUBCHEM_EXACT_MASS>
583.35811354
> <PUBCHEM_MOLECULAR_FORMULA>
C28H49N5O8
> <PUBCHEM_MOLECULAR_WEIGHT>
583.7
> <PUBCHEM_OPENEYE_CAN_SMILES>
CCC(CC)NC(=O)NC(C(=O)N1CCCCC1C(=O)NC(CC(=O)O)C(=O)NC(CC(C)C)C(=O)O)C(C)(C)C
> <PUBCHEM_OPENEYE_ISO_SMILES>
CCC(CC)NC(=O)N[C@H](C(=O)N1CCCCC1C(=O)N[C@@H](CC(=O)O)C(=O)N[C@@H](CC(C)C)C(=O)O)C(C)(C)C
> <PUBCHEM_CACTVS_TPSA>
194
> <PUBCHEM_MONOISOTOPIC_WEIGHT>
583.35811354
> <PUBCHEM_TOTAL_CHARGE>
0
> <PUBCHEM_HEAVY_ATOM_COUNT>
41
> <PUBCHEM_ATOM_DEF_STEREO_COUNT>
3
> <PUBCHEM_ATOM_UDEF_STEREO_COUNT>
1
> <PUBCHEM_BOND_DEF_STEREO_COUNT>
0
> <PUBCHEM_BOND_UDEF_STEREO_COUNT>
0
> <PUBCHEM_ISOTOPIC_ATOM_COUNT>
0
> <PUBCHEM_COMPONENT_COUNT>
1
> <PUBCHEM_CACTVS_TAUTO_COUNT>
-1
> <PUBCHEM_COORDINATE_TYPE>
1
5
255
> <PUBCHEM_BONDANNOTATIONS>
17  10  6
26  11  5
31  13  5
14  22  3
$$$$
