515262
  -OEChem-10302200282D
 88 88  0     1  0  0  0  0  0999 V2000
   10.6603    2.2306    0.0000 O   0  0  0  0  0  0  0  0  0  0  0  0
    8.0622   -0.2694    0.0000 O   0  0  0  0  0  0  0  0  0  0  0  0
    4.5981    0.7306    0.0000 O   0  0  0  0  0  0  0  0  0  0  0  0
    8.9282   -0.7694    0.0000 O   0  0  0  0  0  0  0  0  0  0  0  0
    3.7320    4.2306    0.0000 O   0  0  0  0  0  0  0  0  0  0  0  0
    5.4641    4.2306    0.0000 O   0  0  0  0  0  0  0  0  0  0  0  0
    5.4641   -1.7694    0.0000 O   0  0  0  0  0  0  0  0  0  0  0  0
   12.3923   -1.7694    0.0000 O   0  0  0  0  0  0  0  0  0  0  0  0
    4.5981   -0.2694    0.0000 O   0  0  0  0  0  0  0  0  0  0  0  0
    9.7942    3.7306    0.0000 N   0  0  0  0  0  0  0  0  0  0  0  0
    9.7942    0.7306    0.0000 N   0  0  0  0  0  0  0  0  0  0  0  0
    7.1962    1.2306    0.0000 N   0  0  0  0  0  0  0  0  0  0  0  0
    5.4641    2.2306    0.0000 N   0  0  0  0  0  0  0  0  0  0  0  0
   10.6603   -1.7694    0.0000 N   0  0  0  0  0  0  0  0  0  0  0  0
   11.5263   -3.2694    0.0000 N   0  0  0  0  0  0  0  0  0  0  0  0
   10.2942    5.2694    0.0000 C   0  0  0  0  0  0  0  0  0  0  0  0
    9.2942    5.2694    0.0000 C   0  0  0  0  0  0  0  0  0  0  0  0
   10.6032    4.3184    0.0000 C   0  0  0  0  0  0  0  0  0  0  0  0
    8.9852    4.3184    0.0000 C   0  0  0  0  0  0  0  0  0  0  0  0
    9.7942    2.7306    0.0000 C   0  0  0  0  0  0  0  0  0  0  0  0
    8.9282    2.2306    0.0000 C   0  0  0  0  0  0  0  0  0  0  0  0
    8.9282    1.2306    0.0000 C   0  0  1  0  0  0  0  0  0  0  0  0
    8.0622    0.7306    0.0000 C   0  0  0  0  0  0  0  0  0  0  0  0
    6.3301    0.7306    0.0000 C   0  0  2  0  0  0  0  0  0  0  0  0
    3.7320    2.2306    0.0000 C   0  0  0  0  0  0  0  0  0  0  0  0
    4.5981    2.7306    0.0000 C   0  0  1  0  0  0  0  0  0  0  0  0
    2.8660    2.7306    0.0000 C   0  0  0  0  0  0  0  0  0  0  0  0
    5.4641    1.2306    0.0000 C   0  0  0  0  0  0  0  0  0  0  0  0
    9.7942   -0.2694    0.0000 C   0  0  0  0  0  0  0  0  0  0  0  0
   10.6603   -0.7694    0.0000 C   0  0  3  0  0  0  0  0  0  0  0  0
    6.3301   -0.2694    0.0000 C   0  0  0  0  0  0  0  0  0  0  0  0
    2.0000    2.2306    0.0000 C   0  0  0  0  0  0  0  0  0  0  0  0
    2.8660    3.7306    0.0000 C   0  0  0  0  0  0  0  0  0  0  0  0
   12.3923   -3.7694    0.0000 C   0  0  0  0  0  0  0  0  0  0  0  0
    4.5981    3.7306    0.0000 C   0  0  0  0  0  0  0  0  0  0  0  0
   12.3923   -4.7694    0.0000 C   0  0  0  0  0  0  0  0  0  0  0  0
   13.2583   -3.2694    0.0000 C   0  0  0  0  0  0  0  0  0  0  0  0
   11.5263   -0.2694    0.0000 C   0  0  0  0  0  0  0  0  0  0  0  0
   11.5263   -2.2694    0.0000 C   0  0  0  0  0  0  0  0  0  0  0  0
    5.4641   -0.7694    0.0000 C   0  0  0  0  0  0  0  0  0  0  0  0
   13.2583   -5.2694    0.0000 C   0  0  0  0  0  0  0  0  0  0  0  0
   14.1244   -3.7694    0.0000 C   0  0  0  0  0  0  0  0  0  0  0  0
   10.9007    5.3983    0.0000 H   0  0  0  0  0  0  0  0  0  0  0  0
   10.2294    5.8860    0.0000 H   0  0  0  0  0  0  0  0  0  0  0  0
    9.3590    5.8860    0.0000 H   0  0  0  0  0  0  0  0  0  0  0  0
    8.6878    5.3983    0.0000 H   0  0  0  0  0  0  0  0  0  0  0  0
   10.9132    3.7814    0.0000 H   0  0  0  0  0  0  0  0  0  0  0  0
   11.1696    4.5705    0.0000 H   0  0  0  0  0  0  0  0  0  0  0  0
    8.4188    4.5705    0.0000 H   0  0  0  0  0  0  0  0  0  0  0  0
    8.6752    3.7814    0.0000 H   0  0  0  0  0  0  0  0  0  0  0  0
    8.7162    2.8132    0.0000 H   0  0  0  0  0  0  0  0  0  0  0  0
    8.3176    2.1229    0.0000 H   0  0  0  0  0  0  0  0  0  0  0  0
    9.4651    1.5406    0.0000 H   0  0  0  0  0  0  0  0  0  0  0  0
   10.3312    1.0406    0.0000 H   0  0  0  0  0  0  0  0  0  0  0  0
    6.8671    0.4206    0.0000 H   0  0  0  0  0  0  0  0  0  0  0  0
    3.3335    1.7556    0.0000 H   0  0  0  0  0  0  0  0  0  0  0  0
    4.1306    1.7556    0.0000 H   0  0  0  0  0  0  0  0  0  0  0  0
    4.5981    2.1106    0.0000 H   0  0  0  0  0  0  0  0  0  0  0  0
    2.8660    2.1106    0.0000 H   0  0  0  0  0  0  0  0  0  0  0  0
    7.1962    1.8506    0.0000 H   0  0  0  0  0  0  0  0  0  0  0  0
    6.0010    2.5406    0.0000 H   0  0  0  0  0  0  0  0  0  0  0  0
   11.1972   -1.0794    0.0000 H   0  0  0  0  0  0  0  0  0  0  0  0
    6.5422   -0.8520    0.0000 H   0  0  0  0  0  0  0  0  0  0  0  0
    6.9407   -0.1618    0.0000 H   0  0  0  0  0  0  0  0  0  0  0  0
    1.6900    2.7675    0.0000 H   0  0  0  0  0  0  0  0  0  0  0  0
    1.4631    1.9206    0.0000 H   0  0  0  0  0  0  0  0  0  0  0  0
    2.3100    1.6936    0.0000 H   0  0  0  0  0  0  0  0  0  0  0  0
    3.4860    3.7306    0.0000 H   0  0  0  0  0  0  0  0  0  0  0  0
    2.8660    4.3506    0.0000 H   0  0  0  0  0  0  0  0  0  0  0  0
    2.2460    3.7306    0.0000 H   0  0  0  0  0  0  0  0  0  0  0  0
   11.8554   -4.0794    0.0000 H   0  0  0  0  0  0  0  0  0  0  0  0
   10.1233   -2.0794    0.0000 H   0  0  0  0  0  0  0  0  0  0  0  0
   11.7817   -4.6618    0.0000 H   0  0  0  0  0  0  0  0  0  0  0  0
   12.1803   -5.3520    0.0000 H   0  0  0  0  0  0  0  0  0  0  0  0
   13.6569   -2.7945    0.0000 H   0  0  0  0  0  0  0  0  0  0  0  0
   12.8598   -2.7945    0.0000 H   0  0  0  0  0  0  0  0  0  0  0  0
   11.8363   -0.8064    0.0000 H   0  0  0  0  0  0  0  0  0  0  0  0
   12.0632    0.0406    0.0000 H   0  0  0  0  0  0  0  0  0  0  0  0
   11.2163    0.2675    0.0000 H   0  0  0  0  0  0  0  0  0  0  0  0
   10.9893   -3.5794    0.0000 H   0  0  0  0  0  0  0  0  0  0  0  0
   12.9483   -5.8064    0.0000 H   0  0  0  0  0  0  0  0  0  0  0  0
   13.7953   -5.5794    0.0000 H   0  0  0  0  0  0  0  0  0  0  0  0
   13.5683   -4.7325    0.0000 H   0  0  0  0  0  0  0  0  0  0  0  0
   13.8144   -4.3064    0.0000 H   0  0  0  0  0  0  0  0  0  0  0  0
   14.6613   -4.0794    0.0000 H   0  0  0  0  0  0  0  0  0  0  0  0
   14.4344   -3.2325    0.0000 H   0  0  0  0  0  0  0  0  0  0  0  0
    3.7320    4.8506    0.0000 H   0  0  0  0  0  0  0  0  0  0  0  0
    4.9272   -2.0794    0.0000 H   0  0  0  0  0  0  0  0  0  0  0  0
  1 20  2  0  0  0  0
  2 23  2  0  0  0  0
  3 28  2  0  0  0  0
  4 29  2  0  0  0  0
  5 35  1  0  0  0  0
  5 87  1  0  0  0  0
  6 35  2  0  0  0  0
  7 40  1  0  0  0  0
  7 88  1  0  0  0  0
  8 39  2  0  0  0  0
  9 40  2  0  0  0  0
 10 18  1  0  0  0  0
 10 19  1  0  0  0  0
 10 20  1  0  0  0  0
 22 11  1  6  0  0  0
 11 29  1  0  0  0  0
 11 54  1  0  0  0  0
 12 23  1  0  0  0  0
 24 12  1  1  0  0  0
 12 60  1  0  0  0  0
 26 13  1  1  0  0  0
 13 28  1  0  0  0  0
 13 61  1  0  0  0  0
 14 30  1  0  0  0  0
 14 39  1  0  0  0  0
 14 72  1  0  0  0  0
 15 34  1  0  0  0  0
 15 39  1  0  0  0  0
 15 80  1  0  0  0  0
 16 17  1  0  0  0  0
 16 18  1  0  0  0  0
 16 43  1  0  0  0  0
 16 44  1  0  0  0  0
 17 19  1  0  0  0  0
 17 45  1  0  0  0  0
 17 46  1  0  0  0  0
 18 47  1  0  0  0  0
 18 48  1  0  0  0  0
 19 49  1  0  0  0  0
 19 50  1  0  0  0  0
 20 21  1  0  0  0  0
 21 22  1  0  0  0  0
 21 51  1  0  0  0  0
 21 52  1  0  0  0  0
 22 23  1  0  0  0  0
 22 53  1  0  0  0  0
 24 28  1  0  0  0  0
 24 31  1  0  0  0  0
 24 55  1  0  0  0  0
 25 26  1  0  0  0  0
 25 27  1  0  0  0  0
 25 56  1  0  0  0  0
 25 57  1  0  0  0  0
 26 35  1  0  0  0  0
 26 58  1  0  0  0  0
 27 32  1  0  0  0  0
 27 33  1  0  0  0  0
 27 59  1  0  0  0  0
 29 30  1  0  0  0  0
 30 38  1  0  0  0  0
 30 62  1  0  0  0  0
 31 40  1  0  0  0  0
 31 63  1  0  0  0  0
 31 64  1  0  0  0  0
 32 65  1  0  0  0  0
 32 66  1  0  0  0  0
 32 67  1  0  0  0  0
 33 68  1  0  0  0  0
 33 69  1  0  0  0  0
 33 70  1  0  0  0  0
 34 36  1  0  0  0  0
 34 37  1  0  0  0  0
 34 71  1  0  0  0  0
 36 41  1  0  0  0  0
 36 73  1  0  0  0  0
 36 74  1  0  0  0  0
 37 42  1  0  0  0  0
 37 75  1  0  0  0  0
 37 76  1  0  0  0  0
 38 77  1  0  0  0  0
 38 78  1  0  0  0  0
 38 79  1  0  0  0  0
 41 81  1  0  0  0  0
 41 82  1  0  0  0  0
 41 83  1  0  0  0  0
 42 84  1  0  0  0  0
 42 85  1  0  0  0  0
 42 86  1  0  0  0  0
M  END
> <PUBCHEM_COMPOUND_CID>
515262
> <PUBCHEM_COMPOUND_CANONICALIZED>
1
> <PUBCHEM_CACTVS_COMPLEXITY>
979
> <PUBCHEM_CACTVS_HBOND_ACCEPTOR>
9
> <PUBCHEM_CACTVS_HBOND_DONOR>
7
> <PUBCHEM_CACTVS_ROTATABLE_BOND>
17
> <PUBCHEM_CACTVS_SUBSKEYS>
AAADcfB7vAAAAAAAAAAAAAAAAAAAAWAAAAAAAAAAAAAAAAAAAAAAHgAQCAAADSjBgAQDCAPAAgAIAAGQGAAAAAAAAAAAAIGIAACCQBoAwCAUQAAOFgKQAACvAAAMAAAAAAAAAAAAAAAAAAAAAAAAAAAAAA==
> <PUBCHEM_IUPAC_OPENEYE_NAME>
(2S)-2-[[(2S)-3-carboxy-2-[[(2S)-2-[2-(1-ethylpropylcarbamoylamino)propanoylamino]-4-oxo-4-pyrrolidin-1-yl-butanoyl]amino]propanoyl]amino]-4-methyl-pentanoic acid
> <PUBCHEM_IUPAC_CAS_NAME>
(2S)-2-[[(2S)-3-carboxy-2-[[(2S)-1,4-dioxo-2-[[1-oxo-2-[[oxo-(pentan-3-ylamino)methyl]amino]propyl]amino]-4-(1-pyrrolidinyl)butyl]amino]-1-oxopropyl]amino]-4-methylpentanoic acid
> <PUBCHEM_IUPAC_NAME_MARKUP>
(2<I>S</I>)-2-[[(2<I>S</I>)-3-carboxy-2-[[(2<I>S</I>)-4-oxo-2-[2-(pentan-3-ylcarbamoylamino)propanoylamino]-4-pyrrolidin-1-ylbutanoyl]amino]propanoyl]amino]-4-methylpentanoic acid
> <PUBCHEM_IUPAC_NAME>
(2S)-2-[[(2S)-3-carboxy-2-[[(2S)-4-oxo-2-[2-(pentan-3-ylcarbamoylamino)propanoylamino]-4-pyrrolidin-1-ylbutanoyl]amino]propanoyl]amino]-4-methylpentanoic acid
> <PUBCHEM_IUPAC_SYSTEMATIC_NAME>
(2S)-4-methyl-2-[[(2S)-4-oxidanyl-4-oxidanylidene-2-[[(2S)-4-oxidanylidene-2-[2-(pentan-3-ylcarbamoylamino)propanoylamino]-4-pyrrolidin-1-yl-butanoyl]amino]butanoyl]amino]pentanoic acid
> <PUBCHEM_IUPAC_TRADITIONAL_NAME>
(2S)-2-[[(2S)-3-carboxy-2-[[(2S)-2-[2-(1-ethylpropylcarbamoylamino)propanoylamino]-4-keto-4-pyrrolidino-butanoyl]amino]propanoyl]amino]-4-methyl-valeric acid
> <PUBCHEM_IUPAC_INCHI>
InChI=1S/C27H46N6O9/c1-6-17(7-2)29-27(42)28-16(5)23(37)30-18(13-21(34)33-10-8-9-11-33)24(38)31-19(14-22(35)36)25(39)32-20(26(40)41)12-15(3)4/h15-20H,6-14H2,1-5H3,(H,30,37)(H,31,38)(H,32,39)(H,35,36)(H,40,41)(H2,28,29,42)/t16?,18-,19-,20-/m0/s1
> <PUBCHEM_IUPAC_INCHIKEY>
UEYZATMSGQWLKF-DMSDIXQISA-N
> <PUBCHEM_XLOGP3_AA>
0.5
> <PUBCHEM_EXACT_MASS>
598.33262707
> <PUBCHEM_MOLECULAR_FORMULA>
C27H46N6O9
> <PUBCHEM_MOLECULAR_WEIGHT>
598.7
> <PUBCHEM_OPENEYE_CAN_SMILES>
CCC(CC)NC(=O)NC(C)C(=O)NC(CC(=O)N1CCCC1)C(=O)NC(CC(=O)O)C(=O)NC(CC(C)C)C(=O)O
> <PUBCHEM_OPENEYE_ISO_SMILES>
CCC(CC)NC(=O)NC(C)C(=O)N[C@@H](CC(=O)N1CCCC1)C(=O)N[C@@H](CC(=O)O)C(=O)N[C@@H](CC(C)C)C(=O)O
> <PUBCHEM_CACTVS_TPSA>
223
> <PUBCHEM_MONOISOTOPIC_WEIGHT>
598.33262707
> <PUBCHEM_TOTAL_CHARGE>
0
> <PUBCHEM_HEAVY_ATOM_COUNT>
42
> <PUBCHEM_ATOM_DEF_STEREO_COUNT>
3
> <PUBCHEM_ATOM_UDEF_STEREO_COUNT>
1
> <PUBCHEM_BOND_DEF_STEREO_COUNT>
0
> <PUBCHEM_BOND_UDEF_STEREO_COUNT>
0
> <PUBCHEM_ISOTOPIC_ATOM_COUNT>
0
> <PUBCHEM_COMPONENT_COUNT>
1
> <PUBCHEM_CACTVS_TAUTO_COUNT>
-1
> <PUBCHEM_COORDINATE_TYPE>
1
5
255
> <PUBCHEM_BONDANNOTATIONS>
22  11  6
24  12  5
26  13  5
30  38  3
$$$$
