515260
  -OEChem-10302200282D
 92 93  0     1  0  0  0  0  0999 V2000
    3.7320   -0.8450    0.0000 O   0  0  0  0  0  0  0  0  0  0  0  0
    5.4641   -3.8450    0.0000 O   0  0  0  0  0  0  0  0  0  0  0  0
    6.3301   -3.3450    0.0000 O   0  0  0  0  0  0  0  0  0  0  0  0
    4.5981    2.6550    0.0000 O   0  0  0  0  0  0  0  0  0  0  0  0
    9.7942   -2.3450    0.0000 O   0  0  0  0  0  0  0  0  0  0  0  0
    8.9282   -4.8450    0.0000 O   0  0  0  0  0  0  0  0  0  0  0  0
   10.6603    1.1550    0.0000 O   0  0  0  0  0  0  0  0  0  0  0  0
    9.7942   -3.3450    0.0000 O   0  0  0  0  0  0  0  0  0  0  0  0
    8.9282    1.1550    0.0000 O   0  0  0  0  0  0  0  0  0  0  0  0
    5.4641   -0.8450    0.0000 N   0  0  0  0  0  0  0  0  0  0  0  0
    3.7320   -3.8450    0.0000 N   0  0  0  0  0  0  0  0  0  0  0  0
    3.7320    1.1550    0.0000 N   0  0  0  0  0  0  0  0  0  0  0  0
    7.1962   -1.8450    0.0000 N   0  0  0  0  0  0  0  0  0  0  0  0
    2.8660    2.6550    0.0000 N   0  0  0  0  0  0  0  0  0  0  0  0
    8.9282   -0.8450    0.0000 N   0  0  0  0  0  0  0  0  0  0  0  0
    5.4641   -1.8450    0.0000 C   0  0  1  0  0  0  0  0  0  0  0  0
    6.3301   -0.3450    0.0000 C   0  0  0  0  0  0  0  0  0  0  0  0
    4.5981    0.6550    0.0000 C   0  0  3  0  0  0  0  0  0  0  0  0
    6.3301    0.6550    0.0000 C   0  0  0  0  0  0  0  0  0  0  0  0
    5.4641    1.1550    0.0000 C   0  0  0  0  0  0  0  0  0  0  0  0
    4.5981   -2.3450    0.0000 C   0  0  0  0  0  0  0  0  0  0  0  0
    4.5981   -0.3450    0.0000 C   0  0  0  0  0  0  0  0  0  0  0  0
    2.8185   -3.4383    0.0000 C   0  0  0  0  0  0  0  0  0  0  0  0
    3.6275   -4.8395    0.0000 C   0  0  0  0  0  0  0  0  0  0  0  0
    2.1494   -4.1814    0.0000 C   0  0  0  0  0  0  0  0  0  0  0  0
    2.6494   -5.0474    0.0000 C   0  0  0  0  0  0  0  0  0  0  0  0
    4.5981   -3.3450    0.0000 C   0  0  0  0  0  0  0  0  0  0  0  0
    6.3301   -2.3450    0.0000 C   0  0  0  0  0  0  0  0  0  0  0  0
    8.0622   -2.3450    0.0000 C   0  0  1  0  0  0  0  0  0  0  0  0
    3.7320    2.1550    0.0000 C   0  0  0  0  0  0  0  0  0  0  0  0
    2.8660    3.6550    0.0000 C   0  0  0  0  0  0  0  0  0  0  0  0
    8.0622   -3.3450    0.0000 C   0  0  0  0  0  0  0  0  0  0  0  0
    8.9282   -1.8450    0.0000 C   0  0  0  0  0  0  0  0  0  0  0  0
    9.7942   -0.3450    0.0000 C   0  0  1  0  0  0  0  0  0  0  0  0
   10.6603   -0.8450    0.0000 C   0  0  0  0  0  0  0  0  0  0  0  0
    2.0000    4.1550    0.0000 C   0  0  0  0  0  0  0  0  0  0  0  0
    3.7320    4.1550    0.0000 C   0  0  0  0  0  0  0  0  0  0  0  0
   11.5263   -0.3450    0.0000 C   0  0  0  0  0  0  0  0  0  0  0  0
    8.9282   -3.8450    0.0000 C   0  0  0  0  0  0  0  0  0  0  0  0
   12.3923   -0.8450    0.0000 C   0  0  0  0  0  0  0  0  0  0  0  0
   11.5263    0.6550    0.0000 C   0  0  0  0  0  0  0  0  0  0  0  0
    2.0000    5.1550    0.0000 C   0  0  0  0  0  0  0  0  0  0  0  0
    3.7320    5.1550    0.0000 C   0  0  0  0  0  0  0  0  0  0  0  0
    9.7942    0.6550    0.0000 C   0  0  0  0  0  0  0  0  0  0  0  0
    5.4641   -2.4650    0.0000 H   0  0  0  0  0  0  0  0  0  0  0  0
    6.5422   -0.9276    0.0000 H   0  0  0  0  0  0  0  0  0  0  0  0
    6.9407   -0.2373    0.0000 H   0  0  0  0  0  0  0  0  0  0  0  0
    4.5981    1.2750    0.0000 H   0  0  0  0  0  0  0  0  0  0  0  0
    6.9407    0.5473    0.0000 H   0  0  0  0  0  0  0  0  0  0  0  0
    6.5422    1.2376    0.0000 H   0  0  0  0  0  0  0  0  0  0  0  0
    5.8626    1.6300    0.0000 H   0  0  0  0  0  0  0  0  0  0  0  0
    5.0656    1.6300    0.0000 H   0  0  0  0  0  0  0  0  0  0  0  0
    4.3860   -1.7624    0.0000 H   0  0  0  0  0  0  0  0  0  0  0  0
    3.9875   -2.4527    0.0000 H   0  0  0  0  0  0  0  0  0  0  0  0
    3.1285   -2.9013    0.0000 H   0  0  0  0  0  0  0  0  0  0  0  0
    2.3169   -3.0738    0.0000 H   0  0  0  0  0  0  0  0  0  0  0  0
    3.6923   -5.4561    0.0000 H   0  0  0  0  0  0  0  0  0  0  0  0
    4.2475   -4.8395    0.0000 H   0  0  0  0  0  0  0  0  0  0  0  0
    1.7345   -3.7207    0.0000 H   0  0  0  0  0  0  0  0  0  0  0  0
    1.6478   -4.5458    0.0000 H   0  0  0  0  0  0  0  0  0  0  0  0
    2.0830   -5.2996    0.0000 H   0  0  0  0  0  0  0  0  0  0  0  0
    2.8410   -5.6371    0.0000 H   0  0  0  0  0  0  0  0  0  0  0  0
    3.1951    0.8450    0.0000 H   0  0  0  0  0  0  0  0  0  0  0  0
    7.1962   -1.2250    0.0000 H   0  0  0  0  0  0  0  0  0  0  0  0
    8.0622   -1.7250    0.0000 H   0  0  0  0  0  0  0  0  0  0  0  0
    3.4030    3.3450    0.0000 H   0  0  0  0  0  0  0  0  0  0  0  0
    7.4516   -3.2373    0.0000 H   0  0  0  0  0  0  0  0  0  0  0  0
    7.8501   -3.9276    0.0000 H   0  0  0  0  0  0  0  0  0  0  0  0
    2.3291    2.3450    0.0000 H   0  0  0  0  0  0  0  0  0  0  0  0
    9.2573   -0.0350    0.0000 H   0  0  0  0  0  0  0  0  0  0  0  0
   10.2617   -1.3200    0.0000 H   0  0  0  0  0  0  0  0  0  0  0  0
   11.0588   -1.3200    0.0000 H   0  0  0  0  0  0  0  0  0  0  0  0
    8.3913   -0.5350    0.0000 H   0  0  0  0  0  0  0  0  0  0  0  0
   12.0632   -0.0350    0.0000 H   0  0  0  0  0  0  0  0  0  0  0  0
    1.3894    4.2627    0.0000 H   0  0  0  0  0  0  0  0  0  0  0  0
    1.7880    3.5724    0.0000 H   0  0  0  0  0  0  0  0  0  0  0  0
    3.9441    3.5724    0.0000 H   0  0  0  0  0  0  0  0  0  0  0  0
    4.3426    4.2627    0.0000 H   0  0  0  0  0  0  0  0  0  0  0  0
   12.0823   -1.3819    0.0000 H   0  0  0  0  0  0  0  0  0  0  0  0
   12.9292   -1.1550    0.0000 H   0  0  0  0  0  0  0  0  0  0  0  0
   12.7023   -0.3081    0.0000 H   0  0  0  0  0  0  0  0  0  0  0  0
   12.1463    0.6550    0.0000 H   0  0  0  0  0  0  0  0  0  0  0  0
   11.5263    1.2750    0.0000 H   0  0  0  0  0  0  0  0  0  0  0  0
   10.9063    0.6550    0.0000 H   0  0  0  0  0  0  0  0  0  0  0  0
    2.6200    5.1550    0.0000 H   0  0  0  0  0  0  0  0  0  0  0  0
    2.0000    5.7750    0.0000 H   0  0  0  0  0  0  0  0  0  0  0  0
    1.3800    5.1550    0.0000 H   0  0  0  0  0  0  0  0  0  0  0  0
    4.3520    5.1550    0.0000 H   0  0  0  0  0  0  0  0  0  0  0  0
    3.7320    5.7750    0.0000 H   0  0  0  0  0  0  0  0  0  0  0  0
    3.1120    5.1550    0.0000 H   0  0  0  0  0  0  0  0  0  0  0  0
    9.4651   -5.1550    0.0000 H   0  0  0  0  0  0  0  0  0  0  0  0
   10.6603    1.7750    0.0000 H   0  0  0  0  0  0  0  0  0  0  0  0
  1 22  2  0  0  0  0
  2 27  2  0  0  0  0
  3 28  2  0  0  0  0
  4 30  2  0  0  0  0
  5 33  2  0  0  0  0
  6 39  1  0  0  0  0
  6 91  1  0  0  0  0
  7 44  1  0  0  0  0
  7 92  1  0  0  0  0
  8 39  2  0  0  0  0
  9 44  2  0  0  0  0
 10 16  1  0  0  0  0
 10 17  1  0  0  0  0
 10 22  1  0  0  0  0
 11 23  1  0  0  0  0
 11 24  1  0  0  0  0
 11 27  1  0  0  0  0
 12 18  1  0  0  0  0
 12 30  1  0  0  0  0
 12 63  1  0  0  0  0
 13 28  1  0  0  0  0
 29 13  1  6  0  0  0
 13 64  1  0  0  0  0
 14 30  1  0  0  0  0
 14 31  1  0  0  0  0
 14 69  1  0  0  0  0
 15 33  1  0  0  0  0
 34 15  1  6  0  0  0
 15 73  1  0  0  0  0
 16 21  1  6  0  0  0
 16 28  1  0  0  0  0
 16 45  1  0  0  0  0
 17 19  1  0  0  0  0
 17 46  1  0  0  0  0
 17 47  1  0  0  0  0
 18 20  1  0  0  0  0
 18 22  1  0  0  0  0
 18 48  1  0  0  0  0
 19 20  1  0  0  0  0
 19 49  1  0  0  0  0
 19 50  1  0  0  0  0
 20 51  1  0  0  0  0
 20 52  1  0  0  0  0
 21 27  1  0  0  0  0
 21 53  1  0  0  0  0
 21 54  1  0  0  0  0
 23 25  1  0  0  0  0
 23 55  1  0  0  0  0
 23 56  1  0  0  0  0
 24 26  1  0  0  0  0
 24 57  1  0  0  0  0
 24 58  1  0  0  0  0
 25 26  1  0  0  0  0
 25 59  1  0  0  0  0
 25 60  1  0  0  0  0
 26 61  1  0  0  0  0
 26 62  1  0  0  0  0
 29 32  1  0  0  0  0
 29 33  1  0  0  0  0
 29 65  1  0  0  0  0
 31 36  1  0  0  0  0
 31 37  1  0  0  0  0
 31 66  1  0  0  0  0
 32 39  1  0  0  0  0
 32 67  1  0  0  0  0
 32 68  1  0  0  0  0
 34 35  1  0  0  0  0
 34 44  1  0  0  0  0
 34 70  1  0  0  0  0
 35 38  1  0  0  0  0
 35 71  1  0  0  0  0
 35 72  1  0  0  0  0
 36 42  1  0  0  0  0
 36 75  1  0  0  0  0
 36 76  1  0  0  0  0
 37 43  1  0  0  0  0
 37 77  1  0  0  0  0
 37 78  1  0  0  0  0
 38 40  1  0  0  0  0
 38 41  1  0  0  0  0
 38 74  1  0  0  0  0
 40 79  1  0  0  0  0
 40 80  1  0  0  0  0
 40 81  1  0  0  0  0
 41 82  1  0  0  0  0
 41 83  1  0  0  0  0
 41 84  1  0  0  0  0
 42 85  1  0  0  0  0
 42 86  1  0  0  0  0
 42 87  1  0  0  0  0
 43 88  1  0  0  0  0
 43 89  1  0  0  0  0
 43 90  1  0  0  0  0
M  END
> <PUBCHEM_COMPOUND_CID>
515260
> <PUBCHEM_COMPOUND_CANONICALIZED>
1
> <PUBCHEM_CACTVS_COMPLEXITY>
1060
> <PUBCHEM_CACTVS_HBOND_ACCEPTOR>
9
> <PUBCHEM_CACTVS_HBOND_DONOR>
6
> <PUBCHEM_CACTVS_ROTATABLE_BOND>
16
> <PUBCHEM_CACTVS_SUBSKEYS>
AAADcfB7vAAAAAAAAAAAAAAAAAAAAWAAAAAsAAAAAAAAAAAAAAAAHgAQCAAADSjBgAQDCAPAAgAIAAGQGAAAAAAAAAAAAIGIAACCQBoAwCAUQAAOFgKQAAC/AQAMAAAAAAAAAAAAAAAAAAAAAAAAAAAAAA==
> <PUBCHEM_IUPAC_OPENEYE_NAME>
(2S)-2-[[(2S)-3-carboxy-2-[[(2S)-2-[3-(1-ethylpropylcarbamoylamino)-2-oxo-1-piperidyl]-4-oxo-4-pyrrolidin-1-yl-butanoyl]amino]propanoyl]amino]-4-methyl-pentanoic acid
> <PUBCHEM_IUPAC_CAS_NAME>
(2S)-2-[[(2S)-3-carboxy-2-[[(2S)-1,4-dioxo-2-[2-oxo-3-[[oxo-(pentan-3-ylamino)methyl]amino]-1-piperidinyl]-4-(1-pyrrolidinyl)butyl]amino]-1-oxopropyl]amino]-4-methylpentanoic acid
> <PUBCHEM_IUPAC_NAME_MARKUP>
(2<I>S</I>)-2-[[(2<I>S</I>)-3-carboxy-2-[[(2<I>S</I>)-4-oxo-2-[2-oxo-3-(pentan-3-ylcarbamoylamino)piperidin-1-yl]-4-pyrrolidin-1-ylbutanoyl]amino]propanoyl]amino]-4-methylpentanoic acid
> <PUBCHEM_IUPAC_NAME>
(2S)-2-[[(2S)-3-carboxy-2-[[(2S)-4-oxo-2-[2-oxo-3-(pentan-3-ylcarbamoylamino)piperidin-1-yl]-4-pyrrolidin-1-ylbutanoyl]amino]propanoyl]amino]-4-methylpentanoic acid
> <PUBCHEM_IUPAC_SYSTEMATIC_NAME>
(2S)-4-methyl-2-[[(2S)-4-oxidanyl-4-oxidanylidene-2-[[(2S)-4-oxidanylidene-2-[2-oxidanylidene-3-(pentan-3-ylcarbamoylamino)piperidin-1-yl]-4-pyrrolidin-1-yl-butanoyl]amino]butanoyl]amino]pentanoic acid
> <PUBCHEM_IUPAC_TRADITIONAL_NAME>
(2S)-2-[[(2S)-3-carboxy-2-[[(2S)-2-[3-(1-ethylpropylcarbamoylamino)-2-keto-piperidino]-4-keto-4-pyrrolidino-butanoyl]amino]propanoyl]amino]-4-methyl-valeric acid
> <PUBCHEM_IUPAC_INCHI>
InChI=1S/C29H48N6O9/c1-5-18(6-2)30-29(44)33-19-10-9-13-35(27(19)41)22(16-23(36)34-11-7-8-12-34)26(40)31-20(15-24(37)38)25(39)32-21(28(42)43)14-17(3)4/h17-22H,5-16H2,1-4H3,(H,31,40)(H,32,39)(H,37,38)(H,42,43)(H2,30,33,44)/t19?,20-,21-,22-/m0/s1
> <PUBCHEM_IUPAC_INCHIKEY>
MDTBEWVYKFAVOG-JTGDWONASA-N
> <PUBCHEM_XLOGP3_AA>
0.8
> <PUBCHEM_EXACT_MASS>
624.34827713
> <PUBCHEM_MOLECULAR_FORMULA>
C29H48N6O9
> <PUBCHEM_MOLECULAR_WEIGHT>
624.7
> <PUBCHEM_OPENEYE_CAN_SMILES>
CCC(CC)NC(=O)NC1CCCN(C1=O)C(CC(=O)N2CCCC2)C(=O)NC(CC(=O)O)C(=O)NC(CC(C)C)C(=O)O
> <PUBCHEM_OPENEYE_ISO_SMILES>
CCC(CC)NC(=O)NC1CCCN(C1=O)[C@@H](CC(=O)N2CCCC2)C(=O)N[C@@H](CC(=O)O)C(=O)N[C@@H](CC(C)C)C(=O)O
> <PUBCHEM_CACTVS_TPSA>
215
> <PUBCHEM_MONOISOTOPIC_WEIGHT>
624.34827713
> <PUBCHEM_TOTAL_CHARGE>
0
> <PUBCHEM_HEAVY_ATOM_COUNT>
44
> <PUBCHEM_ATOM_DEF_STEREO_COUNT>
3
> <PUBCHEM_ATOM_UDEF_STEREO_COUNT>
1
> <PUBCHEM_BOND_DEF_STEREO_COUNT>
0
> <PUBCHEM_BOND_UDEF_STEREO_COUNT>
0
> <PUBCHEM_ISOTOPIC_ATOM_COUNT>
0
> <PUBCHEM_COMPONENT_COUNT>
1
> <PUBCHEM_CACTVS_TAUTO_COUNT>
-1
> <PUBCHEM_COORDINATE_TYPE>
1
5
255
> <PUBCHEM_BONDANNOTATIONS>
18  12  3
29  13  6
34  15  6
16  21  6
$$$$
