515296
  -OEChem-10302200282D
117117  0     1  0  0  0  0  0999 V2000
    2.3644   -0.5025    0.0000 O   0  0  0  0  0  0  0  0  0  0  0  0
    3.2544    0.5965    0.0000 O   0  0  0  0  0  0  0  0  0  0  0  0
    6.5828   -0.9813    0.0000 O   0  0  0  0  0  0  0  0  0  0  0  0
    6.6874    0.0132    0.0000 O   0  0  0  0  0  0  0  0  0  0  0  0
    7.6009    0.4199    0.0000 O   0  0  0  0  0  0  0  0  0  0  0  0
    6.1919    3.5845    0.0000 O   0  0  0  0  0  0  0  0  0  0  0  0
   10.4461    2.6346    0.0000 O   0  0  0  0  0  0  0  0  0  0  0  0
    4.9648    0.1942    0.0000 N   0  0  0  0  0  0  0  0  0  0  0  0
    5.9113   -2.3584    0.0000 N   0  0  0  0  0  0  0  0  0  0  0  0
    9.4280    1.2334    0.0000 N   0  0  0  0  0  0  0  0  0  0  0  0
   11.1506    1.0523    0.0000 N   0  0  0  0  0  0  0  0  0  0  0  0
    3.9467   -1.2070    0.0000 C   0  0  0  0  0  0  0  0  0  0  0  0
    3.1377   -1.7948    0.0000 C   0  0  0  0  0  0  0  0  0  0  0  0
    4.7558   -1.7948    0.0000 C   0  0  0  0  0  0  0  0  0  0  0  0
    4.8603   -0.8003    0.0000 C   0  0  1  0  0  0  0  0  0  0  0  0
    3.4467   -2.7459    0.0000 C   0  0  0  0  0  0  0  0  0  0  0  0
    4.4467   -2.7459    0.0000 C   0  0  0  0  0  0  0  0  0  0  0  0
    3.3590   -0.3980    0.0000 C   0  0  0  0  0  0  0  0  0  0  0  0
    5.6693   -1.3881    0.0000 C   0  0  0  0  0  0  0  0  0  0  0  0
    6.8725   -2.6340    0.0000 C   0  0  1  0  0  0  0  0  0  0  0  0
    7.1144   -3.6043    0.0000 C   0  0  0  0  0  0  0  0  0  0  0  0
    5.8784    0.6010    0.0000 C   0  0  0  0  0  0  0  0  0  0  0  0
    5.9829    1.5955    0.0000 C   0  0  2  0  0  0  0  0  0  0  0  0
    7.5918   -1.9394    0.0000 C   0  0  0  0  0  0  0  0  0  0  0  0
    6.8964    2.0022    0.0000 C   0  0  0  0  0  0  0  0  0  0  0  0
    5.1739    2.1833    0.0000 C   0  0  0  0  0  0  0  0  0  0  0  0
    7.3563   -4.5746    0.0000 C   0  0  0  0  0  0  0  0  0  0  0  0
    8.0847   -3.3624    0.0000 C   0  0  0  0  0  0  0  0  0  0  0  0
    6.1442   -3.8462    0.0000 C   0  0  0  0  0  0  0  0  0  0  0  0
    8.6190    1.8212    0.0000 C   0  0  1  0  0  0  0  0  0  0  0  0
    8.7235    2.8157    0.0000 C   0  0  0  0  0  0  0  0  0  0  0  0
    7.7054    1.4144    0.0000 C   0  0  0  0  0  0  0  0  0  0  0  0
    8.5531   -2.2150    0.0000 C   0  0  0  0  0  0  0  0  0  0  0  0
    5.2784    3.1778    0.0000 C   0  0  0  0  0  0  0  0  0  0  0  0
    4.4694    3.7656    0.0000 C   0  0  0  0  0  0  0  0  0  0  0  0
    8.8280    3.8102    0.0000 C   0  0  0  0  0  0  0  0  0  0  0  0
    9.7180    2.7112    0.0000 C   0  0  0  0  0  0  0  0  0  0  0  0
    7.7290    2.9202    0.0000 C   0  0  0  0  0  0  0  0  0  0  0  0
    3.6604    4.3534    0.0000 C   0  0  0  0  0  0  0  0  0  0  0  0
    5.0572    4.5746    0.0000 C   0  0  0  0  0  0  0  0  0  0  0  0
    3.8816    2.9566    0.0000 C   0  0  0  0  0  0  0  0  0  0  0  0
   10.3416    1.6401    0.0000 C   0  0  0  0  0  0  0  0  0  0  0  0
   12.0641    1.4591    0.0000 C   0  0  0  0  0  0  0  0  0  0  0  0
   12.8731    0.8713    0.0000 C   0  0  0  0  0  0  0  0  0  0  0  0
   12.1686    2.4536    0.0000 C   0  0  0  0  0  0  0  0  0  0  0  0
   13.7867    1.2780    0.0000 C   0  0  0  0  0  0  0  0  0  0  0  0
   13.0822    2.8603    0.0000 C   0  0  0  0  0  0  0  0  0  0  0  0
   14.5957    0.6902    0.0000 C   0  0  0  0  0  0  0  0  0  0  0  0
   13.1867    3.8549    0.0000 C   0  0  0  0  0  0  0  0  0  0  0  0
    2.8277   -1.2579    0.0000 H   0  0  0  0  0  0  0  0  0  0  0  0
    2.5713   -2.0470    0.0000 H   0  0  0  0  0  0  0  0  0  0  0  0
    5.3222   -2.0470    0.0000 H   0  0  0  0  0  0  0  0  0  0  0  0
    5.0658   -1.2579    0.0000 H   0  0  0  0  0  0  0  0  0  0  0  0
    5.4267   -0.5481    0.0000 H   0  0  0  0  0  0  0  0  0  0  0  0
    2.8403   -2.8748    0.0000 H   0  0  0  0  0  0  0  0  0  0  0  0
    3.5115   -3.3625    0.0000 H   0  0  0  0  0  0  0  0  0  0  0  0
    4.3819   -3.3625    0.0000 H   0  0  0  0  0  0  0  0  0  0  0  0
    5.0532   -2.8748    0.0000 H   0  0  0  0  0  0  0  0  0  0  0  0
    4.4632    0.5587    0.0000 H   0  0  0  0  0  0  0  0  0  0  0  0
    6.4265   -3.0647    0.0000 H   0  0  0  0  0  0  0  0  0  0  0  0
    5.4653   -2.7891    0.0000 H   0  0  0  0  0  0  0  0  0  0  0  0
    6.0477    2.2121    0.0000 H   0  0  0  0  0  0  0  0  0  0  0  0
    7.8636   -1.3821    0.0000 H   0  0  0  0  0  0  0  0  0  0  0  0
    7.0902   -1.5749    0.0000 H   0  0  0  0  0  0  0  0  0  0  0  0
    2.0000   -0.0009    0.0000 H   0  0  0  0  0  0  0  0  0  0  0  0
    7.3424    2.4329    0.0000 H   0  0  0  0  0  0  0  0  0  0  0  0
    6.5497    2.5162    0.0000 H   0  0  0  0  0  0  0  0  0  0  0  0
    4.5779    2.3542    0.0000 H   0  0  0  0  0  0  0  0  0  0  0  0
    4.9021    1.6260    0.0000 H   0  0  0  0  0  0  0  0  0  0  0  0
    6.7547   -4.7246    0.0000 H   0  0  0  0  0  0  0  0  0  0  0  0
    7.5063   -5.1762    0.0000 H   0  0  0  0  0  0  0  0  0  0  0  0
    7.9579   -4.4246    0.0000 H   0  0  0  0  0  0  0  0  0  0  0  0
    8.2347   -3.9640    0.0000 H   0  0  0  0  0  0  0  0  0  0  0  0
    8.6863   -3.2124    0.0000 H   0  0  0  0  0  0  0  0  0  0  0  0
    7.9347   -2.7608    0.0000 H   0  0  0  0  0  0  0  0  0  0  0  0
    5.9942   -3.2446    0.0000 H   0  0  0  0  0  0  0  0  0  0  0  0
    5.5426   -3.9962    0.0000 H   0  0  0  0  0  0  0  0  0  0  0  0
    6.2942   -4.4478    0.0000 H   0  0  0  0  0  0  0  0  0  0  0  0
    8.5542    1.2046    0.0000 H   0  0  0  0  0  0  0  0  0  0  0  0
    8.3822   -2.8110    0.0000 H   0  0  0  0  0  0  0  0  0  0  0  0
    9.1491   -2.3859    0.0000 H   0  0  0  0  0  0  0  0  0  0  0  0
    8.7240   -1.6190    0.0000 H   0  0  0  0  0  0  0  0  0  0  0  0
    9.4446    3.7454    0.0000 H   0  0  0  0  0  0  0  0  0  0  0  0
    8.8928    4.4268    0.0000 H   0  0  0  0  0  0  0  0  0  0  0  0
    8.2114    3.8750    0.0000 H   0  0  0  0  0  0  0  0  0  0  0  0
    9.6532    2.0946    0.0000 H   0  0  0  0  0  0  0  0  0  0  0  0
   10.3346    2.6464    0.0000 H   0  0  0  0  0  0  0  0  0  0  0  0
    9.7828    3.3278    0.0000 H   0  0  0  0  0  0  0  0  0  0  0  0
    7.7938    3.5368    0.0000 H   0  0  0  0  0  0  0  0  0  0  0  0
    7.1124    2.9850    0.0000 H   0  0  0  0  0  0  0  0  0  0  0  0
    7.6642    2.3036    0.0000 H   0  0  0  0  0  0  0  0  0  0  0  0
    9.3632    0.6168    0.0000 H   0  0  0  0  0  0  0  0  0  0  0  0
    4.0248    4.8550    0.0000 H   0  0  0  0  0  0  0  0  0  0  0  0
    3.1588    4.7178    0.0000 H   0  0  0  0  0  0  0  0  0  0  0  0
    3.2959    3.8518    0.0000 H   0  0  0  0  0  0  0  0  0  0  0  0
    5.5588    4.2102    0.0000 H   0  0  0  0  0  0  0  0  0  0  0  0
    5.4216    5.0762    0.0000 H   0  0  0  0  0  0  0  0  0  0  0  0
    4.5556    4.9390    0.0000 H   0  0  0  0  0  0  0  0  0  0  0  0
    3.3800    3.3210    0.0000 H   0  0  0  0  0  0  0  0  0  0  0  0
    3.5172    2.4550    0.0000 H   0  0  0  0  0  0  0  0  0  0  0  0
    4.3832    2.5921    0.0000 H   0  0  0  0  0  0  0  0  0  0  0  0
   11.9993    0.8425    0.0000 H   0  0  0  0  0  0  0  0  0  0  0  0
   11.0858    0.4357    0.0000 H   0  0  0  0  0  0  0  0  0  0  0  0
   12.4271    0.4406    0.0000 H   0  0  0  0  0  0  0  0  0  0  0  0
   13.2198    0.3573    0.0000 H   0  0  0  0  0  0  0  0  0  0  0  0
   12.0187    3.0552    0.0000 H   0  0  0  0  0  0  0  0  0  0  0  0
   11.5502    2.4104    0.0000 H   0  0  0  0  0  0  0  0  0  0  0  0
   14.2327    1.7087    0.0000 H   0  0  0  0  0  0  0  0  0  0  0  0
   13.4400    1.7920    0.0000 H   0  0  0  0  0  0  0  0  0  0  0  0
   13.2322    2.2588    0.0000 H   0  0  0  0  0  0  0  0  0  0  0  0
   13.7007    2.9036    0.0000 H   0  0  0  0  0  0  0  0  0  0  0  0
   14.2313    0.1887    0.0000 H   0  0  0  0  0  0  0  0  0  0  0  0
   15.0973    0.3258    0.0000 H   0  0  0  0  0  0  0  0  0  0  0  0
   14.9601    1.1918    0.0000 H   0  0  0  0  0  0  0  0  0  0  0  0
   13.8033    3.7900    0.0000 H   0  0  0  0  0  0  0  0  0  0  0  0
   13.2515    4.4715    0.0000 H   0  0  0  0  0  0  0  0  0  0  0  0
   12.5701    3.9197    0.0000 H   0  0  0  0  0  0  0  0  0  0  0  0
  1 18  1  0  0  0  0
  1 65  1  0  0  0  0
  2 18  2  0  0  0  0
  3 19  2  0  0  0  0
  4 22  2  0  0  0  0
  5 32  2  0  0  0  0
  6 34  2  0  0  0  0
  7 42  2  0  0  0  0
 15  8  1  6  0  0  0
  8 22  1  0  0  0  0
  8 59  1  0  0  0  0
  9 19  1  0  0  0  0
 20  9  1  6  0  0  0
  9 61  1  0  0  0  0
 30 10  1  6  0  0  0
 10 42  1  0  0  0  0
 10 92  1  0  0  0  0
 11 42  1  0  0  0  0
 11 43  1  0  0  0  0
 11103  1  0  0  0  0
 12 13  1  0  0  0  0
 12 14  1  0  0  0  0
 12 15  1  0  0  0  0
 12 18  1  0  0  0  0
 13 16  1  0  0  0  0
 13 50  1  0  0  0  0
 13 51  1  0  0  0  0
 14 17  1  0  0  0  0
 14 52  1  0  0  0  0
 14 53  1  0  0  0  0
 15 19  1  0  0  0  0
 15 54  1  0  0  0  0
 16 17  1  0  0  0  0
 16 55  1  0  0  0  0
 16 56  1  0  0  0  0
 17 57  1  0  0  0  0
 17 58  1  0  0  0  0
 20 21  1  0  0  0  0
 20 24  1  0  0  0  0
 20 60  1  0  0  0  0
 21 27  1  0  0  0  0
 21 28  1  0  0  0  0
 21 29  1  0  0  0  0
 22 23  1  0  0  0  0
 23 25  1  0  0  0  0
 23 26  1  1  0  0  0
 23 62  1  0  0  0  0
 24 33  1  0  0  0  0
 24 63  1  0  0  0  0
 24 64  1  0  0  0  0
 25 32  1  0  0  0  0
 25 66  1  0  0  0  0
 25 67  1  0  0  0  0
 26 34  1  0  0  0  0
 26 68  1  0  0  0  0
 26 69  1  0  0  0  0
 27 70  1  0  0  0  0
 27 71  1  0  0  0  0
 27 72  1  0  0  0  0
 28 73  1  0  0  0  0
 28 74  1  0  0  0  0
 28 75  1  0  0  0  0
 29 76  1  0  0  0  0
 29 77  1  0  0  0  0
 29 78  1  0  0  0  0
 30 31  1  0  0  0  0
 30 32  1  0  0  0  0
 30 79  1  0  0  0  0
 31 36  1  0  0  0  0
 31 37  1  0  0  0  0
 31 38  1  0  0  0  0
 33 80  1  0  0  0  0
 33 81  1  0  0  0  0
 33 82  1  0  0  0  0
 34 35  1  0  0  0  0
 35 39  1  0  0  0  0
 35 40  1  0  0  0  0
 35 41  1  0  0  0  0
 36 83  1  0  0  0  0
 36 84  1  0  0  0  0
 36 85  1  0  0  0  0
 37 86  1  0  0  0  0
 37 87  1  0  0  0  0
 37 88  1  0  0  0  0
 38 89  1  0  0  0  0
 38 90  1  0  0  0  0
 38 91  1  0  0  0  0
 39 93  1  0  0  0  0
 39 94  1  0  0  0  0
 39 95  1  0  0  0  0
 40 96  1  0  0  0  0
 40 97  1  0  0  0  0
 40 98  1  0  0  0  0
 41 99  1  0  0  0  0
 41100  1  0  0  0  0
 41101  1  0  0  0  0
 43 44  1  0  0  0  0
 43 45  1  0  0  0  0
 43102  1  0  0  0  0
 44 46  1  0  0  0  0
 44104  1  0  0  0  0
 44105  1  0  0  0  0
 45 47  1  0  0  0  0
 45106  1  0  0  0  0
 45107  1  0  0  0  0
 46 48  1  0  0  0  0
 46108  1  0  0  0  0
 46109  1  0  0  0  0
 47 49  1  0  0  0  0
 47110  1  0  0  0  0
 47111  1  0  0  0  0
 48112  1  0  0  0  0
 48113  1  0  0  0  0
 48114  1  0  0  0  0
 49115  1  0  0  0  0
 49116  1  0  0  0  0
 49117  1  0  0  0  0
M  END
> <PUBCHEM_COMPOUND_CID>
515296
> <PUBCHEM_COMPOUND_CANONICALIZED>
1
> <PUBCHEM_CACTVS_COMPLEXITY>
1150
> <PUBCHEM_CACTVS_HBOND_ACCEPTOR>
7
> <PUBCHEM_CACTVS_HBOND_DONOR>
5
> <PUBCHEM_CACTVS_ROTATABLE_BOND>
21
> <PUBCHEM_CACTVS_SUBSKEYS>
AAADcfB/uAAAAAAAAAAAAAAAAAAAAYAAAAAAAAAAAAAAAAAAAAAAHgAQCAAADyzBgAQDCALAAgAIAIGQGAAAAAAAAAAAAIGIAACAQBoAgCAUQAAOFgKAAAG/y8C/AAAAAAAAAAAAAAAAAAAAAAAAAAAAAA==
> <PUBCHEM_IUPAC_OPENEYE_NAME>
1-[(1S)-1-[[(2S,5S)-2-(3,3-dimethyl-2-oxo-butyl)-6,6-dimethyl-4-oxo-5-(1-propylbutylcarbamoylamino)heptanoyl]amino]-2-[[(1R)-1-ethyl-2,2-dimethyl-propyl]amino]-2-oxo-ethyl]cyclopentanecarboxylic acid
> <PUBCHEM_IUPAC_CAS_NAME>
1-[(1S)-1-[[(2S,5S)-2-(3,3-dimethyl-2-oxobutyl)-5-[[(heptan-4-ylamino)-oxomethyl]amino]-6,6-dimethyl-1,4-dioxoheptyl]amino]-2-[[(3R)-2,2-dimethylpentan-3-yl]amino]-2-oxoethyl]-1-cyclopentanecarboxylic acid
> <PUBCHEM_IUPAC_NAME_MARKUP>
1-[(1<I>S</I>)-1-[[(2<I>S</I>,5<I>S</I>)-2-(3,3-dimethyl-2-oxobutyl)-5-(heptan-4-ylcarbamoylamino)-6,6-dimethyl-4-oxoheptanoyl]amino]-2-[[(3<I>R</I>)-2,2-dimethylpentan-3-yl]amino]-2-oxoethyl]cyclopentane-1-carboxylic acid
> <PUBCHEM_IUPAC_NAME>
1-[(1S)-1-[[(2S,5S)-2-(3,3-dimethyl-2-oxobutyl)-5-(heptan-4-ylcarbamoylamino)-6,6-dimethyl-4-oxoheptanoyl]amino]-2-[[(3R)-2,2-dimethylpentan-3-yl]amino]-2-oxoethyl]cyclopentane-1-carboxylic acid
> <PUBCHEM_IUPAC_SYSTEMATIC_NAME>
1-[(1S)-1-[[(2S,5S)-2-(3,3-dimethyl-2-oxidanylidene-butyl)-5-(heptan-4-ylcarbamoylamino)-6,6-dimethyl-4-oxidanylidene-heptanoyl]amino]-2-[[(3R)-2,2-dimethylpentan-3-yl]amino]-2-oxidanylidene-ethyl]cyclopentane-1-carboxylic acid
> <PUBCHEM_IUPAC_TRADITIONAL_NAME>
1-[(1S)-2-[[(1R)-1-ethyl-2,2-dimethyl-propyl]amino]-2-keto-1-[[(2S,5S)-4-keto-2-(2-keto-3,3-dimethyl-butyl)-6,6-dimethyl-5-(1-propylbutylcarbamoylamino)heptanoyl]amino]ethyl]cyclopentanecarboxylic acid
> <PUBCHEM_IUPAC_INCHI>
InChI=1S/C38H68N4O7/c1-13-18-25(19-14-2)39-34(49)42-29(37(10,11)12)26(43)22-24(23-28(44)36(7,8)9)31(45)41-30(38(33(47)48)20-16-17-21-38)32(46)40-27(15-3)35(4,5)6/h24-25,27,29-30H,13-23H2,1-12H3,(H,40,46)(H,41,45)(H,47,48)(H2,39,42,49)/t24-,27-,29-,30-/m1/s1
> <PUBCHEM_IUPAC_INCHIKEY>
JRRXFOZZAHMCGZ-BRDSLWTGSA-N
> <PUBCHEM_XLOGP3_AA>
6.7
> <PUBCHEM_EXACT_MASS>
692.50880052
> <PUBCHEM_MOLECULAR_FORMULA>
C38H68N4O7
> <PUBCHEM_MOLECULAR_WEIGHT>
693.0
> <PUBCHEM_OPENEYE_CAN_SMILES>
CCCC(CCC)NC(=O)NC(C(=O)CC(CC(=O)C(C)(C)C)C(=O)NC(C(=O)NC(CC)C(C)(C)C)C1(CCCC1)C(=O)O)C(C)(C)C
> <PUBCHEM_OPENEYE_ISO_SMILES>
CCCC(CCC)NC(=O)N[C@H](C(=O)C[C@H](CC(=O)C(C)(C)C)C(=O)N[C@H](C(=O)N[C@H](CC)C(C)(C)C)C1(CCCC1)C(=O)O)C(C)(C)C
> <PUBCHEM_CACTVS_TPSA>
171
> <PUBCHEM_MONOISOTOPIC_WEIGHT>
692.50880052
> <PUBCHEM_TOTAL_CHARGE>
0
> <PUBCHEM_HEAVY_ATOM_COUNT>
49
> <PUBCHEM_ATOM_DEF_STEREO_COUNT>
4
> <PUBCHEM_ATOM_UDEF_STEREO_COUNT>
0
> <PUBCHEM_BOND_DEF_STEREO_COUNT>
0
> <PUBCHEM_BOND_UDEF_STEREO_COUNT>
0
> <PUBCHEM_ISOTOPIC_ATOM_COUNT>
0
> <PUBCHEM_COMPONENT_COUNT>
1
> <PUBCHEM_CACTVS_TAUTO_COUNT>
-1
> <PUBCHEM_COORDINATE_TYPE>
1
5
255
> <PUBCHEM_BONDANNOTATIONS>
30  10  6
23  26  5
15  8  6
20  9  6
$$$$
