515287
  -OEChem-10302200282D
 98 98  0     1  0  0  0  0  0999 V2000
    8.9282   -0.7694    0.0000 O   0  0  0  0  0  0  0  0  0  0  0  0
   10.6603    2.2306    0.0000 O   0  0  0  0  0  0  0  0  0  0  0  0
    8.0622   -0.2694    0.0000 O   0  0  0  0  0  0  0  0  0  0  0  0
   12.3923   -1.7694    0.0000 O   0  0  0  0  0  0  0  0  0  0  0  0
    4.5981    0.7306    0.0000 O   0  0  0  0  0  0  0  0  0  0  0  0
    5.4641   -1.7694    0.0000 O   0  0  0  0  0  0  0  0  0  0  0  0
    3.7320    4.2306    0.0000 O   0  0  0  0  0  0  0  0  0  0  0  0
    4.5981   -0.2694    0.0000 O   0  0  0  0  0  0  0  0  0  0  0  0
    5.4641    4.2306    0.0000 O   0  0  0  0  0  0  0  0  0  0  0  0
    9.7942    3.7306    0.0000 N   0  0  0  0  0  0  0  0  0  0  0  0
   10.6603   -1.7694    0.0000 N   0  0  0  0  0  0  0  0  0  0  0  0
    7.1962    1.2306    0.0000 N   0  0  0  0  0  0  0  0  0  0  0  0
   11.5263   -3.2694    0.0000 N   0  0  0  0  0  0  0  0  0  0  0  0
    5.4641    2.2306    0.0000 N   0  0  0  0  0  0  0  0  0  0  0  0
   11.5263   -0.2694    0.0000 C   0  0  0  0  0  0  0  0  0  0  0  0
   10.6603   -0.7694    0.0000 C   0  0  1  0  0  0  0  0  0  0  0  0
    8.9282    1.2306    0.0000 C   0  0  1  0  0  0  0  0  0  0  0  0
    9.7942    0.7306    0.0000 C   0  0  0  0  0  0  0  0  0  0  0  0
    9.7942   -0.2694    0.0000 C   0  0  0  0  0  0  0  0  0  0  0  0
    8.9282    2.2306    0.0000 C   0  0  0  0  0  0  0  0  0  0  0  0
   10.6032    4.3184    0.0000 C   0  0  0  0  0  0  0  0  0  0  0  0
    8.9852    4.3184    0.0000 C   0  0  0  0  0  0  0  0  0  0  0  0
   10.2942    5.2694    0.0000 C   0  0  0  0  0  0  0  0  0  0  0  0
    9.2942    5.2694    0.0000 C   0  0  0  0  0  0  0  0  0  0  0  0
   12.3923    0.2306    0.0000 C   0  0  0  0  0  0  0  0  0  0  0  0
   12.0263   -1.1354    0.0000 C   0  0  0  0  0  0  0  0  0  0  0  0
   11.0263    0.5966    0.0000 C   0  0  0  0  0  0  0  0  0  0  0  0
    9.7942    2.7306    0.0000 C   0  0  0  0  0  0  0  0  0  0  0  0
    8.0622    0.7306    0.0000 C   0  0  0  0  0  0  0  0  0  0  0  0
   11.5263   -2.2694    0.0000 C   0  0  0  0  0  0  0  0  0  0  0  0
    6.3301    0.7306    0.0000 C   0  0  1  0  0  0  0  0  0  0  0  0
   12.3923   -3.7694    0.0000 C   0  0  0  0  0  0  0  0  0  0  0  0
    6.3301   -0.2694    0.0000 C   0  0  0  0  0  0  0  0  0  0  0  0
    5.4641    1.2306    0.0000 C   0  0  0  0  0  0  0  0  0  0  0  0
    4.5981    2.7306    0.0000 C   0  0  1  0  0  0  0  0  0  0  0  0
   12.3923   -4.7694    0.0000 C   0  0  0  0  0  0  0  0  0  0  0  0
   13.2583   -3.2694    0.0000 C   0  0  0  0  0  0  0  0  0  0  0  0
    3.7320    2.2306    0.0000 C   0  0  0  0  0  0  0  0  0  0  0  0
    2.8660    2.7306    0.0000 C   0  0  0  0  0  0  0  0  0  0  0  0
   13.2583   -5.2694    0.0000 C   0  0  0  0  0  0  0  0  0  0  0  0
   14.1244   -3.7694    0.0000 C   0  0  0  0  0  0  0  0  0  0  0  0
    5.4641   -0.7694    0.0000 C   0  0  0  0  0  0  0  0  0  0  0  0
    2.0000    2.2306    0.0000 C   0  0  0  0  0  0  0  0  0  0  0  0
    2.8660    3.7306    0.0000 C   0  0  0  0  0  0  0  0  0  0  0  0
    4.5981    3.7306    0.0000 C   0  0  0  0  0  0  0  0  0  0  0  0
   11.1972   -1.0794    0.0000 H   0  0  0  0  0  0  0  0  0  0  0  0
    9.4651    1.5406    0.0000 H   0  0  0  0  0  0  0  0  0  0  0  0
   10.4048    0.6229    0.0000 H   0  0  0  0  0  0  0  0  0  0  0  0
   10.0063    1.3132    0.0000 H   0  0  0  0  0  0  0  0  0  0  0  0
    8.7162    2.8132    0.0000 H   0  0  0  0  0  0  0  0  0  0  0  0
    8.3176    2.1229    0.0000 H   0  0  0  0  0  0  0  0  0  0  0  0
   10.9132    3.7814    0.0000 H   0  0  0  0  0  0  0  0  0  0  0  0
   11.1696    4.5705    0.0000 H   0  0  0  0  0  0  0  0  0  0  0  0
    8.4188    4.5705    0.0000 H   0  0  0  0  0  0  0  0  0  0  0  0
    8.6752    3.7814    0.0000 H   0  0  0  0  0  0  0  0  0  0  0  0
   10.9007    5.3983    0.0000 H   0  0  0  0  0  0  0  0  0  0  0  0
   10.2294    5.8860    0.0000 H   0  0  0  0  0  0  0  0  0  0  0  0
    9.3590    5.8860    0.0000 H   0  0  0  0  0  0  0  0  0  0  0  0
    8.6878    5.3983    0.0000 H   0  0  0  0  0  0  0  0  0  0  0  0
   12.7023   -0.3064    0.0000 H   0  0  0  0  0  0  0  0  0  0  0  0
   12.9292    0.5406    0.0000 H   0  0  0  0  0  0  0  0  0  0  0  0
   12.0823    0.7675    0.0000 H   0  0  0  0  0  0  0  0  0  0  0  0
   11.4893   -1.4454    0.0000 H   0  0  0  0  0  0  0  0  0  0  0  0
   12.3363   -1.6724    0.0000 H   0  0  0  0  0  0  0  0  0  0  0  0
   12.5632   -0.8254    0.0000 H   0  0  0  0  0  0  0  0  0  0  0  0
   11.5632    0.9066    0.0000 H   0  0  0  0  0  0  0  0  0  0  0  0
   10.7163    1.1335    0.0000 H   0  0  0  0  0  0  0  0  0  0  0  0
   10.4893    0.2866    0.0000 H   0  0  0  0  0  0  0  0  0  0  0  0
   10.1233   -2.0794    0.0000 H   0  0  0  0  0  0  0  0  0  0  0  0
    7.1962    1.8506    0.0000 H   0  0  0  0  0  0  0  0  0  0  0  0
    6.8671    0.4206    0.0000 H   0  0  0  0  0  0  0  0  0  0  0  0
   11.8554   -4.0794    0.0000 H   0  0  0  0  0  0  0  0  0  0  0  0
   10.9893   -3.5794    0.0000 H   0  0  0  0  0  0  0  0  0  0  0  0
    6.5422   -0.8520    0.0000 H   0  0  0  0  0  0  0  0  0  0  0  0
    6.9407   -0.1618    0.0000 H   0  0  0  0  0  0  0  0  0  0  0  0
    4.5981    2.1106    0.0000 H   0  0  0  0  0  0  0  0  0  0  0  0
   11.7817   -4.6618    0.0000 H   0  0  0  0  0  0  0  0  0  0  0  0
   12.1803   -5.3520    0.0000 H   0  0  0  0  0  0  0  0  0  0  0  0
   13.6569   -2.7945    0.0000 H   0  0  0  0  0  0  0  0  0  0  0  0
   12.8598   -2.7945    0.0000 H   0  0  0  0  0  0  0  0  0  0  0  0
    3.3335    1.7556    0.0000 H   0  0  0  0  0  0  0  0  0  0  0  0
    4.1306    1.7556    0.0000 H   0  0  0  0  0  0  0  0  0  0  0  0
    2.8660    2.1106    0.0000 H   0  0  0  0  0  0  0  0  0  0  0  0
    6.0010    2.5406    0.0000 H   0  0  0  0  0  0  0  0  0  0  0  0
   12.9483   -5.8064    0.0000 H   0  0  0  0  0  0  0  0  0  0  0  0
   13.7953   -5.5794    0.0000 H   0  0  0  0  0  0  0  0  0  0  0  0
   13.5683   -4.7325    0.0000 H   0  0  0  0  0  0  0  0  0  0  0  0
   13.8144   -4.3064    0.0000 H   0  0  0  0  0  0  0  0  0  0  0  0
   14.6613   -4.0794    0.0000 H   0  0  0  0  0  0  0  0  0  0  0  0
   14.4344   -3.2325    0.0000 H   0  0  0  0  0  0  0  0  0  0  0  0
    1.6900    2.7675    0.0000 H   0  0  0  0  0  0  0  0  0  0  0  0
    1.4631    1.9206    0.0000 H   0  0  0  0  0  0  0  0  0  0  0  0
    2.3100    1.6936    0.0000 H   0  0  0  0  0  0  0  0  0  0  0  0
    3.4860    3.7306    0.0000 H   0  0  0  0  0  0  0  0  0  0  0  0
    2.8660    4.3506    0.0000 H   0  0  0  0  0  0  0  0  0  0  0  0
    2.2460    3.7306    0.0000 H   0  0  0  0  0  0  0  0  0  0  0  0
    4.9272   -2.0794    0.0000 H   0  0  0  0  0  0  0  0  0  0  0  0
    3.7320    4.8506    0.0000 H   0  0  0  0  0  0  0  0  0  0  0  0
  1 19  2  0  0  0  0
  2 28  2  0  0  0  0
  3 29  2  0  0  0  0
  4 30  2  0  0  0  0
  5 34  2  0  0  0  0
  6 42  1  0  0  0  0
  6 97  1  0  0  0  0
  7 45  1  0  0  0  0
  7 98  1  0  0  0  0
  8 42  2  0  0  0  0
  9 45  2  0  0  0  0
 10 21  1  0  0  0  0
 10 22  1  0  0  0  0
 10 28  1  0  0  0  0
 16 11  1  6  0  0  0
 11 30  1  0  0  0  0
 11 69  1  0  0  0  0
 12 29  1  0  0  0  0
 31 12  1  1  0  0  0
 12 70  1  0  0  0  0
 13 30  1  0  0  0  0
 13 32  1  0  0  0  0
 13 73  1  0  0  0  0
 14 34  1  0  0  0  0
 35 14  1  1  0  0  0
 14 84  1  0  0  0  0
 15 16  1  0  0  0  0
 15 25  1  0  0  0  0
 15 26  1  0  0  0  0
 15 27  1  0  0  0  0
 16 19  1  0  0  0  0
 16 46  1  0  0  0  0
 17 18  1  0  0  0  0
 17 20  1  6  0  0  0
 17 29  1  0  0  0  0
 17 47  1  0  0  0  0
 18 19  1  0  0  0  0
 18 48  1  0  0  0  0
 18 49  1  0  0  0  0
 20 28  1  0  0  0  0
 20 50  1  0  0  0  0
 20 51  1  0  0  0  0
 21 23  1  0  0  0  0
 21 52  1  0  0  0  0
 21 53  1  0  0  0  0
 22 24  1  0  0  0  0
 22 54  1  0  0  0  0
 22 55  1  0  0  0  0
 23 24  1  0  0  0  0
 23 56  1  0  0  0  0
 23 57  1  0  0  0  0
 24 58  1  0  0  0  0
 24 59  1  0  0  0  0
 25 60  1  0  0  0  0
 25 61  1  0  0  0  0
 25 62  1  0  0  0  0
 26 63  1  0  0  0  0
 26 64  1  0  0  0  0
 26 65  1  0  0  0  0
 27 66  1  0  0  0  0
 27 67  1  0  0  0  0
 27 68  1  0  0  0  0
 31 33  1  0  0  0  0
 31 34  1  0  0  0  0
 31 71  1  0  0  0  0
 32 36  1  0  0  0  0
 32 37  1  0  0  0  0
 32 72  1  0  0  0  0
 33 42  1  0  0  0  0
 33 74  1  0  0  0  0
 33 75  1  0  0  0  0
 35 38  1  0  0  0  0
 35 45  1  0  0  0  0
 35 76  1  0  0  0  0
 36 40  1  0  0  0  0
 36 77  1  0  0  0  0
 36 78  1  0  0  0  0
 37 41  1  0  0  0  0
 37 79  1  0  0  0  0
 37 80  1  0  0  0  0
 38 39  1  0  0  0  0
 38 81  1  0  0  0  0
 38 82  1  0  0  0  0
 39 43  1  0  0  0  0
 39 44  1  0  0  0  0
 39 83  1  0  0  0  0
 40 85  1  0  0  0  0
 40 86  1  0  0  0  0
 40 87  1  0  0  0  0
 41 88  1  0  0  0  0
 41 89  1  0  0  0  0
 41 90  1  0  0  0  0
 43 91  1  0  0  0  0
 43 92  1  0  0  0  0
 43 93  1  0  0  0  0
 44 94  1  0  0  0  0
 44 95  1  0  0  0  0
 44 96  1  0  0  0  0
M  END
> <PUBCHEM_COMPOUND_CID>
515287
> <PUBCHEM_COMPOUND_CANONICALIZED>
1
> <PUBCHEM_CACTVS_COMPLEXITY>
1060
> <PUBCHEM_CACTVS_HBOND_ACCEPTOR>
9
> <PUBCHEM_CACTVS_HBOND_DONOR>
6
> <PUBCHEM_CACTVS_ROTATABLE_BOND>
19
> <PUBCHEM_CACTVS_SUBSKEYS>
AAADcfB7vAAAAAAAAAAAAAAAAAAAAWAAAAAAAAAAAAAAAAAAAAAAHgAQCAAADyzBgAQDCAPAAgAIAIGQGAAAAAAAAAAAAIGIAACCQBoAgCAUQAAOFgKQAAG/i8C/AAAAAAAAAAAAAAAAAAAAAAAAAAAAAA==
> <PUBCHEM_IUPAC_OPENEYE_NAME>
(2S)-2-[[(2S)-3-carboxy-2-[[(2S,5S)-5-(1-ethylpropylcarbamoylamino)-6,6-dimethyl-4-oxo-2-(2-oxo-2-pyrrolidin-1-yl-ethyl)heptanoyl]amino]propanoyl]amino]-4-methyl-pentanoic acid
> <PUBCHEM_IUPAC_CAS_NAME>
(2S)-2-[[(2S)-3-carboxy-2-[[(2S,5S)-6,6-dimethyl-1,4-dioxo-5-[[oxo-(pentan-3-ylamino)methyl]amino]-2-[2-oxo-2-(1-pyrrolidinyl)ethyl]heptyl]amino]-1-oxopropyl]amino]-4-methylpentanoic acid
> <PUBCHEM_IUPAC_NAME_MARKUP>
(2<I>S</I>)-2-[[(2<I>S</I>)-3-carboxy-2-[[(2<I>S</I>,5<I>S</I>)-6,6-dimethyl-4-oxo-2-(2-oxo-2-pyrrolidin-1-ylethyl)-5-(pentan-3-ylcarbamoylamino)heptanoyl]amino]propanoyl]amino]-4-methylpentanoic acid
> <PUBCHEM_IUPAC_NAME>
(2S)-2-[[(2S)-3-carboxy-2-[[(2S,5S)-6,6-dimethyl-4-oxo-2-(2-oxo-2-pyrrolidin-1-ylethyl)-5-(pentan-3-ylcarbamoylamino)heptanoyl]amino]propanoyl]amino]-4-methylpentanoic acid
> <PUBCHEM_IUPAC_SYSTEMATIC_NAME>
(2S)-2-[[(2S)-2-[[(2S,5S)-6,6-dimethyl-4-oxidanylidene-2-(2-oxidanylidene-2-pyrrolidin-1-yl-ethyl)-5-(pentan-3-ylcarbamoylamino)heptanoyl]amino]-4-oxidanyl-4-oxidanylidene-butanoyl]amino]-4-methyl-pentanoic acid
> <PUBCHEM_IUPAC_TRADITIONAL_NAME>
(2S)-2-[[(2S)-3-carboxy-2-[[(2S,5S)-5-(1-ethylpropylcarbamoylamino)-4-keto-2-(2-keto-2-pyrrolidino-ethyl)-6,6-dimethyl-heptanoyl]amino]propanoyl]amino]-4-methyl-valeric acid
> <PUBCHEM_IUPAC_INCHI>
InChI=1S/C31H53N5O9/c1-8-20(9-2)32-30(45)35-26(31(5,6)7)23(37)15-19(16-24(38)36-12-10-11-13-36)27(41)33-21(17-25(39)40)28(42)34-22(29(43)44)14-18(3)4/h18-22,26H,8-17H2,1-7H3,(H,33,41)(H,34,42)(H,39,40)(H,43,44)(H2,32,35,45)/t19-,21-,22-,26+/m0/s1
> <PUBCHEM_IUPAC_INCHIKEY>
YENLCWWOFXIPIH-QOAPGFADSA-N
> <PUBCHEM_XLOGP3_AA>
2.1
> <PUBCHEM_EXACT_MASS>
639.38432829
> <PUBCHEM_MOLECULAR_FORMULA>
C31H53N5O9
> <PUBCHEM_MOLECULAR_WEIGHT>
639.8
> <PUBCHEM_OPENEYE_CAN_SMILES>
CCC(CC)NC(=O)NC(C(=O)CC(CC(=O)N1CCCC1)C(=O)NC(CC(=O)O)C(=O)NC(CC(C)C)C(=O)O)C(C)(C)C
> <PUBCHEM_OPENEYE_ISO_SMILES>
CCC(CC)NC(=O)N[C@H](C(=O)C[C@@H](CC(=O)N1CCCC1)C(=O)N[C@@H](CC(=O)O)C(=O)N[C@@H](CC(C)C)C(=O)O)C(C)(C)C
> <PUBCHEM_CACTVS_TPSA>
211
> <PUBCHEM_MONOISOTOPIC_WEIGHT>
639.38432829
> <PUBCHEM_TOTAL_CHARGE>
0
> <PUBCHEM_HEAVY_ATOM_COUNT>
45
> <PUBCHEM_ATOM_DEF_STEREO_COUNT>
4
> <PUBCHEM_ATOM_UDEF_STEREO_COUNT>
0
> <PUBCHEM_BOND_DEF_STEREO_COUNT>
0
> <PUBCHEM_BOND_UDEF_STEREO_COUNT>
0
> <PUBCHEM_ISOTOPIC_ATOM_COUNT>
0
> <PUBCHEM_COMPONENT_COUNT>
1
> <PUBCHEM_CACTVS_TAUTO_COUNT>
-1
> <PUBCHEM_COORDINATE_TYPE>
1
5
255
> <PUBCHEM_BONDANNOTATIONS>
16  11  6
31  12  5
35  14  5
17  20  6
$$$$
