515280
  -OEChem-10302200282D
 94 94  0     1  0  0  0  0  0999 V2000
    8.0622    2.2306    0.0000 O   0  0  0  0  0  0  0  0  0  0  0  0
   11.5263    2.2306    0.0000 O   0  0  0  0  0  0  0  0  0  0  0  0
   11.5263    1.2306    0.0000 O   0  0  0  0  0  0  0  0  0  0  0  0
    5.4641   -0.2694    0.0000 O   0  0  0  0  0  0  0  0  0  0  0  0
   12.3923   -2.2694    0.0000 O   0  0  0  0  0  0  0  0  0  0  0  0
   14.1244   -0.2694    0.0000 O   0  0  0  0  0  0  0  0  0  0  0  0
   13.2583   -1.7694    0.0000 O   0  0  0  0  0  0  0  0  0  0  0  0
   10.6603    3.7306    0.0000 N   0  0  0  0  0  0  0  0  0  0  0  0
    8.9282    0.7306    0.0000 N   0  0  0  0  0  0  0  0  0  0  0  0
    6.3301    1.2306    0.0000 N   0  0  0  0  0  0  0  0  0  0  0  0
   10.6603   -0.2694    0.0000 N   0  0  0  0  0  0  0  0  0  0  0  0
    4.5981    1.2306    0.0000 N   0  0  0  0  0  0  0  0  0  0  0  0
   10.6603   -2.2694    0.0000 N   0  0  0  0  0  0  0  0  0  0  0  0
    7.1962   -0.2694    0.0000 C   0  0  0  0  0  0  0  0  0  0  0  0
    7.1962    0.7306    0.0000 C   0  0  1  0  0  0  0  0  0  0  0  0
   11.4693    4.3184    0.0000 C   0  0  0  0  0  0  0  0  0  0  0  0
    9.8512    4.3184    0.0000 C   0  0  0  0  0  0  0  0  0  0  0  0
   11.1603    5.2694    0.0000 C   0  0  0  0  0  0  0  0  0  0  0  0
   10.1603    5.2694    0.0000 C   0  0  0  0  0  0  0  0  0  0  0  0
    9.7942    1.2306    0.0000 C   0  0  1  0  0  0  0  0  0  0  0  0
    9.7942    2.2306    0.0000 C   0  0  0  0  0  0  0  0  0  0  0  0
    7.1962   -1.2694    0.0000 C   0  0  0  0  0  0  0  0  0  0  0  0
    6.1962   -0.2694    0.0000 C   0  0  0  0  0  0  0  0  0  0  0  0
    8.1962   -0.2694    0.0000 C   0  0  0  0  0  0  0  0  0  0  0  0
    8.0622    1.2306    0.0000 C   0  0  0  0  0  0  0  0  0  0  0  0
   10.6603    2.7306    0.0000 C   0  0  0  0  0  0  0  0  0  0  0  0
   10.6603    0.7306    0.0000 C   0  0  0  0  0  0  0  0  0  0  0  0
    5.4641    0.7306    0.0000 C   0  0  0  0  0  0  0  0  0  0  0  0
    3.7320    0.7306    0.0000 C   0  0  0  0  0  0  0  0  0  0  0  0
   11.5263   -0.7694    0.0000 C   0  0  1  0  0  0  0  0  0  0  0  0
    2.8660    1.2306    0.0000 C   0  0  0  0  0  0  0  0  0  0  0  0
    3.7320   -0.2694    0.0000 C   0  0  0  0  0  0  0  0  0  0  0  0
   12.3923   -0.2694    0.0000 C   0  0  0  0  0  0  0  0  0  0  0  0
   11.5263   -1.7694    0.0000 C   0  0  0  0  0  0  0  0  0  0  0  0
    9.7942   -3.7694    0.0000 C   0  0  0  0  0  0  0  0  0  0  0  0
   10.6603   -3.2694    0.0000 C   0  0  0  0  0  0  0  0  0  0  0  0
    9.7942   -4.7694    0.0000 C   0  0  0  0  0  0  0  0  0  0  0  0
    2.0000    0.7306    0.0000 C   0  0  0  0  0  0  0  0  0  0  0  0
    2.8660   -0.7694    0.0000 C   0  0  0  0  0  0  0  0  0  0  0  0
   13.2583   -0.7694    0.0000 C   0  0  0  0  0  0  0  0  0  0  0  0
    8.9282   -5.2694    0.0000 C   0  0  0  0  0  0  0  0  0  0  0  0
   10.6603   -5.2694    0.0000 C   0  0  0  0  0  0  0  0  0  0  0  0
    6.6592    0.4206    0.0000 H   0  0  0  0  0  0  0  0  0  0  0  0
   11.7793    3.7814    0.0000 H   0  0  0  0  0  0  0  0  0  0  0  0
   12.0357    4.5705    0.0000 H   0  0  0  0  0  0  0  0  0  0  0  0
    9.2848    4.5705    0.0000 H   0  0  0  0  0  0  0  0  0  0  0  0
    9.5412    3.7814    0.0000 H   0  0  0  0  0  0  0  0  0  0  0  0
   11.7667    5.3983    0.0000 H   0  0  0  0  0  0  0  0  0  0  0  0
   11.0954    5.8860    0.0000 H   0  0  0  0  0  0  0  0  0  0  0  0
   10.2251    5.8860    0.0000 H   0  0  0  0  0  0  0  0  0  0  0  0
    9.5538    5.3983    0.0000 H   0  0  0  0  0  0  0  0  0  0  0  0
    9.2573    1.5406    0.0000 H   0  0  0  0  0  0  0  0  0  0  0  0
    9.5822    2.8132    0.0000 H   0  0  0  0  0  0  0  0  0  0  0  0
    9.1836    2.1229    0.0000 H   0  0  0  0  0  0  0  0  0  0  0  0
    6.5762   -1.2694    0.0000 H   0  0  0  0  0  0  0  0  0  0  0  0
    7.1962   -1.8894    0.0000 H   0  0  0  0  0  0  0  0  0  0  0  0
    7.8162   -1.2694    0.0000 H   0  0  0  0  0  0  0  0  0  0  0  0
    6.1962    0.3506    0.0000 H   0  0  0  0  0  0  0  0  0  0  0  0
    5.5762   -0.2694    0.0000 H   0  0  0  0  0  0  0  0  0  0  0  0
    6.1962   -0.8894    0.0000 H   0  0  0  0  0  0  0  0  0  0  0  0
    8.1962   -0.8894    0.0000 H   0  0  0  0  0  0  0  0  0  0  0  0
    8.8162   -0.2694    0.0000 H   0  0  0  0  0  0  0  0  0  0  0  0
    8.1962    0.3506    0.0000 H   0  0  0  0  0  0  0  0  0  0  0  0
    8.9282    0.1106    0.0000 H   0  0  0  0  0  0  0  0  0  0  0  0
    6.3301    1.8506    0.0000 H   0  0  0  0  0  0  0  0  0  0  0  0
    3.7320    1.3506    0.0000 H   0  0  0  0  0  0  0  0  0  0  0  0
   10.1233   -0.5794    0.0000 H   0  0  0  0  0  0  0  0  0  0  0  0
   10.9893   -1.0794    0.0000 H   0  0  0  0  0  0  0  0  0  0  0  0
    4.5981    1.8506    0.0000 H   0  0  0  0  0  0  0  0  0  0  0  0
    3.2646    1.7055    0.0000 H   0  0  0  0  0  0  0  0  0  0  0  0
    2.4675    1.7055    0.0000 H   0  0  0  0  0  0  0  0  0  0  0  0
    3.9441   -0.8520    0.0000 H   0  0  0  0  0  0  0  0  0  0  0  0
    4.3426   -0.1618    0.0000 H   0  0  0  0  0  0  0  0  0  0  0  0
   12.7908    0.2055    0.0000 H   0  0  0  0  0  0  0  0  0  0  0  0
   11.9938    0.2055    0.0000 H   0  0  0  0  0  0  0  0  0  0  0  0
    9.5822   -3.1868    0.0000 H   0  0  0  0  0  0  0  0  0  0  0  0
    9.1836   -3.8771    0.0000 H   0  0  0  0  0  0  0  0  0  0  0  0
   10.8723   -3.8520    0.0000 H   0  0  0  0  0  0  0  0  0  0  0  0
   11.2708   -3.1618    0.0000 H   0  0  0  0  0  0  0  0  0  0  0  0
    9.2573   -4.4594    0.0000 H   0  0  0  0  0  0  0  0  0  0  0  0
   10.1233   -1.9594    0.0000 H   0  0  0  0  0  0  0  0  0  0  0  0
    1.6900    1.2675    0.0000 H   0  0  0  0  0  0  0  0  0  0  0  0
    1.4631    0.4206    0.0000 H   0  0  0  0  0  0  0  0  0  0  0  0
    2.3100    0.1936    0.0000 H   0  0  0  0  0  0  0  0  0  0  0  0
    2.5560   -0.2325    0.0000 H   0  0  0  0  0  0  0  0  0  0  0  0
    2.3291   -1.0794    0.0000 H   0  0  0  0  0  0  0  0  0  0  0  0
    3.1760   -1.3064    0.0000 H   0  0  0  0  0  0  0  0  0  0  0  0
    8.6182   -4.7325    0.0000 H   0  0  0  0  0  0  0  0  0  0  0  0
    8.3913   -5.5794    0.0000 H   0  0  0  0  0  0  0  0  0  0  0  0
    9.2382   -5.8064    0.0000 H   0  0  0  0  0  0  0  0  0  0  0  0
   10.3503   -5.8064    0.0000 H   0  0  0  0  0  0  0  0  0  0  0  0
   11.1972   -5.5794    0.0000 H   0  0  0  0  0  0  0  0  0  0  0  0
   10.9703   -4.7325    0.0000 H   0  0  0  0  0  0  0  0  0  0  0  0
   14.6613   -0.5794    0.0000 H   0  0  0  0  0  0  0  0  0  0  0  0
  1 25  2  0  0  0  0
  2 26  2  0  0  0  0
  3 27  2  0  0  0  0
  4 28  2  0  0  0  0
  5 34  2  0  0  0  0
  6 40  1  0  0  0  0
  6 94  1  0  0  0  0
  7 40  2  0  0  0  0
  8 16  1  0  0  0  0
  8 17  1  0  0  0  0
  8 26  1  0  0  0  0
 20  9  1  1  0  0  0
  9 25  1  0  0  0  0
  9 64  1  0  0  0  0
 15 10  1  6  0  0  0
 10 28  1  0  0  0  0
 10 65  1  0  0  0  0
 11 27  1  0  0  0  0
 30 11  1  1  0  0  0
 11 67  1  0  0  0  0
 12 28  1  0  0  0  0
 12 29  1  0  0  0  0
 12 69  1  0  0  0  0
 13 34  1  0  0  0  0
 13 36  1  0  0  0  0
 13 81  1  0  0  0  0
 14 15  1  0  0  0  0
 14 22  1  0  0  0  0
 14 23  1  0  0  0  0
 14 24  1  0  0  0  0
 15 25  1  0  0  0  0
 15 43  1  0  0  0  0
 16 18  1  0  0  0  0
 16 44  1  0  0  0  0
 16 45  1  0  0  0  0
 17 19  1  0  0  0  0
 17 46  1  0  0  0  0
 17 47  1  0  0  0  0
 18 19  1  0  0  0  0
 18 48  1  0  0  0  0
 18 49  1  0  0  0  0
 19 50  1  0  0  0  0
 19 51  1  0  0  0  0
 20 21  1  0  0  0  0
 20 27  1  0  0  0  0
 20 52  1  0  0  0  0
 21 26  1  0  0  0  0
 21 53  1  0  0  0  0
 21 54  1  0  0  0  0
 22 55  1  0  0  0  0
 22 56  1  0  0  0  0
 22 57  1  0  0  0  0
 23 58  1  0  0  0  0
 23 59  1  0  0  0  0
 23 60  1  0  0  0  0
 24 61  1  0  0  0  0
 24 62  1  0  0  0  0
 24 63  1  0  0  0  0
 29 31  1  0  0  0  0
 29 32  1  0  0  0  0
 29 66  1  0  0  0  0
 30 33  1  0  0  0  0
 30 34  1  0  0  0  0
 30 68  1  0  0  0  0
 31 38  1  0  0  0  0
 31 70  1  0  0  0  0
 31 71  1  0  0  0  0
 32 39  1  0  0  0  0
 32 72  1  0  0  0  0
 32 73  1  0  0  0  0
 33 40  1  0  0  0  0
 33 74  1  0  0  0  0
 33 75  1  0  0  0  0
 35 36  1  0  0  0  0
 35 37  1  0  0  0  0
 35 76  1  0  0  0  0
 35 77  1  0  0  0  0
 36 78  1  0  0  0  0
 36 79  1  0  0  0  0
 37 41  1  0  0  0  0
 37 42  1  0  0  0  0
 37 80  1  0  0  0  0
 38 82  1  0  0  0  0
 38 83  1  0  0  0  0
 38 84  1  0  0  0  0
 39 85  1  0  0  0  0
 39 86  1  0  0  0  0
 39 87  1  0  0  0  0
 41 88  1  0  0  0  0
 41 89  1  0  0  0  0
 41 90  1  0  0  0  0
 42 91  1  0  0  0  0
 42 92  1  0  0  0  0
 42 93  1  0  0  0  0
M  END
> <PUBCHEM_COMPOUND_CID>
515280
> <PUBCHEM_COMPOUND_CANONICALIZED>
1
> <PUBCHEM_CACTVS_COMPLEXITY>
939
> <PUBCHEM_CACTVS_HBOND_ACCEPTOR>
7
> <PUBCHEM_CACTVS_HBOND_DONOR>
6
> <PUBCHEM_CACTVS_ROTATABLE_BOND>
17
> <PUBCHEM_CACTVS_SUBSKEYS>
AAADcfB7uAAAAAAAAAAAAAAAAAAAAWAAAAAAAAAAAAAAAAAAAAAAHgAQCAAADyjBgAQDCAPAAgAIAAGQGAAAAAAAAAAAAIGIAACAQBoAwCAUQAAOFgKAAAAnAAAJAAAAAAAAAAAAAAAAAAAAAAAAAAAAAA==
> <PUBCHEM_IUPAC_OPENEYE_NAME>
(3S)-3-[[(2S)-2-[[(2S)-2-(1-ethylpropylcarbamoylamino)-3,3-dimethyl-butanoyl]amino]-4-oxo-4-pyrrolidin-1-yl-butanoyl]amino]-4-(isopentylamino)-4-oxo-butanoic acid
> <PUBCHEM_IUPAC_CAS_NAME>
(3S)-3-[[(2S)-2-[[(2S)-3,3-dimethyl-1-oxo-2-[[oxo-(pentan-3-ylamino)methyl]amino]butyl]amino]-1,4-dioxo-4-(1-pyrrolidinyl)butyl]amino]-4-(3-methylbutylamino)-4-oxobutanoic acid
> <PUBCHEM_IUPAC_NAME_MARKUP>
(3<I>S</I>)-3-[[(2<I>S</I>)-2-[[(2<I>S</I>)-3,3-dimethyl-2-(pentan-3-ylcarbamoylamino)butanoyl]amino]-4-oxo-4-pyrrolidin-1-ylbutanoyl]amino]-4-(3-methylbutylamino)-4-oxobutanoic acid
> <PUBCHEM_IUPAC_NAME>
(3S)-3-[[(2S)-2-[[(2S)-3,3-dimethyl-2-(pentan-3-ylcarbamoylamino)butanoyl]amino]-4-oxo-4-pyrrolidin-1-ylbutanoyl]amino]-4-(3-methylbutylamino)-4-oxobutanoic acid
> <PUBCHEM_IUPAC_SYSTEMATIC_NAME>
(3S)-3-[[(2S)-2-[[(2S)-3,3-dimethyl-2-(pentan-3-ylcarbamoylamino)butanoyl]amino]-4-oxidanylidene-4-pyrrolidin-1-yl-butanoyl]amino]-4-(3-methylbutylamino)-4-oxidanylidene-butanoic acid
> <PUBCHEM_IUPAC_TRADITIONAL_NAME>
(3S)-3-[[(2S)-2-[[(2S)-2-(1-ethylpropylcarbamoylamino)-3,3-dimethyl-butanoyl]amino]-4-keto-4-pyrrolidino-butanoyl]amino]-4-(isoamylamino)-4-keto-butyric acid
> <PUBCHEM_IUPAC_INCHI>
InChI=1S/C29H52N6O7/c1-8-19(9-2)31-28(42)34-24(29(5,6)7)27(41)33-20(16-22(36)35-14-10-11-15-35)26(40)32-21(17-23(37)38)25(39)30-13-12-18(3)4/h18-21,24H,8-17H2,1-7H3,(H,30,39)(H,32,40)(H,33,41)(H,37,38)(H2,31,34,42)/t20-,21-,24+/m0/s1
> <PUBCHEM_IUPAC_INCHIKEY>
IYIUKXKMKPFRBK-AWRGLXIESA-N
> <PUBCHEM_XLOGP3_AA>
2.2
> <PUBCHEM_EXACT_MASS>
596.38974802
> <PUBCHEM_MOLECULAR_FORMULA>
C29H52N6O7
> <PUBCHEM_MOLECULAR_WEIGHT>
596.8
> <PUBCHEM_OPENEYE_CAN_SMILES>
CCC(CC)NC(=O)NC(C(=O)NC(CC(=O)N1CCCC1)C(=O)NC(CC(=O)O)C(=O)NCCC(C)C)C(C)(C)C
> <PUBCHEM_OPENEYE_ISO_SMILES>
CCC(CC)NC(=O)N[C@H](C(=O)N[C@@H](CC(=O)N1CCCC1)C(=O)N[C@@H](CC(=O)O)C(=O)NCCC(C)C)C(C)(C)C
> <PUBCHEM_CACTVS_TPSA>
186
> <PUBCHEM_MONOISOTOPIC_WEIGHT>
596.38974802
> <PUBCHEM_TOTAL_CHARGE>
0
> <PUBCHEM_HEAVY_ATOM_COUNT>
42
> <PUBCHEM_ATOM_DEF_STEREO_COUNT>
3
> <PUBCHEM_ATOM_UDEF_STEREO_COUNT>
0
> <PUBCHEM_BOND_DEF_STEREO_COUNT>
0
> <PUBCHEM_BOND_UDEF_STEREO_COUNT>
0
> <PUBCHEM_ISOTOPIC_ATOM_COUNT>
0
> <PUBCHEM_COMPONENT_COUNT>
1
> <PUBCHEM_CACTVS_TAUTO_COUNT>
-1
> <PUBCHEM_COORDINATE_TYPE>
1
5
255
> <PUBCHEM_BONDANNOTATIONS>
15  10  6
30  11  5
20  9  5
$$$$
