515288
  -OEChem-10302200282D
 97 96  0     1  0  0  0  0  0999 V2000
    8.5991    2.5000    0.0000 O   0  0  0  0  0  0  0  0  0  0  0  0
    5.1350    2.5000    0.0000 O   0  0  0  0  0  0  0  0  0  0  0  0
    5.1350    1.5000    0.0000 O   0  0  0  0  0  0  0  0  0  0  0  0
   11.1972    0.0000    0.0000 O   0  0  0  0  0  0  0  0  0  0  0  0
    4.2690   -2.0000    0.0000 O   0  0  0  0  0  0  0  0  0  0  0  0
    6.8671   -4.5000    0.0000 O   0  0  0  0  0  0  0  0  0  0  0  0
    7.7331   -3.0000    0.0000 O   0  0  0  0  0  0  0  0  0  0  0  0
    2.5369    0.0000    0.0000 O   0  0  0  0  0  0  0  0  0  0  0  0
    3.4030   -1.5000    0.0000 O   0  0  0  0  0  0  0  0  0  0  0  0
    9.4651    0.0000    0.0000 N   0  0  0  0  0  0  0  0  0  0  0  0
    7.7331    1.0000    0.0000 N   0  0  0  0  0  0  0  0  0  0  0  0
    6.0010    0.0000    0.0000 N   0  0  0  0  0  0  0  0  0  0  0  0
   10.3312   -1.5000    0.0000 N   0  0  0  0  0  0  0  0  0  0  0  0
    6.0010   -2.0000    0.0000 N   0  0  0  0  0  0  0  0  0  0  0  0
   10.3312    1.5000    0.0000 C   0  0  0  0  0  0  0  0  0  0  0  0
    9.4651    1.0000    0.0000 C   0  0  1  0  0  0  0  0  0  0  0  0
   11.1972    2.0000    0.0000 C   0  0  0  0  0  0  0  0  0  0  0  0
   10.8312    0.6340    0.0000 C   0  0  0  0  0  0  0  0  0  0  0  0
    9.8312    2.3660    0.0000 C   0  0  0  0  0  0  0  0  0  0  0  0
    8.5991    1.5000    0.0000 C   0  0  0  0  0  0  0  0  0  0  0  0
    6.8671    1.5000    0.0000 C   0  0  1  0  0  0  0  0  0  0  0  0
    6.8671    2.5000    0.0000 C   0  0  0  0  0  0  0  0  0  0  0  0
    6.0010    4.0000    0.0000 C   0  0  0  0  0  0  0  0  0  0  0  0
    6.0010    3.0000    0.0000 C   0  0  0  0  0  0  0  0  0  0  0  0
    6.0010    1.0000    0.0000 C   0  0  0  0  0  0  0  0  0  0  0  0
   10.3312   -0.5000    0.0000 C   0  0  0  0  0  0  0  0  0  0  0  0
   11.1972   -2.0000    0.0000 C   0  0  0  0  0  0  0  0  0  0  0  0
    6.0010    5.0000    0.0000 C   0  0  0  0  0  0  0  0  0  0  0  0
    5.0010    4.0000    0.0000 C   0  0  0  0  0  0  0  0  0  0  0  0
    7.0010    4.0000    0.0000 C   0  0  0  0  0  0  0  0  0  0  0  0
    5.1350   -0.5000    0.0000 C   0  0  2  0  0  0  0  0  0  0  0  0
    6.0010   -3.0000    0.0000 C   0  0  1  0  0  0  0  0  0  0  0  0
    5.1350   -3.5000    0.0000 C   0  0  0  0  0  0  0  0  0  0  0  0
    5.1350   -4.5000    0.0000 C   0  0  0  0  0  0  0  0  0  0  0  0
   11.1972   -3.0000    0.0000 C   0  0  0  0  0  0  0  0  0  0  0  0
   12.0632   -1.5000    0.0000 C   0  0  0  0  0  0  0  0  0  0  0  0
    5.1350   -1.5000    0.0000 C   0  0  0  0  0  0  0  0  0  0  0  0
    4.2690    0.0000    0.0000 C   0  0  0  0  0  0  0  0  0  0  0  0
    4.2690   -5.0000    0.0000 C   0  0  0  0  0  0  0  0  0  0  0  0
    6.0010   -5.0000    0.0000 C   0  0  0  0  0  0  0  0  0  0  0  0
   12.0632   -3.5000    0.0000 C   0  0  0  0  0  0  0  0  0  0  0  0
   12.9292   -2.0000    0.0000 C   0  0  0  0  0  0  0  0  0  0  0  0
    6.8671   -3.5000    0.0000 C   0  0  0  0  0  0  0  0  0  0  0  0
    3.4030   -0.5000    0.0000 C   0  0  0  0  0  0  0  0  0  0  0  0
   10.0021    0.6900    0.0000 H   0  0  0  0  0  0  0  0  0  0  0  0
   11.5072    1.4631    0.0000 H   0  0  0  0  0  0  0  0  0  0  0  0
   11.7341    2.3100    0.0000 H   0  0  0  0  0  0  0  0  0  0  0  0
   10.8872    2.5369    0.0000 H   0  0  0  0  0  0  0  0  0  0  0  0
   10.2942    0.3240    0.0000 H   0  0  0  0  0  0  0  0  0  0  0  0
   11.1412    0.0970    0.0000 H   0  0  0  0  0  0  0  0  0  0  0  0
   11.3681    0.9440    0.0000 H   0  0  0  0  0  0  0  0  0  0  0  0
   10.3681    2.6760    0.0000 H   0  0  0  0  0  0  0  0  0  0  0  0
    9.5212    2.9030    0.0000 H   0  0  0  0  0  0  0  0  0  0  0  0
    9.2942    2.0560    0.0000 H   0  0  0  0  0  0  0  0  0  0  0  0
    7.4040    1.8100    0.0000 H   0  0  0  0  0  0  0  0  0  0  0  0
    8.9282   -0.3100    0.0000 H   0  0  0  0  0  0  0  0  0  0  0  0
    7.4776    2.3923    0.0000 H   0  0  0  0  0  0  0  0  0  0  0  0
    7.0791    3.0826    0.0000 H   0  0  0  0  0  0  0  0  0  0  0  0
    7.7331    0.3800    0.0000 H   0  0  0  0  0  0  0  0  0  0  0  0
   10.6603   -2.3100    0.0000 H   0  0  0  0  0  0  0  0  0  0  0  0
    5.1350    0.1200    0.0000 H   0  0  0  0  0  0  0  0  0  0  0  0
    6.6210    5.0000    0.0000 H   0  0  0  0  0  0  0  0  0  0  0  0
    6.0010    5.6200    0.0000 H   0  0  0  0  0  0  0  0  0  0  0  0
    5.3810    5.0000    0.0000 H   0  0  0  0  0  0  0  0  0  0  0  0
    5.0010    4.6200    0.0000 H   0  0  0  0  0  0  0  0  0  0  0  0
    4.3810    4.0000    0.0000 H   0  0  0  0  0  0  0  0  0  0  0  0
    5.0010    3.3800    0.0000 H   0  0  0  0  0  0  0  0  0  0  0  0
    7.0010    3.3800    0.0000 H   0  0  0  0  0  0  0  0  0  0  0  0
    7.6210    4.0000    0.0000 H   0  0  0  0  0  0  0  0  0  0  0  0
    7.0010    4.6200    0.0000 H   0  0  0  0  0  0  0  0  0  0  0  0
    6.5380   -0.3100    0.0000 H   0  0  0  0  0  0  0  0  0  0  0  0
    9.7942   -1.8100    0.0000 H   0  0  0  0  0  0  0  0  0  0  0  0
    6.5380   -2.6900    0.0000 H   0  0  0  0  0  0  0  0  0  0  0  0
    4.9230   -2.9174    0.0000 H   0  0  0  0  0  0  0  0  0  0  0  0
    4.5244   -3.6077    0.0000 H   0  0  0  0  0  0  0  0  0  0  0  0
    5.1350   -5.1200    0.0000 H   0  0  0  0  0  0  0  0  0  0  0  0
   10.5866   -2.8923    0.0000 H   0  0  0  0  0  0  0  0  0  0  0  0
   10.9851   -3.5826    0.0000 H   0  0  0  0  0  0  0  0  0  0  0  0
   12.4617   -1.0250    0.0000 H   0  0  0  0  0  0  0  0  0  0  0  0
   11.6647   -1.0250    0.0000 H   0  0  0  0  0  0  0  0  0  0  0  0
    4.6675    0.4749    0.0000 H   0  0  0  0  0  0  0  0  0  0  0  0
    3.8705    0.4749    0.0000 H   0  0  0  0  0  0  0  0  0  0  0  0
    6.5380   -1.6900    0.0000 H   0  0  0  0  0  0  0  0  0  0  0  0
    3.9590   -4.4631    0.0000 H   0  0  0  0  0  0  0  0  0  0  0  0
    3.7320   -5.3100    0.0000 H   0  0  0  0  0  0  0  0  0  0  0  0
    4.5790   -5.5369    0.0000 H   0  0  0  0  0  0  0  0  0  0  0  0
    5.6910   -5.5369    0.0000 H   0  0  0  0  0  0  0  0  0  0  0  0
    6.5380   -5.3100    0.0000 H   0  0  0  0  0  0  0  0  0  0  0  0
    6.3110   -4.4631    0.0000 H   0  0  0  0  0  0  0  0  0  0  0  0
   11.7532   -4.0369    0.0000 H   0  0  0  0  0  0  0  0  0  0  0  0
   12.6002   -3.8100    0.0000 H   0  0  0  0  0  0  0  0  0  0  0  0
   12.3732   -2.9631    0.0000 H   0  0  0  0  0  0  0  0  0  0  0  0
   12.6192   -2.5369    0.0000 H   0  0  0  0  0  0  0  0  0  0  0  0
   13.4662   -2.3100    0.0000 H   0  0  0  0  0  0  0  0  0  0  0  0
   13.2392   -1.4631    0.0000 H   0  0  0  0  0  0  0  0  0  0  0  0
    7.4040   -4.8100    0.0000 H   0  0  0  0  0  0  0  0  0  0  0  0
    2.0000   -0.3100    0.0000 H   0  0  0  0  0  0  0  0  0  0  0  0
  1 20  2  0  0  0  0
  2 24  2  0  0  0  0
  3 25  2  0  0  0  0
  4 26  2  0  0  0  0
  5 37  2  0  0  0  0
  6 43  1  0  0  0  0
  6 96  1  0  0  0  0
  7 43  2  0  0  0  0
  8 44  1  0  0  0  0
  8 97  1  0  0  0  0
  9 44  2  0  0  0  0
 16 10  1  6  0  0  0
 10 26  1  0  0  0  0
 10 56  1  0  0  0  0
 11 20  1  0  0  0  0
 21 11  1  6  0  0  0
 11 59  1  0  0  0  0
 12 25  1  0  0  0  0
 31 12  1  6  0  0  0
 12 71  1  0  0  0  0
 13 26  1  0  0  0  0
 13 27  1  0  0  0  0
 13 72  1  0  0  0  0
 32 14  1  6  0  0  0
 14 37  1  0  0  0  0
 14 83  1  0  0  0  0
 15 16  1  0  0  0  0
 15 17  1  0  0  0  0
 15 18  1  0  0  0  0
 15 19  1  0  0  0  0
 16 20  1  0  0  0  0
 16 45  1  0  0  0  0
 17 46  1  0  0  0  0
 17 47  1  0  0  0  0
 17 48  1  0  0  0  0
 18 49  1  0  0  0  0
 18 50  1  0  0  0  0
 18 51  1  0  0  0  0
 19 52  1  0  0  0  0
 19 53  1  0  0  0  0
 19 54  1  0  0  0  0
 21 22  1  0  0  0  0
 21 25  1  0  0  0  0
 21 55  1  0  0  0  0
 22 24  1  0  0  0  0
 22 57  1  0  0  0  0
 22 58  1  0  0  0  0
 23 24  1  0  0  0  0
 23 28  1  0  0  0  0
 23 29  1  0  0  0  0
 23 30  1  0  0  0  0
 27 35  1  0  0  0  0
 27 36  1  0  0  0  0
 27 60  1  0  0  0  0
 28 62  1  0  0  0  0
 28 63  1  0  0  0  0
 28 64  1  0  0  0  0
 29 65  1  0  0  0  0
 29 66  1  0  0  0  0
 29 67  1  0  0  0  0
 30 68  1  0  0  0  0
 30 69  1  0  0  0  0
 30 70  1  0  0  0  0
 31 37  1  0  0  0  0
 31 38  1  0  0  0  0
 31 61  1  0  0  0  0
 32 33  1  0  0  0  0
 32 43  1  0  0  0  0
 32 73  1  0  0  0  0
 33 34  1  0  0  0  0
 33 74  1  0  0  0  0
 33 75  1  0  0  0  0
 34 39  1  0  0  0  0
 34 40  1  0  0  0  0
 34 76  1  0  0  0  0
 35 41  1  0  0  0  0
 35 77  1  0  0  0  0
 35 78  1  0  0  0  0
 36 42  1  0  0  0  0
 36 79  1  0  0  0  0
 36 80  1  0  0  0  0
 38 44  1  0  0  0  0
 38 81  1  0  0  0  0
 38 82  1  0  0  0  0
 39 84  1  0  0  0  0
 39 85  1  0  0  0  0
 39 86  1  0  0  0  0
 40 87  1  0  0  0  0
 40 88  1  0  0  0  0
 40 89  1  0  0  0  0
 41 90  1  0  0  0  0
 41 91  1  0  0  0  0
 41 92  1  0  0  0  0
 42 93  1  0  0  0  0
 42 94  1  0  0  0  0
 42 95  1  0  0  0  0
M  END
> <PUBCHEM_COMPOUND_CID>
515288
> <PUBCHEM_COMPOUND_CANONICALIZED>
1
> <PUBCHEM_CACTVS_COMPLEXITY>
1040
> <PUBCHEM_CACTVS_HBOND_ACCEPTOR>
9
> <PUBCHEM_CACTVS_HBOND_DONOR>
7
> <PUBCHEM_CACTVS_ROTATABLE_BOND>
19
> <PUBCHEM_CACTVS_SUBSKEYS>
AAADcfB7vAAAAAAAAAAAAAAAAAAAAAAAAAAAAAAAAAAAAAAAAAAAHgAQCAAADyzBgAQDCALAAgAIAIGQGAAAAAAAAAAAAIGIAACCQBoAgCAUQAAOFgKQAAG/CAANAAAAAAAAAAAAAAAAAAAAAAAAAAAAAA==
> <PUBCHEM_IUPAC_OPENEYE_NAME>
(2S)-2-[[(2S)-3-carboxy-2-[[(2S)-2-[[(2S)-2-(1-ethylpropylcarbamoylamino)-3,3-dimethyl-butanoyl]amino]-5,5-dimethyl-4-oxo-hexanoyl]amino]propanoyl]amino]-4-methyl-pentanoic acid
> <PUBCHEM_IUPAC_CAS_NAME>
(2S)-2-[[(2S)-3-carboxy-2-[[(2S)-2-[[(2S)-3,3-dimethyl-1-oxo-2-[[oxo-(pentan-3-ylamino)methyl]amino]butyl]amino]-5,5-dimethyl-1,4-dioxohexyl]amino]-1-oxopropyl]amino]-4-methylpentanoic acid
> <PUBCHEM_IUPAC_NAME_MARKUP>
(2<I>S</I>)-2-[[(2<I>S</I>)-3-carboxy-2-[[(2<I>S</I>)-2-[[(2<I>S</I>)-3,3-dimethyl-2-(pentan-3-ylcarbamoylamino)butanoyl]amino]-5,5-dimethyl-4-oxohexanoyl]amino]propanoyl]amino]-4-methylpentanoic acid
> <PUBCHEM_IUPAC_NAME>
(2S)-2-[[(2S)-3-carboxy-2-[[(2S)-2-[[(2S)-3,3-dimethyl-2-(pentan-3-ylcarbamoylamino)butanoyl]amino]-5,5-dimethyl-4-oxohexanoyl]amino]propanoyl]amino]-4-methylpentanoic acid
> <PUBCHEM_IUPAC_SYSTEMATIC_NAME>
(2S)-2-[[(2S)-2-[[(2S)-2-[[(2S)-3,3-dimethyl-2-(pentan-3-ylcarbamoylamino)butanoyl]amino]-5,5-dimethyl-4-oxidanylidene-hexanoyl]amino]-4-oxidanyl-4-oxidanylidene-butanoyl]amino]-4-methyl-pentanoic acid
> <PUBCHEM_IUPAC_TRADITIONAL_NAME>
(2S)-2-[[(2S)-3-carboxy-2-[[(2S)-2-[[(2S)-2-(1-ethylpropylcarbamoylamino)-3,3-dimethyl-butanoyl]amino]-4-keto-5,5-dimethyl-hexanoyl]amino]propanoyl]amino]-4-methyl-valeric acid
> <PUBCHEM_IUPAC_INCHI>
InChI=1S/C30H53N5O9/c1-11-17(12-2)31-28(44)35-23(30(8,9)10)26(41)33-18(14-21(36)29(5,6)7)24(39)32-19(15-22(37)38)25(40)34-20(27(42)43)13-16(3)4/h16-20,23H,11-15H2,1-10H3,(H,32,39)(H,33,41)(H,34,40)(H,37,38)(H,42,43)(H2,31,35,44)/t18-,19-,20-,23+/m0/s1
> <PUBCHEM_IUPAC_INCHIKEY>
DRCILEHAXVUVFI-IHFIDZABSA-N
> <PUBCHEM_XLOGP3_AA>
3
> <PUBCHEM_EXACT_MASS>
627.38432829
> <PUBCHEM_MOLECULAR_FORMULA>
C30H53N5O9
> <PUBCHEM_MOLECULAR_WEIGHT>
627.8
> <PUBCHEM_OPENEYE_CAN_SMILES>
CCC(CC)NC(=O)NC(C(=O)NC(CC(=O)C(C)(C)C)C(=O)NC(CC(=O)O)C(=O)NC(CC(C)C)C(=O)O)C(C)(C)C
> <PUBCHEM_OPENEYE_ISO_SMILES>
CCC(CC)NC(=O)N[C@H](C(=O)N[C@@H](CC(=O)C(C)(C)C)C(=O)N[C@@H](CC(=O)O)C(=O)N[C@@H](CC(C)C)C(=O)O)C(C)(C)C
> <PUBCHEM_CACTVS_TPSA>
220
> <PUBCHEM_MONOISOTOPIC_WEIGHT>
627.38432829
> <PUBCHEM_TOTAL_CHARGE>
0
> <PUBCHEM_HEAVY_ATOM_COUNT>
44
> <PUBCHEM_ATOM_DEF_STEREO_COUNT>
4
> <PUBCHEM_ATOM_UDEF_STEREO_COUNT>
0
> <PUBCHEM_BOND_DEF_STEREO_COUNT>
0
> <PUBCHEM_BOND_UDEF_STEREO_COUNT>
0
> <PUBCHEM_ISOTOPIC_ATOM_COUNT>
0
> <PUBCHEM_COMPONENT_COUNT>
1
> <PUBCHEM_CACTVS_TAUTO_COUNT>
-1
> <PUBCHEM_COORDINATE_TYPE>
1
5
255
> <PUBCHEM_BONDANNOTATIONS>
16  10  6
21  11  6
31  12  6
32  14  6
$$$$
