515205
  -OEChem-10302200282D
 49 52  0     1  0  0  0  0  0999 V2000
    7.2627    0.5185    0.0000 O   0  0  0  0  0  0  0  0  0  0  0  0
    4.7406   -1.8728    0.0000 O   0  0  0  0  0  0  0  0  0  0  0  0
    6.4535   -3.2095    0.0000 O   0  0  0  0  0  0  0  0  0  0  0  0
    7.9924   -2.7095    0.0000 O   0  0  0  0  0  0  0  0  0  0  0  0
    6.3962    0.0185    0.0000 N   0  0  3  0  0  0  0  0  0  0  0  0
    6.3962    1.0185    0.0000 C   0  0  1  0  0  0  0  0  0  0  0  0
    5.4451   -0.2905    0.0000 C   0  0  2  0  0  0  0  0  0  0  0  0
    5.4451    1.3276    0.0000 C   0  0  0  0  0  0  0  0  0  0  0  0
    4.8573    0.5185    0.0000 C   0  0  0  0  0  0  0  0  0  0  0  0
    5.7541   -1.2415    0.0000 C   0  0  0  0  0  0  0  0  0  0  0  0
    6.3962    2.0185    0.0000 C   0  0  0  0  0  0  0  0  0  0  0  0
    4.6361   -0.8783    0.0000 C   0  0  0  0  0  0  0  0  0  0  0  0
    6.7323   -1.4494    0.0000 C   0  0  0  0  0  0  0  0  0  0  0  0
    3.7226   -0.4715    0.0000 C   0  0  0  0  0  0  0  0  0  0  0  0
    5.5302    2.5185    0.0000 C   0  0  0  0  0  0  0  0  0  0  0  0
    7.2622    2.5185    0.0000 C   0  0  0  0  0  0  0  0  0  0  0  0
    7.0413   -2.4005    0.0000 C   0  0  0  0  0  0  0  0  0  0  0  0
    2.9136   -1.0593    0.0000 C   0  0  0  0  0  0  0  0  0  0  0  0
    5.5302    3.5185    0.0000 C   0  0  0  0  0  0  0  0  0  0  0  0
    7.2622    3.5185    0.0000 C   0  0  0  0  0  0  0  0  0  0  0  0
    6.3962    4.0185    0.0000 C   0  0  0  0  0  0  0  0  0  0  0  0
    7.0413   -4.0185    0.0000 C   0  0  0  0  0  0  0  0  0  0  0  0
    7.9924   -3.7095    0.0000 C   0  0  0  0  0  0  0  0  0  0  0  0
    2.0000   -0.6526    0.0000 C   0  0  0  0  0  0  0  0  0  0  0  0
    5.6973    1.8940    0.0000 H   0  0  0  0  0  0  0  0  0  0  0  0
    4.9082    1.6376    0.0000 H   0  0  0  0  0  0  0  0  0  0  0  0
    4.3966    0.9334    0.0000 H   0  0  0  0  0  0  0  0  0  0  0  0
    4.3966    0.1037    0.0000 H   0  0  0  0  0  0  0  0  0  0  0  0
    5.1402   -1.3278    0.0000 H   0  0  0  0  0  0  0  0  0  0  0  0
    5.7325   -1.8612    0.0000 H   0  0  0  0  0  0  0  0  0  0  0  0
    7.3463   -1.3632    0.0000 H   0  0  0  0  0  0  0  0  0  0  0  0
    6.7539   -0.8298    0.0000 H   0  0  0  0  0  0  0  0  0  0  0  0
    4.0693    0.0425    0.0000 H   0  0  0  0  0  0  0  0  0  0  0  0
    3.2766   -0.0408    0.0000 H   0  0  0  0  0  0  0  0  0  0  0  0
    4.9932    2.2085    0.0000 H   0  0  0  0  0  0  0  0  0  0  0  0
    7.7991    2.2085    0.0000 H   0  0  0  0  0  0  0  0  0  0  0  0
    7.4797   -1.9621    0.0000 H   0  0  0  0  0  0  0  0  0  0  0  0
    2.5668   -1.5733    0.0000 H   0  0  0  0  0  0  0  0  0  0  0  0
    3.3595   -1.4900    0.0000 H   0  0  0  0  0  0  0  0  0  0  0  0
    4.9932    3.8285    0.0000 H   0  0  0  0  0  0  0  0  0  0  0  0
    7.7991    3.8285    0.0000 H   0  0  0  0  0  0  0  0  0  0  0  0
    6.3962    4.6385    0.0000 H   0  0  0  0  0  0  0  0  0  0  0  0
    6.5044   -4.3285    0.0000 H   0  0  0  0  0  0  0  0  0  0  0  0
    7.2935   -4.5849    0.0000 H   0  0  0  0  0  0  0  0  0  0  0  0
    8.1213   -4.3160    0.0000 H   0  0  0  0  0  0  0  0  0  0  0  0
    8.6090   -3.6447    0.0000 H   0  0  0  0  0  0  0  0  0  0  0  0
    2.2522   -0.0862    0.0000 H   0  0  0  0  0  0  0  0  0  0  0  0
    1.4336   -0.4004    0.0000 H   0  0  0  0  0  0  0  0  0  0  0  0
    1.7478   -1.2190    0.0000 H   0  0  0  0  0  0  0  0  0  0  0  0
  1  5  1  0  0  0  0
  1  6  1  0  0  0  0
  2 12  2  0  0  0  0
  3 17  1  0  0  0  0
  3 22  1  0  0  0  0
  4 17  1  0  0  0  0
  4 23  1  0  0  0  0
  5  6  1  0  0  0  0
  5  7  1  0  0  0  0
  6  8  1  0  0  0  0
  6 11  1  6  0  0  0
  7  9  1  0  0  0  0
  7 10  1  1  0  0  0
  7 12  1  0  0  0  0
  8  9  1  0  0  0  0
  8 25  1  0  0  0  0
  8 26  1  0  0  0  0
  9 27  1  0  0  0  0
  9 28  1  0  0  0  0
 10 13  1  0  0  0  0
 10 29  1  0  0  0  0
 10 30  1  0  0  0  0
 11 15  2  0  0  0  0
 11 16  1  0  0  0  0
 12 14  1  0  0  0  0
 13 17  1  0  0  0  0
 13 31  1  0  0  0  0
 13 32  1  0  0  0  0
 14 18  1  0  0  0  0
 14 33  1  0  0  0  0
 14 34  1  0  0  0  0
 15 19  1  0  0  0  0
 15 35  1  0  0  0  0
 16 20  2  0  0  0  0
 16 36  1  0  0  0  0
 17 37  1  0  0  0  0
 18 24  1  0  0  0  0
 18 38  1  0  0  0  0
 18 39  1  0  0  0  0
 19 21  2  0  0  0  0
 19 40  1  0  0  0  0
 20 21  1  0  0  0  0
 20 41  1  0  0  0  0
 21 42  1  0  0  0  0
 22 23  1  0  0  0  0
 22 43  1  0  0  0  0
 22 44  1  0  0  0  0
 23 45  1  0  0  0  0
 23 46  1  0  0  0  0
 24 47  1  0  0  0  0
 24 48  1  0  0  0  0
 24 49  1  0  0  0  0
M  END
> <PUBCHEM_COMPOUND_CID>
515205
> <PUBCHEM_COMPOUND_CANONICALIZED>
1
> <PUBCHEM_CACTVS_COMPLEXITY>
472
> <PUBCHEM_CACTVS_HBOND_ACCEPTOR>
5
> <PUBCHEM_CACTVS_HBOND_DONOR>
0
> <PUBCHEM_CACTVS_ROTATABLE_BOND>
7
> <PUBCHEM_CACTVS_SUBSKEYS>
AAADceB6OAAAAAAAAAAAAAAAFgAAAWJAAAA8QAAAAAAAAAABAAAAHgAEAAAADIyxmAMyCIIQBACIAqBSAACCAAAgAAAoiAGADIgZJjKAkTGmMAhkwAGOiAe4zeDeAAAAAAAAAAAAAAAAAAAAAAAAAAAAAA==
> <PUBCHEM_IUPAC_OPENEYE_NAME>
1-[(2R,5S)-2-[2-(1,3-dioxolan-2-yl)ethyl]-5-phenyl-6-oxa-1-azabicyclo[3.1.0]hexan-2-yl]butan-1-one
> <PUBCHEM_IUPAC_CAS_NAME>
1-[(2R,5S)-2-[2-(1,3-dioxolan-2-yl)ethyl]-5-phenyl-6-oxa-1-azabicyclo[3.1.0]hexan-2-yl]-1-butanone
> <PUBCHEM_IUPAC_NAME_MARKUP>
1-[(2<I>R</I>,5<I>S</I>)-2-[2-(1,3-dioxolan-2-yl)ethyl]-5-phenyl-6-oxa-1-azabicyclo[3.1.0]hexan-2-yl]butan-1-one
> <PUBCHEM_IUPAC_NAME>
1-[(2R,5S)-2-[2-(1,3-dioxolan-2-yl)ethyl]-5-phenyl-6-oxa-1-azabicyclo[3.1.0]hexan-2-yl]butan-1-one
> <PUBCHEM_IUPAC_SYSTEMATIC_NAME>
1-[(2R,5S)-2-[2-(1,3-dioxolan-2-yl)ethyl]-5-phenyl-6-oxa-1-azabicyclo[3.1.0]hexan-2-yl]butan-1-one
> <PUBCHEM_IUPAC_TRADITIONAL_NAME>
1-[(2R,5S)-2-[2-(1,3-dioxolan-2-yl)ethyl]-5-phenyl-6-oxa-1-azabicyclo[3.1.0]hexan-2-yl]butan-1-one
> <PUBCHEM_IUPAC_INCHI>
InChI=1S/C19H25NO4/c1-2-6-16(21)18(10-9-17-22-13-14-23-17)11-12-19(20(18)24-19)15-7-4-3-5-8-15/h3-5,7-8,17H,2,6,9-14H2,1H3/t18-,19-,20?/m0/s1
> <PUBCHEM_IUPAC_INCHIKEY>
UNQXGBPGWUREES-NFBCFJMWSA-N
> <PUBCHEM_XLOGP3_AA>
2.8
> <PUBCHEM_EXACT_MASS>
331.17835828
> <PUBCHEM_MOLECULAR_FORMULA>
C19H25NO4
> <PUBCHEM_MOLECULAR_WEIGHT>
331.4
> <PUBCHEM_OPENEYE_CAN_SMILES>
CCCC(=O)C1(CCC2(N1O2)C3=CC=CC=C3)CCC4OCCO4
> <PUBCHEM_OPENEYE_ISO_SMILES>
CCCC(=O)[C@@]1(CC[C@@]2(N1O2)C3=CC=CC=C3)CCC4OCCO4
> <PUBCHEM_CACTVS_TPSA>
51.1
> <PUBCHEM_MONOISOTOPIC_WEIGHT>
331.17835828
> <PUBCHEM_TOTAL_CHARGE>
0
> <PUBCHEM_HEAVY_ATOM_COUNT>
24
> <PUBCHEM_ATOM_DEF_STEREO_COUNT>
2
> <PUBCHEM_ATOM_UDEF_STEREO_COUNT>
0
> <PUBCHEM_BOND_DEF_STEREO_COUNT>
0
> <PUBCHEM_BOND_UDEF_STEREO_COUNT>
0
> <PUBCHEM_ISOTOPIC_ATOM_COUNT>
0
> <PUBCHEM_COMPONENT_COUNT>
1
> <PUBCHEM_CACTVS_TAUTO_COUNT>
-1
> <PUBCHEM_COORDINATE_TYPE>
1
5
255
> <PUBCHEM_BONDANNOTATIONS>
11  15  8
11  16  8
15  19  8
16  20  8
19  21  8
20  21  8
6  11  6
7  10  5
$$$$
