515220
  -OEChem-10302200282D
 45 48  0     1  0  0  0  0  0999 V2000
    5.9405    0.4245    0.0000 O   0  0  0  0  0  0  0  0  0  0  0  0
    3.4026    0.9289    0.0000 O   0  0  0  0  0  0  0  0  0  0  0  0
    4.6844    2.6868    0.0000 O   0  0  0  0  0  0  0  0  0  0  0  0
    8.4752    2.1890    0.0000 O   0  0  0  0  0  0  0  0  0  0  0  0
    4.6783   -0.8334    0.0000 N   0  0  0  0  0  0  0  0  0  0  0  0
    4.6783   -2.4428    0.0000 N   0  0  0  0  0  0  0  0  0  0  0  0
    2.8660   -0.6381    0.0000 N   0  0  0  0  0  0  0  0  0  0  0  0
    7.6651    1.6026    0.0000 N   0  0  0  0  0  0  0  0  0  0  0  0
    2.0000   -2.1381    0.0000 N   0  0  0  0  0  0  0  0  0  0  0  0
    2.8660   -3.6381    0.0000 N   0  0  0  0  0  0  0  0  0  0  0  0
    4.4026    0.9272    0.0000 C   0  0  1  0  0  0  0  0  0  0  0  0
    4.9889    0.1171    0.0000 C   0  0  1  0  0  0  0  0  0  0  0  0
    4.9917    1.7352    0.0000 C   0  0  1  0  0  0  0  0  0  0  0  0
    5.9422    1.4245    0.0000 C   0  0  1  0  0  0  0  0  0  0  0  0
    6.7523    2.0109    0.0000 C   0  0  0  0  0  0  0  0  0  0  0  0
    3.7320   -1.1381    0.0000 C   0  0  0  0  0  0  0  0  0  0  0  0
    5.2619   -1.6381    0.0000 C   0  0  0  0  0  0  0  0  0  0  0  0
    3.7320   -2.1381    0.0000 C   0  0  0  0  0  0  0  0  0  0  0  0
    2.8660   -2.6381    0.0000 C   0  0  0  0  0  0  0  0  0  0  0  0
    2.0000   -1.1381    0.0000 C   0  0  0  0  0  0  0  0  0  0  0  0
    9.3880    1.7806    0.0000 C   0  0  0  0  0  0  0  0  0  0  0  0
   10.1980    2.3670    0.0000 C   0  0  0  0  0  0  0  0  0  0  0  0
   11.1109    1.9587    0.0000 C   0  0  0  0  0  0  0  0  0  0  0  0
   10.0952    3.3617    0.0000 C   0  0  0  0  0  0  0  0  0  0  0  0
   11.9209    2.5451    0.0000 C   0  0  0  0  0  0  0  0  0  0  0  0
   10.9053    3.9481    0.0000 C   0  0  0  0  0  0  0  0  0  0  0  0
   11.8181    3.5398    0.0000 C   0  0  0  0  0  0  0  0  0  0  0  0
    4.1220    1.4801    0.0000 H   0  0  0  0  0  0  0  0  0  0  0  0
    5.4266   -0.3220    0.0000 H   0  0  0  0  0  0  0  0  0  0  0  0
    5.4309    2.1728    0.0000 H   0  0  0  0  0  0  0  0  0  0  0  0
    6.4942    1.1421    0.0000 H   0  0  0  0  0  0  0  0  0  0  0  0
    6.6886    2.6276    0.0000 H   0  0  0  0  0  0  0  0  0  0  0  0
    3.0935    1.4664    0.0000 H   0  0  0  0  0  0  0  0  0  0  0  0
    5.1000    3.1468    0.0000 H   0  0  0  0  0  0  0  0  0  0  0  0
    5.8819   -1.6381    0.0000 H   0  0  0  0  0  0  0  0  0  0  0  0
    1.4631   -0.8281    0.0000 H   0  0  0  0  0  0  0  0  0  0  0  0
    2.3291   -3.9481    0.0000 H   0  0  0  0  0  0  0  0  0  0  0  0
    3.4030   -3.9481    0.0000 H   0  0  0  0  0  0  0  0  0  0  0  0
    9.0404    1.2672    0.0000 H   0  0  0  0  0  0  0  0  0  0  0  0
    9.8332    1.3492    0.0000 H   0  0  0  0  0  0  0  0  0  0  0  0
   11.1746    1.3420    0.0000 H   0  0  0  0  0  0  0  0  0  0  0  0
    9.5293    3.6149    0.0000 H   0  0  0  0  0  0  0  0  0  0  0  0
   12.4869    2.2919    0.0000 H   0  0  0  0  0  0  0  0  0  0  0  0
   10.8415    4.5648    0.0000 H   0  0  0  0  0  0  0  0  0  0  0  0
   12.3203    3.9034    0.0000 H   0  0  0  0  0  0  0  0  0  0  0  0
  1 12  1  0  0  0  0
  1 14  1  0  0  0  0
 11  2  1  6  0  0  0
  2 33  1  0  0  0  0
 13  3  1  6  0  0  0
  3 34  1  0  0  0  0
  4  8  1  0  0  0  0
  4 21  1  0  0  0  0
 12  5  1  1  0  0  0
  5 16  1  0  0  0  0
  5 17  1  0  0  0  0
  6 17  2  0  0  0  0
  6 18  1  0  0  0  0
  7 16  2  0  0  0  0
  7 20  1  0  0  0  0
  8 15  2  3  0  0  0
  9 19  1  0  0  0  0
  9 20  2  0  0  0  0
 10 19  1  0  0  0  0
 10 37  1  0  0  0  0
 10 38  1  0  0  0  0
 11 12  1  0  0  0  0
 11 13  1  0  0  0  0
 11 28  1  0  0  0  0
 12 29  1  0  0  0  0
 13 14  1  0  0  0  0
 13 30  1  0  0  0  0
 14 15  1  1  0  0  0
 14 31  1  0  0  0  0
 15 32  1  0  0  0  0
 16 18  1  0  0  0  0
 17 35  1  0  0  0  0
 18 19  2  0  0  0  0
 20 36  1  0  0  0  0
 21 22  1  0  0  0  0
 21 39  1  0  0  0  0
 21 40  1  0  0  0  0
 22 23  2  0  0  0  0
 22 24  1  0  0  0  0
 23 25  1  0  0  0  0
 23 41  1  0  0  0  0
 24 26  2  0  0  0  0
 24 42  1  0  0  0  0
 25 27  2  0  0  0  0
 25 43  1  0  0  0  0
 26 27  1  0  0  0  0
 26 44  1  0  0  0  0
 27 45  1  0  0  0  0
M  END
> <PUBCHEM_COMPOUND_CID>
515220
> <PUBCHEM_COMPOUND_CANONICALIZED>
1
> <PUBCHEM_CACTVS_COMPLEXITY>
520
> <PUBCHEM_CACTVS_HBOND_ACCEPTOR>
9
> <PUBCHEM_CACTVS_HBOND_DONOR>
3
> <PUBCHEM_CACTVS_ROTATABLE_BOND>
5
> <PUBCHEM_CACTVS_SUBSKEYS>
AAADceB7uAAAAAAAAAAAAAAAAAAAAWJAAAA8QAAAAAAAAFgB/AAAHgAUCAAADBzhnwY18L9cFgCgAzZjZASCgC0xEKAJ2CA4XJiLfiLA2VCedAgvwAPbiCewwCAOAAAAAAAAAAAAAAAAAAAAAAAAAAAAAA==
> <PUBCHEM_IUPAC_OPENEYE_NAME>
(2R,3R,4S,5R)-2-(6-aminopurin-9-yl)-5-(benzyloxyiminomethyl)tetrahydrofuran-3,4-diol
> <PUBCHEM_IUPAC_CAS_NAME>
(2R,3R,4S,5R)-2-(6-aminopurin-9-yl)-5-(phenylmethoxyiminomethyl)oxolane-3,4-diol
> <PUBCHEM_IUPAC_NAME_MARKUP>
(2<I>R</I>,3<I>R</I>,4<I>S</I>,5<I>R</I>)-2-(6-aminopurin-9-yl)-5-(phenylmethoxyiminomethyl)oxolane-3,4-diol
> <PUBCHEM_IUPAC_NAME>
(2R,3R,4S,5R)-2-(6-aminopurin-9-yl)-5-(phenylmethoxyiminomethyl)oxolane-3,4-diol
> <PUBCHEM_IUPAC_SYSTEMATIC_NAME>
(2R,3R,4S,5R)-2-(6-aminopurin-9-yl)-5-(phenylmethoxyiminomethyl)oxolane-3,4-diol
> <PUBCHEM_IUPAC_TRADITIONAL_NAME>
(2R,3R,4S,5R)-2-adenin-9-yl-5-(benzyloximinomethyl)tetrahydrofuran-3,4-diol
> <PUBCHEM_IUPAC_INCHI>
InChI=1S/C17H18N6O4/c18-15-12-16(20-8-19-15)23(9-21-12)17-14(25)13(24)11(27-17)6-22-26-7-10-4-2-1-3-5-10/h1-6,8-9,11,13-14,17,24-25H,7H2,(H2,18,19,20)/t11-,13-,14-,17-/m1/s1
> <PUBCHEM_IUPAC_INCHIKEY>
IJZVRNLYGCRZES-LSCFUAHRSA-N
> <PUBCHEM_XLOGP3>
0.7
> <PUBCHEM_EXACT_MASS>
370.13895308
> <PUBCHEM_MOLECULAR_FORMULA>
C17H18N6O4
> <PUBCHEM_MOLECULAR_WEIGHT>
370.4
> <PUBCHEM_OPENEYE_CAN_SMILES>
C1=CC=C(C=C1)CON=CC2C(C(C(O2)N3C=NC4=C(N=CN=C43)N)O)O
> <PUBCHEM_OPENEYE_ISO_SMILES>
C1=CC=C(C=C1)CON=C[C@@H]2[C@H]([C@H]([C@@H](O2)N3C=NC4=C(N=CN=C43)N)O)O
> <PUBCHEM_CACTVS_TPSA>
141
> <PUBCHEM_MONOISOTOPIC_WEIGHT>
370.13895308
> <PUBCHEM_TOTAL_CHARGE>
0
> <PUBCHEM_HEAVY_ATOM_COUNT>
27
> <PUBCHEM_ATOM_DEF_STEREO_COUNT>
4
> <PUBCHEM_ATOM_UDEF_STEREO_COUNT>
0
> <PUBCHEM_BOND_DEF_STEREO_COUNT>
0
> <PUBCHEM_BOND_UDEF_STEREO_COUNT>
1
> <PUBCHEM_ISOTOPIC_ATOM_COUNT>
0
> <PUBCHEM_COMPONENT_COUNT>
1
> <PUBCHEM_CACTVS_TAUTO_COUNT>
-1
> <PUBCHEM_COORDINATE_TYPE>
1
5
255
> <PUBCHEM_BONDANNOTATIONS>
14  15  5
16  18  8
18  19  8
11  2  6
22  23  8
22  24  8
23  25  8
24  26  8
25  27  8
26  27  8
13  3  6
12  5  5
5  16  8
5  17  8
6  17  8
6  18  8
7  16  8
7  20  8
8  15  1
9  19  8
9  20  8
$$$$
