515299
  -OEChem-10302200282D
145148  0     1  0  0  0  0  0999 V2000
   11.1314    5.8390    0.0000 O   0  0  0  0  0  0  0  0  0  0  0  0
   12.0492    4.3701    0.0000 O   0  0  0  0  0  0  0  0  0  0  0  0
   11.5263    1.8700    0.0000 O   0  0  0  0  0  0  0  0  0  0  0  0
   10.6603    1.3700    0.0000 O   0  0  0  0  0  0  0  0  0  0  0  0
    7.1962    0.3700    0.0000 O   0  0  0  0  0  0  0  0  0  0  0  0
   10.6603    0.3700    0.0000 O   0  0  0  0  0  0  0  0  0  0  0  0
    6.3301   -0.1300    0.0000 O   0  0  0  0  0  0  0  0  0  0  0  0
    2.8660   -1.1300    0.0000 O   0  0  0  0  0  0  0  0  0  0  0  0
    9.7942    2.8700    0.0000 N   0  0  0  0  0  0  0  0  0  0  0  0
   12.5263    2.8700    0.0000 N   0  0  0  0  0  0  0  0  0  0  0  0
    9.7942   -1.1300    0.0000 N   0  0  0  0  0  0  0  0  0  0  0  0
    5.4641    1.3700    0.0000 N   0  0  0  0  0  0  0  0  0  0  0  0
    4.5981   -1.1300    0.0000 N   0  0  0  0  0  0  0  0  0  0  0  0
   10.3182    4.3097    0.0000 C   0  0  0  0  0  0  0  0  0  0  0  0
    9.3785    3.9676    0.0000 C   0  0  0  0  0  0  0  0  0  0  0  0
   10.2833    5.3090    0.0000 C   0  0  0  0  0  0  0  0  0  0  0  0
   10.6603    3.3700    0.0000 C   0  0  1  0  0  0  0  0  0  0  0  0
    8.7629    4.7556    0.0000 C   0  0  0  0  0  0  0  0  0  0  0  0
    9.3221    5.5847    0.0000 C   0  0  0  0  0  0  0  0  0  0  0  0
   11.1663    4.8396    0.0000 C   0  0  0  0  0  0  0  0  0  0  0  0
   11.5263    2.8700    0.0000 C   0  0  0  0  0  0  0  0  0  0  0  0
   13.0263    2.0039    0.0000 C   0  0  1  0  0  0  0  0  0  0  0  0
   14.0263    2.0039    0.0000 C   0  0  0  0  0  0  0  0  0  0  0  0
    9.7942    1.8700    0.0000 C   0  0  0  0  0  0  0  0  0  0  0  0
    8.9282    1.3700    0.0000 C   0  0  1  0  0  0  0  0  0  0  0  0
   12.5263    1.1379    0.0000 C   0  0  0  0  0  0  0  0  0  0  0  0
    8.0622    1.8700    0.0000 C   0  0  0  0  0  0  0  0  0  0  0  0
    8.9282    0.3700    0.0000 C   0  0  0  0  0  0  0  0  0  0  0  0
   15.0263    2.0039    0.0000 C   0  0  0  0  0  0  0  0  0  0  0  0
   14.0263    1.0039    0.0000 C   0  0  0  0  0  0  0  0  0  0  0  0
   14.0263    3.0039    0.0000 C   0  0  0  0  0  0  0  0  0  0  0  0
    6.3301    1.8700    0.0000 C   0  0  2  0  0  0  0  0  0  0  0  0
    7.1962    1.3700    0.0000 C   0  0  0  0  0  0  0  0  0  0  0  0
    6.3301    2.8700    0.0000 C   0  0  0  0  0  0  0  0  0  0  0  0
   13.0263    0.2719    0.0000 C   0  0  0  0  0  0  0  0  0  0  0  0
    9.7942   -0.1300    0.0000 C   0  0  0  0  0  0  0  0  0  0  0  0
    8.9852   -1.7178    0.0000 C   0  0  0  0  0  0  0  0  0  0  0  0
   10.6032   -1.7178    0.0000 C   0  0  0  0  0  0  0  0  0  0  0  0
    6.3301    3.8700    0.0000 C   0  0  0  0  0  0  0  0  0  0  0  0
    7.3301    2.8700    0.0000 C   0  0  0  0  0  0  0  0  0  0  0  0
    5.3301    2.8700    0.0000 C   0  0  0  0  0  0  0  0  0  0  0  0
    9.2942   -2.6689    0.0000 C   0  0  0  0  0  0  0  0  0  0  0  0
   10.2942   -2.6689    0.0000 C   0  0  0  0  0  0  0  0  0  0  0  0
    4.5981   -0.1300    0.0000 C   0  0  2  0  0  0  0  0  0  0  0  0
    5.4641    0.3700    0.0000 C   0  0  0  0  0  0  0  0  0  0  0  0
    3.7320    0.3700    0.0000 C   0  0  0  0  0  0  0  0  0  0  0  0
    3.7320   -2.6300    0.0000 C   0  0  3  0  0  0  0  0  0  0  0  0
    3.7320   -1.6300    0.0000 C   0  0  0  0  0  0  0  0  0  0  0  0
    3.7320    1.3700    0.0000 C   0  0  0  0  0  0  0  0  0  0  0  0
    2.8660   -0.1300    0.0000 C   0  0  0  0  0  0  0  0  0  0  0  0
    5.4641   -1.6300    0.0000 C   0  0  0  0  0  0  0  0  0  0  0  0
    4.5981   -3.1300    0.0000 C   0  0  0  0  0  0  0  0  0  0  0  0
    2.8660   -3.1300    0.0000 C   0  0  0  0  0  0  0  0  0  0  0  0
    5.4641   -2.6300    0.0000 C   0  0  0  0  0  0  0  0  0  0  0  0
    2.8660   -4.1300    0.0000 C   0  0  0  0  0  0  0  0  0  0  0  0
    6.3301   -3.1300    0.0000 C   0  0  0  0  0  0  0  0  0  0  0  0
    2.0000   -4.6300    0.0000 C   0  0  0  0  0  0  0  0  0  0  0  0
    3.7320   -4.6300    0.0000 C   0  0  0  0  0  0  0  0  0  0  0  0
    7.1962   -2.6300    0.0000 C   0  0  0  0  0  0  0  0  0  0  0  0
    6.3301   -4.1300    0.0000 C   0  0  0  0  0  0  0  0  0  0  0  0
    2.0000   -5.6300    0.0000 C   0  0  0  0  0  0  0  0  0  0  0  0
    3.7320   -5.6300    0.0000 C   0  0  0  0  0  0  0  0  0  0  0  0
    2.8660   -6.1300    0.0000 C   0  0  0  0  0  0  0  0  0  0  0  0
    8.0622   -3.1300    0.0000 C   0  0  0  0  0  0  0  0  0  0  0  0
    7.1962   -4.6300    0.0000 C   0  0  0  0  0  0  0  0  0  0  0  0
    8.0622   -4.1300    0.0000 C   0  0  0  0  0  0  0  0  0  0  0  0
    8.8528    3.6391    0.0000 H   0  0  0  0  0  0  0  0  0  0  0  0
    9.6503    3.4104    0.0000 H   0  0  0  0  0  0  0  0  0  0  0  0
   10.9018    5.2658    0.0000 H   0  0  0  0  0  0  0  0  0  0  0  0
   10.3910    5.9196    0.0000 H   0  0  0  0  0  0  0  0  0  0  0  0
   10.6603    2.7500    0.0000 H   0  0  0  0  0  0  0  0  0  0  0  0
    8.2879    5.1542    0.0000 H   0  0  0  0  0  0  0  0  0  0  0  0
    8.3169    4.3250    0.0000 H   0  0  0  0  0  0  0  0  0  0  0  0
    9.5543    6.1595    0.0000 H   0  0  0  0  0  0  0  0  0  0  0  0
    8.7746    5.8758    0.0000 H   0  0  0  0  0  0  0  0  0  0  0  0
    9.2573    3.1800    0.0000 H   0  0  0  0  0  0  0  0  0  0  0  0
   12.4063    2.0039    0.0000 H   0  0  0  0  0  0  0  0  0  0  0  0
   12.8363    3.4069    0.0000 H   0  0  0  0  0  0  0  0  0  0  0  0
    9.4651    1.0600    0.0000 H   0  0  0  0  0  0  0  0  0  0  0  0
   12.0513    1.5364    0.0000 H   0  0  0  0  0  0  0  0  0  0  0  0
   12.0513    0.7394    0.0000 H   0  0  0  0  0  0  0  0  0  0  0  0
   10.5840    6.1300    0.0000 H   0  0  0  0  0  0  0  0  0  0  0  0
    8.4607    2.3449    0.0000 H   0  0  0  0  0  0  0  0  0  0  0  0
    7.6636    2.3449    0.0000 H   0  0  0  0  0  0  0  0  0  0  0  0
    8.3176    0.4776    0.0000 H   0  0  0  0  0  0  0  0  0  0  0  0
    8.7162   -0.2126    0.0000 H   0  0  0  0  0  0  0  0  0  0  0  0
   15.0263    1.3839    0.0000 H   0  0  0  0  0  0  0  0  0  0  0  0
   15.6463    2.0039    0.0000 H   0  0  0  0  0  0  0  0  0  0  0  0
   15.0263    2.6239    0.0000 H   0  0  0  0  0  0  0  0  0  0  0  0
   13.4063    1.0039    0.0000 H   0  0  0  0  0  0  0  0  0  0  0  0
   14.0263    0.3839    0.0000 H   0  0  0  0  0  0  0  0  0  0  0  0
   14.6463    1.0039    0.0000 H   0  0  0  0  0  0  0  0  0  0  0  0
   14.6463    3.0039    0.0000 H   0  0  0  0  0  0  0  0  0  0  0  0
   14.0263    3.6239    0.0000 H   0  0  0  0  0  0  0  0  0  0  0  0
   13.4063    3.0039    0.0000 H   0  0  0  0  0  0  0  0  0  0  0  0
    5.7932    2.1800    0.0000 H   0  0  0  0  0  0  0  0  0  0  0  0
   12.4893   -0.0381    0.0000 H   0  0  0  0  0  0  0  0  0  0  0  0
   13.3363   -0.2650    0.0000 H   0  0  0  0  0  0  0  0  0  0  0  0
   13.5632    0.5819    0.0000 H   0  0  0  0  0  0  0  0  0  0  0  0
    8.6752   -1.1809    0.0000 H   0  0  0  0  0  0  0  0  0  0  0  0
    8.4188   -1.9700    0.0000 H   0  0  0  0  0  0  0  0  0  0  0  0
   11.1696   -1.9700    0.0000 H   0  0  0  0  0  0  0  0  0  0  0  0
   10.9132   -1.1809    0.0000 H   0  0  0  0  0  0  0  0  0  0  0  0
    4.9272    1.6800    0.0000 H   0  0  0  0  0  0  0  0  0  0  0  0
    6.9501    3.8700    0.0000 H   0  0  0  0  0  0  0  0  0  0  0  0
    6.3301    4.4900    0.0000 H   0  0  0  0  0  0  0  0  0  0  0  0
    5.7101    3.8700    0.0000 H   0  0  0  0  0  0  0  0  0  0  0  0
    7.3301    2.2500    0.0000 H   0  0  0  0  0  0  0  0  0  0  0  0
    7.9501    2.8700    0.0000 H   0  0  0  0  0  0  0  0  0  0  0  0
    7.3301    3.4900    0.0000 H   0  0  0  0  0  0  0  0  0  0  0  0
    5.3301    3.4900    0.0000 H   0  0  0  0  0  0  0  0  0  0  0  0
    4.7101    2.8700    0.0000 H   0  0  0  0  0  0  0  0  0  0  0  0
    5.3301    2.2500    0.0000 H   0  0  0  0  0  0  0  0  0  0  0  0
    8.6878   -2.7978    0.0000 H   0  0  0  0  0  0  0  0  0  0  0  0
    9.3590   -3.2855    0.0000 H   0  0  0  0  0  0  0  0  0  0  0  0
   10.2294   -3.2855    0.0000 H   0  0  0  0  0  0  0  0  0  0  0  0
   10.9007   -2.7978    0.0000 H   0  0  0  0  0  0  0  0  0  0  0  0
    5.1350   -0.4400    0.0000 H   0  0  0  0  0  0  0  0  0  0  0  0
    3.7320   -0.2500    0.0000 H   0  0  0  0  0  0  0  0  0  0  0  0
    3.7320   -3.2500    0.0000 H   0  0  0  0  0  0  0  0  0  0  0  0
    4.3520    1.3700    0.0000 H   0  0  0  0  0  0  0  0  0  0  0  0
    3.7320    1.9900    0.0000 H   0  0  0  0  0  0  0  0  0  0  0  0
    3.1120    1.3700    0.0000 H   0  0  0  0  0  0  0  0  0  0  0  0
    2.5560    0.4069    0.0000 H   0  0  0  0  0  0  0  0  0  0  0  0
    2.3291   -0.4400    0.0000 H   0  0  0  0  0  0  0  0  0  0  0  0
    3.1760   -0.6670    0.0000 H   0  0  0  0  0  0  0  0  0  0  0  0
    5.1541   -2.1670    0.0000 H   0  0  0  0  0  0  0  0  0  0  0  0
    6.0010   -1.9400    0.0000 H   0  0  0  0  0  0  0  0  0  0  0  0
    5.7741   -1.0931    0.0000 H   0  0  0  0  0  0  0  0  0  0  0  0
    4.1996   -3.6050    0.0000 H   0  0  0  0  0  0  0  0  0  0  0  0
    4.9966   -3.6050    0.0000 H   0  0  0  0  0  0  0  0  0  0  0  0
    2.6540   -2.5474    0.0000 H   0  0  0  0  0  0  0  0  0  0  0  0
    2.2554   -3.2377    0.0000 H   0  0  0  0  0  0  0  0  0  0  0  0
    5.8626   -2.1551    0.0000 H   0  0  0  0  0  0  0  0  0  0  0  0
    5.0656   -2.1551    0.0000 H   0  0  0  0  0  0  0  0  0  0  0  0
    1.4631   -4.3200    0.0000 H   0  0  0  0  0  0  0  0  0  0  0  0
    4.2690   -4.3200    0.0000 H   0  0  0  0  0  0  0  0  0  0  0  0
    7.1962   -2.0100    0.0000 H   0  0  0  0  0  0  0  0  0  0  0  0
    5.7932   -4.4400    0.0000 H   0  0  0  0  0  0  0  0  0  0  0  0
    1.4631   -5.9400    0.0000 H   0  0  0  0  0  0  0  0  0  0  0  0
    4.2690   -5.9400    0.0000 H   0  0  0  0  0  0  0  0  0  0  0  0
    2.8660   -6.7500    0.0000 H   0  0  0  0  0  0  0  0  0  0  0  0
    8.5991   -2.8200    0.0000 H   0  0  0  0  0  0  0  0  0  0  0  0
    7.1962   -5.2500    0.0000 H   0  0  0  0  0  0  0  0  0  0  0  0
    8.5991   -4.4400    0.0000 H   0  0  0  0  0  0  0  0  0  0  0  0
  1 20  1  0  0  0  0
  1 82  1  0  0  0  0
  2 20  2  0  0  0  0
  3 21  2  0  0  0  0
  4 24  2  0  0  0  0
  5 33  2  0  0  0  0
  6 36  2  0  0  0  0
  7 45  2  0  0  0  0
  8 48  2  0  0  0  0
 17  9  1  1  0  0  0
  9 24  1  0  0  0  0
  9 76  1  0  0  0  0
 10 21  1  0  0  0  0
 22 10  1  1  0  0  0
 10 78  1  0  0  0  0
 11 36  1  0  0  0  0
 11 37  1  0  0  0  0
 11 38  1  0  0  0  0
 32 12  1  1  0  0  0
 12 45  1  0  0  0  0
 12104  1  0  0  0  0
 44 13  1  1  0  0  0
 13 48  1  0  0  0  0
 13 51  1  0  0  0  0
 14 15  1  0  0  0  0
 14 16  1  0  0  0  0
 14 17  1  0  0  0  0
 14 20  1  0  0  0  0
 15 18  1  0  0  0  0
 15 67  1  0  0  0  0
 15 68  1  0  0  0  0
 16 19  1  0  0  0  0
 16 69  1  0  0  0  0
 16 70  1  0  0  0  0
 17 21  1  0  0  0  0
 17 71  1  0  0  0  0
 18 19  1  0  0  0  0
 18 72  1  0  0  0  0
 18 73  1  0  0  0  0
 19 74  1  0  0  0  0
 19 75  1  0  0  0  0
 22 23  1  0  0  0  0
 22 26  1  0  0  0  0
 22 77  1  0  0  0  0
 23 29  1  0  0  0  0
 23 30  1  0  0  0  0
 23 31  1  0  0  0  0
 24 25  1  0  0  0  0
 25 27  1  0  0  0  0
 25 28  1  6  0  0  0
 25 79  1  0  0  0  0
 26 35  1  0  0  0  0
 26 80  1  0  0  0  0
 26 81  1  0  0  0  0
 27 33  1  0  0  0  0
 27 83  1  0  0  0  0
 27 84  1  0  0  0  0
 28 36  1  0  0  0  0
 28 85  1  0  0  0  0
 28 86  1  0  0  0  0
 29 87  1  0  0  0  0
 29 88  1  0  0  0  0
 29 89  1  0  0  0  0
 30 90  1  0  0  0  0
 30 91  1  0  0  0  0
 30 92  1  0  0  0  0
 31 93  1  0  0  0  0
 31 94  1  0  0  0  0
 31 95  1  0  0  0  0
 32 33  1  0  0  0  0
 32 34  1  0  0  0  0
 32 96  1  0  0  0  0
 34 39  1  0  0  0  0
 34 40  1  0  0  0  0
 34 41  1  0  0  0  0
 35 97  1  0  0  0  0
 35 98  1  0  0  0  0
 35 99  1  0  0  0  0
 37 42  1  0  0  0  0
 37100  1  0  0  0  0
 37101  1  0  0  0  0
 38 43  1  0  0  0  0
 38102  1  0  0  0  0
 38103  1  0  0  0  0
 39105  1  0  0  0  0
 39106  1  0  0  0  0
 39107  1  0  0  0  0
 40108  1  0  0  0  0
 40109  1  0  0  0  0
 40110  1  0  0  0  0
 41111  1  0  0  0  0
 41112  1  0  0  0  0
 41113  1  0  0  0  0
 42 43  1  0  0  0  0
 42114  1  0  0  0  0
 42115  1  0  0  0  0
 43116  1  0  0  0  0
 43117  1  0  0  0  0
 44 45  1  0  0  0  0
 44 46  1  0  0  0  0
 44118  1  0  0  0  0
 46 49  1  0  0  0  0
 46 50  1  0  0  0  0
 46119  1  0  0  0  0
 47 48  1  0  0  0  0
 47 52  1  0  0  0  0
 47 53  1  0  0  0  0
 47120  1  0  0  0  0
 49121  1  0  0  0  0
 49122  1  0  0  0  0
 49123  1  0  0  0  0
 50124  1  0  0  0  0
 50125  1  0  0  0  0
 50126  1  0  0  0  0
 51127  1  0  0  0  0
 51128  1  0  0  0  0
 51129  1  0  0  0  0
 52 54  1  0  0  0  0
 52130  1  0  0  0  0
 52131  1  0  0  0  0
 53 55  1  0  0  0  0
 53132  1  0  0  0  0
 53133  1  0  0  0  0
 54 56  1  0  0  0  0
 54134  1  0  0  0  0
 54135  1  0  0  0  0
 55 57  2  0  0  0  0
 55 58  1  0  0  0  0
 56 59  2  0  0  0  0
 56 60  1  0  0  0  0
 57 61  1  0  0  0  0
 57136  1  0  0  0  0
 58 62  2  0  0  0  0
 58137  1  0  0  0  0
 59 64  1  0  0  0  0
 59138  1  0  0  0  0
 60 65  2  0  0  0  0
 60139  1  0  0  0  0
 61 63  2  0  0  0  0
 61140  1  0  0  0  0
 62 63  1  0  0  0  0
 62141  1  0  0  0  0
 63142  1  0  0  0  0
 64 66  2  0  0  0  0
 64143  1  0  0  0  0
 65 66  1  0  0  0  0
 65144  1  0  0  0  0
 66145  1  0  0  0  0
M  END
> <PUBCHEM_COMPOUND_CID>
515299
> <PUBCHEM_COMPOUND_CANONICALIZED>
1
> <PUBCHEM_CACTVS_COMPLEXITY>
1640
> <PUBCHEM_CACTVS_HBOND_ACCEPTOR>
8
> <PUBCHEM_CACTVS_HBOND_DONOR>
4
> <PUBCHEM_CACTVS_ROTATABLE_BOND>
24
> <PUBCHEM_CACTVS_SUBSKEYS>
AAADcfB/vAAAAAAAAAAAAAAAAAAAAeIAAAAwYAAAAAAAAAABQAAAHgAQCAAADyzBmAQyCIPAAgCIAqHSGAACAAAgAAAIiIGIAIgIYDqAkTCUYAAmlgCIiAe/y8C/AAAAAAAAAAAAAAAAAAAAAAAAAAAAAA==
> <PUBCHEM_IUPAC_OPENEYE_NAME>
1-[(1S)-1-[[(2S,5S)-5-[[(2S)-2-[(2-benzyl-4-phenyl-butanoyl)-methyl-amino]-3-methyl-butanoyl]amino]-6,6-dimethyl-4-oxo-2-(2-oxo-2-pyrrolidin-1-yl-ethyl)heptanoyl]amino]-2-[[(1R)-1-ethyl-2,2-dimethyl-propyl]amino]-2-oxo-ethyl]cyclopentanecarboxylic acid
> <PUBCHEM_IUPAC_CAS_NAME>
1-[(1S)-1-[[(2S,5S)-6,6-dimethyl-5-[[(2S)-3-methyl-2-[methyl-[1-oxo-4-phenyl-2-(phenylmethyl)butyl]amino]-1-oxobutyl]amino]-1,4-dioxo-2-[2-oxo-2-(1-pyrrolidinyl)ethyl]heptyl]amino]-2-[[(3R)-2,2-dimethylpentan-3-yl]amino]-2-oxoethyl]-1-cyclopentanecarboxylic acid
> <PUBCHEM_IUPAC_NAME_MARKUP>
1-[(1<I>S</I>)-1-[[(2<I>S</I>,5<I>S</I>)-5-[[(2<I>S</I>)-2-[(2-benzyl-4-phenylbutanoyl)-methylamino]-3-methylbutanoyl]amino]-6,6-dimethyl-4-oxo-2-(2-oxo-2-pyrrolidin-1-ylethyl)heptanoyl]amino]-2-[[(3<I>R</I>)-2,2-dimethylpentan-3-yl]amino]-2-oxoethyl]cyclopentane-1-carboxylic acid
> <PUBCHEM_IUPAC_NAME>
1-[(1S)-1-[[(2S,5S)-5-[[(2S)-2-[(2-benzyl-4-phenylbutanoyl)-methylamino]-3-methylbutanoyl]amino]-6,6-dimethyl-4-oxo-2-(2-oxo-2-pyrrolidin-1-ylethyl)heptanoyl]amino]-2-[[(3R)-2,2-dimethylpentan-3-yl]amino]-2-oxoethyl]cyclopentane-1-carboxylic acid
> <PUBCHEM_IUPAC_SYSTEMATIC_NAME>
1-[(1S)-1-[[(2S,5S)-6,6-dimethyl-5-[[(2S)-3-methyl-2-[methyl-[4-phenyl-2-(phenylmethyl)butanoyl]amino]butanoyl]amino]-4-oxidanylidene-2-(2-oxidanylidene-2-pyrrolidin-1-yl-ethyl)heptanoyl]amino]-2-[[(3R)-2,2-dimethylpentan-3-yl]amino]-2-oxidanylidene-ethyl]cyclopentane-1-carboxylic acid
> <PUBCHEM_IUPAC_TRADITIONAL_NAME>
1-[(1S)-1-[[(2S,5S)-5-[[(2S)-2-[(2-benzyl-4-phenyl-butanoyl)-methyl-amino]-3-methyl-butanoyl]amino]-4-keto-2-(2-keto-2-pyrrolidino-ethyl)-6,6-dimethyl-heptanoyl]amino]-2-[[(1R)-1-ethyl-2,2-dimethyl-propyl]amino]-2-keto-ethyl]cyclopentanecarboxylic acid
> <PUBCHEM_IUPAC_INCHI>
InChI=1S/C53H79N5O8/c1-11-41(51(4,5)6)54-48(63)45(53(50(65)66)28-18-19-29-53)56-46(61)39(34-42(60)58-30-20-21-31-58)33-40(59)44(52(7,8)9)55-47(62)43(35(2)3)57(10)49(64)38(32-37-24-16-13-17-25-37)27-26-36-22-14-12-15-23-36/h12-17,22-25,35,38-39,41,43-45H,11,18-21,26-34H2,1-10H3,(H,54,63)(H,55,62)(H,56,61)(H,65,66)/t38?,39-,41+,43-,44+,45+/m0/s1
> <PUBCHEM_IUPAC_INCHIKEY>
YGIBVSUAWHKTEO-UPCCAZBISA-N
> <PUBCHEM_XLOGP3_AA>
8.3
> <PUBCHEM_EXACT_MASS>
913.59286450
> <PUBCHEM_MOLECULAR_FORMULA>
C53H79N5O8
> <PUBCHEM_MOLECULAR_WEIGHT>
914.2
> <PUBCHEM_OPENEYE_CAN_SMILES>
CCC(C(C)(C)C)NC(=O)C(C1(CCCC1)C(=O)O)NC(=O)C(CC(=O)C(C(C)(C)C)NC(=O)C(C(C)C)N(C)C(=O)C(CCC2=CC=CC=C2)CC3=CC=CC=C3)CC(=O)N4CCCC4
> <PUBCHEM_OPENEYE_ISO_SMILES>
CC[C@H](C(C)(C)C)NC(=O)[C@H](C1(CCCC1)C(=O)O)NC(=O)[C@@H](CC(=O)[C@H](C(C)(C)C)NC(=O)[C@H](C(C)C)N(C)C(=O)C(CCC2=CC=CC=C2)CC3=CC=CC=C3)CC(=O)N4CCCC4
> <PUBCHEM_CACTVS_TPSA>
182
> <PUBCHEM_MONOISOTOPIC_WEIGHT>
913.59286450
> <PUBCHEM_TOTAL_CHARGE>
0
> <PUBCHEM_HEAVY_ATOM_COUNT>
66
> <PUBCHEM_ATOM_DEF_STEREO_COUNT>
5
> <PUBCHEM_ATOM_UDEF_STEREO_COUNT>
1
> <PUBCHEM_BOND_DEF_STEREO_COUNT>
0
> <PUBCHEM_BOND_UDEF_STEREO_COUNT>
0
> <PUBCHEM_ISOTOPIC_ATOM_COUNT>
0
> <PUBCHEM_COMPONENT_COUNT>
1
> <PUBCHEM_CACTVS_TAUTO_COUNT>
-1
> <PUBCHEM_COORDINATE_TYPE>
1
5
255
> <PUBCHEM_BONDANNOTATIONS>
22  10  5
32  12  5
44  13  5
25  28  6
47  52  3
55  57  8
55  58  8
56  59  8
56  60  8
57  61  8
58  62  8
59  64  8
60  65  8
61  63  8
62  63  8
64  66  8
65  66  8
17  9  5
$$$$
