515263
  -OEChem-10302200282D
104105  0     1  0  0  0  0  0999 V2000
    7.4481    2.6811    0.0000 O   0  0  0  0  0  0  0  0  0  0  0  0
    9.0756   -0.9114    0.0000 O   0  0  0  0  0  0  0  0  0  0  0  0
    8.2096   -0.4114    0.0000 O   0  0  0  0  0  0  0  0  0  0  0  0
   12.5397   -1.9114    0.0000 O   0  0  0  0  0  0  0  0  0  0  0  0
    4.9544   -0.5961    0.0000 O   0  0  0  0  0  0  0  0  0  0  0  0
    6.6233   -2.6492    0.0000 O   0  0  0  0  0  0  0  0  0  0  0  0
    5.2964   -1.5358    0.0000 O   0  0  0  0  0  0  0  0  0  0  0  0
    2.9436    2.3965    0.0000 O   0  0  0  0  0  0  0  0  0  0  0  0
    4.5712    2.9889    0.0000 O   0  0  0  0  0  0  0  0  0  0  0  0
    9.9417    0.5886    0.0000 N   0  0  0  0  0  0  0  0  0  0  0  0
    8.7749    3.7943    0.0000 N   0  0  0  0  0  0  0  0  0  0  0  0
    7.2248    0.7623    0.0000 N   0  0  0  0  0  0  0  0  0  0  0  0
   10.8077   -1.9114    0.0000 N   0  0  0  0  0  0  0  0  0  0  0  0
   11.6737   -3.4114    0.0000 N   0  0  0  0  0  0  0  0  0  0  0  0
    5.2552    1.1096    0.0000 N   0  0  0  0  0  0  0  0  0  0  0  0
    9.0756    2.0886    0.0000 C   0  0  3  0  0  0  0  0  0  0  0  0
    9.0756    1.0886    0.0000 C   0  0  3  0  0  0  0  0  0  0  0  0
    9.9417    2.5886    0.0000 C   0  0  0  0  0  0  0  0  0  0  0  0
   10.8077    2.0886    0.0000 C   0  0  0  0  0  0  0  0  0  0  0  0
   10.8077    1.0886    0.0000 C   0  0  0  0  0  0  0  0  0  0  0  0
    8.4328    2.8546    0.0000 C   0  0  0  0  0  0  0  0  0  0  0  0
   10.8077   -0.9114    0.0000 C   0  0  2  0  0  0  0  0  0  0  0  0
    9.9417   -0.4114    0.0000 C   0  0  0  0  0  0  0  0  0  0  0  0
   11.6737   -0.4114    0.0000 C   0  0  0  0  0  0  0  0  0  0  0  0
    8.2096    0.5886    0.0000 C   0  0  0  0  0  0  0  0  0  0  0  0
    9.7361    4.0700    0.0000 C   0  0  0  0  0  0  0  0  0  0  0  0
    8.2157    4.6234    0.0000 C   0  0  0  0  0  0  0  0  0  0  0  0
    9.7710    5.0694    0.0000 C   0  0  0  0  0  0  0  0  0  0  0  0
    8.8313    5.4114    0.0000 C   0  0  0  0  0  0  0  0  0  0  0  0
   12.5397    0.0886    0.0000 C   0  0  0  0  0  0  0  0  0  0  0  0
   12.1737   -1.2774    0.0000 C   0  0  0  0  0  0  0  0  0  0  0  0
   11.1737    0.4546    0.0000 C   0  0  0  0  0  0  0  0  0  0  0  0
    6.5820   -0.0037    0.0000 C   0  0  1  0  0  0  0  0  0  0  0  0
   11.6737   -2.4114    0.0000 C   0  0  0  0  0  0  0  0  0  0  0  0
    6.9240   -0.9435    0.0000 C   0  0  0  0  0  0  0  0  0  0  0  0
    5.5972    0.1699    0.0000 C   0  0  0  0  0  0  0  0  0  0  0  0
   12.5397   -3.9114    0.0000 C   0  0  0  0  0  0  0  0  0  0  0  0
    4.2704    1.2832    0.0000 C   0  0  1  0  0  0  0  0  0  0  0  0
    6.2812   -1.7095    0.0000 C   0  0  0  0  0  0  0  0  0  0  0  0
   12.5397   -4.9114    0.0000 C   0  0  0  0  0  0  0  0  0  0  0  0
   13.4058   -3.4114    0.0000 C   0  0  0  0  0  0  0  0  0  0  0  0
    3.6276    0.5172    0.0000 C   0  0  0  0  0  0  0  0  0  0  0  0
    2.6428    0.6908    0.0000 C   0  0  0  0  0  0  0  0  0  0  0  0
   13.4058   -5.4114    0.0000 C   0  0  0  0  0  0  0  0  0  0  0  0
   14.2718   -3.9114    0.0000 C   0  0  0  0  0  0  0  0  0  0  0  0
    3.9284    2.2229    0.0000 C   0  0  0  0  0  0  0  0  0  0  0  0
    2.0000   -0.0752    0.0000 C   0  0  0  0  0  0  0  0  0  0  0  0
    2.3008    1.6305    0.0000 C   0  0  0  0  0  0  0  0  0  0  0  0
    8.4930    1.8766    0.0000 H   0  0  0  0  0  0  0  0  0  0  0  0
    9.0756    0.4686    0.0000 H   0  0  0  0  0  0  0  0  0  0  0  0
   10.3402    3.0636    0.0000 H   0  0  0  0  0  0  0  0  0  0  0  0
    9.5431    3.0636    0.0000 H   0  0  0  0  0  0  0  0  0  0  0  0
   11.4183    1.9810    0.0000 H   0  0  0  0  0  0  0  0  0  0  0  0
   11.0197    2.6712    0.0000 H   0  0  0  0  0  0  0  0  0  0  0  0
   11.0197    0.5060    0.0000 H   0  0  0  0  0  0  0  0  0  0  0  0
   11.4183    1.1963    0.0000 H   0  0  0  0  0  0  0  0  0  0  0  0
   11.3446   -1.2214    0.0000 H   0  0  0  0  0  0  0  0  0  0  0  0
    9.8438    3.4594    0.0000 H   0  0  0  0  0  0  0  0  0  0  0  0
   10.3546    4.1132    0.0000 H   0  0  0  0  0  0  0  0  0  0  0  0
    7.7697    5.0541    0.0000 H   0  0  0  0  0  0  0  0  0  0  0  0
    7.7407    4.2248    0.0000 H   0  0  0  0  0  0  0  0  0  0  0  0
   10.3850    4.9831    0.0000 H   0  0  0  0  0  0  0  0  0  0  0  0
    9.9210    5.6710    0.0000 H   0  0  0  0  0  0  0  0  0  0  0  0
    9.1031    5.9686    0.0000 H   0  0  0  0  0  0  0  0  0  0  0  0
    8.3056    5.7399    0.0000 H   0  0  0  0  0  0  0  0  0  0  0  0
   12.8497   -0.4483    0.0000 H   0  0  0  0  0  0  0  0  0  0  0  0
   13.0767    0.3986    0.0000 H   0  0  0  0  0  0  0  0  0  0  0  0
   12.2297    0.6255    0.0000 H   0  0  0  0  0  0  0  0  0  0  0  0
   11.6368   -1.5874    0.0000 H   0  0  0  0  0  0  0  0  0  0  0  0
   12.4837   -1.8144    0.0000 H   0  0  0  0  0  0  0  0  0  0  0  0
   12.7107   -0.9674    0.0000 H   0  0  0  0  0  0  0  0  0  0  0  0
   11.7107    0.7646    0.0000 H   0  0  0  0  0  0  0  0  0  0  0  0
   10.8637    0.9916    0.0000 H   0  0  0  0  0  0  0  0  0  0  0  0
   10.6368    0.1446    0.0000 H   0  0  0  0  0  0  0  0  0  0  0  0
    7.0128    1.3449    0.0000 H   0  0  0  0  0  0  0  0  0  0  0  0
   10.2708   -2.2214    0.0000 H   0  0  0  0  0  0  0  0  0  0  0  0
    6.3699    0.5789    0.0000 H   0  0  0  0  0  0  0  0  0  0  0  0
    7.3225   -1.4184    0.0000 H   0  0  0  0  0  0  0  0  0  0  0  0
    7.4610   -0.6335    0.0000 H   0  0  0  0  0  0  0  0  0  0  0  0
   11.1368   -3.7214    0.0000 H   0  0  0  0  0  0  0  0  0  0  0  0
   12.0028   -4.2214    0.0000 H   0  0  0  0  0  0  0  0  0  0  0  0
    5.6537    1.5845    0.0000 H   0  0  0  0  0  0  0  0  0  0  0  0
    4.6689    1.7582    0.0000 H   0  0  0  0  0  0  0  0  0  0  0  0
   11.9292   -4.8037    0.0000 H   0  0  0  0  0  0  0  0  0  0  0  0
   12.3277   -5.4940    0.0000 H   0  0  0  0  0  0  0  0  0  0  0  0
   13.8043   -2.9364    0.0000 H   0  0  0  0  0  0  0  0  0  0  0  0
   13.0072   -2.9364    0.0000 H   0  0  0  0  0  0  0  0  0  0  0  0
    3.4155   -0.0655    0.0000 H   0  0  0  0  0  0  0  0  0  0  0  0
    4.1645    0.2072    0.0000 H   0  0  0  0  0  0  0  0  0  0  0  0
    3.0413    1.1658    0.0000 H   0  0  0  0  0  0  0  0  0  0  0  0
   13.0958   -5.9483    0.0000 H   0  0  0  0  0  0  0  0  0  0  0  0
   13.9427   -5.7214    0.0000 H   0  0  0  0  0  0  0  0  0  0  0  0
   13.7158   -4.8745    0.0000 H   0  0  0  0  0  0  0  0  0  0  0  0
   13.9618   -4.4483    0.0000 H   0  0  0  0  0  0  0  0  0  0  0  0
   14.8087   -4.2214    0.0000 H   0  0  0  0  0  0  0  0  0  0  0  0
   14.5818   -3.3745    0.0000 H   0  0  0  0  0  0  0  0  0  0  0  0
    1.5250    0.3233    0.0000 H   0  0  0  0  0  0  0  0  0  0  0  0
    1.6015   -0.5502    0.0000 H   0  0  0  0  0  0  0  0  0  0  0  0
    2.4750   -0.4738    0.0000 H   0  0  0  0  0  0  0  0  0  0  0  0
    2.8834    1.8426    0.0000 H   0  0  0  0  0  0  0  0  0  0  0  0
    2.0887    2.2131    0.0000 H   0  0  0  0  0  0  0  0  0  0  0  0
    1.7182    1.4184    0.0000 H   0  0  0  0  0  0  0  0  0  0  0  0
    6.2247   -3.1242    0.0000 H   0  0  0  0  0  0  0  0  0  0  0  0
    2.7315    2.9792    0.0000 H   0  0  0  0  0  0  0  0  0  0  0  0
  1 21  2  0  0  0  0
  2 23  2  0  0  0  0
  3 25  2  0  0  0  0
  4 34  2  0  0  0  0
  5 36  2  0  0  0  0
  6 39  1  0  0  0  0
  6103  1  0  0  0  0
  7 39  2  0  0  0  0
  8 46  1  0  0  0  0
  8104  1  0  0  0  0
  9 46  2  0  0  0  0
 10 17  1  0  0  0  0
 10 20  1  0  0  0  0
 10 23  1  0  0  0  0
 11 21  1  0  0  0  0
 11 26  1  0  0  0  0
 11 27  1  0  0  0  0
 12 25  1  0  0  0  0
 33 12  1  1  0  0  0
 12 75  1  0  0  0  0
 22 13  1  6  0  0  0
 13 34  1  0  0  0  0
 13 76  1  0  0  0  0
 14 34  1  0  0  0  0
 14 37  1  0  0  0  0
 14 80  1  0  0  0  0
 15 36  1  0  0  0  0
 38 15  1  1  0  0  0
 15 82  1  0  0  0  0
 16 17  1  0  0  0  0
 16 18  1  0  0  0  0
 16 21  1  0  0  0  0
 16 49  1  0  0  0  0
 17 25  1  0  0  0  0
 17 50  1  0  0  0  0
 18 19  1  0  0  0  0
 18 51  1  0  0  0  0
 18 52  1  0  0  0  0
 19 20  1  0  0  0  0
 19 53  1  0  0  0  0
 19 54  1  0  0  0  0
 20 55  1  0  0  0  0
 20 56  1  0  0  0  0
 22 23  1  0  0  0  0
 22 24  1  0  0  0  0
 22 57  1  0  0  0  0
 24 30  1  0  0  0  0
 24 31  1  0  0  0  0
 24 32  1  0  0  0  0
 26 28  1  0  0  0  0
 26 58  1  0  0  0  0
 26 59  1  0  0  0  0
 27 29  1  0  0  0  0
 27 60  1  0  0  0  0
 27 61  1  0  0  0  0
 28 29  1  0  0  0  0
 28 62  1  0  0  0  0
 28 63  1  0  0  0  0
 29 64  1  0  0  0  0
 29 65  1  0  0  0  0
 30 66  1  0  0  0  0
 30 67  1  0  0  0  0
 30 68  1  0  0  0  0
 31 69  1  0  0  0  0
 31 70  1  0  0  0  0
 31 71  1  0  0  0  0
 32 72  1  0  0  0  0
 32 73  1  0  0  0  0
 32 74  1  0  0  0  0
 33 35  1  0  0  0  0
 33 36  1  0  0  0  0
 33 77  1  0  0  0  0
 35 39  1  0  0  0  0
 35 78  1  0  0  0  0
 35 79  1  0  0  0  0
 37 40  1  0  0  0  0
 37 41  1  0  0  0  0
 37 81  1  0  0  0  0
 38 42  1  0  0  0  0
 38 46  1  0  0  0  0
 38 83  1  0  0  0  0
 40 44  1  0  0  0  0
 40 84  1  0  0  0  0
 40 85  1  0  0  0  0
 41 45  1  0  0  0  0
 41 86  1  0  0  0  0
 41 87  1  0  0  0  0
 42 43  1  0  0  0  0
 42 88  1  0  0  0  0
 42 89  1  0  0  0  0
 43 47  1  0  0  0  0
 43 48  1  0  0  0  0
 43 90  1  0  0  0  0
 44 91  1  0  0  0  0
 44 92  1  0  0  0  0
 44 93  1  0  0  0  0
 45 94  1  0  0  0  0
 45 95  1  0  0  0  0
 45 96  1  0  0  0  0
 47 97  1  0  0  0  0
 47 98  1  0  0  0  0
 47 99  1  0  0  0  0
 48100  1  0  0  0  0
 48101  1  0  0  0  0
 48102  1  0  0  0  0
M  END
> <PUBCHEM_COMPOUND_CID>
515263
> <PUBCHEM_COMPOUND_CANONICALIZED>
1
> <PUBCHEM_CACTVS_COMPLEXITY>
1180
> <PUBCHEM_CACTVS_HBOND_ACCEPTOR>
9
> <PUBCHEM_CACTVS_HBOND_DONOR>
6
> <PUBCHEM_CACTVS_ROTATABLE_BOND>
16
> <PUBCHEM_CACTVS_SUBSKEYS>
AAADcfB/vAAAAAAAAAAAAAAAAAAAAWAAAAAsAAAAAAAAAAAAAAAAHgAQCAAADyjBgAQDCAPAAgAIAAGQGAAAAAAAAAAAAIGIAACCQBoAwCAUQAAOFgKQAAG/CQAPAAAAAAAAAAAAAAAAAAAAAAAAAAAAAA==
> <PUBCHEM_IUPAC_OPENEYE_NAME>
(2S)-2-[[(2S)-3-carboxy-2-[[1-[(2S)-2-(1-ethylpropylcarbamoylamino)-3,3-dimethyl-butanoyl]-3-(pyrrolidine-1-carbonyl)piperidine-2-carbonyl]amino]propanoyl]amino]-4-methyl-pentanoic acid
> <PUBCHEM_IUPAC_CAS_NAME>
(2S)-2-[[(2S)-3-carboxy-2-[[[1-[(2S)-3,3-dimethyl-1-oxo-2-[[oxo-(pentan-3-ylamino)methyl]amino]butyl]-3-[oxo(1-pyrrolidinyl)methyl]-2-piperidinyl]-oxomethyl]amino]-1-oxopropyl]amino]-4-methylpentanoic acid
> <PUBCHEM_IUPAC_NAME_MARKUP>
(2<I>S</I>)-2-[[(2<I>S</I>)-3-carboxy-2-[[1-[(2<I>S</I>)-3,3-dimethyl-2-(pentan-3-ylcarbamoylamino)butanoyl]-3-(pyrrolidine-1-carbonyl)piperidine-2-carbonyl]amino]propanoyl]amino]-4-methylpentanoic acid
> <PUBCHEM_IUPAC_NAME>
(2S)-2-[[(2S)-3-carboxy-2-[[1-[(2S)-3,3-dimethyl-2-(pentan-3-ylcarbamoylamino)butanoyl]-3-(pyrrolidine-1-carbonyl)piperidine-2-carbonyl]amino]propanoyl]amino]-4-methylpentanoic acid
> <PUBCHEM_IUPAC_SYSTEMATIC_NAME>
(2S)-2-[[(2S)-2-[[1-[(2S)-3,3-dimethyl-2-(pentan-3-ylcarbamoylamino)butanoyl]-3-pyrrolidin-1-ylcarbonyl-piperidin-2-yl]carbonylamino]-4-oxidanyl-4-oxidanylidene-butanoyl]amino]-4-methyl-pentanoic acid
> <PUBCHEM_IUPAC_TRADITIONAL_NAME>
(2S)-2-[[(2S)-3-carboxy-2-[[1-[(2S)-2-(1-ethylpropylcarbamoylamino)-3,3-dimethyl-butanoyl]-3-(pyrrolidine-1-carbonyl)pipecoloyl]amino]propanoyl]amino]-4-methyl-valeric acid
> <PUBCHEM_IUPAC_INCHI>
InChI=1S/C33H56N6O9/c1-8-20(9-2)34-32(48)37-26(33(5,6)7)30(45)39-16-12-13-21(29(44)38-14-10-11-15-38)25(39)28(43)35-22(18-24(40)41)27(42)36-23(31(46)47)17-19(3)4/h19-23,25-26H,8-18H2,1-7H3,(H,35,43)(H,36,42)(H,40,41)(H,46,47)(H2,34,37,48)/t21?,22-,23-,25?,26+/m0/s1
> <PUBCHEM_IUPAC_INCHIKEY>
YPVINWLPXGTOAD-QEFWZQEDSA-N
> <PUBCHEM_XLOGP3_AA>
2.5
> <PUBCHEM_EXACT_MASS>
680.41087739
> <PUBCHEM_MOLECULAR_FORMULA>
C33H56N6O9
> <PUBCHEM_MOLECULAR_WEIGHT>
680.8
> <PUBCHEM_OPENEYE_CAN_SMILES>
CCC(CC)NC(=O)NC(C(=O)N1CCCC(C1C(=O)NC(CC(=O)O)C(=O)NC(CC(C)C)C(=O)O)C(=O)N2CCCC2)C(C)(C)C
> <PUBCHEM_OPENEYE_ISO_SMILES>
CCC(CC)NC(=O)N[C@H](C(=O)N1CCCC(C1C(=O)N[C@@H](CC(=O)O)C(=O)N[C@@H](CC(C)C)C(=O)O)C(=O)N2CCCC2)C(C)(C)C
> <PUBCHEM_CACTVS_TPSA>
215
> <PUBCHEM_MONOISOTOPIC_WEIGHT>
680.41087739
> <PUBCHEM_TOTAL_CHARGE>
0
> <PUBCHEM_HEAVY_ATOM_COUNT>
48
> <PUBCHEM_ATOM_DEF_STEREO_COUNT>
3
> <PUBCHEM_ATOM_UDEF_STEREO_COUNT>
2
> <PUBCHEM_BOND_DEF_STEREO_COUNT>
0
> <PUBCHEM_BOND_UDEF_STEREO_COUNT>
0
> <PUBCHEM_ISOTOPIC_ATOM_COUNT>
0
> <PUBCHEM_COMPONENT_COUNT>
1
> <PUBCHEM_CACTVS_TAUTO_COUNT>
-1
> <PUBCHEM_COORDINATE_TYPE>
1
5
255
> <PUBCHEM_BONDANNOTATIONS>
33  12  5
22  13  6
38  15  5
16  21  3
17  25  3
$$$$
