515265
  -OEChem-10302200282D
 90 89  0     1  0  0  0  0  0999 V2000
    8.5991    2.7500    0.0000 O   0  0  0  0  0  0  0  0  0  0  0  0
   11.1972    0.2500    0.0000 O   0  0  0  0  0  0  0  0  0  0  0  0
    5.1350    1.7500    0.0000 O   0  0  0  0  0  0  0  0  0  0  0  0
    4.2690   -1.7500    0.0000 O   0  0  0  0  0  0  0  0  0  0  0  0
    5.1350    2.7500    0.0000 O   0  0  0  0  0  0  0  0  0  0  0  0
    6.8671   -4.2500    0.0000 O   0  0  0  0  0  0  0  0  0  0  0  0
    7.7331   -2.7500    0.0000 O   0  0  0  0  0  0  0  0  0  0  0  0
    2.5369    0.2500    0.0000 O   0  0  0  0  0  0  0  0  0  0  0  0
    3.4030   -1.2500    0.0000 O   0  0  0  0  0  0  0  0  0  0  0  0
    9.4651    0.2500    0.0000 N   0  0  0  0  0  0  0  0  0  0  0  0
    7.7331    1.2500    0.0000 N   0  0  0  0  0  0  0  0  0  0  0  0
   10.3312   -1.2500    0.0000 N   0  0  0  0  0  0  0  0  0  0  0  0
    6.0010    0.2500    0.0000 N   0  0  0  0  0  0  0  0  0  0  0  0
    6.0010   -1.7500    0.0000 N   0  0  0  0  0  0  0  0  0  0  0  0
    6.0010    4.2500    0.0000 N   0  0  0  0  0  0  0  0  0  0  0  0
   10.3312    1.7500    0.0000 C   0  0  0  0  0  0  0  0  0  0  0  0
    9.4651    1.2500    0.0000 C   0  0  1  0  0  0  0  0  0  0  0  0
   11.1972    2.2500    0.0000 C   0  0  0  0  0  0  0  0  0  0  0  0
   10.8312    0.8840    0.0000 C   0  0  0  0  0  0  0  0  0  0  0  0
    9.8312    2.6160    0.0000 C   0  0  0  0  0  0  0  0  0  0  0  0
    8.5991    1.7500    0.0000 C   0  0  0  0  0  0  0  0  0  0  0  0
    6.8671    1.7500    0.0000 C   0  0  3  0  0  0  0  0  0  0  0  0
   10.3312   -0.2500    0.0000 C   0  0  0  0  0  0  0  0  0  0  0  0
   11.1972   -1.7500    0.0000 C   0  0  0  0  0  0  0  0  0  0  0  0
    6.8671    2.7500    0.0000 C   0  0  0  0  0  0  0  0  0  0  0  0
    6.0010    1.2500    0.0000 C   0  0  0  0  0  0  0  0  0  0  0  0
    5.1350   -3.2500    0.0000 C   0  0  0  0  0  0  0  0  0  0  0  0
    5.1350   -0.2500    0.0000 C   0  0  2  0  0  0  0  0  0  0  0  0
    6.0010   -2.7500    0.0000 C   0  0  1  0  0  0  0  0  0  0  0  0
    5.1350   -4.2500    0.0000 C   0  0  0  0  0  0  0  0  0  0  0  0
   11.1972   -2.7500    0.0000 C   0  0  0  0  0  0  0  0  0  0  0  0
   12.0632   -1.2500    0.0000 C   0  0  0  0  0  0  0  0  0  0  0  0
    5.1350   -1.2500    0.0000 C   0  0  0  0  0  0  0  0  0  0  0  0
    4.2690    0.2500    0.0000 C   0  0  0  0  0  0  0  0  0  0  0  0
    6.0010    3.2500    0.0000 C   0  0  0  0  0  0  0  0  0  0  0  0
    4.2690   -4.7500    0.0000 C   0  0  0  0  0  0  0  0  0  0  0  0
    6.0010   -4.7500    0.0000 C   0  0  0  0  0  0  0  0  0  0  0  0
   12.0632   -3.2500    0.0000 C   0  0  0  0  0  0  0  0  0  0  0  0
   12.9292   -1.7500    0.0000 C   0  0  0  0  0  0  0  0  0  0  0  0
    6.8671   -3.2500    0.0000 C   0  0  0  0  0  0  0  0  0  0  0  0
    3.4030   -0.2500    0.0000 C   0  0  0  0  0  0  0  0  0  0  0  0
    5.1350    4.7500    0.0000 C   0  0  0  0  0  0  0  0  0  0  0  0
   10.0021    0.9400    0.0000 H   0  0  0  0  0  0  0  0  0  0  0  0
   11.5072    1.7131    0.0000 H   0  0  0  0  0  0  0  0  0  0  0  0
   11.7341    2.5600    0.0000 H   0  0  0  0  0  0  0  0  0  0  0  0
   10.8872    2.7869    0.0000 H   0  0  0  0  0  0  0  0  0  0  0  0
   10.2942    0.5740    0.0000 H   0  0  0  0  0  0  0  0  0  0  0  0
   11.1412    0.3470    0.0000 H   0  0  0  0  0  0  0  0  0  0  0  0
   11.3681    1.1940    0.0000 H   0  0  0  0  0  0  0  0  0  0  0  0
   10.3681    2.9260    0.0000 H   0  0  0  0  0  0  0  0  0  0  0  0
    9.5212    3.1530    0.0000 H   0  0  0  0  0  0  0  0  0  0  0  0
    9.2942    2.3060    0.0000 H   0  0  0  0  0  0  0  0  0  0  0  0
    8.9282   -0.0600    0.0000 H   0  0  0  0  0  0  0  0  0  0  0  0
    7.4040    2.0600    0.0000 H   0  0  0  0  0  0  0  0  0  0  0  0
    7.7331    0.6300    0.0000 H   0  0  0  0  0  0  0  0  0  0  0  0
   10.6603   -2.0600    0.0000 H   0  0  0  0  0  0  0  0  0  0  0  0
    7.4776    2.6423    0.0000 H   0  0  0  0  0  0  0  0  0  0  0  0
    7.0791    3.3326    0.0000 H   0  0  0  0  0  0  0  0  0  0  0  0
    9.7942   -1.5600    0.0000 H   0  0  0  0  0  0  0  0  0  0  0  0
    4.9230   -2.6674    0.0000 H   0  0  0  0  0  0  0  0  0  0  0  0
    4.5244   -3.3577    0.0000 H   0  0  0  0  0  0  0  0  0  0  0  0
    5.1350    0.3700    0.0000 H   0  0  0  0  0  0  0  0  0  0  0  0
    6.5380   -2.4400    0.0000 H   0  0  0  0  0  0  0  0  0  0  0  0
    5.1350   -4.8700    0.0000 H   0  0  0  0  0  0  0  0  0  0  0  0
   10.5866   -2.6423    0.0000 H   0  0  0  0  0  0  0  0  0  0  0  0
   10.9851   -3.3326    0.0000 H   0  0  0  0  0  0  0  0  0  0  0  0
   12.4617   -0.7751    0.0000 H   0  0  0  0  0  0  0  0  0  0  0  0
   11.6647   -0.7751    0.0000 H   0  0  0  0  0  0  0  0  0  0  0  0
    6.5380   -0.0600    0.0000 H   0  0  0  0  0  0  0  0  0  0  0  0
    6.5380   -1.4400    0.0000 H   0  0  0  0  0  0  0  0  0  0  0  0
    4.6675    0.7249    0.0000 H   0  0  0  0  0  0  0  0  0  0  0  0
    3.8705    0.7249    0.0000 H   0  0  0  0  0  0  0  0  0  0  0  0
    3.9590   -4.2131    0.0000 H   0  0  0  0  0  0  0  0  0  0  0  0
    3.7320   -5.0600    0.0000 H   0  0  0  0  0  0  0  0  0  0  0  0
    4.5790   -5.2869    0.0000 H   0  0  0  0  0  0  0  0  0  0  0  0
    5.6910   -5.2869    0.0000 H   0  0  0  0  0  0  0  0  0  0  0  0
    6.5380   -5.0600    0.0000 H   0  0  0  0  0  0  0  0  0  0  0  0
    6.3110   -4.2131    0.0000 H   0  0  0  0  0  0  0  0  0  0  0  0
   11.7532   -3.7869    0.0000 H   0  0  0  0  0  0  0  0  0  0  0  0
   12.6002   -3.5600    0.0000 H   0  0  0  0  0  0  0  0  0  0  0  0
   12.3732   -2.7131    0.0000 H   0  0  0  0  0  0  0  0  0  0  0  0
   12.6192   -2.2869    0.0000 H   0  0  0  0  0  0  0  0  0  0  0  0
   13.4662   -2.0600    0.0000 H   0  0  0  0  0  0  0  0  0  0  0  0
   13.2392   -1.2131    0.0000 H   0  0  0  0  0  0  0  0  0  0  0  0
    6.5380    4.5600    0.0000 H   0  0  0  0  0  0  0  0  0  0  0  0
    5.4450    5.2869    0.0000 H   0  0  0  0  0  0  0  0  0  0  0  0
    4.5981    5.0600    0.0000 H   0  0  0  0  0  0  0  0  0  0  0  0
    4.8250    4.2131    0.0000 H   0  0  0  0  0  0  0  0  0  0  0  0
    7.4040   -4.5600    0.0000 H   0  0  0  0  0  0  0  0  0  0  0  0
    2.0000   -0.0600    0.0000 H   0  0  0  0  0  0  0  0  0  0  0  0
  1 21  2  0  0  0  0
  2 23  2  0  0  0  0
  3 26  2  0  0  0  0
  4 33  2  0  0  0  0
  5 35  2  0  0  0  0
  6 40  1  0  0  0  0
  6 89  1  0  0  0  0
  7 40  2  0  0  0  0
  8 41  1  0  0  0  0
  8 90  1  0  0  0  0
  9 41  2  0  0  0  0
 17 10  1  6  0  0  0
 10 23  1  0  0  0  0
 10 53  1  0  0  0  0
 11 21  1  0  0  0  0
 11 22  1  0  0  0  0
 11 55  1  0  0  0  0
 12 23  1  0  0  0  0
 12 24  1  0  0  0  0
 12 59  1  0  0  0  0
 13 26  1  0  0  0  0
 28 13  1  6  0  0  0
 13 69  1  0  0  0  0
 29 14  1  6  0  0  0
 14 33  1  0  0  0  0
 14 70  1  0  0  0  0
 15 35  1  0  0  0  0
 15 42  1  0  0  0  0
 15 85  1  0  0  0  0
 16 17  1  0  0  0  0
 16 18  1  0  0  0  0
 16 19  1  0  0  0  0
 16 20  1  0  0  0  0
 17 21  1  0  0  0  0
 17 43  1  0  0  0  0
 18 44  1  0  0  0  0
 18 45  1  0  0  0  0
 18 46  1  0  0  0  0
 19 47  1  0  0  0  0
 19 48  1  0  0  0  0
 19 49  1  0  0  0  0
 20 50  1  0  0  0  0
 20 51  1  0  0  0  0
 20 52  1  0  0  0  0
 22 25  1  0  0  0  0
 22 26  1  0  0  0  0
 22 54  1  0  0  0  0
 24 31  1  0  0  0  0
 24 32  1  0  0  0  0
 24 56  1  0  0  0  0
 25 35  1  0  0  0  0
 25 57  1  0  0  0  0
 25 58  1  0  0  0  0
 27 29  1  0  0  0  0
 27 30  1  0  0  0  0
 27 60  1  0  0  0  0
 27 61  1  0  0  0  0
 28 33  1  0  0  0  0
 28 34  1  0  0  0  0
 28 62  1  0  0  0  0
 29 40  1  0  0  0  0
 29 63  1  0  0  0  0
 30 36  1  0  0  0  0
 30 37  1  0  0  0  0
 30 64  1  0  0  0  0
 31 38  1  0  0  0  0
 31 65  1  0  0  0  0
 31 66  1  0  0  0  0
 32 39  1  0  0  0  0
 32 67  1  0  0  0  0
 32 68  1  0  0  0  0
 34 41  1  0  0  0  0
 34 71  1  0  0  0  0
 34 72  1  0  0  0  0
 36 73  1  0  0  0  0
 36 74  1  0  0  0  0
 36 75  1  0  0  0  0
 37 76  1  0  0  0  0
 37 77  1  0  0  0  0
 37 78  1  0  0  0  0
 38 79  1  0  0  0  0
 38 80  1  0  0  0  0
 38 81  1  0  0  0  0
 39 82  1  0  0  0  0
 39 83  1  0  0  0  0
 39 84  1  0  0  0  0
 42 86  1  0  0  0  0
 42 87  1  0  0  0  0
 42 88  1  0  0  0  0
M  END
> <PUBCHEM_COMPOUND_CID>
515265
> <PUBCHEM_COMPOUND_CANONICALIZED>
1
> <PUBCHEM_CACTVS_COMPLEXITY>
976
> <PUBCHEM_CACTVS_HBOND_ACCEPTOR>
9
> <PUBCHEM_CACTVS_HBOND_DONOR>
8
> <PUBCHEM_CACTVS_ROTATABLE_BOND>
18
> <PUBCHEM_CACTVS_SUBSKEYS>
AAADcfB7vAAAAAAAAAAAAAAAAAAAAAAAAAAAAAAAAAAAAAAAAAAAHgAQCAAADyjBgAQDCALAAgAIAAGQGAAAAAAAAAAAAIGIAACCQBoAwCAUQAAOFgKQAACvAAANAAAAAAAAAAAAAAAAAAAAAAAAAAAAAA==
> <PUBCHEM_IUPAC_OPENEYE_NAME>
(2S)-2-[[(2S)-3-carboxy-2-[[2-[[(2S)-2-(1-ethylpropylcarbamoylamino)-3,3-dimethyl-butanoyl]amino]-4-(methylamino)-4-oxo-butanoyl]amino]propanoyl]amino]-4-methyl-pentanoic acid
> <PUBCHEM_IUPAC_CAS_NAME>
(2S)-2-[[(2S)-3-carboxy-2-[[2-[[(2S)-3,3-dimethyl-1-oxo-2-[[oxo-(pentan-3-ylamino)methyl]amino]butyl]amino]-4-(methylamino)-1,4-dioxobutyl]amino]-1-oxopropyl]amino]-4-methylpentanoic acid
> <PUBCHEM_IUPAC_NAME_MARKUP>
(2<I>S</I>)-2-[[(2<I>S</I>)-3-carboxy-2-[[2-[[(2<I>S</I>)-3,3-dimethyl-2-(pentan-3-ylcarbamoylamino)butanoyl]amino]-4-(methylamino)-4-oxobutanoyl]amino]propanoyl]amino]-4-methylpentanoic acid
> <PUBCHEM_IUPAC_NAME>
(2S)-2-[[(2S)-3-carboxy-2-[[2-[[(2S)-3,3-dimethyl-2-(pentan-3-ylcarbamoylamino)butanoyl]amino]-4-(methylamino)-4-oxobutanoyl]amino]propanoyl]amino]-4-methylpentanoic acid
> <PUBCHEM_IUPAC_SYSTEMATIC_NAME>
(2S)-2-[[(2S)-2-[[2-[[(2S)-3,3-dimethyl-2-(pentan-3-ylcarbamoylamino)butanoyl]amino]-4-(methylamino)-4-oxidanylidene-butanoyl]amino]-4-oxidanyl-4-oxidanylidene-butanoyl]amino]-4-methyl-pentanoic acid
> <PUBCHEM_IUPAC_TRADITIONAL_NAME>
(2S)-2-[[(2S)-3-carboxy-2-[[2-[[(2S)-2-(1-ethylpropylcarbamoylamino)-3,3-dimethyl-butanoyl]amino]-4-keto-4-(methylamino)butanoyl]amino]propanoyl]amino]-4-methyl-valeric acid
> <PUBCHEM_IUPAC_INCHI>
InChI=1S/C27H48N6O9/c1-9-15(10-2)29-26(42)33-21(27(5,6)7)24(39)31-16(12-19(34)28-8)22(37)30-17(13-20(35)36)23(38)32-18(25(40)41)11-14(3)4/h14-18,21H,9-13H2,1-8H3,(H,28,34)(H,30,37)(H,31,39)(H,32,38)(H,35,36)(H,40,41)(H2,29,33,42)/t16?,17-,18-,21+/m0/s1
> <PUBCHEM_IUPAC_INCHIKEY>
HYARHEXGMAVBSY-VKGVTEANSA-N
> <PUBCHEM_XLOGP3_AA>
1.2
> <PUBCHEM_EXACT_MASS>
600.34827713
> <PUBCHEM_MOLECULAR_FORMULA>
C27H48N6O9
> <PUBCHEM_MOLECULAR_WEIGHT>
600.7
> <PUBCHEM_OPENEYE_CAN_SMILES>
CCC(CC)NC(=O)NC(C(=O)NC(CC(=O)NC)C(=O)NC(CC(=O)O)C(=O)NC(CC(C)C)C(=O)O)C(C)(C)C
> <PUBCHEM_OPENEYE_ISO_SMILES>
CCC(CC)NC(=O)N[C@H](C(=O)NC(CC(=O)NC)C(=O)N[C@@H](CC(=O)O)C(=O)N[C@@H](CC(C)C)C(=O)O)C(C)(C)C
> <PUBCHEM_CACTVS_TPSA>
232
> <PUBCHEM_MONOISOTOPIC_WEIGHT>
600.34827713
> <PUBCHEM_TOTAL_CHARGE>
0
> <PUBCHEM_HEAVY_ATOM_COUNT>
42
> <PUBCHEM_ATOM_DEF_STEREO_COUNT>
3
> <PUBCHEM_ATOM_UDEF_STEREO_COUNT>
1
> <PUBCHEM_BOND_DEF_STEREO_COUNT>
0
> <PUBCHEM_BOND_UDEF_STEREO_COUNT>
0
> <PUBCHEM_ISOTOPIC_ATOM_COUNT>
0
> <PUBCHEM_COMPONENT_COUNT>
1
> <PUBCHEM_CACTVS_TAUTO_COUNT>
-1
> <PUBCHEM_COORDINATE_TYPE>
1
5
255
> <PUBCHEM_BONDANNOTATIONS>
17  10  6
28  13  6
29  14  6
22  25  3
$$$$
