515283
  -OEChem-10302200282D
 97 97  0     1  0  0  0  0  0999 V2000
    8.0622    1.9136    0.0000 O   0  0  0  0  0  0  0  0  0  0  0  0
   11.5263    1.9136    0.0000 O   0  0  0  0  0  0  0  0  0  0  0  0
   11.5263    0.9136    0.0000 O   0  0  0  0  0  0  0  0  0  0  0  0
   12.3923   -2.5864    0.0000 O   0  0  0  0  0  0  0  0  0  0  0  0
    5.4641   -0.5864    0.0000 O   0  0  0  0  0  0  0  0  0  0  0  0
   14.1244   -0.5864    0.0000 O   0  0  0  0  0  0  0  0  0  0  0  0
   13.2583   -2.0864    0.0000 O   0  0  0  0  0  0  0  0  0  0  0  0
   10.6603    3.4136    0.0000 N   0  0  0  0  0  0  0  0  0  0  0  0
    8.9282    0.4136    0.0000 N   0  0  0  0  0  0  0  0  0  0  0  0
    6.3301    0.9136    0.0000 N   0  0  0  0  0  0  0  0  0  0  0  0
   10.6603   -2.5864    0.0000 N   0  0  0  0  0  0  0  0  0  0  0  0
   10.6603   -0.5864    0.0000 N   0  0  0  0  0  0  0  0  0  0  0  0
    4.5981    0.9136    0.0000 N   0  0  0  0  0  0  0  0  0  0  0  0
    7.1962   -0.5864    0.0000 C   0  0  0  0  0  0  0  0  0  0  0  0
    7.1962    0.4136    0.0000 C   0  0  1  0  0  0  0  0  0  0  0  0
    9.7942   -4.0864    0.0000 C   0  0  0  0  0  0  0  0  0  0  0  0
   10.6603   -3.5864    0.0000 C   0  0  1  0  0  0  0  0  0  0  0  0
   11.4693    4.0014    0.0000 C   0  0  0  0  0  0  0  0  0  0  0  0
    9.8512    4.0014    0.0000 C   0  0  0  0  0  0  0  0  0  0  0  0
   11.1603    4.9524    0.0000 C   0  0  0  0  0  0  0  0  0  0  0  0
   10.1603    4.9524    0.0000 C   0  0  0  0  0  0  0  0  0  0  0  0
    9.7942    0.9136    0.0000 C   0  0  1  0  0  0  0  0  0  0  0  0
    9.7942    1.9136    0.0000 C   0  0  0  0  0  0  0  0  0  0  0  0
    8.0622    0.9136    0.0000 C   0  0  0  0  0  0  0  0  0  0  0  0
    7.1962   -1.5864    0.0000 C   0  0  0  0  0  0  0  0  0  0  0  0
    6.1962   -0.5864    0.0000 C   0  0  0  0  0  0  0  0  0  0  0  0
    8.1962   -0.5864    0.0000 C   0  0  0  0  0  0  0  0  0  0  0  0
   10.6603    2.4136    0.0000 C   0  0  0  0  0  0  0  0  0  0  0  0
    8.9282   -4.5864    0.0000 C   0  0  0  0  0  0  0  0  0  0  0  0
   10.2942   -4.9524    0.0000 C   0  0  0  0  0  0  0  0  0  0  0  0
    9.2942   -3.2204    0.0000 C   0  0  0  0  0  0  0  0  0  0  0  0
   11.5263   -4.0864    0.0000 C   0  0  0  0  0  0  0  0  0  0  0  0
   11.5263   -1.0864    0.0000 C   0  0  2  0  0  0  0  0  0  0  0  0
   10.6603    0.4136    0.0000 C   0  0  0  0  0  0  0  0  0  0  0  0
   11.5263   -2.0864    0.0000 C   0  0  0  0  0  0  0  0  0  0  0  0
    5.4641    0.4136    0.0000 C   0  0  0  0  0  0  0  0  0  0  0  0
   12.3923   -0.5864    0.0000 C   0  0  0  0  0  0  0  0  0  0  0  0
    3.7320    0.4136    0.0000 C   0  0  0  0  0  0  0  0  0  0  0  0
    2.8660    0.9136    0.0000 C   0  0  0  0  0  0  0  0  0  0  0  0
    3.7320   -0.5864    0.0000 C   0  0  0  0  0  0  0  0  0  0  0  0
   13.2583   -1.0864    0.0000 C   0  0  0  0  0  0  0  0  0  0  0  0
    2.0000    0.4136    0.0000 C   0  0  0  0  0  0  0  0  0  0  0  0
    2.8660   -1.0864    0.0000 C   0  0  0  0  0  0  0  0  0  0  0  0
    6.6592    0.1036    0.0000 H   0  0  0  0  0  0  0  0  0  0  0  0
   11.1972   -3.2764    0.0000 H   0  0  0  0  0  0  0  0  0  0  0  0
   11.7793    3.4644    0.0000 H   0  0  0  0  0  0  0  0  0  0  0  0
   12.0357    4.2536    0.0000 H   0  0  0  0  0  0  0  0  0  0  0  0
    9.2848    4.2536    0.0000 H   0  0  0  0  0  0  0  0  0  0  0  0
    9.5412    3.4644    0.0000 H   0  0  0  0  0  0  0  0  0  0  0  0
   11.7667    5.0813    0.0000 H   0  0  0  0  0  0  0  0  0  0  0  0
   11.0954    5.5690    0.0000 H   0  0  0  0  0  0  0  0  0  0  0  0
   10.2251    5.5690    0.0000 H   0  0  0  0  0  0  0  0  0  0  0  0
    9.5538    5.0813    0.0000 H   0  0  0  0  0  0  0  0  0  0  0  0
    9.2573    1.2236    0.0000 H   0  0  0  0  0  0  0  0  0  0  0  0
    9.5822    2.4962    0.0000 H   0  0  0  0  0  0  0  0  0  0  0  0
    9.1836    1.8059    0.0000 H   0  0  0  0  0  0  0  0  0  0  0  0
    6.5762   -1.5864    0.0000 H   0  0  0  0  0  0  0  0  0  0  0  0
    7.1962   -2.2064    0.0000 H   0  0  0  0  0  0  0  0  0  0  0  0
    7.8162   -1.5864    0.0000 H   0  0  0  0  0  0  0  0  0  0  0  0
    6.1962    0.0336    0.0000 H   0  0  0  0  0  0  0  0  0  0  0  0
    5.5762   -0.5864    0.0000 H   0  0  0  0  0  0  0  0  0  0  0  0
    6.1962   -1.2064    0.0000 H   0  0  0  0  0  0  0  0  0  0  0  0
    8.1962   -1.2064    0.0000 H   0  0  0  0  0  0  0  0  0  0  0  0
    8.8162   -0.5864    0.0000 H   0  0  0  0  0  0  0  0  0  0  0  0
    8.1962    0.0336    0.0000 H   0  0  0  0  0  0  0  0  0  0  0  0
    8.9282   -0.2064    0.0000 H   0  0  0  0  0  0  0  0  0  0  0  0
    8.6182   -4.0495    0.0000 H   0  0  0  0  0  0  0  0  0  0  0  0
    8.3913   -4.8964    0.0000 H   0  0  0  0  0  0  0  0  0  0  0  0
    9.2382   -5.1233    0.0000 H   0  0  0  0  0  0  0  0  0  0  0  0
    9.7573   -5.2624    0.0000 H   0  0  0  0  0  0  0  0  0  0  0  0
   10.6042   -5.4894    0.0000 H   0  0  0  0  0  0  0  0  0  0  0  0
   10.8312   -4.6424    0.0000 H   0  0  0  0  0  0  0  0  0  0  0  0
    9.8312   -2.9104    0.0000 H   0  0  0  0  0  0  0  0  0  0  0  0
    8.9842   -2.6834    0.0000 H   0  0  0  0  0  0  0  0  0  0  0  0
    8.7573   -3.5304    0.0000 H   0  0  0  0  0  0  0  0  0  0  0  0
    6.3301    1.5336    0.0000 H   0  0  0  0  0  0  0  0  0  0  0  0
   10.1233   -2.2764    0.0000 H   0  0  0  0  0  0  0  0  0  0  0  0
   11.2163   -4.6233    0.0000 H   0  0  0  0  0  0  0  0  0  0  0  0
   12.0632   -4.3964    0.0000 H   0  0  0  0  0  0  0  0  0  0  0  0
   11.8363   -3.5495    0.0000 H   0  0  0  0  0  0  0  0  0  0  0  0
   10.9893   -1.3964    0.0000 H   0  0  0  0  0  0  0  0  0  0  0  0
   10.1233   -0.8964    0.0000 H   0  0  0  0  0  0  0  0  0  0  0  0
   12.7908   -0.1115    0.0000 H   0  0  0  0  0  0  0  0  0  0  0  0
   11.9938   -0.1115    0.0000 H   0  0  0  0  0  0  0  0  0  0  0  0
    3.7320    1.0336    0.0000 H   0  0  0  0  0  0  0  0  0  0  0  0
    4.5981    1.5336    0.0000 H   0  0  0  0  0  0  0  0  0  0  0  0
    3.2646    1.3885    0.0000 H   0  0  0  0  0  0  0  0  0  0  0  0
    2.4675    1.3885    0.0000 H   0  0  0  0  0  0  0  0  0  0  0  0
    3.9441   -1.1690    0.0000 H   0  0  0  0  0  0  0  0  0  0  0  0
    4.3426   -0.4787    0.0000 H   0  0  0  0  0  0  0  0  0  0  0  0
    1.6900    0.9505    0.0000 H   0  0  0  0  0  0  0  0  0  0  0  0
    1.4631    0.1036    0.0000 H   0  0  0  0  0  0  0  0  0  0  0  0
    2.3100   -0.1233    0.0000 H   0  0  0  0  0  0  0  0  0  0  0  0
    2.5560   -0.5495    0.0000 H   0  0  0  0  0  0  0  0  0  0  0  0
    2.3291   -1.3964    0.0000 H   0  0  0  0  0  0  0  0  0  0  0  0
    3.1760   -1.6233    0.0000 H   0  0  0  0  0  0  0  0  0  0  0  0
   14.6613   -0.8964    0.0000 H   0  0  0  0  0  0  0  0  0  0  0  0
  1 24  2  0  0  0  0
  2 28  2  0  0  0  0
  3 34  2  0  0  0  0
  4 35  2  0  0  0  0
  5 36  2  0  0  0  0
  6 41  1  0  0  0  0
  6 97  1  0  0  0  0
  7 41  2  0  0  0  0
  8 18  1  0  0  0  0
  8 19  1  0  0  0  0
  8 28  1  0  0  0  0
 22  9  1  1  0  0  0
  9 24  1  0  0  0  0
  9 66  1  0  0  0  0
 15 10  1  6  0  0  0
 10 36  1  0  0  0  0
 10 76  1  0  0  0  0
 17 11  1  6  0  0  0
 11 35  1  0  0  0  0
 11 77  1  0  0  0  0
 33 12  1  1  0  0  0
 12 34  1  0  0  0  0
 12 82  1  0  0  0  0
 13 36  1  0  0  0  0
 13 38  1  0  0  0  0
 13 86  1  0  0  0  0
 14 15  1  0  0  0  0
 14 25  1  0  0  0  0
 14 26  1  0  0  0  0
 14 27  1  0  0  0  0
 15 24  1  0  0  0  0
 15 44  1  0  0  0  0
 16 17  1  0  0  0  0
 16 29  1  0  0  0  0
 16 30  1  0  0  0  0
 16 31  1  0  0  0  0
 17 32  1  0  0  0  0
 17 45  1  0  0  0  0
 18 20  1  0  0  0  0
 18 46  1  0  0  0  0
 18 47  1  0  0  0  0
 19 21  1  0  0  0  0
 19 48  1  0  0  0  0
 19 49  1  0  0  0  0
 20 21  1  0  0  0  0
 20 50  1  0  0  0  0
 20 51  1  0  0  0  0
 21 52  1  0  0  0  0
 21 53  1  0  0  0  0
 22 23  1  0  0  0  0
 22 34  1  0  0  0  0
 22 54  1  0  0  0  0
 23 28  1  0  0  0  0
 23 55  1  0  0  0  0
 23 56  1  0  0  0  0
 25 57  1  0  0  0  0
 25 58  1  0  0  0  0
 25 59  1  0  0  0  0
 26 60  1  0  0  0  0
 26 61  1  0  0  0  0
 26 62  1  0  0  0  0
 27 63  1  0  0  0  0
 27 64  1  0  0  0  0
 27 65  1  0  0  0  0
 29 67  1  0  0  0  0
 29 68  1  0  0  0  0
 29 69  1  0  0  0  0
 30 70  1  0  0  0  0
 30 71  1  0  0  0  0
 30 72  1  0  0  0  0
 31 73  1  0  0  0  0
 31 74  1  0  0  0  0
 31 75  1  0  0  0  0
 32 78  1  0  0  0  0
 32 79  1  0  0  0  0
 32 80  1  0  0  0  0
 33 35  1  0  0  0  0
 33 37  1  0  0  0  0
 33 81  1  0  0  0  0
 37 41  1  0  0  0  0
 37 83  1  0  0  0  0
 37 84  1  0  0  0  0
 38 39  1  0  0  0  0
 38 40  1  0  0  0  0
 38 85  1  0  0  0  0
 39 42  1  0  0  0  0
 39 87  1  0  0  0  0
 39 88  1  0  0  0  0
 40 43  1  0  0  0  0
 40 89  1  0  0  0  0
 40 90  1  0  0  0  0
 42 91  1  0  0  0  0
 42 92  1  0  0  0  0
 42 93  1  0  0  0  0
 43 94  1  0  0  0  0
 43 95  1  0  0  0  0
 43 96  1  0  0  0  0
M  END
> <PUBCHEM_COMPOUND_CID>
515283
> <PUBCHEM_COMPOUND_CANONICALIZED>
1
> <PUBCHEM_CACTVS_COMPLEXITY>
994
> <PUBCHEM_CACTVS_HBOND_ACCEPTOR>
7
> <PUBCHEM_CACTVS_HBOND_DONOR>
6
> <PUBCHEM_CACTVS_ROTATABLE_BOND>
16
> <PUBCHEM_CACTVS_SUBSKEYS>
AAADcfB7uAAAAAAAAAAAAAAAAAAAAWAAAAAAAAAAAAAAAAAAAAAAHgAQCAAADijBgAQDCAPAAgAIAAGQGAAAAAAAAAAAAIGIAACAQBoAwCAUQAAOFgKAAAAnAAAJAAAAAAAAAAAAAAAAAAAAAAAAAAAAAA==
> <PUBCHEM_IUPAC_OPENEYE_NAME>
(3S)-3-[[(2S)-2-[[(2S)-2-(1-ethylpropylcarbamoylamino)-3,3-dimethyl-butanoyl]amino]-4-oxo-4-pyrrolidin-1-yl-butanoyl]amino]-4-oxo-4-[[(1R)-1,2,2-trimethylpropyl]amino]butanoic acid
> <PUBCHEM_IUPAC_CAS_NAME>
(3S)-4-[[(2R)-3,3-dimethylbutan-2-yl]amino]-3-[[(2S)-2-[[(2S)-3,3-dimethyl-1-oxo-2-[[oxo-(pentan-3-ylamino)methyl]amino]butyl]amino]-1,4-dioxo-4-(1-pyrrolidinyl)butyl]amino]-4-oxobutanoic acid
> <PUBCHEM_IUPAC_NAME_MARKUP>
(3<I>S</I>)-4-[[(2<I>R</I>)-3,3-dimethylbutan-2-yl]amino]-3-[[(2<I>S</I>)-2-[[(2<I>S</I>)-3,3-dimethyl-2-(pentan-3-ylcarbamoylamino)butanoyl]amino]-4-oxo-4-pyrrolidin-1-ylbutanoyl]amino]-4-oxobutanoic acid
> <PUBCHEM_IUPAC_NAME>
(3S)-4-[[(2R)-3,3-dimethylbutan-2-yl]amino]-3-[[(2S)-2-[[(2S)-3,3-dimethyl-2-(pentan-3-ylcarbamoylamino)butanoyl]amino]-4-oxo-4-pyrrolidin-1-ylbutanoyl]amino]-4-oxobutanoic acid
> <PUBCHEM_IUPAC_SYSTEMATIC_NAME>
(3S)-4-[[(2R)-3,3-dimethylbutan-2-yl]amino]-3-[[(2S)-2-[[(2S)-3,3-dimethyl-2-(pentan-3-ylcarbamoylamino)butanoyl]amino]-4-oxidanylidene-4-pyrrolidin-1-yl-butanoyl]amino]-4-oxidanylidene-butanoic acid
> <PUBCHEM_IUPAC_TRADITIONAL_NAME>
(3S)-3-[[(2S)-2-[[(2S)-2-(1-ethylpropylcarbamoylamino)-3,3-dimethyl-butanoyl]amino]-4-keto-4-pyrrolidino-butanoyl]amino]-4-keto-4-[[(1R)-1,2,2-trimethylpropyl]amino]butyric acid
> <PUBCHEM_IUPAC_INCHI>
InChI=1S/C30H54N6O7/c1-10-19(11-2)32-28(43)35-24(30(7,8)9)27(42)34-20(16-22(37)36-14-12-13-15-36)26(41)33-21(17-23(38)39)25(40)31-18(3)29(4,5)6/h18-21,24H,10-17H2,1-9H3,(H,31,40)(H,33,41)(H,34,42)(H,38,39)(H2,32,35,43)/t18-,20+,21+,24-/m1/s1
> <PUBCHEM_IUPAC_INCHIKEY>
YVSJBLJVDLTVFG-KDNSLJGTSA-N
> <PUBCHEM_XLOGP3_AA>
2.7
> <PUBCHEM_EXACT_MASS>
610.40539808
> <PUBCHEM_MOLECULAR_FORMULA>
C30H54N6O7
> <PUBCHEM_MOLECULAR_WEIGHT>
610.8
> <PUBCHEM_OPENEYE_CAN_SMILES>
CCC(CC)NC(=O)NC(C(=O)NC(CC(=O)N1CCCC1)C(=O)NC(CC(=O)O)C(=O)NC(C)C(C)(C)C)C(C)(C)C
> <PUBCHEM_OPENEYE_ISO_SMILES>
CCC(CC)NC(=O)N[C@H](C(=O)N[C@@H](CC(=O)N1CCCC1)C(=O)N[C@@H](CC(=O)O)C(=O)N[C@H](C)C(C)(C)C)C(C)(C)C
> <PUBCHEM_CACTVS_TPSA>
186
> <PUBCHEM_MONOISOTOPIC_WEIGHT>
610.40539808
> <PUBCHEM_TOTAL_CHARGE>
0
> <PUBCHEM_HEAVY_ATOM_COUNT>
43
> <PUBCHEM_ATOM_DEF_STEREO_COUNT>
4
> <PUBCHEM_ATOM_UDEF_STEREO_COUNT>
0
> <PUBCHEM_BOND_DEF_STEREO_COUNT>
0
> <PUBCHEM_BOND_UDEF_STEREO_COUNT>
0
> <PUBCHEM_ISOTOPIC_ATOM_COUNT>
0
> <PUBCHEM_COMPONENT_COUNT>
1
> <PUBCHEM_CACTVS_TAUTO_COUNT>
-1
> <PUBCHEM_COORDINATE_TYPE>
1
5
255
> <PUBCHEM_BONDANNOTATIONS>
15  10  6
17  11  6
33  12  5
22  9  5
$$$$
