515355
  -OEChem-10302200282D
 83 83  0     1  0  0  0  0  0999 V2000
   10.6603    1.9806    0.0000 O   0  0  0  0  0  0  0  0  0  0  0  0
    8.0622   -0.5194    0.0000 O   0  0  0  0  0  0  0  0  0  0  0  0
    4.5981    0.4806    0.0000 O   0  0  0  0  0  0  0  0  0  0  0  0
    8.9282   -1.0194    0.0000 O   0  0  0  0  0  0  0  0  0  0  0  0
    3.7320    3.9806    0.0000 O   0  0  0  0  0  0  0  0  0  0  0  0
    5.4641    3.9806    0.0000 O   0  0  0  0  0  0  0  0  0  0  0  0
   12.3923   -2.0194    0.0000 O   0  0  0  0  0  0  0  0  0  0  0  0
    5.4641   -2.0194    0.0000 O   0  0  0  0  0  0  0  0  0  0  0  0
    4.5981   -0.5194    0.0000 O   0  0  0  0  0  0  0  0  0  0  0  0
    9.7942    3.4806    0.0000 N   0  0  0  0  0  0  0  0  0  0  0  0
    9.7942    0.4806    0.0000 N   0  0  0  0  0  0  0  0  0  0  0  0
    7.1962    0.9806    0.0000 N   0  0  0  0  0  0  0  0  0  0  0  0
    5.4641    1.9806    0.0000 N   0  0  0  0  0  0  0  0  0  0  0  0
   10.6603   -2.0194    0.0000 N   0  0  0  0  0  0  0  0  0  0  0  0
   10.2942    5.0194    0.0000 C   0  0  0  0  0  0  0  0  0  0  0  0
    9.2942    5.0194    0.0000 C   0  0  0  0  0  0  0  0  0  0  0  0
   10.6032    4.0684    0.0000 C   0  0  0  0  0  0  0  0  0  0  0  0
    8.9852    4.0684    0.0000 C   0  0  0  0  0  0  0  0  0  0  0  0
    9.7942    2.4806    0.0000 C   0  0  0  0  0  0  0  0  0  0  0  0
    8.9282    1.9806    0.0000 C   0  0  0  0  0  0  0  0  0  0  0  0
    8.9282    0.9806    0.0000 C   0  0  1  0  0  0  0  0  0  0  0  0
    8.0622    0.4806    0.0000 C   0  0  0  0  0  0  0  0  0  0  0  0
    3.7320    1.9806    0.0000 C   0  0  0  0  0  0  0  0  0  0  0  0
    6.3301    0.4806    0.0000 C   0  0  2  0  0  0  0  0  0  0  0  0
    4.5981    2.4806    0.0000 C   0  0  1  0  0  0  0  0  0  0  0  0
    2.8660    2.4806    0.0000 C   0  0  0  0  0  0  0  0  0  0  0  0
    5.4641    0.9806    0.0000 C   0  0  0  0  0  0  0  0  0  0  0  0
    6.3301   -0.5194    0.0000 C   0  0  0  0  0  0  0  0  0  0  0  0
   11.5263   -3.5194    0.0000 C   0  0  0  0  0  0  0  0  0  0  0  0
    9.7942   -0.5194    0.0000 C   0  0  0  0  0  0  0  0  0  0  0  0
    2.0000    1.9806    0.0000 C   0  0  0  0  0  0  0  0  0  0  0  0
    2.8660    3.4806    0.0000 C   0  0  0  0  0  0  0  0  0  0  0  0
   10.6603   -1.0194    0.0000 C   0  0  0  0  0  0  0  0  0  0  0  0
    4.5981    3.4806    0.0000 C   0  0  0  0  0  0  0  0  0  0  0  0
   12.3923   -4.0194    0.0000 C   0  0  0  0  0  0  0  0  0  0  0  0
   10.6603   -4.0194    0.0000 C   0  0  0  0  0  0  0  0  0  0  0  0
   11.5263   -2.5194    0.0000 C   0  0  0  0  0  0  0  0  0  0  0  0
    5.4641   -1.0194    0.0000 C   0  0  0  0  0  0  0  0  0  0  0  0
   12.3923   -5.0194    0.0000 C   0  0  0  0  0  0  0  0  0  0  0  0
   10.6603   -5.0194    0.0000 C   0  0  0  0  0  0  0  0  0  0  0  0
   10.9007    5.1483    0.0000 H   0  0  0  0  0  0  0  0  0  0  0  0
   10.2294    5.6360    0.0000 H   0  0  0  0  0  0  0  0  0  0  0  0
    9.3590    5.6360    0.0000 H   0  0  0  0  0  0  0  0  0  0  0  0
    8.6878    5.1483    0.0000 H   0  0  0  0  0  0  0  0  0  0  0  0
   10.9132    3.5314    0.0000 H   0  0  0  0  0  0  0  0  0  0  0  0
   11.1696    4.3205    0.0000 H   0  0  0  0  0  0  0  0  0  0  0  0
    8.4188    4.3205    0.0000 H   0  0  0  0  0  0  0  0  0  0  0  0
    8.6752    3.5314    0.0000 H   0  0  0  0  0  0  0  0  0  0  0  0
    8.7162    2.5632    0.0000 H   0  0  0  0  0  0  0  0  0  0  0  0
    8.3176    1.8729    0.0000 H   0  0  0  0  0  0  0  0  0  0  0  0
    9.4651    1.2906    0.0000 H   0  0  0  0  0  0  0  0  0  0  0  0
    3.3335    1.5056    0.0000 H   0  0  0  0  0  0  0  0  0  0  0  0
    4.1306    1.5056    0.0000 H   0  0  0  0  0  0  0  0  0  0  0  0
    6.8671    0.1706    0.0000 H   0  0  0  0  0  0  0  0  0  0  0  0
    4.5981    1.8606    0.0000 H   0  0  0  0  0  0  0  0  0  0  0  0
    2.8660    1.8606    0.0000 H   0  0  0  0  0  0  0  0  0  0  0  0
   10.3312    0.7906    0.0000 H   0  0  0  0  0  0  0  0  0  0  0  0
    7.1962    1.6006    0.0000 H   0  0  0  0  0  0  0  0  0  0  0  0
    6.0010    2.2906    0.0000 H   0  0  0  0  0  0  0  0  0  0  0  0
    6.5422   -1.1020    0.0000 H   0  0  0  0  0  0  0  0  0  0  0  0
    6.9407   -0.4118    0.0000 H   0  0  0  0  0  0  0  0  0  0  0  0
   12.0632   -3.2094    0.0000 H   0  0  0  0  0  0  0  0  0  0  0  0
    1.6900    2.5175    0.0000 H   0  0  0  0  0  0  0  0  0  0  0  0
    1.4631    1.6706    0.0000 H   0  0  0  0  0  0  0  0  0  0  0  0
    2.3100    1.4436    0.0000 H   0  0  0  0  0  0  0  0  0  0  0  0
    3.4860    3.4806    0.0000 H   0  0  0  0  0  0  0  0  0  0  0  0
    2.8660    4.1006    0.0000 H   0  0  0  0  0  0  0  0  0  0  0  0
    2.2460    3.4806    0.0000 H   0  0  0  0  0  0  0  0  0  0  0  0
   11.2708   -1.1271    0.0000 H   0  0  0  0  0  0  0  0  0  0  0  0
   10.8723   -0.4368    0.0000 H   0  0  0  0  0  0  0  0  0  0  0  0
   13.0029   -4.1271    0.0000 H   0  0  0  0  0  0  0  0  0  0  0  0
   12.6044   -3.4368    0.0000 H   0  0  0  0  0  0  0  0  0  0  0  0
   10.4482   -3.4368    0.0000 H   0  0  0  0  0  0  0  0  0  0  0  0
   10.0497   -4.1271    0.0000 H   0  0  0  0  0  0  0  0  0  0  0  0
   10.1233   -2.3294    0.0000 H   0  0  0  0  0  0  0  0  0  0  0  0
   11.7723   -5.0194    0.0000 H   0  0  0  0  0  0  0  0  0  0  0  0
   12.3923   -5.6394    0.0000 H   0  0  0  0  0  0  0  0  0  0  0  0
   13.0123   -5.0194    0.0000 H   0  0  0  0  0  0  0  0  0  0  0  0
   10.0403   -5.0194    0.0000 H   0  0  0  0  0  0  0  0  0  0  0  0
   10.6603   -5.6394    0.0000 H   0  0  0  0  0  0  0  0  0  0  0  0
   11.2803   -5.0194    0.0000 H   0  0  0  0  0  0  0  0  0  0  0  0
    3.7320    4.6006    0.0000 H   0  0  0  0  0  0  0  0  0  0  0  0
    4.9272   -2.3294    0.0000 H   0  0  0  0  0  0  0  0  0  0  0  0
  1 19  2  0  0  0  0
  2 22  2  0  0  0  0
  3 27  2  0  0  0  0
  4 30  2  0  0  0  0
  5 34  1  0  0  0  0
  5 82  1  0  0  0  0
  6 34  2  0  0  0  0
  7 37  2  0  0  0  0
  8 38  1  0  0  0  0
  8 83  1  0  0  0  0
  9 38  2  0  0  0  0
 10 17  1  0  0  0  0
 10 18  1  0  0  0  0
 10 19  1  0  0  0  0
 21 11  1  6  0  0  0
 11 30  1  0  0  0  0
 11 57  1  0  0  0  0
 12 22  1  0  0  0  0
 24 12  1  1  0  0  0
 12 58  1  0  0  0  0
 25 13  1  1  0  0  0
 13 27  1  0  0  0  0
 13 59  1  0  0  0  0
 14 33  1  0  0  0  0
 14 37  1  0  0  0  0
 14 75  1  0  0  0  0
 15 16  1  0  0  0  0
 15 17  1  0  0  0  0
 15 41  1  0  0  0  0
 15 42  1  0  0  0  0
 16 18  1  0  0  0  0
 16 43  1  0  0  0  0
 16 44  1  0  0  0  0
 17 45  1  0  0  0  0
 17 46  1  0  0  0  0
 18 47  1  0  0  0  0
 18 48  1  0  0  0  0
 19 20  1  0  0  0  0
 20 21  1  0  0  0  0
 20 49  1  0  0  0  0
 20 50  1  0  0  0  0
 21 22  1  0  0  0  0
 21 51  1  0  0  0  0
 23 25  1  0  0  0  0
 23 26  1  0  0  0  0
 23 52  1  0  0  0  0
 23 53  1  0  0  0  0
 24 27  1  0  0  0  0
 24 28  1  0  0  0  0
 24 54  1  0  0  0  0
 25 34  1  0  0  0  0
 25 55  1  0  0  0  0
 26 31  1  0  0  0  0
 26 32  1  0  0  0  0
 26 56  1  0  0  0  0
 28 38  1  0  0  0  0
 28 60  1  0  0  0  0
 28 61  1  0  0  0  0
 29 35  1  0  0  0  0
 29 36  1  0  0  0  0
 29 37  1  0  0  0  0
 29 62  1  0  0  0  0
 30 33  1  0  0  0  0
 31 63  1  0  0  0  0
 31 64  1  0  0  0  0
 31 65  1  0  0  0  0
 32 66  1  0  0  0  0
 32 67  1  0  0  0  0
 32 68  1  0  0  0  0
 33 69  1  0  0  0  0
 33 70  1  0  0  0  0
 35 39  1  0  0  0  0
 35 71  1  0  0  0  0
 35 72  1  0  0  0  0
 36 40  1  0  0  0  0
 36 73  1  0  0  0  0
 36 74  1  0  0  0  0
 39 76  1  0  0  0  0
 39 77  1  0  0  0  0
 39 78  1  0  0  0  0
 40 79  1  0  0  0  0
 40 80  1  0  0  0  0
 40 81  1  0  0  0  0
M  END
> <PUBCHEM_COMPOUND_CID>
515355
> <PUBCHEM_COMPOUND_CANONICALIZED>
1
> <PUBCHEM_CACTVS_COMPLEXITY>
930
> <PUBCHEM_CACTVS_HBOND_ACCEPTOR>
9
> <PUBCHEM_CACTVS_HBOND_DONOR>
6
> <PUBCHEM_CACTVS_ROTATABLE_BOND>
17
> <PUBCHEM_CACTVS_SUBSKEYS>
AAADcfB7vAAAAAAAAAAAAAAAAAAAAWAAAAAAAAAAAAAAAAAAAAAAHgAQCAAADSjBgAQCCAPAAgAIAAGQGAAAAAAAAAAAAIGIAAACQBoAwCAUQAAGFgCQAACvAAAOAAAAAAAAAAAAAAAAAAAAAAAAAAAAAA==
> <PUBCHEM_IUPAC_OPENEYE_NAME>
(2S)-2-[[(2S)-3-carboxy-2-[[(2S)-2-[[2-(2-ethylbutanoylamino)acetyl]amino]-4-oxo-4-pyrrolidin-1-yl-butanoyl]amino]propanoyl]amino]-4-methyl-pentanoic acid
> <PUBCHEM_IUPAC_CAS_NAME>
(2S)-2-[[(2S)-3-carboxy-2-[[(2S)-2-[[2-[(2-ethyl-1-oxobutyl)amino]-1-oxoethyl]amino]-1,4-dioxo-4-(1-pyrrolidinyl)butyl]amino]-1-oxopropyl]amino]-4-methylpentanoic acid
> <PUBCHEM_IUPAC_NAME_MARKUP>
(2<I>S</I>)-2-[[(2<I>S</I>)-3-carboxy-2-[[(2<I>S</I>)-2-[[2-(2-ethylbutanoylamino)acetyl]amino]-4-oxo-4-pyrrolidin-1-ylbutanoyl]amino]propanoyl]amino]-4-methylpentanoic acid
> <PUBCHEM_IUPAC_NAME>
(2S)-2-[[(2S)-3-carboxy-2-[[(2S)-2-[[2-(2-ethylbutanoylamino)acetyl]amino]-4-oxo-4-pyrrolidin-1-ylbutanoyl]amino]propanoyl]amino]-4-methylpentanoic acid
> <PUBCHEM_IUPAC_SYSTEMATIC_NAME>
(2S)-2-[[(2S)-2-[[(2S)-2-[2-(2-ethylbutanoylamino)ethanoylamino]-4-oxidanylidene-4-pyrrolidin-1-yl-butanoyl]amino]-4-oxidanyl-4-oxidanylidene-butanoyl]amino]-4-methyl-pentanoic acid
> <PUBCHEM_IUPAC_TRADITIONAL_NAME>
(2S)-2-[[(2S)-3-carboxy-2-[[(2S)-2-[[2-(2-ethylbutanoylamino)acetyl]amino]-4-keto-4-pyrrolidino-butanoyl]amino]propanoyl]amino]-4-methyl-valeric acid
> <PUBCHEM_IUPAC_INCHI>
InChI=1S/C26H43N5O9/c1-5-16(6-2)23(36)27-14-20(32)28-17(12-21(33)31-9-7-8-10-31)24(37)29-18(13-22(34)35)25(38)30-19(26(39)40)11-15(3)4/h15-19H,5-14H2,1-4H3,(H,27,36)(H,28,32)(H,29,37)(H,30,38)(H,34,35)(H,39,40)/t17-,18-,19-/m0/s1
> <PUBCHEM_IUPAC_INCHIKEY>
KNTSYHIGMZBALU-FHWLQOOXSA-N
> <PUBCHEM_XLOGP3_AA>
0.1
> <PUBCHEM_EXACT_MASS>
569.30607797
> <PUBCHEM_MOLECULAR_FORMULA>
C26H43N5O9
> <PUBCHEM_MOLECULAR_WEIGHT>
569.6
> <PUBCHEM_OPENEYE_CAN_SMILES>
CCC(CC)C(=O)NCC(=O)NC(CC(=O)N1CCCC1)C(=O)NC(CC(=O)O)C(=O)NC(CC(C)C)C(=O)O
> <PUBCHEM_OPENEYE_ISO_SMILES>
CCC(CC)C(=O)NCC(=O)N[C@@H](CC(=O)N1CCCC1)C(=O)N[C@@H](CC(=O)O)C(=O)N[C@@H](CC(C)C)C(=O)O
> <PUBCHEM_CACTVS_TPSA>
211
> <PUBCHEM_MONOISOTOPIC_WEIGHT>
569.30607797
> <PUBCHEM_TOTAL_CHARGE>
0
> <PUBCHEM_HEAVY_ATOM_COUNT>
40
> <PUBCHEM_ATOM_DEF_STEREO_COUNT>
3
> <PUBCHEM_ATOM_UDEF_STEREO_COUNT>
0
> <PUBCHEM_BOND_DEF_STEREO_COUNT>
0
> <PUBCHEM_BOND_UDEF_STEREO_COUNT>
0
> <PUBCHEM_ISOTOPIC_ATOM_COUNT>
0
> <PUBCHEM_COMPONENT_COUNT>
1
> <PUBCHEM_CACTVS_TAUTO_COUNT>
-1
> <PUBCHEM_COORDINATE_TYPE>
1
5
255
> <PUBCHEM_BONDANNOTATIONS>
21  11  6
24  12  5
25  13  5
$$$$
