515380
  -OEChem-10302200282D
 50 53  0     1  0  0  0  0  0999 V2000
    9.3775    3.5534    0.0000 P   0  0  0  0  0  0  0  0  0  0  0  0
    8.7327    0.1003    0.0000 O   0  0  0  0  0  0  0  0  0  0  0  0
   11.0786   -0.9916    0.0000 O   0  0  0  0  0  0  0  0  0  0  0  0
   11.0824    1.1840    0.0000 O   0  0  0  0  0  0  0  0  0  0  0  0
    9.6849    2.6018    0.0000 O   0  0  0  0  0  0  0  0  0  0  0  0
    5.4641   -3.4650    0.0000 O   0  0  0  0  0  0  0  0  0  0  0  0
    9.0702    4.5050    0.0000 O   0  0  0  0  0  0  0  0  0  0  0  0
   10.3291    3.8608    0.0000 O   0  0  0  0  0  0  0  0  0  0  0  0
    7.1962   -4.4650    0.0000 O   0  0  0  0  0  0  0  0  0  0  0  0
    8.4259    3.2460    0.0000 O   0  0  0  0  0  0  0  0  0  0  0  0
    9.0084   -1.6603    0.0000 N   0  0  0  0  0  0  0  0  0  0  0  0
    9.0084   -3.2698    0.0000 N   0  0  0  0  0  0  0  0  0  0  0  0
    7.1962   -1.4650    0.0000 N   0  0  0  0  0  0  0  0  0  0  0  0
    6.3301   -2.9650    0.0000 N   0  0  0  0  0  0  0  0  0  0  0  0
   10.2706   -0.4024    0.0000 C   0  0  1  0  0  0  0  0  0  0  0  0
   10.2724    0.5976    0.0000 C   0  0  1  0  0  0  0  0  0  0  0  0
    9.3191   -0.7098    0.0000 C   0  0  1  0  0  0  0  0  0  0  0  0
    9.3219    0.9082    0.0000 C   0  0  1  0  0  0  0  0  0  0  0  0
    9.0145    1.8598    0.0000 C   0  0  0  0  0  0  0  0  0  0  0  0
    8.0622   -1.9650    0.0000 C   0  0  0  0  0  0  0  0  0  0  0  0
    9.5920   -2.4650    0.0000 C   0  0  0  0  0  0  0  0  0  0  0  0
    8.0622   -2.9650    0.0000 C   0  0  0  0  0  0  0  0  0  0  0  0
    7.1962   -3.4650    0.0000 C   0  0  0  0  0  0  0  0  0  0  0  0
    6.3301   -1.9650    0.0000 C   0  0  0  0  0  0  0  0  0  0  0  0
    4.5981   -2.9650    0.0000 C   0  0  0  0  0  0  0  0  0  0  0  0
    3.7320   -3.4650    0.0000 C   0  0  0  0  0  0  0  0  0  0  0  0
    3.7320   -4.4650    0.0000 C   0  0  0  0  0  0  0  0  0  0  0  0
    2.8660   -2.9650    0.0000 C   0  0  0  0  0  0  0  0  0  0  0  0
    2.8660   -4.9650    0.0000 C   0  0  0  0  0  0  0  0  0  0  0  0
    2.0000   -3.4650    0.0000 C   0  0  0  0  0  0  0  0  0  0  0  0
    2.0000   -4.4650    0.0000 C   0  0  0  0  0  0  0  0  0  0  0  0
   10.8236   -0.1219    0.0000 H   0  0  0  0  0  0  0  0  0  0  0  0
   10.1765    1.2101    0.0000 H   0  0  0  0  0  0  0  0  0  0  0  0
    9.7567   -1.1490    0.0000 H   0  0  0  0  0  0  0  0  0  0  0  0
    8.7097    1.0063    0.0000 H   0  0  0  0  0  0  0  0  0  0  0  0
    8.6336    2.3491    0.0000 H   0  0  0  0  0  0  0  0  0  0  0  0
    8.4666    1.5697    0.0000 H   0  0  0  0  0  0  0  0  0  0  0  0
   11.6455   -0.7404    0.0000 H   0  0  0  0  0  0  0  0  0  0  0  0
   11.6484    0.9308    0.0000 H   0  0  0  0  0  0  0  0  0  0  0  0
   10.2120   -2.4650    0.0000 H   0  0  0  0  0  0  0  0  0  0  0  0
    5.7932   -1.6550    0.0000 H   0  0  0  0  0  0  0  0  0  0  0  0
    9.4858    4.9650    0.0000 H   0  0  0  0  0  0  0  0  0  0  0  0
   10.4591    4.4670    0.0000 H   0  0  0  0  0  0  0  0  0  0  0  0
    4.9966   -2.4901    0.0000 H   0  0  0  0  0  0  0  0  0  0  0  0
    4.1996   -2.4901    0.0000 H   0  0  0  0  0  0  0  0  0  0  0  0
    4.2690   -4.7750    0.0000 H   0  0  0  0  0  0  0  0  0  0  0  0
    2.8660   -2.3450    0.0000 H   0  0  0  0  0  0  0  0  0  0  0  0
    2.8660   -5.5850    0.0000 H   0  0  0  0  0  0  0  0  0  0  0  0
    1.4631   -3.1550    0.0000 H   0  0  0  0  0  0  0  0  0  0  0  0
    1.4631   -4.7750    0.0000 H   0  0  0  0  0  0  0  0  0  0  0  0
  1  5  1  0  0  0  0
  1  7  1  0  0  0  0
  1  8  1  0  0  0  0
  1 10  2  0  0  0  0
  2 17  1  0  0  0  0
  2 18  1  0  0  0  0
 15  3  1  6  0  0  0
  3 38  1  0  0  0  0
 16  4  1  1  0  0  0
  4 39  1  0  0  0  0
  5 19  1  0  0  0  0
  6 14  1  0  0  0  0
  6 25  1  0  0  0  0
  7 42  1  0  0  0  0
  8 43  1  0  0  0  0
  9 23  2  0  0  0  0
 17 11  1  6  0  0  0
 11 20  1  0  0  0  0
 11 21  1  0  0  0  0
 12 21  2  0  0  0  0
 12 22  1  0  0  0  0
 13 20  1  0  0  0  0
 13 24  2  0  0  0  0
 14 23  1  0  0  0  0
 14 24  1  0  0  0  0
 15 16  1  0  0  0  0
 15 17  1  0  0  0  0
 15 32  1  0  0  0  0
 16 18  1  0  0  0  0
 16 33  1  0  0  0  0
 17 34  1  0  0  0  0
 18 19  1  6  0  0  0
 18 35  1  0  0  0  0
 19 36  1  0  0  0  0
 19 37  1  0  0  0  0
 20 22  2  0  0  0  0
 21 40  1  0  0  0  0
 22 23  1  0  0  0  0
 24 41  1  0  0  0  0
 25 26  1  0  0  0  0
 25 44  1  0  0  0  0
 25 45  1  0  0  0  0
 26 27  2  0  0  0  0
 26 28  1  0  0  0  0
 27 29  1  0  0  0  0
 27 46  1  0  0  0  0
 28 30  2  0  0  0  0
 28 47  1  0  0  0  0
 29 31  2  0  0  0  0
 29 48  1  0  0  0  0
 30 31  1  0  0  0  0
 30 49  1  0  0  0  0
 31 50  1  0  0  0  0
M  END
> <PUBCHEM_COMPOUND_CID>
515380
> <PUBCHEM_COMPOUND_CANONICALIZED>
1
> <PUBCHEM_CACTVS_COMPLEXITY>
730
> <PUBCHEM_CACTVS_HBOND_ACCEPTOR>
11
> <PUBCHEM_CACTVS_HBOND_DONOR>
4
> <PUBCHEM_CACTVS_ROTATABLE_BOND>
7
> <PUBCHEM_CACTVS_SUBSKEYS>
AAADceB7vAIAAAAAAAAAAAAAAAAAAWJAAAAwQAAAAAAAAEABwAAAHgAECCAADBzhngY1sJccFxCoQydzdICCgC03EKAp2AGoXMiLfirA2TCecIgvwgPbiGfw8CIOAAAAAAAAAAAAAAAAAAAAAAAAAAAAAA==
> <PUBCHEM_IUPAC_OPENEYE_NAME>
[(2R,3S,4S,5R)-5-(1-benzyloxy-6-oxo-purin-9-yl)-3,4-dihydroxy-tetrahydrofuran-2-yl]methyl dihydrogen phosphate
> <PUBCHEM_IUPAC_CAS_NAME>
[(2R,3S,4S,5R)-3,4-dihydroxy-5-(6-oxo-1-phenylmethoxy-9-purinyl)-2-oxolanyl]methyl dihydrogen phosphate
> <PUBCHEM_IUPAC_NAME_MARKUP>
[(2<I>R</I>,3<I>S</I>,4<I>S</I>,5<I>R</I>)-3,4-dihydroxy-5-(6-oxo-1-phenylmethoxypurin-9-yl)oxolan-2-yl]methyl dihydrogen phosphate
> <PUBCHEM_IUPAC_NAME>
[(2R,3S,4S,5R)-3,4-dihydroxy-5-(6-oxo-1-phenylmethoxypurin-9-yl)oxolan-2-yl]methyl dihydrogen phosphate
> <PUBCHEM_IUPAC_SYSTEMATIC_NAME>
[(2R,3S,4S,5R)-3,4-bis(oxidanyl)-5-(6-oxidanylidene-1-phenylmethoxy-purin-9-yl)oxolan-2-yl]methyl dihydrogen phosphate
> <PUBCHEM_IUPAC_TRADITIONAL_NAME>
[(2R,3S,4S,5R)-5-(1-benzoxy-6-keto-purin-9-yl)-3,4-dihydroxy-tetrahydrofuran-2-yl]methyl dihydrogen phosphate
> <PUBCHEM_IUPAC_INCHI>
InChI=1S/C17H19N4O9P/c22-13-11(7-29-31(25,26)27)30-17(14(13)23)20-8-18-12-15(20)19-9-21(16(12)24)28-6-10-4-2-1-3-5-10/h1-5,8-9,11,13-14,17,22-23H,6-7H2,(H2,25,26,27)/t11-,13-,14+,17-/m1/s1
> <PUBCHEM_IUPAC_INCHIKEY>
SHZYYPZEYUYQRG-MBMVNNNZSA-N
> <PUBCHEM_XLOGP3_AA>
-2.1
> <PUBCHEM_EXACT_MASS>
454.08896519
> <PUBCHEM_MOLECULAR_FORMULA>
C17H19N4O9P
> <PUBCHEM_MOLECULAR_WEIGHT>
454.3
> <PUBCHEM_OPENEYE_CAN_SMILES>
C1=CC=C(C=C1)CON2C=NC3=C(C2=O)N=CN3C4C(C(C(O4)COP(=O)(O)O)O)O
> <PUBCHEM_OPENEYE_ISO_SMILES>
C1=CC=C(C=C1)CON2C=NC3=C(C2=O)N=CN3[C@H]4[C@H]([C@@H]([C@H](O4)COP(=O)(O)O)O)O
> <PUBCHEM_CACTVS_TPSA>
176
> <PUBCHEM_MONOISOTOPIC_WEIGHT>
454.08896519
> <PUBCHEM_TOTAL_CHARGE>
0
> <PUBCHEM_HEAVY_ATOM_COUNT>
31
> <PUBCHEM_ATOM_DEF_STEREO_COUNT>
4
> <PUBCHEM_ATOM_UDEF_STEREO_COUNT>
0
> <PUBCHEM_BOND_DEF_STEREO_COUNT>
0
> <PUBCHEM_BOND_UDEF_STEREO_COUNT>
0
> <PUBCHEM_ISOTOPIC_ATOM_COUNT>
0
> <PUBCHEM_COMPONENT_COUNT>
1
> <PUBCHEM_CACTVS_TAUTO_COUNT>
-1
> <PUBCHEM_COORDINATE_TYPE>
1
5
255
> <PUBCHEM_BONDANNOTATIONS>
17  11  6
11  20  8
11  21  8
12  21  8
12  22  8
13  20  8
13  24  8
14  23  8
14  24  8
18  19  6
20  22  8
22  23  8
26  27  8
26  28  8
27  29  8
28  30  8
29  31  8
15  3  6
30  31  8
16  4  5
$$$$
