515370
  -OEChem-10302200282D
101101  0     1  0  0  0  0  0999 V2000
    7.7331   -1.0194    0.0000 O   0  0  0  0  0  0  0  0  0  0  0  0
    9.4651    1.9806    0.0000 O   0  0  0  0  0  0  0  0  0  0  0  0
    6.8671   -0.5194    0.0000 O   0  0  0  0  0  0  0  0  0  0  0  0
    6.0010   -1.0194    0.0000 O   0  0  0  0  0  0  0  0  0  0  0  0
   11.1972   -2.0194    0.0000 O   0  0  0  0  0  0  0  0  0  0  0  0
    2.5369    0.9806    0.0000 O   0  0  0  0  0  0  0  0  0  0  0  0
    3.4030    2.4806    0.0000 O   0  0  0  0  0  0  0  0  0  0  0  0
    3.4030   -3.5194    0.0000 O   0  0  0  0  0  0  0  0  0  0  0  0
    2.5369   -2.0194    0.0000 O   0  0  0  0  0  0  0  0  0  0  0  0
    8.5991    3.4806    0.0000 N   0  0  0  0  0  0  0  0  0  0  0  0
    8.5991    0.4806    0.0000 N   0  0  0  0  0  0  0  0  0  0  0  0
    9.4651   -2.0194    0.0000 N   0  0  0  0  0  0  0  0  0  0  0  0
    6.0010    0.9806    0.0000 N   0  0  0  0  0  0  0  0  0  0  0  0
    4.2690   -1.0194    0.0000 N   0  0  0  0  0  0  0  0  0  0  0  0
   10.3312   -0.5194    0.0000 C   0  0  0  0  0  0  0  0  0  0  0  0
    9.4651   -1.0194    0.0000 C   0  0  1  0  0  0  0  0  0  0  0  0
    7.7331    0.9806    0.0000 C   0  0  1  0  0  0  0  0  0  0  0  0
    4.2690    0.9806    0.0000 C   0  0  0  0  0  0  0  0  0  0  0  0
    5.1350    0.4806    0.0000 C   0  0  1  0  0  0  0  0  0  0  0  0
    9.4081    4.0684    0.0000 C   0  0  0  0  0  0  0  0  0  0  0  0
    7.7901    4.0684    0.0000 C   0  0  0  0  0  0  0  0  0  0  0  0
    9.0991    5.0194    0.0000 C   0  0  0  0  0  0  0  0  0  0  0  0
    8.0991    5.0194    0.0000 C   0  0  0  0  0  0  0  0  0  0  0  0
    7.7331    1.9806    0.0000 C   0  0  0  0  0  0  0  0  0  0  0  0
    8.5991   -0.5194    0.0000 C   0  0  0  0  0  0  0  0  0  0  0  0
   11.1972   -0.0194    0.0000 C   0  0  0  0  0  0  0  0  0  0  0  0
   10.8312   -1.3854    0.0000 C   0  0  0  0  0  0  0  0  0  0  0  0
    9.8312    0.3466    0.0000 C   0  0  0  0  0  0  0  0  0  0  0  0
    8.5991    2.4806    0.0000 C   0  0  0  0  0  0  0  0  0  0  0  0
    6.8671    0.4806    0.0000 C   0  0  0  0  0  0  0  0  0  0  0  0
   10.3312   -3.5194    0.0000 C   0  0  0  0  0  0  0  0  0  0  0  0
    5.1350   -0.5194    0.0000 C   0  0  0  0  0  0  0  0  0  0  0  0
   10.3312   -2.5194    0.0000 C   0  0  0  0  0  0  0  0  0  0  0  0
    3.7690    0.1146    0.0000 C   0  0  0  0  0  0  0  0  0  0  0  0
    4.7690    1.8466    0.0000 C   0  0  0  0  0  0  0  0  0  0  0  0
    4.2690   -2.0194    0.0000 C   0  0  1  0  0  0  0  0  0  0  0  0
    3.4030    1.4806    0.0000 C   0  0  0  0  0  0  0  0  0  0  0  0
   11.1972   -4.0194    0.0000 C   0  0  0  0  0  0  0  0  0  0  0  0
    9.4651   -4.0194    0.0000 C   0  0  0  0  0  0  0  0  0  0  0  0
    5.1350   -2.5194    0.0000 C   0  0  0  0  0  0  0  0  0  0  0  0
    5.1350   -3.5194    0.0000 C   0  0  0  0  0  0  0  0  0  0  0  0
   11.1972   -5.0194    0.0000 C   0  0  0  0  0  0  0  0  0  0  0  0
    9.4651   -5.0194    0.0000 C   0  0  0  0  0  0  0  0  0  0  0  0
    3.4030   -2.5194    0.0000 C   0  0  0  0  0  0  0  0  0  0  0  0
    6.0010   -4.0194    0.0000 C   0  0  0  0  0  0  0  0  0  0  0  0
    4.2690   -4.0194    0.0000 C   0  0  0  0  0  0  0  0  0  0  0  0
   10.0021   -1.3294    0.0000 H   0  0  0  0  0  0  0  0  0  0  0  0
    7.7331    0.3606    0.0000 H   0  0  0  0  0  0  0  0  0  0  0  0
    5.1350    1.1006    0.0000 H   0  0  0  0  0  0  0  0  0  0  0  0
    9.7181    3.5314    0.0000 H   0  0  0  0  0  0  0  0  0  0  0  0
    9.9745    4.3205    0.0000 H   0  0  0  0  0  0  0  0  0  0  0  0
    7.2237    4.3205    0.0000 H   0  0  0  0  0  0  0  0  0  0  0  0
    7.4801    3.5314    0.0000 H   0  0  0  0  0  0  0  0  0  0  0  0
    9.7056    5.1483    0.0000 H   0  0  0  0  0  0  0  0  0  0  0  0
    9.0343    5.6360    0.0000 H   0  0  0  0  0  0  0  0  0  0  0  0
    8.1639    5.6360    0.0000 H   0  0  0  0  0  0  0  0  0  0  0  0
    7.4927    5.1483    0.0000 H   0  0  0  0  0  0  0  0  0  0  0  0
    7.5210    2.5632    0.0000 H   0  0  0  0  0  0  0  0  0  0  0  0
    7.1225    1.8729    0.0000 H   0  0  0  0  0  0  0  0  0  0  0  0
   11.5072   -0.5564    0.0000 H   0  0  0  0  0  0  0  0  0  0  0  0
   11.7341    0.2906    0.0000 H   0  0  0  0  0  0  0  0  0  0  0  0
   10.8872    0.5175    0.0000 H   0  0  0  0  0  0  0  0  0  0  0  0
   10.2942   -1.6954    0.0000 H   0  0  0  0  0  0  0  0  0  0  0  0
   11.1412   -1.9224    0.0000 H   0  0  0  0  0  0  0  0  0  0  0  0
   11.3681   -1.0754    0.0000 H   0  0  0  0  0  0  0  0  0  0  0  0
   10.3681    0.6566    0.0000 H   0  0  0  0  0  0  0  0  0  0  0  0
    9.5212    0.8835    0.0000 H   0  0  0  0  0  0  0  0  0  0  0  0
    9.2942    0.0366    0.0000 H   0  0  0  0  0  0  0  0  0  0  0  0
    9.1360    0.7906    0.0000 H   0  0  0  0  0  0  0  0  0  0  0  0
    8.9282   -2.3294    0.0000 H   0  0  0  0  0  0  0  0  0  0  0  0
    6.0010    1.6006    0.0000 H   0  0  0  0  0  0  0  0  0  0  0  0
   10.8681   -3.2094    0.0000 H   0  0  0  0  0  0  0  0  0  0  0  0
    3.2320    0.4246    0.0000 H   0  0  0  0  0  0  0  0  0  0  0  0
    3.4590   -0.4224    0.0000 H   0  0  0  0  0  0  0  0  0  0  0  0
    4.3059   -0.1954    0.0000 H   0  0  0  0  0  0  0  0  0  0  0  0
    5.3059    1.5366    0.0000 H   0  0  0  0  0  0  0  0  0  0  0  0
    5.0790    2.3835    0.0000 H   0  0  0  0  0  0  0  0  0  0  0  0
    4.2320    2.1566    0.0000 H   0  0  0  0  0  0  0  0  0  0  0  0
    4.8059   -1.7094    0.0000 H   0  0  0  0  0  0  0  0  0  0  0  0
    3.7320   -0.7094    0.0000 H   0  0  0  0  0  0  0  0  0  0  0  0
   11.8078   -4.1271    0.0000 H   0  0  0  0  0  0  0  0  0  0  0  0
   11.4092   -3.4368    0.0000 H   0  0  0  0  0  0  0  0  0  0  0  0
    9.2531   -3.4368    0.0000 H   0  0  0  0  0  0  0  0  0  0  0  0
    8.8546   -4.1271    0.0000 H   0  0  0  0  0  0  0  0  0  0  0  0
    5.7456   -2.6271    0.0000 H   0  0  0  0  0  0  0  0  0  0  0  0
    5.3471   -1.9368    0.0000 H   0  0  0  0  0  0  0  0  0  0  0  0
    5.6720   -3.2094    0.0000 H   0  0  0  0  0  0  0  0  0  0  0  0
   10.5772   -5.0194    0.0000 H   0  0  0  0  0  0  0  0  0  0  0  0
   11.1972   -5.6394    0.0000 H   0  0  0  0  0  0  0  0  0  0  0  0
   11.8172   -5.0194    0.0000 H   0  0  0  0  0  0  0  0  0  0  0  0
    8.8451   -5.0194    0.0000 H   0  0  0  0  0  0  0  0  0  0  0  0
    9.4651   -5.6394    0.0000 H   0  0  0  0  0  0  0  0  0  0  0  0
   10.0851   -5.0194    0.0000 H   0  0  0  0  0  0  0  0  0  0  0  0
    5.6910   -4.5564    0.0000 H   0  0  0  0  0  0  0  0  0  0  0  0
    6.5380   -4.3294    0.0000 H   0  0  0  0  0  0  0  0  0  0  0  0
    6.3110   -3.4825    0.0000 H   0  0  0  0  0  0  0  0  0  0  0  0
    3.9590   -3.4825    0.0000 H   0  0  0  0  0  0  0  0  0  0  0  0
    3.7320   -4.3294    0.0000 H   0  0  0  0  0  0  0  0  0  0  0  0
    4.5790   -4.5564    0.0000 H   0  0  0  0  0  0  0  0  0  0  0  0
    2.0000    1.2906    0.0000 H   0  0  0  0  0  0  0  0  0  0  0  0
    2.8660   -3.8294    0.0000 H   0  0  0  0  0  0  0  0  0  0  0  0
  1 25  2  0  0  0  0
  2 29  2  0  0  0  0
  3 30  2  0  0  0  0
  4 32  2  0  0  0  0
  5 33  2  0  0  0  0
  6 37  1  0  0  0  0
  6100  1  0  0  0  0
  7 37  2  0  0  0  0
  8 44  1  0  0  0  0
  8101  1  0  0  0  0
  9 44  2  0  0  0  0
 10 20  1  0  0  0  0
 10 21  1  0  0  0  0
 10 29  1  0  0  0  0
 17 11  1  6  0  0  0
 11 25  1  0  0  0  0
 11 69  1  0  0  0  0
 16 12  1  6  0  0  0
 12 33  1  0  0  0  0
 12 70  1  0  0  0  0
 19 13  1  6  0  0  0
 13 30  1  0  0  0  0
 13 71  1  0  0  0  0
 14 32  1  0  0  0  0
 36 14  1  1  0  0  0
 14 80  1  0  0  0  0
 15 16  1  0  0  0  0
 15 26  1  0  0  0  0
 15 27  1  0  0  0  0
 15 28  1  0  0  0  0
 16 25  1  0  0  0  0
 16 47  1  0  0  0  0
 17 24  1  0  0  0  0
 17 30  1  0  0  0  0
 17 48  1  0  0  0  0
 18 19  1  0  0  0  0
 18 34  1  0  0  0  0
 18 35  1  0  0  0  0
 18 37  1  0  0  0  0
 19 32  1  0  0  0  0
 19 49  1  0  0  0  0
 20 22  1  0  0  0  0
 20 50  1  0  0  0  0
 20 51  1  0  0  0  0
 21 23  1  0  0  0  0
 21 52  1  0  0  0  0
 21 53  1  0  0  0  0
 22 23  1  0  0  0  0
 22 54  1  0  0  0  0
 22 55  1  0  0  0  0
 23 56  1  0  0  0  0
 23 57  1  0  0  0  0
 24 29  1  0  0  0  0
 24 58  1  0  0  0  0
 24 59  1  0  0  0  0
 26 60  1  0  0  0  0
 26 61  1  0  0  0  0
 26 62  1  0  0  0  0
 27 63  1  0  0  0  0
 27 64  1  0  0  0  0
 27 65  1  0  0  0  0
 28 66  1  0  0  0  0
 28 67  1  0  0  0  0
 28 68  1  0  0  0  0
 31 33  1  0  0  0  0
 31 38  1  0  0  0  0
 31 39  1  0  0  0  0
 31 72  1  0  0  0  0
 34 73  1  0  0  0  0
 34 74  1  0  0  0  0
 34 75  1  0  0  0  0
 35 76  1  0  0  0  0
 35 77  1  0  0  0  0
 35 78  1  0  0  0  0
 36 40  1  0  0  0  0
 36 44  1  0  0  0  0
 36 79  1  0  0  0  0
 38 42  1  0  0  0  0
 38 81  1  0  0  0  0
 38 82  1  0  0  0  0
 39 43  1  0  0  0  0
 39 83  1  0  0  0  0
 39 84  1  0  0  0  0
 40 41  1  0  0  0  0
 40 85  1  0  0  0  0
 40 86  1  0  0  0  0
 41 45  1  0  0  0  0
 41 46  1  0  0  0  0
 41 87  1  0  0  0  0
 42 88  1  0  0  0  0
 42 89  1  0  0  0  0
 42 90  1  0  0  0  0
 43 91  1  0  0  0  0
 43 92  1  0  0  0  0
 43 93  1  0  0  0  0
 45 94  1  0  0  0  0
 45 95  1  0  0  0  0
 45 96  1  0  0  0  0
 46 97  1  0  0  0  0
 46 98  1  0  0  0  0
 46 99  1  0  0  0  0
M  END
> <PUBCHEM_COMPOUND_CID>
515370
> <PUBCHEM_COMPOUND_CANONICALIZED>
1
> <PUBCHEM_CACTVS_COMPLEXITY>
1120
> <PUBCHEM_CACTVS_HBOND_ACCEPTOR>
9
> <PUBCHEM_CACTVS_HBOND_DONOR>
6
> <PUBCHEM_CACTVS_ROTATABLE_BOND>
18
> <PUBCHEM_CACTVS_SUBSKEYS>
AAADcfB/vAAAAAAAAAAAAAAAAAAAAWAAAAAAAAAAAAAAAAAAAAAAHgAQCAAADyjBgAQCCAPAAgAIAAGQGAAAAAAAAAAAAIGIAAACQBoAwCAUQAAGFgCQAACvAAAPAAAAAAAAAAAAAAAAAAAAAAAAAAAAAA==
> <PUBCHEM_IUPAC_OPENEYE_NAME>
(3S)-4-[[(1S)-1-carboxy-3-methyl-butyl]amino]-3-[[(2S)-2-[[(2S)-2-(2-ethylbutanoylamino)-3,3-dimethyl-butanoyl]amino]-4-oxo-4-pyrrolidin-1-yl-butanoyl]amino]-2,2-dimethyl-4-oxo-butanoic acid
> <PUBCHEM_IUPAC_CAS_NAME>
(3S)-4-[[(1S)-1-carboxy-3-methylbutyl]amino]-3-[[(2S)-2-[[(2S)-2-[(2-ethyl-1-oxobutyl)amino]-3,3-dimethyl-1-oxobutyl]amino]-1,4-dioxo-4-(1-pyrrolidinyl)butyl]amino]-2,2-dimethyl-4-oxobutanoic acid
> <PUBCHEM_IUPAC_NAME_MARKUP>
(3<I>S</I>)-4-[[(1<I>S</I>)-1-carboxy-3-methylbutyl]amino]-3-[[(2<I>S</I>)-2-[[(2<I>S</I>)-2-(2-ethylbutanoylamino)-3,3-dimethylbutanoyl]amino]-4-oxo-4-pyrrolidin-1-ylbutanoyl]amino]-2,2-dimethyl-4-oxobutanoic acid
> <PUBCHEM_IUPAC_NAME>
(3S)-4-[[(1S)-1-carboxy-3-methylbutyl]amino]-3-[[(2S)-2-[[(2S)-2-(2-ethylbutanoylamino)-3,3-dimethylbutanoyl]amino]-4-oxo-4-pyrrolidin-1-ylbutanoyl]amino]-2,2-dimethyl-4-oxobutanoic acid
> <PUBCHEM_IUPAC_SYSTEMATIC_NAME>
(3S)-3-[[(2S)-2-[[(2S)-2-(2-ethylbutanoylamino)-3,3-dimethyl-butanoyl]amino]-4-oxidanylidene-4-pyrrolidin-1-yl-butanoyl]amino]-2,2-dimethyl-4-[[(2S)-4-methyl-1-oxidanyl-1-oxidanylidene-pentan-2-yl]amino]-4-oxidanylidene-butanoic acid
> <PUBCHEM_IUPAC_TRADITIONAL_NAME>
(3S)-4-[[(1S)-1-carboxy-3-methyl-butyl]amino]-3-[[(2S)-2-[[(2S)-2-(2-ethylbutanoylamino)-3,3-dimethyl-butanoyl]amino]-4-keto-4-pyrrolidino-butanoyl]amino]-4-keto-2,2-dimethyl-butyric acid
> <PUBCHEM_IUPAC_INCHI>
InChI=1S/C32H55N5O9/c1-10-19(11-2)25(39)35-23(31(5,6)7)27(41)33-20(17-22(38)37-14-12-13-15-37)26(40)36-24(32(8,9)30(45)46)28(42)34-21(29(43)44)16-18(3)4/h18-21,23-24H,10-17H2,1-9H3,(H,33,41)(H,34,42)(H,35,39)(H,36,40)(H,43,44)(H,45,46)/t20-,21-,23+,24+/m0/s1
> <PUBCHEM_IUPAC_INCHIKEY>
YBXVNJUHCJDTMR-NEUULRRLSA-N
> <PUBCHEM_XLOGP3_AA>
2.8
> <PUBCHEM_EXACT_MASS>
653.39997835
> <PUBCHEM_MOLECULAR_FORMULA>
C32H55N5O9
> <PUBCHEM_MOLECULAR_WEIGHT>
653.8
> <PUBCHEM_OPENEYE_CAN_SMILES>
CCC(CC)C(=O)NC(C(=O)NC(CC(=O)N1CCCC1)C(=O)NC(C(=O)NC(CC(C)C)C(=O)O)C(C)(C)C(=O)O)C(C)(C)C
> <PUBCHEM_OPENEYE_ISO_SMILES>
CCC(CC)C(=O)N[C@H](C(=O)N[C@@H](CC(=O)N1CCCC1)C(=O)N[C@H](C(=O)N[C@@H](CC(C)C)C(=O)O)C(C)(C)C(=O)O)C(C)(C)C
> <PUBCHEM_CACTVS_TPSA>
211
> <PUBCHEM_MONOISOTOPIC_WEIGHT>
653.39997835
> <PUBCHEM_TOTAL_CHARGE>
0
> <PUBCHEM_HEAVY_ATOM_COUNT>
46
> <PUBCHEM_ATOM_DEF_STEREO_COUNT>
4
> <PUBCHEM_ATOM_UDEF_STEREO_COUNT>
0
> <PUBCHEM_BOND_DEF_STEREO_COUNT>
0
> <PUBCHEM_BOND_UDEF_STEREO_COUNT>
0
> <PUBCHEM_ISOTOPIC_ATOM_COUNT>
0
> <PUBCHEM_COMPONENT_COUNT>
1
> <PUBCHEM_CACTVS_TAUTO_COUNT>
-1
> <PUBCHEM_COORDINATE_TYPE>
1
5
255
> <PUBCHEM_BONDANNOTATIONS>
17  11  6
16  12  6
19  13  6
36  14  5
$$$$
