515352
  -OEChem-10302200282D
 96 97  0     1  0  0  0  0  0999 V2000
    4.2690   -2.5000    0.0000 O   0  0  0  0  0  0  0  0  0  0  0  0
    7.7331   -1.5000    0.0000 O   0  0  0  0  0  0  0  0  0  0  0  0
    9.4651    1.5000    0.0000 O   0  0  0  0  0  0  0  0  0  0  0  0
    8.5991    2.0000    0.0000 O   0  0  0  0  0  0  0  0  0  0  0  0
    6.0010    4.5000    0.0000 O   0  0  0  0  0  0  0  0  0  0  0  0
    2.5369    3.5000    0.0000 O   0  0  0  0  0  0  0  0  0  0  0  0
    8.5991    5.0000    0.0000 O   0  0  0  0  0  0  0  0  0  0  0  0
    3.4030    2.0000    0.0000 O   0  0  0  0  0  0  0  0  0  0  0  0
    6.8671    5.0000    0.0000 O   0  0  0  0  0  0  0  0  0  0  0  0
    6.0010   -2.5000    0.0000 N   0  0  0  0  0  0  0  0  0  0  0  0
   10.3312    0.0000    0.0000 N   0  0  0  0  0  0  0  0  0  0  0  0
    6.8671    0.0000    0.0000 N   0  0  0  0  0  0  0  0  0  0  0  0
    6.8671    2.0000    0.0000 N   0  0  0  0  0  0  0  0  0  0  0  0
    5.1350    3.0000    0.0000 N   0  0  0  0  0  0  0  0  0  0  0  0
    5.1350   -4.0000    0.0000 C   0  0  0  0  0  0  0  0  0  0  0  0
    4.2690   -4.5000    0.0000 C   0  0  0  0  0  0  0  0  0  0  0  0
    6.0010   -4.5000    0.0000 C   0  0  0  0  0  0  0  0  0  0  0  0
    4.2690   -5.5000    0.0000 C   0  0  0  0  0  0  0  0  0  0  0  0
    6.0010   -5.5000    0.0000 C   0  0  0  0  0  0  0  0  0  0  0  0
    5.1350   -6.0000    0.0000 C   0  0  0  0  0  0  0  0  0  0  0  0
    5.1350   -3.0000    0.0000 C   0  0  0  0  0  0  0  0  0  0  0  0
    6.0010   -1.5000    0.0000 C   0  0  1  0  0  0  0  0  0  0  0  0
    5.1350   -1.0000    0.0000 C   0  0  3  0  0  0  0  0  0  0  0  0
    5.1350    0.0000    0.0000 C   0  0  0  0  0  0  0  0  0  0  0  0
    6.8671   -1.0000    0.0000 C   0  0  0  0  0  0  0  0  0  0  0  0
   10.4357   -0.9945    0.0000 C   0  0  0  0  0  0  0  0  0  0  0  0
   11.2447    0.4067    0.0000 C   0  0  0  0  0  0  0  0  0  0  0  0
   11.4138   -1.2024    0.0000 C   0  0  0  0  0  0  0  0  0  0  0  0
   11.9138   -0.3364    0.0000 C   0  0  0  0  0  0  0  0  0  0  0  0
    7.7331    0.5000    0.0000 C   0  0  1  0  0  0  0  0  0  0  0  0
    4.2690   -1.5000    0.0000 C   0  0  0  0  0  0  0  0  0  0  0  0
    8.5991    0.0000    0.0000 C   0  0  0  0  0  0  0  0  0  0  0  0
    9.4651    0.5000    0.0000 C   0  0  0  0  0  0  0  0  0  0  0  0
    4.2690    0.5000    0.0000 C   0  0  0  0  0  0  0  0  0  0  0  0
    7.7331    1.5000    0.0000 C   0  0  0  0  0  0  0  0  0  0  0  0
    6.8671    3.0000    0.0000 C   0  0  2  0  0  0  0  0  0  0  0  0
    4.2690    3.5000    0.0000 C   0  0  1  0  0  0  0  0  0  0  0  0
    4.2690    4.5000    0.0000 C   0  0  0  0  0  0  0  0  0  0  0  0
    3.4030    5.0000    0.0000 C   0  0  0  0  0  0  0  0  0  0  0  0
    6.0010    3.5000    0.0000 C   0  0  0  0  0  0  0  0  0  0  0  0
    7.7331    3.5000    0.0000 C   0  0  0  0  0  0  0  0  0  0  0  0
    3.4030    6.0000    0.0000 C   0  0  0  0  0  0  0  0  0  0  0  0
    2.5369    4.5000    0.0000 C   0  0  0  0  0  0  0  0  0  0  0  0
    3.4030    3.0000    0.0000 C   0  0  0  0  0  0  0  0  0  0  0  0
    7.7331    4.5000    0.0000 C   0  0  0  0  0  0  0  0  0  0  0  0
    5.6720   -3.6900    0.0000 H   0  0  0  0  0  0  0  0  0  0  0  0
    4.0569   -3.9174    0.0000 H   0  0  0  0  0  0  0  0  0  0  0  0
    3.6584   -4.6077    0.0000 H   0  0  0  0  0  0  0  0  0  0  0  0
    6.6116   -4.6077    0.0000 H   0  0  0  0  0  0  0  0  0  0  0  0
    6.2131   -3.9174    0.0000 H   0  0  0  0  0  0  0  0  0  0  0  0
    3.6584   -5.3923    0.0000 H   0  0  0  0  0  0  0  0  0  0  0  0
    4.0569   -6.0826    0.0000 H   0  0  0  0  0  0  0  0  0  0  0  0
    6.2131   -6.0826    0.0000 H   0  0  0  0  0  0  0  0  0  0  0  0
    6.6116   -5.3923    0.0000 H   0  0  0  0  0  0  0  0  0  0  0  0
    4.7365   -6.4750    0.0000 H   0  0  0  0  0  0  0  0  0  0  0  0
    5.5335   -6.4750    0.0000 H   0  0  0  0  0  0  0  0  0  0  0  0
    6.5380   -1.8100    0.0000 H   0  0  0  0  0  0  0  0  0  0  0  0
    5.1350   -1.6200    0.0000 H   0  0  0  0  0  0  0  0  0  0  0  0
    6.5380   -2.8100    0.0000 H   0  0  0  0  0  0  0  0  0  0  0  0
    5.7456   -0.1077    0.0000 H   0  0  0  0  0  0  0  0  0  0  0  0
    5.3471    0.5826    0.0000 H   0  0  0  0  0  0  0  0  0  0  0  0
    9.8157   -0.9945    0.0000 H   0  0  0  0  0  0  0  0  0  0  0  0
   10.3709   -1.6111    0.0000 H   0  0  0  0  0  0  0  0  0  0  0  0
   11.7463    0.7712    0.0000 H   0  0  0  0  0  0  0  0  0  0  0  0
   10.9347    0.9437    0.0000 H   0  0  0  0  0  0  0  0  0  0  0  0
   11.2222   -1.7921    0.0000 H   0  0  0  0  0  0  0  0  0  0  0  0
   11.9802   -1.4546    0.0000 H   0  0  0  0  0  0  0  0  0  0  0  0
   12.4154   -0.7008    0.0000 H   0  0  0  0  0  0  0  0  0  0  0  0
   12.3287    0.1243    0.0000 H   0  0  0  0  0  0  0  0  0  0  0  0
    7.7331   -0.1200    0.0000 H   0  0  0  0  0  0  0  0  0  0  0  0
    3.9590   -0.9631    0.0000 H   0  0  0  0  0  0  0  0  0  0  0  0
    3.7320   -1.8100    0.0000 H   0  0  0  0  0  0  0  0  0  0  0  0
    4.5790   -2.0369    0.0000 H   0  0  0  0  0  0  0  0  0  0  0  0
    8.2006   -0.4749    0.0000 H   0  0  0  0  0  0  0  0  0  0  0  0
    8.9976   -0.4749    0.0000 H   0  0  0  0  0  0  0  0  0  0  0  0
    6.3301    0.3100    0.0000 H   0  0  0  0  0  0  0  0  0  0  0  0
    4.5790    1.0369    0.0000 H   0  0  0  0  0  0  0  0  0  0  0  0
    3.7320    0.8100    0.0000 H   0  0  0  0  0  0  0  0  0  0  0  0
    3.9590   -0.0369    0.0000 H   0  0  0  0  0  0  0  0  0  0  0  0
    6.3301    2.6900    0.0000 H   0  0  0  0  0  0  0  0  0  0  0  0
    6.3301    1.6900    0.0000 H   0  0  0  0  0  0  0  0  0  0  0  0
    4.2690    2.8800    0.0000 H   0  0  0  0  0  0  0  0  0  0  0  0
    4.8796    4.3923    0.0000 H   0  0  0  0  0  0  0  0  0  0  0  0
    4.4810    5.0826    0.0000 H   0  0  0  0  0  0  0  0  0  0  0  0
    3.4030    4.3800    0.0000 H   0  0  0  0  0  0  0  0  0  0  0  0
    7.9451    2.9174    0.0000 H   0  0  0  0  0  0  0  0  0  0  0  0
    8.3437    3.6077    0.0000 H   0  0  0  0  0  0  0  0  0  0  0  0
    5.1350    2.3800    0.0000 H   0  0  0  0  0  0  0  0  0  0  0  0
    4.0230    6.0000    0.0000 H   0  0  0  0  0  0  0  0  0  0  0  0
    3.4030    6.6200    0.0000 H   0  0  0  0  0  0  0  0  0  0  0  0
    2.7830    6.0000    0.0000 H   0  0  0  0  0  0  0  0  0  0  0  0
    2.2269    5.0369    0.0000 H   0  0  0  0  0  0  0  0  0  0  0  0
    2.0000    4.1900    0.0000 H   0  0  0  0  0  0  0  0  0  0  0  0
    2.8469    3.9631    0.0000 H   0  0  0  0  0  0  0  0  0  0  0  0
    2.0000    3.1900    0.0000 H   0  0  0  0  0  0  0  0  0  0  0  0
    8.5991    5.6200    0.0000 H   0  0  0  0  0  0  0  0  0  0  0  0
  1 21  2  0  0  0  0
  2 25  2  0  0  0  0
  3 33  2  0  0  0  0
  4 35  2  0  0  0  0
  5 40  2  0  0  0  0
  6 44  1  0  0  0  0
  6 95  1  0  0  0  0
  7 45  1  0  0  0  0
  7 96  1  0  0  0  0
  8 44  2  0  0  0  0
  9 45  2  0  0  0  0
 10 21  1  0  0  0  0
 22 10  1  1  0  0  0
 10 59  1  0  0  0  0
 11 26  1  0  0  0  0
 11 27  1  0  0  0  0
 11 33  1  0  0  0  0
 12 25  1  0  0  0  0
 30 12  1  6  0  0  0
 12 76  1  0  0  0  0
 13 35  1  0  0  0  0
 36 13  1  6  0  0  0
 13 81  1  0  0  0  0
 37 14  1  6  0  0  0
 14 40  1  0  0  0  0
 14 88  1  0  0  0  0
 15 16  1  0  0  0  0
 15 17  1  0  0  0  0
 15 21  1  0  0  0  0
 15 46  1  0  0  0  0
 16 18  1  0  0  0  0
 16 47  1  0  0  0  0
 16 48  1  0  0  0  0
 17 19  1  0  0  0  0
 17 49  1  0  0  0  0
 17 50  1  0  0  0  0
 18 20  1  0  0  0  0
 18 51  1  0  0  0  0
 18 52  1  0  0  0  0
 19 20  1  0  0  0  0
 19 53  1  0  0  0  0
 19 54  1  0  0  0  0
 20 55  1  0  0  0  0
 20 56  1  0  0  0  0
 22 23  1  0  0  0  0
 22 25  1  0  0  0  0
 22 57  1  0  0  0  0
 23 24  1  0  0  0  0
 23 31  1  0  0  0  0
 23 58  1  0  0  0  0
 24 34  1  0  0  0  0
 24 60  1  0  0  0  0
 24 61  1  0  0  0  0
 26 28  1  0  0  0  0
 26 62  1  0  0  0  0
 26 63  1  0  0  0  0
 27 29  1  0  0  0  0
 27 64  1  0  0  0  0
 27 65  1  0  0  0  0
 28 29  1  0  0  0  0
 28 66  1  0  0  0  0
 28 67  1  0  0  0  0
 29 68  1  0  0  0  0
 29 69  1  0  0  0  0
 30 32  1  0  0  0  0
 30 35  1  0  0  0  0
 30 70  1  0  0  0  0
 31 71  1  0  0  0  0
 31 72  1  0  0  0  0
 31 73  1  0  0  0  0
 32 33  1  0  0  0  0
 32 74  1  0  0  0  0
 32 75  1  0  0  0  0
 34 77  1  0  0  0  0
 34 78  1  0  0  0  0
 34 79  1  0  0  0  0
 36 40  1  0  0  0  0
 36 41  1  0  0  0  0
 36 80  1  0  0  0  0
 37 38  1  0  0  0  0
 37 44  1  0  0  0  0
 37 82  1  0  0  0  0
 38 39  1  0  0  0  0
 38 83  1  0  0  0  0
 38 84  1  0  0  0  0
 39 42  1  0  0  0  0
 39 43  1  0  0  0  0
 39 85  1  0  0  0  0
 41 45  1  0  0  0  0
 41 86  1  0  0  0  0
 41 87  1  0  0  0  0
 42 89  1  0  0  0  0
 42 90  1  0  0  0  0
 42 91  1  0  0  0  0
 43 92  1  0  0  0  0
 43 93  1  0  0  0  0
 43 94  1  0  0  0  0
M  END
> <PUBCHEM_COMPOUND_CID>
515352
> <PUBCHEM_COMPOUND_CANONICALIZED>
1
> <PUBCHEM_CACTVS_COMPLEXITY>
1070
> <PUBCHEM_CACTVS_HBOND_ACCEPTOR>
9
> <PUBCHEM_CACTVS_HBOND_DONOR>
6
> <PUBCHEM_CACTVS_ROTATABLE_BOND>
17
> <PUBCHEM_CACTVS_SUBSKEYS>
AAADcfB7vAAAAAAAAAAAAAAAAAAAAWAAAAAwAAAAAAAAAAAAAAAAHgAQCAAADSjBgAQCCAPAAgAIAAGQGAAAAAAAAAAAAIGIAAACQBoAwCAUQAAGFgCQAAG/iACOAAAAAAAAAAAAAAAAAAAAAAAAAAAAAA==
> <PUBCHEM_IUPAC_OPENEYE_NAME>
(2S)-2-[[(2S)-3-carboxy-2-[[(2S)-2-[[(2S)-2-(cyclohexanecarbonylamino)-3-methyl-pentanoyl]amino]-4-oxo-4-pyrrolidin-1-yl-butanoyl]amino]propanoyl]amino]-4-methyl-pentanoic acid
> <PUBCHEM_IUPAC_CAS_NAME>
(2S)-2-[[(2S)-3-carboxy-2-[[(2S)-2-[[(2S)-2-[[cyclohexyl(oxo)methyl]amino]-3-methyl-1-oxopentyl]amino]-1,4-dioxo-4-(1-pyrrolidinyl)butyl]amino]-1-oxopropyl]amino]-4-methylpentanoic acid
> <PUBCHEM_IUPAC_NAME_MARKUP>
(2<I>S</I>)-2-[[(2<I>S</I>)-3-carboxy-2-[[(2<I>S</I>)-2-[[(2<I>S</I>)-2-(cyclohexanecarbonylamino)-3-methylpentanoyl]amino]-4-oxo-4-pyrrolidin-1-ylbutanoyl]amino]propanoyl]amino]-4-methylpentanoic acid
> <PUBCHEM_IUPAC_NAME>
(2S)-2-[[(2S)-3-carboxy-2-[[(2S)-2-[[(2S)-2-(cyclohexanecarbonylamino)-3-methylpentanoyl]amino]-4-oxo-4-pyrrolidin-1-ylbutanoyl]amino]propanoyl]amino]-4-methylpentanoic acid
> <PUBCHEM_IUPAC_SYSTEMATIC_NAME>
(2S)-2-[[(2S)-2-[[(2S)-2-[[(2S)-2-(cyclohexylcarbonylamino)-3-methyl-pentanoyl]amino]-4-oxidanylidene-4-pyrrolidin-1-yl-butanoyl]amino]-4-oxidanyl-4-oxidanylidene-butanoyl]amino]-4-methyl-pentanoic acid
> <PUBCHEM_IUPAC_TRADITIONAL_NAME>
(2S)-2-[[(2S)-3-carboxy-2-[[(2S)-2-[[(2S)-2-(cyclohexanecarbonylamino)-3-methyl-pentanoyl]amino]-4-keto-4-pyrrolidino-butanoyl]amino]propanoyl]amino]-4-methyl-valeric acid
> <PUBCHEM_IUPAC_INCHI>
InChI=1S/C31H51N5O9/c1-5-19(4)26(35-27(40)20-11-7-6-8-12-20)30(43)33-21(16-24(37)36-13-9-10-14-36)28(41)32-22(17-25(38)39)29(42)34-23(31(44)45)15-18(2)3/h18-23,26H,5-17H2,1-4H3,(H,32,41)(H,33,43)(H,34,42)(H,35,40)(H,38,39)(H,44,45)/t19?,21-,22-,23-,26-/m0/s1
> <PUBCHEM_IUPAC_INCHIKEY>
ZNVWRUGZXGDKBO-KSXWOPMJSA-N
> <PUBCHEM_XLOGP3_AA>
2.2
> <PUBCHEM_EXACT_MASS>
637.36867822
> <PUBCHEM_MOLECULAR_FORMULA>
C31H51N5O9
> <PUBCHEM_MOLECULAR_WEIGHT>
637.8
> <PUBCHEM_OPENEYE_CAN_SMILES>
CCC(C)C(C(=O)NC(CC(=O)N1CCCC1)C(=O)NC(CC(=O)O)C(=O)NC(CC(C)C)C(=O)O)NC(=O)C2CCCCC2
> <PUBCHEM_OPENEYE_ISO_SMILES>
CCC(C)[C@@H](C(=O)N[C@@H](CC(=O)N1CCCC1)C(=O)N[C@@H](CC(=O)O)C(=O)N[C@@H](CC(C)C)C(=O)O)NC(=O)C2CCCCC2
> <PUBCHEM_CACTVS_TPSA>
211
> <PUBCHEM_MONOISOTOPIC_WEIGHT>
637.36867822
> <PUBCHEM_TOTAL_CHARGE>
0
> <PUBCHEM_HEAVY_ATOM_COUNT>
45
> <PUBCHEM_ATOM_DEF_STEREO_COUNT>
4
> <PUBCHEM_ATOM_UDEF_STEREO_COUNT>
1
> <PUBCHEM_BOND_DEF_STEREO_COUNT>
0
> <PUBCHEM_BOND_UDEF_STEREO_COUNT>
0
> <PUBCHEM_ISOTOPIC_ATOM_COUNT>
0
> <PUBCHEM_COMPONENT_COUNT>
1
> <PUBCHEM_CACTVS_TAUTO_COUNT>
-1
> <PUBCHEM_COORDINATE_TYPE>
1
5
255
> <PUBCHEM_BONDANNOTATIONS>
22  10  5
30  12  6
36  13  6
37  14  6
23  31  3
$$$$
