515367
  -OEChem-10302200282D
 92 92  0     1  0  0  0  0  0999 V2000
    7.1962    2.2306    0.0000 O   0  0  0  0  0  0  0  0  0  0  0  0
   10.6603    2.2306    0.0000 O   0  0  0  0  0  0  0  0  0  0  0  0
    4.5981   -0.2694    0.0000 O   0  0  0  0  0  0  0  0  0  0  0  0
   10.6603    1.2306    0.0000 O   0  0  0  0  0  0  0  0  0  0  0  0
    9.7942   -2.2694    0.0000 O   0  0  0  0  0  0  0  0  0  0  0  0
   12.3923   -4.7694    0.0000 O   0  0  0  0  0  0  0  0  0  0  0  0
   13.2583   -3.2694    0.0000 O   0  0  0  0  0  0  0  0  0  0  0  0
    9.7942    3.7306    0.0000 N   0  0  0  0  0  0  0  0  0  0  0  0
    5.4641    1.2306    0.0000 N   0  0  0  0  0  0  0  0  0  0  0  0
    8.0622    0.7306    0.0000 N   0  0  0  0  0  0  0  0  0  0  0  0
    9.7942   -0.2694    0.0000 N   0  0  0  0  0  0  0  0  0  0  0  0
   11.5263   -2.2694    0.0000 N   0  0  0  0  0  0  0  0  0  0  0  0
    6.3301   -0.2694    0.0000 C   0  0  0  0  0  0  0  0  0  0  0  0
    6.3301    0.7306    0.0000 C   0  0  1  0  0  0  0  0  0  0  0  0
   10.6032    4.3184    0.0000 C   0  0  0  0  0  0  0  0  0  0  0  0
    8.9852    4.3184    0.0000 C   0  0  0  0  0  0  0  0  0  0  0  0
   10.2942    5.2694    0.0000 C   0  0  0  0  0  0  0  0  0  0  0  0
    9.2942    5.2694    0.0000 C   0  0  0  0  0  0  0  0  0  0  0  0
    6.3301   -1.2694    0.0000 C   0  0  0  0  0  0  0  0  0  0  0  0
    5.3301   -0.2694    0.0000 C   0  0  0  0  0  0  0  0  0  0  0  0
    7.3301   -0.2694    0.0000 C   0  0  0  0  0  0  0  0  0  0  0  0
    8.9282    1.2306    0.0000 C   0  0  1  0  0  0  0  0  0  0  0  0
    7.1962    1.2306    0.0000 C   0  0  0  0  0  0  0  0  0  0  0  0
    8.9282    2.2306    0.0000 C   0  0  0  0  0  0  0  0  0  0  0  0
    9.7942    2.7306    0.0000 C   0  0  0  0  0  0  0  0  0  0  0  0
    3.7320    1.2306    0.0000 C   0  0  0  0  0  0  0  0  0  0  0  0
    4.5981    0.7306    0.0000 C   0  0  0  0  0  0  0  0  0  0  0  0
    9.7942    0.7306    0.0000 C   0  0  0  0  0  0  0  0  0  0  0  0
    2.8660    0.7306    0.0000 C   0  0  0  0  0  0  0  0  0  0  0  0
    3.7320    2.2306    0.0000 C   0  0  0  0  0  0  0  0  0  0  0  0
   10.6603   -0.7694    0.0000 C   0  0  2  0  0  0  0  0  0  0  0  0
    2.0000    1.2306    0.0000 C   0  0  0  0  0  0  0  0  0  0  0  0
    2.8660    2.7306    0.0000 C   0  0  0  0  0  0  0  0  0  0  0  0
   11.5263   -3.2694    0.0000 C   0  0  1  0  0  0  0  0  0  0  0  0
   10.6603   -3.7694    0.0000 C   0  0  0  0  0  0  0  0  0  0  0  0
   10.6603   -4.7694    0.0000 C   0  0  0  0  0  0  0  0  0  0  0  0
   10.6603   -1.7694    0.0000 C   0  0  0  0  0  0  0  0  0  0  0  0
   11.5263   -0.2694    0.0000 C   0  0  0  0  0  0  0  0  0  0  0  0
    9.7942   -5.2694    0.0000 C   0  0  0  0  0  0  0  0  0  0  0  0
   11.5263   -5.2694    0.0000 C   0  0  0  0  0  0  0  0  0  0  0  0
   12.3923   -3.7694    0.0000 C   0  0  0  0  0  0  0  0  0  0  0  0
    5.7932    0.4206    0.0000 H   0  0  0  0  0  0  0  0  0  0  0  0
   10.9132    3.7814    0.0000 H   0  0  0  0  0  0  0  0  0  0  0  0
   11.1696    4.5705    0.0000 H   0  0  0  0  0  0  0  0  0  0  0  0
    8.4188    4.5705    0.0000 H   0  0  0  0  0  0  0  0  0  0  0  0
    8.6752    3.7814    0.0000 H   0  0  0  0  0  0  0  0  0  0  0  0
   10.9007    5.3983    0.0000 H   0  0  0  0  0  0  0  0  0  0  0  0
   10.2294    5.8860    0.0000 H   0  0  0  0  0  0  0  0  0  0  0  0
    9.3590    5.8860    0.0000 H   0  0  0  0  0  0  0  0  0  0  0  0
    8.6878    5.3983    0.0000 H   0  0  0  0  0  0  0  0  0  0  0  0
    8.9282    0.6106    0.0000 H   0  0  0  0  0  0  0  0  0  0  0  0
    5.7101   -1.2694    0.0000 H   0  0  0  0  0  0  0  0  0  0  0  0
    6.3301   -1.8894    0.0000 H   0  0  0  0  0  0  0  0  0  0  0  0
    6.9501   -1.2694    0.0000 H   0  0  0  0  0  0  0  0  0  0  0  0
    5.3301    0.3506    0.0000 H   0  0  0  0  0  0  0  0  0  0  0  0
    4.7101   -0.2694    0.0000 H   0  0  0  0  0  0  0  0  0  0  0  0
    5.3301   -0.8894    0.0000 H   0  0  0  0  0  0  0  0  0  0  0  0
    7.3301   -0.8894    0.0000 H   0  0  0  0  0  0  0  0  0  0  0  0
    7.9501   -0.2694    0.0000 H   0  0  0  0  0  0  0  0  0  0  0  0
    7.3301    0.3506    0.0000 H   0  0  0  0  0  0  0  0  0  0  0  0
    5.4641    1.8506    0.0000 H   0  0  0  0  0  0  0  0  0  0  0  0
    8.7162    2.8132    0.0000 H   0  0  0  0  0  0  0  0  0  0  0  0
    8.3176    2.1229    0.0000 H   0  0  0  0  0  0  0  0  0  0  0  0
    8.0622    0.1106    0.0000 H   0  0  0  0  0  0  0  0  0  0  0  0
    3.7320    0.6106    0.0000 H   0  0  0  0  0  0  0  0  0  0  0  0
    2.4675    0.2556    0.0000 H   0  0  0  0  0  0  0  0  0  0  0  0
    3.2646    0.2556    0.0000 H   0  0  0  0  0  0  0  0  0  0  0  0
    4.3426    2.1229    0.0000 H   0  0  0  0  0  0  0  0  0  0  0  0
    3.9441    2.8132    0.0000 H   0  0  0  0  0  0  0  0  0  0  0  0
    9.2573   -0.5794    0.0000 H   0  0  0  0  0  0  0  0  0  0  0  0
   10.6603   -0.1494    0.0000 H   0  0  0  0  0  0  0  0  0  0  0  0
   10.4482   -3.1868    0.0000 H   0  0  0  0  0  0  0  0  0  0  0  0
   10.0497   -3.8771    0.0000 H   0  0  0  0  0  0  0  0  0  0  0  0
   12.0632   -2.9594    0.0000 H   0  0  0  0  0  0  0  0  0  0  0  0
    2.3100    1.7675    0.0000 H   0  0  0  0  0  0  0  0  0  0  0  0
    1.4631    1.5406    0.0000 H   0  0  0  0  0  0  0  0  0  0  0  0
    1.6900    0.6936    0.0000 H   0  0  0  0  0  0  0  0  0  0  0  0
    3.1760    3.2675    0.0000 H   0  0  0  0  0  0  0  0  0  0  0  0
    2.3291    3.0406    0.0000 H   0  0  0  0  0  0  0  0  0  0  0  0
    2.5560    2.1936    0.0000 H   0  0  0  0  0  0  0  0  0  0  0  0
   11.1972   -4.4594    0.0000 H   0  0  0  0  0  0  0  0  0  0  0  0
   12.0632   -1.9594    0.0000 H   0  0  0  0  0  0  0  0  0  0  0  0
   11.8363   -0.8064    0.0000 H   0  0  0  0  0  0  0  0  0  0  0  0
   12.0632    0.0406    0.0000 H   0  0  0  0  0  0  0  0  0  0  0  0
   11.2163    0.2675    0.0000 H   0  0  0  0  0  0  0  0  0  0  0  0
    9.4842   -4.7325    0.0000 H   0  0  0  0  0  0  0  0  0  0  0  0
    9.2573   -5.5794    0.0000 H   0  0  0  0  0  0  0  0  0  0  0  0
   10.1042   -5.8064    0.0000 H   0  0  0  0  0  0  0  0  0  0  0  0
   11.2163   -5.8064    0.0000 H   0  0  0  0  0  0  0  0  0  0  0  0
   12.0632   -5.5794    0.0000 H   0  0  0  0  0  0  0  0  0  0  0  0
   11.8363   -4.7325    0.0000 H   0  0  0  0  0  0  0  0  0  0  0  0
   12.9292   -5.0794    0.0000 H   0  0  0  0  0  0  0  0  0  0  0  0
  1 23  2  0  0  0  0
  2 25  2  0  0  0  0
  3 27  2  0  0  0  0
  4 28  2  0  0  0  0
  5 37  2  0  0  0  0
  6 41  1  0  0  0  0
  6 92  1  0  0  0  0
  7 41  2  0  0  0  0
  8 15  1  0  0  0  0
  8 16  1  0  0  0  0
  8 25  1  0  0  0  0
 14  9  1  6  0  0  0
  9 27  1  0  0  0  0
  9 61  1  0  0  0  0
 22 10  1  1  0  0  0
 10 23  1  0  0  0  0
 10 64  1  0  0  0  0
 11 28  1  0  0  0  0
 31 11  1  1  0  0  0
 11 70  1  0  0  0  0
 34 12  1  6  0  0  0
 12 37  1  0  0  0  0
 12 82  1  0  0  0  0
 13 14  1  0  0  0  0
 13 19  1  0  0  0  0
 13 20  1  0  0  0  0
 13 21  1  0  0  0  0
 14 23  1  0  0  0  0
 14 42  1  0  0  0  0
 15 17  1  0  0  0  0
 15 43  1  0  0  0  0
 15 44  1  0  0  0  0
 16 18  1  0  0  0  0
 16 45  1  0  0  0  0
 16 46  1  0  0  0  0
 17 18  1  0  0  0  0
 17 47  1  0  0  0  0
 17 48  1  0  0  0  0
 18 49  1  0  0  0  0
 18 50  1  0  0  0  0
 19 52  1  0  0  0  0
 19 53  1  0  0  0  0
 19 54  1  0  0  0  0
 20 55  1  0  0  0  0
 20 56  1  0  0  0  0
 20 57  1  0  0  0  0
 21 58  1  0  0  0  0
 21 59  1  0  0  0  0
 21 60  1  0  0  0  0
 22 24  1  0  0  0  0
 22 28  1  0  0  0  0
 22 51  1  0  0  0  0
 24 25  1  0  0  0  0
 24 62  1  0  0  0  0
 24 63  1  0  0  0  0
 26 27  1  0  0  0  0
 26 29  1  0  0  0  0
 26 30  1  0  0  0  0
 26 65  1  0  0  0  0
 29 32  1  0  0  0  0
 29 66  1  0  0  0  0
 29 67  1  0  0  0  0
 30 33  1  0  0  0  0
 30 68  1  0  0  0  0
 30 69  1  0  0  0  0
 31 37  1  0  0  0  0
 31 38  1  0  0  0  0
 31 71  1  0  0  0  0
 32 75  1  0  0  0  0
 32 76  1  0  0  0  0
 32 77  1  0  0  0  0
 33 78  1  0  0  0  0
 33 79  1  0  0  0  0
 33 80  1  0  0  0  0
 34 35  1  0  0  0  0
 34 41  1  0  0  0  0
 34 74  1  0  0  0  0
 35 36  1  0  0  0  0
 35 72  1  0  0  0  0
 35 73  1  0  0  0  0
 36 39  1  0  0  0  0
 36 40  1  0  0  0  0
 36 81  1  0  0  0  0
 38 83  1  0  0  0  0
 38 84  1  0  0  0  0
 38 85  1  0  0  0  0
 39 86  1  0  0  0  0
 39 87  1  0  0  0  0
 39 88  1  0  0  0  0
 40 89  1  0  0  0  0
 40 90  1  0  0  0  0
 40 91  1  0  0  0  0
M  END
> <PUBCHEM_COMPOUND_CID>
515367
> <PUBCHEM_COMPOUND_CANONICALIZED>
1
> <PUBCHEM_CACTVS_COMPLEXITY>
936
> <PUBCHEM_CACTVS_HBOND_ACCEPTOR>
7
> <PUBCHEM_CACTVS_HBOND_DONOR>
5
> <PUBCHEM_CACTVS_ROTATABLE_BOND>
16
> <PUBCHEM_CACTVS_SUBSKEYS>
AAADcfB7uAAAAAAAAAAAAAAAAAAAAWAAAAAAAAAAAAAAAAAAAAAAHgAQCAAADyjBgAQCCAPAAgAIAAGQGAAAAAAAAAAAAIGIAAACQBoAwCAUQAAEFgCQAACNAAAPAAAAAAAAAAAAAAAAAAAAAAAAAAAAAA==
> <PUBCHEM_IUPAC_OPENEYE_NAME>
(2S)-2-[[(2S)-2-[[(2S)-2-[[(2S)-2-(2-ethylbutanoylamino)-3,3-dimethyl-butanoyl]amino]-4-oxo-4-pyrrolidin-1-yl-butanoyl]amino]propanoyl]amino]-4-methyl-pentanoic acid
> <PUBCHEM_IUPAC_CAS_NAME>
(2S)-2-[[(2S)-2-[[(2S)-2-[[(2S)-2-[(2-ethyl-1-oxobutyl)amino]-3,3-dimethyl-1-oxobutyl]amino]-1,4-dioxo-4-(1-pyrrolidinyl)butyl]amino]-1-oxopropyl]amino]-4-methylpentanoic acid
> <PUBCHEM_IUPAC_NAME_MARKUP>
(2<I>S</I>)-2-[[(2<I>S</I>)-2-[[(2<I>S</I>)-2-[[(2<I>S</I>)-2-(2-ethylbutanoylamino)-3,3-dimethylbutanoyl]amino]-4-oxo-4-pyrrolidin-1-ylbutanoyl]amino]propanoyl]amino]-4-methylpentanoic acid
> <PUBCHEM_IUPAC_NAME>
(2S)-2-[[(2S)-2-[[(2S)-2-[[(2S)-2-(2-ethylbutanoylamino)-3,3-dimethylbutanoyl]amino]-4-oxo-4-pyrrolidin-1-ylbutanoyl]amino]propanoyl]amino]-4-methylpentanoic acid
> <PUBCHEM_IUPAC_SYSTEMATIC_NAME>
(2S)-2-[[(2S)-2-[[(2S)-2-[[(2S)-2-(2-ethylbutanoylamino)-3,3-dimethyl-butanoyl]amino]-4-oxidanylidene-4-pyrrolidin-1-yl-butanoyl]amino]propanoyl]amino]-4-methyl-pentanoic acid
> <PUBCHEM_IUPAC_TRADITIONAL_NAME>
(2S)-2-[[(2S)-2-[[(2S)-2-[[(2S)-2-(2-ethylbutanoylamino)-3,3-dimethyl-butanoyl]amino]-4-keto-4-pyrrolidino-butanoyl]amino]propanoyl]amino]-4-methyl-valeric acid
> <PUBCHEM_IUPAC_INCHI>
InChI=1S/C29H51N5O7/c1-9-19(10-2)25(37)33-23(29(6,7)8)27(39)31-20(16-22(35)34-13-11-12-14-34)26(38)30-18(5)24(36)32-21(28(40)41)15-17(3)4/h17-21,23H,9-16H2,1-8H3,(H,30,38)(H,31,39)(H,32,36)(H,33,37)(H,40,41)/t18-,20-,21-,23+/m0/s1
> <PUBCHEM_IUPAC_INCHIKEY>
LUKMJPKFSKVLHM-XHRGMSINSA-N
> <PUBCHEM_XLOGP3_AA>
2.8
> <PUBCHEM_EXACT_MASS>
581.37884898
> <PUBCHEM_MOLECULAR_FORMULA>
C29H51N5O7
> <PUBCHEM_MOLECULAR_WEIGHT>
581.7
> <PUBCHEM_OPENEYE_CAN_SMILES>
CCC(CC)C(=O)NC(C(=O)NC(CC(=O)N1CCCC1)C(=O)NC(C)C(=O)NC(CC(C)C)C(=O)O)C(C)(C)C
> <PUBCHEM_OPENEYE_ISO_SMILES>
CCC(CC)C(=O)N[C@H](C(=O)N[C@@H](CC(=O)N1CCCC1)C(=O)N[C@@H](C)C(=O)N[C@@H](CC(C)C)C(=O)O)C(C)(C)C
> <PUBCHEM_CACTVS_TPSA>
174
> <PUBCHEM_MONOISOTOPIC_WEIGHT>
581.37884898
> <PUBCHEM_TOTAL_CHARGE>
0
> <PUBCHEM_HEAVY_ATOM_COUNT>
41
> <PUBCHEM_ATOM_DEF_STEREO_COUNT>
4
> <PUBCHEM_ATOM_UDEF_STEREO_COUNT>
0
> <PUBCHEM_BOND_DEF_STEREO_COUNT>
0
> <PUBCHEM_BOND_UDEF_STEREO_COUNT>
0
> <PUBCHEM_ISOTOPIC_ATOM_COUNT>
0
> <PUBCHEM_COMPONENT_COUNT>
1
> <PUBCHEM_CACTVS_TAUTO_COUNT>
-1
> <PUBCHEM_COORDINATE_TYPE>
1
5
255
> <PUBCHEM_BONDANNOTATIONS>
22  10  5
31  11  5
34  12  6
14  9  6
$$$$
