515325
  -OEChem-10302200282D
 79 83  0     1  0  0  0  0  0999 V2000
    6.9480    1.3097    0.0000 O   0  0  0  0  0  0  0  0  0  0  0  0
   14.5681    1.3097    0.0000 O   0  0  0  0  0  0  0  0  0  0  0  0
    3.9547   -0.7003    0.0000 N   0  0  0  0  0  0  0  0  0  0  0  0
   17.5614   -0.7003    0.0000 N   0  0  0  0  0  0  0  0  0  0  0  0
    3.6493    0.2519    0.0000 C   0  0  0  0  0  0  0  0  0  0  0  0
    3.2827   -1.4409    0.0000 C   0  0  0  0  0  0  0  0  0  0  0  0
   18.2334   -1.4409    0.0000 C   0  0  0  0  0  0  0  0  0  0  0  0
   17.8667    0.2519    0.0000 C   0  0  0  0  0  0  0  0  0  0  0  0
    2.6720    0.4636    0.0000 C   0  0  0  0  0  0  0  0  0  0  0  0
    2.3053   -1.2292    0.0000 C   0  0  0  0  0  0  0  0  0  0  0  0
   19.2107   -1.2292    0.0000 C   0  0  0  0  0  0  0  0  0  0  0  0
   18.8441    0.4636    0.0000 C   0  0  0  0  0  0  0  0  0  0  0  0
    2.0000   -0.2770    0.0000 C   0  0  0  0  0  0  0  0  0  0  0  0
   19.5161   -0.2770    0.0000 C   0  0  0  0  0  0  0  0  0  0  0  0
    4.9320   -0.9120    0.0000 C   0  0  0  0  0  0  0  0  0  0  0  0
   16.5841   -0.9120    0.0000 C   0  0  0  0  0  0  0  0  0  0  0  0
    5.6040   -0.1715    0.0000 C   0  0  0  0  0  0  0  0  0  0  0  0
   15.9121   -0.1715    0.0000 C   0  0  0  0  0  0  0  0  0  0  0  0
    6.5814   -0.3831    0.0000 C   0  0  0  0  0  0  0  0  0  0  0  0
   14.9347   -0.3831    0.0000 C   0  0  0  0  0  0  0  0  0  0  0  0
    7.2533    0.3574    0.0000 C   0  0  3  0  0  0  0  0  0  0  0  0
   14.2627    0.3574    0.0000 C   0  0  3  0  0  0  0  0  0  0  0  0
    9.9490    0.6822    0.0000 C   0  0  0  0  0  0  0  0  0  0  0  0
   11.5671    0.6822    0.0000 C   0  0  0  0  0  0  0  0  0  0  0  0
   10.7580    1.2700    0.0000 C   0  0  0  0  0  0  0  0  0  0  0  0
   10.2580   -0.2689    0.0000 C   0  0  0  0  0  0  0  0  0  0  0  0
   11.2580   -0.2689    0.0000 C   0  0  0  0  0  0  0  0  0  0  0  0
    8.2307    0.1457    0.0000 C   0  0  0  0  0  0  0  0  0  0  0  0
   13.2854    0.1457    0.0000 C   0  0  0  0  0  0  0  0  0  0  0  0
    8.9336    0.9144    0.0000 C   0  0  0  0  0  0  0  0  0  0  0  0
   12.5825    0.9144    0.0000 C   0  0  0  0  0  0  0  0  0  0  0  0
    9.5731   -1.0536    0.0000 C   0  0  0  0  0  0  0  0  0  0  0  0
   11.9430   -1.0536    0.0000 C   0  0  0  0  0  0  0  0  0  0  0  0
    8.5526   -0.8449    0.0000 C   0  0  0  0  0  0  0  0  0  0  0  0
   12.9635   -0.8449    0.0000 C   0  0  0  0  0  0  0  0  0  0  0  0
    4.2636    0.3358    0.0000 H   0  0  0  0  0  0  0  0  0  0  0  0
    3.6734    0.8714    0.0000 H   0  0  0  0  0  0  0  0  0  0  0  0
    3.0482   -2.0149    0.0000 H   0  0  0  0  0  0  0  0  0  0  0  0
    3.8072   -1.7715    0.0000 H   0  0  0  0  0  0  0  0  0  0  0  0
   17.7089   -1.7715    0.0000 H   0  0  0  0  0  0  0  0  0  0  0  0
   18.4679   -2.0149    0.0000 H   0  0  0  0  0  0  0  0  0  0  0  0
   17.8427    0.8714    0.0000 H   0  0  0  0  0  0  0  0  0  0  0  0
   17.2524    0.3358    0.0000 H   0  0  0  0  0  0  0  0  0  0  0  0
    2.9065    1.0375    0.0000 H   0  0  0  0  0  0  0  0  0  0  0  0
    2.1475    0.7942    0.0000 H   0  0  0  0  0  0  0  0  0  0  0  0
    1.6910   -1.3131    0.0000 H   0  0  0  0  0  0  0  0  0  0  0  0
    2.2813   -1.8488    0.0000 H   0  0  0  0  0  0  0  0  0  0  0  0
   19.2347   -1.8488    0.0000 H   0  0  0  0  0  0  0  0  0  0  0  0
   19.8250   -1.3131    0.0000 H   0  0  0  0  0  0  0  0  0  0  0  0
   19.3686    0.7942    0.0000 H   0  0  0  0  0  0  0  0  0  0  0  0
   18.6096    1.0375    0.0000 H   0  0  0  0  0  0  0  0  0  0  0  0
    1.6202    0.2131    0.0000 H   0  0  0  0  0  0  0  0  0  0  0  0
    1.4514   -0.5659    0.0000 H   0  0  0  0  0  0  0  0  0  0  0  0
   20.0646   -0.5659    0.0000 H   0  0  0  0  0  0  0  0  0  0  0  0
   19.8959    0.2131    0.0000 H   0  0  0  0  0  0  0  0  0  0  0  0
    4.6976   -1.4860    0.0000 H   0  0  0  0  0  0  0  0  0  0  0  0
    5.4565   -1.2426    0.0000 H   0  0  0  0  0  0  0  0  0  0  0  0
   16.0595   -1.2426    0.0000 H   0  0  0  0  0  0  0  0  0  0  0  0
   16.8185   -1.4860    0.0000 H   0  0  0  0  0  0  0  0  0  0  0  0
    5.8385    0.4025    0.0000 H   0  0  0  0  0  0  0  0  0  0  0  0
    5.0795    0.1591    0.0000 H   0  0  0  0  0  0  0  0  0  0  0  0
   16.4366    0.1591    0.0000 H   0  0  0  0  0  0  0  0  0  0  0  0
   15.6776    0.4025    0.0000 H   0  0  0  0  0  0  0  0  0  0  0  0
    6.3469   -0.9571    0.0000 H   0  0  0  0  0  0  0  0  0  0  0  0
    7.1059   -0.7137    0.0000 H   0  0  0  0  0  0  0  0  0  0  0  0
   14.4102   -0.7137    0.0000 H   0  0  0  0  0  0  0  0  0  0  0  0
   15.1692   -0.9571    0.0000 H   0  0  0  0  0  0  0  0  0  0  0  0
    6.6474    0.4887    0.0000 H   0  0  0  0  0  0  0  0  0  0  0  0
   13.8461    0.8166    0.0000 H   0  0  0  0  0  0  0  0  0  0  0  0
   11.1729    1.7307    0.0000 H   0  0  0  0  0  0  0  0  0  0  0  0
   10.3432    1.7307    0.0000 H   0  0  0  0  0  0  0  0  0  0  0  0
    8.7488    1.5063    0.0000 H   0  0  0  0  0  0  0  0  0  0  0  0
   12.7672    1.5063    0.0000 H   0  0  0  0  0  0  0  0  0  0  0  0
    9.7715   -1.6410    0.0000 H   0  0  0  0  0  0  0  0  0  0  0  0
   11.7446   -1.6410    0.0000 H   0  0  0  0  0  0  0  0  0  0  0  0
    8.1395   -1.3073    0.0000 H   0  0  0  0  0  0  0  0  0  0  0  0
   13.3766   -1.3073    0.0000 H   0  0  0  0  0  0  0  0  0  0  0  0
    6.3420    1.4409    0.0000 H   0  0  0  0  0  0  0  0  0  0  0  0
   15.1740    1.4409    0.0000 H   0  0  0  0  0  0  0  0  0  0  0  0
  1 21  1  0  0  0  0
  1 78  1  0  0  0  0
  2 22  1  0  0  0  0
  2 79  1  0  0  0  0
  3  5  1  0  0  0  0
  3  6  1  0  0  0  0
  3 15  1  0  0  0  0
  4  7  1  0  0  0  0
  4  8  1  0  0  0  0
  4 16  1  0  0  0  0
  5  9  1  0  0  0  0
  5 36  1  0  0  0  0
  5 37  1  0  0  0  0
  6 10  1  0  0  0  0
  6 38  1  0  0  0  0
  6 39  1  0  0  0  0
  7 11  1  0  0  0  0
  7 40  1  0  0  0  0
  7 41  1  0  0  0  0
  8 12  1  0  0  0  0
  8 42  1  0  0  0  0
  8 43  1  0  0  0  0
  9 13  1  0  0  0  0
  9 44  1  0  0  0  0
  9 45  1  0  0  0  0
 10 13  1  0  0  0  0
 10 46  1  0  0  0  0
 10 47  1  0  0  0  0
 11 14  1  0  0  0  0
 11 48  1  0  0  0  0
 11 49  1  0  0  0  0
 12 14  1  0  0  0  0
 12 50  1  0  0  0  0
 12 51  1  0  0  0  0
 13 52  1  0  0  0  0
 13 53  1  0  0  0  0
 14 54  1  0  0  0  0
 14 55  1  0  0  0  0
 15 17  1  0  0  0  0
 15 56  1  0  0  0  0
 15 57  1  0  0  0  0
 16 18  1  0  0  0  0
 16 58  1  0  0  0  0
 16 59  1  0  0  0  0
 17 19  1  0  0  0  0
 17 60  1  0  0  0  0
 17 61  1  0  0  0  0
 18 20  1  0  0  0  0
 18 62  1  0  0  0  0
 18 63  1  0  0  0  0
 19 21  1  0  0  0  0
 19 64  1  0  0  0  0
 19 65  1  0  0  0  0
 20 22  1  0  0  0  0
 20 66  1  0  0  0  0
 20 67  1  0  0  0  0
 21 28  1  0  0  0  0
 21 68  1  0  0  0  0
 22 29  1  0  0  0  0
 22 69  1  0  0  0  0
 23 25  1  0  0  0  0
 23 26  2  0  0  0  0
 23 30  1  0  0  0  0
 24 25  1  0  0  0  0
 24 27  2  0  0  0  0
 24 31  1  0  0  0  0
 25 70  1  0  0  0  0
 25 71  1  0  0  0  0
 26 27  1  0  0  0  0
 26 32  1  0  0  0  0
 27 33  1  0  0  0  0
 28 30  2  0  0  0  0
 28 34  1  0  0  0  0
 29 31  2  0  0  0  0
 29 35  1  0  0  0  0
 30 72  1  0  0  0  0
 31 73  1  0  0  0  0
 32 34  2  0  0  0  0
 32 74  1  0  0  0  0
 33 35  2  0  0  0  0
 33 75  1  0  0  0  0
 34 76  1  0  0  0  0
 35 77  1  0  0  0  0
M  END
> <PUBCHEM_COMPOUND_CID>
515325
> <PUBCHEM_COMPOUND_CANONICALIZED>
1
> <PUBCHEM_CACTVS_COMPLEXITY>
565
> <PUBCHEM_CACTVS_HBOND_ACCEPTOR>
4
> <PUBCHEM_CACTVS_HBOND_DONOR>
2
> <PUBCHEM_CACTVS_ROTATABLE_BOND>
10
> <PUBCHEM_CACTVS_SUBSKEYS>
AAADcfB7MAAAAAAAAAAAAAAAAAAAAYAAAAA8eIEAAAAAAGABQAAAHgAACAAADBThmAYwAIMAAgCAAiBCAAACAAAgAAAIiAAICIgINiKAkRCEcAAkwAGImAewwPAOwAACAAAQAACAAAQAACAAAQAACAAAAA==
> <PUBCHEM_IUPAC_OPENEYE_NAME>
1-[7-[1-hydroxy-4-(1-piperidyl)butyl]-9H-fluoren-2-yl]-4-(1-piperidyl)butan-1-ol
> <PUBCHEM_IUPAC_CAS_NAME>
1-[7-[1-hydroxy-4-(1-piperidinyl)butyl]-9H-fluoren-2-yl]-4-(1-piperidinyl)-1-butanol
> <PUBCHEM_IUPAC_NAME_MARKUP>
1-[7-(1-hydroxy-4-piperidin-1-ylbutyl)-9<I>H</I>-fluoren-2-yl]-4-piperidin-1-ylbutan-1-ol
> <PUBCHEM_IUPAC_NAME>
1-[7-(1-hydroxy-4-piperidin-1-ylbutyl)-9H-fluoren-2-yl]-4-piperidin-1-ylbutan-1-ol
> <PUBCHEM_IUPAC_SYSTEMATIC_NAME>
1-[7-(1-oxidanyl-4-piperidin-1-yl-butyl)-9H-fluoren-2-yl]-4-piperidin-1-yl-butan-1-ol
> <PUBCHEM_IUPAC_TRADITIONAL_NAME>
1-[7-(1-hydroxy-4-piperidino-butyl)-9H-fluoren-2-yl]-4-piperidino-butan-1-ol
> <PUBCHEM_IUPAC_INCHI>
InChI=1S/C31H44N2O2/c34-30(9-7-19-32-15-3-1-4-16-32)24-11-13-28-26(21-24)23-27-22-25(12-14-29(27)28)31(35)10-8-20-33-17-5-2-6-18-33/h11-14,21-22,30-31,34-35H,1-10,15-20,23H2
> <PUBCHEM_IUPAC_INCHIKEY>
QOXXDKBANRQRNZ-UHFFFAOYSA-N
> <PUBCHEM_XLOGP3_AA>
5
> <PUBCHEM_EXACT_MASS>
476.34027865
> <PUBCHEM_MOLECULAR_FORMULA>
C31H44N2O2
> <PUBCHEM_MOLECULAR_WEIGHT>
476.7
> <PUBCHEM_OPENEYE_CAN_SMILES>
C1CCN(CC1)CCCC(C2=CC3=C(C=C2)C4=C(C3)C=C(C=C4)C(CCCN5CCCCC5)O)O
> <PUBCHEM_OPENEYE_ISO_SMILES>
C1CCN(CC1)CCCC(C2=CC3=C(C=C2)C4=C(C3)C=C(C=C4)C(CCCN5CCCCC5)O)O
> <PUBCHEM_CACTVS_TPSA>
46.9
> <PUBCHEM_MONOISOTOPIC_WEIGHT>
476.34027865
> <PUBCHEM_TOTAL_CHARGE>
0
> <PUBCHEM_HEAVY_ATOM_COUNT>
35
> <PUBCHEM_ATOM_DEF_STEREO_COUNT>
0
> <PUBCHEM_ATOM_UDEF_STEREO_COUNT>
2
> <PUBCHEM_BOND_DEF_STEREO_COUNT>
0
> <PUBCHEM_BOND_UDEF_STEREO_COUNT>
0
> <PUBCHEM_ISOTOPIC_ATOM_COUNT>
0
> <PUBCHEM_COMPONENT_COUNT>
1
> <PUBCHEM_CACTVS_TAUTO_COUNT>
-1
> <PUBCHEM_COORDINATE_TYPE>
1
5
255
> <PUBCHEM_BONDANNOTATIONS>
21  1  3
22  2  3
23  26  8
23  30  8
24  27  8
24  31  8
26  32  8
27  33  8
28  30  8
28  34  8
29  31  8
29  35  8
32  34  8
33  35  8
$$$$
