515346
  -OEChem-10302200282D
 94 94  0     1  0  0  0  0  0999 V2000
   10.3312    2.2306    0.0000 O   0  0  0  0  0  0  0  0  0  0  0  0
    6.8671    2.2306    0.0000 O   0  0  0  0  0  0  0  0  0  0  0  0
   10.3312    1.2306    0.0000 O   0  0  0  0  0  0  0  0  0  0  0  0
    4.2690   -0.2694    0.0000 O   0  0  0  0  0  0  0  0  0  0  0  0
   11.1972   -2.2694    0.0000 O   0  0  0  0  0  0  0  0  0  0  0  0
    8.5991   -4.7694    0.0000 O   0  0  0  0  0  0  0  0  0  0  0  0
    7.7331   -3.2694    0.0000 O   0  0  0  0  0  0  0  0  0  0  0  0
   12.9292   -0.2694    0.0000 O   0  0  0  0  0  0  0  0  0  0  0  0
   12.0632   -1.7694    0.0000 O   0  0  0  0  0  0  0  0  0  0  0  0
    9.4651    3.7306    0.0000 N   0  0  0  0  0  0  0  0  0  0  0  0
    7.7331    0.7306    0.0000 N   0  0  0  0  0  0  0  0  0  0  0  0
    5.1350    1.2306    0.0000 N   0  0  0  0  0  0  0  0  0  0  0  0
    9.4651   -0.2694    0.0000 N   0  0  0  0  0  0  0  0  0  0  0  0
    9.4651   -2.2694    0.0000 N   0  0  0  0  0  0  0  0  0  0  0  0
    2.5369    0.7306    0.0000 N   0  0  0  0  0  0  0  0  0  0  0  0
   10.2742    4.3184    0.0000 C   0  0  0  0  0  0  0  0  0  0  0  0
    8.6561    4.3184    0.0000 C   0  0  0  0  0  0  0  0  0  0  0  0
    9.9651    5.2694    0.0000 C   0  0  0  0  0  0  0  0  0  0  0  0
    8.9651    5.2694    0.0000 C   0  0  0  0  0  0  0  0  0  0  0  0
    6.0010    0.7306    0.0000 C   0  0  1  0  0  0  0  0  0  0  0  0
    6.0010   -0.2694    0.0000 C   0  0  3  0  0  0  0  0  0  0  0  0
    8.5991    1.2306    0.0000 C   0  0  1  0  0  0  0  0  0  0  0  0
    8.5991    2.2306    0.0000 C   0  0  0  0  0  0  0  0  0  0  0  0
    9.4651    2.7306    0.0000 C   0  0  0  0  0  0  0  0  0  0  0  0
    5.1350   -0.7694    0.0000 C   0  0  0  0  0  0  0  0  0  0  0  0
    6.8671    1.2306    0.0000 C   0  0  0  0  0  0  0  0  0  0  0  0
    6.8671   -0.7694    0.0000 C   0  0  0  0  0  0  0  0  0  0  0  0
    9.4651    0.7306    0.0000 C   0  0  0  0  0  0  0  0  0  0  0  0
    3.4030    1.2306    0.0000 C   0  0  2  0  0  0  0  0  0  0  0  0
    4.2690    0.7306    0.0000 C   0  0  0  0  0  0  0  0  0  0  0  0
    3.4030    2.2306    0.0000 C   0  0  0  0  0  0  0  0  0  0  0  0
   10.3312   -0.7694    0.0000 C   0  0  2  0  0  0  0  0  0  0  0  0
    5.1350   -1.7694    0.0000 C   0  0  0  0  0  0  0  0  0  0  0  0
    9.4651   -3.2694    0.0000 C   0  0  1  0  0  0  0  0  0  0  0  0
   10.3312   -3.7694    0.0000 C   0  0  0  0  0  0  0  0  0  0  0  0
   10.3312   -4.7694    0.0000 C   0  0  0  0  0  0  0  0  0  0  0  0
   10.3312   -1.7694    0.0000 C   0  0  0  0  0  0  0  0  0  0  0  0
   11.1972   -0.2694    0.0000 C   0  0  0  0  0  0  0  0  0  0  0  0
    2.5369    2.7306    0.0000 C   0  0  0  0  0  0  0  0  0  0  0  0
    4.2690    2.7306    0.0000 C   0  0  0  0  0  0  0  0  0  0  0  0
   11.1972   -5.2694    0.0000 C   0  0  0  0  0  0  0  0  0  0  0  0
    9.4651   -5.2694    0.0000 C   0  0  0  0  0  0  0  0  0  0  0  0
    8.5991   -3.7694    0.0000 C   0  0  0  0  0  0  0  0  0  0  0  0
   12.0632   -0.7694    0.0000 C   0  0  0  0  0  0  0  0  0  0  0  0
   10.5842    3.7814    0.0000 H   0  0  0  0  0  0  0  0  0  0  0  0
   10.8406    4.5705    0.0000 H   0  0  0  0  0  0  0  0  0  0  0  0
    8.0897    4.5705    0.0000 H   0  0  0  0  0  0  0  0  0  0  0  0
    8.3461    3.7814    0.0000 H   0  0  0  0  0  0  0  0  0  0  0  0
   10.5716    5.3983    0.0000 H   0  0  0  0  0  0  0  0  0  0  0  0
    9.9003    5.8860    0.0000 H   0  0  0  0  0  0  0  0  0  0  0  0
    9.0300    5.8860    0.0000 H   0  0  0  0  0  0  0  0  0  0  0  0
    8.3587    5.3983    0.0000 H   0  0  0  0  0  0  0  0  0  0  0  0
    5.4641    0.4206    0.0000 H   0  0  0  0  0  0  0  0  0  0  0  0
    6.5380    0.0406    0.0000 H   0  0  0  0  0  0  0  0  0  0  0  0
    8.5991    0.6106    0.0000 H   0  0  0  0  0  0  0  0  0  0  0  0
    8.3871    2.8132    0.0000 H   0  0  0  0  0  0  0  0  0  0  0  0
    7.9885    2.1229    0.0000 H   0  0  0  0  0  0  0  0  0  0  0  0
    4.9230   -0.1868    0.0000 H   0  0  0  0  0  0  0  0  0  0  0  0
    4.5244   -0.8771    0.0000 H   0  0  0  0  0  0  0  0  0  0  0  0
    7.7331    0.1106    0.0000 H   0  0  0  0  0  0  0  0  0  0  0  0
    5.1350    1.8506    0.0000 H   0  0  0  0  0  0  0  0  0  0  0  0
    6.5571   -1.3064    0.0000 H   0  0  0  0  0  0  0  0  0  0  0  0
    7.4040   -1.0794    0.0000 H   0  0  0  0  0  0  0  0  0  0  0  0
    7.1771   -0.2325    0.0000 H   0  0  0  0  0  0  0  0  0  0  0  0
    3.4030    0.6106    0.0000 H   0  0  0  0  0  0  0  0  0  0  0  0
    3.4030    2.8506    0.0000 H   0  0  0  0  0  0  0  0  0  0  0  0
    9.7942   -1.0794    0.0000 H   0  0  0  0  0  0  0  0  0  0  0  0
    4.5150   -1.7694    0.0000 H   0  0  0  0  0  0  0  0  0  0  0  0
    5.1350   -2.3894    0.0000 H   0  0  0  0  0  0  0  0  0  0  0  0
    5.7550   -1.7694    0.0000 H   0  0  0  0  0  0  0  0  0  0  0  0
    8.9282   -0.5794    0.0000 H   0  0  0  0  0  0  0  0  0  0  0  0
   10.0021   -2.9594    0.0000 H   0  0  0  0  0  0  0  0  0  0  0  0
   10.9417   -3.8771    0.0000 H   0  0  0  0  0  0  0  0  0  0  0  0
   10.5432   -3.1868    0.0000 H   0  0  0  0  0  0  0  0  0  0  0  0
   10.8681   -4.4594    0.0000 H   0  0  0  0  0  0  0  0  0  0  0  0
   11.5957    0.2055    0.0000 H   0  0  0  0  0  0  0  0  0  0  0  0
   10.7987    0.2055    0.0000 H   0  0  0  0  0  0  0  0  0  0  0  0
    8.9282   -1.9594    0.0000 H   0  0  0  0  0  0  0  0  0  0  0  0
    2.8469    3.2675    0.0000 H   0  0  0  0  0  0  0  0  0  0  0  0
    2.0000    3.0406    0.0000 H   0  0  0  0  0  0  0  0  0  0  0  0
    2.2269    2.1936    0.0000 H   0  0  0  0  0  0  0  0  0  0  0  0
    4.5790    2.1936    0.0000 H   0  0  0  0  0  0  0  0  0  0  0  0
    4.8059    3.0406    0.0000 H   0  0  0  0  0  0  0  0  0  0  0  0
    3.9590    3.2675    0.0000 H   0  0  0  0  0  0  0  0  0  0  0  0
    2.0000    1.0406    0.0000 H   0  0  0  0  0  0  0  0  0  0  0  0
    2.5369    0.1106    0.0000 H   0  0  0  0  0  0  0  0  0  0  0  0
   10.8872   -5.8064    0.0000 H   0  0  0  0  0  0  0  0  0  0  0  0
   11.7341   -5.5794    0.0000 H   0  0  0  0  0  0  0  0  0  0  0  0
   11.5072   -4.7325    0.0000 H   0  0  0  0  0  0  0  0  0  0  0  0
    9.1551   -4.7325    0.0000 H   0  0  0  0  0  0  0  0  0  0  0  0
    8.9282   -5.5794    0.0000 H   0  0  0  0  0  0  0  0  0  0  0  0
    9.7751   -5.8064    0.0000 H   0  0  0  0  0  0  0  0  0  0  0  0
    8.0622   -5.0794    0.0000 H   0  0  0  0  0  0  0  0  0  0  0  0
   13.4662   -0.5794    0.0000 H   0  0  0  0  0  0  0  0  0  0  0  0
  1 24  2  0  0  0  0
  2 26  2  0  0  0  0
  3 28  2  0  0  0  0
  4 30  2  0  0  0  0
  5 37  2  0  0  0  0
  6 43  1  0  0  0  0
  6 93  1  0  0  0  0
  7 43  2  0  0  0  0
  8 44  1  0  0  0  0
  8 94  1  0  0  0  0
  9 44  2  0  0  0  0
 10 16  1  0  0  0  0
 10 17  1  0  0  0  0
 10 24  1  0  0  0  0
 22 11  1  1  0  0  0
 11 26  1  0  0  0  0
 11 60  1  0  0  0  0
 20 12  1  6  0  0  0
 12 30  1  0  0  0  0
 12 61  1  0  0  0  0
 13 28  1  0  0  0  0
 32 13  1  1  0  0  0
 13 71  1  0  0  0  0
 34 14  1  1  0  0  0
 14 37  1  0  0  0  0
 14 78  1  0  0  0  0
 29 15  1  1  0  0  0
 15 85  1  0  0  0  0
 15 86  1  0  0  0  0
 16 18  1  0  0  0  0
 16 45  1  0  0  0  0
 16 46  1  0  0  0  0
 17 19  1  0  0  0  0
 17 47  1  0  0  0  0
 17 48  1  0  0  0  0
 18 19  1  0  0  0  0
 18 49  1  0  0  0  0
 18 50  1  0  0  0  0
 19 51  1  0  0  0  0
 19 52  1  0  0  0  0
 20 21  1  0  0  0  0
 20 26  1  0  0  0  0
 20 53  1  0  0  0  0
 21 25  1  0  0  0  0
 21 27  1  0  0  0  0
 21 54  1  0  0  0  0
 22 23  1  0  0  0  0
 22 28  1  0  0  0  0
 22 55  1  0  0  0  0
 23 24  1  0  0  0  0
 23 56  1  0  0  0  0
 23 57  1  0  0  0  0
 25 33  1  0  0  0  0
 25 58  1  0  0  0  0
 25 59  1  0  0  0  0
 27 62  1  0  0  0  0
 27 63  1  0  0  0  0
 27 64  1  0  0  0  0
 29 30  1  0  0  0  0
 29 31  1  0  0  0  0
 29 65  1  0  0  0  0
 31 39  1  0  0  0  0
 31 40  1  0  0  0  0
 31 66  1  0  0  0  0
 32 37  1  0  0  0  0
 32 38  1  0  0  0  0
 32 67  1  0  0  0  0
 33 68  1  0  0  0  0
 33 69  1  0  0  0  0
 33 70  1  0  0  0  0
 34 35  1  0  0  0  0
 34 43  1  0  0  0  0
 34 72  1  0  0  0  0
 35 36  1  0  0  0  0
 35 73  1  0  0  0  0
 35 74  1  0  0  0  0
 36 41  1  0  0  0  0
 36 42  1  0  0  0  0
 36 75  1  0  0  0  0
 38 44  1  0  0  0  0
 38 76  1  0  0  0  0
 38 77  1  0  0  0  0
 39 79  1  0  0  0  0
 39 80  1  0  0  0  0
 39 81  1  0  0  0  0
 40 82  1  0  0  0  0
 40 83  1  0  0  0  0
 40 84  1  0  0  0  0
 41 87  1  0  0  0  0
 41 88  1  0  0  0  0
 41 89  1  0  0  0  0
 42 90  1  0  0  0  0
 42 91  1  0  0  0  0
 42 92  1  0  0  0  0
M  END
> <PUBCHEM_COMPOUND_CID>
515346
> <PUBCHEM_COMPOUND_CANONICALIZED>
1
> <PUBCHEM_CACTVS_COMPLEXITY>
1040
> <PUBCHEM_CACTVS_HBOND_ACCEPTOR>
10
> <PUBCHEM_CACTVS_HBOND_DONOR>
7
> <PUBCHEM_CACTVS_ROTATABLE_BOND>
18
> <PUBCHEM_CACTVS_SUBSKEYS>
AAADcfB7vAAAAAAAAAAAAAAAAAAAAWAAAAAAAAAAAAAAAAAAAAAAHgAQCAAADSjBgAQCCAPAAgAIAAGQGAAAAAAAAAAAAIGIAAACQBoAwCAUQAAGFgCQAAC/AAAOAAAAAAAAAAAAAAAAAAAAAAAAAAAAAA==
> <PUBCHEM_IUPAC_OPENEYE_NAME>
(2S)-2-[[(2S)-2-[[(2S)-2-[[(2S)-2-[[(2S)-2-amino-3-methyl-butanoyl]amino]-3-methyl-pentanoyl]amino]-4-oxo-4-pyrrolidin-1-yl-butanoyl]amino]-3-carboxy-propanoyl]amino]-4-methyl-pentanoic acid
> <PUBCHEM_IUPAC_CAS_NAME>
(2S)-2-[[(2S)-2-[[(2S)-2-[[(2S)-2-[[(2S)-2-amino-3-methyl-1-oxobutyl]amino]-3-methyl-1-oxopentyl]amino]-1,4-dioxo-4-(1-pyrrolidinyl)butyl]amino]-3-carboxy-1-oxopropyl]amino]-4-methylpentanoic acid
> <PUBCHEM_IUPAC_NAME_MARKUP>
(2<I>S</I>)-2-[[(2<I>S</I>)-2-[[(2<I>S</I>)-2-[[(2<I>S</I>)-2-[[(2<I>S</I>)-2-amino-3-methylbutanoyl]amino]-3-methylpentanoyl]amino]-4-oxo-4-pyrrolidin-1-ylbutanoyl]amino]-3-carboxypropanoyl]amino]-4-methylpentanoic acid
> <PUBCHEM_IUPAC_NAME>
(2S)-2-[[(2S)-2-[[(2S)-2-[[(2S)-2-[[(2S)-2-amino-3-methylbutanoyl]amino]-3-methylpentanoyl]amino]-4-oxo-4-pyrrolidin-1-ylbutanoyl]amino]-3-carboxypropanoyl]amino]-4-methylpentanoic acid
> <PUBCHEM_IUPAC_SYSTEMATIC_NAME>
(2S)-2-[[(2S)-2-[[(2S)-2-[[(2S)-2-[[(2S)-2-azanyl-3-methyl-butanoyl]amino]-3-methyl-pentanoyl]amino]-4-oxidanylidene-4-pyrrolidin-1-yl-butanoyl]amino]-4-oxidanyl-4-oxidanylidene-butanoyl]amino]-4-methyl-pentanoic acid
> <PUBCHEM_IUPAC_TRADITIONAL_NAME>
(2S)-2-[[(2S)-2-[[(2S)-2-[[(2S)-2-[[(2S)-2-amino-3-methyl-butanoyl]amino]-3-methyl-pentanoyl]amino]-4-keto-4-pyrrolidino-butanoyl]amino]-3-carboxy-propanoyl]amino]-4-methyl-valeric acid
> <PUBCHEM_IUPAC_INCHI>
InChI=1S/C29H50N6O9/c1-7-17(6)24(34-27(41)23(30)16(4)5)28(42)32-18(13-21(36)35-10-8-9-11-35)25(39)31-19(14-22(37)38)26(40)33-20(29(43)44)12-15(2)3/h15-20,23-24H,7-14,30H2,1-6H3,(H,31,39)(H,32,42)(H,33,40)(H,34,41)(H,37,38)(H,43,44)/t17?,18-,19-,20-,23-,24-/m0/s1
> <PUBCHEM_IUPAC_INCHIKEY>
UUMKHSKOXMNCEM-JMFZWRHKSA-N
> <PUBCHEM_XLOGP3_AA>
-1.7
> <PUBCHEM_EXACT_MASS>
626.36392719
> <PUBCHEM_MOLECULAR_FORMULA>
C29H50N6O9
> <PUBCHEM_MOLECULAR_WEIGHT>
626.7
> <PUBCHEM_OPENEYE_CAN_SMILES>
CCC(C)C(C(=O)NC(CC(=O)N1CCCC1)C(=O)NC(CC(=O)O)C(=O)NC(CC(C)C)C(=O)O)NC(=O)C(C(C)C)N
> <PUBCHEM_OPENEYE_ISO_SMILES>
CCC(C)[C@@H](C(=O)N[C@@H](CC(=O)N1CCCC1)C(=O)N[C@@H](CC(=O)O)C(=O)N[C@@H](CC(C)C)C(=O)O)NC(=O)[C@H](C(C)C)N
> <PUBCHEM_CACTVS_TPSA>
237
> <PUBCHEM_MONOISOTOPIC_WEIGHT>
626.36392719
> <PUBCHEM_TOTAL_CHARGE>
0
> <PUBCHEM_HEAVY_ATOM_COUNT>
44
> <PUBCHEM_ATOM_DEF_STEREO_COUNT>
5
> <PUBCHEM_ATOM_UDEF_STEREO_COUNT>
1
> <PUBCHEM_BOND_DEF_STEREO_COUNT>
0
> <PUBCHEM_BOND_UDEF_STEREO_COUNT>
0
> <PUBCHEM_ISOTOPIC_ATOM_COUNT>
0
> <PUBCHEM_COMPONENT_COUNT>
1
> <PUBCHEM_CACTVS_TAUTO_COUNT>
-1
> <PUBCHEM_COORDINATE_TYPE>
1
5
255
> <PUBCHEM_BONDANNOTATIONS>
22  11  5
20  12  6
32  13  5
34  14  5
29  15  5
21  27  3
$$$$
