515365
  -OEChem-10302200282D
 91 90  0     1  0  0  0  0  0999 V2000
    8.5991    2.2500    0.0000 O   0  0  0  0  0  0  0  0  0  0  0  0
   11.1972   -0.2500    0.0000 O   0  0  0  0  0  0  0  0  0  0  0  0
    5.1350    1.2500    0.0000 O   0  0  0  0  0  0  0  0  0  0  0  0
    4.2690   -2.2500    0.0000 O   0  0  0  0  0  0  0  0  0  0  0  0
    5.1350    2.2500    0.0000 O   0  0  0  0  0  0  0  0  0  0  0  0
    6.8671   -4.7500    0.0000 O   0  0  0  0  0  0  0  0  0  0  0  0
    7.7331   -3.2500    0.0000 O   0  0  0  0  0  0  0  0  0  0  0  0
    2.5369   -0.2500    0.0000 O   0  0  0  0  0  0  0  0  0  0  0  0
    3.4030   -1.7500    0.0000 O   0  0  0  0  0  0  0  0  0  0  0  0
    9.4651   -0.2500    0.0000 N   0  0  0  0  0  0  0  0  0  0  0  0
    7.7331    0.7500    0.0000 N   0  0  0  0  0  0  0  0  0  0  0  0
    6.0010   -0.2500    0.0000 N   0  0  0  0  0  0  0  0  0  0  0  0
    6.0010   -2.2500    0.0000 N   0  0  0  0  0  0  0  0  0  0  0  0
    6.0010    3.7500    0.0000 N   0  0  0  0  0  0  0  0  0  0  0  0
   10.3312    1.2500    0.0000 C   0  0  0  0  0  0  0  0  0  0  0  0
    9.4651    0.7500    0.0000 C   0  0  1  0  0  0  0  0  0  0  0  0
   11.1972    1.7500    0.0000 C   0  0  0  0  0  0  0  0  0  0  0  0
   10.8312    0.3840    0.0000 C   0  0  0  0  0  0  0  0  0  0  0  0
    9.8312    2.1160    0.0000 C   0  0  0  0  0  0  0  0  0  0  0  0
    8.5991    1.2500    0.0000 C   0  0  0  0  0  0  0  0  0  0  0  0
   10.3312   -1.7500    0.0000 C   0  0  0  0  0  0  0  0  0  0  0  0
   10.3312   -0.7500    0.0000 C   0  0  0  0  0  0  0  0  0  0  0  0
    6.8671    1.2500    0.0000 C   0  0  1  0  0  0  0  0  0  0  0  0
   11.1972   -2.2500    0.0000 C   0  0  0  0  0  0  0  0  0  0  0  0
    9.4651   -2.2500    0.0000 C   0  0  0  0  0  0  0  0  0  0  0  0
    6.8671    2.2500    0.0000 C   0  0  0  0  0  0  0  0  0  0  0  0
    6.0010    0.7500    0.0000 C   0  0  0  0  0  0  0  0  0  0  0  0
    5.1350   -0.7500    0.0000 C   0  0  2  0  0  0  0  0  0  0  0  0
    5.1350   -3.7500    0.0000 C   0  0  0  0  0  0  0  0  0  0  0  0
    6.0010   -3.2500    0.0000 C   0  0  1  0  0  0  0  0  0  0  0  0
    5.1350   -4.7500    0.0000 C   0  0  0  0  0  0  0  0  0  0  0  0
   11.1972   -3.2500    0.0000 C   0  0  0  0  0  0  0  0  0  0  0  0
    9.4651   -3.2500    0.0000 C   0  0  0  0  0  0  0  0  0  0  0  0
    5.1350   -1.7500    0.0000 C   0  0  0  0  0  0  0  0  0  0  0  0
    6.0010    2.7500    0.0000 C   0  0  0  0  0  0  0  0  0  0  0  0
    4.2690   -0.2500    0.0000 C   0  0  0  0  0  0  0  0  0  0  0  0
    4.2690   -5.2500    0.0000 C   0  0  0  0  0  0  0  0  0  0  0  0
    6.0010   -5.2500    0.0000 C   0  0  0  0  0  0  0  0  0  0  0  0
    6.8671   -3.7500    0.0000 C   0  0  0  0  0  0  0  0  0  0  0  0
    3.4030   -0.7500    0.0000 C   0  0  0  0  0  0  0  0  0  0  0  0
    5.1350    4.2500    0.0000 C   0  0  0  0  0  0  0  0  0  0  0  0
    5.1350    5.2500    0.0000 C   0  0  0  0  0  0  0  0  0  0  0  0
   10.0021    0.4400    0.0000 H   0  0  0  0  0  0  0  0  0  0  0  0
   11.5072    1.2131    0.0000 H   0  0  0  0  0  0  0  0  0  0  0  0
   11.7341    2.0600    0.0000 H   0  0  0  0  0  0  0  0  0  0  0  0
   10.8872    2.2869    0.0000 H   0  0  0  0  0  0  0  0  0  0  0  0
   10.2942    0.0740    0.0000 H   0  0  0  0  0  0  0  0  0  0  0  0
   11.1412   -0.1530    0.0000 H   0  0  0  0  0  0  0  0  0  0  0  0
   11.3681    0.6940    0.0000 H   0  0  0  0  0  0  0  0  0  0  0  0
   10.3681    2.4260    0.0000 H   0  0  0  0  0  0  0  0  0  0  0  0
    9.5212    2.6530    0.0000 H   0  0  0  0  0  0  0  0  0  0  0  0
    9.2942    1.8060    0.0000 H   0  0  0  0  0  0  0  0  0  0  0  0
    8.9282   -0.5600    0.0000 H   0  0  0  0  0  0  0  0  0  0  0  0
   10.8681   -1.4400    0.0000 H   0  0  0  0  0  0  0  0  0  0  0  0
    7.4040    1.5600    0.0000 H   0  0  0  0  0  0  0  0  0  0  0  0
    7.7331    0.1300    0.0000 H   0  0  0  0  0  0  0  0  0  0  0  0
   11.8078   -2.3577    0.0000 H   0  0  0  0  0  0  0  0  0  0  0  0
   11.4092   -1.6674    0.0000 H   0  0  0  0  0  0  0  0  0  0  0  0
    9.2531   -1.6674    0.0000 H   0  0  0  0  0  0  0  0  0  0  0  0
    8.8546   -2.3577    0.0000 H   0  0  0  0  0  0  0  0  0  0  0  0
    7.4776    2.1423    0.0000 H   0  0  0  0  0  0  0  0  0  0  0  0
    7.0791    2.8326    0.0000 H   0  0  0  0  0  0  0  0  0  0  0  0
    5.1350   -0.1300    0.0000 H   0  0  0  0  0  0  0  0  0  0  0  0
    4.9230   -3.1674    0.0000 H   0  0  0  0  0  0  0  0  0  0  0  0
    4.5244   -3.8577    0.0000 H   0  0  0  0  0  0  0  0  0  0  0  0
    6.5380   -2.9400    0.0000 H   0  0  0  0  0  0  0  0  0  0  0  0
    5.1350   -5.3700    0.0000 H   0  0  0  0  0  0  0  0  0  0  0  0
    6.5380   -0.5600    0.0000 H   0  0  0  0  0  0  0  0  0  0  0  0
   10.5772   -3.2500    0.0000 H   0  0  0  0  0  0  0  0  0  0  0  0
   11.1972   -3.8700    0.0000 H   0  0  0  0  0  0  0  0  0  0  0  0
   11.8172   -3.2500    0.0000 H   0  0  0  0  0  0  0  0  0  0  0  0
    8.8451   -3.2500    0.0000 H   0  0  0  0  0  0  0  0  0  0  0  0
    9.4651   -3.8700    0.0000 H   0  0  0  0  0  0  0  0  0  0  0  0
   10.0851   -3.2500    0.0000 H   0  0  0  0  0  0  0  0  0  0  0  0
    6.5380   -1.9400    0.0000 H   0  0  0  0  0  0  0  0  0  0  0  0
    4.6675    0.2249    0.0000 H   0  0  0  0  0  0  0  0  0  0  0  0
    3.8705    0.2249    0.0000 H   0  0  0  0  0  0  0  0  0  0  0  0
    3.9590   -4.7131    0.0000 H   0  0  0  0  0  0  0  0  0  0  0  0
    3.7320   -5.5600    0.0000 H   0  0  0  0  0  0  0  0  0  0  0  0
    4.5790   -5.7869    0.0000 H   0  0  0  0  0  0  0  0  0  0  0  0
    5.6910   -5.7869    0.0000 H   0  0  0  0  0  0  0  0  0  0  0  0
    6.5380   -5.5600    0.0000 H   0  0  0  0  0  0  0  0  0  0  0  0
    6.3110   -4.7131    0.0000 H   0  0  0  0  0  0  0  0  0  0  0  0
    6.5380    4.0600    0.0000 H   0  0  0  0  0  0  0  0  0  0  0  0
    4.5244    4.3577    0.0000 H   0  0  0  0  0  0  0  0  0  0  0  0
    4.9230    3.6674    0.0000 H   0  0  0  0  0  0  0  0  0  0  0  0
    7.4040   -5.0600    0.0000 H   0  0  0  0  0  0  0  0  0  0  0  0
    5.7550    5.2500    0.0000 H   0  0  0  0  0  0  0  0  0  0  0  0
    5.1350    5.8700    0.0000 H   0  0  0  0  0  0  0  0  0  0  0  0
    4.5150    5.2500    0.0000 H   0  0  0  0  0  0  0  0  0  0  0  0
    2.0000   -0.5600    0.0000 H   0  0  0  0  0  0  0  0  0  0  0  0
  1 20  2  0  0  0  0
  2 22  2  0  0  0  0
  3 27  2  0  0  0  0
  4 34  2  0  0  0  0
  5 35  2  0  0  0  0
  6 39  1  0  0  0  0
  6 87  1  0  0  0  0
  7 39  2  0  0  0  0
  8 40  1  0  0  0  0
  8 91  1  0  0  0  0
  9 40  2  0  0  0  0
 16 10  1  6  0  0  0
 10 22  1  0  0  0  0
 10 53  1  0  0  0  0
 11 20  1  0  0  0  0
 23 11  1  6  0  0  0
 11 56  1  0  0  0  0
 12 27  1  0  0  0  0
 28 12  1  6  0  0  0
 12 68  1  0  0  0  0
 30 13  1  6  0  0  0
 13 34  1  0  0  0  0
 13 75  1  0  0  0  0
 14 35  1  0  0  0  0
 14 41  1  0  0  0  0
 14 84  1  0  0  0  0
 15 16  1  0  0  0  0
 15 17  1  0  0  0  0
 15 18  1  0  0  0  0
 15 19  1  0  0  0  0
 16 20  1  0  0  0  0
 16 43  1  0  0  0  0
 17 44  1  0  0  0  0
 17 45  1  0  0  0  0
 17 46  1  0  0  0  0
 18 47  1  0  0  0  0
 18 48  1  0  0  0  0
 18 49  1  0  0  0  0
 19 50  1  0  0  0  0
 19 51  1  0  0  0  0
 19 52  1  0  0  0  0
 21 22  1  0  0  0  0
 21 24  1  0  0  0  0
 21 25  1  0  0  0  0
 21 54  1  0  0  0  0
 23 26  1  0  0  0  0
 23 27  1  0  0  0  0
 23 55  1  0  0  0  0
 24 32  1  0  0  0  0
 24 57  1  0  0  0  0
 24 58  1  0  0  0  0
 25 33  1  0  0  0  0
 25 59  1  0  0  0  0
 25 60  1  0  0  0  0
 26 35  1  0  0  0  0
 26 61  1  0  0  0  0
 26 62  1  0  0  0  0
 28 34  1  0  0  0  0
 28 36  1  0  0  0  0
 28 63  1  0  0  0  0
 29 30  1  0  0  0  0
 29 31  1  0  0  0  0
 29 64  1  0  0  0  0
 29 65  1  0  0  0  0
 30 39  1  0  0  0  0
 30 66  1  0  0  0  0
 31 37  1  0  0  0  0
 31 38  1  0  0  0  0
 31 67  1  0  0  0  0
 32 69  1  0  0  0  0
 32 70  1  0  0  0  0
 32 71  1  0  0  0  0
 33 72  1  0  0  0  0
 33 73  1  0  0  0  0
 33 74  1  0  0  0  0
 36 40  1  0  0  0  0
 36 76  1  0  0  0  0
 36 77  1  0  0  0  0
 37 78  1  0  0  0  0
 37 79  1  0  0  0  0
 37 80  1  0  0  0  0
 38 81  1  0  0  0  0
 38 82  1  0  0  0  0
 38 83  1  0  0  0  0
 41 42  1  0  0  0  0
 41 85  1  0  0  0  0
 41 86  1  0  0  0  0
 42 88  1  0  0  0  0
 42 89  1  0  0  0  0
 42 90  1  0  0  0  0
M  END
> <PUBCHEM_COMPOUND_CID>
515365
> <PUBCHEM_COMPOUND_CANONICALIZED>
1
> <PUBCHEM_CACTVS_COMPLEXITY>
973
> <PUBCHEM_CACTVS_HBOND_ACCEPTOR>
9
> <PUBCHEM_CACTVS_HBOND_DONOR>
7
> <PUBCHEM_CACTVS_ROTATABLE_BOND>
19
> <PUBCHEM_CACTVS_SUBSKEYS>
AAADcfB7vAAAAAAAAAAAAAAAAAAAAAAAAAAAAAAAAAAAAAAAAAAAHgAQCAAADyjBgAQCCALAAgAIAAGQGAAAAAAAAAAAAIGIAAACQBoAwCAUQAAGFgCQAACvAAAPAAAAAAAAAAAAAAAAAAAAAAAAAAAAAA==
> <PUBCHEM_IUPAC_OPENEYE_NAME>
(2S)-2-[[(2S)-3-carboxy-2-[[(2S)-4-(ethylamino)-2-[[(2S)-2-(2-ethylbutanoylamino)-3,3-dimethyl-butanoyl]amino]-4-oxo-butanoyl]amino]propanoyl]amino]-4-methyl-pentanoic acid
> <PUBCHEM_IUPAC_CAS_NAME>
(2S)-2-[[(2S)-3-carboxy-2-[[(2S)-4-(ethylamino)-2-[[(2S)-2-[(2-ethyl-1-oxobutyl)amino]-3,3-dimethyl-1-oxobutyl]amino]-1,4-dioxobutyl]amino]-1-oxopropyl]amino]-4-methylpentanoic acid
> <PUBCHEM_IUPAC_NAME_MARKUP>
(2<I>S</I>)-2-[[(2<I>S</I>)-3-carboxy-2-[[(2<I>S</I>)-4-(ethylamino)-2-[[(2<I>S</I>)-2-(2-ethylbutanoylamino)-3,3-dimethylbutanoyl]amino]-4-oxobutanoyl]amino]propanoyl]amino]-4-methylpentanoic acid
> <PUBCHEM_IUPAC_NAME>
(2S)-2-[[(2S)-3-carboxy-2-[[(2S)-4-(ethylamino)-2-[[(2S)-2-(2-ethylbutanoylamino)-3,3-dimethylbutanoyl]amino]-4-oxobutanoyl]amino]propanoyl]amino]-4-methylpentanoic acid
> <PUBCHEM_IUPAC_SYSTEMATIC_NAME>
(2S)-2-[[(2S)-2-[[(2S)-4-(ethylamino)-2-[[(2S)-2-(2-ethylbutanoylamino)-3,3-dimethyl-butanoyl]amino]-4-oxidanylidene-butanoyl]amino]-4-oxidanyl-4-oxidanylidene-butanoyl]amino]-4-methyl-pentanoic acid
> <PUBCHEM_IUPAC_TRADITIONAL_NAME>
(2S)-2-[[(2S)-3-carboxy-2-[[(2S)-4-(ethylamino)-2-[[(2S)-2-(2-ethylbutanoylamino)-3,3-dimethyl-butanoyl]amino]-4-keto-butanoyl]amino]propanoyl]amino]-4-methyl-valeric acid
> <PUBCHEM_IUPAC_INCHI>
InChI=1S/C28H49N5O9/c1-9-16(10-2)23(37)33-22(28(6,7)8)26(40)31-17(13-20(34)29-11-3)24(38)30-18(14-21(35)36)25(39)32-19(27(41)42)12-15(4)5/h15-19,22H,9-14H2,1-8H3,(H,29,34)(H,30,38)(H,31,40)(H,32,39)(H,33,37)(H,35,36)(H,41,42)/t17-,18-,19-,22+/m0/s1
> <PUBCHEM_IUPAC_INCHIKEY>
NIFNUTIJWSPFNB-ZVVDCOBXSA-N
> <PUBCHEM_XLOGP3_AA>
1.6
> <PUBCHEM_EXACT_MASS>
599.35302816
> <PUBCHEM_MOLECULAR_FORMULA>
C28H49N5O9
> <PUBCHEM_MOLECULAR_WEIGHT>
599.7
> <PUBCHEM_OPENEYE_CAN_SMILES>
CCC(CC)C(=O)NC(C(=O)NC(CC(=O)NCC)C(=O)NC(CC(=O)O)C(=O)NC(CC(C)C)C(=O)O)C(C)(C)C
> <PUBCHEM_OPENEYE_ISO_SMILES>
CCC(CC)C(=O)N[C@H](C(=O)N[C@@H](CC(=O)NCC)C(=O)N[C@@H](CC(=O)O)C(=O)N[C@@H](CC(C)C)C(=O)O)C(C)(C)C
> <PUBCHEM_CACTVS_TPSA>
220
> <PUBCHEM_MONOISOTOPIC_WEIGHT>
599.35302816
> <PUBCHEM_TOTAL_CHARGE>
0
> <PUBCHEM_HEAVY_ATOM_COUNT>
42
> <PUBCHEM_ATOM_DEF_STEREO_COUNT>
4
> <PUBCHEM_ATOM_UDEF_STEREO_COUNT>
0
> <PUBCHEM_BOND_DEF_STEREO_COUNT>
0
> <PUBCHEM_BOND_UDEF_STEREO_COUNT>
0
> <PUBCHEM_ISOTOPIC_ATOM_COUNT>
0
> <PUBCHEM_COMPONENT_COUNT>
1
> <PUBCHEM_CACTVS_TAUTO_COUNT>
-1
> <PUBCHEM_COORDINATE_TYPE>
1
5
255
> <PUBCHEM_BONDANNOTATIONS>
16  10  6
23  11  6
28  12  6
30  13  6
$$$$
