515353
  -OEChem-10302200282D
 86 86  0     1  0  0  0  0  0999 V2000
   10.6603    1.9806    0.0000 O   0  0  0  0  0  0  0  0  0  0  0  0
    8.0622   -0.5194    0.0000 O   0  0  0  0  0  0  0  0  0  0  0  0
    8.9282   -1.0194    0.0000 O   0  0  0  0  0  0  0  0  0  0  0  0
    4.5981    0.4806    0.0000 O   0  0  0  0  0  0  0  0  0  0  0  0
   12.3923   -2.0194    0.0000 O   0  0  0  0  0  0  0  0  0  0  0  0
    3.7320    3.9806    0.0000 O   0  0  0  0  0  0  0  0  0  0  0  0
    5.4641    3.9806    0.0000 O   0  0  0  0  0  0  0  0  0  0  0  0
    5.4641   -2.0194    0.0000 O   0  0  0  0  0  0  0  0  0  0  0  0
    4.5981   -0.5194    0.0000 O   0  0  0  0  0  0  0  0  0  0  0  0
    9.7942    3.4806    0.0000 N   0  0  0  0  0  0  0  0  0  0  0  0
    9.7942    0.4806    0.0000 N   0  0  0  0  0  0  0  0  0  0  0  0
    7.1962    0.9806    0.0000 N   0  0  0  0  0  0  0  0  0  0  0  0
    5.4641    1.9806    0.0000 N   0  0  0  0  0  0  0  0  0  0  0  0
   10.6603   -2.0194    0.0000 N   0  0  0  0  0  0  0  0  0  0  0  0
   10.2942    5.0194    0.0000 C   0  0  0  0  0  0  0  0  0  0  0  0
    9.2942    5.0194    0.0000 C   0  0  0  0  0  0  0  0  0  0  0  0
   10.6032    4.0684    0.0000 C   0  0  0  0  0  0  0  0  0  0  0  0
    8.9852    4.0684    0.0000 C   0  0  0  0  0  0  0  0  0  0  0  0
    9.7942    2.4806    0.0000 C   0  0  0  0  0  0  0  0  0  0  0  0
    8.9282    1.9806    0.0000 C   0  0  0  0  0  0  0  0  0  0  0  0
    8.9282    0.9806    0.0000 C   0  0  1  0  0  0  0  0  0  0  0  0
    8.0622    0.4806    0.0000 C   0  0  0  0  0  0  0  0  0  0  0  0
    6.3301    0.4806    0.0000 C   0  0  2  0  0  0  0  0  0  0  0  0
    3.7320    1.9806    0.0000 C   0  0  0  0  0  0  0  0  0  0  0  0
    4.5981    2.4806    0.0000 C   0  0  1  0  0  0  0  0  0  0  0  0
    2.8660    2.4806    0.0000 C   0  0  0  0  0  0  0  0  0  0  0  0
   10.6603   -1.0194    0.0000 C   0  0  2  0  0  0  0  0  0  0  0  0
    9.7942   -0.5194    0.0000 C   0  0  0  0  0  0  0  0  0  0  0  0
   11.5263   -3.5194    0.0000 C   0  0  0  0  0  0  0  0  0  0  0  0
    5.4641    0.9806    0.0000 C   0  0  0  0  0  0  0  0  0  0  0  0
    6.3301   -0.5194    0.0000 C   0  0  0  0  0  0  0  0  0  0  0  0
   11.5263   -2.5194    0.0000 C   0  0  0  0  0  0  0  0  0  0  0  0
   12.3923   -4.0194    0.0000 C   0  0  0  0  0  0  0  0  0  0  0  0
   10.6603   -4.0194    0.0000 C   0  0  0  0  0  0  0  0  0  0  0  0
    2.0000    1.9806    0.0000 C   0  0  0  0  0  0  0  0  0  0  0  0
    2.8660    3.4806    0.0000 C   0  0  0  0  0  0  0  0  0  0  0  0
   11.5263   -0.5194    0.0000 C   0  0  0  0  0  0  0  0  0  0  0  0
    4.5981    3.4806    0.0000 C   0  0  0  0  0  0  0  0  0  0  0  0
   12.3923   -5.0194    0.0000 C   0  0  0  0  0  0  0  0  0  0  0  0
   10.6603   -5.0194    0.0000 C   0  0  0  0  0  0  0  0  0  0  0  0
    5.4641   -1.0194    0.0000 C   0  0  0  0  0  0  0  0  0  0  0  0
   10.9007    5.1483    0.0000 H   0  0  0  0  0  0  0  0  0  0  0  0
   10.2294    5.6360    0.0000 H   0  0  0  0  0  0  0  0  0  0  0  0
    9.3590    5.6360    0.0000 H   0  0  0  0  0  0  0  0  0  0  0  0
    8.6878    5.1483    0.0000 H   0  0  0  0  0  0  0  0  0  0  0  0
   10.9132    3.5314    0.0000 H   0  0  0  0  0  0  0  0  0  0  0  0
   11.1696    4.3205    0.0000 H   0  0  0  0  0  0  0  0  0  0  0  0
    8.4188    4.3205    0.0000 H   0  0  0  0  0  0  0  0  0  0  0  0
    8.6752    3.5314    0.0000 H   0  0  0  0  0  0  0  0  0  0  0  0
    8.7162    2.5632    0.0000 H   0  0  0  0  0  0  0  0  0  0  0  0
    8.3176    1.8729    0.0000 H   0  0  0  0  0  0  0  0  0  0  0  0
    9.4651    1.2906    0.0000 H   0  0  0  0  0  0  0  0  0  0  0  0
   10.3312    0.7906    0.0000 H   0  0  0  0  0  0  0  0  0  0  0  0
    6.8671    0.1706    0.0000 H   0  0  0  0  0  0  0  0  0  0  0  0
    3.3335    1.5056    0.0000 H   0  0  0  0  0  0  0  0  0  0  0  0
    4.1306    1.5056    0.0000 H   0  0  0  0  0  0  0  0  0  0  0  0
    4.5981    1.8606    0.0000 H   0  0  0  0  0  0  0  0  0  0  0  0
    2.8660    1.8606    0.0000 H   0  0  0  0  0  0  0  0  0  0  0  0
    7.1962    1.6006    0.0000 H   0  0  0  0  0  0  0  0  0  0  0  0
   11.1972   -1.3294    0.0000 H   0  0  0  0  0  0  0  0  0  0  0  0
   12.0632   -3.2094    0.0000 H   0  0  0  0  0  0  0  0  0  0  0  0
    6.0010    2.2906    0.0000 H   0  0  0  0  0  0  0  0  0  0  0  0
    6.5422   -1.1020    0.0000 H   0  0  0  0  0  0  0  0  0  0  0  0
    6.9407   -0.4118    0.0000 H   0  0  0  0  0  0  0  0  0  0  0  0
   10.1233   -2.3294    0.0000 H   0  0  0  0  0  0  0  0  0  0  0  0
   13.0029   -4.1271    0.0000 H   0  0  0  0  0  0  0  0  0  0  0  0
   12.6044   -3.4368    0.0000 H   0  0  0  0  0  0  0  0  0  0  0  0
   10.4482   -3.4368    0.0000 H   0  0  0  0  0  0  0  0  0  0  0  0
   10.0497   -4.1271    0.0000 H   0  0  0  0  0  0  0  0  0  0  0  0
    1.6900    2.5175    0.0000 H   0  0  0  0  0  0  0  0  0  0  0  0
    1.4631    1.6706    0.0000 H   0  0  0  0  0  0  0  0  0  0  0  0
    2.3100    1.4436    0.0000 H   0  0  0  0  0  0  0  0  0  0  0  0
    3.4860    3.4806    0.0000 H   0  0  0  0  0  0  0  0  0  0  0  0
    2.8660    4.1006    0.0000 H   0  0  0  0  0  0  0  0  0  0  0  0
    2.2460    3.4806    0.0000 H   0  0  0  0  0  0  0  0  0  0  0  0
   11.8363   -1.0564    0.0000 H   0  0  0  0  0  0  0  0  0  0  0  0
   12.0632   -0.2094    0.0000 H   0  0  0  0  0  0  0  0  0  0  0  0
   11.2163    0.0175    0.0000 H   0  0  0  0  0  0  0  0  0  0  0  0
   11.7723   -5.0194    0.0000 H   0  0  0  0  0  0  0  0  0  0  0  0
   12.3923   -5.6394    0.0000 H   0  0  0  0  0  0  0  0  0  0  0  0
   13.0123   -5.0194    0.0000 H   0  0  0  0  0  0  0  0  0  0  0  0
   10.0403   -5.0194    0.0000 H   0  0  0  0  0  0  0  0  0  0  0  0
   10.6603   -5.6394    0.0000 H   0  0  0  0  0  0  0  0  0  0  0  0
   11.2803   -5.0194    0.0000 H   0  0  0  0  0  0  0  0  0  0  0  0
    3.7320    4.6006    0.0000 H   0  0  0  0  0  0  0  0  0  0  0  0
    4.9272   -2.3294    0.0000 H   0  0  0  0  0  0  0  0  0  0  0  0
  1 19  2  0  0  0  0
  2 22  2  0  0  0  0
  3 28  2  0  0  0  0
  4 30  2  0  0  0  0
  5 32  2  0  0  0  0
  6 38  1  0  0  0  0
  6 85  1  0  0  0  0
  7 38  2  0  0  0  0
  8 41  1  0  0  0  0
  8 86  1  0  0  0  0
  9 41  2  0  0  0  0
 10 17  1  0  0  0  0
 10 18  1  0  0  0  0
 10 19  1  0  0  0  0
 21 11  1  6  0  0  0
 11 28  1  0  0  0  0
 11 53  1  0  0  0  0
 12 22  1  0  0  0  0
 23 12  1  1  0  0  0
 12 59  1  0  0  0  0
 25 13  1  1  0  0  0
 13 30  1  0  0  0  0
 13 62  1  0  0  0  0
 27 14  1  6  0  0  0
 14 32  1  0  0  0  0
 14 65  1  0  0  0  0
 15 16  1  0  0  0  0
 15 17  1  0  0  0  0
 15 42  1  0  0  0  0
 15 43  1  0  0  0  0
 16 18  1  0  0  0  0
 16 44  1  0  0  0  0
 16 45  1  0  0  0  0
 17 46  1  0  0  0  0
 17 47  1  0  0  0  0
 18 48  1  0  0  0  0
 18 49  1  0  0  0  0
 19 20  1  0  0  0  0
 20 21  1  0  0  0  0
 20 50  1  0  0  0  0
 20 51  1  0  0  0  0
 21 22  1  0  0  0  0
 21 52  1  0  0  0  0
 23 30  1  0  0  0  0
 23 31  1  0  0  0  0
 23 54  1  0  0  0  0
 24 25  1  0  0  0  0
 24 26  1  0  0  0  0
 24 55  1  0  0  0  0
 24 56  1  0  0  0  0
 25 38  1  0  0  0  0
 25 57  1  0  0  0  0
 26 35  1  0  0  0  0
 26 36  1  0  0  0  0
 26 58  1  0  0  0  0
 27 28  1  0  0  0  0
 27 37  1  0  0  0  0
 27 60  1  0  0  0  0
 29 32  1  0  0  0  0
 29 33  1  0  0  0  0
 29 34  1  0  0  0  0
 29 61  1  0  0  0  0
 31 41  1  0  0  0  0
 31 63  1  0  0  0  0
 31 64  1  0  0  0  0
 33 39  1  0  0  0  0
 33 66  1  0  0  0  0
 33 67  1  0  0  0  0
 34 40  1  0  0  0  0
 34 68  1  0  0  0  0
 34 69  1  0  0  0  0
 35 70  1  0  0  0  0
 35 71  1  0  0  0  0
 35 72  1  0  0  0  0
 36 73  1  0  0  0  0
 36 74  1  0  0  0  0
 36 75  1  0  0  0  0
 37 76  1  0  0  0  0
 37 77  1  0  0  0  0
 37 78  1  0  0  0  0
 39 79  1  0  0  0  0
 39 80  1  0  0  0  0
 39 81  1  0  0  0  0
 40 82  1  0  0  0  0
 40 83  1  0  0  0  0
 40 84  1  0  0  0  0
M  END
> <PUBCHEM_COMPOUND_CID>
515353
> <PUBCHEM_COMPOUND_CANONICALIZED>
1
> <PUBCHEM_CACTVS_COMPLEXITY>
961
> <PUBCHEM_CACTVS_HBOND_ACCEPTOR>
9
> <PUBCHEM_CACTVS_HBOND_DONOR>
6
> <PUBCHEM_CACTVS_ROTATABLE_BOND>
17
> <PUBCHEM_CACTVS_SUBSKEYS>
AAADcfB7vAAAAAAAAAAAAAAAAAAAAWAAAAAAAAAAAAAAAAAAAAAAHgAQCAAADSjBgAQCCAPAAgAIAAGQGAAAAAAAAAAAAIGIAAACQBoAwCAUQAAGFgCQAACvAAAOAAAAAAAAAAAAAAAAAAAAAAAAAAAAAA==
> <PUBCHEM_IUPAC_OPENEYE_NAME>
(2S)-2-[[(2S)-3-carboxy-2-[[(2S)-2-[[(2S)-2-(2-ethylbutanoylamino)propanoyl]amino]-4-oxo-4-pyrrolidin-1-yl-butanoyl]amino]propanoyl]amino]-4-methyl-pentanoic acid
> <PUBCHEM_IUPAC_CAS_NAME>
(2S)-2-[[(2S)-3-carboxy-2-[[(2S)-2-[[(2S)-2-[(2-ethyl-1-oxobutyl)amino]-1-oxopropyl]amino]-1,4-dioxo-4-(1-pyrrolidinyl)butyl]amino]-1-oxopropyl]amino]-4-methylpentanoic acid
> <PUBCHEM_IUPAC_NAME_MARKUP>
(2<I>S</I>)-2-[[(2<I>S</I>)-3-carboxy-2-[[(2<I>S</I>)-2-[[(2<I>S</I>)-2-(2-ethylbutanoylamino)propanoyl]amino]-4-oxo-4-pyrrolidin-1-ylbutanoyl]amino]propanoyl]amino]-4-methylpentanoic acid
> <PUBCHEM_IUPAC_NAME>
(2S)-2-[[(2S)-3-carboxy-2-[[(2S)-2-[[(2S)-2-(2-ethylbutanoylamino)propanoyl]amino]-4-oxo-4-pyrrolidin-1-ylbutanoyl]amino]propanoyl]amino]-4-methylpentanoic acid
> <PUBCHEM_IUPAC_SYSTEMATIC_NAME>
(2S)-2-[[(2S)-2-[[(2S)-2-[[(2S)-2-(2-ethylbutanoylamino)propanoyl]amino]-4-oxidanylidene-4-pyrrolidin-1-yl-butanoyl]amino]-4-oxidanyl-4-oxidanylidene-butanoyl]amino]-4-methyl-pentanoic acid
> <PUBCHEM_IUPAC_TRADITIONAL_NAME>
(2S)-2-[[(2S)-3-carboxy-2-[[(2S)-2-[[(2S)-2-(2-ethylbutanoylamino)propanoyl]amino]-4-keto-4-pyrrolidino-butanoyl]amino]propanoyl]amino]-4-methyl-valeric acid
> <PUBCHEM_IUPAC_INCHI>
InChI=1S/C27H45N5O9/c1-6-17(7-2)24(37)28-16(5)23(36)29-18(13-21(33)32-10-8-9-11-32)25(38)30-19(14-22(34)35)26(39)31-20(27(40)41)12-15(3)4/h15-20H,6-14H2,1-5H3,(H,28,37)(H,29,36)(H,30,38)(H,31,39)(H,34,35)(H,40,41)/t16-,18-,19-,20-/m0/s1
> <PUBCHEM_IUPAC_INCHIKEY>
VRSTZDVILMURLO-LEAZDLGRSA-N
> <PUBCHEM_XLOGP3_AA>
0.5
> <PUBCHEM_EXACT_MASS>
583.32172803
> <PUBCHEM_MOLECULAR_FORMULA>
C27H45N5O9
> <PUBCHEM_MOLECULAR_WEIGHT>
583.7
> <PUBCHEM_OPENEYE_CAN_SMILES>
CCC(CC)C(=O)NC(C)C(=O)NC(CC(=O)N1CCCC1)C(=O)NC(CC(=O)O)C(=O)NC(CC(C)C)C(=O)O
> <PUBCHEM_OPENEYE_ISO_SMILES>
CCC(CC)C(=O)N[C@@H](C)C(=O)N[C@@H](CC(=O)N1CCCC1)C(=O)N[C@@H](CC(=O)O)C(=O)N[C@@H](CC(C)C)C(=O)O
> <PUBCHEM_CACTVS_TPSA>
211
> <PUBCHEM_MONOISOTOPIC_WEIGHT>
583.32172803
> <PUBCHEM_TOTAL_CHARGE>
0
> <PUBCHEM_HEAVY_ATOM_COUNT>
41
> <PUBCHEM_ATOM_DEF_STEREO_COUNT>
4
> <PUBCHEM_ATOM_UDEF_STEREO_COUNT>
0
> <PUBCHEM_BOND_DEF_STEREO_COUNT>
0
> <PUBCHEM_BOND_UDEF_STEREO_COUNT>
0
> <PUBCHEM_ISOTOPIC_ATOM_COUNT>
0
> <PUBCHEM_COMPONENT_COUNT>
1
> <PUBCHEM_CACTVS_TAUTO_COUNT>
-1
> <PUBCHEM_COORDINATE_TYPE>
1
5
255
> <PUBCHEM_BONDANNOTATIONS>
21  11  6
23  12  5
25  13  5
27  14  6
$$$$
