515358
  -OEChem-10302200282D
 97 97  0     1  0  0  0  0  0999 V2000
   10.6603    1.9806    0.0000 O   0  0  0  0  0  0  0  0  0  0  0  0
    8.9282   -1.0194    0.0000 O   0  0  0  0  0  0  0  0  0  0  0  0
    8.0622   -0.5194    0.0000 O   0  0  0  0  0  0  0  0  0  0  0  0
   12.3923   -2.0194    0.0000 O   0  0  0  0  0  0  0  0  0  0  0  0
    4.5981    0.4806    0.0000 O   0  0  0  0  0  0  0  0  0  0  0  0
    3.7320    3.9806    0.0000 O   0  0  0  0  0  0  0  0  0  0  0  0
    5.4641    3.9806    0.0000 O   0  0  0  0  0  0  0  0  0  0  0  0
    5.4641   -2.0194    0.0000 O   0  0  0  0  0  0  0  0  0  0  0  0
    4.5981   -0.5194    0.0000 O   0  0  0  0  0  0  0  0  0  0  0  0
    9.7942    3.4806    0.0000 N   0  0  0  0  0  0  0  0  0  0  0  0
    9.7942    0.4806    0.0000 N   0  0  0  0  0  0  0  0  0  0  0  0
   10.6603   -2.0194    0.0000 N   0  0  0  0  0  0  0  0  0  0  0  0
    7.1962    0.9806    0.0000 N   0  0  0  0  0  0  0  0  0  0  0  0
    5.4641    1.9806    0.0000 N   0  0  0  0  0  0  0  0  0  0  0  0
   14.9904   -0.5194    0.0000 N   0  0  0  0  0  0  0  0  0  0  0  0
   10.6032    4.0684    0.0000 C   0  0  0  0  0  0  0  0  0  0  0  0
    8.9852    4.0684    0.0000 C   0  0  0  0  0  0  0  0  0  0  0  0
   10.2942    5.0194    0.0000 C   0  0  0  0  0  0  0  0  0  0  0  0
    9.2942    5.0194    0.0000 C   0  0  0  0  0  0  0  0  0  0  0  0
    9.7942    2.4806    0.0000 C   0  0  0  0  0  0  0  0  0  0  0  0
    8.9282    1.9806    0.0000 C   0  0  0  0  0  0  0  0  0  0  0  0
    8.9282    0.9806    0.0000 C   0  0  1  0  0  0  0  0  0  0  0  0
   10.6603   -1.0194    0.0000 C   0  0  1  0  0  0  0  0  0  0  0  0
   11.5263   -0.5194    0.0000 C   0  0  0  0  0  0  0  0  0  0  0  0
    9.7942   -0.5194    0.0000 C   0  0  0  0  0  0  0  0  0  0  0  0
    8.0622    0.4806    0.0000 C   0  0  0  0  0  0  0  0  0  0  0  0
   12.3923   -1.0194    0.0000 C   0  0  0  0  0  0  0  0  0  0  0  0
   11.5263   -3.5194    0.0000 C   0  0  0  0  0  0  0  0  0  0  0  0
    6.3301    0.4806    0.0000 C   0  0  2  0  0  0  0  0  0  0  0  0
   11.5263   -2.5194    0.0000 C   0  0  0  0  0  0  0  0  0  0  0  0
   13.2583   -0.5194    0.0000 C   0  0  0  0  0  0  0  0  0  0  0  0
    3.7320    1.9806    0.0000 C   0  0  0  0  0  0  0  0  0  0  0  0
    4.5981    2.4806    0.0000 C   0  0  1  0  0  0  0  0  0  0  0  0
   12.3923   -4.0194    0.0000 C   0  0  0  0  0  0  0  0  0  0  0  0
   10.6603   -4.0194    0.0000 C   0  0  0  0  0  0  0  0  0  0  0  0
    2.8660    2.4806    0.0000 C   0  0  0  0  0  0  0  0  0  0  0  0
    5.4641    0.9806    0.0000 C   0  0  0  0  0  0  0  0  0  0  0  0
    6.3301   -0.5194    0.0000 C   0  0  0  0  0  0  0  0  0  0  0  0
   14.1244   -1.0194    0.0000 C   0  0  0  0  0  0  0  0  0  0  0  0
   12.3923   -5.0194    0.0000 C   0  0  0  0  0  0  0  0  0  0  0  0
   10.6603   -5.0194    0.0000 C   0  0  0  0  0  0  0  0  0  0  0  0
    2.0000    1.9806    0.0000 C   0  0  0  0  0  0  0  0  0  0  0  0
    2.8660    3.4806    0.0000 C   0  0  0  0  0  0  0  0  0  0  0  0
    4.5981    3.4806    0.0000 C   0  0  0  0  0  0  0  0  0  0  0  0
    5.4641   -1.0194    0.0000 C   0  0  0  0  0  0  0  0  0  0  0  0
   10.9132    3.5314    0.0000 H   0  0  0  0  0  0  0  0  0  0  0  0
   11.1696    4.3205    0.0000 H   0  0  0  0  0  0  0  0  0  0  0  0
    8.4188    4.3205    0.0000 H   0  0  0  0  0  0  0  0  0  0  0  0
    8.6752    3.5314    0.0000 H   0  0  0  0  0  0  0  0  0  0  0  0
   10.9007    5.1483    0.0000 H   0  0  0  0  0  0  0  0  0  0  0  0
   10.2294    5.6360    0.0000 H   0  0  0  0  0  0  0  0  0  0  0  0
    9.3590    5.6360    0.0000 H   0  0  0  0  0  0  0  0  0  0  0  0
    8.6878    5.1483    0.0000 H   0  0  0  0  0  0  0  0  0  0  0  0
    8.7162    2.5632    0.0000 H   0  0  0  0  0  0  0  0  0  0  0  0
    8.3176    1.8729    0.0000 H   0  0  0  0  0  0  0  0  0  0  0  0
    9.4651    1.2906    0.0000 H   0  0  0  0  0  0  0  0  0  0  0  0
   11.1972   -1.3294    0.0000 H   0  0  0  0  0  0  0  0  0  0  0  0
   11.9248   -0.0445    0.0000 H   0  0  0  0  0  0  0  0  0  0  0  0
   11.1278   -0.0445    0.0000 H   0  0  0  0  0  0  0  0  0  0  0  0
   10.3312    0.7906    0.0000 H   0  0  0  0  0  0  0  0  0  0  0  0
   11.9938   -1.4944    0.0000 H   0  0  0  0  0  0  0  0  0  0  0  0
   12.7908   -1.4944    0.0000 H   0  0  0  0  0  0  0  0  0  0  0  0
   12.0632   -3.2094    0.0000 H   0  0  0  0  0  0  0  0  0  0  0  0
   10.1233   -2.3294    0.0000 H   0  0  0  0  0  0  0  0  0  0  0  0
    6.8671    0.1706    0.0000 H   0  0  0  0  0  0  0  0  0  0  0  0
    7.1962    1.6006    0.0000 H   0  0  0  0  0  0  0  0  0  0  0  0
   13.6569   -0.0445    0.0000 H   0  0  0  0  0  0  0  0  0  0  0  0
   12.8598   -0.0445    0.0000 H   0  0  0  0  0  0  0  0  0  0  0  0
    3.3335    1.5056    0.0000 H   0  0  0  0  0  0  0  0  0  0  0  0
    4.1306    1.5056    0.0000 H   0  0  0  0  0  0  0  0  0  0  0  0
    4.5981    1.8606    0.0000 H   0  0  0  0  0  0  0  0  0  0  0  0
   13.0029   -4.1271    0.0000 H   0  0  0  0  0  0  0  0  0  0  0  0
   12.6044   -3.4368    0.0000 H   0  0  0  0  0  0  0  0  0  0  0  0
   10.4482   -3.4368    0.0000 H   0  0  0  0  0  0  0  0  0  0  0  0
   10.0497   -4.1271    0.0000 H   0  0  0  0  0  0  0  0  0  0  0  0
    2.8660    1.8606    0.0000 H   0  0  0  0  0  0  0  0  0  0  0  0
    6.5422   -1.1020    0.0000 H   0  0  0  0  0  0  0  0  0  0  0  0
    6.9407   -0.4118    0.0000 H   0  0  0  0  0  0  0  0  0  0  0  0
    6.0010    2.2906    0.0000 H   0  0  0  0  0  0  0  0  0  0  0  0
   13.7258   -1.4944    0.0000 H   0  0  0  0  0  0  0  0  0  0  0  0
   14.5229   -1.4944    0.0000 H   0  0  0  0  0  0  0  0  0  0  0  0
   11.7723   -5.0194    0.0000 H   0  0  0  0  0  0  0  0  0  0  0  0
   12.3923   -5.6394    0.0000 H   0  0  0  0  0  0  0  0  0  0  0  0
   13.0123   -5.0194    0.0000 H   0  0  0  0  0  0  0  0  0  0  0  0
   10.0403   -5.0194    0.0000 H   0  0  0  0  0  0  0  0  0  0  0  0
   10.6603   -5.6394    0.0000 H   0  0  0  0  0  0  0  0  0  0  0  0
   11.2803   -5.0194    0.0000 H   0  0  0  0  0  0  0  0  0  0  0  0
    1.6900    2.5175    0.0000 H   0  0  0  0  0  0  0  0  0  0  0  0
    1.4631    1.6706    0.0000 H   0  0  0  0  0  0  0  0  0  0  0  0
    2.3100    1.4436    0.0000 H   0  0  0  0  0  0  0  0  0  0  0  0
    3.4860    3.4806    0.0000 H   0  0  0  0  0  0  0  0  0  0  0  0
    2.8660    4.1006    0.0000 H   0  0  0  0  0  0  0  0  0  0  0  0
    2.2460    3.4806    0.0000 H   0  0  0  0  0  0  0  0  0  0  0  0
   15.5273   -0.8294    0.0000 H   0  0  0  0  0  0  0  0  0  0  0  0
   14.9904    0.1006    0.0000 H   0  0  0  0  0  0  0  0  0  0  0  0
    3.7320    4.6006    0.0000 H   0  0  0  0  0  0  0  0  0  0  0  0
    4.9272   -2.3294    0.0000 H   0  0  0  0  0  0  0  0  0  0  0  0
  1 20  2  0  0  0  0
  2 25  2  0  0  0  0
  3 26  2  0  0  0  0
  4 30  2  0  0  0  0
  5 37  2  0  0  0  0
  6 44  1  0  0  0  0
  6 96  1  0  0  0  0
  7 44  2  0  0  0  0
  8 45  1  0  0  0  0
  8 97  1  0  0  0  0
  9 45  2  0  0  0  0
 10 16  1  0  0  0  0
 10 17  1  0  0  0  0
 10 20  1  0  0  0  0
 22 11  1  6  0  0  0
 11 25  1  0  0  0  0
 11 60  1  0  0  0  0
 23 12  1  6  0  0  0
 12 30  1  0  0  0  0
 12 64  1  0  0  0  0
 13 26  1  0  0  0  0
 29 13  1  1  0  0  0
 13 66  1  0  0  0  0
 33 14  1  1  0  0  0
 14 37  1  0  0  0  0
 14 79  1  0  0  0  0
 15 39  1  0  0  0  0
 15 94  1  0  0  0  0
 15 95  1  0  0  0  0
 16 18  1  0  0  0  0
 16 46  1  0  0  0  0
 16 47  1  0  0  0  0
 17 19  1  0  0  0  0
 17 48  1  0  0  0  0
 17 49  1  0  0  0  0
 18 19  1  0  0  0  0
 18 50  1  0  0  0  0
 18 51  1  0  0  0  0
 19 52  1  0  0  0  0
 19 53  1  0  0  0  0
 20 21  1  0  0  0  0
 21 22  1  0  0  0  0
 21 54  1  0  0  0  0
 21 55  1  0  0  0  0
 22 26  1  0  0  0  0
 22 56  1  0  0  0  0
 23 24  1  0  0  0  0
 23 25  1  0  0  0  0
 23 57  1  0  0  0  0
 24 27  1  0  0  0  0
 24 58  1  0  0  0  0
 24 59  1  0  0  0  0
 27 31  1  0  0  0  0
 27 61  1  0  0  0  0
 27 62  1  0  0  0  0
 28 30  1  0  0  0  0
 28 34  1  0  0  0  0
 28 35  1  0  0  0  0
 28 63  1  0  0  0  0
 29 37  1  0  0  0  0
 29 38  1  0  0  0  0
 29 65  1  0  0  0  0
 31 39  1  0  0  0  0
 31 67  1  0  0  0  0
 31 68  1  0  0  0  0
 32 33  1  0  0  0  0
 32 36  1  0  0  0  0
 32 69  1  0  0  0  0
 32 70  1  0  0  0  0
 33 44  1  0  0  0  0
 33 71  1  0  0  0  0
 34 40  1  0  0  0  0
 34 72  1  0  0  0  0
 34 73  1  0  0  0  0
 35 41  1  0  0  0  0
 35 74  1  0  0  0  0
 35 75  1  0  0  0  0
 36 42  1  0  0  0  0
 36 43  1  0  0  0  0
 36 76  1  0  0  0  0
 38 45  1  0  0  0  0
 38 77  1  0  0  0  0
 38 78  1  0  0  0  0
 39 80  1  0  0  0  0
 39 81  1  0  0  0  0
 40 82  1  0  0  0  0
 40 83  1  0  0  0  0
 40 84  1  0  0  0  0
 41 85  1  0  0  0  0
 41 86  1  0  0  0  0
 41 87  1  0  0  0  0
 42 88  1  0  0  0  0
 42 89  1  0  0  0  0
 42 90  1  0  0  0  0
 43 91  1  0  0  0  0
 43 92  1  0  0  0  0
 43 93  1  0  0  0  0
M  END
> <PUBCHEM_COMPOUND_CID>
515358
> <PUBCHEM_COMPOUND_CANONICALIZED>
1
> <PUBCHEM_CACTVS_COMPLEXITY>
1030
> <PUBCHEM_CACTVS_HBOND_ACCEPTOR>
10
> <PUBCHEM_CACTVS_HBOND_DONOR>
7
> <PUBCHEM_CACTVS_ROTATABLE_BOND>
21
> <PUBCHEM_CACTVS_SUBSKEYS>
AAADcfB7vAAAAAAAAAAAAAAAAAAAAWAAAAAAAAAAAAAAAAAAAAAAHgAQCAAADSjBgAQCCAPAAgAIAAGQGAAAAAAAAAAAAIGIAAACQBoAwCAUQAAGFgCQAAG/CAAOAAAAAAAAAAAAAAAAAAAAAAAAAAAAAA==
> <PUBCHEM_IUPAC_OPENEYE_NAME>
(2S)-2-[[(2S)-2-[[(2S)-2-[[(2S)-6-amino-2-(2-ethylbutanoylamino)hexanoyl]amino]-4-oxo-4-pyrrolidin-1-yl-butanoyl]amino]-3-carboxy-propanoyl]amino]-4-methyl-pentanoic acid
> <PUBCHEM_IUPAC_CAS_NAME>
(2S)-2-[[(2S)-2-[[(2S)-2-[[(2S)-6-amino-2-[(2-ethyl-1-oxobutyl)amino]-1-oxohexyl]amino]-1,4-dioxo-4-(1-pyrrolidinyl)butyl]amino]-3-carboxy-1-oxopropyl]amino]-4-methylpentanoic acid
> <PUBCHEM_IUPAC_NAME_MARKUP>
(2<I>S</I>)-2-[[(2<I>S</I>)-2-[[(2<I>S</I>)-2-[[(2<I>S</I>)-6-amino-2-(2-ethylbutanoylamino)hexanoyl]amino]-4-oxo-4-pyrrolidin-1-ylbutanoyl]amino]-3-carboxypropanoyl]amino]-4-methylpentanoic acid
> <PUBCHEM_IUPAC_NAME>
(2S)-2-[[(2S)-2-[[(2S)-2-[[(2S)-6-amino-2-(2-ethylbutanoylamino)hexanoyl]amino]-4-oxo-4-pyrrolidin-1-ylbutanoyl]amino]-3-carboxypropanoyl]amino]-4-methylpentanoic acid
> <PUBCHEM_IUPAC_SYSTEMATIC_NAME>
(2S)-2-[[(2S)-2-[[(2S)-2-[[(2S)-6-azanyl-2-(2-ethylbutanoylamino)hexanoyl]amino]-4-oxidanylidene-4-pyrrolidin-1-yl-butanoyl]amino]-4-oxidanyl-4-oxidanylidene-butanoyl]amino]-4-methyl-pentanoic acid
> <PUBCHEM_IUPAC_TRADITIONAL_NAME>
(2S)-2-[[(2S)-2-[[(2S)-2-[[(2S)-6-amino-2-(2-ethylbutanoylamino)hexanoyl]amino]-4-keto-4-pyrrolidino-butanoyl]amino]-3-carboxy-propanoyl]amino]-4-methyl-valeric acid
> <PUBCHEM_IUPAC_INCHI>
InChI=1S/C30H52N6O9/c1-5-19(6-2)26(40)32-20(11-7-8-12-31)27(41)33-21(16-24(37)36-13-9-10-14-36)28(42)34-22(17-25(38)39)29(43)35-23(30(44)45)15-18(3)4/h18-23H,5-17,31H2,1-4H3,(H,32,40)(H,33,41)(H,34,42)(H,35,43)(H,38,39)(H,44,45)/t20-,21-,22-,23-/m0/s1
> <PUBCHEM_IUPAC_INCHIKEY>
BGZYQFYFUXYFFA-MLCQCVOFSA-N
> <PUBCHEM_XLOGP3_AA>
-2
> <PUBCHEM_EXACT_MASS>
640.37957726
> <PUBCHEM_MOLECULAR_FORMULA>
C30H52N6O9
> <PUBCHEM_MOLECULAR_WEIGHT>
640.8
> <PUBCHEM_OPENEYE_CAN_SMILES>
CCC(CC)C(=O)NC(CCCCN)C(=O)NC(CC(=O)N1CCCC1)C(=O)NC(CC(=O)O)C(=O)NC(CC(C)C)C(=O)O
> <PUBCHEM_OPENEYE_ISO_SMILES>
CCC(CC)C(=O)N[C@@H](CCCCN)C(=O)N[C@@H](CC(=O)N1CCCC1)C(=O)N[C@@H](CC(=O)O)C(=O)N[C@@H](CC(C)C)C(=O)O
> <PUBCHEM_CACTVS_TPSA>
237
> <PUBCHEM_MONOISOTOPIC_WEIGHT>
640.37957726
> <PUBCHEM_TOTAL_CHARGE>
0
> <PUBCHEM_HEAVY_ATOM_COUNT>
45
> <PUBCHEM_ATOM_DEF_STEREO_COUNT>
4
> <PUBCHEM_ATOM_UDEF_STEREO_COUNT>
0
> <PUBCHEM_BOND_DEF_STEREO_COUNT>
0
> <PUBCHEM_BOND_UDEF_STEREO_COUNT>
0
> <PUBCHEM_ISOTOPIC_ATOM_COUNT>
0
> <PUBCHEM_COMPONENT_COUNT>
1
> <PUBCHEM_CACTVS_TAUTO_COUNT>
-1
> <PUBCHEM_COORDINATE_TYPE>
1
5
255
> <PUBCHEM_BONDANNOTATIONS>
22  11  6
23  12  6
29  13  5
33  14  5
$$$$
