515354
  -OEChem-10302200282D
103104  0     1  0  0  0  0  0999 V2000
    8.9282    4.0950    0.0000 O   0  0  0  0  0  0  0  0  0  0  0  0
    8.9282   -1.9050    0.0000 O   0  0  0  0  0  0  0  0  0  0  0  0
    8.0622    3.5950    0.0000 O   0  0  0  0  0  0  0  0  0  0  0  0
   10.6603    1.0950    0.0000 O   0  0  0  0  0  0  0  0  0  0  0  0
   11.5263    0.5950    0.0000 O   0  0  0  0  0  0  0  0  0  0  0  0
    4.5981    2.5950    0.0000 O   0  0  0  0  0  0  0  0  0  0  0  0
    3.7320   -0.9050    0.0000 O   0  0  0  0  0  0  0  0  0  0  0  0
    5.4641   -0.9050    0.0000 O   0  0  0  0  0  0  0  0  0  0  0  0
    5.4641    5.0950    0.0000 O   0  0  0  0  0  0  0  0  0  0  0  0
    4.5981    3.5950    0.0000 O   0  0  0  0  0  0  0  0  0  0  0  0
   10.6603    4.0950    0.0000 N   0  0  0  0  0  0  0  0  0  0  0  0
    8.9282    1.0950    0.0000 N   0  0  0  0  0  0  0  0  0  0  0  0
   10.6603   -0.9050    0.0000 N   0  0  0  0  0  0  0  0  0  0  0  0
    7.1962    2.0950    0.0000 N   0  0  0  0  0  0  0  0  0  0  0  0
    5.4641    1.0950    0.0000 N   0  0  0  0  0  0  0  0  0  0  0  0
   11.7429    5.2974    0.0000 C   0  0  0  0  0  0  0  0  0  0  0  0
   12.2429    4.4314    0.0000 C   0  0  0  0  0  0  0  0  0  0  0  0
   10.7648    5.0895    0.0000 C   0  0  0  0  0  0  0  0  0  0  0  0
   11.5738    3.6883    0.0000 C   0  0  0  0  0  0  0  0  0  0  0  0
    9.7942    3.5950    0.0000 C   0  0  0  0  0  0  0  0  0  0  0  0
    9.7942    2.5950    0.0000 C   0  0  0  0  0  0  0  0  0  0  0  0
    8.9282    2.0950    0.0000 C   0  0  1  0  0  0  0  0  0  0  0  0
    9.7942   -0.4050    0.0000 C   0  0  1  0  0  0  0  0  0  0  0  0
    8.0622    2.5950    0.0000 C   0  0  0  0  0  0  0  0  0  0  0  0
    8.9282   -0.9050    0.0000 C   0  0  3  0  0  0  0  0  0  0  0  0
    9.7942    0.5950    0.0000 C   0  0  0  0  0  0  0  0  0  0  0  0
   12.3923   -0.9050    0.0000 C   0  0  0  0  0  0  0  0  0  0  0  0
    6.3301    2.5950    0.0000 C   0  0  2  0  0  0  0  0  0  0  0  0
   11.5263   -0.4050    0.0000 C   0  0  0  0  0  0  0  0  0  0  0  0
    4.5981    0.5950    0.0000 C   0  0  1  0  0  0  0  0  0  0  0  0
    3.7320    1.0950    0.0000 C   0  0  0  0  0  0  0  0  0  0  0  0
    2.8660    0.5950    0.0000 C   0  0  0  0  0  0  0  0  0  0  0  0
   13.2583   -0.4050    0.0000 C   0  0  0  0  0  0  0  0  0  0  0  0
   12.3923   -1.9050    0.0000 C   0  0  0  0  0  0  0  0  0  0  0  0
    8.0622   -0.4050    0.0000 C   0  0  0  0  0  0  0  0  0  0  0  0
    5.4641    2.0950    0.0000 C   0  0  0  0  0  0  0  0  0  0  0  0
    6.3301    3.5950    0.0000 C   0  0  0  0  0  0  0  0  0  0  0  0
    2.0000    1.0950    0.0000 C   0  0  0  0  0  0  0  0  0  0  0  0
    2.8660   -0.4050    0.0000 C   0  0  0  0  0  0  0  0  0  0  0  0
   14.1244   -0.9050    0.0000 C   0  0  0  0  0  0  0  0  0  0  0  0
   13.2583   -2.4050    0.0000 C   0  0  0  0  0  0  0  0  0  0  0  0
    8.0622   -2.4050    0.0000 C   0  0  0  0  0  0  0  0  0  0  0  0
    4.5981   -0.4050    0.0000 C   0  0  0  0  0  0  0  0  0  0  0  0
    5.4641    4.0950    0.0000 C   0  0  0  0  0  0  0  0  0  0  0  0
    8.0622   -3.4050    0.0000 C   0  0  0  0  0  0  0  0  0  0  0  0
    8.9282   -3.9050    0.0000 C   0  0  0  0  0  0  0  0  0  0  0  0
    7.1962   -3.9050    0.0000 C   0  0  0  0  0  0  0  0  0  0  0  0
    8.9282   -4.9050    0.0000 C   0  0  0  0  0  0  0  0  0  0  0  0
    7.1962   -4.9050    0.0000 C   0  0  0  0  0  0  0  0  0  0  0  0
    8.0622   -5.4050    0.0000 C   0  0  0  0  0  0  0  0  0  0  0  0
   12.3093    5.5496    0.0000 H   0  0  0  0  0  0  0  0  0  0  0  0
   11.5513    5.8871    0.0000 H   0  0  0  0  0  0  0  0  0  0  0  0
   12.6578    3.9707    0.0000 H   0  0  0  0  0  0  0  0  0  0  0  0
   12.7445    4.7958    0.0000 H   0  0  0  0  0  0  0  0  0  0  0  0
   10.7000    5.7061    0.0000 H   0  0  0  0  0  0  0  0  0  0  0  0
   10.1448    5.0895    0.0000 H   0  0  0  0  0  0  0  0  0  0  0  0
   11.2638    3.1513    0.0000 H   0  0  0  0  0  0  0  0  0  0  0  0
   12.0754    3.3238    0.0000 H   0  0  0  0  0  0  0  0  0  0  0  0
   10.0063    2.0124    0.0000 H   0  0  0  0  0  0  0  0  0  0  0  0
   10.4048    2.7027    0.0000 H   0  0  0  0  0  0  0  0  0  0  0  0
    9.4651    1.7850    0.0000 H   0  0  0  0  0  0  0  0  0  0  0  0
   10.3312   -0.0950    0.0000 H   0  0  0  0  0  0  0  0  0  0  0  0
    8.3913    0.7850    0.0000 H   0  0  0  0  0  0  0  0  0  0  0  0
    9.4651   -1.2150    0.0000 H   0  0  0  0  0  0  0  0  0  0  0  0
   11.8554   -1.2150    0.0000 H   0  0  0  0  0  0  0  0  0  0  0  0
    6.8671    2.9050    0.0000 H   0  0  0  0  0  0  0  0  0  0  0  0
   10.6603   -1.5250    0.0000 H   0  0  0  0  0  0  0  0  0  0  0  0
    7.1962    1.4750    0.0000 H   0  0  0  0  0  0  0  0  0  0  0  0
    4.5981    1.2150    0.0000 H   0  0  0  0  0  0  0  0  0  0  0  0
    4.1306    1.5700    0.0000 H   0  0  0  0  0  0  0  0  0  0  0  0
    3.3335    1.5700    0.0000 H   0  0  0  0  0  0  0  0  0  0  0  0
    2.8660    1.2150    0.0000 H   0  0  0  0  0  0  0  0  0  0  0  0
   13.6569    0.0699    0.0000 H   0  0  0  0  0  0  0  0  0  0  0  0
   12.8598    0.0699    0.0000 H   0  0  0  0  0  0  0  0  0  0  0  0
   11.7817   -1.7973    0.0000 H   0  0  0  0  0  0  0  0  0  0  0  0
   12.1803   -2.4876    0.0000 H   0  0  0  0  0  0  0  0  0  0  0  0
    8.3722    0.1319    0.0000 H   0  0  0  0  0  0  0  0  0  0  0  0
    7.5252   -0.0950    0.0000 H   0  0  0  0  0  0  0  0  0  0  0  0
    7.7522   -0.9419    0.0000 H   0  0  0  0  0  0  0  0  0  0  0  0
    6.9407    3.4873    0.0000 H   0  0  0  0  0  0  0  0  0  0  0  0
    6.5422    4.1776    0.0000 H   0  0  0  0  0  0  0  0  0  0  0  0
    6.0010    0.7850    0.0000 H   0  0  0  0  0  0  0  0  0  0  0  0
    2.3100    1.6319    0.0000 H   0  0  0  0  0  0  0  0  0  0  0  0
    1.4631    1.4050    0.0000 H   0  0  0  0  0  0  0  0  0  0  0  0
    1.6900    0.5581    0.0000 H   0  0  0  0  0  0  0  0  0  0  0  0
    2.2460   -0.4050    0.0000 H   0  0  0  0  0  0  0  0  0  0  0  0
    2.8660   -1.0250    0.0000 H   0  0  0  0  0  0  0  0  0  0  0  0
    3.4860   -0.4050    0.0000 H   0  0  0  0  0  0  0  0  0  0  0  0
   13.8144   -1.4419    0.0000 H   0  0  0  0  0  0  0  0  0  0  0  0
   14.6613   -1.2150    0.0000 H   0  0  0  0  0  0  0  0  0  0  0  0
   14.4344   -0.3681    0.0000 H   0  0  0  0  0  0  0  0  0  0  0  0
   12.9483   -2.9419    0.0000 H   0  0  0  0  0  0  0  0  0  0  0  0
   13.7953   -2.7150    0.0000 H   0  0  0  0  0  0  0  0  0  0  0  0
   13.5683   -1.8681    0.0000 H   0  0  0  0  0  0  0  0  0  0  0  0
    7.8501   -1.8224    0.0000 H   0  0  0  0  0  0  0  0  0  0  0  0
    7.4516   -2.5127    0.0000 H   0  0  0  0  0  0  0  0  0  0  0  0
    9.4651   -3.5950    0.0000 H   0  0  0  0  0  0  0  0  0  0  0  0
    6.6592   -3.5950    0.0000 H   0  0  0  0  0  0  0  0  0  0  0  0
    3.7320   -1.5250    0.0000 H   0  0  0  0  0  0  0  0  0  0  0  0
    4.9272    5.4050    0.0000 H   0  0  0  0  0  0  0  0  0  0  0  0
    9.4651   -5.2150    0.0000 H   0  0  0  0  0  0  0  0  0  0  0  0
    6.6592   -5.2150    0.0000 H   0  0  0  0  0  0  0  0  0  0  0  0
    8.0622   -6.0250    0.0000 H   0  0  0  0  0  0  0  0  0  0  0  0
  1 20  2  0  0  0  0
  2 25  1  0  0  0  0
  2 42  1  0  0  0  0
  3 24  2  0  0  0  0
  4 26  2  0  0  0  0
  5 29  2  0  0  0  0
  6 36  2  0  0  0  0
  7 43  1  0  0  0  0
  7 99  1  0  0  0  0
  8 43  2  0  0  0  0
  9 44  1  0  0  0  0
  9100  1  0  0  0  0
 10 44  2  0  0  0  0
 11 18  1  0  0  0  0
 11 19  1  0  0  0  0
 11 20  1  0  0  0  0
 22 12  1  6  0  0  0
 12 26  1  0  0  0  0
 12 63  1  0  0  0  0
 23 13  1  1  0  0  0
 13 29  1  0  0  0  0
 13 67  1  0  0  0  0
 14 24  1  0  0  0  0
 28 14  1  6  0  0  0
 14 68  1  0  0  0  0
 30 15  1  6  0  0  0
 15 36  1  0  0  0  0
 15 82  1  0  0  0  0
 16 17  1  0  0  0  0
 16 18  1  0  0  0  0
 16 51  1  0  0  0  0
 16 52  1  0  0  0  0
 17 19  1  0  0  0  0
 17 53  1  0  0  0  0
 17 54  1  0  0  0  0
 18 55  1  0  0  0  0
 18 56  1  0  0  0  0
 19 57  1  0  0  0  0
 19 58  1  0  0  0  0
 20 21  1  0  0  0  0
 21 22  1  0  0  0  0
 21 59  1  0  0  0  0
 21 60  1  0  0  0  0
 22 24  1  0  0  0  0
 22 61  1  0  0  0  0
 23 25  1  0  0  0  0
 23 26  1  0  0  0  0
 23 62  1  0  0  0  0
 25 35  1  0  0  0  0
 25 64  1  0  0  0  0
 27 29  1  0  0  0  0
 27 33  1  0  0  0  0
 27 34  1  0  0  0  0
 27 65  1  0  0  0  0
 28 36  1  0  0  0  0
 28 37  1  0  0  0  0
 28 66  1  0  0  0  0
 30 31  1  0  0  0  0
 30 43  1  0  0  0  0
 30 69  1  0  0  0  0
 31 32  1  0  0  0  0
 31 70  1  0  0  0  0
 31 71  1  0  0  0  0
 32 38  1  0  0  0  0
 32 39  1  0  0  0  0
 32 72  1  0  0  0  0
 33 40  1  0  0  0  0
 33 73  1  0  0  0  0
 33 74  1  0  0  0  0
 34 41  1  0  0  0  0
 34 75  1  0  0  0  0
 34 76  1  0  0  0  0
 35 77  1  0  0  0  0
 35 78  1  0  0  0  0
 35 79  1  0  0  0  0
 37 44  1  0  0  0  0
 37 80  1  0  0  0  0
 37 81  1  0  0  0  0
 38 83  1  0  0  0  0
 38 84  1  0  0  0  0
 38 85  1  0  0  0  0
 39 86  1  0  0  0  0
 39 87  1  0  0  0  0
 39 88  1  0  0  0  0
 40 89  1  0  0  0  0
 40 90  1  0  0  0  0
 40 91  1  0  0  0  0
 41 92  1  0  0  0  0
 41 93  1  0  0  0  0
 41 94  1  0  0  0  0
 42 45  1  0  0  0  0
 42 95  1  0  0  0  0
 42 96  1  0  0  0  0
 45 46  2  0  0  0  0
 45 47  1  0  0  0  0
 46 48  1  0  0  0  0
 46 97  1  0  0  0  0
 47 49  2  0  0  0  0
 47 98  1  0  0  0  0
 48 50  2  0  0  0  0
 48101  1  0  0  0  0
 49 50  1  0  0  0  0
 49102  1  0  0  0  0
 50103  1  0  0  0  0
M  END
> <PUBCHEM_COMPOUND_CID>
515354
> <PUBCHEM_COMPOUND_CANONICALIZED>
1
> <PUBCHEM_CACTVS_COMPLEXITY>
1160
> <PUBCHEM_CACTVS_HBOND_ACCEPTOR>
10
> <PUBCHEM_CACTVS_HBOND_DONOR>
6
> <PUBCHEM_CACTVS_ROTATABLE_BOND>
21
> <PUBCHEM_CACTVS_SUBSKEYS>
AAADcfB/vAAAAAAAAAAAAAAAAAAAAWAAAAAwAAAAAAAAAAABAAAAHgAQCAAADTzhmAYyCIPABgCIAiHSGAACAAAgAAAIiIGICIgKZj6A8TiXcAAm9gGYqAevwCAOAAAAAAAAAAAAAAAAAAAAAAAAAAAAAA==
> <PUBCHEM_IUPAC_OPENEYE_NAME>
(2S)-2-[[(2S)-2-[[(2S)-2-[[(2S)-3-benzyloxy-2-(2-ethylbutanoylamino)butanoyl]amino]-4-oxo-4-pyrrolidin-1-yl-butanoyl]amino]-3-carboxy-propanoyl]amino]-4-methyl-pentanoic acid
> <PUBCHEM_IUPAC_CAS_NAME>
(2S)-2-[[(2S)-3-carboxy-2-[[(2S)-2-[[(2S)-2-[(2-ethyl-1-oxobutyl)amino]-1-oxo-3-phenylmethoxybutyl]amino]-1,4-dioxo-4-(1-pyrrolidinyl)butyl]amino]-1-oxopropyl]amino]-4-methylpentanoic acid
> <PUBCHEM_IUPAC_NAME_MARKUP>
(2<I>S</I>)-2-[[(2<I>S</I>)-3-carboxy-2-[[(2<I>S</I>)-2-[[(2<I>S</I>)-2-(2-ethylbutanoylamino)-3-phenylmethoxybutanoyl]amino]-4-oxo-4-pyrrolidin-1-ylbutanoyl]amino]propanoyl]amino]-4-methylpentanoic acid
> <PUBCHEM_IUPAC_NAME>
(2S)-2-[[(2S)-3-carboxy-2-[[(2S)-2-[[(2S)-2-(2-ethylbutanoylamino)-3-phenylmethoxybutanoyl]amino]-4-oxo-4-pyrrolidin-1-ylbutanoyl]amino]propanoyl]amino]-4-methylpentanoic acid
> <PUBCHEM_IUPAC_SYSTEMATIC_NAME>
(2S)-2-[[(2S)-2-[[(2S)-2-[[(2S)-2-(2-ethylbutanoylamino)-3-phenylmethoxy-butanoyl]amino]-4-oxidanylidene-4-pyrrolidin-1-yl-butanoyl]amino]-4-oxidanyl-4-oxidanylidene-butanoyl]amino]-4-methyl-pentanoic acid
> <PUBCHEM_IUPAC_TRADITIONAL_NAME>
(2S)-2-[[(2S)-2-[[(2S)-2-[[(2S)-3-benzoxy-2-(2-ethylbutanoylamino)butanoyl]amino]-4-keto-4-pyrrolidino-butanoyl]amino]-3-carboxy-propanoyl]amino]-4-methyl-valeric acid
> <PUBCHEM_IUPAC_INCHI>
InChI=1S/C35H53N5O10/c1-6-24(7-2)31(44)39-30(22(5)50-20-23-13-9-8-10-14-23)34(47)37-25(18-28(41)40-15-11-12-16-40)32(45)36-26(19-29(42)43)33(46)38-27(35(48)49)17-21(3)4/h8-10,13-14,21-22,24-27,30H,6-7,11-12,15-20H2,1-5H3,(H,36,45)(H,37,47)(H,38,46)(H,39,44)(H,42,43)(H,48,49)/t22?,25-,26-,27-,30-/m0/s1
> <PUBCHEM_IUPAC_INCHIKEY>
FLGMZZPDYSIGJF-XSRJKUJKSA-N
> <PUBCHEM_XLOGP3_AA>
2
> <PUBCHEM_EXACT_MASS>
703.37924290
> <PUBCHEM_MOLECULAR_FORMULA>
C35H53N5O10
> <PUBCHEM_MOLECULAR_WEIGHT>
703.8
> <PUBCHEM_OPENEYE_CAN_SMILES>
CCC(CC)C(=O)NC(C(C)OCC1=CC=CC=C1)C(=O)NC(CC(=O)N2CCCC2)C(=O)NC(CC(=O)O)C(=O)NC(CC(C)C)C(=O)O
> <PUBCHEM_OPENEYE_ISO_SMILES>
CCC(CC)C(=O)N[C@@H](C(C)OCC1=CC=CC=C1)C(=O)N[C@@H](CC(=O)N2CCCC2)C(=O)N[C@@H](CC(=O)O)C(=O)N[C@@H](CC(C)C)C(=O)O
> <PUBCHEM_CACTVS_TPSA>
221
> <PUBCHEM_MONOISOTOPIC_WEIGHT>
703.37924290
> <PUBCHEM_TOTAL_CHARGE>
0
> <PUBCHEM_HEAVY_ATOM_COUNT>
50
> <PUBCHEM_ATOM_DEF_STEREO_COUNT>
4
> <PUBCHEM_ATOM_UDEF_STEREO_COUNT>
1
> <PUBCHEM_BOND_DEF_STEREO_COUNT>
0
> <PUBCHEM_BOND_UDEF_STEREO_COUNT>
0
> <PUBCHEM_ISOTOPIC_ATOM_COUNT>
0
> <PUBCHEM_COMPONENT_COUNT>
1
> <PUBCHEM_CACTVS_TAUTO_COUNT>
-1
> <PUBCHEM_COORDINATE_TYPE>
1
5
255
> <PUBCHEM_BONDANNOTATIONS>
22  12  6
23  13  5
28  14  6
30  15  6
25  35  3
45  46  8
45  47  8
46  48  8
47  49  8
48  50  8
49  50  8
$$$$
