515340
  -OEChem-10302200282D
129129  0     1  0  0  0  0  0999 V2000
   14.9949    2.6550    0.0000 O   0  0  0  0  0  0  0  0  0  0  0  0
   12.2628    5.1550    0.0000 O   0  0  0  0  0  0  0  0  0  0  0  0
    9.5308    2.6550    0.0000 O   0  0  0  0  0  0  0  0  0  0  0  0
   14.5263   -4.3450    0.0000 O   0  0  0  0  0  0  0  0  0  0  0  0
    6.7987    5.1550    0.0000 O   0  0  0  0  0  0  0  0  0  0  0  0
    3.2006    4.1550    0.0000 O   0  0  0  0  0  0  0  0  0  0  0  0
    4.0667    2.6550    0.0000 O   0  0  0  0  0  0  0  0  0  0  0  0
    8.6647    5.1550    0.0000 O   0  0  0  0  0  0  0  0  0  0  0  0
    6.7987    1.1550    0.0000 O   0  0  0  0  0  0  0  0  0  0  0  0
    5.9327    2.6550    0.0000 O   0  0  0  0  0  0  0  0  0  0  0  0
   11.7942   -1.8450    0.0000 O   0  0  0  0  0  0  0  0  0  0  0  0
    9.0622   -4.3450    0.0000 O   0  0  0  0  0  0  0  0  0  0  0  0
    6.3301   -1.8450    0.0000 O   0  0  0  0  0  0  0  0  0  0  0  0
    2.0000   -6.3450    0.0000 O   0  0  0  0  0  0  0  0  0  0  0  0
   13.9949    4.1550    0.0000 N   0  0  0  0  0  0  0  0  0  0  0  0
   16.7269    3.6550    0.0000 N   0  0  0  0  0  0  0  0  0  0  0  0
   11.2628    3.6550    0.0000 N   0  0  0  0  0  0  0  0  0  0  0  0
    8.5308    4.1550    0.0000 N   0  0  0  0  0  0  0  0  0  0  0  0
    5.7987    3.6550    0.0000 N   0  0  0  0  0  0  0  0  0  0  0  0
   12.7942   -3.3450    0.0000 N   0  0  0  0  0  0  0  0  0  0  0  0
    9.5308    6.6550    0.0000 N   0  0  0  0  0  0  0  0  0  0  0  0
   10.0622   -2.8450    0.0000 N   0  0  0  0  0  0  0  0  0  0  0  0
    7.3301   -3.3450    0.0000 N   0  0  0  0  0  0  0  0  0  0  0  0
    4.5981   -2.8450    0.0000 N   0  0  0  0  0  0  0  0  0  0  0  0
   13.1288    3.6550    0.0000 C   0  0  1  0  0  0  0  0  0  0  0  0
   13.1288    2.6550    0.0000 C   0  0  0  0  0  0  0  0  0  0  0  0
   15.8609    4.1550    0.0000 C   0  0  1  0  0  0  0  0  0  0  0  0
   15.8609    5.1550    0.0000 C   0  0  0  0  0  0  0  0  0  0  0  0
   14.9949    3.6550    0.0000 C   0  0  0  0  0  0  0  0  0  0  0  0
   12.2628    4.1550    0.0000 C   0  0  0  0  0  0  0  0  0  0  0  0
   13.9949    2.1550    0.0000 C   0  0  0  0  0  0  0  0  0  0  0  0
   12.2628    2.1550    0.0000 C   0  0  0  0  0  0  0  0  0  0  0  0
   10.3968    4.1550    0.0000 C   0  0  1  0  0  0  0  0  0  0  0  0
   16.7269    5.6550    0.0000 C   0  0  0  0  0  0  0  0  0  0  0  0
   14.9949    5.6550    0.0000 C   0  0  0  0  0  0  0  0  0  0  0  0
    4.9327    5.1550    0.0000 C   0  0  0  0  0  0  0  0  0  0  0  0
    4.9327    4.1550    0.0000 C   0  0  1  0  0  0  0  0  0  0  0  0
    4.0667    5.6550    0.0000 C   0  0  0  0  0  0  0  0  0  0  0  0
    7.6647    3.6550    0.0000 C   0  0  2  0  0  0  0  0  0  0  0  0
   10.3968    5.1550    0.0000 C   0  0  0  0  0  0  0  0  0  0  0  0
    9.5308    3.6550    0.0000 C   0  0  0  0  0  0  0  0  0  0  0  0
   14.5263   -3.3450    0.0000 C   0  0  0  0  0  0  0  0  0  0  0  0
   13.6603   -2.8450    0.0000 C   0  0  2  0  0  0  0  0  0  0  0  0
    6.7987    4.1550    0.0000 C   0  0  0  0  0  0  0  0  0  0  0  0
    7.6647    2.6550    0.0000 C   0  0  0  0  0  0  0  0  0  0  0  0
    4.0667    6.6550    0.0000 C   0  0  0  0  0  0  0  0  0  0  0  0
    3.2006    5.1550    0.0000 C   0  0  0  0  0  0  0  0  0  0  0  0
    4.0667    3.6550    0.0000 C   0  0  0  0  0  0  0  0  0  0  0  0
   13.6603   -1.8450    0.0000 C   0  0  0  0  0  0  0  0  0  0  0  0
    9.5308    5.6550    0.0000 C   0  0  0  0  0  0  0  0  0  0  0  0
    6.7987    2.1550    0.0000 C   0  0  0  0  0  0  0  0  0  0  0  0
   11.7942   -2.8450    0.0000 C   0  0  0  0  0  0  0  0  0  0  0  0
   10.9282   -3.3450    0.0000 C   0  0  0  0  0  0  0  0  0  0  0  0
    8.1962   -2.8450    0.0000 C   0  0  1  0  0  0  0  0  0  0  0  0
    9.0622   -3.3450    0.0000 C   0  0  0  0  0  0  0  0  0  0  0  0
    5.4641   -3.3450    0.0000 C   0  0  1  0  0  0  0  0  0  0  0  0
    5.4641   -4.3450    0.0000 C   0  0  0  0  0  0  0  0  0  0  0  0
    6.3301   -2.8450    0.0000 C   0  0  0  0  0  0  0  0  0  0  0  0
    8.1962   -1.8450    0.0000 C   0  0  0  0  0  0  0  0  0  0  0  0
    4.5981   -4.8450    0.0000 C   0  0  0  0  0  0  0  0  0  0  0  0
    4.5981   -5.8450    0.0000 C   0  0  0  0  0  0  0  0  0  0  0  0
    3.7320   -4.3450    0.0000 C   0  0  0  0  0  0  0  0  0  0  0  0
    3.7320   -6.3450    0.0000 C   0  0  0  0  0  0  0  0  0  0  0  0
    2.8660   -4.8450    0.0000 C   0  0  0  0  0  0  0  0  0  0  0  0
    2.8660   -5.8450    0.0000 C   0  0  0  0  0  0  0  0  0  0  0  0
   13.1288    4.2750    0.0000 H   0  0  0  0  0  0  0  0  0  0  0  0
   13.6658    2.9650    0.0000 H   0  0  0  0  0  0  0  0  0  0  0  0
   16.3978    4.4650    0.0000 H   0  0  0  0  0  0  0  0  0  0  0  0
   15.3240    4.8450    0.0000 H   0  0  0  0  0  0  0  0  0  0  0  0
   14.5318    4.4650    0.0000 H   0  0  0  0  0  0  0  0  0  0  0  0
   13.6849    1.6181    0.0000 H   0  0  0  0  0  0  0  0  0  0  0  0
   14.5318    1.8450    0.0000 H   0  0  0  0  0  0  0  0  0  0  0  0
   14.3049    2.6919    0.0000 H   0  0  0  0  0  0  0  0  0  0  0  0
   11.9528    2.6919    0.0000 H   0  0  0  0  0  0  0  0  0  0  0  0
   11.7259    1.8450    0.0000 H   0  0  0  0  0  0  0  0  0  0  0  0
   12.5728    1.6181    0.0000 H   0  0  0  0  0  0  0  0  0  0  0  0
   10.9337    4.4650    0.0000 H   0  0  0  0  0  0  0  0  0  0  0  0
   17.2639    3.3450    0.0000 H   0  0  0  0  0  0  0  0  0  0  0  0
   17.0369    5.1181    0.0000 H   0  0  0  0  0  0  0  0  0  0  0  0
   17.2639    5.9650    0.0000 H   0  0  0  0  0  0  0  0  0  0  0  0
   16.4169    6.1919    0.0000 H   0  0  0  0  0  0  0  0  0  0  0  0
   15.3049    6.1919    0.0000 H   0  0  0  0  0  0  0  0  0  0  0  0
   14.4579    5.9650    0.0000 H   0  0  0  0  0  0  0  0  0  0  0  0
   14.6849    5.1181    0.0000 H   0  0  0  0  0  0  0  0  0  0  0  0
   11.7998    3.3450    0.0000 H   0  0  0  0  0  0  0  0  0  0  0  0
    5.5433    5.0473    0.0000 H   0  0  0  0  0  0  0  0  0  0  0  0
    5.1448    5.7376    0.0000 H   0  0  0  0  0  0  0  0  0  0  0  0
    5.4696    4.4650    0.0000 H   0  0  0  0  0  0  0  0  0  0  0  0
    4.0667    5.0350    0.0000 H   0  0  0  0  0  0  0  0  0  0  0  0
    8.2017    3.3450    0.0000 H   0  0  0  0  0  0  0  0  0  0  0  0
   11.0074    5.0473    0.0000 H   0  0  0  0  0  0  0  0  0  0  0  0
   10.6088    5.7376    0.0000 H   0  0  0  0  0  0  0  0  0  0  0  0
   13.1233   -2.5350    0.0000 H   0  0  0  0  0  0  0  0  0  0  0  0
    9.0677    4.4650    0.0000 H   0  0  0  0  0  0  0  0  0  0  0  0
    6.3357    3.3450    0.0000 H   0  0  0  0  0  0  0  0  0  0  0  0
    7.8768    2.0724    0.0000 H   0  0  0  0  0  0  0  0  0  0  0  0
    8.2753    2.7627    0.0000 H   0  0  0  0  0  0  0  0  0  0  0  0
    4.6867    6.6550    0.0000 H   0  0  0  0  0  0  0  0  0  0  0  0
    4.0667    7.2750    0.0000 H   0  0  0  0  0  0  0  0  0  0  0  0
    3.4467    6.6550    0.0000 H   0  0  0  0  0  0  0  0  0  0  0  0
    2.8906    5.6919    0.0000 H   0  0  0  0  0  0  0  0  0  0  0  0
    2.6637    4.8450    0.0000 H   0  0  0  0  0  0  0  0  0  0  0  0
    3.5106    4.6181    0.0000 H   0  0  0  0  0  0  0  0  0  0  0  0
   14.2803   -1.8450    0.0000 H   0  0  0  0  0  0  0  0  0  0  0  0
   13.6603   -1.2250    0.0000 H   0  0  0  0  0  0  0  0  0  0  0  0
   13.0403   -1.8450    0.0000 H   0  0  0  0  0  0  0  0  0  0  0  0
   13.3312   -3.6550    0.0000 H   0  0  0  0  0  0  0  0  0  0  0  0
   10.0677    6.9650    0.0000 H   0  0  0  0  0  0  0  0  0  0  0  0
    8.9938    6.9650    0.0000 H   0  0  0  0  0  0  0  0  0  0  0  0
   10.5297   -3.8200    0.0000 H   0  0  0  0  0  0  0  0  0  0  0  0
   11.3267   -3.8200    0.0000 H   0  0  0  0  0  0  0  0  0  0  0  0
    2.6637    3.8450    0.0000 H   0  0  0  0  0  0  0  0  0  0  0  0
   10.5991   -2.5350    0.0000 H   0  0  0  0  0  0  0  0  0  0  0  0
    7.6592   -2.5350    0.0000 H   0  0  0  0  0  0  0  0  0  0  0  0
    6.2618    0.8450    0.0000 H   0  0  0  0  0  0  0  0  0  0  0  0
    4.9272   -3.6550    0.0000 H   0  0  0  0  0  0  0  0  0  0  0  0
    5.6762   -4.9276    0.0000 H   0  0  0  0  0  0  0  0  0  0  0  0
    6.0747   -4.2373    0.0000 H   0  0  0  0  0  0  0  0  0  0  0  0
    7.8671   -3.6550    0.0000 H   0  0  0  0  0  0  0  0  0  0  0  0
    8.8162   -1.8450    0.0000 H   0  0  0  0  0  0  0  0  0  0  0  0
    8.1962   -1.2250    0.0000 H   0  0  0  0  0  0  0  0  0  0  0  0
    7.5762   -1.8450    0.0000 H   0  0  0  0  0  0  0  0  0  0  0  0
    4.5981   -2.2250    0.0000 H   0  0  0  0  0  0  0  0  0  0  0  0
    5.1350   -3.1550    0.0000 H   0  0  0  0  0  0  0  0  0  0  0  0
    5.1350   -6.1550    0.0000 H   0  0  0  0  0  0  0  0  0  0  0  0
    3.7320   -3.7250    0.0000 H   0  0  0  0  0  0  0  0  0  0  0  0
    3.7320   -6.9650    0.0000 H   0  0  0  0  0  0  0  0  0  0  0  0
    2.3291   -4.5350    0.0000 H   0  0  0  0  0  0  0  0  0  0  0  0
    2.0000   -6.9650    0.0000 H   0  0  0  0  0  0  0  0  0  0  0  0
  1 29  2  0  0  0  0
  2 30  2  0  0  0  0
  3 41  2  0  0  0  0
  4 42  2  0  0  0  0
  5 44  2  0  0  0  0
  6 48  1  0  0  0  0
  6112  1  0  0  0  0
  7 48  2  0  0  0  0
  8 50  2  0  0  0  0
  9 51  1  0  0  0  0
  9115  1  0  0  0  0
 10 51  2  0  0  0  0
 11 52  2  0  0  0  0
 12 55  2  0  0  0  0
 13 58  2  0  0  0  0
 14 65  1  0  0  0  0
 14129  1  0  0  0  0
 25 15  1  1  0  0  0
 15 29  1  0  0  0  0
 15 70  1  0  0  0  0
 27 16  1  6  0  0  0
 16 42  1  0  0  0  0
 16 78  1  0  0  0  0
 17 30  1  0  0  0  0
 33 17  1  6  0  0  0
 17 85  1  0  0  0  0
 39 18  1  1  0  0  0
 18 41  1  0  0  0  0
 18 94  1  0  0  0  0
 37 19  1  6  0  0  0
 19 44  1  0  0  0  0
 19 95  1  0  0  0  0
 43 20  1  1  0  0  0
 20 52  1  0  0  0  0
 20107  1  0  0  0  0
 21 50  1  0  0  0  0
 21108  1  0  0  0  0
 21109  1  0  0  0  0
 22 53  1  0  0  0  0
 22 55  1  0  0  0  0
 22113  1  0  0  0  0
 54 23  1  6  0  0  0
 23 58  1  0  0  0  0
 23119  1  0  0  0  0
 56 24  1  6  0  0  0
 24123  1  0  0  0  0
 24124  1  0  0  0  0
 25 26  1  0  0  0  0
 25 30  1  0  0  0  0
 25 66  1  0  0  0  0
 26 31  1  0  0  0  0
 26 32  1  0  0  0  0
 26 67  1  0  0  0  0
 27 28  1  0  0  0  0
 27 29  1  0  0  0  0
 27 68  1  0  0  0  0
 28 34  1  0  0  0  0
 28 35  1  0  0  0  0
 28 69  1  0  0  0  0
 31 71  1  0  0  0  0
 31 72  1  0  0  0  0
 31 73  1  0  0  0  0
 32 74  1  0  0  0  0
 32 75  1  0  0  0  0
 32 76  1  0  0  0  0
 33 40  1  0  0  0  0
 33 41  1  0  0  0  0
 33 77  1  0  0  0  0
 34 79  1  0  0  0  0
 34 80  1  0  0  0  0
 34 81  1  0  0  0  0
 35 82  1  0  0  0  0
 35 83  1  0  0  0  0
 35 84  1  0  0  0  0
 36 37  1  0  0  0  0
 36 38  1  0  0  0  0
 36 86  1  0  0  0  0
 36 87  1  0  0  0  0
 37 48  1  0  0  0  0
 37 88  1  0  0  0  0
 38 46  1  0  0  0  0
 38 47  1  0  0  0  0
 38 89  1  0  0  0  0
 39 44  1  0  0  0  0
 39 45  1  0  0  0  0
 39 90  1  0  0  0  0
 40 50  1  0  0  0  0
 40 91  1  0  0  0  0
 40 92  1  0  0  0  0
 42 43  1  0  0  0  0
 43 49  1  0  0  0  0
 43 93  1  0  0  0  0
 45 51  1  0  0  0  0
 45 96  1  0  0  0  0
 45 97  1  0  0  0  0
 46 98  1  0  0  0  0
 46 99  1  0  0  0  0
 46100  1  0  0  0  0
 47101  1  0  0  0  0
 47102  1  0  0  0  0
 47103  1  0  0  0  0
 49104  1  0  0  0  0
 49105  1  0  0  0  0
 49106  1  0  0  0  0
 52 53  1  0  0  0  0
 53110  1  0  0  0  0
 53111  1  0  0  0  0
 54 55  1  0  0  0  0
 54 59  1  0  0  0  0
 54114  1  0  0  0  0
 56 57  1  0  0  0  0
 56 58  1  0  0  0  0
 56116  1  0  0  0  0
 57 60  1  0  0  0  0
 57117  1  0  0  0  0
 57118  1  0  0  0  0
 59120  1  0  0  0  0
 59121  1  0  0  0  0
 59122  1  0  0  0  0
 60 61  2  0  0  0  0
 60 62  1  0  0  0  0
 61 63  1  0  0  0  0
 61125  1  0  0  0  0
 62 64  2  0  0  0  0
 62126  1  0  0  0  0
 63 65  2  0  0  0  0
 63127  1  0  0  0  0
 64 65  1  0  0  0  0
 64128  1  0  0  0  0
M  END
> <PUBCHEM_COMPOUND_CID>
515340
> <PUBCHEM_COMPOUND_CANONICALIZED>
1
> <PUBCHEM_CACTVS_COMPLEXITY>
1720
> <PUBCHEM_CACTVS_HBOND_ACCEPTOR>
15
> <PUBCHEM_CACTVS_HBOND_DONOR>
13
> <PUBCHEM_CACTVS_ROTATABLE_BOND>
27
> <PUBCHEM_CACTVS_SUBSKEYS>
AAADcfB//AAAAAAAAAAAAAAAAAAAAAAAAAAwAAAAAAAAAAABAAAAHgAQCAAADSzBmAQyDoLAAgCIAiHSGAACAAAgIAAIiIGOCIgKZjqC0TOUcAAm1hGYmAe/yKCOIAAAAAAAAABAAAAAAAAAAAAAAAAAAA==
> <PUBCHEM_IUPAC_OPENEYE_NAME>
(2S)-2-[[(2S)-2-[[(2S)-4-amino-2-[[(2S)-2-[[(2S)-2-[[(2S)-2-[[2-[[(2R)-2-[[(2S)-2-amino-3-(4-hydroxyphenyl)propanoyl]amino]propanoyl]amino]acetyl]amino]propanoyl]amino]-3-methyl-butanoyl]amino]-3-methyl-butanoyl]amino]-4-oxo-butanoyl]amino]-3-carboxy-propanoyl]amino]-4-methyl-pentanoic acid
> <PUBCHEM_IUPAC_CAS_NAME>
(2S)-2-[[(2S)-2-[[(2S)-4-amino-2-[[(2S)-2-[[(2S)-2-[[(2S)-2-[[2-[[(2R)-2-[[(2S)-2-amino-3-(4-hydroxyphenyl)-1-oxopropyl]amino]-1-oxopropyl]amino]-1-oxoethyl]amino]-1-oxopropyl]amino]-3-methyl-1-oxobutyl]amino]-3-methyl-1-oxobutyl]amino]-1,4-dioxobutyl]amino]-3-carboxy-1-oxopropyl]amino]-4-methylpentanoic acid
> <PUBCHEM_IUPAC_NAME_MARKUP>
(2<I>S</I>)-2-[[(2<I>S</I>)-2-[[(2<I>S</I>)-4-amino-2-[[(2<I>S</I>)-2-[[(2<I>S</I>)-2-[[(2<I>S</I>)-2-[[2-[[(2<I>R</I>)-2-[[(2<I>S</I>)-2-amino-3-(4-hydroxyphenyl)propanoyl]amino]propanoyl]amino]acetyl]amino]propanoyl]amino]-3-methylbutanoyl]amino]-3-methylbutanoyl]amino]-4-oxobutanoyl]amino]-3-carboxypropanoyl]amino]-4-methylpentanoic acid
> <PUBCHEM_IUPAC_NAME>
(2S)-2-[[(2S)-2-[[(2S)-4-amino-2-[[(2S)-2-[[(2S)-2-[[(2S)-2-[[2-[[(2R)-2-[[(2S)-2-amino-3-(4-hydroxyphenyl)propanoyl]amino]propanoyl]amino]acetyl]amino]propanoyl]amino]-3-methylbutanoyl]amino]-3-methylbutanoyl]amino]-4-oxobutanoyl]amino]-3-carboxypropanoyl]amino]-4-methylpentanoic acid
> <PUBCHEM_IUPAC_SYSTEMATIC_NAME>
(2S)-2-[[(2S)-2-[[(2S)-4-azanyl-2-[[(2S)-2-[[(2S)-2-[[(2S)-2-[2-[[(2R)-2-[[(2S)-2-azanyl-3-(4-hydroxyphenyl)propanoyl]amino]propanoyl]amino]ethanoylamino]propanoyl]amino]-3-methyl-butanoyl]amino]-3-methyl-butanoyl]amino]-4-oxidanylidene-butanoyl]amino]-4-oxidanyl-4-oxidanylidene-butanoyl]amino]-4-methyl-pentanoic acid
> <PUBCHEM_IUPAC_TRADITIONAL_NAME>
(2S)-2-[[(2S)-2-[[(2S)-4-amino-2-[[(2S)-2-[[(2S)-2-[[(2S)-2-[[2-[[(2R)-2-[[(2S)-2-amino-3-(4-hydroxyphenyl)propanoyl]amino]propanoyl]amino]acetyl]amino]propanoyl]amino]-3-methyl-butanoyl]amino]-3-methyl-butanoyl]amino]-4-keto-butanoyl]amino]-3-carboxy-propanoyl]amino]-4-methyl-valeric acid
> <PUBCHEM_IUPAC_INCHI>
InChI=1S/C41H64N10O14/c1-18(2)13-28(41(64)65)49-38(61)27(16-31(55)56)47-37(60)26(15-29(43)53)48-39(62)32(19(3)4)51-40(63)33(20(5)6)50-35(58)22(8)45-30(54)17-44-34(57)21(7)46-36(59)25(42)14-23-9-11-24(52)12-10-23/h9-12,18-22,25-28,32-33,52H,13-17,42H2,1-8H3,(H2,43,53)(H,44,57)(H,45,54)(H,46,59)(H,47,60)(H,48,62)(H,49,61)(H,50,58)(H,51,63)(H,55,56)(H,64,65)/t21-,22+,25+,26+,27+,28+,32+,33+/m1/s1
> <PUBCHEM_IUPAC_INCHIKEY>
FXXZRFUMSFDETL-GMGKCLIBSA-N
> <PUBCHEM_XLOGP3_AA>
-3.3
> <PUBCHEM_EXACT_MASS>
920.46034675
> <PUBCHEM_MOLECULAR_FORMULA>
C41H64N10O14
> <PUBCHEM_MOLECULAR_WEIGHT>
921.0
> <PUBCHEM_OPENEYE_CAN_SMILES>
CC(C)CC(C(=O)O)NC(=O)C(CC(=O)O)NC(=O)C(CC(=O)N)NC(=O)C(C(C)C)NC(=O)C(C(C)C)NC(=O)C(C)NC(=O)CNC(=O)C(C)NC(=O)C(CC1=CC=C(C=C1)O)N
> <PUBCHEM_OPENEYE_ISO_SMILES>
C[C@@H](C(=O)N[C@@H](C(C)C)C(=O)N[C@@H](C(C)C)C(=O)N[C@@H](CC(=O)N)C(=O)N[C@@H](CC(=O)O)C(=O)N[C@@H](CC(C)C)C(=O)O)NC(=O)CNC(=O)[C@@H](C)NC(=O)[C@H](CC1=CC=C(C=C1)O)N
> <PUBCHEM_CACTVS_TPSA>
397
> <PUBCHEM_MONOISOTOPIC_WEIGHT>
920.46034675
> <PUBCHEM_TOTAL_CHARGE>
0
> <PUBCHEM_HEAVY_ATOM_COUNT>
65
> <PUBCHEM_ATOM_DEF_STEREO_COUNT>
8
> <PUBCHEM_ATOM_UDEF_STEREO_COUNT>
0
> <PUBCHEM_BOND_DEF_STEREO_COUNT>
0
> <PUBCHEM_BOND_UDEF_STEREO_COUNT>
0
> <PUBCHEM_ISOTOPIC_ATOM_COUNT>
0
> <PUBCHEM_COMPONENT_COUNT>
1
> <PUBCHEM_CACTVS_TAUTO_COUNT>
-1
> <PUBCHEM_COORDINATE_TYPE>
1
5
255
> <PUBCHEM_BONDANNOTATIONS>
25  15  5
27  16  6
33  17  6
39  18  5
37  19  6
43  20  5
54  23  6
56  24  6
60  61  8
60  62  8
61  63  8
62  64  8
63  65  8
64  65  8
$$$$
