515374
  -OEChem-10302200282D
 95 95  0     1  0  0  0  0  0999 V2000
    7.1962    2.4806    0.0000 O   0  0  0  0  0  0  0  0  0  0  0  0
   10.6603    2.4806    0.0000 O   0  0  0  0  0  0  0  0  0  0  0  0
    4.5981   -0.0194    0.0000 O   0  0  0  0  0  0  0  0  0  0  0  0
   10.6603    1.4806    0.0000 O   0  0  0  0  0  0  0  0  0  0  0  0
   11.5263   -2.0194    0.0000 O   0  0  0  0  0  0  0  0  0  0  0  0
   13.2583   -0.0194    0.0000 O   0  0  0  0  0  0  0  0  0  0  0  0
   12.3923   -1.5194    0.0000 O   0  0  0  0  0  0  0  0  0  0  0  0
    9.7942    3.9806    0.0000 N   0  0  0  0  0  0  0  0  0  0  0  0
    5.4641    1.4806    0.0000 N   0  0  0  0  0  0  0  0  0  0  0  0
    8.0622    0.9806    0.0000 N   0  0  0  0  0  0  0  0  0  0  0  0
    9.7942   -0.0194    0.0000 N   0  0  0  0  0  0  0  0  0  0  0  0
    9.7942   -2.0194    0.0000 N   0  0  0  0  0  0  0  0  0  0  0  0
    6.3301   -0.0194    0.0000 C   0  0  0  0  0  0  0  0  0  0  0  0
    6.3301    0.9806    0.0000 C   0  0  1  0  0  0  0  0  0  0  0  0
   10.6032    4.5684    0.0000 C   0  0  0  0  0  0  0  0  0  0  0  0
    8.9852    4.5684    0.0000 C   0  0  0  0  0  0  0  0  0  0  0  0
   10.2942    5.5194    0.0000 C   0  0  0  0  0  0  0  0  0  0  0  0
    9.2942    5.5194    0.0000 C   0  0  0  0  0  0  0  0  0  0  0  0
    8.9282    1.4806    0.0000 C   0  0  1  0  0  0  0  0  0  0  0  0
    6.3301   -1.0194    0.0000 C   0  0  0  0  0  0  0  0  0  0  0  0
    5.3301   -0.0194    0.0000 C   0  0  0  0  0  0  0  0  0  0  0  0
    7.3301   -0.0194    0.0000 C   0  0  0  0  0  0  0  0  0  0  0  0
    7.1962    1.4806    0.0000 C   0  0  0  0  0  0  0  0  0  0  0  0
    8.9282    2.4806    0.0000 C   0  0  0  0  0  0  0  0  0  0  0  0
    9.7942    2.9806    0.0000 C   0  0  0  0  0  0  0  0  0  0  0  0
    3.7320    1.4806    0.0000 C   0  0  0  0  0  0  0  0  0  0  0  0
    8.9282   -4.5194    0.0000 C   0  0  0  0  0  0  0  0  0  0  0  0
    4.5981    0.9806    0.0000 C   0  0  0  0  0  0  0  0  0  0  0  0
    9.7942    0.9806    0.0000 C   0  0  0  0  0  0  0  0  0  0  0  0
    8.9282   -3.5194    0.0000 C   0  0  0  0  0  0  0  0  0  0  0  0
    2.8660    0.9806    0.0000 C   0  0  0  0  0  0  0  0  0  0  0  0
    3.7320    2.4806    0.0000 C   0  0  0  0  0  0  0  0  0  0  0  0
   10.6603   -0.5194    0.0000 C   0  0  2  0  0  0  0  0  0  0  0  0
    9.7942   -3.0194    0.0000 C   0  0  0  0  0  0  0  0  0  0  0  0
    8.9282   -5.5194    0.0000 C   0  0  0  0  0  0  0  0  0  0  0  0
    7.9282   -4.5194    0.0000 C   0  0  0  0  0  0  0  0  0  0  0  0
    9.9282   -4.5194    0.0000 C   0  0  0  0  0  0  0  0  0  0  0  0
   10.6603   -1.5194    0.0000 C   0  0  0  0  0  0  0  0  0  0  0  0
   11.5263   -0.0194    0.0000 C   0  0  0  0  0  0  0  0  0  0  0  0
    2.0000    1.4806    0.0000 C   0  0  0  0  0  0  0  0  0  0  0  0
    2.8660    2.9806    0.0000 C   0  0  0  0  0  0  0  0  0  0  0  0
   12.3923   -0.5194    0.0000 C   0  0  0  0  0  0  0  0  0  0  0  0
    5.7932    0.6706    0.0000 H   0  0  0  0  0  0  0  0  0  0  0  0
   10.9132    4.0314    0.0000 H   0  0  0  0  0  0  0  0  0  0  0  0
   11.1696    4.8205    0.0000 H   0  0  0  0  0  0  0  0  0  0  0  0
    8.4188    4.8205    0.0000 H   0  0  0  0  0  0  0  0  0  0  0  0
    8.6752    4.0314    0.0000 H   0  0  0  0  0  0  0  0  0  0  0  0
   10.9007    5.6483    0.0000 H   0  0  0  0  0  0  0  0  0  0  0  0
   10.2294    6.1360    0.0000 H   0  0  0  0  0  0  0  0  0  0  0  0
    9.3590    6.1360    0.0000 H   0  0  0  0  0  0  0  0  0  0  0  0
    8.6878    5.6483    0.0000 H   0  0  0  0  0  0  0  0  0  0  0  0
    8.9282    0.8606    0.0000 H   0  0  0  0  0  0  0  0  0  0  0  0
    5.7101   -1.0194    0.0000 H   0  0  0  0  0  0  0  0  0  0  0  0
    6.3301   -1.6394    0.0000 H   0  0  0  0  0  0  0  0  0  0  0  0
    6.9501   -1.0194    0.0000 H   0  0  0  0  0  0  0  0  0  0  0  0
    5.3301    0.6006    0.0000 H   0  0  0  0  0  0  0  0  0  0  0  0
    4.7101   -0.0194    0.0000 H   0  0  0  0  0  0  0  0  0  0  0  0
    5.3301   -0.6394    0.0000 H   0  0  0  0  0  0  0  0  0  0  0  0
    7.3301   -0.6394    0.0000 H   0  0  0  0  0  0  0  0  0  0  0  0
    7.9501   -0.0194    0.0000 H   0  0  0  0  0  0  0  0  0  0  0  0
    7.3301    0.6006    0.0000 H   0  0  0  0  0  0  0  0  0  0  0  0
    8.7162    3.0632    0.0000 H   0  0  0  0  0  0  0  0  0  0  0  0
    8.3176    2.3729    0.0000 H   0  0  0  0  0  0  0  0  0  0  0  0
    5.4641    2.1006    0.0000 H   0  0  0  0  0  0  0  0  0  0  0  0
    8.0622    0.3606    0.0000 H   0  0  0  0  0  0  0  0  0  0  0  0
    3.7320    0.8606    0.0000 H   0  0  0  0  0  0  0  0  0  0  0  0
    8.7162   -2.9368    0.0000 H   0  0  0  0  0  0  0  0  0  0  0  0
    8.3176   -3.6271    0.0000 H   0  0  0  0  0  0  0  0  0  0  0  0
    2.4675    0.5056    0.0000 H   0  0  0  0  0  0  0  0  0  0  0  0
    3.2646    0.5056    0.0000 H   0  0  0  0  0  0  0  0  0  0  0  0
    4.3426    2.3729    0.0000 H   0  0  0  0  0  0  0  0  0  0  0  0
    3.9441    3.0632    0.0000 H   0  0  0  0  0  0  0  0  0  0  0  0
   10.6603    0.1006    0.0000 H   0  0  0  0  0  0  0  0  0  0  0  0
   10.0063   -3.6020    0.0000 H   0  0  0  0  0  0  0  0  0  0  0  0
   10.4048   -2.9118    0.0000 H   0  0  0  0  0  0  0  0  0  0  0  0
    9.2573   -0.3294    0.0000 H   0  0  0  0  0  0  0  0  0  0  0  0
    8.3082   -5.5194    0.0000 H   0  0  0  0  0  0  0  0  0  0  0  0
    8.9282   -6.1394    0.0000 H   0  0  0  0  0  0  0  0  0  0  0  0
    9.5482   -5.5194    0.0000 H   0  0  0  0  0  0  0  0  0  0  0  0
    7.9282   -3.8994    0.0000 H   0  0  0  0  0  0  0  0  0  0  0  0
    7.3082   -4.5194    0.0000 H   0  0  0  0  0  0  0  0  0  0  0  0
    7.9282   -5.1394    0.0000 H   0  0  0  0  0  0  0  0  0  0  0  0
    9.9282   -5.1394    0.0000 H   0  0  0  0  0  0  0  0  0  0  0  0
   10.5482   -4.5194    0.0000 H   0  0  0  0  0  0  0  0  0  0  0  0
    9.9282   -3.8994    0.0000 H   0  0  0  0  0  0  0  0  0  0  0  0
    9.2573   -1.7094    0.0000 H   0  0  0  0  0  0  0  0  0  0  0  0
   11.9248    0.4555    0.0000 H   0  0  0  0  0  0  0  0  0  0  0  0
   11.1278    0.4555    0.0000 H   0  0  0  0  0  0  0  0  0  0  0  0
    2.3100    2.0175    0.0000 H   0  0  0  0  0  0  0  0  0  0  0  0
    1.4631    1.7906    0.0000 H   0  0  0  0  0  0  0  0  0  0  0  0
    1.6900    0.9436    0.0000 H   0  0  0  0  0  0  0  0  0  0  0  0
    3.1760    3.5175    0.0000 H   0  0  0  0  0  0  0  0  0  0  0  0
    2.3291    3.2906    0.0000 H   0  0  0  0  0  0  0  0  0  0  0  0
    2.5560    2.4436    0.0000 H   0  0  0  0  0  0  0  0  0  0  0  0
   13.7953   -0.3294    0.0000 H   0  0  0  0  0  0  0  0  0  0  0  0
  1 23  2  0  0  0  0
  2 25  2  0  0  0  0
  3 28  2  0  0  0  0
  4 29  2  0  0  0  0
  5 38  2  0  0  0  0
  6 42  1  0  0  0  0
  6 95  1  0  0  0  0
  7 42  2  0  0  0  0
  8 15  1  0  0  0  0
  8 16  1  0  0  0  0
  8 25  1  0  0  0  0
 14  9  1  6  0  0  0
  9 28  1  0  0  0  0
  9 64  1  0  0  0  0
 19 10  1  1  0  0  0
 10 23  1  0  0  0  0
 10 65  1  0  0  0  0
 11 29  1  0  0  0  0
 33 11  1  1  0  0  0
 11 76  1  0  0  0  0
 12 34  1  0  0  0  0
 12 38  1  0  0  0  0
 12 86  1  0  0  0  0
 13 14  1  0  0  0  0
 13 20  1  0  0  0  0
 13 21  1  0  0  0  0
 13 22  1  0  0  0  0
 14 23  1  0  0  0  0
 14 43  1  0  0  0  0
 15 17  1  0  0  0  0
 15 44  1  0  0  0  0
 15 45  1  0  0  0  0
 16 18  1  0  0  0  0
 16 46  1  0  0  0  0
 16 47  1  0  0  0  0
 17 18  1  0  0  0  0
 17 48  1  0  0  0  0
 17 49  1  0  0  0  0
 18 50  1  0  0  0  0
 18 51  1  0  0  0  0
 19 24  1  0  0  0  0
 19 29  1  0  0  0  0
 19 52  1  0  0  0  0
 20 53  1  0  0  0  0
 20 54  1  0  0  0  0
 20 55  1  0  0  0  0
 21 56  1  0  0  0  0
 21 57  1  0  0  0  0
 21 58  1  0  0  0  0
 22 59  1  0  0  0  0
 22 60  1  0  0  0  0
 22 61  1  0  0  0  0
 24 25  1  0  0  0  0
 24 62  1  0  0  0  0
 24 63  1  0  0  0  0
 26 28  1  0  0  0  0
 26 31  1  0  0  0  0
 26 32  1  0  0  0  0
 26 66  1  0  0  0  0
 27 30  1  0  0  0  0
 27 35  1  0  0  0  0
 27 36  1  0  0  0  0
 27 37  1  0  0  0  0
 30 34  1  0  0  0  0
 30 67  1  0  0  0  0
 30 68  1  0  0  0  0
 31 40  1  0  0  0  0
 31 69  1  0  0  0  0
 31 70  1  0  0  0  0
 32 41  1  0  0  0  0
 32 71  1  0  0  0  0
 32 72  1  0  0  0  0
 33 38  1  0  0  0  0
 33 39  1  0  0  0  0
 33 73  1  0  0  0  0
 34 74  1  0  0  0  0
 34 75  1  0  0  0  0
 35 77  1  0  0  0  0
 35 78  1  0  0  0  0
 35 79  1  0  0  0  0
 36 80  1  0  0  0  0
 36 81  1  0  0  0  0
 36 82  1  0  0  0  0
 37 83  1  0  0  0  0
 37 84  1  0  0  0  0
 37 85  1  0  0  0  0
 39 42  1  0  0  0  0
 39 87  1  0  0  0  0
 39 88  1  0  0  0  0
 40 89  1  0  0  0  0
 40 90  1  0  0  0  0
 40 91  1  0  0  0  0
 41 92  1  0  0  0  0
 41 93  1  0  0  0  0
 41 94  1  0  0  0  0
M  END
> <PUBCHEM_COMPOUND_CID>
515374
> <PUBCHEM_COMPOUND_CANONICALIZED>
1
> <PUBCHEM_CACTVS_COMPLEXITY>
960
> <PUBCHEM_CACTVS_HBOND_ACCEPTOR>
7
> <PUBCHEM_CACTVS_HBOND_DONOR>
5
> <PUBCHEM_CACTVS_ROTATABLE_BOND>
17
> <PUBCHEM_CACTVS_SUBSKEYS>
AAADcfB7uAAAAAAAAAAAAAAAAAAAAWAAAAAAAAAAAAAAAAAAAAAAHgAQCAAADyjBgAQCCAPAAgAIAAGQGAAAAAAAAAAAAIGIAAAAQBoAwCAUQAAGFgCAAAAnAAALAAAAAAAAAAAAAAAAAAAAAAAAAAAAAA==
> <PUBCHEM_IUPAC_OPENEYE_NAME>
(3S)-4-(3,3-dimethylbutylamino)-3-[[(2S)-2-[[(2S)-2-(2-ethylbutanoylamino)-3,3-dimethyl-butanoyl]amino]-4-oxo-4-pyrrolidin-1-yl-butanoyl]amino]-4-oxo-butanoic acid
> <PUBCHEM_IUPAC_CAS_NAME>
(3S)-4-(3,3-dimethylbutylamino)-3-[[(2S)-2-[[(2S)-2-[(2-ethyl-1-oxobutyl)amino]-3,3-dimethyl-1-oxobutyl]amino]-1,4-dioxo-4-(1-pyrrolidinyl)butyl]amino]-4-oxobutanoic acid
> <PUBCHEM_IUPAC_NAME_MARKUP>
(3<I>S</I>)-4-(3,3-dimethylbutylamino)-3-[[(2<I>S</I>)-2-[[(2<I>S</I>)-2-(2-ethylbutanoylamino)-3,3-dimethylbutanoyl]amino]-4-oxo-4-pyrrolidin-1-ylbutanoyl]amino]-4-oxobutanoic acid
> <PUBCHEM_IUPAC_NAME>
(3S)-4-(3,3-dimethylbutylamino)-3-[[(2S)-2-[[(2S)-2-(2-ethylbutanoylamino)-3,3-dimethylbutanoyl]amino]-4-oxo-4-pyrrolidin-1-ylbutanoyl]amino]-4-oxobutanoic acid
> <PUBCHEM_IUPAC_SYSTEMATIC_NAME>
(3S)-4-(3,3-dimethylbutylamino)-3-[[(2S)-2-[[(2S)-2-(2-ethylbutanoylamino)-3,3-dimethyl-butanoyl]amino]-4-oxidanylidene-4-pyrrolidin-1-yl-butanoyl]amino]-4-oxidanylidene-butanoic acid
> <PUBCHEM_IUPAC_TRADITIONAL_NAME>
(3S)-4-(3,3-dimethylbutylamino)-3-[[(2S)-2-[[(2S)-2-(2-ethylbutanoylamino)-3,3-dimethyl-butanoyl]amino]-4-keto-4-pyrrolidino-butanoyl]amino]-4-keto-butyric acid
> <PUBCHEM_IUPAC_INCHI>
InChI=1S/C30H53N5O7/c1-9-19(10-2)25(39)34-24(30(6,7)8)28(42)33-20(17-22(36)35-15-11-12-16-35)27(41)32-21(18-23(37)38)26(40)31-14-13-29(3,4)5/h19-21,24H,9-18H2,1-8H3,(H,31,40)(H,32,41)(H,33,42)(H,34,39)(H,37,38)/t20-,21-,24+/m0/s1
> <PUBCHEM_IUPAC_INCHIKEY>
DJBRZHXMANDAJE-AWRGLXIESA-N
> <PUBCHEM_XLOGP3_AA>
2.7
> <PUBCHEM_EXACT_MASS>
595.39449905
> <PUBCHEM_MOLECULAR_FORMULA>
C30H53N5O7
> <PUBCHEM_MOLECULAR_WEIGHT>
595.8
> <PUBCHEM_OPENEYE_CAN_SMILES>
CCC(CC)C(=O)NC(C(=O)NC(CC(=O)N1CCCC1)C(=O)NC(CC(=O)O)C(=O)NCCC(C)(C)C)C(C)(C)C
> <PUBCHEM_OPENEYE_ISO_SMILES>
CCC(CC)C(=O)N[C@H](C(=O)N[C@@H](CC(=O)N1CCCC1)C(=O)N[C@@H](CC(=O)O)C(=O)NCCC(C)(C)C)C(C)(C)C
> <PUBCHEM_CACTVS_TPSA>
174
> <PUBCHEM_MONOISOTOPIC_WEIGHT>
595.39449905
> <PUBCHEM_TOTAL_CHARGE>
0
> <PUBCHEM_HEAVY_ATOM_COUNT>
42
> <PUBCHEM_ATOM_DEF_STEREO_COUNT>
3
> <PUBCHEM_ATOM_UDEF_STEREO_COUNT>
0
> <PUBCHEM_BOND_DEF_STEREO_COUNT>
0
> <PUBCHEM_BOND_UDEF_STEREO_COUNT>
0
> <PUBCHEM_ISOTOPIC_ATOM_COUNT>
0
> <PUBCHEM_COMPONENT_COUNT>
1
> <PUBCHEM_CACTVS_TAUTO_COUNT>
-1
> <PUBCHEM_COORDINATE_TYPE>
1
5
255
> <PUBCHEM_BONDANNOTATIONS>
19  10  5
33  11  5
14  9  6
$$$$
