515350
  -OEChem-10302200282D
 83 83  0     1  0  0  0  0  0999 V2000
    8.9282    2.2306    0.0000 O   0  0  0  0  0  0  0  0  0  0  0  0
    5.4641    2.2306    0.0000 O   0  0  0  0  0  0  0  0  0  0  0  0
    8.9282    1.2306    0.0000 O   0  0  0  0  0  0  0  0  0  0  0  0
    9.7942   -2.2694    0.0000 O   0  0  0  0  0  0  0  0  0  0  0  0
    7.1962   -4.7694    0.0000 O   0  0  0  0  0  0  0  0  0  0  0  0
    2.8660   -0.2694    0.0000 O   0  0  0  0  0  0  0  0  0  0  0  0
    6.3301   -3.2694    0.0000 O   0  0  0  0  0  0  0  0  0  0  0  0
   11.5263   -0.2694    0.0000 O   0  0  0  0  0  0  0  0  0  0  0  0
   10.6603   -1.7694    0.0000 O   0  0  0  0  0  0  0  0  0  0  0  0
    8.0622    3.7306    0.0000 N   0  0  0  0  0  0  0  0  0  0  0  0
    6.3301    0.7306    0.0000 N   0  0  0  0  0  0  0  0  0  0  0  0
    3.7320    1.2306    0.0000 N   0  0  0  0  0  0  0  0  0  0  0  0
    8.0622   -0.2694    0.0000 N   0  0  0  0  0  0  0  0  0  0  0  0
    8.0622   -2.2694    0.0000 N   0  0  0  0  0  0  0  0  0  0  0  0
    8.8712    4.3184    0.0000 C   0  0  0  0  0  0  0  0  0  0  0  0
    7.2532    4.3184    0.0000 C   0  0  0  0  0  0  0  0  0  0  0  0
    8.5622    5.2694    0.0000 C   0  0  0  0  0  0  0  0  0  0  0  0
    7.5622    5.2694    0.0000 C   0  0  0  0  0  0  0  0  0  0  0  0
    7.1962    1.2306    0.0000 C   0  0  1  0  0  0  0  0  0  0  0  0
    7.1962    2.2306    0.0000 C   0  0  0  0  0  0  0  0  0  0  0  0
    8.0622    2.7306    0.0000 C   0  0  0  0  0  0  0  0  0  0  0  0
    4.5981   -0.2694    0.0000 C   0  0  3  0  0  0  0  0  0  0  0  0
    4.5981    0.7306    0.0000 C   0  0  1  0  0  0  0  0  0  0  0  0
    5.4641    1.2306    0.0000 C   0  0  0  0  0  0  0  0  0  0  0  0
    3.7320   -0.7694    0.0000 C   0  0  0  0  0  0  0  0  0  0  0  0
    8.0622    0.7306    0.0000 C   0  0  0  0  0  0  0  0  0  0  0  0
    5.4641   -0.7694    0.0000 C   0  0  0  0  0  0  0  0  0  0  0  0
    8.9282   -0.7694    0.0000 C   0  0  2  0  0  0  0  0  0  0  0  0
    8.9282   -3.7694    0.0000 C   0  0  0  0  0  0  0  0  0  0  0  0
    8.0622   -3.2694    0.0000 C   0  0  1  0  0  0  0  0  0  0  0  0
    8.9282   -4.7694    0.0000 C   0  0  0  0  0  0  0  0  0  0  0  0
    3.7320   -1.7694    0.0000 C   0  0  0  0  0  0  0  0  0  0  0  0
    8.9282   -1.7694    0.0000 C   0  0  0  0  0  0  0  0  0  0  0  0
    9.7942   -0.2694    0.0000 C   0  0  0  0  0  0  0  0  0  0  0  0
    2.8660    0.7306    0.0000 C   0  0  0  0  0  0  0  0  0  0  0  0
    9.7942   -5.2694    0.0000 C   0  0  0  0  0  0  0  0  0  0  0  0
    8.0622   -5.2694    0.0000 C   0  0  0  0  0  0  0  0  0  0  0  0
    7.1962   -3.7694    0.0000 C   0  0  0  0  0  0  0  0  0  0  0  0
   10.6603   -0.7694    0.0000 C   0  0  0  0  0  0  0  0  0  0  0  0
    2.0000    1.2306    0.0000 C   0  0  0  0  0  0  0  0  0  0  0  0
    9.1812    3.7814    0.0000 H   0  0  0  0  0  0  0  0  0  0  0  0
    9.4376    4.5705    0.0000 H   0  0  0  0  0  0  0  0  0  0  0  0
    6.6868    4.5705    0.0000 H   0  0  0  0  0  0  0  0  0  0  0  0
    6.9432    3.7814    0.0000 H   0  0  0  0  0  0  0  0  0  0  0  0
    9.1686    5.3983    0.0000 H   0  0  0  0  0  0  0  0  0  0  0  0
    8.4974    5.8860    0.0000 H   0  0  0  0  0  0  0  0  0  0  0  0
    7.6270    5.8860    0.0000 H   0  0  0  0  0  0  0  0  0  0  0  0
    6.9557    5.3983    0.0000 H   0  0  0  0  0  0  0  0  0  0  0  0
    6.6592    1.5406    0.0000 H   0  0  0  0  0  0  0  0  0  0  0  0
    6.9841    2.8132    0.0000 H   0  0  0  0  0  0  0  0  0  0  0  0
    6.5856    2.1229    0.0000 H   0  0  0  0  0  0  0  0  0  0  0  0
    4.5981   -0.8894    0.0000 H   0  0  0  0  0  0  0  0  0  0  0  0
    4.5981    1.3506    0.0000 H   0  0  0  0  0  0  0  0  0  0  0  0
    6.3301    0.1106    0.0000 H   0  0  0  0  0  0  0  0  0  0  0  0
    3.5200   -0.1868    0.0000 H   0  0  0  0  0  0  0  0  0  0  0  0
    3.1215   -0.8771    0.0000 H   0  0  0  0  0  0  0  0  0  0  0  0
    5.1541   -1.3064    0.0000 H   0  0  0  0  0  0  0  0  0  0  0  0
    6.0010   -1.0794    0.0000 H   0  0  0  0  0  0  0  0  0  0  0  0
    5.7741   -0.2325    0.0000 H   0  0  0  0  0  0  0  0  0  0  0  0
    8.9282   -0.1494    0.0000 H   0  0  0  0  0  0  0  0  0  0  0  0
    3.7320    1.8506    0.0000 H   0  0  0  0  0  0  0  0  0  0  0  0
    7.5252   -0.5794    0.0000 H   0  0  0  0  0  0  0  0  0  0  0  0
    9.5388   -3.8771    0.0000 H   0  0  0  0  0  0  0  0  0  0  0  0
    9.1403   -3.1868    0.0000 H   0  0  0  0  0  0  0  0  0  0  0  0
    7.5252   -2.9594    0.0000 H   0  0  0  0  0  0  0  0  0  0  0  0
    9.4651   -4.4594    0.0000 H   0  0  0  0  0  0  0  0  0  0  0  0
    3.1120   -1.7694    0.0000 H   0  0  0  0  0  0  0  0  0  0  0  0
    3.7320   -2.3894    0.0000 H   0  0  0  0  0  0  0  0  0  0  0  0
    4.3520   -1.7694    0.0000 H   0  0  0  0  0  0  0  0  0  0  0  0
   10.1928    0.2055    0.0000 H   0  0  0  0  0  0  0  0  0  0  0  0
    9.3957    0.2055    0.0000 H   0  0  0  0  0  0  0  0  0  0  0  0
    7.5252   -1.9594    0.0000 H   0  0  0  0  0  0  0  0  0  0  0  0
    9.4842   -5.8064    0.0000 H   0  0  0  0  0  0  0  0  0  0  0  0
   10.3312   -5.5794    0.0000 H   0  0  0  0  0  0  0  0  0  0  0  0
   10.1042   -4.7325    0.0000 H   0  0  0  0  0  0  0  0  0  0  0  0
    7.7522   -4.7325    0.0000 H   0  0  0  0  0  0  0  0  0  0  0  0
    7.5252   -5.5794    0.0000 H   0  0  0  0  0  0  0  0  0  0  0  0
    8.3722   -5.8064    0.0000 H   0  0  0  0  0  0  0  0  0  0  0  0
    2.3100    1.7675    0.0000 H   0  0  0  0  0  0  0  0  0  0  0  0
    1.4631    1.5406    0.0000 H   0  0  0  0  0  0  0  0  0  0  0  0
    1.6900    0.6936    0.0000 H   0  0  0  0  0  0  0  0  0  0  0  0
    6.6592   -5.0794    0.0000 H   0  0  0  0  0  0  0  0  0  0  0  0
   12.0632   -0.5794    0.0000 H   0  0  0  0  0  0  0  0  0  0  0  0
  1 21  2  0  0  0  0
  2 24  2  0  0  0  0
  3 26  2  0  0  0  0
  4 33  2  0  0  0  0
  5 38  1  0  0  0  0
  5 82  1  0  0  0  0
  6 35  2  0  0  0  0
  7 38  2  0  0  0  0
  8 39  1  0  0  0  0
  8 83  1  0  0  0  0
  9 39  2  0  0  0  0
 10 15  1  0  0  0  0
 10 16  1  0  0  0  0
 10 21  1  0  0  0  0
 19 11  1  1  0  0  0
 11 24  1  0  0  0  0
 11 54  1  0  0  0  0
 23 12  1  6  0  0  0
 12 35  1  0  0  0  0
 12 61  1  0  0  0  0
 13 26  1  0  0  0  0
 28 13  1  1  0  0  0
 13 62  1  0  0  0  0
 30 14  1  1  0  0  0
 14 33  1  0  0  0  0
 14 72  1  0  0  0  0
 15 17  1  0  0  0  0
 15 41  1  0  0  0  0
 15 42  1  0  0  0  0
 16 18  1  0  0  0  0
 16 43  1  0  0  0  0
 16 44  1  0  0  0  0
 17 18  1  0  0  0  0
 17 45  1  0  0  0  0
 17 46  1  0  0  0  0
 18 47  1  0  0  0  0
 18 48  1  0  0  0  0
 19 20  1  0  0  0  0
 19 26  1  0  0  0  0
 19 49  1  0  0  0  0
 20 21  1  0  0  0  0
 20 50  1  0  0  0  0
 20 51  1  0  0  0  0
 22 23  1  0  0  0  0
 22 25  1  0  0  0  0
 22 27  1  0  0  0  0
 22 52  1  0  0  0  0
 23 24  1  0  0  0  0
 23 53  1  0  0  0  0
 25 32  1  0  0  0  0
 25 55  1  0  0  0  0
 25 56  1  0  0  0  0
 27 57  1  0  0  0  0
 27 58  1  0  0  0  0
 27 59  1  0  0  0  0
 28 33  1  0  0  0  0
 28 34  1  0  0  0  0
 28 60  1  0  0  0  0
 29 30  1  0  0  0  0
 29 31  1  0  0  0  0
 29 63  1  0  0  0  0
 29 64  1  0  0  0  0
 30 38  1  0  0  0  0
 30 65  1  0  0  0  0
 31 36  1  0  0  0  0
 31 37  1  0  0  0  0
 31 66  1  0  0  0  0
 32 67  1  0  0  0  0
 32 68  1  0  0  0  0
 32 69  1  0  0  0  0
 34 39  1  0  0  0  0
 34 70  1  0  0  0  0
 34 71  1  0  0  0  0
 35 40  1  0  0  0  0
 36 73  1  0  0  0  0
 36 74  1  0  0  0  0
 36 75  1  0  0  0  0
 37 76  1  0  0  0  0
 37 77  1  0  0  0  0
 37 78  1  0  0  0  0
 40 79  1  0  0  0  0
 40 80  1  0  0  0  0
 40 81  1  0  0  0  0
M  END
> <PUBCHEM_COMPOUND_CID>
515350
> <PUBCHEM_COMPOUND_CANONICALIZED>
1
> <PUBCHEM_CACTVS_COMPLEXITY>
949
> <PUBCHEM_CACTVS_HBOND_ACCEPTOR>
9
> <PUBCHEM_CACTVS_HBOND_DONOR>
6
> <PUBCHEM_CACTVS_ROTATABLE_BOND>
16
> <PUBCHEM_CACTVS_SUBSKEYS>
AAADcfB7vAAAAAAAAAAAAAAAAAAAAWAAAAAAAAAAAAAAAAAAAAAAHgAQCAAADSjBgAQCCAPAAgAIAAGQGAAAAAAAAAAAAIGIAAACQBoAwCAUQAAGFgCQAAC/AAAOAAAAAAAAAAAAAAAAAAAAAAAAAAAAAA==
> <PUBCHEM_IUPAC_OPENEYE_NAME>
(2S)-2-[[(2S)-2-[[(2S)-2-[[(2S)-2-acetamido-3-methyl-pentanoyl]amino]-4-oxo-4-pyrrolidin-1-yl-butanoyl]amino]-3-carboxy-propanoyl]amino]-4-methyl-pentanoic acid
> <PUBCHEM_IUPAC_CAS_NAME>
(2S)-2-[[(2S)-2-[[(2S)-2-[[(2S)-2-acetamido-3-methyl-1-oxopentyl]amino]-1,4-dioxo-4-(1-pyrrolidinyl)butyl]amino]-3-carboxy-1-oxopropyl]amino]-4-methylpentanoic acid
> <PUBCHEM_IUPAC_NAME_MARKUP>
(2<I>S</I>)-2-[[(2<I>S</I>)-2-[[(2<I>S</I>)-2-[[(2<I>S</I>)-2-acetamido-3-methylpentanoyl]amino]-4-oxo-4-pyrrolidin-1-ylbutanoyl]amino]-3-carboxypropanoyl]amino]-4-methylpentanoic acid
> <PUBCHEM_IUPAC_NAME>
(2S)-2-[[(2S)-2-[[(2S)-2-[[(2S)-2-acetamido-3-methylpentanoyl]amino]-4-oxo-4-pyrrolidin-1-ylbutanoyl]amino]-3-carboxypropanoyl]amino]-4-methylpentanoic acid
> <PUBCHEM_IUPAC_SYSTEMATIC_NAME>
(2S)-2-[[(2S)-2-[[(2S)-2-[[(2S)-2-acetamido-3-methyl-pentanoyl]amino]-4-oxidanylidene-4-pyrrolidin-1-yl-butanoyl]amino]-4-oxidanyl-4-oxidanylidene-butanoyl]amino]-4-methyl-pentanoic acid
> <PUBCHEM_IUPAC_TRADITIONAL_NAME>
(2S)-2-[[(2S)-2-[[(2S)-2-[[(2S)-2-acetamido-3-methyl-pentanoyl]amino]-4-keto-4-pyrrolidino-butanoyl]amino]-3-carboxy-propanoyl]amino]-4-methyl-valeric acid
> <PUBCHEM_IUPAC_INCHI>
InChI=1S/C26H43N5O9/c1-6-15(4)22(27-16(5)32)25(38)29-17(12-20(33)31-9-7-8-10-31)23(36)28-18(13-21(34)35)24(37)30-19(26(39)40)11-14(2)3/h14-15,17-19,22H,6-13H2,1-5H3,(H,27,32)(H,28,36)(H,29,38)(H,30,37)(H,34,35)(H,39,40)/t15?,17-,18-,19-,22-/m0/s1
> <PUBCHEM_IUPAC_INCHIKEY>
HVCUDZVWAPBKOG-DEOTYOTPSA-N
> <PUBCHEM_XLOGP3>
-0.1
> <PUBCHEM_EXACT_MASS>
569.30607797
> <PUBCHEM_MOLECULAR_FORMULA>
C26H43N5O9
> <PUBCHEM_MOLECULAR_WEIGHT>
569.6
> <PUBCHEM_OPENEYE_CAN_SMILES>
CCC(C)C(C(=O)NC(CC(=O)N1CCCC1)C(=O)NC(CC(=O)O)C(=O)NC(CC(C)C)C(=O)O)NC(=O)C
> <PUBCHEM_OPENEYE_ISO_SMILES>
CCC(C)[C@@H](C(=O)N[C@@H](CC(=O)N1CCCC1)C(=O)N[C@@H](CC(=O)O)C(=O)N[C@@H](CC(C)C)C(=O)O)NC(=O)C
> <PUBCHEM_CACTVS_TPSA>
211
> <PUBCHEM_MONOISOTOPIC_WEIGHT>
569.30607797
> <PUBCHEM_TOTAL_CHARGE>
0
> <PUBCHEM_HEAVY_ATOM_COUNT>
40
> <PUBCHEM_ATOM_DEF_STEREO_COUNT>
4
> <PUBCHEM_ATOM_UDEF_STEREO_COUNT>
1
> <PUBCHEM_BOND_DEF_STEREO_COUNT>
0
> <PUBCHEM_BOND_UDEF_STEREO_COUNT>
0
> <PUBCHEM_ISOTOPIC_ATOM_COUNT>
0
> <PUBCHEM_COMPONENT_COUNT>
1
> <PUBCHEM_CACTVS_TAUTO_COUNT>
-1
> <PUBCHEM_COORDINATE_TYPE>
1
5
255
> <PUBCHEM_BONDANNOTATIONS>
19  11  5
23  12  6
28  13  5
30  14  5
22  27  3
$$$$
