515368
  -OEChem-10302200282D
 96 96  0     1  0  0  0  0  0999 V2000
    7.1962    2.2306    0.0000 O   0  0  0  0  0  0  0  0  0  0  0  0
   10.6603    2.2306    0.0000 O   0  0  0  0  0  0  0  0  0  0  0  0
    4.5981   -0.2694    0.0000 O   0  0  0  0  0  0  0  0  0  0  0  0
   10.6603    1.2306    0.0000 O   0  0  0  0  0  0  0  0  0  0  0  0
   11.5263   -2.2694    0.0000 O   0  0  0  0  0  0  0  0  0  0  0  0
    8.9282   -4.7694    0.0000 O   0  0  0  0  0  0  0  0  0  0  0  0
    8.0622   -3.2694    0.0000 O   0  0  0  0  0  0  0  0  0  0  0  0
   12.3923   -1.7694    0.0000 O   0  0  0  0  0  0  0  0  0  0  0  0
    9.7942    3.7306    0.0000 N   0  0  0  0  0  0  0  0  0  0  0  0
    5.4641    1.2306    0.0000 N   0  0  0  0  0  0  0  0  0  0  0  0
    8.0622    0.7306    0.0000 N   0  0  0  0  0  0  0  0  0  0  0  0
    9.7942   -0.2694    0.0000 N   0  0  0  0  0  0  0  0  0  0  0  0
    9.7942   -2.2694    0.0000 N   0  0  0  0  0  0  0  0  0  0  0  0
   13.2583   -0.2694    0.0000 N   0  0  0  0  0  0  0  0  0  0  0  0
    6.3301   -0.2694    0.0000 C   0  0  0  0  0  0  0  0  0  0  0  0
    6.3301    0.7306    0.0000 C   0  0  1  0  0  0  0  0  0  0  0  0
   10.6032    4.3184    0.0000 C   0  0  0  0  0  0  0  0  0  0  0  0
    8.9852    4.3184    0.0000 C   0  0  0  0  0  0  0  0  0  0  0  0
   10.2942    5.2694    0.0000 C   0  0  0  0  0  0  0  0  0  0  0  0
    9.2942    5.2694    0.0000 C   0  0  0  0  0  0  0  0  0  0  0  0
    8.9282    1.2306    0.0000 C   0  0  1  0  0  0  0  0  0  0  0  0
    6.3301   -1.2694    0.0000 C   0  0  0  0  0  0  0  0  0  0  0  0
    5.3301   -0.2694    0.0000 C   0  0  0  0  0  0  0  0  0  0  0  0
    7.3301   -0.2694    0.0000 C   0  0  0  0  0  0  0  0  0  0  0  0
    7.1962    1.2306    0.0000 C   0  0  0  0  0  0  0  0  0  0  0  0
    8.9282    2.2306    0.0000 C   0  0  0  0  0  0  0  0  0  0  0  0
    9.7942    2.7306    0.0000 C   0  0  0  0  0  0  0  0  0  0  0  0
    3.7320    1.2306    0.0000 C   0  0  0  0  0  0  0  0  0  0  0  0
    4.5981    0.7306    0.0000 C   0  0  0  0  0  0  0  0  0  0  0  0
    9.7942    0.7306    0.0000 C   0  0  0  0  0  0  0  0  0  0  0  0
    2.8660    0.7306    0.0000 C   0  0  0  0  0  0  0  0  0  0  0  0
    3.7320    2.2306    0.0000 C   0  0  0  0  0  0  0  0  0  0  0  0
   10.6603   -0.7694    0.0000 C   0  0  1  0  0  0  0  0  0  0  0  0
    9.7942   -3.2694    0.0000 C   0  0  1  0  0  0  0  0  0  0  0  0
   10.6603   -3.7694    0.0000 C   0  0  0  0  0  0  0  0  0  0  0  0
    2.0000    1.2306    0.0000 C   0  0  0  0  0  0  0  0  0  0  0  0
    2.8660    2.7306    0.0000 C   0  0  0  0  0  0  0  0  0  0  0  0
   11.5263   -0.2694    0.0000 C   0  0  0  0  0  0  0  0  0  0  0  0
   10.6603   -1.7694    0.0000 C   0  0  0  0  0  0  0  0  0  0  0  0
   10.6603   -4.7694    0.0000 C   0  0  0  0  0  0  0  0  0  0  0  0
   11.5263   -5.2694    0.0000 C   0  0  0  0  0  0  0  0  0  0  0  0
    9.7942   -5.2694    0.0000 C   0  0  0  0  0  0  0  0  0  0  0  0
    8.9282   -3.7694    0.0000 C   0  0  0  0  0  0  0  0  0  0  0  0
   12.3923   -0.7694    0.0000 C   0  0  0  0  0  0  0  0  0  0  0  0
    5.7932    0.4206    0.0000 H   0  0  0  0  0  0  0  0  0  0  0  0
   10.9132    3.7814    0.0000 H   0  0  0  0  0  0  0  0  0  0  0  0
   11.1696    4.5705    0.0000 H   0  0  0  0  0  0  0  0  0  0  0  0
    8.4188    4.5705    0.0000 H   0  0  0  0  0  0  0  0  0  0  0  0
    8.6752    3.7814    0.0000 H   0  0  0  0  0  0  0  0  0  0  0  0
   10.9007    5.3983    0.0000 H   0  0  0  0  0  0  0  0  0  0  0  0
   10.2294    5.8860    0.0000 H   0  0  0  0  0  0  0  0  0  0  0  0
    9.3590    5.8860    0.0000 H   0  0  0  0  0  0  0  0  0  0  0  0
    8.6878    5.3983    0.0000 H   0  0  0  0  0  0  0  0  0  0  0  0
    8.9282    0.6106    0.0000 H   0  0  0  0  0  0  0  0  0  0  0  0
    5.7101   -1.2694    0.0000 H   0  0  0  0  0  0  0  0  0  0  0  0
    6.3301   -1.8894    0.0000 H   0  0  0  0  0  0  0  0  0  0  0  0
    6.9501   -1.2694    0.0000 H   0  0  0  0  0  0  0  0  0  0  0  0
    5.3301    0.3506    0.0000 H   0  0  0  0  0  0  0  0  0  0  0  0
    4.7101   -0.2694    0.0000 H   0  0  0  0  0  0  0  0  0  0  0  0
    5.3301   -0.8894    0.0000 H   0  0  0  0  0  0  0  0  0  0  0  0
    7.3301   -0.8894    0.0000 H   0  0  0  0  0  0  0  0  0  0  0  0
    7.9501   -0.2694    0.0000 H   0  0  0  0  0  0  0  0  0  0  0  0
    7.3301    0.3506    0.0000 H   0  0  0  0  0  0  0  0  0  0  0  0
    8.7162    2.8132    0.0000 H   0  0  0  0  0  0  0  0  0  0  0  0
    8.3176    2.1229    0.0000 H   0  0  0  0  0  0  0  0  0  0  0  0
    5.4641    1.8506    0.0000 H   0  0  0  0  0  0  0  0  0  0  0  0
    8.0622    0.1106    0.0000 H   0  0  0  0  0  0  0  0  0  0  0  0
    3.7320    0.6106    0.0000 H   0  0  0  0  0  0  0  0  0  0  0  0
    2.4675    0.2556    0.0000 H   0  0  0  0  0  0  0  0  0  0  0  0
    3.2646    0.2556    0.0000 H   0  0  0  0  0  0  0  0  0  0  0  0
    4.3426    2.1229    0.0000 H   0  0  0  0  0  0  0  0  0  0  0  0
    3.9441    2.8132    0.0000 H   0  0  0  0  0  0  0  0  0  0  0  0
   10.6603   -0.1494    0.0000 H   0  0  0  0  0  0  0  0  0  0  0  0
    9.2573   -0.5794    0.0000 H   0  0  0  0  0  0  0  0  0  0  0  0
    9.2573   -2.9594    0.0000 H   0  0  0  0  0  0  0  0  0  0  0  0
   11.2708   -3.8771    0.0000 H   0  0  0  0  0  0  0  0  0  0  0  0
   10.8723   -3.1868    0.0000 H   0  0  0  0  0  0  0  0  0  0  0  0
    2.3100    1.7675    0.0000 H   0  0  0  0  0  0  0  0  0  0  0  0
    1.4631    1.5406    0.0000 H   0  0  0  0  0  0  0  0  0  0  0  0
    1.6900    0.6936    0.0000 H   0  0  0  0  0  0  0  0  0  0  0  0
    3.1760    3.2675    0.0000 H   0  0  0  0  0  0  0  0  0  0  0  0
    2.3291    3.0406    0.0000 H   0  0  0  0  0  0  0  0  0  0  0  0
    2.5560    2.1936    0.0000 H   0  0  0  0  0  0  0  0  0  0  0  0
   11.9248    0.2055    0.0000 H   0  0  0  0  0  0  0  0  0  0  0  0
   11.1278    0.2055    0.0000 H   0  0  0  0  0  0  0  0  0  0  0  0
   11.1972   -4.4594    0.0000 H   0  0  0  0  0  0  0  0  0  0  0  0
    9.2573   -1.9594    0.0000 H   0  0  0  0  0  0  0  0  0  0  0  0
   11.2163   -5.8064    0.0000 H   0  0  0  0  0  0  0  0  0  0  0  0
   12.0632   -5.5794    0.0000 H   0  0  0  0  0  0  0  0  0  0  0  0
   11.8363   -4.7325    0.0000 H   0  0  0  0  0  0  0  0  0  0  0  0
    9.4842   -4.7325    0.0000 H   0  0  0  0  0  0  0  0  0  0  0  0
    9.2573   -5.5794    0.0000 H   0  0  0  0  0  0  0  0  0  0  0  0
   10.1042   -5.8064    0.0000 H   0  0  0  0  0  0  0  0  0  0  0  0
   13.7953   -0.5794    0.0000 H   0  0  0  0  0  0  0  0  0  0  0  0
   13.2583    0.3506    0.0000 H   0  0  0  0  0  0  0  0  0  0  0  0
    8.3913   -5.0794    0.0000 H   0  0  0  0  0  0  0  0  0  0  0  0
  1 25  2  0  0  0  0
  2 27  2  0  0  0  0
  3 29  2  0  0  0  0
  4 30  2  0  0  0  0
  5 39  2  0  0  0  0
  6 43  1  0  0  0  0
  6 96  1  0  0  0  0
  7 43  2  0  0  0  0
  8 44  2  0  0  0  0
  9 17  1  0  0  0  0
  9 18  1  0  0  0  0
  9 27  1  0  0  0  0
 16 10  1  6  0  0  0
 10 29  1  0  0  0  0
 10 66  1  0  0  0  0
 21 11  1  1  0  0  0
 11 25  1  0  0  0  0
 11 67  1  0  0  0  0
 12 30  1  0  0  0  0
 33 12  1  1  0  0  0
 12 74  1  0  0  0  0
 34 13  1  1  0  0  0
 13 39  1  0  0  0  0
 13 87  1  0  0  0  0
 14 44  1  0  0  0  0
 14 94  1  0  0  0  0
 14 95  1  0  0  0  0
 15 16  1  0  0  0  0
 15 22  1  0  0  0  0
 15 23  1  0  0  0  0
 15 24  1  0  0  0  0
 16 25  1  0  0  0  0
 16 45  1  0  0  0  0
 17 19  1  0  0  0  0
 17 46  1  0  0  0  0
 17 47  1  0  0  0  0
 18 20  1  0  0  0  0
 18 48  1  0  0  0  0
 18 49  1  0  0  0  0
 19 20  1  0  0  0  0
 19 50  1  0  0  0  0
 19 51  1  0  0  0  0
 20 52  1  0  0  0  0
 20 53  1  0  0  0  0
 21 26  1  0  0  0  0
 21 30  1  0  0  0  0
 21 54  1  0  0  0  0
 22 55  1  0  0  0  0
 22 56  1  0  0  0  0
 22 57  1  0  0  0  0
 23 58  1  0  0  0  0
 23 59  1  0  0  0  0
 23 60  1  0  0  0  0
 24 61  1  0  0  0  0
 24 62  1  0  0  0  0
 24 63  1  0  0  0  0
 26 27  1  0  0  0  0
 26 64  1  0  0  0  0
 26 65  1  0  0  0  0
 28 29  1  0  0  0  0
 28 31  1  0  0  0  0
 28 32  1  0  0  0  0
 28 68  1  0  0  0  0
 31 36  1  0  0  0  0
 31 69  1  0  0  0  0
 31 70  1  0  0  0  0
 32 37  1  0  0  0  0
 32 71  1  0  0  0  0
 32 72  1  0  0  0  0
 33 38  1  0  0  0  0
 33 39  1  0  0  0  0
 33 73  1  0  0  0  0
 34 35  1  0  0  0  0
 34 43  1  0  0  0  0
 34 75  1  0  0  0  0
 35 40  1  0  0  0  0
 35 76  1  0  0  0  0
 35 77  1  0  0  0  0
 36 78  1  0  0  0  0
 36 79  1  0  0  0  0
 36 80  1  0  0  0  0
 37 81  1  0  0  0  0
 37 82  1  0  0  0  0
 37 83  1  0  0  0  0
 38 44  1  0  0  0  0
 38 84  1  0  0  0  0
 38 85  1  0  0  0  0
 40 41  1  0  0  0  0
 40 42  1  0  0  0  0
 40 86  1  0  0  0  0
 41 88  1  0  0  0  0
 41 89  1  0  0  0  0
 41 90  1  0  0  0  0
 42 91  1  0  0  0  0
 42 92  1  0  0  0  0
 42 93  1  0  0  0  0
M  END
> <PUBCHEM_COMPOUND_CID>
515368
> <PUBCHEM_COMPOUND_CANONICALIZED>
1
> <PUBCHEM_CACTVS_COMPLEXITY>
1050
> <PUBCHEM_CACTVS_HBOND_ACCEPTOR>
8
> <PUBCHEM_CACTVS_HBOND_DONOR>
6
> <PUBCHEM_CACTVS_ROTATABLE_BOND>
18
> <PUBCHEM_CACTVS_SUBSKEYS>
AAADcfB7vAAAAAAAAAAAAAAAAAAAAWAAAAAAAAAAAAAAAAAAAAAAHgAQCAAADyjBgAQCCAPAAgAIAAGQGAAAAAAAAAAAAIGIAAACQBoAwCAUQAAEFgCQAACNAAAPAAAAAAAAAAAAAAAAAAAAAAAAAAAAAA==
> <PUBCHEM_IUPAC_OPENEYE_NAME>
(2S)-2-[[(2S)-4-amino-2-[[(2S)-2-[[(2S)-2-(2-ethylbutanoylamino)-3,3-dimethyl-butanoyl]amino]-4-oxo-4-pyrrolidin-1-yl-butanoyl]amino]-4-oxo-butanoyl]amino]-4-methyl-pentanoic acid
> <PUBCHEM_IUPAC_CAS_NAME>
(2S)-2-[[(2S)-4-amino-2-[[(2S)-2-[[(2S)-2-[(2-ethyl-1-oxobutyl)amino]-3,3-dimethyl-1-oxobutyl]amino]-1,4-dioxo-4-(1-pyrrolidinyl)butyl]amino]-1,4-dioxobutyl]amino]-4-methylpentanoic acid
> <PUBCHEM_IUPAC_NAME_MARKUP>
(2<I>S</I>)-2-[[(2<I>S</I>)-4-amino-2-[[(2<I>S</I>)-2-[[(2<I>S</I>)-2-(2-ethylbutanoylamino)-3,3-dimethylbutanoyl]amino]-4-oxo-4-pyrrolidin-1-ylbutanoyl]amino]-4-oxobutanoyl]amino]-4-methylpentanoic acid
> <PUBCHEM_IUPAC_NAME>
(2S)-2-[[(2S)-4-amino-2-[[(2S)-2-[[(2S)-2-(2-ethylbutanoylamino)-3,3-dimethylbutanoyl]amino]-4-oxo-4-pyrrolidin-1-ylbutanoyl]amino]-4-oxobutanoyl]amino]-4-methylpentanoic acid
> <PUBCHEM_IUPAC_SYSTEMATIC_NAME>
(2S)-2-[[(2S)-4-azanyl-2-[[(2S)-2-[[(2S)-2-(2-ethylbutanoylamino)-3,3-dimethyl-butanoyl]amino]-4-oxidanylidene-4-pyrrolidin-1-yl-butanoyl]amino]-4-oxidanylidene-butanoyl]amino]-4-methyl-pentanoic acid
> <PUBCHEM_IUPAC_TRADITIONAL_NAME>
(2S)-2-[[(2S)-4-amino-2-[[(2S)-2-[[(2S)-2-(2-ethylbutanoylamino)-3,3-dimethyl-butanoyl]amino]-4-keto-4-pyrrolidino-butanoyl]amino]-4-keto-butanoyl]amino]-4-methyl-valeric acid
> <PUBCHEM_IUPAC_INCHI>
InChI=1S/C30H52N6O8/c1-8-18(9-2)25(39)35-24(30(5,6)7)28(42)33-20(16-23(38)36-12-10-11-13-36)27(41)32-19(15-22(31)37)26(40)34-21(29(43)44)14-17(3)4/h17-21,24H,8-16H2,1-7H3,(H2,31,37)(H,32,41)(H,33,42)(H,34,40)(H,35,39)(H,43,44)/t19-,20-,21-,24+/m0/s1
> <PUBCHEM_IUPAC_INCHIKEY>
NBIHQFCIHPSDAT-IBPRQYQWSA-N
> <PUBCHEM_XLOGP3_AA>
1.2
> <PUBCHEM_EXACT_MASS>
624.38466264
> <PUBCHEM_MOLECULAR_FORMULA>
C30H52N6O8
> <PUBCHEM_MOLECULAR_WEIGHT>
624.8
> <PUBCHEM_OPENEYE_CAN_SMILES>
CCC(CC)C(=O)NC(C(=O)NC(CC(=O)N1CCCC1)C(=O)NC(CC(=O)N)C(=O)NC(CC(C)C)C(=O)O)C(C)(C)C
> <PUBCHEM_OPENEYE_ISO_SMILES>
CCC(CC)C(=O)N[C@H](C(=O)N[C@@H](CC(=O)N1CCCC1)C(=O)N[C@@H](CC(=O)N)C(=O)N[C@@H](CC(C)C)C(=O)O)C(C)(C)C
> <PUBCHEM_CACTVS_TPSA>
217
> <PUBCHEM_MONOISOTOPIC_WEIGHT>
624.38466264
> <PUBCHEM_TOTAL_CHARGE>
0
> <PUBCHEM_HEAVY_ATOM_COUNT>
44
> <PUBCHEM_ATOM_DEF_STEREO_COUNT>
4
> <PUBCHEM_ATOM_UDEF_STEREO_COUNT>
0
> <PUBCHEM_BOND_DEF_STEREO_COUNT>
0
> <PUBCHEM_BOND_UDEF_STEREO_COUNT>
0
> <PUBCHEM_ISOTOPIC_ATOM_COUNT>
0
> <PUBCHEM_COMPONENT_COUNT>
1
> <PUBCHEM_CACTVS_TAUTO_COUNT>
-1
> <PUBCHEM_COORDINATE_TYPE>
1
5
255
> <PUBCHEM_BONDANNOTATIONS>
16  10  6
21  11  5
33  12  5
34  13  5
$$$$
