515361
  -OEChem-10302200282D
 96 96  0     1  0  0  0  0  0999 V2000
    5.1350   -2.2306    0.0000 O   0  0  0  0  0  0  0  0  0  0  0  0
    8.5991   -2.2306    0.0000 O   0  0  0  0  0  0  0  0  0  0  0  0
    5.1350   -1.2306    0.0000 O   0  0  0  0  0  0  0  0  0  0  0  0
   11.1972    0.2694    0.0000 O   0  0  0  0  0  0  0  0  0  0  0  0
    4.2690    2.2694    0.0000 O   0  0  0  0  0  0  0  0  0  0  0  0
    2.5369    0.2694    0.0000 O   0  0  0  0  0  0  0  0  0  0  0  0
    6.8671    4.7694    0.0000 O   0  0  0  0  0  0  0  0  0  0  0  0
    3.4030    1.7694    0.0000 O   0  0  0  0  0  0  0  0  0  0  0  0
    7.7331    3.2694    0.0000 O   0  0  0  0  0  0  0  0  0  0  0  0
    7.7331   -0.7306    0.0000 N   0  0  0  0  0  0  0  0  0  0  0  0
   10.3312   -1.2306    0.0000 N   0  0  0  0  0  0  0  0  0  0  0  0
    6.0010    0.2694    0.0000 N   0  0  0  0  0  0  0  0  0  0  0  0
    6.0010    2.2694    0.0000 N   0  0  0  0  0  0  0  0  0  0  0  0
    6.0010   -3.7306    0.0000 C   0  0  0  0  0  0  0  0  0  0  0  0
    5.1920   -4.3184    0.0000 C   0  0  0  0  0  0  0  0  0  0  0  0
    6.8100   -4.3184    0.0000 C   0  0  0  0  0  0  0  0  0  0  0  0
    5.5010   -5.2694    0.0000 C   0  0  0  0  0  0  0  0  0  0  0  0
    6.5010   -5.2694    0.0000 C   0  0  0  0  0  0  0  0  0  0  0  0
    6.0010   -2.7306    0.0000 C   0  0  0  0  0  0  0  0  0  0  0  0
    6.8671   -2.2306    0.0000 C   0  0  0  0  0  0  0  0  0  0  0  0
    6.8671   -1.2306    0.0000 C   0  0  1  0  0  0  0  0  0  0  0  0
    9.4651    0.2694    0.0000 C   0  0  0  0  0  0  0  0  0  0  0  0
    9.4651   -0.7306    0.0000 C   0  0  1  0  0  0  0  0  0  0  0  0
    8.5991   -1.2306    0.0000 C   0  0  0  0  0  0  0  0  0  0  0  0
    9.4651    1.2694    0.0000 C   0  0  0  0  0  0  0  0  0  0  0  0
   10.4651    0.2694    0.0000 C   0  0  0  0  0  0  0  0  0  0  0  0
    8.4651    0.2694    0.0000 C   0  0  0  0  0  0  0  0  0  0  0  0
    6.0010   -0.7306    0.0000 C   0  0  0  0  0  0  0  0  0  0  0  0
   12.0632   -1.2306    0.0000 C   0  0  0  0  0  0  0  0  0  0  0  0
   11.1972   -0.7306    0.0000 C   0  0  0  0  0  0  0  0  0  0  0  0
    5.1350    0.7694    0.0000 C   0  0  1  0  0  0  0  0  0  0  0  0
   12.9292   -0.7306    0.0000 C   0  0  0  0  0  0  0  0  0  0  0  0
   12.0632   -2.2306    0.0000 C   0  0  0  0  0  0  0  0  0  0  0  0
    4.2690    0.2694    0.0000 C   0  0  0  0  0  0  0  0  0  0  0  0
    5.1350    1.7694    0.0000 C   0  0  0  0  0  0  0  0  0  0  0  0
    6.0010    3.2694    0.0000 C   0  0  1  0  0  0  0  0  0  0  0  0
    5.1350    3.7694    0.0000 C   0  0  0  0  0  0  0  0  0  0  0  0
   13.7953   -1.2306    0.0000 C   0  0  0  0  0  0  0  0  0  0  0  0
   12.9292   -2.7306    0.0000 C   0  0  0  0  0  0  0  0  0  0  0  0
    5.1350    4.7694    0.0000 C   0  0  0  0  0  0  0  0  0  0  0  0
    3.4030    0.7694    0.0000 C   0  0  0  0  0  0  0  0  0  0  0  0
    4.2690    5.2694    0.0000 C   0  0  0  0  0  0  0  0  0  0  0  0
    6.0010    5.2694    0.0000 C   0  0  0  0  0  0  0  0  0  0  0  0
    6.8671    3.7694    0.0000 C   0  0  0  0  0  0  0  0  0  0  0  0
    6.5535   -3.4491    0.0000 H   0  0  0  0  0  0  0  0  0  0  0  0
    4.8820   -3.7814    0.0000 H   0  0  0  0  0  0  0  0  0  0  0  0
    4.6256   -4.5705    0.0000 H   0  0  0  0  0  0  0  0  0  0  0  0
    7.3764   -4.5705    0.0000 H   0  0  0  0  0  0  0  0  0  0  0  0
    7.1200   -3.7814    0.0000 H   0  0  0  0  0  0  0  0  0  0  0  0
    4.8946   -5.3983    0.0000 H   0  0  0  0  0  0  0  0  0  0  0  0
    5.5658   -5.8860    0.0000 H   0  0  0  0  0  0  0  0  0  0  0  0
    6.4362   -5.8860    0.0000 H   0  0  0  0  0  0  0  0  0  0  0  0
    7.1075   -5.3983    0.0000 H   0  0  0  0  0  0  0  0  0  0  0  0
    7.0791   -2.8132    0.0000 H   0  0  0  0  0  0  0  0  0  0  0  0
    7.4776   -2.1229    0.0000 H   0  0  0  0  0  0  0  0  0  0  0  0
    7.4040   -1.5406    0.0000 H   0  0  0  0  0  0  0  0  0  0  0  0
   10.0021   -0.4206    0.0000 H   0  0  0  0  0  0  0  0  0  0  0  0
    7.7331   -0.1106    0.0000 H   0  0  0  0  0  0  0  0  0  0  0  0
   10.0851    1.2694    0.0000 H   0  0  0  0  0  0  0  0  0  0  0  0
    9.4651    1.8894    0.0000 H   0  0  0  0  0  0  0  0  0  0  0  0
    8.8451    1.2694    0.0000 H   0  0  0  0  0  0  0  0  0  0  0  0
   10.4651   -0.3506    0.0000 H   0  0  0  0  0  0  0  0  0  0  0  0
   11.0851    0.2694    0.0000 H   0  0  0  0  0  0  0  0  0  0  0  0
   10.4651    0.8894    0.0000 H   0  0  0  0  0  0  0  0  0  0  0  0
    8.4651    0.8894    0.0000 H   0  0  0  0  0  0  0  0  0  0  0  0
    7.8451    0.2694    0.0000 H   0  0  0  0  0  0  0  0  0  0  0  0
    8.4651   -0.3506    0.0000 H   0  0  0  0  0  0  0  0  0  0  0  0
   10.3312   -1.8506    0.0000 H   0  0  0  0  0  0  0  0  0  0  0  0
   12.6002   -1.5406    0.0000 H   0  0  0  0  0  0  0  0  0  0  0  0
    6.5380    0.5794    0.0000 H   0  0  0  0  0  0  0  0  0  0  0  0
    5.1350    0.1494    0.0000 H   0  0  0  0  0  0  0  0  0  0  0  0
   13.3278   -0.2556    0.0000 H   0  0  0  0  0  0  0  0  0  0  0  0
   12.5307   -0.2556    0.0000 H   0  0  0  0  0  0  0  0  0  0  0  0
   11.4526   -2.1229    0.0000 H   0  0  0  0  0  0  0  0  0  0  0  0
   11.8512   -2.8132    0.0000 H   0  0  0  0  0  0  0  0  0  0  0  0
    3.8705   -0.2055    0.0000 H   0  0  0  0  0  0  0  0  0  0  0  0
    4.6675   -0.2055    0.0000 H   0  0  0  0  0  0  0  0  0  0  0  0
    6.5380    2.9594    0.0000 H   0  0  0  0  0  0  0  0  0  0  0  0
    4.5244    3.8771    0.0000 H   0  0  0  0  0  0  0  0  0  0  0  0
    4.9230    3.1868    0.0000 H   0  0  0  0  0  0  0  0  0  0  0  0
   13.4853   -1.7675    0.0000 H   0  0  0  0  0  0  0  0  0  0  0  0
   14.3322   -1.5406    0.0000 H   0  0  0  0  0  0  0  0  0  0  0  0
   14.1053   -0.6936    0.0000 H   0  0  0  0  0  0  0  0  0  0  0  0
   12.6192   -3.2675    0.0000 H   0  0  0  0  0  0  0  0  0  0  0  0
   13.4662   -3.0406    0.0000 H   0  0  0  0  0  0  0  0  0  0  0  0
   13.2392   -2.1936    0.0000 H   0  0  0  0  0  0  0  0  0  0  0  0
    6.5380    1.9594    0.0000 H   0  0  0  0  0  0  0  0  0  0  0  0
    5.1350    5.3894    0.0000 H   0  0  0  0  0  0  0  0  0  0  0  0
    4.5790    5.8064    0.0000 H   0  0  0  0  0  0  0  0  0  0  0  0
    3.7320    5.5794    0.0000 H   0  0  0  0  0  0  0  0  0  0  0  0
    3.9590    4.7325    0.0000 H   0  0  0  0  0  0  0  0  0  0  0  0
    6.3110    4.7325    0.0000 H   0  0  0  0  0  0  0  0  0  0  0  0
    6.5380    5.5794    0.0000 H   0  0  0  0  0  0  0  0  0  0  0  0
    5.6910    5.8064    0.0000 H   0  0  0  0  0  0  0  0  0  0  0  0
    2.0000    0.5794    0.0000 H   0  0  0  0  0  0  0  0  0  0  0  0
    7.4040    5.0794    0.0000 H   0  0  0  0  0  0  0  0  0  0  0  0
  1 19  2  0  0  0  0
  2 24  2  0  0  0  0
  3 28  2  0  0  0  0
  4 30  2  0  0  0  0
  5 35  2  0  0  0  0
  6 41  1  0  0  0  0
  6 95  1  0  0  0  0
  7 44  1  0  0  0  0
  7 96  1  0  0  0  0
  8 41  2  0  0  0  0
  9 44  2  0  0  0  0
 21 10  1  1  0  0  0
 10 24  1  0  0  0  0
 10 58  1  0  0  0  0
 23 11  1  6  0  0  0
 11 30  1  0  0  0  0
 11 68  1  0  0  0  0
 12 28  1  0  0  0  0
 31 12  1  1  0  0  0
 12 70  1  0  0  0  0
 13 35  1  0  0  0  0
 36 13  1  1  0  0  0
 13 87  1  0  0  0  0
 14 15  1  0  0  0  0
 14 16  1  0  0  0  0
 14 19  1  0  0  0  0
 14 45  1  0  0  0  0
 15 17  1  0  0  0  0
 15 46  1  0  0  0  0
 15 47  1  0  0  0  0
 16 18  1  0  0  0  0
 16 48  1  0  0  0  0
 16 49  1  0  0  0  0
 17 18  1  0  0  0  0
 17 50  1  0  0  0  0
 17 51  1  0  0  0  0
 18 52  1  0  0  0  0
 18 53  1  0  0  0  0
 19 20  1  0  0  0  0
 20 21  1  0  0  0  0
 20 54  1  0  0  0  0
 20 55  1  0  0  0  0
 21 28  1  0  0  0  0
 21 56  1  0  0  0  0
 22 23  1  0  0  0  0
 22 25  1  0  0  0  0
 22 26  1  0  0  0  0
 22 27  1  0  0  0  0
 23 24  1  0  0  0  0
 23 57  1  0  0  0  0
 25 59  1  0  0  0  0
 25 60  1  0  0  0  0
 25 61  1  0  0  0  0
 26 62  1  0  0  0  0
 26 63  1  0  0  0  0
 26 64  1  0  0  0  0
 27 65  1  0  0  0  0
 27 66  1  0  0  0  0
 27 67  1  0  0  0  0
 29 30  1  0  0  0  0
 29 32  1  0  0  0  0
 29 33  1  0  0  0  0
 29 69  1  0  0  0  0
 31 34  1  0  0  0  0
 31 35  1  0  0  0  0
 31 71  1  0  0  0  0
 32 38  1  0  0  0  0
 32 72  1  0  0  0  0
 32 73  1  0  0  0  0
 33 39  1  0  0  0  0
 33 74  1  0  0  0  0
 33 75  1  0  0  0  0
 34 41  1  0  0  0  0
 34 76  1  0  0  0  0
 34 77  1  0  0  0  0
 36 37  1  0  0  0  0
 36 44  1  0  0  0  0
 36 78  1  0  0  0  0
 37 40  1  0  0  0  0
 37 79  1  0  0  0  0
 37 80  1  0  0  0  0
 38 81  1  0  0  0  0
 38 82  1  0  0  0  0
 38 83  1  0  0  0  0
 39 84  1  0  0  0  0
 39 85  1  0  0  0  0
 39 86  1  0  0  0  0
 40 42  1  0  0  0  0
 40 43  1  0  0  0  0
 40 88  1  0  0  0  0
 42 89  1  0  0  0  0
 42 90  1  0  0  0  0
 42 91  1  0  0  0  0
 43 92  1  0  0  0  0
 43 93  1  0  0  0  0
 43 94  1  0  0  0  0
M  END
> <PUBCHEM_COMPOUND_CID>
515361
> <PUBCHEM_COMPOUND_CANONICALIZED>
1
> <PUBCHEM_CACTVS_COMPLEXITY>
1040
> <PUBCHEM_CACTVS_HBOND_ACCEPTOR>
9
> <PUBCHEM_CACTVS_HBOND_DONOR>
6
> <PUBCHEM_CACTVS_ROTATABLE_BOND>
19
> <PUBCHEM_CACTVS_SUBSKEYS>
AAADcfB7vAAAAAAAAAAAAAAAAAAAAYAAAAAAAAAAAAAAAAAAAAAAHgAQCAAADyzBgAQCCALAAgAIAIGQGAAAAAAAAAAAAIGIAAACQBoAgCAUQAAGFgCQAAG/iICPAAAAAAAAAAAAAAAAAAAAAAAAAAAAAA==
> <PUBCHEM_IUPAC_OPENEYE_NAME>
(2S)-2-[[(2S)-3-carboxy-2-[[(2S)-4-cyclopentyl-2-[[(2S)-2-(2-ethylbutanoylamino)-3,3-dimethyl-butanoyl]amino]-4-oxo-butanoyl]amino]propanoyl]amino]-4-methyl-pentanoic acid
> <PUBCHEM_IUPAC_CAS_NAME>
(2S)-2-[[(2S)-3-carboxy-2-[[(2S)-4-cyclopentyl-2-[[(2S)-2-[(2-ethyl-1-oxobutyl)amino]-3,3-dimethyl-1-oxobutyl]amino]-1,4-dioxobutyl]amino]-1-oxopropyl]amino]-4-methylpentanoic acid
> <PUBCHEM_IUPAC_NAME_MARKUP>
(2<I>S</I>)-2-[[(2<I>S</I>)-3-carboxy-2-[[(2<I>S</I>)-4-cyclopentyl-2-[[(2<I>S</I>)-2-(2-ethylbutanoylamino)-3,3-dimethylbutanoyl]amino]-4-oxobutanoyl]amino]propanoyl]amino]-4-methylpentanoic acid
> <PUBCHEM_IUPAC_NAME>
(2S)-2-[[(2S)-3-carboxy-2-[[(2S)-4-cyclopentyl-2-[[(2S)-2-(2-ethylbutanoylamino)-3,3-dimethylbutanoyl]amino]-4-oxobutanoyl]amino]propanoyl]amino]-4-methylpentanoic acid
> <PUBCHEM_IUPAC_SYSTEMATIC_NAME>
(2S)-2-[[(2S)-2-[[(2S)-4-cyclopentyl-2-[[(2S)-2-(2-ethylbutanoylamino)-3,3-dimethyl-butanoyl]amino]-4-oxidanylidene-butanoyl]amino]-4-oxidanyl-4-oxidanylidene-butanoyl]amino]-4-methyl-pentanoic acid
> <PUBCHEM_IUPAC_TRADITIONAL_NAME>
(2S)-2-[[(2S)-3-carboxy-2-[[(2S)-4-cyclopentyl-2-[[(2S)-2-(2-ethylbutanoylamino)-3,3-dimethyl-butanoyl]amino]-4-keto-butanoyl]amino]propanoyl]amino]-4-methyl-valeric acid
> <PUBCHEM_IUPAC_INCHI>
InChI=1S/C31H52N4O9/c1-8-18(9-2)26(39)35-25(31(5,6)7)29(42)33-20(15-23(36)19-12-10-11-13-19)27(40)32-21(16-24(37)38)28(41)34-22(30(43)44)14-17(3)4/h17-22,25H,8-16H2,1-7H3,(H,32,40)(H,33,42)(H,34,41)(H,35,39)(H,37,38)(H,43,44)/t20-,21-,22-,25+/m0/s1
> <PUBCHEM_IUPAC_INCHIKEY>
AWWTVJDPBUTQJS-DEJKCJRPSA-N
> <PUBCHEM_XLOGP3_AA>
3.2
> <PUBCHEM_EXACT_MASS>
624.37342925
> <PUBCHEM_MOLECULAR_FORMULA>
C31H52N4O9
> <PUBCHEM_MOLECULAR_WEIGHT>
624.8
> <PUBCHEM_OPENEYE_CAN_SMILES>
CCC(CC)C(=O)NC(C(=O)NC(CC(=O)C1CCCC1)C(=O)NC(CC(=O)O)C(=O)NC(CC(C)C)C(=O)O)C(C)(C)C
> <PUBCHEM_OPENEYE_ISO_SMILES>
CCC(CC)C(=O)N[C@H](C(=O)N[C@@H](CC(=O)C1CCCC1)C(=O)N[C@@H](CC(=O)O)C(=O)N[C@@H](CC(C)C)C(=O)O)C(C)(C)C
> <PUBCHEM_CACTVS_TPSA>
208
> <PUBCHEM_MONOISOTOPIC_WEIGHT>
624.37342925
> <PUBCHEM_TOTAL_CHARGE>
0
> <PUBCHEM_HEAVY_ATOM_COUNT>
44
> <PUBCHEM_ATOM_DEF_STEREO_COUNT>
4
> <PUBCHEM_ATOM_UDEF_STEREO_COUNT>
0
> <PUBCHEM_BOND_DEF_STEREO_COUNT>
0
> <PUBCHEM_BOND_UDEF_STEREO_COUNT>
0
> <PUBCHEM_ISOTOPIC_ATOM_COUNT>
0
> <PUBCHEM_COMPONENT_COUNT>
1
> <PUBCHEM_CACTVS_TAUTO_COUNT>
-1
> <PUBCHEM_COORDINATE_TYPE>
1
5
255
> <PUBCHEM_BONDANNOTATIONS>
21  10  5
23  11  6
31  12  5
36  13  5
$$$$
