515362
  -OEChem-10302200282D
 97 97  0     1  0  0  0  0  0999 V2000
    5.1350   -1.2306    0.0000 O   0  0  0  0  0  0  0  0  0  0  0  0
    8.5991   -2.2306    0.0000 O   0  0  0  0  0  0  0  0  0  0  0  0
   11.1972    0.2694    0.0000 O   0  0  0  0  0  0  0  0  0  0  0  0
    4.2690    2.2694    0.0000 O   0  0  0  0  0  0  0  0  0  0  0  0
    2.5369    0.2694    0.0000 O   0  0  0  0  0  0  0  0  0  0  0  0
    3.4030    1.7694    0.0000 O   0  0  0  0  0  0  0  0  0  0  0  0
    6.8671    4.7694    0.0000 O   0  0  0  0  0  0  0  0  0  0  0  0
    7.7331    3.2694    0.0000 O   0  0  0  0  0  0  0  0  0  0  0  0
    7.7331   -0.7306    0.0000 N   0  0  0  0  0  0  0  0  0  0  0  0
   10.3312   -1.2306    0.0000 N   0  0  0  0  0  0  0  0  0  0  0  0
    6.0010    0.2694    0.0000 N   0  0  0  0  0  0  0  0  0  0  0  0
    6.0010    2.2694    0.0000 N   0  0  0  0  0  0  0  0  0  0  0  0
    6.0010   -3.7306    0.0000 C   0  0  0  0  0  0  0  0  0  0  0  0
    5.1920   -4.3184    0.0000 C   0  0  0  0  0  0  0  0  0  0  0  0
    6.8100   -4.3184    0.0000 C   0  0  0  0  0  0  0  0  0  0  0  0
    5.5010   -5.2694    0.0000 C   0  0  0  0  0  0  0  0  0  0  0  0
    6.5010   -5.2694    0.0000 C   0  0  0  0  0  0  0  0  0  0  0  0
    6.0010   -2.7306    0.0000 C   0  0  0  0  0  0  0  0  0  0  0  0
    6.8671   -2.2306    0.0000 C   0  0  0  0  0  0  0  0  0  0  0  0
    6.8671   -1.2306    0.0000 C   0  0  1  0  0  0  0  0  0  0  0  0
    9.4651    0.2694    0.0000 C   0  0  0  0  0  0  0  0  0  0  0  0
    9.4651   -0.7306    0.0000 C   0  0  1  0  0  0  0  0  0  0  0  0
    6.0010   -0.7306    0.0000 C   0  0  0  0  0  0  0  0  0  0  0  0
    8.5991   -1.2306    0.0000 C   0  0  0  0  0  0  0  0  0  0  0  0
    9.4651    1.2694    0.0000 C   0  0  0  0  0  0  0  0  0  0  0  0
   10.4651    0.2694    0.0000 C   0  0  0  0  0  0  0  0  0  0  0  0
    8.4651    0.2694    0.0000 C   0  0  0  0  0  0  0  0  0  0  0  0
    5.1350    0.7694    0.0000 C   0  0  1  0  0  0  0  0  0  0  0  0
   11.1972   -0.7306    0.0000 C   0  0  0  0  0  0  0  0  0  0  0  0
   12.0632   -1.2306    0.0000 C   0  0  0  0  0  0  0  0  0  0  0  0
    4.2690    0.2694    0.0000 C   0  0  0  0  0  0  0  0  0  0  0  0
   12.9292   -0.7306    0.0000 C   0  0  0  0  0  0  0  0  0  0  0  0
   12.0632   -2.2306    0.0000 C   0  0  0  0  0  0  0  0  0  0  0  0
    5.1350    1.7694    0.0000 C   0  0  0  0  0  0  0  0  0  0  0  0
    6.0010    3.2694    0.0000 C   0  0  1  0  0  0  0  0  0  0  0  0
    5.1350    3.7694    0.0000 C   0  0  0  0  0  0  0  0  0  0  0  0
   13.7953   -1.2306    0.0000 C   0  0  0  0  0  0  0  0  0  0  0  0
   12.9292   -2.7306    0.0000 C   0  0  0  0  0  0  0  0  0  0  0  0
    5.1350    4.7694    0.0000 C   0  0  0  0  0  0  0  0  0  0  0  0
    3.4030    0.7694    0.0000 C   0  0  0  0  0  0  0  0  0  0  0  0
    6.8671    3.7694    0.0000 C   0  0  0  0  0  0  0  0  0  0  0  0
    4.2690    5.2694    0.0000 C   0  0  0  0  0  0  0  0  0  0  0  0
    6.0010    5.2694    0.0000 C   0  0  0  0  0  0  0  0  0  0  0  0
    6.5535   -3.4491    0.0000 H   0  0  0  0  0  0  0  0  0  0  0  0
    4.8820   -3.7814    0.0000 H   0  0  0  0  0  0  0  0  0  0  0  0
    4.6256   -4.5705    0.0000 H   0  0  0  0  0  0  0  0  0  0  0  0
    7.3764   -4.5705    0.0000 H   0  0  0  0  0  0  0  0  0  0  0  0
    7.1200   -3.7814    0.0000 H   0  0  0  0  0  0  0  0  0  0  0  0
    4.8946   -5.3983    0.0000 H   0  0  0  0  0  0  0  0  0  0  0  0
    5.5658   -5.8860    0.0000 H   0  0  0  0  0  0  0  0  0  0  0  0
    6.4362   -5.8860    0.0000 H   0  0  0  0  0  0  0  0  0  0  0  0
    7.1075   -5.3983    0.0000 H   0  0  0  0  0  0  0  0  0  0  0  0
    5.7890   -2.1480    0.0000 H   0  0  0  0  0  0  0  0  0  0  0  0
    5.3905   -2.8382    0.0000 H   0  0  0  0  0  0  0  0  0  0  0  0
    7.0791   -2.8132    0.0000 H   0  0  0  0  0  0  0  0  0  0  0  0
    7.4776   -2.1229    0.0000 H   0  0  0  0  0  0  0  0  0  0  0  0
    7.4040   -1.5406    0.0000 H   0  0  0  0  0  0  0  0  0  0  0  0
   10.0021   -0.4206    0.0000 H   0  0  0  0  0  0  0  0  0  0  0  0
    7.7331   -0.1106    0.0000 H   0  0  0  0  0  0  0  0  0  0  0  0
   10.0851    1.2694    0.0000 H   0  0  0  0  0  0  0  0  0  0  0  0
    9.4651    1.8894    0.0000 H   0  0  0  0  0  0  0  0  0  0  0  0
    8.8451    1.2694    0.0000 H   0  0  0  0  0  0  0  0  0  0  0  0
   10.4651   -0.3506    0.0000 H   0  0  0  0  0  0  0  0  0  0  0  0
   11.0851    0.2694    0.0000 H   0  0  0  0  0  0  0  0  0  0  0  0
   10.4651    0.8894    0.0000 H   0  0  0  0  0  0  0  0  0  0  0  0
    8.4651    0.8894    0.0000 H   0  0  0  0  0  0  0  0  0  0  0  0
    7.8451    0.2694    0.0000 H   0  0  0  0  0  0  0  0  0  0  0  0
    8.4651   -0.3506    0.0000 H   0  0  0  0  0  0  0  0  0  0  0  0
   10.3312   -1.8506    0.0000 H   0  0  0  0  0  0  0  0  0  0  0  0
    6.5380    0.5794    0.0000 H   0  0  0  0  0  0  0  0  0  0  0  0
    5.1350    0.1494    0.0000 H   0  0  0  0  0  0  0  0  0  0  0  0
   12.6002   -1.5406    0.0000 H   0  0  0  0  0  0  0  0  0  0  0  0
    3.8705   -0.2055    0.0000 H   0  0  0  0  0  0  0  0  0  0  0  0
    4.6675   -0.2055    0.0000 H   0  0  0  0  0  0  0  0  0  0  0  0
   13.3278   -0.2556    0.0000 H   0  0  0  0  0  0  0  0  0  0  0  0
   12.5307   -0.2556    0.0000 H   0  0  0  0  0  0  0  0  0  0  0  0
   11.4526   -2.1229    0.0000 H   0  0  0  0  0  0  0  0  0  0  0  0
   11.8512   -2.8132    0.0000 H   0  0  0  0  0  0  0  0  0  0  0  0
    6.5380    2.9594    0.0000 H   0  0  0  0  0  0  0  0  0  0  0  0
    6.5380    1.9594    0.0000 H   0  0  0  0  0  0  0  0  0  0  0  0
    4.5244    3.8771    0.0000 H   0  0  0  0  0  0  0  0  0  0  0  0
    4.9230    3.1868    0.0000 H   0  0  0  0  0  0  0  0  0  0  0  0
   13.4853   -1.7675    0.0000 H   0  0  0  0  0  0  0  0  0  0  0  0
   14.3322   -1.5406    0.0000 H   0  0  0  0  0  0  0  0  0  0  0  0
   14.1053   -0.6936    0.0000 H   0  0  0  0  0  0  0  0  0  0  0  0
   12.6192   -3.2675    0.0000 H   0  0  0  0  0  0  0  0  0  0  0  0
   13.4662   -3.0406    0.0000 H   0  0  0  0  0  0  0  0  0  0  0  0
   13.2392   -2.1936    0.0000 H   0  0  0  0  0  0  0  0  0  0  0  0
    5.1350    5.3894    0.0000 H   0  0  0  0  0  0  0  0  0  0  0  0
    4.5790    5.8064    0.0000 H   0  0  0  0  0  0  0  0  0  0  0  0
    3.7320    5.5794    0.0000 H   0  0  0  0  0  0  0  0  0  0  0  0
    3.9590    4.7325    0.0000 H   0  0  0  0  0  0  0  0  0  0  0  0
    6.3110    4.7325    0.0000 H   0  0  0  0  0  0  0  0  0  0  0  0
    6.5380    5.5794    0.0000 H   0  0  0  0  0  0  0  0  0  0  0  0
    5.6910    5.8064    0.0000 H   0  0  0  0  0  0  0  0  0  0  0  0
    2.0000    0.5794    0.0000 H   0  0  0  0  0  0  0  0  0  0  0  0
    7.4040    5.0794    0.0000 H   0  0  0  0  0  0  0  0  0  0  0  0
  1 23  2  0  0  0  0
  2 24  2  0  0  0  0
  3 29  2  0  0  0  0
  4 34  2  0  0  0  0
  5 40  1  0  0  0  0
  5 96  1  0  0  0  0
  6 40  2  0  0  0  0
  7 41  1  0  0  0  0
  7 97  1  0  0  0  0
  8 41  2  0  0  0  0
 20  9  1  1  0  0  0
  9 24  1  0  0  0  0
  9 59  1  0  0  0  0
 22 10  1  6  0  0  0
 10 29  1  0  0  0  0
 10 69  1  0  0  0  0
 11 23  1  0  0  0  0
 28 11  1  1  0  0  0
 11 70  1  0  0  0  0
 12 34  1  0  0  0  0
 35 12  1  1  0  0  0
 12 80  1  0  0  0  0
 13 14  1  0  0  0  0
 13 15  1  0  0  0  0
 13 18  1  0  0  0  0
 13 44  1  0  0  0  0
 14 16  1  0  0  0  0
 14 45  1  0  0  0  0
 14 46  1  0  0  0  0
 15 17  1  0  0  0  0
 15 47  1  0  0  0  0
 15 48  1  0  0  0  0
 16 17  1  0  0  0  0
 16 49  1  0  0  0  0
 16 50  1  0  0  0  0
 17 51  1  0  0  0  0
 17 52  1  0  0  0  0
 18 19  1  0  0  0  0
 18 53  1  0  0  0  0
 18 54  1  0  0  0  0
 19 20  1  0  0  0  0
 19 55  1  0  0  0  0
 19 56  1  0  0  0  0
 20 23  1  0  0  0  0
 20 57  1  0  0  0  0
 21 22  1  0  0  0  0
 21 25  1  0  0  0  0
 21 26  1  0  0  0  0
 21 27  1  0  0  0  0
 22 24  1  0  0  0  0
 22 58  1  0  0  0  0
 25 60  1  0  0  0  0
 25 61  1  0  0  0  0
 25 62  1  0  0  0  0
 26 63  1  0  0  0  0
 26 64  1  0  0  0  0
 26 65  1  0  0  0  0
 27 66  1  0  0  0  0
 27 67  1  0  0  0  0
 27 68  1  0  0  0  0
 28 31  1  0  0  0  0
 28 34  1  0  0  0  0
 28 71  1  0  0  0  0
 29 30  1  0  0  0  0
 30 32  1  0  0  0  0
 30 33  1  0  0  0  0
 30 72  1  0  0  0  0
 31 40  1  0  0  0  0
 31 73  1  0  0  0  0
 31 74  1  0  0  0  0
 32 37  1  0  0  0  0
 32 75  1  0  0  0  0
 32 76  1  0  0  0  0
 33 38  1  0  0  0  0
 33 77  1  0  0  0  0
 33 78  1  0  0  0  0
 35 36  1  0  0  0  0
 35 41  1  0  0  0  0
 35 79  1  0  0  0  0
 36 39  1  0  0  0  0
 36 81  1  0  0  0  0
 36 82  1  0  0  0  0
 37 83  1  0  0  0  0
 37 84  1  0  0  0  0
 37 85  1  0  0  0  0
 38 86  1  0  0  0  0
 38 87  1  0  0  0  0
 38 88  1  0  0  0  0
 39 42  1  0  0  0  0
 39 43  1  0  0  0  0
 39 89  1  0  0  0  0
 42 90  1  0  0  0  0
 42 91  1  0  0  0  0
 42 92  1  0  0  0  0
 43 93  1  0  0  0  0
 43 94  1  0  0  0  0
 43 95  1  0  0  0  0
M  END
> <PUBCHEM_COMPOUND_CID>
515362
> <PUBCHEM_COMPOUND_CANONICALIZED>
1
> <PUBCHEM_CACTVS_COMPLEXITY>
967
> <PUBCHEM_CACTVS_HBOND_ACCEPTOR>
8
> <PUBCHEM_CACTVS_HBOND_DONOR>
6
> <PUBCHEM_CACTVS_ROTATABLE_BOND>
19
> <PUBCHEM_CACTVS_SUBSKEYS>
AAADcfB7vAAAAAAAAAAAAAAAAAAAAYAAAAAAAAAAAAAAAAAAAAAAHgAQCAAADyjBgAQCCALAAgAIAAGQGAAAAAAAAAAAAIGIAAACQBoAgCAUQAAGFgCQAAG/iICPAAAAAAAAAAAAAAAAAAAAAAAAAAAAAA==
> <PUBCHEM_IUPAC_OPENEYE_NAME>
(2S)-2-[[(2S)-3-carboxy-2-[[(2S)-4-cyclopentyl-2-[[(2S)-2-(2-ethylbutanoylamino)-3,3-dimethyl-butanoyl]amino]butanoyl]amino]propanoyl]amino]-4-methyl-pentanoic acid
> <PUBCHEM_IUPAC_CAS_NAME>
(2S)-2-[[(2S)-3-carboxy-2-[[(2S)-4-cyclopentyl-2-[[(2S)-2-[(2-ethyl-1-oxobutyl)amino]-3,3-dimethyl-1-oxobutyl]amino]-1-oxobutyl]amino]-1-oxopropyl]amino]-4-methylpentanoic acid
> <PUBCHEM_IUPAC_NAME_MARKUP>
(2<I>S</I>)-2-[[(2<I>S</I>)-3-carboxy-2-[[(2<I>S</I>)-4-cyclopentyl-2-[[(2<I>S</I>)-2-(2-ethylbutanoylamino)-3,3-dimethylbutanoyl]amino]butanoyl]amino]propanoyl]amino]-4-methylpentanoic acid
> <PUBCHEM_IUPAC_NAME>
(2S)-2-[[(2S)-3-carboxy-2-[[(2S)-4-cyclopentyl-2-[[(2S)-2-(2-ethylbutanoylamino)-3,3-dimethylbutanoyl]amino]butanoyl]amino]propanoyl]amino]-4-methylpentanoic acid
> <PUBCHEM_IUPAC_SYSTEMATIC_NAME>
(2S)-2-[[(2S)-2-[[(2S)-4-cyclopentyl-2-[[(2S)-2-(2-ethylbutanoylamino)-3,3-dimethyl-butanoyl]amino]butanoyl]amino]-4-oxidanyl-4-oxidanylidene-butanoyl]amino]-4-methyl-pentanoic acid
> <PUBCHEM_IUPAC_TRADITIONAL_NAME>
(2S)-2-[[(2S)-3-carboxy-2-[[(2S)-4-cyclopentyl-2-[[(2S)-2-(2-ethylbutanoylamino)-3,3-dimethyl-butanoyl]amino]butanoyl]amino]propanoyl]amino]-4-methyl-valeric acid
> <PUBCHEM_IUPAC_INCHI>
InChI=1S/C31H54N4O8/c1-8-20(9-2)26(38)35-25(31(5,6)7)29(41)32-21(15-14-19-12-10-11-13-19)27(39)33-22(17-24(36)37)28(40)34-23(30(42)43)16-18(3)4/h18-23,25H,8-17H2,1-7H3,(H,32,41)(H,33,39)(H,34,40)(H,35,38)(H,36,37)(H,42,43)/t21-,22-,23-,25+/m0/s1
> <PUBCHEM_IUPAC_INCHIKEY>
FTHRPNRPONSHBN-KELBGUDLSA-N
> <PUBCHEM_XLOGP3_AA>
4.9
> <PUBCHEM_EXACT_MASS>
610.39416469
> <PUBCHEM_MOLECULAR_FORMULA>
C31H54N4O8
> <PUBCHEM_MOLECULAR_WEIGHT>
610.8
> <PUBCHEM_OPENEYE_CAN_SMILES>
CCC(CC)C(=O)NC(C(=O)NC(CCC1CCCC1)C(=O)NC(CC(=O)O)C(=O)NC(CC(C)C)C(=O)O)C(C)(C)C
> <PUBCHEM_OPENEYE_ISO_SMILES>
CCC(CC)C(=O)N[C@H](C(=O)N[C@@H](CCC1CCCC1)C(=O)N[C@@H](CC(=O)O)C(=O)N[C@@H](CC(C)C)C(=O)O)C(C)(C)C
> <PUBCHEM_CACTVS_TPSA>
191
> <PUBCHEM_MONOISOTOPIC_WEIGHT>
610.39416469
> <PUBCHEM_TOTAL_CHARGE>
0
> <PUBCHEM_HEAVY_ATOM_COUNT>
43
> <PUBCHEM_ATOM_DEF_STEREO_COUNT>
4
> <PUBCHEM_ATOM_UDEF_STEREO_COUNT>
0
> <PUBCHEM_BOND_DEF_STEREO_COUNT>
0
> <PUBCHEM_BOND_UDEF_STEREO_COUNT>
0
> <PUBCHEM_ISOTOPIC_ATOM_COUNT>
0
> <PUBCHEM_COMPONENT_COUNT>
1
> <PUBCHEM_CACTVS_TAUTO_COUNT>
-1
> <PUBCHEM_COORDINATE_TYPE>
1
5
255
> <PUBCHEM_BONDANNOTATIONS>
22  10  6
28  11  5
35  12  5
20  9  5
$$$$
