515375
  -OEChem-10302200282D
103104  0     1  0  0  0  0  0999 V2000
    5.4641   -1.7694    0.0000 O   0  0  0  0  0  0  0  0  0  0  0  0
    5.4641   -0.7694    0.0000 O   0  0  0  0  0  0  0  0  0  0  0  0
    7.1962   -0.7694    0.0000 O   0  0  0  0  0  0  0  0  0  0  0  0
    8.9282    2.2306    0.0000 O   0  0  0  0  0  0  0  0  0  0  0  0
    6.3301   -0.2694    0.0000 O   0  0  0  0  0  0  0  0  0  0  0  0
   10.6603   -1.7694    0.0000 O   0  0  0  0  0  0  0  0  0  0  0  0
    2.8660    2.7306    0.0000 O   0  0  0  0  0  0  0  0  0  0  0  0
    4.5981    2.7306    0.0000 O   0  0  0  0  0  0  0  0  0  0  0  0
    3.7320   -0.7694    0.0000 N   0  0  0  0  0  0  0  0  0  0  0  0
    8.0622    3.7306    0.0000 N   0  0  0  0  0  0  0  0  0  0  0  0
    5.4641    1.2306    0.0000 N   0  0  0  0  0  0  0  0  0  0  0  0
    8.0622    0.7306    0.0000 N   0  0  0  0  0  0  0  0  0  0  0  0
    8.9282   -1.7694    0.0000 N   0  0  0  0  0  0  0  0  0  0  0  0
    2.8660   -3.2694    0.0000 C   0  0  0  0  0  0  0  0  0  0  0  0
    2.0000   -3.7694    0.0000 C   0  0  0  0  0  0  0  0  0  0  0  0
    3.7320   -3.7694    0.0000 C   0  0  0  0  0  0  0  0  0  0  0  0
    2.8660   -2.2694    0.0000 C   0  0  0  0  0  0  0  0  0  0  0  0
    2.0000   -4.7694    0.0000 C   0  0  0  0  0  0  0  0  0  0  0  0
    3.7320   -4.7694    0.0000 C   0  0  0  0  0  0  0  0  0  0  0  0
    2.8660   -5.2694    0.0000 C   0  0  0  0  0  0  0  0  0  0  0  0
    3.7320   -1.7694    0.0000 C   0  0  1  0  0  0  0  0  0  0  0  0
    4.5981   -2.2694    0.0000 C   0  0  0  0  0  0  0  0  0  0  0  0
    9.7942   -0.2694    0.0000 C   0  0  0  0  0  0  0  0  0  0  0  0
    4.5981   -0.2694    0.0000 C   0  0  0  0  0  0  0  0  0  0  0  0
    8.9282   -0.7694    0.0000 C   0  0  1  0  0  0  0  0  0  0  0  0
    4.5981    0.7306    0.0000 C   0  0  2  0  0  0  0  0  0  0  0  0
    7.1962    1.2306    0.0000 C   0  0  1  0  0  0  0  0  0  0  0  0
    7.2532    4.3184    0.0000 C   0  0  0  0  0  0  0  0  0  0  0  0
    8.8712    4.3184    0.0000 C   0  0  0  0  0  0  0  0  0  0  0  0
    7.5622    5.2694    0.0000 C   0  0  0  0  0  0  0  0  0  0  0  0
    8.5622    5.2694    0.0000 C   0  0  0  0  0  0  0  0  0  0  0  0
    7.1962    2.2306    0.0000 C   0  0  0  0  0  0  0  0  0  0  0  0
    8.0622   -0.2694    0.0000 C   0  0  0  0  0  0  0  0  0  0  0  0
   10.6603    0.2306    0.0000 C   0  0  0  0  0  0  0  0  0  0  0  0
   10.2942   -1.1354    0.0000 C   0  0  0  0  0  0  0  0  0  0  0  0
    9.2942    0.5966    0.0000 C   0  0  0  0  0  0  0  0  0  0  0  0
    8.0622    2.7306    0.0000 C   0  0  0  0  0  0  0  0  0  0  0  0
    6.3301    0.7306    0.0000 C   0  0  0  0  0  0  0  0  0  0  0  0
    3.7320    1.2306    0.0000 C   0  0  0  0  0  0  0  0  0  0  0  0
    9.7942   -3.2694    0.0000 C   0  0  0  0  0  0  0  0  0  0  0  0
    9.7942   -2.2694    0.0000 C   0  0  0  0  0  0  0  0  0  0  0  0
   10.6603   -3.7694    0.0000 C   0  0  0  0  0  0  0  0  0  0  0  0
    8.9282   -3.7694    0.0000 C   0  0  0  0  0  0  0  0  0  0  0  0
    3.7320    2.2306    0.0000 C   0  0  0  0  0  0  0  0  0  0  0  0
   10.6603   -4.7694    0.0000 C   0  0  0  0  0  0  0  0  0  0  0  0
    8.9282   -4.7694    0.0000 C   0  0  0  0  0  0  0  0  0  0  0  0
    3.4030   -2.9594    0.0000 H   0  0  0  0  0  0  0  0  0  0  0  0
    1.7880   -3.1868    0.0000 H   0  0  0  0  0  0  0  0  0  0  0  0
    1.3894   -3.8771    0.0000 H   0  0  0  0  0  0  0  0  0  0  0  0
    4.3426   -3.8771    0.0000 H   0  0  0  0  0  0  0  0  0  0  0  0
    3.9441   -3.1868    0.0000 H   0  0  0  0  0  0  0  0  0  0  0  0
    2.6540   -1.6868    0.0000 H   0  0  0  0  0  0  0  0  0  0  0  0
    2.2554   -2.3771    0.0000 H   0  0  0  0  0  0  0  0  0  0  0  0
    1.3894   -4.6618    0.0000 H   0  0  0  0  0  0  0  0  0  0  0  0
    1.7880   -5.3520    0.0000 H   0  0  0  0  0  0  0  0  0  0  0  0
    3.9441   -5.3520    0.0000 H   0  0  0  0  0  0  0  0  0  0  0  0
    4.3426   -4.6618    0.0000 H   0  0  0  0  0  0  0  0  0  0  0  0
    2.4675   -5.7444    0.0000 H   0  0  0  0  0  0  0  0  0  0  0  0
    3.2646   -5.7444    0.0000 H   0  0  0  0  0  0  0  0  0  0  0  0
    4.2690   -1.4594    0.0000 H   0  0  0  0  0  0  0  0  0  0  0  0
    4.1996   -2.7444    0.0000 H   0  0  0  0  0  0  0  0  0  0  0  0
    4.9966   -2.7444    0.0000 H   0  0  0  0  0  0  0  0  0  0  0  0
    3.1951   -0.4594    0.0000 H   0  0  0  0  0  0  0  0  0  0  0  0
    9.4651   -1.0794    0.0000 H   0  0  0  0  0  0  0  0  0  0  0  0
    4.5981    1.3506    0.0000 H   0  0  0  0  0  0  0  0  0  0  0  0
    7.7331    1.5406    0.0000 H   0  0  0  0  0  0  0  0  0  0  0  0
    6.6868    4.5705    0.0000 H   0  0  0  0  0  0  0  0  0  0  0  0
    6.9432    3.7814    0.0000 H   0  0  0  0  0  0  0  0  0  0  0  0
    9.1812    3.7814    0.0000 H   0  0  0  0  0  0  0  0  0  0  0  0
    9.4376    4.5705    0.0000 H   0  0  0  0  0  0  0  0  0  0  0  0
    7.6270    5.8860    0.0000 H   0  0  0  0  0  0  0  0  0  0  0  0
    6.9557    5.3983    0.0000 H   0  0  0  0  0  0  0  0  0  0  0  0
    9.1686    5.3983    0.0000 H   0  0  0  0  0  0  0  0  0  0  0  0
    8.4974    5.8860    0.0000 H   0  0  0  0  0  0  0  0  0  0  0  0
    6.9841    2.8132    0.0000 H   0  0  0  0  0  0  0  0  0  0  0  0
    6.5856    2.1229    0.0000 H   0  0  0  0  0  0  0  0  0  0  0  0
    6.0010   -2.0794    0.0000 H   0  0  0  0  0  0  0  0  0  0  0  0
   10.9703   -0.3064    0.0000 H   0  0  0  0  0  0  0  0  0  0  0  0
   11.1972    0.5406    0.0000 H   0  0  0  0  0  0  0  0  0  0  0  0
   10.3503    0.7675    0.0000 H   0  0  0  0  0  0  0  0  0  0  0  0
    9.7573   -1.4454    0.0000 H   0  0  0  0  0  0  0  0  0  0  0  0
   10.6042   -1.6724    0.0000 H   0  0  0  0  0  0  0  0  0  0  0  0
   10.8312   -0.8254    0.0000 H   0  0  0  0  0  0  0  0  0  0  0  0
    9.8312    0.9066    0.0000 H   0  0  0  0  0  0  0  0  0  0  0  0
    8.9842    1.1335    0.0000 H   0  0  0  0  0  0  0  0  0  0  0  0
    8.7573    0.2866    0.0000 H   0  0  0  0  0  0  0  0  0  0  0  0
    5.4641    1.8506    0.0000 H   0  0  0  0  0  0  0  0  0  0  0  0
    8.5991    1.0406    0.0000 H   0  0  0  0  0  0  0  0  0  0  0  0
    8.3913   -2.0794    0.0000 H   0  0  0  0  0  0  0  0  0  0  0  0
    3.1215    1.3382    0.0000 H   0  0  0  0  0  0  0  0  0  0  0  0
    3.5200    0.6480    0.0000 H   0  0  0  0  0  0  0  0  0  0  0  0
    9.2573   -2.9594    0.0000 H   0  0  0  0  0  0  0  0  0  0  0  0
   11.2708   -3.8771    0.0000 H   0  0  0  0  0  0  0  0  0  0  0  0
   10.8723   -3.1868    0.0000 H   0  0  0  0  0  0  0  0  0  0  0  0
    8.7162   -3.1868    0.0000 H   0  0  0  0  0  0  0  0  0  0  0  0
    8.3176   -3.8771    0.0000 H   0  0  0  0  0  0  0  0  0  0  0  0
   10.0403   -4.7694    0.0000 H   0  0  0  0  0  0  0  0  0  0  0  0
   10.6603   -5.3894    0.0000 H   0  0  0  0  0  0  0  0  0  0  0  0
   11.2803   -4.7694    0.0000 H   0  0  0  0  0  0  0  0  0  0  0  0
    8.3082   -4.7694    0.0000 H   0  0  0  0  0  0  0  0  0  0  0  0
    8.9282   -5.3894    0.0000 H   0  0  0  0  0  0  0  0  0  0  0  0
    9.5482   -4.7694    0.0000 H   0  0  0  0  0  0  0  0  0  0  0  0
    2.8660    3.3506    0.0000 H   0  0  0  0  0  0  0  0  0  0  0  0
  1 22  1  0  0  0  0
  1 77  1  0  0  0  0
  2 24  2  0  0  0  0
  3 33  2  0  0  0  0
  4 37  2  0  0  0  0
  5 38  2  0  0  0  0
  6 41  2  0  0  0  0
  7 44  1  0  0  0  0
  7103  1  0  0  0  0
  8 44  2  0  0  0  0
 21  9  1  6  0  0  0
  9 24  1  0  0  0  0
  9 63  1  0  0  0  0
 10 28  1  0  0  0  0
 10 29  1  0  0  0  0
 10 37  1  0  0  0  0
 26 11  1  6  0  0  0
 11 38  1  0  0  0  0
 11 87  1  0  0  0  0
 27 12  1  6  0  0  0
 12 33  1  0  0  0  0
 12 88  1  0  0  0  0
 25 13  1  6  0  0  0
 13 41  1  0  0  0  0
 13 89  1  0  0  0  0
 14 15  1  0  0  0  0
 14 16  1  0  0  0  0
 14 17  1  0  0  0  0
 14 47  1  0  0  0  0
 15 18  1  0  0  0  0
 15 48  1  0  0  0  0
 15 49  1  0  0  0  0
 16 19  1  0  0  0  0
 16 50  1  0  0  0  0
 16 51  1  0  0  0  0
 17 21  1  0  0  0  0
 17 52  1  0  0  0  0
 17 53  1  0  0  0  0
 18 20  1  0  0  0  0
 18 54  1  0  0  0  0
 18 55  1  0  0  0  0
 19 20  1  0  0  0  0
 19 56  1  0  0  0  0
 19 57  1  0  0  0  0
 20 58  1  0  0  0  0
 20 59  1  0  0  0  0
 21 22  1  0  0  0  0
 21 60  1  0  0  0  0
 22 61  1  0  0  0  0
 22 62  1  0  0  0  0
 23 25  1  0  0  0  0
 23 34  1  0  0  0  0
 23 35  1  0  0  0  0
 23 36  1  0  0  0  0
 24 26  1  0  0  0  0
 25 33  1  0  0  0  0
 25 64  1  0  0  0  0
 26 39  1  0  0  0  0
 26 65  1  0  0  0  0
 27 32  1  0  0  0  0
 27 38  1  0  0  0  0
 27 66  1  0  0  0  0
 28 30  1  0  0  0  0
 28 67  1  0  0  0  0
 28 68  1  0  0  0  0
 29 31  1  0  0  0  0
 29 69  1  0  0  0  0
 29 70  1  0  0  0  0
 30 31  1  0  0  0  0
 30 71  1  0  0  0  0
 30 72  1  0  0  0  0
 31 73  1  0  0  0  0
 31 74  1  0  0  0  0
 32 37  1  0  0  0  0
 32 75  1  0  0  0  0
 32 76  1  0  0  0  0
 34 78  1  0  0  0  0
 34 79  1  0  0  0  0
 34 80  1  0  0  0  0
 35 81  1  0  0  0  0
 35 82  1  0  0  0  0
 35 83  1  0  0  0  0
 36 84  1  0  0  0  0
 36 85  1  0  0  0  0
 36 86  1  0  0  0  0
 39 44  1  0  0  0  0
 39 90  1  0  0  0  0
 39 91  1  0  0  0  0
 40 41  1  0  0  0  0
 40 42  1  0  0  0  0
 40 43  1  0  0  0  0
 40 92  1  0  0  0  0
 42 45  1  0  0  0  0
 42 93  1  0  0  0  0
 42 94  1  0  0  0  0
 43 46  1  0  0  0  0
 43 95  1  0  0  0  0
 43 96  1  0  0  0  0
 45 97  1  0  0  0  0
 45 98  1  0  0  0  0
 45 99  1  0  0  0  0
 46100  1  0  0  0  0
 46101  1  0  0  0  0
 46102  1  0  0  0  0
M  END
> <PUBCHEM_COMPOUND_CID>
515375
> <PUBCHEM_COMPOUND_CANONICALIZED>
1
> <PUBCHEM_CACTVS_COMPLEXITY>
1050
> <PUBCHEM_CACTVS_HBOND_ACCEPTOR>
8
> <PUBCHEM_CACTVS_HBOND_DONOR>
6
> <PUBCHEM_CACTVS_ROTATABLE_BOND>
18
> <PUBCHEM_CACTVS_SUBSKEYS>
AAADcfB/vAAAAAAAAAAAAAAAAAAAAWAAAAAwAAAAAAAAAAAAAAAAHgAQCAAADyjhgAYCCAPAAgAIAAGQGAAAAAAAAAAAAIGIAAACUBoAwCAUQAAGFgCQAAG3wKAPAAAAAAAAAAAAAAAAAAAAAAAAAAAAAA==
> <PUBCHEM_IUPAC_OPENEYE_NAME>
(3S)-4-[[(1S)-1-(cyclohexylmethyl)-2-hydroxy-ethyl]amino]-3-[[(2S)-2-[[(2S)-2-(2-ethylbutanoylamino)-3,3-dimethyl-butanoyl]amino]-4-oxo-4-pyrrolidin-1-yl-butanoyl]amino]-4-oxo-butanoic acid
> <PUBCHEM_IUPAC_CAS_NAME>
(3S)-4-[[(2S)-1-cyclohexyl-3-hydroxypropan-2-yl]amino]-3-[[(2S)-2-[[(2S)-2-[(2-ethyl-1-oxobutyl)amino]-3,3-dimethyl-1-oxobutyl]amino]-1,4-dioxo-4-(1-pyrrolidinyl)butyl]amino]-4-oxobutanoic acid
> <PUBCHEM_IUPAC_NAME_MARKUP>
(3<I>S</I>)-4-[[(2<I>S</I>)-1-cyclohexyl-3-hydroxypropan-2-yl]amino]-3-[[(2<I>S</I>)-2-[[(2<I>S</I>)-2-(2-ethylbutanoylamino)-3,3-dimethylbutanoyl]amino]-4-oxo-4-pyrrolidin-1-ylbutanoyl]amino]-4-oxobutanoic acid
> <PUBCHEM_IUPAC_NAME>
(3S)-4-[[(2S)-1-cyclohexyl-3-hydroxypropan-2-yl]amino]-3-[[(2S)-2-[[(2S)-2-(2-ethylbutanoylamino)-3,3-dimethylbutanoyl]amino]-4-oxo-4-pyrrolidin-1-ylbutanoyl]amino]-4-oxobutanoic acid
> <PUBCHEM_IUPAC_SYSTEMATIC_NAME>
(3S)-4-[[(2S)-1-cyclohexyl-3-oxidanyl-propan-2-yl]amino]-3-[[(2S)-2-[[(2S)-2-(2-ethylbutanoylamino)-3,3-dimethyl-butanoyl]amino]-4-oxidanylidene-4-pyrrolidin-1-yl-butanoyl]amino]-4-oxidanylidene-butanoic acid
> <PUBCHEM_IUPAC_TRADITIONAL_NAME>
(3S)-4-[[(1S)-1-(cyclohexylmethyl)-2-hydroxy-ethyl]amino]-3-[[(2S)-2-[[(2S)-2-(2-ethylbutanoylamino)-3,3-dimethyl-butanoyl]amino]-4-keto-4-pyrrolidino-butanoyl]amino]-4-keto-butyric acid
> <PUBCHEM_IUPAC_INCHI>
InChI=1S/C33H57N5O8/c1-6-22(7-2)29(43)37-28(33(3,4)5)32(46)36-24(18-26(40)38-15-11-12-16-38)31(45)35-25(19-27(41)42)30(44)34-23(20-39)17-21-13-9-8-10-14-21/h21-25,28,39H,6-20H2,1-5H3,(H,34,44)(H,35,45)(H,36,46)(H,37,43)(H,41,42)/t23-,24-,25-,28+/m0/s1
> <PUBCHEM_IUPAC_INCHIKEY>
PDMLBJOMRBMOLT-HQQJGFCBSA-N
> <PUBCHEM_XLOGP3_AA>
3.1
> <PUBCHEM_EXACT_MASS>
651.42071379
> <PUBCHEM_MOLECULAR_FORMULA>
C33H57N5O8
> <PUBCHEM_MOLECULAR_WEIGHT>
651.8
> <PUBCHEM_OPENEYE_CAN_SMILES>
CCC(CC)C(=O)NC(C(=O)NC(CC(=O)N1CCCC1)C(=O)NC(CC(=O)O)C(=O)NC(CC2CCCCC2)CO)C(C)(C)C
> <PUBCHEM_OPENEYE_ISO_SMILES>
CCC(CC)C(=O)N[C@H](C(=O)N[C@@H](CC(=O)N1CCCC1)C(=O)N[C@@H](CC(=O)O)C(=O)N[C@@H](CC2CCCCC2)CO)C(C)(C)C
> <PUBCHEM_CACTVS_TPSA>
194
> <PUBCHEM_MONOISOTOPIC_WEIGHT>
651.42071379
> <PUBCHEM_TOTAL_CHARGE>
0
> <PUBCHEM_HEAVY_ATOM_COUNT>
46
> <PUBCHEM_ATOM_DEF_STEREO_COUNT>
4
> <PUBCHEM_ATOM_UDEF_STEREO_COUNT>
0
> <PUBCHEM_BOND_DEF_STEREO_COUNT>
0
> <PUBCHEM_BOND_UDEF_STEREO_COUNT>
0
> <PUBCHEM_ISOTOPIC_ATOM_COUNT>
0
> <PUBCHEM_COMPONENT_COUNT>
1
> <PUBCHEM_CACTVS_TAUTO_COUNT>
-1
> <PUBCHEM_COORDINATE_TYPE>
1
5
255
> <PUBCHEM_BONDANNOTATIONS>
26  11  6
27  12  6
25  13  6
21  9  6
$$$$
