515357
  -OEChem-10302200282D
 89 89  0     1  0  0  0  0  0999 V2000
   10.6603    1.9806    0.0000 O   0  0  0  0  0  0  0  0  0  0  0  0
    8.0622   -0.5194    0.0000 O   0  0  0  0  0  0  0  0  0  0  0  0
    8.9282   -1.0194    0.0000 O   0  0  0  0  0  0  0  0  0  0  0  0
    4.5981    0.4806    0.0000 O   0  0  0  0  0  0  0  0  0  0  0  0
    8.9282   -2.0194    0.0000 O   0  0  0  0  0  0  0  0  0  0  0  0
    3.7320    3.9806    0.0000 O   0  0  0  0  0  0  0  0  0  0  0  0
    5.4641    3.9806    0.0000 O   0  0  0  0  0  0  0  0  0  0  0  0
    5.4641   -2.0194    0.0000 O   0  0  0  0  0  0  0  0  0  0  0  0
   13.2583   -0.5194    0.0000 O   0  0  0  0  0  0  0  0  0  0  0  0
    4.5981   -0.5194    0.0000 O   0  0  0  0  0  0  0  0  0  0  0  0
   12.3923   -2.0194    0.0000 O   0  0  0  0  0  0  0  0  0  0  0  0
    9.7942    3.4806    0.0000 N   0  0  0  0  0  0  0  0  0  0  0  0
    9.7942    0.4806    0.0000 N   0  0  0  0  0  0  0  0  0  0  0  0
    7.1962    0.9806    0.0000 N   0  0  0  0  0  0  0  0  0  0  0  0
   10.6603   -2.0194    0.0000 N   0  0  0  0  0  0  0  0  0  0  0  0
    5.4641    1.9806    0.0000 N   0  0  0  0  0  0  0  0  0  0  0  0
   10.2942    5.0194    0.0000 C   0  0  0  0  0  0  0  0  0  0  0  0
    9.2942    5.0194    0.0000 C   0  0  0  0  0  0  0  0  0  0  0  0
   10.6032    4.0684    0.0000 C   0  0  0  0  0  0  0  0  0  0  0  0
    8.9852    4.0684    0.0000 C   0  0  0  0  0  0  0  0  0  0  0  0
    9.7942    2.4806    0.0000 C   0  0  0  0  0  0  0  0  0  0  0  0
    8.9282    1.9806    0.0000 C   0  0  0  0  0  0  0  0  0  0  0  0
    8.9282    0.9806    0.0000 C   0  0  1  0  0  0  0  0  0  0  0  0
    8.0622    0.4806    0.0000 C   0  0  0  0  0  0  0  0  0  0  0  0
    6.3301    0.4806    0.0000 C   0  0  2  0  0  0  0  0  0  0  0  0
   10.6603   -1.0194    0.0000 C   0  0  2  0  0  0  0  0  0  0  0  0
    3.7320    1.9806    0.0000 C   0  0  0  0  0  0  0  0  0  0  0  0
    4.5981    2.4806    0.0000 C   0  0  1  0  0  0  0  0  0  0  0  0
    9.7942   -0.5194    0.0000 C   0  0  0  0  0  0  0  0  0  0  0  0
    2.8660    2.4806    0.0000 C   0  0  0  0  0  0  0  0  0  0  0  0
    9.7942   -3.5194    0.0000 C   0  0  0  0  0  0  0  0  0  0  0  0
    5.4641    0.9806    0.0000 C   0  0  0  0  0  0  0  0  0  0  0  0
    6.3301   -0.5194    0.0000 C   0  0  0  0  0  0  0  0  0  0  0  0
   11.5263   -0.5194    0.0000 C   0  0  0  0  0  0  0  0  0  0  0  0
    9.7942   -2.5194    0.0000 C   0  0  0  0  0  0  0  0  0  0  0  0
    8.9282   -4.0194    0.0000 C   0  0  0  0  0  0  0  0  0  0  0  0
   10.6603   -4.0194    0.0000 C   0  0  0  0  0  0  0  0  0  0  0  0
    2.0000    1.9806    0.0000 C   0  0  0  0  0  0  0  0  0  0  0  0
    2.8660    3.4806    0.0000 C   0  0  0  0  0  0  0  0  0  0  0  0
    4.5981    3.4806    0.0000 C   0  0  0  0  0  0  0  0  0  0  0  0
    8.9282   -5.0194    0.0000 C   0  0  0  0  0  0  0  0  0  0  0  0
   10.6603   -5.0194    0.0000 C   0  0  0  0  0  0  0  0  0  0  0  0
    5.4641   -1.0194    0.0000 C   0  0  0  0  0  0  0  0  0  0  0  0
   12.3923   -1.0194    0.0000 C   0  0  0  0  0  0  0  0  0  0  0  0
   10.9007    5.1483    0.0000 H   0  0  0  0  0  0  0  0  0  0  0  0
   10.2294    5.6360    0.0000 H   0  0  0  0  0  0  0  0  0  0  0  0
    9.3590    5.6360    0.0000 H   0  0  0  0  0  0  0  0  0  0  0  0
    8.6878    5.1483    0.0000 H   0  0  0  0  0  0  0  0  0  0  0  0
   10.9132    3.5314    0.0000 H   0  0  0  0  0  0  0  0  0  0  0  0
   11.1696    4.3205    0.0000 H   0  0  0  0  0  0  0  0  0  0  0  0
    8.4188    4.3205    0.0000 H   0  0  0  0  0  0  0  0  0  0  0  0
    8.6752    3.5314    0.0000 H   0  0  0  0  0  0  0  0  0  0  0  0
    8.7162    2.5632    0.0000 H   0  0  0  0  0  0  0  0  0  0  0  0
    8.3176    1.8729    0.0000 H   0  0  0  0  0  0  0  0  0  0  0  0
    9.4651    1.2906    0.0000 H   0  0  0  0  0  0  0  0  0  0  0  0
   10.3312    0.7906    0.0000 H   0  0  0  0  0  0  0  0  0  0  0  0
    6.8671    0.1706    0.0000 H   0  0  0  0  0  0  0  0  0  0  0  0
   11.1972   -1.3294    0.0000 H   0  0  0  0  0  0  0  0  0  0  0  0
    3.3335    1.5056    0.0000 H   0  0  0  0  0  0  0  0  0  0  0  0
    4.1306    1.5056    0.0000 H   0  0  0  0  0  0  0  0  0  0  0  0
    4.5981    1.8606    0.0000 H   0  0  0  0  0  0  0  0  0  0  0  0
    7.1962    1.6006    0.0000 H   0  0  0  0  0  0  0  0  0  0  0  0
    2.8660    1.8606    0.0000 H   0  0  0  0  0  0  0  0  0  0  0  0
    9.2573   -3.2094    0.0000 H   0  0  0  0  0  0  0  0  0  0  0  0
    6.0010    2.2906    0.0000 H   0  0  0  0  0  0  0  0  0  0  0  0
   11.1972   -2.3294    0.0000 H   0  0  0  0  0  0  0  0  0  0  0  0
    6.5422   -1.1020    0.0000 H   0  0  0  0  0  0  0  0  0  0  0  0
    6.9407   -0.4118    0.0000 H   0  0  0  0  0  0  0  0  0  0  0  0
   11.9248   -0.0445    0.0000 H   0  0  0  0  0  0  0  0  0  0  0  0
   11.1278   -0.0445    0.0000 H   0  0  0  0  0  0  0  0  0  0  0  0
    8.7162   -3.4368    0.0000 H   0  0  0  0  0  0  0  0  0  0  0  0
    8.3176   -4.1271    0.0000 H   0  0  0  0  0  0  0  0  0  0  0  0
   11.2708   -4.1271    0.0000 H   0  0  0  0  0  0  0  0  0  0  0  0
   10.8723   -3.4368    0.0000 H   0  0  0  0  0  0  0  0  0  0  0  0
    1.6900    2.5175    0.0000 H   0  0  0  0  0  0  0  0  0  0  0  0
    1.4631    1.6706    0.0000 H   0  0  0  0  0  0  0  0  0  0  0  0
    2.3100    1.4436    0.0000 H   0  0  0  0  0  0  0  0  0  0  0  0
    3.4860    3.4806    0.0000 H   0  0  0  0  0  0  0  0  0  0  0  0
    2.8660    4.1006    0.0000 H   0  0  0  0  0  0  0  0  0  0  0  0
    2.2460    3.4806    0.0000 H   0  0  0  0  0  0  0  0  0  0  0  0
    8.3082   -5.0194    0.0000 H   0  0  0  0  0  0  0  0  0  0  0  0
    8.9282   -5.6394    0.0000 H   0  0  0  0  0  0  0  0  0  0  0  0
    9.5482   -5.0194    0.0000 H   0  0  0  0  0  0  0  0  0  0  0  0
   10.0403   -5.0194    0.0000 H   0  0  0  0  0  0  0  0  0  0  0  0
   10.6603   -5.6394    0.0000 H   0  0  0  0  0  0  0  0  0  0  0  0
   11.2803   -5.0194    0.0000 H   0  0  0  0  0  0  0  0  0  0  0  0
    3.7320    4.6006    0.0000 H   0  0  0  0  0  0  0  0  0  0  0  0
    4.9272   -2.3294    0.0000 H   0  0  0  0  0  0  0  0  0  0  0  0
   13.7953   -0.8294    0.0000 H   0  0  0  0  0  0  0  0  0  0  0  0
  1 21  2  0  0  0  0
  2 24  2  0  0  0  0
  3 29  2  0  0  0  0
  4 32  2  0  0  0  0
  5 35  2  0  0  0  0
  6 40  1  0  0  0  0
  6 87  1  0  0  0  0
  7 40  2  0  0  0  0
  8 43  1  0  0  0  0
  8 88  1  0  0  0  0
  9 44  1  0  0  0  0
  9 89  1  0  0  0  0
 10 43  2  0  0  0  0
 11 44  2  0  0  0  0
 12 19  1  0  0  0  0
 12 20  1  0  0  0  0
 12 21  1  0  0  0  0
 23 13  1  6  0  0  0
 13 29  1  0  0  0  0
 13 56  1  0  0  0  0
 14 24  1  0  0  0  0
 25 14  1  1  0  0  0
 14 62  1  0  0  0  0
 26 15  1  6  0  0  0
 15 35  1  0  0  0  0
 15 66  1  0  0  0  0
 28 16  1  1  0  0  0
 16 32  1  0  0  0  0
 16 65  1  0  0  0  0
 17 18  1  0  0  0  0
 17 19  1  0  0  0  0
 17 45  1  0  0  0  0
 17 46  1  0  0  0  0
 18 20  1  0  0  0  0
 18 47  1  0  0  0  0
 18 48  1  0  0  0  0
 19 49  1  0  0  0  0
 19 50  1  0  0  0  0
 20 51  1  0  0  0  0
 20 52  1  0  0  0  0
 21 22  1  0  0  0  0
 22 23  1  0  0  0  0
 22 53  1  0  0  0  0
 22 54  1  0  0  0  0
 23 24  1  0  0  0  0
 23 55  1  0  0  0  0
 25 32  1  0  0  0  0
 25 33  1  0  0  0  0
 25 57  1  0  0  0  0
 26 29  1  0  0  0  0
 26 34  1  0  0  0  0
 26 58  1  0  0  0  0
 27 28  1  0  0  0  0
 27 30  1  0  0  0  0
 27 59  1  0  0  0  0
 27 60  1  0  0  0  0
 28 40  1  0  0  0  0
 28 61  1  0  0  0  0
 30 38  1  0  0  0  0
 30 39  1  0  0  0  0
 30 63  1  0  0  0  0
 31 35  1  0  0  0  0
 31 36  1  0  0  0  0
 31 37  1  0  0  0  0
 31 64  1  0  0  0  0
 33 43  1  0  0  0  0
 33 67  1  0  0  0  0
 33 68  1  0  0  0  0
 34 44  1  0  0  0  0
 34 69  1  0  0  0  0
 34 70  1  0  0  0  0
 36 41  1  0  0  0  0
 36 71  1  0  0  0  0
 36 72  1  0  0  0  0
 37 42  1  0  0  0  0
 37 73  1  0  0  0  0
 37 74  1  0  0  0  0
 38 75  1  0  0  0  0
 38 76  1  0  0  0  0
 38 77  1  0  0  0  0
 39 78  1  0  0  0  0
 39 79  1  0  0  0  0
 39 80  1  0  0  0  0
 41 81  1  0  0  0  0
 41 82  1  0  0  0  0
 41 83  1  0  0  0  0
 42 84  1  0  0  0  0
 42 85  1  0  0  0  0
 42 86  1  0  0  0  0
M  END
> <PUBCHEM_COMPOUND_CID>
515357
> <PUBCHEM_COMPOUND_CANONICALIZED>
1
> <PUBCHEM_CACTVS_COMPLEXITY>
1070
> <PUBCHEM_CACTVS_HBOND_ACCEPTOR>
11
> <PUBCHEM_CACTVS_HBOND_DONOR>
7
> <PUBCHEM_CACTVS_ROTATABLE_BOND>
19
> <PUBCHEM_CACTVS_SUBSKEYS>
AAADcfB7vAAAAAAAAAAAAAAAAAAAAWAAAAAAAAAAAAAAAAAAAAAAHgAQCAAADSjBgAQCCAPAAgAIAAGQGAAAAAAAAAAAAIGIAAACQBoAwCAUQAAGFgCQAACvAAAOAAAAAAAAAAAAAAAAAAAAAAAAAAAAAA==
> <PUBCHEM_IUPAC_OPENEYE_NAME>
(2S)-2-[[(2S)-3-carboxy-2-[[(2S)-2-[[(2S)-3-carboxy-2-(2-ethylbutanoylamino)propanoyl]amino]-4-oxo-4-pyrrolidin-1-yl-butanoyl]amino]propanoyl]amino]-4-methyl-pentanoic acid
> <PUBCHEM_IUPAC_CAS_NAME>
(2S)-2-[[(2S)-3-carboxy-2-[[(2S)-2-[[(2S)-3-carboxy-2-[(2-ethyl-1-oxobutyl)amino]-1-oxopropyl]amino]-1,4-dioxo-4-(1-pyrrolidinyl)butyl]amino]-1-oxopropyl]amino]-4-methylpentanoic acid
> <PUBCHEM_IUPAC_NAME_MARKUP>
(2<I>S</I>)-2-[[(2<I>S</I>)-3-carboxy-2-[[(2<I>S</I>)-2-[[(2<I>S</I>)-3-carboxy-2-(2-ethylbutanoylamino)propanoyl]amino]-4-oxo-4-pyrrolidin-1-ylbutanoyl]amino]propanoyl]amino]-4-methylpentanoic acid
> <PUBCHEM_IUPAC_NAME>
(2S)-2-[[(2S)-3-carboxy-2-[[(2S)-2-[[(2S)-3-carboxy-2-(2-ethylbutanoylamino)propanoyl]amino]-4-oxo-4-pyrrolidin-1-ylbutanoyl]amino]propanoyl]amino]-4-methylpentanoic acid
> <PUBCHEM_IUPAC_SYSTEMATIC_NAME>
(2S)-2-[[(2S)-2-[[(2S)-2-[[(2S)-2-(2-ethylbutanoylamino)-4-oxidanyl-4-oxidanylidene-butanoyl]amino]-4-oxidanylidene-4-pyrrolidin-1-yl-butanoyl]amino]-4-oxidanyl-4-oxidanylidene-butanoyl]amino]-4-methyl-pentanoic acid
> <PUBCHEM_IUPAC_TRADITIONAL_NAME>
(2S)-2-[[(2S)-3-carboxy-2-[[(2S)-2-[[(2S)-3-carboxy-2-(2-ethylbutanoylamino)propanoyl]amino]-4-keto-4-pyrrolidino-butanoyl]amino]propanoyl]amino]-4-methyl-valeric acid
> <PUBCHEM_IUPAC_INCHI>
InChI=1S/C28H45N5O11/c1-5-16(6-2)24(39)29-18(13-22(35)36)26(41)30-17(12-21(34)33-9-7-8-10-33)25(40)31-19(14-23(37)38)27(42)32-20(28(43)44)11-15(3)4/h15-20H,5-14H2,1-4H3,(H,29,39)(H,30,41)(H,31,40)(H,32,42)(H,35,36)(H,37,38)(H,43,44)/t17-,18-,19-,20-/m0/s1
> <PUBCHEM_IUPAC_INCHIKEY>
UPTZIYUNAJLGLL-MUGJNUQGSA-N
> <PUBCHEM_XLOGP3_AA>
-0.3
> <PUBCHEM_EXACT_MASS>
627.31155727
> <PUBCHEM_MOLECULAR_FORMULA>
C28H45N5O11
> <PUBCHEM_MOLECULAR_WEIGHT>
627.7
> <PUBCHEM_OPENEYE_CAN_SMILES>
CCC(CC)C(=O)NC(CC(=O)O)C(=O)NC(CC(=O)N1CCCC1)C(=O)NC(CC(=O)O)C(=O)NC(CC(C)C)C(=O)O
> <PUBCHEM_OPENEYE_ISO_SMILES>
CCC(CC)C(=O)N[C@@H](CC(=O)O)C(=O)N[C@@H](CC(=O)N1CCCC1)C(=O)N[C@@H](CC(=O)O)C(=O)N[C@@H](CC(C)C)C(=O)O
> <PUBCHEM_CACTVS_TPSA>
249
> <PUBCHEM_MONOISOTOPIC_WEIGHT>
627.31155727
> <PUBCHEM_TOTAL_CHARGE>
0
> <PUBCHEM_HEAVY_ATOM_COUNT>
44
> <PUBCHEM_ATOM_DEF_STEREO_COUNT>
4
> <PUBCHEM_ATOM_UDEF_STEREO_COUNT>
0
> <PUBCHEM_BOND_DEF_STEREO_COUNT>
0
> <PUBCHEM_BOND_UDEF_STEREO_COUNT>
0
> <PUBCHEM_ISOTOPIC_ATOM_COUNT>
0
> <PUBCHEM_COMPONENT_COUNT>
1
> <PUBCHEM_CACTVS_TAUTO_COUNT>
-1
> <PUBCHEM_COORDINATE_TYPE>
1
5
255
> <PUBCHEM_BONDANNOTATIONS>
23  13  6
25  14  5
26  15  6
28  16  5
$$$$
