515372
  -OEChem-10302200282D
 96 96  0     1  0  0  0  0  0999 V2000
    7.1962    2.2306    0.0000 O   0  0  0  0  0  0  0  0  0  0  0  0
   10.6603    2.2306    0.0000 O   0  0  0  0  0  0  0  0  0  0  0  0
    4.5981   -0.2694    0.0000 O   0  0  0  0  0  0  0  0  0  0  0  0
   10.6603    1.2306    0.0000 O   0  0  0  0  0  0  0  0  0  0  0  0
   10.6603   -4.7694    0.0000 O   0  0  0  0  0  0  0  0  0  0  0  0
   11.5263   -2.2694    0.0000 O   0  0  0  0  0  0  0  0  0  0  0  0
   13.2583   -0.2694    0.0000 O   0  0  0  0  0  0  0  0  0  0  0  0
   12.3923   -1.7694    0.0000 O   0  0  0  0  0  0  0  0  0  0  0  0
    9.7942    3.7306    0.0000 N   0  0  0  0  0  0  0  0  0  0  0  0
    5.4641    1.2306    0.0000 N   0  0  0  0  0  0  0  0  0  0  0  0
    8.0622    0.7306    0.0000 N   0  0  0  0  0  0  0  0  0  0  0  0
    9.7942   -0.2694    0.0000 N   0  0  0  0  0  0  0  0  0  0  0  0
    9.7942   -2.2694    0.0000 N   0  0  0  0  0  0  0  0  0  0  0  0
    6.3301   -0.2694    0.0000 C   0  0  0  0  0  0  0  0  0  0  0  0
    6.3301    0.7306    0.0000 C   0  0  1  0  0  0  0  0  0  0  0  0
   10.6032    4.3184    0.0000 C   0  0  0  0  0  0  0  0  0  0  0  0
    8.9852    4.3184    0.0000 C   0  0  0  0  0  0  0  0  0  0  0  0
   10.2942    5.2694    0.0000 C   0  0  0  0  0  0  0  0  0  0  0  0
    9.2942    5.2694    0.0000 C   0  0  0  0  0  0  0  0  0  0  0  0
    8.9282    1.2306    0.0000 C   0  0  1  0  0  0  0  0  0  0  0  0
    6.3301   -1.2694    0.0000 C   0  0  0  0  0  0  0  0  0  0  0  0
    5.3301   -0.2694    0.0000 C   0  0  0  0  0  0  0  0  0  0  0  0
    7.3301   -0.2694    0.0000 C   0  0  0  0  0  0  0  0  0  0  0  0
    7.1962    1.2306    0.0000 C   0  0  0  0  0  0  0  0  0  0  0  0
    8.9282    2.2306    0.0000 C   0  0  0  0  0  0  0  0  0  0  0  0
    9.7942    2.7306    0.0000 C   0  0  0  0  0  0  0  0  0  0  0  0
    3.7320    1.2306    0.0000 C   0  0  0  0  0  0  0  0  0  0  0  0
    4.5981    0.7306    0.0000 C   0  0  0  0  0  0  0  0  0  0  0  0
    9.7942    0.7306    0.0000 C   0  0  0  0  0  0  0  0  0  0  0  0
    2.8660    0.7306    0.0000 C   0  0  0  0  0  0  0  0  0  0  0  0
    3.7320    2.2306    0.0000 C   0  0  0  0  0  0  0  0  0  0  0  0
    9.7942   -3.2694    0.0000 C   0  0  1  0  0  0  0  0  0  0  0  0
   10.6603   -0.7694    0.0000 C   0  0  2  0  0  0  0  0  0  0  0  0
    8.9282   -3.7694    0.0000 C   0  0  0  0  0  0  0  0  0  0  0  0
    8.9282   -4.7694    0.0000 C   0  0  0  0  0  0  0  0  0  0  0  0
   10.6603   -1.7694    0.0000 C   0  0  0  0  0  0  0  0  0  0  0  0
   11.5263   -0.2694    0.0000 C   0  0  0  0  0  0  0  0  0  0  0  0
   10.6603   -3.7694    0.0000 C   0  0  0  0  0  0  0  0  0  0  0  0
    2.0000    1.2306    0.0000 C   0  0  0  0  0  0  0  0  0  0  0  0
    2.8660    2.7306    0.0000 C   0  0  0  0  0  0  0  0  0  0  0  0
    8.0622   -5.2694    0.0000 C   0  0  0  0  0  0  0  0  0  0  0  0
    9.7942   -5.2694    0.0000 C   0  0  0  0  0  0  0  0  0  0  0  0
   12.3923   -0.7694    0.0000 C   0  0  0  0  0  0  0  0  0  0  0  0
    5.7932    0.4206    0.0000 H   0  0  0  0  0  0  0  0  0  0  0  0
   10.9132    3.7814    0.0000 H   0  0  0  0  0  0  0  0  0  0  0  0
   11.1696    4.5705    0.0000 H   0  0  0  0  0  0  0  0  0  0  0  0
    8.4188    4.5705    0.0000 H   0  0  0  0  0  0  0  0  0  0  0  0
    8.6752    3.7814    0.0000 H   0  0  0  0  0  0  0  0  0  0  0  0
   10.9007    5.3983    0.0000 H   0  0  0  0  0  0  0  0  0  0  0  0
   10.2294    5.8860    0.0000 H   0  0  0  0  0  0  0  0  0  0  0  0
    9.3590    5.8860    0.0000 H   0  0  0  0  0  0  0  0  0  0  0  0
    8.6878    5.3983    0.0000 H   0  0  0  0  0  0  0  0  0  0  0  0
    8.9282    0.6106    0.0000 H   0  0  0  0  0  0  0  0  0  0  0  0
    5.7101   -1.2694    0.0000 H   0  0  0  0  0  0  0  0  0  0  0  0
    6.3301   -1.8894    0.0000 H   0  0  0  0  0  0  0  0  0  0  0  0
    6.9501   -1.2694    0.0000 H   0  0  0  0  0  0  0  0  0  0  0  0
    5.3301    0.3506    0.0000 H   0  0  0  0  0  0  0  0  0  0  0  0
    4.7101   -0.2694    0.0000 H   0  0  0  0  0  0  0  0  0  0  0  0
    5.3301   -0.8894    0.0000 H   0  0  0  0  0  0  0  0  0  0  0  0
    7.3301   -0.8894    0.0000 H   0  0  0  0  0  0  0  0  0  0  0  0
    7.9501   -0.2694    0.0000 H   0  0  0  0  0  0  0  0  0  0  0  0
    7.3301    0.3506    0.0000 H   0  0  0  0  0  0  0  0  0  0  0  0
    8.7162    2.8132    0.0000 H   0  0  0  0  0  0  0  0  0  0  0  0
    8.3176    2.1229    0.0000 H   0  0  0  0  0  0  0  0  0  0  0  0
    5.4641    1.8506    0.0000 H   0  0  0  0  0  0  0  0  0  0  0  0
    8.0622    0.1106    0.0000 H   0  0  0  0  0  0  0  0  0  0  0  0
    3.7320    0.6106    0.0000 H   0  0  0  0  0  0  0  0  0  0  0  0
    2.4675    0.2556    0.0000 H   0  0  0  0  0  0  0  0  0  0  0  0
    3.2646    0.2556    0.0000 H   0  0  0  0  0  0  0  0  0  0  0  0
    4.3426    2.1229    0.0000 H   0  0  0  0  0  0  0  0  0  0  0  0
    3.9441    2.8132    0.0000 H   0  0  0  0  0  0  0  0  0  0  0  0
    9.2573   -2.9594    0.0000 H   0  0  0  0  0  0  0  0  0  0  0  0
   10.6603   -0.1494    0.0000 H   0  0  0  0  0  0  0  0  0  0  0  0
    8.7162   -3.1868    0.0000 H   0  0  0  0  0  0  0  0  0  0  0  0
    8.3176   -3.8771    0.0000 H   0  0  0  0  0  0  0  0  0  0  0  0
    9.2573   -0.5794    0.0000 H   0  0  0  0  0  0  0  0  0  0  0  0
    9.4651   -4.4594    0.0000 H   0  0  0  0  0  0  0  0  0  0  0  0
    9.2573   -1.9594    0.0000 H   0  0  0  0  0  0  0  0  0  0  0  0
   11.9248    0.2055    0.0000 H   0  0  0  0  0  0  0  0  0  0  0  0
   11.1278    0.2055    0.0000 H   0  0  0  0  0  0  0  0  0  0  0  0
   11.2708   -3.8771    0.0000 H   0  0  0  0  0  0  0  0  0  0  0  0
   10.8723   -3.1868    0.0000 H   0  0  0  0  0  0  0  0  0  0  0  0
    2.3100    1.7675    0.0000 H   0  0  0  0  0  0  0  0  0  0  0  0
    1.4631    1.5406    0.0000 H   0  0  0  0  0  0  0  0  0  0  0  0
    1.6900    0.6936    0.0000 H   0  0  0  0  0  0  0  0  0  0  0  0
    3.1760    3.2675    0.0000 H   0  0  0  0  0  0  0  0  0  0  0  0
    2.3291    3.0406    0.0000 H   0  0  0  0  0  0  0  0  0  0  0  0
    2.5560    2.1936    0.0000 H   0  0  0  0  0  0  0  0  0  0  0  0
    7.7522   -4.7325    0.0000 H   0  0  0  0  0  0  0  0  0  0  0  0
    7.5252   -5.5794    0.0000 H   0  0  0  0  0  0  0  0  0  0  0  0
    8.3722   -5.8064    0.0000 H   0  0  0  0  0  0  0  0  0  0  0  0
    9.4842   -5.8064    0.0000 H   0  0  0  0  0  0  0  0  0  0  0  0
   10.3312   -5.5794    0.0000 H   0  0  0  0  0  0  0  0  0  0  0  0
   10.1042   -4.7325    0.0000 H   0  0  0  0  0  0  0  0  0  0  0  0
   11.1972   -5.0794    0.0000 H   0  0  0  0  0  0  0  0  0  0  0  0
   13.7953   -0.5794    0.0000 H   0  0  0  0  0  0  0  0  0  0  0  0
  1 24  2  0  0  0  0
  2 26  2  0  0  0  0
  3 28  2  0  0  0  0
  4 29  2  0  0  0  0
  5 38  1  0  0  0  0
  5 95  1  0  0  0  0
  6 36  2  0  0  0  0
  7 43  1  0  0  0  0
  7 96  1  0  0  0  0
  8 43  2  0  0  0  0
  9 16  1  0  0  0  0
  9 17  1  0  0  0  0
  9 26  1  0  0  0  0
 15 10  1  6  0  0  0
 10 28  1  0  0  0  0
 10 65  1  0  0  0  0
 20 11  1  1  0  0  0
 11 24  1  0  0  0  0
 11 66  1  0  0  0  0
 12 29  1  0  0  0  0
 33 12  1  1  0  0  0
 12 76  1  0  0  0  0
 32 13  1  6  0  0  0
 13 36  1  0  0  0  0
 13 78  1  0  0  0  0
 14 15  1  0  0  0  0
 14 21  1  0  0  0  0
 14 22  1  0  0  0  0
 14 23  1  0  0  0  0
 15 24  1  0  0  0  0
 15 44  1  0  0  0  0
 16 18  1  0  0  0  0
 16 45  1  0  0  0  0
 16 46  1  0  0  0  0
 17 19  1  0  0  0  0
 17 47  1  0  0  0  0
 17 48  1  0  0  0  0
 18 19  1  0  0  0  0
 18 49  1  0  0  0  0
 18 50  1  0  0  0  0
 19 51  1  0  0  0  0
 19 52  1  0  0  0  0
 20 25  1  0  0  0  0
 20 29  1  0  0  0  0
 20 53  1  0  0  0  0
 21 54  1  0  0  0  0
 21 55  1  0  0  0  0
 21 56  1  0  0  0  0
 22 57  1  0  0  0  0
 22 58  1  0  0  0  0
 22 59  1  0  0  0  0
 23 60  1  0  0  0  0
 23 61  1  0  0  0  0
 23 62  1  0  0  0  0
 25 26  1  0  0  0  0
 25 63  1  0  0  0  0
 25 64  1  0  0  0  0
 27 28  1  0  0  0  0
 27 30  1  0  0  0  0
 27 31  1  0  0  0  0
 27 67  1  0  0  0  0
 30 39  1  0  0  0  0
 30 68  1  0  0  0  0
 30 69  1  0  0  0  0
 31 40  1  0  0  0  0
 31 70  1  0  0  0  0
 31 71  1  0  0  0  0
 32 34  1  0  0  0  0
 32 38  1  0  0  0  0
 32 72  1  0  0  0  0
 33 36  1  0  0  0  0
 33 37  1  0  0  0  0
 33 73  1  0  0  0  0
 34 35  1  0  0  0  0
 34 74  1  0  0  0  0
 34 75  1  0  0  0  0
 35 41  1  0  0  0  0
 35 42  1  0  0  0  0
 35 77  1  0  0  0  0
 37 43  1  0  0  0  0
 37 79  1  0  0  0  0
 37 80  1  0  0  0  0
 38 81  1  0  0  0  0
 38 82  1  0  0  0  0
 39 83  1  0  0  0  0
 39 84  1  0  0  0  0
 39 85  1  0  0  0  0
 40 86  1  0  0  0  0
 40 87  1  0  0  0  0
 40 88  1  0  0  0  0
 41 89  1  0  0  0  0
 41 90  1  0  0  0  0
 41 91  1  0  0  0  0
 42 92  1  0  0  0  0
 42 93  1  0  0  0  0
 42 94  1  0  0  0  0
M  END
> <PUBCHEM_COMPOUND_CID>
515372
> <PUBCHEM_COMPOUND_CANONICALIZED>
1
> <PUBCHEM_CACTVS_COMPLEXITY>
970
> <PUBCHEM_CACTVS_HBOND_ACCEPTOR>
8
> <PUBCHEM_CACTVS_HBOND_DONOR>
6
> <PUBCHEM_CACTVS_ROTATABLE_BOND>
18
> <PUBCHEM_CACTVS_SUBSKEYS>
AAADcfB7vAAAAAAAAAAAAAAAAAAAAWAAAAAAAAAAAAAAAAAAAAAAHgAQCAAADyjhgAYCCAPAAgAIAAGQGAAAAAAAAAAAAIGIAAACUBoAwCAUQAAGFgCQAACnAAAPAAAAAAAAAAAAAAAAAAAAAAAAAAAAAA==
> <PUBCHEM_IUPAC_OPENEYE_NAME>
(3S)-3-[[(2S)-2-[[(2S)-2-(2-ethylbutanoylamino)-3,3-dimethyl-butanoyl]amino]-4-oxo-4-pyrrolidin-1-yl-butanoyl]amino]-4-[[(1S)-1-(hydroxymethyl)-3-methyl-butyl]amino]-4-oxo-butanoic acid
> <PUBCHEM_IUPAC_CAS_NAME>
(3S)-3-[[(2S)-2-[[(2S)-2-[(2-ethyl-1-oxobutyl)amino]-3,3-dimethyl-1-oxobutyl]amino]-1,4-dioxo-4-(1-pyrrolidinyl)butyl]amino]-4-[[(2S)-1-hydroxy-4-methylpentan-2-yl]amino]-4-oxobutanoic acid
> <PUBCHEM_IUPAC_NAME_MARKUP>
(3<I>S</I>)-3-[[(2<I>S</I>)-2-[[(2<I>S</I>)-2-(2-ethylbutanoylamino)-3,3-dimethylbutanoyl]amino]-4-oxo-4-pyrrolidin-1-ylbutanoyl]amino]-4-[[(2<I>S</I>)-1-hydroxy-4-methylpentan-2-yl]amino]-4-oxobutanoic acid
> <PUBCHEM_IUPAC_NAME>
(3S)-3-[[(2S)-2-[[(2S)-2-(2-ethylbutanoylamino)-3,3-dimethylbutanoyl]amino]-4-oxo-4-pyrrolidin-1-ylbutanoyl]amino]-4-[[(2S)-1-hydroxy-4-methylpentan-2-yl]amino]-4-oxobutanoic acid
> <PUBCHEM_IUPAC_SYSTEMATIC_NAME>
(3S)-3-[[(2S)-2-[[(2S)-2-(2-ethylbutanoylamino)-3,3-dimethyl-butanoyl]amino]-4-oxidanylidene-4-pyrrolidin-1-yl-butanoyl]amino]-4-[[(2S)-4-methyl-1-oxidanyl-pentan-2-yl]amino]-4-oxidanylidene-butanoic acid
> <PUBCHEM_IUPAC_TRADITIONAL_NAME>
(3S)-3-[[(2S)-2-[[(2S)-2-(2-ethylbutanoylamino)-3,3-dimethyl-butanoyl]amino]-4-keto-4-pyrrolidino-butanoyl]amino]-4-keto-4-[[(1S)-3-methyl-1-methylol-butyl]amino]butyric acid
> <PUBCHEM_IUPAC_INCHI>
InChI=1S/C30H53N5O8/c1-8-19(9-2)26(40)34-25(30(5,6)7)29(43)33-21(15-23(37)35-12-10-11-13-35)28(42)32-22(16-24(38)39)27(41)31-20(17-36)14-18(3)4/h18-22,25,36H,8-17H2,1-7H3,(H,31,41)(H,32,42)(H,33,43)(H,34,40)(H,38,39)/t20-,21-,22-,25+/m0/s1
> <PUBCHEM_IUPAC_INCHIKEY>
XWGCZIYIQOQUJD-DEJKCJRPSA-N
> <PUBCHEM_XLOGP3_AA>
1.6
> <PUBCHEM_EXACT_MASS>
611.38941367
> <PUBCHEM_MOLECULAR_FORMULA>
C30H53N5O8
> <PUBCHEM_MOLECULAR_WEIGHT>
611.8
> <PUBCHEM_OPENEYE_CAN_SMILES>
CCC(CC)C(=O)NC(C(=O)NC(CC(=O)N1CCCC1)C(=O)NC(CC(=O)O)C(=O)NC(CC(C)C)CO)C(C)(C)C
> <PUBCHEM_OPENEYE_ISO_SMILES>
CCC(CC)C(=O)N[C@H](C(=O)N[C@@H](CC(=O)N1CCCC1)C(=O)N[C@@H](CC(=O)O)C(=O)N[C@@H](CC(C)C)CO)C(C)(C)C
> <PUBCHEM_CACTVS_TPSA>
194
> <PUBCHEM_MONOISOTOPIC_WEIGHT>
611.38941367
> <PUBCHEM_TOTAL_CHARGE>
0
> <PUBCHEM_HEAVY_ATOM_COUNT>
43
> <PUBCHEM_ATOM_DEF_STEREO_COUNT>
4
> <PUBCHEM_ATOM_UDEF_STEREO_COUNT>
0
> <PUBCHEM_BOND_DEF_STEREO_COUNT>
0
> <PUBCHEM_BOND_UDEF_STEREO_COUNT>
0
> <PUBCHEM_ISOTOPIC_ATOM_COUNT>
0
> <PUBCHEM_COMPONENT_COUNT>
1
> <PUBCHEM_CACTVS_TAUTO_COUNT>
-1
> <PUBCHEM_COORDINATE_TYPE>
1
5
255
> <PUBCHEM_BONDANNOTATIONS>
15  10  6
20  11  5
33  12  5
32  13  6
$$$$
