515407
  -OEChem-10302200282D
 80 84  0     1  0  0  0  0  0999 V2000
   10.7262   -1.7531    0.0000 O   0  0  0  0  0  0  0  0  0  0  0  0
   14.2525    1.2711    0.0000 O   0  0  0  0  0  0  0  0  0  0  0  0
    7.2000    1.2711    0.0000 O   0  0  0  0  0  0  0  0  0  0  0  0
   17.7204    0.2844    0.0000 N   0  0  0  0  0  0  0  0  0  0  0  0
    3.7320    0.2844    0.0000 N   0  0  0  0  0  0  0  0  0  0  0  0
   18.5884   -0.2122    0.0000 C   0  0  0  0  0  0  0  0  0  0  0  0
   17.7166    1.2844    0.0000 C   0  0  0  0  0  0  0  0  0  0  0  0
    3.7359    1.2844    0.0000 C   0  0  0  0  0  0  0  0  0  0  0  0
    2.8641   -0.2122    0.0000 C   0  0  0  0  0  0  0  0  0  0  0  0
   19.4525    0.2911    0.0000 C   0  0  0  0  0  0  0  0  0  0  0  0
   18.5807    1.7878    0.0000 C   0  0  0  0  0  0  0  0  0  0  0  0
    2.8718    1.7878    0.0000 C   0  0  0  0  0  0  0  0  0  0  0  0
    2.0000    0.2911    0.0000 C   0  0  0  0  0  0  0  0  0  0  0  0
   19.4486    1.2911    0.0000 C   0  0  0  0  0  0  0  0  0  0  0  0
    2.0038    1.2911    0.0000 C   0  0  0  0  0  0  0  0  0  0  0  0
   16.8563   -0.2189    0.0000 C   0  0  0  0  0  0  0  0  0  0  0  0
    4.5961   -0.2189    0.0000 C   0  0  0  0  0  0  0  0  0  0  0  0
   15.9884    0.2777    0.0000 C   0  0  0  0  0  0  0  0  0  0  0  0
    5.4641    0.2777    0.0000 C   0  0  0  0  0  0  0  0  0  0  0  0
   15.1243   -0.2256    0.0000 C   0  0  0  0  0  0  0  0  0  0  0  0
    6.3282   -0.2256    0.0000 C   0  0  0  0  0  0  0  0  0  0  0  0
   14.2564    0.2711    0.0000 C   0  0  3  0  0  0  0  0  0  0  0  0
    7.1961    0.2711    0.0000 C   0  0  3  0  0  0  0  0  0  0  0  0
   13.3923   -0.2323    0.0000 C   0  0  0  0  0  0  0  0  0  0  0  0
    8.0602   -0.2323    0.0000 C   0  0  0  0  0  0  0  0  0  0  0  0
   11.5923   -0.2531    0.0000 C   0  0  0  0  0  0  0  0  0  0  0  0
    9.8602   -0.2531    0.0000 C   0  0  0  0  0  0  0  0  0  0  0  0
   10.7262    0.2469    0.0000 C   0  0  0  0  0  0  0  0  0  0  0  0
   12.4862    0.2816    0.0000 C   0  0  0  0  0  0  0  0  0  0  0  0
    8.9663    0.2816    0.0000 C   0  0  0  0  0  0  0  0  0  0  0  0
   11.5923   -1.2531    0.0000 C   0  0  0  0  0  0  0  0  0  0  0  0
    9.8602   -1.2531    0.0000 C   0  0  0  0  0  0  0  0  0  0  0  0
   13.3923   -1.2739    0.0000 C   0  0  0  0  0  0  0  0  0  0  0  0
    8.0602   -1.2739    0.0000 C   0  0  0  0  0  0  0  0  0  0  0  0
   12.4862   -1.7878    0.0000 C   0  0  0  0  0  0  0  0  0  0  0  0
    8.9663   -1.7878    0.0000 C   0  0  0  0  0  0  0  0  0  0  0  0
   18.1917   -0.6887    0.0000 H   0  0  0  0  0  0  0  0  0  0  0  0
   18.9887   -0.6856    0.0000 H   0  0  0  0  0  0  0  0  0  0  0  0
   17.5023    1.8662    0.0000 H   0  0  0  0  0  0  0  0  0  0  0  0
   17.1064    1.1744    0.0000 H   0  0  0  0  0  0  0  0  0  0  0  0
    4.3460    1.1744    0.0000 H   0  0  0  0  0  0  0  0  0  0  0  0
    3.9502    1.8662    0.0000 H   0  0  0  0  0  0  0  0  0  0  0  0
    2.4637   -0.6856    0.0000 H   0  0  0  0  0  0  0  0  0  0  0  0
    3.2608   -0.6887    0.0000 H   0  0  0  0  0  0  0  0  0  0  0  0
   19.6668   -0.2907    0.0000 H   0  0  0  0  0  0  0  0  0  0  0  0
   20.0626    0.4011    0.0000 H   0  0  0  0  0  0  0  0  0  0  0  0
   18.9774    2.2642    0.0000 H   0  0  0  0  0  0  0  0  0  0  0  0
   18.1803    2.2612    0.0000 H   0  0  0  0  0  0  0  0  0  0  0  0
    3.2722    2.2612    0.0000 H   0  0  0  0  0  0  0  0  0  0  0  0
    2.4751    2.2642    0.0000 H   0  0  0  0  0  0  0  0  0  0  0  0
    1.3898    0.4011    0.0000 H   0  0  0  0  0  0  0  0  0  0  0  0
    1.7857   -0.2907    0.0000 H   0  0  0  0  0  0  0  0  0  0  0  0
   20.0596    1.1858    0.0000 H   0  0  0  0  0  0  0  0  0  0  0  0
   19.6584    1.8745    0.0000 H   0  0  0  0  0  0  0  0  0  0  0  0
    1.7940    1.8745    0.0000 H   0  0  0  0  0  0  0  0  0  0  0  0
    1.3929    1.1858    0.0000 H   0  0  0  0  0  0  0  0  0  0  0  0
   16.4597   -0.6954    0.0000 H   0  0  0  0  0  0  0  0  0  0  0  0
   17.2567   -0.6923    0.0000 H   0  0  0  0  0  0  0  0  0  0  0  0
    4.1958   -0.6923    0.0000 H   0  0  0  0  0  0  0  0  0  0  0  0
    4.9928   -0.6954    0.0000 H   0  0  0  0  0  0  0  0  0  0  0  0
   16.3851    0.7542    0.0000 H   0  0  0  0  0  0  0  0  0  0  0  0
   15.5880    0.7512    0.0000 H   0  0  0  0  0  0  0  0  0  0  0  0
    5.8644    0.7512    0.0000 H   0  0  0  0  0  0  0  0  0  0  0  0
    5.0674    0.7542    0.0000 H   0  0  0  0  0  0  0  0  0  0  0  0
   14.7276   -0.7021    0.0000 H   0  0  0  0  0  0  0  0  0  0  0  0
   15.5247   -0.6990    0.0000 H   0  0  0  0  0  0  0  0  0  0  0  0
    5.9278   -0.6990    0.0000 H   0  0  0  0  0  0  0  0  0  0  0  0
    6.7249   -0.7021    0.0000 H   0  0  0  0  0  0  0  0  0  0  0  0
   14.7921    0.5831    0.0000 H   0  0  0  0  0  0  0  0  0  0  0  0
    6.6604    0.5831    0.0000 H   0  0  0  0  0  0  0  0  0  0  0  0
   11.1248    0.7219    0.0000 H   0  0  0  0  0  0  0  0  0  0  0  0
   10.3277    0.7219    0.0000 H   0  0  0  0  0  0  0  0  0  0  0  0
   12.4790    0.9015    0.0000 H   0  0  0  0  0  0  0  0  0  0  0  0
    8.9734    0.9015    0.0000 H   0  0  0  0  0  0  0  0  0  0  0  0
   13.9280   -1.5860    0.0000 H   0  0  0  0  0  0  0  0  0  0  0  0
    7.5245   -1.5860    0.0000 H   0  0  0  0  0  0  0  0  0  0  0  0
   12.4790   -2.4077    0.0000 H   0  0  0  0  0  0  0  0  0  0  0  0
    8.9734   -2.4077    0.0000 H   0  0  0  0  0  0  0  0  0  0  0  0
   14.7882    1.5831    0.0000 H   0  0  0  0  0  0  0  0  0  0  0  0
    6.6642    1.5831    0.0000 H   0  0  0  0  0  0  0  0  0  0  0  0
  1 31  1  0  0  0  0
  1 32  1  0  0  0  0
  2 22  1  0  0  0  0
  2 79  1  0  0  0  0
  3 23  1  0  0  0  0
  3 80  1  0  0  0  0
  4  6  1  0  0  0  0
  4  7  1  0  0  0  0
  4 16  1  0  0  0  0
  5  8  1  0  0  0  0
  5  9  1  0  0  0  0
  5 17  1  0  0  0  0
  6 10  1  0  0  0  0
  6 37  1  0  0  0  0
  6 38  1  0  0  0  0
  7 11  1  0  0  0  0
  7 39  1  0  0  0  0
  7 40  1  0  0  0  0
  8 12  1  0  0  0  0
  8 41  1  0  0  0  0
  8 42  1  0  0  0  0
  9 13  1  0  0  0  0
  9 43  1  0  0  0  0
  9 44  1  0  0  0  0
 10 14  1  0  0  0  0
 10 45  1  0  0  0  0
 10 46  1  0  0  0  0
 11 14  1  0  0  0  0
 11 47  1  0  0  0  0
 11 48  1  0  0  0  0
 12 15  1  0  0  0  0
 12 49  1  0  0  0  0
 12 50  1  0  0  0  0
 13 15  1  0  0  0  0
 13 51  1  0  0  0  0
 13 52  1  0  0  0  0
 14 53  1  0  0  0  0
 14 54  1  0  0  0  0
 15 55  1  0  0  0  0
 15 56  1  0  0  0  0
 16 18  1  0  0  0  0
 16 57  1  0  0  0  0
 16 58  1  0  0  0  0
 17 19  1  0  0  0  0
 17 59  1  0  0  0  0
 17 60  1  0  0  0  0
 18 20  1  0  0  0  0
 18 61  1  0  0  0  0
 18 62  1  0  0  0  0
 19 21  1  0  0  0  0
 19 63  1  0  0  0  0
 19 64  1  0  0  0  0
 20 22  1  0  0  0  0
 20 65  1  0  0  0  0
 20 66  1  0  0  0  0
 21 23  1  0  0  0  0
 21 67  1  0  0  0  0
 21 68  1  0  0  0  0
 22 24  1  0  0  0  0
 22 69  1  0  0  0  0
 23 25  1  0  0  0  0
 23 70  1  0  0  0  0
 24 29  2  0  0  0  0
 24 33  1  0  0  0  0
 25 30  2  0  0  0  0
 25 34  1  0  0  0  0
 26 28  1  0  0  0  0
 26 29  1  0  0  0  0
 26 31  2  0  0  0  0
 27 28  1  0  0  0  0
 27 30  1  0  0  0  0
 27 32  2  0  0  0  0
 28 71  1  0  0  0  0
 28 72  1  0  0  0  0
 29 73  1  0  0  0  0
 30 74  1  0  0  0  0
 31 35  1  0  0  0  0
 32 36  1  0  0  0  0
 33 35  2  0  0  0  0
 33 75  1  0  0  0  0
 34 36  2  0  0  0  0
 34 76  1  0  0  0  0
 35 77  1  0  0  0  0
 36 78  1  0  0  0  0
M  END
> <PUBCHEM_COMPOUND_CID>
515407
> <PUBCHEM_COMPOUND_CANONICALIZED>
1
> <PUBCHEM_CACTVS_COMPLEXITY>
583
> <PUBCHEM_CACTVS_HBOND_ACCEPTOR>
5
> <PUBCHEM_CACTVS_HBOND_DONOR>
2
> <PUBCHEM_CACTVS_ROTATABLE_BOND>
10
> <PUBCHEM_CACTVS_SUBSKEYS>
AAADcfB7MAAAAAAAAAAAAAAAAAAAAAAAAAA8eJECAAAAAACRQAAAHgAACAAADBThmAYwBoMABgCAAiBCAAACCAAgIAAIiAAOCIgMNiKEsRqGeCCkwBGIuAew4OwOIAACAAAIAABAAAQAABAAAAAAAAAAAA==
> <PUBCHEM_IUPAC_OPENEYE_NAME>
1-[7-[1-hydroxy-4-(1-piperidyl)butyl]-9H-xanthen-2-yl]-4-(1-piperidyl)butan-1-ol
> <PUBCHEM_IUPAC_CAS_NAME>
1-[7-[1-hydroxy-4-(1-piperidinyl)butyl]-9H-xanthen-2-yl]-4-(1-piperidinyl)-1-butanol
> <PUBCHEM_IUPAC_NAME_MARKUP>
1-[7-(1-hydroxy-4-piperidin-1-ylbutyl)-9<I>H</I>-xanthen-2-yl]-4-piperidin-1-ylbutan-1-ol
> <PUBCHEM_IUPAC_NAME>
1-[7-(1-hydroxy-4-piperidin-1-ylbutyl)-9H-xanthen-2-yl]-4-piperidin-1-ylbutan-1-ol
> <PUBCHEM_IUPAC_SYSTEMATIC_NAME>
1-[7-(1-oxidanyl-4-piperidin-1-yl-butyl)-9H-xanthen-2-yl]-4-piperidin-1-yl-butan-1-ol
> <PUBCHEM_IUPAC_TRADITIONAL_NAME>
1-[7-(1-hydroxy-4-piperidino-butyl)-9H-xanthen-2-yl]-4-piperidino-butan-1-ol
> <PUBCHEM_IUPAC_INCHI>
InChI=1S/C31H44N2O3/c34-28(9-7-19-32-15-3-1-4-16-32)24-11-13-30-26(21-24)23-27-22-25(12-14-31(27)36-30)29(35)10-8-20-33-17-5-2-6-18-33/h11-14,21-22,28-29,34-35H,1-10,15-20,23H2
> <PUBCHEM_IUPAC_INCHIKEY>
OMORUUPDXUCYCW-UHFFFAOYSA-N
> <PUBCHEM_XLOGP3_AA>
4.9
> <PUBCHEM_EXACT_MASS>
492.33519327
> <PUBCHEM_MOLECULAR_FORMULA>
C31H44N2O3
> <PUBCHEM_MOLECULAR_WEIGHT>
492.7
> <PUBCHEM_OPENEYE_CAN_SMILES>
C1CCN(CC1)CCCC(C2=CC3=C(C=C2)OC4=C(C3)C=C(C=C4)C(CCCN5CCCCC5)O)O
> <PUBCHEM_OPENEYE_ISO_SMILES>
C1CCN(CC1)CCCC(C2=CC3=C(C=C2)OC4=C(C3)C=C(C=C4)C(CCCN5CCCCC5)O)O
> <PUBCHEM_CACTVS_TPSA>
56.2
> <PUBCHEM_MONOISOTOPIC_WEIGHT>
492.33519327
> <PUBCHEM_TOTAL_CHARGE>
0
> <PUBCHEM_HEAVY_ATOM_COUNT>
36
> <PUBCHEM_ATOM_DEF_STEREO_COUNT>
0
> <PUBCHEM_ATOM_UDEF_STEREO_COUNT>
2
> <PUBCHEM_BOND_DEF_STEREO_COUNT>
0
> <PUBCHEM_BOND_UDEF_STEREO_COUNT>
0
> <PUBCHEM_ISOTOPIC_ATOM_COUNT>
0
> <PUBCHEM_COMPONENT_COUNT>
1
> <PUBCHEM_CACTVS_TAUTO_COUNT>
-1
> <PUBCHEM_COORDINATE_TYPE>
1
5
255
> <PUBCHEM_BONDANNOTATIONS>
22  2  3
24  29  8
24  33  8
25  30  8
25  34  8
26  29  8
26  31  8
27  30  8
27  32  8
23  3  3
31  35  8
32  36  8
33  35  8
34  36  8
$$$$
