515406
  -OEChem-10302200282D
 78 80  0     1  0  0  0  0  0999 V2000
   10.7262   -1.7531    0.0000 O   0  0  0  0  0  0  0  0  0  0  0  0
   14.2525    1.2711    0.0000 O   0  0  0  0  0  0  0  0  0  0  0  0
    7.2000    1.2711    0.0000 O   0  0  0  0  0  0  0  0  0  0  0  0
   17.7204    0.2844    0.0000 N   0  0  0  0  0  0  0  0  0  0  0  0
    3.7320    0.2844    0.0000 N   0  0  0  0  0  0  0  0  0  0  0  0
   14.2564    0.2711    0.0000 C   0  0  3  0  0  0  0  0  0  0  0  0
    7.1961    0.2711    0.0000 C   0  0  3  0  0  0  0  0  0  0  0  0
   15.1243   -0.2256    0.0000 C   0  0  0  0  0  0  0  0  0  0  0  0
    6.3282   -0.2256    0.0000 C   0  0  0  0  0  0  0  0  0  0  0  0
   15.9884    0.2777    0.0000 C   0  0  0  0  0  0  0  0  0  0  0  0
    5.4641    0.2777    0.0000 C   0  0  0  0  0  0  0  0  0  0  0  0
   10.7262    0.2469    0.0000 C   0  0  0  0  0  0  0  0  0  0  0  0
   11.5923   -0.2531    0.0000 C   0  0  0  0  0  0  0  0  0  0  0  0
    9.8602   -0.2531    0.0000 C   0  0  0  0  0  0  0  0  0  0  0  0
   13.3923   -0.2323    0.0000 C   0  0  0  0  0  0  0  0  0  0  0  0
    8.0602   -0.2323    0.0000 C   0  0  0  0  0  0  0  0  0  0  0  0
   16.8563   -0.2189    0.0000 C   0  0  0  0  0  0  0  0  0  0  0  0
    4.5961   -0.2189    0.0000 C   0  0  0  0  0  0  0  0  0  0  0  0
   11.5923   -1.2531    0.0000 C   0  0  0  0  0  0  0  0  0  0  0  0
    9.8602   -1.2531    0.0000 C   0  0  0  0  0  0  0  0  0  0  0  0
   12.4862    0.2816    0.0000 C   0  0  0  0  0  0  0  0  0  0  0  0
    8.9663    0.2816    0.0000 C   0  0  0  0  0  0  0  0  0  0  0  0
   13.3923   -1.2739    0.0000 C   0  0  0  0  0  0  0  0  0  0  0  0
    8.0602   -1.2739    0.0000 C   0  0  0  0  0  0  0  0  0  0  0  0
   12.4862   -1.7878    0.0000 C   0  0  0  0  0  0  0  0  0  0  0  0
    8.9663   -1.7878    0.0000 C   0  0  0  0  0  0  0  0  0  0  0  0
   18.5884   -0.2122    0.0000 C   0  0  0  0  0  0  0  0  0  0  0  0
   17.7166    1.2844    0.0000 C   0  0  0  0  0  0  0  0  0  0  0  0
    2.8641   -0.2122    0.0000 C   0  0  0  0  0  0  0  0  0  0  0  0
    3.7359    1.2844    0.0000 C   0  0  0  0  0  0  0  0  0  0  0  0
   19.4525    0.2911    0.0000 C   0  0  0  0  0  0  0  0  0  0  0  0
   18.5807    1.7878    0.0000 C   0  0  0  0  0  0  0  0  0  0  0  0
    2.0000    0.2911    0.0000 C   0  0  0  0  0  0  0  0  0  0  0  0
    2.8718    1.7878    0.0000 C   0  0  0  0  0  0  0  0  0  0  0  0
   14.9908    0.6989    0.0000 H   0  0  0  0  0  0  0  0  0  0  0  0
    6.4616    0.6989    0.0000 H   0  0  0  0  0  0  0  0  0  0  0  0
   14.7276   -0.7021    0.0000 H   0  0  0  0  0  0  0  0  0  0  0  0
   15.5247   -0.6990    0.0000 H   0  0  0  0  0  0  0  0  0  0  0  0
    5.9278   -0.6990    0.0000 H   0  0  0  0  0  0  0  0  0  0  0  0
    6.7249   -0.7021    0.0000 H   0  0  0  0  0  0  0  0  0  0  0  0
   16.3851    0.7542    0.0000 H   0  0  0  0  0  0  0  0  0  0  0  0
   15.5880    0.7512    0.0000 H   0  0  0  0  0  0  0  0  0  0  0  0
    5.8644    0.7512    0.0000 H   0  0  0  0  0  0  0  0  0  0  0  0
    5.0674    0.7542    0.0000 H   0  0  0  0  0  0  0  0  0  0  0  0
   11.1248    0.7219    0.0000 H   0  0  0  0  0  0  0  0  0  0  0  0
   10.3277    0.7219    0.0000 H   0  0  0  0  0  0  0  0  0  0  0  0
   16.4597   -0.6954    0.0000 H   0  0  0  0  0  0  0  0  0  0  0  0
   17.2567   -0.6923    0.0000 H   0  0  0  0  0  0  0  0  0  0  0  0
    4.1958   -0.6923    0.0000 H   0  0  0  0  0  0  0  0  0  0  0  0
    4.9928   -0.6954    0.0000 H   0  0  0  0  0  0  0  0  0  0  0  0
   12.4790    0.9015    0.0000 H   0  0  0  0  0  0  0  0  0  0  0  0
    8.9734    0.9015    0.0000 H   0  0  0  0  0  0  0  0  0  0  0  0
   13.9280   -1.5860    0.0000 H   0  0  0  0  0  0  0  0  0  0  0  0
    7.5245   -1.5860    0.0000 H   0  0  0  0  0  0  0  0  0  0  0  0
   12.4790   -2.4077    0.0000 H   0  0  0  0  0  0  0  0  0  0  0  0
    8.9734   -2.4077    0.0000 H   0  0  0  0  0  0  0  0  0  0  0  0
   18.1917   -0.6887    0.0000 H   0  0  0  0  0  0  0  0  0  0  0  0
   18.9887   -0.6856    0.0000 H   0  0  0  0  0  0  0  0  0  0  0  0
   17.5023    1.8662    0.0000 H   0  0  0  0  0  0  0  0  0  0  0  0
   17.1064    1.1744    0.0000 H   0  0  0  0  0  0  0  0  0  0  0  0
    2.4637   -0.6856    0.0000 H   0  0  0  0  0  0  0  0  0  0  0  0
    3.2608   -0.6887    0.0000 H   0  0  0  0  0  0  0  0  0  0  0  0
    4.3460    1.1744    0.0000 H   0  0  0  0  0  0  0  0  0  0  0  0
    3.9502    1.8662    0.0000 H   0  0  0  0  0  0  0  0  0  0  0  0
   14.7882    1.5831    0.0000 H   0  0  0  0  0  0  0  0  0  0  0  0
    6.6642    1.5831    0.0000 H   0  0  0  0  0  0  0  0  0  0  0  0
   19.7645   -0.2446    0.0000 H   0  0  0  0  0  0  0  0  0  0  0  0
   19.9882    0.6032    0.0000 H   0  0  0  0  0  0  0  0  0  0  0  0
   19.1404    0.8268    0.0000 H   0  0  0  0  0  0  0  0  0  0  0  0
   18.8927    1.2520    0.0000 H   0  0  0  0  0  0  0  0  0  0  0  0
   19.1164    2.0998    0.0000 H   0  0  0  0  0  0  0  0  0  0  0  0
   18.2686    2.3235    0.0000 H   0  0  0  0  0  0  0  0  0  0  0  0
    2.3121    0.8268    0.0000 H   0  0  0  0  0  0  0  0  0  0  0  0
    1.4643    0.6032    0.0000 H   0  0  0  0  0  0  0  0  0  0  0  0
    1.6879   -0.2446    0.0000 H   0  0  0  0  0  0  0  0  0  0  0  0
    3.1839    2.3235    0.0000 H   0  0  0  0  0  0  0  0  0  0  0  0
    2.3361    2.0998    0.0000 H   0  0  0  0  0  0  0  0  0  0  0  0
    2.5597    1.2520    0.0000 H   0  0  0  0  0  0  0  0  0  0  0  0
  1 19  1  0  0  0  0
  1 20  1  0  0  0  0
  2  6  1  0  0  0  0
  2 65  1  0  0  0  0
  3  7  1  0  0  0  0
  3 66  1  0  0  0  0
  4 17  1  0  0  0  0
  4 27  1  0  0  0  0
  4 28  1  0  0  0  0
  5 18  1  0  0  0  0
  5 29  1  0  0  0  0
  5 30  1  0  0  0  0
  6  8  1  0  0  0  0
  6 15  1  0  0  0  0
  6 35  1  0  0  0  0
  7  9  1  0  0  0  0
  7 16  1  0  0  0  0
  7 36  1  0  0  0  0
  8 10  1  0  0  0  0
  8 37  1  0  0  0  0
  8 38  1  0  0  0  0
  9 11  1  0  0  0  0
  9 39  1  0  0  0  0
  9 40  1  0  0  0  0
 10 17  1  0  0  0  0
 10 41  1  0  0  0  0
 10 42  1  0  0  0  0
 11 18  1  0  0  0  0
 11 43  1  0  0  0  0
 11 44  1  0  0  0  0
 12 13  1  0  0  0  0
 12 14  1  0  0  0  0
 12 45  1  0  0  0  0
 12 46  1  0  0  0  0
 13 19  2  0  0  0  0
 13 21  1  0  0  0  0
 14 20  2  0  0  0  0
 14 22  1  0  0  0  0
 15 21  2  0  0  0  0
 15 23  1  0  0  0  0
 16 22  2  0  0  0  0
 16 24  1  0  0  0  0
 17 47  1  0  0  0  0
 17 48  1  0  0  0  0
 18 49  1  0  0  0  0
 18 50  1  0  0  0  0
 19 25  1  0  0  0  0
 20 26  1  0  0  0  0
 21 51  1  0  0  0  0
 22 52  1  0  0  0  0
 23 25  2  0  0  0  0
 23 53  1  0  0  0  0
 24 26  2  0  0  0  0
 24 54  1  0  0  0  0
 25 55  1  0  0  0  0
 26 56  1  0  0  0  0
 27 31  1  0  0  0  0
 27 57  1  0  0  0  0
 27 58  1  0  0  0  0
 28 32  1  0  0  0  0
 28 59  1  0  0  0  0
 28 60  1  0  0  0  0
 29 33  1  0  0  0  0
 29 61  1  0  0  0  0
 29 62  1  0  0  0  0
 30 34  1  0  0  0  0
 30 63  1  0  0  0  0
 30 64  1  0  0  0  0
 31 67  1  0  0  0  0
 31 68  1  0  0  0  0
 31 69  1  0  0  0  0
 32 70  1  0  0  0  0
 32 71  1  0  0  0  0
 32 72  1  0  0  0  0
 33 73  1  0  0  0  0
 33 74  1  0  0  0  0
 33 75  1  0  0  0  0
 34 76  1  0  0  0  0
 34 77  1  0  0  0  0
 34 78  1  0  0  0  0
M  END
> <PUBCHEM_COMPOUND_CID>
515406
> <PUBCHEM_COMPOUND_CANONICALIZED>
1
> <PUBCHEM_CACTVS_COMPLEXITY>
508
> <PUBCHEM_CACTVS_HBOND_ACCEPTOR>
5
> <PUBCHEM_CACTVS_HBOND_DONOR>
2
> <PUBCHEM_CACTVS_ROTATABLE_BOND>
14
> <PUBCHEM_CACTVS_SUBSKEYS>
AAADcfB7MAAAAAAAAAAAAAAAAAAAAAAAAAA0YIAAAAAAAACRQAAAHgAACAAADBThmAYyBoMABgCAAiBCAAACCAAgIAAIiAAOCIgMNiKEsRqGeCCkwBGIuAew4OwOIAACAAAIAABAAAQAABAAAAAAAAAAAA==
> <PUBCHEM_IUPAC_OPENEYE_NAME>
4-(diethylamino)-1-[7-[4-(diethylamino)-1-hydroxy-butyl]-9H-xanthen-2-yl]butan-1-ol
> <PUBCHEM_IUPAC_CAS_NAME>
4-(diethylamino)-1-[7-[4-(diethylamino)-1-hydroxybutyl]-9H-xanthen-2-yl]-1-butanol
> <PUBCHEM_IUPAC_NAME_MARKUP>
4-(diethylamino)-1-[7-[4-(diethylamino)-1-hydroxybutyl]-9<I>H</I>-xanthen-2-yl]butan-1-ol
> <PUBCHEM_IUPAC_NAME>
4-(diethylamino)-1-[7-[4-(diethylamino)-1-hydroxybutyl]-9H-xanthen-2-yl]butan-1-ol
> <PUBCHEM_IUPAC_SYSTEMATIC_NAME>
4-(diethylamino)-1-[7-[4-(diethylamino)-1-oxidanyl-butyl]-9H-xanthen-2-yl]butan-1-ol
> <PUBCHEM_IUPAC_TRADITIONAL_NAME>
4-(diethylamino)-1-[7-[4-(diethylamino)-1-hydroxy-butyl]-9H-xanthen-2-yl]butan-1-ol
> <PUBCHEM_IUPAC_INCHI>
InChI=1S/C29H44N2O3/c1-5-30(6-2)17-9-11-26(32)22-13-15-28-24(19-22)21-25-20-23(14-16-29(25)34-28)27(33)12-10-18-31(7-3)8-4/h13-16,19-20,26-27,32-33H,5-12,17-18,21H2,1-4H3
> <PUBCHEM_IUPAC_INCHIKEY>
NZOGXYXZDARZTL-UHFFFAOYSA-N
> <PUBCHEM_XLOGP3_AA>
4.7
> <PUBCHEM_EXACT_MASS>
468.33519327
> <PUBCHEM_MOLECULAR_FORMULA>
C29H44N2O3
> <PUBCHEM_MOLECULAR_WEIGHT>
468.7
> <PUBCHEM_OPENEYE_CAN_SMILES>
CCN(CC)CCCC(C1=CC2=C(C=C1)OC3=C(C2)C=C(C=C3)C(CCCN(CC)CC)O)O
> <PUBCHEM_OPENEYE_ISO_SMILES>
CCN(CC)CCCC(C1=CC2=C(C=C1)OC3=C(C2)C=C(C=C3)C(CCCN(CC)CC)O)O
> <PUBCHEM_CACTVS_TPSA>
56.2
> <PUBCHEM_MONOISOTOPIC_WEIGHT>
468.33519327
> <PUBCHEM_TOTAL_CHARGE>
0
> <PUBCHEM_HEAVY_ATOM_COUNT>
34
> <PUBCHEM_ATOM_DEF_STEREO_COUNT>
0
> <PUBCHEM_ATOM_UDEF_STEREO_COUNT>
2
> <PUBCHEM_BOND_DEF_STEREO_COUNT>
0
> <PUBCHEM_BOND_UDEF_STEREO_COUNT>
0
> <PUBCHEM_ISOTOPIC_ATOM_COUNT>
0
> <PUBCHEM_COMPONENT_COUNT>
1
> <PUBCHEM_CACTVS_TAUTO_COUNT>
1
> <PUBCHEM_COORDINATE_TYPE>
1
5
255
> <PUBCHEM_BONDANNOTATIONS>
13  19  8
13  21  8
14  20  8
14  22  8
15  21  8
15  23  8
16  22  8
16  24  8
19  25  8
20  26  8
23  25  8
24  26  8
6  35  3
7  36  3
$$$$
