515590
  -OEChem-10302200282D
 45 48  0     1  0  0  0  0  0999 V2000
    3.7320   -0.0668    0.0000 O   0  0  0  0  0  0  0  0  0  0  0  0
    2.0000   -0.0668    0.0000 O   0  0  0  0  0  0  0  0  0  0  0  0
    2.8658   -3.5672    0.0000 N   0  0  3  0  0  0  0  0  0  0  0  0
    2.8660    1.4332    0.0000 N   0  0  0  0  0  0  0  0  0  0  0  0
    2.8660    3.4332    0.0000 N   0  0  0  0  0  0  0  0  0  0  0  0
    3.7320   -3.0668    0.0000 C   0  0  3  0  0  0  0  0  0  0  0  0
    2.8660   -2.5668    0.0000 C   0  0  3  0  0  0  0  0  0  0  0  0
    4.5981   -2.5668    0.0000 C   0  0  3  0  0  0  0  0  0  0  0  0
    4.2326   -3.9420    0.0000 C   0  0  0  0  0  0  0  0  0  0  0  0
    5.1058   -3.4379    0.0000 C   0  0  0  0  0  0  0  0  0  0  0  0
    2.8660   -1.5668    0.0000 C   0  0  0  0  0  0  0  0  0  0  0  0
    4.5981   -1.5668    0.0000 C   0  0  0  0  0  0  0  0  0  0  0  0
    3.7320   -1.0668    0.0000 C   0  0  3  0  0  0  0  0  0  0  0  0
    2.3658   -4.4332    0.0000 C   0  0  0  0  0  0  0  0  0  0  0  0
    2.8660    0.4332    0.0000 C   0  0  0  0  0  0  0  0  0  0  0  0
    3.7320    1.9332    0.0000 C   0  0  0  0  0  0  0  0  0  0  0  0
    2.0000    1.9332    0.0000 C   0  0  0  0  0  0  0  0  0  0  0  0
    3.7320    2.9332    0.0000 C   0  0  0  0  0  0  0  0  0  0  0  0
    2.0000    2.9332    0.0000 C   0  0  0  0  0  0  0  0  0  0  0  0
    2.8660    4.4332    0.0000 C   0  0  0  0  0  0  0  0  0  0  0  0
    2.2460   -2.5667    0.0000 H   0  0  0  0  0  0  0  0  0  0  0  0
    5.1966   -2.4051    0.0000 H   0  0  0  0  0  0  0  0  0  0  0  0
    3.6948   -4.2506    0.0000 H   0  0  0  0  0  0  0  0  0  0  0  0
    4.5419   -4.4794    0.0000 H   0  0  0  0  0  0  0  0  0  0  0  0
    5.4165   -3.9744    0.0000 H   0  0  0  0  0  0  0  0  0  0  0  0
    5.6419   -3.1264    0.0000 H   0  0  0  0  0  0  0  0  0  0  0  0
    2.6540   -0.9842    0.0000 H   0  0  0  0  0  0  0  0  0  0  0  0
    2.2554   -1.6744    0.0000 H   0  0  0  0  0  0  0  0  0  0  0  0
    5.2087   -1.6744    0.0000 H   0  0  0  0  0  0  0  0  0  0  0  0
    4.8101   -0.9842    0.0000 H   0  0  0  0  0  0  0  0  0  0  0  0
    4.2690   -0.7568    0.0000 H   0  0  0  0  0  0  0  0  0  0  0  0
    1.8288   -4.1232    0.0000 H   0  0  0  0  0  0  0  0  0  0  0  0
    2.0558   -4.9702    0.0000 H   0  0  0  0  0  0  0  0  0  0  0  0
    2.9027   -4.7432    0.0000 H   0  0  0  0  0  0  0  0  0  0  0  0
    3.9441    1.3506    0.0000 H   0  0  0  0  0  0  0  0  0  0  0  0
    4.3426    2.0409    0.0000 H   0  0  0  0  0  0  0  0  0  0  0  0
    1.3894    2.0409    0.0000 H   0  0  0  0  0  0  0  0  0  0  0  0
    1.7880    1.3506    0.0000 H   0  0  0  0  0  0  0  0  0  0  0  0
    4.3426    2.8256    0.0000 H   0  0  0  0  0  0  0  0  0  0  0  0
    3.9441    3.5158    0.0000 H   0  0  0  0  0  0  0  0  0  0  0  0
    1.7880    3.5158    0.0000 H   0  0  0  0  0  0  0  0  0  0  0  0
    1.3894    2.8256    0.0000 H   0  0  0  0  0  0  0  0  0  0  0  0
    3.4860    4.4332    0.0000 H   0  0  0  0  0  0  0  0  0  0  0  0
    2.8660    5.0532    0.0000 H   0  0  0  0  0  0  0  0  0  0  0  0
    2.2460    4.4332    0.0000 H   0  0  0  0  0  0  0  0  0  0  0  0
  1 13  1  0  0  0  0
  1 15  1  0  0  0  0
  2 15  2  0  0  0  0
  3  6  1  0  0  0  0
  3  7  1  0  0  0  0
  3 14  1  0  0  0  0
  4 15  1  0  0  0  0
  4 16  1  0  0  0  0
  4 17  1  0  0  0  0
  5 18  1  0  0  0  0
  5 19  1  0  0  0  0
  5 20  1  0  0  0  0
  6  7  1  0  0  0  0
  6  8  1  0  0  0  0
  6  9  1  0  0  0  0
  7 11  1  0  0  0  0
  7 21  1  0  0  0  0
  8 10  1  0  0  0  0
  8 12  1  0  0  0  0
  8 22  1  0  0  0  0
  9 10  1  0  0  0  0
  9 23  1  0  0  0  0
  9 24  1  0  0  0  0
 10 25  1  0  0  0  0
 10 26  1  0  0  0  0
 11 13  1  0  0  0  0
 11 27  1  0  0  0  0
 11 28  1  0  0  0  0
 12 13  1  0  0  0  0
 12 29  1  0  0  0  0
 12 30  1  0  0  0  0
 13 31  1  0  0  0  0
 14 32  1  0  0  0  0
 14 33  1  0  0  0  0
 14 34  1  0  0  0  0
 16 18  1  0  0  0  0
 16 35  1  0  0  0  0
 16 36  1  0  0  0  0
 17 19  1  0  0  0  0
 17 37  1  0  0  0  0
 17 38  1  0  0  0  0
 18 39  1  0  0  0  0
 18 40  1  0  0  0  0
 19 41  1  0  0  0  0
 19 42  1  0  0  0  0
 20 43  1  0  0  0  0
 20 44  1  0  0  0  0
 20 45  1  0  0  0  0
M  END
> <PUBCHEM_COMPOUND_CID>
515590
> <PUBCHEM_COMPOUND_CANONICALIZED>
1
> <PUBCHEM_CACTVS_COMPLEXITY>
421
> <PUBCHEM_CACTVS_HBOND_ACCEPTOR>
4
> <PUBCHEM_CACTVS_HBOND_DONOR>
0
> <PUBCHEM_CACTVS_ROTATABLE_BOND>
2
> <PUBCHEM_CACTVS_SUBSKEYS>
AAADceBzMAAAAAAAAAAAAAAAFgBgAAAAAAA8QAAABYAYAFgAAAAAHgAAAAAADbzhgAYCCAMABAAIAAAAGAAAAAAAAAAAAAAIAAAAQAIAgAAcAAAGBgCAAAGw0LMOgAAAAAAAAABAgAKEACQAAAAAAAAAAA==
> <PUBCHEM_IUPAC_OPENEYE_NAME>
(2-methyl-2-azatricyclo[5.2.0.01,3]nonan-5-yl) 4-methylpiperazine-1-carboxylate
> <PUBCHEM_IUPAC_CAS_NAME>
4-methyl-1-piperazinecarboxylic acid (2-methyl-2-azatricyclo[5.2.0.01,3]nonan-5-yl) ester
> <PUBCHEM_IUPAC_NAME_MARKUP>
(2-methyl-2-azatricyclo[5.2.0.0<SUP>1,3</SUP>]nonan-5-yl) 4-methylpiperazine-1-carboxylate
> <PUBCHEM_IUPAC_NAME>
(2-methyl-2-azatricyclo[5.2.0.01,3]nonan-5-yl) 4-methylpiperazine-1-carboxylate
> <PUBCHEM_IUPAC_SYSTEMATIC_NAME>
(2-methyl-2-azatricyclo[5.2.0.01,3]nonan-5-yl) 4-methylpiperazine-1-carboxylate
> <PUBCHEM_IUPAC_TRADITIONAL_NAME>
4-methylpiperazine-1-carboxylic acid (2-methyl-2-azatricyclo[5.2.0.01,3]nonan-5-yl) ester
> <PUBCHEM_IUPAC_INCHI>
InChI=1S/C15H25N3O2/c1-16-5-7-18(8-6-16)14(19)20-12-9-11-3-4-15(11)13(10-12)17(15)2/h11-13H,3-10H2,1-2H3
> <PUBCHEM_IUPAC_INCHIKEY>
VPUYNOXCBIKSQL-UHFFFAOYSA-N
> <PUBCHEM_XLOGP3_AA>
1
> <PUBCHEM_EXACT_MASS>
279.19467705
> <PUBCHEM_MOLECULAR_FORMULA>
C15H25N3O2
> <PUBCHEM_MOLECULAR_WEIGHT>
279.38
> <PUBCHEM_OPENEYE_CAN_SMILES>
CN1CCN(CC1)C(=O)OC2CC3CCC34C(C2)N4C
> <PUBCHEM_OPENEYE_ISO_SMILES>
CN1CCN(CC1)C(=O)OC2CC3CCC34C(C2)N4C
> <PUBCHEM_CACTVS_TPSA>
35.8
> <PUBCHEM_MONOISOTOPIC_WEIGHT>
279.19467705
> <PUBCHEM_TOTAL_CHARGE>
0
> <PUBCHEM_HEAVY_ATOM_COUNT>
20
> <PUBCHEM_ATOM_DEF_STEREO_COUNT>
0
> <PUBCHEM_ATOM_UDEF_STEREO_COUNT>
4
> <PUBCHEM_BOND_DEF_STEREO_COUNT>
0
> <PUBCHEM_BOND_UDEF_STEREO_COUNT>
0
> <PUBCHEM_ISOTOPIC_ATOM_COUNT>
0
> <PUBCHEM_COMPONENT_COUNT>
1
> <PUBCHEM_CACTVS_TAUTO_COUNT>
-1
> <PUBCHEM_COORDINATE_TYPE>
1
5
255
> <PUBCHEM_BONDANNOTATIONS>
13  1  3
6  9  3
7  11  3
8  10  3
$$$$
