515582
  -OEChem-10302200282D
 51 51  0     1  0  0  0  0  0999 V2000
    4.5981   -0.0000    0.0000 O   0  0  0  0  0  0  0  0  0  0  0  0
    6.3301   -0.0000    0.0000 O   0  0  0  0  0  0  0  0  0  0  0  0
    5.4641    1.5000    0.0000 N   0  0  0  0  0  0  0  0  0  0  0  0
    5.4641    3.5000    0.0000 N   0  0  0  0  0  0  0  0  0  0  0  0
    3.7320   -2.5000    0.0000 N   0  0  0  0  0  0  0  0  0  0  0  0
    6.3301    2.0000    0.0000 C   0  0  0  0  0  0  0  0  0  0  0  0
    4.5981    2.0000    0.0000 C   0  0  0  0  0  0  0  0  0  0  0  0
    6.3301    3.0000    0.0000 C   0  0  0  0  0  0  0  0  0  0  0  0
    4.5981    3.0000    0.0000 C   0  0  0  0  0  0  0  0  0  0  0  0
    3.7320   -1.5000    0.0000 C   0  0  0  0  0  0  0  0  0  0  0  0
    4.5981   -1.0000    0.0000 C   0  0  3  0  0  0  0  0  0  0  0  0
    2.8660   -3.0000    0.0000 C   0  0  0  0  0  0  0  0  0  0  0  0
    4.5981   -3.0000    0.0000 C   0  0  0  0  0  0  0  0  0  0  0  0
    5.4641    0.5000    0.0000 C   0  0  0  0  0  0  0  0  0  0  0  0
    5.4641    4.5000    0.0000 C   0  0  0  0  0  0  0  0  0  0  0  0
    2.8660   -4.0000    0.0000 C   0  0  0  0  0  0  0  0  0  0  0  0
    4.5981   -4.0000    0.0000 C   0  0  0  0  0  0  0  0  0  0  0  0
    5.4641   -1.5000    0.0000 C   0  0  0  0  0  0  0  0  0  0  0  0
    2.0000   -4.5000    0.0000 C   0  0  0  0  0  0  0  0  0  0  0  0
    5.4641   -4.5000    0.0000 C   0  0  0  0  0  0  0  0  0  0  0  0
    6.5422    1.4174    0.0000 H   0  0  0  0  0  0  0  0  0  0  0  0
    6.9407    2.1077    0.0000 H   0  0  0  0  0  0  0  0  0  0  0  0
    3.9875    2.1077    0.0000 H   0  0  0  0  0  0  0  0  0  0  0  0
    4.3860    1.4174    0.0000 H   0  0  0  0  0  0  0  0  0  0  0  0
    6.9407    2.8923    0.0000 H   0  0  0  0  0  0  0  0  0  0  0  0
    6.5422    3.5826    0.0000 H   0  0  0  0  0  0  0  0  0  0  0  0
    4.3860    3.5826    0.0000 H   0  0  0  0  0  0  0  0  0  0  0  0
    3.9875    2.8923    0.0000 H   0  0  0  0  0  0  0  0  0  0  0  0
    3.5200   -0.9174    0.0000 H   0  0  0  0  0  0  0  0  0  0  0  0
    3.1215   -1.6077    0.0000 H   0  0  0  0  0  0  0  0  0  0  0  0
    5.1350   -0.6900    0.0000 H   0  0  0  0  0  0  0  0  0  0  0  0
    2.6540   -2.4174    0.0000 H   0  0  0  0  0  0  0  0  0  0  0  0
    2.2554   -3.1077    0.0000 H   0  0  0  0  0  0  0  0  0  0  0  0
    5.2087   -3.1077    0.0000 H   0  0  0  0  0  0  0  0  0  0  0  0
    4.8101   -2.4174    0.0000 H   0  0  0  0  0  0  0  0  0  0  0  0
    6.0841    4.5000    0.0000 H   0  0  0  0  0  0  0  0  0  0  0  0
    5.4641    5.1200    0.0000 H   0  0  0  0  0  0  0  0  0  0  0  0
    4.8441    4.5000    0.0000 H   0  0  0  0  0  0  0  0  0  0  0  0
    3.0781   -4.5826    0.0000 H   0  0  0  0  0  0  0  0  0  0  0  0
    3.4766   -3.8923    0.0000 H   0  0  0  0  0  0  0  0  0  0  0  0
    3.9875   -3.8923    0.0000 H   0  0  0  0  0  0  0  0  0  0  0  0
    4.3860   -4.5826    0.0000 H   0  0  0  0  0  0  0  0  0  0  0  0
    5.1541   -2.0369    0.0000 H   0  0  0  0  0  0  0  0  0  0  0  0
    6.0010   -1.8100    0.0000 H   0  0  0  0  0  0  0  0  0  0  0  0
    5.7741   -0.9631    0.0000 H   0  0  0  0  0  0  0  0  0  0  0  0
    1.6900   -3.9631    0.0000 H   0  0  0  0  0  0  0  0  0  0  0  0
    1.4631   -4.8100    0.0000 H   0  0  0  0  0  0  0  0  0  0  0  0
    2.3100   -5.0369    0.0000 H   0  0  0  0  0  0  0  0  0  0  0  0
    5.1541   -5.0369    0.0000 H   0  0  0  0  0  0  0  0  0  0  0  0
    6.0010   -4.8100    0.0000 H   0  0  0  0  0  0  0  0  0  0  0  0
    5.7741   -3.9631    0.0000 H   0  0  0  0  0  0  0  0  0  0  0  0
  1 11  1  0  0  0  0
  1 14  1  0  0  0  0
  2 14  2  0  0  0  0
  3  6  1  0  0  0  0
  3  7  1  0  0  0  0
  3 14  1  0  0  0  0
  4  8  1  0  0  0  0
  4  9  1  0  0  0  0
  4 15  1  0  0  0  0
  5 10  1  0  0  0  0
  5 12  1  0  0  0  0
  5 13  1  0  0  0  0
  6  8  1  0  0  0  0
  6 21  1  0  0  0  0
  6 22  1  0  0  0  0
  7  9  1  0  0  0  0
  7 23  1  0  0  0  0
  7 24  1  0  0  0  0
  8 25  1  0  0  0  0
  8 26  1  0  0  0  0
  9 27  1  0  0  0  0
  9 28  1  0  0  0  0
 10 11  1  0  0  0  0
 10 29  1  0  0  0  0
 10 30  1  0  0  0  0
 11 18  1  0  0  0  0
 11 31  1  0  0  0  0
 12 16  1  0  0  0  0
 12 32  1  0  0  0  0
 12 33  1  0  0  0  0
 13 17  1  0  0  0  0
 13 34  1  0  0  0  0
 13 35  1  0  0  0  0
 15 36  1  0  0  0  0
 15 37  1  0  0  0  0
 15 38  1  0  0  0  0
 16 19  1  0  0  0  0
 16 39  1  0  0  0  0
 16 40  1  0  0  0  0
 17 20  1  0  0  0  0
 17 41  1  0  0  0  0
 17 42  1  0  0  0  0
 18 43  1  0  0  0  0
 18 44  1  0  0  0  0
 18 45  1  0  0  0  0
 19 46  1  0  0  0  0
 19 47  1  0  0  0  0
 19 48  1  0  0  0  0
 20 49  1  0  0  0  0
 20 50  1  0  0  0  0
 20 51  1  0  0  0  0
M  END
> <PUBCHEM_COMPOUND_CID>
515582
> <PUBCHEM_COMPOUND_CANONICALIZED>
1
> <PUBCHEM_CACTVS_COMPLEXITY>
272
> <PUBCHEM_CACTVS_HBOND_ACCEPTOR>
4
> <PUBCHEM_CACTVS_HBOND_DONOR>
0
> <PUBCHEM_CACTVS_ROTATABLE_BOND>
8
> <PUBCHEM_CACTVS_SUBSKEYS>
AAADceBzMAAAAAAAAAAAAAAAAAAAAAAAAAAsAAAAAAAAAAAAAAAAHgAAAAAACBThgAYCCAMABAAIAAAAGAAAAAAAAAAAAAAIAAACQAAAAAAdAAAABgCQAAAAAAAAAAAAAAAAAAAAAAAAAAAAAAAAAAAAAA==
> <PUBCHEM_IUPAC_OPENEYE_NAME>
[2-(dipropylamino)-1-methyl-ethyl] 4-methylpiperazine-1-carboxylate
> <PUBCHEM_IUPAC_CAS_NAME>
4-methyl-1-piperazinecarboxylic acid 1-(dipropylamino)propan-2-yl ester
> <PUBCHEM_IUPAC_NAME_MARKUP>
1-(dipropylamino)propan-2-yl 4-methylpiperazine-1-carboxylate
> <PUBCHEM_IUPAC_NAME>
1-(dipropylamino)propan-2-yl 4-methylpiperazine-1-carboxylate
> <PUBCHEM_IUPAC_SYSTEMATIC_NAME>
1-(dipropylamino)propan-2-yl 4-methylpiperazine-1-carboxylate
> <PUBCHEM_IUPAC_TRADITIONAL_NAME>
4-methylpiperazine-1-carboxylic acid [2-(dipropylamino)-1-methyl-ethyl] ester
> <PUBCHEM_IUPAC_INCHI>
InChI=1S/C15H31N3O2/c1-5-7-17(8-6-2)13-14(3)20-15(19)18-11-9-16(4)10-12-18/h14H,5-13H2,1-4H3
> <PUBCHEM_IUPAC_INCHIKEY>
BRNAJZGRTVZNBA-UHFFFAOYSA-N
> <PUBCHEM_XLOGP3_AA>
2.2
> <PUBCHEM_EXACT_MASS>
285.24162724
> <PUBCHEM_MOLECULAR_FORMULA>
C15H31N3O2
> <PUBCHEM_MOLECULAR_WEIGHT>
285.43
> <PUBCHEM_OPENEYE_CAN_SMILES>
CCCN(CCC)CC(C)OC(=O)N1CCN(CC1)C
> <PUBCHEM_OPENEYE_ISO_SMILES>
CCCN(CCC)CC(C)OC(=O)N1CCN(CC1)C
> <PUBCHEM_CACTVS_TPSA>
36
> <PUBCHEM_MONOISOTOPIC_WEIGHT>
285.24162724
> <PUBCHEM_TOTAL_CHARGE>
0
> <PUBCHEM_HEAVY_ATOM_COUNT>
20
> <PUBCHEM_ATOM_DEF_STEREO_COUNT>
0
> <PUBCHEM_ATOM_UDEF_STEREO_COUNT>
1
> <PUBCHEM_BOND_DEF_STEREO_COUNT>
0
> <PUBCHEM_BOND_UDEF_STEREO_COUNT>
0
> <PUBCHEM_ISOTOPIC_ATOM_COUNT>
0
> <PUBCHEM_COMPONENT_COUNT>
1
> <PUBCHEM_CACTVS_TAUTO_COUNT>
-1
> <PUBCHEM_COORDINATE_TYPE>
1
5
255
> <PUBCHEM_BONDANNOTATIONS>
11  18  3
$$$$
