515583
  -OEChem-10302200282D
 46 47  0     1  0  0  0  0  0999 V2000
    3.7320   -0.0000    0.0000 O   0  0  0  0  0  0  0  0  0  0  0  0
    5.4641   -0.0000    0.0000 O   0  0  0  0  0  0  0  0  0  0  0  0
    2.8660   -2.5000    0.0000 N   0  0  0  0  0  0  0  0  0  0  0  0
    4.5981    1.5000    0.0000 N   0  0  0  0  0  0  0  0  0  0  0  0
    4.5981    3.5000    0.0000 N   0  0  0  0  0  0  0  0  0  0  0  0
    2.0000   -3.0000    0.0000 C   0  0  0  0  0  0  0  0  0  0  0  0
    3.7320   -3.0000    0.0000 C   0  0  0  0  0  0  0  0  0  0  0  0
    2.0000   -4.0000    0.0000 C   0  0  0  0  0  0  0  0  0  0  0  0
    3.7320   -4.0000    0.0000 C   0  0  0  0  0  0  0  0  0  0  0  0
    2.8660   -4.5000    0.0000 C   0  0  0  0  0  0  0  0  0  0  0  0
    2.8660   -1.5000    0.0000 C   0  0  0  0  0  0  0  0  0  0  0  0
    3.7320   -1.0000    0.0000 C   0  0  3  0  0  0  0  0  0  0  0  0
    3.7320    2.0000    0.0000 C   0  0  0  0  0  0  0  0  0  0  0  0
    5.4641    2.0000    0.0000 C   0  0  0  0  0  0  0  0  0  0  0  0
    3.7320    3.0000    0.0000 C   0  0  0  0  0  0  0  0  0  0  0  0
    5.4641    3.0000    0.0000 C   0  0  0  0  0  0  0  0  0  0  0  0
    4.5981    0.5000    0.0000 C   0  0  0  0  0  0  0  0  0  0  0  0
    4.5981   -1.5000    0.0000 C   0  0  0  0  0  0  0  0  0  0  0  0
    4.5981    4.5000    0.0000 C   0  0  0  0  0  0  0  0  0  0  0  0
    1.7880   -2.4174    0.0000 H   0  0  0  0  0  0  0  0  0  0  0  0
    1.3894   -3.1077    0.0000 H   0  0  0  0  0  0  0  0  0  0  0  0
    4.3426   -3.1077    0.0000 H   0  0  0  0  0  0  0  0  0  0  0  0
    3.9441   -2.4174    0.0000 H   0  0  0  0  0  0  0  0  0  0  0  0
    1.3894   -3.8923    0.0000 H   0  0  0  0  0  0  0  0  0  0  0  0
    1.7880   -4.5826    0.0000 H   0  0  0  0  0  0  0  0  0  0  0  0
    3.9441   -4.5826    0.0000 H   0  0  0  0  0  0  0  0  0  0  0  0
    4.3426   -3.8923    0.0000 H   0  0  0  0  0  0  0  0  0  0  0  0
    2.4675   -4.9750    0.0000 H   0  0  0  0  0  0  0  0  0  0  0  0
    3.2646   -4.9750    0.0000 H   0  0  0  0  0  0  0  0  0  0  0  0
    2.6540   -0.9174    0.0000 H   0  0  0  0  0  0  0  0  0  0  0  0
    2.2554   -1.6077    0.0000 H   0  0  0  0  0  0  0  0  0  0  0  0
    4.2690   -0.6900    0.0000 H   0  0  0  0  0  0  0  0  0  0  0  0
    3.1215    2.1077    0.0000 H   0  0  0  0  0  0  0  0  0  0  0  0
    3.5200    1.4174    0.0000 H   0  0  0  0  0  0  0  0  0  0  0  0
    5.6762    1.4174    0.0000 H   0  0  0  0  0  0  0  0  0  0  0  0
    6.0747    2.1077    0.0000 H   0  0  0  0  0  0  0  0  0  0  0  0
    3.5200    3.5826    0.0000 H   0  0  0  0  0  0  0  0  0  0  0  0
    3.1215    2.8923    0.0000 H   0  0  0  0  0  0  0  0  0  0  0  0
    6.0747    2.8923    0.0000 H   0  0  0  0  0  0  0  0  0  0  0  0
    5.6762    3.5826    0.0000 H   0  0  0  0  0  0  0  0  0  0  0  0
    4.2881   -2.0369    0.0000 H   0  0  0  0  0  0  0  0  0  0  0  0
    5.1350   -1.8100    0.0000 H   0  0  0  0  0  0  0  0  0  0  0  0
    4.9081   -0.9631    0.0000 H   0  0  0  0  0  0  0  0  0  0  0  0
    5.2181    4.5000    0.0000 H   0  0  0  0  0  0  0  0  0  0  0  0
    4.5981    5.1200    0.0000 H   0  0  0  0  0  0  0  0  0  0  0  0
    3.9781    4.5000    0.0000 H   0  0  0  0  0  0  0  0  0  0  0  0
  1 12  1  0  0  0  0
  1 17  1  0  0  0  0
  2 17  2  0  0  0  0
  3  6  1  0  0  0  0
  3  7  1  0  0  0  0
  3 11  1  0  0  0  0
  4 13  1  0  0  0  0
  4 14  1  0  0  0  0
  4 17  1  0  0  0  0
  5 15  1  0  0  0  0
  5 16  1  0  0  0  0
  5 19  1  0  0  0  0
  6  8  1  0  0  0  0
  6 20  1  0  0  0  0
  6 21  1  0  0  0  0
  7  9  1  0  0  0  0
  7 22  1  0  0  0  0
  7 23  1  0  0  0  0
  8 10  1  0  0  0  0
  8 24  1  0  0  0  0
  8 25  1  0  0  0  0
  9 10  1  0  0  0  0
  9 26  1  0  0  0  0
  9 27  1  0  0  0  0
 10 28  1  0  0  0  0
 10 29  1  0  0  0  0
 11 12  1  0  0  0  0
 11 30  1  0  0  0  0
 11 31  1  0  0  0  0
 12 18  1  0  0  0  0
 12 32  1  0  0  0  0
 13 15  1  0  0  0  0
 13 33  1  0  0  0  0
 13 34  1  0  0  0  0
 14 16  1  0  0  0  0
 14 35  1  0  0  0  0
 14 36  1  0  0  0  0
 15 37  1  0  0  0  0
 15 38  1  0  0  0  0
 16 39  1  0  0  0  0
 16 40  1  0  0  0  0
 18 41  1  0  0  0  0
 18 42  1  0  0  0  0
 18 43  1  0  0  0  0
 19 44  1  0  0  0  0
 19 45  1  0  0  0  0
 19 46  1  0  0  0  0
M  END
> <PUBCHEM_COMPOUND_CID>
515583
> <PUBCHEM_COMPOUND_CANONICALIZED>
1
> <PUBCHEM_CACTVS_COMPLEXITY>
284
> <PUBCHEM_CACTVS_HBOND_ACCEPTOR>
4
> <PUBCHEM_CACTVS_HBOND_DONOR>
0
> <PUBCHEM_CACTVS_ROTATABLE_BOND>
4
> <PUBCHEM_CACTVS_SUBSKEYS>
AAADceBzMAAAAAAAAAAAAAAAAAAAAAAAAAAsWAAAAAAAAAAAAAAAHgAAAAAACBThgAYCCAMABAAIAAAAGAAAAAAAAAAAAAAIAAACQAIAgAAdAAAABgCQAAAQAAAAAAAAAAAAAAAAAAAAAAAAAAAAAAAAAA==
> <PUBCHEM_IUPAC_OPENEYE_NAME>
[1-methyl-2-(1-piperidyl)ethyl] 4-methylpiperazine-1-carboxylate
> <PUBCHEM_IUPAC_CAS_NAME>
4-methyl-1-piperazinecarboxylic acid 1-(1-piperidinyl)propan-2-yl ester
> <PUBCHEM_IUPAC_NAME_MARKUP>
1-piperidin-1-ylpropan-2-yl 4-methylpiperazine-1-carboxylate
> <PUBCHEM_IUPAC_NAME>
1-piperidin-1-ylpropan-2-yl 4-methylpiperazine-1-carboxylate
> <PUBCHEM_IUPAC_SYSTEMATIC_NAME>
1-piperidin-1-ylpropan-2-yl 4-methylpiperazine-1-carboxylate
> <PUBCHEM_IUPAC_TRADITIONAL_NAME>
4-methylpiperazine-1-carboxylic acid (1-methyl-2-piperidino-ethyl) ester
> <PUBCHEM_IUPAC_INCHI>
InChI=1S/C14H27N3O2/c1-13(12-16-6-4-3-5-7-16)19-14(18)17-10-8-15(2)9-11-17/h13H,3-12H2,1-2H3
> <PUBCHEM_IUPAC_INCHIKEY>
GMCDORAHGLXLSW-UHFFFAOYSA-N
> <PUBCHEM_XLOGP3_AA>
1.3
> <PUBCHEM_EXACT_MASS>
269.21032711
> <PUBCHEM_MOLECULAR_FORMULA>
C14H27N3O2
> <PUBCHEM_MOLECULAR_WEIGHT>
269.38
> <PUBCHEM_OPENEYE_CAN_SMILES>
CC(CN1CCCCC1)OC(=O)N2CCN(CC2)C
> <PUBCHEM_OPENEYE_ISO_SMILES>
CC(CN1CCCCC1)OC(=O)N2CCN(CC2)C
> <PUBCHEM_CACTVS_TPSA>
36
> <PUBCHEM_MONOISOTOPIC_WEIGHT>
269.21032711
> <PUBCHEM_TOTAL_CHARGE>
0
> <PUBCHEM_HEAVY_ATOM_COUNT>
19
> <PUBCHEM_ATOM_DEF_STEREO_COUNT>
0
> <PUBCHEM_ATOM_UDEF_STEREO_COUNT>
1
> <PUBCHEM_BOND_DEF_STEREO_COUNT>
0
> <PUBCHEM_BOND_UDEF_STEREO_COUNT>
0
> <PUBCHEM_ISOTOPIC_ATOM_COUNT>
0
> <PUBCHEM_COMPONENT_COUNT>
1
> <PUBCHEM_CACTVS_TAUTO_COUNT>
-1
> <PUBCHEM_COORDINATE_TYPE>
1
5
255
> <PUBCHEM_BONDANNOTATIONS>
12  18  3
$$$$
