515514
  -OEChem-10302200282D
 31 32  0     1  0  0  0  0  0999 V2000
    5.0298   -0.5937    0.0000 O   0  0  0  0  0  0  0  0  0  0  0  0
    2.4608   -0.2847    0.0000 O   0  0  0  0  0  0  0  0  0  0  0  0
    3.1330   -2.3537    0.0000 O   0  0  0  0  0  0  0  0  0  0  0  0
    6.3031   -2.2492    0.0000 O   0  0  0  0  0  0  0  0  0  0  0  0
    6.5161    2.9202    0.0000 O   0  0  0  0  0  0  0  0  0  0  0  0
    4.2208    0.9941    0.0000 N   0  0  0  0  0  0  0  0  0  0  0  0
    3.4118    1.5819    0.0000 N   0  0  0  0  0  0  0  0  0  0  0  0
    4.7208    2.5330    0.0000 N   0  0  0  0  0  0  0  0  0  0  0  0
    3.7208    2.5330    0.0000 N   0  0  0  0  0  0  0  0  0  0  0  0
    7.6751    1.6330    0.0000 N   0  0  0  0  0  0  0  0  0  0  0  0
    3.4118   -0.5937    0.0000 C   0  0  2  0  0  0  0  0  0  0  0  0
    3.7208   -1.5447    0.0000 C   0  0  1  0  0  0  0  0  0  0  0  0
    4.2208   -0.0059    0.0000 C   0  0  1  0  0  0  0  0  0  0  0  0
    4.7208   -1.5447    0.0000 C   0  0  1  0  0  0  0  0  0  0  0  0
    5.3086   -2.3537    0.0000 C   0  0  0  0  0  0  0  0  0  0  0  0
    5.0298    1.5819    0.0000 C   0  0  0  0  0  0  0  0  0  0  0  0
    5.9809    1.2729    0.0000 C   0  0  0  0  0  0  0  0  0  0  0  0
    6.7240    1.9420    0.0000 C   0  0  0  0  0  0  0  0  0  0  0  0
    2.9734   -1.0321    0.0000 H   0  0  0  0  0  0  0  0  0  0  0  0
    3.1085   -1.4478    0.0000 H   0  0  0  0  0  0  0  0  0  0  0  0
    3.6684    0.2756    0.0000 H   0  0  0  0  0  0  0  0  0  0  0  0
    5.3332   -1.4478    0.0000 H   0  0  0  0  0  0  0  0  0  0  0  0
    4.7514   -2.6255    0.0000 H   0  0  0  0  0  0  0  0  0  0  0  0
    5.4795   -2.9497    0.0000 H   0  0  0  0  0  0  0  0  0  0  0  0
    2.0000   -0.6995    0.0000 H   0  0  0  0  0  0  0  0  0  0  0  0
    3.3852   -2.9202    0.0000 H   0  0  0  0  0  0  0  0  0  0  0  0
    5.6898    0.7254    0.0000 H   0  0  0  0  0  0  0  0  0  0  0  0
    6.4695    0.8912    0.0000 H   0  0  0  0  0  0  0  0  0  0  0  0
    6.6676   -2.7508    0.0000 H   0  0  0  0  0  0  0  0  0  0  0  0
    8.1358    2.0478    0.0000 H   0  0  0  0  0  0  0  0  0  0  0  0
    7.8040    1.0265    0.0000 H   0  0  0  0  0  0  0  0  0  0  0  0
  1 13  1  0  0  0  0
  1 14  1  0  0  0  0
 11  2  1  1  0  0  0
  2 25  1  0  0  0  0
 12  3  1  1  0  0  0
  3 26  1  0  0  0  0
  4 15  1  0  0  0  0
  4 29  1  0  0  0  0
  5 18  2  0  0  0  0
  6  7  1  0  0  0  0
 13  6  1  6  0  0  0
  6 16  1  0  0  0  0
  7  9  2  0  0  0  0
  8  9  1  0  0  0  0
  8 16  2  0  0  0  0
 10 18  1  0  0  0  0
 10 30  1  0  0  0  0
 10 31  1  0  0  0  0
 11 12  1  0  0  0  0
 11 13  1  0  0  0  0
 11 19  1  0  0  0  0
 12 14  1  0  0  0  0
 12 20  1  0  0  0  0
 13 21  1  0  0  0  0
 14 15  1  6  0  0  0
 14 22  1  0  0  0  0
 15 23  1  0  0  0  0
 15 24  1  0  0  0  0
 16 17  1  0  0  0  0
 17 18  1  0  0  0  0
 17 27  1  0  0  0  0
 17 28  1  0  0  0  0
M  END
> <PUBCHEM_COMPOUND_CID>
515514
> <PUBCHEM_COMPOUND_CANONICALIZED>
1
> <PUBCHEM_CACTVS_COMPLEXITY>
318
> <PUBCHEM_CACTVS_HBOND_ACCEPTOR>
8
> <PUBCHEM_CACTVS_HBOND_DONOR>
4
> <PUBCHEM_CACTVS_ROTATABLE_BOND>
4
> <PUBCHEM_CACTVS_SUBSKEYS>
AAADccBzuAAAAAAAAAAAAAAAAAAAAWJAAAAAAAAAAAAAAAABgAAAHgAYCAAACBThgwYBEAZIBgAqAAMwNAAAAAMAgIAVQAE4AACDEAoAyAAOQAAHEAKTAADwMAIAAAAAAAAAAAAAAAAAAAAAAAAAAAAAAA==
> <PUBCHEM_IUPAC_OPENEYE_NAME>
2-[1-[(2R,3R,4S,5R)-3,4-dihydroxy-5-(hydroxymethyl)tetrahydrofuran-2-yl]tetrazol-5-yl]acetamide
> <PUBCHEM_IUPAC_CAS_NAME>
2-[1-[(2R,3R,4S,5R)-3,4-dihydroxy-5-(hydroxymethyl)-2-oxolanyl]-5-tetrazolyl]acetamide
> <PUBCHEM_IUPAC_NAME_MARKUP>
2-[1-[(2<I>R</I>,3<I>R</I>,4<I>S</I>,5<I>R</I>)-3,4-dihydroxy-5-(hydroxymethyl)oxolan-2-yl]tetrazol-5-yl]acetamide
> <PUBCHEM_IUPAC_NAME>
2-[1-[(2R,3R,4S,5R)-3,4-dihydroxy-5-(hydroxymethyl)oxolan-2-yl]tetrazol-5-yl]acetamide
> <PUBCHEM_IUPAC_SYSTEMATIC_NAME>
2-[1-[(2R,3R,4S,5R)-5-(hydroxymethyl)-3,4-bis(oxidanyl)oxolan-2-yl]-1,2,3,4-tetrazol-5-yl]ethanamide
> <PUBCHEM_IUPAC_TRADITIONAL_NAME>
2-[1-[(2R,3R,4S,5R)-3,4-dihydroxy-5-methylol-tetrahydrofuran-2-yl]tetrazol-5-yl]acetamide
> <PUBCHEM_IUPAC_INCHI>
InChI=1S/C8H13N5O5/c9-4(15)1-5-10-11-12-13(5)8-7(17)6(16)3(2-14)18-8/h3,6-8,14,16-17H,1-2H2,(H2,9,15)/t3-,6-,7-,8-/m1/s1
> <PUBCHEM_IUPAC_INCHIKEY>
SFNULLGGLADPFC-YXZULKJRSA-N
> <PUBCHEM_XLOGP3_AA>
-3.2
> <PUBCHEM_EXACT_MASS>
259.09166853
> <PUBCHEM_MOLECULAR_FORMULA>
C8H13N5O5
> <PUBCHEM_MOLECULAR_WEIGHT>
259.22
> <PUBCHEM_OPENEYE_CAN_SMILES>
C(C1C(C(C(O1)N2C(=NN=N2)CC(=O)N)O)O)O
> <PUBCHEM_OPENEYE_ISO_SMILES>
C([C@@H]1[C@H]([C@H]([C@@H](O1)N2C(=NN=N2)CC(=O)N)O)O)O
> <PUBCHEM_CACTVS_TPSA>
157
> <PUBCHEM_MONOISOTOPIC_WEIGHT>
259.09166853
> <PUBCHEM_TOTAL_CHARGE>
0
> <PUBCHEM_HEAVY_ATOM_COUNT>
18
> <PUBCHEM_ATOM_DEF_STEREO_COUNT>
4
> <PUBCHEM_ATOM_UDEF_STEREO_COUNT>
0
> <PUBCHEM_BOND_DEF_STEREO_COUNT>
0
> <PUBCHEM_BOND_UDEF_STEREO_COUNT>
0
> <PUBCHEM_ISOTOPIC_ATOM_COUNT>
0
> <PUBCHEM_COMPONENT_COUNT>
1
> <PUBCHEM_CACTVS_TAUTO_COUNT>
-1
> <PUBCHEM_COORDINATE_TYPE>
1
5
255
> <PUBCHEM_BONDANNOTATIONS>
14  15  6
11  2  5
12  3  5
13  6  6
6  16  8
6  7  8
7  9  8
8  16  8
8  9  8
$$$$
