515619
  -OEChem-10302200282D
 79 81  0     1  0  0  0  0  0999 V2000
    5.9405    0.6808    0.0000 O   0  0  0  0  0  0  0  0  0  0  0  0
    4.6844    2.9431    0.0000 O   0  0  0  0  0  0  0  0  0  0  0  0
    3.4026    1.1852    0.0000 O   0  0  0  0  0  0  0  0  0  0  0  0
    7.6651    1.8589    0.0000 O   0  0  0  0  0  0  0  0  0  0  0  0
    8.3724    3.4400    0.0000 O   0  0  0  0  0  0  0  0  0  0  0  0
    4.6783   -0.5770    0.0000 N   0  0  0  0  0  0  0  0  0  0  0  0
    4.6783   -2.1865    0.0000 N   0  0  0  0  0  0  0  0  0  0  0  0
    2.8660   -0.3818    0.0000 N   0  0  0  0  0  0  0  0  0  0  0  0
    2.0000   -1.8818    0.0000 N   0  0  0  0  0  0  0  0  0  0  0  0
    2.8660   -3.3818    0.0000 N   0  0  0  0  0  0  0  0  0  0  0  0
    4.9917    1.9915    0.0000 C   0  0  1  0  0  0  0  0  0  0  0  0
    4.4026    1.1835    0.0000 C   0  0  1  0  0  0  0  0  0  0  0  0
    5.9422    1.6808    0.0000 C   0  0  1  0  0  0  0  0  0  0  0  0
    4.9889    0.3735    0.0000 C   0  0  1  0  0  0  0  0  0  0  0  0
    6.7523    2.2672    0.0000 C   0  0  0  0  0  0  0  0  0  0  0  0
    3.7320   -0.8818    0.0000 C   0  0  0  0  0  0  0  0  0  0  0  0
    5.2619   -1.3818    0.0000 C   0  0  0  0  0  0  0  0  0  0  0  0
   14.5566    2.5712    0.0000 C   0  0  0  0  0  0  0  0  0  0  0  0
   13.6438    2.9795    0.0000 C   0  0  0  0  0  0  0  0  0  0  0  0
    3.7320   -1.8818    0.0000 C   0  0  0  0  0  0  0  0  0  0  0  0
   15.3667    3.1576    0.0000 C   0  0  0  0  0  0  0  0  0  0  0  0
   12.8337    2.3931    0.0000 C   0  0  0  0  0  0  0  0  0  0  0  0
   11.9209    2.8014    0.0000 C   0  0  0  0  0  0  0  0  0  0  0  0
   16.2795    2.7492    0.0000 C   0  0  0  0  0  0  0  0  0  0  0  0
   11.1109    2.2151    0.0000 C   0  0  0  0  0  0  0  0  0  0  0  0
   17.0895    3.3356    0.0000 C   0  0  0  0  0  0  0  0  0  0  0  0
   10.1980    2.6234    0.0000 C   0  0  0  0  0  0  0  0  0  0  0  0
    9.3880    2.0370    0.0000 C   0  0  0  0  0  0  0  0  0  0  0  0
   18.0024    2.9273    0.0000 C   0  0  0  0  0  0  0  0  0  0  0  0
    8.4752    2.4453    0.0000 C   0  0  0  0  0  0  0  0  0  0  0  0
   18.8124    3.5137    0.0000 C   0  0  0  0  0  0  0  0  0  0  0  0
    2.8660   -2.3818    0.0000 C   0  0  0  0  0  0  0  0  0  0  0  0
   19.7252    3.1054    0.0000 C   0  0  0  0  0  0  0  0  0  0  0  0
    2.0000   -0.8818    0.0000 C   0  0  0  0  0  0  0  0  0  0  0  0
   20.5353    3.6918    0.0000 C   0  0  0  0  0  0  0  0  0  0  0  0
   21.4481    3.2835    0.0000 C   0  0  0  0  0  0  0  0  0  0  0  0
    5.4309    2.4292    0.0000 H   0  0  0  0  0  0  0  0  0  0  0  0
    4.1201    0.6316    0.0000 H   0  0  0  0  0  0  0  0  0  0  0  0
    6.4942    1.3984    0.0000 H   0  0  0  0  0  0  0  0  0  0  0  0
    5.4266   -0.0657    0.0000 H   0  0  0  0  0  0  0  0  0  0  0  0
    7.0999    2.7806    0.0000 H   0  0  0  0  0  0  0  0  0  0  0  0
    6.3070    2.6987    0.0000 H   0  0  0  0  0  0  0  0  0  0  0  0
    5.1000    3.4031    0.0000 H   0  0  0  0  0  0  0  0  0  0  0  0
    3.0935    1.7227    0.0000 H   0  0  0  0  0  0  0  0  0  0  0  0
    5.8819   -1.3818    0.0000 H   0  0  0  0  0  0  0  0  0  0  0  0
   14.2090    2.0578    0.0000 H   0  0  0  0  0  0  0  0  0  0  0  0
   15.0019    2.1397    0.0000 H   0  0  0  0  0  0  0  0  0  0  0  0
   13.9914    3.4929    0.0000 H   0  0  0  0  0  0  0  0  0  0  0  0
   13.1985    3.4110    0.0000 H   0  0  0  0  0  0  0  0  0  0  0  0
   15.7142    3.6710    0.0000 H   0  0  0  0  0  0  0  0  0  0  0  0
   14.9214    3.5890    0.0000 H   0  0  0  0  0  0  0  0  0  0  0  0
   12.4862    1.8797    0.0000 H   0  0  0  0  0  0  0  0  0  0  0  0
   13.2790    1.9617    0.0000 H   0  0  0  0  0  0  0  0  0  0  0  0
   12.2685    3.3148    0.0000 H   0  0  0  0  0  0  0  0  0  0  0  0
   11.4757    3.2329    0.0000 H   0  0  0  0  0  0  0  0  0  0  0  0
   15.9319    2.2358    0.0000 H   0  0  0  0  0  0  0  0  0  0  0  0
   16.7247    2.3178    0.0000 H   0  0  0  0  0  0  0  0  0  0  0  0
   10.7633    1.7016    0.0000 H   0  0  0  0  0  0  0  0  0  0  0  0
   11.5561    1.7836    0.0000 H   0  0  0  0  0  0  0  0  0  0  0  0
   17.4371    3.8490    0.0000 H   0  0  0  0  0  0  0  0  0  0  0  0
   16.6443    3.7671    0.0000 H   0  0  0  0  0  0  0  0  0  0  0  0
   10.5456    3.1368    0.0000 H   0  0  0  0  0  0  0  0  0  0  0  0
    9.7528    3.0548    0.0000 H   0  0  0  0  0  0  0  0  0  0  0  0
    9.0404    1.5236    0.0000 H   0  0  0  0  0  0  0  0  0  0  0  0
    9.8332    1.6055    0.0000 H   0  0  0  0  0  0  0  0  0  0  0  0
   17.6548    2.4139    0.0000 H   0  0  0  0  0  0  0  0  0  0  0  0
   18.4476    2.4959    0.0000 H   0  0  0  0  0  0  0  0  0  0  0  0
   19.1600    4.0271    0.0000 H   0  0  0  0  0  0  0  0  0  0  0  0
   18.3672    3.9452    0.0000 H   0  0  0  0  0  0  0  0  0  0  0  0
   19.3777    2.5920    0.0000 H   0  0  0  0  0  0  0  0  0  0  0  0
   20.1705    2.6739    0.0000 H   0  0  0  0  0  0  0  0  0  0  0  0
   20.8829    4.2052    0.0000 H   0  0  0  0  0  0  0  0  0  0  0  0
   20.0900    4.1232    0.0000 H   0  0  0  0  0  0  0  0  0  0  0  0
    1.4631   -0.5718    0.0000 H   0  0  0  0  0  0  0  0  0  0  0  0
    2.3291   -3.6918    0.0000 H   0  0  0  0  0  0  0  0  0  0  0  0
    3.4030   -3.6918    0.0000 H   0  0  0  0  0  0  0  0  0  0  0  0
   21.1950    2.7175    0.0000 H   0  0  0  0  0  0  0  0  0  0  0  0
   22.0141    3.0303    0.0000 H   0  0  0  0  0  0  0  0  0  0  0  0
   21.7013    3.8494    0.0000 H   0  0  0  0  0  0  0  0  0  0  0  0
  1 13  1  0  0  0  0
  1 14  1  0  0  0  0
 11  2  1  6  0  0  0
  2 43  1  0  0  0  0
 12  3  1  1  0  0  0
  3 44  1  0  0  0  0
  4 15  1  0  0  0  0
  4 30  1  0  0  0  0
  5 30  2  0  0  0  0
 14  6  1  1  0  0  0
  6 16  1  0  0  0  0
  6 17  1  0  0  0  0
  7 17  2  0  0  0  0
  7 20  1  0  0  0  0
  8 16  2  0  0  0  0
  8 34  1  0  0  0  0
  9 32  1  0  0  0  0
  9 34  2  0  0  0  0
 10 32  1  0  0  0  0
 10 75  1  0  0  0  0
 10 76  1  0  0  0  0
 11 12  1  0  0  0  0
 11 13  1  0  0  0  0
 11 37  1  0  0  0  0
 12 14  1  0  0  0  0
 12 38  1  0  0  0  0
 13 15  1  1  0  0  0
 13 39  1  0  0  0  0
 14 40  1  0  0  0  0
 15 41  1  0  0  0  0
 15 42  1  0  0  0  0
 16 20  1  0  0  0  0
 17 45  1  0  0  0  0
 18 19  1  0  0  0  0
 18 21  1  0  0  0  0
 18 46  1  0  0  0  0
 18 47  1  0  0  0  0
 19 22  1  0  0  0  0
 19 48  1  0  0  0  0
 19 49  1  0  0  0  0
 20 32  2  0  0  0  0
 21 24  1  0  0  0  0
 21 50  1  0  0  0  0
 21 51  1  0  0  0  0
 22 23  1  0  0  0  0
 22 52  1  0  0  0  0
 22 53  1  0  0  0  0
 23 25  1  0  0  0  0
 23 54  1  0  0  0  0
 23 55  1  0  0  0  0
 24 26  1  0  0  0  0
 24 56  1  0  0  0  0
 24 57  1  0  0  0  0
 25 27  1  0  0  0  0
 25 58  1  0  0  0  0
 25 59  1  0  0  0  0
 26 29  1  0  0  0  0
 26 60  1  0  0  0  0
 26 61  1  0  0  0  0
 27 28  1  0  0  0  0
 27 62  1  0  0  0  0
 27 63  1  0  0  0  0
 28 30  1  0  0  0  0
 28 64  1  0  0  0  0
 28 65  1  0  0  0  0
 29 31  1  0  0  0  0
 29 66  1  0  0  0  0
 29 67  1  0  0  0  0
 31 33  1  0  0  0  0
 31 68  1  0  0  0  0
 31 69  1  0  0  0  0
 33 35  1  0  0  0  0
 33 70  1  0  0  0  0
 33 71  1  0  0  0  0
 34 74  1  0  0  0  0
 35 36  1  0  0  0  0
 35 72  1  0  0  0  0
 35 73  1  0  0  0  0
 36 77  1  0  0  0  0
 36 78  1  0  0  0  0
 36 79  1  0  0  0  0
M  END
> <PUBCHEM_COMPOUND_CID>
515619
> <PUBCHEM_COMPOUND_CANONICALIZED>
1
> <PUBCHEM_CACTVS_COMPLEXITY>
630
> <PUBCHEM_CACTVS_HBOND_ACCEPTOR>
9
> <PUBCHEM_CACTVS_HBOND_DONOR>
3
> <PUBCHEM_CACTVS_ROTATABLE_BOND>
18
> <PUBCHEM_CACTVS_SUBSKEYS>
AAADcfB7uAAAAAAAAAAAAAAAAAAAAWJAAAAsAAAAAAAAAFgB+AAAHgAQCAAACBzhlwYH+L9MFgCoAQbxbACAgC0REKABUCEoVBCDWBJAyEAeRAgPAALTACH4+KqAAAAAAAAAAAAAAAAAAAAAAAAAAAAAAA==
> <PUBCHEM_IUPAC_OPENEYE_NAME>
[(2R,3S,4S,5R)-5-(6-aminopurin-9-yl)-3,4-dihydroxy-tetrahydrofuran-2-yl]methyl hexadecanoate
> <PUBCHEM_IUPAC_CAS_NAME>
hexadecanoic acid [(2R,3S,4S,5R)-5-(6-aminopurin-9-yl)-3,4-dihydroxy-2-oxolanyl]methyl ester
> <PUBCHEM_IUPAC_NAME_MARKUP>
[(2<I>R</I>,3<I>S</I>,4<I>S</I>,5<I>R</I>)-5-(6-aminopurin-9-yl)-3,4-dihydroxyoxolan-2-yl]methyl hexadecanoate
> <PUBCHEM_IUPAC_NAME>
[(2R,3S,4S,5R)-5-(6-aminopurin-9-yl)-3,4-dihydroxyoxolan-2-yl]methyl hexadecanoate
> <PUBCHEM_IUPAC_SYSTEMATIC_NAME>
[(2R,3S,4S,5R)-5-(6-aminopurin-9-yl)-3,4-bis(oxidanyl)oxolan-2-yl]methyl hexadecanoate
> <PUBCHEM_IUPAC_TRADITIONAL_NAME>
palmitic acid [(2R,3S,4S,5R)-5-adenin-9-yl-3,4-dihydroxy-tetrahydrofuran-2-yl]methyl ester
> <PUBCHEM_IUPAC_INCHI>
InChI=1S/C26H43N5O5/c1-2-3-4-5-6-7-8-9-10-11-12-13-14-15-20(32)35-16-19-22(33)23(34)26(36-19)31-18-30-21-24(27)28-17-29-25(21)31/h17-19,22-23,26,33-34H,2-16H2,1H3,(H2,27,28,29)/t19-,22-,23+,26-/m1/s1
> <PUBCHEM_IUPAC_INCHIKEY>
FFNKNBGAWJAPGI-BLZYYQICSA-N
> <PUBCHEM_XLOGP3>
6.3
> <PUBCHEM_EXACT_MASS>
505.32641949
> <PUBCHEM_MOLECULAR_FORMULA>
C26H43N5O5
> <PUBCHEM_MOLECULAR_WEIGHT>
505.6
> <PUBCHEM_OPENEYE_CAN_SMILES>
CCCCCCCCCCCCCCCC(=O)OCC1C(C(C(O1)N2C=NC3=C(N=CN=C32)N)O)O
> <PUBCHEM_OPENEYE_ISO_SMILES>
CCCCCCCCCCCCCCCC(=O)OC[C@@H]1[C@H]([C@@H]([C@@H](O1)N2C=NC3=C(N=CN=C32)N)O)O
> <PUBCHEM_CACTVS_TPSA>
146
> <PUBCHEM_MONOISOTOPIC_WEIGHT>
505.32641949
> <PUBCHEM_TOTAL_CHARGE>
0
> <PUBCHEM_HEAVY_ATOM_COUNT>
36
> <PUBCHEM_ATOM_DEF_STEREO_COUNT>
4
> <PUBCHEM_ATOM_UDEF_STEREO_COUNT>
0
> <PUBCHEM_BOND_DEF_STEREO_COUNT>
0
> <PUBCHEM_BOND_UDEF_STEREO_COUNT>
0
> <PUBCHEM_ISOTOPIC_ATOM_COUNT>
0
> <PUBCHEM_COMPONENT_COUNT>
1
> <PUBCHEM_CACTVS_TAUTO_COUNT>
-1
> <PUBCHEM_COORDINATE_TYPE>
1
5
255
> <PUBCHEM_BONDANNOTATIONS>
13  15  5
16  20  8
11  2  6
20  32  8
12  3  5
14  6  5
6  16  8
6  17  8
7  17  8
7  20  8
8  16  8
8  34  8
9  32  8
9  34  8
$$$$
