515628
  -OEChem-10302200282D
 28 28  0     1  0  0  0  0  0999 V2000
    6.3301   -1.5000    0.0000 O   0  0  0  0  0  0  0  0  0  0  0  0
    8.0622   -0.5000    0.0000 N   0  0  0  0  0  0  0  0  0  0  0  0
    5.4641   -0.0000    0.0000 N   0  0  0  0  0  0  0  0  0  0  0  0
    9.7942   -0.5000    0.0000 N   0  0  0  0  0  0  0  0  0  0  0  0
    2.0000   -1.0000    0.0000 N   0  0  0  0  0  0  0  0  0  0  0  0
    7.1962    1.0000    0.0000 C   0  0  0  0  0  0  0  0  0  0  0  0
    7.1962   -0.0000    0.0000 C   0  0  3  0  0  0  0  0  0  0  0  0
    8.0622    1.5000    0.0000 C   0  0  0  0  0  0  0  0  0  0  0  0
    8.9282    1.0000    0.0000 C   0  0  0  0  0  0  0  0  0  0  0  0
    8.9282    0.0000    0.0000 C   0  0  0  0  0  0  0  0  0  0  0  0
    6.3301   -0.5000    0.0000 C   0  0  0  0  0  0  0  0  0  0  0  0
    4.5981   -0.5000    0.0000 C   0  0  0  0  0  0  0  0  0  0  0  0
    3.7320   -0.0000    0.0000 C   0  0  0  0  0  0  0  0  0  0  0  0
    2.8660   -0.5000    0.0000 C   0  0  0  0  0  0  0  0  0  0  0  0
    6.9841    1.5826    0.0000 H   0  0  0  0  0  0  0  0  0  0  0  0
    6.5856    0.8923    0.0000 H   0  0  0  0  0  0  0  0  0  0  0  0
    7.1962   -0.6200    0.0000 H   0  0  0  0  0  0  0  0  0  0  0  0
    8.4607    1.9750    0.0000 H   0  0  0  0  0  0  0  0  0  0  0  0
    7.6636    1.9750    0.0000 H   0  0  0  0  0  0  0  0  0  0  0  0
    9.5388    0.8923    0.0000 H   0  0  0  0  0  0  0  0  0  0  0  0
    9.1403    1.5826    0.0000 H   0  0  0  0  0  0  0  0  0  0  0  0
    5.4641    0.6200    0.0000 H   0  0  0  0  0  0  0  0  0  0  0  0
    4.1996   -0.9749    0.0000 H   0  0  0  0  0  0  0  0  0  0  0  0
    4.9966   -0.9749    0.0000 H   0  0  0  0  0  0  0  0  0  0  0  0
   10.3312   -0.1900    0.0000 H   0  0  0  0  0  0  0  0  0  0  0  0
    9.7942   -1.1200    0.0000 H   0  0  0  0  0  0  0  0  0  0  0  0
    4.1306    0.4749    0.0000 H   0  0  0  0  0  0  0  0  0  0  0  0
    3.3335    0.4749    0.0000 H   0  0  0  0  0  0  0  0  0  0  0  0
  1 11  2  0  0  0  0
  2  7  1  0  0  0  0
  2 10  2  0  0  0  0
  3 11  1  0  0  0  0
  3 12  1  0  0  0  0
  3 22  1  0  0  0  0
  4 10  1  0  0  0  0
  4 25  1  0  0  0  0
  4 26  1  0  0  0  0
  5 14  3  0  0  0  0
  6  7  1  0  0  0  0
  6  8  1  0  0  0  0
  6 15  1  0  0  0  0
  6 16  1  0  0  0  0
  7 11  1  0  0  0  0
  7 17  1  0  0  0  0
  8  9  1  0  0  0  0
  8 18  1  0  0  0  0
  8 19  1  0  0  0  0
  9 10  1  0  0  0  0
  9 20  1  0  0  0  0
  9 21  1  0  0  0  0
 12 13  1  0  0  0  0
 12 23  1  0  0  0  0
 12 24  1  0  0  0  0
 13 14  1  0  0  0  0
 13 27  1  0  0  0  0
 13 28  1  0  0  0  0
M  END
> <PUBCHEM_COMPOUND_CID>
515628
> <PUBCHEM_COMPOUND_CANONICALIZED>
1
> <PUBCHEM_CACTVS_COMPLEXITY>
288
> <PUBCHEM_CACTVS_HBOND_ACCEPTOR>
3
> <PUBCHEM_CACTVS_HBOND_DONOR>
2
> <PUBCHEM_CACTVS_ROTATABLE_BOND>
3
> <PUBCHEM_CACTVS_SUBSKEYS>
AAADccBzoAAAAAAAAAAAAAAAAAAAAAAAAAAgAAAAAAAAAAAAAAAAHgAQAAAACCjBgAQBAALAAAA4BAMwNAAAAAEAAAAAAIG4AAAAwBIAgAAUAAAAFgCAAAEYCAAAAAAAAAAAAAAAAAAAAAAAAAAAAAAAAA==
> <PUBCHEM_IUPAC_OPENEYE_NAME>
6-amino-N-(2-cyanoethyl)-2,3,4,5-tetrahydropyridine-2-carboxamide
> <PUBCHEM_IUPAC_CAS_NAME>
6-amino-N-(2-cyanoethyl)-2,3,4,5-tetrahydropyridine-2-carboxamide
> <PUBCHEM_IUPAC_NAME_MARKUP>
6-amino-<I>N</I>-(2-cyanoethyl)-2,3,4,5-tetrahydropyridine-2-carboxamide
> <PUBCHEM_IUPAC_NAME>
6-amino-N-(2-cyanoethyl)-2,3,4,5-tetrahydropyridine-2-carboxamide
> <PUBCHEM_IUPAC_SYSTEMATIC_NAME>
6-azanyl-N-(2-cyanoethyl)-2,3,4,5-tetrahydropyridine-2-carboxamide
> <PUBCHEM_IUPAC_TRADITIONAL_NAME>
6-amino-N-(2-cyanoethyl)-2,3,4,5-tetrahydropyridine-2-carboxamide
> <PUBCHEM_IUPAC_INCHI>
InChI=1S/C9H14N4O/c10-5-2-6-12-9(14)7-3-1-4-8(11)13-7/h7H,1-4,6H2,(H2,11,13)(H,12,14)
> <PUBCHEM_IUPAC_INCHIKEY>
ZISDSJDTKWSPIZ-UHFFFAOYSA-N
> <PUBCHEM_XLOGP3_AA>
-1.3
> <PUBCHEM_EXACT_MASS>
194.11676108
> <PUBCHEM_MOLECULAR_FORMULA>
C9H14N4O
> <PUBCHEM_MOLECULAR_WEIGHT>
194.23
> <PUBCHEM_OPENEYE_CAN_SMILES>
C1CC(N=C(C1)N)C(=O)NCCC#N
> <PUBCHEM_OPENEYE_ISO_SMILES>
C1CC(N=C(C1)N)C(=O)NCCC#N
> <PUBCHEM_CACTVS_TPSA>
91.3
> <PUBCHEM_MONOISOTOPIC_WEIGHT>
194.11676108
> <PUBCHEM_TOTAL_CHARGE>
0
> <PUBCHEM_HEAVY_ATOM_COUNT>
14
> <PUBCHEM_ATOM_DEF_STEREO_COUNT>
0
> <PUBCHEM_ATOM_UDEF_STEREO_COUNT>
1
> <PUBCHEM_BOND_DEF_STEREO_COUNT>
0
> <PUBCHEM_BOND_UDEF_STEREO_COUNT>
0
> <PUBCHEM_ISOTOPIC_ATOM_COUNT>
0
> <PUBCHEM_COMPONENT_COUNT>
1
> <PUBCHEM_CACTVS_TAUTO_COUNT>
-1
> <PUBCHEM_COORDINATE_TYPE>
1
5
255
> <PUBCHEM_BONDANNOTATIONS>
7  11  3
$$$$
