515634
  -OEChem-10302200282D
 33 33  0     1  0  0  0  0  0999 V2000
    6.1888   -1.3638    0.0000 O   0  0  0  0  0  0  0  0  0  0  0  0
    4.2208   -0.6644    0.0000 N   0  0  0  0  0  0  0  0  0  0  0  0
    6.7240    0.2835    0.0000 N   0  0  0  0  0  0  0  0  0  0  0  0
    2.4608   -0.3857    0.0000 N   0  0  0  0  0  0  0  0  0  0  0  0
   11.8066    1.3638    0.0000 N   0  0  0  0  0  0  0  0  0  0  0  0
    5.0298   -0.0766    0.0000 C   0  0  3  0  0  0  0  0  0  0  0  0
    4.7208    0.8744    0.0000 C   0  0  0  0  0  0  0  0  0  0  0  0
    3.7208    0.8744    0.0000 C   0  0  0  0  0  0  0  0  0  0  0  0
    3.4118   -0.0766    0.0000 C   0  0  0  0  0  0  0  0  0  0  0  0
    5.9809   -0.3857    0.0000 C   0  0  0  0  0  0  0  0  0  0  0  0
    7.6751   -0.0255    0.0000 C   0  0  0  0  0  0  0  0  0  0  0  0
    8.4182    0.6436    0.0000 C   0  0  0  0  0  0  0  0  0  0  0  0
    9.3693    0.3346    0.0000 C   0  0  0  0  0  0  0  0  0  0  0  0
   10.1124    1.0037    0.0000 C   0  0  0  0  0  0  0  0  0  0  0  0
   11.0635    0.6947    0.0000 C   0  0  0  0  0  0  0  0  0  0  0  0
    5.1268   -0.6890    0.0000 H   0  0  0  0  0  0  0  0  0  0  0  0
    5.3273    1.0033    0.0000 H   0  0  0  0  0  0  0  0  0  0  0  0
    4.6560    1.4910    0.0000 H   0  0  0  0  0  0  0  0  0  0  0  0
    3.7856    1.4910    0.0000 H   0  0  0  0  0  0  0  0  0  0  0  0
    3.1144    1.0033    0.0000 H   0  0  0  0  0  0  0  0  0  0  0  0
    7.3840   -0.5730    0.0000 H   0  0  0  0  0  0  0  0  0  0  0  0
    8.1637   -0.4073    0.0000 H   0  0  0  0  0  0  0  0  0  0  0  0
    8.7093    1.1910    0.0000 H   0  0  0  0  0  0  0  0  0  0  0  0
    7.9297    1.0253    0.0000 H   0  0  0  0  0  0  0  0  0  0  0  0
    6.5951    0.8899    0.0000 H   0  0  0  0  0  0  0  0  0  0  0  0
    9.0782   -0.2129    0.0000 H   0  0  0  0  0  0  0  0  0  0  0  0
    9.8579   -0.0471    0.0000 H   0  0  0  0  0  0  0  0  0  0  0  0
   10.4035    1.5511    0.0000 H   0  0  0  0  0  0  0  0  0  0  0  0
    9.6239    1.3854    0.0000 H   0  0  0  0  0  0  0  0  0  0  0  0
    2.0000    0.0292    0.0000 H   0  0  0  0  0  0  0  0  0  0  0  0
    2.3318   -0.9921    0.0000 H   0  0  0  0  0  0  0  0  0  0  0  0
   11.1924    0.0882    0.0000 H   0  0  0  0  0  0  0  0  0  0  0  0
   12.3963    1.1722    0.0000 H   0  0  0  0  0  0  0  0  0  0  0  0
  1 10  2  0  0  0  0
  2  6  1  0  0  0  0
  2  9  2  0  0  0  0
  3 10  1  0  0  0  0
  3 11  1  0  0  0  0
  3 25  1  0  0  0  0
  4  9  1  0  0  0  0
  4 30  1  0  0  0  0
  4 31  1  0  0  0  0
  5 15  2  0  0  0  0
  5 33  1  0  0  0  0
  6  7  1  0  0  0  0
  6 10  1  0  0  0  0
  6 16  1  0  0  0  0
  7  8  1  0  0  0  0
  7 17  1  0  0  0  0
  7 18  1  0  0  0  0
  8  9  1  0  0  0  0
  8 19  1  0  0  0  0
  8 20  1  0  0  0  0
 11 12  1  0  0  0  0
 11 21  1  0  0  0  0
 11 22  1  0  0  0  0
 12 13  1  0  0  0  0
 12 23  1  0  0  0  0
 12 24  1  0  0  0  0
 13 14  1  0  0  0  0
 13 26  1  0  0  0  0
 13 27  1  0  0  0  0
 14 15  1  0  0  0  0
 14 28  1  0  0  0  0
 14 29  1  0  0  0  0
 15 32  1  0  0  0  0
M  END
> <PUBCHEM_COMPOUND_CID>
515634
> <PUBCHEM_COMPOUND_CANONICALIZED>
1
> <PUBCHEM_CACTVS_COMPLEXITY>
262
> <PUBCHEM_CACTVS_HBOND_ACCEPTOR>
3
> <PUBCHEM_CACTVS_HBOND_DONOR>
3
> <PUBCHEM_CACTVS_ROTATABLE_BOND>
6
> <PUBCHEM_CACTVS_SUBSKEYS>
AAADceBzoAAAAAAAAAAAAAAAAAAAAQAAAAAAAAAAAAAAAAAAAAAAHgAQAAAACCjBgAQBAALAAAAoABMxNAAAAAEAAAAAAIG4AAAAQBIAgAAUAAAAFgCAAAAYAQAAAAAAAAAAAAAAAAAAAAAAAAAAAAAAAA==
> <PUBCHEM_IUPAC_OPENEYE_NAME>
5-amino-N-(5-iminopentyl)-3,4-dihydro-2H-pyrrole-2-carboxamide
> <PUBCHEM_IUPAC_CAS_NAME>
5-amino-N-(5-iminopentyl)-3,4-dihydro-2H-pyrrole-2-carboxamide
> <PUBCHEM_IUPAC_NAME_MARKUP>
5-amino-<I>N</I>-(5-iminopentyl)-3,4-dihydro-2<I>H</I>-pyrrole-2-carboxamide
> <PUBCHEM_IUPAC_NAME>
5-amino-N-(5-iminopentyl)-3,4-dihydro-2H-pyrrole-2-carboxamide
> <PUBCHEM_IUPAC_SYSTEMATIC_NAME>
5-azanyl-N-(5-azanylidenepentyl)-3,4-dihydro-2H-pyrrole-2-carboxamide
> <PUBCHEM_IUPAC_TRADITIONAL_NAME>
5-amino-N-(5-iminopentyl)-1-pyrroline-2-carboxamide
> <PUBCHEM_IUPAC_INCHI>
InChI=1S/C10H18N4O/c11-6-2-1-3-7-13-10(15)8-4-5-9(12)14-8/h6,8,11H,1-5,7H2,(H2,12,14)(H,13,15)
> <PUBCHEM_IUPAC_INCHIKEY>
AOFSCCBMRUKPIT-UHFFFAOYSA-N
> <PUBCHEM_XLOGP3_AA>
-1.1
> <PUBCHEM_EXACT_MASS>
210.14806121
> <PUBCHEM_MOLECULAR_FORMULA>
C10H18N4O
> <PUBCHEM_MOLECULAR_WEIGHT>
210.28
> <PUBCHEM_OPENEYE_CAN_SMILES>
C1CC(=NC1C(=O)NCCCCC=N)N
> <PUBCHEM_OPENEYE_ISO_SMILES>
C1CC(=NC1C(=O)NCCCCC=N)N
> <PUBCHEM_CACTVS_TPSA>
91.3
> <PUBCHEM_MONOISOTOPIC_WEIGHT>
210.14806121
> <PUBCHEM_TOTAL_CHARGE>
0
> <PUBCHEM_HEAVY_ATOM_COUNT>
15
> <PUBCHEM_ATOM_DEF_STEREO_COUNT>
0
> <PUBCHEM_ATOM_UDEF_STEREO_COUNT>
1
> <PUBCHEM_BOND_DEF_STEREO_COUNT>
0
> <PUBCHEM_BOND_UDEF_STEREO_COUNT>
0
> <PUBCHEM_ISOTOPIC_ATOM_COUNT>
0
> <PUBCHEM_COMPONENT_COUNT>
1
> <PUBCHEM_CACTVS_TAUTO_COUNT>
-1
> <PUBCHEM_COORDINATE_TYPE>
1
5
255
> <PUBCHEM_BONDANNOTATIONS>
6  10  3
$$$$
