515696
  -OEChem-10302200282D
 62 65  0     1  0  0  0  0  0999 V2000
    4.6688   -3.6189    0.0000 O   0  0  0  0  0  0  0  0  0  0  0  0
    4.5046    3.0659    0.0000 O   0  0  0  0  0  0  0  0  0  0  0  0
    2.8404   -5.5312    0.0000 N   0  0  0  0  0  0  0  0  0  0  0  0
    4.9946    5.6659    0.0000 N   0  0  0  0  0  0  0  0  0  0  0  0
    5.5288   -1.1370    0.0000 C   0  0  0  0  0  0  0  0  0  0  0  0
    4.7198   -0.5492    0.0000 C   0  0  0  0  0  0  0  0  0  0  0  0
    6.3378   -0.5492    0.0000 C   0  0  0  0  0  0  0  0  0  0  0  0
    5.0288    0.4018    0.0000 C   0  0  0  0  0  0  0  0  0  0  0  0
    6.0288    0.4018    0.0000 C   0  0  0  0  0  0  0  0  0  0  0  0
    5.6217   -2.1745    0.0000 C   0  0  0  0  0  0  0  0  0  0  0  0
    4.7180   -2.6202    0.0000 C   0  0  0  0  0  0  0  0  0  0  0  0
    3.8635   -1.0802    0.0000 C   0  0  0  0  0  0  0  0  0  0  0  0
    4.4941    1.2958    0.0000 C   0  0  0  0  0  0  0  0  0  0  0  0
    7.2958   -0.9582    0.0000 C   0  0  0  0  0  0  0  0  0  0  0  0
    6.5634    1.2958    0.0000 C   0  0  0  0  0  0  0  0  0  0  0  0
    6.5700   -2.6055    0.0000 C   0  0  0  0  0  0  0  0  0  0  0  0
    3.8626   -2.0878    0.0000 C   0  0  0  0  0  0  0  0  0  0  0  0
    5.0080    2.2018    0.0000 C   0  0  0  0  0  0  0  0  0  0  0  0
    3.7792   -4.0757    0.0000 C   0  0  3  0  0  0  0  0  0  0  0  0
    7.4127   -1.9932    0.0000 C   0  0  0  0  0  0  0  0  0  0  0  0
    6.0496    2.2018    0.0000 C   0  0  0  0  0  0  0  0  0  0  0  0
    5.0013    3.9339    0.0000 C   0  0  3  0  0  0  0  0  0  0  0  0
    3.7300   -5.0745    0.0000 C   0  0  0  0  0  0  0  0  0  0  0  0
    4.4980    4.7980    0.0000 C   0  0  0  0  0  0  0  0  0  0  0  0
    2.9388   -3.5336    0.0000 C   0  0  0  0  0  0  0  0  0  0  0  0
    6.0013    3.9377    0.0000 C   0  0  0  0  0  0  0  0  0  0  0  0
    2.7911   -6.5300    0.0000 C   0  0  0  0  0  0  0  0  0  0  0  0
    2.0000   -4.9892    0.0000 C   0  0  0  0  0  0  0  0  0  0  0  0
    4.4913    6.5300    0.0000 C   0  0  0  0  0  0  0  0  0  0  0  0
    5.9946    5.6698    0.0000 C   0  0  0  0  0  0  0  0  0  0  0  0
    3.3218   -0.7785    0.0000 H   0  0  0  0  0  0  0  0  0  0  0  0
    3.8742    1.2886    0.0000 H   0  0  0  0  0  0  0  0  0  0  0  0
    7.7931   -0.5880    0.0000 H   0  0  0  0  0  0  0  0  0  0  0  0
    7.1834    1.2886    0.0000 H   0  0  0  0  0  0  0  0  0  0  0  0
    6.6324   -3.2223    0.0000 H   0  0  0  0  0  0  0  0  0  0  0  0
    3.3205   -2.3886    0.0000 H   0  0  0  0  0  0  0  0  0  0  0  0
    3.8097   -3.4564    0.0000 H   0  0  0  0  0  0  0  0  0  0  0  0
    7.9800   -2.2432    0.0000 H   0  0  0  0  0  0  0  0  0  0  0  0
    6.3617    2.7376    0.0000 H   0  0  0  0  0  0  0  0  0  0  0  0
    4.3813    3.9315    0.0000 H   0  0  0  0  0  0  0  0  0  0  0  0
    3.9130   -5.6668    0.0000 H   0  0  0  0  0  0  0  0  0  0  0  0
    4.3451   -4.9970    0.0000 H   0  0  0  0  0  0  0  0  0  0  0  0
    4.0215    5.1947    0.0000 H   0  0  0  0  0  0  0  0  0  0  0  0
    4.0245    4.3976    0.0000 H   0  0  0  0  0  0  0  0  0  0  0  0
    3.2749   -3.0126    0.0000 H   0  0  0  0  0  0  0  0  0  0  0  0
    2.4178   -3.1976    0.0000 H   0  0  0  0  0  0  0  0  0  0  0  0
    2.6028   -4.0547    0.0000 H   0  0  0  0  0  0  0  0  0  0  0  0
    6.0037    3.3177    0.0000 H   0  0  0  0  0  0  0  0  0  0  0  0
    6.6213    3.9401    0.0000 H   0  0  0  0  0  0  0  0  0  0  0  0
    5.9989    4.5577    0.0000 H   0  0  0  0  0  0  0  0  0  0  0  0
    2.1719   -6.4995    0.0000 H   0  0  0  0  0  0  0  0  0  0  0  0
    2.7606   -7.1492    0.0000 H   0  0  0  0  0  0  0  0  0  0  0  0
    3.4104   -6.5605    0.0000 H   0  0  0  0  0  0  0  0  0  0  0  0
    2.3361   -4.4682    0.0000 H   0  0  0  0  0  0  0  0  0  0  0  0
    1.4790   -4.6531    0.0000 H   0  0  0  0  0  0  0  0  0  0  0  0
    1.6639   -5.5102    0.0000 H   0  0  0  0  0  0  0  0  0  0  0  0
    5.0270    6.8421    0.0000 H   0  0  0  0  0  0  0  0  0  0  0  0
    4.1792    7.0657    0.0000 H   0  0  0  0  0  0  0  0  0  0  0  0
    3.9555    6.2179    0.0000 H   0  0  0  0  0  0  0  0  0  0  0  0
    5.9970    5.0498    0.0000 H   0  0  0  0  0  0  0  0  0  0  0  0
    6.6146    5.6722    0.0000 H   0  0  0  0  0  0  0  0  0  0  0  0
    5.9922    6.2898    0.0000 H   0  0  0  0  0  0  0  0  0  0  0  0
  1 11  1  0  0  0  0
  1 19  1  0  0  0  0
  2 18  1  0  0  0  0
  2 22  1  0  0  0  0
  3 23  1  0  0  0  0
  3 27  1  0  0  0  0
  3 28  1  0  0  0  0
  4 24  1  0  0  0  0
  4 29  1  0  0  0  0
  4 30  1  0  0  0  0
  5  6  2  0  0  0  0
  5  7  1  0  0  0  0
  5 10  1  0  0  0  0
  6  8  1  0  0  0  0
  6 12  1  0  0  0  0
  7  9  1  0  0  0  0
  7 14  2  0  0  0  0
  8  9  2  0  0  0  0
  8 13  1  0  0  0  0
  9 15  1  0  0  0  0
 10 11  2  0  0  0  0
 10 16  1  0  0  0  0
 11 17  1  0  0  0  0
 12 17  2  0  0  0  0
 12 31  1  0  0  0  0
 13 18  2  0  0  0  0
 13 32  1  0  0  0  0
 14 20  1  0  0  0  0
 14 33  1  0  0  0  0
 15 21  2  0  0  0  0
 15 34  1  0  0  0  0
 16 20  2  0  0  0  0
 16 35  1  0  0  0  0
 17 36  1  0  0  0  0
 18 21  1  0  0  0  0
 19 23  1  0  0  0  0
 19 25  1  0  0  0  0
 19 37  1  0  0  0  0
 20 38  1  0  0  0  0
 21 39  1  0  0  0  0
 22 24  1  0  0  0  0
 22 26  1  0  0  0  0
 22 40  1  0  0  0  0
 23 41  1  0  0  0  0
 23 42  1  0  0  0  0
 24 43  1  0  0  0  0
 24 44  1  0  0  0  0
 25 45  1  0  0  0  0
 25 46  1  0  0  0  0
 25 47  1  0  0  0  0
 26 48  1  0  0  0  0
 26 49  1  0  0  0  0
 26 50  1  0  0  0  0
 27 51  1  0  0  0  0
 27 52  1  0  0  0  0
 27 53  1  0  0  0  0
 28 54  1  0  0  0  0
 28 55  1  0  0  0  0
 28 56  1  0  0  0  0
 29 57  1  0  0  0  0
 29 58  1  0  0  0  0
 29 59  1  0  0  0  0
 30 60  1  0  0  0  0
 30 61  1  0  0  0  0
 30 62  1  0  0  0  0
M  END
> <PUBCHEM_COMPOUND_CID>
515696
> <PUBCHEM_COMPOUND_CANONICALIZED>
1
> <PUBCHEM_CACTVS_COMPLEXITY>
553
> <PUBCHEM_CACTVS_HBOND_ACCEPTOR>
4
> <PUBCHEM_CACTVS_HBOND_DONOR>
0
> <PUBCHEM_CACTVS_ROTATABLE_BOND>
8
> <PUBCHEM_CACTVS_SUBSKEYS>
AAADcfB7MAAAAAAAAAAAAAAAAAAAAYAAAAAwYMAAAAAAAGDBVAAAHgAAAAAADBThmAYyBsMABACAAiBCAAACCAAgIAAIiAAOCIgOJiKEMRqHOCCkwBEYqAeAwPAOoAADAAAYAABAAAYAADAAAQAACAAAAA==
> <PUBCHEM_IUPAC_OPENEYE_NAME>
2-[4-[2-(dimethylamino)-1-methyl-ethoxy]fluoranthen-8-yl]oxy-N,N-dimethyl-propan-1-amine
> <PUBCHEM_IUPAC_CAS_NAME>
2-[[4-[1-(dimethylamino)propan-2-yloxy]-8-fluoranthenyl]oxy]-N,N-dimethyl-1-propanamine
> <PUBCHEM_IUPAC_NAME_MARKUP>
2-[4-[1-(dimethylamino)propan-2-yloxy]fluoranthen-8-yl]oxy-<I>N</I>,<I>N</I>-dimethylpropan-1-amine
> <PUBCHEM_IUPAC_NAME>
2-[4-[1-(dimethylamino)propan-2-yloxy]fluoranthen-8-yl]oxy-N,N-dimethylpropan-1-amine
> <PUBCHEM_IUPAC_SYSTEMATIC_NAME>
2-[4-[1-(dimethylamino)propan-2-yloxy]fluoranthen-8-yl]oxy-N,N-dimethyl-propan-1-amine
> <PUBCHEM_IUPAC_TRADITIONAL_NAME>
2-[4-[2-(dimethylamino)-1-methyl-ethoxy]fluoranthen-8-yl]oxypropyl-dimethyl-amine
> <PUBCHEM_IUPAC_INCHI>
InChI=1S/C26H32N2O2/c1-17(15-27(3)4)29-19-10-11-20-21-8-7-9-23-25(30-18(2)16-28(5)6)13-12-22(26(21)23)24(20)14-19/h7-14,17-18H,15-16H2,1-6H3
> <PUBCHEM_IUPAC_INCHIKEY>
VMAJILONDMSZPV-UHFFFAOYSA-N
> <PUBCHEM_XLOGP3_AA>
5.4
> <PUBCHEM_EXACT_MASS>
404.246378268
> <PUBCHEM_MOLECULAR_FORMULA>
C26H32N2O2
> <PUBCHEM_MOLECULAR_WEIGHT>
404.5
> <PUBCHEM_OPENEYE_CAN_SMILES>
CC(CN(C)C)OC1=CC2=C(C=C1)C3=CC=CC4=C(C=CC2=C43)OC(C)CN(C)C
> <PUBCHEM_OPENEYE_ISO_SMILES>
CC(CN(C)C)OC1=CC2=C(C=C1)C3=CC=CC4=C(C=CC2=C43)OC(C)CN(C)C
> <PUBCHEM_CACTVS_TPSA>
24.9
> <PUBCHEM_MONOISOTOPIC_WEIGHT>
404.246378268
> <PUBCHEM_TOTAL_CHARGE>
0
> <PUBCHEM_HEAVY_ATOM_COUNT>
30
> <PUBCHEM_ATOM_DEF_STEREO_COUNT>
0
> <PUBCHEM_ATOM_UDEF_STEREO_COUNT>
2
> <PUBCHEM_BOND_DEF_STEREO_COUNT>
0
> <PUBCHEM_BOND_UDEF_STEREO_COUNT>
0
> <PUBCHEM_ISOTOPIC_ATOM_COUNT>
0
> <PUBCHEM_COMPONENT_COUNT>
1
> <PUBCHEM_CACTVS_TAUTO_COUNT>
-1
> <PUBCHEM_COORDINATE_TYPE>
1
5
255
> <PUBCHEM_BONDANNOTATIONS>
10  11  8
10  16  8
11  17  8
12  17  8
13  18  8
14  20  8
15  21  8
16  20  8
18  21  8
19  25  3
22  26  3
5  10  8
5  6  8
5  7  8
6  12  8
7  14  8
8  13  8
8  9  8
9  15  8
$$$$
