515621
  -OEChem-10302200282D
 27 27  0     1  0  0  0  0  0999 V2000
    9.7942   -0.5000    0.0000 O   0  0  0  0  0  0  0  0  0  0  0  0
    6.3301   -1.5000    0.0000 O   0  0  0  0  0  0  0  0  0  0  0  0
    8.0622   -0.5000    0.0000 N   0  0  0  0  0  0  0  0  0  0  0  0
    5.4641   -0.0000    0.0000 N   0  0  0  0  0  0  0  0  0  0  0  0
    2.0000   -1.0000    0.0000 N   0  0  0  0  0  0  0  0  0  0  0  0
    7.1962   -0.0000    0.0000 C   0  0  3  0  0  0  0  0  0  0  0  0
    7.1962    1.0000    0.0000 C   0  0  0  0  0  0  0  0  0  0  0  0
    8.0622    1.5000    0.0000 C   0  0  0  0  0  0  0  0  0  0  0  0
    8.9282    1.0000    0.0000 C   0  0  0  0  0  0  0  0  0  0  0  0
    8.9282    0.0000    0.0000 C   0  0  0  0  0  0  0  0  0  0  0  0
    6.3301   -0.5000    0.0000 C   0  0  0  0  0  0  0  0  0  0  0  0
    4.5981   -0.5000    0.0000 C   0  0  0  0  0  0  0  0  0  0  0  0
    3.7320   -0.0000    0.0000 C   0  0  0  0  0  0  0  0  0  0  0  0
    2.8660   -0.5000    0.0000 C   0  0  0  0  0  0  0  0  0  0  0  0
    7.1962   -0.6200    0.0000 H   0  0  0  0  0  0  0  0  0  0  0  0
    6.9841    1.5826    0.0000 H   0  0  0  0  0  0  0  0  0  0  0  0
    6.5856    0.8923    0.0000 H   0  0  0  0  0  0  0  0  0  0  0  0
    8.4607    1.9750    0.0000 H   0  0  0  0  0  0  0  0  0  0  0  0
    7.6636    1.9750    0.0000 H   0  0  0  0  0  0  0  0  0  0  0  0
    9.5388    0.8923    0.0000 H   0  0  0  0  0  0  0  0  0  0  0  0
    9.1403    1.5826    0.0000 H   0  0  0  0  0  0  0  0  0  0  0  0
    8.0622   -1.1200    0.0000 H   0  0  0  0  0  0  0  0  0  0  0  0
    5.4641    0.6200    0.0000 H   0  0  0  0  0  0  0  0  0  0  0  0
    4.1996   -0.9749    0.0000 H   0  0  0  0  0  0  0  0  0  0  0  0
    4.9966   -0.9749    0.0000 H   0  0  0  0  0  0  0  0  0  0  0  0
    4.1306    0.4749    0.0000 H   0  0  0  0  0  0  0  0  0  0  0  0
    3.3335    0.4749    0.0000 H   0  0  0  0  0  0  0  0  0  0  0  0
  1 10  2  0  0  0  0
  2 11  2  0  0  0  0
  3  6  1  0  0  0  0
  3 10  1  0  0  0  0
  3 22  1  0  0  0  0
  4 11  1  0  0  0  0
  4 12  1  0  0  0  0
  4 23  1  0  0  0  0
  5 14  3  0  0  0  0
  6  7  1  0  0  0  0
  6 11  1  0  0  0  0
  6 15  1  0  0  0  0
  7  8  1  0  0  0  0
  7 16  1  0  0  0  0
  7 17  1  0  0  0  0
  8  9  1  0  0  0  0
  8 18  1  0  0  0  0
  8 19  1  0  0  0  0
  9 10  1  0  0  0  0
  9 20  1  0  0  0  0
  9 21  1  0  0  0  0
 12 13  1  0  0  0  0
 12 24  1  0  0  0  0
 12 25  1  0  0  0  0
 13 14  1  0  0  0  0
 13 26  1  0  0  0  0
 13 27  1  0  0  0  0
M  END
> <PUBCHEM_COMPOUND_CID>
515621
> <PUBCHEM_COMPOUND_CANONICALIZED>
1
> <PUBCHEM_CACTVS_COMPLEXITY>
279
> <PUBCHEM_CACTVS_HBOND_ACCEPTOR>
3
> <PUBCHEM_CACTVS_HBOND_DONOR>
2
> <PUBCHEM_CACTVS_ROTATABLE_BOND>
3
> <PUBCHEM_CACTVS_SUBSKEYS>
AAADccBzMAAAAAAAAAAAAAAAAAAAAAAAAAAsAAAAAAAAAAAAAAAAHgAQAAAACCjBgAQAAALAAAAYBAEQEAAAAAAAAAAAAIGIAAAAwBIAgCAUAAAAFgCAAAEYCQAQAAAAAAAAAAAAAAAAAAAAAAAAAAAAAA==
> <PUBCHEM_IUPAC_OPENEYE_NAME>
N-(2-cyanoethyl)-6-oxo-piperidine-2-carboxamide
> <PUBCHEM_IUPAC_CAS_NAME>
N-(2-cyanoethyl)-6-oxo-2-piperidinecarboxamide
> <PUBCHEM_IUPAC_NAME_MARKUP>
<I>N</I>-(2-cyanoethyl)-6-oxopiperidine-2-carboxamide
> <PUBCHEM_IUPAC_NAME>
N-(2-cyanoethyl)-6-oxopiperidine-2-carboxamide
> <PUBCHEM_IUPAC_SYSTEMATIC_NAME>
N-(2-cyanoethyl)-6-oxidanylidene-piperidine-2-carboxamide
> <PUBCHEM_IUPAC_TRADITIONAL_NAME>
N-(2-cyanoethyl)-6-keto-pipecolinamide
> <PUBCHEM_IUPAC_INCHI>
InChI=1S/C9H13N3O2/c10-5-2-6-11-9(14)7-3-1-4-8(13)12-7/h7H,1-4,6H2,(H,11,14)(H,12,13)
> <PUBCHEM_IUPAC_INCHIKEY>
LPDATMFSSWTHFF-UHFFFAOYSA-N
> <PUBCHEM_XLOGP3_AA>
-1
> <PUBCHEM_EXACT_MASS>
195.100776666
> <PUBCHEM_MOLECULAR_FORMULA>
C9H13N3O2
> <PUBCHEM_MOLECULAR_WEIGHT>
195.22
> <PUBCHEM_OPENEYE_CAN_SMILES>
C1CC(NC(=O)C1)C(=O)NCCC#N
> <PUBCHEM_OPENEYE_ISO_SMILES>
C1CC(NC(=O)C1)C(=O)NCCC#N
> <PUBCHEM_CACTVS_TPSA>
82
> <PUBCHEM_MONOISOTOPIC_WEIGHT>
195.100776666
> <PUBCHEM_TOTAL_CHARGE>
0
> <PUBCHEM_HEAVY_ATOM_COUNT>
14
> <PUBCHEM_ATOM_DEF_STEREO_COUNT>
0
> <PUBCHEM_ATOM_UDEF_STEREO_COUNT>
1
> <PUBCHEM_BOND_DEF_STEREO_COUNT>
0
> <PUBCHEM_BOND_UDEF_STEREO_COUNT>
0
> <PUBCHEM_ISOTOPIC_ATOM_COUNT>
0
> <PUBCHEM_COMPONENT_COUNT>
1
> <PUBCHEM_CACTVS_TAUTO_COUNT>
-1
> <PUBCHEM_COORDINATE_TYPE>
1
5
255
> <PUBCHEM_BONDANNOTATIONS>
6  11  3
$$$$
