515620
  -OEChem-10302200282D
139140  0     1  0  0  0  0  0999 V2000
    9.3731    5.5992    0.0000 O   0  0  0  0  0  0  0  0  0  0  0  0
    9.0130    3.9048    0.0000 O   0  0  0  0  0  0  0  0  0  0  0  0
   11.5263    1.9401    0.0000 O   0  0  0  0  0  0  0  0  0  0  0  0
   10.6603    1.4401    0.0000 O   0  0  0  0  0  0  0  0  0  0  0  0
    7.1962    0.4401    0.0000 O   0  0  0  0  0  0  0  0  0  0  0  0
   10.6603    0.4401    0.0000 O   0  0  0  0  0  0  0  0  0  0  0  0
    2.8660   -1.0599    0.0000 O   0  0  0  0  0  0  0  0  0  0  0  0
    6.3301   -0.0599    0.0000 O   0  0  0  0  0  0  0  0  0  0  0  0
   12.3923    3.4401    0.0000 N   0  0  0  0  0  0  0  0  0  0  0  0
    5.4641    1.4401    0.0000 N   0  0  0  0  0  0  0  0  0  0  0  0
    4.5981   -1.0599    0.0000 N   0  0  0  0  0  0  0  0  0  0  0  0
   10.6603    4.4401    0.0000 C   0  0  0  0  0  0  0  0  0  0  0  0
   11.6603    4.4401    0.0000 C   0  0  0  0  0  0  0  0  0  0  0  0
   10.3512    5.3912    0.0000 C   0  0  0  0  0  0  0  0  0  0  0  0
   10.6603    3.4401    0.0000 C   0  0  1  0  0  0  0  0  0  0  0  0
   11.9693    5.3912    0.0000 C   0  0  0  0  0  0  0  0  0  0  0  0
   11.1603    5.9790    0.0000 C   0  0  0  0  0  0  0  0  0  0  0  0
    9.7942    2.9401    0.0000 C   0  0  0  0  0  0  0  0  0  0  0  0
    9.6821    4.6480    0.0000 C   0  0  0  0  0  0  0  0  0  0  0  0
   11.5263    2.9401    0.0000 C   0  0  0  0  0  0  0  0  0  0  0  0
    9.7942    1.9401    0.0000 C   0  0  0  0  0  0  0  0  0  0  0  0
   13.2583    2.9401    0.0000 C   0  0  1  0  0  0  0  0  0  0  0  0
    8.9282    1.4401    0.0000 C   0  0  1  0  0  0  0  0  0  0  0  0
   14.1244    3.4401    0.0000 C   0  0  0  0  0  0  0  0  0  0  0  0
    8.0622    1.9401    0.0000 C   0  0  0  0  0  0  0  0  0  0  0  0
    8.9282    0.4401    0.0000 C   0  0  0  0  0  0  0  0  0  0  0  0
   13.2583    1.9401    0.0000 C   0  0  0  0  0  0  0  0  0  0  0  0
    2.8660   -4.0599    0.0000 C   0  0  0  0  0  0  0  0  0  0  0  0
    2.0000   -4.5599    0.0000 C   0  0  0  0  0  0  0  0  0  0  0  0
    3.7320   -4.5599    0.0000 C   0  0  0  0  0  0  0  0  0  0  0  0
    2.8660   -3.0599    0.0000 C   0  0  0  0  0  0  0  0  0  0  0  0
   14.9904    3.9401    0.0000 C   0  0  0  0  0  0  0  0  0  0  0  0
   14.6244    2.5741    0.0000 C   0  0  0  0  0  0  0  0  0  0  0  0
   13.6244    4.3062    0.0000 C   0  0  0  0  0  0  0  0  0  0  0  0
    6.3301    1.9401    0.0000 C   0  0  2  0  0  0  0  0  0  0  0  0
    7.1962    1.4401    0.0000 C   0  0  0  0  0  0  0  0  0  0  0  0
    2.0000   -5.5599    0.0000 C   0  0  0  0  0  0  0  0  0  0  0  0
    3.7320   -5.5599    0.0000 C   0  0  0  0  0  0  0  0  0  0  0  0
    2.8660   -6.0599    0.0000 C   0  0  0  0  0  0  0  0  0  0  0  0
    6.3301    2.9401    0.0000 C   0  0  0  0  0  0  0  0  0  0  0  0
    3.7320   -2.5599    0.0000 C   0  0  2  0  0  0  0  0  0  0  0  0
    9.7942   -0.0599    0.0000 C   0  0  0  0  0  0  0  0  0  0  0  0
   14.1244    1.4401    0.0000 C   0  0  0  0  0  0  0  0  0  0  0  0
    9.7942   -1.0599    0.0000 C   0  0  0  0  0  0  0  0  0  0  0  0
    4.5981   -0.0599    0.0000 C   0  0  2  0  0  0  0  0  0  0  0  0
    3.7320   -1.5599    0.0000 C   0  0  0  0  0  0  0  0  0  0  0  0
    6.3301    3.9401    0.0000 C   0  0  0  0  0  0  0  0  0  0  0  0
    7.3301    2.9401    0.0000 C   0  0  0  0  0  0  0  0  0  0  0  0
    5.3301    2.9401    0.0000 C   0  0  0  0  0  0  0  0  0  0  0  0
    4.5981   -3.0599    0.0000 C   0  0  0  0  0  0  0  0  0  0  0  0
    5.4641    0.4401    0.0000 C   0  0  0  0  0  0  0  0  0  0  0  0
    3.7320    0.4401    0.0000 C   0  0  0  0  0  0  0  0  0  0  0  0
    9.7942   -2.0599    0.0000 C   0  0  0  0  0  0  0  0  0  0  0  0
   10.7942   -1.0599    0.0000 C   0  0  0  0  0  0  0  0  0  0  0  0
    8.7942   -1.0599    0.0000 C   0  0  0  0  0  0  0  0  0  0  0  0
    5.4641   -1.5599    0.0000 C   0  0  0  0  0  0  0  0  0  0  0  0
    3.7320    1.4401    0.0000 C   0  0  0  0  0  0  0  0  0  0  0  0
    2.8660   -0.0599    0.0000 C   0  0  0  0  0  0  0  0  0  0  0  0
   11.5954    3.8235    0.0000 H   0  0  0  0  0  0  0  0  0  0  0  0
   12.2667    4.3112    0.0000 H   0  0  0  0  0  0  0  0  0  0  0  0
   10.0412    5.9281    0.0000 H   0  0  0  0  0  0  0  0  0  0  0  0
    9.7848    5.1390    0.0000 H   0  0  0  0  0  0  0  0  0  0  0  0
   10.6603    2.8201    0.0000 H   0  0  0  0  0  0  0  0  0  0  0  0
   12.5357    5.1390    0.0000 H   0  0  0  0  0  0  0  0  0  0  0  0
   12.2793    5.9281    0.0000 H   0  0  0  0  0  0  0  0  0  0  0  0
   11.5751    6.4397    0.0000 H   0  0  0  0  0  0  0  0  0  0  0  0
   10.7454    6.4397    0.0000 H   0  0  0  0  0  0  0  0  0  0  0  0
    9.5822    3.5228    0.0000 H   0  0  0  0  0  0  0  0  0  0  0  0
    9.1836    2.8325    0.0000 H   0  0  0  0  0  0  0  0  0  0  0  0
   13.2583    3.5601    0.0000 H   0  0  0  0  0  0  0  0  0  0  0  0
   12.3923    4.0601    0.0000 H   0  0  0  0  0  0  0  0  0  0  0  0
    9.4651    1.1301    0.0000 H   0  0  0  0  0  0  0  0  0  0  0  0
    8.4607    2.4151    0.0000 H   0  0  0  0  0  0  0  0  0  0  0  0
    7.6636    2.4151    0.0000 H   0  0  0  0  0  0  0  0  0  0  0  0
    9.7880    6.0599    0.0000 H   0  0  0  0  0  0  0  0  0  0  0  0
    8.3176    0.5478    0.0000 H   0  0  0  0  0  0  0  0  0  0  0  0
    8.7162   -0.1425    0.0000 H   0  0  0  0  0  0  0  0  0  0  0  0
    3.4030   -3.7499    0.0000 H   0  0  0  0  0  0  0  0  0  0  0  0
   12.6477    2.0478    0.0000 H   0  0  0  0  0  0  0  0  0  0  0  0
   13.0463    1.3575    0.0000 H   0  0  0  0  0  0  0  0  0  0  0  0
    1.7880   -3.9772    0.0000 H   0  0  0  0  0  0  0  0  0  0  0  0
    1.3894   -4.6675    0.0000 H   0  0  0  0  0  0  0  0  0  0  0  0
    4.3426   -4.6675    0.0000 H   0  0  0  0  0  0  0  0  0  0  0  0
    3.9441   -3.9772    0.0000 H   0  0  0  0  0  0  0  0  0  0  0  0
    2.6540   -2.4772    0.0000 H   0  0  0  0  0  0  0  0  0  0  0  0
    2.2554   -3.1675    0.0000 H   0  0  0  0  0  0  0  0  0  0  0  0
    5.7932    2.2501    0.0000 H   0  0  0  0  0  0  0  0  0  0  0  0
   15.3004    3.4032    0.0000 H   0  0  0  0  0  0  0  0  0  0  0  0
   15.5273    4.2501    0.0000 H   0  0  0  0  0  0  0  0  0  0  0  0
   14.6804    4.4771    0.0000 H   0  0  0  0  0  0  0  0  0  0  0  0
   14.0874    2.2641    0.0000 H   0  0  0  0  0  0  0  0  0  0  0  0
   14.9344    2.0372    0.0000 H   0  0  0  0  0  0  0  0  0  0  0  0
   15.1613    2.8841    0.0000 H   0  0  0  0  0  0  0  0  0  0  0  0
   14.1613    4.6162    0.0000 H   0  0  0  0  0  0  0  0  0  0  0  0
   13.3144    4.8431    0.0000 H   0  0  0  0  0  0  0  0  0  0  0  0
   13.0874    3.9962    0.0000 H   0  0  0  0  0  0  0  0  0  0  0  0
    1.3894   -5.4522    0.0000 H   0  0  0  0  0  0  0  0  0  0  0  0
    1.7880   -6.1425    0.0000 H   0  0  0  0  0  0  0  0  0  0  0  0
    3.9441   -6.1425    0.0000 H   0  0  0  0  0  0  0  0  0  0  0  0
    4.3426   -5.4522    0.0000 H   0  0  0  0  0  0  0  0  0  0  0  0
    2.4675   -6.5348    0.0000 H   0  0  0  0  0  0  0  0  0  0  0  0
    3.2646   -6.5348    0.0000 H   0  0  0  0  0  0  0  0  0  0  0  0
    3.7320   -3.1799    0.0000 H   0  0  0  0  0  0  0  0  0  0  0  0
   13.8144    0.9032    0.0000 H   0  0  0  0  0  0  0  0  0  0  0  0
   14.6613    1.1301    0.0000 H   0  0  0  0  0  0  0  0  0  0  0  0
   14.4344    1.9771    0.0000 H   0  0  0  0  0  0  0  0  0  0  0  0
    4.9272    1.7501    0.0000 H   0  0  0  0  0  0  0  0  0  0  0  0
    5.1350   -0.3699    0.0000 H   0  0  0  0  0  0  0  0  0  0  0  0
    6.9501    3.9401    0.0000 H   0  0  0  0  0  0  0  0  0  0  0  0
    6.3301    4.5601    0.0000 H   0  0  0  0  0  0  0  0  0  0  0  0
    5.7101    3.9401    0.0000 H   0  0  0  0  0  0  0  0  0  0  0  0
    7.3301    2.3201    0.0000 H   0  0  0  0  0  0  0  0  0  0  0  0
    7.9501    2.9401    0.0000 H   0  0  0  0  0  0  0  0  0  0  0  0
    7.3301    3.5601    0.0000 H   0  0  0  0  0  0  0  0  0  0  0  0
    5.3301    3.5601    0.0000 H   0  0  0  0  0  0  0  0  0  0  0  0
    4.7101    2.9401    0.0000 H   0  0  0  0  0  0  0  0  0  0  0  0
    5.3301    2.3201    0.0000 H   0  0  0  0  0  0  0  0  0  0  0  0
    4.2881   -3.5968    0.0000 H   0  0  0  0  0  0  0  0  0  0  0  0
    5.1350   -3.3699    0.0000 H   0  0  0  0  0  0  0  0  0  0  0  0
    4.9081   -2.5229    0.0000 H   0  0  0  0  0  0  0  0  0  0  0  0
    3.7320   -0.1799    0.0000 H   0  0  0  0  0  0  0  0  0  0  0  0
    9.1742   -2.0599    0.0000 H   0  0  0  0  0  0  0  0  0  0  0  0
    9.7942   -2.6799    0.0000 H   0  0  0  0  0  0  0  0  0  0  0  0
   10.4142   -2.0599    0.0000 H   0  0  0  0  0  0  0  0  0  0  0  0
   10.7942   -1.6799    0.0000 H   0  0  0  0  0  0  0  0  0  0  0  0
   11.4142   -1.0599    0.0000 H   0  0  0  0  0  0  0  0  0  0  0  0
   10.7942   -0.4399    0.0000 H   0  0  0  0  0  0  0  0  0  0  0  0
    8.7942   -0.4399    0.0000 H   0  0  0  0  0  0  0  0  0  0  0  0
    8.1742   -1.0599    0.0000 H   0  0  0  0  0  0  0  0  0  0  0  0
    8.7942   -1.6799    0.0000 H   0  0  0  0  0  0  0  0  0  0  0  0
    5.1541   -2.0968    0.0000 H   0  0  0  0  0  0  0  0  0  0  0  0
    6.0010   -1.8699    0.0000 H   0  0  0  0  0  0  0  0  0  0  0  0
    5.7741   -1.0229    0.0000 H   0  0  0  0  0  0  0  0  0  0  0  0
    4.3520    1.4401    0.0000 H   0  0  0  0  0  0  0  0  0  0  0  0
    3.7320    2.0601    0.0000 H   0  0  0  0  0  0  0  0  0  0  0  0
    3.1120    1.4401    0.0000 H   0  0  0  0  0  0  0  0  0  0  0  0
    2.5560    0.4771    0.0000 H   0  0  0  0  0  0  0  0  0  0  0  0
    2.3291   -0.3699    0.0000 H   0  0  0  0  0  0  0  0  0  0  0  0
    3.1760   -0.5968    0.0000 H   0  0  0  0  0  0  0  0  0  0  0  0
  1 19  1  0  0  0  0
  1 75  1  0  0  0  0
  2 19  2  0  0  0  0
  3 20  2  0  0  0  0
  4 21  2  0  0  0  0
  5 36  2  0  0  0  0
  6 42  2  0  0  0  0
  7 46  2  0  0  0  0
  8 51  2  0  0  0  0
  9 20  1  0  0  0  0
 22  9  1  1  0  0  0
  9 71  1  0  0  0  0
 35 10  1  1  0  0  0
 10 51  1  0  0  0  0
 10107  1  0  0  0  0
 45 11  1  1  0  0  0
 11 46  1  0  0  0  0
 11 56  1  0  0  0  0
 12 13  1  0  0  0  0
 12 14  1  0  0  0  0
 12 15  1  0  0  0  0
 12 19  1  0  0  0  0
 13 16  1  0  0  0  0
 13 59  1  0  0  0  0
 13 60  1  0  0  0  0
 14 17  1  0  0  0  0
 14 61  1  0  0  0  0
 14 62  1  0  0  0  0
 15 18  1  6  0  0  0
 15 20  1  0  0  0  0
 15 63  1  0  0  0  0
 16 17  1  0  0  0  0
 16 64  1  0  0  0  0
 16 65  1  0  0  0  0
 17 66  1  0  0  0  0
 17 67  1  0  0  0  0
 18 21  1  0  0  0  0
 18 68  1  0  0  0  0
 18 69  1  0  0  0  0
 21 23  1  0  0  0  0
 22 24  1  0  0  0  0
 22 27  1  0  0  0  0
 22 70  1  0  0  0  0
 23 25  1  0  0  0  0
 23 26  1  6  0  0  0
 23 72  1  0  0  0  0
 24 32  1  0  0  0  0
 24 33  1  0  0  0  0
 24 34  1  0  0  0  0
 25 36  1  0  0  0  0
 25 73  1  0  0  0  0
 25 74  1  0  0  0  0
 26 42  1  0  0  0  0
 26 76  1  0  0  0  0
 26 77  1  0  0  0  0
 27 43  1  0  0  0  0
 27 79  1  0  0  0  0
 27 80  1  0  0  0  0
 28 29  1  0  0  0  0
 28 30  1  0  0  0  0
 28 31  1  0  0  0  0
 28 78  1  0  0  0  0
 29 37  1  0  0  0  0
 29 81  1  0  0  0  0
 29 82  1  0  0  0  0
 30 38  1  0  0  0  0
 30 83  1  0  0  0  0
 30 84  1  0  0  0  0
 31 41  1  0  0  0  0
 31 85  1  0  0  0  0
 31 86  1  0  0  0  0
 32 88  1  0  0  0  0
 32 89  1  0  0  0  0
 32 90  1  0  0  0  0
 33 91  1  0  0  0  0
 33 92  1  0  0  0  0
 33 93  1  0  0  0  0
 34 94  1  0  0  0  0
 34 95  1  0  0  0  0
 34 96  1  0  0  0  0
 35 36  1  0  0  0  0
 35 40  1  0  0  0  0
 35 87  1  0  0  0  0
 37 39  1  0  0  0  0
 37 97  1  0  0  0  0
 37 98  1  0  0  0  0
 38 39  1  0  0  0  0
 38 99  1  0  0  0  0
 38100  1  0  0  0  0
 39101  1  0  0  0  0
 39102  1  0  0  0  0
 40 47  1  0  0  0  0
 40 48  1  0  0  0  0
 40 49  1  0  0  0  0
 41 46  1  0  0  0  0
 41 50  1  6  0  0  0
 41103  1  0  0  0  0
 42 44  1  0  0  0  0
 43104  1  0  0  0  0
 43105  1  0  0  0  0
 43106  1  0  0  0  0
 44 53  1  0  0  0  0
 44 54  1  0  0  0  0
 44 55  1  0  0  0  0
 45 51  1  0  0  0  0
 45 52  1  0  0  0  0
 45108  1  0  0  0  0
 47109  1  0  0  0  0
 47110  1  0  0  0  0
 47111  1  0  0  0  0
 48112  1  0  0  0  0
 48113  1  0  0  0  0
 48114  1  0  0  0  0
 49115  1  0  0  0  0
 49116  1  0  0  0  0
 49117  1  0  0  0  0
 50118  1  0  0  0  0
 50119  1  0  0  0  0
 50120  1  0  0  0  0
 52 57  1  0  0  0  0
 52 58  1  0  0  0  0
 52121  1  0  0  0  0
 53122  1  0  0  0  0
 53123  1  0  0  0  0
 53124  1  0  0  0  0
 54125  1  0  0  0  0
 54126  1  0  0  0  0
 54127  1  0  0  0  0
 55128  1  0  0  0  0
 55129  1  0  0  0  0
 55130  1  0  0  0  0
 56131  1  0  0  0  0
 56132  1  0  0  0  0
 56133  1  0  0  0  0
 57134  1  0  0  0  0
 57135  1  0  0  0  0
 57136  1  0  0  0  0
 58137  1  0  0  0  0
 58138  1  0  0  0  0
 58139  1  0  0  0  0
M  END
> <PUBCHEM_COMPOUND_CID>
515620
> <PUBCHEM_COMPOUND_CANONICALIZED>
1
> <PUBCHEM_CACTVS_COMPLEXITY>
1450
> <PUBCHEM_CACTVS_HBOND_ACCEPTOR>
8
> <PUBCHEM_CACTVS_HBOND_DONOR>
3
> <PUBCHEM_CACTVS_ROTATABLE_BOND>
23
> <PUBCHEM_CACTVS_SUBSKEYS>
AAADcfB/PAAAAAAAAAAAAAAAAAAAAYAAAAAwAAAAAAAAAAAAAAAAHgAQCAAADyzBgAQCCAPAAgAIAIGQGAAAAAAAAAAAAIGIAAAAQBIAgCAUQAAEFgCAAAG/z+C/gAAAAAAAAAAAAAAAAAAAAAAAAAAAAA==
> <PUBCHEM_IUPAC_OPENEYE_NAME>
1-[(1R,4R,7S)-7-[[(2S)-2-[[(2R)-3-cyclohexyl-2-methyl-propanoyl]-methyl-amino]-3-methyl-butanoyl]amino]-4-(3,3-dimethyl-2-oxo-butyl)-1-[[(1R)-1-ethyl-2,2-dimethyl-propyl]carbamoyl]-8,8-dimethyl-3,6-dioxo-nonyl]cyclopentanecarboxylic acid
> <PUBCHEM_IUPAC_CAS_NAME>
1-[(2R,5R,8S)-8-[[(2S)-2-[[(2R)-3-cyclohexyl-2-methyl-1-oxopropyl]-methylamino]-3-methyl-1-oxobutyl]amino]-5-(3,3-dimethyl-2-oxobutyl)-1-[[(3R)-2,2-dimethylpentan-3-yl]amino]-9,9-dimethyl-1,4,7-trioxodecan-2-yl]-1-cyclopentanecarboxylic acid
> <PUBCHEM_IUPAC_NAME_MARKUP>
1-[(2<I>R</I>,5<I>R</I>,8<I>S</I>)-8-[[(2<I>S</I>)-2-[[(2<I>R</I>)-3-cyclohexyl-2-methylpropanoyl]-methylamino]-3-methylbutanoyl]amino]-5-(3,3-dimethyl-2-oxobutyl)-1-[[(3<I>R</I>)-2,2-dimethylpentan-3-yl]amino]-9,9-dimethyl-1,4,7-trioxodecan-2-yl]cyclopentane-1-carboxylic acid
> <PUBCHEM_IUPAC_NAME>
1-[(2R,5R,8S)-8-[[(2S)-2-[[(2R)-3-cyclohexyl-2-methylpropanoyl]-methylamino]-3-methylbutanoyl]amino]-5-(3,3-dimethyl-2-oxobutyl)-1-[[(3R)-2,2-dimethylpentan-3-yl]amino]-9,9-dimethyl-1,4,7-trioxodecan-2-yl]cyclopentane-1-carboxylic acid
> <PUBCHEM_IUPAC_SYSTEMATIC_NAME>
1-[(2R,5R,8S)-8-[[(2S)-2-[[(2R)-3-cyclohexyl-2-methyl-propanoyl]-methyl-amino]-3-methyl-butanoyl]amino]-5-(3,3-dimethyl-2-oxidanylidene-butyl)-1-[[(3R)-2,2-dimethylpentan-3-yl]amino]-9,9-dimethyl-1,4,7-tris(oxidanylidene)decan-2-yl]cyclopentane-1-carboxylic acid
> <PUBCHEM_IUPAC_TRADITIONAL_NAME>
1-[(1R,4R,7S)-7-[[(2S)-2-[[(2R)-3-cyclohexyl-2-methyl-propanoyl]-methyl-amino]-3-methyl-butanoyl]amino]-1-[[(1R)-1-ethyl-2,2-dimethyl-propyl]carbamoyl]-3,6-diketo-4-(2-keto-3,3-dimethyl-butyl)-8,8-dimethyl-nonyl]cyclopentanecarboxylic acid
> <PUBCHEM_IUPAC_INCHI>
InChI=1S/C47H81N3O8/c1-15-36(44(5,6)7)48-40(54)33(47(43(57)58)23-19-20-24-47)28-34(51)32(27-37(53)45(8,9)10)26-35(52)39(46(11,12)13)49-41(55)38(29(2)3)50(14)42(56)30(4)25-31-21-17-16-18-22-31/h29-33,36,38-39H,15-28H2,1-14H3,(H,48,54)(H,49,55)(H,57,58)/t30-,32+,33+,36-,38+,39-/m1/s1
> <PUBCHEM_IUPAC_INCHIKEY>
RKUBNBVQLOVASJ-XOFXPPJKSA-N
> <PUBCHEM_XLOGP3_AA>
9.1
> <PUBCHEM_EXACT_MASS>
815.60236655
> <PUBCHEM_MOLECULAR_FORMULA>
C47H81N3O8
> <PUBCHEM_MOLECULAR_WEIGHT>
816.2
> <PUBCHEM_OPENEYE_CAN_SMILES>
CCC(C(C)(C)C)NC(=O)C(CC(=O)C(CC(=O)C(C(C)(C)C)NC(=O)C(C(C)C)N(C)C(=O)C(C)CC1CCCCC1)CC(=O)C(C)(C)C)C2(CCCC2)C(=O)O
> <PUBCHEM_OPENEYE_ISO_SMILES>
CC[C@H](C(C)(C)C)NC(=O)[C@H](CC(=O)[C@@H](CC(=O)[C@H](C(C)(C)C)NC(=O)[C@H](C(C)C)N(C)C(=O)[C@H](C)CC1CCCCC1)CC(=O)C(C)(C)C)C2(CCCC2)C(=O)O
> <PUBCHEM_CACTVS_TPSA>
167
> <PUBCHEM_MONOISOTOPIC_WEIGHT>
815.60236655
> <PUBCHEM_TOTAL_CHARGE>
0
> <PUBCHEM_HEAVY_ATOM_COUNT>
58
> <PUBCHEM_ATOM_DEF_STEREO_COUNT>
6
> <PUBCHEM_ATOM_UDEF_STEREO_COUNT>
0
> <PUBCHEM_BOND_DEF_STEREO_COUNT>
0
> <PUBCHEM_BOND_UDEF_STEREO_COUNT>
0
> <PUBCHEM_ISOTOPIC_ATOM_COUNT>
0
> <PUBCHEM_COMPONENT_COUNT>
1
> <PUBCHEM_CACTVS_TAUTO_COUNT>
-1
> <PUBCHEM_COORDINATE_TYPE>
1
5
255
> <PUBCHEM_BONDANNOTATIONS>
35  10  5
45  11  5
15  18  6
23  26  6
41  50  6
22  9  5
$$$$
