515697
  -OEChem-10302200282D
 74 77  0     1  0  0  0  0  0999 V2000
    5.5584   -3.8246    0.0000 O   0  0  0  0  0  0  0  0  0  0  0  0
    5.3942    2.8603    0.0000 O   0  0  0  0  0  0  0  0  0  0  0  0
    3.7300   -5.7368    0.0000 N   0  0  0  0  0  0  0  0  0  0  0  0
    5.8842    5.4603    0.0000 N   0  0  0  0  0  0  0  0  0  0  0  0
    6.4184   -1.3426    0.0000 C   0  0  0  0  0  0  0  0  0  0  0  0
    5.6094   -0.7548    0.0000 C   0  0  0  0  0  0  0  0  0  0  0  0
    7.2274   -0.7548    0.0000 C   0  0  0  0  0  0  0  0  0  0  0  0
    5.9184    0.1962    0.0000 C   0  0  0  0  0  0  0  0  0  0  0  0
    6.9184    0.1962    0.0000 C   0  0  0  0  0  0  0  0  0  0  0  0
    6.5113   -2.3801    0.0000 C   0  0  0  0  0  0  0  0  0  0  0  0
    5.6076   -2.8258    0.0000 C   0  0  0  0  0  0  0  0  0  0  0  0
    4.7531   -1.2858    0.0000 C   0  0  0  0  0  0  0  0  0  0  0  0
    4.6688   -4.2813    0.0000 C   0  0  3  0  0  0  0  0  0  0  0  0
    5.3837    1.0902    0.0000 C   0  0  0  0  0  0  0  0  0  0  0  0
    8.1854   -1.1638    0.0000 C   0  0  0  0  0  0  0  0  0  0  0  0
    4.6196   -5.2801    0.0000 C   0  0  0  0  0  0  0  0  0  0  0  0
    7.4530    1.0902    0.0000 C   0  0  0  0  0  0  0  0  0  0  0  0
    4.7522   -2.2934    0.0000 C   0  0  0  0  0  0  0  0  0  0  0  0
    5.8976    1.9962    0.0000 C   0  0  0  0  0  0  0  0  0  0  0  0
    7.4596   -2.8111    0.0000 C   0  0  0  0  0  0  0  0  0  0  0  0
    5.8909    3.7283    0.0000 C   0  0  3  0  0  0  0  0  0  0  0  0
    5.3876    4.5924    0.0000 C   0  0  0  0  0  0  0  0  0  0  0  0
    8.3023   -2.1988    0.0000 C   0  0  0  0  0  0  0  0  0  0  0  0
    6.9392    1.9962    0.0000 C   0  0  0  0  0  0  0  0  0  0  0  0
    3.8284   -3.7392    0.0000 C   0  0  0  0  0  0  0  0  0  0  0  0
    3.6807   -6.7356    0.0000 C   0  0  0  0  0  0  0  0  0  0  0  0
    2.8896   -5.1948    0.0000 C   0  0  0  0  0  0  0  0  0  0  0  0
    5.3809    6.3244    0.0000 C   0  0  0  0  0  0  0  0  0  0  0  0
    6.8842    5.4642    0.0000 C   0  0  0  0  0  0  0  0  0  0  0  0
    6.8909    3.7321    0.0000 C   0  0  0  0  0  0  0  0  0  0  0  0
    2.7911   -7.1924    0.0000 C   0  0  0  0  0  0  0  0  0  0  0  0
    2.0000   -5.6515    0.0000 C   0  0  0  0  0  0  0  0  0  0  0  0
    5.8775    7.1924    0.0000 C   0  0  0  0  0  0  0  0  0  0  0  0
    7.3809    6.3321    0.0000 C   0  0  0  0  0  0  0  0  0  0  0  0
    4.6993   -3.6620    0.0000 H   0  0  0  0  0  0  0  0  0  0  0  0
    4.2114   -0.9841    0.0000 H   0  0  0  0  0  0  0  0  0  0  0  0
    4.7638    1.0830    0.0000 H   0  0  0  0  0  0  0  0  0  0  0  0
    8.6827   -0.7936    0.0000 H   0  0  0  0  0  0  0  0  0  0  0  0
    4.8026   -5.8724    0.0000 H   0  0  0  0  0  0  0  0  0  0  0  0
    5.2347   -5.2026    0.0000 H   0  0  0  0  0  0  0  0  0  0  0  0
    8.0730    1.0830    0.0000 H   0  0  0  0  0  0  0  0  0  0  0  0
    4.2101   -2.5942    0.0000 H   0  0  0  0  0  0  0  0  0  0  0  0
    6.2030    3.1925    0.0000 H   0  0  0  0  0  0  0  0  0  0  0  0
    7.5220   -3.4279    0.0000 H   0  0  0  0  0  0  0  0  0  0  0  0
    4.9111    4.9891    0.0000 H   0  0  0  0  0  0  0  0  0  0  0  0
    4.9141    4.1920    0.0000 H   0  0  0  0  0  0  0  0  0  0  0  0
    8.8696   -2.4488    0.0000 H   0  0  0  0  0  0  0  0  0  0  0  0
    7.2513    2.5320    0.0000 H   0  0  0  0  0  0  0  0  0  0  0  0
    4.1645   -3.2182    0.0000 H   0  0  0  0  0  0  0  0  0  0  0  0
    3.3074   -3.4032    0.0000 H   0  0  0  0  0  0  0  0  0  0  0  0
    3.4924   -4.2603    0.0000 H   0  0  0  0  0  0  0  0  0  0  0  0
    3.8638   -7.3280    0.0000 H   0  0  0  0  0  0  0  0  0  0  0  0
    4.2958   -6.6581    0.0000 H   0  0  0  0  0  0  0  0  0  0  0  0
    3.3110   -4.7400    0.0000 H   0  0  0  0  0  0  0  0  0  0  0  0
    2.5149   -4.7008    0.0000 H   0  0  0  0  0  0  0  0  0  0  0  0
    4.9044    6.7211    0.0000 H   0  0  0  0  0  0  0  0  0  0  0  0
    4.9075    5.9240    0.0000 H   0  0  0  0  0  0  0  0  0  0  0  0
    6.7789    4.8532    0.0000 H   0  0  0  0  0  0  0  0  0  0  0  0
    7.4676    5.2544    0.0000 H   0  0  0  0  0  0  0  0  0  0  0  0
    6.8933    3.1121    0.0000 H   0  0  0  0  0  0  0  0  0  0  0  0
    7.5109    3.7345    0.0000 H   0  0  0  0  0  0  0  0  0  0  0  0
    6.8885    4.3521    0.0000 H   0  0  0  0  0  0  0  0  0  0  0  0
    2.5079   -6.6408    0.0000 H   0  0  0  0  0  0  0  0  0  0  0  0
    2.2396   -7.4755    0.0000 H   0  0  0  0  0  0  0  0  0  0  0  0
    3.0743   -7.7439    0.0000 H   0  0  0  0  0  0  0  0  0  0  0  0
    1.7168   -5.1000    0.0000 H   0  0  0  0  0  0  0  0  0  0  0  0
    1.4484   -5.9347    0.0000 H   0  0  0  0  0  0  0  0  0  0  0  0
    2.2832   -6.2031    0.0000 H   0  0  0  0  0  0  0  0  0  0  0  0
    6.4157    6.8844    0.0000 H   0  0  0  0  0  0  0  0  0  0  0  0
    6.1855    7.7305    0.0000 H   0  0  0  0  0  0  0  0  0  0  0  0
    5.3394    7.5003    0.0000 H   0  0  0  0  0  0  0  0  0  0  0  0
    7.9190    6.0242    0.0000 H   0  0  0  0  0  0  0  0  0  0  0  0
    7.6888    6.8702    0.0000 H   0  0  0  0  0  0  0  0  0  0  0  0
    6.8427    6.6400    0.0000 H   0  0  0  0  0  0  0  0  0  0  0  0
  1 11  1  0  0  0  0
  1 13  1  0  0  0  0
  2 19  1  0  0  0  0
  2 21  1  0  0  0  0
  3 16  1  0  0  0  0
  3 26  1  0  0  0  0
  3 27  1  0  0  0  0
  4 22  1  0  0  0  0
  4 28  1  0  0  0  0
  4 29  1  0  0  0  0
  5  6  2  0  0  0  0
  5  7  1  0  0  0  0
  5 10  1  0  0  0  0
  6  8  1  0  0  0  0
  6 12  1  0  0  0  0
  7  9  1  0  0  0  0
  7 15  2  0  0  0  0
  8  9  2  0  0  0  0
  8 14  1  0  0  0  0
  9 17  1  0  0  0  0
 10 11  2  0  0  0  0
 10 20  1  0  0  0  0
 11 18  1  0  0  0  0
 12 18  2  0  0  0  0
 12 36  1  0  0  0  0
 13 16  1  0  0  0  0
 13 25  1  0  0  0  0
 13 35  1  0  0  0  0
 14 19  2  0  0  0  0
 14 37  1  0  0  0  0
 15 23  1  0  0  0  0
 15 38  1  0  0  0  0
 16 39  1  0  0  0  0
 16 40  1  0  0  0  0
 17 24  2  0  0  0  0
 17 41  1  0  0  0  0
 18 42  1  0  0  0  0
 19 24  1  0  0  0  0
 20 23  2  0  0  0  0
 20 44  1  0  0  0  0
 21 22  1  0  0  0  0
 21 30  1  0  0  0  0
 21 43  1  0  0  0  0
 22 45  1  0  0  0  0
 22 46  1  0  0  0  0
 23 47  1  0  0  0  0
 24 48  1  0  0  0  0
 25 49  1  0  0  0  0
 25 50  1  0  0  0  0
 25 51  1  0  0  0  0
 26 31  1  0  0  0  0
 26 52  1  0  0  0  0
 26 53  1  0  0  0  0
 27 32  1  0  0  0  0
 27 54  1  0  0  0  0
 27 55  1  0  0  0  0
 28 33  1  0  0  0  0
 28 56  1  0  0  0  0
 28 57  1  0  0  0  0
 29 34  1  0  0  0  0
 29 58  1  0  0  0  0
 29 59  1  0  0  0  0
 30 60  1  0  0  0  0
 30 61  1  0  0  0  0
 30 62  1  0  0  0  0
 31 63  1  0  0  0  0
 31 64  1  0  0  0  0
 31 65  1  0  0  0  0
 32 66  1  0  0  0  0
 32 67  1  0  0  0  0
 32 68  1  0  0  0  0
 33 69  1  0  0  0  0
 33 70  1  0  0  0  0
 33 71  1  0  0  0  0
 34 72  1  0  0  0  0
 34 73  1  0  0  0  0
 34 74  1  0  0  0  0
M  END
> <PUBCHEM_COMPOUND_CID>
515697
> <PUBCHEM_COMPOUND_CANONICALIZED>
1
> <PUBCHEM_CACTVS_COMPLEXITY>
607
> <PUBCHEM_CACTVS_HBOND_ACCEPTOR>
4
> <PUBCHEM_CACTVS_HBOND_DONOR>
0
> <PUBCHEM_CACTVS_ROTATABLE_BOND>
12
> <PUBCHEM_CACTVS_SUBSKEYS>
AAADcfB7MAAAAAAAAAAAAAAAAAAAAYAAAAAwYMAAAAAAAGDBVAAAHgAAAAAADBThmAYyBsMABACAAiBCAAACCAAgIAAIiAAOCIgOJiKEMRqHOCCkwBGYqAeAwPAOoAADAAAYAABAAAYAADAAAQAACAAAAA==
> <PUBCHEM_IUPAC_OPENEYE_NAME>
2-[4-[2-(diethylamino)-1-methyl-ethoxy]fluoranthen-8-yl]oxy-N,N-diethyl-propan-1-amine
> <PUBCHEM_IUPAC_CAS_NAME>
2-[[4-[1-(diethylamino)propan-2-yloxy]-8-fluoranthenyl]oxy]-N,N-diethyl-1-propanamine
> <PUBCHEM_IUPAC_NAME_MARKUP>
2-[4-[1-(diethylamino)propan-2-yloxy]fluoranthen-8-yl]oxy-<I>N</I>,<I>N</I>-diethylpropan-1-amine
> <PUBCHEM_IUPAC_NAME>
2-[4-[1-(diethylamino)propan-2-yloxy]fluoranthen-8-yl]oxy-N,N-diethylpropan-1-amine
> <PUBCHEM_IUPAC_SYSTEMATIC_NAME>
2-[4-[1-(diethylamino)propan-2-yloxy]fluoranthen-8-yl]oxy-N,N-diethyl-propan-1-amine
> <PUBCHEM_IUPAC_TRADITIONAL_NAME>
2-[4-[2-(diethylamino)-1-methyl-ethoxy]fluoranthen-8-yl]oxypropyl-diethyl-amine
> <PUBCHEM_IUPAC_INCHI>
InChI=1S/C30H40N2O2/c1-7-31(8-2)19-21(5)33-23-14-15-24-25-12-11-13-27-29(34-22(6)20-32(9-3)10-4)17-16-26(30(25)27)28(24)18-23/h11-18,21-22H,7-10,19-20H2,1-6H3
> <PUBCHEM_IUPAC_INCHIKEY>
DCARFKPMBMFLHB-UHFFFAOYSA-N
> <PUBCHEM_XLOGP3_AA>
6.9
> <PUBCHEM_EXACT_MASS>
460.308978523
> <PUBCHEM_MOLECULAR_FORMULA>
C30H40N2O2
> <PUBCHEM_MOLECULAR_WEIGHT>
460.6
> <PUBCHEM_OPENEYE_CAN_SMILES>
CCN(CC)CC(C)OC1=CC2=C(C=C1)C3=CC=CC4=C(C=CC2=C43)OC(C)CN(CC)CC
> <PUBCHEM_OPENEYE_ISO_SMILES>
CCN(CC)CC(C)OC1=CC2=C(C=C1)C3=CC=CC4=C(C=CC2=C43)OC(C)CN(CC)CC
> <PUBCHEM_CACTVS_TPSA>
24.9
> <PUBCHEM_MONOISOTOPIC_WEIGHT>
460.308978523
> <PUBCHEM_TOTAL_CHARGE>
0
> <PUBCHEM_HEAVY_ATOM_COUNT>
34
> <PUBCHEM_ATOM_DEF_STEREO_COUNT>
0
> <PUBCHEM_ATOM_UDEF_STEREO_COUNT>
2
> <PUBCHEM_BOND_DEF_STEREO_COUNT>
0
> <PUBCHEM_BOND_UDEF_STEREO_COUNT>
0
> <PUBCHEM_ISOTOPIC_ATOM_COUNT>
0
> <PUBCHEM_COMPONENT_COUNT>
1
> <PUBCHEM_CACTVS_TAUTO_COUNT>
-1
> <PUBCHEM_COORDINATE_TYPE>
1
5
255
> <PUBCHEM_BONDANNOTATIONS>
10  11  8
10  20  8
11  18  8
12  18  8
13  25  3
14  19  8
15  23  8
17  24  8
19  24  8
20  23  8
21  30  3
5  10  8
5  6  8
5  7  8
6  12  8
7  15  8
8  14  8
8  9  8
9  17  8
$$$$
