515618
  -OEChem-10302200282D
 44 47  0     1  0  0  0  0  0999 V2000
    5.9405    0.8067    0.0000 O   0  0  0  0  0  0  0  0  0  0  0  0
    3.4026    1.3111    0.0000 O   0  0  0  0  0  0  0  0  0  0  0  0
    4.6844    3.0690    0.0000 O   0  0  0  0  0  0  0  0  0  0  0  0
    7.6651    1.9848    0.0000 O   0  0  0  0  0  0  0  0  0  0  0  0
    8.3724    3.5659    0.0000 O   0  0  0  0  0  0  0  0  0  0  0  0
    4.6783   -0.4512    0.0000 N   0  0  0  0  0  0  0  0  0  0  0  0
    4.6783   -2.0606    0.0000 N   0  0  0  0  0  0  0  0  0  0  0  0
    2.8660   -0.2559    0.0000 N   0  0  0  0  0  0  0  0  0  0  0  0
    2.0000   -1.7559    0.0000 N   0  0  0  0  0  0  0  0  0  0  0  0
    2.8660   -3.2559    0.0000 N   0  0  0  0  0  0  0  0  0  0  0  0
    4.4026    1.3094    0.0000 C   0  0  1  0  0  0  0  0  0  0  0  0
    4.9917    2.1174    0.0000 C   0  0  1  0  0  0  0  0  0  0  0  0
    4.9889    0.4994    0.0000 C   0  0  1  0  0  0  0  0  0  0  0  0
    5.9422    1.8067    0.0000 C   0  0  1  0  0  0  0  0  0  0  0  0
    6.7523    2.3931    0.0000 C   0  0  0  0  0  0  0  0  0  0  0  0
    3.7320   -0.7559    0.0000 C   0  0  0  0  0  0  0  0  0  0  0  0
    5.2619   -1.2559    0.0000 C   0  0  0  0  0  0  0  0  0  0  0  0
    3.7320   -1.7559    0.0000 C   0  0  0  0  0  0  0  0  0  0  0  0
    2.8660   -2.2559    0.0000 C   0  0  0  0  0  0  0  0  0  0  0  0
    8.4752    2.5712    0.0000 C   0  0  0  0  0  0  0  0  0  0  0  0
    2.0000   -0.7559    0.0000 C   0  0  0  0  0  0  0  0  0  0  0  0
    9.3880    2.1629    0.0000 C   0  0  0  0  0  0  0  0  0  0  0  0
   10.1980    2.7492    0.0000 C   0  0  0  0  0  0  0  0  0  0  0  0
    9.4908    1.1682    0.0000 C   0  0  0  0  0  0  0  0  0  0  0  0
   11.1109    2.3409    0.0000 C   0  0  0  0  0  0  0  0  0  0  0  0
   10.4036    0.7599    0.0000 C   0  0  0  0  0  0  0  0  0  0  0  0
   11.2137    1.3462    0.0000 C   0  0  0  0  0  0  0  0  0  0  0  0
    4.1220    1.8623    0.0000 H   0  0  0  0  0  0  0  0  0  0  0  0
    5.4309    2.5550    0.0000 H   0  0  0  0  0  0  0  0  0  0  0  0
    5.4266    0.0602    0.0000 H   0  0  0  0  0  0  0  0  0  0  0  0
    6.4942    1.5243    0.0000 H   0  0  0  0  0  0  0  0  0  0  0  0
    7.0999    2.9065    0.0000 H   0  0  0  0  0  0  0  0  0  0  0  0
    6.3070    2.8246    0.0000 H   0  0  0  0  0  0  0  0  0  0  0  0
    3.0935    1.8486    0.0000 H   0  0  0  0  0  0  0  0  0  0  0  0
    5.1000    3.5290    0.0000 H   0  0  0  0  0  0  0  0  0  0  0  0
    5.8819   -1.2559    0.0000 H   0  0  0  0  0  0  0  0  0  0  0  0
    1.4631   -0.4459    0.0000 H   0  0  0  0  0  0  0  0  0  0  0  0
    2.3291   -3.5659    0.0000 H   0  0  0  0  0  0  0  0  0  0  0  0
    3.4030   -3.5659    0.0000 H   0  0  0  0  0  0  0  0  0  0  0  0
   10.1343    3.3660    0.0000 H   0  0  0  0  0  0  0  0  0  0  0  0
    8.9886    0.8046    0.0000 H   0  0  0  0  0  0  0  0  0  0  0  0
   11.6131    2.7045    0.0000 H   0  0  0  0  0  0  0  0  0  0  0  0
   10.4674    0.1431    0.0000 H   0  0  0  0  0  0  0  0  0  0  0  0
   11.7796    1.0931    0.0000 H   0  0  0  0  0  0  0  0  0  0  0  0
  1 13  1  0  0  0  0
  1 14  1  0  0  0  0
 11  2  1  1  0  0  0
  2 34  1  0  0  0  0
 12  3  1  6  0  0  0
  3 35  1  0  0  0  0
  4 15  1  0  0  0  0
  4 20  1  0  0  0  0
  5 20  2  0  0  0  0
 13  6  1  1  0  0  0
  6 16  1  0  0  0  0
  6 17  1  0  0  0  0
  7 17  2  0  0  0  0
  7 18  1  0  0  0  0
  8 16  2  0  0  0  0
  8 21  1  0  0  0  0
  9 19  1  0  0  0  0
  9 21  2  0  0  0  0
 10 19  1  0  0  0  0
 10 38  1  0  0  0  0
 10 39  1  0  0  0  0
 11 12  1  0  0  0  0
 11 13  1  0  0  0  0
 11 28  1  0  0  0  0
 12 14  1  0  0  0  0
 12 29  1  0  0  0  0
 13 30  1  0  0  0  0
 14 15  1  1  0  0  0
 14 31  1  0  0  0  0
 15 32  1  0  0  0  0
 15 33  1  0  0  0  0
 16 18  1  0  0  0  0
 17 36  1  0  0  0  0
 18 19  2  0  0  0  0
 20 22  1  0  0  0  0
 21 37  1  0  0  0  0
 22 23  2  0  0  0  0
 22 24  1  0  0  0  0
 23 25  1  0  0  0  0
 23 40  1  0  0  0  0
 24 26  2  0  0  0  0
 24 41  1  0  0  0  0
 25 27  2  0  0  0  0
 25 42  1  0  0  0  0
 26 27  1  0  0  0  0
 26 43  1  0  0  0  0
 27 44  1  0  0  0  0
M  END
> <PUBCHEM_COMPOUND_CID>
515618
> <PUBCHEM_COMPOUND_CANONICALIZED>
1
> <PUBCHEM_CACTVS_COMPLEXITY>
534
> <PUBCHEM_CACTVS_HBOND_ACCEPTOR>
9
> <PUBCHEM_CACTVS_HBOND_DONOR>
3
> <PUBCHEM_CACTVS_ROTATABLE_BOND>
5
> <PUBCHEM_CACTVS_SUBSKEYS>
AAADceB7uAAAAAAAAAAAAAAAAAAAAWJAAAA8QAAAAAAAAFgB/AAAHgAQCAAADBzhnwY1+L9MFgCoAybzbACCgC01EKAJ2CEoXNiLfjLA/ViedQgvwAPbqaf4+CqOAAAAAAAAAAAAAAAAAAAAAAAAAAAAAA==
> <PUBCHEM_IUPAC_OPENEYE_NAME>
[(2R,3S,4S,5R)-5-(6-aminopurin-9-yl)-3,4-dihydroxy-tetrahydrofuran-2-yl]methyl benzoate
> <PUBCHEM_IUPAC_CAS_NAME>
benzoic acid [(2R,3S,4S,5R)-5-(6-aminopurin-9-yl)-3,4-dihydroxy-2-oxolanyl]methyl ester
> <PUBCHEM_IUPAC_NAME_MARKUP>
[(2<I>R</I>,3<I>S</I>,4<I>S</I>,5<I>R</I>)-5-(6-aminopurin-9-yl)-3,4-dihydroxyoxolan-2-yl]methyl benzoate
> <PUBCHEM_IUPAC_NAME>
[(2R,3S,4S,5R)-5-(6-aminopurin-9-yl)-3,4-dihydroxyoxolan-2-yl]methyl benzoate
> <PUBCHEM_IUPAC_SYSTEMATIC_NAME>
[(2R,3S,4S,5R)-5-(6-aminopurin-9-yl)-3,4-bis(oxidanyl)oxolan-2-yl]methyl benzoate
> <PUBCHEM_IUPAC_TRADITIONAL_NAME>
benzoic acid [(2R,3S,4S,5R)-5-adenin-9-yl-3,4-dihydroxy-tetrahydrofuran-2-yl]methyl ester
> <PUBCHEM_IUPAC_INCHI>
InChI=1S/C17H17N5O5/c18-14-11-15(20-7-19-14)22(8-21-11)16-13(24)12(23)10(27-16)6-26-17(25)9-4-2-1-3-5-9/h1-5,7-8,10,12-13,16,23-24H,6H2,(H2,18,19,20)/t10-,12-,13+,16-/m1/s1
> <PUBCHEM_IUPAC_INCHIKEY>
CPJNPCJEUXBTDB-YGSHXTJESA-N
> <PUBCHEM_XLOGP3>
0.6
> <PUBCHEM_EXACT_MASS>
371.12296866
> <PUBCHEM_MOLECULAR_FORMULA>
C17H17N5O5
> <PUBCHEM_MOLECULAR_WEIGHT>
371.3
> <PUBCHEM_OPENEYE_CAN_SMILES>
C1=CC=C(C=C1)C(=O)OCC2C(C(C(O2)N3C=NC4=C(N=CN=C43)N)O)O
> <PUBCHEM_OPENEYE_ISO_SMILES>
C1=CC=C(C=C1)C(=O)OC[C@@H]2[C@H]([C@@H]([C@@H](O2)N3C=NC4=C(N=CN=C43)N)O)O
> <PUBCHEM_CACTVS_TPSA>
146
> <PUBCHEM_MONOISOTOPIC_WEIGHT>
371.12296866
> <PUBCHEM_TOTAL_CHARGE>
0
> <PUBCHEM_HEAVY_ATOM_COUNT>
27
> <PUBCHEM_ATOM_DEF_STEREO_COUNT>
4
> <PUBCHEM_ATOM_UDEF_STEREO_COUNT>
0
> <PUBCHEM_BOND_DEF_STEREO_COUNT>
0
> <PUBCHEM_BOND_UDEF_STEREO_COUNT>
0
> <PUBCHEM_ISOTOPIC_ATOM_COUNT>
0
> <PUBCHEM_COMPONENT_COUNT>
1
> <PUBCHEM_CACTVS_TAUTO_COUNT>
-1
> <PUBCHEM_COORDINATE_TYPE>
1
5
255
> <PUBCHEM_BONDANNOTATIONS>
14  15  5
16  18  8
18  19  8
11  2  5
22  23  8
22  24  8
23  25  8
24  26  8
25  27  8
26  27  8
12  3  6
13  6  5
6  16  8
6  17  8
7  17  8
7  18  8
8  16  8
8  21  8
9  19  8
9  21  8
$$$$
