515623
  -OEChem-10302200282D
 27 27  0     1  0  0  0  0  0999 V2000
    2.0000   -0.5455    0.0000 O   0  0  0  0  0  0  0  0  0  0  0  0
    5.7281   -1.5236    0.0000 O   0  0  0  0  0  0  0  0  0  0  0  0
    3.7601   -0.8242    0.0000 N   0  0  0  0  0  0  0  0  0  0  0  0
    6.2633    0.1237    0.0000 N   0  0  0  0  0  0  0  0  0  0  0  0
    9.8596   -0.1343    0.0000 N   0  0  0  0  0  0  0  0  0  0  0  0
    4.2601    0.7146    0.0000 C   0  0  3  0  0  0  0  0  0  0  0  0
    4.5691   -0.2365    0.0000 C   0  0  3  0  0  0  0  0  0  0  0  0
    3.2601    0.7146    0.0000 C   0  0  0  0  0  0  0  0  0  0  0  0
    2.9511   -0.2365    0.0000 C   0  0  0  0  0  0  0  0  0  0  0  0
    4.8479    1.5236    0.0000 C   0  0  0  0  0  0  0  0  0  0  0  0
    5.5202   -0.5455    0.0000 C   0  0  0  0  0  0  0  0  0  0  0  0
    7.2144   -0.1854    0.0000 C   0  0  0  0  0  0  0  0  0  0  0  0
    7.9575    0.4838    0.0000 C   0  0  0  0  0  0  0  0  0  0  0  0
    8.9086    0.1748    0.0000 C   0  0  0  0  0  0  0  0  0  0  0  0
    4.8724    0.6176    0.0000 H   0  0  0  0  0  0  0  0  0  0  0  0
    4.6661   -0.8488    0.0000 H   0  0  0  0  0  0  0  0  0  0  0  0
    3.3249    1.3312    0.0000 H   0  0  0  0  0  0  0  0  0  0  0  0
    2.6536    0.8435    0.0000 H   0  0  0  0  0  0  0  0  0  0  0  0
    3.7601   -1.4442    0.0000 H   0  0  0  0  0  0  0  0  0  0  0  0
    5.3494    1.1592    0.0000 H   0  0  0  0  0  0  0  0  0  0  0  0
    5.2123    2.0252    0.0000 H   0  0  0  0  0  0  0  0  0  0  0  0
    4.3463    1.8880    0.0000 H   0  0  0  0  0  0  0  0  0  0  0  0
    6.1344    0.7301    0.0000 H   0  0  0  0  0  0  0  0  0  0  0  0
    6.9233   -0.7328    0.0000 H   0  0  0  0  0  0  0  0  0  0  0  0
    7.7029   -0.5671    0.0000 H   0  0  0  0  0  0  0  0  0  0  0  0
    8.2486    1.0312    0.0000 H   0  0  0  0  0  0  0  0  0  0  0  0
    7.4689    0.8655    0.0000 H   0  0  0  0  0  0  0  0  0  0  0  0
  1  9  2  0  0  0  0
  2 11  2  0  0  0  0
  3  7  1  0  0  0  0
  3  9  1  0  0  0  0
  3 19  1  0  0  0  0
  4 11  1  0  0  0  0
  4 12  1  0  0  0  0
  4 23  1  0  0  0  0
  5 14  3  0  0  0  0
  6  7  1  0  0  0  0
  6  8  1  0  0  0  0
  6 10  1  0  0  0  0
  6 15  1  0  0  0  0
  7 11  1  0  0  0  0
  7 16  1  0  0  0  0
  8  9  1  0  0  0  0
  8 17  1  0  0  0  0
  8 18  1  0  0  0  0
 10 20  1  0  0  0  0
 10 21  1  0  0  0  0
 10 22  1  0  0  0  0
 12 13  1  0  0  0  0
 12 24  1  0  0  0  0
 12 25  1  0  0  0  0
 13 14  1  0  0  0  0
 13 26  1  0  0  0  0
 13 27  1  0  0  0  0
M  END
> <PUBCHEM_COMPOUND_CID>
515623
> <PUBCHEM_COMPOUND_CANONICALIZED>
1
> <PUBCHEM_CACTVS_COMPLEXITY>
292
> <PUBCHEM_CACTVS_HBOND_ACCEPTOR>
3
> <PUBCHEM_CACTVS_HBOND_DONOR>
2
> <PUBCHEM_CACTVS_ROTATABLE_BOND>
3
> <PUBCHEM_CACTVS_SUBSKEYS>
AAADccBzMAAAAAAAAAAAAAAAAAAAAWAAAAAAAAAAAAAAAAAAAAAAHgAQAAAADSjBgAQCAALAAAAYBAEQEAAAAAAAAAAAAIGIAAAAwBIAgCAUAAAAFgCAAAAcAwAKAAAAAAAAAAAAAAAAAAAAAAAAAAAAAA==
> <PUBCHEM_IUPAC_OPENEYE_NAME>
N-(2-cyanoethyl)-3-methyl-5-oxo-pyrrolidine-2-carboxamide
> <PUBCHEM_IUPAC_CAS_NAME>
N-(2-cyanoethyl)-3-methyl-5-oxo-2-pyrrolidinecarboxamide
> <PUBCHEM_IUPAC_NAME_MARKUP>
<I>N</I>-(2-cyanoethyl)-3-methyl-5-oxopyrrolidine-2-carboxamide
> <PUBCHEM_IUPAC_NAME>
N-(2-cyanoethyl)-3-methyl-5-oxopyrrolidine-2-carboxamide
> <PUBCHEM_IUPAC_SYSTEMATIC_NAME>
N-(2-cyanoethyl)-3-methyl-5-oxidanylidene-pyrrolidine-2-carboxamide
> <PUBCHEM_IUPAC_TRADITIONAL_NAME>
N-(2-cyanoethyl)-5-keto-3-methyl-pyrrolidine-2-carboxamide
> <PUBCHEM_IUPAC_INCHI>
InChI=1S/C9H13N3O2/c1-6-5-7(13)12-8(6)9(14)11-4-2-3-10/h6,8H,2,4-5H2,1H3,(H,11,14)(H,12,13)
> <PUBCHEM_IUPAC_INCHIKEY>
JZEPCGIIOUVHJT-UHFFFAOYSA-N
> <PUBCHEM_XLOGP3_AA>
-0.9
> <PUBCHEM_EXACT_MASS>
195.100776666
> <PUBCHEM_MOLECULAR_FORMULA>
C9H13N3O2
> <PUBCHEM_MOLECULAR_WEIGHT>
195.22
> <PUBCHEM_OPENEYE_CAN_SMILES>
CC1CC(=O)NC1C(=O)NCCC#N
> <PUBCHEM_OPENEYE_ISO_SMILES>
CC1CC(=O)NC1C(=O)NCCC#N
> <PUBCHEM_CACTVS_TPSA>
82
> <PUBCHEM_MONOISOTOPIC_WEIGHT>
195.100776666
> <PUBCHEM_TOTAL_CHARGE>
0
> <PUBCHEM_HEAVY_ATOM_COUNT>
14
> <PUBCHEM_ATOM_DEF_STEREO_COUNT>
0
> <PUBCHEM_ATOM_UDEF_STEREO_COUNT>
2
> <PUBCHEM_BOND_DEF_STEREO_COUNT>
0
> <PUBCHEM_BOND_UDEF_STEREO_COUNT>
0
> <PUBCHEM_ISOTOPIC_ATOM_COUNT>
0
> <PUBCHEM_COMPONENT_COUNT>
1
> <PUBCHEM_CACTVS_TAUTO_COUNT>
-1
> <PUBCHEM_COORDINATE_TYPE>
1
5
255
> <PUBCHEM_BONDANNOTATIONS>
6  10  3
7  11  3
$$$$
