515709
  -OEChem-10302200282D
 44 45  0     1  0  0  0  0  0999 V2000
    5.4641    0.4050    0.0000 O   0  0  0  0  0  0  0  0  0  0  0  0
    5.4641   -0.5950    0.0000 O   0  0  0  0  0  0  0  0  0  0  0  0
    4.5981   -2.0950    0.0000 O   0  0  0  0  0  0  0  0  0  0  0  0
    2.8660   -5.0950    0.0000 O   0  0  0  0  0  0  0  0  0  0  0  0
    3.7320    0.4050    0.0000 N   0  0  0  0  0  0  0  0  0  0  0  0
    3.7320    2.4050    0.0000 N   0  0  0  0  0  0  0  0  0  0  0  0
    3.7320   -0.5950    0.0000 C   0  0  1  0  0  0  0  0  0  0  0  0
    4.5981    1.9050    0.0000 C   0  0  1  0  0  0  0  0  0  0  0  0
    2.8660   -1.0950    0.0000 C   0  0  0  0  0  0  0  0  0  0  0  0
    5.4641    2.4050    0.0000 C   0  0  0  0  0  0  0  0  0  0  0  0
    4.5981    0.9050    0.0000 C   0  0  0  0  0  0  0  0  0  0  0  0
    2.8660   -2.0950    0.0000 C   0  0  0  0  0  0  0  0  0  0  0  0
    5.4641    3.4050    0.0000 C   0  0  0  0  0  0  0  0  0  0  0  0
    4.5981   -1.0950    0.0000 C   0  0  0  0  0  0  0  0  0  0  0  0
    2.0000   -2.5950    0.0000 C   0  0  0  0  0  0  0  0  0  0  0  0
    3.7320   -2.5950    0.0000 C   0  0  0  0  0  0  0  0  0  0  0  0
    4.5981    3.9050    0.0000 C   0  0  0  0  0  0  0  0  0  0  0  0
    6.3301    3.9050    0.0000 C   0  0  0  0  0  0  0  0  0  0  0  0
    2.0000   -3.5950    0.0000 C   0  0  0  0  0  0  0  0  0  0  0  0
    3.7320   -3.5950    0.0000 C   0  0  0  0  0  0  0  0  0  0  0  0
    2.8660   -4.0950    0.0000 C   0  0  0  0  0  0  0  0  0  0  0  0
    4.5981    4.9050    0.0000 C   0  0  0  0  0  0  0  0  0  0  0  0
    6.3301    4.9050    0.0000 C   0  0  0  0  0  0  0  0  0  0  0  0
    5.4641    5.4050    0.0000 C   0  0  0  0  0  0  0  0  0  0  0  0
    4.2690   -0.2850    0.0000 H   0  0  0  0  0  0  0  0  0  0  0  0
    4.5981    2.5250    0.0000 H   0  0  0  0  0  0  0  0  0  0  0  0
    2.6540   -0.5124    0.0000 H   0  0  0  0  0  0  0  0  0  0  0  0
    2.2554   -1.2027    0.0000 H   0  0  0  0  0  0  0  0  0  0  0  0
    5.6762    1.8224    0.0000 H   0  0  0  0  0  0  0  0  0  0  0  0
    6.0747    2.5127    0.0000 H   0  0  0  0  0  0  0  0  0  0  0  0
    3.1951    0.7150    0.0000 H   0  0  0  0  0  0  0  0  0  0  0  0
    3.1951    2.0950    0.0000 H   0  0  0  0  0  0  0  0  0  0  0  0
    3.7320    3.0250    0.0000 H   0  0  0  0  0  0  0  0  0  0  0  0
    1.4631   -2.2850    0.0000 H   0  0  0  0  0  0  0  0  0  0  0  0
    4.2690   -2.2850    0.0000 H   0  0  0  0  0  0  0  0  0  0  0  0
    4.0611    3.5950    0.0000 H   0  0  0  0  0  0  0  0  0  0  0  0
    6.8671    3.5950    0.0000 H   0  0  0  0  0  0  0  0  0  0  0  0
    1.4631   -3.9050    0.0000 H   0  0  0  0  0  0  0  0  0  0  0  0
    4.2690   -3.9050    0.0000 H   0  0  0  0  0  0  0  0  0  0  0  0
    4.0611    5.2150    0.0000 H   0  0  0  0  0  0  0  0  0  0  0  0
    6.8671    5.2150    0.0000 H   0  0  0  0  0  0  0  0  0  0  0  0
    5.4641    6.0250    0.0000 H   0  0  0  0  0  0  0  0  0  0  0  0
    6.0010   -0.9050    0.0000 H   0  0  0  0  0  0  0  0  0  0  0  0
    2.3291   -5.4050    0.0000 H   0  0  0  0  0  0  0  0  0  0  0  0
  1 11  2  0  0  0  0
  2 14  1  0  0  0  0
  2 43  1  0  0  0  0
  3 14  2  0  0  0  0
  4 21  1  0  0  0  0
  4 44  1  0  0  0  0
  7  5  1  6  0  0  0
  5 11  1  0  0  0  0
  5 31  1  0  0  0  0
  8  6  1  1  0  0  0
  6 32  1  0  0  0  0
  6 33  1  0  0  0  0
  7  9  1  0  0  0  0
  7 14  1  0  0  0  0
  7 25  1  0  0  0  0
  8 10  1  0  0  0  0
  8 11  1  0  0  0  0
  8 26  1  0  0  0  0
  9 12  1  0  0  0  0
  9 27  1  0  0  0  0
  9 28  1  0  0  0  0
 10 13  1  0  0  0  0
 10 29  1  0  0  0  0
 10 30  1  0  0  0  0
 12 15  2  0  0  0  0
 12 16  1  0  0  0  0
 13 17  2  0  0  0  0
 13 18  1  0  0  0  0
 15 19  1  0  0  0  0
 15 34  1  0  0  0  0
 16 20  2  0  0  0  0
 16 35  1  0  0  0  0
 17 22  1  0  0  0  0
 17 36  1  0  0  0  0
 18 23  2  0  0  0  0
 18 37  1  0  0  0  0
 19 21  2  0  0  0  0
 19 38  1  0  0  0  0
 20 21  1  0  0  0  0
 20 39  1  0  0  0  0
 22 24  2  0  0  0  0
 22 40  1  0  0  0  0
 23 24  1  0  0  0  0
 23 41  1  0  0  0  0
 24 42  1  0  0  0  0
M  END
> <PUBCHEM_COMPOUND_CID>
515709
> <PUBCHEM_COMPOUND_CANONICALIZED>
1
> <PUBCHEM_CACTVS_COMPLEXITY>
415
> <PUBCHEM_CACTVS_HBOND_ACCEPTOR>
5
> <PUBCHEM_CACTVS_HBOND_DONOR>
4
> <PUBCHEM_CACTVS_ROTATABLE_BOND>
7
> <PUBCHEM_CACTVS_SUBSKEYS>
AAADceB7OAAAAAAAAAAAAAAAAAAAAAAAAAAwYAAAAAAAAAABQAAAHgAQCAAADCzBmAQwDoLAAgCIAiHSGAACAAAgIAAIiIGOCIgKZjKCkTOUcAAk1hGYmAeYyKCOIAAAAAAAAABAAAAAAAAAAAAAAAAAAA==
> <PUBCHEM_IUPAC_OPENEYE_NAME>
(2S)-2-[[(2S)-2-amino-3-phenyl-propanoyl]amino]-3-(4-hydroxyphenyl)propanoic acid
> <PUBCHEM_IUPAC_CAS_NAME>
(2S)-2-[[(2S)-2-amino-1-oxo-3-phenylpropyl]amino]-3-(4-hydroxyphenyl)propanoic acid
> <PUBCHEM_IUPAC_NAME_MARKUP>
(2<I>S</I>)-2-[[(2<I>S</I>)-2-amino-3-phenylpropanoyl]amino]-3-(4-hydroxyphenyl)propanoic acid
> <PUBCHEM_IUPAC_NAME>
(2S)-2-[[(2S)-2-amino-3-phenylpropanoyl]amino]-3-(4-hydroxyphenyl)propanoic acid
> <PUBCHEM_IUPAC_SYSTEMATIC_NAME>
(2S)-2-[[(2S)-2-azanyl-3-phenyl-propanoyl]amino]-3-(4-hydroxyphenyl)propanoic acid
> <PUBCHEM_IUPAC_TRADITIONAL_NAME>
(2S)-2-[[(2S)-2-amino-3-phenyl-propanoyl]amino]-3-(4-hydroxyphenyl)propionic acid
> <PUBCHEM_IUPAC_INCHI>
InChI=1S/C18H20N2O4/c19-15(10-12-4-2-1-3-5-12)17(22)20-16(18(23)24)11-13-6-8-14(21)9-7-13/h1-9,15-16,21H,10-11,19H2,(H,20,22)(H,23,24)/t15-,16-/m0/s1
> <PUBCHEM_IUPAC_INCHIKEY>
FSXRLASFHBWESK-HOTGVXAUSA-N
> <PUBCHEM_XLOGP3>
-1.7
> <PUBCHEM_EXACT_MASS>
328.14230712
> <PUBCHEM_MOLECULAR_FORMULA>
C18H20N2O4
> <PUBCHEM_MOLECULAR_WEIGHT>
328.4
> <PUBCHEM_OPENEYE_CAN_SMILES>
C1=CC=C(C=C1)CC(C(=O)NC(CC2=CC=C(C=C2)O)C(=O)O)N
> <PUBCHEM_OPENEYE_ISO_SMILES>
C1=CC=C(C=C1)C[C@@H](C(=O)N[C@@H](CC2=CC=C(C=C2)O)C(=O)O)N
> <PUBCHEM_CACTVS_TPSA>
113
> <PUBCHEM_MONOISOTOPIC_WEIGHT>
328.14230712
> <PUBCHEM_TOTAL_CHARGE>
0
> <PUBCHEM_HEAVY_ATOM_COUNT>
24
> <PUBCHEM_ATOM_DEF_STEREO_COUNT>
2
> <PUBCHEM_ATOM_UDEF_STEREO_COUNT>
0
> <PUBCHEM_BOND_DEF_STEREO_COUNT>
0
> <PUBCHEM_BOND_UDEF_STEREO_COUNT>
0
> <PUBCHEM_ISOTOPIC_ATOM_COUNT>
0
> <PUBCHEM_COMPONENT_COUNT>
1
> <PUBCHEM_CACTVS_TAUTO_COUNT>
-1
> <PUBCHEM_COORDINATE_TYPE>
1
5
255
> <PUBCHEM_BONDANNOTATIONS>
12  15  8
12  16  8
13  17  8
13  18  8
15  19  8
16  20  8
17  22  8
18  23  8
19  21  8
20  21  8
22  24  8
23  24  8
7  5  6
8  6  5
$$$$
