515755
  -OEChem-10302200282D
 93 96  0     1  0  0  0  0  0999 V2000
   12.0632   -0.5000    0.0000 O   0  0  0  0  0  0  0  0  0  0  0  0
   10.3312   -3.5000    0.0000 O   0  0  0  0  0  0  0  0  0  0  0  0
   12.9292    2.0000    0.0000 O   0  0  0  0  0  0  0  0  0  0  0  0
   12.0632    0.5000    0.0000 O   0  0  0  0  0  0  0  0  0  0  0  0
    6.8671   -2.5000    0.0000 O   0  0  0  0  0  0  0  0  0  0  0  0
    7.7331   -1.0000    0.0000 O   0  0  0  0  0  0  0  0  0  0  0  0
   11.1972   -2.0000    0.0000 N   0  0  0  0  0  0  0  0  0  0  0  0
   13.7953    0.5000    0.0000 N   0  0  0  0  0  0  0  0  0  0  0  0
    8.5991   -2.5000    0.0000 N   0  0  0  0  0  0  0  0  0  0  0  0
   11.1972    5.0000    0.0000 N   0  0  0  0  0  0  0  0  0  0  0  0
    4.2690   -4.0000    0.0000 N   0  0  0  0  0  0  0  0  0  0  0  0
    2.5369   -4.0000    0.0000 N   0  0  0  0  0  0  0  0  0  0  0  0
   12.0632   -2.5000    0.0000 C   0  0  2  0  0  0  0  0  0  0  0  0
   12.9292   -2.0000    0.0000 C   0  0  0  0  0  0  0  0  0  0  0  0
   12.9292   -1.0000    0.0000 C   0  0  1  0  0  0  0  0  0  0  0  0
   13.7953   -0.5000    0.0000 C   0  0  2  0  0  0  0  0  0  0  0  0
   12.0632   -3.5000    0.0000 C   0  0  0  0  0  0  0  0  0  0  0  0
   14.6613   -1.0000    0.0000 C   0  0  0  0  0  0  0  0  0  0  0  0
    9.4651   -2.0000    0.0000 C   0  0  2  0  0  0  0  0  0  0  0  0
   10.3312   -2.5000    0.0000 C   0  0  0  0  0  0  0  0  0  0  0  0
    9.4651   -1.0000    0.0000 C   0  0  0  0  0  0  0  0  0  0  0  0
   12.9292   -4.0000    0.0000 C   0  0  0  0  0  0  0  0  0  0  0  0
   15.5273   -0.5000    0.0000 C   0  0  0  0  0  0  0  0  0  0  0  0
   10.3312   -0.5000    0.0000 C   0  0  0  0  0  0  0  0  0  0  0  0
    8.5991   -0.5000    0.0000 C   0  0  0  0  0  0  0  0  0  0  0  0
   13.7953   -3.5000    0.0000 C   0  0  0  0  0  0  0  0  0  0  0  0
   12.9292   -5.0000    0.0000 C   0  0  0  0  0  0  0  0  0  0  0  0
   12.9292    1.0000    0.0000 C   0  0  0  0  0  0  0  0  0  0  0  0
   16.3933   -1.0000    0.0000 C   0  0  0  0  0  0  0  0  0  0  0  0
   15.5273    0.5000    0.0000 C   0  0  0  0  0  0  0  0  0  0  0  0
   14.6613   -4.0000    0.0000 C   0  0  0  0  0  0  0  0  0  0  0  0
   13.7953   -5.5000    0.0000 C   0  0  0  0  0  0  0  0  0  0  0  0
   17.2594   -0.5000    0.0000 C   0  0  0  0  0  0  0  0  0  0  0  0
   16.3933    1.0000    0.0000 C   0  0  0  0  0  0  0  0  0  0  0  0
    7.7331   -2.0000    0.0000 C   0  0  0  0  0  0  0  0  0  0  0  0
   14.6613   -5.0000    0.0000 C   0  0  0  0  0  0  0  0  0  0  0  0
   17.2594    0.5000    0.0000 C   0  0  0  0  0  0  0  0  0  0  0  0
   12.0632    2.5000    0.0000 C   0  0  0  0  0  0  0  0  0  0  0  0
    6.0010   -2.0000    0.0000 C   0  0  0  0  0  0  0  0  0  0  0  0
   12.0632    3.5000    0.0000 C   0  0  0  0  0  0  0  0  0  0  0  0
    5.1350   -2.5000    0.0000 C   0  0  0  0  0  0  0  0  0  0  0  0
   12.9292    4.0000    0.0000 C   0  0  0  0  0  0  0  0  0  0  0  0
   11.1972    4.0000    0.0000 C   0  0  0  0  0  0  0  0  0  0  0  0
    4.2690   -2.0000    0.0000 C   0  0  0  0  0  0  0  0  0  0  0  0
    5.1350   -3.5000    0.0000 C   0  0  0  0  0  0  0  0  0  0  0  0
   12.9292    5.0000    0.0000 C   0  0  0  0  0  0  0  0  0  0  0  0
   12.0632    5.5000    0.0000 C   0  0  0  0  0  0  0  0  0  0  0  0
    3.4030   -2.5000    0.0000 C   0  0  0  0  0  0  0  0  0  0  0  0
    3.4030   -3.5000    0.0000 C   0  0  0  0  0  0  0  0  0  0  0  0
   12.0632   -1.8800    0.0000 H   0  0  0  0  0  0  0  0  0  0  0  0
   13.1413   -2.5826    0.0000 H   0  0  0  0  0  0  0  0  0  0  0  0
   13.5398   -1.8923    0.0000 H   0  0  0  0  0  0  0  0  0  0  0  0
   12.3923   -1.3100    0.0000 H   0  0  0  0  0  0  0  0  0  0  0  0
   14.3322   -0.1900    0.0000 H   0  0  0  0  0  0  0  0  0  0  0  0
   11.4526   -3.3923    0.0000 H   0  0  0  0  0  0  0  0  0  0  0  0
   11.8512   -4.0826    0.0000 H   0  0  0  0  0  0  0  0  0  0  0  0
   14.2628   -1.4750    0.0000 H   0  0  0  0  0  0  0  0  0  0  0  0
   15.0598   -1.4750    0.0000 H   0  0  0  0  0  0  0  0  0  0  0  0
   11.1972   -1.3800    0.0000 H   0  0  0  0  0  0  0  0  0  0  0  0
    9.4651   -2.6200    0.0000 H   0  0  0  0  0  0  0  0  0  0  0  0
   14.3322    0.8100    0.0000 H   0  0  0  0  0  0  0  0  0  0  0  0
   10.0021   -1.3100    0.0000 H   0  0  0  0  0  0  0  0  0  0  0  0
   11.5263   -0.8100    0.0000 H   0  0  0  0  0  0  0  0  0  0  0  0
    8.5991   -3.1200    0.0000 H   0  0  0  0  0  0  0  0  0  0  0  0
   10.6412   -1.0369    0.0000 H   0  0  0  0  0  0  0  0  0  0  0  0
   10.8681   -0.1900    0.0000 H   0  0  0  0  0  0  0  0  0  0  0  0
   10.0212    0.0369    0.0000 H   0  0  0  0  0  0  0  0  0  0  0  0
    8.9091    0.0369    0.0000 H   0  0  0  0  0  0  0  0  0  0  0  0
    8.0622   -0.1900    0.0000 H   0  0  0  0  0  0  0  0  0  0  0  0
    8.2891   -1.0369    0.0000 H   0  0  0  0  0  0  0  0  0  0  0  0
   13.7953   -2.8800    0.0000 H   0  0  0  0  0  0  0  0  0  0  0  0
   12.3923   -5.3100    0.0000 H   0  0  0  0  0  0  0  0  0  0  0  0
   16.3933   -1.6200    0.0000 H   0  0  0  0  0  0  0  0  0  0  0  0
   14.9904    0.8100    0.0000 H   0  0  0  0  0  0  0  0  0  0  0  0
   15.1982   -3.6900    0.0000 H   0  0  0  0  0  0  0  0  0  0  0  0
   13.7953   -6.1200    0.0000 H   0  0  0  0  0  0  0  0  0  0  0  0
   17.7963   -0.8100    0.0000 H   0  0  0  0  0  0  0  0  0  0  0  0
   16.3933    1.6200    0.0000 H   0  0  0  0  0  0  0  0  0  0  0  0
   15.1982   -5.3100    0.0000 H   0  0  0  0  0  0  0  0  0  0  0  0
   17.7963    0.8100    0.0000 H   0  0  0  0  0  0  0  0  0  0  0  0
   11.4526    2.6077    0.0000 H   0  0  0  0  0  0  0  0  0  0  0  0
   11.8512    1.9174    0.0000 H   0  0  0  0  0  0  0  0  0  0  0  0
    6.3996   -1.5250    0.0000 H   0  0  0  0  0  0  0  0  0  0  0  0
    5.6025   -1.5250    0.0000 H   0  0  0  0  0  0  0  0  0  0  0  0
   13.4662    3.6900    0.0000 H   0  0  0  0  0  0  0  0  0  0  0  0
   10.6603    3.6900    0.0000 H   0  0  0  0  0  0  0  0  0  0  0  0
    4.2690   -1.3800    0.0000 H   0  0  0  0  0  0  0  0  0  0  0  0
    5.6720   -3.8100    0.0000 H   0  0  0  0  0  0  0  0  0  0  0  0
   13.4662    5.3100    0.0000 H   0  0  0  0  0  0  0  0  0  0  0  0
   12.0632    6.1200    0.0000 H   0  0  0  0  0  0  0  0  0  0  0  0
    2.8660   -2.1900    0.0000 H   0  0  0  0  0  0  0  0  0  0  0  0
    2.0000   -3.6900    0.0000 H   0  0  0  0  0  0  0  0  0  0  0  0
    2.5369   -4.6200    0.0000 H   0  0  0  0  0  0  0  0  0  0  0  0
 15  1  1  6  0  0  0
  1 63  1  0  0  0  0
  2 20  2  0  0  0  0
  3 28  1  0  0  0  0
  3 38  1  0  0  0  0
  4 28  2  0  0  0  0
  5 35  1  0  0  0  0
  5 39  1  0  0  0  0
  6 35  2  0  0  0  0
 13  7  1  6  0  0  0
  7 20  1  0  0  0  0
  7 59  1  0  0  0  0
 16  8  1  1  0  0  0
  8 28  1  0  0  0  0
  8 61  1  0  0  0  0
 19  9  1  1  0  0  0
  9 35  1  0  0  0  0
  9 64  1  0  0  0  0
 10 43  1  0  0  0  0
 10 47  2  0  0  0  0
 11 45  1  0  0  0  0
 11 49  2  0  0  0  0
 12 49  1  0  0  0  0
 12 92  1  0  0  0  0
 12 93  1  0  0  0  0
 13 14  1  0  0  0  0
 13 17  1  0  0  0  0
 13 50  1  0  0  0  0
 14 15  1  0  0  0  0
 14 51  1  0  0  0  0
 14 52  1  0  0  0  0
 15 16  1  0  0  0  0
 15 53  1  0  0  0  0
 16 18  1  0  0  0  0
 16 54  1  0  0  0  0
 17 22  1  0  0  0  0
 17 55  1  0  0  0  0
 17 56  1  0  0  0  0
 18 23  1  0  0  0  0
 18 57  1  0  0  0  0
 18 58  1  0  0  0  0
 19 20  1  0  0  0  0
 19 21  1  0  0  0  0
 19 60  1  0  0  0  0
 21 24  1  0  0  0  0
 21 25  1  0  0  0  0
 21 62  1  0  0  0  0
 22 26  2  0  0  0  0
 22 27  1  0  0  0  0
 23 29  2  0  0  0  0
 23 30  1  0  0  0  0
 24 65  1  0  0  0  0
 24 66  1  0  0  0  0
 24 67  1  0  0  0  0
 25 68  1  0  0  0  0
 25 69  1  0  0  0  0
 25 70  1  0  0  0  0
 26 31  1  0  0  0  0
 26 71  1  0  0  0  0
 27 32  2  0  0  0  0
 27 72  1  0  0  0  0
 29 33  1  0  0  0  0
 29 73  1  0  0  0  0
 30 34  2  0  0  0  0
 30 74  1  0  0  0  0
 31 36  2  0  0  0  0
 31 75  1  0  0  0  0
 32 36  1  0  0  0  0
 32 76  1  0  0  0  0
 33 37  2  0  0  0  0
 33 77  1  0  0  0  0
 34 37  1  0  0  0  0
 34 78  1  0  0  0  0
 36 79  1  0  0  0  0
 37 80  1  0  0  0  0
 38 40  1  0  0  0  0
 38 81  1  0  0  0  0
 38 82  1  0  0  0  0
 39 41  1  0  0  0  0
 39 83  1  0  0  0  0
 39 84  1  0  0  0  0
 40 42  1  0  0  0  0
 40 43  2  0  0  0  0
 41 44  1  0  0  0  0
 41 45  2  0  0  0  0
 42 46  2  0  0  0  0
 42 85  1  0  0  0  0
 43 86  1  0  0  0  0
 44 48  2  0  0  0  0
 44 87  1  0  0  0  0
 45 88  1  0  0  0  0
 46 47  1  0  0  0  0
 46 89  1  0  0  0  0
 47 90  1  0  0  0  0
 48 49  1  0  0  0  0
 48 91  1  0  0  0  0
M  END
> <PUBCHEM_COMPOUND_CID>
515755
> <PUBCHEM_COMPOUND_CANONICALIZED>
1
> <PUBCHEM_CACTVS_COMPLEXITY>
990
> <PUBCHEM_CACTVS_HBOND_ACCEPTOR>
9
> <PUBCHEM_CACTVS_HBOND_DONOR>
5
> <PUBCHEM_CACTVS_ROTATABLE_BOND>
18
> <PUBCHEM_CACTVS_SUBSKEYS>
AAADcfB/uAAAAAAAAAAAAAAAAAAAAAAAAAA8eIEAAAAAAAAB9AAAHgAQCAAADTzhmgY/uJLIFgCoAjN3fACCgCkxAiAI2KG4bJmKdvLAsbmccAhm1gPY6CeQ0PIOAAAAAAAAAAAAAAAAAAAAAAAAAAAAAA==
> <PUBCHEM_IUPAC_OPENEYE_NAME>
3-pyridylmethyl N-[(1S,2S,4S)-4-[[(2S)-2-[(6-amino-3-pyridyl)methoxycarbonylamino]-3-methyl-butanoyl]amino]-1-benzyl-2-hydroxy-5-phenyl-pentyl]carbamate
> <PUBCHEM_IUPAC_CAS_NAME>
N-[(2S,3S,5S)-5-[[(2S)-2-[[(6-amino-3-pyridinyl)methoxy-oxomethyl]amino]-3-methyl-1-oxobutyl]amino]-3-hydroxy-1,6-diphenylhexan-2-yl]carbamic acid 3-pyridinylmethyl ester
> <PUBCHEM_IUPAC_NAME_MARKUP>
pyridin-3-ylmethyl <I>N</I>-[(2<I>S</I>,3<I>S</I>,5<I>S</I>)-5-[[(2<I>S</I>)-2-[(6-aminopyridin-3-yl)methoxycarbonylamino]-3-methylbutanoyl]amino]-3-hydroxy-1,6-diphenylhexan-2-yl]carbamate
> <PUBCHEM_IUPAC_NAME>
pyridin-3-ylmethyl N-[(2S,3S,5S)-5-[[(2S)-2-[(6-aminopyridin-3-yl)methoxycarbonylamino]-3-methylbutanoyl]amino]-3-hydroxy-1,6-diphenylhexan-2-yl]carbamate
> <PUBCHEM_IUPAC_SYSTEMATIC_NAME>
pyridin-3-ylmethyl N-[(2S,3S,5S)-5-[[(2S)-2-[(6-azanylpyridin-3-yl)methoxycarbonylamino]-3-methyl-butanoyl]amino]-3-oxidanyl-1,6-diphenyl-hexan-2-yl]carbamate
> <PUBCHEM_IUPAC_TRADITIONAL_NAME>
N-[(1S,2S,4S)-4-[[(2S)-2-[(6-amino-3-pyridyl)methoxycarbonylamino]-3-methyl-butanoyl]amino]-1-benzyl-2-hydroxy-5-phenyl-pentyl]carbamic acid 3-pyridylmethyl ester
> <PUBCHEM_IUPAC_INCHI>
InChI=1S/C37H44N6O6/c1-25(2)34(43-37(47)49-24-29-15-16-33(38)40-22-29)35(45)41-30(18-26-10-5-3-6-11-26)20-32(44)31(19-27-12-7-4-8-13-27)42-36(46)48-23-28-14-9-17-39-21-28/h3-17,21-22,25,30-32,34,44H,18-20,23-24H2,1-2H3,(H2,38,40)(H,41,45)(H,42,46)(H,43,47)/t30-,31-,32-,34-/m0/s1
> <PUBCHEM_IUPAC_INCHIKEY>
FETJDIXLZFVMEN-SUGCFTRWSA-N
> <PUBCHEM_XLOGP3_AA>
4.7
> <PUBCHEM_EXACT_MASS>
668.33223314
> <PUBCHEM_MOLECULAR_FORMULA>
C37H44N6O6
> <PUBCHEM_MOLECULAR_WEIGHT>
668.8
> <PUBCHEM_OPENEYE_CAN_SMILES>
CC(C)C(C(=O)NC(CC1=CC=CC=C1)CC(C(CC2=CC=CC=C2)NC(=O)OCC3=CN=CC=C3)O)NC(=O)OCC4=CN=C(C=C4)N
> <PUBCHEM_OPENEYE_ISO_SMILES>
CC(C)[C@@H](C(=O)N[C@@H](CC1=CC=CC=C1)C[C@@H]([C@H](CC2=CC=CC=C2)NC(=O)OCC3=CN=CC=C3)O)NC(=O)OCC4=CN=C(C=C4)N
> <PUBCHEM_CACTVS_TPSA>
178
> <PUBCHEM_MONOISOTOPIC_WEIGHT>
668.33223314
> <PUBCHEM_TOTAL_CHARGE>
0
> <PUBCHEM_HEAVY_ATOM_COUNT>
49
> <PUBCHEM_ATOM_DEF_STEREO_COUNT>
4
> <PUBCHEM_ATOM_UDEF_STEREO_COUNT>
0
> <PUBCHEM_BOND_DEF_STEREO_COUNT>
0
> <PUBCHEM_BOND_UDEF_STEREO_COUNT>
0
> <PUBCHEM_ISOTOPIC_ATOM_COUNT>
0
> <PUBCHEM_COMPONENT_COUNT>
1
> <PUBCHEM_CACTVS_TAUTO_COUNT>
-1
> <PUBCHEM_COORDINATE_TYPE>
1
5
255
> <PUBCHEM_BONDANNOTATIONS>
15  1  6
10  43  8
10  47  8
11  45  8
11  49  8
22  26  8
22  27  8
23  29  8
23  30  8
26  31  8
27  32  8
29  33  8
30  34  8
31  36  8
32  36  8
33  37  8
34  37  8
40  42  8
40  43  8
41  44  8
41  45  8
42  46  8
44  48  8
46  47  8
48  49  8
13  7  6
16  8  5
19  9  5
$$$$
