515706
  -OEChem-10302200282D
158158  0     1  0  0  0  0  0999 V2000
   13.4641    2.0801    0.0000 P   0  0  3  0  0  0  0  0  0  0  0  0
    6.3301    7.7763    0.0000 O   0  0  0  0  0  0  0  0  0  0  0  0
    3.7320    9.2763    0.0000 O   0  0  0  0  0  0  0  0  0  0  0  0
    5.9641    6.4102    0.0000 O   0  0  0  0  0  0  0  0  0  0  0  0
    7.1962   10.2763    0.0000 O   0  0  0  0  0  0  0  0  0  0  0  0
    3.9641    6.4102    0.0000 O   0  0  0  0  0  0  0  0  0  0  0  0
    9.7942    8.7763    0.0000 O   0  0  0  0  0  0  0  0  0  0  0  0
    5.4641    5.5442    0.0000 O   0  0  0  0  0  0  0  0  0  0  0  0
    3.7320   10.2763    0.0000 O   0  0  0  0  0  0  0  0  0  0  0  0
    2.8660    7.7763    0.0000 O   0  0  0  0  0  0  0  0  0  0  0  0
   12.9641    2.9462    0.0000 O   0  0  0  0  0  0  0  0  0  0  0  0
   13.9641    1.2141    0.0000 O   0  0  0  0  0  0  0  0  0  0  0  0
   14.3301    2.5801    0.0000 O   0  0  0  0  0  0  0  0  0  0  0  0
   16.4641    0.3481    0.0000 O   0  0  0  0  0  0  0  0  0  0  0  0
   12.5981    1.5801    0.0000 O   0  0  0  0  0  0  0  0  0  0  0  0
   15.4641   -1.3840    0.0000 O   0  0  0  0  0  0  0  0  0  0  0  0
   16.4641   -1.3840    0.0000 O   0  0  0  0  0  0  0  0  0  0  0  0
   13.9641   -2.2500    0.0000 O   0  0  0  0  0  0  0  0  0  0  0  0
    5.4641   10.2763    0.0000 N   0  0  0  0  0  0  0  0  0  0  0  0
    6.3301    8.7763    0.0000 C   0  0  2  0  0  0  0  0  0  0  0  0
    5.4641    9.2763    0.0000 C   0  0  1  0  0  0  0  0  0  0  0  0
    4.5981    8.7763    0.0000 C   0  0  2  0  0  0  0  0  0  0  0  0
    4.5981    7.7763    0.0000 C   0  0  0  0  0  0  0  0  0  0  0  0
    5.4641    7.2763    0.0000 C   0  0  2  0  0  0  0  0  0  0  0  0
    7.1962    9.2763    0.0000 C   0  0  2  0  0  0  0  0  0  0  0  0
    8.0622    8.7763    0.0000 C   0  0  1  0  0  0  0  0  0  0  0  0
    4.9641    6.4102    0.0000 C   0  0  0  0  0  0  0  0  0  0  0  0
    8.9282    9.2763    0.0000 C   0  0  0  0  0  0  0  0  0  0  0  0
    8.0622    7.7763    0.0000 C   0  0  0  0  0  0  0  0  0  0  0  0
    6.9641    6.4102    0.0000 C   0  0  0  0  0  0  0  0  0  0  0  0
    4.5981   10.7763    0.0000 C   0  0  0  0  0  0  0  0  0  0  0  0
    7.4641    5.5442    0.0000 C   0  0  0  0  0  0  0  0  0  0  0  0
    2.8660    8.7763    0.0000 C   0  0  0  0  0  0  0  0  0  0  0  0
    8.4641    5.5442    0.0000 C   0  0  0  0  0  0  0  0  0  0  0  0
    4.5981   11.7763    0.0000 C   0  0  0  0  0  0  0  0  0  0  0  0
    2.0000    9.2763    0.0000 C   0  0  0  0  0  0  0  0  0  0  0  0
    8.9641    4.6782    0.0000 C   0  0  0  0  0  0  0  0  0  0  0  0
    9.9641    4.6782    0.0000 C   0  0  0  0  0  0  0  0  0  0  0  0
   10.4641    3.8122    0.0000 C   0  0  0  0  0  0  0  0  0  0  0  0
   11.4641    3.8122    0.0000 C   0  0  0  0  0  0  0  0  0  0  0  0
   11.9641    2.9462    0.0000 C   0  0  0  0  0  0  0  0  0  0  0  0
   20.9641   -2.2500    0.0000 C   0  0  0  0  0  0  0  0  0  0  0  0
   21.4641   -3.1160    0.0000 C   0  0  0  0  0  0  0  0  0  0  0  0
   15.4641   -6.5801    0.0000 C   0  0  0  0  0  0  0  0  0  0  0  0
   14.9641   -7.4462    0.0000 C   0  0  0  0  0  0  0  0  0  0  0  0
   19.9641   -2.2500    0.0000 C   0  0  0  0  0  0  0  0  0  0  0  0
   22.4641   -3.1160    0.0000 C   0  0  0  0  0  0  0  0  0  0  0  0
   14.9641   -5.7141    0.0000 C   0  0  0  0  0  0  0  0  0  0  0  0
   15.4641   -8.3122    0.0000 C   0  0  0  0  0  0  0  0  0  0  0  0
   19.4641   -1.3840    0.0000 C   0  0  0  0  0  0  0  0  0  0  0  0
   22.9641   -3.9820    0.0000 C   0  0  0  0  0  0  0  0  0  0  0  0
   15.4641   -4.8481    0.0000 C   0  0  0  0  0  0  0  0  0  0  0  0
   14.9641   -9.1782    0.0000 C   0  0  0  0  0  0  0  0  0  0  0  0
   18.4641   -1.3840    0.0000 C   0  0  0  0  0  0  0  0  0  0  0  0
   23.9641   -3.9820    0.0000 C   0  0  0  0  0  0  0  0  0  0  0  0
   14.9641   -3.9820    0.0000 C   0  0  0  0  0  0  0  0  0  0  0  0
   15.4641  -10.0442    0.0000 C   0  0  0  0  0  0  0  0  0  0  0  0
   17.9641   -0.5179    0.0000 C   0  0  0  0  0  0  0  0  0  0  0  0
   15.4641    0.3481    0.0000 C   0  0  3  0  0  0  0  0  0  0  0  0
   14.9641    1.2141    0.0000 C   0  0  0  0  0  0  0  0  0  0  0  0
   15.4641   -3.1160    0.0000 C   0  0  0  0  0  0  0  0  0  0  0  0
   24.4641   -4.8481    0.0000 C   0  0  0  0  0  0  0  0  0  0  0  0
   14.9641  -10.9103    0.0000 C   0  0  0  0  0  0  0  0  0  0  0  0
   14.9641   -0.5179    0.0000 C   0  0  0  0  0  0  0  0  0  0  0  0
   16.9641   -0.5179    0.0000 C   0  0  0  0  0  0  0  0  0  0  0  0
   14.9641   -2.2500    0.0000 C   0  0  0  0  0  0  0  0  0  0  0  0
   25.4641   -4.8481    0.0000 C   0  0  0  0  0  0  0  0  0  0  0  0
   15.4641  -11.7763    0.0000 C   0  0  0  0  0  0  0  0  0  0  0  0
    7.0662    8.3513    0.0000 H   0  0  0  0  0  0  0  0  0  0  0  0
    6.0010    9.5863    0.0000 H   0  0  0  0  0  0  0  0  0  0  0  0
    4.5981    9.3963    0.0000 H   0  0  0  0  0  0  0  0  0  0  0  0
    3.9875    7.8839    0.0000 H   0  0  0  0  0  0  0  0  0  0  0  0
    4.3860    7.1937    0.0000 H   0  0  0  0  0  0  0  0  0  0  0  0
    6.6592    9.5863    0.0000 H   0  0  0  0  0  0  0  0  0  0  0  0
    7.5252    8.4663    0.0000 H   0  0  0  0  0  0  0  0  0  0  0  0
    6.0010   10.5863    0.0000 H   0  0  0  0  0  0  0  0  0  0  0  0
    9.3267    9.7512    0.0000 H   0  0  0  0  0  0  0  0  0  0  0  0
    8.5297    9.7512    0.0000 H   0  0  0  0  0  0  0  0  0  0  0  0
    7.4422    7.7763    0.0000 H   0  0  0  0  0  0  0  0  0  0  0  0
    8.0622    7.1563    0.0000 H   0  0  0  0  0  0  0  0  0  0  0  0
    8.6822    7.7763    0.0000 H   0  0  0  0  0  0  0  0  0  0  0  0
    7.7331   10.5863    0.0000 H   0  0  0  0  0  0  0  0  0  0  0  0
    7.5467    6.6223    0.0000 H   0  0  0  0  0  0  0  0  0  0  0  0
    6.8564    7.0208    0.0000 H   0  0  0  0  0  0  0  0  0  0  0  0
    6.8815    5.3322    0.0000 H   0  0  0  0  0  0  0  0  0  0  0  0
    7.5718    4.9336    0.0000 H   0  0  0  0  0  0  0  0  0  0  0  0
    9.0467    5.7563    0.0000 H   0  0  0  0  0  0  0  0  0  0  0  0
    8.3564    6.1548    0.0000 H   0  0  0  0  0  0  0  0  0  0  0  0
    3.6541    5.8733    0.0000 H   0  0  0  0  0  0  0  0  0  0  0  0
    5.2181   11.7763    0.0000 H   0  0  0  0  0  0  0  0  0  0  0  0
    4.5981   12.3963    0.0000 H   0  0  0  0  0  0  0  0  0  0  0  0
    3.9781   11.7763    0.0000 H   0  0  0  0  0  0  0  0  0  0  0  0
   10.3312    9.0863    0.0000 H   0  0  0  0  0  0  0  0  0  0  0  0
    2.3100    9.8132    0.0000 H   0  0  0  0  0  0  0  0  0  0  0  0
    1.4631    9.5863    0.0000 H   0  0  0  0  0  0  0  0  0  0  0  0
    1.6900    8.7393    0.0000 H   0  0  0  0  0  0  0  0  0  0  0  0
    8.3815    4.4662    0.0000 H   0  0  0  0  0  0  0  0  0  0  0  0
    9.0718    4.0676    0.0000 H   0  0  0  0  0  0  0  0  0  0  0  0
   10.5467    4.8903    0.0000 H   0  0  0  0  0  0  0  0  0  0  0  0
    9.8564    5.2888    0.0000 H   0  0  0  0  0  0  0  0  0  0  0  0
    9.8815    3.6001    0.0000 H   0  0  0  0  0  0  0  0  0  0  0  0
   10.5718    3.2016    0.0000 H   0  0  0  0  0  0  0  0  0  0  0  0
   12.0467    4.0242    0.0000 H   0  0  0  0  0  0  0  0  0  0  0  0
   11.3564    4.4228    0.0000 H   0  0  0  0  0  0  0  0  0  0  0  0
   11.3815    2.7341    0.0000 H   0  0  0  0  0  0  0  0  0  0  0  0
   12.0718    2.3356    0.0000 H   0  0  0  0  0  0  0  0  0  0  0  0
   21.5467   -2.0380    0.0000 H   0  0  0  0  0  0  0  0  0  0  0  0
   20.8564   -1.6394    0.0000 H   0  0  0  0  0  0  0  0  0  0  0  0
   20.8815   -3.3281    0.0000 H   0  0  0  0  0  0  0  0  0  0  0  0
   21.5718   -3.7266    0.0000 H   0  0  0  0  0  0  0  0  0  0  0  0
   15.9390   -6.9787    0.0000 H   0  0  0  0  0  0  0  0  0  0  0  0
   15.9390   -6.1816    0.0000 H   0  0  0  0  0  0  0  0  0  0  0  0
   14.4892   -7.0476    0.0000 H   0  0  0  0  0  0  0  0  0  0  0  0
   14.4892   -7.8447    0.0000 H   0  0  0  0  0  0  0  0  0  0  0  0
   19.3815   -2.4620    0.0000 H   0  0  0  0  0  0  0  0  0  0  0  0
   20.0718   -2.8606    0.0000 H   0  0  0  0  0  0  0  0  0  0  0  0
   23.0467   -2.9040    0.0000 H   0  0  0  0  0  0  0  0  0  0  0  0
   22.3564   -2.5054    0.0000 H   0  0  0  0  0  0  0  0  0  0  0  0
   14.4892   -5.3156    0.0000 H   0  0  0  0  0  0  0  0  0  0  0  0
   14.4892   -6.1126    0.0000 H   0  0  0  0  0  0  0  0  0  0  0  0
   15.9390   -8.7107    0.0000 H   0  0  0  0  0  0  0  0  0  0  0  0
   15.9390   -7.9136    0.0000 H   0  0  0  0  0  0  0  0  0  0  0  0
   20.0467   -1.1719    0.0000 H   0  0  0  0  0  0  0  0  0  0  0  0
   19.3564   -0.7734    0.0000 H   0  0  0  0  0  0  0  0  0  0  0  0
   22.3815   -4.1941    0.0000 H   0  0  0  0  0  0  0  0  0  0  0  0
   23.0718   -4.5926    0.0000 H   0  0  0  0  0  0  0  0  0  0  0  0
   15.9390   -5.2466    0.0000 H   0  0  0  0  0  0  0  0  0  0  0  0
   15.9390   -4.4496    0.0000 H   0  0  0  0  0  0  0  0  0  0  0  0
   14.4892   -8.7797    0.0000 H   0  0  0  0  0  0  0  0  0  0  0  0
   14.4892   -9.5767    0.0000 H   0  0  0  0  0  0  0  0  0  0  0  0
   17.8815   -1.5960    0.0000 H   0  0  0  0  0  0  0  0  0  0  0  0
   18.5718   -1.9946    0.0000 H   0  0  0  0  0  0  0  0  0  0  0  0
   24.5467   -3.7700    0.0000 H   0  0  0  0  0  0  0  0  0  0  0  0
   23.8564   -3.3715    0.0000 H   0  0  0  0  0  0  0  0  0  0  0  0
   14.4892   -3.5835    0.0000 H   0  0  0  0  0  0  0  0  0  0  0  0
   14.4892   -4.3806    0.0000 H   0  0  0  0  0  0  0  0  0  0  0  0
   15.9390  -10.4428    0.0000 H   0  0  0  0  0  0  0  0  0  0  0  0
   15.9390   -9.6457    0.0000 H   0  0  0  0  0  0  0  0  0  0  0  0
   18.5467   -0.3059    0.0000 H   0  0  0  0  0  0  0  0  0  0  0  0
   17.8564    0.0926    0.0000 H   0  0  0  0  0  0  0  0  0  0  0  0
   15.7741   -0.1889    0.0000 H   0  0  0  0  0  0  0  0  0  0  0  0
   15.5467    1.4262    0.0000 H   0  0  0  0  0  0  0  0  0  0  0  0
   14.8564    1.8247    0.0000 H   0  0  0  0  0  0  0  0  0  0  0  0
   15.9390   -3.5146    0.0000 H   0  0  0  0  0  0  0  0  0  0  0  0
   15.9390   -2.7175    0.0000 H   0  0  0  0  0  0  0  0  0  0  0  0
   23.8815   -5.0601    0.0000 H   0  0  0  0  0  0  0  0  0  0  0  0
   24.5718   -5.4587    0.0000 H   0  0  0  0  0  0  0  0  0  0  0  0
   14.4892  -10.5117    0.0000 H   0  0  0  0  0  0  0  0  0  0  0  0
   14.4892  -11.3088    0.0000 H   0  0  0  0  0  0  0  0  0  0  0  0
   14.4892   -0.1194    0.0000 H   0  0  0  0  0  0  0  0  0  0  0  0
   14.4892   -0.9165    0.0000 H   0  0  0  0  0  0  0  0  0  0  0  0
   14.3301    3.2001    0.0000 H   0  0  0  0  0  0  0  0  0  0  0  0
   25.4641   -5.4681    0.0000 H   0  0  0  0  0  0  0  0  0  0  0  0
   26.0841   -4.8481    0.0000 H   0  0  0  0  0  0  0  0  0  0  0  0
   25.4641   -4.2281    0.0000 H   0  0  0  0  0  0  0  0  0  0  0  0
   14.9272  -12.0863    0.0000 H   0  0  0  0  0  0  0  0  0  0  0  0
   15.7741  -12.3132    0.0000 H   0  0  0  0  0  0  0  0  0  0  0  0
   16.0010  -11.4663    0.0000 H   0  0  0  0  0  0  0  0  0  0  0  0
  1 11  1  0  0  0  0
  1 12  1  0  0  0  0
  1 13  1  0  0  0  0
  1 15  2  0  0  0  0
  2 20  1  0  0  0  0
  2 24  1  0  0  0  0
 22  3  1  6  0  0  0
  3 33  1  0  0  0  0
 24  4  1  6  0  0  0
  4 30  1  0  0  0  0
 25  5  1  1  0  0  0
  5 82  1  0  0  0  0
  6 27  1  0  0  0  0
  6 89  1  0  0  0  0
  7 28  1  0  0  0  0
  7 93  1  0  0  0  0
  8 27  2  0  0  0  0
  9 31  2  0  0  0  0
 10 33  2  0  0  0  0
 11 41  1  0  0  0  0
 12 60  1  0  0  0  0
 13152  1  0  0  0  0
 14 59  1  0  0  0  0
 14 65  1  0  0  0  0
 16 64  1  0  0  0  0
 16 66  1  0  0  0  0
 17 65  2  0  0  0  0
 18 66  2  0  0  0  0
 21 19  1  1  0  0  0
 19 31  1  0  0  0  0
 19 76  1  0  0  0  0
 20 21  1  0  0  0  0
 20 25  1  0  0  0  0
 20 69  1  1  0  0  0
 21 22  1  0  0  0  0
 21 70  1  0  0  0  0
 22 23  1  0  0  0  0
 22 71  1  0  0  0  0
 23 24  1  0  0  0  0
 23 72  1  0  0  0  0
 23 73  1  0  0  0  0
 24 27  1  0  0  0  0
 25 26  1  0  0  0  0
 25 74  1  0  0  0  0
 26 28  1  0  0  0  0
 26 29  1  1  0  0  0
 26 75  1  0  0  0  0
 28 77  1  0  0  0  0
 28 78  1  0  0  0  0
 29 79  1  0  0  0  0
 29 80  1  0  0  0  0
 29 81  1  0  0  0  0
 30 32  1  0  0  0  0
 30 83  1  0  0  0  0
 30 84  1  0  0  0  0
 31 35  1  0  0  0  0
 32 34  1  0  0  0  0
 32 85  1  0  0  0  0
 32 86  1  0  0  0  0
 33 36  1  0  0  0  0
 34 37  1  0  0  0  0
 34 87  1  0  0  0  0
 34 88  1  0  0  0  0
 35 90  1  0  0  0  0
 35 91  1  0  0  0  0
 35 92  1  0  0  0  0
 36 94  1  0  0  0  0
 36 95  1  0  0  0  0
 36 96  1  0  0  0  0
 37 38  1  0  0  0  0
 37 97  1  0  0  0  0
 37 98  1  0  0  0  0
 38 39  1  0  0  0  0
 38 99  1  0  0  0  0
 38100  1  0  0  0  0
 39 40  1  0  0  0  0
 39101  1  0  0  0  0
 39102  1  0  0  0  0
 40 41  1  0  0  0  0
 40103  1  0  0  0  0
 40104  1  0  0  0  0
 41105  1  0  0  0  0
 41106  1  0  0  0  0
 42 43  1  0  0  0  0
 42 46  1  0  0  0  0
 42107  1  0  0  0  0
 42108  1  0  0  0  0
 43 47  1  0  0  0  0
 43109  1  0  0  0  0
 43110  1  0  0  0  0
 44 45  1  0  0  0  0
 44 48  1  0  0  0  0
 44111  1  0  0  0  0
 44112  1  0  0  0  0
 45 49  1  0  0  0  0
 45113  1  0  0  0  0
 45114  1  0  0  0  0
 46 50  1  0  0  0  0
 46115  1  0  0  0  0
 46116  1  0  0  0  0
 47 51  1  0  0  0  0
 47117  1  0  0  0  0
 47118  1  0  0  0  0
 48 52  1  0  0  0  0
 48119  1  0  0  0  0
 48120  1  0  0  0  0
 49 53  1  0  0  0  0
 49121  1  0  0  0  0
 49122  1  0  0  0  0
 50 54  1  0  0  0  0
 50123  1  0  0  0  0
 50124  1  0  0  0  0
 51 55  1  0  0  0  0
 51125  1  0  0  0  0
 51126  1  0  0  0  0
 52 56  1  0  0  0  0
 52127  1  0  0  0  0
 52128  1  0  0  0  0
 53 57  1  0  0  0  0
 53129  1  0  0  0  0
 53130  1  0  0  0  0
 54 58  1  0  0  0  0
 54131  1  0  0  0  0
 54132  1  0  0  0  0
 55 62  1  0  0  0  0
 55133  1  0  0  0  0
 55134  1  0  0  0  0
 56 61  1  0  0  0  0
 56135  1  0  0  0  0
 56136  1  0  0  0  0
 57 63  1  0  0  0  0
 57137  1  0  0  0  0
 57138  1  0  0  0  0
 58 65  1  0  0  0  0
 58139  1  0  0  0  0
 58140  1  0  0  0  0
 59 60  1  0  0  0  0
 59 64  1  0  0  0  0
 59141  1  0  0  0  0
 60142  1  0  0  0  0
 60143  1  0  0  0  0
 61 66  1  0  0  0  0
 61144  1  0  0  0  0
 61145  1  0  0  0  0
 62 67  1  0  0  0  0
 62146  1  0  0  0  0
 62147  1  0  0  0  0
 63 68  1  0  0  0  0
 63148  1  0  0  0  0
 63149  1  0  0  0  0
 64150  1  0  0  0  0
 64151  1  0  0  0  0
 67153  1  0  0  0  0
 67154  1  0  0  0  0
 67155  1  0  0  0  0
 68156  1  0  0  0  0
 68157  1  0  0  0  0
 68158  1  0  0  0  0
M  END
> <PUBCHEM_COMPOUND_CID>
515706
> <PUBCHEM_COMPOUND_CANONICALIZED>
1
> <PUBCHEM_CACTVS_COMPLEXITY>
1440
> <PUBCHEM_CACTVS_HBOND_ACCEPTOR>
17
> <PUBCHEM_CACTVS_HBOND_DONOR>
5
> <PUBCHEM_CACTVS_ROTATABLE_BOND>
46
> <PUBCHEM_CACTVS_SUBSKEYS>
AAADcfB+PgIAAAAAAAAAAAAAAAAAAAAAAAAkAAAAAAAAAAAAAAAAHgAQCCAADTzhgAYCCALABxAIQAGQGIIAAAAAAAAAAIFIAAATEBIAgAQnQAAHFgCXAAH6+f+cAAAAAAAAAAAAAAAAAAAAAAAAAAAAAA==
> <PUBCHEM_IUPAC_OPENEYE_NAME>
(2R,4S,5R,6R)-5-acetamido-4-acetoxy-2-[8-[2,3-di(dodecanoyloxy)propoxy-hydroxy-phosphoryl]oxyoctoxy]-6-[(1S,2R)-1,3-dihydroxy-2-methyl-propyl]tetrahydropyran-2-carboxylic acid
> <PUBCHEM_IUPAC_CAS_NAME>
(2R,4S,5R,6R)-5-acetamido-4-acetyloxy-2-[8-[2,3-bis(1-oxododecoxy)propoxy-hydroxyphosphoryl]oxyoctoxy]-6-[(1S,2R)-1,3-dihydroxy-2-methylpropyl]-2-oxanecarboxylic acid
> <PUBCHEM_IUPAC_NAME_MARKUP>
(2<I>R</I>,4<I>S</I>,5<I>R</I>,6<I>R</I>)-5-acetamido-4-acetyloxy-2-[8-[2,3-di(dodecanoyloxy)propoxy-hydroxyphosphoryl]oxyoctoxy]-6-[(1<I>S</I>,2<I>R</I>)-1,3-dihydroxy-2-methylpropyl]oxane-2-carboxylic acid
> <PUBCHEM_IUPAC_NAME>
(2R,4S,5R,6R)-5-acetamido-4-acetyloxy-2-[8-[2,3-di(dodecanoyloxy)propoxy-hydroxyphosphoryl]oxyoctoxy]-6-[(1S,2R)-1,3-dihydroxy-2-methylpropyl]oxane-2-carboxylic acid
> <PUBCHEM_IUPAC_SYSTEMATIC_NAME>
(2R,4S,5R,6R)-5-acetamido-4-acetyloxy-2-[8-[2,3-di(dodecanoyloxy)propoxy-oxidanyl-phosphoryl]oxyoctoxy]-6-[(1S,2R)-2-methyl-1,3-bis(oxidanyl)propyl]oxane-2-carboxylic acid
> <PUBCHEM_IUPAC_TRADITIONAL_NAME>
(2R,4S,5R,6R)-5-acetamido-4-acetoxy-6-[(1S,2R)-1,3-dihydroxy-2-methyl-propyl]-2-[8-[2,3-dilauroyloxypropoxy(hydroxy)phosphoryl]oxyoctoxy]tetrahydropyran-2-carboxylic acid
> <PUBCHEM_IUPAC_INCHI>
InChI=1S/C49H90NO17P/c1-6-8-10-12-14-16-18-22-26-30-43(54)61-36-41(66-44(55)31-27-23-19-17-15-13-11-9-7-2)37-64-68(59,60)63-33-29-25-21-20-24-28-32-62-49(48(57)58)34-42(65-40(5)53)45(50-39(4)52)47(67-49)46(56)38(3)35-51/h38,41-42,45-47,51,56H,6-37H2,1-5H3,(H,50,52)(H,57,58)(H,59,60)/t38-,41?,42+,45-,46+,47-,49-/m1/s1
> <PUBCHEM_IUPAC_INCHIKEY>
LBXYUZRXTOFDKM-DUPWHEAYSA-N
> <PUBCHEM_XLOGP3_AA>
10.5
> <PUBCHEM_EXACT_MASS>
995.59463740
> <PUBCHEM_MOLECULAR_FORMULA>
C49H90NO17P
> <PUBCHEM_MOLECULAR_WEIGHT>
996.2
> <PUBCHEM_OPENEYE_CAN_SMILES>
CCCCCCCCCCCC(=O)OCC(COP(=O)(O)OCCCCCCCCOC1(CC(C(C(O1)C(C(C)CO)O)NC(=O)C)OC(=O)C)C(=O)O)OC(=O)CCCCCCCCCCC
> <PUBCHEM_OPENEYE_ISO_SMILES>
CCCCCCCCCCCC(=O)OCC(COP(=O)(O)OCCCCCCCCO[C@@]1(C[C@@H]([C@H]([C@@H](O1)[C@H]([C@H](C)CO)O)NC(=O)C)OC(=O)C)C(=O)O)OC(=O)CCCCCCCCCCC
> <PUBCHEM_CACTVS_TPSA>
260
> <PUBCHEM_MONOISOTOPIC_WEIGHT>
995.59463740
> <PUBCHEM_TOTAL_CHARGE>
0
> <PUBCHEM_HEAVY_ATOM_COUNT>
68
> <PUBCHEM_ATOM_DEF_STEREO_COUNT>
6
> <PUBCHEM_ATOM_UDEF_STEREO_COUNT>
1
> <PUBCHEM_BOND_DEF_STEREO_COUNT>
0
> <PUBCHEM_BOND_UDEF_STEREO_COUNT>
0
> <PUBCHEM_ISOTOPIC_ATOM_COUNT>
0
> <PUBCHEM_COMPONENT_COUNT>
1
> <PUBCHEM_CACTVS_TAUTO_COUNT>
-1
> <PUBCHEM_COORDINATE_TYPE>
1
5
255
> <PUBCHEM_BONDANNOTATIONS>
21  19  5
20  69  5
26  29  5
22  3  6
24  4  6
25  5  5
59  64  3
$$$$
