515737
  -OEChem-10302200282D
 98101  0     1  0  0  0  0  0999 V2000
   13.2583   -2.5000    0.0000 O   0  0  0  0  0  0  0  0  0  0  0  0
    9.7942   -3.5000    0.0000 O   0  0  0  0  0  0  0  0  0  0  0  0
   12.3923    2.0000    0.0000 O   0  0  0  0  0  0  0  0  0  0  0  0
   11.5263    0.5000    0.0000 O   0  0  0  0  0  0  0  0  0  0  0  0
    7.1962   -1.0000    0.0000 O   0  0  0  0  0  0  0  0  0  0  0  0
   10.6603   -2.0000    0.0000 N   0  0  0  0  0  0  0  0  0  0  0  0
   13.2583    0.5000    0.0000 N   0  0  0  0  0  0  0  0  0  0  0  0
    8.0622   -2.5000    0.0000 N   0  0  0  0  0  0  0  0  0  0  0  0
    6.3301   -2.5000    0.0000 N   0  0  0  0  0  0  0  0  0  0  0  0
    3.7320   -4.0000    0.0000 N   0  0  0  0  0  0  0  0  0  0  0  0
   12.3923    5.0000    0.0000 N   0  0  0  0  0  0  0  0  0  0  0  0
   11.5263   -2.5000    0.0000 C   0  0  2  0  0  0  0  0  0  0  0  0
   12.3923   -2.0000    0.0000 C   0  0  2  0  0  0  0  0  0  0  0  0
   12.3923   -1.0000    0.0000 C   0  0  0  0  0  0  0  0  0  0  0  0
   13.2583   -0.5000    0.0000 C   0  0  2  0  0  0  0  0  0  0  0  0
   11.5263   -3.5000    0.0000 C   0  0  0  0  0  0  0  0  0  0  0  0
   14.1244   -1.0000    0.0000 C   0  0  0  0  0  0  0  0  0  0  0  0
    8.9282   -2.0000    0.0000 C   0  0  2  0  0  0  0  0  0  0  0  0
    9.7942   -2.5000    0.0000 C   0  0  0  0  0  0  0  0  0  0  0  0
    8.9282   -1.0000    0.0000 C   0  0  0  0  0  0  0  0  0  0  0  0
   12.3923   -4.0000    0.0000 C   0  0  0  0  0  0  0  0  0  0  0  0
   14.9904   -0.5000    0.0000 C   0  0  0  0  0  0  0  0  0  0  0  0
    9.7942   -0.5000    0.0000 C   0  0  0  0  0  0  0  0  0  0  0  0
    8.0622   -0.5000    0.0000 C   0  0  0  0  0  0  0  0  0  0  0  0
   12.3923   -5.0000    0.0000 C   0  0  0  0  0  0  0  0  0  0  0  0
   13.2583   -3.5000    0.0000 C   0  0  0  0  0  0  0  0  0  0  0  0
   12.3923    1.0000    0.0000 C   0  0  0  0  0  0  0  0  0  0  0  0
   15.8564   -1.0000    0.0000 C   0  0  0  0  0  0  0  0  0  0  0  0
   14.9904    0.5000    0.0000 C   0  0  0  0  0  0  0  0  0  0  0  0
    7.1962   -2.0000    0.0000 C   0  0  0  0  0  0  0  0  0  0  0  0
   13.2583   -5.5000    0.0000 C   0  0  0  0  0  0  0  0  0  0  0  0
   14.1244   -4.0000    0.0000 C   0  0  0  0  0  0  0  0  0  0  0  0
   14.1244   -5.0000    0.0000 C   0  0  0  0  0  0  0  0  0  0  0  0
   16.7224   -0.5000    0.0000 C   0  0  0  0  0  0  0  0  0  0  0  0
   15.8564    1.0000    0.0000 C   0  0  0  0  0  0  0  0  0  0  0  0
   16.7224    0.5000    0.0000 C   0  0  0  0  0  0  0  0  0  0  0  0
    5.4641   -2.0000    0.0000 C   0  0  0  0  0  0  0  0  0  0  0  0
    6.3301   -3.5000    0.0000 C   0  0  0  0  0  0  0  0  0  0  0  0
   11.5263    2.5000    0.0000 C   0  0  0  0  0  0  0  0  0  0  0  0
    4.5981   -2.5000    0.0000 C   0  0  0  0  0  0  0  0  0  0  0  0
   11.5263    3.5000    0.0000 C   0  0  0  0  0  0  0  0  0  0  0  0
    3.7320   -2.0000    0.0000 C   0  0  0  0  0  0  0  0  0  0  0  0
    4.5981   -3.5000    0.0000 C   0  0  0  0  0  0  0  0  0  0  0  0
   10.6603    4.0000    0.0000 C   0  0  0  0  0  0  0  0  0  0  0  0
    2.8660   -2.5000    0.0000 C   0  0  0  0  0  0  0  0  0  0  0  0
   12.3923    4.0000    0.0000 C   0  0  0  0  0  0  0  0  0  0  0  0
    2.8660   -3.5000    0.0000 C   0  0  0  0  0  0  0  0  0  0  0  0
   10.6603    5.0000    0.0000 C   0  0  0  0  0  0  0  0  0  0  0  0
    2.0000   -4.0000    0.0000 C   0  0  0  0  0  0  0  0  0  0  0  0
   11.5263    5.5000    0.0000 C   0  0  0  0  0  0  0  0  0  0  0  0
   10.9893   -2.8100    0.0000 H   0  0  0  0  0  0  0  0  0  0  0  0
   12.3923   -2.6200    0.0000 H   0  0  0  0  0  0  0  0  0  0  0  0
   12.1803   -0.4174    0.0000 H   0  0  0  0  0  0  0  0  0  0  0  0
   11.7817   -1.1077    0.0000 H   0  0  0  0  0  0  0  0  0  0  0  0
   13.7953   -0.1900    0.0000 H   0  0  0  0  0  0  0  0  0  0  0  0
   10.9157   -3.3923    0.0000 H   0  0  0  0  0  0  0  0  0  0  0  0
   11.3142   -4.0826    0.0000 H   0  0  0  0  0  0  0  0  0  0  0  0
   10.6603   -1.3800    0.0000 H   0  0  0  0  0  0  0  0  0  0  0  0
   13.7258   -1.4750    0.0000 H   0  0  0  0  0  0  0  0  0  0  0  0
   14.5229   -1.4750    0.0000 H   0  0  0  0  0  0  0  0  0  0  0  0
    8.9282   -2.6200    0.0000 H   0  0  0  0  0  0  0  0  0  0  0  0
    9.4651   -1.3100    0.0000 H   0  0  0  0  0  0  0  0  0  0  0  0
   13.7953    0.8100    0.0000 H   0  0  0  0  0  0  0  0  0  0  0  0
   13.7953   -2.1900    0.0000 H   0  0  0  0  0  0  0  0  0  0  0  0
    8.0622   -3.1200    0.0000 H   0  0  0  0  0  0  0  0  0  0  0  0
   10.1042   -1.0369    0.0000 H   0  0  0  0  0  0  0  0  0  0  0  0
   10.3312   -0.1900    0.0000 H   0  0  0  0  0  0  0  0  0  0  0  0
    9.4842    0.0369    0.0000 H   0  0  0  0  0  0  0  0  0  0  0  0
    8.3722    0.0369    0.0000 H   0  0  0  0  0  0  0  0  0  0  0  0
    7.5252   -0.1900    0.0000 H   0  0  0  0  0  0  0  0  0  0  0  0
    7.7522   -1.0369    0.0000 H   0  0  0  0  0  0  0  0  0  0  0  0
   11.8554   -5.3100    0.0000 H   0  0  0  0  0  0  0  0  0  0  0  0
   13.2583   -2.8800    0.0000 H   0  0  0  0  0  0  0  0  0  0  0  0
   15.8564   -1.6200    0.0000 H   0  0  0  0  0  0  0  0  0  0  0  0
   14.4534    0.8100    0.0000 H   0  0  0  0  0  0  0  0  0  0  0  0
   13.2583   -6.1200    0.0000 H   0  0  0  0  0  0  0  0  0  0  0  0
   14.6613   -3.6900    0.0000 H   0  0  0  0  0  0  0  0  0  0  0  0
   14.6613   -5.3100    0.0000 H   0  0  0  0  0  0  0  0  0  0  0  0
   17.2594   -0.8100    0.0000 H   0  0  0  0  0  0  0  0  0  0  0  0
   15.8564    1.6200    0.0000 H   0  0  0  0  0  0  0  0  0  0  0  0
   17.2594    0.8100    0.0000 H   0  0  0  0  0  0  0  0  0  0  0  0
    5.8626   -1.5250    0.0000 H   0  0  0  0  0  0  0  0  0  0  0  0
    5.0656   -1.5250    0.0000 H   0  0  0  0  0  0  0  0  0  0  0  0
    5.7101   -3.5000    0.0000 H   0  0  0  0  0  0  0  0  0  0  0  0
    6.3301   -4.1200    0.0000 H   0  0  0  0  0  0  0  0  0  0  0  0
    6.9501   -3.5000    0.0000 H   0  0  0  0  0  0  0  0  0  0  0  0
   10.9157    2.6077    0.0000 H   0  0  0  0  0  0  0  0  0  0  0  0
   11.3142    1.9174    0.0000 H   0  0  0  0  0  0  0  0  0  0  0  0
    3.7320   -1.3800    0.0000 H   0  0  0  0  0  0  0  0  0  0  0  0
    5.1350   -3.8100    0.0000 H   0  0  0  0  0  0  0  0  0  0  0  0
   10.1233    3.6900    0.0000 H   0  0  0  0  0  0  0  0  0  0  0  0
    2.3291   -2.1900    0.0000 H   0  0  0  0  0  0  0  0  0  0  0  0
   12.9292    3.6900    0.0000 H   0  0  0  0  0  0  0  0  0  0  0  0
   10.1233    5.3100    0.0000 H   0  0  0  0  0  0  0  0  0  0  0  0
    1.6900   -3.4631    0.0000 H   0  0  0  0  0  0  0  0  0  0  0  0
    1.4631   -4.3100    0.0000 H   0  0  0  0  0  0  0  0  0  0  0  0
    2.3100   -4.5369    0.0000 H   0  0  0  0  0  0  0  0  0  0  0  0
   11.5263    6.1200    0.0000 H   0  0  0  0  0  0  0  0  0  0  0  0
 13  1  1  6  0  0  0
  1 64  1  0  0  0  0
  2 19  2  0  0  0  0
  3 27  1  0  0  0  0
  3 39  1  0  0  0  0
  4 27  2  0  0  0  0
  5 30  2  0  0  0  0
 12  6  1  6  0  0  0
  6 19  1  0  0  0  0
  6 58  1  0  0  0  0
 15  7  1  1  0  0  0
  7 27  1  0  0  0  0
  7 63  1  0  0  0  0
 18  8  1  1  0  0  0
  8 30  1  0  0  0  0
  8 65  1  0  0  0  0
  9 30  1  0  0  0  0
  9 37  1  0  0  0  0
  9 38  1  0  0  0  0
 10 43  1  0  0  0  0
 10 47  2  0  0  0  0
 11 46  1  0  0  0  0
 11 50  2  0  0  0  0
 12 13  1  0  0  0  0
 12 16  1  0  0  0  0
 12 51  1  0  0  0  0
 13 14  1  0  0  0  0
 13 52  1  0  0  0  0
 14 15  1  0  0  0  0
 14 53  1  0  0  0  0
 14 54  1  0  0  0  0
 15 17  1  0  0  0  0
 15 55  1  0  0  0  0
 16 21  1  0  0  0  0
 16 56  1  0  0  0  0
 16 57  1  0  0  0  0
 17 22  1  0  0  0  0
 17 59  1  0  0  0  0
 17 60  1  0  0  0  0
 18 19  1  0  0  0  0
 18 20  1  0  0  0  0
 18 61  1  0  0  0  0
 20 23  1  0  0  0  0
 20 24  1  0  0  0  0
 20 62  1  0  0  0  0
 21 25  2  0  0  0  0
 21 26  1  0  0  0  0
 22 28  2  0  0  0  0
 22 29  1  0  0  0  0
 23 66  1  0  0  0  0
 23 67  1  0  0  0  0
 23 68  1  0  0  0  0
 24 69  1  0  0  0  0
 24 70  1  0  0  0  0
 24 71  1  0  0  0  0
 25 31  1  0  0  0  0
 25 72  1  0  0  0  0
 26 32  2  0  0  0  0
 26 73  1  0  0  0  0
 28 34  1  0  0  0  0
 28 74  1  0  0  0  0
 29 35  2  0  0  0  0
 29 75  1  0  0  0  0
 31 33  2  0  0  0  0
 31 76  1  0  0  0  0
 32 33  1  0  0  0  0
 32 77  1  0  0  0  0
 33 78  1  0  0  0  0
 34 36  2  0  0  0  0
 34 79  1  0  0  0  0
 35 36  1  0  0  0  0
 35 80  1  0  0  0  0
 36 81  1  0  0  0  0
 37 40  1  0  0  0  0
 37 82  1  0  0  0  0
 37 83  1  0  0  0  0
 38 84  1  0  0  0  0
 38 85  1  0  0  0  0
 38 86  1  0  0  0  0
 39 41  1  0  0  0  0
 39 87  1  0  0  0  0
 39 88  1  0  0  0  0
 40 42  1  0  0  0  0
 40 43  2  0  0  0  0
 41 44  1  0  0  0  0
 41 46  2  0  0  0  0
 42 45  2  0  0  0  0
 42 89  1  0  0  0  0
 43 90  1  0  0  0  0
 44 48  2  0  0  0  0
 44 91  1  0  0  0  0
 45 47  1  0  0  0  0
 45 92  1  0  0  0  0
 46 93  1  0  0  0  0
 47 49  1  0  0  0  0
 48 50  1  0  0  0  0
 48 94  1  0  0  0  0
 49 95  1  0  0  0  0
 49 96  1  0  0  0  0
 49 97  1  0  0  0  0
 50 98  1  0  0  0  0
M  END
> <PUBCHEM_COMPOUND_CID>
515737
> <PUBCHEM_COMPOUND_CANONICALIZED>
1
> <PUBCHEM_CACTVS_COMPLEXITY>
1020
> <PUBCHEM_CACTVS_HBOND_ACCEPTOR>
7
> <PUBCHEM_CACTVS_HBOND_DONOR>
4
> <PUBCHEM_CACTVS_ROTATABLE_BOND>
17
> <PUBCHEM_CACTVS_SUBSKEYS>
AAADcfB/uAAAAAAAAAAAAAAAAAAAAAAAAAA8eIEAAAAAAAAB9AAAHgAQCAAADTzhngY/iJPIFgCoAzV3XACCgCAxAiAI2KG4bJmKdvLA8bmccAhu1gPY6AeQ0PIOAAAAAAAAAAAAAAAAAAAAAAAAAAAAAA==
> <PUBCHEM_IUPAC_OPENEYE_NAME>
3-pyridylmethyl N-[(1S,3S,4S)-1-benzyl-3-hydroxy-4-[[(2S)-3-methyl-2-[[methyl-[(6-methyl-3-pyridyl)methyl]carbamoyl]amino]butanoyl]amino]-5-phenyl-pentyl]carbamate
> <PUBCHEM_IUPAC_CAS_NAME>
N-[(2S,4S,5S)-4-hydroxy-5-[[(2S)-3-methyl-2-[[[methyl-[(6-methyl-3-pyridinyl)methyl]amino]-oxomethyl]amino]-1-oxobutyl]amino]-1,6-diphenylhexan-2-yl]carbamic acid 3-pyridinylmethyl ester
> <PUBCHEM_IUPAC_NAME_MARKUP>
pyridin-3-ylmethyl <I>N</I>-[(2<I>S</I>,4<I>S</I>,5<I>S</I>)-4-hydroxy-5-[[(2<I>S</I>)-3-methyl-2-[[methyl-[(6-methylpyridin-3-yl)methyl]carbamoyl]amino]butanoyl]amino]-1,6-diphenylhexan-2-yl]carbamate
> <PUBCHEM_IUPAC_NAME>
pyridin-3-ylmethyl N-[(2S,4S,5S)-4-hydroxy-5-[[(2S)-3-methyl-2-[[methyl-[(6-methylpyridin-3-yl)methyl]carbamoyl]amino]butanoyl]amino]-1,6-diphenylhexan-2-yl]carbamate
> <PUBCHEM_IUPAC_SYSTEMATIC_NAME>
pyridin-3-ylmethyl N-[(2S,4S,5S)-5-[[(2S)-3-methyl-2-[[methyl-[(6-methylpyridin-3-yl)methyl]carbamoyl]amino]butanoyl]amino]-4-oxidanyl-1,6-diphenyl-hexan-2-yl]carbamate
> <PUBCHEM_IUPAC_TRADITIONAL_NAME>
N-[(1S,3S,4S)-1-benzyl-3-hydroxy-4-[[(2S)-3-methyl-2-[[methyl-[(6-methyl-3-pyridyl)methyl]carbamoyl]amino]butanoyl]amino]-5-phenyl-pentyl]carbamic acid 3-pyridylmethyl ester
> <PUBCHEM_IUPAC_INCHI>
InChI=1S/C39H48N6O5/c1-27(2)36(44-38(48)45(4)25-31-18-17-28(3)41-24-31)37(47)43-34(21-30-14-9-6-10-15-30)35(46)22-33(20-29-12-7-5-8-13-29)42-39(49)50-26-32-16-11-19-40-23-32/h5-19,23-24,27,33-36,46H,20-22,25-26H2,1-4H3,(H,42,49)(H,43,47)(H,44,48)/t33-,34-,35-,36-/m0/s1
> <PUBCHEM_IUPAC_INCHIKEY>
BUGVUVBZHZLJSV-ZYADHFCISA-N
> <PUBCHEM_XLOGP3_AA>
5
> <PUBCHEM_EXACT_MASS>
680.36861865
> <PUBCHEM_MOLECULAR_FORMULA>
C39H48N6O5
> <PUBCHEM_MOLECULAR_WEIGHT>
680.8
> <PUBCHEM_OPENEYE_CAN_SMILES>
CC1=NC=C(C=C1)CN(C)C(=O)NC(C(C)C)C(=O)NC(CC2=CC=CC=C2)C(CC(CC3=CC=CC=C3)NC(=O)OCC4=CN=CC=C4)O
> <PUBCHEM_OPENEYE_ISO_SMILES>
CC1=NC=C(C=C1)CN(C)C(=O)N[C@@H](C(C)C)C(=O)N[C@@H](CC2=CC=CC=C2)[C@H](C[C@H](CC3=CC=CC=C3)NC(=O)OCC4=CN=CC=C4)O
> <PUBCHEM_CACTVS_TPSA>
146
> <PUBCHEM_MONOISOTOPIC_WEIGHT>
680.36861865
> <PUBCHEM_TOTAL_CHARGE>
0
> <PUBCHEM_HEAVY_ATOM_COUNT>
50
> <PUBCHEM_ATOM_DEF_STEREO_COUNT>
4
> <PUBCHEM_ATOM_UDEF_STEREO_COUNT>
0
> <PUBCHEM_BOND_DEF_STEREO_COUNT>
0
> <PUBCHEM_BOND_UDEF_STEREO_COUNT>
0
> <PUBCHEM_ISOTOPIC_ATOM_COUNT>
0
> <PUBCHEM_COMPONENT_COUNT>
1
> <PUBCHEM_CACTVS_TAUTO_COUNT>
-1
> <PUBCHEM_COORDINATE_TYPE>
1
5
255
> <PUBCHEM_BONDANNOTATIONS>
13  1  6
10  43  8
10  47  8
11  46  8
11  50  8
21  25  8
21  26  8
22  28  8
22  29  8
25  31  8
26  32  8
28  34  8
29  35  8
31  33  8
32  33  8
34  36  8
35  36  8
40  42  8
40  43  8
41  44  8
41  46  8
42  45  8
44  48  8
45  47  8
48  50  8
12  6  6
15  7  5
18  8  5
$$$$
