515725
  -OEChem-10302200282D
100103  0     1  0  0  0  0  0999 V2000
   14.1244    2.5000    0.0000 O   0  0  0  0  0  0  0  0  0  0  0  0
   10.6603    3.5000    0.0000 O   0  0  0  0  0  0  0  0  0  0  0  0
   13.2583   -2.0000    0.0000 O   0  0  0  0  0  0  0  0  0  0  0  0
   12.3923   -0.5000    0.0000 O   0  0  0  0  0  0  0  0  0  0  0  0
    7.1962    2.5000    0.0000 O   0  0  0  0  0  0  0  0  0  0  0  0
    8.0622    1.0000    0.0000 O   0  0  0  0  0  0  0  0  0  0  0  0
   11.5263    2.0000    0.0000 N   0  0  0  0  0  0  0  0  0  0  0  0
   14.1244   -0.5000    0.0000 N   0  0  0  0  0  0  0  0  0  0  0  0
    8.9282    2.5000    0.0000 N   0  0  0  0  0  0  0  0  0  0  0  0
    4.5981    2.0000    0.0000 N   0  0  0  0  0  0  0  0  0  0  0  0
   13.2583   -5.0000    0.0000 N   0  0  0  0  0  0  0  0  0  0  0  0
   12.3923    2.5000    0.0000 C   0  0  2  0  0  0  0  0  0  0  0  0
   13.2583    2.0000    0.0000 C   0  0  2  0  0  0  0  0  0  0  0  0
   13.2583    1.0000    0.0000 C   0  0  0  0  0  0  0  0  0  0  0  0
   14.1244    0.5000    0.0000 C   0  0  2  0  0  0  0  0  0  0  0  0
   12.3923    3.5000    0.0000 C   0  0  0  0  0  0  0  0  0  0  0  0
   14.9904    1.0000    0.0000 C   0  0  0  0  0  0  0  0  0  0  0  0
    9.7942    2.0000    0.0000 C   0  0  2  0  0  0  0  0  0  0  0  0
   10.6603    2.5000    0.0000 C   0  0  0  0  0  0  0  0  0  0  0  0
    9.7942    1.0000    0.0000 C   0  0  0  0  0  0  0  0  0  0  0  0
   13.2583    4.0000    0.0000 C   0  0  0  0  0  0  0  0  0  0  0  0
   15.8564    0.5000    0.0000 C   0  0  0  0  0  0  0  0  0  0  0  0
   10.6603    0.5000    0.0000 C   0  0  0  0  0  0  0  0  0  0  0  0
    8.9282    0.5000    0.0000 C   0  0  0  0  0  0  0  0  0  0  0  0
   13.2583    5.0000    0.0000 C   0  0  0  0  0  0  0  0  0  0  0  0
   14.1244    3.5000    0.0000 C   0  0  0  0  0  0  0  0  0  0  0  0
   13.2583   -1.0000    0.0000 C   0  0  0  0  0  0  0  0  0  0  0  0
   16.7224    1.0000    0.0000 C   0  0  0  0  0  0  0  0  0  0  0  0
   15.8564   -0.5000    0.0000 C   0  0  0  0  0  0  0  0  0  0  0  0
   14.1244    5.5000    0.0000 C   0  0  0  0  0  0  0  0  0  0  0  0
   14.9904    4.0000    0.0000 C   0  0  0  0  0  0  0  0  0  0  0  0
    8.0622    2.0000    0.0000 C   0  0  0  0  0  0  0  0  0  0  0  0
   17.5885    0.5000    0.0000 C   0  0  0  0  0  0  0  0  0  0  0  0
   16.7224   -1.0000    0.0000 C   0  0  0  0  0  0  0  0  0  0  0  0
   14.9904    5.0000    0.0000 C   0  0  0  0  0  0  0  0  0  0  0  0
   17.5885   -0.5000    0.0000 C   0  0  0  0  0  0  0  0  0  0  0  0
   12.3923   -2.5000    0.0000 C   0  0  0  0  0  0  0  0  0  0  0  0
    6.3301    2.0000    0.0000 C   0  0  0  0  0  0  0  0  0  0  0  0
   12.3923   -3.5000    0.0000 C   0  0  0  0  0  0  0  0  0  0  0  0
    5.4641    2.5000    0.0000 C   0  0  0  0  0  0  0  0  0  0  0  0
    2.8660    2.0000    0.0000 C   0  0  0  0  0  0  0  0  0  0  0  0
    3.7320    2.5000    0.0000 C   0  0  0  0  0  0  0  0  0  0  0  0
   11.5263   -4.0000    0.0000 C   0  0  0  0  0  0  0  0  0  0  0  0
   13.2583   -4.0000    0.0000 C   0  0  0  0  0  0  0  0  0  0  0  0
    5.4641    3.5000    0.0000 C   0  0  0  0  0  0  0  0  0  0  0  0
    3.7320    3.5000    0.0000 C   0  0  0  0  0  0  0  0  0  0  0  0
    4.5981    4.0000    0.0000 C   0  0  0  0  0  0  0  0  0  0  0  0
    2.0000    2.5000    0.0000 C   0  0  0  0  0  0  0  0  0  0  0  0
    2.8660    1.0000    0.0000 C   0  0  0  0  0  0  0  0  0  0  0  0
   11.5263   -5.0000    0.0000 C   0  0  0  0  0  0  0  0  0  0  0  0
   12.3923   -5.5000    0.0000 C   0  0  0  0  0  0  0  0  0  0  0  0
   11.8554    2.8100    0.0000 H   0  0  0  0  0  0  0  0  0  0  0  0
   13.7953    1.6900    0.0000 H   0  0  0  0  0  0  0  0  0  0  0  0
   12.6477    1.1077    0.0000 H   0  0  0  0  0  0  0  0  0  0  0  0
   13.0463    0.4174    0.0000 H   0  0  0  0  0  0  0  0  0  0  0  0
   13.5874    0.1900    0.0000 H   0  0  0  0  0  0  0  0  0  0  0  0
   12.1803    4.0826    0.0000 H   0  0  0  0  0  0  0  0  0  0  0  0
   11.7817    3.3923    0.0000 H   0  0  0  0  0  0  0  0  0  0  0  0
   11.5263    1.3800    0.0000 H   0  0  0  0  0  0  0  0  0  0  0  0
   15.3889    1.4750    0.0000 H   0  0  0  0  0  0  0  0  0  0  0  0
   14.5919    1.4750    0.0000 H   0  0  0  0  0  0  0  0  0  0  0  0
    9.7942    2.6200    0.0000 H   0  0  0  0  0  0  0  0  0  0  0  0
    9.2573    1.3100    0.0000 H   0  0  0  0  0  0  0  0  0  0  0  0
   14.6613   -0.8100    0.0000 H   0  0  0  0  0  0  0  0  0  0  0  0
   14.6613    2.1900    0.0000 H   0  0  0  0  0  0  0  0  0  0  0  0
    8.9282    3.1200    0.0000 H   0  0  0  0  0  0  0  0  0  0  0  0
   10.3503   -0.0369    0.0000 H   0  0  0  0  0  0  0  0  0  0  0  0
   11.1972    0.1900    0.0000 H   0  0  0  0  0  0  0  0  0  0  0  0
   10.9703    1.0369    0.0000 H   0  0  0  0  0  0  0  0  0  0  0  0
    8.6182    1.0369    0.0000 H   0  0  0  0  0  0  0  0  0  0  0  0
    8.3913    0.1900    0.0000 H   0  0  0  0  0  0  0  0  0  0  0  0
    9.2382   -0.0369    0.0000 H   0  0  0  0  0  0  0  0  0  0  0  0
   12.7214    5.3100    0.0000 H   0  0  0  0  0  0  0  0  0  0  0  0
   14.1244    2.8800    0.0000 H   0  0  0  0  0  0  0  0  0  0  0  0
   16.7224    1.6200    0.0000 H   0  0  0  0  0  0  0  0  0  0  0  0
   15.3195   -0.8100    0.0000 H   0  0  0  0  0  0  0  0  0  0  0  0
   14.1244    6.1200    0.0000 H   0  0  0  0  0  0  0  0  0  0  0  0
   15.5273    3.6900    0.0000 H   0  0  0  0  0  0  0  0  0  0  0  0
   18.1254    0.8100    0.0000 H   0  0  0  0  0  0  0  0  0  0  0  0
   16.7224   -1.6200    0.0000 H   0  0  0  0  0  0  0  0  0  0  0  0
   15.5273    5.3100    0.0000 H   0  0  0  0  0  0  0  0  0  0  0  0
   18.1254   -0.8100    0.0000 H   0  0  0  0  0  0  0  0  0  0  0  0
   12.1803   -1.9174    0.0000 H   0  0  0  0  0  0  0  0  0  0  0  0
   11.7817   -2.6077    0.0000 H   0  0  0  0  0  0  0  0  0  0  0  0
    5.9316    1.5250    0.0000 H   0  0  0  0  0  0  0  0  0  0  0  0
    6.7287    1.5250    0.0000 H   0  0  0  0  0  0  0  0  0  0  0  0
    2.8660    2.6200    0.0000 H   0  0  0  0  0  0  0  0  0  0  0  0
   10.9893   -3.6900    0.0000 H   0  0  0  0  0  0  0  0  0  0  0  0
    6.0010    3.8100    0.0000 H   0  0  0  0  0  0  0  0  0  0  0  0
   13.7953   -3.6900    0.0000 H   0  0  0  0  0  0  0  0  0  0  0  0
    3.1951    3.8100    0.0000 H   0  0  0  0  0  0  0  0  0  0  0  0
    4.5981    4.6200    0.0000 H   0  0  0  0  0  0  0  0  0  0  0  0
    2.3100    3.0369    0.0000 H   0  0  0  0  0  0  0  0  0  0  0  0
    1.4631    2.8100    0.0000 H   0  0  0  0  0  0  0  0  0  0  0  0
    1.6900    1.9631    0.0000 H   0  0  0  0  0  0  0  0  0  0  0  0
    2.2460    1.0000    0.0000 H   0  0  0  0  0  0  0  0  0  0  0  0
    2.8660    0.3800    0.0000 H   0  0  0  0  0  0  0  0  0  0  0  0
    3.4860    1.0000    0.0000 H   0  0  0  0  0  0  0  0  0  0  0  0
   10.9893   -5.3100    0.0000 H   0  0  0  0  0  0  0  0  0  0  0  0
   12.3923   -6.1200    0.0000 H   0  0  0  0  0  0  0  0  0  0  0  0
 13  1  1  1  0  0  0
  1 65  1  0  0  0  0
  2 19  2  0  0  0  0
  3 27  1  0  0  0  0
  3 37  1  0  0  0  0
  4 27  2  0  0  0  0
  5 32  1  0  0  0  0
  5 38  1  0  0  0  0
  6 32  2  0  0  0  0
 12  7  1  1  0  0  0
  7 19  1  0  0  0  0
  7 59  1  0  0  0  0
 15  8  1  6  0  0  0
  8 27  1  0  0  0  0
  8 64  1  0  0  0  0
 18  9  1  6  0  0  0
  9 32  1  0  0  0  0
  9 66  1  0  0  0  0
 10 40  2  0  0  0  0
 10 42  1  0  0  0  0
 11 44  1  0  0  0  0
 11 51  2  0  0  0  0
 12 13  1  0  0  0  0
 12 16  1  0  0  0  0
 12 52  1  0  0  0  0
 13 14  1  0  0  0  0
 13 53  1  0  0  0  0
 14 15  1  0  0  0  0
 14 54  1  0  0  0  0
 14 55  1  0  0  0  0
 15 17  1  0  0  0  0
 15 56  1  0  0  0  0
 16 21  1  0  0  0  0
 16 57  1  0  0  0  0
 16 58  1  0  0  0  0
 17 22  1  0  0  0  0
 17 60  1  0  0  0  0
 17 61  1  0  0  0  0
 18 19  1  0  0  0  0
 18 20  1  0  0  0  0
 18 62  1  0  0  0  0
 20 23  1  0  0  0  0
 20 24  1  0  0  0  0
 20 63  1  0  0  0  0
 21 25  2  0  0  0  0
 21 26  1  0  0  0  0
 22 28  2  0  0  0  0
 22 29  1  0  0  0  0
 23 67  1  0  0  0  0
 23 68  1  0  0  0  0
 23 69  1  0  0  0  0
 24 70  1  0  0  0  0
 24 71  1  0  0  0  0
 24 72  1  0  0  0  0
 25 30  1  0  0  0  0
 25 73  1  0  0  0  0
 26 31  2  0  0  0  0
 26 74  1  0  0  0  0
 28 33  1  0  0  0  0
 28 75  1  0  0  0  0
 29 34  2  0  0  0  0
 29 76  1  0  0  0  0
 30 35  2  0  0  0  0
 30 77  1  0  0  0  0
 31 35  1  0  0  0  0
 31 78  1  0  0  0  0
 33 36  2  0  0  0  0
 33 79  1  0  0  0  0
 34 36  1  0  0  0  0
 34 80  1  0  0  0  0
 35 81  1  0  0  0  0
 36 82  1  0  0  0  0
 37 39  1  0  0  0  0
 37 83  1  0  0  0  0
 37 84  1  0  0  0  0
 38 40  1  0  0  0  0
 38 85  1  0  0  0  0
 38 86  1  0  0  0  0
 39 43  1  0  0  0  0
 39 44  2  0  0  0  0
 40 45  1  0  0  0  0
 41 42  1  0  0  0  0
 41 48  1  0  0  0  0
 41 49  1  0  0  0  0
 41 87  1  0  0  0  0
 42 46  2  0  0  0  0
 43 50  2  0  0  0  0
 43 88  1  0  0  0  0
 44 90  1  0  0  0  0
 45 47  2  0  0  0  0
 45 89  1  0  0  0  0
 46 47  1  0  0  0  0
 46 91  1  0  0  0  0
 47 92  1  0  0  0  0
 48 93  1  0  0  0  0
 48 94  1  0  0  0  0
 48 95  1  0  0  0  0
 49 96  1  0  0  0  0
 49 97  1  0  0  0  0
 49 98  1  0  0  0  0
 50 51  1  0  0  0  0
 50 99  1  0  0  0  0
 51100  1  0  0  0  0
M  END
> <PUBCHEM_COMPOUND_CID>
515725
> <PUBCHEM_COMPOUND_CANONICALIZED>
1
> <PUBCHEM_CACTVS_COMPLEXITY>
1030
> <PUBCHEM_CACTVS_HBOND_ACCEPTOR>
8
> <PUBCHEM_CACTVS_HBOND_DONOR>
4
> <PUBCHEM_CACTVS_ROTATABLE_BOND>
19
> <PUBCHEM_CACTVS_SUBSKEYS>
AAADcfB/uAAAAAAAAAAAAAAAAAAAAAAAAAA8eIEAAAAAAAAB9AAAHgAQCAAADTzhngY+iJLIFgCoAzV3XASCgCAxAiAI2KG4bJkKdvLAsbmdcAhm1gHY6AeQ0PIOAAAAAAAAAAAAAAAAAAAAAAAAAAAAAA==
> <PUBCHEM_IUPAC_OPENEYE_NAME>
3-pyridylmethyl N-[(1S,3S,4S)-1-benzyl-3-hydroxy-4-[[(2S)-2-[(6-isopropyl-2-pyridyl)methoxycarbonylamino]-3-methyl-butanoyl]amino]-5-phenyl-pentyl]carbamate
> <PUBCHEM_IUPAC_CAS_NAME>
N-[(2S,4S,5S)-4-hydroxy-5-[[(2S)-3-methyl-1-oxo-2-[[oxo-[(6-propan-2-yl-2-pyridinyl)methoxy]methyl]amino]butyl]amino]-1,6-diphenylhexan-2-yl]carbamic acid 3-pyridinylmethyl ester
> <PUBCHEM_IUPAC_NAME_MARKUP>
(6-propan-2-ylpyridin-2-yl)methyl <I>N</I>-[(2<I>S</I>)-1-[[(2<I>S</I>,3<I>S</I>,5<I>S</I>)-3-hydroxy-1,6-diphenyl-5-(pyridin-3-ylmethoxycarbonylamino)hexan-2-yl]amino]-3-methyl-1-oxobutan-2-yl]carbamate
> <PUBCHEM_IUPAC_NAME>
(6-propan-2-ylpyridin-2-yl)methyl N-[(2S)-1-[[(2S,3S,5S)-3-hydroxy-1,6-diphenyl-5-(pyridin-3-ylmethoxycarbonylamino)hexan-2-yl]amino]-3-methyl-1-oxobutan-2-yl]carbamate
> <PUBCHEM_IUPAC_SYSTEMATIC_NAME>
(6-propan-2-ylpyridin-2-yl)methyl N-[(2S)-3-methyl-1-[[(2S,3S,5S)-3-oxidanyl-1,6-diphenyl-5-(pyridin-3-ylmethoxycarbonylamino)hexan-2-yl]amino]-1-oxidanylidene-butan-2-yl]carbamate
> <PUBCHEM_IUPAC_TRADITIONAL_NAME>
N-[(1S,3S,4S)-1-benzyl-3-hydroxy-4-[[(2S)-2-[(6-isopropyl-2-pyridyl)methoxycarbonylamino]-3-methyl-butanoyl]amino]-5-phenyl-pentyl]carbamic acid 3-pyridylmethyl ester
> <PUBCHEM_IUPAC_INCHI>
InChI=1S/C40H49N5O6/c1-27(2)34-19-11-18-32(42-34)26-51-40(49)45-37(28(3)4)38(47)44-35(22-30-15-9-6-10-16-30)36(46)23-33(21-29-13-7-5-8-14-29)43-39(48)50-25-31-17-12-20-41-24-31/h5-20,24,27-28,33,35-37,46H,21-23,25-26H2,1-4H3,(H,43,48)(H,44,47)(H,45,49)/t33-,35-,36-,37-/m0/s1
> <PUBCHEM_IUPAC_INCHIKEY>
BQJOCTUJBNKUHA-ZWYULGIKSA-N
> <PUBCHEM_XLOGP3_AA>
6.2
> <PUBCHEM_EXACT_MASS>
695.36828430
> <PUBCHEM_MOLECULAR_FORMULA>
C40H49N5O6
> <PUBCHEM_MOLECULAR_WEIGHT>
695.8
> <PUBCHEM_OPENEYE_CAN_SMILES>
CC(C)C1=CC=CC(=N1)COC(=O)NC(C(C)C)C(=O)NC(CC2=CC=CC=C2)C(CC(CC3=CC=CC=C3)NC(=O)OCC4=CN=CC=C4)O
> <PUBCHEM_OPENEYE_ISO_SMILES>
CC(C)C1=CC=CC(=N1)COC(=O)N[C@@H](C(C)C)C(=O)N[C@@H](CC2=CC=CC=C2)[C@H](C[C@H](CC3=CC=CC=C3)NC(=O)OCC4=CN=CC=C4)O
> <PUBCHEM_CACTVS_TPSA>
152
> <PUBCHEM_MONOISOTOPIC_WEIGHT>
695.36828430
> <PUBCHEM_TOTAL_CHARGE>
0
> <PUBCHEM_HEAVY_ATOM_COUNT>
51
> <PUBCHEM_ATOM_DEF_STEREO_COUNT>
4
> <PUBCHEM_ATOM_UDEF_STEREO_COUNT>
0
> <PUBCHEM_BOND_DEF_STEREO_COUNT>
0
> <PUBCHEM_BOND_UDEF_STEREO_COUNT>
0
> <PUBCHEM_ISOTOPIC_ATOM_COUNT>
0
> <PUBCHEM_COMPONENT_COUNT>
1
> <PUBCHEM_CACTVS_TAUTO_COUNT>
-1
> <PUBCHEM_COORDINATE_TYPE>
1
5
255
> <PUBCHEM_BONDANNOTATIONS>
13  1  5
10  40  8
10  42  8
11  44  8
11  51  8
21  25  8
21  26  8
22  28  8
22  29  8
25  30  8
26  31  8
28  33  8
29  34  8
30  35  8
31  35  8
33  36  8
34  36  8
39  43  8
39  44  8
40  45  8
42  46  8
43  50  8
45  47  8
46  47  8
50  51  8
12  7  5
15  8  6
18  9  6
$$$$
