515762
  -OEChem-10302200282D
 96 99  0     1  0  0  0  0  0999 V2000
    5.4641    2.5000    0.0000 O   0  0  0  0  0  0  0  0  0  0  0  0
    8.9282    3.5000    0.0000 O   0  0  0  0  0  0  0  0  0  0  0  0
    6.3301   -2.0000    0.0000 O   0  0  0  0  0  0  0  0  0  0  0  0
    7.1962   -0.5000    0.0000 O   0  0  0  0  0  0  0  0  0  0  0  0
   12.3923    2.5000    0.0000 O   0  0  0  0  0  0  0  0  0  0  0  0
   11.5263    1.0000    0.0000 O   0  0  0  0  0  0  0  0  0  0  0  0
    8.0622    2.0000    0.0000 N   0  0  0  0  0  0  0  0  0  0  0  0
    5.4641   -0.5000    0.0000 N   0  0  0  0  0  0  0  0  0  0  0  0
   10.6603    2.5000    0.0000 N   0  0  0  0  0  0  0  0  0  0  0  0
   14.9904    2.0000    0.0000 N   0  0  0  0  0  0  0  0  0  0  0  0
    6.3301   -5.0000    0.0000 N   0  0  0  0  0  0  0  0  0  0  0  0
   14.9904    4.0000    0.0000 N   0  0  0  0  0  0  0  0  0  0  0  0
    7.1962    2.5000    0.0000 C   0  0  2  0  0  0  0  0  0  0  0  0
    6.3301    2.0000    0.0000 C   0  0  2  0  0  0  0  0  0  0  0  0
    6.3301    1.0000    0.0000 C   0  0  0  0  0  0  0  0  0  0  0  0
    5.4641    0.5000    0.0000 C   0  0  2  0  0  0  0  0  0  0  0  0
    7.1962    3.5000    0.0000 C   0  0  0  0  0  0  0  0  0  0  0  0
    4.5981    1.0000    0.0000 C   0  0  0  0  0  0  0  0  0  0  0  0
    9.7942    2.0000    0.0000 C   0  0  2  0  0  0  0  0  0  0  0  0
    8.9282    2.5000    0.0000 C   0  0  0  0  0  0  0  0  0  0  0  0
    9.7942    1.0000    0.0000 C   0  0  0  0  0  0  0  0  0  0  0  0
    6.3301    4.0000    0.0000 C   0  0  0  0  0  0  0  0  0  0  0  0
    3.7320    0.5000    0.0000 C   0  0  0  0  0  0  0  0  0  0  0  0
    8.9282    0.5000    0.0000 C   0  0  0  0  0  0  0  0  0  0  0  0
   10.6603    0.5000    0.0000 C   0  0  0  0  0  0  0  0  0  0  0  0
    5.4641    3.5000    0.0000 C   0  0  0  0  0  0  0  0  0  0  0  0
    6.3301    5.0000    0.0000 C   0  0  0  0  0  0  0  0  0  0  0  0
    6.3301   -1.0000    0.0000 C   0  0  0  0  0  0  0  0  0  0  0  0
    3.7320   -0.5000    0.0000 C   0  0  0  0  0  0  0  0  0  0  0  0
    2.8660    1.0000    0.0000 C   0  0  0  0  0  0  0  0  0  0  0  0
    4.5981    4.0000    0.0000 C   0  0  0  0  0  0  0  0  0  0  0  0
    5.4641    5.5000    0.0000 C   0  0  0  0  0  0  0  0  0  0  0  0
   11.5263    2.0000    0.0000 C   0  0  0  0  0  0  0  0  0  0  0  0
    2.8660   -1.0000    0.0000 C   0  0  0  0  0  0  0  0  0  0  0  0
    2.0000    0.5000    0.0000 C   0  0  0  0  0  0  0  0  0  0  0  0
    4.5981    5.0000    0.0000 C   0  0  0  0  0  0  0  0  0  0  0  0
    2.0000   -0.5000    0.0000 C   0  0  0  0  0  0  0  0  0  0  0  0
    7.1962   -2.5000    0.0000 C   0  0  0  0  0  0  0  0  0  0  0  0
   13.2583    2.0000    0.0000 C   0  0  0  0  0  0  0  0  0  0  0  0
    7.1962   -3.5000    0.0000 C   0  0  0  0  0  0  0  0  0  0  0  0
   14.1244    2.5000    0.0000 C   0  0  0  0  0  0  0  0  0  0  0  0
    8.0622   -4.0000    0.0000 C   0  0  0  0  0  0  0  0  0  0  0  0
    6.3301   -4.0000    0.0000 C   0  0  0  0  0  0  0  0  0  0  0  0
   14.1244    3.5000    0.0000 C   0  0  0  0  0  0  0  0  0  0  0  0
    8.0622   -5.0000    0.0000 C   0  0  0  0  0  0  0  0  0  0  0  0
   15.8564    2.5000    0.0000 C   0  0  0  0  0  0  0  0  0  0  0  0
    7.1962   -5.5000    0.0000 C   0  0  0  0  0  0  0  0  0  0  0  0
   15.8564    3.5000    0.0000 C   0  0  0  0  0  0  0  0  0  0  0  0
   16.7224    2.0000    0.0000 C   0  0  0  0  0  0  0  0  0  0  0  0
   16.7224    4.0000    0.0000 C   0  0  0  0  0  0  0  0  0  0  0  0
    7.7331    2.8100    0.0000 H   0  0  0  0  0  0  0  0  0  0  0  0
    5.7932    1.6900    0.0000 H   0  0  0  0  0  0  0  0  0  0  0  0
    6.5422    0.4174    0.0000 H   0  0  0  0  0  0  0  0  0  0  0  0
    6.9407    1.1077    0.0000 H   0  0  0  0  0  0  0  0  0  0  0  0
    6.0010    0.1900    0.0000 H   0  0  0  0  0  0  0  0  0  0  0  0
    7.8067    3.3923    0.0000 H   0  0  0  0  0  0  0  0  0  0  0  0
    7.4082    4.0826    0.0000 H   0  0  0  0  0  0  0  0  0  0  0  0
    8.0622    1.3800    0.0000 H   0  0  0  0  0  0  0  0  0  0  0  0
    4.9966    1.4750    0.0000 H   0  0  0  0  0  0  0  0  0  0  0  0
    4.1996    1.4750    0.0000 H   0  0  0  0  0  0  0  0  0  0  0  0
    9.7942    2.6200    0.0000 H   0  0  0  0  0  0  0  0  0  0  0  0
    9.2573    1.3100    0.0000 H   0  0  0  0  0  0  0  0  0  0  0  0
    4.9272   -0.8100    0.0000 H   0  0  0  0  0  0  0  0  0  0  0  0
    4.9272    2.1900    0.0000 H   0  0  0  0  0  0  0  0  0  0  0  0
   10.6603    3.1200    0.0000 H   0  0  0  0  0  0  0  0  0  0  0  0
    8.6182    1.0369    0.0000 H   0  0  0  0  0  0  0  0  0  0  0  0
    8.3913    0.1900    0.0000 H   0  0  0  0  0  0  0  0  0  0  0  0
    9.2382   -0.0369    0.0000 H   0  0  0  0  0  0  0  0  0  0  0  0
   10.3503   -0.0369    0.0000 H   0  0  0  0  0  0  0  0  0  0  0  0
   11.1972    0.1900    0.0000 H   0  0  0  0  0  0  0  0  0  0  0  0
   10.9703    1.0369    0.0000 H   0  0  0  0  0  0  0  0  0  0  0  0
    5.4641    2.8800    0.0000 H   0  0  0  0  0  0  0  0  0  0  0  0
    6.8671    5.3100    0.0000 H   0  0  0  0  0  0  0  0  0  0  0  0
    4.2690   -0.8100    0.0000 H   0  0  0  0  0  0  0  0  0  0  0  0
    2.8660    1.6200    0.0000 H   0  0  0  0  0  0  0  0  0  0  0  0
    4.0611    3.6900    0.0000 H   0  0  0  0  0  0  0  0  0  0  0  0
    5.4641    6.1200    0.0000 H   0  0  0  0  0  0  0  0  0  0  0  0
    2.8660   -1.6200    0.0000 H   0  0  0  0  0  0  0  0  0  0  0  0
    1.4631    0.8100    0.0000 H   0  0  0  0  0  0  0  0  0  0  0  0
    4.0611    5.3100    0.0000 H   0  0  0  0  0  0  0  0  0  0  0  0
    1.4631   -0.8100    0.0000 H   0  0  0  0  0  0  0  0  0  0  0  0
    7.8067   -2.6077    0.0000 H   0  0  0  0  0  0  0  0  0  0  0  0
    7.4082   -1.9174    0.0000 H   0  0  0  0  0  0  0  0  0  0  0  0
   12.8598    1.5250    0.0000 H   0  0  0  0  0  0  0  0  0  0  0  0
   13.6569    1.5250    0.0000 H   0  0  0  0  0  0  0  0  0  0  0  0
    8.5991   -3.6900    0.0000 H   0  0  0  0  0  0  0  0  0  0  0  0
    5.7932   -3.6900    0.0000 H   0  0  0  0  0  0  0  0  0  0  0  0
   13.5874    3.8100    0.0000 H   0  0  0  0  0  0  0  0  0  0  0  0
    8.5991   -5.3100    0.0000 H   0  0  0  0  0  0  0  0  0  0  0  0
    7.1962   -6.1200    0.0000 H   0  0  0  0  0  0  0  0  0  0  0  0
   16.4124    1.4631    0.0000 H   0  0  0  0  0  0  0  0  0  0  0  0
   17.2594    1.6900    0.0000 H   0  0  0  0  0  0  0  0  0  0  0  0
   17.0324    2.5369    0.0000 H   0  0  0  0  0  0  0  0  0  0  0  0
   17.0324    3.4631    0.0000 H   0  0  0  0  0  0  0  0  0  0  0  0
   17.2594    4.3100    0.0000 H   0  0  0  0  0  0  0  0  0  0  0  0
   16.4124    4.5369    0.0000 H   0  0  0  0  0  0  0  0  0  0  0  0
 14  1  1  6  0  0  0
  1 64  1  0  0  0  0
  2 20  2  0  0  0  0
  3 28  1  0  0  0  0
  3 38  1  0  0  0  0
  4 28  2  0  0  0  0
  5 33  1  0  0  0  0
  5 39  1  0  0  0  0
  6 33  2  0  0  0  0
 13  7  1  6  0  0  0
  7 20  1  0  0  0  0
  7 58  1  0  0  0  0
 16  8  1  1  0  0  0
  8 28  1  0  0  0  0
  8 63  1  0  0  0  0
 19  9  1  1  0  0  0
  9 33  1  0  0  0  0
  9 65  1  0  0  0  0
 10 41  1  0  0  0  0
 10 46  2  0  0  0  0
 11 43  1  0  0  0  0
 11 47  2  0  0  0  0
 12 44  1  0  0  0  0
 12 48  2  0  0  0  0
 13 14  1  0  0  0  0
 13 17  1  0  0  0  0
 13 51  1  0  0  0  0
 14 15  1  0  0  0  0
 14 52  1  0  0  0  0
 15 16  1  0  0  0  0
 15 53  1  0  0  0  0
 15 54  1  0  0  0  0
 16 18  1  0  0  0  0
 16 55  1  0  0  0  0
 17 22  1  0  0  0  0
 17 56  1  0  0  0  0
 17 57  1  0  0  0  0
 18 23  1  0  0  0  0
 18 59  1  0  0  0  0
 18 60  1  0  0  0  0
 19 20  1  0  0  0  0
 19 21  1  0  0  0  0
 19 61  1  0  0  0  0
 21 24  1  0  0  0  0
 21 25  1  0  0  0  0
 21 62  1  0  0  0  0
 22 26  2  0  0  0  0
 22 27  1  0  0  0  0
 23 29  2  0  0  0  0
 23 30  1  0  0  0  0
 24 66  1  0  0  0  0
 24 67  1  0  0  0  0
 24 68  1  0  0  0  0
 25 69  1  0  0  0  0
 25 70  1  0  0  0  0
 25 71  1  0  0  0  0
 26 31  1  0  0  0  0
 26 72  1  0  0  0  0
 27 32  2  0  0  0  0
 27 73  1  0  0  0  0
 29 34  1  0  0  0  0
 29 74  1  0  0  0  0
 30 35  2  0  0  0  0
 30 75  1  0  0  0  0
 31 36  2  0  0  0  0
 31 76  1  0  0  0  0
 32 36  1  0  0  0  0
 32 77  1  0  0  0  0
 34 37  2  0  0  0  0
 34 78  1  0  0  0  0
 35 37  1  0  0  0  0
 35 79  1  0  0  0  0
 36 80  1  0  0  0  0
 37 81  1  0  0  0  0
 38 40  1  0  0  0  0
 38 82  1  0  0  0  0
 38 83  1  0  0  0  0
 39 41  1  0  0  0  0
 39 84  1  0  0  0  0
 39 85  1  0  0  0  0
 40 42  1  0  0  0  0
 40 43  2  0  0  0  0
 41 44  2  0  0  0  0
 42 45  2  0  0  0  0
 42 86  1  0  0  0  0
 43 87  1  0  0  0  0
 44 88  1  0  0  0  0
 45 47  1  0  0  0  0
 45 89  1  0  0  0  0
 46 48  1  0  0  0  0
 46 49  1  0  0  0  0
 47 90  1  0  0  0  0
 48 50  1  0  0  0  0
 49 91  1  0  0  0  0
 49 92  1  0  0  0  0
 49 93  1  0  0  0  0
 50 94  1  0  0  0  0
 50 95  1  0  0  0  0
 50 96  1  0  0  0  0
M  END
> <PUBCHEM_COMPOUND_CID>
515762
> <PUBCHEM_COMPOUND_CANONICALIZED>
1
> <PUBCHEM_CACTVS_COMPLEXITY>
1020
> <PUBCHEM_CACTVS_HBOND_ACCEPTOR>
9
> <PUBCHEM_CACTVS_HBOND_DONOR>
4
> <PUBCHEM_CACTVS_ROTATABLE_BOND>
18
> <PUBCHEM_CACTVS_SUBSKEYS>
AAADcfB/uAAAAAAAAAAAAAAAAAAAAAAAAAA8eIEAAAAAAAAB9AAAHgAQCAAADTzhngY+iJLIFgCoAzV3XASCgCQxEiAI2KG4fJkKdvLAsbmdcAhm1gHY6AeQ0PIOAAAAAAAAAAAAAAAAAAAAAAAAAAAAAA==
> <PUBCHEM_IUPAC_OPENEYE_NAME>
3-pyridylmethyl N-[(1S,3S,4S)-1-benzyl-4-[[(2S)-2-[(5,6-dimethylpyrazin-2-yl)methoxycarbonylamino]-3-methyl-butanoyl]amino]-3-hydroxy-5-phenyl-pentyl]carbamate
> <PUBCHEM_IUPAC_CAS_NAME>
N-[(2S,4S,5S)-5-[[(2S)-2-[[(5,6-dimethyl-2-pyrazinyl)methoxy-oxomethyl]amino]-3-methyl-1-oxobutyl]amino]-4-hydroxy-1,6-diphenylhexan-2-yl]carbamic acid 3-pyridinylmethyl ester
> <PUBCHEM_IUPAC_NAME_MARKUP>
pyridin-3-ylmethyl <I>N</I>-[(2<I>S</I>,4<I>S</I>,5<I>S</I>)-5-[[(2<I>S</I>)-2-[(5,6-dimethylpyrazin-2-yl)methoxycarbonylamino]-3-methylbutanoyl]amino]-4-hydroxy-1,6-diphenylhexan-2-yl]carbamate
> <PUBCHEM_IUPAC_NAME>
pyridin-3-ylmethyl N-[(2S,4S,5S)-5-[[(2S)-2-[(5,6-dimethylpyrazin-2-yl)methoxycarbonylamino]-3-methylbutanoyl]amino]-4-hydroxy-1,6-diphenylhexan-2-yl]carbamate
> <PUBCHEM_IUPAC_SYSTEMATIC_NAME>
pyridin-3-ylmethyl N-[(2S,4S,5S)-5-[[(2S)-2-[(5,6-dimethylpyrazin-2-yl)methoxycarbonylamino]-3-methyl-butanoyl]amino]-4-oxidanyl-1,6-diphenyl-hexan-2-yl]carbamate
> <PUBCHEM_IUPAC_TRADITIONAL_NAME>
N-[(1S,3S,4S)-1-benzyl-4-[[(2S)-2-[(5,6-dimethylpyrazin-2-yl)methoxycarbonylamino]-3-methyl-butanoyl]amino]-3-hydroxy-5-phenyl-pentyl]carbamic acid 3-pyridylmethyl ester
> <PUBCHEM_IUPAC_INCHI>
InChI=1S/C38H46N6O6/c1-25(2)35(44-38(48)50-24-32-22-40-26(3)27(4)41-32)36(46)43-33(19-29-14-9-6-10-15-29)34(45)20-31(18-28-12-7-5-8-13-28)42-37(47)49-23-30-16-11-17-39-21-30/h5-17,21-22,25,31,33-35,45H,18-20,23-24H2,1-4H3,(H,42,47)(H,43,46)(H,44,48)/t31-,33-,34-,35-/m0/s1
> <PUBCHEM_IUPAC_INCHIKEY>
USNVWKQEPROELL-OZFLXDGESA-N
> <PUBCHEM_XLOGP3_AA>
4.8
> <PUBCHEM_EXACT_MASS>
682.34788321
> <PUBCHEM_MOLECULAR_FORMULA>
C38H46N6O6
> <PUBCHEM_MOLECULAR_WEIGHT>
682.8
> <PUBCHEM_OPENEYE_CAN_SMILES>
CC1=NC=C(N=C1C)COC(=O)NC(C(C)C)C(=O)NC(CC2=CC=CC=C2)C(CC(CC3=CC=CC=C3)NC(=O)OCC4=CN=CC=C4)O
> <PUBCHEM_OPENEYE_ISO_SMILES>
CC1=NC=C(N=C1C)COC(=O)N[C@@H](C(C)C)C(=O)N[C@@H](CC2=CC=CC=C2)[C@H](C[C@H](CC3=CC=CC=C3)NC(=O)OCC4=CN=CC=C4)O
> <PUBCHEM_CACTVS_TPSA>
165
> <PUBCHEM_MONOISOTOPIC_WEIGHT>
682.34788321
> <PUBCHEM_TOTAL_CHARGE>
0
> <PUBCHEM_HEAVY_ATOM_COUNT>
50
> <PUBCHEM_ATOM_DEF_STEREO_COUNT>
4
> <PUBCHEM_ATOM_UDEF_STEREO_COUNT>
0
> <PUBCHEM_BOND_DEF_STEREO_COUNT>
0
> <PUBCHEM_BOND_UDEF_STEREO_COUNT>
0
> <PUBCHEM_ISOTOPIC_ATOM_COUNT>
0
> <PUBCHEM_COMPONENT_COUNT>
1
> <PUBCHEM_CACTVS_TAUTO_COUNT>
-1
> <PUBCHEM_COORDINATE_TYPE>
1
5
255
> <PUBCHEM_BONDANNOTATIONS>
14  1  6
10  41  8
10  46  8
11  43  8
11  47  8
12  44  8
12  48  8
22  26  8
22  27  8
23  29  8
23  30  8
26  31  8
27  32  8
29  34  8
30  35  8
31  36  8
32  36  8
34  37  8
35  37  8
40  42  8
40  43  8
41  44  8
42  45  8
45  47  8
46  48  8
13  7  6
16  8  5
19  9  5
$$$$
