515786
  -OEChem-10302200282D
 99102  0     1  0  0  0  0  0999 V2000
    8.2788    5.3512    0.0000 S   0  0  0  0  0  0  0  0  0  0  0  0
    4.5981   -3.3512    0.0000 O   0  0  0  0  0  0  0  0  0  0  0  0
    5.4641   -0.8512    0.0000 O   0  0  0  0  0  0  0  0  0  0  0  0
    8.0622   -0.3512    0.0000 O   0  0  0  0  0  0  0  0  0  0  0  0
    6.3301   -0.3512    0.0000 O   0  0  0  0  0  0  0  0  0  0  0  0
    4.5981    2.6488    0.0000 O   0  0  0  0  0  0  0  0  0  0  0  0
   10.3611    5.1897    0.0000 O   0  0  0  0  0  0  0  0  0  0  0  0
    3.7320   -0.8512    0.0000 N   0  0  0  0  0  0  0  0  0  0  0  0
    7.1962   -1.8512    0.0000 N   0  0  0  0  0  0  0  0  0  0  0  0
    5.4641    1.1488    0.0000 N   0  0  0  0  0  0  0  0  0  0  0  0
    6.3301    2.6488    0.0000 N   0  0  0  0  0  0  0  0  0  0  0  0
    8.1097    3.7420    0.0000 N   0  0  0  0  0  0  0  0  0  0  0  0
   11.5263   -0.3512    0.0000 N   0  0  0  0  0  0  0  0  0  0  0  0
    3.7320   -1.8512    0.0000 C   0  0  2  0  0  0  0  0  0  0  0  0
    4.5981   -2.3512    0.0000 C   0  0  2  0  0  0  0  0  0  0  0  0
    5.4641   -1.8512    0.0000 C   0  0  0  0  0  0  0  0  0  0  0  0
    6.3301   -2.3512    0.0000 C   0  0  2  0  0  0  0  0  0  0  0  0
    2.8660   -2.3512    0.0000 C   0  0  0  0  0  0  0  0  0  0  0  0
    6.3301   -3.3512    0.0000 C   0  0  0  0  0  0  0  0  0  0  0  0
    4.5981    0.6488    0.0000 C   0  0  2  0  0  0  0  0  0  0  0  0
    4.5981   -0.3512    0.0000 C   0  0  0  0  0  0  0  0  0  0  0  0
    3.7320    1.1488    0.0000 C   0  0  0  0  0  0  0  0  0  0  0  0
    2.8660   -3.3512    0.0000 C   0  0  0  0  0  0  0  0  0  0  0  0
    7.1962   -3.8512    0.0000 C   0  0  0  0  0  0  0  0  0  0  0  0
    3.7320    2.1488    0.0000 C   0  0  0  0  0  0  0  0  0  0  0  0
    2.8660    0.6488    0.0000 C   0  0  0  0  0  0  0  0  0  0  0  0
    3.7320   -3.8512    0.0000 C   0  0  0  0  0  0  0  0  0  0  0  0
    2.0000   -3.8512    0.0000 C   0  0  0  0  0  0  0  0  0  0  0  0
    7.1962   -0.8512    0.0000 C   0  0  0  0  0  0  0  0  0  0  0  0
    8.0622   -3.3512    0.0000 C   0  0  0  0  0  0  0  0  0  0  0  0
    7.1962   -4.8512    0.0000 C   0  0  0  0  0  0  0  0  0  0  0  0
    5.4641    2.1488    0.0000 C   0  0  0  0  0  0  0  0  0  0  0  0
    3.7320   -4.8512    0.0000 C   0  0  0  0  0  0  0  0  0  0  0  0
    2.0000   -4.8512    0.0000 C   0  0  0  0  0  0  0  0  0  0  0  0
    2.8660   -5.3512    0.0000 C   0  0  0  0  0  0  0  0  0  0  0  0
    8.9282   -3.8512    0.0000 C   0  0  0  0  0  0  0  0  0  0  0  0
    8.0622   -5.3512    0.0000 C   0  0  0  0  0  0  0  0  0  0  0  0
    8.9282   -4.8512    0.0000 C   0  0  0  0  0  0  0  0  0  0  0  0
    6.3301    3.6488    0.0000 C   0  0  0  0  0  0  0  0  0  0  0  0
    7.1962    2.1488    0.0000 C   0  0  0  0  0  0  0  0  0  0  0  0
    8.9282   -0.8512    0.0000 C   0  0  0  0  0  0  0  0  0  0  0  0
    7.1962    4.1488    0.0000 C   0  0  0  0  0  0  0  0  0  0  0  0
    9.7942   -0.3512    0.0000 C   0  0  0  0  0  0  0  0  0  0  0  0
    7.3007    5.1433    0.0000 C   0  0  0  0  0  0  0  0  0  0  0  0
    9.7942    0.6488    0.0000 C   0  0  0  0  0  0  0  0  0  0  0  0
    8.7788    4.4852    0.0000 C   0  0  0  0  0  0  0  0  0  0  0  0
   10.6603   -0.8512    0.0000 C   0  0  0  0  0  0  0  0  0  0  0  0
    9.7734    4.3807    0.0000 C   0  0  0  0  0  0  0  0  0  0  0  0
   10.6603    1.1488    0.0000 C   0  0  0  0  0  0  0  0  0  0  0  0
   11.5263    0.6488    0.0000 C   0  0  0  0  0  0  0  0  0  0  0  0
   11.3557    5.0851    0.0000 C   0  0  0  0  0  0  0  0  0  0  0  0
    4.2690   -1.5412    0.0000 H   0  0  0  0  0  0  0  0  0  0  0  0
    5.1350   -2.6612    0.0000 H   0  0  0  0  0  0  0  0  0  0  0  0
    5.8626   -1.3763    0.0000 H   0  0  0  0  0  0  0  0  0  0  0  0
    5.0656   -1.3763    0.0000 H   0  0  0  0  0  0  0  0  0  0  0  0
    6.8671   -2.6612    0.0000 H   0  0  0  0  0  0  0  0  0  0  0  0
    2.6540   -1.7686    0.0000 H   0  0  0  0  0  0  0  0  0  0  0  0
    2.2554   -2.4589    0.0000 H   0  0  0  0  0  0  0  0  0  0  0  0
    3.1951   -0.5412    0.0000 H   0  0  0  0  0  0  0  0  0  0  0  0
    5.7196   -3.2436    0.0000 H   0  0  0  0  0  0  0  0  0  0  0  0
    6.1181   -3.9338    0.0000 H   0  0  0  0  0  0  0  0  0  0  0  0
    4.5981    1.2688    0.0000 H   0  0  0  0  0  0  0  0  0  0  0  0
    3.7320    0.5288    0.0000 H   0  0  0  0  0  0  0  0  0  0  0  0
    7.7331   -2.1612    0.0000 H   0  0  0  0  0  0  0  0  0  0  0  0
    5.1350   -3.6612    0.0000 H   0  0  0  0  0  0  0  0  0  0  0  0
    6.0010    0.8388    0.0000 H   0  0  0  0  0  0  0  0  0  0  0  0
    4.3520    2.1488    0.0000 H   0  0  0  0  0  0  0  0  0  0  0  0
    3.7320    2.7688    0.0000 H   0  0  0  0  0  0  0  0  0  0  0  0
    3.1120    2.1488    0.0000 H   0  0  0  0  0  0  0  0  0  0  0  0
    2.5560    1.1857    0.0000 H   0  0  0  0  0  0  0  0  0  0  0  0
    2.3291    0.3388    0.0000 H   0  0  0  0  0  0  0  0  0  0  0  0
    3.1760    0.1118    0.0000 H   0  0  0  0  0  0  0  0  0  0  0  0
    4.2690   -3.5412    0.0000 H   0  0  0  0  0  0  0  0  0  0  0  0
    1.4631   -3.5412    0.0000 H   0  0  0  0  0  0  0  0  0  0  0  0
    8.0622   -2.7312    0.0000 H   0  0  0  0  0  0  0  0  0  0  0  0
    6.6592   -5.1612    0.0000 H   0  0  0  0  0  0  0  0  0  0  0  0
    4.2690   -5.1612    0.0000 H   0  0  0  0  0  0  0  0  0  0  0  0
    1.4631   -5.1612    0.0000 H   0  0  0  0  0  0  0  0  0  0  0  0
    2.8660   -5.9712    0.0000 H   0  0  0  0  0  0  0  0  0  0  0  0
    9.4651   -3.5412    0.0000 H   0  0  0  0  0  0  0  0  0  0  0  0
    8.0622   -5.9712    0.0000 H   0  0  0  0  0  0  0  0  0  0  0  0
    9.4651   -5.1612    0.0000 H   0  0  0  0  0  0  0  0  0  0  0  0
    6.1181    4.2314    0.0000 H   0  0  0  0  0  0  0  0  0  0  0  0
    5.7196    3.5411    0.0000 H   0  0  0  0  0  0  0  0  0  0  0  0
    6.8862    1.6118    0.0000 H   0  0  0  0  0  0  0  0  0  0  0  0
    7.7331    1.8388    0.0000 H   0  0  0  0  0  0  0  0  0  0  0  0
    7.5062    2.6857    0.0000 H   0  0  0  0  0  0  0  0  0  0  0  0
    8.5297   -1.3262    0.0000 H   0  0  0  0  0  0  0  0  0  0  0  0
    9.3267   -1.3262    0.0000 H   0  0  0  0  0  0  0  0  0  0  0  0
    6.8399    5.5582    0.0000 H   0  0  0  0  0  0  0  0  0  0  0  0
    9.2573    0.9588    0.0000 H   0  0  0  0  0  0  0  0  0  0  0  0
   10.6603   -1.4712    0.0000 H   0  0  0  0  0  0  0  0  0  0  0  0
    9.6025    3.7847    0.0000 H   0  0  0  0  0  0  0  0  0  0  0  0
   10.3306    4.1089    0.0000 H   0  0  0  0  0  0  0  0  0  0  0  0
   10.6603    1.7688    0.0000 H   0  0  0  0  0  0  0  0  0  0  0  0
   12.0632    0.9588    0.0000 H   0  0  0  0  0  0  0  0  0  0  0  0
   11.2908    4.4685    0.0000 H   0  0  0  0  0  0  0  0  0  0  0  0
   11.9723    5.0203    0.0000 H   0  0  0  0  0  0  0  0  0  0  0  0
   11.4205    5.7018    0.0000 H   0  0  0  0  0  0  0  0  0  0  0  0
  1 44  1  0  0  0  0
  1 46  1  0  0  0  0
 15  2  1  6  0  0  0
  2 65  1  0  0  0  0
  3 21  2  0  0  0  0
  4 29  1  0  0  0  0
  4 41  1  0  0  0  0
  5 29  2  0  0  0  0
  6 32  2  0  0  0  0
  7 48  1  0  0  0  0
  7 51  1  0  0  0  0
 14  8  1  6  0  0  0
  8 21  1  0  0  0  0
  8 59  1  0  0  0  0
 17  9  1  1  0  0  0
  9 29  1  0  0  0  0
  9 64  1  0  0  0  0
 20 10  1  6  0  0  0
 10 32  1  0  0  0  0
 10 66  1  0  0  0  0
 11 32  1  0  0  0  0
 11 39  1  0  0  0  0
 11 40  1  0  0  0  0
 12 42  1  0  0  0  0
 12 46  2  0  0  0  0
 13 47  1  0  0  0  0
 13 50  2  0  0  0  0
 14 15  1  0  0  0  0
 14 18  1  0  0  0  0
 14 52  1  0  0  0  0
 15 16  1  0  0  0  0
 15 53  1  0  0  0  0
 16 17  1  0  0  0  0
 16 54  1  0  0  0  0
 16 55  1  0  0  0  0
 17 19  1  0  0  0  0
 17 56  1  0  0  0  0
 18 23  1  0  0  0  0
 18 57  1  0  0  0  0
 18 58  1  0  0  0  0
 19 24  1  0  0  0  0
 19 60  1  0  0  0  0
 19 61  1  0  0  0  0
 20 21  1  0  0  0  0
 20 22  1  0  0  0  0
 20 62  1  0  0  0  0
 22 25  1  0  0  0  0
 22 26  1  0  0  0  0
 22 63  1  0  0  0  0
 23 27  2  0  0  0  0
 23 28  1  0  0  0  0
 24 30  2  0  0  0  0
 24 31  1  0  0  0  0
 25 67  1  0  0  0  0
 25 68  1  0  0  0  0
 25 69  1  0  0  0  0
 26 70  1  0  0  0  0
 26 71  1  0  0  0  0
 26 72  1  0  0  0  0
 27 33  1  0  0  0  0
 27 73  1  0  0  0  0
 28 34  2  0  0  0  0
 28 74  1  0  0  0  0
 30 36  1  0  0  0  0
 30 75  1  0  0  0  0
 31 37  2  0  0  0  0
 31 76  1  0  0  0  0
 33 35  2  0  0  0  0
 33 77  1  0  0  0  0
 34 35  1  0  0  0  0
 34 78  1  0  0  0  0
 35 79  1  0  0  0  0
 36 38  2  0  0  0  0
 36 80  1  0  0  0  0
 37 38  1  0  0  0  0
 37 81  1  0  0  0  0
 38 82  1  0  0  0  0
 39 42  1  0  0  0  0
 39 83  1  0  0  0  0
 39 84  1  0  0  0  0
 40 85  1  0  0  0  0
 40 86  1  0  0  0  0
 40 87  1  0  0  0  0
 41 43  1  0  0  0  0
 41 88  1  0  0  0  0
 41 89  1  0  0  0  0
 42 44  2  0  0  0  0
 43 45  1  0  0  0  0
 43 47  2  0  0  0  0
 44 90  1  0  0  0  0
 45 49  2  0  0  0  0
 45 91  1  0  0  0  0
 46 48  1  0  0  0  0
 47 92  1  0  0  0  0
 48 93  1  0  0  0  0
 48 94  1  0  0  0  0
 49 50  1  0  0  0  0
 49 95  1  0  0  0  0
 50 96  1  0  0  0  0
 51 97  1  0  0  0  0
 51 98  1  0  0  0  0
 51 99  1  0  0  0  0
M  END
> <PUBCHEM_COMPOUND_CID>
515786
> <PUBCHEM_COMPOUND_CANONICALIZED>
1
> <PUBCHEM_CACTVS_COMPLEXITY>
1040
> <PUBCHEM_CACTVS_HBOND_ACCEPTOR>
9
> <PUBCHEM_CACTVS_HBOND_DONOR>
4
> <PUBCHEM_CACTVS_ROTATABLE_BOND>
19
> <PUBCHEM_CACTVS_SUBSKEYS>
AAADcfB/uABAAAAAAAAAAAAAAAAAAWAAAAA8YIAAAAAAAAAB9AAAHgQQCAAADTzl3ga/iZPIFgisAzV3XASC8KBxCjgI2LW4bJmKdvLgsbmdcAhu1gP46AeQ0PIOAAAAAAAAAAAAAAAAAAAAAAAAAAAAAA==
> <PUBCHEM_IUPAC_OPENEYE_NAME>
3-pyridylmethyl N-[(1S,3S,4S)-1-benzyl-3-hydroxy-4-[[(2S)-2-[[[2-(methoxymethyl)thiazol-4-yl]methyl-methyl-carbamoyl]amino]-3-methyl-butanoyl]amino]-5-phenyl-pentyl]carbamate
> <PUBCHEM_IUPAC_CAS_NAME>
N-[(2S,4S,5S)-4-hydroxy-5-[[(2S)-2-[[[[2-(methoxymethyl)-4-thiazolyl]methyl-methylamino]-oxomethyl]amino]-3-methyl-1-oxobutyl]amino]-1,6-diphenylhexan-2-yl]carbamic acid 3-pyridinylmethyl ester
> <PUBCHEM_IUPAC_NAME_MARKUP>
pyridin-3-ylmethyl <I>N</I>-[(2<I>S</I>,4<I>S</I>,5<I>S</I>)-4-hydroxy-5-[[(2<I>S</I>)-2-[[[2-(methoxymethyl)-1,3-thiazol-4-yl]methyl-methylcarbamoyl]amino]-3-methylbutanoyl]amino]-1,6-diphenylhexan-2-yl]carbamate
> <PUBCHEM_IUPAC_NAME>
pyridin-3-ylmethyl N-[(2S,4S,5S)-4-hydroxy-5-[[(2S)-2-[[[2-(methoxymethyl)-1,3-thiazol-4-yl]methyl-methylcarbamoyl]amino]-3-methylbutanoyl]amino]-1,6-diphenylhexan-2-yl]carbamate
> <PUBCHEM_IUPAC_SYSTEMATIC_NAME>
pyridin-3-ylmethyl N-[(2S,4S,5S)-5-[[(2S)-2-[[[2-(methoxymethyl)-1,3-thiazol-4-yl]methyl-methyl-carbamoyl]amino]-3-methyl-butanoyl]amino]-4-oxidanyl-1,6-diphenyl-hexan-2-yl]carbamate
> <PUBCHEM_IUPAC_TRADITIONAL_NAME>
N-[(1S,3S,4S)-1-benzyl-3-hydroxy-4-[[(2S)-2-[[[2-(methoxymethyl)thiazol-4-yl]methyl-methyl-carbamoyl]amino]-3-methyl-butanoyl]amino]-5-phenyl-pentyl]carbamic acid 3-pyridylmethyl ester
> <PUBCHEM_IUPAC_INCHI>
InChI=1S/C38H48N6O6S/c1-26(2)35(43-37(47)44(3)22-31-25-51-34(40-31)24-49-4)36(46)42-32(19-28-14-9-6-10-15-28)33(45)20-30(18-27-12-7-5-8-13-27)41-38(48)50-23-29-16-11-17-39-21-29/h5-17,21,25-26,30,32-33,35,45H,18-20,22-24H2,1-4H3,(H,41,48)(H,42,46)(H,43,47)/t30-,32-,33-,35-/m0/s1
> <PUBCHEM_IUPAC_INCHIKEY>
RNFFKOJVOXBXQJ-GCWKJIDRSA-N
> <PUBCHEM_XLOGP3_AA>
4.4
> <PUBCHEM_EXACT_MASS>
716.33560445
> <PUBCHEM_MOLECULAR_FORMULA>
C38H48N6O6S
> <PUBCHEM_MOLECULAR_WEIGHT>
716.9
> <PUBCHEM_OPENEYE_CAN_SMILES>
CC(C)C(C(=O)NC(CC1=CC=CC=C1)C(CC(CC2=CC=CC=C2)NC(=O)OCC3=CN=CC=C3)O)NC(=O)N(C)CC4=CSC(=N4)COC
> <PUBCHEM_OPENEYE_ISO_SMILES>
CC(C)[C@@H](C(=O)N[C@@H](CC1=CC=CC=C1)[C@H](C[C@H](CC2=CC=CC=C2)NC(=O)OCC3=CN=CC=C3)O)NC(=O)N(C)CC4=CSC(=N4)COC
> <PUBCHEM_CACTVS_TPSA>
183
> <PUBCHEM_MONOISOTOPIC_WEIGHT>
716.33560445
> <PUBCHEM_TOTAL_CHARGE>
0
> <PUBCHEM_HEAVY_ATOM_COUNT>
51
> <PUBCHEM_ATOM_DEF_STEREO_COUNT>
4
> <PUBCHEM_ATOM_UDEF_STEREO_COUNT>
0
> <PUBCHEM_BOND_DEF_STEREO_COUNT>
0
> <PUBCHEM_BOND_UDEF_STEREO_COUNT>
0
> <PUBCHEM_ISOTOPIC_ATOM_COUNT>
0
> <PUBCHEM_COMPONENT_COUNT>
1
> <PUBCHEM_CACTVS_TAUTO_COUNT>
-1
> <PUBCHEM_COORDINATE_TYPE>
1
5
255
> <PUBCHEM_BONDANNOTATIONS>
1  44  8
1  46  8
20  10  6
12  42  8
12  46  8
13  47  8
13  50  8
15  2  6
23  27  8
23  28  8
24  30  8
24  31  8
27  33  8
28  34  8
30  36  8
31  37  8
33  35  8
34  35  8
36  38  8
37  38  8
42  44  8
43  45  8
43  47  8
45  49  8
49  50  8
14  8  6
17  9  5
$$$$
