515743
  -OEChem-10302200282D
 99102  0     1  0  0  0  0  0999 V2000
    7.1962    0.5000    0.0000 O   0  0  0  0  0  0  0  0  0  0  0  0
    8.9282    3.5000    0.0000 O   0  0  0  0  0  0  0  0  0  0  0  0
    6.3301   -2.0000    0.0000 O   0  0  0  0  0  0  0  0  0  0  0  0
    7.1962   -0.5000    0.0000 O   0  0  0  0  0  0  0  0  0  0  0  0
   11.5263    1.0000    0.0000 O   0  0  0  0  0  0  0  0  0  0  0  0
   16.7224    4.0000    0.0000 O   0  0  0  0  0  0  0  0  0  0  0  0
    8.0622    2.0000    0.0000 N   0  0  0  0  0  0  0  0  0  0  0  0
    5.4641   -0.5000    0.0000 N   0  0  0  0  0  0  0  0  0  0  0  0
   10.6603    2.5000    0.0000 N   0  0  0  0  0  0  0  0  0  0  0  0
   12.3923    2.5000    0.0000 N   0  0  0  0  0  0  0  0  0  0  0  0
   14.9904    2.0000    0.0000 N   0  0  0  0  0  0  0  0  0  0  0  0
    8.0622   -5.0000    0.0000 N   0  0  0  0  0  0  0  0  0  0  0  0
    7.1962    2.5000    0.0000 C   0  0  2  0  0  0  0  0  0  0  0  0
    6.3301    2.0000    0.0000 C   0  0  0  0  0  0  0  0  0  0  0  0
    6.3301    1.0000    0.0000 C   0  0  1  0  0  0  0  0  0  0  0  0
    5.4641    0.5000    0.0000 C   0  0  2  0  0  0  0  0  0  0  0  0
    7.1962    3.5000    0.0000 C   0  0  0  0  0  0  0  0  0  0  0  0
    4.5981    1.0000    0.0000 C   0  0  0  0  0  0  0  0  0  0  0  0
    9.7942    2.0000    0.0000 C   0  0  2  0  0  0  0  0  0  0  0  0
    8.9282    2.5000    0.0000 C   0  0  0  0  0  0  0  0  0  0  0  0
    9.7942    1.0000    0.0000 C   0  0  0  0  0  0  0  0  0  0  0  0
    6.3301    4.0000    0.0000 C   0  0  0  0  0  0  0  0  0  0  0  0
    3.7320    0.5000    0.0000 C   0  0  0  0  0  0  0  0  0  0  0  0
    8.9282    0.5000    0.0000 C   0  0  0  0  0  0  0  0  0  0  0  0
   10.6603    0.5000    0.0000 C   0  0  0  0  0  0  0  0  0  0  0  0
    5.4641    3.5000    0.0000 C   0  0  0  0  0  0  0  0  0  0  0  0
    6.3301    5.0000    0.0000 C   0  0  0  0  0  0  0  0  0  0  0  0
    6.3301   -1.0000    0.0000 C   0  0  0  0  0  0  0  0  0  0  0  0
    2.8660    1.0000    0.0000 C   0  0  0  0  0  0  0  0  0  0  0  0
    3.7320   -0.5000    0.0000 C   0  0  0  0  0  0  0  0  0  0  0  0
   11.5263    2.0000    0.0000 C   0  0  0  0  0  0  0  0  0  0  0  0
    4.5981    4.0000    0.0000 C   0  0  0  0  0  0  0  0  0  0  0  0
    5.4641    5.5000    0.0000 C   0  0  0  0  0  0  0  0  0  0  0  0
    2.0000    0.5000    0.0000 C   0  0  0  0  0  0  0  0  0  0  0  0
    2.8660   -1.0000    0.0000 C   0  0  0  0  0  0  0  0  0  0  0  0
    4.5981    5.0000    0.0000 C   0  0  0  0  0  0  0  0  0  0  0  0
    2.0000   -0.5000    0.0000 C   0  0  0  0  0  0  0  0  0  0  0  0
   13.2583    2.0000    0.0000 C   0  0  0  0  0  0  0  0  0  0  0  0
    7.1962   -2.5000    0.0000 C   0  0  0  0  0  0  0  0  0  0  0  0
   12.3923    3.5000    0.0000 C   0  0  0  0  0  0  0  0  0  0  0  0
   14.1244    2.5000    0.0000 C   0  0  0  0  0  0  0  0  0  0  0  0
    7.1962   -3.5000    0.0000 C   0  0  0  0  0  0  0  0  0  0  0  0
   14.1244    3.5000    0.0000 C   0  0  0  0  0  0  0  0  0  0  0  0
    6.3301   -4.0000    0.0000 C   0  0  0  0  0  0  0  0  0  0  0  0
    8.0622   -4.0000    0.0000 C   0  0  0  0  0  0  0  0  0  0  0  0
   14.9904    4.0000    0.0000 C   0  0  0  0  0  0  0  0  0  0  0  0
   15.8564    2.5000    0.0000 C   0  0  0  0  0  0  0  0  0  0  0  0
   15.8564    3.5000    0.0000 C   0  0  0  0  0  0  0  0  0  0  0  0
    6.3301   -5.0000    0.0000 C   0  0  0  0  0  0  0  0  0  0  0  0
    7.1962   -5.5000    0.0000 C   0  0  0  0  0  0  0  0  0  0  0  0
   17.5885    3.5000    0.0000 C   0  0  0  0  0  0  0  0  0  0  0  0
    7.7331    2.8100    0.0000 H   0  0  0  0  0  0  0  0  0  0  0  0
    6.1181    2.5826    0.0000 H   0  0  0  0  0  0  0  0  0  0  0  0
    5.7196    1.8923    0.0000 H   0  0  0  0  0  0  0  0  0  0  0  0
    6.8671    1.3100    0.0000 H   0  0  0  0  0  0  0  0  0  0  0  0
    6.0010    0.1900    0.0000 H   0  0  0  0  0  0  0  0  0  0  0  0
    7.8067    3.3923    0.0000 H   0  0  0  0  0  0  0  0  0  0  0  0
    7.4082    4.0826    0.0000 H   0  0  0  0  0  0  0  0  0  0  0  0
    4.9966    1.4750    0.0000 H   0  0  0  0  0  0  0  0  0  0  0  0
    4.1996    1.4750    0.0000 H   0  0  0  0  0  0  0  0  0  0  0  0
    8.0622    1.3800    0.0000 H   0  0  0  0  0  0  0  0  0  0  0  0
    9.7942    2.6200    0.0000 H   0  0  0  0  0  0  0  0  0  0  0  0
    9.2573    1.3100    0.0000 H   0  0  0  0  0  0  0  0  0  0  0  0
    4.9272   -0.8100    0.0000 H   0  0  0  0  0  0  0  0  0  0  0  0
    7.7331    0.8100    0.0000 H   0  0  0  0  0  0  0  0  0  0  0  0
   10.6603    3.1200    0.0000 H   0  0  0  0  0  0  0  0  0  0  0  0
    8.6182    1.0369    0.0000 H   0  0  0  0  0  0  0  0  0  0  0  0
    8.3913    0.1900    0.0000 H   0  0  0  0  0  0  0  0  0  0  0  0
    9.2382   -0.0369    0.0000 H   0  0  0  0  0  0  0  0  0  0  0  0
   10.3503   -0.0369    0.0000 H   0  0  0  0  0  0  0  0  0  0  0  0
   11.1972    0.1900    0.0000 H   0  0  0  0  0  0  0  0  0  0  0  0
   10.9703    1.0369    0.0000 H   0  0  0  0  0  0  0  0  0  0  0  0
    5.4641    2.8800    0.0000 H   0  0  0  0  0  0  0  0  0  0  0  0
    6.8671    5.3100    0.0000 H   0  0  0  0  0  0  0  0  0  0  0  0
    2.8660    1.6200    0.0000 H   0  0  0  0  0  0  0  0  0  0  0  0
    4.2690   -0.8100    0.0000 H   0  0  0  0  0  0  0  0  0  0  0  0
    4.0611    3.6900    0.0000 H   0  0  0  0  0  0  0  0  0  0  0  0
    5.4641    6.1200    0.0000 H   0  0  0  0  0  0  0  0  0  0  0  0
    1.4631    0.8100    0.0000 H   0  0  0  0  0  0  0  0  0  0  0  0
    2.8660   -1.6200    0.0000 H   0  0  0  0  0  0  0  0  0  0  0  0
    4.0611    5.3100    0.0000 H   0  0  0  0  0  0  0  0  0  0  0  0
    1.4631   -0.8100    0.0000 H   0  0  0  0  0  0  0  0  0  0  0  0
   12.8598    1.5250    0.0000 H   0  0  0  0  0  0  0  0  0  0  0  0
   13.6569    1.5250    0.0000 H   0  0  0  0  0  0  0  0  0  0  0  0
    7.8067   -2.6077    0.0000 H   0  0  0  0  0  0  0  0  0  0  0  0
    7.4082   -1.9174    0.0000 H   0  0  0  0  0  0  0  0  0  0  0  0
   13.0123    3.5000    0.0000 H   0  0  0  0  0  0  0  0  0  0  0  0
   12.3923    4.1200    0.0000 H   0  0  0  0  0  0  0  0  0  0  0  0
   11.7723    3.5000    0.0000 H   0  0  0  0  0  0  0  0  0  0  0  0
   13.5874    3.8100    0.0000 H   0  0  0  0  0  0  0  0  0  0  0  0
    5.7932   -3.6900    0.0000 H   0  0  0  0  0  0  0  0  0  0  0  0
    8.5991   -3.6900    0.0000 H   0  0  0  0  0  0  0  0  0  0  0  0
   14.9904    4.6200    0.0000 H   0  0  0  0  0  0  0  0  0  0  0  0
   16.3933    2.1900    0.0000 H   0  0  0  0  0  0  0  0  0  0  0  0
    5.7932   -5.3100    0.0000 H   0  0  0  0  0  0  0  0  0  0  0  0
    7.1962   -6.1200    0.0000 H   0  0  0  0  0  0  0  0  0  0  0  0
   17.2785    2.9631    0.0000 H   0  0  0  0  0  0  0  0  0  0  0  0
   18.1254    3.1900    0.0000 H   0  0  0  0  0  0  0  0  0  0  0  0
   17.8985    4.0369    0.0000 H   0  0  0  0  0  0  0  0  0  0  0  0
 15  1  1  6  0  0  0
  1 65  1  0  0  0  0
  2 20  2  0  0  0  0
  3 28  1  0  0  0  0
  3 39  1  0  0  0  0
  4 28  2  0  0  0  0
  5 31  2  0  0  0  0
  6 48  1  0  0  0  0
  6 51  1  0  0  0  0
 13  7  1  6  0  0  0
  7 20  1  0  0  0  0
  7 61  1  0  0  0  0
 16  8  1  1  0  0  0
  8 28  1  0  0  0  0
  8 64  1  0  0  0  0
 19  9  1  1  0  0  0
  9 31  1  0  0  0  0
  9 66  1  0  0  0  0
 10 31  1  0  0  0  0
 10 38  1  0  0  0  0
 10 40  1  0  0  0  0
 11 41  2  0  0  0  0
 11 47  1  0  0  0  0
 12 45  1  0  0  0  0
 12 50  2  0  0  0  0
 13 14  1  0  0  0  0
 13 17  1  0  0  0  0
 13 52  1  0  0  0  0
 14 15  1  0  0  0  0
 14 53  1  0  0  0  0
 14 54  1  0  0  0  0
 15 16  1  0  0  0  0
 15 55  1  0  0  0  0
 16 18  1  0  0  0  0
 16 56  1  0  0  0  0
 17 22  1  0  0  0  0
 17 57  1  0  0  0  0
 17 58  1  0  0  0  0
 18 23  1  0  0  0  0
 18 59  1  0  0  0  0
 18 60  1  0  0  0  0
 19 20  1  0  0  0  0
 19 21  1  0  0  0  0
 19 62  1  0  0  0  0
 21 24  1  0  0  0  0
 21 25  1  0  0  0  0
 21 63  1  0  0  0  0
 22 26  2  0  0  0  0
 22 27  1  0  0  0  0
 23 29  2  0  0  0  0
 23 30  1  0  0  0  0
 24 67  1  0  0  0  0
 24 68  1  0  0  0  0
 24 69  1  0  0  0  0
 25 70  1  0  0  0  0
 25 71  1  0  0  0  0
 25 72  1  0  0  0  0
 26 32  1  0  0  0  0
 26 73  1  0  0  0  0
 27 33  2  0  0  0  0
 27 74  1  0  0  0  0
 29 34  1  0  0  0  0
 29 75  1  0  0  0  0
 30 35  2  0  0  0  0
 30 76  1  0  0  0  0
 32 36  2  0  0  0  0
 32 77  1  0  0  0  0
 33 36  1  0  0  0  0
 33 78  1  0  0  0  0
 34 37  2  0  0  0  0
 34 79  1  0  0  0  0
 35 37  1  0  0  0  0
 35 80  1  0  0  0  0
 36 81  1  0  0  0  0
 37 82  1  0  0  0  0
 38 41  1  0  0  0  0
 38 83  1  0  0  0  0
 38 84  1  0  0  0  0
 39 42  1  0  0  0  0
 39 85  1  0  0  0  0
 39 86  1  0  0  0  0
 40 87  1  0  0  0  0
 40 88  1  0  0  0  0
 40 89  1  0  0  0  0
 41 43  1  0  0  0  0
 42 44  1  0  0  0  0
 42 45  2  0  0  0  0
 43 46  2  0  0  0  0
 43 90  1  0  0  0  0
 44 49  2  0  0  0  0
 44 91  1  0  0  0  0
 45 92  1  0  0  0  0
 46 48  1  0  0  0  0
 46 93  1  0  0  0  0
 47 48  2  0  0  0  0
 47 94  1  0  0  0  0
 49 50  1  0  0  0  0
 49 95  1  0  0  0  0
 50 96  1  0  0  0  0
 51 97  1  0  0  0  0
 51 98  1  0  0  0  0
 51 99  1  0  0  0  0
M  END
> <PUBCHEM_COMPOUND_CID>
515743
> <PUBCHEM_COMPOUND_CANONICALIZED>
1
> <PUBCHEM_CACTVS_COMPLEXITY>
1040
> <PUBCHEM_CACTVS_HBOND_ACCEPTOR>
8
> <PUBCHEM_CACTVS_HBOND_DONOR>
4
> <PUBCHEM_CACTVS_ROTATABLE_BOND>
18
> <PUBCHEM_CACTVS_SUBSKEYS>
AAADcfB/uAAAAAAAAAAAAAAAAAAAAAAAAAA8eIEAAAAAAAAB9AAAHgAQCAAADTzhngY/jpPIFgCoAzV3XASCiCAxYiAI2KG/bJmOdvLEsbudcChu1hPY6Aew0PIOAAAAAAAAAAAAAAAAAAAAAAAAAAAAAA==
> <PUBCHEM_IUPAC_OPENEYE_NAME>
3-pyridylmethyl N-[(1S,2S,4S)-1-benzyl-2-hydroxy-4-[[(2S)-2-[[(5-methoxy-2-pyridyl)methyl-methyl-carbamoyl]amino]-3-methyl-butanoyl]amino]-5-phenyl-pentyl]carbamate
> <PUBCHEM_IUPAC_CAS_NAME>
N-[(2S,3S,5S)-3-hydroxy-5-[[(2S)-2-[[[(5-methoxy-2-pyridinyl)methyl-methylamino]-oxomethyl]amino]-3-methyl-1-oxobutyl]amino]-1,6-diphenylhexan-2-yl]carbamic acid 3-pyridinylmethyl ester
> <PUBCHEM_IUPAC_NAME_MARKUP>
pyridin-3-ylmethyl <I>N</I>-[(2<I>S</I>,3<I>S</I>,5<I>S</I>)-3-hydroxy-5-[[(2<I>S</I>)-2-[[(5-methoxypyridin-2-yl)methyl-methylcarbamoyl]amino]-3-methylbutanoyl]amino]-1,6-diphenylhexan-2-yl]carbamate
> <PUBCHEM_IUPAC_NAME>
pyridin-3-ylmethyl N-[(2S,3S,5S)-3-hydroxy-5-[[(2S)-2-[[(5-methoxypyridin-2-yl)methyl-methylcarbamoyl]amino]-3-methylbutanoyl]amino]-1,6-diphenylhexan-2-yl]carbamate
> <PUBCHEM_IUPAC_SYSTEMATIC_NAME>
pyridin-3-ylmethyl N-[(2S,3S,5S)-5-[[(2S)-2-[[(5-methoxypyridin-2-yl)methyl-methyl-carbamoyl]amino]-3-methyl-butanoyl]amino]-3-oxidanyl-1,6-diphenyl-hexan-2-yl]carbamate
> <PUBCHEM_IUPAC_TRADITIONAL_NAME>
N-[(1S,2S,4S)-1-benzyl-2-hydroxy-4-[[(2S)-2-[[(5-methoxy-2-pyridyl)methyl-methyl-carbamoyl]amino]-3-methyl-butanoyl]amino]-5-phenyl-pentyl]carbamic acid 3-pyridylmethyl ester
> <PUBCHEM_IUPAC_INCHI>
InChI=1S/C39H48N6O6/c1-27(2)36(44-38(48)45(3)25-31-17-18-33(50-4)24-41-31)37(47)42-32(20-28-12-7-5-8-13-28)22-35(46)34(21-29-14-9-6-10-15-29)43-39(49)51-26-30-16-11-19-40-23-30/h5-19,23-24,27,32,34-36,46H,20-22,25-26H2,1-4H3,(H,42,47)(H,43,49)(H,44,48)/t32-,34-,35-,36-/m0/s1
> <PUBCHEM_IUPAC_INCHIKEY>
VHZHUBNDTBKBPT-ZYXDSXQBSA-N
> <PUBCHEM_XLOGP3_AA>
4.6
> <PUBCHEM_EXACT_MASS>
696.36353327
> <PUBCHEM_MOLECULAR_FORMULA>
C39H48N6O6
> <PUBCHEM_MOLECULAR_WEIGHT>
696.8
> <PUBCHEM_OPENEYE_CAN_SMILES>
CC(C)C(C(=O)NC(CC1=CC=CC=C1)CC(C(CC2=CC=CC=C2)NC(=O)OCC3=CN=CC=C3)O)NC(=O)N(C)CC4=NC=C(C=C4)OC
> <PUBCHEM_OPENEYE_ISO_SMILES>
CC(C)[C@@H](C(=O)N[C@@H](CC1=CC=CC=C1)C[C@@H]([C@H](CC2=CC=CC=C2)NC(=O)OCC3=CN=CC=C3)O)NC(=O)N(C)CC4=NC=C(C=C4)OC
> <PUBCHEM_CACTVS_TPSA>
155
> <PUBCHEM_MONOISOTOPIC_WEIGHT>
696.36353327
> <PUBCHEM_TOTAL_CHARGE>
0
> <PUBCHEM_HEAVY_ATOM_COUNT>
51
> <PUBCHEM_ATOM_DEF_STEREO_COUNT>
4
> <PUBCHEM_ATOM_UDEF_STEREO_COUNT>
0
> <PUBCHEM_BOND_DEF_STEREO_COUNT>
0
> <PUBCHEM_BOND_UDEF_STEREO_COUNT>
0
> <PUBCHEM_ISOTOPIC_ATOM_COUNT>
0
> <PUBCHEM_COMPONENT_COUNT>
1
> <PUBCHEM_CACTVS_TAUTO_COUNT>
-1
> <PUBCHEM_COORDINATE_TYPE>
1
5
255
> <PUBCHEM_BONDANNOTATIONS>
15  1  6
11  41  8
11  47  8
12  45  8
12  50  8
22  26  8
22  27  8
23  29  8
23  30  8
26  32  8
27  33  8
29  34  8
30  35  8
32  36  8
33  36  8
34  37  8
35  37  8
41  43  8
42  44  8
42  45  8
43  46  8
44  49  8
46  48  8
47  48  8
49  50  8
13  7  6
16  8  5
19  9  5
$$$$
