515736
  -OEChem-10302200282D
 94 97  0     1  0  0  0  0  0999 V2000
   11.5263   -0.5000    0.0000 O   0  0  0  0  0  0  0  0  0  0  0  0
    9.7942   -3.5000    0.0000 O   0  0  0  0  0  0  0  0  0  0  0  0
   12.3923    2.0000    0.0000 O   0  0  0  0  0  0  0  0  0  0  0  0
   11.5263    0.5000    0.0000 O   0  0  0  0  0  0  0  0  0  0  0  0
    6.3301   -2.5000    0.0000 O   0  0  0  0  0  0  0  0  0  0  0  0
    7.1962   -1.0000    0.0000 O   0  0  0  0  0  0  0  0  0  0  0  0
   10.6603   -2.0000    0.0000 N   0  0  0  0  0  0  0  0  0  0  0  0
   13.2583    0.5000    0.0000 N   0  0  0  0  0  0  0  0  0  0  0  0
    8.0622   -2.5000    0.0000 N   0  0  0  0  0  0  0  0  0  0  0  0
   12.3923    5.0000    0.0000 N   0  0  0  0  0  0  0  0  0  0  0  0
    3.7320   -4.0000    0.0000 N   0  0  0  0  0  0  0  0  0  0  0  0
   11.5263   -2.5000    0.0000 C   0  0  2  0  0  0  0  0  0  0  0  0
   12.3923   -2.0000    0.0000 C   0  0  0  0  0  0  0  0  0  0  0  0
   12.3923   -1.0000    0.0000 C   0  0  1  0  0  0  0  0  0  0  0  0
   13.2583   -0.5000    0.0000 C   0  0  2  0  0  0  0  0  0  0  0  0
   11.5263   -3.5000    0.0000 C   0  0  0  0  0  0  0  0  0  0  0  0
   14.1244   -1.0000    0.0000 C   0  0  0  0  0  0  0  0  0  0  0  0
    8.9282   -2.0000    0.0000 C   0  0  2  0  0  0  0  0  0  0  0  0
    9.7942   -2.5000    0.0000 C   0  0  0  0  0  0  0  0  0  0  0  0
    8.9282   -1.0000    0.0000 C   0  0  0  0  0  0  0  0  0  0  0  0
   12.3923   -4.0000    0.0000 C   0  0  0  0  0  0  0  0  0  0  0  0
   14.9904   -0.5000    0.0000 C   0  0  0  0  0  0  0  0  0  0  0  0
    9.7942   -0.5000    0.0000 C   0  0  0  0  0  0  0  0  0  0  0  0
    8.0622   -0.5000    0.0000 C   0  0  0  0  0  0  0  0  0  0  0  0
   13.2583   -3.5000    0.0000 C   0  0  0  0  0  0  0  0  0  0  0  0
   12.3923   -5.0000    0.0000 C   0  0  0  0  0  0  0  0  0  0  0  0
   12.3923    1.0000    0.0000 C   0  0  0  0  0  0  0  0  0  0  0  0
   15.8564   -1.0000    0.0000 C   0  0  0  0  0  0  0  0  0  0  0  0
   14.9904    0.5000    0.0000 C   0  0  0  0  0  0  0  0  0  0  0  0
   14.1244   -4.0000    0.0000 C   0  0  0  0  0  0  0  0  0  0  0  0
   13.2583   -5.5000    0.0000 C   0  0  0  0  0  0  0  0  0  0  0  0
   16.7224   -0.5000    0.0000 C   0  0  0  0  0  0  0  0  0  0  0  0
   15.8564    1.0000    0.0000 C   0  0  0  0  0  0  0  0  0  0  0  0
    7.1962   -2.0000    0.0000 C   0  0  0  0  0  0  0  0  0  0  0  0
   14.1244   -5.0000    0.0000 C   0  0  0  0  0  0  0  0  0  0  0  0
   16.7224    0.5000    0.0000 C   0  0  0  0  0  0  0  0  0  0  0  0
   11.5263    2.5000    0.0000 C   0  0  0  0  0  0  0  0  0  0  0  0
    5.4641   -2.0000    0.0000 C   0  0  0  0  0  0  0  0  0  0  0  0
   11.5263    3.5000    0.0000 C   0  0  0  0  0  0  0  0  0  0  0  0
    4.5981   -2.5000    0.0000 C   0  0  0  0  0  0  0  0  0  0  0  0
   10.6603    4.0000    0.0000 C   0  0  0  0  0  0  0  0  0  0  0  0
   12.3923    4.0000    0.0000 C   0  0  0  0  0  0  0  0  0  0  0  0
    3.7320   -2.0000    0.0000 C   0  0  0  0  0  0  0  0  0  0  0  0
    4.5981   -3.5000    0.0000 C   0  0  0  0  0  0  0  0  0  0  0  0
   10.6603    5.0000    0.0000 C   0  0  0  0  0  0  0  0  0  0  0  0
   11.5263    5.5000    0.0000 C   0  0  0  0  0  0  0  0  0  0  0  0
    2.8660   -2.5000    0.0000 C   0  0  0  0  0  0  0  0  0  0  0  0
    2.8660   -3.5000    0.0000 C   0  0  0  0  0  0  0  0  0  0  0  0
    2.0000   -4.0000    0.0000 C   0  0  0  0  0  0  0  0  0  0  0  0
   10.9893   -2.8100    0.0000 H   0  0  0  0  0  0  0  0  0  0  0  0
   12.6044   -2.5826    0.0000 H   0  0  0  0  0  0  0  0  0  0  0  0
   13.0029   -1.8923    0.0000 H   0  0  0  0  0  0  0  0  0  0  0  0
   11.8554   -1.3100    0.0000 H   0  0  0  0  0  0  0  0  0  0  0  0
   13.7953   -0.1900    0.0000 H   0  0  0  0  0  0  0  0  0  0  0  0
   10.9157   -3.3923    0.0000 H   0  0  0  0  0  0  0  0  0  0  0  0
   11.3142   -4.0826    0.0000 H   0  0  0  0  0  0  0  0  0  0  0  0
   13.7258   -1.4750    0.0000 H   0  0  0  0  0  0  0  0  0  0  0  0
   14.5229   -1.4750    0.0000 H   0  0  0  0  0  0  0  0  0  0  0  0
   10.6603   -1.3800    0.0000 H   0  0  0  0  0  0  0  0  0  0  0  0
    8.9282   -2.6200    0.0000 H   0  0  0  0  0  0  0  0  0  0  0  0
   13.7953    0.8100    0.0000 H   0  0  0  0  0  0  0  0  0  0  0  0
    9.4651   -1.3100    0.0000 H   0  0  0  0  0  0  0  0  0  0  0  0
   10.9893   -0.8100    0.0000 H   0  0  0  0  0  0  0  0  0  0  0  0
    8.0622   -3.1200    0.0000 H   0  0  0  0  0  0  0  0  0  0  0  0
   10.1042   -1.0369    0.0000 H   0  0  0  0  0  0  0  0  0  0  0  0
   10.3312   -0.1900    0.0000 H   0  0  0  0  0  0  0  0  0  0  0  0
    9.4842    0.0369    0.0000 H   0  0  0  0  0  0  0  0  0  0  0  0
    8.3722    0.0369    0.0000 H   0  0  0  0  0  0  0  0  0  0  0  0
    7.5252   -0.1900    0.0000 H   0  0  0  0  0  0  0  0  0  0  0  0
    7.7522   -1.0369    0.0000 H   0  0  0  0  0  0  0  0  0  0  0  0
   13.2583   -2.8800    0.0000 H   0  0  0  0  0  0  0  0  0  0  0  0
   11.8554   -5.3100    0.0000 H   0  0  0  0  0  0  0  0  0  0  0  0
   15.8564   -1.6200    0.0000 H   0  0  0  0  0  0  0  0  0  0  0  0
   14.4534    0.8100    0.0000 H   0  0  0  0  0  0  0  0  0  0  0  0
   14.6613   -3.6900    0.0000 H   0  0  0  0  0  0  0  0  0  0  0  0
   13.2583   -6.1200    0.0000 H   0  0  0  0  0  0  0  0  0  0  0  0
   17.2594   -0.8100    0.0000 H   0  0  0  0  0  0  0  0  0  0  0  0
   15.8564    1.6200    0.0000 H   0  0  0  0  0  0  0  0  0  0  0  0
   14.6613   -5.3100    0.0000 H   0  0  0  0  0  0  0  0  0  0  0  0
   17.2594    0.8100    0.0000 H   0  0  0  0  0  0  0  0  0  0  0  0
   10.9157    2.6077    0.0000 H   0  0  0  0  0  0  0  0  0  0  0  0
   11.3142    1.9174    0.0000 H   0  0  0  0  0  0  0  0  0  0  0  0
    5.8626   -1.5250    0.0000 H   0  0  0  0  0  0  0  0  0  0  0  0
    5.0656   -1.5250    0.0000 H   0  0  0  0  0  0  0  0  0  0  0  0
   10.1233    3.6900    0.0000 H   0  0  0  0  0  0  0  0  0  0  0  0
   12.9292    3.6900    0.0000 H   0  0  0  0  0  0  0  0  0  0  0  0
    3.7320   -1.3800    0.0000 H   0  0  0  0  0  0  0  0  0  0  0  0
    5.1350   -3.8100    0.0000 H   0  0  0  0  0  0  0  0  0  0  0  0
   10.1233    5.3100    0.0000 H   0  0  0  0  0  0  0  0  0  0  0  0
    2.3291   -2.1900    0.0000 H   0  0  0  0  0  0  0  0  0  0  0  0
   11.5263    6.1200    0.0000 H   0  0  0  0  0  0  0  0  0  0  0  0
    1.6900   -3.4631    0.0000 H   0  0  0  0  0  0  0  0  0  0  0  0
    1.4631   -4.3100    0.0000 H   0  0  0  0  0  0  0  0  0  0  0  0
    2.3100   -4.5369    0.0000 H   0  0  0  0  0  0  0  0  0  0  0  0
 14  1  1  6  0  0  0
  1 63  1  0  0  0  0
  2 19  2  0  0  0  0
  3 27  1  0  0  0  0
  3 37  1  0  0  0  0
  4 27  2  0  0  0  0
  5 34  1  0  0  0  0
  5 38  1  0  0  0  0
  6 34  2  0  0  0  0
 12  7  1  6  0  0  0
  7 19  1  0  0  0  0
  7 59  1  0  0  0  0
 15  8  1  1  0  0  0
  8 27  1  0  0  0  0
  8 61  1  0  0  0  0
 18  9  1  1  0  0  0
  9 34  1  0  0  0  0
  9 64  1  0  0  0  0
 10 42  1  0  0  0  0
 10 46  2  0  0  0  0
 11 44  1  0  0  0  0
 11 48  2  0  0  0  0
 12 13  1  0  0  0  0
 12 16  1  0  0  0  0
 12 50  1  0  0  0  0
 13 14  1  0  0  0  0
 13 51  1  0  0  0  0
 13 52  1  0  0  0  0
 14 15  1  0  0  0  0
 14 53  1  0  0  0  0
 15 17  1  0  0  0  0
 15 54  1  0  0  0  0
 16 21  1  0  0  0  0
 16 55  1  0  0  0  0
 16 56  1  0  0  0  0
 17 22  1  0  0  0  0
 17 57  1  0  0  0  0
 17 58  1  0  0  0  0
 18 19  1  0  0  0  0
 18 20  1  0  0  0  0
 18 60  1  0  0  0  0
 20 23  1  0  0  0  0
 20 24  1  0  0  0  0
 20 62  1  0  0  0  0
 21 25  2  0  0  0  0
 21 26  1  0  0  0  0
 22 28  2  0  0  0  0
 22 29  1  0  0  0  0
 23 65  1  0  0  0  0
 23 66  1  0  0  0  0
 23 67  1  0  0  0  0
 24 68  1  0  0  0  0
 24 69  1  0  0  0  0
 24 70  1  0  0  0  0
 25 30  1  0  0  0  0
 25 71  1  0  0  0  0
 26 31  2  0  0  0  0
 26 72  1  0  0  0  0
 28 32  1  0  0  0  0
 28 73  1  0  0  0  0
 29 33  2  0  0  0  0
 29 74  1  0  0  0  0
 30 35  2  0  0  0  0
 30 75  1  0  0  0  0
 31 35  1  0  0  0  0
 31 76  1  0  0  0  0
 32 36  2  0  0  0  0
 32 77  1  0  0  0  0
 33 36  1  0  0  0  0
 33 78  1  0  0  0  0
 35 79  1  0  0  0  0
 36 80  1  0  0  0  0
 37 39  1  0  0  0  0
 37 81  1  0  0  0  0
 37 82  1  0  0  0  0
 38 40  1  0  0  0  0
 38 83  1  0  0  0  0
 38 84  1  0  0  0  0
 39 41  1  0  0  0  0
 39 42  2  0  0  0  0
 40 43  1  0  0  0  0
 40 44  2  0  0  0  0
 41 45  2  0  0  0  0
 41 85  1  0  0  0  0
 42 86  1  0  0  0  0
 43 47  2  0  0  0  0
 43 87  1  0  0  0  0
 44 88  1  0  0  0  0
 45 46  1  0  0  0  0
 45 89  1  0  0  0  0
 46 91  1  0  0  0  0
 47 48  1  0  0  0  0
 47 90  1  0  0  0  0
 48 49  1  0  0  0  0
 49 92  1  0  0  0  0
 49 93  1  0  0  0  0
 49 94  1  0  0  0  0
M  END
> <PUBCHEM_COMPOUND_CID>
515736
> <PUBCHEM_COMPOUND_CANONICALIZED>
1
> <PUBCHEM_CACTVS_COMPLEXITY>
988
> <PUBCHEM_CACTVS_HBOND_ACCEPTOR>
8
> <PUBCHEM_CACTVS_HBOND_DONOR>
4
> <PUBCHEM_CACTVS_ROTATABLE_BOND>
18
> <PUBCHEM_CACTVS_SUBSKEYS>
AAADcfB/uAAAAAAAAAAAAAAAAAAAAAAAAAA8eIEAAAAAAAAB9AAAHgAQCAAADTzhngY+iJLIFgCoAzV3XACCgCAxAiAI2KG4bJkKdvLAsbmccAhm1gHY6AeQ0PMOAAAAAAAAAAAAAAAAAAAAAAAAAAAAAA==
> <PUBCHEM_IUPAC_OPENEYE_NAME>
3-pyridylmethyl N-[(1S,2S,4S)-1-benzyl-2-hydroxy-4-[[(2S)-3-methyl-2-[(6-methyl-3-pyridyl)methoxycarbonylamino]butanoyl]amino]-5-phenyl-pentyl]carbamate
> <PUBCHEM_IUPAC_CAS_NAME>
N-[(2S,3S,5S)-3-hydroxy-5-[[(2S)-3-methyl-2-[[(6-methyl-3-pyridinyl)methoxy-oxomethyl]amino]-1-oxobutyl]amino]-1,6-diphenylhexan-2-yl]carbamic acid 3-pyridinylmethyl ester
> <PUBCHEM_IUPAC_NAME_MARKUP>
(6-methylpyridin-3-yl)methyl <I>N</I>-[(2<I>S</I>)-1-[[(2<I>S</I>,4<I>S</I>,5<I>S</I>)-4-hydroxy-1,6-diphenyl-5-(pyridin-3-ylmethoxycarbonylamino)hexan-2-yl]amino]-3-methyl-1-oxobutan-2-yl]carbamate
> <PUBCHEM_IUPAC_NAME>
(6-methylpyridin-3-yl)methyl N-[(2S)-1-[[(2S,4S,5S)-4-hydroxy-1,6-diphenyl-5-(pyridin-3-ylmethoxycarbonylamino)hexan-2-yl]amino]-3-methyl-1-oxobutan-2-yl]carbamate
> <PUBCHEM_IUPAC_SYSTEMATIC_NAME>
pyridin-3-ylmethyl N-[(2S,3S,5S)-5-[[(2S)-3-methyl-2-[(6-methylpyridin-3-yl)methoxycarbonylamino]butanoyl]amino]-3-oxidanyl-1,6-diphenyl-hexan-2-yl]carbamate
> <PUBCHEM_IUPAC_TRADITIONAL_NAME>
N-[(1S,2S,4S)-1-benzyl-2-hydroxy-4-[[(2S)-3-methyl-2-[(6-methyl-3-pyridyl)methoxycarbonylamino]butanoyl]amino]-5-phenyl-pentyl]carbamic acid 3-pyridylmethyl ester
> <PUBCHEM_IUPAC_INCHI>
InChI=1S/C38H45N5O6/c1-26(2)35(43-38(47)49-25-31-17-16-27(3)40-23-31)36(45)41-32(19-28-11-6-4-7-12-28)21-34(44)33(20-29-13-8-5-9-14-29)42-37(46)48-24-30-15-10-18-39-22-30/h4-18,22-23,26,32-35,44H,19-21,24-25H2,1-3H3,(H,41,45)(H,42,46)(H,43,47)/t32-,33-,34-,35-/m0/s1
> <PUBCHEM_IUPAC_INCHIKEY>
RZLMFQZJVNEWPJ-BBACVFHCSA-N
> <PUBCHEM_XLOGP3_AA>
5.4
> <PUBCHEM_EXACT_MASS>
667.33698417
> <PUBCHEM_MOLECULAR_FORMULA>
C38H45N5O6
> <PUBCHEM_MOLECULAR_WEIGHT>
667.8
> <PUBCHEM_OPENEYE_CAN_SMILES>
CC1=NC=C(C=C1)COC(=O)NC(C(C)C)C(=O)NC(CC2=CC=CC=C2)CC(C(CC3=CC=CC=C3)NC(=O)OCC4=CN=CC=C4)O
> <PUBCHEM_OPENEYE_ISO_SMILES>
CC1=NC=C(C=C1)COC(=O)N[C@@H](C(C)C)C(=O)N[C@@H](CC2=CC=CC=C2)C[C@@H]([C@H](CC3=CC=CC=C3)NC(=O)OCC4=CN=CC=C4)O
> <PUBCHEM_CACTVS_TPSA>
152
> <PUBCHEM_MONOISOTOPIC_WEIGHT>
667.33698417
> <PUBCHEM_TOTAL_CHARGE>
0
> <PUBCHEM_HEAVY_ATOM_COUNT>
49
> <PUBCHEM_ATOM_DEF_STEREO_COUNT>
4
> <PUBCHEM_ATOM_UDEF_STEREO_COUNT>
0
> <PUBCHEM_BOND_DEF_STEREO_COUNT>
0
> <PUBCHEM_BOND_UDEF_STEREO_COUNT>
0
> <PUBCHEM_ISOTOPIC_ATOM_COUNT>
0
> <PUBCHEM_COMPONENT_COUNT>
1
> <PUBCHEM_CACTVS_TAUTO_COUNT>
-1
> <PUBCHEM_COORDINATE_TYPE>
1
5
255
> <PUBCHEM_BONDANNOTATIONS>
14  1  6
10  42  8
10  46  8
11  44  8
11  48  8
21  25  8
21  26  8
22  28  8
22  29  8
25  30  8
26  31  8
28  32  8
29  33  8
30  35  8
31  35  8
32  36  8
33  36  8
39  41  8
39  42  8
40  43  8
40  44  8
41  45  8
43  47  8
45  46  8
47  48  8
12  7  6
15  8  5
18  9  5
$$$$
