515795
  -OEChem-10302200282D
 97100  0     1  0  0  0  0  0999 V2000
    8.1097    3.7420    0.0000 S   0  0  0  0  0  0  0  0  0  0  0  0
    4.5981   -3.3512    0.0000 O   0  0  0  0  0  0  0  0  0  0  0  0
    5.4641   -0.8512    0.0000 O   0  0  0  0  0  0  0  0  0  0  0  0
    8.0622   -0.3512    0.0000 O   0  0  0  0  0  0  0  0  0  0  0  0
    6.3301   -0.3512    0.0000 O   0  0  0  0  0  0  0  0  0  0  0  0
    6.3301    2.6488    0.0000 O   0  0  0  0  0  0  0  0  0  0  0  0
    4.5981    2.6488    0.0000 O   0  0  0  0  0  0  0  0  0  0  0  0
    3.7320   -0.8512    0.0000 N   0  0  0  0  0  0  0  0  0  0  0  0
    7.1962   -1.8512    0.0000 N   0  0  0  0  0  0  0  0  0  0  0  0
    5.4641    1.1488    0.0000 N   0  0  0  0  0  0  0  0  0  0  0  0
    8.2788    5.3512    0.0000 N   0  0  0  0  0  0  0  0  0  0  0  0
   11.5263   -0.3512    0.0000 N   0  0  0  0  0  0  0  0  0  0  0  0
    3.7320   -1.8512    0.0000 C   0  0  2  0  0  0  0  0  0  0  0  0
    4.5981   -2.3512    0.0000 C   0  0  2  0  0  0  0  0  0  0  0  0
    5.4641   -1.8512    0.0000 C   0  0  0  0  0  0  0  0  0  0  0  0
    6.3301   -2.3512    0.0000 C   0  0  2  0  0  0  0  0  0  0  0  0
    2.8660   -2.3512    0.0000 C   0  0  0  0  0  0  0  0  0  0  0  0
    6.3301   -3.3512    0.0000 C   0  0  0  0  0  0  0  0  0  0  0  0
    4.5981    0.6488    0.0000 C   0  0  2  0  0  0  0  0  0  0  0  0
    4.5981   -0.3512    0.0000 C   0  0  0  0  0  0  0  0  0  0  0  0
    3.7320    1.1488    0.0000 C   0  0  0  0  0  0  0  0  0  0  0  0
    2.8660   -3.3512    0.0000 C   0  0  0  0  0  0  0  0  0  0  0  0
    7.1962   -3.8512    0.0000 C   0  0  0  0  0  0  0  0  0  0  0  0
    3.7320    2.1488    0.0000 C   0  0  0  0  0  0  0  0  0  0  0  0
    2.8660    0.6488    0.0000 C   0  0  0  0  0  0  0  0  0  0  0  0
    3.7320   -3.8512    0.0000 C   0  0  0  0  0  0  0  0  0  0  0  0
    2.0000   -3.8512    0.0000 C   0  0  0  0  0  0  0  0  0  0  0  0
    7.1962   -0.8512    0.0000 C   0  0  0  0  0  0  0  0  0  0  0  0
    8.0622   -3.3512    0.0000 C   0  0  0  0  0  0  0  0  0  0  0  0
    7.1962   -4.8512    0.0000 C   0  0  0  0  0  0  0  0  0  0  0  0
    3.7320   -4.8512    0.0000 C   0  0  0  0  0  0  0  0  0  0  0  0
    2.0000   -4.8512    0.0000 C   0  0  0  0  0  0  0  0  0  0  0  0
    5.4641    2.1488    0.0000 C   0  0  0  0  0  0  0  0  0  0  0  0
    8.9282   -3.8512    0.0000 C   0  0  0  0  0  0  0  0  0  0  0  0
    8.0622   -5.3512    0.0000 C   0  0  0  0  0  0  0  0  0  0  0  0
    2.8660   -5.3512    0.0000 C   0  0  0  0  0  0  0  0  0  0  0  0
    8.9282   -4.8512    0.0000 C   0  0  0  0  0  0  0  0  0  0  0  0
    8.9282   -0.8512    0.0000 C   0  0  0  0  0  0  0  0  0  0  0  0
    6.3301    3.6488    0.0000 C   0  0  0  0  0  0  0  0  0  0  0  0
    9.7942   -0.3512    0.0000 C   0  0  0  0  0  0  0  0  0  0  0  0
    7.1962    4.1488    0.0000 C   0  0  0  0  0  0  0  0  0  0  0  0
    9.7734    4.3807    0.0000 C   0  0  0  0  0  0  0  0  0  0  0  0
    9.7942    0.6488    0.0000 C   0  0  0  0  0  0  0  0  0  0  0  0
    8.7788    4.4852    0.0000 C   0  0  0  0  0  0  0  0  0  0  0  0
   10.6603   -0.8512    0.0000 C   0  0  0  0  0  0  0  0  0  0  0  0
    7.3007    5.1433    0.0000 C   0  0  0  0  0  0  0  0  0  0  0  0
   10.3611    5.1897    0.0000 C   0  0  0  0  0  0  0  0  0  0  0  0
   10.1801    3.4671    0.0000 C   0  0  0  0  0  0  0  0  0  0  0  0
   10.6603    1.1488    0.0000 C   0  0  0  0  0  0  0  0  0  0  0  0
   11.5263    0.6488    0.0000 C   0  0  0  0  0  0  0  0  0  0  0  0
    4.2690   -1.5412    0.0000 H   0  0  0  0  0  0  0  0  0  0  0  0
    5.1350   -2.6612    0.0000 H   0  0  0  0  0  0  0  0  0  0  0  0
    5.8626   -1.3763    0.0000 H   0  0  0  0  0  0  0  0  0  0  0  0
    5.0656   -1.3763    0.0000 H   0  0  0  0  0  0  0  0  0  0  0  0
    6.8671   -2.6612    0.0000 H   0  0  0  0  0  0  0  0  0  0  0  0
    2.6540   -1.7686    0.0000 H   0  0  0  0  0  0  0  0  0  0  0  0
    2.2554   -2.4589    0.0000 H   0  0  0  0  0  0  0  0  0  0  0  0
    3.1951   -0.5412    0.0000 H   0  0  0  0  0  0  0  0  0  0  0  0
    5.7196   -3.2436    0.0000 H   0  0  0  0  0  0  0  0  0  0  0  0
    6.1181   -3.9338    0.0000 H   0  0  0  0  0  0  0  0  0  0  0  0
    4.5981    1.2688    0.0000 H   0  0  0  0  0  0  0  0  0  0  0  0
    3.7320    0.5288    0.0000 H   0  0  0  0  0  0  0  0  0  0  0  0
    7.7331   -2.1612    0.0000 H   0  0  0  0  0  0  0  0  0  0  0  0
    5.1350   -3.6612    0.0000 H   0  0  0  0  0  0  0  0  0  0  0  0
    6.0010    0.8388    0.0000 H   0  0  0  0  0  0  0  0  0  0  0  0
    4.3520    2.1488    0.0000 H   0  0  0  0  0  0  0  0  0  0  0  0
    3.7320    2.7688    0.0000 H   0  0  0  0  0  0  0  0  0  0  0  0
    3.1120    2.1488    0.0000 H   0  0  0  0  0  0  0  0  0  0  0  0
    2.5560    1.1857    0.0000 H   0  0  0  0  0  0  0  0  0  0  0  0
    2.3291    0.3388    0.0000 H   0  0  0  0  0  0  0  0  0  0  0  0
    3.1760    0.1118    0.0000 H   0  0  0  0  0  0  0  0  0  0  0  0
    4.2690   -3.5412    0.0000 H   0  0  0  0  0  0  0  0  0  0  0  0
    1.4631   -3.5412    0.0000 H   0  0  0  0  0  0  0  0  0  0  0  0
    8.0622   -2.7312    0.0000 H   0  0  0  0  0  0  0  0  0  0  0  0
    6.6592   -5.1612    0.0000 H   0  0  0  0  0  0  0  0  0  0  0  0
    4.2690   -5.1612    0.0000 H   0  0  0  0  0  0  0  0  0  0  0  0
    1.4631   -5.1612    0.0000 H   0  0  0  0  0  0  0  0  0  0  0  0
    9.4651   -3.5412    0.0000 H   0  0  0  0  0  0  0  0  0  0  0  0
    8.0622   -5.9712    0.0000 H   0  0  0  0  0  0  0  0  0  0  0  0
    2.8660   -5.9712    0.0000 H   0  0  0  0  0  0  0  0  0  0  0  0
    9.4651   -5.1612    0.0000 H   0  0  0  0  0  0  0  0  0  0  0  0
    8.5297   -1.3262    0.0000 H   0  0  0  0  0  0  0  0  0  0  0  0
    9.3267   -1.3262    0.0000 H   0  0  0  0  0  0  0  0  0  0  0  0
    6.1181    4.2314    0.0000 H   0  0  0  0  0  0  0  0  0  0  0  0
    5.7196    3.5411    0.0000 H   0  0  0  0  0  0  0  0  0  0  0  0
   10.3900    4.3159    0.0000 H   0  0  0  0  0  0  0  0  0  0  0  0
    9.2573    0.9588    0.0000 H   0  0  0  0  0  0  0  0  0  0  0  0
   10.6603   -1.4712    0.0000 H   0  0  0  0  0  0  0  0  0  0  0  0
    6.8399    5.5582    0.0000 H   0  0  0  0  0  0  0  0  0  0  0  0
   10.8627    4.8252    0.0000 H   0  0  0  0  0  0  0  0  0  0  0  0
   10.7256    5.6913    0.0000 H   0  0  0  0  0  0  0  0  0  0  0  0
    9.8595    5.5541    0.0000 H   0  0  0  0  0  0  0  0  0  0  0  0
    9.6137    3.2149    0.0000 H   0  0  0  0  0  0  0  0  0  0  0  0
   10.4323    2.9007    0.0000 H   0  0  0  0  0  0  0  0  0  0  0  0
   10.7465    3.7193    0.0000 H   0  0  0  0  0  0  0  0  0  0  0  0
   10.6603    1.7688    0.0000 H   0  0  0  0  0  0  0  0  0  0  0  0
   12.0632    0.9588    0.0000 H   0  0  0  0  0  0  0  0  0  0  0  0
  1 41  1  0  0  0  0
  1 44  1  0  0  0  0
 14  2  1  6  0  0  0
  2 64  1  0  0  0  0
  3 20  2  0  0  0  0
  4 28  1  0  0  0  0
  4 38  1  0  0  0  0
  5 28  2  0  0  0  0
  6 33  1  0  0  0  0
  6 39  1  0  0  0  0
  7 33  2  0  0  0  0
 13  8  1  6  0  0  0
  8 20  1  0  0  0  0
  8 58  1  0  0  0  0
 16  9  1  1  0  0  0
  9 28  1  0  0  0  0
  9 63  1  0  0  0  0
 19 10  1  6  0  0  0
 10 33  1  0  0  0  0
 10 65  1  0  0  0  0
 11 44  2  0  0  0  0
 11 46  1  0  0  0  0
 12 45  1  0  0  0  0
 12 50  2  0  0  0  0
 13 14  1  0  0  0  0
 13 17  1  0  0  0  0
 13 51  1  0  0  0  0
 14 15  1  0  0  0  0
 14 52  1  0  0  0  0
 15 16  1  0  0  0  0
 15 53  1  0  0  0  0
 15 54  1  0  0  0  0
 16 18  1  0  0  0  0
 16 55  1  0  0  0  0
 17 22  1  0  0  0  0
 17 56  1  0  0  0  0
 17 57  1  0  0  0  0
 18 23  1  0  0  0  0
 18 59  1  0  0  0  0
 18 60  1  0  0  0  0
 19 20  1  0  0  0  0
 19 21  1  0  0  0  0
 19 61  1  0  0  0  0
 21 24  1  0  0  0  0
 21 25  1  0  0  0  0
 21 62  1  0  0  0  0
 22 26  2  0  0  0  0
 22 27  1  0  0  0  0
 23 29  2  0  0  0  0
 23 30  1  0  0  0  0
 24 66  1  0  0  0  0
 24 67  1  0  0  0  0
 24 68  1  0  0  0  0
 25 69  1  0  0  0  0
 25 70  1  0  0  0  0
 25 71  1  0  0  0  0
 26 31  1  0  0  0  0
 26 72  1  0  0  0  0
 27 32  2  0  0  0  0
 27 73  1  0  0  0  0
 29 34  1  0  0  0  0
 29 74  1  0  0  0  0
 30 35  2  0  0  0  0
 30 75  1  0  0  0  0
 31 36  2  0  0  0  0
 31 76  1  0  0  0  0
 32 36  1  0  0  0  0
 32 77  1  0  0  0  0
 34 37  2  0  0  0  0
 34 78  1  0  0  0  0
 35 37  1  0  0  0  0
 35 79  1  0  0  0  0
 36 80  1  0  0  0  0
 37 81  1  0  0  0  0
 38 40  1  0  0  0  0
 38 82  1  0  0  0  0
 38 83  1  0  0  0  0
 39 41  1  0  0  0  0
 39 84  1  0  0  0  0
 39 85  1  0  0  0  0
 40 43  1  0  0  0  0
 40 45  2  0  0  0  0
 41 46  2  0  0  0  0
 42 44  1  0  0  0  0
 42 47  1  0  0  0  0
 42 48  1  0  0  0  0
 42 86  1  0  0  0  0
 43 49  2  0  0  0  0
 43 87  1  0  0  0  0
 45 88  1  0  0  0  0
 46 89  1  0  0  0  0
 47 90  1  0  0  0  0
 47 91  1  0  0  0  0
 47 92  1  0  0  0  0
 48 93  1  0  0  0  0
 48 94  1  0  0  0  0
 48 95  1  0  0  0  0
 49 50  1  0  0  0  0
 49 96  1  0  0  0  0
 50 97  1  0  0  0  0
M  END
> <PUBCHEM_COMPOUND_CID>
515795
> <PUBCHEM_COMPOUND_CANONICALIZED>
1
> <PUBCHEM_CACTVS_COMPLEXITY>
1020
> <PUBCHEM_CACTVS_HBOND_ACCEPTOR>
9
> <PUBCHEM_CACTVS_HBOND_DONOR>
4
> <PUBCHEM_CACTVS_ROTATABLE_BOND>
19
> <PUBCHEM_CACTVS_SUBSKEYS>
AAADcfB/uABAAAAAAAAAAAAAAAAAAWAAAAA8YIAAAAAAAAAB9AAAHgQQCAAADTzh2gY+iZLIFgisAjF3XACC8KBxCjhI2K24bJkKdvLgsbmccAhm1gH46AeQ0PIOAAAAAAAAAAAAAAAAAAAAAAAAAAAAAA==
> <PUBCHEM_IUPAC_OPENEYE_NAME>
3-pyridylmethyl N-[(1S,3S,4S)-1-benzyl-3-hydroxy-4-[[(2S)-2-[(2-isopropylthiazol-5-yl)methoxycarbonylamino]-3-methyl-butanoyl]amino]-5-phenyl-pentyl]carbamate
> <PUBCHEM_IUPAC_CAS_NAME>
N-[(2S,4S,5S)-4-hydroxy-5-[[(2S)-3-methyl-1-oxo-2-[[oxo-[(2-propan-2-yl-5-thiazolyl)methoxy]methyl]amino]butyl]amino]-1,6-diphenylhexan-2-yl]carbamic acid 3-pyridinylmethyl ester
> <PUBCHEM_IUPAC_NAME_MARKUP>
(2-propan-2-yl-1,3-thiazol-5-yl)methyl <I>N</I>-[(2<I>S</I>)-1-[[(2<I>S</I>,3<I>S</I>,5<I>S</I>)-3-hydroxy-1,6-diphenyl-5-(pyridin-3-ylmethoxycarbonylamino)hexan-2-yl]amino]-3-methyl-1-oxobutan-2-yl]carbamate
> <PUBCHEM_IUPAC_NAME>
(2-propan-2-yl-1,3-thiazol-5-yl)methyl N-[(2S)-1-[[(2S,3S,5S)-3-hydroxy-1,6-diphenyl-5-(pyridin-3-ylmethoxycarbonylamino)hexan-2-yl]amino]-3-methyl-1-oxobutan-2-yl]carbamate
> <PUBCHEM_IUPAC_SYSTEMATIC_NAME>
(2-propan-2-yl-1,3-thiazol-5-yl)methyl N-[(2S)-3-methyl-1-[[(2S,3S,5S)-3-oxidanyl-1,6-diphenyl-5-(pyridin-3-ylmethoxycarbonylamino)hexan-2-yl]amino]-1-oxidanylidene-butan-2-yl]carbamate
> <PUBCHEM_IUPAC_TRADITIONAL_NAME>
N-[(1S,3S,4S)-1-benzyl-3-hydroxy-4-[[(2S)-2-[(2-isopropylthiazol-5-yl)methoxycarbonylamino]-3-methyl-butanoyl]amino]-5-phenyl-pentyl]carbamic acid 3-pyridylmethyl ester
> <PUBCHEM_IUPAC_INCHI>
InChI=1S/C38H47N5O6S/c1-25(2)34(43-38(47)49-24-31-22-40-36(50-31)26(3)4)35(45)42-32(19-28-14-9-6-10-15-28)33(44)20-30(18-27-12-7-5-8-13-27)41-37(46)48-23-29-16-11-17-39-21-29/h5-17,21-22,25-26,30,32-34,44H,18-20,23-24H2,1-4H3,(H,41,46)(H,42,45)(H,43,47)/t30-,32-,33-,34-/m0/s1
> <PUBCHEM_IUPAC_INCHIKEY>
IUSOOOQOLLDRQC-DYTOPAQESA-N
> <PUBCHEM_XLOGP3_AA>
6.3
> <PUBCHEM_EXACT_MASS>
701.32470541
> <PUBCHEM_MOLECULAR_FORMULA>
C38H47N5O6S
> <PUBCHEM_MOLECULAR_WEIGHT>
701.9
> <PUBCHEM_OPENEYE_CAN_SMILES>
CC(C)C1=NC=C(S1)COC(=O)NC(C(C)C)C(=O)NC(CC2=CC=CC=C2)C(CC(CC3=CC=CC=C3)NC(=O)OCC4=CN=CC=C4)O
> <PUBCHEM_OPENEYE_ISO_SMILES>
CC(C)C1=NC=C(S1)COC(=O)N[C@@H](C(C)C)C(=O)N[C@@H](CC2=CC=CC=C2)[C@H](C[C@H](CC3=CC=CC=C3)NC(=O)OCC4=CN=CC=C4)O
> <PUBCHEM_CACTVS_TPSA>
180
> <PUBCHEM_MONOISOTOPIC_WEIGHT>
701.32470541
> <PUBCHEM_TOTAL_CHARGE>
0
> <PUBCHEM_HEAVY_ATOM_COUNT>
50
> <PUBCHEM_ATOM_DEF_STEREO_COUNT>
4
> <PUBCHEM_ATOM_UDEF_STEREO_COUNT>
0
> <PUBCHEM_BOND_DEF_STEREO_COUNT>
0
> <PUBCHEM_BOND_UDEF_STEREO_COUNT>
0
> <PUBCHEM_ISOTOPIC_ATOM_COUNT>
0
> <PUBCHEM_COMPONENT_COUNT>
1
> <PUBCHEM_CACTVS_TAUTO_COUNT>
-1
> <PUBCHEM_COORDINATE_TYPE>
1
5
255
> <PUBCHEM_BONDANNOTATIONS>
1  41  8
1  44  8
19  10  6
11  44  8
11  46  8
12  45  8
12  50  8
14  2  6
22  26  8
22  27  8
23  29  8
23  30  8
26  31  8
27  32  8
29  34  8
30  35  8
31  36  8
32  36  8
34  37  8
35  37  8
40  43  8
40  45  8
41  46  8
43  49  8
49  50  8
13  8  6
16  9  5
$$$$
