515752
  -OEChem-10302200282D
 93 96  0     1  0  0  0  0  0999 V2000
    8.0622   -4.1550    0.0000 O   0  0  0  0  0  0  0  0  0  0  0  0
   10.6603   -1.6550    0.0000 O   0  0  0  0  0  0  0  0  0  0  0  0
    4.5981   -1.1550    0.0000 O   0  0  0  0  0  0  0  0  0  0  0  0
    6.3301   -1.1550    0.0000 O   0  0  0  0  0  0  0  0  0  0  0  0
   11.5263    1.8450    0.0000 O   0  0  0  0  0  0  0  0  0  0  0  0
    9.7942    1.8450    0.0000 O   0  0  0  0  0  0  0  0  0  0  0  0
    8.9282   -1.6550    0.0000 N   0  0  0  0  0  0  0  0  0  0  0  0
    5.4641   -2.6550    0.0000 N   0  0  0  0  0  0  0  0  0  0  0  0
   10.6603    0.3450    0.0000 N   0  0  0  0  0  0  0  0  0  0  0  0
    2.0000    0.3450    0.0000 N   0  0  0  0  0  0  0  0  0  0  0  0
   14.1244    3.3450    0.0000 N   0  0  0  0  0  0  0  0  0  0  0  0
   13.2583    5.8450    0.0000 N   0  0  0  0  0  0  0  0  0  0  0  0
    8.9282   -2.6550    0.0000 C   0  0  2  0  0  0  0  0  0  0  0  0
    8.0622   -3.1550    0.0000 C   0  0  2  0  0  0  0  0  0  0  0  0
    7.1962   -2.6550    0.0000 C   0  0  0  0  0  0  0  0  0  0  0  0
    6.3301   -3.1550    0.0000 C   0  0  2  0  0  0  0  0  0  0  0  0
    9.7942   -3.1550    0.0000 C   0  0  0  0  0  0  0  0  0  0  0  0
    6.3301   -4.1550    0.0000 C   0  0  0  0  0  0  0  0  0  0  0  0
    9.7942   -0.1550    0.0000 C   0  0  2  0  0  0  0  0  0  0  0  0
    9.7942   -1.1550    0.0000 C   0  0  0  0  0  0  0  0  0  0  0  0
    8.9282    0.3450    0.0000 C   0  0  0  0  0  0  0  0  0  0  0  0
    9.7942   -4.1550    0.0000 C   0  0  0  0  0  0  0  0  0  0  0  0
    5.4641   -4.6550    0.0000 C   0  0  0  0  0  0  0  0  0  0  0  0
    8.0622   -0.1550    0.0000 C   0  0  0  0  0  0  0  0  0  0  0  0
    8.9282    1.3450    0.0000 C   0  0  0  0  0  0  0  0  0  0  0  0
    8.9282   -4.6550    0.0000 C   0  0  0  0  0  0  0  0  0  0  0  0
   10.6603   -4.6550    0.0000 C   0  0  0  0  0  0  0  0  0  0  0  0
    5.4641   -1.6550    0.0000 C   0  0  0  0  0  0  0  0  0  0  0  0
    5.4641   -5.6550    0.0000 C   0  0  0  0  0  0  0  0  0  0  0  0
    4.5981   -4.1550    0.0000 C   0  0  0  0  0  0  0  0  0  0  0  0
    8.9282   -5.6550    0.0000 C   0  0  0  0  0  0  0  0  0  0  0  0
   10.6603   -5.6550    0.0000 C   0  0  0  0  0  0  0  0  0  0  0  0
   10.6603    1.3450    0.0000 C   0  0  0  0  0  0  0  0  0  0  0  0
    4.5981   -6.1550    0.0000 C   0  0  0  0  0  0  0  0  0  0  0  0
    3.7320   -4.6550    0.0000 C   0  0  0  0  0  0  0  0  0  0  0  0
    9.7942   -6.1550    0.0000 C   0  0  0  0  0  0  0  0  0  0  0  0
    3.7320   -5.6550    0.0000 C   0  0  0  0  0  0  0  0  0  0  0  0
    4.5981   -0.1550    0.0000 C   0  0  0  0  0  0  0  0  0  0  0  0
   11.5263    2.8450    0.0000 C   0  0  0  0  0  0  0  0  0  0  0  0
    3.7320    0.3450    0.0000 C   0  0  0  0  0  0  0  0  0  0  0  0
   12.3923    3.3450    0.0000 C   0  0  0  0  0  0  0  0  0  0  0  0
    3.7320    1.3450    0.0000 C   0  0  0  0  0  0  0  0  0  0  0  0
    2.8660   -0.1550    0.0000 C   0  0  0  0  0  0  0  0  0  0  0  0
   12.3923    4.3450    0.0000 C   0  0  0  0  0  0  0  0  0  0  0  0
   13.2583    2.8450    0.0000 C   0  0  0  0  0  0  0  0  0  0  0  0
    2.8660    1.8450    0.0000 C   0  0  0  0  0  0  0  0  0  0  0  0
   13.2583    4.8450    0.0000 C   0  0  0  0  0  0  0  0  0  0  0  0
    2.0000    1.3450    0.0000 C   0  0  0  0  0  0  0  0  0  0  0  0
   14.1244    4.3450    0.0000 C   0  0  0  0  0  0  0  0  0  0  0  0
    9.4651   -2.3450    0.0000 H   0  0  0  0  0  0  0  0  0  0  0  0
    7.5252   -3.4650    0.0000 H   0  0  0  0  0  0  0  0  0  0  0  0
    7.5947   -2.1800    0.0000 H   0  0  0  0  0  0  0  0  0  0  0  0
    6.7976   -2.1800    0.0000 H   0  0  0  0  0  0  0  0  0  0  0  0
    5.7932   -3.4650    0.0000 H   0  0  0  0  0  0  0  0  0  0  0  0
   10.4048   -3.2627    0.0000 H   0  0  0  0  0  0  0  0  0  0  0  0
   10.0063   -2.5724    0.0000 H   0  0  0  0  0  0  0  0  0  0  0  0
    8.3913   -1.3450    0.0000 H   0  0  0  0  0  0  0  0  0  0  0  0
    6.5422   -4.7376    0.0000 H   0  0  0  0  0  0  0  0  0  0  0  0
    6.9407   -4.0473    0.0000 H   0  0  0  0  0  0  0  0  0  0  0  0
   10.3312   -0.4650    0.0000 H   0  0  0  0  0  0  0  0  0  0  0  0
    9.4651    0.6550    0.0000 H   0  0  0  0  0  0  0  0  0  0  0  0
    4.9272   -2.9650    0.0000 H   0  0  0  0  0  0  0  0  0  0  0  0
    7.5252   -4.4650    0.0000 H   0  0  0  0  0  0  0  0  0  0  0  0
   11.1972    0.0350    0.0000 H   0  0  0  0  0  0  0  0  0  0  0  0
    7.7522    0.3819    0.0000 H   0  0  0  0  0  0  0  0  0  0  0  0
    7.5252   -0.4650    0.0000 H   0  0  0  0  0  0  0  0  0  0  0  0
    8.3722   -0.6919    0.0000 H   0  0  0  0  0  0  0  0  0  0  0  0
    9.5482    1.3450    0.0000 H   0  0  0  0  0  0  0  0  0  0  0  0
    8.9282    1.9650    0.0000 H   0  0  0  0  0  0  0  0  0  0  0  0
    8.3082    1.3450    0.0000 H   0  0  0  0  0  0  0  0  0  0  0  0
    8.3913   -4.3450    0.0000 H   0  0  0  0  0  0  0  0  0  0  0  0
   11.1972   -4.3450    0.0000 H   0  0  0  0  0  0  0  0  0  0  0  0
    6.0010   -5.9650    0.0000 H   0  0  0  0  0  0  0  0  0  0  0  0
    4.5981   -3.5350    0.0000 H   0  0  0  0  0  0  0  0  0  0  0  0
    8.3913   -5.9650    0.0000 H   0  0  0  0  0  0  0  0  0  0  0  0
   11.1972   -5.9650    0.0000 H   0  0  0  0  0  0  0  0  0  0  0  0
    4.5981   -6.7750    0.0000 H   0  0  0  0  0  0  0  0  0  0  0  0
    3.1951   -4.3450    0.0000 H   0  0  0  0  0  0  0  0  0  0  0  0
    9.7942   -6.7750    0.0000 H   0  0  0  0  0  0  0  0  0  0  0  0
    3.1951   -5.9650    0.0000 H   0  0  0  0  0  0  0  0  0  0  0  0
    5.2087   -0.2627    0.0000 H   0  0  0  0  0  0  0  0  0  0  0  0
    4.8101    0.4276    0.0000 H   0  0  0  0  0  0  0  0  0  0  0  0
   11.3142    3.4276    0.0000 H   0  0  0  0  0  0  0  0  0  0  0  0
   10.9157    2.7373    0.0000 H   0  0  0  0  0  0  0  0  0  0  0  0
    4.2690    1.6550    0.0000 H   0  0  0  0  0  0  0  0  0  0  0  0
    2.8660   -0.7750    0.0000 H   0  0  0  0  0  0  0  0  0  0  0  0
   11.8554    4.6550    0.0000 H   0  0  0  0  0  0  0  0  0  0  0  0
   13.2583    2.2250    0.0000 H   0  0  0  0  0  0  0  0  0  0  0  0
    2.8660    2.4650    0.0000 H   0  0  0  0  0  0  0  0  0  0  0  0
    1.4631    1.6550    0.0000 H   0  0  0  0  0  0  0  0  0  0  0  0
   14.6613    4.6550    0.0000 H   0  0  0  0  0  0  0  0  0  0  0  0
   13.7953    6.1550    0.0000 H   0  0  0  0  0  0  0  0  0  0  0  0
   12.7214    6.1550    0.0000 H   0  0  0  0  0  0  0  0  0  0  0  0
 14  1  1  1  0  0  0
  1 63  1  0  0  0  0
  2 20  2  0  0  0  0
  3 28  1  0  0  0  0
  3 38  1  0  0  0  0
  4 28  2  0  0  0  0
  5 33  1  0  0  0  0
  5 39  1  0  0  0  0
  6 33  2  0  0  0  0
 13  7  1  1  0  0  0
  7 20  1  0  0  0  0
  7 57  1  0  0  0  0
 16  8  1  6  0  0  0
  8 28  1  0  0  0  0
  8 62  1  0  0  0  0
 19  9  1  6  0  0  0
  9 33  1  0  0  0  0
  9 64  1  0  0  0  0
 10 43  1  0  0  0  0
 10 48  2  0  0  0  0
 11 45  2  0  0  0  0
 11 49  1  0  0  0  0
 12 47  1  0  0  0  0
 12 92  1  0  0  0  0
 12 93  1  0  0  0  0
 13 14  1  0  0  0  0
 13 17  1  0  0  0  0
 13 50  1  0  0  0  0
 14 15  1  0  0  0  0
 14 51  1  0  0  0  0
 15 16  1  0  0  0  0
 15 52  1  0  0  0  0
 15 53  1  0  0  0  0
 16 18  1  0  0  0  0
 16 54  1  0  0  0  0
 17 22  1  0  0  0  0
 17 55  1  0  0  0  0
 17 56  1  0  0  0  0
 18 23  1  0  0  0  0
 18 58  1  0  0  0  0
 18 59  1  0  0  0  0
 19 20  1  0  0  0  0
 19 21  1  0  0  0  0
 19 60  1  0  0  0  0
 21 24  1  0  0  0  0
 21 25  1  0  0  0  0
 21 61  1  0  0  0  0
 22 26  2  0  0  0  0
 22 27  1  0  0  0  0
 23 29  2  0  0  0  0
 23 30  1  0  0  0  0
 24 65  1  0  0  0  0
 24 66  1  0  0  0  0
 24 67  1  0  0  0  0
 25 68  1  0  0  0  0
 25 69  1  0  0  0  0
 25 70  1  0  0  0  0
 26 31  1  0  0  0  0
 26 71  1  0  0  0  0
 27 32  2  0  0  0  0
 27 72  1  0  0  0  0
 29 34  1  0  0  0  0
 29 73  1  0  0  0  0
 30 35  2  0  0  0  0
 30 74  1  0  0  0  0
 31 36  2  0  0  0  0
 31 75  1  0  0  0  0
 32 36  1  0  0  0  0
 32 76  1  0  0  0  0
 34 37  2  0  0  0  0
 34 77  1  0  0  0  0
 35 37  1  0  0  0  0
 35 78  1  0  0  0  0
 36 79  1  0  0  0  0
 37 80  1  0  0  0  0
 38 40  1  0  0  0  0
 38 81  1  0  0  0  0
 38 82  1  0  0  0  0
 39 41  1  0  0  0  0
 39 83  1  0  0  0  0
 39 84  1  0  0  0  0
 40 42  1  0  0  0  0
 40 43  2  0  0  0  0
 41 44  2  0  0  0  0
 41 45  1  0  0  0  0
 42 46  2  0  0  0  0
 42 85  1  0  0  0  0
 43 86  1  0  0  0  0
 44 47  1  0  0  0  0
 44 87  1  0  0  0  0
 45 88  1  0  0  0  0
 46 48  1  0  0  0  0
 46 89  1  0  0  0  0
 47 49  2  0  0  0  0
 48 90  1  0  0  0  0
 49 91  1  0  0  0  0
M  END
> <PUBCHEM_COMPOUND_CID>
515752
> <PUBCHEM_COMPOUND_CANONICALIZED>
1
> <PUBCHEM_CACTVS_COMPLEXITY>
990
> <PUBCHEM_CACTVS_HBOND_ACCEPTOR>
9
> <PUBCHEM_CACTVS_HBOND_DONOR>
5
> <PUBCHEM_CACTVS_ROTATABLE_BOND>
18
> <PUBCHEM_CACTVS_SUBSKEYS>
AAADcfB/uAAAAAAAAAAAAAAAAAAAAAAAAAA8eIEAAAAAAAAB9AAAHgAQCAAADTzhmgY+yJLIFgCoAjV3XACCgCAxEiAI2KG4fJkKdvLAsbmccAhm1gHY6Aew0PIOAAAAAAAAAAAAAAAAAAAAAAAAAAAAAA==
> <PUBCHEM_IUPAC_OPENEYE_NAME>
3-pyridylmethyl N-[(1S,3S,4S)-4-[[(2S)-2-[(5-amino-3-pyridyl)methoxycarbonylamino]-3-methyl-butanoyl]amino]-1-benzyl-3-hydroxy-5-phenyl-pentyl]carbamate
> <PUBCHEM_IUPAC_CAS_NAME>
N-[(2S,4S,5S)-5-[[(2S)-2-[[(5-amino-3-pyridinyl)methoxy-oxomethyl]amino]-3-methyl-1-oxobutyl]amino]-4-hydroxy-1,6-diphenylhexan-2-yl]carbamic acid 3-pyridinylmethyl ester
> <PUBCHEM_IUPAC_NAME_MARKUP>
pyridin-3-ylmethyl <I>N</I>-[(2<I>S</I>,4<I>S</I>,5<I>S</I>)-5-[[(2<I>S</I>)-2-[(5-aminopyridin-3-yl)methoxycarbonylamino]-3-methylbutanoyl]amino]-4-hydroxy-1,6-diphenylhexan-2-yl]carbamate
> <PUBCHEM_IUPAC_NAME>
pyridin-3-ylmethyl N-[(2S,4S,5S)-5-[[(2S)-2-[(5-aminopyridin-3-yl)methoxycarbonylamino]-3-methylbutanoyl]amino]-4-hydroxy-1,6-diphenylhexan-2-yl]carbamate
> <PUBCHEM_IUPAC_SYSTEMATIC_NAME>
pyridin-3-ylmethyl N-[(2S,4S,5S)-5-[[(2S)-2-[(5-azanylpyridin-3-yl)methoxycarbonylamino]-3-methyl-butanoyl]amino]-4-oxidanyl-1,6-diphenyl-hexan-2-yl]carbamate
> <PUBCHEM_IUPAC_TRADITIONAL_NAME>
N-[(1S,3S,4S)-4-[[(2S)-2-[(5-amino-3-pyridyl)methoxycarbonylamino]-3-methyl-butanoyl]amino]-1-benzyl-3-hydroxy-5-phenyl-pentyl]carbamic acid 3-pyridylmethyl ester
> <PUBCHEM_IUPAC_INCHI>
InChI=1S/C37H44N6O6/c1-25(2)34(43-37(47)49-24-29-16-30(38)22-40-21-29)35(45)42-32(18-27-12-7-4-8-13-27)33(44)19-31(17-26-10-5-3-6-11-26)41-36(46)48-23-28-14-9-15-39-20-28/h3-16,20-22,25,31-34,44H,17-19,23-24,38H2,1-2H3,(H,41,46)(H,42,45)(H,43,47)/t31-,32-,33-,34-/m0/s1
> <PUBCHEM_IUPAC_INCHIKEY>
WAEXALVFHNFXRG-CUPIEXAXSA-N
> <PUBCHEM_XLOGP3_AA>
4.3
> <PUBCHEM_EXACT_MASS>
668.33223314
> <PUBCHEM_MOLECULAR_FORMULA>
C37H44N6O6
> <PUBCHEM_MOLECULAR_WEIGHT>
668.8
> <PUBCHEM_OPENEYE_CAN_SMILES>
CC(C)C(C(=O)NC(CC1=CC=CC=C1)C(CC(CC2=CC=CC=C2)NC(=O)OCC3=CN=CC=C3)O)NC(=O)OCC4=CC(=CN=C4)N
> <PUBCHEM_OPENEYE_ISO_SMILES>
CC(C)[C@@H](C(=O)N[C@@H](CC1=CC=CC=C1)[C@H](C[C@H](CC2=CC=CC=C2)NC(=O)OCC3=CN=CC=C3)O)NC(=O)OCC4=CC(=CN=C4)N
> <PUBCHEM_CACTVS_TPSA>
178
> <PUBCHEM_MONOISOTOPIC_WEIGHT>
668.33223314
> <PUBCHEM_TOTAL_CHARGE>
0
> <PUBCHEM_HEAVY_ATOM_COUNT>
49
> <PUBCHEM_ATOM_DEF_STEREO_COUNT>
4
> <PUBCHEM_ATOM_UDEF_STEREO_COUNT>
0
> <PUBCHEM_BOND_DEF_STEREO_COUNT>
0
> <PUBCHEM_BOND_UDEF_STEREO_COUNT>
0
> <PUBCHEM_ISOTOPIC_ATOM_COUNT>
0
> <PUBCHEM_COMPONENT_COUNT>
1
> <PUBCHEM_CACTVS_TAUTO_COUNT>
-1
> <PUBCHEM_COORDINATE_TYPE>
1
5
255
> <PUBCHEM_BONDANNOTATIONS>
14  1  5
10  43  8
10  48  8
11  45  8
11  49  8
22  26  8
22  27  8
23  29  8
23  30  8
26  31  8
27  32  8
29  34  8
30  35  8
31  36  8
32  36  8
34  37  8
35  37  8
40  42  8
40  43  8
41  44  8
41  45  8
42  46  8
44  47  8
46  48  8
47  49  8
13  7  5
16  8  6
19  9  6
$$$$
