515713
  -OEChem-10302200282D
 41 42  0     1  0  0  0  0  0999 V2000
    5.4641    0.6356    0.0000 O   0  0  0  0  0  0  0  0  0  0  0  0
    5.4641   -0.3644    0.0000 O   0  0  0  0  0  0  0  0  0  0  0  0
    4.5981   -1.8644    0.0000 O   0  0  0  0  0  0  0  0  0  0  0  0
    2.8660   -4.8644    0.0000 O   0  0  0  0  0  0  0  0  0  0  0  0
    3.7320    0.6356    0.0000 N   0  0  0  0  0  0  0  0  0  0  0  0
    3.7320    2.6356    0.0000 N   0  0  0  0  0  0  0  0  0  0  0  0
    4.6551    4.2234    0.0000 N   0  0  0  0  0  0  0  0  0  0  0  0
    5.9641    5.1744    0.0000 N   0  0  0  0  0  0  0  0  0  0  0  0
    3.7320   -0.3644    0.0000 C   0  0  1  0  0  0  0  0  0  0  0  0
    4.5981    2.1356    0.0000 C   0  0  1  0  0  0  0  0  0  0  0  0
    2.8660   -0.8644    0.0000 C   0  0  0  0  0  0  0  0  0  0  0  0
    5.4641    2.6356    0.0000 C   0  0  0  0  0  0  0  0  0  0  0  0
    4.5981    1.1356    0.0000 C   0  0  0  0  0  0  0  0  0  0  0  0
    2.8660   -1.8644    0.0000 C   0  0  0  0  0  0  0  0  0  0  0  0
    5.4641    3.6356    0.0000 C   0  0  0  0  0  0  0  0  0  0  0  0
    4.5981   -0.8644    0.0000 C   0  0  0  0  0  0  0  0  0  0  0  0
    3.7320   -2.3644    0.0000 C   0  0  0  0  0  0  0  0  0  0  0  0
    2.0000   -2.3644    0.0000 C   0  0  0  0  0  0  0  0  0  0  0  0
    6.2731    4.2234    0.0000 C   0  0  0  0  0  0  0  0  0  0  0  0
    3.7320   -3.3644    0.0000 C   0  0  0  0  0  0  0  0  0  0  0  0
    2.0000   -3.3644    0.0000 C   0  0  0  0  0  0  0  0  0  0  0  0
    2.8660   -3.8644    0.0000 C   0  0  0  0  0  0  0  0  0  0  0  0
    4.9641    5.1744    0.0000 C   0  0  0  0  0  0  0  0  0  0  0  0
    4.2690   -0.0544    0.0000 H   0  0  0  0  0  0  0  0  0  0  0  0
    4.5981    2.7556    0.0000 H   0  0  0  0  0  0  0  0  0  0  0  0
    2.6540   -0.2818    0.0000 H   0  0  0  0  0  0  0  0  0  0  0  0
    2.2554   -0.9721    0.0000 H   0  0  0  0  0  0  0  0  0  0  0  0
    5.6762    2.0530    0.0000 H   0  0  0  0  0  0  0  0  0  0  0  0
    6.0747    2.7432    0.0000 H   0  0  0  0  0  0  0  0  0  0  0  0
    3.1951    0.9456    0.0000 H   0  0  0  0  0  0  0  0  0  0  0  0
    3.7320    3.2556    0.0000 H   0  0  0  0  0  0  0  0  0  0  0  0
    3.1951    2.3256    0.0000 H   0  0  0  0  0  0  0  0  0  0  0  0
    4.2690   -2.0544    0.0000 H   0  0  0  0  0  0  0  0  0  0  0  0
    1.4631   -2.0544    0.0000 H   0  0  0  0  0  0  0  0  0  0  0  0
    4.0654    4.0318    0.0000 H   0  0  0  0  0  0  0  0  0  0  0  0
    6.8628    4.0318    0.0000 H   0  0  0  0  0  0  0  0  0  0  0  0
    4.2690   -3.6744    0.0000 H   0  0  0  0  0  0  0  0  0  0  0  0
    1.4631   -3.6744    0.0000 H   0  0  0  0  0  0  0  0  0  0  0  0
    4.5997    5.6760    0.0000 H   0  0  0  0  0  0  0  0  0  0  0  0
    6.0010   -0.6744    0.0000 H   0  0  0  0  0  0  0  0  0  0  0  0
    2.3291   -5.1744    0.0000 H   0  0  0  0  0  0  0  0  0  0  0  0
  1 13  2  0  0  0  0
  2 16  1  0  0  0  0
  2 40  1  0  0  0  0
  3 16  2  0  0  0  0
  4 22  1  0  0  0  0
  4 41  1  0  0  0  0
  9  5  1  6  0  0  0
  5 13  1  0  0  0  0
  5 30  1  0  0  0  0
 10  6  1  1  0  0  0
  6 31  1  0  0  0  0
  6 32  1  0  0  0  0
  7 15  1  0  0  0  0
  7 23  1  0  0  0  0
  7 35  1  0  0  0  0
  8 19  1  0  0  0  0
  8 23  2  0  0  0  0
  9 11  1  0  0  0  0
  9 16  1  0  0  0  0
  9 24  1  0  0  0  0
 10 12  1  0  0  0  0
 10 13  1  0  0  0  0
 10 25  1  0  0  0  0
 11 14  1  0  0  0  0
 11 26  1  0  0  0  0
 11 27  1  0  0  0  0
 12 15  1  0  0  0  0
 12 28  1  0  0  0  0
 12 29  1  0  0  0  0
 14 17  2  0  0  0  0
 14 18  1  0  0  0  0
 15 19  2  0  0  0  0
 17 20  1  0  0  0  0
 17 33  1  0  0  0  0
 18 21  2  0  0  0  0
 18 34  1  0  0  0  0
 19 36  1  0  0  0  0
 20 22  2  0  0  0  0
 20 37  1  0  0  0  0
 21 22  1  0  0  0  0
 21 38  1  0  0  0  0
 23 39  1  0  0  0  0
M  END
> <PUBCHEM_COMPOUND_CID>
515713
> <PUBCHEM_COMPOUND_CANONICALIZED>
1
> <PUBCHEM_CACTVS_COMPLEXITY>
412
> <PUBCHEM_CACTVS_HBOND_ACCEPTOR>
6
> <PUBCHEM_CACTVS_HBOND_DONOR>
5
> <PUBCHEM_CACTVS_ROTATABLE_BOND>
7
> <PUBCHEM_CACTVS_SUBSKEYS>
AAADceBzuAAAAAAAAAAAAAAAAAAAAWAAAAAwAAAAAAAAAAABwAAAHgAQCAAADCzBngQ9npbJkgCoAzX3fAACgC2xMqAJ2YG+eIiKbjLC2TOUcAAs1hPY2CecyaCOIAAAAAAAAABAAAAAAAAAAAAAAAAAAA==
> <PUBCHEM_IUPAC_OPENEYE_NAME>
(2S)-2-[[(2S)-2-amino-3-(1H-imidazol-5-yl)propanoyl]amino]-3-(4-hydroxyphenyl)propanoic acid
> <PUBCHEM_IUPAC_CAS_NAME>
(2S)-2-[[(2S)-2-amino-3-(1H-imidazol-5-yl)-1-oxopropyl]amino]-3-(4-hydroxyphenyl)propanoic acid
> <PUBCHEM_IUPAC_NAME_MARKUP>
(2<I>S</I>)-2-[[(2<I>S</I>)-2-amino-3-(1<I>H</I>-imidazol-5-yl)propanoyl]amino]-3-(4-hydroxyphenyl)propanoic acid
> <PUBCHEM_IUPAC_NAME>
(2S)-2-[[(2S)-2-amino-3-(1H-imidazol-5-yl)propanoyl]amino]-3-(4-hydroxyphenyl)propanoic acid
> <PUBCHEM_IUPAC_SYSTEMATIC_NAME>
(2S)-2-[[(2S)-2-azanyl-3-(1H-imidazol-5-yl)propanoyl]amino]-3-(4-hydroxyphenyl)propanoic acid
> <PUBCHEM_IUPAC_TRADITIONAL_NAME>
(2S)-2-[[(2S)-2-amino-3-(1H-imidazol-5-yl)propanoyl]amino]-3-(4-hydroxyphenyl)propionic acid
> <PUBCHEM_IUPAC_INCHI>
InChI=1S/C15H18N4O4/c16-12(6-10-7-17-8-18-10)14(21)19-13(15(22)23)5-9-1-3-11(20)4-2-9/h1-4,7-8,12-13,20H,5-6,16H2,(H,17,18)(H,19,21)(H,22,23)/t12-,13-/m0/s1
> <PUBCHEM_IUPAC_INCHIKEY>
HTOOKGDPMXSJSY-STQMWFEESA-N
> <PUBCHEM_XLOGP3>
-3.5
> <PUBCHEM_EXACT_MASS>
318.13280507
> <PUBCHEM_MOLECULAR_FORMULA>
C15H18N4O4
> <PUBCHEM_MOLECULAR_WEIGHT>
318.33
> <PUBCHEM_OPENEYE_CAN_SMILES>
C1=CC(=CC=C1CC(C(=O)O)NC(=O)C(CC2=CN=CN2)N)O
> <PUBCHEM_OPENEYE_ISO_SMILES>
C1=CC(=CC=C1C[C@@H](C(=O)O)NC(=O)[C@H](CC2=CN=CN2)N)O
> <PUBCHEM_CACTVS_TPSA>
141
> <PUBCHEM_MONOISOTOPIC_WEIGHT>
318.13280507
> <PUBCHEM_TOTAL_CHARGE>
0
> <PUBCHEM_HEAVY_ATOM_COUNT>
23
> <PUBCHEM_ATOM_DEF_STEREO_COUNT>
2
> <PUBCHEM_ATOM_UDEF_STEREO_COUNT>
0
> <PUBCHEM_BOND_DEF_STEREO_COUNT>
0
> <PUBCHEM_BOND_UDEF_STEREO_COUNT>
0
> <PUBCHEM_ISOTOPIC_ATOM_COUNT>
0
> <PUBCHEM_COMPONENT_COUNT>
1
> <PUBCHEM_CACTVS_TAUTO_COUNT>
-1
> <PUBCHEM_COORDINATE_TYPE>
1
5
255
> <PUBCHEM_BONDANNOTATIONS>
14  17  8
14  18  8
15  19  8
17  20  8
18  21  8
20  22  8
21  22  8
9  5  6
10  6  5
7  15  8
7  23  8
8  19  8
8  23  8
$$$$
