515799
  -OEChem-10302200282D
 95 98  0     1  0  0  0  0  0999 V2000
    7.3007    3.8252    0.0000 S   0  0  0  0  0  0  0  0  0  0  0  0
    4.5981   -4.6693    0.0000 O   0  0  0  0  0  0  0  0  0  0  0  0
    5.4641   -2.1693    0.0000 O   0  0  0  0  0  0  0  0  0  0  0  0
    8.0622   -1.6693    0.0000 O   0  0  0  0  0  0  0  0  0  0  0  0
    6.3301   -1.6693    0.0000 O   0  0  0  0  0  0  0  0  0  0  0  0
    6.3301    1.3307    0.0000 O   0  0  0  0  0  0  0  0  0  0  0  0
    4.5981    1.3307    0.0000 O   0  0  0  0  0  0  0  0  0  0  0  0
    8.0978    5.7557    0.0000 O   0  0  0  0  0  0  0  0  0  0  0  0
    3.7320   -2.1693    0.0000 N   0  0  0  0  0  0  0  0  0  0  0  0
    7.1962   -3.1693    0.0000 N   0  0  0  0  0  0  0  0  0  0  0  0
    5.4641   -0.1693    0.0000 N   0  0  0  0  0  0  0  0  0  0  0  0
   11.5263   -1.6693    0.0000 N   0  0  0  0  0  0  0  0  0  0  0  0
    8.7788    3.1671    0.0000 N   0  0  0  0  0  0  0  0  0  0  0  0
    3.7320   -3.1693    0.0000 C   0  0  2  0  0  0  0  0  0  0  0  0
    4.5981   -3.6693    0.0000 C   0  0  2  0  0  0  0  0  0  0  0  0
    5.4641   -3.1693    0.0000 C   0  0  0  0  0  0  0  0  0  0  0  0
    6.3301   -3.6693    0.0000 C   0  0  2  0  0  0  0  0  0  0  0  0
    2.8660   -3.6693    0.0000 C   0  0  0  0  0  0  0  0  0  0  0  0
    6.3301   -4.6693    0.0000 C   0  0  0  0  0  0  0  0  0  0  0  0
    4.5981   -0.6693    0.0000 C   0  0  2  0  0  0  0  0  0  0  0  0
    4.5981   -1.6693    0.0000 C   0  0  0  0  0  0  0  0  0  0  0  0
    3.7320   -0.1693    0.0000 C   0  0  0  0  0  0  0  0  0  0  0  0
    2.8660   -4.6693    0.0000 C   0  0  0  0  0  0  0  0  0  0  0  0
    7.1962   -5.1693    0.0000 C   0  0  0  0  0  0  0  0  0  0  0  0
    3.7320    0.8307    0.0000 C   0  0  0  0  0  0  0  0  0  0  0  0
    2.8660   -0.6693    0.0000 C   0  0  0  0  0  0  0  0  0  0  0  0
    3.7320   -5.1693    0.0000 C   0  0  0  0  0  0  0  0  0  0  0  0
    2.0000   -5.1693    0.0000 C   0  0  0  0  0  0  0  0  0  0  0  0
    7.1962   -2.1693    0.0000 C   0  0  0  0  0  0  0  0  0  0  0  0
    8.0622   -4.6693    0.0000 C   0  0  0  0  0  0  0  0  0  0  0  0
    7.1962   -6.1693    0.0000 C   0  0  0  0  0  0  0  0  0  0  0  0
    3.7320   -6.1693    0.0000 C   0  0  0  0  0  0  0  0  0  0  0  0
    2.0000   -6.1693    0.0000 C   0  0  0  0  0  0  0  0  0  0  0  0
    5.4641    0.8307    0.0000 C   0  0  0  0  0  0  0  0  0  0  0  0
    8.9282   -5.1693    0.0000 C   0  0  0  0  0  0  0  0  0  0  0  0
    8.0622   -6.6693    0.0000 C   0  0  0  0  0  0  0  0  0  0  0  0
    2.8660   -6.6693    0.0000 C   0  0  0  0  0  0  0  0  0  0  0  0
    8.9282   -6.1693    0.0000 C   0  0  0  0  0  0  0  0  0  0  0  0
    8.9282   -2.1693    0.0000 C   0  0  0  0  0  0  0  0  0  0  0  0
    6.3301    2.3307    0.0000 C   0  0  0  0  0  0  0  0  0  0  0  0
    9.7942   -1.6693    0.0000 C   0  0  0  0  0  0  0  0  0  0  0  0
    7.1962    2.8307    0.0000 C   0  0  0  0  0  0  0  0  0  0  0  0
    9.7942   -0.6693    0.0000 C   0  0  0  0  0  0  0  0  0  0  0  0
   10.6603   -2.1693    0.0000 C   0  0  0  0  0  0  0  0  0  0  0  0
    8.1097    2.4240    0.0000 C   0  0  0  0  0  0  0  0  0  0  0  0
   10.6603   -0.1693    0.0000 C   0  0  0  0  0  0  0  0  0  0  0  0
    8.2788    4.0332    0.0000 C   0  0  0  0  0  0  0  0  0  0  0  0
   11.5263   -0.6693    0.0000 C   0  0  0  0  0  0  0  0  0  0  0  0
    8.6856    4.9467    0.0000 C   0  0  0  0  0  0  0  0  0  0  0  0
    8.5045    6.6693    0.0000 C   0  0  0  0  0  0  0  0  0  0  0  0
    4.2690   -2.8593    0.0000 H   0  0  0  0  0  0  0  0  0  0  0  0
    5.1350   -3.9793    0.0000 H   0  0  0  0  0  0  0  0  0  0  0  0
    5.8626   -2.6943    0.0000 H   0  0  0  0  0  0  0  0  0  0  0  0
    5.0656   -2.6943    0.0000 H   0  0  0  0  0  0  0  0  0  0  0  0
    6.8671   -3.9793    0.0000 H   0  0  0  0  0  0  0  0  0  0  0  0
    2.6540   -3.0867    0.0000 H   0  0  0  0  0  0  0  0  0  0  0  0
    2.2554   -3.7769    0.0000 H   0  0  0  0  0  0  0  0  0  0  0  0
    3.1951   -1.8593    0.0000 H   0  0  0  0  0  0  0  0  0  0  0  0
    5.7196   -4.5616    0.0000 H   0  0  0  0  0  0  0  0  0  0  0  0
    6.1181   -5.2519    0.0000 H   0  0  0  0  0  0  0  0  0  0  0  0
    4.5981   -0.0493    0.0000 H   0  0  0  0  0  0  0  0  0  0  0  0
    3.7320   -0.7893    0.0000 H   0  0  0  0  0  0  0  0  0  0  0  0
    7.7331   -3.4793    0.0000 H   0  0  0  0  0  0  0  0  0  0  0  0
    5.1350   -4.9793    0.0000 H   0  0  0  0  0  0  0  0  0  0  0  0
    6.0010   -0.4793    0.0000 H   0  0  0  0  0  0  0  0  0  0  0  0
    4.3520    0.8307    0.0000 H   0  0  0  0  0  0  0  0  0  0  0  0
    3.7320    1.4507    0.0000 H   0  0  0  0  0  0  0  0  0  0  0  0
    3.1120    0.8307    0.0000 H   0  0  0  0  0  0  0  0  0  0  0  0
    2.5560   -0.1323    0.0000 H   0  0  0  0  0  0  0  0  0  0  0  0
    2.3291   -0.9793    0.0000 H   0  0  0  0  0  0  0  0  0  0  0  0
    3.1760   -1.2062    0.0000 H   0  0  0  0  0  0  0  0  0  0  0  0
    4.2690   -4.8593    0.0000 H   0  0  0  0  0  0  0  0  0  0  0  0
    1.4631   -4.8593    0.0000 H   0  0  0  0  0  0  0  0  0  0  0  0
    8.0622   -4.0493    0.0000 H   0  0  0  0  0  0  0  0  0  0  0  0
    6.6592   -6.4793    0.0000 H   0  0  0  0  0  0  0  0  0  0  0  0
    4.2690   -6.4793    0.0000 H   0  0  0  0  0  0  0  0  0  0  0  0
    1.4631   -6.4793    0.0000 H   0  0  0  0  0  0  0  0  0  0  0  0
    9.4651   -4.8593    0.0000 H   0  0  0  0  0  0  0  0  0  0  0  0
    8.0622   -7.2893    0.0000 H   0  0  0  0  0  0  0  0  0  0  0  0
    2.8660   -7.2893    0.0000 H   0  0  0  0  0  0  0  0  0  0  0  0
    9.4651   -6.4793    0.0000 H   0  0  0  0  0  0  0  0  0  0  0  0
    8.5297   -2.6442    0.0000 H   0  0  0  0  0  0  0  0  0  0  0  0
    9.3267   -2.6442    0.0000 H   0  0  0  0  0  0  0  0  0  0  0  0
    6.1181    2.9133    0.0000 H   0  0  0  0  0  0  0  0  0  0  0  0
    5.7196    2.2231    0.0000 H   0  0  0  0  0  0  0  0  0  0  0  0
    9.2573   -0.3593    0.0000 H   0  0  0  0  0  0  0  0  0  0  0  0
   10.6603   -2.7893    0.0000 H   0  0  0  0  0  0  0  0  0  0  0  0
    8.2386    1.8175    0.0000 H   0  0  0  0  0  0  0  0  0  0  0  0
   10.6603    0.4507    0.0000 H   0  0  0  0  0  0  0  0  0  0  0  0
   12.0632   -0.3593    0.0000 H   0  0  0  0  0  0  0  0  0  0  0  0
    9.1996    4.6000    0.0000 H   0  0  0  0  0  0  0  0  0  0  0  0
    9.1163    5.3927    0.0000 H   0  0  0  0  0  0  0  0  0  0  0  0
    9.0709    6.4171    0.0000 H   0  0  0  0  0  0  0  0  0  0  0  0
    8.7567    7.2357    0.0000 H   0  0  0  0  0  0  0  0  0  0  0  0
    7.9381    6.9214    0.0000 H   0  0  0  0  0  0  0  0  0  0  0  0
  1 42  1  0  0  0  0
  1 47  1  0  0  0  0
 15  2  1  6  0  0  0
  2 64  1  0  0  0  0
  3 21  2  0  0  0  0
  4 29  1  0  0  0  0
  4 39  1  0  0  0  0
  5 29  2  0  0  0  0
  6 34  1  0  0  0  0
  6 40  1  0  0  0  0
  7 34  2  0  0  0  0
  8 49  1  0  0  0  0
  8 50  1  0  0  0  0
 14  9  1  6  0  0  0
  9 21  1  0  0  0  0
  9 58  1  0  0  0  0
 17 10  1  1  0  0  0
 10 29  1  0  0  0  0
 10 63  1  0  0  0  0
 20 11  1  6  0  0  0
 11 34  1  0  0  0  0
 11 65  1  0  0  0  0
 12 44  1  0  0  0  0
 12 48  2  0  0  0  0
 13 45  1  0  0  0  0
 13 47  2  0  0  0  0
 14 15  1  0  0  0  0
 14 18  1  0  0  0  0
 14 51  1  0  0  0  0
 15 16  1  0  0  0  0
 15 52  1  0  0  0  0
 16 17  1  0  0  0  0
 16 53  1  0  0  0  0
 16 54  1  0  0  0  0
 17 19  1  0  0  0  0
 17 55  1  0  0  0  0
 18 23  1  0  0  0  0
 18 56  1  0  0  0  0
 18 57  1  0  0  0  0
 19 24  1  0  0  0  0
 19 59  1  0  0  0  0
 19 60  1  0  0  0  0
 20 21  1  0  0  0  0
 20 22  1  0  0  0  0
 20 61  1  0  0  0  0
 22 25  1  0  0  0  0
 22 26  1  0  0  0  0
 22 62  1  0  0  0  0
 23 27  2  0  0  0  0
 23 28  1  0  0  0  0
 24 30  2  0  0  0  0
 24 31  1  0  0  0  0
 25 66  1  0  0  0  0
 25 67  1  0  0  0  0
 25 68  1  0  0  0  0
 26 69  1  0  0  0  0
 26 70  1  0  0  0  0
 26 71  1  0  0  0  0
 27 32  1  0  0  0  0
 27 72  1  0  0  0  0
 28 33  2  0  0  0  0
 28 73  1  0  0  0  0
 30 35  1  0  0  0  0
 30 74  1  0  0  0  0
 31 36  2  0  0  0  0
 31 75  1  0  0  0  0
 32 37  2  0  0  0  0
 32 76  1  0  0  0  0
 33 37  1  0  0  0  0
 33 77  1  0  0  0  0
 35 38  2  0  0  0  0
 35 78  1  0  0  0  0
 36 38  1  0  0  0  0
 36 79  1  0  0  0  0
 37 80  1  0  0  0  0
 38 81  1  0  0  0  0
 39 41  1  0  0  0  0
 39 82  1  0  0  0  0
 39 83  1  0  0  0  0
 40 42  1  0  0  0  0
 40 84  1  0  0  0  0
 40 85  1  0  0  0  0
 41 43  1  0  0  0  0
 41 44  2  0  0  0  0
 42 45  2  0  0  0  0
 43 46  2  0  0  0  0
 43 86  1  0  0  0  0
 44 87  1  0  0  0  0
 45 88  1  0  0  0  0
 46 48  1  0  0  0  0
 46 89  1  0  0  0  0
 47 49  1  0  0  0  0
 48 90  1  0  0  0  0
 49 91  1  0  0  0  0
 49 92  1  0  0  0  0
 50 93  1  0  0  0  0
 50 94  1  0  0  0  0
 50 95  1  0  0  0  0
M  END
> <PUBCHEM_COMPOUND_CID>
515799
> <PUBCHEM_COMPOUND_CANONICALIZED>
1
> <PUBCHEM_CACTVS_COMPLEXITY>
1010
> <PUBCHEM_CACTVS_HBOND_ACCEPTOR>
10
> <PUBCHEM_CACTVS_HBOND_DONOR>
4
> <PUBCHEM_CACTVS_ROTATABLE_BOND>
20
> <PUBCHEM_CACTVS_SUBSKEYS>
AAADcfB/uABAAAAAAAAAAAAAAAAAAWAAAAA8YIAAAAAAAAAB9AAAHgQQCAAADTzh2gY+iZLIFgisAjF3XASC8KBxCjhI2K24bJkKdvLAsbmdcAhm1gH46AeQ0PIOAAAAAAAAAAAAAAAAAAAAAAAAAAAAAA==
> <PUBCHEM_IUPAC_OPENEYE_NAME>
3-pyridylmethyl N-[(1S,3S,4S)-1-benzyl-3-hydroxy-4-[[(2S)-2-[[2-(methoxymethyl)thiazol-5-yl]methoxycarbonylamino]-3-methyl-butanoyl]amino]-5-phenyl-pentyl]carbamate
> <PUBCHEM_IUPAC_CAS_NAME>
N-[(2S,4S,5S)-4-hydroxy-5-[[(2S)-2-[[[2-(methoxymethyl)-5-thiazolyl]methoxy-oxomethyl]amino]-3-methyl-1-oxobutyl]amino]-1,6-diphenylhexan-2-yl]carbamic acid 3-pyridinylmethyl ester
> <PUBCHEM_IUPAC_NAME_MARKUP>
[2-(methoxymethyl)-1,3-thiazol-5-yl]methyl <I>N</I>-[(2<I>S</I>)-1-[[(2<I>S</I>,3<I>S</I>,5<I>S</I>)-3-hydroxy-1,6-diphenyl-5-(pyridin-3-ylmethoxycarbonylamino)hexan-2-yl]amino]-3-methyl-1-oxobutan-2-yl]carbamate
> <PUBCHEM_IUPAC_NAME>
[2-(methoxymethyl)-1,3-thiazol-5-yl]methyl N-[(2S)-1-[[(2S,3S,5S)-3-hydroxy-1,6-diphenyl-5-(pyridin-3-ylmethoxycarbonylamino)hexan-2-yl]amino]-3-methyl-1-oxobutan-2-yl]carbamate
> <PUBCHEM_IUPAC_SYSTEMATIC_NAME>
pyridin-3-ylmethyl N-[(2S,4S,5S)-5-[[(2S)-2-[[2-(methoxymethyl)-1,3-thiazol-5-yl]methoxycarbonylamino]-3-methyl-butanoyl]amino]-4-oxidanyl-1,6-diphenyl-hexan-2-yl]carbamate
> <PUBCHEM_IUPAC_TRADITIONAL_NAME>
N-[(1S,3S,4S)-1-benzyl-3-hydroxy-4-[[(2S)-2-[[2-(methoxymethyl)thiazol-5-yl]methoxycarbonylamino]-3-methyl-butanoyl]amino]-5-phenyl-pentyl]carbamic acid 3-pyridylmethyl ester
> <PUBCHEM_IUPAC_INCHI>
InChI=1S/C37H45N5O7S/c1-25(2)34(42-37(46)49-23-30-21-39-33(50-30)24-47-3)35(44)41-31(18-27-13-8-5-9-14-27)32(43)19-29(17-26-11-6-4-7-12-26)40-36(45)48-22-28-15-10-16-38-20-28/h4-16,20-21,25,29,31-32,34,43H,17-19,22-24H2,1-3H3,(H,40,45)(H,41,44)(H,42,46)/t29-,31-,32-,34-/m0/s1
> <PUBCHEM_IUPAC_INCHIKEY>
LXKCKJYMTBNXQX-JKAXMSHYSA-N
> <PUBCHEM_XLOGP3_AA>
4.8
> <PUBCHEM_EXACT_MASS>
703.30396997
> <PUBCHEM_MOLECULAR_FORMULA>
C37H45N5O7S
> <PUBCHEM_MOLECULAR_WEIGHT>
703.8
> <PUBCHEM_OPENEYE_CAN_SMILES>
CC(C)C(C(=O)NC(CC1=CC=CC=C1)C(CC(CC2=CC=CC=C2)NC(=O)OCC3=CN=CC=C3)O)NC(=O)OCC4=CN=C(S4)COC
> <PUBCHEM_OPENEYE_ISO_SMILES>
CC(C)[C@@H](C(=O)N[C@@H](CC1=CC=CC=C1)[C@H](C[C@H](CC2=CC=CC=C2)NC(=O)OCC3=CN=CC=C3)O)NC(=O)OCC4=CN=C(S4)COC
> <PUBCHEM_CACTVS_TPSA>
189
> <PUBCHEM_MONOISOTOPIC_WEIGHT>
703.30396997
> <PUBCHEM_TOTAL_CHARGE>
0
> <PUBCHEM_HEAVY_ATOM_COUNT>
50
> <PUBCHEM_ATOM_DEF_STEREO_COUNT>
4
> <PUBCHEM_ATOM_UDEF_STEREO_COUNT>
0
> <PUBCHEM_BOND_DEF_STEREO_COUNT>
0
> <PUBCHEM_BOND_UDEF_STEREO_COUNT>
0
> <PUBCHEM_ISOTOPIC_ATOM_COUNT>
0
> <PUBCHEM_COMPONENT_COUNT>
1
> <PUBCHEM_CACTVS_TAUTO_COUNT>
-1
> <PUBCHEM_COORDINATE_TYPE>
1
5
255
> <PUBCHEM_BONDANNOTATIONS>
1  42  8
1  47  8
17  10  5
20  11  6
12  44  8
12  48  8
13  45  8
13  47  8
15  2  6
23  27  8
23  28  8
24  30  8
24  31  8
27  32  8
28  33  8
30  35  8
31  36  8
32  37  8
33  37  8
35  38  8
36  38  8
41  43  8
41  44  8
42  45  8
43  46  8
46  48  8
14  9  6
$$$$
