515711
  -OEChem-10302200282D
 55 55  0     1  0  0  0  0  0999 V2000
    9.6730    4.8100    0.0000 O   0  0  0  0  0  0  0  0  0  0  0  0
    8.8070    3.3100    0.0000 O   0  0  0  0  0  0  0  0  0  0  0  0
    7.0749    0.3100    0.0000 O   0  0  0  0  0  0  0  0  0  0  0  0
    9.6730    5.8100    0.0000 O   0  0  0  0  0  0  0  0  0  0  0  0
    3.1350    7.0600    0.0000 O   0  0  0  0  0  0  0  0  0  0  0  0
    1.4030    1.0600    0.0000 O   0  0  0  0  0  0  0  0  0  0  0  0
    1.4030    7.0600    0.0000 O   0  0  0  0  0  0  0  0  0  0  0  0
    7.9409    5.8100    0.0000 N   0  0  0  0  0  0  0  0  0  0  0  0
    3.1350    5.0600    0.0000 N   0  0  0  0  0  0  0  0  0  0  0  0
    9.6730    7.8100    0.0000 N   0  0  0  0  0  0  0  0  0  0  0  0
    7.9409    4.8100    0.0000 C   0  0  1  0  0  0  0  0  0  0  0  0
    7.0749    4.3100    0.0000 C   0  0  0  0  0  0  0  0  0  0  0  0
    7.0749    3.3100    0.0000 C   0  0  0  0  0  0  0  0  0  0  0  0
    1.4030    5.0600    0.0000 C   0  0  0  0  0  0  0  0  0  0  0  0
    2.2690    5.5600    0.0000 C   0  0  1  0  0  0  0  0  0  0  0  0
    1.4030    4.0600    0.0000 C   0  0  0  0  0  0  0  0  0  0  0  0
    8.8070    4.3100    0.0000 C   0  0  0  0  0  0  0  0  0  0  0  0
    7.9409    2.8100    0.0000 C   0  0  0  0  0  0  0  0  0  0  0  0
    6.2089    2.8100    0.0000 C   0  0  0  0  0  0  0  0  0  0  0  0
    8.8070    6.3100    0.0000 C   0  0  0  0  0  0  0  0  0  0  0  0
    7.9409    1.8100    0.0000 C   0  0  0  0  0  0  0  0  0  0  0  0
    6.2089    1.8100    0.0000 C   0  0  0  0  0  0  0  0  0  0  0  0
    2.2690    3.5600    0.0000 C   0  0  0  0  0  0  0  0  0  0  0  0
    0.5369    3.5600    0.0000 C   0  0  0  0  0  0  0  0  0  0  0  0
    7.0749    1.3100    0.0000 C   0  0  0  0  0  0  0  0  0  0  0  0
    2.2690    6.5600    0.0000 C   0  0  0  0  0  0  0  0  0  0  0  0
    8.8070    7.3100    0.0000 C   0  0  0  0  0  0  0  0  0  0  0  0
    2.2690    2.5600    0.0000 C   0  0  0  0  0  0  0  0  0  0  0  0
    0.5369    2.5600    0.0000 C   0  0  0  0  0  0  0  0  0  0  0  0
    1.4030    2.0600    0.0000 C   0  0  0  0  0  0  0  0  0  0  0  0
    8.4779    5.1200    0.0000 H   0  0  0  0  0  0  0  0  0  0  0  0
    6.8629    4.8926    0.0000 H   0  0  0  0  0  0  0  0  0  0  0  0
    6.4643    4.2023    0.0000 H   0  0  0  0  0  0  0  0  0  0  0  0
    1.1909    5.6426    0.0000 H   0  0  0  0  0  0  0  0  0  0  0  0
    0.7924    4.9523    0.0000 H   0  0  0  0  0  0  0  0  0  0  0  0
    7.4040    6.1200    0.0000 H   0  0  0  0  0  0  0  0  0  0  0  0
    2.8059    5.8700    0.0000 H   0  0  0  0  0  0  0  0  0  0  0  0
    8.4779    3.1200    0.0000 H   0  0  0  0  0  0  0  0  0  0  0  0
    5.6720    3.1200    0.0000 H   0  0  0  0  0  0  0  0  0  0  0  0
    8.4779    1.5000    0.0000 H   0  0  0  0  0  0  0  0  0  0  0  0
    5.6720    1.5000    0.0000 H   0  0  0  0  0  0  0  0  0  0  0  0
    2.8059    3.8700    0.0000 H   0  0  0  0  0  0  0  0  0  0  0  0
    0.0000    3.8700    0.0000 H   0  0  0  0  0  0  0  0  0  0  0  0
    3.6720    5.3700    0.0000 H   0  0  0  0  0  0  0  0  0  0  0  0
    3.1350    4.4400    0.0000 H   0  0  0  0  0  0  0  0  0  0  0  0
    8.5949    7.8926    0.0000 H   0  0  0  0  0  0  0  0  0  0  0  0
    8.1964    7.2023    0.0000 H   0  0  0  0  0  0  0  0  0  0  0  0
    2.8059    2.2500    0.0000 H   0  0  0  0  0  0  0  0  0  0  0  0
    0.0000    2.2500    0.0000 H   0  0  0  0  0  0  0  0  0  0  0  0
   10.2099    4.5000    0.0000 H   0  0  0  0  0  0  0  0  0  0  0  0
    9.6730    8.4300    0.0000 H   0  0  0  0  0  0  0  0  0  0  0  0
   10.2099    7.5000    0.0000 H   0  0  0  0  0  0  0  0  0  0  0  0
    6.5380    0.0000    0.0000 H   0  0  0  0  0  0  0  0  0  0  0  0
    3.1350    7.6800    0.0000 H   0  0  0  0  0  0  0  0  0  0  0  0
    0.8660    0.7500    0.0000 H   0  0  0  0  0  0  0  0  0  0  0  0
  1 17  1  0  0  0  0
  1 50  1  0  0  0  0
  2 17  2  0  0  0  0
  3 25  1  0  0  0  0
  3 53  1  0  0  0  0
  4 20  2  0  0  0  0
  5 26  1  0  0  0  0
  5 54  1  0  0  0  0
  6 30  1  0  0  0  0
  6 55  1  0  0  0  0
  7 26  2  0  0  0  0
 11  8  1  6  0  0  0
  8 20  1  0  0  0  0
  8 36  1  0  0  0  0
 15  9  1  1  0  0  0
  9 44  1  0  0  0  0
  9 45  1  0  0  0  0
 10 27  1  0  0  0  0
 10 51  1  0  0  0  0
 10 52  1  0  0  0  0
 11 12  1  0  0  0  0
 11 17  1  0  0  0  0
 11 31  1  0  0  0  0
 12 13  1  0  0  0  0
 12 32  1  0  0  0  0
 12 33  1  0  0  0  0
 13 18  2  0  0  0  0
 13 19  1  0  0  0  0
 14 15  1  0  0  0  0
 14 16  1  0  0  0  0
 14 34  1  0  0  0  0
 14 35  1  0  0  0  0
 15 26  1  0  0  0  0
 15 37  1  0  0  0  0
 16 23  2  0  0  0  0
 16 24  1  0  0  0  0
 18 21  1  0  0  0  0
 18 38  1  0  0  0  0
 19 22  2  0  0  0  0
 19 39  1  0  0  0  0
 20 27  1  0  0  0  0
 21 25  2  0  0  0  0
 21 40  1  0  0  0  0
 22 25  1  0  0  0  0
 22 41  1  0  0  0  0
 23 28  1  0  0  0  0
 23 42  1  0  0  0  0
 24 29  2  0  0  0  0
 24 43  1  0  0  0  0
 27 46  1  0  0  0  0
 27 47  1  0  0  0  0
 28 30  2  0  0  0  0
 28 48  1  0  0  0  0
 29 30  1  0  0  0  0
 29 49  1  0  0  0  0
M  END
> <PUBCHEM_COMPOUND_CID>
515711
> <PUBCHEM_COMPOUND_CANONICALIZED>
1
> <PUBCHEM_CACTVS_COMPLEXITY>
450
> <PUBCHEM_CACTVS_HBOND_ACCEPTOR>
9
> <PUBCHEM_CACTVS_HBOND_DONOR>
7
> <PUBCHEM_CACTVS_ROTATABLE_BOND>
8
> <PUBCHEM_CACTVS_SUBSKEYS>
AAADceB7OAAAAAAAAAAAAAAAAAAAAAAAAAAwYAAAAAAAAAABQAAAHgAQCAAADCzBmAQwDoLAAgCIAiHSGAACAAAgIAAIiIGOCIgKZjKCkTOUcAAk1hGYmAeYyKCOIAAAAAAAAABAAAAAAAAAAAAAAAAAAA==
> <PUBCHEM_IUPAC_OPENEYE_NAME>
(2S)-2-[(2-aminoacetyl)amino]-3-(4-hydroxyphenyl)propanoic acid;(2S)-2-amino-3-(4-hydroxyphenyl)propanoic acid
> <PUBCHEM_IUPAC_CAS_NAME>
(2S)-2-amino-3-(4-hydroxyphenyl)propanoic acid;(2S)-2-[(2-amino-1-oxoethyl)amino]-3-(4-hydroxyphenyl)propanoic acid
> <PUBCHEM_IUPAC_NAME_MARKUP>
(2<I>S</I>)-2-[(2-aminoacetyl)amino]-3-(4-hydroxyphenyl)propanoic acid;(2<I>S</I>)-2-amino-3-(4-hydroxyphenyl)propanoic acid
> <PUBCHEM_IUPAC_NAME>
(2S)-2-[(2-aminoacetyl)amino]-3-(4-hydroxyphenyl)propanoic acid;(2S)-2-amino-3-(4-hydroxyphenyl)propanoic acid
> <PUBCHEM_IUPAC_SYSTEMATIC_NAME>
(2S)-2-(2-azanylethanoylamino)-3-(4-hydroxyphenyl)propanoic acid;(2S)-2-azanyl-3-(4-hydroxyphenyl)propanoic acid
> <PUBCHEM_IUPAC_TRADITIONAL_NAME>
(2S)-2-amino-3-(4-hydroxyphenyl)propionic acid;(2S)-2-(glycylamino)-3-(4-hydroxyphenyl)propionic acid
> <PUBCHEM_IUPAC_INCHI>
InChI=1S/C11H14N2O4.C9H11NO3/c12-6-10(15)13-9(11(16)17)5-7-1-3-8(14)4-2-7;10-8(9(12)13)5-6-1-3-7(11)4-2-6/h1-4,9,14H,5-6,12H2,(H,13,15)(H,16,17);1-4,8,11H,5,10H2,(H,12,13)/t9-;8-/m00/s1
> <PUBCHEM_IUPAC_INCHIKEY>
VZCIXWKJFOUJQH-PVSSEACSSA-N
> <PUBCHEM_EXACT_MASS>
419.16925015
> <PUBCHEM_MOLECULAR_FORMULA>
C20H25N3O7
> <PUBCHEM_MOLECULAR_WEIGHT>
419.4
> <PUBCHEM_OPENEYE_CAN_SMILES>
C1=CC(=CC=C1CC(C(=O)O)N)O.C1=CC(=CC=C1CC(C(=O)O)NC(=O)CN)O
> <PUBCHEM_OPENEYE_ISO_SMILES>
C1=CC(=CC=C1C[C@@H](C(=O)O)N)O.C1=CC(=CC=C1C[C@@H](C(=O)O)NC(=O)CN)O
> <PUBCHEM_CACTVS_TPSA>
196
> <PUBCHEM_MONOISOTOPIC_WEIGHT>
419.16925015
> <PUBCHEM_TOTAL_CHARGE>
0
> <PUBCHEM_HEAVY_ATOM_COUNT>
30
> <PUBCHEM_ATOM_DEF_STEREO_COUNT>
2
> <PUBCHEM_ATOM_UDEF_STEREO_COUNT>
0
> <PUBCHEM_BOND_DEF_STEREO_COUNT>
0
> <PUBCHEM_BOND_UDEF_STEREO_COUNT>
0
> <PUBCHEM_ISOTOPIC_ATOM_COUNT>
0
> <PUBCHEM_COMPONENT_COUNT>
2
> <PUBCHEM_CACTVS_TAUTO_COUNT>
-1
> <PUBCHEM_COORDINATE_TYPE>
1
5
255
> <PUBCHEM_BONDANNOTATIONS>
13  18  8
13  19  8
16  23  8
16  24  8
18  21  8
19  22  8
21  25  8
22  25  8
23  28  8
24  29  8
28  30  8
29  30  8
11  8  6
15  9  5
$$$$
