515851
  -OEChem-10302200282D
 62 66  0     1  0  0  0  0  0999 V2000
    2.9514    1.6364    0.0000 O   0  0  0  0  0  0  0  0  0  0  0  0
    2.2690   -0.1023    0.0000 O   0  0  0  0  0  0  0  0  0  0  0  0
    6.4190   -0.7278    0.0000 O   0  0  0  0  0  0  0  0  0  0  0  0
    5.4134    0.6348    0.0000 N   0  0  0  0  0  0  0  0  0  0  0  0
    4.7550   -1.0426    0.0000 N   0  0  0  0  0  0  0  0  0  0  0  0
    9.8237   -0.6700    0.0000 N   0  0  0  0  0  0  0  0  0  0  0  0
   10.4073    0.1348    0.0000 N   0  0  0  0  0  0  0  0  0  0  0  0
    4.5871    1.1981    0.0000 C   0  0  1  0  0  0  0  0  0  0  0  0
    3.6316    0.9033    0.0000 C   0  0  1  0  0  0  0  0  0  0  0  0
    3.2662   -0.0275    0.0000 C   0  0  2  0  0  0  0  0  0  0  0  0
    3.7662   -0.8936    0.0000 C   0  0  1  0  0  0  0  0  0  0  0  0
    4.7362    2.1869    0.0000 C   0  0  0  0  0  0  0  0  0  0  0  0
    3.2029   -1.7198    0.0000 C   0  0  0  0  0  0  0  0  0  0  0  0
    5.4881   -0.3624    0.0000 C   0  0  0  0  0  0  0  0  0  0  0  0
    6.2794    1.1348    0.0000 C   0  0  0  0  0  0  0  0  0  0  0  0
    3.9543    2.8104    0.0000 C   0  0  0  0  0  0  0  0  0  0  0  0
    3.6368   -2.6208    0.0000 C   0  0  0  0  0  0  0  0  0  0  0  0
    7.1454    0.6348    0.0000 C   0  0  0  0  0  0  0  0  0  0  0  0
    4.1034    3.7992    0.0000 C   0  0  0  0  0  0  0  0  0  0  0  0
    3.0235    2.4451    0.0000 C   0  0  0  0  0  0  0  0  0  0  0  0
    8.0114    1.1348    0.0000 C   0  0  0  0  0  0  0  0  0  0  0  0
    4.6340   -2.6955    0.0000 C   0  0  0  0  0  0  0  0  0  0  0  0
    3.0735   -3.4470    0.0000 C   0  0  0  0  0  0  0  0  0  0  0  0
    7.1454   -0.3652    0.0000 C   0  0  0  0  0  0  0  0  0  0  0  0
    8.8775    0.6348    0.0000 C   0  0  0  0  0  0  0  0  0  0  0  0
    3.3216    4.4227    0.0000 C   0  0  0  0  0  0  0  0  0  0  0  0
    2.2416    3.0686    0.0000 C   0  0  0  0  0  0  0  0  0  0  0  0
    8.0114   -0.8652    0.0000 C   0  0  0  0  0  0  0  0  0  0  0  0
    8.8775   -0.3652    0.0000 C   0  0  0  0  0  0  0  0  0  0  0  0
    5.0679   -3.5965    0.0000 C   0  0  0  0  0  0  0  0  0  0  0  0
    3.5073   -4.3480    0.0000 C   0  0  0  0  0  0  0  0  0  0  0  0
    2.3907    4.0574    0.0000 C   0  0  0  0  0  0  0  0  0  0  0  0
    4.5045   -4.4227    0.0000 C   0  0  0  0  0  0  0  0  0  0  0  0
    9.8237    0.9395    0.0000 C   0  0  0  0  0  0  0  0  0  0  0  0
    5.1554    1.4460    0.0000 H   0  0  0  0  0  0  0  0  0  0  0  0
    3.0224    0.7881    0.0000 H   0  0  0  0  0  0  0  0  0  0  0  0
    2.9765   -0.5757    0.0000 H   0  0  0  0  0  0  0  0  0  0  0  0
    4.0141   -1.4618    0.0000 H   0  0  0  0  0  0  0  0  0  0  0  0
    5.3239    1.9894    0.0000 H   0  0  0  0  0  0  0  0  0  0  0  0
    5.0327    2.7314    0.0000 H   0  0  0  0  0  0  0  0  0  0  0  0
    2.7590   -1.2869    0.0000 H   0  0  0  0  0  0  0  0  0  0  0  0
    2.6995   -2.0817    0.0000 H   0  0  0  0  0  0  0  0  0  0  0  0
    4.9378   -1.6351    0.0000 H   0  0  0  0  0  0  0  0  0  0  0  0
    6.6779    1.6097    0.0000 H   0  0  0  0  0  0  0  0  0  0  0  0
    5.8809    1.6097    0.0000 H   0  0  0  0  0  0  0  0  0  0  0  0
    2.3469    1.4984    0.0000 H   0  0  0  0  0  0  0  0  0  0  0  0
    2.0000   -0.6609    0.0000 H   0  0  0  0  0  0  0  0  0  0  0  0
    4.6805    4.0257    0.0000 H   0  0  0  0  0  0  0  0  0  0  0  0
    2.9311    1.8320    0.0000 H   0  0  0  0  0  0  0  0  0  0  0  0
    8.0114    1.7548    0.0000 H   0  0  0  0  0  0  0  0  0  0  0  0
    4.9832   -2.1832    0.0000 H   0  0  0  0  0  0  0  0  0  0  0  0
    2.4552   -3.4007    0.0000 H   0  0  0  0  0  0  0  0  0  0  0  0
    6.6085   -0.6752    0.0000 H   0  0  0  0  0  0  0  0  0  0  0  0
    3.4140    5.0358    0.0000 H   0  0  0  0  0  0  0  0  0  0  0  0
    1.6645    2.8420    0.0000 H   0  0  0  0  0  0  0  0  0  0  0  0
    8.0114   -1.4852    0.0000 H   0  0  0  0  0  0  0  0  0  0  0  0
    5.6861   -3.6428    0.0000 H   0  0  0  0  0  0  0  0  0  0  0  0
    3.1581   -4.8603    0.0000 H   0  0  0  0  0  0  0  0  0  0  0  0
    1.9059    4.4439    0.0000 H   0  0  0  0  0  0  0  0  0  0  0  0
    4.7736   -4.9813    0.0000 H   0  0  0  0  0  0  0  0  0  0  0  0
   10.0163    1.5288    0.0000 H   0  0  0  0  0  0  0  0  0  0  0  0
   10.0163   -1.2593    0.0000 H   0  0  0  0  0  0  0  0  0  0  0  0
  9  1  1  1  0  0  0
  1 46  1  0  0  0  0
 10  2  1  6  0  0  0
  2 47  1  0  0  0  0
  3 14  2  0  0  0  0
  4  8  1  0  0  0  0
  4 14  1  0  0  0  0
  4 15  1  0  0  0  0
  5 11  1  0  0  0  0
  5 14  1  0  0  0  0
  5 43  1  0  0  0  0
  6  7  1  0  0  0  0
  6 29  1  0  0  0  0
  6 62  1  0  0  0  0
  7 34  2  0  0  0  0
  8  9  1  0  0  0  0
  8 12  1  1  0  0  0
  8 35  1  0  0  0  0
  9 10  1  0  0  0  0
  9 36  1  0  0  0  0
 10 11  1  0  0  0  0
 10 37  1  0  0  0  0
 11 13  1  6  0  0  0
 11 38  1  0  0  0  0
 12 16  1  0  0  0  0
 12 39  1  0  0  0  0
 12 40  1  0  0  0  0
 13 17  1  0  0  0  0
 13 41  1  0  0  0  0
 13 42  1  0  0  0  0
 15 18  1  0  0  0  0
 15 44  1  0  0  0  0
 15 45  1  0  0  0  0
 16 19  2  0  0  0  0
 16 20  1  0  0  0  0
 17 22  2  0  0  0  0
 17 23  1  0  0  0  0
 18 21  2  0  0  0  0
 18 24  1  0  0  0  0
 19 26  1  0  0  0  0
 19 48  1  0  0  0  0
 20 27  2  0  0  0  0
 20 49  1  0  0  0  0
 21 25  1  0  0  0  0
 21 50  1  0  0  0  0
 22 30  1  0  0  0  0
 22 51  1  0  0  0  0
 23 31  2  0  0  0  0
 23 52  1  0  0  0  0
 24 28  2  0  0  0  0
 24 53  1  0  0  0  0
 25 29  2  0  0  0  0
 25 34  1  0  0  0  0
 26 32  2  0  0  0  0
 26 54  1  0  0  0  0
 27 32  1  0  0  0  0
 27 55  1  0  0  0  0
 28 29  1  0  0  0  0
 28 56  1  0  0  0  0
 30 33  2  0  0  0  0
 30 57  1  0  0  0  0
 31 33  1  0  0  0  0
 31 58  1  0  0  0  0
 32 59  1  0  0  0  0
 33 60  1  0  0  0  0
 34 61  1  0  0  0  0
M  END
> <PUBCHEM_COMPOUND_CID>
515851
> <PUBCHEM_COMPOUND_CANONICALIZED>
1
> <PUBCHEM_CACTVS_COMPLEXITY>
666
> <PUBCHEM_CACTVS_HBOND_ACCEPTOR>
4
> <PUBCHEM_CACTVS_HBOND_DONOR>
4
> <PUBCHEM_CACTVS_ROTATABLE_BOND>
6
> <PUBCHEM_CACTVS_SUBSKEYS>
AAADceB7sAAAAAAAAAAAAAAAAAAAAWAAAAAwYMAABYAAAFgB9AAAHgAYCAAADDzhngY9wPPjAgCqAzRnUACSBAAgggAYuaA4ZJiLMKKA0dGE5AhungKZyAeQwPAOCAACAAACAAAQAAQAAAQAAAAAAAAAAA==
> <PUBCHEM_IUPAC_OPENEYE_NAME>
(4R,5S,6S,7R)-4,7-dibenzyl-5,6-dihydroxy-1-(1H-indazol-5-ylmethyl)-1,3-diazepan-2-one
> <PUBCHEM_IUPAC_CAS_NAME>
(4R,5S,6S,7R)-5,6-dihydroxy-1-(1H-indazol-5-ylmethyl)-4,7-bis(phenylmethyl)-1,3-diazepan-2-one
> <PUBCHEM_IUPAC_NAME_MARKUP>
(4<I>R</I>,5<I>S</I>,6<I>S</I>,7<I>R</I>)-4,7-dibenzyl-5,6-dihydroxy-1-(1<I>H</I>-indazol-5-ylmethyl)-1,3-diazepan-2-one
> <PUBCHEM_IUPAC_NAME>
(4R,5S,6S,7R)-4,7-dibenzyl-5,6-dihydroxy-1-(1H-indazol-5-ylmethyl)-1,3-diazepan-2-one
> <PUBCHEM_IUPAC_SYSTEMATIC_NAME>
(4R,5S,6S,7R)-1-(1H-indazol-5-ylmethyl)-5,6-bis(oxidanyl)-4,7-bis(phenylmethyl)-1,3-diazepan-2-one
> <PUBCHEM_IUPAC_TRADITIONAL_NAME>
(4R,5S,6S,7R)-4,7-dibenzyl-5,6-dihydroxy-1-(1H-indazol-5-ylmethyl)-1,3-diazepan-2-one
> <PUBCHEM_IUPAC_INCHI>
InChI=1S/C27H28N4O3/c32-25-23(14-18-7-3-1-4-8-18)29-27(34)31(17-20-11-12-22-21(13-20)16-28-30-22)24(26(25)33)15-19-9-5-2-6-10-19/h1-13,16,23-26,32-33H,14-15,17H2,(H,28,30)(H,29,34)/t23-,24-,25+,26+/m1/s1
> <PUBCHEM_IUPAC_INCHIKEY>
RHDRKQCNNGBNHC-XPGKHFPBSA-N
> <PUBCHEM_XLOGP3_AA>
3.3
> <PUBCHEM_EXACT_MASS>
456.21614077
> <PUBCHEM_MOLECULAR_FORMULA>
C27H28N4O3
> <PUBCHEM_MOLECULAR_WEIGHT>
456.5
> <PUBCHEM_OPENEYE_CAN_SMILES>
C1=CC=C(C=C1)CC2C(C(C(N(C(=O)N2)CC3=CC4=C(C=C3)NN=C4)CC5=CC=CC=C5)O)O
> <PUBCHEM_OPENEYE_ISO_SMILES>
C1=CC=C(C=C1)C[C@@H]2[C@@H]([C@H]([C@H](N(C(=O)N2)CC3=CC4=C(C=C3)NN=C4)CC5=CC=CC=C5)O)O
> <PUBCHEM_CACTVS_TPSA>
102
> <PUBCHEM_MONOISOTOPIC_WEIGHT>
456.21614077
> <PUBCHEM_TOTAL_CHARGE>
0
> <PUBCHEM_HEAVY_ATOM_COUNT>
34
> <PUBCHEM_ATOM_DEF_STEREO_COUNT>
4
> <PUBCHEM_ATOM_UDEF_STEREO_COUNT>
0
> <PUBCHEM_BOND_DEF_STEREO_COUNT>
0
> <PUBCHEM_BOND_UDEF_STEREO_COUNT>
0
> <PUBCHEM_ISOTOPIC_ATOM_COUNT>
0
> <PUBCHEM_COMPONENT_COUNT>
1
> <PUBCHEM_CACTVS_TAUTO_COUNT>
-1
> <PUBCHEM_COORDINATE_TYPE>
1
5
255
> <PUBCHEM_BONDANNOTATIONS>
9  1  5
11  13  6
16  19  8
16  20  8
17  22  8
17  23  8
18  21  8
18  24  8
19  26  8
10  2  6
20  27  8
21  25  8
22  30  8
23  31  8
24  28  8
25  29  8
25  34  8
26  32  8
27  32  8
28  29  8
30  33  8
31  33  8
6  29  8
6  7  8
7  34  8
8  12  5
$$$$
