515897
  -OEChem-10302200282D
102107  0     1  0  0  0  0  0999 V2000
    5.5321    0.8516    0.0000 O   0  0  0  0  0  0  0  0  0  0  0  0
    7.2641    3.8516    0.0000 O   0  0  0  0  0  0  0  0  0  0  0  0
    4.4494   -3.3508    0.0000 O   0  0  0  0  0  0  0  0  0  0  0  0
    5.5321   -0.1484    0.0000 O   0  0  0  0  0  0  0  0  0  0  0  0
    6.3981   -3.6484    0.0000 O   0  0  0  0  0  0  0  0  0  0  0  0
    5.5321    2.8516    0.0000 N   0  0  3  0  0  0  0  0  0  0  0  0
    6.3981    5.3516    0.0000 N   0  0  0  0  0  0  0  0  0  0  0  0
    7.2641   -0.1484    0.0000 N   0  0  0  0  0  0  0  0  0  0  0  0
    7.2641   -2.1484    0.0000 N   0  0  0  0  0  0  0  0  0  0  0  0
    8.1301   -4.6484    0.0000 N   0  0  0  0  0  0  0  0  0  0  0  0
    9.8622   -3.6484    0.0000 N   0  0  0  0  0  0  0  0  0  0  0  0
    3.8000    3.8516    0.0000 C   0  0  2  0  0  0  0  0  0  0  0  0
    3.8000    2.8516    0.0000 C   0  0  1  0  0  0  0  0  0  0  0  0
    4.6660    4.3516    0.0000 C   0  0  0  0  0  0  0  0  0  0  0  0
    4.6660    2.3516    0.0000 C   0  0  0  0  0  0  0  0  0  0  0  0
    2.9061    4.3863    0.0000 C   0  0  0  0  0  0  0  0  0  0  0  0
    2.9061    2.3170    0.0000 C   0  0  0  0  0  0  0  0  0  0  0  0
    5.5321    3.8516    0.0000 C   0  0  1  0  0  0  0  0  0  0  0  0
    2.0000    3.8724    0.0000 C   0  0  0  0  0  0  0  0  0  0  0  0
    2.0000    2.8308    0.0000 C   0  0  0  0  0  0  0  0  0  0  0  0
    6.3981    2.3516    0.0000 C   0  0  0  0  0  0  0  0  0  0  0  0
    6.3981    4.3516    0.0000 C   0  0  0  0  0  0  0  0  0  0  0  0
    6.3981    1.3516    0.0000 C   0  0  2  0  0  0  0  0  0  0  0  0
    7.2641    0.8516    0.0000 C   0  0  2  0  0  0  0  0  0  0  0  0
    7.2641    5.8516    0.0000 C   0  0  0  0  0  0  0  0  0  0  0  0
    8.1301    1.3516    0.0000 C   0  0  0  0  0  0  0  0  0  0  0  0
    8.1301    6.3516    0.0000 C   0  0  0  0  0  0  0  0  0  0  0  0
    6.7641    6.7176    0.0000 C   0  0  0  0  0  0  0  0  0  0  0  0
    7.7641    4.9856    0.0000 C   0  0  0  0  0  0  0  0  0  0  0  0
    6.3981   -0.6484    0.0000 C   0  0  0  0  0  0  0  0  0  0  0  0
    6.3981   -1.6484    0.0000 C   0  0  2  0  0  0  0  0  0  0  0  0
    8.9962    0.8516    0.0000 C   0  0  0  0  0  0  0  0  0  0  0  0
    5.5321   -2.1484    0.0000 C   0  0  1  0  0  0  0  0  0  0  0  0
    4.6185   -1.7416    0.0000 C   0  0  0  0  0  0  0  0  0  0  0  0
    5.4275   -3.1429    0.0000 C   0  0  0  0  0  0  0  0  0  0  0  0
    3.9494   -2.4848    0.0000 C   0  0  0  0  0  0  0  0  0  0  0  0
    9.8622    1.3516    0.0000 C   0  0  0  0  0  0  0  0  0  0  0  0
    8.9962   -0.1484    0.0000 C   0  0  0  0  0  0  0  0  0  0  0  0
   10.7282    0.8516    0.0000 C   0  0  0  0  0  0  0  0  0  0  0  0
    9.8622   -0.6484    0.0000 C   0  0  0  0  0  0  0  0  0  0  0  0
    7.2641   -3.1484    0.0000 C   0  0  0  0  0  0  0  0  0  0  0  0
   10.7282   -0.1484    0.0000 C   0  0  0  0  0  0  0  0  0  0  0  0
    8.1301   -3.6484    0.0000 C   0  0  0  0  0  0  0  0  0  0  0  0
    8.9962   -3.1484    0.0000 C   0  0  0  0  0  0  0  0  0  0  0  0
    8.9962   -5.1484    0.0000 C   0  0  0  0  0  0  0  0  0  0  0  0
    9.8622   -4.6484    0.0000 C   0  0  0  0  0  0  0  0  0  0  0  0
    8.9801   -6.1899    0.0000 C   0  0  0  0  0  0  0  0  0  0  0  0
   10.7722   -5.1552    0.0000 C   0  0  0  0  0  0  0  0  0  0  0  0
    9.8781   -6.7176    0.0000 C   0  0  0  0  0  0  0  0  0  0  0  0
   10.7802   -6.1968    0.0000 C   0  0  0  0  0  0  0  0  0  0  0  0
    3.8066    4.7016    0.0000 H   0  0  0  0  0  0  0  0  0  0  0  0
    3.8066    2.0016    0.0000 H   0  0  0  0  0  0  0  0  0  0  0  0
    5.0646    4.8266    0.0000 H   0  0  0  0  0  0  0  0  0  0  0  0
    4.2675    4.8266    0.0000 H   0  0  0  0  0  0  0  0  0  0  0  0
    4.2675    1.8767    0.0000 H   0  0  0  0  0  0  0  0  0  0  0  0
    5.0646    1.8767    0.0000 H   0  0  0  0  0  0  0  0  0  0  0  0
    3.3107    4.8561    0.0000 H   0  0  0  0  0  0  0  0  0  0  0  0
    2.5124    4.8653    0.0000 H   0  0  0  0  0  0  0  0  0  0  0  0
    2.5124    1.8379    0.0000 H   0  0  0  0  0  0  0  0  0  0  0  0
    3.3107    1.8472    0.0000 H   0  0  0  0  0  0  0  0  0  0  0  0
    6.0690    3.5416    0.0000 H   0  0  0  0  0  0  0  0  0  0  0  0
    1.7909    4.4561    0.0000 H   0  0  0  0  0  0  0  0  0  0  0  0
    1.3891    3.7663    0.0000 H   0  0  0  0  0  0  0  0  0  0  0  0
    1.3891    2.9369    0.0000 H   0  0  0  0  0  0  0  0  0  0  0  0
    1.7909    2.2471    0.0000 H   0  0  0  0  0  0  0  0  0  0  0  0
    7.0087    2.2440    0.0000 H   0  0  0  0  0  0  0  0  0  0  0  0
    6.6101    2.9342    0.0000 H   0  0  0  0  0  0  0  0  0  0  0  0
    6.3981    0.7316    0.0000 H   0  0  0  0  0  0  0  0  0  0  0  0
    7.8010    0.5416    0.0000 H   0  0  0  0  0  0  0  0  0  0  0  0
    5.8612    5.6616    0.0000 H   0  0  0  0  0  0  0  0  0  0  0  0
    8.5287    1.8266    0.0000 H   0  0  0  0  0  0  0  0  0  0  0  0
    7.7316    1.8266    0.0000 H   0  0  0  0  0  0  0  0  0  0  0  0
    4.9951    1.1616    0.0000 H   0  0  0  0  0  0  0  0  0  0  0  0
    7.8010   -0.4584    0.0000 H   0  0  0  0  0  0  0  0  0  0  0  0
    8.4401    5.8147    0.0000 H   0  0  0  0  0  0  0  0  0  0  0  0
    8.6671    6.6616    0.0000 H   0  0  0  0  0  0  0  0  0  0  0  0
    7.8201    6.8886    0.0000 H   0  0  0  0  0  0  0  0  0  0  0  0
    7.3010    7.0276    0.0000 H   0  0  0  0  0  0  0  0  0  0  0  0
    6.4541    7.2546    0.0000 H   0  0  0  0  0  0  0  0  0  0  0  0
    6.2272    6.4076    0.0000 H   0  0  0  0  0  0  0  0  0  0  0  0
    7.2272    4.6756    0.0000 H   0  0  0  0  0  0  0  0  0  0  0  0
    8.0741    4.4487    0.0000 H   0  0  0  0  0  0  0  0  0  0  0  0
    8.3010    5.2956    0.0000 H   0  0  0  0  0  0  0  0  0  0  0  0
    6.3981   -2.2684    0.0000 H   0  0  0  0  0  0  0  0  0  0  0  0
    5.4876   -1.2996    0.0000 H   0  0  0  0  0  0  0  0  0  0  0  0
    4.9285   -1.2047    0.0000 H   0  0  0  0  0  0  0  0  0  0  0  0
    4.1169   -1.3772    0.0000 H   0  0  0  0  0  0  0  0  0  0  0  0
    5.4923   -3.7595    0.0000 H   0  0  0  0  0  0  0  0  0  0  0  0
    6.0475   -3.1429    0.0000 H   0  0  0  0  0  0  0  0  0  0  0  0
    3.5345   -2.0240    0.0000 H   0  0  0  0  0  0  0  0  0  0  0  0
    3.4478   -2.8492    0.0000 H   0  0  0  0  0  0  0  0  0  0  0  0
    7.8010   -1.8384    0.0000 H   0  0  0  0  0  0  0  0  0  0  0  0
    9.8622    1.9716    0.0000 H   0  0  0  0  0  0  0  0  0  0  0  0
    8.4592   -0.4584    0.0000 H   0  0  0  0  0  0  0  0  0  0  0  0
   11.2651    1.1616    0.0000 H   0  0  0  0  0  0  0  0  0  0  0  0
    9.8622   -1.2684    0.0000 H   0  0  0  0  0  0  0  0  0  0  0  0
   11.2651   -0.4584    0.0000 H   0  0  0  0  0  0  0  0  0  0  0  0
    8.9962   -2.5284    0.0000 H   0  0  0  0  0  0  0  0  0  0  0  0
    8.4396   -6.4937    0.0000 H   0  0  0  0  0  0  0  0  0  0  0  0
   11.3055   -4.8390    0.0000 H   0  0  0  0  0  0  0  0  0  0  0  0
    9.8758   -7.3376    0.0000 H   0  0  0  0  0  0  0  0  0  0  0  0
   11.3183   -6.5048    0.0000 H   0  0  0  0  0  0  0  0  0  0  0  0
 23  1  1  6  0  0  0
  1 73  1  0  0  0  0
  2 22  2  0  0  0  0
  3 35  1  0  0  0  0
  3 36  1  0  0  0  0
  4 30  2  0  0  0  0
  5 41  2  0  0  0  0
  6 15  1  0  0  0  0
  6 18  1  0  0  0  0
  6 21  1  0  0  0  0
  7 22  1  0  0  0  0
  7 25  1  0  0  0  0
  7 70  1  0  0  0  0
 24  8  1  6  0  0  0
  8 30  1  0  0  0  0
  8 74  1  0  0  0  0
 31  9  1  1  0  0  0
  9 41  1  0  0  0  0
  9 92  1  0  0  0  0
 10 43  2  0  0  0  0
 10 45  1  0  0  0  0
 11 44  2  0  0  0  0
 11 46  1  0  0  0  0
 12 13  1  0  0  0  0
 12 14  1  0  0  0  0
 12 16  1  0  0  0  0
 12 51  1  6  0  0  0
 13 15  1  0  0  0  0
 13 17  1  0  0  0  0
 13 52  1  6  0  0  0
 14 18  1  0  0  0  0
 14 53  1  0  0  0  0
 14 54  1  0  0  0  0
 15 55  1  0  0  0  0
 15 56  1  0  0  0  0
 16 19  1  0  0  0  0
 16 57  1  0  0  0  0
 16 58  1  0  0  0  0
 17 20  1  0  0  0  0
 17 59  1  0  0  0  0
 17 60  1  0  0  0  0
 18 22  1  1  0  0  0
 18 61  1  0  0  0  0
 19 20  1  0  0  0  0
 19 62  1  0  0  0  0
 19 63  1  0  0  0  0
 20 64  1  0  0  0  0
 20 65  1  0  0  0  0
 21 23  1  0  0  0  0
 21 66  1  0  0  0  0
 21 67  1  0  0  0  0
 23 24  1  0  0  0  0
 23 68  1  0  0  0  0
 24 26  1  0  0  0  0
 24 69  1  0  0  0  0
 25 27  1  0  0  0  0
 25 28  1  0  0  0  0
 25 29  1  0  0  0  0
 26 32  1  0  0  0  0
 26 71  1  0  0  0  0
 26 72  1  0  0  0  0
 27 75  1  0  0  0  0
 27 76  1  0  0  0  0
 27 77  1  0  0  0  0
 28 78  1  0  0  0  0
 28 79  1  0  0  0  0
 28 80  1  0  0  0  0
 29 81  1  0  0  0  0
 29 82  1  0  0  0  0
 29 83  1  0  0  0  0
 30 31  1  0  0  0  0
 31 33  1  0  0  0  0
 31 84  1  0  0  0  0
 32 37  2  0  0  0  0
 32 38  1  0  0  0  0
 33 34  1  0  0  0  0
 33 35  1  0  0  0  0
 33 85  1  1  0  0  0
 34 36  1  0  0  0  0
 34 86  1  0  0  0  0
 34 87  1  0  0  0  0
 35 88  1  0  0  0  0
 35 89  1  0  0  0  0
 36 90  1  0  0  0  0
 36 91  1  0  0  0  0
 37 39  1  0  0  0  0
 37 93  1  0  0  0  0
 38 40  2  0  0  0  0
 38 94  1  0  0  0  0
 39 42  2  0  0  0  0
 39 95  1  0  0  0  0
 40 42  1  0  0  0  0
 40 96  1  0  0  0  0
 41 43  1  0  0  0  0
 42 97  1  0  0  0  0
 43 44  1  0  0  0  0
 44 98  1  0  0  0  0
 45 46  1  0  0  0  0
 45 47  2  0  0  0  0
 46 48  2  0  0  0  0
 47 49  1  0  0  0  0
 47 99  1  0  0  0  0
 48 50  1  0  0  0  0
 48100  1  0  0  0  0
 49 50  2  0  0  0  0
 49101  1  0  0  0  0
 50102  1  0  0  0  0
M  END
> <PUBCHEM_COMPOUND_CID>
515897
> <PUBCHEM_COMPOUND_CANONICALIZED>
1
> <PUBCHEM_CACTVS_COMPLEXITY>
1140
> <PUBCHEM_CACTVS_HBOND_ACCEPTOR>
8
> <PUBCHEM_CACTVS_HBOND_DONOR>
4
> <PUBCHEM_CACTVS_ROTATABLE_BOND>
12
> <PUBCHEM_CACTVS_SUBSKEYS>
AAADcfB/uAAAAAAAAAAAAAAAAAAAASAAAAA8eMECAAAAAACx9AAAHgAQCAAADbzhngY+wLPIFgCoAzV3VACCgCQ3EiAI2KG4dNgKcPrA0bGWYIhmlgDYyMe63KKOgAAAAAAAACAAAAAAACAAQAAAAAAAAA==
> <PUBCHEM_IUPAC_OPENEYE_NAME>
N-[(1S)-2-[[(1S,2R)-3-[(3S,4aS,8aS)-3-(tert-butylcarbamoyl)-3,4,4a,5,6,7,8,8a-octahydro-1H-isoquinolin-2-yl]-1-benzyl-2-hydroxy-propyl]amino]-2-oxo-1-[(3R)-tetrahydrofuran-3-yl]ethyl]quinoxaline-2-carboxamide
> <PUBCHEM_IUPAC_CAS_NAME>
N-[(1S)-2-[[(2S,3R)-4-[(3S,4aS,8aS)-3-[(tert-butylamino)-oxomethyl]-3,4,4a,5,6,7,8,8a-octahydro-1H-isoquinolin-2-yl]-3-hydroxy-1-phenylbutan-2-yl]amino]-2-oxo-1-[(3R)-3-oxolanyl]ethyl]-2-quinoxalinecarboxamide
> <PUBCHEM_IUPAC_NAME_MARKUP>
<I>N</I>-[(1<I>S</I>)-2-[[(2<I>S</I>,3<I>R</I>)-4-[(3<I>S</I>,4<I>a</I><I>S</I>,8<I>a</I><I>S</I>)-3-(<I>tert</I>-butylcarbamoyl)-3,4,4<I>a</I>,5,6,7,8,8<I>a</I>-octahydro-1<I>H</I>-isoquinolin-2-yl]-3-hydroxy-1-phenylbutan-2-yl]amino]-2-oxo-1-[(3<I>R</I>)-oxolan-3-yl]ethyl]quinoxaline-2-carboxamide
> <PUBCHEM_IUPAC_NAME>
N-[(1S)-2-[[(2S,3R)-4-[(3S,4aS,8aS)-3-(tert-butylcarbamoyl)-3,4,4a,5,6,7,8,8a-octahydro-1H-isoquinolin-2-yl]-3-hydroxy-1-phenylbutan-2-yl]amino]-2-oxo-1-[(3R)-oxolan-3-yl]ethyl]quinoxaline-2-carboxamide
> <PUBCHEM_IUPAC_SYSTEMATIC_NAME>
N-[(1S)-2-[[(2S,3R)-4-[(3S,4aS,8aS)-3-(tert-butylcarbamoyl)-3,4,4a,5,6,7,8,8a-octahydro-1H-isoquinolin-2-yl]-3-oxidanyl-1-phenyl-butan-2-yl]amino]-2-oxidanylidene-1-[(3R)-oxolan-3-yl]ethyl]quinoxaline-2-carboxamide
> <PUBCHEM_IUPAC_TRADITIONAL_NAME>
N-[(1S)-2-[[(1S,2R)-3-[(3S,4aS,8aS)-3-(tert-butylcarbamoyl)-3,4,4a,5,6,7,8,8a-octahydro-1H-isoquinolin-2-yl]-1-benzyl-2-hydroxy-propyl]amino]-2-keto-1-[(3R)-tetrahydrofuran-3-yl]ethyl]quinoxaline-2-carboxamide
> <PUBCHEM_IUPAC_INCHI>
InChI=1S/C39H52N6O5/c1-39(2,3)44-37(48)33-20-26-13-7-8-14-27(26)22-45(33)23-34(46)31(19-25-11-5-4-6-12-25)42-38(49)35(28-17-18-50-24-28)43-36(47)32-21-40-29-15-9-10-16-30(29)41-32/h4-6,9-12,15-16,21,26-28,31,33-35,46H,7-8,13-14,17-20,22-24H2,1-3H3,(H,42,49)(H,43,47)(H,44,48)/t26-,27+,28-,31-,33-,34+,35-/m0/s1
> <PUBCHEM_IUPAC_INCHIKEY>
MGUCDSPLDUZWFB-XXPPFYJHSA-N
> <PUBCHEM_XLOGP3_AA>
4.6
> <PUBCHEM_EXACT_MASS>
684.39991878
> <PUBCHEM_MOLECULAR_FORMULA>
C39H52N6O5
> <PUBCHEM_MOLECULAR_WEIGHT>
684.9
> <PUBCHEM_OPENEYE_CAN_SMILES>
CC(C)(C)NC(=O)C1CC2CCCCC2CN1CC(C(CC3=CC=CC=C3)NC(=O)C(C4CCOC4)NC(=O)C5=NC6=CC=CC=C6N=C5)O
> <PUBCHEM_OPENEYE_ISO_SMILES>
CC(C)(C)NC(=O)[C@@H]1C[C@@H]2CCCC[C@@H]2CN1C[C@H]([C@H](CC3=CC=CC=C3)NC(=O)[C@H]([C@H]4CCOC4)NC(=O)C5=NC6=CC=CC=C6N=C5)O
> <PUBCHEM_CACTVS_TPSA>
146
> <PUBCHEM_MONOISOTOPIC_WEIGHT>
684.39991878
> <PUBCHEM_TOTAL_CHARGE>
0
> <PUBCHEM_HEAVY_ATOM_COUNT>
50
> <PUBCHEM_ATOM_DEF_STEREO_COUNT>
7
> <PUBCHEM_ATOM_UDEF_STEREO_COUNT>
0
> <PUBCHEM_BOND_DEF_STEREO_COUNT>
0
> <PUBCHEM_BOND_UDEF_STEREO_COUNT>
0
> <PUBCHEM_ISOTOPIC_ATOM_COUNT>
0
> <PUBCHEM_COMPONENT_COUNT>
1
> <PUBCHEM_CACTVS_TAUTO_COUNT>
-1
> <PUBCHEM_COORDINATE_TYPE>
1
5
255
> <PUBCHEM_BONDANNOTATIONS>
23  1  6
10  43  8
10  45  8
11  44  8
11  46  8
12  51  6
13  52  6
18  22  5
32  37  8
32  38  8
33  85  5
37  39  8
38  40  8
39  42  8
40  42  8
43  44  8
45  46  8
45  47  8
46  48  8
47  49  8
48  50  8
49  50  8
24  8  6
31  9  5
$$$$
