515820
  -OEChem-10302200282D
 99103  0     1  0  0  0  0  0999 V2000
    8.7788    3.3824    0.0000 S   0  0  0  0  0  0  0  0  0  0  0  0
    9.8988   -0.4594    0.0000 S   0  0  0  0  0  0  0  0  0  0  0  0
    4.5981   -4.4540    0.0000 O   0  0  0  0  0  0  0  0  0  0  0  0
    5.4641   -1.9540    0.0000 O   0  0  0  0  0  0  0  0  0  0  0  0
    4.5981    1.5460    0.0000 O   0  0  0  0  0  0  0  0  0  0  0  0
    8.0622   -1.4540    0.0000 O   0  0  0  0  0  0  0  0  0  0  0  0
    6.3301   -1.4540    0.0000 O   0  0  0  0  0  0  0  0  0  0  0  0
    7.3007    4.0406    0.0000 N   0  0  0  0  0  0  0  0  0  0  0  0
    3.7320   -1.9540    0.0000 N   0  0  0  0  0  0  0  0  0  0  0  0
    7.1962   -2.9540    0.0000 N   0  0  0  0  0  0  0  0  0  0  0  0
    5.4641    0.0460    0.0000 N   0  0  0  0  0  0  0  0  0  0  0  0
    6.3301    1.5460    0.0000 N   0  0  0  0  0  0  0  0  0  0  0  0
   11.3769   -1.1176    0.0000 N   0  0  0  0  0  0  0  0  0  0  0  0
    8.6856    5.1620    0.0000 C   0  0  0  0  0  0  0  0  0  0  0  0
    9.6192    5.5204    0.0000 C   0  0  0  0  0  0  0  0  0  0  0  0
    8.3272    6.0956    0.0000 C   0  0  0  0  0  0  0  0  0  0  0  0
    9.2608    6.4540    0.0000 C   0  0  0  0  0  0  0  0  0  0  0  0
    8.2788    4.2485    0.0000 C   0  0  0  0  0  0  0  0  0  0  0  0
    3.7320   -2.9540    0.0000 C   0  0  2  0  0  0  0  0  0  0  0  0
    4.5981   -3.4540    0.0000 C   0  0  2  0  0  0  0  0  0  0  0  0
    5.4641   -2.9540    0.0000 C   0  0  0  0  0  0  0  0  0  0  0  0
    6.3301   -3.4540    0.0000 C   0  0  2  0  0  0  0  0  0  0  0  0
    2.8660   -3.4540    0.0000 C   0  0  0  0  0  0  0  0  0  0  0  0
    7.1962    3.0460    0.0000 C   0  0  0  0  0  0  0  0  0  0  0  0
    4.5981   -0.4540    0.0000 C   0  0  1  0  0  0  0  0  0  0  0  0
    6.3301   -4.4540    0.0000 C   0  0  0  0  0  0  0  0  0  0  0  0
    8.1097    2.6393    0.0000 C   0  0  0  0  0  0  0  0  0  0  0  0
    3.7320    0.0460    0.0000 C   0  0  0  0  0  0  0  0  0  0  0  0
    4.5981   -1.4540    0.0000 C   0  0  0  0  0  0  0  0  0  0  0  0
    6.3301    2.5460    0.0000 C   0  0  0  0  0  0  0  0  0  0  0  0
    2.8660   -4.4540    0.0000 C   0  0  0  0  0  0  0  0  0  0  0  0
    7.1962   -4.9540    0.0000 C   0  0  0  0  0  0  0  0  0  0  0  0
    3.7320    1.0460    0.0000 C   0  0  0  0  0  0  0  0  0  0  0  0
    2.8660   -0.4540    0.0000 C   0  0  0  0  0  0  0  0  0  0  0  0
    5.4641    1.0460    0.0000 C   0  0  0  0  0  0  0  0  0  0  0  0
    3.7320   -4.9540    0.0000 C   0  0  0  0  0  0  0  0  0  0  0  0
    2.0000   -4.9540    0.0000 C   0  0  0  0  0  0  0  0  0  0  0  0
    7.1962   -1.9540    0.0000 C   0  0  0  0  0  0  0  0  0  0  0  0
    7.1962    1.0460    0.0000 C   0  0  0  0  0  0  0  0  0  0  0  0
    8.0622   -4.4540    0.0000 C   0  0  0  0  0  0  0  0  0  0  0  0
    7.1962   -5.9540    0.0000 C   0  0  0  0  0  0  0  0  0  0  0  0
    3.7320   -5.9540    0.0000 C   0  0  0  0  0  0  0  0  0  0  0  0
    2.0000   -5.9540    0.0000 C   0  0  0  0  0  0  0  0  0  0  0  0
    2.8660   -6.4540    0.0000 C   0  0  0  0  0  0  0  0  0  0  0  0
    8.9282   -4.9540    0.0000 C   0  0  0  0  0  0  0  0  0  0  0  0
    8.0622   -6.4540    0.0000 C   0  0  0  0  0  0  0  0  0  0  0  0
    8.9282   -5.9540    0.0000 C   0  0  0  0  0  0  0  0  0  0  0  0
    8.9282   -1.9540    0.0000 C   0  0  0  0  0  0  0  0  0  0  0  0
    9.7942   -1.4540    0.0000 C   0  0  0  0  0  0  0  0  0  0  0  0
   10.7078   -1.8607    0.0000 C   0  0  0  0  0  0  0  0  0  0  0  0
   10.8769   -0.2515    0.0000 C   0  0  0  0  0  0  0  0  0  0  0  0
    8.0658    5.1782    0.0000 H   0  0  0  0  0  0  0  0  0  0  0  0
    9.8413    4.9416    0.0000 H   0  0  0  0  0  0  0  0  0  0  0  0
   10.1980    5.7426    0.0000 H   0  0  0  0  0  0  0  0  0  0  0  0
    8.1050    6.6744    0.0000 H   0  0  0  0  0  0  0  0  0  0  0  0
    7.7484    5.8734    0.0000 H   0  0  0  0  0  0  0  0  0  0  0  0
    9.8396    6.6762    0.0000 H   0  0  0  0  0  0  0  0  0  0  0  0
    9.0386    7.0328    0.0000 H   0  0  0  0  0  0  0  0  0  0  0  0
    4.2690   -2.6440    0.0000 H   0  0  0  0  0  0  0  0  0  0  0  0
    5.1350   -3.7640    0.0000 H   0  0  0  0  0  0  0  0  0  0  0  0
    5.8626   -2.4790    0.0000 H   0  0  0  0  0  0  0  0  0  0  0  0
    5.0656   -2.4790    0.0000 H   0  0  0  0  0  0  0  0  0  0  0  0
    6.8671   -3.7640    0.0000 H   0  0  0  0  0  0  0  0  0  0  0  0
    2.6540   -2.8714    0.0000 H   0  0  0  0  0  0  0  0  0  0  0  0
    2.2554   -3.5616    0.0000 H   0  0  0  0  0  0  0  0  0  0  0  0
    3.1951   -1.6440    0.0000 H   0  0  0  0  0  0  0  0  0  0  0  0
    4.5981    0.1660    0.0000 H   0  0  0  0  0  0  0  0  0  0  0  0
    5.7196   -4.3463    0.0000 H   0  0  0  0  0  0  0  0  0  0  0  0
    6.1181   -5.0366    0.0000 H   0  0  0  0  0  0  0  0  0  0  0  0
    8.2386    2.0328    0.0000 H   0  0  0  0  0  0  0  0  0  0  0  0
    3.7320   -0.5740    0.0000 H   0  0  0  0  0  0  0  0  0  0  0  0
    6.1181    3.1286    0.0000 H   0  0  0  0  0  0  0  0  0  0  0  0
    5.7196    2.4384    0.0000 H   0  0  0  0  0  0  0  0  0  0  0  0
    7.7331   -3.2640    0.0000 H   0  0  0  0  0  0  0  0  0  0  0  0
    5.1350   -4.7640    0.0000 H   0  0  0  0  0  0  0  0  0  0  0  0
    6.0010   -0.2640    0.0000 H   0  0  0  0  0  0  0  0  0  0  0  0
    4.3520    1.0460    0.0000 H   0  0  0  0  0  0  0  0  0  0  0  0
    3.7320    1.6660    0.0000 H   0  0  0  0  0  0  0  0  0  0  0  0
    3.1120    1.0460    0.0000 H   0  0  0  0  0  0  0  0  0  0  0  0
    2.5560    0.0830    0.0000 H   0  0  0  0  0  0  0  0  0  0  0  0
    2.3291   -0.7640    0.0000 H   0  0  0  0  0  0  0  0  0  0  0  0
    3.1760   -0.9909    0.0000 H   0  0  0  0  0  0  0  0  0  0  0  0
    4.2690   -4.6440    0.0000 H   0  0  0  0  0  0  0  0  0  0  0  0
    1.4631   -4.6440    0.0000 H   0  0  0  0  0  0  0  0  0  0  0  0
    6.8862    0.5091    0.0000 H   0  0  0  0  0  0  0  0  0  0  0  0
    7.7331    0.7360    0.0000 H   0  0  0  0  0  0  0  0  0  0  0  0
    7.5062    1.5830    0.0000 H   0  0  0  0  0  0  0  0  0  0  0  0
    8.0622   -3.8340    0.0000 H   0  0  0  0  0  0  0  0  0  0  0  0
    6.6592   -6.2640    0.0000 H   0  0  0  0  0  0  0  0  0  0  0  0
    4.2690   -6.2640    0.0000 H   0  0  0  0  0  0  0  0  0  0  0  0
    1.4631   -6.2640    0.0000 H   0  0  0  0  0  0  0  0  0  0  0  0
    2.8660   -7.0740    0.0000 H   0  0  0  0  0  0  0  0  0  0  0  0
    9.4651   -4.6440    0.0000 H   0  0  0  0  0  0  0  0  0  0  0  0
    8.0622   -7.0740    0.0000 H   0  0  0  0  0  0  0  0  0  0  0  0
    9.4651   -6.2640    0.0000 H   0  0  0  0  0  0  0  0  0  0  0  0
    8.5297   -2.4289    0.0000 H   0  0  0  0  0  0  0  0  0  0  0  0
    9.3267   -2.4289    0.0000 H   0  0  0  0  0  0  0  0  0  0  0  0
   10.8367   -2.4672    0.0000 H   0  0  0  0  0  0  0  0  0  0  0  0
   11.1291    0.3149    0.0000 H   0  0  0  0  0  0  0  0  0  0  0  0
  1 18  1  0  0  0  0
  1 27  1  0  0  0  0
  2 49  1  0  0  0  0
  2 51  1  0  0  0  0
 20  3  1  6  0  0  0
  3 75  1  0  0  0  0
  4 29  2  0  0  0  0
  5 35  2  0  0  0  0
  6 38  1  0  0  0  0
  6 48  1  0  0  0  0
  7 38  2  0  0  0  0
  8 18  2  0  0  0  0
  8 24  1  0  0  0  0
 19  9  1  6  0  0  0
  9 29  1  0  0  0  0
  9 66  1  0  0  0  0
 22 10  1  1  0  0  0
 10 38  1  0  0  0  0
 10 74  1  0  0  0  0
 25 11  1  6  0  0  0
 11 35  1  0  0  0  0
 11 76  1  0  0  0  0
 12 30  1  0  0  0  0
 12 35  1  0  0  0  0
 12 39  1  0  0  0  0
 13 50  1  0  0  0  0
 13 51  2  0  0  0  0
 14 15  1  0  0  0  0
 14 16  1  0  0  0  0
 14 18  1  0  0  0  0
 14 52  1  0  0  0  0
 15 17  1  0  0  0  0
 15 53  1  0  0  0  0
 15 54  1  0  0  0  0
 16 17  1  0  0  0  0
 16 55  1  0  0  0  0
 16 56  1  0  0  0  0
 17 57  1  0  0  0  0
 17 58  1  0  0  0  0
 19 20  1  0  0  0  0
 19 23  1  0  0  0  0
 19 59  1  0  0  0  0
 20 21  1  0  0  0  0
 20 60  1  0  0  0  0
 21 22  1  0  0  0  0
 21 61  1  0  0  0  0
 21 62  1  0  0  0  0
 22 26  1  0  0  0  0
 22 63  1  0  0  0  0
 23 31  1  0  0  0  0
 23 64  1  0  0  0  0
 23 65  1  0  0  0  0
 24 27  2  0  0  0  0
 24 30  1  0  0  0  0
 25 28  1  0  0  0  0
 25 29  1  0  0  0  0
 25 67  1  0  0  0  0
 26 32  1  0  0  0  0
 26 68  1  0  0  0  0
 26 69  1  0  0  0  0
 27 70  1  0  0  0  0
 28 33  1  0  0  0  0
 28 34  1  0  0  0  0
 28 71  1  0  0  0  0
 30 72  1  0  0  0  0
 30 73  1  0  0  0  0
 31 36  2  0  0  0  0
 31 37  1  0  0  0  0
 32 40  2  0  0  0  0
 32 41  1  0  0  0  0
 33 77  1  0  0  0  0
 33 78  1  0  0  0  0
 33 79  1  0  0  0  0
 34 80  1  0  0  0  0
 34 81  1  0  0  0  0
 34 82  1  0  0  0  0
 36 42  1  0  0  0  0
 36 83  1  0  0  0  0
 37 43  2  0  0  0  0
 37 84  1  0  0  0  0
 39 85  1  0  0  0  0
 39 86  1  0  0  0  0
 39 87  1  0  0  0  0
 40 45  1  0  0  0  0
 40 88  1  0  0  0  0
 41 46  2  0  0  0  0
 41 89  1  0  0  0  0
 42 44  2  0  0  0  0
 42 90  1  0  0  0  0
 43 44  1  0  0  0  0
 43 91  1  0  0  0  0
 44 92  1  0  0  0  0
 45 47  2  0  0  0  0
 45 93  1  0  0  0  0
 46 47  1  0  0  0  0
 46 94  1  0  0  0  0
 47 95  1  0  0  0  0
 48 49  1  0  0  0  0
 48 96  1  0  0  0  0
 48 97  1  0  0  0  0
 49 50  2  0  0  0  0
 50 98  1  0  0  0  0
 51 99  1  0  0  0  0
M  END
> <PUBCHEM_COMPOUND_CID>
515820
> <PUBCHEM_COMPOUND_CANONICALIZED>
1
> <PUBCHEM_CACTVS_COMPLEXITY>
1090
> <PUBCHEM_CACTVS_HBOND_ACCEPTOR>
9
> <PUBCHEM_CACTVS_HBOND_DONOR>
4
> <PUBCHEM_CACTVS_ROTATABLE_BOND>
18
> <PUBCHEM_CACTVS_SUBSKEYS>
AAADcfB/uABgAAAAAAAAAAAAAABgAWLAAAAwYAAAAAAAAAAB9AAAHgQQCAAADTzl3ga/iZPIFgisAzV3XACC8KBxCjhI2J24bImKdDLgsTmcYAgulgL4qAeQwPAOAAAAAAAAAAAAAAAAAAAAAAAAAAAAAA==
> <PUBCHEM_IUPAC_OPENEYE_NAME>
thiazol-5-ylmethyl N-[(1S,3S,4S)-1-benzyl-4-[[(2S)-2-[[(2-cyclobutylthiazol-4-yl)methyl-methyl-carbamoyl]amino]-3-methyl-butanoyl]amino]-3-hydroxy-5-phenyl-pentyl]carbamate
> <PUBCHEM_IUPAC_CAS_NAME>
N-[(2S,4S,5S)-5-[[(2S)-2-[[[(2-cyclobutyl-4-thiazolyl)methyl-methylamino]-oxomethyl]amino]-3-methyl-1-oxobutyl]amino]-4-hydroxy-1,6-diphenylhexan-2-yl]carbamic acid 5-thiazolylmethyl ester
> <PUBCHEM_IUPAC_NAME_MARKUP>
1,3-thiazol-5-ylmethyl <I>N</I>-[(2<I>S</I>,4<I>S</I>,5<I>S</I>)-5-[[(2<I>S</I>)-2-[[(2-cyclobutyl-1,3-thiazol-4-yl)methyl-methylcarbamoyl]amino]-3-methylbutanoyl]amino]-4-hydroxy-1,6-diphenylhexan-2-yl]carbamate
> <PUBCHEM_IUPAC_NAME>
1,3-thiazol-5-ylmethyl N-[(2S,4S,5S)-5-[[(2S)-2-[[(2-cyclobutyl-1,3-thiazol-4-yl)methyl-methylcarbamoyl]amino]-3-methylbutanoyl]amino]-4-hydroxy-1,6-diphenylhexan-2-yl]carbamate
> <PUBCHEM_IUPAC_SYSTEMATIC_NAME>
1,3-thiazol-5-ylmethyl N-[(2S,4S,5S)-5-[[(2S)-2-[[(2-cyclobutyl-1,3-thiazol-4-yl)methyl-methyl-carbamoyl]amino]-3-methyl-butanoyl]amino]-4-oxidanyl-1,6-diphenyl-hexan-2-yl]carbamate
> <PUBCHEM_IUPAC_TRADITIONAL_NAME>
N-[(1S,3S,4S)-1-benzyl-4-[[(2S)-2-[[(2-cyclobutylthiazol-4-yl)methyl-methyl-carbamoyl]amino]-3-methyl-butanoyl]amino]-3-hydroxy-5-phenyl-pentyl]carbamic acid thiazol-5-ylmethyl ester
> <PUBCHEM_IUPAC_INCHI>
InChI=1S/C38H48N6O5S2/c1-25(2)34(43-37(47)44(3)21-30-23-50-36(40-30)28-15-10-16-28)35(46)42-32(18-27-13-8-5-9-14-27)33(45)19-29(17-26-11-6-4-7-12-26)41-38(48)49-22-31-20-39-24-51-31/h4-9,11-14,20,23-25,28-29,32-34,45H,10,15-19,21-22H2,1-3H3,(H,41,48)(H,42,46)(H,43,47)/t29-,32-,33-,34-/m0/s1
> <PUBCHEM_IUPAC_INCHIKEY>
LBQFSDYVLBUGPU-UYDQTSAYSA-N
> <PUBCHEM_XLOGP3_AA>
6
> <PUBCHEM_EXACT_MASS>
732.31276100
> <PUBCHEM_MOLECULAR_FORMULA>
C38H48N6O5S2
> <PUBCHEM_MOLECULAR_WEIGHT>
733.0
> <PUBCHEM_OPENEYE_CAN_SMILES>
CC(C)C(C(=O)NC(CC1=CC=CC=C1)C(CC(CC2=CC=CC=C2)NC(=O)OCC3=CN=CS3)O)NC(=O)N(C)CC4=CSC(=N4)C5CCC5
> <PUBCHEM_OPENEYE_ISO_SMILES>
CC(C)[C@@H](C(=O)N[C@@H](CC1=CC=CC=C1)[C@H](C[C@H](CC2=CC=CC=C2)NC(=O)OCC3=CN=CS3)O)NC(=O)N(C)CC4=CSC(=N4)C5CCC5
> <PUBCHEM_CACTVS_TPSA>
202
> <PUBCHEM_MONOISOTOPIC_WEIGHT>
732.31276100
> <PUBCHEM_TOTAL_CHARGE>
0
> <PUBCHEM_HEAVY_ATOM_COUNT>
51
> <PUBCHEM_ATOM_DEF_STEREO_COUNT>
4
> <PUBCHEM_ATOM_UDEF_STEREO_COUNT>
0
> <PUBCHEM_BOND_DEF_STEREO_COUNT>
0
> <PUBCHEM_BOND_UDEF_STEREO_COUNT>
0
> <PUBCHEM_ISOTOPIC_ATOM_COUNT>
0
> <PUBCHEM_COMPONENT_COUNT>
1
> <PUBCHEM_CACTVS_TAUTO_COUNT>
-1
> <PUBCHEM_COORDINATE_TYPE>
1
5
255
> <PUBCHEM_BONDANNOTATIONS>
1  18  8
1  27  8
22  10  5
25  11  6
13  50  8
13  51  8
2  49  8
2  51  8
24  27  8
20  3  6
31  36  8
31  37  8
32  40  8
32  41  8
36  42  8
37  43  8
40  45  8
41  46  8
42  44  8
43  44  8
45  47  8
46  47  8
49  50  8
8  18  8
8  24  8
19  9  6
$$$$
