515833
  -OEChem-10302200282D
 92 95  0     1  0  0  0  0  0999 V2000
   13.1090   -2.0864    0.0000 S   0  0  0  0  0  0  0  0  0  0  0  0
    8.1667    4.2445    0.0000 S   0  0  0  0  0  0  0  0  0  0  0  0
    2.8660    0.2500    0.0000 O   0  0  0  0  0  0  0  0  0  0  0  0
    5.4641   -0.2500    0.0000 O   0  0  0  0  0  0  0  0  0  0  0  0
    7.1962    1.7500    0.0000 O   0  0  0  0  0  0  0  0  0  0  0  0
    6.3301    0.2500    0.0000 O   0  0  0  0  0  0  0  0  0  0  0  0
    8.9282   -0.2500    0.0000 O   0  0  0  0  0  0  0  0  0  0  0  0
    4.5981   -1.7500    0.0000 N   0  0  0  0  0  0  0  0  0  0  0  0
    5.4641    1.7500    0.0000 N   0  0  0  0  0  0  0  0  0  0  0  0
    8.0622   -1.7500    0.0000 N   0  0  0  0  0  0  0  0  0  0  0  0
    9.7942   -1.7500    0.0000 N   0  0  0  0  0  0  0  0  0  0  0  0
   11.6308   -2.7445    0.0000 N   0  0  0  0  0  0  0  0  0  0  0  0
    9.6448    3.5864    0.0000 N   0  0  0  0  0  0  0  0  0  0  0  0
    3.7320   -0.2500    0.0000 C   0  0  2  0  0  0  0  0  0  0  0  0
    3.7320   -1.2500    0.0000 C   0  0  2  0  0  0  0  0  0  0  0  0
    4.5981    0.2500    0.0000 C   0  0  0  0  0  0  0  0  0  0  0  0
    4.5981    1.2500    0.0000 C   0  0  2  0  0  0  0  0  0  0  0  0
    2.8660   -1.7500    0.0000 C   0  0  0  0  0  0  0  0  0  0  0  0
    3.7320    1.7500    0.0000 C   0  0  0  0  0  0  0  0  0  0  0  0
    2.8660   -2.7500    0.0000 C   0  0  0  0  0  0  0  0  0  0  0  0
    3.7320    2.7500    0.0000 C   0  0  0  0  0  0  0  0  0  0  0  0
    5.4641   -1.2500    0.0000 C   0  0  0  0  0  0  0  0  0  0  0  0
    6.3301   -1.7500    0.0000 C   0  0  0  0  0  0  0  0  0  0  0  0
    3.7320   -3.2500    0.0000 C   0  0  0  0  0  0  0  0  0  0  0  0
    2.0000   -3.2500    0.0000 C   0  0  0  0  0  0  0  0  0  0  0  0
    6.3301    1.2500    0.0000 C   0  0  0  0  0  0  0  0  0  0  0  0
    2.8660    3.2500    0.0000 C   0  0  0  0  0  0  0  0  0  0  0  0
    4.5981    3.2500    0.0000 C   0  0  0  0  0  0  0  0  0  0  0  0
    7.1962   -1.2500    0.0000 C   0  0  0  0  0  0  0  0  0  0  0  0
    3.7320   -4.2500    0.0000 C   0  0  0  0  0  0  0  0  0  0  0  0
    2.0000   -4.2500    0.0000 C   0  0  0  0  0  0  0  0  0  0  0  0
    2.8660    4.2500    0.0000 C   0  0  0  0  0  0  0  0  0  0  0  0
    4.5981    4.2500    0.0000 C   0  0  0  0  0  0  0  0  0  0  0  0
    2.8660   -4.7500    0.0000 C   0  0  0  0  0  0  0  0  0  0  0  0
    3.7320    4.7500    0.0000 C   0  0  0  0  0  0  0  0  0  0  0  0
    7.1962    2.7500    0.0000 C   0  0  0  0  0  0  0  0  0  0  0  0
    8.9282   -1.2500    0.0000 C   0  0  0  0  0  0  0  0  0  0  0  0
   10.6603   -1.2500    0.0000 C   0  0  0  0  0  0  0  0  0  0  0  0
    8.0622    3.2500    0.0000 C   0  0  0  0  0  0  0  0  0  0  0  0
   11.5263   -1.7500    0.0000 C   0  0  0  0  0  0  0  0  0  0  0  0
   13.0157   -3.8660    0.0000 C   0  0  0  0  0  0  0  0  0  0  0  0
    9.7942   -2.7500    0.0000 C   0  0  0  0  0  0  0  0  0  0  0  0
   12.6090   -2.9524    0.0000 C   0  0  0  0  0  0  0  0  0  0  0  0
   12.4398   -1.3433    0.0000 C   0  0  0  0  0  0  0  0  0  0  0  0
    8.9757    2.8433    0.0000 C   0  0  0  0  0  0  0  0  0  0  0  0
   14.0102   -3.9705    0.0000 C   0  0  0  0  0  0  0  0  0  0  0  0
   12.4279   -4.6750    0.0000 C   0  0  0  0  0  0  0  0  0  0  0  0
    9.1448    4.4524    0.0000 C   0  0  0  0  0  0  0  0  0  0  0  0
    3.7320    0.3700    0.0000 H   0  0  0  0  0  0  0  0  0  0  0  0
    3.7320   -1.8700    0.0000 H   0  0  0  0  0  0  0  0  0  0  0  0
    4.8101   -0.3326    0.0000 H   0  0  0  0  0  0  0  0  0  0  0  0
    5.2087    0.3577    0.0000 H   0  0  0  0  0  0  0  0  0  0  0  0
    4.5981    1.8700    0.0000 H   0  0  0  0  0  0  0  0  0  0  0  0
    2.6540   -1.1674    0.0000 H   0  0  0  0  0  0  0  0  0  0  0  0
    2.2554   -1.8577    0.0000 H   0  0  0  0  0  0  0  0  0  0  0  0
    3.1215    1.8577    0.0000 H   0  0  0  0  0  0  0  0  0  0  0  0
    3.5200    1.1674    0.0000 H   0  0  0  0  0  0  0  0  0  0  0  0
    4.5981   -2.3700    0.0000 H   0  0  0  0  0  0  0  0  0  0  0  0
    5.4641    2.3700    0.0000 H   0  0  0  0  0  0  0  0  0  0  0  0
    2.8660    0.8700    0.0000 H   0  0  0  0  0  0  0  0  0  0  0  0
    5.9316   -2.2250    0.0000 H   0  0  0  0  0  0  0  0  0  0  0  0
    6.7287   -2.2250    0.0000 H   0  0  0  0  0  0  0  0  0  0  0  0
    4.2690   -2.9400    0.0000 H   0  0  0  0  0  0  0  0  0  0  0  0
    1.4631   -2.9400    0.0000 H   0  0  0  0  0  0  0  0  0  0  0  0
    2.3291    2.9400    0.0000 H   0  0  0  0  0  0  0  0  0  0  0  0
    5.1350    2.9400    0.0000 H   0  0  0  0  0  0  0  0  0  0  0  0
    7.5947   -0.7751    0.0000 H   0  0  0  0  0  0  0  0  0  0  0  0
    6.7976   -0.7751    0.0000 H   0  0  0  0  0  0  0  0  0  0  0  0
    4.2690   -4.5600    0.0000 H   0  0  0  0  0  0  0  0  0  0  0  0
    1.4631   -4.5600    0.0000 H   0  0  0  0  0  0  0  0  0  0  0  0
    2.3291    4.5600    0.0000 H   0  0  0  0  0  0  0  0  0  0  0  0
    5.1350    4.5600    0.0000 H   0  0  0  0  0  0  0  0  0  0  0  0
    2.8660   -5.3700    0.0000 H   0  0  0  0  0  0  0  0  0  0  0  0
    3.7320    5.3700    0.0000 H   0  0  0  0  0  0  0  0  0  0  0  0
    8.0622   -2.3700    0.0000 H   0  0  0  0  0  0  0  0  0  0  0  0
    6.9841    3.3326    0.0000 H   0  0  0  0  0  0  0  0  0  0  0  0
    6.5856    2.6423    0.0000 H   0  0  0  0  0  0  0  0  0  0  0  0
   11.0588   -0.7751    0.0000 H   0  0  0  0  0  0  0  0  0  0  0  0
   10.2617   -0.7751    0.0000 H   0  0  0  0  0  0  0  0  0  0  0  0
   12.3991   -3.8012    0.0000 H   0  0  0  0  0  0  0  0  0  0  0  0
    9.1742   -2.7500    0.0000 H   0  0  0  0  0  0  0  0  0  0  0  0
    9.7942   -3.3700    0.0000 H   0  0  0  0  0  0  0  0  0  0  0  0
   10.4142   -2.7500    0.0000 H   0  0  0  0  0  0  0  0  0  0  0  0
   12.5687   -0.7368    0.0000 H   0  0  0  0  0  0  0  0  0  0  0  0
   13.9454   -4.5871    0.0000 H   0  0  0  0  0  0  0  0  0  0  0  0
   14.6268   -4.0353    0.0000 H   0  0  0  0  0  0  0  0  0  0  0  0
   14.0750   -3.3539    0.0000 H   0  0  0  0  0  0  0  0  0  0  0  0
   11.9263   -4.3106    0.0000 H   0  0  0  0  0  0  0  0  0  0  0  0
   12.0635   -5.1766    0.0000 H   0  0  0  0  0  0  0  0  0  0  0  0
   12.9295   -5.0394    0.0000 H   0  0  0  0  0  0  0  0  0  0  0  0
    9.1046    2.2368    0.0000 H   0  0  0  0  0  0  0  0  0  0  0  0
    9.3970    5.0188    0.0000 H   0  0  0  0  0  0  0  0  0  0  0  0
  1 43  1  0  0  0  0
  1 44  1  0  0  0  0
  2 39  1  0  0  0  0
  2 48  1  0  0  0  0
 14  3  1  1  0  0  0
  3 60  1  0  0  0  0
  4 22  2  0  0  0  0
  5 26  1  0  0  0  0
  5 36  1  0  0  0  0
  6 26  2  0  0  0  0
  7 37  2  0  0  0  0
 15  8  1  1  0  0  0
  8 22  1  0  0  0  0
  8 58  1  0  0  0  0
 17  9  1  6  0  0  0
  9 26  1  0  0  0  0
  9 59  1  0  0  0  0
 10 29  1  0  0  0  0
 10 37  1  0  0  0  0
 10 75  1  0  0  0  0
 11 37  1  0  0  0  0
 11 38  1  0  0  0  0
 11 42  1  0  0  0  0
 12 40  1  0  0  0  0
 12 43  2  0  0  0  0
 13 45  1  0  0  0  0
 13 48  2  0  0  0  0
 14 15  1  0  0  0  0
 14 16  1  0  0  0  0
 14 49  1  0  0  0  0
 15 18  1  0  0  0  0
 15 50  1  0  0  0  0
 16 17  1  0  0  0  0
 16 51  1  0  0  0  0
 16 52  1  0  0  0  0
 17 19  1  0  0  0  0
 17 53  1  0  0  0  0
 18 20  1  0  0  0  0
 18 54  1  0  0  0  0
 18 55  1  0  0  0  0
 19 21  1  0  0  0  0
 19 56  1  0  0  0  0
 19 57  1  0  0  0  0
 20 24  2  0  0  0  0
 20 25  1  0  0  0  0
 21 27  2  0  0  0  0
 21 28  1  0  0  0  0
 22 23  1  0  0  0  0
 23 29  1  0  0  0  0
 23 61  1  0  0  0  0
 23 62  1  0  0  0  0
 24 30  1  0  0  0  0
 24 63  1  0  0  0  0
 25 31  2  0  0  0  0
 25 64  1  0  0  0  0
 27 32  1  0  0  0  0
 27 65  1  0  0  0  0
 28 33  2  0  0  0  0
 28 66  1  0  0  0  0
 29 67  1  0  0  0  0
 29 68  1  0  0  0  0
 30 34  2  0  0  0  0
 30 69  1  0  0  0  0
 31 34  1  0  0  0  0
 31 70  1  0  0  0  0
 32 35  2  0  0  0  0
 32 71  1  0  0  0  0
 33 35  1  0  0  0  0
 33 72  1  0  0  0  0
 34 73  1  0  0  0  0
 35 74  1  0  0  0  0
 36 39  1  0  0  0  0
 36 76  1  0  0  0  0
 36 77  1  0  0  0  0
 38 40  1  0  0  0  0
 38 78  1  0  0  0  0
 38 79  1  0  0  0  0
 39 45  2  0  0  0  0
 40 44  2  0  0  0  0
 41 43  1  0  0  0  0
 41 46  1  0  0  0  0
 41 47  1  0  0  0  0
 41 80  1  0  0  0  0
 42 81  1  0  0  0  0
 42 82  1  0  0  0  0
 42 83  1  0  0  0  0
 44 84  1  0  0  0  0
 45 91  1  0  0  0  0
 46 85  1  0  0  0  0
 46 86  1  0  0  0  0
 46 87  1  0  0  0  0
 47 88  1  0  0  0  0
 47 89  1  0  0  0  0
 47 90  1  0  0  0  0
 48 92  1  0  0  0  0
M  END
> <PUBCHEM_COMPOUND_CID>
515833
> <PUBCHEM_COMPOUND_CANONICALIZED>
1
> <PUBCHEM_CACTVS_COMPLEXITY>
983
> <PUBCHEM_CACTVS_HBOND_ACCEPTOR>
9
> <PUBCHEM_CACTVS_HBOND_DONOR>
4
> <PUBCHEM_CACTVS_ROTATABLE_BOND>
18
> <PUBCHEM_CACTVS_SUBSKEYS>
AAADcfB/uABgAAAAAAAAAAAAAAAAAWLAAAAwYAAAAAAAAAAB9AAAHgQQCAAADTzl3ga/iZPIFgisAzV3XACC8KBxCjhI2J04bImKdCrg8RmcYAgulgL4qAeQwPAOAAAAAAAAAAAAAAAAAAAAAAAAAAAAAA==
> <PUBCHEM_IUPAC_OPENEYE_NAME>
thiazol-5-ylmethyl N-[(1S,3S,4S)-1-benzyl-3-hydroxy-4-[3-[[(2-isopropylthiazol-4-yl)methyl-methyl-carbamoyl]amino]propanoylamino]-5-phenyl-pentyl]carbamate
> <PUBCHEM_IUPAC_CAS_NAME>
N-[(2S,4S,5S)-4-hydroxy-5-[[3-[[[methyl-[(2-propan-2-yl-4-thiazolyl)methyl]amino]-oxomethyl]amino]-1-oxopropyl]amino]-1,6-diphenylhexan-2-yl]carbamic acid 5-thiazolylmethyl ester
> <PUBCHEM_IUPAC_NAME_MARKUP>
1,3-thiazol-5-ylmethyl <I>N</I>-[(2<I>S</I>,4<I>S</I>,5<I>S</I>)-4-hydroxy-5-[3-[[methyl-[(2-propan-2-yl-1,3-thiazol-4-yl)methyl]carbamoyl]amino]propanoylamino]-1,6-diphenylhexan-2-yl]carbamate
> <PUBCHEM_IUPAC_NAME>
1,3-thiazol-5-ylmethyl N-[(2S,4S,5S)-4-hydroxy-5-[3-[[methyl-[(2-propan-2-yl-1,3-thiazol-4-yl)methyl]carbamoyl]amino]propanoylamino]-1,6-diphenylhexan-2-yl]carbamate
> <PUBCHEM_IUPAC_SYSTEMATIC_NAME>
1,3-thiazol-5-ylmethyl N-[(2S,4S,5S)-5-[3-[[methyl-[(2-propan-2-yl-1,3-thiazol-4-yl)methyl]carbamoyl]amino]propanoylamino]-4-oxidanyl-1,6-diphenyl-hexan-2-yl]carbamate
> <PUBCHEM_IUPAC_TRADITIONAL_NAME>
N-[(1S,3S,4S)-1-benzyl-3-hydroxy-4-[3-[[(2-isopropylthiazol-4-yl)methyl-methyl-carbamoyl]amino]propanoylamino]-5-phenyl-pentyl]carbamic acid thiazol-5-ylmethyl ester
> <PUBCHEM_IUPAC_INCHI>
InChI=1S/C35H44N6O5S2/c1-24(2)33-38-28(22-47-33)20-41(3)34(44)37-15-14-32(43)40-30(17-26-12-8-5-9-13-26)31(42)18-27(16-25-10-6-4-7-11-25)39-35(45)46-21-29-19-36-23-48-29/h4-13,19,22-24,27,30-31,42H,14-18,20-21H2,1-3H3,(H,37,44)(H,39,45)(H,40,43)/t27-,30-,31-/m0/s1
> <PUBCHEM_IUPAC_INCHIKEY>
VGGVCHNYGPQJAN-NAYUSWPISA-N
> <PUBCHEM_XLOGP3_AA>
4.6
> <PUBCHEM_EXACT_MASS>
692.28146087
> <PUBCHEM_MOLECULAR_FORMULA>
C35H44N6O5S2
> <PUBCHEM_MOLECULAR_WEIGHT>
692.9
> <PUBCHEM_OPENEYE_CAN_SMILES>
CC(C)C1=NC(=CS1)CN(C)C(=O)NCCC(=O)NC(CC2=CC=CC=C2)C(CC(CC3=CC=CC=C3)NC(=O)OCC4=CN=CS4)O
> <PUBCHEM_OPENEYE_ISO_SMILES>
CC(C)C1=NC(=CS1)CN(C)C(=O)NCCC(=O)N[C@@H](CC2=CC=CC=C2)[C@H](C[C@H](CC3=CC=CC=C3)NC(=O)OCC4=CN=CS4)O
> <PUBCHEM_CACTVS_TPSA>
202
> <PUBCHEM_MONOISOTOPIC_WEIGHT>
692.28146087
> <PUBCHEM_TOTAL_CHARGE>
0
> <PUBCHEM_HEAVY_ATOM_COUNT>
48
> <PUBCHEM_ATOM_DEF_STEREO_COUNT>
3
> <PUBCHEM_ATOM_UDEF_STEREO_COUNT>
0
> <PUBCHEM_BOND_DEF_STEREO_COUNT>
0
> <PUBCHEM_BOND_UDEF_STEREO_COUNT>
0
> <PUBCHEM_ISOTOPIC_ATOM_COUNT>
0
> <PUBCHEM_COMPONENT_COUNT>
1
> <PUBCHEM_CACTVS_TAUTO_COUNT>
-1
> <PUBCHEM_COORDINATE_TYPE>
1
5
255
> <PUBCHEM_BONDANNOTATIONS>
1  43  8
1  44  8
12  40  8
12  43  8
13  45  8
13  48  8
2  39  8
2  48  8
20  24  8
20  25  8
21  27  8
21  28  8
24  30  8
25  31  8
27  32  8
28  33  8
14  3  5
30  34  8
31  34  8
32  35  8
33  35  8
39  45  8
40  44  8
15  8  5
17  9  6
$$$$
