515880
  -OEChem-10302200282D
 87 93  0     1  0  0  0  0  0999 V2000
    5.0824   -5.7346    0.0000 S   0  0  0  0  0  0  0  0  0  0  0  0
    4.7401    3.7660    0.0000 O   0  0  0  0  0  0  0  0  0  0  0  0
    4.0577    2.0273    0.0000 O   0  0  0  0  0  0  0  0  0  0  0  0
    8.2077    1.4018    0.0000 O   0  0  0  0  0  0  0  0  0  0  0  0
    7.0426   -3.4684    0.0000 O   0  0  0  0  0  0  0  0  0  0  0  0
    7.2021    2.7644    0.0000 N   0  0  0  0  0  0  0  0  0  0  0  0
    6.5438    1.0870    0.0000 N   0  0  0  0  0  0  0  0  0  0  0  0
   11.6124    1.4596    0.0000 N   0  0  0  0  0  0  0  0  0  0  0  0
   12.1960    2.2644    0.0000 N   0  0  0  0  0  0  0  0  0  0  0  0
    6.3758    3.3277    0.0000 C   0  0  1  0  0  0  0  0  0  0  0  0
    5.5549    1.2360    0.0000 C   0  0  1  0  0  0  0  0  0  0  0  0
    5.4203    3.0329    0.0000 C   0  0  1  0  0  0  0  0  0  0  0  0
    5.0549    2.1021    0.0000 C   0  0  1  0  0  0  0  0  0  0  0  0
    6.5249    4.3165    0.0000 C   0  0  0  0  0  0  0  0  0  0  0  0
    4.9916    0.4098    0.0000 C   0  0  0  0  0  0  0  0  0  0  0  0
    7.2768    1.7672    0.0000 C   0  0  0  0  0  0  0  0  0  0  0  0
    8.0681    3.2644    0.0000 C   0  0  0  0  0  0  0  0  0  0  0  0
    6.8385    0.1314    0.0000 C   0  0  0  0  0  0  0  0  0  0  0  0
    5.7431    4.9400    0.0000 C   0  0  0  0  0  0  0  0  0  0  0  0
    3.9944    0.4845    0.0000 C   0  0  0  0  0  0  0  0  0  0  0  0
    8.9341    2.7644    0.0000 C   0  0  0  0  0  0  0  0  0  0  0  0
    6.1583   -0.6016    0.0000 C   0  0  0  0  0  0  0  0  0  0  0  0
    5.8921    5.9288    0.0000 C   0  0  0  0  0  0  0  0  0  0  0  0
    4.8122    4.5747    0.0000 C   0  0  0  0  0  0  0  0  0  0  0  0
    3.4311   -0.3417    0.0000 C   0  0  0  0  0  0  0  0  0  0  0  0
    3.5605    1.3855    0.0000 C   0  0  0  0  0  0  0  0  0  0  0  0
    9.8002    3.2644    0.0000 C   0  0  0  0  0  0  0  0  0  0  0  0
    8.9341    1.7644    0.0000 C   0  0  0  0  0  0  0  0  0  0  0  0
    6.4531   -1.5572    0.0000 C   0  0  0  0  0  0  0  0  0  0  0  0
    5.1834   -0.3791    0.0000 C   0  0  0  0  0  0  0  0  0  0  0  0
   10.6662    2.7644    0.0000 C   0  0  0  0  0  0  0  0  0  0  0  0
    5.1103    6.5523    0.0000 C   0  0  0  0  0  0  0  0  0  0  0  0
    4.0304    5.1982    0.0000 C   0  0  0  0  0  0  0  0  0  0  0  0
    2.4339   -0.2670    0.0000 C   0  0  0  0  0  0  0  0  0  0  0  0
    2.5633    1.4602    0.0000 C   0  0  0  0  0  0  0  0  0  0  0  0
    9.8002    1.2644    0.0000 C   0  0  0  0  0  0  0  0  0  0  0  0
    5.7729   -2.2903    0.0000 C   0  0  0  0  0  0  0  0  0  0  0  0
   10.6662    1.7644    0.0000 C   0  0  0  0  0  0  0  0  0  0  0  0
    4.5032   -1.1122    0.0000 C   0  0  0  0  0  0  0  0  0  0  0  0
    4.1794    6.1870    0.0000 C   0  0  0  0  0  0  0  0  0  0  0  0
    2.0000    0.6340    0.0000 C   0  0  0  0  0  0  0  0  0  0  0  0
    4.7980   -2.0678    0.0000 C   0  0  0  0  0  0  0  0  0  0  0  0
   11.6124    3.0691    0.0000 C   0  0  0  0  0  0  0  0  0  0  0  0
    6.0677   -3.2458    0.0000 C   0  0  0  0  0  0  0  0  0  0  0  0
    5.3875   -3.9789    0.0000 C   0  0  0  0  0  0  0  0  0  0  0  0
    5.6823   -4.9345    0.0000 C   0  0  0  0  0  0  0  0  0  0  0  0
    6.6286   -5.2577    0.0000 C   0  0  0  0  0  0  0  0  0  0  0  0
    6.6136   -6.2576    0.0000 C   0  0  0  0  0  0  0  0  0  0  0  0
    5.6581   -6.5523    0.0000 C   0  0  0  0  0  0  0  0  0  0  0  0
    6.9441    3.5756    0.0000 H   0  0  0  0  0  0  0  0  0  0  0  0
    5.8029    0.6678    0.0000 H   0  0  0  0  0  0  0  0  0  0  0  0
    4.8111    2.9177    0.0000 H   0  0  0  0  0  0  0  0  0  0  0  0
    4.7652    1.5539    0.0000 H   0  0  0  0  0  0  0  0  0  0  0  0
    7.1126    4.1190    0.0000 H   0  0  0  0  0  0  0  0  0  0  0  0
    6.8214    4.8610    0.0000 H   0  0  0  0  0  0  0  0  0  0  0  0
    4.8386   -0.1910    0.0000 H   0  0  0  0  0  0  0  0  0  0  0  0
    5.5568    0.1548    0.0000 H   0  0  0  0  0  0  0  0  0  0  0  0
    8.4666    3.7393    0.0000 H   0  0  0  0  0  0  0  0  0  0  0  0
    7.6696    3.7393    0.0000 H   0  0  0  0  0  0  0  0  0  0  0  0
    7.2129   -0.3628    0.0000 H   0  0  0  0  0  0  0  0  0  0  0  0
    7.3902    0.4143    0.0000 H   0  0  0  0  0  0  0  0  0  0  0  0
    4.1356    3.6280    0.0000 H   0  0  0  0  0  0  0  0  0  0  0  0
    3.7085    2.5396    0.0000 H   0  0  0  0  0  0  0  0  0  0  0  0
    6.4692    6.1553    0.0000 H   0  0  0  0  0  0  0  0  0  0  0  0
    4.7198    3.9616    0.0000 H   0  0  0  0  0  0  0  0  0  0  0  0
    3.7001   -0.9003    0.0000 H   0  0  0  0  0  0  0  0  0  0  0  0
    3.9098    1.8978    0.0000 H   0  0  0  0  0  0  0  0  0  0  0  0
    9.8002    3.8844    0.0000 H   0  0  0  0  0  0  0  0  0  0  0  0
    8.3972    1.4544    0.0000 H   0  0  0  0  0  0  0  0  0  0  0  0
    7.0576   -1.6952    0.0000 H   0  0  0  0  0  0  0  0  0  0  0  0
    5.0007    0.2133    0.0000 H   0  0  0  0  0  0  0  0  0  0  0  0
    5.2027    7.1654    0.0000 H   0  0  0  0  0  0  0  0  0  0  0  0
    3.4532    4.9716    0.0000 H   0  0  0  0  0  0  0  0  0  0  0  0
    2.0846   -0.7793    0.0000 H   0  0  0  0  0  0  0  0  0  0  0  0
    2.2943    2.0188    0.0000 H   0  0  0  0  0  0  0  0  0  0  0  0
    9.8002    0.6444    0.0000 H   0  0  0  0  0  0  0  0  0  0  0  0
    3.8988   -0.9742    0.0000 H   0  0  0  0  0  0  0  0  0  0  0  0
    3.6947    6.5735    0.0000 H   0  0  0  0  0  0  0  0  0  0  0  0
    1.3817    0.6803    0.0000 H   0  0  0  0  0  0  0  0  0  0  0  0
    4.3763   -2.5222    0.0000 H   0  0  0  0  0  0  0  0  0  0  0  0
   11.8050    3.6584    0.0000 H   0  0  0  0  0  0  0  0  0  0  0  0
   11.8050    0.8703    0.0000 H   0  0  0  0  0  0  0  0  0  0  0  0
    5.0132   -3.4847    0.0000 H   0  0  0  0  0  0  0  0  0  0  0  0
    4.8358   -4.2617    0.0000 H   0  0  0  0  0  0  0  0  0  0  0  0
    7.1356   -4.9008    0.0000 H   0  0  0  0  0  0  0  0  0  0  0  0
    7.1097   -6.6294    0.0000 H   0  0  0  0  0  0  0  0  0  0  0  0
    5.4577   -7.1390    0.0000 H   0  0  0  0  0  0  0  0  0  0  0  0
  1 46  1  0  0  0  0
  1 49  1  0  0  0  0
 12  2  1  1  0  0  0
  2 62  1  0  0  0  0
 13  3  1  6  0  0  0
  3 63  1  0  0  0  0
  4 16  2  0  0  0  0
  5 44  2  0  0  0  0
  6 10  1  0  0  0  0
  6 16  1  0  0  0  0
  6 17  1  0  0  0  0
  7 11  1  0  0  0  0
  7 16  1  0  0  0  0
  7 18  1  0  0  0  0
  8  9  1  0  0  0  0
  8 38  1  0  0  0  0
  8 82  1  0  0  0  0
  9 43  2  0  0  0  0
 10 12  1  0  0  0  0
 10 14  1  1  0  0  0
 10 50  1  0  0  0  0
 11 13  1  0  0  0  0
 11 15  1  6  0  0  0
 11 51  1  0  0  0  0
 12 13  1  0  0  0  0
 12 52  1  0  0  0  0
 13 53  1  0  0  0  0
 14 19  1  0  0  0  0
 14 54  1  0  0  0  0
 14 55  1  0  0  0  0
 15 20  1  0  0  0  0
 15 56  1  0  0  0  0
 15 57  1  0  0  0  0
 17 21  1  0  0  0  0
 17 58  1  0  0  0  0
 17 59  1  0  0  0  0
 18 22  1  0  0  0  0
 18 60  1  0  0  0  0
 18 61  1  0  0  0  0
 19 23  2  0  0  0  0
 19 24  1  0  0  0  0
 20 25  2  0  0  0  0
 20 26  1  0  0  0  0
 21 27  2  0  0  0  0
 21 28  1  0  0  0  0
 22 29  2  0  0  0  0
 22 30  1  0  0  0  0
 23 32  1  0  0  0  0
 23 64  1  0  0  0  0
 24 33  2  0  0  0  0
 24 65  1  0  0  0  0
 25 34  1  0  0  0  0
 25 66  1  0  0  0  0
 26 35  2  0  0  0  0
 26 67  1  0  0  0  0
 27 31  1  0  0  0  0
 27 68  1  0  0  0  0
 28 36  2  0  0  0  0
 28 69  1  0  0  0  0
 29 37  1  0  0  0  0
 29 70  1  0  0  0  0
 30 39  2  0  0  0  0
 30 71  1  0  0  0  0
 31 38  2  0  0  0  0
 31 43  1  0  0  0  0
 32 40  2  0  0  0  0
 32 72  1  0  0  0  0
 33 40  1  0  0  0  0
 33 73  1  0  0  0  0
 34 41  2  0  0  0  0
 34 74  1  0  0  0  0
 35 41  1  0  0  0  0
 35 75  1  0  0  0  0
 36 38  1  0  0  0  0
 36 76  1  0  0  0  0
 37 42  2  0  0  0  0
 37 44  1  0  0  0  0
 39 42  1  0  0  0  0
 39 77  1  0  0  0  0
 40 78  1  0  0  0  0
 41 79  1  0  0  0  0
 42 80  1  0  0  0  0
 43 81  1  0  0  0  0
 44 45  1  0  0  0  0
 45 46  1  0  0  0  0
 45 83  1  0  0  0  0
 45 84  1  0  0  0  0
 46 47  2  0  0  0  0
 47 48  1  0  0  0  0
 47 85  1  0  0  0  0
 48 49  2  0  0  0  0
 48 86  1  0  0  0  0
 49 87  1  0  0  0  0
M  END
> <PUBCHEM_COMPOUND_CID>
515880
> <PUBCHEM_COMPOUND_CANONICALIZED>
1
> <PUBCHEM_CACTVS_COMPLEXITY>
1080
> <PUBCHEM_CACTVS_HBOND_ACCEPTOR>
6
> <PUBCHEM_CACTVS_HBOND_DONOR>
3
> <PUBCHEM_CACTVS_ROTATABLE_BOND>
11
> <PUBCHEM_CACTVS_SUBSKEYS>
AAADcfB/uABAAAAAAAAAAAAAAAAAAWJAAAAwYMGABYAAAFgB/AAAHgQYCAAADDzl3ga9wfNjAgiuA7R3UACTBIAkihBYuTk4ZNiLMLKg1dGE5QhungK5yYeYyfCOCAACAAACAAAQAAQAAAQAAAAAAAAAAA==
> <PUBCHEM_IUPAC_OPENEYE_NAME>
(4R,5S,6S,7R)-4,7-dibenzyl-5,6-dihydroxy-1-(1H-indazol-5-ylmethyl)-3-[[3-[2-(2-thienyl)acetyl]phenyl]methyl]-1,3-diazepan-2-one
> <PUBCHEM_IUPAC_CAS_NAME>
(4R,5S,6S,7R)-5,6-dihydroxy-1-(1H-indazol-5-ylmethyl)-3-[[3-(1-oxo-2-thiophen-2-ylethyl)phenyl]methyl]-4,7-bis(phenylmethyl)-1,3-diazepan-2-one
> <PUBCHEM_IUPAC_NAME_MARKUP>
(4<I>R</I>,5<I>S</I>,6<I>S</I>,7<I>R</I>)-4,7-dibenzyl-5,6-dihydroxy-1-(1<I>H</I>-indazol-5-ylmethyl)-3-[[3-(2-thiophen-2-ylacetyl)phenyl]methyl]-1,3-diazepan-2-one
> <PUBCHEM_IUPAC_NAME>
(4R,5S,6S,7R)-4,7-dibenzyl-5,6-dihydroxy-1-(1H-indazol-5-ylmethyl)-3-[[3-(2-thiophen-2-ylacetyl)phenyl]methyl]-1,3-diazepan-2-one
> <PUBCHEM_IUPAC_SYSTEMATIC_NAME>
(4R,5S,6S,7R)-1-(1H-indazol-5-ylmethyl)-5,6-bis(oxidanyl)-4,7-bis(phenylmethyl)-3-[[3-(2-thiophen-2-ylethanoyl)phenyl]methyl]-1,3-diazepan-2-one
> <PUBCHEM_IUPAC_TRADITIONAL_NAME>
(4R,5S,6S,7R)-4,7-dibenzyl-5,6-dihydroxy-1-(1H-indazol-5-ylmethyl)-3-[3-[2-(2-thienyl)acetyl]benzyl]-1,3-diazepan-2-one
> <PUBCHEM_IUPAC_INCHI>
InChI=1S/C40H38N4O4S/c45-37(23-33-15-8-18-49-33)31-14-7-13-29(19-31)25-43-35(21-27-9-3-1-4-10-27)38(46)39(47)36(22-28-11-5-2-6-12-28)44(40(43)48)26-30-16-17-34-32(20-30)24-41-42-34/h1-20,24,35-36,38-39,46-47H,21-23,25-26H2,(H,41,42)/t35-,36-,38+,39+/m1/s1
> <PUBCHEM_IUPAC_INCHIKEY>
NSEDEVLFQHAAFP-DDLQZHSQSA-N
> <PUBCHEM_XLOGP3_AA>
5.9
> <PUBCHEM_EXACT_MASS>
670.26137688
> <PUBCHEM_MOLECULAR_FORMULA>
C40H38N4O4S
> <PUBCHEM_MOLECULAR_WEIGHT>
670.8
> <PUBCHEM_OPENEYE_CAN_SMILES>
C1=CC=C(C=C1)CC2C(C(C(N(C(=O)N2CC3=CC(=CC=C3)C(=O)CC4=CC=CS4)CC5=CC6=C(C=C5)NN=C6)CC7=CC=CC=C7)O)O
> <PUBCHEM_OPENEYE_ISO_SMILES>
C1=CC=C(C=C1)C[C@@H]2[C@@H]([C@H]([C@H](N(C(=O)N2CC3=CC(=CC=C3)C(=O)CC4=CC=CS4)CC5=CC6=C(C=C5)NN=C6)CC7=CC=CC=C7)O)O
> <PUBCHEM_CACTVS_TPSA>
138
> <PUBCHEM_MONOISOTOPIC_WEIGHT>
670.26137688
> <PUBCHEM_TOTAL_CHARGE>
0
> <PUBCHEM_HEAVY_ATOM_COUNT>
49
> <PUBCHEM_ATOM_DEF_STEREO_COUNT>
4
> <PUBCHEM_ATOM_UDEF_STEREO_COUNT>
0
> <PUBCHEM_BOND_DEF_STEREO_COUNT>
0
> <PUBCHEM_BOND_UDEF_STEREO_COUNT>
0
> <PUBCHEM_ISOTOPIC_ATOM_COUNT>
0
> <PUBCHEM_COMPONENT_COUNT>
1
> <PUBCHEM_CACTVS_TAUTO_COUNT>
-1
> <PUBCHEM_COORDINATE_TYPE>
1
5
255
> <PUBCHEM_BONDANNOTATIONS>
1  46  8
1  49  8
10  14  5
11  15  6
19  23  8
19  24  8
12  2  5
20  25  8
20  26  8
21  27  8
21  28  8
22  29  8
22  30  8
23  32  8
24  33  8
25  34  8
26  35  8
27  31  8
28  36  8
29  37  8
13  3  6
30  39  8
31  38  8
31  43  8
32  40  8
33  40  8
34  41  8
35  41  8
36  38  8
37  42  8
39  42  8
46  47  8
47  48  8
48  49  8
8  38  8
8  9  8
9  43  8
$$$$
