515888
  -OEChem-10302200282D
105110  0     1  0  0  0  0  0999 V2000
    5.5321    0.8516    0.0000 O   0  0  0  0  0  0  0  0  0  0  0  0
    7.2641    3.8516    0.0000 O   0  0  0  0  0  0  0  0  0  0  0  0
    5.5321   -0.1484    0.0000 O   0  0  0  0  0  0  0  0  0  0  0  0
    6.3981   -3.6484    0.0000 O   0  0  0  0  0  0  0  0  0  0  0  0
    5.5321    2.8516    0.0000 N   0  0  3  0  0  0  0  0  0  0  0  0
    6.3981    5.3516    0.0000 N   0  0  0  0  0  0  0  0  0  0  0  0
    7.2641   -0.1484    0.0000 N   0  0  0  0  0  0  0  0  0  0  0  0
    7.2641   -2.1484    0.0000 N   0  0  0  0  0  0  0  0  0  0  0  0
    8.1301   -4.6484    0.0000 N   0  0  0  0  0  0  0  0  0  0  0  0
    3.8000    3.8516    0.0000 C   0  0  2  0  0  0  0  0  0  0  0  0
    3.8000    2.8516    0.0000 C   0  0  1  0  0  0  0  0  0  0  0  0
    4.6660    4.3516    0.0000 C   0  0  0  0  0  0  0  0  0  0  0  0
    4.6660    2.3516    0.0000 C   0  0  0  0  0  0  0  0  0  0  0  0
    2.9061    4.3863    0.0000 C   0  0  0  0  0  0  0  0  0  0  0  0
    2.9061    2.3170    0.0000 C   0  0  0  0  0  0  0  0  0  0  0  0
    5.5321    3.8516    0.0000 C   0  0  1  0  0  0  0  0  0  0  0  0
    2.0000    3.8724    0.0000 C   0  0  0  0  0  0  0  0  0  0  0  0
    2.0000    2.8308    0.0000 C   0  0  0  0  0  0  0  0  0  0  0  0
    6.3981    2.3516    0.0000 C   0  0  0  0  0  0  0  0  0  0  0  0
    6.3981    4.3516    0.0000 C   0  0  0  0  0  0  0  0  0  0  0  0
    6.3981    1.3516    0.0000 C   0  0  2  0  0  0  0  0  0  0  0  0
    7.2641    0.8516    0.0000 C   0  0  2  0  0  0  0  0  0  0  0  0
    5.5321   -2.1484    0.0000 C   0  0  0  0  0  0  0  0  0  0  0  0
    7.2641    5.8516    0.0000 C   0  0  0  0  0  0  0  0  0  0  0  0
    8.1301    1.3516    0.0000 C   0  0  0  0  0  0  0  0  0  0  0  0
    6.3981   -1.6484    0.0000 C   0  0  1  0  0  0  0  0  0  0  0  0
    4.6185   -1.7416    0.0000 C   0  0  0  0  0  0  0  0  0  0  0  0
    5.4275   -3.1429    0.0000 C   0  0  0  0  0  0  0  0  0  0  0  0
    3.9494   -2.4848    0.0000 C   0  0  0  0  0  0  0  0  0  0  0  0
    4.4494   -3.3508    0.0000 C   0  0  0  0  0  0  0  0  0  0  0  0
    6.3981   -0.6484    0.0000 C   0  0  0  0  0  0  0  0  0  0  0  0
    8.1301    6.3516    0.0000 C   0  0  0  0  0  0  0  0  0  0  0  0
    6.7641    6.7176    0.0000 C   0  0  0  0  0  0  0  0  0  0  0  0
    7.7641    4.9856    0.0000 C   0  0  0  0  0  0  0  0  0  0  0  0
    8.9962    0.8516    0.0000 C   0  0  0  0  0  0  0  0  0  0  0  0
    9.8622    1.3516    0.0000 C   0  0  0  0  0  0  0  0  0  0  0  0
    8.9962   -0.1484    0.0000 C   0  0  0  0  0  0  0  0  0  0  0  0
    7.2641   -3.1484    0.0000 C   0  0  0  0  0  0  0  0  0  0  0  0
   10.7282    0.8516    0.0000 C   0  0  0  0  0  0  0  0  0  0  0  0
    9.8622   -0.6484    0.0000 C   0  0  0  0  0  0  0  0  0  0  0  0
    8.1301   -3.6484    0.0000 C   0  0  0  0  0  0  0  0  0  0  0  0
   10.7282   -0.1484    0.0000 C   0  0  0  0  0  0  0  0  0  0  0  0
    8.9962   -3.1484    0.0000 C   0  0  0  0  0  0  0  0  0  0  0  0
    8.9962   -5.1484    0.0000 C   0  0  0  0  0  0  0  0  0  0  0  0
    9.8622   -3.6484    0.0000 C   0  0  0  0  0  0  0  0  0  0  0  0
    9.8622   -4.6484    0.0000 C   0  0  0  0  0  0  0  0  0  0  0  0
    8.9801   -6.1899    0.0000 C   0  0  0  0  0  0  0  0  0  0  0  0
   10.7722   -5.1552    0.0000 C   0  0  0  0  0  0  0  0  0  0  0  0
    9.8781   -6.7176    0.0000 C   0  0  0  0  0  0  0  0  0  0  0  0
   10.7802   -6.1968    0.0000 C   0  0  0  0  0  0  0  0  0  0  0  0
    3.8066    4.7016    0.0000 H   0  0  0  0  0  0  0  0  0  0  0  0
    3.8066    2.0016    0.0000 H   0  0  0  0  0  0  0  0  0  0  0  0
    5.0646    4.8266    0.0000 H   0  0  0  0  0  0  0  0  0  0  0  0
    4.2675    4.8266    0.0000 H   0  0  0  0  0  0  0  0  0  0  0  0
    4.2675    1.8767    0.0000 H   0  0  0  0  0  0  0  0  0  0  0  0
    5.0646    1.8767    0.0000 H   0  0  0  0  0  0  0  0  0  0  0  0
    3.3107    4.8561    0.0000 H   0  0  0  0  0  0  0  0  0  0  0  0
    2.5124    4.8653    0.0000 H   0  0  0  0  0  0  0  0  0  0  0  0
    2.5124    1.8379    0.0000 H   0  0  0  0  0  0  0  0  0  0  0  0
    3.3107    1.8472    0.0000 H   0  0  0  0  0  0  0  0  0  0  0  0
    6.0690    3.5416    0.0000 H   0  0  0  0  0  0  0  0  0  0  0  0
    1.7909    4.4561    0.0000 H   0  0  0  0  0  0  0  0  0  0  0  0
    1.3891    3.7663    0.0000 H   0  0  0  0  0  0  0  0  0  0  0  0
    1.3891    2.9369    0.0000 H   0  0  0  0  0  0  0  0  0  0  0  0
    1.7909    2.2471    0.0000 H   0  0  0  0  0  0  0  0  0  0  0  0
    7.0087    2.2440    0.0000 H   0  0  0  0  0  0  0  0  0  0  0  0
    6.6101    2.9342    0.0000 H   0  0  0  0  0  0  0  0  0  0  0  0
    6.3981    0.7316    0.0000 H   0  0  0  0  0  0  0  0  0  0  0  0
    7.8010    0.5416    0.0000 H   0  0  0  0  0  0  0  0  0  0  0  0
    5.8612    5.6616    0.0000 H   0  0  0  0  0  0  0  0  0  0  0  0
    5.4996   -1.5292    0.0000 H   0  0  0  0  0  0  0  0  0  0  0  0
    8.5287    1.8266    0.0000 H   0  0  0  0  0  0  0  0  0  0  0  0
    7.7316    1.8266    0.0000 H   0  0  0  0  0  0  0  0  0  0  0  0
    6.3981   -2.2684    0.0000 H   0  0  0  0  0  0  0  0  0  0  0  0
    7.8010   -0.4584    0.0000 H   0  0  0  0  0  0  0  0  0  0  0  0
    4.9285   -1.2047    0.0000 H   0  0  0  0  0  0  0  0  0  0  0  0
    4.1169   -1.3772    0.0000 H   0  0  0  0  0  0  0  0  0  0  0  0
    5.4923   -3.7595    0.0000 H   0  0  0  0  0  0  0  0  0  0  0  0
    6.0475   -3.1429    0.0000 H   0  0  0  0  0  0  0  0  0  0  0  0
    4.9951    1.1616    0.0000 H   0  0  0  0  0  0  0  0  0  0  0  0
    3.5345   -2.0240    0.0000 H   0  0  0  0  0  0  0  0  0  0  0  0
    3.4478   -2.8492    0.0000 H   0  0  0  0  0  0  0  0  0  0  0  0
    3.8830   -3.6030    0.0000 H   0  0  0  0  0  0  0  0  0  0  0  0
    4.6410   -3.9405    0.0000 H   0  0  0  0  0  0  0  0  0  0  0  0
    8.4401    5.8147    0.0000 H   0  0  0  0  0  0  0  0  0  0  0  0
    8.6671    6.6616    0.0000 H   0  0  0  0  0  0  0  0  0  0  0  0
    7.8201    6.8886    0.0000 H   0  0  0  0  0  0  0  0  0  0  0  0
    7.3010    7.0276    0.0000 H   0  0  0  0  0  0  0  0  0  0  0  0
    6.4541    7.2546    0.0000 H   0  0  0  0  0  0  0  0  0  0  0  0
    6.2272    6.4076    0.0000 H   0  0  0  0  0  0  0  0  0  0  0  0
    7.2272    4.6756    0.0000 H   0  0  0  0  0  0  0  0  0  0  0  0
    8.0741    4.4487    0.0000 H   0  0  0  0  0  0  0  0  0  0  0  0
    8.3010    5.2956    0.0000 H   0  0  0  0  0  0  0  0  0  0  0  0
    7.8010   -1.8384    0.0000 H   0  0  0  0  0  0  0  0  0  0  0  0
    9.8622    1.9716    0.0000 H   0  0  0  0  0  0  0  0  0  0  0  0
    8.4592   -0.4584    0.0000 H   0  0  0  0  0  0  0  0  0  0  0  0
   11.2651    1.1616    0.0000 H   0  0  0  0  0  0  0  0  0  0  0  0
    9.8622   -1.2684    0.0000 H   0  0  0  0  0  0  0  0  0  0  0  0
   11.2651   -0.4584    0.0000 H   0  0  0  0  0  0  0  0  0  0  0  0
    8.9962   -2.5284    0.0000 H   0  0  0  0  0  0  0  0  0  0  0  0
   10.3991   -3.3384    0.0000 H   0  0  0  0  0  0  0  0  0  0  0  0
    8.4396   -6.4937    0.0000 H   0  0  0  0  0  0  0  0  0  0  0  0
   11.3055   -4.8390    0.0000 H   0  0  0  0  0  0  0  0  0  0  0  0
    9.8758   -7.3376    0.0000 H   0  0  0  0  0  0  0  0  0  0  0  0
   11.3183   -6.5048    0.0000 H   0  0  0  0  0  0  0  0  0  0  0  0
 21  1  1  6  0  0  0
  1 80  1  0  0  0  0
  2 20  2  0  0  0  0
  3 31  2  0  0  0  0
  4 38  2  0  0  0  0
  5 13  1  0  0  0  0
  5 16  1  0  0  0  0
  5 19  1  0  0  0  0
  6 20  1  0  0  0  0
  6 24  1  0  0  0  0
  6 70  1  0  0  0  0
 22  7  1  6  0  0  0
  7 31  1  0  0  0  0
  7 75  1  0  0  0  0
 26  8  1  1  0  0  0
  8 38  1  0  0  0  0
  8 94  1  0  0  0  0
  9 41  2  0  0  0  0
  9 44  1  0  0  0  0
 10 11  1  0  0  0  0
 10 12  1  0  0  0  0
 10 14  1  0  0  0  0
 10 51  1  6  0  0  0
 11 13  1  0  0  0  0
 11 15  1  0  0  0  0
 11 52  1  6  0  0  0
 12 16  1  0  0  0  0
 12 53  1  0  0  0  0
 12 54  1  0  0  0  0
 13 55  1  0  0  0  0
 13 56  1  0  0  0  0
 14 17  1  0  0  0  0
 14 57  1  0  0  0  0
 14 58  1  0  0  0  0
 15 18  1  0  0  0  0
 15 59  1  0  0  0  0
 15 60  1  0  0  0  0
 16 20  1  1  0  0  0
 16 61  1  0  0  0  0
 17 18  1  0  0  0  0
 17 62  1  0  0  0  0
 17 63  1  0  0  0  0
 18 64  1  0  0  0  0
 18 65  1  0  0  0  0
 19 21  1  0  0  0  0
 19 66  1  0  0  0  0
 19 67  1  0  0  0  0
 21 22  1  0  0  0  0
 21 68  1  0  0  0  0
 22 25  1  0  0  0  0
 22 69  1  0  0  0  0
 23 26  1  0  0  0  0
 23 27  1  0  0  0  0
 23 28  1  0  0  0  0
 23 71  1  0  0  0  0
 24 32  1  0  0  0  0
 24 33  1  0  0  0  0
 24 34  1  0  0  0  0
 25 35  1  0  0  0  0
 25 72  1  0  0  0  0
 25 73  1  0  0  0  0
 26 31  1  0  0  0  0
 26 74  1  0  0  0  0
 27 29  1  0  0  0  0
 27 76  1  0  0  0  0
 27 77  1  0  0  0  0
 28 30  1  0  0  0  0
 28 78  1  0  0  0  0
 28 79  1  0  0  0  0
 29 30  1  0  0  0  0
 29 81  1  0  0  0  0
 29 82  1  0  0  0  0
 30 83  1  0  0  0  0
 30 84  1  0  0  0  0
 32 85  1  0  0  0  0
 32 86  1  0  0  0  0
 32 87  1  0  0  0  0
 33 88  1  0  0  0  0
 33 89  1  0  0  0  0
 33 90  1  0  0  0  0
 34 91  1  0  0  0  0
 34 92  1  0  0  0  0
 34 93  1  0  0  0  0
 35 36  2  0  0  0  0
 35 37  1  0  0  0  0
 36 39  1  0  0  0  0
 36 95  1  0  0  0  0
 37 40  2  0  0  0  0
 37 96  1  0  0  0  0
 38 41  1  0  0  0  0
 39 42  2  0  0  0  0
 39 97  1  0  0  0  0
 40 42  1  0  0  0  0
 40 98  1  0  0  0  0
 41 43  1  0  0  0  0
 42 99  1  0  0  0  0
 43 45  2  0  0  0  0
 43100  1  0  0  0  0
 44 46  1  0  0  0  0
 44 47  2  0  0  0  0
 45 46  1  0  0  0  0
 45101  1  0  0  0  0
 46 48  2  0  0  0  0
 47 49  1  0  0  0  0
 47102  1  0  0  0  0
 48 50  1  0  0  0  0
 48103  1  0  0  0  0
 49 50  2  0  0  0  0
 49104  1  0  0  0  0
 50105  1  0  0  0  0
M  END
> <PUBCHEM_COMPOUND_CID>
515888
> <PUBCHEM_COMPOUND_CANONICALIZED>
1
> <PUBCHEM_CACTVS_COMPLEXITY>
1130
> <PUBCHEM_CACTVS_HBOND_ACCEPTOR>
6
> <PUBCHEM_CACTVS_HBOND_DONOR>
4
> <PUBCHEM_CACTVS_ROTATABLE_BOND>
12
> <PUBCHEM_CACTVS_SUBSKEYS>
AAADcfB/uAAAAAAAAAAAAAAAAAAAAYAAAAA8eMECAAAAAACx9AAAHgAQCAAADbzhngYywPPIEgCoAyVyVACCgCAnAiAImKG4ZNgKcPLA1bGUYQhklgDYyYeYyKCOgAAAAAACAAAAAAAAACQAAAAAAAAAAA==
> <PUBCHEM_IUPAC_OPENEYE_NAME>
N-[(1S)-2-[[(1S,2R)-3-[(3S,4aS,8aS)-3-(tert-butylcarbamoyl)-3,4,4a,5,6,7,8,8a-octahydro-1H-isoquinolin-2-yl]-1-benzyl-2-hydroxy-propyl]amino]-1-cyclopentyl-2-oxo-ethyl]quinoline-2-carboxamide
> <PUBCHEM_IUPAC_CAS_NAME>
N-[(1S)-2-[[(2S,3R)-4-[(3S,4aS,8aS)-3-[(tert-butylamino)-oxomethyl]-3,4,4a,5,6,7,8,8a-octahydro-1H-isoquinolin-2-yl]-3-hydroxy-1-phenylbutan-2-yl]amino]-1-cyclopentyl-2-oxoethyl]-2-quinolinecarboxamide
> <PUBCHEM_IUPAC_NAME_MARKUP>
<I>N</I>-[(1<I>S</I>)-2-[[(2<I>S</I>,3<I>R</I>)-4-[(3<I>S</I>,4<I>a</I><I>S</I>,8<I>a</I><I>S</I>)-3-(<I>tert</I>-butylcarbamoyl)-3,4,4<I>a</I>,5,6,7,8,8<I>a</I>-octahydro-1<I>H</I>-isoquinolin-2-yl]-3-hydroxy-1-phenylbutan-2-yl]amino]-1-cyclopentyl-2-oxoethyl]quinoline-2-carboxamide
> <PUBCHEM_IUPAC_NAME>
N-[(1S)-2-[[(2S,3R)-4-[(3S,4aS,8aS)-3-(tert-butylcarbamoyl)-3,4,4a,5,6,7,8,8a-octahydro-1H-isoquinolin-2-yl]-3-hydroxy-1-phenylbutan-2-yl]amino]-1-cyclopentyl-2-oxoethyl]quinoline-2-carboxamide
> <PUBCHEM_IUPAC_SYSTEMATIC_NAME>
N-[(1S)-2-[[(2S,3R)-4-[(3S,4aS,8aS)-3-(tert-butylcarbamoyl)-3,4,4a,5,6,7,8,8a-octahydro-1H-isoquinolin-2-yl]-3-oxidanyl-1-phenyl-butan-2-yl]amino]-1-cyclopentyl-2-oxidanylidene-ethyl]quinoline-2-carboxamide
> <PUBCHEM_IUPAC_TRADITIONAL_NAME>
N-[(1S)-2-[[(1S,2R)-3-[(3S,4aS,8aS)-3-(tert-butylcarbamoyl)-3,4,4a,5,6,7,8,8a-octahydro-1H-isoquinolin-2-yl]-1-benzyl-2-hydroxy-propyl]amino]-1-cyclopentyl-2-keto-ethyl]quinaldamide
> <PUBCHEM_IUPAC_INCHI>
InChI=1S/C41H55N5O4/c1-41(2,3)45-39(49)35-24-30-18-9-10-19-31(30)25-46(35)26-36(47)34(23-27-13-5-4-6-14-27)43-40(50)37(29-16-7-8-17-29)44-38(48)33-22-21-28-15-11-12-20-32(28)42-33/h4-6,11-15,20-22,29-31,34-37,47H,7-10,16-19,23-26H2,1-3H3,(H,43,50)(H,44,48)(H,45,49)/t30-,31+,34-,35-,36+,37-/m0/s1
> <PUBCHEM_IUPAC_INCHIKEY>
ZVSTVGCGZDZJQW-SPIMXWGGSA-N
> <PUBCHEM_XLOGP3_AA>
7.2
> <PUBCHEM_EXACT_MASS>
681.42540525
> <PUBCHEM_MOLECULAR_FORMULA>
C41H55N5O4
> <PUBCHEM_MOLECULAR_WEIGHT>
681.9
> <PUBCHEM_OPENEYE_CAN_SMILES>
CC(C)(C)NC(=O)C1CC2CCCCC2CN1CC(C(CC3=CC=CC=C3)NC(=O)C(C4CCCC4)NC(=O)C5=NC6=CC=CC=C6C=C5)O
> <PUBCHEM_OPENEYE_ISO_SMILES>
CC(C)(C)NC(=O)[C@@H]1C[C@@H]2CCCC[C@@H]2CN1C[C@H]([C@H](CC3=CC=CC=C3)NC(=O)[C@H](C4CCCC4)NC(=O)C5=NC6=CC=CC=C6C=C5)O
> <PUBCHEM_CACTVS_TPSA>
124
> <PUBCHEM_MONOISOTOPIC_WEIGHT>
681.42540525
> <PUBCHEM_TOTAL_CHARGE>
0
> <PUBCHEM_HEAVY_ATOM_COUNT>
50
> <PUBCHEM_ATOM_DEF_STEREO_COUNT>
6
> <PUBCHEM_ATOM_UDEF_STEREO_COUNT>
0
> <PUBCHEM_BOND_DEF_STEREO_COUNT>
0
> <PUBCHEM_BOND_UDEF_STEREO_COUNT>
0
> <PUBCHEM_ISOTOPIC_ATOM_COUNT>
0
> <PUBCHEM_COMPONENT_COUNT>
1
> <PUBCHEM_CACTVS_TAUTO_COUNT>
-1
> <PUBCHEM_COORDINATE_TYPE>
1
5
255
> <PUBCHEM_BONDANNOTATIONS>
21  1  6
10  51  6
11  52  6
16  20  5
35  36  8
35  37  8
36  39  8
37  40  8
39  42  8
40  42  8
41  43  8
43  45  8
44  46  8
44  47  8
45  46  8
46  48  8
47  49  8
48  50  8
49  50  8
22  7  6
26  8  5
9  41  8
9  44  8
$$$$
