515821
  -OEChem-10302200282D
 94 97  0     1  0  0  0  0  0999 V2000
    7.3007    5.1433    0.0000 S   0  0  0  0  0  0  0  0  0  0  0  0
   10.7078   -0.7580    0.0000 S   0  0  0  0  0  0  0  0  0  0  0  0
    4.5981   -3.3512    0.0000 O   0  0  0  0  0  0  0  0  0  0  0  0
    5.4641   -0.8512    0.0000 O   0  0  0  0  0  0  0  0  0  0  0  0
    8.0622   -0.3512    0.0000 O   0  0  0  0  0  0  0  0  0  0  0  0
    6.3301   -0.3512    0.0000 O   0  0  0  0  0  0  0  0  0  0  0  0
    6.3301    2.6488    0.0000 O   0  0  0  0  0  0  0  0  0  0  0  0
    4.5981    2.6488    0.0000 O   0  0  0  0  0  0  0  0  0  0  0  0
    3.7320   -0.8512    0.0000 N   0  0  0  0  0  0  0  0  0  0  0  0
    7.1962   -1.8512    0.0000 N   0  0  0  0  0  0  0  0  0  0  0  0
    5.4641    1.1488    0.0000 N   0  0  0  0  0  0  0  0  0  0  0  0
    8.1097    3.7420    0.0000 N   0  0  0  0  0  0  0  0  0  0  0  0
   10.8769    0.8512    0.0000 N   0  0  0  0  0  0  0  0  0  0  0  0
    3.7320   -1.8512    0.0000 C   0  0  2  0  0  0  0  0  0  0  0  0
    4.5981   -2.3512    0.0000 C   0  0  2  0  0  0  0  0  0  0  0  0
    5.4641   -1.8512    0.0000 C   0  0  0  0  0  0  0  0  0  0  0  0
    6.3301   -2.3512    0.0000 C   0  0  2  0  0  0  0  0  0  0  0  0
    2.8660   -2.3512    0.0000 C   0  0  0  0  0  0  0  0  0  0  0  0
    6.3301   -3.3512    0.0000 C   0  0  0  0  0  0  0  0  0  0  0  0
    4.5981    0.6488    0.0000 C   0  0  2  0  0  0  0  0  0  0  0  0
    4.5981   -0.3512    0.0000 C   0  0  0  0  0  0  0  0  0  0  0  0
    3.7320    1.1488    0.0000 C   0  0  0  0  0  0  0  0  0  0  0  0
    2.8660   -3.3512    0.0000 C   0  0  0  0  0  0  0  0  0  0  0  0
    7.1962   -3.8512    0.0000 C   0  0  0  0  0  0  0  0  0  0  0  0
    3.7320    2.1488    0.0000 C   0  0  0  0  0  0  0  0  0  0  0  0
    2.8660    0.6488    0.0000 C   0  0  0  0  0  0  0  0  0  0  0  0
    3.7320   -3.8512    0.0000 C   0  0  0  0  0  0  0  0  0  0  0  0
    2.0000   -3.8512    0.0000 C   0  0  0  0  0  0  0  0  0  0  0  0
    7.1962   -0.8512    0.0000 C   0  0  0  0  0  0  0  0  0  0  0  0
    8.0622   -3.3512    0.0000 C   0  0  0  0  0  0  0  0  0  0  0  0
    7.1962   -4.8512    0.0000 C   0  0  0  0  0  0  0  0  0  0  0  0
    3.7320   -4.8512    0.0000 C   0  0  0  0  0  0  0  0  0  0  0  0
    2.0000   -4.8512    0.0000 C   0  0  0  0  0  0  0  0  0  0  0  0
    5.4641    2.1488    0.0000 C   0  0  0  0  0  0  0  0  0  0  0  0
    8.9282   -3.8512    0.0000 C   0  0  0  0  0  0  0  0  0  0  0  0
    8.0622   -5.3512    0.0000 C   0  0  0  0  0  0  0  0  0  0  0  0
    2.8660   -5.3512    0.0000 C   0  0  0  0  0  0  0  0  0  0  0  0
    8.9282   -4.8512    0.0000 C   0  0  0  0  0  0  0  0  0  0  0  0
    8.9282   -0.8512    0.0000 C   0  0  0  0  0  0  0  0  0  0  0  0
    6.3301    3.6488    0.0000 C   0  0  0  0  0  0  0  0  0  0  0  0
    9.7942   -0.3512    0.0000 C   0  0  0  0  0  0  0  0  0  0  0  0
    7.1962    4.1488    0.0000 C   0  0  0  0  0  0  0  0  0  0  0  0
    9.7734    4.3807    0.0000 C   0  0  0  0  0  0  0  0  0  0  0  0
    8.7788    4.4852    0.0000 C   0  0  0  0  0  0  0  0  0  0  0  0
    9.8988    0.6433    0.0000 C   0  0  0  0  0  0  0  0  0  0  0  0
    8.2788    5.3512    0.0000 C   0  0  0  0  0  0  0  0  0  0  0  0
   10.3611    5.1897    0.0000 C   0  0  0  0  0  0  0  0  0  0  0  0
   10.1801    3.4671    0.0000 C   0  0  0  0  0  0  0  0  0  0  0  0
   11.3769   -0.0148    0.0000 C   0  0  0  0  0  0  0  0  0  0  0  0
    4.2690   -1.5412    0.0000 H   0  0  0  0  0  0  0  0  0  0  0  0
    5.1350   -2.6612    0.0000 H   0  0  0  0  0  0  0  0  0  0  0  0
    5.8626   -1.3763    0.0000 H   0  0  0  0  0  0  0  0  0  0  0  0
    5.0656   -1.3763    0.0000 H   0  0  0  0  0  0  0  0  0  0  0  0
    6.8671   -2.6612    0.0000 H   0  0  0  0  0  0  0  0  0  0  0  0
    2.6540   -1.7686    0.0000 H   0  0  0  0  0  0  0  0  0  0  0  0
    2.2554   -2.4589    0.0000 H   0  0  0  0  0  0  0  0  0  0  0  0
    3.1951   -0.5412    0.0000 H   0  0  0  0  0  0  0  0  0  0  0  0
    5.7196   -3.2436    0.0000 H   0  0  0  0  0  0  0  0  0  0  0  0
    6.1181   -3.9338    0.0000 H   0  0  0  0  0  0  0  0  0  0  0  0
    4.5981    1.2688    0.0000 H   0  0  0  0  0  0  0  0  0  0  0  0
    3.7320    0.5288    0.0000 H   0  0  0  0  0  0  0  0  0  0  0  0
    7.7331   -2.1612    0.0000 H   0  0  0  0  0  0  0  0  0  0  0  0
    5.1350   -3.6612    0.0000 H   0  0  0  0  0  0  0  0  0  0  0  0
    6.0010    0.8388    0.0000 H   0  0  0  0  0  0  0  0  0  0  0  0
    4.3520    2.1488    0.0000 H   0  0  0  0  0  0  0  0  0  0  0  0
    3.7320    2.7688    0.0000 H   0  0  0  0  0  0  0  0  0  0  0  0
    3.1120    2.1488    0.0000 H   0  0  0  0  0  0  0  0  0  0  0  0
    2.5560    1.1857    0.0000 H   0  0  0  0  0  0  0  0  0  0  0  0
    2.3291    0.3388    0.0000 H   0  0  0  0  0  0  0  0  0  0  0  0
    3.1760    0.1118    0.0000 H   0  0  0  0  0  0  0  0  0  0  0  0
    4.2690   -3.5412    0.0000 H   0  0  0  0  0  0  0  0  0  0  0  0
    1.4631   -3.5412    0.0000 H   0  0  0  0  0  0  0  0  0  0  0  0
    8.0622   -2.7312    0.0000 H   0  0  0  0  0  0  0  0  0  0  0  0
    6.6592   -5.1612    0.0000 H   0  0  0  0  0  0  0  0  0  0  0  0
    4.2690   -5.1612    0.0000 H   0  0  0  0  0  0  0  0  0  0  0  0
    1.4631   -5.1612    0.0000 H   0  0  0  0  0  0  0  0  0  0  0  0
    9.4651   -3.5412    0.0000 H   0  0  0  0  0  0  0  0  0  0  0  0
    8.0622   -5.9712    0.0000 H   0  0  0  0  0  0  0  0  0  0  0  0
    2.8660   -5.9712    0.0000 H   0  0  0  0  0  0  0  0  0  0  0  0
    9.4651   -5.1612    0.0000 H   0  0  0  0  0  0  0  0  0  0  0  0
    8.5297   -1.3262    0.0000 H   0  0  0  0  0  0  0  0  0  0  0  0
    9.3267   -1.3262    0.0000 H   0  0  0  0  0  0  0  0  0  0  0  0
    6.1181    4.2314    0.0000 H   0  0  0  0  0  0  0  0  0  0  0  0
    5.7196    3.5411    0.0000 H   0  0  0  0  0  0  0  0  0  0  0  0
   10.3900    4.3159    0.0000 H   0  0  0  0  0  0  0  0  0  0  0  0
    9.4380    1.0582    0.0000 H   0  0  0  0  0  0  0  0  0  0  0  0
    8.5310    5.9176    0.0000 H   0  0  0  0  0  0  0  0  0  0  0  0
   10.8627    4.8252    0.0000 H   0  0  0  0  0  0  0  0  0  0  0  0
   10.7256    5.6913    0.0000 H   0  0  0  0  0  0  0  0  0  0  0  0
    9.8595    5.5541    0.0000 H   0  0  0  0  0  0  0  0  0  0  0  0
    9.6137    3.2149    0.0000 H   0  0  0  0  0  0  0  0  0  0  0  0
   10.4323    2.9007    0.0000 H   0  0  0  0  0  0  0  0  0  0  0  0
   10.7465    3.7193    0.0000 H   0  0  0  0  0  0  0  0  0  0  0  0
   11.9935   -0.0796    0.0000 H   0  0  0  0  0  0  0  0  0  0  0  0
  1 42  1  0  0  0  0
  1 46  1  0  0  0  0
  2 41  1  0  0  0  0
  2 49  1  0  0  0  0
 15  3  1  6  0  0  0
  3 63  1  0  0  0  0
  4 21  2  0  0  0  0
  5 29  1  0  0  0  0
  5 39  1  0  0  0  0
  6 29  2  0  0  0  0
  7 34  1  0  0  0  0
  7 40  1  0  0  0  0
  8 34  2  0  0  0  0
 14  9  1  6  0  0  0
  9 21  1  0  0  0  0
  9 57  1  0  0  0  0
 17 10  1  1  0  0  0
 10 29  1  0  0  0  0
 10 62  1  0  0  0  0
 20 11  1  6  0  0  0
 11 34  1  0  0  0  0
 11 64  1  0  0  0  0
 12 42  2  0  0  0  0
 12 44  1  0  0  0  0
 13 45  1  0  0  0  0
 13 49  2  0  0  0  0
 14 15  1  0  0  0  0
 14 18  1  0  0  0  0
 14 50  1  0  0  0  0
 15 16  1  0  0  0  0
 15 51  1  0  0  0  0
 16 17  1  0  0  0  0
 16 52  1  0  0  0  0
 16 53  1  0  0  0  0
 17 19  1  0  0  0  0
 17 54  1  0  0  0  0
 18 23  1  0  0  0  0
 18 55  1  0  0  0  0
 18 56  1  0  0  0  0
 19 24  1  0  0  0  0
 19 58  1  0  0  0  0
 19 59  1  0  0  0  0
 20 21  1  0  0  0  0
 20 22  1  0  0  0  0
 20 60  1  0  0  0  0
 22 25  1  0  0  0  0
 22 26  1  0  0  0  0
 22 61  1  0  0  0  0
 23 27  2  0  0  0  0
 23 28  1  0  0  0  0
 24 30  2  0  0  0  0
 24 31  1  0  0  0  0
 25 65  1  0  0  0  0
 25 66  1  0  0  0  0
 25 67  1  0  0  0  0
 26 68  1  0  0  0  0
 26 69  1  0  0  0  0
 26 70  1  0  0  0  0
 27 32  1  0  0  0  0
 27 71  1  0  0  0  0
 28 33  2  0  0  0  0
 28 72  1  0  0  0  0
 30 35  1  0  0  0  0
 30 73  1  0  0  0  0
 31 36  2  0  0  0  0
 31 74  1  0  0  0  0
 32 37  2  0  0  0  0
 32 75  1  0  0  0  0
 33 37  1  0  0  0  0
 33 76  1  0  0  0  0
 35 38  2  0  0  0  0
 35 77  1  0  0  0  0
 36 38  1  0  0  0  0
 36 78  1  0  0  0  0
 37 79  1  0  0  0  0
 38 80  1  0  0  0  0
 39 41  1  0  0  0  0
 39 81  1  0  0  0  0
 39 82  1  0  0  0  0
 40 42  1  0  0  0  0
 40 83  1  0  0  0  0
 40 84  1  0  0  0  0
 41 45  2  0  0  0  0
 43 44  1  0  0  0  0
 43 47  1  0  0  0  0
 43 48  1  0  0  0  0
 43 85  1  0  0  0  0
 44 46  2  0  0  0  0
 45 86  1  0  0  0  0
 46 87  1  0  0  0  0
 47 88  1  0  0  0  0
 47 89  1  0  0  0  0
 47 90  1  0  0  0  0
 48 91  1  0  0  0  0
 48 92  1  0  0  0  0
 48 93  1  0  0  0  0
 49 94  1  0  0  0  0
M  END
> <PUBCHEM_COMPOUND_CID>
515821
> <PUBCHEM_COMPOUND_CANONICALIZED>
1
> <PUBCHEM_CACTVS_COMPLEXITY>
1010
> <PUBCHEM_CACTVS_HBOND_ACCEPTOR>
10
> <PUBCHEM_CACTVS_HBOND_DONOR>
4
> <PUBCHEM_CACTVS_ROTATABLE_BOND>
19
> <PUBCHEM_CACTVS_SUBSKEYS>
AAADcfB/uABgAAAAAAAAAAAAAAAAAWLAAAAwYAAAAAAAAAAB9AAAHgQQCAAADTzl3ga+iZLIFgisAzV3XAQC8KBxCjhI2J24aIkKdDLgsTmdYAAmlgD4qAeQwPAOAAAAAAAAAAAAAAAAAAAAAAAAAAAAAA==
> <PUBCHEM_IUPAC_OPENEYE_NAME>
thiazol-5-ylmethyl N-[(1S,3S,4S)-1-benzyl-3-hydroxy-4-[[(2S)-2-[(4-isopropylthiazol-2-yl)methoxycarbonylamino]-3-methyl-butanoyl]amino]-5-phenyl-pentyl]carbamate
> <PUBCHEM_IUPAC_CAS_NAME>
N-[(2S,4S,5S)-4-hydroxy-5-[[(2S)-3-methyl-1-oxo-2-[[oxo-[(4-propan-2-yl-2-thiazolyl)methoxy]methyl]amino]butyl]amino]-1,6-diphenylhexan-2-yl]carbamic acid 5-thiazolylmethyl ester
> <PUBCHEM_IUPAC_NAME_MARKUP>
(4-propan-2-yl-1,3-thiazol-2-yl)methyl <I>N</I>-[(2<I>S</I>)-1-[[(2<I>S</I>,3<I>S</I>,5<I>S</I>)-3-hydroxy-1,6-diphenyl-5-(1,3-thiazol-5-ylmethoxycarbonylamino)hexan-2-yl]amino]-3-methyl-1-oxobutan-2-yl]carbamate
> <PUBCHEM_IUPAC_NAME>
(4-propan-2-yl-1,3-thiazol-2-yl)methyl N-[(2S)-1-[[(2S,3S,5S)-3-hydroxy-1,6-diphenyl-5-(1,3-thiazol-5-ylmethoxycarbonylamino)hexan-2-yl]amino]-3-methyl-1-oxobutan-2-yl]carbamate
> <PUBCHEM_IUPAC_SYSTEMATIC_NAME>
(4-propan-2-yl-1,3-thiazol-2-yl)methyl N-[(2S)-3-methyl-1-[[(2S,3S,5S)-3-oxidanyl-1,6-diphenyl-5-(1,3-thiazol-5-ylmethoxycarbonylamino)hexan-2-yl]amino]-1-oxidanylidene-butan-2-yl]carbamate
> <PUBCHEM_IUPAC_TRADITIONAL_NAME>
N-[(1S,3S,4S)-1-benzyl-3-hydroxy-4-[[(2S)-2-[(4-isopropylthiazol-2-yl)methoxycarbonylamino]-3-methyl-butanoyl]amino]-5-phenyl-pentyl]carbamic acid thiazol-5-ylmethyl ester
> <PUBCHEM_IUPAC_INCHI>
InChI=1S/C36H45N5O6S2/c1-23(2)30-21-48-32(39-30)20-47-36(45)41-33(24(3)4)34(43)40-29(16-26-13-9-6-10-14-26)31(42)17-27(15-25-11-7-5-8-12-25)38-35(44)46-19-28-18-37-22-49-28/h5-14,18,21-24,27,29,31,33,42H,15-17,19-20H2,1-4H3,(H,38,44)(H,40,43)(H,41,45)/t27-,29-,31-,33-/m0/s1
> <PUBCHEM_IUPAC_INCHIKEY>
XZGGZXSUFLLDSF-GKHPIFDXSA-N
> <PUBCHEM_XLOGP3_AA>
6.4
> <PUBCHEM_EXACT_MASS>
707.28112652
> <PUBCHEM_MOLECULAR_FORMULA>
C36H45N5O6S2
> <PUBCHEM_MOLECULAR_WEIGHT>
707.9
> <PUBCHEM_OPENEYE_CAN_SMILES>
CC(C)C1=CSC(=N1)COC(=O)NC(C(C)C)C(=O)NC(CC2=CC=CC=C2)C(CC(CC3=CC=CC=C3)NC(=O)OCC4=CN=CS4)O
> <PUBCHEM_OPENEYE_ISO_SMILES>
CC(C)C1=CSC(=N1)COC(=O)N[C@@H](C(C)C)C(=O)N[C@@H](CC2=CC=CC=C2)[C@H](C[C@H](CC3=CC=CC=C3)NC(=O)OCC4=CN=CS4)O
> <PUBCHEM_CACTVS_TPSA>
208
> <PUBCHEM_MONOISOTOPIC_WEIGHT>
707.28112652
> <PUBCHEM_TOTAL_CHARGE>
0
> <PUBCHEM_HEAVY_ATOM_COUNT>
49
> <PUBCHEM_ATOM_DEF_STEREO_COUNT>
4
> <PUBCHEM_ATOM_UDEF_STEREO_COUNT>
0
> <PUBCHEM_BOND_DEF_STEREO_COUNT>
0
> <PUBCHEM_BOND_UDEF_STEREO_COUNT>
0
> <PUBCHEM_ISOTOPIC_ATOM_COUNT>
0
> <PUBCHEM_COMPONENT_COUNT>
1
> <PUBCHEM_CACTVS_TAUTO_COUNT>
-1
> <PUBCHEM_COORDINATE_TYPE>
1
5
255
> <PUBCHEM_BONDANNOTATIONS>
1  42  8
1  46  8
17  10  5
20  11  6
12  42  8
12  44  8
13  45  8
13  49  8
2  41  8
2  49  8
23  27  8
23  28  8
24  30  8
24  31  8
27  32  8
28  33  8
15  3  6
30  35  8
31  36  8
32  37  8
33  37  8
35  38  8
36  38  8
41  45  8
44  46  8
14  9  6
$$$$
