515856
  -OEChem-10302200282D
 80 85  0     1  0  0  0  0  0999 V2000
    4.7401    2.4793    0.0000 O   0  0  0  0  0  0  0  0  0  0  0  0
    4.0577    0.7406    0.0000 O   0  0  0  0  0  0  0  0  0  0  0  0
    8.2077    0.1151    0.0000 O   0  0  0  0  0  0  0  0  0  0  0  0
    7.0426   -4.7551    0.0000 O   0  0  0  0  0  0  0  0  0  0  0  0
    7.2021    1.4776    0.0000 N   0  0  0  0  0  0  0  0  0  0  0  0
    6.5438   -0.1997    0.0000 N   0  0  0  0  0  0  0  0  0  0  0  0
   11.6124    0.1729    0.0000 N   0  0  0  0  0  0  0  0  0  0  0  0
   12.1960    0.9776    0.0000 N   0  0  0  0  0  0  0  0  0  0  0  0
    6.3758    2.0410    0.0000 C   0  0  1  0  0  0  0  0  0  0  0  0
    5.5549   -0.0507    0.0000 C   0  0  1  0  0  0  0  0  0  0  0  0
    5.4203    1.7462    0.0000 C   0  0  1  0  0  0  0  0  0  0  0  0
    5.0549    0.8153    0.0000 C   0  0  1  0  0  0  0  0  0  0  0  0
    6.5249    3.0298    0.0000 C   0  0  0  0  0  0  0  0  0  0  0  0
    4.9916   -0.8769    0.0000 C   0  0  0  0  0  0  0  0  0  0  0  0
    7.2768    0.4804    0.0000 C   0  0  0  0  0  0  0  0  0  0  0  0
    8.0681    1.9776    0.0000 C   0  0  0  0  0  0  0  0  0  0  0  0
    6.8385   -1.1553    0.0000 C   0  0  0  0  0  0  0  0  0  0  0  0
    5.7431    3.6533    0.0000 C   0  0  0  0  0  0  0  0  0  0  0  0
    3.9944   -0.8022    0.0000 C   0  0  0  0  0  0  0  0  0  0  0  0
    8.9341    1.4776    0.0000 C   0  0  0  0  0  0  0  0  0  0  0  0
    6.1583   -1.8884    0.0000 C   0  0  0  0  0  0  0  0  0  0  0  0
    4.8122    3.2879    0.0000 C   0  0  0  0  0  0  0  0  0  0  0  0
    5.8921    4.6421    0.0000 C   0  0  0  0  0  0  0  0  0  0  0  0
    3.4311   -1.6284    0.0000 C   0  0  0  0  0  0  0  0  0  0  0  0
    3.5605    0.0988    0.0000 C   0  0  0  0  0  0  0  0  0  0  0  0
    9.8002    1.9776    0.0000 C   0  0  0  0  0  0  0  0  0  0  0  0
    8.9341    0.4776    0.0000 C   0  0  0  0  0  0  0  0  0  0  0  0
    6.4531   -2.8439    0.0000 C   0  0  0  0  0  0  0  0  0  0  0  0
    5.1834   -1.6658    0.0000 C   0  0  0  0  0  0  0  0  0  0  0  0
   10.6662    1.4776    0.0000 C   0  0  0  0  0  0  0  0  0  0  0  0
    4.0304    3.9114    0.0000 C   0  0  0  0  0  0  0  0  0  0  0  0
    5.1103    5.2656    0.0000 C   0  0  0  0  0  0  0  0  0  0  0  0
    2.4339   -1.5537    0.0000 C   0  0  0  0  0  0  0  0  0  0  0  0
    2.5633    0.1735    0.0000 C   0  0  0  0  0  0  0  0  0  0  0  0
    9.8002   -0.0224    0.0000 C   0  0  0  0  0  0  0  0  0  0  0  0
   10.6662    0.4776    0.0000 C   0  0  0  0  0  0  0  0  0  0  0  0
    5.7729   -3.5770    0.0000 C   0  0  0  0  0  0  0  0  0  0  0  0
    4.5032   -2.3989    0.0000 C   0  0  0  0  0  0  0  0  0  0  0  0
    4.1794    4.9003    0.0000 C   0  0  0  0  0  0  0  0  0  0  0  0
    2.0000   -0.6527    0.0000 C   0  0  0  0  0  0  0  0  0  0  0  0
    4.7980   -3.3545    0.0000 C   0  0  0  0  0  0  0  0  0  0  0  0
   11.6124    1.7824    0.0000 C   0  0  0  0  0  0  0  0  0  0  0  0
    6.0677   -4.5325    0.0000 C   0  0  0  0  0  0  0  0  0  0  0  0
    5.3875   -5.2656    0.0000 C   0  0  0  0  0  0  0  0  0  0  0  0
    6.9441    2.2889    0.0000 H   0  0  0  0  0  0  0  0  0  0  0  0
    5.8029   -0.6190    0.0000 H   0  0  0  0  0  0  0  0  0  0  0  0
    4.8111    1.6309    0.0000 H   0  0  0  0  0  0  0  0  0  0  0  0
    4.7652    0.2672    0.0000 H   0  0  0  0  0  0  0  0  0  0  0  0
    7.1126    2.8323    0.0000 H   0  0  0  0  0  0  0  0  0  0  0  0
    6.8214    3.5743    0.0000 H   0  0  0  0  0  0  0  0  0  0  0  0
    4.8386   -1.4778    0.0000 H   0  0  0  0  0  0  0  0  0  0  0  0
    5.5568   -1.1319    0.0000 H   0  0  0  0  0  0  0  0  0  0  0  0
    8.4666    2.4526    0.0000 H   0  0  0  0  0  0  0  0  0  0  0  0
    7.6696    2.4526    0.0000 H   0  0  0  0  0  0  0  0  0  0  0  0
    7.2129   -1.6495    0.0000 H   0  0  0  0  0  0  0  0  0  0  0  0
    7.3902   -0.8725    0.0000 H   0  0  0  0  0  0  0  0  0  0  0  0
    4.1356    2.3413    0.0000 H   0  0  0  0  0  0  0  0  0  0  0  0
    3.7085    1.2529    0.0000 H   0  0  0  0  0  0  0  0  0  0  0  0
    4.7198    2.6749    0.0000 H   0  0  0  0  0  0  0  0  0  0  0  0
    6.4692    4.8686    0.0000 H   0  0  0  0  0  0  0  0  0  0  0  0
    3.7001   -2.1870    0.0000 H   0  0  0  0  0  0  0  0  0  0  0  0
    3.9098    0.6110    0.0000 H   0  0  0  0  0  0  0  0  0  0  0  0
    9.8002    2.5976    0.0000 H   0  0  0  0  0  0  0  0  0  0  0  0
    8.3972    0.1676    0.0000 H   0  0  0  0  0  0  0  0  0  0  0  0
    7.0576   -2.9819    0.0000 H   0  0  0  0  0  0  0  0  0  0  0  0
    5.0007   -1.0734    0.0000 H   0  0  0  0  0  0  0  0  0  0  0  0
    3.4532    3.6849    0.0000 H   0  0  0  0  0  0  0  0  0  0  0  0
    5.2027    5.8787    0.0000 H   0  0  0  0  0  0  0  0  0  0  0  0
    2.0846   -2.0660    0.0000 H   0  0  0  0  0  0  0  0  0  0  0  0
    2.2943    0.7321    0.0000 H   0  0  0  0  0  0  0  0  0  0  0  0
    9.8002   -0.6424    0.0000 H   0  0  0  0  0  0  0  0  0  0  0  0
    3.8988   -2.2609    0.0000 H   0  0  0  0  0  0  0  0  0  0  0  0
    3.6947    5.2868    0.0000 H   0  0  0  0  0  0  0  0  0  0  0  0
    1.3817   -0.6064    0.0000 H   0  0  0  0  0  0  0  0  0  0  0  0
    4.3763   -3.8090    0.0000 H   0  0  0  0  0  0  0  0  0  0  0  0
   11.8050    2.3717    0.0000 H   0  0  0  0  0  0  0  0  0  0  0  0
   11.8050   -0.4164    0.0000 H   0  0  0  0  0  0  0  0  0  0  0  0
    4.9330   -4.8439    0.0000 H   0  0  0  0  0  0  0  0  0  0  0  0
    4.9658   -5.7201    0.0000 H   0  0  0  0  0  0  0  0  0  0  0  0
    5.8420   -5.6873    0.0000 H   0  0  0  0  0  0  0  0  0  0  0  0
 11  1  1  1  0  0  0
  1 57  1  0  0  0  0
 12  2  1  6  0  0  0
  2 58  1  0  0  0  0
  3 15  2  0  0  0  0
  4 43  2  0  0  0  0
  5  9  1  0  0  0  0
  5 15  1  0  0  0  0
  5 16  1  0  0  0  0
  6 10  1  0  0  0  0
  6 15  1  0  0  0  0
  6 17  1  0  0  0  0
  7  8  1  0  0  0  0
  7 36  1  0  0  0  0
  7 77  1  0  0  0  0
  8 42  2  0  0  0  0
  9 11  1  0  0  0  0
  9 13  1  1  0  0  0
  9 45  1  0  0  0  0
 10 12  1  0  0  0  0
 10 14  1  6  0  0  0
 10 46  1  0  0  0  0
 11 12  1  0  0  0  0
 11 47  1  0  0  0  0
 12 48  1  0  0  0  0
 13 18  1  0  0  0  0
 13 49  1  0  0  0  0
 13 50  1  0  0  0  0
 14 19  1  0  0  0  0
 14 51  1  0  0  0  0
 14 52  1  0  0  0  0
 16 20  1  0  0  0  0
 16 53  1  0  0  0  0
 16 54  1  0  0  0  0
 17 21  1  0  0  0  0
 17 55  1  0  0  0  0
 17 56  1  0  0  0  0
 18 22  2  0  0  0  0
 18 23  1  0  0  0  0
 19 24  2  0  0  0  0
 19 25  1  0  0  0  0
 20 26  2  0  0  0  0
 20 27  1  0  0  0  0
 21 28  2  0  0  0  0
 21 29  1  0  0  0  0
 22 31  1  0  0  0  0
 22 59  1  0  0  0  0
 23 32  2  0  0  0  0
 23 60  1  0  0  0  0
 24 33  1  0  0  0  0
 24 61  1  0  0  0  0
 25 34  2  0  0  0  0
 25 62  1  0  0  0  0
 26 30  1  0  0  0  0
 26 63  1  0  0  0  0
 27 35  2  0  0  0  0
 27 64  1  0  0  0  0
 28 37  1  0  0  0  0
 28 65  1  0  0  0  0
 29 38  2  0  0  0  0
 29 66  1  0  0  0  0
 30 36  2  0  0  0  0
 30 42  1  0  0  0  0
 31 39  2  0  0  0  0
 31 67  1  0  0  0  0
 32 39  1  0  0  0  0
 32 68  1  0  0  0  0
 33 40  2  0  0  0  0
 33 69  1  0  0  0  0
 34 40  1  0  0  0  0
 34 70  1  0  0  0  0
 35 36  1  0  0  0  0
 35 71  1  0  0  0  0
 37 41  2  0  0  0  0
 37 43  1  0  0  0  0
 38 41  1  0  0  0  0
 38 72  1  0  0  0  0
 39 73  1  0  0  0  0
 40 74  1  0  0  0  0
 41 75  1  0  0  0  0
 42 76  1  0  0  0  0
 43 44  1  0  0  0  0
 44 78  1  0  0  0  0
 44 79  1  0  0  0  0
 44 80  1  0  0  0  0
M  END
> <PUBCHEM_COMPOUND_CID>
515856
> <PUBCHEM_COMPOUND_CANONICALIZED>
1
> <PUBCHEM_CACTVS_COMPLEXITY>
952
> <PUBCHEM_CACTVS_HBOND_ACCEPTOR>
5
> <PUBCHEM_CACTVS_HBOND_DONOR>
3
> <PUBCHEM_CACTVS_ROTATABLE_BOND>
9
> <PUBCHEM_CACTVS_SUBSKEYS>
AAADcfB/uAAAAAAAAAAAAAAAAAAAAWAAAAAwYMGABYAAAFgB9AAAHgAYCAAADDzhngY/wPNjAgCqA7R3UACSBAAkggAYuSE4ZNiLMLKA1dGE5QhungKZyYeYyfCOCAACAAACAAAQAAQAAAQAAAAAAAAAAA==
> <PUBCHEM_IUPAC_OPENEYE_NAME>
(4R,5S,6S,7R)-1-[(3-acetylphenyl)methyl]-4,7-dibenzyl-5,6-dihydroxy-3-(1H-indazol-5-ylmethyl)-1,3-diazepan-2-one
> <PUBCHEM_IUPAC_CAS_NAME>
(4R,5S,6S,7R)-1-[(3-acetylphenyl)methyl]-5,6-dihydroxy-3-(1H-indazol-5-ylmethyl)-4,7-bis(phenylmethyl)-1,3-diazepan-2-one
> <PUBCHEM_IUPAC_NAME_MARKUP>
(4<I>R</I>,5<I>S</I>,6<I>S</I>,7<I>R</I>)-1-[(3-acetylphenyl)methyl]-4,7-dibenzyl-5,6-dihydroxy-3-(1<I>H</I>-indazol-5-ylmethyl)-1,3-diazepan-2-one
> <PUBCHEM_IUPAC_NAME>
(4R,5S,6S,7R)-1-[(3-acetylphenyl)methyl]-4,7-dibenzyl-5,6-dihydroxy-3-(1H-indazol-5-ylmethyl)-1,3-diazepan-2-one
> <PUBCHEM_IUPAC_SYSTEMATIC_NAME>
(4R,5S,6S,7R)-1-[(3-ethanoylphenyl)methyl]-3-(1H-indazol-5-ylmethyl)-5,6-bis(oxidanyl)-4,7-bis(phenylmethyl)-1,3-diazepan-2-one
> <PUBCHEM_IUPAC_TRADITIONAL_NAME>
(4R,5S,6S,7R)-1-(3-acetylbenzyl)-4,7-dibenzyl-5,6-dihydroxy-3-(1H-indazol-5-ylmethyl)-1,3-diazepan-2-one
> <PUBCHEM_IUPAC_INCHI>
InChI=1S/C36H36N4O4/c1-24(41)29-14-8-13-27(17-29)22-39-32(19-25-9-4-2-5-10-25)34(42)35(43)33(20-26-11-6-3-7-12-26)40(36(39)44)23-28-15-16-31-30(18-28)21-37-38-31/h2-18,21,32-35,42-43H,19-20,22-23H2,1H3,(H,37,38)/t32-,33-,34+,35+/m1/s1
> <PUBCHEM_IUPAC_INCHIKEY>
PMFZQWVRDGSFAW-WDKGQIBQSA-N
> <PUBCHEM_XLOGP3_AA>
4.6
> <PUBCHEM_EXACT_MASS>
588.27365564
> <PUBCHEM_MOLECULAR_FORMULA>
C36H36N4O4
> <PUBCHEM_MOLECULAR_WEIGHT>
588.7
> <PUBCHEM_OPENEYE_CAN_SMILES>
CC(=O)C1=CC=CC(=C1)CN2C(C(C(C(N(C2=O)CC3=CC4=C(C=C3)NN=C4)CC5=CC=CC=C5)O)O)CC6=CC=CC=C6
> <PUBCHEM_OPENEYE_ISO_SMILES>
CC(=O)C1=CC=CC(=C1)CN2[C@@H]([C@@H]([C@H]([C@H](N(C2=O)CC3=CC4=C(C=C3)NN=C4)CC5=CC=CC=C5)O)O)CC6=CC=CC=C6
> <PUBCHEM_CACTVS_TPSA>
110
> <PUBCHEM_MONOISOTOPIC_WEIGHT>
588.27365564
> <PUBCHEM_TOTAL_CHARGE>
0
> <PUBCHEM_HEAVY_ATOM_COUNT>
44
> <PUBCHEM_ATOM_DEF_STEREO_COUNT>
4
> <PUBCHEM_ATOM_UDEF_STEREO_COUNT>
0
> <PUBCHEM_BOND_DEF_STEREO_COUNT>
0
> <PUBCHEM_BOND_UDEF_STEREO_COUNT>
0
> <PUBCHEM_ISOTOPIC_ATOM_COUNT>
0
> <PUBCHEM_COMPONENT_COUNT>
1
> <PUBCHEM_CACTVS_TAUTO_COUNT>
-1
> <PUBCHEM_COORDINATE_TYPE>
1
5
255
> <PUBCHEM_BONDANNOTATIONS>
11  1  5
10  14  6
18  22  8
18  23  8
19  24  8
19  25  8
12  2  6
20  26  8
20  27  8
21  28  8
21  29  8
22  31  8
23  32  8
24  33  8
25  34  8
26  30  8
27  35  8
28  37  8
29  38  8
30  36  8
30  42  8
31  39  8
32  39  8
33  40  8
34  40  8
35  36  8
37  41  8
38  41  8
7  36  8
7  8  8
8  42  8
9  13  5
$$$$
