515887
  -OEChem-10302200282D
 92 99  0     1  0  0  0  0  0999 V2000
    5.0853   -4.9061    0.0000 S   0  0  0  0  0  0  0  0  0  0  0  0
    4.7401    4.5892    0.0000 O   0  0  0  0  0  0  0  0  0  0  0  0
    4.0577    2.8506    0.0000 O   0  0  0  0  0  0  0  0  0  0  0  0
    8.2077    2.2251    0.0000 O   0  0  0  0  0  0  0  0  0  0  0  0
    7.2021    3.5876    0.0000 N   0  0  0  0  0  0  0  0  0  0  0  0
    6.5438    1.9102    0.0000 N   0  0  0  0  0  0  0  0  0  0  0  0
   11.6124    2.2829    0.0000 N   0  0  0  0  0  0  0  0  0  0  0  0
    6.0677   -2.4226    0.0000 N   0  0  0  0  0  0  0  0  0  0  0  0
   12.1960    3.0876    0.0000 N   0  0  0  0  0  0  0  0  0  0  0  0
    6.6233   -4.4317    0.0000 N   0  0  0  0  0  0  0  0  0  0  0  0
    6.3758    4.1509    0.0000 C   0  0  1  0  0  0  0  0  0  0  0  0
    5.5549    2.0593    0.0000 C   0  0  1  0  0  0  0  0  0  0  0  0
    5.4203    3.8562    0.0000 C   0  0  1  0  0  0  0  0  0  0  0  0
    5.0549    2.9253    0.0000 C   0  0  1  0  0  0  0  0  0  0  0  0
    6.5249    5.1398    0.0000 C   0  0  0  0  0  0  0  0  0  0  0  0
    4.9916    1.2330    0.0000 C   0  0  0  0  0  0  0  0  0  0  0  0
    7.2768    2.5904    0.0000 C   0  0  0  0  0  0  0  0  0  0  0  0
    8.0681    4.0876    0.0000 C   0  0  0  0  0  0  0  0  0  0  0  0
    6.8385    0.9547    0.0000 C   0  0  0  0  0  0  0  0  0  0  0  0
    5.7431    5.7632    0.0000 C   0  0  0  0  0  0  0  0  0  0  0  0
    3.9944    1.3078    0.0000 C   0  0  0  0  0  0  0  0  0  0  0  0
    8.9341    3.5876    0.0000 C   0  0  0  0  0  0  0  0  0  0  0  0
    6.1583    0.2216    0.0000 C   0  0  0  0  0  0  0  0  0  0  0  0
    5.8921    6.7521    0.0000 C   0  0  0  0  0  0  0  0  0  0  0  0
    4.8122    5.3979    0.0000 C   0  0  0  0  0  0  0  0  0  0  0  0
    3.5605    2.2087    0.0000 C   0  0  0  0  0  0  0  0  0  0  0  0
    3.4311    0.4815    0.0000 C   0  0  0  0  0  0  0  0  0  0  0  0
    9.8002    4.0876    0.0000 C   0  0  0  0  0  0  0  0  0  0  0  0
    8.9341    2.5876    0.0000 C   0  0  0  0  0  0  0  0  0  0  0  0
    6.4531   -0.7340    0.0000 C   0  0  0  0  0  0  0  0  0  0  0  0
    5.1834    0.4441    0.0000 C   0  0  0  0  0  0  0  0  0  0  0  0
   10.6662    3.5876    0.0000 C   0  0  0  0  0  0  0  0  0  0  0  0
    5.1103    7.3756    0.0000 C   0  0  0  0  0  0  0  0  0  0  0  0
    4.0304    6.0214    0.0000 C   0  0  0  0  0  0  0  0  0  0  0  0
    2.5633    2.2835    0.0000 C   0  0  0  0  0  0  0  0  0  0  0  0
    2.4339    0.5562    0.0000 C   0  0  0  0  0  0  0  0  0  0  0  0
    9.8002    2.0876    0.0000 C   0  0  0  0  0  0  0  0  0  0  0  0
    5.7729   -1.4670    0.0000 C   0  0  0  0  0  0  0  0  0  0  0  0
   10.6662    2.5876    0.0000 C   0  0  0  0  0  0  0  0  0  0  0  0
    4.5032   -0.2889    0.0000 C   0  0  0  0  0  0  0  0  0  0  0  0
    4.1794    7.0102    0.0000 C   0  0  0  0  0  0  0  0  0  0  0  0
    2.0000    1.4572    0.0000 C   0  0  0  0  0  0  0  0  0  0  0  0
    4.7980   -1.2445    0.0000 C   0  0  0  0  0  0  0  0  0  0  0  0
   11.6124    3.8923    0.0000 C   0  0  0  0  0  0  0  0  0  0  0  0
    5.3875   -3.1556    0.0000 C   0  0  0  0  0  0  0  0  0  0  0  0
    5.6823   -4.1112    0.0000 C   0  0  0  0  0  0  0  0  0  0  0  0
    5.6554   -5.7205    0.0000 C   0  0  0  0  0  0  0  0  0  0  0  0
    6.6110   -5.4257    0.0000 C   0  0  0  0  0  0  0  0  0  0  0  0
    5.4329   -6.6954    0.0000 C   0  0  0  0  0  0  0  0  0  0  0  0
    7.3440   -6.1059    0.0000 C   0  0  0  0  0  0  0  0  0  0  0  0
    6.1659   -7.3756    0.0000 C   0  0  0  0  0  0  0  0  0  0  0  0
    7.1215   -7.0808    0.0000 C   0  0  0  0  0  0  0  0  0  0  0  0
    6.9441    4.3989    0.0000 H   0  0  0  0  0  0  0  0  0  0  0  0
    5.8029    1.4910    0.0000 H   0  0  0  0  0  0  0  0  0  0  0  0
    4.8111    3.7409    0.0000 H   0  0  0  0  0  0  0  0  0  0  0  0
    4.7652    2.3771    0.0000 H   0  0  0  0  0  0  0  0  0  0  0  0
    7.1126    4.9423    0.0000 H   0  0  0  0  0  0  0  0  0  0  0  0
    6.8214    5.6842    0.0000 H   0  0  0  0  0  0  0  0  0  0  0  0
    4.8386    0.6322    0.0000 H   0  0  0  0  0  0  0  0  0  0  0  0
    5.5568    0.9780    0.0000 H   0  0  0  0  0  0  0  0  0  0  0  0
    8.4666    4.5626    0.0000 H   0  0  0  0  0  0  0  0  0  0  0  0
    7.6696    4.5626    0.0000 H   0  0  0  0  0  0  0  0  0  0  0  0
    7.2129    0.4604    0.0000 H   0  0  0  0  0  0  0  0  0  0  0  0
    7.3902    1.2375    0.0000 H   0  0  0  0  0  0  0  0  0  0  0  0
    4.1356    4.4513    0.0000 H   0  0  0  0  0  0  0  0  0  0  0  0
    3.7085    3.3628    0.0000 H   0  0  0  0  0  0  0  0  0  0  0  0
    6.4692    6.9786    0.0000 H   0  0  0  0  0  0  0  0  0  0  0  0
    4.7198    4.7848    0.0000 H   0  0  0  0  0  0  0  0  0  0  0  0
    3.9098    2.7210    0.0000 H   0  0  0  0  0  0  0  0  0  0  0  0
    3.7001   -0.0771    0.0000 H   0  0  0  0  0  0  0  0  0  0  0  0
    9.8002    4.7076    0.0000 H   0  0  0  0  0  0  0  0  0  0  0  0
    8.3972    2.2776    0.0000 H   0  0  0  0  0  0  0  0  0  0  0  0
    7.0576   -0.8719    0.0000 H   0  0  0  0  0  0  0  0  0  0  0  0
    5.0007    1.0366    0.0000 H   0  0  0  0  0  0  0  0  0  0  0  0
    5.2027    7.9886    0.0000 H   0  0  0  0  0  0  0  0  0  0  0  0
    3.4532    5.7949    0.0000 H   0  0  0  0  0  0  0  0  0  0  0  0
    2.2943    2.8421    0.0000 H   0  0  0  0  0  0  0  0  0  0  0  0
    2.0846    0.0440    0.0000 H   0  0  0  0  0  0  0  0  0  0  0  0
    9.8002    1.4676    0.0000 H   0  0  0  0  0  0  0  0  0  0  0  0
    3.8988   -0.1510    0.0000 H   0  0  0  0  0  0  0  0  0  0  0  0
    3.6947    7.3968    0.0000 H   0  0  0  0  0  0  0  0  0  0  0  0
    1.3817    1.5036    0.0000 H   0  0  0  0  0  0  0  0  0  0  0  0
    4.3763   -1.6990    0.0000 H   0  0  0  0  0  0  0  0  0  0  0  0
   11.8050    4.4817    0.0000 H   0  0  0  0  0  0  0  0  0  0  0  0
   11.8050    1.6936    0.0000 H   0  0  0  0  0  0  0  0  0  0  0  0
    6.6721   -2.5606    0.0000 H   0  0  0  0  0  0  0  0  0  0  0  0
    5.0132   -2.6614    0.0000 H   0  0  0  0  0  0  0  0  0  0  0  0
    4.8358   -3.4385    0.0000 H   0  0  0  0  0  0  0  0  0  0  0  0
    4.8404   -6.8781    0.0000 H   0  0  0  0  0  0  0  0  0  0  0  0
    7.9365   -5.9231    0.0000 H   0  0  0  0  0  0  0  0  0  0  0  0
    6.0280   -7.9800    0.0000 H   0  0  0  0  0  0  0  0  0  0  0  0
    7.5760   -7.5025    0.0000 H   0  0  0  0  0  0  0  0  0  0  0  0
  1 46  1  0  0  0  0
  1 47  1  0  0  0  0
 13  2  1  1  0  0  0
  2 65  1  0  0  0  0
 14  3  1  6  0  0  0
  3 66  1  0  0  0  0
  4 17  2  0  0  0  0
  5 11  1  0  0  0  0
  5 17  1  0  0  0  0
  5 18  1  0  0  0  0
  6 12  1  0  0  0  0
  6 17  1  0  0  0  0
  6 19  1  0  0  0  0
  7  9  1  0  0  0  0
  7 39  1  0  0  0  0
  7 85  1  0  0  0  0
  8 38  1  0  0  0  0
  8 45  1  0  0  0  0
  8 86  1  0  0  0  0
  9 44  2  0  0  0  0
 10 46  2  0  0  0  0
 10 48  1  0  0  0  0
 11 13  1  0  0  0  0
 11 15  1  1  0  0  0
 11 53  1  0  0  0  0
 12 14  1  0  0  0  0
 12 16  1  6  0  0  0
 12 54  1  0  0  0  0
 13 14  1  0  0  0  0
 13 55  1  0  0  0  0
 14 56  1  0  0  0  0
 15 20  1  0  0  0  0
 15 57  1  0  0  0  0
 15 58  1  0  0  0  0
 16 21  1  0  0  0  0
 16 59  1  0  0  0  0
 16 60  1  0  0  0  0
 18 22  1  0  0  0  0
 18 61  1  0  0  0  0
 18 62  1  0  0  0  0
 19 23  1  0  0  0  0
 19 63  1  0  0  0  0
 19 64  1  0  0  0  0
 20 24  2  0  0  0  0
 20 25  1  0  0  0  0
 21 26  2  0  0  0  0
 21 27  1  0  0  0  0
 22 28  2  0  0  0  0
 22 29  1  0  0  0  0
 23 30  2  0  0  0  0
 23 31  1  0  0  0  0
 24 33  1  0  0  0  0
 24 67  1  0  0  0  0
 25 34  2  0  0  0  0
 25 68  1  0  0  0  0
 26 35  1  0  0  0  0
 26 69  1  0  0  0  0
 27 36  2  0  0  0  0
 27 70  1  0  0  0  0
 28 32  1  0  0  0  0
 28 71  1  0  0  0  0
 29 37  2  0  0  0  0
 29 72  1  0  0  0  0
 30 38  1  0  0  0  0
 30 73  1  0  0  0  0
 31 40  2  0  0  0  0
 31 74  1  0  0  0  0
 32 39  2  0  0  0  0
 32 44  1  0  0  0  0
 33 41  2  0  0  0  0
 33 75  1  0  0  0  0
 34 41  1  0  0  0  0
 34 76  1  0  0  0  0
 35 42  2  0  0  0  0
 35 77  1  0  0  0  0
 36 42  1  0  0  0  0
 36 78  1  0  0  0  0
 37 39  1  0  0  0  0
 37 79  1  0  0  0  0
 38 43  2  0  0  0  0
 40 43  1  0  0  0  0
 40 80  1  0  0  0  0
 41 81  1  0  0  0  0
 42 82  1  0  0  0  0
 43 83  1  0  0  0  0
 44 84  1  0  0  0  0
 45 46  1  0  0  0  0
 45 87  1  0  0  0  0
 45 88  1  0  0  0  0
 47 48  1  0  0  0  0
 47 49  2  0  0  0  0
 48 50  2  0  0  0  0
 49 51  1  0  0  0  0
 49 89  1  0  0  0  0
 50 52  1  0  0  0  0
 50 90  1  0  0  0  0
 51 52  2  0  0  0  0
 51 91  1  0  0  0  0
 52 92  1  0  0  0  0
M  END
> <PUBCHEM_COMPOUND_CID>
515887
> <PUBCHEM_COMPOUND_CANONICALIZED>
1
> <PUBCHEM_CACTVS_COMPLEXITY>
1140
> <PUBCHEM_CACTVS_HBOND_ACCEPTOR>
7
> <PUBCHEM_CACTVS_HBOND_DONOR>
4
> <PUBCHEM_CACTVS_ROTATABLE_BOND>
11
> <PUBCHEM_CACTVS_SUBSKEYS>
AAADcfB/sABAAAAAAAAAAAAAAAAAAWLAAAAwYMGDBYAAAFgB/gAAHgQYCAAADDzh3gY9wfPrEgiuAzRnVACT9KBhijhYubw4ZJiLcKLg0dGU5AhungL5yAeQwPAOCAACQAACAQAQAASAAAQCAAAAAAAAAA==
> <PUBCHEM_IUPAC_OPENEYE_NAME>
(4R,5S,6S,7R)-1-[[3-(1,3-benzothiazol-2-ylmethylamino)phenyl]methyl]-4,7-dibenzyl-5,6-dihydroxy-3-(1H-indazol-5-ylmethyl)-1,3-diazepan-2-one
> <PUBCHEM_IUPAC_CAS_NAME>
(4R,5S,6S,7R)-1-[[3-(1,3-benzothiazol-2-ylmethylamino)phenyl]methyl]-5,6-dihydroxy-3-(1H-indazol-5-ylmethyl)-4,7-bis(phenylmethyl)-1,3-diazepan-2-one
> <PUBCHEM_IUPAC_NAME_MARKUP>
(4<I>R</I>,5<I>S</I>,6<I>S</I>,7<I>R</I>)-1-[[3-(1,3-benzothiazol-2-ylmethylamino)phenyl]methyl]-4,7-dibenzyl-5,6-dihydroxy-3-(1<I>H</I>-indazol-5-ylmethyl)-1,3-diazepan-2-one
> <PUBCHEM_IUPAC_NAME>
(4R,5S,6S,7R)-1-[[3-(1,3-benzothiazol-2-ylmethylamino)phenyl]methyl]-4,7-dibenzyl-5,6-dihydroxy-3-(1H-indazol-5-ylmethyl)-1,3-diazepan-2-one
> <PUBCHEM_IUPAC_SYSTEMATIC_NAME>
(4R,5S,6S,7R)-1-[[3-(1,3-benzothiazol-2-ylmethylamino)phenyl]methyl]-3-(1H-indazol-5-ylmethyl)-5,6-bis(oxidanyl)-4,7-bis(phenylmethyl)-1,3-diazepan-2-one
> <PUBCHEM_IUPAC_TRADITIONAL_NAME>
(4R,5S,6S,7R)-1-[3-(1,3-benzothiazol-2-ylmethylamino)benzyl]-4,7-dibenzyl-5,6-dihydroxy-3-(1H-indazol-5-ylmethyl)-1,3-diazepan-2-one
> <PUBCHEM_IUPAC_INCHI>
InChI=1S/C42H40N6O3S/c49-40-36(22-28-10-3-1-4-11-28)47(26-30-14-9-15-33(21-30)43-25-39-45-35-16-7-8-17-38(35)52-39)42(51)48(27-31-18-19-34-32(20-31)24-44-46-34)37(41(40)50)23-29-12-5-2-6-13-29/h1-21,24,36-37,40-41,43,49-50H,22-23,25-27H2,(H,44,46)/t36-,37-,40+,41+/m1/s1
> <PUBCHEM_IUPAC_INCHIKEY>
UGMGBADCLGQMSF-HFHXALQXSA-N
> <PUBCHEM_XLOGP3_AA>
6.9
> <PUBCHEM_EXACT_MASS>
708.28826033
> <PUBCHEM_MOLECULAR_FORMULA>
C42H40N6O3S
> <PUBCHEM_MOLECULAR_WEIGHT>
708.9
> <PUBCHEM_OPENEYE_CAN_SMILES>
C1=CC=C(C=C1)CC2C(C(C(N(C(=O)N2CC3=CC(=CC=C3)NCC4=NC5=CC=CC=C5S4)CC6=CC7=C(C=C6)NN=C7)CC8=CC=CC=C8)O)O
> <PUBCHEM_OPENEYE_ISO_SMILES>
C1=CC=C(C=C1)C[C@@H]2[C@@H]([C@H]([C@H](N(C(=O)N2CC3=CC(=CC=C3)NCC4=NC5=CC=CC=C5S4)CC6=CC7=C(C=C6)NN=C7)CC8=CC=CC=C8)O)O
> <PUBCHEM_CACTVS_TPSA>
146
> <PUBCHEM_MONOISOTOPIC_WEIGHT>
708.28826033
> <PUBCHEM_TOTAL_CHARGE>
0
> <PUBCHEM_HEAVY_ATOM_COUNT>
52
> <PUBCHEM_ATOM_DEF_STEREO_COUNT>
4
> <PUBCHEM_ATOM_UDEF_STEREO_COUNT>
0
> <PUBCHEM_BOND_DEF_STEREO_COUNT>
0
> <PUBCHEM_BOND_UDEF_STEREO_COUNT>
0
> <PUBCHEM_ISOTOPIC_ATOM_COUNT>
0
> <PUBCHEM_COMPONENT_COUNT>
1
> <PUBCHEM_CACTVS_TAUTO_COUNT>
-1
> <PUBCHEM_COORDINATE_TYPE>
1
5
255
> <PUBCHEM_BONDANNOTATIONS>
1  46  8
1  47  8
10  46  8
10  48  8
11  15  5
12  16  6
13  2  5
20  24  8
20  25  8
21  26  8
21  27  8
22  28  8
22  29  8
23  30  8
23  31  8
24  33  8
25  34  8
26  35  8
27  36  8
28  32  8
29  37  8
14  3  6
30  38  8
31  40  8
32  39  8
32  44  8
33  41  8
34  41  8
35  42  8
36  42  8
37  39  8
38  43  8
40  43  8
47  48  8
47  49  8
48  50  8
49  51  8
50  52  8
51  52  8
7  39  8
7  9  8
9  44  8
$$$$
