515825
  -OEChem-10302200282D
102106  0     1  0  0  0  0  0999 V2000
    9.6448    2.8739    0.0000 S   0  0  0  0  0  0  0  0  0  0  0  0
   10.7078   -0.8692    0.0000 S   0  0  0  0  0  0  0  0  0  0  0  0
    4.5981    2.5375    0.0000 O   0  0  0  0  0  0  0  0  0  0  0  0
    4.5981   -3.4625    0.0000 O   0  0  0  0  0  0  0  0  0  0  0  0
    5.4641   -0.9625    0.0000 O   0  0  0  0  0  0  0  0  0  0  0  0
    8.0622   -0.4625    0.0000 O   0  0  0  0  0  0  0  0  0  0  0  0
    6.3301   -0.4625    0.0000 O   0  0  0  0  0  0  0  0  0  0  0  0
    6.3301    2.5375    0.0000 N   0  0  0  0  0  0  0  0  0  0  0  0
    5.4641    1.0375    0.0000 N   0  0  0  0  0  0  0  0  0  0  0  0
    3.7320   -0.9625    0.0000 N   0  0  0  0  0  0  0  0  0  0  0  0
    8.1667    3.5320    0.0000 N   0  0  0  0  0  0  0  0  0  0  0  0
    7.1962   -1.9625    0.0000 N   0  0  0  0  0  0  0  0  0  0  0  0
   10.8769    0.7399    0.0000 N   0  0  0  0  0  0  0  0  0  0  0  0
    6.3301    3.5375    0.0000 C   0  0  0  0  0  0  0  0  0  0  0  0
    6.8301    4.4035    0.0000 C   0  0  0  0  0  0  0  0  0  0  0  0
    5.8301    4.4035    0.0000 C   0  0  0  0  0  0  0  0  0  0  0  0
    7.1962    2.0375    0.0000 C   0  0  0  0  0  0  0  0  0  0  0  0
    5.4641    2.0375    0.0000 C   0  0  0  0  0  0  0  0  0  0  0  0
    4.5981    0.5375    0.0000 C   0  0  1  0  0  0  0  0  0  0  0  0
    8.0622    2.5375    0.0000 C   0  0  0  0  0  0  0  0  0  0  0  0
    3.7320    1.0375    0.0000 C   0  0  0  0  0  0  0  0  0  0  0  0
    3.7320   -1.9625    0.0000 C   0  0  2  0  0  0  0  0  0  0  0  0
    4.5981   -2.4625    0.0000 C   0  0  2  0  0  0  0  0  0  0  0  0
    4.5981   -0.4625    0.0000 C   0  0  0  0  0  0  0  0  0  0  0  0
    5.4641   -1.9625    0.0000 C   0  0  0  0  0  0  0  0  0  0  0  0
    8.9757    2.1308    0.0000 C   0  0  0  0  0  0  0  0  0  0  0  0
    2.8660   -2.4625    0.0000 C   0  0  0  0  0  0  0  0  0  0  0  0
    6.3301   -2.4625    0.0000 C   0  0  2  0  0  0  0  0  0  0  0  0
    3.7320    2.0375    0.0000 C   0  0  0  0  0  0  0  0  0  0  0  0
    2.8660    0.5375    0.0000 C   0  0  0  0  0  0  0  0  0  0  0  0
    9.1448    3.7399    0.0000 C   0  0  0  0  0  0  0  0  0  0  0  0
    6.3301   -3.4625    0.0000 C   0  0  0  0  0  0  0  0  0  0  0  0
    2.8660   -3.4625    0.0000 C   0  0  0  0  0  0  0  0  0  0  0  0
    9.5516    4.6535    0.0000 C   0  0  0  0  0  0  0  0  0  0  0  0
    7.1962   -3.9625    0.0000 C   0  0  0  0  0  0  0  0  0  0  0  0
    3.7320   -3.9625    0.0000 C   0  0  0  0  0  0  0  0  0  0  0  0
    2.0000   -3.9625    0.0000 C   0  0  0  0  0  0  0  0  0  0  0  0
   10.5461    4.7580    0.0000 C   0  0  0  0  0  0  0  0  0  0  0  0
    8.9638    5.4625    0.0000 C   0  0  0  0  0  0  0  0  0  0  0  0
    7.1962   -0.9625    0.0000 C   0  0  0  0  0  0  0  0  0  0  0  0
    8.0622   -3.4625    0.0000 C   0  0  0  0  0  0  0  0  0  0  0  0
    7.1962   -4.9625    0.0000 C   0  0  0  0  0  0  0  0  0  0  0  0
    3.7320   -4.9625    0.0000 C   0  0  0  0  0  0  0  0  0  0  0  0
    2.0000   -4.9625    0.0000 C   0  0  0  0  0  0  0  0  0  0  0  0
    2.8660   -5.4625    0.0000 C   0  0  0  0  0  0  0  0  0  0  0  0
    8.9282   -3.9625    0.0000 C   0  0  0  0  0  0  0  0  0  0  0  0
    8.0622   -5.4625    0.0000 C   0  0  0  0  0  0  0  0  0  0  0  0
    8.9282   -4.9625    0.0000 C   0  0  0  0  0  0  0  0  0  0  0  0
    8.9282   -0.9625    0.0000 C   0  0  0  0  0  0  0  0  0  0  0  0
    9.7942   -0.4625    0.0000 C   0  0  0  0  0  0  0  0  0  0  0  0
    9.8988    0.5320    0.0000 C   0  0  0  0  0  0  0  0  0  0  0  0
   11.3769   -0.1261    0.0000 C   0  0  0  0  0  0  0  0  0  0  0  0
    6.9290    3.3770    0.0000 H   0  0  0  0  0  0  0  0  0  0  0  0
    7.4127    4.1915    0.0000 H   0  0  0  0  0  0  0  0  0  0  0  0
    6.9378    5.0141    0.0000 H   0  0  0  0  0  0  0  0  0  0  0  0
    5.7225    5.0141    0.0000 H   0  0  0  0  0  0  0  0  0  0  0  0
    5.2475    4.1915    0.0000 H   0  0  0  0  0  0  0  0  0  0  0  0
    6.7976    1.5626    0.0000 H   0  0  0  0  0  0  0  0  0  0  0  0
    7.5947    1.5626    0.0000 H   0  0  0  0  0  0  0  0  0  0  0  0
    4.5981    1.1575    0.0000 H   0  0  0  0  0  0  0  0  0  0  0  0
    6.0010    0.7275    0.0000 H   0  0  0  0  0  0  0  0  0  0  0  0
    3.7320    0.4175    0.0000 H   0  0  0  0  0  0  0  0  0  0  0  0
    4.2690   -1.6525    0.0000 H   0  0  0  0  0  0  0  0  0  0  0  0
    5.1350   -2.7725    0.0000 H   0  0  0  0  0  0  0  0  0  0  0  0
    5.8626   -1.4876    0.0000 H   0  0  0  0  0  0  0  0  0  0  0  0
    5.0656   -1.4876    0.0000 H   0  0  0  0  0  0  0  0  0  0  0  0
    3.1951   -0.6525    0.0000 H   0  0  0  0  0  0  0  0  0  0  0  0
    2.6540   -1.8799    0.0000 H   0  0  0  0  0  0  0  0  0  0  0  0
    2.2554   -2.5702    0.0000 H   0  0  0  0  0  0  0  0  0  0  0  0
    6.8671   -2.7725    0.0000 H   0  0  0  0  0  0  0  0  0  0  0  0
    9.1046    1.5243    0.0000 H   0  0  0  0  0  0  0  0  0  0  0  0
    4.3520    2.0375    0.0000 H   0  0  0  0  0  0  0  0  0  0  0  0
    3.7320    2.6575    0.0000 H   0  0  0  0  0  0  0  0  0  0  0  0
    3.1120    2.0375    0.0000 H   0  0  0  0  0  0  0  0  0  0  0  0
    2.5560    1.0744    0.0000 H   0  0  0  0  0  0  0  0  0  0  0  0
    2.3291    0.2275    0.0000 H   0  0  0  0  0  0  0  0  0  0  0  0
    3.1760    0.0006    0.0000 H   0  0  0  0  0  0  0  0  0  0  0  0
    5.7196   -3.3548    0.0000 H   0  0  0  0  0  0  0  0  0  0  0  0
    6.1181   -4.0451    0.0000 H   0  0  0  0  0  0  0  0  0  0  0  0
    9.9160    4.1519    0.0000 H   0  0  0  0  0  0  0  0  0  0  0  0
    5.1350   -3.7725    0.0000 H   0  0  0  0  0  0  0  0  0  0  0  0
    7.7331   -2.2725    0.0000 H   0  0  0  0  0  0  0  0  0  0  0  0
    4.2690   -3.6525    0.0000 H   0  0  0  0  0  0  0  0  0  0  0  0
    1.4631   -3.6525    0.0000 H   0  0  0  0  0  0  0  0  0  0  0  0
   10.6109    4.1414    0.0000 H   0  0  0  0  0  0  0  0  0  0  0  0
   11.1627    4.8228    0.0000 H   0  0  0  0  0  0  0  0  0  0  0  0
   10.4813    5.3746    0.0000 H   0  0  0  0  0  0  0  0  0  0  0  0
    9.4654    5.8269    0.0000 H   0  0  0  0  0  0  0  0  0  0  0  0
    8.5994    5.9641    0.0000 H   0  0  0  0  0  0  0  0  0  0  0  0
    8.4622    5.0981    0.0000 H   0  0  0  0  0  0  0  0  0  0  0  0
    8.0622   -2.8425    0.0000 H   0  0  0  0  0  0  0  0  0  0  0  0
    6.6592   -5.2725    0.0000 H   0  0  0  0  0  0  0  0  0  0  0  0
    4.2690   -5.2725    0.0000 H   0  0  0  0  0  0  0  0  0  0  0  0
    1.4631   -5.2725    0.0000 H   0  0  0  0  0  0  0  0  0  0  0  0
    2.8660   -6.0825    0.0000 H   0  0  0  0  0  0  0  0  0  0  0  0
    9.4651   -3.6525    0.0000 H   0  0  0  0  0  0  0  0  0  0  0  0
    8.0622   -6.0825    0.0000 H   0  0  0  0  0  0  0  0  0  0  0  0
    9.4651   -5.2725    0.0000 H   0  0  0  0  0  0  0  0  0  0  0  0
    8.5297   -1.4374    0.0000 H   0  0  0  0  0  0  0  0  0  0  0  0
    9.3267   -1.4374    0.0000 H   0  0  0  0  0  0  0  0  0  0  0  0
    9.4380    0.9469    0.0000 H   0  0  0  0  0  0  0  0  0  0  0  0
   11.9935   -0.1909    0.0000 H   0  0  0  0  0  0  0  0  0  0  0  0
  1 26  1  0  0  0  0
  1 31  1  0  0  0  0
  2 50  1  0  0  0  0
  2 52  1  0  0  0  0
  3 18  2  0  0  0  0
 23  4  1  6  0  0  0
  4 81  1  0  0  0  0
  5 24  2  0  0  0  0
  6 40  1  0  0  0  0
  6 49  1  0  0  0  0
  7 40  2  0  0  0  0
  8 14  1  0  0  0  0
  8 17  1  0  0  0  0
  8 18  1  0  0  0  0
  9 18  1  0  0  0  0
 19  9  1  6  0  0  0
  9 61  1  0  0  0  0
 22 10  1  6  0  0  0
 10 24  1  0  0  0  0
 10 67  1  0  0  0  0
 11 20  1  0  0  0  0
 11 31  2  0  0  0  0
 28 12  1  1  0  0  0
 12 40  1  0  0  0  0
 12 82  1  0  0  0  0
 13 51  1  0  0  0  0
 13 52  2  0  0  0  0
 14 15  1  0  0  0  0
 14 16  1  0  0  0  0
 14 53  1  0  0  0  0
 15 16  1  0  0  0  0
 15 54  1  0  0  0  0
 15 55  1  0  0  0  0
 16 56  1  0  0  0  0
 16 57  1  0  0  0  0
 17 20  1  0  0  0  0
 17 58  1  0  0  0  0
 17 59  1  0  0  0  0
 19 21  1  0  0  0  0
 19 24  1  0  0  0  0
 19 60  1  0  0  0  0
 20 26  2  0  0  0  0
 21 29  1  0  0  0  0
 21 30  1  0  0  0  0
 21 62  1  0  0  0  0
 22 23  1  0  0  0  0
 22 27  1  0  0  0  0
 22 63  1  0  0  0  0
 23 25  1  0  0  0  0
 23 64  1  0  0  0  0
 25 28  1  0  0  0  0
 25 65  1  0  0  0  0
 25 66  1  0  0  0  0
 26 71  1  0  0  0  0
 27 33  1  0  0  0  0
 27 68  1  0  0  0  0
 27 69  1  0  0  0  0
 28 32  1  0  0  0  0
 28 70  1  0  0  0  0
 29 72  1  0  0  0  0
 29 73  1  0  0  0  0
 29 74  1  0  0  0  0
 30 75  1  0  0  0  0
 30 76  1  0  0  0  0
 30 77  1  0  0  0  0
 31 34  1  0  0  0  0
 32 35  1  0  0  0  0
 32 78  1  0  0  0  0
 32 79  1  0  0  0  0
 33 36  2  0  0  0  0
 33 37  1  0  0  0  0
 34 38  1  0  0  0  0
 34 39  1  0  0  0  0
 34 80  1  0  0  0  0
 35 41  2  0  0  0  0
 35 42  1  0  0  0  0
 36 43  1  0  0  0  0
 36 83  1  0  0  0  0
 37 44  2  0  0  0  0
 37 84  1  0  0  0  0
 38 85  1  0  0  0  0
 38 86  1  0  0  0  0
 38 87  1  0  0  0  0
 39 88  1  0  0  0  0
 39 89  1  0  0  0  0
 39 90  1  0  0  0  0
 41 46  1  0  0  0  0
 41 91  1  0  0  0  0
 42 47  2  0  0  0  0
 42 92  1  0  0  0  0
 43 45  2  0  0  0  0
 43 93  1  0  0  0  0
 44 45  1  0  0  0  0
 44 94  1  0  0  0  0
 45 95  1  0  0  0  0
 46 48  2  0  0  0  0
 46 96  1  0  0  0  0
 47 48  1  0  0  0  0
 47 97  1  0  0  0  0
 48 98  1  0  0  0  0
 49 50  1  0  0  0  0
 49 99  1  0  0  0  0
 49100  1  0  0  0  0
 50 51  2  0  0  0  0
 51101  1  0  0  0  0
 52102  1  0  0  0  0
M  END
> <PUBCHEM_COMPOUND_CID>
515825
> <PUBCHEM_COMPOUND_CANONICALIZED>
1
> <PUBCHEM_CACTVS_COMPLEXITY>
1120
> <PUBCHEM_CACTVS_HBOND_ACCEPTOR>
9
> <PUBCHEM_CACTVS_HBOND_DONOR>
4
> <PUBCHEM_CACTVS_ROTATABLE_BOND>
19
> <PUBCHEM_CACTVS_SUBSKEYS>
AAADcfB/uABgAAAAAAAAAAAAGAAAAWLAAAAwYAAAAAAAAAAB9AAAHgQQCAAADTzl3ga/iZPIFgisAzV3XACC8KBxCjhI2J24bImKdDLgsTmcYAgulgL4qAeQwPAOAAAAAAAAAAAAAAAAAAAAAAAAAAAAAA==
> <PUBCHEM_IUPAC_OPENEYE_NAME>
thiazol-5-ylmethyl N-[(1S,3S,4S)-1-benzyl-4-[[(2S)-2-[[cyclopropyl-[(2-isopropylthiazol-4-yl)methyl]carbamoyl]amino]-3-methyl-butanoyl]amino]-3-hydroxy-5-phenyl-pentyl]carbamate
> <PUBCHEM_IUPAC_CAS_NAME>
N-[(2S,4S,5S)-5-[[(2S)-2-[[[cyclopropyl-[(2-propan-2-yl-4-thiazolyl)methyl]amino]-oxomethyl]amino]-3-methyl-1-oxobutyl]amino]-4-hydroxy-1,6-diphenylhexan-2-yl]carbamic acid 5-thiazolylmethyl ester
> <PUBCHEM_IUPAC_NAME_MARKUP>
1,3-thiazol-5-ylmethyl <I>N</I>-[(2<I>S</I>,4<I>S</I>,5<I>S</I>)-5-[[(2<I>S</I>)-2-[[cyclopropyl-[(2-propan-2-yl-1,3-thiazol-4-yl)methyl]carbamoyl]amino]-3-methylbutanoyl]amino]-4-hydroxy-1,6-diphenylhexan-2-yl]carbamate
> <PUBCHEM_IUPAC_NAME>
1,3-thiazol-5-ylmethyl N-[(2S,4S,5S)-5-[[(2S)-2-[[cyclopropyl-[(2-propan-2-yl-1,3-thiazol-4-yl)methyl]carbamoyl]amino]-3-methylbutanoyl]amino]-4-hydroxy-1,6-diphenylhexan-2-yl]carbamate
> <PUBCHEM_IUPAC_SYSTEMATIC_NAME>
1,3-thiazol-5-ylmethyl N-[(2S,4S,5S)-5-[[(2S)-2-[[cyclopropyl-[(2-propan-2-yl-1,3-thiazol-4-yl)methyl]carbamoyl]amino]-3-methyl-butanoyl]amino]-4-oxidanyl-1,6-diphenyl-hexan-2-yl]carbamate
> <PUBCHEM_IUPAC_TRADITIONAL_NAME>
N-[(1S,3S,4S)-1-benzyl-4-[[(2S)-2-[[cyclopropyl-[(2-isopropylthiazol-4-yl)methyl]carbamoyl]amino]-3-methyl-butanoyl]amino]-3-hydroxy-5-phenyl-pentyl]carbamic acid thiazol-5-ylmethyl ester
> <PUBCHEM_IUPAC_INCHI>
InChI=1S/C39H50N6O5S2/c1-25(2)35(44-38(48)45(31-15-16-31)21-30-23-51-37(41-30)26(3)4)36(47)43-33(18-28-13-9-6-10-14-28)34(46)19-29(17-27-11-7-5-8-12-27)42-39(49)50-22-32-20-40-24-52-32/h5-14,20,23-26,29,31,33-35,46H,15-19,21-22H2,1-4H3,(H,42,49)(H,43,47)(H,44,48)/t29-,33-,34-,35-/m0/s1
> <PUBCHEM_IUPAC_INCHIKEY>
QMVLHLXYEJEQJU-HNJBERQJSA-N
> <PUBCHEM_XLOGP3_AA>
6.6
> <PUBCHEM_EXACT_MASS>
746.32841106
> <PUBCHEM_MOLECULAR_FORMULA>
C39H50N6O5S2
> <PUBCHEM_MOLECULAR_WEIGHT>
747.0
> <PUBCHEM_OPENEYE_CAN_SMILES>
CC(C)C1=NC(=CS1)CN(C2CC2)C(=O)NC(C(C)C)C(=O)NC(CC3=CC=CC=C3)C(CC(CC4=CC=CC=C4)NC(=O)OCC5=CN=CS5)O
> <PUBCHEM_OPENEYE_ISO_SMILES>
CC(C)C1=NC(=CS1)CN(C2CC2)C(=O)N[C@@H](C(C)C)C(=O)N[C@@H](CC3=CC=CC=C3)[C@H](C[C@H](CC4=CC=CC=C4)NC(=O)OCC5=CN=CS5)O
> <PUBCHEM_CACTVS_TPSA>
202
> <PUBCHEM_MONOISOTOPIC_WEIGHT>
746.32841106
> <PUBCHEM_TOTAL_CHARGE>
0
> <PUBCHEM_HEAVY_ATOM_COUNT>
52
> <PUBCHEM_ATOM_DEF_STEREO_COUNT>
4
> <PUBCHEM_ATOM_UDEF_STEREO_COUNT>
0
> <PUBCHEM_BOND_DEF_STEREO_COUNT>
0
> <PUBCHEM_BOND_UDEF_STEREO_COUNT>
0
> <PUBCHEM_ISOTOPIC_ATOM_COUNT>
0
> <PUBCHEM_COMPONENT_COUNT>
1
> <PUBCHEM_CACTVS_TAUTO_COUNT>
-1
> <PUBCHEM_COORDINATE_TYPE>
1
5
255
> <PUBCHEM_BONDANNOTATIONS>
1  26  8
1  31  8
22  10  6
11  20  8
11  31  8
28  12  5
13  51  8
13  52  8
2  50  8
2  52  8
20  26  8
33  36  8
33  37  8
35  41  8
35  42  8
36  43  8
37  44  8
23  4  6
41  46  8
42  47  8
43  45  8
44  45  8
46  48  8
47  48  8
50  51  8
19  9  6
$$$$
