515811
  -OEChem-10302200282D
 93 96  0     1  0  0  0  0  0999 V2000
    4.5981   -3.5000    0.0000 O   0  0  0  0  0  0  0  0  0  0  0  0
    5.4641   -1.0000    0.0000 O   0  0  0  0  0  0  0  0  0  0  0  0
    8.0622   -0.5000    0.0000 O   0  0  0  0  0  0  0  0  0  0  0  0
    6.3301   -0.5000    0.0000 O   0  0  0  0  0  0  0  0  0  0  0  0
    4.5981    2.5000    0.0000 O   0  0  0  0  0  0  0  0  0  0  0  0
   10.8769    0.7024    0.0000 O   0  0  0  0  0  0  0  0  0  0  0  0
    3.7320   -1.0000    0.0000 N   0  0  0  0  0  0  0  0  0  0  0  0
    7.1962   -2.0000    0.0000 N   0  0  0  0  0  0  0  0  0  0  0  0
    5.4641    1.0000    0.0000 N   0  0  0  0  0  0  0  0  0  0  0  0
    6.3301    2.5000    0.0000 N   0  0  0  0  0  0  0  0  0  0  0  0
    7.1962    5.0000    0.0000 N   0  0  0  0  0  0  0  0  0  0  0  0
    3.7320   -2.0000    0.0000 C   0  0  2  0  0  0  0  0  0  0  0  0
    4.5981   -2.5000    0.0000 C   0  0  2  0  0  0  0  0  0  0  0  0
    5.4641   -2.0000    0.0000 C   0  0  0  0  0  0  0  0  0  0  0  0
    6.3301   -2.5000    0.0000 C   0  0  2  0  0  0  0  0  0  0  0  0
    2.8660   -2.5000    0.0000 C   0  0  0  0  0  0  0  0  0  0  0  0
    6.3301   -3.5000    0.0000 C   0  0  0  0  0  0  0  0  0  0  0  0
    4.5981    0.5000    0.0000 C   0  0  2  0  0  0  0  0  0  0  0  0
    4.5981   -0.5000    0.0000 C   0  0  0  0  0  0  0  0  0  0  0  0
    3.7320    1.0000    0.0000 C   0  0  0  0  0  0  0  0  0  0  0  0
    2.8660   -3.5000    0.0000 C   0  0  0  0  0  0  0  0  0  0  0  0
    7.1962   -4.0000    0.0000 C   0  0  0  0  0  0  0  0  0  0  0  0
    3.7320    2.0000    0.0000 C   0  0  0  0  0  0  0  0  0  0  0  0
    2.8660    0.5000    0.0000 C   0  0  0  0  0  0  0  0  0  0  0  0
    2.0000   -4.0000    0.0000 C   0  0  0  0  0  0  0  0  0  0  0  0
    3.7320   -4.0000    0.0000 C   0  0  0  0  0  0  0  0  0  0  0  0
    7.1962   -1.0000    0.0000 C   0  0  0  0  0  0  0  0  0  0  0  0
    8.0622   -3.5000    0.0000 C   0  0  0  0  0  0  0  0  0  0  0  0
    7.1962   -5.0000    0.0000 C   0  0  0  0  0  0  0  0  0  0  0  0
    5.4641    2.0000    0.0000 C   0  0  0  0  0  0  0  0  0  0  0  0
    2.0000   -5.0000    0.0000 C   0  0  0  0  0  0  0  0  0  0  0  0
    3.7320   -5.0000    0.0000 C   0  0  0  0  0  0  0  0  0  0  0  0
    2.8660   -5.5000    0.0000 C   0  0  0  0  0  0  0  0  0  0  0  0
    8.9282   -4.0000    0.0000 C   0  0  0  0  0  0  0  0  0  0  0  0
    8.0622   -5.5000    0.0000 C   0  0  0  0  0  0  0  0  0  0  0  0
    8.9282   -5.0000    0.0000 C   0  0  0  0  0  0  0  0  0  0  0  0
    6.3301    3.5000    0.0000 C   0  0  0  0  0  0  0  0  0  0  0  0
    7.1962    2.0000    0.0000 C   0  0  0  0  0  0  0  0  0  0  0  0
    8.9282   -1.0000    0.0000 C   0  0  0  0  0  0  0  0  0  0  0  0
    7.1962    4.0000    0.0000 C   0  0  0  0  0  0  0  0  0  0  0  0
    9.7942   -0.5000    0.0000 C   0  0  0  0  0  0  0  0  0  0  0  0
    8.0622    3.5000    0.0000 C   0  0  0  0  0  0  0  0  0  0  0  0
   10.7078   -0.9067    0.0000 C   0  0  0  0  0  0  0  0  0  0  0  0
    9.8988    0.4945    0.0000 C   0  0  0  0  0  0  0  0  0  0  0  0
    8.9282    4.0000    0.0000 C   0  0  0  0  0  0  0  0  0  0  0  0
   11.3769   -0.1636    0.0000 C   0  0  0  0  0  0  0  0  0  0  0  0
    8.0622    5.5000    0.0000 C   0  0  0  0  0  0  0  0  0  0  0  0
    8.9282    5.0000    0.0000 C   0  0  0  0  0  0  0  0  0  0  0  0
    4.2690   -1.6900    0.0000 H   0  0  0  0  0  0  0  0  0  0  0  0
    5.1350   -2.8100    0.0000 H   0  0  0  0  0  0  0  0  0  0  0  0
    5.8626   -1.5250    0.0000 H   0  0  0  0  0  0  0  0  0  0  0  0
    5.0656   -1.5250    0.0000 H   0  0  0  0  0  0  0  0  0  0  0  0
    6.8671   -2.8100    0.0000 H   0  0  0  0  0  0  0  0  0  0  0  0
    2.6540   -1.9174    0.0000 H   0  0  0  0  0  0  0  0  0  0  0  0
    2.2554   -2.6077    0.0000 H   0  0  0  0  0  0  0  0  0  0  0  0
    3.1951   -0.6900    0.0000 H   0  0  0  0  0  0  0  0  0  0  0  0
    5.7196   -3.3923    0.0000 H   0  0  0  0  0  0  0  0  0  0  0  0
    6.1181   -4.0826    0.0000 H   0  0  0  0  0  0  0  0  0  0  0  0
    4.5981    1.1200    0.0000 H   0  0  0  0  0  0  0  0  0  0  0  0
    3.7320    0.3800    0.0000 H   0  0  0  0  0  0  0  0  0  0  0  0
    7.7331   -2.3100    0.0000 H   0  0  0  0  0  0  0  0  0  0  0  0
    5.1350   -3.8100    0.0000 H   0  0  0  0  0  0  0  0  0  0  0  0
    6.0010    0.6900    0.0000 H   0  0  0  0  0  0  0  0  0  0  0  0
    4.3520    2.0000    0.0000 H   0  0  0  0  0  0  0  0  0  0  0  0
    3.7320    2.6200    0.0000 H   0  0  0  0  0  0  0  0  0  0  0  0
    3.1120    2.0000    0.0000 H   0  0  0  0  0  0  0  0  0  0  0  0
    2.5560    1.0369    0.0000 H   0  0  0  0  0  0  0  0  0  0  0  0
    2.3291    0.1900    0.0000 H   0  0  0  0  0  0  0  0  0  0  0  0
    3.1760   -0.0369    0.0000 H   0  0  0  0  0  0  0  0  0  0  0  0
    1.4631   -3.6900    0.0000 H   0  0  0  0  0  0  0  0  0  0  0  0
    4.2690   -3.6900    0.0000 H   0  0  0  0  0  0  0  0  0  0  0  0
    8.0622   -2.8800    0.0000 H   0  0  0  0  0  0  0  0  0  0  0  0
    6.6592   -5.3100    0.0000 H   0  0  0  0  0  0  0  0  0  0  0  0
    1.4631   -5.3100    0.0000 H   0  0  0  0  0  0  0  0  0  0  0  0
    4.2690   -5.3100    0.0000 H   0  0  0  0  0  0  0  0  0  0  0  0
    2.8660   -6.1200    0.0000 H   0  0  0  0  0  0  0  0  0  0  0  0
    9.4651   -3.6900    0.0000 H   0  0  0  0  0  0  0  0  0  0  0  0
    8.0622   -6.1200    0.0000 H   0  0  0  0  0  0  0  0  0  0  0  0
    9.4651   -5.3100    0.0000 H   0  0  0  0  0  0  0  0  0  0  0  0
    6.1181    4.0826    0.0000 H   0  0  0  0  0  0  0  0  0  0  0  0
    5.7196    3.3923    0.0000 H   0  0  0  0  0  0  0  0  0  0  0  0
    6.8862    1.4631    0.0000 H   0  0  0  0  0  0  0  0  0  0  0  0
    7.7331    1.6900    0.0000 H   0  0  0  0  0  0  0  0  0  0  0  0
    7.5062    2.5369    0.0000 H   0  0  0  0  0  0  0  0  0  0  0  0
    8.5297   -1.4750    0.0000 H   0  0  0  0  0  0  0  0  0  0  0  0
    9.3267   -1.4750    0.0000 H   0  0  0  0  0  0  0  0  0  0  0  0
    8.0622    2.8800    0.0000 H   0  0  0  0  0  0  0  0  0  0  0  0
   10.8367   -1.5132    0.0000 H   0  0  0  0  0  0  0  0  0  0  0  0
    9.4380    0.9094    0.0000 H   0  0  0  0  0  0  0  0  0  0  0  0
    9.4651    3.6900    0.0000 H   0  0  0  0  0  0  0  0  0  0  0  0
   11.9935   -0.2284    0.0000 H   0  0  0  0  0  0  0  0  0  0  0  0
    8.0622    6.1200    0.0000 H   0  0  0  0  0  0  0  0  0  0  0  0
    9.4651    5.3100    0.0000 H   0  0  0  0  0  0  0  0  0  0  0  0
 13  1  1  6  0  0  0
  1 62  1  0  0  0  0
  2 19  2  0  0  0  0
  3 27  1  0  0  0  0
  3 39  1  0  0  0  0
  4 27  2  0  0  0  0
  5 30  2  0  0  0  0
  6 44  1  0  0  0  0
  6 46  1  0  0  0  0
 12  7  1  6  0  0  0
  7 19  1  0  0  0  0
  7 56  1  0  0  0  0
 15  8  1  1  0  0  0
  8 27  1  0  0  0  0
  8 61  1  0  0  0  0
 18  9  1  6  0  0  0
  9 30  1  0  0  0  0
  9 63  1  0  0  0  0
 10 30  1  0  0  0  0
 10 37  1  0  0  0  0
 10 38  1  0  0  0  0
 11 40  1  0  0  0  0
 11 47  2  0  0  0  0
 12 13  1  0  0  0  0
 12 16  1  0  0  0  0
 12 49  1  0  0  0  0
 13 14  1  0  0  0  0
 13 50  1  0  0  0  0
 14 15  1  0  0  0  0
 14 51  1  0  0  0  0
 14 52  1  0  0  0  0
 15 17  1  0  0  0  0
 15 53  1  0  0  0  0
 16 21  1  0  0  0  0
 16 54  1  0  0  0  0
 16 55  1  0  0  0  0
 17 22  1  0  0  0  0
 17 57  1  0  0  0  0
 17 58  1  0  0  0  0
 18 19  1  0  0  0  0
 18 20  1  0  0  0  0
 18 59  1  0  0  0  0
 20 23  1  0  0  0  0
 20 24  1  0  0  0  0
 20 60  1  0  0  0  0
 21 25  2  0  0  0  0
 21 26  1  0  0  0  0
 22 28  2  0  0  0  0
 22 29  1  0  0  0  0
 23 64  1  0  0  0  0
 23 65  1  0  0  0  0
 23 66  1  0  0  0  0
 24 67  1  0  0  0  0
 24 68  1  0  0  0  0
 24 69  1  0  0  0  0
 25 31  1  0  0  0  0
 25 70  1  0  0  0  0
 26 32  2  0  0  0  0
 26 71  1  0  0  0  0
 28 34  1  0  0  0  0
 28 72  1  0  0  0  0
 29 35  2  0  0  0  0
 29 73  1  0  0  0  0
 31 33  2  0  0  0  0
 31 74  1  0  0  0  0
 32 33  1  0  0  0  0
 32 75  1  0  0  0  0
 33 76  1  0  0  0  0
 34 36  2  0  0  0  0
 34 77  1  0  0  0  0
 35 36  1  0  0  0  0
 35 78  1  0  0  0  0
 36 79  1  0  0  0  0
 37 40  1  0  0  0  0
 37 80  1  0  0  0  0
 37 81  1  0  0  0  0
 38 82  1  0  0  0  0
 38 83  1  0  0  0  0
 38 84  1  0  0  0  0
 39 41  1  0  0  0  0
 39 85  1  0  0  0  0
 39 86  1  0  0  0  0
 40 42  2  0  0  0  0
 41 43  1  0  0  0  0
 41 44  2  0  0  0  0
 42 45  1  0  0  0  0
 42 87  1  0  0  0  0
 43 46  2  0  0  0  0
 43 88  1  0  0  0  0
 44 89  1  0  0  0  0
 45 48  2  0  0  0  0
 45 90  1  0  0  0  0
 46 91  1  0  0  0  0
 47 48  1  0  0  0  0
 47 92  1  0  0  0  0
 48 93  1  0  0  0  0
M  END
> <PUBCHEM_COMPOUND_CID>
515811
> <PUBCHEM_COMPOUND_CANONICALIZED>
1
> <PUBCHEM_CACTVS_COMPLEXITY>
972
> <PUBCHEM_CACTVS_HBOND_ACCEPTOR>
7
> <PUBCHEM_CACTVS_HBOND_DONOR>
4
> <PUBCHEM_CACTVS_ROTATABLE_BOND>
17
> <PUBCHEM_CACTVS_SUBSKEYS>
AAADcfB/uAAAAAAAAAAAAAAAAAAAASAAAAA8YIAAAAAAAAAB9AAAHgAQCAAADTzhngY/jJPIFkCoAz133ACCiCA1IiAI2KG+bNmOd/bEtbueeSjv9hPY6YfSwPAOAAAAAAAAAAAAAAAAAAAAAAAAAAAAAA==
> <PUBCHEM_IUPAC_OPENEYE_NAME>
3-furylmethyl N-[(1S,3S,4S)-1-benzyl-3-hydroxy-4-[[(2S)-3-methyl-2-[[methyl(2-pyridylmethyl)carbamoyl]amino]butanoyl]amino]-5-phenyl-pentyl]carbamate
> <PUBCHEM_IUPAC_CAS_NAME>
N-[(2S,4S,5S)-4-hydroxy-5-[[(2S)-3-methyl-2-[[[methyl(2-pyridinylmethyl)amino]-oxomethyl]amino]-1-oxobutyl]amino]-1,6-diphenylhexan-2-yl]carbamic acid 3-furanylmethyl ester
> <PUBCHEM_IUPAC_NAME_MARKUP>
furan-3-ylmethyl <I>N</I>-[(2<I>S</I>,4<I>S</I>,5<I>S</I>)-4-hydroxy-5-[[(2<I>S</I>)-3-methyl-2-[[methyl(pyridin-2-ylmethyl)carbamoyl]amino]butanoyl]amino]-1,6-diphenylhexan-2-yl]carbamate
> <PUBCHEM_IUPAC_NAME>
furan-3-ylmethyl N-[(2S,4S,5S)-4-hydroxy-5-[[(2S)-3-methyl-2-[[methyl(pyridin-2-ylmethyl)carbamoyl]amino]butanoyl]amino]-1,6-diphenylhexan-2-yl]carbamate
> <PUBCHEM_IUPAC_SYSTEMATIC_NAME>
furan-3-ylmethyl N-[(2S,4S,5S)-5-[[(2S)-3-methyl-2-[[methyl(pyridin-2-ylmethyl)carbamoyl]amino]butanoyl]amino]-4-oxidanyl-1,6-diphenyl-hexan-2-yl]carbamate
> <PUBCHEM_IUPAC_TRADITIONAL_NAME>
N-[(1S,3S,4S)-1-benzyl-3-hydroxy-4-[[(2S)-3-methyl-2-[[methyl(2-pyridylmethyl)carbamoyl]amino]butanoyl]amino]-5-phenyl-pentyl]carbamic acid 3-furfuryl ester
> <PUBCHEM_IUPAC_INCHI>
InChI=1S/C37H45N5O6/c1-26(2)34(41-36(45)42(3)23-30-16-10-11-18-38-30)35(44)40-32(21-28-14-8-5-9-15-28)33(43)22-31(20-27-12-6-4-7-13-27)39-37(46)48-25-29-17-19-47-24-29/h4-19,24,26,31-34,43H,20-23,25H2,1-3H3,(H,39,46)(H,40,44)(H,41,45)/t31-,32-,33-,34-/m0/s1
> <PUBCHEM_IUPAC_INCHIKEY>
ILNDFDLDONFHSM-CUPIEXAXSA-N
> <PUBCHEM_XLOGP3_AA>
4.8
> <PUBCHEM_EXACT_MASS>
655.33698417
> <PUBCHEM_MOLECULAR_FORMULA>
C37H45N5O6
> <PUBCHEM_MOLECULAR_WEIGHT>
655.8
> <PUBCHEM_OPENEYE_CAN_SMILES>
CC(C)C(C(=O)NC(CC1=CC=CC=C1)C(CC(CC2=CC=CC=C2)NC(=O)OCC3=COC=C3)O)NC(=O)N(C)CC4=CC=CC=N4
> <PUBCHEM_OPENEYE_ISO_SMILES>
CC(C)[C@@H](C(=O)N[C@@H](CC1=CC=CC=C1)[C@H](C[C@H](CC2=CC=CC=C2)NC(=O)OCC3=COC=C3)O)NC(=O)N(C)CC4=CC=CC=N4
> <PUBCHEM_CACTVS_TPSA>
146
> <PUBCHEM_MONOISOTOPIC_WEIGHT>
655.33698417
> <PUBCHEM_TOTAL_CHARGE>
0
> <PUBCHEM_HEAVY_ATOM_COUNT>
48
> <PUBCHEM_ATOM_DEF_STEREO_COUNT>
4
> <PUBCHEM_ATOM_UDEF_STEREO_COUNT>
0
> <PUBCHEM_BOND_DEF_STEREO_COUNT>
0
> <PUBCHEM_BOND_UDEF_STEREO_COUNT>
0
> <PUBCHEM_ISOTOPIC_ATOM_COUNT>
0
> <PUBCHEM_COMPONENT_COUNT>
1
> <PUBCHEM_CACTVS_TAUTO_COUNT>
-1
> <PUBCHEM_COORDINATE_TYPE>
1
5
255
> <PUBCHEM_BONDANNOTATIONS>
13  1  6
11  40  8
11  47  8
21  25  8
21  26  8
22  28  8
22  29  8
25  31  8
26  32  8
28  34  8
29  35  8
31  33  8
32  33  8
34  36  8
35  36  8
40  42  8
41  43  8
41  44  8
42  45  8
43  46  8
45  48  8
47  48  8
6  44  8
6  46  8
12  7  6
15  8  5
18  9  6
$$$$
