515881
  -OEChem-10302200282D
 87 93  0     1  0  0  0  0  0999 V2000
    4.7401    3.7660    0.0000 O   0  0  0  0  0  0  0  0  0  0  0  0
    4.0577    2.0273    0.0000 O   0  0  0  0  0  0  0  0  0  0  0  0
    8.2077    1.4018    0.0000 O   0  0  0  0  0  0  0  0  0  0  0  0
    7.0426   -3.4684    0.0000 O   0  0  0  0  0  0  0  0  0  0  0  0
    7.2021    2.7644    0.0000 N   0  0  0  0  0  0  0  0  0  0  0  0
    6.5438    1.0870    0.0000 N   0  0  0  0  0  0  0  0  0  0  0  0
   11.6124    1.4596    0.0000 N   0  0  0  0  0  0  0  0  0  0  0  0
   12.1960    2.2644    0.0000 N   0  0  0  0  0  0  0  0  0  0  0  0
    5.6823   -4.9345    0.0000 N   0  0  0  0  0  0  0  0  0  0  0  0
    5.0824   -5.7346    0.0000 N   0  0  0  0  0  0  0  0  0  0  0  0
    6.3758    3.3277    0.0000 C   0  0  1  0  0  0  0  0  0  0  0  0
    5.5549    1.2360    0.0000 C   0  0  1  0  0  0  0  0  0  0  0  0
    5.4203    3.0329    0.0000 C   0  0  1  0  0  0  0  0  0  0  0  0
    5.0549    2.1021    0.0000 C   0  0  1  0  0  0  0  0  0  0  0  0
    6.5249    4.3165    0.0000 C   0  0  0  0  0  0  0  0  0  0  0  0
    4.9916    0.4098    0.0000 C   0  0  0  0  0  0  0  0  0  0  0  0
    7.2768    1.7672    0.0000 C   0  0  0  0  0  0  0  0  0  0  0  0
    8.0681    3.2644    0.0000 C   0  0  0  0  0  0  0  0  0  0  0  0
    6.8385    0.1314    0.0000 C   0  0  0  0  0  0  0  0  0  0  0  0
    5.7431    4.9400    0.0000 C   0  0  0  0  0  0  0  0  0  0  0  0
    3.9944    0.4845    0.0000 C   0  0  0  0  0  0  0  0  0  0  0  0
    8.9341    2.7644    0.0000 C   0  0  0  0  0  0  0  0  0  0  0  0
    6.1583   -0.6016    0.0000 C   0  0  0  0  0  0  0  0  0  0  0  0
    4.8122    4.5747    0.0000 C   0  0  0  0  0  0  0  0  0  0  0  0
    5.8921    5.9288    0.0000 C   0  0  0  0  0  0  0  0  0  0  0  0
    3.4311   -0.3417    0.0000 C   0  0  0  0  0  0  0  0  0  0  0  0
    3.5605    1.3855    0.0000 C   0  0  0  0  0  0  0  0  0  0  0  0
    9.8002    3.2644    0.0000 C   0  0  0  0  0  0  0  0  0  0  0  0
    8.9341    1.7644    0.0000 C   0  0  0  0  0  0  0  0  0  0  0  0
    6.4531   -1.5572    0.0000 C   0  0  0  0  0  0  0  0  0  0  0  0
    5.1834   -0.3791    0.0000 C   0  0  0  0  0  0  0  0  0  0  0  0
   10.6662    2.7644    0.0000 C   0  0  0  0  0  0  0  0  0  0  0  0
    4.0304    5.1982    0.0000 C   0  0  0  0  0  0  0  0  0  0  0  0
    5.1103    6.5523    0.0000 C   0  0  0  0  0  0  0  0  0  0  0  0
    2.4339   -0.2670    0.0000 C   0  0  0  0  0  0  0  0  0  0  0  0
    2.5633    1.4602    0.0000 C   0  0  0  0  0  0  0  0  0  0  0  0
    9.8002    1.2644    0.0000 C   0  0  0  0  0  0  0  0  0  0  0  0
    5.7729   -2.2903    0.0000 C   0  0  0  0  0  0  0  0  0  0  0  0
   10.6662    1.7644    0.0000 C   0  0  0  0  0  0  0  0  0  0  0  0
    4.5032   -1.1122    0.0000 C   0  0  0  0  0  0  0  0  0  0  0  0
    4.1794    6.1870    0.0000 C   0  0  0  0  0  0  0  0  0  0  0  0
    2.0000    0.6340    0.0000 C   0  0  0  0  0  0  0  0  0  0  0  0
    4.7980   -2.0678    0.0000 C   0  0  0  0  0  0  0  0  0  0  0  0
   11.6124    3.0691    0.0000 C   0  0  0  0  0  0  0  0  0  0  0  0
    6.0677   -3.2458    0.0000 C   0  0  0  0  0  0  0  0  0  0  0  0
    5.3875   -3.9789    0.0000 C   0  0  0  0  0  0  0  0  0  0  0  0
    6.6286   -5.2577    0.0000 C   0  0  0  0  0  0  0  0  0  0  0  0
    6.6136   -6.2576    0.0000 C   0  0  0  0  0  0  0  0  0  0  0  0
    5.6581   -6.5523    0.0000 C   0  0  0  0  0  0  0  0  0  0  0  0
    6.9441    3.5756    0.0000 H   0  0  0  0  0  0  0  0  0  0  0  0
    5.8029    0.6678    0.0000 H   0  0  0  0  0  0  0  0  0  0  0  0
    4.8111    2.9177    0.0000 H   0  0  0  0  0  0  0  0  0  0  0  0
    4.7652    1.5539    0.0000 H   0  0  0  0  0  0  0  0  0  0  0  0
    7.1126    4.1190    0.0000 H   0  0  0  0  0  0  0  0  0  0  0  0
    6.8214    4.8610    0.0000 H   0  0  0  0  0  0  0  0  0  0  0  0
    4.8386   -0.1910    0.0000 H   0  0  0  0  0  0  0  0  0  0  0  0
    5.5568    0.1548    0.0000 H   0  0  0  0  0  0  0  0  0  0  0  0
    8.4666    3.7393    0.0000 H   0  0  0  0  0  0  0  0  0  0  0  0
    7.6696    3.7393    0.0000 H   0  0  0  0  0  0  0  0  0  0  0  0
    7.2129   -0.3628    0.0000 H   0  0  0  0  0  0  0  0  0  0  0  0
    7.3902    0.4143    0.0000 H   0  0  0  0  0  0  0  0  0  0  0  0
    4.1356    3.6280    0.0000 H   0  0  0  0  0  0  0  0  0  0  0  0
    3.7085    2.5396    0.0000 H   0  0  0  0  0  0  0  0  0  0  0  0
    4.7198    3.9616    0.0000 H   0  0  0  0  0  0  0  0  0  0  0  0
    6.4692    6.1553    0.0000 H   0  0  0  0  0  0  0  0  0  0  0  0
    3.7001   -0.9003    0.0000 H   0  0  0  0  0  0  0  0  0  0  0  0
    3.9098    1.8978    0.0000 H   0  0  0  0  0  0  0  0  0  0  0  0
    9.8002    3.8844    0.0000 H   0  0  0  0  0  0  0  0  0  0  0  0
    8.3972    1.4544    0.0000 H   0  0  0  0  0  0  0  0  0  0  0  0
    7.0576   -1.6952    0.0000 H   0  0  0  0  0  0  0  0  0  0  0  0
    5.0007    0.2133    0.0000 H   0  0  0  0  0  0  0  0  0  0  0  0
    3.4532    4.9716    0.0000 H   0  0  0  0  0  0  0  0  0  0  0  0
    5.2027    7.1654    0.0000 H   0  0  0  0  0  0  0  0  0  0  0  0
    2.0846   -0.7793    0.0000 H   0  0  0  0  0  0  0  0  0  0  0  0
    2.2943    2.0188    0.0000 H   0  0  0  0  0  0  0  0  0  0  0  0
    9.8002    0.6444    0.0000 H   0  0  0  0  0  0  0  0  0  0  0  0
    3.8988   -0.9742    0.0000 H   0  0  0  0  0  0  0  0  0  0  0  0
    3.6947    6.5735    0.0000 H   0  0  0  0  0  0  0  0  0  0  0  0
    1.3817    0.6803    0.0000 H   0  0  0  0  0  0  0  0  0  0  0  0
    4.3763   -2.5222    0.0000 H   0  0  0  0  0  0  0  0  0  0  0  0
   11.8050    3.6584    0.0000 H   0  0  0  0  0  0  0  0  0  0  0  0
   11.8050    0.8703    0.0000 H   0  0  0  0  0  0  0  0  0  0  0  0
    5.0132   -3.4847    0.0000 H   0  0  0  0  0  0  0  0  0  0  0  0
    4.8358   -4.2617    0.0000 H   0  0  0  0  0  0  0  0  0  0  0  0
    7.1356   -4.9008    0.0000 H   0  0  0  0  0  0  0  0  0  0  0  0
    7.1097   -6.6294    0.0000 H   0  0  0  0  0  0  0  0  0  0  0  0
    5.4577   -7.1390    0.0000 H   0  0  0  0  0  0  0  0  0  0  0  0
 13  1  1  1  0  0  0
  1 62  1  0  0  0  0
 14  2  1  6  0  0  0
  2 63  1  0  0  0  0
  3 17  2  0  0  0  0
  4 45  2  0  0  0  0
  5 11  1  0  0  0  0
  5 17  1  0  0  0  0
  5 18  1  0  0  0  0
  6 12  1  0  0  0  0
  6 17  1  0  0  0  0
  6 19  1  0  0  0  0
  7  8  1  0  0  0  0
  7 39  1  0  0  0  0
  7 82  1  0  0  0  0
  8 44  2  0  0  0  0
  9 10  1  0  0  0  0
  9 46  1  0  0  0  0
  9 47  1  0  0  0  0
 10 49  2  0  0  0  0
 11 13  1  0  0  0  0
 11 15  1  1  0  0  0
 11 50  1  0  0  0  0
 12 14  1  0  0  0  0
 12 16  1  6  0  0  0
 12 51  1  0  0  0  0
 13 14  1  0  0  0  0
 13 52  1  0  0  0  0
 14 53  1  0  0  0  0
 15 20  1  0  0  0  0
 15 54  1  0  0  0  0
 15 55  1  0  0  0  0
 16 21  1  0  0  0  0
 16 56  1  0  0  0  0
 16 57  1  0  0  0  0
 18 22  1  0  0  0  0
 18 58  1  0  0  0  0
 18 59  1  0  0  0  0
 19 23  1  0  0  0  0
 19 60  1  0  0  0  0
 19 61  1  0  0  0  0
 20 24  2  0  0  0  0
 20 25  1  0  0  0  0
 21 26  2  0  0  0  0
 21 27  1  0  0  0  0
 22 28  2  0  0  0  0
 22 29  1  0  0  0  0
 23 30  2  0  0  0  0
 23 31  1  0  0  0  0
 24 33  1  0  0  0  0
 24 64  1  0  0  0  0
 25 34  2  0  0  0  0
 25 65  1  0  0  0  0
 26 35  1  0  0  0  0
 26 66  1  0  0  0  0
 27 36  2  0  0  0  0
 27 67  1  0  0  0  0
 28 32  1  0  0  0  0
 28 68  1  0  0  0  0
 29 37  2  0  0  0  0
 29 69  1  0  0  0  0
 30 38  1  0  0  0  0
 30 70  1  0  0  0  0
 31 40  2  0  0  0  0
 31 71  1  0  0  0  0
 32 39  2  0  0  0  0
 32 44  1  0  0  0  0
 33 41  2  0  0  0  0
 33 72  1  0  0  0  0
 34 41  1  0  0  0  0
 34 73  1  0  0  0  0
 35 42  2  0  0  0  0
 35 74  1  0  0  0  0
 36 42  1  0  0  0  0
 36 75  1  0  0  0  0
 37 39  1  0  0  0  0
 37 76  1  0  0  0  0
 38 43  2  0  0  0  0
 38 45  1  0  0  0  0
 40 43  1  0  0  0  0
 40 77  1  0  0  0  0
 41 78  1  0  0  0  0
 42 79  1  0  0  0  0
 43 80  1  0  0  0  0
 44 81  1  0  0  0  0
 45 46  1  0  0  0  0
 46 83  1  0  0  0  0
 46 84  1  0  0  0  0
 47 48  2  0  0  0  0
 47 85  1  0  0  0  0
 48 49  1  0  0  0  0
 48 86  1  0  0  0  0
 49 87  1  0  0  0  0
M  END
> <PUBCHEM_COMPOUND_CID>
515881
> <PUBCHEM_COMPOUND_CANONICALIZED>
1
> <PUBCHEM_CACTVS_COMPLEXITY>
1080
> <PUBCHEM_CACTVS_HBOND_ACCEPTOR>
6
> <PUBCHEM_CACTVS_HBOND_DONOR>
3
> <PUBCHEM_CACTVS_ROTATABLE_BOND>
11
> <PUBCHEM_CACTVS_SUBSKEYS>
AAADcfB/uAAAAAAAAAAAAAAAAAAAAWLAAAAwYMGABYAAAFgB/AAAHgAYCAAADDzhngY9wPNrAgCqA7R3VACSBAA1ggAY+SG4ZNiLMLLA1fGE5QhungLZyYeYyfCOCAACAAACAAAQAAQAAAQAAAAAAAAAAA==
> <PUBCHEM_IUPAC_OPENEYE_NAME>
(4R,5S,6S,7R)-4,7-dibenzyl-5,6-dihydroxy-1-(1H-indazol-5-ylmethyl)-3-[[3-(2-pyrazol-1-ylacetyl)phenyl]methyl]-1,3-diazepan-2-one
> <PUBCHEM_IUPAC_CAS_NAME>
(4R,5S,6S,7R)-5,6-dihydroxy-1-(1H-indazol-5-ylmethyl)-3-[[3-[1-oxo-2-(1-pyrazolyl)ethyl]phenyl]methyl]-4,7-bis(phenylmethyl)-1,3-diazepan-2-one
> <PUBCHEM_IUPAC_NAME_MARKUP>
(4<I>R</I>,5<I>S</I>,6<I>S</I>,7<I>R</I>)-4,7-dibenzyl-5,6-dihydroxy-1-(1<I>H</I>-indazol-5-ylmethyl)-3-[[3-(2-pyrazol-1-ylacetyl)phenyl]methyl]-1,3-diazepan-2-one
> <PUBCHEM_IUPAC_NAME>
(4R,5S,6S,7R)-4,7-dibenzyl-5,6-dihydroxy-1-(1H-indazol-5-ylmethyl)-3-[[3-(2-pyrazol-1-ylacetyl)phenyl]methyl]-1,3-diazepan-2-one
> <PUBCHEM_IUPAC_SYSTEMATIC_NAME>
(4R,5S,6S,7R)-1-(1H-indazol-5-ylmethyl)-5,6-bis(oxidanyl)-4,7-bis(phenylmethyl)-3-[[3-(2-pyrazol-1-ylethanoyl)phenyl]methyl]-1,3-diazepan-2-one
> <PUBCHEM_IUPAC_TRADITIONAL_NAME>
(4R,5S,6S,7R)-4,7-dibenzyl-5,6-dihydroxy-1-(1H-indazol-5-ylmethyl)-3-[3-(2-pyrazol-1-ylacetyl)benzyl]-1,3-diazepan-2-one
> <PUBCHEM_IUPAC_INCHI>
InChI=1S/C39H38N6O4/c46-36(26-43-18-8-17-41-43)31-14-7-13-29(19-31)24-44-34(21-27-9-3-1-4-10-27)37(47)38(48)35(22-28-11-5-2-6-12-28)45(39(44)49)25-30-15-16-33-32(20-30)23-40-42-33/h1-20,23,34-35,37-38,47-48H,21-22,24-26H2,(H,40,42)/t34-,35-,37+,38+/m1/s1
> <PUBCHEM_IUPAC_INCHIKEY>
BKKQECSJRDVDJZ-PASMDFPHSA-N
> <PUBCHEM_XLOGP3_AA>
4.8
> <PUBCHEM_EXACT_MASS>
654.29545371
> <PUBCHEM_MOLECULAR_FORMULA>
C39H38N6O4
> <PUBCHEM_MOLECULAR_WEIGHT>
654.8
> <PUBCHEM_OPENEYE_CAN_SMILES>
C1=CC=C(C=C1)CC2C(C(C(N(C(=O)N2CC3=CC(=CC=C3)C(=O)CN4C=CC=N4)CC5=CC6=C(C=C5)NN=C6)CC7=CC=CC=C7)O)O
> <PUBCHEM_OPENEYE_ISO_SMILES>
C1=CC=C(C=C1)C[C@@H]2[C@@H]([C@H]([C@H](N(C(=O)N2CC3=CC(=CC=C3)C(=O)CN4C=CC=N4)CC5=CC6=C(C=C5)NN=C6)CC7=CC=CC=C7)O)O
> <PUBCHEM_CACTVS_TPSA>
128
> <PUBCHEM_MONOISOTOPIC_WEIGHT>
654.29545371
> <PUBCHEM_TOTAL_CHARGE>
0
> <PUBCHEM_HEAVY_ATOM_COUNT>
49
> <PUBCHEM_ATOM_DEF_STEREO_COUNT>
4
> <PUBCHEM_ATOM_UDEF_STEREO_COUNT>
0
> <PUBCHEM_BOND_DEF_STEREO_COUNT>
0
> <PUBCHEM_BOND_UDEF_STEREO_COUNT>
0
> <PUBCHEM_ISOTOPIC_ATOM_COUNT>
0
> <PUBCHEM_COMPONENT_COUNT>
1
> <PUBCHEM_CACTVS_TAUTO_COUNT>
-1
> <PUBCHEM_COORDINATE_TYPE>
1
5
255
> <PUBCHEM_BONDANNOTATIONS>
13  1  5
10  49  8
11  15  5
12  16  6
14  2  6
20  24  8
20  25  8
21  26  8
21  27  8
22  28  8
22  29  8
23  30  8
23  31  8
24  33  8
25  34  8
26  35  8
27  36  8
28  32  8
29  37  8
30  38  8
31  40  8
32  39  8
32  44  8
33  41  8
34  41  8
35  42  8
36  42  8
37  39  8
38  43  8
40  43  8
47  48  8
48  49  8
7  39  8
7  8  8
8  44  8
9  10  8
9  47  8
$$$$
