515804
  -OEChem-10302200282D
100103  0     1  0  0  0  0  0999 V2000
    2.8660    0.2500    0.0000 O   0  0  0  0  0  0  0  0  0  0  0  0
    6.3301    0.2500    0.0000 O   0  0  0  0  0  0  0  0  0  0  0  0
    6.3301   -1.7500    0.0000 O   0  0  0  0  0  0  0  0  0  0  0  0
    9.7942    1.2500    0.0000 O   0  0  0  0  0  0  0  0  0  0  0  0
    5.4641   -0.2500    0.0000 O   0  0  0  0  0  0  0  0  0  0  0  0
   13.1090    0.9136    0.0000 O   0  0  0  0  0  0  0  0  0  0  0  0
    8.9282    2.7500    0.0000 O   0  0  0  0  0  0  0  0  0  0  0  0
    5.4641    1.7500    0.0000 N   0  0  0  0  0  0  0  0  0  0  0  0
    4.5981   -1.7500    0.0000 N   0  0  0  0  0  0  0  0  0  0  0  0
    8.0622    1.2500    0.0000 N   0  0  0  0  0  0  0  0  0  0  0  0
   12.4398    1.6567    0.0000 N   0  0  0  0  0  0  0  0  0  0  0  0
    8.9282   -3.2500    0.0000 N   0  0  0  0  0  0  0  0  0  0  0  0
    4.5981    1.2500    0.0000 C   0  0  2  0  0  0  0  0  0  0  0  0
    4.5981    0.2500    0.0000 C   0  0  0  0  0  0  0  0  0  0  0  0
    3.7320   -0.2500    0.0000 C   0  0  1  0  0  0  0  0  0  0  0  0
    3.7320   -1.2500    0.0000 C   0  0  2  0  0  0  0  0  0  0  0  0
    3.7320    1.7500    0.0000 C   0  0  0  0  0  0  0  0  0  0  0  0
    2.8660   -1.7500    0.0000 C   0  0  0  0  0  0  0  0  0  0  0  0
    7.1962    1.7500    0.0000 C   0  0  2  0  0  0  0  0  0  0  0  0
    6.3301    1.2500    0.0000 C   0  0  0  0  0  0  0  0  0  0  0  0
    7.1962    2.7500    0.0000 C   0  0  0  0  0  0  0  0  0  0  0  0
    3.7320    2.7500    0.0000 C   0  0  0  0  0  0  0  0  0  0  0  0
    2.8660   -2.7500    0.0000 C   0  0  0  0  0  0  0  0  0  0  0  0
    8.0622    3.2500    0.0000 C   0  0  0  0  0  0  0  0  0  0  0  0
    6.3301    3.2500    0.0000 C   0  0  0  0  0  0  0  0  0  0  0  0
    2.8660    3.2500    0.0000 C   0  0  0  0  0  0  0  0  0  0  0  0
    4.5981    3.2500    0.0000 C   0  0  0  0  0  0  0  0  0  0  0  0
    5.4641   -1.2500    0.0000 C   0  0  0  0  0  0  0  0  0  0  0  0
    3.7320   -3.2500    0.0000 C   0  0  0  0  0  0  0  0  0  0  0  0
    2.0000   -3.2500    0.0000 C   0  0  0  0  0  0  0  0  0  0  0  0
    2.8660    4.2500    0.0000 C   0  0  0  0  0  0  0  0  0  0  0  0
    4.5981    4.2500    0.0000 C   0  0  0  0  0  0  0  0  0  0  0  0
    8.9282    1.7500    0.0000 C   0  0  0  0  0  0  0  0  0  0  0  0
   13.0157   -0.8660    0.0000 C   0  0  0  0  0  0  0  0  0  0  0  0
    3.7320   -4.2500    0.0000 C   0  0  0  0  0  0  0  0  0  0  0  0
    2.0000   -4.2500    0.0000 C   0  0  0  0  0  0  0  0  0  0  0  0
    3.7320    4.7500    0.0000 C   0  0  0  0  0  0  0  0  0  0  0  0
    2.8660   -4.7500    0.0000 C   0  0  0  0  0  0  0  0  0  0  0  0
   12.6090    0.0476    0.0000 C   0  0  0  0  0  0  0  0  0  0  0  0
   13.4224   -1.7795    0.0000 C   0  0  0  0  0  0  0  0  0  0  0  0
   13.9292   -0.4592    0.0000 C   0  0  0  0  0  0  0  0  0  0  0  0
   12.1021   -1.2727    0.0000 C   0  0  0  0  0  0  0  0  0  0  0  0
   10.6603    1.7500    0.0000 C   0  0  0  0  0  0  0  0  0  0  0  0
    7.1962   -1.2500    0.0000 C   0  0  0  0  0  0  0  0  0  0  0  0
   11.5263    1.2500    0.0000 C   0  0  0  0  0  0  0  0  0  0  0  0
   11.6308    0.2555    0.0000 C   0  0  0  0  0  0  0  0  0  0  0  0
    8.0622   -1.7500    0.0000 C   0  0  0  0  0  0  0  0  0  0  0  0
    8.9282   -1.2500    0.0000 C   0  0  0  0  0  0  0  0  0  0  0  0
    8.0622   -2.7500    0.0000 C   0  0  0  0  0  0  0  0  0  0  0  0
    9.7942   -1.7500    0.0000 C   0  0  0  0  0  0  0  0  0  0  0  0
    9.7942   -2.7500    0.0000 C   0  0  0  0  0  0  0  0  0  0  0  0
    4.5981    1.8700    0.0000 H   0  0  0  0  0  0  0  0  0  0  0  0
    4.8101   -0.3326    0.0000 H   0  0  0  0  0  0  0  0  0  0  0  0
    5.2087    0.3577    0.0000 H   0  0  0  0  0  0  0  0  0  0  0  0
    3.7320    0.3700    0.0000 H   0  0  0  0  0  0  0  0  0  0  0  0
    3.7320   -1.8700    0.0000 H   0  0  0  0  0  0  0  0  0  0  0  0
    3.1215    1.8577    0.0000 H   0  0  0  0  0  0  0  0  0  0  0  0
    3.5200    1.1674    0.0000 H   0  0  0  0  0  0  0  0  0  0  0  0
    2.6540   -1.1674    0.0000 H   0  0  0  0  0  0  0  0  0  0  0  0
    2.2554   -1.8577    0.0000 H   0  0  0  0  0  0  0  0  0  0  0  0
    5.4641    2.3700    0.0000 H   0  0  0  0  0  0  0  0  0  0  0  0
    7.7331    2.0600    0.0000 H   0  0  0  0  0  0  0  0  0  0  0  0
    4.5981   -2.3700    0.0000 H   0  0  0  0  0  0  0  0  0  0  0  0
    6.6592    2.4400    0.0000 H   0  0  0  0  0  0  0  0  0  0  0  0
    2.8660    0.8700    0.0000 H   0  0  0  0  0  0  0  0  0  0  0  0
    8.0622    0.6300    0.0000 H   0  0  0  0  0  0  0  0  0  0  0  0
    8.3722    2.7131    0.0000 H   0  0  0  0  0  0  0  0  0  0  0  0
    8.5991    3.5600    0.0000 H   0  0  0  0  0  0  0  0  0  0  0  0
    7.7522    3.7869    0.0000 H   0  0  0  0  0  0  0  0  0  0  0  0
    6.6401    3.7869    0.0000 H   0  0  0  0  0  0  0  0  0  0  0  0
    5.7932    3.5600    0.0000 H   0  0  0  0  0  0  0  0  0  0  0  0
    6.0201    2.7131    0.0000 H   0  0  0  0  0  0  0  0  0  0  0  0
    2.3291    2.9400    0.0000 H   0  0  0  0  0  0  0  0  0  0  0  0
    5.1350    2.9400    0.0000 H   0  0  0  0  0  0  0  0  0  0  0  0
    4.2690   -2.9400    0.0000 H   0  0  0  0  0  0  0  0  0  0  0  0
    1.4631   -2.9400    0.0000 H   0  0  0  0  0  0  0  0  0  0  0  0
    2.3291    4.5600    0.0000 H   0  0  0  0  0  0  0  0  0  0  0  0
    5.1350    4.5600    0.0000 H   0  0  0  0  0  0  0  0  0  0  0  0
    4.2690   -4.5600    0.0000 H   0  0  0  0  0  0  0  0  0  0  0  0
    1.4631   -4.5600    0.0000 H   0  0  0  0  0  0  0  0  0  0  0  0
    3.7320    5.3700    0.0000 H   0  0  0  0  0  0  0  0  0  0  0  0
    2.8660   -5.3700    0.0000 H   0  0  0  0  0  0  0  0  0  0  0  0
   12.8560   -2.0317    0.0000 H   0  0  0  0  0  0  0  0  0  0  0  0
   13.6746   -2.3459    0.0000 H   0  0  0  0  0  0  0  0  0  0  0  0
   13.9888   -1.5274    0.0000 H   0  0  0  0  0  0  0  0  0  0  0  0
   14.1814   -1.0256    0.0000 H   0  0  0  0  0  0  0  0  0  0  0  0
   14.4956   -0.2071    0.0000 H   0  0  0  0  0  0  0  0  0  0  0  0
   13.6771    0.1072    0.0000 H   0  0  0  0  0  0  0  0  0  0  0  0
   11.8500   -0.7063    0.0000 H   0  0  0  0  0  0  0  0  0  0  0  0
   11.5357   -1.5249    0.0000 H   0  0  0  0  0  0  0  0  0  0  0  0
   12.3543   -1.8391    0.0000 H   0  0  0  0  0  0  0  0  0  0  0  0
   11.0588    2.2250    0.0000 H   0  0  0  0  0  0  0  0  0  0  0  0
   10.2617    2.2250    0.0000 H   0  0  0  0  0  0  0  0  0  0  0  0
    7.5947   -0.7751    0.0000 H   0  0  0  0  0  0  0  0  0  0  0  0
    6.7976   -0.7751    0.0000 H   0  0  0  0  0  0  0  0  0  0  0  0
   11.1701   -0.1594    0.0000 H   0  0  0  0  0  0  0  0  0  0  0  0
    8.9282   -0.6300    0.0000 H   0  0  0  0  0  0  0  0  0  0  0  0
    7.5252   -3.0600    0.0000 H   0  0  0  0  0  0  0  0  0  0  0  0
   10.3312   -1.4400    0.0000 H   0  0  0  0  0  0  0  0  0  0  0  0
   10.3312   -3.0600    0.0000 H   0  0  0  0  0  0  0  0  0  0  0  0
 15  1  1  1  0  0  0
  1 65  1  0  0  0  0
  2 20  2  0  0  0  0
  3 28  1  0  0  0  0
  3 44  1  0  0  0  0
  4 33  1  0  0  0  0
  4 43  1  0  0  0  0
  5 28  2  0  0  0  0
  6 11  1  0  0  0  0
  6 39  1  0  0  0  0
  7 33  2  0  0  0  0
 13  8  1  6  0  0  0
  8 20  1  0  0  0  0
  8 61  1  0  0  0  0
 16  9  1  1  0  0  0
  9 28  1  0  0  0  0
  9 63  1  0  0  0  0
 19 10  1  6  0  0  0
 10 33  1  0  0  0  0
 10 66  1  0  0  0  0
 11 45  2  0  0  0  0
 12 49  1  0  0  0  0
 12 51  2  0  0  0  0
 13 14  1  0  0  0  0
 13 17  1  0  0  0  0
 13 52  1  0  0  0  0
 14 15  1  0  0  0  0
 14 53  1  0  0  0  0
 14 54  1  0  0  0  0
 15 16  1  0  0  0  0
 15 55  1  0  0  0  0
 16 18  1  0  0  0  0
 16 56  1  0  0  0  0
 17 22  1  0  0  0  0
 17 57  1  0  0  0  0
 17 58  1  0  0  0  0
 18 23  1  0  0  0  0
 18 59  1  0  0  0  0
 18 60  1  0  0  0  0
 19 20  1  0  0  0  0
 19 21  1  0  0  0  0
 19 62  1  0  0  0  0
 21 24  1  0  0  0  0
 21 25  1  0  0  0  0
 21 64  1  0  0  0  0
 22 26  2  0  0  0  0
 22 27  1  0  0  0  0
 23 29  2  0  0  0  0
 23 30  1  0  0  0  0
 24 67  1  0  0  0  0
 24 68  1  0  0  0  0
 24 69  1  0  0  0  0
 25 70  1  0  0  0  0
 25 71  1  0  0  0  0
 25 72  1  0  0  0  0
 26 31  1  0  0  0  0
 26 73  1  0  0  0  0
 27 32  2  0  0  0  0
 27 74  1  0  0  0  0
 29 35  1  0  0  0  0
 29 75  1  0  0  0  0
 30 36  2  0  0  0  0
 30 76  1  0  0  0  0
 31 37  2  0  0  0  0
 31 77  1  0  0  0  0
 32 37  1  0  0  0  0
 32 78  1  0  0  0  0
 34 39  1  0  0  0  0
 34 40  1  0  0  0  0
 34 41  1  0  0  0  0
 34 42  1  0  0  0  0
 35 38  2  0  0  0  0
 35 79  1  0  0  0  0
 36 38  1  0  0  0  0
 36 80  1  0  0  0  0
 37 81  1  0  0  0  0
 38 82  1  0  0  0  0
 39 46  2  0  0  0  0
 40 83  1  0  0  0  0
 40 84  1  0  0  0  0
 40 85  1  0  0  0  0
 41 86  1  0  0  0  0
 41 87  1  0  0  0  0
 41 88  1  0  0  0  0
 42 89  1  0  0  0  0
 42 90  1  0  0  0  0
 42 91  1  0  0  0  0
 43 45  1  0  0  0  0
 43 92  1  0  0  0  0
 43 93  1  0  0  0  0
 44 47  1  0  0  0  0
 44 94  1  0  0  0  0
 44 95  1  0  0  0  0
 45 46  1  0  0  0  0
 46 96  1  0  0  0  0
 47 48  1  0  0  0  0
 47 49  2  0  0  0  0
 48 50  2  0  0  0  0
 48 97  1  0  0  0  0
 49 98  1  0  0  0  0
 50 51  1  0  0  0  0
 50 99  1  0  0  0  0
 51100  1  0  0  0  0
M  END
> <PUBCHEM_COMPOUND_CID>
515804
> <PUBCHEM_COMPOUND_CANONICALIZED>
1
> <PUBCHEM_CACTVS_COMPLEXITY>
1060
> <PUBCHEM_CACTVS_HBOND_ACCEPTOR>
9
> <PUBCHEM_CACTVS_HBOND_DONOR>
4
> <PUBCHEM_CACTVS_ROTATABLE_BOND>
19
> <PUBCHEM_CACTVS_SUBSKEYS>
AAADcfB/uAAAAAAAAAAAAAAAAAAAAWAAAAA8YIAAAAAAAAAB9AAAHgAUCAAADzzhngY+jJLYFgCpA7V3XgSCgCA1IiAo2KG+bNsKdvrAsbudcYhm1hnY6UfS0PIPAAAAAAAAAAAAAAAAAAAAAAAAAAAAAA==
> <PUBCHEM_IUPAC_OPENEYE_NAME>
3-pyridylmethyl N-[(1S,2S,4S)-1-benzyl-4-[[(2S)-2-[(5-tert-butylisoxazol-3-yl)methoxycarbonylamino]-3-methyl-butanoyl]amino]-2-hydroxy-5-phenyl-pentyl]carbamate
> <PUBCHEM_IUPAC_CAS_NAME>
N-[(2S,3S,5S)-5-[[(2S)-2-[[(5-tert-butyl-3-isoxazolyl)methoxy-oxomethyl]amino]-3-methyl-1-oxobutyl]amino]-3-hydroxy-1,6-diphenylhexan-2-yl]carbamic acid 3-pyridinylmethyl ester
> <PUBCHEM_IUPAC_NAME_MARKUP>
pyridin-3-ylmethyl <I>N</I>-[(2<I>S</I>,3<I>S</I>,5<I>S</I>)-5-[[(2<I>S</I>)-2-[(5-<I>tert</I>-butyl-1,2-oxazol-3-yl)methoxycarbonylamino]-3-methylbutanoyl]amino]-3-hydroxy-1,6-diphenylhexan-2-yl]carbamate
> <PUBCHEM_IUPAC_NAME>
pyridin-3-ylmethyl N-[(2S,3S,5S)-5-[[(2S)-2-[(5-tert-butyl-1,2-oxazol-3-yl)methoxycarbonylamino]-3-methylbutanoyl]amino]-3-hydroxy-1,6-diphenylhexan-2-yl]carbamate
> <PUBCHEM_IUPAC_SYSTEMATIC_NAME>
pyridin-3-ylmethyl N-[(2S,3S,5S)-5-[[(2S)-2-[(5-tert-butyl-1,2-oxazol-3-yl)methoxycarbonylamino]-3-methyl-butanoyl]amino]-3-oxidanyl-1,6-diphenyl-hexan-2-yl]carbamate
> <PUBCHEM_IUPAC_TRADITIONAL_NAME>
N-[(1S,2S,4S)-1-benzyl-4-[[(2S)-2-[(5-tert-butylisoxazol-3-yl)methoxycarbonylamino]-3-methyl-butanoyl]amino]-2-hydroxy-5-phenyl-pentyl]carbamic acid 3-pyridylmethyl ester
> <PUBCHEM_IUPAC_INCHI>
InChI=1S/C39H49N5O7/c1-26(2)35(43-38(48)50-25-31-22-34(51-44-31)39(3,4)5)36(46)41-30(19-27-13-8-6-9-14-27)21-33(45)32(20-28-15-10-7-11-16-28)42-37(47)49-24-29-17-12-18-40-23-29/h6-18,22-23,26,30,32-33,35,45H,19-21,24-25H2,1-5H3,(H,41,46)(H,42,47)(H,43,48)/t30-,32-,33-,35-/m0/s1
> <PUBCHEM_IUPAC_INCHIKEY>
MGAQNPINLNQRCC-GCWKJIDRSA-N
> <PUBCHEM_XLOGP3_AA>
6.3
> <PUBCHEM_EXACT_MASS>
699.36319892
> <PUBCHEM_MOLECULAR_FORMULA>
C39H49N5O7
> <PUBCHEM_MOLECULAR_WEIGHT>
699.8
> <PUBCHEM_OPENEYE_CAN_SMILES>
CC(C)C(C(=O)NC(CC1=CC=CC=C1)CC(C(CC2=CC=CC=C2)NC(=O)OCC3=CN=CC=C3)O)NC(=O)OCC4=NOC(=C4)C(C)(C)C
> <PUBCHEM_OPENEYE_ISO_SMILES>
CC(C)[C@@H](C(=O)N[C@@H](CC1=CC=CC=C1)C[C@@H]([C@H](CC2=CC=CC=C2)NC(=O)OCC3=CN=CC=C3)O)NC(=O)OCC4=NOC(=C4)C(C)(C)C
> <PUBCHEM_CACTVS_TPSA>
165
> <PUBCHEM_MONOISOTOPIC_WEIGHT>
699.36319892
> <PUBCHEM_TOTAL_CHARGE>
0
> <PUBCHEM_HEAVY_ATOM_COUNT>
51
> <PUBCHEM_ATOM_DEF_STEREO_COUNT>
4
> <PUBCHEM_ATOM_UDEF_STEREO_COUNT>
0
> <PUBCHEM_BOND_DEF_STEREO_COUNT>
0
> <PUBCHEM_BOND_UDEF_STEREO_COUNT>
0
> <PUBCHEM_ISOTOPIC_ATOM_COUNT>
0
> <PUBCHEM_COMPONENT_COUNT>
1
> <PUBCHEM_CACTVS_TAUTO_COUNT>
-1
> <PUBCHEM_COORDINATE_TYPE>
1
5
255
> <PUBCHEM_BONDANNOTATIONS>
15  1  5
19  10  6
11  45  8
12  49  8
12  51  8
22  26  8
22  27  8
23  29  8
23  30  8
26  31  8
27  32  8
29  35  8
30  36  8
31  37  8
32  37  8
35  38  8
36  38  8
39  46  8
45  46  8
47  48  8
47  49  8
48  50  8
50  51  8
6  11  8
6  39  8
13  8  6
16  9  5
$$$$
