515844
  -OEChem-10302200282D
 95 98  0     1  0  0  0  0  0999 V2000
   13.9750    2.0864    0.0000 S   0  0  0  0  0  0  0  0  0  0  0  0
    8.9757   -1.3433    0.0000 S   0  0  0  0  0  0  0  0  0  0  0  0
    2.8660    0.2500    0.0000 O   0  0  0  0  0  0  0  0  0  0  0  0
    6.3301    0.2500    0.0000 O   0  0  0  0  0  0  0  0  0  0  0  0
    6.3301   -1.7500    0.0000 O   0  0  0  0  0  0  0  0  0  0  0  0
    5.4641   -0.2500    0.0000 O   0  0  0  0  0  0  0  0  0  0  0  0
    8.9282    2.7500    0.0000 O   0  0  0  0  0  0  0  0  0  0  0  0
    5.4641    1.7500    0.0000 N   0  0  0  0  0  0  0  0  0  0  0  0
    4.5981   -1.7500    0.0000 N   0  0  0  0  0  0  0  0  0  0  0  0
    8.0622    1.2500    0.0000 N   0  0  0  0  0  0  0  0  0  0  0  0
    9.7942    1.2500    0.0000 N   0  0  0  0  0  0  0  0  0  0  0  0
   12.4968    2.7445    0.0000 N   0  0  0  0  0  0  0  0  0  0  0  0
    9.1448   -2.9524    0.0000 N   0  0  0  0  0  0  0  0  0  0  0  0
    3.7320   -0.2500    0.0000 C   0  0  1  0  0  0  0  0  0  0  0  0
    4.5981    0.2500    0.0000 C   0  0  0  0  0  0  0  0  0  0  0  0
    4.5981    1.2500    0.0000 C   0  0  2  0  0  0  0  0  0  0  0  0
    3.7320   -1.2500    0.0000 C   0  0  2  0  0  0  0  0  0  0  0  0
    3.7320    1.7500    0.0000 C   0  0  0  0  0  0  0  0  0  0  0  0
    2.8660   -1.7500    0.0000 C   0  0  0  0  0  0  0  0  0  0  0  0
    3.7320    2.7500    0.0000 C   0  0  0  0  0  0  0  0  0  0  0  0
    2.8660   -2.7500    0.0000 C   0  0  0  0  0  0  0  0  0  0  0  0
    6.3301    1.2500    0.0000 C   0  0  0  0  0  0  0  0  0  0  0  0
    7.1962    1.7500    0.0000 C   0  0  2  0  0  0  0  0  0  0  0  0
    2.8660    3.2500    0.0000 C   0  0  0  0  0  0  0  0  0  0  0  0
    4.5981    3.2500    0.0000 C   0  0  0  0  0  0  0  0  0  0  0  0
    5.4641   -1.2500    0.0000 C   0  0  0  0  0  0  0  0  0  0  0  0
    3.7320   -3.2500    0.0000 C   0  0  0  0  0  0  0  0  0  0  0  0
    2.0000   -3.2500    0.0000 C   0  0  0  0  0  0  0  0  0  0  0  0
    7.1962    2.7500    0.0000 C   0  0  0  0  0  0  0  0  0  0  0  0
    2.8660    4.2500    0.0000 C   0  0  0  0  0  0  0  0  0  0  0  0
    4.5981    4.2500    0.0000 C   0  0  0  0  0  0  0  0  0  0  0  0
    3.7320   -4.2500    0.0000 C   0  0  0  0  0  0  0  0  0  0  0  0
    2.0000   -4.2500    0.0000 C   0  0  0  0  0  0  0  0  0  0  0  0
    3.7320    4.7500    0.0000 C   0  0  0  0  0  0  0  0  0  0  0  0
    2.8660   -4.7500    0.0000 C   0  0  0  0  0  0  0  0  0  0  0  0
    8.9282    1.7500    0.0000 C   0  0  0  0  0  0  0  0  0  0  0  0
   10.6603    1.7500    0.0000 C   0  0  0  0  0  0  0  0  0  0  0  0
    7.1962   -1.2500    0.0000 C   0  0  0  0  0  0  0  0  0  0  0  0
   11.5263    1.2500    0.0000 C   0  0  0  0  0  0  0  0  0  0  0  0
    9.7942    0.2500    0.0000 C   0  0  0  0  0  0  0  0  0  0  0  0
   12.3923    1.7500    0.0000 C   0  0  0  0  0  0  0  0  0  0  0  0
    8.0622   -1.7500    0.0000 C   0  0  0  0  0  0  0  0  0  0  0  0
   13.8817    3.8660    0.0000 C   0  0  0  0  0  0  0  0  0  0  0  0
   13.4750    2.9524    0.0000 C   0  0  0  0  0  0  0  0  0  0  0  0
   13.3059    1.3433    0.0000 C   0  0  0  0  0  0  0  0  0  0  0  0
   14.8762    3.9705    0.0000 C   0  0  0  0  0  0  0  0  0  0  0  0
   13.2939    4.6750    0.0000 C   0  0  0  0  0  0  0  0  0  0  0  0
    8.1667   -2.7445    0.0000 C   0  0  0  0  0  0  0  0  0  0  0  0
    9.6448   -2.0864    0.0000 C   0  0  0  0  0  0  0  0  0  0  0  0
    3.7320    0.3700    0.0000 H   0  0  0  0  0  0  0  0  0  0  0  0
    4.8101   -0.3326    0.0000 H   0  0  0  0  0  0  0  0  0  0  0  0
    5.2087    0.3577    0.0000 H   0  0  0  0  0  0  0  0  0  0  0  0
    4.5981    1.8700    0.0000 H   0  0  0  0  0  0  0  0  0  0  0  0
    3.7320   -1.8700    0.0000 H   0  0  0  0  0  0  0  0  0  0  0  0
    3.1215    1.8577    0.0000 H   0  0  0  0  0  0  0  0  0  0  0  0
    3.5200    1.1674    0.0000 H   0  0  0  0  0  0  0  0  0  0  0  0
    2.6540   -1.1674    0.0000 H   0  0  0  0  0  0  0  0  0  0  0  0
    2.2554   -1.8577    0.0000 H   0  0  0  0  0  0  0  0  0  0  0  0
    5.4641    2.3700    0.0000 H   0  0  0  0  0  0  0  0  0  0  0  0
    4.5981   -2.3700    0.0000 H   0  0  0  0  0  0  0  0  0  0  0  0
    2.8660    0.8700    0.0000 H   0  0  0  0  0  0  0  0  0  0  0  0
    7.7331    2.0600    0.0000 H   0  0  0  0  0  0  0  0  0  0  0  0
    2.3291    2.9400    0.0000 H   0  0  0  0  0  0  0  0  0  0  0  0
    5.1350    2.9400    0.0000 H   0  0  0  0  0  0  0  0  0  0  0  0
    4.2690   -2.9400    0.0000 H   0  0  0  0  0  0  0  0  0  0  0  0
    1.4631   -2.9400    0.0000 H   0  0  0  0  0  0  0  0  0  0  0  0
    7.8162    2.7500    0.0000 H   0  0  0  0  0  0  0  0  0  0  0  0
    7.1962    3.3700    0.0000 H   0  0  0  0  0  0  0  0  0  0  0  0
    6.5762    2.7500    0.0000 H   0  0  0  0  0  0  0  0  0  0  0  0
    8.0622    0.6300    0.0000 H   0  0  0  0  0  0  0  0  0  0  0  0
    2.3291    4.5600    0.0000 H   0  0  0  0  0  0  0  0  0  0  0  0
    5.1350    4.5600    0.0000 H   0  0  0  0  0  0  0  0  0  0  0  0
    4.2690   -4.5600    0.0000 H   0  0  0  0  0  0  0  0  0  0  0  0
    1.4631   -4.5600    0.0000 H   0  0  0  0  0  0  0  0  0  0  0  0
    3.7320    5.3700    0.0000 H   0  0  0  0  0  0  0  0  0  0  0  0
    2.8660   -5.3700    0.0000 H   0  0  0  0  0  0  0  0  0  0  0  0
   11.0588    2.2250    0.0000 H   0  0  0  0  0  0  0  0  0  0  0  0
   10.2617    2.2250    0.0000 H   0  0  0  0  0  0  0  0  0  0  0  0
    7.5947   -0.7751    0.0000 H   0  0  0  0  0  0  0  0  0  0  0  0
    6.7976   -0.7751    0.0000 H   0  0  0  0  0  0  0  0  0  0  0  0
   11.1278    0.7751    0.0000 H   0  0  0  0  0  0  0  0  0  0  0  0
   11.9248    0.7751    0.0000 H   0  0  0  0  0  0  0  0  0  0  0  0
    9.1742    0.2500    0.0000 H   0  0  0  0  0  0  0  0  0  0  0  0
    9.7942   -0.3700    0.0000 H   0  0  0  0  0  0  0  0  0  0  0  0
   10.4142    0.2500    0.0000 H   0  0  0  0  0  0  0  0  0  0  0  0
   14.1339    4.4324    0.0000 H   0  0  0  0  0  0  0  0  0  0  0  0
   13.4348    0.7368    0.0000 H   0  0  0  0  0  0  0  0  0  0  0  0
   14.9410    3.3539    0.0000 H   0  0  0  0  0  0  0  0  0  0  0  0
   15.4928    4.0353    0.0000 H   0  0  0  0  0  0  0  0  0  0  0  0
   14.8114    4.5871    0.0000 H   0  0  0  0  0  0  0  0  0  0  0  0
   13.7955    5.0394    0.0000 H   0  0  0  0  0  0  0  0  0  0  0  0
   12.9295    5.1766    0.0000 H   0  0  0  0  0  0  0  0  0  0  0  0
   12.7923    4.3106    0.0000 H   0  0  0  0  0  0  0  0  0  0  0  0
    7.7060   -3.1594    0.0000 H   0  0  0  0  0  0  0  0  0  0  0  0
   10.2615   -2.0216    0.0000 H   0  0  0  0  0  0  0  0  0  0  0  0
  1 44  1  0  0  0  0
  1 45  1  0  0  0  0
  2 42  1  0  0  0  0
  2 49  1  0  0  0  0
 14  3  1  1  0  0  0
  3 61  1  0  0  0  0
  4 22  2  0  0  0  0
  5 26  1  0  0  0  0
  5 38  1  0  0  0  0
  6 26  2  0  0  0  0
  7 36  2  0  0  0  0
 16  8  1  6  0  0  0
  8 22  1  0  0  0  0
  8 59  1  0  0  0  0
 17  9  1  1  0  0  0
  9 26  1  0  0  0  0
  9 60  1  0  0  0  0
 23 10  1  6  0  0  0
 10 36  1  0  0  0  0
 10 70  1  0  0  0  0
 11 36  1  0  0  0  0
 11 37  1  0  0  0  0
 11 40  1  0  0  0  0
 12 41  1  0  0  0  0
 12 44  2  0  0  0  0
 13 48  1  0  0  0  0
 13 49  2  0  0  0  0
 14 15  1  0  0  0  0
 14 17  1  0  0  0  0
 14 50  1  0  0  0  0
 15 16  1  0  0  0  0
 15 51  1  0  0  0  0
 15 52  1  0  0  0  0
 16 18  1  0  0  0  0
 16 53  1  0  0  0  0
 17 19  1  0  0  0  0
 17 54  1  0  0  0  0
 18 20  1  0  0  0  0
 18 55  1  0  0  0  0
 18 56  1  0  0  0  0
 19 21  1  0  0  0  0
 19 57  1  0  0  0  0
 19 58  1  0  0  0  0
 20 24  2  0  0  0  0
 20 25  1  0  0  0  0
 21 27  2  0  0  0  0
 21 28  1  0  0  0  0
 22 23  1  0  0  0  0
 23 29  1  0  0  0  0
 23 62  1  0  0  0  0
 24 30  1  0  0  0  0
 24 63  1  0  0  0  0
 25 31  2  0  0  0  0
 25 64  1  0  0  0  0
 27 32  1  0  0  0  0
 27 65  1  0  0  0  0
 28 33  2  0  0  0  0
 28 66  1  0  0  0  0
 29 67  1  0  0  0  0
 29 68  1  0  0  0  0
 29 69  1  0  0  0  0
 30 34  2  0  0  0  0
 30 71  1  0  0  0  0
 31 34  1  0  0  0  0
 31 72  1  0  0  0  0
 32 35  2  0  0  0  0
 32 73  1  0  0  0  0
 33 35  1  0  0  0  0
 33 74  1  0  0  0  0
 34 75  1  0  0  0  0
 35 76  1  0  0  0  0
 37 39  1  0  0  0  0
 37 77  1  0  0  0  0
 37 78  1  0  0  0  0
 38 42  1  0  0  0  0
 38 79  1  0  0  0  0
 38 80  1  0  0  0  0
 39 41  1  0  0  0  0
 39 81  1  0  0  0  0
 39 82  1  0  0  0  0
 40 83  1  0  0  0  0
 40 84  1  0  0  0  0
 40 85  1  0  0  0  0
 41 45  2  0  0  0  0
 42 48  2  0  0  0  0
 43 44  1  0  0  0  0
 43 46  1  0  0  0  0
 43 47  1  0  0  0  0
 43 86  1  0  0  0  0
 45 87  1  0  0  0  0
 46 88  1  0  0  0  0
 46 89  1  0  0  0  0
 46 90  1  0  0  0  0
 47 91  1  0  0  0  0
 47 92  1  0  0  0  0
 47 93  1  0  0  0  0
 48 94  1  0  0  0  0
 49 95  1  0  0  0  0
M  END
> <PUBCHEM_COMPOUND_CID>
515844
> <PUBCHEM_COMPOUND_CANONICALIZED>
1
> <PUBCHEM_CACTVS_COMPLEXITY>
1010
> <PUBCHEM_CACTVS_HBOND_ACCEPTOR>
9
> <PUBCHEM_CACTVS_HBOND_DONOR>
4
> <PUBCHEM_CACTVS_ROTATABLE_BOND>
18
> <PUBCHEM_CACTVS_SUBSKEYS>
AAADcfB/uABgAAAAAAAAAAAAAAAAAWLAAAAwYAAAAAAAAAAB9AAAHgQQCAAADTzl3ga/iZPIFgisAzV3XAAC8KBxCjhI2J24aImKdCLg8TmcYAAulgL4qAeQwPAOAAAAAAAAAAAAAAAAAAAAAAAAAAAAAA==
> <PUBCHEM_IUPAC_OPENEYE_NAME>
thiazol-5-ylmethyl N-[(1S,2S,4S)-1-benzyl-2-hydroxy-4-[[(2S)-2-[[2-(2-isopropylthiazol-4-yl)ethyl-methyl-carbamoyl]amino]propanoyl]amino]-5-phenyl-pentyl]carbamate
> <PUBCHEM_IUPAC_CAS_NAME>
N-[(2S,3S,5S)-3-hydroxy-5-[[(2S)-2-[[[methyl-[2-(2-propan-2-yl-4-thiazolyl)ethyl]amino]-oxomethyl]amino]-1-oxopropyl]amino]-1,6-diphenylhexan-2-yl]carbamic acid 5-thiazolylmethyl ester
> <PUBCHEM_IUPAC_NAME_MARKUP>
1,3-thiazol-5-ylmethyl <I>N</I>-[(2<I>S</I>,3<I>S</I>,5<I>S</I>)-3-hydroxy-5-[[(2<I>S</I>)-2-[[methyl-[2-(2-propan-2-yl-1,3-thiazol-4-yl)ethyl]carbamoyl]amino]propanoyl]amino]-1,6-diphenylhexan-2-yl]carbamate
> <PUBCHEM_IUPAC_NAME>
1,3-thiazol-5-ylmethyl N-[(2S,3S,5S)-3-hydroxy-5-[[(2S)-2-[[methyl-[2-(2-propan-2-yl-1,3-thiazol-4-yl)ethyl]carbamoyl]amino]propanoyl]amino]-1,6-diphenylhexan-2-yl]carbamate
> <PUBCHEM_IUPAC_SYSTEMATIC_NAME>
1,3-thiazol-5-ylmethyl N-[(2S,3S,5S)-5-[[(2S)-2-[[methyl-[2-(2-propan-2-yl-1,3-thiazol-4-yl)ethyl]carbamoyl]amino]propanoyl]amino]-3-oxidanyl-1,6-diphenyl-hexan-2-yl]carbamate
> <PUBCHEM_IUPAC_TRADITIONAL_NAME>
N-[(1S,2S,4S)-1-benzyl-2-hydroxy-4-[[(2S)-2-[[2-(2-isopropylthiazol-4-yl)ethyl-methyl-carbamoyl]amino]propanoyl]amino]-5-phenyl-pentyl]carbamic acid thiazol-5-ylmethyl ester
> <PUBCHEM_IUPAC_INCHI>
InChI=1S/C36H46N6O5S2/c1-24(2)34-40-28(22-48-34)15-16-42(4)35(45)38-25(3)33(44)39-29(17-26-11-7-5-8-12-26)19-32(43)31(18-27-13-9-6-10-14-27)41-36(46)47-21-30-20-37-23-49-30/h5-14,20,22-25,29,31-32,43H,15-19,21H2,1-4H3,(H,38,45)(H,39,44)(H,41,46)/t25-,29-,31-,32-/m0/s1
> <PUBCHEM_IUPAC_INCHIKEY>
DRIYQISAZHDTGM-HNGUVYQGSA-N
> <PUBCHEM_XLOGP3_AA>
5.5
> <PUBCHEM_EXACT_MASS>
706.29711094
> <PUBCHEM_MOLECULAR_FORMULA>
C36H46N6O5S2
> <PUBCHEM_MOLECULAR_WEIGHT>
706.9
> <PUBCHEM_OPENEYE_CAN_SMILES>
CC(C)C1=NC(=CS1)CCN(C)C(=O)NC(C)C(=O)NC(CC2=CC=CC=C2)CC(C(CC3=CC=CC=C3)NC(=O)OCC4=CN=CS4)O
> <PUBCHEM_OPENEYE_ISO_SMILES>
C[C@@H](C(=O)N[C@@H](CC1=CC=CC=C1)C[C@@H]([C@H](CC2=CC=CC=C2)NC(=O)OCC3=CN=CS3)O)NC(=O)N(C)CCC4=CSC(=N4)C(C)C
> <PUBCHEM_CACTVS_TPSA>
202
> <PUBCHEM_MONOISOTOPIC_WEIGHT>
706.29711094
> <PUBCHEM_TOTAL_CHARGE>
0
> <PUBCHEM_HEAVY_ATOM_COUNT>
49
> <PUBCHEM_ATOM_DEF_STEREO_COUNT>
4
> <PUBCHEM_ATOM_UDEF_STEREO_COUNT>
0
> <PUBCHEM_BOND_DEF_STEREO_COUNT>
0
> <PUBCHEM_BOND_UDEF_STEREO_COUNT>
0
> <PUBCHEM_ISOTOPIC_ATOM_COUNT>
0
> <PUBCHEM_COMPONENT_COUNT>
1
> <PUBCHEM_CACTVS_TAUTO_COUNT>
-1
> <PUBCHEM_COORDINATE_TYPE>
1
5
255
> <PUBCHEM_BONDANNOTATIONS>
1  44  8
1  45  8
23  10  6
12  41  8
12  44  8
13  48  8
13  49  8
2  42  8
2  49  8
20  24  8
20  25  8
21  27  8
21  28  8
24  30  8
25  31  8
27  32  8
28  33  8
14  3  5
30  34  8
31  34  8
32  35  8
33  35  8
41  45  8
42  48  8
16  8  6
17  9  5
$$$$
