515886
  -OEChem-10302200282D
 93100  0     1  0  0  0  0  0999 V2000
    7.7619   -3.4199    0.0000 F   0  0  0  0  0  0  0  0  0  0  0  0
   13.8535    0.9780    0.0000 O   0  0  0  0  0  0  0  0  0  0  0  0
   12.3932    2.1426    0.0000 O   0  0  0  0  0  0  0  0  0  0  0  0
   10.5723   -1.6386    0.0000 O   0  0  0  0  0  0  0  0  0  0  0  0
   12.1707   -1.0793    0.0000 N   0  0  0  0  0  0  0  0  0  0  0  0
   10.7619    0.0442    0.0000 N   0  0  0  0  0  0  0  0  0  0  0  0
    6.7619   -1.6879    0.0000 N   0  0  0  0  0  0  0  0  0  0  0  0
   16.1269   -3.4249    0.0000 N   0  0  0  0  0  0  0  0  0  0  0  0
   15.9340   -4.4000    0.0000 N   0  0  0  0  0  0  0  0  0  0  0  0
    4.6783   -0.0171    0.0000 N   0  0  0  0  0  0  0  0  0  0  0  0
    4.6783   -1.6266    0.0000 N   0  0  0  0  0  0  0  0  0  0  0  0
   12.9525   -0.4558    0.0000 C   0  0  1  0  0  0  0  0  0  0  0  0
   11.1958    0.9451    0.0000 C   0  0  1  0  0  0  0  0  0  0  0  0
   12.9525    0.5442    0.0000 C   0  0  1  0  0  0  0  0  0  0  0  0
   12.1707    1.1677    0.0000 C   0  0  1  0  0  0  0  0  0  0  0  0
   13.8535   -0.8897    0.0000 C   0  0  0  0  0  0  0  0  0  0  0  0
   10.5723    1.7270    0.0000 C   0  0  0  0  0  0  0  0  0  0  0  0
   11.1958   -0.8568    0.0000 C   0  0  0  0  0  0  0  0  0  0  0  0
   12.3932   -2.0542    0.0000 C   0  0  0  0  0  0  0  0  0  0  0  0
    9.7619    0.0442    0.0000 C   0  0  0  0  0  0  0  0  0  0  0  0
   14.6797   -0.3264    0.0000 C   0  0  0  0  0  0  0  0  0  0  0  0
   10.9376    2.6578    0.0000 C   0  0  0  0  0  0  0  0  0  0  0  0
   13.3488   -2.3490    0.0000 C   0  0  0  0  0  0  0  0  0  0  0  0
    9.2619   -0.8219    0.0000 C   0  0  0  0  0  0  0  0  0  0  0  0
   15.5807   -0.7603    0.0000 C   0  0  0  0  0  0  0  0  0  0  0  0
   14.6050    0.6708    0.0000 C   0  0  0  0  0  0  0  0  0  0  0  0
   10.3141    3.4397    0.0000 C   0  0  0  0  0  0  0  0  0  0  0  0
   11.9264    2.8069    0.0000 C   0  0  0  0  0  0  0  0  0  0  0  0
   13.5713   -3.3239    0.0000 C   0  0  0  0  0  0  0  0  0  0  0  0
   14.0818   -1.6688    0.0000 C   0  0  0  0  0  0  0  0  0  0  0  0
    8.2619   -0.8219    0.0000 C   0  0  0  0  0  0  0  0  0  0  0  0
    9.7619   -1.6879    0.0000 C   0  0  0  0  0  0  0  0  0  0  0  0
   14.5269   -3.6187    0.0000 C   0  0  0  0  0  0  0  0  0  0  0  0
   16.4069   -0.1970    0.0000 C   0  0  0  0  0  0  0  0  0  0  0  0
   15.4312    1.2341    0.0000 C   0  0  0  0  0  0  0  0  0  0  0  0
   10.6795    4.3706    0.0000 C   0  0  0  0  0  0  0  0  0  0  0  0
   12.2918    3.7378    0.0000 C   0  0  0  0  0  0  0  0  0  0  0  0
    7.7619   -1.6879    0.0000 C   0  0  0  0  0  0  0  0  0  0  0  0
   15.0374   -1.9636    0.0000 C   0  0  0  0  0  0  0  0  0  0  0  0
   15.2599   -2.9385    0.0000 C   0  0  0  0  0  0  0  0  0  0  0  0
    9.2619   -2.5539    0.0000 C   0  0  0  0  0  0  0  0  0  0  0  0
   16.3322    0.8002    0.0000 C   0  0  0  0  0  0  0  0  0  0  0  0
   11.6683    4.5196    0.0000 C   0  0  0  0  0  0  0  0  0  0  0  0
    8.2619   -2.5539    0.0000 C   0  0  0  0  0  0  0  0  0  0  0  0
   14.9471   -4.5196    0.0000 C   0  0  0  0  0  0  0  0  0  0  0  0
    6.2619   -0.8219    0.0000 C   0  0  0  0  0  0  0  0  0  0  0  0
    5.2619   -0.8219    0.0000 C   0  0  0  0  0  0  0  0  0  0  0  0
    3.7320   -0.3219    0.0000 C   0  0  0  0  0  0  0  0  0  0  0  0
    3.7320   -1.3219    0.0000 C   0  0  0  0  0  0  0  0  0  0  0  0
    2.8660    0.1781    0.0000 C   0  0  0  0  0  0  0  0  0  0  0  0
    2.8660   -1.8219    0.0000 C   0  0  0  0  0  0  0  0  0  0  0  0
    2.0000   -0.3219    0.0000 C   0  0  0  0  0  0  0  0  0  0  0  0
    2.0000   -1.3219    0.0000 C   0  0  0  0  0  0  0  0  0  0  0  0
   13.0219   -1.0719    0.0000 H   0  0  0  0  0  0  0  0  0  0  0  0
   10.5797    0.8757    0.0000 H   0  0  0  0  0  0  0  0  0  0  0  0
   13.4775    0.2143    0.0000 H   0  0  0  0  0  0  0  0  0  0  0  0
   12.7559    1.3724    0.0000 H   0  0  0  0  0  0  0  0  0  0  0  0
   13.4916   -1.3931    0.0000 H   0  0  0  0  0  0  0  0  0  0  0  0
   14.2864   -1.3336    0.0000 H   0  0  0  0  0  0  0  0  0  0  0  0
   10.0432    2.0503    0.0000 H   0  0  0  0  0  0  0  0  0  0  0  0
   10.1620    1.2621    0.0000 H   0  0  0  0  0  0  0  0  0  0  0  0
   11.7740   -2.0852    0.0000 H   0  0  0  0  0  0  0  0  0  0  0  0
   12.3161   -2.6694    0.0000 H   0  0  0  0  0  0  0  0  0  0  0  0
    9.8695    0.6547    0.0000 H   0  0  0  0  0  0  0  0  0  0  0  0
    9.1793    0.2562    0.0000 H   0  0  0  0  0  0  0  0  0  0  0  0
   13.8998    1.5963    0.0000 H   0  0  0  0  0  0  0  0  0  0  0  0
   12.9857    2.3253    0.0000 H   0  0  0  0  0  0  0  0  0  0  0  0
   15.6270   -1.3786    0.0000 H   0  0  0  0  0  0  0  0  0  0  0  0
   14.0464    0.9398    0.0000 H   0  0  0  0  0  0  0  0  0  0  0  0
    9.7010    3.3473    0.0000 H   0  0  0  0  0  0  0  0  0  0  0  0
   12.3130    2.3222    0.0000 H   0  0  0  0  0  0  0  0  0  0  0  0
   13.1168   -3.7456    0.0000 H   0  0  0  0  0  0  0  0  0  0  0  0
   13.9439   -1.0644    0.0000 H   0  0  0  0  0  0  0  0  0  0  0  0
    7.9519   -0.2849    0.0000 H   0  0  0  0  0  0  0  0  0  0  0  0
   10.3819   -1.6879    0.0000 H   0  0  0  0  0  0  0  0  0  0  0  0
   16.9655   -0.4660    0.0000 H   0  0  0  0  0  0  0  0  0  0  0  0
   15.3849    1.8524    0.0000 H   0  0  0  0  0  0  0  0  0  0  0  0
   10.2929    4.8553    0.0000 H   0  0  0  0  0  0  0  0  0  0  0  0
   12.9049    3.8302    0.0000 H   0  0  0  0  0  0  0  0  0  0  0  0
   15.4919   -1.5419    0.0000 H   0  0  0  0  0  0  0  0  0  0  0  0
    9.5719   -3.0908    0.0000 H   0  0  0  0  0  0  0  0  0  0  0  0
   16.8445    1.1495    0.0000 H   0  0  0  0  0  0  0  0  0  0  0  0
   11.8948    5.0967    0.0000 H   0  0  0  0  0  0  0  0  0  0  0  0
   14.6461   -5.0616    0.0000 H   0  0  0  0  0  0  0  0  0  0  0  0
    6.4519   -2.2248    0.0000 H   0  0  0  0  0  0  0  0  0  0  0  0
   16.6899   -3.1652    0.0000 H   0  0  0  0  0  0  0  0  0  0  0  0
    6.8445   -0.6098    0.0000 H   0  0  0  0  0  0  0  0  0  0  0  0
    6.1542   -0.2113    0.0000 H   0  0  0  0  0  0  0  0  0  0  0  0
    4.8709    0.5722    0.0000 H   0  0  0  0  0  0  0  0  0  0  0  0
    2.8660    0.7981    0.0000 H   0  0  0  0  0  0  0  0  0  0  0  0
    2.8660   -2.4419    0.0000 H   0  0  0  0  0  0  0  0  0  0  0  0
    1.4631   -0.0119    0.0000 H   0  0  0  0  0  0  0  0  0  0  0  0
    1.4631   -1.6319    0.0000 H   0  0  0  0  0  0  0  0  0  0  0  0
  1 44  1  0  0  0  0
 14  2  1  1  0  0  0
  2 66  1  0  0  0  0
 15  3  1  6  0  0  0
  3 67  1  0  0  0  0
  4 18  2  0  0  0  0
  5 12  1  0  0  0  0
  5 18  1  0  0  0  0
  5 19  1  0  0  0  0
  6 13  1  0  0  0  0
  6 18  1  0  0  0  0
  6 20  1  0  0  0  0
  7 38  1  0  0  0  0
  7 46  1  0  0  0  0
  7 85  1  0  0  0  0
  8  9  1  0  0  0  0
  8 40  1  0  0  0  0
  8 86  1  0  0  0  0
  9 45  2  0  0  0  0
 10 47  1  0  0  0  0
 10 48  1  0  0  0  0
 10 89  1  0  0  0  0
 11 47  2  0  0  0  0
 11 49  1  0  0  0  0
 12 14  1  0  0  0  0
 12 16  1  1  0  0  0
 12 54  1  0  0  0  0
 13 15  1  0  0  0  0
 13 17  1  6  0  0  0
 13 55  1  0  0  0  0
 14 15  1  0  0  0  0
 14 56  1  0  0  0  0
 15 57  1  0  0  0  0
 16 21  1  0  0  0  0
 16 58  1  0  0  0  0
 16 59  1  0  0  0  0
 17 22  1  0  0  0  0
 17 60  1  0  0  0  0
 17 61  1  0  0  0  0
 19 23  1  0  0  0  0
 19 62  1  0  0  0  0
 19 63  1  0  0  0  0
 20 24  1  0  0  0  0
 20 64  1  0  0  0  0
 20 65  1  0  0  0  0
 21 25  2  0  0  0  0
 21 26  1  0  0  0  0
 22 27  2  0  0  0  0
 22 28  1  0  0  0  0
 23 29  2  0  0  0  0
 23 30  1  0  0  0  0
 24 31  2  0  0  0  0
 24 32  1  0  0  0  0
 25 34  1  0  0  0  0
 25 68  1  0  0  0  0
 26 35  2  0  0  0  0
 26 69  1  0  0  0  0
 27 36  1  0  0  0  0
 27 70  1  0  0  0  0
 28 37  2  0  0  0  0
 28 71  1  0  0  0  0
 29 33  1  0  0  0  0
 29 72  1  0  0  0  0
 30 39  2  0  0  0  0
 30 73  1  0  0  0  0
 31 38  1  0  0  0  0
 31 74  1  0  0  0  0
 32 41  2  0  0  0  0
 32 75  1  0  0  0  0
 33 40  2  0  0  0  0
 33 45  1  0  0  0  0
 34 42  2  0  0  0  0
 34 76  1  0  0  0  0
 35 42  1  0  0  0  0
 35 77  1  0  0  0  0
 36 43  2  0  0  0  0
 36 78  1  0  0  0  0
 37 43  1  0  0  0  0
 37 79  1  0  0  0  0
 38 44  2  0  0  0  0
 39 40  1  0  0  0  0
 39 80  1  0  0  0  0
 41 44  1  0  0  0  0
 41 81  1  0  0  0  0
 42 82  1  0  0  0  0
 43 83  1  0  0  0  0
 45 84  1  0  0  0  0
 46 47  1  0  0  0  0
 46 87  1  0  0  0  0
 46 88  1  0  0  0  0
 48 49  1  0  0  0  0
 48 50  2  0  0  0  0
 49 51  2  0  0  0  0
 50 52  1  0  0  0  0
 50 90  1  0  0  0  0
 51 53  1  0  0  0  0
 51 91  1  0  0  0  0
 52 53  2  0  0  0  0
 52 92  1  0  0  0  0
 53 93  1  0  0  0  0
M  END
> <PUBCHEM_COMPOUND_CID>
515886
> <PUBCHEM_COMPOUND_CANONICALIZED>
1
> <PUBCHEM_CACTVS_COMPLEXITY>
1170
> <PUBCHEM_CACTVS_HBOND_ACCEPTOR>
7
> <PUBCHEM_CACTVS_HBOND_DONOR>
5
> <PUBCHEM_CACTVS_ROTATABLE_BOND>
11
> <PUBCHEM_CACTVS_SUBSKEYS>
AAADcfB/sQAAAAAAAAAAAAAAAAAAAWLAAAAwYMGDBYAAAFgB/gAAHwAYCAAADDzhnw490PfrkgCqAzZndACShC2hkqAZuaA4dJiLeKLA2dGU5AhungLZyCeQwPAOCAACQAACACAQAASAAAQAQAAAAAAAAA==
> <PUBCHEM_IUPAC_OPENEYE_NAME>
(4R,5S,6S,7R)-1-[[3-(1H-benzimidazol-2-ylmethylamino)-4-fluoro-phenyl]methyl]-4,7-dibenzyl-5,6-dihydroxy-3-(1H-indazol-5-ylmethyl)-1,3-diazepan-2-one
> <PUBCHEM_IUPAC_CAS_NAME>
(4R,5S,6S,7R)-1-[[3-(1H-benzimidazol-2-ylmethylamino)-4-fluorophenyl]methyl]-5,6-dihydroxy-3-(1H-indazol-5-ylmethyl)-4,7-bis(phenylmethyl)-1,3-diazepan-2-one
> <PUBCHEM_IUPAC_NAME_MARKUP>
(4<I>R</I>,5<I>S</I>,6<I>S</I>,7<I>R</I>)-1-[[3-(1<I>H</I>-benzimidazol-2-ylmethylamino)-4-fluorophenyl]methyl]-4,7-dibenzyl-5,6-dihydroxy-3-(1<I>H</I>-indazol-5-ylmethyl)-1,3-diazepan-2-one
> <PUBCHEM_IUPAC_NAME>
(4R,5S,6S,7R)-1-[[3-(1H-benzimidazol-2-ylmethylamino)-4-fluorophenyl]methyl]-4,7-dibenzyl-5,6-dihydroxy-3-(1H-indazol-5-ylmethyl)-1,3-diazepan-2-one
> <PUBCHEM_IUPAC_SYSTEMATIC_NAME>
(4R,5S,6S,7R)-1-[[3-(1H-benzimidazol-2-ylmethylamino)-4-fluoranyl-phenyl]methyl]-3-(1H-indazol-5-ylmethyl)-5,6-bis(oxidanyl)-4,7-bis(phenylmethyl)-1,3-diazepan-2-one
> <PUBCHEM_IUPAC_TRADITIONAL_NAME>
(4R,5S,6S,7R)-1-[3-(1H-benzimidazol-2-ylmethylamino)-4-fluoro-benzyl]-4,7-dibenzyl-5,6-dihydroxy-3-(1H-indazol-5-ylmethyl)-1,3-diazepan-2-one
> <PUBCHEM_IUPAC_INCHI>
InChI=1S/C42H40FN7O3/c43-32-17-15-30(20-36(32)44-24-39-46-34-13-7-8-14-35(34)47-39)26-50-38(22-28-11-5-2-6-12-28)41(52)40(51)37(21-27-9-3-1-4-10-27)49(42(50)53)25-29-16-18-33-31(19-29)23-45-48-33/h1-20,23,37-38,40-41,44,51-52H,21-22,24-26H2,(H,45,48)(H,46,47)/t37-,38-,40+,41+/m1/s1
> <PUBCHEM_IUPAC_INCHIKEY>
PVRCWMUDFFKIAS-ZAGYQXHLSA-N
> <PUBCHEM_XLOGP3_AA>
6.1
> <PUBCHEM_EXACT_MASS>
709.31766633
> <PUBCHEM_MOLECULAR_FORMULA>
C42H40FN7O3
> <PUBCHEM_MOLECULAR_WEIGHT>
709.8
> <PUBCHEM_OPENEYE_CAN_SMILES>
C1=CC=C(C=C1)CC2C(C(C(N(C(=O)N2CC3=CC4=C(C=C3)NN=C4)CC5=CC(=C(C=C5)F)NCC6=NC7=CC=CC=C7N6)CC8=CC=CC=C8)O)O
> <PUBCHEM_OPENEYE_ISO_SMILES>
C1=CC=C(C=C1)C[C@@H]2[C@@H]([C@H]([C@H](N(C(=O)N2CC3=CC4=C(C=C3)NN=C4)CC5=CC(=C(C=C5)F)NCC6=NC7=CC=CC=C7N6)CC8=CC=CC=C8)O)O
> <PUBCHEM_CACTVS_TPSA>
133
> <PUBCHEM_MONOISOTOPIC_WEIGHT>
709.31766633
> <PUBCHEM_TOTAL_CHARGE>
0
> <PUBCHEM_HEAVY_ATOM_COUNT>
53
> <PUBCHEM_ATOM_DEF_STEREO_COUNT>
4
> <PUBCHEM_ATOM_UDEF_STEREO_COUNT>
0
> <PUBCHEM_BOND_DEF_STEREO_COUNT>
0
> <PUBCHEM_BOND_UDEF_STEREO_COUNT>
0
> <PUBCHEM_ISOTOPIC_ATOM_COUNT>
0
> <PUBCHEM_COMPONENT_COUNT>
1
> <PUBCHEM_CACTVS_TAUTO_COUNT>
-1
> <PUBCHEM_COORDINATE_TYPE>
1
5
255
> <PUBCHEM_BONDANNOTATIONS>
10  47  8
10  48  8
11  47  8
11  49  8
12  16  5
13  17  6
14  2  5
21  25  8
21  26  8
22  27  8
22  28  8
23  29  8
23  30  8
24  31  8
24  32  8
25  34  8
26  35  8
27  36  8
28  37  8
29  33  8
15  3  6
30  39  8
31  38  8
32  41  8
33  40  8
33  45  8
34  42  8
35  42  8
36  43  8
37  43  8
38  44  8
39  40  8
41  44  8
48  49  8
48  50  8
49  51  8
50  52  8
51  53  8
52  53  8
8  40  8
8  9  8
9  45  8
$$$$
