515832
  -OEChem-10302200282D
 96100  0     1  0  0  0  0  0999 V2000
    9.6448    2.8739    0.0000 S   0  0  0  0  0  0  0  0  0  0  0  0
   10.7078   -0.8692    0.0000 S   0  0  0  0  0  0  0  0  0  0  0  0
    4.5981    2.5375    0.0000 O   0  0  0  0  0  0  0  0  0  0  0  0
    4.5981   -3.4625    0.0000 O   0  0  0  0  0  0  0  0  0  0  0  0
    5.4641   -0.9625    0.0000 O   0  0  0  0  0  0  0  0  0  0  0  0
    8.0622   -0.4625    0.0000 O   0  0  0  0  0  0  0  0  0  0  0  0
    6.3301   -0.4625    0.0000 O   0  0  0  0  0  0  0  0  0  0  0  0
    6.3301    2.5375    0.0000 N   0  0  0  0  0  0  0  0  0  0  0  0
    5.4641    1.0375    0.0000 N   0  0  0  0  0  0  0  0  0  0  0  0
    3.7320   -0.9625    0.0000 N   0  0  0  0  0  0  0  0  0  0  0  0
    8.1667    3.5320    0.0000 N   0  0  0  0  0  0  0  0  0  0  0  0
    7.1962   -1.9625    0.0000 N   0  0  0  0  0  0  0  0  0  0  0  0
   10.8769    0.7399    0.0000 N   0  0  0  0  0  0  0  0  0  0  0  0
    6.3301    3.5375    0.0000 C   0  0  0  0  0  0  0  0  0  0  0  0
    6.8301    4.4035    0.0000 C   0  0  0  0  0  0  0  0  0  0  0  0
    5.8301    4.4035    0.0000 C   0  0  0  0  0  0  0  0  0  0  0  0
    7.1962    2.0375    0.0000 C   0  0  0  0  0  0  0  0  0  0  0  0
    5.4641    2.0375    0.0000 C   0  0  0  0  0  0  0  0  0  0  0  0
    8.0622    2.5375    0.0000 C   0  0  0  0  0  0  0  0  0  0  0  0
    4.5981    0.5375    0.0000 C   0  0  2  0  0  0  0  0  0  0  0  0
    3.7320   -1.9625    0.0000 C   0  0  2  0  0  0  0  0  0  0  0  0
    4.5981   -2.4625    0.0000 C   0  0  2  0  0  0  0  0  0  0  0  0
    5.4641   -1.9625    0.0000 C   0  0  0  0  0  0  0  0  0  0  0  0
    6.3301   -2.4625    0.0000 C   0  0  2  0  0  0  0  0  0  0  0  0
    4.5981   -0.4625    0.0000 C   0  0  0  0  0  0  0  0  0  0  0  0
    8.9757    2.1308    0.0000 C   0  0  0  0  0  0  0  0  0  0  0  0
    2.8660   -2.4625    0.0000 C   0  0  0  0  0  0  0  0  0  0  0  0
    3.7320    1.0375    0.0000 C   0  0  0  0  0  0  0  0  0  0  0  0
    9.1448    3.7399    0.0000 C   0  0  0  0  0  0  0  0  0  0  0  0
    6.3301   -3.4625    0.0000 C   0  0  0  0  0  0  0  0  0  0  0  0
    2.8660   -3.4625    0.0000 C   0  0  0  0  0  0  0  0  0  0  0  0
    9.5516    4.6535    0.0000 C   0  0  0  0  0  0  0  0  0  0  0  0
    7.1962   -3.9625    0.0000 C   0  0  0  0  0  0  0  0  0  0  0  0
    3.7320   -3.9625    0.0000 C   0  0  0  0  0  0  0  0  0  0  0  0
    2.0000   -3.9625    0.0000 C   0  0  0  0  0  0  0  0  0  0  0  0
   10.5461    4.7580    0.0000 C   0  0  0  0  0  0  0  0  0  0  0  0
    8.9638    5.4625    0.0000 C   0  0  0  0  0  0  0  0  0  0  0  0
    7.1962   -0.9625    0.0000 C   0  0  0  0  0  0  0  0  0  0  0  0
    8.0622   -3.4625    0.0000 C   0  0  0  0  0  0  0  0  0  0  0  0
    7.1962   -4.9625    0.0000 C   0  0  0  0  0  0  0  0  0  0  0  0
    3.7320   -4.9625    0.0000 C   0  0  0  0  0  0  0  0  0  0  0  0
    2.0000   -4.9625    0.0000 C   0  0  0  0  0  0  0  0  0  0  0  0
    2.8660   -5.4625    0.0000 C   0  0  0  0  0  0  0  0  0  0  0  0
    8.9282   -3.9625    0.0000 C   0  0  0  0  0  0  0  0  0  0  0  0
    8.0622   -5.4625    0.0000 C   0  0  0  0  0  0  0  0  0  0  0  0
    8.9282   -4.9625    0.0000 C   0  0  0  0  0  0  0  0  0  0  0  0
    8.9282   -0.9625    0.0000 C   0  0  0  0  0  0  0  0  0  0  0  0
    9.7942   -0.4625    0.0000 C   0  0  0  0  0  0  0  0  0  0  0  0
    9.8988    0.5320    0.0000 C   0  0  0  0  0  0  0  0  0  0  0  0
   11.3769   -0.1261    0.0000 C   0  0  0  0  0  0  0  0  0  0  0  0
    6.9290    3.3770    0.0000 H   0  0  0  0  0  0  0  0  0  0  0  0
    7.4127    4.1915    0.0000 H   0  0  0  0  0  0  0  0  0  0  0  0
    6.9378    5.0141    0.0000 H   0  0  0  0  0  0  0  0  0  0  0  0
    5.7225    5.0141    0.0000 H   0  0  0  0  0  0  0  0  0  0  0  0
    5.2475    4.1915    0.0000 H   0  0  0  0  0  0  0  0  0  0  0  0
    6.7976    1.5626    0.0000 H   0  0  0  0  0  0  0  0  0  0  0  0
    7.5947    1.5626    0.0000 H   0  0  0  0  0  0  0  0  0  0  0  0
    6.0010    0.7275    0.0000 H   0  0  0  0  0  0  0  0  0  0  0  0
    4.5981    1.1575    0.0000 H   0  0  0  0  0  0  0  0  0  0  0  0
    4.2690   -1.6525    0.0000 H   0  0  0  0  0  0  0  0  0  0  0  0
    5.1350   -2.7725    0.0000 H   0  0  0  0  0  0  0  0  0  0  0  0
    5.8626   -1.4876    0.0000 H   0  0  0  0  0  0  0  0  0  0  0  0
    5.0656   -1.4876    0.0000 H   0  0  0  0  0  0  0  0  0  0  0  0
    6.8671   -2.7725    0.0000 H   0  0  0  0  0  0  0  0  0  0  0  0
    9.1046    1.5243    0.0000 H   0  0  0  0  0  0  0  0  0  0  0  0
    3.1951   -0.6525    0.0000 H   0  0  0  0  0  0  0  0  0  0  0  0
    2.6540   -1.8799    0.0000 H   0  0  0  0  0  0  0  0  0  0  0  0
    2.2554   -2.5702    0.0000 H   0  0  0  0  0  0  0  0  0  0  0  0
    4.0420    1.5744    0.0000 H   0  0  0  0  0  0  0  0  0  0  0  0
    3.1951    1.3475    0.0000 H   0  0  0  0  0  0  0  0  0  0  0  0
    3.4220    0.5006    0.0000 H   0  0  0  0  0  0  0  0  0  0  0  0
    5.7196   -3.3548    0.0000 H   0  0  0  0  0  0  0  0  0  0  0  0
    6.1181   -4.0451    0.0000 H   0  0  0  0  0  0  0  0  0  0  0  0
    9.9160    4.1519    0.0000 H   0  0  0  0  0  0  0  0  0  0  0  0
    7.7331   -2.2725    0.0000 H   0  0  0  0  0  0  0  0  0  0  0  0
    5.1350   -3.7725    0.0000 H   0  0  0  0  0  0  0  0  0  0  0  0
    4.2690   -3.6525    0.0000 H   0  0  0  0  0  0  0  0  0  0  0  0
    1.4631   -3.6525    0.0000 H   0  0  0  0  0  0  0  0  0  0  0  0
   10.6109    4.1414    0.0000 H   0  0  0  0  0  0  0  0  0  0  0  0
   11.1627    4.8228    0.0000 H   0  0  0  0  0  0  0  0  0  0  0  0
   10.4813    5.3746    0.0000 H   0  0  0  0  0  0  0  0  0  0  0  0
    9.4654    5.8269    0.0000 H   0  0  0  0  0  0  0  0  0  0  0  0
    8.5994    5.9641    0.0000 H   0  0  0  0  0  0  0  0  0  0  0  0
    8.4622    5.0981    0.0000 H   0  0  0  0  0  0  0  0  0  0  0  0
    8.0622   -2.8425    0.0000 H   0  0  0  0  0  0  0  0  0  0  0  0
    6.6592   -5.2725    0.0000 H   0  0  0  0  0  0  0  0  0  0  0  0
    4.2690   -5.2725    0.0000 H   0  0  0  0  0  0  0  0  0  0  0  0
    1.4631   -5.2725    0.0000 H   0  0  0  0  0  0  0  0  0  0  0  0
    2.8660   -6.0825    0.0000 H   0  0  0  0  0  0  0  0  0  0  0  0
    9.4651   -3.6525    0.0000 H   0  0  0  0  0  0  0  0  0  0  0  0
    8.0622   -6.0825    0.0000 H   0  0  0  0  0  0  0  0  0  0  0  0
    9.4651   -5.2725    0.0000 H   0  0  0  0  0  0  0  0  0  0  0  0
    8.5297   -1.4374    0.0000 H   0  0  0  0  0  0  0  0  0  0  0  0
    9.3267   -1.4374    0.0000 H   0  0  0  0  0  0  0  0  0  0  0  0
    9.4380    0.9469    0.0000 H   0  0  0  0  0  0  0  0  0  0  0  0
   11.9935   -0.1909    0.0000 H   0  0  0  0  0  0  0  0  0  0  0  0
  1 26  1  0  0  0  0
  1 29  1  0  0  0  0
  2 48  1  0  0  0  0
  2 50  1  0  0  0  0
  3 18  2  0  0  0  0
 22  4  1  6  0  0  0
  4 76  1  0  0  0  0
  5 25  2  0  0  0  0
  6 38  1  0  0  0  0
  6 47  1  0  0  0  0
  7 38  2  0  0  0  0
  8 14  1  0  0  0  0
  8 17  1  0  0  0  0
  8 18  1  0  0  0  0
  9 18  1  0  0  0  0
 20  9  1  6  0  0  0
  9 58  1  0  0  0  0
 21 10  1  6  0  0  0
 10 25  1  0  0  0  0
 10 66  1  0  0  0  0
 11 19  1  0  0  0  0
 11 29  2  0  0  0  0
 24 12  1  1  0  0  0
 12 38  1  0  0  0  0
 12 75  1  0  0  0  0
 13 49  1  0  0  0  0
 13 50  2  0  0  0  0
 14 15  1  0  0  0  0
 14 16  1  0  0  0  0
 14 51  1  0  0  0  0
 15 16  1  0  0  0  0
 15 52  1  0  0  0  0
 15 53  1  0  0  0  0
 16 54  1  0  0  0  0
 16 55  1  0  0  0  0
 17 19  1  0  0  0  0
 17 56  1  0  0  0  0
 17 57  1  0  0  0  0
 19 26  2  0  0  0  0
 20 25  1  0  0  0  0
 20 28  1  0  0  0  0
 20 59  1  0  0  0  0
 21 22  1  0  0  0  0
 21 27  1  0  0  0  0
 21 60  1  0  0  0  0
 22 23  1  0  0  0  0
 22 61  1  0  0  0  0
 23 24  1  0  0  0  0
 23 62  1  0  0  0  0
 23 63  1  0  0  0  0
 24 30  1  0  0  0  0
 24 64  1  0  0  0  0
 26 65  1  0  0  0  0
 27 31  1  0  0  0  0
 27 67  1  0  0  0  0
 27 68  1  0  0  0  0
 28 69  1  0  0  0  0
 28 70  1  0  0  0  0
 28 71  1  0  0  0  0
 29 32  1  0  0  0  0
 30 33  1  0  0  0  0
 30 72  1  0  0  0  0
 30 73  1  0  0  0  0
 31 34  2  0  0  0  0
 31 35  1  0  0  0  0
 32 36  1  0  0  0  0
 32 37  1  0  0  0  0
 32 74  1  0  0  0  0
 33 39  2  0  0  0  0
 33 40  1  0  0  0  0
 34 41  1  0  0  0  0
 34 77  1  0  0  0  0
 35 42  2  0  0  0  0
 35 78  1  0  0  0  0
 36 79  1  0  0  0  0
 36 80  1  0  0  0  0
 36 81  1  0  0  0  0
 37 82  1  0  0  0  0
 37 83  1  0  0  0  0
 37 84  1  0  0  0  0
 39 44  1  0  0  0  0
 39 85  1  0  0  0  0
 40 45  2  0  0  0  0
 40 86  1  0  0  0  0
 41 43  2  0  0  0  0
 41 87  1  0  0  0  0
 42 43  1  0  0  0  0
 42 88  1  0  0  0  0
 43 89  1  0  0  0  0
 44 46  2  0  0  0  0
 44 90  1  0  0  0  0
 45 46  1  0  0  0  0
 45 91  1  0  0  0  0
 46 92  1  0  0  0  0
 47 48  1  0  0  0  0
 47 93  1  0  0  0  0
 47 94  1  0  0  0  0
 48 49  2  0  0  0  0
 49 95  1  0  0  0  0
 50 96  1  0  0  0  0
M  END
> <PUBCHEM_COMPOUND_CID>
515832
> <PUBCHEM_COMPOUND_CANONICALIZED>
1
> <PUBCHEM_CACTVS_COMPLEXITY>
1070
> <PUBCHEM_CACTVS_HBOND_ACCEPTOR>
9
> <PUBCHEM_CACTVS_HBOND_DONOR>
4
> <PUBCHEM_CACTVS_ROTATABLE_BOND>
18
> <PUBCHEM_CACTVS_SUBSKEYS>
AAADcfB/uABgAAAAAAAAAAAAGAAAAWLAAAAwYAAAAAAAAAAB9AAAHgQQCAAADTzl3ga/iZPIFgisAzV3XACC8KBxCjhI2J24bImKdCLgsTmcYAgulgL4qAeQwPAOAAAAAAAAAAAAAAAAAAAAAAAAAAAAAA==
> <PUBCHEM_IUPAC_OPENEYE_NAME>
thiazol-5-ylmethyl N-[(1S,3S,4S)-1-benzyl-4-[[(2S)-2-[[cyclopropyl-[(2-isopropylthiazol-4-yl)methyl]carbamoyl]amino]propanoyl]amino]-3-hydroxy-5-phenyl-pentyl]carbamate
> <PUBCHEM_IUPAC_CAS_NAME>
N-[(2S,4S,5S)-5-[[(2S)-2-[[[cyclopropyl-[(2-propan-2-yl-4-thiazolyl)methyl]amino]-oxomethyl]amino]-1-oxopropyl]amino]-4-hydroxy-1,6-diphenylhexan-2-yl]carbamic acid 5-thiazolylmethyl ester
> <PUBCHEM_IUPAC_NAME_MARKUP>
1,3-thiazol-5-ylmethyl <I>N</I>-[(2<I>S</I>,4<I>S</I>,5<I>S</I>)-5-[[(2<I>S</I>)-2-[[cyclopropyl-[(2-propan-2-yl-1,3-thiazol-4-yl)methyl]carbamoyl]amino]propanoyl]amino]-4-hydroxy-1,6-diphenylhexan-2-yl]carbamate
> <PUBCHEM_IUPAC_NAME>
1,3-thiazol-5-ylmethyl N-[(2S,4S,5S)-5-[[(2S)-2-[[cyclopropyl-[(2-propan-2-yl-1,3-thiazol-4-yl)methyl]carbamoyl]amino]propanoyl]amino]-4-hydroxy-1,6-diphenylhexan-2-yl]carbamate
> <PUBCHEM_IUPAC_SYSTEMATIC_NAME>
1,3-thiazol-5-ylmethyl N-[(2S,4S,5S)-5-[[(2S)-2-[[cyclopropyl-[(2-propan-2-yl-1,3-thiazol-4-yl)methyl]carbamoyl]amino]propanoyl]amino]-4-oxidanyl-1,6-diphenyl-hexan-2-yl]carbamate
> <PUBCHEM_IUPAC_TRADITIONAL_NAME>
N-[(1S,3S,4S)-1-benzyl-4-[[(2S)-2-[[cyclopropyl-[(2-isopropylthiazol-4-yl)methyl]carbamoyl]amino]propanoyl]amino]-3-hydroxy-5-phenyl-pentyl]carbamic acid thiazol-5-ylmethyl ester
> <PUBCHEM_IUPAC_INCHI>
InChI=1S/C37H46N6O5S2/c1-24(2)35-40-29(22-49-35)20-43(30-14-15-30)36(46)39-25(3)34(45)42-32(17-27-12-8-5-9-13-27)33(44)18-28(16-26-10-6-4-7-11-26)41-37(47)48-21-31-19-38-23-50-31/h4-13,19,22-25,28,30,32-33,44H,14-18,20-21H2,1-3H3,(H,39,46)(H,41,47)(H,42,45)/t25-,28-,32-,33-/m0/s1
> <PUBCHEM_IUPAC_INCHIKEY>
SWLBTNDGQVBECT-KONZEVEYSA-N
> <PUBCHEM_XLOGP3_AA>
5.6
> <PUBCHEM_EXACT_MASS>
718.29711094
> <PUBCHEM_MOLECULAR_FORMULA>
C37H46N6O5S2
> <PUBCHEM_MOLECULAR_WEIGHT>
718.9
> <PUBCHEM_OPENEYE_CAN_SMILES>
CC(C)C1=NC(=CS1)CN(C2CC2)C(=O)NC(C)C(=O)NC(CC3=CC=CC=C3)C(CC(CC4=CC=CC=C4)NC(=O)OCC5=CN=CS5)O
> <PUBCHEM_OPENEYE_ISO_SMILES>
C[C@@H](C(=O)N[C@@H](CC1=CC=CC=C1)[C@H](C[C@H](CC2=CC=CC=C2)NC(=O)OCC3=CN=CS3)O)NC(=O)N(CC4=CSC(=N4)C(C)C)C5CC5
> <PUBCHEM_CACTVS_TPSA>
202
> <PUBCHEM_MONOISOTOPIC_WEIGHT>
718.29711094
> <PUBCHEM_TOTAL_CHARGE>
0
> <PUBCHEM_HEAVY_ATOM_COUNT>
50
> <PUBCHEM_ATOM_DEF_STEREO_COUNT>
4
> <PUBCHEM_ATOM_UDEF_STEREO_COUNT>
0
> <PUBCHEM_BOND_DEF_STEREO_COUNT>
0
> <PUBCHEM_BOND_UDEF_STEREO_COUNT>
0
> <PUBCHEM_ISOTOPIC_ATOM_COUNT>
0
> <PUBCHEM_COMPONENT_COUNT>
1
> <PUBCHEM_CACTVS_TAUTO_COUNT>
-1
> <PUBCHEM_COORDINATE_TYPE>
1
5
255
> <PUBCHEM_BONDANNOTATIONS>
1  26  8
1  29  8
21  10  6
11  19  8
11  29  8
24  12  5
13  49  8
13  50  8
19  26  8
2  48  8
2  50  8
31  34  8
31  35  8
33  39  8
33  40  8
34  41  8
35  42  8
39  44  8
22  4  6
40  45  8
41  43  8
42  43  8
44  46  8
45  46  8
48  49  8
20  9  6
$$$$
