515805
  -OEChem-10302200282D
104107  0     1  0  0  0  0  0999 V2000
    4.5981   -3.3632    0.0000 O   0  0  0  0  0  0  0  0  0  0  0  0
    5.4641   -0.8632    0.0000 O   0  0  0  0  0  0  0  0  0  0  0  0
    8.0622   -0.3632    0.0000 O   0  0  0  0  0  0  0  0  0  0  0  0
    6.3301   -0.3632    0.0000 O   0  0  0  0  0  0  0  0  0  0  0  0
    8.2788    5.3392    0.0000 O   0  0  0  0  0  0  0  0  0  0  0  0
    4.5981    2.6368    0.0000 O   0  0  0  0  0  0  0  0  0  0  0  0
    3.7320   -0.8632    0.0000 N   0  0  0  0  0  0  0  0  0  0  0  0
    7.1962   -1.8632    0.0000 N   0  0  0  0  0  0  0  0  0  0  0  0
    5.4641    1.1368    0.0000 N   0  0  0  0  0  0  0  0  0  0  0  0
    6.3301    2.6368    0.0000 N   0  0  0  0  0  0  0  0  0  0  0  0
    7.3007    5.1313    0.0000 N   0  0  0  0  0  0  0  0  0  0  0  0
   11.5263   -0.3632    0.0000 N   0  0  0  0  0  0  0  0  0  0  0  0
    3.7320   -1.8632    0.0000 C   0  0  2  0  0  0  0  0  0  0  0  0
    4.5981   -2.3632    0.0000 C   0  0  2  0  0  0  0  0  0  0  0  0
    5.4641   -1.8632    0.0000 C   0  0  0  0  0  0  0  0  0  0  0  0
    6.3301   -2.3632    0.0000 C   0  0  2  0  0  0  0  0  0  0  0  0
    2.8660   -2.3632    0.0000 C   0  0  0  0  0  0  0  0  0  0  0  0
    6.3301   -3.3632    0.0000 C   0  0  0  0  0  0  0  0  0  0  0  0
    4.5981    0.6368    0.0000 C   0  0  2  0  0  0  0  0  0  0  0  0
    4.5981   -0.3632    0.0000 C   0  0  0  0  0  0  0  0  0  0  0  0
    3.7320    1.1368    0.0000 C   0  0  0  0  0  0  0  0  0  0  0  0
    2.8660   -3.3632    0.0000 C   0  0  0  0  0  0  0  0  0  0  0  0
    7.1962   -3.8632    0.0000 C   0  0  0  0  0  0  0  0  0  0  0  0
    3.7320    2.1368    0.0000 C   0  0  0  0  0  0  0  0  0  0  0  0
    2.8660    0.6368    0.0000 C   0  0  0  0  0  0  0  0  0  0  0  0
    3.7320   -3.8632    0.0000 C   0  0  0  0  0  0  0  0  0  0  0  0
    2.0000   -3.8632    0.0000 C   0  0  0  0  0  0  0  0  0  0  0  0
    7.1962   -0.8632    0.0000 C   0  0  0  0  0  0  0  0  0  0  0  0
    8.0622   -3.3632    0.0000 C   0  0  0  0  0  0  0  0  0  0  0  0
    7.1962   -4.8632    0.0000 C   0  0  0  0  0  0  0  0  0  0  0  0
    5.4641    2.1368    0.0000 C   0  0  0  0  0  0  0  0  0  0  0  0
    9.7734    4.3687    0.0000 C   0  0  0  0  0  0  0  0  0  0  0  0
    3.7320   -4.8632    0.0000 C   0  0  0  0  0  0  0  0  0  0  0  0
    2.0000   -4.8632    0.0000 C   0  0  0  0  0  0  0  0  0  0  0  0
    6.3301    3.6368    0.0000 C   0  0  0  0  0  0  0  0  0  0  0  0
    2.8660   -5.3632    0.0000 C   0  0  0  0  0  0  0  0  0  0  0  0
    8.9282   -3.8632    0.0000 C   0  0  0  0  0  0  0  0  0  0  0  0
    8.0622   -5.3632    0.0000 C   0  0  0  0  0  0  0  0  0  0  0  0
    8.7788    4.4732    0.0000 C   0  0  0  0  0  0  0  0  0  0  0  0
    7.1962    4.1368    0.0000 C   0  0  0  0  0  0  0  0  0  0  0  0
    8.9282   -4.8632    0.0000 C   0  0  0  0  0  0  0  0  0  0  0  0
    8.1097    3.7301    0.0000 C   0  0  0  0  0  0  0  0  0  0  0  0
   10.7679    4.2642    0.0000 C   0  0  0  0  0  0  0  0  0  0  0  0
    9.8779    5.3632    0.0000 C   0  0  0  0  0  0  0  0  0  0  0  0
    9.6688    3.3742    0.0000 C   0  0  0  0  0  0  0  0  0  0  0  0
    7.1962    2.1368    0.0000 C   0  0  0  0  0  0  0  0  0  0  0  0
    8.9282   -0.8632    0.0000 C   0  0  0  0  0  0  0  0  0  0  0  0
    9.7942   -0.3632    0.0000 C   0  0  0  0  0  0  0  0  0  0  0  0
    9.7942    0.6368    0.0000 C   0  0  0  0  0  0  0  0  0  0  0  0
   10.6603   -0.8632    0.0000 C   0  0  0  0  0  0  0  0  0  0  0  0
   10.6603    1.1368    0.0000 C   0  0  0  0  0  0  0  0  0  0  0  0
   11.5263    0.6368    0.0000 C   0  0  0  0  0  0  0  0  0  0  0  0
    3.1951   -1.5532    0.0000 H   0  0  0  0  0  0  0  0  0  0  0  0
    4.0611   -2.6732    0.0000 H   0  0  0  0  0  0  0  0  0  0  0  0
    5.8626   -1.3882    0.0000 H   0  0  0  0  0  0  0  0  0  0  0  0
    5.0656   -1.3882    0.0000 H   0  0  0  0  0  0  0  0  0  0  0  0
    6.8671   -2.6732    0.0000 H   0  0  0  0  0  0  0  0  0  0  0  0
    2.6540   -1.7806    0.0000 H   0  0  0  0  0  0  0  0  0  0  0  0
    2.2554   -2.4709    0.0000 H   0  0  0  0  0  0  0  0  0  0  0  0
    3.1951   -0.5532    0.0000 H   0  0  0  0  0  0  0  0  0  0  0  0
    5.7196   -3.2555    0.0000 H   0  0  0  0  0  0  0  0  0  0  0  0
    6.1181   -3.9458    0.0000 H   0  0  0  0  0  0  0  0  0  0  0  0
    4.5981    1.2568    0.0000 H   0  0  0  0  0  0  0  0  0  0  0  0
    3.7320    0.5168    0.0000 H   0  0  0  0  0  0  0  0  0  0  0  0
    7.7331   -2.1732    0.0000 H   0  0  0  0  0  0  0  0  0  0  0  0
    5.1350   -3.6732    0.0000 H   0  0  0  0  0  0  0  0  0  0  0  0
    6.0010    0.8268    0.0000 H   0  0  0  0  0  0  0  0  0  0  0  0
    4.3520    2.1368    0.0000 H   0  0  0  0  0  0  0  0  0  0  0  0
    3.7320    2.7568    0.0000 H   0  0  0  0  0  0  0  0  0  0  0  0
    3.1120    2.1368    0.0000 H   0  0  0  0  0  0  0  0  0  0  0  0
    2.5560    1.1737    0.0000 H   0  0  0  0  0  0  0  0  0  0  0  0
    2.3291    0.3268    0.0000 H   0  0  0  0  0  0  0  0  0  0  0  0
    3.1760    0.0999    0.0000 H   0  0  0  0  0  0  0  0  0  0  0  0
    4.2690   -3.5532    0.0000 H   0  0  0  0  0  0  0  0  0  0  0  0
    1.4631   -3.5532    0.0000 H   0  0  0  0  0  0  0  0  0  0  0  0
    8.0622   -2.7432    0.0000 H   0  0  0  0  0  0  0  0  0  0  0  0
    6.6592   -5.1732    0.0000 H   0  0  0  0  0  0  0  0  0  0  0  0
    4.2690   -5.1732    0.0000 H   0  0  0  0  0  0  0  0  0  0  0  0
    1.4631   -5.1732    0.0000 H   0  0  0  0  0  0  0  0  0  0  0  0
    6.1181    4.2194    0.0000 H   0  0  0  0  0  0  0  0  0  0  0  0
    5.7196    3.5291    0.0000 H   0  0  0  0  0  0  0  0  0  0  0  0
    2.8660   -5.9832    0.0000 H   0  0  0  0  0  0  0  0  0  0  0  0
    9.4651   -3.5532    0.0000 H   0  0  0  0  0  0  0  0  0  0  0  0
    8.0622   -5.9832    0.0000 H   0  0  0  0  0  0  0  0  0  0  0  0
    9.4651   -5.1732    0.0000 H   0  0  0  0  0  0  0  0  0  0  0  0
    8.2386    3.1236    0.0000 H   0  0  0  0  0  0  0  0  0  0  0  0
   10.7031    3.6476    0.0000 H   0  0  0  0  0  0  0  0  0  0  0  0
   11.3845    4.1993    0.0000 H   0  0  0  0  0  0  0  0  0  0  0  0
   10.8327    4.8808    0.0000 H   0  0  0  0  0  0  0  0  0  0  0  0
   10.4945    5.2984    0.0000 H   0  0  0  0  0  0  0  0  0  0  0  0
    9.9427    5.9798    0.0000 H   0  0  0  0  0  0  0  0  0  0  0  0
    9.2613    5.4280    0.0000 H   0  0  0  0  0  0  0  0  0  0  0  0
    9.0522    3.4390    0.0000 H   0  0  0  0  0  0  0  0  0  0  0  0
    9.6040    2.7576    0.0000 H   0  0  0  0  0  0  0  0  0  0  0  0
   10.2854    3.3094    0.0000 H   0  0  0  0  0  0  0  0  0  0  0  0
    6.8862    1.5999    0.0000 H   0  0  0  0  0  0  0  0  0  0  0  0
    7.7331    1.8268    0.0000 H   0  0  0  0  0  0  0  0  0  0  0  0
    7.5062    2.6737    0.0000 H   0  0  0  0  0  0  0  0  0  0  0  0
    8.5297   -1.3382    0.0000 H   0  0  0  0  0  0  0  0  0  0  0  0
    9.3267   -1.3382    0.0000 H   0  0  0  0  0  0  0  0  0  0  0  0
    9.2573    0.9468    0.0000 H   0  0  0  0  0  0  0  0  0  0  0  0
   10.6603   -1.4832    0.0000 H   0  0  0  0  0  0  0  0  0  0  0  0
   10.6603    1.7568    0.0000 H   0  0  0  0  0  0  0  0  0  0  0  0
   12.0632    0.9468    0.0000 H   0  0  0  0  0  0  0  0  0  0  0  0
 14  1  1  6  0  0  0
  1 66  1  0  0  0  0
  2 20  2  0  0  0  0
  3 28  1  0  0  0  0
  3 47  1  0  0  0  0
  4 28  2  0  0  0  0
  5 11  1  0  0  0  0
  5 39  1  0  0  0  0
  6 31  2  0  0  0  0
 13  7  1  6  0  0  0
  7 20  1  0  0  0  0
  7 60  1  0  0  0  0
 16  8  1  1  0  0  0
  8 28  1  0  0  0  0
  8 65  1  0  0  0  0
 19  9  1  6  0  0  0
  9 31  1  0  0  0  0
  9 67  1  0  0  0  0
 10 31  1  0  0  0  0
 10 35  1  0  0  0  0
 10 46  1  0  0  0  0
 11 40  2  0  0  0  0
 12 50  1  0  0  0  0
 12 52  2  0  0  0  0
 13 14  1  0  0  0  0
 13 17  1  0  0  0  0
 13 53  1  0  0  0  0
 14 15  1  0  0  0  0
 14 54  1  0  0  0  0
 15 16  1  0  0  0  0
 15 55  1  0  0  0  0
 15 56  1  0  0  0  0
 16 18  1  0  0  0  0
 16 57  1  0  0  0  0
 17 22  1  0  0  0  0
 17 58  1  0  0  0  0
 17 59  1  0  0  0  0
 18 23  1  0  0  0  0
 18 61  1  0  0  0  0
 18 62  1  0  0  0  0
 19 20  1  0  0  0  0
 19 21  1  0  0  0  0
 19 63  1  0  0  0  0
 21 24  1  0  0  0  0
 21 25  1  0  0  0  0
 21 64  1  0  0  0  0
 22 26  2  0  0  0  0
 22 27  1  0  0  0  0
 23 29  2  0  0  0  0
 23 30  1  0  0  0  0
 24 68  1  0  0  0  0
 24 69  1  0  0  0  0
 24 70  1  0  0  0  0
 25 71  1  0  0  0  0
 25 72  1  0  0  0  0
 25 73  1  0  0  0  0
 26 33  1  0  0  0  0
 26 74  1  0  0  0  0
 27 34  2  0  0  0  0
 27 75  1  0  0  0  0
 29 37  1  0  0  0  0
 29 76  1  0  0  0  0
 30 38  2  0  0  0  0
 30 77  1  0  0  0  0
 32 39  1  0  0  0  0
 32 43  1  0  0  0  0
 32 44  1  0  0  0  0
 32 45  1  0  0  0  0
 33 36  2  0  0  0  0
 33 78  1  0  0  0  0
 34 36  1  0  0  0  0
 34 79  1  0  0  0  0
 35 40  1  0  0  0  0
 35 80  1  0  0  0  0
 35 81  1  0  0  0  0
 36 82  1  0  0  0  0
 37 41  2  0  0  0  0
 37 83  1  0  0  0  0
 38 41  1  0  0  0  0
 38 84  1  0  0  0  0
 39 42  2  0  0  0  0
 40 42  1  0  0  0  0
 41 85  1  0  0  0  0
 42 86  1  0  0  0  0
 43 87  1  0  0  0  0
 43 88  1  0  0  0  0
 43 89  1  0  0  0  0
 44 90  1  0  0  0  0
 44 91  1  0  0  0  0
 44 92  1  0  0  0  0
 45 93  1  0  0  0  0
 45 94  1  0  0  0  0
 45 95  1  0  0  0  0
 46 96  1  0  0  0  0
 46 97  1  0  0  0  0
 46 98  1  0  0  0  0
 47 48  1  0  0  0  0
 47 99  1  0  0  0  0
 47100  1  0  0  0  0
 48 49  1  0  0  0  0
 48 50  2  0  0  0  0
 49 51  2  0  0  0  0
 49101  1  0  0  0  0
 50102  1  0  0  0  0
 51 52  1  0  0  0  0
 51103  1  0  0  0  0
 52104  1  0  0  0  0
M  END
> <PUBCHEM_COMPOUND_CID>
515805
> <PUBCHEM_COMPOUND_CANONICALIZED>
1
> <PUBCHEM_CACTVS_COMPLEXITY>
1090
> <PUBCHEM_CACTVS_HBOND_ACCEPTOR>
8
> <PUBCHEM_CACTVS_HBOND_DONOR>
4
> <PUBCHEM_CACTVS_ROTATABLE_BOND>
18
> <PUBCHEM_CACTVS_SUBSKEYS>
AAADcfB/uAAAAAAAAAAAAAAAAAAAAWAAAAA8YIAAAAAAAAAB9AAAHgAUCAAADzzhngY/jJPYFgCpA7V3XgCCgCA1IiAo2KG+bNuKdvrAsbuccYhu1hvY6Ue00PIPAAAAAAAAAAAAAAAAAAAAAAAAAAAAAA==
> <PUBCHEM_IUPAC_OPENEYE_NAME>
3-pyridylmethyl N-[(1S,3S,4S)-1-benzyl-4-[[(2S)-2-[[(5-tert-butylisoxazol-3-yl)methyl-methyl-carbamoyl]amino]-3-methyl-butanoyl]amino]-3-hydroxy-5-phenyl-pentyl]carbamate
> <PUBCHEM_IUPAC_CAS_NAME>
N-[(2S,4S,5S)-5-[[(2S)-2-[[[(5-tert-butyl-3-isoxazolyl)methyl-methylamino]-oxomethyl]amino]-3-methyl-1-oxobutyl]amino]-4-hydroxy-1,6-diphenylhexan-2-yl]carbamic acid 3-pyridinylmethyl ester
> <PUBCHEM_IUPAC_NAME_MARKUP>
pyridin-3-ylmethyl <I>N</I>-[(2<I>S</I>,4<I>S</I>,5<I>S</I>)-5-[[(2<I>S</I>)-2-[[(5-<I>tert</I>-butyl-1,2-oxazol-3-yl)methyl-methylcarbamoyl]amino]-3-methylbutanoyl]amino]-4-hydroxy-1,6-diphenylhexan-2-yl]carbamate
> <PUBCHEM_IUPAC_NAME>
pyridin-3-ylmethyl N-[(2S,4S,5S)-5-[[(2S)-2-[[(5-tert-butyl-1,2-oxazol-3-yl)methyl-methylcarbamoyl]amino]-3-methylbutanoyl]amino]-4-hydroxy-1,6-diphenylhexan-2-yl]carbamate
> <PUBCHEM_IUPAC_SYSTEMATIC_NAME>
pyridin-3-ylmethyl N-[(2S,4S,5S)-5-[[(2S)-2-[[(5-tert-butyl-1,2-oxazol-3-yl)methyl-methyl-carbamoyl]amino]-3-methyl-butanoyl]amino]-4-oxidanyl-1,6-diphenyl-hexan-2-yl]carbamate
> <PUBCHEM_IUPAC_TRADITIONAL_NAME>
N-[(1S,3S,4S)-1-benzyl-4-[[(2S)-2-[[(5-tert-butylisoxazol-3-yl)methyl-methyl-carbamoyl]amino]-3-methyl-butanoyl]amino]-3-hydroxy-5-phenyl-pentyl]carbamic acid 3-pyridylmethyl ester
> <PUBCHEM_IUPAC_INCHI>
InChI=1S/C40H52N6O6/c1-27(2)36(44-38(49)46(6)25-32-23-35(52-45-32)40(3,4)5)37(48)43-33(21-29-16-11-8-12-17-29)34(47)22-31(20-28-14-9-7-10-15-28)42-39(50)51-26-30-18-13-19-41-24-30/h7-19,23-24,27,31,33-34,36,47H,20-22,25-26H2,1-6H3,(H,42,50)(H,43,48)(H,44,49)/t31-,33-,34-,36-/m0/s1
> <PUBCHEM_IUPAC_INCHIKEY>
ZQRHHSGOXOYPLW-OMPCMIHXSA-N
> <PUBCHEM_XLOGP3_AA>
5.9
> <PUBCHEM_EXACT_MASS>
712.39483340
> <PUBCHEM_MOLECULAR_FORMULA>
C40H52N6O6
> <PUBCHEM_MOLECULAR_WEIGHT>
712.9
> <PUBCHEM_OPENEYE_CAN_SMILES>
CC(C)C(C(=O)NC(CC1=CC=CC=C1)C(CC(CC2=CC=CC=C2)NC(=O)OCC3=CN=CC=C3)O)NC(=O)N(C)CC4=NOC(=C4)C(C)(C)C
> <PUBCHEM_OPENEYE_ISO_SMILES>
CC(C)[C@@H](C(=O)N[C@@H](CC1=CC=CC=C1)[C@H](C[C@H](CC2=CC=CC=C2)NC(=O)OCC3=CN=CC=C3)O)NC(=O)N(C)CC4=NOC(=C4)C(C)(C)C
> <PUBCHEM_CACTVS_TPSA>
159
> <PUBCHEM_MONOISOTOPIC_WEIGHT>
712.39483340
> <PUBCHEM_TOTAL_CHARGE>
0
> <PUBCHEM_HEAVY_ATOM_COUNT>
52
> <PUBCHEM_ATOM_DEF_STEREO_COUNT>
4
> <PUBCHEM_ATOM_UDEF_STEREO_COUNT>
0
> <PUBCHEM_BOND_DEF_STEREO_COUNT>
0
> <PUBCHEM_BOND_UDEF_STEREO_COUNT>
0
> <PUBCHEM_ISOTOPIC_ATOM_COUNT>
0
> <PUBCHEM_COMPONENT_COUNT>
1
> <PUBCHEM_CACTVS_TAUTO_COUNT>
-1
> <PUBCHEM_COORDINATE_TYPE>
1
5
255
> <PUBCHEM_BONDANNOTATIONS>
14  1  6
11  40  8
12  50  8
12  52  8
22  26  8
22  27  8
23  29  8
23  30  8
26  33  8
27  34  8
29  37  8
30  38  8
33  36  8
34  36  8
37  41  8
38  41  8
39  42  8
40  42  8
48  49  8
48  50  8
49  51  8
5  11  8
5  39  8
51  52  8
13  7  6
16  8  5
19  9  6
$$$$
