515819
  -OEChem-10302200282D
 96100  0     1  0  0  0  0  0999 V2000
    8.7788    3.5312    0.0000 S   0  0  0  0  0  0  0  0  0  0  0  0
    9.8988   -0.3107    0.0000 S   0  0  0  0  0  0  0  0  0  0  0  0
    4.5981   -4.3052    0.0000 O   0  0  0  0  0  0  0  0  0  0  0  0
    5.4641   -1.8052    0.0000 O   0  0  0  0  0  0  0  0  0  0  0  0
    4.5981    1.6948    0.0000 O   0  0  0  0  0  0  0  0  0  0  0  0
    8.0622   -1.3052    0.0000 O   0  0  0  0  0  0  0  0  0  0  0  0
    6.3301   -1.3052    0.0000 O   0  0  0  0  0  0  0  0  0  0  0  0
    7.3007    4.1893    0.0000 N   0  0  0  0  0  0  0  0  0  0  0  0
    3.7320   -1.8052    0.0000 N   0  0  0  0  0  0  0  0  0  0  0  0
    6.3301    1.6948    0.0000 N   0  0  0  0  0  0  0  0  0  0  0  0
    7.1962   -2.8052    0.0000 N   0  0  0  0  0  0  0  0  0  0  0  0
    5.4641    0.1948    0.0000 N   0  0  0  0  0  0  0  0  0  0  0  0
   11.3769   -0.9688    0.0000 N   0  0  0  0  0  0  0  0  0  0  0  0
    8.6856    5.3107    0.0000 C   0  0  0  0  0  0  0  0  0  0  0  0
    9.4946    5.8985    0.0000 C   0  0  0  0  0  0  0  0  0  0  0  0
    8.5810    6.3052    0.0000 C   0  0  0  0  0  0  0  0  0  0  0  0
    8.2788    4.3972    0.0000 C   0  0  0  0  0  0  0  0  0  0  0  0
    3.7320   -2.8052    0.0000 C   0  0  2  0  0  0  0  0  0  0  0  0
    4.5981   -3.3052    0.0000 C   0  0  2  0  0  0  0  0  0  0  0  0
    5.4641   -2.8052    0.0000 C   0  0  0  0  0  0  0  0  0  0  0  0
    7.1962    3.1948    0.0000 C   0  0  0  0  0  0  0  0  0  0  0  0
    6.3301   -3.3052    0.0000 C   0  0  2  0  0  0  0  0  0  0  0  0
    2.8660   -3.3052    0.0000 C   0  0  0  0  0  0  0  0  0  0  0  0
    8.1097    2.7880    0.0000 C   0  0  0  0  0  0  0  0  0  0  0  0
    4.5981   -0.3052    0.0000 C   0  0  1  0  0  0  0  0  0  0  0  0
    6.3301    2.6948    0.0000 C   0  0  0  0  0  0  0  0  0  0  0  0
    6.3301   -4.3052    0.0000 C   0  0  0  0  0  0  0  0  0  0  0  0
    3.7320    0.1948    0.0000 C   0  0  0  0  0  0  0  0  0  0  0  0
    4.5981   -1.3052    0.0000 C   0  0  0  0  0  0  0  0  0  0  0  0
    2.8660   -4.3052    0.0000 C   0  0  0  0  0  0  0  0  0  0  0  0
    7.1962   -4.8052    0.0000 C   0  0  0  0  0  0  0  0  0  0  0  0
    5.4641    1.1948    0.0000 C   0  0  0  0  0  0  0  0  0  0  0  0
    3.7320    1.1948    0.0000 C   0  0  0  0  0  0  0  0  0  0  0  0
    2.8660   -0.3052    0.0000 C   0  0  0  0  0  0  0  0  0  0  0  0
    7.1962    1.1948    0.0000 C   0  0  0  0  0  0  0  0  0  0  0  0
    3.7320   -4.8052    0.0000 C   0  0  0  0  0  0  0  0  0  0  0  0
    2.0000   -4.8052    0.0000 C   0  0  0  0  0  0  0  0  0  0  0  0
    7.1962   -1.8052    0.0000 C   0  0  0  0  0  0  0  0  0  0  0  0
    8.0622   -4.3052    0.0000 C   0  0  0  0  0  0  0  0  0  0  0  0
    7.1962   -5.8052    0.0000 C   0  0  0  0  0  0  0  0  0  0  0  0
    3.7320   -5.8052    0.0000 C   0  0  0  0  0  0  0  0  0  0  0  0
    2.0000   -5.8052    0.0000 C   0  0  0  0  0  0  0  0  0  0  0  0
    2.8660   -6.3052    0.0000 C   0  0  0  0  0  0  0  0  0  0  0  0
    8.9282   -4.8052    0.0000 C   0  0  0  0  0  0  0  0  0  0  0  0
    8.0622   -6.3052    0.0000 C   0  0  0  0  0  0  0  0  0  0  0  0
    8.9282   -5.8052    0.0000 C   0  0  0  0  0  0  0  0  0  0  0  0
    8.9282   -1.8052    0.0000 C   0  0  0  0  0  0  0  0  0  0  0  0
    9.7942   -1.3052    0.0000 C   0  0  0  0  0  0  0  0  0  0  0  0
   10.7078   -1.7120    0.0000 C   0  0  0  0  0  0  0  0  0  0  0  0
   10.8769   -0.1028    0.0000 C   0  0  0  0  0  0  0  0  0  0  0  0
    8.0732    5.4077    0.0000 H   0  0  0  0  0  0  0  0  0  0  0  0
    9.9406    5.4678    0.0000 H   0  0  0  0  0  0  0  0  0  0  0  0
    9.8413    6.4125    0.0000 H   0  0  0  0  0  0  0  0  0  0  0  0
    8.7310    6.9068    0.0000 H   0  0  0  0  0  0  0  0  0  0  0  0
    7.9626    6.3485    0.0000 H   0  0  0  0  0  0  0  0  0  0  0  0
    4.2690   -2.4952    0.0000 H   0  0  0  0  0  0  0  0  0  0  0  0
    5.1350   -3.6152    0.0000 H   0  0  0  0  0  0  0  0  0  0  0  0
    5.8626   -2.3303    0.0000 H   0  0  0  0  0  0  0  0  0  0  0  0
    5.0656   -2.3303    0.0000 H   0  0  0  0  0  0  0  0  0  0  0  0
    6.8671   -3.6152    0.0000 H   0  0  0  0  0  0  0  0  0  0  0  0
    2.6540   -2.7226    0.0000 H   0  0  0  0  0  0  0  0  0  0  0  0
    2.2554   -3.4129    0.0000 H   0  0  0  0  0  0  0  0  0  0  0  0
    8.2386    2.1816    0.0000 H   0  0  0  0  0  0  0  0  0  0  0  0
    3.1951   -1.4952    0.0000 H   0  0  0  0  0  0  0  0  0  0  0  0
    4.5981    0.3147    0.0000 H   0  0  0  0  0  0  0  0  0  0  0  0
    6.1181    3.2774    0.0000 H   0  0  0  0  0  0  0  0  0  0  0  0
    5.7196    2.5871    0.0000 H   0  0  0  0  0  0  0  0  0  0  0  0
    5.7196   -4.1976    0.0000 H   0  0  0  0  0  0  0  0  0  0  0  0
    6.1181   -4.8879    0.0000 H   0  0  0  0  0  0  0  0  0  0  0  0
    3.7320   -0.4252    0.0000 H   0  0  0  0  0  0  0  0  0  0  0  0
    7.7331   -3.1152    0.0000 H   0  0  0  0  0  0  0  0  0  0  0  0
    6.0010   -0.1152    0.0000 H   0  0  0  0  0  0  0  0  0  0  0  0
    5.1350   -4.6152    0.0000 H   0  0  0  0  0  0  0  0  0  0  0  0
    4.3520    1.1948    0.0000 H   0  0  0  0  0  0  0  0  0  0  0  0
    3.7320    1.8148    0.0000 H   0  0  0  0  0  0  0  0  0  0  0  0
    3.1120    1.1948    0.0000 H   0  0  0  0  0  0  0  0  0  0  0  0
    2.5560    0.2317    0.0000 H   0  0  0  0  0  0  0  0  0  0  0  0
    2.3291   -0.6152    0.0000 H   0  0  0  0  0  0  0  0  0  0  0  0
    3.1760   -0.8422    0.0000 H   0  0  0  0  0  0  0  0  0  0  0  0
    4.2690   -4.4953    0.0000 H   0  0  0  0  0  0  0  0  0  0  0  0
    1.4631   -4.4953    0.0000 H   0  0  0  0  0  0  0  0  0  0  0  0
    6.8862    0.6578    0.0000 H   0  0  0  0  0  0  0  0  0  0  0  0
    7.7331    0.8847    0.0000 H   0  0  0  0  0  0  0  0  0  0  0  0
    7.5062    1.7317    0.0000 H   0  0  0  0  0  0  0  0  0  0  0  0
    8.0622   -3.6852    0.0000 H   0  0  0  0  0  0  0  0  0  0  0  0
    6.6592   -6.1152    0.0000 H   0  0  0  0  0  0  0  0  0  0  0  0
    4.2690   -6.1152    0.0000 H   0  0  0  0  0  0  0  0  0  0  0  0
    1.4631   -6.1152    0.0000 H   0  0  0  0  0  0  0  0  0  0  0  0
    2.8660   -6.9252    0.0000 H   0  0  0  0  0  0  0  0  0  0  0  0
    9.4651   -4.4953    0.0000 H   0  0  0  0  0  0  0  0  0  0  0  0
    8.0622   -6.9252    0.0000 H   0  0  0  0  0  0  0  0  0  0  0  0
    9.4651   -6.1152    0.0000 H   0  0  0  0  0  0  0  0  0  0  0  0
    8.5297   -2.2802    0.0000 H   0  0  0  0  0  0  0  0  0  0  0  0
    9.3267   -2.2802    0.0000 H   0  0  0  0  0  0  0  0  0  0  0  0
   10.8367   -2.3184    0.0000 H   0  0  0  0  0  0  0  0  0  0  0  0
   11.1291    0.4636    0.0000 H   0  0  0  0  0  0  0  0  0  0  0  0
  1 17  1  0  0  0  0
  1 24  1  0  0  0  0
  2 48  1  0  0  0  0
  2 50  1  0  0  0  0
 19  3  1  6  0  0  0
  3 73  1  0  0  0  0
  4 29  2  0  0  0  0
  5 32  2  0  0  0  0
  6 38  1  0  0  0  0
  6 47  1  0  0  0  0
  7 38  2  0  0  0  0
  8 17  2  0  0  0  0
  8 21  1  0  0  0  0
 18  9  1  6  0  0  0
  9 29  1  0  0  0  0
  9 64  1  0  0  0  0
 10 26  1  0  0  0  0
 10 32  1  0  0  0  0
 10 35  1  0  0  0  0
 22 11  1  1  0  0  0
 11 38  1  0  0  0  0
 11 71  1  0  0  0  0
 25 12  1  6  0  0  0
 12 32  1  0  0  0  0
 12 72  1  0  0  0  0
 13 49  1  0  0  0  0
 13 50  2  0  0  0  0
 14 15  1  0  0  0  0
 14 16  1  0  0  0  0
 14 17  1  0  0  0  0
 14 51  1  0  0  0  0
 15 16  1  0  0  0  0
 15 52  1  0  0  0  0
 15 53  1  0  0  0  0
 16 54  1  0  0  0  0
 16 55  1  0  0  0  0
 18 19  1  0  0  0  0
 18 23  1  0  0  0  0
 18 56  1  0  0  0  0
 19 20  1  0  0  0  0
 19 57  1  0  0  0  0
 20 22  1  0  0  0  0
 20 58  1  0  0  0  0
 20 59  1  0  0  0  0
 21 24  2  0  0  0  0
 21 26  1  0  0  0  0
 22 27  1  0  0  0  0
 22 60  1  0  0  0  0
 23 30  1  0  0  0  0
 23 61  1  0  0  0  0
 23 62  1  0  0  0  0
 24 63  1  0  0  0  0
 25 28  1  0  0  0  0
 25 29  1  0  0  0  0
 25 65  1  0  0  0  0
 26 66  1  0  0  0  0
 26 67  1  0  0  0  0
 27 31  1  0  0  0  0
 27 68  1  0  0  0  0
 27 69  1  0  0  0  0
 28 33  1  0  0  0  0
 28 34  1  0  0  0  0
 28 70  1  0  0  0  0
 30 36  2  0  0  0  0
 30 37  1  0  0  0  0
 31 39  2  0  0  0  0
 31 40  1  0  0  0  0
 33 74  1  0  0  0  0
 33 75  1  0  0  0  0
 33 76  1  0  0  0  0
 34 77  1  0  0  0  0
 34 78  1  0  0  0  0
 34 79  1  0  0  0  0
 35 82  1  0  0  0  0
 35 83  1  0  0  0  0
 35 84  1  0  0  0  0
 36 41  1  0  0  0  0
 36 80  1  0  0  0  0
 37 42  2  0  0  0  0
 37 81  1  0  0  0  0
 39 44  1  0  0  0  0
 39 85  1  0  0  0  0
 40 45  2  0  0  0  0
 40 86  1  0  0  0  0
 41 43  2  0  0  0  0
 41 87  1  0  0  0  0
 42 43  1  0  0  0  0
 42 88  1  0  0  0  0
 43 89  1  0  0  0  0
 44 46  2  0  0  0  0
 44 90  1  0  0  0  0
 45 46  1  0  0  0  0
 45 91  1  0  0  0  0
 46 92  1  0  0  0  0
 47 48  1  0  0  0  0
 47 93  1  0  0  0  0
 47 94  1  0  0  0  0
 48 49  2  0  0  0  0
 49 95  1  0  0  0  0
 50 96  1  0  0  0  0
M  END
> <PUBCHEM_COMPOUND_CID>
515819
> <PUBCHEM_COMPOUND_CANONICALIZED>
1
> <PUBCHEM_CACTVS_COMPLEXITY>
1070
> <PUBCHEM_CACTVS_HBOND_ACCEPTOR>
9
> <PUBCHEM_CACTVS_HBOND_DONOR>
4
> <PUBCHEM_CACTVS_ROTATABLE_BOND>
18
> <PUBCHEM_CACTVS_SUBSKEYS>
AAADcfB/uABgAAAAAAAAAAAAGAAAAWLAAAAwYAAAAAAAAAAB9AAAHgQQCAAADTzl3ga/iZPIFgisAzV3XACC8KBxCjhI2J24bImKdDLgsTmcYAgulgL4qAeQwPAOAAAAAAAAAAAAAAAAAAAAAAAAAAAAAA==
> <PUBCHEM_IUPAC_OPENEYE_NAME>
thiazol-5-ylmethyl N-[(1S,3S,4S)-1-benzyl-4-[[(2S)-2-[[(2-cyclopropylthiazol-4-yl)methyl-methyl-carbamoyl]amino]-3-methyl-butanoyl]amino]-3-hydroxy-5-phenyl-pentyl]carbamate
> <PUBCHEM_IUPAC_CAS_NAME>
N-[(2S,4S,5S)-5-[[(2S)-2-[[[(2-cyclopropyl-4-thiazolyl)methyl-methylamino]-oxomethyl]amino]-3-methyl-1-oxobutyl]amino]-4-hydroxy-1,6-diphenylhexan-2-yl]carbamic acid 5-thiazolylmethyl ester
> <PUBCHEM_IUPAC_NAME_MARKUP>
1,3-thiazol-5-ylmethyl <I>N</I>-[(2<I>S</I>,4<I>S</I>,5<I>S</I>)-5-[[(2<I>S</I>)-2-[[(2-cyclopropyl-1,3-thiazol-4-yl)methyl-methylcarbamoyl]amino]-3-methylbutanoyl]amino]-4-hydroxy-1,6-diphenylhexan-2-yl]carbamate
> <PUBCHEM_IUPAC_NAME>
1,3-thiazol-5-ylmethyl N-[(2S,4S,5S)-5-[[(2S)-2-[[(2-cyclopropyl-1,3-thiazol-4-yl)methyl-methylcarbamoyl]amino]-3-methylbutanoyl]amino]-4-hydroxy-1,6-diphenylhexan-2-yl]carbamate
> <PUBCHEM_IUPAC_SYSTEMATIC_NAME>
1,3-thiazol-5-ylmethyl N-[(2S,4S,5S)-5-[[(2S)-2-[[(2-cyclopropyl-1,3-thiazol-4-yl)methyl-methyl-carbamoyl]amino]-3-methyl-butanoyl]amino]-4-oxidanyl-1,6-diphenyl-hexan-2-yl]carbamate
> <PUBCHEM_IUPAC_TRADITIONAL_NAME>
N-[(1S,3S,4S)-1-benzyl-4-[[(2S)-2-[[(2-cyclopropylthiazol-4-yl)methyl-methyl-carbamoyl]amino]-3-methyl-butanoyl]amino]-3-hydroxy-5-phenyl-pentyl]carbamic acid thiazol-5-ylmethyl ester
> <PUBCHEM_IUPAC_INCHI>
InChI=1S/C37H46N6O5S2/c1-24(2)33(42-36(46)43(3)20-29-22-49-35(39-29)27-14-15-27)34(45)41-31(17-26-12-8-5-9-13-26)32(44)18-28(16-25-10-6-4-7-11-25)40-37(47)48-21-30-19-38-23-50-30/h4-13,19,22-24,27-28,31-33,44H,14-18,20-21H2,1-3H3,(H,40,47)(H,41,45)(H,42,46)/t28-,31-,32-,33-/m0/s1
> <PUBCHEM_IUPAC_INCHIKEY>
OOIBFJLDFAYMTB-XGKFQTDJSA-N
> <PUBCHEM_XLOGP3_AA>
5.5
> <PUBCHEM_EXACT_MASS>
718.29711094
> <PUBCHEM_MOLECULAR_FORMULA>
C37H46N6O5S2
> <PUBCHEM_MOLECULAR_WEIGHT>
718.9
> <PUBCHEM_OPENEYE_CAN_SMILES>
CC(C)C(C(=O)NC(CC1=CC=CC=C1)C(CC(CC2=CC=CC=C2)NC(=O)OCC3=CN=CS3)O)NC(=O)N(C)CC4=CSC(=N4)C5CC5
> <PUBCHEM_OPENEYE_ISO_SMILES>
CC(C)[C@@H](C(=O)N[C@@H](CC1=CC=CC=C1)[C@H](C[C@H](CC2=CC=CC=C2)NC(=O)OCC3=CN=CS3)O)NC(=O)N(C)CC4=CSC(=N4)C5CC5
> <PUBCHEM_CACTVS_TPSA>
202
> <PUBCHEM_MONOISOTOPIC_WEIGHT>
718.29711094
> <PUBCHEM_TOTAL_CHARGE>
0
> <PUBCHEM_HEAVY_ATOM_COUNT>
50
> <PUBCHEM_ATOM_DEF_STEREO_COUNT>
4
> <PUBCHEM_ATOM_UDEF_STEREO_COUNT>
0
> <PUBCHEM_BOND_DEF_STEREO_COUNT>
0
> <PUBCHEM_BOND_UDEF_STEREO_COUNT>
0
> <PUBCHEM_ISOTOPIC_ATOM_COUNT>
0
> <PUBCHEM_COMPONENT_COUNT>
1
> <PUBCHEM_CACTVS_TAUTO_COUNT>
-1
> <PUBCHEM_COORDINATE_TYPE>
1
5
255
> <PUBCHEM_BONDANNOTATIONS>
1  17  8
1  24  8
22  11  5
25  12  6
13  49  8
13  50  8
2  48  8
2  50  8
21  24  8
19  3  6
30  36  8
30  37  8
31  39  8
31  40  8
36  41  8
37  42  8
39  44  8
40  45  8
41  43  8
42  43  8
44  46  8
45  46  8
48  49  8
8  17  8
8  21  8
18  9  6
$$$$
