515847
  -OEChem-10302200282D
107110  0     1  0  0  0  0  0999 V2000
   10.7078   -0.7580    0.0000 S   0  0  0  0  0  0  0  0  0  0  0  0
    8.2788    5.3512    0.0000 S   0  0  0  0  0  0  0  0  0  0  0  0
    4.5981   -3.3512    0.0000 O   0  0  0  0  0  0  0  0  0  0  0  0
    5.4641   -0.8512    0.0000 O   0  0  0  0  0  0  0  0  0  0  0  0
    8.0622   -0.3512    0.0000 O   0  0  0  0  0  0  0  0  0  0  0  0
    6.3301   -0.3512    0.0000 O   0  0  0  0  0  0  0  0  0  0  0  0
    4.5981    2.6488    0.0000 O   0  0  0  0  0  0  0  0  0  0  0  0
    3.7320   -0.8512    0.0000 N   0  0  0  0  0  0  0  0  0  0  0  0
    7.1962   -1.8512    0.0000 N   0  0  0  0  0  0  0  0  0  0  0  0
    5.4641    1.1488    0.0000 N   0  0  0  0  0  0  0  0  0  0  0  0
    6.3301    2.6488    0.0000 N   0  0  0  0  0  0  0  0  0  0  0  0
    8.1097    3.7420    0.0000 N   0  0  0  0  0  0  0  0  0  0  0  0
   10.8769    0.8512    0.0000 N   0  0  0  0  0  0  0  0  0  0  0  0
    3.7320   -1.8512    0.0000 C   0  0  2  0  0  0  0  0  0  0  0  0
    4.5981   -2.3512    0.0000 C   0  0  2  0  0  0  0  0  0  0  0  0
    5.4641   -1.8512    0.0000 C   0  0  0  0  0  0  0  0  0  0  0  0
    6.3301   -2.3512    0.0000 C   0  0  2  0  0  0  0  0  0  0  0  0
    2.8660   -2.3512    0.0000 C   0  0  0  0  0  0  0  0  0  0  0  0
    6.3301   -3.3512    0.0000 C   0  0  0  0  0  0  0  0  0  0  0  0
    4.5981    0.6488    0.0000 C   0  0  2  0  0  0  0  0  0  0  0  0
    4.5981   -0.3512    0.0000 C   0  0  0  0  0  0  0  0  0  0  0  0
    3.7320    1.1488    0.0000 C   0  0  0  0  0  0  0  0  0  0  0  0
    2.8660   -3.3512    0.0000 C   0  0  0  0  0  0  0  0  0  0  0  0
    7.1962   -3.8512    0.0000 C   0  0  0  0  0  0  0  0  0  0  0  0
    3.7320    2.1488    0.0000 C   0  0  0  0  0  0  0  0  0  0  0  0
    2.8660    0.6488    0.0000 C   0  0  0  0  0  0  0  0  0  0  0  0
    3.7320   -3.8512    0.0000 C   0  0  0  0  0  0  0  0  0  0  0  0
    2.0000   -3.8512    0.0000 C   0  0  0  0  0  0  0  0  0  0  0  0
    7.1962   -0.8512    0.0000 C   0  0  0  0  0  0  0  0  0  0  0  0
    8.0622   -3.3512    0.0000 C   0  0  0  0  0  0  0  0  0  0  0  0
    7.1962   -4.8512    0.0000 C   0  0  0  0  0  0  0  0  0  0  0  0
    5.4641    2.1488    0.0000 C   0  0  0  0  0  0  0  0  0  0  0  0
    3.7320   -4.8512    0.0000 C   0  0  0  0  0  0  0  0  0  0  0  0
    2.0000   -4.8512    0.0000 C   0  0  0  0  0  0  0  0  0  0  0  0
    2.8660   -5.3512    0.0000 C   0  0  0  0  0  0  0  0  0  0  0  0
    8.9282   -3.8512    0.0000 C   0  0  0  0  0  0  0  0  0  0  0  0
    8.0622   -5.3512    0.0000 C   0  0  0  0  0  0  0  0  0  0  0  0
    8.9282   -4.8512    0.0000 C   0  0  0  0  0  0  0  0  0  0  0  0
    6.3301    3.6488    0.0000 C   0  0  0  0  0  0  0  0  0  0  0  0
    7.1962    2.1488    0.0000 C   0  0  0  0  0  0  0  0  0  0  0  0
    8.9282   -0.8512    0.0000 C   0  0  0  0  0  0  0  0  0  0  0  0
    7.1962    4.1488    0.0000 C   0  0  0  0  0  0  0  0  0  0  0  0
    9.7942   -0.3512    0.0000 C   0  0  0  0  0  0  0  0  0  0  0  0
    7.3007    5.1433    0.0000 C   0  0  0  0  0  0  0  0  0  0  0  0
    8.7788    4.4852    0.0000 C   0  0  0  0  0  0  0  0  0  0  0  0
    9.7734    4.3807    0.0000 C   0  0  0  0  0  0  0  0  0  0  0  0
    9.8988    0.6433    0.0000 C   0  0  0  0  0  0  0  0  0  0  0  0
   11.3769   -0.0148    0.0000 C   0  0  0  0  0  0  0  0  0  0  0  0
   12.3714   -0.1193    0.0000 C   0  0  0  0  0  0  0  0  0  0  0  0
   10.3611    5.1897    0.0000 C   0  0  0  0  0  0  0  0  0  0  0  0
   10.1801    3.4671    0.0000 C   0  0  0  0  0  0  0  0  0  0  0  0
   12.9592    0.6897    0.0000 C   0  0  0  0  0  0  0  0  0  0  0  0
   12.7782   -1.0329    0.0000 C   0  0  0  0  0  0  0  0  0  0  0  0
    4.2690   -1.5412    0.0000 H   0  0  0  0  0  0  0  0  0  0  0  0
    5.1350   -2.6612    0.0000 H   0  0  0  0  0  0  0  0  0  0  0  0
    5.8626   -1.3763    0.0000 H   0  0  0  0  0  0  0  0  0  0  0  0
    5.0656   -1.3763    0.0000 H   0  0  0  0  0  0  0  0  0  0  0  0
    6.8671   -2.6612    0.0000 H   0  0  0  0  0  0  0  0  0  0  0  0
    2.6540   -1.7686    0.0000 H   0  0  0  0  0  0  0  0  0  0  0  0
    2.2554   -2.4589    0.0000 H   0  0  0  0  0  0  0  0  0  0  0  0
    3.1951   -0.5412    0.0000 H   0  0  0  0  0  0  0  0  0  0  0  0
    5.7196   -3.2436    0.0000 H   0  0  0  0  0  0  0  0  0  0  0  0
    6.1181   -3.9338    0.0000 H   0  0  0  0  0  0  0  0  0  0  0  0
    4.5981    1.2688    0.0000 H   0  0  0  0  0  0  0  0  0  0  0  0
    3.7320    0.5288    0.0000 H   0  0  0  0  0  0  0  0  0  0  0  0
    7.7331   -2.1612    0.0000 H   0  0  0  0  0  0  0  0  0  0  0  0
    5.1350   -3.6612    0.0000 H   0  0  0  0  0  0  0  0  0  0  0  0
    6.0010    0.8388    0.0000 H   0  0  0  0  0  0  0  0  0  0  0  0
    4.3520    2.1488    0.0000 H   0  0  0  0  0  0  0  0  0  0  0  0
    3.7320    2.7688    0.0000 H   0  0  0  0  0  0  0  0  0  0  0  0
    3.1120    2.1488    0.0000 H   0  0  0  0  0  0  0  0  0  0  0  0
    2.5560    1.1857    0.0000 H   0  0  0  0  0  0  0  0  0  0  0  0
    2.3291    0.3388    0.0000 H   0  0  0  0  0  0  0  0  0  0  0  0
    3.1760    0.1118    0.0000 H   0  0  0  0  0  0  0  0  0  0  0  0
    4.2690   -3.5412    0.0000 H   0  0  0  0  0  0  0  0  0  0  0  0
    1.4631   -3.5412    0.0000 H   0  0  0  0  0  0  0  0  0  0  0  0
    8.0622   -2.7312    0.0000 H   0  0  0  0  0  0  0  0  0  0  0  0
    6.6592   -5.1612    0.0000 H   0  0  0  0  0  0  0  0  0  0  0  0
    4.2690   -5.1612    0.0000 H   0  0  0  0  0  0  0  0  0  0  0  0
    1.4631   -5.1612    0.0000 H   0  0  0  0  0  0  0  0  0  0  0  0
    2.8660   -5.9712    0.0000 H   0  0  0  0  0  0  0  0  0  0  0  0
    9.4651   -3.5412    0.0000 H   0  0  0  0  0  0  0  0  0  0  0  0
    8.0622   -5.9712    0.0000 H   0  0  0  0  0  0  0  0  0  0  0  0
    9.4651   -5.1612    0.0000 H   0  0  0  0  0  0  0  0  0  0  0  0
    6.1181    4.2314    0.0000 H   0  0  0  0  0  0  0  0  0  0  0  0
    5.7196    3.5411    0.0000 H   0  0  0  0  0  0  0  0  0  0  0  0
    6.8862    1.6118    0.0000 H   0  0  0  0  0  0  0  0  0  0  0  0
    7.7331    1.8388    0.0000 H   0  0  0  0  0  0  0  0  0  0  0  0
    7.5062    2.6857    0.0000 H   0  0  0  0  0  0  0  0  0  0  0  0
    8.5297   -1.3262    0.0000 H   0  0  0  0  0  0  0  0  0  0  0  0
    9.3267   -1.3262    0.0000 H   0  0  0  0  0  0  0  0  0  0  0  0
    6.8399    5.5582    0.0000 H   0  0  0  0  0  0  0  0  0  0  0  0
   10.3900    4.3159    0.0000 H   0  0  0  0  0  0  0  0  0  0  0  0
    9.4380    1.0582    0.0000 H   0  0  0  0  0  0  0  0  0  0  0  0
   12.1193    0.4471    0.0000 H   0  0  0  0  0  0  0  0  0  0  0  0
   10.8627    4.8252    0.0000 H   0  0  0  0  0  0  0  0  0  0  0  0
   10.7256    5.6913    0.0000 H   0  0  0  0  0  0  0  0  0  0  0  0
    9.8595    5.5541    0.0000 H   0  0  0  0  0  0  0  0  0  0  0  0
    9.6137    3.2149    0.0000 H   0  0  0  0  0  0  0  0  0  0  0  0
   10.4323    2.9007    0.0000 H   0  0  0  0  0  0  0  0  0  0  0  0
   10.7465    3.7193    0.0000 H   0  0  0  0  0  0  0  0  0  0  0  0
   13.4608    0.3253    0.0000 H   0  0  0  0  0  0  0  0  0  0  0  0
   13.3236    1.1913    0.0000 H   0  0  0  0  0  0  0  0  0  0  0  0
   12.4576    1.0541    0.0000 H   0  0  0  0  0  0  0  0  0  0  0  0
   12.2118   -1.2851    0.0000 H   0  0  0  0  0  0  0  0  0  0  0  0
   13.0303   -1.5993    0.0000 H   0  0  0  0  0  0  0  0  0  0  0  0
   13.3446   -0.7807    0.0000 H   0  0  0  0  0  0  0  0  0  0  0  0
  1 43  1  0  0  0  0
  1 48  1  0  0  0  0
  2 44  1  0  0  0  0
  2 45  1  0  0  0  0
 15  3  1  6  0  0  0
  3 67  1  0  0  0  0
  4 21  2  0  0  0  0
  5 29  1  0  0  0  0
  5 41  1  0  0  0  0
  6 29  2  0  0  0  0
  7 32  2  0  0  0  0
 14  8  1  6  0  0  0
  8 21  1  0  0  0  0
  8 61  1  0  0  0  0
 17  9  1  1  0  0  0
  9 29  1  0  0  0  0
  9 66  1  0  0  0  0
 20 10  1  6  0  0  0
 10 32  1  0  0  0  0
 10 68  1  0  0  0  0
 11 32  1  0  0  0  0
 11 39  1  0  0  0  0
 11 40  1  0  0  0  0
 12 42  1  0  0  0  0
 12 45  2  0  0  0  0
 13 47  1  0  0  0  0
 13 48  2  0  0  0  0
 14 15  1  0  0  0  0
 14 18  1  0  0  0  0
 14 54  1  0  0  0  0
 15 16  1  0  0  0  0
 15 55  1  0  0  0  0
 16 17  1  0  0  0  0
 16 56  1  0  0  0  0
 16 57  1  0  0  0  0
 17 19  1  0  0  0  0
 17 58  1  0  0  0  0
 18 23  1  0  0  0  0
 18 59  1  0  0  0  0
 18 60  1  0  0  0  0
 19 24  1  0  0  0  0
 19 62  1  0  0  0  0
 19 63  1  0  0  0  0
 20 21  1  0  0  0  0
 20 22  1  0  0  0  0
 20 64  1  0  0  0  0
 22 25  1  0  0  0  0
 22 26  1  0  0  0  0
 22 65  1  0  0  0  0
 23 27  2  0  0  0  0
 23 28  1  0  0  0  0
 24 30  2  0  0  0  0
 24 31  1  0  0  0  0
 25 69  1  0  0  0  0
 25 70  1  0  0  0  0
 25 71  1  0  0  0  0
 26 72  1  0  0  0  0
 26 73  1  0  0  0  0
 26 74  1  0  0  0  0
 27 33  1  0  0  0  0
 27 75  1  0  0  0  0
 28 34  2  0  0  0  0
 28 76  1  0  0  0  0
 30 36  1  0  0  0  0
 30 77  1  0  0  0  0
 31 37  2  0  0  0  0
 31 78  1  0  0  0  0
 33 35  2  0  0  0  0
 33 79  1  0  0  0  0
 34 35  1  0  0  0  0
 34 80  1  0  0  0  0
 35 81  1  0  0  0  0
 36 38  2  0  0  0  0
 36 82  1  0  0  0  0
 37 38  1  0  0  0  0
 37 83  1  0  0  0  0
 38 84  1  0  0  0  0
 39 42  1  0  0  0  0
 39 85  1  0  0  0  0
 39 86  1  0  0  0  0
 40 87  1  0  0  0  0
 40 88  1  0  0  0  0
 40 89  1  0  0  0  0
 41 43  1  0  0  0  0
 41 90  1  0  0  0  0
 41 91  1  0  0  0  0
 42 44  2  0  0  0  0
 43 47  2  0  0  0  0
 44 92  1  0  0  0  0
 45 46  1  0  0  0  0
 46 50  1  0  0  0  0
 46 51  1  0  0  0  0
 46 93  1  0  0  0  0
 47 94  1  0  0  0  0
 48 49  1  0  0  0  0
 49 52  1  0  0  0  0
 49 53  1  0  0  0  0
 49 95  1  0  0  0  0
 50 96  1  0  0  0  0
 50 97  1  0  0  0  0
 50 98  1  0  0  0  0
 51 99  1  0  0  0  0
 51100  1  0  0  0  0
 51101  1  0  0  0  0
 52102  1  0  0  0  0
 52103  1  0  0  0  0
 52104  1  0  0  0  0
 53105  1  0  0  0  0
 53106  1  0  0  0  0
 53107  1  0  0  0  0
M  END
> <PUBCHEM_COMPOUND_CID>
515847
> <PUBCHEM_COMPOUND_CANONICALIZED>
1
> <PUBCHEM_CACTVS_COMPLEXITY>
1120
> <PUBCHEM_CACTVS_HBOND_ACCEPTOR>
9
> <PUBCHEM_CACTVS_HBOND_DONOR>
4
> <PUBCHEM_CACTVS_ROTATABLE_BOND>
19
> <PUBCHEM_CACTVS_SUBSKEYS>
AAADcfB/uABgAAAAAAAAAAAAAAAAAWLAAAAwYAAAAAAAAAAB9AAAHgQQCAAADTzl3ga/iZPIFgisAzV3XACC8KBxCjhI2J24bImKdDLgsTmcYAgulgL4qAeQwPAOAAAAAAAAAAAAAAAAAAAAAAAAAAAAAA==
> <PUBCHEM_IUPAC_OPENEYE_NAME>
(2-isopropylthiazol-5-yl)methyl N-[(1S,3S,4S)-1-benzyl-3-hydroxy-4-[[(2S)-2-[[(2-isopropylthiazol-4-yl)methyl-methyl-carbamoyl]amino]-3-methyl-butanoyl]amino]-5-phenyl-pentyl]carbamate
> <PUBCHEM_IUPAC_CAS_NAME>
N-[(2S,4S,5S)-4-hydroxy-5-[[(2S)-3-methyl-2-[[[methyl-[(2-propan-2-yl-4-thiazolyl)methyl]amino]-oxomethyl]amino]-1-oxobutyl]amino]-1,6-diphenylhexan-2-yl]carbamic acid (2-propan-2-yl-5-thiazolyl)methyl ester
> <PUBCHEM_IUPAC_NAME_MARKUP>
(2-propan-2-yl-1,3-thiazol-5-yl)methyl <I>N</I>-[(2<I>S</I>,4<I>S</I>,5<I>S</I>)-4-hydroxy-5-[[(2<I>S</I>)-3-methyl-2-[[methyl-[(2-propan-2-yl-1,3-thiazol-4-yl)methyl]carbamoyl]amino]butanoyl]amino]-1,6-diphenylhexan-2-yl]carbamate
> <PUBCHEM_IUPAC_NAME>
(2-propan-2-yl-1,3-thiazol-5-yl)methyl N-[(2S,4S,5S)-4-hydroxy-5-[[(2S)-3-methyl-2-[[methyl-[(2-propan-2-yl-1,3-thiazol-4-yl)methyl]carbamoyl]amino]butanoyl]amino]-1,6-diphenylhexan-2-yl]carbamate
> <PUBCHEM_IUPAC_SYSTEMATIC_NAME>
(2-propan-2-yl-1,3-thiazol-5-yl)methyl N-[(2S,4S,5S)-5-[[(2S)-3-methyl-2-[[methyl-[(2-propan-2-yl-1,3-thiazol-4-yl)methyl]carbamoyl]amino]butanoyl]amino]-4-oxidanyl-1,6-diphenyl-hexan-2-yl]carbamate
> <PUBCHEM_IUPAC_TRADITIONAL_NAME>
N-[(1S,3S,4S)-1-benzyl-3-hydroxy-4-[[(2S)-2-[[(2-isopropylthiazol-4-yl)methyl-methyl-carbamoyl]amino]-3-methyl-butanoyl]amino]-5-phenyl-pentyl]carbamic acid (2-isopropylthiazol-5-yl)methyl ester
> <PUBCHEM_IUPAC_INCHI>
InChI=1S/C40H54N6O5S2/c1-25(2)35(45-39(49)46(7)22-31-24-52-38(42-31)27(5)6)36(48)44-33(19-29-16-12-9-13-17-29)34(47)20-30(18-28-14-10-8-11-15-28)43-40(50)51-23-32-21-41-37(53-32)26(3)4/h8-17,21,24-27,30,33-35,47H,18-20,22-23H2,1-7H3,(H,43,50)(H,44,48)(H,45,49)/t30-,33-,34-,35-/m0/s1
> <PUBCHEM_IUPAC_INCHIKEY>
FOTUTNCSOOSESX-RONNFESSSA-N
> <PUBCHEM_XLOGP3_AA>
7.2
> <PUBCHEM_EXACT_MASS>
762.35971119
> <PUBCHEM_MOLECULAR_FORMULA>
C40H54N6O5S2
> <PUBCHEM_MOLECULAR_WEIGHT>
763.0
> <PUBCHEM_OPENEYE_CAN_SMILES>
CC(C)C1=NC=C(S1)COC(=O)NC(CC2=CC=CC=C2)CC(C(CC3=CC=CC=C3)NC(=O)C(C(C)C)NC(=O)N(C)CC4=CSC(=N4)C(C)C)O
> <PUBCHEM_OPENEYE_ISO_SMILES>
CC(C)C1=NC=C(S1)COC(=O)N[C@@H](CC2=CC=CC=C2)C[C@@H]([C@H](CC3=CC=CC=C3)NC(=O)[C@H](C(C)C)NC(=O)N(C)CC4=CSC(=N4)C(C)C)O
> <PUBCHEM_CACTVS_TPSA>
202
> <PUBCHEM_MONOISOTOPIC_WEIGHT>
762.35971119
> <PUBCHEM_TOTAL_CHARGE>
0
> <PUBCHEM_HEAVY_ATOM_COUNT>
53
> <PUBCHEM_ATOM_DEF_STEREO_COUNT>
4
> <PUBCHEM_ATOM_UDEF_STEREO_COUNT>
0
> <PUBCHEM_BOND_DEF_STEREO_COUNT>
0
> <PUBCHEM_BOND_UDEF_STEREO_COUNT>
0
> <PUBCHEM_ISOTOPIC_ATOM_COUNT>
0
> <PUBCHEM_COMPONENT_COUNT>
1
> <PUBCHEM_CACTVS_TAUTO_COUNT>
-1
> <PUBCHEM_COORDINATE_TYPE>
1
5
255
> <PUBCHEM_BONDANNOTATIONS>
1  43  8
1  48  8
20  10  6
12  42  8
12  45  8
13  47  8
13  48  8
2  44  8
2  45  8
23  27  8
23  28  8
24  30  8
24  31  8
27  33  8
28  34  8
15  3  6
30  36  8
31  37  8
33  35  8
34  35  8
36  38  8
37  38  8
42  44  8
43  47  8
14  8  6
17  9  5
$$$$
