515842
  -OEChem-10302200282D
104107  0     1  0  0  0  0  0999 V2000
   13.9750    2.0864    0.0000 S   0  0  0  0  0  0  0  0  0  0  0  0
    8.9757   -1.3433    0.0000 S   0  0  0  0  0  0  0  0  0  0  0  0
    2.8660    0.2500    0.0000 O   0  0  0  0  0  0  0  0  0  0  0  0
    6.3301    0.2500    0.0000 O   0  0  0  0  0  0  0  0  0  0  0  0
    6.3301   -1.7500    0.0000 O   0  0  0  0  0  0  0  0  0  0  0  0
    5.4641   -0.2500    0.0000 O   0  0  0  0  0  0  0  0  0  0  0  0
    8.9282    2.7500    0.0000 O   0  0  0  0  0  0  0  0  0  0  0  0
    5.4641    1.7500    0.0000 N   0  0  0  0  0  0  0  0  0  0  0  0
    4.5981   -1.7500    0.0000 N   0  0  0  0  0  0  0  0  0  0  0  0
    8.0622    1.2500    0.0000 N   0  0  0  0  0  0  0  0  0  0  0  0
    9.7942    1.2500    0.0000 N   0  0  0  0  0  0  0  0  0  0  0  0
   12.4968    2.7445    0.0000 N   0  0  0  0  0  0  0  0  0  0  0  0
    9.1448   -2.9524    0.0000 N   0  0  0  0  0  0  0  0  0  0  0  0
    4.5981    1.2500    0.0000 C   0  0  2  0  0  0  0  0  0  0  0  0
    4.5981    0.2500    0.0000 C   0  0  0  0  0  0  0  0  0  0  0  0
    3.7320   -0.2500    0.0000 C   0  0  1  0  0  0  0  0  0  0  0  0
    3.7320   -1.2500    0.0000 C   0  0  2  0  0  0  0  0  0  0  0  0
    3.7320    1.7500    0.0000 C   0  0  0  0  0  0  0  0  0  0  0  0
    2.8660   -1.7500    0.0000 C   0  0  0  0  0  0  0  0  0  0  0  0
    7.1962    1.7500    0.0000 C   0  0  1  0  0  0  0  0  0  0  0  0
    7.1962    2.7500    0.0000 C   0  0  0  0  0  0  0  0  0  0  0  0
    6.3301    1.2500    0.0000 C   0  0  0  0  0  0  0  0  0  0  0  0
    3.7320    2.7500    0.0000 C   0  0  0  0  0  0  0  0  0  0  0  0
    2.8660   -2.7500    0.0000 C   0  0  0  0  0  0  0  0  0  0  0  0
    8.0622    3.2500    0.0000 C   0  0  0  0  0  0  0  0  0  0  0  0
    6.3301    3.2500    0.0000 C   0  0  0  0  0  0  0  0  0  0  0  0
    2.8660    3.2500    0.0000 C   0  0  0  0  0  0  0  0  0  0  0  0
    4.5981    3.2500    0.0000 C   0  0  0  0  0  0  0  0  0  0  0  0
    5.4641   -1.2500    0.0000 C   0  0  0  0  0  0  0  0  0  0  0  0
    8.9282    1.7500    0.0000 C   0  0  0  0  0  0  0  0  0  0  0  0
    3.7320   -3.2500    0.0000 C   0  0  0  0  0  0  0  0  0  0  0  0
    2.0000   -3.2500    0.0000 C   0  0  0  0  0  0  0  0  0  0  0  0
   10.6603    1.7500    0.0000 C   0  0  0  0  0  0  0  0  0  0  0  0
    2.8660    4.2500    0.0000 C   0  0  0  0  0  0  0  0  0  0  0  0
    4.5981    4.2500    0.0000 C   0  0  0  0  0  0  0  0  0  0  0  0
    9.7942    0.2500    0.0000 C   0  0  0  0  0  0  0  0  0  0  0  0
    3.7320   -4.2500    0.0000 C   0  0  0  0  0  0  0  0  0  0  0  0
    2.0000   -4.2500    0.0000 C   0  0  0  0  0  0  0  0  0  0  0  0
    3.7320    4.7500    0.0000 C   0  0  0  0  0  0  0  0  0  0  0  0
   11.5263    1.2500    0.0000 C   0  0  0  0  0  0  0  0  0  0  0  0
    2.8660   -4.7500    0.0000 C   0  0  0  0  0  0  0  0  0  0  0  0
   10.6603   -0.2500    0.0000 C   0  0  0  0  0  0  0  0  0  0  0  0
   12.3923    1.7500    0.0000 C   0  0  0  0  0  0  0  0  0  0  0  0
    7.1962   -1.2500    0.0000 C   0  0  0  0  0  0  0  0  0  0  0  0
   13.3059    1.3433    0.0000 C   0  0  0  0  0  0  0  0  0  0  0  0
   13.4750    2.9524    0.0000 C   0  0  0  0  0  0  0  0  0  0  0  0
   13.8817    3.8660    0.0000 C   0  0  0  0  0  0  0  0  0  0  0  0
    8.0622   -1.7500    0.0000 C   0  0  0  0  0  0  0  0  0  0  0  0
   14.8762    3.9705    0.0000 C   0  0  0  0  0  0  0  0  0  0  0  0
   13.2939    4.6750    0.0000 C   0  0  0  0  0  0  0  0  0  0  0  0
    8.1667   -2.7445    0.0000 C   0  0  0  0  0  0  0  0  0  0  0  0
    9.6448   -2.0864    0.0000 C   0  0  0  0  0  0  0  0  0  0  0  0
    4.5981    1.8700    0.0000 H   0  0  0  0  0  0  0  0  0  0  0  0
    4.8101   -0.3326    0.0000 H   0  0  0  0  0  0  0  0  0  0  0  0
    5.2087    0.3577    0.0000 H   0  0  0  0  0  0  0  0  0  0  0  0
    3.7320    0.3700    0.0000 H   0  0  0  0  0  0  0  0  0  0  0  0
    3.7320   -1.8700    0.0000 H   0  0  0  0  0  0  0  0  0  0  0  0
    3.1215    1.8577    0.0000 H   0  0  0  0  0  0  0  0  0  0  0  0
    3.5200    1.1674    0.0000 H   0  0  0  0  0  0  0  0  0  0  0  0
    2.6540   -1.1674    0.0000 H   0  0  0  0  0  0  0  0  0  0  0  0
    2.2554   -1.8577    0.0000 H   0  0  0  0  0  0  0  0  0  0  0  0
    5.4641    2.3700    0.0000 H   0  0  0  0  0  0  0  0  0  0  0  0
    7.7331    2.0600    0.0000 H   0  0  0  0  0  0  0  0  0  0  0  0
    6.6592    2.4400    0.0000 H   0  0  0  0  0  0  0  0  0  0  0  0
    4.5981   -2.3700    0.0000 H   0  0  0  0  0  0  0  0  0  0  0  0
    2.8660    0.8700    0.0000 H   0  0  0  0  0  0  0  0  0  0  0  0
    8.0622    0.6300    0.0000 H   0  0  0  0  0  0  0  0  0  0  0  0
    8.3722    2.7131    0.0000 H   0  0  0  0  0  0  0  0  0  0  0  0
    8.5991    3.5600    0.0000 H   0  0  0  0  0  0  0  0  0  0  0  0
    7.7522    3.7869    0.0000 H   0  0  0  0  0  0  0  0  0  0  0  0
    6.6401    3.7869    0.0000 H   0  0  0  0  0  0  0  0  0  0  0  0
    5.7932    3.5600    0.0000 H   0  0  0  0  0  0  0  0  0  0  0  0
    6.0201    2.7131    0.0000 H   0  0  0  0  0  0  0  0  0  0  0  0
    2.3291    2.9400    0.0000 H   0  0  0  0  0  0  0  0  0  0  0  0
    5.1350    2.9400    0.0000 H   0  0  0  0  0  0  0  0  0  0  0  0
    4.2690   -2.9400    0.0000 H   0  0  0  0  0  0  0  0  0  0  0  0
    1.4631   -2.9400    0.0000 H   0  0  0  0  0  0  0  0  0  0  0  0
   11.0588    2.2250    0.0000 H   0  0  0  0  0  0  0  0  0  0  0  0
   10.2617    2.2250    0.0000 H   0  0  0  0  0  0  0  0  0  0  0  0
    2.3291    4.5600    0.0000 H   0  0  0  0  0  0  0  0  0  0  0  0
    5.1350    4.5600    0.0000 H   0  0  0  0  0  0  0  0  0  0  0  0
    9.1836    0.3577    0.0000 H   0  0  0  0  0  0  0  0  0  0  0  0
    9.5822   -0.3326    0.0000 H   0  0  0  0  0  0  0  0  0  0  0  0
    4.2690   -4.5600    0.0000 H   0  0  0  0  0  0  0  0  0  0  0  0
    1.4631   -4.5600    0.0000 H   0  0  0  0  0  0  0  0  0  0  0  0
    3.7320    5.3700    0.0000 H   0  0  0  0  0  0  0  0  0  0  0  0
   11.1278    0.7751    0.0000 H   0  0  0  0  0  0  0  0  0  0  0  0
   11.9248    0.7751    0.0000 H   0  0  0  0  0  0  0  0  0  0  0  0
    2.8660   -5.3700    0.0000 H   0  0  0  0  0  0  0  0  0  0  0  0
   10.3503   -0.7869    0.0000 H   0  0  0  0  0  0  0  0  0  0  0  0
   11.1972   -0.5600    0.0000 H   0  0  0  0  0  0  0  0  0  0  0  0
   10.9703    0.2869    0.0000 H   0  0  0  0  0  0  0  0  0  0  0  0
    7.5947   -0.7751    0.0000 H   0  0  0  0  0  0  0  0  0  0  0  0
    6.7976   -0.7751    0.0000 H   0  0  0  0  0  0  0  0  0  0  0  0
   13.4348    0.7368    0.0000 H   0  0  0  0  0  0  0  0  0  0  0  0
   14.1339    4.4324    0.0000 H   0  0  0  0  0  0  0  0  0  0  0  0
   14.9410    3.3539    0.0000 H   0  0  0  0  0  0  0  0  0  0  0  0
   15.4928    4.0353    0.0000 H   0  0  0  0  0  0  0  0  0  0  0  0
   14.8114    4.5871    0.0000 H   0  0  0  0  0  0  0  0  0  0  0  0
   13.7955    5.0394    0.0000 H   0  0  0  0  0  0  0  0  0  0  0  0
   12.9295    5.1766    0.0000 H   0  0  0  0  0  0  0  0  0  0  0  0
   12.7923    4.3106    0.0000 H   0  0  0  0  0  0  0  0  0  0  0  0
    7.7060   -3.1594    0.0000 H   0  0  0  0  0  0  0  0  0  0  0  0
   10.2615   -2.0216    0.0000 H   0  0  0  0  0  0  0  0  0  0  0  0
  1 45  1  0  0  0  0
  1 46  1  0  0  0  0
  2 48  1  0  0  0  0
  2 52  1  0  0  0  0
 16  3  1  1  0  0  0
  3 66  1  0  0  0  0
  4 22  2  0  0  0  0
  5 29  1  0  0  0  0
  5 44  1  0  0  0  0
  6 29  2  0  0  0  0
  7 30  2  0  0  0  0
 14  8  1  6  0  0  0
  8 22  1  0  0  0  0
  8 62  1  0  0  0  0
 17  9  1  1  0  0  0
  9 29  1  0  0  0  0
  9 65  1  0  0  0  0
 20 10  1  6  0  0  0
 10 30  1  0  0  0  0
 10 67  1  0  0  0  0
 11 30  1  0  0  0  0
 11 33  1  0  0  0  0
 11 36  1  0  0  0  0
 12 43  1  0  0  0  0
 12 46  2  0  0  0  0
 13 51  1  0  0  0  0
 13 52  2  0  0  0  0
 14 15  1  0  0  0  0
 14 18  1  0  0  0  0
 14 53  1  0  0  0  0
 15 16  1  0  0  0  0
 15 54  1  0  0  0  0
 15 55  1  0  0  0  0
 16 17  1  0  0  0  0
 16 56  1  0  0  0  0
 17 19  1  0  0  0  0
 17 57  1  0  0  0  0
 18 23  1  0  0  0  0
 18 58  1  0  0  0  0
 18 59  1  0  0  0  0
 19 24  1  0  0  0  0
 19 60  1  0  0  0  0
 19 61  1  0  0  0  0
 20 21  1  0  0  0  0
 20 22  1  0  0  0  0
 20 63  1  0  0  0  0
 21 25  1  0  0  0  0
 21 26  1  0  0  0  0
 21 64  1  0  0  0  0
 23 27  2  0  0  0  0
 23 28  1  0  0  0  0
 24 31  2  0  0  0  0
 24 32  1  0  0  0  0
 25 68  1  0  0  0  0
 25 69  1  0  0  0  0
 25 70  1  0  0  0  0
 26 71  1  0  0  0  0
 26 72  1  0  0  0  0
 26 73  1  0  0  0  0
 27 34  1  0  0  0  0
 27 74  1  0  0  0  0
 28 35  2  0  0  0  0
 28 75  1  0  0  0  0
 31 37  1  0  0  0  0
 31 76  1  0  0  0  0
 32 38  2  0  0  0  0
 32 77  1  0  0  0  0
 33 40  1  0  0  0  0
 33 78  1  0  0  0  0
 33 79  1  0  0  0  0
 34 39  2  0  0  0  0
 34 80  1  0  0  0  0
 35 39  1  0  0  0  0
 35 81  1  0  0  0  0
 36 42  1  0  0  0  0
 36 82  1  0  0  0  0
 36 83  1  0  0  0  0
 37 41  2  0  0  0  0
 37 84  1  0  0  0  0
 38 41  1  0  0  0  0
 38 85  1  0  0  0  0
 39 86  1  0  0  0  0
 40 43  1  0  0  0  0
 40 87  1  0  0  0  0
 40 88  1  0  0  0  0
 41 89  1  0  0  0  0
 42 90  1  0  0  0  0
 42 91  1  0  0  0  0
 42 92  1  0  0  0  0
 43 45  2  0  0  0  0
 44 48  1  0  0  0  0
 44 93  1  0  0  0  0
 44 94  1  0  0  0  0
 45 95  1  0  0  0  0
 46 47  1  0  0  0  0
 47 49  1  0  0  0  0
 47 50  1  0  0  0  0
 47 96  1  0  0  0  0
 48 51  2  0  0  0  0
 49 97  1  0  0  0  0
 49 98  1  0  0  0  0
 49 99  1  0  0  0  0
 50100  1  0  0  0  0
 50101  1  0  0  0  0
 50102  1  0  0  0  0
 51103  1  0  0  0  0
 52104  1  0  0  0  0
M  END
> <PUBCHEM_COMPOUND_CID>
515842
> <PUBCHEM_COMPOUND_CANONICALIZED>
1
> <PUBCHEM_CACTVS_COMPLEXITY>
1080
> <PUBCHEM_CACTVS_HBOND_ACCEPTOR>
9
> <PUBCHEM_CACTVS_HBOND_DONOR>
4
> <PUBCHEM_CACTVS_ROTATABLE_BOND>
20
> <PUBCHEM_CACTVS_SUBSKEYS>
AAADcfB/uABgAAAAAAAAAAAAAAAAAWLAAAAwYAAAAAAAAAAB9AAAHgQQCAAADTzl3ga/iZPIFgisAzV3XAAC8KBxCjhI2J24aImKdDLg8TmcYAAulgL4qAeQwPAOAAAAAAAAAAAAAAAAAAAAAAAAAAAAAA==
> <PUBCHEM_IUPAC_OPENEYE_NAME>
thiazol-5-ylmethyl N-[(1S,2S,4S)-1-benzyl-4-[[(2S)-2-[[ethyl-[2-(2-isopropylthiazol-4-yl)ethyl]carbamoyl]amino]-3-methyl-butanoyl]amino]-2-hydroxy-5-phenyl-pentyl]carbamate
> <PUBCHEM_IUPAC_CAS_NAME>
N-[(2S,3S,5S)-5-[[(2S)-2-[[[ethyl-[2-(2-propan-2-yl-4-thiazolyl)ethyl]amino]-oxomethyl]amino]-3-methyl-1-oxobutyl]amino]-3-hydroxy-1,6-diphenylhexan-2-yl]carbamic acid 5-thiazolylmethyl ester
> <PUBCHEM_IUPAC_NAME_MARKUP>
1,3-thiazol-5-ylmethyl <I>N</I>-[(2<I>S</I>,3<I>S</I>,5<I>S</I>)-5-[[(2<I>S</I>)-2-[[ethyl-[2-(2-propan-2-yl-1,3-thiazol-4-yl)ethyl]carbamoyl]amino]-3-methylbutanoyl]amino]-3-hydroxy-1,6-diphenylhexan-2-yl]carbamate
> <PUBCHEM_IUPAC_NAME>
1,3-thiazol-5-ylmethyl N-[(2S,3S,5S)-5-[[(2S)-2-[[ethyl-[2-(2-propan-2-yl-1,3-thiazol-4-yl)ethyl]carbamoyl]amino]-3-methylbutanoyl]amino]-3-hydroxy-1,6-diphenylhexan-2-yl]carbamate
> <PUBCHEM_IUPAC_SYSTEMATIC_NAME>
1,3-thiazol-5-ylmethyl N-[(2S,3S,5S)-5-[[(2S)-2-[[ethyl-[2-(2-propan-2-yl-1,3-thiazol-4-yl)ethyl]carbamoyl]amino]-3-methyl-butanoyl]amino]-3-oxidanyl-1,6-diphenyl-hexan-2-yl]carbamate
> <PUBCHEM_IUPAC_TRADITIONAL_NAME>
N-[(1S,2S,4S)-1-benzyl-4-[[(2S)-2-[[ethyl-[2-(2-isopropylthiazol-4-yl)ethyl]carbamoyl]amino]-3-methyl-butanoyl]amino]-2-hydroxy-5-phenyl-pentyl]carbamic acid thiazol-5-ylmethyl ester
> <PUBCHEM_IUPAC_INCHI>
InChI=1S/C39H52N6O5S2/c1-6-45(18-17-30-24-51-37(42-30)27(4)5)38(48)44-35(26(2)3)36(47)41-31(19-28-13-9-7-10-14-28)21-34(46)33(20-29-15-11-8-12-16-29)43-39(49)50-23-32-22-40-25-52-32/h7-16,22,24-27,31,33-35,46H,6,17-21,23H2,1-5H3,(H,41,47)(H,43,49)(H,44,48)/t31-,33-,34-,35-/m0/s1
> <PUBCHEM_IUPAC_INCHIKEY>
JBUYMBPUBJBYQE-OZFLXDGESA-N
> <PUBCHEM_XLOGP3_AA>
6.9
> <PUBCHEM_EXACT_MASS>
748.34406113
> <PUBCHEM_MOLECULAR_FORMULA>
C39H52N6O5S2
> <PUBCHEM_MOLECULAR_WEIGHT>
749.0
> <PUBCHEM_OPENEYE_CAN_SMILES>
CCN(CCC1=CSC(=N1)C(C)C)C(=O)NC(C(C)C)C(=O)NC(CC2=CC=CC=C2)CC(C(CC3=CC=CC=C3)NC(=O)OCC4=CN=CS4)O
> <PUBCHEM_OPENEYE_ISO_SMILES>
CCN(CCC1=CSC(=N1)C(C)C)C(=O)N[C@@H](C(C)C)C(=O)N[C@@H](CC2=CC=CC=C2)C[C@@H]([C@H](CC3=CC=CC=C3)NC(=O)OCC4=CN=CS4)O
> <PUBCHEM_CACTVS_TPSA>
202
> <PUBCHEM_MONOISOTOPIC_WEIGHT>
748.34406113
> <PUBCHEM_TOTAL_CHARGE>
0
> <PUBCHEM_HEAVY_ATOM_COUNT>
52
> <PUBCHEM_ATOM_DEF_STEREO_COUNT>
4
> <PUBCHEM_ATOM_UDEF_STEREO_COUNT>
0
> <PUBCHEM_BOND_DEF_STEREO_COUNT>
0
> <PUBCHEM_BOND_UDEF_STEREO_COUNT>
0
> <PUBCHEM_ISOTOPIC_ATOM_COUNT>
0
> <PUBCHEM_COMPONENT_COUNT>
1
> <PUBCHEM_CACTVS_TAUTO_COUNT>
-1
> <PUBCHEM_COORDINATE_TYPE>
1
5
255
> <PUBCHEM_BONDANNOTATIONS>
1  45  8
1  46  8
20  10  6
12  43  8
12  46  8
13  51  8
13  52  8
2  48  8
2  52  8
23  27  8
23  28  8
24  31  8
24  32  8
27  34  8
28  35  8
16  3  5
31  37  8
32  38  8
34  39  8
35  39  8
37  41  8
38  41  8
43  45  8
48  51  8
14  8  6
17  9  5
$$$$
