515889
  -OEChem-10302200282D
103108  0     1  0  0  0  0  0999 V2000
    4.4494   -3.3508    0.0000 S   0  0  0  0  0  0  0  0  0  0  0  0
    5.5321    0.8516    0.0000 O   0  0  0  0  0  0  0  0  0  0  0  0
    7.2641    3.8516    0.0000 O   0  0  0  0  0  0  0  0  0  0  0  0
    5.5321   -0.1484    0.0000 O   0  0  0  0  0  0  0  0  0  0  0  0
    6.3981   -3.6484    0.0000 O   0  0  0  0  0  0  0  0  0  0  0  0
    5.5321    2.8516    0.0000 N   0  0  3  0  0  0  0  0  0  0  0  0
    6.3981    5.3516    0.0000 N   0  0  0  0  0  0  0  0  0  0  0  0
    7.2641   -0.1484    0.0000 N   0  0  0  0  0  0  0  0  0  0  0  0
    7.2641   -2.1484    0.0000 N   0  0  0  0  0  0  0  0  0  0  0  0
    8.1301   -4.6484    0.0000 N   0  0  0  0  0  0  0  0  0  0  0  0
    3.8000    3.8516    0.0000 C   0  0  2  0  0  0  0  0  0  0  0  0
    3.8000    2.8516    0.0000 C   0  0  1  0  0  0  0  0  0  0  0  0
    4.6660    4.3516    0.0000 C   0  0  0  0  0  0  0  0  0  0  0  0
    4.6660    2.3516    0.0000 C   0  0  0  0  0  0  0  0  0  0  0  0
    2.9061    4.3863    0.0000 C   0  0  0  0  0  0  0  0  0  0  0  0
    2.9061    2.3170    0.0000 C   0  0  0  0  0  0  0  0  0  0  0  0
    5.5321    3.8516    0.0000 C   0  0  1  0  0  0  0  0  0  0  0  0
    2.0000    3.8724    0.0000 C   0  0  0  0  0  0  0  0  0  0  0  0
    2.0000    2.8308    0.0000 C   0  0  0  0  0  0  0  0  0  0  0  0
    6.3981    2.3516    0.0000 C   0  0  0  0  0  0  0  0  0  0  0  0
    6.3981    4.3516    0.0000 C   0  0  0  0  0  0  0  0  0  0  0  0
    6.3981    1.3516    0.0000 C   0  0  2  0  0  0  0  0  0  0  0  0
    7.2641    0.8516    0.0000 C   0  0  2  0  0  0  0  0  0  0  0  0
    7.2641    5.8516    0.0000 C   0  0  0  0  0  0  0  0  0  0  0  0
    8.1301    1.3516    0.0000 C   0  0  0  0  0  0  0  0  0  0  0  0
    8.1301    6.3516    0.0000 C   0  0  0  0  0  0  0  0  0  0  0  0
    6.7641    6.7176    0.0000 C   0  0  0  0  0  0  0  0  0  0  0  0
    7.7641    4.9856    0.0000 C   0  0  0  0  0  0  0  0  0  0  0  0
    6.3981   -0.6484    0.0000 C   0  0  0  0  0  0  0  0  0  0  0  0
    6.3981   -1.6484    0.0000 C   0  0  2  0  0  0  0  0  0  0  0  0
    8.9962    0.8516    0.0000 C   0  0  0  0  0  0  0  0  0  0  0  0
    5.5321   -2.1484    0.0000 C   0  0  1  0  0  0  0  0  0  0  0  0
    4.6185   -1.7416    0.0000 C   0  0  0  0  0  0  0  0  0  0  0  0
    5.4275   -3.1429    0.0000 C   0  0  0  0  0  0  0  0  0  0  0  0
    3.9494   -2.4848    0.0000 C   0  0  0  0  0  0  0  0  0  0  0  0
    9.8622    1.3516    0.0000 C   0  0  0  0  0  0  0  0  0  0  0  0
    8.9962   -0.1484    0.0000 C   0  0  0  0  0  0  0  0  0  0  0  0
   10.7282    0.8516    0.0000 C   0  0  0  0  0  0  0  0  0  0  0  0
    9.8622   -0.6484    0.0000 C   0  0  0  0  0  0  0  0  0  0  0  0
    7.2641   -3.1484    0.0000 C   0  0  0  0  0  0  0  0  0  0  0  0
   10.7282   -0.1484    0.0000 C   0  0  0  0  0  0  0  0  0  0  0  0
    8.1301   -3.6484    0.0000 C   0  0  0  0  0  0  0  0  0  0  0  0
    8.9962   -3.1484    0.0000 C   0  0  0  0  0  0  0  0  0  0  0  0
    8.9962   -5.1484    0.0000 C   0  0  0  0  0  0  0  0  0  0  0  0
    9.8622   -3.6484    0.0000 C   0  0  0  0  0  0  0  0  0  0  0  0
    9.8622   -4.6484    0.0000 C   0  0  0  0  0  0  0  0  0  0  0  0
    8.9801   -6.1899    0.0000 C   0  0  0  0  0  0  0  0  0  0  0  0
   10.7722   -5.1552    0.0000 C   0  0  0  0  0  0  0  0  0  0  0  0
    9.8781   -6.7176    0.0000 C   0  0  0  0  0  0  0  0  0  0  0  0
   10.7802   -6.1968    0.0000 C   0  0  0  0  0  0  0  0  0  0  0  0
    3.8066    4.7016    0.0000 H   0  0  0  0  0  0  0  0  0  0  0  0
    3.8066    2.0016    0.0000 H   0  0  0  0  0  0  0  0  0  0  0  0
    5.0646    4.8266    0.0000 H   0  0  0  0  0  0  0  0  0  0  0  0
    4.2675    4.8266    0.0000 H   0  0  0  0  0  0  0  0  0  0  0  0
    4.2675    1.8767    0.0000 H   0  0  0  0  0  0  0  0  0  0  0  0
    5.0646    1.8767    0.0000 H   0  0  0  0  0  0  0  0  0  0  0  0
    3.3107    4.8561    0.0000 H   0  0  0  0  0  0  0  0  0  0  0  0
    2.5124    4.8653    0.0000 H   0  0  0  0  0  0  0  0  0  0  0  0
    2.5124    1.8379    0.0000 H   0  0  0  0  0  0  0  0  0  0  0  0
    3.3107    1.8472    0.0000 H   0  0  0  0  0  0  0  0  0  0  0  0
    6.0690    3.5416    0.0000 H   0  0  0  0  0  0  0  0  0  0  0  0
    1.7909    4.4561    0.0000 H   0  0  0  0  0  0  0  0  0  0  0  0
    1.3891    3.7663    0.0000 H   0  0  0  0  0  0  0  0  0  0  0  0
    1.3891    2.9369    0.0000 H   0  0  0  0  0  0  0  0  0  0  0  0
    1.7909    2.2471    0.0000 H   0  0  0  0  0  0  0  0  0  0  0  0
    7.0087    2.2440    0.0000 H   0  0  0  0  0  0  0  0  0  0  0  0
    6.6101    2.9342    0.0000 H   0  0  0  0  0  0  0  0  0  0  0  0
    6.3981    0.7316    0.0000 H   0  0  0  0  0  0  0  0  0  0  0  0
    7.8010    0.5416    0.0000 H   0  0  0  0  0  0  0  0  0  0  0  0
    5.8612    5.6616    0.0000 H   0  0  0  0  0  0  0  0  0  0  0  0
    8.5287    1.8266    0.0000 H   0  0  0  0  0  0  0  0  0  0  0  0
    7.7316    1.8266    0.0000 H   0  0  0  0  0  0  0  0  0  0  0  0
    4.9951    1.1616    0.0000 H   0  0  0  0  0  0  0  0  0  0  0  0
    7.8010   -0.4584    0.0000 H   0  0  0  0  0  0  0  0  0  0  0  0
    8.4401    5.8147    0.0000 H   0  0  0  0  0  0  0  0  0  0  0  0
    8.6671    6.6616    0.0000 H   0  0  0  0  0  0  0  0  0  0  0  0
    7.8201    6.8886    0.0000 H   0  0  0  0  0  0  0  0  0  0  0  0
    7.3010    7.0276    0.0000 H   0  0  0  0  0  0  0  0  0  0  0  0
    6.4541    7.2546    0.0000 H   0  0  0  0  0  0  0  0  0  0  0  0
    6.2272    6.4076    0.0000 H   0  0  0  0  0  0  0  0  0  0  0  0
    7.2272    4.6756    0.0000 H   0  0  0  0  0  0  0  0  0  0  0  0
    8.0741    4.4487    0.0000 H   0  0  0  0  0  0  0  0  0  0  0  0
    8.3010    5.2956    0.0000 H   0  0  0  0  0  0  0  0  0  0  0  0
    6.3981   -2.2684    0.0000 H   0  0  0  0  0  0  0  0  0  0  0  0
    5.4876   -1.2996    0.0000 H   0  0  0  0  0  0  0  0  0  0  0  0
    4.9285   -1.2047    0.0000 H   0  0  0  0  0  0  0  0  0  0  0  0
    4.1169   -1.3772    0.0000 H   0  0  0  0  0  0  0  0  0  0  0  0
    5.4923   -3.7595    0.0000 H   0  0  0  0  0  0  0  0  0  0  0  0
    6.0475   -3.1429    0.0000 H   0  0  0  0  0  0  0  0  0  0  0  0
    3.5345   -2.0240    0.0000 H   0  0  0  0  0  0  0  0  0  0  0  0
    3.4478   -2.8492    0.0000 H   0  0  0  0  0  0  0  0  0  0  0  0
    7.8010   -1.8384    0.0000 H   0  0  0  0  0  0  0  0  0  0  0  0
    9.8622    1.9716    0.0000 H   0  0  0  0  0  0  0  0  0  0  0  0
    8.4592   -0.4584    0.0000 H   0  0  0  0  0  0  0  0  0  0  0  0
   11.2651    1.1616    0.0000 H   0  0  0  0  0  0  0  0  0  0  0  0
    9.8622   -1.2684    0.0000 H   0  0  0  0  0  0  0  0  0  0  0  0
   11.2651   -0.4584    0.0000 H   0  0  0  0  0  0  0  0  0  0  0  0
    8.9962   -2.5284    0.0000 H   0  0  0  0  0  0  0  0  0  0  0  0
   10.3991   -3.3384    0.0000 H   0  0  0  0  0  0  0  0  0  0  0  0
    8.4396   -6.4937    0.0000 H   0  0  0  0  0  0  0  0  0  0  0  0
   11.3055   -4.8390    0.0000 H   0  0  0  0  0  0  0  0  0  0  0  0
    9.8758   -7.3376    0.0000 H   0  0  0  0  0  0  0  0  0  0  0  0
   11.3183   -6.5048    0.0000 H   0  0  0  0  0  0  0  0  0  0  0  0
  1 34  1  0  0  0  0
  1 35  1  0  0  0  0
 22  2  1  6  0  0  0
  2 73  1  0  0  0  0
  3 21  2  0  0  0  0
  4 29  2  0  0  0  0
  5 40  2  0  0  0  0
  6 14  1  0  0  0  0
  6 17  1  0  0  0  0
  6 20  1  0  0  0  0
  7 21  1  0  0  0  0
  7 24  1  0  0  0  0
  7 70  1  0  0  0  0
 23  8  1  6  0  0  0
  8 29  1  0  0  0  0
  8 74  1  0  0  0  0
 30  9  1  1  0  0  0
  9 40  1  0  0  0  0
  9 92  1  0  0  0  0
 10 42  2  0  0  0  0
 10 44  1  0  0  0  0
 11 12  1  0  0  0  0
 11 13  1  0  0  0  0
 11 15  1  0  0  0  0
 11 51  1  6  0  0  0
 12 14  1  0  0  0  0
 12 16  1  0  0  0  0
 12 52  1  6  0  0  0
 13 17  1  0  0  0  0
 13 53  1  0  0  0  0
 13 54  1  0  0  0  0
 14 55  1  0  0  0  0
 14 56  1  0  0  0  0
 15 18  1  0  0  0  0
 15 57  1  0  0  0  0
 15 58  1  0  0  0  0
 16 19  1  0  0  0  0
 16 59  1  0  0  0  0
 16 60  1  0  0  0  0
 17 21  1  1  0  0  0
 17 61  1  0  0  0  0
 18 19  1  0  0  0  0
 18 62  1  0  0  0  0
 18 63  1  0  0  0  0
 19 64  1  0  0  0  0
 19 65  1  0  0  0  0
 20 22  1  0  0  0  0
 20 66  1  0  0  0  0
 20 67  1  0  0  0  0
 22 23  1  0  0  0  0
 22 68  1  0  0  0  0
 23 25  1  0  0  0  0
 23 69  1  0  0  0  0
 24 26  1  0  0  0  0
 24 27  1  0  0  0  0
 24 28  1  0  0  0  0
 25 31  1  0  0  0  0
 25 71  1  0  0  0  0
 25 72  1  0  0  0  0
 26 75  1  0  0  0  0
 26 76  1  0  0  0  0
 26 77  1  0  0  0  0
 27 78  1  0  0  0  0
 27 79  1  0  0  0  0
 27 80  1  0  0  0  0
 28 81  1  0  0  0  0
 28 82  1  0  0  0  0
 28 83  1  0  0  0  0
 29 30  1  0  0  0  0
 30 32  1  0  0  0  0
 30 84  1  0  0  0  0
 31 36  2  0  0  0  0
 31 37  1  0  0  0  0
 32 33  1  0  0  0  0
 32 34  1  0  0  0  0
 32 85  1  1  0  0  0
 33 35  1  0  0  0  0
 33 86  1  0  0  0  0
 33 87  1  0  0  0  0
 34 88  1  0  0  0  0
 34 89  1  0  0  0  0
 35 90  1  0  0  0  0
 35 91  1  0  0  0  0
 36 38  1  0  0  0  0
 36 93  1  0  0  0  0
 37 39  2  0  0  0  0
 37 94  1  0  0  0  0
 38 41  2  0  0  0  0
 38 95  1  0  0  0  0
 39 41  1  0  0  0  0
 39 96  1  0  0  0  0
 40 42  1  0  0  0  0
 41 97  1  0  0  0  0
 42 43  1  0  0  0  0
 43 45  2  0  0  0  0
 43 98  1  0  0  0  0
 44 46  1  0  0  0  0
 44 47  2  0  0  0  0
 45 46  1  0  0  0  0
 45 99  1  0  0  0  0
 46 48  2  0  0  0  0
 47 49  1  0  0  0  0
 47100  1  0  0  0  0
 48 50  1  0  0  0  0
 48101  1  0  0  0  0
 49 50  2  0  0  0  0
 49102  1  0  0  0  0
 50103  1  0  0  0  0
M  END
> <PUBCHEM_COMPOUND_CID>
515889
> <PUBCHEM_COMPOUND_CANONICALIZED>
1
> <PUBCHEM_CACTVS_COMPLEXITY>
1140
> <PUBCHEM_CACTVS_HBOND_ACCEPTOR>
7
> <PUBCHEM_CACTVS_HBOND_DONOR>
4
> <PUBCHEM_CACTVS_ROTATABLE_BOND>
12
> <PUBCHEM_CACTVS_SUBSKEYS>
AAADcfB/uABAAAAAAAAAAAAAAAAAASAAAAA8eMECAAAAAACx9AAAHgQQCAAADbzl3gaywPPIEgioAyVyVACCgCAnAjAImKG4ZNgKcPLg1bGUYQhklgD4yYeYyKCOgAAAAAACAAAAAAAAACQAAAAAAAAAAA==
> <PUBCHEM_IUPAC_OPENEYE_NAME>
N-[(1S)-2-[[(1S,2R)-3-[(3S,4aS,8aS)-3-(tert-butylcarbamoyl)-3,4,4a,5,6,7,8,8a-octahydro-1H-isoquinolin-2-yl]-1-benzyl-2-hydroxy-propyl]amino]-2-oxo-1-[(3R)-tetrahydrothiophen-3-yl]ethyl]quinoline-2-carboxamide
> <PUBCHEM_IUPAC_CAS_NAME>
N-[(1S)-2-[[(2S,3R)-4-[(3S,4aS,8aS)-3-[(tert-butylamino)-oxomethyl]-3,4,4a,5,6,7,8,8a-octahydro-1H-isoquinolin-2-yl]-3-hydroxy-1-phenylbutan-2-yl]amino]-2-oxo-1-[(3R)-3-thiolanyl]ethyl]-2-quinolinecarboxamide
> <PUBCHEM_IUPAC_NAME_MARKUP>
<I>N</I>-[(1<I>S</I>)-2-[[(2<I>S</I>,3<I>R</I>)-4-[(3<I>S</I>,4<I>a</I><I>S</I>,8<I>a</I><I>S</I>)-3-(<I>tert</I>-butylcarbamoyl)-3,4,4<I>a</I>,5,6,7,8,8<I>a</I>-octahydro-1<I>H</I>-isoquinolin-2-yl]-3-hydroxy-1-phenylbutan-2-yl]amino]-2-oxo-1-[(3<I>R</I>)-thiolan-3-yl]ethyl]quinoline-2-carboxamide
> <PUBCHEM_IUPAC_NAME>
N-[(1S)-2-[[(2S,3R)-4-[(3S,4aS,8aS)-3-(tert-butylcarbamoyl)-3,4,4a,5,6,7,8,8a-octahydro-1H-isoquinolin-2-yl]-3-hydroxy-1-phenylbutan-2-yl]amino]-2-oxo-1-[(3R)-thiolan-3-yl]ethyl]quinoline-2-carboxamide
> <PUBCHEM_IUPAC_SYSTEMATIC_NAME>
N-[(1S)-2-[[(2S,3R)-4-[(3S,4aS,8aS)-3-(tert-butylcarbamoyl)-3,4,4a,5,6,7,8,8a-octahydro-1H-isoquinolin-2-yl]-3-oxidanyl-1-phenyl-butan-2-yl]amino]-2-oxidanylidene-1-[(3R)-thiolan-3-yl]ethyl]quinoline-2-carboxamide
> <PUBCHEM_IUPAC_TRADITIONAL_NAME>
N-[(1S)-2-[[(1S,2R)-3-[(3S,4aS,8aS)-3-(tert-butylcarbamoyl)-3,4,4a,5,6,7,8,8a-octahydro-1H-isoquinolin-2-yl]-1-benzyl-2-hydroxy-propyl]amino]-2-keto-1-[(3R)-tetrahydrothiophen-3-yl]ethyl]quinaldamide
> <PUBCHEM_IUPAC_INCHI>
InChI=1S/C40H53N5O4S/c1-40(2,3)44-38(48)34-22-28-14-7-8-15-29(28)23-45(34)24-35(46)33(21-26-11-5-4-6-12-26)42-39(49)36(30-19-20-50-25-30)43-37(47)32-18-17-27-13-9-10-16-31(27)41-32/h4-6,9-13,16-18,28-30,33-36,46H,7-8,14-15,19-25H2,1-3H3,(H,42,49)(H,43,47)(H,44,48)/t28-,29+,30-,33-,34-,35+,36-/m0/s1
> <PUBCHEM_IUPAC_INCHIKEY>
ZOMNPGWFMCUJBM-UEMRSFKDSA-N
> <PUBCHEM_XLOGP3_AA>
6.4
> <PUBCHEM_EXACT_MASS>
699.38182636
> <PUBCHEM_MOLECULAR_FORMULA>
C40H53N5O4S
> <PUBCHEM_MOLECULAR_WEIGHT>
699.9
> <PUBCHEM_OPENEYE_CAN_SMILES>
CC(C)(C)NC(=O)C1CC2CCCCC2CN1CC(C(CC3=CC=CC=C3)NC(=O)C(C4CCSC4)NC(=O)C5=NC6=CC=CC=C6C=C5)O
> <PUBCHEM_OPENEYE_ISO_SMILES>
CC(C)(C)NC(=O)[C@@H]1C[C@@H]2CCCC[C@@H]2CN1C[C@H]([C@H](CC3=CC=CC=C3)NC(=O)[C@H]([C@H]4CCSC4)NC(=O)C5=NC6=CC=CC=C6C=C5)O
> <PUBCHEM_CACTVS_TPSA>
149
> <PUBCHEM_MONOISOTOPIC_WEIGHT>
699.38182636
> <PUBCHEM_TOTAL_CHARGE>
0
> <PUBCHEM_HEAVY_ATOM_COUNT>
50
> <PUBCHEM_ATOM_DEF_STEREO_COUNT>
7
> <PUBCHEM_ATOM_UDEF_STEREO_COUNT>
0
> <PUBCHEM_BOND_DEF_STEREO_COUNT>
0
> <PUBCHEM_BOND_UDEF_STEREO_COUNT>
0
> <PUBCHEM_ISOTOPIC_ATOM_COUNT>
0
> <PUBCHEM_COMPONENT_COUNT>
1
> <PUBCHEM_CACTVS_TAUTO_COUNT>
-1
> <PUBCHEM_COORDINATE_TYPE>
1
5
255
> <PUBCHEM_BONDANNOTATIONS>
10  42  8
10  44  8
11  51  6
12  52  6
17  21  5
22  2  6
31  36  8
31  37  8
32  85  5
36  38  8
37  39  8
38  41  8
39  41  8
42  43  8
43  45  8
44  46  8
44  47  8
45  46  8
46  48  8
47  49  8
48  50  8
49  50  8
23  8  6
30  9  5
$$$$
