515894
  -OEChem-10302200282D
113118  0     1  0  0  0  0  0999 V2000
   10.7282   -3.1830    0.0000 Cl  0  0  0  0  0  0  0  0  0  0  0  0
    5.5321    0.8170    0.0000 O   0  0  0  0  0  0  0  0  0  0  0  0
    7.2641    3.8170    0.0000 O   0  0  0  0  0  0  0  0  0  0  0  0
    4.4494   -3.3854    0.0000 O   0  0  0  0  0  0  0  0  0  0  0  0
    5.5321   -0.1830    0.0000 O   0  0  0  0  0  0  0  0  0  0  0  0
    6.3981   -3.6830    0.0000 O   0  0  0  0  0  0  0  0  0  0  0  0
    5.5321    2.8170    0.0000 N   0  0  3  0  0  0  0  0  0  0  0  0
    6.3981    5.3170    0.0000 N   0  0  0  0  0  0  0  0  0  0  0  0
    7.2641   -0.1830    0.0000 N   0  0  0  0  0  0  0  0  0  0  0  0
    7.2641   -2.1830    0.0000 N   0  0  0  0  0  0  0  0  0  0  0  0
   10.7282   -5.1830    0.0000 N   0  0  0  0  0  0  0  0  0  0  0  0
    8.9962   -3.1830    0.0000 N   0  0  0  0  0  0  0  0  0  0  0  0
   12.4603   -6.1830    0.0000 N   0  0  0  0  0  0  0  0  0  0  0  0
    8.9962   -5.1830    0.0000 N   0  0  0  0  0  0  0  0  0  0  0  0
    3.8000    3.8170    0.0000 C   0  0  2  0  0  0  0  0  0  0  0  0
    3.8000    2.8170    0.0000 C   0  0  1  0  0  0  0  0  0  0  0  0
    4.6660    4.3170    0.0000 C   0  0  0  0  0  0  0  0  0  0  0  0
    4.6660    2.3170    0.0000 C   0  0  0  0  0  0  0  0  0  0  0  0
    2.9061    4.3516    0.0000 C   0  0  0  0  0  0  0  0  0  0  0  0
    2.9061    2.2823    0.0000 C   0  0  0  0  0  0  0  0  0  0  0  0
    5.5321    3.8170    0.0000 C   0  0  1  0  0  0  0  0  0  0  0  0
    2.0000    3.8378    0.0000 C   0  0  0  0  0  0  0  0  0  0  0  0
    2.0000    2.7962    0.0000 C   0  0  0  0  0  0  0  0  0  0  0  0
    6.3981    2.3170    0.0000 C   0  0  0  0  0  0  0  0  0  0  0  0
    6.3981    4.3170    0.0000 C   0  0  0  0  0  0  0  0  0  0  0  0
    6.3981    1.3170    0.0000 C   0  0  2  0  0  0  0  0  0  0  0  0
    7.2641    0.8170    0.0000 C   0  0  2  0  0  0  0  0  0  0  0  0
    7.2641    5.8170    0.0000 C   0  0  0  0  0  0  0  0  0  0  0  0
    8.1301    1.3170    0.0000 C   0  0  0  0  0  0  0  0  0  0  0  0
    8.1301    6.3170    0.0000 C   0  0  0  0  0  0  0  0  0  0  0  0
    6.7641    6.6830    0.0000 C   0  0  0  0  0  0  0  0  0  0  0  0
    7.7641    4.9510    0.0000 C   0  0  0  0  0  0  0  0  0  0  0  0
    6.3981   -0.6830    0.0000 C   0  0  0  0  0  0  0  0  0  0  0  0
    8.9962    0.8170    0.0000 C   0  0  0  0  0  0  0  0  0  0  0  0
    6.3981   -1.6830    0.0000 C   0  0  2  0  0  0  0  0  0  0  0  0
    5.5321   -2.1830    0.0000 C   0  0  1  0  0  0  0  0  0  0  0  0
    4.6185   -1.7763    0.0000 C   0  0  0  0  0  0  0  0  0  0  0  0
    5.4275   -3.1775    0.0000 C   0  0  0  0  0  0  0  0  0  0  0  0
    9.8622    1.3170    0.0000 C   0  0  0  0  0  0  0  0  0  0  0  0
    8.9962   -0.1830    0.0000 C   0  0  0  0  0  0  0  0  0  0  0  0
    3.9494   -2.5194    0.0000 C   0  0  0  0  0  0  0  0  0  0  0  0
   10.7282    0.8170    0.0000 C   0  0  0  0  0  0  0  0  0  0  0  0
    9.8622   -0.6830    0.0000 C   0  0  0  0  0  0  0  0  0  0  0  0
    7.2641   -3.1830    0.0000 C   0  0  0  0  0  0  0  0  0  0  0  0
   10.7282   -0.1830    0.0000 C   0  0  0  0  0  0  0  0  0  0  0  0
    8.1301   -3.6830    0.0000 C   0  0  0  0  0  0  0  0  0  0  0  0
    8.1301   -4.6830    0.0000 C   0  0  0  0  0  0  0  0  0  0  0  0
   10.7282   -6.1830    0.0000 C   0  0  0  0  0  0  0  0  0  0  0  0
   11.5942   -4.6830    0.0000 C   0  0  0  0  0  0  0  0  0  0  0  0
   11.5942   -6.6830    0.0000 C   0  0  0  0  0  0  0  0  0  0  0  0
   12.4603   -5.1830    0.0000 C   0  0  0  0  0  0  0  0  0  0  0  0
    9.8622   -4.6830    0.0000 C   0  0  0  0  0  0  0  0  0  0  0  0
    9.8622   -3.6830    0.0000 C   0  0  0  0  0  0  0  0  0  0  0  0
   13.3263   -6.6830    0.0000 C   0  0  0  0  0  0  0  0  0  0  0  0
    3.8066    4.6670    0.0000 H   0  0  0  0  0  0  0  0  0  0  0  0
    3.8066    1.9670    0.0000 H   0  0  0  0  0  0  0  0  0  0  0  0
    5.0646    4.7919    0.0000 H   0  0  0  0  0  0  0  0  0  0  0  0
    4.2675    4.7919    0.0000 H   0  0  0  0  0  0  0  0  0  0  0  0
    4.2675    1.8420    0.0000 H   0  0  0  0  0  0  0  0  0  0  0  0
    5.0646    1.8420    0.0000 H   0  0  0  0  0  0  0  0  0  0  0  0
    3.3107    4.8214    0.0000 H   0  0  0  0  0  0  0  0  0  0  0  0
    2.5124    4.8307    0.0000 H   0  0  0  0  0  0  0  0  0  0  0  0
    2.5124    1.8033    0.0000 H   0  0  0  0  0  0  0  0  0  0  0  0
    3.3107    1.8125    0.0000 H   0  0  0  0  0  0  0  0  0  0  0  0
    6.0690    3.5070    0.0000 H   0  0  0  0  0  0  0  0  0  0  0  0
    1.7909    4.4215    0.0000 H   0  0  0  0  0  0  0  0  0  0  0  0
    1.3891    3.7317    0.0000 H   0  0  0  0  0  0  0  0  0  0  0  0
    1.3891    2.9023    0.0000 H   0  0  0  0  0  0  0  0  0  0  0  0
    1.7909    2.2125    0.0000 H   0  0  0  0  0  0  0  0  0  0  0  0
    7.0087    2.2093    0.0000 H   0  0  0  0  0  0  0  0  0  0  0  0
    6.6101    2.8996    0.0000 H   0  0  0  0  0  0  0  0  0  0  0  0
    6.3981    0.6970    0.0000 H   0  0  0  0  0  0  0  0  0  0  0  0
    7.8010    0.5070    0.0000 H   0  0  0  0  0  0  0  0  0  0  0  0
    5.8612    5.6270    0.0000 H   0  0  0  0  0  0  0  0  0  0  0  0
    8.5287    1.7919    0.0000 H   0  0  0  0  0  0  0  0  0  0  0  0
    7.7316    1.7919    0.0000 H   0  0  0  0  0  0  0  0  0  0  0  0
    4.9951    1.1270    0.0000 H   0  0  0  0  0  0  0  0  0  0  0  0
    7.8010   -0.4930    0.0000 H   0  0  0  0  0  0  0  0  0  0  0  0
    8.4401    5.7800    0.0000 H   0  0  0  0  0  0  0  0  0  0  0  0
    8.6671    6.6270    0.0000 H   0  0  0  0  0  0  0  0  0  0  0  0
    7.8201    6.8539    0.0000 H   0  0  0  0  0  0  0  0  0  0  0  0
    7.3010    6.9930    0.0000 H   0  0  0  0  0  0  0  0  0  0  0  0
    6.4541    7.2200    0.0000 H   0  0  0  0  0  0  0  0  0  0  0  0
    6.2272    6.3730    0.0000 H   0  0  0  0  0  0  0  0  0  0  0  0
    7.2272    4.6410    0.0000 H   0  0  0  0  0  0  0  0  0  0  0  0
    8.0741    4.4140    0.0000 H   0  0  0  0  0  0  0  0  0  0  0  0
    8.3010    5.2610    0.0000 H   0  0  0  0  0  0  0  0  0  0  0  0
    6.3981   -2.3030    0.0000 H   0  0  0  0  0  0  0  0  0  0  0  0
    5.4876   -1.3342    0.0000 H   0  0  0  0  0  0  0  0  0  0  0  0
    4.9285   -1.2393    0.0000 H   0  0  0  0  0  0  0  0  0  0  0  0
    4.1169   -1.4118    0.0000 H   0  0  0  0  0  0  0  0  0  0  0  0
    5.4923   -3.7941    0.0000 H   0  0  0  0  0  0  0  0  0  0  0  0
    6.0475   -3.1775    0.0000 H   0  0  0  0  0  0  0  0  0  0  0  0
    9.8622    1.9370    0.0000 H   0  0  0  0  0  0  0  0  0  0  0  0
    8.4592   -0.4930    0.0000 H   0  0  0  0  0  0  0  0  0  0  0  0
    3.5345   -2.0587    0.0000 H   0  0  0  0  0  0  0  0  0  0  0  0
    3.4478   -2.8838    0.0000 H   0  0  0  0  0  0  0  0  0  0  0  0
    7.8010   -1.8730    0.0000 H   0  0  0  0  0  0  0  0  0  0  0  0
   11.2651    1.1270    0.0000 H   0  0  0  0  0  0  0  0  0  0  0  0
    9.8622   -1.3030    0.0000 H   0  0  0  0  0  0  0  0  0  0  0  0
   11.2651   -0.4930    0.0000 H   0  0  0  0  0  0  0  0  0  0  0  0
    7.5932   -4.9930    0.0000 H   0  0  0  0  0  0  0  0  0  0  0  0
   10.1176   -6.0754    0.0000 H   0  0  0  0  0  0  0  0  0  0  0  0
   10.5162   -6.7656    0.0000 H   0  0  0  0  0  0  0  0  0  0  0  0
   11.9928   -4.2081    0.0000 H   0  0  0  0  0  0  0  0  0  0  0  0
   11.1957   -4.2081    0.0000 H   0  0  0  0  0  0  0  0  0  0  0  0
   11.1957   -7.1580    0.0000 H   0  0  0  0  0  0  0  0  0  0  0  0
   11.9928   -7.1580    0.0000 H   0  0  0  0  0  0  0  0  0  0  0  0
   13.0708   -5.2907    0.0000 H   0  0  0  0  0  0  0  0  0  0  0  0
   12.6723   -4.6004    0.0000 H   0  0  0  0  0  0  0  0  0  0  0  0
   13.0163   -7.2200    0.0000 H   0  0  0  0  0  0  0  0  0  0  0  0
   13.8632   -6.9930    0.0000 H   0  0  0  0  0  0  0  0  0  0  0  0
   13.6363   -6.1461    0.0000 H   0  0  0  0  0  0  0  0  0  0  0  0
  1 53  1  0  0  0  0
 26  2  1  6  0  0  0
  2 77  1  0  0  0  0
  3 25  2  0  0  0  0
  4 38  1  0  0  0  0
  4 41  1  0  0  0  0
  5 33  2  0  0  0  0
  6 44  2  0  0  0  0
  7 18  1  0  0  0  0
  7 21  1  0  0  0  0
  7 24  1  0  0  0  0
  8 25  1  0  0  0  0
  8 28  1  0  0  0  0
  8 74  1  0  0  0  0
 27  9  1  6  0  0  0
  9 33  1  0  0  0  0
  9 78  1  0  0  0  0
 35 10  1  1  0  0  0
 10 44  1  0  0  0  0
 10 98  1  0  0  0  0
 11 48  1  0  0  0  0
 11 49  1  0  0  0  0
 11 52  1  0  0  0  0
 12 46  1  0  0  0  0
 12 53  2  0  0  0  0
 13 50  1  0  0  0  0
 13 51  1  0  0  0  0
 13 54  1  0  0  0  0
 14 47  1  0  0  0  0
 14 52  2  0  0  0  0
 15 16  1  0  0  0  0
 15 17  1  0  0  0  0
 15 19  1  0  0  0  0
 15 55  1  6  0  0  0
 16 18  1  0  0  0  0
 16 20  1  0  0  0  0
 16 56  1  6  0  0  0
 17 21  1  0  0  0  0
 17 57  1  0  0  0  0
 17 58  1  0  0  0  0
 18 59  1  0  0  0  0
 18 60  1  0  0  0  0
 19 22  1  0  0  0  0
 19 61  1  0  0  0  0
 19 62  1  0  0  0  0
 20 23  1  0  0  0  0
 20 63  1  0  0  0  0
 20 64  1  0  0  0  0
 21 25  1  1  0  0  0
 21 65  1  0  0  0  0
 22 23  1  0  0  0  0
 22 66  1  0  0  0  0
 22 67  1  0  0  0  0
 23 68  1  0  0  0  0
 23 69  1  0  0  0  0
 24 26  1  0  0  0  0
 24 70  1  0  0  0  0
 24 71  1  0  0  0  0
 26 27  1  0  0  0  0
 26 72  1  0  0  0  0
 27 29  1  0  0  0  0
 27 73  1  0  0  0  0
 28 30  1  0  0  0  0
 28 31  1  0  0  0  0
 28 32  1  0  0  0  0
 29 34  1  0  0  0  0
 29 75  1  0  0  0  0
 29 76  1  0  0  0  0
 30 79  1  0  0  0  0
 30 80  1  0  0  0  0
 30 81  1  0  0  0  0
 31 82  1  0  0  0  0
 31 83  1  0  0  0  0
 31 84  1  0  0  0  0
 32 85  1  0  0  0  0
 32 86  1  0  0  0  0
 32 87  1  0  0  0  0
 33 35  1  0  0  0  0
 34 39  2  0  0  0  0
 34 40  1  0  0  0  0
 35 36  1  0  0  0  0
 35 88  1  0  0  0  0
 36 37  1  0  0  0  0
 36 38  1  0  0  0  0
 36 89  1  1  0  0  0
 37 41  1  0  0  0  0
 37 90  1  0  0  0  0
 37 91  1  0  0  0  0
 38 92  1  0  0  0  0
 38 93  1  0  0  0  0
 39 42  1  0  0  0  0
 39 94  1  0  0  0  0
 40 43  2  0  0  0  0
 40 95  1  0  0  0  0
 41 96  1  0  0  0  0
 41 97  1  0  0  0  0
 42 45  2  0  0  0  0
 42 99  1  0  0  0  0
 43 45  1  0  0  0  0
 43100  1  0  0  0  0
 44 46  1  0  0  0  0
 45101  1  0  0  0  0
 46 47  2  0  0  0  0
 47102  1  0  0  0  0
 48 50  1  0  0  0  0
 48103  1  0  0  0  0
 48104  1  0  0  0  0
 49 51  1  0  0  0  0
 49105  1  0  0  0  0
 49106  1  0  0  0  0
 50107  1  0  0  0  0
 50108  1  0  0  0  0
 51109  1  0  0  0  0
 51110  1  0  0  0  0
 52 53  1  0  0  0  0
 54111  1  0  0  0  0
 54112  1  0  0  0  0
 54113  1  0  0  0  0
M  END
> <PUBCHEM_COMPOUND_CID>
515894
> <PUBCHEM_COMPOUND_CANONICALIZED>
1
> <PUBCHEM_CACTVS_COMPLEXITY>
1240
> <PUBCHEM_CACTVS_HBOND_ACCEPTOR>
10
> <PUBCHEM_CACTVS_HBOND_DONOR>
4
> <PUBCHEM_CACTVS_ROTATABLE_BOND>
13
> <PUBCHEM_CACTVS_SUBSKEYS>
AAADcfB/+AAEAAAAAAAAAAAAAAAAASAAAAA8eLECAAAAAACxwAAAHgIQCAAADb7hniY/sJPIFgCoAzd3dACCgC03EiAJ2IG4dMiKcHrA2THWYIgulgLYiOe63KKOgAAAAAAAAAAAAAAAACAAAAAAAAAAAA==
> <PUBCHEM_IUPAC_OPENEYE_NAME>
(3S,4aS,8aS)-N-tert-butyl-2-[(2R,3S)-3-[[(2S)-2-[[6-chloro-5-(4-methylpiperazin-1-yl)pyrazine-2-carbonyl]amino]-2-[(3R)-tetrahydrofuran-3-yl]acetyl]amino]-2-hydroxy-4-phenyl-butyl]-3,4,4a,5,6,7,8,8a-octahydro-1H-isoquinoline-3-carboxamide
> <PUBCHEM_IUPAC_CAS_NAME>
(3S,4aS,8aS)-N-tert-butyl-2-[(2R,3S)-3-[[(2S)-2-[[[6-chloro-5-(4-methyl-1-piperazinyl)-2-pyrazinyl]-oxomethyl]amino]-1-oxo-2-[(3R)-3-oxolanyl]ethyl]amino]-2-hydroxy-4-phenylbutyl]-3,4,4a,5,6,7,8,8a-octahydro-1H-isoquinoline-3-carboxamide
> <PUBCHEM_IUPAC_NAME_MARKUP>
(3<I>S</I>,4<I>a</I><I>S</I>,8<I>a</I><I>S</I>)-<I>N</I>-<I>tert</I>-butyl-2-[(2<I>R</I>,3<I>S</I>)-3-[[(2<I>S</I>)-2-[[6-chloro-5-(4-methylpiperazin-1-yl)pyrazine-2-carbonyl]amino]-2-[(3<I>R</I>)-oxolan-3-yl]acetyl]amino]-2-hydroxy-4-phenylbutyl]-3,4,4<I>a</I>,5,6,7,8,8<I>a</I>-octahydro-1<I>H</I>-isoquinoline-3-carboxamide
> <PUBCHEM_IUPAC_NAME>
(3S,4aS,8aS)-N-tert-butyl-2-[(2R,3S)-3-[[(2S)-2-[[6-chloro-5-(4-methylpiperazin-1-yl)pyrazine-2-carbonyl]amino]-2-[(3R)-oxolan-3-yl]acetyl]amino]-2-hydroxy-4-phenylbutyl]-3,4,4a,5,6,7,8,8a-octahydro-1H-isoquinoline-3-carboxamide
> <PUBCHEM_IUPAC_SYSTEMATIC_NAME>
(3S,4aS,8aS)-N-tert-butyl-2-[(2R,3S)-3-[[(2S)-2-[[6-chloranyl-5-(4-methylpiperazin-1-yl)pyrazin-2-yl]carbonylamino]-2-[(3R)-oxolan-3-yl]ethanoyl]amino]-2-oxidanyl-4-phenyl-butyl]-3,4,4a,5,6,7,8,8a-octahydro-1H-isoquinoline-3-carboxamide
> <PUBCHEM_IUPAC_TRADITIONAL_NAME>
(3S,4aS,8aS)-N-tert-butyl-2-[(2R,3S)-3-[[(2S)-2-[[6-chloro-5-(4-methylpiperazino)pyrazinoyl]amino]-2-[(3R)-tetrahydrofuran-3-yl]acetyl]amino]-2-hydroxy-4-phenyl-butyl]-3,4,4a,5,6,7,8,8a-octahydro-1H-isoquinoline-3-carboxamide
> <PUBCHEM_IUPAC_INCHI>
InChI=1S/C40H59ClN8O5/c1-40(2,3)46-38(52)32-21-27-12-8-9-13-28(27)23-49(32)24-33(50)30(20-26-10-6-5-7-11-26)44-39(53)34(29-14-19-54-25-29)45-37(51)31-22-42-36(35(41)43-31)48-17-15-47(4)16-18-48/h5-7,10-11,22,27-30,32-34,50H,8-9,12-21,23-25H2,1-4H3,(H,44,53)(H,45,51)(H,46,52)/t27-,28+,29-,30-,32-,33+,34-/m0/s1
> <PUBCHEM_IUPAC_INCHIKEY>
OEBPYTHAFYTQCV-ONKMLZBSSA-N
> <PUBCHEM_XLOGP3_AA>
4.5
> <PUBCHEM_EXACT_MASS>
766.4296947
> <PUBCHEM_MOLECULAR_FORMULA>
C40H59ClN8O5
> <PUBCHEM_MOLECULAR_WEIGHT>
767.4
> <PUBCHEM_OPENEYE_CAN_SMILES>
CC(C)(C)NC(=O)C1CC2CCCCC2CN1CC(C(CC3=CC=CC=C3)NC(=O)C(C4CCOC4)NC(=O)C5=CN=C(C(=N5)Cl)N6CCN(CC6)C)O
> <PUBCHEM_OPENEYE_ISO_SMILES>
CC(C)(C)NC(=O)[C@@H]1C[C@@H]2CCCC[C@@H]2CN1C[C@H]([C@H](CC3=CC=CC=C3)NC(=O)[C@H]([C@H]4CCOC4)NC(=O)C5=CN=C(C(=N5)Cl)N6CCN(CC6)C)O
> <PUBCHEM_CACTVS_TPSA>
152
> <PUBCHEM_MONOISOTOPIC_WEIGHT>
766.4296947
> <PUBCHEM_TOTAL_CHARGE>
0
> <PUBCHEM_HEAVY_ATOM_COUNT>
54
> <PUBCHEM_ATOM_DEF_STEREO_COUNT>
7
> <PUBCHEM_ATOM_UDEF_STEREO_COUNT>
0
> <PUBCHEM_BOND_DEF_STEREO_COUNT>
0
> <PUBCHEM_BOND_UDEF_STEREO_COUNT>
0
> <PUBCHEM_ISOTOPIC_ATOM_COUNT>
0
> <PUBCHEM_COMPONENT_COUNT>
1
> <PUBCHEM_CACTVS_TAUTO_COUNT>
-1
> <PUBCHEM_COORDINATE_TYPE>
1
5
255
> <PUBCHEM_BONDANNOTATIONS>
35  10  5
12  46  8
12  53  8
14  47  8
14  52  8
15  55  6
16  56  6
26  2  6
21  25  5
34  39  8
34  40  8
36  89  5
39  42  8
40  43  8
42  45  8
43  45  8
46  47  8
52  53  8
27  9  6
$$$$
