515867
  -OEChem-10302200282D
 84 90  0     1  0  0  0  0  0999 V2000
    4.7401    3.2133    0.0000 O   0  0  0  0  0  0  0  0  0  0  0  0
    4.0577    1.4747    0.0000 O   0  0  0  0  0  0  0  0  0  0  0  0
    8.2077    0.8492    0.0000 O   0  0  0  0  0  0  0  0  0  0  0  0
    7.2021    2.2117    0.0000 N   0  0  0  0  0  0  0  0  0  0  0  0
    6.5438    0.5343    0.0000 N   0  0  0  0  0  0  0  0  0  0  0  0
   11.6124    0.9070    0.0000 N   0  0  0  0  0  0  0  0  0  0  0  0
   12.1960    1.7117    0.0000 N   0  0  0  0  0  0  0  0  0  0  0  0
    5.3875   -4.5315    0.0000 N   0  0  0  0  0  0  0  0  0  0  0  0
    5.5808   -5.5127    0.0000 N   0  0  0  0  0  0  0  0  0  0  0  0
    4.7074   -5.9997    0.0000 N   0  0  0  0  0  0  0  0  0  0  0  0
    6.3758    2.7750    0.0000 C   0  0  1  0  0  0  0  0  0  0  0  0
    5.5549    0.6834    0.0000 C   0  0  1  0  0  0  0  0  0  0  0  0
    5.4203    2.4803    0.0000 C   0  0  1  0  0  0  0  0  0  0  0  0
    5.0549    1.5494    0.0000 C   0  0  1  0  0  0  0  0  0  0  0  0
    6.5249    3.7639    0.0000 C   0  0  0  0  0  0  0  0  0  0  0  0
    4.9916   -0.1429    0.0000 C   0  0  0  0  0  0  0  0  0  0  0  0
    7.2768    1.2145    0.0000 C   0  0  0  0  0  0  0  0  0  0  0  0
    8.0681    2.7117    0.0000 C   0  0  0  0  0  0  0  0  0  0  0  0
    6.8385   -0.4212    0.0000 C   0  0  0  0  0  0  0  0  0  0  0  0
    5.7431    4.3874    0.0000 C   0  0  0  0  0  0  0  0  0  0  0  0
    3.9944   -0.0681    0.0000 C   0  0  0  0  0  0  0  0  0  0  0  0
    8.9341    2.2117    0.0000 C   0  0  0  0  0  0  0  0  0  0  0  0
    6.1583   -1.1543    0.0000 C   0  0  0  0  0  0  0  0  0  0  0  0
    4.8122    4.0220    0.0000 C   0  0  0  0  0  0  0  0  0  0  0  0
    5.8921    5.3762    0.0000 C   0  0  0  0  0  0  0  0  0  0  0  0
    3.4311   -0.8944    0.0000 C   0  0  0  0  0  0  0  0  0  0  0  0
    3.5605    0.8328    0.0000 C   0  0  0  0  0  0  0  0  0  0  0  0
    9.8002    2.7117    0.0000 C   0  0  0  0  0  0  0  0  0  0  0  0
    6.4531   -2.1099    0.0000 C   0  0  0  0  0  0  0  0  0  0  0  0
    8.9341    1.2117    0.0000 C   0  0  0  0  0  0  0  0  0  0  0  0
    5.1834   -0.9318    0.0000 C   0  0  0  0  0  0  0  0  0  0  0  0
   10.6662    2.2117    0.0000 C   0  0  0  0  0  0  0  0  0  0  0  0
    5.7729   -2.8429    0.0000 C   0  0  0  0  0  0  0  0  0  0  0  0
    4.0304    4.6455    0.0000 C   0  0  0  0  0  0  0  0  0  0  0  0
    5.1103    5.9997    0.0000 C   0  0  0  0  0  0  0  0  0  0  0  0
    2.4339   -0.8196    0.0000 C   0  0  0  0  0  0  0  0  0  0  0  0
    2.5633    0.9076    0.0000 C   0  0  0  0  0  0  0  0  0  0  0  0
    9.8002    0.7117    0.0000 C   0  0  0  0  0  0  0  0  0  0  0  0
   10.6662    1.2117    0.0000 C   0  0  0  0  0  0  0  0  0  0  0  0
    4.5032   -1.6648    0.0000 C   0  0  0  0  0  0  0  0  0  0  0  0
    4.1794    5.6343    0.0000 C   0  0  0  0  0  0  0  0  0  0  0  0
    2.0000    0.0813    0.0000 C   0  0  0  0  0  0  0  0  0  0  0  0
    4.7980   -2.6204    0.0000 C   0  0  0  0  0  0  0  0  0  0  0  0
    6.0677   -3.7985    0.0000 C   0  0  0  0  0  0  0  0  0  0  0  0
   11.6124    2.5164    0.0000 C   0  0  0  0  0  0  0  0  0  0  0  0
    4.3947   -4.4121    0.0000 C   0  0  0  0  0  0  0  0  0  0  0  0
    3.9743   -5.3195    0.0000 C   0  0  0  0  0  0  0  0  0  0  0  0
    6.9441    3.0230    0.0000 H   0  0  0  0  0  0  0  0  0  0  0  0
    5.8029    0.1151    0.0000 H   0  0  0  0  0  0  0  0  0  0  0  0
    4.8111    2.3650    0.0000 H   0  0  0  0  0  0  0  0  0  0  0  0
    4.7652    1.0012    0.0000 H   0  0  0  0  0  0  0  0  0  0  0  0
    7.1126    3.5664    0.0000 H   0  0  0  0  0  0  0  0  0  0  0  0
    6.8214    4.3084    0.0000 H   0  0  0  0  0  0  0  0  0  0  0  0
    4.8386   -0.7437    0.0000 H   0  0  0  0  0  0  0  0  0  0  0  0
    5.5568   -0.3979    0.0000 H   0  0  0  0  0  0  0  0  0  0  0  0
    8.4666    3.1867    0.0000 H   0  0  0  0  0  0  0  0  0  0  0  0
    7.6696    3.1867    0.0000 H   0  0  0  0  0  0  0  0  0  0  0  0
    7.2129   -0.9155    0.0000 H   0  0  0  0  0  0  0  0  0  0  0  0
    7.3902   -0.1384    0.0000 H   0  0  0  0  0  0  0  0  0  0  0  0
    4.1356    3.0754    0.0000 H   0  0  0  0  0  0  0  0  0  0  0  0
    3.7085    1.9869    0.0000 H   0  0  0  0  0  0  0  0  0  0  0  0
    4.7198    3.4089    0.0000 H   0  0  0  0  0  0  0  0  0  0  0  0
    6.4692    5.6027    0.0000 H   0  0  0  0  0  0  0  0  0  0  0  0
    3.7001   -1.4530    0.0000 H   0  0  0  0  0  0  0  0  0  0  0  0
    3.9098    1.3451    0.0000 H   0  0  0  0  0  0  0  0  0  0  0  0
    9.8002    3.3317    0.0000 H   0  0  0  0  0  0  0  0  0  0  0  0
    7.0576   -2.2478    0.0000 H   0  0  0  0  0  0  0  0  0  0  0  0
    8.3972    0.9017    0.0000 H   0  0  0  0  0  0  0  0  0  0  0  0
    5.0007   -0.3393    0.0000 H   0  0  0  0  0  0  0  0  0  0  0  0
    3.4532    4.4190    0.0000 H   0  0  0  0  0  0  0  0  0  0  0  0
    5.2027    6.6128    0.0000 H   0  0  0  0  0  0  0  0  0  0  0  0
    2.0846   -1.3319    0.0000 H   0  0  0  0  0  0  0  0  0  0  0  0
    2.2943    1.4662    0.0000 H   0  0  0  0  0  0  0  0  0  0  0  0
    9.8002    0.0917    0.0000 H   0  0  0  0  0  0  0  0  0  0  0  0
    3.8988   -1.5269    0.0000 H   0  0  0  0  0  0  0  0  0  0  0  0
    3.6947    6.0209    0.0000 H   0  0  0  0  0  0  0  0  0  0  0  0
    1.3817    0.1277    0.0000 H   0  0  0  0  0  0  0  0  0  0  0  0
    4.3763   -3.0749    0.0000 H   0  0  0  0  0  0  0  0  0  0  0  0
    6.4420   -4.2927    0.0000 H   0  0  0  0  0  0  0  0  0  0  0  0
    6.6194   -3.5156    0.0000 H   0  0  0  0  0  0  0  0  0  0  0  0
   11.8050    3.1058    0.0000 H   0  0  0  0  0  0  0  0  0  0  0  0
   11.8050    0.3177    0.0000 H   0  0  0  0  0  0  0  0  0  0  0  0
    4.0927   -3.8706    0.0000 H   0  0  0  0  0  0  0  0  0  0  0  0
    3.3660   -5.4393    0.0000 H   0  0  0  0  0  0  0  0  0  0  0  0
 13  1  1  1  0  0  0
  1 60  1  0  0  0  0
 14  2  1  6  0  0  0
  2 61  1  0  0  0  0
  3 17  2  0  0  0  0
  4 11  1  0  0  0  0
  4 17  1  0  0  0  0
  4 18  1  0  0  0  0
  5 12  1  0  0  0  0
  5 17  1  0  0  0  0
  5 19  1  0  0  0  0
  6  7  1  0  0  0  0
  6 39  1  0  0  0  0
  6 82  1  0  0  0  0
  7 45  2  0  0  0  0
  8  9  1  0  0  0  0
  8 44  1  0  0  0  0
  8 46  1  0  0  0  0
  9 10  2  0  0  0  0
 10 47  1  0  0  0  0
 11 13  1  0  0  0  0
 11 15  1  1  0  0  0
 11 48  1  0  0  0  0
 12 14  1  0  0  0  0
 12 16  1  6  0  0  0
 12 49  1  0  0  0  0
 13 14  1  0  0  0  0
 13 50  1  0  0  0  0
 14 51  1  0  0  0  0
 15 20  1  0  0  0  0
 15 52  1  0  0  0  0
 15 53  1  0  0  0  0
 16 21  1  0  0  0  0
 16 54  1  0  0  0  0
 16 55  1  0  0  0  0
 18 22  1  0  0  0  0
 18 56  1  0  0  0  0
 18 57  1  0  0  0  0
 19 23  1  0  0  0  0
 19 58  1  0  0  0  0
 19 59  1  0  0  0  0
 20 24  2  0  0  0  0
 20 25  1  0  0  0  0
 21 26  2  0  0  0  0
 21 27  1  0  0  0  0
 22 28  2  0  0  0  0
 22 30  1  0  0  0  0
 23 29  1  0  0  0  0
 23 31  2  0  0  0  0
 24 34  1  0  0  0  0
 24 62  1  0  0  0  0
 25 35  2  0  0  0  0
 25 63  1  0  0  0  0
 26 36  1  0  0  0  0
 26 64  1  0  0  0  0
 27 37  2  0  0  0  0
 27 65  1  0  0  0  0
 28 32  1  0  0  0  0
 28 66  1  0  0  0  0
 29 33  2  0  0  0  0
 29 67  1  0  0  0  0
 30 38  2  0  0  0  0
 30 68  1  0  0  0  0
 31 40  1  0  0  0  0
 31 69  1  0  0  0  0
 32 39  2  0  0  0  0
 32 45  1  0  0  0  0
 33 43  1  0  0  0  0
 33 44  1  0  0  0  0
 34 41  2  0  0  0  0
 34 70  1  0  0  0  0
 35 41  1  0  0  0  0
 35 71  1  0  0  0  0
 36 42  2  0  0  0  0
 36 72  1  0  0  0  0
 37 42  1  0  0  0  0
 37 73  1  0  0  0  0
 38 39  1  0  0  0  0
 38 74  1  0  0  0  0
 40 43  2  0  0  0  0
 40 75  1  0  0  0  0
 41 76  1  0  0  0  0
 42 77  1  0  0  0  0
 43 78  1  0  0  0  0
 44 79  1  0  0  0  0
 44 80  1  0  0  0  0
 45 81  1  0  0  0  0
 46 47  2  0  0  0  0
 46 83  1  0  0  0  0
 47 84  1  0  0  0  0
M  END
> <PUBCHEM_COMPOUND_CID>
515867
> <PUBCHEM_COMPOUND_CANONICALIZED>
1
> <PUBCHEM_CACTVS_COMPLEXITY>
993
> <PUBCHEM_CACTVS_HBOND_ACCEPTOR>
6
> <PUBCHEM_CACTVS_HBOND_DONOR>
3
> <PUBCHEM_CACTVS_ROTATABLE_BOND>
10
> <PUBCHEM_CACTVS_SUBSKEYS>
AAADcfB/sAAAAAAAAAAAAAAAAAAAAWLAAAAwYMGABYAAAFgB/AAAHgAYCAAADDzhngY9wPNrAgCqAzRnVACSBAQxkgAY+SA4dJiLcKKA0dGU5AhungKZyAeQwPAOCAACAAACAAAQAAQAAAQAAAAAAAAAAA==
> <PUBCHEM_IUPAC_OPENEYE_NAME>
(4R,5S,6S,7R)-4,7-dibenzyl-5,6-dihydroxy-1-(1H-indazol-5-ylmethyl)-3-[[3-(triazol-1-ylmethyl)phenyl]methyl]-1,3-diazepan-2-one
> <PUBCHEM_IUPAC_CAS_NAME>
(4R,5S,6S,7R)-5,6-dihydroxy-1-(1H-indazol-5-ylmethyl)-4,7-bis(phenylmethyl)-3-[[3-(1-triazolylmethyl)phenyl]methyl]-1,3-diazepan-2-one
> <PUBCHEM_IUPAC_NAME_MARKUP>
(4<I>R</I>,5<I>S</I>,6<I>S</I>,7<I>R</I>)-4,7-dibenzyl-5,6-dihydroxy-1-(1<I>H</I>-indazol-5-ylmethyl)-3-[[3-(triazol-1-ylmethyl)phenyl]methyl]-1,3-diazepan-2-one
> <PUBCHEM_IUPAC_NAME>
(4R,5S,6S,7R)-4,7-dibenzyl-5,6-dihydroxy-1-(1H-indazol-5-ylmethyl)-3-[[3-(triazol-1-ylmethyl)phenyl]methyl]-1,3-diazepan-2-one
> <PUBCHEM_IUPAC_SYSTEMATIC_NAME>
(4R,5S,6S,7R)-1-(1H-indazol-5-ylmethyl)-5,6-bis(oxidanyl)-4,7-bis(phenylmethyl)-3-[[3-(1,2,3-triazol-1-ylmethyl)phenyl]methyl]-1,3-diazepan-2-one
> <PUBCHEM_IUPAC_TRADITIONAL_NAME>
(4R,5S,6S,7R)-4,7-dibenzyl-5,6-dihydroxy-1-(1H-indazol-5-ylmethyl)-3-[3-(triazol-1-ylmethyl)benzyl]-1,3-diazepan-2-one
> <PUBCHEM_IUPAC_INCHI>
InChI=1S/C37H37N7O3/c45-35-33(20-26-8-3-1-4-9-26)43(24-29-13-7-12-28(18-29)23-42-17-16-38-41-42)37(47)44(25-30-14-15-32-31(19-30)22-39-40-32)34(36(35)46)21-27-10-5-2-6-11-27/h1-19,22,33-36,45-46H,20-21,23-25H2,(H,39,40)/t33-,34-,35+,36+/m1/s1
> <PUBCHEM_IUPAC_INCHIKEY>
TYWFTCCQWGMFKY-NWJWHWDBSA-N
> <PUBCHEM_XLOGP3_AA>
4.3
> <PUBCHEM_EXACT_MASS>
627.29578807
> <PUBCHEM_MOLECULAR_FORMULA>
C37H37N7O3
> <PUBCHEM_MOLECULAR_WEIGHT>
627.7
> <PUBCHEM_OPENEYE_CAN_SMILES>
C1=CC=C(C=C1)CC2C(C(C(N(C(=O)N2CC3=CC4=C(C=C3)NN=C4)CC5=CC=CC(=C5)CN6C=CN=N6)CC7=CC=CC=C7)O)O
> <PUBCHEM_OPENEYE_ISO_SMILES>
C1=CC=C(C=C1)C[C@@H]2[C@@H]([C@H]([C@H](N(C(=O)N2CC3=CC4=C(C=C3)NN=C4)CC5=CC=CC(=C5)CN6C=CN=N6)CC7=CC=CC=C7)O)O
> <PUBCHEM_CACTVS_TPSA>
123
> <PUBCHEM_MONOISOTOPIC_WEIGHT>
627.29578807
> <PUBCHEM_TOTAL_CHARGE>
0
> <PUBCHEM_HEAVY_ATOM_COUNT>
47
> <PUBCHEM_ATOM_DEF_STEREO_COUNT>
4
> <PUBCHEM_ATOM_UDEF_STEREO_COUNT>
0
> <PUBCHEM_BOND_DEF_STEREO_COUNT>
0
> <PUBCHEM_BOND_UDEF_STEREO_COUNT>
0
> <PUBCHEM_ISOTOPIC_ATOM_COUNT>
0
> <PUBCHEM_COMPONENT_COUNT>
1
> <PUBCHEM_CACTVS_TAUTO_COUNT>
-1
> <PUBCHEM_COORDINATE_TYPE>
1
5
255
> <PUBCHEM_BONDANNOTATIONS>
13  1  5
10  47  8
11  15  5
12  16  6
14  2  6
20  24  8
20  25  8
21  26  8
21  27  8
22  28  8
22  30  8
23  29  8
23  31  8
24  34  8
25  35  8
26  36  8
27  37  8
28  32  8
29  33  8
30  38  8
31  40  8
32  39  8
32  45  8
33  43  8
34  41  8
35  41  8
36  42  8
37  42  8
38  39  8
40  43  8
46  47  8
6  39  8
6  7  8
7  45  8
8  46  8
8  9  8
9  10  8
$$$$
