515854
  -OEChem-10302200282D
 82 87  0     1  0  0  0  0  0999 V2000
    4.7401    2.5952    0.0000 O   0  0  0  0  0  0  0  0  0  0  0  0
    4.0577    0.8566    0.0000 O   0  0  0  0  0  0  0  0  0  0  0  0
    8.2077    0.2311    0.0000 O   0  0  0  0  0  0  0  0  0  0  0  0
    4.4126   -4.9271    0.0000 O   0  0  0  0  0  0  0  0  0  0  0  0
    7.2021    1.5936    0.0000 N   0  0  0  0  0  0  0  0  0  0  0  0
    6.5438   -0.0837    0.0000 N   0  0  0  0  0  0  0  0  0  0  0  0
   11.6124    0.2889    0.0000 N   0  0  0  0  0  0  0  0  0  0  0  0
   12.1960    1.0936    0.0000 N   0  0  0  0  0  0  0  0  0  0  0  0
    6.3758    2.1570    0.0000 C   0  0  1  0  0  0  0  0  0  0  0  0
    5.5549    0.0653    0.0000 C   0  0  1  0  0  0  0  0  0  0  0  0
    5.4203    1.8622    0.0000 C   0  0  1  0  0  0  0  0  0  0  0  0
    5.0549    0.9313    0.0000 C   0  0  1  0  0  0  0  0  0  0  0  0
    6.5249    3.1458    0.0000 C   0  0  0  0  0  0  0  0  0  0  0  0
    4.9916   -0.7609    0.0000 C   0  0  0  0  0  0  0  0  0  0  0  0
    7.2768    0.5964    0.0000 C   0  0  0  0  0  0  0  0  0  0  0  0
    8.0681    2.0936    0.0000 C   0  0  0  0  0  0  0  0  0  0  0  0
    6.8385   -1.0393    0.0000 C   0  0  0  0  0  0  0  0  0  0  0  0
    5.7431    3.7693    0.0000 C   0  0  0  0  0  0  0  0  0  0  0  0
    3.9944   -0.6862    0.0000 C   0  0  0  0  0  0  0  0  0  0  0  0
    8.9341    1.5936    0.0000 C   0  0  0  0  0  0  0  0  0  0  0  0
    6.1583   -1.7724    0.0000 C   0  0  0  0  0  0  0  0  0  0  0  0
    5.8921    4.7581    0.0000 C   0  0  0  0  0  0  0  0  0  0  0  0
    4.8122    3.4039    0.0000 C   0  0  0  0  0  0  0  0  0  0  0  0
    3.4311   -1.5124    0.0000 C   0  0  0  0  0  0  0  0  0  0  0  0
    3.5605    0.2148    0.0000 C   0  0  0  0  0  0  0  0  0  0  0  0
    9.8002    2.0936    0.0000 C   0  0  0  0  0  0  0  0  0  0  0  0
    6.4531   -2.7279    0.0000 C   0  0  0  0  0  0  0  0  0  0  0  0
    8.9341    0.5936    0.0000 C   0  0  0  0  0  0  0  0  0  0  0  0
    5.1834   -1.5498    0.0000 C   0  0  0  0  0  0  0  0  0  0  0  0
   10.6662    1.5936    0.0000 C   0  0  0  0  0  0  0  0  0  0  0  0
    5.7729   -3.4610    0.0000 C   0  0  0  0  0  0  0  0  0  0  0  0
    5.1103    5.3816    0.0000 C   0  0  0  0  0  0  0  0  0  0  0  0
    4.0304    4.0274    0.0000 C   0  0  0  0  0  0  0  0  0  0  0  0
    2.4339   -1.4377    0.0000 C   0  0  0  0  0  0  0  0  0  0  0  0
    2.5633    0.2895    0.0000 C   0  0  0  0  0  0  0  0  0  0  0  0
    9.8002    0.0936    0.0000 C   0  0  0  0  0  0  0  0  0  0  0  0
   10.6662    0.5936    0.0000 C   0  0  0  0  0  0  0  0  0  0  0  0
    4.5032   -2.2829    0.0000 C   0  0  0  0  0  0  0  0  0  0  0  0
    4.1794    5.0162    0.0000 C   0  0  0  0  0  0  0  0  0  0  0  0
    2.0000   -0.5368    0.0000 C   0  0  0  0  0  0  0  0  0  0  0  0
    4.7980   -3.2385    0.0000 C   0  0  0  0  0  0  0  0  0  0  0  0
    6.0677   -4.4166    0.0000 C   0  0  0  0  0  0  0  0  0  0  0  0
   11.6124    1.8984    0.0000 C   0  0  0  0  0  0  0  0  0  0  0  0
    5.3875   -5.1496    0.0000 C   0  0  0  0  0  0  0  0  0  0  0  0
    6.9441    2.4049    0.0000 H   0  0  0  0  0  0  0  0  0  0  0  0
    5.8029   -0.5030    0.0000 H   0  0  0  0  0  0  0  0  0  0  0  0
    4.8111    1.7469    0.0000 H   0  0  0  0  0  0  0  0  0  0  0  0
    4.7652    0.3832    0.0000 H   0  0  0  0  0  0  0  0  0  0  0  0
    7.1126    2.9483    0.0000 H   0  0  0  0  0  0  0  0  0  0  0  0
    6.8214    3.6903    0.0000 H   0  0  0  0  0  0  0  0  0  0  0  0
    4.8386   -1.3618    0.0000 H   0  0  0  0  0  0  0  0  0  0  0  0
    5.5568   -1.0159    0.0000 H   0  0  0  0  0  0  0  0  0  0  0  0
    8.4666    2.5686    0.0000 H   0  0  0  0  0  0  0  0  0  0  0  0
    7.6696    2.5686    0.0000 H   0  0  0  0  0  0  0  0  0  0  0  0
    7.2129   -1.5335    0.0000 H   0  0  0  0  0  0  0  0  0  0  0  0
    7.3902   -0.7565    0.0000 H   0  0  0  0  0  0  0  0  0  0  0  0
    4.1356    2.4573    0.0000 H   0  0  0  0  0  0  0  0  0  0  0  0
    3.7085    1.3689    0.0000 H   0  0  0  0  0  0  0  0  0  0  0  0
    6.4692    4.9846    0.0000 H   0  0  0  0  0  0  0  0  0  0  0  0
    4.7198    2.7908    0.0000 H   0  0  0  0  0  0  0  0  0  0  0  0
    3.7001   -2.0710    0.0000 H   0  0  0  0  0  0  0  0  0  0  0  0
    3.9098    0.7270    0.0000 H   0  0  0  0  0  0  0  0  0  0  0  0
    9.8002    2.7136    0.0000 H   0  0  0  0  0  0  0  0  0  0  0  0
    7.0576   -2.8659    0.0000 H   0  0  0  0  0  0  0  0  0  0  0  0
    8.3972    0.2836    0.0000 H   0  0  0  0  0  0  0  0  0  0  0  0
    5.0007   -0.9574    0.0000 H   0  0  0  0  0  0  0  0  0  0  0  0
    5.2027    5.9947    0.0000 H   0  0  0  0  0  0  0  0  0  0  0  0
    3.4532    3.8009    0.0000 H   0  0  0  0  0  0  0  0  0  0  0  0
    2.0846   -1.9500    0.0000 H   0  0  0  0  0  0  0  0  0  0  0  0
    2.2943    0.8481    0.0000 H   0  0  0  0  0  0  0  0  0  0  0  0
    9.8002   -0.5264    0.0000 H   0  0  0  0  0  0  0  0  0  0  0  0
    3.8988   -2.1449    0.0000 H   0  0  0  0  0  0  0  0  0  0  0  0
    3.6947    5.4028    0.0000 H   0  0  0  0  0  0  0  0  0  0  0  0
    1.3817   -0.4904    0.0000 H   0  0  0  0  0  0  0  0  0  0  0  0
    4.3763   -3.6930    0.0000 H   0  0  0  0  0  0  0  0  0  0  0  0
    6.4420   -4.9108    0.0000 H   0  0  0  0  0  0  0  0  0  0  0  0
    6.6194   -4.1337    0.0000 H   0  0  0  0  0  0  0  0  0  0  0  0
   11.8050    2.4877    0.0000 H   0  0  0  0  0  0  0  0  0  0  0  0
   11.8050   -0.3004    0.0000 H   0  0  0  0  0  0  0  0  0  0  0  0
    5.1467   -5.7209    0.0000 H   0  0  0  0  0  0  0  0  0  0  0  0
    5.9083   -5.4860    0.0000 H   0  0  0  0  0  0  0  0  0  0  0  0
    3.9909   -5.3816    0.0000 H   0  0  0  0  0  0  0  0  0  0  0  0
 11  1  1  1  0  0  0
  1 57  1  0  0  0  0
 12  2  1  6  0  0  0
  2 58  1  0  0  0  0
  3 15  2  0  0  0  0
  4 44  1  0  0  0  0
  4 82  1  0  0  0  0
  5  9  1  0  0  0  0
  5 15  1  0  0  0  0
  5 16  1  0  0  0  0
  6 10  1  0  0  0  0
  6 15  1  0  0  0  0
  6 17  1  0  0  0  0
  7  8  1  0  0  0  0
  7 37  1  0  0  0  0
  7 79  1  0  0  0  0
  8 43  2  0  0  0  0
  9 11  1  0  0  0  0
  9 13  1  1  0  0  0
  9 45  1  0  0  0  0
 10 12  1  0  0  0  0
 10 14  1  6  0  0  0
 10 46  1  0  0  0  0
 11 12  1  0  0  0  0
 11 47  1  0  0  0  0
 12 48  1  0  0  0  0
 13 18  1  0  0  0  0
 13 49  1  0  0  0  0
 13 50  1  0  0  0  0
 14 19  1  0  0  0  0
 14 51  1  0  0  0  0
 14 52  1  0  0  0  0
 16 20  1  0  0  0  0
 16 53  1  0  0  0  0
 16 54  1  0  0  0  0
 17 21  1  0  0  0  0
 17 55  1  0  0  0  0
 17 56  1  0  0  0  0
 18 22  2  0  0  0  0
 18 23  1  0  0  0  0
 19 24  2  0  0  0  0
 19 25  1  0  0  0  0
 20 26  2  0  0  0  0
 20 28  1  0  0  0  0
 21 27  1  0  0  0  0
 21 29  2  0  0  0  0
 22 32  1  0  0  0  0
 22 59  1  0  0  0  0
 23 33  2  0  0  0  0
 23 60  1  0  0  0  0
 24 34  1  0  0  0  0
 24 61  1  0  0  0  0
 25 35  2  0  0  0  0
 25 62  1  0  0  0  0
 26 30  1  0  0  0  0
 26 63  1  0  0  0  0
 27 31  2  0  0  0  0
 27 64  1  0  0  0  0
 28 36  2  0  0  0  0
 28 65  1  0  0  0  0
 29 38  1  0  0  0  0
 29 66  1  0  0  0  0
 30 37  2  0  0  0  0
 30 43  1  0  0  0  0
 31 41  1  0  0  0  0
 31 42  1  0  0  0  0
 32 39  2  0  0  0  0
 32 67  1  0  0  0  0
 33 39  1  0  0  0  0
 33 68  1  0  0  0  0
 34 40  2  0  0  0  0
 34 69  1  0  0  0  0
 35 40  1  0  0  0  0
 35 70  1  0  0  0  0
 36 37  1  0  0  0  0
 36 71  1  0  0  0  0
 38 41  2  0  0  0  0
 38 72  1  0  0  0  0
 39 73  1  0  0  0  0
 40 74  1  0  0  0  0
 41 75  1  0  0  0  0
 42 44  1  0  0  0  0
 42 76  1  0  0  0  0
 42 77  1  0  0  0  0
 43 78  1  0  0  0  0
 44 80  1  0  0  0  0
 44 81  1  0  0  0  0
M  END
> <PUBCHEM_COMPOUND_CID>
515854
> <PUBCHEM_COMPOUND_CANONICALIZED>
1
> <PUBCHEM_CACTVS_COMPLEXITY>
895
> <PUBCHEM_CACTVS_HBOND_ACCEPTOR>
5
> <PUBCHEM_CACTVS_HBOND_DONOR>
4
> <PUBCHEM_CACTVS_ROTATABLE_BOND>
10
> <PUBCHEM_CACTVS_SUBSKEYS>
AAADcfB/uAAAAAAAAAAAAAAAAAAAAWAAAAAwYMGABYAAAFgB9AAAHgAYCAAADDzhngY9wPNjAgCqAzRnUACSBAAgggAYuSA4ZJiLMKKA0dGE5Ahu3gOZyAeQwPAOCAACAAACAAAQAAQAAAQAAAAAAAAAAA==
> <PUBCHEM_IUPAC_OPENEYE_NAME>
(4R,5S,6S,7R)-4,7-dibenzyl-5,6-dihydroxy-1-[[3-(2-hydroxyethyl)phenyl]methyl]-3-(1H-indazol-5-ylmethyl)-1,3-diazepan-2-one
> <PUBCHEM_IUPAC_CAS_NAME>
(4R,5S,6S,7R)-5,6-dihydroxy-1-[[3-(2-hydroxyethyl)phenyl]methyl]-3-(1H-indazol-5-ylmethyl)-4,7-bis(phenylmethyl)-1,3-diazepan-2-one
> <PUBCHEM_IUPAC_NAME_MARKUP>
(4<I>R</I>,5<I>S</I>,6<I>S</I>,7<I>R</I>)-4,7-dibenzyl-5,6-dihydroxy-1-[[3-(2-hydroxyethyl)phenyl]methyl]-3-(1<I>H</I>-indazol-5-ylmethyl)-1,3-diazepan-2-one
> <PUBCHEM_IUPAC_NAME>
(4R,5S,6S,7R)-4,7-dibenzyl-5,6-dihydroxy-1-[[3-(2-hydroxyethyl)phenyl]methyl]-3-(1H-indazol-5-ylmethyl)-1,3-diazepan-2-one
> <PUBCHEM_IUPAC_SYSTEMATIC_NAME>
(4R,5S,6S,7R)-1-[[3-(2-hydroxyethyl)phenyl]methyl]-3-(1H-indazol-5-ylmethyl)-5,6-bis(oxidanyl)-4,7-bis(phenylmethyl)-1,3-diazepan-2-one
> <PUBCHEM_IUPAC_TRADITIONAL_NAME>
(4R,5S,6S,7R)-4,7-dibenzyl-5,6-dihydroxy-1-[3-(2-hydroxyethyl)benzyl]-3-(1H-indazol-5-ylmethyl)-1,3-diazepan-2-one
> <PUBCHEM_IUPAC_INCHI>
InChI=1S/C36H38N4O4/c41-17-16-27-12-7-13-28(18-27)23-39-32(20-25-8-3-1-4-9-25)34(42)35(43)33(21-26-10-5-2-6-11-26)40(36(39)44)24-29-14-15-31-30(19-29)22-37-38-31/h1-15,18-19,22,32-35,41-43H,16-17,20-21,23-24H2,(H,37,38)/t32-,33-,34+,35+/m1/s1
> <PUBCHEM_IUPAC_INCHIKEY>
PHJUBIAVEOBIMZ-WDKGQIBQSA-N
> <PUBCHEM_XLOGP3_AA>
4.5
> <PUBCHEM_EXACT_MASS>
590.28930571
> <PUBCHEM_MOLECULAR_FORMULA>
C36H38N4O4
> <PUBCHEM_MOLECULAR_WEIGHT>
590.7
> <PUBCHEM_OPENEYE_CAN_SMILES>
C1=CC=C(C=C1)CC2C(C(C(N(C(=O)N2CC3=CC4=C(C=C3)NN=C4)CC5=CC=CC(=C5)CCO)CC6=CC=CC=C6)O)O
> <PUBCHEM_OPENEYE_ISO_SMILES>
C1=CC=C(C=C1)C[C@@H]2[C@@H]([C@H]([C@H](N(C(=O)N2CC3=CC4=C(C=C3)NN=C4)CC5=CC=CC(=C5)CCO)CC6=CC=CC=C6)O)O
> <PUBCHEM_CACTVS_TPSA>
113
> <PUBCHEM_MONOISOTOPIC_WEIGHT>
590.28930571
> <PUBCHEM_TOTAL_CHARGE>
0
> <PUBCHEM_HEAVY_ATOM_COUNT>
44
> <PUBCHEM_ATOM_DEF_STEREO_COUNT>
4
> <PUBCHEM_ATOM_UDEF_STEREO_COUNT>
0
> <PUBCHEM_BOND_DEF_STEREO_COUNT>
0
> <PUBCHEM_BOND_UDEF_STEREO_COUNT>
0
> <PUBCHEM_ISOTOPIC_ATOM_COUNT>
0
> <PUBCHEM_COMPONENT_COUNT>
1
> <PUBCHEM_CACTVS_TAUTO_COUNT>
-1
> <PUBCHEM_COORDINATE_TYPE>
1
5
255
> <PUBCHEM_BONDANNOTATIONS>
11  1  5
10  14  6
18  22  8
18  23  8
19  24  8
19  25  8
12  2  6
20  26  8
20  28  8
21  27  8
21  29  8
22  32  8
23  33  8
24  34  8
25  35  8
26  30  8
27  31  8
28  36  8
29  38  8
30  37  8
30  43  8
31  41  8
32  39  8
33  39  8
34  40  8
35  40  8
36  37  8
38  41  8
7  37  8
7  8  8
8  43  8
9  13  5
$$$$
