515872
  -OEChem-10302200282D
 83 89  0     1  0  0  0  0  0999 V2000
    6.6458   -3.1076    0.0000 O   0  0  0  0  0  0  0  0  0  0  0  0
    4.7988   -2.8292    0.0000 O   0  0  0  0  0  0  0  0  0  0  0  0
    6.3321    1.0775    0.0000 O   0  0  0  0  0  0  0  0  0  0  0  0
    7.0093   -0.4747    0.0000 N   0  0  0  0  0  0  0  0  0  0  0  0
    5.2275   -0.2061    0.0000 N   0  0  0  0  0  0  0  0  0  0  0  0
    7.0867    2.8831    0.0000 N   0  0  0  0  0  0  0  0  0  0  0  0
   11.4196   -1.7794    0.0000 N   0  0  0  0  0  0  0  0  0  0  0  0
   12.0033   -0.9747    0.0000 N   0  0  0  0  0  0  0  0  0  0  0  0
    5.7264    4.3492    0.0000 N   0  0  0  0  0  0  0  0  0  0  0  0
    7.8398    2.2252    0.0000 N   0  0  0  0  0  0  0  0  0  0  0  0
    8.6982    2.7381    0.0000 N   0  0  0  0  0  0  0  0  0  0  0  0
    7.0841   -1.4719    0.0000 C   0  0  1  0  0  0  0  0  0  0  0  0
    4.8622   -1.1370    0.0000 C   0  0  1  0  0  0  0  0  0  0  0  0
    6.3510   -2.1521    0.0000 C   0  0  1  0  0  0  0  0  0  0  0  0
    5.3622   -2.0030    0.0000 C   0  0  1  0  0  0  0  0  0  0  0  0
    8.0149   -1.8372    0.0000 C   0  0  0  0  0  0  0  0  0  0  0  0
    3.8650   -1.2117    0.0000 C   0  0  0  0  0  0  0  0  0  0  0  0
    6.1831    0.0886    0.0000 C   0  0  0  0  0  0  0  0  0  0  0  0
    7.8754    0.0253    0.0000 C   0  0  0  0  0  0  0  0  0  0  0  0
    4.5473    0.5269    0.0000 C   0  0  0  0  0  0  0  0  0  0  0  0
    8.1640   -2.8261    0.0000 C   0  0  0  0  0  0  0  0  0  0  0  0
    3.4311   -2.1127    0.0000 C   0  0  0  0  0  0  0  0  0  0  0  0
    8.7414   -0.4747    0.0000 C   0  0  0  0  0  0  0  0  0  0  0  0
    4.8421    1.4825    0.0000 C   0  0  0  0  0  0  0  0  0  0  0  0
    7.3821   -3.4496    0.0000 C   0  0  0  0  0  0  0  0  0  0  0  0
    9.0948   -3.1914    0.0000 C   0  0  0  0  0  0  0  0  0  0  0  0
    2.4339   -2.1874    0.0000 C   0  0  0  0  0  0  0  0  0  0  0  0
    3.9944   -2.9389    0.0000 C   0  0  0  0  0  0  0  0  0  0  0  0
    9.6074    0.0253    0.0000 C   0  0  0  0  0  0  0  0  0  0  0  0
    5.8170    1.7050    0.0000 C   0  0  0  0  0  0  0  0  0  0  0  0
    8.7414   -1.4747    0.0000 C   0  0  0  0  0  0  0  0  0  0  0  0
    4.1619    2.2156    0.0000 C   0  0  0  0  0  0  0  0  0  0  0  0
   10.4734   -0.4747    0.0000 C   0  0  0  0  0  0  0  0  0  0  0  0
    7.5312   -4.4384    0.0000 C   0  0  0  0  0  0  0  0  0  0  0  0
    9.2439   -4.1802    0.0000 C   0  0  0  0  0  0  0  0  0  0  0  0
    2.0000   -3.0884    0.0000 C   0  0  0  0  0  0  0  0  0  0  0  0
    3.5605   -3.8399    0.0000 C   0  0  0  0  0  0  0  0  0  0  0  0
    6.1118    2.6606    0.0000 C   0  0  0  0  0  0  0  0  0  0  0  0
    9.6074   -1.9747    0.0000 C   0  0  0  0  0  0  0  0  0  0  0  0
   10.4734   -1.4747    0.0000 C   0  0  0  0  0  0  0  0  0  0  0  0
    4.4567    3.1711    0.0000 C   0  0  0  0  0  0  0  0  0  0  0  0
    8.4621   -4.8037    0.0000 C   0  0  0  0  0  0  0  0  0  0  0  0
    2.5633   -3.9146    0.0000 C   0  0  0  0  0  0  0  0  0  0  0  0
    5.4316    3.3936    0.0000 C   0  0  0  0  0  0  0  0  0  0  0  0
   11.4196   -0.1699    0.0000 C   0  0  0  0  0  0  0  0  0  0  0  0
    7.4797    3.8026    0.0000 C   0  0  0  0  0  0  0  0  0  0  0  0
    8.4757    3.7130    0.0000 C   0  0  0  0  0  0  0  0  0  0  0  0
    7.5829   -1.1037    0.0000 H   0  0  0  0  0  0  0  0  0  0  0  0
    4.4940   -0.6381    0.0000 H   0  0  0  0  0  0  0  0  0  0  0  0
    6.9499   -2.3125    0.0000 H   0  0  0  0  0  0  0  0  0  0  0  0
    5.6101   -2.5713    0.0000 H   0  0  0  0  0  0  0  0  0  0  0  0
    8.6347   -1.8527    0.0000 H   0  0  0  0  0  0  0  0  0  0  0  0
    8.1378   -1.2295    0.0000 H   0  0  0  0  0  0  0  0  0  0  0  0
    3.9267   -0.5948    0.0000 H   0  0  0  0  0  0  0  0  0  0  0  0
    3.2681   -1.0438    0.0000 H   0  0  0  0  0  0  0  0  0  0  0  0
    8.2739    0.5003    0.0000 H   0  0  0  0  0  0  0  0  0  0  0  0
    7.4768    0.5003    0.0000 H   0  0  0  0  0  0  0  0  0  0  0  0
    3.9956    0.8098    0.0000 H   0  0  0  0  0  0  0  0  0  0  0  0
    4.1730    0.0327    0.0000 H   0  0  0  0  0  0  0  0  0  0  0  0
    6.2240   -3.5621    0.0000 H   0  0  0  0  0  0  0  0  0  0  0  0
    5.0679   -3.3879    0.0000 H   0  0  0  0  0  0  0  0  0  0  0  0
    6.8050   -3.2230    0.0000 H   0  0  0  0  0  0  0  0  0  0  0  0
    9.5796   -2.8048    0.0000 H   0  0  0  0  0  0  0  0  0  0  0  0
    2.0846   -1.6752    0.0000 H   0  0  0  0  0  0  0  0  0  0  0  0
    4.6127   -2.8926    0.0000 H   0  0  0  0  0  0  0  0  0  0  0  0
    9.6074    0.6453    0.0000 H   0  0  0  0  0  0  0  0  0  0  0  0
    6.2387    1.2505    0.0000 H   0  0  0  0  0  0  0  0  0  0  0  0
    8.2044   -1.7847    0.0000 H   0  0  0  0  0  0  0  0  0  0  0  0
    3.5575    2.0776    0.0000 H   0  0  0  0  0  0  0  0  0  0  0  0
    7.0464   -4.8249    0.0000 H   0  0  0  0  0  0  0  0  0  0  0  0
    9.8210   -4.4067    0.0000 H   0  0  0  0  0  0  0  0  0  0  0  0
    1.3817   -3.1347    0.0000 H   0  0  0  0  0  0  0  0  0  0  0  0
    3.9098   -4.3522    0.0000 H   0  0  0  0  0  0  0  0  0  0  0  0
    9.6074   -2.5947    0.0000 H   0  0  0  0  0  0  0  0  0  0  0  0
    4.0350    3.6256    0.0000 H   0  0  0  0  0  0  0  0  0  0  0  0
    8.5545   -5.4168    0.0000 H   0  0  0  0  0  0  0  0  0  0  0  0
    2.2943   -4.4732    0.0000 H   0  0  0  0  0  0  0  0  0  0  0  0
   11.6123    0.4194    0.0000 H   0  0  0  0  0  0  0  0  0  0  0  0
   11.6123   -2.3687    0.0000 H   0  0  0  0  0  0  0  0  0  0  0  0
    5.3047    4.8037    0.0000 H   0  0  0  0  0  0  0  0  0  0  0  0
    6.3308    4.4872    0.0000 H   0  0  0  0  0  0  0  0  0  0  0  0
    7.1617    4.3349    0.0000 H   0  0  0  0  0  0  0  0  0  0  0  0
    8.8836    4.1799    0.0000 H   0  0  0  0  0  0  0  0  0  0  0  0
 14  1  1  6  0  0  0
  1 60  1  0  0  0  0
 15  2  1  1  0  0  0
  2 61  1  0  0  0  0
  3 18  2  0  0  0  0
  4 12  1  0  0  0  0
  4 18  1  0  0  0  0
  4 19  1  0  0  0  0
  5 13  1  0  0  0  0
  5 18  1  0  0  0  0
  5 20  1  0  0  0  0
  6 10  1  0  0  0  0
  6 38  1  0  0  0  0
  6 46  1  0  0  0  0
  7  8  1  0  0  0  0
  7 40  1  0  0  0  0
  7 79  1  0  0  0  0
  8 45  2  0  0  0  0
  9 44  1  0  0  0  0
  9 80  1  0  0  0  0
  9 81  1  0  0  0  0
 10 11  2  0  0  0  0
 11 47  1  0  0  0  0
 12 14  1  0  0  0  0
 12 16  1  6  0  0  0
 12 48  1  0  0  0  0
 13 15  1  0  0  0  0
 13 17  1  1  0  0  0
 13 49  1  0  0  0  0
 14 15  1  0  0  0  0
 14 50  1  0  0  0  0
 15 51  1  0  0  0  0
 16 21  1  0  0  0  0
 16 52  1  0  0  0  0
 16 53  1  0  0  0  0
 17 22  1  0  0  0  0
 17 54  1  0  0  0  0
 17 55  1  0  0  0  0
 19 23  1  0  0  0  0
 19 56  1  0  0  0  0
 19 57  1  0  0  0  0
 20 24  1  0  0  0  0
 20 58  1  0  0  0  0
 20 59  1  0  0  0  0
 21 25  2  0  0  0  0
 21 26  1  0  0  0  0
 22 27  2  0  0  0  0
 22 28  1  0  0  0  0
 23 29  2  0  0  0  0
 23 31  1  0  0  0  0
 24 30  2  0  0  0  0
 24 32  1  0  0  0  0
 25 34  1  0  0  0  0
 25 62  1  0  0  0  0
 26 35  2  0  0  0  0
 26 63  1  0  0  0  0
 27 36  1  0  0  0  0
 27 64  1  0  0  0  0
 28 37  2  0  0  0  0
 28 65  1  0  0  0  0
 29 33  1  0  0  0  0
 29 66  1  0  0  0  0
 30 38  1  0  0  0  0
 30 67  1  0  0  0  0
 31 39  2  0  0  0  0
 31 68  1  0  0  0  0
 32 41  2  0  0  0  0
 32 69  1  0  0  0  0
 33 40  2  0  0  0  0
 33 45  1  0  0  0  0
 34 42  2  0  0  0  0
 34 70  1  0  0  0  0
 35 42  1  0  0  0  0
 35 71  1  0  0  0  0
 36 43  2  0  0  0  0
 36 72  1  0  0  0  0
 37 43  1  0  0  0  0
 37 73  1  0  0  0  0
 38 44  2  0  0  0  0
 39 40  1  0  0  0  0
 39 74  1  0  0  0  0
 41 44  1  0  0  0  0
 41 75  1  0  0  0  0
 42 76  1  0  0  0  0
 43 77  1  0  0  0  0
 45 78  1  0  0  0  0
 46 47  2  0  0  0  0
 46 82  1  0  0  0  0
 47 83  1  0  0  0  0
M  END
> <PUBCHEM_COMPOUND_CID>
515872
> <PUBCHEM_COMPOUND_CANONICALIZED>
1
> <PUBCHEM_CACTVS_COMPLEXITY>
1010
> <PUBCHEM_CACTVS_HBOND_ACCEPTOR>
7
> <PUBCHEM_CACTVS_HBOND_DONOR>
4
> <PUBCHEM_CACTVS_ROTATABLE_BOND>
9
> <PUBCHEM_CACTVS_SUBSKEYS>
AAADcfB/8AAAAAAAAAAAAAAAAAAAAWLAAAAwYMGABYAAAFgB/AAAHgAYCAAADDzhngY9wPNrAgCqAzRnVACSBCQxkgAYuSA4dJiLcOLA0dGU5AhungLZyAeQwPAOCAACQAACACAQAASAAAQAQAAAAAAAAA==
> <PUBCHEM_IUPAC_OPENEYE_NAME>
(4R,5S,6S,7R)-1-[[4-amino-3-(triazol-1-yl)phenyl]methyl]-4,7-dibenzyl-5,6-dihydroxy-3-(1H-indazol-5-ylmethyl)-1,3-diazepan-2-one
> <PUBCHEM_IUPAC_CAS_NAME>
(4R,5S,6S,7R)-1-[[4-amino-3-(1-triazolyl)phenyl]methyl]-5,6-dihydroxy-3-(1H-indazol-5-ylmethyl)-4,7-bis(phenylmethyl)-1,3-diazepan-2-one
> <PUBCHEM_IUPAC_NAME_MARKUP>
(4<I>R</I>,5<I>S</I>,6<I>S</I>,7<I>R</I>)-1-[[4-amino-3-(triazol-1-yl)phenyl]methyl]-4,7-dibenzyl-5,6-dihydroxy-3-(1<I>H</I>-indazol-5-ylmethyl)-1,3-diazepan-2-one
> <PUBCHEM_IUPAC_NAME>
(4R,5S,6S,7R)-1-[[4-amino-3-(triazol-1-yl)phenyl]methyl]-4,7-dibenzyl-5,6-dihydroxy-3-(1H-indazol-5-ylmethyl)-1,3-diazepan-2-one
> <PUBCHEM_IUPAC_SYSTEMATIC_NAME>
(4R,5S,6S,7R)-1-[[4-azanyl-3-(1,2,3-triazol-1-yl)phenyl]methyl]-3-(1H-indazol-5-ylmethyl)-5,6-bis(oxidanyl)-4,7-bis(phenylmethyl)-1,3-diazepan-2-one
> <PUBCHEM_IUPAC_TRADITIONAL_NAME>
(4R,5S,6S,7R)-1-[4-amino-3-(triazol-1-yl)benzyl]-4,7-dibenzyl-5,6-dihydroxy-3-(1H-indazol-5-ylmethyl)-1,3-diazepan-2-one
> <PUBCHEM_IUPAC_INCHI>
InChI=1S/C36H36N8O3/c37-29-13-11-27(20-31(29)44-16-15-38-41-44)23-43-33(19-25-9-5-2-6-10-25)35(46)34(45)32(18-24-7-3-1-4-8-24)42(36(43)47)22-26-12-14-30-28(17-26)21-39-40-30/h1-17,20-21,32-35,45-46H,18-19,22-23,37H2,(H,39,40)/t32-,33-,34+,35+/m1/s1
> <PUBCHEM_IUPAC_INCHIKEY>
GCKOKIJMLAUYIK-WDKGQIBQSA-N
> <PUBCHEM_XLOGP3_AA>
3.7
> <PUBCHEM_EXACT_MASS>
628.29103704
> <PUBCHEM_MOLECULAR_FORMULA>
C36H36N8O3
> <PUBCHEM_MOLECULAR_WEIGHT>
628.7
> <PUBCHEM_OPENEYE_CAN_SMILES>
C1=CC=C(C=C1)CC2C(C(C(N(C(=O)N2CC3=CC4=C(C=C3)NN=C4)CC5=CC(=C(C=C5)N)N6C=CN=N6)CC7=CC=CC=C7)O)O
> <PUBCHEM_OPENEYE_ISO_SMILES>
C1=CC=C(C=C1)C[C@@H]2[C@@H]([C@H]([C@H](N(C(=O)N2CC3=CC4=C(C=C3)NN=C4)CC5=CC(=C(C=C5)N)N6C=CN=N6)CC7=CC=CC=C7)O)O
> <PUBCHEM_CACTVS_TPSA>
149
> <PUBCHEM_MONOISOTOPIC_WEIGHT>
628.29103704
> <PUBCHEM_TOTAL_CHARGE>
0
> <PUBCHEM_HEAVY_ATOM_COUNT>
47
> <PUBCHEM_ATOM_DEF_STEREO_COUNT>
4
> <PUBCHEM_ATOM_UDEF_STEREO_COUNT>
0
> <PUBCHEM_BOND_DEF_STEREO_COUNT>
0
> <PUBCHEM_BOND_UDEF_STEREO_COUNT>
0
> <PUBCHEM_ISOTOPIC_ATOM_COUNT>
0
> <PUBCHEM_COMPONENT_COUNT>
1
> <PUBCHEM_CACTVS_TAUTO_COUNT>
-1
> <PUBCHEM_COORDINATE_TYPE>
1
5
255
> <PUBCHEM_BONDANNOTATIONS>
14  1  6
10  11  8
11  47  8
12  16  6
13  17  5
15  2  5
21  25  8
21  26  8
22  27  8
22  28  8
23  29  8
23  31  8
24  30  8
24  32  8
25  34  8
26  35  8
27  36  8
28  37  8
29  33  8
30  38  8
31  39  8
32  41  8
33  40  8
33  45  8
34  42  8
35  42  8
36  43  8
37  43  8
38  44  8
39  40  8
41  44  8
46  47  8
6  10  8
6  46  8
7  40  8
7  8  8
8  45  8
$$$$
