515827
  -OEChem-10302200282D
 92 95  0     1  0  0  0  0  0999 V2000
    8.7788    3.6239    0.0000 S   0  0  0  0  0  0  0  0  0  0  0  0
   10.7078   -1.6192    0.0000 S   0  0  0  0  0  0  0  0  0  0  0  0
    4.5981   -4.2125    0.0000 O   0  0  0  0  0  0  0  0  0  0  0  0
    5.4641   -1.7125    0.0000 O   0  0  0  0  0  0  0  0  0  0  0  0
    8.0622   -1.2125    0.0000 O   0  0  0  0  0  0  0  0  0  0  0  0
    6.3301   -1.2125    0.0000 O   0  0  0  0  0  0  0  0  0  0  0  0
    4.5981    1.7875    0.0000 O   0  0  0  0  0  0  0  0  0  0  0  0
    3.7320   -1.7125    0.0000 N   0  0  0  0  0  0  0  0  0  0  0  0
    7.1962   -2.7125    0.0000 N   0  0  0  0  0  0  0  0  0  0  0  0
    5.4641    0.2875    0.0000 N   0  0  0  0  0  0  0  0  0  0  0  0
    6.3301    1.7875    0.0000 N   0  0  0  0  0  0  0  0  0  0  0  0
    7.3007    4.2820    0.0000 N   0  0  0  0  0  0  0  0  0  0  0  0
   10.8769   -0.0101    0.0000 N   0  0  0  0  0  0  0  0  0  0  0  0
    4.5981   -3.2125    0.0000 C   0  0  2  0  0  0  0  0  0  0  0  0
    3.7320   -2.7125    0.0000 C   0  0  2  0  0  0  0  0  0  0  0  0
    5.4641   -2.7125    0.0000 C   0  0  0  0  0  0  0  0  0  0  0  0
    6.3301   -3.2125    0.0000 C   0  0  2  0  0  0  0  0  0  0  0  0
    2.8660   -3.2125    0.0000 C   0  0  0  0  0  0  0  0  0  0  0  0
    6.3301   -4.2125    0.0000 C   0  0  0  0  0  0  0  0  0  0  0  0
    2.8660   -4.2125    0.0000 C   0  0  0  0  0  0  0  0  0  0  0  0
    7.1962   -4.7125    0.0000 C   0  0  0  0  0  0  0  0  0  0  0  0
    4.5981   -1.2125    0.0000 C   0  0  0  0  0  0  0  0  0  0  0  0
    4.5981   -0.2125    0.0000 C   0  0  2  0  0  0  0  0  0  0  0  0
    3.7320   -4.7125    0.0000 C   0  0  0  0  0  0  0  0  0  0  0  0
    2.0000   -4.7125    0.0000 C   0  0  0  0  0  0  0  0  0  0  0  0
    7.1962   -1.7125    0.0000 C   0  0  0  0  0  0  0  0  0  0  0  0
    8.0622   -4.2125    0.0000 C   0  0  0  0  0  0  0  0  0  0  0  0
    7.1962   -5.7125    0.0000 C   0  0  0  0  0  0  0  0  0  0  0  0
    3.7320    0.2875    0.0000 C   0  0  0  0  0  0  0  0  0  0  0  0
    3.7320   -5.7125    0.0000 C   0  0  0  0  0  0  0  0  0  0  0  0
    2.0000   -5.7125    0.0000 C   0  0  0  0  0  0  0  0  0  0  0  0
    8.9282   -4.7125    0.0000 C   0  0  0  0  0  0  0  0  0  0  0  0
    8.0622   -6.2125    0.0000 C   0  0  0  0  0  0  0  0  0  0  0  0
    2.8660   -6.2125    0.0000 C   0  0  0  0  0  0  0  0  0  0  0  0
    8.9282   -5.7125    0.0000 C   0  0  0  0  0  0  0  0  0  0  0  0
    5.4641    1.2875    0.0000 C   0  0  0  0  0  0  0  0  0  0  0  0
    8.9282   -1.7125    0.0000 C   0  0  0  0  0  0  0  0  0  0  0  0
    6.3301    2.7875    0.0000 C   0  0  0  0  0  0  0  0  0  0  0  0
    7.1962    1.2875    0.0000 C   0  0  0  0  0  0  0  0  0  0  0  0
    7.1962    3.2875    0.0000 C   0  0  0  0  0  0  0  0  0  0  0  0
    9.7942   -1.2125    0.0000 C   0  0  0  0  0  0  0  0  0  0  0  0
    8.6856    5.4035    0.0000 C   0  0  0  0  0  0  0  0  0  0  0  0
    8.2788    4.4899    0.0000 C   0  0  0  0  0  0  0  0  0  0  0  0
    8.1097    2.8808    0.0000 C   0  0  0  0  0  0  0  0  0  0  0  0
    8.0978    6.2125    0.0000 C   0  0  0  0  0  0  0  0  0  0  0  0
    9.6801    5.5080    0.0000 C   0  0  0  0  0  0  0  0  0  0  0  0
    9.8988   -0.2180    0.0000 C   0  0  0  0  0  0  0  0  0  0  0  0
   11.3769   -0.8761    0.0000 C   0  0  0  0  0  0  0  0  0  0  0  0
    5.1350   -3.5225    0.0000 H   0  0  0  0  0  0  0  0  0  0  0  0
    4.2690   -2.4025    0.0000 H   0  0  0  0  0  0  0  0  0  0  0  0
    5.8626   -2.2376    0.0000 H   0  0  0  0  0  0  0  0  0  0  0  0
    5.0656   -2.2376    0.0000 H   0  0  0  0  0  0  0  0  0  0  0  0
    6.8671   -3.5225    0.0000 H   0  0  0  0  0  0  0  0  0  0  0  0
    2.6540   -2.6299    0.0000 H   0  0  0  0  0  0  0  0  0  0  0  0
    2.2554   -3.3202    0.0000 H   0  0  0  0  0  0  0  0  0  0  0  0
    5.7196   -4.1048    0.0000 H   0  0  0  0  0  0  0  0  0  0  0  0
    6.1181   -4.7951    0.0000 H   0  0  0  0  0  0  0  0  0  0  0  0
    3.1951   -1.4025    0.0000 H   0  0  0  0  0  0  0  0  0  0  0  0
    7.7331   -3.0225    0.0000 H   0  0  0  0  0  0  0  0  0  0  0  0
    5.1350   -4.5225    0.0000 H   0  0  0  0  0  0  0  0  0  0  0  0
    4.5981    0.4075    0.0000 H   0  0  0  0  0  0  0  0  0  0  0  0
    4.2690   -4.4025    0.0000 H   0  0  0  0  0  0  0  0  0  0  0  0
    1.4631   -4.4025    0.0000 H   0  0  0  0  0  0  0  0  0  0  0  0
    8.0622   -3.5925    0.0000 H   0  0  0  0  0  0  0  0  0  0  0  0
    6.6592   -6.0225    0.0000 H   0  0  0  0  0  0  0  0  0  0  0  0
    4.0420    0.8244    0.0000 H   0  0  0  0  0  0  0  0  0  0  0  0
    3.1951    0.5975    0.0000 H   0  0  0  0  0  0  0  0  0  0  0  0
    3.4220   -0.2494    0.0000 H   0  0  0  0  0  0  0  0  0  0  0  0
    6.0010   -0.0225    0.0000 H   0  0  0  0  0  0  0  0  0  0  0  0
    4.2690   -6.0225    0.0000 H   0  0  0  0  0  0  0  0  0  0  0  0
    1.4631   -6.0225    0.0000 H   0  0  0  0  0  0  0  0  0  0  0  0
    9.4651   -4.4025    0.0000 H   0  0  0  0  0  0  0  0  0  0  0  0
    8.0622   -6.8325    0.0000 H   0  0  0  0  0  0  0  0  0  0  0  0
    2.8660   -6.8325    0.0000 H   0  0  0  0  0  0  0  0  0  0  0  0
    9.4651   -6.0225    0.0000 H   0  0  0  0  0  0  0  0  0  0  0  0
    8.5297   -2.1874    0.0000 H   0  0  0  0  0  0  0  0  0  0  0  0
    9.3267   -2.1874    0.0000 H   0  0  0  0  0  0  0  0  0  0  0  0
    6.1181    3.3701    0.0000 H   0  0  0  0  0  0  0  0  0  0  0  0
    5.7196    2.6798    0.0000 H   0  0  0  0  0  0  0  0  0  0  0  0
    6.8862    0.7506    0.0000 H   0  0  0  0  0  0  0  0  0  0  0  0
    7.7331    0.9775    0.0000 H   0  0  0  0  0  0  0  0  0  0  0  0
    7.5062    1.8244    0.0000 H   0  0  0  0  0  0  0  0  0  0  0  0
    8.0690    5.3387    0.0000 H   0  0  0  0  0  0  0  0  0  0  0  0
    8.2386    2.2743    0.0000 H   0  0  0  0  0  0  0  0  0  0  0  0
    8.5994    6.5769    0.0000 H   0  0  0  0  0  0  0  0  0  0  0  0
    7.7334    6.7141    0.0000 H   0  0  0  0  0  0  0  0  0  0  0  0
    7.5962    5.8481    0.0000 H   0  0  0  0  0  0  0  0  0  0  0  0
    9.7449    4.8914    0.0000 H   0  0  0  0  0  0  0  0  0  0  0  0
   10.2967    5.5728    0.0000 H   0  0  0  0  0  0  0  0  0  0  0  0
    9.6153    6.1246    0.0000 H   0  0  0  0  0  0  0  0  0  0  0  0
    9.4380    0.1969    0.0000 H   0  0  0  0  0  0  0  0  0  0  0  0
   11.9935   -0.9409    0.0000 H   0  0  0  0  0  0  0  0  0  0  0  0
  1 43  1  0  0  0  0
  1 44  1  0  0  0  0
  2 41  1  0  0  0  0
  2 48  1  0  0  0  0
 14  3  1  6  0  0  0
  3 60  1  0  0  0  0
  4 22  2  0  0  0  0
  5 26  1  0  0  0  0
  5 37  1  0  0  0  0
  6 26  2  0  0  0  0
  7 36  2  0  0  0  0
 15  8  1  6  0  0  0
  8 22  1  0  0  0  0
  8 58  1  0  0  0  0
 17  9  1  1  0  0  0
  9 26  1  0  0  0  0
  9 59  1  0  0  0  0
 23 10  1  6  0  0  0
 10 36  1  0  0  0  0
 10 69  1  0  0  0  0
 11 36  1  0  0  0  0
 11 38  1  0  0  0  0
 11 39  1  0  0  0  0
 12 40  1  0  0  0  0
 12 43  2  0  0  0  0
 13 47  1  0  0  0  0
 13 48  2  0  0  0  0
 14 15  1  0  0  0  0
 14 16  1  0  0  0  0
 14 49  1  0  0  0  0
 15 18  1  0  0  0  0
 15 50  1  0  0  0  0
 16 17  1  0  0  0  0
 16 51  1  0  0  0  0
 16 52  1  0  0  0  0
 17 19  1  0  0  0  0
 17 53  1  0  0  0  0
 18 20  1  0  0  0  0
 18 54  1  0  0  0  0
 18 55  1  0  0  0  0
 19 21  1  0  0  0  0
 19 56  1  0  0  0  0
 19 57  1  0  0  0  0
 20 24  2  0  0  0  0
 20 25  1  0  0  0  0
 21 27  2  0  0  0  0
 21 28  1  0  0  0  0
 22 23  1  0  0  0  0
 23 29  1  0  0  0  0
 23 61  1  0  0  0  0
 24 30  1  0  0  0  0
 24 62  1  0  0  0  0
 25 31  2  0  0  0  0
 25 63  1  0  0  0  0
 27 32  1  0  0  0  0
 27 64  1  0  0  0  0
 28 33  2  0  0  0  0
 28 65  1  0  0  0  0
 29 66  1  0  0  0  0
 29 67  1  0  0  0  0
 29 68  1  0  0  0  0
 30 34  2  0  0  0  0
 30 70  1  0  0  0  0
 31 34  1  0  0  0  0
 31 71  1  0  0  0  0
 32 35  2  0  0  0  0
 32 72  1  0  0  0  0
 33 35  1  0  0  0  0
 33 73  1  0  0  0  0
 34 74  1  0  0  0  0
 35 75  1  0  0  0  0
 37 41  1  0  0  0  0
 37 76  1  0  0  0  0
 37 77  1  0  0  0  0
 38 40  1  0  0  0  0
 38 78  1  0  0  0  0
 38 79  1  0  0  0  0
 39 80  1  0  0  0  0
 39 81  1  0  0  0  0
 39 82  1  0  0  0  0
 40 44  2  0  0  0  0
 41 47  2  0  0  0  0
 42 43  1  0  0  0  0
 42 45  1  0  0  0  0
 42 46  1  0  0  0  0
 42 83  1  0  0  0  0
 44 84  1  0  0  0  0
 45 85  1  0  0  0  0
 45 86  1  0  0  0  0
 45 87  1  0  0  0  0
 46 88  1  0  0  0  0
 46 89  1  0  0  0  0
 46 90  1  0  0  0  0
 47 91  1  0  0  0  0
 48 92  1  0  0  0  0
M  END
> <PUBCHEM_COMPOUND_CID>
515827
> <PUBCHEM_COMPOUND_CANONICALIZED>
1
> <PUBCHEM_CACTVS_COMPLEXITY>
999
> <PUBCHEM_CACTVS_HBOND_ACCEPTOR>
9
> <PUBCHEM_CACTVS_HBOND_DONOR>
4
> <PUBCHEM_CACTVS_ROTATABLE_BOND>
17
> <PUBCHEM_CACTVS_SUBSKEYS>
AAADcfB/uABgAAAAAAAAAAAAAAAAAWLAAAAwYAAAAAAAAAAB9AAAHgQQCAAADTzl3ga/iZPIFgisAzV3XACC8KBxCjhI2J24bImKdCLgsTmcYAgulgL4qAeQwPAOAAAAAAAAAAAAAAAAAAAAAAAAAAAAAA==
> <PUBCHEM_IUPAC_OPENEYE_NAME>
thiazol-5-ylmethyl N-[(1S,3S,4S)-1-benzyl-3-hydroxy-4-[[(2S)-2-[[(2-isopropylthiazol-4-yl)methyl-methyl-carbamoyl]amino]propanoyl]amino]-5-phenyl-pentyl]carbamate
> <PUBCHEM_IUPAC_CAS_NAME>
N-[(2S,4S,5S)-4-hydroxy-5-[[(2S)-2-[[[methyl-[(2-propan-2-yl-4-thiazolyl)methyl]amino]-oxomethyl]amino]-1-oxopropyl]amino]-1,6-diphenylhexan-2-yl]carbamic acid 5-thiazolylmethyl ester
> <PUBCHEM_IUPAC_NAME_MARKUP>
1,3-thiazol-5-ylmethyl <I>N</I>-[(2<I>S</I>,4<I>S</I>,5<I>S</I>)-4-hydroxy-5-[[(2<I>S</I>)-2-[[methyl-[(2-propan-2-yl-1,3-thiazol-4-yl)methyl]carbamoyl]amino]propanoyl]amino]-1,6-diphenylhexan-2-yl]carbamate
> <PUBCHEM_IUPAC_NAME>
1,3-thiazol-5-ylmethyl N-[(2S,4S,5S)-4-hydroxy-5-[[(2S)-2-[[methyl-[(2-propan-2-yl-1,3-thiazol-4-yl)methyl]carbamoyl]amino]propanoyl]amino]-1,6-diphenylhexan-2-yl]carbamate
> <PUBCHEM_IUPAC_SYSTEMATIC_NAME>
1,3-thiazol-5-ylmethyl N-[(2S,4S,5S)-5-[[(2S)-2-[[methyl-[(2-propan-2-yl-1,3-thiazol-4-yl)methyl]carbamoyl]amino]propanoyl]amino]-4-oxidanyl-1,6-diphenyl-hexan-2-yl]carbamate
> <PUBCHEM_IUPAC_TRADITIONAL_NAME>
N-[(1S,3S,4S)-1-benzyl-3-hydroxy-4-[[(2S)-2-[[(2-isopropylthiazol-4-yl)methyl-methyl-carbamoyl]amino]propanoyl]amino]-5-phenyl-pentyl]carbamic acid thiazol-5-ylmethyl ester
> <PUBCHEM_IUPAC_INCHI>
InChI=1S/C35H44N6O5S2/c1-23(2)33-38-28(21-47-33)19-41(4)34(44)37-24(3)32(43)40-30(16-26-13-9-6-10-14-26)31(42)17-27(15-25-11-7-5-8-12-25)39-35(45)46-20-29-18-36-22-48-29/h5-14,18,21-24,27,30-31,42H,15-17,19-20H2,1-4H3,(H,37,44)(H,39,45)(H,40,43)/t24-,27-,30-,31-/m0/s1
> <PUBCHEM_IUPAC_INCHIKEY>
GWFDTEBZWHQPCP-WQMHXLODSA-N
> <PUBCHEM_XLOGP3_AA>
5.1
> <PUBCHEM_EXACT_MASS>
692.28146087
> <PUBCHEM_MOLECULAR_FORMULA>
C35H44N6O5S2
> <PUBCHEM_MOLECULAR_WEIGHT>
692.9
> <PUBCHEM_OPENEYE_CAN_SMILES>
CC(C)C1=NC(=CS1)CN(C)C(=O)NC(C)C(=O)NC(CC2=CC=CC=C2)C(CC(CC3=CC=CC=C3)NC(=O)OCC4=CN=CS4)O
> <PUBCHEM_OPENEYE_ISO_SMILES>
C[C@@H](C(=O)N[C@@H](CC1=CC=CC=C1)[C@H](C[C@H](CC2=CC=CC=C2)NC(=O)OCC3=CN=CS3)O)NC(=O)N(C)CC4=CSC(=N4)C(C)C
> <PUBCHEM_CACTVS_TPSA>
202
> <PUBCHEM_MONOISOTOPIC_WEIGHT>
692.28146087
> <PUBCHEM_TOTAL_CHARGE>
0
> <PUBCHEM_HEAVY_ATOM_COUNT>
48
> <PUBCHEM_ATOM_DEF_STEREO_COUNT>
4
> <PUBCHEM_ATOM_UDEF_STEREO_COUNT>
0
> <PUBCHEM_BOND_DEF_STEREO_COUNT>
0
> <PUBCHEM_BOND_UDEF_STEREO_COUNT>
0
> <PUBCHEM_ISOTOPIC_ATOM_COUNT>
0
> <PUBCHEM_COMPONENT_COUNT>
1
> <PUBCHEM_CACTVS_TAUTO_COUNT>
-1
> <PUBCHEM_COORDINATE_TYPE>
1
5
255
> <PUBCHEM_BONDANNOTATIONS>
1  43  8
1  44  8
23  10  6
12  40  8
12  43  8
13  47  8
13  48  8
2  41  8
2  48  8
20  24  8
20  25  8
21  27  8
21  28  8
24  30  8
25  31  8
27  32  8
28  33  8
14  3  6
30  34  8
31  34  8
32  35  8
33  35  8
40  44  8
41  47  8
15  8  6
17  9  5
$$$$
