515911
  -OEChem-10302200282D
 40 41  0     1  0  0  0  0  0999 V2000
    6.3301   -2.7694    0.0000 Cl  0  0  0  0  0  0  0  0  0  0  0  0
    4.5981    0.2306    0.0000 S   0  0  0  0  0  0  0  0  0  0  0  0
    7.1013    2.1785    0.0000 O   0  0  0  0  0  0  0  0  0  0  0  0
    5.5981    0.2306    0.0000 O   0  0  0  0  0  0  0  0  0  0  0  0
    3.5981    0.2306    0.0000 O   0  0  0  0  0  0  0  0  0  0  0  0
    6.5661    0.5312    0.0000 O   0  0  0  0  0  0  0  0  0  0  0  0
    2.0000   -1.2694    0.0000 O   0  5  0  0  0  0  0  0  0  0  0  0
    2.8660    0.2306    0.0000 O   0  0  0  0  0  0  0  0  0  0  0  0
    4.5981    1.2306    0.0000 N   0  0  0  0  0  0  0  0  0  0  0  0
    2.8660   -0.7694    0.0000 N   0  3  0  0  0  0  0  0  0  0  0  0
    5.4071    1.8184    0.0000 C   0  0  0  0  0  0  0  0  0  0  0  0
    8.0524    1.8695    0.0000 C   0  0  3  0  0  0  0  0  0  0  0  0
    4.5981   -0.7694    0.0000 C   0  0  0  0  0  0  0  0  0  0  0  0
    8.7955    2.5386    0.0000 C   0  0  0  0  0  0  0  0  0  0  0  0
    3.7891    1.8184    0.0000 C   0  0  0  0  0  0  0  0  0  0  0  0
    5.0981    2.7694    0.0000 C   0  0  0  0  0  0  0  0  0  0  0  0
    6.3582    1.5094    0.0000 C   0  0  0  0  0  0  0  0  0  0  0  0
    3.7320   -1.2694    0.0000 C   0  0  0  0  0  0  0  0  0  0  0  0
    4.0981    2.7694    0.0000 C   0  0  0  0  0  0  0  0  0  0  0  0
    8.2603    0.8913    0.0000 C   0  0  0  0  0  0  0  0  0  0  0  0
    5.4641   -1.2694    0.0000 C   0  0  0  0  0  0  0  0  0  0  0  0
    9.7465    2.2296    0.0000 C   0  0  0  0  0  0  0  0  0  0  0  0
    3.7320   -2.2694    0.0000 C   0  0  0  0  0  0  0  0  0  0  0  0
    5.4641   -2.2694    0.0000 C   0  0  0  0  0  0  0  0  0  0  0  0
    4.5981   -2.7694    0.0000 C   0  0  0  0  0  0  0  0  0  0  0  0
    7.9234    2.4759    0.0000 H   0  0  0  0  0  0  0  0  0  0  0  0
    9.0866    3.0860    0.0000 H   0  0  0  0  0  0  0  0  0  0  0  0
    8.3069    2.9203    0.0000 H   0  0  0  0  0  0  0  0  0  0  0  0
    3.1994    1.6268    0.0000 H   0  0  0  0  0  0  0  0  0  0  0  0
    5.4625    3.2710    0.0000 H   0  0  0  0  0  0  0  0  0  0  0  0
    3.7336    3.2710    0.0000 H   0  0  0  0  0  0  0  0  0  0  0  0
    7.6538    0.7624    0.0000 H   0  0  0  0  0  0  0  0  0  0  0  0
    8.3892    0.2849    0.0000 H   0  0  0  0  0  0  0  0  0  0  0  0
    8.8667    1.0202    0.0000 H   0  0  0  0  0  0  0  0  0  0  0  0
    6.0010   -0.9594    0.0000 H   0  0  0  0  0  0  0  0  0  0  0  0
    9.5550    1.6399    0.0000 H   0  0  0  0  0  0  0  0  0  0  0  0
   10.3362    2.0380    0.0000 H   0  0  0  0  0  0  0  0  0  0  0  0
    9.9381    2.8192    0.0000 H   0  0  0  0  0  0  0  0  0  0  0  0
    3.1951   -2.5794    0.0000 H   0  0  0  0  0  0  0  0  0  0  0  0
    4.5981   -3.3894    0.0000 H   0  0  0  0  0  0  0  0  0  0  0  0
  1 24  1  0  0  0  0
  2  4  2  0  0  0  0
  2  5  2  0  0  0  0
  2  9  1  0  0  0  0
  2 13  1  0  0  0  0
  3 12  1  0  0  0  0
  3 17  1  0  0  0  0
  6 17  2  0  0  0  0
  7 10  1  0  0  0  0
  8 10  2  0  0  0  0
  9 11  1  0  0  0  0
  9 15  1  0  0  0  0
 10 18  1  0  0  0  0
 11 16  2  0  0  0  0
 11 17  1  0  0  0  0
 12 14  1  0  0  0  0
 12 20  1  0  0  0  0
 12 26  1  0  0  0  0
 13 18  2  0  0  0  0
 13 21  1  0  0  0  0
 14 22  1  0  0  0  0
 14 27  1  0  0  0  0
 14 28  1  0  0  0  0
 15 19  2  0  0  0  0
 15 29  1  0  0  0  0
 16 19  1  0  0  0  0
 16 30  1  0  0  0  0
 18 23  1  0  0  0  0
 19 31  1  0  0  0  0
 20 32  1  0  0  0  0
 20 33  1  0  0  0  0
 20 34  1  0  0  0  0
 21 24  2  0  0  0  0
 21 35  1  0  0  0  0
 22 36  1  0  0  0  0
 22 37  1  0  0  0  0
 22 38  1  0  0  0  0
 23 25  2  0  0  0  0
 23 39  1  0  0  0  0
 24 25  1  0  0  0  0
 25 40  1  0  0  0  0
M  CHG  2   7  -1  10   1
M  END
> <PUBCHEM_COMPOUND_CID>
515911
> <PUBCHEM_COMPOUND_CANONICALIZED>
1
> <PUBCHEM_CACTVS_COMPLEXITY>
602
> <PUBCHEM_CACTVS_HBOND_ACCEPTOR>
6
> <PUBCHEM_CACTVS_HBOND_DONOR>
0
> <PUBCHEM_CACTVS_ROTATABLE_BOND>
6
> <PUBCHEM_CACTVS_SUBSKEYS>
AAADccBzOABEAAAAAAAAAAAAAAAAAWAAAAAwAAAAAAAAAAABwAAAHgYEQAAACB7h1iY+yZIYVAKpATT3T3TCgDA3ByAo2D24btoKJvLBt7mHMQhkwAHY6YeYEQAAAABAABAAAQAAAIAAIAACAAAAAAAAAA==
> <PUBCHEM_IUPAC_OPENEYE_NAME>
sec-butyl 1-(5-chloro-2-nitro-phenyl)sulfonylpyrrole-2-carboxylate
> <PUBCHEM_IUPAC_CAS_NAME>
1-(5-chloro-2-nitrophenyl)sulfonyl-2-pyrrolecarboxylic acid butan-2-yl ester
> <PUBCHEM_IUPAC_NAME_MARKUP>
butan-2-yl 1-(5-chloro-2-nitrophenyl)sulfonylpyrrole-2-carboxylate
> <PUBCHEM_IUPAC_NAME>
butan-2-yl 1-(5-chloro-2-nitrophenyl)sulfonylpyrrole-2-carboxylate
> <PUBCHEM_IUPAC_SYSTEMATIC_NAME>
butan-2-yl 1-(5-chloranyl-2-nitro-phenyl)sulfonylpyrrole-2-carboxylate
> <PUBCHEM_IUPAC_TRADITIONAL_NAME>
1-(5-chloro-2-nitro-phenyl)sulfonylpyrrole-2-carboxylic acid sec-butyl ester
> <PUBCHEM_IUPAC_INCHI>
InChI=1S/C15H15ClN2O6S/c1-3-10(2)24-15(19)13-5-4-8-17(13)25(22,23)14-9-11(16)6-7-12(14)18(20)21/h4-10H,3H2,1-2H3
> <PUBCHEM_IUPAC_INCHIKEY>
JCSMFHJGZWMGBM-UHFFFAOYSA-N
> <PUBCHEM_XLOGP3_AA>
3.9
> <PUBCHEM_EXACT_MASS>
386.0339351
> <PUBCHEM_MOLECULAR_FORMULA>
C15H15ClN2O6S
> <PUBCHEM_MOLECULAR_WEIGHT>
386.8
> <PUBCHEM_OPENEYE_CAN_SMILES>
CCC(C)OC(=O)C1=CC=CN1S(=O)(=O)C2=C(C=CC(=C2)Cl)[N+](=O)[O-]
> <PUBCHEM_OPENEYE_ISO_SMILES>
CCC(C)OC(=O)C1=CC=CN1S(=O)(=O)C2=C(C=CC(=C2)Cl)[N+](=O)[O-]
> <PUBCHEM_CACTVS_TPSA>
120
> <PUBCHEM_MONOISOTOPIC_WEIGHT>
386.0339351
> <PUBCHEM_TOTAL_CHARGE>
0
> <PUBCHEM_HEAVY_ATOM_COUNT>
25
> <PUBCHEM_ATOM_DEF_STEREO_COUNT>
0
> <PUBCHEM_ATOM_UDEF_STEREO_COUNT>
1
> <PUBCHEM_BOND_DEF_STEREO_COUNT>
0
> <PUBCHEM_BOND_UDEF_STEREO_COUNT>
0
> <PUBCHEM_ISOTOPIC_ATOM_COUNT>
0
> <PUBCHEM_COMPONENT_COUNT>
1
> <PUBCHEM_CACTVS_TAUTO_COUNT>
-1
> <PUBCHEM_COORDINATE_TYPE>
1
5
255
> <PUBCHEM_BONDANNOTATIONS>
11  16  8
12  20  3
13  18  8
13  21  8
15  19  8
16  19  8
18  23  8
21  24  8
23  25  8
24  25  8
9  11  8
9  15  8
$$$$
