515906
  -OEChem-10302200282D
 84 88  0     1  0  0  0  0  0999 V2000
    7.1240   -2.4094    0.0000 O   0  0  0  0  0  0  0  0  0  0  0  0
    6.6374   -3.8829    0.0000 O   0  0  0  0  0  0  0  0  0  0  0  0
    4.9820    0.6684    0.0000 O   0  0  0  0  0  0  0  0  0  0  0  0
    3.9570    3.1075    0.0000 O   0  0  0  0  0  0  0  0  0  0  0  0
    4.3142    1.4126    0.0000 O   0  0  0  0  0  0  0  0  0  0  0  0
    5.3644   -2.1276    0.0000 N   0  0  0  0  0  0  0  0  0  0  0  0
    5.6034    2.5694    0.0000 N   0  0  0  0  0  0  0  0  0  0  0  0
    6.3177   -0.8202    0.0000 C   0  0  1  0  0  0  0  0  0  0  0  0
    5.3672   -0.5096    0.0000 C   0  0  0  0  0  0  0  0  0  0  0  0
    4.7780   -1.3176    0.0000 C   0  0  0  0  0  0  0  0  0  0  0  0
    5.0537   -3.0781    0.0000 C   0  0  2  0  0  0  0  0  0  0  0  0
    6.6284    0.1303    0.0000 C   0  0  0  0  0  0  0  0  0  0  0  0
    6.3160   -1.8202    0.0000 C   0  0  0  0  0  0  0  0  0  0  0  0
    7.3177   -0.8220    0.0000 C   0  0  0  0  0  0  0  0  0  0  0  0
    5.6374   -3.8829    0.0000 C   0  0  1  0  0  0  0  0  0  0  0  0
    5.9605    0.8746    0.0000 C   0  0  1  0  0  0  0  0  0  0  0  0
    4.1075   -3.3829    0.0000 C   0  0  0  0  0  0  0  0  0  0  0  0
    5.0537   -4.6876    0.0000 C   0  0  0  0  0  0  0  0  0  0  0  0
    4.1075   -4.3829    0.0000 C   0  0  0  0  0  0  0  0  0  0  0  0
    6.2712    1.8251    0.0000 C   0  0  2  0  0  0  0  0  0  0  0  0
    7.8192    0.0432    0.0000 C   0  0  0  0  0  0  0  0  0  0  0  0
    3.2415   -2.8829    0.0000 C   0  0  0  0  0  0  0  0  0  0  0  0
    7.2497    2.0313    0.0000 C   0  0  0  0  0  0  0  0  0  0  0  0
    3.2415   -4.8829    0.0000 C   0  0  0  0  0  0  0  0  0  0  0  0
    8.8192    0.0414    0.0000 C   0  0  0  0  0  0  0  0  0  0  0  0
    7.3207    0.9101    0.0000 C   0  0  0  0  0  0  0  0  0  0  0  0
    2.3755   -3.3829    0.0000 C   0  0  0  0  0  0  0  0  0  0  0  0
    2.3755   -4.3829    0.0000 C   0  0  0  0  0  0  0  0  0  0  0  0
    7.5604    2.9818    0.0000 C   0  0  0  0  0  0  0  0  0  0  0  0
    9.3207    0.9066    0.0000 C   0  0  0  0  0  0  0  0  0  0  0  0
    7.8222    1.7752    0.0000 C   0  0  0  0  0  0  0  0  0  0  0  0
    4.6249    2.3632    0.0000 C   0  0  0  0  0  0  0  0  0  0  0  0
    8.8222    1.7735    0.0000 C   0  0  0  0  0  0  0  0  0  0  0  0
    8.5389    3.1880    0.0000 C   0  0  0  0  0  0  0  0  0  0  0  0
    6.8925    3.7261    0.0000 C   0  0  0  0  0  0  0  0  0  0  0  0
    2.9785    2.9013    0.0000 C   0  0  0  0  0  0  0  0  0  0  0  0
    8.8495    4.1386    0.0000 C   0  0  0  0  0  0  0  0  0  0  0  0
    7.2032    4.6767    0.0000 C   0  0  0  0  0  0  0  0  0  0  0  0
    8.1817    4.8829    0.0000 C   0  0  0  0  0  0  0  0  0  0  0  0
    2.0000    2.6950    0.0000 C   0  0  0  0  0  0  0  0  0  0  0  0
    2.7723    3.8798    0.0000 C   0  0  0  0  0  0  0  0  0  0  0  0
    3.1847    1.9228    0.0000 C   0  0  0  0  0  0  0  0  0  0  0  0
    5.6204    0.0564    0.0000 H   0  0  0  0  0  0  0  0  0  0  0  0
    4.8308   -0.1987    0.0000 H   0  0  0  0  0  0  0  0  0  0  0  0
    4.3180   -0.9019    0.0000 H   0  0  0  0  0  0  0  0  0  0  0  0
    4.3166   -1.7316    0.0000 H   0  0  0  0  0  0  0  0  0  0  0  0
    5.6662   -2.9820    0.0000 H   0  0  0  0  0  0  0  0  0  0  0  0
    7.1753   -0.1617    0.0000 H   0  0  0  0  0  0  0  0  0  0  0  0
    7.0109    0.6182    0.0000 H   0  0  0  0  0  0  0  0  0  0  0  0
    7.2090   -1.4324    0.0000 H   0  0  0  0  0  0  0  0  0  0  0  0
    7.9000   -1.0350    0.0000 H   0  0  0  0  0  0  0  0  0  0  0  0
    5.9191   -4.4352    0.0000 H   0  0  0  0  0  0  0  0  0  0  0  0
    5.7679    0.2852    0.0000 H   0  0  0  0  0  0  0  0  0  0  0  0
    4.8027   -5.2545    0.0000 H   0  0  0  0  0  0  0  0  0  0  0  0
    5.5911   -4.9968    0.0000 H   0  0  0  0  0  0  0  0  0  0  0  0
    5.6645    1.6972    0.0000 H   0  0  0  0  0  0  0  0  0  0  0  0
    3.2415   -2.2629    0.0000 H   0  0  0  0  0  0  0  0  0  0  0  0
    7.2703    1.4116    0.0000 H   0  0  0  0  0  0  0  0  0  0  0  0
    7.8635    1.9440    0.0000 H   0  0  0  0  0  0  0  0  0  0  0  0
    3.2415   -5.5029    0.0000 H   0  0  0  0  0  0  0  0  0  0  0  0
    6.9474   -4.4198    0.0000 H   0  0  0  0  0  0  0  0  0  0  0  0
    4.7894    0.0790    0.0000 H   0  0  0  0  0  0  0  0  0  0  0  0
    5.7960    3.1587    0.0000 H   0  0  0  0  0  0  0  0  0  0  0  0
    9.1283   -0.4960    0.0000 H   0  0  0  0  0  0  0  0  0  0  0  0
    6.7007    0.9111    0.0000 H   0  0  0  0  0  0  0  0  0  0  0  0
    1.8385   -3.0729    0.0000 H   0  0  0  0  0  0  0  0  0  0  0  0
    1.8385   -4.6929    0.0000 H   0  0  0  0  0  0  0  0  0  0  0  0
    9.9407    0.9055    0.0000 H   0  0  0  0  0  0  0  0  0  0  0  0
    7.5132    2.3127    0.0000 H   0  0  0  0  0  0  0  0  0  0  0  0
    9.1331    2.3099    0.0000 H   0  0  0  0  0  0  0  0  0  0  0  0
    8.9529    2.7266    0.0000 H   0  0  0  0  0  0  0  0  0  0  0  0
    6.2859    3.5983    0.0000 H   0  0  0  0  0  0  0  0  0  0  0  0
    9.4562    4.2664    0.0000 H   0  0  0  0  0  0  0  0  0  0  0  0
    6.7891    5.1381    0.0000 H   0  0  0  0  0  0  0  0  0  0  0  0
    8.3743    5.4722    0.0000 H   0  0  0  0  0  0  0  0  0  0  0  0
    1.8721    3.3017    0.0000 H   0  0  0  0  0  0  0  0  0  0  0  0
    1.3933    2.5672    0.0000 H   0  0  0  0  0  0  0  0  0  0  0  0
    2.1279    2.0884    0.0000 H   0  0  0  0  0  0  0  0  0  0  0  0
    3.3790    4.0076    0.0000 H   0  0  0  0  0  0  0  0  0  0  0  0
    2.6444    4.4864    0.0000 H   0  0  0  0  0  0  0  0  0  0  0  0
    2.1656    3.7519    0.0000 H   0  0  0  0  0  0  0  0  0  0  0  0
    2.5780    1.7949    0.0000 H   0  0  0  0  0  0  0  0  0  0  0  0
    3.3126    1.3161    0.0000 H   0  0  0  0  0  0  0  0  0  0  0  0
    3.7914    2.0506    0.0000 H   0  0  0  0  0  0  0  0  0  0  0  0
  1 13  2  0  0  0  0
 15  2  1  6  0  0  0
  2 61  1  0  0  0  0
 16  3  1  6  0  0  0
  3 62  1  0  0  0  0
  4 32  1  0  0  0  0
  4 36  1  0  0  0  0
  5 32  2  0  0  0  0
  6 10  1  0  0  0  0
 11  6  1  6  0  0  0
  6 13  1  0  0  0  0
 20  7  1  1  0  0  0
  7 32  1  0  0  0  0
  7 63  1  0  0  0  0
  8  9  1  0  0  0  0
  8 12  1  1  0  0  0
  8 13  1  0  0  0  0
  8 14  1  0  0  0  0
  9 10  1  0  0  0  0
  9 43  1  0  0  0  0
  9 44  1  0  0  0  0
 10 45  1  0  0  0  0
 10 46  1  0  0  0  0
 11 15  1  0  0  0  0
 11 17  1  0  0  0  0
 11 47  1  0  0  0  0
 12 16  1  0  0  0  0
 12 48  1  0  0  0  0
 12 49  1  0  0  0  0
 14 21  1  0  0  0  0
 14 50  1  0  0  0  0
 14 51  1  0  0  0  0
 15 18  1  0  0  0  0
 15 52  1  0  0  0  0
 16 20  1  0  0  0  0
 16 53  1  0  0  0  0
 17 19  1  0  0  0  0
 17 22  2  0  0  0  0
 18 19  1  0  0  0  0
 18 54  1  0  0  0  0
 18 55  1  0  0  0  0
 19 24  2  0  0  0  0
 20 23  1  0  0  0  0
 20 56  1  0  0  0  0
 21 25  2  0  0  0  0
 21 26  1  0  0  0  0
 22 27  1  0  0  0  0
 22 57  1  0  0  0  0
 23 29  1  0  0  0  0
 23 58  1  0  0  0  0
 23 59  1  0  0  0  0
 24 28  1  0  0  0  0
 24 60  1  0  0  0  0
 25 30  1  0  0  0  0
 25 64  1  0  0  0  0
 26 31  2  0  0  0  0
 26 65  1  0  0  0  0
 27 28  2  0  0  0  0
 27 66  1  0  0  0  0
 28 67  1  0  0  0  0
 29 34  2  0  0  0  0
 29 35  1  0  0  0  0
 30 33  2  0  0  0  0
 30 68  1  0  0  0  0
 31 33  1  0  0  0  0
 31 69  1  0  0  0  0
 33 70  1  0  0  0  0
 34 37  1  0  0  0  0
 34 71  1  0  0  0  0
 35 38  2  0  0  0  0
 35 72  1  0  0  0  0
 36 40  1  0  0  0  0
 36 41  1  0  0  0  0
 36 42  1  0  0  0  0
 37 39  2  0  0  0  0
 37 73  1  0  0  0  0
 38 39  1  0  0  0  0
 38 74  1  0  0  0  0
 39 75  1  0  0  0  0
 40 76  1  0  0  0  0
 40 77  1  0  0  0  0
 40 78  1  0  0  0  0
 41 79  1  0  0  0  0
 41 80  1  0  0  0  0
 41 81  1  0  0  0  0
 42 82  1  0  0  0  0
 42 83  1  0  0  0  0
 42 84  1  0  0  0  0
M  END
> <PUBCHEM_COMPOUND_CID>
515906
> <PUBCHEM_COMPOUND_CANONICALIZED>
1
> <PUBCHEM_CACTVS_COMPLEXITY>
908
> <PUBCHEM_CACTVS_HBOND_ACCEPTOR>
5
> <PUBCHEM_CACTVS_HBOND_DONOR>
3
> <PUBCHEM_CACTVS_ROTATABLE_BOND>
11
> <PUBCHEM_CACTVS_SUBSKEYS>
AAADcfB/OAAAAAAAAAAAAAAAAAAAAeIAAAAwYMAAAAAAAGABUAAAHgAQCAAADnzhmAYyCIPABgCIAiFSGACCAAAgAAAIiIEIBIkKMDKAkRGMYAhk1gGYiAe+2fKfgAAAAAAQAAAAAAAAACAAAKAACQgAAA==
> <PUBCHEM_IUPAC_OPENEYE_NAME>
tert-butyl N-[(1S,2S)-1-benzyl-3-[(3S)-3-benzyl-1-[(1S,2R)-2-hydroxyindan-1-yl]-2-oxo-pyrrolidin-3-yl]-2-hydroxy-propyl]carbamate
> <PUBCHEM_IUPAC_CAS_NAME>
N-[(2S,3S)-3-hydroxy-4-[(3S)-1-[(1S,2R)-2-hydroxy-2,3-dihydro-1H-inden-1-yl]-2-oxo-3-(phenylmethyl)-3-pyrrolidinyl]-1-phenylbutan-2-yl]carbamic acid tert-butyl ester
> <PUBCHEM_IUPAC_NAME_MARKUP>
<I>tert</I>-butyl <I>N</I>-[(2<I>S</I>,3<I>S</I>)-4-[(3<I>S</I>)-3-benzyl-1-[(1<I>S</I>,2<I>R</I>)-2-hydroxy-2,3-dihydro-1<I>H</I>-inden-1-yl]-2-oxopyrrolidin-3-yl]-3-hydroxy-1-phenylbutan-2-yl]carbamate
> <PUBCHEM_IUPAC_NAME>
tert-butyl N-[(2S,3S)-4-[(3S)-3-benzyl-1-[(1S,2R)-2-hydroxy-2,3-dihydro-1H-inden-1-yl]-2-oxopyrrolidin-3-yl]-3-hydroxy-1-phenylbutan-2-yl]carbamate
> <PUBCHEM_IUPAC_SYSTEMATIC_NAME>
tert-butyl N-[(2S,3S)-3-oxidanyl-4-[(3S)-1-[(1S,2R)-2-oxidanyl-2,3-dihydro-1H-inden-1-yl]-2-oxidanylidene-3-(phenylmethyl)pyrrolidin-3-yl]-1-phenyl-butan-2-yl]carbamate
> <PUBCHEM_IUPAC_TRADITIONAL_NAME>
N-[(1S,2S)-1-benzyl-3-[(3S)-3-benzyl-1-[(1S,2R)-2-hydroxyindan-1-yl]-2-keto-pyrrolidin-3-yl]-2-hydroxy-propyl]carbamic acid tert-butyl ester
> <PUBCHEM_IUPAC_INCHI>
InChI=1S/C35H42N2O5/c1-34(2,3)42-33(41)36-28(20-24-12-6-4-7-13-24)30(39)23-35(22-25-14-8-5-9-15-25)18-19-37(32(35)40)31-27-17-11-10-16-26(27)21-29(31)38/h4-17,28-31,38-39H,18-23H2,1-3H3,(H,36,41)/t28-,29+,30-,31-,35+/m0/s1
> <PUBCHEM_IUPAC_INCHIKEY>
IZDSNPAQXFHSKV-IREVDNFNSA-N
> <PUBCHEM_XLOGP3_AA>
5
> <PUBCHEM_EXACT_MASS>
570.30937244
> <PUBCHEM_MOLECULAR_FORMULA>
C35H42N2O5
> <PUBCHEM_MOLECULAR_WEIGHT>
570.7
> <PUBCHEM_OPENEYE_CAN_SMILES>
CC(C)(C)OC(=O)NC(CC1=CC=CC=C1)C(CC2(CCN(C2=O)C3C(CC4=CC=CC=C34)O)CC5=CC=CC=C5)O
> <PUBCHEM_OPENEYE_ISO_SMILES>
CC(C)(C)OC(=O)N[C@@H](CC1=CC=CC=C1)[C@H](C[C@@]2(CCN(C2=O)[C@@H]3[C@@H](CC4=CC=CC=C34)O)CC5=CC=CC=C5)O
> <PUBCHEM_CACTVS_TPSA>
99.1
> <PUBCHEM_MONOISOTOPIC_WEIGHT>
570.30937244
> <PUBCHEM_TOTAL_CHARGE>
0
> <PUBCHEM_HEAVY_ATOM_COUNT>
42
> <PUBCHEM_ATOM_DEF_STEREO_COUNT>
5
> <PUBCHEM_ATOM_UDEF_STEREO_COUNT>
0
> <PUBCHEM_BOND_DEF_STEREO_COUNT>
0
> <PUBCHEM_BOND_UDEF_STEREO_COUNT>
0
> <PUBCHEM_ISOTOPIC_ATOM_COUNT>
0
> <PUBCHEM_COMPONENT_COUNT>
1
> <PUBCHEM_CACTVS_TAUTO_COUNT>
-1
> <PUBCHEM_COORDINATE_TYPE>
1
5
255
> <PUBCHEM_BONDANNOTATIONS>
17  19  8
17  22  8
19  24  8
15  2  6
21  25  8
21  26  8
22  27  8
24  28  8
25  30  8
26  31  8
27  28  8
29  34  8
29  35  8
16  3  6
30  33  8
31  33  8
34  37  8
35  38  8
37  39  8
38  39  8
11  6  6
20  7  5
8  12  5
$$$$
