515905
  -OEChem-10302200282D
 83 86  0     1  0  0  0  0  0999 V2000
    6.2619   -2.5488    0.0000 O   0  0  0  0  0  0  0  0  0  0  0  0
    7.6138   -1.1254    0.0000 O   0  0  0  0  0  0  0  0  0  0  0  0
    6.6353   -1.3316    0.0000 O   0  0  0  0  0  0  0  0  0  0  0  0
   10.7275   -2.0021    0.0000 O   0  0  0  0  0  0  0  0  0  0  0  0
    9.0327   -2.3593    0.0000 O   0  0  0  0  0  0  0  0  0  0  0  0
    4.9889   -0.7935    0.0000 N   0  0  0  0  0  0  0  0  0  0  0  0
    9.5708   -0.7129    0.0000 N   0  0  0  0  0  0  0  0  0  0  0  0
    4.6783   -1.7440    0.0000 C   0  0  2  0  0  0  0  0  0  0  0  0
    5.2619   -2.5488    0.0000 C   0  0  1  0  0  0  0  0  0  0  0  0
    3.7320   -2.0488    0.0000 C   0  0  0  0  0  0  0  0  0  0  0  0
    4.6783   -3.3535    0.0000 C   0  0  0  0  0  0  0  0  0  0  0  0
    6.2781    0.3632    0.0000 C   0  0  2  0  0  0  0  0  0  0  0  0
    3.7320   -3.0488    0.0000 C   0  0  0  0  0  0  0  0  0  0  0  0
    7.2566    0.5694    0.0000 C   0  0  0  0  0  0  0  0  0  0  0  0
    5.9674   -0.5873    0.0000 C   0  0  0  0  0  0  0  0  0  0  0  0
    7.9244   -0.1749    0.0000 C   0  0  1  0  0  0  0  0  0  0  0  0
    5.6103    1.1075    0.0000 C   0  0  0  0  0  0  0  0  0  0  0  0
    8.9030    0.0314    0.0000 C   0  0  2  0  0  0  0  0  0  0  0  0
    2.8660   -1.5488    0.0000 C   0  0  0  0  0  0  0  0  0  0  0  0
    4.3211   -0.0492    0.0000 C   0  0  0  0  0  0  0  0  0  0  0  0
    2.8660   -3.5488    0.0000 C   0  0  0  0  0  0  0  0  0  0  0  0
    9.2136    0.9819    0.0000 C   0  0  0  0  0  0  0  0  0  0  0  0
    5.9209    2.0580    0.0000 C   0  0  0  0  0  0  0  0  0  0  0  0
    2.0000   -2.0488    0.0000 C   0  0  0  0  0  0  0  0  0  0  0  0
    2.0000   -3.0488    0.0000 C   0  0  0  0  0  0  0  0  0  0  0  0
   10.1921    1.1881    0.0000 C   0  0  0  0  0  0  0  0  0  0  0  0
    6.8994    2.2643    0.0000 C   0  0  0  0  0  0  0  0  0  0  0  0
    5.2531    2.8024    0.0000 C   0  0  0  0  0  0  0  0  0  0  0  0
    9.7771   -1.6914    0.0000 C   0  0  0  0  0  0  0  0  0  0  0  0
   10.8600    0.4438    0.0000 C   0  0  0  0  0  0  0  0  0  0  0  0
   10.5028    2.1386    0.0000 C   0  0  0  0  0  0  0  0  0  0  0  0
    7.2101    3.2148    0.0000 C   0  0  0  0  0  0  0  0  0  0  0  0
    5.5637    3.7529    0.0000 C   0  0  0  0  0  0  0  0  0  0  0  0
   10.9338   -2.9806    0.0000 C   0  0  0  0  0  0  0  0  0  0  0  0
    6.5422    3.9591    0.0000 C   0  0  0  0  0  0  0  0  0  0  0  0
   11.8385    0.6500    0.0000 C   0  0  0  0  0  0  0  0  0  0  0  0
   11.4813    2.3448    0.0000 C   0  0  0  0  0  0  0  0  0  0  0  0
   12.1491    1.6005    0.0000 C   0  0  0  0  0  0  0  0  0  0  0  0
   11.1401   -3.9591    0.0000 C   0  0  0  0  0  0  0  0  0  0  0  0
   11.9123   -2.7744    0.0000 C   0  0  0  0  0  0  0  0  0  0  0  0
    9.9553   -3.1868    0.0000 C   0  0  0  0  0  0  0  0  0  0  0  0
    5.2908   -1.6478    0.0000 H   0  0  0  0  0  0  0  0  0  0  0  0
    5.5436   -3.1011    0.0000 H   0  0  0  0  0  0  0  0  0  0  0  0
    4.4272   -3.9204    0.0000 H   0  0  0  0  0  0  0  0  0  0  0  0
    5.2156   -3.6627    0.0000 H   0  0  0  0  0  0  0  0  0  0  0  0
    6.6922   -0.0982    0.0000 H   0  0  0  0  0  0  0  0  0  0  0  0
    7.7830    0.8971    0.0000 H   0  0  0  0  0  0  0  0  0  0  0  0
    7.0254    1.1447    0.0000 H   0  0  0  0  0  0  0  0  0  0  0  0
    8.3385   -0.6363    0.0000 H   0  0  0  0  0  0  0  0  0  0  0  0
    9.5096    0.1592    0.0000 H   0  0  0  0  0  0  0  0  0  0  0  0
    5.0633    1.3995    0.0000 H   0  0  0  0  0  0  0  0  0  0  0  0
    5.2277    0.6196    0.0000 H   0  0  0  0  0  0  0  0  0  0  0  0
    2.8660   -0.9288    0.0000 H   0  0  0  0  0  0  0  0  0  0  0  0
    4.7826    0.3648    0.0000 H   0  0  0  0  0  0  0  0  0  0  0  0
    3.9070    0.4123    0.0000 H   0  0  0  0  0  0  0  0  0  0  0  0
    3.8596   -0.4633    0.0000 H   0  0  0  0  0  0  0  0  0  0  0  0
    2.8660   -4.1688    0.0000 H   0  0  0  0  0  0  0  0  0  0  0  0
    9.1930    1.6015    0.0000 H   0  0  0  0  0  0  0  0  0  0  0  0
    8.5998    1.0692    0.0000 H   0  0  0  0  0  0  0  0  0  0  0  0
    6.5719   -3.0857    0.0000 H   0  0  0  0  0  0  0  0  0  0  0  0
    1.4631   -1.7388    0.0000 H   0  0  0  0  0  0  0  0  0  0  0  0
    1.4631   -3.3588    0.0000 H   0  0  0  0  0  0  0  0  0  0  0  0
   10.1775   -0.5851    0.0000 H   0  0  0  0  0  0  0  0  0  0  0  0
    7.7416   -1.7321    0.0000 H   0  0  0  0  0  0  0  0  0  0  0  0
    7.3135    1.8028    0.0000 H   0  0  0  0  0  0  0  0  0  0  0  0
    4.6464    2.6745    0.0000 H   0  0  0  0  0  0  0  0  0  0  0  0
   10.6674   -0.1455    0.0000 H   0  0  0  0  0  0  0  0  0  0  0  0
   10.0887    2.6001    0.0000 H   0  0  0  0  0  0  0  0  0  0  0  0
    7.8168    3.3426    0.0000 H   0  0  0  0  0  0  0  0  0  0  0  0
    5.1497    4.2143    0.0000 H   0  0  0  0  0  0  0  0  0  0  0  0
    6.7349    4.5484    0.0000 H   0  0  0  0  0  0  0  0  0  0  0  0
   12.2525    0.1885    0.0000 H   0  0  0  0  0  0  0  0  0  0  0  0
   11.6739    2.9342    0.0000 H   0  0  0  0  0  0  0  0  0  0  0  0
   12.7558    1.7284    0.0000 H   0  0  0  0  0  0  0  0  0  0  0  0
   10.5334   -4.0870    0.0000 H   0  0  0  0  0  0  0  0  0  0  0  0
   11.2680   -4.5658    0.0000 H   0  0  0  0  0  0  0  0  0  0  0  0
   11.7467   -3.8312    0.0000 H   0  0  0  0  0  0  0  0  0  0  0  0
   12.0401   -3.3811    0.0000 H   0  0  0  0  0  0  0  0  0  0  0  0
   12.5189   -2.6465    0.0000 H   0  0  0  0  0  0  0  0  0  0  0  0
   11.7844   -2.1677    0.0000 H   0  0  0  0  0  0  0  0  0  0  0  0
    9.8274   -2.5802    0.0000 H   0  0  0  0  0  0  0  0  0  0  0  0
    9.3486   -3.3147    0.0000 H   0  0  0  0  0  0  0  0  0  0  0  0
   10.0832   -3.7935    0.0000 H   0  0  0  0  0  0  0  0  0  0  0  0
  9  1  1  6  0  0  0
  1 60  1  0  0  0  0
 16  2  1  1  0  0  0
  2 64  1  0  0  0  0
  3 15  2  0  0  0  0
  4 29  1  0  0  0  0
  4 34  1  0  0  0  0
  5 29  2  0  0  0  0
  8  6  1  6  0  0  0
  6 15  1  0  0  0  0
  6 20  1  0  0  0  0
 18  7  1  6  0  0  0
  7 29  1  0  0  0  0
  7 63  1  0  0  0  0
  8  9  1  0  0  0  0
  8 10  1  0  0  0  0
  8 42  1  0  0  0  0
  9 11  1  0  0  0  0
  9 43  1  0  0  0  0
 10 13  1  0  0  0  0
 10 19  2  0  0  0  0
 11 13  1  0  0  0  0
 11 44  1  0  0  0  0
 11 45  1  0  0  0  0
 12 14  1  6  0  0  0
 12 15  1  0  0  0  0
 12 17  1  0  0  0  0
 12 46  1  0  0  0  0
 13 21  2  0  0  0  0
 14 16  1  0  0  0  0
 14 47  1  0  0  0  0
 14 48  1  0  0  0  0
 16 18  1  0  0  0  0
 16 49  1  0  0  0  0
 17 23  1  0  0  0  0
 17 51  1  0  0  0  0
 17 52  1  0  0  0  0
 18 22  1  0  0  0  0
 18 50  1  0  0  0  0
 19 24  1  0  0  0  0
 19 53  1  0  0  0  0
 20 54  1  0  0  0  0
 20 55  1  0  0  0  0
 20 56  1  0  0  0  0
 21 25  1  0  0  0  0
 21 57  1  0  0  0  0
 22 26  1  0  0  0  0
 22 58  1  0  0  0  0
 22 59  1  0  0  0  0
 23 27  2  0  0  0  0
 23 28  1  0  0  0  0
 24 25  2  0  0  0  0
 24 61  1  0  0  0  0
 25 62  1  0  0  0  0
 26 30  2  0  0  0  0
 26 31  1  0  0  0  0
 27 32  1  0  0  0  0
 27 65  1  0  0  0  0
 28 33  2  0  0  0  0
 28 66  1  0  0  0  0
 30 36  1  0  0  0  0
 30 67  1  0  0  0  0
 31 37  2  0  0  0  0
 31 68  1  0  0  0  0
 32 35  2  0  0  0  0
 32 69  1  0  0  0  0
 33 35  1  0  0  0  0
 33 70  1  0  0  0  0
 34 39  1  0  0  0  0
 34 40  1  0  0  0  0
 34 41  1  0  0  0  0
 35 71  1  0  0  0  0
 36 38  2  0  0  0  0
 36 72  1  0  0  0  0
 37 38  1  0  0  0  0
 37 73  1  0  0  0  0
 38 74  1  0  0  0  0
 39 75  1  0  0  0  0
 39 76  1  0  0  0  0
 39 77  1  0  0  0  0
 40 78  1  0  0  0  0
 40 79  1  0  0  0  0
 40 80  1  0  0  0  0
 41 81  1  0  0  0  0
 41 82  1  0  0  0  0
 41 83  1  0  0  0  0
M  END
> <PUBCHEM_COMPOUND_CID>
515905
> <PUBCHEM_COMPOUND_CANONICALIZED>
1
> <PUBCHEM_CACTVS_COMPLEXITY>
832
> <PUBCHEM_CACTVS_HBOND_ACCEPTOR>
5
> <PUBCHEM_CACTVS_HBOND_DONOR>
3
> <PUBCHEM_CACTVS_ROTATABLE_BOND>
12
> <PUBCHEM_CACTVS_SUBSKEYS>
AAADcfB/OAAAAAAAAAAAAAAAAAAAAYAAAAAwYMAAAAAAAGABUAAAHgAQCAAADXzhmAYyCIPABgCIAiFSGACCAAAgAAAIiIEIBIkKMDKAkRGMYAhk1gGYiAe62fKegAAAAAAQAAAAAAAAACAAAKAACQgAAA==
> <PUBCHEM_IUPAC_OPENEYE_NAME>
tert-butyl N-[(1S,2S,4R)-1,4-dibenzyl-2-hydroxy-5-[[(1S,2R)-2-hydroxyindan-1-yl]-methyl-amino]-5-oxo-pentyl]carbamate
> <PUBCHEM_IUPAC_CAS_NAME>
N-[(2S,3S,5R)-3-hydroxy-6-[[(1S,2R)-2-hydroxy-2,3-dihydro-1H-inden-1-yl]-methylamino]-6-oxo-1-phenyl-5-(phenylmethyl)hexan-2-yl]carbamic acid tert-butyl ester
> <PUBCHEM_IUPAC_NAME_MARKUP>
<I>tert</I>-butyl <I>N</I>-[(2<I>S</I>,3<I>S</I>,5<I>R</I>)-5-benzyl-3-hydroxy-6-[[(1<I>S</I>,2<I>R</I>)-2-hydroxy-2,3-dihydro-1<I>H</I>-inden-1-yl]-methylamino]-6-oxo-1-phenylhexan-2-yl]carbamate
> <PUBCHEM_IUPAC_NAME>
tert-butyl N-[(2S,3S,5R)-5-benzyl-3-hydroxy-6-[[(1S,2R)-2-hydroxy-2,3-dihydro-1H-inden-1-yl]-methylamino]-6-oxo-1-phenylhexan-2-yl]carbamate
> <PUBCHEM_IUPAC_SYSTEMATIC_NAME>
tert-butyl N-[(2S,3S,5R)-6-[methyl-[(1S,2R)-2-oxidanyl-2,3-dihydro-1H-inden-1-yl]amino]-3-oxidanyl-6-oxidanylidene-1-phenyl-5-(phenylmethyl)hexan-2-yl]carbamate
> <PUBCHEM_IUPAC_TRADITIONAL_NAME>
N-[(1S,2S,4R)-1,4-dibenzyl-2-hydroxy-5-[[(1S,2R)-2-hydroxyindan-1-yl]-methyl-amino]-5-keto-pentyl]carbamic acid tert-butyl ester
> <PUBCHEM_IUPAC_INCHI>
InChI=1S/C34H42N2O5/c1-34(2,3)41-33(40)35-28(20-24-15-9-6-10-16-24)29(37)22-26(19-23-13-7-5-8-14-23)32(39)36(4)31-27-18-12-11-17-25(27)21-30(31)38/h5-18,26,28-31,37-38H,19-22H2,1-4H3,(H,35,40)/t26-,28+,29+,30-,31+/m1/s1
> <PUBCHEM_IUPAC_INCHIKEY>
SHBRIUZJADVDHY-RWUKFNQSSA-N
> <PUBCHEM_XLOGP3_AA>
5.1
> <PUBCHEM_EXACT_MASS>
558.30937244
> <PUBCHEM_MOLECULAR_FORMULA>
C34H42N2O5
> <PUBCHEM_MOLECULAR_WEIGHT>
558.7
> <PUBCHEM_OPENEYE_CAN_SMILES>
CC(C)(C)OC(=O)NC(CC1=CC=CC=C1)C(CC(CC2=CC=CC=C2)C(=O)N(C)C3C(CC4=CC=CC=C34)O)O
> <PUBCHEM_OPENEYE_ISO_SMILES>
CC(C)(C)OC(=O)N[C@@H](CC1=CC=CC=C1)[C@H](C[C@@H](CC2=CC=CC=C2)C(=O)N(C)[C@@H]3[C@@H](CC4=CC=CC=C34)O)O
> <PUBCHEM_CACTVS_TPSA>
99.1
> <PUBCHEM_MONOISOTOPIC_WEIGHT>
558.30937244
> <PUBCHEM_TOTAL_CHARGE>
0
> <PUBCHEM_HEAVY_ATOM_COUNT>
41
> <PUBCHEM_ATOM_DEF_STEREO_COUNT>
5
> <PUBCHEM_ATOM_UDEF_STEREO_COUNT>
0
> <PUBCHEM_BOND_DEF_STEREO_COUNT>
0
> <PUBCHEM_BOND_UDEF_STEREO_COUNT>
0
> <PUBCHEM_ISOTOPIC_ATOM_COUNT>
0
> <PUBCHEM_COMPONENT_COUNT>
1
> <PUBCHEM_CACTVS_TAUTO_COUNT>
-1
> <PUBCHEM_COORDINATE_TYPE>
1
5
255
> <PUBCHEM_BONDANNOTATIONS>
9  1  6
10  13  8
10  19  8
12  14  6
13  21  8
19  24  8
16  2  5
21  25  8
23  27  8
23  28  8
24  25  8
26  30  8
26  31  8
27  32  8
28  33  8
30  36  8
31  37  8
32  35  8
33  35  8
36  38  8
37  38  8
8  6  6
18  7  6
$$$$
