515903
  -OEChem-10302200282D
 82 86  0     1  0  0  0  0  0999 V2000
    6.2619   -4.0013    0.0000 O   0  0  0  0  0  0  0  0  0  0  0  0
    6.7485   -2.5279    0.0000 O   0  0  0  0  0  0  0  0  0  0  0  0
    4.6066    0.5499    0.0000 O   0  0  0  0  0  0  0  0  0  0  0  0
    4.0712    3.7401    0.0000 O   0  0  0  0  0  0  0  0  0  0  0  0
    3.5331    2.0938    0.0000 O   0  0  0  0  0  0  0  0  0  0  0  0
    4.9917   -0.6280    0.0000 N   0  0  0  0  0  0  0  0  0  0  0  0
    5.2279    2.4510    0.0000 N   0  0  0  0  0  0  0  0  0  0  0  0
    5.9422   -0.9387    0.0000 C   0  0  1  0  0  0  0  0  0  0  0  0
    4.6783   -3.1966    0.0000 C   0  0  3  0  0  0  0  0  0  0  0  0
    6.2529    0.0118    0.0000 C   0  0  0  0  0  0  0  0  0  0  0  0
    4.9889   -2.2461    0.0000 C   0  0  0  0  0  0  0  0  0  0  0  0
    5.9405   -1.9387    0.0000 C   0  0  0  0  0  0  0  0  0  0  0  0
    5.2619   -4.0013    0.0000 C   0  0  1  0  0  0  0  0  0  0  0  0
    6.9422   -0.9404    0.0000 C   0  0  0  0  0  0  0  0  0  0  0  0
    3.7320   -3.5013    0.0000 C   0  0  0  0  0  0  0  0  0  0  0  0
    5.5851    0.7561    0.0000 C   0  0  1  0  0  0  0  0  0  0  0  0
    4.6783   -4.8060    0.0000 C   0  0  0  0  0  0  0  0  0  0  0  0
    4.4026   -1.4360    0.0000 C   0  0  0  0  0  0  0  0  0  0  0  0
    3.7320   -4.5013    0.0000 C   0  0  0  0  0  0  0  0  0  0  0  0
    5.8957    1.7067    0.0000 C   0  0  2  0  0  0  0  0  0  0  0  0
    7.4438   -0.0753    0.0000 C   0  0  0  0  0  0  0  0  0  0  0  0
    2.8660   -3.0013    0.0000 C   0  0  0  0  0  0  0  0  0  0  0  0
    6.8742    1.9129    0.0000 C   0  0  0  0  0  0  0  0  0  0  0  0
    2.8660   -5.0013    0.0000 C   0  0  0  0  0  0  0  0  0  0  0  0
    2.0000   -3.5013    0.0000 C   0  0  0  0  0  0  0  0  0  0  0  0
    2.0000   -4.5013    0.0000 C   0  0  0  0  0  0  0  0  0  0  0  0
    6.9452    0.7916    0.0000 C   0  0  0  0  0  0  0  0  0  0  0  0
    8.4438   -0.0770    0.0000 C   0  0  0  0  0  0  0  0  0  0  0  0
    7.1849    2.8634    0.0000 C   0  0  0  0  0  0  0  0  0  0  0  0
    4.2774    2.7617    0.0000 C   0  0  0  0  0  0  0  0  0  0  0  0
    7.4468    1.6568    0.0000 C   0  0  0  0  0  0  0  0  0  0  0  0
    8.9452    0.7882    0.0000 C   0  0  0  0  0  0  0  0  0  0  0  0
    8.1634    3.0696    0.0000 C   0  0  0  0  0  0  0  0  0  0  0  0
    6.5171    3.6077    0.0000 C   0  0  0  0  0  0  0  0  0  0  0  0
    8.4467    1.6551    0.0000 C   0  0  0  0  0  0  0  0  0  0  0  0
    3.1206    4.0508    0.0000 C   0  0  0  0  0  0  0  0  0  0  0  0
    8.4741    4.0201    0.0000 C   0  0  0  0  0  0  0  0  0  0  0  0
    6.8277    4.5582    0.0000 C   0  0  0  0  0  0  0  0  0  0  0  0
    7.8062    4.7644    0.0000 C   0  0  0  0  0  0  0  0  0  0  0  0
    2.1701    4.3614    0.0000 C   0  0  0  0  0  0  0  0  0  0  0  0
    3.4313    5.0013    0.0000 C   0  0  0  0  0  0  0  0  0  0  0  0
    2.8100    3.1003    0.0000 C   0  0  0  0  0  0  0  0  0  0  0  0
    5.2908   -3.1004    0.0000 H   0  0  0  0  0  0  0  0  0  0  0  0
    6.7998   -0.2802    0.0000 H   0  0  0  0  0  0  0  0  0  0  0  0
    6.6355    0.4997    0.0000 H   0  0  0  0  0  0  0  0  0  0  0  0
    5.5436   -4.5536    0.0000 H   0  0  0  0  0  0  0  0  0  0  0  0
    6.8335   -1.5508    0.0000 H   0  0  0  0  0  0  0  0  0  0  0  0
    7.5245   -1.1535    0.0000 H   0  0  0  0  0  0  0  0  0  0  0  0
    4.8012   -0.0380    0.0000 H   0  0  0  0  0  0  0  0  0  0  0  0
    5.1710    1.2176    0.0000 H   0  0  0  0  0  0  0  0  0  0  0  0
    4.4272   -5.3730    0.0000 H   0  0  0  0  0  0  0  0  0  0  0  0
    5.2156   -5.1153    0.0000 H   0  0  0  0  0  0  0  0  0  0  0  0
    3.7826   -1.4350    0.0000 H   0  0  0  0  0  0  0  0  0  0  0  0
    6.0884    2.2960    0.0000 H   0  0  0  0  0  0  0  0  0  0  0  0
    2.8660   -2.3813    0.0000 H   0  0  0  0  0  0  0  0  0  0  0  0
    6.8948    1.2932    0.0000 H   0  0  0  0  0  0  0  0  0  0  0  0
    7.4881    1.8255    0.0000 H   0  0  0  0  0  0  0  0  0  0  0  0
    2.8660   -5.6213    0.0000 H   0  0  0  0  0  0  0  0  0  0  0  0
    6.5719   -4.5382    0.0000 H   0  0  0  0  0  0  0  0  0  0  0  0
    5.4205    3.0403    0.0000 H   0  0  0  0  0  0  0  0  0  0  0  0
    4.0172    0.7425    0.0000 H   0  0  0  0  0  0  0  0  0  0  0  0
    1.4631   -3.1913    0.0000 H   0  0  0  0  0  0  0  0  0  0  0  0
    1.4631   -4.8113    0.0000 H   0  0  0  0  0  0  0  0  0  0  0  0
    6.3252    0.7927    0.0000 H   0  0  0  0  0  0  0  0  0  0  0  0
    8.7528   -0.6145    0.0000 H   0  0  0  0  0  0  0  0  0  0  0  0
    7.1377    2.1943    0.0000 H   0  0  0  0  0  0  0  0  0  0  0  0
    9.5652    0.7871    0.0000 H   0  0  0  0  0  0  0  0  0  0  0  0
    8.5775    2.6082    0.0000 H   0  0  0  0  0  0  0  0  0  0  0  0
    5.9104    3.4798    0.0000 H   0  0  0  0  0  0  0  0  0  0  0  0
    8.7577    2.1915    0.0000 H   0  0  0  0  0  0  0  0  0  0  0  0
    9.0807    4.1480    0.0000 H   0  0  0  0  0  0  0  0  0  0  0  0
    6.4137    5.0197    0.0000 H   0  0  0  0  0  0  0  0  0  0  0  0
    7.9988    5.3538    0.0000 H   0  0  0  0  0  0  0  0  0  0  0  0
    2.3627    4.9508    0.0000 H   0  0  0  0  0  0  0  0  0  0  0  0
    1.5808    4.5541    0.0000 H   0  0  0  0  0  0  0  0  0  0  0  0
    1.9775    3.7721    0.0000 H   0  0  0  0  0  0  0  0  0  0  0  0
    4.0206    4.8087    0.0000 H   0  0  0  0  0  0  0  0  0  0  0  0
    3.6239    5.5906    0.0000 H   0  0  0  0  0  0  0  0  0  0  0  0
    2.8420    5.1939    0.0000 H   0  0  0  0  0  0  0  0  0  0  0  0
    2.2207    3.2930    0.0000 H   0  0  0  0  0  0  0  0  0  0  0  0
    2.6174    2.5110    0.0000 H   0  0  0  0  0  0  0  0  0  0  0  0
    3.3993    2.9077    0.0000 H   0  0  0  0  0  0  0  0  0  0  0  0
 13  1  1  6  0  0  0
  1 59  1  0  0  0  0
  2 12  2  0  0  0  0
 16  3  1  6  0  0  0
  3 61  1  0  0  0  0
  4 30  1  0  0  0  0
  4 36  1  0  0  0  0
  5 30  2  0  0  0  0
  6  8  1  0  0  0  0
  6 18  1  0  0  0  0
  6 49  1  0  0  0  0
 20  7  1  1  0  0  0
  7 30  1  0  0  0  0
  7 60  1  0  0  0  0
  8 10  1  1  0  0  0
  8 12  1  0  0  0  0
  8 14  1  0  0  0  0
  9 11  1  0  0  0  0
  9 13  1  0  0  0  0
  9 15  1  0  0  0  0
  9 43  1  0  0  0  0
 10 16  1  0  0  0  0
 10 44  1  0  0  0  0
 10 45  1  0  0  0  0
 11 12  1  0  0  0  0
 11 18  2  0  0  0  0
 13 17  1  0  0  0  0
 13 46  1  0  0  0  0
 14 21  1  0  0  0  0
 14 47  1  0  0  0  0
 14 48  1  0  0  0  0
 15 19  1  0  0  0  0
 15 22  2  0  0  0  0
 16 20  1  0  0  0  0
 16 50  1  0  0  0  0
 17 19  1  0  0  0  0
 17 51  1  0  0  0  0
 17 52  1  0  0  0  0
 18 53  1  0  0  0  0
 19 24  2  0  0  0  0
 20 23  1  0  0  0  0
 20 54  1  0  0  0  0
 21 27  2  0  0  0  0
 21 28  1  0  0  0  0
 22 25  1  0  0  0  0
 22 55  1  0  0  0  0
 23 29  1  0  0  0  0
 23 56  1  0  0  0  0
 23 57  1  0  0  0  0
 24 26  1  0  0  0  0
 24 58  1  0  0  0  0
 25 26  2  0  0  0  0
 25 62  1  0  0  0  0
 26 63  1  0  0  0  0
 27 31  1  0  0  0  0
 27 64  1  0  0  0  0
 28 32  2  0  0  0  0
 28 65  1  0  0  0  0
 29 33  2  0  0  0  0
 29 34  1  0  0  0  0
 31 35  2  0  0  0  0
 31 66  1  0  0  0  0
 32 35  1  0  0  0  0
 32 67  1  0  0  0  0
 33 37  1  0  0  0  0
 33 68  1  0  0  0  0
 34 38  2  0  0  0  0
 34 69  1  0  0  0  0
 35 70  1  0  0  0  0
 36 40  1  0  0  0  0
 36 41  1  0  0  0  0
 36 42  1  0  0  0  0
 37 39  2  0  0  0  0
 37 71  1  0  0  0  0
 38 39  1  0  0  0  0
 38 72  1  0  0  0  0
 39 73  1  0  0  0  0
 40 74  1  0  0  0  0
 40 75  1  0  0  0  0
 40 76  1  0  0  0  0
 41 77  1  0  0  0  0
 41 78  1  0  0  0  0
 41 79  1  0  0  0  0
 42 80  1  0  0  0  0
 42 81  1  0  0  0  0
 42 82  1  0  0  0  0
M  END
> <PUBCHEM_COMPOUND_CID>
515903
> <PUBCHEM_COMPOUND_CANONICALIZED>
1
> <PUBCHEM_CACTVS_COMPLEXITY>
963
> <PUBCHEM_CACTVS_HBOND_ACCEPTOR>
6
> <PUBCHEM_CACTVS_HBOND_DONOR>
4
> <PUBCHEM_CACTVS_ROTATABLE_BOND>
11
> <PUBCHEM_CACTVS_SUBSKEYS>
AAADcfB/OAAAAAAAAAAAAAAAAAAAAYIAAAAwYMAAAAAAAGABUAAAHgAQCAAADfzhmAYyCILABgCIAqBWWAACAAAgAAAIiIGIAMkKMDKAkTGMYAAm1gEYiMea2fOegAAAAAAQAAAAAAAAACAAAYAADAAAAA==
> <PUBCHEM_IUPAC_OPENEYE_NAME>
tert-butyl N-[(1S,2S)-1-benzyl-3-[(2S)-2-benzyl-4-[(2R)-2-hydroxyindan-1-yl]-3-oxo-1H-pyrrol-2-yl]-2-hydroxy-propyl]carbamate
> <PUBCHEM_IUPAC_CAS_NAME>
N-[(2S,3S)-3-hydroxy-4-[(2S)-4-[(2R)-2-hydroxy-2,3-dihydro-1H-inden-1-yl]-3-oxo-2-(phenylmethyl)-1H-pyrrol-2-yl]-1-phenylbutan-2-yl]carbamic acid tert-butyl ester
> <PUBCHEM_IUPAC_NAME_MARKUP>
<I>tert</I>-butyl <I>N</I>-[(2<I>S</I>,3<I>S</I>)-4-[(2<I>S</I>)-2-benzyl-4-[(2<I>R</I>)-2-hydroxy-2,3-dihydro-1<I>H</I>-inden-1-yl]-3-oxo-1<I>H</I>-pyrrol-2-yl]-3-hydroxy-1-phenylbutan-2-yl]carbamate
> <PUBCHEM_IUPAC_NAME>
tert-butyl N-[(2S,3S)-4-[(2S)-2-benzyl-4-[(2R)-2-hydroxy-2,3-dihydro-1H-inden-1-yl]-3-oxo-1H-pyrrol-2-yl]-3-hydroxy-1-phenylbutan-2-yl]carbamate
> <PUBCHEM_IUPAC_SYSTEMATIC_NAME>
tert-butyl N-[(2S,3S)-3-oxidanyl-4-[(2S)-4-[(2R)-2-oxidanyl-2,3-dihydro-1H-inden-1-yl]-3-oxidanylidene-2-(phenylmethyl)-1H-pyrrol-2-yl]-1-phenyl-butan-2-yl]carbamate
> <PUBCHEM_IUPAC_TRADITIONAL_NAME>
N-[(1S,2S)-1-benzyl-3-[(2S)-2-benzyl-4-[(2R)-2-hydroxyindan-1-yl]-3-keto-2-pyrrolin-2-yl]-2-hydroxy-propyl]carbamic acid tert-butyl ester
> <PUBCHEM_IUPAC_INCHI>
InChI=1S/C35H40N2O5/c1-34(2,3)42-33(41)37-28(18-23-12-6-4-7-13-23)30(39)21-35(20-24-14-8-5-9-15-24)32(40)27(22-36-35)31-26-17-11-10-16-25(26)19-29(31)38/h4-17,22,28-31,36,38-39H,18-21H2,1-3H3,(H,37,41)/t28-,29+,30-,31?,35-/m0/s1
> <PUBCHEM_IUPAC_INCHIKEY>
FUGOGHRZNUQWQX-IUWXNETQSA-N
> <PUBCHEM_XLOGP3_AA>
5.5
> <PUBCHEM_EXACT_MASS>
568.29372238
> <PUBCHEM_MOLECULAR_FORMULA>
C35H40N2O5
> <PUBCHEM_MOLECULAR_WEIGHT>
568.7
> <PUBCHEM_OPENEYE_CAN_SMILES>
CC(C)(C)OC(=O)NC(CC1=CC=CC=C1)C(CC2(C(=O)C(=CN2)C3C(CC4=CC=CC=C34)O)CC5=CC=CC=C5)O
> <PUBCHEM_OPENEYE_ISO_SMILES>
CC(C)(C)OC(=O)N[C@@H](CC1=CC=CC=C1)[C@H](C[C@]2(C(=O)C(=CN2)C3[C@@H](CC4=CC=CC=C34)O)CC5=CC=CC=C5)O
> <PUBCHEM_CACTVS_TPSA>
108
> <PUBCHEM_MONOISOTOPIC_WEIGHT>
568.29372238
> <PUBCHEM_TOTAL_CHARGE>
0
> <PUBCHEM_HEAVY_ATOM_COUNT>
42
> <PUBCHEM_ATOM_DEF_STEREO_COUNT>
4
> <PUBCHEM_ATOM_UDEF_STEREO_COUNT>
1
> <PUBCHEM_BOND_DEF_STEREO_COUNT>
0
> <PUBCHEM_BOND_UDEF_STEREO_COUNT>
0
> <PUBCHEM_ISOTOPIC_ATOM_COUNT>
0
> <PUBCHEM_COMPONENT_COUNT>
1
> <PUBCHEM_CACTVS_TAUTO_COUNT>
-1
> <PUBCHEM_COORDINATE_TYPE>
1
5
255
> <PUBCHEM_BONDANNOTATIONS>
13  1  6
15  19  8
15  22  8
19  24  8
21  27  8
21  28  8
22  25  8
24  26  8
25  26  8
27  31  8
28  32  8
29  33  8
29  34  8
16  3  6
31  35  8
32  35  8
33  37  8
34  38  8
37  39  8
38  39  8
20  7  5
8  10  5
9  11  3
$$$$
