515901
  -OEChem-10302200282D
101105  0     1  0  0  0  0  0999 V2000
    7.2641    3.8516    0.0000 O   0  0  0  0  0  0  0  0  0  0  0  0
    5.5321    0.8516    0.0000 O   0  0  0  0  0  0  0  0  0  0  0  0
    5.5321   -0.1484    0.0000 O   0  0  0  0  0  0  0  0  0  0  0  0
    6.3981   -3.6484    0.0000 O   0  0  0  0  0  0  0  0  0  0  0  0
    4.6660   -4.6484    0.0000 O   0  0  0  0  0  0  0  0  0  0  0  0
    2.0680   -3.1484    0.0000 O   0  0  0  0  0  0  0  0  0  0  0  0
    5.5321    2.8516    0.0000 N   0  0  3  0  0  0  0  0  0  0  0  0
    6.3981    5.3516    0.0000 N   0  0  0  0  0  0  0  0  0  0  0  0
    7.2641   -0.1484    0.0000 N   0  0  0  0  0  0  0  0  0  0  0  0
    5.5321   -2.1484    0.0000 N   0  0  0  0  0  0  0  0  0  0  0  0
    3.8000    3.8516    0.0000 C   0  0  2  0  0  0  0  0  0  0  0  0
    3.8000    2.8516    0.0000 C   0  0  1  0  0  0  0  0  0  0  0  0
    4.6660    4.3516    0.0000 C   0  0  0  0  0  0  0  0  0  0  0  0
    4.6660    2.3516    0.0000 C   0  0  0  0  0  0  0  0  0  0  0  0
    2.9061    4.3863    0.0000 C   0  0  0  0  0  0  0  0  0  0  0  0
    2.9061    2.3170    0.0000 C   0  0  0  0  0  0  0  0  0  0  0  0
    5.5321    3.8516    0.0000 C   0  0  1  0  0  0  0  0  0  0  0  0
    2.0000    3.8724    0.0000 C   0  0  0  0  0  0  0  0  0  0  0  0
    2.0000    2.8308    0.0000 C   0  0  0  0  0  0  0  0  0  0  0  0
    6.3981    2.3516    0.0000 C   0  0  0  0  0  0  0  0  0  0  0  0
    6.3981    4.3516    0.0000 C   0  0  0  0  0  0  0  0  0  0  0  0
    6.3981    1.3516    0.0000 C   0  0  2  0  0  0  0  0  0  0  0  0
    7.2641    0.8516    0.0000 C   0  0  2  0  0  0  0  0  0  0  0  0
    7.2641    5.8516    0.0000 C   0  0  0  0  0  0  0  0  0  0  0  0
    8.1301    1.3516    0.0000 C   0  0  0  0  0  0  0  0  0  0  0  0
    8.1301    6.3516    0.0000 C   0  0  0  0  0  0  0  0  0  0  0  0
    6.7641    6.7176    0.0000 C   0  0  0  0  0  0  0  0  0  0  0  0
    7.7641    4.9856    0.0000 C   0  0  0  0  0  0  0  0  0  0  0  0
    8.9962    0.8516    0.0000 C   0  0  0  0  0  0  0  0  0  0  0  0
    6.3981   -0.6484    0.0000 C   0  0  0  0  0  0  0  0  0  0  0  0
    6.3981   -1.6484    0.0000 C   0  0  2  0  0  0  0  0  0  0  0  0
    9.8622    1.3516    0.0000 C   0  0  0  0  0  0  0  0  0  0  0  0
    8.9962   -0.1484    0.0000 C   0  0  0  0  0  0  0  0  0  0  0  0
    7.2641   -2.1484    0.0000 C   0  0  0  0  0  0  0  0  0  0  0  0
   10.7282    0.8516    0.0000 C   0  0  0  0  0  0  0  0  0  0  0  0
    9.8622   -0.6484    0.0000 C   0  0  0  0  0  0  0  0  0  0  0  0
    7.2641   -3.1484    0.0000 C   0  0  0  0  0  0  0  0  0  0  0  0
    8.1301   -1.6484    0.0000 C   0  0  0  0  0  0  0  0  0  0  0  0
   10.7282   -0.1484    0.0000 C   0  0  0  0  0  0  0  0  0  0  0  0
    5.5321   -3.1484    0.0000 C   0  0  0  0  0  0  0  0  0  0  0  0
    4.6660   -3.6484    0.0000 C   0  0  0  0  0  0  0  0  0  0  0  0
    3.8000   -3.1484    0.0000 C   0  0  0  0  0  0  0  0  0  0  0  0
    3.8000   -5.1484    0.0000 C   0  0  0  0  0  0  0  0  0  0  0  0
    2.9340   -3.6484    0.0000 C   0  0  0  0  0  0  0  0  0  0  0  0
    2.9340   -4.6484    0.0000 C   0  0  0  0  0  0  0  0  0  0  0  0
    3.8161   -6.1899    0.0000 C   0  0  0  0  0  0  0  0  0  0  0  0
    2.0240   -5.1552    0.0000 C   0  0  0  0  0  0  0  0  0  0  0  0
    2.9180   -6.7176    0.0000 C   0  0  0  0  0  0  0  0  0  0  0  0
    2.0160   -6.1968    0.0000 C   0  0  0  0  0  0  0  0  0  0  0  0
    3.8066    4.7016    0.0000 H   0  0  0  0  0  0  0  0  0  0  0  0
    3.8066    2.0016    0.0000 H   0  0  0  0  0  0  0  0  0  0  0  0
    5.0646    4.8266    0.0000 H   0  0  0  0  0  0  0  0  0  0  0  0
    4.2675    4.8266    0.0000 H   0  0  0  0  0  0  0  0  0  0  0  0
    4.2675    1.8767    0.0000 H   0  0  0  0  0  0  0  0  0  0  0  0
    5.0646    1.8767    0.0000 H   0  0  0  0  0  0  0  0  0  0  0  0
    3.3107    4.8561    0.0000 H   0  0  0  0  0  0  0  0  0  0  0  0
    2.5124    4.8653    0.0000 H   0  0  0  0  0  0  0  0  0  0  0  0
    2.5124    1.8379    0.0000 H   0  0  0  0  0  0  0  0  0  0  0  0
    3.3107    1.8472    0.0000 H   0  0  0  0  0  0  0  0  0  0  0  0
    6.0690    3.5416    0.0000 H   0  0  0  0  0  0  0  0  0  0  0  0
    1.7909    4.4561    0.0000 H   0  0  0  0  0  0  0  0  0  0  0  0
    1.3891    3.7663    0.0000 H   0  0  0  0  0  0  0  0  0  0  0  0
    1.3891    2.9369    0.0000 H   0  0  0  0  0  0  0  0  0  0  0  0
    1.7909    2.2471    0.0000 H   0  0  0  0  0  0  0  0  0  0  0  0
    7.0087    2.2440    0.0000 H   0  0  0  0  0  0  0  0  0  0  0  0
    6.6101    2.9342    0.0000 H   0  0  0  0  0  0  0  0  0  0  0  0
    6.3981    0.7316    0.0000 H   0  0  0  0  0  0  0  0  0  0  0  0
    7.8010    0.5416    0.0000 H   0  0  0  0  0  0  0  0  0  0  0  0
    5.8612    5.6616    0.0000 H   0  0  0  0  0  0  0  0  0  0  0  0
    8.5287    1.8266    0.0000 H   0  0  0  0  0  0  0  0  0  0  0  0
    7.7316    1.8266    0.0000 H   0  0  0  0  0  0  0  0  0  0  0  0
    4.9951    1.1616    0.0000 H   0  0  0  0  0  0  0  0  0  0  0  0
    7.8010   -0.4584    0.0000 H   0  0  0  0  0  0  0  0  0  0  0  0
    8.4401    5.8147    0.0000 H   0  0  0  0  0  0  0  0  0  0  0  0
    8.6671    6.6616    0.0000 H   0  0  0  0  0  0  0  0  0  0  0  0
    7.8201    6.8886    0.0000 H   0  0  0  0  0  0  0  0  0  0  0  0
    7.3010    7.0276    0.0000 H   0  0  0  0  0  0  0  0  0  0  0  0
    6.4541    7.2546    0.0000 H   0  0  0  0  0  0  0  0  0  0  0  0
    6.2272    6.4076    0.0000 H   0  0  0  0  0  0  0  0  0  0  0  0
    7.2272    4.6756    0.0000 H   0  0  0  0  0  0  0  0  0  0  0  0
    8.0741    4.4487    0.0000 H   0  0  0  0  0  0  0  0  0  0  0  0
    8.3010    5.2956    0.0000 H   0  0  0  0  0  0  0  0  0  0  0  0
    6.3981   -2.2684    0.0000 H   0  0  0  0  0  0  0  0  0  0  0  0
    9.8622    1.9716    0.0000 H   0  0  0  0  0  0  0  0  0  0  0  0
    8.4592   -0.4584    0.0000 H   0  0  0  0  0  0  0  0  0  0  0  0
    7.8010   -2.4584    0.0000 H   0  0  0  0  0  0  0  0  0  0  0  0
    4.9951   -1.8384    0.0000 H   0  0  0  0  0  0  0  0  0  0  0  0
   11.2651    1.1616    0.0000 H   0  0  0  0  0  0  0  0  0  0  0  0
    9.8622   -1.2684    0.0000 H   0  0  0  0  0  0  0  0  0  0  0  0
    6.6441   -3.1484    0.0000 H   0  0  0  0  0  0  0  0  0  0  0  0
    7.2641   -3.7684    0.0000 H   0  0  0  0  0  0  0  0  0  0  0  0
    7.8841   -3.1484    0.0000 H   0  0  0  0  0  0  0  0  0  0  0  0
    8.4401   -2.1853    0.0000 H   0  0  0  0  0  0  0  0  0  0  0  0
    8.6671   -1.3384    0.0000 H   0  0  0  0  0  0  0  0  0  0  0  0
    7.8201   -1.1114    0.0000 H   0  0  0  0  0  0  0  0  0  0  0  0
   11.2651   -0.4584    0.0000 H   0  0  0  0  0  0  0  0  0  0  0  0
    3.8000   -2.5284    0.0000 H   0  0  0  0  0  0  0  0  0  0  0  0
    4.3566   -6.4937    0.0000 H   0  0  0  0  0  0  0  0  0  0  0  0
    1.4907   -4.8390    0.0000 H   0  0  0  0  0  0  0  0  0  0  0  0
    2.9204   -7.3376    0.0000 H   0  0  0  0  0  0  0  0  0  0  0  0
    1.4778   -6.5048    0.0000 H   0  0  0  0  0  0  0  0  0  0  0  0
  1 21  2  0  0  0  0
 22  2  1  6  0  0  0
  2 72  1  0  0  0  0
  3 30  2  0  0  0  0
  4 40  2  0  0  0  0
  5 41  1  0  0  0  0
  5 43  1  0  0  0  0
  6 44  2  0  0  0  0
  7 14  1  0  0  0  0
  7 17  1  0  0  0  0
  7 20  1  0  0  0  0
  8 21  1  0  0  0  0
  8 24  1  0  0  0  0
  8 69  1  0  0  0  0
 23  9  1  6  0  0  0
  9 30  1  0  0  0  0
  9 73  1  0  0  0  0
 31 10  1  6  0  0  0
 10 40  1  0  0  0  0
 10 87  1  0  0  0  0
 11 12  1  0  0  0  0
 11 13  1  0  0  0  0
 11 15  1  0  0  0  0
 11 50  1  6  0  0  0
 12 14  1  0  0  0  0
 12 16  1  0  0  0  0
 12 51  1  6  0  0  0
 13 17  1  0  0  0  0
 13 52  1  0  0  0  0
 13 53  1  0  0  0  0
 14 54  1  0  0  0  0
 14 55  1  0  0  0  0
 15 18  1  0  0  0  0
 15 56  1  0  0  0  0
 15 57  1  0  0  0  0
 16 19  1  0  0  0  0
 16 58  1  0  0  0  0
 16 59  1  0  0  0  0
 17 21  1  1  0  0  0
 17 60  1  0  0  0  0
 18 19  1  0  0  0  0
 18 61  1  0  0  0  0
 18 62  1  0  0  0  0
 19 63  1  0  0  0  0
 19 64  1  0  0  0  0
 20 22  1  0  0  0  0
 20 65  1  0  0  0  0
 20 66  1  0  0  0  0
 22 23  1  0  0  0  0
 22 67  1  0  0  0  0
 23 25  1  0  0  0  0
 23 68  1  0  0  0  0
 24 26  1  0  0  0  0
 24 27  1  0  0  0  0
 24 28  1  0  0  0  0
 25 29  1  0  0  0  0
 25 70  1  0  0  0  0
 25 71  1  0  0  0  0
 26 74  1  0  0  0  0
 26 75  1  0  0  0  0
 26 76  1  0  0  0  0
 27 77  1  0  0  0  0
 27 78  1  0  0  0  0
 27 79  1  0  0  0  0
 28 80  1  0  0  0  0
 28 81  1  0  0  0  0
 28 82  1  0  0  0  0
 29 32  2  0  0  0  0
 29 33  1  0  0  0  0
 30 31  1  0  0  0  0
 31 34  1  0  0  0  0
 31 83  1  0  0  0  0
 32 35  1  0  0  0  0
 32 84  1  0  0  0  0
 33 36  2  0  0  0  0
 33 85  1  0  0  0  0
 34 37  1  0  0  0  0
 34 38  1  0  0  0  0
 34 86  1  0  0  0  0
 35 39  2  0  0  0  0
 35 88  1  0  0  0  0
 36 39  1  0  0  0  0
 36 89  1  0  0  0  0
 37 90  1  0  0  0  0
 37 91  1  0  0  0  0
 37 92  1  0  0  0  0
 38 93  1  0  0  0  0
 38 94  1  0  0  0  0
 38 95  1  0  0  0  0
 39 96  1  0  0  0  0
 40 41  1  0  0  0  0
 41 42  2  0  0  0  0
 42 44  1  0  0  0  0
 42 97  1  0  0  0  0
 43 45  1  0  0  0  0
 43 46  2  0  0  0  0
 44 45  1  0  0  0  0
 45 47  2  0  0  0  0
 46 48  1  0  0  0  0
 46 98  1  0  0  0  0
 47 49  1  0  0  0  0
 47 99  1  0  0  0  0
 48 49  2  0  0  0  0
 48100  1  0  0  0  0
 49101  1  0  0  0  0
M  END
> <PUBCHEM_COMPOUND_CID>
515901
> <PUBCHEM_COMPOUND_CANONICALIZED>
1
> <PUBCHEM_CACTVS_COMPLEXITY>
1210
> <PUBCHEM_CACTVS_HBOND_ACCEPTOR>
7
> <PUBCHEM_CACTVS_HBOND_DONOR>
4
> <PUBCHEM_CACTVS_ROTATABLE_BOND>
12
> <PUBCHEM_CACTVS_SUBSKEYS>
AAADcfB/uAAAAAAAAAAAAAAAAAAAAAAAAAA8YMECAAAAAACxQAAAHgAQCAAADbzhmAYyBoPABgCIAqFSEAKCCAAkIAAIiIHOCMgOdjaE9T+XeWCk9hGYqYeYyKCOgAAAAAAIAAAAAAAAADAAAAAAAAAAAA==
> <PUBCHEM_IUPAC_OPENEYE_NAME>
(3S,4aS,8aS)-N-tert-butyl-2-[(2R,3S)-2-hydroxy-3-[[(2S)-3-methyl-2-[(4-oxochromene-2-carbonyl)amino]butanoyl]amino]-4-phenyl-butyl]-3,4,4a,5,6,7,8,8a-octahydro-1H-isoquinoline-3-carboxamide
> <PUBCHEM_IUPAC_CAS_NAME>
(3S,4aS,8aS)-N-tert-butyl-2-[(2R,3S)-2-hydroxy-3-[[(2S)-3-methyl-1-oxo-2-[[oxo-(4-oxo-1-benzopyran-2-yl)methyl]amino]butyl]amino]-4-phenylbutyl]-3,4,4a,5,6,7,8,8a-octahydro-1H-isoquinoline-3-carboxamide
> <PUBCHEM_IUPAC_NAME_MARKUP>
(3<I>S</I>,4<I>a</I><I>S</I>,8<I>a</I><I>S</I>)-<I>N</I>-<I>tert</I>-butyl-2-[(2<I>R</I>,3<I>S</I>)-2-hydroxy-3-[[(2<I>S</I>)-3-methyl-2-[(4-oxochromene-2-carbonyl)amino]butanoyl]amino]-4-phenylbutyl]-3,4,4<I>a</I>,5,6,7,8,8<I>a</I>-octahydro-1<I>H</I>-isoquinoline-3-carboxamide
> <PUBCHEM_IUPAC_NAME>
(3S,4aS,8aS)-N-tert-butyl-2-[(2R,3S)-2-hydroxy-3-[[(2S)-3-methyl-2-[(4-oxochromene-2-carbonyl)amino]butanoyl]amino]-4-phenylbutyl]-3,4,4a,5,6,7,8,8a-octahydro-1H-isoquinoline-3-carboxamide
> <PUBCHEM_IUPAC_SYSTEMATIC_NAME>
(3S,4aS,8aS)-N-tert-butyl-2-[(2R,3S)-3-[[(2S)-3-methyl-2-[(4-oxidanylidenechromen-2-yl)carbonylamino]butanoyl]amino]-2-oxidanyl-4-phenyl-butyl]-3,4,4a,5,6,7,8,8a-octahydro-1H-isoquinoline-3-carboxamide
> <PUBCHEM_IUPAC_TRADITIONAL_NAME>
(3S,4aS,8aS)-N-tert-butyl-2-[(2R,3S)-2-hydroxy-3-[[(2S)-2-[(4-ketochromene-2-carbonyl)amino]-3-methyl-butanoyl]amino]-4-phenyl-butyl]-3,4,4a,5,6,7,8,8a-octahydro-1H-isoquinoline-3-carboxamide
> <PUBCHEM_IUPAC_INCHI>
InChI=1S/C39H52N4O6/c1-24(2)35(41-37(47)34-21-31(44)28-17-11-12-18-33(28)49-34)38(48)40-29(19-25-13-7-6-8-14-25)32(45)23-43-22-27-16-10-9-15-26(27)20-30(43)36(46)42-39(3,4)5/h6-8,11-14,17-18,21,24,26-27,29-30,32,35,45H,9-10,15-16,19-20,22-23H2,1-5H3,(H,40,48)(H,41,47)(H,42,46)/t26-,27+,29-,30-,32+,35-/m0/s1
> <PUBCHEM_IUPAC_INCHIKEY>
KECQKQUDKBXADS-YYOAKOJNSA-N
> <PUBCHEM_XLOGP3_AA>
5.9
> <PUBCHEM_EXACT_MASS>
672.38868539
> <PUBCHEM_MOLECULAR_FORMULA>
C39H52N4O6
> <PUBCHEM_MOLECULAR_WEIGHT>
672.9
> <PUBCHEM_OPENEYE_CAN_SMILES>
CC(C)C(C(=O)NC(CC1=CC=CC=C1)C(CN2CC3CCCCC3CC2C(=O)NC(C)(C)C)O)NC(=O)C4=CC(=O)C5=CC=CC=C5O4
> <PUBCHEM_OPENEYE_ISO_SMILES>
CC(C)[C@@H](C(=O)N[C@@H](CC1=CC=CC=C1)[C@@H](CN2C[C@H]3CCCC[C@H]3C[C@H]2C(=O)NC(C)(C)C)O)NC(=O)C4=CC(=O)C5=CC=CC=C5O4
> <PUBCHEM_CACTVS_TPSA>
137
> <PUBCHEM_MONOISOTOPIC_WEIGHT>
672.38868539
> <PUBCHEM_TOTAL_CHARGE>
0
> <PUBCHEM_HEAVY_ATOM_COUNT>
49
> <PUBCHEM_ATOM_DEF_STEREO_COUNT>
6
> <PUBCHEM_ATOM_UDEF_STEREO_COUNT>
0
> <PUBCHEM_BOND_DEF_STEREO_COUNT>
0
> <PUBCHEM_BOND_UDEF_STEREO_COUNT>
0
> <PUBCHEM_ISOTOPIC_ATOM_COUNT>
0
> <PUBCHEM_COMPONENT_COUNT>
1
> <PUBCHEM_CACTVS_TAUTO_COUNT>
-1
> <PUBCHEM_COORDINATE_TYPE>
1
5
255
> <PUBCHEM_BONDANNOTATIONS>
31  10  6
11  50  6
12  51  6
17  21  5
22  2  6
29  32  8
29  33  8
32  35  8
33  36  8
35  39  8
36  39  8
41  42  8
42  44  8
43  45  8
43  46  8
44  45  8
45  47  8
46  48  8
47  49  8
48  49  8
5  41  8
5  43  8
23  9  6
$$$$
