515922
  -OEChem-10302200282D
 40 41  0     1  0  0  0  0  0999 V2000
    6.0010   -2.7694    0.0000 Cl  0  0  0  0  0  0  0  0  0  0  0  0
    4.2690    0.2306    0.0000 S   0  0  0  0  0  0  0  0  0  0  0  0
    6.7722    2.1785    0.0000 O   0  0  0  0  0  0  0  0  0  0  0  0
    5.2690    0.2306    0.0000 O   0  0  0  0  0  0  0  0  0  0  0  0
    3.2690    0.2306    0.0000 O   0  0  0  0  0  0  0  0  0  0  0  0
    6.2370    0.5312    0.0000 O   0  0  0  0  0  0  0  0  0  0  0  0
    4.2690    1.2306    0.0000 N   0  0  0  0  0  0  0  0  0  0  0  0
    2.5369   -0.7694    0.0000 N   0  0  0  0  0  0  0  0  0  0  0  0
    5.0780    1.8184    0.0000 C   0  0  0  0  0  0  0  0  0  0  0  0
    7.7233    1.8695    0.0000 C   0  0  3  0  0  0  0  0  0  0  0  0
    4.2690   -0.7694    0.0000 C   0  0  0  0  0  0  0  0  0  0  0  0
    8.4664    2.5386    0.0000 C   0  0  0  0  0  0  0  0  0  0  0  0
    3.4600    1.8184    0.0000 C   0  0  0  0  0  0  0  0  0  0  0  0
    4.7690    2.7694    0.0000 C   0  0  0  0  0  0  0  0  0  0  0  0
    6.0291    1.5094    0.0000 C   0  0  0  0  0  0  0  0  0  0  0  0
    3.4030   -1.2694    0.0000 C   0  0  0  0  0  0  0  0  0  0  0  0
    3.7690    2.7694    0.0000 C   0  0  0  0  0  0  0  0  0  0  0  0
    7.9312    0.8913    0.0000 C   0  0  0  0  0  0  0  0  0  0  0  0
    5.1350   -1.2694    0.0000 C   0  0  0  0  0  0  0  0  0  0  0  0
    9.4175    2.2296    0.0000 C   0  0  0  0  0  0  0  0  0  0  0  0
    3.4030   -2.2694    0.0000 C   0  0  0  0  0  0  0  0  0  0  0  0
    5.1350   -2.2694    0.0000 C   0  0  0  0  0  0  0  0  0  0  0  0
    4.2690   -2.7694    0.0000 C   0  0  0  0  0  0  0  0  0  0  0  0
    7.2625    1.4546    0.0000 H   0  0  0  0  0  0  0  0  0  0  0  0
    8.7575    3.0860    0.0000 H   0  0  0  0  0  0  0  0  0  0  0  0
    7.9778    2.9203    0.0000 H   0  0  0  0  0  0  0  0  0  0  0  0
    2.8703    1.6268    0.0000 H   0  0  0  0  0  0  0  0  0  0  0  0
    5.1334    3.2710    0.0000 H   0  0  0  0  0  0  0  0  0  0  0  0
    3.4046    3.2710    0.0000 H   0  0  0  0  0  0  0  0  0  0  0  0
    7.3247    0.7624    0.0000 H   0  0  0  0  0  0  0  0  0  0  0  0
    8.0601    0.2849    0.0000 H   0  0  0  0  0  0  0  0  0  0  0  0
    8.5376    1.0202    0.0000 H   0  0  0  0  0  0  0  0  0  0  0  0
    5.6720   -0.9594    0.0000 H   0  0  0  0  0  0  0  0  0  0  0  0
    9.2259    1.6399    0.0000 H   0  0  0  0  0  0  0  0  0  0  0  0
   10.0071    2.0380    0.0000 H   0  0  0  0  0  0  0  0  0  0  0  0
    9.6090    2.8192    0.0000 H   0  0  0  0  0  0  0  0  0  0  0  0
    2.8660   -2.5794    0.0000 H   0  0  0  0  0  0  0  0  0  0  0  0
    4.2690   -3.3894    0.0000 H   0  0  0  0  0  0  0  0  0  0  0  0
    2.0000   -1.0794    0.0000 H   0  0  0  0  0  0  0  0  0  0  0  0
    2.5369   -0.1494    0.0000 H   0  0  0  0  0  0  0  0  0  0  0  0
  1 22  1  0  0  0  0
  2  4  2  0  0  0  0
  2  5  2  0  0  0  0
  2  7  1  0  0  0  0
  2 11  1  0  0  0  0
  3 10  1  0  0  0  0
  3 15  1  0  0  0  0
  6 15  2  0  0  0  0
  7  9  1  0  0  0  0
  7 13  1  0  0  0  0
  8 16  1  0  0  0  0
  8 39  1  0  0  0  0
  8 40  1  0  0  0  0
  9 14  2  0  0  0  0
  9 15  1  0  0  0  0
 10 12  1  0  0  0  0
 10 18  1  0  0  0  0
 10 24  1  0  0  0  0
 11 16  2  0  0  0  0
 11 19  1  0  0  0  0
 12 20  1  0  0  0  0
 12 25  1  0  0  0  0
 12 26  1  0  0  0  0
 13 17  2  0  0  0  0
 13 27  1  0  0  0  0
 14 17  1  0  0  0  0
 14 28  1  0  0  0  0
 16 21  1  0  0  0  0
 17 29  1  0  0  0  0
 18 30  1  0  0  0  0
 18 31  1  0  0  0  0
 18 32  1  0  0  0  0
 19 22  2  0  0  0  0
 19 33  1  0  0  0  0
 20 34  1  0  0  0  0
 20 35  1  0  0  0  0
 20 36  1  0  0  0  0
 21 23  2  0  0  0  0
 21 37  1  0  0  0  0
 22 23  1  0  0  0  0
 23 38  1  0  0  0  0
M  END
> <PUBCHEM_COMPOUND_CID>
515922
> <PUBCHEM_COMPOUND_CANONICALIZED>
1
> <PUBCHEM_CACTVS_COMPLEXITY>
522
> <PUBCHEM_CACTVS_HBOND_ACCEPTOR>
5
> <PUBCHEM_CACTVS_HBOND_DONOR>
1
> <PUBCHEM_CACTVS_ROTATABLE_BOND>
6
> <PUBCHEM_CACTVS_SUBSKEYS>
AAADceBzOABEAAAAAAAAAAAAAAAAAWAAAAAwAAAAAAAAAAABwAAAHgYQQAAACB7h1iY+yZJIFAKoATT3THTCgDA3ByAI2D24btgKJvLBt7mHMQhk0AHY6YeYEQAAAABAABAAAQAAAIAAIAACAAAAAAAAAA==
> <PUBCHEM_IUPAC_OPENEYE_NAME>
sec-butyl 1-(2-amino-5-chloro-phenyl)sulfonylpyrrole-2-carboxylate
> <PUBCHEM_IUPAC_CAS_NAME>
1-(2-amino-5-chlorophenyl)sulfonyl-2-pyrrolecarboxylic acid butan-2-yl ester
> <PUBCHEM_IUPAC_NAME_MARKUP>
butan-2-yl 1-(2-amino-5-chlorophenyl)sulfonylpyrrole-2-carboxylate
> <PUBCHEM_IUPAC_NAME>
butan-2-yl 1-(2-amino-5-chlorophenyl)sulfonylpyrrole-2-carboxylate
> <PUBCHEM_IUPAC_SYSTEMATIC_NAME>
butan-2-yl 1-(2-azanyl-5-chloranyl-phenyl)sulfonylpyrrole-2-carboxylate
> <PUBCHEM_IUPAC_TRADITIONAL_NAME>
1-(2-amino-5-chloro-phenyl)sulfonylpyrrole-2-carboxylic acid sec-butyl ester
> <PUBCHEM_IUPAC_INCHI>
InChI=1S/C15H17ClN2O4S/c1-3-10(2)22-15(19)13-5-4-8-18(13)23(20,21)14-9-11(16)6-7-12(14)17/h4-10H,3,17H2,1-2H3
> <PUBCHEM_IUPAC_INCHIKEY>
AQWZKOZPZGBOPF-UHFFFAOYSA-N
> <PUBCHEM_XLOGP3_AA>
3.9
> <PUBCHEM_EXACT_MASS>
356.0597559
> <PUBCHEM_MOLECULAR_FORMULA>
C15H17ClN2O4S
> <PUBCHEM_MOLECULAR_WEIGHT>
356.8
> <PUBCHEM_OPENEYE_CAN_SMILES>
CCC(C)OC(=O)C1=CC=CN1S(=O)(=O)C2=C(C=CC(=C2)Cl)N
> <PUBCHEM_OPENEYE_ISO_SMILES>
CCC(C)OC(=O)C1=CC=CN1S(=O)(=O)C2=C(C=CC(=C2)Cl)N
> <PUBCHEM_CACTVS_TPSA>
99.8
> <PUBCHEM_MONOISOTOPIC_WEIGHT>
356.0597559
> <PUBCHEM_TOTAL_CHARGE>
0
> <PUBCHEM_HEAVY_ATOM_COUNT>
23
> <PUBCHEM_ATOM_DEF_STEREO_COUNT>
0
> <PUBCHEM_ATOM_UDEF_STEREO_COUNT>
1
> <PUBCHEM_BOND_DEF_STEREO_COUNT>
0
> <PUBCHEM_BOND_UDEF_STEREO_COUNT>
0
> <PUBCHEM_ISOTOPIC_ATOM_COUNT>
0
> <PUBCHEM_COMPONENT_COUNT>
1
> <PUBCHEM_CACTVS_TAUTO_COUNT>
-1
> <PUBCHEM_COORDINATE_TYPE>
1
5
255
> <PUBCHEM_BONDANNOTATIONS>
10  18  3
11  16  8
11  19  8
13  17  8
14  17  8
16  21  8
19  22  8
21  23  8
22  23  8
7  13  8
7  9  8
9  14  8
$$$$
