515904
  -OEChem-10302200282D
 83 86  0     1  0  0  0  0  0999 V2000
    4.9820    0.5930    0.0000 O   0  0  0  0  0  0  0  0  0  0  0  0
    6.3015   -3.8076    0.0000 O   0  0  0  0  0  0  0  0  0  0  0  0
    6.6749   -2.5904    0.0000 O   0  0  0  0  0  0  0  0  0  0  0  0
    3.9570    3.0322    0.0000 O   0  0  0  0  0  0  0  0  0  0  0  0
    4.3142    1.3373    0.0000 O   0  0  0  0  0  0  0  0  0  0  0  0
    5.0286   -2.0523    0.0000 N   0  0  0  0  0  0  0  0  0  0  0  0
    5.6034    2.4941    0.0000 N   0  0  0  0  0  0  0  0  0  0  0  0
    6.3177   -0.8956    0.0000 C   0  0  1  0  0  0  0  0  0  0  0  0
    6.6284    0.0550    0.0000 C   0  0  0  0  0  0  0  0  0  0  0  0
    4.7179   -3.0028    0.0000 C   0  0  2  0  0  0  0  0  0  0  0  0
    5.9605    0.7993    0.0000 C   0  0  1  0  0  0  0  0  0  0  0  0
    5.3015   -3.8076    0.0000 C   0  0  1  0  0  0  0  0  0  0  0  0
    7.2682   -1.2062    0.0000 C   0  0  0  0  0  0  0  0  0  0  0  0
    6.0071   -1.8461    0.0000 C   0  0  0  0  0  0  0  0  0  0  0  0
    6.2712    1.7498    0.0000 C   0  0  2  0  0  0  0  0  0  0  0  0
    3.7717   -3.3076    0.0000 C   0  0  0  0  0  0  0  0  0  0  0  0
    4.7179   -4.6123    0.0000 C   0  0  0  0  0  0  0  0  0  0  0  0
    5.3672   -0.5849    0.0000 C   0  0  0  0  0  0  0  0  0  0  0  0
    3.7717   -4.3076    0.0000 C   0  0  0  0  0  0  0  0  0  0  0  0
    7.2497    1.9560    0.0000 C   0  0  0  0  0  0  0  0  0  0  0  0
    8.0125   -0.5384    0.0000 C   0  0  0  0  0  0  0  0  0  0  0  0
    2.9056   -2.8076    0.0000 C   0  0  0  0  0  0  0  0  0  0  0  0
    2.9056   -4.8076    0.0000 C   0  0  0  0  0  0  0  0  0  0  0  0
    7.5604    2.9065    0.0000 C   0  0  0  0  0  0  0  0  0  0  0  0
    2.0396   -3.3076    0.0000 C   0  0  0  0  0  0  0  0  0  0  0  0
    2.0396   -4.3076    0.0000 C   0  0  0  0  0  0  0  0  0  0  0  0
    8.9631   -0.8490    0.0000 C   0  0  0  0  0  0  0  0  0  0  0  0
    7.8063    0.4401    0.0000 C   0  0  0  0  0  0  0  0  0  0  0  0
    4.6249    2.2879    0.0000 C   0  0  0  0  0  0  0  0  0  0  0  0
    9.7074   -0.1812    0.0000 C   0  0  0  0  0  0  0  0  0  0  0  0
    8.5506    1.1080    0.0000 C   0  0  0  0  0  0  0  0  0  0  0  0
    6.8925    3.6508    0.0000 C   0  0  0  0  0  0  0  0  0  0  0  0
    8.5389    3.1127    0.0000 C   0  0  0  0  0  0  0  0  0  0  0  0
    9.5012    0.7973    0.0000 C   0  0  0  0  0  0  0  0  0  0  0  0
    2.9785    2.8259    0.0000 C   0  0  0  0  0  0  0  0  0  0  0  0
    7.2032    4.6013    0.0000 C   0  0  0  0  0  0  0  0  0  0  0  0
    8.8495    4.0633    0.0000 C   0  0  0  0  0  0  0  0  0  0  0  0
    8.1817    4.8076    0.0000 C   0  0  0  0  0  0  0  0  0  0  0  0
    2.0000    2.6197    0.0000 C   0  0  0  0  0  0  0  0  0  0  0  0
    2.7723    3.8044    0.0000 C   0  0  0  0  0  0  0  0  0  0  0  0
    3.1847    1.8474    0.0000 C   0  0  0  0  0  0  0  0  0  0  0  0
    7.1753   -0.2371    0.0000 H   0  0  0  0  0  0  0  0  0  0  0  0
    7.0109    0.5429    0.0000 H   0  0  0  0  0  0  0  0  0  0  0  0
    5.3304   -2.9066    0.0000 H   0  0  0  0  0  0  0  0  0  0  0  0
    5.7679    0.2099    0.0000 H   0  0  0  0  0  0  0  0  0  0  0  0
    5.5832   -3.2553    0.0000 H   0  0  0  0  0  0  0  0  0  0  0  0
    6.9762   -1.7532    0.0000 H   0  0  0  0  0  0  0  0  0  0  0  0
    7.7562   -1.5888    0.0000 H   0  0  0  0  0  0  0  0  0  0  0  0
    5.6645    1.6219    0.0000 H   0  0  0  0  0  0  0  0  0  0  0  0
    4.4669   -5.1792    0.0000 H   0  0  0  0  0  0  0  0  0  0  0  0
    5.2553   -4.9215    0.0000 H   0  0  0  0  0  0  0  0  0  0  0  0
    4.6145   -1.5908    0.0000 H   0  0  0  0  0  0  0  0  0  0  0  0
    5.5598    0.0044    0.0000 H   0  0  0  0  0  0  0  0  0  0  0  0
    4.7779   -0.3923    0.0000 H   0  0  0  0  0  0  0  0  0  0  0  0
    5.1746   -1.1742    0.0000 H   0  0  0  0  0  0  0  0  0  0  0  0
    7.2703    1.3363    0.0000 H   0  0  0  0  0  0  0  0  0  0  0  0
    7.8635    1.8686    0.0000 H   0  0  0  0  0  0  0  0  0  0  0  0
    2.9056   -2.1876    0.0000 H   0  0  0  0  0  0  0  0  0  0  0  0
    5.7960    3.0834    0.0000 H   0  0  0  0  0  0  0  0  0  0  0  0
    2.9056   -5.4276    0.0000 H   0  0  0  0  0  0  0  0  0  0  0  0
    4.7894    0.0037    0.0000 H   0  0  0  0  0  0  0  0  0  0  0  0
    6.6115   -4.3445    0.0000 H   0  0  0  0  0  0  0  0  0  0  0  0
    1.5027   -2.9976    0.0000 H   0  0  0  0  0  0  0  0  0  0  0  0
    1.5027   -4.6176    0.0000 H   0  0  0  0  0  0  0  0  0  0  0  0
    9.0909   -1.4557    0.0000 H   0  0  0  0  0  0  0  0  0  0  0  0
    7.2170    0.6327    0.0000 H   0  0  0  0  0  0  0  0  0  0  0  0
   10.2967   -0.3738    0.0000 H   0  0  0  0  0  0  0  0  0  0  0  0
    8.4228    1.7146    0.0000 H   0  0  0  0  0  0  0  0  0  0  0  0
    6.2859    3.5230    0.0000 H   0  0  0  0  0  0  0  0  0  0  0  0
    8.9529    2.6513    0.0000 H   0  0  0  0  0  0  0  0  0  0  0  0
    9.9626    1.2114    0.0000 H   0  0  0  0  0  0  0  0  0  0  0  0
    6.7891    5.0628    0.0000 H   0  0  0  0  0  0  0  0  0  0  0  0
    9.4562    4.1911    0.0000 H   0  0  0  0  0  0  0  0  0  0  0  0
    8.3743    5.3969    0.0000 H   0  0  0  0  0  0  0  0  0  0  0  0
    1.8721    3.2264    0.0000 H   0  0  0  0  0  0  0  0  0  0  0  0
    1.3933    2.4919    0.0000 H   0  0  0  0  0  0  0  0  0  0  0  0
    2.1279    2.0130    0.0000 H   0  0  0  0  0  0  0  0  0  0  0  0
    3.3790    3.9323    0.0000 H   0  0  0  0  0  0  0  0  0  0  0  0
    2.6444    4.4111    0.0000 H   0  0  0  0  0  0  0  0  0  0  0  0
    2.1656    3.6766    0.0000 H   0  0  0  0  0  0  0  0  0  0  0  0
    2.5780    1.7196    0.0000 H   0  0  0  0  0  0  0  0  0  0  0  0
    3.3126    1.2408    0.0000 H   0  0  0  0  0  0  0  0  0  0  0  0
    3.7914    1.9753    0.0000 H   0  0  0  0  0  0  0  0  0  0  0  0
 11  1  1  6  0  0  0
  1 61  1  0  0  0  0
 12  2  1  6  0  0  0
  2 62  1  0  0  0  0
  3 14  2  0  0  0  0
  4 29  1  0  0  0  0
  4 35  1  0  0  0  0
  5 29  2  0  0  0  0
 10  6  1  6  0  0  0
  6 14  1  0  0  0  0
  6 52  1  0  0  0  0
 15  7  1  1  0  0  0
  7 29  1  0  0  0  0
  7 59  1  0  0  0  0
  8  9  1  0  0  0  0
  8 13  1  0  0  0  0
  8 14  1  0  0  0  0
  8 18  1  6  0  0  0
  9 11  1  0  0  0  0
  9 42  1  0  0  0  0
  9 43  1  0  0  0  0
 10 12  1  0  0  0  0
 10 16  1  0  0  0  0
 10 44  1  0  0  0  0
 11 15  1  0  0  0  0
 11 45  1  0  0  0  0
 12 17  1  0  0  0  0
 12 46  1  0  0  0  0
 13 21  1  0  0  0  0
 13 47  1  0  0  0  0
 13 48  1  0  0  0  0
 15 20  1  0  0  0  0
 15 49  1  0  0  0  0
 16 19  1  0  0  0  0
 16 22  2  0  0  0  0
 17 19  1  0  0  0  0
 17 50  1  0  0  0  0
 17 51  1  0  0  0  0
 18 53  1  0  0  0  0
 18 54  1  0  0  0  0
 18 55  1  0  0  0  0
 19 23  2  0  0  0  0
 20 24  1  0  0  0  0
 20 56  1  0  0  0  0
 20 57  1  0  0  0  0
 21 27  2  0  0  0  0
 21 28  1  0  0  0  0
 22 25  1  0  0  0  0
 22 58  1  0  0  0  0
 23 26  1  0  0  0  0
 23 60  1  0  0  0  0
 24 32  2  0  0  0  0
 24 33  1  0  0  0  0
 25 26  2  0  0  0  0
 25 63  1  0  0  0  0
 26 64  1  0  0  0  0
 27 30  1  0  0  0  0
 27 65  1  0  0  0  0
 28 31  2  0  0  0  0
 28 66  1  0  0  0  0
 30 34  2  0  0  0  0
 30 67  1  0  0  0  0
 31 34  1  0  0  0  0
 31 68  1  0  0  0  0
 32 36  1  0  0  0  0
 32 69  1  0  0  0  0
 33 37  2  0  0  0  0
 33 70  1  0  0  0  0
 34 71  1  0  0  0  0
 35 39  1  0  0  0  0
 35 40  1  0  0  0  0
 35 41  1  0  0  0  0
 36 38  2  0  0  0  0
 36 72  1  0  0  0  0
 37 38  1  0  0  0  0
 37 73  1  0  0  0  0
 38 74  1  0  0  0  0
 39 75  1  0  0  0  0
 39 76  1  0  0  0  0
 39 77  1  0  0  0  0
 40 78  1  0  0  0  0
 40 79  1  0  0  0  0
 40 80  1  0  0  0  0
 41 81  1  0  0  0  0
 41 82  1  0  0  0  0
 41 83  1  0  0  0  0
M  END
> <PUBCHEM_COMPOUND_CID>
515904
> <PUBCHEM_COMPOUND_CANONICALIZED>
1
> <PUBCHEM_CACTVS_COMPLEXITY>
847
> <PUBCHEM_CACTVS_HBOND_ACCEPTOR>
5
> <PUBCHEM_CACTVS_HBOND_DONOR>
4
> <PUBCHEM_CACTVS_ROTATABLE_BOND>
12
> <PUBCHEM_CACTVS_SUBSKEYS>
AAADcfB/OAAAAAAAAAAAAAAAAAAAAYAAAAAwYMAAAAAAAGABUAAAHgAQCAAADnzhmAYyCILABgCIAiFSGACCAAAgAAAIiIEIBIkKMDKAkRGMYAhk1gGYiAe62fKfgAAAAAAQAAAAAAAAACAAAKAACQgAAA==
> <PUBCHEM_IUPAC_OPENEYE_NAME>
tert-butyl N-[(1S,2S,4R)-1,4-dibenzyl-2-hydroxy-5-[[(1S,2R)-2-hydroxyindan-1-yl]amino]-4-methyl-5-oxo-pentyl]carbamate
> <PUBCHEM_IUPAC_CAS_NAME>
N-[(2S,3S,5R)-3-hydroxy-6-[[(1S,2R)-2-hydroxy-2,3-dihydro-1H-inden-1-yl]amino]-5-methyl-6-oxo-1-phenyl-5-(phenylmethyl)hexan-2-yl]carbamic acid tert-butyl ester
> <PUBCHEM_IUPAC_NAME_MARKUP>
<I>tert</I>-butyl <I>N</I>-[(2<I>S</I>,3<I>S</I>,5<I>R</I>)-5-benzyl-3-hydroxy-6-[[(1<I>S</I>,2<I>R</I>)-2-hydroxy-2,3-dihydro-1<I>H</I>-inden-1-yl]amino]-5-methyl-6-oxo-1-phenylhexan-2-yl]carbamate
> <PUBCHEM_IUPAC_NAME>
tert-butyl N-[(2S,3S,5R)-5-benzyl-3-hydroxy-6-[[(1S,2R)-2-hydroxy-2,3-dihydro-1H-inden-1-yl]amino]-5-methyl-6-oxo-1-phenylhexan-2-yl]carbamate
> <PUBCHEM_IUPAC_SYSTEMATIC_NAME>
tert-butyl N-[(2S,3S,5R)-5-methyl-3-oxidanyl-6-[[(1S,2R)-2-oxidanyl-2,3-dihydro-1H-inden-1-yl]amino]-6-oxidanylidene-1-phenyl-5-(phenylmethyl)hexan-2-yl]carbamate
> <PUBCHEM_IUPAC_TRADITIONAL_NAME>
N-[(1S,2S,4R)-1,4-dibenzyl-2-hydroxy-5-[[(1S,2R)-2-hydroxyindan-1-yl]amino]-5-keto-4-methyl-pentyl]carbamic acid tert-butyl ester
> <PUBCHEM_IUPAC_INCHI>
InChI=1S/C34H42N2O5/c1-33(2,3)41-32(40)35-27(19-23-13-7-5-8-14-23)29(38)22-34(4,21-24-15-9-6-10-16-24)31(39)36-30-26-18-12-11-17-25(26)20-28(30)37/h5-18,27-30,37-38H,19-22H2,1-4H3,(H,35,40)(H,36,39)/t27-,28+,29-,30-,34+/m0/s1
> <PUBCHEM_IUPAC_INCHIKEY>
DMZUPOFDIRSBAO-ABFXELCISA-N
> <PUBCHEM_XLOGP3_AA>
5.2
> <PUBCHEM_EXACT_MASS>
558.30937244
> <PUBCHEM_MOLECULAR_FORMULA>
C34H42N2O5
> <PUBCHEM_MOLECULAR_WEIGHT>
558.7
> <PUBCHEM_OPENEYE_CAN_SMILES>
CC(C)(C)OC(=O)NC(CC1=CC=CC=C1)C(CC(C)(CC2=CC=CC=C2)C(=O)NC3C(CC4=CC=CC=C34)O)O
> <PUBCHEM_OPENEYE_ISO_SMILES>
C[C@@](CC1=CC=CC=C1)(C[C@@H]([C@H](CC2=CC=CC=C2)NC(=O)OC(C)(C)C)O)C(=O)N[C@@H]3[C@@H](CC4=CC=CC=C34)O
> <PUBCHEM_CACTVS_TPSA>
108
> <PUBCHEM_MONOISOTOPIC_WEIGHT>
558.30937244
> <PUBCHEM_TOTAL_CHARGE>
0
> <PUBCHEM_HEAVY_ATOM_COUNT>
41
> <PUBCHEM_ATOM_DEF_STEREO_COUNT>
5
> <PUBCHEM_ATOM_UDEF_STEREO_COUNT>
0
> <PUBCHEM_BOND_DEF_STEREO_COUNT>
0
> <PUBCHEM_BOND_UDEF_STEREO_COUNT>
0
> <PUBCHEM_ISOTOPIC_ATOM_COUNT>
0
> <PUBCHEM_COMPONENT_COUNT>
1
> <PUBCHEM_CACTVS_TAUTO_COUNT>
-1
> <PUBCHEM_COORDINATE_TYPE>
1
5
255
> <PUBCHEM_BONDANNOTATIONS>
11  1  6
16  19  8
16  22  8
19  23  8
12  2  6
21  27  8
21  28  8
22  25  8
23  26  8
24  32  8
24  33  8
25  26  8
27  30  8
28  31  8
30  34  8
31  34  8
32  36  8
33  37  8
36  38  8
37  38  8
10  6  6
15  7  5
8  18  6
$$$$
