516015
  -OEChem-10302200282D
107111  0     1  0  0  0  0  0999 V2000
   10.9474    4.0462    0.0000 O   0  0  0  0  0  0  0  0  0  0  0  0
    6.3512    0.1895    0.0000 O   0  0  0  0  0  0  0  0  0  0  0  0
    7.1172    0.8322    0.0000 O   0  0  0  0  0  0  0  0  0  0  0  0
    5.9323   -2.4229    0.0000 O   0  0  0  0  0  0  0  0  0  0  0  0
    8.0569    0.4902    0.0000 O   0  0  0  0  0  0  0  0  0  0  0  0
    6.5248   -0.7953    0.0000 O   0  0  0  0  0  0  0  0  0  0  0  0
   12.0608    2.7194    0.0000 N   0  0  0  0  0  0  0  0  0  0  0  0
    5.2378    1.5163    0.0000 N   0  0  0  0  0  0  0  0  0  0  0  0
    7.7096    2.4598    0.0000 N   0  0  0  0  0  0  0  0  0  0  0  0
    4.8191   -1.0961    0.0000 N   0  0  0  0  0  0  0  0  0  0  0  0
   13.0608    2.7194    0.0000 C   0  0  0  0  0  0  0  0  0  0  0  0
    3.7057    0.2307    0.0000 C   0  0  0  0  0  0  0  0  0  0  0  0
    4.6454   -0.1113    0.0000 C   0  0  1  0  0  0  0  0  0  0  0  0
    2.9397   -0.4121    0.0000 C   0  0  0  0  0  0  0  0  0  0  0  0
   13.0608    1.7194    0.0000 C   0  0  0  0  0  0  0  0  0  0  0  0
   13.0608    3.7194    0.0000 C   0  0  0  0  0  0  0  0  0  0  0  0
   14.0608    2.7194    0.0000 C   0  0  0  0  0  0  0  0  0  0  0  0
    6.0039    2.1591    0.0000 C   0  0  1  0  0  0  0  0  0  0  0  0
    9.4153    2.7606    0.0000 C   0  0  0  0  0  0  0  0  0  0  0  0
    8.6493    2.1178    0.0000 C   0  0  1  0  0  0  0  0  0  0  0  0
   10.3550    2.4186    0.0000 C   0  0  0  0  0  0  0  0  0  0  0  0
   11.1211    3.0614    0.0000 C   0  0  0  0  0  0  0  0  0  0  0  0
    5.4115    0.5315    0.0000 C   0  0  0  0  0  0  0  0  0  0  0  0
    5.8302    3.1439    0.0000 C   0  0  0  0  0  0  0  0  0  0  0  0
    6.9436    1.8171    0.0000 C   0  0  0  0  0  0  0  0  0  0  0  0
    2.0000   -0.0701    0.0000 C   0  0  0  0  0  0  0  0  0  0  0  0
    3.1133   -1.3969    0.0000 C   0  0  0  0  0  0  0  0  0  0  0  0
   12.1947    1.2194    0.0000 C   0  0  0  0  0  0  0  0  0  0  0  0
   12.1947    4.2194    0.0000 C   0  0  0  0  0  0  0  0  0  0  0  0
   14.5608    1.8533    0.0000 C   0  0  0  0  0  0  0  0  0  0  0  0
   13.9268    1.2194    0.0000 C   0  0  0  0  0  0  0  0  0  0  0  0
   13.9268    4.2194    0.0000 C   0  0  0  0  0  0  0  0  0  0  0  0
   14.5608    3.5854    0.0000 C   0  0  0  0  0  0  0  0  0  0  0  0
    4.8905    3.4859    0.0000 C   0  0  0  0  0  0  0  0  0  0  0  0
    8.8230    1.1330    0.0000 C   0  0  0  0  0  0  0  0  0  0  0  0
   12.1947    0.2194    0.0000 C   0  0  0  0  0  0  0  0  0  0  0  0
   12.1947    5.2194    0.0000 C   0  0  0  0  0  0  0  0  0  0  0  0
   15.5608    1.8533    0.0000 C   0  0  0  0  0  0  0  0  0  0  0  0
   13.9268    0.2194    0.0000 C   0  0  0  0  0  0  0  0  0  0  0  0
   13.9268    5.2194    0.0000 C   0  0  0  0  0  0  0  0  0  0  0  0
   15.5608    3.5854    0.0000 C   0  0  0  0  0  0  0  0  0  0  0  0
   13.0608   -0.2806    0.0000 C   0  0  0  0  0  0  0  0  0  0  0  0
   13.0608    5.7194    0.0000 C   0  0  0  0  0  0  0  0  0  0  0  0
   16.0608    2.7194    0.0000 C   0  0  0  0  0  0  0  0  0  0  0  0
    5.7588   -1.4381    0.0000 C   0  0  0  0  0  0  0  0  0  0  0  0
    4.7169    4.4707    0.0000 C   0  0  0  0  0  0  0  0  0  0  0  0
    4.1245    2.8431    0.0000 C   0  0  0  0  0  0  0  0  0  0  0  0
    3.7772    4.8127    0.0000 C   0  0  0  0  0  0  0  0  0  0  0  0
    3.1848    3.1851    0.0000 C   0  0  0  0  0  0  0  0  0  0  0  0
    3.0111    4.1699    0.0000 C   0  0  0  0  0  0  0  0  0  0  0  0
    6.8720   -2.7649    0.0000 C   0  0  0  0  0  0  0  0  0  0  0  0
    7.0457   -3.7497    0.0000 C   0  0  0  0  0  0  0  0  0  0  0  0
    7.9854   -4.0918    0.0000 C   0  0  0  0  0  0  0  0  0  0  0  0
    6.2796   -4.3925    0.0000 C   0  0  0  0  0  0  0  0  0  0  0  0
    8.1590   -5.0766    0.0000 C   0  0  0  0  0  0  0  0  0  0  0  0
    6.4533   -5.3773    0.0000 C   0  0  0  0  0  0  0  0  0  0  0  0
    7.3930   -5.7194    0.0000 C   0  0  0  0  0  0  0  0  0  0  0  0
    4.0157    0.7676    0.0000 H   0  0  0  0  0  0  0  0  0  0  0  0
    3.2308    0.6292    0.0000 H   0  0  0  0  0  0  0  0  0  0  0  0
    4.1705   -0.5098    0.0000 H   0  0  0  0  0  0  0  0  0  0  0  0
    3.5223   -0.6241    0.0000 H   0  0  0  0  0  0  0  0  0  0  0  0
   11.7508    2.1824    0.0000 H   0  0  0  0  0  0  0  0  0  0  0  0
    6.1115    1.5485    0.0000 H   0  0  0  0  0  0  0  0  0  0  0  0
    9.7253    3.2976    0.0000 H   0  0  0  0  0  0  0  0  0  0  0  0
    8.9404    3.1591    0.0000 H   0  0  0  0  0  0  0  0  0  0  0  0
    8.1744    1.7193    0.0000 H   0  0  0  0  0  0  0  0  0  0  0  0
   10.0450    1.8816    0.0000 H   0  0  0  0  0  0  0  0  0  0  0  0
   10.8300    2.0201    0.0000 H   0  0  0  0  0  0  0  0  0  0  0  0
    6.4502    3.1439    0.0000 H   0  0  0  0  0  0  0  0  0  0  0  0
    5.9379    3.7545    0.0000 H   0  0  0  0  0  0  0  0  0  0  0  0
    4.6552    1.7283    0.0000 H   0  0  0  0  0  0  0  0  0  0  0  0
    7.6020    3.0704    0.0000 H   0  0  0  0  0  0  0  0  0  0  0  0
    2.2120    0.5126    0.0000 H   0  0  0  0  0  0  0  0  0  0  0  0
    1.4174    0.1420    0.0000 H   0  0  0  0  0  0  0  0  0  0  0  0
    1.7880   -0.6527    0.0000 H   0  0  0  0  0  0  0  0  0  0  0  0
    2.5028   -1.5045    0.0000 H   0  0  0  0  0  0  0  0  0  0  0  0
    3.2210   -2.0075    0.0000 H   0  0  0  0  0  0  0  0  0  0  0  0
    3.7239   -1.2892    0.0000 H   0  0  0  0  0  0  0  0  0  0  0  0
   11.6578    1.5294    0.0000 H   0  0  0  0  0  0  0  0  0  0  0  0
   11.6578    3.9094    0.0000 H   0  0  0  0  0  0  0  0  0  0  0  0
   14.2508    1.3164    0.0000 H   0  0  0  0  0  0  0  0  0  0  0  0
   14.4637    1.5294    0.0000 H   0  0  0  0  0  0  0  0  0  0  0  0
   14.4637    3.9094    0.0000 H   0  0  0  0  0  0  0  0  0  0  0  0
   14.2508    4.1223    0.0000 H   0  0  0  0  0  0  0  0  0  0  0  0
    4.3441   -1.4946    0.0000 H   0  0  0  0  0  0  0  0  0  0  0  0
    9.4056    0.9210    0.0000 H   0  0  0  0  0  0  0  0  0  0  0  0
   11.6578   -0.0906    0.0000 H   0  0  0  0  0  0  0  0  0  0  0  0
   11.6578    5.5294    0.0000 H   0  0  0  0  0  0  0  0  0  0  0  0
   15.8708    1.3164    0.0000 H   0  0  0  0  0  0  0  0  0  0  0  0
   14.4637   -0.0906    0.0000 H   0  0  0  0  0  0  0  0  0  0  0  0
   14.4637    5.5294    0.0000 H   0  0  0  0  0  0  0  0  0  0  0  0
   15.8708    4.1223    0.0000 H   0  0  0  0  0  0  0  0  0  0  0  0
   13.0608   -0.9006    0.0000 H   0  0  0  0  0  0  0  0  0  0  0  0
   13.0608    6.3394    0.0000 H   0  0  0  0  0  0  0  0  0  0  0  0
   16.6808    2.7194    0.0000 H   0  0  0  0  0  0  0  0  0  0  0  0
    5.1918    4.8692    0.0000 H   0  0  0  0  0  0  0  0  0  0  0  0
    4.2322    2.2325    0.0000 H   0  0  0  0  0  0  0  0  0  0  0  0
    3.6695    5.4233    0.0000 H   0  0  0  0  0  0  0  0  0  0  0  0
    2.7098    2.7866    0.0000 H   0  0  0  0  0  0  0  0  0  0  0  0
    2.4285    4.3820    0.0000 H   0  0  0  0  0  0  0  0  0  0  0  0
    7.4920   -2.7649    0.0000 H   0  0  0  0  0  0  0  0  0  0  0  0
    6.9797   -2.1543    0.0000 H   0  0  0  0  0  0  0  0  0  0  0  0
    8.4604   -3.6932    0.0000 H   0  0  0  0  0  0  0  0  0  0  0  0
    5.6970   -4.1805    0.0000 H   0  0  0  0  0  0  0  0  0  0  0  0
    8.7417   -5.2886    0.0000 H   0  0  0  0  0  0  0  0  0  0  0  0
    5.9784   -5.7758    0.0000 H   0  0  0  0  0  0  0  0  0  0  0  0
    7.5007   -6.3299    0.0000 H   0  0  0  0  0  0  0  0  0  0  0  0
  1 22  2  0  0  0  0
  2 23  2  0  0  0  0
  3 25  2  0  0  0  0
  4 45  1  0  0  0  0
  4 51  1  0  0  0  0
  5 35  2  0  0  0  0
  6 45  2  0  0  0  0
  7 11  1  0  0  0  0
  7 22  1  0  0  0  0
  7 62  1  0  0  0  0
 18  8  1  1  0  0  0
  8 23  1  0  0  0  0
  8 71  1  0  0  0  0
 20  9  1  1  0  0  0
  9 25  1  0  0  0  0
  9 72  1  0  0  0  0
 13 10  1  1  0  0  0
 10 45  1  0  0  0  0
 10 85  1  0  0  0  0
 11 15  1  0  0  0  0
 11 16  1  0  0  0  0
 11 17  1  0  0  0  0
 12 13  1  0  0  0  0
 12 14  1  0  0  0  0
 12 58  1  0  0  0  0
 12 59  1  0  0  0  0
 13 23  1  0  0  0  0
 13 60  1  0  0  0  0
 14 26  1  0  0  0  0
 14 27  1  0  0  0  0
 14 61  1  0  0  0  0
 15 28  2  0  0  0  0
 15 31  1  0  0  0  0
 16 29  2  0  0  0  0
 16 32  1  0  0  0  0
 17 30  2  0  0  0  0
 17 33  1  0  0  0  0
 18 24  1  0  0  0  0
 18 25  1  0  0  0  0
 18 63  1  0  0  0  0
 19 20  1  0  0  0  0
 19 21  1  0  0  0  0
 19 64  1  0  0  0  0
 19 65  1  0  0  0  0
 20 35  1  0  0  0  0
 20 66  1  0  0  0  0
 21 22  1  0  0  0  0
 21 67  1  0  0  0  0
 21 68  1  0  0  0  0
 24 34  1  0  0  0  0
 24 69  1  0  0  0  0
 24 70  1  0  0  0  0
 26 73  1  0  0  0  0
 26 74  1  0  0  0  0
 26 75  1  0  0  0  0
 27 76  1  0  0  0  0
 27 77  1  0  0  0  0
 27 78  1  0  0  0  0
 28 36  1  0  0  0  0
 28 79  1  0  0  0  0
 29 37  1  0  0  0  0
 29 80  1  0  0  0  0
 30 38  1  0  0  0  0
 30 81  1  0  0  0  0
 31 39  2  0  0  0  0
 31 82  1  0  0  0  0
 32 40  2  0  0  0  0
 32 83  1  0  0  0  0
 33 41  2  0  0  0  0
 33 84  1  0  0  0  0
 34 46  2  0  0  0  0
 34 47  1  0  0  0  0
 35 86  1  0  0  0  0
 36 42  2  0  0  0  0
 36 87  1  0  0  0  0
 37 43  2  0  0  0  0
 37 88  1  0  0  0  0
 38 44  2  0  0  0  0
 38 89  1  0  0  0  0
 39 42  1  0  0  0  0
 39 90  1  0  0  0  0
 40 43  1  0  0  0  0
 40 91  1  0  0  0  0
 41 44  1  0  0  0  0
 41 92  1  0  0  0  0
 42 93  1  0  0  0  0
 43 94  1  0  0  0  0
 44 95  1  0  0  0  0
 46 48  1  0  0  0  0
 46 96  1  0  0  0  0
 47 49  2  0  0  0  0
 47 97  1  0  0  0  0
 48 50  2  0  0  0  0
 48 98  1  0  0  0  0
 49 50  1  0  0  0  0
 49 99  1  0  0  0  0
 50100  1  0  0  0  0
 51 52  1  0  0  0  0
 51101  1  0  0  0  0
 51102  1  0  0  0  0
 52 53  2  0  0  0  0
 52 54  1  0  0  0  0
 53 55  1  0  0  0  0
 53103  1  0  0  0  0
 54 56  2  0  0  0  0
 54104  1  0  0  0  0
 55 57  2  0  0  0  0
 55105  1  0  0  0  0
 56 57  1  0  0  0  0
 56106  1  0  0  0  0
 57107  1  0  0  0  0
M  END
> <PUBCHEM_COMPOUND_CID>
516015
> <PUBCHEM_COMPOUND_CANONICALIZED>
1
> <PUBCHEM_CACTVS_COMPLEXITY>
1200
> <PUBCHEM_CACTVS_HBOND_ACCEPTOR>
6
> <PUBCHEM_CACTVS_HBOND_DONOR>
4
> <PUBCHEM_CACTVS_ROTATABLE_BOND>
20
> <PUBCHEM_CACTVS_SUBSKEYS>
AAADcfB/uAAAAAAAAAAAAAAAAAAAAAAAAAAwYMGDAAAAAAABVAAAHgAQAAAADajhmAYyCILABACIAilSmACCAAAgAAAIiIGIDIkIZjKAsTmcMAhk1gGIqAecy+COgAAAAAAAAAAAAAAAAAAAAAAAAAAAAA==
> <PUBCHEM_IUPAC_OPENEYE_NAME>
benzyl N-[(1S)-1-[[(1S)-1-benzyl-2-[[(1S)-1-formyl-4-oxo-4-(tritylamino)butyl]amino]-2-oxo-ethyl]carbamoyl]-3-methyl-butyl]carbamate
> <PUBCHEM_IUPAC_CAS_NAME>
N-[(2S)-1-[[(2S)-1-[[(2S)-1,5-dioxo-5-[(triphenylmethyl)amino]pentan-2-yl]amino]-1-oxo-3-phenylpropan-2-yl]amino]-4-methyl-1-oxopentan-2-yl]carbamic acid (phenylmethyl) ester
> <PUBCHEM_IUPAC_NAME_MARKUP>
benzyl <I>N</I>-[(2<I>S</I>)-1-[[(2<I>S</I>)-1-[[(2<I>S</I>)-1,5-dioxo-5-(tritylamino)pentan-2-yl]amino]-1-oxo-3-phenylpropan-2-yl]amino]-4-methyl-1-oxopentan-2-yl]carbamate
> <PUBCHEM_IUPAC_NAME>
benzyl N-[(2S)-1-[[(2S)-1-[[(2S)-1,5-dioxo-5-(tritylamino)pentan-2-yl]amino]-1-oxo-3-phenylpropan-2-yl]amino]-4-methyl-1-oxopentan-2-yl]carbamate
> <PUBCHEM_IUPAC_SYSTEMATIC_NAME>
(phenylmethyl) N-[(2S)-1-[[(2S)-1-[[(2S)-1,5-bis(oxidanylidene)-5-[(triphenylmethyl)amino]pentan-2-yl]amino]-1-oxidanylidene-3-phenyl-propan-2-yl]amino]-4-methyl-1-oxidanylidene-pentan-2-yl]carbamate
> <PUBCHEM_IUPAC_TRADITIONAL_NAME>
N-[(1S)-1-[[(1S)-1-benzyl-2-[[(1S)-1-formyl-4-keto-4-(tritylamino)butyl]amino]-2-keto-ethyl]carbamoyl]-3-methyl-butyl]carbamic acid benzyl ester
> <PUBCHEM_IUPAC_INCHI>
InChI=1S/C47H50N4O6/c1-34(2)30-41(50-46(56)57-33-36-20-10-4-11-21-36)45(55)49-42(31-35-18-8-3-9-19-35)44(54)48-40(32-52)28-29-43(53)51-47(37-22-12-5-13-23-37,38-24-14-6-15-25-38)39-26-16-7-17-27-39/h3-27,32,34,40-42H,28-31,33H2,1-2H3,(H,48,54)(H,49,55)(H,50,56)(H,51,53)/t40-,41-,42-/m0/s1
> <PUBCHEM_IUPAC_INCHIKEY>
JOMYVHLVFSXJJQ-BJKOEGOMSA-N
> <PUBCHEM_XLOGP3_AA>
7.7
> <PUBCHEM_EXACT_MASS>
766.37303533
> <PUBCHEM_MOLECULAR_FORMULA>
C47H50N4O6
> <PUBCHEM_MOLECULAR_WEIGHT>
766.9
> <PUBCHEM_OPENEYE_CAN_SMILES>
CC(C)CC(C(=O)NC(CC1=CC=CC=C1)C(=O)NC(CCC(=O)NC(C2=CC=CC=C2)(C3=CC=CC=C3)C4=CC=CC=C4)C=O)NC(=O)OCC5=CC=CC=C5
> <PUBCHEM_OPENEYE_ISO_SMILES>
CC(C)C[C@@H](C(=O)N[C@@H](CC1=CC=CC=C1)C(=O)N[C@@H](CCC(=O)NC(C2=CC=CC=C2)(C3=CC=CC=C3)C4=CC=CC=C4)C=O)NC(=O)OCC5=CC=CC=C5
> <PUBCHEM_CACTVS_TPSA>
143
> <PUBCHEM_MONOISOTOPIC_WEIGHT>
766.37303533
> <PUBCHEM_TOTAL_CHARGE>
0
> <PUBCHEM_HEAVY_ATOM_COUNT>
57
> <PUBCHEM_ATOM_DEF_STEREO_COUNT>
3
> <PUBCHEM_ATOM_UDEF_STEREO_COUNT>
0
> <PUBCHEM_BOND_DEF_STEREO_COUNT>
0
> <PUBCHEM_BOND_UDEF_STEREO_COUNT>
0
> <PUBCHEM_ISOTOPIC_ATOM_COUNT>
0
> <PUBCHEM_COMPONENT_COUNT>
1
> <PUBCHEM_CACTVS_TAUTO_COUNT>
-1
> <PUBCHEM_COORDINATE_TYPE>
1
5
255
> <PUBCHEM_BONDANNOTATIONS>
13  10  5
15  28  8
15  31  8
16  29  8
16  32  8
17  30  8
17  33  8
28  36  8
29  37  8
30  38  8
31  39  8
32  40  8
33  41  8
34  46  8
34  47  8
36  42  8
37  43  8
38  44  8
39  42  8
40  43  8
41  44  8
46  48  8
47  49  8
48  50  8
49  50  8
52  53  8
52  54  8
53  55  8
54  56  8
55  57  8
56  57  8
18  8  5
20  9  5
$$$$
