516033
  -OEChem-10302200282D
 34 36  0     1  0  0  0  0  0999 V2000
    7.6648   -1.7522    0.0000 Cl  0  0  0  0  0  0  0  0  0  0  0  0
    5.8055    0.8131    0.0000 O   0  0  0  0  0  0  0  0  0  0  0  0
    8.1515   -0.2788    0.0000 O   0  0  0  0  0  0  0  0  0  0  0  0
    8.1552    1.8968    0.0000 O   0  0  0  0  0  0  0  0  0  0  0  0
    5.1095    2.7822    0.0000 O   0  0  0  0  0  0  0  0  0  0  0  0
    6.0812   -0.9475    0.0000 N   0  0  0  0  0  0  0  0  0  0  0  0
    6.0812   -2.5570    0.0000 N   0  0  0  0  0  0  0  0  0  0  0  0
    2.5369   -2.7522    0.0000 N   0  0  0  0  0  0  0  0  0  0  0  0
    6.3919    0.0030    0.0000 C   0  0  1  0  0  0  0  0  0  0  0  0
    7.3435    0.3104    0.0000 C   0  0  1  0  0  0  0  0  0  0  0  0
    7.3452    1.3104    0.0000 C   0  0  1  0  0  0  0  0  0  0  0  0
    6.3947    1.6211    0.0000 C   0  0  1  0  0  0  0  0  0  0  0  0
    6.0873    2.5726    0.0000 C   0  0  0  0  0  0  0  0  0  0  0  0
    5.1350   -1.2522    0.0000 C   0  0  0  0  0  0  0  0  0  0  0  0
    6.6648   -1.7522    0.0000 C   0  0  0  0  0  0  0  0  0  0  0  0
    5.1350   -2.2522    0.0000 C   0  0  0  0  0  0  0  0  0  0  0  0
    4.2690   -0.7522    0.0000 C   0  0  0  0  0  0  0  0  0  0  0  0
    4.2690   -2.7522    0.0000 C   0  0  0  0  0  0  0  0  0  0  0  0
    3.4030   -1.2522    0.0000 C   0  0  0  0  0  0  0  0  0  0  0  0
    3.4030   -2.2522    0.0000 C   0  0  0  0  0  0  0  0  0  0  0  0
    5.7794   -0.0929    0.0000 H   0  0  0  0  0  0  0  0  0  0  0  0
    7.8964    0.5909    0.0000 H   0  0  0  0  0  0  0  0  0  0  0  0
    7.2493    1.9229    0.0000 H   0  0  0  0  0  0  0  0  0  0  0  0
    5.7825    1.7191    0.0000 H   0  0  0  0  0  0  0  0  0  0  0  0
    6.7014    2.6579    0.0000 H   0  0  0  0  0  0  0  0  0  0  0  0
    6.1100    3.1922    0.0000 H   0  0  0  0  0  0  0  0  0  0  0  0
    8.7183   -0.0276    0.0000 H   0  0  0  0  0  0  0  0  0  0  0  0
    8.0915    2.5135    0.0000 H   0  0  0  0  0  0  0  0  0  0  0  0
    4.2690   -0.1322    0.0000 H   0  0  0  0  0  0  0  0  0  0  0  0
    4.2690   -3.3722    0.0000 H   0  0  0  0  0  0  0  0  0  0  0  0
    4.9190    3.3722    0.0000 H   0  0  0  0  0  0  0  0  0  0  0  0
    2.8660   -0.9422    0.0000 H   0  0  0  0  0  0  0  0  0  0  0  0
    2.0000   -2.4422    0.0000 H   0  0  0  0  0  0  0  0  0  0  0  0
    2.5369   -3.3722    0.0000 H   0  0  0  0  0  0  0  0  0  0  0  0
  1 15  1  0  0  0  0
  2  9  1  0  0  0  0
  2 12  1  0  0  0  0
 10  3  1  1  0  0  0
  3 27  1  0  0  0  0
 11  4  1  1  0  0  0
  4 28  1  0  0  0  0
  5 13  1  0  0  0  0
  5 31  1  0  0  0  0
  9  6  1  6  0  0  0
  6 14  1  0  0  0  0
  6 15  1  0  0  0  0
  7 15  2  0  0  0  0
  7 16  1  0  0  0  0
  8 20  1  0  0  0  0
  8 33  1  0  0  0  0
  8 34  1  0  0  0  0
  9 10  1  0  0  0  0
  9 21  1  0  0  0  0
 10 11  1  0  0  0  0
 10 22  1  0  0  0  0
 11 12  1  0  0  0  0
 11 23  1  0  0  0  0
 12 13  1  6  0  0  0
 12 24  1  0  0  0  0
 13 25  1  0  0  0  0
 13 26  1  0  0  0  0
 14 16  2  0  0  0  0
 14 17  1  0  0  0  0
 16 18  1  0  0  0  0
 17 19  2  0  0  0  0
 17 29  1  0  0  0  0
 18 20  2  0  0  0  0
 18 30  1  0  0  0  0
 19 20  1  0  0  0  0
 19 32  1  0  0  0  0
M  END
> <PUBCHEM_COMPOUND_CID>
516033
> <PUBCHEM_COMPOUND_CANONICALIZED>
1
> <PUBCHEM_CACTVS_COMPLEXITY>
364
> <PUBCHEM_CACTVS_HBOND_ACCEPTOR>
6
> <PUBCHEM_CACTVS_HBOND_DONOR>
4
> <PUBCHEM_CACTVS_ROTATABLE_BOND>
2
> <PUBCHEM_CACTVS_SUBSKEYS>
AAADccBzOAAEAAAAAAAAAAAAAAAAAWJAAAAwAAAAAAAAAFgB8AAAHgIQCAAACBzhlgYx0LdMFgCgASRiZACCgC0hEqAJ2CA4dJiLeKLA2dGeZAhvkALbyCfwMAIAAACAAAQAACAAAQAACAAAQAAAAAAAAA==
> <PUBCHEM_IUPAC_OPENEYE_NAME>
(2R,3R,4S,5R)-2-(5-amino-2-chloro-benzimidazol-1-yl)-5-(hydroxymethyl)tetrahydrofuran-3,4-diol
> <PUBCHEM_IUPAC_CAS_NAME>
(2R,3R,4S,5R)-2-(5-amino-2-chloro-1-benzimidazolyl)-5-(hydroxymethyl)oxolane-3,4-diol
> <PUBCHEM_IUPAC_NAME_MARKUP>
(2<I>R</I>,3<I>R</I>,4<I>S</I>,5<I>R</I>)-2-(5-amino-2-chlorobenzimidazol-1-yl)-5-(hydroxymethyl)oxolane-3,4-diol
> <PUBCHEM_IUPAC_NAME>
(2R,3R,4S,5R)-2-(5-amino-2-chlorobenzimidazol-1-yl)-5-(hydroxymethyl)oxolane-3,4-diol
> <PUBCHEM_IUPAC_SYSTEMATIC_NAME>
(2R,3R,4S,5R)-2-(5-azanyl-2-chloranyl-benzimidazol-1-yl)-5-(hydroxymethyl)oxolane-3,4-diol
> <PUBCHEM_IUPAC_TRADITIONAL_NAME>
(2R,3R,4S,5R)-2-(5-amino-2-chloro-benzimidazol-1-yl)-5-methylol-tetrahydrofuran-3,4-diol
> <PUBCHEM_IUPAC_INCHI>
InChI=1S/C12H14ClN3O4/c13-12-15-6-3-5(14)1-2-7(6)16(12)11-10(19)9(18)8(4-17)20-11/h1-3,8-11,17-19H,4,14H2/t8-,9-,10-,11-/m1/s1
> <PUBCHEM_IUPAC_INCHIKEY>
FNJMOUVVAZERHA-GWOFURMSSA-N
> <PUBCHEM_XLOGP3_AA>
0.1
> <PUBCHEM_EXACT_MASS>
299.0672836
> <PUBCHEM_MOLECULAR_FORMULA>
C12H14ClN3O4
> <PUBCHEM_MOLECULAR_WEIGHT>
299.71
> <PUBCHEM_OPENEYE_CAN_SMILES>
C1=CC2=C(C=C1N)N=C(N2C3C(C(C(O3)CO)O)O)Cl
> <PUBCHEM_OPENEYE_ISO_SMILES>
C1=CC2=C(C=C1N)N=C(N2[C@H]3[C@@H]([C@@H]([C@H](O3)CO)O)O)Cl
> <PUBCHEM_CACTVS_TPSA>
114
> <PUBCHEM_MONOISOTOPIC_WEIGHT>
299.0672836
> <PUBCHEM_TOTAL_CHARGE>
0
> <PUBCHEM_HEAVY_ATOM_COUNT>
20
> <PUBCHEM_ATOM_DEF_STEREO_COUNT>
4
> <PUBCHEM_ATOM_UDEF_STEREO_COUNT>
0
> <PUBCHEM_BOND_DEF_STEREO_COUNT>
0
> <PUBCHEM_BOND_UDEF_STEREO_COUNT>
0
> <PUBCHEM_ISOTOPIC_ATOM_COUNT>
0
> <PUBCHEM_COMPONENT_COUNT>
1
> <PUBCHEM_CACTVS_TAUTO_COUNT>
-1
> <PUBCHEM_COORDINATE_TYPE>
1
5
255
> <PUBCHEM_BONDANNOTATIONS>
12  13  6
14  16  8
14  17  8
16  18  8
17  19  8
18  20  8
19  20  8
10  3  5
11  4  5
6  14  8
6  15  8
9  6  6
7  15  8
7  16  8
$$$$
