516087
  -OEChem-10302200282D
 45 48  0     1  0  0  0  0  0999 V2000
    8.9851    0.8810    0.0000 S   0  0  0  0  0  0  0  0  0  0  0  0
    5.5000    1.6857    0.0000 S   0  0  0  0  0  0  0  0  0  0  0  0
    7.3666   -0.8834    0.0000 O   0  0  0  0  0  0  0  0  0  0  0  0
    5.0187    0.2044    0.0000 O   0  0  0  0  0  0  0  0  0  0  0  0
    5.0187   -1.9711    0.0000 O   0  0  0  0  0  0  0  0  0  0  0  0
    8.0659   -2.8513    0.0000 O   0  0  0  0  0  0  0  0  0  0  0  0
    7.0878    0.8767    0.0000 N   0  0  0  0  0  0  0  0  0  0  0  0
    7.0878    2.4948    0.0000 N   0  0  0  0  0  0  0  0  0  0  0  0
    9.5687    1.6857    0.0000 N   0  0  0  0  0  0  0  0  0  0  0  0
    6.7788   -0.0743    0.0000 C   0  0  1  0  0  0  0  0  0  0  0  0
    5.8277   -0.3834    0.0000 C   0  0  1  0  0  0  0  0  0  0  0  0
    5.8277   -1.3834    0.0000 C   0  0  1  0  0  0  0  0  0  0  0  0
    6.7788   -1.6924    0.0000 C   0  0  1  0  0  0  0  0  0  0  0  0
    7.0878   -2.6434    0.0000 C   0  0  0  0  0  0  0  0  0  0  0  0
    8.0388    1.1857    0.0000 C   0  0  0  0  0  0  0  0  0  0  0  0
    6.5000    1.6857    0.0000 C   0  0  0  0  0  0  0  0  0  0  0  0
    8.0388    2.1857    0.0000 C   0  0  0  0  0  0  0  0  0  0  0  0
    8.9851    2.4905    0.0000 C   0  0  0  0  0  0  0  0  0  0  0  0
    5.0000    2.5518    0.0000 C   0  0  0  0  0  0  0  0  0  0  0  0
    9.2957    3.4410    0.0000 C   0  0  0  0  0  0  0  0  0  0  0  0
    4.0000    2.5518    0.0000 C   0  0  0  0  0  0  0  0  0  0  0  0
    3.5000    1.6857    0.0000 C   0  0  0  0  0  0  0  0  0  0  0  0
    3.5000    3.4178    0.0000 C   0  0  0  0  0  0  0  0  0  0  0  0
    2.5000    1.6857    0.0000 C   0  0  0  0  0  0  0  0  0  0  0  0
    2.5000    3.4178    0.0000 C   0  0  0  0  0  0  0  0  0  0  0  0
    2.0000    2.5518    0.0000 C   0  0  0  0  0  0  0  0  0  0  0  0
    6.3404    0.3641    0.0000 H   0  0  0  0  0  0  0  0  0  0  0  0
    5.2753   -0.6648    0.0000 H   0  0  0  0  0  0  0  0  0  0  0  0
    5.2753   -1.1019    0.0000 H   0  0  0  0  0  0  0  0  0  0  0  0
    7.3911   -1.7894    0.0000 H   0  0  0  0  0  0  0  0  0  0  0  0
    6.4738   -2.7297    0.0000 H   0  0  0  0  0  0  0  0  0  0  0  0
    7.0662   -3.2630    0.0000 H   0  0  0  0  0  0  0  0  0  0  0  0
    4.4523   -0.0477    0.0000 H   0  0  0  0  0  0  0  0  0  0  0  0
    5.0835   -2.5877    0.0000 H   0  0  0  0  0  0  0  0  0  0  0  0
    8.2575   -3.4410    0.0000 H   0  0  0  0  0  0  0  0  0  0  0  0
    5.5826    2.7638    0.0000 H   0  0  0  0  0  0  0  0  0  0  0  0
    4.8923    3.1624    0.0000 H   0  0  0  0  0  0  0  0  0  0  0  0
    9.8850    3.2484    0.0000 H   0  0  0  0  0  0  0  0  0  0  0  0
    9.4883    4.0303    0.0000 H   0  0  0  0  0  0  0  0  0  0  0  0
    8.7064    3.6336    0.0000 H   0  0  0  0  0  0  0  0  0  0  0  0
    3.8100    1.1488    0.0000 H   0  0  0  0  0  0  0  0  0  0  0  0
    3.8100    3.9547    0.0000 H   0  0  0  0  0  0  0  0  0  0  0  0
    2.1900    1.1488    0.0000 H   0  0  0  0  0  0  0  0  0  0  0  0
    2.1900    3.9547    0.0000 H   0  0  0  0  0  0  0  0  0  0  0  0
    1.3800    2.5518    0.0000 H   0  0  0  0  0  0  0  0  0  0  0  0
  1  9  1  0  0  0  0
  1 15  1  0  0  0  0
  2 16  1  0  0  0  0
  2 19  1  0  0  0  0
  3 10  1  0  0  0  0
  3 13  1  0  0  0  0
 11  4  1  1  0  0  0
  4 33  1  0  0  0  0
 12  5  1  1  0  0  0
  5 34  1  0  0  0  0
  6 14  1  0  0  0  0
  6 35  1  0  0  0  0
 10  7  1  6  0  0  0
  7 15  1  0  0  0  0
  7 16  1  0  0  0  0
  8 16  2  0  0  0  0
  8 17  1  0  0  0  0
  9 18  2  0  0  0  0
 10 11  1  0  0  0  0
 10 27  1  0  0  0  0
 11 12  1  0  0  0  0
 11 28  1  0  0  0  0
 12 13  1  0  0  0  0
 12 29  1  0  0  0  0
 13 14  1  6  0  0  0
 13 30  1  0  0  0  0
 14 31  1  0  0  0  0
 14 32  1  0  0  0  0
 15 17  2  0  0  0  0
 17 18  1  0  0  0  0
 18 20  1  0  0  0  0
 19 21  1  0  0  0  0
 19 36  1  0  0  0  0
 19 37  1  0  0  0  0
 20 38  1  0  0  0  0
 20 39  1  0  0  0  0
 20 40  1  0  0  0  0
 21 22  2  0  0  0  0
 21 23  1  0  0  0  0
 22 24  1  0  0  0  0
 22 41  1  0  0  0  0
 23 25  2  0  0  0  0
 23 42  1  0  0  0  0
 24 26  2  0  0  0  0
 24 43  1  0  0  0  0
 25 26  1  0  0  0  0
 25 44  1  0  0  0  0
 26 45  1  0  0  0  0
M  END
> <PUBCHEM_COMPOUND_CID>
516087
> <PUBCHEM_COMPOUND_CANONICALIZED>
1
> <PUBCHEM_CACTVS_COMPLEXITY>
485
> <PUBCHEM_CACTVS_HBOND_ACCEPTOR>
8
> <PUBCHEM_CACTVS_HBOND_DONOR>
3
> <PUBCHEM_CACTVS_ROTATABLE_BOND>
5
> <PUBCHEM_CACTVS_SUBSKEYS>
AAADceB7OABgAAAAAAAAAAAAAAAAAWLEgAAwAAAAAAAWAAAB/AAAHgQASAAADBzl3gaz0bcMFgikAyRiZACD8D1hELgJ2DQ4VJiLeCLg2dCeZAxvgALbyCfwsAIOAAAAAAAAAAAAAAAAAAAAAAAAAAAAAA==
> <PUBCHEM_IUPAC_OPENEYE_NAME>
(2R,3R,4S,5R)-2-(5-benzylsulfanyl-3-methyl-imidazo[4,5-d]isothiazol-6-yl)-5-(hydroxymethyl)tetrahydrofuran-3,4-diol
> <PUBCHEM_IUPAC_CAS_NAME>
(2R,3S,4R,5R)-2-(hydroxymethyl)-5-[3-methyl-5-(phenylmethylthio)-6-imidazo[4,5-d]isothiazolyl]oxolane-3,4-diol
> <PUBCHEM_IUPAC_NAME_MARKUP>
(2<I>R</I>,3<I>R</I>,4<I>S</I>,5<I>R</I>)-2-(5-benzylsulfanyl-3-methylimidazo[4,5-d][1,2]thiazol-6-yl)-5-(hydroxymethyl)oxolane-3,4-diol
> <PUBCHEM_IUPAC_NAME>
(2R,3R,4S,5R)-2-(5-benzylsulfanyl-3-methylimidazo[4,5-d][1,2]thiazol-6-yl)-5-(hydroxymethyl)oxolane-3,4-diol
> <PUBCHEM_IUPAC_SYSTEMATIC_NAME>
(2R,3S,4R,5R)-2-(hydroxymethyl)-5-[3-methyl-5-(phenylmethylsulfanyl)imidazo[4,5-d][1,2]thiazol-6-yl]oxolane-3,4-diol
> <PUBCHEM_IUPAC_TRADITIONAL_NAME>
(2R,3R,4S,5R)-2-[5-(benzylthio)-3-methyl-imidaz[4,5-d]isothiazol-6-yl]-5-methylol-tetrahydrofuran-3,4-diol
> <PUBCHEM_IUPAC_INCHI>
InChI=1S/C17H19N3O4S2/c1-9-12-16(26-19-9)20(15-14(23)13(22)11(7-21)24-15)17(18-12)25-8-10-5-3-2-4-6-10/h2-6,11,13-15,21-23H,7-8H2,1H3/t11-,13-,14-,15-/m1/s1
> <PUBCHEM_IUPAC_INCHIKEY>
MEMOGUBWYCRYIE-NMFUWQPSSA-N
> <PUBCHEM_XLOGP3_AA>
2
> <PUBCHEM_EXACT_MASS>
393.08169844
> <PUBCHEM_MOLECULAR_FORMULA>
C17H19N3O4S2
> <PUBCHEM_MOLECULAR_WEIGHT>
393.5
> <PUBCHEM_OPENEYE_CAN_SMILES>
CC1=NSC2=C1N=C(N2C3C(C(C(O3)CO)O)O)SCC4=CC=CC=C4
> <PUBCHEM_OPENEYE_ISO_SMILES>
CC1=NSC2=C1N=C(N2[C@H]3[C@@H]([C@@H]([C@H](O3)CO)O)O)SCC4=CC=CC=C4
> <PUBCHEM_CACTVS_TPSA>
154
> <PUBCHEM_MONOISOTOPIC_WEIGHT>
393.08169844
> <PUBCHEM_TOTAL_CHARGE>
0
> <PUBCHEM_HEAVY_ATOM_COUNT>
26
> <PUBCHEM_ATOM_DEF_STEREO_COUNT>
4
> <PUBCHEM_ATOM_UDEF_STEREO_COUNT>
0
> <PUBCHEM_BOND_DEF_STEREO_COUNT>
0
> <PUBCHEM_BOND_UDEF_STEREO_COUNT>
0
> <PUBCHEM_ISOTOPIC_ATOM_COUNT>
0
> <PUBCHEM_COMPONENT_COUNT>
1
> <PUBCHEM_CACTVS_TAUTO_COUNT>
-1
> <PUBCHEM_COORDINATE_TYPE>
1
5
255
> <PUBCHEM_BONDANNOTATIONS>
1  15  8
1  9  8
13  14  6
15  17  8
17  18  8
21  22  8
21  23  8
22  24  8
23  25  8
24  26  8
25  26  8
11  4  5
12  5  5
10  7  6
7  15  8
7  16  8
8  16  8
8  17  8
9  18  8
$$$$
