516074
  -OEChem-10302200282D
 30 32  0     1  0  0  0  0  0999 V2000
    6.5328    0.8810    0.0000 S   0  0  0  0  0  0  0  0  0  0  0  0
    4.9143   -0.8834    0.0000 O   0  0  0  0  0  0  0  0  0  0  0  0
    2.5664   -1.9711    0.0000 O   0  0  0  0  0  0  0  0  0  0  0  0
    5.6136   -2.8513    0.0000 O   0  0  0  0  0  0  0  0  0  0  0  0
    4.6355    0.8767    0.0000 N   0  0  0  0  0  0  0  0  0  0  0  0
    4.6355    2.4948    0.0000 N   0  0  0  0  0  0  0  0  0  0  0  0
    7.1164    1.6857    0.0000 N   0  0  0  0  0  0  0  0  0  0  0  0
    4.3265   -0.0743    0.0000 C   0  0  1  0  0  0  0  0  0  0  0  0
    3.3754   -1.3834    0.0000 C   0  0  1  0  0  0  0  0  0  0  0  0
    3.3754   -0.3834    0.0000 C   0  0  0  0  0  0  0  0  0  0  0  0
    4.3265   -1.6924    0.0000 C   0  0  1  0  0  0  0  0  0  0  0  0
    4.6355   -2.6434    0.0000 C   0  0  0  0  0  0  0  0  0  0  0  0
    5.5865    1.1857    0.0000 C   0  0  0  0  0  0  0  0  0  0  0  0
    4.0477    1.6857    0.0000 C   0  0  0  0  0  0  0  0  0  0  0  0
    5.5865    2.1857    0.0000 C   0  0  0  0  0  0  0  0  0  0  0  0
    6.5328    2.4905    0.0000 C   0  0  0  0  0  0  0  0  0  0  0  0
    6.8434    3.4410    0.0000 C   0  0  0  0  0  0  0  0  0  0  0  0
    4.9388    0.0227    0.0000 H   0  0  0  0  0  0  0  0  0  0  0  0
    2.8230   -1.1019    0.0000 H   0  0  0  0  0  0  0  0  0  0  0  0
    3.2465    0.2231    0.0000 H   0  0  0  0  0  0  0  0  0  0  0  0
    2.7588   -0.4482    0.0000 H   0  0  0  0  0  0  0  0  0  0  0  0
    4.9388   -1.7894    0.0000 H   0  0  0  0  0  0  0  0  0  0  0  0
    4.0215   -2.7297    0.0000 H   0  0  0  0  0  0  0  0  0  0  0  0
    4.6138   -3.2630    0.0000 H   0  0  0  0  0  0  0  0  0  0  0  0
    3.4277    1.6857    0.0000 H   0  0  0  0  0  0  0  0  0  0  0  0
    2.0000   -1.7190    0.0000 H   0  0  0  0  0  0  0  0  0  0  0  0
    5.8052   -3.4410    0.0000 H   0  0  0  0  0  0  0  0  0  0  0  0
    7.4328    3.2484    0.0000 H   0  0  0  0  0  0  0  0  0  0  0  0
    7.0360    4.0303    0.0000 H   0  0  0  0  0  0  0  0  0  0  0  0
    6.2541    3.6336    0.0000 H   0  0  0  0  0  0  0  0  0  0  0  0
  1  7  1  0  0  0  0
  1 13  1  0  0  0  0
  2  8  1  0  0  0  0
  2 11  1  0  0  0  0
  9  3  1  1  0  0  0
  3 26  1  0  0  0  0
  4 12  1  0  0  0  0
  4 27  1  0  0  0  0
  8  5  1  6  0  0  0
  5 13  1  0  0  0  0
  5 14  1  0  0  0  0
  6 14  2  0  0  0  0
  6 15  1  0  0  0  0
  7 16  2  0  0  0  0
  8 10  1  0  0  0  0
  8 18  1  0  0  0  0
  9 10  1  0  0  0  0
  9 11  1  0  0  0  0
  9 19  1  0  0  0  0
 10 20  1  0  0  0  0
 10 21  1  0  0  0  0
 11 12  1  6  0  0  0
 11 22  1  0  0  0  0
 12 23  1  0  0  0  0
 12 24  1  0  0  0  0
 13 15  2  0  0  0  0
 14 25  1  0  0  0  0
 15 16  1  0  0  0  0
 16 17  1  0  0  0  0
 17 28  1  0  0  0  0
 17 29  1  0  0  0  0
 17 30  1  0  0  0  0
M  END
> <PUBCHEM_COMPOUND_CID>
516074
> <PUBCHEM_COMPOUND_CANONICALIZED>
1
> <PUBCHEM_CACTVS_COMPLEXITY>
296
> <PUBCHEM_CACTVS_HBOND_ACCEPTOR>
6
> <PUBCHEM_CACTVS_HBOND_DONOR>
2
> <PUBCHEM_CACTVS_ROTATABLE_BOND>
2
> <PUBCHEM_CACTVS_SUBSKEYS>
AAADccBzMABAAAAAAAAAAAAAAAAAAWLEgAAAAAAAAAAWAAAB+AAAHgQASAAACBzh1gYH0bcMFgCkAQRhZACB8D0xEKgBWDQ4VBiBeAJAyMAeRAxPAALDQCCwMAIAAAAAAAAAAAAAAAAAAAAAAAAAAAAAAA==
> <PUBCHEM_IUPAC_OPENEYE_NAME>
(2R,3S,5R)-2-(hydroxymethyl)-5-(3-methylimidazo[4,5-d]isothiazol-6-yl)tetrahydrofuran-3-ol
> <PUBCHEM_IUPAC_CAS_NAME>
(2R,3S,5R)-2-(hydroxymethyl)-5-(3-methyl-6-imidazo[4,5-d]isothiazolyl)-3-oxolanol
> <PUBCHEM_IUPAC_NAME_MARKUP>
(2<I>R</I>,3<I>S</I>,5<I>R</I>)-2-(hydroxymethyl)-5-(3-methylimidazo[4,5-d][1,2]thiazol-6-yl)oxolan-3-ol
> <PUBCHEM_IUPAC_NAME>
(2R,3S,5R)-2-(hydroxymethyl)-5-(3-methylimidazo[4,5-d][1,2]thiazol-6-yl)oxolan-3-ol
> <PUBCHEM_IUPAC_SYSTEMATIC_NAME>
(2R,3S,5R)-2-(hydroxymethyl)-5-(3-methylimidazo[4,5-d][1,2]thiazol-6-yl)oxolan-3-ol
> <PUBCHEM_IUPAC_TRADITIONAL_NAME>
(2R,3S,5R)-5-(3-methylimidaz[4,5-d]isothiazol-6-yl)-2-methylol-tetrahydrofuran-3-ol
> <PUBCHEM_IUPAC_INCHI>
InChI=1S/C10H13N3O3S/c1-5-9-10(17-12-5)13(4-11-9)8-2-6(15)7(3-14)16-8/h4,6-8,14-15H,2-3H2,1H3/t6-,7+,8+/m0/s1
> <PUBCHEM_IUPAC_INCHIKEY>
UDVLRBJYEJLMMD-XLPZGREQSA-N
> <PUBCHEM_XLOGP3_AA>
0.6
> <PUBCHEM_EXACT_MASS>
255.06776246
> <PUBCHEM_MOLECULAR_FORMULA>
C10H13N3O3S
> <PUBCHEM_MOLECULAR_WEIGHT>
255.30
> <PUBCHEM_OPENEYE_CAN_SMILES>
CC1=NSC2=C1N=CN2C3CC(C(O3)CO)O
> <PUBCHEM_OPENEYE_ISO_SMILES>
CC1=NSC2=C1N=CN2[C@H]3C[C@@H]([C@H](O3)CO)O
> <PUBCHEM_CACTVS_TPSA>
109
> <PUBCHEM_MONOISOTOPIC_WEIGHT>
255.06776246
> <PUBCHEM_TOTAL_CHARGE>
0
> <PUBCHEM_HEAVY_ATOM_COUNT>
17
> <PUBCHEM_ATOM_DEF_STEREO_COUNT>
3
> <PUBCHEM_ATOM_UDEF_STEREO_COUNT>
0
> <PUBCHEM_BOND_DEF_STEREO_COUNT>
0
> <PUBCHEM_BOND_UDEF_STEREO_COUNT>
0
> <PUBCHEM_ISOTOPIC_ATOM_COUNT>
0
> <PUBCHEM_COMPONENT_COUNT>
1
> <PUBCHEM_CACTVS_TAUTO_COUNT>
-1
> <PUBCHEM_COORDINATE_TYPE>
1
5
255
> <PUBCHEM_BONDANNOTATIONS>
1  13  8
1  7  8
11  12  6
13  15  8
15  16  8
9  3  5
5  13  8
5  14  8
8  5  6
6  14  8
6  15  8
7  16  8
$$$$
