516050
  -OEChem-10302200282D
 35 37  0     1  0  0  0  0  0999 V2000
    7.1279   -2.2430    0.0000 Cl  0  0  0  0  0  0  0  0  0  0  0  0
    2.0000   -1.2430    0.0000 Cl  0  0  0  0  0  0  0  0  0  0  0  0
    2.0000   -3.2430    0.0000 Cl  0  0  0  0  0  0  0  0  0  0  0  0
    5.2686    0.3223    0.0000 O   0  0  0  0  0  0  0  0  0  0  0  0
    7.6146   -0.7696    0.0000 O   0  0  0  0  0  0  0  0  0  0  0  0
    7.6183    1.4060    0.0000 O   0  0  0  0  0  0  0  0  0  0  0  0
    4.5726    2.2914    0.0000 O   0  0  0  0  0  0  0  0  0  0  0  0
    5.5443   -1.4383    0.0000 N   0  0  0  0  0  0  0  0  0  0  0  0
    5.5443   -3.0478    0.0000 N   0  0  0  0  0  0  0  0  0  0  0  0
    6.8066   -0.1804    0.0000 C   0  0  1  0  0  0  0  0  0  0  0  0
    5.8550   -0.4878    0.0000 C   0  0  1  0  0  0  0  0  0  0  0  0
    6.8083    0.8196    0.0000 C   0  0  1  0  0  0  0  0  0  0  0  0
    5.8578    1.1302    0.0000 C   0  0  1  0  0  0  0  0  0  0  0  0
    5.5504    2.0818    0.0000 C   0  0  0  0  0  0  0  0  0  0  0  0
    4.5981   -1.7430    0.0000 C   0  0  0  0  0  0  0  0  0  0  0  0
    6.1279   -2.2430    0.0000 C   0  0  0  0  0  0  0  0  0  0  0  0
    4.5981   -2.7430    0.0000 C   0  0  0  0  0  0  0  0  0  0  0  0
    3.7320   -1.2430    0.0000 C   0  0  0  0  0  0  0  0  0  0  0  0
    3.7320   -3.2430    0.0000 C   0  0  0  0  0  0  0  0  0  0  0  0
    2.8660   -1.7430    0.0000 C   0  0  0  0  0  0  0  0  0  0  0  0
    2.8660   -2.7430    0.0000 C   0  0  0  0  0  0  0  0  0  0  0  0
    4.2652    3.2430    0.0000 C   0  0  0  0  0  0  0  0  0  0  0  0
    7.3595    0.1001    0.0000 H   0  0  0  0  0  0  0  0  0  0  0  0
    6.2926   -0.9269    0.0000 H   0  0  0  0  0  0  0  0  0  0  0  0
    7.3602    0.5372    0.0000 H   0  0  0  0  0  0  0  0  0  0  0  0
    5.2456    1.2283    0.0000 H   0  0  0  0  0  0  0  0  0  0  0  0
    6.1645    2.1671    0.0000 H   0  0  0  0  0  0  0  0  0  0  0  0
    5.5731    2.7014    0.0000 H   0  0  0  0  0  0  0  0  0  0  0  0
    8.1814   -0.5184    0.0000 H   0  0  0  0  0  0  0  0  0  0  0  0
    7.5546    2.0227    0.0000 H   0  0  0  0  0  0  0  0  0  0  0  0
    3.7320   -0.6230    0.0000 H   0  0  0  0  0  0  0  0  0  0  0  0
    3.7320   -3.8630    0.0000 H   0  0  0  0  0  0  0  0  0  0  0  0
    4.8552    3.4336    0.0000 H   0  0  0  0  0  0  0  0  0  0  0  0
    4.0747    3.8330    0.0000 H   0  0  0  0  0  0  0  0  0  0  0  0
    3.6752    3.0525    0.0000 H   0  0  0  0  0  0  0  0  0  0  0  0
  1 16  1  0  0  0  0
  2 20  1  0  0  0  0
  3 21  1  0  0  0  0
  4 11  1  0  0  0  0
  4 13  1  0  0  0  0
 10  5  1  1  0  0  0
  5 29  1  0  0  0  0
 12  6  1  1  0  0  0
  6 30  1  0  0  0  0
  7 14  1  0  0  0  0
  7 22  1  0  0  0  0
 11  8  1  6  0  0  0
  8 15  1  0  0  0  0
  8 16  1  0  0  0  0
  9 16  2  0  0  0  0
  9 17  1  0  0  0  0
 10 11  1  0  0  0  0
 10 12  1  0  0  0  0
 10 23  1  0  0  0  0
 11 24  1  0  0  0  0
 12 13  1  0  0  0  0
 12 25  1  0  0  0  0
 13 14  1  6  0  0  0
 13 26  1  0  0  0  0
 14 27  1  0  0  0  0
 14 28  1  0  0  0  0
 15 17  1  0  0  0  0
 15 18  2  0  0  0  0
 17 19  2  0  0  0  0
 18 20  1  0  0  0  0
 18 31  1  0  0  0  0
 19 21  1  0  0  0  0
 19 32  1  0  0  0  0
 20 21  2  0  0  0  0
 22 33  1  0  0  0  0
 22 34  1  0  0  0  0
 22 35  1  0  0  0  0
M  END
> <PUBCHEM_COMPOUND_CID>
516050
> <PUBCHEM_COMPOUND_CANONICALIZED>
1
> <PUBCHEM_CACTVS_COMPLEXITY>
408
> <PUBCHEM_CACTVS_HBOND_ACCEPTOR>
5
> <PUBCHEM_CACTVS_HBOND_DONOR>
2
> <PUBCHEM_CACTVS_ROTATABLE_BOND>
3
> <PUBCHEM_CACTVS_SUBSKEYS>
AAADccBzOAAGAAAAAAAAAAAAAAAAAWJAAAAwAAAAAAAAAFgB8AAAHgIACAAACB7hliYz0LcMFgCgASRiZACCgC0hF6AB2mA4dpiLeKLBmpGeYAhvgALbyCfwMAoAAABAAAIAACQAAIAABAAASAAAAAAAAA==
> <PUBCHEM_IUPAC_OPENEYE_NAME>
(2R,3S,4R,5R)-2-(methoxymethyl)-5-(2,5,6-trichlorobenzimidazol-1-yl)tetrahydrofuran-3,4-diol
> <PUBCHEM_IUPAC_CAS_NAME>
(2R,3S,4R,5R)-2-(methoxymethyl)-5-(2,5,6-trichloro-1-benzimidazolyl)oxolane-3,4-diol
> <PUBCHEM_IUPAC_NAME_MARKUP>
(2<I>R</I>,3<I>S</I>,4<I>R</I>,5<I>R</I>)-2-(methoxymethyl)-5-(2,5,6-trichlorobenzimidazol-1-yl)oxolane-3,4-diol
> <PUBCHEM_IUPAC_NAME>
(2R,3S,4R,5R)-2-(methoxymethyl)-5-(2,5,6-trichlorobenzimidazol-1-yl)oxolane-3,4-diol
> <PUBCHEM_IUPAC_SYSTEMATIC_NAME>
(2R,3S,4R,5R)-2-(methoxymethyl)-5-[2,5,6-tris(chloranyl)benzimidazol-1-yl]oxolane-3,4-diol
> <PUBCHEM_IUPAC_TRADITIONAL_NAME>
(2R,3S,4R,5R)-2-(methoxymethyl)-5-(2,5,6-trichlorobenzimidazol-1-yl)tetrahydrofuran-3,4-diol
> <PUBCHEM_IUPAC_INCHI>
InChI=1S/C13H13Cl3N2O4/c1-21-4-9-10(19)11(20)12(22-9)18-8-3-6(15)5(14)2-7(8)17-13(18)16/h2-3,9-12,19-20H,4H2,1H3/t9-,10-,11-,12-/m1/s1
> <PUBCHEM_IUPAC_INCHIKEY>
XMBMJXJVRHQYLU-DDHJBXDOSA-N
> <PUBCHEM_XLOGP3_AA>
2
> <PUBCHEM_EXACT_MASS>
365.994090
> <PUBCHEM_MOLECULAR_FORMULA>
C13H13Cl3N2O4
> <PUBCHEM_MOLECULAR_WEIGHT>
367.6
> <PUBCHEM_OPENEYE_CAN_SMILES>
COCC1C(C(C(O1)N2C3=CC(=C(C=C3N=C2Cl)Cl)Cl)O)O
> <PUBCHEM_OPENEYE_ISO_SMILES>
COC[C@@H]1[C@H]([C@H]([C@@H](O1)N2C3=CC(=C(C=C3N=C2Cl)Cl)Cl)O)O
> <PUBCHEM_CACTVS_TPSA>
76.7
> <PUBCHEM_MONOISOTOPIC_WEIGHT>
365.994090
> <PUBCHEM_TOTAL_CHARGE>
0
> <PUBCHEM_HEAVY_ATOM_COUNT>
22
> <PUBCHEM_ATOM_DEF_STEREO_COUNT>
4
> <PUBCHEM_ATOM_UDEF_STEREO_COUNT>
0
> <PUBCHEM_BOND_DEF_STEREO_COUNT>
0
> <PUBCHEM_BOND_UDEF_STEREO_COUNT>
0
> <PUBCHEM_ISOTOPIC_ATOM_COUNT>
0
> <PUBCHEM_COMPONENT_COUNT>
1
> <PUBCHEM_CACTVS_TAUTO_COUNT>
-1
> <PUBCHEM_COORDINATE_TYPE>
1
5
255
> <PUBCHEM_BONDANNOTATIONS>
13  14  6
15  17  8
15  18  8
17  19  8
18  20  8
19  21  8
20  21  8
10  5  5
12  6  5
11  8  6
8  15  8
8  16  8
9  16  8
9  17  8
$$$$
