516075
  -OEChem-10302200282D
 34 36  0     1  0  0  0  0  0999 V2000
    7.3815    0.5467    0.0000 S   0  0  0  0  0  0  0  0  0  0  0  0
    3.8964    1.3514    0.0000 S   0  0  0  0  0  0  0  0  0  0  0  0
    4.2242   -0.7177    0.0000 O   0  0  0  0  0  0  0  0  0  0  0  0
    5.4842   -2.9778    0.0000 O   0  0  0  0  0  0  0  0  0  0  0  0
    2.5016   -1.8987    0.0000 O   0  0  0  0  0  0  0  0  0  0  0  0
    5.4842    0.5424    0.0000 N   0  0  0  0  0  0  0  0  0  0  0  0
    5.4842    2.1604    0.0000 N   0  0  0  0  0  0  0  0  0  0  0  0
    7.9651    1.3514    0.0000 N   0  0  0  0  0  0  0  0  0  0  0  0
    5.1752   -0.4087    0.0000 C   0  0  1  0  0  0  0  0  0  0  0  0
    5.7630   -1.2177    0.0000 C   0  0  0  0  0  0  0  0  0  0  0  0
    5.1752   -2.0267    0.0000 C   0  0  1  0  0  0  0  0  0  0  0  0
    4.2242   -1.7177    0.0000 C   0  0  1  0  0  0  0  0  0  0  0  0
    3.4151   -2.3055    0.0000 C   0  0  0  0  0  0  0  0  0  0  0  0
    6.4353    0.8514    0.0000 C   0  0  0  0  0  0  0  0  0  0  0  0
    4.8964    1.3514    0.0000 C   0  0  0  0  0  0  0  0  0  0  0  0
    6.4353    1.8514    0.0000 C   0  0  0  0  0  0  0  0  0  0  0  0
    7.3815    2.1561    0.0000 C   0  0  0  0  0  0  0  0  0  0  0  0
    7.6922    3.1067    0.0000 C   0  0  0  0  0  0  0  0  0  0  0  0
    3.3964    2.2174    0.0000 C   0  0  0  0  0  0  0  0  0  0  0  0
    4.7368    0.0297    0.0000 H   0  0  0  0  0  0  0  0  0  0  0  0
    6.2237   -1.6325    0.0000 H   0  0  0  0  0  0  0  0  0  0  0  0
    6.2237   -0.8028    0.0000 H   0  0  0  0  0  0  0  0  0  0  0  0
    4.7368   -2.4651    0.0000 H   0  0  0  0  0  0  0  0  0  0  0  0
    3.6717   -1.4362    0.0000 H   0  0  0  0  0  0  0  0  0  0  0  0
    3.0684   -2.8195    0.0000 H   0  0  0  0  0  0  0  0  0  0  0  0
    3.8611   -2.7362    0.0000 H   0  0  0  0  0  0  0  0  0  0  0  0
    6.0907   -3.1067    0.0000 H   0  0  0  0  0  0  0  0  0  0  0  0
    2.0000   -2.2632    0.0000 H   0  0  0  0  0  0  0  0  0  0  0  0
    8.2815    2.9140    0.0000 H   0  0  0  0  0  0  0  0  0  0  0  0
    7.8848    3.6960    0.0000 H   0  0  0  0  0  0  0  0  0  0  0  0
    7.1028    3.2993    0.0000 H   0  0  0  0  0  0  0  0  0  0  0  0
    3.9334    2.5274    0.0000 H   0  0  0  0  0  0  0  0  0  0  0  0
    3.0864    2.7544    0.0000 H   0  0  0  0  0  0  0  0  0  0  0  0
    2.8595    1.9074    0.0000 H   0  0  0  0  0  0  0  0  0  0  0  0
  1  8  1  0  0  0  0
  1 14  1  0  0  0  0
  2 15  1  0  0  0  0
  2 19  1  0  0  0  0
  3  9  1  0  0  0  0
  3 12  1  0  0  0  0
 11  4  1  6  0  0  0
  4 27  1  0  0  0  0
  5 13  1  0  0  0  0
  5 28  1  0  0  0  0
  9  6  1  1  0  0  0
  6 14  1  0  0  0  0
  6 15  1  0  0  0  0
  7 15  2  0  0  0  0
  7 16  1  0  0  0  0
  8 17  2  0  0  0  0
  9 10  1  0  0  0  0
  9 20  1  0  0  0  0
 10 11  1  0  0  0  0
 10 21  1  0  0  0  0
 10 22  1  0  0  0  0
 11 12  1  0  0  0  0
 11 23  1  0  0  0  0
 12 13  1  1  0  0  0
 12 24  1  0  0  0  0
 13 25  1  0  0  0  0
 13 26  1  0  0  0  0
 14 16  2  0  0  0  0
 16 17  1  0  0  0  0
 17 18  1  0  0  0  0
 18 29  1  0  0  0  0
 18 30  1  0  0  0  0
 18 31  1  0  0  0  0
 19 32  1  0  0  0  0
 19 33  1  0  0  0  0
 19 34  1  0  0  0  0
M  END
> <PUBCHEM_COMPOUND_CID>
516075
> <PUBCHEM_COMPOUND_CANONICALIZED>
1
> <PUBCHEM_CACTVS_COMPLEXITY>
338
> <PUBCHEM_CACTVS_HBOND_ACCEPTOR>
7
> <PUBCHEM_CACTVS_HBOND_DONOR>
2
> <PUBCHEM_CACTVS_ROTATABLE_BOND>
3
> <PUBCHEM_CACTVS_SUBSKEYS>
AAADccBzMABgAAAAAAAAAAAAAAAAAWLEgAAAAAAAAAAWAAAB+AAAHgQASAAACBzh1gaD0bcMFgikAQRgZACB8D1hEKgBWDQ4VBiBeAJAyMAeRAxPAALDQCCwMAIAAAAAAAAAAAAAAAAAAAAAAAAAAAAAAA==
> <PUBCHEM_IUPAC_OPENEYE_NAME>
(2R,3S,5R)-2-(hydroxymethyl)-5-(3-methyl-5-methylsulfanyl-imidazo[4,5-d]isothiazol-6-yl)tetrahydrofuran-3-ol
> <PUBCHEM_IUPAC_CAS_NAME>
(2R,3S,5R)-2-(hydroxymethyl)-5-[3-methyl-5-(methylthio)-6-imidazo[4,5-d]isothiazolyl]-3-oxolanol
> <PUBCHEM_IUPAC_NAME_MARKUP>
(2<I>R</I>,3<I>S</I>,5<I>R</I>)-2-(hydroxymethyl)-5-(3-methyl-5-methylsulfanylimidazo[4,5-d][1,2]thiazol-6-yl)oxolan-3-ol
> <PUBCHEM_IUPAC_NAME>
(2R,3S,5R)-2-(hydroxymethyl)-5-(3-methyl-5-methylsulfanylimidazo[4,5-d][1,2]thiazol-6-yl)oxolan-3-ol
> <PUBCHEM_IUPAC_SYSTEMATIC_NAME>
(2R,3S,5R)-2-(hydroxymethyl)-5-(3-methyl-5-methylsulfanyl-imidazo[4,5-d][1,2]thiazol-6-yl)oxolan-3-ol
> <PUBCHEM_IUPAC_TRADITIONAL_NAME>
(2R,3S,5R)-5-[3-methyl-5-(methylthio)imidaz[4,5-d]isothiazol-6-yl]-2-methylol-tetrahydrofuran-3-ol
> <PUBCHEM_IUPAC_INCHI>
InChI=1S/C11H15N3O3S2/c1-5-9-10(19-13-5)14(11(12-9)18-2)8-3-6(16)7(4-15)17-8/h6-8,15-16H,3-4H2,1-2H3/t6-,7+,8+/m0/s1
> <PUBCHEM_IUPAC_INCHIKEY>
ADJSONSNJKCVQB-XLPZGREQSA-N
> <PUBCHEM_XLOGP3_AA>
1.4
> <PUBCHEM_EXACT_MASS>
301.05548370
> <PUBCHEM_MOLECULAR_FORMULA>
C11H15N3O3S2
> <PUBCHEM_MOLECULAR_WEIGHT>
301.4
> <PUBCHEM_OPENEYE_CAN_SMILES>
CC1=NSC2=C1N=C(N2C3CC(C(O3)CO)O)SC
> <PUBCHEM_OPENEYE_ISO_SMILES>
CC1=NSC2=C1N=C(N2[C@H]3C[C@@H]([C@H](O3)CO)O)SC
> <PUBCHEM_CACTVS_TPSA>
134
> <PUBCHEM_MONOISOTOPIC_WEIGHT>
301.05548370
> <PUBCHEM_TOTAL_CHARGE>
0
> <PUBCHEM_HEAVY_ATOM_COUNT>
19
> <PUBCHEM_ATOM_DEF_STEREO_COUNT>
3
> <PUBCHEM_ATOM_UDEF_STEREO_COUNT>
0
> <PUBCHEM_BOND_DEF_STEREO_COUNT>
0
> <PUBCHEM_BOND_UDEF_STEREO_COUNT>
0
> <PUBCHEM_ISOTOPIC_ATOM_COUNT>
0
> <PUBCHEM_COMPONENT_COUNT>
1
> <PUBCHEM_CACTVS_TAUTO_COUNT>
-1
> <PUBCHEM_COORDINATE_TYPE>
1
5
255
> <PUBCHEM_BONDANNOTATIONS>
1  14  8
1  8  8
12  13  5
14  16  8
16  17  8
11  4  6
6  14  8
6  15  8
9  6  5
7  15  8
7  16  8
8  17  8
$$$$
