516048
  -OEChem-10302200282D
 43 45  0     1  0  0  0  0  0999 V2000
    7.1279   -2.7188    0.0000 Cl  0  0  0  0  0  0  0  0  0  0  0  0
    2.0000   -1.7188    0.0000 Cl  0  0  0  0  0  0  0  0  0  0  0  0
    2.0000   -3.7188    0.0000 Cl  0  0  0  0  0  0  0  0  0  0  0  0
    5.2686   -0.1535    0.0000 O   0  0  0  0  0  0  0  0  0  0  0  0
    7.6146   -1.2454    0.0000 O   0  0  0  0  0  0  0  0  0  0  0  0
    7.6183    0.9302    0.0000 O   0  0  0  0  0  0  0  0  0  0  0  0
    8.6350    0.1541    0.0000 O   0  0  0  0  0  0  0  0  0  0  0  0
    6.6027    2.3332    0.0000 O   0  0  0  0  0  0  0  0  0  0  0  0
    5.5443   -1.9141    0.0000 N   0  0  0  0  0  0  0  0  0  0  0  0
    5.5443   -3.5236    0.0000 N   0  0  0  0  0  0  0  0  0  0  0  0
    4.5726    1.8156    0.0000 N   0  0  0  0  0  0  0  0  0  0  0  0
    4.2652    2.7672    0.0000 N   0  3  0  0  0  0  0  0  0  0  0  0
    3.9579    3.7188    0.0000 N   0  5  0  0  0  0  0  0  0  0  0  0
    6.8066   -0.6562    0.0000 C   0  0  2  0  0  0  0  0  0  0  0  0
    6.8083    0.3438    0.0000 C   0  0  1  0  0  0  0  0  0  0  0  0
    5.8550   -0.9636    0.0000 C   0  0  1  0  0  0  0  0  0  0  0  0
    5.8578    0.6545    0.0000 C   0  0  1  0  0  0  0  0  0  0  0  0
    5.5504    1.6060    0.0000 C   0  0  0  0  0  0  0  0  0  0  0  0
    4.5981   -2.2188    0.0000 C   0  0  0  0  0  0  0  0  0  0  0  0
    6.1279   -2.7188    0.0000 C   0  0  0  0  0  0  0  0  0  0  0  0
    4.5981   -3.2188    0.0000 C   0  0  0  0  0  0  0  0  0  0  0  0
    3.7320   -1.7188    0.0000 C   0  0  0  0  0  0  0  0  0  0  0  0
    8.5288   -0.8402    0.0000 C   0  0  0  0  0  0  0  0  0  0  0  0
    7.5155    1.9249    0.0000 C   0  0  0  0  0  0  0  0  0  0  0  0
    3.7320   -3.7188    0.0000 C   0  0  0  0  0  0  0  0  0  0  0  0
    2.8660   -2.2188    0.0000 C   0  0  0  0  0  0  0  0  0  0  0  0
    2.8660   -3.2188    0.0000 C   0  0  0  0  0  0  0  0  0  0  0  0
    9.3368   -1.4294    0.0000 C   0  0  0  0  0  0  0  0  0  0  0  0
    8.3255    2.5113    0.0000 C   0  0  0  0  0  0  0  0  0  0  0  0
    7.3595   -0.3757    0.0000 H   0  0  0  0  0  0  0  0  0  0  0  0
    6.7124    0.9563    0.0000 H   0  0  0  0  0  0  0  0  0  0  0  0
    6.2926   -1.4027    0.0000 H   0  0  0  0  0  0  0  0  0  0  0  0
    5.2456    0.7525    0.0000 H   0  0  0  0  0  0  0  0  0  0  0  0
    6.1645    1.6913    0.0000 H   0  0  0  0  0  0  0  0  0  0  0  0
    5.5731    2.2256    0.0000 H   0  0  0  0  0  0  0  0  0  0  0  0
    3.7320   -1.0988    0.0000 H   0  0  0  0  0  0  0  0  0  0  0  0
    3.7320   -4.3388    0.0000 H   0  0  0  0  0  0  0  0  0  0  0  0
    8.9715   -1.9304    0.0000 H   0  0  0  0  0  0  0  0  0  0  0  0
    9.8378   -1.7947    0.0000 H   0  0  0  0  0  0  0  0  0  0  0  0
    9.7021   -0.9285    0.0000 H   0  0  0  0  0  0  0  0  0  0  0  0
    8.6891    2.0090    0.0000 H   0  0  0  0  0  0  0  0  0  0  0  0
    8.8278    2.8748    0.0000 H   0  0  0  0  0  0  0  0  0  0  0  0
    7.9620    3.0135    0.0000 H   0  0  0  0  0  0  0  0  0  0  0  0
  1 20  1  0  0  0  0
  2 26  1  0  0  0  0
  3 27  1  0  0  0  0
  4 16  1  0  0  0  0
  4 17  1  0  0  0  0
 14  5  1  1  0  0  0
  5 23  1  0  0  0  0
 15  6  1  1  0  0  0
  6 24  1  0  0  0  0
  7 23  2  0  0  0  0
  8 24  2  0  0  0  0
 16  9  1  6  0  0  0
  9 19  1  0  0  0  0
  9 20  1  0  0  0  0
 10 20  2  0  0  0  0
 10 21  1  0  0  0  0
 11 12  2  0  0  0  0
 11 18  1  0  0  0  0
 12 13  2  0  0  0  0
 14 15  1  0  0  0  0
 14 16  1  0  0  0  0
 14 30  1  0  0  0  0
 15 17  1  0  0  0  0
 15 31  1  0  0  0  0
 16 32  1  0  0  0  0
 17 18  1  6  0  0  0
 17 33  1  0  0  0  0
 18 34  1  0  0  0  0
 18 35  1  0  0  0  0
 19 21  1  0  0  0  0
 19 22  2  0  0  0  0
 21 25  2  0  0  0  0
 22 26  1  0  0  0  0
 22 36  1  0  0  0  0
 23 28  1  0  0  0  0
 24 29  1  0  0  0  0
 25 27  1  0  0  0  0
 25 37  1  0  0  0  0
 26 27  2  0  0  0  0
 28 38  1  0  0  0  0
 28 39  1  0  0  0  0
 28 40  1  0  0  0  0
 29 41  1  0  0  0  0
 29 42  1  0  0  0  0
 29 43  1  0  0  0  0
M  CHG  2  12   1  13  -1
M  END
> <PUBCHEM_COMPOUND_CID>
516048
> <PUBCHEM_COMPOUND_CANONICALIZED>
1
> <PUBCHEM_CACTVS_COMPLEXITY>
696
> <PUBCHEM_CACTVS_HBOND_ACCEPTOR>
8
> <PUBCHEM_CACTVS_HBOND_DONOR>
0
> <PUBCHEM_CACTVS_ROTATABLE_BOND>
7
> <PUBCHEM_CACTVS_SUBSKEYS>
AAADccB7uAAGAAAAAAAAAAAAAAAAAWJAAAAwAAAAAAAAAFgB8AAAHgIIAAAACB7hliYz2LcMFACqASTybACCgC0hF6AB2mA4dpiLaKLBmpGfIAhvgALayCewEAAAAABAAAIAACQAAIAABAAASAAAAAAAAA==
> <PUBCHEM_IUPAC_OPENEYE_NAME>
[(2R,3R,4R,5R)-4-acetoxy-2-(azidomethyl)-5-(2,5,6-trichlorobenzimidazol-1-yl)tetrahydrofuran-3-yl] acetate
> <PUBCHEM_IUPAC_CAS_NAME>
acetic acid [(2R,3R,4R,5R)-4-acetyloxy-2-(azidomethyl)-5-(2,5,6-trichloro-1-benzimidazolyl)-3-oxolanyl] ester
> <PUBCHEM_IUPAC_NAME_MARKUP>
[(2<I>R</I>,3<I>R</I>,4<I>R</I>,5<I>R</I>)-4-acetyloxy-2-(azidomethyl)-5-(2,5,6-trichlorobenzimidazol-1-yl)oxolan-3-yl] acetate
> <PUBCHEM_IUPAC_NAME>
[(2R,3R,4R,5R)-4-acetyloxy-2-(azidomethyl)-5-(2,5,6-trichlorobenzimidazol-1-yl)oxolan-3-yl] acetate
> <PUBCHEM_IUPAC_SYSTEMATIC_NAME>
[(2R,3R,4R,5R)-4-acetyloxy-2-(azidomethyl)-5-[2,5,6-tris(chloranyl)benzimidazol-1-yl]oxolan-3-yl] ethanoate
> <PUBCHEM_IUPAC_TRADITIONAL_NAME>
acetic acid [(2R,3R,4R,5R)-4-acetoxy-2-(azidomethyl)-5-(2,5,6-trichlorobenzimidazol-1-yl)tetrahydrofuran-3-yl] ester
> <PUBCHEM_IUPAC_INCHI>
InChI=1S/C16H14Cl3N5O5/c1-6(25)27-13-12(5-21-23-20)29-15(14(13)28-7(2)26)24-11-4-9(18)8(17)3-10(11)22-16(24)19/h3-4,12-15H,5H2,1-2H3/t12-,13-,14-,15-/m1/s1
> <PUBCHEM_IUPAC_INCHIKEY>
LWKOQMLQLISUER-KBUPBQIOSA-N
> <PUBCHEM_XLOGP3_AA>
4.2
> <PUBCHEM_EXACT_MASS>
461.006052
> <PUBCHEM_MOLECULAR_FORMULA>
C16H14Cl3N5O5
> <PUBCHEM_MOLECULAR_WEIGHT>
462.7
> <PUBCHEM_OPENEYE_CAN_SMILES>
CC(=O)OC1C(OC(C1OC(=O)C)N2C3=CC(=C(C=C3N=C2Cl)Cl)Cl)CN=[N+]=[N-]
> <PUBCHEM_OPENEYE_ISO_SMILES>
CC(=O)O[C@@H]1[C@H](O[C@H]([C@@H]1OC(=O)C)N2C3=CC(=C(C=C3N=C2Cl)Cl)Cl)CN=[N+]=[N-]
> <PUBCHEM_CACTVS_TPSA>
94
> <PUBCHEM_MONOISOTOPIC_WEIGHT>
461.006052
> <PUBCHEM_TOTAL_CHARGE>
0
> <PUBCHEM_HEAVY_ATOM_COUNT>
29
> <PUBCHEM_ATOM_DEF_STEREO_COUNT>
4
> <PUBCHEM_ATOM_UDEF_STEREO_COUNT>
0
> <PUBCHEM_BOND_DEF_STEREO_COUNT>
0
> <PUBCHEM_BOND_UDEF_STEREO_COUNT>
0
> <PUBCHEM_ISOTOPIC_ATOM_COUNT>
0
> <PUBCHEM_COMPONENT_COUNT>
1
> <PUBCHEM_CACTVS_TAUTO_COUNT>
-1
> <PUBCHEM_COORDINATE_TYPE>
1
5
255
> <PUBCHEM_BONDANNOTATIONS>
10  20  8
10  21  8
17  18  6
19  21  8
19  22  8
21  25  8
22  26  8
25  27  8
26  27  8
14  5  5
15  6  5
16  9  6
9  19  8
9  20  8
$$$$
