516016
  -OEChem-10302200282D
 71 72  0     1  0  0  0  0  0999 V2000
    7.1962    0.7500    0.0000 O   0  0  0  0  0  0  0  0  0  0  0  0
    9.7942   -1.7500    0.0000 O   0  0  0  0  0  0  0  0  0  0  0  0
    5.4641    2.7500    0.0000 O   0  0  0  0  0  0  0  0  0  0  0  0
    6.3301    1.2500    0.0000 O   0  0  0  0  0  0  0  0  0  0  0  0
   13.2583   -0.7500    0.0000 O   0  0  0  0  0  0  0  0  0  0  0  0
    8.9282    0.7500    0.0000 N   0  0  0  0  0  0  0  0  0  0  0  0
    7.1962    2.7500    0.0000 N   0  0  0  0  0  0  0  0  0  0  0  0
   10.6603   -0.2500    0.0000 N   0  0  0  0  0  0  0  0  0  0  0  0
   12.3923   -4.2500    0.0000 N   0  0  0  0  0  0  0  0  0  0  0  0
    8.9282    2.7500    0.0000 C   0  0  0  0  0  0  0  0  0  0  0  0
    8.0622    2.2500    0.0000 C   0  0  1  0  0  0  0  0  0  0  0  0
    8.9282    3.7500    0.0000 C   0  0  0  0  0  0  0  0  0  0  0  0
    8.9282   -0.2500    0.0000 C   0  0  1  0  0  0  0  0  0  0  0  0
    8.0622    1.2500    0.0000 C   0  0  0  0  0  0  0  0  0  0  0  0
    8.0622   -0.7500    0.0000 C   0  0  0  0  0  0  0  0  0  0  0  0
    9.7942    4.2500    0.0000 C   0  0  0  0  0  0  0  0  0  0  0  0
    8.0622    4.2500    0.0000 C   0  0  0  0  0  0  0  0  0  0  0  0
    9.7942   -0.7500    0.0000 C   0  0  0  0  0  0  0  0  0  0  0  0
    8.0622   -1.7500    0.0000 C   0  0  0  0  0  0  0  0  0  0  0  0
   11.5263   -0.7500    0.0000 C   0  0  1  0  0  0  0  0  0  0  0  0
   11.5263   -1.7500    0.0000 C   0  0  0  0  0  0  0  0  0  0  0  0
    6.3301    2.2500    0.0000 C   0  0  0  0  0  0  0  0  0  0  0  0
    8.9282   -2.2500    0.0000 C   0  0  0  0  0  0  0  0  0  0  0  0
    7.1962   -2.2500    0.0000 C   0  0  0  0  0  0  0  0  0  0  0  0
   12.3923   -2.2500    0.0000 C   0  0  0  0  0  0  0  0  0  0  0  0
   12.3923   -0.2500    0.0000 C   0  0  0  0  0  0  0  0  0  0  0  0
    8.9282   -3.2500    0.0000 C   0  0  0  0  0  0  0  0  0  0  0  0
    7.1962   -3.2500    0.0000 C   0  0  0  0  0  0  0  0  0  0  0  0
    8.0622   -3.7500    0.0000 C   0  0  0  0  0  0  0  0  0  0  0  0
    4.5981    2.2500    0.0000 C   0  0  0  0  0  0  0  0  0  0  0  0
    3.7320    2.7500    0.0000 C   0  0  0  0  0  0  0  0  0  0  0  0
   12.3923   -3.2500    0.0000 C   0  0  0  0  0  0  0  0  0  0  0  0
    3.7320    3.7500    0.0000 C   0  0  0  0  0  0  0  0  0  0  0  0
    2.8660    2.2500    0.0000 C   0  0  0  0  0  0  0  0  0  0  0  0
    2.8660    4.2500    0.0000 C   0  0  0  0  0  0  0  0  0  0  0  0
    2.0000    2.7500    0.0000 C   0  0  0  0  0  0  0  0  0  0  0  0
    2.0000    3.7500    0.0000 C   0  0  0  0  0  0  0  0  0  0  0  0
    9.1403    2.1674    0.0000 H   0  0  0  0  0  0  0  0  0  0  0  0
    9.5388    2.8577    0.0000 H   0  0  0  0  0  0  0  0  0  0  0  0
    8.0622    2.8700    0.0000 H   0  0  0  0  0  0  0  0  0  0  0  0
    9.4651    3.4400    0.0000 H   0  0  0  0  0  0  0  0  0  0  0  0
    9.4651    0.0600    0.0000 H   0  0  0  0  0  0  0  0  0  0  0  0
    9.4651    1.0600    0.0000 H   0  0  0  0  0  0  0  0  0  0  0  0
    7.8501   -0.1674    0.0000 H   0  0  0  0  0  0  0  0  0  0  0  0
    7.4516   -0.8577    0.0000 H   0  0  0  0  0  0  0  0  0  0  0  0
   10.1042    3.7131    0.0000 H   0  0  0  0  0  0  0  0  0  0  0  0
   10.3312    4.5600    0.0000 H   0  0  0  0  0  0  0  0  0  0  0  0
    9.4842    4.7869    0.0000 H   0  0  0  0  0  0  0  0  0  0  0  0
    8.3722    4.7869    0.0000 H   0  0  0  0  0  0  0  0  0  0  0  0
    7.5252    4.5600    0.0000 H   0  0  0  0  0  0  0  0  0  0  0  0
    7.7522    3.7131    0.0000 H   0  0  0  0  0  0  0  0  0  0  0  0
    7.1962    3.3700    0.0000 H   0  0  0  0  0  0  0  0  0  0  0  0
   10.9893   -1.0600    0.0000 H   0  0  0  0  0  0  0  0  0  0  0  0
   10.6603    0.3700    0.0000 H   0  0  0  0  0  0  0  0  0  0  0  0
   10.9157   -1.6423    0.0000 H   0  0  0  0  0  0  0  0  0  0  0  0
   11.3142   -2.3326    0.0000 H   0  0  0  0  0  0  0  0  0  0  0  0
    9.4651   -1.9400    0.0000 H   0  0  0  0  0  0  0  0  0  0  0  0
    6.6592   -1.9400    0.0000 H   0  0  0  0  0  0  0  0  0  0  0  0
   13.0029   -2.3577    0.0000 H   0  0  0  0  0  0  0  0  0  0  0  0
   12.6044   -1.6674    0.0000 H   0  0  0  0  0  0  0  0  0  0  0  0
   12.3923    0.3700    0.0000 H   0  0  0  0  0  0  0  0  0  0  0  0
    9.4651   -3.5600    0.0000 H   0  0  0  0  0  0  0  0  0  0  0  0
    6.6592   -3.5600    0.0000 H   0  0  0  0  0  0  0  0  0  0  0  0
    8.0622   -4.3700    0.0000 H   0  0  0  0  0  0  0  0  0  0  0  0
    4.1996    1.7750    0.0000 H   0  0  0  0  0  0  0  0  0  0  0  0
    4.9966    1.7750    0.0000 H   0  0  0  0  0  0  0  0  0  0  0  0
    4.2690    4.0600    0.0000 H   0  0  0  0  0  0  0  0  0  0  0  0
    2.8660    1.6300    0.0000 H   0  0  0  0  0  0  0  0  0  0  0  0
    2.8660    4.8700    0.0000 H   0  0  0  0  0  0  0  0  0  0  0  0
    1.4631    2.4400    0.0000 H   0  0  0  0  0  0  0  0  0  0  0  0
    1.4631    4.0600    0.0000 H   0  0  0  0  0  0  0  0  0  0  0  0
  1 14  2  0  0  0  0
  2 18  2  0  0  0  0
  3 22  1  0  0  0  0
  3 30  1  0  0  0  0
  4 22  2  0  0  0  0
  5 26  2  0  0  0  0
 13  6  1  6  0  0  0
  6 14  1  0  0  0  0
  6 43  1  0  0  0  0
 11  7  1  1  0  0  0
  7 22  1  0  0  0  0
  7 52  1  0  0  0  0
  8 18  1  0  0  0  0
 20  8  1  6  0  0  0
  8 54  1  0  0  0  0
  9 32  3  0  0  0  0
 10 11  1  0  0  0  0
 10 12  1  0  0  0  0
 10 38  1  0  0  0  0
 10 39  1  0  0  0  0
 11 14  1  0  0  0  0
 11 40  1  0  0  0  0
 12 16  1  0  0  0  0
 12 17  1  0  0  0  0
 12 41  1  0  0  0  0
 13 15  1  0  0  0  0
 13 18  1  0  0  0  0
 13 42  1  0  0  0  0
 15 19  1  0  0  0  0
 15 44  1  0  0  0  0
 15 45  1  0  0  0  0
 16 46  1  0  0  0  0
 16 47  1  0  0  0  0
 16 48  1  0  0  0  0
 17 49  1  0  0  0  0
 17 50  1  0  0  0  0
 17 51  1  0  0  0  0
 19 23  2  0  0  0  0
 19 24  1  0  0  0  0
 20 21  1  0  0  0  0
 20 26  1  0  0  0  0
 20 53  1  0  0  0  0
 21 25  1  0  0  0  0
 21 55  1  0  0  0  0
 21 56  1  0  0  0  0
 23 27  1  0  0  0  0
 23 57  1  0  0  0  0
 24 28  2  0  0  0  0
 24 58  1  0  0  0  0
 25 32  1  0  0  0  0
 25 59  1  0  0  0  0
 25 60  1  0  0  0  0
 26 61  1  0  0  0  0
 27 29  2  0  0  0  0
 27 62  1  0  0  0  0
 28 29  1  0  0  0  0
 28 63  1  0  0  0  0
 29 64  1  0  0  0  0
 30 31  1  0  0  0  0
 30 65  1  0  0  0  0
 30 66  1  0  0  0  0
 31 33  2  0  0  0  0
 31 34  1  0  0  0  0
 33 35  1  0  0  0  0
 33 67  1  0  0  0  0
 34 36  2  0  0  0  0
 34 68  1  0  0  0  0
 35 37  2  0  0  0  0
 35 69  1  0  0  0  0
 36 37  1  0  0  0  0
 36 70  1  0  0  0  0
 37 71  1  0  0  0  0
M  END
> <PUBCHEM_COMPOUND_CID>
516016
> <PUBCHEM_COMPOUND_CANONICALIZED>
1
> <PUBCHEM_CACTVS_COMPLEXITY>
781
> <PUBCHEM_CACTVS_HBOND_ACCEPTOR>
6
> <PUBCHEM_CACTVS_HBOND_DONOR>
3
> <PUBCHEM_CACTVS_ROTATABLE_BOND>
15
> <PUBCHEM_CACTVS_SUBSKEYS>
AAADcfB7uAAAAAAAAAAAAAAAAAAAAAAAAAAwYAAAAAAAAAABQAAAHgAQAAAADSjhmAYyCILABACYBilSmAACAAAgAAAIiIGICIkI5jKAsTmcMAAk1gGIqA+YyKCOAAAAAAAAAAAAAAAAAAAAAAAAAAAAAA==
> <PUBCHEM_IUPAC_OPENEYE_NAME>
benzyl N-[(1S)-1-[[(1S)-1-benzyl-2-[[(1S)-3-cyano-1-formyl-propyl]amino]-2-oxo-ethyl]carbamoyl]-3-methyl-butyl]carbamate
> <PUBCHEM_IUPAC_CAS_NAME>
N-[(2S)-1-[[(2S)-1-[[(2S)-4-cyano-1-oxobutan-2-yl]amino]-1-oxo-3-phenylpropan-2-yl]amino]-4-methyl-1-oxopentan-2-yl]carbamic acid (phenylmethyl) ester
> <PUBCHEM_IUPAC_NAME_MARKUP>
benzyl <I>N</I>-[(2<I>S</I>)-1-[[(2<I>S</I>)-1-[[(2<I>S</I>)-4-cyano-1-oxobutan-2-yl]amino]-1-oxo-3-phenylpropan-2-yl]amino]-4-methyl-1-oxopentan-2-yl]carbamate
> <PUBCHEM_IUPAC_NAME>
benzyl N-[(2S)-1-[[(2S)-1-[[(2S)-4-cyano-1-oxobutan-2-yl]amino]-1-oxo-3-phenylpropan-2-yl]amino]-4-methyl-1-oxopentan-2-yl]carbamate
> <PUBCHEM_IUPAC_SYSTEMATIC_NAME>
(phenylmethyl) N-[(2S)-1-[[(2S)-1-[[(2S)-4-cyano-1-oxidanylidene-butan-2-yl]amino]-1-oxidanylidene-3-phenyl-propan-2-yl]amino]-4-methyl-1-oxidanylidene-pentan-2-yl]carbamate
> <PUBCHEM_IUPAC_TRADITIONAL_NAME>
N-[(1S)-1-[[(1S)-1-benzyl-2-[[(1S)-3-cyano-1-formyl-propyl]amino]-2-keto-ethyl]carbamoyl]-3-methyl-butyl]carbamic acid benzyl ester
> <PUBCHEM_IUPAC_INCHI>
InChI=1S/C28H34N4O5/c1-20(2)16-24(32-28(36)37-19-22-12-7-4-8-13-22)27(35)31-25(17-21-10-5-3-6-11-21)26(34)30-23(18-33)14-9-15-29/h3-8,10-13,18,20,23-25H,9,14,16-17,19H2,1-2H3,(H,30,34)(H,31,35)(H,32,36)/t23-,24-,25-/m0/s1
> <PUBCHEM_IUPAC_INCHIKEY>
GHRLSHKXNQUFND-SDHOMARFSA-N
> <PUBCHEM_XLOGP3_AA>
3.5
> <PUBCHEM_EXACT_MASS>
506.25292020
> <PUBCHEM_MOLECULAR_FORMULA>
C28H34N4O5
> <PUBCHEM_MOLECULAR_WEIGHT>
506.6
> <PUBCHEM_OPENEYE_CAN_SMILES>
CC(C)CC(C(=O)NC(CC1=CC=CC=C1)C(=O)NC(CCC#N)C=O)NC(=O)OCC2=CC=CC=C2
> <PUBCHEM_OPENEYE_ISO_SMILES>
CC(C)C[C@@H](C(=O)N[C@@H](CC1=CC=CC=C1)C(=O)N[C@@H](CCC#N)C=O)NC(=O)OCC2=CC=CC=C2
> <PUBCHEM_CACTVS_TPSA>
137
> <PUBCHEM_MONOISOTOPIC_WEIGHT>
506.25292020
> <PUBCHEM_TOTAL_CHARGE>
0
> <PUBCHEM_HEAVY_ATOM_COUNT>
37
> <PUBCHEM_ATOM_DEF_STEREO_COUNT>
3
> <PUBCHEM_ATOM_UDEF_STEREO_COUNT>
0
> <PUBCHEM_BOND_DEF_STEREO_COUNT>
0
> <PUBCHEM_BOND_UDEF_STEREO_COUNT>
0
> <PUBCHEM_ISOTOPIC_ATOM_COUNT>
0
> <PUBCHEM_COMPONENT_COUNT>
1
> <PUBCHEM_CACTVS_TAUTO_COUNT>
-1
> <PUBCHEM_COORDINATE_TYPE>
1
5
255
> <PUBCHEM_BONDANNOTATIONS>
19  23  8
19  24  8
23  27  8
24  28  8
27  29  8
28  29  8
31  33  8
31  34  8
33  35  8
34  36  8
35  37  8
36  37  8
13  6  6
11  7  5
20  8  6
$$$$
