516077
  -OEChem-10302200282D
 44 47  0     1  0  0  0  0  0999 V2000
    8.9851    0.8256    0.0000 S   0  0  0  0  0  0  0  0  0  0  0  0
    5.5000    1.6303    0.0000 S   0  0  0  0  0  0  0  0  0  0  0  0
    5.8277   -0.4388    0.0000 O   0  0  0  0  0  0  0  0  0  0  0  0
    7.0878   -2.6989    0.0000 O   0  0  0  0  0  0  0  0  0  0  0  0
    5.1232   -3.0211    0.0000 O   0  0  0  0  0  0  0  0  0  0  0  0
    7.0878    0.8213    0.0000 N   0  0  0  0  0  0  0  0  0  0  0  0
    7.0878    2.4393    0.0000 N   0  0  0  0  0  0  0  0  0  0  0  0
    9.5687    1.6303    0.0000 N   0  0  0  0  0  0  0  0  0  0  0  0
    6.7788   -0.1298    0.0000 C   0  0  1  0  0  0  0  0  0  0  0  0
    7.3666   -0.9388    0.0000 C   0  0  0  0  0  0  0  0  0  0  0  0
    6.7788   -1.7478    0.0000 C   0  0  1  0  0  0  0  0  0  0  0  0
    5.8277   -1.4388    0.0000 C   0  0  1  0  0  0  0  0  0  0  0  0
    5.0187   -2.0266    0.0000 C   0  0  0  0  0  0  0  0  0  0  0  0
    8.0388    1.1303    0.0000 C   0  0  0  0  0  0  0  0  0  0  0  0
    6.5000    1.6303    0.0000 C   0  0  0  0  0  0  0  0  0  0  0  0
    8.0388    2.1303    0.0000 C   0  0  0  0  0  0  0  0  0  0  0  0
    8.9851    2.4350    0.0000 C   0  0  0  0  0  0  0  0  0  0  0  0
    5.0000    2.4963    0.0000 C   0  0  0  0  0  0  0  0  0  0  0  0
    9.2957    3.3855    0.0000 C   0  0  0  0  0  0  0  0  0  0  0  0
    4.0000    2.4963    0.0000 C   0  0  0  0  0  0  0  0  0  0  0  0
    3.5000    1.6303    0.0000 C   0  0  0  0  0  0  0  0  0  0  0  0
    3.5000    3.3623    0.0000 C   0  0  0  0  0  0  0  0  0  0  0  0
    2.5000    1.6303    0.0000 C   0  0  0  0  0  0  0  0  0  0  0  0
    2.5000    3.3623    0.0000 C   0  0  0  0  0  0  0  0  0  0  0  0
    2.0000    2.4963    0.0000 C   0  0  0  0  0  0  0  0  0  0  0  0
    6.3404    0.3086    0.0000 H   0  0  0  0  0  0  0  0  0  0  0  0
    7.8273   -1.3537    0.0000 H   0  0  0  0  0  0  0  0  0  0  0  0
    7.8273   -0.5239    0.0000 H   0  0  0  0  0  0  0  0  0  0  0  0
    6.3404   -2.1862    0.0000 H   0  0  0  0  0  0  0  0  0  0  0  0
    5.2753   -1.1573    0.0000 H   0  0  0  0  0  0  0  0  0  0  0  0
    4.7469   -1.4693    0.0000 H   0  0  0  0  0  0  0  0  0  0  0  0
    4.4227   -2.1975    0.0000 H   0  0  0  0  0  0  0  0  0  0  0  0
    7.6942   -2.8278    0.0000 H   0  0  0  0  0  0  0  0  0  0  0  0
    4.6216   -3.3855    0.0000 H   0  0  0  0  0  0  0  0  0  0  0  0
    5.5826    2.7084    0.0000 H   0  0  0  0  0  0  0  0  0  0  0  0
    4.8923    3.1069    0.0000 H   0  0  0  0  0  0  0  0  0  0  0  0
    9.8850    3.1929    0.0000 H   0  0  0  0  0  0  0  0  0  0  0  0
    9.4883    3.9749    0.0000 H   0  0  0  0  0  0  0  0  0  0  0  0
    8.7064    3.5782    0.0000 H   0  0  0  0  0  0  0  0  0  0  0  0
    3.8100    1.0934    0.0000 H   0  0  0  0  0  0  0  0  0  0  0  0
    3.8100    3.8993    0.0000 H   0  0  0  0  0  0  0  0  0  0  0  0
    2.1900    1.0934    0.0000 H   0  0  0  0  0  0  0  0  0  0  0  0
    2.1900    3.8993    0.0000 H   0  0  0  0  0  0  0  0  0  0  0  0
    1.3800    2.4963    0.0000 H   0  0  0  0  0  0  0  0  0  0  0  0
  1  8  1  0  0  0  0
  1 14  1  0  0  0  0
  2 15  1  0  0  0  0
  2 18  1  0  0  0  0
  3  9  1  0  0  0  0
  3 12  1  0  0  0  0
 11  4  1  6  0  0  0
  4 33  1  0  0  0  0
  5 13  1  0  0  0  0
  5 34  1  0  0  0  0
  9  6  1  1  0  0  0
  6 14  1  0  0  0  0
  6 15  1  0  0  0  0
  7 15  2  0  0  0  0
  7 16  1  0  0  0  0
  8 17  2  0  0  0  0
  9 10  1  0  0  0  0
  9 26  1  0  0  0  0
 10 11  1  0  0  0  0
 10 27  1  0  0  0  0
 10 28  1  0  0  0  0
 11 12  1  0  0  0  0
 11 29  1  0  0  0  0
 12 13  1  1  0  0  0
 12 30  1  0  0  0  0
 13 31  1  0  0  0  0
 13 32  1  0  0  0  0
 14 16  2  0  0  0  0
 16 17  1  0  0  0  0
 17 19  1  0  0  0  0
 18 20  1  0  0  0  0
 18 35  1  0  0  0  0
 18 36  1  0  0  0  0
 19 37  1  0  0  0  0
 19 38  1  0  0  0  0
 19 39  1  0  0  0  0
 20 21  2  0  0  0  0
 20 22  1  0  0  0  0
 21 23  1  0  0  0  0
 21 40  1  0  0  0  0
 22 24  2  0  0  0  0
 22 41  1  0  0  0  0
 23 25  2  0  0  0  0
 23 42  1  0  0  0  0
 24 25  1  0  0  0  0
 24 43  1  0  0  0  0
 25 44  1  0  0  0  0
M  END
> <PUBCHEM_COMPOUND_CID>
516077
> <PUBCHEM_COMPOUND_CANONICALIZED>
1
> <PUBCHEM_CACTVS_COMPLEXITY>
455
> <PUBCHEM_CACTVS_HBOND_ACCEPTOR>
7
> <PUBCHEM_CACTVS_HBOND_DONOR>
2
> <PUBCHEM_CACTVS_ROTATABLE_BOND>
5
> <PUBCHEM_CACTVS_SUBSKEYS>
AAADceB7MABgAAAAAAAAAAAAAAAAAWLEgAAwAAAAAAAWAAAB/AAAHgQASAAADBzl3gaz0bcMFgikAyRiZACD8D1hELgJ2DQ4VJiJeCLg2dCeZAxvgALLyCewsAIOAAAAAAAAAAAAAAAAAAAAAAAAAAAAAA==
> <PUBCHEM_IUPAC_OPENEYE_NAME>
(2R,3S,5R)-5-(5-benzylsulfanyl-3-methyl-imidazo[4,5-d]isothiazol-6-yl)-2-(hydroxymethyl)tetrahydrofuran-3-ol
> <PUBCHEM_IUPAC_CAS_NAME>
(2R,3S,5R)-2-(hydroxymethyl)-5-[3-methyl-5-(phenylmethylthio)-6-imidazo[4,5-d]isothiazolyl]-3-oxolanol
> <PUBCHEM_IUPAC_NAME_MARKUP>
(2<I>R</I>,3<I>S</I>,5<I>R</I>)-5-(5-benzylsulfanyl-3-methylimidazo[4,5-d][1,2]thiazol-6-yl)-2-(hydroxymethyl)oxolan-3-ol
> <PUBCHEM_IUPAC_NAME>
(2R,3S,5R)-5-(5-benzylsulfanyl-3-methylimidazo[4,5-d][1,2]thiazol-6-yl)-2-(hydroxymethyl)oxolan-3-ol
> <PUBCHEM_IUPAC_SYSTEMATIC_NAME>
(2R,3S,5R)-2-(hydroxymethyl)-5-[3-methyl-5-(phenylmethylsulfanyl)imidazo[4,5-d][1,2]thiazol-6-yl]oxolan-3-ol
> <PUBCHEM_IUPAC_TRADITIONAL_NAME>
(2R,3S,5R)-5-[5-(benzylthio)-3-methyl-imidaz[4,5-d]isothiazol-6-yl]-2-methylol-tetrahydrofuran-3-ol
> <PUBCHEM_IUPAC_INCHI>
InChI=1S/C17H19N3O3S2/c1-10-15-16(25-19-10)20(14-7-12(22)13(8-21)23-14)17(18-15)24-9-11-5-3-2-4-6-11/h2-6,12-14,21-22H,7-9H2,1H3/t12-,13+,14+/m0/s1
> <PUBCHEM_IUPAC_INCHIKEY>
CAANFGIZNJMQPE-BFHYXJOUSA-N
> <PUBCHEM_XLOGP3_AA>
2.9
> <PUBCHEM_EXACT_MASS>
377.08678382
> <PUBCHEM_MOLECULAR_FORMULA>
C17H19N3O3S2
> <PUBCHEM_MOLECULAR_WEIGHT>
377.5
> <PUBCHEM_OPENEYE_CAN_SMILES>
CC1=NSC2=C1N=C(N2C3CC(C(O3)CO)O)SCC4=CC=CC=C4
> <PUBCHEM_OPENEYE_ISO_SMILES>
CC1=NSC2=C1N=C(N2[C@H]3C[C@@H]([C@H](O3)CO)O)SCC4=CC=CC=C4
> <PUBCHEM_CACTVS_TPSA>
134
> <PUBCHEM_MONOISOTOPIC_WEIGHT>
377.08678382
> <PUBCHEM_TOTAL_CHARGE>
0
> <PUBCHEM_HEAVY_ATOM_COUNT>
25
> <PUBCHEM_ATOM_DEF_STEREO_COUNT>
3
> <PUBCHEM_ATOM_UDEF_STEREO_COUNT>
0
> <PUBCHEM_BOND_DEF_STEREO_COUNT>
0
> <PUBCHEM_BOND_UDEF_STEREO_COUNT>
0
> <PUBCHEM_ISOTOPIC_ATOM_COUNT>
0
> <PUBCHEM_COMPONENT_COUNT>
1
> <PUBCHEM_CACTVS_TAUTO_COUNT>
-1
> <PUBCHEM_COORDINATE_TYPE>
1
5
255
> <PUBCHEM_BONDANNOTATIONS>
1  14  8
1  8  8
12  13  5
14  16  8
16  17  8
20  21  8
20  22  8
21  23  8
22  24  8
23  25  8
24  25  8
11  4  6
6  14  8
6  15  8
9  6  5
7  15  8
7  16  8
8  17  8
$$$$
