516070
  -OEChem-10302200282D
 32 34  0     1  0  0  0  0  0999 V2000
    3.8964   -1.9619    0.0000 S   0  0  0  0  0  0  0  0  0  0  0  0
    7.3815   -2.7667    0.0000 S   0  0  0  0  0  0  0  0  0  0  0  0
    4.2242    0.1071    0.0000 O   0  0  0  0  0  0  0  0  0  0  0  0
    6.7630    0.6071    0.0000 O   0  0  0  0  0  0  0  0  0  0  0  0
    5.4842    2.3672    0.0000 O   0  0  0  0  0  0  0  0  0  0  0  0
    2.5016    1.2882    0.0000 O   0  0  0  0  0  0  0  0  0  0  0  0
    5.4842   -1.1529    0.0000 N   0  0  0  0  0  0  0  0  0  0  0  0
    5.4842   -2.7710    0.0000 N   0  0  0  0  0  0  0  0  0  0  0  0
    7.9651   -1.9619    0.0000 N   0  0  0  0  0  0  0  0  0  0  0  0
    5.1752   -0.2019    0.0000 C   0  0  1  0  0  0  0  0  0  0  0  0
    5.7630    0.6071    0.0000 C   0  0  2  0  0  0  0  0  0  0  0  0
    5.1752    1.4162    0.0000 C   0  0  1  0  0  0  0  0  0  0  0  0
    4.2242    1.1072    0.0000 C   0  0  1  0  0  0  0  0  0  0  0  0
    3.4151    1.6949    0.0000 C   0  0  0  0  0  0  0  0  0  0  0  0
    6.4353   -1.4619    0.0000 C   0  0  0  0  0  0  0  0  0  0  0  0
    4.8964   -1.9619    0.0000 C   0  0  0  0  0  0  0  0  0  0  0  0
    6.4353   -2.4619    0.0000 C   0  0  0  0  0  0  0  0  0  0  0  0
    7.3815   -1.1572    0.0000 C   0  0  0  0  0  0  0  0  0  0  0  0
    3.3964   -2.8280    0.0000 C   0  0  0  0  0  0  0  0  0  0  0  0
    4.7368   -0.6403    0.0000 H   0  0  0  0  0  0  0  0  0  0  0  0
    6.0445    0.0547    0.0000 H   0  0  0  0  0  0  0  0  0  0  0  0
    4.7368    1.8546    0.0000 H   0  0  0  0  0  0  0  0  0  0  0  0
    3.6717    0.8257    0.0000 H   0  0  0  0  0  0  0  0  0  0  0  0
    3.8611    2.1256    0.0000 H   0  0  0  0  0  0  0  0  0  0  0  0
    3.0684    2.2089    0.0000 H   0  0  0  0  0  0  0  0  0  0  0  0
    7.0730    1.1441    0.0000 H   0  0  0  0  0  0  0  0  0  0  0  0
    5.0694    2.8280    0.0000 H   0  0  0  0  0  0  0  0  0  0  0  0
    7.5741   -0.5679    0.0000 H   0  0  0  0  0  0  0  0  0  0  0  0
    2.0000    1.6526    0.0000 H   0  0  0  0  0  0  0  0  0  0  0  0
    2.8595   -2.5180    0.0000 H   0  0  0  0  0  0  0  0  0  0  0  0
    3.0864   -3.3649    0.0000 H   0  0  0  0  0  0  0  0  0  0  0  0
    3.9334   -3.1380    0.0000 H   0  0  0  0  0  0  0  0  0  0  0  0
  1 16  1  0  0  0  0
  1 19  1  0  0  0  0
  2  9  1  0  0  0  0
  2 17  1  0  0  0  0
  3 10  1  0  0  0  0
  3 13  1  0  0  0  0
 11  4  1  6  0  0  0
  4 26  1  0  0  0  0
 12  5  1  1  0  0  0
  5 27  1  0  0  0  0
  6 14  1  0  0  0  0
  6 29  1  0  0  0  0
 10  7  1  6  0  0  0
  7 15  1  0  0  0  0
  7 16  1  0  0  0  0
  8 16  2  0  0  0  0
  8 17  1  0  0  0  0
  9 18  2  0  0  0  0
 10 11  1  0  0  0  0
 10 20  1  0  0  0  0
 11 12  1  0  0  0  0
 11 21  1  0  0  0  0
 12 13  1  0  0  0  0
 12 22  1  0  0  0  0
 13 14  1  6  0  0  0
 13 23  1  0  0  0  0
 14 24  1  0  0  0  0
 14 25  1  0  0  0  0
 15 17  2  0  0  0  0
 15 18  1  0  0  0  0
 18 28  1  0  0  0  0
 19 30  1  0  0  0  0
 19 31  1  0  0  0  0
 19 32  1  0  0  0  0
M  END
> <PUBCHEM_COMPOUND_CID>
516070
> <PUBCHEM_COMPOUND_CANONICALIZED>
1
> <PUBCHEM_CACTVS_COMPLEXITY>
340
> <PUBCHEM_CACTVS_HBOND_ACCEPTOR>
8
> <PUBCHEM_CACTVS_HBOND_DONOR>
3
> <PUBCHEM_CACTVS_ROTATABLE_BOND>
3
> <PUBCHEM_CACTVS_SUBSKEYS>
AAADccBzOABgAAAAAAAAAAAAAAAAAWLEgAAAAAAAAAAWAAAB+AAAHgQASAAACBzh1gav0bcMFgikARRnZACB8D1BEqgBUDQ4dBCDWIJAyEAeRAwPAALTACDwMAIAAAAAAAAAAAAAAAAAAAAAAAAAAAAAAA==
> <PUBCHEM_IUPAC_OPENEYE_NAME>
(2R,3S,4S,5R)-2-(hydroxymethyl)-5-(5-methylsulfanylimidazo[4,5-d]isothiazol-4-yl)tetrahydrofuran-3,4-diol
> <PUBCHEM_IUPAC_CAS_NAME>
(2R,3S,4S,5R)-2-(hydroxymethyl)-5-[5-(methylthio)-4-imidazo[4,5-d]isothiazolyl]oxolane-3,4-diol
> <PUBCHEM_IUPAC_NAME_MARKUP>
(2<I>R</I>,3<I>S</I>,4<I>S</I>,5<I>R</I>)-2-(hydroxymethyl)-5-(5-methylsulfanylimidazo[4,5-d][1,2]thiazol-4-yl)oxolane-3,4-diol
> <PUBCHEM_IUPAC_NAME>
(2R,3S,4S,5R)-2-(hydroxymethyl)-5-(5-methylsulfanylimidazo[4,5-d][1,2]thiazol-4-yl)oxolane-3,4-diol
> <PUBCHEM_IUPAC_SYSTEMATIC_NAME>
(2R,3S,4S,5R)-2-(hydroxymethyl)-5-(5-methylsulfanylimidazo[4,5-d][1,2]thiazol-4-yl)oxolane-3,4-diol
> <PUBCHEM_IUPAC_TRADITIONAL_NAME>
(2R,3S,4S,5R)-2-methylol-5-[5-(methylthio)imidaz[4,5-d]isothiazol-4-yl]tetrahydrofuran-3,4-diol
> <PUBCHEM_IUPAC_INCHI>
InChI=1S/C10H13N3O4S2/c1-18-10-12-8-4(2-11-19-8)13(10)9-7(16)6(15)5(3-14)17-9/h2,5-7,9,14-16H,3H2,1H3/t5-,6-,7+,9-/m1/s1
> <PUBCHEM_IUPAC_INCHIKEY>
DLBRRSUNJFUPDX-JAGXHNFQSA-N
> <PUBCHEM_XLOGP3_AA>
0.1
> <PUBCHEM_EXACT_MASS>
303.03474825
> <PUBCHEM_MOLECULAR_FORMULA>
C10H13N3O4S2
> <PUBCHEM_MOLECULAR_WEIGHT>
303.4
> <PUBCHEM_OPENEYE_CAN_SMILES>
CSC1=NC2=C(N1C3C(C(C(O3)CO)O)O)C=NS2
> <PUBCHEM_OPENEYE_ISO_SMILES>
CSC1=NC2=C(N1[C@H]3[C@H]([C@@H]([C@H](O3)CO)O)O)C=NS2
> <PUBCHEM_CACTVS_TPSA>
154
> <PUBCHEM_MONOISOTOPIC_WEIGHT>
303.03474825
> <PUBCHEM_TOTAL_CHARGE>
0
> <PUBCHEM_HEAVY_ATOM_COUNT>
19
> <PUBCHEM_ATOM_DEF_STEREO_COUNT>
4
> <PUBCHEM_ATOM_UDEF_STEREO_COUNT>
0
> <PUBCHEM_BOND_DEF_STEREO_COUNT>
0
> <PUBCHEM_BOND_UDEF_STEREO_COUNT>
0
> <PUBCHEM_ISOTOPIC_ATOM_COUNT>
0
> <PUBCHEM_COMPONENT_COUNT>
1
> <PUBCHEM_CACTVS_TAUTO_COUNT>
-1
> <PUBCHEM_COORDINATE_TYPE>
1
5
255
> <PUBCHEM_BONDANNOTATIONS>
13  14  6
15  17  8
15  18  8
2  17  8
2  9  8
11  4  6
12  5  5
10  7  6
7  15  8
7  16  8
8  16  8
8  17  8
9  18  8
$$$$
