516067
  -OEChem-10302200282D
 34 36  0     1  0  0  0  0  0999 V2000
    6.5328   -3.2027    0.0000 S   0  0  0  0  0  0  0  0  0  0  0  0
    3.0477   -2.3980    0.0000 S   0  0  0  0  0  0  0  0  0  0  0  0
    4.9143    0.1711    0.0000 O   0  0  0  0  0  0  0  0  0  0  0  0
    2.5664    1.2589    0.0000 O   0  0  0  0  0  0  0  0  0  0  0  0
    3.9664    2.6743    0.0000 O   0  0  0  0  0  0  0  0  0  0  0  0
    4.6355   -1.5890    0.0000 N   0  0  0  0  0  0  0  0  0  0  0  0
    4.6355   -3.2070    0.0000 N   0  0  0  0  0  0  0  0  0  0  0  0
    7.1164   -2.3980    0.0000 N   0  0  0  0  0  0  0  0  0  0  0  0
    4.3265   -0.6379    0.0000 C   0  0  1  0  0  0  0  0  0  0  0  0
    3.3754   -0.3289    0.0000 C   0  0  0  0  0  0  0  0  0  0  0  0
    3.3754    0.6711    0.0000 C   0  0  1  0  0  0  0  0  0  0  0  0
    4.3265    0.9801    0.0000 C   0  0  1  0  0  0  0  0  0  0  0  0
    4.6355    1.9312    0.0000 C   0  0  0  0  0  0  0  0  0  0  0  0
    5.5865   -1.8980    0.0000 C   0  0  0  0  0  0  0  0  0  0  0  0
    4.0477   -2.3980    0.0000 C   0  0  0  0  0  0  0  0  0  0  0  0
    5.5865   -2.8980    0.0000 C   0  0  0  0  0  0  0  0  0  0  0  0
    6.5328   -1.5932    0.0000 C   0  0  0  0  0  0  0  0  0  0  0  0
    6.8434   -0.6427    0.0000 C   0  0  0  0  0  0  0  0  0  0  0  0
    2.5477   -3.2640    0.0000 C   0  0  0  0  0  0  0  0  0  0  0  0
    4.9388   -0.7349    0.0000 H   0  0  0  0  0  0  0  0  0  0  0  0
    2.7588   -0.2641    0.0000 H   0  0  0  0  0  0  0  0  0  0  0  0
    3.2465   -0.9353    0.0000 H   0  0  0  0  0  0  0  0  0  0  0  0
    3.4724    1.2835    0.0000 H   0  0  0  0  0  0  0  0  0  0  0  0
    4.9388    1.0771    0.0000 H   0  0  0  0  0  0  0  0  0  0  0  0
    5.1829    1.6401    0.0000 H   0  0  0  0  0  0  0  0  0  0  0  0
    5.0172    2.4198    0.0000 H   0  0  0  0  0  0  0  0  0  0  0  0
    2.0000    1.0067    0.0000 H   0  0  0  0  0  0  0  0  0  0  0  0
    4.1579    3.2640    0.0000 H   0  0  0  0  0  0  0  0  0  0  0  0
    7.4328   -0.8353    0.0000 H   0  0  0  0  0  0  0  0  0  0  0  0
    7.0360   -0.0534    0.0000 H   0  0  0  0  0  0  0  0  0  0  0  0
    6.2541   -0.4501    0.0000 H   0  0  0  0  0  0  0  0  0  0  0  0
    2.0108   -2.9540    0.0000 H   0  0  0  0  0  0  0  0  0  0  0  0
    2.2377   -3.8009    0.0000 H   0  0  0  0  0  0  0  0  0  0  0  0
    3.0846   -3.5740    0.0000 H   0  0  0  0  0  0  0  0  0  0  0  0
  1  8  1  0  0  0  0
  1 16  1  0  0  0  0
  2 15  1  0  0  0  0
  2 19  1  0  0  0  0
  3  9  1  0  0  0  0
  3 12  1  0  0  0  0
 11  4  1  6  0  0  0
  4 27  1  0  0  0  0
  5 13  1  0  0  0  0
  5 28  1  0  0  0  0
  9  6  1  1  0  0  0
  6 14  1  0  0  0  0
  6 15  1  0  0  0  0
  7 15  2  0  0  0  0
  7 16  1  0  0  0  0
  8 17  2  0  0  0  0
  9 10  1  0  0  0  0
  9 20  1  0  0  0  0
 10 11  1  0  0  0  0
 10 21  1  0  0  0  0
 10 22  1  0  0  0  0
 11 12  1  0  0  0  0
 11 23  1  0  0  0  0
 12 13  1  1  0  0  0
 12 24  1  0  0  0  0
 13 25  1  0  0  0  0
 13 26  1  0  0  0  0
 14 16  2  0  0  0  0
 14 17  1  0  0  0  0
 17 18  1  0  0  0  0
 18 29  1  0  0  0  0
 18 30  1  0  0  0  0
 18 31  1  0  0  0  0
 19 32  1  0  0  0  0
 19 33  1  0  0  0  0
 19 34  1  0  0  0  0
M  END
> <PUBCHEM_COMPOUND_CID>
516067
> <PUBCHEM_COMPOUND_CANONICALIZED>
1
> <PUBCHEM_CACTVS_COMPLEXITY>
338
> <PUBCHEM_CACTVS_HBOND_ACCEPTOR>
7
> <PUBCHEM_CACTVS_HBOND_DONOR>
2
> <PUBCHEM_CACTVS_ROTATABLE_BOND>
3
> <PUBCHEM_CACTVS_SUBSKEYS>
AAADccBzMABgAAAAAAAAAAAAAAAAAWLEgAAAAAAAAAAWAAAB+AAAHgQASAAACBzh1gaD0bcMFgikAQRgZACB8D1hEKgBWDQ4VBiBeAJAyMAeRAxPAALDQCCwMAIAAAAAAAAAAAAAAAAAAAAAAAAAAAAAAA==
> <PUBCHEM_IUPAC_OPENEYE_NAME>
(2R,3S,5R)-2-(hydroxymethyl)-5-(3-methyl-5-methylsulfanyl-imidazo[4,5-d]isothiazol-4-yl)tetrahydrofuran-3-ol
> <PUBCHEM_IUPAC_CAS_NAME>
(2R,3S,5R)-2-(hydroxymethyl)-5-[3-methyl-5-(methylthio)-4-imidazo[4,5-d]isothiazolyl]-3-oxolanol
> <PUBCHEM_IUPAC_NAME_MARKUP>
(2<I>R</I>,3<I>S</I>,5<I>R</I>)-2-(hydroxymethyl)-5-(3-methyl-5-methylsulfanylimidazo[4,5-d][1,2]thiazol-4-yl)oxolan-3-ol
> <PUBCHEM_IUPAC_NAME>
(2R,3S,5R)-2-(hydroxymethyl)-5-(3-methyl-5-methylsulfanylimidazo[4,5-d][1,2]thiazol-4-yl)oxolan-3-ol
> <PUBCHEM_IUPAC_SYSTEMATIC_NAME>
(2R,3S,5R)-2-(hydroxymethyl)-5-(3-methyl-5-methylsulfanyl-imidazo[4,5-d][1,2]thiazol-4-yl)oxolan-3-ol
> <PUBCHEM_IUPAC_TRADITIONAL_NAME>
(2R,3S,5R)-5-[3-methyl-5-(methylthio)imidaz[4,5-d]isothiazol-4-yl]-2-methylol-tetrahydrofuran-3-ol
> <PUBCHEM_IUPAC_INCHI>
InChI=1S/C11H15N3O3S2/c1-5-9-10(19-13-5)12-11(18-2)14(9)8-3-6(16)7(4-15)17-8/h6-8,15-16H,3-4H2,1-2H3/t6-,7+,8+/m0/s1
> <PUBCHEM_IUPAC_INCHIKEY>
LBGKBKHFSXFRNA-XLPZGREQSA-N
> <PUBCHEM_XLOGP3_AA>
1.4
> <PUBCHEM_EXACT_MASS>
301.05548370
> <PUBCHEM_MOLECULAR_FORMULA>
C11H15N3O3S2
> <PUBCHEM_MOLECULAR_WEIGHT>
301.4
> <PUBCHEM_OPENEYE_CAN_SMILES>
CC1=NSC2=C1N(C(=N2)SC)C3CC(C(O3)CO)O
> <PUBCHEM_OPENEYE_ISO_SMILES>
CC1=NSC2=C1N(C(=N2)SC)[C@H]3C[C@@H]([C@H](O3)CO)O
> <PUBCHEM_CACTVS_TPSA>
134
> <PUBCHEM_MONOISOTOPIC_WEIGHT>
301.05548370
> <PUBCHEM_TOTAL_CHARGE>
0
> <PUBCHEM_HEAVY_ATOM_COUNT>
19
> <PUBCHEM_ATOM_DEF_STEREO_COUNT>
3
> <PUBCHEM_ATOM_UDEF_STEREO_COUNT>
0
> <PUBCHEM_BOND_DEF_STEREO_COUNT>
0
> <PUBCHEM_BOND_UDEF_STEREO_COUNT>
0
> <PUBCHEM_ISOTOPIC_ATOM_COUNT>
0
> <PUBCHEM_COMPONENT_COUNT>
1
> <PUBCHEM_CACTVS_TAUTO_COUNT>
-1
> <PUBCHEM_COORDINATE_TYPE>
1
5
255
> <PUBCHEM_BONDANNOTATIONS>
1  16  8
1  8  8
12  13  5
14  16  8
14  17  8
11  4  6
6  14  8
6  15  8
9  6  5
7  15  8
7  16  8
8  17  8
$$$$
