516069
  -OEChem-10302200282D
 41 44  0     1  0  0  0  0  0999 V2000
    5.5000   -1.6973    0.0000 S   0  0  0  0  0  0  0  0  0  0  0  0
    8.9851   -2.5021    0.0000 S   0  0  0  0  0  0  0  0  0  0  0  0
    7.3666    0.8718    0.0000 O   0  0  0  0  0  0  0  0  0  0  0  0
    5.0187    1.9595    0.0000 O   0  0  0  0  0  0  0  0  0  0  0  0
    8.0659    2.8397    0.0000 O   0  0  0  0  0  0  0  0  0  0  0  0
    7.0878   -0.8883    0.0000 N   0  0  0  0  0  0  0  0  0  0  0  0
    7.0878   -2.5064    0.0000 N   0  0  0  0  0  0  0  0  0  0  0  0
    9.5687   -1.6973    0.0000 N   0  0  0  0  0  0  0  0  0  0  0  0
    6.7788    0.0627    0.0000 C   0  0  1  0  0  0  0  0  0  0  0  0
    5.8277    0.3718    0.0000 C   0  0  0  0  0  0  0  0  0  0  0  0
    5.8277    1.3718    0.0000 C   0  0  1  0  0  0  0  0  0  0  0  0
    6.7788    1.6808    0.0000 C   0  0  1  0  0  0  0  0  0  0  0  0
    7.0878    2.6318    0.0000 C   0  0  0  0  0  0  0  0  0  0  0  0
    8.0388   -1.1973    0.0000 C   0  0  0  0  0  0  0  0  0  0  0  0
    6.5000   -1.6973    0.0000 C   0  0  0  0  0  0  0  0  0  0  0  0
    8.0388   -2.1973    0.0000 C   0  0  0  0  0  0  0  0  0  0  0  0
    8.9851   -0.8926    0.0000 C   0  0  0  0  0  0  0  0  0  0  0  0
    5.0000   -2.5634    0.0000 C   0  0  0  0  0  0  0  0  0  0  0  0
    4.0000   -2.5634    0.0000 C   0  0  0  0  0  0  0  0  0  0  0  0
    3.5000   -3.4294    0.0000 C   0  0  0  0  0  0  0  0  0  0  0  0
    3.5000   -1.6973    0.0000 C   0  0  0  0  0  0  0  0  0  0  0  0
    2.5000   -3.4294    0.0000 C   0  0  0  0  0  0  0  0  0  0  0  0
    2.5000   -1.6973    0.0000 C   0  0  0  0  0  0  0  0  0  0  0  0
    2.0000   -2.5634    0.0000 C   0  0  0  0  0  0  0  0  0  0  0  0
    6.3404   -0.3757    0.0000 H   0  0  0  0  0  0  0  0  0  0  0  0
    5.2111    0.4366    0.0000 H   0  0  0  0  0  0  0  0  0  0  0  0
    5.6988   -0.2347    0.0000 H   0  0  0  0  0  0  0  0  0  0  0  0
    5.2753    1.0903    0.0000 H   0  0  0  0  0  0  0  0  0  0  0  0
    7.3911    1.7778    0.0000 H   0  0  0  0  0  0  0  0  0  0  0  0
    7.0662    3.2514    0.0000 H   0  0  0  0  0  0  0  0  0  0  0  0
    6.4738    2.7181    0.0000 H   0  0  0  0  0  0  0  0  0  0  0  0
    5.0835    2.5761    0.0000 H   0  0  0  0  0  0  0  0  0  0  0  0
    9.1777   -0.3033    0.0000 H   0  0  0  0  0  0  0  0  0  0  0  0
    8.2575    3.4294    0.0000 H   0  0  0  0  0  0  0  0  0  0  0  0
    4.8923   -3.1740    0.0000 H   0  0  0  0  0  0  0  0  0  0  0  0
    5.5826   -2.7754    0.0000 H   0  0  0  0  0  0  0  0  0  0  0  0
    3.8100   -3.9663    0.0000 H   0  0  0  0  0  0  0  0  0  0  0  0
    3.8100   -1.1604    0.0000 H   0  0  0  0  0  0  0  0  0  0  0  0
    2.1900   -3.9663    0.0000 H   0  0  0  0  0  0  0  0  0  0  0  0
    2.1900   -1.1604    0.0000 H   0  0  0  0  0  0  0  0  0  0  0  0
    1.3800   -2.5634    0.0000 H   0  0  0  0  0  0  0  0  0  0  0  0
  1 15  1  0  0  0  0
  1 18  1  0  0  0  0
  2  8  1  0  0  0  0
  2 16  1  0  0  0  0
  3  9  1  0  0  0  0
  3 12  1  0  0  0  0
 11  4  1  6  0  0  0
  4 32  1  0  0  0  0
  5 13  1  0  0  0  0
  5 34  1  0  0  0  0
  9  6  1  1  0  0  0
  6 14  1  0  0  0  0
  6 15  1  0  0  0  0
  7 15  2  0  0  0  0
  7 16  1  0  0  0  0
  8 17  2  0  0  0  0
  9 10  1  0  0  0  0
  9 25  1  0  0  0  0
 10 11  1  0  0  0  0
 10 26  1  0  0  0  0
 10 27  1  0  0  0  0
 11 12  1  0  0  0  0
 11 28  1  0  0  0  0
 12 13  1  1  0  0  0
 12 29  1  0  0  0  0
 13 30  1  0  0  0  0
 13 31  1  0  0  0  0
 14 16  2  0  0  0  0
 14 17  1  0  0  0  0
 17 33  1  0  0  0  0
 18 19  1  0  0  0  0
 18 35  1  0  0  0  0
 18 36  1  0  0  0  0
 19 20  2  0  0  0  0
 19 21  1  0  0  0  0
 20 22  1  0  0  0  0
 20 37  1  0  0  0  0
 21 23  2  0  0  0  0
 21 38  1  0  0  0  0
 22 24  2  0  0  0  0
 22 39  1  0  0  0  0
 23 24  1  0  0  0  0
 23 40  1  0  0  0  0
 24 41  1  0  0  0  0
M  END
> <PUBCHEM_COMPOUND_CID>
516069
> <PUBCHEM_COMPOUND_CANONICALIZED>
1
> <PUBCHEM_CACTVS_COMPLEXITY>
427
> <PUBCHEM_CACTVS_HBOND_ACCEPTOR>
7
> <PUBCHEM_CACTVS_HBOND_DONOR>
2
> <PUBCHEM_CACTVS_ROTATABLE_BOND>
5
> <PUBCHEM_CACTVS_SUBSKEYS>
AAADceB7MABgAAAAAAAAAAAAAAAAAWLEgAAwAAAAAAAWAAAB/AAAHgQASAAADBzl3ga90bcMFgikAzRnZACD8D1hErgJ2DQ4dJiJeKLg2VCeZAwvgALLiCewsAIOAAAAAAAAAAAAAAAAAAAAAAAAAAAAAA==
> <PUBCHEM_IUPAC_OPENEYE_NAME>
(2R,3S,5R)-5-(5-benzylsulfanylimidazo[4,5-d]isothiazol-4-yl)-2-(hydroxymethyl)tetrahydrofuran-3-ol
> <PUBCHEM_IUPAC_CAS_NAME>
(2R,3S,5R)-2-(hydroxymethyl)-5-[5-(phenylmethylthio)-4-imidazo[4,5-d]isothiazolyl]-3-oxolanol
> <PUBCHEM_IUPAC_NAME_MARKUP>
(2<I>R</I>,3<I>S</I>,5<I>R</I>)-5-(5-benzylsulfanylimidazo[4,5-d][1,2]thiazol-4-yl)-2-(hydroxymethyl)oxolan-3-ol
> <PUBCHEM_IUPAC_NAME>
(2R,3S,5R)-5-(5-benzylsulfanylimidazo[4,5-d][1,2]thiazol-4-yl)-2-(hydroxymethyl)oxolan-3-ol
> <PUBCHEM_IUPAC_SYSTEMATIC_NAME>
(2R,3S,5R)-2-(hydroxymethyl)-5-[5-(phenylmethylsulfanyl)imidazo[4,5-d][1,2]thiazol-4-yl]oxolan-3-ol
> <PUBCHEM_IUPAC_TRADITIONAL_NAME>
(2R,3S,5R)-5-[5-(benzylthio)imidaz[4,5-d]isothiazol-4-yl]-2-methylol-tetrahydrofuran-3-ol
> <PUBCHEM_IUPAC_INCHI>
InChI=1S/C16H17N3O3S2/c20-8-13-12(21)6-14(22-13)19-11-7-17-24-15(11)18-16(19)23-9-10-4-2-1-3-5-10/h1-5,7,12-14,20-21H,6,8-9H2/t12-,13+,14+/m0/s1
> <PUBCHEM_IUPAC_INCHIKEY>
YLZQALOGHSJXSM-BFHYXJOUSA-N
> <PUBCHEM_XLOGP3_AA>
2.5
> <PUBCHEM_EXACT_MASS>
363.07113376
> <PUBCHEM_MOLECULAR_FORMULA>
C16H17N3O3S2
> <PUBCHEM_MOLECULAR_WEIGHT>
363.5
> <PUBCHEM_OPENEYE_CAN_SMILES>
C1C(C(OC1N2C3=C(N=C2SCC4=CC=CC=C4)SN=C3)CO)O
> <PUBCHEM_OPENEYE_ISO_SMILES>
C1[C@@H]([C@H](O[C@H]1N2C3=C(N=C2SCC4=CC=CC=C4)SN=C3)CO)O
> <PUBCHEM_CACTVS_TPSA>
134
> <PUBCHEM_MONOISOTOPIC_WEIGHT>
363.07113376
> <PUBCHEM_TOTAL_CHARGE>
0
> <PUBCHEM_HEAVY_ATOM_COUNT>
24
> <PUBCHEM_ATOM_DEF_STEREO_COUNT>
3
> <PUBCHEM_ATOM_UDEF_STEREO_COUNT>
0
> <PUBCHEM_BOND_DEF_STEREO_COUNT>
0
> <PUBCHEM_BOND_UDEF_STEREO_COUNT>
0
> <PUBCHEM_ISOTOPIC_ATOM_COUNT>
0
> <PUBCHEM_COMPONENT_COUNT>
1
> <PUBCHEM_CACTVS_TAUTO_COUNT>
-1
> <PUBCHEM_COORDINATE_TYPE>
1
5
255
> <PUBCHEM_BONDANNOTATIONS>
12  13  5
14  16  8
14  17  8
19  20  8
19  21  8
2  16  8
2  8  8
20  22  8
21  23  8
22  24  8
23  24  8
11  4  6
6  14  8
6  15  8
9  6  5
7  15  8
7  16  8
8  17  8
$$$$
