516051
  -OEChem-10302200282D
 38 40  0     1  0  0  0  0  0999 V2000
    7.1279   -2.8802    0.0000 Cl  0  0  0  0  0  0  0  0  0  0  0  0
    2.0000   -1.8802    0.0000 Cl  0  0  0  0  0  0  0  0  0  0  0  0
    2.0000   -3.8802    0.0000 Cl  0  0  0  0  0  0  0  0  0  0  0  0
    5.2686   -0.3149    0.0000 O   0  0  0  0  0  0  0  0  0  0  0  0
    7.6146   -1.4068    0.0000 O   0  0  0  0  0  0  0  0  0  0  0  0
    7.6183    0.7688    0.0000 O   0  0  0  0  0  0  0  0  0  0  0  0
    6.2208    2.1866    0.0000 O   0  0  0  0  0  0  0  0  0  0  0  0
    5.5443   -2.0755    0.0000 N   0  0  0  0  0  0  0  0  0  0  0  0
    5.5443   -3.6850    0.0000 N   0  0  0  0  0  0  0  0  0  0  0  0
    6.8066   -0.8176    0.0000 C   0  0  1  0  0  0  0  0  0  0  0  0
    5.8550   -1.1250    0.0000 C   0  0  1  0  0  0  0  0  0  0  0  0
    6.8083    0.1824    0.0000 C   0  0  1  0  0  0  0  0  0  0  0  0
    5.8578    0.4931    0.0000 C   0  0  1  0  0  0  0  0  0  0  0  0
    5.5504    1.4447    0.0000 C   0  0  0  0  0  0  0  0  0  0  0  0
    4.5981   -2.3802    0.0000 C   0  0  0  0  0  0  0  0  0  0  0  0
    6.1279   -2.8802    0.0000 C   0  0  0  0  0  0  0  0  0  0  0  0
    4.5981   -3.3802    0.0000 C   0  0  0  0  0  0  0  0  0  0  0  0
    3.7320   -1.8802    0.0000 C   0  0  0  0  0  0  0  0  0  0  0  0
    3.7320   -3.8802    0.0000 C   0  0  0  0  0  0  0  0  0  0  0  0
    5.9134    3.1382    0.0000 C   0  0  0  0  0  0  0  0  0  0  0  0
    2.8660   -2.3802    0.0000 C   0  0  0  0  0  0  0  0  0  0  0  0
    2.8660   -3.3802    0.0000 C   0  0  0  0  0  0  0  0  0  0  0  0
    6.5838    3.8802    0.0000 C   0  0  0  0  0  0  0  0  0  0  0  0
    7.3595   -0.5371    0.0000 H   0  0  0  0  0  0  0  0  0  0  0  0
    6.2926   -1.5641    0.0000 H   0  0  0  0  0  0  0  0  0  0  0  0
    7.3602   -0.1000    0.0000 H   0  0  0  0  0  0  0  0  0  0  0  0
    5.2456    0.5911    0.0000 H   0  0  0  0  0  0  0  0  0  0  0  0
    5.1695    1.9339    0.0000 H   0  0  0  0  0  0  0  0  0  0  0  0
    5.0025    1.1545    0.0000 H   0  0  0  0  0  0  0  0  0  0  0  0
    8.1814   -1.1556    0.0000 H   0  0  0  0  0  0  0  0  0  0  0  0
    8.1843    0.5156    0.0000 H   0  0  0  0  0  0  0  0  0  0  0  0
    3.7320   -1.2602    0.0000 H   0  0  0  0  0  0  0  0  0  0  0  0
    3.7320   -4.5002    0.0000 H   0  0  0  0  0  0  0  0  0  0  0  0
    5.5326    3.6275    0.0000 H   0  0  0  0  0  0  0  0  0  0  0  0
    5.3655    2.8481    0.0000 H   0  0  0  0  0  0  0  0  0  0  0  0
    7.0439    3.4646    0.0000 H   0  0  0  0  0  0  0  0  0  0  0  0
    6.9995    4.3402    0.0000 H   0  0  0  0  0  0  0  0  0  0  0  0
    6.1238    4.2959    0.0000 H   0  0  0  0  0  0  0  0  0  0  0  0
  1 16  1  0  0  0  0
  2 21  1  0  0  0  0
  3 22  1  0  0  0  0
  4 11  1  0  0  0  0
  4 13  1  0  0  0  0
 10  5  1  1  0  0  0
  5 30  1  0  0  0  0
 12  6  1  1  0  0  0
  6 31  1  0  0  0  0
  7 14  1  0  0  0  0
  7 20  1  0  0  0  0
 11  8  1  6  0  0  0
  8 15  1  0  0  0  0
  8 16  1  0  0  0  0
  9 16  2  0  0  0  0
  9 17  1  0  0  0  0
 10 11  1  0  0  0  0
 10 12  1  0  0  0  0
 10 24  1  0  0  0  0
 11 25  1  0  0  0  0
 12 13  1  0  0  0  0
 12 26  1  0  0  0  0
 13 14  1  6  0  0  0
 13 27  1  0  0  0  0
 14 28  1  0  0  0  0
 14 29  1  0  0  0  0
 15 17  1  0  0  0  0
 15 18  2  0  0  0  0
 17 19  2  0  0  0  0
 18 21  1  0  0  0  0
 18 32  1  0  0  0  0
 19 22  1  0  0  0  0
 19 33  1  0  0  0  0
 20 23  1  0  0  0  0
 20 34  1  0  0  0  0
 20 35  1  0  0  0  0
 21 22  2  0  0  0  0
 23 36  1  0  0  0  0
 23 37  1  0  0  0  0
 23 38  1  0  0  0  0
M  END
> <PUBCHEM_COMPOUND_CID>
516051
> <PUBCHEM_COMPOUND_CANONICALIZED>
1
> <PUBCHEM_CACTVS_COMPLEXITY>
422
> <PUBCHEM_CACTVS_HBOND_ACCEPTOR>
5
> <PUBCHEM_CACTVS_HBOND_DONOR>
2
> <PUBCHEM_CACTVS_ROTATABLE_BOND>
4
> <PUBCHEM_CACTVS_SUBSKEYS>
AAADccBzOAAGAAAAAAAAAAAAAAAAAWJAAAAwAAAAAAAAAFgB8AAAHgIACAAACB7hliYz0LcMFgCgASRiZACCgC0hF6AB2mA4dpiLeKLBmpGeYAhvgALbyCfwMAoAAABAAAIAACQAAIAABAAASAAAAAAAAA==
> <PUBCHEM_IUPAC_OPENEYE_NAME>
(2R,3S,4R,5R)-2-(ethoxymethyl)-5-(2,5,6-trichlorobenzimidazol-1-yl)tetrahydrofuran-3,4-diol
> <PUBCHEM_IUPAC_CAS_NAME>
(2R,3S,4R,5R)-2-(ethoxymethyl)-5-(2,5,6-trichloro-1-benzimidazolyl)oxolane-3,4-diol
> <PUBCHEM_IUPAC_NAME_MARKUP>
(2<I>R</I>,3<I>S</I>,4<I>R</I>,5<I>R</I>)-2-(ethoxymethyl)-5-(2,5,6-trichlorobenzimidazol-1-yl)oxolane-3,4-diol
> <PUBCHEM_IUPAC_NAME>
(2R,3S,4R,5R)-2-(ethoxymethyl)-5-(2,5,6-trichlorobenzimidazol-1-yl)oxolane-3,4-diol
> <PUBCHEM_IUPAC_SYSTEMATIC_NAME>
(2R,3S,4R,5R)-2-(ethoxymethyl)-5-[2,5,6-tris(chloranyl)benzimidazol-1-yl]oxolane-3,4-diol
> <PUBCHEM_IUPAC_TRADITIONAL_NAME>
(2R,3S,4R,5R)-2-(ethoxymethyl)-5-(2,5,6-trichlorobenzimidazol-1-yl)tetrahydrofuran-3,4-diol
> <PUBCHEM_IUPAC_INCHI>
InChI=1S/C14H15Cl3N2O4/c1-2-22-5-10-11(20)12(21)13(23-10)19-9-4-7(16)6(15)3-8(9)18-14(19)17/h3-4,10-13,20-21H,2,5H2,1H3/t10-,11-,12-,13-/m1/s1
> <PUBCHEM_IUPAC_INCHIKEY>
JVAXPPZEBXHMED-FDYHWXHSSA-N
> <PUBCHEM_XLOGP3_AA>
2.4
> <PUBCHEM_EXACT_MASS>
380.009740
> <PUBCHEM_MOLECULAR_FORMULA>
C14H15Cl3N2O4
> <PUBCHEM_MOLECULAR_WEIGHT>
381.6
> <PUBCHEM_OPENEYE_CAN_SMILES>
CCOCC1C(C(C(O1)N2C3=CC(=C(C=C3N=C2Cl)Cl)Cl)O)O
> <PUBCHEM_OPENEYE_ISO_SMILES>
CCOC[C@@H]1[C@H]([C@H]([C@@H](O1)N2C3=CC(=C(C=C3N=C2Cl)Cl)Cl)O)O
> <PUBCHEM_CACTVS_TPSA>
76.7
> <PUBCHEM_MONOISOTOPIC_WEIGHT>
380.009740
> <PUBCHEM_TOTAL_CHARGE>
0
> <PUBCHEM_HEAVY_ATOM_COUNT>
23
> <PUBCHEM_ATOM_DEF_STEREO_COUNT>
4
> <PUBCHEM_ATOM_UDEF_STEREO_COUNT>
0
> <PUBCHEM_BOND_DEF_STEREO_COUNT>
0
> <PUBCHEM_BOND_UDEF_STEREO_COUNT>
0
> <PUBCHEM_ISOTOPIC_ATOM_COUNT>
0
> <PUBCHEM_COMPONENT_COUNT>
1
> <PUBCHEM_CACTVS_TAUTO_COUNT>
-1
> <PUBCHEM_COORDINATE_TYPE>
1
5
255
> <PUBCHEM_BONDANNOTATIONS>
13  14  6
15  17  8
15  18  8
17  19  8
18  21  8
19  22  8
21  22  8
10  5  5
12  6  5
11  8  6
8  15  8
8  16  8
9  16  8
9  17  8
$$$$
