516008
  -OEChem-10302200282D
 77 79  0     1  0  0  0  0  0999 V2000
    7.1962    0.5000    0.0000 O   0  0  0  0  0  0  0  0  0  0  0  0
    9.7942   -2.0000    0.0000 O   0  0  0  0  0  0  0  0  0  0  0  0
    5.4641    2.5000    0.0000 O   0  0  0  0  0  0  0  0  0  0  0  0
    6.3301    1.0000    0.0000 O   0  0  0  0  0  0  0  0  0  0  0  0
   12.3923   -2.5000    0.0000 O   0  0  0  0  0  0  0  0  0  0  0  0
   14.1244    0.5000    0.0000 O   0  0  0  0  0  0  0  0  0  0  0  0
   15.0949   -1.9945    0.0000 O   0  0  0  0  0  0  0  0  0  0  0  0
    8.9282    0.5000    0.0000 N   0  0  0  0  0  0  0  0  0  0  0  0
    7.1962    2.5000    0.0000 N   0  0  0  0  0  0  0  0  0  0  0  0
   10.6603   -0.5000    0.0000 N   0  0  0  0  0  0  0  0  0  0  0  0
   13.2583   -1.0000    0.0000 N   0  0  0  0  0  0  0  0  0  0  0  0
   16.0731   -2.2024    0.0000 N   0  0  0  0  0  0  0  0  0  0  0  0
    8.9282    2.5000    0.0000 C   0  0  0  0  0  0  0  0  0  0  0  0
    8.0622    2.0000    0.0000 C   0  0  1  0  0  0  0  0  0  0  0  0
    8.9282    3.5000    0.0000 C   0  0  0  0  0  0  0  0  0  0  0  0
    8.9282   -0.5000    0.0000 C   0  0  1  0  0  0  0  0  0  0  0  0
    8.0622    1.0000    0.0000 C   0  0  0  0  0  0  0  0  0  0  0  0
    8.0622   -1.0000    0.0000 C   0  0  0  0  0  0  0  0  0  0  0  0
    9.7942    4.0000    0.0000 C   0  0  0  0  0  0  0  0  0  0  0  0
    8.0622    4.0000    0.0000 C   0  0  0  0  0  0  0  0  0  0  0  0
    9.7942   -1.0000    0.0000 C   0  0  0  0  0  0  0  0  0  0  0  0
    8.0622   -2.0000    0.0000 C   0  0  0  0  0  0  0  0  0  0  0  0
   11.5263   -1.0000    0.0000 C   0  0  1  0  0  0  0  0  0  0  0  0
    6.3301    2.0000    0.0000 C   0  0  0  0  0  0  0  0  0  0  0  0
   12.3923   -0.5000    0.0000 C   0  0  0  0  0  0  0  0  0  0  0  0
    8.9282   -2.5000    0.0000 C   0  0  0  0  0  0  0  0  0  0  0  0
    7.1962   -2.5000    0.0000 C   0  0  0  0  0  0  0  0  0  0  0  0
   11.5263   -2.0000    0.0000 C   0  0  0  0  0  0  0  0  0  0  0  0
    8.9282   -3.5000    0.0000 C   0  0  0  0  0  0  0  0  0  0  0  0
    7.1962   -3.5000    0.0000 C   0  0  0  0  0  0  0  0  0  0  0  0
    8.0622   -4.0000    0.0000 C   0  0  0  0  0  0  0  0  0  0  0  0
    4.5981    2.0000    0.0000 C   0  0  0  0  0  0  0  0  0  0  0  0
   14.1244   -0.5000    0.0000 C   0  0  0  0  0  0  0  0  0  0  0  0
    3.7320    2.5000    0.0000 C   0  0  0  0  0  0  0  0  0  0  0  0
   14.9904   -1.0000    0.0000 C   0  0  0  0  0  0  0  0  0  0  0  0
    2.8660    2.0000    0.0000 C   0  0  0  0  0  0  0  0  0  0  0  0
    3.7320    3.5000    0.0000 C   0  0  0  0  0  0  0  0  0  0  0  0
    2.0000    2.5000    0.0000 C   0  0  0  0  0  0  0  0  0  0  0  0
    2.8660    4.0000    0.0000 C   0  0  0  0  0  0  0  0  0  0  0  0
   15.9039   -0.5933    0.0000 C   0  0  0  0  0  0  0  0  0  0  0  0
    2.0000    3.5000    0.0000 C   0  0  0  0  0  0  0  0  0  0  0  0
   16.5731   -1.3364    0.0000 C   0  0  0  0  0  0  0  0  0  0  0  0
    9.1403    1.9174    0.0000 H   0  0  0  0  0  0  0  0  0  0  0  0
    9.5388    2.6077    0.0000 H   0  0  0  0  0  0  0  0  0  0  0  0
    8.0622    2.6200    0.0000 H   0  0  0  0  0  0  0  0  0  0  0  0
    9.4651    3.1900    0.0000 H   0  0  0  0  0  0  0  0  0  0  0  0
    9.4651   -0.1900    0.0000 H   0  0  0  0  0  0  0  0  0  0  0  0
    9.4651    0.8100    0.0000 H   0  0  0  0  0  0  0  0  0  0  0  0
    7.8501   -0.4174    0.0000 H   0  0  0  0  0  0  0  0  0  0  0  0
    7.4516   -1.1077    0.0000 H   0  0  0  0  0  0  0  0  0  0  0  0
   10.1042    3.4631    0.0000 H   0  0  0  0  0  0  0  0  0  0  0  0
   10.3312    4.3100    0.0000 H   0  0  0  0  0  0  0  0  0  0  0  0
    9.4842    4.5369    0.0000 H   0  0  0  0  0  0  0  0  0  0  0  0
    8.3722    4.5369    0.0000 H   0  0  0  0  0  0  0  0  0  0  0  0
    7.5252    4.3100    0.0000 H   0  0  0  0  0  0  0  0  0  0  0  0
    7.7522    3.4631    0.0000 H   0  0  0  0  0  0  0  0  0  0  0  0
    7.1962    3.1200    0.0000 H   0  0  0  0  0  0  0  0  0  0  0  0
   10.6603    0.1200    0.0000 H   0  0  0  0  0  0  0  0  0  0  0  0
   10.9893   -1.3100    0.0000 H   0  0  0  0  0  0  0  0  0  0  0  0
   12.7908   -0.0251    0.0000 H   0  0  0  0  0  0  0  0  0  0  0  0
   11.9938   -0.0251    0.0000 H   0  0  0  0  0  0  0  0  0  0  0  0
    9.4651   -2.1900    0.0000 H   0  0  0  0  0  0  0  0  0  0  0  0
    6.6592   -2.1900    0.0000 H   0  0  0  0  0  0  0  0  0  0  0  0
   10.9893   -2.3100    0.0000 H   0  0  0  0  0  0  0  0  0  0  0  0
    9.4651   -3.8100    0.0000 H   0  0  0  0  0  0  0  0  0  0  0  0
    6.6592   -3.8100    0.0000 H   0  0  0  0  0  0  0  0  0  0  0  0
   13.2583   -1.6200    0.0000 H   0  0  0  0  0  0  0  0  0  0  0  0
    8.0622   -4.6200    0.0000 H   0  0  0  0  0  0  0  0  0  0  0  0
    4.1996    1.5250    0.0000 H   0  0  0  0  0  0  0  0  0  0  0  0
    4.9966    1.5250    0.0000 H   0  0  0  0  0  0  0  0  0  0  0  0
    2.8660    1.3800    0.0000 H   0  0  0  0  0  0  0  0  0  0  0  0
    4.2690    3.8100    0.0000 H   0  0  0  0  0  0  0  0  0  0  0  0
    1.4631    2.1900    0.0000 H   0  0  0  0  0  0  0  0  0  0  0  0
    2.8660    4.6200    0.0000 H   0  0  0  0  0  0  0  0  0  0  0  0
   16.0328    0.0132    0.0000 H   0  0  0  0  0  0  0  0  0  0  0  0
    1.4631    3.8100    0.0000 H   0  0  0  0  0  0  0  0  0  0  0  0
   17.1897   -1.2716    0.0000 H   0  0  0  0  0  0  0  0  0  0  0  0
  1 17  2  0  0  0  0
  2 21  2  0  0  0  0
  3 24  1  0  0  0  0
  3 32  1  0  0  0  0
  4 24  2  0  0  0  0
  5 28  2  0  0  0  0
  6 33  2  0  0  0  0
  7 12  1  0  0  0  0
  7 35  1  0  0  0  0
 16  8  1  6  0  0  0
  8 17  1  0  0  0  0
  8 48  1  0  0  0  0
 14  9  1  1  0  0  0
  9 24  1  0  0  0  0
  9 57  1  0  0  0  0
 10 21  1  0  0  0  0
 23 10  1  1  0  0  0
 10 58  1  0  0  0  0
 11 25  1  0  0  0  0
 11 33  1  0  0  0  0
 11 67  1  0  0  0  0
 12 42  2  0  0  0  0
 13 14  1  0  0  0  0
 13 15  1  0  0  0  0
 13 43  1  0  0  0  0
 13 44  1  0  0  0  0
 14 17  1  0  0  0  0
 14 45  1  0  0  0  0
 15 19  1  0  0  0  0
 15 20  1  0  0  0  0
 15 46  1  0  0  0  0
 16 18  1  0  0  0  0
 16 21  1  0  0  0  0
 16 47  1  0  0  0  0
 18 22  1  0  0  0  0
 18 49  1  0  0  0  0
 18 50  1  0  0  0  0
 19 51  1  0  0  0  0
 19 52  1  0  0  0  0
 19 53  1  0  0  0  0
 20 54  1  0  0  0  0
 20 55  1  0  0  0  0
 20 56  1  0  0  0  0
 22 26  2  0  0  0  0
 22 27  1  0  0  0  0
 23 25  1  0  0  0  0
 23 28  1  0  0  0  0
 23 59  1  0  0  0  0
 25 60  1  0  0  0  0
 25 61  1  0  0  0  0
 26 29  1  0  0  0  0
 26 62  1  0  0  0  0
 27 30  2  0  0  0  0
 27 63  1  0  0  0  0
 28 64  1  0  0  0  0
 29 31  2  0  0  0  0
 29 65  1  0  0  0  0
 30 31  1  0  0  0  0
 30 66  1  0  0  0  0
 31 68  1  0  0  0  0
 32 34  1  0  0  0  0
 32 69  1  0  0  0  0
 32 70  1  0  0  0  0
 33 35  1  0  0  0  0
 34 36  2  0  0  0  0
 34 37  1  0  0  0  0
 35 40  2  0  0  0  0
 36 38  1  0  0  0  0
 36 71  1  0  0  0  0
 37 39  2  0  0  0  0
 37 72  1  0  0  0  0
 38 41  2  0  0  0  0
 38 73  1  0  0  0  0
 39 41  1  0  0  0  0
 39 74  1  0  0  0  0
 40 42  1  0  0  0  0
 40 75  1  0  0  0  0
 41 76  1  0  0  0  0
 42 77  1  0  0  0  0
M  END
> <PUBCHEM_COMPOUND_CID>
516008
> <PUBCHEM_COMPOUND_CANONICALIZED>
1
> <PUBCHEM_CACTVS_COMPLEXITY>
889
> <PUBCHEM_CACTVS_HBOND_ACCEPTOR>
8
> <PUBCHEM_CACTVS_HBOND_DONOR>
4
> <PUBCHEM_CACTVS_ROTATABLE_BOND>
16
> <PUBCHEM_CACTVS_SUBSKEYS>
AAADcfB7uAAAAAAAAAAAAAAAAAAAAWAAAAAwYAAAAAAAAAAB0AAAHgAUAAAADSzhmgY+jJLQBACpArl32gKCAAAkIgAomKH+bNsKZjqAtbmcMYhm1gmY6cecyKCOAAAAAAAAAAAAAAAAAAAAAAAAAAAAAA==
> <PUBCHEM_IUPAC_OPENEYE_NAME>
benzyl N-[(1S)-1-[[(1S)-1-benzyl-2-[[(1S)-1-formyl-2-(isoxazole-5-carbonylamino)ethyl]amino]-2-oxo-ethyl]carbamoyl]-3-methyl-butyl]carbamate
> <PUBCHEM_IUPAC_CAS_NAME>
N-[(2S)-1-[[(2S)-1-[[(2S)-1-[[5-isoxazolyl(oxo)methyl]amino]-3-oxopropan-2-yl]amino]-1-oxo-3-phenylpropan-2-yl]amino]-4-methyl-1-oxopentan-2-yl]carbamic acid (phenylmethyl) ester
> <PUBCHEM_IUPAC_NAME_MARKUP>
benzyl <I>N</I>-[(2<I>S</I>)-4-methyl-1-[[(2<I>S</I>)-1-[[(2<I>S</I>)-1-(1,2-oxazole-5-carbonylamino)-3-oxopropan-2-yl]amino]-1-oxo-3-phenylpropan-2-yl]amino]-1-oxopentan-2-yl]carbamate
> <PUBCHEM_IUPAC_NAME>
benzyl N-[(2S)-4-methyl-1-[[(2S)-1-[[(2S)-1-(1,2-oxazole-5-carbonylamino)-3-oxopropan-2-yl]amino]-1-oxo-3-phenylpropan-2-yl]amino]-1-oxopentan-2-yl]carbamate
> <PUBCHEM_IUPAC_SYSTEMATIC_NAME>
(phenylmethyl) N-[(2S)-4-methyl-1-[[(2S)-1-[[(2S)-1-(1,2-oxazol-5-ylcarbonylamino)-3-oxidanylidene-propan-2-yl]amino]-1-oxidanylidene-3-phenyl-propan-2-yl]amino]-1-oxidanylidene-pentan-2-yl]carbamate
> <PUBCHEM_IUPAC_TRADITIONAL_NAME>
N-[(1S)-1-[[(1S)-1-benzyl-2-[[(1S)-1-formyl-2-(isoxazole-5-carbonylamino)ethyl]amino]-2-keto-ethyl]carbamoyl]-3-methyl-butyl]carbamic acid benzyl ester
> <PUBCHEM_IUPAC_INCHI>
InChI=1S/C30H35N5O7/c1-20(2)15-24(35-30(40)41-19-22-11-7-4-8-12-22)28(38)34-25(16-21-9-5-3-6-10-21)27(37)33-23(18-36)17-31-29(39)26-13-14-32-42-26/h3-14,18,20,23-25H,15-17,19H2,1-2H3,(H,31,39)(H,33,37)(H,34,38)(H,35,40)/t23-,24-,25-/m0/s1
> <PUBCHEM_IUPAC_INCHIKEY>
ACEVTZPHXMBTPB-SDHOMARFSA-N
> <PUBCHEM_XLOGP3_AA>
3.2
> <PUBCHEM_EXACT_MASS>
577.25364847
> <PUBCHEM_MOLECULAR_FORMULA>
C30H35N5O7
> <PUBCHEM_MOLECULAR_WEIGHT>
577.6
> <PUBCHEM_OPENEYE_CAN_SMILES>
CC(C)CC(C(=O)NC(CC1=CC=CC=C1)C(=O)NC(CNC(=O)C2=CC=NO2)C=O)NC(=O)OCC3=CC=CC=C3
> <PUBCHEM_OPENEYE_ISO_SMILES>
CC(C)C[C@@H](C(=O)N[C@@H](CC1=CC=CC=C1)C(=O)N[C@@H](CNC(=O)C2=CC=NO2)C=O)NC(=O)OCC3=CC=CC=C3
> <PUBCHEM_CACTVS_TPSA>
169
> <PUBCHEM_MONOISOTOPIC_WEIGHT>
577.25364847
> <PUBCHEM_TOTAL_CHARGE>
0
> <PUBCHEM_HEAVY_ATOM_COUNT>
42
> <PUBCHEM_ATOM_DEF_STEREO_COUNT>
3
> <PUBCHEM_ATOM_UDEF_STEREO_COUNT>
0
> <PUBCHEM_BOND_DEF_STEREO_COUNT>
0
> <PUBCHEM_BOND_UDEF_STEREO_COUNT>
0
> <PUBCHEM_ISOTOPIC_ATOM_COUNT>
0
> <PUBCHEM_COMPONENT_COUNT>
1
> <PUBCHEM_CACTVS_TAUTO_COUNT>
-1
> <PUBCHEM_COORDINATE_TYPE>
1
5
255
> <PUBCHEM_BONDANNOTATIONS>
23  10  5
12  42  8
22  26  8
22  27  8
26  29  8
27  30  8
29  31  8
30  31  8
34  36  8
34  37  8
35  40  8
36  38  8
37  39  8
38  41  8
39  41  8
40  42  8
7  12  8
7  35  8
16  8  6
14  9  5
$$$$
