516080
  -OEChem-10302200282D
 35 37  0     1  0  0  0  0  0999 V2000
    6.5328    0.8810    0.0000 S   0  0  0  0  0  0  0  0  0  0  0  0
    3.0477    1.6857    0.0000 S   0  0  0  0  0  0  0  0  0  0  0  0
    4.9143   -0.8834    0.0000 O   0  0  0  0  0  0  0  0  0  0  0  0
    2.5664    0.2044    0.0000 O   0  0  0  0  0  0  0  0  0  0  0  0
    2.5664   -1.9711    0.0000 O   0  0  0  0  0  0  0  0  0  0  0  0
    5.6136   -2.8513    0.0000 O   0  0  0  0  0  0  0  0  0  0  0  0
    4.6355    0.8767    0.0000 N   0  0  0  0  0  0  0  0  0  0  0  0
    4.6355    2.4948    0.0000 N   0  0  0  0  0  0  0  0  0  0  0  0
    7.1164    1.6857    0.0000 N   0  0  0  0  0  0  0  0  0  0  0  0
    4.3265   -0.0743    0.0000 C   0  0  1  0  0  0  0  0  0  0  0  0
    3.3754   -0.3834    0.0000 C   0  0  2  0  0  0  0  0  0  0  0  0
    3.3754   -1.3834    0.0000 C   0  0  1  0  0  0  0  0  0  0  0  0
    4.3265   -1.6924    0.0000 C   0  0  1  0  0  0  0  0  0  0  0  0
    4.6355   -2.6434    0.0000 C   0  0  0  0  0  0  0  0  0  0  0  0
    5.5865    1.1857    0.0000 C   0  0  0  0  0  0  0  0  0  0  0  0
    4.0477    1.6857    0.0000 C   0  0  0  0  0  0  0  0  0  0  0  0
    5.5865    2.1857    0.0000 C   0  0  0  0  0  0  0  0  0  0  0  0
    6.5328    2.4905    0.0000 C   0  0  0  0  0  0  0  0  0  0  0  0
    6.8434    3.4410    0.0000 C   0  0  0  0  0  0  0  0  0  0  0  0
    2.5477    2.5518    0.0000 C   0  0  0  0  0  0  0  0  0  0  0  0
    4.9388    0.0227    0.0000 H   0  0  0  0  0  0  0  0  0  0  0  0
    3.4724    0.2290    0.0000 H   0  0  0  0  0  0  0  0  0  0  0  0
    2.8230   -1.1019    0.0000 H   0  0  0  0  0  0  0  0  0  0  0  0
    4.9388   -1.7894    0.0000 H   0  0  0  0  0  0  0  0  0  0  0  0
    4.0215   -2.7297    0.0000 H   0  0  0  0  0  0  0  0  0  0  0  0
    4.6138   -3.2630    0.0000 H   0  0  0  0  0  0  0  0  0  0  0  0
    2.0000   -0.0477    0.0000 H   0  0  0  0  0  0  0  0  0  0  0  0
    2.6312   -2.5877    0.0000 H   0  0  0  0  0  0  0  0  0  0  0  0
    5.8052   -3.4410    0.0000 H   0  0  0  0  0  0  0  0  0  0  0  0
    7.4328    3.2484    0.0000 H   0  0  0  0  0  0  0  0  0  0  0  0
    7.0360    4.0303    0.0000 H   0  0  0  0  0  0  0  0  0  0  0  0
    6.2541    3.6336    0.0000 H   0  0  0  0  0  0  0  0  0  0  0  0
    3.0846    2.8618    0.0000 H   0  0  0  0  0  0  0  0  0  0  0  0
    2.2377    3.0887    0.0000 H   0  0  0  0  0  0  0  0  0  0  0  0
    2.0108    2.2418    0.0000 H   0  0  0  0  0  0  0  0  0  0  0  0
  1  9  1  0  0  0  0
  1 15  1  0  0  0  0
  2 16  1  0  0  0  0
  2 20  1  0  0  0  0
  3 10  1  0  0  0  0
  3 13  1  0  0  0  0
 11  4  1  6  0  0  0
  4 27  1  0  0  0  0
 12  5  1  1  0  0  0
  5 28  1  0  0  0  0
  6 14  1  0  0  0  0
  6 29  1  0  0  0  0
 10  7  1  6  0  0  0
  7 15  1  0  0  0  0
  7 16  1  0  0  0  0
  8 16  2  0  0  0  0
  8 17  1  0  0  0  0
  9 18  2  0  0  0  0
 10 11  1  0  0  0  0
 10 21  1  0  0  0  0
 11 12  1  0  0  0  0
 11 22  1  0  0  0  0
 12 13  1  0  0  0  0
 12 23  1  0  0  0  0
 13 14  1  6  0  0  0
 13 24  1  0  0  0  0
 14 25  1  0  0  0  0
 14 26  1  0  0  0  0
 15 17  2  0  0  0  0
 17 18  1  0  0  0  0
 18 19  1  0  0  0  0
 19 30  1  0  0  0  0
 19 31  1  0  0  0  0
 19 32  1  0  0  0  0
 20 33  1  0  0  0  0
 20 34  1  0  0  0  0
 20 35  1  0  0  0  0
M  END
> <PUBCHEM_COMPOUND_CID>
516080
> <PUBCHEM_COMPOUND_CANONICALIZED>
1
> <PUBCHEM_CACTVS_COMPLEXITY>
367
> <PUBCHEM_CACTVS_HBOND_ACCEPTOR>
8
> <PUBCHEM_CACTVS_HBOND_DONOR>
3
> <PUBCHEM_CACTVS_ROTATABLE_BOND>
3
> <PUBCHEM_CACTVS_SUBSKEYS>
AAADccBzOABgAAAAAAAAAAAAAAAAAWLEgAAAAAAAAAAWAAAB+AAAHgQASAAACBzh1gaD0bcMFgikAQRgZACB8D1hEKgBWDQ4VBiDeAJAyMAeRAxPAALTQCDwMAIAAAAAAAAAAAAAAAAAAAAAAAAAAAAAAA==
> <PUBCHEM_IUPAC_OPENEYE_NAME>
(2R,3S,4S,5R)-2-(hydroxymethyl)-5-(3-methyl-5-methylsulfanyl-imidazo[4,5-d]isothiazol-6-yl)tetrahydrofuran-3,4-diol
> <PUBCHEM_IUPAC_CAS_NAME>
(2R,3S,4S,5R)-2-(hydroxymethyl)-5-[3-methyl-5-(methylthio)-6-imidazo[4,5-d]isothiazolyl]oxolane-3,4-diol
> <PUBCHEM_IUPAC_NAME_MARKUP>
(2<I>R</I>,3<I>S</I>,4<I>S</I>,5<I>R</I>)-2-(hydroxymethyl)-5-(3-methyl-5-methylsulfanylimidazo[4,5-d][1,2]thiazol-6-yl)oxolane-3,4-diol
> <PUBCHEM_IUPAC_NAME>
(2R,3S,4S,5R)-2-(hydroxymethyl)-5-(3-methyl-5-methylsulfanylimidazo[4,5-d][1,2]thiazol-6-yl)oxolane-3,4-diol
> <PUBCHEM_IUPAC_SYSTEMATIC_NAME>
(2R,3S,4S,5R)-2-(hydroxymethyl)-5-(3-methyl-5-methylsulfanyl-imidazo[4,5-d][1,2]thiazol-6-yl)oxolane-3,4-diol
> <PUBCHEM_IUPAC_TRADITIONAL_NAME>
(2R,3S,4S,5R)-2-[3-methyl-5-(methylthio)imidaz[4,5-d]isothiazol-6-yl]-5-methylol-tetrahydrofuran-3,4-diol
> <PUBCHEM_IUPAC_INCHI>
InChI=1S/C11H15N3O4S2/c1-4-6-10(20-13-4)14(11(12-6)19-2)9-8(17)7(16)5(3-15)18-9/h5,7-9,15-17H,3H2,1-2H3/t5-,7-,8+,9-/m1/s1
> <PUBCHEM_IUPAC_INCHIKEY>
PAGGYHJQVZRZGF-BUJSFMDZSA-N
> <PUBCHEM_XLOGP3_AA>
0.5
> <PUBCHEM_EXACT_MASS>
317.05039832
> <PUBCHEM_MOLECULAR_FORMULA>
C11H15N3O4S2
> <PUBCHEM_MOLECULAR_WEIGHT>
317.4
> <PUBCHEM_OPENEYE_CAN_SMILES>
CC1=NSC2=C1N=C(N2C3C(C(C(O3)CO)O)O)SC
> <PUBCHEM_OPENEYE_ISO_SMILES>
CC1=NSC2=C1N=C(N2[C@H]3[C@H]([C@@H]([C@H](O3)CO)O)O)SC
> <PUBCHEM_CACTVS_TPSA>
154
> <PUBCHEM_MONOISOTOPIC_WEIGHT>
317.05039832
> <PUBCHEM_TOTAL_CHARGE>
0
> <PUBCHEM_HEAVY_ATOM_COUNT>
20
> <PUBCHEM_ATOM_DEF_STEREO_COUNT>
4
> <PUBCHEM_ATOM_UDEF_STEREO_COUNT>
0
> <PUBCHEM_BOND_DEF_STEREO_COUNT>
0
> <PUBCHEM_BOND_UDEF_STEREO_COUNT>
0
> <PUBCHEM_ISOTOPIC_ATOM_COUNT>
0
> <PUBCHEM_COMPONENT_COUNT>
1
> <PUBCHEM_CACTVS_TAUTO_COUNT>
-1
> <PUBCHEM_COORDINATE_TYPE>
1
5
255
> <PUBCHEM_BONDANNOTATIONS>
1  15  8
1  9  8
13  14  6
15  17  8
17  18  8
11  4  6
12  5  5
10  7  6
7  15  8
7  16  8
8  16  8
8  17  8
9  18  8
$$$$
