516174
  -OEChem-10302200282D
 89 93  0     1  0  0  0  0  0999 V2000
    7.4899   -6.9388    0.0000 F   0  0  0  0  0  0  0  0  0  0  0  0
    2.3644   -3.5861    0.0000 O   0  0  0  0  0  0  0  0  0  0  0  0
    3.7657   -4.6042    0.0000 O   0  0  0  0  0  0  0  0  0  0  0  0
    4.9413   -2.9861    0.0000 N   0  0  3  0  0  0  0  0  0  0  0  0
    7.3900   -1.1497    0.0000 N   0  0  0  0  0  0  0  0  0  0  0  0
    6.5809    2.4381    0.0000 N   0  0  0  0  0  0  0  0  0  0  0  0
    6.8900    3.3891    0.0000 N   0  0  0  0  0  0  0  0  0  0  0  0
    6.5239   -2.6497    0.0000 C   0  0  2  0  0  0  0  0  0  0  0  0
    6.4194   -3.6442    0.0000 C   0  0  2  0  0  0  0  0  0  0  0  0
    5.6104   -2.2430    0.0000 C   0  0  0  0  0  0  0  0  0  0  0  0
    5.4413   -3.8521    0.0000 C   0  0  0  0  0  0  0  0  0  0  0  0
    7.3900   -2.1497    0.0000 C   0  0  0  0  0  0  0  0  0  0  0  0
    3.9467   -2.8816    0.0000 C   0  0  2  0  0  0  0  0  0  0  0  0
    7.3900    0.8503    0.0000 C   0  0  0  0  0  0  0  0  0  0  0  0
    6.5239   -0.6497    0.0000 C   0  0  0  0  0  0  0  0  0  0  0  0
    8.2560   -0.6497    0.0000 C   0  0  0  0  0  0  0  0  0  0  0  0
    6.5239    0.3503    0.0000 C   0  0  0  0  0  0  0  0  0  0  0  0
    8.2560    0.3503    0.0000 C   0  0  0  0  0  0  0  0  0  0  0  0
    7.1626   -4.3134    0.0000 C   0  0  0  0  0  0  0  0  0  0  0  0
    3.5400   -1.9680    0.0000 C   0  0  0  0  0  0  0  0  0  0  0  0
    7.3900    1.8503    0.0000 C   0  0  0  0  0  0  0  0  0  0  0  0
    3.3590   -3.6906    0.0000 C   0  0  0  0  0  0  0  0  0  0  0  0
    8.0710    5.1117    0.0000 C   0  0  0  0  0  0  0  0  0  0  0  0
    6.9546   -5.2915    0.0000 C   0  0  0  0  0  0  0  0  0  0  0  0
    8.1136   -4.0043    0.0000 C   0  0  0  0  0  0  0  0  0  0  0  0
    8.4777    4.1982    0.0000 C   0  0  0  0  0  0  0  0  0  0  0  0
    8.1990    2.4381    0.0000 C   0  0  0  0  0  0  0  0  0  0  0  0
    2.5455   -1.8635    0.0000 C   0  0  0  0  0  0  0  0  0  0  0  0
    4.1278   -1.1590    0.0000 C   0  0  0  0  0  0  0  0  0  0  0  0
    7.8900    3.3891    0.0000 C   0  0  0  0  0  0  0  0  0  0  0  0
    8.6588    5.9207    0.0000 C   0  0  0  0  0  0  0  0  0  0  0  0
    7.0765    5.2162    0.0000 C   0  0  0  0  0  0  0  0  0  0  0  0
    8.2520    6.8343    0.0000 C   0  0  0  0  0  0  0  0  0  0  0  0
    6.6698    6.1298    0.0000 C   0  0  0  0  0  0  0  0  0  0  0  0
    7.2575    6.9388    0.0000 C   0  0  0  0  0  0  0  0  0  0  0  0
    7.6978   -5.9606    0.0000 C   0  0  0  0  0  0  0  0  0  0  0  0
    8.8568   -4.6735    0.0000 C   0  0  0  0  0  0  0  0  0  0  0  0
    5.6299    2.1291    0.0000 C   0  0  0  0  0  0  0  0  0  0  0  0
    8.6488   -5.6516    0.0000 C   0  0  0  0  0  0  0  0  0  0  0  0
    4.8867    2.7982    0.0000 C   0  0  0  0  0  0  0  0  0  0  0  0
    7.0439   -2.9874    0.0000 H   0  0  0  0  0  0  0  0  0  0  0  0
    6.2589   -4.2431    0.0000 H   0  0  0  0  0  0  0  0  0  0  0  0
    5.9204   -1.7060    0.0000 H   0  0  0  0  0  0  0  0  0  0  0  0
    5.1088   -1.8785    0.0000 H   0  0  0  0  0  0  0  0  0  0  0  0
    4.8749   -4.1043    0.0000 H   0  0  0  0  0  0  0  0  0  0  0  0
    5.6328   -4.4418    0.0000 H   0  0  0  0  0  0  0  0  0  0  0  0
    7.6020   -2.7323    0.0000 H   0  0  0  0  0  0  0  0  0  0  0  0
    8.0005   -2.0420    0.0000 H   0  0  0  0  0  0  0  0  0  0  0  0
    4.1989   -3.4480    0.0000 H   0  0  0  0  0  0  0  0  0  0  0  0
    7.9269    1.1603    0.0000 H   0  0  0  0  0  0  0  0  0  0  0  0
    5.9134   -0.5420    0.0000 H   0  0  0  0  0  0  0  0  0  0  0  0
    6.3119   -1.2323    0.0000 H   0  0  0  0  0  0  0  0  0  0  0  0
    8.4680   -1.2323    0.0000 H   0  0  0  0  0  0  0  0  0  0  0  0
    8.8666   -0.5420    0.0000 H   0  0  0  0  0  0  0  0  0  0  0  0
    6.3119    0.9329    0.0000 H   0  0  0  0  0  0  0  0  0  0  0  0
    5.9134    0.2426    0.0000 H   0  0  0  0  0  0  0  0  0  0  0  0
    8.8666    0.2426    0.0000 H   0  0  0  0  0  0  0  0  0  0  0  0
    8.4680    0.9329    0.0000 H   0  0  0  0  0  0  0  0  0  0  0  0
    3.2878   -1.4016    0.0000 H   0  0  0  0  0  0  0  0  0  0  0  0
    8.6876    5.0469    0.0000 H   0  0  0  0  0  0  0  0  0  0  0  0
    6.3650   -5.4831    0.0000 H   0  0  0  0  0  0  0  0  0  0  0  0
    8.2425   -3.3979    0.0000 H   0  0  0  0  0  0  0  0  0  0  0  0
    8.9084    3.7522    0.0000 H   0  0  0  0  0  0  0  0  0  0  0  0
    8.9918    4.5448    0.0000 H   0  0  0  0  0  0  0  0  0  0  0  0
    8.7886    2.2465    0.0000 H   0  0  0  0  0  0  0  0  0  0  0  0
    2.6103   -1.2469    0.0000 H   0  0  0  0  0  0  0  0  0  0  0  0
    1.9289   -1.7987    0.0000 H   0  0  0  0  0  0  0  0  0  0  0  0
    2.4807   -2.4801    0.0000 H   0  0  0  0  0  0  0  0  0  0  0  0
    4.6294   -1.5234    0.0000 H   0  0  0  0  0  0  0  0  0  0  0  0
    4.4922   -0.6574    0.0000 H   0  0  0  0  0  0  0  0  0  0  0  0
    3.6262   -0.7946    0.0000 H   0  0  0  0  0  0  0  0  0  0  0  0
    9.0895    5.4747    0.0000 H   0  0  0  0  0  0  0  0  0  0  0  0
    9.1728    6.2674    0.0000 H   0  0  0  0  0  0  0  0  0  0  0  0
    6.4749    5.0662    0.0000 H   0  0  0  0  0  0  0  0  0  0  0  0
    7.1197    4.5977    0.0000 H   0  0  0  0  0  0  0  0  0  0  0  0
    8.8536    6.9842    0.0000 H   0  0  0  0  0  0  0  0  0  0  0  0
    8.2088    7.4528    0.0000 H   0  0  0  0  0  0  0  0  0  0  0  0
    6.2391    6.5758    0.0000 H   0  0  0  0  0  0  0  0  0  0  0  0
    6.1557    5.7831    0.0000 H   0  0  0  0  0  0  0  0  0  0  0  0
    7.4284    7.5348    0.0000 H   0  0  0  0  0  0  0  0  0  0  0  0
    6.7003    7.2106    0.0000 H   0  0  0  0  0  0  0  0  0  0  0  0
    9.4464   -4.4819    0.0000 H   0  0  0  0  0  0  0  0  0  0  0  0
    5.1413    1.7474    0.0000 H   0  0  0  0  0  0  0  0  0  0  0  0
    5.9210    1.5816    0.0000 H   0  0  0  0  0  0  0  0  0  0  0  0
    9.1096   -6.0665    0.0000 H   0  0  0  0  0  0  0  0  0  0  0  0
    2.0000   -4.0877    0.0000 H   0  0  0  0  0  0  0  0  0  0  0  0
    5.3016    3.2589    0.0000 H   0  0  0  0  0  0  0  0  0  0  0  0
    4.4260    3.2130    0.0000 H   0  0  0  0  0  0  0  0  0  0  0  0
    4.4719    2.3374    0.0000 H   0  0  0  0  0  0  0  0  0  0  0  0
  1 36  1  0  0  0  0
  2 22  1  0  0  0  0
  2 86  1  0  0  0  0
  3 22  2  0  0  0  0
  4 10  1  0  0  0  0
  4 11  1  0  0  0  0
  4 13  1  0  0  0  0
  5 12  1  0  0  0  0
  5 15  1  0  0  0  0
  5 16  1  0  0  0  0
  6  7  1  0  0  0  0
  6 21  1  0  0  0  0
  6 38  1  0  0  0  0
  7 30  2  0  0  0  0
  8  9  1  0  0  0  0
  8 10  1  0  0  0  0
  8 12  1  6  0  0  0
  8 41  1  0  0  0  0
  9 11  1  0  0  0  0
  9 19  1  1  0  0  0
  9 42  1  0  0  0  0
 10 43  1  0  0  0  0
 10 44  1  0  0  0  0
 11 45  1  0  0  0  0
 11 46  1  0  0  0  0
 12 47  1  0  0  0  0
 12 48  1  0  0  0  0
 13 20  1  0  0  0  0
 13 22  1  1  0  0  0
 13 49  1  0  0  0  0
 14 17  1  0  0  0  0
 14 18  1  0  0  0  0
 14 21  1  0  0  0  0
 14 50  1  0  0  0  0
 15 17  1  0  0  0  0
 15 51  1  0  0  0  0
 15 52  1  0  0  0  0
 16 18  1  0  0  0  0
 16 53  1  0  0  0  0
 16 54  1  0  0  0  0
 17 55  1  0  0  0  0
 17 56  1  0  0  0  0
 18 57  1  0  0  0  0
 18 58  1  0  0  0  0
 19 24  2  0  0  0  0
 19 25  1  0  0  0  0
 20 28  1  0  0  0  0
 20 29  1  0  0  0  0
 20 59  1  0  0  0  0
 21 27  2  0  0  0  0
 23 26  1  0  0  0  0
 23 31  1  0  0  0  0
 23 32  1  0  0  0  0
 23 60  1  0  0  0  0
 24 36  1  0  0  0  0
 24 61  1  0  0  0  0
 25 37  2  0  0  0  0
 25 62  1  0  0  0  0
 26 30  1  0  0  0  0
 26 63  1  0  0  0  0
 26 64  1  0  0  0  0
 27 30  1  0  0  0  0
 27 65  1  0  0  0  0
 28 66  1  0  0  0  0
 28 67  1  0  0  0  0
 28 68  1  0  0  0  0
 29 69  1  0  0  0  0
 29 70  1  0  0  0  0
 29 71  1  0  0  0  0
 31 33  1  0  0  0  0
 31 72  1  0  0  0  0
 31 73  1  0  0  0  0
 32 34  1  0  0  0  0
 32 74  1  0  0  0  0
 32 75  1  0  0  0  0
 33 35  1  0  0  0  0
 33 76  1  0  0  0  0
 33 77  1  0  0  0  0
 34 35  1  0  0  0  0
 34 78  1  0  0  0  0
 34 79  1  0  0  0  0
 35 80  1  0  0  0  0
 35 81  1  0  0  0  0
 36 39  2  0  0  0  0
 37 39  1  0  0  0  0
 37 82  1  0  0  0  0
 38 40  1  0  0  0  0
 38 83  1  0  0  0  0
 38 84  1  0  0  0  0
 39 85  1  0  0  0  0
 40 87  1  0  0  0  0
 40 88  1  0  0  0  0
 40 89  1  0  0  0  0
M  END
> <PUBCHEM_COMPOUND_CID>
516174
> <PUBCHEM_COMPOUND_CANONICALIZED>
1
> <PUBCHEM_CACTVS_COMPLEXITY>
799
> <PUBCHEM_CACTVS_HBOND_ACCEPTOR>
6
> <PUBCHEM_CACTVS_HBOND_DONOR>
1
> <PUBCHEM_CACTVS_ROTATABLE_BOND>
10
> <PUBCHEM_CACTVS_SUBSKEYS>
AAADcfB/sQAAAAAAAAAAAAAAAAAAAWLAAAA8YIAAAAAAAAABwAAAHwAICAAADSjBngwyiJMIAgCqAyTyTACSBAAhggAY2CG4ZJgKIDLA0fGE5AhkiADYyAcQgMAOgAAAAAAAAAAAAAAAAAAAAAAAAAAAAA==
> <PUBCHEM_IUPAC_OPENEYE_NAME>
(2R)-2-[(3S,4S)-3-[[4-[5-(cyclohexylmethyl)-2-ethyl-pyrazol-3-yl]-1-piperidyl]methyl]-4-(3-fluorophenyl)pyrrolidin-1-yl]-3-methyl-butanoic acid
> <PUBCHEM_IUPAC_CAS_NAME>
(2R)-2-[(3S,4S)-3-[[4-[5-(cyclohexylmethyl)-2-ethyl-3-pyrazolyl]-1-piperidinyl]methyl]-4-(3-fluorophenyl)-1-pyrrolidinyl]-3-methylbutanoic acid
> <PUBCHEM_IUPAC_NAME_MARKUP>
(2<I>R</I>)-2-[(3<I>S</I>,4<I>S</I>)-3-[[4-[5-(cyclohexylmethyl)-2-ethylpyrazol-3-yl]piperidin-1-yl]methyl]-4-(3-fluorophenyl)pyrrolidin-1-yl]-3-methylbutanoic acid
> <PUBCHEM_IUPAC_NAME>
(2R)-2-[(3S,4S)-3-[[4-[5-(cyclohexylmethyl)-2-ethylpyrazol-3-yl]piperidin-1-yl]methyl]-4-(3-fluorophenyl)pyrrolidin-1-yl]-3-methylbutanoic acid
> <PUBCHEM_IUPAC_SYSTEMATIC_NAME>
(2R)-2-[(3S,4S)-3-[[4-[5-(cyclohexylmethyl)-2-ethyl-pyrazol-3-yl]piperidin-1-yl]methyl]-4-(3-fluorophenyl)pyrrolidin-1-yl]-3-methyl-butanoic acid
> <PUBCHEM_IUPAC_TRADITIONAL_NAME>
(2R)-2-[(3S,4S)-3-[[4-[5-(cyclohexylmethyl)-2-ethyl-pyrazol-3-yl]piperidino]methyl]-4-(3-fluorophenyl)pyrrolidino]-3-methyl-butyric acid
> <PUBCHEM_IUPAC_INCHI>
InChI=1S/C33H49FN4O2/c1-4-38-31(19-29(35-38)17-24-9-6-5-7-10-24)25-13-15-36(16-14-25)20-27-21-37(32(23(2)3)33(39)40)22-30(27)26-11-8-12-28(34)18-26/h8,11-12,18-19,23-25,27,30,32H,4-7,9-10,13-17,20-22H2,1-3H3,(H,39,40)/t27-,30+,32+/m0/s1
> <PUBCHEM_IUPAC_INCHIKEY>
RODLAWWELODJBV-HYRLGQOJSA-N
> <PUBCHEM_XLOGP3_AA>
4.8
> <PUBCHEM_EXACT_MASS>
552.38395498
> <PUBCHEM_MOLECULAR_FORMULA>
C33H49FN4O2
> <PUBCHEM_MOLECULAR_WEIGHT>
552.8
> <PUBCHEM_OPENEYE_CAN_SMILES>
CCN1C(=CC(=N1)CC2CCCCC2)C3CCN(CC3)CC4CN(CC4C5=CC(=CC=C5)F)C(C(C)C)C(=O)O
> <PUBCHEM_OPENEYE_ISO_SMILES>
CCN1C(=CC(=N1)CC2CCCCC2)C3CCN(CC3)C[C@H]4CN(C[C@@H]4C5=CC(=CC=C5)F)[C@H](C(C)C)C(=O)O
> <PUBCHEM_CACTVS_TPSA>
61.6
> <PUBCHEM_MONOISOTOPIC_WEIGHT>
552.38395498
> <PUBCHEM_TOTAL_CHARGE>
0
> <PUBCHEM_HEAVY_ATOM_COUNT>
40
> <PUBCHEM_ATOM_DEF_STEREO_COUNT>
3
> <PUBCHEM_ATOM_UDEF_STEREO_COUNT>
0
> <PUBCHEM_BOND_DEF_STEREO_COUNT>
0
> <PUBCHEM_BOND_UDEF_STEREO_COUNT>
0
> <PUBCHEM_ISOTOPIC_ATOM_COUNT>
0
> <PUBCHEM_COMPONENT_COUNT>
1
> <PUBCHEM_CACTVS_TAUTO_COUNT>
-1
> <PUBCHEM_COORDINATE_TYPE>
1
5
255
> <PUBCHEM_BONDANNOTATIONS>
13  22  5
19  24  8
19  25  8
21  27  8
24  36  8
25  37  8
27  30  8
36  39  8
37  39  8
6  21  8
6  7  8
7  30  8
8  12  6
9  19  5
$$$$
