516141
  -OEChem-10302200282D
 52 54  0     1  0  0  0  0  0999 V2000
    5.0009    0.6445    0.0000 O   0  0  0  0  0  0  0  0  0  0  0  0
    4.0778   -2.9433    0.0000 O   0  0  0  0  0  0  0  0  0  0  0  0
    2.0000   -6.4259    0.0000 O   0  0  0  0  0  0  0  0  0  0  0  0
    3.7688   -3.8944    0.0000 N   0  0  0  0  0  0  0  0  0  0  0  0
    4.1919    5.2323    0.0000 N   0  0  0  0  0  0  0  0  0  0  0  0
    5.8099    5.2323    0.0000 N   0  0  0  0  0  0  0  0  0  0  0  0
    4.5009    6.1833    0.0000 N   0  0  0  0  0  0  0  0  0  0  0  0
    5.5009    6.1833    0.0000 N   0  0  0  0  0  0  0  0  0  0  0  0
    4.1349   -0.8555    0.0000 C   0  0  0  0  0  0  0  0  0  0  0  0
    3.2688   -1.3555    0.0000 C   0  0  0  0  0  0  0  0  0  0  0  0
    4.1349    0.1445    0.0000 C   0  0  0  0  0  0  0  0  0  0  0  0
    3.2688   -2.3555    0.0000 C   0  0  0  0  0  0  0  0  0  0  0  0
    2.1810   -4.7034    0.0000 C   0  0  0  0  0  0  0  0  0  0  0  0
    5.0009    1.6445    0.0000 C   0  0  0  0  0  0  0  0  0  0  0  0
    2.7688   -3.8944    0.0000 C   0  0  0  0  0  0  0  0  0  0  0  0
    2.5878   -5.6169    0.0000 C   0  0  3  0  0  0  0  0  0  0  0  0
    2.4598   -2.9433    0.0000 C   0  0  0  0  0  0  0  0  0  0  0  0
    5.8669    2.1445    0.0000 C   0  0  0  0  0  0  0  0  0  0  0  0
    4.1349    2.1445    0.0000 C   0  0  0  0  0  0  0  0  0  0  0  0
    5.0009    3.6445    0.0000 C   0  0  0  0  0  0  0  0  0  0  0  0
    5.8669    3.1445    0.0000 C   0  0  0  0  0  0  0  0  0  0  0  0
    4.1349    3.1445    0.0000 C   0  0  0  0  0  0  0  0  0  0  0  0
    3.5823   -5.7214    0.0000 C   0  0  0  0  0  0  0  0  0  0  0  0
    6.7329    1.6445    0.0000 C   0  0  0  0  0  0  0  0  0  0  0  0
    3.2688    1.6445    0.0000 C   0  0  0  0  0  0  0  0  0  0  0  0
    5.0009    4.6445    0.0000 C   0  0  0  0  0  0  0  0  0  0  0  0
    3.9131    6.9923    0.0000 C   0  0  0  0  0  0  0  0  0  0  0  0
    4.3469   -1.4381    0.0000 H   0  0  0  0  0  0  0  0  0  0  0  0
    4.7454   -0.7479    0.0000 H   0  0  0  0  0  0  0  0  0  0  0  0
    3.0568   -0.7729    0.0000 H   0  0  0  0  0  0  0  0  0  0  0  0
    2.6582   -1.4632    0.0000 H   0  0  0  0  0  0  0  0  0  0  0  0
    3.9228    0.7271    0.0000 H   0  0  0  0  0  0  0  0  0  0  0  0
    3.5243    0.0368    0.0000 H   0  0  0  0  0  0  0  0  0  0  0  0
    1.7504   -4.2574    0.0000 H   0  0  0  0  0  0  0  0  0  0  0  0
    1.6670   -5.0501    0.0000 H   0  0  0  0  0  0  0  0  0  0  0  0
    1.9712   -5.5521    0.0000 H   0  0  0  0  0  0  0  0  0  0  0  0
    1.8702   -2.7517    0.0000 H   0  0  0  0  0  0  0  0  0  0  0  0
    6.4038    3.4545    0.0000 H   0  0  0  0  0  0  0  0  0  0  0  0
    3.5979    3.4545    0.0000 H   0  0  0  0  0  0  0  0  0  0  0  0
    3.5175   -6.3381    0.0000 H   0  0  0  0  0  0  0  0  0  0  0  0
    4.1989   -5.7863    0.0000 H   0  0  0  0  0  0  0  0  0  0  0  0
    3.6471   -5.1048    0.0000 H   0  0  0  0  0  0  0  0  0  0  0  0
    6.4229    1.1075    0.0000 H   0  0  0  0  0  0  0  0  0  0  0  0
    7.2699    1.3345    0.0000 H   0  0  0  0  0  0  0  0  0  0  0  0
    7.0429    2.1814    0.0000 H   0  0  0  0  0  0  0  0  0  0  0  0
    2.9588    2.1814    0.0000 H   0  0  0  0  0  0  0  0  0  0  0  0
    2.7319    1.3345    0.0000 H   0  0  0  0  0  0  0  0  0  0  0  0
    3.5788    1.1075    0.0000 H   0  0  0  0  0  0  0  0  0  0  0  0
    2.2522   -6.9923    0.0000 H   0  0  0  0  0  0  0  0  0  0  0  0
    4.4147    7.3568    0.0000 H   0  0  0  0  0  0  0  0  0  0  0  0
    3.5487    7.4939    0.0000 H   0  0  0  0  0  0  0  0  0  0  0  0
    3.4115    6.6279    0.0000 H   0  0  0  0  0  0  0  0  0  0  0  0
  1 11  1  0  0  0  0
  1 14  1  0  0  0  0
  2  4  1  0  0  0  0
  2 12  1  0  0  0  0
  3 16  1  0  0  0  0
  3 49  1  0  0  0  0
  4 15  2  0  0  0  0
  5  7  1  0  0  0  0
  5 26  2  0  0  0  0
  6  8  2  0  0  0  0
  6 26  1  0  0  0  0
  7  8  1  0  0  0  0
  7 27  1  0  0  0  0
  9 10  1  0  0  0  0
  9 11  1  0  0  0  0
  9 28  1  0  0  0  0
  9 29  1  0  0  0  0
 10 12  1  0  0  0  0
 10 30  1  0  0  0  0
 10 31  1  0  0  0  0
 11 32  1  0  0  0  0
 11 33  1  0  0  0  0
 12 17  2  0  0  0  0
 13 15  1  0  0  0  0
 13 16  1  0  0  0  0
 13 34  1  0  0  0  0
 13 35  1  0  0  0  0
 14 18  2  0  0  0  0
 14 19  1  0  0  0  0
 15 17  1  0  0  0  0
 16 23  1  0  0  0  0
 16 36  1  0  0  0  0
 17 37  1  0  0  0  0
 18 21  1  0  0  0  0
 18 24  1  0  0  0  0
 19 22  2  0  0  0  0
 19 25  1  0  0  0  0
 20 21  2  0  0  0  0
 20 22  1  0  0  0  0
 20 26  1  0  0  0  0
 21 38  1  0  0  0  0
 22 39  1  0  0  0  0
 23 40  1  0  0  0  0
 23 41  1  0  0  0  0
 23 42  1  0  0  0  0
 24 43  1  0  0  0  0
 24 44  1  0  0  0  0
 24 45  1  0  0  0  0
 25 46  1  0  0  0  0
 25 47  1  0  0  0  0
 25 48  1  0  0  0  0
 27 50  1  0  0  0  0
 27 51  1  0  0  0  0
 27 52  1  0  0  0  0
M  END
> <PUBCHEM_COMPOUND_CID>
516141
> <PUBCHEM_COMPOUND_CANONICALIZED>
1
> <PUBCHEM_CACTVS_COMPLEXITY>
445
> <PUBCHEM_CACTVS_HBOND_ACCEPTOR>
7
> <PUBCHEM_CACTVS_HBOND_DONOR>
1
> <PUBCHEM_CACTVS_ROTATABLE_BOND>
8
> <PUBCHEM_CACTVS_SUBSKEYS>
AAADceB7sAAAAAAAAAAAAAAAAAAAAWLAAAAwAAAAAAAAAAAB8AAAHgAMCAAADByhnwYzlpQQBgCrA6ZyYgCSCAIkogA0mCE2bNoMNrqEsZuCeaDmyBkI6Ufa/OROIAACAAAIAABAAAQAABAAAAAAAAAAAA==
> <PUBCHEM_IUPAC_OPENEYE_NAME>
1-[5-[3-[2,6-dimethyl-4-(2-methyltetrazol-5-yl)phenoxy]propyl]isoxazol-3-yl]propan-2-ol
> <PUBCHEM_IUPAC_CAS_NAME>
1-[5-[3-[2,6-dimethyl-4-(2-methyl-5-tetrazolyl)phenoxy]propyl]-3-isoxazolyl]-2-propanol
> <PUBCHEM_IUPAC_NAME_MARKUP>
1-[5-[3-[2,6-dimethyl-4-(2-methyltetrazol-5-yl)phenoxy]propyl]-1,2-oxazol-3-yl]propan-2-ol
> <PUBCHEM_IUPAC_NAME>
1-[5-[3-[2,6-dimethyl-4-(2-methyltetrazol-5-yl)phenoxy]propyl]-1,2-oxazol-3-yl]propan-2-ol
> <PUBCHEM_IUPAC_SYSTEMATIC_NAME>
1-[5-[3-[2,6-dimethyl-4-(2-methyl-1,2,3,4-tetrazol-5-yl)phenoxy]propyl]-1,2-oxazol-3-yl]propan-2-ol
> <PUBCHEM_IUPAC_TRADITIONAL_NAME>
1-[5-[3-[2,6-dimethyl-4-(2-methyltetrazol-5-yl)phenoxy]propyl]isoxazol-3-yl]propan-2-ol
> <PUBCHEM_IUPAC_INCHI>
InChI=1S/C19H25N5O3/c1-12-8-15(19-20-23-24(4)21-19)9-13(2)18(12)26-7-5-6-17-11-16(22-27-17)10-14(3)25/h8-9,11,14,25H,5-7,10H2,1-4H3
> <PUBCHEM_IUPAC_INCHIKEY>
SFQLHXHCSGVAAY-UHFFFAOYSA-N
> <PUBCHEM_XLOGP3_AA>
3.3
> <PUBCHEM_EXACT_MASS>
371.19573968
> <PUBCHEM_MOLECULAR_FORMULA>
C19H25N5O3
> <PUBCHEM_MOLECULAR_WEIGHT>
371.4
> <PUBCHEM_OPENEYE_CAN_SMILES>
CC1=CC(=CC(=C1OCCCC2=CC(=NO2)CC(C)O)C)C3=NN(N=N3)C
> <PUBCHEM_OPENEYE_ISO_SMILES>
CC1=CC(=CC(=C1OCCCC2=CC(=NO2)CC(C)O)C)C3=NN(N=N3)C
> <PUBCHEM_CACTVS_TPSA>
99.1
> <PUBCHEM_MONOISOTOPIC_WEIGHT>
371.19573968
> <PUBCHEM_TOTAL_CHARGE>
0
> <PUBCHEM_HEAVY_ATOM_COUNT>
27
> <PUBCHEM_ATOM_DEF_STEREO_COUNT>
0
> <PUBCHEM_ATOM_UDEF_STEREO_COUNT>
1
> <PUBCHEM_BOND_DEF_STEREO_COUNT>
0
> <PUBCHEM_BOND_UDEF_STEREO_COUNT>
0
> <PUBCHEM_ISOTOPIC_ATOM_COUNT>
0
> <PUBCHEM_COMPONENT_COUNT>
1
> <PUBCHEM_CACTVS_TAUTO_COUNT>
-1
> <PUBCHEM_COORDINATE_TYPE>
1
5
255
> <PUBCHEM_BONDANNOTATIONS>
12  17  8
14  18  8
14  19  8
15  17  8
18  21  8
19  22  8
2  12  8
2  4  8
20  21  8
20  22  8
16  3  3
4  15  8
5  26  8
5  7  8
6  26  8
6  8  8
7  8  8
$$$$
