516191
  -OEChem-10302200282D
 93 97  0     1  0  0  0  0  0999 V2000
    7.4899   -8.6614    0.0000 F   0  0  0  0  0  0  0  0  0  0  0  0
    2.3644   -5.3086    0.0000 O   0  0  0  0  0  0  0  0  0  0  0  0
    3.7657   -6.3267    0.0000 O   0  0  0  0  0  0  0  0  0  0  0  0
    6.8508    6.1298    0.0000 O   0  0  0  0  0  0  0  0  0  0  0  0
    4.9413   -4.7087    0.0000 N   0  0  3  0  0  0  0  0  0  0  0  0
    7.3900   -2.8723    0.0000 N   0  0  0  0  0  0  0  0  0  0  0  0
    6.5809    0.7155    0.0000 N   0  0  0  0  0  0  0  0  0  0  0  0
    6.8900    1.6666    0.0000 N   0  0  0  0  0  0  0  0  0  0  0  0
    6.5239   -4.3723    0.0000 C   0  0  2  0  0  0  0  0  0  0  0  0
    6.4194   -5.3668    0.0000 C   0  0  2  0  0  0  0  0  0  0  0  0
    5.6104   -3.9655    0.0000 C   0  0  0  0  0  0  0  0  0  0  0  0
    5.4413   -5.5747    0.0000 C   0  0  0  0  0  0  0  0  0  0  0  0
    7.3900   -3.8723    0.0000 C   0  0  0  0  0  0  0  0  0  0  0  0
    3.9467   -4.6042    0.0000 C   0  0  2  0  0  0  0  0  0  0  0  0
    6.5239   -2.3723    0.0000 C   0  0  0  0  0  0  0  0  0  0  0  0
    8.2560   -2.3723    0.0000 C   0  0  0  0  0  0  0  0  0  0  0  0
    7.1626   -6.0359    0.0000 C   0  0  0  0  0  0  0  0  0  0  0  0
    7.3900   -0.8723    0.0000 C   0  0  0  0  0  0  0  0  0  0  0  0
    6.5239   -1.3723    0.0000 C   0  0  0  0  0  0  0  0  0  0  0  0
    8.2560   -1.3723    0.0000 C   0  0  0  0  0  0  0  0  0  0  0  0
    3.5400   -3.6906    0.0000 C   0  0  0  0  0  0  0  0  0  0  0  0
    7.3900    0.1277    0.0000 C   0  0  0  0  0  0  0  0  0  0  0  0
    3.3590   -5.4132    0.0000 C   0  0  0  0  0  0  0  0  0  0  0  0
    6.9546   -7.0141    0.0000 C   0  0  0  0  0  0  0  0  0  0  0  0
    8.1136   -5.7269    0.0000 C   0  0  0  0  0  0  0  0  0  0  0  0
    2.5455   -3.5861    0.0000 C   0  0  0  0  0  0  0  0  0  0  0  0
    4.1278   -2.8816    0.0000 C   0  0  0  0  0  0  0  0  0  0  0  0
    8.1990    0.7155    0.0000 C   0  0  0  0  0  0  0  0  0  0  0  0
    7.6978   -7.6832    0.0000 C   0  0  0  0  0  0  0  0  0  0  0  0
    8.8568   -6.3960    0.0000 C   0  0  0  0  0  0  0  0  0  0  0  0
    7.8900    1.6666    0.0000 C   0  0  0  0  0  0  0  0  0  0  0  0
    8.6488   -7.3742    0.0000 C   0  0  0  0  0  0  0  0  0  0  0  0
    5.6299    0.4065    0.0000 C   0  0  0  0  0  0  0  0  0  0  0  0
    8.4777    2.4756    0.0000 C   0  0  0  0  0  0  0  0  0  0  0  0
    4.8867    1.0756    0.0000 C   0  0  0  0  0  0  0  0  0  0  0  0
    8.0710    3.3891    0.0000 C   0  0  0  0  0  0  0  0  0  0  0  0
    7.0765    3.4937    0.0000 C   0  0  0  0  0  0  0  0  0  0  0  0
    8.6588    4.1982    0.0000 C   0  0  0  0  0  0  0  0  0  0  0  0
    6.6698    4.4072    0.0000 C   0  0  0  0  0  0  0  0  0  0  0  0
    8.2520    5.1117    0.0000 C   0  0  0  0  0  0  0  0  0  0  0  0
    7.2575    5.2162    0.0000 C   0  0  0  0  0  0  0  0  0  0  0  0
    7.4386    6.9388    0.0000 C   0  0  0  0  0  0  0  0  0  0  0  0
    7.0318    7.8523    0.0000 C   0  0  0  0  0  0  0  0  0  0  0  0
    7.6196    8.6614    0.0000 C   0  0  0  0  0  0  0  0  0  0  0  0
    7.0439   -4.7100    0.0000 H   0  0  0  0  0  0  0  0  0  0  0  0
    6.9982   -5.1446    0.0000 H   0  0  0  0  0  0  0  0  0  0  0  0
    5.9204   -3.4286    0.0000 H   0  0  0  0  0  0  0  0  0  0  0  0
    5.1088   -3.6011    0.0000 H   0  0  0  0  0  0  0  0  0  0  0  0
    4.8749   -5.8269    0.0000 H   0  0  0  0  0  0  0  0  0  0  0  0
    5.6328   -6.1644    0.0000 H   0  0  0  0  0  0  0  0  0  0  0  0
    7.6020   -4.4549    0.0000 H   0  0  0  0  0  0  0  0  0  0  0  0
    8.0005   -3.7646    0.0000 H   0  0  0  0  0  0  0  0  0  0  0  0
    4.1989   -5.1706    0.0000 H   0  0  0  0  0  0  0  0  0  0  0  0
    5.9134   -2.2646    0.0000 H   0  0  0  0  0  0  0  0  0  0  0  0
    6.3119   -2.9549    0.0000 H   0  0  0  0  0  0  0  0  0  0  0  0
    8.4680   -2.9549    0.0000 H   0  0  0  0  0  0  0  0  0  0  0  0
    8.8666   -2.2646    0.0000 H   0  0  0  0  0  0  0  0  0  0  0  0
    7.9269   -0.5623    0.0000 H   0  0  0  0  0  0  0  0  0  0  0  0
    6.3119   -0.7897    0.0000 H   0  0  0  0  0  0  0  0  0  0  0  0
    5.9134   -1.4799    0.0000 H   0  0  0  0  0  0  0  0  0  0  0  0
    8.8666   -1.4799    0.0000 H   0  0  0  0  0  0  0  0  0  0  0  0
    8.4680   -0.7897    0.0000 H   0  0  0  0  0  0  0  0  0  0  0  0
    3.2878   -3.1242    0.0000 H   0  0  0  0  0  0  0  0  0  0  0  0
    6.3650   -7.2057    0.0000 H   0  0  0  0  0  0  0  0  0  0  0  0
    8.2425   -5.1204    0.0000 H   0  0  0  0  0  0  0  0  0  0  0  0
    2.6103   -2.9695    0.0000 H   0  0  0  0  0  0  0  0  0  0  0  0
    1.9289   -3.5213    0.0000 H   0  0  0  0  0  0  0  0  0  0  0  0
    2.4807   -4.2027    0.0000 H   0  0  0  0  0  0  0  0  0  0  0  0
    4.6294   -3.2460    0.0000 H   0  0  0  0  0  0  0  0  0  0  0  0
    4.4922   -2.3800    0.0000 H   0  0  0  0  0  0  0  0  0  0  0  0
    3.6262   -2.5172    0.0000 H   0  0  0  0  0  0  0  0  0  0  0  0
    8.7886    0.5239    0.0000 H   0  0  0  0  0  0  0  0  0  0  0  0
    9.4464   -6.2044    0.0000 H   0  0  0  0  0  0  0  0  0  0  0  0
    9.1096   -7.7890    0.0000 H   0  0  0  0  0  0  0  0  0  0  0  0
    5.1413    0.0248    0.0000 H   0  0  0  0  0  0  0  0  0  0  0  0
    5.9210   -0.1409    0.0000 H   0  0  0  0  0  0  0  0  0  0  0  0
    2.0000   -5.8102    0.0000 H   0  0  0  0  0  0  0  0  0  0  0  0
    8.9084    2.0296    0.0000 H   0  0  0  0  0  0  0  0  0  0  0  0
    8.9918    2.8223    0.0000 H   0  0  0  0  0  0  0  0  0  0  0  0
    5.3016    1.5364    0.0000 H   0  0  0  0  0  0  0  0  0  0  0  0
    4.4260    1.4905    0.0000 H   0  0  0  0  0  0  0  0  0  0  0  0
    4.4719    0.6149    0.0000 H   0  0  0  0  0  0  0  0  0  0  0  0
    6.7121    2.9921    0.0000 H   0  0  0  0  0  0  0  0  0  0  0  0
    9.2754    4.1333    0.0000 H   0  0  0  0  0  0  0  0  0  0  0  0
    6.0531    4.4720    0.0000 H   0  0  0  0  0  0  0  0  0  0  0  0
    8.6165    5.6133    0.0000 H   0  0  0  0  0  0  0  0  0  0  0  0
    7.8693    6.4928    0.0000 H   0  0  0  0  0  0  0  0  0  0  0  0
    7.9526    7.2855    0.0000 H   0  0  0  0  0  0  0  0  0  0  0  0
    6.6012    8.2983    0.0000 H   0  0  0  0  0  0  0  0  0  0  0  0
    6.5178    7.5056    0.0000 H   0  0  0  0  0  0  0  0  0  0  0  0
    8.1212    8.2969    0.0000 H   0  0  0  0  0  0  0  0  0  0  0  0
    7.9841    9.1629    0.0000 H   0  0  0  0  0  0  0  0  0  0  0  0
    7.1180    9.0258    0.0000 H   0  0  0  0  0  0  0  0  0  0  0  0
  1 29  1  0  0  0  0
  2 23  1  0  0  0  0
  2 77  1  0  0  0  0
  3 23  2  0  0  0  0
  4 41  1  0  0  0  0
  4 42  1  0  0  0  0
  5 11  1  0  0  0  0
  5 12  1  0  0  0  0
  5 14  1  0  0  0  0
  6 13  1  0  0  0  0
  6 15  1  0  0  0  0
  6 16  1  0  0  0  0
  7  8  1  0  0  0  0
  7 22  1  0  0  0  0
  7 33  1  0  0  0  0
  8 31  2  0  0  0  0
  9 10  1  0  0  0  0
  9 11  1  0  0  0  0
  9 13  1  6  0  0  0
  9 45  1  0  0  0  0
 10 12  1  0  0  0  0
 10 17  1  1  0  0  0
 10 46  1  0  0  0  0
 11 47  1  0  0  0  0
 11 48  1  0  0  0  0
 12 49  1  0  0  0  0
 12 50  1  0  0  0  0
 13 51  1  0  0  0  0
 13 52  1  0  0  0  0
 14 21  1  0  0  0  0
 14 23  1  1  0  0  0
 14 53  1  0  0  0  0
 15 19  1  0  0  0  0
 15 54  1  0  0  0  0
 15 55  1  0  0  0  0
 16 20  1  0  0  0  0
 16 56  1  0  0  0  0
 16 57  1  0  0  0  0
 17 24  2  0  0  0  0
 17 25  1  0  0  0  0
 18 19  1  0  0  0  0
 18 20  1  0  0  0  0
 18 22  1  0  0  0  0
 18 58  1  0  0  0  0
 19 59  1  0  0  0  0
 19 60  1  0  0  0  0
 20 61  1  0  0  0  0
 20 62  1  0  0  0  0
 21 26  1  0  0  0  0
 21 27  1  0  0  0  0
 21 63  1  0  0  0  0
 22 28  2  0  0  0  0
 24 29  1  0  0  0  0
 24 64  1  0  0  0  0
 25 30  2  0  0  0  0
 25 65  1  0  0  0  0
 26 66  1  0  0  0  0
 26 67  1  0  0  0  0
 26 68  1  0  0  0  0
 27 69  1  0  0  0  0
 27 70  1  0  0  0  0
 27 71  1  0  0  0  0
 28 31  1  0  0  0  0
 28 72  1  0  0  0  0
 29 32  2  0  0  0  0
 30 32  1  0  0  0  0
 30 73  1  0  0  0  0
 31 34  1  0  0  0  0
 32 74  1  0  0  0  0
 33 35  1  0  0  0  0
 33 75  1  0  0  0  0
 33 76  1  0  0  0  0
 34 36  1  0  0  0  0
 34 78  1  0  0  0  0
 34 79  1  0  0  0  0
 35 80  1  0  0  0  0
 35 81  1  0  0  0  0
 35 82  1  0  0  0  0
 36 37  2  0  0  0  0
 36 38  1  0  0  0  0
 37 39  1  0  0  0  0
 37 83  1  0  0  0  0
 38 40  2  0  0  0  0
 38 84  1  0  0  0  0
 39 41  2  0  0  0  0
 39 85  1  0  0  0  0
 40 41  1  0  0  0  0
 40 86  1  0  0  0  0
 42 43  1  0  0  0  0
 42 87  1  0  0  0  0
 42 88  1  0  0  0  0
 43 44  1  0  0  0  0
 43 89  1  0  0  0  0
 43 90  1  0  0  0  0
 44 91  1  0  0  0  0
 44 92  1  0  0  0  0
 44 93  1  0  0  0  0
M  END
> <PUBCHEM_COMPOUND_CID>
516191
> <PUBCHEM_COMPOUND_CANONICALIZED>
1
> <PUBCHEM_CACTVS_COMPLEXITY>
877
> <PUBCHEM_CACTVS_HBOND_ACCEPTOR>
7
> <PUBCHEM_CACTVS_HBOND_DONOR>
1
> <PUBCHEM_CACTVS_ROTATABLE_BOND>
13
> <PUBCHEM_CACTVS_SUBSKEYS>
AAADcfB/sQAAAAAAAAAAAAAAAAAAAWLAAAA8YIAAAAAAAAAB0AAAHwAICAAADSzhng4yjpMIBgCqAyTyTACSDAAhogAY2CG+bJgOJjLE8fuG/CjkyBHY6AeQwOAOoAAAAAAAAABAAAAAAAAAAAAAAAAAAA==
> <PUBCHEM_IUPAC_OPENEYE_NAME>
(2R)-2-[(3S,4S)-3-[[4-[2-ethyl-5-[(4-propoxyphenyl)methyl]pyrazol-3-yl]-1-piperidyl]methyl]-4-(3-fluorophenyl)pyrrolidin-1-yl]-3-methyl-butanoic acid
> <PUBCHEM_IUPAC_CAS_NAME>
(2R)-2-[(3S,4S)-3-[[4-[2-ethyl-5-[(4-propoxyphenyl)methyl]-3-pyrazolyl]-1-piperidinyl]methyl]-4-(3-fluorophenyl)-1-pyrrolidinyl]-3-methylbutanoic acid
> <PUBCHEM_IUPAC_NAME_MARKUP>
(2<I>R</I>)-2-[(3<I>S</I>,4<I>S</I>)-3-[[4-[2-ethyl-5-[(4-propoxyphenyl)methyl]pyrazol-3-yl]piperidin-1-yl]methyl]-4-(3-fluorophenyl)pyrrolidin-1-yl]-3-methylbutanoic acid
> <PUBCHEM_IUPAC_NAME>
(2R)-2-[(3S,4S)-3-[[4-[2-ethyl-5-[(4-propoxyphenyl)methyl]pyrazol-3-yl]piperidin-1-yl]methyl]-4-(3-fluorophenyl)pyrrolidin-1-yl]-3-methylbutanoic acid
> <PUBCHEM_IUPAC_SYSTEMATIC_NAME>
(2R)-2-[(3S,4S)-3-[[4-[2-ethyl-5-[(4-propoxyphenyl)methyl]pyrazol-3-yl]piperidin-1-yl]methyl]-4-(3-fluorophenyl)pyrrolidin-1-yl]-3-methyl-butanoic acid
> <PUBCHEM_IUPAC_TRADITIONAL_NAME>
(2R)-2-[(3S,4S)-3-[[4-[2-ethyl-5-(4-propoxybenzyl)pyrazol-3-yl]piperidino]methyl]-4-(3-fluorophenyl)pyrrolidino]-3-methyl-butyric acid
> <PUBCHEM_IUPAC_INCHI>
InChI=1S/C36H49FN4O3/c1-5-18-44-32-12-10-26(11-13-32)19-31-21-34(41(6-2)38-31)27-14-16-39(17-15-27)22-29-23-40(35(25(3)4)36(42)43)24-33(29)28-8-7-9-30(37)20-28/h7-13,20-21,25,27,29,33,35H,5-6,14-19,22-24H2,1-4H3,(H,42,43)/t29-,33+,35+/m0/s1
> <PUBCHEM_IUPAC_INCHIKEY>
YYKXMAVSPFGIFC-HMQVCXRFSA-N
> <PUBCHEM_XLOGP3_AA>
4.6
> <PUBCHEM_EXACT_MASS>
604.37886960
> <PUBCHEM_MOLECULAR_FORMULA>
C36H49FN4O3
> <PUBCHEM_MOLECULAR_WEIGHT>
604.8
> <PUBCHEM_OPENEYE_CAN_SMILES>
CCCOC1=CC=C(C=C1)CC2=NN(C(=C2)C3CCN(CC3)CC4CN(CC4C5=CC(=CC=C5)F)C(C(C)C)C(=O)O)CC
> <PUBCHEM_OPENEYE_ISO_SMILES>
CCCOC1=CC=C(C=C1)CC2=NN(C(=C2)C3CCN(CC3)C[C@H]4CN(C[C@@H]4C5=CC(=CC=C5)F)[C@H](C(C)C)C(=O)O)CC
> <PUBCHEM_CACTVS_TPSA>
70.8
> <PUBCHEM_MONOISOTOPIC_WEIGHT>
604.37886960
> <PUBCHEM_TOTAL_CHARGE>
0
> <PUBCHEM_HEAVY_ATOM_COUNT>
44
> <PUBCHEM_ATOM_DEF_STEREO_COUNT>
3
> <PUBCHEM_ATOM_UDEF_STEREO_COUNT>
0
> <PUBCHEM_BOND_DEF_STEREO_COUNT>
0
> <PUBCHEM_BOND_UDEF_STEREO_COUNT>
0
> <PUBCHEM_ISOTOPIC_ATOM_COUNT>
0
> <PUBCHEM_COMPONENT_COUNT>
1
> <PUBCHEM_CACTVS_TAUTO_COUNT>
-1
> <PUBCHEM_COORDINATE_TYPE>
1
5
255
> <PUBCHEM_BONDANNOTATIONS>
10  17  5
14  23  5
17  24  8
17  25  8
22  28  8
24  29  8
25  30  8
28  31  8
29  32  8
30  32  8
36  37  8
36  38  8
37  39  8
38  40  8
39  41  8
40  41  8
7  22  8
7  8  8
8  31  8
9  13  6
$$$$
