516192
  -OEChem-10302200282D
 96100  0     1  0  0  0  0  0999 V2000
    7.4899   -9.1181    0.0000 F   0  0  0  0  0  0  0  0  0  0  0  0
    2.3644   -5.7654    0.0000 O   0  0  0  0  0  0  0  0  0  0  0  0
    3.7657   -6.7835    0.0000 O   0  0  0  0  0  0  0  0  0  0  0  0
    6.8508    5.6730    0.0000 O   0  0  0  0  0  0  0  0  0  0  0  0
    4.9413   -5.1654    0.0000 N   0  0  3  0  0  0  0  0  0  0  0  0
    7.3900   -3.3290    0.0000 N   0  0  0  0  0  0  0  0  0  0  0  0
    6.5809    0.2587    0.0000 N   0  0  0  0  0  0  0  0  0  0  0  0
    6.8900    1.2098    0.0000 N   0  0  0  0  0  0  0  0  0  0  0  0
    6.5239   -4.8290    0.0000 C   0  0  2  0  0  0  0  0  0  0  0  0
    6.4194   -5.8236    0.0000 C   0  0  2  0  0  0  0  0  0  0  0  0
    5.6104   -4.4223    0.0000 C   0  0  0  0  0  0  0  0  0  0  0  0
    5.4413   -6.0315    0.0000 C   0  0  0  0  0  0  0  0  0  0  0  0
    7.3900   -4.3290    0.0000 C   0  0  0  0  0  0  0  0  0  0  0  0
    3.9467   -5.0609    0.0000 C   0  0  2  0  0  0  0  0  0  0  0  0
    6.5239   -2.8290    0.0000 C   0  0  0  0  0  0  0  0  0  0  0  0
    8.2560   -2.8290    0.0000 C   0  0  0  0  0  0  0  0  0  0  0  0
    7.1626   -6.4927    0.0000 C   0  0  0  0  0  0  0  0  0  0  0  0
    7.3900   -1.3290    0.0000 C   0  0  0  0  0  0  0  0  0  0  0  0
    6.5239   -1.8290    0.0000 C   0  0  0  0  0  0  0  0  0  0  0  0
    8.2560   -1.8290    0.0000 C   0  0  0  0  0  0  0  0  0  0  0  0
    3.5400   -4.1474    0.0000 C   0  0  0  0  0  0  0  0  0  0  0  0
    7.3900   -0.3290    0.0000 C   0  0  0  0  0  0  0  0  0  0  0  0
    3.3590   -5.8699    0.0000 C   0  0  0  0  0  0  0  0  0  0  0  0
    6.9546   -7.4708    0.0000 C   0  0  0  0  0  0  0  0  0  0  0  0
    8.1136   -6.1837    0.0000 C   0  0  0  0  0  0  0  0  0  0  0  0
    2.5455   -4.0428    0.0000 C   0  0  0  0  0  0  0  0  0  0  0  0
    4.1278   -3.3384    0.0000 C   0  0  0  0  0  0  0  0  0  0  0  0
    8.1990    0.2587    0.0000 C   0  0  0  0  0  0  0  0  0  0  0  0
    7.6978   -8.1400    0.0000 C   0  0  0  0  0  0  0  0  0  0  0  0
    8.8568   -6.8528    0.0000 C   0  0  0  0  0  0  0  0  0  0  0  0
    7.8900    1.2098    0.0000 C   0  0  0  0  0  0  0  0  0  0  0  0
    8.6488   -7.8310    0.0000 C   0  0  0  0  0  0  0  0  0  0  0  0
    5.6299   -0.0503    0.0000 C   0  0  0  0  0  0  0  0  0  0  0  0
    8.4777    2.0188    0.0000 C   0  0  0  0  0  0  0  0  0  0  0  0
    4.8867    0.6189    0.0000 C   0  0  0  0  0  0  0  0  0  0  0  0
    8.0710    2.9324    0.0000 C   0  0  0  0  0  0  0  0  0  0  0  0
    7.0765    3.0369    0.0000 C   0  0  0  0  0  0  0  0  0  0  0  0
    8.6588    3.7414    0.0000 C   0  0  0  0  0  0  0  0  0  0  0  0
    6.6698    3.9504    0.0000 C   0  0  0  0  0  0  0  0  0  0  0  0
    8.2520    4.6549    0.0000 C   0  0  0  0  0  0  0  0  0  0  0  0
    7.2575    4.7594    0.0000 C   0  0  0  0  0  0  0  0  0  0  0  0
    7.4386    6.4820    0.0000 C   0  0  0  0  0  0  0  0  0  0  0  0
    7.0318    7.3956    0.0000 C   0  0  0  0  0  0  0  0  0  0  0  0
    7.6196    8.2046    0.0000 C   0  0  0  0  0  0  0  0  0  0  0  0
    7.2129    9.1181    0.0000 C   0  0  0  0  0  0  0  0  0  0  0  0
    6.4915   -4.2099    0.0000 H   0  0  0  0  0  0  0  0  0  0  0  0
    6.2589   -6.4224    0.0000 H   0  0  0  0  0  0  0  0  0  0  0  0
    5.9204   -3.8854    0.0000 H   0  0  0  0  0  0  0  0  0  0  0  0
    5.1088   -4.0579    0.0000 H   0  0  0  0  0  0  0  0  0  0  0  0
    4.8749   -6.2836    0.0000 H   0  0  0  0  0  0  0  0  0  0  0  0
    5.6328   -6.6211    0.0000 H   0  0  0  0  0  0  0  0  0  0  0  0
    7.6020   -4.9116    0.0000 H   0  0  0  0  0  0  0  0  0  0  0  0
    8.0005   -4.2214    0.0000 H   0  0  0  0  0  0  0  0  0  0  0  0
    4.1989   -5.6273    0.0000 H   0  0  0  0  0  0  0  0  0  0  0  0
    5.9134   -2.7214    0.0000 H   0  0  0  0  0  0  0  0  0  0  0  0
    6.3119   -3.4116    0.0000 H   0  0  0  0  0  0  0  0  0  0  0  0
    8.4680   -3.4116    0.0000 H   0  0  0  0  0  0  0  0  0  0  0  0
    8.8666   -2.7214    0.0000 H   0  0  0  0  0  0  0  0  0  0  0  0
    7.9269   -1.0190    0.0000 H   0  0  0  0  0  0  0  0  0  0  0  0
    6.3119   -1.2464    0.0000 H   0  0  0  0  0  0  0  0  0  0  0  0
    5.9134   -1.9367    0.0000 H   0  0  0  0  0  0  0  0  0  0  0  0
    8.8666   -1.9367    0.0000 H   0  0  0  0  0  0  0  0  0  0  0  0
    8.4680   -1.2464    0.0000 H   0  0  0  0  0  0  0  0  0  0  0  0
    3.2878   -3.5810    0.0000 H   0  0  0  0  0  0  0  0  0  0  0  0
    6.3650   -7.6624    0.0000 H   0  0  0  0  0  0  0  0  0  0  0  0
    8.2425   -5.5772    0.0000 H   0  0  0  0  0  0  0  0  0  0  0  0
    2.6103   -3.4262    0.0000 H   0  0  0  0  0  0  0  0  0  0  0  0
    1.9289   -3.9780    0.0000 H   0  0  0  0  0  0  0  0  0  0  0  0
    2.4807   -4.6594    0.0000 H   0  0  0  0  0  0  0  0  0  0  0  0
    4.6294   -3.7028    0.0000 H   0  0  0  0  0  0  0  0  0  0  0  0
    4.4922   -2.8368    0.0000 H   0  0  0  0  0  0  0  0  0  0  0  0
    3.6262   -2.9739    0.0000 H   0  0  0  0  0  0  0  0  0  0  0  0
    8.7886    0.0672    0.0000 H   0  0  0  0  0  0  0  0  0  0  0  0
    9.4464   -6.6612    0.0000 H   0  0  0  0  0  0  0  0  0  0  0  0
    9.1096   -8.2458    0.0000 H   0  0  0  0  0  0  0  0  0  0  0  0
    5.1413   -0.4320    0.0000 H   0  0  0  0  0  0  0  0  0  0  0  0
    5.9210   -0.5977    0.0000 H   0  0  0  0  0  0  0  0  0  0  0  0
    2.0000   -6.2670    0.0000 H   0  0  0  0  0  0  0  0  0  0  0  0
    8.9084    1.5728    0.0000 H   0  0  0  0  0  0  0  0  0  0  0  0
    8.9918    2.3655    0.0000 H   0  0  0  0  0  0  0  0  0  0  0  0
    5.3016    1.0796    0.0000 H   0  0  0  0  0  0  0  0  0  0  0  0
    4.4260    1.0337    0.0000 H   0  0  0  0  0  0  0  0  0  0  0  0
    4.4719    0.1581    0.0000 H   0  0  0  0  0  0  0  0  0  0  0  0
    6.7121    2.5353    0.0000 H   0  0  0  0  0  0  0  0  0  0  0  0
    9.2754    3.6766    0.0000 H   0  0  0  0  0  0  0  0  0  0  0  0
    6.0531    4.0152    0.0000 H   0  0  0  0  0  0  0  0  0  0  0  0
    8.6165    5.1565    0.0000 H   0  0  0  0  0  0  0  0  0  0  0  0
    7.8693    6.0360    0.0000 H   0  0  0  0  0  0  0  0  0  0  0  0
    7.9526    6.8287    0.0000 H   0  0  0  0  0  0  0  0  0  0  0  0
    6.6012    7.8416    0.0000 H   0  0  0  0  0  0  0  0  0  0  0  0
    6.5178    7.0489    0.0000 H   0  0  0  0  0  0  0  0  0  0  0  0
    8.0503    7.7586    0.0000 H   0  0  0  0  0  0  0  0  0  0  0  0
    8.1336    8.5513    0.0000 H   0  0  0  0  0  0  0  0  0  0  0  0
    7.7793    9.3703    0.0000 H   0  0  0  0  0  0  0  0  0  0  0  0
    6.9607    9.6845    0.0000 H   0  0  0  0  0  0  0  0  0  0  0  0
    6.6465    8.8660    0.0000 H   0  0  0  0  0  0  0  0  0  0  0  0
  1 29  1  0  0  0  0
  2 23  1  0  0  0  0
  2 78  1  0  0  0  0
  3 23  2  0  0  0  0
  4 41  1  0  0  0  0
  4 42  1  0  0  0  0
  5 11  1  0  0  0  0
  5 12  1  0  0  0  0
  5 14  1  0  0  0  0
  6 13  1  0  0  0  0
  6 15  1  0  0  0  0
  6 16  1  0  0  0  0
  7  8  1  0  0  0  0
  7 22  1  0  0  0  0
  7 33  1  0  0  0  0
  8 31  2  0  0  0  0
  9 10  1  0  0  0  0
  9 11  1  0  0  0  0
  9 13  1  6  0  0  0
  9 46  1  0  0  0  0
 10 12  1  0  0  0  0
 10 17  1  1  0  0  0
 10 47  1  0  0  0  0
 11 48  1  0  0  0  0
 11 49  1  0  0  0  0
 12 50  1  0  0  0  0
 12 51  1  0  0  0  0
 13 52  1  0  0  0  0
 13 53  1  0  0  0  0
 14 21  1  0  0  0  0
 14 23  1  1  0  0  0
 14 54  1  0  0  0  0
 15 19  1  0  0  0  0
 15 55  1  0  0  0  0
 15 56  1  0  0  0  0
 16 20  1  0  0  0  0
 16 57  1  0  0  0  0
 16 58  1  0  0  0  0
 17 24  2  0  0  0  0
 17 25  1  0  0  0  0
 18 19  1  0  0  0  0
 18 20  1  0  0  0  0
 18 22  1  0  0  0  0
 18 59  1  0  0  0  0
 19 60  1  0  0  0  0
 19 61  1  0  0  0  0
 20 62  1  0  0  0  0
 20 63  1  0  0  0  0
 21 26  1  0  0  0  0
 21 27  1  0  0  0  0
 21 64  1  0  0  0  0
 22 28  2  0  0  0  0
 24 29  1  0  0  0  0
 24 65  1  0  0  0  0
 25 30  2  0  0  0  0
 25 66  1  0  0  0  0
 26 67  1  0  0  0  0
 26 68  1  0  0  0  0
 26 69  1  0  0  0  0
 27 70  1  0  0  0  0
 27 71  1  0  0  0  0
 27 72  1  0  0  0  0
 28 31  1  0  0  0  0
 28 73  1  0  0  0  0
 29 32  2  0  0  0  0
 30 32  1  0  0  0  0
 30 74  1  0  0  0  0
 31 34  1  0  0  0  0
 32 75  1  0  0  0  0
 33 35  1  0  0  0  0
 33 76  1  0  0  0  0
 33 77  1  0  0  0  0
 34 36  1  0  0  0  0
 34 79  1  0  0  0  0
 34 80  1  0  0  0  0
 35 81  1  0  0  0  0
 35 82  1  0  0  0  0
 35 83  1  0  0  0  0
 36 37  2  0  0  0  0
 36 38  1  0  0  0  0
 37 39  1  0  0  0  0
 37 84  1  0  0  0  0
 38 40  2  0  0  0  0
 38 85  1  0  0  0  0
 39 41  2  0  0  0  0
 39 86  1  0  0  0  0
 40 41  1  0  0  0  0
 40 87  1  0  0  0  0
 42 43  1  0  0  0  0
 42 88  1  0  0  0  0
 42 89  1  0  0  0  0
 43 44  1  0  0  0  0
 43 90  1  0  0  0  0
 43 91  1  0  0  0  0
 44 45  1  0  0  0  0
 44 92  1  0  0  0  0
 44 93  1  0  0  0  0
 45 94  1  0  0  0  0
 45 95  1  0  0  0  0
 45 96  1  0  0  0  0
M  END
> <PUBCHEM_COMPOUND_CID>
516192
> <PUBCHEM_COMPOUND_CANONICALIZED>
1
> <PUBCHEM_CACTVS_COMPLEXITY>
893
> <PUBCHEM_CACTVS_HBOND_ACCEPTOR>
7
> <PUBCHEM_CACTVS_HBOND_DONOR>
1
> <PUBCHEM_CACTVS_ROTATABLE_BOND>
14
> <PUBCHEM_CACTVS_SUBSKEYS>
AAADcfB/sQAAAAAAAAAAAAAAAAAAAWLAAAA8YIAAAAAAAAAB0AAAHwAICAAADSzhng4yjpMIBgCqAyTyTACSDAAhogAY2CG+bJgOJjLE8fuG/CjkyBHY6AeQwOAOoAAAAAAAAABAAAAAAAAAAAAAAAAAAA==
> <PUBCHEM_IUPAC_OPENEYE_NAME>
(2R)-2-[(3S,4S)-3-[[4-[5-[(4-butoxyphenyl)methyl]-2-ethyl-pyrazol-3-yl]-1-piperidyl]methyl]-4-(3-fluorophenyl)pyrrolidin-1-yl]-3-methyl-butanoic acid
> <PUBCHEM_IUPAC_CAS_NAME>
(2R)-2-[(3S,4S)-3-[[4-[5-[(4-butoxyphenyl)methyl]-2-ethyl-3-pyrazolyl]-1-piperidinyl]methyl]-4-(3-fluorophenyl)-1-pyrrolidinyl]-3-methylbutanoic acid
> <PUBCHEM_IUPAC_NAME_MARKUP>
(2<I>R</I>)-2-[(3<I>S</I>,4<I>S</I>)-3-[[4-[5-[(4-butoxyphenyl)methyl]-2-ethylpyrazol-3-yl]piperidin-1-yl]methyl]-4-(3-fluorophenyl)pyrrolidin-1-yl]-3-methylbutanoic acid
> <PUBCHEM_IUPAC_NAME>
(2R)-2-[(3S,4S)-3-[[4-[5-[(4-butoxyphenyl)methyl]-2-ethylpyrazol-3-yl]piperidin-1-yl]methyl]-4-(3-fluorophenyl)pyrrolidin-1-yl]-3-methylbutanoic acid
> <PUBCHEM_IUPAC_SYSTEMATIC_NAME>
(2R)-2-[(3S,4S)-3-[[4-[5-[(4-butoxyphenyl)methyl]-2-ethyl-pyrazol-3-yl]piperidin-1-yl]methyl]-4-(3-fluorophenyl)pyrrolidin-1-yl]-3-methyl-butanoic acid
> <PUBCHEM_IUPAC_TRADITIONAL_NAME>
(2R)-2-[(3S,4S)-3-[[4-[5-(4-butoxybenzyl)-2-ethyl-pyrazol-3-yl]piperidino]methyl]-4-(3-fluorophenyl)pyrrolidino]-3-methyl-butyric acid
> <PUBCHEM_IUPAC_INCHI>
InChI=1S/C37H51FN4O3/c1-5-7-19-45-33-13-11-27(12-14-33)20-32-22-35(42(6-2)39-32)28-15-17-40(18-16-28)23-30-24-41(36(26(3)4)37(43)44)25-34(30)29-9-8-10-31(38)21-29/h8-14,21-22,26,28,30,34,36H,5-7,15-20,23-25H2,1-4H3,(H,43,44)/t30-,34+,36+/m0/s1
> <PUBCHEM_IUPAC_INCHIKEY>
XLIWORCNUUZJJY-LOZBNSEJSA-N
> <PUBCHEM_XLOGP3_AA>
4.9
> <PUBCHEM_EXACT_MASS>
618.39451966
> <PUBCHEM_MOLECULAR_FORMULA>
C37H51FN4O3
> <PUBCHEM_MOLECULAR_WEIGHT>
618.8
> <PUBCHEM_OPENEYE_CAN_SMILES>
CCCCOC1=CC=C(C=C1)CC2=NN(C(=C2)C3CCN(CC3)CC4CN(CC4C5=CC(=CC=C5)F)C(C(C)C)C(=O)O)CC
> <PUBCHEM_OPENEYE_ISO_SMILES>
CCCCOC1=CC=C(C=C1)CC2=NN(C(=C2)C3CCN(CC3)C[C@H]4CN(C[C@@H]4C5=CC(=CC=C5)F)[C@H](C(C)C)C(=O)O)CC
> <PUBCHEM_CACTVS_TPSA>
70.8
> <PUBCHEM_MONOISOTOPIC_WEIGHT>
618.39451966
> <PUBCHEM_TOTAL_CHARGE>
0
> <PUBCHEM_HEAVY_ATOM_COUNT>
45
> <PUBCHEM_ATOM_DEF_STEREO_COUNT>
3
> <PUBCHEM_ATOM_UDEF_STEREO_COUNT>
0
> <PUBCHEM_BOND_DEF_STEREO_COUNT>
0
> <PUBCHEM_BOND_UDEF_STEREO_COUNT>
0
> <PUBCHEM_ISOTOPIC_ATOM_COUNT>
0
> <PUBCHEM_COMPONENT_COUNT>
1
> <PUBCHEM_CACTVS_TAUTO_COUNT>
-1
> <PUBCHEM_COORDINATE_TYPE>
1
5
255
> <PUBCHEM_BONDANNOTATIONS>
10  17  5
14  23  5
17  24  8
17  25  8
22  28  8
24  29  8
25  30  8
28  31  8
29  32  8
30  32  8
36  37  8
36  38  8
37  39  8
38  40  8
39  41  8
40  41  8
7  22  8
7  8  8
8  31  8
9  13  6
$$$$
