516194
  -OEChem-10302200282D
 94 99  0     1  0  0  0  0  0999 V2000
    7.4899   -8.3721    0.0000 F   0  0  0  0  0  0  0  0  0  0  0  0
    2.3644   -5.0194    0.0000 O   0  0  0  0  0  0  0  0  0  0  0  0
    3.7657   -6.0375    0.0000 O   0  0  0  0  0  0  0  0  0  0  0  0
    6.8508    6.4190    0.0000 O   0  0  0  0  0  0  0  0  0  0  0  0
    4.9413   -4.4195    0.0000 N   0  0  3  0  0  0  0  0  0  0  0  0
    7.3900   -2.5830    0.0000 N   0  0  0  0  0  0  0  0  0  0  0  0
    6.5809    1.0047    0.0000 N   0  0  0  0  0  0  0  0  0  0  0  0
    6.8900    1.9558    0.0000 N   0  0  0  0  0  0  0  0  0  0  0  0
    6.5239   -4.0830    0.0000 C   0  0  2  0  0  0  0  0  0  0  0  0
    6.4194   -5.0776    0.0000 C   0  0  2  0  0  0  0  0  0  0  0  0
    5.6104   -3.6763    0.0000 C   0  0  0  0  0  0  0  0  0  0  0  0
    5.4413   -5.2855    0.0000 C   0  0  0  0  0  0  0  0  0  0  0  0
    7.3900   -3.5830    0.0000 C   0  0  0  0  0  0  0  0  0  0  0  0
    3.9467   -4.3149    0.0000 C   0  0  2  0  0  0  0  0  0  0  0  0
    6.5239   -2.0830    0.0000 C   0  0  0  0  0  0  0  0  0  0  0  0
    8.2560   -2.0830    0.0000 C   0  0  0  0  0  0  0  0  0  0  0  0
    7.1626   -5.7467    0.0000 C   0  0  0  0  0  0  0  0  0  0  0  0
    7.3900   -0.5831    0.0000 C   0  0  0  0  0  0  0  0  0  0  0  0
    6.5239   -1.0830    0.0000 C   0  0  0  0  0  0  0  0  0  0  0  0
    8.2560   -1.0830    0.0000 C   0  0  0  0  0  0  0  0  0  0  0  0
    3.5400   -3.4014    0.0000 C   0  0  0  0  0  0  0  0  0  0  0  0
    7.3900    0.4169    0.0000 C   0  0  0  0  0  0  0  0  0  0  0  0
    3.3590   -5.1240    0.0000 C   0  0  0  0  0  0  0  0  0  0  0  0
    6.9546   -6.7248    0.0000 C   0  0  0  0  0  0  0  0  0  0  0  0
    8.1136   -5.4377    0.0000 C   0  0  0  0  0  0  0  0  0  0  0  0
    2.5455   -3.2969    0.0000 C   0  0  0  0  0  0  0  0  0  0  0  0
    4.1278   -2.5924    0.0000 C   0  0  0  0  0  0  0  0  0  0  0  0
    8.1990    1.0047    0.0000 C   0  0  0  0  0  0  0  0  0  0  0  0
    7.6978   -7.3940    0.0000 C   0  0  0  0  0  0  0  0  0  0  0  0
    8.8568   -6.1068    0.0000 C   0  0  0  0  0  0  0  0  0  0  0  0
    7.8900    1.9558    0.0000 C   0  0  0  0  0  0  0  0  0  0  0  0
    8.6488   -7.0850    0.0000 C   0  0  0  0  0  0  0  0  0  0  0  0
    5.6299    0.6957    0.0000 C   0  0  0  0  0  0  0  0  0  0  0  0
    8.4777    2.7648    0.0000 C   0  0  0  0  0  0  0  0  0  0  0  0
    7.4386    7.2280    0.0000 C   0  0  0  0  0  0  0  0  0  0  0  0
    8.4263    7.3844    0.0000 C   0  0  0  0  0  0  0  0  0  0  0  0
    7.2822    8.2157    0.0000 C   0  0  0  0  0  0  0  0  0  0  0  0
    8.2698    8.3721    0.0000 C   0  0  0  0  0  0  0  0  0  0  0  0
    4.8867    1.3648    0.0000 C   0  0  0  0  0  0  0  0  0  0  0  0
    8.0710    3.6784    0.0000 C   0  0  0  0  0  0  0  0  0  0  0  0
    7.2575    5.5054    0.0000 C   0  0  0  0  0  0  0  0  0  0  0  0
    7.0765    3.7829    0.0000 C   0  0  0  0  0  0  0  0  0  0  0  0
    8.6588    4.4874    0.0000 C   0  0  0  0  0  0  0  0  0  0  0  0
    6.6698    4.6964    0.0000 C   0  0  0  0  0  0  0  0  0  0  0  0
    8.2520    5.4009    0.0000 C   0  0  0  0  0  0  0  0  0  0  0  0
    7.0439   -4.4207    0.0000 H   0  0  0  0  0  0  0  0  0  0  0  0
    6.9982   -4.8554    0.0000 H   0  0  0  0  0  0  0  0  0  0  0  0
    5.9204   -3.1394    0.0000 H   0  0  0  0  0  0  0  0  0  0  0  0
    5.1088   -3.3119    0.0000 H   0  0  0  0  0  0  0  0  0  0  0  0
    4.8749   -5.5377    0.0000 H   0  0  0  0  0  0  0  0  0  0  0  0
    5.6328   -5.8751    0.0000 H   0  0  0  0  0  0  0  0  0  0  0  0
    7.6020   -4.1657    0.0000 H   0  0  0  0  0  0  0  0  0  0  0  0
    8.0005   -3.4754    0.0000 H   0  0  0  0  0  0  0  0  0  0  0  0
    4.1989   -4.8813    0.0000 H   0  0  0  0  0  0  0  0  0  0  0  0
    5.9134   -1.9754    0.0000 H   0  0  0  0  0  0  0  0  0  0  0  0
    6.3119   -2.6657    0.0000 H   0  0  0  0  0  0  0  0  0  0  0  0
    8.4680   -2.6657    0.0000 H   0  0  0  0  0  0  0  0  0  0  0  0
    8.8666   -1.9754    0.0000 H   0  0  0  0  0  0  0  0  0  0  0  0
    7.9269   -0.2731    0.0000 H   0  0  0  0  0  0  0  0  0  0  0  0
    6.3119   -0.5004    0.0000 H   0  0  0  0  0  0  0  0  0  0  0  0
    5.9134   -1.1907    0.0000 H   0  0  0  0  0  0  0  0  0  0  0  0
    8.8666   -1.1907    0.0000 H   0  0  0  0  0  0  0  0  0  0  0  0
    8.4680   -0.5004    0.0000 H   0  0  0  0  0  0  0  0  0  0  0  0
    3.2878   -2.8350    0.0000 H   0  0  0  0  0  0  0  0  0  0  0  0
    6.3650   -6.9164    0.0000 H   0  0  0  0  0  0  0  0  0  0  0  0
    8.2425   -4.8312    0.0000 H   0  0  0  0  0  0  0  0  0  0  0  0
    2.6103   -2.6802    0.0000 H   0  0  0  0  0  0  0  0  0  0  0  0
    1.9289   -3.2320    0.0000 H   0  0  0  0  0  0  0  0  0  0  0  0
    2.4807   -3.9135    0.0000 H   0  0  0  0  0  0  0  0  0  0  0  0
    4.6294   -2.9568    0.0000 H   0  0  0  0  0  0  0  0  0  0  0  0
    4.4922   -2.0908    0.0000 H   0  0  0  0  0  0  0  0  0  0  0  0
    3.6262   -2.2279    0.0000 H   0  0  0  0  0  0  0  0  0  0  0  0
    8.7886    0.8131    0.0000 H   0  0  0  0  0  0  0  0  0  0  0  0
    9.4464   -5.9152    0.0000 H   0  0  0  0  0  0  0  0  0  0  0  0
    9.1096   -7.4998    0.0000 H   0  0  0  0  0  0  0  0  0  0  0  0
    5.1413    0.3140    0.0000 H   0  0  0  0  0  0  0  0  0  0  0  0
    5.9210    0.1483    0.0000 H   0  0  0  0  0  0  0  0  0  0  0  0
    2.0000   -5.5210    0.0000 H   0  0  0  0  0  0  0  0  0  0  0  0
    8.9084    2.3188    0.0000 H   0  0  0  0  0  0  0  0  0  0  0  0
    8.9918    3.1115    0.0000 H   0  0  0  0  0  0  0  0  0  0  0  0
    7.7625    6.6994    0.0000 H   0  0  0  0  0  0  0  0  0  0  0  0
    8.5233    6.7721    0.0000 H   0  0  0  0  0  0  0  0  0  0  0  0
    9.0386    7.4814    0.0000 H   0  0  0  0  0  0  0  0  0  0  0  0
    7.1852    8.8281    0.0000 H   0  0  0  0  0  0  0  0  0  0  0  0
    6.6698    8.1187    0.0000 H   0  0  0  0  0  0  0  0  0  0  0  0
    8.8822    8.4691    0.0000 H   0  0  0  0  0  0  0  0  0  0  0  0
    8.1728    8.9845    0.0000 H   0  0  0  0  0  0  0  0  0  0  0  0
    5.3016    1.8256    0.0000 H   0  0  0  0  0  0  0  0  0  0  0  0
    4.4260    1.7797    0.0000 H   0  0  0  0  0  0  0  0  0  0  0  0
    4.4719    0.9041    0.0000 H   0  0  0  0  0  0  0  0  0  0  0  0
    6.7121    3.2813    0.0000 H   0  0  0  0  0  0  0  0  0  0  0  0
    9.2754    4.4226    0.0000 H   0  0  0  0  0  0  0  0  0  0  0  0
    6.0531    4.7612    0.0000 H   0  0  0  0  0  0  0  0  0  0  0  0
    8.6165    5.9025    0.0000 H   0  0  0  0  0  0  0  0  0  0  0  0
  1 29  1  0  0  0  0
  2 23  1  0  0  0  0
  2 78  1  0  0  0  0
  3 23  2  0  0  0  0
  4 35  1  0  0  0  0
  4 41  1  0  0  0  0
  5 11  1  0  0  0  0
  5 12  1  0  0  0  0
  5 14  1  0  0  0  0
  6 13  1  0  0  0  0
  6 15  1  0  0  0  0
  6 16  1  0  0  0  0
  7  8  1  0  0  0  0
  7 22  1  0  0  0  0
  7 33  1  0  0  0  0
  8 31  2  0  0  0  0
  9 10  1  0  0  0  0
  9 11  1  0  0  0  0
  9 13  1  6  0  0  0
  9 46  1  0  0  0  0
 10 12  1  0  0  0  0
 10 17  1  1  0  0  0
 10 47  1  0  0  0  0
 11 48  1  0  0  0  0
 11 49  1  0  0  0  0
 12 50  1  0  0  0  0
 12 51  1  0  0  0  0
 13 52  1  0  0  0  0
 13 53  1  0  0  0  0
 14 21  1  0  0  0  0
 14 23  1  1  0  0  0
 14 54  1  0  0  0  0
 15 19  1  0  0  0  0
 15 55  1  0  0  0  0
 15 56  1  0  0  0  0
 16 20  1  0  0  0  0
 16 57  1  0  0  0  0
 16 58  1  0  0  0  0
 17 24  2  0  0  0  0
 17 25  1  0  0  0  0
 18 19  1  0  0  0  0
 18 20  1  0  0  0  0
 18 22  1  0  0  0  0
 18 59  1  0  0  0  0
 19 60  1  0  0  0  0
 19 61  1  0  0  0  0
 20 62  1  0  0  0  0
 20 63  1  0  0  0  0
 21 26  1  0  0  0  0
 21 27  1  0  0  0  0
 21 64  1  0  0  0  0
 22 28  2  0  0  0  0
 24 29  1  0  0  0  0
 24 65  1  0  0  0  0
 25 30  2  0  0  0  0
 25 66  1  0  0  0  0
 26 67  1  0  0  0  0
 26 68  1  0  0  0  0
 26 69  1  0  0  0  0
 27 70  1  0  0  0  0
 27 71  1  0  0  0  0
 27 72  1  0  0  0  0
 28 31  1  0  0  0  0
 28 73  1  0  0  0  0
 29 32  2  0  0  0  0
 30 32  1  0  0  0  0
 30 74  1  0  0  0  0
 31 34  1  0  0  0  0
 32 75  1  0  0  0  0
 33 39  1  0  0  0  0
 33 76  1  0  0  0  0
 33 77  1  0  0  0  0
 34 40  1  0  0  0  0
 34 79  1  0  0  0  0
 34 80  1  0  0  0  0
 35 36  1  0  0  0  0
 35 37  1  0  0  0  0
 35 81  1  0  0  0  0
 36 38  1  0  0  0  0
 36 82  1  0  0  0  0
 36 83  1  0  0  0  0
 37 38  1  0  0  0  0
 37 84  1  0  0  0  0
 37 85  1  0  0  0  0
 38 86  1  0  0  0  0
 38 87  1  0  0  0  0
 39 88  1  0  0  0  0
 39 89  1  0  0  0  0
 39 90  1  0  0  0  0
 40 42  2  0  0  0  0
 40 43  1  0  0  0  0
 41 44  2  0  0  0  0
 41 45  1  0  0  0  0
 42 44  1  0  0  0  0
 42 91  1  0  0  0  0
 43 45  2  0  0  0  0
 43 92  1  0  0  0  0
 44 93  1  0  0  0  0
 45 94  1  0  0  0  0
M  END
> <PUBCHEM_COMPOUND_CID>
516194
> <PUBCHEM_COMPOUND_CANONICALIZED>
1
> <PUBCHEM_CACTVS_COMPLEXITY>
935
> <PUBCHEM_CACTVS_HBOND_ACCEPTOR>
7
> <PUBCHEM_CACTVS_HBOND_DONOR>
1
> <PUBCHEM_CACTVS_ROTATABLE_BOND>
12
> <PUBCHEM_CACTVS_SUBSKEYS>
AAADcfB/sQAAAAAAAAAAAAAAAABgAWLAAAA8YIAAAAAAAAAB0AAAHwAICAAADTzhng4yjpMIBgCqAyTyTACSDAAhogAY2CG+bJgOJjLE8fuG/CjkyBHY6AeQwOAOoAAAAAAAAABAAAAAAAAAAAAAAAAAAA==
> <PUBCHEM_IUPAC_OPENEYE_NAME>
(2R)-2-[(3S,4S)-3-[[4-[5-[[4-(cyclobutoxy)phenyl]methyl]-2-ethyl-pyrazol-3-yl]-1-piperidyl]methyl]-4-(3-fluorophenyl)pyrrolidin-1-yl]-3-methyl-butanoic acid
> <PUBCHEM_IUPAC_CAS_NAME>
(2R)-2-[(3S,4S)-3-[[4-[5-[(4-cyclobutyloxyphenyl)methyl]-2-ethyl-3-pyrazolyl]-1-piperidinyl]methyl]-4-(3-fluorophenyl)-1-pyrrolidinyl]-3-methylbutanoic acid
> <PUBCHEM_IUPAC_NAME_MARKUP>
(2<I>R</I>)-2-[(3<I>S</I>,4<I>S</I>)-3-[[4-[5-[(4-cyclobutyloxyphenyl)methyl]-2-ethylpyrazol-3-yl]piperidin-1-yl]methyl]-4-(3-fluorophenyl)pyrrolidin-1-yl]-3-methylbutanoic acid
> <PUBCHEM_IUPAC_NAME>
(2R)-2-[(3S,4S)-3-[[4-[5-[(4-cyclobutyloxyphenyl)methyl]-2-ethylpyrazol-3-yl]piperidin-1-yl]methyl]-4-(3-fluorophenyl)pyrrolidin-1-yl]-3-methylbutanoic acid
> <PUBCHEM_IUPAC_SYSTEMATIC_NAME>
(2R)-2-[(3S,4S)-3-[[4-[5-[(4-cyclobutyloxyphenyl)methyl]-2-ethyl-pyrazol-3-yl]piperidin-1-yl]methyl]-4-(3-fluorophenyl)pyrrolidin-1-yl]-3-methyl-butanoic acid
> <PUBCHEM_IUPAC_TRADITIONAL_NAME>
(2R)-2-[(3S,4S)-3-[[4-[5-[4-(cyclobutoxy)benzyl]-2-ethyl-pyrazol-3-yl]piperidino]methyl]-4-(3-fluorophenyl)pyrrolidino]-3-methyl-butyric acid
> <PUBCHEM_IUPAC_INCHI>
InChI=1S/C37H49FN4O3/c1-4-42-35(21-31(39-42)19-26-11-13-33(14-12-26)45-32-9-6-10-32)27-15-17-40(18-16-27)22-29-23-41(36(25(2)3)37(43)44)24-34(29)28-7-5-8-30(38)20-28/h5,7-8,11-14,20-21,25,27,29,32,34,36H,4,6,9-10,15-19,22-24H2,1-3H3,(H,43,44)/t29-,34+,36+/m0/s1
> <PUBCHEM_IUPAC_INCHIKEY>
VSDOQRBIRZGCHV-HROZJBRQSA-N
> <PUBCHEM_XLOGP3_AA>
4.6
> <PUBCHEM_EXACT_MASS>
616.37886960
> <PUBCHEM_MOLECULAR_FORMULA>
C37H49FN4O3
> <PUBCHEM_MOLECULAR_WEIGHT>
616.8
> <PUBCHEM_OPENEYE_CAN_SMILES>
CCN1C(=CC(=N1)CC2=CC=C(C=C2)OC3CCC3)C4CCN(CC4)CC5CN(CC5C6=CC(=CC=C6)F)C(C(C)C)C(=O)O
> <PUBCHEM_OPENEYE_ISO_SMILES>
CCN1C(=CC(=N1)CC2=CC=C(C=C2)OC3CCC3)C4CCN(CC4)C[C@H]5CN(C[C@@H]5C6=CC(=CC=C6)F)[C@H](C(C)C)C(=O)O
> <PUBCHEM_CACTVS_TPSA>
70.8
> <PUBCHEM_MONOISOTOPIC_WEIGHT>
616.37886960
> <PUBCHEM_TOTAL_CHARGE>
0
> <PUBCHEM_HEAVY_ATOM_COUNT>
45
> <PUBCHEM_ATOM_DEF_STEREO_COUNT>
3
> <PUBCHEM_ATOM_UDEF_STEREO_COUNT>
0
> <PUBCHEM_BOND_DEF_STEREO_COUNT>
0
> <PUBCHEM_BOND_UDEF_STEREO_COUNT>
0
> <PUBCHEM_ISOTOPIC_ATOM_COUNT>
0
> <PUBCHEM_COMPONENT_COUNT>
1
> <PUBCHEM_CACTVS_TAUTO_COUNT>
-1
> <PUBCHEM_COORDINATE_TYPE>
1
5
255
> <PUBCHEM_BONDANNOTATIONS>
10  17  5
14  23  5
17  24  8
17  25  8
22  28  8
24  29  8
25  30  8
28  31  8
29  32  8
30  32  8
40  42  8
40  43  8
41  44  8
41  45  8
42  44  8
43  45  8
7  22  8
7  8  8
8  31  8
9  13  6
$$$$
