516139
  -OEChem-10302200282D
 49 51  0     1  0  0  0  0  0999 V2000
    5.8144    0.2076    0.0000 O   0  0  0  0  0  0  0  0  0  0  0  0
    4.8913   -3.3802    0.0000 O   0  0  0  0  0  0  0  0  0  0  0  0
    3.4013   -6.0538    0.0000 O   0  0  0  0  0  0  0  0  0  0  0  0
    4.5823   -4.3313    0.0000 N   0  0  0  0  0  0  0  0  0  0  0  0
    5.0053    4.7954    0.0000 N   0  0  0  0  0  0  0  0  0  0  0  0
    6.6234    4.7954    0.0000 N   0  0  0  0  0  0  0  0  0  0  0  0
    5.3144    5.7464    0.0000 N   0  0  0  0  0  0  0  0  0  0  0  0
    6.3144    5.7464    0.0000 N   0  0  0  0  0  0  0  0  0  0  0  0
    4.9483   -1.2924    0.0000 C   0  0  0  0  0  0  0  0  0  0  0  0
    4.0823   -1.7924    0.0000 C   0  0  0  0  0  0  0  0  0  0  0  0
    4.9483   -0.2924    0.0000 C   0  0  0  0  0  0  0  0  0  0  0  0
    5.8144    1.2076    0.0000 C   0  0  0  0  0  0  0  0  0  0  0  0
    4.0823   -2.7924    0.0000 C   0  0  0  0  0  0  0  0  0  0  0  0
    6.6804    1.7076    0.0000 C   0  0  0  0  0  0  0  0  0  0  0  0
    4.9483    1.7076    0.0000 C   0  0  0  0  0  0  0  0  0  0  0  0
    5.8144    3.2076    0.0000 C   0  0  0  0  0  0  0  0  0  0  0  0
    6.6804    2.7076    0.0000 C   0  0  0  0  0  0  0  0  0  0  0  0
    4.9483    2.7076    0.0000 C   0  0  0  0  0  0  0  0  0  0  0  0
    3.2733   -3.3802    0.0000 C   0  0  0  0  0  0  0  0  0  0  0  0
    3.5823   -4.3313    0.0000 C   0  0  0  0  0  0  0  0  0  0  0  0
    2.9945   -5.1403    0.0000 C   0  0  3  0  0  0  0  0  0  0  0  0
    7.5464    1.2076    0.0000 C   0  0  0  0  0  0  0  0  0  0  0  0
    4.0823    1.2076    0.0000 C   0  0  0  0  0  0  0  0  0  0  0  0
    5.8144    4.2076    0.0000 C   0  0  0  0  0  0  0  0  0  0  0  0
    2.0000   -5.0358    0.0000 C   0  0  0  0  0  0  0  0  0  0  0  0
    4.7266    6.5554    0.0000 C   0  0  0  0  0  0  0  0  0  0  0  0
    5.1604   -1.8750    0.0000 H   0  0  0  0  0  0  0  0  0  0  0  0
    5.5589   -1.1848    0.0000 H   0  0  0  0  0  0  0  0  0  0  0  0
    3.8702   -1.2098    0.0000 H   0  0  0  0  0  0  0  0  0  0  0  0
    3.4717   -1.9001    0.0000 H   0  0  0  0  0  0  0  0  0  0  0  0
    4.7363    0.2902    0.0000 H   0  0  0  0  0  0  0  0  0  0  0  0
    4.3378   -0.4001    0.0000 H   0  0  0  0  0  0  0  0  0  0  0  0
    7.2173    3.0176    0.0000 H   0  0  0  0  0  0  0  0  0  0  0  0
    4.4114    3.0176    0.0000 H   0  0  0  0  0  0  0  0  0  0  0  0
    2.6836   -3.1886    0.0000 H   0  0  0  0  0  0  0  0  0  0  0  0
    3.6111   -5.2051    0.0000 H   0  0  0  0  0  0  0  0  0  0  0  0
    7.2364    0.6706    0.0000 H   0  0  0  0  0  0  0  0  0  0  0  0
    8.0833    0.8976    0.0000 H   0  0  0  0  0  0  0  0  0  0  0  0
    7.8564    1.7445    0.0000 H   0  0  0  0  0  0  0  0  0  0  0  0
    3.7723    1.7445    0.0000 H   0  0  0  0  0  0  0  0  0  0  0  0
    3.5454    0.8976    0.0000 H   0  0  0  0  0  0  0  0  0  0  0  0
    4.3923    0.6706    0.0000 H   0  0  0  0  0  0  0  0  0  0  0  0
    2.0648   -4.4192    0.0000 H   0  0  0  0  0  0  0  0  0  0  0  0
    1.3834   -4.9710    0.0000 H   0  0  0  0  0  0  0  0  0  0  0  0
    1.9352   -5.6524    0.0000 H   0  0  0  0  0  0  0  0  0  0  0  0
    3.0368   -6.5554    0.0000 H   0  0  0  0  0  0  0  0  0  0  0  0
    5.2282    6.9198    0.0000 H   0  0  0  0  0  0  0  0  0  0  0  0
    4.3622    7.0570    0.0000 H   0  0  0  0  0  0  0  0  0  0  0  0
    4.2250    6.1910    0.0000 H   0  0  0  0  0  0  0  0  0  0  0  0
  1 11  1  0  0  0  0
  1 12  1  0  0  0  0
  2  4  1  0  0  0  0
  2 13  1  0  0  0  0
  3 21  1  0  0  0  0
  3 46  1  0  0  0  0
  4 20  2  0  0  0  0
  5  7  1  0  0  0  0
  5 24  2  0  0  0  0
  6  8  2  0  0  0  0
  6 24  1  0  0  0  0
  7  8  1  0  0  0  0
  7 26  1  0  0  0  0
  9 10  1  0  0  0  0
  9 11  1  0  0  0  0
  9 27  1  0  0  0  0
  9 28  1  0  0  0  0
 10 13  1  0  0  0  0
 10 29  1  0  0  0  0
 10 30  1  0  0  0  0
 11 31  1  0  0  0  0
 11 32  1  0  0  0  0
 12 14  2  0  0  0  0
 12 15  1  0  0  0  0
 13 19  2  0  0  0  0
 14 17  1  0  0  0  0
 14 22  1  0  0  0  0
 15 18  2  0  0  0  0
 15 23  1  0  0  0  0
 16 17  2  0  0  0  0
 16 18  1  0  0  0  0
 16 24  1  0  0  0  0
 17 33  1  0  0  0  0
 18 34  1  0  0  0  0
 19 20  1  0  0  0  0
 19 35  1  0  0  0  0
 20 21  1  0  0  0  0
 21 25  1  0  0  0  0
 21 36  1  0  0  0  0
 22 37  1  0  0  0  0
 22 38  1  0  0  0  0
 22 39  1  0  0  0  0
 23 40  1  0  0  0  0
 23 41  1  0  0  0  0
 23 42  1  0  0  0  0
 25 43  1  0  0  0  0
 25 44  1  0  0  0  0
 25 45  1  0  0  0  0
 26 47  1  0  0  0  0
 26 48  1  0  0  0  0
 26 49  1  0  0  0  0
M  END
> <PUBCHEM_COMPOUND_CID>
516139
> <PUBCHEM_COMPOUND_CANONICALIZED>
1
> <PUBCHEM_CACTVS_COMPLEXITY>
431
> <PUBCHEM_CACTVS_HBOND_ACCEPTOR>
7
> <PUBCHEM_CACTVS_HBOND_DONOR>
1
> <PUBCHEM_CACTVS_ROTATABLE_BOND>
7
> <PUBCHEM_CACTVS_SUBSKEYS>
AAADceB7sAAAAAAAAAAAAAAAAAAAAWLAAAAwAAAAAAAAAAAB8AAAHgAMCAAADByhnwYzlpQQBgCrA6ZyYgSSCAIkogA0mCE2bNoONrqEsZuCeaDmyBkI+Ufa0OAOIAACAAAIAABAAAQAABAAAAAAAAAAAA==
> <PUBCHEM_IUPAC_OPENEYE_NAME>
1-[5-[3-[2,6-dimethyl-4-(2-methyltetrazol-5-yl)phenoxy]propyl]isoxazol-3-yl]ethanol
> <PUBCHEM_IUPAC_CAS_NAME>
1-[5-[3-[2,6-dimethyl-4-(2-methyl-5-tetrazolyl)phenoxy]propyl]-3-isoxazolyl]ethanol
> <PUBCHEM_IUPAC_NAME_MARKUP>
1-[5-[3-[2,6-dimethyl-4-(2-methyltetrazol-5-yl)phenoxy]propyl]-1,2-oxazol-3-yl]ethanol
> <PUBCHEM_IUPAC_NAME>
1-[5-[3-[2,6-dimethyl-4-(2-methyltetrazol-5-yl)phenoxy]propyl]-1,2-oxazol-3-yl]ethanol
> <PUBCHEM_IUPAC_SYSTEMATIC_NAME>
1-[5-[3-[2,6-dimethyl-4-(2-methyl-1,2,3,4-tetrazol-5-yl)phenoxy]propyl]-1,2-oxazol-3-yl]ethanol
> <PUBCHEM_IUPAC_TRADITIONAL_NAME>
1-[5-[3-[2,6-dimethyl-4-(2-methyltetrazol-5-yl)phenoxy]propyl]isoxazol-3-yl]ethanol
> <PUBCHEM_IUPAC_INCHI>
InChI=1S/C18H23N5O3/c1-11-8-14(18-19-22-23(4)20-18)9-12(2)17(11)25-7-5-6-15-10-16(13(3)24)21-26-15/h8-10,13,24H,5-7H2,1-4H3
> <PUBCHEM_IUPAC_INCHIKEY>
WQZHWXMLRCKWAG-UHFFFAOYSA-N
> <PUBCHEM_XLOGP3_AA>
2.8
> <PUBCHEM_EXACT_MASS>
357.18008961
> <PUBCHEM_MOLECULAR_FORMULA>
C18H23N5O3
> <PUBCHEM_MOLECULAR_WEIGHT>
357.4
> <PUBCHEM_OPENEYE_CAN_SMILES>
CC1=CC(=CC(=C1OCCCC2=CC(=NO2)C(C)O)C)C3=NN(N=N3)C
> <PUBCHEM_OPENEYE_ISO_SMILES>
CC1=CC(=CC(=C1OCCCC2=CC(=NO2)C(C)O)C)C3=NN(N=N3)C
> <PUBCHEM_CACTVS_TPSA>
99.1
> <PUBCHEM_MONOISOTOPIC_WEIGHT>
357.18008961
> <PUBCHEM_TOTAL_CHARGE>
0
> <PUBCHEM_HEAVY_ATOM_COUNT>
26
> <PUBCHEM_ATOM_DEF_STEREO_COUNT>
0
> <PUBCHEM_ATOM_UDEF_STEREO_COUNT>
1
> <PUBCHEM_BOND_DEF_STEREO_COUNT>
0
> <PUBCHEM_BOND_UDEF_STEREO_COUNT>
0
> <PUBCHEM_ISOTOPIC_ATOM_COUNT>
0
> <PUBCHEM_COMPONENT_COUNT>
1
> <PUBCHEM_CACTVS_TAUTO_COUNT>
-1
> <PUBCHEM_COORDINATE_TYPE>
1
5
255
> <PUBCHEM_BONDANNOTATIONS>
12  14  8
12  15  8
13  19  8
14  17  8
15  18  8
16  17  8
16  18  8
19  20  8
2  13  8
2  4  8
21  3  3
4  20  8
5  24  8
5  7  8
6  24  8
6  8  8
7  8  8
$$$$
