516182
  -OEChem-10302200282D
 86 90  0     1  0  0  0  0  0999 V2000
    7.4899   -7.8523    0.0000 F   0  0  0  0  0  0  0  0  0  0  0  0
    6.4441    7.8523    0.0000 F   0  0  0  0  0  0  0  0  0  0  0  0
    7.7643    7.3455    0.0000 F   0  0  0  0  0  0  0  0  0  0  0  0
    5.9372    6.5320    0.0000 F   0  0  0  0  0  0  0  0  0  0  0  0
    2.3644   -4.4996    0.0000 O   0  0  0  0  0  0  0  0  0  0  0  0
    3.7657   -5.5177    0.0000 O   0  0  0  0  0  0  0  0  0  0  0  0
    4.9413   -3.8997    0.0000 N   0  0  3  0  0  0  0  0  0  0  0  0
    7.3900   -2.0632    0.0000 N   0  0  0  0  0  0  0  0  0  0  0  0
    6.5809    1.5245    0.0000 N   0  0  0  0  0  0  0  0  0  0  0  0
    6.8900    2.4756    0.0000 N   0  0  0  0  0  0  0  0  0  0  0  0
    6.5239   -3.5632    0.0000 C   0  0  2  0  0  0  0  0  0  0  0  0
    6.4194   -4.5578    0.0000 C   0  0  2  0  0  0  0  0  0  0  0  0
    5.6104   -3.1565    0.0000 C   0  0  0  0  0  0  0  0  0  0  0  0
    5.4413   -4.7657    0.0000 C   0  0  0  0  0  0  0  0  0  0  0  0
    7.3900   -3.0632    0.0000 C   0  0  0  0  0  0  0  0  0  0  0  0
    3.9467   -3.7951    0.0000 C   0  0  2  0  0  0  0  0  0  0  0  0
    6.5239   -1.5632    0.0000 C   0  0  0  0  0  0  0  0  0  0  0  0
    8.2560   -1.5632    0.0000 C   0  0  0  0  0  0  0  0  0  0  0  0
    7.1626   -5.2269    0.0000 C   0  0  0  0  0  0  0  0  0  0  0  0
    7.3900   -0.0633    0.0000 C   0  0  0  0  0  0  0  0  0  0  0  0
    6.5239   -0.5633    0.0000 C   0  0  0  0  0  0  0  0  0  0  0  0
    8.2560   -0.5633    0.0000 C   0  0  0  0  0  0  0  0  0  0  0  0
    3.5400   -2.8816    0.0000 C   0  0  0  0  0  0  0  0  0  0  0  0
    7.3900    0.9367    0.0000 C   0  0  0  0  0  0  0  0  0  0  0  0
    3.3590   -4.6042    0.0000 C   0  0  0  0  0  0  0  0  0  0  0  0
    6.9546   -6.2050    0.0000 C   0  0  0  0  0  0  0  0  0  0  0  0
    8.1136   -4.9179    0.0000 C   0  0  0  0  0  0  0  0  0  0  0  0
    2.5455   -2.7771    0.0000 C   0  0  0  0  0  0  0  0  0  0  0  0
    4.1278   -2.0726    0.0000 C   0  0  0  0  0  0  0  0  0  0  0  0
    8.1990    1.5245    0.0000 C   0  0  0  0  0  0  0  0  0  0  0  0
    7.6978   -6.8742    0.0000 C   0  0  0  0  0  0  0  0  0  0  0  0
    8.8568   -5.5870    0.0000 C   0  0  0  0  0  0  0  0  0  0  0  0
    7.8900    2.4756    0.0000 C   0  0  0  0  0  0  0  0  0  0  0  0
    8.6488   -6.5652    0.0000 C   0  0  0  0  0  0  0  0  0  0  0  0
    5.6299    1.2155    0.0000 C   0  0  0  0  0  0  0  0  0  0  0  0
    8.4777    3.2846    0.0000 C   0  0  0  0  0  0  0  0  0  0  0  0
    4.8867    1.8846    0.0000 C   0  0  0  0  0  0  0  0  0  0  0  0
    8.0710    4.1982    0.0000 C   0  0  0  0  0  0  0  0  0  0  0  0
    8.6588    5.0072    0.0000 C   0  0  0  0  0  0  0  0  0  0  0  0
    7.0765    4.3027    0.0000 C   0  0  0  0  0  0  0  0  0  0  0  0
    8.2520    5.9207    0.0000 C   0  0  0  0  0  0  0  0  0  0  0  0
    6.6698    5.2162    0.0000 C   0  0  0  0  0  0  0  0  0  0  0  0
    7.2575    6.0252    0.0000 C   0  0  0  0  0  0  0  0  0  0  0  0
    6.8508    6.9388    0.0000 C   0  0  0  0  0  0  0  0  0  0  0  0
    6.4915   -2.9441    0.0000 H   0  0  0  0  0  0  0  0  0  0  0  0
    6.2589   -5.1566    0.0000 H   0  0  0  0  0  0  0  0  0  0  0  0
    5.9204   -2.6196    0.0000 H   0  0  0  0  0  0  0  0  0  0  0  0
    5.1088   -2.7921    0.0000 H   0  0  0  0  0  0  0  0  0  0  0  0
    4.8749   -5.0179    0.0000 H   0  0  0  0  0  0  0  0  0  0  0  0
    5.6328   -5.3553    0.0000 H   0  0  0  0  0  0  0  0  0  0  0  0
    7.6020   -3.6459    0.0000 H   0  0  0  0  0  0  0  0  0  0  0  0
    8.0005   -2.9556    0.0000 H   0  0  0  0  0  0  0  0  0  0  0  0
    4.1989   -4.3615    0.0000 H   0  0  0  0  0  0  0  0  0  0  0  0
    5.9134   -1.4556    0.0000 H   0  0  0  0  0  0  0  0  0  0  0  0
    6.3119   -2.1459    0.0000 H   0  0  0  0  0  0  0  0  0  0  0  0
    8.4680   -2.1459    0.0000 H   0  0  0  0  0  0  0  0  0  0  0  0
    8.8666   -1.4556    0.0000 H   0  0  0  0  0  0  0  0  0  0  0  0
    7.9269    0.2467    0.0000 H   0  0  0  0  0  0  0  0  0  0  0  0
    6.3119    0.0194    0.0000 H   0  0  0  0  0  0  0  0  0  0  0  0
    5.9134   -0.6709    0.0000 H   0  0  0  0  0  0  0  0  0  0  0  0
    8.8666   -0.6709    0.0000 H   0  0  0  0  0  0  0  0  0  0  0  0
    8.4680    0.0194    0.0000 H   0  0  0  0  0  0  0  0  0  0  0  0
    3.1756   -3.3832    0.0000 H   0  0  0  0  0  0  0  0  0  0  0  0
    6.3650   -6.3966    0.0000 H   0  0  0  0  0  0  0  0  0  0  0  0
    8.2425   -4.3114    0.0000 H   0  0  0  0  0  0  0  0  0  0  0  0
    2.6103   -2.1605    0.0000 H   0  0  0  0  0  0  0  0  0  0  0  0
    1.9289   -2.7122    0.0000 H   0  0  0  0  0  0  0  0  0  0  0  0
    2.4807   -3.3937    0.0000 H   0  0  0  0  0  0  0  0  0  0  0  0
    4.6294   -2.4370    0.0000 H   0  0  0  0  0  0  0  0  0  0  0  0
    4.4922   -1.5710    0.0000 H   0  0  0  0  0  0  0  0  0  0  0  0
    3.6262   -1.7081    0.0000 H   0  0  0  0  0  0  0  0  0  0  0  0
    8.7886    1.3329    0.0000 H   0  0  0  0  0  0  0  0  0  0  0  0
    9.4464   -5.3954    0.0000 H   0  0  0  0  0  0  0  0  0  0  0  0
    9.1096   -6.9800    0.0000 H   0  0  0  0  0  0  0  0  0  0  0  0
    5.1413    0.8338    0.0000 H   0  0  0  0  0  0  0  0  0  0  0  0
    5.9210    0.6681    0.0000 H   0  0  0  0  0  0  0  0  0  0  0  0
    2.0000   -5.0012    0.0000 H   0  0  0  0  0  0  0  0  0  0  0  0
    8.9084    2.8386    0.0000 H   0  0  0  0  0  0  0  0  0  0  0  0
    8.9918    3.6313    0.0000 H   0  0  0  0  0  0  0  0  0  0  0  0
    5.3016    2.3454    0.0000 H   0  0  0  0  0  0  0  0  0  0  0  0
    4.4260    2.2995    0.0000 H   0  0  0  0  0  0  0  0  0  0  0  0
    4.4719    1.4239    0.0000 H   0  0  0  0  0  0  0  0  0  0  0  0
    9.2754    4.9424    0.0000 H   0  0  0  0  0  0  0  0  0  0  0  0
    6.7121    3.8011    0.0000 H   0  0  0  0  0  0  0  0  0  0  0  0
    8.6165    6.4223    0.0000 H   0  0  0  0  0  0  0  0  0  0  0  0
    6.0531    5.2810    0.0000 H   0  0  0  0  0  0  0  0  0  0  0  0
  1 31  1  0  0  0  0
  2 44  1  0  0  0  0
  3 44  1  0  0  0  0
  4 44  1  0  0  0  0
  5 25  1  0  0  0  0
  5 77  1  0  0  0  0
  6 25  2  0  0  0  0
  7 13  1  0  0  0  0
  7 14  1  0  0  0  0
  7 16  1  0  0  0  0
  8 15  1  0  0  0  0
  8 17  1  0  0  0  0
  8 18  1  0  0  0  0
  9 10  1  0  0  0  0
  9 24  1  0  0  0  0
  9 35  1  0  0  0  0
 10 33  2  0  0  0  0
 11 12  1  0  0  0  0
 11 13  1  0  0  0  0
 11 15  1  6  0  0  0
 11 45  1  0  0  0  0
 12 14  1  0  0  0  0
 12 19  1  1  0  0  0
 12 46  1  0  0  0  0
 13 47  1  0  0  0  0
 13 48  1  0  0  0  0
 14 49  1  0  0  0  0
 14 50  1  0  0  0  0
 15 51  1  0  0  0  0
 15 52  1  0  0  0  0
 16 23  1  0  0  0  0
 16 25  1  1  0  0  0
 16 53  1  0  0  0  0
 17 21  1  0  0  0  0
 17 54  1  0  0  0  0
 17 55  1  0  0  0  0
 18 22  1  0  0  0  0
 18 56  1  0  0  0  0
 18 57  1  0  0  0  0
 19 26  2  0  0  0  0
 19 27  1  0  0  0  0
 20 21  1  0  0  0  0
 20 22  1  0  0  0  0
 20 24  1  0  0  0  0
 20 58  1  0  0  0  0
 21 59  1  0  0  0  0
 21 60  1  0  0  0  0
 22 61  1  0  0  0  0
 22 62  1  0  0  0  0
 23 28  1  0  0  0  0
 23 29  1  0  0  0  0
 23 63  1  0  0  0  0
 24 30  2  0  0  0  0
 26 31  1  0  0  0  0
 26 64  1  0  0  0  0
 27 32  2  0  0  0  0
 27 65  1  0  0  0  0
 28 66  1  0  0  0  0
 28 67  1  0  0  0  0
 28 68  1  0  0  0  0
 29 69  1  0  0  0  0
 29 70  1  0  0  0  0
 29 71  1  0  0  0  0
 30 33  1  0  0  0  0
 30 72  1  0  0  0  0
 31 34  2  0  0  0  0
 32 34  1  0  0  0  0
 32 73  1  0  0  0  0
 33 36  1  0  0  0  0
 34 74  1  0  0  0  0
 35 37  1  0  0  0  0
 35 75  1  0  0  0  0
 35 76  1  0  0  0  0
 36 38  1  0  0  0  0
 36 78  1  0  0  0  0
 36 79  1  0  0  0  0
 37 80  1  0  0  0  0
 37 81  1  0  0  0  0
 37 82  1  0  0  0  0
 38 39  2  0  0  0  0
 38 40  1  0  0  0  0
 39 41  1  0  0  0  0
 39 83  1  0  0  0  0
 40 42  2  0  0  0  0
 40 84  1  0  0  0  0
 41 43  2  0  0  0  0
 41 85  1  0  0  0  0
 42 43  1  0  0  0  0
 42 86  1  0  0  0  0
 43 44  1  0  0  0  0
M  END
> <PUBCHEM_COMPOUND_CID>
516182
> <PUBCHEM_COMPOUND_CANONICALIZED>
1
> <PUBCHEM_CACTVS_COMPLEXITY>
921
> <PUBCHEM_CACTVS_HBOND_ACCEPTOR>
9
> <PUBCHEM_CACTVS_HBOND_DONOR>
1
> <PUBCHEM_CACTVS_ROTATABLE_BOND>
10
> <PUBCHEM_CACTVS_SUBSKEYS>
AAADcfB/scAAAAAAAAAAAAAAAAAAAWLAAAA8YIAAAAAAAAAB0AAAHwAICAAADSjBnhwyiJMIAgCqAyTyTACSBAAhggAY2CG4ZJgKIDLA0fGE5AhkiADYyAcQgMAOwAAAAAAAAACAAAAAAAAAAAAAAAAAAA==
> <PUBCHEM_IUPAC_OPENEYE_NAME>
(2R)-2-[(3S,4S)-3-[[4-[2-ethyl-5-[[4-(trifluoromethyl)phenyl]methyl]pyrazol-3-yl]-1-piperidyl]methyl]-4-(3-fluorophenyl)pyrrolidin-1-yl]-3-methyl-butanoic acid
> <PUBCHEM_IUPAC_CAS_NAME>
(2R)-2-[(3S,4S)-3-[[4-[2-ethyl-5-[[4-(trifluoromethyl)phenyl]methyl]-3-pyrazolyl]-1-piperidinyl]methyl]-4-(3-fluorophenyl)-1-pyrrolidinyl]-3-methylbutanoic acid
> <PUBCHEM_IUPAC_NAME_MARKUP>
(2<I>R</I>)-2-[(3<I>S</I>,4<I>S</I>)-3-[[4-[2-ethyl-5-[[4-(trifluoromethyl)phenyl]methyl]pyrazol-3-yl]piperidin-1-yl]methyl]-4-(3-fluorophenyl)pyrrolidin-1-yl]-3-methylbutanoic acid
> <PUBCHEM_IUPAC_NAME>
(2R)-2-[(3S,4S)-3-[[4-[2-ethyl-5-[[4-(trifluoromethyl)phenyl]methyl]pyrazol-3-yl]piperidin-1-yl]methyl]-4-(3-fluorophenyl)pyrrolidin-1-yl]-3-methylbutanoic acid
> <PUBCHEM_IUPAC_SYSTEMATIC_NAME>
(2R)-2-[(3S,4S)-3-[[4-[2-ethyl-5-[[4-(trifluoromethyl)phenyl]methyl]pyrazol-3-yl]piperidin-1-yl]methyl]-4-(3-fluorophenyl)pyrrolidin-1-yl]-3-methyl-butanoic acid
> <PUBCHEM_IUPAC_TRADITIONAL_NAME>
(2R)-2-[(3S,4S)-3-[[4-[2-ethyl-5-[4-(trifluoromethyl)benzyl]pyrazol-3-yl]piperidino]methyl]-4-(3-fluorophenyl)pyrrolidino]-3-methyl-butyric acid
> <PUBCHEM_IUPAC_INCHI>
InChI=1S/C34H42F4N4O2/c1-4-42-31(18-29(39-42)16-23-8-10-27(11-9-23)34(36,37)38)24-12-14-40(15-13-24)19-26-20-41(32(22(2)3)33(43)44)21-30(26)25-6-5-7-28(35)17-25/h5-11,17-18,22,24,26,30,32H,4,12-16,19-21H2,1-3H3,(H,43,44)/t26-,30+,32+/m0/s1
> <PUBCHEM_IUPAC_INCHIKEY>
GXTJLZJFVRBENE-NNYJQHGCSA-N
> <PUBCHEM_XLOGP3_AA>
4.6
> <PUBCHEM_EXACT_MASS>
614.32438924
> <PUBCHEM_MOLECULAR_FORMULA>
C34H42F4N4O2
> <PUBCHEM_MOLECULAR_WEIGHT>
614.7
> <PUBCHEM_OPENEYE_CAN_SMILES>
CCN1C(=CC(=N1)CC2=CC=C(C=C2)C(F)(F)F)C3CCN(CC3)CC4CN(CC4C5=CC(=CC=C5)F)C(C(C)C)C(=O)O
> <PUBCHEM_OPENEYE_ISO_SMILES>
CCN1C(=CC(=N1)CC2=CC=C(C=C2)C(F)(F)F)C3CCN(CC3)C[C@H]4CN(C[C@@H]4C5=CC(=CC=C5)F)[C@H](C(C)C)C(=O)O
> <PUBCHEM_CACTVS_TPSA>
61.6
> <PUBCHEM_MONOISOTOPIC_WEIGHT>
614.32438924
> <PUBCHEM_TOTAL_CHARGE>
0
> <PUBCHEM_HEAVY_ATOM_COUNT>
44
> <PUBCHEM_ATOM_DEF_STEREO_COUNT>
3
> <PUBCHEM_ATOM_UDEF_STEREO_COUNT>
0
> <PUBCHEM_BOND_DEF_STEREO_COUNT>
0
> <PUBCHEM_BOND_UDEF_STEREO_COUNT>
0
> <PUBCHEM_ISOTOPIC_ATOM_COUNT>
0
> <PUBCHEM_COMPONENT_COUNT>
1
> <PUBCHEM_CACTVS_TAUTO_COUNT>
-1
> <PUBCHEM_COORDINATE_TYPE>
1
5
255
> <PUBCHEM_BONDANNOTATIONS>
10  33  8
11  15  6
12  19  5
16  25  5
19  26  8
19  27  8
24  30  8
26  31  8
27  32  8
30  33  8
31  34  8
32  34  8
38  39  8
38  40  8
39  41  8
40  42  8
41  43  8
42  43  8
9  10  8
9  24  8
$$$$
