516177
  -OEChem-10302200282D
 83 87  0     1  0  0  0  0  0999 V2000
    7.4899   -6.9388    0.0000 F   0  0  0  0  0  0  0  0  0  0  0  0
    9.6533    5.8162    0.0000 F   0  0  0  0  0  0  0  0  0  0  0  0
    2.3644   -3.5861    0.0000 O   0  0  0  0  0  0  0  0  0  0  0  0
    3.7657   -4.6042    0.0000 O   0  0  0  0  0  0  0  0  0  0  0  0
    4.9413   -2.9861    0.0000 N   0  0  3  0  0  0  0  0  0  0  0  0
    7.3900   -1.1497    0.0000 N   0  0  0  0  0  0  0  0  0  0  0  0
    6.5809    2.4381    0.0000 N   0  0  0  0  0  0  0  0  0  0  0  0
    6.8900    3.3891    0.0000 N   0  0  0  0  0  0  0  0  0  0  0  0
    6.5239   -2.6497    0.0000 C   0  0  2  0  0  0  0  0  0  0  0  0
    6.4194   -3.6442    0.0000 C   0  0  2  0  0  0  0  0  0  0  0  0
    5.6104   -2.2430    0.0000 C   0  0  0  0  0  0  0  0  0  0  0  0
    5.4413   -3.8521    0.0000 C   0  0  0  0  0  0  0  0  0  0  0  0
    7.3900   -2.1497    0.0000 C   0  0  0  0  0  0  0  0  0  0  0  0
    3.9467   -2.8816    0.0000 C   0  0  2  0  0  0  0  0  0  0  0  0
    6.5239   -0.6497    0.0000 C   0  0  0  0  0  0  0  0  0  0  0  0
    8.2560   -0.6497    0.0000 C   0  0  0  0  0  0  0  0  0  0  0  0
    7.1626   -4.3134    0.0000 C   0  0  0  0  0  0  0  0  0  0  0  0
    7.3900    0.8503    0.0000 C   0  0  0  0  0  0  0  0  0  0  0  0
    6.5239    0.3503    0.0000 C   0  0  0  0  0  0  0  0  0  0  0  0
    8.2560    0.3503    0.0000 C   0  0  0  0  0  0  0  0  0  0  0  0
    3.5400   -1.9680    0.0000 C   0  0  0  0  0  0  0  0  0  0  0  0
    7.3900    1.8503    0.0000 C   0  0  0  0  0  0  0  0  0  0  0  0
    3.3590   -3.6906    0.0000 C   0  0  0  0  0  0  0  0  0  0  0  0
    6.9546   -5.2915    0.0000 C   0  0  0  0  0  0  0  0  0  0  0  0
    8.1136   -4.0043    0.0000 C   0  0  0  0  0  0  0  0  0  0  0  0
    2.5455   -1.8635    0.0000 C   0  0  0  0  0  0  0  0  0  0  0  0
    4.1278   -1.1590    0.0000 C   0  0  0  0  0  0  0  0  0  0  0  0
    8.1990    2.4381    0.0000 C   0  0  0  0  0  0  0  0  0  0  0  0
    7.6978   -5.9606    0.0000 C   0  0  0  0  0  0  0  0  0  0  0  0
    8.8568   -4.6735    0.0000 C   0  0  0  0  0  0  0  0  0  0  0  0
    7.8900    3.3891    0.0000 C   0  0  0  0  0  0  0  0  0  0  0  0
    8.6488   -5.6516    0.0000 C   0  0  0  0  0  0  0  0  0  0  0  0
    5.6299    2.1291    0.0000 C   0  0  0  0  0  0  0  0  0  0  0  0
    8.4777    4.1982    0.0000 C   0  0  0  0  0  0  0  0  0  0  0  0
    4.8867    2.7982    0.0000 C   0  0  0  0  0  0  0  0  0  0  0  0
    8.0710    5.1117    0.0000 C   0  0  0  0  0  0  0  0  0  0  0  0
    8.6588    5.9207    0.0000 C   0  0  0  0  0  0  0  0  0  0  0  0
    7.0765    5.2162    0.0000 C   0  0  0  0  0  0  0  0  0  0  0  0
    8.2520    6.8343    0.0000 C   0  0  0  0  0  0  0  0  0  0  0  0
    6.6698    6.1298    0.0000 C   0  0  0  0  0  0  0  0  0  0  0  0
    7.2575    6.9388    0.0000 C   0  0  0  0  0  0  0  0  0  0  0  0
    7.0439   -2.9874    0.0000 H   0  0  0  0  0  0  0  0  0  0  0  0
    6.2589   -4.2431    0.0000 H   0  0  0  0  0  0  0  0  0  0  0  0
    5.9204   -1.7060    0.0000 H   0  0  0  0  0  0  0  0  0  0  0  0
    5.1088   -1.8785    0.0000 H   0  0  0  0  0  0  0  0  0  0  0  0
    4.8749   -4.1043    0.0000 H   0  0  0  0  0  0  0  0  0  0  0  0
    5.6328   -4.4418    0.0000 H   0  0  0  0  0  0  0  0  0  0  0  0
    7.6020   -2.7323    0.0000 H   0  0  0  0  0  0  0  0  0  0  0  0
    8.0005   -2.0420    0.0000 H   0  0  0  0  0  0  0  0  0  0  0  0
    4.1989   -3.4480    0.0000 H   0  0  0  0  0  0  0  0  0  0  0  0
    5.9134   -0.5420    0.0000 H   0  0  0  0  0  0  0  0  0  0  0  0
    6.3119   -1.2323    0.0000 H   0  0  0  0  0  0  0  0  0  0  0  0
    8.4680   -1.2323    0.0000 H   0  0  0  0  0  0  0  0  0  0  0  0
    8.8666   -0.5420    0.0000 H   0  0  0  0  0  0  0  0  0  0  0  0
    7.9269    1.1603    0.0000 H   0  0  0  0  0  0  0  0  0  0  0  0
    6.3119    0.9329    0.0000 H   0  0  0  0  0  0  0  0  0  0  0  0
    5.9134    0.2426    0.0000 H   0  0  0  0  0  0  0  0  0  0  0  0
    8.8666    0.2426    0.0000 H   0  0  0  0  0  0  0  0  0  0  0  0
    8.4680    0.9329    0.0000 H   0  0  0  0  0  0  0  0  0  0  0  0
    3.2878   -1.4016    0.0000 H   0  0  0  0  0  0  0  0  0  0  0  0
    6.3650   -5.4831    0.0000 H   0  0  0  0  0  0  0  0  0  0  0  0
    8.2425   -3.3979    0.0000 H   0  0  0  0  0  0  0  0  0  0  0  0
    2.6103   -1.2469    0.0000 H   0  0  0  0  0  0  0  0  0  0  0  0
    1.9289   -1.7987    0.0000 H   0  0  0  0  0  0  0  0  0  0  0  0
    2.4807   -2.4801    0.0000 H   0  0  0  0  0  0  0  0  0  0  0  0
    4.6294   -1.5234    0.0000 H   0  0  0  0  0  0  0  0  0  0  0  0
    4.4922   -0.6574    0.0000 H   0  0  0  0  0  0  0  0  0  0  0  0
    3.6262   -0.7946    0.0000 H   0  0  0  0  0  0  0  0  0  0  0  0
    8.7886    2.2465    0.0000 H   0  0  0  0  0  0  0  0  0  0  0  0
    9.4464   -4.4819    0.0000 H   0  0  0  0  0  0  0  0  0  0  0  0
    9.1096   -6.0665    0.0000 H   0  0  0  0  0  0  0  0  0  0  0  0
    5.1413    1.7474    0.0000 H   0  0  0  0  0  0  0  0  0  0  0  0
    5.9210    1.5816    0.0000 H   0  0  0  0  0  0  0  0  0  0  0  0
    2.0000   -4.0877    0.0000 H   0  0  0  0  0  0  0  0  0  0  0  0
    8.9084    3.7522    0.0000 H   0  0  0  0  0  0  0  0  0  0  0  0
    8.9918    4.5448    0.0000 H   0  0  0  0  0  0  0  0  0  0  0  0
    5.3016    3.2589    0.0000 H   0  0  0  0  0  0  0  0  0  0  0  0
    4.4260    3.2130    0.0000 H   0  0  0  0  0  0  0  0  0  0  0  0
    4.4719    2.3374    0.0000 H   0  0  0  0  0  0  0  0  0  0  0  0
    6.7121    4.7146    0.0000 H   0  0  0  0  0  0  0  0  0  0  0  0
    8.6165    7.3358    0.0000 H   0  0  0  0  0  0  0  0  0  0  0  0
    6.0531    6.1946    0.0000 H   0  0  0  0  0  0  0  0  0  0  0  0
    7.0054    7.5052    0.0000 H   0  0  0  0  0  0  0  0  0  0  0  0
  1 29  1  0  0  0  0
  2 37  1  0  0  0  0
  3 23  1  0  0  0  0
  3 74  1  0  0  0  0
  4 23  2  0  0  0  0
  5 11  1  0  0  0  0
  5 12  1  0  0  0  0
  5 14  1  0  0  0  0
  6 13  1  0  0  0  0
  6 15  1  0  0  0  0
  6 16  1  0  0  0  0
  7  8  1  0  0  0  0
  7 22  1  0  0  0  0
  7 33  1  0  0  0  0
  8 31  2  0  0  0  0
  9 10  1  0  0  0  0
  9 11  1  0  0  0  0
  9 13  1  6  0  0  0
  9 42  1  0  0  0  0
 10 12  1  0  0  0  0
 10 17  1  1  0  0  0
 10 43  1  0  0  0  0
 11 44  1  0  0  0  0
 11 45  1  0  0  0  0
 12 46  1  0  0  0  0
 12 47  1  0  0  0  0
 13 48  1  0  0  0  0
 13 49  1  0  0  0  0
 14 21  1  0  0  0  0
 14 23  1  1  0  0  0
 14 50  1  0  0  0  0
 15 19  1  0  0  0  0
 15 51  1  0  0  0  0
 15 52  1  0  0  0  0
 16 20  1  0  0  0  0
 16 53  1  0  0  0  0
 16 54  1  0  0  0  0
 17 24  2  0  0  0  0
 17 25  1  0  0  0  0
 18 19  1  0  0  0  0
 18 20  1  0  0  0  0
 18 22  1  0  0  0  0
 18 55  1  0  0  0  0
 19 56  1  0  0  0  0
 19 57  1  0  0  0  0
 20 58  1  0  0  0  0
 20 59  1  0  0  0  0
 21 26  1  0  0  0  0
 21 27  1  0  0  0  0
 21 60  1  0  0  0  0
 22 28  2  0  0  0  0
 24 29  1  0  0  0  0
 24 61  1  0  0  0  0
 25 30  2  0  0  0  0
 25 62  1  0  0  0  0
 26 63  1  0  0  0  0
 26 64  1  0  0  0  0
 26 65  1  0  0  0  0
 27 66  1  0  0  0  0
 27 67  1  0  0  0  0
 27 68  1  0  0  0  0
 28 31  1  0  0  0  0
 28 69  1  0  0  0  0
 29 32  2  0  0  0  0
 30 32  1  0  0  0  0
 30 70  1  0  0  0  0
 31 34  1  0  0  0  0
 32 71  1  0  0  0  0
 33 35  1  0  0  0  0
 33 72  1  0  0  0  0
 33 73  1  0  0  0  0
 34 36  1  0  0  0  0
 34 75  1  0  0  0  0
 34 76  1  0  0  0  0
 35 77  1  0  0  0  0
 35 78  1  0  0  0  0
 35 79  1  0  0  0  0
 36 37  1  0  0  0  0
 36 38  2  0  0  0  0
 37 39  2  0  0  0  0
 38 40  1  0  0  0  0
 38 80  1  0  0  0  0
 39 41  1  0  0  0  0
 39 81  1  0  0  0  0
 40 41  2  0  0  0  0
 40 82  1  0  0  0  0
 41 83  1  0  0  0  0
M  END
> <PUBCHEM_COMPOUND_CID>
516177
> <PUBCHEM_COMPOUND_CANONICALIZED>
1
> <PUBCHEM_CACTVS_COMPLEXITY>
840
> <PUBCHEM_CACTVS_HBOND_ACCEPTOR>
7
> <PUBCHEM_CACTVS_HBOND_DONOR>
1
> <PUBCHEM_CACTVS_ROTATABLE_BOND>
10
> <PUBCHEM_CACTVS_SUBSKEYS>
AAADcfB/sYAAAAAAAAAAAAAAAAAAAWLAAAA8YIAAAAAAAAAB0AAAHwAICAAADSjBngwyiJMIAgCqAyTyTACSBAAhggAY2CG4ZJgKIDLA0fGE5AhkiADYyAcQgMAOgAAAAAAAAAAAAAAAAAAAAAAAAAAAAA==
> <PUBCHEM_IUPAC_OPENEYE_NAME>
(2R)-2-[(3S,4S)-3-[[4-[2-ethyl-5-[(2-fluorophenyl)methyl]pyrazol-3-yl]-1-piperidyl]methyl]-4-(3-fluorophenyl)pyrrolidin-1-yl]-3-methyl-butanoic acid
> <PUBCHEM_IUPAC_CAS_NAME>
(2R)-2-[(3S,4S)-3-[[4-[2-ethyl-5-[(2-fluorophenyl)methyl]-3-pyrazolyl]-1-piperidinyl]methyl]-4-(3-fluorophenyl)-1-pyrrolidinyl]-3-methylbutanoic acid
> <PUBCHEM_IUPAC_NAME_MARKUP>
(2<I>R</I>)-2-[(3<I>S</I>,4<I>S</I>)-3-[[4-[2-ethyl-5-[(2-fluorophenyl)methyl]pyrazol-3-yl]piperidin-1-yl]methyl]-4-(3-fluorophenyl)pyrrolidin-1-yl]-3-methylbutanoic acid
> <PUBCHEM_IUPAC_NAME>
(2R)-2-[(3S,4S)-3-[[4-[2-ethyl-5-[(2-fluorophenyl)methyl]pyrazol-3-yl]piperidin-1-yl]methyl]-4-(3-fluorophenyl)pyrrolidin-1-yl]-3-methylbutanoic acid
> <PUBCHEM_IUPAC_SYSTEMATIC_NAME>
(2R)-2-[(3S,4S)-3-[[4-[2-ethyl-5-[(2-fluorophenyl)methyl]pyrazol-3-yl]piperidin-1-yl]methyl]-4-(3-fluorophenyl)pyrrolidin-1-yl]-3-methyl-butanoic acid
> <PUBCHEM_IUPAC_TRADITIONAL_NAME>
(2R)-2-[(3S,4S)-3-[[4-[2-ethyl-5-(2-fluorobenzyl)pyrazol-3-yl]piperidino]methyl]-4-(3-fluorophenyl)pyrrolidino]-3-methyl-butyric acid
> <PUBCHEM_IUPAC_INCHI>
InChI=1S/C33H42F2N4O2/c1-4-39-31(18-28(36-39)17-25-8-5-6-11-30(25)35)23-12-14-37(15-13-23)19-26-20-38(32(22(2)3)33(40)41)21-29(26)24-9-7-10-27(34)16-24/h5-11,16,18,22-23,26,29,32H,4,12-15,17,19-21H2,1-3H3,(H,40,41)/t26-,29+,32+/m0/s1
> <PUBCHEM_IUPAC_INCHIKEY>
PQERIGBWDFXHHY-MRPJDYLLSA-N
> <PUBCHEM_XLOGP3_AA>
3.8
> <PUBCHEM_EXACT_MASS>
564.32758292
> <PUBCHEM_MOLECULAR_FORMULA>
C33H42F2N4O2
> <PUBCHEM_MOLECULAR_WEIGHT>
564.7
> <PUBCHEM_OPENEYE_CAN_SMILES>
CCN1C(=CC(=N1)CC2=CC=CC=C2F)C3CCN(CC3)CC4CN(CC4C5=CC(=CC=C5)F)C(C(C)C)C(=O)O
> <PUBCHEM_OPENEYE_ISO_SMILES>
CCN1C(=CC(=N1)CC2=CC=CC=C2F)C3CCN(CC3)C[C@H]4CN(C[C@@H]4C5=CC(=CC=C5)F)[C@H](C(C)C)C(=O)O
> <PUBCHEM_CACTVS_TPSA>
61.6
> <PUBCHEM_MONOISOTOPIC_WEIGHT>
564.32758292
> <PUBCHEM_TOTAL_CHARGE>
0
> <PUBCHEM_HEAVY_ATOM_COUNT>
41
> <PUBCHEM_ATOM_DEF_STEREO_COUNT>
3
> <PUBCHEM_ATOM_UDEF_STEREO_COUNT>
0
> <PUBCHEM_BOND_DEF_STEREO_COUNT>
0
> <PUBCHEM_BOND_UDEF_STEREO_COUNT>
0
> <PUBCHEM_ISOTOPIC_ATOM_COUNT>
0
> <PUBCHEM_COMPONENT_COUNT>
1
> <PUBCHEM_CACTVS_TAUTO_COUNT>
-1
> <PUBCHEM_COORDINATE_TYPE>
1
5
255
> <PUBCHEM_BONDANNOTATIONS>
10  17  5
14  23  5
17  24  8
17  25  8
22  28  8
24  29  8
25  30  8
28  31  8
29  32  8
30  32  8
36  37  8
36  38  8
37  39  8
38  40  8
39  41  8
40  41  8
7  22  8
7  8  8
8  31  8
9  13  6
$$$$
