516185
  -OEChem-10302200282D
 84 88  0     1  0  0  0  0  0999 V2000
    7.4899   -7.6955    0.0000 F   0  0  0  0  0  0  0  0  0  0  0  0
    2.3644   -4.3428    0.0000 O   0  0  0  0  0  0  0  0  0  0  0  0
    3.7657   -5.3609    0.0000 O   0  0  0  0  0  0  0  0  0  0  0  0
    4.9413   -3.7429    0.0000 N   0  0  3  0  0  0  0  0  0  0  0  0
    7.3900   -1.9065    0.0000 N   0  0  0  0  0  0  0  0  0  0  0  0
    6.5809    1.6813    0.0000 N   0  0  0  0  0  0  0  0  0  0  0  0
    6.8900    2.6324    0.0000 N   0  0  0  0  0  0  0  0  0  0  0  0
    9.4276    7.6955    0.0000 N   0  0  0  0  0  0  0  0  0  0  0  0
    6.5239   -3.4065    0.0000 C   0  0  2  0  0  0  0  0  0  0  0  0
    6.4194   -4.4010    0.0000 C   0  0  2  0  0  0  0  0  0  0  0  0
    5.6104   -2.9997    0.0000 C   0  0  0  0  0  0  0  0  0  0  0  0
    5.4413   -4.6089    0.0000 C   0  0  0  0  0  0  0  0  0  0  0  0
    7.3900   -2.9065    0.0000 C   0  0  0  0  0  0  0  0  0  0  0  0
    3.9467   -3.6383    0.0000 C   0  0  2  0  0  0  0  0  0  0  0  0
    6.5239   -1.4065    0.0000 C   0  0  0  0  0  0  0  0  0  0  0  0
    8.2560   -1.4065    0.0000 C   0  0  0  0  0  0  0  0  0  0  0  0
    7.1626   -5.0701    0.0000 C   0  0  0  0  0  0  0  0  0  0  0  0
    7.3900    0.0935    0.0000 C   0  0  0  0  0  0  0  0  0  0  0  0
    6.5239   -0.4065    0.0000 C   0  0  0  0  0  0  0  0  0  0  0  0
    8.2560   -0.4065    0.0000 C   0  0  0  0  0  0  0  0  0  0  0  0
    3.5400   -2.7248    0.0000 C   0  0  0  0  0  0  0  0  0  0  0  0
    7.3900    1.0935    0.0000 C   0  0  0  0  0  0  0  0  0  0  0  0
    3.3590   -4.4474    0.0000 C   0  0  0  0  0  0  0  0  0  0  0  0
    6.9546   -6.0483    0.0000 C   0  0  0  0  0  0  0  0  0  0  0  0
    8.1136   -4.7611    0.0000 C   0  0  0  0  0  0  0  0  0  0  0  0
    2.5455   -2.6203    0.0000 C   0  0  0  0  0  0  0  0  0  0  0  0
    4.1278   -1.9158    0.0000 C   0  0  0  0  0  0  0  0  0  0  0  0
    8.1990    1.6813    0.0000 C   0  0  0  0  0  0  0  0  0  0  0  0
    7.6978   -6.7174    0.0000 C   0  0  0  0  0  0  0  0  0  0  0  0
    8.8568   -5.4302    0.0000 C   0  0  0  0  0  0  0  0  0  0  0  0
    7.8900    2.6324    0.0000 C   0  0  0  0  0  0  0  0  0  0  0  0
    8.6488   -6.4084    0.0000 C   0  0  0  0  0  0  0  0  0  0  0  0
    5.6299    1.3723    0.0000 C   0  0  0  0  0  0  0  0  0  0  0  0
    8.4777    3.4414    0.0000 C   0  0  0  0  0  0  0  0  0  0  0  0
    4.8867    2.0414    0.0000 C   0  0  0  0  0  0  0  0  0  0  0  0
    8.0710    4.3549    0.0000 C   0  0  0  0  0  0  0  0  0  0  0  0
    8.6588    5.1640    0.0000 C   0  0  0  0  0  0  0  0  0  0  0  0
    7.0765    4.4595    0.0000 C   0  0  0  0  0  0  0  0  0  0  0  0
    8.2520    6.0775    0.0000 C   0  0  0  0  0  0  0  0  0  0  0  0
    6.6698    5.3730    0.0000 C   0  0  0  0  0  0  0  0  0  0  0  0
    7.2575    6.1820    0.0000 C   0  0  0  0  0  0  0  0  0  0  0  0
    8.8398    6.8865    0.0000 C   0  0  0  0  0  0  0  0  0  0  0  0
    6.4915   -2.7873    0.0000 H   0  0  0  0  0  0  0  0  0  0  0  0
    6.9982   -4.1788    0.0000 H   0  0  0  0  0  0  0  0  0  0  0  0
    5.9204   -2.4628    0.0000 H   0  0  0  0  0  0  0  0  0  0  0  0
    5.1088   -2.6353    0.0000 H   0  0  0  0  0  0  0  0  0  0  0  0
    4.8749   -4.8611    0.0000 H   0  0  0  0  0  0  0  0  0  0  0  0
    5.6328   -5.1986    0.0000 H   0  0  0  0  0  0  0  0  0  0  0  0
    7.6020   -3.4891    0.0000 H   0  0  0  0  0  0  0  0  0  0  0  0
    8.0005   -2.7988    0.0000 H   0  0  0  0  0  0  0  0  0  0  0  0
    4.1989   -4.2047    0.0000 H   0  0  0  0  0  0  0  0  0  0  0  0
    5.9134   -1.2988    0.0000 H   0  0  0  0  0  0  0  0  0  0  0  0
    6.3119   -1.9891    0.0000 H   0  0  0  0  0  0  0  0  0  0  0  0
    8.4680   -1.9891    0.0000 H   0  0  0  0  0  0  0  0  0  0  0  0
    8.8666   -1.2988    0.0000 H   0  0  0  0  0  0  0  0  0  0  0  0
    7.9269    0.4035    0.0000 H   0  0  0  0  0  0  0  0  0  0  0  0
    6.3119    0.1761    0.0000 H   0  0  0  0  0  0  0  0  0  0  0  0
    5.9134   -0.5141    0.0000 H   0  0  0  0  0  0  0  0  0  0  0  0
    8.8666   -0.5141    0.0000 H   0  0  0  0  0  0  0  0  0  0  0  0
    8.4680    0.1761    0.0000 H   0  0  0  0  0  0  0  0  0  0  0  0
    3.2878   -2.1584    0.0000 H   0  0  0  0  0  0  0  0  0  0  0  0
    6.3650   -6.2398    0.0000 H   0  0  0  0  0  0  0  0  0  0  0  0
    8.2425   -4.1546    0.0000 H   0  0  0  0  0  0  0  0  0  0  0  0
    2.6103   -2.0037    0.0000 H   0  0  0  0  0  0  0  0  0  0  0  0
    1.9289   -2.5555    0.0000 H   0  0  0  0  0  0  0  0  0  0  0  0
    2.4807   -3.2369    0.0000 H   0  0  0  0  0  0  0  0  0  0  0  0
    4.6294   -2.2802    0.0000 H   0  0  0  0  0  0  0  0  0  0  0  0
    4.4922   -1.4142    0.0000 H   0  0  0  0  0  0  0  0  0  0  0  0
    3.6262   -1.5514    0.0000 H   0  0  0  0  0  0  0  0  0  0  0  0
    8.7886    1.4897    0.0000 H   0  0  0  0  0  0  0  0  0  0  0  0
    9.4464   -5.2386    0.0000 H   0  0  0  0  0  0  0  0  0  0  0  0
    9.1096   -6.8232    0.0000 H   0  0  0  0  0  0  0  0  0  0  0  0
    5.1413    0.9906    0.0000 H   0  0  0  0  0  0  0  0  0  0  0  0
    5.9210    0.8249    0.0000 H   0  0  0  0  0  0  0  0  0  0  0  0
    2.0000   -4.8444    0.0000 H   0  0  0  0  0  0  0  0  0  0  0  0
    8.9084    2.9954    0.0000 H   0  0  0  0  0  0  0  0  0  0  0  0
    8.9918    3.7881    0.0000 H   0  0  0  0  0  0  0  0  0  0  0  0
    5.3016    2.5022    0.0000 H   0  0  0  0  0  0  0  0  0  0  0  0
    4.4260    2.4563    0.0000 H   0  0  0  0  0  0  0  0  0  0  0  0
    4.4719    1.5807    0.0000 H   0  0  0  0  0  0  0  0  0  0  0  0
    9.2754    5.0992    0.0000 H   0  0  0  0  0  0  0  0  0  0  0  0
    6.7121    3.9579    0.0000 H   0  0  0  0  0  0  0  0  0  0  0  0
    6.0531    5.4378    0.0000 H   0  0  0  0  0  0  0  0  0  0  0  0
    7.0054    6.7484    0.0000 H   0  0  0  0  0  0  0  0  0  0  0  0
  1 29  1  0  0  0  0
  2 23  1  0  0  0  0
  2 75  1  0  0  0  0
  3 23  2  0  0  0  0
  4 11  1  0  0  0  0
  4 12  1  0  0  0  0
  4 14  1  0  0  0  0
  5 13  1  0  0  0  0
  5 15  1  0  0  0  0
  5 16  1  0  0  0  0
  6  7  1  0  0  0  0
  6 22  1  0  0  0  0
  6 33  1  0  0  0  0
  7 31  2  0  0  0  0
  8 42  3  0  0  0  0
  9 10  1  0  0  0  0
  9 11  1  0  0  0  0
  9 13  1  6  0  0  0
  9 43  1  0  0  0  0
 10 12  1  0  0  0  0
 10 17  1  1  0  0  0
 10 44  1  0  0  0  0
 11 45  1  0  0  0  0
 11 46  1  0  0  0  0
 12 47  1  0  0  0  0
 12 48  1  0  0  0  0
 13 49  1  0  0  0  0
 13 50  1  0  0  0  0
 14 21  1  0  0  0  0
 14 23  1  1  0  0  0
 14 51  1  0  0  0  0
 15 19  1  0  0  0  0
 15 52  1  0  0  0  0
 15 53  1  0  0  0  0
 16 20  1  0  0  0  0
 16 54  1  0  0  0  0
 16 55  1  0  0  0  0
 17 24  2  0  0  0  0
 17 25  1  0  0  0  0
 18 19  1  0  0  0  0
 18 20  1  0  0  0  0
 18 22  1  0  0  0  0
 18 56  1  0  0  0  0
 19 57  1  0  0  0  0
 19 58  1  0  0  0  0
 20 59  1  0  0  0  0
 20 60  1  0  0  0  0
 21 26  1  0  0  0  0
 21 27  1  0  0  0  0
 21 61  1  0  0  0  0
 22 28  2  0  0  0  0
 24 29  1  0  0  0  0
 24 62  1  0  0  0  0
 25 30  2  0  0  0  0
 25 63  1  0  0  0  0
 26 64  1  0  0  0  0
 26 65  1  0  0  0  0
 26 66  1  0  0  0  0
 27 67  1  0  0  0  0
 27 68  1  0  0  0  0
 27 69  1  0  0  0  0
 28 31  1  0  0  0  0
 28 70  1  0  0  0  0
 29 32  2  0  0  0  0
 30 32  1  0  0  0  0
 30 71  1  0  0  0  0
 31 34  1  0  0  0  0
 32 72  1  0  0  0  0
 33 35  1  0  0  0  0
 33 73  1  0  0  0  0
 33 74  1  0  0  0  0
 34 36  1  0  0  0  0
 34 76  1  0  0  0  0
 34 77  1  0  0  0  0
 35 78  1  0  0  0  0
 35 79  1  0  0  0  0
 35 80  1  0  0  0  0
 36 37  2  0  0  0  0
 36 38  1  0  0  0  0
 37 39  1  0  0  0  0
 37 81  1  0  0  0  0
 38 40  2  0  0  0  0
 38 82  1  0  0  0  0
 39 41  2  0  0  0  0
 39 42  1  0  0  0  0
 40 41  1  0  0  0  0
 40 83  1  0  0  0  0
 41 84  1  0  0  0  0
M  END
> <PUBCHEM_COMPOUND_CID>
516185
> <PUBCHEM_COMPOUND_CANONICALIZED>
1
> <PUBCHEM_CACTVS_COMPLEXITY>
932
> <PUBCHEM_CACTVS_HBOND_ACCEPTOR>
7
> <PUBCHEM_CACTVS_HBOND_DONOR>
1
> <PUBCHEM_CACTVS_ROTATABLE_BOND>
10
> <PUBCHEM_CACTVS_SUBSKEYS>
AAADcfB/sQAAAAAAAAAAAAAAAAAAAWLAAAA8YIAAAAAAAAAB0AAAHwAICAAADSjBngwyiJMIAgC6ByTyTACyBAAhggAY2CG4ZJgKoDLA0fGE5AhkiADYyA8QgMAOgAACAAAAAAAAAAQAAAAAAAAAAAAAAA==
> <PUBCHEM_IUPAC_OPENEYE_NAME>
(2R)-2-[(3S,4S)-3-[[4-[5-[(3-cyanophenyl)methyl]-2-ethyl-pyrazol-3-yl]-1-piperidyl]methyl]-4-(3-fluorophenyl)pyrrolidin-1-yl]-3-methyl-butanoic acid
> <PUBCHEM_IUPAC_CAS_NAME>
(2R)-2-[(3S,4S)-3-[[4-[5-[(3-cyanophenyl)methyl]-2-ethyl-3-pyrazolyl]-1-piperidinyl]methyl]-4-(3-fluorophenyl)-1-pyrrolidinyl]-3-methylbutanoic acid
> <PUBCHEM_IUPAC_NAME_MARKUP>
(2<I>R</I>)-2-[(3<I>S</I>,4<I>S</I>)-3-[[4-[5-[(3-cyanophenyl)methyl]-2-ethylpyrazol-3-yl]piperidin-1-yl]methyl]-4-(3-fluorophenyl)pyrrolidin-1-yl]-3-methylbutanoic acid
> <PUBCHEM_IUPAC_NAME>
(2R)-2-[(3S,4S)-3-[[4-[5-[(3-cyanophenyl)methyl]-2-ethylpyrazol-3-yl]piperidin-1-yl]methyl]-4-(3-fluorophenyl)pyrrolidin-1-yl]-3-methylbutanoic acid
> <PUBCHEM_IUPAC_SYSTEMATIC_NAME>
(2R)-2-[(3S,4S)-3-[[4-[5-[(3-cyanophenyl)methyl]-2-ethyl-pyrazol-3-yl]piperidin-1-yl]methyl]-4-(3-fluorophenyl)pyrrolidin-1-yl]-3-methyl-butanoic acid
> <PUBCHEM_IUPAC_TRADITIONAL_NAME>
(2R)-2-[(3S,4S)-3-[[4-[5-(3-cyanobenzyl)-2-ethyl-pyrazol-3-yl]piperidino]methyl]-4-(3-fluorophenyl)pyrrolidino]-3-methyl-butyric acid
> <PUBCHEM_IUPAC_INCHI>
InChI=1S/C34H42FN5O2/c1-4-40-32(18-30(37-40)16-24-7-5-8-25(15-24)19-36)26-11-13-38(14-12-26)20-28-21-39(33(23(2)3)34(41)42)22-31(28)27-9-6-10-29(35)17-27/h5-10,15,17-18,23,26,28,31,33H,4,11-14,16,20-22H2,1-3H3,(H,41,42)/t28-,31+,33+/m0/s1
> <PUBCHEM_IUPAC_INCHIKEY>
WWLFYENFGVFYOB-HTGHOQDLSA-N
> <PUBCHEM_XLOGP3_AA>
3.4
> <PUBCHEM_EXACT_MASS>
571.33225376
> <PUBCHEM_MOLECULAR_FORMULA>
C34H42FN5O2
> <PUBCHEM_MOLECULAR_WEIGHT>
571.7
> <PUBCHEM_OPENEYE_CAN_SMILES>
CCN1C(=CC(=N1)CC2=CC(=CC=C2)C#N)C3CCN(CC3)CC4CN(CC4C5=CC(=CC=C5)F)C(C(C)C)C(=O)O
> <PUBCHEM_OPENEYE_ISO_SMILES>
CCN1C(=CC(=N1)CC2=CC(=CC=C2)C#N)C3CCN(CC3)C[C@H]4CN(C[C@@H]4C5=CC(=CC=C5)F)[C@H](C(C)C)C(=O)O
> <PUBCHEM_CACTVS_TPSA>
85.4
> <PUBCHEM_MONOISOTOPIC_WEIGHT>
571.33225376
> <PUBCHEM_TOTAL_CHARGE>
0
> <PUBCHEM_HEAVY_ATOM_COUNT>
42
> <PUBCHEM_ATOM_DEF_STEREO_COUNT>
3
> <PUBCHEM_ATOM_UDEF_STEREO_COUNT>
0
> <PUBCHEM_BOND_DEF_STEREO_COUNT>
0
> <PUBCHEM_BOND_UDEF_STEREO_COUNT>
0
> <PUBCHEM_ISOTOPIC_ATOM_COUNT>
0
> <PUBCHEM_COMPONENT_COUNT>
1
> <PUBCHEM_CACTVS_TAUTO_COUNT>
-1
> <PUBCHEM_COORDINATE_TYPE>
1
5
255
> <PUBCHEM_BONDANNOTATIONS>
10  17  5
14  23  5
17  24  8
17  25  8
22  28  8
24  29  8
25  30  8
28  31  8
29  32  8
30  32  8
36  37  8
36  38  8
37  39  8
38  40  8
39  41  8
40  41  8
6  22  8
6  7  8
7  31  8
9  13  6
$$$$
