516199
  -OEChem-10302200282D
 84 88  0     1  0  0  0  0  0999 V2000
    7.4899   -7.6464    0.0000 F   0  0  0  0  0  0  0  0  0  0  0  0
    2.3644   -4.2936    0.0000 O   0  0  0  0  0  0  0  0  0  0  0  0
    3.7657   -5.3117    0.0000 O   0  0  0  0  0  0  0  0  0  0  0  0
    6.8508    7.1448    0.0000 O   0  0  0  0  0  0  0  0  0  0  0  0
    4.9413   -3.6937    0.0000 N   0  0  3  0  0  0  0  0  0  0  0  0
    7.3900   -1.8573    0.0000 N   0  0  0  0  0  0  0  0  0  0  0  0
    6.5809    1.7305    0.0000 N   0  0  0  0  0  0  0  0  0  0  0  0
    6.8900    2.6816    0.0000 N   0  0  0  0  0  0  0  0  0  0  0  0
    6.5239   -3.3573    0.0000 C   0  0  2  0  0  0  0  0  0  0  0  0
    6.4194   -4.3518    0.0000 C   0  0  2  0  0  0  0  0  0  0  0  0
    5.6104   -2.9505    0.0000 C   0  0  0  0  0  0  0  0  0  0  0  0
    5.4413   -4.5597    0.0000 C   0  0  0  0  0  0  0  0  0  0  0  0
    7.3900   -2.8573    0.0000 C   0  0  0  0  0  0  0  0  0  0  0  0
    3.9467   -3.5892    0.0000 C   0  0  2  0  0  0  0  0  0  0  0  0
    6.5239   -1.3573    0.0000 C   0  0  0  0  0  0  0  0  0  0  0  0
    8.2560   -1.3573    0.0000 C   0  0  0  0  0  0  0  0  0  0  0  0
    7.1626   -5.0209    0.0000 C   0  0  0  0  0  0  0  0  0  0  0  0
    7.3900    0.1427    0.0000 C   0  0  0  0  0  0  0  0  0  0  0  0
    6.5239   -0.3573    0.0000 C   0  0  0  0  0  0  0  0  0  0  0  0
    8.2560   -0.3573    0.0000 C   0  0  0  0  0  0  0  0  0  0  0  0
    3.5400   -2.6756    0.0000 C   0  0  0  0  0  0  0  0  0  0  0  0
    7.3900    1.1427    0.0000 C   0  0  0  0  0  0  0  0  0  0  0  0
    3.3590   -4.3982    0.0000 C   0  0  0  0  0  0  0  0  0  0  0  0
    6.9546   -5.9991    0.0000 C   0  0  0  0  0  0  0  0  0  0  0  0
    8.1136   -4.7119    0.0000 C   0  0  0  0  0  0  0  0  0  0  0  0
    2.5455   -2.5711    0.0000 C   0  0  0  0  0  0  0  0  0  0  0  0
    4.1278   -1.8666    0.0000 C   0  0  0  0  0  0  0  0  0  0  0  0
    8.1990    1.7305    0.0000 C   0  0  0  0  0  0  0  0  0  0  0  0
    7.6978   -6.6682    0.0000 C   0  0  0  0  0  0  0  0  0  0  0  0
    8.8568   -5.3810    0.0000 C   0  0  0  0  0  0  0  0  0  0  0  0
    7.8900    2.6816    0.0000 C   0  0  0  0  0  0  0  0  0  0  0  0
    8.6488   -6.3592    0.0000 C   0  0  0  0  0  0  0  0  0  0  0  0
    5.6299    1.4215    0.0000 C   0  0  0  0  0  0  0  0  0  0  0  0
    8.4777    3.4906    0.0000 C   0  0  0  0  0  0  0  0  0  0  0  0
    4.8867    2.0906    0.0000 C   0  0  0  0  0  0  0  0  0  0  0  0
    8.0710    4.4041    0.0000 C   0  0  0  0  0  0  0  0  0  0  0  0
    7.0765    4.5087    0.0000 C   0  0  0  0  0  0  0  0  0  0  0  0
    8.6588    5.2131    0.0000 C   0  0  0  0  0  0  0  0  0  0  0  0
    6.6698    5.4222    0.0000 C   0  0  0  0  0  0  0  0  0  0  0  0
    8.2520    6.1267    0.0000 C   0  0  0  0  0  0  0  0  0  0  0  0
    7.2575    6.2312    0.0000 C   0  0  0  0  0  0  0  0  0  0  0  0
    6.4915   -2.7381    0.0000 H   0  0  0  0  0  0  0  0  0  0  0  0
    6.2589   -4.9507    0.0000 H   0  0  0  0  0  0  0  0  0  0  0  0
    5.9204   -2.4136    0.0000 H   0  0  0  0  0  0  0  0  0  0  0  0
    5.1088   -2.5861    0.0000 H   0  0  0  0  0  0  0  0  0  0  0  0
    4.8749   -4.8119    0.0000 H   0  0  0  0  0  0  0  0  0  0  0  0
    5.6328   -5.1494    0.0000 H   0  0  0  0  0  0  0  0  0  0  0  0
    7.6020   -3.4399    0.0000 H   0  0  0  0  0  0  0  0  0  0  0  0
    8.0005   -2.7496    0.0000 H   0  0  0  0  0  0  0  0  0  0  0  0
    4.1989   -4.1556    0.0000 H   0  0  0  0  0  0  0  0  0  0  0  0
    5.9134   -1.2496    0.0000 H   0  0  0  0  0  0  0  0  0  0  0  0
    6.3119   -1.9399    0.0000 H   0  0  0  0  0  0  0  0  0  0  0  0
    8.4680   -1.9399    0.0000 H   0  0  0  0  0  0  0  0  0  0  0  0
    8.8666   -1.2496    0.0000 H   0  0  0  0  0  0  0  0  0  0  0  0
    7.9269    0.4527    0.0000 H   0  0  0  0  0  0  0  0  0  0  0  0
    6.3119    0.2253    0.0000 H   0  0  0  0  0  0  0  0  0  0  0  0
    5.9134   -0.4649    0.0000 H   0  0  0  0  0  0  0  0  0  0  0  0
    8.8666   -0.4649    0.0000 H   0  0  0  0  0  0  0  0  0  0  0  0
    8.4680    0.2253    0.0000 H   0  0  0  0  0  0  0  0  0  0  0  0
    3.1756   -3.1772    0.0000 H   0  0  0  0  0  0  0  0  0  0  0  0
    6.3650   -6.1907    0.0000 H   0  0  0  0  0  0  0  0  0  0  0  0
    8.2425   -4.1055    0.0000 H   0  0  0  0  0  0  0  0  0  0  0  0
    2.6103   -1.9545    0.0000 H   0  0  0  0  0  0  0  0  0  0  0  0
    1.9289   -2.5063    0.0000 H   0  0  0  0  0  0  0  0  0  0  0  0
    2.4807   -3.1877    0.0000 H   0  0  0  0  0  0  0  0  0  0  0  0
    4.6294   -2.2310    0.0000 H   0  0  0  0  0  0  0  0  0  0  0  0
    4.4922   -1.3650    0.0000 H   0  0  0  0  0  0  0  0  0  0  0  0
    3.6262   -1.5022    0.0000 H   0  0  0  0  0  0  0  0  0  0  0  0
    8.7886    1.5389    0.0000 H   0  0  0  0  0  0  0  0  0  0  0  0
    9.4464   -5.1894    0.0000 H   0  0  0  0  0  0  0  0  0  0  0  0
    9.1096   -6.7740    0.0000 H   0  0  0  0  0  0  0  0  0  0  0  0
    5.1413    1.0398    0.0000 H   0  0  0  0  0  0  0  0  0  0  0  0
    5.9210    0.8741    0.0000 H   0  0  0  0  0  0  0  0  0  0  0  0
    2.0000   -4.7952    0.0000 H   0  0  0  0  0  0  0  0  0  0  0  0
    8.9084    3.0446    0.0000 H   0  0  0  0  0  0  0  0  0  0  0  0
    8.9917    3.8373    0.0000 H   0  0  0  0  0  0  0  0  0  0  0  0
    5.3016    2.5514    0.0000 H   0  0  0  0  0  0  0  0  0  0  0  0
    4.4260    2.5055    0.0000 H   0  0  0  0  0  0  0  0  0  0  0  0
    4.4719    1.6299    0.0000 H   0  0  0  0  0  0  0  0  0  0  0  0
    6.7121    4.0071    0.0000 H   0  0  0  0  0  0  0  0  0  0  0  0
    9.2754    5.1483    0.0000 H   0  0  0  0  0  0  0  0  0  0  0  0
    6.0531    5.4870    0.0000 H   0  0  0  0  0  0  0  0  0  0  0  0
    8.6165    6.6283    0.0000 H   0  0  0  0  0  0  0  0  0  0  0  0
    7.2152    7.6464    0.0000 H   0  0  0  0  0  0  0  0  0  0  0  0
  1 29  1  0  0  0  0
  2 23  1  0  0  0  0
  2 74  1  0  0  0  0
  3 23  2  0  0  0  0
  4 41  1  0  0  0  0
  4 84  1  0  0  0  0
  5 11  1  0  0  0  0
  5 12  1  0  0  0  0
  5 14  1  0  0  0  0
  6 13  1  0  0  0  0
  6 15  1  0  0  0  0
  6 16  1  0  0  0  0
  7  8  1  0  0  0  0
  7 22  1  0  0  0  0
  7 33  1  0  0  0  0
  8 31  2  0  0  0  0
  9 10  1  0  0  0  0
  9 11  1  0  0  0  0
  9 13  1  6  0  0  0
  9 42  1  0  0  0  0
 10 12  1  0  0  0  0
 10 17  1  1  0  0  0
 10 43  1  0  0  0  0
 11 44  1  0  0  0  0
 11 45  1  0  0  0  0
 12 46  1  0  0  0  0
 12 47  1  0  0  0  0
 13 48  1  0  0  0  0
 13 49  1  0  0  0  0
 14 21  1  0  0  0  0
 14 23  1  1  0  0  0
 14 50  1  0  0  0  0
 15 19  1  0  0  0  0
 15 51  1  0  0  0  0
 15 52  1  0  0  0  0
 16 20  1  0  0  0  0
 16 53  1  0  0  0  0
 16 54  1  0  0  0  0
 17 24  2  0  0  0  0
 17 25  1  0  0  0  0
 18 19  1  0  0  0  0
 18 20  1  0  0  0  0
 18 22  1  0  0  0  0
 18 55  1  0  0  0  0
 19 56  1  0  0  0  0
 19 57  1  0  0  0  0
 20 58  1  0  0  0  0
 20 59  1  0  0  0  0
 21 26  1  0  0  0  0
 21 27  1  0  0  0  0
 21 60  1  0  0  0  0
 22 28  2  0  0  0  0
 24 29  1  0  0  0  0
 24 61  1  0  0  0  0
 25 30  2  0  0  0  0
 25 62  1  0  0  0  0
 26 63  1  0  0  0  0
 26 64  1  0  0  0  0
 26 65  1  0  0  0  0
 27 66  1  0  0  0  0
 27 67  1  0  0  0  0
 27 68  1  0  0  0  0
 28 31  1  0  0  0  0
 28 69  1  0  0  0  0
 29 32  2  0  0  0  0
 30 32  1  0  0  0  0
 30 70  1  0  0  0  0
 31 34  1  0  0  0  0
 32 71  1  0  0  0  0
 33 35  1  0  0  0  0
 33 72  1  0  0  0  0
 33 73  1  0  0  0  0
 34 36  1  0  0  0  0
 34 75  1  0  0  0  0
 34 76  1  0  0  0  0
 35 77  1  0  0  0  0
 35 78  1  0  0  0  0
 35 79  1  0  0  0  0
 36 37  2  0  0  0  0
 36 38  1  0  0  0  0
 37 39  1  0  0  0  0
 37 80  1  0  0  0  0
 38 40  2  0  0  0  0
 38 81  1  0  0  0  0
 39 41  2  0  0  0  0
 39 82  1  0  0  0  0
 40 41  1  0  0  0  0
 40 83  1  0  0  0  0
M  END
> <PUBCHEM_COMPOUND_CID>
516199
> <PUBCHEM_COMPOUND_CANONICALIZED>
1
> <PUBCHEM_CACTVS_COMPLEXITY>
831
> <PUBCHEM_CACTVS_HBOND_ACCEPTOR>
7
> <PUBCHEM_CACTVS_HBOND_DONOR>
2
> <PUBCHEM_CACTVS_ROTATABLE_BOND>
10
> <PUBCHEM_CACTVS_SUBSKEYS>
AAADcfB/sQAAAAAAAAAAAAAAAAAAAWLAAAA8YIAAAAAAAAAB0AAAHwAICAAADSzBngwyjpMIAgCqAyTyTACSBAAhogAY2CG+bJgKJjLC0fOE9AhkyBHY2AeQwOAOoAAAAAAAAABAAAAAAAAAAAAAAAAAAA==
> <PUBCHEM_IUPAC_OPENEYE_NAME>
(2R)-2-[(3S,4S)-3-[[4-[2-ethyl-5-[(4-hydroxyphenyl)methyl]pyrazol-3-yl]-1-piperidyl]methyl]-4-(3-fluorophenyl)pyrrolidin-1-yl]-3-methyl-butanoic acid
> <PUBCHEM_IUPAC_CAS_NAME>
(2R)-2-[(3S,4S)-3-[[4-[2-ethyl-5-[(4-hydroxyphenyl)methyl]-3-pyrazolyl]-1-piperidinyl]methyl]-4-(3-fluorophenyl)-1-pyrrolidinyl]-3-methylbutanoic acid
> <PUBCHEM_IUPAC_NAME_MARKUP>
(2<I>R</I>)-2-[(3<I>S</I>,4<I>S</I>)-3-[[4-[2-ethyl-5-[(4-hydroxyphenyl)methyl]pyrazol-3-yl]piperidin-1-yl]methyl]-4-(3-fluorophenyl)pyrrolidin-1-yl]-3-methylbutanoic acid
> <PUBCHEM_IUPAC_NAME>
(2R)-2-[(3S,4S)-3-[[4-[2-ethyl-5-[(4-hydroxyphenyl)methyl]pyrazol-3-yl]piperidin-1-yl]methyl]-4-(3-fluorophenyl)pyrrolidin-1-yl]-3-methylbutanoic acid
> <PUBCHEM_IUPAC_SYSTEMATIC_NAME>
(2R)-2-[(3S,4S)-3-[[4-[2-ethyl-5-[(4-hydroxyphenyl)methyl]pyrazol-3-yl]piperidin-1-yl]methyl]-4-(3-fluorophenyl)pyrrolidin-1-yl]-3-methyl-butanoic acid
> <PUBCHEM_IUPAC_TRADITIONAL_NAME>
(2R)-2-[(3S,4S)-3-[[4-[2-ethyl-5-(4-hydroxybenzyl)pyrazol-3-yl]piperidino]methyl]-4-(3-fluorophenyl)pyrrolidino]-3-methyl-butyric acid
> <PUBCHEM_IUPAC_INCHI>
InChI=1S/C33H43FN4O3/c1-4-38-31(18-28(35-38)16-23-8-10-29(39)11-9-23)24-12-14-36(15-13-24)19-26-20-37(32(22(2)3)33(40)41)21-30(26)25-6-5-7-27(34)17-25/h5-11,17-18,22,24,26,30,32,39H,4,12-16,19-21H2,1-3H3,(H,40,41)/t26-,30+,32+/m0/s1
> <PUBCHEM_IUPAC_INCHIKEY>
VDRHHLLGNIGFLU-NNYJQHGCSA-N
> <PUBCHEM_XLOGP3_AA>
3.3
> <PUBCHEM_EXACT_MASS>
562.33191941
> <PUBCHEM_MOLECULAR_FORMULA>
C33H43FN4O3
> <PUBCHEM_MOLECULAR_WEIGHT>
562.7
> <PUBCHEM_OPENEYE_CAN_SMILES>
CCN1C(=CC(=N1)CC2=CC=C(C=C2)O)C3CCN(CC3)CC4CN(CC4C5=CC(=CC=C5)F)C(C(C)C)C(=O)O
> <PUBCHEM_OPENEYE_ISO_SMILES>
CCN1C(=CC(=N1)CC2=CC=C(C=C2)O)C3CCN(CC3)C[C@H]4CN(C[C@@H]4C5=CC(=CC=C5)F)[C@H](C(C)C)C(=O)O
> <PUBCHEM_CACTVS_TPSA>
81.8
> <PUBCHEM_MONOISOTOPIC_WEIGHT>
562.33191941
> <PUBCHEM_TOTAL_CHARGE>
0
> <PUBCHEM_HEAVY_ATOM_COUNT>
41
> <PUBCHEM_ATOM_DEF_STEREO_COUNT>
3
> <PUBCHEM_ATOM_UDEF_STEREO_COUNT>
0
> <PUBCHEM_BOND_DEF_STEREO_COUNT>
0
> <PUBCHEM_BOND_UDEF_STEREO_COUNT>
0
> <PUBCHEM_ISOTOPIC_ATOM_COUNT>
0
> <PUBCHEM_COMPONENT_COUNT>
1
> <PUBCHEM_CACTVS_TAUTO_COUNT>
-1
> <PUBCHEM_COORDINATE_TYPE>
1
5
255
> <PUBCHEM_BONDANNOTATIONS>
10  17  5
14  23  5
17  24  8
17  25  8
22  28  8
24  29  8
25  30  8
28  31  8
29  32  8
30  32  8
36  37  8
36  38  8
37  39  8
38  40  8
39  41  8
40  41  8
7  22  8
7  8  8
8  31  8
9  13  6
$$$$
