516110
  -OEChem-10302200282D
 41 44  0     1  0  0  0  0  0999 V2000
    7.1962   -3.8284    0.0000 Cl  0  0  0  0  0  0  0  0  0  0  0  0
    2.0000   -0.8284    0.0000 Cl  0  0  0  0  0  0  0  0  0  0  0  0
    3.7320   -3.8284    0.0000 Cl  0  0  0  0  0  0  0  0  0  0  0  0
    8.7327    0.7369    0.0000 O   0  0  0  0  0  0  0  0  0  0  0  0
   11.0824    1.8206    0.0000 O   0  0  0  0  0  0  0  0  0  0  0  0
    9.6849    3.2384    0.0000 O   0  0  0  0  0  0  0  0  0  0  0  0
    9.0084   -1.0237    0.0000 N   0  0  0  0  0  0  0  0  0  0  0  0
    9.0084   -2.6332    0.0000 N   0  0  0  0  0  0  0  0  0  0  0  0
    7.1962   -0.8284    0.0000 N   0  0  0  0  0  0  0  0  0  0  0  0
    6.3301   -2.3284    0.0000 N   0  0  0  0  0  0  0  0  0  0  0  0
    5.4641   -0.8284    0.0000 N   0  0  0  0  0  0  0  0  0  0  0  0
    9.3191   -0.0732    0.0000 C   0  0  1  0  0  0  0  0  0  0  0  0
   10.2724    1.2342    0.0000 C   0  0  1  0  0  0  0  0  0  0  0  0
   10.2706    0.2342    0.0000 C   0  0  0  0  0  0  0  0  0  0  0  0
    9.3219    1.5449    0.0000 C   0  0  1  0  0  0  0  0  0  0  0  0
    9.0145    2.4964    0.0000 C   0  0  0  0  0  0  0  0  0  0  0  0
    8.0622   -1.3284    0.0000 C   0  0  0  0  0  0  0  0  0  0  0  0
    9.5920   -1.8284    0.0000 C   0  0  0  0  0  0  0  0  0  0  0  0
    8.0622   -2.3284    0.0000 C   0  0  0  0  0  0  0  0  0  0  0  0
    7.1962   -2.8284    0.0000 C   0  0  0  0  0  0  0  0  0  0  0  0
    6.3301   -1.3284    0.0000 C   0  0  0  0  0  0  0  0  0  0  0  0
    4.5981   -1.3284    0.0000 C   0  0  0  0  0  0  0  0  0  0  0  0
    4.5981   -2.3284    0.0000 C   0  0  0  0  0  0  0  0  0  0  0  0
    3.7320   -0.8284    0.0000 C   0  0  0  0  0  0  0  0  0  0  0  0
    2.8660   -1.3284    0.0000 C   0  0  0  0  0  0  0  0  0  0  0  0
    3.7320   -2.8284    0.0000 C   0  0  0  0  0  0  0  0  0  0  0  0
    2.8660   -2.3284    0.0000 C   0  0  0  0  0  0  0  0  0  0  0  0
    9.7567   -0.5123    0.0000 H   0  0  0  0  0  0  0  0  0  0  0  0
   10.1765    1.8467    0.0000 H   0  0  0  0  0  0  0  0  0  0  0  0
   10.3985   -0.3725    0.0000 H   0  0  0  0  0  0  0  0  0  0  0  0
   10.8874    0.2979    0.0000 H   0  0  0  0  0  0  0  0  0  0  0  0
    8.7097    1.6429    0.0000 H   0  0  0  0  0  0  0  0  0  0  0  0
    8.6336    2.9857    0.0000 H   0  0  0  0  0  0  0  0  0  0  0  0
    8.4666    2.2063    0.0000 H   0  0  0  0  0  0  0  0  0  0  0  0
   11.6484    1.5674    0.0000 H   0  0  0  0  0  0  0  0  0  0  0  0
   10.2120   -1.8284    0.0000 H   0  0  0  0  0  0  0  0  0  0  0  0
    9.4943    3.8284    0.0000 H   0  0  0  0  0  0  0  0  0  0  0  0
    5.4641   -0.2084    0.0000 H   0  0  0  0  0  0  0  0  0  0  0  0
    5.1350   -2.6384    0.0000 H   0  0  0  0  0  0  0  0  0  0  0  0
    3.7320   -0.2084    0.0000 H   0  0  0  0  0  0  0  0  0  0  0  0
    2.3291   -2.6384    0.0000 H   0  0  0  0  0  0  0  0  0  0  0  0
  1 20  1  0  0  0  0
  2 25  1  0  0  0  0
  3 26  1  0  0  0  0
  4 12  1  0  0  0  0
  4 15  1  0  0  0  0
 13  5  1  1  0  0  0
  5 35  1  0  0  0  0
  6 16  1  0  0  0  0
  6 37  1  0  0  0  0
 12  7  1  6  0  0  0
  7 17  1  0  0  0  0
  7 18  1  0  0  0  0
  8 18  2  0  0  0  0
  8 19  1  0  0  0  0
  9 17  1  0  0  0  0
  9 21  2  0  0  0  0
 10 20  2  0  0  0  0
 10 21  1  0  0  0  0
 11 21  1  0  0  0  0
 11 22  1  0  0  0  0
 11 38  1  0  0  0  0
 12 14  1  0  0  0  0
 12 28  1  0  0  0  0
 13 14  1  0  0  0  0
 13 15  1  0  0  0  0
 13 29  1  0  0  0  0
 14 30  1  0  0  0  0
 14 31  1  0  0  0  0
 15 16  1  6  0  0  0
 15 32  1  0  0  0  0
 16 33  1  0  0  0  0
 16 34  1  0  0  0  0
 17 19  2  0  0  0  0
 18 36  1  0  0  0  0
 19 20  1  0  0  0  0
 22 23  2  0  0  0  0
 22 24  1  0  0  0  0
 23 26  1  0  0  0  0
 23 39  1  0  0  0  0
 24 25  2  0  0  0  0
 24 40  1  0  0  0  0
 25 27  1  0  0  0  0
 26 27  2  0  0  0  0
 27 41  1  0  0  0  0
M  END
> <PUBCHEM_COMPOUND_CID>
516110
> <PUBCHEM_COMPOUND_CANONICALIZED>
1
> <PUBCHEM_CACTVS_COMPLEXITY>
514
> <PUBCHEM_CACTVS_HBOND_ACCEPTOR>
7
> <PUBCHEM_CACTVS_HBOND_DONOR>
3
> <PUBCHEM_CACTVS_ROTATABLE_BOND>
4
> <PUBCHEM_CACTVS_SUBSKEYS>
AAADccB7sAAGAAAAAAAAAAAAAAAAAWJAAAA8QAAAAAAAAFgB/AAAHgIQCAAACB7hlyY18L/MFgCgASZjZACCgC0xF6AB2CAodpiJeCLB29HeZAhvkALLyCewMAIAAAAAAAKAAAAAAAAABQAAAAAAAAAAAA==
> <PUBCHEM_IUPAC_OPENEYE_NAME>
(2R,3S,5R)-5-[6-chloro-2-(3,5-dichloroanilino)purin-9-yl]-2-(hydroxymethyl)tetrahydrofuran-3-ol
> <PUBCHEM_IUPAC_CAS_NAME>
(2R,3S,5R)-5-[6-chloro-2-(3,5-dichloroanilino)-9-purinyl]-2-(hydroxymethyl)-3-oxolanol
> <PUBCHEM_IUPAC_NAME_MARKUP>
(2<I>R</I>,3<I>S</I>,5<I>R</I>)-5-[6-chloro-2-(3,5-dichloroanilino)purin-9-yl]-2-(hydroxymethyl)oxolan-3-ol
> <PUBCHEM_IUPAC_NAME>
(2R,3S,5R)-5-[6-chloro-2-(3,5-dichloroanilino)purin-9-yl]-2-(hydroxymethyl)oxolan-3-ol
> <PUBCHEM_IUPAC_SYSTEMATIC_NAME>
(2R,3S,5R)-5-[2-[[3,5-bis(chloranyl)phenyl]amino]-6-chloranyl-purin-9-yl]-2-(hydroxymethyl)oxolan-3-ol
> <PUBCHEM_IUPAC_TRADITIONAL_NAME>
(2R,3S,5R)-5-[6-chloro-2-(3,5-dichloroanilino)purin-9-yl]-2-methylol-tetrahydrofuran-3-ol
> <PUBCHEM_IUPAC_INCHI>
InChI=1S/C16H14Cl3N5O3/c17-7-1-8(18)3-9(2-7)21-16-22-14(19)13-15(23-16)24(6-20-13)12-4-10(26)11(5-25)27-12/h1-3,6,10-12,25-26H,4-5H2,(H,21,22,23)/t10-,11+,12+/m0/s1
> <PUBCHEM_IUPAC_INCHIKEY>
LUUYTTSVELCZEL-QJPTWQEYSA-N
> <PUBCHEM_XLOGP3>
4.3
> <PUBCHEM_EXACT_MASS>
429.016222
> <PUBCHEM_MOLECULAR_FORMULA>
C16H14Cl3N5O3
> <PUBCHEM_MOLECULAR_WEIGHT>
430.7
> <PUBCHEM_OPENEYE_CAN_SMILES>
C1C(C(OC1N2C=NC3=C2N=C(N=C3Cl)NC4=CC(=CC(=C4)Cl)Cl)CO)O
> <PUBCHEM_OPENEYE_ISO_SMILES>
C1[C@@H]([C@H](O[C@H]1N2C=NC3=C2N=C(N=C3Cl)NC4=CC(=CC(=C4)Cl)Cl)CO)O
> <PUBCHEM_CACTVS_TPSA>
105
> <PUBCHEM_MONOISOTOPIC_WEIGHT>
429.016222
> <PUBCHEM_TOTAL_CHARGE>
0
> <PUBCHEM_HEAVY_ATOM_COUNT>
27
> <PUBCHEM_ATOM_DEF_STEREO_COUNT>
3
> <PUBCHEM_ATOM_UDEF_STEREO_COUNT>
0
> <PUBCHEM_BOND_DEF_STEREO_COUNT>
0
> <PUBCHEM_BOND_UDEF_STEREO_COUNT>
0
> <PUBCHEM_ISOTOPIC_ATOM_COUNT>
0
> <PUBCHEM_COMPONENT_COUNT>
1
> <PUBCHEM_CACTVS_TAUTO_COUNT>
-1
> <PUBCHEM_COORDINATE_TYPE>
1
5
255
> <PUBCHEM_BONDANNOTATIONS>
10  20  8
10  21  8
15  16  6
17  19  8
19  20  8
22  23  8
22  24  8
23  26  8
24  25  8
25  27  8
26  27  8
13  5  5
12  7  6
7  17  8
7  18  8
8  18  8
8  19  8
9  17  8
9  21  8
$$$$
