516112
  -OEChem-10302200282D
 43 46  0     1  0  0  0  0  0999 V2000
    2.0000   -0.6734    0.0000 Cl  0  0  0  0  0  0  0  0  0  0  0  0
    3.7320   -3.6734    0.0000 Cl  0  0  0  0  0  0  0  0  0  0  0  0
    8.7327    0.8919    0.0000 O   0  0  0  0  0  0  0  0  0  0  0  0
   11.0824    1.9756    0.0000 O   0  0  0  0  0  0  0  0  0  0  0  0
    9.6849    3.3934    0.0000 O   0  0  0  0  0  0  0  0  0  0  0  0
    9.0084   -0.8687    0.0000 N   0  0  0  0  0  0  0  0  0  0  0  0
    9.0084   -2.4782    0.0000 N   0  0  0  0  0  0  0  0  0  0  0  0
    7.1962   -0.6734    0.0000 N   0  0  0  0  0  0  0  0  0  0  0  0
    6.3301   -2.1734    0.0000 N   0  0  0  0  0  0  0  0  0  0  0  0
    5.4641   -0.6734    0.0000 N   0  0  0  0  0  0  0  0  0  0  0  0
    7.1962   -3.6734    0.0000 N   0  0  0  0  0  0  0  0  0  0  0  0
    9.3191    0.0818    0.0000 C   0  0  1  0  0  0  0  0  0  0  0  0
   10.2724    1.3892    0.0000 C   0  0  1  0  0  0  0  0  0  0  0  0
   10.2706    0.3892    0.0000 C   0  0  0  0  0  0  0  0  0  0  0  0
    9.3219    1.6999    0.0000 C   0  0  1  0  0  0  0  0  0  0  0  0
    9.0145    2.6514    0.0000 C   0  0  0  0  0  0  0  0  0  0  0  0
    8.0622   -1.1734    0.0000 C   0  0  0  0  0  0  0  0  0  0  0  0
    9.5920   -1.6734    0.0000 C   0  0  0  0  0  0  0  0  0  0  0  0
    8.0622   -2.1734    0.0000 C   0  0  0  0  0  0  0  0  0  0  0  0
    7.1962   -2.6734    0.0000 C   0  0  0  0  0  0  0  0  0  0  0  0
    6.3301   -1.1734    0.0000 C   0  0  0  0  0  0  0  0  0  0  0  0
    4.5981   -1.1734    0.0000 C   0  0  0  0  0  0  0  0  0  0  0  0
    4.5981   -2.1734    0.0000 C   0  0  0  0  0  0  0  0  0  0  0  0
    3.7320   -0.6734    0.0000 C   0  0  0  0  0  0  0  0  0  0  0  0
    2.8660   -1.1734    0.0000 C   0  0  0  0  0  0  0  0  0  0  0  0
    3.7320   -2.6734    0.0000 C   0  0  0  0  0  0  0  0  0  0  0  0
    2.8660   -2.1734    0.0000 C   0  0  0  0  0  0  0  0  0  0  0  0
    9.7567   -0.3573    0.0000 H   0  0  0  0  0  0  0  0  0  0  0  0
   10.1765    2.0017    0.0000 H   0  0  0  0  0  0  0  0  0  0  0  0
   10.3985   -0.2175    0.0000 H   0  0  0  0  0  0  0  0  0  0  0  0
   10.8874    0.4529    0.0000 H   0  0  0  0  0  0  0  0  0  0  0  0
    8.7097    1.7979    0.0000 H   0  0  0  0  0  0  0  0  0  0  0  0
    8.6336    3.1407    0.0000 H   0  0  0  0  0  0  0  0  0  0  0  0
    8.4666    2.3613    0.0000 H   0  0  0  0  0  0  0  0  0  0  0  0
   11.6484    1.7224    0.0000 H   0  0  0  0  0  0  0  0  0  0  0  0
   10.2120   -1.6734    0.0000 H   0  0  0  0  0  0  0  0  0  0  0  0
    9.4943    3.9834    0.0000 H   0  0  0  0  0  0  0  0  0  0  0  0
    5.4641   -0.0534    0.0000 H   0  0  0  0  0  0  0  0  0  0  0  0
    6.6592   -3.9834    0.0000 H   0  0  0  0  0  0  0  0  0  0  0  0
    7.7331   -3.9834    0.0000 H   0  0  0  0  0  0  0  0  0  0  0  0
    5.1350   -2.4834    0.0000 H   0  0  0  0  0  0  0  0  0  0  0  0
    3.7320   -0.0534    0.0000 H   0  0  0  0  0  0  0  0  0  0  0  0
    2.3291   -2.4834    0.0000 H   0  0  0  0  0  0  0  0  0  0  0  0
  1 25  1  0  0  0  0
  2 26  1  0  0  0  0
  3 12  1  0  0  0  0
  3 15  1  0  0  0  0
 13  4  1  1  0  0  0
  4 35  1  0  0  0  0
  5 16  1  0  0  0  0
  5 37  1  0  0  0  0
 12  6  1  6  0  0  0
  6 17  1  0  0  0  0
  6 18  1  0  0  0  0
  7 18  2  0  0  0  0
  7 19  1  0  0  0  0
  8 17  2  0  0  0  0
  8 21  1  0  0  0  0
  9 20  1  0  0  0  0
  9 21  2  0  0  0  0
 10 21  1  0  0  0  0
 10 22  1  0  0  0  0
 10 38  1  0  0  0  0
 11 20  1  0  0  0  0
 11 39  1  0  0  0  0
 11 40  1  0  0  0  0
 12 14  1  0  0  0  0
 12 28  1  0  0  0  0
 13 14  1  0  0  0  0
 13 15  1  0  0  0  0
 13 29  1  0  0  0  0
 14 30  1  0  0  0  0
 14 31  1  0  0  0  0
 15 16  1  6  0  0  0
 15 32  1  0  0  0  0
 16 33  1  0  0  0  0
 16 34  1  0  0  0  0
 17 19  1  0  0  0  0
 18 36  1  0  0  0  0
 19 20  2  0  0  0  0
 22 23  2  0  0  0  0
 22 24  1  0  0  0  0
 23 26  1  0  0  0  0
 23 41  1  0  0  0  0
 24 25  2  0  0  0  0
 24 42  1  0  0  0  0
 25 27  1  0  0  0  0
 26 27  2  0  0  0  0
 27 43  1  0  0  0  0
M  END
> <PUBCHEM_COMPOUND_CID>
516112
> <PUBCHEM_COMPOUND_CANONICALIZED>
1
> <PUBCHEM_CACTVS_COMPLEXITY>
513
> <PUBCHEM_CACTVS_HBOND_ACCEPTOR>
8
> <PUBCHEM_CACTVS_HBOND_DONOR>
4
> <PUBCHEM_CACTVS_ROTATABLE_BOND>
4
> <PUBCHEM_CACTVS_SUBSKEYS>
AAADceB7sAAGAAAAAAAAAAAAAAAAAWJAAAA8QAAAAAAAAFgB/AAAHgIQCAAACB7hlyY18L/MFgCgASZjZACCgC0xF6AB2CAodpiJeCLB29GeZAhvkALLyCewMAIAAAAAAAKAAAAAAAAABQAAAAAAAAAAAA==
> <PUBCHEM_IUPAC_OPENEYE_NAME>
(2R,3S,5R)-5-[6-amino-2-(3,5-dichloroanilino)purin-9-yl]-2-(hydroxymethyl)tetrahydrofuran-3-ol
> <PUBCHEM_IUPAC_CAS_NAME>
(2R,3S,5R)-5-[6-amino-2-(3,5-dichloroanilino)-9-purinyl]-2-(hydroxymethyl)-3-oxolanol
> <PUBCHEM_IUPAC_NAME_MARKUP>
(2<I>R</I>,3<I>S</I>,5<I>R</I>)-5-[6-amino-2-(3,5-dichloroanilino)purin-9-yl]-2-(hydroxymethyl)oxolan-3-ol
> <PUBCHEM_IUPAC_NAME>
(2R,3S,5R)-5-[6-amino-2-(3,5-dichloroanilino)purin-9-yl]-2-(hydroxymethyl)oxolan-3-ol
> <PUBCHEM_IUPAC_SYSTEMATIC_NAME>
(2R,3S,5R)-5-[6-azanyl-2-[[3,5-bis(chloranyl)phenyl]amino]purin-9-yl]-2-(hydroxymethyl)oxolan-3-ol
> <PUBCHEM_IUPAC_TRADITIONAL_NAME>
(2R,3S,5R)-5-[6-amino-2-(3,5-dichloroanilino)purin-9-yl]-2-methylol-tetrahydrofuran-3-ol
> <PUBCHEM_IUPAC_INCHI>
InChI=1S/C16H16Cl2N6O3/c17-7-1-8(18)3-9(2-7)21-16-22-14(19)13-15(23-16)24(6-20-13)12-4-10(26)11(5-25)27-12/h1-3,6,10-12,25-26H,4-5H2,(H3,19,21,22,23)/t10-,11+,12+/m0/s1
> <PUBCHEM_IUPAC_INCHIKEY>
KPAPSYOOJVLJKD-QJPTWQEYSA-N
> <PUBCHEM_XLOGP3>
3
> <PUBCHEM_EXACT_MASS>
410.0660938
> <PUBCHEM_MOLECULAR_FORMULA>
C16H16Cl2N6O3
> <PUBCHEM_MOLECULAR_WEIGHT>
411.2
> <PUBCHEM_OPENEYE_CAN_SMILES>
C1C(C(OC1N2C=NC3=C(N=C(N=C32)NC4=CC(=CC(=C4)Cl)Cl)N)CO)O
> <PUBCHEM_OPENEYE_ISO_SMILES>
C1[C@@H]([C@H](O[C@H]1N2C=NC3=C(N=C(N=C32)NC4=CC(=CC(=C4)Cl)Cl)N)CO)O
> <PUBCHEM_CACTVS_TPSA>
131
> <PUBCHEM_MONOISOTOPIC_WEIGHT>
410.0660938
> <PUBCHEM_TOTAL_CHARGE>
0
> <PUBCHEM_HEAVY_ATOM_COUNT>
27
> <PUBCHEM_ATOM_DEF_STEREO_COUNT>
3
> <PUBCHEM_ATOM_UDEF_STEREO_COUNT>
0
> <PUBCHEM_BOND_DEF_STEREO_COUNT>
0
> <PUBCHEM_BOND_UDEF_STEREO_COUNT>
0
> <PUBCHEM_ISOTOPIC_ATOM_COUNT>
0
> <PUBCHEM_COMPONENT_COUNT>
1
> <PUBCHEM_CACTVS_TAUTO_COUNT>
-1
> <PUBCHEM_COORDINATE_TYPE>
1
5
255
> <PUBCHEM_BONDANNOTATIONS>
15  16  6
17  19  8
19  20  8
22  23  8
22  24  8
23  26  8
24  25  8
25  27  8
26  27  8
13  4  5
12  6  6
6  17  8
6  18  8
7  18  8
7  19  8
8  17  8
8  21  8
9  20  8
9  21  8
$$$$
