516264
  -OEChem-10302200282D
 87 91  0     1  0  0  0  0  0999 V2000
    9.8078   -5.7671    0.0000 F   0  0  0  0  0  0  0  0  0  0  0  0
    2.3644   -4.9887    0.0000 O   0  0  0  0  0  0  0  0  0  0  0  0
    3.7657   -6.0068    0.0000 O   0  0  0  0  0  0  0  0  0  0  0  0
    4.9413   -4.3887    0.0000 N   0  0  3  0  0  0  0  0  0  0  0  0
    7.3900   -2.5523    0.0000 N   0  0  0  0  0  0  0  0  0  0  0  0
    6.5809    1.0355    0.0000 N   0  0  0  0  0  0  0  0  0  0  0  0
    6.8900    1.9865    0.0000 N   0  0  0  0  0  0  0  0  0  0  0  0
    6.4441    7.3633    0.0000 N   0  0  0  0  0  0  0  0  0  0  0  0
    6.5239   -4.0523    0.0000 C   0  0  2  0  0  0  0  0  0  0  0  0
    6.4194   -5.0468    0.0000 C   0  0  2  0  0  0  0  0  0  0  0  0
    5.6104   -3.6456    0.0000 C   0  0  0  0  0  0  0  0  0  0  0  0
    5.4413   -5.2548    0.0000 C   0  0  0  0  0  0  0  0  0  0  0  0
    7.3900   -3.5523    0.0000 C   0  0  0  0  0  0  0  0  0  0  0  0
    3.9467   -4.2842    0.0000 C   0  0  2  0  0  0  0  0  0  0  0  0
    3.5400   -3.3707    0.0000 C   0  0  0  0  0  0  0  0  0  0  0  0
    7.1626   -5.7160    0.0000 C   0  0  0  0  0  0  0  0  0  0  0  0
    6.5239   -2.0523    0.0000 C   0  0  0  0  0  0  0  0  0  0  0  0
    8.2560   -2.0523    0.0000 C   0  0  0  0  0  0  0  0  0  0  0  0
    7.3900   -0.5523    0.0000 C   0  0  0  0  0  0  0  0  0  0  0  0
    6.5239   -1.0523    0.0000 C   0  0  0  0  0  0  0  0  0  0  0  0
    8.2560   -1.0523    0.0000 C   0  0  0  0  0  0  0  0  0  0  0  0
    3.3590   -5.0932    0.0000 C   0  0  0  0  0  0  0  0  0  0  0  0
    3.1333   -2.4571    0.0000 C   0  0  0  0  0  0  0  0  0  0  0  0
    2.6264   -3.7774    0.0000 C   0  0  0  0  0  0  0  0  0  0  0  0
    4.4535   -2.9639    0.0000 C   0  0  0  0  0  0  0  0  0  0  0  0
    7.3900    0.4477    0.0000 C   0  0  0  0  0  0  0  0  0  0  0  0
    8.1136   -5.4070    0.0000 C   0  0  0  0  0  0  0  0  0  0  0  0
    6.9546   -6.6941    0.0000 C   0  0  0  0  0  0  0  0  0  0  0  0
    8.1990    1.0355    0.0000 C   0  0  0  0  0  0  0  0  0  0  0  0
    8.8568   -6.0761    0.0000 C   0  0  0  0  0  0  0  0  0  0  0  0
    7.6978   -7.3633    0.0000 C   0  0  0  0  0  0  0  0  0  0  0  0
    8.6488   -7.0542    0.0000 C   0  0  0  0  0  0  0  0  0  0  0  0
    7.8900    1.9865    0.0000 C   0  0  0  0  0  0  0  0  0  0  0  0
    5.6299    0.7264    0.0000 C   0  0  0  0  0  0  0  0  0  0  0  0
    8.4777    2.7955    0.0000 C   0  0  0  0  0  0  0  0  0  0  0  0
    4.8867    1.3956    0.0000 C   0  0  0  0  0  0  0  0  0  0  0  0
    8.0710    3.7091    0.0000 C   0  0  0  0  0  0  0  0  0  0  0  0
    8.6588    4.5181    0.0000 C   0  0  0  0  0  0  0  0  0  0  0  0
    7.0765    3.8136    0.0000 C   0  0  0  0  0  0  0  0  0  0  0  0
    8.2520    5.4316    0.0000 C   0  0  0  0  0  0  0  0  0  0  0  0
    6.6698    4.7272    0.0000 C   0  0  0  0  0  0  0  0  0  0  0  0
    7.2575    5.5362    0.0000 C   0  0  0  0  0  0  0  0  0  0  0  0
    6.8508    6.4497    0.0000 C   0  0  0  0  0  0  0  0  0  0  0  0
    6.4915   -3.4332    0.0000 H   0  0  0  0  0  0  0  0  0  0  0  0
    6.2589   -5.6457    0.0000 H   0  0  0  0  0  0  0  0  0  0  0  0
    5.9204   -3.1087    0.0000 H   0  0  0  0  0  0  0  0  0  0  0  0
    5.1088   -3.2812    0.0000 H   0  0  0  0  0  0  0  0  0  0  0  0
    4.8749   -5.5069    0.0000 H   0  0  0  0  0  0  0  0  0  0  0  0
    5.6328   -5.8444    0.0000 H   0  0  0  0  0  0  0  0  0  0  0  0
    7.6020   -4.1349    0.0000 H   0  0  0  0  0  0  0  0  0  0  0  0
    8.0005   -3.4447    0.0000 H   0  0  0  0  0  0  0  0  0  0  0  0
    4.1989   -4.8506    0.0000 H   0  0  0  0  0  0  0  0  0  0  0  0
    5.9134   -1.9447    0.0000 H   0  0  0  0  0  0  0  0  0  0  0  0
    6.3119   -2.6349    0.0000 H   0  0  0  0  0  0  0  0  0  0  0  0
    8.4680   -2.6349    0.0000 H   0  0  0  0  0  0  0  0  0  0  0  0
    8.8666   -1.9447    0.0000 H   0  0  0  0  0  0  0  0  0  0  0  0
    7.9269   -0.2423    0.0000 H   0  0  0  0  0  0  0  0  0  0  0  0
    6.3119   -0.4697    0.0000 H   0  0  0  0  0  0  0  0  0  0  0  0
    5.9134   -1.1600    0.0000 H   0  0  0  0  0  0  0  0  0  0  0  0
    8.8666   -1.1600    0.0000 H   0  0  0  0  0  0  0  0  0  0  0  0
    8.4680   -0.4697    0.0000 H   0  0  0  0  0  0  0  0  0  0  0  0
    3.6997   -2.2049    0.0000 H   0  0  0  0  0  0  0  0  0  0  0  0
    2.8811   -1.8907    0.0000 H   0  0  0  0  0  0  0  0  0  0  0  0
    2.5669   -2.7093    0.0000 H   0  0  0  0  0  0  0  0  0  0  0  0
    2.3743   -3.2110    0.0000 H   0  0  0  0  0  0  0  0  0  0  0  0
    2.0600   -4.0296    0.0000 H   0  0  0  0  0  0  0  0  0  0  0  0
    2.8786   -4.3438    0.0000 H   0  0  0  0  0  0  0  0  0  0  0  0
    4.7057   -3.5303    0.0000 H   0  0  0  0  0  0  0  0  0  0  0  0
    5.0199   -2.7118    0.0000 H   0  0  0  0  0  0  0  0  0  0  0  0
    4.2014   -2.3975    0.0000 H   0  0  0  0  0  0  0  0  0  0  0  0
    8.2425   -4.8005    0.0000 H   0  0  0  0  0  0  0  0  0  0  0  0
    6.3650   -6.8857    0.0000 H   0  0  0  0  0  0  0  0  0  0  0  0
    8.7886    0.8439    0.0000 H   0  0  0  0  0  0  0  0  0  0  0  0
    7.5689   -7.9697    0.0000 H   0  0  0  0  0  0  0  0  0  0  0  0
    2.0000   -5.4903    0.0000 H   0  0  0  0  0  0  0  0  0  0  0  0
    9.1096   -7.4691    0.0000 H   0  0  0  0  0  0  0  0  0  0  0  0
    5.1413    0.3447    0.0000 H   0  0  0  0  0  0  0  0  0  0  0  0
    5.9210    0.1790    0.0000 H   0  0  0  0  0  0  0  0  0  0  0  0
    8.9084    2.3495    0.0000 H   0  0  0  0  0  0  0  0  0  0  0  0
    8.9918    3.1422    0.0000 H   0  0  0  0  0  0  0  0  0  0  0  0
    5.3016    1.8563    0.0000 H   0  0  0  0  0  0  0  0  0  0  0  0
    4.4260    1.8104    0.0000 H   0  0  0  0  0  0  0  0  0  0  0  0
    4.4719    0.9348    0.0000 H   0  0  0  0  0  0  0  0  0  0  0  0
    9.2754    4.4533    0.0000 H   0  0  0  0  0  0  0  0  0  0  0  0
    6.7121    3.3120    0.0000 H   0  0  0  0  0  0  0  0  0  0  0  0
    8.6165    5.9332    0.0000 H   0  0  0  0  0  0  0  0  0  0  0  0
    6.0531    4.7920    0.0000 H   0  0  0  0  0  0  0  0  0  0  0  0
  1 30  1  0  0  0  0
  2 22  1  0  0  0  0
  2 75  1  0  0  0  0
  3 22  2  0  0  0  0
  4 11  1  0  0  0  0
  4 12  1  0  0  0  0
  4 14  1  0  0  0  0
  5 13  1  0  0  0  0
  5 17  1  0  0  0  0
  5 18  1  0  0  0  0
  6  7  1  0  0  0  0
  6 26  1  0  0  0  0
  6 34  1  0  0  0  0
  7 33  2  0  0  0  0
  8 43  3  0  0  0  0
  9 10  1  0  0  0  0
  9 11  1  0  0  0  0
  9 13  1  6  0  0  0
  9 44  1  0  0  0  0
 10 12  1  0  0  0  0
 10 16  1  1  0  0  0
 10 45  1  0  0  0  0
 11 46  1  0  0  0  0
 11 47  1  0  0  0  0
 12 48  1  0  0  0  0
 12 49  1  0  0  0  0
 13 50  1  0  0  0  0
 13 51  1  0  0  0  0
 14 15  1  0  0  0  0
 14 22  1  1  0  0  0
 14 52  1  0  0  0  0
 15 23  1  0  0  0  0
 15 24  1  0  0  0  0
 15 25  1  0  0  0  0
 16 27  2  0  0  0  0
 16 28  1  0  0  0  0
 17 20  1  0  0  0  0
 17 53  1  0  0  0  0
 17 54  1  0  0  0  0
 18 21  1  0  0  0  0
 18 55  1  0  0  0  0
 18 56  1  0  0  0  0
 19 20  1  0  0  0  0
 19 21  1  0  0  0  0
 19 26  1  0  0  0  0
 19 57  1  0  0  0  0
 20 58  1  0  0  0  0
 20 59  1  0  0  0  0
 21 60  1  0  0  0  0
 21 61  1  0  0  0  0
 23 62  1  0  0  0  0
 23 63  1  0  0  0  0
 23 64  1  0  0  0  0
 24 65  1  0  0  0  0
 24 66  1  0  0  0  0
 24 67  1  0  0  0  0
 25 68  1  0  0  0  0
 25 69  1  0  0  0  0
 25 70  1  0  0  0  0
 26 29  2  0  0  0  0
 27 30  1  0  0  0  0
 27 71  1  0  0  0  0
 28 31  2  0  0  0  0
 28 72  1  0  0  0  0
 29 33  1  0  0  0  0
 29 73  1  0  0  0  0
 30 32  2  0  0  0  0
 31 32  1  0  0  0  0
 31 74  1  0  0  0  0
 32 76  1  0  0  0  0
 33 35  1  0  0  0  0
 34 36  1  0  0  0  0
 34 77  1  0  0  0  0
 34 78  1  0  0  0  0
 35 37  1  0  0  0  0
 35 79  1  0  0  0  0
 35 80  1  0  0  0  0
 36 81  1  0  0  0  0
 36 82  1  0  0  0  0
 36 83  1  0  0  0  0
 37 38  2  0  0  0  0
 37 39  1  0  0  0  0
 38 40  1  0  0  0  0
 38 84  1  0  0  0  0
 39 41  2  0  0  0  0
 39 85  1  0  0  0  0
 40 42  2  0  0  0  0
 40 86  1  0  0  0  0
 41 42  1  0  0  0  0
 41 87  1  0  0  0  0
 42 43  1  0  0  0  0
M  END
> <PUBCHEM_COMPOUND_CID>
516264
> <PUBCHEM_COMPOUND_CANONICALIZED>
1
> <PUBCHEM_CACTVS_COMPLEXITY>
963
> <PUBCHEM_CACTVS_HBOND_ACCEPTOR>
7
> <PUBCHEM_CACTVS_HBOND_DONOR>
1
> <PUBCHEM_CACTVS_ROTATABLE_BOND>
10
> <PUBCHEM_CACTVS_SUBSKEYS>
AAADcfB/sQAAAAAAAAAAAAAAAAAAAWLAAAA8YIAAAAAAAAAB0AAAHwAICAAADyjBngwyiJMIAgC6ByTyTACyBAAhggAY2CG4ZJgKoDLA0fGE5AhkiADYyA8QgMAPwAAAAAAAAACAAAAAAAAAAAAAAAAAAA==
> <PUBCHEM_IUPAC_OPENEYE_NAME>
(2R)-2-[(3S,4S)-3-[[4-[5-[(4-cyanophenyl)methyl]-2-ethyl-pyrazol-3-yl]-1-piperidyl]methyl]-4-(3-fluorophenyl)pyrrolidin-1-yl]-3,3-dimethyl-butanoic acid
> <PUBCHEM_IUPAC_CAS_NAME>
(2R)-2-[(3S,4S)-3-[[4-[5-[(4-cyanophenyl)methyl]-2-ethyl-3-pyrazolyl]-1-piperidinyl]methyl]-4-(3-fluorophenyl)-1-pyrrolidinyl]-3,3-dimethylbutanoic acid
> <PUBCHEM_IUPAC_NAME_MARKUP>
(2<I>R</I>)-2-[(3<I>S</I>,4<I>S</I>)-3-[[4-[5-[(4-cyanophenyl)methyl]-2-ethylpyrazol-3-yl]piperidin-1-yl]methyl]-4-(3-fluorophenyl)pyrrolidin-1-yl]-3,3-dimethylbutanoic acid
> <PUBCHEM_IUPAC_NAME>
(2R)-2-[(3S,4S)-3-[[4-[5-[(4-cyanophenyl)methyl]-2-ethylpyrazol-3-yl]piperidin-1-yl]methyl]-4-(3-fluorophenyl)pyrrolidin-1-yl]-3,3-dimethylbutanoic acid
> <PUBCHEM_IUPAC_SYSTEMATIC_NAME>
(2R)-2-[(3S,4S)-3-[[4-[5-[(4-cyanophenyl)methyl]-2-ethyl-pyrazol-3-yl]piperidin-1-yl]methyl]-4-(3-fluorophenyl)pyrrolidin-1-yl]-3,3-dimethyl-butanoic acid
> <PUBCHEM_IUPAC_TRADITIONAL_NAME>
(2R)-2-[(3S,4S)-3-[[4-[5-(4-cyanobenzyl)-2-ethyl-pyrazol-3-yl]piperidino]methyl]-4-(3-fluorophenyl)pyrrolidino]-3,3-dimethyl-butyric acid
> <PUBCHEM_IUPAC_INCHI>
InChI=1S/C35H44FN5O2/c1-5-41-32(19-30(38-41)17-24-9-11-25(20-37)12-10-24)26-13-15-39(16-14-26)21-28-22-40(33(34(42)43)35(2,3)4)23-31(28)27-7-6-8-29(36)18-27/h6-12,18-19,26,28,31,33H,5,13-17,21-23H2,1-4H3,(H,42,43)/t28-,31+,33-/m0/s1
> <PUBCHEM_IUPAC_INCHIKEY>
OLUONKODHNDKJM-HQRWHSCBSA-N
> <PUBCHEM_XLOGP3_AA>
3.8
> <PUBCHEM_EXACT_MASS>
585.34790383
> <PUBCHEM_MOLECULAR_FORMULA>
C35H44FN5O2
> <PUBCHEM_MOLECULAR_WEIGHT>
585.8
> <PUBCHEM_OPENEYE_CAN_SMILES>
CCN1C(=CC(=N1)CC2=CC=C(C=C2)C#N)C3CCN(CC3)CC4CN(CC4C5=CC(=CC=C5)F)C(C(=O)O)C(C)(C)C
> <PUBCHEM_OPENEYE_ISO_SMILES>
CCN1C(=CC(=N1)CC2=CC=C(C=C2)C#N)C3CCN(CC3)C[C@H]4CN(C[C@@H]4C5=CC(=CC=C5)F)[C@@H](C(=O)O)C(C)(C)C
> <PUBCHEM_CACTVS_TPSA>
85.4
> <PUBCHEM_MONOISOTOPIC_WEIGHT>
585.34790383
> <PUBCHEM_TOTAL_CHARGE>
0
> <PUBCHEM_HEAVY_ATOM_COUNT>
43
> <PUBCHEM_ATOM_DEF_STEREO_COUNT>
3
> <PUBCHEM_ATOM_UDEF_STEREO_COUNT>
0
> <PUBCHEM_BOND_DEF_STEREO_COUNT>
0
> <PUBCHEM_BOND_UDEF_STEREO_COUNT>
0
> <PUBCHEM_ISOTOPIC_ATOM_COUNT>
0
> <PUBCHEM_COMPONENT_COUNT>
1
> <PUBCHEM_CACTVS_TAUTO_COUNT>
-1
> <PUBCHEM_COORDINATE_TYPE>
1
5
255
> <PUBCHEM_BONDANNOTATIONS>
10  16  5
14  22  5
16  27  8
16  28  8
26  29  8
27  30  8
28  31  8
29  33  8
30  32  8
31  32  8
37  38  8
37  39  8
38  40  8
39  41  8
40  42  8
41  42  8
6  26  8
6  7  8
7  33  8
9  13  6
$$$$
