516221
  -OEChem-10302200282D
 97102  0     1  0  0  0  0  0999 V2000
    7.7132   -8.6614    0.0000 F   0  0  0  0  0  0  0  0  0  0  0  0
    2.7688   -3.5861    0.0000 O   0  0  0  0  0  0  0  0  0  0  0  0
    4.3511   -2.8816    0.0000 O   0  0  0  0  0  0  0  0  0  0  0  0
    7.0742    6.1298    0.0000 O   0  0  0  0  0  0  0  0  0  0  0  0
    5.1646   -4.7087    0.0000 N   0  0  3  0  0  0  0  0  0  0  0  0
    7.6133   -2.8723    0.0000 N   0  0  0  0  0  0  0  0  0  0  0  0
    6.8043    0.7155    0.0000 N   0  0  0  0  0  0  0  0  0  0  0  0
    7.1133    1.6666    0.0000 N   0  0  0  0  0  0  0  0  0  0  0  0
    6.7473   -4.3723    0.0000 C   0  0  2  0  0  0  0  0  0  0  0  0
    6.6428   -5.3668    0.0000 C   0  0  2  0  0  0  0  0  0  0  0  0
    5.8338   -3.9655    0.0000 C   0  0  0  0  0  0  0  0  0  0  0  0
    5.6646   -5.5747    0.0000 C   0  0  0  0  0  0  0  0  0  0  0  0
    7.6133   -3.8723    0.0000 C   0  0  0  0  0  0  0  0  0  0  0  0
    4.1701   -4.6042    0.0000 C   0  0  2  0  0  0  0  0  0  0  0  0
    7.3859   -6.0359    0.0000 C   0  0  0  0  0  0  0  0  0  0  0  0
    6.7473   -2.3723    0.0000 C   0  0  0  0  0  0  0  0  0  0  0  0
    8.4793   -2.3723    0.0000 C   0  0  0  0  0  0  0  0  0  0  0  0
    7.6133   -0.8723    0.0000 C   0  0  0  0  0  0  0  0  0  0  0  0
    3.5823   -5.4132    0.0000 C   0  0  2  0  0  0  0  0  0  0  0  0
    6.7473   -1.3723    0.0000 C   0  0  0  0  0  0  0  0  0  0  0  0
    8.4793   -1.3723    0.0000 C   0  0  0  0  0  0  0  0  0  0  0  0
    3.7634   -3.6906    0.0000 C   0  0  0  0  0  0  0  0  0  0  0  0
    2.5878   -5.3086    0.0000 C   0  0  0  0  0  0  0  0  0  0  0  0
    7.6133    0.1277    0.0000 C   0  0  0  0  0  0  0  0  0  0  0  0
    7.1780   -7.0141    0.0000 C   0  0  0  0  0  0  0  0  0  0  0  0
    8.3370   -5.7269    0.0000 C   0  0  0  0  0  0  0  0  0  0  0  0
    3.9890   -6.3267    0.0000 C   0  0  0  0  0  0  0  0  0  0  0  0
    8.4223    0.7155    0.0000 C   0  0  0  0  0  0  0  0  0  0  0  0
    2.0000   -6.1177    0.0000 C   0  0  0  0  0  0  0  0  0  0  0  0
    7.9211   -7.6832    0.0000 C   0  0  0  0  0  0  0  0  0  0  0  0
    9.0801   -6.3960    0.0000 C   0  0  0  0  0  0  0  0  0  0  0  0
    8.8722   -7.3742    0.0000 C   0  0  0  0  0  0  0  0  0  0  0  0
    8.1133    1.6666    0.0000 C   0  0  0  0  0  0  0  0  0  0  0  0
    5.8532    0.4065    0.0000 C   0  0  0  0  0  0  0  0  0  0  0  0
    8.7011    2.4756    0.0000 C   0  0  0  0  0  0  0  0  0  0  0  0
    5.1101    1.0756    0.0000 C   0  0  0  0  0  0  0  0  0  0  0  0
    8.2944    3.3891    0.0000 C   0  0  0  0  0  0  0  0  0  0  0  0
    7.2998    3.4937    0.0000 C   0  0  0  0  0  0  0  0  0  0  0  0
    8.8822    4.1982    0.0000 C   0  0  0  0  0  0  0  0  0  0  0  0
    6.8931    4.4072    0.0000 C   0  0  0  0  0  0  0  0  0  0  0  0
    8.4754    5.1117    0.0000 C   0  0  0  0  0  0  0  0  0  0  0  0
    7.4809    5.2162    0.0000 C   0  0  0  0  0  0  0  0  0  0  0  0
    7.6619    6.9388    0.0000 C   0  0  0  0  0  0  0  0  0  0  0  0
    8.6565    6.8343    0.0000 C   0  0  0  0  0  0  0  0  0  0  0  0
    7.2552    7.8523    0.0000 C   0  0  0  0  0  0  0  0  0  0  0  0
    9.2442    7.6433    0.0000 C   0  0  0  0  0  0  0  0  0  0  0  0
    7.8430    8.6614    0.0000 C   0  0  0  0  0  0  0  0  0  0  0  0
    8.8375    8.5568    0.0000 C   0  0  0  0  0  0  0  0  0  0  0  0
    7.2673   -4.7100    0.0000 H   0  0  0  0  0  0  0  0  0  0  0  0
    7.2216   -5.1446    0.0000 H   0  0  0  0  0  0  0  0  0  0  0  0
    6.1437   -3.4286    0.0000 H   0  0  0  0  0  0  0  0  0  0  0  0
    5.3322   -3.6011    0.0000 H   0  0  0  0  0  0  0  0  0  0  0  0
    5.0982   -5.8269    0.0000 H   0  0  0  0  0  0  0  0  0  0  0  0
    5.8562   -6.1644    0.0000 H   0  0  0  0  0  0  0  0  0  0  0  0
    7.8254   -4.4549    0.0000 H   0  0  0  0  0  0  0  0  0  0  0  0
    8.2239   -3.7646    0.0000 H   0  0  0  0  0  0  0  0  0  0  0  0
    4.5345   -4.1026    0.0000 H   0  0  0  0  0  0  0  0  0  0  0  0
    6.1367   -2.2646    0.0000 H   0  0  0  0  0  0  0  0  0  0  0  0
    6.5352   -2.9549    0.0000 H   0  0  0  0  0  0  0  0  0  0  0  0
    8.6914   -2.9549    0.0000 H   0  0  0  0  0  0  0  0  0  0  0  0
    9.0899   -2.2646    0.0000 H   0  0  0  0  0  0  0  0  0  0  0  0
    7.0764   -0.5623    0.0000 H   0  0  0  0  0  0  0  0  0  0  0  0
    3.2179   -5.9148    0.0000 H   0  0  0  0  0  0  0  0  0  0  0  0
    6.5352   -0.7897    0.0000 H   0  0  0  0  0  0  0  0  0  0  0  0
    6.1367   -1.4799    0.0000 H   0  0  0  0  0  0  0  0  0  0  0  0
    9.0899   -1.4799    0.0000 H   0  0  0  0  0  0  0  0  0  0  0  0
    8.6914   -0.7897    0.0000 H   0  0  0  0  0  0  0  0  0  0  0  0
    2.7587   -4.7127    0.0000 H   0  0  0  0  0  0  0  0  0  0  0  0
    2.0305   -5.0368    0.0000 H   0  0  0  0  0  0  0  0  0  0  0  0
    6.5883   -7.2057    0.0000 H   0  0  0  0  0  0  0  0  0  0  0  0
    8.4659   -5.1204    0.0000 H   0  0  0  0  0  0  0  0  0  0  0  0
    3.4226   -6.5789    0.0000 H   0  0  0  0  0  0  0  0  0  0  0  0
    4.2412   -6.8931    0.0000 H   0  0  0  0  0  0  0  0  0  0  0  0
    4.5554   -6.0745    0.0000 H   0  0  0  0  0  0  0  0  0  0  0  0
    9.0120    0.5239    0.0000 H   0  0  0  0  0  0  0  0  0  0  0  0
    1.4984   -5.7532    0.0000 H   0  0  0  0  0  0  0  0  0  0  0  0
    1.6356   -6.6192    0.0000 H   0  0  0  0  0  0  0  0  0  0  0  0
    2.5016   -6.4821    0.0000 H   0  0  0  0  0  0  0  0  0  0  0  0
    9.6698   -6.2044    0.0000 H   0  0  0  0  0  0  0  0  0  0  0  0
    9.3330   -7.7890    0.0000 H   0  0  0  0  0  0  0  0  0  0  0  0
    2.5167   -3.0197    0.0000 H   0  0  0  0  0  0  0  0  0  0  0  0
    5.3647    0.0248    0.0000 H   0  0  0  0  0  0  0  0  0  0  0  0
    6.1443   -0.1409    0.0000 H   0  0  0  0  0  0  0  0  0  0  0  0
    9.1318    2.0296    0.0000 H   0  0  0  0  0  0  0  0  0  0  0  0
    9.2151    2.8223    0.0000 H   0  0  0  0  0  0  0  0  0  0  0  0
    5.5250    1.5364    0.0000 H   0  0  0  0  0  0  0  0  0  0  0  0
    4.6494    1.4905    0.0000 H   0  0  0  0  0  0  0  0  0  0  0  0
    4.6952    0.6149    0.0000 H   0  0  0  0  0  0  0  0  0  0  0  0
    6.9354    2.9921    0.0000 H   0  0  0  0  0  0  0  0  0  0  0  0
    9.4988    4.1333    0.0000 H   0  0  0  0  0  0  0  0  0  0  0  0
    6.2765    4.4720    0.0000 H   0  0  0  0  0  0  0  0  0  0  0  0
    8.8398    5.6133    0.0000 H   0  0  0  0  0  0  0  0  0  0  0  0
    8.9086    6.2679    0.0000 H   0  0  0  0  0  0  0  0  0  0  0  0
    6.6386    7.9171    0.0000 H   0  0  0  0  0  0  0  0  0  0  0  0
    9.8608    7.5785    0.0000 H   0  0  0  0  0  0  0  0  0  0  0  0
    7.5908    9.2278    0.0000 H   0  0  0  0  0  0  0  0  0  0  0  0
    9.2019    9.0584    0.0000 H   0  0  0  0  0  0  0  0  0  0  0  0
  1 30  1  0  0  0  0
  2 22  1  0  0  0  0
  2 81  1  0  0  0  0
  3 22  2  0  0  0  0
  4 42  1  0  0  0  0
  4 43  1  0  0  0  0
  5 11  1  0  0  0  0
  5 12  1  0  0  0  0
  5 14  1  0  0  0  0
  6 13  1  0  0  0  0
  6 16  1  0  0  0  0
  6 17  1  0  0  0  0
  7  8  1  0  0  0  0
  7 24  1  0  0  0  0
  7 34  1  0  0  0  0
  8 33  2  0  0  0  0
  9 10  1  0  0  0  0
  9 11  1  0  0  0  0
  9 13  1  6  0  0  0
  9 49  1  0  0  0  0
 10 12  1  0  0  0  0
 10 15  1  1  0  0  0
 10 50  1  0  0  0  0
 11 51  1  0  0  0  0
 11 52  1  0  0  0  0
 12 53  1  0  0  0  0
 12 54  1  0  0  0  0
 13 55  1  0  0  0  0
 13 56  1  0  0  0  0
 14 19  1  0  0  0  0
 14 22  1  6  0  0  0
 14 57  1  0  0  0  0
 15 25  2  0  0  0  0
 15 26  1  0  0  0  0
 16 20  1  0  0  0  0
 16 58  1  0  0  0  0
 16 59  1  0  0  0  0
 17 21  1  0  0  0  0
 17 60  1  0  0  0  0
 17 61  1  0  0  0  0
 18 20  1  0  0  0  0
 18 21  1  0  0  0  0
 18 24  1  0  0  0  0
 18 62  1  0  0  0  0
 19 23  1  0  0  0  0
 19 27  1  1  0  0  0
 19 63  1  0  0  0  0
 20 64  1  0  0  0  0
 20 65  1  0  0  0  0
 21 66  1  0  0  0  0
 21 67  1  0  0  0  0
 23 29  1  0  0  0  0
 23 68  1  0  0  0  0
 23 69  1  0  0  0  0
 24 28  2  0  0  0  0
 25 30  1  0  0  0  0
 25 70  1  0  0  0  0
 26 31  2  0  0  0  0
 26 71  1  0  0  0  0
 27 72  1  0  0  0  0
 27 73  1  0  0  0  0
 27 74  1  0  0  0  0
 28 33  1  0  0  0  0
 28 75  1  0  0  0  0
 29 76  1  0  0  0  0
 29 77  1  0  0  0  0
 29 78  1  0  0  0  0
 30 32  2  0  0  0  0
 31 32  1  0  0  0  0
 31 79  1  0  0  0  0
 32 80  1  0  0  0  0
 33 35  1  0  0  0  0
 34 36  1  0  0  0  0
 34 82  1  0  0  0  0
 34 83  1  0  0  0  0
 35 37  1  0  0  0  0
 35 84  1  0  0  0  0
 35 85  1  0  0  0  0
 36 86  1  0  0  0  0
 36 87  1  0  0  0  0
 36 88  1  0  0  0  0
 37 38  2  0  0  0  0
 37 39  1  0  0  0  0
 38 40  1  0  0  0  0
 38 89  1  0  0  0  0
 39 41  2  0  0  0  0
 39 90  1  0  0  0  0
 40 42  2  0  0  0  0
 40 91  1  0  0  0  0
 41 42  1  0  0  0  0
 41 92  1  0  0  0  0
 43 44  2  0  0  0  0
 43 45  1  0  0  0  0
 44 46  1  0  0  0  0
 44 93  1  0  0  0  0
 45 47  2  0  0  0  0
 45 94  1  0  0  0  0
 46 48  2  0  0  0  0
 46 95  1  0  0  0  0
 47 48  1  0  0  0  0
 47 96  1  0  0  0  0
 48 97  1  0  0  0  0
M  END
> <PUBCHEM_COMPOUND_CID>
516221
> <PUBCHEM_COMPOUND_CANONICALIZED>
1
> <PUBCHEM_CACTVS_COMPLEXITY>
982
> <PUBCHEM_CACTVS_HBOND_ACCEPTOR>
7
> <PUBCHEM_CACTVS_HBOND_DONOR>
1
> <PUBCHEM_CACTVS_ROTATABLE_BOND>
13
> <PUBCHEM_CACTVS_SUBSKEYS>
AAADcfB/sQAAAAAAAAAAAAAAAAAAAWLAAAA8YMEAAAAAAAAB1AAAHwAICAAADSzBngwyjpMIBgCqAyTyTACSDAAhogAY2CG+bJgOJjLE8fuG/CjkyBHY6AeYwOAOoAAAAAAAAABAAAAAAAAAAAAAAAAAAA==
> <PUBCHEM_IUPAC_OPENEYE_NAME>
(2R,3S)-2-[(3S,4S)-3-[[4-[2-ethyl-5-[(4-phenoxyphenyl)methyl]pyrazol-3-yl]-1-piperidyl]methyl]-4-(3-fluorophenyl)pyrrolidin-1-yl]-3-methyl-pentanoic acid
> <PUBCHEM_IUPAC_CAS_NAME>
(2R,3S)-2-[(3S,4S)-3-[[4-[2-ethyl-5-[(4-phenoxyphenyl)methyl]-3-pyrazolyl]-1-piperidinyl]methyl]-4-(3-fluorophenyl)-1-pyrrolidinyl]-3-methylpentanoic acid
> <PUBCHEM_IUPAC_NAME_MARKUP>
(2<I>R</I>,3<I>S</I>)-2-[(3<I>S</I>,4<I>S</I>)-3-[[4-[2-ethyl-5-[(4-phenoxyphenyl)methyl]pyrazol-3-yl]piperidin-1-yl]methyl]-4-(3-fluorophenyl)pyrrolidin-1-yl]-3-methylpentanoic acid
> <PUBCHEM_IUPAC_NAME>
(2R,3S)-2-[(3S,4S)-3-[[4-[2-ethyl-5-[(4-phenoxyphenyl)methyl]pyrazol-3-yl]piperidin-1-yl]methyl]-4-(3-fluorophenyl)pyrrolidin-1-yl]-3-methylpentanoic acid
> <PUBCHEM_IUPAC_SYSTEMATIC_NAME>
(2R,3S)-2-[(3S,4S)-3-[[4-[2-ethyl-5-[(4-phenoxyphenyl)methyl]pyrazol-3-yl]piperidin-1-yl]methyl]-4-(3-fluorophenyl)pyrrolidin-1-yl]-3-methyl-pentanoic acid
> <PUBCHEM_IUPAC_TRADITIONAL_NAME>
(2R,3S)-2-[(3S,4S)-3-[[4-[2-ethyl-5-(4-phenoxybenzyl)pyrazol-3-yl]piperidino]methyl]-4-(3-fluorophenyl)pyrrolidino]-3-methyl-valeric acid
> <PUBCHEM_IUPAC_INCHI>
InChI=1S/C40H49FN4O3/c1-4-28(3)39(40(46)47)44-26-32(37(27-44)31-10-9-11-33(41)23-31)25-43-20-18-30(19-21-43)38-24-34(42-45(38)5-2)22-29-14-16-36(17-15-29)48-35-12-7-6-8-13-35/h6-17,23-24,28,30,32,37,39H,4-5,18-22,25-27H2,1-3H3,(H,46,47)/t28-,32-,37+,39+/m0/s1
> <PUBCHEM_IUPAC_INCHIKEY>
KXMSNVZBMZCZNF-CRJIABDTSA-N
> <PUBCHEM_XLOGP3_AA>
5.6
> <PUBCHEM_EXACT_MASS>
652.37886960
> <PUBCHEM_MOLECULAR_FORMULA>
C40H49FN4O3
> <PUBCHEM_MOLECULAR_WEIGHT>
652.8
> <PUBCHEM_OPENEYE_CAN_SMILES>
CCC(C)C(C(=O)O)N1CC(C(C1)C2=CC(=CC=C2)F)CN3CCC(CC3)C4=CC(=NN4CC)CC5=CC=C(C=C5)OC6=CC=CC=C6
> <PUBCHEM_OPENEYE_ISO_SMILES>
CC[C@H](C)[C@H](C(=O)O)N1C[C@@H]([C@H](C1)C2=CC(=CC=C2)F)CN3CCC(CC3)C4=CC(=NN4CC)CC5=CC=C(C=C5)OC6=CC=CC=C6
> <PUBCHEM_CACTVS_TPSA>
70.8
> <PUBCHEM_MONOISOTOPIC_WEIGHT>
652.37886960
> <PUBCHEM_TOTAL_CHARGE>
0
> <PUBCHEM_HEAVY_ATOM_COUNT>
48
> <PUBCHEM_ATOM_DEF_STEREO_COUNT>
4
> <PUBCHEM_ATOM_UDEF_STEREO_COUNT>
0
> <PUBCHEM_BOND_DEF_STEREO_COUNT>
0
> <PUBCHEM_BOND_UDEF_STEREO_COUNT>
0
> <PUBCHEM_ISOTOPIC_ATOM_COUNT>
0
> <PUBCHEM_COMPONENT_COUNT>
1
> <PUBCHEM_CACTVS_TAUTO_COUNT>
-1
> <PUBCHEM_COORDINATE_TYPE>
1
5
255
> <PUBCHEM_BONDANNOTATIONS>
10  15  5
14  22  6
15  25  8
15  26  8
19  27  5
24  28  8
25  30  8
26  31  8
28  33  8
30  32  8
31  32  8
37  38  8
37  39  8
38  40  8
39  41  8
40  42  8
41  42  8
43  44  8
43  45  8
44  46  8
45  47  8
46  48  8
47  48  8
7  24  8
7  8  8
8  33  8
9  13  6
$$$$
