516254
  -OEChem-10302200282D
 94 98  0     1  0  0  0  0  0999 V2000
   12.9747   -2.8509    0.0000 F   0  0  0  0  0  0  0  0  0  0  0  0
   11.2466    4.6331    0.0000 O   0  0  0  0  0  0  0  0  0  0  0  0
   10.3806    3.1331    0.0000 O   0  0  0  0  0  0  0  0  0  0  0  0
    2.8660   -3.6331    0.0000 O   0  0  0  0  0  0  0  0  0  0  0  0
    4.5981   -4.6331    0.0000 O   0  0  0  0  0  0  0  0  0  0  0  0
   12.1127    2.1331    0.0000 N   0  0  3  0  0  0  0  0  0  0  0  0
   10.0303   -0.1103    0.0000 N   0  0  0  0  0  0  0  0  0  0  0  0
    6.5468    1.0694    0.0000 N   0  0  0  0  0  0  0  0  0  0  0  0
    5.5686    0.8614    0.0000 N   0  0  0  0  0  0  0  0  0  0  0  0
   11.6127    0.5942    0.0000 C   0  0  2  0  0  0  0  0  0  0  0  0
   12.6127    0.5942    0.0000 C   0  0  2  0  0  0  0  0  0  0  0  0
   11.3036    1.5453    0.0000 C   0  0  0  0  0  0  0  0  0  0  0  0
   12.9217    1.5453    0.0000 C   0  0  0  0  0  0  0  0  0  0  0  0
   11.0249   -0.2148    0.0000 C   0  0  0  0  0  0  0  0  0  0  0  0
   12.1127    3.1331    0.0000 C   0  0  2  0  0  0  0  0  0  0  0  0
   13.2004   -0.2148    0.0000 C   0  0  0  0  0  0  0  0  0  0  0  0
    9.6236    0.8033    0.0000 C   0  0  0  0  0  0  0  0  0  0  0  0
    9.4426   -0.9193    0.0000 C   0  0  0  0  0  0  0  0  0  0  0  0
    8.0413    0.0988    0.0000 C   0  0  0  0  0  0  0  0  0  0  0  0
   12.9787    3.6331    0.0000 C   0  0  1  0  0  0  0  0  0  0  0  0
    8.6291    0.9078    0.0000 C   0  0  0  0  0  0  0  0  0  0  0  0
    8.4480   -0.8147    0.0000 C   0  0  0  0  0  0  0  0  0  0  0  0
   11.2466    3.6331    0.0000 C   0  0  0  0  0  0  0  0  0  0  0  0
   12.9787    4.6331    0.0000 C   0  0  0  0  0  0  0  0  0  0  0  0
    7.0468    0.2033    0.0000 C   0  0  0  0  0  0  0  0  0  0  0  0
   12.7937   -1.1283    0.0000 C   0  0  0  0  0  0  0  0  0  0  0  0
   14.1950   -0.1103    0.0000 C   0  0  0  0  0  0  0  0  0  0  0  0
   13.8447    3.1331    0.0000 C   0  0  0  0  0  0  0  0  0  0  0  0
    6.3776   -0.5398    0.0000 C   0  0  0  0  0  0  0  0  0  0  0  0
   13.8447    5.1331    0.0000 C   0  0  0  0  0  0  0  0  0  0  0  0
   13.3815   -1.9373    0.0000 C   0  0  0  0  0  0  0  0  0  0  0  0
   14.7827   -0.9193    0.0000 C   0  0  0  0  0  0  0  0  0  0  0  0
   14.3760   -1.8328    0.0000 C   0  0  0  0  0  0  0  0  0  0  0  0
    5.4641   -0.1331    0.0000 C   0  0  0  0  0  0  0  0  0  0  0  0
    6.9535    1.9829    0.0000 C   0  0  0  0  0  0  0  0  0  0  0  0
    4.5981   -0.6331    0.0000 C   0  0  0  0  0  0  0  0  0  0  0  0
    6.3657    2.7919    0.0000 C   0  0  0  0  0  0  0  0  0  0  0  0
    4.5981   -1.6331    0.0000 C   0  0  0  0  0  0  0  0  0  0  0  0
    3.7320   -2.1331    0.0000 C   0  0  0  0  0  0  0  0  0  0  0  0
    5.4641   -2.1331    0.0000 C   0  0  0  0  0  0  0  0  0  0  0  0
    3.7320   -3.1331    0.0000 C   0  0  0  0  0  0  0  0  0  0  0  0
    5.4641   -3.1331    0.0000 C   0  0  0  0  0  0  0  0  0  0  0  0
    4.5981   -3.6331    0.0000 C   0  0  0  0  0  0  0  0  0  0  0  0
    2.0000   -3.1331    0.0000 C   0  0  0  0  0  0  0  0  0  0  0  0
    5.4641   -5.1331    0.0000 C   0  0  0  0  0  0  0  0  0  0  0  0
   11.8941    0.0418    0.0000 H   0  0  0  0  0  0  0  0  0  0  0  0
   13.2250    0.6912    0.0000 H   0  0  0  0  0  0  0  0  0  0  0  0
   10.9936    2.0822    0.0000 H   0  0  0  0  0  0  0  0  0  0  0  0
   10.7372    1.2931    0.0000 H   0  0  0  0  0  0  0  0  0  0  0  0
   13.4881    1.2931    0.0000 H   0  0  0  0  0  0  0  0  0  0  0  0
   13.2317    2.0822    0.0000 H   0  0  0  0  0  0  0  0  0  0  0  0
   10.8540   -0.8108    0.0000 H   0  0  0  0  0  0  0  0  0  0  0  0
   11.5821   -0.4866    0.0000 H   0  0  0  0  0  0  0  0  0  0  0  0
   11.5757    2.8231    0.0000 H   0  0  0  0  0  0  0  0  0  0  0  0
   10.2252    0.9533    0.0000 H   0  0  0  0  0  0  0  0  0  0  0  0
    9.5804    1.4218    0.0000 H   0  0  0  0  0  0  0  0  0  0  0  0
    9.2717   -1.5152    0.0000 H   0  0  0  0  0  0  0  0  0  0  0  0
    9.9998   -1.1911    0.0000 H   0  0  0  0  0  0  0  0  0  0  0  0
    7.6769   -0.4028    0.0000 H   0  0  0  0  0  0  0  0  0  0  0  0
   12.9787    3.0131    0.0000 H   0  0  0  0  0  0  0  0  0  0  0  0
    8.8000    1.5038    0.0000 H   0  0  0  0  0  0  0  0  0  0  0  0
    8.0718    1.1796    0.0000 H   0  0  0  0  0  0  0  0  0  0  0  0
    7.8464   -0.9647    0.0000 H   0  0  0  0  0  0  0  0  0  0  0  0
    8.4913   -1.4332    0.0000 H   0  0  0  0  0  0  0  0  0  0  0  0
   12.7666    5.2157    0.0000 H   0  0  0  0  0  0  0  0  0  0  0  0
   12.3681    4.5254    0.0000 H   0  0  0  0  0  0  0  0  0  0  0  0
   12.1771   -1.1931    0.0000 H   0  0  0  0  0  0  0  0  0  0  0  0
   14.4471    0.4561    0.0000 H   0  0  0  0  0  0  0  0  0  0  0  0
   13.5347    2.5961    0.0000 H   0  0  0  0  0  0  0  0  0  0  0  0
   14.3816    2.8231    0.0000 H   0  0  0  0  0  0  0  0  0  0  0  0
   14.1547    3.6700    0.0000 H   0  0  0  0  0  0  0  0  0  0  0  0
    6.5066   -1.1463    0.0000 H   0  0  0  0  0  0  0  0  0  0  0  0
   14.1547    4.5961    0.0000 H   0  0  0  0  0  0  0  0  0  0  0  0
   14.3816    5.4431    0.0000 H   0  0  0  0  0  0  0  0  0  0  0  0
   13.5347    5.6700    0.0000 H   0  0  0  0  0  0  0  0  0  0  0  0
   15.3993   -0.8545    0.0000 H   0  0  0  0  0  0  0  0  0  0  0  0
   14.7404   -2.3344    0.0000 H   0  0  0  0  0  0  0  0  0  0  0  0
   10.7097    4.9431    0.0000 H   0  0  0  0  0  0  0  0  0  0  0  0
    7.4675    1.6362    0.0000 H   0  0  0  0  0  0  0  0  0  0  0  0
    7.3842    2.4289    0.0000 H   0  0  0  0  0  0  0  0  0  0  0  0
    4.3860   -0.0505    0.0000 H   0  0  0  0  0  0  0  0  0  0  0  0
    3.9875   -0.7407    0.0000 H   0  0  0  0  0  0  0  0  0  0  0  0
    6.8673    3.1564    0.0000 H   0  0  0  0  0  0  0  0  0  0  0  0
    6.0013    3.2935    0.0000 H   0  0  0  0  0  0  0  0  0  0  0  0
    5.8641    2.4275    0.0000 H   0  0  0  0  0  0  0  0  0  0  0  0
    3.1951   -1.8231    0.0000 H   0  0  0  0  0  0  0  0  0  0  0  0
    6.0010   -1.8231    0.0000 H   0  0  0  0  0  0  0  0  0  0  0  0
    6.0010   -3.4431    0.0000 H   0  0  0  0  0  0  0  0  0  0  0  0
    2.3100   -2.5961    0.0000 H   0  0  0  0  0  0  0  0  0  0  0  0
    1.4631   -2.8231    0.0000 H   0  0  0  0  0  0  0  0  0  0  0  0
    1.6900   -3.6700    0.0000 H   0  0  0  0  0  0  0  0  0  0  0  0
    5.1541   -5.6700    0.0000 H   0  0  0  0  0  0  0  0  0  0  0  0
    6.0010   -5.4431    0.0000 H   0  0  0  0  0  0  0  0  0  0  0  0
    5.7741   -4.5961    0.0000 H   0  0  0  0  0  0  0  0  0  0  0  0
  1 31  1  0  0  0  0
  2 23  1  0  0  0  0
  2 78  1  0  0  0  0
  3 23  2  0  0  0  0
  4 41  1  0  0  0  0
  4 44  1  0  0  0  0
  5 43  1  0  0  0  0
  5 45  1  0  0  0  0
  6 12  1  0  0  0  0
  6 13  1  0  0  0  0
  6 15  1  0  0  0  0
  7 14  1  0  0  0  0
  7 17  1  0  0  0  0
  7 18  1  0  0  0  0
  8  9  1  0  0  0  0
  8 25  1  0  0  0  0
  8 35  1  0  0  0  0
  9 34  2  0  0  0  0
 10 11  1  0  0  0  0
 10 12  1  0  0  0  0
 10 14  1  1  0  0  0
 10 46  1  0  0  0  0
 11 13  1  0  0  0  0
 11 16  1  6  0  0  0
 11 47  1  0  0  0  0
 12 48  1  0  0  0  0
 12 49  1  0  0  0  0
 13 50  1  0  0  0  0
 13 51  1  0  0  0  0
 14 52  1  0  0  0  0
 14 53  1  0  0  0  0
 15 20  1  0  0  0  0
 15 23  1  1  0  0  0
 15 54  1  0  0  0  0
 16 26  2  0  0  0  0
 16 27  1  0  0  0  0
 17 21  1  0  0  0  0
 17 55  1  0  0  0  0
 17 56  1  0  0  0  0
 18 22  1  0  0  0  0
 18 57  1  0  0  0  0
 18 58  1  0  0  0  0
 19 21  1  0  0  0  0
 19 22  1  0  0  0  0
 19 25  1  0  0  0  0
 19 59  1  0  0  0  0
 20 24  1  0  0  0  0
 20 28  1  1  0  0  0
 20 60  1  0  0  0  0
 21 61  1  0  0  0  0
 21 62  1  0  0  0  0
 22 63  1  0  0  0  0
 22 64  1  0  0  0  0
 24 30  1  0  0  0  0
 24 65  1  0  0  0  0
 24 66  1  0  0  0  0
 25 29  2  0  0  0  0
 26 31  1  0  0  0  0
 26 67  1  0  0  0  0
 27 32  2  0  0  0  0
 27 68  1  0  0  0  0
 28 69  1  0  0  0  0
 28 70  1  0  0  0  0
 28 71  1  0  0  0  0
 29 34  1  0  0  0  0
 29 72  1  0  0  0  0
 30 73  1  0  0  0  0
 30 74  1  0  0  0  0
 30 75  1  0  0  0  0
 31 33  2  0  0  0  0
 32 33  1  0  0  0  0
 32 76  1  0  0  0  0
 33 77  1  0  0  0  0
 34 36  1  0  0  0  0
 35 37  1  0  0  0  0
 35 79  1  0  0  0  0
 35 80  1  0  0  0  0
 36 38  1  0  0  0  0
 36 81  1  0  0  0  0
 36 82  1  0  0  0  0
 37 83  1  0  0  0  0
 37 84  1  0  0  0  0
 37 85  1  0  0  0  0
 38 39  2  0  0  0  0
 38 40  1  0  0  0  0
 39 41  1  0  0  0  0
 39 86  1  0  0  0  0
 40 42  2  0  0  0  0
 40 87  1  0  0  0  0
 41 43  2  0  0  0  0
 42 43  1  0  0  0  0
 42 88  1  0  0  0  0
 44 89  1  0  0  0  0
 44 90  1  0  0  0  0
 44 91  1  0  0  0  0
 45 92  1  0  0  0  0
 45 93  1  0  0  0  0
 45 94  1  0  0  0  0
M  END
> <PUBCHEM_COMPOUND_CID>
516254
> <PUBCHEM_COMPOUND_CANONICALIZED>
1
> <PUBCHEM_CACTVS_COMPLEXITY>
922
> <PUBCHEM_CACTVS_HBOND_ACCEPTOR>
8
> <PUBCHEM_CACTVS_HBOND_DONOR>
1
> <PUBCHEM_CACTVS_ROTATABLE_BOND>
13
> <PUBCHEM_CACTVS_SUBSKEYS>
AAADcfB/uQAAAAAAAAAAAAAAAAAAAWLAAAA8YIAAAAAAAAAB0AAAHwAICAAADSzBng4yjpMIBgCqAyTyTACSDAAhogAY2CG+7JgPJjLE8fuE9CpkyBHa6AeY0PEOoAABAAAAQABAAAIAAACAAAAAAAAAAA==
> <PUBCHEM_IUPAC_OPENEYE_NAME>
(2R,3R)-2-[(3S,4S)-3-[[4-[5-[(3,4-dimethoxyphenyl)methyl]-2-ethyl-pyrazol-3-yl]-1-piperidyl]methyl]-4-(3-fluorophenyl)pyrrolidin-1-yl]-3-methyl-pentanoic acid
> <PUBCHEM_IUPAC_CAS_NAME>
(2R,3R)-2-[(3S,4S)-3-[[4-[5-[(3,4-dimethoxyphenyl)methyl]-2-ethyl-3-pyrazolyl]-1-piperidinyl]methyl]-4-(3-fluorophenyl)-1-pyrrolidinyl]-3-methylpentanoic acid
> <PUBCHEM_IUPAC_NAME_MARKUP>
(2<I>R</I>,3<I>R</I>)-2-[(3<I>S</I>,4<I>S</I>)-3-[[4-[5-[(3,4-dimethoxyphenyl)methyl]-2-ethylpyrazol-3-yl]piperidin-1-yl]methyl]-4-(3-fluorophenyl)pyrrolidin-1-yl]-3-methylpentanoic acid
> <PUBCHEM_IUPAC_NAME>
(2R,3R)-2-[(3S,4S)-3-[[4-[5-[(3,4-dimethoxyphenyl)methyl]-2-ethylpyrazol-3-yl]piperidin-1-yl]methyl]-4-(3-fluorophenyl)pyrrolidin-1-yl]-3-methylpentanoic acid
> <PUBCHEM_IUPAC_SYSTEMATIC_NAME>
(2R,3R)-2-[(3S,4S)-3-[[4-[5-[(3,4-dimethoxyphenyl)methyl]-2-ethyl-pyrazol-3-yl]piperidin-1-yl]methyl]-4-(3-fluorophenyl)pyrrolidin-1-yl]-3-methyl-pentanoic acid
> <PUBCHEM_IUPAC_TRADITIONAL_NAME>
(2R,3R)-2-[(3S,4S)-3-[[4-(2-ethyl-5-veratryl-pyrazol-3-yl)piperidino]methyl]-4-(3-fluorophenyl)pyrrolidino]-3-methyl-valeric acid
> <PUBCHEM_IUPAC_INCHI>
InChI=1S/C36H49FN4O4/c1-6-24(3)35(36(42)43)40-22-28(31(23-40)27-9-8-10-29(37)19-27)21-39-15-13-26(14-16-39)32-20-30(38-41(32)7-2)17-25-11-12-33(44-4)34(18-25)45-5/h8-12,18-20,24,26,28,31,35H,6-7,13-17,21-23H2,1-5H3,(H,42,43)/t24-,28+,31-,35-/m1/s1
> <PUBCHEM_IUPAC_INCHIKEY>
RJVRDLDDCGQDGE-PBFQYQTBSA-N
> <PUBCHEM_XLOGP3_AA>
4
> <PUBCHEM_EXACT_MASS>
620.37378422
> <PUBCHEM_MOLECULAR_FORMULA>
C36H49FN4O4
> <PUBCHEM_MOLECULAR_WEIGHT>
620.8
> <PUBCHEM_OPENEYE_CAN_SMILES>
CCC(C)C(C(=O)O)N1CC(C(C1)C2=CC(=CC=C2)F)CN3CCC(CC3)C4=CC(=NN4CC)CC5=CC(=C(C=C5)OC)OC
> <PUBCHEM_OPENEYE_ISO_SMILES>
CC[C@@H](C)[C@H](C(=O)O)N1C[C@@H]([C@H](C1)C2=CC(=CC=C2)F)CN3CCC(CC3)C4=CC(=NN4CC)CC5=CC(=C(C=C5)OC)OC
> <PUBCHEM_CACTVS_TPSA>
80.1
> <PUBCHEM_MONOISOTOPIC_WEIGHT>
620.37378422
> <PUBCHEM_TOTAL_CHARGE>
0
> <PUBCHEM_HEAVY_ATOM_COUNT>
45
> <PUBCHEM_ATOM_DEF_STEREO_COUNT>
4
> <PUBCHEM_ATOM_UDEF_STEREO_COUNT>
0
> <PUBCHEM_BOND_DEF_STEREO_COUNT>
0
> <PUBCHEM_BOND_UDEF_STEREO_COUNT>
0
> <PUBCHEM_ISOTOPIC_ATOM_COUNT>
0
> <PUBCHEM_COMPONENT_COUNT>
1
> <PUBCHEM_CACTVS_TAUTO_COUNT>
-1
> <PUBCHEM_COORDINATE_TYPE>
1
5
255
> <PUBCHEM_BONDANNOTATIONS>
10  14  5
11  16  6
15  23  5
16  26  8
16  27  8
20  28  5
25  29  8
26  31  8
27  32  8
29  34  8
31  33  8
32  33  8
38  39  8
38  40  8
39  41  8
40  42  8
41  43  8
42  43  8
8  25  8
8  9  8
9  34  8
$$$$
