516227
  -OEChem-10302200282D
 89 94  0     1  0  0  0  0  0999 V2000
    6.1847   -4.9770    0.0000 F   0  0  0  0  0  0  0  0  0  0  0  0
    3.7320    1.6706    0.0000 O   0  0  0  0  0  0  0  0  0  0  0  0
    5.4641    1.6706    0.0000 O   0  0  0  0  0  0  0  0  0  0  0  0
   15.1612    4.6001    0.0000 O   0  0  0  0  0  0  0  0  0  0  0  0
   15.1612    2.9906    0.0000 O   0  0  0  0  0  0  0  0  0  0  0  0
    5.4641   -0.3294    0.0000 N   0  0  3  0  0  0  0  0  0  0  0  0
    8.4480    0.3522    0.0000 N   0  0  0  0  0  0  0  0  0  0  0  0
    9.1682    3.9589    0.0000 N   0  0  0  0  0  0  0  0  0  0  0  0
    9.8374    4.7020    0.0000 N   0  0  0  0  0  0  0  0  0  0  0  0
    7.0468   -0.6658    0.0000 C   0  0  2  0  0  0  0  0  0  0  0  0
    6.5468   -1.5319    0.0000 C   0  0  2  0  0  0  0  0  0  0  0  0
    6.3776    0.0773    0.0000 C   0  0  0  0  0  0  0  0  0  0  0  0
    5.5686   -1.3239    0.0000 C   0  0  0  0  0  0  0  0  0  0  0  0
    8.0413   -0.5613    0.0000 C   0  0  0  0  0  0  0  0  0  0  0  0
    4.5981    0.1706    0.0000 C   0  0  2  0  0  0  0  0  0  0  0  0
    6.9535   -2.4454    0.0000 C   0  0  0  0  0  0  0  0  0  0  0  0
    9.4426    0.4568    0.0000 C   0  0  0  0  0  0  0  0  0  0  0  0
    7.8602    1.1613    0.0000 C   0  0  0  0  0  0  0  0  0  0  0  0
    9.2615    2.1793    0.0000 C   0  0  0  0  0  0  0  0  0  0  0  0
    3.7320   -0.3294    0.0000 C   0  0  2  0  0  0  0  0  0  0  0  0
    9.8493    1.3703    0.0000 C   0  0  0  0  0  0  0  0  0  0  0  0
    8.2670    2.0748    0.0000 C   0  0  0  0  0  0  0  0  0  0  0  0
    9.6682    3.0929    0.0000 C   0  0  0  0  0  0  0  0  0  0  0  0
    4.5981    1.1706    0.0000 C   0  0  0  0  0  0  0  0  0  0  0  0
    2.8660    0.1706    0.0000 C   0  0  0  0  0  0  0  0  0  0  0  0
    6.3657   -3.2544    0.0000 C   0  0  0  0  0  0  0  0  0  0  0  0
    7.9480   -2.5499    0.0000 C   0  0  0  0  0  0  0  0  0  0  0  0
    3.7320   -1.3294    0.0000 C   0  0  0  0  0  0  0  0  0  0  0  0
   10.6464    3.3008    0.0000 C   0  0  0  0  0  0  0  0  0  0  0  0
    2.0000   -0.3294    0.0000 C   0  0  0  0  0  0  0  0  0  0  0  0
    6.7725   -4.1680    0.0000 C   0  0  0  0  0  0  0  0  0  0  0  0
    8.3548   -3.4635    0.0000 C   0  0  0  0  0  0  0  0  0  0  0  0
   10.7509    4.2953    0.0000 C   0  0  0  0  0  0  0  0  0  0  0  0
    7.7670   -4.2725    0.0000 C   0  0  0  0  0  0  0  0  0  0  0  0
    8.1737    4.0634    0.0000 C   0  0  0  0  0  0  0  0  0  0  0  0
   11.6169    4.7953    0.0000 C   0  0  0  0  0  0  0  0  0  0  0  0
    7.7670    4.9770    0.0000 C   0  0  0  0  0  0  0  0  0  0  0  0
   12.4830    4.2953    0.0000 C   0  0  0  0  0  0  0  0  0  0  0  0
   13.3490    4.7953    0.0000 C   0  0  0  0  0  0  0  0  0  0  0  0
   12.4830    3.2953    0.0000 C   0  0  0  0  0  0  0  0  0  0  0  0
   14.2150    4.2953    0.0000 C   0  0  0  0  0  0  0  0  0  0  0  0
   13.3490    2.7953    0.0000 C   0  0  0  0  0  0  0  0  0  0  0  0
   14.2150    3.2953    0.0000 C   0  0  0  0  0  0  0  0  0  0  0  0
   15.7449    3.7953    0.0000 C   0  0  0  0  0  0  0  0  0  0  0  0
    7.2690   -0.0870    0.0000 H   0  0  0  0  0  0  0  0  0  0  0  0
    7.1659   -1.5643    0.0000 H   0  0  0  0  0  0  0  0  0  0  0  0
    6.8792    0.4417    0.0000 H   0  0  0  0  0  0  0  0  0  0  0  0
    6.0677    0.6143    0.0000 H   0  0  0  0  0  0  0  0  0  0  0  0
    4.9486   -1.3239    0.0000 H   0  0  0  0  0  0  0  0  0  0  0  0
    5.5038   -1.9406    0.0000 H   0  0  0  0  0  0  0  0  0  0  0  0
    7.9980   -1.1798    0.0000 H   0  0  0  0  0  0  0  0  0  0  0  0
    8.6429   -0.7113    0.0000 H   0  0  0  0  0  0  0  0  0  0  0  0
    5.1350    0.4806    0.0000 H   0  0  0  0  0  0  0  0  0  0  0  0
    9.3993   -0.1617    0.0000 H   0  0  0  0  0  0  0  0  0  0  0  0
   10.0441    0.3068    0.0000 H   0  0  0  0  0  0  0  0  0  0  0  0
    7.3462    1.5080    0.0000 H   0  0  0  0  0  0  0  0  0  0  0  0
    7.4296    0.7153    0.0000 H   0  0  0  0  0  0  0  0  0  0  0  0
    9.8781    2.2441    0.0000 H   0  0  0  0  0  0  0  0  0  0  0  0
    4.2690   -0.6394    0.0000 H   0  0  0  0  0  0  0  0  0  0  0  0
   10.3633    1.0236    0.0000 H   0  0  0  0  0  0  0  0  0  0  0  0
   10.2800    1.8163    0.0000 H   0  0  0  0  0  0  0  0  0  0  0  0
    8.3102    2.6933    0.0000 H   0  0  0  0  0  0  0  0  0  0  0  0
    7.6654    2.2248    0.0000 H   0  0  0  0  0  0  0  0  0  0  0  0
    3.2646    0.6455    0.0000 H   0  0  0  0  0  0  0  0  0  0  0  0
    2.4675    0.6455    0.0000 H   0  0  0  0  0  0  0  0  0  0  0  0
    5.7491   -3.1896    0.0000 H   0  0  0  0  0  0  0  0  0  0  0  0
    8.3125   -2.0483    0.0000 H   0  0  0  0  0  0  0  0  0  0  0  0
    3.1120   -1.3294    0.0000 H   0  0  0  0  0  0  0  0  0  0  0  0
    3.7320   -1.9494    0.0000 H   0  0  0  0  0  0  0  0  0  0  0  0
    4.3520   -1.3294    0.0000 H   0  0  0  0  0  0  0  0  0  0  0  0
   11.1071    2.8859    0.0000 H   0  0  0  0  0  0  0  0  0  0  0  0
    1.6900    0.2075    0.0000 H   0  0  0  0  0  0  0  0  0  0  0  0
    1.4631   -0.6394    0.0000 H   0  0  0  0  0  0  0  0  0  0  0  0
    2.3100   -0.8664    0.0000 H   0  0  0  0  0  0  0  0  0  0  0  0
    8.9714   -3.5283    0.0000 H   0  0  0  0  0  0  0  0  0  0  0  0
    8.0192   -4.8389    0.0000 H   0  0  0  0  0  0  0  0  0  0  0  0
    3.7320    2.2906    0.0000 H   0  0  0  0  0  0  0  0  0  0  0  0
    7.5721    3.9134    0.0000 H   0  0  0  0  0  0  0  0  0  0  0  0
    8.2170    3.4449    0.0000 H   0  0  0  0  0  0  0  0  0  0  0  0
   12.0155    5.2703    0.0000 H   0  0  0  0  0  0  0  0  0  0  0  0
   11.2184    5.2703    0.0000 H   0  0  0  0  0  0  0  0  0  0  0  0
    8.3334    5.2292    0.0000 H   0  0  0  0  0  0  0  0  0  0  0  0
    7.5148    5.5434    0.0000 H   0  0  0  0  0  0  0  0  0  0  0  0
    7.2006    4.7248    0.0000 H   0  0  0  0  0  0  0  0  0  0  0  0
   13.3490    5.4153    0.0000 H   0  0  0  0  0  0  0  0  0  0  0  0
   11.9460    2.9853    0.0000 H   0  0  0  0  0  0  0  0  0  0  0  0
   13.3490    2.1753    0.0000 H   0  0  0  0  0  0  0  0  0  0  0  0
   16.2057    3.3806    0.0000 H   0  0  0  0  0  0  0  0  0  0  0  0
   16.2057    4.2100    0.0000 H   0  0  0  0  0  0  0  0  0  0  0  0
  1 31  1  0  0  0  0
  2 24  1  0  0  0  0
  2 77  1  0  0  0  0
  3 24  2  0  0  0  0
  4 41  1  0  0  0  0
  4 44  1  0  0  0  0
  5 43  1  0  0  0  0
  5 44  1  0  0  0  0
  6 12  1  0  0  0  0
  6 13  1  0  0  0  0
  6 15  1  0  0  0  0
  7 14  1  0  0  0  0
  7 17  1  0  0  0  0
  7 18  1  0  0  0  0
  8  9  1  0  0  0  0
  8 23  1  0  0  0  0
  8 35  1  0  0  0  0
  9 33  2  0  0  0  0
 10 11  1  0  0  0  0
 10 12  1  0  0  0  0
 10 14  1  6  0  0  0
 10 45  1  0  0  0  0
 11 13  1  0  0  0  0
 11 16  1  1  0  0  0
 11 46  1  0  0  0  0
 12 47  1  0  0  0  0
 12 48  1  0  0  0  0
 13 49  1  0  0  0  0
 13 50  1  0  0  0  0
 14 51  1  0  0  0  0
 14 52  1  0  0  0  0
 15 20  1  0  0  0  0
 15 24  1  6  0  0  0
 15 53  1  0  0  0  0
 16 26  2  0  0  0  0
 16 27  1  0  0  0  0
 17 21  1  0  0  0  0
 17 54  1  0  0  0  0
 17 55  1  0  0  0  0
 18 22  1  0  0  0  0
 18 56  1  0  0  0  0
 18 57  1  0  0  0  0
 19 21  1  0  0  0  0
 19 22  1  0  0  0  0
 19 23  1  0  0  0  0
 19 58  1  0  0  0  0
 20 25  1  0  0  0  0
 20 28  1  1  0  0  0
 20 59  1  0  0  0  0
 21 60  1  0  0  0  0
 21 61  1  0  0  0  0
 22 62  1  0  0  0  0
 22 63  1  0  0  0  0
 23 29  2  0  0  0  0
 25 30  1  0  0  0  0
 25 64  1  0  0  0  0
 25 65  1  0  0  0  0
 26 31  1  0  0  0  0
 26 66  1  0  0  0  0
 27 32  2  0  0  0  0
 27 67  1  0  0  0  0
 28 68  1  0  0  0  0
 28 69  1  0  0  0  0
 28 70  1  0  0  0  0
 29 33  1  0  0  0  0
 29 71  1  0  0  0  0
 30 72  1  0  0  0  0
 30 73  1  0  0  0  0
 30 74  1  0  0  0  0
 31 34  2  0  0  0  0
 32 34  1  0  0  0  0
 32 75  1  0  0  0  0
 33 36  1  0  0  0  0
 34 76  1  0  0  0  0
 35 37  1  0  0  0  0
 35 78  1  0  0  0  0
 35 79  1  0  0  0  0
 36 38  1  0  0  0  0
 36 80  1  0  0  0  0
 36 81  1  0  0  0  0
 37 82  1  0  0  0  0
 37 83  1  0  0  0  0
 37 84  1  0  0  0  0
 38 39  2  0  0  0  0
 38 40  1  0  0  0  0
 39 41  1  0  0  0  0
 39 85  1  0  0  0  0
 40 42  2  0  0  0  0
 40 86  1  0  0  0  0
 41 43  2  0  0  0  0
 42 43  1  0  0  0  0
 42 87  1  0  0  0  0
 44 88  1  0  0  0  0
 44 89  1  0  0  0  0
M  END
> <PUBCHEM_COMPOUND_CID>
516227
> <PUBCHEM_COMPOUND_CANONICALIZED>
1
> <PUBCHEM_CACTVS_COMPLEXITY>
936
> <PUBCHEM_CACTVS_HBOND_ACCEPTOR>
8
> <PUBCHEM_CACTVS_HBOND_DONOR>
1
> <PUBCHEM_CACTVS_ROTATABLE_BOND>
11
> <PUBCHEM_CACTVS_SUBSKEYS>
AAADcfB/uQAAAAAAAAAAAAAAAAAAAWLEgAA8YIAAAAAAAEgB0AAAHwAICAAADSzBng8yjpMIBgCqAyTyTACSDAAhogAY2CG+7JgfJjLE8fuk9CpkyBHe6AeY0PEOoAABAAAAQABAAAIAAACAAAAAAAAAAA==
> <PUBCHEM_IUPAC_OPENEYE_NAME>
(2R,3S)-2-[(3S,4S)-3-[[4-[5-(1,3-benzodioxol-5-ylmethyl)-2-ethyl-pyrazol-3-yl]-1-piperidyl]methyl]-4-(3-fluorophenyl)pyrrolidin-1-yl]-3-methyl-pentanoic acid
> <PUBCHEM_IUPAC_CAS_NAME>
(2R,3S)-2-[(3S,4S)-3-[[4-[5-(1,3-benzodioxol-5-ylmethyl)-2-ethyl-3-pyrazolyl]-1-piperidinyl]methyl]-4-(3-fluorophenyl)-1-pyrrolidinyl]-3-methylpentanoic acid
> <PUBCHEM_IUPAC_NAME_MARKUP>
(2<I>R</I>,3<I>S</I>)-2-[(3<I>S</I>,4<I>S</I>)-3-[[4-[5-(1,3-benzodioxol-5-ylmethyl)-2-ethylpyrazol-3-yl]piperidin-1-yl]methyl]-4-(3-fluorophenyl)pyrrolidin-1-yl]-3-methylpentanoic acid
> <PUBCHEM_IUPAC_NAME>
(2R,3S)-2-[(3S,4S)-3-[[4-[5-(1,3-benzodioxol-5-ylmethyl)-2-ethylpyrazol-3-yl]piperidin-1-yl]methyl]-4-(3-fluorophenyl)pyrrolidin-1-yl]-3-methylpentanoic acid
> <PUBCHEM_IUPAC_SYSTEMATIC_NAME>
(2R,3S)-2-[(3S,4S)-3-[[4-[5-(1,3-benzodioxol-5-ylmethyl)-2-ethyl-pyrazol-3-yl]piperidin-1-yl]methyl]-4-(3-fluorophenyl)pyrrolidin-1-yl]-3-methyl-pentanoic acid
> <PUBCHEM_IUPAC_TRADITIONAL_NAME>
(2R,3S)-2-[(3S,4S)-3-[[4-(2-ethyl-5-piperonyl-pyrazol-3-yl)piperidino]methyl]-4-(3-fluorophenyl)pyrrolidino]-3-methyl-valeric acid
> <PUBCHEM_IUPAC_INCHI>
InChI=1S/C35H45FN4O4/c1-4-23(3)34(35(41)42)39-20-27(30(21-39)26-7-6-8-28(36)17-26)19-38-13-11-25(12-14-38)31-18-29(37-40(31)5-2)15-24-9-10-32-33(16-24)44-22-43-32/h6-10,16-18,23,25,27,30,34H,4-5,11-15,19-22H2,1-3H3,(H,41,42)/t23-,27-,30+,34+/m0/s1
> <PUBCHEM_IUPAC_INCHIKEY>
YHXSYDDMGBQKTA-NZUHDKDNSA-N
> <PUBCHEM_XLOGP3_AA>
3.9
> <PUBCHEM_EXACT_MASS>
604.34248409
> <PUBCHEM_MOLECULAR_FORMULA>
C35H45FN4O4
> <PUBCHEM_MOLECULAR_WEIGHT>
604.8
> <PUBCHEM_OPENEYE_CAN_SMILES>
CCC(C)C(C(=O)O)N1CC(C(C1)C2=CC(=CC=C2)F)CN3CCC(CC3)C4=CC(=NN4CC)CC5=CC6=C(C=C5)OCO6
> <PUBCHEM_OPENEYE_ISO_SMILES>
CC[C@H](C)[C@H](C(=O)O)N1C[C@@H]([C@H](C1)C2=CC(=CC=C2)F)CN3CCC(CC3)C4=CC(=NN4CC)CC5=CC6=C(C=C5)OCO6
> <PUBCHEM_CACTVS_TPSA>
80.1
> <PUBCHEM_MONOISOTOPIC_WEIGHT>
604.34248409
> <PUBCHEM_TOTAL_CHARGE>
0
> <PUBCHEM_HEAVY_ATOM_COUNT>
44
> <PUBCHEM_ATOM_DEF_STEREO_COUNT>
4
> <PUBCHEM_ATOM_UDEF_STEREO_COUNT>
0
> <PUBCHEM_BOND_DEF_STEREO_COUNT>
0
> <PUBCHEM_BOND_UDEF_STEREO_COUNT>
0
> <PUBCHEM_ISOTOPIC_ATOM_COUNT>
0
> <PUBCHEM_COMPONENT_COUNT>
1
> <PUBCHEM_CACTVS_TAUTO_COUNT>
-1
> <PUBCHEM_COORDINATE_TYPE>
1
5
255
> <PUBCHEM_BONDANNOTATIONS>
10  14  6
11  16  5
15  24  6
16  26  8
16  27  8
20  28  5
23  29  8
26  31  8
27  32  8
29  33  8
31  34  8
32  34  8
38  39  8
38  40  8
39  41  8
40  42  8
41  43  8
42  43  8
8  23  8
8  9  8
9  33  8
$$$$
