516201
  -OEChem-10302200282D
 90 94  0     1  0  0  0  0  0999 V2000
    7.4899   -7.9046    0.0000 F   0  0  0  0  0  0  0  0  0  0  0  0
    8.8398    6.6775    0.0000 F   0  0  0  0  0  0  0  0  0  0  0  0
    2.3644   -4.5519    0.0000 O   0  0  0  0  0  0  0  0  0  0  0  0
    3.7657   -5.5700    0.0000 O   0  0  0  0  0  0  0  0  0  0  0  0
    6.8508    6.8865    0.0000 O   0  0  0  0  0  0  0  0  0  0  0  0
    4.9413   -3.9519    0.0000 N   0  0  3  0  0  0  0  0  0  0  0  0
    7.3900   -2.1155    0.0000 N   0  0  0  0  0  0  0  0  0  0  0  0
    6.5809    1.4723    0.0000 N   0  0  0  0  0  0  0  0  0  0  0  0
    6.8900    2.4233    0.0000 N   0  0  0  0  0  0  0  0  0  0  0  0
    6.5239   -3.6155    0.0000 C   0  0  2  0  0  0  0  0  0  0  0  0
    6.4194   -4.6100    0.0000 C   0  0  2  0  0  0  0  0  0  0  0  0
    5.6104   -3.2088    0.0000 C   0  0  0  0  0  0  0  0  0  0  0  0
    5.4413   -4.8180    0.0000 C   0  0  0  0  0  0  0  0  0  0  0  0
    7.3900   -3.1155    0.0000 C   0  0  0  0  0  0  0  0  0  0  0  0
    3.9467   -3.8474    0.0000 C   0  0  2  0  0  0  0  0  0  0  0  0
    6.5239   -1.6155    0.0000 C   0  0  0  0  0  0  0  0  0  0  0  0
    8.2560   -1.6155    0.0000 C   0  0  0  0  0  0  0  0  0  0  0  0
    7.1626   -5.2792    0.0000 C   0  0  0  0  0  0  0  0  0  0  0  0
    7.3900   -0.1155    0.0000 C   0  0  0  0  0  0  0  0  0  0  0  0
    6.5239   -0.6155    0.0000 C   0  0  0  0  0  0  0  0  0  0  0  0
    8.2560   -0.6155    0.0000 C   0  0  0  0  0  0  0  0  0  0  0  0
    3.5400   -2.9338    0.0000 C   0  0  0  0  0  0  0  0  0  0  0  0
    7.3900    0.8845    0.0000 C   0  0  0  0  0  0  0  0  0  0  0  0
    3.3590   -4.6564    0.0000 C   0  0  0  0  0  0  0  0  0  0  0  0
    6.9546   -6.2573    0.0000 C   0  0  0  0  0  0  0  0  0  0  0  0
    8.1136   -4.9702    0.0000 C   0  0  0  0  0  0  0  0  0  0  0  0
    2.5455   -2.8293    0.0000 C   0  0  0  0  0  0  0  0  0  0  0  0
    4.1278   -2.1248    0.0000 C   0  0  0  0  0  0  0  0  0  0  0  0
    8.1990    1.4723    0.0000 C   0  0  0  0  0  0  0  0  0  0  0  0
    7.6978   -6.9264    0.0000 C   0  0  0  0  0  0  0  0  0  0  0  0
    8.8568   -5.6393    0.0000 C   0  0  0  0  0  0  0  0  0  0  0  0
    7.8900    2.4233    0.0000 C   0  0  0  0  0  0  0  0  0  0  0  0
    8.6488   -6.6174    0.0000 C   0  0  0  0  0  0  0  0  0  0  0  0
    5.6299    1.1632    0.0000 C   0  0  0  0  0  0  0  0  0  0  0  0
    8.4777    3.2323    0.0000 C   0  0  0  0  0  0  0  0  0  0  0  0
    4.8867    1.8324    0.0000 C   0  0  0  0  0  0  0  0  0  0  0  0
    8.0710    4.1459    0.0000 C   0  0  0  0  0  0  0  0  0  0  0  0
    8.6588    4.9549    0.0000 C   0  0  0  0  0  0  0  0  0  0  0  0
    7.0765    4.2504    0.0000 C   0  0  0  0  0  0  0  0  0  0  0  0
    8.2520    5.8684    0.0000 C   0  0  0  0  0  0  0  0  0  0  0  0
    6.6698    5.1640    0.0000 C   0  0  0  0  0  0  0  0  0  0  0  0
    7.2575    5.9730    0.0000 C   0  0  0  0  0  0  0  0  0  0  0  0
    5.8563    6.9910    0.0000 C   0  0  0  0  0  0  0  0  0  0  0  0
    5.4495    7.9046    0.0000 C   0  0  0  0  0  0  0  0  0  0  0  0
    6.4915   -2.9964    0.0000 H   0  0  0  0  0  0  0  0  0  0  0  0
    6.2589   -5.2089    0.0000 H   0  0  0  0  0  0  0  0  0  0  0  0
    5.9204   -2.6718    0.0000 H   0  0  0  0  0  0  0  0  0  0  0  0
    5.1088   -2.8444    0.0000 H   0  0  0  0  0  0  0  0  0  0  0  0
    4.8749   -5.0701    0.0000 H   0  0  0  0  0  0  0  0  0  0  0  0
    5.6328   -5.4076    0.0000 H   0  0  0  0  0  0  0  0  0  0  0  0
    7.6020   -3.6981    0.0000 H   0  0  0  0  0  0  0  0  0  0  0  0
    8.0005   -3.0079    0.0000 H   0  0  0  0  0  0  0  0  0  0  0  0
    4.1989   -4.4138    0.0000 H   0  0  0  0  0  0  0  0  0  0  0  0
    5.9134   -1.5079    0.0000 H   0  0  0  0  0  0  0  0  0  0  0  0
    6.3119   -2.1981    0.0000 H   0  0  0  0  0  0  0  0  0  0  0  0
    8.4680   -2.1981    0.0000 H   0  0  0  0  0  0  0  0  0  0  0  0
    8.8666   -1.5079    0.0000 H   0  0  0  0  0  0  0  0  0  0  0  0
    7.9269    0.1945    0.0000 H   0  0  0  0  0  0  0  0  0  0  0  0
    6.3119   -0.0329    0.0000 H   0  0  0  0  0  0  0  0  0  0  0  0
    5.9134   -0.7232    0.0000 H   0  0  0  0  0  0  0  0  0  0  0  0
    8.8666   -0.7232    0.0000 H   0  0  0  0  0  0  0  0  0  0  0  0
    8.4680   -0.0329    0.0000 H   0  0  0  0  0  0  0  0  0  0  0  0
    3.2878   -2.3674    0.0000 H   0  0  0  0  0  0  0  0  0  0  0  0
    6.3650   -6.4489    0.0000 H   0  0  0  0  0  0  0  0  0  0  0  0
    8.2425   -4.3637    0.0000 H   0  0  0  0  0  0  0  0  0  0  0  0
    2.6103   -2.2127    0.0000 H   0  0  0  0  0  0  0  0  0  0  0  0
    1.9289   -2.7645    0.0000 H   0  0  0  0  0  0  0  0  0  0  0  0
    2.4807   -3.4459    0.0000 H   0  0  0  0  0  0  0  0  0  0  0  0
    4.6294   -2.4893    0.0000 H   0  0  0  0  0  0  0  0  0  0  0  0
    4.4922   -1.6232    0.0000 H   0  0  0  0  0  0  0  0  0  0  0  0
    3.6262   -1.7604    0.0000 H   0  0  0  0  0  0  0  0  0  0  0  0
    8.7886    1.2807    0.0000 H   0  0  0  0  0  0  0  0  0  0  0  0
    9.4464   -5.4477    0.0000 H   0  0  0  0  0  0  0  0  0  0  0  0
    9.1096   -7.0323    0.0000 H   0  0  0  0  0  0  0  0  0  0  0  0
    5.1413    0.7815    0.0000 H   0  0  0  0  0  0  0  0  0  0  0  0
    5.9210    0.6158    0.0000 H   0  0  0  0  0  0  0  0  0  0  0  0
    2.0000   -5.0535    0.0000 H   0  0  0  0  0  0  0  0  0  0  0  0
    8.9084    2.7864    0.0000 H   0  0  0  0  0  0  0  0  0  0  0  0
    8.9918    3.5790    0.0000 H   0  0  0  0  0  0  0  0  0  0  0  0
    5.3016    2.2931    0.0000 H   0  0  0  0  0  0  0  0  0  0  0  0
    4.4260    2.2472    0.0000 H   0  0  0  0  0  0  0  0  0  0  0  0
    4.4719    1.3716    0.0000 H   0  0  0  0  0  0  0  0  0  0  0  0
    9.2754    4.8901    0.0000 H   0  0  0  0  0  0  0  0  0  0  0  0
    6.7121    3.7488    0.0000 H   0  0  0  0  0  0  0  0  0  0  0  0
    6.0531    5.2288    0.0000 H   0  0  0  0  0  0  0  0  0  0  0  0
    5.2547    6.8411    0.0000 H   0  0  0  0  0  0  0  0  0  0  0  0
    5.8995    6.3726    0.0000 H   0  0  0  0  0  0  0  0  0  0  0  0
    6.0159    8.1568    0.0000 H   0  0  0  0  0  0  0  0  0  0  0  0
    5.1974    8.4710    0.0000 H   0  0  0  0  0  0  0  0  0  0  0  0
    4.8831    7.6524    0.0000 H   0  0  0  0  0  0  0  0  0  0  0  0
  1 30  1  0  0  0  0
  2 40  1  0  0  0  0
  3 24  1  0  0  0  0
  3 77  1  0  0  0  0
  4 24  2  0  0  0  0
  5 42  1  0  0  0  0
  5 43  1  0  0  0  0
  6 12  1  0  0  0  0
  6 13  1  0  0  0  0
  6 15  1  0  0  0  0
  7 14  1  0  0  0  0
  7 16  1  0  0  0  0
  7 17  1  0  0  0  0
  8  9  1  0  0  0  0
  8 23  1  0  0  0  0
  8 34  1  0  0  0  0
  9 32  2  0  0  0  0
 10 11  1  0  0  0  0
 10 12  1  0  0  0  0
 10 14  1  6  0  0  0
 10 45  1  0  0  0  0
 11 13  1  0  0  0  0
 11 18  1  1  0  0  0
 11 46  1  0  0  0  0
 12 47  1  0  0  0  0
 12 48  1  0  0  0  0
 13 49  1  0  0  0  0
 13 50  1  0  0  0  0
 14 51  1  0  0  0  0
 14 52  1  0  0  0  0
 15 22  1  0  0  0  0
 15 24  1  1  0  0  0
 15 53  1  0  0  0  0
 16 20  1  0  0  0  0
 16 54  1  0  0  0  0
 16 55  1  0  0  0  0
 17 21  1  0  0  0  0
 17 56  1  0  0  0  0
 17 57  1  0  0  0  0
 18 25  2  0  0  0  0
 18 26  1  0  0  0  0
 19 20  1  0  0  0  0
 19 21  1  0  0  0  0
 19 23  1  0  0  0  0
 19 58  1  0  0  0  0
 20 59  1  0  0  0  0
 20 60  1  0  0  0  0
 21 61  1  0  0  0  0
 21 62  1  0  0  0  0
 22 27  1  0  0  0  0
 22 28  1  0  0  0  0
 22 63  1  0  0  0  0
 23 29  2  0  0  0  0
 25 30  1  0  0  0  0
 25 64  1  0  0  0  0
 26 31  2  0  0  0  0
 26 65  1  0  0  0  0
 27 66  1  0  0  0  0
 27 67  1  0  0  0  0
 27 68  1  0  0  0  0
 28 69  1  0  0  0  0
 28 70  1  0  0  0  0
 28 71  1  0  0  0  0
 29 32  1  0  0  0  0
 29 72  1  0  0  0  0
 30 33  2  0  0  0  0
 31 33  1  0  0  0  0
 31 73  1  0  0  0  0
 32 35  1  0  0  0  0
 33 74  1  0  0  0  0
 34 36  1  0  0  0  0
 34 75  1  0  0  0  0
 34 76  1  0  0  0  0
 35 37  1  0  0  0  0
 35 78  1  0  0  0  0
 35 79  1  0  0  0  0
 36 80  1  0  0  0  0
 36 81  1  0  0  0  0
 36 82  1  0  0  0  0
 37 38  2  0  0  0  0
 37 39  1  0  0  0  0
 38 40  1  0  0  0  0
 38 83  1  0  0  0  0
 39 41  2  0  0  0  0
 39 84  1  0  0  0  0
 40 42  2  0  0  0  0
 41 42  1  0  0  0  0
 41 85  1  0  0  0  0
 43 44  1  0  0  0  0
 43 86  1  0  0  0  0
 43 87  1  0  0  0  0
 44 88  1  0  0  0  0
 44 89  1  0  0  0  0
 44 90  1  0  0  0  0
M  END
> <PUBCHEM_COMPOUND_CID>
516201
> <PUBCHEM_COMPOUND_CANONICALIZED>
1
> <PUBCHEM_CACTVS_COMPLEXITY>
905
> <PUBCHEM_CACTVS_HBOND_ACCEPTOR>
8
> <PUBCHEM_CACTVS_HBOND_DONOR>
1
> <PUBCHEM_CACTVS_ROTATABLE_BOND>
12
> <PUBCHEM_CACTVS_SUBSKEYS>
AAADcfB/sYAAAAAAAAAAAAAAAAAAAWLAAAA8YIAAAAAAAAAB0AAAHwAICAAADSzhng4yjpMIBgCqAyTyTACSDAAhogAY2CG+bJgOJjLE8fuG/CjkyBHY6AeQwOAOoAAAAAAAAABAAAAAAAAAAAAAAAAAAA==
> <PUBCHEM_IUPAC_OPENEYE_NAME>
(2R)-2-[(3S,4S)-3-[[4-[5-[(4-ethoxy-3-fluoro-phenyl)methyl]-2-ethyl-pyrazol-3-yl]-1-piperidyl]methyl]-4-(3-fluorophenyl)pyrrolidin-1-yl]-3-methyl-butanoic acid
> <PUBCHEM_IUPAC_CAS_NAME>
(2R)-2-[(3S,4S)-3-[[4-[5-[(4-ethoxy-3-fluorophenyl)methyl]-2-ethyl-3-pyrazolyl]-1-piperidinyl]methyl]-4-(3-fluorophenyl)-1-pyrrolidinyl]-3-methylbutanoic acid
> <PUBCHEM_IUPAC_NAME_MARKUP>
(2<I>R</I>)-2-[(3<I>S</I>,4<I>S</I>)-3-[[4-[5-[(4-ethoxy-3-fluorophenyl)methyl]-2-ethylpyrazol-3-yl]piperidin-1-yl]methyl]-4-(3-fluorophenyl)pyrrolidin-1-yl]-3-methylbutanoic acid
> <PUBCHEM_IUPAC_NAME>
(2R)-2-[(3S,4S)-3-[[4-[5-[(4-ethoxy-3-fluorophenyl)methyl]-2-ethylpyrazol-3-yl]piperidin-1-yl]methyl]-4-(3-fluorophenyl)pyrrolidin-1-yl]-3-methylbutanoic acid
> <PUBCHEM_IUPAC_SYSTEMATIC_NAME>
(2R)-2-[(3S,4S)-3-[[4-[5-[(4-ethoxy-3-fluoranyl-phenyl)methyl]-2-ethyl-pyrazol-3-yl]piperidin-1-yl]methyl]-4-(3-fluorophenyl)pyrrolidin-1-yl]-3-methyl-butanoic acid
> <PUBCHEM_IUPAC_TRADITIONAL_NAME>
(2R)-2-[(3S,4S)-3-[[4-[5-(4-ethoxy-3-fluoro-benzyl)-2-ethyl-pyrazol-3-yl]piperidino]methyl]-4-(3-fluorophenyl)pyrrolidino]-3-methyl-butyric acid
> <PUBCHEM_IUPAC_INCHI>
InChI=1S/C35H46F2N4O3/c1-5-41-32(19-29(38-41)16-24-10-11-33(44-6-2)31(37)17-24)25-12-14-39(15-13-25)20-27-21-40(34(23(3)4)35(42)43)22-30(27)26-8-7-9-28(36)18-26/h7-11,17-19,23,25,27,30,34H,5-6,12-16,20-22H2,1-4H3,(H,42,43)/t27-,30+,34+/m0/s1
> <PUBCHEM_IUPAC_INCHIKEY>
AZCPMEMQWSWETI-PEMZAYNASA-N
> <PUBCHEM_XLOGP3_AA>
4.1
> <PUBCHEM_EXACT_MASS>
608.35379767
> <PUBCHEM_MOLECULAR_FORMULA>
C35H46F2N4O3
> <PUBCHEM_MOLECULAR_WEIGHT>
608.8
> <PUBCHEM_OPENEYE_CAN_SMILES>
CCN1C(=CC(=N1)CC2=CC(=C(C=C2)OCC)F)C3CCN(CC3)CC4CN(CC4C5=CC(=CC=C5)F)C(C(C)C)C(=O)O
> <PUBCHEM_OPENEYE_ISO_SMILES>
CCN1C(=CC(=N1)CC2=CC(=C(C=C2)OCC)F)C3CCN(CC3)C[C@H]4CN(C[C@@H]4C5=CC(=CC=C5)F)[C@H](C(C)C)C(=O)O
> <PUBCHEM_CACTVS_TPSA>
70.8
> <PUBCHEM_MONOISOTOPIC_WEIGHT>
608.35379767
> <PUBCHEM_TOTAL_CHARGE>
0
> <PUBCHEM_HEAVY_ATOM_COUNT>
44
> <PUBCHEM_ATOM_DEF_STEREO_COUNT>
3
> <PUBCHEM_ATOM_UDEF_STEREO_COUNT>
0
> <PUBCHEM_BOND_DEF_STEREO_COUNT>
0
> <PUBCHEM_BOND_UDEF_STEREO_COUNT>
0
> <PUBCHEM_ISOTOPIC_ATOM_COUNT>
0
> <PUBCHEM_COMPONENT_COUNT>
1
> <PUBCHEM_CACTVS_TAUTO_COUNT>
-1
> <PUBCHEM_COORDINATE_TYPE>
1
5
255
> <PUBCHEM_BONDANNOTATIONS>
10  14  6
11  18  5
15  24  5
18  25  8
18  26  8
23  29  8
25  30  8
26  31  8
29  32  8
30  33  8
31  33  8
37  38  8
37  39  8
38  40  8
39  41  8
40  42  8
41  42  8
8  23  8
8  9  8
9  32  8
$$$$
