516232
  -OEChem-10302200282D
 89 93  0     1  0  0  0  0  0999 V2000
    7.7132   -7.3956    0.0000 F   0  0  0  0  0  0  0  0  0  0  0  0
    2.7688   -2.3203    0.0000 O   0  0  0  0  0  0  0  0  0  0  0  0
    4.3511   -1.6158    0.0000 O   0  0  0  0  0  0  0  0  0  0  0  0
    5.1646   -3.4429    0.0000 N   0  0  3  0  0  0  0  0  0  0  0  0
    7.6133   -1.6065    0.0000 N   0  0  0  0  0  0  0  0  0  0  0  0
    6.8043    1.9813    0.0000 N   0  0  0  0  0  0  0  0  0  0  0  0
    7.1133    2.9324    0.0000 N   0  0  0  0  0  0  0  0  0  0  0  0
    6.7473   -3.1065    0.0000 C   0  0  2  0  0  0  0  0  0  0  0  0
    6.6428   -4.1010    0.0000 C   0  0  2  0  0  0  0  0  0  0  0  0
    5.8338   -2.6997    0.0000 C   0  0  0  0  0  0  0  0  0  0  0  0
    5.6646   -4.3089    0.0000 C   0  0  0  0  0  0  0  0  0  0  0  0
    7.6133   -2.6065    0.0000 C   0  0  0  0  0  0  0  0  0  0  0  0
    4.1701   -3.3384    0.0000 C   0  0  2  0  0  0  0  0  0  0  0  0
    7.3859   -4.7701    0.0000 C   0  0  0  0  0  0  0  0  0  0  0  0
    6.7473   -1.1065    0.0000 C   0  0  0  0  0  0  0  0  0  0  0  0
    8.4793   -1.1065    0.0000 C   0  0  0  0  0  0  0  0  0  0  0  0
    7.6133    0.3935    0.0000 C   0  0  0  0  0  0  0  0  0  0  0  0
    3.5823   -4.1474    0.0000 C   0  0  2  0  0  0  0  0  0  0  0  0
    6.7473   -0.1065    0.0000 C   0  0  0  0  0  0  0  0  0  0  0  0
    8.4793   -0.1065    0.0000 C   0  0  0  0  0  0  0  0  0  0  0  0
    7.6133    1.3935    0.0000 C   0  0  0  0  0  0  0  0  0  0  0  0
    3.7634   -2.4248    0.0000 C   0  0  0  0  0  0  0  0  0  0  0  0
    2.5878   -4.0428    0.0000 C   0  0  0  0  0  0  0  0  0  0  0  0
    7.1780   -5.7483    0.0000 C   0  0  0  0  0  0  0  0  0  0  0  0
    8.3370   -4.4611    0.0000 C   0  0  0  0  0  0  0  0  0  0  0  0
    3.9890   -5.0609    0.0000 C   0  0  0  0  0  0  0  0  0  0  0  0
    8.4223    1.9813    0.0000 C   0  0  0  0  0  0  0  0  0  0  0  0
    2.0000   -4.8519    0.0000 C   0  0  0  0  0  0  0  0  0  0  0  0
    7.9211   -6.4174    0.0000 C   0  0  0  0  0  0  0  0  0  0  0  0
    9.0801   -5.1302    0.0000 C   0  0  0  0  0  0  0  0  0  0  0  0
    8.1133    2.9324    0.0000 C   0  0  0  0  0  0  0  0  0  0  0  0
    8.8722   -6.1084    0.0000 C   0  0  0  0  0  0  0  0  0  0  0  0
    5.8532    1.6723    0.0000 C   0  0  0  0  0  0  0  0  0  0  0  0
    8.7011    3.7414    0.0000 C   0  0  0  0  0  0  0  0  0  0  0  0
    5.1101    2.3414    0.0000 C   0  0  0  0  0  0  0  0  0  0  0  0
    8.2944    4.6549    0.0000 C   0  0  0  0  0  0  0  0  0  0  0  0
    7.2998    4.7594    0.0000 C   0  0  0  0  0  0  0  0  0  0  0  0
    8.8822    5.4639    0.0000 C   0  0  0  0  0  0  0  0  0  0  0  0
    6.8931    5.6730    0.0000 C   0  0  0  0  0  0  0  0  0  0  0  0
    8.4754    6.3775    0.0000 C   0  0  0  0  0  0  0  0  0  0  0  0
    7.4809    6.4820    0.0000 C   0  0  0  0  0  0  0  0  0  0  0  0
    7.0742    7.3956    0.0000 C   0  0  0  0  0  0  0  0  0  0  0  0
    7.2673   -3.4442    0.0000 H   0  0  0  0  0  0  0  0  0  0  0  0
    6.4823   -4.6999    0.0000 H   0  0  0  0  0  0  0  0  0  0  0  0
    6.1437   -2.1628    0.0000 H   0  0  0  0  0  0  0  0  0  0  0  0
    5.3322   -2.3353    0.0000 H   0  0  0  0  0  0  0  0  0  0  0  0
    5.0982   -4.5611    0.0000 H   0  0  0  0  0  0  0  0  0  0  0  0
    5.8562   -4.8986    0.0000 H   0  0  0  0  0  0  0  0  0  0  0  0
    7.8254   -3.1891    0.0000 H   0  0  0  0  0  0  0  0  0  0  0  0
    8.2239   -2.4988    0.0000 H   0  0  0  0  0  0  0  0  0  0  0  0
    4.5345   -2.8368    0.0000 H   0  0  0  0  0  0  0  0  0  0  0  0
    6.1367   -0.9988    0.0000 H   0  0  0  0  0  0  0  0  0  0  0  0
    6.5352   -1.6891    0.0000 H   0  0  0  0  0  0  0  0  0  0  0  0
    8.6914   -1.6891    0.0000 H   0  0  0  0  0  0  0  0  0  0  0  0
    9.0899   -0.9988    0.0000 H   0  0  0  0  0  0  0  0  0  0  0  0
    7.0764    0.7035    0.0000 H   0  0  0  0  0  0  0  0  0  0  0  0
    3.2179   -4.6490    0.0000 H   0  0  0  0  0  0  0  0  0  0  0  0
    6.5352    0.4761    0.0000 H   0  0  0  0  0  0  0  0  0  0  0  0
    6.1367   -0.2141    0.0000 H   0  0  0  0  0  0  0  0  0  0  0  0
    9.0899   -0.2141    0.0000 H   0  0  0  0  0  0  0  0  0  0  0  0
    8.6914    0.4761    0.0000 H   0  0  0  0  0  0  0  0  0  0  0  0
    2.7587   -3.4469    0.0000 H   0  0  0  0  0  0  0  0  0  0  0  0
    2.0305   -3.7711    0.0000 H   0  0  0  0  0  0  0  0  0  0  0  0
    6.5883   -5.9399    0.0000 H   0  0  0  0  0  0  0  0  0  0  0  0
    8.4659   -3.8547    0.0000 H   0  0  0  0  0  0  0  0  0  0  0  0
    3.4226   -5.3131    0.0000 H   0  0  0  0  0  0  0  0  0  0  0  0
    4.2412   -5.6273    0.0000 H   0  0  0  0  0  0  0  0  0  0  0  0
    4.5554   -4.8088    0.0000 H   0  0  0  0  0  0  0  0  0  0  0  0
    9.0120    1.7897    0.0000 H   0  0  0  0  0  0  0  0  0  0  0  0
    1.4984   -4.4874    0.0000 H   0  0  0  0  0  0  0  0  0  0  0  0
    1.6356   -5.3535    0.0000 H   0  0  0  0  0  0  0  0  0  0  0  0
    2.5016   -5.2163    0.0000 H   0  0  0  0  0  0  0  0  0  0  0  0
    9.6698   -4.9387    0.0000 H   0  0  0  0  0  0  0  0  0  0  0  0
    9.3330   -6.5233    0.0000 H   0  0  0  0  0  0  0  0  0  0  0  0
    2.5167   -1.7539    0.0000 H   0  0  0  0  0  0  0  0  0  0  0  0
    5.3647    1.2906    0.0000 H   0  0  0  0  0  0  0  0  0  0  0  0
    6.1443    1.1249    0.0000 H   0  0  0  0  0  0  0  0  0  0  0  0
    9.1318    3.2954    0.0000 H   0  0  0  0  0  0  0  0  0  0  0  0
    9.2151    4.0881    0.0000 H   0  0  0  0  0  0  0  0  0  0  0  0
    5.5250    2.8022    0.0000 H   0  0  0  0  0  0  0  0  0  0  0  0
    4.6494    2.7563    0.0000 H   0  0  0  0  0  0  0  0  0  0  0  0
    4.6952    1.8807    0.0000 H   0  0  0  0  0  0  0  0  0  0  0  0
    6.9354    4.2579    0.0000 H   0  0  0  0  0  0  0  0  0  0  0  0
    9.4988    5.3991    0.0000 H   0  0  0  0  0  0  0  0  0  0  0  0
    6.2765    5.7378    0.0000 H   0  0  0  0  0  0  0  0  0  0  0  0
    8.8398    6.8791    0.0000 H   0  0  0  0  0  0  0  0  0  0  0  0
    7.6406    7.6477    0.0000 H   0  0  0  0  0  0  0  0  0  0  0  0
    6.8220    7.9620    0.0000 H   0  0  0  0  0  0  0  0  0  0  0  0
    6.5078    7.1434    0.0000 H   0  0  0  0  0  0  0  0  0  0  0  0
  1 29  1  0  0  0  0
  2 22  1  0  0  0  0
  2 75  1  0  0  0  0
  3 22  2  0  0  0  0
  4 10  1  0  0  0  0
  4 11  1  0  0  0  0
  4 13  1  0  0  0  0
  5 12  1  0  0  0  0
  5 15  1  0  0  0  0
  5 16  1  0  0  0  0
  6  7  1  0  0  0  0
  6 21  1  0  0  0  0
  6 33  1  0  0  0  0
  7 31  2  0  0  0  0
  8  9  1  0  0  0  0
  8 10  1  0  0  0  0
  8 12  1  6  0  0  0
  8 43  1  0  0  0  0
  9 11  1  0  0  0  0
  9 14  1  1  0  0  0
  9 44  1  0  0  0  0
 10 45  1  0  0  0  0
 10 46  1  0  0  0  0
 11 47  1  0  0  0  0
 11 48  1  0  0  0  0
 12 49  1  0  0  0  0
 12 50  1  0  0  0  0
 13 18  1  0  0  0  0
 13 22  1  6  0  0  0
 13 51  1  0  0  0  0
 14 24  2  0  0  0  0
 14 25  1  0  0  0  0
 15 19  1  0  0  0  0
 15 52  1  0  0  0  0
 15 53  1  0  0  0  0
 16 20  1  0  0  0  0
 16 54  1  0  0  0  0
 16 55  1  0  0  0  0
 17 19  1  0  0  0  0
 17 20  1  0  0  0  0
 17 21  1  0  0  0  0
 17 56  1  0  0  0  0
 18 23  1  0  0  0  0
 18 26  1  1  0  0  0
 18 57  1  0  0  0  0
 19 58  1  0  0  0  0
 19 59  1  0  0  0  0
 20 60  1  0  0  0  0
 20 61  1  0  0  0  0
 21 27  2  0  0  0  0
 23 28  1  0  0  0  0
 23 62  1  0  0  0  0
 23 63  1  0  0  0  0
 24 29  1  0  0  0  0
 24 64  1  0  0  0  0
 25 30  2  0  0  0  0
 25 65  1  0  0  0  0
 26 66  1  0  0  0  0
 26 67  1  0  0  0  0
 26 68  1  0  0  0  0
 27 31  1  0  0  0  0
 27 69  1  0  0  0  0
 28 70  1  0  0  0  0
 28 71  1  0  0  0  0
 28 72  1  0  0  0  0
 29 32  2  0  0  0  0
 30 32  1  0  0  0  0
 30 73  1  0  0  0  0
 31 34  1  0  0  0  0
 32 74  1  0  0  0  0
 33 35  1  0  0  0  0
 33 76  1  0  0  0  0
 33 77  1  0  0  0  0
 34 36  1  0  0  0  0
 34 78  1  0  0  0  0
 34 79  1  0  0  0  0
 35 80  1  0  0  0  0
 35 81  1  0  0  0  0
 35 82  1  0  0  0  0
 36 37  2  0  0  0  0
 36 38  1  0  0  0  0
 37 39  1  0  0  0  0
 37 83  1  0  0  0  0
 38 40  2  0  0  0  0
 38 84  1  0  0  0  0
 39 41  2  0  0  0  0
 39 85  1  0  0  0  0
 40 41  1  0  0  0  0
 40 86  1  0  0  0  0
 41 42  1  0  0  0  0
 42 87  1  0  0  0  0
 42 88  1  0  0  0  0
 42 89  1  0  0  0  0
M  END
> <PUBCHEM_COMPOUND_CID>
516232
> <PUBCHEM_COMPOUND_CANONICALIZED>
1
> <PUBCHEM_CACTVS_COMPLEXITY>
845
> <PUBCHEM_CACTVS_HBOND_ACCEPTOR>
6
> <PUBCHEM_CACTVS_HBOND_DONOR>
1
> <PUBCHEM_CACTVS_ROTATABLE_BOND>
11
> <PUBCHEM_CACTVS_SUBSKEYS>
AAADcfB/sQAAAAAAAAAAAAAAAAAAAWLAAAA8YIAAAAAAAAAB0AAAHwAICAAADSjBngwyiJMIAgCqAyTyTACSBAAhggAY2CG4ZJgKIDLA0fGE5AhkiADYyAeYgMAOwAAAAAAAAACAAAAAAAAAAAAAAAAAAA==
> <PUBCHEM_IUPAC_OPENEYE_NAME>
(2R,3S)-2-[(3S,4S)-3-[[4-[2-ethyl-5-(p-tolylmethyl)pyrazol-3-yl]-1-piperidyl]methyl]-4-(3-fluorophenyl)pyrrolidin-1-yl]-3-methyl-pentanoic acid
> <PUBCHEM_IUPAC_CAS_NAME>
(2R,3S)-2-[(3S,4S)-3-[[4-[2-ethyl-5-[(4-methylphenyl)methyl]-3-pyrazolyl]-1-piperidinyl]methyl]-4-(3-fluorophenyl)-1-pyrrolidinyl]-3-methylpentanoic acid
> <PUBCHEM_IUPAC_NAME_MARKUP>
(2<I>R</I>,3<I>S</I>)-2-[(3<I>S</I>,4<I>S</I>)-3-[[4-[2-ethyl-5-[(4-methylphenyl)methyl]pyrazol-3-yl]piperidin-1-yl]methyl]-4-(3-fluorophenyl)pyrrolidin-1-yl]-3-methylpentanoic acid
> <PUBCHEM_IUPAC_NAME>
(2R,3S)-2-[(3S,4S)-3-[[4-[2-ethyl-5-[(4-methylphenyl)methyl]pyrazol-3-yl]piperidin-1-yl]methyl]-4-(3-fluorophenyl)pyrrolidin-1-yl]-3-methylpentanoic acid
> <PUBCHEM_IUPAC_SYSTEMATIC_NAME>
(2R,3S)-2-[(3S,4S)-3-[[4-[2-ethyl-5-[(4-methylphenyl)methyl]pyrazol-3-yl]piperidin-1-yl]methyl]-4-(3-fluorophenyl)pyrrolidin-1-yl]-3-methyl-pentanoic acid
> <PUBCHEM_IUPAC_TRADITIONAL_NAME>
(2R,3S)-2-[(3S,4S)-3-[[4-[2-ethyl-5-(4-methylbenzyl)pyrazol-3-yl]piperidino]methyl]-4-(3-fluorophenyl)pyrrolidino]-3-methyl-valeric acid
> <PUBCHEM_IUPAC_INCHI>
InChI=1S/C35H47FN4O2/c1-5-25(4)34(35(41)42)39-22-29(32(23-39)28-8-7-9-30(36)19-28)21-38-16-14-27(15-17-38)33-20-31(37-40(33)6-2)18-26-12-10-24(3)11-13-26/h7-13,19-20,25,27,29,32,34H,5-6,14-18,21-23H2,1-4H3,(H,41,42)/t25-,29-,32+,34+/m0/s1
> <PUBCHEM_IUPAC_INCHIKEY>
RAYOIOHGOVQFJQ-XQJICNLXSA-N
> <PUBCHEM_XLOGP3_AA>
4.4
> <PUBCHEM_EXACT_MASS>
574.36830492
> <PUBCHEM_MOLECULAR_FORMULA>
C35H47FN4O2
> <PUBCHEM_MOLECULAR_WEIGHT>
574.8
> <PUBCHEM_OPENEYE_CAN_SMILES>
CCC(C)C(C(=O)O)N1CC(C(C1)C2=CC(=CC=C2)F)CN3CCC(CC3)C4=CC(=NN4CC)CC5=CC=C(C=C5)C
> <PUBCHEM_OPENEYE_ISO_SMILES>
CC[C@H](C)[C@H](C(=O)O)N1C[C@@H]([C@H](C1)C2=CC(=CC=C2)F)CN3CCC(CC3)C4=CC(=NN4CC)CC5=CC=C(C=C5)C
> <PUBCHEM_CACTVS_TPSA>
61.6
> <PUBCHEM_MONOISOTOPIC_WEIGHT>
574.36830492
> <PUBCHEM_TOTAL_CHARGE>
0
> <PUBCHEM_HEAVY_ATOM_COUNT>
42
> <PUBCHEM_ATOM_DEF_STEREO_COUNT>
4
> <PUBCHEM_ATOM_UDEF_STEREO_COUNT>
0
> <PUBCHEM_BOND_DEF_STEREO_COUNT>
0
> <PUBCHEM_BOND_UDEF_STEREO_COUNT>
0
> <PUBCHEM_ISOTOPIC_ATOM_COUNT>
0
> <PUBCHEM_COMPONENT_COUNT>
1
> <PUBCHEM_CACTVS_TAUTO_COUNT>
-1
> <PUBCHEM_COORDINATE_TYPE>
1
5
255
> <PUBCHEM_BONDANNOTATIONS>
13  22  6
14  24  8
14  25  8
18  26  5
21  27  8
24  29  8
25  30  8
27  31  8
29  32  8
30  32  8
36  37  8
36  38  8
37  39  8
38  40  8
39  41  8
40  41  8
6  21  8
6  7  8
7  31  8
8  12  6
9  14  5
$$$$
