516256
  -OEChem-10302200282D
 92 97  0     1  0  0  0  0  0999 V2000
    2.0000   -3.0683    0.0000 F   0  0  0  0  0  0  0  0  0  0  0  0
    9.6517   -3.7374    0.0000 O   0  0  0  0  0  0  0  0  0  0  0  0
    8.4927   -2.4502    0.0000 O   0  0  0  0  0  0  0  0  0  0  0  0
    7.0064   -3.7885    0.0000 N   0  0  3  0  0  0  0  0  0  0  0  0
    5.5164   -1.1149    0.0000 N   0  0  0  0  0  0  0  0  0  0  0  0
    6.2366    2.4918    0.0000 N   0  0  0  0  0  0  0  0  0  0  0  0
    6.9057    3.2349    0.0000 N   0  0  0  0  0  0  0  0  0  0  0  0
    5.6974   -2.8374    0.0000 C   0  0  2  0  0  0  0  0  0  0  0  0
    5.3884   -3.7885    0.0000 C   0  0  2  0  0  0  0  0  0  0  0  0
    6.6974   -2.8374    0.0000 C   0  0  0  0  0  0  0  0  0  0  0  0
    6.1974   -4.3763    0.0000 C   0  0  0  0  0  0  0  0  0  0  0  0
    5.1096   -2.0284    0.0000 C   0  0  0  0  0  0  0  0  0  0  0  0
    7.9575   -4.0975    0.0000 C   0  0  2  0  0  0  0  0  0  0  0  0
    4.4374   -4.0975    0.0000 C   0  0  0  0  0  0  0  0  0  0  0  0
    6.5109   -1.0104    0.0000 C   0  0  0  0  0  0  0  0  0  0  0  0
    4.9286   -0.3059    0.0000 C   0  0  0  0  0  0  0  0  0  0  0  0
    6.3298    0.7122    0.0000 C   0  0  0  0  0  0  0  0  0  0  0  0
    8.1654   -5.0757    0.0000 C   0  0  1  0  0  0  0  0  0  0  0  0
    6.9176   -0.0968    0.0000 C   0  0  0  0  0  0  0  0  0  0  0  0
    5.3353    0.6077    0.0000 C   0  0  0  0  0  0  0  0  0  0  0  0
    6.7366    1.6257    0.0000 C   0  0  0  0  0  0  0  0  0  0  0  0
    8.7006   -3.4284    0.0000 C   0  0  0  0  0  0  0  0  0  0  0  0
    9.1165   -5.3847    0.0000 C   0  0  0  0  0  0  0  0  0  0  0  0
    3.6942   -3.4284    0.0000 C   0  0  0  0  0  0  0  0  0  0  0  0
    4.2294   -5.0757    0.0000 C   0  0  0  0  0  0  0  0  0  0  0  0
    7.4223   -5.7448    0.0000 C   0  0  0  0  0  0  0  0  0  0  0  0
    7.7147    1.8337    0.0000 C   0  0  0  0  0  0  0  0  0  0  0  0
    9.3244   -6.3628    0.0000 C   0  0  0  0  0  0  0  0  0  0  0  0
    2.7431   -3.7374    0.0000 C   0  0  0  0  0  0  0  0  0  0  0  0
    3.2784   -5.3847    0.0000 C   0  0  0  0  0  0  0  0  0  0  0  0
    7.8193    2.8282    0.0000 C   0  0  0  0  0  0  0  0  0  0  0  0
    2.5352   -4.7156    0.0000 C   0  0  0  0  0  0  0  0  0  0  0  0
    5.2421    2.5963    0.0000 C   0  0  0  0  0  0  0  0  0  0  0  0
    8.6853    3.3282    0.0000 C   0  0  0  0  0  0  0  0  0  0  0  0
    4.8353    3.5098    0.0000 C   0  0  0  0  0  0  0  0  0  0  0  0
    8.6853    4.3282    0.0000 C   0  0  0  0  0  0  0  0  0  0  0  0
    9.5513    4.8282    0.0000 C   0  0  0  0  0  0  0  0  0  0  0  0
    7.8193    4.8282    0.0000 C   0  0  0  0  0  0  0  0  0  0  0  0
    9.5513    5.8282    0.0000 C   0  0  0  0  0  0  0  0  0  0  0  0
    7.8193    5.8282    0.0000 C   0  0  0  0  0  0  0  0  0  0  0  0
   10.4452    4.2935    0.0000 C   0  0  0  0  0  0  0  0  0  0  0  0
    8.6853    6.3282    0.0000 C   0  0  0  0  0  0  0  0  0  0  0  0
   10.4452    6.3628    0.0000 C   0  0  0  0  0  0  0  0  0  0  0  0
   11.3513    4.8074    0.0000 C   0  0  0  0  0  0  0  0  0  0  0  0
   11.3513    5.8490    0.0000 C   0  0  0  0  0  0  0  0  0  0  0  0
    5.0850   -2.9344    0.0000 H   0  0  0  0  0  0  0  0  0  0  0  0
    5.2914   -4.4009    0.0000 H   0  0  0  0  0  0  0  0  0  0  0  0
    7.3039   -2.7085    0.0000 H   0  0  0  0  0  0  0  0  0  0  0  0
    6.6326   -2.2208    0.0000 H   0  0  0  0  0  0  0  0  0  0  0  0
    5.7826   -4.8370    0.0000 H   0  0  0  0  0  0  0  0  0  0  0  0
    6.6123   -4.8370    0.0000 H   0  0  0  0  0  0  0  0  0  0  0  0
    4.5956   -1.6817    0.0000 H   0  0  0  0  0  0  0  0  0  0  0  0
    4.6790   -2.4744    0.0000 H   0  0  0  0  0  0  0  0  0  0  0  0
    7.8286   -3.4911    0.0000 H   0  0  0  0  0  0  0  0  0  0  0  0
    6.4676   -1.6288    0.0000 H   0  0  0  0  0  0  0  0  0  0  0  0
    7.1125   -1.1604    0.0000 H   0  0  0  0  0  0  0  0  0  0  0  0
    4.4146    0.0408    0.0000 H   0  0  0  0  0  0  0  0  0  0  0  0
    4.4979   -0.7519    0.0000 H   0  0  0  0  0  0  0  0  0  0  0  0
    6.9464    0.7770    0.0000 H   0  0  0  0  0  0  0  0  0  0  0  0
    8.2943   -5.6821    0.0000 H   0  0  0  0  0  0  0  0  0  0  0  0
    7.4316   -0.4435    0.0000 H   0  0  0  0  0  0  0  0  0  0  0  0
    7.3483    0.3492    0.0000 H   0  0  0  0  0  0  0  0  0  0  0  0
    5.3786    1.2262    0.0000 H   0  0  0  0  0  0  0  0  0  0  0  0
    4.7337    0.7577    0.0000 H   0  0  0  0  0  0  0  0  0  0  0  0
    9.7361   -5.3630    0.0000 H   0  0  0  0  0  0  0  0  0  0  0  0
    9.2028   -4.7707    0.0000 H   0  0  0  0  0  0  0  0  0  0  0  0
    3.8231   -2.8220    0.0000 H   0  0  0  0  0  0  0  0  0  0  0  0
    4.6902   -5.4905    0.0000 H   0  0  0  0  0  0  0  0  0  0  0  0
    7.0074   -5.2841    0.0000 H   0  0  0  0  0  0  0  0  0  0  0  0
    6.9615   -6.1597    0.0000 H   0  0  0  0  0  0  0  0  0  0  0  0
    7.8371   -6.2056    0.0000 H   0  0  0  0  0  0  0  0  0  0  0  0
    8.1755    1.4188    0.0000 H   0  0  0  0  0  0  0  0  0  0  0  0
    8.7179   -6.4917    0.0000 H   0  0  0  0  0  0  0  0  0  0  0  0
    9.4533   -6.9693    0.0000 H   0  0  0  0  0  0  0  0  0  0  0  0
    9.9308   -6.2339    0.0000 H   0  0  0  0  0  0  0  0  0  0  0  0
    3.1495   -5.9911    0.0000 H   0  0  0  0  0  0  0  0  0  0  0  0
    1.9456   -4.9072    0.0000 H   0  0  0  0  0  0  0  0  0  0  0  0
   10.1124   -3.3226    0.0000 H   0  0  0  0  0  0  0  0  0  0  0  0
    4.6405    2.4463    0.0000 H   0  0  0  0  0  0  0  0  0  0  0  0
    5.2853    1.9778    0.0000 H   0  0  0  0  0  0  0  0  0  0  0  0
    8.8973    2.7456    0.0000 H   0  0  0  0  0  0  0  0  0  0  0  0
    9.2959    3.4358    0.0000 H   0  0  0  0  0  0  0  0  0  0  0  0
    5.4017    3.7620    0.0000 H   0  0  0  0  0  0  0  0  0  0  0  0
    4.5832    4.0762    0.0000 H   0  0  0  0  0  0  0  0  0  0  0  0
    4.2689    3.2577    0.0000 H   0  0  0  0  0  0  0  0  0  0  0  0
    7.2823    4.5182    0.0000 H   0  0  0  0  0  0  0  0  0  0  0  0
    7.2823    6.1382    0.0000 H   0  0  0  0  0  0  0  0  0  0  0  0
   10.4381    3.6736    0.0000 H   0  0  0  0  0  0  0  0  0  0  0  0
    8.6853    6.9482    0.0000 H   0  0  0  0  0  0  0  0  0  0  0  0
   10.4381    6.9828    0.0000 H   0  0  0  0  0  0  0  0  0  0  0  0
   11.8871    4.4953    0.0000 H   0  0  0  0  0  0  0  0  0  0  0  0
   11.8871    6.1611    0.0000 H   0  0  0  0  0  0  0  0  0  0  0  0
  1 29  1  0  0  0  0
  2 22  1  0  0  0  0
  2 78  1  0  0  0  0
  3 22  2  0  0  0  0
  4 10  1  0  0  0  0
  4 11  1  0  0  0  0
  4 13  1  0  0  0  0
  5 12  1  0  0  0  0
  5 15  1  0  0  0  0
  5 16  1  0  0  0  0
  6  7  1  0  0  0  0
  6 21  1  0  0  0  0
  6 33  1  0  0  0  0
  7 31  2  0  0  0  0
  8  9  1  0  0  0  0
  8 10  1  0  0  0  0
  8 12  1  1  0  0  0
  8 46  1  0  0  0  0
  9 11  1  0  0  0  0
  9 14  1  6  0  0  0
  9 47  1  0  0  0  0
 10 48  1  0  0  0  0
 10 49  1  0  0  0  0
 11 50  1  0  0  0  0
 11 51  1  0  0  0  0
 12 52  1  0  0  0  0
 12 53  1  0  0  0  0
 13 18  1  0  0  0  0
 13 22  1  1  0  0  0
 13 54  1  0  0  0  0
 14 24  2  0  0  0  0
 14 25  1  0  0  0  0
 15 19  1  0  0  0  0
 15 55  1  0  0  0  0
 15 56  1  0  0  0  0
 16 20  1  0  0  0  0
 16 57  1  0  0  0  0
 16 58  1  0  0  0  0
 17 19  1  0  0  0  0
 17 20  1  0  0  0  0
 17 21  1  0  0  0  0
 17 59  1  0  0  0  0
 18 23  1  0  0  0  0
 18 26  1  1  0  0  0
 18 60  1  0  0  0  0
 19 61  1  0  0  0  0
 19 62  1  0  0  0  0
 20 63  1  0  0  0  0
 20 64  1  0  0  0  0
 21 27  2  0  0  0  0
 23 28  1  0  0  0  0
 23 65  1  0  0  0  0
 23 66  1  0  0  0  0
 24 29  1  0  0  0  0
 24 67  1  0  0  0  0
 25 30  2  0  0  0  0
 25 68  1  0  0  0  0
 26 69  1  0  0  0  0
 26 70  1  0  0  0  0
 26 71  1  0  0  0  0
 27 31  1  0  0  0  0
 27 72  1  0  0  0  0
 28 73  1  0  0  0  0
 28 74  1  0  0  0  0
 28 75  1  0  0  0  0
 29 32  2  0  0  0  0
 30 32  1  0  0  0  0
 30 76  1  0  0  0  0
 31 34  1  0  0  0  0
 32 77  1  0  0  0  0
 33 35  1  0  0  0  0
 33 79  1  0  0  0  0
 33 80  1  0  0  0  0
 34 36  1  0  0  0  0
 34 81  1  0  0  0  0
 34 82  1  0  0  0  0
 35 83  1  0  0  0  0
 35 84  1  0  0  0  0
 35 85  1  0  0  0  0
 36 37  1  0  0  0  0
 36 38  2  0  0  0  0
 37 39  1  0  0  0  0
 37 41  2  0  0  0  0
 38 40  1  0  0  0  0
 38 86  1  0  0  0  0
 39 42  1  0  0  0  0
 39 43  2  0  0  0  0
 40 42  2  0  0  0  0
 40 87  1  0  0  0  0
 41 44  1  0  0  0  0
 41 88  1  0  0  0  0
 42 89  1  0  0  0  0
 43 45  1  0  0  0  0
 43 90  1  0  0  0  0
 44 45  2  0  0  0  0
 44 91  1  0  0  0  0
 45 92  1  0  0  0  0
M  END
> <PUBCHEM_COMPOUND_CID>
516256
> <PUBCHEM_COMPOUND_CANONICALIZED>
1
> <PUBCHEM_CACTVS_COMPLEXITY>
945
> <PUBCHEM_CACTVS_HBOND_ACCEPTOR>
6
> <PUBCHEM_CACTVS_HBOND_DONOR>
1
> <PUBCHEM_CACTVS_ROTATABLE_BOND>
11
> <PUBCHEM_CACTVS_SUBSKEYS>
AAADcfB/sQAAAAAAAAAAAAAAAAAAAWLAAAA8YMEAAAAAAADB1AAAHwAICAAADSjBngwyiNMIAgCqAyTyTACSBAAhggAY2CG4ZJgKIDLA0fGE5AhkiADYyAeYgMAOgAACAAAQAAAAAAQAACAAAAAAAAAAAA==
> <PUBCHEM_IUPAC_OPENEYE_NAME>
(2R,3R)-2-[(3S,4S)-3-[[4-[2-ethyl-5-(1-naphthylmethyl)pyrazol-3-yl]-1-piperidyl]methyl]-4-(3-fluorophenyl)pyrrolidin-1-yl]-3-methyl-pentanoic acid
> <PUBCHEM_IUPAC_CAS_NAME>
(2R,3R)-2-[(3S,4S)-3-[[4-[2-ethyl-5-(1-naphthalenylmethyl)-3-pyrazolyl]-1-piperidinyl]methyl]-4-(3-fluorophenyl)-1-pyrrolidinyl]-3-methylpentanoic acid
> <PUBCHEM_IUPAC_NAME_MARKUP>
(2<I>R</I>,3<I>R</I>)-2-[(3<I>S</I>,4<I>S</I>)-3-[[4-[2-ethyl-5-(naphthalen-1-ylmethyl)pyrazol-3-yl]piperidin-1-yl]methyl]-4-(3-fluorophenyl)pyrrolidin-1-yl]-3-methylpentanoic acid
> <PUBCHEM_IUPAC_NAME>
(2R,3R)-2-[(3S,4S)-3-[[4-[2-ethyl-5-(naphthalen-1-ylmethyl)pyrazol-3-yl]piperidin-1-yl]methyl]-4-(3-fluorophenyl)pyrrolidin-1-yl]-3-methylpentanoic acid
> <PUBCHEM_IUPAC_SYSTEMATIC_NAME>
(2R,3R)-2-[(3S,4S)-3-[[4-[2-ethyl-5-(naphthalen-1-ylmethyl)pyrazol-3-yl]piperidin-1-yl]methyl]-4-(3-fluorophenyl)pyrrolidin-1-yl]-3-methyl-pentanoic acid
> <PUBCHEM_IUPAC_TRADITIONAL_NAME>
(2R,3R)-2-[(3S,4S)-3-[[4-[2-ethyl-5-(1-naphthylmethyl)pyrazol-3-yl]piperidino]methyl]-4-(3-fluorophenyl)pyrrolidino]-3-methyl-valeric acid
> <PUBCHEM_IUPAC_INCHI>
InChI=1S/C38H47FN4O2/c1-4-26(3)37(38(44)45)42-24-31(35(25-42)29-13-9-14-32(39)20-29)23-41-18-16-28(17-19-41)36-22-33(40-43(36)5-2)21-30-12-8-11-27-10-6-7-15-34(27)30/h6-15,20,22,26,28,31,35,37H,4-5,16-19,21,23-25H2,1-3H3,(H,44,45)/t26-,31+,35-,37-/m1/s1
> <PUBCHEM_IUPAC_INCHIKEY>
JMOOJQQUXGNGBN-ZJYLSAKPSA-N
> <PUBCHEM_XLOGP3_AA>
5.3
> <PUBCHEM_EXACT_MASS>
610.36830492
> <PUBCHEM_MOLECULAR_FORMULA>
C38H47FN4O2
> <PUBCHEM_MOLECULAR_WEIGHT>
610.8
> <PUBCHEM_OPENEYE_CAN_SMILES>
CCC(C)C(C(=O)O)N1CC(C(C1)C2=CC(=CC=C2)F)CN3CCC(CC3)C4=CC(=NN4CC)CC5=CC=CC6=CC=CC=C65
> <PUBCHEM_OPENEYE_ISO_SMILES>
CC[C@@H](C)[C@H](C(=O)O)N1C[C@@H]([C@H](C1)C2=CC(=CC=C2)F)CN3CCC(CC3)C4=CC(=NN4CC)CC5=CC=CC6=CC=CC=C65
> <PUBCHEM_CACTVS_TPSA>
61.6
> <PUBCHEM_MONOISOTOPIC_WEIGHT>
610.36830492
> <PUBCHEM_TOTAL_CHARGE>
0
> <PUBCHEM_HEAVY_ATOM_COUNT>
45
> <PUBCHEM_ATOM_DEF_STEREO_COUNT>
4
> <PUBCHEM_ATOM_UDEF_STEREO_COUNT>
0
> <PUBCHEM_BOND_DEF_STEREO_COUNT>
0
> <PUBCHEM_BOND_UDEF_STEREO_COUNT>
0
> <PUBCHEM_ISOTOPIC_ATOM_COUNT>
0
> <PUBCHEM_COMPONENT_COUNT>
1
> <PUBCHEM_CACTVS_TAUTO_COUNT>
-1
> <PUBCHEM_COORDINATE_TYPE>
1
5
255
> <PUBCHEM_BONDANNOTATIONS>
13  22  5
14  24  8
14  25  8
18  26  5
21  27  8
24  29  8
25  30  8
27  31  8
29  32  8
30  32  8
36  37  8
36  38  8
37  39  8
37  41  8
38  40  8
39  42  8
39  43  8
40  42  8
41  44  8
43  45  8
44  45  8
6  21  8
6  7  8
7  31  8
8  12  5
9  14  6
$$$$
