516216
  -OEChem-10302200282D
 94 99  0     1  0  0  0  0  0999 V2000
    7.7132   -8.2973    0.0000 F   0  0  0  0  0  0  0  0  0  0  0  0
    2.7688   -3.2221    0.0000 O   0  0  0  0  0  0  0  0  0  0  0  0
    4.3511   -2.5176    0.0000 O   0  0  0  0  0  0  0  0  0  0  0  0
    7.0742    6.4938    0.0000 O   0  0  0  0  0  0  0  0  0  0  0  0
    5.1646   -4.3447    0.0000 N   0  0  3  0  0  0  0  0  0  0  0  0
    7.6133   -2.5082    0.0000 N   0  0  0  0  0  0  0  0  0  0  0  0
    6.8043    1.0795    0.0000 N   0  0  0  0  0  0  0  0  0  0  0  0
    7.1133    2.0306    0.0000 N   0  0  0  0  0  0  0  0  0  0  0  0
    6.7473   -4.0082    0.0000 C   0  0  2  0  0  0  0  0  0  0  0  0
    6.6428   -5.0028    0.0000 C   0  0  2  0  0  0  0  0  0  0  0  0
    5.8338   -3.6015    0.0000 C   0  0  0  0  0  0  0  0  0  0  0  0
    5.6646   -5.2107    0.0000 C   0  0  0  0  0  0  0  0  0  0  0  0
    7.6133   -3.5082    0.0000 C   0  0  0  0  0  0  0  0  0  0  0  0
    4.1701   -4.2401    0.0000 C   0  0  2  0  0  0  0  0  0  0  0  0
    7.3859   -5.6719    0.0000 C   0  0  0  0  0  0  0  0  0  0  0  0
    6.7473   -2.0082    0.0000 C   0  0  0  0  0  0  0  0  0  0  0  0
    8.4793   -2.0082    0.0000 C   0  0  0  0  0  0  0  0  0  0  0  0
    7.6133   -0.5083    0.0000 C   0  0  0  0  0  0  0  0  0  0  0  0
    3.5823   -5.0492    0.0000 C   0  0  2  0  0  0  0  0  0  0  0  0
    6.7473   -1.0082    0.0000 C   0  0  0  0  0  0  0  0  0  0  0  0
    8.4793   -1.0082    0.0000 C   0  0  0  0  0  0  0  0  0  0  0  0
    7.6133    0.4917    0.0000 C   0  0  0  0  0  0  0  0  0  0  0  0
    3.7634   -3.3266    0.0000 C   0  0  0  0  0  0  0  0  0  0  0  0
    2.5878   -4.9446    0.0000 C   0  0  0  0  0  0  0  0  0  0  0  0
    7.1780   -6.6500    0.0000 C   0  0  0  0  0  0  0  0  0  0  0  0
    8.3370   -5.3629    0.0000 C   0  0  0  0  0  0  0  0  0  0  0  0
    3.9890   -5.9627    0.0000 C   0  0  0  0  0  0  0  0  0  0  0  0
    8.4223    1.0795    0.0000 C   0  0  0  0  0  0  0  0  0  0  0  0
    2.0000   -5.7536    0.0000 C   0  0  0  0  0  0  0  0  0  0  0  0
    7.9211   -7.3192    0.0000 C   0  0  0  0  0  0  0  0  0  0  0  0
    9.0801   -6.0320    0.0000 C   0  0  0  0  0  0  0  0  0  0  0  0
    8.1133    2.0306    0.0000 C   0  0  0  0  0  0  0  0  0  0  0  0
    8.8722   -7.0102    0.0000 C   0  0  0  0  0  0  0  0  0  0  0  0
    5.8532    0.7705    0.0000 C   0  0  0  0  0  0  0  0  0  0  0  0
    7.6619    7.3028    0.0000 C   0  0  0  0  0  0  0  0  0  0  0  0
    8.5755    7.7095    0.0000 C   0  0  0  0  0  0  0  0  0  0  0  0
    7.7665    8.2973    0.0000 C   0  0  0  0  0  0  0  0  0  0  0  0
    8.7011    2.8396    0.0000 C   0  0  0  0  0  0  0  0  0  0  0  0
    5.1101    1.4397    0.0000 C   0  0  0  0  0  0  0  0  0  0  0  0
    8.2944    3.7532    0.0000 C   0  0  0  0  0  0  0  0  0  0  0  0
    7.4809    5.5802    0.0000 C   0  0  0  0  0  0  0  0  0  0  0  0
    7.2998    3.8577    0.0000 C   0  0  0  0  0  0  0  0  0  0  0  0
    8.8822    4.5622    0.0000 C   0  0  0  0  0  0  0  0  0  0  0  0
    6.8931    4.7712    0.0000 C   0  0  0  0  0  0  0  0  0  0  0  0
    8.4754    5.4757    0.0000 C   0  0  0  0  0  0  0  0  0  0  0  0
    7.2673   -4.3459    0.0000 H   0  0  0  0  0  0  0  0  0  0  0  0
    7.2216   -4.7806    0.0000 H   0  0  0  0  0  0  0  0  0  0  0  0
    6.1437   -3.0646    0.0000 H   0  0  0  0  0  0  0  0  0  0  0  0
    5.3322   -3.2371    0.0000 H   0  0  0  0  0  0  0  0  0  0  0  0
    5.0982   -5.4629    0.0000 H   0  0  0  0  0  0  0  0  0  0  0  0
    5.8562   -5.8003    0.0000 H   0  0  0  0  0  0  0  0  0  0  0  0
    7.8254   -4.0909    0.0000 H   0  0  0  0  0  0  0  0  0  0  0  0
    8.2239   -3.4006    0.0000 H   0  0  0  0  0  0  0  0  0  0  0  0
    4.5345   -3.7385    0.0000 H   0  0  0  0  0  0  0  0  0  0  0  0
    6.1367   -1.9006    0.0000 H   0  0  0  0  0  0  0  0  0  0  0  0
    6.5352   -2.5909    0.0000 H   0  0  0  0  0  0  0  0  0  0  0  0
    8.6914   -2.5909    0.0000 H   0  0  0  0  0  0  0  0  0  0  0  0
    9.0899   -1.9006    0.0000 H   0  0  0  0  0  0  0  0  0  0  0  0
    7.0764   -0.1983    0.0000 H   0  0  0  0  0  0  0  0  0  0  0  0
    3.2179   -5.5507    0.0000 H   0  0  0  0  0  0  0  0  0  0  0  0
    6.5352   -0.4256    0.0000 H   0  0  0  0  0  0  0  0  0  0  0  0
    6.1367   -1.1159    0.0000 H   0  0  0  0  0  0  0  0  0  0  0  0
    9.0899   -1.1159    0.0000 H   0  0  0  0  0  0  0  0  0  0  0  0
    8.6914   -0.4256    0.0000 H   0  0  0  0  0  0  0  0  0  0  0  0
    2.7587   -4.3486    0.0000 H   0  0  0  0  0  0  0  0  0  0  0  0
    2.0305   -4.6728    0.0000 H   0  0  0  0  0  0  0  0  0  0  0  0
    6.5883   -6.8416    0.0000 H   0  0  0  0  0  0  0  0  0  0  0  0
    8.4659   -4.7564    0.0000 H   0  0  0  0  0  0  0  0  0  0  0  0
    3.4226   -6.2149    0.0000 H   0  0  0  0  0  0  0  0  0  0  0  0
    4.2412   -6.5291    0.0000 H   0  0  0  0  0  0  0  0  0  0  0  0
    4.5554   -5.7105    0.0000 H   0  0  0  0  0  0  0  0  0  0  0  0
    9.0120    0.8879    0.0000 H   0  0  0  0  0  0  0  0  0  0  0  0
    1.4984   -5.3892    0.0000 H   0  0  0  0  0  0  0  0  0  0  0  0
    1.6356   -6.2552    0.0000 H   0  0  0  0  0  0  0  0  0  0  0  0
    2.5016   -6.1181    0.0000 H   0  0  0  0  0  0  0  0  0  0  0  0
    9.6698   -5.8404    0.0000 H   0  0  0  0  0  0  0  0  0  0  0  0
    9.3330   -7.4250    0.0000 H   0  0  0  0  0  0  0  0  0  0  0  0
    2.5167   -2.6557    0.0000 H   0  0  0  0  0  0  0  0  0  0  0  0
    5.3647    0.3888    0.0000 H   0  0  0  0  0  0  0  0  0  0  0  0
    6.1443    0.2231    0.0000 H   0  0  0  0  0  0  0  0  0  0  0  0
    8.0521    6.8210    0.0000 H   0  0  0  0  0  0  0  0  0  0  0  0
    8.9222    7.1955    0.0000 H   0  0  0  0  0  0  0  0  0  0  0  0
    9.0215    8.1402    0.0000 H   0  0  0  0  0  0  0  0  0  0  0  0
    8.0383    8.8546    0.0000 H   0  0  0  0  0  0  0  0  0  0  0  0
    7.1705    8.4682    0.0000 H   0  0  0  0  0  0  0  0  0  0  0  0
    9.1318    2.3936    0.0000 H   0  0  0  0  0  0  0  0  0  0  0  0
    9.2151    3.1863    0.0000 H   0  0  0  0  0  0  0  0  0  0  0  0
    5.5250    1.9004    0.0000 H   0  0  0  0  0  0  0  0  0  0  0  0
    4.6494    1.8545    0.0000 H   0  0  0  0  0  0  0  0  0  0  0  0
    4.6952    0.9789    0.0000 H   0  0  0  0  0  0  0  0  0  0  0  0
    6.9354    3.3561    0.0000 H   0  0  0  0  0  0  0  0  0  0  0  0
    9.4988    4.4974    0.0000 H   0  0  0  0  0  0  0  0  0  0  0  0
    6.2765    4.8360    0.0000 H   0  0  0  0  0  0  0  0  0  0  0  0
    8.8398    5.9773    0.0000 H   0  0  0  0  0  0  0  0  0  0  0  0
  1 30  1  0  0  0  0
  2 23  1  0  0  0  0
  2 78  1  0  0  0  0
  3 23  2  0  0  0  0
  4 35  1  0  0  0  0
  4 41  1  0  0  0  0
  5 11  1  0  0  0  0
  5 12  1  0  0  0  0
  5 14  1  0  0  0  0
  6 13  1  0  0  0  0
  6 16  1  0  0  0  0
  6 17  1  0  0  0  0
  7  8  1  0  0  0  0
  7 22  1  0  0  0  0
  7 34  1  0  0  0  0
  8 32  2  0  0  0  0
  9 10  1  0  0  0  0
  9 11  1  0  0  0  0
  9 13  1  6  0  0  0
  9 46  1  0  0  0  0
 10 12  1  0  0  0  0
 10 15  1  1  0  0  0
 10 47  1  0  0  0  0
 11 48  1  0  0  0  0
 11 49  1  0  0  0  0
 12 50  1  0  0  0  0
 12 51  1  0  0  0  0
 13 52  1  0  0  0  0
 13 53  1  0  0  0  0
 14 19  1  0  0  0  0
 14 23  1  6  0  0  0
 14 54  1  0  0  0  0
 15 25  2  0  0  0  0
 15 26  1  0  0  0  0
 16 20  1  0  0  0  0
 16 55  1  0  0  0  0
 16 56  1  0  0  0  0
 17 21  1  0  0  0  0
 17 57  1  0  0  0  0
 17 58  1  0  0  0  0
 18 20  1  0  0  0  0
 18 21  1  0  0  0  0
 18 22  1  0  0  0  0
 18 59  1  0  0  0  0
 19 24  1  0  0  0  0
 19 27  1  1  0  0  0
 19 60  1  0  0  0  0
 20 61  1  0  0  0  0
 20 62  1  0  0  0  0
 21 63  1  0  0  0  0
 21 64  1  0  0  0  0
 22 28  2  0  0  0  0
 24 29  1  0  0  0  0
 24 65  1  0  0  0  0
 24 66  1  0  0  0  0
 25 30  1  0  0  0  0
 25 67  1  0  0  0  0
 26 31  2  0  0  0  0
 26 68  1  0  0  0  0
 27 69  1  0  0  0  0
 27 70  1  0  0  0  0
 27 71  1  0  0  0  0
 28 32  1  0  0  0  0
 28 72  1  0  0  0  0
 29 73  1  0  0  0  0
 29 74  1  0  0  0  0
 29 75  1  0  0  0  0
 30 33  2  0  0  0  0
 31 33  1  0  0  0  0
 31 76  1  0  0  0  0
 32 38  1  0  0  0  0
 33 77  1  0  0  0  0
 34 39  1  0  0  0  0
 34 79  1  0  0  0  0
 34 80  1  0  0  0  0
 35 36  1  0  0  0  0
 35 37  1  0  0  0  0
 35 81  1  0  0  0  0
 36 37  1  0  0  0  0
 36 82  1  0  0  0  0
 36 83  1  0  0  0  0
 37 84  1  0  0  0  0
 37 85  1  0  0  0  0
 38 40  1  0  0  0  0
 38 86  1  0  0  0  0
 38 87  1  0  0  0  0
 39 88  1  0  0  0  0
 39 89  1  0  0  0  0
 39 90  1  0  0  0  0
 40 42  2  0  0  0  0
 40 43  1  0  0  0  0
 41 44  2  0  0  0  0
 41 45  1  0  0  0  0
 42 44  1  0  0  0  0
 42 91  1  0  0  0  0
 43 45  2  0  0  0  0
 43 92  1  0  0  0  0
 44 93  1  0  0  0  0
 45 94  1  0  0  0  0
M  END
> <PUBCHEM_COMPOUND_CID>
516216
> <PUBCHEM_COMPOUND_CANONICALIZED>
1
> <PUBCHEM_CACTVS_COMPLEXITY>
937
> <PUBCHEM_CACTVS_HBOND_ACCEPTOR>
7
> <PUBCHEM_CACTVS_HBOND_DONOR>
1
> <PUBCHEM_CACTVS_ROTATABLE_BOND>
13
> <PUBCHEM_CACTVS_SUBSKEYS>
AAADcfB/sQAAAAAAAAAAAAAAGAAAAWLAAAA8YIAAAAAAAAAB0AAAHwAICAAADTzhng4yjpMIBgCqAyTyTACSDAAhogAY2CG+bJgOJjLE8fuG/CjkyBHY6AeYwOAOoAAAAAAAAABAAAAAAAAAAAAAAAAAAA==
> <PUBCHEM_IUPAC_OPENEYE_NAME>
(2R,3S)-2-[(3S,4S)-3-[[4-[5-[[4-(cyclopropoxy)phenyl]methyl]-2-ethyl-pyrazol-3-yl]-1-piperidyl]methyl]-4-(3-fluorophenyl)pyrrolidin-1-yl]-3-methyl-pentanoic acid
> <PUBCHEM_IUPAC_CAS_NAME>
(2R,3S)-2-[(3S,4S)-3-[[4-[5-[(4-cyclopropyloxyphenyl)methyl]-2-ethyl-3-pyrazolyl]-1-piperidinyl]methyl]-4-(3-fluorophenyl)-1-pyrrolidinyl]-3-methylpentanoic acid
> <PUBCHEM_IUPAC_NAME_MARKUP>
(2<I>R</I>,3<I>S</I>)-2-[(3<I>S</I>,4<I>S</I>)-3-[[4-[5-[(4-cyclopropyloxyphenyl)methyl]-2-ethylpyrazol-3-yl]piperidin-1-yl]methyl]-4-(3-fluorophenyl)pyrrolidin-1-yl]-3-methylpentanoic acid
> <PUBCHEM_IUPAC_NAME>
(2R,3S)-2-[(3S,4S)-3-[[4-[5-[(4-cyclopropyloxyphenyl)methyl]-2-ethylpyrazol-3-yl]piperidin-1-yl]methyl]-4-(3-fluorophenyl)pyrrolidin-1-yl]-3-methylpentanoic acid
> <PUBCHEM_IUPAC_SYSTEMATIC_NAME>
(2R,3S)-2-[(3S,4S)-3-[[4-[5-[(4-cyclopropyloxyphenyl)methyl]-2-ethyl-pyrazol-3-yl]piperidin-1-yl]methyl]-4-(3-fluorophenyl)pyrrolidin-1-yl]-3-methyl-pentanoic acid
> <PUBCHEM_IUPAC_TRADITIONAL_NAME>
(2R,3S)-2-[(3S,4S)-3-[[4-[5-[4-(cyclopropoxy)benzyl]-2-ethyl-pyrazol-3-yl]piperidino]methyl]-4-(3-fluorophenyl)pyrrolidino]-3-methyl-valeric acid
> <PUBCHEM_IUPAC_INCHI>
InChI=1S/C37H49FN4O3/c1-4-25(3)36(37(43)44)41-23-29(34(24-41)28-7-6-8-30(38)20-28)22-40-17-15-27(16-18-40)35-21-31(39-42(35)5-2)19-26-9-11-32(12-10-26)45-33-13-14-33/h6-12,20-21,25,27,29,33-34,36H,4-5,13-19,22-24H2,1-3H3,(H,43,44)/t25-,29-,34+,36+/m0/s1
> <PUBCHEM_IUPAC_INCHIKEY>
DYYAUPMKHPMGJX-SQSKQFLFSA-N
> <PUBCHEM_XLOGP3_AA>
4.6
> <PUBCHEM_EXACT_MASS>
616.37886960
> <PUBCHEM_MOLECULAR_FORMULA>
C37H49FN4O3
> <PUBCHEM_MOLECULAR_WEIGHT>
616.8
> <PUBCHEM_OPENEYE_CAN_SMILES>
CCC(C)C(C(=O)O)N1CC(C(C1)C2=CC(=CC=C2)F)CN3CCC(CC3)C4=CC(=NN4CC)CC5=CC=C(C=C5)OC6CC6
> <PUBCHEM_OPENEYE_ISO_SMILES>
CC[C@H](C)[C@H](C(=O)O)N1C[C@@H]([C@H](C1)C2=CC(=CC=C2)F)CN3CCC(CC3)C4=CC(=NN4CC)CC5=CC=C(C=C5)OC6CC6
> <PUBCHEM_CACTVS_TPSA>
70.8
> <PUBCHEM_MONOISOTOPIC_WEIGHT>
616.37886960
> <PUBCHEM_TOTAL_CHARGE>
0
> <PUBCHEM_HEAVY_ATOM_COUNT>
45
> <PUBCHEM_ATOM_DEF_STEREO_COUNT>
4
> <PUBCHEM_ATOM_UDEF_STEREO_COUNT>
0
> <PUBCHEM_BOND_DEF_STEREO_COUNT>
0
> <PUBCHEM_BOND_UDEF_STEREO_COUNT>
0
> <PUBCHEM_ISOTOPIC_ATOM_COUNT>
0
> <PUBCHEM_COMPONENT_COUNT>
1
> <PUBCHEM_CACTVS_TAUTO_COUNT>
-1
> <PUBCHEM_COORDINATE_TYPE>
1
5
255
> <PUBCHEM_BONDANNOTATIONS>
10  15  5
14  23  6
15  25  8
15  26  8
19  27  5
22  28  8
25  30  8
26  31  8
28  32  8
30  33  8
31  33  8
40  42  8
40  43  8
41  44  8
41  45  8
42  44  8
43  45  8
7  22  8
7  8  8
8  32  8
9  13  6
$$$$
