516237
  -OEChem-10302200282D
 89 93  0     1  0  0  0  0  0999 V2000
    7.7132   -7.8523    0.0000 F   0  0  0  0  0  0  0  0  0  0  0  0
    6.6674    7.8523    0.0000 F   0  0  0  0  0  0  0  0  0  0  0  0
    7.9877    7.3455    0.0000 F   0  0  0  0  0  0  0  0  0  0  0  0
    6.1606    6.5320    0.0000 F   0  0  0  0  0  0  0  0  0  0  0  0
    2.7688   -2.7771    0.0000 O   0  0  0  0  0  0  0  0  0  0  0  0
    4.3511   -2.0726    0.0000 O   0  0  0  0  0  0  0  0  0  0  0  0
    5.1646   -3.8997    0.0000 N   0  0  3  0  0  0  0  0  0  0  0  0
    7.6133   -2.0632    0.0000 N   0  0  0  0  0  0  0  0  0  0  0  0
    6.8043    1.5245    0.0000 N   0  0  0  0  0  0  0  0  0  0  0  0
    7.1133    2.4756    0.0000 N   0  0  0  0  0  0  0  0  0  0  0  0
    6.7473   -3.5632    0.0000 C   0  0  2  0  0  0  0  0  0  0  0  0
    6.6428   -4.5578    0.0000 C   0  0  2  0  0  0  0  0  0  0  0  0
    5.8338   -3.1565    0.0000 C   0  0  0  0  0  0  0  0  0  0  0  0
    5.6646   -4.7657    0.0000 C   0  0  0  0  0  0  0  0  0  0  0  0
    7.6133   -3.0632    0.0000 C   0  0  0  0  0  0  0  0  0  0  0  0
    4.1701   -3.7951    0.0000 C   0  0  2  0  0  0  0  0  0  0  0  0
    7.3859   -5.2269    0.0000 C   0  0  0  0  0  0  0  0  0  0  0  0
    6.7473   -1.5632    0.0000 C   0  0  0  0  0  0  0  0  0  0  0  0
    8.4793   -1.5632    0.0000 C   0  0  0  0  0  0  0  0  0  0  0  0
    7.6133   -0.0633    0.0000 C   0  0  0  0  0  0  0  0  0  0  0  0
    3.5823   -4.6042    0.0000 C   0  0  1  0  0  0  0  0  0  0  0  0
    6.7473   -0.5633    0.0000 C   0  0  0  0  0  0  0  0  0  0  0  0
    8.4793   -0.5633    0.0000 C   0  0  0  0  0  0  0  0  0  0  0  0
    7.6133    0.9367    0.0000 C   0  0  0  0  0  0  0  0  0  0  0  0
    3.7634   -2.8816    0.0000 C   0  0  0  0  0  0  0  0  0  0  0  0
    2.5878   -4.4996    0.0000 C   0  0  0  0  0  0  0  0  0  0  0  0
    7.1780   -6.2050    0.0000 C   0  0  0  0  0  0  0  0  0  0  0  0
    8.3370   -4.9179    0.0000 C   0  0  0  0  0  0  0  0  0  0  0  0
    3.9890   -5.5177    0.0000 C   0  0  0  0  0  0  0  0  0  0  0  0
    8.4223    1.5245    0.0000 C   0  0  0  0  0  0  0  0  0  0  0  0
    2.0000   -5.3086    0.0000 C   0  0  0  0  0  0  0  0  0  0  0  0
    7.9211   -6.8742    0.0000 C   0  0  0  0  0  0  0  0  0  0  0  0
    9.0801   -5.5870    0.0000 C   0  0  0  0  0  0  0  0  0  0  0  0
    8.1133    2.4756    0.0000 C   0  0  0  0  0  0  0  0  0  0  0  0
    8.8722   -6.5652    0.0000 C   0  0  0  0  0  0  0  0  0  0  0  0
    5.8532    1.2155    0.0000 C   0  0  0  0  0  0  0  0  0  0  0  0
    8.7011    3.2846    0.0000 C   0  0  0  0  0  0  0  0  0  0  0  0
    5.1101    1.8846    0.0000 C   0  0  0  0  0  0  0  0  0  0  0  0
    8.2944    4.1982    0.0000 C   0  0  0  0  0  0  0  0  0  0  0  0
    7.2998    4.3027    0.0000 C   0  0  0  0  0  0  0  0  0  0  0  0
    8.8822    5.0072    0.0000 C   0  0  0  0  0  0  0  0  0  0  0  0
    6.8931    5.2162    0.0000 C   0  0  0  0  0  0  0  0  0  0  0  0
    8.4754    5.9207    0.0000 C   0  0  0  0  0  0  0  0  0  0  0  0
    7.4809    6.0252    0.0000 C   0  0  0  0  0  0  0  0  0  0  0  0
    7.0742    6.9388    0.0000 C   0  0  0  0  0  0  0  0  0  0  0  0
    7.2673   -3.9009    0.0000 H   0  0  0  0  0  0  0  0  0  0  0  0
    6.4823   -5.1566    0.0000 H   0  0  0  0  0  0  0  0  0  0  0  0
    6.1437   -2.6196    0.0000 H   0  0  0  0  0  0  0  0  0  0  0  0
    5.3322   -2.7921    0.0000 H   0  0  0  0  0  0  0  0  0  0  0  0
    5.0982   -5.0179    0.0000 H   0  0  0  0  0  0  0  0  0  0  0  0
    5.8562   -5.3553    0.0000 H   0  0  0  0  0  0  0  0  0  0  0  0
    7.8254   -3.6459    0.0000 H   0  0  0  0  0  0  0  0  0  0  0  0
    8.2239   -2.9556    0.0000 H   0  0  0  0  0  0  0  0  0  0  0  0
    4.5345   -3.2935    0.0000 H   0  0  0  0  0  0  0  0  0  0  0  0
    6.1367   -1.4556    0.0000 H   0  0  0  0  0  0  0  0  0  0  0  0
    6.5352   -2.1459    0.0000 H   0  0  0  0  0  0  0  0  0  0  0  0
    8.6914   -2.1459    0.0000 H   0  0  0  0  0  0  0  0  0  0  0  0
    9.0899   -1.4556    0.0000 H   0  0  0  0  0  0  0  0  0  0  0  0
    7.0764    0.2467    0.0000 H   0  0  0  0  0  0  0  0  0  0  0  0
    3.2179   -5.1057    0.0000 H   0  0  0  0  0  0  0  0  0  0  0  0
    6.5352    0.0194    0.0000 H   0  0  0  0  0  0  0  0  0  0  0  0
    6.1367   -0.6709    0.0000 H   0  0  0  0  0  0  0  0  0  0  0  0
    9.0899   -0.6709    0.0000 H   0  0  0  0  0  0  0  0  0  0  0  0
    8.6914    0.0194    0.0000 H   0  0  0  0  0  0  0  0  0  0  0  0
    2.7587   -3.9036    0.0000 H   0  0  0  0  0  0  0  0  0  0  0  0
    2.0305   -4.2278    0.0000 H   0  0  0  0  0  0  0  0  0  0  0  0
    6.5883   -6.3966    0.0000 H   0  0  0  0  0  0  0  0  0  0  0  0
    8.4659   -4.3114    0.0000 H   0  0  0  0  0  0  0  0  0  0  0  0
    3.4226   -5.7699    0.0000 H   0  0  0  0  0  0  0  0  0  0  0  0
    4.2412   -6.0841    0.0000 H   0  0  0  0  0  0  0  0  0  0  0  0
    4.5554   -5.2655    0.0000 H   0  0  0  0  0  0  0  0  0  0  0  0
    9.0120    1.3329    0.0000 H   0  0  0  0  0  0  0  0  0  0  0  0
    1.4984   -4.9442    0.0000 H   0  0  0  0  0  0  0  0  0  0  0  0
    1.6356   -5.8102    0.0000 H   0  0  0  0  0  0  0  0  0  0  0  0
    2.5016   -5.6731    0.0000 H   0  0  0  0  0  0  0  0  0  0  0  0
    9.6698   -5.3954    0.0000 H   0  0  0  0  0  0  0  0  0  0  0  0
    9.3330   -6.9800    0.0000 H   0  0  0  0  0  0  0  0  0  0  0  0
    2.5167   -2.2107    0.0000 H   0  0  0  0  0  0  0  0  0  0  0  0
    5.3647    0.8338    0.0000 H   0  0  0  0  0  0  0  0  0  0  0  0
    6.1443    0.6681    0.0000 H   0  0  0  0  0  0  0  0  0  0  0  0
    9.1318    2.8386    0.0000 H   0  0  0  0  0  0  0  0  0  0  0  0
    9.2151    3.6313    0.0000 H   0  0  0  0  0  0  0  0  0  0  0  0
    5.5250    2.3454    0.0000 H   0  0  0  0  0  0  0  0  0  0  0  0
    4.6494    2.2995    0.0000 H   0  0  0  0  0  0  0  0  0  0  0  0
    4.6952    1.4239    0.0000 H   0  0  0  0  0  0  0  0  0  0  0  0
    6.9354    3.8011    0.0000 H   0  0  0  0  0  0  0  0  0  0  0  0
    9.4988    4.9424    0.0000 H   0  0  0  0  0  0  0  0  0  0  0  0
    6.2765    5.2810    0.0000 H   0  0  0  0  0  0  0  0  0  0  0  0
    8.8398    6.4223    0.0000 H   0  0  0  0  0  0  0  0  0  0  0  0
  1 32  1  0  0  0  0
  2 45  1  0  0  0  0
  3 45  1  0  0  0  0
  4 45  1  0  0  0  0
  5 25  1  0  0  0  0
  5 78  1  0  0  0  0
  6 25  2  0  0  0  0
  7 13  1  0  0  0  0
  7 14  1  0  0  0  0
  7 16  1  0  0  0  0
  8 15  1  0  0  0  0
  8 18  1  0  0  0  0
  8 19  1  0  0  0  0
  9 10  1  0  0  0  0
  9 24  1  0  0  0  0
  9 36  1  0  0  0  0
 10 34  2  0  0  0  0
 11 12  1  0  0  0  0
 11 13  1  0  0  0  0
 11 15  1  6  0  0  0
 11 46  1  0  0  0  0
 12 14  1  0  0  0  0
 12 17  1  1  0  0  0
 12 47  1  0  0  0  0
 13 48  1  0  0  0  0
 13 49  1  0  0  0  0
 14 50  1  0  0  0  0
 14 51  1  0  0  0  0
 15 52  1  0  0  0  0
 15 53  1  0  0  0  0
 16 21  1  0  0  0  0
 16 25  1  6  0  0  0
 16 54  1  0  0  0  0
 17 27  2  0  0  0  0
 17 28  1  0  0  0  0
 18 22  1  0  0  0  0
 18 55  1  0  0  0  0
 18 56  1  0  0  0  0
 19 23  1  0  0  0  0
 19 57  1  0  0  0  0
 19 58  1  0  0  0  0
 20 22  1  0  0  0  0
 20 23  1  0  0  0  0
 20 24  1  0  0  0  0
 20 59  1  0  0  0  0
 21 26  1  0  0  0  0
 21 29  1  6  0  0  0
 21 60  1  0  0  0  0
 22 61  1  0  0  0  0
 22 62  1  0  0  0  0
 23 63  1  0  0  0  0
 23 64  1  0  0  0  0
 24 30  2  0  0  0  0
 26 31  1  0  0  0  0
 26 65  1  0  0  0  0
 26 66  1  0  0  0  0
 27 32  1  0  0  0  0
 27 67  1  0  0  0  0
 28 33  2  0  0  0  0
 28 68  1  0  0  0  0
 29 69  1  0  0  0  0
 29 70  1  0  0  0  0
 29 71  1  0  0  0  0
 30 34  1  0  0  0  0
 30 72  1  0  0  0  0
 31 73  1  0  0  0  0
 31 74  1  0  0  0  0
 31 75  1  0  0  0  0
 32 35  2  0  0  0  0
 33 35  1  0  0  0  0
 33 76  1  0  0  0  0
 34 37  1  0  0  0  0
 35 77  1  0  0  0  0
 36 38  1  0  0  0  0
 36 79  1  0  0  0  0
 36 80  1  0  0  0  0
 37 39  1  0  0  0  0
 37 81  1  0  0  0  0
 37 82  1  0  0  0  0
 38 83  1  0  0  0  0
 38 84  1  0  0  0  0
 38 85  1  0  0  0  0
 39 40  2  0  0  0  0
 39 41  1  0  0  0  0
 40 42  1  0  0  0  0
 40 86  1  0  0  0  0
 41 43  2  0  0  0  0
 41 87  1  0  0  0  0
 42 44  2  0  0  0  0
 42 88  1  0  0  0  0
 43 44  1  0  0  0  0
 43 89  1  0  0  0  0
 44 45  1  0  0  0  0
M  END
> <PUBCHEM_COMPOUND_CID>
516237
> <PUBCHEM_COMPOUND_CANONICALIZED>
1
> <PUBCHEM_CACTVS_COMPLEXITY>
939
> <PUBCHEM_CACTVS_HBOND_ACCEPTOR>
9
> <PUBCHEM_CACTVS_HBOND_DONOR>
1
> <PUBCHEM_CACTVS_ROTATABLE_BOND>
11
> <PUBCHEM_CACTVS_SUBSKEYS>
AAADcfB/scAAAAAAAAAAAAAAAAAAAWLAAAA8YIAAAAAAAAAB0AAAHwAICAAADSjBnhwyiJMIAgCqAyTyTACSBAAhggAY2CG4ZJgKIDLA0fGE5AhkiADYyAeYgMAOwAAAAAAAAACAAAAAAAAAAAAAAAAAAA==
> <PUBCHEM_IUPAC_OPENEYE_NAME>
(2R,3R)-2-[(3S,4S)-3-[[4-[2-ethyl-5-[[4-(trifluoromethyl)phenyl]methyl]pyrazol-3-yl]-1-piperidyl]methyl]-4-(3-fluorophenyl)pyrrolidin-1-yl]-3-methyl-pentanoic acid
> <PUBCHEM_IUPAC_CAS_NAME>
(2R,3R)-2-[(3S,4S)-3-[[4-[2-ethyl-5-[[4-(trifluoromethyl)phenyl]methyl]-3-pyrazolyl]-1-piperidinyl]methyl]-4-(3-fluorophenyl)-1-pyrrolidinyl]-3-methylpentanoic acid
> <PUBCHEM_IUPAC_NAME_MARKUP>
(2<I>R</I>,3<I>R</I>)-2-[(3<I>S</I>,4<I>S</I>)-3-[[4-[2-ethyl-5-[[4-(trifluoromethyl)phenyl]methyl]pyrazol-3-yl]piperidin-1-yl]methyl]-4-(3-fluorophenyl)pyrrolidin-1-yl]-3-methylpentanoic acid
> <PUBCHEM_IUPAC_NAME>
(2R,3R)-2-[(3S,4S)-3-[[4-[2-ethyl-5-[[4-(trifluoromethyl)phenyl]methyl]pyrazol-3-yl]piperidin-1-yl]methyl]-4-(3-fluorophenyl)pyrrolidin-1-yl]-3-methylpentanoic acid
> <PUBCHEM_IUPAC_SYSTEMATIC_NAME>
(2R,3R)-2-[(3S,4S)-3-[[4-[2-ethyl-5-[[4-(trifluoromethyl)phenyl]methyl]pyrazol-3-yl]piperidin-1-yl]methyl]-4-(3-fluorophenyl)pyrrolidin-1-yl]-3-methyl-pentanoic acid
> <PUBCHEM_IUPAC_TRADITIONAL_NAME>
(2R,3R)-2-[(3S,4S)-3-[[4-[2-ethyl-5-[4-(trifluoromethyl)benzyl]pyrazol-3-yl]piperidino]methyl]-4-(3-fluorophenyl)pyrrolidino]-3-methyl-valeric acid
> <PUBCHEM_IUPAC_INCHI>
InChI=1S/C35H44F4N4O2/c1-4-23(3)33(34(44)45)42-21-27(31(22-42)26-7-6-8-29(36)18-26)20-41-15-13-25(14-16-41)32-19-30(40-43(32)5-2)17-24-9-11-28(12-10-24)35(37,38)39/h6-12,18-19,23,25,27,31,33H,4-5,13-17,20-22H2,1-3H3,(H,44,45)/t23-,27+,31-,33-/m1/s1
> <PUBCHEM_IUPAC_INCHIKEY>
FAZPCIDHXLZGET-KLTPPHAJSA-N
> <PUBCHEM_XLOGP3_AA>
4.9
> <PUBCHEM_EXACT_MASS>
628.34003931
> <PUBCHEM_MOLECULAR_FORMULA>
C35H44F4N4O2
> <PUBCHEM_MOLECULAR_WEIGHT>
628.7
> <PUBCHEM_OPENEYE_CAN_SMILES>
CCC(C)C(C(=O)O)N1CC(C(C1)C2=CC(=CC=C2)F)CN3CCC(CC3)C4=CC(=NN4CC)CC5=CC=C(C=C5)C(F)(F)F
> <PUBCHEM_OPENEYE_ISO_SMILES>
CC[C@@H](C)[C@H](C(=O)O)N1C[C@@H]([C@H](C1)C2=CC(=CC=C2)F)CN3CCC(CC3)C4=CC(=NN4CC)CC5=CC=C(C=C5)C(F)(F)F
> <PUBCHEM_CACTVS_TPSA>
61.6
> <PUBCHEM_MONOISOTOPIC_WEIGHT>
628.34003931
> <PUBCHEM_TOTAL_CHARGE>
0
> <PUBCHEM_HEAVY_ATOM_COUNT>
45
> <PUBCHEM_ATOM_DEF_STEREO_COUNT>
4
> <PUBCHEM_ATOM_UDEF_STEREO_COUNT>
0
> <PUBCHEM_BOND_DEF_STEREO_COUNT>
0
> <PUBCHEM_BOND_UDEF_STEREO_COUNT>
0
> <PUBCHEM_ISOTOPIC_ATOM_COUNT>
0
> <PUBCHEM_COMPONENT_COUNT>
1
> <PUBCHEM_CACTVS_TAUTO_COUNT>
-1
> <PUBCHEM_COORDINATE_TYPE>
1
5
255
> <PUBCHEM_BONDANNOTATIONS>
10  34  8
11  15  6
12  17  5
16  25  6
17  27  8
17  28  8
21  29  6
24  30  8
27  32  8
28  33  8
30  34  8
32  35  8
33  35  8
39  40  8
39  41  8
40  42  8
41  43  8
42  44  8
43  44  8
9  10  8
9  24  8
$$$$
