516229
  -OEChem-10302200282D
 93 97  0     1  0  0  0  0  0999 V2000
    7.7132   -7.9046    0.0000 F   0  0  0  0  0  0  0  0  0  0  0  0
    9.0632    6.6775    0.0000 F   0  0  0  0  0  0  0  0  0  0  0  0
    2.7688   -2.8293    0.0000 O   0  0  0  0  0  0  0  0  0  0  0  0
    4.3511   -2.1248    0.0000 O   0  0  0  0  0  0  0  0  0  0  0  0
    7.0742    6.8865    0.0000 O   0  0  0  0  0  0  0  0  0  0  0  0
    5.1646   -3.9519    0.0000 N   0  0  3  0  0  0  0  0  0  0  0  0
    7.6133   -2.1155    0.0000 N   0  0  0  0  0  0  0  0  0  0  0  0
    6.8043    1.4723    0.0000 N   0  0  0  0  0  0  0  0  0  0  0  0
    7.1133    2.4233    0.0000 N   0  0  0  0  0  0  0  0  0  0  0  0
    6.7473   -3.6155    0.0000 C   0  0  2  0  0  0  0  0  0  0  0  0
    6.6428   -4.6100    0.0000 C   0  0  2  0  0  0  0  0  0  0  0  0
    5.8338   -3.2088    0.0000 C   0  0  0  0  0  0  0  0  0  0  0  0
    5.6646   -4.8180    0.0000 C   0  0  0  0  0  0  0  0  0  0  0  0
    7.6133   -3.1155    0.0000 C   0  0  0  0  0  0  0  0  0  0  0  0
    4.1701   -3.8474    0.0000 C   0  0  2  0  0  0  0  0  0  0  0  0
    7.3859   -5.2792    0.0000 C   0  0  0  0  0  0  0  0  0  0  0  0
    6.7473   -1.6155    0.0000 C   0  0  0  0  0  0  0  0  0  0  0  0
    8.4793   -1.6155    0.0000 C   0  0  0  0  0  0  0  0  0  0  0  0
    7.6133   -0.1155    0.0000 C   0  0  0  0  0  0  0  0  0  0  0  0
    3.5823   -4.6564    0.0000 C   0  0  2  0  0  0  0  0  0  0  0  0
    6.7473   -0.6155    0.0000 C   0  0  0  0  0  0  0  0  0  0  0  0
    8.4793   -0.6155    0.0000 C   0  0  0  0  0  0  0  0  0  0  0  0
    3.7634   -2.9338    0.0000 C   0  0  0  0  0  0  0  0  0  0  0  0
    2.5878   -4.5519    0.0000 C   0  0  0  0  0  0  0  0  0  0  0  0
    7.6133    0.8845    0.0000 C   0  0  0  0  0  0  0  0  0  0  0  0
    7.1780   -6.2573    0.0000 C   0  0  0  0  0  0  0  0  0  0  0  0
    8.3370   -4.9702    0.0000 C   0  0  0  0  0  0  0  0  0  0  0  0
    3.9890   -5.5700    0.0000 C   0  0  0  0  0  0  0  0  0  0  0  0
    8.4223    1.4723    0.0000 C   0  0  0  0  0  0  0  0  0  0  0  0
    2.0000   -5.3609    0.0000 C   0  0  0  0  0  0  0  0  0  0  0  0
    7.9211   -6.9264    0.0000 C   0  0  0  0  0  0  0  0  0  0  0  0
    9.0801   -5.6393    0.0000 C   0  0  0  0  0  0  0  0  0  0  0  0
    8.8722   -6.6174    0.0000 C   0  0  0  0  0  0  0  0  0  0  0  0
    8.1133    2.4233    0.0000 C   0  0  0  0  0  0  0  0  0  0  0  0
    5.8532    1.1632    0.0000 C   0  0  0  0  0  0  0  0  0  0  0  0
    8.7011    3.2323    0.0000 C   0  0  0  0  0  0  0  0  0  0  0  0
    5.1101    1.8324    0.0000 C   0  0  0  0  0  0  0  0  0  0  0  0
    8.2944    4.1459    0.0000 C   0  0  0  0  0  0  0  0  0  0  0  0
    8.8822    4.9549    0.0000 C   0  0  0  0  0  0  0  0  0  0  0  0
    7.2998    4.2504    0.0000 C   0  0  0  0  0  0  0  0  0  0  0  0
    8.4754    5.8684    0.0000 C   0  0  0  0  0  0  0  0  0  0  0  0
    6.8931    5.1640    0.0000 C   0  0  0  0  0  0  0  0  0  0  0  0
    7.4809    5.9730    0.0000 C   0  0  0  0  0  0  0  0  0  0  0  0
    6.0796    6.9910    0.0000 C   0  0  0  0  0  0  0  0  0  0  0  0
    5.6729    7.9046    0.0000 C   0  0  0  0  0  0  0  0  0  0  0  0
    7.2673   -3.9532    0.0000 H   0  0  0  0  0  0  0  0  0  0  0  0
    6.4823   -5.2089    0.0000 H   0  0  0  0  0  0  0  0  0  0  0  0
    6.1437   -2.6718    0.0000 H   0  0  0  0  0  0  0  0  0  0  0  0
    5.3322   -2.8444    0.0000 H   0  0  0  0  0  0  0  0  0  0  0  0
    5.0982   -5.0701    0.0000 H   0  0  0  0  0  0  0  0  0  0  0  0
    5.8562   -5.4076    0.0000 H   0  0  0  0  0  0  0  0  0  0  0  0
    7.8254   -3.6981    0.0000 H   0  0  0  0  0  0  0  0  0  0  0  0
    8.2239   -3.0079    0.0000 H   0  0  0  0  0  0  0  0  0  0  0  0
    4.5345   -3.3458    0.0000 H   0  0  0  0  0  0  0  0  0  0  0  0
    6.1367   -1.5079    0.0000 H   0  0  0  0  0  0  0  0  0  0  0  0
    6.5352   -2.1981    0.0000 H   0  0  0  0  0  0  0  0  0  0  0  0
    8.6914   -2.1981    0.0000 H   0  0  0  0  0  0  0  0  0  0  0  0
    9.0899   -1.5079    0.0000 H   0  0  0  0  0  0  0  0  0  0  0  0
    7.0764    0.1945    0.0000 H   0  0  0  0  0  0  0  0  0  0  0  0
    3.2179   -5.1580    0.0000 H   0  0  0  0  0  0  0  0  0  0  0  0
    6.5352   -0.0329    0.0000 H   0  0  0  0  0  0  0  0  0  0  0  0
    6.1367   -0.7232    0.0000 H   0  0  0  0  0  0  0  0  0  0  0  0
    9.0899   -0.7232    0.0000 H   0  0  0  0  0  0  0  0  0  0  0  0
    8.6914   -0.0329    0.0000 H   0  0  0  0  0  0  0  0  0  0  0  0
    2.7587   -3.9559    0.0000 H   0  0  0  0  0  0  0  0  0  0  0  0
    2.0305   -4.2801    0.0000 H   0  0  0  0  0  0  0  0  0  0  0  0
    6.5883   -6.4489    0.0000 H   0  0  0  0  0  0  0  0  0  0  0  0
    8.4659   -4.3637    0.0000 H   0  0  0  0  0  0  0  0  0  0  0  0
    3.4226   -5.8221    0.0000 H   0  0  0  0  0  0  0  0  0  0  0  0
    4.2412   -6.1364    0.0000 H   0  0  0  0  0  0  0  0  0  0  0  0
    4.5554   -5.3178    0.0000 H   0  0  0  0  0  0  0  0  0  0  0  0
    9.0120    1.2807    0.0000 H   0  0  0  0  0  0  0  0  0  0  0  0
    1.4984   -4.9965    0.0000 H   0  0  0  0  0  0  0  0  0  0  0  0
    1.6356   -5.8625    0.0000 H   0  0  0  0  0  0  0  0  0  0  0  0
    2.5016   -5.7253    0.0000 H   0  0  0  0  0  0  0  0  0  0  0  0
    9.6698   -5.4477    0.0000 H   0  0  0  0  0  0  0  0  0  0  0  0
    9.3330   -7.0323    0.0000 H   0  0  0  0  0  0  0  0  0  0  0  0
    2.5167   -2.2629    0.0000 H   0  0  0  0  0  0  0  0  0  0  0  0
    5.3647    0.7815    0.0000 H   0  0  0  0  0  0  0  0  0  0  0  0
    6.1443    0.6158    0.0000 H   0  0  0  0  0  0  0  0  0  0  0  0
    9.1318    2.7864    0.0000 H   0  0  0  0  0  0  0  0  0  0  0  0
    9.2151    3.5790    0.0000 H   0  0  0  0  0  0  0  0  0  0  0  0
    5.5250    2.2931    0.0000 H   0  0  0  0  0  0  0  0  0  0  0  0
    4.6494    2.2472    0.0000 H   0  0  0  0  0  0  0  0  0  0  0  0
    4.6952    1.3716    0.0000 H   0  0  0  0  0  0  0  0  0  0  0  0
    9.4988    4.8901    0.0000 H   0  0  0  0  0  0  0  0  0  0  0  0
    6.9354    3.7488    0.0000 H   0  0  0  0  0  0  0  0  0  0  0  0
    6.2765    5.2288    0.0000 H   0  0  0  0  0  0  0  0  0  0  0  0
    5.4780    6.8411    0.0000 H   0  0  0  0  0  0  0  0  0  0  0  0
    6.1229    6.3726    0.0000 H   0  0  0  0  0  0  0  0  0  0  0  0
    6.2393    8.1568    0.0000 H   0  0  0  0  0  0  0  0  0  0  0  0
    5.4207    8.4710    0.0000 H   0  0  0  0  0  0  0  0  0  0  0  0
    5.1065    7.6524    0.0000 H   0  0  0  0  0  0  0  0  0  0  0  0
  1 31  1  0  0  0  0
  2 41  1  0  0  0  0
  3 23  1  0  0  0  0
  3 78  1  0  0  0  0
  4 23  2  0  0  0  0
  5 43  1  0  0  0  0
  5 44  1  0  0  0  0
  6 12  1  0  0  0  0
  6 13  1  0  0  0  0
  6 15  1  0  0  0  0
  7 14  1  0  0  0  0
  7 17  1  0  0  0  0
  7 18  1  0  0  0  0
  8  9  1  0  0  0  0
  8 25  1  0  0  0  0
  8 35  1  0  0  0  0
  9 34  2  0  0  0  0
 10 11  1  0  0  0  0
 10 12  1  0  0  0  0
 10 14  1  6  0  0  0
 10 46  1  0  0  0  0
 11 13  1  0  0  0  0
 11 16  1  1  0  0  0
 11 47  1  0  0  0  0
 12 48  1  0  0  0  0
 12 49  1  0  0  0  0
 13 50  1  0  0  0  0
 13 51  1  0  0  0  0
 14 52  1  0  0  0  0
 14 53  1  0  0  0  0
 15 20  1  0  0  0  0
 15 23  1  6  0  0  0
 15 54  1  0  0  0  0
 16 26  2  0  0  0  0
 16 27  1  0  0  0  0
 17 21  1  0  0  0  0
 17 55  1  0  0  0  0
 17 56  1  0  0  0  0
 18 22  1  0  0  0  0
 18 57  1  0  0  0  0
 18 58  1  0  0  0  0
 19 21  1  0  0  0  0
 19 22  1  0  0  0  0
 19 25  1  0  0  0  0
 19 59  1  0  0  0  0
 20 24  1  0  0  0  0
 20 28  1  1  0  0  0
 20 60  1  0  0  0  0
 21 61  1  0  0  0  0
 21 62  1  0  0  0  0
 22 63  1  0  0  0  0
 22 64  1  0  0  0  0
 24 30  1  0  0  0  0
 24 65  1  0  0  0  0
 24 66  1  0  0  0  0
 25 29  2  0  0  0  0
 26 31  1  0  0  0  0
 26 67  1  0  0  0  0
 27 32  2  0  0  0  0
 27 68  1  0  0  0  0
 28 69  1  0  0  0  0
 28 70  1  0  0  0  0
 28 71  1  0  0  0  0
 29 34  1  0  0  0  0
 29 72  1  0  0  0  0
 30 73  1  0  0  0  0
 30 74  1  0  0  0  0
 30 75  1  0  0  0  0
 31 33  2  0  0  0  0
 32 33  1  0  0  0  0
 32 76  1  0  0  0  0
 33 77  1  0  0  0  0
 34 36  1  0  0  0  0
 35 37  1  0  0  0  0
 35 79  1  0  0  0  0
 35 80  1  0  0  0  0
 36 38  1  0  0  0  0
 36 81  1  0  0  0  0
 36 82  1  0  0  0  0
 37 83  1  0  0  0  0
 37 84  1  0  0  0  0
 37 85  1  0  0  0  0
 38 39  2  0  0  0  0
 38 40  1  0  0  0  0
 39 41  1  0  0  0  0
 39 86  1  0  0  0  0
 40 42  2  0  0  0  0
 40 87  1  0  0  0  0
 41 43  2  0  0  0  0
 42 43  1  0  0  0  0
 42 88  1  0  0  0  0
 44 45  1  0  0  0  0
 44 89  1  0  0  0  0
 44 90  1  0  0  0  0
 45 91  1  0  0  0  0
 45 92  1  0  0  0  0
 45 93  1  0  0  0  0
M  END
> <PUBCHEM_COMPOUND_CID>
516229
> <PUBCHEM_COMPOUND_CANONICALIZED>
1
> <PUBCHEM_CACTVS_COMPLEXITY>
923
> <PUBCHEM_CACTVS_HBOND_ACCEPTOR>
8
> <PUBCHEM_CACTVS_HBOND_DONOR>
1
> <PUBCHEM_CACTVS_ROTATABLE_BOND>
13
> <PUBCHEM_CACTVS_SUBSKEYS>
AAADcfB/sYAAAAAAAAAAAAAAAAAAAWLAAAA8YIAAAAAAAAAB0AAAHwAICAAADSzhng4yjpMIBgCqAyTyTACSDAAhogAY2CG+bJgOJjLE8fuG/CjkyBHY6AeYwOAOoAAAAAAAAABAAAAAAAAAAAAAAAAAAA==
> <PUBCHEM_IUPAC_OPENEYE_NAME>
(2R,3S)-2-[(3S,4S)-3-[[4-[5-[(4-ethoxy-3-fluoro-phenyl)methyl]-2-ethyl-pyrazol-3-yl]-1-piperidyl]methyl]-4-(3-fluorophenyl)pyrrolidin-1-yl]-3-methyl-pentanoic acid
> <PUBCHEM_IUPAC_CAS_NAME>
(2R,3S)-2-[(3S,4S)-3-[[4-[5-[(4-ethoxy-3-fluorophenyl)methyl]-2-ethyl-3-pyrazolyl]-1-piperidinyl]methyl]-4-(3-fluorophenyl)-1-pyrrolidinyl]-3-methylpentanoic acid
> <PUBCHEM_IUPAC_NAME_MARKUP>
(2<I>R</I>,3<I>S</I>)-2-[(3<I>S</I>,4<I>S</I>)-3-[[4-[5-[(4-ethoxy-3-fluorophenyl)methyl]-2-ethylpyrazol-3-yl]piperidin-1-yl]methyl]-4-(3-fluorophenyl)pyrrolidin-1-yl]-3-methylpentanoic acid
> <PUBCHEM_IUPAC_NAME>
(2R,3S)-2-[(3S,4S)-3-[[4-[5-[(4-ethoxy-3-fluorophenyl)methyl]-2-ethylpyrazol-3-yl]piperidin-1-yl]methyl]-4-(3-fluorophenyl)pyrrolidin-1-yl]-3-methylpentanoic acid
> <PUBCHEM_IUPAC_SYSTEMATIC_NAME>
(2R,3S)-2-[(3S,4S)-3-[[4-[5-[(4-ethoxy-3-fluoranyl-phenyl)methyl]-2-ethyl-pyrazol-3-yl]piperidin-1-yl]methyl]-4-(3-fluorophenyl)pyrrolidin-1-yl]-3-methyl-pentanoic acid
> <PUBCHEM_IUPAC_TRADITIONAL_NAME>
(2R,3S)-2-[(3S,4S)-3-[[4-[5-(4-ethoxy-3-fluoro-benzyl)-2-ethyl-pyrazol-3-yl]piperidino]methyl]-4-(3-fluorophenyl)pyrrolidino]-3-methyl-valeric acid
> <PUBCHEM_IUPAC_INCHI>
InChI=1S/C36H48F2N4O3/c1-5-24(4)35(36(43)44)41-22-28(31(23-41)27-9-8-10-29(37)19-27)21-40-15-13-26(14-16-40)33-20-30(39-42(33)6-2)17-25-11-12-34(45-7-3)32(38)18-25/h8-12,18-20,24,26,28,31,35H,5-7,13-17,21-23H2,1-4H3,(H,43,44)/t24-,28-,31+,35+/m0/s1
> <PUBCHEM_IUPAC_INCHIKEY>
HBHXAVXLZKWCKM-GTRCSXEUSA-N
> <PUBCHEM_XLOGP3_AA>
4.5
> <PUBCHEM_EXACT_MASS>
622.36944773
> <PUBCHEM_MOLECULAR_FORMULA>
C36H48F2N4O3
> <PUBCHEM_MOLECULAR_WEIGHT>
622.8
> <PUBCHEM_OPENEYE_CAN_SMILES>
CCC(C)C(C(=O)O)N1CC(C(C1)C2=CC(=CC=C2)F)CN3CCC(CC3)C4=CC(=NN4CC)CC5=CC(=C(C=C5)OCC)F
> <PUBCHEM_OPENEYE_ISO_SMILES>
CC[C@H](C)[C@H](C(=O)O)N1C[C@@H]([C@H](C1)C2=CC(=CC=C2)F)CN3CCC(CC3)C4=CC(=NN4CC)CC5=CC(=C(C=C5)OCC)F
> <PUBCHEM_CACTVS_TPSA>
70.8
> <PUBCHEM_MONOISOTOPIC_WEIGHT>
622.36944773
> <PUBCHEM_TOTAL_CHARGE>
0
> <PUBCHEM_HEAVY_ATOM_COUNT>
45
> <PUBCHEM_ATOM_DEF_STEREO_COUNT>
4
> <PUBCHEM_ATOM_UDEF_STEREO_COUNT>
0
> <PUBCHEM_BOND_DEF_STEREO_COUNT>
0
> <PUBCHEM_BOND_UDEF_STEREO_COUNT>
0
> <PUBCHEM_ISOTOPIC_ATOM_COUNT>
0
> <PUBCHEM_COMPONENT_COUNT>
1
> <PUBCHEM_CACTVS_TAUTO_COUNT>
-1
> <PUBCHEM_COORDINATE_TYPE>
1
5
255
> <PUBCHEM_BONDANNOTATIONS>
10  14  6
11  16  5
15  23  6
16  26  8
16  27  8
20  28  5
25  29  8
26  31  8
27  32  8
29  34  8
31  33  8
32  33  8
38  39  8
38  40  8
39  41  8
40  42  8
41  43  8
42  43  8
8  25  8
8  9  8
9  34  8
$$$$
