516267
  -OEChem-10302200282D
 99104  0     1  0  0  0  0  0999 V2000
   13.1792    3.2881    0.0000 S   0  0  0  0  0  0  0  0  0  0  0  0
    2.0000   -0.5303    0.0000 F   0  0  0  0  0  0  0  0  0  0  0  0
    4.7986   -5.9781    0.0000 O   0  0  0  0  0  0  0  0  0  0  0  0
    3.9326   -4.4781    0.0000 O   0  0  0  0  0  0  0  0  0  0  0  0
   14.1792    3.2881    0.0000 O   0  0  0  0  0  0  0  0  0  0  0  0
   12.1792    3.2881    0.0000 O   0  0  0  0  0  0  0  0  0  0  0  0
    5.6646   -3.4781    0.0000 N   0  0  3  0  0  0  0  0  0  0  0  0
    7.7469   -1.2348    0.0000 N   0  0  0  0  0  0  0  0  0  0  0  0
   11.2305   -2.4144    0.0000 N   0  0  0  0  0  0  0  0  0  0  0  0
   12.2086   -2.2064    0.0000 N   0  0  0  0  0  0  0  0  0  0  0  0
    6.1646   -1.9392    0.0000 C   0  0  2  0  0  0  0  0  0  0  0  0
    5.1646   -1.9392    0.0000 C   0  0  2  0  0  0  0  0  0  0  0  0
    6.4736   -2.8903    0.0000 C   0  0  0  0  0  0  0  0  0  0  0  0
    4.8556   -2.8903    0.0000 C   0  0  0  0  0  0  0  0  0  0  0  0
    6.7524   -1.1302    0.0000 C   0  0  0  0  0  0  0  0  0  0  0  0
    5.6646   -4.4781    0.0000 C   0  0  2  0  0  0  0  0  0  0  0  0
    6.5306   -4.9781    0.0000 C   0  0  0  0  0  0  0  0  0  0  0  0
    4.5768   -1.1302    0.0000 C   0  0  0  0  0  0  0  0  0  0  0  0
    8.1537   -2.1483    0.0000 C   0  0  0  0  0  0  0  0  0  0  0  0
    8.3347   -0.4257    0.0000 C   0  0  0  0  0  0  0  0  0  0  0  0
    9.7360   -1.4438    0.0000 C   0  0  0  0  0  0  0  0  0  0  0  0
    9.1482   -2.2528    0.0000 C   0  0  0  0  0  0  0  0  0  0  0  0
    9.3292   -0.5303    0.0000 C   0  0  0  0  0  0  0  0  0  0  0  0
    4.7986   -4.9781    0.0000 C   0  0  0  0  0  0  0  0  0  0  0  0
    7.3967   -5.4781    0.0000 C   0  0  0  0  0  0  0  0  0  0  0  0
    6.0306   -5.8441    0.0000 C   0  0  0  0  0  0  0  0  0  0  0  0
    7.0306   -4.1120    0.0000 C   0  0  0  0  0  0  0  0  0  0  0  0
   10.7305   -1.5483    0.0000 C   0  0  0  0  0  0  0  0  0  0  0  0
    3.5823   -1.2348    0.0000 C   0  0  0  0  0  0  0  0  0  0  0  0
    4.9836   -0.2167    0.0000 C   0  0  0  0  0  0  0  0  0  0  0  0
   11.3996   -0.8052    0.0000 C   0  0  0  0  0  0  0  0  0  0  0  0
    2.9945   -0.4257    0.0000 C   0  0  0  0  0  0  0  0  0  0  0  0
    4.3958    0.5923    0.0000 C   0  0  0  0  0  0  0  0  0  0  0  0
    3.4013    0.4878    0.0000 C   0  0  0  0  0  0  0  0  0  0  0  0
   12.3132   -1.2119    0.0000 C   0  0  0  0  0  0  0  0  0  0  0  0
   10.8238   -3.3279    0.0000 C   0  0  0  0  0  0  0  0  0  0  0  0
   13.1792   -0.7119    0.0000 C   0  0  0  0  0  0  0  0  0  0  0  0
   11.4115   -4.1369    0.0000 C   0  0  0  0  0  0  0  0  0  0  0  0
   13.1792    0.2881    0.0000 C   0  0  0  0  0  0  0  0  0  0  0  0
   14.0452    0.7881    0.0000 C   0  0  0  0  0  0  0  0  0  0  0  0
   12.3132    0.7881    0.0000 C   0  0  0  0  0  0  0  0  0  0  0  0
   14.0452    1.7881    0.0000 C   0  0  0  0  0  0  0  0  0  0  0  0
   12.3132    1.7881    0.0000 C   0  0  0  0  0  0  0  0  0  0  0  0
   13.1792    2.2881    0.0000 C   0  0  0  0  0  0  0  0  0  0  0  0
   13.1792    4.2881    0.0000 C   0  0  0  0  0  0  0  0  0  0  0  0
   12.3132    4.7881    0.0000 C   0  0  0  0  0  0  0  0  0  0  0  0
   14.0452    4.7881    0.0000 C   0  0  0  0  0  0  0  0  0  0  0  0
   12.3132    5.7881    0.0000 C   0  0  0  0  0  0  0  0  0  0  0  0
   14.0452    5.7881    0.0000 C   0  0  0  0  0  0  0  0  0  0  0  0
   13.1792    6.2881    0.0000 C   0  0  0  0  0  0  0  0  0  0  0  0
    5.8831   -1.3868    0.0000 H   0  0  0  0  0  0  0  0  0  0  0  0
    4.5522   -2.0362    0.0000 H   0  0  0  0  0  0  0  0  0  0  0  0
    6.7836   -3.4272    0.0000 H   0  0  0  0  0  0  0  0  0  0  0  0
    7.0400   -2.6381    0.0000 H   0  0  0  0  0  0  0  0  0  0  0  0
    4.2892   -2.6381    0.0000 H   0  0  0  0  0  0  0  0  0  0  0  0
    4.5456   -3.4272    0.0000 H   0  0  0  0  0  0  0  0  0  0  0  0
    6.9233   -0.5342    0.0000 H   0  0  0  0  0  0  0  0  0  0  0  0
    6.1952   -0.8584    0.0000 H   0  0  0  0  0  0  0  0  0  0  0  0
    5.1277   -4.1681    0.0000 H   0  0  0  0  0  0  0  0  0  0  0  0
    7.5521   -2.2983    0.0000 H   0  0  0  0  0  0  0  0  0  0  0  0
    8.1969   -2.7668    0.0000 H   0  0  0  0  0  0  0  0  0  0  0  0
    8.5056    0.1703    0.0000 H   0  0  0  0  0  0  0  0  0  0  0  0
    7.7774   -0.1539    0.0000 H   0  0  0  0  0  0  0  0  0  0  0  0
   10.1004   -0.9422    0.0000 H   0  0  0  0  0  0  0  0  0  0  0  0
    8.9773   -2.8488    0.0000 H   0  0  0  0  0  0  0  0  0  0  0  0
    9.7054   -2.5246    0.0000 H   0  0  0  0  0  0  0  0  0  0  0  0
    9.9308   -0.3803    0.0000 H   0  0  0  0  0  0  0  0  0  0  0  0
    9.2860    0.0882    0.0000 H   0  0  0  0  0  0  0  0  0  0  0  0
    7.0867   -6.0150    0.0000 H   0  0  0  0  0  0  0  0  0  0  0  0
    7.9336   -5.7881    0.0000 H   0  0  0  0  0  0  0  0  0  0  0  0
    7.7067   -4.9411    0.0000 H   0  0  0  0  0  0  0  0  0  0  0  0
    5.4937   -5.5341    0.0000 H   0  0  0  0  0  0  0  0  0  0  0  0
    5.7206   -6.3810    0.0000 H   0  0  0  0  0  0  0  0  0  0  0  0
    6.5676   -6.1541    0.0000 H   0  0  0  0  0  0  0  0  0  0  0  0
    7.5676   -4.4220    0.0000 H   0  0  0  0  0  0  0  0  0  0  0  0
    7.3406   -3.5751    0.0000 H   0  0  0  0  0  0  0  0  0  0  0  0
    6.4937   -3.8020    0.0000 H   0  0  0  0  0  0  0  0  0  0  0  0
    3.3301   -1.8011    0.0000 H   0  0  0  0  0  0  0  0  0  0  0  0
    5.6002   -0.1519    0.0000 H   0  0  0  0  0  0  0  0  0  0  0  0
   11.2707   -0.1987    0.0000 H   0  0  0  0  0  0  0  0  0  0  0  0
    4.6480    1.1587    0.0000 H   0  0  0  0  0  0  0  0  0  0  0  0
    4.2617   -6.2881    0.0000 H   0  0  0  0  0  0  0  0  0  0  0  0
    3.0368    0.9894    0.0000 H   0  0  0  0  0  0  0  0  0  0  0  0
   10.3097   -2.9812    0.0000 H   0  0  0  0  0  0  0  0  0  0  0  0
   10.3931   -3.7739    0.0000 H   0  0  0  0  0  0  0  0  0  0  0  0
   13.3912   -1.2945    0.0000 H   0  0  0  0  0  0  0  0  0  0  0  0
   13.7898   -0.6043    0.0000 H   0  0  0  0  0  0  0  0  0  0  0  0
   10.9099   -4.5014    0.0000 H   0  0  0  0  0  0  0  0  0  0  0  0
   11.7760   -4.6385    0.0000 H   0  0  0  0  0  0  0  0  0  0  0  0
   11.9131   -3.7725    0.0000 H   0  0  0  0  0  0  0  0  0  0  0  0
   14.5821    0.4781    0.0000 H   0  0  0  0  0  0  0  0  0  0  0  0
   11.7762    0.4781    0.0000 H   0  0  0  0  0  0  0  0  0  0  0  0
   14.5821    2.0981    0.0000 H   0  0  0  0  0  0  0  0  0  0  0  0
   11.7762    2.0981    0.0000 H   0  0  0  0  0  0  0  0  0  0  0  0
   11.7762    4.4781    0.0000 H   0  0  0  0  0  0  0  0  0  0  0  0
   14.5821    4.4781    0.0000 H   0  0  0  0  0  0  0  0  0  0  0  0
   11.7762    6.0981    0.0000 H   0  0  0  0  0  0  0  0  0  0  0  0
   14.5821    6.0981    0.0000 H   0  0  0  0  0  0  0  0  0  0  0  0
   13.1792    6.9081    0.0000 H   0  0  0  0  0  0  0  0  0  0  0  0
  1  5  2  0  0  0  0
  1  6  2  0  0  0  0
  1 44  1  0  0  0  0
  1 45  1  0  0  0  0
  2 32  1  0  0  0  0
  3 24  1  0  0  0  0
  3 82  1  0  0  0  0
  4 24  2  0  0  0  0
  7 13  1  0  0  0  0
  7 14  1  0  0  0  0
  7 16  1  0  0  0  0
  8 15  1  0  0  0  0
  8 19  1  0  0  0  0
  8 20  1  0  0  0  0
  9 10  1  0  0  0  0
  9 28  1  0  0  0  0
  9 36  1  0  0  0  0
 10 35  2  0  0  0  0
 11 12  1  0  0  0  0
 11 13  1  0  0  0  0
 11 15  1  1  0  0  0
 11 51  1  0  0  0  0
 12 14  1  0  0  0  0
 12 18  1  6  0  0  0
 12 52  1  0  0  0  0
 13 53  1  0  0  0  0
 13 54  1  0  0  0  0
 14 55  1  0  0  0  0
 14 56  1  0  0  0  0
 15 57  1  0  0  0  0
 15 58  1  0  0  0  0
 16 17  1  0  0  0  0
 16 24  1  6  0  0  0
 16 59  1  0  0  0  0
 17 25  1  0  0  0  0
 17 26  1  0  0  0  0
 17 27  1  0  0  0  0
 18 29  2  0  0  0  0
 18 30  1  0  0  0  0
 19 22  1  0  0  0  0
 19 60  1  0  0  0  0
 19 61  1  0  0  0  0
 20 23  1  0  0  0  0
 20 62  1  0  0  0  0
 20 63  1  0  0  0  0
 21 22  1  0  0  0  0
 21 23  1  0  0  0  0
 21 28  1  0  0  0  0
 21 64  1  0  0  0  0
 22 65  1  0  0  0  0
 22 66  1  0  0  0  0
 23 67  1  0  0  0  0
 23 68  1  0  0  0  0
 25 69  1  0  0  0  0
 25 70  1  0  0  0  0
 25 71  1  0  0  0  0
 26 72  1  0  0  0  0
 26 73  1  0  0  0  0
 26 74  1  0  0  0  0
 27 75  1  0  0  0  0
 27 76  1  0  0  0  0
 27 77  1  0  0  0  0
 28 31  2  0  0  0  0
 29 32  1  0  0  0  0
 29 78  1  0  0  0  0
 30 33  2  0  0  0  0
 30 79  1  0  0  0  0
 31 35  1  0  0  0  0
 31 80  1  0  0  0  0
 32 34  2  0  0  0  0
 33 34  1  0  0  0  0
 33 81  1  0  0  0  0
 34 83  1  0  0  0  0
 35 37  1  0  0  0  0
 36 38  1  0  0  0  0
 36 84  1  0  0  0  0
 36 85  1  0  0  0  0
 37 39  1  0  0  0  0
 37 86  1  0  0  0  0
 37 87  1  0  0  0  0
 38 88  1  0  0  0  0
 38 89  1  0  0  0  0
 38 90  1  0  0  0  0
 39 40  2  0  0  0  0
 39 41  1  0  0  0  0
 40 42  1  0  0  0  0
 40 91  1  0  0  0  0
 41 43  2  0  0  0  0
 41 92  1  0  0  0  0
 42 44  2  0  0  0  0
 42 93  1  0  0  0  0
 43 44  1  0  0  0  0
 43 94  1  0  0  0  0
 45 46  2  0  0  0  0
 45 47  1  0  0  0  0
 46 48  1  0  0  0  0
 46 95  1  0  0  0  0
 47 49  2  0  0  0  0
 47 96  1  0  0  0  0
 48 50  2  0  0  0  0
 48 97  1  0  0  0  0
 49 50  1  0  0  0  0
 49 98  1  0  0  0  0
 50 99  1  0  0  0  0
M  END
> <PUBCHEM_COMPOUND_CID>
516267
> <PUBCHEM_COMPOUND_CANONICALIZED>
1
> <PUBCHEM_CACTVS_COMPLEXITY>
1200
> <PUBCHEM_CACTVS_HBOND_ACCEPTOR>
8
> <PUBCHEM_CACTVS_HBOND_DONOR>
1
> <PUBCHEM_CACTVS_ROTATABLE_BOND>
12
> <PUBCHEM_CACTVS_SUBSKEYS>
AAADcfB/uQBAAAAAAAAAAAAAAAAAAWLAAAA8YMEAAAAAAAAB1AAAHwQICAAADyjB3gwyiZMIAgqqAyTyTHDSBAAhihAY2Dm4ZJgKIDLg0fGE5AhkiAD4yAcQgMAPkAAAAAAAAAAgAAAAAAAAAAAAAAAAAA==
> <PUBCHEM_IUPAC_OPENEYE_NAME>
(2R)-2-[(3S,4S)-3-[[4-[5-[[4-(benzenesulfonyl)phenyl]methyl]-2-ethyl-pyrazol-3-yl]-1-piperidyl]methyl]-4-(3-fluorophenyl)pyrrolidin-1-yl]-3,3-dimethyl-butanoic acid
> <PUBCHEM_IUPAC_CAS_NAME>
(2R)-2-[(3S,4S)-3-[[4-[5-[[4-(benzenesulfonyl)phenyl]methyl]-2-ethyl-3-pyrazolyl]-1-piperidinyl]methyl]-4-(3-fluorophenyl)-1-pyrrolidinyl]-3,3-dimethylbutanoic acid
> <PUBCHEM_IUPAC_NAME_MARKUP>
(2<I>R</I>)-2-[(3<I>S</I>,4<I>S</I>)-3-[[4-[5-[[4-(benzenesulfonyl)phenyl]methyl]-2-ethylpyrazol-3-yl]piperidin-1-yl]methyl]-4-(3-fluorophenyl)pyrrolidin-1-yl]-3,3-dimethylbutanoic acid
> <PUBCHEM_IUPAC_NAME>
(2R)-2-[(3S,4S)-3-[[4-[5-[[4-(benzenesulfonyl)phenyl]methyl]-2-ethylpyrazol-3-yl]piperidin-1-yl]methyl]-4-(3-fluorophenyl)pyrrolidin-1-yl]-3,3-dimethylbutanoic acid
> <PUBCHEM_IUPAC_SYSTEMATIC_NAME>
(2R)-2-[(3S,4S)-3-[[4-[2-ethyl-5-[[4-(phenylsulfonyl)phenyl]methyl]pyrazol-3-yl]piperidin-1-yl]methyl]-4-(3-fluorophenyl)pyrrolidin-1-yl]-3,3-dimethyl-butanoic acid
> <PUBCHEM_IUPAC_TRADITIONAL_NAME>
(2R)-2-[(3S,4S)-3-[[4-[5-(4-besylbenzyl)-2-ethyl-pyrazol-3-yl]piperidino]methyl]-4-(3-fluorophenyl)pyrrolidino]-3,3-dimethyl-butyric acid
> <PUBCHEM_IUPAC_INCHI>
InChI=1S/C40H49FN4O4S/c1-5-45-37(24-33(42-45)22-28-14-16-35(17-15-28)50(48,49)34-12-7-6-8-13-34)29-18-20-43(21-19-29)25-31-26-44(38(39(46)47)40(2,3)4)27-36(31)30-10-9-11-32(41)23-30/h6-17,23-24,29,31,36,38H,5,18-22,25-27H2,1-4H3,(H,46,47)/t31-,36+,38-/m0/s1
> <PUBCHEM_IUPAC_INCHIKEY>
GVWWVDUMZPBPEO-MKJJNCKNSA-N
> <PUBCHEM_XLOGP3_AA>
4.9
> <PUBCHEM_EXACT_MASS>
700.34585539
> <PUBCHEM_MOLECULAR_FORMULA>
C40H49FN4O4S
> <PUBCHEM_MOLECULAR_WEIGHT>
700.9
> <PUBCHEM_OPENEYE_CAN_SMILES>
CCN1C(=CC(=N1)CC2=CC=C(C=C2)S(=O)(=O)C3=CC=CC=C3)C4CCN(CC4)CC5CN(CC5C6=CC(=CC=C6)F)C(C(=O)O)C(C)(C)C
> <PUBCHEM_OPENEYE_ISO_SMILES>
CCN1C(=CC(=N1)CC2=CC=C(C=C2)S(=O)(=O)C3=CC=CC=C3)C4CCN(CC4)C[C@H]5CN(C[C@@H]5C6=CC(=CC=C6)F)[C@@H](C(=O)O)C(C)(C)C
> <PUBCHEM_CACTVS_TPSA>
104
> <PUBCHEM_MONOISOTOPIC_WEIGHT>
700.34585539
> <PUBCHEM_TOTAL_CHARGE>
0
> <PUBCHEM_HEAVY_ATOM_COUNT>
50
> <PUBCHEM_ATOM_DEF_STEREO_COUNT>
3
> <PUBCHEM_ATOM_UDEF_STEREO_COUNT>
0
> <PUBCHEM_BOND_DEF_STEREO_COUNT>
0
> <PUBCHEM_BOND_UDEF_STEREO_COUNT>
0
> <PUBCHEM_ISOTOPIC_ATOM_COUNT>
0
> <PUBCHEM_COMPONENT_COUNT>
1
> <PUBCHEM_CACTVS_TAUTO_COUNT>
-1
> <PUBCHEM_COORDINATE_TYPE>
1
5
255
> <PUBCHEM_BONDANNOTATIONS>
10  35  8
11  15  5
12  18  6
16  24  6
18  29  8
18  30  8
28  31  8
29  32  8
30  33  8
31  35  8
32  34  8
33  34  8
39  40  8
39  41  8
40  42  8
41  43  8
42  44  8
43  44  8
45  46  8
45  47  8
46  48  8
47  49  8
48  50  8
49  50  8
9  10  8
9  28  8
$$$$
