516272
  -OEChem-10302200282D
 96100  0     1  0  0  0  0  0999 V2000
    9.8078   -6.5761    0.0000 F   0  0  0  0  0  0  0  0  0  0  0  0
    2.3644   -5.7977    0.0000 O   0  0  0  0  0  0  0  0  0  0  0  0
    3.7657   -6.8158    0.0000 O   0  0  0  0  0  0  0  0  0  0  0  0
    6.8508    5.6407    0.0000 O   0  0  0  0  0  0  0  0  0  0  0  0
    4.9413   -5.1978    0.0000 N   0  0  3  0  0  0  0  0  0  0  0  0
    7.3900   -3.3613    0.0000 N   0  0  0  0  0  0  0  0  0  0  0  0
    6.5809    0.2264    0.0000 N   0  0  0  0  0  0  0  0  0  0  0  0
    6.8900    1.1775    0.0000 N   0  0  0  0  0  0  0  0  0  0  0  0
    6.5239   -4.8613    0.0000 C   0  0  2  0  0  0  0  0  0  0  0  0
    6.4194   -5.8559    0.0000 C   0  0  2  0  0  0  0  0  0  0  0  0
    5.6104   -4.4546    0.0000 C   0  0  0  0  0  0  0  0  0  0  0  0
    5.4413   -6.0638    0.0000 C   0  0  0  0  0  0  0  0  0  0  0  0
    7.3900   -4.3613    0.0000 C   0  0  0  0  0  0  0  0  0  0  0  0
    3.9467   -5.0932    0.0000 C   0  0  2  0  0  0  0  0  0  0  0  0
    3.5400   -4.1797    0.0000 C   0  0  0  0  0  0  0  0  0  0  0  0
    7.1626   -6.5250    0.0000 C   0  0  0  0  0  0  0  0  0  0  0  0
    6.5239   -2.8613    0.0000 C   0  0  0  0  0  0  0  0  0  0  0  0
    8.2560   -2.8613    0.0000 C   0  0  0  0  0  0  0  0  0  0  0  0
    7.3900   -1.3613    0.0000 C   0  0  0  0  0  0  0  0  0  0  0  0
    6.5239   -1.8613    0.0000 C   0  0  0  0  0  0  0  0  0  0  0  0
    8.2560   -1.8613    0.0000 C   0  0  0  0  0  0  0  0  0  0  0  0
    3.3590   -5.9022    0.0000 C   0  0  0  0  0  0  0  0  0  0  0  0
    3.1333   -3.2661    0.0000 C   0  0  0  0  0  0  0  0  0  0  0  0
    2.6264   -4.5864    0.0000 C   0  0  0  0  0  0  0  0  0  0  0  0
    4.4535   -3.7729    0.0000 C   0  0  0  0  0  0  0  0  0  0  0  0
    7.3900   -0.3613    0.0000 C   0  0  0  0  0  0  0  0  0  0  0  0
    8.1136   -6.2160    0.0000 C   0  0  0  0  0  0  0  0  0  0  0  0
    6.9546   -7.5031    0.0000 C   0  0  0  0  0  0  0  0  0  0  0  0
    8.1990    0.2264    0.0000 C   0  0  0  0  0  0  0  0  0  0  0  0
    8.8568   -6.8851    0.0000 C   0  0  0  0  0  0  0  0  0  0  0  0
    7.6978   -8.1723    0.0000 C   0  0  0  0  0  0  0  0  0  0  0  0
    8.6488   -7.8633    0.0000 C   0  0  0  0  0  0  0  0  0  0  0  0
    7.8900    1.1775    0.0000 C   0  0  0  0  0  0  0  0  0  0  0  0
    5.6299   -0.0826    0.0000 C   0  0  0  0  0  0  0  0  0  0  0  0
    8.4777    1.9865    0.0000 C   0  0  0  0  0  0  0  0  0  0  0  0
    4.8867    0.5866    0.0000 C   0  0  0  0  0  0  0  0  0  0  0  0
    8.0710    2.9001    0.0000 C   0  0  0  0  0  0  0  0  0  0  0  0
    7.0765    3.0046    0.0000 C   0  0  0  0  0  0  0  0  0  0  0  0
    8.6588    3.7091    0.0000 C   0  0  0  0  0  0  0  0  0  0  0  0
    6.6698    3.9181    0.0000 C   0  0  0  0  0  0  0  0  0  0  0  0
    8.2520    4.6226    0.0000 C   0  0  0  0  0  0  0  0  0  0  0  0
    7.2575    4.7272    0.0000 C   0  0  0  0  0  0  0  0  0  0  0  0
    7.4386    6.4497    0.0000 C   0  0  0  0  0  0  0  0  0  0  0  0
    7.0318    7.3633    0.0000 C   0  0  0  0  0  0  0  0  0  0  0  0
    7.6196    8.1723    0.0000 C   0  0  0  0  0  0  0  0  0  0  0  0
    7.0439   -5.1990    0.0000 H   0  0  0  0  0  0  0  0  0  0  0  0
    6.9982   -5.6337    0.0000 H   0  0  0  0  0  0  0  0  0  0  0  0
    5.9204   -3.9177    0.0000 H   0  0  0  0  0  0  0  0  0  0  0  0
    5.1088   -4.0902    0.0000 H   0  0  0  0  0  0  0  0  0  0  0  0
    4.8749   -6.3160    0.0000 H   0  0  0  0  0  0  0  0  0  0  0  0
    5.6328   -6.6534    0.0000 H   0  0  0  0  0  0  0  0  0  0  0  0
    7.6020   -4.9440    0.0000 H   0  0  0  0  0  0  0  0  0  0  0  0
    8.0005   -4.2537    0.0000 H   0  0  0  0  0  0  0  0  0  0  0  0
    4.1989   -5.6596    0.0000 H   0  0  0  0  0  0  0  0  0  0  0  0
    5.9134   -2.7537    0.0000 H   0  0  0  0  0  0  0  0  0  0  0  0
    6.3119   -3.4440    0.0000 H   0  0  0  0  0  0  0  0  0  0  0  0
    8.4680   -3.4440    0.0000 H   0  0  0  0  0  0  0  0  0  0  0  0
    8.8666   -2.7537    0.0000 H   0  0  0  0  0  0  0  0  0  0  0  0
    7.9269   -1.0513    0.0000 H   0  0  0  0  0  0  0  0  0  0  0  0
    6.3119   -1.2787    0.0000 H   0  0  0  0  0  0  0  0  0  0  0  0
    5.9134   -1.9690    0.0000 H   0  0  0  0  0  0  0  0  0  0  0  0
    8.8666   -1.9690    0.0000 H   0  0  0  0  0  0  0  0  0  0  0  0
    8.4680   -1.2787    0.0000 H   0  0  0  0  0  0  0  0  0  0  0  0
    3.6997   -3.0140    0.0000 H   0  0  0  0  0  0  0  0  0  0  0  0
    2.8811   -2.6997    0.0000 H   0  0  0  0  0  0  0  0  0  0  0  0
    2.5669   -3.5183    0.0000 H   0  0  0  0  0  0  0  0  0  0  0  0
    2.3743   -4.0200    0.0000 H   0  0  0  0  0  0  0  0  0  0  0  0
    2.0600   -4.8386    0.0000 H   0  0  0  0  0  0  0  0  0  0  0  0
    2.8786   -5.1528    0.0000 H   0  0  0  0  0  0  0  0  0  0  0  0
    4.7057   -4.3393    0.0000 H   0  0  0  0  0  0  0  0  0  0  0  0
    5.0199   -3.5208    0.0000 H   0  0  0  0  0  0  0  0  0  0  0  0
    4.2014   -3.2065    0.0000 H   0  0  0  0  0  0  0  0  0  0  0  0
    8.2425   -5.6095    0.0000 H   0  0  0  0  0  0  0  0  0  0  0  0
    6.3650   -7.6947    0.0000 H   0  0  0  0  0  0  0  0  0  0  0  0
    8.7886    0.0349    0.0000 H   0  0  0  0  0  0  0  0  0  0  0  0
    7.5689   -8.7787    0.0000 H   0  0  0  0  0  0  0  0  0  0  0  0
    2.0000   -6.2993    0.0000 H   0  0  0  0  0  0  0  0  0  0  0  0
    9.1096   -8.2781    0.0000 H   0  0  0  0  0  0  0  0  0  0  0  0
    5.1413   -0.4643    0.0000 H   0  0  0  0  0  0  0  0  0  0  0  0
    5.9210   -0.6300    0.0000 H   0  0  0  0  0  0  0  0  0  0  0  0
    8.9084    1.5405    0.0000 H   0  0  0  0  0  0  0  0  0  0  0  0
    8.9918    2.3332    0.0000 H   0  0  0  0  0  0  0  0  0  0  0  0
    5.3016    1.0473    0.0000 H   0  0  0  0  0  0  0  0  0  0  0  0
    4.4260    1.0014    0.0000 H   0  0  0  0  0  0  0  0  0  0  0  0
    4.4719    0.1258    0.0000 H   0  0  0  0  0  0  0  0  0  0  0  0
    6.7121    2.5030    0.0000 H   0  0  0  0  0  0  0  0  0  0  0  0
    9.2754    3.6443    0.0000 H   0  0  0  0  0  0  0  0  0  0  0  0
    6.0531    3.9829    0.0000 H   0  0  0  0  0  0  0  0  0  0  0  0
    8.6165    5.1242    0.0000 H   0  0  0  0  0  0  0  0  0  0  0  0
    7.8693    6.0037    0.0000 H   0  0  0  0  0  0  0  0  0  0  0  0
    7.9526    6.7964    0.0000 H   0  0  0  0  0  0  0  0  0  0  0  0
    6.6012    7.8092    0.0000 H   0  0  0  0  0  0  0  0  0  0  0  0
    6.5178    7.0166    0.0000 H   0  0  0  0  0  0  0  0  0  0  0  0
    8.1212    7.8078    0.0000 H   0  0  0  0  0  0  0  0  0  0  0  0
    7.9841    8.6739    0.0000 H   0  0  0  0  0  0  0  0  0  0  0  0
    7.1180    8.5367    0.0000 H   0  0  0  0  0  0  0  0  0  0  0  0
  1 30  1  0  0  0  0
  2 22  1  0  0  0  0
  2 77  1  0  0  0  0
  3 22  2  0  0  0  0
  4 42  1  0  0  0  0
  4 43  1  0  0  0  0
  5 11  1  0  0  0  0
  5 12  1  0  0  0  0
  5 14  1  0  0  0  0
  6 13  1  0  0  0  0
  6 17  1  0  0  0  0
  6 18  1  0  0  0  0
  7  8  1  0  0  0  0
  7 26  1  0  0  0  0
  7 34  1  0  0  0  0
  8 33  2  0  0  0  0
  9 10  1  0  0  0  0
  9 11  1  0  0  0  0
  9 13  1  6  0  0  0
  9 46  1  0  0  0  0
 10 12  1  0  0  0  0
 10 16  1  1  0  0  0
 10 47  1  0  0  0  0
 11 48  1  0  0  0  0
 11 49  1  0  0  0  0
 12 50  1  0  0  0  0
 12 51  1  0  0  0  0
 13 52  1  0  0  0  0
 13 53  1  0  0  0  0
 14 15  1  0  0  0  0
 14 22  1  1  0  0  0
 14 54  1  0  0  0  0
 15 23  1  0  0  0  0
 15 24  1  0  0  0  0
 15 25  1  0  0  0  0
 16 27  2  0  0  0  0
 16 28  1  0  0  0  0
 17 20  1  0  0  0  0
 17 55  1  0  0  0  0
 17 56  1  0  0  0  0
 18 21  1  0  0  0  0
 18 57  1  0  0  0  0
 18 58  1  0  0  0  0
 19 20  1  0  0  0  0
 19 21  1  0  0  0  0
 19 26  1  0  0  0  0
 19 59  1  0  0  0  0
 20 60  1  0  0  0  0
 20 61  1  0  0  0  0
 21 62  1  0  0  0  0
 21 63  1  0  0  0  0
 23 64  1  0  0  0  0
 23 65  1  0  0  0  0
 23 66  1  0  0  0  0
 24 67  1  0  0  0  0
 24 68  1  0  0  0  0
 24 69  1  0  0  0  0
 25 70  1  0  0  0  0
 25 71  1  0  0  0  0
 25 72  1  0  0  0  0
 26 29  2  0  0  0  0
 27 30  1  0  0  0  0
 27 73  1  0  0  0  0
 28 31  2  0  0  0  0
 28 74  1  0  0  0  0
 29 33  1  0  0  0  0
 29 75  1  0  0  0  0
 30 32  2  0  0  0  0
 31 32  1  0  0  0  0
 31 76  1  0  0  0  0
 32 78  1  0  0  0  0
 33 35  1  0  0  0  0
 34 36  1  0  0  0  0
 34 79  1  0  0  0  0
 34 80  1  0  0  0  0
 35 37  1  0  0  0  0
 35 81  1  0  0  0  0
 35 82  1  0  0  0  0
 36 83  1  0  0  0  0
 36 84  1  0  0  0  0
 36 85  1  0  0  0  0
 37 38  2  0  0  0  0
 37 39  1  0  0  0  0
 38 40  1  0  0  0  0
 38 86  1  0  0  0  0
 39 41  2  0  0  0  0
 39 87  1  0  0  0  0
 40 42  2  0  0  0  0
 40 88  1  0  0  0  0
 41 42  1  0  0  0  0
 41 89  1  0  0  0  0
 43 44  1  0  0  0  0
 43 90  1  0  0  0  0
 43 91  1  0  0  0  0
 44 45  1  0  0  0  0
 44 92  1  0  0  0  0
 44 93  1  0  0  0  0
 45 94  1  0  0  0  0
 45 95  1  0  0  0  0
 45 96  1  0  0  0  0
M  END
> <PUBCHEM_COMPOUND_CID>
516272
> <PUBCHEM_COMPOUND_CANONICALIZED>
1
> <PUBCHEM_CACTVS_COMPLEXITY>
916
> <PUBCHEM_CACTVS_HBOND_ACCEPTOR>
7
> <PUBCHEM_CACTVS_HBOND_DONOR>
1
> <PUBCHEM_CACTVS_ROTATABLE_BOND>
13
> <PUBCHEM_CACTVS_SUBSKEYS>
AAADcfB/sQAAAAAAAAAAAAAAAAAAAWLAAAA8YIAAAAAAAAAB0AAAHwAICAAADyzhng4yjpMIBgCqAyTyTACSDAAhogAY2CG+bJgOJjLE8fuG/CjkyBHY6AeQwOAPoAAAAAAAAABAAAAAAAAAAAAAAAAAAA==
> <PUBCHEM_IUPAC_OPENEYE_NAME>
(2R)-2-[(3S,4S)-3-[[4-[2-ethyl-5-[(4-propoxyphenyl)methyl]pyrazol-3-yl]-1-piperidyl]methyl]-4-(3-fluorophenyl)pyrrolidin-1-yl]-3,3-dimethyl-butanoic acid
> <PUBCHEM_IUPAC_CAS_NAME>
(2R)-2-[(3S,4S)-3-[[4-[2-ethyl-5-[(4-propoxyphenyl)methyl]-3-pyrazolyl]-1-piperidinyl]methyl]-4-(3-fluorophenyl)-1-pyrrolidinyl]-3,3-dimethylbutanoic acid
> <PUBCHEM_IUPAC_NAME_MARKUP>
(2<I>R</I>)-2-[(3<I>S</I>,4<I>S</I>)-3-[[4-[2-ethyl-5-[(4-propoxyphenyl)methyl]pyrazol-3-yl]piperidin-1-yl]methyl]-4-(3-fluorophenyl)pyrrolidin-1-yl]-3,3-dimethylbutanoic acid
> <PUBCHEM_IUPAC_NAME>
(2R)-2-[(3S,4S)-3-[[4-[2-ethyl-5-[(4-propoxyphenyl)methyl]pyrazol-3-yl]piperidin-1-yl]methyl]-4-(3-fluorophenyl)pyrrolidin-1-yl]-3,3-dimethylbutanoic acid
> <PUBCHEM_IUPAC_SYSTEMATIC_NAME>
(2R)-2-[(3S,4S)-3-[[4-[2-ethyl-5-[(4-propoxyphenyl)methyl]pyrazol-3-yl]piperidin-1-yl]methyl]-4-(3-fluorophenyl)pyrrolidin-1-yl]-3,3-dimethyl-butanoic acid
> <PUBCHEM_IUPAC_TRADITIONAL_NAME>
(2R)-2-[(3S,4S)-3-[[4-[2-ethyl-5-(4-propoxybenzyl)pyrazol-3-yl]piperidino]methyl]-4-(3-fluorophenyl)pyrrolidino]-3,3-dimethyl-butyric acid
> <PUBCHEM_IUPAC_INCHI>
InChI=1S/C37H51FN4O3/c1-6-19-45-32-13-11-26(12-14-32)20-31-22-34(42(7-2)39-31)27-15-17-40(18-16-27)23-29-24-41(35(36(43)44)37(3,4)5)25-33(29)28-9-8-10-30(38)21-28/h8-14,21-22,27,29,33,35H,6-7,15-20,23-25H2,1-5H3,(H,43,44)/t29-,33+,35-/m0/s1
> <PUBCHEM_IUPAC_INCHIKEY>
ZTXBUYCSHALQDM-AUFCLJJTSA-N
> <PUBCHEM_XLOGP3_AA>
5
> <PUBCHEM_EXACT_MASS>
618.39451966
> <PUBCHEM_MOLECULAR_FORMULA>
C37H51FN4O3
> <PUBCHEM_MOLECULAR_WEIGHT>
618.8
> <PUBCHEM_OPENEYE_CAN_SMILES>
CCCOC1=CC=C(C=C1)CC2=NN(C(=C2)C3CCN(CC3)CC4CN(CC4C5=CC(=CC=C5)F)C(C(=O)O)C(C)(C)C)CC
> <PUBCHEM_OPENEYE_ISO_SMILES>
CCCOC1=CC=C(C=C1)CC2=NN(C(=C2)C3CCN(CC3)C[C@H]4CN(C[C@@H]4C5=CC(=CC=C5)F)[C@@H](C(=O)O)C(C)(C)C)CC
> <PUBCHEM_CACTVS_TPSA>
70.8
> <PUBCHEM_MONOISOTOPIC_WEIGHT>
618.39451966
> <PUBCHEM_TOTAL_CHARGE>
0
> <PUBCHEM_HEAVY_ATOM_COUNT>
45
> <PUBCHEM_ATOM_DEF_STEREO_COUNT>
3
> <PUBCHEM_ATOM_UDEF_STEREO_COUNT>
0
> <PUBCHEM_BOND_DEF_STEREO_COUNT>
0
> <PUBCHEM_BOND_UDEF_STEREO_COUNT>
0
> <PUBCHEM_ISOTOPIC_ATOM_COUNT>
0
> <PUBCHEM_COMPONENT_COUNT>
1
> <PUBCHEM_CACTVS_TAUTO_COUNT>
-1
> <PUBCHEM_COORDINATE_TYPE>
1
5
255
> <PUBCHEM_BONDANNOTATIONS>
10  16  5
14  22  5
16  27  8
16  28  8
26  29  8
27  30  8
28  31  8
29  33  8
30  32  8
31  32  8
37  38  8
37  39  8
38  40  8
39  41  8
40  42  8
41  42  8
7  26  8
7  8  8
8  33  8
9  13  6
$$$$
