516278
  -OEChem-10302200282D
100105  0     1  0  0  0  0  0999 V2000
    9.8078   -7.0851    0.0000 F   0  0  0  0  0  0  0  0  0  0  0  0
    2.3644   -6.3068    0.0000 O   0  0  0  0  0  0  0  0  0  0  0  0
    3.7657   -7.3248    0.0000 O   0  0  0  0  0  0  0  0  0  0  0  0
    6.8508    5.1317    0.0000 O   0  0  0  0  0  0  0  0  0  0  0  0
    4.9413   -5.7068    0.0000 N   0  0  3  0  0  0  0  0  0  0  0  0
    7.3900   -3.8704    0.0000 N   0  0  0  0  0  0  0  0  0  0  0  0
    6.5809   -0.2826    0.0000 N   0  0  0  0  0  0  0  0  0  0  0  0
    6.8900    0.6685    0.0000 N   0  0  0  0  0  0  0  0  0  0  0  0
    6.5239   -5.3704    0.0000 C   0  0  2  0  0  0  0  0  0  0  0  0
    6.4194   -6.3649    0.0000 C   0  0  2  0  0  0  0  0  0  0  0  0
    5.6104   -4.9636    0.0000 C   0  0  0  0  0  0  0  0  0  0  0  0
    5.4413   -6.5728    0.0000 C   0  0  0  0  0  0  0  0  0  0  0  0
    7.3900   -4.8704    0.0000 C   0  0  0  0  0  0  0  0  0  0  0  0
    3.9467   -5.6023    0.0000 C   0  0  2  0  0  0  0  0  0  0  0  0
    3.5400   -4.6887    0.0000 C   0  0  0  0  0  0  0  0  0  0  0  0
    7.1626   -7.0340    0.0000 C   0  0  0  0  0  0  0  0  0  0  0  0
    6.5239   -3.3704    0.0000 C   0  0  0  0  0  0  0  0  0  0  0  0
    8.2560   -3.3704    0.0000 C   0  0  0  0  0  0  0  0  0  0  0  0
    7.3900   -1.8704    0.0000 C   0  0  0  0  0  0  0  0  0  0  0  0
    6.5239   -2.3704    0.0000 C   0  0  0  0  0  0  0  0  0  0  0  0
    8.2560   -2.3704    0.0000 C   0  0  0  0  0  0  0  0  0  0  0  0
    3.3590   -6.4113    0.0000 C   0  0  0  0  0  0  0  0  0  0  0  0
    3.1333   -3.7752    0.0000 C   0  0  0  0  0  0  0  0  0  0  0  0
    2.6264   -5.0954    0.0000 C   0  0  0  0  0  0  0  0  0  0  0  0
    4.4535   -4.2820    0.0000 C   0  0  0  0  0  0  0  0  0  0  0  0
    7.3900   -0.8704    0.0000 C   0  0  0  0  0  0  0  0  0  0  0  0
    8.1136   -6.7250    0.0000 C   0  0  0  0  0  0  0  0  0  0  0  0
    6.9546   -8.0122    0.0000 C   0  0  0  0  0  0  0  0  0  0  0  0
    8.1990   -0.2826    0.0000 C   0  0  0  0  0  0  0  0  0  0  0  0
    8.8568   -7.3942    0.0000 C   0  0  0  0  0  0  0  0  0  0  0  0
    7.6978   -8.6813    0.0000 C   0  0  0  0  0  0  0  0  0  0  0  0
    8.6488   -8.3723    0.0000 C   0  0  0  0  0  0  0  0  0  0  0  0
    7.8900    0.6685    0.0000 C   0  0  0  0  0  0  0  0  0  0  0  0
    5.6299   -0.5916    0.0000 C   0  0  0  0  0  0  0  0  0  0  0  0
    8.4777    1.4775    0.0000 C   0  0  0  0  0  0  0  0  0  0  0  0
    4.8867    0.0775    0.0000 C   0  0  0  0  0  0  0  0  0  0  0  0
    8.0710    2.3910    0.0000 C   0  0  0  0  0  0  0  0  0  0  0  0
    7.0765    2.4956    0.0000 C   0  0  0  0  0  0  0  0  0  0  0  0
    8.6588    3.2000    0.0000 C   0  0  0  0  0  0  0  0  0  0  0  0
    6.6698    3.4091    0.0000 C   0  0  0  0  0  0  0  0  0  0  0  0
    8.2520    4.1136    0.0000 C   0  0  0  0  0  0  0  0  0  0  0  0
    7.2575    4.2181    0.0000 C   0  0  0  0  0  0  0  0  0  0  0  0
    7.4386    5.9407    0.0000 C   0  0  0  0  0  0  0  0  0  0  0  0
    7.0318    6.8542    0.0000 C   0  0  0  0  0  0  0  0  0  0  0  0
    6.0373    6.9588    0.0000 C   0  0  0  0  0  0  0  0  0  0  0  0
    7.6196    7.6632    0.0000 C   0  0  0  0  0  0  0  0  0  0  0  0
    5.6306    7.8723    0.0000 C   0  0  0  0  0  0  0  0  0  0  0  0
    7.2129    8.5768    0.0000 C   0  0  0  0  0  0  0  0  0  0  0  0
    6.2184    8.6813    0.0000 C   0  0  0  0  0  0  0  0  0  0  0  0
    7.0439   -5.7081    0.0000 H   0  0  0  0  0  0  0  0  0  0  0  0
    6.9982   -6.1427    0.0000 H   0  0  0  0  0  0  0  0  0  0  0  0
    5.9204   -4.4267    0.0000 H   0  0  0  0  0  0  0  0  0  0  0  0
    5.1088   -4.5992    0.0000 H   0  0  0  0  0  0  0  0  0  0  0  0
    4.8749   -6.8250    0.0000 H   0  0  0  0  0  0  0  0  0  0  0  0
    5.6328   -7.1625    0.0000 H   0  0  0  0  0  0  0  0  0  0  0  0
    7.6020   -5.4530    0.0000 H   0  0  0  0  0  0  0  0  0  0  0  0
    8.0005   -4.7627    0.0000 H   0  0  0  0  0  0  0  0  0  0  0  0
    4.1989   -6.1687    0.0000 H   0  0  0  0  0  0  0  0  0  0  0  0
    5.9134   -3.2627    0.0000 H   0  0  0  0  0  0  0  0  0  0  0  0
    6.3119   -3.9530    0.0000 H   0  0  0  0  0  0  0  0  0  0  0  0
    8.4680   -3.9530    0.0000 H   0  0  0  0  0  0  0  0  0  0  0  0
    8.8666   -3.2627    0.0000 H   0  0  0  0  0  0  0  0  0  0  0  0
    7.9269   -1.5604    0.0000 H   0  0  0  0  0  0  0  0  0  0  0  0
    6.3119   -1.7878    0.0000 H   0  0  0  0  0  0  0  0  0  0  0  0
    5.9134   -2.4780    0.0000 H   0  0  0  0  0  0  0  0  0  0  0  0
    8.8666   -2.4780    0.0000 H   0  0  0  0  0  0  0  0  0  0  0  0
    8.4680   -1.7878    0.0000 H   0  0  0  0  0  0  0  0  0  0  0  0
    3.6997   -3.5230    0.0000 H   0  0  0  0  0  0  0  0  0  0  0  0
    2.8811   -3.2088    0.0000 H   0  0  0  0  0  0  0  0  0  0  0  0
    2.5669   -4.0274    0.0000 H   0  0  0  0  0  0  0  0  0  0  0  0
    2.3743   -4.5290    0.0000 H   0  0  0  0  0  0  0  0  0  0  0  0
    2.0600   -5.3476    0.0000 H   0  0  0  0  0  0  0  0  0  0  0  0
    2.8786   -5.6618    0.0000 H   0  0  0  0  0  0  0  0  0  0  0  0
    4.7057   -4.8484    0.0000 H   0  0  0  0  0  0  0  0  0  0  0  0
    5.0199   -4.0298    0.0000 H   0  0  0  0  0  0  0  0  0  0  0  0
    4.2014   -3.7156    0.0000 H   0  0  0  0  0  0  0  0  0  0  0  0
    8.2425   -6.1186    0.0000 H   0  0  0  0  0  0  0  0  0  0  0  0
    6.3650   -8.2038    0.0000 H   0  0  0  0  0  0  0  0  0  0  0  0
    8.7886   -0.4742    0.0000 H   0  0  0  0  0  0  0  0  0  0  0  0
    7.5689   -9.2878    0.0000 H   0  0  0  0  0  0  0  0  0  0  0  0
    2.0000   -6.8083    0.0000 H   0  0  0  0  0  0  0  0  0  0  0  0
    9.1096   -8.7872    0.0000 H   0  0  0  0  0  0  0  0  0  0  0  0
    5.1413   -0.9733    0.0000 H   0  0  0  0  0  0  0  0  0  0  0  0
    5.9210   -1.1390    0.0000 H   0  0  0  0  0  0  0  0  0  0  0  0
    8.9084    1.0315    0.0000 H   0  0  0  0  0  0  0  0  0  0  0  0
    8.9918    1.8242    0.0000 H   0  0  0  0  0  0  0  0  0  0  0  0
    5.3016    0.5383    0.0000 H   0  0  0  0  0  0  0  0  0  0  0  0
    4.4260    0.4924    0.0000 H   0  0  0  0  0  0  0  0  0  0  0  0
    4.4719   -0.3832    0.0000 H   0  0  0  0  0  0  0  0  0  0  0  0
    6.7121    1.9940    0.0000 H   0  0  0  0  0  0  0  0  0  0  0  0
    9.2754    3.1352    0.0000 H   0  0  0  0  0  0  0  0  0  0  0  0
    6.0531    3.4739    0.0000 H   0  0  0  0  0  0  0  0  0  0  0  0
    8.6165    4.6152    0.0000 H   0  0  0  0  0  0  0  0  0  0  0  0
    7.8693    5.4947    0.0000 H   0  0  0  0  0  0  0  0  0  0  0  0
    7.9526    6.2874    0.0000 H   0  0  0  0  0  0  0  0  0  0  0  0
    5.6729    6.4572    0.0000 H   0  0  0  0  0  0  0  0  0  0  0  0
    8.2362    7.5984    0.0000 H   0  0  0  0  0  0  0  0  0  0  0  0
    5.0140    7.9371    0.0000 H   0  0  0  0  0  0  0  0  0  0  0  0
    7.5773    9.0784    0.0000 H   0  0  0  0  0  0  0  0  0  0  0  0
    5.9662    9.2477    0.0000 H   0  0  0  0  0  0  0  0  0  0  0  0
  1 30  1  0  0  0  0
  2 22  1  0  0  0  0
  2 81  1  0  0  0  0
  3 22  2  0  0  0  0
  4 42  1  0  0  0  0
  4 43  1  0  0  0  0
  5 11  1  0  0  0  0
  5 12  1  0  0  0  0
  5 14  1  0  0  0  0
  6 13  1  0  0  0  0
  6 17  1  0  0  0  0
  6 18  1  0  0  0  0
  7  8  1  0  0  0  0
  7 26  1  0  0  0  0
  7 34  1  0  0  0  0
  8 33  2  0  0  0  0
  9 10  1  0  0  0  0
  9 11  1  0  0  0  0
  9 13  1  6  0  0  0
  9 50  1  0  0  0  0
 10 12  1  0  0  0  0
 10 16  1  1  0  0  0
 10 51  1  0  0  0  0
 11 52  1  0  0  0  0
 11 53  1  0  0  0  0
 12 54  1  0  0  0  0
 12 55  1  0  0  0  0
 13 56  1  0  0  0  0
 13 57  1  0  0  0  0
 14 15  1  0  0  0  0
 14 22  1  1  0  0  0
 14 58  1  0  0  0  0
 15 23  1  0  0  0  0
 15 24  1  0  0  0  0
 15 25  1  0  0  0  0
 16 27  2  0  0  0  0
 16 28  1  0  0  0  0
 17 20  1  0  0  0  0
 17 59  1  0  0  0  0
 17 60  1  0  0  0  0
 18 21  1  0  0  0  0
 18 61  1  0  0  0  0
 18 62  1  0  0  0  0
 19 20  1  0  0  0  0
 19 21  1  0  0  0  0
 19 26  1  0  0  0  0
 19 63  1  0  0  0  0
 20 64  1  0  0  0  0
 20 65  1  0  0  0  0
 21 66  1  0  0  0  0
 21 67  1  0  0  0  0
 23 68  1  0  0  0  0
 23 69  1  0  0  0  0
 23 70  1  0  0  0  0
 24 71  1  0  0  0  0
 24 72  1  0  0  0  0
 24 73  1  0  0  0  0
 25 74  1  0  0  0  0
 25 75  1  0  0  0  0
 25 76  1  0  0  0  0
 26 29  2  0  0  0  0
 27 30  1  0  0  0  0
 27 77  1  0  0  0  0
 28 31  2  0  0  0  0
 28 78  1  0  0  0  0
 29 33  1  0  0  0  0
 29 79  1  0  0  0  0
 30 32  2  0  0  0  0
 31 32  1  0  0  0  0
 31 80  1  0  0  0  0
 32 82  1  0  0  0  0
 33 35  1  0  0  0  0
 34 36  1  0  0  0  0
 34 83  1  0  0  0  0
 34 84  1  0  0  0  0
 35 37  1  0  0  0  0
 35 85  1  0  0  0  0
 35 86  1  0  0  0  0
 36 87  1  0  0  0  0
 36 88  1  0  0  0  0
 36 89  1  0  0  0  0
 37 38  2  0  0  0  0
 37 39  1  0  0  0  0
 38 40  1  0  0  0  0
 38 90  1  0  0  0  0
 39 41  2  0  0  0  0
 39 91  1  0  0  0  0
 40 42  2  0  0  0  0
 40 92  1  0  0  0  0
 41 42  1  0  0  0  0
 41 93  1  0  0  0  0
 43 44  1  0  0  0  0
 43 94  1  0  0  0  0
 43 95  1  0  0  0  0
 44 45  2  0  0  0  0
 44 46  1  0  0  0  0
 45 47  1  0  0  0  0
 45 96  1  0  0  0  0
 46 48  2  0  0  0  0
 46 97  1  0  0  0  0
 47 49  2  0  0  0  0
 47 98  1  0  0  0  0
 48 49  1  0  0  0  0
 48 99  1  0  0  0  0
 49100  1  0  0  0  0
M  END
> <PUBCHEM_COMPOUND_CID>
516278
> <PUBCHEM_COMPOUND_CANONICALIZED>
1
> <PUBCHEM_CACTVS_COMPLEXITY>
1020
> <PUBCHEM_CACTVS_HBOND_ACCEPTOR>
7
> <PUBCHEM_CACTVS_HBOND_DONOR>
1
> <PUBCHEM_CACTVS_ROTATABLE_BOND>
13
> <PUBCHEM_CACTVS_SUBSKEYS>
AAADcfB/sQAAAAAAAAAAAAAAAAAAAWLAAAA8YMEAAAAAAAAB1AAAHwAICAAADyzhng4yjpMIBgCqAyTyTACSDAAhogAY2CG+bJgOJjLE8fuG/CjkyBHY6AeQwOAPoAAAAAAAAABAAAAAAAAAAAAAAAAAAA==
> <PUBCHEM_IUPAC_OPENEYE_NAME>
(2R)-2-[(3S,4S)-3-[[4-[5-[(4-benzyloxyphenyl)methyl]-2-ethyl-pyrazol-3-yl]-1-piperidyl]methyl]-4-(3-fluorophenyl)pyrrolidin-1-yl]-3,3-dimethyl-butanoic acid
> <PUBCHEM_IUPAC_CAS_NAME>
(2R)-2-[(3S,4S)-3-[[4-[2-ethyl-5-[(4-phenylmethoxyphenyl)methyl]-3-pyrazolyl]-1-piperidinyl]methyl]-4-(3-fluorophenyl)-1-pyrrolidinyl]-3,3-dimethylbutanoic acid
> <PUBCHEM_IUPAC_NAME_MARKUP>
(2<I>R</I>)-2-[(3<I>S</I>,4<I>S</I>)-3-[[4-[2-ethyl-5-[(4-phenylmethoxyphenyl)methyl]pyrazol-3-yl]piperidin-1-yl]methyl]-4-(3-fluorophenyl)pyrrolidin-1-yl]-3,3-dimethylbutanoic acid
> <PUBCHEM_IUPAC_NAME>
(2R)-2-[(3S,4S)-3-[[4-[2-ethyl-5-[(4-phenylmethoxyphenyl)methyl]pyrazol-3-yl]piperidin-1-yl]methyl]-4-(3-fluorophenyl)pyrrolidin-1-yl]-3,3-dimethylbutanoic acid
> <PUBCHEM_IUPAC_SYSTEMATIC_NAME>
(2R)-2-[(3S,4S)-3-[[4-[2-ethyl-5-[(4-phenylmethoxyphenyl)methyl]pyrazol-3-yl]piperidin-1-yl]methyl]-4-(3-fluorophenyl)pyrrolidin-1-yl]-3,3-dimethyl-butanoic acid
> <PUBCHEM_IUPAC_TRADITIONAL_NAME>
(2R)-2-[(3S,4S)-3-[[4-[5-(4-benzoxybenzyl)-2-ethyl-pyrazol-3-yl]piperidino]methyl]-4-(3-fluorophenyl)pyrrolidino]-3,3-dimethyl-butyric acid
> <PUBCHEM_IUPAC_INCHI>
InChI=1S/C41H51FN4O3/c1-5-46-38(24-35(43-46)22-29-14-16-36(17-15-29)49-28-30-10-7-6-8-11-30)31-18-20-44(21-19-31)25-33-26-45(39(40(47)48)41(2,3)4)27-37(33)32-12-9-13-34(42)23-32/h6-17,23-24,31,33,37,39H,5,18-22,25-28H2,1-4H3,(H,47,48)/t33-,37+,39-/m0/s1
> <PUBCHEM_IUPAC_INCHIKEY>
OHJXUFLNJCDPTF-ARESMVSKSA-N
> <PUBCHEM_XLOGP3_AA>
5.6
> <PUBCHEM_EXACT_MASS>
666.39451966
> <PUBCHEM_MOLECULAR_FORMULA>
C41H51FN4O3
> <PUBCHEM_MOLECULAR_WEIGHT>
666.9
> <PUBCHEM_OPENEYE_CAN_SMILES>
CCN1C(=CC(=N1)CC2=CC=C(C=C2)OCC3=CC=CC=C3)C4CCN(CC4)CC5CN(CC5C6=CC(=CC=C6)F)C(C(=O)O)C(C)(C)C
> <PUBCHEM_OPENEYE_ISO_SMILES>
CCN1C(=CC(=N1)CC2=CC=C(C=C2)OCC3=CC=CC=C3)C4CCN(CC4)C[C@H]5CN(C[C@@H]5C6=CC(=CC=C6)F)[C@@H](C(=O)O)C(C)(C)C
> <PUBCHEM_CACTVS_TPSA>
70.8
> <PUBCHEM_MONOISOTOPIC_WEIGHT>
666.39451966
> <PUBCHEM_TOTAL_CHARGE>
0
> <PUBCHEM_HEAVY_ATOM_COUNT>
49
> <PUBCHEM_ATOM_DEF_STEREO_COUNT>
3
> <PUBCHEM_ATOM_UDEF_STEREO_COUNT>
0
> <PUBCHEM_BOND_DEF_STEREO_COUNT>
0
> <PUBCHEM_BOND_UDEF_STEREO_COUNT>
0
> <PUBCHEM_ISOTOPIC_ATOM_COUNT>
0
> <PUBCHEM_COMPONENT_COUNT>
1
> <PUBCHEM_CACTVS_TAUTO_COUNT>
-1
> <PUBCHEM_COORDINATE_TYPE>
1
5
255
> <PUBCHEM_BONDANNOTATIONS>
10  16  5
14  22  5
16  27  8
16  28  8
26  29  8
27  30  8
28  31  8
29  33  8
30  32  8
31  32  8
37  38  8
37  39  8
38  40  8
39  41  8
40  42  8
41  42  8
44  45  8
44  46  8
45  47  8
46  48  8
47  49  8
48  49  8
7  26  8
7  8  8
8  33  8
9  13  6
$$$$
