516265
  -OEChem-10302200282D
 88 92  0     1  0  0  0  0  0999 V2000
    9.8078   -5.8611    0.0000 F   0  0  0  0  0  0  0  0  0  0  0  0
    2.3644   -5.0827    0.0000 O   0  0  0  0  0  0  0  0  0  0  0  0
    3.7657   -6.1008    0.0000 O   0  0  0  0  0  0  0  0  0  0  0  0
    4.9413   -4.4827    0.0000 N   0  0  3  0  0  0  0  0  0  0  0  0
    7.3900   -2.6463    0.0000 N   0  0  0  0  0  0  0  0  0  0  0  0
    6.5809    0.9415    0.0000 N   0  0  0  0  0  0  0  0  0  0  0  0
    6.8900    1.8925    0.0000 N   0  0  0  0  0  0  0  0  0  0  0  0
    6.5239   -4.1463    0.0000 C   0  0  2  0  0  0  0  0  0  0  0  0
    6.4194   -5.1408    0.0000 C   0  0  2  0  0  0  0  0  0  0  0  0
    5.6104   -3.7396    0.0000 C   0  0  0  0  0  0  0  0  0  0  0  0
    5.4413   -5.3488    0.0000 C   0  0  0  0  0  0  0  0  0  0  0  0
    7.3900   -3.6463    0.0000 C   0  0  0  0  0  0  0  0  0  0  0  0
    3.9467   -4.3782    0.0000 C   0  0  2  0  0  0  0  0  0  0  0  0
    3.5400   -3.4647    0.0000 C   0  0  0  0  0  0  0  0  0  0  0  0
    7.1626   -5.8100    0.0000 C   0  0  0  0  0  0  0  0  0  0  0  0
    6.5239   -2.1463    0.0000 C   0  0  0  0  0  0  0  0  0  0  0  0
    8.2560   -2.1463    0.0000 C   0  0  0  0  0  0  0  0  0  0  0  0
    7.3900   -0.6463    0.0000 C   0  0  0  0  0  0  0  0  0  0  0  0
    6.5239   -1.1463    0.0000 C   0  0  0  0  0  0  0  0  0  0  0  0
    8.2560   -1.1463    0.0000 C   0  0  0  0  0  0  0  0  0  0  0  0
    3.3590   -5.1872    0.0000 C   0  0  0  0  0  0  0  0  0  0  0  0
    3.1333   -2.5511    0.0000 C   0  0  0  0  0  0  0  0  0  0  0  0
    2.6264   -3.8714    0.0000 C   0  0  0  0  0  0  0  0  0  0  0  0
    4.4535   -3.0579    0.0000 C   0  0  0  0  0  0  0  0  0  0  0  0
    7.3900    0.3537    0.0000 C   0  0  0  0  0  0  0  0  0  0  0  0
    8.1136   -5.5010    0.0000 C   0  0  0  0  0  0  0  0  0  0  0  0
    6.9546   -6.7881    0.0000 C   0  0  0  0  0  0  0  0  0  0  0  0
    8.1990    0.9415    0.0000 C   0  0  0  0  0  0  0  0  0  0  0  0
    8.8568   -6.1701    0.0000 C   0  0  0  0  0  0  0  0  0  0  0  0
    7.6978   -7.4573    0.0000 C   0  0  0  0  0  0  0  0  0  0  0  0
    8.6488   -7.1482    0.0000 C   0  0  0  0  0  0  0  0  0  0  0  0
    7.8900    1.8925    0.0000 C   0  0  0  0  0  0  0  0  0  0  0  0
    5.6299    0.6324    0.0000 C   0  0  0  0  0  0  0  0  0  0  0  0
    8.4777    2.7015    0.0000 C   0  0  0  0  0  0  0  0  0  0  0  0
    4.8867    1.3016    0.0000 C   0  0  0  0  0  0  0  0  0  0  0  0
    8.0710    3.6151    0.0000 C   0  0  0  0  0  0  0  0  0  0  0  0
    8.6588    4.4241    0.0000 C   0  0  0  0  0  0  0  0  0  0  0  0
    7.0765    3.7196    0.0000 C   0  0  0  0  0  0  0  0  0  0  0  0
    8.2520    5.3376    0.0000 C   0  0  0  0  0  0  0  0  0  0  0  0
    6.6698    4.6332    0.0000 C   0  0  0  0  0  0  0  0  0  0  0  0
    7.2575    5.4422    0.0000 C   0  0  0  0  0  0  0  0  0  0  0  0
    8.8398    6.1466    0.0000 C   0  0  0  0  0  0  0  0  0  0  0  0
    9.4276    6.9557    0.0000 C   0  0  0  0  0  0  0  0  0  0  0  0
    7.0439   -4.4840    0.0000 H   0  0  0  0  0  0  0  0  0  0  0  0
    6.9982   -4.9187    0.0000 H   0  0  0  0  0  0  0  0  0  0  0  0
    5.9204   -3.2027    0.0000 H   0  0  0  0  0  0  0  0  0  0  0  0
    5.1088   -3.3752    0.0000 H   0  0  0  0  0  0  0  0  0  0  0  0
    4.8749   -5.6009    0.0000 H   0  0  0  0  0  0  0  0  0  0  0  0
    5.6328   -5.9384    0.0000 H   0  0  0  0  0  0  0  0  0  0  0  0
    7.6020   -4.2289    0.0000 H   0  0  0  0  0  0  0  0  0  0  0  0
    8.0005   -3.5387    0.0000 H   0  0  0  0  0  0  0  0  0  0  0  0
    4.1989   -4.9446    0.0000 H   0  0  0  0  0  0  0  0  0  0  0  0
    5.9134   -2.0387    0.0000 H   0  0  0  0  0  0  0  0  0  0  0  0
    6.3119   -2.7289    0.0000 H   0  0  0  0  0  0  0  0  0  0  0  0
    8.4680   -2.7289    0.0000 H   0  0  0  0  0  0  0  0  0  0  0  0
    8.8666   -2.0387    0.0000 H   0  0  0  0  0  0  0  0  0  0  0  0
    7.9269   -0.3363    0.0000 H   0  0  0  0  0  0  0  0  0  0  0  0
    6.3119   -0.5637    0.0000 H   0  0  0  0  0  0  0  0  0  0  0  0
    5.9134   -1.2540    0.0000 H   0  0  0  0  0  0  0  0  0  0  0  0
    8.8666   -1.2540    0.0000 H   0  0  0  0  0  0  0  0  0  0  0  0
    8.4680   -0.5637    0.0000 H   0  0  0  0  0  0  0  0  0  0  0  0
    3.6997   -2.2989    0.0000 H   0  0  0  0  0  0  0  0  0  0  0  0
    2.8811   -1.9847    0.0000 H   0  0  0  0  0  0  0  0  0  0  0  0
    2.5669   -2.8033    0.0000 H   0  0  0  0  0  0  0  0  0  0  0  0
    2.3743   -3.3050    0.0000 H   0  0  0  0  0  0  0  0  0  0  0  0
    2.0600   -4.1236    0.0000 H   0  0  0  0  0  0  0  0  0  0  0  0
    2.8786   -4.4378    0.0000 H   0  0  0  0  0  0  0  0  0  0  0  0
    4.7057   -3.6243    0.0000 H   0  0  0  0  0  0  0  0  0  0  0  0
    5.0199   -2.8058    0.0000 H   0  0  0  0  0  0  0  0  0  0  0  0
    4.2014   -2.4915    0.0000 H   0  0  0  0  0  0  0  0  0  0  0  0
    8.2425   -4.8945    0.0000 H   0  0  0  0  0  0  0  0  0  0  0  0
    6.3650   -6.9797    0.0000 H   0  0  0  0  0  0  0  0  0  0  0  0
    8.7886    0.7499    0.0000 H   0  0  0  0  0  0  0  0  0  0  0  0
    7.5689   -8.0637    0.0000 H   0  0  0  0  0  0  0  0  0  0  0  0
    2.0000   -5.5843    0.0000 H   0  0  0  0  0  0  0  0  0  0  0  0
    9.1096   -7.5631    0.0000 H   0  0  0  0  0  0  0  0  0  0  0  0
    5.1413    0.2507    0.0000 H   0  0  0  0  0  0  0  0  0  0  0  0
    5.9210    0.0850    0.0000 H   0  0  0  0  0  0  0  0  0  0  0  0
    8.9084    2.2555    0.0000 H   0  0  0  0  0  0  0  0  0  0  0  0
    8.9918    3.0482    0.0000 H   0  0  0  0  0  0  0  0  0  0  0  0
    5.3016    1.7623    0.0000 H   0  0  0  0  0  0  0  0  0  0  0  0
    4.4260    1.7164    0.0000 H   0  0  0  0  0  0  0  0  0  0  0  0
    4.4719    0.8408    0.0000 H   0  0  0  0  0  0  0  0  0  0  0  0
    9.2754    4.3593    0.0000 H   0  0  0  0  0  0  0  0  0  0  0  0
    6.7121    3.2180    0.0000 H   0  0  0  0  0  0  0  0  0  0  0  0
    6.0531    4.6980    0.0000 H   0  0  0  0  0  0  0  0  0  0  0  0
    7.0054    6.0086    0.0000 H   0  0  0  0  0  0  0  0  0  0  0  0
    9.7920    7.4573    0.0000 H   0  0  0  0  0  0  0  0  0  0  0  0
  1 29  1  0  0  0  0
  2 21  1  0  0  0  0
  2 75  1  0  0  0  0
  3 21  2  0  0  0  0
  4 10  1  0  0  0  0
  4 11  1  0  0  0  0
  4 13  1  0  0  0  0
  5 12  1  0  0  0  0
  5 16  1  0  0  0  0
  5 17  1  0  0  0  0
  6  7  1  0  0  0  0
  6 25  1  0  0  0  0
  6 33  1  0  0  0  0
  7 32  2  0  0  0  0
  8  9  1  0  0  0  0
  8 10  1  0  0  0  0
  8 12  1  6  0  0  0
  8 44  1  0  0  0  0
  9 11  1  0  0  0  0
  9 15  1  1  0  0  0
  9 45  1  0  0  0  0
 10 46  1  0  0  0  0
 10 47  1  0  0  0  0
 11 48  1  0  0  0  0
 11 49  1  0  0  0  0
 12 50  1  0  0  0  0
 12 51  1  0  0  0  0
 13 14  1  0  0  0  0
 13 21  1  1  0  0  0
 13 52  1  0  0  0  0
 14 22  1  0  0  0  0
 14 23  1  0  0  0  0
 14 24  1  0  0  0  0
 15 26  2  0  0  0  0
 15 27  1  0  0  0  0
 16 19  1  0  0  0  0
 16 53  1  0  0  0  0
 16 54  1  0  0  0  0
 17 20  1  0  0  0  0
 17 55  1  0  0  0  0
 17 56  1  0  0  0  0
 18 19  1  0  0  0  0
 18 20  1  0  0  0  0
 18 25  1  0  0  0  0
 18 57  1  0  0  0  0
 19 58  1  0  0  0  0
 19 59  1  0  0  0  0
 20 60  1  0  0  0  0
 20 61  1  0  0  0  0
 22 62  1  0  0  0  0
 22 63  1  0  0  0  0
 22 64  1  0  0  0  0
 23 65  1  0  0  0  0
 23 66  1  0  0  0  0
 23 67  1  0  0  0  0
 24 68  1  0  0  0  0
 24 69  1  0  0  0  0
 24 70  1  0  0  0  0
 25 28  2  0  0  0  0
 26 29  1  0  0  0  0
 26 71  1  0  0  0  0
 27 30  2  0  0  0  0
 27 72  1  0  0  0  0
 28 32  1  0  0  0  0
 28 73  1  0  0  0  0
 29 31  2  0  0  0  0
 30 31  1  0  0  0  0
 30 74  1  0  0  0  0
 31 76  1  0  0  0  0
 32 34  1  0  0  0  0
 33 35  1  0  0  0  0
 33 77  1  0  0  0  0
 33 78  1  0  0  0  0
 34 36  1  0  0  0  0
 34 79  1  0  0  0  0
 34 80  1  0  0  0  0
 35 81  1  0  0  0  0
 35 82  1  0  0  0  0
 35 83  1  0  0  0  0
 36 37  2  0  0  0  0
 36 38  1  0  0  0  0
 37 39  1  0  0  0  0
 37 84  1  0  0  0  0
 38 40  2  0  0  0  0
 38 85  1  0  0  0  0
 39 41  2  0  0  0  0
 39 42  1  0  0  0  0
 40 41  1  0  0  0  0
 40 86  1  0  0  0  0
 41 87  1  0  0  0  0
 42 43  3  0  0  0  0
 43 88  1  0  0  0  0
M  END
> <PUBCHEM_COMPOUND_CID>
516265
> <PUBCHEM_COMPOUND_CANONICALIZED>
1
> <PUBCHEM_CACTVS_COMPLEXITY>
968
> <PUBCHEM_CACTVS_HBOND_ACCEPTOR>
6
> <PUBCHEM_CACTVS_HBOND_DONOR>
1
> <PUBCHEM_CACTVS_ROTATABLE_BOND>
11
> <PUBCHEM_CACTVS_SUBSKEYS>
AAADcfB/sQAAAAAAAAAAAAAAAAAAAWLAAAA8YIAAAAAAAAAB0AAAHwAICAAADyjBngwyiJMIAgDqGyTyTAiSBAAhggAY2CG4ZJgKIDLA0fGE5AhkiADYyAcQgMAPgAACAAAAAAAAAAQAAAAAAAAAAAAAAA==
> <PUBCHEM_IUPAC_OPENEYE_NAME>
(2R)-2-[(3S,4S)-3-[[4-[2-ethyl-5-[(3-ethynylphenyl)methyl]pyrazol-3-yl]-1-piperidyl]methyl]-4-(3-fluorophenyl)pyrrolidin-1-yl]-3,3-dimethyl-butanoic acid
> <PUBCHEM_IUPAC_CAS_NAME>
(2R)-2-[(3S,4S)-3-[[4-[2-ethyl-5-[(3-ethynylphenyl)methyl]-3-pyrazolyl]-1-piperidinyl]methyl]-4-(3-fluorophenyl)-1-pyrrolidinyl]-3,3-dimethylbutanoic acid
> <PUBCHEM_IUPAC_NAME_MARKUP>
(2<I>R</I>)-2-[(3<I>S</I>,4<I>S</I>)-3-[[4-[2-ethyl-5-[(3-ethynylphenyl)methyl]pyrazol-3-yl]piperidin-1-yl]methyl]-4-(3-fluorophenyl)pyrrolidin-1-yl]-3,3-dimethylbutanoic acid
> <PUBCHEM_IUPAC_NAME>
(2R)-2-[(3S,4S)-3-[[4-[2-ethyl-5-[(3-ethynylphenyl)methyl]pyrazol-3-yl]piperidin-1-yl]methyl]-4-(3-fluorophenyl)pyrrolidin-1-yl]-3,3-dimethylbutanoic acid
> <PUBCHEM_IUPAC_SYSTEMATIC_NAME>
(2R)-2-[(3S,4S)-3-[[4-[2-ethyl-5-[(3-ethynylphenyl)methyl]pyrazol-3-yl]piperidin-1-yl]methyl]-4-(3-fluorophenyl)pyrrolidin-1-yl]-3,3-dimethyl-butanoic acid
> <PUBCHEM_IUPAC_TRADITIONAL_NAME>
(2R)-2-[(3S,4S)-3-[[4-[2-ethyl-5-(3-ethynylbenzyl)pyrazol-3-yl]piperidino]methyl]-4-(3-fluorophenyl)pyrrolidino]-3,3-dimethyl-butyric acid
> <PUBCHEM_IUPAC_INCHI>
InChI=1S/C36H45FN4O2/c1-6-25-10-8-11-26(18-25)19-31-21-33(41(7-2)38-31)27-14-16-39(17-15-27)22-29-23-40(34(35(42)43)36(3,4)5)24-32(29)28-12-9-13-30(37)20-28/h1,8-13,18,20-21,27,29,32,34H,7,14-17,19,22-24H2,2-5H3,(H,42,43)/t29-,32+,34-/m0/s1
> <PUBCHEM_IUPAC_INCHIKEY>
CZDWYPZSCKAWIS-PMMLCMNPSA-N
> <PUBCHEM_XLOGP3_AA>
4.3
> <PUBCHEM_EXACT_MASS>
584.35265485
> <PUBCHEM_MOLECULAR_FORMULA>
C36H45FN4O2
> <PUBCHEM_MOLECULAR_WEIGHT>
584.8
> <PUBCHEM_OPENEYE_CAN_SMILES>
CCN1C(=CC(=N1)CC2=CC(=CC=C2)C#C)C3CCN(CC3)CC4CN(CC4C5=CC(=CC=C5)F)C(C(=O)O)C(C)(C)C
> <PUBCHEM_OPENEYE_ISO_SMILES>
CCN1C(=CC(=N1)CC2=CC(=CC=C2)C#C)C3CCN(CC3)C[C@H]4CN(C[C@@H]4C5=CC(=CC=C5)F)[C@@H](C(=O)O)C(C)(C)C
> <PUBCHEM_CACTVS_TPSA>
61.6
> <PUBCHEM_MONOISOTOPIC_WEIGHT>
584.35265485
> <PUBCHEM_TOTAL_CHARGE>
0
> <PUBCHEM_HEAVY_ATOM_COUNT>
43
> <PUBCHEM_ATOM_DEF_STEREO_COUNT>
3
> <PUBCHEM_ATOM_UDEF_STEREO_COUNT>
0
> <PUBCHEM_BOND_DEF_STEREO_COUNT>
0
> <PUBCHEM_BOND_UDEF_STEREO_COUNT>
0
> <PUBCHEM_ISOTOPIC_ATOM_COUNT>
0
> <PUBCHEM_COMPONENT_COUNT>
1
> <PUBCHEM_CACTVS_TAUTO_COUNT>
-1
> <PUBCHEM_COORDINATE_TYPE>
1
5
255
> <PUBCHEM_BONDANNOTATIONS>
13  21  5
15  26  8
15  27  8
25  28  8
26  29  8
27  30  8
28  32  8
29  31  8
30  31  8
36  37  8
36  38  8
37  39  8
38  40  8
39  41  8
40  41  8
6  25  8
6  7  8
7  32  8
8  12  6
9  15  5
$$$$
