516242
  -OEChem-10302200282D
 93 97  0     1  0  0  0  0  0999 V2000
    7.7132   -8.1523    0.0000 F   0  0  0  0  0  0  0  0  0  0  0  0
    2.7688   -3.0770    0.0000 O   0  0  0  0  0  0  0  0  0  0  0  0
    4.3511   -2.3726    0.0000 O   0  0  0  0  0  0  0  0  0  0  0  0
    9.0632    6.4298    0.0000 O   0  0  0  0  0  0  0  0  0  0  0  0
    5.1646   -4.1996    0.0000 N   0  0  3  0  0  0  0  0  0  0  0  0
    7.6133   -2.3632    0.0000 N   0  0  0  0  0  0  0  0  0  0  0  0
    6.8043    1.2246    0.0000 N   0  0  0  0  0  0  0  0  0  0  0  0
    7.1133    2.1756    0.0000 N   0  0  0  0  0  0  0  0  0  0  0  0
    6.7473   -3.8632    0.0000 C   0  0  2  0  0  0  0  0  0  0  0  0
    6.6428   -4.8578    0.0000 C   0  0  2  0  0  0  0  0  0  0  0  0
    5.8338   -3.4565    0.0000 C   0  0  0  0  0  0  0  0  0  0  0  0
    5.6646   -5.0657    0.0000 C   0  0  0  0  0  0  0  0  0  0  0  0
    7.6133   -3.3632    0.0000 C   0  0  0  0  0  0  0  0  0  0  0  0
    4.1701   -4.0951    0.0000 C   0  0  2  0  0  0  0  0  0  0  0  0
    7.3859   -5.5269    0.0000 C   0  0  0  0  0  0  0  0  0  0  0  0
    6.7473   -1.8632    0.0000 C   0  0  0  0  0  0  0  0  0  0  0  0
    8.4793   -1.8632    0.0000 C   0  0  0  0  0  0  0  0  0  0  0  0
    7.6133   -0.3632    0.0000 C   0  0  0  0  0  0  0  0  0  0  0  0
    3.5823   -4.9041    0.0000 C   0  0  1  0  0  0  0  0  0  0  0  0
    6.7473   -0.8632    0.0000 C   0  0  0  0  0  0  0  0  0  0  0  0
    8.4793   -0.8632    0.0000 C   0  0  0  0  0  0  0  0  0  0  0  0
    3.7634   -3.1816    0.0000 C   0  0  0  0  0  0  0  0  0  0  0  0
    2.5878   -4.7996    0.0000 C   0  0  0  0  0  0  0  0  0  0  0  0
    7.6133    0.6368    0.0000 C   0  0  0  0  0  0  0  0  0  0  0  0
    7.1780   -6.5050    0.0000 C   0  0  0  0  0  0  0  0  0  0  0  0
    8.3370   -5.2179    0.0000 C   0  0  0  0  0  0  0  0  0  0  0  0
    3.9890   -5.8177    0.0000 C   0  0  0  0  0  0  0  0  0  0  0  0
    8.4223    1.2246    0.0000 C   0  0  0  0  0  0  0  0  0  0  0  0
    2.0000   -5.6086    0.0000 C   0  0  0  0  0  0  0  0  0  0  0  0
    7.9211   -7.1742    0.0000 C   0  0  0  0  0  0  0  0  0  0  0  0
    9.0801   -5.8870    0.0000 C   0  0  0  0  0  0  0  0  0  0  0  0
    8.8722   -6.8652    0.0000 C   0  0  0  0  0  0  0  0  0  0  0  0
    8.1133    2.1756    0.0000 C   0  0  0  0  0  0  0  0  0  0  0  0
    5.8532    0.9155    0.0000 C   0  0  0  0  0  0  0  0  0  0  0  0
    8.7011    2.9846    0.0000 C   0  0  0  0  0  0  0  0  0  0  0  0
    5.1101    1.5847    0.0000 C   0  0  0  0  0  0  0  0  0  0  0  0
    8.2944    3.8982    0.0000 C   0  0  0  0  0  0  0  0  0  0  0  0
    8.8822    4.7072    0.0000 C   0  0  0  0  0  0  0  0  0  0  0  0
    7.2998    4.0027    0.0000 C   0  0  0  0  0  0  0  0  0  0  0  0
    8.4754    5.6207    0.0000 C   0  0  0  0  0  0  0  0  0  0  0  0
    6.8931    4.9162    0.0000 C   0  0  0  0  0  0  0  0  0  0  0  0
    7.4809    5.7253    0.0000 C   0  0  0  0  0  0  0  0  0  0  0  0
    8.6565    7.3433    0.0000 C   0  0  0  0  0  0  0  0  0  0  0  0
    9.2442    8.1523    0.0000 C   0  0  0  0  0  0  0  0  0  0  0  0
    7.2673   -4.2009    0.0000 H   0  0  0  0  0  0  0  0  0  0  0  0
    7.2216   -4.6356    0.0000 H   0  0  0  0  0  0  0  0  0  0  0  0
    6.1437   -2.9196    0.0000 H   0  0  0  0  0  0  0  0  0  0  0  0
    5.3322   -3.0921    0.0000 H   0  0  0  0  0  0  0  0  0  0  0  0
    5.0982   -5.3178    0.0000 H   0  0  0  0  0  0  0  0  0  0  0  0
    5.8562   -5.6553    0.0000 H   0  0  0  0  0  0  0  0  0  0  0  0
    7.8254   -3.9458    0.0000 H   0  0  0  0  0  0  0  0  0  0  0  0
    8.2239   -3.2556    0.0000 H   0  0  0  0  0  0  0  0  0  0  0  0
    4.5345   -3.5935    0.0000 H   0  0  0  0  0  0  0  0  0  0  0  0
    6.1367   -1.7556    0.0000 H   0  0  0  0  0  0  0  0  0  0  0  0
    6.5352   -2.4458    0.0000 H   0  0  0  0  0  0  0  0  0  0  0  0
    8.6914   -2.4458    0.0000 H   0  0  0  0  0  0  0  0  0  0  0  0
    9.0899   -1.7556    0.0000 H   0  0  0  0  0  0  0  0  0  0  0  0
    7.0764   -0.0532    0.0000 H   0  0  0  0  0  0  0  0  0  0  0  0
    3.2179   -5.4057    0.0000 H   0  0  0  0  0  0  0  0  0  0  0  0
    6.5352   -0.2806    0.0000 H   0  0  0  0  0  0  0  0  0  0  0  0
    6.1367   -0.9709    0.0000 H   0  0  0  0  0  0  0  0  0  0  0  0
    9.0899   -0.9709    0.0000 H   0  0  0  0  0  0  0  0  0  0  0  0
    8.6914   -0.2806    0.0000 H   0  0  0  0  0  0  0  0  0  0  0  0
    2.7587   -4.2036    0.0000 H   0  0  0  0  0  0  0  0  0  0  0  0
    2.0305   -4.5278    0.0000 H   0  0  0  0  0  0  0  0  0  0  0  0
    6.5883   -6.6966    0.0000 H   0  0  0  0  0  0  0  0  0  0  0  0
    8.4659   -4.6114    0.0000 H   0  0  0  0  0  0  0  0  0  0  0  0
    3.4226   -6.0698    0.0000 H   0  0  0  0  0  0  0  0  0  0  0  0
    4.2412   -6.3841    0.0000 H   0  0  0  0  0  0  0  0  0  0  0  0
    4.5554   -5.5655    0.0000 H   0  0  0  0  0  0  0  0  0  0  0  0
    9.0120    1.0330    0.0000 H   0  0  0  0  0  0  0  0  0  0  0  0
    1.4984   -5.2442    0.0000 H   0  0  0  0  0  0  0  0  0  0  0  0
    1.6356   -6.1102    0.0000 H   0  0  0  0  0  0  0  0  0  0  0  0
    2.5016   -5.9730    0.0000 H   0  0  0  0  0  0  0  0  0  0  0  0
    9.6698   -5.6954    0.0000 H   0  0  0  0  0  0  0  0  0  0  0  0
    9.3330   -7.2800    0.0000 H   0  0  0  0  0  0  0  0  0  0  0  0
    2.5167   -2.5106    0.0000 H   0  0  0  0  0  0  0  0  0  0  0  0
    5.3647    0.5338    0.0000 H   0  0  0  0  0  0  0  0  0  0  0  0
    6.1443    0.3681    0.0000 H   0  0  0  0  0  0  0  0  0  0  0  0
    9.1318    2.5386    0.0000 H   0  0  0  0  0  0  0  0  0  0  0  0
    9.2151    3.3313    0.0000 H   0  0  0  0  0  0  0  0  0  0  0  0
    5.5250    2.0454    0.0000 H   0  0  0  0  0  0  0  0  0  0  0  0
    4.6494    1.9995    0.0000 H   0  0  0  0  0  0  0  0  0  0  0  0
    4.6952    1.1239    0.0000 H   0  0  0  0  0  0  0  0  0  0  0  0
    9.4988    4.6424    0.0000 H   0  0  0  0  0  0  0  0  0  0  0  0
    6.9354    3.5011    0.0000 H   0  0  0  0  0  0  0  0  0  0  0  0
    6.2765    4.9810    0.0000 H   0  0  0  0  0  0  0  0  0  0  0  0
    7.2287    6.2917    0.0000 H   0  0  0  0  0  0  0  0  0  0  0  0
    8.2258    7.7893    0.0000 H   0  0  0  0  0  0  0  0  0  0  0  0
    8.1425    6.9966    0.0000 H   0  0  0  0  0  0  0  0  0  0  0  0
    9.7458    7.7879    0.0000 H   0  0  0  0  0  0  0  0  0  0  0  0
    9.6087    8.6539    0.0000 H   0  0  0  0  0  0  0  0  0  0  0  0
    8.7427    8.5167    0.0000 H   0  0  0  0  0  0  0  0  0  0  0  0
  1 30  1  0  0  0  0
  2 22  1  0  0  0  0
  2 77  1  0  0  0  0
  3 22  2  0  0  0  0
  4 40  1  0  0  0  0
  4 43  1  0  0  0  0
  5 11  1  0  0  0  0
  5 12  1  0  0  0  0
  5 14  1  0  0  0  0
  6 13  1  0  0  0  0
  6 16  1  0  0  0  0
  6 17  1  0  0  0  0
  7  8  1  0  0  0  0
  7 24  1  0  0  0  0
  7 34  1  0  0  0  0
  8 33  2  0  0  0  0
  9 10  1  0  0  0  0
  9 11  1  0  0  0  0
  9 13  1  6  0  0  0
  9 45  1  0  0  0  0
 10 12  1  0  0  0  0
 10 15  1  1  0  0  0
 10 46  1  0  0  0  0
 11 47  1  0  0  0  0
 11 48  1  0  0  0  0
 12 49  1  0  0  0  0
 12 50  1  0  0  0  0
 13 51  1  0  0  0  0
 13 52  1  0  0  0  0
 14 19  1  0  0  0  0
 14 22  1  6  0  0  0
 14 53  1  0  0  0  0
 15 25  2  0  0  0  0
 15 26  1  0  0  0  0
 16 20  1  0  0  0  0
 16 54  1  0  0  0  0
 16 55  1  0  0  0  0
 17 21  1  0  0  0  0
 17 56  1  0  0  0  0
 17 57  1  0  0  0  0
 18 20  1  0  0  0  0
 18 21  1  0  0  0  0
 18 24  1  0  0  0  0
 18 58  1  0  0  0  0
 19 23  1  0  0  0  0
 19 27  1  6  0  0  0
 19 59  1  0  0  0  0
 20 60  1  0  0  0  0
 20 61  1  0  0  0  0
 21 62  1  0  0  0  0
 21 63  1  0  0  0  0
 23 29  1  0  0  0  0
 23 64  1  0  0  0  0
 23 65  1  0  0  0  0
 24 28  2  0  0  0  0
 25 30  1  0  0  0  0
 25 66  1  0  0  0  0
 26 31  2  0  0  0  0
 26 67  1  0  0  0  0
 27 68  1  0  0  0  0
 27 69  1  0  0  0  0
 27 70  1  0  0  0  0
 28 33  1  0  0  0  0
 28 71  1  0  0  0  0
 29 72  1  0  0  0  0
 29 73  1  0  0  0  0
 29 74  1  0  0  0  0
 30 32  2  0  0  0  0
 31 32  1  0  0  0  0
 31 75  1  0  0  0  0
 32 76  1  0  0  0  0
 33 35  1  0  0  0  0
 34 36  1  0  0  0  0
 34 78  1  0  0  0  0
 34 79  1  0  0  0  0
 35 37  1  0  0  0  0
 35 80  1  0  0  0  0
 35 81  1  0  0  0  0
 36 82  1  0  0  0  0
 36 83  1  0  0  0  0
 36 84  1  0  0  0  0
 37 38  2  0  0  0  0
 37 39  1  0  0  0  0
 38 40  1  0  0  0  0
 38 85  1  0  0  0  0
 39 41  2  0  0  0  0
 39 86  1  0  0  0  0
 40 42  2  0  0  0  0
 41 42  1  0  0  0  0
 41 87  1  0  0  0  0
 42 88  1  0  0  0  0
 43 44  1  0  0  0  0
 43 89  1  0  0  0  0
 43 90  1  0  0  0  0
 44 91  1  0  0  0  0
 44 92  1  0  0  0  0
 44 93  1  0  0  0  0
M  END
> <PUBCHEM_COMPOUND_CID>
516242
> <PUBCHEM_COMPOUND_CANONICALIZED>
1
> <PUBCHEM_CACTVS_COMPLEXITY>
887
> <PUBCHEM_CACTVS_HBOND_ACCEPTOR>
7
> <PUBCHEM_CACTVS_HBOND_DONOR>
1
> <PUBCHEM_CACTVS_ROTATABLE_BOND>
13
> <PUBCHEM_CACTVS_SUBSKEYS>
AAADcfB/sQAAAAAAAAAAAAAAAAAAAWLAAAA8YIAAAAAAAAAB0AAAHwAICAAADSzhng4yjpMIBgCqAyTyTACSDAAhogAY2CG+bJgOJjLE8fuG/CjkyBHY6AeY0PEOgAABAAAAAAAAAAIAAAAAAAAAAAAAAA==
> <PUBCHEM_IUPAC_OPENEYE_NAME>
(2R,3R)-2-[(3S,4S)-3-[[4-[5-[(3-ethoxyphenyl)methyl]-2-ethyl-pyrazol-3-yl]-1-piperidyl]methyl]-4-(3-fluorophenyl)pyrrolidin-1-yl]-3-methyl-pentanoic acid
> <PUBCHEM_IUPAC_CAS_NAME>
(2R,3R)-2-[(3S,4S)-3-[[4-[5-[(3-ethoxyphenyl)methyl]-2-ethyl-3-pyrazolyl]-1-piperidinyl]methyl]-4-(3-fluorophenyl)-1-pyrrolidinyl]-3-methylpentanoic acid
> <PUBCHEM_IUPAC_NAME_MARKUP>
(2<I>R</I>,3<I>R</I>)-2-[(3<I>S</I>,4<I>S</I>)-3-[[4-[5-[(3-ethoxyphenyl)methyl]-2-ethylpyrazol-3-yl]piperidin-1-yl]methyl]-4-(3-fluorophenyl)pyrrolidin-1-yl]-3-methylpentanoic acid
> <PUBCHEM_IUPAC_NAME>
(2R,3R)-2-[(3S,4S)-3-[[4-[5-[(3-ethoxyphenyl)methyl]-2-ethylpyrazol-3-yl]piperidin-1-yl]methyl]-4-(3-fluorophenyl)pyrrolidin-1-yl]-3-methylpentanoic acid
> <PUBCHEM_IUPAC_SYSTEMATIC_NAME>
(2R,3R)-2-[(3S,4S)-3-[[4-[5-[(3-ethoxyphenyl)methyl]-2-ethyl-pyrazol-3-yl]piperidin-1-yl]methyl]-4-(3-fluorophenyl)pyrrolidin-1-yl]-3-methyl-pentanoic acid
> <PUBCHEM_IUPAC_TRADITIONAL_NAME>
(2R,3R)-2-[(3S,4S)-3-[[4-[5-(3-ethoxybenzyl)-2-ethyl-pyrazol-3-yl]piperidino]methyl]-4-(3-fluorophenyl)pyrrolidino]-3-methyl-valeric acid
> <PUBCHEM_IUPAC_INCHI>
InChI=1S/C36H49FN4O3/c1-5-25(4)35(36(42)43)40-23-29(33(24-40)28-11-9-12-30(37)20-28)22-39-16-14-27(15-17-39)34-21-31(38-41(34)6-2)18-26-10-8-13-32(19-26)44-7-3/h8-13,19-21,25,27,29,33,35H,5-7,14-18,22-24H2,1-4H3,(H,42,43)/t25-,29+,33-,35-/m1/s1
> <PUBCHEM_IUPAC_INCHIKEY>
RGIPYCSQKBJEOA-YAYDYDRESA-N
> <PUBCHEM_XLOGP3_AA>
4.4
> <PUBCHEM_EXACT_MASS>
604.37886960
> <PUBCHEM_MOLECULAR_FORMULA>
C36H49FN4O3
> <PUBCHEM_MOLECULAR_WEIGHT>
604.8
> <PUBCHEM_OPENEYE_CAN_SMILES>
CCC(C)C(C(=O)O)N1CC(C(C1)C2=CC(=CC=C2)F)CN3CCC(CC3)C4=CC(=NN4CC)CC5=CC(=CC=C5)OCC
> <PUBCHEM_OPENEYE_ISO_SMILES>
CC[C@@H](C)[C@H](C(=O)O)N1C[C@@H]([C@H](C1)C2=CC(=CC=C2)F)CN3CCC(CC3)C4=CC(=NN4CC)CC5=CC(=CC=C5)OCC
> <PUBCHEM_CACTVS_TPSA>
70.8
> <PUBCHEM_MONOISOTOPIC_WEIGHT>
604.37886960
> <PUBCHEM_TOTAL_CHARGE>
0
> <PUBCHEM_HEAVY_ATOM_COUNT>
44
> <PUBCHEM_ATOM_DEF_STEREO_COUNT>
4
> <PUBCHEM_ATOM_UDEF_STEREO_COUNT>
0
> <PUBCHEM_BOND_DEF_STEREO_COUNT>
0
> <PUBCHEM_BOND_UDEF_STEREO_COUNT>
0
> <PUBCHEM_ISOTOPIC_ATOM_COUNT>
0
> <PUBCHEM_COMPONENT_COUNT>
1
> <PUBCHEM_CACTVS_TAUTO_COUNT>
-1
> <PUBCHEM_COORDINATE_TYPE>
1
5
255
> <PUBCHEM_BONDANNOTATIONS>
10  15  5
14  22  6
15  25  8
15  26  8
19  27  6
24  28  8
25  30  8
26  31  8
28  33  8
30  32  8
31  32  8
37  38  8
37  39  8
38  40  8
39  41  8
40  42  8
41  42  8
7  24  8
7  8  8
8  33  8
9  13  6
$$$$
