516233
  -OEChem-10302200282D
 95 99  0     1  0  0  0  0  0999 V2000
    7.7132   -7.8001    0.0000 F   0  0  0  0  0  0  0  0  0  0  0  0
    2.7688   -2.7248    0.0000 O   0  0  0  0  0  0  0  0  0  0  0  0
    4.3511   -2.0203    0.0000 O   0  0  0  0  0  0  0  0  0  0  0  0
    5.1646   -3.8474    0.0000 N   0  0  3  0  0  0  0  0  0  0  0  0
    7.6133   -2.0110    0.0000 N   0  0  0  0  0  0  0  0  0  0  0  0
    6.8043    1.5768    0.0000 N   0  0  0  0  0  0  0  0  0  0  0  0
    7.1133    2.5278    0.0000 N   0  0  0  0  0  0  0  0  0  0  0  0
    6.7473   -3.5110    0.0000 C   0  0  2  0  0  0  0  0  0  0  0  0
    6.6428   -4.5055    0.0000 C   0  0  2  0  0  0  0  0  0  0  0  0
    5.8338   -3.1042    0.0000 C   0  0  0  0  0  0  0  0  0  0  0  0
    5.6646   -4.7134    0.0000 C   0  0  0  0  0  0  0  0  0  0  0  0
    7.6133   -3.0110    0.0000 C   0  0  0  0  0  0  0  0  0  0  0  0
    4.1701   -3.7429    0.0000 C   0  0  2  0  0  0  0  0  0  0  0  0
    7.3859   -5.1746    0.0000 C   0  0  0  0  0  0  0  0  0  0  0  0
    6.7473   -1.5110    0.0000 C   0  0  0  0  0  0  0  0  0  0  0  0
    8.4793   -1.5110    0.0000 C   0  0  0  0  0  0  0  0  0  0  0  0
    7.6133   -0.0110    0.0000 C   0  0  0  0  0  0  0  0  0  0  0  0
    3.5823   -4.5519    0.0000 C   0  0  2  0  0  0  0  0  0  0  0  0
    6.7473   -0.5110    0.0000 C   0  0  0  0  0  0  0  0  0  0  0  0
    8.4793   -0.5110    0.0000 C   0  0  0  0  0  0  0  0  0  0  0  0
    3.7634   -2.8293    0.0000 C   0  0  0  0  0  0  0  0  0  0  0  0
    7.6133    0.9890    0.0000 C   0  0  0  0  0  0  0  0  0  0  0  0
    2.5878   -4.4474    0.0000 C   0  0  0  0  0  0  0  0  0  0  0  0
    7.1780   -6.1528    0.0000 C   0  0  0  0  0  0  0  0  0  0  0  0
    8.3370   -4.8656    0.0000 C   0  0  0  0  0  0  0  0  0  0  0  0
    3.9890   -5.4654    0.0000 C   0  0  0  0  0  0  0  0  0  0  0  0
    8.4223    1.5768    0.0000 C   0  0  0  0  0  0  0  0  0  0  0  0
    2.0000   -5.2564    0.0000 C   0  0  0  0  0  0  0  0  0  0  0  0
    7.9211   -6.8219    0.0000 C   0  0  0  0  0  0  0  0  0  0  0  0
    9.0801   -5.5348    0.0000 C   0  0  0  0  0  0  0  0  0  0  0  0
    8.1133    2.5278    0.0000 C   0  0  0  0  0  0  0  0  0  0  0  0
    8.8722   -6.5129    0.0000 C   0  0  0  0  0  0  0  0  0  0  0  0
    5.8532    1.2678    0.0000 C   0  0  0  0  0  0  0  0  0  0  0  0
    8.7011    3.3369    0.0000 C   0  0  0  0  0  0  0  0  0  0  0  0
    5.1101    1.9369    0.0000 C   0  0  0  0  0  0  0  0  0  0  0  0
    8.2944    4.2504    0.0000 C   0  0  0  0  0  0  0  0  0  0  0  0
    7.2998    4.3549    0.0000 C   0  0  0  0  0  0  0  0  0  0  0  0
    8.8822    5.0594    0.0000 C   0  0  0  0  0  0  0  0  0  0  0  0
    6.8931    5.2685    0.0000 C   0  0  0  0  0  0  0  0  0  0  0  0
    8.4754    5.9730    0.0000 C   0  0  0  0  0  0  0  0  0  0  0  0
    7.4809    6.0775    0.0000 C   0  0  0  0  0  0  0  0  0  0  0  0
    7.0742    6.9910    0.0000 C   0  0  0  0  0  0  0  0  0  0  0  0
    7.6619    7.8001    0.0000 C   0  0  0  0  0  0  0  0  0  0  0  0
    6.0796    7.0956    0.0000 C   0  0  0  0  0  0  0  0  0  0  0  0
    7.2673   -3.8487    0.0000 H   0  0  0  0  0  0  0  0  0  0  0  0
    6.4823   -5.1044    0.0000 H   0  0  0  0  0  0  0  0  0  0  0  0
    6.1437   -2.5673    0.0000 H   0  0  0  0  0  0  0  0  0  0  0  0
    5.3322   -2.7398    0.0000 H   0  0  0  0  0  0  0  0  0  0  0  0
    5.0982   -4.9656    0.0000 H   0  0  0  0  0  0  0  0  0  0  0  0
    5.8562   -5.3031    0.0000 H   0  0  0  0  0  0  0  0  0  0  0  0
    7.8254   -3.5936    0.0000 H   0  0  0  0  0  0  0  0  0  0  0  0
    8.2239   -2.9033    0.0000 H   0  0  0  0  0  0  0  0  0  0  0  0
    4.5345   -3.2413    0.0000 H   0  0  0  0  0  0  0  0  0  0  0  0
    6.1367   -1.4033    0.0000 H   0  0  0  0  0  0  0  0  0  0  0  0
    6.5352   -2.0936    0.0000 H   0  0  0  0  0  0  0  0  0  0  0  0
    8.6914   -2.0936    0.0000 H   0  0  0  0  0  0  0  0  0  0  0  0
    9.0899   -1.4033    0.0000 H   0  0  0  0  0  0  0  0  0  0  0  0
    7.0764    0.2990    0.0000 H   0  0  0  0  0  0  0  0  0  0  0  0
    3.2179   -5.0535    0.0000 H   0  0  0  0  0  0  0  0  0  0  0  0
    6.5352    0.0716    0.0000 H   0  0  0  0  0  0  0  0  0  0  0  0
    6.1367   -0.6187    0.0000 H   0  0  0  0  0  0  0  0  0  0  0  0
    9.0899   -0.6187    0.0000 H   0  0  0  0  0  0  0  0  0  0  0  0
    8.6914    0.0716    0.0000 H   0  0  0  0  0  0  0  0  0  0  0  0
    2.7587   -3.8514    0.0000 H   0  0  0  0  0  0  0  0  0  0  0  0
    2.0305   -4.1756    0.0000 H   0  0  0  0  0  0  0  0  0  0  0  0
    6.5883   -6.3444    0.0000 H   0  0  0  0  0  0  0  0  0  0  0  0
    8.4659   -4.2592    0.0000 H   0  0  0  0  0  0  0  0  0  0  0  0
    3.4226   -5.7176    0.0000 H   0  0  0  0  0  0  0  0  0  0  0  0
    4.2412   -6.0318    0.0000 H   0  0  0  0  0  0  0  0  0  0  0  0
    4.5554   -5.2133    0.0000 H   0  0  0  0  0  0  0  0  0  0  0  0
    9.0120    1.3852    0.0000 H   0  0  0  0  0  0  0  0  0  0  0  0
    1.4984   -4.8919    0.0000 H   0  0  0  0  0  0  0  0  0  0  0  0
    1.6356   -5.7580    0.0000 H   0  0  0  0  0  0  0  0  0  0  0  0
    2.5016   -5.6208    0.0000 H   0  0  0  0  0  0  0  0  0  0  0  0
    9.6698   -5.3432    0.0000 H   0  0  0  0  0  0  0  0  0  0  0  0
    9.3330   -6.9278    0.0000 H   0  0  0  0  0  0  0  0  0  0  0  0
    2.5167   -2.1584    0.0000 H   0  0  0  0  0  0  0  0  0  0  0  0
    5.3647    0.8861    0.0000 H   0  0  0  0  0  0  0  0  0  0  0  0
    6.1443    0.7204    0.0000 H   0  0  0  0  0  0  0  0  0  0  0  0
    9.1318    2.8909    0.0000 H   0  0  0  0  0  0  0  0  0  0  0  0
    9.2151    3.6836    0.0000 H   0  0  0  0  0  0  0  0  0  0  0  0
    5.5250    2.3977    0.0000 H   0  0  0  0  0  0  0  0  0  0  0  0
    4.6494    2.3518    0.0000 H   0  0  0  0  0  0  0  0  0  0  0  0
    4.6952    1.4762    0.0000 H   0  0  0  0  0  0  0  0  0  0  0  0
    6.9354    3.8534    0.0000 H   0  0  0  0  0  0  0  0  0  0  0  0
    9.4988    4.9946    0.0000 H   0  0  0  0  0  0  0  0  0  0  0  0
    6.2765    5.3333    0.0000 H   0  0  0  0  0  0  0  0  0  0  0  0
    8.8398    6.4746    0.0000 H   0  0  0  0  0  0  0  0  0  0  0  0
    6.7097    6.4895    0.0000 H   0  0  0  0  0  0  0  0  0  0  0  0
    8.1635    7.4356    0.0000 H   0  0  0  0  0  0  0  0  0  0  0  0
    8.0264    8.3017    0.0000 H   0  0  0  0  0  0  0  0  0  0  0  0
    7.1604    8.1645    0.0000 H   0  0  0  0  0  0  0  0  0  0  0  0
    6.1444    7.7122    0.0000 H   0  0  0  0  0  0  0  0  0  0  0  0
    5.4630    7.1604    0.0000 H   0  0  0  0  0  0  0  0  0  0  0  0
    6.0148    6.4790    0.0000 H   0  0  0  0  0  0  0  0  0  0  0  0
  1 29  1  0  0  0  0
  2 21  1  0  0  0  0
  2 77  1  0  0  0  0
  3 21  2  0  0  0  0
  4 10  1  0  0  0  0
  4 11  1  0  0  0  0
  4 13  1  0  0  0  0
  5 12  1  0  0  0  0
  5 15  1  0  0  0  0
  5 16  1  0  0  0  0
  6  7  1  0  0  0  0
  6 22  1  0  0  0  0
  6 33  1  0  0  0  0
  7 31  2  0  0  0  0
  8  9  1  0  0  0  0
  8 10  1  0  0  0  0
  8 12  1  6  0  0  0
  8 45  1  0  0  0  0
  9 11  1  0  0  0  0
  9 14  1  1  0  0  0
  9 46  1  0  0  0  0
 10 47  1  0  0  0  0
 10 48  1  0  0  0  0
 11 49  1  0  0  0  0
 11 50  1  0  0  0  0
 12 51  1  0  0  0  0
 12 52  1  0  0  0  0
 13 18  1  0  0  0  0
 13 21  1  6  0  0  0
 13 53  1  0  0  0  0
 14 24  2  0  0  0  0
 14 25  1  0  0  0  0
 15 19  1  0  0  0  0
 15 54  1  0  0  0  0
 15 55  1  0  0  0  0
 16 20  1  0  0  0  0
 16 56  1  0  0  0  0
 16 57  1  0  0  0  0
 17 19  1  0  0  0  0
 17 20  1  0  0  0  0
 17 22  1  0  0  0  0
 17 58  1  0  0  0  0
 18 23  1  0  0  0  0
 18 26  1  1  0  0  0
 18 59  1  0  0  0  0
 19 60  1  0  0  0  0
 19 61  1  0  0  0  0
 20 62  1  0  0  0  0
 20 63  1  0  0  0  0
 22 27  2  0  0  0  0
 23 28  1  0  0  0  0
 23 64  1  0  0  0  0
 23 65  1  0  0  0  0
 24 29  1  0  0  0  0
 24 66  1  0  0  0  0
 25 30  2  0  0  0  0
 25 67  1  0  0  0  0
 26 68  1  0  0  0  0
 26 69  1  0  0  0  0
 26 70  1  0  0  0  0
 27 31  1  0  0  0  0
 27 71  1  0  0  0  0
 28 72  1  0  0  0  0
 28 73  1  0  0  0  0
 28 74  1  0  0  0  0
 29 32  2  0  0  0  0
 30 32  1  0  0  0  0
 30 75  1  0  0  0  0
 31 34  1  0  0  0  0
 32 76  1  0  0  0  0
 33 35  1  0  0  0  0
 33 78  1  0  0  0  0
 33 79  1  0  0  0  0
 34 36  1  0  0  0  0
 34 80  1  0  0  0  0
 34 81  1  0  0  0  0
 35 82  1  0  0  0  0
 35 83  1  0  0  0  0
 35 84  1  0  0  0  0
 36 37  2  0  0  0  0
 36 38  1  0  0  0  0
 37 39  1  0  0  0  0
 37 85  1  0  0  0  0
 38 40  2  0  0  0  0
 38 86  1  0  0  0  0
 39 41  2  0  0  0  0
 39 87  1  0  0  0  0
 40 41  1  0  0  0  0
 40 88  1  0  0  0  0
 41 42  1  0  0  0  0
 42 43  1  0  0  0  0
 42 44  1  0  0  0  0
 42 89  1  0  0  0  0
 43 90  1  0  0  0  0
 43 91  1  0  0  0  0
 43 92  1  0  0  0  0
 44 93  1  0  0  0  0
 44 94  1  0  0  0  0
 44 95  1  0  0  0  0
M  END
> <PUBCHEM_COMPOUND_CID>
516233
> <PUBCHEM_COMPOUND_CANONICALIZED>
1
> <PUBCHEM_CACTVS_COMPLEXITY>
889
> <PUBCHEM_CACTVS_HBOND_ACCEPTOR>
6
> <PUBCHEM_CACTVS_HBOND_DONOR>
1
> <PUBCHEM_CACTVS_ROTATABLE_BOND>
12
> <PUBCHEM_CACTVS_SUBSKEYS>
AAADcfB/sQAAAAAAAAAAAAAAAAAAAWLAAAA8YIAAAAAAAAAB0AAAHwAICAAADSjBngwyiJMIAgCqAyTyTACSBAAhggAY2CG4ZJgKIDLA0fGE5AhkiADYyAeYgMAOwAAAAAAAAACAAAAAAAAAAAAAAAAAAA==
> <PUBCHEM_IUPAC_OPENEYE_NAME>
(2R,3S)-2-[(3S,4S)-3-[[4-[2-ethyl-5-[(4-isopropylphenyl)methyl]pyrazol-3-yl]-1-piperidyl]methyl]-4-(3-fluorophenyl)pyrrolidin-1-yl]-3-methyl-pentanoic acid
> <PUBCHEM_IUPAC_CAS_NAME>
(2R,3S)-2-[(3S,4S)-3-[[4-[2-ethyl-5-[(4-propan-2-ylphenyl)methyl]-3-pyrazolyl]-1-piperidinyl]methyl]-4-(3-fluorophenyl)-1-pyrrolidinyl]-3-methylpentanoic acid
> <PUBCHEM_IUPAC_NAME_MARKUP>
(2<I>R</I>,3<I>S</I>)-2-[(3<I>S</I>,4<I>S</I>)-3-[[4-[2-ethyl-5-[(4-propan-2-ylphenyl)methyl]pyrazol-3-yl]piperidin-1-yl]methyl]-4-(3-fluorophenyl)pyrrolidin-1-yl]-3-methylpentanoic acid
> <PUBCHEM_IUPAC_NAME>
(2R,3S)-2-[(3S,4S)-3-[[4-[2-ethyl-5-[(4-propan-2-ylphenyl)methyl]pyrazol-3-yl]piperidin-1-yl]methyl]-4-(3-fluorophenyl)pyrrolidin-1-yl]-3-methylpentanoic acid
> <PUBCHEM_IUPAC_SYSTEMATIC_NAME>
(2R,3S)-2-[(3S,4S)-3-[[4-[2-ethyl-5-[(4-propan-2-ylphenyl)methyl]pyrazol-3-yl]piperidin-1-yl]methyl]-4-(3-fluorophenyl)pyrrolidin-1-yl]-3-methyl-pentanoic acid
> <PUBCHEM_IUPAC_TRADITIONAL_NAME>
(2R,3S)-2-[(3S,4S)-3-[[4-[2-ethyl-5-(4-isopropylbenzyl)pyrazol-3-yl]piperidino]methyl]-4-(3-fluorophenyl)pyrrolidino]-3-methyl-valeric acid
> <PUBCHEM_IUPAC_INCHI>
InChI=1S/C37H51FN4O2/c1-6-26(5)36(37(43)44)41-23-31(34(24-41)30-9-8-10-32(38)20-30)22-40-17-15-29(16-18-40)35-21-33(39-42(35)7-2)19-27-11-13-28(14-12-27)25(3)4/h8-14,20-21,25-26,29,31,34,36H,6-7,15-19,22-24H2,1-5H3,(H,43,44)/t26-,31-,34+,36+/m0/s1
> <PUBCHEM_IUPAC_INCHIKEY>
SESNYPNPIJXNNP-DSYZROQBSA-N
> <PUBCHEM_XLOGP3_AA>
5.2
> <PUBCHEM_EXACT_MASS>
602.39960504
> <PUBCHEM_MOLECULAR_FORMULA>
C37H51FN4O2
> <PUBCHEM_MOLECULAR_WEIGHT>
602.8
> <PUBCHEM_OPENEYE_CAN_SMILES>
CCC(C)C(C(=O)O)N1CC(C(C1)C2=CC(=CC=C2)F)CN3CCC(CC3)C4=CC(=NN4CC)CC5=CC=C(C=C5)C(C)C
> <PUBCHEM_OPENEYE_ISO_SMILES>
CC[C@H](C)[C@H](C(=O)O)N1C[C@@H]([C@H](C1)C2=CC(=CC=C2)F)CN3CCC(CC3)C4=CC(=NN4CC)CC5=CC=C(C=C5)C(C)C
> <PUBCHEM_CACTVS_TPSA>
61.6
> <PUBCHEM_MONOISOTOPIC_WEIGHT>
602.39960504
> <PUBCHEM_TOTAL_CHARGE>
0
> <PUBCHEM_HEAVY_ATOM_COUNT>
44
> <PUBCHEM_ATOM_DEF_STEREO_COUNT>
4
> <PUBCHEM_ATOM_UDEF_STEREO_COUNT>
0
> <PUBCHEM_BOND_DEF_STEREO_COUNT>
0
> <PUBCHEM_BOND_UDEF_STEREO_COUNT>
0
> <PUBCHEM_ISOTOPIC_ATOM_COUNT>
0
> <PUBCHEM_COMPONENT_COUNT>
1
> <PUBCHEM_CACTVS_TAUTO_COUNT>
-1
> <PUBCHEM_COORDINATE_TYPE>
1
5
255
> <PUBCHEM_BONDANNOTATIONS>
13  21  6
14  24  8
14  25  8
18  26  5
22  27  8
24  29  8
25  30  8
27  31  8
29  32  8
30  32  8
36  37  8
36  38  8
37  39  8
38  40  8
39  41  8
40  41  8
6  22  8
6  7  8
7  31  8
8  12  6
9  14  5
$$$$
