516296
  -OEChem-10302200282D
 90 95  0     1  0  0  0  0  0999 V2000
    7.7132   -7.2910    0.0000 F   0  0  0  0  0  0  0  0  0  0  0  0
    9.0632    7.2910    0.0000 F   0  0  0  0  0  0  0  0  0  0  0  0
    2.7688   -2.2158    0.0000 O   0  0  0  0  0  0  0  0  0  0  0  0
    4.3511   -1.5113    0.0000 O   0  0  0  0  0  0  0  0  0  0  0  0
    5.1646   -3.3384    0.0000 N   0  0  3  0  0  0  0  0  0  0  0  0
    7.6133   -1.5019    0.0000 N   0  0  0  0  0  0  0  0  0  0  0  0
    6.8043    2.0858    0.0000 N   0  0  0  0  0  0  0  0  0  0  0  0
    7.1133    3.0369    0.0000 N   0  0  0  0  0  0  0  0  0  0  0  0
    6.7473   -3.0020    0.0000 C   0  0  2  0  0  0  0  0  0  0  0  0
    6.6428   -3.9965    0.0000 C   0  0  2  0  0  0  0  0  0  0  0  0
    5.8338   -2.5952    0.0000 C   0  0  0  0  0  0  0  0  0  0  0  0
    5.6646   -4.2044    0.0000 C   0  0  0  0  0  0  0  0  0  0  0  0
    4.1701   -3.2338    0.0000 C   0  0  2  0  0  0  0  0  0  0  0  0
    3.5823   -4.0428    0.0000 C   0  0  0  0  0  0  0  0  0  0  0  0
    7.6133   -2.5020    0.0000 C   0  0  0  0  0  0  0  0  0  0  0  0
    2.5878   -3.9383    0.0000 C   0  0  0  0  0  0  0  0  0  0  0  0
    3.9890   -4.9564    0.0000 C   0  0  0  0  0  0  0  0  0  0  0  0
    7.3859   -4.6656    0.0000 C   0  0  0  0  0  0  0  0  0  0  0  0
    6.7473   -1.0019    0.0000 C   0  0  0  0  0  0  0  0  0  0  0  0
    8.4793   -1.0019    0.0000 C   0  0  0  0  0  0  0  0  0  0  0  0
    2.0000   -4.7473    0.0000 C   0  0  0  0  0  0  0  0  0  0  0  0
    3.4013   -5.7654    0.0000 C   0  0  0  0  0  0  0  0  0  0  0  0
    7.6133    0.4980    0.0000 C   0  0  0  0  0  0  0  0  0  0  0  0
    2.4067   -5.6609    0.0000 C   0  0  0  0  0  0  0  0  0  0  0  0
    6.7473   -0.0020    0.0000 C   0  0  0  0  0  0  0  0  0  0  0  0
    8.4793   -0.0020    0.0000 C   0  0  0  0  0  0  0  0  0  0  0  0
    3.7634   -2.3203    0.0000 C   0  0  0  0  0  0  0  0  0  0  0  0
    7.1780   -5.6438    0.0000 C   0  0  0  0  0  0  0  0  0  0  0  0
    8.3370   -4.3566    0.0000 C   0  0  0  0  0  0  0  0  0  0  0  0
    7.6133    1.4981    0.0000 C   0  0  0  0  0  0  0  0  0  0  0  0
    7.9211   -6.3129    0.0000 C   0  0  0  0  0  0  0  0  0  0  0  0
    9.0801   -5.0257    0.0000 C   0  0  0  0  0  0  0  0  0  0  0  0
    8.4223    2.0858    0.0000 C   0  0  0  0  0  0  0  0  0  0  0  0
    8.8722   -6.0039    0.0000 C   0  0  0  0  0  0  0  0  0  0  0  0
    8.1133    3.0369    0.0000 C   0  0  0  0  0  0  0  0  0  0  0  0
    5.8532    1.7768    0.0000 C   0  0  0  0  0  0  0  0  0  0  0  0
    8.7011    3.8459    0.0000 C   0  0  0  0  0  0  0  0  0  0  0  0
    5.1101    2.4460    0.0000 C   0  0  0  0  0  0  0  0  0  0  0  0
    8.2944    4.7594    0.0000 C   0  0  0  0  0  0  0  0  0  0  0  0
    8.8822    5.5685    0.0000 C   0  0  0  0  0  0  0  0  0  0  0  0
    7.2998    4.8640    0.0000 C   0  0  0  0  0  0  0  0  0  0  0  0
    8.4754    6.4820    0.0000 C   0  0  0  0  0  0  0  0  0  0  0  0
    6.8931    5.7775    0.0000 C   0  0  0  0  0  0  0  0  0  0  0  0
    7.4809    6.5865    0.0000 C   0  0  0  0  0  0  0  0  0  0  0  0
    7.2673   -3.3396    0.0000 H   0  0  0  0  0  0  0  0  0  0  0  0
    6.4823   -4.5954    0.0000 H   0  0  0  0  0  0  0  0  0  0  0  0
    6.1437   -2.0583    0.0000 H   0  0  0  0  0  0  0  0  0  0  0  0
    5.3322   -2.2308    0.0000 H   0  0  0  0  0  0  0  0  0  0  0  0
    5.0982   -4.4566    0.0000 H   0  0  0  0  0  0  0  0  0  0  0  0
    5.8562   -4.7940    0.0000 H   0  0  0  0  0  0  0  0  0  0  0  0
    4.5345   -2.7322    0.0000 H   0  0  0  0  0  0  0  0  0  0  0  0
    3.3301   -3.4764    0.0000 H   0  0  0  0  0  0  0  0  0  0  0  0
    7.8254   -3.0846    0.0000 H   0  0  0  0  0  0  0  0  0  0  0  0
    8.2239   -2.3943    0.0000 H   0  0  0  0  0  0  0  0  0  0  0  0
    2.7587   -3.3423    0.0000 H   0  0  0  0  0  0  0  0  0  0  0  0
    2.0305   -3.6665    0.0000 H   0  0  0  0  0  0  0  0  0  0  0  0
    4.4197   -5.4024    0.0000 H   0  0  0  0  0  0  0  0  0  0  0  0
    4.5030   -4.6097    0.0000 H   0  0  0  0  0  0  0  0  0  0  0  0
    6.1367   -0.8943    0.0000 H   0  0  0  0  0  0  0  0  0  0  0  0
    6.5352   -1.5846    0.0000 H   0  0  0  0  0  0  0  0  0  0  0  0
    8.6914   -1.5846    0.0000 H   0  0  0  0  0  0  0  0  0  0  0  0
    9.0899   -0.8943    0.0000 H   0  0  0  0  0  0  0  0  0  0  0  0
    1.5693   -4.3014    0.0000 H   0  0  0  0  0  0  0  0  0  0  0  0
    1.4860   -5.0940    0.0000 H   0  0  0  0  0  0  0  0  0  0  0  0
    3.2304   -6.3614    0.0000 H   0  0  0  0  0  0  0  0  0  0  0  0
    3.9585   -6.0372    0.0000 H   0  0  0  0  0  0  0  0  0  0  0  0
    7.0764    0.8080    0.0000 H   0  0  0  0  0  0  0  0  0  0  0  0
    1.8052   -5.8109    0.0000 H   0  0  0  0  0  0  0  0  0  0  0  0
    2.4500   -6.2794    0.0000 H   0  0  0  0  0  0  0  0  0  0  0  0
    6.5352    0.5807    0.0000 H   0  0  0  0  0  0  0  0  0  0  0  0
    6.1367   -0.1096    0.0000 H   0  0  0  0  0  0  0  0  0  0  0  0
    9.0899   -0.1096    0.0000 H   0  0  0  0  0  0  0  0  0  0  0  0
    8.6914    0.5807    0.0000 H   0  0  0  0  0  0  0  0  0  0  0  0
    6.5883   -5.8353    0.0000 H   0  0  0  0  0  0  0  0  0  0  0  0
    8.4659   -3.7501    0.0000 H   0  0  0  0  0  0  0  0  0  0  0  0
    9.6698   -4.8341    0.0000 H   0  0  0  0  0  0  0  0  0  0  0  0
    2.5167   -1.6494    0.0000 H   0  0  0  0  0  0  0  0  0  0  0  0
    9.0120    1.8942    0.0000 H   0  0  0  0  0  0  0  0  0  0  0  0
    9.3330   -6.4187    0.0000 H   0  0  0  0  0  0  0  0  0  0  0  0
    5.3647    1.3951    0.0000 H   0  0  0  0  0  0  0  0  0  0  0  0
    6.1443    1.2294    0.0000 H   0  0  0  0  0  0  0  0  0  0  0  0
    9.1318    3.3999    0.0000 H   0  0  0  0  0  0  0  0  0  0  0  0
    9.2151    4.1926    0.0000 H   0  0  0  0  0  0  0  0  0  0  0  0
    5.5250    2.9067    0.0000 H   0  0  0  0  0  0  0  0  0  0  0  0
    4.6494    2.8608    0.0000 H   0  0  0  0  0  0  0  0  0  0  0  0
    4.6952    1.9852    0.0000 H   0  0  0  0  0  0  0  0  0  0  0  0
    9.4988    5.5037    0.0000 H   0  0  0  0  0  0  0  0  0  0  0  0
    6.9354    4.3624    0.0000 H   0  0  0  0  0  0  0  0  0  0  0  0
    6.2765    5.8423    0.0000 H   0  0  0  0  0  0  0  0  0  0  0  0
    7.2287    7.1529    0.0000 H   0  0  0  0  0  0  0  0  0  0  0  0
  1 31  1  0  0  0  0
  2 42  1  0  0  0  0
  3 27  1  0  0  0  0
  3 77  1  0  0  0  0
  4 27  2  0  0  0  0
  5 11  1  0  0  0  0
  5 12  1  0  0  0  0
  5 13  1  0  0  0  0
  6 15  1  0  0  0  0
  6 19  1  0  0  0  0
  6 20  1  0  0  0  0
  7  8  1  0  0  0  0
  7 30  1  0  0  0  0
  7 36  1  0  0  0  0
  8 35  2  0  0  0  0
  9 10  1  0  0  0  0
  9 11  1  0  0  0  0
  9 15  1  6  0  0  0
  9 45  1  0  0  0  0
 10 12  1  0  0  0  0
 10 18  1  1  0  0  0
 10 46  1  0  0  0  0
 11 47  1  0  0  0  0
 11 48  1  0  0  0  0
 12 49  1  0  0  0  0
 12 50  1  0  0  0  0
 13 14  1  0  0  0  0
 13 27  1  6  0  0  0
 13 51  1  0  0  0  0
 14 16  1  0  0  0  0
 14 17  1  0  0  0  0
 14 52  1  0  0  0  0
 15 53  1  0  0  0  0
 15 54  1  0  0  0  0
 16 21  1  0  0  0  0
 16 55  1  0  0  0  0
 16 56  1  0  0  0  0
 17 22  1  0  0  0  0
 17 57  1  0  0  0  0
 17 58  1  0  0  0  0
 18 28  2  0  0  0  0
 18 29  1  0  0  0  0
 19 25  1  0  0  0  0
 19 59  1  0  0  0  0
 19 60  1  0  0  0  0
 20 26  1  0  0  0  0
 20 61  1  0  0  0  0
 20 62  1  0  0  0  0
 21 24  1  0  0  0  0
 21 63  1  0  0  0  0
 21 64  1  0  0  0  0
 22 24  1  0  0  0  0
 22 65  1  0  0  0  0
 22 66  1  0  0  0  0
 23 25  1  0  0  0  0
 23 26  1  0  0  0  0
 23 30  1  0  0  0  0
 23 67  1  0  0  0  0
 24 68  1  0  0  0  0
 24 69  1  0  0  0  0
 25 70  1  0  0  0  0
 25 71  1  0  0  0  0
 26 72  1  0  0  0  0
 26 73  1  0  0  0  0
 28 31  1  0  0  0  0
 28 74  1  0  0  0  0
 29 32  2  0  0  0  0
 29 75  1  0  0  0  0
 30 33  2  0  0  0  0
 31 34  2  0  0  0  0
 32 34  1  0  0  0  0
 32 76  1  0  0  0  0
 33 35  1  0  0  0  0
 33 78  1  0  0  0  0
 34 79  1  0  0  0  0
 35 37  1  0  0  0  0
 36 38  1  0  0  0  0
 36 80  1  0  0  0  0
 36 81  1  0  0  0  0
 37 39  1  0  0  0  0
 37 82  1  0  0  0  0
 37 83  1  0  0  0  0
 38 84  1  0  0  0  0
 38 85  1  0  0  0  0
 38 86  1  0  0  0  0
 39 40  2  0  0  0  0
 39 41  1  0  0  0  0
 40 42  1  0  0  0  0
 40 87  1  0  0  0  0
 41 43  2  0  0  0  0
 41 88  1  0  0  0  0
 42 44  2  0  0  0  0
 43 44  1  0  0  0  0
 43 89  1  0  0  0  0
 44 90  1  0  0  0  0
M  END
> <PUBCHEM_COMPOUND_CID>
516296
> <PUBCHEM_COMPOUND_CANONICALIZED>
1
> <PUBCHEM_CACTVS_COMPLEXITY>
913
> <PUBCHEM_CACTVS_HBOND_ACCEPTOR>
7
> <PUBCHEM_CACTVS_HBOND_DONOR>
1
> <PUBCHEM_CACTVS_ROTATABLE_BOND>
10
> <PUBCHEM_CACTVS_SUBSKEYS>
AAADcfB/sYAAAAAAAAAAAAAAAAAAAWLAAAA8YMEAAAAAAAAB0AAAHwAICAAADSjBngwyiJMIAgCqAyTyTACSBAAhggAY2CG4ZJgKIDLA0fGE5AhkiADYyAeYyOCOgAAAAAAAAAAAAAAAAAAAAAAAAAAAAA==
> <PUBCHEM_IUPAC_OPENEYE_NAME>
(2R)-2-cyclohexyl-2-[(3S,4S)-3-[[4-[2-ethyl-5-[(3-fluorophenyl)methyl]pyrazol-3-yl]-1-piperidyl]methyl]-4-(3-fluorophenyl)pyrrolidin-1-yl]acetic acid
> <PUBCHEM_IUPAC_CAS_NAME>
(2R)-2-cyclohexyl-2-[(3S,4S)-3-[[4-[2-ethyl-5-[(3-fluorophenyl)methyl]-3-pyrazolyl]-1-piperidinyl]methyl]-4-(3-fluorophenyl)-1-pyrrolidinyl]acetic acid
> <PUBCHEM_IUPAC_NAME_MARKUP>
(2<I>R</I>)-2-cyclohexyl-2-[(3<I>S</I>,4<I>S</I>)-3-[[4-[2-ethyl-5-[(3-fluorophenyl)methyl]pyrazol-3-yl]piperidin-1-yl]methyl]-4-(3-fluorophenyl)pyrrolidin-1-yl]acetic acid
> <PUBCHEM_IUPAC_NAME>
(2R)-2-cyclohexyl-2-[(3S,4S)-3-[[4-[2-ethyl-5-[(3-fluorophenyl)methyl]pyrazol-3-yl]piperidin-1-yl]methyl]-4-(3-fluorophenyl)pyrrolidin-1-yl]acetic acid
> <PUBCHEM_IUPAC_SYSTEMATIC_NAME>
(2R)-2-cyclohexyl-2-[(3S,4S)-3-[[4-[2-ethyl-5-[(3-fluorophenyl)methyl]pyrazol-3-yl]piperidin-1-yl]methyl]-4-(3-fluorophenyl)pyrrolidin-1-yl]ethanoic acid
> <PUBCHEM_IUPAC_TRADITIONAL_NAME>
(2R)-2-cyclohexyl-2-[(3S,4S)-3-[[4-[2-ethyl-5-(3-fluorobenzyl)pyrazol-3-yl]piperidino]methyl]-4-(3-fluorophenyl)pyrrolidino]acetic acid
> <PUBCHEM_IUPAC_INCHI>
InChI=1S/C36H46F2N4O2/c1-2-42-34(21-32(39-42)19-25-8-6-12-30(37)18-25)26-14-16-40(17-15-26)22-29-23-41(24-33(29)28-11-7-13-31(38)20-28)35(36(43)44)27-9-4-3-5-10-27/h6-8,11-13,18,20-21,26-27,29,33,35H,2-5,9-10,14-17,19,22-24H2,1H3,(H,43,44)/t29-,33+,35+/m0/s1
> <PUBCHEM_IUPAC_INCHIKEY>
YJMCMZGIYUMSRA-HMQVCXRFSA-N
> <PUBCHEM_XLOGP3_AA>
4.8
> <PUBCHEM_EXACT_MASS>
604.35888305
> <PUBCHEM_MOLECULAR_FORMULA>
C36H46F2N4O2
> <PUBCHEM_MOLECULAR_WEIGHT>
604.8
> <PUBCHEM_OPENEYE_CAN_SMILES>
CCN1C(=CC(=N1)CC2=CC(=CC=C2)F)C3CCN(CC3)CC4CN(CC4C5=CC(=CC=C5)F)C(C6CCCCC6)C(=O)O
> <PUBCHEM_OPENEYE_ISO_SMILES>
CCN1C(=CC(=N1)CC2=CC(=CC=C2)F)C3CCN(CC3)C[C@H]4CN(C[C@@H]4C5=CC(=CC=C5)F)[C@H](C6CCCCC6)C(=O)O
> <PUBCHEM_CACTVS_TPSA>
61.6
> <PUBCHEM_MONOISOTOPIC_WEIGHT>
604.35888305
> <PUBCHEM_TOTAL_CHARGE>
0
> <PUBCHEM_HEAVY_ATOM_COUNT>
44
> <PUBCHEM_ATOM_DEF_STEREO_COUNT>
3
> <PUBCHEM_ATOM_UDEF_STEREO_COUNT>
0
> <PUBCHEM_BOND_DEF_STEREO_COUNT>
0
> <PUBCHEM_BOND_UDEF_STEREO_COUNT>
0
> <PUBCHEM_ISOTOPIC_ATOM_COUNT>
0
> <PUBCHEM_COMPONENT_COUNT>
1
> <PUBCHEM_CACTVS_TAUTO_COUNT>
-1
> <PUBCHEM_COORDINATE_TYPE>
1
5
255
> <PUBCHEM_BONDANNOTATIONS>
10  18  5
13  27  6
18  28  8
18  29  8
28  31  8
29  32  8
30  33  8
31  34  8
32  34  8
33  35  8
39  40  8
39  41  8
40  42  8
41  43  8
42  44  8
43  44  8
7  30  8
7  8  8
8  35  8
9  15  6
$$$$
