516228
  -OEChem-10302200282D
 91 95  0     1  0  0  0  0  0999 V2000
   11.2834    3.8010    0.0000 F   0  0  0  0  0  0  0  0  0  0  0  0
    3.6317    4.4701    0.0000 O   0  0  0  0  0  0  0  0  0  0  0  0
    4.7906    3.1829    0.0000 O   0  0  0  0  0  0  0  0  0  0  0  0
    4.5981   -6.5955    0.0000 O   0  0  0  0  0  0  0  0  0  0  0  0
    6.2769    4.5212    0.0000 N   0  0  3  0  0  0  0  0  0  0  0  0
    7.7670    1.8476    0.0000 N   0  0  0  0  0  0  0  0  0  0  0  0
    7.0468   -1.7591    0.0000 N   0  0  0  0  0  0  0  0  0  0  0  0
    6.3776   -2.5022    0.0000 N   0  0  0  0  0  0  0  0  0  0  0  0
    2.0000   -6.0955    0.0000 N   0  0  0  0  0  0  0  0  0  0  0  0
    7.5859    3.5701    0.0000 C   0  0  2  0  0  0  0  0  0  0  0  0
    7.8950    4.5212    0.0000 C   0  0  2  0  0  0  0  0  0  0  0  0
    6.5859    3.5701    0.0000 C   0  0  0  0  0  0  0  0  0  0  0  0
    7.0859    5.1090    0.0000 C   0  0  0  0  0  0  0  0  0  0  0  0
    8.1737    2.7611    0.0000 C   0  0  0  0  0  0  0  0  0  0  0  0
    5.3259    4.8302    0.0000 C   0  0  2  0  0  0  0  0  0  0  0  0
    8.8460    4.8302    0.0000 C   0  0  0  0  0  0  0  0  0  0  0  0
    8.3548    1.0385    0.0000 C   0  0  0  0  0  0  0  0  0  0  0  0
    6.7725    1.7430    0.0000 C   0  0  0  0  0  0  0  0  0  0  0  0
    6.9535    0.0205    0.0000 C   0  0  0  0  0  0  0  0  0  0  0  0
    5.1180    5.8083    0.0000 C   0  0  2  0  0  0  0  0  0  0  0  0
    7.9480    0.1250    0.0000 C   0  0  0  0  0  0  0  0  0  0  0  0
    6.3657    0.8295    0.0000 C   0  0  0  0  0  0  0  0  0  0  0  0
    4.5827    4.1611    0.0000 C   0  0  0  0  0  0  0  0  0  0  0  0
    6.5468   -0.8931    0.0000 C   0  0  0  0  0  0  0  0  0  0  0  0
    4.1669    6.1174    0.0000 C   0  0  0  0  0  0  0  0  0  0  0  0
    9.5892    4.1611    0.0000 C   0  0  0  0  0  0  0  0  0  0  0  0
    9.0539    5.8083    0.0000 C   0  0  0  0  0  0  0  0  0  0  0  0
    5.8611    6.4775    0.0000 C   0  0  0  0  0  0  0  0  0  0  0  0
    5.5686   -1.1010    0.0000 C   0  0  0  0  0  0  0  0  0  0  0  0
    3.9590    7.0955    0.0000 C   0  0  0  0  0  0  0  0  0  0  0  0
   10.5402    4.4701    0.0000 C   0  0  0  0  0  0  0  0  0  0  0  0
   10.0050    6.1174    0.0000 C   0  0  0  0  0  0  0  0  0  0  0  0
    5.4641   -2.0955    0.0000 C   0  0  0  0  0  0  0  0  0  0  0  0
   10.7481    5.4482    0.0000 C   0  0  0  0  0  0  0  0  0  0  0  0
    8.0413   -1.8636    0.0000 C   0  0  0  0  0  0  0  0  0  0  0  0
    4.5981   -2.5955    0.0000 C   0  0  0  0  0  0  0  0  0  0  0  0
    8.4480   -2.7772    0.0000 C   0  0  0  0  0  0  0  0  0  0  0  0
    4.5981   -3.5955    0.0000 C   0  0  0  0  0  0  0  0  0  0  0  0
    3.7320   -4.0955    0.0000 C   0  0  0  0  0  0  0  0  0  0  0  0
    5.4641   -4.0955    0.0000 C   0  0  0  0  0  0  0  0  0  0  0  0
    3.7320   -5.0955    0.0000 C   0  0  0  0  0  0  0  0  0  0  0  0
    5.4641   -5.0955    0.0000 C   0  0  0  0  0  0  0  0  0  0  0  0
    4.5981   -5.5955    0.0000 C   0  0  0  0  0  0  0  0  0  0  0  0
    2.8660   -5.5955    0.0000 C   0  0  0  0  0  0  0  0  0  0  0  0
    5.4641   -7.0955    0.0000 C   0  0  0  0  0  0  0  0  0  0  0  0
    7.3045    3.0177    0.0000 H   0  0  0  0  0  0  0  0  0  0  0  0
    8.3334    4.0828    0.0000 H   0  0  0  0  0  0  0  0  0  0  0  0
    5.9795    3.4412    0.0000 H   0  0  0  0  0  0  0  0  0  0  0  0
    6.6508    2.9535    0.0000 H   0  0  0  0  0  0  0  0  0  0  0  0
    7.5008    5.5697    0.0000 H   0  0  0  0  0  0  0  0  0  0  0  0
    6.6711    5.5697    0.0000 H   0  0  0  0  0  0  0  0  0  0  0  0
    8.6877    2.4144    0.0000 H   0  0  0  0  0  0  0  0  0  0  0  0
    8.6044    3.2071    0.0000 H   0  0  0  0  0  0  0  0  0  0  0  0
    5.4548    4.2238    0.0000 H   0  0  0  0  0  0  0  0  0  0  0  0
    8.8688    0.6918    0.0000 H   0  0  0  0  0  0  0  0  0  0  0  0
    8.7855    1.4845    0.0000 H   0  0  0  0  0  0  0  0  0  0  0  0
    6.8157    2.3615    0.0000 H   0  0  0  0  0  0  0  0  0  0  0  0
    6.1709    1.8930    0.0000 H   0  0  0  0  0  0  0  0  0  0  0  0
    6.3369   -0.0443    0.0000 H   0  0  0  0  0  0  0  0  0  0  0  0
    5.7076    5.6168    0.0000 H   0  0  0  0  0  0  0  0  0  0  0  0
    7.9048   -0.4935    0.0000 H   0  0  0  0  0  0  0  0  0  0  0  0
    8.5496   -0.0250    0.0000 H   0  0  0  0  0  0  0  0  0  0  0  0
    5.8517    1.1762    0.0000 H   0  0  0  0  0  0  0  0  0  0  0  0
    5.9350    0.3835    0.0000 H   0  0  0  0  0  0  0  0  0  0  0  0
    3.5473    6.0957    0.0000 H   0  0  0  0  0  0  0  0  0  0  0  0
    4.0806    5.5034    0.0000 H   0  0  0  0  0  0  0  0  0  0  0  0
    9.4602    3.5546    0.0000 H   0  0  0  0  0  0  0  0  0  0  0  0
    8.5932    6.2232    0.0000 H   0  0  0  0  0  0  0  0  0  0  0  0
    6.2760    6.0167    0.0000 H   0  0  0  0  0  0  0  0  0  0  0  0
    6.3219    6.8923    0.0000 H   0  0  0  0  0  0  0  0  0  0  0  0
    5.4462    6.9382    0.0000 H   0  0  0  0  0  0  0  0  0  0  0  0
    5.1079   -0.6861    0.0000 H   0  0  0  0  0  0  0  0  0  0  0  0
    4.5654    7.2244    0.0000 H   0  0  0  0  0  0  0  0  0  0  0  0
    3.8301    7.7020    0.0000 H   0  0  0  0  0  0  0  0  0  0  0  0
    3.3525    6.9666    0.0000 H   0  0  0  0  0  0  0  0  0  0  0  0
   10.1339    6.7238    0.0000 H   0  0  0  0  0  0  0  0  0  0  0  0
   11.3378    5.6398    0.0000 H   0  0  0  0  0  0  0  0  0  0  0  0
    3.1709    4.0552    0.0000 H   0  0  0  0  0  0  0  0  0  0  0  0
    8.6429   -1.7136    0.0000 H   0  0  0  0  0  0  0  0  0  0  0  0
    7.9980   -1.2451    0.0000 H   0  0  0  0  0  0  0  0  0  0  0  0
    4.3860   -2.0129    0.0000 H   0  0  0  0  0  0  0  0  0  0  0  0
    3.9875   -2.7032    0.0000 H   0  0  0  0  0  0  0  0  0  0  0  0
    7.8816   -3.0294    0.0000 H   0  0  0  0  0  0  0  0  0  0  0  0
    8.7002   -3.3436    0.0000 H   0  0  0  0  0  0  0  0  0  0  0  0
    9.0144   -2.5250    0.0000 H   0  0  0  0  0  0  0  0  0  0  0  0
    3.1951   -3.7855    0.0000 H   0  0  0  0  0  0  0  0  0  0  0  0
    6.0010   -3.7855    0.0000 H   0  0  0  0  0  0  0  0  0  0  0  0
    6.0010   -5.4055    0.0000 H   0  0  0  0  0  0  0  0  0  0  0  0
    5.1541   -7.6324    0.0000 H   0  0  0  0  0  0  0  0  0  0  0  0
    6.0010   -7.4055    0.0000 H   0  0  0  0  0  0  0  0  0  0  0  0
    5.7741   -6.5586    0.0000 H   0  0  0  0  0  0  0  0  0  0  0  0
  1 31  1  0  0  0  0
  2 23  1  0  0  0  0
  2 78  1  0  0  0  0
  3 23  2  0  0  0  0
  4 43  1  0  0  0  0
  4 45  1  0  0  0  0
  5 12  1  0  0  0  0
  5 13  1  0  0  0  0
  5 15  1  0  0  0  0
  6 14  1  0  0  0  0
  6 17  1  0  0  0  0
  6 18  1  0  0  0  0
  7  8  1  0  0  0  0
  7 24  1  0  0  0  0
  7 35  1  0  0  0  0
  8 33  2  0  0  0  0
  9 44  3  0  0  0  0
 10 11  1  0  0  0  0
 10 12  1  0  0  0  0
 10 14  1  1  0  0  0
 10 46  1  0  0  0  0
 11 13  1  0  0  0  0
 11 16  1  6  0  0  0
 11 47  1  0  0  0  0
 12 48  1  0  0  0  0
 12 49  1  0  0  0  0
 13 50  1  0  0  0  0
 13 51  1  0  0  0  0
 14 52  1  0  0  0  0
 14 53  1  0  0  0  0
 15 20  1  0  0  0  0
 15 23  1  1  0  0  0
 15 54  1  0  0  0  0
 16 26  2  0  0  0  0
 16 27  1  0  0  0  0
 17 21  1  0  0  0  0
 17 55  1  0  0  0  0
 17 56  1  0  0  0  0
 18 22  1  0  0  0  0
 18 57  1  0  0  0  0
 18 58  1  0  0  0  0
 19 21  1  0  0  0  0
 19 22  1  0  0  0  0
 19 24  1  0  0  0  0
 19 59  1  0  0  0  0
 20 25  1  0  0  0  0
 20 28  1  6  0  0  0
 20 60  1  0  0  0  0
 21 61  1  0  0  0  0
 21 62  1  0  0  0  0
 22 63  1  0  0  0  0
 22 64  1  0  0  0  0
 24 29  2  0  0  0  0
 25 30  1  0  0  0  0
 25 65  1  0  0  0  0
 25 66  1  0  0  0  0
 26 31  1  0  0  0  0
 26 67  1  0  0  0  0
 27 32  2  0  0  0  0
 27 68  1  0  0  0  0
 28 69  1  0  0  0  0
 28 70  1  0  0  0  0
 28 71  1  0  0  0  0
 29 33  1  0  0  0  0
 29 72  1  0  0  0  0
 30 73  1  0  0  0  0
 30 74  1  0  0  0  0
 30 75  1  0  0  0  0
 31 34  2  0  0  0  0
 32 34  1  0  0  0  0
 32 76  1  0  0  0  0
 33 36  1  0  0  0  0
 34 77  1  0  0  0  0
 35 37  1  0  0  0  0
 35 79  1  0  0  0  0
 35 80  1  0  0  0  0
 36 38  1  0  0  0  0
 36 81  1  0  0  0  0
 36 82  1  0  0  0  0
 37 83  1  0  0  0  0
 37 84  1  0  0  0  0
 37 85  1  0  0  0  0
 38 39  2  0  0  0  0
 38 40  1  0  0  0  0
 39 41  1  0  0  0  0
 39 86  1  0  0  0  0
 40 42  2  0  0  0  0
 40 87  1  0  0  0  0
 41 43  2  0  0  0  0
 41 44  1  0  0  0  0
 42 43  1  0  0  0  0
 42 88  1  0  0  0  0
 45 89  1  0  0  0  0
 45 90  1  0  0  0  0
 45 91  1  0  0  0  0
M  END
> <PUBCHEM_COMPOUND_CID>
516228
> <PUBCHEM_COMPOUND_CANONICALIZED>
1
> <PUBCHEM_CACTVS_COMPLEXITY>
1000
> <PUBCHEM_CACTVS_HBOND_ACCEPTOR>
8
> <PUBCHEM_CACTVS_HBOND_DONOR>
1
> <PUBCHEM_CACTVS_ROTATABLE_BOND>
12
> <PUBCHEM_CACTVS_SUBSKEYS>
AAADcfB/sQAAAAAAAAAAAAAAAAAAAWLAAAA8YIAAAAAAAAAB0AAAHwAICAAADSzBng4yjpMIBgC6ByTyTACyDAAhogAY2CG+bJgOpjLE8fuE9ChkyBHY6A+YwOAOoAACAAAIAABAAAQAABAAAAAAAAAAAA==
> <PUBCHEM_IUPAC_OPENEYE_NAME>
(2R,3S)-2-[(3S,4S)-3-[[4-[5-[(3-cyano-4-methoxy-phenyl)methyl]-2-ethyl-pyrazol-3-yl]-1-piperidyl]methyl]-4-(3-fluorophenyl)pyrrolidin-1-yl]-3-methyl-pentanoic acid
> <PUBCHEM_IUPAC_CAS_NAME>
(2R,3S)-2-[(3S,4S)-3-[[4-[5-[(3-cyano-4-methoxyphenyl)methyl]-2-ethyl-3-pyrazolyl]-1-piperidinyl]methyl]-4-(3-fluorophenyl)-1-pyrrolidinyl]-3-methylpentanoic acid
> <PUBCHEM_IUPAC_NAME_MARKUP>
(2<I>R</I>,3<I>S</I>)-2-[(3<I>S</I>,4<I>S</I>)-3-[[4-[5-[(3-cyano-4-methoxyphenyl)methyl]-2-ethylpyrazol-3-yl]piperidin-1-yl]methyl]-4-(3-fluorophenyl)pyrrolidin-1-yl]-3-methylpentanoic acid
> <PUBCHEM_IUPAC_NAME>
(2R,3S)-2-[(3S,4S)-3-[[4-[5-[(3-cyano-4-methoxyphenyl)methyl]-2-ethylpyrazol-3-yl]piperidin-1-yl]methyl]-4-(3-fluorophenyl)pyrrolidin-1-yl]-3-methylpentanoic acid
> <PUBCHEM_IUPAC_SYSTEMATIC_NAME>
(2R,3S)-2-[(3S,4S)-3-[[4-[5-[(3-cyano-4-methoxy-phenyl)methyl]-2-ethyl-pyrazol-3-yl]piperidin-1-yl]methyl]-4-(3-fluorophenyl)pyrrolidin-1-yl]-3-methyl-pentanoic acid
> <PUBCHEM_IUPAC_TRADITIONAL_NAME>
(2R,3S)-2-[(3S,4S)-3-[[4-[5-(3-cyano-4-methoxy-benzyl)-2-ethyl-pyrazol-3-yl]piperidino]methyl]-4-(3-fluorophenyl)pyrrolidino]-3-methyl-valeric acid
> <PUBCHEM_IUPAC_INCHI>
InChI=1S/C36H46FN5O3/c1-5-24(3)35(36(43)44)41-22-29(32(23-41)27-8-7-9-30(37)18-27)21-40-14-12-26(13-15-40)33-19-31(39-42(33)6-2)17-25-10-11-34(45-4)28(16-25)20-38/h7-11,16,18-19,24,26,29,32,35H,5-6,12-15,17,21-23H2,1-4H3,(H,43,44)/t24-,29-,32+,35+/m0/s1
> <PUBCHEM_IUPAC_INCHIKEY>
JLQAWCSYGCHXFR-XWHDRLKKSA-N
> <PUBCHEM_XLOGP3_AA>
3.7
> <PUBCHEM_EXACT_MASS>
615.35846851
> <PUBCHEM_MOLECULAR_FORMULA>
C36H46FN5O3
> <PUBCHEM_MOLECULAR_WEIGHT>
615.8
> <PUBCHEM_OPENEYE_CAN_SMILES>
CCC(C)C(C(=O)O)N1CC(C(C1)C2=CC(=CC=C2)F)CN3CCC(CC3)C4=CC(=NN4CC)CC5=CC(=C(C=C5)OC)C#N
> <PUBCHEM_OPENEYE_ISO_SMILES>
CC[C@H](C)[C@H](C(=O)O)N1C[C@@H]([C@H](C1)C2=CC(=CC=C2)F)CN3CCC(CC3)C4=CC(=NN4CC)CC5=CC(=C(C=C5)OC)C#N
> <PUBCHEM_CACTVS_TPSA>
94.6
> <PUBCHEM_MONOISOTOPIC_WEIGHT>
615.35846851
> <PUBCHEM_TOTAL_CHARGE>
0
> <PUBCHEM_HEAVY_ATOM_COUNT>
45
> <PUBCHEM_ATOM_DEF_STEREO_COUNT>
4
> <PUBCHEM_ATOM_UDEF_STEREO_COUNT>
0
> <PUBCHEM_BOND_DEF_STEREO_COUNT>
0
> <PUBCHEM_BOND_UDEF_STEREO_COUNT>
0
> <PUBCHEM_ISOTOPIC_ATOM_COUNT>
0
> <PUBCHEM_COMPONENT_COUNT>
1
> <PUBCHEM_CACTVS_TAUTO_COUNT>
-1
> <PUBCHEM_COORDINATE_TYPE>
1
5
255
> <PUBCHEM_BONDANNOTATIONS>
10  14  5
11  16  6
15  23  5
16  26  8
16  27  8
20  28  6
24  29  8
26  31  8
27  32  8
29  33  8
31  34  8
32  34  8
38  39  8
38  40  8
39  41  8
40  42  8
41  43  8
42  43  8
7  24  8
7  8  8
8  33  8
$$$$
