516289
  -OEChem-10302200282D
 92 97  0     1  0  0  0  0  0999 V2000
    5.8556    4.9770    0.0000 F   0  0  0  0  0  0  0  0  0  0  0  0
    2.5369   -0.1706    0.0000 O   0  0  0  0  0  0  0  0  0  0  0  0
    3.4030    1.3294    0.0000 O   0  0  0  0  0  0  0  0  0  0  0  0
    5.1350    0.3294    0.0000 N   0  0  3  0  0  0  0  0  0  0  0  0
    8.1190   -0.3522    0.0000 N   0  0  0  0  0  0  0  0  0  0  0  0
    8.8392   -3.9589    0.0000 N   0  0  0  0  0  0  0  0  0  0  0  0
    9.5083   -4.7020    0.0000 N   0  0  0  0  0  0  0  0  0  0  0  0
    6.7177    0.6658    0.0000 C   0  0  2  0  0  0  0  0  0  0  0  0
    6.2177    1.5319    0.0000 C   0  0  2  0  0  0  0  0  0  0  0  0
    6.0486   -0.0773    0.0000 C   0  0  0  0  0  0  0  0  0  0  0  0
    5.2395    1.3239    0.0000 C   0  0  0  0  0  0  0  0  0  0  0  0
    7.7122    0.5613    0.0000 C   0  0  0  0  0  0  0  0  0  0  0  0
    4.2690   -0.1706    0.0000 C   0  0  2  0  0  0  0  0  0  0  0  0
    4.2690   -1.1706    0.0000 C   0  0  0  0  0  0  0  0  0  0  0  0
    6.6244    2.4454    0.0000 C   0  0  0  0  0  0  0  0  0  0  0  0
    7.5312   -1.1613    0.0000 C   0  0  0  0  0  0  0  0  0  0  0  0
    9.1135   -0.4568    0.0000 C   0  0  0  0  0  0  0  0  0  0  0  0
    8.9324   -2.1793    0.0000 C   0  0  0  0  0  0  0  0  0  0  0  0
    7.9379   -2.0748    0.0000 C   0  0  0  0  0  0  0  0  0  0  0  0
    9.5202   -1.3703    0.0000 C   0  0  0  0  0  0  0  0  0  0  0  0
    3.4030    0.3294    0.0000 C   0  0  0  0  0  0  0  0  0  0  0  0
    4.2690   -2.1706    0.0000 C   0  0  0  0  0  0  0  0  0  0  0  0
    3.2690   -1.1706    0.0000 C   0  0  0  0  0  0  0  0  0  0  0  0
    5.2690   -1.1706    0.0000 C   0  0  0  0  0  0  0  0  0  0  0  0
    9.3392   -3.0929    0.0000 C   0  0  0  0  0  0  0  0  0  0  0  0
    6.0366    3.2544    0.0000 C   0  0  0  0  0  0  0  0  0  0  0  0
    7.6190    2.5499    0.0000 C   0  0  0  0  0  0  0  0  0  0  0  0
   10.3173   -3.3008    0.0000 C   0  0  0  0  0  0  0  0  0  0  0  0
    6.4434    4.1680    0.0000 C   0  0  0  0  0  0  0  0  0  0  0  0
    8.0257    3.4635    0.0000 C   0  0  0  0  0  0  0  0  0  0  0  0
    7.4379    4.2725    0.0000 C   0  0  0  0  0  0  0  0  0  0  0  0
   10.4218   -4.2953    0.0000 C   0  0  0  0  0  0  0  0  0  0  0  0
    7.8446   -4.0634    0.0000 C   0  0  0  0  0  0  0  0  0  0  0  0
   11.2879   -4.7953    0.0000 C   0  0  0  0  0  0  0  0  0  0  0  0
    7.4379   -4.9770    0.0000 C   0  0  0  0  0  0  0  0  0  0  0  0
   12.1539   -4.2953    0.0000 C   0  0  0  0  0  0  0  0  0  0  0  0
   13.0199   -4.7953    0.0000 C   0  0  0  0  0  0  0  0  0  0  0  0
   12.1539   -3.2953    0.0000 C   0  0  0  0  0  0  0  0  0  0  0  0
   13.8859   -4.2953    0.0000 C   0  0  0  0  0  0  0  0  0  0  0  0
   13.0199   -2.7953    0.0000 C   0  0  0  0  0  0  0  0  0  0  0  0
   13.8859   -3.2953    0.0000 C   0  0  0  0  0  0  0  0  0  0  0  0
   14.7799   -4.8300    0.0000 C   0  0  0  0  0  0  0  0  0  0  0  0
   14.7799   -2.7606    0.0000 C   0  0  0  0  0  0  0  0  0  0  0  0
   15.6859   -4.3161    0.0000 C   0  0  0  0  0  0  0  0  0  0  0  0
   15.6859   -3.2745    0.0000 C   0  0  0  0  0  0  0  0  0  0  0  0
    6.9399    0.0870    0.0000 H   0  0  0  0  0  0  0  0  0  0  0  0
    6.8368    1.5643    0.0000 H   0  0  0  0  0  0  0  0  0  0  0  0
    5.7386   -0.6143    0.0000 H   0  0  0  0  0  0  0  0  0  0  0  0
    6.5502   -0.4417    0.0000 H   0  0  0  0  0  0  0  0  0  0  0  0
    5.1747    1.9406    0.0000 H   0  0  0  0  0  0  0  0  0  0  0  0
    4.6195    1.3239    0.0000 H   0  0  0  0  0  0  0  0  0  0  0  0
    8.3138    0.7113    0.0000 H   0  0  0  0  0  0  0  0  0  0  0  0
    7.6690    1.1798    0.0000 H   0  0  0  0  0  0  0  0  0  0  0  0
    4.2690    0.4494    0.0000 H   0  0  0  0  0  0  0  0  0  0  0  0
    7.1005   -0.7153    0.0000 H   0  0  0  0  0  0  0  0  0  0  0  0
    7.0172   -1.5080    0.0000 H   0  0  0  0  0  0  0  0  0  0  0  0
    9.7150   -0.3068    0.0000 H   0  0  0  0  0  0  0  0  0  0  0  0
    9.0702    0.1617    0.0000 H   0  0  0  0  0  0  0  0  0  0  0  0
    9.5490   -2.2441    0.0000 H   0  0  0  0  0  0  0  0  0  0  0  0
    7.3363   -2.2248    0.0000 H   0  0  0  0  0  0  0  0  0  0  0  0
    7.9812   -2.6933    0.0000 H   0  0  0  0  0  0  0  0  0  0  0  0
    9.9509   -1.8163    0.0000 H   0  0  0  0  0  0  0  0  0  0  0  0
   10.0342   -1.0236    0.0000 H   0  0  0  0  0  0  0  0  0  0  0  0
    3.6490   -2.1706    0.0000 H   0  0  0  0  0  0  0  0  0  0  0  0
    4.2690   -2.7906    0.0000 H   0  0  0  0  0  0  0  0  0  0  0  0
    4.8890   -2.1706    0.0000 H   0  0  0  0  0  0  0  0  0  0  0  0
    3.2690   -0.5506    0.0000 H   0  0  0  0  0  0  0  0  0  0  0  0
    2.6490   -1.1706    0.0000 H   0  0  0  0  0  0  0  0  0  0  0  0
    3.2690   -1.7906    0.0000 H   0  0  0  0  0  0  0  0  0  0  0  0
    5.2690   -1.7906    0.0000 H   0  0  0  0  0  0  0  0  0  0  0  0
    5.8890   -1.1706    0.0000 H   0  0  0  0  0  0  0  0  0  0  0  0
    5.2690   -0.5506    0.0000 H   0  0  0  0  0  0  0  0  0  0  0  0
    5.4200    3.1896    0.0000 H   0  0  0  0  0  0  0  0  0  0  0  0
    7.9834    2.0483    0.0000 H   0  0  0  0  0  0  0  0  0  0  0  0
   10.7781   -2.8859    0.0000 H   0  0  0  0  0  0  0  0  0  0  0  0
    8.6423    3.5283    0.0000 H   0  0  0  0  0  0  0  0  0  0  0  0
    2.0000    0.1394    0.0000 H   0  0  0  0  0  0  0  0  0  0  0  0
    7.6901    4.8389    0.0000 H   0  0  0  0  0  0  0  0  0  0  0  0
    7.8879   -3.4449    0.0000 H   0  0  0  0  0  0  0  0  0  0  0  0
    7.2430   -3.9134    0.0000 H   0  0  0  0  0  0  0  0  0  0  0  0
   10.8893   -5.2703    0.0000 H   0  0  0  0  0  0  0  0  0  0  0  0
   11.6864   -5.2703    0.0000 H   0  0  0  0  0  0  0  0  0  0  0  0
    6.8715   -4.7248    0.0000 H   0  0  0  0  0  0  0  0  0  0  0  0
    7.1857   -5.5434    0.0000 H   0  0  0  0  0  0  0  0  0  0  0  0
    8.0043   -5.2292    0.0000 H   0  0  0  0  0  0  0  0  0  0  0  0
   13.0199   -5.4153    0.0000 H   0  0  0  0  0  0  0  0  0  0  0  0
   11.6169   -2.9853    0.0000 H   0  0  0  0  0  0  0  0  0  0  0  0
   13.0199   -2.1753    0.0000 H   0  0  0  0  0  0  0  0  0  0  0  0
   14.7727   -5.4499    0.0000 H   0  0  0  0  0  0  0  0  0  0  0  0
   14.7727   -2.1407    0.0000 H   0  0  0  0  0  0  0  0  0  0  0  0
   16.2217   -4.6282    0.0000 H   0  0  0  0  0  0  0  0  0  0  0  0
   16.2217   -2.9624    0.0000 H   0  0  0  0  0  0  0  0  0  0  0  0
  1 29  1  0  0  0  0
  2 21  1  0  0  0  0
  2 77  1  0  0  0  0
  3 21  2  0  0  0  0
  4 10  1  0  0  0  0
  4 11  1  0  0  0  0
  4 13  1  0  0  0  0
  5 12  1  0  0  0  0
  5 16  1  0  0  0  0
  5 17  1  0  0  0  0
  6  7  1  0  0  0  0
  6 25  1  0  0  0  0
  6 33  1  0  0  0  0
  7 32  2  0  0  0  0
  8  9  1  0  0  0  0
  8 10  1  0  0  0  0
  8 12  1  1  0  0  0
  8 46  1  0  0  0  0
  9 11  1  0  0  0  0
  9 15  1  6  0  0  0
  9 47  1  0  0  0  0
 10 48  1  0  0  0  0
 10 49  1  0  0  0  0
 11 50  1  0  0  0  0
 11 51  1  0  0  0  0
 12 52  1  0  0  0  0
 12 53  1  0  0  0  0
 13 14  1  0  0  0  0
 13 21  1  6  0  0  0
 13 54  1  0  0  0  0
 14 22  1  0  0  0  0
 14 23  1  0  0  0  0
 14 24  1  0  0  0  0
 15 26  2  0  0  0  0
 15 27  1  0  0  0  0
 16 19  1  0  0  0  0
 16 55  1  0  0  0  0
 16 56  1  0  0  0  0
 17 20  1  0  0  0  0
 17 57  1  0  0  0  0
 17 58  1  0  0  0  0
 18 19  1  0  0  0  0
 18 20  1  0  0  0  0
 18 25  1  0  0  0  0
 18 59  1  0  0  0  0
 19 60  1  0  0  0  0
 19 61  1  0  0  0  0
 20 62  1  0  0  0  0
 20 63  1  0  0  0  0
 22 64  1  0  0  0  0
 22 65  1  0  0  0  0
 22 66  1  0  0  0  0
 23 67  1  0  0  0  0
 23 68  1  0  0  0  0
 23 69  1  0  0  0  0
 24 70  1  0  0  0  0
 24 71  1  0  0  0  0
 24 72  1  0  0  0  0
 25 28  2  0  0  0  0
 26 29  1  0  0  0  0
 26 73  1  0  0  0  0
 27 30  2  0  0  0  0
 27 74  1  0  0  0  0
 28 32  1  0  0  0  0
 28 75  1  0  0  0  0
 29 31  2  0  0  0  0
 30 31  1  0  0  0  0
 30 76  1  0  0  0  0
 31 78  1  0  0  0  0
 32 34  1  0  0  0  0
 33 35  1  0  0  0  0
 33 79  1  0  0  0  0
 33 80  1  0  0  0  0
 34 36  1  0  0  0  0
 34 81  1  0  0  0  0
 34 82  1  0  0  0  0
 35 83  1  0  0  0  0
 35 84  1  0  0  0  0
 35 85  1  0  0  0  0
 36 37  2  0  0  0  0
 36 38  1  0  0  0  0
 37 39  1  0  0  0  0
 37 86  1  0  0  0  0
 38 40  2  0  0  0  0
 38 87  1  0  0  0  0
 39 41  1  0  0  0  0
 39 42  2  0  0  0  0
 40 41  1  0  0  0  0
 40 88  1  0  0  0  0
 41 43  2  0  0  0  0
 42 44  1  0  0  0  0
 42 89  1  0  0  0  0
 43 45  1  0  0  0  0
 43 90  1  0  0  0  0
 44 45  2  0  0  0  0
 44 91  1  0  0  0  0
 45 92  1  0  0  0  0
M  END
> <PUBCHEM_COMPOUND_CID>
516289
> <PUBCHEM_COMPOUND_CANONICALIZED>
1
> <PUBCHEM_CACTVS_COMPLEXITY>
966
> <PUBCHEM_CACTVS_HBOND_ACCEPTOR>
6
> <PUBCHEM_CACTVS_HBOND_DONOR>
1
> <PUBCHEM_CACTVS_ROTATABLE_BOND>
10
> <PUBCHEM_CACTVS_SUBSKEYS>
AAADcfB/sQAAAAAAAAAAAAAAAAAAAWLAAAA8YMEAAAAAAADB1AAAHwAICAAADyjBngwyiNMIAgCqAyTyTACSBAAhggAY2CG4ZJgKIDLA0fGE5AhkiADYyAcQgMAPwAACAAAQAACAAAQAACAAAAAAAAAAAA==
> <PUBCHEM_IUPAC_OPENEYE_NAME>
(2R)-2-[(3S,4S)-3-[[4-[2-ethyl-5-(2-naphthylmethyl)pyrazol-3-yl]-1-piperidyl]methyl]-4-(3-fluorophenyl)pyrrolidin-1-yl]-3,3-dimethyl-butanoic acid
> <PUBCHEM_IUPAC_CAS_NAME>
(2R)-2-[(3S,4S)-3-[[4-[2-ethyl-5-(2-naphthalenylmethyl)-3-pyrazolyl]-1-piperidinyl]methyl]-4-(3-fluorophenyl)-1-pyrrolidinyl]-3,3-dimethylbutanoic acid
> <PUBCHEM_IUPAC_NAME_MARKUP>
(2<I>R</I>)-2-[(3<I>S</I>,4<I>S</I>)-3-[[4-[2-ethyl-5-(naphthalen-2-ylmethyl)pyrazol-3-yl]piperidin-1-yl]methyl]-4-(3-fluorophenyl)pyrrolidin-1-yl]-3,3-dimethylbutanoic acid
> <PUBCHEM_IUPAC_NAME>
(2R)-2-[(3S,4S)-3-[[4-[2-ethyl-5-(naphthalen-2-ylmethyl)pyrazol-3-yl]piperidin-1-yl]methyl]-4-(3-fluorophenyl)pyrrolidin-1-yl]-3,3-dimethylbutanoic acid
> <PUBCHEM_IUPAC_SYSTEMATIC_NAME>
(2R)-2-[(3S,4S)-3-[[4-[2-ethyl-5-(naphthalen-2-ylmethyl)pyrazol-3-yl]piperidin-1-yl]methyl]-4-(3-fluorophenyl)pyrrolidin-1-yl]-3,3-dimethyl-butanoic acid
> <PUBCHEM_IUPAC_TRADITIONAL_NAME>
(2R)-2-[(3S,4S)-3-[[4-[2-ethyl-5-(2-naphthylmethyl)pyrazol-3-yl]piperidino]methyl]-4-(3-fluorophenyl)pyrrolidino]-3,3-dimethyl-butyric acid
> <PUBCHEM_IUPAC_INCHI>
InChI=1S/C38H47FN4O2/c1-5-43-35(22-33(40-43)20-26-13-14-27-9-6-7-10-29(27)19-26)28-15-17-41(18-16-28)23-31-24-42(36(37(44)45)38(2,3)4)25-34(31)30-11-8-12-32(39)21-30/h6-14,19,21-22,28,31,34,36H,5,15-18,20,23-25H2,1-4H3,(H,44,45)/t31-,34+,36-/m0/s1
> <PUBCHEM_IUPAC_INCHIKEY>
CHOHDRRBJZPQIH-URSHZUDISA-N
> <PUBCHEM_XLOGP3_AA>
5.3
> <PUBCHEM_EXACT_MASS>
610.36830492
> <PUBCHEM_MOLECULAR_FORMULA>
C38H47FN4O2
> <PUBCHEM_MOLECULAR_WEIGHT>
610.8
> <PUBCHEM_OPENEYE_CAN_SMILES>
CCN1C(=CC(=N1)CC2=CC3=CC=CC=C3C=C2)C4CCN(CC4)CC5CN(CC5C6=CC(=CC=C6)F)C(C(=O)O)C(C)(C)C
> <PUBCHEM_OPENEYE_ISO_SMILES>
CCN1C(=CC(=N1)CC2=CC3=CC=CC=C3C=C2)C4CCN(CC4)C[C@H]5CN(C[C@@H]5C6=CC(=CC=C6)F)[C@@H](C(=O)O)C(C)(C)C
> <PUBCHEM_CACTVS_TPSA>
61.6
> <PUBCHEM_MONOISOTOPIC_WEIGHT>
610.36830492
> <PUBCHEM_TOTAL_CHARGE>
0
> <PUBCHEM_HEAVY_ATOM_COUNT>
45
> <PUBCHEM_ATOM_DEF_STEREO_COUNT>
3
> <PUBCHEM_ATOM_UDEF_STEREO_COUNT>
0
> <PUBCHEM_BOND_DEF_STEREO_COUNT>
0
> <PUBCHEM_BOND_UDEF_STEREO_COUNT>
0
> <PUBCHEM_ISOTOPIC_ATOM_COUNT>
0
> <PUBCHEM_COMPONENT_COUNT>
1
> <PUBCHEM_CACTVS_TAUTO_COUNT>
-1
> <PUBCHEM_COORDINATE_TYPE>
1
5
255
> <PUBCHEM_BONDANNOTATIONS>
13  21  6
15  26  8
15  27  8
25  28  8
26  29  8
27  30  8
28  32  8
29  31  8
30  31  8
36  37  8
36  38  8
37  39  8
38  40  8
39  41  8
39  42  8
40  41  8
41  43  8
42  44  8
43  45  8
44  45  8
6  25  8
6  7  8
7  32  8
8  12  5
9  15  6
$$$$
