516257
  -OEChem-10302200282D
 92 97  0     1  0  0  0  0  0999 V2000
    9.3493    3.9202    0.0000 F   0  0  0  0  0  0  0  0  0  0  0  0
    3.7320   -1.3183    0.0000 O   0  0  0  0  0  0  0  0  0  0  0  0
    5.4641   -1.3183    0.0000 O   0  0  0  0  0  0  0  0  0  0  0  0
    5.4641    0.6817    0.0000 N   0  0  3  0  0  0  0  0  0  0  0  0
    8.4480   -0.0000    0.0000 N   0  0  0  0  0  0  0  0  0  0  0  0
    9.1682   -3.6067    0.0000 N   0  0  0  0  0  0  0  0  0  0  0  0
    9.8374   -4.3498    0.0000 N   0  0  0  0  0  0  0  0  0  0  0  0
    7.0468    1.0181    0.0000 C   0  0  2  0  0  0  0  0  0  0  0  0
    6.5468    1.8841    0.0000 C   0  0  2  0  0  0  0  0  0  0  0  0
    6.3776    0.2749    0.0000 C   0  0  0  0  0  0  0  0  0  0  0  0
    5.5686    1.6762    0.0000 C   0  0  0  0  0  0  0  0  0  0  0  0
    8.0413    0.9135    0.0000 C   0  0  0  0  0  0  0  0  0  0  0  0
    4.5981    0.1817    0.0000 C   0  0  2  0  0  0  0  0  0  0  0  0
    6.9535    2.7976    0.0000 C   0  0  0  0  0  0  0  0  0  0  0  0
    7.8602   -0.8090    0.0000 C   0  0  0  0  0  0  0  0  0  0  0  0
    9.4426   -0.1045    0.0000 C   0  0  0  0  0  0  0  0  0  0  0  0
    9.2615   -1.8271    0.0000 C   0  0  0  0  0  0  0  0  0  0  0  0
    3.7320    0.6817    0.0000 C   0  0  1  0  0  0  0  0  0  0  0  0
    8.2670   -1.7226    0.0000 C   0  0  0  0  0  0  0  0  0  0  0  0
    9.8493   -1.0181    0.0000 C   0  0  0  0  0  0  0  0  0  0  0  0
    9.6682   -2.7406    0.0000 C   0  0  0  0  0  0  0  0  0  0  0  0
    4.5981   -0.8183    0.0000 C   0  0  0  0  0  0  0  0  0  0  0  0
    2.8660    0.1817    0.0000 C   0  0  0  0  0  0  0  0  0  0  0  0
    7.9480    2.9022    0.0000 C   0  0  0  0  0  0  0  0  0  0  0  0
    6.3657    3.6067    0.0000 C   0  0  0  0  0  0  0  0  0  0  0  0
    3.7320    1.6817    0.0000 C   0  0  0  0  0  0  0  0  0  0  0  0
   10.6464   -2.9486    0.0000 C   0  0  0  0  0  0  0  0  0  0  0  0
    2.0000    0.6817    0.0000 C   0  0  0  0  0  0  0  0  0  0  0  0
    8.3548    3.8157    0.0000 C   0  0  0  0  0  0  0  0  0  0  0  0
    6.7725    4.5202    0.0000 C   0  0  0  0  0  0  0  0  0  0  0  0
   10.7509   -3.9431    0.0000 C   0  0  0  0  0  0  0  0  0  0  0  0
    7.7670    4.6247    0.0000 C   0  0  0  0  0  0  0  0  0  0  0  0
    8.1737   -3.7112    0.0000 C   0  0  0  0  0  0  0  0  0  0  0  0
   11.6169   -4.4431    0.0000 C   0  0  0  0  0  0  0  0  0  0  0  0
    7.7670   -4.6247    0.0000 C   0  0  0  0  0  0  0  0  0  0  0  0
   12.4830   -3.9431    0.0000 C   0  0  0  0  0  0  0  0  0  0  0  0
   13.3490   -4.4431    0.0000 C   0  0  0  0  0  0  0  0  0  0  0  0
   12.4830   -2.9431    0.0000 C   0  0  0  0  0  0  0  0  0  0  0  0
   14.2150   -3.9431    0.0000 C   0  0  0  0  0  0  0  0  0  0  0  0
   13.3490   -2.4431    0.0000 C   0  0  0  0  0  0  0  0  0  0  0  0
   14.2150   -2.9431    0.0000 C   0  0  0  0  0  0  0  0  0  0  0  0
   15.1090   -4.4777    0.0000 C   0  0  0  0  0  0  0  0  0  0  0  0
   15.1090   -2.4084    0.0000 C   0  0  0  0  0  0  0  0  0  0  0  0
   16.0150   -3.9639    0.0000 C   0  0  0  0  0  0  0  0  0  0  0  0
   16.0150   -2.9222    0.0000 C   0  0  0  0  0  0  0  0  0  0  0  0
    7.2690    0.4393    0.0000 H   0  0  0  0  0  0  0  0  0  0  0  0
    7.1659    1.9166    0.0000 H   0  0  0  0  0  0  0  0  0  0  0  0
    6.0677   -0.2620    0.0000 H   0  0  0  0  0  0  0  0  0  0  0  0
    6.8792   -0.0895    0.0000 H   0  0  0  0  0  0  0  0  0  0  0  0
    5.5038    2.2928    0.0000 H   0  0  0  0  0  0  0  0  0  0  0  0
    4.9486    1.6762    0.0000 H   0  0  0  0  0  0  0  0  0  0  0  0
    8.6429    1.0635    0.0000 H   0  0  0  0  0  0  0  0  0  0  0  0
    7.9980    1.5320    0.0000 H   0  0  0  0  0  0  0  0  0  0  0  0
    5.1350   -0.1283    0.0000 H   0  0  0  0  0  0  0  0  0  0  0  0
    7.4296   -0.3630    0.0000 H   0  0  0  0  0  0  0  0  0  0  0  0
    7.3462   -1.1557    0.0000 H   0  0  0  0  0  0  0  0  0  0  0  0
   10.0441    0.0455    0.0000 H   0  0  0  0  0  0  0  0  0  0  0  0
    9.3993    0.5140    0.0000 H   0  0  0  0  0  0  0  0  0  0  0  0
    9.8781   -1.8919    0.0000 H   0  0  0  0  0  0  0  0  0  0  0  0
    4.2690    0.9917    0.0000 H   0  0  0  0  0  0  0  0  0  0  0  0
    7.6654   -1.8726    0.0000 H   0  0  0  0  0  0  0  0  0  0  0  0
    8.3102   -2.3410    0.0000 H   0  0  0  0  0  0  0  0  0  0  0  0
   10.2800   -1.4641    0.0000 H   0  0  0  0  0  0  0  0  0  0  0  0
   10.3633   -0.6714    0.0000 H   0  0  0  0  0  0  0  0  0  0  0  0
    2.4675   -0.2933    0.0000 H   0  0  0  0  0  0  0  0  0  0  0  0
    3.2646   -0.2933    0.0000 H   0  0  0  0  0  0  0  0  0  0  0  0
    8.3125    2.4006    0.0000 H   0  0  0  0  0  0  0  0  0  0  0  0
    5.7491    3.5418    0.0000 H   0  0  0  0  0  0  0  0  0  0  0  0
    4.3520    1.6817    0.0000 H   0  0  0  0  0  0  0  0  0  0  0  0
    3.7320    2.3017    0.0000 H   0  0  0  0  0  0  0  0  0  0  0  0
    3.1120    1.6817    0.0000 H   0  0  0  0  0  0  0  0  0  0  0  0
   11.1071   -2.5337    0.0000 H   0  0  0  0  0  0  0  0  0  0  0  0
    2.3100    1.2186    0.0000 H   0  0  0  0  0  0  0  0  0  0  0  0
    1.4631    0.9917    0.0000 H   0  0  0  0  0  0  0  0  0  0  0  0
    1.6900    0.1447    0.0000 H   0  0  0  0  0  0  0  0  0  0  0  0
    6.4080    5.0218    0.0000 H   0  0  0  0  0  0  0  0  0  0  0  0
    8.0192    5.1911    0.0000 H   0  0  0  0  0  0  0  0  0  0  0  0
    3.7320   -1.9383    0.0000 H   0  0  0  0  0  0  0  0  0  0  0  0
    8.2170   -3.0927    0.0000 H   0  0  0  0  0  0  0  0  0  0  0  0
    7.5721   -3.5612    0.0000 H   0  0  0  0  0  0  0  0  0  0  0  0
   11.2184   -4.9180    0.0000 H   0  0  0  0  0  0  0  0  0  0  0  0
   12.0155   -4.9180    0.0000 H   0  0  0  0  0  0  0  0  0  0  0  0
    7.2006   -4.3726    0.0000 H   0  0  0  0  0  0  0  0  0  0  0  0
    7.5148   -5.1911    0.0000 H   0  0  0  0  0  0  0  0  0  0  0  0
    8.3334   -4.8769    0.0000 H   0  0  0  0  0  0  0  0  0  0  0  0
   13.3490   -5.0631    0.0000 H   0  0  0  0  0  0  0  0  0  0  0  0
   11.9460   -2.6331    0.0000 H   0  0  0  0  0  0  0  0  0  0  0  0
   13.3490   -1.8231    0.0000 H   0  0  0  0  0  0  0  0  0  0  0  0
   15.1018   -5.0977    0.0000 H   0  0  0  0  0  0  0  0  0  0  0  0
   15.1018   -1.7884    0.0000 H   0  0  0  0  0  0  0  0  0  0  0  0
   16.5508   -4.2760    0.0000 H   0  0  0  0  0  0  0  0  0  0  0  0
   16.5508   -2.6102    0.0000 H   0  0  0  0  0  0  0  0  0  0  0  0
  1 29  1  0  0  0  0
  2 22  1  0  0  0  0
  2 78  1  0  0  0  0
  3 22  2  0  0  0  0
  4 10  1  0  0  0  0
  4 11  1  0  0  0  0
  4 13  1  0  0  0  0
  5 12  1  0  0  0  0
  5 15  1  0  0  0  0
  5 16  1  0  0  0  0
  6  7  1  0  0  0  0
  6 21  1  0  0  0  0
  6 33  1  0  0  0  0
  7 31  2  0  0  0  0
  8  9  1  0  0  0  0
  8 10  1  0  0  0  0
  8 12  1  1  0  0  0
  8 46  1  0  0  0  0
  9 11  1  0  0  0  0
  9 14  1  6  0  0  0
  9 47  1  0  0  0  0
 10 48  1  0  0  0  0
 10 49  1  0  0  0  0
 11 50  1  0  0  0  0
 11 51  1  0  0  0  0
 12 52  1  0  0  0  0
 12 53  1  0  0  0  0
 13 18  1  0  0  0  0
 13 22  1  1  0  0  0
 13 54  1  0  0  0  0
 14 24  2  0  0  0  0
 14 25  1  0  0  0  0
 15 19  1  0  0  0  0
 15 55  1  0  0  0  0
 15 56  1  0  0  0  0
 16 20  1  0  0  0  0
 16 57  1  0  0  0  0
 16 58  1  0  0  0  0
 17 19  1  0  0  0  0
 17 20  1  0  0  0  0
 17 21  1  0  0  0  0
 17 59  1  0  0  0  0
 18 23  1  0  0  0  0
 18 26  1  1  0  0  0
 18 60  1  0  0  0  0
 19 61  1  0  0  0  0
 19 62  1  0  0  0  0
 20 63  1  0  0  0  0
 20 64  1  0  0  0  0
 21 27  2  0  0  0  0
 23 28  1  0  0  0  0
 23 65  1  0  0  0  0
 23 66  1  0  0  0  0
 24 29  1  0  0  0  0
 24 67  1  0  0  0  0
 25 30  2  0  0  0  0
 25 68  1  0  0  0  0
 26 69  1  0  0  0  0
 26 70  1  0  0  0  0
 26 71  1  0  0  0  0
 27 31  1  0  0  0  0
 27 72  1  0  0  0  0
 28 73  1  0  0  0  0
 28 74  1  0  0  0  0
 28 75  1  0  0  0  0
 29 32  2  0  0  0  0
 30 32  1  0  0  0  0
 30 76  1  0  0  0  0
 31 34  1  0  0  0  0
 32 77  1  0  0  0  0
 33 35  1  0  0  0  0
 33 79  1  0  0  0  0
 33 80  1  0  0  0  0
 34 36  1  0  0  0  0
 34 81  1  0  0  0  0
 34 82  1  0  0  0  0
 35 83  1  0  0  0  0
 35 84  1  0  0  0  0
 35 85  1  0  0  0  0
 36 37  2  0  0  0  0
 36 38  1  0  0  0  0
 37 39  1  0  0  0  0
 37 86  1  0  0  0  0
 38 40  2  0  0  0  0
 38 87  1  0  0  0  0
 39 41  1  0  0  0  0
 39 42  2  0  0  0  0
 40 41  1  0  0  0  0
 40 88  1  0  0  0  0
 41 43  2  0  0  0  0
 42 44  1  0  0  0  0
 42 89  1  0  0  0  0
 43 45  1  0  0  0  0
 43 90  1  0  0  0  0
 44 45  2  0  0  0  0
 44 91  1  0  0  0  0
 45 92  1  0  0  0  0
M  END
> <PUBCHEM_COMPOUND_CID>
516257
> <PUBCHEM_COMPOUND_CANONICALIZED>
1
> <PUBCHEM_CACTVS_COMPLEXITY>
945
> <PUBCHEM_CACTVS_HBOND_ACCEPTOR>
6
> <PUBCHEM_CACTVS_HBOND_DONOR>
1
> <PUBCHEM_CACTVS_ROTATABLE_BOND>
11
> <PUBCHEM_CACTVS_SUBSKEYS>
AAADcfB/sQAAAAAAAAAAAAAAAAAAAWLAAAA8YMEAAAAAAADB1AAAHwAICAAADSjBngwyiNMIAgCqAyTyTACSBAAhggAY2CG4ZJgKIDLA0fGE5AhkiADYyAeYgMAOwAACAAAQAACAAAQAACAAAAAAAAAAAA==
> <PUBCHEM_IUPAC_OPENEYE_NAME>
(2R,3R)-2-[(3S,4S)-3-[[4-[2-ethyl-5-(2-naphthylmethyl)pyrazol-3-yl]-1-piperidyl]methyl]-4-(3-fluorophenyl)pyrrolidin-1-yl]-3-methyl-pentanoic acid
> <PUBCHEM_IUPAC_CAS_NAME>
(2R,3R)-2-[(3S,4S)-3-[[4-[2-ethyl-5-(2-naphthalenylmethyl)-3-pyrazolyl]-1-piperidinyl]methyl]-4-(3-fluorophenyl)-1-pyrrolidinyl]-3-methylpentanoic acid
> <PUBCHEM_IUPAC_NAME_MARKUP>
(2<I>R</I>,3<I>R</I>)-2-[(3<I>S</I>,4<I>S</I>)-3-[[4-[2-ethyl-5-(naphthalen-2-ylmethyl)pyrazol-3-yl]piperidin-1-yl]methyl]-4-(3-fluorophenyl)pyrrolidin-1-yl]-3-methylpentanoic acid
> <PUBCHEM_IUPAC_NAME>
(2R,3R)-2-[(3S,4S)-3-[[4-[2-ethyl-5-(naphthalen-2-ylmethyl)pyrazol-3-yl]piperidin-1-yl]methyl]-4-(3-fluorophenyl)pyrrolidin-1-yl]-3-methylpentanoic acid
> <PUBCHEM_IUPAC_SYSTEMATIC_NAME>
(2R,3R)-2-[(3S,4S)-3-[[4-[2-ethyl-5-(naphthalen-2-ylmethyl)pyrazol-3-yl]piperidin-1-yl]methyl]-4-(3-fluorophenyl)pyrrolidin-1-yl]-3-methyl-pentanoic acid
> <PUBCHEM_IUPAC_TRADITIONAL_NAME>
(2R,3R)-2-[(3S,4S)-3-[[4-[2-ethyl-5-(2-naphthylmethyl)pyrazol-3-yl]piperidino]methyl]-4-(3-fluorophenyl)pyrrolidino]-3-methyl-valeric acid
> <PUBCHEM_IUPAC_INCHI>
InChI=1S/C38H47FN4O2/c1-4-26(3)37(38(44)45)42-24-32(35(25-42)31-11-8-12-33(39)21-31)23-41-17-15-29(16-18-41)36-22-34(40-43(36)5-2)20-27-13-14-28-9-6-7-10-30(28)19-27/h6-14,19,21-22,26,29,32,35,37H,4-5,15-18,20,23-25H2,1-3H3,(H,44,45)/t26-,32+,35-,37-/m1/s1
> <PUBCHEM_IUPAC_INCHIKEY>
DKYYISTXVPXPTC-JKULCMLZSA-N
> <PUBCHEM_XLOGP3_AA>
5.3
> <PUBCHEM_EXACT_MASS>
610.36830492
> <PUBCHEM_MOLECULAR_FORMULA>
C38H47FN4O2
> <PUBCHEM_MOLECULAR_WEIGHT>
610.8
> <PUBCHEM_OPENEYE_CAN_SMILES>
CCC(C)C(C(=O)O)N1CC(C(C1)C2=CC(=CC=C2)F)CN3CCC(CC3)C4=CC(=NN4CC)CC5=CC6=CC=CC=C6C=C5
> <PUBCHEM_OPENEYE_ISO_SMILES>
CC[C@@H](C)[C@H](C(=O)O)N1C[C@@H]([C@H](C1)C2=CC(=CC=C2)F)CN3CCC(CC3)C4=CC(=NN4CC)CC5=CC6=CC=CC=C6C=C5
> <PUBCHEM_CACTVS_TPSA>
61.6
> <PUBCHEM_MONOISOTOPIC_WEIGHT>
610.36830492
> <PUBCHEM_TOTAL_CHARGE>
0
> <PUBCHEM_HEAVY_ATOM_COUNT>
45
> <PUBCHEM_ATOM_DEF_STEREO_COUNT>
4
> <PUBCHEM_ATOM_UDEF_STEREO_COUNT>
0
> <PUBCHEM_BOND_DEF_STEREO_COUNT>
0
> <PUBCHEM_BOND_UDEF_STEREO_COUNT>
0
> <PUBCHEM_ISOTOPIC_ATOM_COUNT>
0
> <PUBCHEM_COMPONENT_COUNT>
1
> <PUBCHEM_CACTVS_TAUTO_COUNT>
-1
> <PUBCHEM_COORDINATE_TYPE>
1
5
255
> <PUBCHEM_BONDANNOTATIONS>
13  22  5
14  24  8
14  25  8
18  26  5
21  27  8
24  29  8
25  30  8
27  31  8
29  32  8
30  32  8
36  37  8
36  38  8
37  39  8
38  40  8
39  41  8
39  42  8
40  41  8
41  43  8
42  44  8
43  45  8
44  45  8
6  21  8
6  7  8
7  31  8
8  12  5
9  14  6
$$$$
