516268
  -OEChem-10302200282D
 90 94  0     1  0  0  0  0  0999 V2000
    9.8078   -5.7148    0.0000 F   0  0  0  0  0  0  0  0  0  0  0  0
    2.3644   -4.9364    0.0000 O   0  0  0  0  0  0  0  0  0  0  0  0
    3.7657   -5.9545    0.0000 O   0  0  0  0  0  0  0  0  0  0  0  0
    6.8508    6.5020    0.0000 O   0  0  0  0  0  0  0  0  0  0  0  0
    4.9413   -4.3365    0.0000 N   0  0  3  0  0  0  0  0  0  0  0  0
    7.3900   -2.5001    0.0000 N   0  0  0  0  0  0  0  0  0  0  0  0
    6.5809    1.0877    0.0000 N   0  0  0  0  0  0  0  0  0  0  0  0
    6.8900    2.0388    0.0000 N   0  0  0  0  0  0  0  0  0  0  0  0
    6.5239   -4.0001    0.0000 C   0  0  2  0  0  0  0  0  0  0  0  0
    6.4194   -4.9946    0.0000 C   0  0  2  0  0  0  0  0  0  0  0  0
    5.6104   -3.5933    0.0000 C   0  0  0  0  0  0  0  0  0  0  0  0
    5.4413   -5.2025    0.0000 C   0  0  0  0  0  0  0  0  0  0  0  0
    7.3900   -3.5001    0.0000 C   0  0  0  0  0  0  0  0  0  0  0  0
    3.9467   -4.2319    0.0000 C   0  0  2  0  0  0  0  0  0  0  0  0
    3.5400   -3.3184    0.0000 C   0  0  0  0  0  0  0  0  0  0  0  0
    7.1626   -5.6637    0.0000 C   0  0  0  0  0  0  0  0  0  0  0  0
    6.5239   -2.0001    0.0000 C   0  0  0  0  0  0  0  0  0  0  0  0
    8.2560   -2.0001    0.0000 C   0  0  0  0  0  0  0  0  0  0  0  0
    7.3900   -0.5001    0.0000 C   0  0  0  0  0  0  0  0  0  0  0  0
    6.5239   -1.0001    0.0000 C   0  0  0  0  0  0  0  0  0  0  0  0
    8.2560   -1.0001    0.0000 C   0  0  0  0  0  0  0  0  0  0  0  0
    3.3590   -5.0410    0.0000 C   0  0  0  0  0  0  0  0  0  0  0  0
    3.1333   -2.4048    0.0000 C   0  0  0  0  0  0  0  0  0  0  0  0
    2.6264   -3.7251    0.0000 C   0  0  0  0  0  0  0  0  0  0  0  0
    4.4535   -2.9117    0.0000 C   0  0  0  0  0  0  0  0  0  0  0  0
    7.3900    0.4999    0.0000 C   0  0  0  0  0  0  0  0  0  0  0  0
    8.1136   -5.3547    0.0000 C   0  0  0  0  0  0  0  0  0  0  0  0
    6.9546   -6.6419    0.0000 C   0  0  0  0  0  0  0  0  0  0  0  0
    8.1990    1.0877    0.0000 C   0  0  0  0  0  0  0  0  0  0  0  0
    8.8568   -6.0238    0.0000 C   0  0  0  0  0  0  0  0  0  0  0  0
    7.6978   -7.3110    0.0000 C   0  0  0  0  0  0  0  0  0  0  0  0
    8.6488   -7.0020    0.0000 C   0  0  0  0  0  0  0  0  0  0  0  0
    7.8900    2.0388    0.0000 C   0  0  0  0  0  0  0  0  0  0  0  0
    5.6299    0.7787    0.0000 C   0  0  0  0  0  0  0  0  0  0  0  0
    8.4777    2.8478    0.0000 C   0  0  0  0  0  0  0  0  0  0  0  0
    4.8867    1.4478    0.0000 C   0  0  0  0  0  0  0  0  0  0  0  0
    8.0710    3.7613    0.0000 C   0  0  0  0  0  0  0  0  0  0  0  0
    8.6588    4.5704    0.0000 C   0  0  0  0  0  0  0  0  0  0  0  0
    7.0765    3.8659    0.0000 C   0  0  0  0  0  0  0  0  0  0  0  0
    8.2520    5.4839    0.0000 C   0  0  0  0  0  0  0  0  0  0  0  0
    6.6698    4.7794    0.0000 C   0  0  0  0  0  0  0  0  0  0  0  0
    7.2575    5.5884    0.0000 C   0  0  0  0  0  0  0  0  0  0  0  0
    7.4386    7.3110    0.0000 C   0  0  0  0  0  0  0  0  0  0  0  0
    6.4915   -3.3809    0.0000 H   0  0  0  0  0  0  0  0  0  0  0  0
    6.2589   -5.5935    0.0000 H   0  0  0  0  0  0  0  0  0  0  0  0
    5.9204   -3.0564    0.0000 H   0  0  0  0  0  0  0  0  0  0  0  0
    5.1088   -3.2289    0.0000 H   0  0  0  0  0  0  0  0  0  0  0  0
    4.8749   -5.4547    0.0000 H   0  0  0  0  0  0  0  0  0  0  0  0
    5.6328   -5.7922    0.0000 H   0  0  0  0  0  0  0  0  0  0  0  0
    7.6020   -4.0827    0.0000 H   0  0  0  0  0  0  0  0  0  0  0  0
    8.0005   -3.3924    0.0000 H   0  0  0  0  0  0  0  0  0  0  0  0
    4.1989   -4.7983    0.0000 H   0  0  0  0  0  0  0  0  0  0  0  0
    5.9134   -1.8924    0.0000 H   0  0  0  0  0  0  0  0  0  0  0  0
    6.3119   -2.5827    0.0000 H   0  0  0  0  0  0  0  0  0  0  0  0
    8.4680   -2.5827    0.0000 H   0  0  0  0  0  0  0  0  0  0  0  0
    8.8666   -1.8924    0.0000 H   0  0  0  0  0  0  0  0  0  0  0  0
    7.9269   -0.1901    0.0000 H   0  0  0  0  0  0  0  0  0  0  0  0
    6.3119   -0.4175    0.0000 H   0  0  0  0  0  0  0  0  0  0  0  0
    5.9134   -1.1077    0.0000 H   0  0  0  0  0  0  0  0  0  0  0  0
    8.8666   -1.1077    0.0000 H   0  0  0  0  0  0  0  0  0  0  0  0
    8.4680   -0.4175    0.0000 H   0  0  0  0  0  0  0  0  0  0  0  0
    3.6997   -2.1527    0.0000 H   0  0  0  0  0  0  0  0  0  0  0  0
    2.8811   -1.8384    0.0000 H   0  0  0  0  0  0  0  0  0  0  0  0
    2.5669   -2.6570    0.0000 H   0  0  0  0  0  0  0  0  0  0  0  0
    2.3743   -3.1587    0.0000 H   0  0  0  0  0  0  0  0  0  0  0  0
    2.0600   -3.9773    0.0000 H   0  0  0  0  0  0  0  0  0  0  0  0
    2.8786   -4.2915    0.0000 H   0  0  0  0  0  0  0  0  0  0  0  0
    4.7057   -3.4781    0.0000 H   0  0  0  0  0  0  0  0  0  0  0  0
    5.0199   -2.6595    0.0000 H   0  0  0  0  0  0  0  0  0  0  0  0
    4.2014   -2.3453    0.0000 H   0  0  0  0  0  0  0  0  0  0  0  0
    8.2425   -4.7482    0.0000 H   0  0  0  0  0  0  0  0  0  0  0  0
    6.3650   -6.8334    0.0000 H   0  0  0  0  0  0  0  0  0  0  0  0
    8.7886    0.8961    0.0000 H   0  0  0  0  0  0  0  0  0  0  0  0
    7.5689   -7.9174    0.0000 H   0  0  0  0  0  0  0  0  0  0  0  0
    2.0000   -5.4380    0.0000 H   0  0  0  0  0  0  0  0  0  0  0  0
    9.1096   -7.4168    0.0000 H   0  0  0  0  0  0  0  0  0  0  0  0
    5.1413    0.3970    0.0000 H   0  0  0  0  0  0  0  0  0  0  0  0
    5.9210    0.2313    0.0000 H   0  0  0  0  0  0  0  0  0  0  0  0
    8.9084    2.4018    0.0000 H   0  0  0  0  0  0  0  0  0  0  0  0
    8.9918    3.1945    0.0000 H   0  0  0  0  0  0  0  0  0  0  0  0
    5.3016    1.9086    0.0000 H   0  0  0  0  0  0  0  0  0  0  0  0
    4.4260    1.8627    0.0000 H   0  0  0  0  0  0  0  0  0  0  0  0
    4.4719    0.9871    0.0000 H   0  0  0  0  0  0  0  0  0  0  0  0
    9.2754    4.5056    0.0000 H   0  0  0  0  0  0  0  0  0  0  0  0
    6.7121    3.3643    0.0000 H   0  0  0  0  0  0  0  0  0  0  0  0
    8.6165    5.9855    0.0000 H   0  0  0  0  0  0  0  0  0  0  0  0
    6.0531    4.8442    0.0000 H   0  0  0  0  0  0  0  0  0  0  0  0
    7.9402    6.9466    0.0000 H   0  0  0  0  0  0  0  0  0  0  0  0
    7.8030    7.8126    0.0000 H   0  0  0  0  0  0  0  0  0  0  0  0
    6.9370    7.6754    0.0000 H   0  0  0  0  0  0  0  0  0  0  0  0
  1 30  1  0  0  0  0
  2 22  1  0  0  0  0
  2 75  1  0  0  0  0
  3 22  2  0  0  0  0
  4 42  1  0  0  0  0
  4 43  1  0  0  0  0
  5 11  1  0  0  0  0
  5 12  1  0  0  0  0
  5 14  1  0  0  0  0
  6 13  1  0  0  0  0
  6 17  1  0  0  0  0
  6 18  1  0  0  0  0
  7  8  1  0  0  0  0
  7 26  1  0  0  0  0
  7 34  1  0  0  0  0
  8 33  2  0  0  0  0
  9 10  1  0  0  0  0
  9 11  1  0  0  0  0
  9 13  1  6  0  0  0
  9 44  1  0  0  0  0
 10 12  1  0  0  0  0
 10 16  1  1  0  0  0
 10 45  1  0  0  0  0
 11 46  1  0  0  0  0
 11 47  1  0  0  0  0
 12 48  1  0  0  0  0
 12 49  1  0  0  0  0
 13 50  1  0  0  0  0
 13 51  1  0  0  0  0
 14 15  1  0  0  0  0
 14 22  1  1  0  0  0
 14 52  1  0  0  0  0
 15 23  1  0  0  0  0
 15 24  1  0  0  0  0
 15 25  1  0  0  0  0
 16 27  2  0  0  0  0
 16 28  1  0  0  0  0
 17 20  1  0  0  0  0
 17 53  1  0  0  0  0
 17 54  1  0  0  0  0
 18 21  1  0  0  0  0
 18 55  1  0  0  0  0
 18 56  1  0  0  0  0
 19 20  1  0  0  0  0
 19 21  1  0  0  0  0
 19 26  1  0  0  0  0
 19 57  1  0  0  0  0
 20 58  1  0  0  0  0
 20 59  1  0  0  0  0
 21 60  1  0  0  0  0
 21 61  1  0  0  0  0
 23 62  1  0  0  0  0
 23 63  1  0  0  0  0
 23 64  1  0  0  0  0
 24 65  1  0  0  0  0
 24 66  1  0  0  0  0
 24 67  1  0  0  0  0
 25 68  1  0  0  0  0
 25 69  1  0  0  0  0
 25 70  1  0  0  0  0
 26 29  2  0  0  0  0
 27 30  1  0  0  0  0
 27 71  1  0  0  0  0
 28 31  2  0  0  0  0
 28 72  1  0  0  0  0
 29 33  1  0  0  0  0
 29 73  1  0  0  0  0
 30 32  2  0  0  0  0
 31 32  1  0  0  0  0
 31 74  1  0  0  0  0
 32 76  1  0  0  0  0
 33 35  1  0  0  0  0
 34 36  1  0  0  0  0
 34 77  1  0  0  0  0
 34 78  1  0  0  0  0
 35 37  1  0  0  0  0
 35 79  1  0  0  0  0
 35 80  1  0  0  0  0
 36 81  1  0  0  0  0
 36 82  1  0  0  0  0
 36 83  1  0  0  0  0
 37 38  2  0  0  0  0
 37 39  1  0  0  0  0
 38 40  1  0  0  0  0
 38 84  1  0  0  0  0
 39 41  2  0  0  0  0
 39 85  1  0  0  0  0
 40 42  2  0  0  0  0
 40 86  1  0  0  0  0
 41 42  1  0  0  0  0
 41 87  1  0  0  0  0
 43 88  1  0  0  0  0
 43 89  1  0  0  0  0
 43 90  1  0  0  0  0
M  END
> <PUBCHEM_COMPOUND_CID>
516268
> <PUBCHEM_COMPOUND_CANONICALIZED>
1
> <PUBCHEM_CACTVS_COMPLEXITY>
885
> <PUBCHEM_CACTVS_HBOND_ACCEPTOR>
7
> <PUBCHEM_CACTVS_HBOND_DONOR>
1
> <PUBCHEM_CACTVS_ROTATABLE_BOND>
11
> <PUBCHEM_CACTVS_SUBSKEYS>
AAADcfB/sQAAAAAAAAAAAAAAAAAAAWLAAAA8YIAAAAAAAAAB0AAAHwAICAAADyzBng4yjpMIBgCqAyTyTACSDAAhogAY2CG+bJgOJjLE8fuE9ChkyBHY6AeQwOAPoAAAAAAAAABAAAAAAAAAAAAAAAAAAA==
> <PUBCHEM_IUPAC_OPENEYE_NAME>
(2R)-2-[(3S,4S)-3-[[4-[2-ethyl-5-[(4-methoxyphenyl)methyl]pyrazol-3-yl]-1-piperidyl]methyl]-4-(3-fluorophenyl)pyrrolidin-1-yl]-3,3-dimethyl-butanoic acid
> <PUBCHEM_IUPAC_CAS_NAME>
(2R)-2-[(3S,4S)-3-[[4-[2-ethyl-5-[(4-methoxyphenyl)methyl]-3-pyrazolyl]-1-piperidinyl]methyl]-4-(3-fluorophenyl)-1-pyrrolidinyl]-3,3-dimethylbutanoic acid
> <PUBCHEM_IUPAC_NAME_MARKUP>
(2<I>R</I>)-2-[(3<I>S</I>,4<I>S</I>)-3-[[4-[2-ethyl-5-[(4-methoxyphenyl)methyl]pyrazol-3-yl]piperidin-1-yl]methyl]-4-(3-fluorophenyl)pyrrolidin-1-yl]-3,3-dimethylbutanoic acid
> <PUBCHEM_IUPAC_NAME>
(2R)-2-[(3S,4S)-3-[[4-[2-ethyl-5-[(4-methoxyphenyl)methyl]pyrazol-3-yl]piperidin-1-yl]methyl]-4-(3-fluorophenyl)pyrrolidin-1-yl]-3,3-dimethylbutanoic acid
> <PUBCHEM_IUPAC_SYSTEMATIC_NAME>
(2R)-2-[(3S,4S)-3-[[4-[2-ethyl-5-[(4-methoxyphenyl)methyl]pyrazol-3-yl]piperidin-1-yl]methyl]-4-(3-fluorophenyl)pyrrolidin-1-yl]-3,3-dimethyl-butanoic acid
> <PUBCHEM_IUPAC_TRADITIONAL_NAME>
(2R)-2-[(3S,4S)-3-[[4-(2-ethyl-5-p-anisyl-pyrazol-3-yl)piperidino]methyl]-4-(3-fluorophenyl)pyrrolidino]-3,3-dimethyl-butyric acid
> <PUBCHEM_IUPAC_INCHI>
InChI=1S/C35H47FN4O3/c1-6-40-32(20-29(37-40)18-24-10-12-30(43-5)13-11-24)25-14-16-38(17-15-25)21-27-22-39(33(34(41)42)35(2,3)4)23-31(27)26-8-7-9-28(36)19-26/h7-13,19-20,25,27,31,33H,6,14-18,21-23H2,1-5H3,(H,41,42)/t27-,31+,33-/m0/s1
> <PUBCHEM_IUPAC_INCHIKEY>
WUOVQUPKHAFCDO-QOCRQHEPSA-N
> <PUBCHEM_XLOGP3_AA>
4.1
> <PUBCHEM_EXACT_MASS>
590.36321954
> <PUBCHEM_MOLECULAR_FORMULA>
C35H47FN4O3
> <PUBCHEM_MOLECULAR_WEIGHT>
590.8
> <PUBCHEM_OPENEYE_CAN_SMILES>
CCN1C(=CC(=N1)CC2=CC=C(C=C2)OC)C3CCN(CC3)CC4CN(CC4C5=CC(=CC=C5)F)C(C(=O)O)C(C)(C)C
> <PUBCHEM_OPENEYE_ISO_SMILES>
CCN1C(=CC(=N1)CC2=CC=C(C=C2)OC)C3CCN(CC3)C[C@H]4CN(C[C@@H]4C5=CC(=CC=C5)F)[C@@H](C(=O)O)C(C)(C)C
> <PUBCHEM_CACTVS_TPSA>
70.8
> <PUBCHEM_MONOISOTOPIC_WEIGHT>
590.36321954
> <PUBCHEM_TOTAL_CHARGE>
0
> <PUBCHEM_HEAVY_ATOM_COUNT>
43
> <PUBCHEM_ATOM_DEF_STEREO_COUNT>
3
> <PUBCHEM_ATOM_UDEF_STEREO_COUNT>
0
> <PUBCHEM_BOND_DEF_STEREO_COUNT>
0
> <PUBCHEM_BOND_UDEF_STEREO_COUNT>
0
> <PUBCHEM_ISOTOPIC_ATOM_COUNT>
0
> <PUBCHEM_COMPONENT_COUNT>
1
> <PUBCHEM_CACTVS_TAUTO_COUNT>
-1
> <PUBCHEM_COORDINATE_TYPE>
1
5
255
> <PUBCHEM_BONDANNOTATIONS>
10  16  5
14  22  5
16  27  8
16  28  8
26  29  8
27  30  8
28  31  8
29  33  8
30  32  8
31  32  8
37  38  8
37  39  8
38  40  8
39  41  8
40  42  8
41  42  8
7  26  8
7  8  8
8  33  8
9  13  6
$$$$
