516252
  -OEChem-10302200282D
 90 94  0     1  0  0  0  0  0999 V2000
    7.7132   -8.2568    0.0000 F   0  0  0  0  0  0  0  0  0  0  0  0
    7.2552    8.2568    0.0000 F   0  0  0  0  0  0  0  0  0  0  0  0
    8.6565    7.2388    0.0000 F   0  0  0  0  0  0  0  0  0  0  0  0
    2.7688   -3.1816    0.0000 O   0  0  0  0  0  0  0  0  0  0  0  0
    4.3511   -2.4771    0.0000 O   0  0  0  0  0  0  0  0  0  0  0  0
    7.0742    6.5343    0.0000 O   0  0  0  0  0  0  0  0  0  0  0  0
    5.1646   -4.3042    0.0000 N   0  0  3  0  0  0  0  0  0  0  0  0
    7.6133   -2.4678    0.0000 N   0  0  0  0  0  0  0  0  0  0  0  0
    6.8043    1.1200    0.0000 N   0  0  0  0  0  0  0  0  0  0  0  0
    7.1133    2.0711    0.0000 N   0  0  0  0  0  0  0  0  0  0  0  0
    6.7473   -3.9678    0.0000 C   0  0  2  0  0  0  0  0  0  0  0  0
    6.6428   -4.9623    0.0000 C   0  0  2  0  0  0  0  0  0  0  0  0
    5.8338   -3.5610    0.0000 C   0  0  0  0  0  0  0  0  0  0  0  0
    5.6646   -5.1702    0.0000 C   0  0  0  0  0  0  0  0  0  0  0  0
    7.6133   -3.4678    0.0000 C   0  0  0  0  0  0  0  0  0  0  0  0
    4.1701   -4.1996    0.0000 C   0  0  2  0  0  0  0  0  0  0  0  0
    7.3859   -5.6314    0.0000 C   0  0  0  0  0  0  0  0  0  0  0  0
    6.7473   -1.9678    0.0000 C   0  0  0  0  0  0  0  0  0  0  0  0
    8.4793   -1.9678    0.0000 C   0  0  0  0  0  0  0  0  0  0  0  0
    7.6133   -0.4678    0.0000 C   0  0  0  0  0  0  0  0  0  0  0  0
    3.5823   -5.0087    0.0000 C   0  0  1  0  0  0  0  0  0  0  0  0
    6.7473   -0.9678    0.0000 C   0  0  0  0  0  0  0  0  0  0  0  0
    8.4793   -0.9678    0.0000 C   0  0  0  0  0  0  0  0  0  0  0  0
    7.6133    0.5322    0.0000 C   0  0  0  0  0  0  0  0  0  0  0  0
    3.7634   -3.2861    0.0000 C   0  0  0  0  0  0  0  0  0  0  0  0
    2.5878   -4.9041    0.0000 C   0  0  0  0  0  0  0  0  0  0  0  0
    7.1780   -6.6096    0.0000 C   0  0  0  0  0  0  0  0  0  0  0  0
    8.3370   -5.3224    0.0000 C   0  0  0  0  0  0  0  0  0  0  0  0
    3.9890   -5.9222    0.0000 C   0  0  0  0  0  0  0  0  0  0  0  0
    8.4223    1.1200    0.0000 C   0  0  0  0  0  0  0  0  0  0  0  0
    2.0000   -5.7132    0.0000 C   0  0  0  0  0  0  0  0  0  0  0  0
    7.9211   -7.2787    0.0000 C   0  0  0  0  0  0  0  0  0  0  0  0
    9.0801   -5.9915    0.0000 C   0  0  0  0  0  0  0  0  0  0  0  0
    8.1133    2.0711    0.0000 C   0  0  0  0  0  0  0  0  0  0  0  0
    8.8722   -6.9697    0.0000 C   0  0  0  0  0  0  0  0  0  0  0  0
    5.8532    0.8110    0.0000 C   0  0  0  0  0  0  0  0  0  0  0  0
    8.7011    2.8801    0.0000 C   0  0  0  0  0  0  0  0  0  0  0  0
    5.1101    1.4801    0.0000 C   0  0  0  0  0  0  0  0  0  0  0  0
    8.2944    3.7936    0.0000 C   0  0  0  0  0  0  0  0  0  0  0  0
    7.2998    3.8982    0.0000 C   0  0  0  0  0  0  0  0  0  0  0  0
    8.8822    4.6027    0.0000 C   0  0  0  0  0  0  0  0  0  0  0  0
    6.8931    4.8117    0.0000 C   0  0  0  0  0  0  0  0  0  0  0  0
    8.4754    5.5162    0.0000 C   0  0  0  0  0  0  0  0  0  0  0  0
    7.4809    5.6207    0.0000 C   0  0  0  0  0  0  0  0  0  0  0  0
    7.6619    7.3433    0.0000 C   0  0  0  0  0  0  0  0  0  0  0  0
    7.2673   -4.3054    0.0000 H   0  0  0  0  0  0  0  0  0  0  0  0
    7.2216   -4.7401    0.0000 H   0  0  0  0  0  0  0  0  0  0  0  0
    6.1437   -3.0241    0.0000 H   0  0  0  0  0  0  0  0  0  0  0  0
    5.3322   -3.1966    0.0000 H   0  0  0  0  0  0  0  0  0  0  0  0
    5.0982   -5.4224    0.0000 H   0  0  0  0  0  0  0  0  0  0  0  0
    5.8562   -5.7598    0.0000 H   0  0  0  0  0  0  0  0  0  0  0  0
    7.8254   -4.0504    0.0000 H   0  0  0  0  0  0  0  0  0  0  0  0
    8.2239   -3.3601    0.0000 H   0  0  0  0  0  0  0  0  0  0  0  0
    4.5345   -3.6980    0.0000 H   0  0  0  0  0  0  0  0  0  0  0  0
    6.1367   -1.8601    0.0000 H   0  0  0  0  0  0  0  0  0  0  0  0
    6.5352   -2.5504    0.0000 H   0  0  0  0  0  0  0  0  0  0  0  0
    8.6914   -2.5504    0.0000 H   0  0  0  0  0  0  0  0  0  0  0  0
    9.0899   -1.8601    0.0000 H   0  0  0  0  0  0  0  0  0  0  0  0
    7.0764   -0.1578    0.0000 H   0  0  0  0  0  0  0  0  0  0  0  0
    3.2179   -5.5102    0.0000 H   0  0  0  0  0  0  0  0  0  0  0  0
    6.5352   -0.3852    0.0000 H   0  0  0  0  0  0  0  0  0  0  0  0
    6.1367   -1.0754    0.0000 H   0  0  0  0  0  0  0  0  0  0  0  0
    9.0899   -1.0754    0.0000 H   0  0  0  0  0  0  0  0  0  0  0  0
    8.6914   -0.3852    0.0000 H   0  0  0  0  0  0  0  0  0  0  0  0
    2.7587   -4.3082    0.0000 H   0  0  0  0  0  0  0  0  0  0  0  0
    2.0305   -4.6323    0.0000 H   0  0  0  0  0  0  0  0  0  0  0  0
    6.5883   -6.8012    0.0000 H   0  0  0  0  0  0  0  0  0  0  0  0
    8.4659   -4.7160    0.0000 H   0  0  0  0  0  0  0  0  0  0  0  0
    3.4226   -6.1744    0.0000 H   0  0  0  0  0  0  0  0  0  0  0  0
    4.2412   -6.4886    0.0000 H   0  0  0  0  0  0  0  0  0  0  0  0
    4.5554   -5.6700    0.0000 H   0  0  0  0  0  0  0  0  0  0  0  0
    9.0120    0.9284    0.0000 H   0  0  0  0  0  0  0  0  0  0  0  0
    1.4984   -5.3487    0.0000 H   0  0  0  0  0  0  0  0  0  0  0  0
    1.6356   -6.2147    0.0000 H   0  0  0  0  0  0  0  0  0  0  0  0
    2.5016   -6.0776    0.0000 H   0  0  0  0  0  0  0  0  0  0  0  0
    9.6698   -5.7999    0.0000 H   0  0  0  0  0  0  0  0  0  0  0  0
    9.3330   -7.3845    0.0000 H   0  0  0  0  0  0  0  0  0  0  0  0
    2.5167   -2.6152    0.0000 H   0  0  0  0  0  0  0  0  0  0  0  0
    5.3647    0.4293    0.0000 H   0  0  0  0  0  0  0  0  0  0  0  0
    6.1443    0.2636    0.0000 H   0  0  0  0  0  0  0  0  0  0  0  0
    9.1318    2.4341    0.0000 H   0  0  0  0  0  0  0  0  0  0  0  0
    9.2151    3.2268    0.0000 H   0  0  0  0  0  0  0  0  0  0  0  0
    5.5250    1.9409    0.0000 H   0  0  0  0  0  0  0  0  0  0  0  0
    4.6494    1.8950    0.0000 H   0  0  0  0  0  0  0  0  0  0  0  0
    4.6952    1.0194    0.0000 H   0  0  0  0  0  0  0  0  0  0  0  0
    6.9354    3.3966    0.0000 H   0  0  0  0  0  0  0  0  0  0  0  0
    9.4988    4.5378    0.0000 H   0  0  0  0  0  0  0  0  0  0  0  0
    6.2765    4.8765    0.0000 H   0  0  0  0  0  0  0  0  0  0  0  0
    8.8398    6.0178    0.0000 H   0  0  0  0  0  0  0  0  0  0  0  0
    7.9141    6.7769    0.0000 H   0  0  0  0  0  0  0  0  0  0  0  0
  1 32  1  0  0  0  0
  2 45  1  0  0  0  0
  3 45  1  0  0  0  0
  4 25  1  0  0  0  0
  4 78  1  0  0  0  0
  5 25  2  0  0  0  0
  6 44  1  0  0  0  0
  6 45  1  0  0  0  0
  7 13  1  0  0  0  0
  7 14  1  0  0  0  0
  7 16  1  0  0  0  0
  8 15  1  0  0  0  0
  8 18  1  0  0  0  0
  8 19  1  0  0  0  0
  9 10  1  0  0  0  0
  9 24  1  0  0  0  0
  9 36  1  0  0  0  0
 10 34  2  0  0  0  0
 11 12  1  0  0  0  0
 11 13  1  0  0  0  0
 11 15  1  6  0  0  0
 11 46  1  0  0  0  0
 12 14  1  0  0  0  0
 12 17  1  1  0  0  0
 12 47  1  0  0  0  0
 13 48  1  0  0  0  0
 13 49  1  0  0  0  0
 14 50  1  0  0  0  0
 14 51  1  0  0  0  0
 15 52  1  0  0  0  0
 15 53  1  0  0  0  0
 16 21  1  0  0  0  0
 16 25  1  6  0  0  0
 16 54  1  0  0  0  0
 17 27  2  0  0  0  0
 17 28  1  0  0  0  0
 18 22  1  0  0  0  0
 18 55  1  0  0  0  0
 18 56  1  0  0  0  0
 19 23  1  0  0  0  0
 19 57  1  0  0  0  0
 19 58  1  0  0  0  0
 20 22  1  0  0  0  0
 20 23  1  0  0  0  0
 20 24  1  0  0  0  0
 20 59  1  0  0  0  0
 21 26  1  0  0  0  0
 21 29  1  6  0  0  0
 21 60  1  0  0  0  0
 22 61  1  0  0  0  0
 22 62  1  0  0  0  0
 23 63  1  0  0  0  0
 23 64  1  0  0  0  0
 24 30  2  0  0  0  0
 26 31  1  0  0  0  0
 26 65  1  0  0  0  0
 26 66  1  0  0  0  0
 27 32  1  0  0  0  0
 27 67  1  0  0  0  0
 28 33  2  0  0  0  0
 28 68  1  0  0  0  0
 29 69  1  0  0  0  0
 29 70  1  0  0  0  0
 29 71  1  0  0  0  0
 30 34  1  0  0  0  0
 30 72  1  0  0  0  0
 31 73  1  0  0  0  0
 31 74  1  0  0  0  0
 31 75  1  0  0  0  0
 32 35  2  0  0  0  0
 33 35  1  0  0  0  0
 33 76  1  0  0  0  0
 34 37  1  0  0  0  0
 35 77  1  0  0  0  0
 36 38  1  0  0  0  0
 36 79  1  0  0  0  0
 36 80  1  0  0  0  0
 37 39  1  0  0  0  0
 37 81  1  0  0  0  0
 37 82  1  0  0  0  0
 38 83  1  0  0  0  0
 38 84  1  0  0  0  0
 38 85  1  0  0  0  0
 39 40  2  0  0  0  0
 39 41  1  0  0  0  0
 40 42  1  0  0  0  0
 40 86  1  0  0  0  0
 41 43  2  0  0  0  0
 41 87  1  0  0  0  0
 42 44  2  0  0  0  0
 42 88  1  0  0  0  0
 43 44  1  0  0  0  0
 43 89  1  0  0  0  0
 45 90  1  0  0  0  0
M  END
> <PUBCHEM_COMPOUND_CID>
516252
> <PUBCHEM_COMPOUND_CANONICALIZED>
1
> <PUBCHEM_CACTVS_COMPLEXITY>
917
> <PUBCHEM_CACTVS_HBOND_ACCEPTOR>
9
> <PUBCHEM_CACTVS_HBOND_DONOR>
1
> <PUBCHEM_CACTVS_ROTATABLE_BOND>
13
> <PUBCHEM_CACTVS_SUBSKEYS>
AAADcfB/sYAAAAAAAAAAAAAAAAAAAWLAAAA8YIAAAAAAAAAB0AAAHwAICAAADSzBnh4yjpMIBgCqAyTyTACSDAAhogAY2CG+bJgOJjLE8fuE9ChkyBHY6AeYwOAOoAAAAAAAAABAAAAAAAAAAAAAAAAAAA==
> <PUBCHEM_IUPAC_OPENEYE_NAME>
(2R,3R)-2-[(3S,4S)-3-[[4-[5-[[4-(difluoromethoxy)phenyl]methyl]-2-ethyl-pyrazol-3-yl]-1-piperidyl]methyl]-4-(3-fluorophenyl)pyrrolidin-1-yl]-3-methyl-pentanoic acid
> <PUBCHEM_IUPAC_CAS_NAME>
(2R,3R)-2-[(3S,4S)-3-[[4-[5-[[4-(difluoromethoxy)phenyl]methyl]-2-ethyl-3-pyrazolyl]-1-piperidinyl]methyl]-4-(3-fluorophenyl)-1-pyrrolidinyl]-3-methylpentanoic acid
> <PUBCHEM_IUPAC_NAME_MARKUP>
(2<I>R</I>,3<I>R</I>)-2-[(3<I>S</I>,4<I>S</I>)-3-[[4-[5-[[4-(difluoromethoxy)phenyl]methyl]-2-ethylpyrazol-3-yl]piperidin-1-yl]methyl]-4-(3-fluorophenyl)pyrrolidin-1-yl]-3-methylpentanoic acid
> <PUBCHEM_IUPAC_NAME>
(2R,3R)-2-[(3S,4S)-3-[[4-[5-[[4-(difluoromethoxy)phenyl]methyl]-2-ethylpyrazol-3-yl]piperidin-1-yl]methyl]-4-(3-fluorophenyl)pyrrolidin-1-yl]-3-methylpentanoic acid
> <PUBCHEM_IUPAC_SYSTEMATIC_NAME>
(2R,3R)-2-[(3S,4S)-3-[[4-[5-[[4-[bis(fluoranyl)methoxy]phenyl]methyl]-2-ethyl-pyrazol-3-yl]piperidin-1-yl]methyl]-4-(3-fluorophenyl)pyrrolidin-1-yl]-3-methyl-pentanoic acid
> <PUBCHEM_IUPAC_TRADITIONAL_NAME>
(2R,3R)-2-[(3S,4S)-3-[[4-[5-[4-(difluoromethoxy)benzyl]-2-ethyl-pyrazol-3-yl]piperidino]methyl]-4-(3-fluorophenyl)pyrrolidino]-3-methyl-valeric acid
> <PUBCHEM_IUPAC_INCHI>
InChI=1S/C35H45F3N4O3/c1-4-23(3)33(34(43)44)41-21-27(31(22-41)26-7-6-8-28(36)18-26)20-40-15-13-25(14-16-40)32-19-29(39-42(32)5-2)17-24-9-11-30(12-10-24)45-35(37)38/h6-12,18-19,23,25,27,31,33,35H,4-5,13-17,20-22H2,1-3H3,(H,43,44)/t23-,27+,31-,33-/m1/s1
> <PUBCHEM_IUPAC_INCHIKEY>
KXTISGVXSYBLGP-KLTPPHAJSA-N
> <PUBCHEM_XLOGP3_AA>
5
> <PUBCHEM_EXACT_MASS>
626.34437580
> <PUBCHEM_MOLECULAR_FORMULA>
C35H45F3N4O3
> <PUBCHEM_MOLECULAR_WEIGHT>
626.8
> <PUBCHEM_OPENEYE_CAN_SMILES>
CCC(C)C(C(=O)O)N1CC(C(C1)C2=CC(=CC=C2)F)CN3CCC(CC3)C4=CC(=NN4CC)CC5=CC=C(C=C5)OC(F)F
> <PUBCHEM_OPENEYE_ISO_SMILES>
CC[C@@H](C)[C@H](C(=O)O)N1C[C@@H]([C@H](C1)C2=CC(=CC=C2)F)CN3CCC(CC3)C4=CC(=NN4CC)CC5=CC=C(C=C5)OC(F)F
> <PUBCHEM_CACTVS_TPSA>
70.8
> <PUBCHEM_MONOISOTOPIC_WEIGHT>
626.34437580
> <PUBCHEM_TOTAL_CHARGE>
0
> <PUBCHEM_HEAVY_ATOM_COUNT>
45
> <PUBCHEM_ATOM_DEF_STEREO_COUNT>
4
> <PUBCHEM_ATOM_UDEF_STEREO_COUNT>
0
> <PUBCHEM_BOND_DEF_STEREO_COUNT>
0
> <PUBCHEM_BOND_UDEF_STEREO_COUNT>
0
> <PUBCHEM_ISOTOPIC_ATOM_COUNT>
0
> <PUBCHEM_COMPONENT_COUNT>
1
> <PUBCHEM_CACTVS_TAUTO_COUNT>
-1
> <PUBCHEM_COORDINATE_TYPE>
1
5
255
> <PUBCHEM_BONDANNOTATIONS>
10  34  8
11  15  6
12  17  5
16  25  6
17  27  8
17  28  8
21  29  6
24  30  8
27  32  8
28  33  8
30  34  8
32  35  8
33  35  8
39  40  8
39  41  8
40  42  8
41  43  8
42  44  8
43  44  8
9  10  8
9  24  8
$$$$
