516217
  -OEChem-10302200282D
 97102  0     1  0  0  0  0  0999 V2000
    7.7132   -8.3721    0.0000 F   0  0  0  0  0  0  0  0  0  0  0  0
    2.7688   -3.2969    0.0000 O   0  0  0  0  0  0  0  0  0  0  0  0
    4.3511   -2.5924    0.0000 O   0  0  0  0  0  0  0  0  0  0  0  0
    7.0742    6.4190    0.0000 O   0  0  0  0  0  0  0  0  0  0  0  0
    5.1646   -4.4195    0.0000 N   0  0  3  0  0  0  0  0  0  0  0  0
    7.6133   -2.5830    0.0000 N   0  0  0  0  0  0  0  0  0  0  0  0
    6.8043    1.0047    0.0000 N   0  0  0  0  0  0  0  0  0  0  0  0
    7.1133    1.9558    0.0000 N   0  0  0  0  0  0  0  0  0  0  0  0
    6.7473   -4.0830    0.0000 C   0  0  2  0  0  0  0  0  0  0  0  0
    6.6428   -5.0776    0.0000 C   0  0  2  0  0  0  0  0  0  0  0  0
    5.8338   -3.6763    0.0000 C   0  0  0  0  0  0  0  0  0  0  0  0
    5.6646   -5.2855    0.0000 C   0  0  0  0  0  0  0  0  0  0  0  0
    7.6133   -3.5830    0.0000 C   0  0  0  0  0  0  0  0  0  0  0  0
    4.1701   -4.3149    0.0000 C   0  0  2  0  0  0  0  0  0  0  0  0
    7.3859   -5.7467    0.0000 C   0  0  0  0  0  0  0  0  0  0  0  0
    6.7473   -2.0830    0.0000 C   0  0  0  0  0  0  0  0  0  0  0  0
    8.4793   -2.0830    0.0000 C   0  0  0  0  0  0  0  0  0  0  0  0
    7.6133   -0.5831    0.0000 C   0  0  0  0  0  0  0  0  0  0  0  0
    3.5823   -5.1240    0.0000 C   0  0  2  0  0  0  0  0  0  0  0  0
    6.7473   -1.0830    0.0000 C   0  0  0  0  0  0  0  0  0  0  0  0
    8.4793   -1.0830    0.0000 C   0  0  0  0  0  0  0  0  0  0  0  0
    3.7634   -3.4014    0.0000 C   0  0  0  0  0  0  0  0  0  0  0  0
    7.6133    0.4169    0.0000 C   0  0  0  0  0  0  0  0  0  0  0  0
    2.5878   -5.0194    0.0000 C   0  0  0  0  0  0  0  0  0  0  0  0
    7.1780   -6.7248    0.0000 C   0  0  0  0  0  0  0  0  0  0  0  0
    8.3370   -5.4377    0.0000 C   0  0  0  0  0  0  0  0  0  0  0  0
    3.9890   -6.0375    0.0000 C   0  0  0  0  0  0  0  0  0  0  0  0
    8.4223    1.0047    0.0000 C   0  0  0  0  0  0  0  0  0  0  0  0
    2.0000   -5.8284    0.0000 C   0  0  0  0  0  0  0  0  0  0  0  0
    7.9211   -7.3940    0.0000 C   0  0  0  0  0  0  0  0  0  0  0  0
    9.0801   -6.1068    0.0000 C   0  0  0  0  0  0  0  0  0  0  0  0
    8.1133    1.9558    0.0000 C   0  0  0  0  0  0  0  0  0  0  0  0
    8.8722   -7.0850    0.0000 C   0  0  0  0  0  0  0  0  0  0  0  0
    5.8532    0.6957    0.0000 C   0  0  0  0  0  0  0  0  0  0  0  0
    8.7011    2.7648    0.0000 C   0  0  0  0  0  0  0  0  0  0  0  0
    7.6619    7.2280    0.0000 C   0  0  0  0  0  0  0  0  0  0  0  0
    8.6496    7.3844    0.0000 C   0  0  0  0  0  0  0  0  0  0  0  0
    7.5055    8.2157    0.0000 C   0  0  0  0  0  0  0  0  0  0  0  0
    5.1101    1.3648    0.0000 C   0  0  0  0  0  0  0  0  0  0  0  0
    8.4932    8.3721    0.0000 C   0  0  0  0  0  0  0  0  0  0  0  0
    8.2944    3.6784    0.0000 C   0  0  0  0  0  0  0  0  0  0  0  0
    7.2998    3.7829    0.0000 C   0  0  0  0  0  0  0  0  0  0  0  0
    8.8822    4.4874    0.0000 C   0  0  0  0  0  0  0  0  0  0  0  0
    7.4809    5.5054    0.0000 C   0  0  0  0  0  0  0  0  0  0  0  0
    6.8931    4.6964    0.0000 C   0  0  0  0  0  0  0  0  0  0  0  0
    8.4754    5.4009    0.0000 C   0  0  0  0  0  0  0  0  0  0  0  0
    7.2673   -4.4207    0.0000 H   0  0  0  0  0  0  0  0  0  0  0  0
    7.2216   -4.8554    0.0000 H   0  0  0  0  0  0  0  0  0  0  0  0
    6.1437   -3.1394    0.0000 H   0  0  0  0  0  0  0  0  0  0  0  0
    5.3322   -3.3119    0.0000 H   0  0  0  0  0  0  0  0  0  0  0  0
    5.0982   -5.5377    0.0000 H   0  0  0  0  0  0  0  0  0  0  0  0
    5.8562   -5.8751    0.0000 H   0  0  0  0  0  0  0  0  0  0  0  0
    7.8254   -4.1657    0.0000 H   0  0  0  0  0  0  0  0  0  0  0  0
    8.2239   -3.4754    0.0000 H   0  0  0  0  0  0  0  0  0  0  0  0
    4.5345   -3.8133    0.0000 H   0  0  0  0  0  0  0  0  0  0  0  0
    6.1367   -1.9754    0.0000 H   0  0  0  0  0  0  0  0  0  0  0  0
    6.5352   -2.6657    0.0000 H   0  0  0  0  0  0  0  0  0  0  0  0
    8.6914   -2.6657    0.0000 H   0  0  0  0  0  0  0  0  0  0  0  0
    9.0899   -1.9754    0.0000 H   0  0  0  0  0  0  0  0  0  0  0  0
    7.0764   -0.2731    0.0000 H   0  0  0  0  0  0  0  0  0  0  0  0
    3.2179   -5.6255    0.0000 H   0  0  0  0  0  0  0  0  0  0  0  0
    6.5352   -0.5004    0.0000 H   0  0  0  0  0  0  0  0  0  0  0  0
    6.1367   -1.1907    0.0000 H   0  0  0  0  0  0  0  0  0  0  0  0
    9.0899   -1.1907    0.0000 H   0  0  0  0  0  0  0  0  0  0  0  0
    8.6914   -0.5004    0.0000 H   0  0  0  0  0  0  0  0  0  0  0  0
    2.7587   -4.4234    0.0000 H   0  0  0  0  0  0  0  0  0  0  0  0
    2.0305   -4.7476    0.0000 H   0  0  0  0  0  0  0  0  0  0  0  0
    6.5883   -6.9164    0.0000 H   0  0  0  0  0  0  0  0  0  0  0  0
    8.4659   -4.8312    0.0000 H   0  0  0  0  0  0  0  0  0  0  0  0
    3.4226   -6.2897    0.0000 H   0  0  0  0  0  0  0  0  0  0  0  0
    4.2412   -6.6039    0.0000 H   0  0  0  0  0  0  0  0  0  0  0  0
    4.5554   -5.7853    0.0000 H   0  0  0  0  0  0  0  0  0  0  0  0
    9.0120    0.8131    0.0000 H   0  0  0  0  0  0  0  0  0  0  0  0
    1.4984   -5.4640    0.0000 H   0  0  0  0  0  0  0  0  0  0  0  0
    1.6356   -6.3300    0.0000 H   0  0  0  0  0  0  0  0  0  0  0  0
    2.5016   -6.1929    0.0000 H   0  0  0  0  0  0  0  0  0  0  0  0
    9.6698   -5.9152    0.0000 H   0  0  0  0  0  0  0  0  0  0  0  0
    9.3330   -7.4998    0.0000 H   0  0  0  0  0  0  0  0  0  0  0  0
    2.5167   -2.7305    0.0000 H   0  0  0  0  0  0  0  0  0  0  0  0
    5.3647    0.3140    0.0000 H   0  0  0  0  0  0  0  0  0  0  0  0
    6.1443    0.1483    0.0000 H   0  0  0  0  0  0  0  0  0  0  0  0
    9.1318    2.3188    0.0000 H   0  0  0  0  0  0  0  0  0  0  0  0
    9.2151    3.1115    0.0000 H   0  0  0  0  0  0  0  0  0  0  0  0
    7.9859    6.6994    0.0000 H   0  0  0  0  0  0  0  0  0  0  0  0
    8.7466    6.7721    0.0000 H   0  0  0  0  0  0  0  0  0  0  0  0
    9.2620    7.4814    0.0000 H   0  0  0  0  0  0  0  0  0  0  0  0
    7.4085    8.8281    0.0000 H   0  0  0  0  0  0  0  0  0  0  0  0
    6.8931    8.1187    0.0000 H   0  0  0  0  0  0  0  0  0  0  0  0
    9.1056    8.4691    0.0000 H   0  0  0  0  0  0  0  0  0  0  0  0
    8.3962    8.9845    0.0000 H   0  0  0  0  0  0  0  0  0  0  0  0
    5.5250    1.8256    0.0000 H   0  0  0  0  0  0  0  0  0  0  0  0
    4.6494    1.7797    0.0000 H   0  0  0  0  0  0  0  0  0  0  0  0
    4.6952    0.9041    0.0000 H   0  0  0  0  0  0  0  0  0  0  0  0
    6.9354    3.2813    0.0000 H   0  0  0  0  0  0  0  0  0  0  0  0
    9.4988    4.4226    0.0000 H   0  0  0  0  0  0  0  0  0  0  0  0
    6.2765    4.7612    0.0000 H   0  0  0  0  0  0  0  0  0  0  0  0
    8.8398    5.9025    0.0000 H   0  0  0  0  0  0  0  0  0  0  0  0
  1 30  1  0  0  0  0
  2 22  1  0  0  0  0
  2 79  1  0  0  0  0
  3 22  2  0  0  0  0
  4 36  1  0  0  0  0
  4 44  1  0  0  0  0
  5 11  1  0  0  0  0
  5 12  1  0  0  0  0
  5 14  1  0  0  0  0
  6 13  1  0  0  0  0
  6 16  1  0  0  0  0
  6 17  1  0  0  0  0
  7  8  1  0  0  0  0
  7 23  1  0  0  0  0
  7 34  1  0  0  0  0
  8 32  2  0  0  0  0
  9 10  1  0  0  0  0
  9 11  1  0  0  0  0
  9 13  1  6  0  0  0
  9 47  1  0  0  0  0
 10 12  1  0  0  0  0
 10 15  1  1  0  0  0
 10 48  1  0  0  0  0
 11 49  1  0  0  0  0
 11 50  1  0  0  0  0
 12 51  1  0  0  0  0
 12 52  1  0  0  0  0
 13 53  1  0  0  0  0
 13 54  1  0  0  0  0
 14 19  1  0  0  0  0
 14 22  1  6  0  0  0
 14 55  1  0  0  0  0
 15 25  2  0  0  0  0
 15 26  1  0  0  0  0
 16 20  1  0  0  0  0
 16 56  1  0  0  0  0
 16 57  1  0  0  0  0
 17 21  1  0  0  0  0
 17 58  1  0  0  0  0
 17 59  1  0  0  0  0
 18 20  1  0  0  0  0
 18 21  1  0  0  0  0
 18 23  1  0  0  0  0
 18 60  1  0  0  0  0
 19 24  1  0  0  0  0
 19 27  1  1  0  0  0
 19 61  1  0  0  0  0
 20 62  1  0  0  0  0
 20 63  1  0  0  0  0
 21 64  1  0  0  0  0
 21 65  1  0  0  0  0
 23 28  2  0  0  0  0
 24 29  1  0  0  0  0
 24 66  1  0  0  0  0
 24 67  1  0  0  0  0
 25 30  1  0  0  0  0
 25 68  1  0  0  0  0
 26 31  2  0  0  0  0
 26 69  1  0  0  0  0
 27 70  1  0  0  0  0
 27 71  1  0  0  0  0
 27 72  1  0  0  0  0
 28 32  1  0  0  0  0
 28 73  1  0  0  0  0
 29 74  1  0  0  0  0
 29 75  1  0  0  0  0
 29 76  1  0  0  0  0
 30 33  2  0  0  0  0
 31 33  1  0  0  0  0
 31 77  1  0  0  0  0
 32 35  1  0  0  0  0
 33 78  1  0  0  0  0
 34 39  1  0  0  0  0
 34 80  1  0  0  0  0
 34 81  1  0  0  0  0
 35 41  1  0  0  0  0
 35 82  1  0  0  0  0
 35 83  1  0  0  0  0
 36 37  1  0  0  0  0
 36 38  1  0  0  0  0
 36 84  1  0  0  0  0
 37 40  1  0  0  0  0
 37 85  1  0  0  0  0
 37 86  1  0  0  0  0
 38 40  1  0  0  0  0
 38 87  1  0  0  0  0
 38 88  1  0  0  0  0
 39 91  1  0  0  0  0
 39 92  1  0  0  0  0
 39 93  1  0  0  0  0
 40 89  1  0  0  0  0
 40 90  1  0  0  0  0
 41 42  2  0  0  0  0
 41 43  1  0  0  0  0
 42 45  1  0  0  0  0
 42 94  1  0  0  0  0
 43 46  2  0  0  0  0
 43 95  1  0  0  0  0
 44 45  2  0  0  0  0
 44 46  1  0  0  0  0
 45 96  1  0  0  0  0
 46 97  1  0  0  0  0
M  END
> <PUBCHEM_COMPOUND_CID>
516217
> <PUBCHEM_COMPOUND_CANONICALIZED>
1
> <PUBCHEM_CACTVS_COMPLEXITY>
952
> <PUBCHEM_CACTVS_HBOND_ACCEPTOR>
7
> <PUBCHEM_CACTVS_HBOND_DONOR>
1
> <PUBCHEM_CACTVS_ROTATABLE_BOND>
13
> <PUBCHEM_CACTVS_SUBSKEYS>
AAADcfB/sQAAAAAAAAAAAAAAAABgAWLAAAA8YIAAAAAAAAAB0AAAHwAICAAADTzhng4yjpMIBgCqAyTyTACSDAAhogAY2CG+bJgOJjLE8fuG/CjkyBHY6AeYwOAOoAAAAAAAAABAAAAAAAAAAAAAAAAAAA==
> <PUBCHEM_IUPAC_OPENEYE_NAME>
(2R,3S)-2-[(3S,4S)-3-[[4-[5-[[4-(cyclobutoxy)phenyl]methyl]-2-ethyl-pyrazol-3-yl]-1-piperidyl]methyl]-4-(3-fluorophenyl)pyrrolidin-1-yl]-3-methyl-pentanoic acid
> <PUBCHEM_IUPAC_CAS_NAME>
(2R,3S)-2-[(3S,4S)-3-[[4-[5-[(4-cyclobutyloxyphenyl)methyl]-2-ethyl-3-pyrazolyl]-1-piperidinyl]methyl]-4-(3-fluorophenyl)-1-pyrrolidinyl]-3-methylpentanoic acid
> <PUBCHEM_IUPAC_NAME_MARKUP>
(2<I>R</I>,3<I>S</I>)-2-[(3<I>S</I>,4<I>S</I>)-3-[[4-[5-[(4-cyclobutyloxyphenyl)methyl]-2-ethylpyrazol-3-yl]piperidin-1-yl]methyl]-4-(3-fluorophenyl)pyrrolidin-1-yl]-3-methylpentanoic acid
> <PUBCHEM_IUPAC_NAME>
(2R,3S)-2-[(3S,4S)-3-[[4-[5-[(4-cyclobutyloxyphenyl)methyl]-2-ethylpyrazol-3-yl]piperidin-1-yl]methyl]-4-(3-fluorophenyl)pyrrolidin-1-yl]-3-methylpentanoic acid
> <PUBCHEM_IUPAC_SYSTEMATIC_NAME>
(2R,3S)-2-[(3S,4S)-3-[[4-[5-[(4-cyclobutyloxyphenyl)methyl]-2-ethyl-pyrazol-3-yl]piperidin-1-yl]methyl]-4-(3-fluorophenyl)pyrrolidin-1-yl]-3-methyl-pentanoic acid
> <PUBCHEM_IUPAC_TRADITIONAL_NAME>
(2R,3S)-2-[(3S,4S)-3-[[4-[5-[4-(cyclobutoxy)benzyl]-2-ethyl-pyrazol-3-yl]piperidino]methyl]-4-(3-fluorophenyl)pyrrolidino]-3-methyl-valeric acid
> <PUBCHEM_IUPAC_INCHI>
InChI=1S/C38H51FN4O3/c1-4-26(3)37(38(44)45)42-24-30(35(25-42)29-8-6-9-31(39)21-29)23-41-18-16-28(17-19-41)36-22-32(40-43(36)5-2)20-27-12-14-34(15-13-27)46-33-10-7-11-33/h6,8-9,12-15,21-22,26,28,30,33,35,37H,4-5,7,10-11,16-20,23-25H2,1-3H3,(H,44,45)/t26-,30-,35+,37+/m0/s1
> <PUBCHEM_IUPAC_INCHIKEY>
ICFBKVPIXDVRSY-VZQWUQQYSA-N
> <PUBCHEM_XLOGP3_AA>
4.9
> <PUBCHEM_EXACT_MASS>
630.39451966
> <PUBCHEM_MOLECULAR_FORMULA>
C38H51FN4O3
> <PUBCHEM_MOLECULAR_WEIGHT>
630.8
> <PUBCHEM_OPENEYE_CAN_SMILES>
CCC(C)C(C(=O)O)N1CC(C(C1)C2=CC(=CC=C2)F)CN3CCC(CC3)C4=CC(=NN4CC)CC5=CC=C(C=C5)OC6CCC6
> <PUBCHEM_OPENEYE_ISO_SMILES>
CC[C@H](C)[C@H](C(=O)O)N1C[C@@H]([C@H](C1)C2=CC(=CC=C2)F)CN3CCC(CC3)C4=CC(=NN4CC)CC5=CC=C(C=C5)OC6CCC6
> <PUBCHEM_CACTVS_TPSA>
70.8
> <PUBCHEM_MONOISOTOPIC_WEIGHT>
630.39451966
> <PUBCHEM_TOTAL_CHARGE>
0
> <PUBCHEM_HEAVY_ATOM_COUNT>
46
> <PUBCHEM_ATOM_DEF_STEREO_COUNT>
4
> <PUBCHEM_ATOM_UDEF_STEREO_COUNT>
0
> <PUBCHEM_BOND_DEF_STEREO_COUNT>
0
> <PUBCHEM_BOND_UDEF_STEREO_COUNT>
0
> <PUBCHEM_ISOTOPIC_ATOM_COUNT>
0
> <PUBCHEM_COMPONENT_COUNT>
1
> <PUBCHEM_CACTVS_TAUTO_COUNT>
-1
> <PUBCHEM_COORDINATE_TYPE>
1
5
255
> <PUBCHEM_BONDANNOTATIONS>
10  15  5
14  22  6
15  25  8
15  26  8
19  27  5
23  28  8
25  30  8
26  31  8
28  32  8
30  33  8
31  33  8
41  42  8
41  43  8
42  45  8
43  46  8
44  45  8
44  46  8
7  23  8
7  8  8
8  32  8
9  13  6
$$$$
