516219
  -OEChem-10302200282D
 99103  0     1  0  0  0  0  0999 V2000
    7.7132   -8.2046    0.0000 F   0  0  0  0  0  0  0  0  0  0  0  0
    2.7688   -3.1293    0.0000 O   0  0  0  0  0  0  0  0  0  0  0  0
    4.3511   -2.4248    0.0000 O   0  0  0  0  0  0  0  0  0  0  0  0
    7.0742    6.5865    0.0000 O   0  0  0  0  0  0  0  0  0  0  0  0
    5.1646   -4.2519    0.0000 N   0  0  3  0  0  0  0  0  0  0  0  0
    7.6133   -2.4155    0.0000 N   0  0  0  0  0  0  0  0  0  0  0  0
    6.8043    1.1723    0.0000 N   0  0  0  0  0  0  0  0  0  0  0  0
    7.1133    2.1233    0.0000 N   0  0  0  0  0  0  0  0  0  0  0  0
    6.7473   -3.9155    0.0000 C   0  0  2  0  0  0  0  0  0  0  0  0
    6.6428   -4.9100    0.0000 C   0  0  2  0  0  0  0  0  0  0  0  0
    5.8338   -3.5088    0.0000 C   0  0  0  0  0  0  0  0  0  0  0  0
    5.6646   -5.1179    0.0000 C   0  0  0  0  0  0  0  0  0  0  0  0
    7.6133   -3.4155    0.0000 C   0  0  0  0  0  0  0  0  0  0  0  0
    4.1701   -4.1474    0.0000 C   0  0  2  0  0  0  0  0  0  0  0  0
    7.3859   -5.5792    0.0000 C   0  0  0  0  0  0  0  0  0  0  0  0
    6.7473   -1.9155    0.0000 C   0  0  0  0  0  0  0  0  0  0  0  0
    8.4793   -1.9155    0.0000 C   0  0  0  0  0  0  0  0  0  0  0  0
    7.6133   -0.4155    0.0000 C   0  0  0  0  0  0  0  0  0  0  0  0
    3.5823   -4.9564    0.0000 C   0  0  2  0  0  0  0  0  0  0  0  0
    6.7473   -0.9155    0.0000 C   0  0  0  0  0  0  0  0  0  0  0  0
    8.4793   -0.9155    0.0000 C   0  0  0  0  0  0  0  0  0  0  0  0
    3.7634   -3.2338    0.0000 C   0  0  0  0  0  0  0  0  0  0  0  0
    2.5878   -4.8519    0.0000 C   0  0  0  0  0  0  0  0  0  0  0  0
    7.6133    0.5845    0.0000 C   0  0  0  0  0  0  0  0  0  0  0  0
    7.1780   -6.5573    0.0000 C   0  0  0  0  0  0  0  0  0  0  0  0
    8.3370   -5.2701    0.0000 C   0  0  0  0  0  0  0  0  0  0  0  0
    3.9890   -5.8699    0.0000 C   0  0  0  0  0  0  0  0  0  0  0  0
    8.4223    1.1723    0.0000 C   0  0  0  0  0  0  0  0  0  0  0  0
    2.0000   -5.6609    0.0000 C   0  0  0  0  0  0  0  0  0  0  0  0
    7.9211   -7.2264    0.0000 C   0  0  0  0  0  0  0  0  0  0  0  0
    9.0801   -5.9393    0.0000 C   0  0  0  0  0  0  0  0  0  0  0  0
    8.8722   -6.9174    0.0000 C   0  0  0  0  0  0  0  0  0  0  0  0
    8.1133    2.1233    0.0000 C   0  0  0  0  0  0  0  0  0  0  0  0
    5.8532    0.8633    0.0000 C   0  0  0  0  0  0  0  0  0  0  0  0
    8.7011    2.9324    0.0000 C   0  0  0  0  0  0  0  0  0  0  0  0
    5.1101    1.5324    0.0000 C   0  0  0  0  0  0  0  0  0  0  0  0
    8.2944    3.8459    0.0000 C   0  0  0  0  0  0  0  0  0  0  0  0
    7.2998    3.9504    0.0000 C   0  0  0  0  0  0  0  0  0  0  0  0
    8.8822    4.6549    0.0000 C   0  0  0  0  0  0  0  0  0  0  0  0
    6.8931    4.8640    0.0000 C   0  0  0  0  0  0  0  0  0  0  0  0
    8.4754    5.5685    0.0000 C   0  0  0  0  0  0  0  0  0  0  0  0
    7.4809    5.6730    0.0000 C   0  0  0  0  0  0  0  0  0  0  0  0
    7.6619    7.3956    0.0000 C   0  0  0  0  0  0  0  0  0  0  0  0
    8.2497    8.2046    0.0000 C   0  0  0  0  0  0  0  0  0  0  0  0
    6.8529    7.9833    0.0000 C   0  0  0  0  0  0  0  0  0  0  0  0
    8.4710    6.8078    0.0000 C   0  0  0  0  0  0  0  0  0  0  0  0
    7.2673   -4.2532    0.0000 H   0  0  0  0  0  0  0  0  0  0  0  0
    7.2216   -4.6878    0.0000 H   0  0  0  0  0  0  0  0  0  0  0  0
    6.1437   -2.9718    0.0000 H   0  0  0  0  0  0  0  0  0  0  0  0
    5.3322   -3.1443    0.0000 H   0  0  0  0  0  0  0  0  0  0  0  0
    5.0982   -5.3701    0.0000 H   0  0  0  0  0  0  0  0  0  0  0  0
    5.8562   -5.7076    0.0000 H   0  0  0  0  0  0  0  0  0  0  0  0
    7.8254   -3.9981    0.0000 H   0  0  0  0  0  0  0  0  0  0  0  0
    8.2239   -3.3078    0.0000 H   0  0  0  0  0  0  0  0  0  0  0  0
    4.5345   -3.6458    0.0000 H   0  0  0  0  0  0  0  0  0  0  0  0
    6.1367   -1.8078    0.0000 H   0  0  0  0  0  0  0  0  0  0  0  0
    6.5352   -2.4981    0.0000 H   0  0  0  0  0  0  0  0  0  0  0  0
    8.6914   -2.4981    0.0000 H   0  0  0  0  0  0  0  0  0  0  0  0
    9.0899   -1.8078    0.0000 H   0  0  0  0  0  0  0  0  0  0  0  0
    7.0764   -0.1055    0.0000 H   0  0  0  0  0  0  0  0  0  0  0  0
    3.2179   -5.4580    0.0000 H   0  0  0  0  0  0  0  0  0  0  0  0
    6.5352   -0.3329    0.0000 H   0  0  0  0  0  0  0  0  0  0  0  0
    6.1367   -1.0232    0.0000 H   0  0  0  0  0  0  0  0  0  0  0  0
    9.0899   -1.0232    0.0000 H   0  0  0  0  0  0  0  0  0  0  0  0
    8.6914   -0.3329    0.0000 H   0  0  0  0  0  0  0  0  0  0  0  0
    2.7587   -4.2559    0.0000 H   0  0  0  0  0  0  0  0  0  0  0  0
    2.0305   -4.5801    0.0000 H   0  0  0  0  0  0  0  0  0  0  0  0
    6.5883   -6.7489    0.0000 H   0  0  0  0  0  0  0  0  0  0  0  0
    8.4659   -4.6637    0.0000 H   0  0  0  0  0  0  0  0  0  0  0  0
    3.4226   -6.1221    0.0000 H   0  0  0  0  0  0  0  0  0  0  0  0
    4.2412   -6.4363    0.0000 H   0  0  0  0  0  0  0  0  0  0  0  0
    4.5554   -5.6178    0.0000 H   0  0  0  0  0  0  0  0  0  0  0  0
    9.0120    0.9807    0.0000 H   0  0  0  0  0  0  0  0  0  0  0  0
    1.4984   -5.2965    0.0000 H   0  0  0  0  0  0  0  0  0  0  0  0
    1.6356   -6.1625    0.0000 H   0  0  0  0  0  0  0  0  0  0  0  0
    2.5016   -6.0253    0.0000 H   0  0  0  0  0  0  0  0  0  0  0  0
    9.6698   -5.7477    0.0000 H   0  0  0  0  0  0  0  0  0  0  0  0
    9.3330   -7.3323    0.0000 H   0  0  0  0  0  0  0  0  0  0  0  0
    2.5167   -2.5629    0.0000 H   0  0  0  0  0  0  0  0  0  0  0  0
    5.3647    0.4816    0.0000 H   0  0  0  0  0  0  0  0  0  0  0  0
    6.1443    0.3158    0.0000 H   0  0  0  0  0  0  0  0  0  0  0  0
    9.1318    2.4864    0.0000 H   0  0  0  0  0  0  0  0  0  0  0  0
    9.2151    3.2791    0.0000 H   0  0  0  0  0  0  0  0  0  0  0  0
    5.5250    1.9932    0.0000 H   0  0  0  0  0  0  0  0  0  0  0  0
    4.6494    1.9473    0.0000 H   0  0  0  0  0  0  0  0  0  0  0  0
    4.6952    1.0716    0.0000 H   0  0  0  0  0  0  0  0  0  0  0  0
    6.9354    3.4488    0.0000 H   0  0  0  0  0  0  0  0  0  0  0  0
    9.4988    4.5901    0.0000 H   0  0  0  0  0  0  0  0  0  0  0  0
    6.2765    4.9288    0.0000 H   0  0  0  0  0  0  0  0  0  0  0  0
    8.8398    6.0701    0.0000 H   0  0  0  0  0  0  0  0  0  0  0  0
    8.7513    7.8402    0.0000 H   0  0  0  0  0  0  0  0  0  0  0  0
    8.6142    8.7062    0.0000 H   0  0  0  0  0  0  0  0  0  0  0  0
    7.7481    8.5690    0.0000 H   0  0  0  0  0  0  0  0  0  0  0  0
    7.2174    8.4849    0.0000 H   0  0  0  0  0  0  0  0  0  0  0  0
    6.3513    8.3478    0.0000 H   0  0  0  0  0  0  0  0  0  0  0  0
    6.4885    7.4818    0.0000 H   0  0  0  0  0  0  0  0  0  0  0  0
    8.1065    6.3062    0.0000 H   0  0  0  0  0  0  0  0  0  0  0  0
    8.9726    6.4434    0.0000 H   0  0  0  0  0  0  0  0  0  0  0  0
    8.8354    7.3094    0.0000 H   0  0  0  0  0  0  0  0  0  0  0  0
  1 30  1  0  0  0  0
  2 22  1  0  0  0  0
  2 79  1  0  0  0  0
  3 22  2  0  0  0  0
  4 42  1  0  0  0  0
  4 43  1  0  0  0  0
  5 11  1  0  0  0  0
  5 12  1  0  0  0  0
  5 14  1  0  0  0  0
  6 13  1  0  0  0  0
  6 16  1  0  0  0  0
  6 17  1  0  0  0  0
  7  8  1  0  0  0  0
  7 24  1  0  0  0  0
  7 34  1  0  0  0  0
  8 33  2  0  0  0  0
  9 10  1  0  0  0  0
  9 11  1  0  0  0  0
  9 13  1  6  0  0  0
  9 47  1  0  0  0  0
 10 12  1  0  0  0  0
 10 15  1  1  0  0  0
 10 48  1  0  0  0  0
 11 49  1  0  0  0  0
 11 50  1  0  0  0  0
 12 51  1  0  0  0  0
 12 52  1  0  0  0  0
 13 53  1  0  0  0  0
 13 54  1  0  0  0  0
 14 19  1  0  0  0  0
 14 22  1  6  0  0  0
 14 55  1  0  0  0  0
 15 25  2  0  0  0  0
 15 26  1  0  0  0  0
 16 20  1  0  0  0  0
 16 56  1  0  0  0  0
 16 57  1  0  0  0  0
 17 21  1  0  0  0  0
 17 58  1  0  0  0  0
 17 59  1  0  0  0  0
 18 20  1  0  0  0  0
 18 21  1  0  0  0  0
 18 24  1  0  0  0  0
 18 60  1  0  0  0  0
 19 23  1  0  0  0  0
 19 27  1  1  0  0  0
 19 61  1  0  0  0  0
 20 62  1  0  0  0  0
 20 63  1  0  0  0  0
 21 64  1  0  0  0  0
 21 65  1  0  0  0  0
 23 29  1  0  0  0  0
 23 66  1  0  0  0  0
 23 67  1  0  0  0  0
 24 28  2  0  0  0  0
 25 30  1  0  0  0  0
 25 68  1  0  0  0  0
 26 31  2  0  0  0  0
 26 69  1  0  0  0  0
 27 70  1  0  0  0  0
 27 71  1  0  0  0  0
 27 72  1  0  0  0  0
 28 33  1  0  0  0  0
 28 73  1  0  0  0  0
 29 74  1  0  0  0  0
 29 75  1  0  0  0  0
 29 76  1  0  0  0  0
 30 32  2  0  0  0  0
 31 32  1  0  0  0  0
 31 77  1  0  0  0  0
 32 78  1  0  0  0  0
 33 35  1  0  0  0  0
 34 36  1  0  0  0  0
 34 80  1  0  0  0  0
 34 81  1  0  0  0  0
 35 37  1  0  0  0  0
 35 82  1  0  0  0  0
 35 83  1  0  0  0  0
 36 84  1  0  0  0  0
 36 85  1  0  0  0  0
 36 86  1  0  0  0  0
 37 38  2  0  0  0  0
 37 39  1  0  0  0  0
 38 40  1  0  0  0  0
 38 87  1  0  0  0  0
 39 41  2  0  0  0  0
 39 88  1  0  0  0  0
 40 42  2  0  0  0  0
 40 89  1  0  0  0  0
 41 42  1  0  0  0  0
 41 90  1  0  0  0  0
 43 44  1  0  0  0  0
 43 45  1  0  0  0  0
 43 46  1  0  0  0  0
 44 91  1  0  0  0  0
 44 92  1  0  0  0  0
 44 93  1  0  0  0  0
 45 94  1  0  0  0  0
 45 95  1  0  0  0  0
 45 96  1  0  0  0  0
 46 97  1  0  0  0  0
 46 98  1  0  0  0  0
 46 99  1  0  0  0  0
M  END
> <PUBCHEM_COMPOUND_CID>
516219
> <PUBCHEM_COMPOUND_CANONICALIZED>
1
> <PUBCHEM_CACTVS_COMPLEXITY>
947
> <PUBCHEM_CACTVS_HBOND_ACCEPTOR>
7
> <PUBCHEM_CACTVS_HBOND_DONOR>
1
> <PUBCHEM_CACTVS_ROTATABLE_BOND>
13
> <PUBCHEM_CACTVS_SUBSKEYS>
AAADcfB/sQAAAAAAAAAAAAAAAAAAAWLAAAA8YIAAAAAAAAAB0AAAHwAICAAADWzBngwyjpMIBgCqAyTyTACSDAAhogAY2CG+bJgOJjLE8fuG/CjkyBHY6AeYwOAOoAAAAAAAAABAAAAAAAAAAAAAAAAAAA==
> <PUBCHEM_IUPAC_OPENEYE_NAME>
(2R,3S)-2-[(3S,4S)-3-[[4-[5-[(4-tert-butoxyphenyl)methyl]-2-ethyl-pyrazol-3-yl]-1-piperidyl]methyl]-4-(3-fluorophenyl)pyrrolidin-1-yl]-3-methyl-pentanoic acid
> <PUBCHEM_IUPAC_CAS_NAME>
(2R,3S)-2-[(3S,4S)-3-[[4-[2-ethyl-5-[[4-[(2-methylpropan-2-yl)oxy]phenyl]methyl]-3-pyrazolyl]-1-piperidinyl]methyl]-4-(3-fluorophenyl)-1-pyrrolidinyl]-3-methylpentanoic acid
> <PUBCHEM_IUPAC_NAME_MARKUP>
(2<I>R</I>,3<I>S</I>)-2-[(3<I>S</I>,4<I>S</I>)-3-[[4-[2-ethyl-5-[[4-[(2-methylpropan-2-yl)oxy]phenyl]methyl]pyrazol-3-yl]piperidin-1-yl]methyl]-4-(3-fluorophenyl)pyrrolidin-1-yl]-3-methylpentanoic acid
> <PUBCHEM_IUPAC_NAME>
(2R,3S)-2-[(3S,4S)-3-[[4-[2-ethyl-5-[[4-[(2-methylpropan-2-yl)oxy]phenyl]methyl]pyrazol-3-yl]piperidin-1-yl]methyl]-4-(3-fluorophenyl)pyrrolidin-1-yl]-3-methylpentanoic acid
> <PUBCHEM_IUPAC_SYSTEMATIC_NAME>
(2R,3S)-2-[(3S,4S)-3-[[4-[2-ethyl-5-[[4-[(2-methylpropan-2-yl)oxy]phenyl]methyl]pyrazol-3-yl]piperidin-1-yl]methyl]-4-(3-fluorophenyl)pyrrolidin-1-yl]-3-methyl-pentanoic acid
> <PUBCHEM_IUPAC_TRADITIONAL_NAME>
(2R,3S)-2-[(3S,4S)-3-[[4-[5-(4-tert-butoxybenzyl)-2-ethyl-pyrazol-3-yl]piperidino]methyl]-4-(3-fluorophenyl)pyrrolidino]-3-methyl-valeric acid
> <PUBCHEM_IUPAC_INCHI>
InChI=1S/C38H53FN4O3/c1-7-26(3)36(37(44)45)42-24-30(34(25-42)29-10-9-11-31(39)21-29)23-41-18-16-28(17-19-41)35-22-32(40-43(35)8-2)20-27-12-14-33(15-13-27)46-38(4,5)6/h9-15,21-22,26,28,30,34,36H,7-8,16-20,23-25H2,1-6H3,(H,44,45)/t26-,30-,34+,36+/m0/s1
> <PUBCHEM_IUPAC_INCHIKEY>
XNRDIULNKXSIMU-NGZLLANBSA-N
> <PUBCHEM_XLOGP3_AA>
5
> <PUBCHEM_EXACT_MASS>
632.41016973
> <PUBCHEM_MOLECULAR_FORMULA>
C38H53FN4O3
> <PUBCHEM_MOLECULAR_WEIGHT>
632.8
> <PUBCHEM_OPENEYE_CAN_SMILES>
CCC(C)C(C(=O)O)N1CC(C(C1)C2=CC(=CC=C2)F)CN3CCC(CC3)C4=CC(=NN4CC)CC5=CC=C(C=C5)OC(C)(C)C
> <PUBCHEM_OPENEYE_ISO_SMILES>
CC[C@H](C)[C@H](C(=O)O)N1C[C@@H]([C@H](C1)C2=CC(=CC=C2)F)CN3CCC(CC3)C4=CC(=NN4CC)CC5=CC=C(C=C5)OC(C)(C)C
> <PUBCHEM_CACTVS_TPSA>
70.8
> <PUBCHEM_MONOISOTOPIC_WEIGHT>
632.41016973
> <PUBCHEM_TOTAL_CHARGE>
0
> <PUBCHEM_HEAVY_ATOM_COUNT>
46
> <PUBCHEM_ATOM_DEF_STEREO_COUNT>
4
> <PUBCHEM_ATOM_UDEF_STEREO_COUNT>
0
> <PUBCHEM_BOND_DEF_STEREO_COUNT>
0
> <PUBCHEM_BOND_UDEF_STEREO_COUNT>
0
> <PUBCHEM_ISOTOPIC_ATOM_COUNT>
0
> <PUBCHEM_COMPONENT_COUNT>
1
> <PUBCHEM_CACTVS_TAUTO_COUNT>
-1
> <PUBCHEM_COORDINATE_TYPE>
1
5
255
> <PUBCHEM_BONDANNOTATIONS>
10  15  5
14  22  6
15  25  8
15  26  8
19  27  5
24  28  8
25  30  8
26  31  8
28  33  8
30  32  8
31  32  8
37  38  8
37  39  8
38  40  8
39  41  8
40  42  8
41  42  8
7  24  8
7  8  8
8  33  8
9  13  6
$$$$
