516218
  -OEChem-10302200282D
 96100  0     1  0  0  0  0  0999 V2000
    7.7132   -8.2568    0.0000 F   0  0  0  0  0  0  0  0  0  0  0  0
    2.7688   -3.1816    0.0000 O   0  0  0  0  0  0  0  0  0  0  0  0
    4.3511   -2.4771    0.0000 O   0  0  0  0  0  0  0  0  0  0  0  0
    7.0742    6.5343    0.0000 O   0  0  0  0  0  0  0  0  0  0  0  0
    5.1646   -4.3042    0.0000 N   0  0  3  0  0  0  0  0  0  0  0  0
    7.6133   -2.4678    0.0000 N   0  0  0  0  0  0  0  0  0  0  0  0
    6.8043    1.1200    0.0000 N   0  0  0  0  0  0  0  0  0  0  0  0
    7.1133    2.0711    0.0000 N   0  0  0  0  0  0  0  0  0  0  0  0
    6.7473   -3.9678    0.0000 C   0  0  2  0  0  0  0  0  0  0  0  0
    6.6428   -4.9623    0.0000 C   0  0  2  0  0  0  0  0  0  0  0  0
    5.8338   -3.5610    0.0000 C   0  0  0  0  0  0  0  0  0  0  0  0
    5.6646   -5.1702    0.0000 C   0  0  0  0  0  0  0  0  0  0  0  0
    7.6133   -3.4678    0.0000 C   0  0  0  0  0  0  0  0  0  0  0  0
    4.1701   -4.1996    0.0000 C   0  0  2  0  0  0  0  0  0  0  0  0
    7.3859   -5.6314    0.0000 C   0  0  0  0  0  0  0  0  0  0  0  0
    6.7473   -1.9678    0.0000 C   0  0  0  0  0  0  0  0  0  0  0  0
    8.4793   -1.9678    0.0000 C   0  0  0  0  0  0  0  0  0  0  0  0
    7.6133   -0.4678    0.0000 C   0  0  0  0  0  0  0  0  0  0  0  0
    3.5823   -5.0087    0.0000 C   0  0  2  0  0  0  0  0  0  0  0  0
    6.7473   -0.9678    0.0000 C   0  0  0  0  0  0  0  0  0  0  0  0
    8.4793   -0.9678    0.0000 C   0  0  0  0  0  0  0  0  0  0  0  0
    3.7634   -3.2861    0.0000 C   0  0  0  0  0  0  0  0  0  0  0  0
    2.5878   -4.9041    0.0000 C   0  0  0  0  0  0  0  0  0  0  0  0
    7.6133    0.5322    0.0000 C   0  0  0  0  0  0  0  0  0  0  0  0
    7.1780   -6.6096    0.0000 C   0  0  0  0  0  0  0  0  0  0  0  0
    8.3370   -5.3224    0.0000 C   0  0  0  0  0  0  0  0  0  0  0  0
    3.9890   -5.9222    0.0000 C   0  0  0  0  0  0  0  0  0  0  0  0
    8.4223    1.1200    0.0000 C   0  0  0  0  0  0  0  0  0  0  0  0
    2.0000   -5.7132    0.0000 C   0  0  0  0  0  0  0  0  0  0  0  0
    7.9211   -7.2787    0.0000 C   0  0  0  0  0  0  0  0  0  0  0  0
    9.0801   -5.9915    0.0000 C   0  0  0  0  0  0  0  0  0  0  0  0
    8.8722   -6.9697    0.0000 C   0  0  0  0  0  0  0  0  0  0  0  0
    8.1133    2.0711    0.0000 C   0  0  0  0  0  0  0  0  0  0  0  0
    5.8532    0.8110    0.0000 C   0  0  0  0  0  0  0  0  0  0  0  0
    8.7011    2.8801    0.0000 C   0  0  0  0  0  0  0  0  0  0  0  0
    5.1101    1.4801    0.0000 C   0  0  0  0  0  0  0  0  0  0  0  0
    8.2944    3.7936    0.0000 C   0  0  0  0  0  0  0  0  0  0  0  0
    7.2998    3.8982    0.0000 C   0  0  0  0  0  0  0  0  0  0  0  0
    8.8822    4.6027    0.0000 C   0  0  0  0  0  0  0  0  0  0  0  0
    6.8931    4.8117    0.0000 C   0  0  0  0  0  0  0  0  0  0  0  0
    8.4754    5.5162    0.0000 C   0  0  0  0  0  0  0  0  0  0  0  0
    7.4809    5.6207    0.0000 C   0  0  0  0  0  0  0  0  0  0  0  0
    7.6619    7.3433    0.0000 C   0  0  0  0  0  0  0  0  0  0  0  0
    7.2552    8.2568    0.0000 C   0  0  0  0  0  0  0  0  0  0  0  0
    8.6565    7.2388    0.0000 C   0  0  0  0  0  0  0  0  0  0  0  0
    7.2673   -4.3054    0.0000 H   0  0  0  0  0  0  0  0  0  0  0  0
    7.2216   -4.7401    0.0000 H   0  0  0  0  0  0  0  0  0  0  0  0
    6.1437   -3.0241    0.0000 H   0  0  0  0  0  0  0  0  0  0  0  0
    5.3322   -3.1966    0.0000 H   0  0  0  0  0  0  0  0  0  0  0  0
    5.0982   -5.4224    0.0000 H   0  0  0  0  0  0  0  0  0  0  0  0
    5.8562   -5.7598    0.0000 H   0  0  0  0  0  0  0  0  0  0  0  0
    7.8254   -4.0504    0.0000 H   0  0  0  0  0  0  0  0  0  0  0  0
    8.2239   -3.3601    0.0000 H   0  0  0  0  0  0  0  0  0  0  0  0
    4.5345   -3.6980    0.0000 H   0  0  0  0  0  0  0  0  0  0  0  0
    6.1367   -1.8601    0.0000 H   0  0  0  0  0  0  0  0  0  0  0  0
    6.5352   -2.5504    0.0000 H   0  0  0  0  0  0  0  0  0  0  0  0
    8.6914   -2.5504    0.0000 H   0  0  0  0  0  0  0  0  0  0  0  0
    9.0899   -1.8601    0.0000 H   0  0  0  0  0  0  0  0  0  0  0  0
    7.0764   -0.1578    0.0000 H   0  0  0  0  0  0  0  0  0  0  0  0
    3.2179   -5.5102    0.0000 H   0  0  0  0  0  0  0  0  0  0  0  0
    6.5352   -0.3852    0.0000 H   0  0  0  0  0  0  0  0  0  0  0  0
    6.1367   -1.0754    0.0000 H   0  0  0  0  0  0  0  0  0  0  0  0
    9.0899   -1.0754    0.0000 H   0  0  0  0  0  0  0  0  0  0  0  0
    8.6914   -0.3852    0.0000 H   0  0  0  0  0  0  0  0  0  0  0  0
    2.7587   -4.3082    0.0000 H   0  0  0  0  0  0  0  0  0  0  0  0
    2.0305   -4.6323    0.0000 H   0  0  0  0  0  0  0  0  0  0  0  0
    6.5883   -6.8012    0.0000 H   0  0  0  0  0  0  0  0  0  0  0  0
    8.4659   -4.7160    0.0000 H   0  0  0  0  0  0  0  0  0  0  0  0
    3.4226   -6.1744    0.0000 H   0  0  0  0  0  0  0  0  0  0  0  0
    4.2412   -6.4886    0.0000 H   0  0  0  0  0  0  0  0  0  0  0  0
    4.5554   -5.6700    0.0000 H   0  0  0  0  0  0  0  0  0  0  0  0
    9.0120    0.9284    0.0000 H   0  0  0  0  0  0  0  0  0  0  0  0
    1.4984   -5.3487    0.0000 H   0  0  0  0  0  0  0  0  0  0  0  0
    1.6356   -6.2147    0.0000 H   0  0  0  0  0  0  0  0  0  0  0  0
    2.5016   -6.0776    0.0000 H   0  0  0  0  0  0  0  0  0  0  0  0
    9.6698   -5.7999    0.0000 H   0  0  0  0  0  0  0  0  0  0  0  0
    9.3330   -7.3845    0.0000 H   0  0  0  0  0  0  0  0  0  0  0  0
    2.5167   -2.6152    0.0000 H   0  0  0  0  0  0  0  0  0  0  0  0
    5.3647    0.4293    0.0000 H   0  0  0  0  0  0  0  0  0  0  0  0
    6.1443    0.2636    0.0000 H   0  0  0  0  0  0  0  0  0  0  0  0
    9.1318    2.4341    0.0000 H   0  0  0  0  0  0  0  0  0  0  0  0
    9.2151    3.2268    0.0000 H   0  0  0  0  0  0  0  0  0  0  0  0
    5.5250    1.9409    0.0000 H   0  0  0  0  0  0  0  0  0  0  0  0
    4.6494    1.8950    0.0000 H   0  0  0  0  0  0  0  0  0  0  0  0
    4.6952    1.0194    0.0000 H   0  0  0  0  0  0  0  0  0  0  0  0
    6.9354    3.3966    0.0000 H   0  0  0  0  0  0  0  0  0  0  0  0
    9.4988    4.5378    0.0000 H   0  0  0  0  0  0  0  0  0  0  0  0
    6.2765    4.8765    0.0000 H   0  0  0  0  0  0  0  0  0  0  0  0
    8.8398    6.0178    0.0000 H   0  0  0  0  0  0  0  0  0  0  0  0
    7.9141    6.7769    0.0000 H   0  0  0  0  0  0  0  0  0  0  0  0
    7.8216    8.5090    0.0000 H   0  0  0  0  0  0  0  0  0  0  0  0
    7.0030    8.8232    0.0000 H   0  0  0  0  0  0  0  0  0  0  0  0
    6.6888    8.0047    0.0000 H   0  0  0  0  0  0  0  0  0  0  0  0
    8.5916    6.6222    0.0000 H   0  0  0  0  0  0  0  0  0  0  0  0
    9.2731    7.1740    0.0000 H   0  0  0  0  0  0  0  0  0  0  0  0
    8.7213    7.8554    0.0000 H   0  0  0  0  0  0  0  0  0  0  0  0
  1 30  1  0  0  0  0
  2 22  1  0  0  0  0
  2 78  1  0  0  0  0
  3 22  2  0  0  0  0
  4 42  1  0  0  0  0
  4 43  1  0  0  0  0
  5 11  1  0  0  0  0
  5 12  1  0  0  0  0
  5 14  1  0  0  0  0
  6 13  1  0  0  0  0
  6 16  1  0  0  0  0
  6 17  1  0  0  0  0
  7  8  1  0  0  0  0
  7 24  1  0  0  0  0
  7 34  1  0  0  0  0
  8 33  2  0  0  0  0
  9 10  1  0  0  0  0
  9 11  1  0  0  0  0
  9 13  1  6  0  0  0
  9 46  1  0  0  0  0
 10 12  1  0  0  0  0
 10 15  1  1  0  0  0
 10 47  1  0  0  0  0
 11 48  1  0  0  0  0
 11 49  1  0  0  0  0
 12 50  1  0  0  0  0
 12 51  1  0  0  0  0
 13 52  1  0  0  0  0
 13 53  1  0  0  0  0
 14 19  1  0  0  0  0
 14 22  1  6  0  0  0
 14 54  1  0  0  0  0
 15 25  2  0  0  0  0
 15 26  1  0  0  0  0
 16 20  1  0  0  0  0
 16 55  1  0  0  0  0
 16 56  1  0  0  0  0
 17 21  1  0  0  0  0
 17 57  1  0  0  0  0
 17 58  1  0  0  0  0
 18 20  1  0  0  0  0
 18 21  1  0  0  0  0
 18 24  1  0  0  0  0
 18 59  1  0  0  0  0
 19 23  1  0  0  0  0
 19 27  1  1  0  0  0
 19 60  1  0  0  0  0
 20 61  1  0  0  0  0
 20 62  1  0  0  0  0
 21 63  1  0  0  0  0
 21 64  1  0  0  0  0
 23 29  1  0  0  0  0
 23 65  1  0  0  0  0
 23 66  1  0  0  0  0
 24 28  2  0  0  0  0
 25 30  1  0  0  0  0
 25 67  1  0  0  0  0
 26 31  2  0  0  0  0
 26 68  1  0  0  0  0
 27 69  1  0  0  0  0
 27 70  1  0  0  0  0
 27 71  1  0  0  0  0
 28 33  1  0  0  0  0
 28 72  1  0  0  0  0
 29 73  1  0  0  0  0
 29 74  1  0  0  0  0
 29 75  1  0  0  0  0
 30 32  2  0  0  0  0
 31 32  1  0  0  0  0
 31 76  1  0  0  0  0
 32 77  1  0  0  0  0
 33 35  1  0  0  0  0
 34 36  1  0  0  0  0
 34 79  1  0  0  0  0
 34 80  1  0  0  0  0
 35 37  1  0  0  0  0
 35 81  1  0  0  0  0
 35 82  1  0  0  0  0
 36 83  1  0  0  0  0
 36 84  1  0  0  0  0
 36 85  1  0  0  0  0
 37 38  2  0  0  0  0
 37 39  1  0  0  0  0
 38 40  1  0  0  0  0
 38 86  1  0  0  0  0
 39 41  2  0  0  0  0
 39 87  1  0  0  0  0
 40 42  2  0  0  0  0
 40 88  1  0  0  0  0
 41 42  1  0  0  0  0
 41 89  1  0  0  0  0
 43 44  1  0  0  0  0
 43 45  1  0  0  0  0
 43 90  1  0  0  0  0
 44 91  1  0  0  0  0
 44 92  1  0  0  0  0
 44 93  1  0  0  0  0
 45 94  1  0  0  0  0
 45 95  1  0  0  0  0
 45 96  1  0  0  0  0
M  END
> <PUBCHEM_COMPOUND_CID>
516218
> <PUBCHEM_COMPOUND_CANONICALIZED>
1
> <PUBCHEM_CACTVS_COMPLEXITY>
908
> <PUBCHEM_CACTVS_HBOND_ACCEPTOR>
7
> <PUBCHEM_CACTVS_HBOND_DONOR>
1
> <PUBCHEM_CACTVS_ROTATABLE_BOND>
13
> <PUBCHEM_CACTVS_SUBSKEYS>
AAADcfB/sQAAAAAAAAAAAAAAAAAAAWLAAAA8YIAAAAAAAAAB0AAAHwAICAAADTzhng4yjpMIBgCqAyTyTACSDAAhogAY2CG+bJgOJjLE8fuG/CjkyBHY6AeYwOAOoAAAAAAAAABAAAAAAAAAAAAAAAAAAA==
> <PUBCHEM_IUPAC_OPENEYE_NAME>
(2R,3S)-2-[(3S,4S)-3-[[4-[2-ethyl-5-[(4-isopropoxyphenyl)methyl]pyrazol-3-yl]-1-piperidyl]methyl]-4-(3-fluorophenyl)pyrrolidin-1-yl]-3-methyl-pentanoic acid
> <PUBCHEM_IUPAC_CAS_NAME>
(2R,3S)-2-[(3S,4S)-3-[[4-[2-ethyl-5-[(4-propan-2-yloxyphenyl)methyl]-3-pyrazolyl]-1-piperidinyl]methyl]-4-(3-fluorophenyl)-1-pyrrolidinyl]-3-methylpentanoic acid
> <PUBCHEM_IUPAC_NAME_MARKUP>
(2<I>R</I>,3<I>S</I>)-2-[(3<I>S</I>,4<I>S</I>)-3-[[4-[2-ethyl-5-[(4-propan-2-yloxyphenyl)methyl]pyrazol-3-yl]piperidin-1-yl]methyl]-4-(3-fluorophenyl)pyrrolidin-1-yl]-3-methylpentanoic acid
> <PUBCHEM_IUPAC_NAME>
(2R,3S)-2-[(3S,4S)-3-[[4-[2-ethyl-5-[(4-propan-2-yloxyphenyl)methyl]pyrazol-3-yl]piperidin-1-yl]methyl]-4-(3-fluorophenyl)pyrrolidin-1-yl]-3-methylpentanoic acid
> <PUBCHEM_IUPAC_SYSTEMATIC_NAME>
(2R,3S)-2-[(3S,4S)-3-[[4-[2-ethyl-5-[(4-propan-2-yloxyphenyl)methyl]pyrazol-3-yl]piperidin-1-yl]methyl]-4-(3-fluorophenyl)pyrrolidin-1-yl]-3-methyl-pentanoic acid
> <PUBCHEM_IUPAC_TRADITIONAL_NAME>
(2R,3S)-2-[(3S,4S)-3-[[4-[2-ethyl-5-(4-isopropoxybenzyl)pyrazol-3-yl]piperidino]methyl]-4-(3-fluorophenyl)pyrrolidino]-3-methyl-valeric acid
> <PUBCHEM_IUPAC_INCHI>
InChI=1S/C37H51FN4O3/c1-6-26(5)36(37(43)44)41-23-30(34(24-41)29-9-8-10-31(38)20-29)22-40-17-15-28(16-18-40)35-21-32(39-42(35)7-2)19-27-11-13-33(14-12-27)45-25(3)4/h8-14,20-21,25-26,28,30,34,36H,6-7,15-19,22-24H2,1-5H3,(H,43,44)/t26-,30-,34+,36+/m0/s1
> <PUBCHEM_IUPAC_INCHIKEY>
OYTNIRQQOVWLED-NGZLLANBSA-N
> <PUBCHEM_XLOGP3_AA>
4.8
> <PUBCHEM_EXACT_MASS>
618.39451966
> <PUBCHEM_MOLECULAR_FORMULA>
C37H51FN4O3
> <PUBCHEM_MOLECULAR_WEIGHT>
618.8
> <PUBCHEM_OPENEYE_CAN_SMILES>
CCC(C)C(C(=O)O)N1CC(C(C1)C2=CC(=CC=C2)F)CN3CCC(CC3)C4=CC(=NN4CC)CC5=CC=C(C=C5)OC(C)C
> <PUBCHEM_OPENEYE_ISO_SMILES>
CC[C@H](C)[C@H](C(=O)O)N1C[C@@H]([C@H](C1)C2=CC(=CC=C2)F)CN3CCC(CC3)C4=CC(=NN4CC)CC5=CC=C(C=C5)OC(C)C
> <PUBCHEM_CACTVS_TPSA>
70.8
> <PUBCHEM_MONOISOTOPIC_WEIGHT>
618.39451966
> <PUBCHEM_TOTAL_CHARGE>
0
> <PUBCHEM_HEAVY_ATOM_COUNT>
45
> <PUBCHEM_ATOM_DEF_STEREO_COUNT>
4
> <PUBCHEM_ATOM_UDEF_STEREO_COUNT>
0
> <PUBCHEM_BOND_DEF_STEREO_COUNT>
0
> <PUBCHEM_BOND_UDEF_STEREO_COUNT>
0
> <PUBCHEM_ISOTOPIC_ATOM_COUNT>
0
> <PUBCHEM_COMPONENT_COUNT>
1
> <PUBCHEM_CACTVS_TAUTO_COUNT>
-1
> <PUBCHEM_COORDINATE_TYPE>
1
5
255
> <PUBCHEM_BONDANNOTATIONS>
10  15  5
14  22  6
15  25  8
15  26  8
19  27  5
24  28  8
25  30  8
26  31  8
28  33  8
30  32  8
31  32  8
37  38  8
37  39  8
38  40  8
39  41  8
40  42  8
41  42  8
7  24  8
7  8  8
8  33  8
9  13  6
$$$$
