516291
  -OEChem-10302200282D
 95 99  0     1  0  0  0  0  0999 V2000
    9.8078   -5.7148    0.0000 F   0  0  0  0  0  0  0  0  0  0  0  0
    2.3644   -4.9364    0.0000 O   0  0  0  0  0  0  0  0  0  0  0  0
    3.7657   -5.9545    0.0000 O   0  0  0  0  0  0  0  0  0  0  0  0
    4.9413   -4.3365    0.0000 N   0  0  3  0  0  0  0  0  0  0  0  0
    7.3900   -2.5001    0.0000 N   0  0  0  0  0  0  0  0  0  0  0  0
    6.5809    1.0877    0.0000 N   0  0  0  0  0  0  0  0  0  0  0  0
    6.8900    2.0388    0.0000 N   0  0  0  0  0  0  0  0  0  0  0  0
    6.5239   -4.0001    0.0000 C   0  0  2  0  0  0  0  0  0  0  0  0
    6.4194   -4.9946    0.0000 C   0  0  2  0  0  0  0  0  0  0  0  0
    5.6104   -3.5933    0.0000 C   0  0  0  0  0  0  0  0  0  0  0  0
    5.4413   -5.2025    0.0000 C   0  0  0  0  0  0  0  0  0  0  0  0
    7.3900   -3.5001    0.0000 C   0  0  0  0  0  0  0  0  0  0  0  0
    3.9467   -4.2319    0.0000 C   0  0  2  0  0  0  0  0  0  0  0  0
    3.5400   -3.3184    0.0000 C   0  0  0  0  0  0  0  0  0  0  0  0
    7.1626   -5.6637    0.0000 C   0  0  0  0  0  0  0  0  0  0  0  0
    6.5239   -2.0001    0.0000 C   0  0  0  0  0  0  0  0  0  0  0  0
    8.2560   -2.0001    0.0000 C   0  0  0  0  0  0  0  0  0  0  0  0
    7.3900   -0.5001    0.0000 C   0  0  0  0  0  0  0  0  0  0  0  0
    6.5239   -1.0001    0.0000 C   0  0  0  0  0  0  0  0  0  0  0  0
    8.2560   -1.0001    0.0000 C   0  0  0  0  0  0  0  0  0  0  0  0
    3.3590   -5.0410    0.0000 C   0  0  0  0  0  0  0  0  0  0  0  0
    3.1333   -2.4048    0.0000 C   0  0  0  0  0  0  0  0  0  0  0  0
    2.6264   -3.7251    0.0000 C   0  0  0  0  0  0  0  0  0  0  0  0
    4.4535   -2.9117    0.0000 C   0  0  0  0  0  0  0  0  0  0  0  0
    7.3900    0.4999    0.0000 C   0  0  0  0  0  0  0  0  0  0  0  0
    8.1136   -5.3547    0.0000 C   0  0  0  0  0  0  0  0  0  0  0  0
    6.9546   -6.6419    0.0000 C   0  0  0  0  0  0  0  0  0  0  0  0
    8.1990    1.0877    0.0000 C   0  0  0  0  0  0  0  0  0  0  0  0
    8.8568   -6.0238    0.0000 C   0  0  0  0  0  0  0  0  0  0  0  0
    7.6978   -7.3110    0.0000 C   0  0  0  0  0  0  0  0  0  0  0  0
    8.6488   -7.0020    0.0000 C   0  0  0  0  0  0  0  0  0  0  0  0
    7.8900    2.0388    0.0000 C   0  0  0  0  0  0  0  0  0  0  0  0
    5.6299    0.7787    0.0000 C   0  0  0  0  0  0  0  0  0  0  0  0
    8.4777    2.8478    0.0000 C   0  0  0  0  0  0  0  0  0  0  0  0
    4.8867    1.4478    0.0000 C   0  0  0  0  0  0  0  0  0  0  0  0
    8.0710    3.7613    0.0000 C   0  0  0  0  0  0  0  0  0  0  0  0
    7.0765    3.8659    0.0000 C   0  0  0  0  0  0  0  0  0  0  0  0
    8.6588    4.5704    0.0000 C   0  0  0  0  0  0  0  0  0  0  0  0
    6.6698    4.7794    0.0000 C   0  0  0  0  0  0  0  0  0  0  0  0
    8.2520    5.4839    0.0000 C   0  0  0  0  0  0  0  0  0  0  0  0
    7.2575    5.5884    0.0000 C   0  0  0  0  0  0  0  0  0  0  0  0
    6.8508    6.5020    0.0000 C   0  0  0  0  0  0  0  0  0  0  0  0
    7.4386    7.3110    0.0000 C   0  0  0  0  0  0  0  0  0  0  0  0
    5.8563    6.6065    0.0000 C   0  0  0  0  0  0  0  0  0  0  0  0
    6.4915   -3.3809    0.0000 H   0  0  0  0  0  0  0  0  0  0  0  0
    6.2589   -5.5935    0.0000 H   0  0  0  0  0  0  0  0  0  0  0  0
    5.9204   -3.0564    0.0000 H   0  0  0  0  0  0  0  0  0  0  0  0
    5.1088   -3.2289    0.0000 H   0  0  0  0  0  0  0  0  0  0  0  0
    4.8749   -5.4547    0.0000 H   0  0  0  0  0  0  0  0  0  0  0  0
    5.6328   -5.7922    0.0000 H   0  0  0  0  0  0  0  0  0  0  0  0
    7.6020   -4.0827    0.0000 H   0  0  0  0  0  0  0  0  0  0  0  0
    8.0005   -3.3924    0.0000 H   0  0  0  0  0  0  0  0  0  0  0  0
    4.1989   -4.7983    0.0000 H   0  0  0  0  0  0  0  0  0  0  0  0
    5.9134   -1.8924    0.0000 H   0  0  0  0  0  0  0  0  0  0  0  0
    6.3119   -2.5827    0.0000 H   0  0  0  0  0  0  0  0  0  0  0  0
    8.4680   -2.5827    0.0000 H   0  0  0  0  0  0  0  0  0  0  0  0
    8.8666   -1.8924    0.0000 H   0  0  0  0  0  0  0  0  0  0  0  0
    7.9269   -0.1901    0.0000 H   0  0  0  0  0  0  0  0  0  0  0  0
    6.3119   -0.4175    0.0000 H   0  0  0  0  0  0  0  0  0  0  0  0
    5.9134   -1.1077    0.0000 H   0  0  0  0  0  0  0  0  0  0  0  0
    8.8666   -1.1077    0.0000 H   0  0  0  0  0  0  0  0  0  0  0  0
    8.4680   -0.4175    0.0000 H   0  0  0  0  0  0  0  0  0  0  0  0
    3.6997   -2.1527    0.0000 H   0  0  0  0  0  0  0  0  0  0  0  0
    2.8811   -1.8384    0.0000 H   0  0  0  0  0  0  0  0  0  0  0  0
    2.5669   -2.6570    0.0000 H   0  0  0  0  0  0  0  0  0  0  0  0
    2.3743   -3.1587    0.0000 H   0  0  0  0  0  0  0  0  0  0  0  0
    2.0600   -3.9773    0.0000 H   0  0  0  0  0  0  0  0  0  0  0  0
    2.8786   -4.2915    0.0000 H   0  0  0  0  0  0  0  0  0  0  0  0
    4.7057   -3.4781    0.0000 H   0  0  0  0  0  0  0  0  0  0  0  0
    5.0199   -2.6595    0.0000 H   0  0  0  0  0  0  0  0  0  0  0  0
    4.2014   -2.3453    0.0000 H   0  0  0  0  0  0  0  0  0  0  0  0
    8.2425   -4.7482    0.0000 H   0  0  0  0  0  0  0  0  0  0  0  0
    6.3650   -6.8334    0.0000 H   0  0  0  0  0  0  0  0  0  0  0  0
    8.7886    0.8961    0.0000 H   0  0  0  0  0  0  0  0  0  0  0  0
    7.5689   -7.9174    0.0000 H   0  0  0  0  0  0  0  0  0  0  0  0
    2.0000   -5.4380    0.0000 H   0  0  0  0  0  0  0  0  0  0  0  0
    9.1096   -7.4168    0.0000 H   0  0  0  0  0  0  0  0  0  0  0  0
    5.1413    0.3970    0.0000 H   0  0  0  0  0  0  0  0  0  0  0  0
    5.9210    0.2313    0.0000 H   0  0  0  0  0  0  0  0  0  0  0  0
    8.9084    2.4018    0.0000 H   0  0  0  0  0  0  0  0  0  0  0  0
    8.9918    3.1945    0.0000 H   0  0  0  0  0  0  0  0  0  0  0  0
    5.3016    1.9086    0.0000 H   0  0  0  0  0  0  0  0  0  0  0  0
    4.4260    1.8627    0.0000 H   0  0  0  0  0  0  0  0  0  0  0  0
    4.4719    0.9871    0.0000 H   0  0  0  0  0  0  0  0  0  0  0  0
    6.7121    3.3643    0.0000 H   0  0  0  0  0  0  0  0  0  0  0  0
    9.2754    4.5056    0.0000 H   0  0  0  0  0  0  0  0  0  0  0  0
    6.0531    4.8442    0.0000 H   0  0  0  0  0  0  0  0  0  0  0  0
    8.6165    5.9855    0.0000 H   0  0  0  0  0  0  0  0  0  0  0  0
    7.4674    6.4372    0.0000 H   0  0  0  0  0  0  0  0  0  0  0  0
    7.9402    6.9466    0.0000 H   0  0  0  0  0  0  0  0  0  0  0  0
    7.8030    7.8126    0.0000 H   0  0  0  0  0  0  0  0  0  0  0  0
    6.9370    7.6754    0.0000 H   0  0  0  0  0  0  0  0  0  0  0  0
    5.9211    7.2231    0.0000 H   0  0  0  0  0  0  0  0  0  0  0  0
    5.2397    6.6713    0.0000 H   0  0  0  0  0  0  0  0  0  0  0  0
    5.7915    5.9899    0.0000 H   0  0  0  0  0  0  0  0  0  0  0  0
  1 29  1  0  0  0  0
  2 21  1  0  0  0  0
  2 76  1  0  0  0  0
  3 21  2  0  0  0  0
  4 10  1  0  0  0  0
  4 11  1  0  0  0  0
  4 13  1  0  0  0  0
  5 12  1  0  0  0  0
  5 16  1  0  0  0  0
  5 17  1  0  0  0  0
  6  7  1  0  0  0  0
  6 25  1  0  0  0  0
  6 33  1  0  0  0  0
  7 32  2  0  0  0  0
  8  9  1  0  0  0  0
  8 10  1  0  0  0  0
  8 12  1  6  0  0  0
  8 45  1  0  0  0  0
  9 11  1  0  0  0  0
  9 15  1  1  0  0  0
  9 46  1  0  0  0  0
 10 47  1  0  0  0  0
 10 48  1  0  0  0  0
 11 49  1  0  0  0  0
 11 50  1  0  0  0  0
 12 51  1  0  0  0  0
 12 52  1  0  0  0  0
 13 14  1  0  0  0  0
 13 21  1  1  0  0  0
 13 53  1  0  0  0  0
 14 22  1  0  0  0  0
 14 23  1  0  0  0  0
 14 24  1  0  0  0  0
 15 26  2  0  0  0  0
 15 27  1  0  0  0  0
 16 19  1  0  0  0  0
 16 54  1  0  0  0  0
 16 55  1  0  0  0  0
 17 20  1  0  0  0  0
 17 56  1  0  0  0  0
 17 57  1  0  0  0  0
 18 19  1  0  0  0  0
 18 20  1  0  0  0  0
 18 25  1  0  0  0  0
 18 58  1  0  0  0  0
 19 59  1  0  0  0  0
 19 60  1  0  0  0  0
 20 61  1  0  0  0  0
 20 62  1  0  0  0  0
 22 63  1  0  0  0  0
 22 64  1  0  0  0  0
 22 65  1  0  0  0  0
 23 66  1  0  0  0  0
 23 67  1  0  0  0  0
 23 68  1  0  0  0  0
 24 69  1  0  0  0  0
 24 70  1  0  0  0  0
 24 71  1  0  0  0  0
 25 28  2  0  0  0  0
 26 29  1  0  0  0  0
 26 72  1  0  0  0  0
 27 30  2  0  0  0  0
 27 73  1  0  0  0  0
 28 32  1  0  0  0  0
 28 74  1  0  0  0  0
 29 31  2  0  0  0  0
 30 31  1  0  0  0  0
 30 75  1  0  0  0  0
 31 77  1  0  0  0  0
 32 34  1  0  0  0  0
 33 35  1  0  0  0  0
 33 78  1  0  0  0  0
 33 79  1  0  0  0  0
 34 36  1  0  0  0  0
 34 80  1  0  0  0  0
 34 81  1  0  0  0  0
 35 82  1  0  0  0  0
 35 83  1  0  0  0  0
 35 84  1  0  0  0  0
 36 37  2  0  0  0  0
 36 38  1  0  0  0  0
 37 39  1  0  0  0  0
 37 85  1  0  0  0  0
 38 40  2  0  0  0  0
 38 86  1  0  0  0  0
 39 41  2  0  0  0  0
 39 87  1  0  0  0  0
 40 41  1  0  0  0  0
 40 88  1  0  0  0  0
 41 42  1  0  0  0  0
 42 43  1  0  0  0  0
 42 44  1  0  0  0  0
 42 89  1  0  0  0  0
 43 90  1  0  0  0  0
 43 91  1  0  0  0  0
 43 92  1  0  0  0  0
 44 93  1  0  0  0  0
 44 94  1  0  0  0  0
 44 95  1  0  0  0  0
M  END
> <PUBCHEM_COMPOUND_CID>
516291
> <PUBCHEM_COMPOUND_CANONICALIZED>
1
> <PUBCHEM_CACTVS_COMPLEXITY>
910
> <PUBCHEM_CACTVS_HBOND_ACCEPTOR>
6
> <PUBCHEM_CACTVS_HBOND_DONOR>
1
> <PUBCHEM_CACTVS_ROTATABLE_BOND>
11
> <PUBCHEM_CACTVS_SUBSKEYS>
AAADcfB/sQAAAAAAAAAAAAAAAAAAAWLAAAA8YIAAAAAAAAAB0AAAHwAICAAADyjBngwyiJMIAgCqAyTyTACSBAAhggAY2CG4ZJgKIDLA0fGE5AhkiADYyAcQgMAPwAAAAAAAAACAAAAAAAAAAAAAAAAAAA==
> <PUBCHEM_IUPAC_OPENEYE_NAME>
(2R)-2-[(3S,4S)-3-[[4-[2-ethyl-5-[(4-isopropylphenyl)methyl]pyrazol-3-yl]-1-piperidyl]methyl]-4-(3-fluorophenyl)pyrrolidin-1-yl]-3,3-dimethyl-butanoic acid
> <PUBCHEM_IUPAC_CAS_NAME>
(2R)-2-[(3S,4S)-3-[[4-[2-ethyl-5-[(4-propan-2-ylphenyl)methyl]-3-pyrazolyl]-1-piperidinyl]methyl]-4-(3-fluorophenyl)-1-pyrrolidinyl]-3,3-dimethylbutanoic acid
> <PUBCHEM_IUPAC_NAME_MARKUP>
(2<I>R</I>)-2-[(3<I>S</I>,4<I>S</I>)-3-[[4-[2-ethyl-5-[(4-propan-2-ylphenyl)methyl]pyrazol-3-yl]piperidin-1-yl]methyl]-4-(3-fluorophenyl)pyrrolidin-1-yl]-3,3-dimethylbutanoic acid
> <PUBCHEM_IUPAC_NAME>
(2R)-2-[(3S,4S)-3-[[4-[2-ethyl-5-[(4-propan-2-ylphenyl)methyl]pyrazol-3-yl]piperidin-1-yl]methyl]-4-(3-fluorophenyl)pyrrolidin-1-yl]-3,3-dimethylbutanoic acid
> <PUBCHEM_IUPAC_SYSTEMATIC_NAME>
(2R)-2-[(3S,4S)-3-[[4-[2-ethyl-5-[(4-propan-2-ylphenyl)methyl]pyrazol-3-yl]piperidin-1-yl]methyl]-4-(3-fluorophenyl)pyrrolidin-1-yl]-3,3-dimethyl-butanoic acid
> <PUBCHEM_IUPAC_TRADITIONAL_NAME>
(2R)-2-[(3S,4S)-3-[[4-[2-ethyl-5-(4-isopropylbenzyl)pyrazol-3-yl]piperidino]methyl]-4-(3-fluorophenyl)pyrrolidino]-3,3-dimethyl-butyric acid
> <PUBCHEM_IUPAC_INCHI>
InChI=1S/C37H51FN4O2/c1-7-42-34(21-32(39-42)19-26-11-13-27(14-12-26)25(2)3)28-15-17-40(18-16-28)22-30-23-41(35(36(43)44)37(4,5)6)24-33(30)29-9-8-10-31(38)20-29/h8-14,20-21,25,28,30,33,35H,7,15-19,22-24H2,1-6H3,(H,43,44)/t30-,33+,35-/m0/s1
> <PUBCHEM_IUPAC_INCHIKEY>
ALNIPKRVLOOYCX-LYEZUSGXSA-N
> <PUBCHEM_XLOGP3_AA>
5.2
> <PUBCHEM_EXACT_MASS>
602.39960504
> <PUBCHEM_MOLECULAR_FORMULA>
C37H51FN4O2
> <PUBCHEM_MOLECULAR_WEIGHT>
602.8
> <PUBCHEM_OPENEYE_CAN_SMILES>
CCN1C(=CC(=N1)CC2=CC=C(C=C2)C(C)C)C3CCN(CC3)CC4CN(CC4C5=CC(=CC=C5)F)C(C(=O)O)C(C)(C)C
> <PUBCHEM_OPENEYE_ISO_SMILES>
CCN1C(=CC(=N1)CC2=CC=C(C=C2)C(C)C)C3CCN(CC3)C[C@H]4CN(C[C@@H]4C5=CC(=CC=C5)F)[C@@H](C(=O)O)C(C)(C)C
> <PUBCHEM_CACTVS_TPSA>
61.6
> <PUBCHEM_MONOISOTOPIC_WEIGHT>
602.39960504
> <PUBCHEM_TOTAL_CHARGE>
0
> <PUBCHEM_HEAVY_ATOM_COUNT>
44
> <PUBCHEM_ATOM_DEF_STEREO_COUNT>
3
> <PUBCHEM_ATOM_UDEF_STEREO_COUNT>
0
> <PUBCHEM_BOND_DEF_STEREO_COUNT>
0
> <PUBCHEM_BOND_UDEF_STEREO_COUNT>
0
> <PUBCHEM_ISOTOPIC_ATOM_COUNT>
0
> <PUBCHEM_COMPONENT_COUNT>
1
> <PUBCHEM_CACTVS_TAUTO_COUNT>
-1
> <PUBCHEM_COORDINATE_TYPE>
1
5
255
> <PUBCHEM_BONDANNOTATIONS>
13  21  5
15  26  8
15  27  8
25  28  8
26  29  8
27  30  8
28  32  8
29  31  8
30  31  8
36  37  8
36  38  8
37  39  8
38  40  8
39  41  8
40  41  8
6  25  8
6  7  8
7  32  8
8  12  6
9  15  5
$$$$
