516270
  -OEChem-10302200282D
 93 97  0     1  0  0  0  0  0999 V2000
    9.8078   -6.1716    0.0000 F   0  0  0  0  0  0  0  0  0  0  0  0
    2.3644   -5.3932    0.0000 O   0  0  0  0  0  0  0  0  0  0  0  0
    3.7657   -6.4113    0.0000 O   0  0  0  0  0  0  0  0  0  0  0  0
    6.8508    6.0452    0.0000 O   0  0  0  0  0  0  0  0  0  0  0  0
    4.9413   -4.7932    0.0000 N   0  0  3  0  0  0  0  0  0  0  0  0
    7.3900   -2.9568    0.0000 N   0  0  0  0  0  0  0  0  0  0  0  0
    6.5809    0.6309    0.0000 N   0  0  0  0  0  0  0  0  0  0  0  0
    6.8900    1.5820    0.0000 N   0  0  0  0  0  0  0  0  0  0  0  0
    6.5239   -4.4568    0.0000 C   0  0  2  0  0  0  0  0  0  0  0  0
    6.4194   -5.4514    0.0000 C   0  0  2  0  0  0  0  0  0  0  0  0
    5.6104   -4.0501    0.0000 C   0  0  0  0  0  0  0  0  0  0  0  0
    5.4413   -5.6593    0.0000 C   0  0  0  0  0  0  0  0  0  0  0  0
    7.3900   -3.9568    0.0000 C   0  0  0  0  0  0  0  0  0  0  0  0
    3.9467   -4.6887    0.0000 C   0  0  2  0  0  0  0  0  0  0  0  0
    3.5400   -3.7752    0.0000 C   0  0  0  0  0  0  0  0  0  0  0  0
    7.1626   -6.1205    0.0000 C   0  0  0  0  0  0  0  0  0  0  0  0
    6.5239   -2.4568    0.0000 C   0  0  0  0  0  0  0  0  0  0  0  0
    8.2560   -2.4568    0.0000 C   0  0  0  0  0  0  0  0  0  0  0  0
    7.3900   -0.9568    0.0000 C   0  0  0  0  0  0  0  0  0  0  0  0
    6.5239   -1.4568    0.0000 C   0  0  0  0  0  0  0  0  0  0  0  0
    8.2560   -1.4568    0.0000 C   0  0  0  0  0  0  0  0  0  0  0  0
    3.3590   -5.4977    0.0000 C   0  0  0  0  0  0  0  0  0  0  0  0
    3.1333   -2.8616    0.0000 C   0  0  0  0  0  0  0  0  0  0  0  0
    2.6264   -4.1819    0.0000 C   0  0  0  0  0  0  0  0  0  0  0  0
    4.4535   -3.3684    0.0000 C   0  0  0  0  0  0  0  0  0  0  0  0
    7.3900    0.0432    0.0000 C   0  0  0  0  0  0  0  0  0  0  0  0
    8.1136   -5.8115    0.0000 C   0  0  0  0  0  0  0  0  0  0  0  0
    6.9546   -7.0986    0.0000 C   0  0  0  0  0  0  0  0  0  0  0  0
    8.1990    0.6309    0.0000 C   0  0  0  0  0  0  0  0  0  0  0  0
    8.8568   -6.4806    0.0000 C   0  0  0  0  0  0  0  0  0  0  0  0
    7.6978   -7.7678    0.0000 C   0  0  0  0  0  0  0  0  0  0  0  0
    8.6488   -7.4588    0.0000 C   0  0  0  0  0  0  0  0  0  0  0  0
    7.8900    1.5820    0.0000 C   0  0  0  0  0  0  0  0  0  0  0  0
    5.6299    0.3219    0.0000 C   0  0  0  0  0  0  0  0  0  0  0  0
    8.4777    2.3910    0.0000 C   0  0  0  0  0  0  0  0  0  0  0  0
    4.8867    0.9911    0.0000 C   0  0  0  0  0  0  0  0  0  0  0  0
    8.0710    3.3046    0.0000 C   0  0  0  0  0  0  0  0  0  0  0  0
    7.0765    3.4091    0.0000 C   0  0  0  0  0  0  0  0  0  0  0  0
    8.6588    4.1136    0.0000 C   0  0  0  0  0  0  0  0  0  0  0  0
    6.6698    4.3226    0.0000 C   0  0  0  0  0  0  0  0  0  0  0  0
    8.2520    5.0271    0.0000 C   0  0  0  0  0  0  0  0  0  0  0  0
    7.2575    5.1317    0.0000 C   0  0  0  0  0  0  0  0  0  0  0  0
    7.4386    6.8542    0.0000 C   0  0  0  0  0  0  0  0  0  0  0  0
    7.0318    7.7678    0.0000 C   0  0  0  0  0  0  0  0  0  0  0  0
    7.0439   -4.7945    0.0000 H   0  0  0  0  0  0  0  0  0  0  0  0
    6.9982   -5.2292    0.0000 H   0  0  0  0  0  0  0  0  0  0  0  0
    5.9204   -3.5132    0.0000 H   0  0  0  0  0  0  0  0  0  0  0  0
    5.1088   -3.6857    0.0000 H   0  0  0  0  0  0  0  0  0  0  0  0
    4.8749   -5.9114    0.0000 H   0  0  0  0  0  0  0  0  0  0  0  0
    5.6328   -6.2489    0.0000 H   0  0  0  0  0  0  0  0  0  0  0  0
    7.6020   -4.5395    0.0000 H   0  0  0  0  0  0  0  0  0  0  0  0
    8.0005   -3.8492    0.0000 H   0  0  0  0  0  0  0  0  0  0  0  0
    4.1989   -5.2551    0.0000 H   0  0  0  0  0  0  0  0  0  0  0  0
    5.9134   -2.3492    0.0000 H   0  0  0  0  0  0  0  0  0  0  0  0
    6.3119   -3.0394    0.0000 H   0  0  0  0  0  0  0  0  0  0  0  0
    8.4680   -3.0394    0.0000 H   0  0  0  0  0  0  0  0  0  0  0  0
    8.8666   -2.3492    0.0000 H   0  0  0  0  0  0  0  0  0  0  0  0
    7.9269   -0.6468    0.0000 H   0  0  0  0  0  0  0  0  0  0  0  0
    6.3119   -0.8742    0.0000 H   0  0  0  0  0  0  0  0  0  0  0  0
    5.9134   -1.5645    0.0000 H   0  0  0  0  0  0  0  0  0  0  0  0
    8.8666   -1.5645    0.0000 H   0  0  0  0  0  0  0  0  0  0  0  0
    8.4680   -0.8742    0.0000 H   0  0  0  0  0  0  0  0  0  0  0  0
    3.6997   -2.6094    0.0000 H   0  0  0  0  0  0  0  0  0  0  0  0
    2.8811   -2.2952    0.0000 H   0  0  0  0  0  0  0  0  0  0  0  0
    2.5669   -3.1138    0.0000 H   0  0  0  0  0  0  0  0  0  0  0  0
    2.3743   -3.6155    0.0000 H   0  0  0  0  0  0  0  0  0  0  0  0
    2.0600   -4.4341    0.0000 H   0  0  0  0  0  0  0  0  0  0  0  0
    2.8786   -4.7483    0.0000 H   0  0  0  0  0  0  0  0  0  0  0  0
    4.7057   -3.9348    0.0000 H   0  0  0  0  0  0  0  0  0  0  0  0
    5.0199   -3.1163    0.0000 H   0  0  0  0  0  0  0  0  0  0  0  0
    4.2014   -2.8020    0.0000 H   0  0  0  0  0  0  0  0  0  0  0  0
    8.2425   -5.2050    0.0000 H   0  0  0  0  0  0  0  0  0  0  0  0
    6.3650   -7.2902    0.0000 H   0  0  0  0  0  0  0  0  0  0  0  0
    8.7886    0.4394    0.0000 H   0  0  0  0  0  0  0  0  0  0  0  0
    7.5689   -8.3742    0.0000 H   0  0  0  0  0  0  0  0  0  0  0  0
    2.0000   -5.8948    0.0000 H   0  0  0  0  0  0  0  0  0  0  0  0
    9.1096   -7.8736    0.0000 H   0  0  0  0  0  0  0  0  0  0  0  0
    5.1413   -0.0598    0.0000 H   0  0  0  0  0  0  0  0  0  0  0  0
    5.9210   -0.2255    0.0000 H   0  0  0  0  0  0  0  0  0  0  0  0
    8.9084    1.9450    0.0000 H   0  0  0  0  0  0  0  0  0  0  0  0
    8.9918    2.7377    0.0000 H   0  0  0  0  0  0  0  0  0  0  0  0
    5.3016    1.4518    0.0000 H   0  0  0  0  0  0  0  0  0  0  0  0
    4.4260    1.4059    0.0000 H   0  0  0  0  0  0  0  0  0  0  0  0
    4.4719    0.5303    0.0000 H   0  0  0  0  0  0  0  0  0  0  0  0
    6.7121    2.9075    0.0000 H   0  0  0  0  0  0  0  0  0  0  0  0
    9.2754    4.0488    0.0000 H   0  0  0  0  0  0  0  0  0  0  0  0
    6.0531    4.3874    0.0000 H   0  0  0  0  0  0  0  0  0  0  0  0
    8.6165    5.5287    0.0000 H   0  0  0  0  0  0  0  0  0  0  0  0
    7.8693    6.4082    0.0000 H   0  0  0  0  0  0  0  0  0  0  0  0
    7.9526    7.2009    0.0000 H   0  0  0  0  0  0  0  0  0  0  0  0
    7.5982    8.0199    0.0000 H   0  0  0  0  0  0  0  0  0  0  0  0
    6.7797    8.3342    0.0000 H   0  0  0  0  0  0  0  0  0  0  0  0
    6.4654    7.5156    0.0000 H   0  0  0  0  0  0  0  0  0  0  0  0
  1 30  1  0  0  0  0
  2 22  1  0  0  0  0
  2 76  1  0  0  0  0
  3 22  2  0  0  0  0
  4 42  1  0  0  0  0
  4 43  1  0  0  0  0
  5 11  1  0  0  0  0
  5 12  1  0  0  0  0
  5 14  1  0  0  0  0
  6 13  1  0  0  0  0
  6 17  1  0  0  0  0
  6 18  1  0  0  0  0
  7  8  1  0  0  0  0
  7 26  1  0  0  0  0
  7 34  1  0  0  0  0
  8 33  2  0  0  0  0
  9 10  1  0  0  0  0
  9 11  1  0  0  0  0
  9 13  1  6  0  0  0
  9 45  1  0  0  0  0
 10 12  1  0  0  0  0
 10 16  1  1  0  0  0
 10 46  1  0  0  0  0
 11 47  1  0  0  0  0
 11 48  1  0  0  0  0
 12 49  1  0  0  0  0
 12 50  1  0  0  0  0
 13 51  1  0  0  0  0
 13 52  1  0  0  0  0
 14 15  1  0  0  0  0
 14 22  1  1  0  0  0
 14 53  1  0  0  0  0
 15 23  1  0  0  0  0
 15 24  1  0  0  0  0
 15 25  1  0  0  0  0
 16 27  2  0  0  0  0
 16 28  1  0  0  0  0
 17 20  1  0  0  0  0
 17 54  1  0  0  0  0
 17 55  1  0  0  0  0
 18 21  1  0  0  0  0
 18 56  1  0  0  0  0
 18 57  1  0  0  0  0
 19 20  1  0  0  0  0
 19 21  1  0  0  0  0
 19 26  1  0  0  0  0
 19 58  1  0  0  0  0
 20 59  1  0  0  0  0
 20 60  1  0  0  0  0
 21 61  1  0  0  0  0
 21 62  1  0  0  0  0
 23 63  1  0  0  0  0
 23 64  1  0  0  0  0
 23 65  1  0  0  0  0
 24 66  1  0  0  0  0
 24 67  1  0  0  0  0
 24 68  1  0  0  0  0
 25 69  1  0  0  0  0
 25 70  1  0  0  0  0
 25 71  1  0  0  0  0
 26 29  2  0  0  0  0
 27 30  1  0  0  0  0
 27 72  1  0  0  0  0
 28 31  2  0  0  0  0
 28 73  1  0  0  0  0
 29 33  1  0  0  0  0
 29 74  1  0  0  0  0
 30 32  2  0  0  0  0
 31 32  1  0  0  0  0
 31 75  1  0  0  0  0
 32 77  1  0  0  0  0
 33 35  1  0  0  0  0
 34 36  1  0  0  0  0
 34 78  1  0  0  0  0
 34 79  1  0  0  0  0
 35 37  1  0  0  0  0
 35 80  1  0  0  0  0
 35 81  1  0  0  0  0
 36 82  1  0  0  0  0
 36 83  1  0  0  0  0
 36 84  1  0  0  0  0
 37 38  2  0  0  0  0
 37 39  1  0  0  0  0
 38 40  1  0  0  0  0
 38 85  1  0  0  0  0
 39 41  2  0  0  0  0
 39 86  1  0  0  0  0
 40 42  2  0  0  0  0
 40 87  1  0  0  0  0
 41 42  1  0  0  0  0
 41 88  1  0  0  0  0
 43 44  1  0  0  0  0
 43 89  1  0  0  0  0
 43 90  1  0  0  0  0
 44 91  1  0  0  0  0
 44 92  1  0  0  0  0
 44 93  1  0  0  0  0
M  END
> <PUBCHEM_COMPOUND_CID>
516270
> <PUBCHEM_COMPOUND_CANONICALIZED>
1
> <PUBCHEM_CACTVS_COMPLEXITY>
900
> <PUBCHEM_CACTVS_HBOND_ACCEPTOR>
7
> <PUBCHEM_CACTVS_HBOND_DONOR>
1
> <PUBCHEM_CACTVS_ROTATABLE_BOND>
12
> <PUBCHEM_CACTVS_SUBSKEYS>
AAADcfB/sQAAAAAAAAAAAAAAAAAAAWLAAAA8YIAAAAAAAAAB0AAAHwAICAAADyzhng4yjpMIBgCqAyTyTACSDAAhogAY2CG+bJgOJjLE8fuG/CjkyBHY6AeQwOAPoAAAAAAAAABAAAAAAAAAAAAAAAAAAA==
> <PUBCHEM_IUPAC_OPENEYE_NAME>
(2R)-2-[(3S,4S)-3-[[4-[5-[(4-ethoxyphenyl)methyl]-2-ethyl-pyrazol-3-yl]-1-piperidyl]methyl]-4-(3-fluorophenyl)pyrrolidin-1-yl]-3,3-dimethyl-butanoic acid
> <PUBCHEM_IUPAC_CAS_NAME>
(2R)-2-[(3S,4S)-3-[[4-[5-[(4-ethoxyphenyl)methyl]-2-ethyl-3-pyrazolyl]-1-piperidinyl]methyl]-4-(3-fluorophenyl)-1-pyrrolidinyl]-3,3-dimethylbutanoic acid
> <PUBCHEM_IUPAC_NAME_MARKUP>
(2<I>R</I>)-2-[(3<I>S</I>,4<I>S</I>)-3-[[4-[5-[(4-ethoxyphenyl)methyl]-2-ethylpyrazol-3-yl]piperidin-1-yl]methyl]-4-(3-fluorophenyl)pyrrolidin-1-yl]-3,3-dimethylbutanoic acid
> <PUBCHEM_IUPAC_NAME>
(2R)-2-[(3S,4S)-3-[[4-[5-[(4-ethoxyphenyl)methyl]-2-ethylpyrazol-3-yl]piperidin-1-yl]methyl]-4-(3-fluorophenyl)pyrrolidin-1-yl]-3,3-dimethylbutanoic acid
> <PUBCHEM_IUPAC_SYSTEMATIC_NAME>
(2R)-2-[(3S,4S)-3-[[4-[5-[(4-ethoxyphenyl)methyl]-2-ethyl-pyrazol-3-yl]piperidin-1-yl]methyl]-4-(3-fluorophenyl)pyrrolidin-1-yl]-3,3-dimethyl-butanoic acid
> <PUBCHEM_IUPAC_TRADITIONAL_NAME>
(2R)-2-[(3S,4S)-3-[[4-[5-(4-ethoxybenzyl)-2-ethyl-pyrazol-3-yl]piperidino]methyl]-4-(3-fluorophenyl)pyrrolidino]-3,3-dimethyl-butyric acid
> <PUBCHEM_IUPAC_INCHI>
InChI=1S/C36H49FN4O3/c1-6-41-33(21-30(38-41)19-25-11-13-31(14-12-25)44-7-2)26-15-17-39(18-16-26)22-28-23-40(34(35(42)43)36(3,4)5)24-32(28)27-9-8-10-29(37)20-27/h8-14,20-21,26,28,32,34H,6-7,15-19,22-24H2,1-5H3,(H,42,43)/t28-,32+,34-/m0/s1
> <PUBCHEM_IUPAC_INCHIKEY>
IFRLDTPFDARKBP-OKRUAUFTSA-N
> <PUBCHEM_XLOGP3_AA>
4.4
> <PUBCHEM_EXACT_MASS>
604.37886960
> <PUBCHEM_MOLECULAR_FORMULA>
C36H49FN4O3
> <PUBCHEM_MOLECULAR_WEIGHT>
604.8
> <PUBCHEM_OPENEYE_CAN_SMILES>
CCN1C(=CC(=N1)CC2=CC=C(C=C2)OCC)C3CCN(CC3)CC4CN(CC4C5=CC(=CC=C5)F)C(C(=O)O)C(C)(C)C
> <PUBCHEM_OPENEYE_ISO_SMILES>
CCN1C(=CC(=N1)CC2=CC=C(C=C2)OCC)C3CCN(CC3)C[C@H]4CN(C[C@@H]4C5=CC(=CC=C5)F)[C@@H](C(=O)O)C(C)(C)C
> <PUBCHEM_CACTVS_TPSA>
70.8
> <PUBCHEM_MONOISOTOPIC_WEIGHT>
604.37886960
> <PUBCHEM_TOTAL_CHARGE>
0
> <PUBCHEM_HEAVY_ATOM_COUNT>
44
> <PUBCHEM_ATOM_DEF_STEREO_COUNT>
3
> <PUBCHEM_ATOM_UDEF_STEREO_COUNT>
0
> <PUBCHEM_BOND_DEF_STEREO_COUNT>
0
> <PUBCHEM_BOND_UDEF_STEREO_COUNT>
0
> <PUBCHEM_ISOTOPIC_ATOM_COUNT>
0
> <PUBCHEM_COMPONENT_COUNT>
1
> <PUBCHEM_CACTVS_TAUTO_COUNT>
-1
> <PUBCHEM_COORDINATE_TYPE>
1
5
255
> <PUBCHEM_BONDANNOTATIONS>
10  16  5
14  22  5
16  27  8
16  28  8
26  29  8
27  30  8
28  31  8
29  33  8
30  32  8
31  32  8
37  38  8
37  39  8
38  40  8
39  41  8
40  42  8
41  42  8
7  26  8
7  8  8
8  33  8
9  13  6
$$$$
