516204
  -OEChem-10302200282D
 92 96  0     1  0  0  0  0  0999 V2000
    7.7132   -6.9388    0.0000 F   0  0  0  0  0  0  0  0  0  0  0  0
    2.7688   -1.8635    0.0000 O   0  0  0  0  0  0  0  0  0  0  0  0
    4.3511   -1.1590    0.0000 O   0  0  0  0  0  0  0  0  0  0  0  0
    5.1646   -2.9861    0.0000 N   0  0  3  0  0  0  0  0  0  0  0  0
    7.6133   -1.1497    0.0000 N   0  0  0  0  0  0  0  0  0  0  0  0
    6.8043    2.4381    0.0000 N   0  0  0  0  0  0  0  0  0  0  0  0
    7.1133    3.3891    0.0000 N   0  0  0  0  0  0  0  0  0  0  0  0
    6.7473   -2.6497    0.0000 C   0  0  2  0  0  0  0  0  0  0  0  0
    6.6428   -3.6442    0.0000 C   0  0  2  0  0  0  0  0  0  0  0  0
    5.8338   -2.2430    0.0000 C   0  0  0  0  0  0  0  0  0  0  0  0
    5.6646   -3.8521    0.0000 C   0  0  0  0  0  0  0  0  0  0  0  0
    7.6133   -2.1497    0.0000 C   0  0  0  0  0  0  0  0  0  0  0  0
    4.1701   -2.8816    0.0000 C   0  0  2  0  0  0  0  0  0  0  0  0
    7.6133    0.8503    0.0000 C   0  0  0  0  0  0  0  0  0  0  0  0
    6.7473   -0.6497    0.0000 C   0  0  0  0  0  0  0  0  0  0  0  0
    8.4793   -0.6497    0.0000 C   0  0  0  0  0  0  0  0  0  0  0  0
    7.3859   -4.3134    0.0000 C   0  0  0  0  0  0  0  0  0  0  0  0
    6.7473    0.3503    0.0000 C   0  0  0  0  0  0  0  0  0  0  0  0
    8.4793    0.3503    0.0000 C   0  0  0  0  0  0  0  0  0  0  0  0
    3.5823   -3.6906    0.0000 C   0  0  2  0  0  0  0  0  0  0  0  0
    7.6133    1.8503    0.0000 C   0  0  0  0  0  0  0  0  0  0  0  0
    3.7634   -1.9680    0.0000 C   0  0  0  0  0  0  0  0  0  0  0  0
    2.5878   -3.5861    0.0000 C   0  0  0  0  0  0  0  0  0  0  0  0
    7.1780   -5.2915    0.0000 C   0  0  0  0  0  0  0  0  0  0  0  0
    8.3370   -4.0043    0.0000 C   0  0  0  0  0  0  0  0  0  0  0  0
    3.9890   -4.6042    0.0000 C   0  0  0  0  0  0  0  0  0  0  0  0
    8.2944    5.1117    0.0000 C   0  0  0  0  0  0  0  0  0  0  0  0
    8.4223    2.4381    0.0000 C   0  0  0  0  0  0  0  0  0  0  0  0
    8.7011    4.1982    0.0000 C   0  0  0  0  0  0  0  0  0  0  0  0
    8.1133    3.3891    0.0000 C   0  0  0  0  0  0  0  0  0  0  0  0
    8.8822    5.9207    0.0000 C   0  0  0  0  0  0  0  0  0  0  0  0
    7.2998    5.2162    0.0000 C   0  0  0  0  0  0  0  0  0  0  0  0
    8.4754    6.8343    0.0000 C   0  0  0  0  0  0  0  0  0  0  0  0
    6.8931    6.1298    0.0000 C   0  0  0  0  0  0  0  0  0  0  0  0
    7.4809    6.9388    0.0000 C   0  0  0  0  0  0  0  0  0  0  0  0
    2.0000   -4.3951    0.0000 C   0  0  0  0  0  0  0  0  0  0  0  0
    7.9211   -5.9606    0.0000 C   0  0  0  0  0  0  0  0  0  0  0  0
    9.0801   -4.6735    0.0000 C   0  0  0  0  0  0  0  0  0  0  0  0
    5.8532    2.1291    0.0000 C   0  0  0  0  0  0  0  0  0  0  0  0
    8.8722   -5.6516    0.0000 C   0  0  0  0  0  0  0  0  0  0  0  0
    5.1101    2.7982    0.0000 C   0  0  0  0  0  0  0  0  0  0  0  0
    7.2673   -2.9874    0.0000 H   0  0  0  0  0  0  0  0  0  0  0  0
    6.4823   -4.2431    0.0000 H   0  0  0  0  0  0  0  0  0  0  0  0
    6.1437   -1.7060    0.0000 H   0  0  0  0  0  0  0  0  0  0  0  0
    5.3322   -1.8785    0.0000 H   0  0  0  0  0  0  0  0  0  0  0  0
    5.0982   -4.1043    0.0000 H   0  0  0  0  0  0  0  0  0  0  0  0
    5.8562   -4.4418    0.0000 H   0  0  0  0  0  0  0  0  0  0  0  0
    7.8254   -2.7323    0.0000 H   0  0  0  0  0  0  0  0  0  0  0  0
    8.2239   -2.0420    0.0000 H   0  0  0  0  0  0  0  0  0  0  0  0
    4.5345   -2.3800    0.0000 H   0  0  0  0  0  0  0  0  0  0  0  0
    7.0764    1.1603    0.0000 H   0  0  0  0  0  0  0  0  0  0  0  0
    6.1367   -0.5420    0.0000 H   0  0  0  0  0  0  0  0  0  0  0  0
    6.5352   -1.2323    0.0000 H   0  0  0  0  0  0  0  0  0  0  0  0
    8.6914   -1.2323    0.0000 H   0  0  0  0  0  0  0  0  0  0  0  0
    9.0899   -0.5420    0.0000 H   0  0  0  0  0  0  0  0  0  0  0  0
    6.5352    0.9329    0.0000 H   0  0  0  0  0  0  0  0  0  0  0  0
    6.1367    0.2426    0.0000 H   0  0  0  0  0  0  0  0  0  0  0  0
    9.0899    0.2426    0.0000 H   0  0  0  0  0  0  0  0  0  0  0  0
    8.6914    0.9329    0.0000 H   0  0  0  0  0  0  0  0  0  0  0  0
    3.2179   -4.1922    0.0000 H   0  0  0  0  0  0  0  0  0  0  0  0
    2.7587   -2.9901    0.0000 H   0  0  0  0  0  0  0  0  0  0  0  0
    2.0305   -3.3143    0.0000 H   0  0  0  0  0  0  0  0  0  0  0  0
    6.5883   -5.4831    0.0000 H   0  0  0  0  0  0  0  0  0  0  0  0
    8.4659   -3.3979    0.0000 H   0  0  0  0  0  0  0  0  0  0  0  0
    7.9299    4.6101    0.0000 H   0  0  0  0  0  0  0  0  0  0  0  0
    3.4226   -4.8563    0.0000 H   0  0  0  0  0  0  0  0  0  0  0  0
    4.2412   -5.1706    0.0000 H   0  0  0  0  0  0  0  0  0  0  0  0
    4.5554   -4.3520    0.0000 H   0  0  0  0  0  0  0  0  0  0  0  0
    9.0120    2.2465    0.0000 H   0  0  0  0  0  0  0  0  0  0  0  0
    9.1318    3.7522    0.0000 H   0  0  0  0  0  0  0  0  0  0  0  0
    9.2151    4.5448    0.0000 H   0  0  0  0  0  0  0  0  0  0  0  0
    9.3128    5.4747    0.0000 H   0  0  0  0  0  0  0  0  0  0  0  0
    9.3962    6.2674    0.0000 H   0  0  0  0  0  0  0  0  0  0  0  0
    6.6983    5.0662    0.0000 H   0  0  0  0  0  0  0  0  0  0  0  0
    7.3431    4.5977    0.0000 H   0  0  0  0  0  0  0  0  0  0  0  0
    9.0770    6.9842    0.0000 H   0  0  0  0  0  0  0  0  0  0  0  0
    8.4322    7.4528    0.0000 H   0  0  0  0  0  0  0  0  0  0  0  0
    6.4624    6.5758    0.0000 H   0  0  0  0  0  0  0  0  0  0  0  0
    6.3791    5.7831    0.0000 H   0  0  0  0  0  0  0  0  0  0  0  0
    7.6518    7.5348    0.0000 H   0  0  0  0  0  0  0  0  0  0  0  0
    6.9236    7.2106    0.0000 H   0  0  0  0  0  0  0  0  0  0  0  0
    1.4984   -4.0307    0.0000 H   0  0  0  0  0  0  0  0  0  0  0  0
    1.6356   -4.8967    0.0000 H   0  0  0  0  0  0  0  0  0  0  0  0
    2.5016   -4.7595    0.0000 H   0  0  0  0  0  0  0  0  0  0  0  0
    9.6698   -4.4819    0.0000 H   0  0  0  0  0  0  0  0  0  0  0  0
    5.3647    1.7474    0.0000 H   0  0  0  0  0  0  0  0  0  0  0  0
    6.1443    1.5816    0.0000 H   0  0  0  0  0  0  0  0  0  0  0  0
    9.3330   -6.0665    0.0000 H   0  0  0  0  0  0  0  0  0  0  0  0
    2.5167   -1.2971    0.0000 H   0  0  0  0  0  0  0  0  0  0  0  0
    5.5250    3.2589    0.0000 H   0  0  0  0  0  0  0  0  0  0  0  0
    4.6494    3.2130    0.0000 H   0  0  0  0  0  0  0  0  0  0  0  0
    4.6952    2.3374    0.0000 H   0  0  0  0  0  0  0  0  0  0  0  0
  1 37  1  0  0  0  0
  2 22  1  0  0  0  0
  2 89  1  0  0  0  0
  3 22  2  0  0  0  0
  4 10  1  0  0  0  0
  4 11  1  0  0  0  0
  4 13  1  0  0  0  0
  5 12  1  0  0  0  0
  5 15  1  0  0  0  0
  5 16  1  0  0  0  0
  6  7  1  0  0  0  0
  6 21  1  0  0  0  0
  6 39  1  0  0  0  0
  7 30  2  0  0  0  0
  8  9  1  0  0  0  0
  8 10  1  0  0  0  0
  8 12  1  6  0  0  0
  8 42  1  0  0  0  0
  9 11  1  0  0  0  0
  9 17  1  1  0  0  0
  9 43  1  0  0  0  0
 10 44  1  0  0  0  0
 10 45  1  0  0  0  0
 11 46  1  0  0  0  0
 11 47  1  0  0  0  0
 12 48  1  0  0  0  0
 12 49  1  0  0  0  0
 13 20  1  0  0  0  0
 13 22  1  6  0  0  0
 13 50  1  0  0  0  0
 14 18  1  0  0  0  0
 14 19  1  0  0  0  0
 14 21  1  0  0  0  0
 14 51  1  0  0  0  0
 15 18  1  0  0  0  0
 15 52  1  0  0  0  0
 15 53  1  0  0  0  0
 16 19  1  0  0  0  0
 16 54  1  0  0  0  0
 16 55  1  0  0  0  0
 17 24  2  0  0  0  0
 17 25  1  0  0  0  0
 18 56  1  0  0  0  0
 18 57  1  0  0  0  0
 19 58  1  0  0  0  0
 19 59  1  0  0  0  0
 20 23  1  0  0  0  0
 20 26  1  1  0  0  0
 20 60  1  0  0  0  0
 21 28  2  0  0  0  0
 23 36  1  0  0  0  0
 23 61  1  0  0  0  0
 23 62  1  0  0  0  0
 24 37  1  0  0  0  0
 24 63  1  0  0  0  0
 25 38  2  0  0  0  0
 25 64  1  0  0  0  0
 26 66  1  0  0  0  0
 26 67  1  0  0  0  0
 26 68  1  0  0  0  0
 27 29  1  0  0  0  0
 27 31  1  0  0  0  0
 27 32  1  0  0  0  0
 27 65  1  0  0  0  0
 28 30  1  0  0  0  0
 28 69  1  0  0  0  0
 29 30  1  0  0  0  0
 29 70  1  0  0  0  0
 29 71  1  0  0  0  0
 31 33  1  0  0  0  0
 31 72  1  0  0  0  0
 31 73  1  0  0  0  0
 32 34  1  0  0  0  0
 32 74  1  0  0  0  0
 32 75  1  0  0  0  0
 33 35  1  0  0  0  0
 33 76  1  0  0  0  0
 33 77  1  0  0  0  0
 34 35  1  0  0  0  0
 34 78  1  0  0  0  0
 34 79  1  0  0  0  0
 35 80  1  0  0  0  0
 35 81  1  0  0  0  0
 36 82  1  0  0  0  0
 36 83  1  0  0  0  0
 36 84  1  0  0  0  0
 37 40  2  0  0  0  0
 38 40  1  0  0  0  0
 38 85  1  0  0  0  0
 39 41  1  0  0  0  0
 39 86  1  0  0  0  0
 39 87  1  0  0  0  0
 40 88  1  0  0  0  0
 41 90  1  0  0  0  0
 41 91  1  0  0  0  0
 41 92  1  0  0  0  0
M  END
> <PUBCHEM_COMPOUND_CID>
516204
> <PUBCHEM_COMPOUND_CANONICALIZED>
1
> <PUBCHEM_CACTVS_COMPLEXITY>
817
> <PUBCHEM_CACTVS_HBOND_ACCEPTOR>
6
> <PUBCHEM_CACTVS_HBOND_DONOR>
1
> <PUBCHEM_CACTVS_ROTATABLE_BOND>
11
> <PUBCHEM_CACTVS_SUBSKEYS>
AAADcfB/sQAAAAAAAAAAAAAAAAAAAWLAAAA8YIAAAAAAAAABwAAAHwAICAAADSjBngwyiJMIAgCqAyTyTACSBAAhggAY2CG4ZJgKIDLA0fGE5AhkiADYyAeYgMAOgAAAAAAAAAAAAAAAAAAAAAAAAAAAAA==
> <PUBCHEM_IUPAC_OPENEYE_NAME>
(2R,3S)-2-[(3S,4S)-3-[[4-[5-(cyclohexylmethyl)-2-ethyl-pyrazol-3-yl]-1-piperidyl]methyl]-4-(3-fluorophenyl)pyrrolidin-1-yl]-3-methyl-pentanoic acid
> <PUBCHEM_IUPAC_CAS_NAME>
(2R,3S)-2-[(3S,4S)-3-[[4-[5-(cyclohexylmethyl)-2-ethyl-3-pyrazolyl]-1-piperidinyl]methyl]-4-(3-fluorophenyl)-1-pyrrolidinyl]-3-methylpentanoic acid
> <PUBCHEM_IUPAC_NAME_MARKUP>
(2<I>R</I>,3<I>S</I>)-2-[(3<I>S</I>,4<I>S</I>)-3-[[4-[5-(cyclohexylmethyl)-2-ethylpyrazol-3-yl]piperidin-1-yl]methyl]-4-(3-fluorophenyl)pyrrolidin-1-yl]-3-methylpentanoic acid
> <PUBCHEM_IUPAC_NAME>
(2R,3S)-2-[(3S,4S)-3-[[4-[5-(cyclohexylmethyl)-2-ethylpyrazol-3-yl]piperidin-1-yl]methyl]-4-(3-fluorophenyl)pyrrolidin-1-yl]-3-methylpentanoic acid
> <PUBCHEM_IUPAC_SYSTEMATIC_NAME>
(2R,3S)-2-[(3S,4S)-3-[[4-[5-(cyclohexylmethyl)-2-ethyl-pyrazol-3-yl]piperidin-1-yl]methyl]-4-(3-fluorophenyl)pyrrolidin-1-yl]-3-methyl-pentanoic acid
> <PUBCHEM_IUPAC_TRADITIONAL_NAME>
(2R,3S)-2-[(3S,4S)-3-[[4-[5-(cyclohexylmethyl)-2-ethyl-pyrazol-3-yl]piperidino]methyl]-4-(3-fluorophenyl)pyrrolidino]-3-methyl-valeric acid
> <PUBCHEM_IUPAC_INCHI>
InChI=1S/C34H51FN4O2/c1-4-24(3)33(34(40)41)38-22-28(31(23-38)27-12-9-13-29(35)19-27)21-37-16-14-26(15-17-37)32-20-30(36-39(32)5-2)18-25-10-7-6-8-11-25/h9,12-13,19-20,24-26,28,31,33H,4-8,10-11,14-18,21-23H2,1-3H3,(H,40,41)/t24-,28-,31+,33+/m0/s1
> <PUBCHEM_IUPAC_INCHIKEY>
PQVFHJADTQQVLM-ONPYCXCXSA-N
> <PUBCHEM_XLOGP3_AA>
5.1
> <PUBCHEM_EXACT_MASS>
566.39960504
> <PUBCHEM_MOLECULAR_FORMULA>
C34H51FN4O2
> <PUBCHEM_MOLECULAR_WEIGHT>
566.8
> <PUBCHEM_OPENEYE_CAN_SMILES>
CCC(C)C(C(=O)O)N1CC(C(C1)C2=CC(=CC=C2)F)CN3CCC(CC3)C4=CC(=NN4CC)CC5CCCCC5
> <PUBCHEM_OPENEYE_ISO_SMILES>
CC[C@H](C)[C@H](C(=O)O)N1C[C@@H]([C@H](C1)C2=CC(=CC=C2)F)CN3CCC(CC3)C4=CC(=NN4CC)CC5CCCCC5
> <PUBCHEM_CACTVS_TPSA>
61.6
> <PUBCHEM_MONOISOTOPIC_WEIGHT>
566.39960504
> <PUBCHEM_TOTAL_CHARGE>
0
> <PUBCHEM_HEAVY_ATOM_COUNT>
41
> <PUBCHEM_ATOM_DEF_STEREO_COUNT>
4
> <PUBCHEM_ATOM_UDEF_STEREO_COUNT>
0
> <PUBCHEM_BOND_DEF_STEREO_COUNT>
0
> <PUBCHEM_BOND_UDEF_STEREO_COUNT>
0
> <PUBCHEM_ISOTOPIC_ATOM_COUNT>
0
> <PUBCHEM_COMPONENT_COUNT>
1
> <PUBCHEM_CACTVS_TAUTO_COUNT>
-1
> <PUBCHEM_COORDINATE_TYPE>
1
5
255
> <PUBCHEM_BONDANNOTATIONS>
13  22  6
17  24  8
17  25  8
20  26  5
21  28  8
24  37  8
25  38  8
28  30  8
37  40  8
38  40  8
6  21  8
6  7  8
7  30  8
8  12  6
9  17  5
$$$$
