516244
  -OEChem-10302200282D
 99103  0     1  0  0  0  0  0999 V2000
    7.7132   -9.1181    0.0000 F   0  0  0  0  0  0  0  0  0  0  0  0
    2.7688   -4.0428    0.0000 O   0  0  0  0  0  0  0  0  0  0  0  0
    4.3511   -3.3384    0.0000 O   0  0  0  0  0  0  0  0  0  0  0  0
    7.0742    5.6730    0.0000 O   0  0  0  0  0  0  0  0  0  0  0  0
    5.1646   -5.1654    0.0000 N   0  0  3  0  0  0  0  0  0  0  0  0
    7.6133   -3.3290    0.0000 N   0  0  0  0  0  0  0  0  0  0  0  0
    6.8043    0.2587    0.0000 N   0  0  0  0  0  0  0  0  0  0  0  0
    7.1133    1.2098    0.0000 N   0  0  0  0  0  0  0  0  0  0  0  0
    6.7473   -4.8290    0.0000 C   0  0  2  0  0  0  0  0  0  0  0  0
    6.6428   -5.8236    0.0000 C   0  0  2  0  0  0  0  0  0  0  0  0
    5.8338   -4.4223    0.0000 C   0  0  0  0  0  0  0  0  0  0  0  0
    5.6646   -6.0315    0.0000 C   0  0  0  0  0  0  0  0  0  0  0  0
    7.6133   -4.3290    0.0000 C   0  0  0  0  0  0  0  0  0  0  0  0
    4.1701   -5.0609    0.0000 C   0  0  2  0  0  0  0  0  0  0  0  0
    7.3859   -6.4927    0.0000 C   0  0  0  0  0  0  0  0  0  0  0  0
    6.7473   -2.8290    0.0000 C   0  0  0  0  0  0  0  0  0  0  0  0
    8.4793   -2.8290    0.0000 C   0  0  0  0  0  0  0  0  0  0  0  0
    7.6133   -1.3290    0.0000 C   0  0  0  0  0  0  0  0  0  0  0  0
    3.5823   -5.8699    0.0000 C   0  0  1  0  0  0  0  0  0  0  0  0
    6.7473   -1.8290    0.0000 C   0  0  0  0  0  0  0  0  0  0  0  0
    8.4793   -1.8290    0.0000 C   0  0  0  0  0  0  0  0  0  0  0  0
    3.7634   -4.1474    0.0000 C   0  0  0  0  0  0  0  0  0  0  0  0
    2.5878   -5.7654    0.0000 C   0  0  0  0  0  0  0  0  0  0  0  0
    7.6133   -0.3290    0.0000 C   0  0  0  0  0  0  0  0  0  0  0  0
    7.1780   -7.4708    0.0000 C   0  0  0  0  0  0  0  0  0  0  0  0
    8.3370   -6.1837    0.0000 C   0  0  0  0  0  0  0  0  0  0  0  0
    3.9890   -6.7835    0.0000 C   0  0  0  0  0  0  0  0  0  0  0  0
    8.4223    0.2587    0.0000 C   0  0  0  0  0  0  0  0  0  0  0  0
    2.0000   -6.5744    0.0000 C   0  0  0  0  0  0  0  0  0  0  0  0
    7.9211   -8.1400    0.0000 C   0  0  0  0  0  0  0  0  0  0  0  0
    9.0801   -6.8528    0.0000 C   0  0  0  0  0  0  0  0  0  0  0  0
    8.8722   -7.8310    0.0000 C   0  0  0  0  0  0  0  0  0  0  0  0
    8.1133    1.2098    0.0000 C   0  0  0  0  0  0  0  0  0  0  0  0
    5.8532   -0.0503    0.0000 C   0  0  0  0  0  0  0  0  0  0  0  0
    8.7011    2.0188    0.0000 C   0  0  0  0  0  0  0  0  0  0  0  0
    5.1101    0.6189    0.0000 C   0  0  0  0  0  0  0  0  0  0  0  0
    8.2944    2.9324    0.0000 C   0  0  0  0  0  0  0  0  0  0  0  0
    7.2998    3.0369    0.0000 C   0  0  0  0  0  0  0  0  0  0  0  0
    8.8822    3.7414    0.0000 C   0  0  0  0  0  0  0  0  0  0  0  0
    6.8931    3.9504    0.0000 C   0  0  0  0  0  0  0  0  0  0  0  0
    8.4754    4.6549    0.0000 C   0  0  0  0  0  0  0  0  0  0  0  0
    7.4809    4.7594    0.0000 C   0  0  0  0  0  0  0  0  0  0  0  0
    7.6619    6.4820    0.0000 C   0  0  0  0  0  0  0  0  0  0  0  0
    7.2552    7.3956    0.0000 C   0  0  0  0  0  0  0  0  0  0  0  0
    7.8430    8.2046    0.0000 C   0  0  0  0  0  0  0  0  0  0  0  0
    7.4362    9.1181    0.0000 C   0  0  0  0  0  0  0  0  0  0  0  0
    6.7148   -4.2099    0.0000 H   0  0  0  0  0  0  0  0  0  0  0  0
    6.4823   -6.4224    0.0000 H   0  0  0  0  0  0  0  0  0  0  0  0
    6.1437   -3.8854    0.0000 H   0  0  0  0  0  0  0  0  0  0  0  0
    5.3322   -4.0579    0.0000 H   0  0  0  0  0  0  0  0  0  0  0  0
    5.0982   -6.2836    0.0000 H   0  0  0  0  0  0  0  0  0  0  0  0
    5.8562   -6.6211    0.0000 H   0  0  0  0  0  0  0  0  0  0  0  0
    7.8254   -4.9116    0.0000 H   0  0  0  0  0  0  0  0  0  0  0  0
    8.2239   -4.2214    0.0000 H   0  0  0  0  0  0  0  0  0  0  0  0
    4.5345   -4.5593    0.0000 H   0  0  0  0  0  0  0  0  0  0  0  0
    6.1367   -2.7214    0.0000 H   0  0  0  0  0  0  0  0  0  0  0  0
    6.5352   -3.4116    0.0000 H   0  0  0  0  0  0  0  0  0  0  0  0
    8.6914   -3.4116    0.0000 H   0  0  0  0  0  0  0  0  0  0  0  0
    9.0899   -2.7214    0.0000 H   0  0  0  0  0  0  0  0  0  0  0  0
    7.0764   -1.0190    0.0000 H   0  0  0  0  0  0  0  0  0  0  0  0
    4.1989   -5.9348    0.0000 H   0  0  0  0  0  0  0  0  0  0  0  0
    6.5352   -1.2464    0.0000 H   0  0  0  0  0  0  0  0  0  0  0  0
    6.1367   -1.9367    0.0000 H   0  0  0  0  0  0  0  0  0  0  0  0
    9.0899   -1.9367    0.0000 H   0  0  0  0  0  0  0  0  0  0  0  0
    8.6914   -1.2464    0.0000 H   0  0  0  0  0  0  0  0  0  0  0  0
    2.7587   -5.1694    0.0000 H   0  0  0  0  0  0  0  0  0  0  0  0
    2.0305   -5.4936    0.0000 H   0  0  0  0  0  0  0  0  0  0  0  0
    6.5883   -7.6624    0.0000 H   0  0  0  0  0  0  0  0  0  0  0  0
    8.4659   -5.5772    0.0000 H   0  0  0  0  0  0  0  0  0  0  0  0
    3.4226   -7.0357    0.0000 H   0  0  0  0  0  0  0  0  0  0  0  0
    4.2412   -7.3499    0.0000 H   0  0  0  0  0  0  0  0  0  0  0  0
    4.5554   -6.5313    0.0000 H   0  0  0  0  0  0  0  0  0  0  0  0
    9.0120    0.0672    0.0000 H   0  0  0  0  0  0  0  0  0  0  0  0
    1.4984   -6.2100    0.0000 H   0  0  0  0  0  0  0  0  0  0  0  0
    1.6356   -7.0760    0.0000 H   0  0  0  0  0  0  0  0  0  0  0  0
    2.5016   -6.9389    0.0000 H   0  0  0  0  0  0  0  0  0  0  0  0
    9.6698   -6.6612    0.0000 H   0  0  0  0  0  0  0  0  0  0  0  0
    9.3330   -8.2458    0.0000 H   0  0  0  0  0  0  0  0  0  0  0  0
    2.5167   -3.4764    0.0000 H   0  0  0  0  0  0  0  0  0  0  0  0
    5.3647   -0.4320    0.0000 H   0  0  0  0  0  0  0  0  0  0  0  0
    6.1443   -0.5977    0.0000 H   0  0  0  0  0  0  0  0  0  0  0  0
    9.1318    1.5728    0.0000 H   0  0  0  0  0  0  0  0  0  0  0  0
    9.2151    2.3655    0.0000 H   0  0  0  0  0  0  0  0  0  0  0  0
    5.5250    1.0796    0.0000 H   0  0  0  0  0  0  0  0  0  0  0  0
    4.6494    1.0337    0.0000 H   0  0  0  0  0  0  0  0  0  0  0  0
    4.6952    0.1581    0.0000 H   0  0  0  0  0  0  0  0  0  0  0  0
    6.9354    2.5353    0.0000 H   0  0  0  0  0  0  0  0  0  0  0  0
    9.4988    3.6766    0.0000 H   0  0  0  0  0  0  0  0  0  0  0  0
    6.2765    4.0152    0.0000 H   0  0  0  0  0  0  0  0  0  0  0  0
    8.8398    5.1565    0.0000 H   0  0  0  0  0  0  0  0  0  0  0  0
    8.0926    6.0360    0.0000 H   0  0  0  0  0  0  0  0  0  0  0  0
    8.1759    6.8287    0.0000 H   0  0  0  0  0  0  0  0  0  0  0  0
    6.8245    7.8416    0.0000 H   0  0  0  0  0  0  0  0  0  0  0  0
    6.7412    7.0489    0.0000 H   0  0  0  0  0  0  0  0  0  0  0  0
    8.2737    7.7586    0.0000 H   0  0  0  0  0  0  0  0  0  0  0  0
    8.3570    8.5513    0.0000 H   0  0  0  0  0  0  0  0  0  0  0  0
    8.0026    9.3703    0.0000 H   0  0  0  0  0  0  0  0  0  0  0  0
    7.1841    9.6845    0.0000 H   0  0  0  0  0  0  0  0  0  0  0  0
    6.8698    8.8659    0.0000 H   0  0  0  0  0  0  0  0  0  0  0  0
  1 30  1  0  0  0  0
  2 22  1  0  0  0  0
  2 79  1  0  0  0  0
  3 22  2  0  0  0  0
  4 42  1  0  0  0  0
  4 43  1  0  0  0  0
  5 11  1  0  0  0  0
  5 12  1  0  0  0  0
  5 14  1  0  0  0  0
  6 13  1  0  0  0  0
  6 16  1  0  0  0  0
  6 17  1  0  0  0  0
  7  8  1  0  0  0  0
  7 24  1  0  0  0  0
  7 34  1  0  0  0  0
  8 33  2  0  0  0  0
  9 10  1  0  0  0  0
  9 11  1  0  0  0  0
  9 13  1  6  0  0  0
  9 47  1  0  0  0  0
 10 12  1  0  0  0  0
 10 15  1  1  0  0  0
 10 48  1  0  0  0  0
 11 49  1  0  0  0  0
 11 50  1  0  0  0  0
 12 51  1  0  0  0  0
 12 52  1  0  0  0  0
 13 53  1  0  0  0  0
 13 54  1  0  0  0  0
 14 19  1  0  0  0  0
 14 22  1  6  0  0  0
 14 55  1  0  0  0  0
 15 25  2  0  0  0  0
 15 26  1  0  0  0  0
 16 20  1  0  0  0  0
 16 56  1  0  0  0  0
 16 57  1  0  0  0  0
 17 21  1  0  0  0  0
 17 58  1  0  0  0  0
 17 59  1  0  0  0  0
 18 20  1  0  0  0  0
 18 21  1  0  0  0  0
 18 24  1  0  0  0  0
 18 60  1  0  0  0  0
 19 23  1  0  0  0  0
 19 27  1  6  0  0  0
 19 61  1  0  0  0  0
 20 62  1  0  0  0  0
 20 63  1  0  0  0  0
 21 64  1  0  0  0  0
 21 65  1  0  0  0  0
 23 29  1  0  0  0  0
 23 66  1  0  0  0  0
 23 67  1  0  0  0  0
 24 28  2  0  0  0  0
 25 30  1  0  0  0  0
 25 68  1  0  0  0  0
 26 31  2  0  0  0  0
 26 69  1  0  0  0  0
 27 70  1  0  0  0  0
 27 71  1  0  0  0  0
 27 72  1  0  0  0  0
 28 33  1  0  0  0  0
 28 73  1  0  0  0  0
 29 74  1  0  0  0  0
 29 75  1  0  0  0  0
 29 76  1  0  0  0  0
 30 32  2  0  0  0  0
 31 32  1  0  0  0  0
 31 77  1  0  0  0  0
 32 78  1  0  0  0  0
 33 35  1  0  0  0  0
 34 36  1  0  0  0  0
 34 80  1  0  0  0  0
 34 81  1  0  0  0  0
 35 37  1  0  0  0  0
 35 82  1  0  0  0  0
 35 83  1  0  0  0  0
 36 84  1  0  0  0  0
 36 85  1  0  0  0  0
 36 86  1  0  0  0  0
 37 38  2  0  0  0  0
 37 39  1  0  0  0  0
 38 40  1  0  0  0  0
 38 87  1  0  0  0  0
 39 41  2  0  0  0  0
 39 88  1  0  0  0  0
 40 42  2  0  0  0  0
 40 89  1  0  0  0  0
 41 42  1  0  0  0  0
 41 90  1  0  0  0  0
 43 44  1  0  0  0  0
 43 91  1  0  0  0  0
 43 92  1  0  0  0  0
 44 45  1  0  0  0  0
 44 93  1  0  0  0  0
 44 94  1  0  0  0  0
 45 46  1  0  0  0  0
 45 95  1  0  0  0  0
 45 96  1  0  0  0  0
 46 97  1  0  0  0  0
 46 98  1  0  0  0  0
 46 99  1  0  0  0  0
M  END
> <PUBCHEM_COMPOUND_CID>
516244
> <PUBCHEM_COMPOUND_CANONICALIZED>
1
> <PUBCHEM_CACTVS_COMPLEXITY>
910
> <PUBCHEM_CACTVS_HBOND_ACCEPTOR>
7
> <PUBCHEM_CACTVS_HBOND_DONOR>
1
> <PUBCHEM_CACTVS_ROTATABLE_BOND>
15
> <PUBCHEM_CACTVS_SUBSKEYS>
AAADcfB/sQAAAAAAAAAAAAAAAAAAAWLAAAA8YIAAAAAAAAAB0AAAHwAICAAADSzhng4yjpMIBgCqAyTyTACSDAAhogAY2CG+bJgOJjLE8fuG/CjkyBHY6AeYwOAOoAAAAAAAAABAAAAAAAAAAAAAAAAAAA==
> <PUBCHEM_IUPAC_OPENEYE_NAME>
(2R,3R)-2-[(3S,4S)-3-[[4-[5-[(4-butoxyphenyl)methyl]-2-ethyl-pyrazol-3-yl]-1-piperidyl]methyl]-4-(3-fluorophenyl)pyrrolidin-1-yl]-3-methyl-pentanoic acid
> <PUBCHEM_IUPAC_CAS_NAME>
(2R,3R)-2-[(3S,4S)-3-[[4-[5-[(4-butoxyphenyl)methyl]-2-ethyl-3-pyrazolyl]-1-piperidinyl]methyl]-4-(3-fluorophenyl)-1-pyrrolidinyl]-3-methylpentanoic acid
> <PUBCHEM_IUPAC_NAME_MARKUP>
(2<I>R</I>,3<I>R</I>)-2-[(3<I>S</I>,4<I>S</I>)-3-[[4-[5-[(4-butoxyphenyl)methyl]-2-ethylpyrazol-3-yl]piperidin-1-yl]methyl]-4-(3-fluorophenyl)pyrrolidin-1-yl]-3-methylpentanoic acid
> <PUBCHEM_IUPAC_NAME>
(2R,3R)-2-[(3S,4S)-3-[[4-[5-[(4-butoxyphenyl)methyl]-2-ethylpyrazol-3-yl]piperidin-1-yl]methyl]-4-(3-fluorophenyl)pyrrolidin-1-yl]-3-methylpentanoic acid
> <PUBCHEM_IUPAC_SYSTEMATIC_NAME>
(2R,3R)-2-[(3S,4S)-3-[[4-[5-[(4-butoxyphenyl)methyl]-2-ethyl-pyrazol-3-yl]piperidin-1-yl]methyl]-4-(3-fluorophenyl)pyrrolidin-1-yl]-3-methyl-pentanoic acid
> <PUBCHEM_IUPAC_TRADITIONAL_NAME>
(2R,3R)-2-[(3S,4S)-3-[[4-[5-(4-butoxybenzyl)-2-ethyl-pyrazol-3-yl]piperidino]methyl]-4-(3-fluorophenyl)pyrrolidino]-3-methyl-valeric acid
> <PUBCHEM_IUPAC_INCHI>
InChI=1S/C38H53FN4O3/c1-5-8-20-46-34-14-12-28(13-15-34)21-33-23-36(43(7-3)40-33)29-16-18-41(19-17-29)24-31-25-42(37(38(44)45)27(4)6-2)26-35(31)30-10-9-11-32(39)22-30/h9-15,22-23,27,29,31,35,37H,5-8,16-21,24-26H2,1-4H3,(H,44,45)/t27-,31+,35-,37-/m1/s1
> <PUBCHEM_IUPAC_INCHIKEY>
DKLYXIOKIUWOPO-OQJGNAAVSA-N
> <PUBCHEM_XLOGP3_AA>
5.3
> <PUBCHEM_EXACT_MASS>
632.41016973
> <PUBCHEM_MOLECULAR_FORMULA>
C38H53FN4O3
> <PUBCHEM_MOLECULAR_WEIGHT>
632.8
> <PUBCHEM_OPENEYE_CAN_SMILES>
CCCCOC1=CC=C(C=C1)CC2=NN(C(=C2)C3CCN(CC3)CC4CN(CC4C5=CC(=CC=C5)F)C(C(C)CC)C(=O)O)CC
> <PUBCHEM_OPENEYE_ISO_SMILES>
CCCCOC1=CC=C(C=C1)CC2=NN(C(=C2)C3CCN(CC3)C[C@H]4CN(C[C@@H]4C5=CC(=CC=C5)F)[C@H]([C@H](C)CC)C(=O)O)CC
> <PUBCHEM_CACTVS_TPSA>
70.8
> <PUBCHEM_MONOISOTOPIC_WEIGHT>
632.41016973
> <PUBCHEM_TOTAL_CHARGE>
0
> <PUBCHEM_HEAVY_ATOM_COUNT>
46
> <PUBCHEM_ATOM_DEF_STEREO_COUNT>
4
> <PUBCHEM_ATOM_UDEF_STEREO_COUNT>
0
> <PUBCHEM_BOND_DEF_STEREO_COUNT>
0
> <PUBCHEM_BOND_UDEF_STEREO_COUNT>
0
> <PUBCHEM_ISOTOPIC_ATOM_COUNT>
0
> <PUBCHEM_COMPONENT_COUNT>
1
> <PUBCHEM_CACTVS_TAUTO_COUNT>
-1
> <PUBCHEM_COORDINATE_TYPE>
1
5
255
> <PUBCHEM_BONDANNOTATIONS>
10  15  5
14  22  6
15  25  8
15  26  8
19  27  6
24  28  8
25  30  8
26  31  8
28  33  8
30  32  8
31  32  8
37  38  8
37  39  8
38  40  8
39  41  8
40  42  8
41  42  8
7  24  8
7  8  8
8  33  8
9  13  6
$$$$
