516214
  -OEChem-10302200282D
 96100  0     1  0  0  0  0  0999 V2000
    7.7132   -8.6614    0.0000 F   0  0  0  0  0  0  0  0  0  0  0  0
    2.7688   -3.5861    0.0000 O   0  0  0  0  0  0  0  0  0  0  0  0
    4.3511   -2.8816    0.0000 O   0  0  0  0  0  0  0  0  0  0  0  0
    7.0742    6.1298    0.0000 O   0  0  0  0  0  0  0  0  0  0  0  0
    5.1646   -4.7087    0.0000 N   0  0  3  0  0  0  0  0  0  0  0  0
    7.6133   -2.8723    0.0000 N   0  0  0  0  0  0  0  0  0  0  0  0
    6.8043    0.7155    0.0000 N   0  0  0  0  0  0  0  0  0  0  0  0
    7.1133    1.6666    0.0000 N   0  0  0  0  0  0  0  0  0  0  0  0
    6.7473   -4.3723    0.0000 C   0  0  2  0  0  0  0  0  0  0  0  0
    6.6428   -5.3668    0.0000 C   0  0  2  0  0  0  0  0  0  0  0  0
    5.8338   -3.9655    0.0000 C   0  0  0  0  0  0  0  0  0  0  0  0
    5.6646   -5.5747    0.0000 C   0  0  0  0  0  0  0  0  0  0  0  0
    7.6133   -3.8723    0.0000 C   0  0  0  0  0  0  0  0  0  0  0  0
    4.1701   -4.6042    0.0000 C   0  0  2  0  0  0  0  0  0  0  0  0
    7.3859   -6.0359    0.0000 C   0  0  0  0  0  0  0  0  0  0  0  0
    6.7473   -2.3723    0.0000 C   0  0  0  0  0  0  0  0  0  0  0  0
    8.4793   -2.3723    0.0000 C   0  0  0  0  0  0  0  0  0  0  0  0
    7.6133   -0.8723    0.0000 C   0  0  0  0  0  0  0  0  0  0  0  0
    3.5823   -5.4132    0.0000 C   0  0  2  0  0  0  0  0  0  0  0  0
    6.7473   -1.3723    0.0000 C   0  0  0  0  0  0  0  0  0  0  0  0
    8.4793   -1.3723    0.0000 C   0  0  0  0  0  0  0  0  0  0  0  0
    3.7634   -3.6906    0.0000 C   0  0  0  0  0  0  0  0  0  0  0  0
    2.5878   -5.3086    0.0000 C   0  0  0  0  0  0  0  0  0  0  0  0
    7.6133    0.1277    0.0000 C   0  0  0  0  0  0  0  0  0  0  0  0
    7.1780   -7.0141    0.0000 C   0  0  0  0  0  0  0  0  0  0  0  0
    8.3370   -5.7269    0.0000 C   0  0  0  0  0  0  0  0  0  0  0  0
    3.9890   -6.3267    0.0000 C   0  0  0  0  0  0  0  0  0  0  0  0
    8.4223    0.7155    0.0000 C   0  0  0  0  0  0  0  0  0  0  0  0
    2.0000   -6.1177    0.0000 C   0  0  0  0  0  0  0  0  0  0  0  0
    7.9211   -7.6832    0.0000 C   0  0  0  0  0  0  0  0  0  0  0  0
    9.0801   -6.3960    0.0000 C   0  0  0  0  0  0  0  0  0  0  0  0
    8.8722   -7.3742    0.0000 C   0  0  0  0  0  0  0  0  0  0  0  0
    8.1133    1.6666    0.0000 C   0  0  0  0  0  0  0  0  0  0  0  0
    5.8532    0.4065    0.0000 C   0  0  0  0  0  0  0  0  0  0  0  0
    8.7011    2.4756    0.0000 C   0  0  0  0  0  0  0  0  0  0  0  0
    5.1101    1.0756    0.0000 C   0  0  0  0  0  0  0  0  0  0  0  0
    8.2944    3.3891    0.0000 C   0  0  0  0  0  0  0  0  0  0  0  0
    7.2998    3.4937    0.0000 C   0  0  0  0  0  0  0  0  0  0  0  0
    8.8822    4.1982    0.0000 C   0  0  0  0  0  0  0  0  0  0  0  0
    6.8931    4.4072    0.0000 C   0  0  0  0  0  0  0  0  0  0  0  0
    8.4754    5.1117    0.0000 C   0  0  0  0  0  0  0  0  0  0  0  0
    7.4809    5.2162    0.0000 C   0  0  0  0  0  0  0  0  0  0  0  0
    7.6619    6.9388    0.0000 C   0  0  0  0  0  0  0  0  0  0  0  0
    7.2552    7.8523    0.0000 C   0  0  0  0  0  0  0  0  0  0  0  0
    7.8430    8.6614    0.0000 C   0  0  0  0  0  0  0  0  0  0  0  0
    7.2673   -4.7100    0.0000 H   0  0  0  0  0  0  0  0  0  0  0  0
    7.2216   -5.1446    0.0000 H   0  0  0  0  0  0  0  0  0  0  0  0
    6.1437   -3.4286    0.0000 H   0  0  0  0  0  0  0  0  0  0  0  0
    5.3322   -3.6011    0.0000 H   0  0  0  0  0  0  0  0  0  0  0  0
    5.0982   -5.8269    0.0000 H   0  0  0  0  0  0  0  0  0  0  0  0
    5.8562   -6.1644    0.0000 H   0  0  0  0  0  0  0  0  0  0  0  0
    7.8254   -4.4549    0.0000 H   0  0  0  0  0  0  0  0  0  0  0  0
    8.2239   -3.7646    0.0000 H   0  0  0  0  0  0  0  0  0  0  0  0
    4.5345   -4.1026    0.0000 H   0  0  0  0  0  0  0  0  0  0  0  0
    6.1367   -2.2646    0.0000 H   0  0  0  0  0  0  0  0  0  0  0  0
    6.5352   -2.9549    0.0000 H   0  0  0  0  0  0  0  0  0  0  0  0
    8.6914   -2.9549    0.0000 H   0  0  0  0  0  0  0  0  0  0  0  0
    9.0899   -2.2646    0.0000 H   0  0  0  0  0  0  0  0  0  0  0  0
    7.0764   -0.5623    0.0000 H   0  0  0  0  0  0  0  0  0  0  0  0
    3.2179   -5.9148    0.0000 H   0  0  0  0  0  0  0  0  0  0  0  0
    6.5352   -0.7897    0.0000 H   0  0  0  0  0  0  0  0  0  0  0  0
    6.1367   -1.4799    0.0000 H   0  0  0  0  0  0  0  0  0  0  0  0
    9.0899   -1.4799    0.0000 H   0  0  0  0  0  0  0  0  0  0  0  0
    8.6914   -0.7897    0.0000 H   0  0  0  0  0  0  0  0  0  0  0  0
    2.7587   -4.7127    0.0000 H   0  0  0  0  0  0  0  0  0  0  0  0
    2.0305   -5.0368    0.0000 H   0  0  0  0  0  0  0  0  0  0  0  0
    6.5883   -7.2057    0.0000 H   0  0  0  0  0  0  0  0  0  0  0  0
    8.4659   -5.1204    0.0000 H   0  0  0  0  0  0  0  0  0  0  0  0
    3.4226   -6.5789    0.0000 H   0  0  0  0  0  0  0  0  0  0  0  0
    4.2412   -6.8931    0.0000 H   0  0  0  0  0  0  0  0  0  0  0  0
    4.5554   -6.0745    0.0000 H   0  0  0  0  0  0  0  0  0  0  0  0
    9.0120    0.5239    0.0000 H   0  0  0  0  0  0  0  0  0  0  0  0
    1.4984   -5.7532    0.0000 H   0  0  0  0  0  0  0  0  0  0  0  0
    1.6356   -6.6192    0.0000 H   0  0  0  0  0  0  0  0  0  0  0  0
    2.5016   -6.4821    0.0000 H   0  0  0  0  0  0  0  0  0  0  0  0
    9.6698   -6.2044    0.0000 H   0  0  0  0  0  0  0  0  0  0  0  0
    9.3330   -7.7890    0.0000 H   0  0  0  0  0  0  0  0  0  0  0  0
    2.5167   -3.0197    0.0000 H   0  0  0  0  0  0  0  0  0  0  0  0
    5.3647    0.0248    0.0000 H   0  0  0  0  0  0  0  0  0  0  0  0
    6.1443   -0.1409    0.0000 H   0  0  0  0  0  0  0  0  0  0  0  0
    9.1318    2.0296    0.0000 H   0  0  0  0  0  0  0  0  0  0  0  0
    9.2151    2.8223    0.0000 H   0  0  0  0  0  0  0  0  0  0  0  0
    5.5250    1.5364    0.0000 H   0  0  0  0  0  0  0  0  0  0  0  0
    4.6494    1.4905    0.0000 H   0  0  0  0  0  0  0  0  0  0  0  0
    4.6952    0.6149    0.0000 H   0  0  0  0  0  0  0  0  0  0  0  0
    6.9354    2.9921    0.0000 H   0  0  0  0  0  0  0  0  0  0  0  0
    9.4988    4.1333    0.0000 H   0  0  0  0  0  0  0  0  0  0  0  0
    6.2765    4.4720    0.0000 H   0  0  0  0  0  0  0  0  0  0  0  0
    8.8398    5.6133    0.0000 H   0  0  0  0  0  0  0  0  0  0  0  0
    8.0926    6.4928    0.0000 H   0  0  0  0  0  0  0  0  0  0  0  0
    8.1759    7.2855    0.0000 H   0  0  0  0  0  0  0  0  0  0  0  0
    6.8245    8.2983    0.0000 H   0  0  0  0  0  0  0  0  0  0  0  0
    6.7412    7.5056    0.0000 H   0  0  0  0  0  0  0  0  0  0  0  0
    8.3446    8.2969    0.0000 H   0  0  0  0  0  0  0  0  0  0  0  0
    8.2074    9.1629    0.0000 H   0  0  0  0  0  0  0  0  0  0  0  0
    7.3414    9.0258    0.0000 H   0  0  0  0  0  0  0  0  0  0  0  0
  1 30  1  0  0  0  0
  2 22  1  0  0  0  0
  2 78  1  0  0  0  0
  3 22  2  0  0  0  0
  4 42  1  0  0  0  0
  4 43  1  0  0  0  0
  5 11  1  0  0  0  0
  5 12  1  0  0  0  0
  5 14  1  0  0  0  0
  6 13  1  0  0  0  0
  6 16  1  0  0  0  0
  6 17  1  0  0  0  0
  7  8  1  0  0  0  0
  7 24  1  0  0  0  0
  7 34  1  0  0  0  0
  8 33  2  0  0  0  0
  9 10  1  0  0  0  0
  9 11  1  0  0  0  0
  9 13  1  6  0  0  0
  9 46  1  0  0  0  0
 10 12  1  0  0  0  0
 10 15  1  1  0  0  0
 10 47  1  0  0  0  0
 11 48  1  0  0  0  0
 11 49  1  0  0  0  0
 12 50  1  0  0  0  0
 12 51  1  0  0  0  0
 13 52  1  0  0  0  0
 13 53  1  0  0  0  0
 14 19  1  0  0  0  0
 14 22  1  6  0  0  0
 14 54  1  0  0  0  0
 15 25  2  0  0  0  0
 15 26  1  0  0  0  0
 16 20  1  0  0  0  0
 16 55  1  0  0  0  0
 16 56  1  0  0  0  0
 17 21  1  0  0  0  0
 17 57  1  0  0  0  0
 17 58  1  0  0  0  0
 18 20  1  0  0  0  0
 18 21  1  0  0  0  0
 18 24  1  0  0  0  0
 18 59  1  0  0  0  0
 19 23  1  0  0  0  0
 19 27  1  1  0  0  0
 19 60  1  0  0  0  0
 20 61  1  0  0  0  0
 20 62  1  0  0  0  0
 21 63  1  0  0  0  0
 21 64  1  0  0  0  0
 23 29  1  0  0  0  0
 23 65  1  0  0  0  0
 23 66  1  0  0  0  0
 24 28  2  0  0  0  0
 25 30  1  0  0  0  0
 25 67  1  0  0  0  0
 26 31  2  0  0  0  0
 26 68  1  0  0  0  0
 27 69  1  0  0  0  0
 27 70  1  0  0  0  0
 27 71  1  0  0  0  0
 28 33  1  0  0  0  0
 28 72  1  0  0  0  0
 29 73  1  0  0  0  0
 29 74  1  0  0  0  0
 29 75  1  0  0  0  0
 30 32  2  0  0  0  0
 31 32  1  0  0  0  0
 31 76  1  0  0  0  0
 32 77  1  0  0  0  0
 33 35  1  0  0  0  0
 34 36  1  0  0  0  0
 34 79  1  0  0  0  0
 34 80  1  0  0  0  0
 35 37  1  0  0  0  0
 35 81  1  0  0  0  0
 35 82  1  0  0  0  0
 36 83  1  0  0  0  0
 36 84  1  0  0  0  0
 36 85  1  0  0  0  0
 37 38  2  0  0  0  0
 37 39  1  0  0  0  0
 38 40  1  0  0  0  0
 38 86  1  0  0  0  0
 39 41  2  0  0  0  0
 39 87  1  0  0  0  0
 40 42  2  0  0  0  0
 40 88  1  0  0  0  0
 41 42  1  0  0  0  0
 41 89  1  0  0  0  0
 43 44  1  0  0  0  0
 43 90  1  0  0  0  0
 43 91  1  0  0  0  0
 44 45  1  0  0  0  0
 44 92  1  0  0  0  0
 44 93  1  0  0  0  0
 45 94  1  0  0  0  0
 45 95  1  0  0  0  0
 45 96  1  0  0  0  0
M  END
> <PUBCHEM_COMPOUND_CID>
516214
> <PUBCHEM_COMPOUND_CANONICALIZED>
1
> <PUBCHEM_CACTVS_COMPLEXITY>
895
> <PUBCHEM_CACTVS_HBOND_ACCEPTOR>
7
> <PUBCHEM_CACTVS_HBOND_DONOR>
1
> <PUBCHEM_CACTVS_ROTATABLE_BOND>
14
> <PUBCHEM_CACTVS_SUBSKEYS>
AAADcfB/sQAAAAAAAAAAAAAAAAAAAWLAAAA8YIAAAAAAAAAB0AAAHwAICAAADSzhng4yjpMIBgCqAyTyTACSDAAhogAY2CG+bJgOJjLE8fuG/CjkyBHY6AeYwOAOoAAAAAAAAABAAAAAAAAAAAAAAAAAAA==
> <PUBCHEM_IUPAC_OPENEYE_NAME>
(2R,3S)-2-[(3S,4S)-3-[[4-[2-ethyl-5-[(4-propoxyphenyl)methyl]pyrazol-3-yl]-1-piperidyl]methyl]-4-(3-fluorophenyl)pyrrolidin-1-yl]-3-methyl-pentanoic acid
> <PUBCHEM_IUPAC_CAS_NAME>
(2R,3S)-2-[(3S,4S)-3-[[4-[2-ethyl-5-[(4-propoxyphenyl)methyl]-3-pyrazolyl]-1-piperidinyl]methyl]-4-(3-fluorophenyl)-1-pyrrolidinyl]-3-methylpentanoic acid
> <PUBCHEM_IUPAC_NAME_MARKUP>
(2<I>R</I>,3<I>S</I>)-2-[(3<I>S</I>,4<I>S</I>)-3-[[4-[2-ethyl-5-[(4-propoxyphenyl)methyl]pyrazol-3-yl]piperidin-1-yl]methyl]-4-(3-fluorophenyl)pyrrolidin-1-yl]-3-methylpentanoic acid
> <PUBCHEM_IUPAC_NAME>
(2R,3S)-2-[(3S,4S)-3-[[4-[2-ethyl-5-[(4-propoxyphenyl)methyl]pyrazol-3-yl]piperidin-1-yl]methyl]-4-(3-fluorophenyl)pyrrolidin-1-yl]-3-methylpentanoic acid
> <PUBCHEM_IUPAC_SYSTEMATIC_NAME>
(2R,3S)-2-[(3S,4S)-3-[[4-[2-ethyl-5-[(4-propoxyphenyl)methyl]pyrazol-3-yl]piperidin-1-yl]methyl]-4-(3-fluorophenyl)pyrrolidin-1-yl]-3-methyl-pentanoic acid
> <PUBCHEM_IUPAC_TRADITIONAL_NAME>
(2R,3S)-2-[(3S,4S)-3-[[4-[2-ethyl-5-(4-propoxybenzyl)pyrazol-3-yl]piperidino]methyl]-4-(3-fluorophenyl)pyrrolidino]-3-methyl-valeric acid
> <PUBCHEM_IUPAC_INCHI>
InChI=1S/C37H51FN4O3/c1-5-19-45-33-13-11-27(12-14-33)20-32-22-35(42(7-3)39-32)28-15-17-40(18-16-28)23-30-24-41(36(37(43)44)26(4)6-2)25-34(30)29-9-8-10-31(38)21-29/h8-14,21-22,26,28,30,34,36H,5-7,15-20,23-25H2,1-4H3,(H,43,44)/t26-,30-,34+,36+/m0/s1
> <PUBCHEM_IUPAC_INCHIKEY>
OYAJBCNCCCHJQB-NGZLLANBSA-N
> <PUBCHEM_XLOGP3_AA>
4.9
> <PUBCHEM_EXACT_MASS>
618.39451966
> <PUBCHEM_MOLECULAR_FORMULA>
C37H51FN4O3
> <PUBCHEM_MOLECULAR_WEIGHT>
618.8
> <PUBCHEM_OPENEYE_CAN_SMILES>
CCCOC1=CC=C(C=C1)CC2=NN(C(=C2)C3CCN(CC3)CC4CN(CC4C5=CC(=CC=C5)F)C(C(C)CC)C(=O)O)CC
> <PUBCHEM_OPENEYE_ISO_SMILES>
CCCOC1=CC=C(C=C1)CC2=NN(C(=C2)C3CCN(CC3)C[C@H]4CN(C[C@@H]4C5=CC(=CC=C5)F)[C@H]([C@@H](C)CC)C(=O)O)CC
> <PUBCHEM_CACTVS_TPSA>
70.8
> <PUBCHEM_MONOISOTOPIC_WEIGHT>
618.39451966
> <PUBCHEM_TOTAL_CHARGE>
0
> <PUBCHEM_HEAVY_ATOM_COUNT>
45
> <PUBCHEM_ATOM_DEF_STEREO_COUNT>
4
> <PUBCHEM_ATOM_UDEF_STEREO_COUNT>
0
> <PUBCHEM_BOND_DEF_STEREO_COUNT>
0
> <PUBCHEM_BOND_UDEF_STEREO_COUNT>
0
> <PUBCHEM_ISOTOPIC_ATOM_COUNT>
0
> <PUBCHEM_COMPONENT_COUNT>
1
> <PUBCHEM_CACTVS_TAUTO_COUNT>
-1
> <PUBCHEM_COORDINATE_TYPE>
1
5
255
> <PUBCHEM_BONDANNOTATIONS>
10  15  5
14  22  6
15  25  8
15  26  8
19  27  5
24  28  8
25  30  8
26  31  8
28  33  8
30  32  8
31  32  8
37  38  8
37  39  8
38  40  8
39  41  8
40  42  8
41  42  8
7  24  8
7  8  8
8  33  8
9  13  6
$$$$
