516261
  -OEChem-10302200282D
 92 96  0     1  0  0  0  0  0999 V2000
    9.8078   -4.8535    0.0000 F   0  0  0  0  0  0  0  0  0  0  0  0
    2.3644   -4.0752    0.0000 O   0  0  0  0  0  0  0  0  0  0  0  0
    3.7657   -5.0932    0.0000 O   0  0  0  0  0  0  0  0  0  0  0  0
    4.9413   -3.4752    0.0000 N   0  0  3  0  0  0  0  0  0  0  0  0
    7.3900   -1.6388    0.0000 N   0  0  0  0  0  0  0  0  0  0  0  0
    6.5809    1.9490    0.0000 N   0  0  0  0  0  0  0  0  0  0  0  0
    6.8900    2.9001    0.0000 N   0  0  0  0  0  0  0  0  0  0  0  0
    6.5239   -3.1388    0.0000 C   0  0  2  0  0  0  0  0  0  0  0  0
    6.4194   -4.1333    0.0000 C   0  0  2  0  0  0  0  0  0  0  0  0
    5.6104   -2.7320    0.0000 C   0  0  0  0  0  0  0  0  0  0  0  0
    5.4413   -4.3412    0.0000 C   0  0  0  0  0  0  0  0  0  0  0  0
    7.3900   -2.6388    0.0000 C   0  0  0  0  0  0  0  0  0  0  0  0
    3.9467   -3.3707    0.0000 C   0  0  2  0  0  0  0  0  0  0  0  0
    3.5400   -2.4571    0.0000 C   0  0  0  0  0  0  0  0  0  0  0  0
    7.3900    0.3612    0.0000 C   0  0  0  0  0  0  0  0  0  0  0  0
    6.5239   -1.1388    0.0000 C   0  0  0  0  0  0  0  0  0  0  0  0
    8.2560   -1.1388    0.0000 C   0  0  0  0  0  0  0  0  0  0  0  0
    7.1626   -4.8024    0.0000 C   0  0  0  0  0  0  0  0  0  0  0  0
    6.5239   -0.1388    0.0000 C   0  0  0  0  0  0  0  0  0  0  0  0
    8.2560   -0.1388    0.0000 C   0  0  0  0  0  0  0  0  0  0  0  0
    7.3900    1.3612    0.0000 C   0  0  0  0  0  0  0  0  0  0  0  0
    3.3590   -4.1797    0.0000 C   0  0  0  0  0  0  0  0  0  0  0  0
    3.1333   -1.5436    0.0000 C   0  0  0  0  0  0  0  0  0  0  0  0
    2.6264   -2.8638    0.0000 C   0  0  0  0  0  0  0  0  0  0  0  0
    4.4535   -2.0504    0.0000 C   0  0  0  0  0  0  0  0  0  0  0  0
    8.1136   -4.4934    0.0000 C   0  0  0  0  0  0  0  0  0  0  0  0
    6.9546   -5.7806    0.0000 C   0  0  0  0  0  0  0  0  0  0  0  0
    8.0710    4.6226    0.0000 C   0  0  0  0  0  0  0  0  0  0  0  0
    8.1990    1.9490    0.0000 C   0  0  0  0  0  0  0  0  0  0  0  0
    8.4777    3.7091    0.0000 C   0  0  0  0  0  0  0  0  0  0  0  0
    7.8900    2.9001    0.0000 C   0  0  0  0  0  0  0  0  0  0  0  0
    8.6588    5.4316    0.0000 C   0  0  0  0  0  0  0  0  0  0  0  0
    7.0765    4.7272    0.0000 C   0  0  0  0  0  0  0  0  0  0  0  0
    8.2520    6.3452    0.0000 C   0  0  0  0  0  0  0  0  0  0  0  0
    6.6698    5.6407    0.0000 C   0  0  0  0  0  0  0  0  0  0  0  0
    7.2575    6.4497    0.0000 C   0  0  0  0  0  0  0  0  0  0  0  0
    8.8568   -5.1626    0.0000 C   0  0  0  0  0  0  0  0  0  0  0  0
    7.6978   -6.4497    0.0000 C   0  0  0  0  0  0  0  0  0  0  0  0
    5.6299    1.6400    0.0000 C   0  0  0  0  0  0  0  0  0  0  0  0
    8.6488   -6.1407    0.0000 C   0  0  0  0  0  0  0  0  0  0  0  0
    4.8867    2.3091    0.0000 C   0  0  0  0  0  0  0  0  0  0  0  0
    6.4915   -2.5196    0.0000 H   0  0  0  0  0  0  0  0  0  0  0  0
    6.2589   -4.7322    0.0000 H   0  0  0  0  0  0  0  0  0  0  0  0
    5.9204   -2.1951    0.0000 H   0  0  0  0  0  0  0  0  0  0  0  0
    5.1088   -2.3676    0.0000 H   0  0  0  0  0  0  0  0  0  0  0  0
    4.8749   -4.5934    0.0000 H   0  0  0  0  0  0  0  0  0  0  0  0
    5.6328   -4.9309    0.0000 H   0  0  0  0  0  0  0  0  0  0  0  0
    7.6020   -3.2214    0.0000 H   0  0  0  0  0  0  0  0  0  0  0  0
    8.0005   -2.5311    0.0000 H   0  0  0  0  0  0  0  0  0  0  0  0
    4.1989   -3.9371    0.0000 H   0  0  0  0  0  0  0  0  0  0  0  0
    7.9269    0.6712    0.0000 H   0  0  0  0  0  0  0  0  0  0  0  0
    5.9134   -1.0311    0.0000 H   0  0  0  0  0  0  0  0  0  0  0  0
    6.3119   -1.7214    0.0000 H   0  0  0  0  0  0  0  0  0  0  0  0
    8.4680   -1.7214    0.0000 H   0  0  0  0  0  0  0  0  0  0  0  0
    8.8666   -1.0311    0.0000 H   0  0  0  0  0  0  0  0  0  0  0  0
    6.3119    0.4438    0.0000 H   0  0  0  0  0  0  0  0  0  0  0  0
    5.9134   -0.2464    0.0000 H   0  0  0  0  0  0  0  0  0  0  0  0
    8.8666   -0.2464    0.0000 H   0  0  0  0  0  0  0  0  0  0  0  0
    8.4680    0.4438    0.0000 H   0  0  0  0  0  0  0  0  0  0  0  0
    3.6997   -1.2914    0.0000 H   0  0  0  0  0  0  0  0  0  0  0  0
    2.8811   -0.9772    0.0000 H   0  0  0  0  0  0  0  0  0  0  0  0
    2.5669   -1.7958    0.0000 H   0  0  0  0  0  0  0  0  0  0  0  0
    2.3743   -2.2975    0.0000 H   0  0  0  0  0  0  0  0  0  0  0  0
    2.0600   -3.1160    0.0000 H   0  0  0  0  0  0  0  0  0  0  0  0
    2.8786   -3.4302    0.0000 H   0  0  0  0  0  0  0  0  0  0  0  0
    4.7057   -2.6168    0.0000 H   0  0  0  0  0  0  0  0  0  0  0  0
    5.0199   -1.7982    0.0000 H   0  0  0  0  0  0  0  0  0  0  0  0
    4.2014   -1.4840    0.0000 H   0  0  0  0  0  0  0  0  0  0  0  0
    8.2425   -3.8870    0.0000 H   0  0  0  0  0  0  0  0  0  0  0  0
    6.3650   -5.9722    0.0000 H   0  0  0  0  0  0  0  0  0  0  0  0
    8.6876    4.5578    0.0000 H   0  0  0  0  0  0  0  0  0  0  0  0
    8.7886    1.7574    0.0000 H   0  0  0  0  0  0  0  0  0  0  0  0
    8.9084    3.2631    0.0000 H   0  0  0  0  0  0  0  0  0  0  0  0
    8.9918    4.0558    0.0000 H   0  0  0  0  0  0  0  0  0  0  0  0
    9.0895    4.9856    0.0000 H   0  0  0  0  0  0  0  0  0  0  0  0
    9.1728    5.7783    0.0000 H   0  0  0  0  0  0  0  0  0  0  0  0
    6.4749    4.5772    0.0000 H   0  0  0  0  0  0  0  0  0  0  0  0
    7.1197    4.1087    0.0000 H   0  0  0  0  0  0  0  0  0  0  0  0
    8.8536    6.4952    0.0000 H   0  0  0  0  0  0  0  0  0  0  0  0
    8.2088    6.9637    0.0000 H   0  0  0  0  0  0  0  0  0  0  0  0
    6.2391    6.0867    0.0000 H   0  0  0  0  0  0  0  0  0  0  0  0
    6.1557    5.2940    0.0000 H   0  0  0  0  0  0  0  0  0  0  0  0
    7.4284    7.0457    0.0000 H   0  0  0  0  0  0  0  0  0  0  0  0
    6.7003    6.7215    0.0000 H   0  0  0  0  0  0  0  0  0  0  0  0
    7.5689   -7.0562    0.0000 H   0  0  0  0  0  0  0  0  0  0  0  0
    5.1413    1.2583    0.0000 H   0  0  0  0  0  0  0  0  0  0  0  0
    5.9210    1.0926    0.0000 H   0  0  0  0  0  0  0  0  0  0  0  0
    2.0000   -4.5767    0.0000 H   0  0  0  0  0  0  0  0  0  0  0  0
    9.1096   -6.5556    0.0000 H   0  0  0  0  0  0  0  0  0  0  0  0
    5.3016    2.7699    0.0000 H   0  0  0  0  0  0  0  0  0  0  0  0
    4.4260    2.7240    0.0000 H   0  0  0  0  0  0  0  0  0  0  0  0
    4.4719    1.8484    0.0000 H   0  0  0  0  0  0  0  0  0  0  0  0
  1 37  1  0  0  0  0
  2 22  1  0  0  0  0
  2 88  1  0  0  0  0
  3 22  2  0  0  0  0
  4 10  1  0  0  0  0
  4 11  1  0  0  0  0
  4 13  1  0  0  0  0
  5 12  1  0  0  0  0
  5 16  1  0  0  0  0
  5 17  1  0  0  0  0
  6  7  1  0  0  0  0
  6 21  1  0  0  0  0
  6 39  1  0  0  0  0
  7 31  2  0  0  0  0
  8  9  1  0  0  0  0
  8 10  1  0  0  0  0
  8 12  1  6  0  0  0
  8 42  1  0  0  0  0
  9 11  1  0  0  0  0
  9 18  1  1  0  0  0
  9 43  1  0  0  0  0
 10 44  1  0  0  0  0
 10 45  1  0  0  0  0
 11 46  1  0  0  0  0
 11 47  1  0  0  0  0
 12 48  1  0  0  0  0
 12 49  1  0  0  0  0
 13 14  1  0  0  0  0
 13 22  1  1  0  0  0
 13 50  1  0  0  0  0
 14 23  1  0  0  0  0
 14 24  1  0  0  0  0
 14 25  1  0  0  0  0
 15 19  1  0  0  0  0
 15 20  1  0  0  0  0
 15 21  1  0  0  0  0
 15 51  1  0  0  0  0
 16 19  1  0  0  0  0
 16 52  1  0  0  0  0
 16 53  1  0  0  0  0
 17 20  1  0  0  0  0
 17 54  1  0  0  0  0
 17 55  1  0  0  0  0
 18 26  2  0  0  0  0
 18 27  1  0  0  0  0
 19 56  1  0  0  0  0
 19 57  1  0  0  0  0
 20 58  1  0  0  0  0
 20 59  1  0  0  0  0
 21 29  2  0  0  0  0
 23 60  1  0  0  0  0
 23 61  1  0  0  0  0
 23 62  1  0  0  0  0
 24 63  1  0  0  0  0
 24 64  1  0  0  0  0
 24 65  1  0  0  0  0
 25 66  1  0  0  0  0
 25 67  1  0  0  0  0
 25 68  1  0  0  0  0
 26 37  1  0  0  0  0
 26 69  1  0  0  0  0
 27 38  2  0  0  0  0
 27 70  1  0  0  0  0
 28 30  1  0  0  0  0
 28 32  1  0  0  0  0
 28 33  1  0  0  0  0
 28 71  1  0  0  0  0
 29 31  1  0  0  0  0
 29 72  1  0  0  0  0
 30 31  1  0  0  0  0
 30 73  1  0  0  0  0
 30 74  1  0  0  0  0
 32 34  1  0  0  0  0
 32 75  1  0  0  0  0
 32 76  1  0  0  0  0
 33 35  1  0  0  0  0
 33 77  1  0  0  0  0
 33 78  1  0  0  0  0
 34 36  1  0  0  0  0
 34 79  1  0  0  0  0
 34 80  1  0  0  0  0
 35 36  1  0  0  0  0
 35 81  1  0  0  0  0
 35 82  1  0  0  0  0
 36 83  1  0  0  0  0
 36 84  1  0  0  0  0
 37 40  2  0  0  0  0
 38 40  1  0  0  0  0
 38 85  1  0  0  0  0
 39 41  1  0  0  0  0
 39 86  1  0  0  0  0
 39 87  1  0  0  0  0
 40 89  1  0  0  0  0
 41 90  1  0  0  0  0
 41 91  1  0  0  0  0
 41 92  1  0  0  0  0
M  END
> <PUBCHEM_COMPOUND_CID>
516261
> <PUBCHEM_COMPOUND_CANONICALIZED>
1
> <PUBCHEM_CACTVS_COMPLEXITY>
837
> <PUBCHEM_CACTVS_HBOND_ACCEPTOR>
6
> <PUBCHEM_CACTVS_HBOND_DONOR>
1
> <PUBCHEM_CACTVS_ROTATABLE_BOND>
10
> <PUBCHEM_CACTVS_SUBSKEYS>
AAADcfB/sQAAAAAAAAAAAAAAAAAAAWLAAAA8YIAAAAAAAAABwAAAHwAICAAADyjBngwyiJMIAgCqAyTyTACSBAAhggAY2CG4ZJgKIDLA0fGE5AhkiADYyAcQgMAPgAAAAAAAAAAAAAAAAAAAAAAAAAAAAA==
> <PUBCHEM_IUPAC_OPENEYE_NAME>
(2R)-2-[(3S,4S)-3-[[4-[5-(cyclohexylmethyl)-2-ethyl-pyrazol-3-yl]-1-piperidyl]methyl]-4-(3-fluorophenyl)pyrrolidin-1-yl]-3,3-dimethyl-butanoic acid
> <PUBCHEM_IUPAC_CAS_NAME>
(2R)-2-[(3S,4S)-3-[[4-[5-(cyclohexylmethyl)-2-ethyl-3-pyrazolyl]-1-piperidinyl]methyl]-4-(3-fluorophenyl)-1-pyrrolidinyl]-3,3-dimethylbutanoic acid
> <PUBCHEM_IUPAC_NAME_MARKUP>
(2<I>R</I>)-2-[(3<I>S</I>,4<I>S</I>)-3-[[4-[5-(cyclohexylmethyl)-2-ethylpyrazol-3-yl]piperidin-1-yl]methyl]-4-(3-fluorophenyl)pyrrolidin-1-yl]-3,3-dimethylbutanoic acid
> <PUBCHEM_IUPAC_NAME>
(2R)-2-[(3S,4S)-3-[[4-[5-(cyclohexylmethyl)-2-ethylpyrazol-3-yl]piperidin-1-yl]methyl]-4-(3-fluorophenyl)pyrrolidin-1-yl]-3,3-dimethylbutanoic acid
> <PUBCHEM_IUPAC_SYSTEMATIC_NAME>
(2R)-2-[(3S,4S)-3-[[4-[5-(cyclohexylmethyl)-2-ethyl-pyrazol-3-yl]piperidin-1-yl]methyl]-4-(3-fluorophenyl)pyrrolidin-1-yl]-3,3-dimethyl-butanoic acid
> <PUBCHEM_IUPAC_TRADITIONAL_NAME>
(2R)-2-[(3S,4S)-3-[[4-[5-(cyclohexylmethyl)-2-ethyl-pyrazol-3-yl]piperidino]methyl]-4-(3-fluorophenyl)pyrrolidino]-3,3-dimethyl-butyric acid
> <PUBCHEM_IUPAC_INCHI>
InChI=1S/C34H51FN4O2/c1-5-39-31(20-29(36-39)18-24-10-7-6-8-11-24)25-14-16-37(17-15-25)21-27-22-38(32(33(40)41)34(2,3)4)23-30(27)26-12-9-13-28(35)19-26/h9,12-13,19-20,24-25,27,30,32H,5-8,10-11,14-18,21-23H2,1-4H3,(H,40,41)/t27-,30+,32-/m0/s1
> <PUBCHEM_IUPAC_INCHIKEY>
UQTDOHYMRIKRFP-KUYURNMDSA-N
> <PUBCHEM_XLOGP3_AA>
5.2
> <PUBCHEM_EXACT_MASS>
566.39960504
> <PUBCHEM_MOLECULAR_FORMULA>
C34H51FN4O2
> <PUBCHEM_MOLECULAR_WEIGHT>
566.8
> <PUBCHEM_OPENEYE_CAN_SMILES>
CCN1C(=CC(=N1)CC2CCCCC2)C3CCN(CC3)CC4CN(CC4C5=CC(=CC=C5)F)C(C(=O)O)C(C)(C)C
> <PUBCHEM_OPENEYE_ISO_SMILES>
CCN1C(=CC(=N1)CC2CCCCC2)C3CCN(CC3)C[C@H]4CN(C[C@@H]4C5=CC(=CC=C5)F)[C@@H](C(=O)O)C(C)(C)C
> <PUBCHEM_CACTVS_TPSA>
61.6
> <PUBCHEM_MONOISOTOPIC_WEIGHT>
566.39960504
> <PUBCHEM_TOTAL_CHARGE>
0
> <PUBCHEM_HEAVY_ATOM_COUNT>
41
> <PUBCHEM_ATOM_DEF_STEREO_COUNT>
3
> <PUBCHEM_ATOM_UDEF_STEREO_COUNT>
0
> <PUBCHEM_BOND_DEF_STEREO_COUNT>
0
> <PUBCHEM_BOND_UDEF_STEREO_COUNT>
0
> <PUBCHEM_ISOTOPIC_ATOM_COUNT>
0
> <PUBCHEM_COMPONENT_COUNT>
1
> <PUBCHEM_CACTVS_TAUTO_COUNT>
-1
> <PUBCHEM_COORDINATE_TYPE>
1
5
255
> <PUBCHEM_BONDANNOTATIONS>
13  22  5
18  26  8
18  27  8
21  29  8
26  37  8
27  38  8
29  31  8
37  40  8
38  40  8
6  21  8
6  7  8
7  31  8
8  12  6
9  18  5
$$$$
