516292
  -OEChem-10302200282D
 98102  0     1  0  0  0  0  0999 V2000
    9.8078   -5.7671    0.0000 F   0  0  0  0  0  0  0  0  0  0  0  0
    2.3644   -4.9887    0.0000 O   0  0  0  0  0  0  0  0  0  0  0  0
    3.7657   -6.0068    0.0000 O   0  0  0  0  0  0  0  0  0  0  0  0
    4.9413   -4.3887    0.0000 N   0  0  3  0  0  0  0  0  0  0  0  0
    7.3900   -2.5523    0.0000 N   0  0  0  0  0  0  0  0  0  0  0  0
    6.5809    1.0355    0.0000 N   0  0  0  0  0  0  0  0  0  0  0  0
    6.8900    1.9865    0.0000 N   0  0  0  0  0  0  0  0  0  0  0  0
    6.5239   -4.0523    0.0000 C   0  0  2  0  0  0  0  0  0  0  0  0
    6.4194   -5.0468    0.0000 C   0  0  2  0  0  0  0  0  0  0  0  0
    5.6104   -3.6456    0.0000 C   0  0  0  0  0  0  0  0  0  0  0  0
    5.4413   -5.2548    0.0000 C   0  0  0  0  0  0  0  0  0  0  0  0
    7.3900   -3.5523    0.0000 C   0  0  0  0  0  0  0  0  0  0  0  0
    3.9467   -4.2842    0.0000 C   0  0  2  0  0  0  0  0  0  0  0  0
    3.5400   -3.3707    0.0000 C   0  0  0  0  0  0  0  0  0  0  0  0
    7.1626   -5.7160    0.0000 C   0  0  0  0  0  0  0  0  0  0  0  0
    6.5239   -2.0523    0.0000 C   0  0  0  0  0  0  0  0  0  0  0  0
    8.2560   -2.0523    0.0000 C   0  0  0  0  0  0  0  0  0  0  0  0
    7.3900   -0.5523    0.0000 C   0  0  0  0  0  0  0  0  0  0  0  0
    6.5239   -1.0523    0.0000 C   0  0  0  0  0  0  0  0  0  0  0  0
    8.2560   -1.0523    0.0000 C   0  0  0  0  0  0  0  0  0  0  0  0
    3.3590   -5.0932    0.0000 C   0  0  0  0  0  0  0  0  0  0  0  0
    3.1333   -2.4571    0.0000 C   0  0  0  0  0  0  0  0  0  0  0  0
    2.6264   -3.7774    0.0000 C   0  0  0  0  0  0  0  0  0  0  0  0
    4.4535   -2.9639    0.0000 C   0  0  0  0  0  0  0  0  0  0  0  0
    7.3900    0.4477    0.0000 C   0  0  0  0  0  0  0  0  0  0  0  0
    8.1136   -5.4070    0.0000 C   0  0  0  0  0  0  0  0  0  0  0  0
    6.9546   -6.6941    0.0000 C   0  0  0  0  0  0  0  0  0  0  0  0
    8.1990    1.0355    0.0000 C   0  0  0  0  0  0  0  0  0  0  0  0
    8.8568   -6.0761    0.0000 C   0  0  0  0  0  0  0  0  0  0  0  0
    7.6978   -7.3633    0.0000 C   0  0  0  0  0  0  0  0  0  0  0  0
    8.6488   -7.0542    0.0000 C   0  0  0  0  0  0  0  0  0  0  0  0
    7.8900    1.9865    0.0000 C   0  0  0  0  0  0  0  0  0  0  0  0
    5.6299    0.7264    0.0000 C   0  0  0  0  0  0  0  0  0  0  0  0
    8.4777    2.7955    0.0000 C   0  0  0  0  0  0  0  0  0  0  0  0
    4.8867    1.3956    0.0000 C   0  0  0  0  0  0  0  0  0  0  0  0
    8.0710    3.7091    0.0000 C   0  0  0  0  0  0  0  0  0  0  0  0
    8.6588    4.5181    0.0000 C   0  0  0  0  0  0  0  0  0  0  0  0
    7.0765    3.8136    0.0000 C   0  0  0  0  0  0  0  0  0  0  0  0
    7.2575    5.5362    0.0000 C   0  0  0  0  0  0  0  0  0  0  0  0
    6.8508    6.4497    0.0000 C   0  0  0  0  0  0  0  0  0  0  0  0
    8.2520    5.4316    0.0000 C   0  0  0  0  0  0  0  0  0  0  0  0
    6.6698    4.7272    0.0000 C   0  0  0  0  0  0  0  0  0  0  0  0
    6.4441    7.3633    0.0000 C   0  0  0  0  0  0  0  0  0  0  0  0
    7.7643    6.8564    0.0000 C   0  0  0  0  0  0  0  0  0  0  0  0
    5.9372    6.0430    0.0000 C   0  0  0  0  0  0  0  0  0  0  0  0
    6.4915   -3.4332    0.0000 H   0  0  0  0  0  0  0  0  0  0  0  0
    6.2589   -5.6457    0.0000 H   0  0  0  0  0  0  0  0  0  0  0  0
    5.9204   -3.1087    0.0000 H   0  0  0  0  0  0  0  0  0  0  0  0
    5.1088   -3.2812    0.0000 H   0  0  0  0  0  0  0  0  0  0  0  0
    4.8749   -5.5069    0.0000 H   0  0  0  0  0  0  0  0  0  0  0  0
    5.6328   -5.8444    0.0000 H   0  0  0  0  0  0  0  0  0  0  0  0
    7.6020   -4.1349    0.0000 H   0  0  0  0  0  0  0  0  0  0  0  0
    8.0005   -3.4447    0.0000 H   0  0  0  0  0  0  0  0  0  0  0  0
    4.1989   -4.8506    0.0000 H   0  0  0  0  0  0  0  0  0  0  0  0
    5.9134   -1.9447    0.0000 H   0  0  0  0  0  0  0  0  0  0  0  0
    6.3119   -2.6349    0.0000 H   0  0  0  0  0  0  0  0  0  0  0  0
    8.4680   -2.6349    0.0000 H   0  0  0  0  0  0  0  0  0  0  0  0
    8.8666   -1.9447    0.0000 H   0  0  0  0  0  0  0  0  0  0  0  0
    7.9269   -0.2423    0.0000 H   0  0  0  0  0  0  0  0  0  0  0  0
    6.3119   -0.4697    0.0000 H   0  0  0  0  0  0  0  0  0  0  0  0
    5.9134   -1.1600    0.0000 H   0  0  0  0  0  0  0  0  0  0  0  0
    8.8666   -1.1600    0.0000 H   0  0  0  0  0  0  0  0  0  0  0  0
    8.4680   -0.4697    0.0000 H   0  0  0  0  0  0  0  0  0  0  0  0
    3.6997   -2.2049    0.0000 H   0  0  0  0  0  0  0  0  0  0  0  0
    2.8811   -1.8907    0.0000 H   0  0  0  0  0  0  0  0  0  0  0  0
    2.5669   -2.7093    0.0000 H   0  0  0  0  0  0  0  0  0  0  0  0
    2.3743   -3.2110    0.0000 H   0  0  0  0  0  0  0  0  0  0  0  0
    2.0600   -4.0296    0.0000 H   0  0  0  0  0  0  0  0  0  0  0  0
    2.8786   -4.3438    0.0000 H   0  0  0  0  0  0  0  0  0  0  0  0
    4.7057   -3.5303    0.0000 H   0  0  0  0  0  0  0  0  0  0  0  0
    5.0199   -2.7118    0.0000 H   0  0  0  0  0  0  0  0  0  0  0  0
    4.2014   -2.3975    0.0000 H   0  0  0  0  0  0  0  0  0  0  0  0
    8.2425   -4.8005    0.0000 H   0  0  0  0  0  0  0  0  0  0  0  0
    6.3650   -6.8857    0.0000 H   0  0  0  0  0  0  0  0  0  0  0  0
    8.7886    0.8439    0.0000 H   0  0  0  0  0  0  0  0  0  0  0  0
    7.5689   -7.9697    0.0000 H   0  0  0  0  0  0  0  0  0  0  0  0
    2.0000   -5.4903    0.0000 H   0  0  0  0  0  0  0  0  0  0  0  0
    9.1096   -7.4691    0.0000 H   0  0  0  0  0  0  0  0  0  0  0  0
    5.1413    0.3447    0.0000 H   0  0  0  0  0  0  0  0  0  0  0  0
    5.9210    0.1790    0.0000 H   0  0  0  0  0  0  0  0  0  0  0  0
    8.9084    2.3495    0.0000 H   0  0  0  0  0  0  0  0  0  0  0  0
    8.9918    3.1422    0.0000 H   0  0  0  0  0  0  0  0  0  0  0  0
    5.3016    1.8563    0.0000 H   0  0  0  0  0  0  0  0  0  0  0  0
    4.4260    1.8104    0.0000 H   0  0  0  0  0  0  0  0  0  0  0  0
    4.4719    0.9348    0.0000 H   0  0  0  0  0  0  0  0  0  0  0  0
    9.2754    4.4533    0.0000 H   0  0  0  0  0  0  0  0  0  0  0  0
    6.7121    3.3120    0.0000 H   0  0  0  0  0  0  0  0  0  0  0  0
    8.6165    5.9332    0.0000 H   0  0  0  0  0  0  0  0  0  0  0  0
    6.0531    4.7920    0.0000 H   0  0  0  0  0  0  0  0  0  0  0  0
    7.0105    7.6154    0.0000 H   0  0  0  0  0  0  0  0  0  0  0  0
    6.1919    7.9297    0.0000 H   0  0  0  0  0  0  0  0  0  0  0  0
    5.8777    7.1111    0.0000 H   0  0  0  0  0  0  0  0  0  0  0  0
    8.0165    6.2900    0.0000 H   0  0  0  0  0  0  0  0  0  0  0  0
    8.3307    7.1086    0.0000 H   0  0  0  0  0  0  0  0  0  0  0  0
    7.5122    7.4228    0.0000 H   0  0  0  0  0  0  0  0  0  0  0  0
    5.6851    6.6094    0.0000 H   0  0  0  0  0  0  0  0  0  0  0  0
    5.3708    5.7908    0.0000 H   0  0  0  0  0  0  0  0  0  0  0  0
    6.1894    5.4766    0.0000 H   0  0  0  0  0  0  0  0  0  0  0  0
  1 29  1  0  0  0  0
  2 21  1  0  0  0  0
  2 77  1  0  0  0  0
  3 21  2  0  0  0  0
  4 10  1  0  0  0  0
  4 11  1  0  0  0  0
  4 13  1  0  0  0  0
  5 12  1  0  0  0  0
  5 16  1  0  0  0  0
  5 17  1  0  0  0  0
  6  7  1  0  0  0  0
  6 25  1  0  0  0  0
  6 33  1  0  0  0  0
  7 32  2  0  0  0  0
  8  9  1  0  0  0  0
  8 10  1  0  0  0  0
  8 12  1  6  0  0  0
  8 46  1  0  0  0  0
  9 11  1  0  0  0  0
  9 15  1  1  0  0  0
  9 47  1  0  0  0  0
 10 48  1  0  0  0  0
 10 49  1  0  0  0  0
 11 50  1  0  0  0  0
 11 51  1  0  0  0  0
 12 52  1  0  0  0  0
 12 53  1  0  0  0  0
 13 14  1  0  0  0  0
 13 21  1  1  0  0  0
 13 54  1  0  0  0  0
 14 22  1  0  0  0  0
 14 23  1  0  0  0  0
 14 24  1  0  0  0  0
 15 26  2  0  0  0  0
 15 27  1  0  0  0  0
 16 19  1  0  0  0  0
 16 55  1  0  0  0  0
 16 56  1  0  0  0  0
 17 20  1  0  0  0  0
 17 57  1  0  0  0  0
 17 58  1  0  0  0  0
 18 19  1  0  0  0  0
 18 20  1  0  0  0  0
 18 25  1  0  0  0  0
 18 59  1  0  0  0  0
 19 60  1  0  0  0  0
 19 61  1  0  0  0  0
 20 62  1  0  0  0  0
 20 63  1  0  0  0  0
 22 64  1  0  0  0  0
 22 65  1  0  0  0  0
 22 66  1  0  0  0  0
 23 67  1  0  0  0  0
 23 68  1  0  0  0  0
 23 69  1  0  0  0  0
 24 70  1  0  0  0  0
 24 71  1  0  0  0  0
 24 72  1  0  0  0  0
 25 28  2  0  0  0  0
 26 29  1  0  0  0  0
 26 73  1  0  0  0  0
 27 30  2  0  0  0  0
 27 74  1  0  0  0  0
 28 32  1  0  0  0  0
 28 75  1  0  0  0  0
 29 31  2  0  0  0  0
 30 31  1  0  0  0  0
 30 76  1  0  0  0  0
 31 78  1  0  0  0  0
 32 34  1  0  0  0  0
 33 35  1  0  0  0  0
 33 79  1  0  0  0  0
 33 80  1  0  0  0  0
 34 36  1  0  0  0  0
 34 81  1  0  0  0  0
 34 82  1  0  0  0  0
 35 83  1  0  0  0  0
 35 84  1  0  0  0  0
 35 85  1  0  0  0  0
 36 37  2  0  0  0  0
 36 38  1  0  0  0  0
 37 41  1  0  0  0  0
 37 86  1  0  0  0  0
 38 42  2  0  0  0  0
 38 87  1  0  0  0  0
 39 40  1  0  0  0  0
 39 41  2  0  0  0  0
 39 42  1  0  0  0  0
 40 43  1  0  0  0  0
 40 44  1  0  0  0  0
 40 45  1  0  0  0  0
 41 88  1  0  0  0  0
 42 89  1  0  0  0  0
 43 90  1  0  0  0  0
 43 91  1  0  0  0  0
 43 92  1  0  0  0  0
 44 93  1  0  0  0  0
 44 94  1  0  0  0  0
 44 95  1  0  0  0  0
 45 96  1  0  0  0  0
 45 97  1  0  0  0  0
 45 98  1  0  0  0  0
M  END
> <PUBCHEM_COMPOUND_CID>
516292
> <PUBCHEM_COMPOUND_CANONICALIZED>
1
> <PUBCHEM_CACTVS_COMPLEXITY>
948
> <PUBCHEM_CACTVS_HBOND_ACCEPTOR>
6
> <PUBCHEM_CACTVS_HBOND_DONOR>
1
> <PUBCHEM_CACTVS_ROTATABLE_BOND>
11
> <PUBCHEM_CACTVS_SUBSKEYS>
AAADcfB/sQAAAAAAAAAAAAAAAAAAAWLAAAA8YIAAAAAAAAAB0AAAHwAICAAADyjBngwyiJMIAgCqAyTyTACSBAAhggAY2CG4ZJgKIDLA0fGE5AhkiADYyAcQgMAPwAAAAAAAAACAAAAAAAAAAAAAAAAAAA==
> <PUBCHEM_IUPAC_OPENEYE_NAME>
(2R)-2-[(3S,4S)-3-[[4-[5-[(4-tert-butylphenyl)methyl]-2-ethyl-pyrazol-3-yl]-1-piperidyl]methyl]-4-(3-fluorophenyl)pyrrolidin-1-yl]-3,3-dimethyl-butanoic acid
> <PUBCHEM_IUPAC_CAS_NAME>
(2R)-2-[(3S,4S)-3-[[4-[5-[(4-tert-butylphenyl)methyl]-2-ethyl-3-pyrazolyl]-1-piperidinyl]methyl]-4-(3-fluorophenyl)-1-pyrrolidinyl]-3,3-dimethylbutanoic acid
> <PUBCHEM_IUPAC_NAME_MARKUP>
(2<I>R</I>)-2-[(3<I>S</I>,4<I>S</I>)-3-[[4-[5-[(4-<I>tert</I>-butylphenyl)methyl]-2-ethylpyrazol-3-yl]piperidin-1-yl]methyl]-4-(3-fluorophenyl)pyrrolidin-1-yl]-3,3-dimethylbutanoic acid
> <PUBCHEM_IUPAC_NAME>
(2R)-2-[(3S,4S)-3-[[4-[5-[(4-tert-butylphenyl)methyl]-2-ethylpyrazol-3-yl]piperidin-1-yl]methyl]-4-(3-fluorophenyl)pyrrolidin-1-yl]-3,3-dimethylbutanoic acid
> <PUBCHEM_IUPAC_SYSTEMATIC_NAME>
(2R)-2-[(3S,4S)-3-[[4-[5-[(4-tert-butylphenyl)methyl]-2-ethyl-pyrazol-3-yl]piperidin-1-yl]methyl]-4-(3-fluorophenyl)pyrrolidin-1-yl]-3,3-dimethyl-butanoic acid
> <PUBCHEM_IUPAC_TRADITIONAL_NAME>
(2R)-2-[(3S,4S)-3-[[4-[5-(4-tert-butylbenzyl)-2-ethyl-pyrazol-3-yl]piperidino]methyl]-4-(3-fluorophenyl)pyrrolidino]-3,3-dimethyl-butyric acid
> <PUBCHEM_IUPAC_INCHI>
InChI=1S/C38H53FN4O2/c1-8-43-34(22-32(40-43)20-26-12-14-30(15-13-26)37(2,3)4)27-16-18-41(19-17-27)23-29-24-42(35(36(44)45)38(5,6)7)25-33(29)28-10-9-11-31(39)21-28/h9-15,21-22,27,29,33,35H,8,16-20,23-25H2,1-7H3,(H,44,45)/t29-,33+,35-/m0/s1
> <PUBCHEM_IUPAC_INCHIKEY>
JQPRDWQRAAFLTI-AUFCLJJTSA-N
> <PUBCHEM_XLOGP3_AA>
5.8
> <PUBCHEM_EXACT_MASS>
616.41525511
> <PUBCHEM_MOLECULAR_FORMULA>
C38H53FN4O2
> <PUBCHEM_MOLECULAR_WEIGHT>
616.9
> <PUBCHEM_OPENEYE_CAN_SMILES>
CCN1C(=CC(=N1)CC2=CC=C(C=C2)C(C)(C)C)C3CCN(CC3)CC4CN(CC4C5=CC(=CC=C5)F)C(C(=O)O)C(C)(C)C
> <PUBCHEM_OPENEYE_ISO_SMILES>
CCN1C(=CC(=N1)CC2=CC=C(C=C2)C(C)(C)C)C3CCN(CC3)C[C@H]4CN(C[C@@H]4C5=CC(=CC=C5)F)[C@@H](C(=O)O)C(C)(C)C
> <PUBCHEM_CACTVS_TPSA>
61.6
> <PUBCHEM_MONOISOTOPIC_WEIGHT>
616.41525511
> <PUBCHEM_TOTAL_CHARGE>
0
> <PUBCHEM_HEAVY_ATOM_COUNT>
45
> <PUBCHEM_ATOM_DEF_STEREO_COUNT>
3
> <PUBCHEM_ATOM_UDEF_STEREO_COUNT>
0
> <PUBCHEM_BOND_DEF_STEREO_COUNT>
0
> <PUBCHEM_BOND_UDEF_STEREO_COUNT>
0
> <PUBCHEM_ISOTOPIC_ATOM_COUNT>
0
> <PUBCHEM_COMPONENT_COUNT>
1
> <PUBCHEM_CACTVS_TAUTO_COUNT>
-1
> <PUBCHEM_COORDINATE_TYPE>
1
5
255
> <PUBCHEM_BONDANNOTATIONS>
13  21  5
15  26  8
15  27  8
25  28  8
26  29  8
27  30  8
28  32  8
29  31  8
30  31  8
36  37  8
36  38  8
37  41  8
38  42  8
39  41  8
39  42  8
6  25  8
6  7  8
7  32  8
8  12  6
9  15  5
$$$$
