516202
  -OEChem-10302200282D
 93 98  0     1  0  0  0  0  0999 V2000
    7.4899   -8.3091    0.0000 F   0  0  0  0  0  0  0  0  0  0  0  0
    2.3644   -4.9564    0.0000 O   0  0  0  0  0  0  0  0  0  0  0  0
    3.7657   -5.9745    0.0000 O   0  0  0  0  0  0  0  0  0  0  0  0
    4.9413   -4.3564    0.0000 N   0  0  3  0  0  0  0  0  0  0  0  0
    7.3900   -2.5200    0.0000 N   0  0  0  0  0  0  0  0  0  0  0  0
    6.5809    1.0678    0.0000 N   0  0  0  0  0  0  0  0  0  0  0  0
    6.8900    2.0188    0.0000 N   0  0  0  0  0  0  0  0  0  0  0  0
    6.5239   -4.0200    0.0000 C   0  0  2  0  0  0  0  0  0  0  0  0
    6.4194   -5.0146    0.0000 C   0  0  2  0  0  0  0  0  0  0  0  0
    5.6104   -3.6133    0.0000 C   0  0  0  0  0  0  0  0  0  0  0  0
    5.4413   -5.2225    0.0000 C   0  0  0  0  0  0  0  0  0  0  0  0
    7.3900   -3.5200    0.0000 C   0  0  0  0  0  0  0  0  0  0  0  0
    3.9467   -4.2519    0.0000 C   0  0  2  0  0  0  0  0  0  0  0  0
    6.5239   -2.0200    0.0000 C   0  0  0  0  0  0  0  0  0  0  0  0
    8.2560   -2.0200    0.0000 C   0  0  0  0  0  0  0  0  0  0  0  0
    7.1626   -5.6837    0.0000 C   0  0  0  0  0  0  0  0  0  0  0  0
    7.3900   -0.5200    0.0000 C   0  0  0  0  0  0  0  0  0  0  0  0
    6.5239   -1.0200    0.0000 C   0  0  0  0  0  0  0  0  0  0  0  0
    8.2560   -1.0200    0.0000 C   0  0  0  0  0  0  0  0  0  0  0  0
    3.5400   -3.3384    0.0000 C   0  0  0  0  0  0  0  0  0  0  0  0
    7.3900    0.4800    0.0000 C   0  0  0  0  0  0  0  0  0  0  0  0
    3.3590   -5.0609    0.0000 C   0  0  0  0  0  0  0  0  0  0  0  0
    6.9546   -6.6618    0.0000 C   0  0  0  0  0  0  0  0  0  0  0  0
    8.1136   -5.3747    0.0000 C   0  0  0  0  0  0  0  0  0  0  0  0
    2.5455   -3.2338    0.0000 C   0  0  0  0  0  0  0  0  0  0  0  0
    4.1278   -2.5293    0.0000 C   0  0  0  0  0  0  0  0  0  0  0  0
    8.1990    1.0678    0.0000 C   0  0  0  0  0  0  0  0  0  0  0  0
    7.6978   -7.3310    0.0000 C   0  0  0  0  0  0  0  0  0  0  0  0
    8.8568   -6.0438    0.0000 C   0  0  0  0  0  0  0  0  0  0  0  0
    7.8900    2.0188    0.0000 C   0  0  0  0  0  0  0  0  0  0  0  0
    8.6488   -7.0219    0.0000 C   0  0  0  0  0  0  0  0  0  0  0  0
    5.6299    0.7587    0.0000 C   0  0  0  0  0  0  0  0  0  0  0  0
    8.4777    2.8278    0.0000 C   0  0  0  0  0  0  0  0  0  0  0  0
    4.8867    1.4279    0.0000 C   0  0  0  0  0  0  0  0  0  0  0  0
    8.0710    3.7414    0.0000 C   0  0  0  0  0  0  0  0  0  0  0  0
    7.0765    3.8459    0.0000 C   0  0  0  0  0  0  0  0  0  0  0  0
    8.6588    4.5504    0.0000 C   0  0  0  0  0  0  0  0  0  0  0  0
    6.6698    4.7594    0.0000 C   0  0  0  0  0  0  0  0  0  0  0  0
    8.2520    5.4639    0.0000 C   0  0  0  0  0  0  0  0  0  0  0  0
    7.2575    5.5685    0.0000 C   0  0  0  0  0  0  0  0  0  0  0  0
    6.8508    6.4820    0.0000 C   0  0  0  0  0  0  0  0  0  0  0  0
    7.4386    7.2910    0.0000 C   0  0  0  0  0  0  0  0  0  0  0  0
    5.8563    6.5865    0.0000 C   0  0  0  0  0  0  0  0  0  0  0  0
    7.0318    8.2046    0.0000 C   0  0  0  0  0  0  0  0  0  0  0  0
    5.4495    7.5001    0.0000 C   0  0  0  0  0  0  0  0  0  0  0  0
    6.0373    8.3091    0.0000 C   0  0  0  0  0  0  0  0  0  0  0  0
    6.4915   -3.4009    0.0000 H   0  0  0  0  0  0  0  0  0  0  0  0
    6.9982   -4.7924    0.0000 H   0  0  0  0  0  0  0  0  0  0  0  0
    5.9204   -3.0764    0.0000 H   0  0  0  0  0  0  0  0  0  0  0  0
    5.1088   -3.2489    0.0000 H   0  0  0  0  0  0  0  0  0  0  0  0
    4.8749   -5.4746    0.0000 H   0  0  0  0  0  0  0  0  0  0  0  0
    5.6328   -5.8121    0.0000 H   0  0  0  0  0  0  0  0  0  0  0  0
    7.6020   -4.1026    0.0000 H   0  0  0  0  0  0  0  0  0  0  0  0
    8.0005   -3.4124    0.0000 H   0  0  0  0  0  0  0  0  0  0  0  0
    4.1989   -4.8183    0.0000 H   0  0  0  0  0  0  0  0  0  0  0  0
    5.9134   -1.9124    0.0000 H   0  0  0  0  0  0  0  0  0  0  0  0
    6.3119   -2.6026    0.0000 H   0  0  0  0  0  0  0  0  0  0  0  0
    8.4680   -2.6026    0.0000 H   0  0  0  0  0  0  0  0  0  0  0  0
    8.8666   -1.9124    0.0000 H   0  0  0  0  0  0  0  0  0  0  0  0
    7.9269   -0.2100    0.0000 H   0  0  0  0  0  0  0  0  0  0  0  0
    6.3119   -0.4374    0.0000 H   0  0  0  0  0  0  0  0  0  0  0  0
    5.9134   -1.1277    0.0000 H   0  0  0  0  0  0  0  0  0  0  0  0
    8.8666   -1.1277    0.0000 H   0  0  0  0  0  0  0  0  0  0  0  0
    8.4680   -0.4374    0.0000 H   0  0  0  0  0  0  0  0  0  0  0  0
    3.2878   -2.7720    0.0000 H   0  0  0  0  0  0  0  0  0  0  0  0
    6.3650   -6.8534    0.0000 H   0  0  0  0  0  0  0  0  0  0  0  0
    8.2425   -4.7682    0.0000 H   0  0  0  0  0  0  0  0  0  0  0  0
    2.6103   -2.6172    0.0000 H   0  0  0  0  0  0  0  0  0  0  0  0
    1.9289   -3.1690    0.0000 H   0  0  0  0  0  0  0  0  0  0  0  0
    2.4807   -3.8504    0.0000 H   0  0  0  0  0  0  0  0  0  0  0  0
    4.6294   -2.8938    0.0000 H   0  0  0  0  0  0  0  0  0  0  0  0
    4.4922   -2.0278    0.0000 H   0  0  0  0  0  0  0  0  0  0  0  0
    3.6262   -2.1649    0.0000 H   0  0  0  0  0  0  0  0  0  0  0  0
    8.7886    0.8762    0.0000 H   0  0  0  0  0  0  0  0  0  0  0  0
    9.4464   -5.8522    0.0000 H   0  0  0  0  0  0  0  0  0  0  0  0
    9.1096   -7.4368    0.0000 H   0  0  0  0  0  0  0  0  0  0  0  0
    5.1413    0.3770    0.0000 H   0  0  0  0  0  0  0  0  0  0  0  0
    5.9210    0.2113    0.0000 H   0  0  0  0  0  0  0  0  0  0  0  0
    2.0000   -5.4580    0.0000 H   0  0  0  0  0  0  0  0  0  0  0  0
    8.9084    2.3818    0.0000 H   0  0  0  0  0  0  0  0  0  0  0  0
    8.9918    3.1745    0.0000 H   0  0  0  0  0  0  0  0  0  0  0  0
    5.3016    1.8886    0.0000 H   0  0  0  0  0  0  0  0  0  0  0  0
    4.4260    1.8427    0.0000 H   0  0  0  0  0  0  0  0  0  0  0  0
    4.4719    0.9671    0.0000 H   0  0  0  0  0  0  0  0  0  0  0  0
    6.7121    3.3443    0.0000 H   0  0  0  0  0  0  0  0  0  0  0  0
    9.2754    4.4856    0.0000 H   0  0  0  0  0  0  0  0  0  0  0  0
    6.0531    4.8243    0.0000 H   0  0  0  0  0  0  0  0  0  0  0  0
    8.6165    5.9655    0.0000 H   0  0  0  0  0  0  0  0  0  0  0  0
    8.0552    7.2262    0.0000 H   0  0  0  0  0  0  0  0  0  0  0  0
    5.4918    6.0850    0.0000 H   0  0  0  0  0  0  0  0  0  0  0  0
    7.3963    8.7062    0.0000 H   0  0  0  0  0  0  0  0  0  0  0  0
    4.8329    7.5649    0.0000 H   0  0  0  0  0  0  0  0  0  0  0  0
    5.7852    8.8755    0.0000 H   0  0  0  0  0  0  0  0  0  0  0  0
  1 28  1  0  0  0  0
  2 22  1  0  0  0  0
  2 79  1  0  0  0  0
  3 22  2  0  0  0  0
  4 10  1  0  0  0  0
  4 11  1  0  0  0  0
  4 13  1  0  0  0  0
  5 12  1  0  0  0  0
  5 14  1  0  0  0  0
  5 15  1  0  0  0  0
  6  7  1  0  0  0  0
  6 21  1  0  0  0  0
  6 32  1  0  0  0  0
  7 30  2  0  0  0  0
  8  9  1  0  0  0  0
  8 10  1  0  0  0  0
  8 12  1  6  0  0  0
  8 47  1  0  0  0  0
  9 11  1  0  0  0  0
  9 16  1  1  0  0  0
  9 48  1  0  0  0  0
 10 49  1  0  0  0  0
 10 50  1  0  0  0  0
 11 51  1  0  0  0  0
 11 52  1  0  0  0  0
 12 53  1  0  0  0  0
 12 54  1  0  0  0  0
 13 20  1  0  0  0  0
 13 22  1  1  0  0  0
 13 55  1  0  0  0  0
 14 18  1  0  0  0  0
 14 56  1  0  0  0  0
 14 57  1  0  0  0  0
 15 19  1  0  0  0  0
 15 58  1  0  0  0  0
 15 59  1  0  0  0  0
 16 23  2  0  0  0  0
 16 24  1  0  0  0  0
 17 18  1  0  0  0  0
 17 19  1  0  0  0  0
 17 21  1  0  0  0  0
 17 60  1  0  0  0  0
 18 61  1  0  0  0  0
 18 62  1  0  0  0  0
 19 63  1  0  0  0  0
 19 64  1  0  0  0  0
 20 25  1  0  0  0  0
 20 26  1  0  0  0  0
 20 65  1  0  0  0  0
 21 27  2  0  0  0  0
 23 28  1  0  0  0  0
 23 66  1  0  0  0  0
 24 29  2  0  0  0  0
 24 67  1  0  0  0  0
 25 68  1  0  0  0  0
 25 69  1  0  0  0  0
 25 70  1  0  0  0  0
 26 71  1  0  0  0  0
 26 72  1  0  0  0  0
 26 73  1  0  0  0  0
 27 30  1  0  0  0  0
 27 74  1  0  0  0  0
 28 31  2  0  0  0  0
 29 31  1  0  0  0  0
 29 75  1  0  0  0  0
 30 33  1  0  0  0  0
 31 76  1  0  0  0  0
 32 34  1  0  0  0  0
 32 77  1  0  0  0  0
 32 78  1  0  0  0  0
 33 35  1  0  0  0  0
 33 80  1  0  0  0  0
 33 81  1  0  0  0  0
 34 82  1  0  0  0  0
 34 83  1  0  0  0  0
 34 84  1  0  0  0  0
 35 36  2  0  0  0  0
 35 37  1  0  0  0  0
 36 38  1  0  0  0  0
 36 85  1  0  0  0  0
 37 39  2  0  0  0  0
 37 86  1  0  0  0  0
 38 40  2  0  0  0  0
 38 87  1  0  0  0  0
 39 40  1  0  0  0  0
 39 88  1  0  0  0  0
 40 41  1  0  0  0  0
 41 42  2  0  0  0  0
 41 43  1  0  0  0  0
 42 44  1  0  0  0  0
 42 89  1  0  0  0  0
 43 45  2  0  0  0  0
 43 90  1  0  0  0  0
 44 46  2  0  0  0  0
 44 91  1  0  0  0  0
 45 46  1  0  0  0  0
 45 92  1  0  0  0  0
 46 93  1  0  0  0  0
M  END
> <PUBCHEM_COMPOUND_CID>
516202
> <PUBCHEM_COMPOUND_CANONICALIZED>
1
> <PUBCHEM_CACTVS_COMPLEXITY>
944
> <PUBCHEM_CACTVS_HBOND_ACCEPTOR>
6
> <PUBCHEM_CACTVS_HBOND_DONOR>
1
> <PUBCHEM_CACTVS_ROTATABLE_BOND>
11
> <PUBCHEM_CACTVS_SUBSKEYS>
AAADcfB/sQAAAAAAAAAAAAAAAAAAAWLAAAA8YMEAAAAAAAAB1AAAHwAICAAADSjBngwyiJMIAgCqAyTyTACSBAAhggAY2CG4ZJgKIDLA0fGE5AhkiADYyAcQgMAOwAAAAAAAAACAAAAAAAAAAAAAAAAAAA==
> <PUBCHEM_IUPAC_OPENEYE_NAME>
(2R)-2-[(3S,4S)-3-[[4-[2-ethyl-5-[(4-phenylphenyl)methyl]pyrazol-3-yl]-1-piperidyl]methyl]-4-(3-fluorophenyl)pyrrolidin-1-yl]-3-methyl-butanoic acid
> <PUBCHEM_IUPAC_CAS_NAME>
(2R)-2-[(3S,4S)-3-[[4-[2-ethyl-5-[(4-phenylphenyl)methyl]-3-pyrazolyl]-1-piperidinyl]methyl]-4-(3-fluorophenyl)-1-pyrrolidinyl]-3-methylbutanoic acid
> <PUBCHEM_IUPAC_NAME_MARKUP>
(2<I>R</I>)-2-[(3<I>S</I>,4<I>S</I>)-3-[[4-[2-ethyl-5-[(4-phenylphenyl)methyl]pyrazol-3-yl]piperidin-1-yl]methyl]-4-(3-fluorophenyl)pyrrolidin-1-yl]-3-methylbutanoic acid
> <PUBCHEM_IUPAC_NAME>
(2R)-2-[(3S,4S)-3-[[4-[2-ethyl-5-[(4-phenylphenyl)methyl]pyrazol-3-yl]piperidin-1-yl]methyl]-4-(3-fluorophenyl)pyrrolidin-1-yl]-3-methylbutanoic acid
> <PUBCHEM_IUPAC_SYSTEMATIC_NAME>
(2R)-2-[(3S,4S)-3-[[4-[2-ethyl-5-[(4-phenylphenyl)methyl]pyrazol-3-yl]piperidin-1-yl]methyl]-4-(3-fluorophenyl)pyrrolidin-1-yl]-3-methyl-butanoic acid
> <PUBCHEM_IUPAC_TRADITIONAL_NAME>
(2R)-2-[(3S,4S)-3-[[4-[2-ethyl-5-(4-phenylbenzyl)pyrazol-3-yl]piperidino]methyl]-4-(3-fluorophenyl)pyrrolidino]-3-methyl-butyric acid
> <PUBCHEM_IUPAC_INCHI>
InChI=1S/C39H47FN4O2/c1-4-44-37(23-35(41-44)21-28-13-15-30(16-14-28)29-9-6-5-7-10-29)31-17-19-42(20-18-31)24-33-25-43(38(27(2)3)39(45)46)26-36(33)32-11-8-12-34(40)22-32/h5-16,22-23,27,31,33,36,38H,4,17-21,24-26H2,1-3H3,(H,45,46)/t33-,36+,38+/m0/s1
> <PUBCHEM_IUPAC_INCHIKEY>
FQDAIOFBLYFMHL-DCLZWXHWSA-N
> <PUBCHEM_XLOGP3_AA>
5.3
> <PUBCHEM_EXACT_MASS>
622.36830492
> <PUBCHEM_MOLECULAR_FORMULA>
C39H47FN4O2
> <PUBCHEM_MOLECULAR_WEIGHT>
622.8
> <PUBCHEM_OPENEYE_CAN_SMILES>
CCN1C(=CC(=N1)CC2=CC=C(C=C2)C3=CC=CC=C3)C4CCN(CC4)CC5CN(CC5C6=CC(=CC=C6)F)C(C(C)C)C(=O)O
> <PUBCHEM_OPENEYE_ISO_SMILES>
CCN1C(=CC(=N1)CC2=CC=C(C=C2)C3=CC=CC=C3)C4CCN(CC4)C[C@H]5CN(C[C@@H]5C6=CC(=CC=C6)F)[C@H](C(C)C)C(=O)O
> <PUBCHEM_CACTVS_TPSA>
61.6
> <PUBCHEM_MONOISOTOPIC_WEIGHT>
622.36830492
> <PUBCHEM_TOTAL_CHARGE>
0
> <PUBCHEM_HEAVY_ATOM_COUNT>
46
> <PUBCHEM_ATOM_DEF_STEREO_COUNT>
3
> <PUBCHEM_ATOM_UDEF_STEREO_COUNT>
0
> <PUBCHEM_BOND_DEF_STEREO_COUNT>
0
> <PUBCHEM_BOND_UDEF_STEREO_COUNT>
0
> <PUBCHEM_ISOTOPIC_ATOM_COUNT>
0
> <PUBCHEM_COMPONENT_COUNT>
1
> <PUBCHEM_CACTVS_TAUTO_COUNT>
-1
> <PUBCHEM_COORDINATE_TYPE>
1
5
255
> <PUBCHEM_BONDANNOTATIONS>
13  22  5
16  23  8
16  24  8
21  27  8
23  28  8
24  29  8
27  30  8
28  31  8
29  31  8
35  36  8
35  37  8
36  38  8
37  39  8
38  40  8
39  40  8
41  42  8
41  43  8
42  44  8
43  45  8
44  46  8
45  46  8
6  21  8
6  7  8
7  30  8
8  12  6
9  16  5
$$$$
