516309
  -OEChem-10302200282D
103108  0     1  0  0  0  0  0999 V2000
    7.7132   -9.1181    0.0000 F   0  0  0  0  0  0  0  0  0  0  0  0
    2.7688   -4.0428    0.0000 O   0  0  0  0  0  0  0  0  0  0  0  0
    4.3511   -3.3384    0.0000 O   0  0  0  0  0  0  0  0  0  0  0  0
    7.0742    5.6730    0.0000 O   0  0  0  0  0  0  0  0  0  0  0  0
    5.1646   -5.1654    0.0000 N   0  0  3  0  0  0  0  0  0  0  0  0
    7.6133   -3.3290    0.0000 N   0  0  0  0  0  0  0  0  0  0  0  0
    6.8043    0.2587    0.0000 N   0  0  0  0  0  0  0  0  0  0  0  0
    7.1133    1.2098    0.0000 N   0  0  0  0  0  0  0  0  0  0  0  0
    6.7473   -4.8290    0.0000 C   0  0  2  0  0  0  0  0  0  0  0  0
    6.6428   -5.8236    0.0000 C   0  0  2  0  0  0  0  0  0  0  0  0
    5.8338   -4.4223    0.0000 C   0  0  0  0  0  0  0  0  0  0  0  0
    5.6646   -6.0315    0.0000 C   0  0  0  0  0  0  0  0  0  0  0  0
    4.1701   -5.0609    0.0000 C   0  0  2  0  0  0  0  0  0  0  0  0
    3.5823   -5.8699    0.0000 C   0  0  0  0  0  0  0  0  0  0  0  0
    7.6133   -4.3290    0.0000 C   0  0  0  0  0  0  0  0  0  0  0  0
    2.5878   -5.7654    0.0000 C   0  0  0  0  0  0  0  0  0  0  0  0
    3.9890   -6.7835    0.0000 C   0  0  0  0  0  0  0  0  0  0  0  0
    7.3859   -6.4927    0.0000 C   0  0  0  0  0  0  0  0  0  0  0  0
    2.0000   -6.5744    0.0000 C   0  0  0  0  0  0  0  0  0  0  0  0
    3.4013   -7.5925    0.0000 C   0  0  0  0  0  0  0  0  0  0  0  0
    6.7473   -2.8290    0.0000 C   0  0  0  0  0  0  0  0  0  0  0  0
    8.4793   -2.8290    0.0000 C   0  0  0  0  0  0  0  0  0  0  0  0
    7.6133   -1.3290    0.0000 C   0  0  0  0  0  0  0  0  0  0  0  0
    2.4067   -7.4880    0.0000 C   0  0  0  0  0  0  0  0  0  0  0  0
    6.7473   -1.8290    0.0000 C   0  0  0  0  0  0  0  0  0  0  0  0
    8.4793   -1.8290    0.0000 C   0  0  0  0  0  0  0  0  0  0  0  0
    3.7634   -4.1474    0.0000 C   0  0  0  0  0  0  0  0  0  0  0  0
    7.1780   -7.4708    0.0000 C   0  0  0  0  0  0  0  0  0  0  0  0
    8.3370   -6.1837    0.0000 C   0  0  0  0  0  0  0  0  0  0  0  0
    7.6133   -0.3290    0.0000 C   0  0  0  0  0  0  0  0  0  0  0  0
    7.9211   -8.1400    0.0000 C   0  0  0  0  0  0  0  0  0  0  0  0
    9.0801   -6.8528    0.0000 C   0  0  0  0  0  0  0  0  0  0  0  0
    8.4223    0.2587    0.0000 C   0  0  0  0  0  0  0  0  0  0  0  0
    8.8722   -7.8310    0.0000 C   0  0  0  0  0  0  0  0  0  0  0  0
    8.1133    1.2098    0.0000 C   0  0  0  0  0  0  0  0  0  0  0  0
    5.8532   -0.0503    0.0000 C   0  0  0  0  0  0  0  0  0  0  0  0
    8.7011    2.0188    0.0000 C   0  0  0  0  0  0  0  0  0  0  0  0
    5.1101    0.6189    0.0000 C   0  0  0  0  0  0  0  0  0  0  0  0
    8.2944    2.9324    0.0000 C   0  0  0  0  0  0  0  0  0  0  0  0
    7.2998    3.0369    0.0000 C   0  0  0  0  0  0  0  0  0  0  0  0
    8.8822    3.7414    0.0000 C   0  0  0  0  0  0  0  0  0  0  0  0
    6.8931    3.9504    0.0000 C   0  0  0  0  0  0  0  0  0  0  0  0
    8.4754    4.6549    0.0000 C   0  0  0  0  0  0  0  0  0  0  0  0
    7.4809    4.7594    0.0000 C   0  0  0  0  0  0  0  0  0  0  0  0
    7.6619    6.4820    0.0000 C   0  0  0  0  0  0  0  0  0  0  0  0
    7.2552    7.3956    0.0000 C   0  0  0  0  0  0  0  0  0  0  0  0
    7.8430    8.2046    0.0000 C   0  0  0  0  0  0  0  0  0  0  0  0
    7.4362    9.1181    0.0000 C   0  0  0  0  0  0  0  0  0  0  0  0
    6.7148   -4.2099    0.0000 H   0  0  0  0  0  0  0  0  0  0  0  0
    6.4823   -6.4224    0.0000 H   0  0  0  0  0  0  0  0  0  0  0  0
    6.1437   -3.8854    0.0000 H   0  0  0  0  0  0  0  0  0  0  0  0
    5.3322   -4.0579    0.0000 H   0  0  0  0  0  0  0  0  0  0  0  0
    5.0982   -6.2836    0.0000 H   0  0  0  0  0  0  0  0  0  0  0  0
    5.8562   -6.6211    0.0000 H   0  0  0  0  0  0  0  0  0  0  0  0
    4.5345   -4.5593    0.0000 H   0  0  0  0  0  0  0  0  0  0  0  0
    3.3301   -5.3035    0.0000 H   0  0  0  0  0  0  0  0  0  0  0  0
    7.8254   -4.9116    0.0000 H   0  0  0  0  0  0  0  0  0  0  0  0
    8.2239   -4.2214    0.0000 H   0  0  0  0  0  0  0  0  0  0  0  0
    2.7587   -5.1694    0.0000 H   0  0  0  0  0  0  0  0  0  0  0  0
    2.0305   -5.4936    0.0000 H   0  0  0  0  0  0  0  0  0  0  0  0
    4.4197   -7.2295    0.0000 H   0  0  0  0  0  0  0  0  0  0  0  0
    4.5030   -6.4368    0.0000 H   0  0  0  0  0  0  0  0  0  0  0  0
    1.5693   -6.1284    0.0000 H   0  0  0  0  0  0  0  0  0  0  0  0
    1.4860   -6.9211    0.0000 H   0  0  0  0  0  0  0  0  0  0  0  0
    3.2304   -8.1885    0.0000 H   0  0  0  0  0  0  0  0  0  0  0  0
    3.9585   -7.8643    0.0000 H   0  0  0  0  0  0  0  0  0  0  0  0
    6.1367   -2.7214    0.0000 H   0  0  0  0  0  0  0  0  0  0  0  0
    6.5352   -3.4116    0.0000 H   0  0  0  0  0  0  0  0  0  0  0  0
    8.6914   -3.4116    0.0000 H   0  0  0  0  0  0  0  0  0  0  0  0
    9.0899   -2.7214    0.0000 H   0  0  0  0  0  0  0  0  0  0  0  0
    7.0764   -1.0190    0.0000 H   0  0  0  0  0  0  0  0  0  0  0  0
    1.8052   -7.6380    0.0000 H   0  0  0  0  0  0  0  0  0  0  0  0
    2.4500   -8.1065    0.0000 H   0  0  0  0  0  0  0  0  0  0  0  0
    6.5352   -1.2464    0.0000 H   0  0  0  0  0  0  0  0  0  0  0  0
    6.1367   -1.9367    0.0000 H   0  0  0  0  0  0  0  0  0  0  0  0
    9.0899   -1.9367    0.0000 H   0  0  0  0  0  0  0  0  0  0  0  0
    8.6914   -1.2464    0.0000 H   0  0  0  0  0  0  0  0  0  0  0  0
    6.5883   -7.6624    0.0000 H   0  0  0  0  0  0  0  0  0  0  0  0
    8.4659   -5.5772    0.0000 H   0  0  0  0  0  0  0  0  0  0  0  0
    9.6698   -6.6612    0.0000 H   0  0  0  0  0  0  0  0  0  0  0  0
    2.5167   -3.4764    0.0000 H   0  0  0  0  0  0  0  0  0  0  0  0
    9.0120    0.0672    0.0000 H   0  0  0  0  0  0  0  0  0  0  0  0
    9.3330   -8.2458    0.0000 H   0  0  0  0  0  0  0  0  0  0  0  0
    5.3647   -0.4320    0.0000 H   0  0  0  0  0  0  0  0  0  0  0  0
    6.1443   -0.5977    0.0000 H   0  0  0  0  0  0  0  0  0  0  0  0
    9.1318    1.5728    0.0000 H   0  0  0  0  0  0  0  0  0  0  0  0
    9.2151    2.3655    0.0000 H   0  0  0  0  0  0  0  0  0  0  0  0
    5.5250    1.0796    0.0000 H   0  0  0  0  0  0  0  0  0  0  0  0
    4.6494    1.0337    0.0000 H   0  0  0  0  0  0  0  0  0  0  0  0
    4.6952    0.1581    0.0000 H   0  0  0  0  0  0  0  0  0  0  0  0
    6.9354    2.5353    0.0000 H   0  0  0  0  0  0  0  0  0  0  0  0
    9.4988    3.6766    0.0000 H   0  0  0  0  0  0  0  0  0  0  0  0
    6.2765    4.0152    0.0000 H   0  0  0  0  0  0  0  0  0  0  0  0
    8.8398    5.1565    0.0000 H   0  0  0  0  0  0  0  0  0  0  0  0
    8.0926    6.0360    0.0000 H   0  0  0  0  0  0  0  0  0  0  0  0
    8.1759    6.8287    0.0000 H   0  0  0  0  0  0  0  0  0  0  0  0
    6.8245    7.8416    0.0000 H   0  0  0  0  0  0  0  0  0  0  0  0
    6.7412    7.0489    0.0000 H   0  0  0  0  0  0  0  0  0  0  0  0
    8.2737    7.7586    0.0000 H   0  0  0  0  0  0  0  0  0  0  0  0
    8.3570    8.5513    0.0000 H   0  0  0  0  0  0  0  0  0  0  0  0
    8.0026    9.3703    0.0000 H   0  0  0  0  0  0  0  0  0  0  0  0
    7.1841    9.6845    0.0000 H   0  0  0  0  0  0  0  0  0  0  0  0
    6.8698    8.8659    0.0000 H   0  0  0  0  0  0  0  0  0  0  0  0
  1 31  1  0  0  0  0
  2 27  1  0  0  0  0
  2 81  1  0  0  0  0
  3 27  2  0  0  0  0
  4 44  1  0  0  0  0
  4 45  1  0  0  0  0
  5 11  1  0  0  0  0
  5 12  1  0  0  0  0
  5 13  1  0  0  0  0
  6 15  1  0  0  0  0
  6 21  1  0  0  0  0
  6 22  1  0  0  0  0
  7  8  1  0  0  0  0
  7 30  1  0  0  0  0
  7 36  1  0  0  0  0
  8 35  2  0  0  0  0
  9 10  1  0  0  0  0
  9 11  1  0  0  0  0
  9 15  1  6  0  0  0
  9 49  1  0  0  0  0
 10 12  1  0  0  0  0
 10 18  1  1  0  0  0
 10 50  1  0  0  0  0
 11 51  1  0  0  0  0
 11 52  1  0  0  0  0
 12 53  1  0  0  0  0
 12 54  1  0  0  0  0
 13 14  1  0  0  0  0
 13 27  1  6  0  0  0
 13 55  1  0  0  0  0
 14 16  1  0  0  0  0
 14 17  1  0  0  0  0
 14 56  1  0  0  0  0
 15 57  1  0  0  0  0
 15 58  1  0  0  0  0
 16 19  1  0  0  0  0
 16 59  1  0  0  0  0
 16 60  1  0  0  0  0
 17 20  1  0  0  0  0
 17 61  1  0  0  0  0
 17 62  1  0  0  0  0
 18 28  2  0  0  0  0
 18 29  1  0  0  0  0
 19 24  1  0  0  0  0
 19 63  1  0  0  0  0
 19 64  1  0  0  0  0
 20 24  1  0  0  0  0
 20 65  1  0  0  0  0
 20 66  1  0  0  0  0
 21 25  1  0  0  0  0
 21 67  1  0  0  0  0
 21 68  1  0  0  0  0
 22 26  1  0  0  0  0
 22 69  1  0  0  0  0
 22 70  1  0  0  0  0
 23 25  1  0  0  0  0
 23 26  1  0  0  0  0
 23 30  1  0  0  0  0
 23 71  1  0  0  0  0
 24 72  1  0  0  0  0
 24 73  1  0  0  0  0
 25 74  1  0  0  0  0
 25 75  1  0  0  0  0
 26 76  1  0  0  0  0
 26 77  1  0  0  0  0
 28 31  1  0  0  0  0
 28 78  1  0  0  0  0
 29 32  2  0  0  0  0
 29 79  1  0  0  0  0
 30 33  2  0  0  0  0
 31 34  2  0  0  0  0
 32 34  1  0  0  0  0
 32 80  1  0  0  0  0
 33 35  1  0  0  0  0
 33 82  1  0  0  0  0
 34 83  1  0  0  0  0
 35 37  1  0  0  0  0
 36 38  1  0  0  0  0
 36 84  1  0  0  0  0
 36 85  1  0  0  0  0
 37 39  1  0  0  0  0
 37 86  1  0  0  0  0
 37 87  1  0  0  0  0
 38 88  1  0  0  0  0
 38 89  1  0  0  0  0
 38 90  1  0  0  0  0
 39 40  2  0  0  0  0
 39 41  1  0  0  0  0
 40 42  1  0  0  0  0
 40 91  1  0  0  0  0
 41 43  2  0  0  0  0
 41 92  1  0  0  0  0
 42 44  2  0  0  0  0
 42 93  1  0  0  0  0
 43 44  1  0  0  0  0
 43 94  1  0  0  0  0
 45 46  1  0  0  0  0
 45 95  1  0  0  0  0
 45 96  1  0  0  0  0
 46 47  1  0  0  0  0
 46 97  1  0  0  0  0
 46 98  1  0  0  0  0
 47 48  1  0  0  0  0
 47 99  1  0  0  0  0
 47100  1  0  0  0  0
 48101  1  0  0  0  0
 48102  1  0  0  0  0
 48103  1  0  0  0  0
M  END
> <PUBCHEM_COMPOUND_CID>
516309
> <PUBCHEM_COMPOUND_CANONICALIZED>
1
> <PUBCHEM_CACTVS_COMPLEXITY>
966
> <PUBCHEM_CACTVS_HBOND_ACCEPTOR>
7
> <PUBCHEM_CACTVS_HBOND_DONOR>
1
> <PUBCHEM_CACTVS_ROTATABLE_BOND>
14
> <PUBCHEM_CACTVS_SUBSKEYS>
AAADcfB/sQAAAAAAAAAAAAAAAAAAAWLAAAA8YMEAAAAAAAAB0AAAHwAICAAADSzhng4yjpMIBgCqAyTyTACSDAAhogAY2CG+bJgOJjLE8fuG/CjkyBHY6AeYyOCOoAAAAAAAAABAAAAAAAAAAAAAAAAAAA==
> <PUBCHEM_IUPAC_OPENEYE_NAME>
(2R)-2-[(3S,4S)-3-[[4-[5-[(4-butoxyphenyl)methyl]-2-ethyl-pyrazol-3-yl]-1-piperidyl]methyl]-4-(3-fluorophenyl)pyrrolidin-1-yl]-2-cyclohexyl-acetic acid
> <PUBCHEM_IUPAC_CAS_NAME>
(2R)-2-[(3S,4S)-3-[[4-[5-[(4-butoxyphenyl)methyl]-2-ethyl-3-pyrazolyl]-1-piperidinyl]methyl]-4-(3-fluorophenyl)-1-pyrrolidinyl]-2-cyclohexylacetic acid
> <PUBCHEM_IUPAC_NAME_MARKUP>
(2<I>R</I>)-2-[(3<I>S</I>,4<I>S</I>)-3-[[4-[5-[(4-butoxyphenyl)methyl]-2-ethylpyrazol-3-yl]piperidin-1-yl]methyl]-4-(3-fluorophenyl)pyrrolidin-1-yl]-2-cyclohexylacetic acid
> <PUBCHEM_IUPAC_NAME>
(2R)-2-[(3S,4S)-3-[[4-[5-[(4-butoxyphenyl)methyl]-2-ethylpyrazol-3-yl]piperidin-1-yl]methyl]-4-(3-fluorophenyl)pyrrolidin-1-yl]-2-cyclohexylacetic acid
> <PUBCHEM_IUPAC_SYSTEMATIC_NAME>
(2R)-2-[(3S,4S)-3-[[4-[5-[(4-butoxyphenyl)methyl]-2-ethyl-pyrazol-3-yl]piperidin-1-yl]methyl]-4-(3-fluorophenyl)pyrrolidin-1-yl]-2-cyclohexyl-ethanoic acid
> <PUBCHEM_IUPAC_TRADITIONAL_NAME>
(2R)-2-[(3S,4S)-3-[[4-[5-(4-butoxybenzyl)-2-ethyl-pyrazol-3-yl]piperidino]methyl]-4-(3-fluorophenyl)pyrrolidino]-2-cyclohexyl-acetic acid
> <PUBCHEM_IUPAC_INCHI>
InChI=1S/C40H55FN4O3/c1-3-5-22-48-36-16-14-29(15-17-36)23-35-25-38(45(4-2)42-35)30-18-20-43(21-19-30)26-33-27-44(28-37(33)32-12-9-13-34(41)24-32)39(40(46)47)31-10-7-6-8-11-31/h9,12-17,24-25,30-31,33,37,39H,3-8,10-11,18-23,26-28H2,1-2H3,(H,46,47)/t33-,37+,39+/m0/s1
> <PUBCHEM_IUPAC_INCHIKEY>
UIXOOGQAQVUYHU-FWWQNHDYSA-N
> <PUBCHEM_XLOGP3_AA>
6
> <PUBCHEM_EXACT_MASS>
658.42581979
> <PUBCHEM_MOLECULAR_FORMULA>
C40H55FN4O3
> <PUBCHEM_MOLECULAR_WEIGHT>
658.9
> <PUBCHEM_OPENEYE_CAN_SMILES>
CCCCOC1=CC=C(C=C1)CC2=NN(C(=C2)C3CCN(CC3)CC4CN(CC4C5=CC(=CC=C5)F)C(C6CCCCC6)C(=O)O)CC
> <PUBCHEM_OPENEYE_ISO_SMILES>
CCCCOC1=CC=C(C=C1)CC2=NN(C(=C2)C3CCN(CC3)C[C@H]4CN(C[C@@H]4C5=CC(=CC=C5)F)[C@H](C6CCCCC6)C(=O)O)CC
> <PUBCHEM_CACTVS_TPSA>
70.8
> <PUBCHEM_MONOISOTOPIC_WEIGHT>
658.42581979
> <PUBCHEM_TOTAL_CHARGE>
0
> <PUBCHEM_HEAVY_ATOM_COUNT>
48
> <PUBCHEM_ATOM_DEF_STEREO_COUNT>
3
> <PUBCHEM_ATOM_UDEF_STEREO_COUNT>
0
> <PUBCHEM_BOND_DEF_STEREO_COUNT>
0
> <PUBCHEM_BOND_UDEF_STEREO_COUNT>
0
> <PUBCHEM_ISOTOPIC_ATOM_COUNT>
0
> <PUBCHEM_COMPONENT_COUNT>
1
> <PUBCHEM_CACTVS_TAUTO_COUNT>
-1
> <PUBCHEM_COORDINATE_TYPE>
1
5
255
> <PUBCHEM_BONDANNOTATIONS>
10  18  5
13  27  6
18  28  8
18  29  8
28  31  8
29  32  8
30  33  8
31  34  8
32  34  8
33  35  8
39  40  8
39  41  8
40  42  8
41  43  8
42  44  8
43  44  8
7  30  8
7  8  8
8  35  8
9  15  6
$$$$
