516388
  -OEChem-10302200282D
 48 50  0     1  0  0  0  0  0999 V2000
    2.5381   -1.3113    0.0000 O   0  0  0  0  0  0  0  0  0  0  0  0
    4.3283   -3.0537    0.0000 O   0  0  0  0  0  0  0  0  0  0  0  0
    6.9464    3.2821    0.0000 O   0  0  0  0  0  0  0  0  0  0  0  0
    8.7202    2.2580    0.0000 O   0  0  0  0  0  0  0  0  0  0  0  0
    5.2022   -0.7871    0.0000 C   0  0  2  0  0  0  0  0  0  0  0  0
    5.2022    0.2129    0.0000 C   0  0  2  0  0  0  0  0  0  0  0  0
    4.3083   -1.3218    0.0000 C   0  0  3  0  0  0  0  0  0  0  0  0
    4.3083    0.7475    0.0000 C   0  0  0  0  0  0  0  0  0  0  0  0
    3.4022   -0.8079    0.0000 C   0  0  2  0  0  0  0  0  0  0  0  0
    6.0682   -1.2871    0.0000 C   0  0  0  0  0  0  0  0  0  0  0  0
    3.4022    0.2337    0.0000 C   0  0  0  0  0  0  0  0  0  0  0  0
    6.0682    0.7129    0.0000 C   0  0  0  0  0  0  0  0  0  0  0  0
    5.2022    1.2129    0.0000 C   0  0  0  0  0  0  0  0  0  0  0  0
    6.9343   -0.7871    0.0000 C   0  0  0  0  0  0  0  0  0  0  0  0
    3.8183   -2.1935    0.0000 C   0  0  0  0  0  0  0  0  0  0  0  0
    4.8183   -2.1820    0.0000 C   0  0  0  0  0  0  0  0  0  0  0  0
    6.9343    0.2129    0.0000 C   0  0  0  0  0  0  0  0  0  0  0  0
    6.0522    1.7544    0.0000 C   0  0  0  0  0  0  0  0  0  0  0  0
    7.8443    0.7197    0.0000 C   0  0  0  0  0  0  0  0  0  0  0  0
    6.9502    2.2821    0.0000 C   0  0  0  0  0  0  0  0  0  0  0  0
    7.8523    1.7613    0.0000 C   0  0  0  0  0  0  0  0  0  0  0  0
    9.5844    1.7546    0.0000 C   0  0  0  0  0  0  0  0  0  0  0  0
    5.2088   -1.6371    0.0000 H   0  0  0  0  0  0  0  0  0  0  0  0
    4.7129    1.2173    0.0000 H   0  0  0  0  0  0  0  0  0  0  0  0
    3.9147    1.2266    0.0000 H   0  0  0  0  0  0  0  0  0  0  0  0
    2.8647   -0.4990    0.0000 H   0  0  0  0  0  0  0  0  0  0  0  0
    5.6697   -1.7621    0.0000 H   0  0  0  0  0  0  0  0  0  0  0  0
    6.4668   -1.7621    0.0000 H   0  0  0  0  0  0  0  0  0  0  0  0
    3.1932    0.8174    0.0000 H   0  0  0  0  0  0  0  0  0  0  0  0
    2.7914    0.1276    0.0000 H   0  0  0  0  0  0  0  0  0  0  0  0
    5.8222    1.2129    0.0000 H   0  0  0  0  0  0  0  0  0  0  0  0
    5.2022    1.8329    0.0000 H   0  0  0  0  0  0  0  0  0  0  0  0
    4.5822    1.2129    0.0000 H   0  0  0  0  0  0  0  0  0  0  0  0
    7.1463   -1.3697    0.0000 H   0  0  0  0  0  0  0  0  0  0  0  0
    7.5449   -0.6795    0.0000 H   0  0  0  0  0  0  0  0  0  0  0  0
    3.3388   -1.8005    0.0000 H   0  0  0  0  0  0  0  0  0  0  0  0
    3.3480   -2.5975    0.0000 H   0  0  0  0  0  0  0  0  0  0  0  0
    4.2850   -2.4982    0.0000 H   0  0  0  0  0  0  0  0  0  0  0  0
    5.1344   -2.7153    0.0000 H   0  0  0  0  0  0  0  0  0  0  0  0
    5.3516   -1.8658    0.0000 H   0  0  0  0  0  0  0  0  0  0  0  0
    5.5117    2.0582    0.0000 H   0  0  0  0  0  0  0  0  0  0  0  0
    2.0000   -1.0033    0.0000 H   0  0  0  0  0  0  0  0  0  0  0  0
    8.3776    0.4035    0.0000 H   0  0  0  0  0  0  0  0  0  0  0  0
    4.0245   -3.5942    0.0000 H   0  0  0  0  0  0  0  0  0  0  0  0
    7.4821    3.5942    0.0000 H   0  0  0  0  0  0  0  0  0  0  0  0
    9.2723    1.2189    0.0000 H   0  0  0  0  0  0  0  0  0  0  0  0
   10.1201    1.4426    0.0000 H   0  0  0  0  0  0  0  0  0  0  0  0
    9.8964    2.2904    0.0000 H   0  0  0  0  0  0  0  0  0  0  0  0
  9  1  1  1  0  0  0
  1 42  1  0  0  0  0
  2 15  1  0  0  0  0
  2 44  1  0  0  0  0
  3 20  1  0  0  0  0
  3 45  1  0  0  0  0
  4 21  1  0  0  0  0
  4 22  1  0  0  0  0
  5  6  1  0  0  0  0
  5  7  1  0  0  0  0
  5 10  1  0  0  0  0
  5 23  1  6  0  0  0
  6  8  1  0  0  0  0
  6 12  1  0  0  0  0
  6 13  1  1  0  0  0
  7  9  1  0  0  0  0
  7 15  1  0  0  0  0
  7 16  1  0  0  0  0
  8 11  1  0  0  0  0
  8 24  1  0  0  0  0
  8 25  1  0  0  0  0
  9 11  1  0  0  0  0
  9 26  1  0  0  0  0
 10 14  1  0  0  0  0
 10 27  1  0  0  0  0
 10 28  1  0  0  0  0
 11 29  1  0  0  0  0
 11 30  1  0  0  0  0
 12 17  1  0  0  0  0
 12 18  2  0  0  0  0
 13 31  1  0  0  0  0
 13 32  1  0  0  0  0
 13 33  1  0  0  0  0
 14 17  1  0  0  0  0
 14 34  1  0  0  0  0
 14 35  1  0  0  0  0
 15 36  1  0  0  0  0
 15 37  1  0  0  0  0
 16 38  1  0  0  0  0
 16 39  1  0  0  0  0
 16 40  1  0  0  0  0
 17 19  2  0  0  0  0
 18 20  1  0  0  0  0
 18 41  1  0  0  0  0
 19 21  1  0  0  0  0
 19 43  1  0  0  0  0
 20 21  2  0  0  0  0
 22 46  1  0  0  0  0
 22 47  1  0  0  0  0
 22 48  1  0  0  0  0
M  END
> <PUBCHEM_COMPOUND_CID>
516388
> <PUBCHEM_COMPOUND_CANONICALIZED>
1
> <PUBCHEM_CACTVS_COMPLEXITY>
414
> <PUBCHEM_CACTVS_HBOND_ACCEPTOR>
4
> <PUBCHEM_CACTVS_HBOND_DONOR>
3
> <PUBCHEM_CACTVS_ROTATABLE_BOND>
2
> <PUBCHEM_CACTVS_SUBSKEYS>
AAADceB4OAAAAAAAAAAAAAAAAAAAAAAAAAAwYMAAAAAAAADBAAAAGgAACAAADxSgmAIyBoAABgCAAiBCAAACCAAgIAAAiAAGiIgNNiKGMRqAcCMlwBELuAeAwPAPoAABAAAQQADAAAYAADCAAAAAAAAAAA==
> <PUBCHEM_IUPAC_OPENEYE_NAME>
(2S,4aS,10aR)-1-(hydroxymethyl)-7-methoxy-1,4a-dimethyl-2,3,4,9,10,10a-hexahydrophenanthrene-2,6-diol
> <PUBCHEM_IUPAC_CAS_NAME>
(2S,4aS,10aR)-1-(hydroxymethyl)-7-methoxy-1,4a-dimethyl-2,3,4,9,10,10a-hexahydrophenanthrene-2,6-diol
> <PUBCHEM_IUPAC_NAME_MARKUP>
(2<I>S</I>,4<I>a</I><I>S</I>,10<I>a</I><I>R</I>)-1-(hydroxymethyl)-7-methoxy-1,4<I>a</I>-dimethyl-2,3,4,9,10,10<I>a</I>-hexahydrophenanthrene-2,6-diol
> <PUBCHEM_IUPAC_NAME>
(2S,4aS,10aR)-1-(hydroxymethyl)-7-methoxy-1,4a-dimethyl-2,3,4,9,10,10a-hexahydrophenanthrene-2,6-diol
> <PUBCHEM_IUPAC_SYSTEMATIC_NAME>
(2S,4aS,10aR)-1-(hydroxymethyl)-7-methoxy-1,4a-dimethyl-2,3,4,9,10,10a-hexahydrophenanthrene-2,6-diol
> <PUBCHEM_IUPAC_TRADITIONAL_NAME>
(2S,4aS,10aR)-7-methoxy-1,4a-dimethyl-1-methylol-2,3,4,9,10,10a-hexahydrophenanthrene-2,6-diol
> <PUBCHEM_IUPAC_INCHI>
InChI=1S/C18H26O4/c1-17-7-6-16(21)18(2,10-19)15(17)5-4-11-8-14(22-3)13(20)9-12(11)17/h8-9,15-16,19-21H,4-7,10H2,1-3H3/t15-,16+,17-,18?/m1/s1
> <PUBCHEM_IUPAC_INCHIKEY>
XEBOSAUXBVJMME-SOABOVLPSA-N
> <PUBCHEM_XLOGP3_AA>
3.4
> <PUBCHEM_EXACT_MASS>
306.18310931
> <PUBCHEM_MOLECULAR_FORMULA>
C18H26O4
> <PUBCHEM_MOLECULAR_WEIGHT>
306.4
> <PUBCHEM_OPENEYE_CAN_SMILES>
CC12CCC(C(C1CCC3=CC(=C(C=C23)O)OC)(C)CO)O
> <PUBCHEM_OPENEYE_ISO_SMILES>
C[C@]12CC[C@@H](C([C@@H]1CCC3=CC(=C(C=C23)O)OC)(C)CO)O
> <PUBCHEM_CACTVS_TPSA>
69.9
> <PUBCHEM_MONOISOTOPIC_WEIGHT>
306.18310931
> <PUBCHEM_TOTAL_CHARGE>
0
> <PUBCHEM_HEAVY_ATOM_COUNT>
22
> <PUBCHEM_ATOM_DEF_STEREO_COUNT>
3
> <PUBCHEM_ATOM_UDEF_STEREO_COUNT>
1
> <PUBCHEM_BOND_DEF_STEREO_COUNT>
0
> <PUBCHEM_BOND_UDEF_STEREO_COUNT>
0
> <PUBCHEM_ISOTOPIC_ATOM_COUNT>
0
> <PUBCHEM_COMPONENT_COUNT>
1
> <PUBCHEM_CACTVS_TAUTO_COUNT>
-1
> <PUBCHEM_COORDINATE_TYPE>
1
5
255
> <PUBCHEM_BONDANNOTATIONS>
9  1  5
12  17  8
12  18  8
17  19  8
18  20  8
19  21  8
20  21  8
5  23  6
6  13  5
7  16  3
$$$$
