516349
  -OEChem-10302200282D
 93 99  0     1  0  0  0  0  0999 V2000
    5.3349   -5.8714    0.0000 F   0  0  0  0  0  0  0  0  0  0  0  0
    4.3179    1.1408    0.0000 O   0  0  0  0  0  0  0  0  0  0  0  0
    6.0121    0.7807    0.0000 O   0  0  0  0  0  0  0  0  0  0  0  0
    5.5963   -1.1756    0.0000 N   0  0  3  0  0  0  0  0  0  0  0  0
    8.6568   -1.1292    0.0000 N   0  0  0  0  0  0  0  0  0  0  0  0
   11.4201    1.2979    0.0000 N   0  0  0  0  0  0  0  0  0  0  0  0
   11.7291    2.2489    0.0000 N   0  0  0  0  0  0  0  0  0  0  0  0
    7.0745   -1.8337    0.0000 C   0  0  2  0  0  0  0  0  0  0  0  0
    6.4053   -2.5768    0.0000 C   0  0  2  0  0  0  0  0  0  0  0  0
    6.5745   -0.9676    0.0000 C   0  0  0  0  0  0  0  0  0  0  0  0
    5.4918   -2.1701    0.0000 C   0  0  0  0  0  0  0  0  0  0  0  0
    4.8532   -0.5064    0.0000 C   0  0  2  0  0  0  0  0  0  0  0  0
    3.9021   -0.8154    0.0000 C   0  0  0  0  0  0  0  0  0  0  0  0
    8.0690   -1.9382    0.0000 C   0  0  0  0  0  0  0  0  0  0  0  0
    3.1590   -0.1463    0.0000 C   0  0  0  0  0  0  0  0  0  0  0  0
    3.6942   -1.7936    0.0000 C   0  0  0  0  0  0  0  0  0  0  0  0
    6.6132   -3.5550    0.0000 C   0  0  0  0  0  0  0  0  0  0  0  0
    9.6513   -1.2337    0.0000 C   0  0  0  0  0  0  0  0  0  0  0  0
    8.2500   -0.2156    0.0000 C   0  0  0  0  0  0  0  0  0  0  0  0
    2.2079   -0.4553    0.0000 C   0  0  0  0  0  0  0  0  0  0  0  0
    2.7431   -2.1026    0.0000 C   0  0  0  0  0  0  0  0  0  0  0  0
    9.8323    0.4889    0.0000 C   0  0  0  0  0  0  0  0  0  0  0  0
    2.0000   -1.4335    0.0000 C   0  0  0  0  0  0  0  0  0  0  0  0
   10.2391   -0.4247    0.0000 C   0  0  0  0  0  0  0  0  0  0  0  0
    8.8378    0.5934    0.0000 C   0  0  0  0  0  0  0  0  0  0  0  0
    5.0611    0.4717    0.0000 C   0  0  0  0  0  0  0  0  0  0  0  0
    5.8701   -4.2241    0.0000 C   0  0  0  0  0  0  0  0  0  0  0  0
    7.5643   -3.8640    0.0000 C   0  0  0  0  0  0  0  0  0  0  0  0
   10.4201    1.2979    0.0000 C   0  0  0  0  0  0  0  0  0  0  0  0
    6.0780   -5.2022    0.0000 C   0  0  0  0  0  0  0  0  0  0  0  0
    7.7722   -4.8421    0.0000 C   0  0  0  0  0  0  0  0  0  0  0  0
   10.1111    2.2489    0.0000 C   0  0  0  0  0  0  0  0  0  0  0  0
    7.0291   -5.5113    0.0000 C   0  0  0  0  0  0  0  0  0  0  0  0
   10.9201    2.8367    0.0000 C   0  0  0  0  0  0  0  0  0  0  0  0
   12.0079    0.4889    0.0000 C   0  0  0  0  0  0  0  0  0  0  0  0
   10.9201    3.8367    0.0000 C   0  0  0  0  0  0  0  0  0  0  0  0
   13.0024    0.5934    0.0000 C   0  0  0  0  0  0  0  0  0  0  0  0
   11.7861    4.3367    0.0000 C   0  0  0  0  0  0  0  0  0  0  0  0
   10.0541    4.3367    0.0000 C   0  0  0  0  0  0  0  0  0  0  0  0
   11.7861    5.3367    0.0000 C   0  0  0  0  0  0  0  0  0  0  0  0
   10.0541    5.3367    0.0000 C   0  0  0  0  0  0  0  0  0  0  0  0
   12.6801    3.8020    0.0000 C   0  0  0  0  0  0  0  0  0  0  0  0
   10.9201    5.8367    0.0000 C   0  0  0  0  0  0  0  0  0  0  0  0
   12.6801    5.8714    0.0000 C   0  0  0  0  0  0  0  0  0  0  0  0
   13.5862    4.3159    0.0000 C   0  0  0  0  0  0  0  0  0  0  0  0
   13.5862    5.3575    0.0000 C   0  0  0  0  0  0  0  0  0  0  0  0
    7.4121   -1.3137    0.0000 H   0  0  0  0  0  0  0  0  0  0  0  0
    5.9235   -2.9670    0.0000 H   0  0  0  0  0  0  0  0  0  0  0  0
    7.1409   -0.7155    0.0000 H   0  0  0  0  0  0  0  0  0  0  0  0
    6.3829   -0.3780    0.0000 H   0  0  0  0  0  0  0  0  0  0  0  0
    4.8853   -2.0412    0.0000 H   0  0  0  0  0  0  0  0  0  0  0  0
    5.3002   -2.7597    0.0000 H   0  0  0  0  0  0  0  0  0  0  0  0
    5.4428   -0.3148    0.0000 H   0  0  0  0  0  0  0  0  0  0  0  0
    4.3629   -1.2303    0.0000 H   0  0  0  0  0  0  0  0  0  0  0  0
    7.8981   -2.5342    0.0000 H   0  0  0  0  0  0  0  0  0  0  0  0
    8.6262   -2.2100    0.0000 H   0  0  0  0  0  0  0  0  0  0  0  0
    3.6475    0.2354    0.0000 H   0  0  0  0  0  0  0  0  0  0  0  0
    2.8679    0.4011    0.0000 H   0  0  0  0  0  0  0  0  0  0  0  0
    3.7805   -2.4076    0.0000 H   0  0  0  0  0  0  0  0  0  0  0  0
    4.3138   -1.8152    0.0000 H   0  0  0  0  0  0  0  0  0  0  0  0
    9.4804   -1.8297    0.0000 H   0  0  0  0  0  0  0  0  0  0  0  0
   10.2085   -1.5055    0.0000 H   0  0  0  0  0  0  0  0  0  0  0  0
    7.8193    0.2304    0.0000 H   0  0  0  0  0  0  0  0  0  0  0  0
    7.7360   -0.5623    0.0000 H   0  0  0  0  0  0  0  0  0  0  0  0
    2.1216    0.1586    0.0000 H   0  0  0  0  0  0  0  0  0  0  0  0
    1.5883   -0.4337    0.0000 H   0  0  0  0  0  0  0  0  0  0  0  0
    2.2546   -2.4843    0.0000 H   0  0  0  0  0  0  0  0  0  0  0  0
    3.0342   -2.6500    0.0000 H   0  0  0  0  0  0  0  0  0  0  0  0
    9.5802    1.0552    0.0000 H   0  0  0  0  0  0  0  0  0  0  0  0
    1.4252   -1.2012    0.0000 H   0  0  0  0  0  0  0  0  0  0  0  0
    1.6714   -1.9593    0.0000 H   0  0  0  0  0  0  0  0  0  0  0  0
   10.6698   -0.8707    0.0000 H   0  0  0  0  0  0  0  0  0  0  0  0
   10.7531   -0.0780    0.0000 H   0  0  0  0  0  0  0  0  0  0  0  0
    9.0087    1.1894    0.0000 H   0  0  0  0  0  0  0  0  0  0  0  0
    8.2806    0.8652    0.0000 H   0  0  0  0  0  0  0  0  0  0  0  0
    5.2804   -4.0325    0.0000 H   0  0  0  0  0  0  0  0  0  0  0  0
    8.0250   -3.4491    0.0000 H   0  0  0  0  0  0  0  0  0  0  0  0
    8.3619   -5.0337    0.0000 H   0  0  0  0  0  0  0  0  0  0  0  0
    4.4468    1.7473    0.0000 H   0  0  0  0  0  0  0  0  0  0  0  0
    9.5214    2.4405    0.0000 H   0  0  0  0  0  0  0  0  0  0  0  0
    7.1580   -6.1177    0.0000 H   0  0  0  0  0  0  0  0  0  0  0  0
   11.4507    0.2171    0.0000 H   0  0  0  0  0  0  0  0  0  0  0  0
   12.1788   -0.1071    0.0000 H   0  0  0  0  0  0  0  0  0  0  0  0
   13.0672   -0.0232    0.0000 H   0  0  0  0  0  0  0  0  0  0  0  0
   13.6190    0.6582    0.0000 H   0  0  0  0  0  0  0  0  0  0  0  0
   12.9376    1.2100    0.0000 H   0  0  0  0  0  0  0  0  0  0  0  0
    9.5172    4.0267    0.0000 H   0  0  0  0  0  0  0  0  0  0  0  0
    9.5172    5.6467    0.0000 H   0  0  0  0  0  0  0  0  0  0  0  0
   12.6729    3.1821    0.0000 H   0  0  0  0  0  0  0  0  0  0  0  0
   10.9201    6.4567    0.0000 H   0  0  0  0  0  0  0  0  0  0  0  0
   12.6729    6.4913    0.0000 H   0  0  0  0  0  0  0  0  0  0  0  0
   14.1219    4.0038    0.0000 H   0  0  0  0  0  0  0  0  0  0  0  0
   14.1219    5.6696    0.0000 H   0  0  0  0  0  0  0  0  0  0  0  0
  1 30  1  0  0  0  0
  2 26  1  0  0  0  0
  2 79  1  0  0  0  0
  3 26  2  0  0  0  0
  4 10  1  0  0  0  0
  4 11  1  0  0  0  0
  4 12  1  0  0  0  0
  5 14  1  0  0  0  0
  5 18  1  0  0  0  0
  5 19  1  0  0  0  0
  6  7  1  0  0  0  0
  6 29  1  0  0  0  0
  6 35  1  0  0  0  0
  7 34  2  0  0  0  0
  8  9  1  0  0  0  0
  8 10  1  0  0  0  0
  8 14  1  6  0  0  0
  8 47  1  0  0  0  0
  9 11  1  0  0  0  0
  9 17  1  1  0  0  0
  9 48  1  0  0  0  0
 10 49  1  0  0  0  0
 10 50  1  0  0  0  0
 11 51  1  0  0  0  0
 11 52  1  0  0  0  0
 12 13  1  0  0  0  0
 12 26  1  6  0  0  0
 12 53  1  0  0  0  0
 13 15  1  0  0  0  0
 13 16  1  0  0  0  0
 13 54  1  0  0  0  0
 14 55  1  0  0  0  0
 14 56  1  0  0  0  0
 15 20  1  0  0  0  0
 15 57  1  0  0  0  0
 15 58  1  0  0  0  0
 16 21  1  0  0  0  0
 16 59  1  0  0  0  0
 16 60  1  0  0  0  0
 17 27  2  0  0  0  0
 17 28  1  0  0  0  0
 18 24  1  0  0  0  0
 18 61  1  0  0  0  0
 18 62  1  0  0  0  0
 19 25  1  0  0  0  0
 19 63  1  0  0  0  0
 19 64  1  0  0  0  0
 20 23  1  0  0  0  0
 20 65  1  0  0  0  0
 20 66  1  0  0  0  0
 21 23  1  0  0  0  0
 21 67  1  0  0  0  0
 21 68  1  0  0  0  0
 22 24  1  0  0  0  0
 22 25  1  0  0  0  0
 22 29  1  0  0  0  0
 22 69  1  0  0  0  0
 23 70  1  0  0  0  0
 23 71  1  0  0  0  0
 24 72  1  0  0  0  0
 24 73  1  0  0  0  0
 25 74  1  0  0  0  0
 25 75  1  0  0  0  0
 27 30  1  0  0  0  0
 27 76  1  0  0  0  0
 28 31  2  0  0  0  0
 28 77  1  0  0  0  0
 29 32  2  0  0  0  0
 30 33  2  0  0  0  0
 31 33  1  0  0  0  0
 31 78  1  0  0  0  0
 32 34  1  0  0  0  0
 32 80  1  0  0  0  0
 33 81  1  0  0  0  0
 34 36  1  0  0  0  0
 35 37  1  0  0  0  0
 35 82  1  0  0  0  0
 35 83  1  0  0  0  0
 36 38  1  0  0  0  0
 36 39  2  0  0  0  0
 37 84  1  0  0  0  0
 37 85  1  0  0  0  0
 37 86  1  0  0  0  0
 38 40  1  0  0  0  0
 38 42  2  0  0  0  0
 39 41  1  0  0  0  0
 39 87  1  0  0  0  0
 40 43  1  0  0  0  0
 40 44  2  0  0  0  0
 41 43  2  0  0  0  0
 41 88  1  0  0  0  0
 42 45  1  0  0  0  0
 42 89  1  0  0  0  0
 43 90  1  0  0  0  0
 44 46  1  0  0  0  0
 44 91  1  0  0  0  0
 45 46  2  0  0  0  0
 45 92  1  0  0  0  0
 46 93  1  0  0  0  0
M  END
> <PUBCHEM_COMPOUND_CID>
516349
> <PUBCHEM_COMPOUND_CANONICALIZED>
1
> <PUBCHEM_CACTVS_COMPLEXITY>
985
> <PUBCHEM_CACTVS_HBOND_ACCEPTOR>
6
> <PUBCHEM_CACTVS_HBOND_DONOR>
1
> <PUBCHEM_CACTVS_ROTATABLE_BOND>
9
> <PUBCHEM_CACTVS_SUBSKEYS>
AAADcfB/sQAAAAAAAAAAAAAAAAAAAWLAAAA8YMGCAAAAAADB1AAAHwAICAAADSjBngwyiNMIAgCqAyTyTACSBAAhggAY2CG4ZJgKILLA0fGE5AhkiADYyAeYyOCOgAACAAAQAAAAAAQAACAAAAAAAAAAAA==
> <PUBCHEM_IUPAC_OPENEYE_NAME>
(2R)-2-cyclohexyl-2-[(3S,4S)-3-[[4-[2-ethyl-5-(1-naphthyl)pyrazol-3-yl]-1-piperidyl]methyl]-4-(3-fluorophenyl)pyrrolidin-1-yl]acetic acid
> <PUBCHEM_IUPAC_CAS_NAME>
(2R)-2-cyclohexyl-2-[(3S,4S)-3-[[4-[2-ethyl-5-(1-naphthalenyl)-3-pyrazolyl]-1-piperidinyl]methyl]-4-(3-fluorophenyl)-1-pyrrolidinyl]acetic acid
> <PUBCHEM_IUPAC_NAME_MARKUP>
(2<I>R</I>)-2-cyclohexyl-2-[(3<I>S</I>,4<I>S</I>)-3-[[4-(2-ethyl-5-naphthalen-1-ylpyrazol-3-yl)piperidin-1-yl]methyl]-4-(3-fluorophenyl)pyrrolidin-1-yl]acetic acid
> <PUBCHEM_IUPAC_NAME>
(2R)-2-cyclohexyl-2-[(3S,4S)-3-[[4-(2-ethyl-5-naphthalen-1-ylpyrazol-3-yl)piperidin-1-yl]methyl]-4-(3-fluorophenyl)pyrrolidin-1-yl]acetic acid
> <PUBCHEM_IUPAC_SYSTEMATIC_NAME>
(2R)-2-cyclohexyl-2-[(3S,4S)-3-[[4-(2-ethyl-5-naphthalen-1-yl-pyrazol-3-yl)piperidin-1-yl]methyl]-4-(3-fluorophenyl)pyrrolidin-1-yl]ethanoic acid
> <PUBCHEM_IUPAC_TRADITIONAL_NAME>
(2R)-2-cyclohexyl-2-[(3S,4S)-3-[[4-[2-ethyl-5-(1-naphthyl)pyrazol-3-yl]piperidino]methyl]-4-(3-fluorophenyl)pyrrolidino]acetic acid
> <PUBCHEM_IUPAC_INCHI>
InChI=1S/C39H47FN4O2/c1-2-44-37(23-36(41-44)34-17-9-13-27-10-6-7-16-33(27)34)28-18-20-42(21-19-28)24-31-25-43(26-35(31)30-14-8-15-32(40)22-30)38(39(45)46)29-11-4-3-5-12-29/h6-10,13-17,22-23,28-29,31,35,38H,2-5,11-12,18-21,24-26H2,1H3,(H,45,46)/t31-,35+,38+/m0/s1
> <PUBCHEM_IUPAC_INCHIKEY>
ABERAISYKNNXRL-PHYCXYHLSA-N
> <PUBCHEM_XLOGP3_AA>
5.7
> <PUBCHEM_EXACT_MASS>
622.36830492
> <PUBCHEM_MOLECULAR_FORMULA>
C39H47FN4O2
> <PUBCHEM_MOLECULAR_WEIGHT>
622.8
> <PUBCHEM_OPENEYE_CAN_SMILES>
CCN1C(=CC(=N1)C2=CC=CC3=CC=CC=C32)C4CCN(CC4)CC5CN(CC5C6=CC(=CC=C6)F)C(C7CCCCC7)C(=O)O
> <PUBCHEM_OPENEYE_ISO_SMILES>
CCN1C(=CC(=N1)C2=CC=CC3=CC=CC=C32)C4CCN(CC4)C[C@H]5CN(C[C@@H]5C6=CC(=CC=C6)F)[C@H](C7CCCCC7)C(=O)O
> <PUBCHEM_CACTVS_TPSA>
61.6
> <PUBCHEM_MONOISOTOPIC_WEIGHT>
622.36830492
> <PUBCHEM_TOTAL_CHARGE>
0
> <PUBCHEM_HEAVY_ATOM_COUNT>
46
> <PUBCHEM_ATOM_DEF_STEREO_COUNT>
3
> <PUBCHEM_ATOM_UDEF_STEREO_COUNT>
0
> <PUBCHEM_BOND_DEF_STEREO_COUNT>
0
> <PUBCHEM_BOND_UDEF_STEREO_COUNT>
0
> <PUBCHEM_ISOTOPIC_ATOM_COUNT>
0
> <PUBCHEM_COMPONENT_COUNT>
1
> <PUBCHEM_CACTVS_TAUTO_COUNT>
-1
> <PUBCHEM_COORDINATE_TYPE>
1
5
255
> <PUBCHEM_BONDANNOTATIONS>
12  26  6
17  27  8
17  28  8
27  30  8
28  31  8
29  32  8
30  33  8
31  33  8
32  34  8
36  38  8
36  39  8
38  40  8
38  42  8
39  41  8
40  43  8
40  44  8
41  43  8
42  45  8
44  46  8
45  46  8
6  29  8
6  7  8
7  34  8
8  14  6
9  17  5
$$$$
