516351
  -OEChem-10302200282D
 81 86  0     1  0  0  0  0  0999 V2000
   10.4645    6.7820    0.0000 Cl  0  0  0  0  0  0  0  0  0  0  0  0
    7.7132   -6.7820    0.0000 F   0  0  0  0  0  0  0  0  0  0  0  0
    2.7688   -1.7067    0.0000 O   0  0  0  0  0  0  0  0  0  0  0  0
    4.3511   -1.0022    0.0000 O   0  0  0  0  0  0  0  0  0  0  0  0
    5.1646   -2.8293    0.0000 N   0  0  3  0  0  0  0  0  0  0  0  0
    7.6133   -0.9929    0.0000 N   0  0  0  0  0  0  0  0  0  0  0  0
    6.8043    2.5949    0.0000 N   0  0  0  0  0  0  0  0  0  0  0  0
    7.1133    3.5459    0.0000 N   0  0  0  0  0  0  0  0  0  0  0  0
    6.7473   -2.4929    0.0000 C   0  0  2  0  0  0  0  0  0  0  0  0
    6.6428   -3.4874    0.0000 C   0  0  2  0  0  0  0  0  0  0  0  0
    5.8338   -2.0862    0.0000 C   0  0  0  0  0  0  0  0  0  0  0  0
    5.6646   -3.6954    0.0000 C   0  0  0  0  0  0  0  0  0  0  0  0
    4.1701   -2.7248    0.0000 C   0  0  2  0  0  0  0  0  0  0  0  0
    3.5823   -3.5338    0.0000 C   0  0  0  0  0  0  0  0  0  0  0  0
    7.6133   -1.9929    0.0000 C   0  0  0  0  0  0  0  0  0  0  0  0
    2.5878   -3.4293    0.0000 C   0  0  0  0  0  0  0  0  0  0  0  0
    3.9890   -4.4474    0.0000 C   0  0  0  0  0  0  0  0  0  0  0  0
    7.3859   -4.1566    0.0000 C   0  0  0  0  0  0  0  0  0  0  0  0
    2.0000   -4.2383    0.0000 C   0  0  0  0  0  0  0  0  0  0  0  0
    3.4013   -5.2564    0.0000 C   0  0  0  0  0  0  0  0  0  0  0  0
    6.7473   -0.4929    0.0000 C   0  0  0  0  0  0  0  0  0  0  0  0
    8.4793   -0.4929    0.0000 C   0  0  0  0  0  0  0  0  0  0  0  0
    2.4067   -5.1518    0.0000 C   0  0  0  0  0  0  0  0  0  0  0  0
    7.6133    1.0071    0.0000 C   0  0  0  0  0  0  0  0  0  0  0  0
    6.7473    0.5071    0.0000 C   0  0  0  0  0  0  0  0  0  0  0  0
    8.4793    0.5071    0.0000 C   0  0  0  0  0  0  0  0  0  0  0  0
    3.7634   -1.8112    0.0000 C   0  0  0  0  0  0  0  0  0  0  0  0
    7.1780   -5.1347    0.0000 C   0  0  0  0  0  0  0  0  0  0  0  0
    8.3370   -3.8476    0.0000 C   0  0  0  0  0  0  0  0  0  0  0  0
    7.6133    2.0071    0.0000 C   0  0  0  0  0  0  0  0  0  0  0  0
    7.9211   -5.8038    0.0000 C   0  0  0  0  0  0  0  0  0  0  0  0
    9.0801   -4.5167    0.0000 C   0  0  0  0  0  0  0  0  0  0  0  0
    8.4223    2.5949    0.0000 C   0  0  0  0  0  0  0  0  0  0  0  0
    8.8722   -5.4948    0.0000 C   0  0  0  0  0  0  0  0  0  0  0  0
    8.1133    3.5459    0.0000 C   0  0  0  0  0  0  0  0  0  0  0  0
    8.7011    4.3549    0.0000 C   0  0  0  0  0  0  0  0  0  0  0  0
    8.2944    5.2685    0.0000 C   0  0  0  0  0  0  0  0  0  0  0  0
    9.6956    4.2504    0.0000 C   0  0  0  0  0  0  0  0  0  0  0  0
    8.8822    6.0775    0.0000 C   0  0  0  0  0  0  0  0  0  0  0  0
   10.2834    5.0594    0.0000 C   0  0  0  0  0  0  0  0  0  0  0  0
    9.8767    5.9730    0.0000 C   0  0  0  0  0  0  0  0  0  0  0  0
    6.7148   -1.8738    0.0000 H   0  0  0  0  0  0  0  0  0  0  0  0
    6.4823   -4.0863    0.0000 H   0  0  0  0  0  0  0  0  0  0  0  0
    6.1437   -1.5492    0.0000 H   0  0  0  0  0  0  0  0  0  0  0  0
    5.3322   -1.7218    0.0000 H   0  0  0  0  0  0  0  0  0  0  0  0
    5.0982   -3.9475    0.0000 H   0  0  0  0  0  0  0  0  0  0  0  0
    5.8562   -4.2850    0.0000 H   0  0  0  0  0  0  0  0  0  0  0  0
    4.5345   -2.2232    0.0000 H   0  0  0  0  0  0  0  0  0  0  0  0
    3.3301   -2.9674    0.0000 H   0  0  0  0  0  0  0  0  0  0  0  0
    7.8254   -2.5755    0.0000 H   0  0  0  0  0  0  0  0  0  0  0  0
    8.2239   -1.8852    0.0000 H   0  0  0  0  0  0  0  0  0  0  0  0
    2.7587   -2.8333    0.0000 H   0  0  0  0  0  0  0  0  0  0  0  0
    2.0305   -3.1575    0.0000 H   0  0  0  0  0  0  0  0  0  0  0  0
    4.4197   -4.8934    0.0000 H   0  0  0  0  0  0  0  0  0  0  0  0
    4.5030   -4.1007    0.0000 H   0  0  0  0  0  0  0  0  0  0  0  0
    1.5693   -3.7923    0.0000 H   0  0  0  0  0  0  0  0  0  0  0  0
    1.4860   -4.5850    0.0000 H   0  0  0  0  0  0  0  0  0  0  0  0
    3.2304   -5.8524    0.0000 H   0  0  0  0  0  0  0  0  0  0  0  0
    3.9585   -5.5282    0.0000 H   0  0  0  0  0  0  0  0  0  0  0  0
    6.1367   -0.3853    0.0000 H   0  0  0  0  0  0  0  0  0  0  0  0
    6.5352   -1.0755    0.0000 H   0  0  0  0  0  0  0  0  0  0  0  0
    8.6914   -1.0755    0.0000 H   0  0  0  0  0  0  0  0  0  0  0  0
    9.0899   -0.3853    0.0000 H   0  0  0  0  0  0  0  0  0  0  0  0
    1.8052   -5.3018    0.0000 H   0  0  0  0  0  0  0  0  0  0  0  0
    2.4500   -5.7703    0.0000 H   0  0  0  0  0  0  0  0  0  0  0  0
    7.0764    1.3171    0.0000 H   0  0  0  0  0  0  0  0  0  0  0  0
    6.5352    1.0897    0.0000 H   0  0  0  0  0  0  0  0  0  0  0  0
    6.1367    0.3994    0.0000 H   0  0  0  0  0  0  0  0  0  0  0  0
    9.0899    0.3994    0.0000 H   0  0  0  0  0  0  0  0  0  0  0  0
    8.6914    1.0897    0.0000 H   0  0  0  0  0  0  0  0  0  0  0  0
    6.5883   -5.3263    0.0000 H   0  0  0  0  0  0  0  0  0  0  0  0
    8.4659   -3.2411    0.0000 H   0  0  0  0  0  0  0  0  0  0  0  0
    9.6698   -4.3251    0.0000 H   0  0  0  0  0  0  0  0  0  0  0  0
    2.5167   -1.1403    0.0000 H   0  0  0  0  0  0  0  0  0  0  0  0
    9.0120    2.4033    0.0000 H   0  0  0  0  0  0  0  0  0  0  0  0
    9.3330   -5.9097    0.0000 H   0  0  0  0  0  0  0  0  0  0  0  0
    6.2146    2.4033    0.0000 H   0  0  0  0  0  0  0  0  0  0  0  0
    7.6778    5.3333    0.0000 H   0  0  0  0  0  0  0  0  0  0  0  0
    9.9478    3.6840    0.0000 H   0  0  0  0  0  0  0  0  0  0  0  0
    8.6300    6.6439    0.0000 H   0  0  0  0  0  0  0  0  0  0  0  0
   10.9000    4.9946    0.0000 H   0  0  0  0  0  0  0  0  0  0  0  0
  1 41  1  0  0  0  0
  2 31  1  0  0  0  0
  3 27  1  0  0  0  0
  3 74  1  0  0  0  0
  4 27  2  0  0  0  0
  5 11  1  0  0  0  0
  5 12  1  0  0  0  0
  5 13  1  0  0  0  0
  6 15  1  0  0  0  0
  6 21  1  0  0  0  0
  6 22  1  0  0  0  0
  7  8  1  0  0  0  0
  7 30  1  0  0  0  0
  7 77  1  0  0  0  0
  8 35  2  0  0  0  0
  9 10  1  0  0  0  0
  9 11  1  0  0  0  0
  9 15  1  6  0  0  0
  9 42  1  0  0  0  0
 10 12  1  0  0  0  0
 10 18  1  1  0  0  0
 10 43  1  0  0  0  0
 11 44  1  0  0  0  0
 11 45  1  0  0  0  0
 12 46  1  0  0  0  0
 12 47  1  0  0  0  0
 13 14  1  0  0  0  0
 13 27  1  6  0  0  0
 13 48  1  0  0  0  0
 14 16  1  0  0  0  0
 14 17  1  0  0  0  0
 14 49  1  0  0  0  0
 15 50  1  0  0  0  0
 15 51  1  0  0  0  0
 16 19  1  0  0  0  0
 16 52  1  0  0  0  0
 16 53  1  0  0  0  0
 17 20  1  0  0  0  0
 17 54  1  0  0  0  0
 17 55  1  0  0  0  0
 18 28  2  0  0  0  0
 18 29  1  0  0  0  0
 19 23  1  0  0  0  0
 19 56  1  0  0  0  0
 19 57  1  0  0  0  0
 20 23  1  0  0  0  0
 20 58  1  0  0  0  0
 20 59  1  0  0  0  0
 21 25  1  0  0  0  0
 21 60  1  0  0  0  0
 21 61  1  0  0  0  0
 22 26  1  0  0  0  0
 22 62  1  0  0  0  0
 22 63  1  0  0  0  0
 23 64  1  0  0  0  0
 23 65  1  0  0  0  0
 24 25  1  0  0  0  0
 24 26  1  0  0  0  0
 24 30  1  0  0  0  0
 24 66  1  0  0  0  0
 25 67  1  0  0  0  0
 25 68  1  0  0  0  0
 26 69  1  0  0  0  0
 26 70  1  0  0  0  0
 28 31  1  0  0  0  0
 28 71  1  0  0  0  0
 29 32  2  0  0  0  0
 29 72  1  0  0  0  0
 30 33  2  0  0  0  0
 31 34  2  0  0  0  0
 32 34  1  0  0  0  0
 32 73  1  0  0  0  0
 33 35  1  0  0  0  0
 33 75  1  0  0  0  0
 34 76  1  0  0  0  0
 35 36  1  0  0  0  0
 36 37  2  0  0  0  0
 36 38  1  0  0  0  0
 37 39  1  0  0  0  0
 37 78  1  0  0  0  0
 38 40  2  0  0  0  0
 38 79  1  0  0  0  0
 39 41  2  0  0  0  0
 39 80  1  0  0  0  0
 40 41  1  0  0  0  0
 40 81  1  0  0  0  0
M  END
> <PUBCHEM_COMPOUND_CID>
516351
> <PUBCHEM_COMPOUND_CANONICALIZED>
1
> <PUBCHEM_CACTVS_COMPLEXITY>
845
> <PUBCHEM_CACTVS_HBOND_ACCEPTOR>
6
> <PUBCHEM_CACTVS_HBOND_DONOR>
2
> <PUBCHEM_CACTVS_ROTATABLE_BOND>
8
> <PUBCHEM_CACTVS_SUBSKEYS>
AAADcfB/sQAEAAAAAAAAAAAAAAAAAWLAAAA8YMEAAAAAAAAB0AAAHwIYCAAADSrBniwwiJNjAgCqAyTySACSBAAgBwAYuSG4ZpgKILKB0/GE5ABkmACYyAeYyOCOhAAAAAAAAAAIAAAAAAAAAAAAAAAAAA==
> <PUBCHEM_IUPAC_OPENEYE_NAME>
(2R)-2-[(3S,4S)-3-[[4-[3-(4-chlorophenyl)-1H-pyrazol-5-yl]-1-piperidyl]methyl]-4-(3-fluorophenyl)pyrrolidin-1-yl]-2-cyclohexyl-acetic acid
> <PUBCHEM_IUPAC_CAS_NAME>
(2R)-2-[(3S,4S)-3-[[4-[3-(4-chlorophenyl)-1H-pyrazol-5-yl]-1-piperidinyl]methyl]-4-(3-fluorophenyl)-1-pyrrolidinyl]-2-cyclohexylacetic acid
> <PUBCHEM_IUPAC_NAME_MARKUP>
(2<I>R</I>)-2-[(3<I>S</I>,4<I>S</I>)-3-[[4-[3-(4-chlorophenyl)-1<I>H</I>-pyrazol-5-yl]piperidin-1-yl]methyl]-4-(3-fluorophenyl)pyrrolidin-1-yl]-2-cyclohexylacetic acid
> <PUBCHEM_IUPAC_NAME>
(2R)-2-[(3S,4S)-3-[[4-[3-(4-chlorophenyl)-1H-pyrazol-5-yl]piperidin-1-yl]methyl]-4-(3-fluorophenyl)pyrrolidin-1-yl]-2-cyclohexylacetic acid
> <PUBCHEM_IUPAC_SYSTEMATIC_NAME>
(2R)-2-[(3S,4S)-3-[[4-[3-(4-chlorophenyl)-1H-pyrazol-5-yl]piperidin-1-yl]methyl]-4-(3-fluorophenyl)pyrrolidin-1-yl]-2-cyclohexyl-ethanoic acid
> <PUBCHEM_IUPAC_TRADITIONAL_NAME>
(2R)-2-[(3S,4S)-3-[[4-[3-(4-chlorophenyl)-1H-pyrazol-5-yl]piperidino]methyl]-4-(3-fluorophenyl)pyrrolidino]-2-cyclohexyl-acetic acid
> <PUBCHEM_IUPAC_INCHI>
InChI=1S/C33H40ClFN4O2/c34-27-11-9-22(10-12-27)30-18-31(37-36-30)23-13-15-38(16-14-23)19-26-20-39(21-29(26)25-7-4-8-28(35)17-25)32(33(40)41)24-5-2-1-3-6-24/h4,7-12,17-18,23-24,26,29,32H,1-3,5-6,13-16,19-21H2,(H,36,37)(H,40,41)/t26-,29+,32+/m0/s1
> <PUBCHEM_IUPAC_INCHIKEY>
RPCZLCGFLIHYAS-MRPJDYLLSA-N
> <PUBCHEM_XLOGP3_AA>
4.8
> <PUBCHEM_EXACT_MASS>
578.2823824
> <PUBCHEM_MOLECULAR_FORMULA>
C33H40ClFN4O2
> <PUBCHEM_MOLECULAR_WEIGHT>
579.1
> <PUBCHEM_OPENEYE_CAN_SMILES>
C1CCC(CC1)C(C(=O)O)N2CC(C(C2)C3=CC(=CC=C3)F)CN4CCC(CC4)C5=CC(=NN5)C6=CC=C(C=C6)Cl
> <PUBCHEM_OPENEYE_ISO_SMILES>
C1CCC(CC1)[C@H](C(=O)O)N2C[C@@H]([C@H](C2)C3=CC(=CC=C3)F)CN4CCC(CC4)C5=CC(=NN5)C6=CC=C(C=C6)Cl
> <PUBCHEM_CACTVS_TPSA>
72.5
> <PUBCHEM_MONOISOTOPIC_WEIGHT>
578.2823824
> <PUBCHEM_TOTAL_CHARGE>
0
> <PUBCHEM_HEAVY_ATOM_COUNT>
41
> <PUBCHEM_ATOM_DEF_STEREO_COUNT>
3
> <PUBCHEM_ATOM_UDEF_STEREO_COUNT>
0
> <PUBCHEM_BOND_DEF_STEREO_COUNT>
0
> <PUBCHEM_BOND_UDEF_STEREO_COUNT>
0
> <PUBCHEM_ISOTOPIC_ATOM_COUNT>
0
> <PUBCHEM_COMPONENT_COUNT>
1
> <PUBCHEM_CACTVS_TAUTO_COUNT>
-1
> <PUBCHEM_COORDINATE_TYPE>
1
5
255
> <PUBCHEM_BONDANNOTATIONS>
10  18  5
13  27  6
18  28  8
18  29  8
28  31  8
29  32  8
30  33  8
31  34  8
32  34  8
33  35  8
36  37  8
36  38  8
37  39  8
38  40  8
39  41  8
40  41  8
7  30  8
7  8  8
8  35  8
9  15  6
$$$$
