516367
  -OEChem-10302200282D
 86 90  0     1  0  0  0  0  0999 V2000
    9.8789   -4.8535    0.0000 F   0  0  0  0  0  0  0  0  0  0  0  0
    2.6166   -2.3526    0.0000 O   0  0  0  0  0  0  0  0  0  0  0  0
    2.4356   -4.0752    0.0000 O   0  0  0  0  0  0  0  0  0  0  0  0
    5.0124   -3.4752    0.0000 N   0  0  3  0  0  0  0  0  0  0  0  0
    7.4611   -1.6388    0.0000 N   0  0  0  0  0  0  0  0  0  0  0  0
    6.6521    1.9490    0.0000 N   0  0  0  0  0  0  0  0  0  0  0  0
    6.9611    2.9001    0.0000 N   0  0  0  0  0  0  0  0  0  0  0  0
    6.5951   -3.1388    0.0000 C   0  0  2  0  0  0  0  0  0  0  0  0
    6.4905   -4.1333    0.0000 C   0  0  2  0  0  0  0  0  0  0  0  0
    5.6815   -2.7320    0.0000 C   0  0  0  0  0  0  0  0  0  0  0  0
    5.5124   -4.3412    0.0000 C   0  0  0  0  0  0  0  0  0  0  0  0
    4.0179   -3.3707    0.0000 C   0  0  1  0  0  0  0  0  0  0  0  0
    7.4611   -2.6388    0.0000 C   0  0  0  0  0  0  0  0  0  0  0  0
    4.1224   -2.3761    0.0000 C   0  0  0  0  0  0  0  0  0  0  0  0
    7.2337   -4.8024    0.0000 C   0  0  0  0  0  0  0  0  0  0  0  0
    6.5951   -1.1388    0.0000 C   0  0  0  0  0  0  0  0  0  0  0  0
    8.3271   -1.1388    0.0000 C   0  0  0  0  0  0  0  0  0  0  0  0
    7.4611    0.3612    0.0000 C   0  0  0  0  0  0  0  0  0  0  0  0
    6.5951   -0.1388    0.0000 C   0  0  0  0  0  0  0  0  0  0  0  0
    8.3271   -0.1388    0.0000 C   0  0  0  0  0  0  0  0  0  0  0  0
    3.9133   -4.3652    0.0000 C   0  0  0  0  0  0  0  0  0  0  0  0
    3.0233   -3.2661    0.0000 C   0  0  0  0  0  0  0  0  0  0  0  0
    3.3134   -1.7884    0.0000 C   0  0  0  0  0  0  0  0  0  0  0  0
    5.0359   -1.9694    0.0000 C   0  0  0  0  0  0  0  0  0  0  0  0
    7.4611    1.3612    0.0000 C   0  0  0  0  0  0  0  0  0  0  0  0
    8.1847   -4.4934    0.0000 C   0  0  0  0  0  0  0  0  0  0  0  0
    7.0258   -5.7806    0.0000 C   0  0  0  0  0  0  0  0  0  0  0  0
    8.9279   -5.1626    0.0000 C   0  0  0  0  0  0  0  0  0  0  0  0
    7.7689   -6.4497    0.0000 C   0  0  0  0  0  0  0  0  0  0  0  0
    8.2701    1.9490    0.0000 C   0  0  0  0  0  0  0  0  0  0  0  0
    8.7200   -6.1407    0.0000 C   0  0  0  0  0  0  0  0  0  0  0  0
    7.9611    2.9001    0.0000 C   0  0  0  0  0  0  0  0  0  0  0  0
    5.7010    1.6400    0.0000 C   0  0  0  0  0  0  0  0  0  0  0  0
    8.5489    3.7091    0.0000 C   0  0  0  0  0  0  0  0  0  0  0  0
    4.9579    2.3091    0.0000 C   0  0  0  0  0  0  0  0  0  0  0  0
    8.1421    4.6226    0.0000 C   0  0  0  0  0  0  0  0  0  0  0  0
    8.7299    5.4316    0.0000 C   0  0  0  0  0  0  0  0  0  0  0  0
    7.1476    4.7272    0.0000 C   0  0  0  0  0  0  0  0  0  0  0  0
    8.3232    6.3452    0.0000 C   0  0  0  0  0  0  0  0  0  0  0  0
    6.7409    5.6407    0.0000 C   0  0  0  0  0  0  0  0  0  0  0  0
    7.3287    6.4497    0.0000 C   0  0  0  0  0  0  0  0  0  0  0  0
    7.1150   -3.4765    0.0000 H   0  0  0  0  0  0  0  0  0  0  0  0
    6.3301   -4.7322    0.0000 H   0  0  0  0  0  0  0  0  0  0  0  0
    5.9915   -2.1951    0.0000 H   0  0  0  0  0  0  0  0  0  0  0  0
    5.1799   -2.3676    0.0000 H   0  0  0  0  0  0  0  0  0  0  0  0
    4.9460   -4.5934    0.0000 H   0  0  0  0  0  0  0  0  0  0  0  0
    5.7040   -4.9309    0.0000 H   0  0  0  0  0  0  0  0  0  0  0  0
    7.6731   -3.2214    0.0000 H   0  0  0  0  0  0  0  0  0  0  0  0
    8.0717   -2.5311    0.0000 H   0  0  0  0  0  0  0  0  0  0  0  0
    4.6240   -2.7406    0.0000 H   0  0  0  0  0  0  0  0  0  0  0  0
    5.9845   -1.0311    0.0000 H   0  0  0  0  0  0  0  0  0  0  0  0
    6.3830   -1.7214    0.0000 H   0  0  0  0  0  0  0  0  0  0  0  0
    8.5392   -1.7214    0.0000 H   0  0  0  0  0  0  0  0  0  0  0  0
    8.9377   -1.0311    0.0000 H   0  0  0  0  0  0  0  0  0  0  0  0
    6.9242    0.6712    0.0000 H   0  0  0  0  0  0  0  0  0  0  0  0
    6.3830    0.4438    0.0000 H   0  0  0  0  0  0  0  0  0  0  0  0
    5.9845   -0.2464    0.0000 H   0  0  0  0  0  0  0  0  0  0  0  0
    8.9377   -0.2464    0.0000 H   0  0  0  0  0  0  0  0  0  0  0  0
    8.5392    0.4438    0.0000 H   0  0  0  0  0  0  0  0  0  0  0  0
    3.2967   -4.3004    0.0000 H   0  0  0  0  0  0  0  0  0  0  0  0
    3.8485   -4.9818    0.0000 H   0  0  0  0  0  0  0  0  0  0  0  0
    4.5299   -4.4300    0.0000 H   0  0  0  0  0  0  0  0  0  0  0  0
    3.6778   -1.2868    0.0000 H   0  0  0  0  0  0  0  0  0  0  0  0
    2.8118   -1.4239    0.0000 H   0  0  0  0  0  0  0  0  0  0  0  0
    2.9490   -2.2900    0.0000 H   0  0  0  0  0  0  0  0  0  0  0  0
    5.2881   -2.5358    0.0000 H   0  0  0  0  0  0  0  0  0  0  0  0
    5.6023   -1.7172    0.0000 H   0  0  0  0  0  0  0  0  0  0  0  0
    4.7838   -1.4030    0.0000 H   0  0  0  0  0  0  0  0  0  0  0  0
    8.3136   -3.8870    0.0000 H   0  0  0  0  0  0  0  0  0  0  0  0
    6.4361   -5.9722    0.0000 H   0  0  0  0  0  0  0  0  0  0  0  0
    7.6400   -7.0562    0.0000 H   0  0  0  0  0  0  0  0  0  0  0  0
    8.8598    1.7574    0.0000 H   0  0  0  0  0  0  0  0  0  0  0  0
    2.0000   -2.2878    0.0000 H   0  0  0  0  0  0  0  0  0  0  0  0
    9.1807   -6.5556    0.0000 H   0  0  0  0  0  0  0  0  0  0  0  0
    5.2124    1.2583    0.0000 H   0  0  0  0  0  0  0  0  0  0  0  0
    5.9921    1.0926    0.0000 H   0  0  0  0  0  0  0  0  0  0  0  0
    8.9796    3.2631    0.0000 H   0  0  0  0  0  0  0  0  0  0  0  0
    9.0629    4.0558    0.0000 H   0  0  0  0  0  0  0  0  0  0  0  0
    5.3727    2.7699    0.0000 H   0  0  0  0  0  0  0  0  0  0  0  0
    4.4971    2.7240    0.0000 H   0  0  0  0  0  0  0  0  0  0  0  0
    4.5430    1.8484    0.0000 H   0  0  0  0  0  0  0  0  0  0  0  0
    9.3465    5.3668    0.0000 H   0  0  0  0  0  0  0  0  0  0  0  0
    6.7832    4.2256    0.0000 H   0  0  0  0  0  0  0  0  0  0  0  0
    8.6876    6.8468    0.0000 H   0  0  0  0  0  0  0  0  0  0  0  0
    6.1243    5.7055    0.0000 H   0  0  0  0  0  0  0  0  0  0  0  0
    7.0765    7.0161    0.0000 H   0  0  0  0  0  0  0  0  0  0  0  0
  1 28  1  0  0  0  0
  2 22  1  0  0  0  0
  2 73  1  0  0  0  0
  3 22  2  0  0  0  0
  4 10  1  0  0  0  0
  4 11  1  0  0  0  0
  4 12  1  0  0  0  0
  5 13  1  0  0  0  0
  5 16  1  0  0  0  0
  5 17  1  0  0  0  0
  6  7  1  0  0  0  0
  6 25  1  0  0  0  0
  6 33  1  0  0  0  0
  7 32  2  0  0  0  0
  8  9  1  0  0  0  0
  8 10  1  0  0  0  0
  8 13  1  6  0  0  0
  8 42  1  0  0  0  0
  9 11  1  0  0  0  0
  9 15  1  1  0  0  0
  9 43  1  0  0  0  0
 10 44  1  0  0  0  0
 10 45  1  0  0  0  0
 11 46  1  0  0  0  0
 11 47  1  0  0  0  0
 12 14  1  0  0  0  0
 12 21  1  6  0  0  0
 12 22  1  0  0  0  0
 13 48  1  0  0  0  0
 13 49  1  0  0  0  0
 14 23  1  0  0  0  0
 14 24  1  0  0  0  0
 14 50  1  0  0  0  0
 15 26  2  0  0  0  0
 15 27  1  0  0  0  0
 16 19  1  0  0  0  0
 16 51  1  0  0  0  0
 16 52  1  0  0  0  0
 17 20  1  0  0  0  0
 17 53  1  0  0  0  0
 17 54  1  0  0  0  0
 18 19  1  0  0  0  0
 18 20  1  0  0  0  0
 18 25  1  0  0  0  0
 18 55  1  0  0  0  0
 19 56  1  0  0  0  0
 19 57  1  0  0  0  0
 20 58  1  0  0  0  0
 20 59  1  0  0  0  0
 21 60  1  0  0  0  0
 21 61  1  0  0  0  0
 21 62  1  0  0  0  0
 23 63  1  0  0  0  0
 23 64  1  0  0  0  0
 23 65  1  0  0  0  0
 24 66  1  0  0  0  0
 24 67  1  0  0  0  0
 24 68  1  0  0  0  0
 25 30  2  0  0  0  0
 26 28  1  0  0  0  0
 26 69  1  0  0  0  0
 27 29  2  0  0  0  0
 27 70  1  0  0  0  0
 28 31  2  0  0  0  0
 29 31  1  0  0  0  0
 29 71  1  0  0  0  0
 30 32  1  0  0  0  0
 30 72  1  0  0  0  0
 31 74  1  0  0  0  0
 32 34  1  0  0  0  0
 33 35  1  0  0  0  0
 33 75  1  0  0  0  0
 33 76  1  0  0  0  0
 34 36  1  0  0  0  0
 34 77  1  0  0  0  0
 34 78  1  0  0  0  0
 35 79  1  0  0  0  0
 35 80  1  0  0  0  0
 35 81  1  0  0  0  0
 36 37  2  0  0  0  0
 36 38  1  0  0  0  0
 37 39  1  0  0  0  0
 37 82  1  0  0  0  0
 38 40  2  0  0  0  0
 38 83  1  0  0  0  0
 39 41  2  0  0  0  0
 39 84  1  0  0  0  0
 40 41  1  0  0  0  0
 40 85  1  0  0  0  0
 41 86  1  0  0  0  0
M  END
> <PUBCHEM_COMPOUND_CID>
516367
> <PUBCHEM_COMPOUND_CANONICALIZED>
1
> <PUBCHEM_CACTVS_COMPLEXITY>
845
> <PUBCHEM_CACTVS_HBOND_ACCEPTOR>
6
> <PUBCHEM_CACTVS_HBOND_DONOR>
1
> <PUBCHEM_CACTVS_ROTATABLE_BOND>
10
> <PUBCHEM_CACTVS_SUBSKEYS>
AAADcfB/sQAAAAAAAAAAAAAAAAAAAWLAAAA8YIAAAAAAAAAB0AAAHwAICAAADYjBngwyiJMIAgCqAyTyTACSBAAhggAY2CG4ZJgKIDLA0fGE5AhkiADYyAcQgMAOgAAAAAAAAAAAAAAAAAAAAAAAAAAAAA==
> <PUBCHEM_IUPAC_OPENEYE_NAME>
(2R)-2-[(3S,4S)-3-[[4-(5-benzyl-2-ethyl-pyrazol-3-yl)-1-piperidyl]methyl]-4-(3-fluorophenyl)pyrrolidin-1-yl]-2,3-dimethyl-butanoic acid
> <PUBCHEM_IUPAC_CAS_NAME>
(2R)-2-[(3S,4S)-3-[[4-[2-ethyl-5-(phenylmethyl)-3-pyrazolyl]-1-piperidinyl]methyl]-4-(3-fluorophenyl)-1-pyrrolidinyl]-2,3-dimethylbutanoic acid
> <PUBCHEM_IUPAC_NAME_MARKUP>
(2<I>R</I>)-2-[(3<I>S</I>,4<I>S</I>)-3-[[4-(5-benzyl-2-ethylpyrazol-3-yl)piperidin-1-yl]methyl]-4-(3-fluorophenyl)pyrrolidin-1-yl]-2,3-dimethylbutanoic acid
> <PUBCHEM_IUPAC_NAME>
(2R)-2-[(3S,4S)-3-[[4-(5-benzyl-2-ethylpyrazol-3-yl)piperidin-1-yl]methyl]-4-(3-fluorophenyl)pyrrolidin-1-yl]-2,3-dimethylbutanoic acid
> <PUBCHEM_IUPAC_SYSTEMATIC_NAME>
(2R)-2-[(3S,4S)-3-[[4-[2-ethyl-5-(phenylmethyl)pyrazol-3-yl]piperidin-1-yl]methyl]-4-(3-fluorophenyl)pyrrolidin-1-yl]-2,3-dimethyl-butanoic acid
> <PUBCHEM_IUPAC_TRADITIONAL_NAME>
(2R)-2-[(3S,4S)-3-[[4-(5-benzyl-2-ethyl-pyrazol-3-yl)piperidino]methyl]-4-(3-fluorophenyl)pyrrolidino]-2,3-dimethyl-butyric acid
> <PUBCHEM_IUPAC_INCHI>
InChI=1S/C34H45FN4O2/c1-5-39-32(20-30(36-39)18-25-10-7-6-8-11-25)26-14-16-37(17-15-26)21-28-22-38(34(4,24(2)3)33(40)41)23-31(28)27-12-9-13-29(35)19-27/h6-13,19-20,24,26,28,31H,5,14-18,21-23H2,1-4H3,(H,40,41)/t28-,31+,34+/m0/s1
> <PUBCHEM_IUPAC_INCHIKEY>
VNPRRWYEJITHNB-LKQHQURMSA-N
> <PUBCHEM_XLOGP3_AA>
3.9
> <PUBCHEM_EXACT_MASS>
560.35265485
> <PUBCHEM_MOLECULAR_FORMULA>
C34H45FN4O2
> <PUBCHEM_MOLECULAR_WEIGHT>
560.7
> <PUBCHEM_OPENEYE_CAN_SMILES>
CCN1C(=CC(=N1)CC2=CC=CC=C2)C3CCN(CC3)CC4CN(CC4C5=CC(=CC=C5)F)C(C)(C(C)C)C(=O)O
> <PUBCHEM_OPENEYE_ISO_SMILES>
CCN1C(=CC(=N1)CC2=CC=CC=C2)C3CCN(CC3)C[C@H]4CN(C[C@@H]4C5=CC(=CC=C5)F)[C@](C)(C(C)C)C(=O)O
> <PUBCHEM_CACTVS_TPSA>
61.6
> <PUBCHEM_MONOISOTOPIC_WEIGHT>
560.35265485
> <PUBCHEM_TOTAL_CHARGE>
0
> <PUBCHEM_HEAVY_ATOM_COUNT>
41
> <PUBCHEM_ATOM_DEF_STEREO_COUNT>
3
> <PUBCHEM_ATOM_UDEF_STEREO_COUNT>
0
> <PUBCHEM_BOND_DEF_STEREO_COUNT>
0
> <PUBCHEM_BOND_UDEF_STEREO_COUNT>
0
> <PUBCHEM_ISOTOPIC_ATOM_COUNT>
0
> <PUBCHEM_COMPONENT_COUNT>
1
> <PUBCHEM_CACTVS_TAUTO_COUNT>
-1
> <PUBCHEM_COORDINATE_TYPE>
1
5
255
> <PUBCHEM_BONDANNOTATIONS>
12  21  6
15  26  8
15  27  8
25  30  8
26  28  8
27  29  8
28  31  8
29  31  8
30  32  8
36  37  8
36  38  8
37  39  8
38  40  8
39  41  8
40  41  8
6  25  8
6  7  8
7  32  8
8  13  6
9  15  5
$$$$
