516357
  -OEChem-10302200282D
 90 95  0     1  0  0  0  0  0999 V2000
    2.7688   -2.2481    0.0000 O   0  0  0  0  0  0  0  0  0  0  0  0
    4.3511   -1.5436    0.0000 O   0  0  0  0  0  0  0  0  0  0  0  0
    5.1646   -3.3707    0.0000 N   0  0  3  0  0  0  0  0  0  0  0  0
    7.6133   -1.5342    0.0000 N   0  0  0  0  0  0  0  0  0  0  0  0
    6.8043    2.0535    0.0000 N   0  0  0  0  0  0  0  0  0  0  0  0
    7.1133    3.0046    0.0000 N   0  0  0  0  0  0  0  0  0  0  0  0
    6.7473   -3.0342    0.0000 C   0  0  2  0  0  0  0  0  0  0  0  0
    6.6428   -4.0288    0.0000 C   0  0  2  0  0  0  0  0  0  0  0  0
    5.8338   -2.6275    0.0000 C   0  0  0  0  0  0  0  0  0  0  0  0
    5.6646   -4.2367    0.0000 C   0  0  0  0  0  0  0  0  0  0  0  0
    4.1701   -3.2661    0.0000 C   0  0  2  0  0  0  0  0  0  0  0  0
    3.5823   -4.0752    0.0000 C   0  0  0  0  0  0  0  0  0  0  0  0
    7.6133   -2.5342    0.0000 C   0  0  0  0  0  0  0  0  0  0  0  0
    2.5878   -3.9706    0.0000 C   0  0  0  0  0  0  0  0  0  0  0  0
    3.9890   -4.9887    0.0000 C   0  0  0  0  0  0  0  0  0  0  0  0
    7.3859   -4.6979    0.0000 C   0  0  0  0  0  0  0  0  0  0  0  0
    2.0000   -4.7796    0.0000 C   0  0  0  0  0  0  0  0  0  0  0  0
    3.4013   -5.7977    0.0000 C   0  0  0  0  0  0  0  0  0  0  0  0
    6.7473   -1.0342    0.0000 C   0  0  0  0  0  0  0  0  0  0  0  0
    8.4793   -1.0342    0.0000 C   0  0  0  0  0  0  0  0  0  0  0  0
    7.6133    0.4657    0.0000 C   0  0  0  0  0  0  0  0  0  0  0  0
    2.4067   -5.6932    0.0000 C   0  0  0  0  0  0  0  0  0  0  0  0
    6.7473   -0.0343    0.0000 C   0  0  0  0  0  0  0  0  0  0  0  0
    8.4793   -0.0343    0.0000 C   0  0  0  0  0  0  0  0  0  0  0  0
    3.7634   -2.3526    0.0000 C   0  0  0  0  0  0  0  0  0  0  0  0
    8.3370   -4.3889    0.0000 C   0  0  0  0  0  0  0  0  0  0  0  0
    7.1780   -5.6760    0.0000 C   0  0  0  0  0  0  0  0  0  0  0  0
    7.6133    1.4658    0.0000 C   0  0  0  0  0  0  0  0  0  0  0  0
    9.0801   -5.0580    0.0000 C   0  0  0  0  0  0  0  0  0  0  0  0
    7.9211   -6.3452    0.0000 C   0  0  0  0  0  0  0  0  0  0  0  0
    8.4223    2.0535    0.0000 C   0  0  0  0  0  0  0  0  0  0  0  0
    8.8722   -6.0362    0.0000 C   0  0  0  0  0  0  0  0  0  0  0  0
    8.1133    3.0046    0.0000 C   0  0  0  0  0  0  0  0  0  0  0  0
    8.7011    3.8136    0.0000 C   0  0  0  0  0  0  0  0  0  0  0  0
    9.2889    4.6226    0.0000 C   0  0  0  0  0  0  0  0  0  0  0  0
    7.8921    4.4014    0.0000 C   0  0  0  0  0  0  0  0  0  0  0  0
    9.5101    3.2258    0.0000 C   0  0  0  0  0  0  0  0  0  0  0  0
   10.2834    4.5181    0.0000 C   0  0  0  0  0  0  0  0  0  0  0  0
    8.8822    5.5362    0.0000 C   0  0  0  0  0  0  0  0  0  0  0  0
   10.8712    5.3271    0.0000 C   0  0  0  0  0  0  0  0  0  0  0  0
    9.4699    6.3452    0.0000 C   0  0  0  0  0  0  0  0  0  0  0  0
   10.4645    6.2407    0.0000 C   0  0  0  0  0  0  0  0  0  0  0  0
    7.2673   -3.3719    0.0000 H   0  0  0  0  0  0  0  0  0  0  0  0
    6.4823   -4.6276    0.0000 H   0  0  0  0  0  0  0  0  0  0  0  0
    6.1437   -2.0906    0.0000 H   0  0  0  0  0  0  0  0  0  0  0  0
    5.3322   -2.2631    0.0000 H   0  0  0  0  0  0  0  0  0  0  0  0
    5.0982   -4.4889    0.0000 H   0  0  0  0  0  0  0  0  0  0  0  0
    5.8562   -4.8263    0.0000 H   0  0  0  0  0  0  0  0  0  0  0  0
    4.5345   -2.7645    0.0000 H   0  0  0  0  0  0  0  0  0  0  0  0
    3.3301   -3.5088    0.0000 H   0  0  0  0  0  0  0  0  0  0  0  0
    7.8254   -3.1169    0.0000 H   0  0  0  0  0  0  0  0  0  0  0  0
    8.2239   -2.4266    0.0000 H   0  0  0  0  0  0  0  0  0  0  0  0
    2.7587   -3.3746    0.0000 H   0  0  0  0  0  0  0  0  0  0  0  0
    2.0305   -3.6988    0.0000 H   0  0  0  0  0  0  0  0  0  0  0  0
    4.4197   -5.4347    0.0000 H   0  0  0  0  0  0  0  0  0  0  0  0
    4.5030   -4.6420    0.0000 H   0  0  0  0  0  0  0  0  0  0  0  0
    6.1367   -0.9266    0.0000 H   0  0  0  0  0  0  0  0  0  0  0  0
    6.5352   -1.6169    0.0000 H   0  0  0  0  0  0  0  0  0  0  0  0
    8.6914   -1.6169    0.0000 H   0  0  0  0  0  0  0  0  0  0  0  0
    9.0899   -0.9266    0.0000 H   0  0  0  0  0  0  0  0  0  0  0  0
    1.5693   -4.3336    0.0000 H   0  0  0  0  0  0  0  0  0  0  0  0
    1.4860   -5.1263    0.0000 H   0  0  0  0  0  0  0  0  0  0  0  0
    3.2304   -6.3937    0.0000 H   0  0  0  0  0  0  0  0  0  0  0  0
    3.9585   -6.0695    0.0000 H   0  0  0  0  0  0  0  0  0  0  0  0
    7.0764    0.7757    0.0000 H   0  0  0  0  0  0  0  0  0  0  0  0
    1.8052   -5.8432    0.0000 H   0  0  0  0  0  0  0  0  0  0  0  0
    2.4500   -6.3117    0.0000 H   0  0  0  0  0  0  0  0  0  0  0  0
    6.5352    0.5484    0.0000 H   0  0  0  0  0  0  0  0  0  0  0  0
    6.1367   -0.1419    0.0000 H   0  0  0  0  0  0  0  0  0  0  0  0
    9.0899   -0.1419    0.0000 H   0  0  0  0  0  0  0  0  0  0  0  0
    8.6914    0.5484    0.0000 H   0  0  0  0  0  0  0  0  0  0  0  0
    8.4659   -3.7824    0.0000 H   0  0  0  0  0  0  0  0  0  0  0  0
    6.5883   -5.8676    0.0000 H   0  0  0  0  0  0  0  0  0  0  0  0
    9.6698   -4.8664    0.0000 H   0  0  0  0  0  0  0  0  0  0  0  0
    7.7922   -6.9516    0.0000 H   0  0  0  0  0  0  0  0  0  0  0  0
    2.5167   -1.6817    0.0000 H   0  0  0  0  0  0  0  0  0  0  0  0
    9.0120    1.8619    0.0000 H   0  0  0  0  0  0  0  0  0  0  0  0
    6.2146    1.8619    0.0000 H   0  0  0  0  0  0  0  0  0  0  0  0
    9.3330   -6.4510    0.0000 H   0  0  0  0  0  0  0  0  0  0  0  0
    8.2565    4.9030    0.0000 H   0  0  0  0  0  0  0  0  0  0  0  0
    7.3905    4.7658    0.0000 H   0  0  0  0  0  0  0  0  0  0  0  0
    7.5277    3.8998    0.0000 H   0  0  0  0  0  0  0  0  0  0  0  0
    9.1457    2.7242    0.0000 H   0  0  0  0  0  0  0  0  0  0  0  0
   10.0117    2.8614    0.0000 H   0  0  0  0  0  0  0  0  0  0  0  0
    9.8746    3.7274    0.0000 H   0  0  0  0  0  0  0  0  0  0  0  0
   10.5356    3.9517    0.0000 H   0  0  0  0  0  0  0  0  0  0  0  0
    8.2656    5.6010    0.0000 H   0  0  0  0  0  0  0  0  0  0  0  0
   11.4878    5.2623    0.0000 H   0  0  0  0  0  0  0  0  0  0  0  0
    9.2178    6.9116    0.0000 H   0  0  0  0  0  0  0  0  0  0  0  0
   10.8289    6.7422    0.0000 H   0  0  0  0  0  0  0  0  0  0  0  0
  1 25  1  0  0  0  0
  1 76  1  0  0  0  0
  2 25  2  0  0  0  0
  3  9  1  0  0  0  0
  3 10  1  0  0  0  0
  3 11  1  0  0  0  0
  4 13  1  0  0  0  0
  4 19  1  0  0  0  0
  4 20  1  0  0  0  0
  5  6  1  0  0  0  0
  5 28  1  0  0  0  0
  5 78  1  0  0  0  0
  6 33  2  0  0  0  0
  7  8  1  0  0  0  0
  7  9  1  0  0  0  0
  7 13  1  6  0  0  0
  7 43  1  0  0  0  0
  8 10  1  0  0  0  0
  8 16  1  1  0  0  0
  8 44  1  0  0  0  0
  9 45  1  0  0  0  0
  9 46  1  0  0  0  0
 10 47  1  0  0  0  0
 10 48  1  0  0  0  0
 11 12  1  0  0  0  0
 11 25  1  6  0  0  0
 11 49  1  0  0  0  0
 12 14  1  0  0  0  0
 12 15  1  0  0  0  0
 12 50  1  0  0  0  0
 13 51  1  0  0  0  0
 13 52  1  0  0  0  0
 14 17  1  0  0  0  0
 14 53  1  0  0  0  0
 14 54  1  0  0  0  0
 15 18  1  0  0  0  0
 15 55  1  0  0  0  0
 15 56  1  0  0  0  0
 16 26  2  0  0  0  0
 16 27  1  0  0  0  0
 17 22  1  0  0  0  0
 17 61  1  0  0  0  0
 17 62  1  0  0  0  0
 18 22  1  0  0  0  0
 18 63  1  0  0  0  0
 18 64  1  0  0  0  0
 19 23  1  0  0  0  0
 19 57  1  0  0  0  0
 19 58  1  0  0  0  0
 20 24  1  0  0  0  0
 20 59  1  0  0  0  0
 20 60  1  0  0  0  0
 21 23  1  0  0  0  0
 21 24  1  0  0  0  0
 21 28  1  0  0  0  0
 21 65  1  0  0  0  0
 22 66  1  0  0  0  0
 22 67  1  0  0  0  0
 23 68  1  0  0  0  0
 23 69  1  0  0  0  0
 24 70  1  0  0  0  0
 24 71  1  0  0  0  0
 26 29  1  0  0  0  0
 26 72  1  0  0  0  0
 27 30  2  0  0  0  0
 27 73  1  0  0  0  0
 28 31  2  0  0  0  0
 29 32  2  0  0  0  0
 29 74  1  0  0  0  0
 30 32  1  0  0  0  0
 30 75  1  0  0  0  0
 31 33  1  0  0  0  0
 31 77  1  0  0  0  0
 32 79  1  0  0  0  0
 33 34  1  0  0  0  0
 34 35  1  0  0  0  0
 34 36  1  0  0  0  0
 34 37  1  0  0  0  0
 35 38  2  0  0  0  0
 35 39  1  0  0  0  0
 36 80  1  0  0  0  0
 36 81  1  0  0  0  0
 36 82  1  0  0  0  0
 37 83  1  0  0  0  0
 37 84  1  0  0  0  0
 37 85  1  0  0  0  0
 38 40  1  0  0  0  0
 38 86  1  0  0  0  0
 39 41  2  0  0  0  0
 39 87  1  0  0  0  0
 40 42  2  0  0  0  0
 40 88  1  0  0  0  0
 41 42  1  0  0  0  0
 41 89  1  0  0  0  0
 42 90  1  0  0  0  0
M  END
> <PUBCHEM_COMPOUND_CID>
516357
> <PUBCHEM_COMPOUND_CANONICALIZED>
1
> <PUBCHEM_CACTVS_COMPLEXITY>
855
> <PUBCHEM_CACTVS_HBOND_ACCEPTOR>
5
> <PUBCHEM_CACTVS_HBOND_DONOR>
2
> <PUBCHEM_CACTVS_ROTATABLE_BOND>
9
> <PUBCHEM_CACTVS_SUBSKEYS>
AAADcfB/sAAAAAAAAAAAAAAAAAAAAWLAAAA8YMEAAAAAAAAB0AAAHgAYCAAADyjBngQyiJNjAgCqAyTySACSBAAgAgAYuSG4ZJgKIDKA0fGE5ABkmACYyAeYyOCPgAAAAAAAAAAAAAAAAAAAAAAAAAAAAA==
> <PUBCHEM_IUPAC_OPENEYE_NAME>
(2R)-2-cyclohexyl-2-[(3S,4S)-3-[[4-[3-(1-methyl-1-phenyl-ethyl)-1H-pyrazol-5-yl]-1-piperidyl]methyl]-4-phenyl-pyrrolidin-1-yl]acetic acid
> <PUBCHEM_IUPAC_CAS_NAME>
(2R)-2-cyclohexyl-2-[(3S,4S)-3-phenyl-4-[[4-[3-(2-phenylpropan-2-yl)-1H-pyrazol-5-yl]-1-piperidinyl]methyl]-1-pyrrolidinyl]acetic acid
> <PUBCHEM_IUPAC_NAME_MARKUP>
(2<I>R</I>)-2-cyclohexyl-2-[(3<I>S</I>,4<I>S</I>)-3-phenyl-4-[[4-[3-(2-phenylpropan-2-yl)-1<I>H</I>-pyrazol-5-yl]piperidin-1-yl]methyl]pyrrolidin-1-yl]acetic acid
> <PUBCHEM_IUPAC_NAME>
(2R)-2-cyclohexyl-2-[(3S,4S)-3-phenyl-4-[[4-[3-(2-phenylpropan-2-yl)-1H-pyrazol-5-yl]piperidin-1-yl]methyl]pyrrolidin-1-yl]acetic acid
> <PUBCHEM_IUPAC_SYSTEMATIC_NAME>
(2R)-2-cyclohexyl-2-[(3S,4S)-3-phenyl-4-[[4-[3-(2-phenylpropan-2-yl)-1H-pyrazol-5-yl]piperidin-1-yl]methyl]pyrrolidin-1-yl]ethanoic acid
> <PUBCHEM_IUPAC_TRADITIONAL_NAME>
(2R)-2-[(3S,4S)-3-[[4-(3-cumyl-1H-pyrazol-5-yl)piperidino]methyl]-4-phenyl-pyrrolidino]-2-cyclohexyl-acetic acid
> <PUBCHEM_IUPAC_INCHI>
InChI=1S/C36H48N4O2/c1-36(2,30-16-10-5-11-17-30)33-22-32(37-38-33)27-18-20-39(21-19-27)23-29-24-40(25-31(29)26-12-6-3-7-13-26)34(35(41)42)28-14-8-4-9-15-28/h3,5-7,10-13,16-17,22,27-29,31,34H,4,8-9,14-15,18-21,23-25H2,1-2H3,(H,37,38)(H,41,42)/t29-,31+,34+/m0/s1
> <PUBCHEM_IUPAC_INCHIKEY>
ILSXRTHCNZMMFN-JUERCWOXSA-N
> <PUBCHEM_XLOGP3_AA>
5.2
> <PUBCHEM_EXACT_MASS>
568.37772679
> <PUBCHEM_MOLECULAR_FORMULA>
C36H48N4O2
> <PUBCHEM_MOLECULAR_WEIGHT>
568.8
> <PUBCHEM_OPENEYE_CAN_SMILES>
CC(C)(C1=CC=CC=C1)C2=NNC(=C2)C3CCN(CC3)CC4CN(CC4C5=CC=CC=C5)C(C6CCCCC6)C(=O)O
> <PUBCHEM_OPENEYE_ISO_SMILES>
CC(C)(C1=CC=CC=C1)C2=NNC(=C2)C3CCN(CC3)C[C@H]4CN(C[C@@H]4C5=CC=CC=C5)[C@H](C6CCCCC6)C(=O)O
> <PUBCHEM_CACTVS_TPSA>
72.5
> <PUBCHEM_MONOISOTOPIC_WEIGHT>
568.37772679
> <PUBCHEM_TOTAL_CHARGE>
0
> <PUBCHEM_HEAVY_ATOM_COUNT>
42
> <PUBCHEM_ATOM_DEF_STEREO_COUNT>
3
> <PUBCHEM_ATOM_UDEF_STEREO_COUNT>
0
> <PUBCHEM_BOND_DEF_STEREO_COUNT>
0
> <PUBCHEM_BOND_UDEF_STEREO_COUNT>
0
> <PUBCHEM_ISOTOPIC_ATOM_COUNT>
0
> <PUBCHEM_COMPONENT_COUNT>
1
> <PUBCHEM_CACTVS_TAUTO_COUNT>
-1
> <PUBCHEM_COORDINATE_TYPE>
1
5
255
> <PUBCHEM_BONDANNOTATIONS>
11  25  6
16  26  8
16  27  8
26  29  8
27  30  8
28  31  8
29  32  8
30  32  8
31  33  8
35  38  8
35  39  8
38  40  8
39  41  8
40  42  8
41  42  8
5  28  8
5  6  8
6  33  8
7  13  6
8  16  5
$$$$
