516310
  -OEChem-10302200282D
 98104  0     1  0  0  0  0  0999 V2000
    7.7132   -8.2973    0.0000 F   0  0  0  0  0  0  0  0  0  0  0  0
    2.7688   -3.2221    0.0000 O   0  0  0  0  0  0  0  0  0  0  0  0
    4.3511   -2.5176    0.0000 O   0  0  0  0  0  0  0  0  0  0  0  0
    7.0742    6.4938    0.0000 O   0  0  0  0  0  0  0  0  0  0  0  0
    5.1646   -4.3447    0.0000 N   0  0  3  0  0  0  0  0  0  0  0  0
    7.6133   -2.5082    0.0000 N   0  0  0  0  0  0  0  0  0  0  0  0
    6.8043    1.0795    0.0000 N   0  0  0  0  0  0  0  0  0  0  0  0
    7.1133    2.0306    0.0000 N   0  0  0  0  0  0  0  0  0  0  0  0
    6.7473   -4.0082    0.0000 C   0  0  2  0  0  0  0  0  0  0  0  0
    6.6428   -5.0028    0.0000 C   0  0  2  0  0  0  0  0  0  0  0  0
    5.8338   -3.6015    0.0000 C   0  0  0  0  0  0  0  0  0  0  0  0
    5.6646   -5.2107    0.0000 C   0  0  0  0  0  0  0  0  0  0  0  0
    4.1701   -4.2401    0.0000 C   0  0  2  0  0  0  0  0  0  0  0  0
    3.5823   -5.0492    0.0000 C   0  0  0  0  0  0  0  0  0  0  0  0
    7.6133   -3.5082    0.0000 C   0  0  0  0  0  0  0  0  0  0  0  0
    2.5878   -4.9446    0.0000 C   0  0  0  0  0  0  0  0  0  0  0  0
    3.9890   -5.9627    0.0000 C   0  0  0  0  0  0  0  0  0  0  0  0
    7.3859   -5.6719    0.0000 C   0  0  0  0  0  0  0  0  0  0  0  0
    6.7473   -2.0082    0.0000 C   0  0  0  0  0  0  0  0  0  0  0  0
    8.4793   -2.0082    0.0000 C   0  0  0  0  0  0  0  0  0  0  0  0
    2.0000   -5.7536    0.0000 C   0  0  0  0  0  0  0  0  0  0  0  0
    3.4013   -6.7717    0.0000 C   0  0  0  0  0  0  0  0  0  0  0  0
    7.6133   -0.5083    0.0000 C   0  0  0  0  0  0  0  0  0  0  0  0
    2.4067   -6.6672    0.0000 C   0  0  0  0  0  0  0  0  0  0  0  0
    6.7473   -1.0082    0.0000 C   0  0  0  0  0  0  0  0  0  0  0  0
    8.4793   -1.0082    0.0000 C   0  0  0  0  0  0  0  0  0  0  0  0
    3.7634   -3.3266    0.0000 C   0  0  0  0  0  0  0  0  0  0  0  0
    7.1780   -6.6500    0.0000 C   0  0  0  0  0  0  0  0  0  0  0  0
    8.3370   -5.3629    0.0000 C   0  0  0  0  0  0  0  0  0  0  0  0
    7.6133    0.4917    0.0000 C   0  0  0  0  0  0  0  0  0  0  0  0
    7.9211   -7.3192    0.0000 C   0  0  0  0  0  0  0  0  0  0  0  0
    9.0801   -6.0320    0.0000 C   0  0  0  0  0  0  0  0  0  0  0  0
    8.4223    1.0795    0.0000 C   0  0  0  0  0  0  0  0  0  0  0  0
    8.8722   -7.0102    0.0000 C   0  0  0  0  0  0  0  0  0  0  0  0
    8.1133    2.0306    0.0000 C   0  0  0  0  0  0  0  0  0  0  0  0
    5.8532    0.7705    0.0000 C   0  0  0  0  0  0  0  0  0  0  0  0
    8.7011    2.8396    0.0000 C   0  0  0  0  0  0  0  0  0  0  0  0
    7.6619    7.3028    0.0000 C   0  0  0  0  0  0  0  0  0  0  0  0
    8.5755    7.7095    0.0000 C   0  0  0  0  0  0  0  0  0  0  0  0
    7.7665    8.2973    0.0000 C   0  0  0  0  0  0  0  0  0  0  0  0
    5.1101    1.4397    0.0000 C   0  0  0  0  0  0  0  0  0  0  0  0
    8.2944    3.7532    0.0000 C   0  0  0  0  0  0  0  0  0  0  0  0
    7.4809    5.5802    0.0000 C   0  0  0  0  0  0  0  0  0  0  0  0
    7.2998    3.8577    0.0000 C   0  0  0  0  0  0  0  0  0  0  0  0
    8.8822    4.5622    0.0000 C   0  0  0  0  0  0  0  0  0  0  0  0
    6.8931    4.7712    0.0000 C   0  0  0  0  0  0  0  0  0  0  0  0
    8.4754    5.4757    0.0000 C   0  0  0  0  0  0  0  0  0  0  0  0
    7.2673   -4.3459    0.0000 H   0  0  0  0  0  0  0  0  0  0  0  0
    7.2216   -4.7806    0.0000 H   0  0  0  0  0  0  0  0  0  0  0  0
    6.1437   -3.0646    0.0000 H   0  0  0  0  0  0  0  0  0  0  0  0
    5.3322   -3.2371    0.0000 H   0  0  0  0  0  0  0  0  0  0  0  0
    5.0982   -5.4629    0.0000 H   0  0  0  0  0  0  0  0  0  0  0  0
    5.8562   -5.8003    0.0000 H   0  0  0  0  0  0  0  0  0  0  0  0
    4.5345   -3.7385    0.0000 H   0  0  0  0  0  0  0  0  0  0  0  0
    3.3301   -4.4828    0.0000 H   0  0  0  0  0  0  0  0  0  0  0  0
    7.8254   -4.0909    0.0000 H   0  0  0  0  0  0  0  0  0  0  0  0
    8.2239   -3.4006    0.0000 H   0  0  0  0  0  0  0  0  0  0  0  0
    2.7587   -4.3486    0.0000 H   0  0  0  0  0  0  0  0  0  0  0  0
    2.0305   -4.6728    0.0000 H   0  0  0  0  0  0  0  0  0  0  0  0
    4.4197   -6.4087    0.0000 H   0  0  0  0  0  0  0  0  0  0  0  0
    4.5030   -5.6160    0.0000 H   0  0  0  0  0  0  0  0  0  0  0  0
    6.1367   -1.9006    0.0000 H   0  0  0  0  0  0  0  0  0  0  0  0
    6.5352   -2.5909    0.0000 H   0  0  0  0  0  0  0  0  0  0  0  0
    8.6914   -2.5909    0.0000 H   0  0  0  0  0  0  0  0  0  0  0  0
    9.0899   -1.9006    0.0000 H   0  0  0  0  0  0  0  0  0  0  0  0
    1.5693   -5.3076    0.0000 H   0  0  0  0  0  0  0  0  0  0  0  0
    1.4860   -6.1003    0.0000 H   0  0  0  0  0  0  0  0  0  0  0  0
    3.2304   -7.3677    0.0000 H   0  0  0  0  0  0  0  0  0  0  0  0
    3.9585   -7.0435    0.0000 H   0  0  0  0  0  0  0  0  0  0  0  0
    7.0764   -0.1983    0.0000 H   0  0  0  0  0  0  0  0  0  0  0  0
    1.8052   -6.8172    0.0000 H   0  0  0  0  0  0  0  0  0  0  0  0
    2.4500   -7.2857    0.0000 H   0  0  0  0  0  0  0  0  0  0  0  0
    6.5352   -0.4256    0.0000 H   0  0  0  0  0  0  0  0  0  0  0  0
    6.1367   -1.1159    0.0000 H   0  0  0  0  0  0  0  0  0  0  0  0
    9.0899   -1.1159    0.0000 H   0  0  0  0  0  0  0  0  0  0  0  0
    8.6914   -0.4256    0.0000 H   0  0  0  0  0  0  0  0  0  0  0  0
    6.5883   -6.8416    0.0000 H   0  0  0  0  0  0  0  0  0  0  0  0
    8.4659   -4.7564    0.0000 H   0  0  0  0  0  0  0  0  0  0  0  0
    9.6698   -5.8404    0.0000 H   0  0  0  0  0  0  0  0  0  0  0  0
    2.5167   -2.6557    0.0000 H   0  0  0  0  0  0  0  0  0  0  0  0
    9.0120    0.8879    0.0000 H   0  0  0  0  0  0  0  0  0  0  0  0
    9.3330   -7.4250    0.0000 H   0  0  0  0  0  0  0  0  0  0  0  0
    5.3647    0.3888    0.0000 H   0  0  0  0  0  0  0  0  0  0  0  0
    6.1443    0.2231    0.0000 H   0  0  0  0  0  0  0  0  0  0  0  0
    9.1318    2.3936    0.0000 H   0  0  0  0  0  0  0  0  0  0  0  0
    9.2151    3.1863    0.0000 H   0  0  0  0  0  0  0  0  0  0  0  0
    8.0521    6.8210    0.0000 H   0  0  0  0  0  0  0  0  0  0  0  0
    8.9222    7.1955    0.0000 H   0  0  0  0  0  0  0  0  0  0  0  0
    9.0215    8.1402    0.0000 H   0  0  0  0  0  0  0  0  0  0  0  0
    8.0383    8.8546    0.0000 H   0  0  0  0  0  0  0  0  0  0  0  0
    7.1705    8.4682    0.0000 H   0  0  0  0  0  0  0  0  0  0  0  0
    5.5250    1.9004    0.0000 H   0  0  0  0  0  0  0  0  0  0  0  0
    4.6494    1.8545    0.0000 H   0  0  0  0  0  0  0  0  0  0  0  0
    4.6952    0.9789    0.0000 H   0  0  0  0  0  0  0  0  0  0  0  0
    6.9354    3.3561    0.0000 H   0  0  0  0  0  0  0  0  0  0  0  0
    9.4988    4.4974    0.0000 H   0  0  0  0  0  0  0  0  0  0  0  0
    6.2765    4.8360    0.0000 H   0  0  0  0  0  0  0  0  0  0  0  0
    8.8398    5.9773    0.0000 H   0  0  0  0  0  0  0  0  0  0  0  0
  1 31  1  0  0  0  0
  2 27  1  0  0  0  0
  2 80  1  0  0  0  0
  3 27  2  0  0  0  0
  4 38  1  0  0  0  0
  4 43  1  0  0  0  0
  5 11  1  0  0  0  0
  5 12  1  0  0  0  0
  5 13  1  0  0  0  0
  6 15  1  0  0  0  0
  6 19  1  0  0  0  0
  6 20  1  0  0  0  0
  7  8  1  0  0  0  0
  7 30  1  0  0  0  0
  7 36  1  0  0  0  0
  8 35  2  0  0  0  0
  9 10  1  0  0  0  0
  9 11  1  0  0  0  0
  9 15  1  6  0  0  0
  9 48  1  0  0  0  0
 10 12  1  0  0  0  0
 10 18  1  1  0  0  0
 10 49  1  0  0  0  0
 11 50  1  0  0  0  0
 11 51  1  0  0  0  0
 12 52  1  0  0  0  0
 12 53  1  0  0  0  0
 13 14  1  0  0  0  0
 13 27  1  6  0  0  0
 13 54  1  0  0  0  0
 14 16  1  0  0  0  0
 14 17  1  0  0  0  0
 14 55  1  0  0  0  0
 15 56  1  0  0  0  0
 15 57  1  0  0  0  0
 16 21  1  0  0  0  0
 16 58  1  0  0  0  0
 16 59  1  0  0  0  0
 17 22  1  0  0  0  0
 17 60  1  0  0  0  0
 17 61  1  0  0  0  0
 18 28  2  0  0  0  0
 18 29  1  0  0  0  0
 19 25  1  0  0  0  0
 19 62  1  0  0  0  0
 19 63  1  0  0  0  0
 20 26  1  0  0  0  0
 20 64  1  0  0  0  0
 20 65  1  0  0  0  0
 21 24  1  0  0  0  0
 21 66  1  0  0  0  0
 21 67  1  0  0  0  0
 22 24  1  0  0  0  0
 22 68  1  0  0  0  0
 22 69  1  0  0  0  0
 23 25  1  0  0  0  0
 23 26  1  0  0  0  0
 23 30  1  0  0  0  0
 23 70  1  0  0  0  0
 24 71  1  0  0  0  0
 24 72  1  0  0  0  0
 25 73  1  0  0  0  0
 25 74  1  0  0  0  0
 26 75  1  0  0  0  0
 26 76  1  0  0  0  0
 28 31  1  0  0  0  0
 28 77  1  0  0  0  0
 29 32  2  0  0  0  0
 29 78  1  0  0  0  0
 30 33  2  0  0  0  0
 31 34  2  0  0  0  0
 32 34  1  0  0  0  0
 32 79  1  0  0  0  0
 33 35  1  0  0  0  0
 33 81  1  0  0  0  0
 34 82  1  0  0  0  0
 35 37  1  0  0  0  0
 36 41  1  0  0  0  0
 36 83  1  0  0  0  0
 36 84  1  0  0  0  0
 37 42  1  0  0  0  0
 37 85  1  0  0  0  0
 37 86  1  0  0  0  0
 38 39  1  0  0  0  0
 38 40  1  0  0  0  0
 38 87  1  0  0  0  0
 39 40  1  0  0  0  0
 39 88  1  0  0  0  0
 39 89  1  0  0  0  0
 40 90  1  0  0  0  0
 40 91  1  0  0  0  0
 41 92  1  0  0  0  0
 41 93  1  0  0  0  0
 41 94  1  0  0  0  0
 42 44  2  0  0  0  0
 42 45  1  0  0  0  0
 43 46  2  0  0  0  0
 43 47  1  0  0  0  0
 44 46  1  0  0  0  0
 44 95  1  0  0  0  0
 45 47  2  0  0  0  0
 45 96  1  0  0  0  0
 46 97  1  0  0  0  0
 47 98  1  0  0  0  0
M  END
> <PUBCHEM_COMPOUND_CID>
516310
> <PUBCHEM_COMPOUND_CANONICALIZED>
1
> <PUBCHEM_CACTVS_COMPLEXITY>
993
> <PUBCHEM_CACTVS_HBOND_ACCEPTOR>
7
> <PUBCHEM_CACTVS_HBOND_DONOR>
1
> <PUBCHEM_CACTVS_ROTATABLE_BOND>
12
> <PUBCHEM_CACTVS_SUBSKEYS>
AAADcfB/sQAAAAAAAAAAAAAAGAAAAWLAAAA8YMEAAAAAAAAB0AAAHwAICAAADTzhng4yjpMIBgCqAyTyTACSDAAhogAY2CG+bJgOJjLE8fuG/CjkyBHY6AeYyOCOoAAAAAAAAABAAAAAAAAAAAAAAAAAAA==
> <PUBCHEM_IUPAC_OPENEYE_NAME>
(2R)-2-cyclohexyl-2-[(3S,4S)-3-[[4-[5-[[4-(cyclopropoxy)phenyl]methyl]-2-ethyl-pyrazol-3-yl]-1-piperidyl]methyl]-4-(3-fluorophenyl)pyrrolidin-1-yl]acetic acid
> <PUBCHEM_IUPAC_CAS_NAME>
(2R)-2-cyclohexyl-2-[(3S,4S)-3-[[4-[5-[(4-cyclopropyloxyphenyl)methyl]-2-ethyl-3-pyrazolyl]-1-piperidinyl]methyl]-4-(3-fluorophenyl)-1-pyrrolidinyl]acetic acid
> <PUBCHEM_IUPAC_NAME_MARKUP>
(2<I>R</I>)-2-cyclohexyl-2-[(3<I>S</I>,4<I>S</I>)-3-[[4-[5-[(4-cyclopropyloxyphenyl)methyl]-2-ethylpyrazol-3-yl]piperidin-1-yl]methyl]-4-(3-fluorophenyl)pyrrolidin-1-yl]acetic acid
> <PUBCHEM_IUPAC_NAME>
(2R)-2-cyclohexyl-2-[(3S,4S)-3-[[4-[5-[(4-cyclopropyloxyphenyl)methyl]-2-ethylpyrazol-3-yl]piperidin-1-yl]methyl]-4-(3-fluorophenyl)pyrrolidin-1-yl]acetic acid
> <PUBCHEM_IUPAC_SYSTEMATIC_NAME>
(2R)-2-cyclohexyl-2-[(3S,4S)-3-[[4-[5-[(4-cyclopropyloxyphenyl)methyl]-2-ethyl-pyrazol-3-yl]piperidin-1-yl]methyl]-4-(3-fluorophenyl)pyrrolidin-1-yl]ethanoic acid
> <PUBCHEM_IUPAC_TRADITIONAL_NAME>
(2R)-2-cyclohexyl-2-[(3S,4S)-3-[[4-[5-[4-(cyclopropoxy)benzyl]-2-ethyl-pyrazol-3-yl]piperidino]methyl]-4-(3-fluorophenyl)pyrrolidino]acetic acid
> <PUBCHEM_IUPAC_INCHI>
InChI=1S/C39H51FN4O3/c1-2-44-37(23-33(41-44)21-27-11-13-34(14-12-27)47-35-15-16-35)28-17-19-42(20-18-28)24-31-25-43(26-36(31)30-9-6-10-32(40)22-30)38(39(45)46)29-7-4-3-5-8-29/h6,9-14,22-23,28-29,31,35-36,38H,2-5,7-8,15-21,24-26H2,1H3,(H,45,46)/t31-,36+,38+/m0/s1
> <PUBCHEM_IUPAC_INCHIKEY>
BUHHUODYGDXLAO-XXSKFNENSA-N
> <PUBCHEM_XLOGP3_AA>
5.3
> <PUBCHEM_EXACT_MASS>
642.39451966
> <PUBCHEM_MOLECULAR_FORMULA>
C39H51FN4O3
> <PUBCHEM_MOLECULAR_WEIGHT>
642.8
> <PUBCHEM_OPENEYE_CAN_SMILES>
CCN1C(=CC(=N1)CC2=CC=C(C=C2)OC3CC3)C4CCN(CC4)CC5CN(CC5C6=CC(=CC=C6)F)C(C7CCCCC7)C(=O)O
> <PUBCHEM_OPENEYE_ISO_SMILES>
CCN1C(=CC(=N1)CC2=CC=C(C=C2)OC3CC3)C4CCN(CC4)C[C@H]5CN(C[C@@H]5C6=CC(=CC=C6)F)[C@H](C7CCCCC7)C(=O)O
> <PUBCHEM_CACTVS_TPSA>
70.8
> <PUBCHEM_MONOISOTOPIC_WEIGHT>
642.39451966
> <PUBCHEM_TOTAL_CHARGE>
0
> <PUBCHEM_HEAVY_ATOM_COUNT>
47
> <PUBCHEM_ATOM_DEF_STEREO_COUNT>
3
> <PUBCHEM_ATOM_UDEF_STEREO_COUNT>
0
> <PUBCHEM_BOND_DEF_STEREO_COUNT>
0
> <PUBCHEM_BOND_UDEF_STEREO_COUNT>
0
> <PUBCHEM_ISOTOPIC_ATOM_COUNT>
0
> <PUBCHEM_COMPONENT_COUNT>
1
> <PUBCHEM_CACTVS_TAUTO_COUNT>
-1
> <PUBCHEM_COORDINATE_TYPE>
1
5
255
> <PUBCHEM_BONDANNOTATIONS>
10  18  5
13  27  6
18  28  8
18  29  8
28  31  8
29  32  8
30  33  8
31  34  8
32  34  8
33  35  8
42  44  8
42  45  8
43  46  8
43  47  8
44  46  8
45  47  8
7  30  8
7  8  8
8  35  8
9  15  6
$$$$
