516358
  -OEChem-10302200282D
 96101  0     1  0  0  0  0  0999 V2000
    2.7688   -2.2481    0.0000 O   0  0  0  0  0  0  0  0  0  0  0  0
    4.3511   -1.5436    0.0000 O   0  0  0  0  0  0  0  0  0  0  0  0
    5.1646   -3.3707    0.0000 N   0  0  3  0  0  0  0  0  0  0  0  0
    7.6133   -1.5342    0.0000 N   0  0  0  0  0  0  0  0  0  0  0  0
    6.8043    2.0535    0.0000 N   0  0  0  0  0  0  0  0  0  0  0  0
    7.1133    3.0046    0.0000 N   0  0  0  0  0  0  0  0  0  0  0  0
    6.7473   -3.0342    0.0000 C   0  0  2  0  0  0  0  0  0  0  0  0
    6.6428   -4.0288    0.0000 C   0  0  2  0  0  0  0  0  0  0  0  0
    5.8338   -2.6275    0.0000 C   0  0  0  0  0  0  0  0  0  0  0  0
    5.6646   -4.2367    0.0000 C   0  0  0  0  0  0  0  0  0  0  0  0
    4.1701   -3.2661    0.0000 C   0  0  2  0  0  0  0  0  0  0  0  0
    3.5823   -4.0752    0.0000 C   0  0  0  0  0  0  0  0  0  0  0  0
    7.6133   -2.5342    0.0000 C   0  0  0  0  0  0  0  0  0  0  0  0
    2.5878   -3.9706    0.0000 C   0  0  0  0  0  0  0  0  0  0  0  0
    3.9890   -4.9887    0.0000 C   0  0  0  0  0  0  0  0  0  0  0  0
    7.3859   -4.6979    0.0000 C   0  0  0  0  0  0  0  0  0  0  0  0
    6.7473   -1.0342    0.0000 C   0  0  0  0  0  0  0  0  0  0  0  0
    8.4793   -1.0342    0.0000 C   0  0  0  0  0  0  0  0  0  0  0  0
    7.6133    0.4657    0.0000 C   0  0  0  0  0  0  0  0  0  0  0  0
    2.0000   -4.7796    0.0000 C   0  0  0  0  0  0  0  0  0  0  0  0
    3.4013   -5.7977    0.0000 C   0  0  0  0  0  0  0  0  0  0  0  0
    6.7473   -0.0343    0.0000 C   0  0  0  0  0  0  0  0  0  0  0  0
    8.4793   -0.0343    0.0000 C   0  0  0  0  0  0  0  0  0  0  0  0
    2.4067   -5.6932    0.0000 C   0  0  0  0  0  0  0  0  0  0  0  0
    3.7634   -2.3526    0.0000 C   0  0  0  0  0  0  0  0  0  0  0  0
    7.6133    1.4658    0.0000 C   0  0  0  0  0  0  0  0  0  0  0  0
    8.3370   -4.3889    0.0000 C   0  0  0  0  0  0  0  0  0  0  0  0
    7.1780   -5.6760    0.0000 C   0  0  0  0  0  0  0  0  0  0  0  0
    8.4223    2.0535    0.0000 C   0  0  0  0  0  0  0  0  0  0  0  0
    9.0801   -5.0580    0.0000 C   0  0  0  0  0  0  0  0  0  0  0  0
    7.9211   -6.3452    0.0000 C   0  0  0  0  0  0  0  0  0  0  0  0
    8.1133    3.0046    0.0000 C   0  0  0  0  0  0  0  0  0  0  0  0
    8.8722   -6.0362    0.0000 C   0  0  0  0  0  0  0  0  0  0  0  0
    8.7011    3.8136    0.0000 C   0  0  0  0  0  0  0  0  0  0  0  0
    5.8532    1.7445    0.0000 C   0  0  0  0  0  0  0  0  0  0  0  0
    9.2889    4.6226    0.0000 C   0  0  0  0  0  0  0  0  0  0  0  0
    7.8921    4.4014    0.0000 C   0  0  0  0  0  0  0  0  0  0  0  0
    9.5101    3.2258    0.0000 C   0  0  0  0  0  0  0  0  0  0  0  0
    5.1101    2.4136    0.0000 C   0  0  0  0  0  0  0  0  0  0  0  0
   10.2834    4.5181    0.0000 C   0  0  0  0  0  0  0  0  0  0  0  0
    8.8822    5.5362    0.0000 C   0  0  0  0  0  0  0  0  0  0  0  0
   10.8712    5.3271    0.0000 C   0  0  0  0  0  0  0  0  0  0  0  0
    9.4699    6.3452    0.0000 C   0  0  0  0  0  0  0  0  0  0  0  0
   10.4645    6.2407    0.0000 C   0  0  0  0  0  0  0  0  0  0  0  0
    7.2673   -3.3719    0.0000 H   0  0  0  0  0  0  0  0  0  0  0  0
    6.4823   -4.6276    0.0000 H   0  0  0  0  0  0  0  0  0  0  0  0
    6.1437   -2.0906    0.0000 H   0  0  0  0  0  0  0  0  0  0  0  0
    5.3322   -2.2631    0.0000 H   0  0  0  0  0  0  0  0  0  0  0  0
    5.0982   -4.4889    0.0000 H   0  0  0  0  0  0  0  0  0  0  0  0
    5.8562   -4.8263    0.0000 H   0  0  0  0  0  0  0  0  0  0  0  0
    4.5345   -2.7645    0.0000 H   0  0  0  0  0  0  0  0  0  0  0  0
    3.3301   -3.5088    0.0000 H   0  0  0  0  0  0  0  0  0  0  0  0
    7.8254   -3.1169    0.0000 H   0  0  0  0  0  0  0  0  0  0  0  0
    8.2239   -2.4266    0.0000 H   0  0  0  0  0  0  0  0  0  0  0  0
    2.7587   -3.3746    0.0000 H   0  0  0  0  0  0  0  0  0  0  0  0
    2.0305   -3.6988    0.0000 H   0  0  0  0  0  0  0  0  0  0  0  0
    4.4197   -5.4347    0.0000 H   0  0  0  0  0  0  0  0  0  0  0  0
    4.5030   -4.6420    0.0000 H   0  0  0  0  0  0  0  0  0  0  0  0
    6.1367   -0.9266    0.0000 H   0  0  0  0  0  0  0  0  0  0  0  0
    6.5352   -1.6169    0.0000 H   0  0  0  0  0  0  0  0  0  0  0  0
    8.6914   -1.6169    0.0000 H   0  0  0  0  0  0  0  0  0  0  0  0
    9.0899   -0.9266    0.0000 H   0  0  0  0  0  0  0  0  0  0  0  0
    7.0764    0.7757    0.0000 H   0  0  0  0  0  0  0  0  0  0  0  0
    1.5693   -4.3336    0.0000 H   0  0  0  0  0  0  0  0  0  0  0  0
    1.4860   -5.1263    0.0000 H   0  0  0  0  0  0  0  0  0  0  0  0
    3.2304   -6.3937    0.0000 H   0  0  0  0  0  0  0  0  0  0  0  0
    3.9585   -6.0695    0.0000 H   0  0  0  0  0  0  0  0  0  0  0  0
    6.5352    0.5484    0.0000 H   0  0  0  0  0  0  0  0  0  0  0  0
    6.1367   -0.1419    0.0000 H   0  0  0  0  0  0  0  0  0  0  0  0
    9.0899   -0.1419    0.0000 H   0  0  0  0  0  0  0  0  0  0  0  0
    8.6914    0.5484    0.0000 H   0  0  0  0  0  0  0  0  0  0  0  0
    1.8052   -5.8432    0.0000 H   0  0  0  0  0  0  0  0  0  0  0  0
    2.4500   -6.3117    0.0000 H   0  0  0  0  0  0  0  0  0  0  0  0
    8.4659   -3.7824    0.0000 H   0  0  0  0  0  0  0  0  0  0  0  0
    6.5883   -5.8676    0.0000 H   0  0  0  0  0  0  0  0  0  0  0  0
    9.0120    1.8619    0.0000 H   0  0  0  0  0  0  0  0  0  0  0  0
    9.6698   -4.8664    0.0000 H   0  0  0  0  0  0  0  0  0  0  0  0
    7.7922   -6.9516    0.0000 H   0  0  0  0  0  0  0  0  0  0  0  0
    2.5167   -1.6817    0.0000 H   0  0  0  0  0  0  0  0  0  0  0  0
    9.3330   -6.4510    0.0000 H   0  0  0  0  0  0  0  0  0  0  0  0
    5.3647    1.3628    0.0000 H   0  0  0  0  0  0  0  0  0  0  0  0
    6.1443    1.1971    0.0000 H   0  0  0  0  0  0  0  0  0  0  0  0
    8.2565    4.9030    0.0000 H   0  0  0  0  0  0  0  0  0  0  0  0
    7.3905    4.7658    0.0000 H   0  0  0  0  0  0  0  0  0  0  0  0
    7.5277    3.8998    0.0000 H   0  0  0  0  0  0  0  0  0  0  0  0
    9.1457    2.7242    0.0000 H   0  0  0  0  0  0  0  0  0  0  0  0
   10.0117    2.8614    0.0000 H   0  0  0  0  0  0  0  0  0  0  0  0
    9.8746    3.7274    0.0000 H   0  0  0  0  0  0  0  0  0  0  0  0
    5.5250    2.8744    0.0000 H   0  0  0  0  0  0  0  0  0  0  0  0
    4.6494    2.8285    0.0000 H   0  0  0  0  0  0  0  0  0  0  0  0
    4.6952    1.9529    0.0000 H   0  0  0  0  0  0  0  0  0  0  0  0
   10.5356    3.9517    0.0000 H   0  0  0  0  0  0  0  0  0  0  0  0
    8.2656    5.6010    0.0000 H   0  0  0  0  0  0  0  0  0  0  0  0
   11.4878    5.2623    0.0000 H   0  0  0  0  0  0  0  0  0  0  0  0
    9.2178    6.9116    0.0000 H   0  0  0  0  0  0  0  0  0  0  0  0
   10.8289    6.7422    0.0000 H   0  0  0  0  0  0  0  0  0  0  0  0
  1 25  1  0  0  0  0
  1 79  1  0  0  0  0
  2 25  2  0  0  0  0
  3  9  1  0  0  0  0
  3 10  1  0  0  0  0
  3 11  1  0  0  0  0
  4 13  1  0  0  0  0
  4 17  1  0  0  0  0
  4 18  1  0  0  0  0
  5  6  1  0  0  0  0
  5 26  1  0  0  0  0
  5 35  1  0  0  0  0
  6 32  2  0  0  0  0
  7  8  1  0  0  0  0
  7  9  1  0  0  0  0
  7 13  1  6  0  0  0
  7 45  1  0  0  0  0
  8 10  1  0  0  0  0
  8 16  1  1  0  0  0
  8 46  1  0  0  0  0
  9 47  1  0  0  0  0
  9 48  1  0  0  0  0
 10 49  1  0  0  0  0
 10 50  1  0  0  0  0
 11 12  1  0  0  0  0
 11 25  1  6  0  0  0
 11 51  1  0  0  0  0
 12 14  1  0  0  0  0
 12 15  1  0  0  0  0
 12 52  1  0  0  0  0
 13 53  1  0  0  0  0
 13 54  1  0  0  0  0
 14 20  1  0  0  0  0
 14 55  1  0  0  0  0
 14 56  1  0  0  0  0
 15 21  1  0  0  0  0
 15 57  1  0  0  0  0
 15 58  1  0  0  0  0
 16 27  2  0  0  0  0
 16 28  1  0  0  0  0
 17 22  1  0  0  0  0
 17 59  1  0  0  0  0
 17 60  1  0  0  0  0
 18 23  1  0  0  0  0
 18 61  1  0  0  0  0
 18 62  1  0  0  0  0
 19 22  1  0  0  0  0
 19 23  1  0  0  0  0
 19 26  1  0  0  0  0
 19 63  1  0  0  0  0
 20 24  1  0  0  0  0
 20 64  1  0  0  0  0
 20 65  1  0  0  0  0
 21 24  1  0  0  0  0
 21 66  1  0  0  0  0
 21 67  1  0  0  0  0
 22 68  1  0  0  0  0
 22 69  1  0  0  0  0
 23 70  1  0  0  0  0
 23 71  1  0  0  0  0
 24 72  1  0  0  0  0
 24 73  1  0  0  0  0
 26 29  2  0  0  0  0
 27 30  1  0  0  0  0
 27 74  1  0  0  0  0
 28 31  2  0  0  0  0
 28 75  1  0  0  0  0
 29 32  1  0  0  0  0
 29 76  1  0  0  0  0
 30 33  2  0  0  0  0
 30 77  1  0  0  0  0
 31 33  1  0  0  0  0
 31 78  1  0  0  0  0
 32 34  1  0  0  0  0
 33 80  1  0  0  0  0
 34 36  1  0  0  0  0
 34 37  1  0  0  0  0
 34 38  1  0  0  0  0
 35 39  1  0  0  0  0
 35 81  1  0  0  0  0
 35 82  1  0  0  0  0
 36 40  2  0  0  0  0
 36 41  1  0  0  0  0
 37 83  1  0  0  0  0
 37 84  1  0  0  0  0
 37 85  1  0  0  0  0
 38 86  1  0  0  0  0
 38 87  1  0  0  0  0
 38 88  1  0  0  0  0
 39 89  1  0  0  0  0
 39 90  1  0  0  0  0
 39 91  1  0  0  0  0
 40 42  1  0  0  0  0
 40 92  1  0  0  0  0
 41 43  2  0  0  0  0
 41 93  1  0  0  0  0
 42 44  2  0  0  0  0
 42 94  1  0  0  0  0
 43 44  1  0  0  0  0
 43 95  1  0  0  0  0
 44 96  1  0  0  0  0
M  END
> <PUBCHEM_COMPOUND_CID>
516358
> <PUBCHEM_COMPOUND_CANONICALIZED>
1
> <PUBCHEM_CACTVS_COMPLEXITY>
901
> <PUBCHEM_CACTVS_HBOND_ACCEPTOR>
5
> <PUBCHEM_CACTVS_HBOND_DONOR>
1
> <PUBCHEM_CACTVS_ROTATABLE_BOND>
10
> <PUBCHEM_CACTVS_SUBSKEYS>
AAADcfB/sAAAAAAAAAAAAAAAAAAAAWLAAAA8YMEAAAAAAAAB0AAAHgAICAAADyjBngQyiJMIAgCqAyTyTACSBAAhggAY2CG4ZJgKIDLA0fGE5AhkiADYyAeYyOCPgAAAAAAAAAAAAAAAAAAAAAAAAAAAAA==
> <PUBCHEM_IUPAC_OPENEYE_NAME>
(2R)-2-cyclohexyl-2-[(3S,4S)-3-[[4-[2-ethyl-5-(1-methyl-1-phenyl-ethyl)pyrazol-3-yl]-1-piperidyl]methyl]-4-phenyl-pyrrolidin-1-yl]acetic acid
> <PUBCHEM_IUPAC_CAS_NAME>
(2R)-2-cyclohexyl-2-[(3S,4S)-3-[[4-[2-ethyl-5-(2-phenylpropan-2-yl)-3-pyrazolyl]-1-piperidinyl]methyl]-4-phenyl-1-pyrrolidinyl]acetic acid
> <PUBCHEM_IUPAC_NAME_MARKUP>
(2<I>R</I>)-2-cyclohexyl-2-[(3<I>S</I>,4<I>S</I>)-3-[[4-[2-ethyl-5-(2-phenylpropan-2-yl)pyrazol-3-yl]piperidin-1-yl]methyl]-4-phenylpyrrolidin-1-yl]acetic acid
> <PUBCHEM_IUPAC_NAME>
(2R)-2-cyclohexyl-2-[(3S,4S)-3-[[4-[2-ethyl-5-(2-phenylpropan-2-yl)pyrazol-3-yl]piperidin-1-yl]methyl]-4-phenylpyrrolidin-1-yl]acetic acid
> <PUBCHEM_IUPAC_SYSTEMATIC_NAME>
(2R)-2-cyclohexyl-2-[(3S,4S)-3-[[4-[2-ethyl-5-(2-phenylpropan-2-yl)pyrazol-3-yl]piperidin-1-yl]methyl]-4-phenyl-pyrrolidin-1-yl]ethanoic acid
> <PUBCHEM_IUPAC_TRADITIONAL_NAME>
(2R)-2-[(3S,4S)-3-[[4-(5-cumyl-2-ethyl-pyrazol-3-yl)piperidino]methyl]-4-phenyl-pyrrolidino]-2-cyclohexyl-acetic acid
> <PUBCHEM_IUPAC_INCHI>
InChI=1S/C38H52N4O2/c1-4-42-34(24-35(39-42)38(2,3)32-18-12-7-13-19-32)29-20-22-40(23-21-29)25-31-26-41(27-33(31)28-14-8-5-9-15-28)36(37(43)44)30-16-10-6-11-17-30/h5,7-9,12-15,18-19,24,29-31,33,36H,4,6,10-11,16-17,20-23,25-27H2,1-3H3,(H,43,44)/t31-,33+,36+/m0/s1
> <PUBCHEM_IUPAC_INCHIKEY>
CLJHZAHZVGMFKS-JNYUFQCESA-N
> <PUBCHEM_XLOGP3_AA>
5.5
> <PUBCHEM_EXACT_MASS>
596.40902691
> <PUBCHEM_MOLECULAR_FORMULA>
C38H52N4O2
> <PUBCHEM_MOLECULAR_WEIGHT>
596.8
> <PUBCHEM_OPENEYE_CAN_SMILES>
CCN1C(=CC(=N1)C(C)(C)C2=CC=CC=C2)C3CCN(CC3)CC4CN(CC4C5=CC=CC=C5)C(C6CCCCC6)C(=O)O
> <PUBCHEM_OPENEYE_ISO_SMILES>
CCN1C(=CC(=N1)C(C)(C)C2=CC=CC=C2)C3CCN(CC3)C[C@H]4CN(C[C@@H]4C5=CC=CC=C5)[C@H](C6CCCCC6)C(=O)O
> <PUBCHEM_CACTVS_TPSA>
61.6
> <PUBCHEM_MONOISOTOPIC_WEIGHT>
596.40902691
> <PUBCHEM_TOTAL_CHARGE>
0
> <PUBCHEM_HEAVY_ATOM_COUNT>
44
> <PUBCHEM_ATOM_DEF_STEREO_COUNT>
3
> <PUBCHEM_ATOM_UDEF_STEREO_COUNT>
0
> <PUBCHEM_BOND_DEF_STEREO_COUNT>
0
> <PUBCHEM_BOND_UDEF_STEREO_COUNT>
0
> <PUBCHEM_ISOTOPIC_ATOM_COUNT>
0
> <PUBCHEM_COMPONENT_COUNT>
1
> <PUBCHEM_CACTVS_TAUTO_COUNT>
-1
> <PUBCHEM_COORDINATE_TYPE>
1
5
255
> <PUBCHEM_BONDANNOTATIONS>
11  25  6
16  27  8
16  28  8
26  29  8
27  30  8
28  31  8
29  32  8
30  33  8
31  33  8
36  40  8
36  41  8
40  42  8
41  43  8
42  44  8
43  44  8
5  26  8
5  6  8
6  32  8
7  13  6
8  16  5
$$$$
