516342
  -OEChem-10302200282D
 83 88  0     1  0  0  0  0  0999 V2000
    2.7688   -2.3526    0.0000 O   0  0  0  0  0  0  0  0  0  0  0  0
    4.3511   -1.6481    0.0000 O   0  0  0  0  0  0  0  0  0  0  0  0
    6.8043    1.9490    0.0000 O   0  0  0  0  0  0  0  0  0  0  0  0
    5.1646   -3.4752    0.0000 N   0  0  3  0  0  0  0  0  0  0  0  0
    7.6133   -1.6388    0.0000 N   0  0  0  0  0  0  0  0  0  0  0  0
    7.1133    2.9001    0.0000 N   0  0  0  0  0  0  0  0  0  0  0  0
    6.7473   -3.1388    0.0000 C   0  0  2  0  0  0  0  0  0  0  0  0
    6.6428   -4.1333    0.0000 C   0  0  2  0  0  0  0  0  0  0  0  0
    5.8338   -2.7320    0.0000 C   0  0  0  0  0  0  0  0  0  0  0  0
    5.6646   -4.3412    0.0000 C   0  0  0  0  0  0  0  0  0  0  0  0
    4.1701   -3.3707    0.0000 C   0  0  2  0  0  0  0  0  0  0  0  0
    3.5823   -4.1797    0.0000 C   0  0  0  0  0  0  0  0  0  0  0  0
    7.6133   -2.6388    0.0000 C   0  0  0  0  0  0  0  0  0  0  0  0
    2.5878   -4.0752    0.0000 C   0  0  0  0  0  0  0  0  0  0  0  0
    3.9890   -5.0932    0.0000 C   0  0  0  0  0  0  0  0  0  0  0  0
    7.3859   -4.8024    0.0000 C   0  0  0  0  0  0  0  0  0  0  0  0
    2.0000   -4.8842    0.0000 C   0  0  0  0  0  0  0  0  0  0  0  0
    3.4013   -5.9022    0.0000 C   0  0  0  0  0  0  0  0  0  0  0  0
    6.7473   -1.1388    0.0000 C   0  0  0  0  0  0  0  0  0  0  0  0
    8.4793   -1.1388    0.0000 C   0  0  0  0  0  0  0  0  0  0  0  0
    2.4067   -5.7977    0.0000 C   0  0  0  0  0  0  0  0  0  0  0  0
    7.6133    0.3612    0.0000 C   0  0  0  0  0  0  0  0  0  0  0  0
    3.7634   -2.4571    0.0000 C   0  0  0  0  0  0  0  0  0  0  0  0
    6.7473   -0.1388    0.0000 C   0  0  0  0  0  0  0  0  0  0  0  0
    8.4793   -0.1388    0.0000 C   0  0  0  0  0  0  0  0  0  0  0  0
    8.3370   -4.4934    0.0000 C   0  0  0  0  0  0  0  0  0  0  0  0
    7.1780   -5.7806    0.0000 C   0  0  0  0  0  0  0  0  0  0  0  0
    7.6133    1.3612    0.0000 C   0  0  0  0  0  0  0  0  0  0  0  0
    9.0801   -5.1626    0.0000 C   0  0  0  0  0  0  0  0  0  0  0  0
    7.9211   -6.4497    0.0000 C   0  0  0  0  0  0  0  0  0  0  0  0
    8.8722   -6.1407    0.0000 C   0  0  0  0  0  0  0  0  0  0  0  0
    8.4223    1.9490    0.0000 C   0  0  0  0  0  0  0  0  0  0  0  0
    8.1133    2.9001    0.0000 C   0  0  0  0  0  0  0  0  0  0  0  0
    8.7011    3.7091    0.0000 C   0  0  0  0  0  0  0  0  0  0  0  0
    8.2944    4.6226    0.0000 C   0  0  0  0  0  0  0  0  0  0  0  0
    7.2998    4.7272    0.0000 C   0  0  0  0  0  0  0  0  0  0  0  0
    8.8822    5.4316    0.0000 C   0  0  0  0  0  0  0  0  0  0  0  0
    6.8931    5.6407    0.0000 C   0  0  0  0  0  0  0  0  0  0  0  0
    8.4754    6.3452    0.0000 C   0  0  0  0  0  0  0  0  0  0  0  0
    7.4809    6.4497    0.0000 C   0  0  0  0  0  0  0  0  0  0  0  0
    7.2673   -3.4765    0.0000 H   0  0  0  0  0  0  0  0  0  0  0  0
    6.4823   -4.7322    0.0000 H   0  0  0  0  0  0  0  0  0  0  0  0
    6.1437   -2.1951    0.0000 H   0  0  0  0  0  0  0  0  0  0  0  0
    5.3322   -2.3676    0.0000 H   0  0  0  0  0  0  0  0  0  0  0  0
    5.0982   -4.5934    0.0000 H   0  0  0  0  0  0  0  0  0  0  0  0
    5.8562   -4.9309    0.0000 H   0  0  0  0  0  0  0  0  0  0  0  0
    4.5345   -2.8691    0.0000 H   0  0  0  0  0  0  0  0  0  0  0  0
    3.3301   -3.6133    0.0000 H   0  0  0  0  0  0  0  0  0  0  0  0
    7.8254   -3.2214    0.0000 H   0  0  0  0  0  0  0  0  0  0  0  0
    8.2239   -2.5311    0.0000 H   0  0  0  0  0  0  0  0  0  0  0  0
    2.7587   -3.4792    0.0000 H   0  0  0  0  0  0  0  0  0  0  0  0
    2.0305   -3.8034    0.0000 H   0  0  0  0  0  0  0  0  0  0  0  0
    4.4197   -5.5392    0.0000 H   0  0  0  0  0  0  0  0  0  0  0  0
    4.5030   -4.7465    0.0000 H   0  0  0  0  0  0  0  0  0  0  0  0
    1.5693   -4.4382    0.0000 H   0  0  0  0  0  0  0  0  0  0  0  0
    1.4860   -5.2309    0.0000 H   0  0  0  0  0  0  0  0  0  0  0  0
    3.2304   -6.4982    0.0000 H   0  0  0  0  0  0  0  0  0  0  0  0
    3.9585   -6.1740    0.0000 H   0  0  0  0  0  0  0  0  0  0  0  0
    6.1367   -1.0311    0.0000 H   0  0  0  0  0  0  0  0  0  0  0  0
    6.5352   -1.7214    0.0000 H   0  0  0  0  0  0  0  0  0  0  0  0
    8.6914   -1.7214    0.0000 H   0  0  0  0  0  0  0  0  0  0  0  0
    9.0899   -1.0311    0.0000 H   0  0  0  0  0  0  0  0  0  0  0  0
    1.8052   -5.9477    0.0000 H   0  0  0  0  0  0  0  0  0  0  0  0
    2.4500   -6.4162    0.0000 H   0  0  0  0  0  0  0  0  0  0  0  0
    7.0764    0.6712    0.0000 H   0  0  0  0  0  0  0  0  0  0  0  0
    6.5352    0.4438    0.0000 H   0  0  0  0  0  0  0  0  0  0  0  0
    6.1367   -0.2464    0.0000 H   0  0  0  0  0  0  0  0  0  0  0  0
    9.0899   -0.2464    0.0000 H   0  0  0  0  0  0  0  0  0  0  0  0
    8.6914    0.4438    0.0000 H   0  0  0  0  0  0  0  0  0  0  0  0
    8.4659   -3.8870    0.0000 H   0  0  0  0  0  0  0  0  0  0  0  0
    6.5883   -5.9722    0.0000 H   0  0  0  0  0  0  0  0  0  0  0  0
    9.6698   -4.9710    0.0000 H   0  0  0  0  0  0  0  0  0  0  0  0
    7.7922   -7.0562    0.0000 H   0  0  0  0  0  0  0  0  0  0  0  0
    2.5167   -1.7862    0.0000 H   0  0  0  0  0  0  0  0  0  0  0  0
    9.3330   -6.5556    0.0000 H   0  0  0  0  0  0  0  0  0  0  0  0
    9.0120    1.7574    0.0000 H   0  0  0  0  0  0  0  0  0  0  0  0
    9.1318    3.2631    0.0000 H   0  0  0  0  0  0  0  0  0  0  0  0
    9.2151    4.0558    0.0000 H   0  0  0  0  0  0  0  0  0  0  0  0
    6.9354    4.2256    0.0000 H   0  0  0  0  0  0  0  0  0  0  0  0
    9.4988    5.3668    0.0000 H   0  0  0  0  0  0  0  0  0  0  0  0
    6.2765    5.7055    0.0000 H   0  0  0  0  0  0  0  0  0  0  0  0
    8.8398    6.8468    0.0000 H   0  0  0  0  0  0  0  0  0  0  0  0
    7.2287    7.0161    0.0000 H   0  0  0  0  0  0  0  0  0  0  0  0
  1 23  1  0  0  0  0
  1 74  1  0  0  0  0
  2 23  2  0  0  0  0
  3  6  1  0  0  0  0
  3 28  1  0  0  0  0
  4  9  1  0  0  0  0
  4 10  1  0  0  0  0
  4 11  1  0  0  0  0
  5 13  1  0  0  0  0
  5 19  1  0  0  0  0
  5 20  1  0  0  0  0
  6 33  2  0  0  0  0
  7  8  1  0  0  0  0
  7  9  1  0  0  0  0
  7 13  1  6  0  0  0
  7 41  1  0  0  0  0
  8 10  1  0  0  0  0
  8 16  1  1  0  0  0
  8 42  1  0  0  0  0
  9 43  1  0  0  0  0
  9 44  1  0  0  0  0
 10 45  1  0  0  0  0
 10 46  1  0  0  0  0
 11 12  1  0  0  0  0
 11 23  1  6  0  0  0
 11 47  1  0  0  0  0
 12 14  1  0  0  0  0
 12 15  1  0  0  0  0
 12 48  1  0  0  0  0
 13 49  1  0  0  0  0
 13 50  1  0  0  0  0
 14 17  1  0  0  0  0
 14 51  1  0  0  0  0
 14 52  1  0  0  0  0
 15 18  1  0  0  0  0
 15 53  1  0  0  0  0
 15 54  1  0  0  0  0
 16 26  2  0  0  0  0
 16 27  1  0  0  0  0
 17 21  1  0  0  0  0
 17 55  1  0  0  0  0
 17 56  1  0  0  0  0
 18 21  1  0  0  0  0
 18 57  1  0  0  0  0
 18 58  1  0  0  0  0
 19 24  1  0  0  0  0
 19 59  1  0  0  0  0
 19 60  1  0  0  0  0
 20 25  1  0  0  0  0
 20 61  1  0  0  0  0
 20 62  1  0  0  0  0
 21 63  1  0  0  0  0
 21 64  1  0  0  0  0
 22 24  1  0  0  0  0
 22 25  1  0  0  0  0
 22 28  1  0  0  0  0
 22 65  1  0  0  0  0
 24 66  1  0  0  0  0
 24 67  1  0  0  0  0
 25 68  1  0  0  0  0
 25 69  1  0  0  0  0
 26 29  1  0  0  0  0
 26 70  1  0  0  0  0
 27 30  2  0  0  0  0
 27 71  1  0  0  0  0
 28 32  2  0  0  0  0
 29 31  2  0  0  0  0
 29 72  1  0  0  0  0
 30 31  1  0  0  0  0
 30 73  1  0  0  0  0
 31 75  1  0  0  0  0
 32 33  1  0  0  0  0
 32 76  1  0  0  0  0
 33 34  1  0  0  0  0
 34 35  1  0  0  0  0
 34 77  1  0  0  0  0
 34 78  1  0  0  0  0
 35 36  2  0  0  0  0
 35 37  1  0  0  0  0
 36 38  1  0  0  0  0
 36 79  1  0  0  0  0
 37 39  2  0  0  0  0
 37 80  1  0  0  0  0
 38 40  2  0  0  0  0
 38 81  1  0  0  0  0
 39 40  1  0  0  0  0
 39 82  1  0  0  0  0
 40 83  1  0  0  0  0
M  END
> <PUBCHEM_COMPOUND_CID>
516342
> <PUBCHEM_COMPOUND_CANONICALIZED>
1
> <PUBCHEM_CACTVS_COMPLEXITY>
783
> <PUBCHEM_CACTVS_HBOND_ACCEPTOR>
6
> <PUBCHEM_CACTVS_HBOND_DONOR>
1
> <PUBCHEM_CACTVS_ROTATABLE_BOND>
9
> <PUBCHEM_CACTVS_SUBSKEYS>
AAADcfB/MAAAAAAAAAAAAAAAAAAAAWLAAAA8YMEAAAAAAAAB0AAAHgAECAAADSzBngQwjJMQAgCpA6TySgCCAAAkIgAomCG+bNoKJjqA0bOEcYBmgBiYyUe8yPCOgAAAAAAAAAAAAAAAAAAAAAAAAAAAAA==
> <PUBCHEM_IUPAC_OPENEYE_NAME>
(2R)-2-[(3S,4S)-3-[[4-(3-benzylisoxazol-5-yl)-1-piperidyl]methyl]-4-phenyl-pyrrolidin-1-yl]-2-cyclohexyl-acetic acid
> <PUBCHEM_IUPAC_CAS_NAME>
(2R)-2-cyclohexyl-2-[(3S,4S)-3-phenyl-4-[[4-[3-(phenylmethyl)-5-isoxazolyl]-1-piperidinyl]methyl]-1-pyrrolidinyl]acetic acid
> <PUBCHEM_IUPAC_NAME_MARKUP>
(2<I>R</I>)-2-[(3<I>S</I>,4<I>S</I>)-3-[[4-(3-benzyl-1,2-oxazol-5-yl)piperidin-1-yl]methyl]-4-phenylpyrrolidin-1-yl]-2-cyclohexylacetic acid
> <PUBCHEM_IUPAC_NAME>
(2R)-2-[(3S,4S)-3-[[4-(3-benzyl-1,2-oxazol-5-yl)piperidin-1-yl]methyl]-4-phenylpyrrolidin-1-yl]-2-cyclohexylacetic acid
> <PUBCHEM_IUPAC_SYSTEMATIC_NAME>
(2R)-2-cyclohexyl-2-[(3S,4S)-3-phenyl-4-[[4-[3-(phenylmethyl)-1,2-oxazol-5-yl]piperidin-1-yl]methyl]pyrrolidin-1-yl]ethanoic acid
> <PUBCHEM_IUPAC_TRADITIONAL_NAME>
(2R)-2-[(3S,4S)-3-[[4-(3-benzylisoxazol-5-yl)piperidino]methyl]-4-phenyl-pyrrolidino]-2-cyclohexyl-acetic acid
> <PUBCHEM_IUPAC_INCHI>
InChI=1S/C34H43N3O3/c38-34(39)33(28-14-8-3-9-15-28)37-23-29(31(24-37)26-12-6-2-7-13-26)22-36-18-16-27(17-19-36)32-21-30(35-40-32)20-25-10-4-1-5-11-25/h1-2,4-7,10-13,21,27-29,31,33H,3,8-9,14-20,22-24H2,(H,38,39)/t29-,31+,33+/m0/s1
> <PUBCHEM_IUPAC_INCHIKEY>
RFBKFWJESCNTHT-KCTCJIHVSA-N
> <PUBCHEM_XLOGP3_AA>
4.5
> <PUBCHEM_EXACT_MASS>
541.33044224
> <PUBCHEM_MOLECULAR_FORMULA>
C34H43N3O3
> <PUBCHEM_MOLECULAR_WEIGHT>
541.7
> <PUBCHEM_OPENEYE_CAN_SMILES>
C1CCC(CC1)C(C(=O)O)N2CC(C(C2)C3=CC=CC=C3)CN4CCC(CC4)C5=CC(=NO5)CC6=CC=CC=C6
> <PUBCHEM_OPENEYE_ISO_SMILES>
C1CCC(CC1)[C@H](C(=O)O)N2C[C@@H]([C@H](C2)C3=CC=CC=C3)CN4CCC(CC4)C5=CC(=NO5)CC6=CC=CC=C6
> <PUBCHEM_CACTVS_TPSA>
69.8
> <PUBCHEM_MONOISOTOPIC_WEIGHT>
541.33044224
> <PUBCHEM_TOTAL_CHARGE>
0
> <PUBCHEM_HEAVY_ATOM_COUNT>
40
> <PUBCHEM_ATOM_DEF_STEREO_COUNT>
3
> <PUBCHEM_ATOM_UDEF_STEREO_COUNT>
0
> <PUBCHEM_BOND_DEF_STEREO_COUNT>
0
> <PUBCHEM_BOND_UDEF_STEREO_COUNT>
0
> <PUBCHEM_ISOTOPIC_ATOM_COUNT>
0
> <PUBCHEM_COMPONENT_COUNT>
1
> <PUBCHEM_CACTVS_TAUTO_COUNT>
-1
> <PUBCHEM_COORDINATE_TYPE>
1
5
255
> <PUBCHEM_BONDANNOTATIONS>
11  23  6
16  26  8
16  27  8
26  29  8
27  30  8
28  32  8
29  31  8
3  28  8
3  6  8
30  31  8
32  33  8
35  36  8
35  37  8
36  38  8
37  39  8
38  40  8
39  40  8
6  33  8
7  13  6
8  16  5
$$$$
