516341
  -OEChem-10302200282D
 96101  0     1  0  0  0  0  0999 V2000
    2.3644   -3.5661    0.0000 O   0  0  0  0  0  0  0  0  0  0  0  0
    3.7657   -4.5842    0.0000 O   0  0  0  0  0  0  0  0  0  0  0  0
    4.9413   -2.9662    0.0000 N   0  0  3  0  0  0  0  0  0  0  0  0
    7.3900   -1.1298    0.0000 N   0  0  0  0  0  0  0  0  0  0  0  0
    8.1990    2.4580    0.0000 N   0  0  0  0  0  0  0  0  0  0  0  0
    7.8900    3.4091    0.0000 N   0  0  0  0  0  0  0  0  0  0  0  0
    6.5239   -2.6298    0.0000 C   0  0  2  0  0  0  0  0  0  0  0  0
    6.4194   -3.6243    0.0000 C   0  0  2  0  0  0  0  0  0  0  0  0
    5.6104   -2.2230    0.0000 C   0  0  0  0  0  0  0  0  0  0  0  0
    5.4413   -3.8322    0.0000 C   0  0  0  0  0  0  0  0  0  0  0  0
    3.9467   -2.8616    0.0000 C   0  0  2  0  0  0  0  0  0  0  0  0
    3.5400   -1.9481    0.0000 C   0  0  0  0  0  0  0  0  0  0  0  0
    7.3900   -2.1298    0.0000 C   0  0  0  0  0  0  0  0  0  0  0  0
    2.5455   -1.8436    0.0000 C   0  0  0  0  0  0  0  0  0  0  0  0
    4.1278   -1.1391    0.0000 C   0  0  0  0  0  0  0  0  0  0  0  0
    7.1626   -4.2934    0.0000 C   0  0  0  0  0  0  0  0  0  0  0  0
    6.5239   -0.6297    0.0000 C   0  0  0  0  0  0  0  0  0  0  0  0
    8.2560   -0.6297    0.0000 C   0  0  0  0  0  0  0  0  0  0  0  0
    2.1387   -0.9300    0.0000 C   0  0  0  0  0  0  0  0  0  0  0  0
    3.7210   -0.2255    0.0000 C   0  0  0  0  0  0  0  0  0  0  0  0
    7.3900    0.8703    0.0000 C   0  0  0  0  0  0  0  0  0  0  0  0
    2.7265   -0.1210    0.0000 C   0  0  0  0  0  0  0  0  0  0  0  0
    6.5239    0.3703    0.0000 C   0  0  0  0  0  0  0  0  0  0  0  0
    8.2560    0.3703    0.0000 C   0  0  0  0  0  0  0  0  0  0  0  0
    3.3590   -3.6706    0.0000 C   0  0  0  0  0  0  0  0  0  0  0  0
    8.1136   -3.9844    0.0000 C   0  0  0  0  0  0  0  0  0  0  0  0
    6.9546   -5.2716    0.0000 C   0  0  0  0  0  0  0  0  0  0  0  0
    7.3900    1.8702    0.0000 C   0  0  0  0  0  0  0  0  0  0  0  0
    6.5809    2.4580    0.0000 C   0  0  0  0  0  0  0  0  0  0  0  0
    8.8568   -4.6535    0.0000 C   0  0  0  0  0  0  0  0  0  0  0  0
    7.6978   -5.9407    0.0000 C   0  0  0  0  0  0  0  0  0  0  0  0
    8.6488   -5.6317    0.0000 C   0  0  0  0  0  0  0  0  0  0  0  0
    6.8900    3.4091    0.0000 C   0  0  0  0  0  0  0  0  0  0  0  0
    5.6299    2.1490    0.0000 C   0  0  0  0  0  0  0  0  0  0  0  0
    8.4777    4.2181    0.0000 C   0  0  0  0  0  0  0  0  0  0  0  0
    4.8867    2.8182    0.0000 C   0  0  0  0  0  0  0  0  0  0  0  0
    8.0710    5.1317    0.0000 C   0  0  0  0  0  0  0  0  0  0  0  0
    3.9357    2.5091    0.0000 C   0  0  0  0  0  0  0  0  0  0  0  0
    8.6588    5.9407    0.0000 C   0  0  0  0  0  0  0  0  0  0  0  0
    3.1925    3.1783    0.0000 C   0  0  0  0  0  0  0  0  0  0  0  0
    3.7278    1.5310    0.0000 C   0  0  0  0  0  0  0  0  0  0  0  0
    2.2415    2.8692    0.0000 C   0  0  0  0  0  0  0  0  0  0  0  0
    2.7767    1.2220    0.0000 C   0  0  0  0  0  0  0  0  0  0  0  0
    2.0336    1.8911    0.0000 C   0  0  0  0  0  0  0  0  0  0  0  0
    6.4915   -2.0106    0.0000 H   0  0  0  0  0  0  0  0  0  0  0  0
    6.9982   -3.4021    0.0000 H   0  0  0  0  0  0  0  0  0  0  0  0
    5.9204   -1.6861    0.0000 H   0  0  0  0  0  0  0  0  0  0  0  0
    5.1088   -1.8586    0.0000 H   0  0  0  0  0  0  0  0  0  0  0  0
    4.8749   -4.0844    0.0000 H   0  0  0  0  0  0  0  0  0  0  0  0
    5.6328   -4.4218    0.0000 H   0  0  0  0  0  0  0  0  0  0  0  0
    4.1989   -3.4280    0.0000 H   0  0  0  0  0  0  0  0  0  0  0  0
    3.1756   -2.4497    0.0000 H   0  0  0  0  0  0  0  0  0  0  0  0
    7.6020   -2.7123    0.0000 H   0  0  0  0  0  0  0  0  0  0  0  0
    8.0005   -2.0221    0.0000 H   0  0  0  0  0  0  0  0  0  0  0  0
    1.9439   -1.9935    0.0000 H   0  0  0  0  0  0  0  0  0  0  0  0
    2.5887   -2.4620    0.0000 H   0  0  0  0  0  0  0  0  0  0  0  0
    4.5585   -1.5850    0.0000 H   0  0  0  0  0  0  0  0  0  0  0  0
    4.6418   -0.7924    0.0000 H   0  0  0  0  0  0  0  0  0  0  0  0
    5.9134   -0.5221    0.0000 H   0  0  0  0  0  0  0  0  0  0  0  0
    6.3119   -1.2124    0.0000 H   0  0  0  0  0  0  0  0  0  0  0  0
    8.4680   -1.2124    0.0000 H   0  0  0  0  0  0  0  0  0  0  0  0
    8.8666   -0.5221    0.0000 H   0  0  0  0  0  0  0  0  0  0  0  0
    1.7080   -0.4840    0.0000 H   0  0  0  0  0  0  0  0  0  0  0  0
    1.6247   -1.2767    0.0000 H   0  0  0  0  0  0  0  0  0  0  0  0
    4.3226   -0.0755    0.0000 H   0  0  0  0  0  0  0  0  0  0  0  0
    3.6778    0.3930    0.0000 H   0  0  0  0  0  0  0  0  0  0  0  0
    7.9269    1.1802    0.0000 H   0  0  0  0  0  0  0  0  0  0  0  0
    2.8974    0.4750    0.0000 H   0  0  0  0  0  0  0  0  0  0  0  0
    2.1693    0.1508    0.0000 H   0  0  0  0  0  0  0  0  0  0  0  0
    6.3119    0.9529    0.0000 H   0  0  0  0  0  0  0  0  0  0  0  0
    5.9134    0.2626    0.0000 H   0  0  0  0  0  0  0  0  0  0  0  0
    8.8666    0.2626    0.0000 H   0  0  0  0  0  0  0  0  0  0  0  0
    8.4680    0.9529    0.0000 H   0  0  0  0  0  0  0  0  0  0  0  0
    8.2425   -3.3779    0.0000 H   0  0  0  0  0  0  0  0  0  0  0  0
    6.3650   -5.4631    0.0000 H   0  0  0  0  0  0  0  0  0  0  0  0
    9.4464   -4.4619    0.0000 H   0  0  0  0  0  0  0  0  0  0  0  0
    7.5689   -6.5471    0.0000 H   0  0  0  0  0  0  0  0  0  0  0  0
    2.0000   -4.0677    0.0000 H   0  0  0  0  0  0  0  0  0  0  0  0
    9.1096   -6.0465    0.0000 H   0  0  0  0  0  0  0  0  0  0  0  0
    6.5255    3.9107    0.0000 H   0  0  0  0  0  0  0  0  0  0  0  0
    5.1413    1.7673    0.0000 H   0  0  0  0  0  0  0  0  0  0  0  0
    5.9210    1.6016    0.0000 H   0  0  0  0  0  0  0  0  0  0  0  0
    8.9084    3.7721    0.0000 H   0  0  0  0  0  0  0  0  0  0  0  0
    8.9918    4.5648    0.0000 H   0  0  0  0  0  0  0  0  0  0  0  0
    5.3753    3.1999    0.0000 H   0  0  0  0  0  0  0  0  0  0  0  0
    4.5957    3.3656    0.0000 H   0  0  0  0  0  0  0  0  0  0  0  0
    7.6403    5.5776    0.0000 H   0  0  0  0  0  0  0  0  0  0  0  0
    7.5570    4.7850    0.0000 H   0  0  0  0  0  0  0  0  0  0  0  0
    9.1604    5.5762    0.0000 H   0  0  0  0  0  0  0  0  0  0  0  0
    9.0232    6.4423    0.0000 H   0  0  0  0  0  0  0  0  0  0  0  0
    8.1572    6.3051    0.0000 H   0  0  0  0  0  0  0  0  0  0  0  0
    3.3214    3.7847    0.0000 H   0  0  0  0  0  0  0  0  0  0  0  0
    4.1885    1.1161    0.0000 H   0  0  0  0  0  0  0  0  0  0  0  0
    1.7807    3.2841    0.0000 H   0  0  0  0  0  0  0  0  0  0  0  0
    2.6478    0.6155    0.0000 H   0  0  0  0  0  0  0  0  0  0  0  0
    1.4439    1.6995    0.0000 H   0  0  0  0  0  0  0  0  0  0  0  0
  1 25  1  0  0  0  0
  1 78  1  0  0  0  0
  2 25  2  0  0  0  0
  3  9  1  0  0  0  0
  3 10  1  0  0  0  0
  3 11  1  0  0  0  0
  4 13  1  0  0  0  0
  4 17  1  0  0  0  0
  4 18  1  0  0  0  0
  5  6  1  0  0  0  0
  5 28  2  0  0  0  0
  6 33  1  0  0  0  0
  6 35  1  0  0  0  0
  7  8  1  0  0  0  0
  7  9  1  0  0  0  0
  7 13  1  6  0  0  0
  7 45  1  0  0  0  0
  8 10  1  0  0  0  0
  8 16  1  1  0  0  0
  8 46  1  0  0  0  0
  9 47  1  0  0  0  0
  9 48  1  0  0  0  0
 10 49  1  0  0  0  0
 10 50  1  0  0  0  0
 11 12  1  0  0  0  0
 11 25  1  1  0  0  0
 11 51  1  0  0  0  0
 12 14  1  0  0  0  0
 12 15  1  0  0  0  0
 12 52  1  0  0  0  0
 13 53  1  0  0  0  0
 13 54  1  0  0  0  0
 14 19  1  0  0  0  0
 14 55  1  0  0  0  0
 14 56  1  0  0  0  0
 15 20  1  0  0  0  0
 15 57  1  0  0  0  0
 15 58  1  0  0  0  0
 16 26  2  0  0  0  0
 16 27  1  0  0  0  0
 17 23  1  0  0  0  0
 17 59  1  0  0  0  0
 17 60  1  0  0  0  0
 18 24  1  0  0  0  0
 18 61  1  0  0  0  0
 18 62  1  0  0  0  0
 19 22  1  0  0  0  0
 19 63  1  0  0  0  0
 19 64  1  0  0  0  0
 20 22  1  0  0  0  0
 20 65  1  0  0  0  0
 20 66  1  0  0  0  0
 21 23  1  0  0  0  0
 21 24  1  0  0  0  0
 21 28  1  0  0  0  0
 21 67  1  0  0  0  0
 22 68  1  0  0  0  0
 22 69  1  0  0  0  0
 23 70  1  0  0  0  0
 23 71  1  0  0  0  0
 24 72  1  0  0  0  0
 24 73  1  0  0  0  0
 26 30  1  0  0  0  0
 26 74  1  0  0  0  0
 27 31  2  0  0  0  0
 27 75  1  0  0  0  0
 28 29  1  0  0  0  0
 29 33  2  0  0  0  0
 29 34  1  0  0  0  0
 30 32  2  0  0  0  0
 30 76  1  0  0  0  0
 31 32  1  0  0  0  0
 31 77  1  0  0  0  0
 32 79  1  0  0  0  0
 33 80  1  0  0  0  0
 34 36  1  0  0  0  0
 34 81  1  0  0  0  0
 34 82  1  0  0  0  0
 35 37  1  0  0  0  0
 35 83  1  0  0  0  0
 35 84  1  0  0  0  0
 36 38  1  0  0  0  0
 36 85  1  0  0  0  0
 36 86  1  0  0  0  0
 37 39  1  0  0  0  0
 37 87  1  0  0  0  0
 37 88  1  0  0  0  0
 38 40  2  0  0  0  0
 38 41  1  0  0  0  0
 39 89  1  0  0  0  0
 39 90  1  0  0  0  0
 39 91  1  0  0  0  0
 40 42  1  0  0  0  0
 40 92  1  0  0  0  0
 41 43  2  0  0  0  0
 41 93  1  0  0  0  0
 42 44  2  0  0  0  0
 42 94  1  0  0  0  0
 43 44  1  0  0  0  0
 43 95  1  0  0  0  0
 44 96  1  0  0  0  0
M  END
> <PUBCHEM_COMPOUND_CID>
516341
> <PUBCHEM_COMPOUND_CANONICALIZED>
1
> <PUBCHEM_CACTVS_COMPLEXITY>
859
> <PUBCHEM_CACTVS_HBOND_ACCEPTOR>
5
> <PUBCHEM_CACTVS_HBOND_DONOR>
1
> <PUBCHEM_CACTVS_ROTATABLE_BOND>
12
> <PUBCHEM_CACTVS_SUBSKEYS>
AAADcfB/sAAAAAAAAAAAAAAAAAAAAWLAAAA8YMEAAAAAAAAB0AAAHgAICAAADSjBngQ+iJMIAgCqAzT3TACSBAAxgAAY2CG4RJgKILLA0fGE5AhkiADYyAeYyOCOgAAAAAAAAAAAAAAAAAAAAAAAAAAAAA==
> <PUBCHEM_IUPAC_OPENEYE_NAME>
(2R)-2-cyclohexyl-2-[(3S,4S)-3-phenyl-4-[[4-[4-(2-phenylethyl)-1-propyl-pyrazol-3-yl]-1-piperidyl]methyl]pyrrolidin-1-yl]acetic acid
> <PUBCHEM_IUPAC_CAS_NAME>
(2R)-2-cyclohexyl-2-[(3S,4S)-3-phenyl-4-[[4-[4-(2-phenylethyl)-1-propyl-3-pyrazolyl]-1-piperidinyl]methyl]-1-pyrrolidinyl]acetic acid
> <PUBCHEM_IUPAC_NAME_MARKUP>
(2<I>R</I>)-2-cyclohexyl-2-[(3<I>S</I>,4<I>S</I>)-3-phenyl-4-[[4-[4-(2-phenylethyl)-1-propylpyrazol-3-yl]piperidin-1-yl]methyl]pyrrolidin-1-yl]acetic acid
> <PUBCHEM_IUPAC_NAME>
(2R)-2-cyclohexyl-2-[(3S,4S)-3-phenyl-4-[[4-[4-(2-phenylethyl)-1-propylpyrazol-3-yl]piperidin-1-yl]methyl]pyrrolidin-1-yl]acetic acid
> <PUBCHEM_IUPAC_SYSTEMATIC_NAME>
(2R)-2-cyclohexyl-2-[(3S,4S)-3-phenyl-4-[[4-[4-(2-phenylethyl)-1-propyl-pyrazol-3-yl]piperidin-1-yl]methyl]pyrrolidin-1-yl]ethanoic acid
> <PUBCHEM_IUPAC_TRADITIONAL_NAME>
(2R)-2-cyclohexyl-2-[(3S,4S)-3-[[4-(4-phenethyl-1-propyl-pyrazol-3-yl)piperidino]methyl]-4-phenyl-pyrrolidino]acetic acid
> <PUBCHEM_IUPAC_INCHI>
InChI=1S/C38H52N4O2/c1-2-22-42-27-33(19-18-29-12-6-3-7-13-29)36(39-42)31-20-23-40(24-21-31)25-34-26-41(28-35(34)30-14-8-4-9-15-30)37(38(43)44)32-16-10-5-11-17-32/h3-4,6-9,12-15,27,31-32,34-35,37H,2,5,10-11,16-26,28H2,1H3,(H,43,44)/t34-,35+,37+/m0/s1
> <PUBCHEM_IUPAC_INCHIKEY>
KDBYGNXOSUZUDJ-UQDPWRLZSA-N
> <PUBCHEM_XLOGP3_AA>
5.4
> <PUBCHEM_EXACT_MASS>
596.40902691
> <PUBCHEM_MOLECULAR_FORMULA>
C38H52N4O2
> <PUBCHEM_MOLECULAR_WEIGHT>
596.8
> <PUBCHEM_OPENEYE_CAN_SMILES>
CCCN1C=C(C(=N1)C2CCN(CC2)CC3CN(CC3C4=CC=CC=C4)C(C5CCCCC5)C(=O)O)CCC6=CC=CC=C6
> <PUBCHEM_OPENEYE_ISO_SMILES>
CCCN1C=C(C(=N1)C2CCN(CC2)C[C@H]3CN(C[C@@H]3C4=CC=CC=C4)[C@H](C5CCCCC5)C(=O)O)CCC6=CC=CC=C6
> <PUBCHEM_CACTVS_TPSA>
61.6
> <PUBCHEM_MONOISOTOPIC_WEIGHT>
596.40902691
> <PUBCHEM_TOTAL_CHARGE>
0
> <PUBCHEM_HEAVY_ATOM_COUNT>
44
> <PUBCHEM_ATOM_DEF_STEREO_COUNT>
3
> <PUBCHEM_ATOM_UDEF_STEREO_COUNT>
0
> <PUBCHEM_BOND_DEF_STEREO_COUNT>
0
> <PUBCHEM_BOND_UDEF_STEREO_COUNT>
0
> <PUBCHEM_ISOTOPIC_ATOM_COUNT>
0
> <PUBCHEM_COMPONENT_COUNT>
1
> <PUBCHEM_CACTVS_TAUTO_COUNT>
-1
> <PUBCHEM_COORDINATE_TYPE>
1
5
255
> <PUBCHEM_BONDANNOTATIONS>
11  25  5
16  26  8
16  27  8
26  30  8
27  31  8
28  29  8
29  33  8
30  32  8
31  32  8
38  40  8
38  41  8
40  42  8
41  43  8
42  44  8
43  44  8
5  28  8
5  6  8
6  33  8
7  13  6
8  16  5
$$$$
