516317
  -OEChem-10302200282D
 84 89  0     1  0  0  0  0  0999 V2000
    2.7688   -1.8436    0.0000 O   0  0  0  0  0  0  0  0  0  0  0  0
    4.3511   -1.1391    0.0000 O   0  0  0  0  0  0  0  0  0  0  0  0
    5.1646   -2.9662    0.0000 N   0  0  3  0  0  0  0  0  0  0  0  0
    7.6133   -1.1298    0.0000 N   0  0  0  0  0  0  0  0  0  0  0  0
    7.6133    1.8702    0.0000 N   0  0  0  0  0  0  0  0  0  0  0  0
    8.4223    2.4580    0.0000 N   0  0  0  0  0  0  0  0  0  0  0  0
    6.7473   -2.6298    0.0000 C   0  0  2  0  0  0  0  0  0  0  0  0
    6.6428   -3.6243    0.0000 C   0  0  2  0  0  0  0  0  0  0  0  0
    5.8338   -2.2230    0.0000 C   0  0  0  0  0  0  0  0  0  0  0  0
    5.6646   -3.8322    0.0000 C   0  0  0  0  0  0  0  0  0  0  0  0
    4.1701   -2.8616    0.0000 C   0  0  2  0  0  0  0  0  0  0  0  0
    3.5823   -3.6706    0.0000 C   0  0  0  0  0  0  0  0  0  0  0  0
    7.6133   -2.1298    0.0000 C   0  0  0  0  0  0  0  0  0  0  0  0
    2.5878   -3.5661    0.0000 C   0  0  0  0  0  0  0  0  0  0  0  0
    3.9890   -4.5842    0.0000 C   0  0  0  0  0  0  0  0  0  0  0  0
    7.3859   -4.2934    0.0000 C   0  0  0  0  0  0  0  0  0  0  0  0
    2.0000   -4.3751    0.0000 C   0  0  0  0  0  0  0  0  0  0  0  0
    3.4013   -5.3932    0.0000 C   0  0  0  0  0  0  0  0  0  0  0  0
    6.7473   -0.6297    0.0000 C   0  0  0  0  0  0  0  0  0  0  0  0
    8.4793   -0.6297    0.0000 C   0  0  0  0  0  0  0  0  0  0  0  0
    2.4067   -5.2887    0.0000 C   0  0  0  0  0  0  0  0  0  0  0  0
    7.6133    0.8703    0.0000 C   0  0  0  0  0  0  0  0  0  0  0  0
    6.7473    0.3703    0.0000 C   0  0  0  0  0  0  0  0  0  0  0  0
    8.4793    0.3703    0.0000 C   0  0  0  0  0  0  0  0  0  0  0  0
    3.7634   -1.9481    0.0000 C   0  0  0  0  0  0  0  0  0  0  0  0
    8.3370   -3.9844    0.0000 C   0  0  0  0  0  0  0  0  0  0  0  0
    7.1780   -5.2716    0.0000 C   0  0  0  0  0  0  0  0  0  0  0  0
    9.0801   -4.6535    0.0000 C   0  0  0  0  0  0  0  0  0  0  0  0
    7.9211   -5.9407    0.0000 C   0  0  0  0  0  0  0  0  0  0  0  0
    6.8043    2.4580    0.0000 C   0  0  0  0  0  0  0  0  0  0  0  0
    8.8722   -5.6317    0.0000 C   0  0  0  0  0  0  0  0  0  0  0  0
    7.1133    3.4091    0.0000 C   0  0  0  0  0  0  0  0  0  0  0  0
    8.1133    3.4091    0.0000 C   0  0  0  0  0  0  0  0  0  0  0  0
    5.8532    2.1490    0.0000 C   0  0  0  0  0  0  0  0  0  0  0  0
    8.7011    4.2181    0.0000 C   0  0  0  0  0  0  0  0  0  0  0  0
    8.2944    5.1317    0.0000 C   0  0  0  0  0  0  0  0  0  0  0  0
    9.6956    4.1136    0.0000 C   0  0  0  0  0  0  0  0  0  0  0  0
    8.8822    5.9407    0.0000 C   0  0  0  0  0  0  0  0  0  0  0  0
   10.2834    4.9226    0.0000 C   0  0  0  0  0  0  0  0  0  0  0  0
    9.8767    5.8362    0.0000 C   0  0  0  0  0  0  0  0  0  0  0  0
    7.2673   -2.9674    0.0000 H   0  0  0  0  0  0  0  0  0  0  0  0
    7.2216   -3.4021    0.0000 H   0  0  0  0  0  0  0  0  0  0  0  0
    6.1437   -1.6861    0.0000 H   0  0  0  0  0  0  0  0  0  0  0  0
    5.3322   -1.8586    0.0000 H   0  0  0  0  0  0  0  0  0  0  0  0
    5.0982   -4.0844    0.0000 H   0  0  0  0  0  0  0  0  0  0  0  0
    5.8562   -4.4218    0.0000 H   0  0  0  0  0  0  0  0  0  0  0  0
    4.5345   -2.3600    0.0000 H   0  0  0  0  0  0  0  0  0  0  0  0
    3.3301   -3.1042    0.0000 H   0  0  0  0  0  0  0  0  0  0  0  0
    7.8254   -2.7123    0.0000 H   0  0  0  0  0  0  0  0  0  0  0  0
    8.2239   -2.0221    0.0000 H   0  0  0  0  0  0  0  0  0  0  0  0
    2.7587   -2.9701    0.0000 H   0  0  0  0  0  0  0  0  0  0  0  0
    2.0305   -3.2943    0.0000 H   0  0  0  0  0  0  0  0  0  0  0  0
    4.4197   -5.0302    0.0000 H   0  0  0  0  0  0  0  0  0  0  0  0
    4.5030   -4.2375    0.0000 H   0  0  0  0  0  0  0  0  0  0  0  0
    1.5693   -3.9291    0.0000 H   0  0  0  0  0  0  0  0  0  0  0  0
    1.4860   -4.7218    0.0000 H   0  0  0  0  0  0  0  0  0  0  0  0
    3.2304   -5.9892    0.0000 H   0  0  0  0  0  0  0  0  0  0  0  0
    3.9585   -5.6650    0.0000 H   0  0  0  0  0  0  0  0  0  0  0  0
    6.1367   -0.5221    0.0000 H   0  0  0  0  0  0  0  0  0  0  0  0
    6.5352   -1.2124    0.0000 H   0  0  0  0  0  0  0  0  0  0  0  0
    8.6914   -1.2124    0.0000 H   0  0  0  0  0  0  0  0  0  0  0  0
    9.0899   -0.5221    0.0000 H   0  0  0  0  0  0  0  0  0  0  0  0
    1.8052   -5.4387    0.0000 H   0  0  0  0  0  0  0  0  0  0  0  0
    2.4500   -5.9072    0.0000 H   0  0  0  0  0  0  0  0  0  0  0  0
    7.0764    1.1802    0.0000 H   0  0  0  0  0  0  0  0  0  0  0  0
    6.5352    0.9529    0.0000 H   0  0  0  0  0  0  0  0  0  0  0  0
    6.1367    0.2626    0.0000 H   0  0  0  0  0  0  0  0  0  0  0  0
    9.0899    0.2626    0.0000 H   0  0  0  0  0  0  0  0  0  0  0  0
    8.6914    0.9529    0.0000 H   0  0  0  0  0  0  0  0  0  0  0  0
    8.4659   -3.3779    0.0000 H   0  0  0  0  0  0  0  0  0  0  0  0
    6.5883   -5.4631    0.0000 H   0  0  0  0  0  0  0  0  0  0  0  0
    9.6698   -4.4619    0.0000 H   0  0  0  0  0  0  0  0  0  0  0  0
    7.7922   -6.5471    0.0000 H   0  0  0  0  0  0  0  0  0  0  0  0
    2.5167   -1.2772    0.0000 H   0  0  0  0  0  0  0  0  0  0  0  0
    9.3330   -6.0465    0.0000 H   0  0  0  0  0  0  0  0  0  0  0  0
    6.7489    3.9107    0.0000 H   0  0  0  0  0  0  0  0  0  0  0  0
    5.6616    2.7387    0.0000 H   0  0  0  0  0  0  0  0  0  0  0  0
    5.2636    1.9574    0.0000 H   0  0  0  0  0  0  0  0  0  0  0  0
    6.0448    1.5594    0.0000 H   0  0  0  0  0  0  0  0  0  0  0  0
    7.6778    5.1965    0.0000 H   0  0  0  0  0  0  0  0  0  0  0  0
    9.9478    3.5472    0.0000 H   0  0  0  0  0  0  0  0  0  0  0  0
    8.6300    6.5071    0.0000 H   0  0  0  0  0  0  0  0  0  0  0  0
   10.9000    4.8578    0.0000 H   0  0  0  0  0  0  0  0  0  0  0  0
   10.2411    6.3377    0.0000 H   0  0  0  0  0  0  0  0  0  0  0  0
  1 25  1  0  0  0  0
  1 74  1  0  0  0  0
  2 25  2  0  0  0  0
  3  9  1  0  0  0  0
  3 10  1  0  0  0  0
  3 11  1  0  0  0  0
  4 13  1  0  0  0  0
  4 19  1  0  0  0  0
  4 20  1  0  0  0  0
  5  6  1  0  0  0  0
  5 22  1  0  0  0  0
  5 30  1  0  0  0  0
  6 33  2  0  0  0  0
  7  8  1  0  0  0  0
  7  9  1  0  0  0  0
  7 13  1  6  0  0  0
  7 41  1  0  0  0  0
  8 10  1  0  0  0  0
  8 16  1  1  0  0  0
  8 42  1  0  0  0  0
  9 43  1  0  0  0  0
  9 44  1  0  0  0  0
 10 45  1  0  0  0  0
 10 46  1  0  0  0  0
 11 12  1  0  0  0  0
 11 25  1  6  0  0  0
 11 47  1  0  0  0  0
 12 14  1  0  0  0  0
 12 15  1  0  0  0  0
 12 48  1  0  0  0  0
 13 49  1  0  0  0  0
 13 50  1  0  0  0  0
 14 17  1  0  0  0  0
 14 51  1  0  0  0  0
 14 52  1  0  0  0  0
 15 18  1  0  0  0  0
 15 53  1  0  0  0  0
 15 54  1  0  0  0  0
 16 26  2  0  0  0  0
 16 27  1  0  0  0  0
 17 21  1  0  0  0  0
 17 55  1  0  0  0  0
 17 56  1  0  0  0  0
 18 21  1  0  0  0  0
 18 57  1  0  0  0  0
 18 58  1  0  0  0  0
 19 23  1  0  0  0  0
 19 59  1  0  0  0  0
 19 60  1  0  0  0  0
 20 24  1  0  0  0  0
 20 61  1  0  0  0  0
 20 62  1  0  0  0  0
 21 63  1  0  0  0  0
 21 64  1  0  0  0  0
 22 23  1  0  0  0  0
 22 24  1  0  0  0  0
 22 65  1  0  0  0  0
 23 66  1  0  0  0  0
 23 67  1  0  0  0  0
 24 68  1  0  0  0  0
 24 69  1  0  0  0  0
 26 28  1  0  0  0  0
 26 70  1  0  0  0  0
 27 29  2  0  0  0  0
 27 71  1  0  0  0  0
 28 31  2  0  0  0  0
 28 72  1  0  0  0  0
 29 31  1  0  0  0  0
 29 73  1  0  0  0  0
 30 32  2  0  0  0  0
 30 34  1  0  0  0  0
 31 75  1  0  0  0  0
 32 33  1  0  0  0  0
 32 76  1  0  0  0  0
 33 35  1  0  0  0  0
 34 77  1  0  0  0  0
 34 78  1  0  0  0  0
 34 79  1  0  0  0  0
 35 36  2  0  0  0  0
 35 37  1  0  0  0  0
 36 38  1  0  0  0  0
 36 80  1  0  0  0  0
 37 39  2  0  0  0  0
 37 81  1  0  0  0  0
 38 40  2  0  0  0  0
 38 82  1  0  0  0  0
 39 40  1  0  0  0  0
 39 83  1  0  0  0  0
 40 84  1  0  0  0  0
M  END
> <PUBCHEM_COMPOUND_CID>
516317
> <PUBCHEM_COMPOUND_CANONICALIZED>
1
> <PUBCHEM_CACTVS_COMPLEXITY>
798
> <PUBCHEM_CACTVS_HBOND_ACCEPTOR>
5
> <PUBCHEM_CACTVS_HBOND_DONOR>
1
> <PUBCHEM_CACTVS_ROTATABLE_BOND>
8
> <PUBCHEM_CACTVS_SUBSKEYS>
AAADcfB/sAAAAAAAAAAAAAAAAAAAAWLAAAA8YMEAAAAAAAAB0AAAHgAICAAADSjBngQyiJMIAgCqAyTyTACSBAAhggAY2CG4ZJgKILLA0fGE5AhkiADYyAeYyOCOgAAAAAAAAAAAAAAAAAAAAAAAAAAAAA==
> <PUBCHEM_IUPAC_OPENEYE_NAME>
(2R)-2-cyclohexyl-2-[(3S,4S)-3-[[4-(5-methyl-3-phenyl-pyrazol-1-yl)-1-piperidyl]methyl]-4-phenyl-pyrrolidin-1-yl]acetic acid
> <PUBCHEM_IUPAC_CAS_NAME>
(2R)-2-cyclohexyl-2-[(3S,4S)-3-[[4-(5-methyl-3-phenyl-1-pyrazolyl)-1-piperidinyl]methyl]-4-phenyl-1-pyrrolidinyl]acetic acid
> <PUBCHEM_IUPAC_NAME_MARKUP>
(2<I>R</I>)-2-cyclohexyl-2-[(3<I>S</I>,4<I>S</I>)-3-[[4-(5-methyl-3-phenylpyrazol-1-yl)piperidin-1-yl]methyl]-4-phenylpyrrolidin-1-yl]acetic acid
> <PUBCHEM_IUPAC_NAME>
(2R)-2-cyclohexyl-2-[(3S,4S)-3-[[4-(5-methyl-3-phenylpyrazol-1-yl)piperidin-1-yl]methyl]-4-phenylpyrrolidin-1-yl]acetic acid
> <PUBCHEM_IUPAC_SYSTEMATIC_NAME>
(2R)-2-cyclohexyl-2-[(3S,4S)-3-[[4-(5-methyl-3-phenyl-pyrazol-1-yl)piperidin-1-yl]methyl]-4-phenyl-pyrrolidin-1-yl]ethanoic acid
> <PUBCHEM_IUPAC_TRADITIONAL_NAME>
(2R)-2-cyclohexyl-2-[(3S,4S)-3-[[4-(5-methyl-3-phenyl-pyrazol-1-yl)piperidino]methyl]-4-phenyl-pyrrolidino]acetic acid
> <PUBCHEM_IUPAC_INCHI>
InChI=1S/C34H44N4O2/c1-25-21-32(27-13-7-3-8-14-27)35-38(25)30-17-19-36(20-18-30)22-29-23-37(24-31(29)26-11-5-2-6-12-26)33(34(39)40)28-15-9-4-10-16-28/h2-3,5-8,11-14,21,28-31,33H,4,9-10,15-20,22-24H2,1H3,(H,39,40)/t29-,31+,33+/m0/s1
> <PUBCHEM_IUPAC_INCHIKEY>
HZQZTHYEYWXIAQ-KCTCJIHVSA-N
> <PUBCHEM_XLOGP3_AA>
4.3
> <PUBCHEM_EXACT_MASS>
540.34642666
> <PUBCHEM_MOLECULAR_FORMULA>
C34H44N4O2
> <PUBCHEM_MOLECULAR_WEIGHT>
540.7
> <PUBCHEM_OPENEYE_CAN_SMILES>
CC1=CC(=NN1C2CCN(CC2)CC3CN(CC3C4=CC=CC=C4)C(C5CCCCC5)C(=O)O)C6=CC=CC=C6
> <PUBCHEM_OPENEYE_ISO_SMILES>
CC1=CC(=NN1C2CCN(CC2)C[C@H]3CN(C[C@@H]3C4=CC=CC=C4)[C@H](C5CCCCC5)C(=O)O)C6=CC=CC=C6
> <PUBCHEM_CACTVS_TPSA>
61.6
> <PUBCHEM_MONOISOTOPIC_WEIGHT>
540.34642666
> <PUBCHEM_TOTAL_CHARGE>
0
> <PUBCHEM_HEAVY_ATOM_COUNT>
40
> <PUBCHEM_ATOM_DEF_STEREO_COUNT>
3
> <PUBCHEM_ATOM_UDEF_STEREO_COUNT>
0
> <PUBCHEM_BOND_DEF_STEREO_COUNT>
0
> <PUBCHEM_BOND_UDEF_STEREO_COUNT>
0
> <PUBCHEM_ISOTOPIC_ATOM_COUNT>
0
> <PUBCHEM_COMPONENT_COUNT>
1
> <PUBCHEM_CACTVS_TAUTO_COUNT>
-1
> <PUBCHEM_COORDINATE_TYPE>
1
5
255
> <PUBCHEM_BONDANNOTATIONS>
11  25  6
16  26  8
16  27  8
26  28  8
27  29  8
28  31  8
29  31  8
30  32  8
32  33  8
35  36  8
35  37  8
36  38  8
37  39  8
38  40  8
39  40  8
5  30  8
5  6  8
6  33  8
7  13  6
8  16  5
$$$$
