516380
  -OEChem-10302200282D
 37 39  0     1  0  0  0  0  0999 V2000
    6.7094    0.1175    0.0000 S   0  0  0  0  0  0  0  0  0  0  0  0
    5.8772    2.5676    0.0000 O   0  0  0  0  0  0  0  0  0  0  0  0
    4.6783   -1.9783    0.0000 N   0  0  0  0  0  0  0  0  0  0  0  0
    7.3701    1.5945    0.0000 N   0  0  0  0  0  0  0  0  0  0  0  0
    8.4892    0.2077    0.0000 N   0  0  0  0  0  0  0  0  0  0  0  0
    4.9889    0.5817    0.0000 C   0  0  1  0  0  0  0  0  0  0  0  0
    5.9674    0.7879    0.0000 C   0  0  1  0  0  0  0  0  0  0  0  0
    4.6783   -0.3688    0.0000 C   0  0  0  0  0  0  0  0  0  0  0  0
    3.7320   -0.6736    0.0000 C   0  0  0  0  0  0  0  0  0  0  0  0
    4.3211    1.3260    0.0000 C   0  0  0  0  0  0  0  0  0  0  0  0
    5.2619   -1.1736    0.0000 C   0  0  0  0  0  0  0  0  0  0  0  0
    3.7320   -1.6736    0.0000 C   0  0  0  0  0  0  0  0  0  0  0  0
    6.3758    1.7007    0.0000 C   0  0  0  0  0  0  0  0  0  0  0  0
    7.5763    0.6160    0.0000 C   0  0  0  0  0  0  0  0  0  0  0  0
    2.8660   -0.1736    0.0000 C   0  0  0  0  0  0  0  0  0  0  0  0
    2.8660   -2.1736    0.0000 C   0  0  0  0  0  0  0  0  0  0  0  0
    2.0000   -0.6736    0.0000 C   0  0  0  0  0  0  0  0  0  0  0  0
    2.0000   -1.6736    0.0000 C   0  0  0  0  0  0  0  0  0  0  0  0
    9.2992    0.7941    0.0000 C   0  0  0  0  0  0  0  0  0  0  0  0
    8.5920   -0.7870    0.0000 C   0  0  0  0  0  0  0  0  0  0  0  0
    5.1815    1.1710    0.0000 H   0  0  0  0  0  0  0  0  0  0  0  0
    6.7992    0.9632    0.0000 H   0  0  0  0  0  0  0  0  0  0  0  0
    4.7826    1.7400    0.0000 H   0  0  0  0  0  0  0  0  0  0  0  0
    3.9070    1.7874    0.0000 H   0  0  0  0  0  0  0  0  0  0  0  0
    3.8596    0.9119    0.0000 H   0  0  0  0  0  0  0  0  0  0  0  0
    5.8819   -1.1736    0.0000 H   0  0  0  0  0  0  0  0  0  0  0  0
    4.8709   -2.5676    0.0000 H   0  0  0  0  0  0  0  0  0  0  0  0
    2.8660    0.4464    0.0000 H   0  0  0  0  0  0  0  0  0  0  0  0
    2.8660   -2.7936    0.0000 H   0  0  0  0  0  0  0  0  0  0  0  0
    1.4631   -0.3636    0.0000 H   0  0  0  0  0  0  0  0  0  0  0  0
    1.4631   -1.9836    0.0000 H   0  0  0  0  0  0  0  0  0  0  0  0
    9.6628    0.2918    0.0000 H   0  0  0  0  0  0  0  0  0  0  0  0
    9.8014    1.1576    0.0000 H   0  0  0  0  0  0  0  0  0  0  0  0
    8.9356    1.2963    0.0000 H   0  0  0  0  0  0  0  0  0  0  0  0
    7.9752   -0.8508    0.0000 H   0  0  0  0  0  0  0  0  0  0  0  0
    8.6557   -1.4038    0.0000 H   0  0  0  0  0  0  0  0  0  0  0  0
    9.2087   -0.7233    0.0000 H   0  0  0  0  0  0  0  0  0  0  0  0
  1  7  1  0  0  0  0
  1 14  1  0  0  0  0
  2 13  2  0  0  0  0
  3 11  1  0  0  0  0
  3 12  1  0  0  0  0
  3 27  1  0  0  0  0
  4 13  1  0  0  0  0
  4 14  2  0  0  0  0
  5 14  1  0  0  0  0
  5 19  1  0  0  0  0
  5 20  1  0  0  0  0
  6  7  1  0  0  0  0
  6  8  1  0  0  0  0
  6 10  1  1  0  0  0
  6 21  1  0  0  0  0
  7 13  1  0  0  0  0
  7 22  1  6  0  0  0
  8  9  1  0  0  0  0
  8 11  2  0  0  0  0
  9 12  1  0  0  0  0
  9 15  2  0  0  0  0
 10 23  1  0  0  0  0
 10 24  1  0  0  0  0
 10 25  1  0  0  0  0
 11 26  1  0  0  0  0
 12 16  2  0  0  0  0
 15 17  1  0  0  0  0
 15 28  1  0  0  0  0
 16 18  1  0  0  0  0
 16 29  1  0  0  0  0
 17 18  2  0  0  0  0
 17 30  1  0  0  0  0
 18 31  1  0  0  0  0
 19 32  1  0  0  0  0
 19 33  1  0  0  0  0
 19 34  1  0  0  0  0
 20 35  1  0  0  0  0
 20 36  1  0  0  0  0
 20 37  1  0  0  0  0
M  END
> <PUBCHEM_COMPOUND_CID>
516380
> <PUBCHEM_COMPOUND_CANONICALIZED>
1
> <PUBCHEM_CACTVS_COMPLEXITY>
423
> <PUBCHEM_CACTVS_HBOND_ACCEPTOR>
2
> <PUBCHEM_CACTVS_HBOND_DONOR>
1
> <PUBCHEM_CACTVS_ROTATABLE_BOND>
3
> <PUBCHEM_CACTVS_SUBSKEYS>
AAADceBzIABAAAAAAAAAAAAAAAAAAWIAAAAwAAAAAAAAAFgB8AAAHgQQAAAADQjF3gS/wPPJkAioAzV3dACCkCFxAjAJ2aE4ZJgIIPLgkZGEIAhgkADIyAcYicCOgAAAAAACAAAAAAAAAAQAAAAAAAAAAA==
> <PUBCHEM_IUPAC_OPENEYE_NAME>
(5S)-2-(dimethylamino)-5-[(1R)-1-(1H-indol-3-yl)ethyl]thiazol-4-one
> <PUBCHEM_IUPAC_CAS_NAME>
(5S)-2-(dimethylamino)-5-[(1R)-1-(1H-indol-3-yl)ethyl]-4-thiazolone
> <PUBCHEM_IUPAC_NAME_MARKUP>
(5<I>S</I>)-2-(dimethylamino)-5-[(1<I>R</I>)-1-(1<I>H</I>-indol-3-yl)ethyl]-1,3-thiazol-4-one
> <PUBCHEM_IUPAC_NAME>
(5S)-2-(dimethylamino)-5-[(1R)-1-(1H-indol-3-yl)ethyl]-1,3-thiazol-4-one
> <PUBCHEM_IUPAC_SYSTEMATIC_NAME>
(5S)-2-(dimethylamino)-5-[(1R)-1-(1H-indol-3-yl)ethyl]-1,3-thiazol-4-one
> <PUBCHEM_IUPAC_TRADITIONAL_NAME>
(5S)-2-(dimethylamino)-5-[(1R)-1-(1H-indol-3-yl)ethyl]-2-thiazolin-4-one
> <PUBCHEM_IUPAC_INCHI>
InChI=1S/C15H17N3OS/c1-9(13-14(19)17-15(20-13)18(2)3)11-8-16-12-7-5-4-6-10(11)12/h4-9,13,16H,1-3H3/t9-,13+/m1/s1
> <PUBCHEM_IUPAC_INCHIKEY>
GGLZJDHKYZZWPG-RNCFNFMXSA-N
> <PUBCHEM_XLOGP3_AA>
2.8
> <PUBCHEM_EXACT_MASS>
287.10923335
> <PUBCHEM_MOLECULAR_FORMULA>
C15H17N3OS
> <PUBCHEM_MOLECULAR_WEIGHT>
287.4
> <PUBCHEM_OPENEYE_CAN_SMILES>
CC(C1C(=O)N=C(S1)N(C)C)C2=CNC3=CC=CC=C32
> <PUBCHEM_OPENEYE_ISO_SMILES>
C[C@@H]([C@H]1C(=O)N=C(S1)N(C)C)C2=CNC3=CC=CC=C32
> <PUBCHEM_CACTVS_TPSA>
73.8
> <PUBCHEM_MONOISOTOPIC_WEIGHT>
287.10923335
> <PUBCHEM_TOTAL_CHARGE>
0
> <PUBCHEM_HEAVY_ATOM_COUNT>
20
> <PUBCHEM_ATOM_DEF_STEREO_COUNT>
2
> <PUBCHEM_ATOM_UDEF_STEREO_COUNT>
0
> <PUBCHEM_BOND_DEF_STEREO_COUNT>
0
> <PUBCHEM_BOND_UDEF_STEREO_COUNT>
0
> <PUBCHEM_ISOTOPIC_ATOM_COUNT>
0
> <PUBCHEM_COMPONENT_COUNT>
1
> <PUBCHEM_CACTVS_TAUTO_COUNT>
-1
> <PUBCHEM_COORDINATE_TYPE>
1
5
255
> <PUBCHEM_BONDANNOTATIONS>
12  16  8
15  17  8
16  18  8
17  18  8
3  11  8
3  12  8
6  10  5
7  22  6
8  11  8
8  9  8
9  12  8
9  15  8
$$$$
