516318
  -OEChem-10302200282D
180190  0     1  0  0  0  0  0999 V2000
    0.7397    4.2076    0.0000 O   0  0  0  0  0  0  0  0  0  0  0  0
   11.2038    2.9810    0.0000 O   0  0  0  0  0  0  0  0  0  0  0  0
    2.1410    3.1896    0.0000 O   0  0  0  0  0  0  0  0  0  0  0  0
   12.6051    1.9629    0.0000 O   0  0  0  0  0  0  0  0  0  0  0  0
    3.3165    4.8076    0.0000 N   0  0  3  0  0  0  0  0  0  0  0  0
   13.7807    3.5810    0.0000 N   0  0  3  0  0  0  0  0  0  0  0  0
    5.7652    6.6440    0.0000 N   0  0  0  0  0  0  0  0  0  0  0  0
   16.2294    5.4174    0.0000 N   0  0  0  0  0  0  0  0  0  0  0  0
    5.7652    9.6440    0.0000 N   0  0  0  0  0  0  0  0  0  0  0  0
   16.2294    8.4174    0.0000 N   0  0  0  0  0  0  0  0  0  0  0  0
    6.5742   10.2318    0.0000 N   0  0  0  0  0  0  0  0  0  0  0  0
   17.0384    9.0052    0.0000 N   0  0  0  0  0  0  0  0  0  0  0  0
    4.8992    5.1440    0.0000 C   0  0  2  0  0  0  0  0  0  0  0  0
   15.3633    3.9174    0.0000 C   0  0  2  0  0  0  0  0  0  0  0  0
    4.7947    4.1495    0.0000 C   0  0  2  0  0  0  0  0  0  0  0  0
   15.2588    2.9229    0.0000 C   0  0  2  0  0  0  0  0  0  0  0  0
    3.9856    5.5508    0.0000 C   0  0  0  0  0  0  0  0  0  0  0  0
   14.4498    4.3241    0.0000 C   0  0  0  0  0  0  0  0  0  0  0  0
    3.8165    3.9416    0.0000 C   0  0  0  0  0  0  0  0  0  0  0  0
   14.2807    2.7150    0.0000 C   0  0  0  0  0  0  0  0  0  0  0  0
    2.3220    4.9121    0.0000 C   0  0  2  0  0  0  0  0  0  0  0  0
   12.7861    3.6855    0.0000 C   0  0  2  0  0  0  0  0  0  0  0  0
    1.9153    5.8257    0.0000 C   0  0  0  0  0  0  0  0  0  0  0  0
   12.3794    4.5990    0.0000 C   0  0  0  0  0  0  0  0  0  0  0  0
    5.7652    5.6440    0.0000 C   0  0  0  0  0  0  0  0  0  0  0  0
   16.2294    4.4174    0.0000 C   0  0  0  0  0  0  0  0  0  0  0  0
    0.9207    5.9302    0.0000 C   0  0  0  0  0  0  0  0  0  0  0  0
    2.5030    6.6347    0.0000 C   0  0  0  0  0  0  0  0  0  0  0  0
   12.9672    5.4081    0.0000 C   0  0  0  0  0  0  0  0  0  0  0  0
   11.3849    4.7036    0.0000 C   0  0  0  0  0  0  0  0  0  0  0  0
    5.5378    3.4804    0.0000 C   0  0  0  0  0  0  0  0  0  0  0  0
   16.0019    2.2537    0.0000 C   0  0  0  0  0  0  0  0  0  0  0  0
    0.5140    6.8438    0.0000 C   0  0  0  0  0  0  0  0  0  0  0  0
    2.0963    7.5482    0.0000 C   0  0  0  0  0  0  0  0  0  0  0  0
   12.5604    6.3216    0.0000 C   0  0  0  0  0  0  0  0  0  0  0  0
   10.9781    5.6171    0.0000 C   0  0  0  0  0  0  0  0  0  0  0  0
    4.8992    7.1440    0.0000 C   0  0  0  0  0  0  0  0  0  0  0  0
    6.6312    7.1440    0.0000 C   0  0  0  0  0  0  0  0  0  0  0  0
   15.3633    5.9174    0.0000 C   0  0  0  0  0  0  0  0  0  0  0  0
   17.0954    5.9174    0.0000 C   0  0  0  0  0  0  0  0  0  0  0  0
    1.1018    7.6528    0.0000 C   0  0  0  0  0  0  0  0  0  0  0  0
   11.5659    6.4261    0.0000 C   0  0  0  0  0  0  0  0  0  0  0  0
    5.7652    8.6440    0.0000 C   0  0  0  0  0  0  0  0  0  0  0  0
   16.2294    7.4174    0.0000 C   0  0  0  0  0  0  0  0  0  0  0  0
    1.7342    4.1031    0.0000 C   0  0  0  0  0  0  0  0  0  0  0  0
   12.1983    2.8765    0.0000 C   0  0  0  0  0  0  0  0  0  0  0  0
    4.8992    8.1440    0.0000 C   0  0  0  0  0  0  0  0  0  0  0  0
    6.6312    8.1440    0.0000 C   0  0  0  0  0  0  0  0  0  0  0  0
   15.3633    6.9174    0.0000 C   0  0  0  0  0  0  0  0  0  0  0  0
   17.0954    6.9174    0.0000 C   0  0  0  0  0  0  0  0  0  0  0  0
    5.3299    2.5022    0.0000 C   0  0  0  0  0  0  0  0  0  0  0  0
    6.4889    3.7894    0.0000 C   0  0  0  0  0  0  0  0  0  0  0  0
   15.7940    1.2756    0.0000 C   0  0  0  0  0  0  0  0  0  0  0  0
   16.9530    2.5628    0.0000 C   0  0  0  0  0  0  0  0  0  0  0  0
    6.0730    1.8331    0.0000 C   0  0  0  0  0  0  0  0  0  0  0  0
    7.2320    3.1202    0.0000 C   0  0  0  0  0  0  0  0  0  0  0  0
   16.5372    0.6065    0.0000 C   0  0  0  0  0  0  0  0  0  0  0  0
   17.6961    1.8936    0.0000 C   0  0  0  0  0  0  0  0  0  0  0  0
   15.4203    9.0052    0.0000 C   0  0  0  0  0  0  0  0  0  0  0  0
    4.9562   10.2318    0.0000 C   0  0  0  0  0  0  0  0  0  0  0  0
    7.0241    2.1421    0.0000 C   0  0  0  0  0  0  0  0  0  0  0  0
   17.4882    0.9155    0.0000 C   0  0  0  0  0  0  0  0  0  0  0  0
    5.2652   11.1829    0.0000 C   0  0  0  0  0  0  0  0  0  0  0  0
   15.7294    9.9562    0.0000 C   0  0  0  0  0  0  0  0  0  0  0  0
    6.2652   11.1829    0.0000 C   0  0  0  0  0  0  0  0  0  0  0  0
   16.7294    9.9562    0.0000 C   0  0  0  0  0  0  0  0  0  0  0  0
   14.4693    8.6962    0.0000 C   0  0  0  0  0  0  0  0  0  0  0  0
    4.0052    9.9228    0.0000 C   0  0  0  0  0  0  0  0  0  0  0  0
    6.8530   11.9919    0.0000 C   0  0  0  0  0  0  0  0  0  0  0  0
   17.3171   10.7652    0.0000 C   0  0  0  0  0  0  0  0  0  0  0  0
   13.7261    9.3653    0.0000 C   0  0  0  0  0  0  0  0  0  0  0  0
    3.2620   10.5919    0.0000 C   0  0  0  0  0  0  0  0  0  0  0  0
    7.8475   11.8873    0.0000 C   0  0  0  0  0  0  0  0  0  0  0  0
   16.9104   11.6788    0.0000 C   0  0  0  0  0  0  0  0  0  0  0  0
    2.3110   10.2829    0.0000 C   0  0  0  0  0  0  0  0  0  0  0  0
    3.4699   11.5701    0.0000 C   0  0  0  0  0  0  0  0  0  0  0  0
   17.4982   12.4878    0.0000 C   0  0  0  0  0  0  0  0  0  0  0  0
   15.9159   11.7833    0.0000 C   0  0  0  0  0  0  0  0  0  0  0  0
    1.5678   10.9520    0.0000 C   0  0  0  0  0  0  0  0  0  0  0  0
    2.7268   12.2392    0.0000 C   0  0  0  0  0  0  0  0  0  0  0  0
    1.7757   11.9302    0.0000 C   0  0  0  0  0  0  0  0  0  0  0  0
   17.0914   13.4013    0.0000 C   0  0  0  0  0  0  0  0  0  0  0  0
   15.5091   12.6969    0.0000 C   0  0  0  0  0  0  0  0  0  0  0  0
   16.0969   13.5059    0.0000 C   0  0  0  0  0  0  0  0  0  0  0  0
    4.8668    5.7632    0.0000 H   0  0  0  0  0  0  0  0  0  0  0  0
   15.3309    4.5365    0.0000 H   0  0  0  0  0  0  0  0  0  0  0  0
    4.6342    3.5506    0.0000 H   0  0  0  0  0  0  0  0  0  0  0  0
   15.0983    2.3240    0.0000 H   0  0  0  0  0  0  0  0  0  0  0  0
    4.2956    6.0877    0.0000 H   0  0  0  0  0  0  0  0  0  0  0  0
    3.4841    5.9152    0.0000 H   0  0  0  0  0  0  0  0  0  0  0  0
   14.7598    4.8610    0.0000 H   0  0  0  0  0  0  0  0  0  0  0  0
   13.9482    4.6886    0.0000 H   0  0  0  0  0  0  0  0  0  0  0  0
    3.2501    3.6894    0.0000 H   0  0  0  0  0  0  0  0  0  0  0  0
    4.0081    3.3519    0.0000 H   0  0  0  0  0  0  0  0  0  0  0  0
   13.7143    2.4628    0.0000 H   0  0  0  0  0  0  0  0  0  0  0  0
   14.4722    2.1253    0.0000 H   0  0  0  0  0  0  0  0  0  0  0  0
    2.5742    4.3457    0.0000 H   0  0  0  0  0  0  0  0  0  0  0  0
   13.0383    3.1191    0.0000 H   0  0  0  0  0  0  0  0  0  0  0  0
    1.5508    5.3241    0.0000 H   0  0  0  0  0  0  0  0  0  0  0  0
   12.0150    4.0975    0.0000 H   0  0  0  0  0  0  0  0  0  0  0  0
    5.9773    5.0614    0.0000 H   0  0  0  0  0  0  0  0  0  0  0  0
    6.3758    5.7517    0.0000 H   0  0  0  0  0  0  0  0  0  0  0  0
   16.4414    3.8348    0.0000 H   0  0  0  0  0  0  0  0  0  0  0  0
   16.8399    4.5250    0.0000 H   0  0  0  0  0  0  0  0  0  0  0  0
    0.3192    5.7802    0.0000 H   0  0  0  0  0  0  0  0  0  0  0  0
    0.9640    5.3117    0.0000 H   0  0  0  0  0  0  0  0  0  0  0  0
    2.9337    6.1887    0.0000 H   0  0  0  0  0  0  0  0  0  0  0  0
    3.0170    6.9814    0.0000 H   0  0  0  0  0  0  0  0  0  0  0  0
   13.3979    4.9621    0.0000 H   0  0  0  0  0  0  0  0  0  0  0  0
   13.4812    5.7548    0.0000 H   0  0  0  0  0  0  0  0  0  0  0  0
   10.7833    4.5536    0.0000 H   0  0  0  0  0  0  0  0  0  0  0  0
   11.4281    4.0851    0.0000 H   0  0  0  0  0  0  0  0  0  0  0  0
    0.0833    7.2897    0.0000 H   0  0  0  0  0  0  0  0  0  0  0  0
    0.0000    6.4970    0.0000 H   0  0  0  0  0  0  0  0  0  0  0  0
    2.6979    7.6982    0.0000 H   0  0  0  0  0  0  0  0  0  0  0  0
    2.0531    8.1667    0.0000 H   0  0  0  0  0  0  0  0  0  0  0  0
   13.1620    6.4716    0.0000 H   0  0  0  0  0  0  0  0  0  0  0  0
   12.5172    6.9401    0.0000 H   0  0  0  0  0  0  0  0  0  0  0  0
   10.5474    6.0631    0.0000 H   0  0  0  0  0  0  0  0  0  0  0  0
   10.4641    5.2704    0.0000 H   0  0  0  0  0  0  0  0  0  0  0  0
    4.2886    7.2517    0.0000 H   0  0  0  0  0  0  0  0  0  0  0  0
    4.6871    6.5614    0.0000 H   0  0  0  0  0  0  0  0  0  0  0  0
    6.8433    6.5614    0.0000 H   0  0  0  0  0  0  0  0  0  0  0  0
    7.2418    7.2517    0.0000 H   0  0  0  0  0  0  0  0  0  0  0  0
   14.7527    6.0250    0.0000 H   0  0  0  0  0  0  0  0  0  0  0  0
   15.1513    5.3348    0.0000 H   0  0  0  0  0  0  0  0  0  0  0  0
   17.3074    5.3348    0.0000 H   0  0  0  0  0  0  0  0  0  0  0  0
   17.7060    6.0250    0.0000 H   0  0  0  0  0  0  0  0  0  0  0  0
    1.2727    8.2488    0.0000 H   0  0  0  0  0  0  0  0  0  0  0  0
    0.5445    7.9246    0.0000 H   0  0  0  0  0  0  0  0  0  0  0  0
   11.7368    7.0221    0.0000 H   0  0  0  0  0  0  0  0  0  0  0  0
   11.0087    6.6979    0.0000 H   0  0  0  0  0  0  0  0  0  0  0  0
    6.3022    8.9540    0.0000 H   0  0  0  0  0  0  0  0  0  0  0  0
   16.7663    7.7274    0.0000 H   0  0  0  0  0  0  0  0  0  0  0  0
    4.6871    8.7266    0.0000 H   0  0  0  0  0  0  0  0  0  0  0  0
    4.2886    8.0364    0.0000 H   0  0  0  0  0  0  0  0  0  0  0  0
    7.2418    8.0364    0.0000 H   0  0  0  0  0  0  0  0  0  0  0  0
    6.8433    8.7266    0.0000 H   0  0  0  0  0  0  0  0  0  0  0  0
   15.1513    7.5000    0.0000 H   0  0  0  0  0  0  0  0  0  0  0  0
   14.7527    6.8097    0.0000 H   0  0  0  0  0  0  0  0  0  0  0  0
   17.7060    6.8097    0.0000 H   0  0  0  0  0  0  0  0  0  0  0  0
   17.3074    7.5000    0.0000 H   0  0  0  0  0  0  0  0  0  0  0  0
    4.7402    2.3106    0.0000 H   0  0  0  0  0  0  0  0  0  0  0  0
    6.6178    4.3958    0.0000 H   0  0  0  0  0  0  0  0  0  0  0  0
   15.2044    1.0840    0.0000 H   0  0  0  0  0  0  0  0  0  0  0  0
   17.0819    3.1692    0.0000 H   0  0  0  0  0  0  0  0  0  0  0  0
    5.9441    1.2266    0.0000 H   0  0  0  0  0  0  0  0  0  0  0  0
    7.8217    3.3118    0.0000 H   0  0  0  0  0  0  0  0  0  0  0  0
   16.4083    0.0000    0.0000 H   0  0  0  0  0  0  0  0  0  0  0  0
   18.2858    2.0852    0.0000 H   0  0  0  0  0  0  0  0  0  0  0  0
    0.3753    3.7061    0.0000 H   0  0  0  0  0  0  0  0  0  0  0  0
   10.8394    2.4794    0.0000 H   0  0  0  0  0  0  0  0  0  0  0  0
    7.4848    1.7272    0.0000 H   0  0  0  0  0  0  0  0  0  0  0  0
   17.9490    0.5006    0.0000 H   0  0  0  0  0  0  0  0  0  0  0  0
    4.9008   11.6844    0.0000 H   0  0  0  0  0  0  0  0  0  0  0  0
   15.3649   10.4578    0.0000 H   0  0  0  0  0  0  0  0  0  0  0  0
   13.9807    8.3144    0.0000 H   0  0  0  0  0  0  0  0  0  0  0  0
   14.7604    8.1487    0.0000 H   0  0  0  0  0  0  0  0  0  0  0  0
    3.5166    9.5411    0.0000 H   0  0  0  0  0  0  0  0  0  0  0  0
    4.2962    9.3753    0.0000 H   0  0  0  0  0  0  0  0  0  0  0  0
    7.0239   12.5879    0.0000 H   0  0  0  0  0  0  0  0  0  0  0  0
    6.2958   12.2637    0.0000 H   0  0  0  0  0  0  0  0  0  0  0  0
   17.7478   10.3193    0.0000 H   0  0  0  0  0  0  0  0  0  0  0  0
   17.8311   11.1119    0.0000 H   0  0  0  0  0  0  0  0  0  0  0  0
   14.1410    9.8260    0.0000 H   0  0  0  0  0  0  0  0  0  0  0  0
   13.2654    9.7801    0.0000 H   0  0  0  0  0  0  0  0  0  0  0  0
   13.3113    8.9045    0.0000 H   0  0  0  0  0  0  0  0  0  0  0  0
    7.7827   11.2707    0.0000 H   0  0  0  0  0  0  0  0  0  0  0  0
    8.4641   11.8225    0.0000 H   0  0  0  0  0  0  0  0  0  0  0  0
    7.9123   12.5039    0.0000 H   0  0  0  0  0  0  0  0  0  0  0  0
    2.1820    9.6765    0.0000 H   0  0  0  0  0  0  0  0  0  0  0  0
    4.0596   11.7617    0.0000 H   0  0  0  0  0  0  0  0  0  0  0  0
   18.1148   12.4230    0.0000 H   0  0  0  0  0  0  0  0  0  0  0  0
   15.5515   11.2817    0.0000 H   0  0  0  0  0  0  0  0  0  0  0  0
    0.9781   10.7604    0.0000 H   0  0  0  0  0  0  0  0  0  0  0  0
    2.8557   12.8456    0.0000 H   0  0  0  0  0  0  0  0  0  0  0  0
    1.3150   12.3450    0.0000 H   0  0  0  0  0  0  0  0  0  0  0  0
   17.4559   13.9029    0.0000 H   0  0  0  0  0  0  0  0  0  0  0  0
   14.8925   12.7617    0.0000 H   0  0  0  0  0  0  0  0  0  0  0  0
   15.8448   14.0723    0.0000 H   0  0  0  0  0  0  0  0  0  0  0  0
  1 45  1  0  0  0  0
  1151  1  0  0  0  0
  2 46  1  0  0  0  0
  2152  1  0  0  0  0
  3 45  2  0  0  0  0
  4 46  2  0  0  0  0
  5 17  1  0  0  0  0
  5 19  1  0  0  0  0
  5 21  1  0  0  0  0
  6 18  1  0  0  0  0
  6 20  1  0  0  0  0
  6 22  1  0  0  0  0
  7 25  1  0  0  0  0
  7 37  1  0  0  0  0
  7 38  1  0  0  0  0
  8 26  1  0  0  0  0
  8 39  1  0  0  0  0
  8 40  1  0  0  0  0
  9 11  1  0  0  0  0
  9 43  1  0  0  0  0
  9 60  1  0  0  0  0
 10 12  1  0  0  0  0
 10 44  1  0  0  0  0
 10 59  1  0  0  0  0
 11 65  2  0  0  0  0
 12 66  2  0  0  0  0
 13 15  1  0  0  0  0
 13 17  1  0  0  0  0
 13 25  1  6  0  0  0
 13 85  1  0  0  0  0
 14 16  1  0  0  0  0
 14 18  1  0  0  0  0
 14 26  1  6  0  0  0
 14 86  1  0  0  0  0
 15 19  1  0  0  0  0
 15 31  1  1  0  0  0
 15 87  1  0  0  0  0
 16 20  1  0  0  0  0
 16 32  1  1  0  0  0
 16 88  1  0  0  0  0
 17 89  1  0  0  0  0
 17 90  1  0  0  0  0
 18 91  1  0  0  0  0
 18 92  1  0  0  0  0
 19 93  1  0  0  0  0
 19 94  1  0  0  0  0
 20 95  1  0  0  0  0
 20 96  1  0  0  0  0
 21 23  1  0  0  0  0
 21 45  1  1  0  0  0
 21 97  1  0  0  0  0
 22 24  1  0  0  0  0
 22 46  1  1  0  0  0
 22 98  1  0  0  0  0
 23 27  1  0  0  0  0
 23 28  1  0  0  0  0
 23 99  1  0  0  0  0
 24 29  1  0  0  0  0
 24 30  1  0  0  0  0
 24100  1  0  0  0  0
 25101  1  0  0  0  0
 25102  1  0  0  0  0
 26103  1  0  0  0  0
 26104  1  0  0  0  0
 27 33  1  0  0  0  0
 27105  1  0  0  0  0
 27106  1  0  0  0  0
 28 34  1  0  0  0  0
 28107  1  0  0  0  0
 28108  1  0  0  0  0
 29 35  1  0  0  0  0
 29109  1  0  0  0  0
 29110  1  0  0  0  0
 30 36  1  0  0  0  0
 30111  1  0  0  0  0
 30112  1  0  0  0  0
 31 51  2  0  0  0  0
 31 52  1  0  0  0  0
 32 53  2  0  0  0  0
 32 54  1  0  0  0  0
 33 41  1  0  0  0  0
 33113  1  0  0  0  0
 33114  1  0  0  0  0
 34 41  1  0  0  0  0
 34115  1  0  0  0  0
 34116  1  0  0  0  0
 35 42  1  0  0  0  0
 35117  1  0  0  0  0
 35118  1  0  0  0  0
 36 42  1  0  0  0  0
 36119  1  0  0  0  0
 36120  1  0  0  0  0
 37 47  1  0  0  0  0
 37121  1  0  0  0  0
 37122  1  0  0  0  0
 38 48  1  0  0  0  0
 38123  1  0  0  0  0
 38124  1  0  0  0  0
 39 49  1  0  0  0  0
 39125  1  0  0  0  0
 39126  1  0  0  0  0
 40 50  1  0  0  0  0
 40127  1  0  0  0  0
 40128  1  0  0  0  0
 41129  1  0  0  0  0
 41130  1  0  0  0  0
 42131  1  0  0  0  0
 42132  1  0  0  0  0
 43 47  1  0  0  0  0
 43 48  1  0  0  0  0
 43133  1  0  0  0  0
 44 49  1  0  0  0  0
 44 50  1  0  0  0  0
 44134  1  0  0  0  0
 47135  1  0  0  0  0
 47136  1  0  0  0  0
 48137  1  0  0  0  0
 48138  1  0  0  0  0
 49139  1  0  0  0  0
 49140  1  0  0  0  0
 50141  1  0  0  0  0
 50142  1  0  0  0  0
 51 55  1  0  0  0  0
 51143  1  0  0  0  0
 52 56  2  0  0  0  0
 52144  1  0  0  0  0
 53 57  1  0  0  0  0
 53145  1  0  0  0  0
 54 58  2  0  0  0  0
 54146  1  0  0  0  0
 55 61  2  0  0  0  0
 55147  1  0  0  0  0
 56 61  1  0  0  0  0
 56148  1  0  0  0  0
 57 62  2  0  0  0  0
 57149  1  0  0  0  0
 58 62  1  0  0  0  0
 58150  1  0  0  0  0
 59 64  2  0  0  0  0
 59 67  1  0  0  0  0
 60 63  2  0  0  0  0
 60 68  1  0  0  0  0
 61153  1  0  0  0  0
 62154  1  0  0  0  0
 63 65  1  0  0  0  0
 63155  1  0  0  0  0
 64 66  1  0  0  0  0
 64156  1  0  0  0  0
 65 69  1  0  0  0  0
 66 70  1  0  0  0  0
 67 71  1  0  0  0  0
 67157  1  0  0  0  0
 67158  1  0  0  0  0
 68 72  1  0  0  0  0
 68159  1  0  0  0  0
 68160  1  0  0  0  0
 69 73  1  0  0  0  0
 69161  1  0  0  0  0
 69162  1  0  0  0  0
 70 74  1  0  0  0  0
 70163  1  0  0  0  0
 70164  1  0  0  0  0
 71165  1  0  0  0  0
 71166  1  0  0  0  0
 71167  1  0  0  0  0
 72 75  2  0  0  0  0
 72 76  1  0  0  0  0
 73168  1  0  0  0  0
 73169  1  0  0  0  0
 73170  1  0  0  0  0
 74 77  2  0  0  0  0
 74 78  1  0  0  0  0
 75 79  1  0  0  0  0
 75171  1  0  0  0  0
 76 80  2  0  0  0  0
 76172  1  0  0  0  0
 77 82  1  0  0  0  0
 77173  1  0  0  0  0
 78 83  2  0  0  0  0
 78174  1  0  0  0  0
 79 81  2  0  0  0  0
 79175  1  0  0  0  0
 80 81  1  0  0  0  0
 80176  1  0  0  0  0
 81177  1  0  0  0  0
 82 84  2  0  0  0  0
 82178  1  0  0  0  0
 83 84  1  0  0  0  0
 83179  1  0  0  0  0
 84180  1  0  0  0  0
M  END
> <PUBCHEM_COMPOUND_CID>
516318
> <PUBCHEM_COMPOUND_CANONICALIZED>
1
> <PUBCHEM_CACTVS_COMPLEXITY>
1660
> <PUBCHEM_CACTVS_HBOND_ACCEPTOR>
10
> <PUBCHEM_CACTVS_HBOND_DONOR>
2
> <PUBCHEM_CACTVS_ROTATABLE_BOND>
20
> <PUBCHEM_CACTVS_SUBSKEYS>
AAADcfB/+AAAAAAAAAAAAAAAAAAAAWLFiwA8eMGDAAAAAAAB9AAAHgAICAAADSjBngQyiJMIAgCqAyTyTACSBAAhggAY2CG4ZJgKIDLA0fGE5AhkiADYyAeYyOCOgAAAAAAAAAAAAAAAAAAAAAAAAAAAAA==
> <PUBCHEM_IUPAC_OPENEYE_NAME>
(2R)-2-[(3S,4S)-3-[[4-(3-benzyl-5-ethyl-pyrazol-1-yl)-1-piperidyl]methyl]-4-phenyl-pyrrolidin-1-yl]-2-cyclohexyl-acetic acid;(2R)-2-[(3S,4S)-3-[[4-(5-benzyl-3-ethyl-pyrazol-1-yl)-1-piperidyl]methyl]-4-phenyl-pyrrolidin-1-yl]-2-cyclohexyl-acetic acid
> <PUBCHEM_IUPAC_CAS_NAME>
(2R)-2-cyclohexyl-2-[(3S,4S)-3-[[4-[3-ethyl-5-(phenylmethyl)-1-pyrazolyl]-1-piperidinyl]methyl]-4-phenyl-1-pyrrolidinyl]acetic acid;(2R)-2-cyclohexyl-2-[(3S,4S)-3-[[4-[5-ethyl-3-(phenylmethyl)-1-pyrazolyl]-1-piperidinyl]methyl]-4-phenyl-1-pyrrolidinyl]acetic acid
> <PUBCHEM_IUPAC_NAME_MARKUP>
(2<I>R</I>)-2-[(3<I>S</I>,4<I>S</I>)-3-[[4-(3-benzyl-5-ethylpyrazol-1-yl)piperidin-1-yl]methyl]-4-phenylpyrrolidin-1-yl]-2-cyclohexylacetic acid;(2<I>R</I>)-2-[(3<I>S</I>,4<I>S</I>)-3-[[4-(5-benzyl-3-ethylpyrazol-1-yl)piperidin-1-yl]methyl]-4-phenylpyrrolidin-1-yl]-2-cyclohexylacetic acid
> <PUBCHEM_IUPAC_NAME>
(2R)-2-[(3S,4S)-3-[[4-(3-benzyl-5-ethylpyrazol-1-yl)piperidin-1-yl]methyl]-4-phenylpyrrolidin-1-yl]-2-cyclohexylacetic acid;(2R)-2-[(3S,4S)-3-[[4-(5-benzyl-3-ethylpyrazol-1-yl)piperidin-1-yl]methyl]-4-phenylpyrrolidin-1-yl]-2-cyclohexylacetic acid
> <PUBCHEM_IUPAC_SYSTEMATIC_NAME>
(2R)-2-cyclohexyl-2-[(3S,4S)-3-[[4-[3-ethyl-5-(phenylmethyl)pyrazol-1-yl]piperidin-1-yl]methyl]-4-phenyl-pyrrolidin-1-yl]ethanoic acid;(2R)-2-cyclohexyl-2-[(3S,4S)-3-[[4-[5-ethyl-3-(phenylmethyl)pyrazol-1-yl]piperidin-1-yl]methyl]-4-phenyl-pyrrolidin-1-yl]ethanoic acid
> <PUBCHEM_IUPAC_TRADITIONAL_NAME>
(2R)-2-[(3S,4S)-3-[[4-(3-benzyl-5-ethyl-pyrazol-1-yl)piperidino]methyl]-4-phenyl-pyrrolidino]-2-cyclohexyl-acetic acid;(2R)-2-[(3S,4S)-3-[[4-(5-benzyl-3-ethyl-pyrazol-1-yl)piperidino]methyl]-4-phenyl-pyrrolidino]-2-cyclohexyl-acetic acid
> <PUBCHEM_IUPAC_INCHI>
InChI=1S/2C36H48N4O2/c1-2-32-23-31(22-27-12-6-3-7-13-27)37-40(32)33-18-20-38(21-19-33)24-30-25-39(26-34(30)28-14-8-4-9-15-28)35(36(41)42)29-16-10-5-11-17-29;1-2-31-23-33(22-27-12-6-3-7-13-27)40(37-31)32-18-20-38(21-19-32)24-30-25-39(26-34(30)28-14-8-4-9-15-28)35(36(41)42)29-16-10-5-11-17-29/h3-4,6-9,12-15,23,29-30,33-35H,2,5,10-11,16-22,24-26H2,1H3,(H,41,42);3-4,6-9,12-15,23,29-30,32,34-35H,2,5,10-11,16-22,24-26H2,1H3,(H,41,42)/t2*30-,34+,35+/m00/s1
> <PUBCHEM_IUPAC_INCHIKEY>
ASCAXQDAFITXCR-XCRYWZOUSA-N
> <PUBCHEM_EXACT_MASS>
1136.75545357
> <PUBCHEM_MOLECULAR_FORMULA>
C72H96N8O4
> <PUBCHEM_MOLECULAR_WEIGHT>
1137.6
> <PUBCHEM_OPENEYE_CAN_SMILES>
CCC1=CC(=NN1C2CCN(CC2)CC3CN(CC3C4=CC=CC=C4)C(C5CCCCC5)C(=O)O)CC6=CC=CC=C6.CCC1=NN(C(=C1)CC2=CC=CC=C2)C3CCN(CC3)CC4CN(CC4C5=CC=CC=C5)C(C6CCCCC6)C(=O)O
> <PUBCHEM_OPENEYE_ISO_SMILES>
CCC1=CC(=NN1C2CCN(CC2)C[C@H]3CN(C[C@@H]3C4=CC=CC=C4)[C@H](C5CCCCC5)C(=O)O)CC6=CC=CC=C6.CCC1=NN(C(=C1)CC2=CC=CC=C2)C3CCN(CC3)C[C@H]4CN(C[C@@H]4C5=CC=CC=C5)[C@H](C6CCCCC6)C(=O)O
> <PUBCHEM_CACTVS_TPSA>
123
> <PUBCHEM_MONOISOTOPIC_WEIGHT>
1136.75545357
> <PUBCHEM_TOTAL_CHARGE>
0
> <PUBCHEM_HEAVY_ATOM_COUNT>
84
> <PUBCHEM_ATOM_DEF_STEREO_COUNT>
6
> <PUBCHEM_ATOM_UDEF_STEREO_COUNT>
0
> <PUBCHEM_BOND_DEF_STEREO_COUNT>
0
> <PUBCHEM_BOND_UDEF_STEREO_COUNT>
0
> <PUBCHEM_ISOTOPIC_ATOM_COUNT>
0
> <PUBCHEM_COMPONENT_COUNT>
2
> <PUBCHEM_CACTVS_TAUTO_COUNT>
-1
> <PUBCHEM_COORDINATE_TYPE>
1
5
255
> <PUBCHEM_BONDANNOTATIONS>
10  12  8
10  59  8
11  65  8
12  66  8
13  25  6
14  26  6
15  31  5
16  32  5
21  45  5
22  46  5
31  51  8
31  52  8
32  53  8
32  54  8
51  55  8
52  56  8
53  57  8
54  58  8
55  61  8
56  61  8
57  62  8
58  62  8
59  64  8
60  63  8
63  65  8
64  66  8
72  75  8
72  76  8
74  77  8
74  78  8
75  79  8
76  80  8
77  82  8
78  83  8
79  81  8
80  81  8
82  84  8
83  84  8
9  11  8
9  60  8
$$$$
