516328
  -OEChem-10302200282D
 96101  0     1  0  0  0  0  0999 V2000
    2.3644   -4.0752    0.0000 O   0  0  0  0  0  0  0  0  0  0  0  0
    3.7657   -5.0932    0.0000 O   0  0  0  0  0  0  0  0  0  0  0  0
    4.9413   -3.4752    0.0000 N   0  0  3  0  0  0  0  0  0  0  0  0
    7.3900   -1.6388    0.0000 N   0  0  0  0  0  0  0  0  0  0  0  0
    6.5809    1.9490    0.0000 N   0  0  0  0  0  0  0  0  0  0  0  0
    6.8900    2.9001    0.0000 N   0  0  0  0  0  0  0  0  0  0  0  0
    6.5239   -3.1388    0.0000 C   0  0  2  0  0  0  0  0  0  0  0  0
    6.4194   -4.1333    0.0000 C   0  0  2  0  0  0  0  0  0  0  0  0
    5.6104   -2.7320    0.0000 C   0  0  0  0  0  0  0  0  0  0  0  0
    5.4413   -4.3412    0.0000 C   0  0  0  0  0  0  0  0  0  0  0  0
    3.9467   -3.3707    0.0000 C   0  0  2  0  0  0  0  0  0  0  0  0
    3.5400   -2.4571    0.0000 C   0  0  0  0  0  0  0  0  0  0  0  0
    7.3900   -2.6388    0.0000 C   0  0  0  0  0  0  0  0  0  0  0  0
    2.5455   -2.3526    0.0000 C   0  0  0  0  0  0  0  0  0  0  0  0
    4.1278   -1.6481    0.0000 C   0  0  0  0  0  0  0  0  0  0  0  0
    7.1626   -4.8024    0.0000 C   0  0  0  0  0  0  0  0  0  0  0  0
    6.5239   -1.1388    0.0000 C   0  0  0  0  0  0  0  0  0  0  0  0
    8.2560   -1.1388    0.0000 C   0  0  0  0  0  0  0  0  0  0  0  0
    2.1387   -1.4390    0.0000 C   0  0  0  0  0  0  0  0  0  0  0  0
    3.7210   -0.7346    0.0000 C   0  0  0  0  0  0  0  0  0  0  0  0
    7.3900    0.3612    0.0000 C   0  0  0  0  0  0  0  0  0  0  0  0
    2.7265   -0.6300    0.0000 C   0  0  0  0  0  0  0  0  0  0  0  0
    6.5239   -0.1388    0.0000 C   0  0  0  0  0  0  0  0  0  0  0  0
    8.2560   -0.1388    0.0000 C   0  0  0  0  0  0  0  0  0  0  0  0
    3.3590   -4.1797    0.0000 C   0  0  0  0  0  0  0  0  0  0  0  0
    8.1136   -4.4934    0.0000 C   0  0  0  0  0  0  0  0  0  0  0  0
    6.9546   -5.7806    0.0000 C   0  0  0  0  0  0  0  0  0  0  0  0
    7.3900    1.3612    0.0000 C   0  0  0  0  0  0  0  0  0  0  0  0
    8.8568   -5.1626    0.0000 C   0  0  0  0  0  0  0  0  0  0  0  0
    7.6978   -6.4497    0.0000 C   0  0  0  0  0  0  0  0  0  0  0  0
    8.1990    1.9490    0.0000 C   0  0  0  0  0  0  0  0  0  0  0  0
    8.6488   -6.1407    0.0000 C   0  0  0  0  0  0  0  0  0  0  0  0
    5.6299    1.6400    0.0000 C   0  0  0  0  0  0  0  0  0  0  0  0
    7.8900    2.9001    0.0000 C   0  0  0  0  0  0  0  0  0  0  0  0
    4.8867    2.3091    0.0000 C   0  0  0  0  0  0  0  0  0  0  0  0
    8.4777    3.7091    0.0000 C   0  0  0  0  0  0  0  0  0  0  0  0
    3.9357    2.0001    0.0000 C   0  0  0  0  0  0  0  0  0  0  0  0
    8.0710    4.6226    0.0000 C   0  0  0  0  0  0  0  0  0  0  0  0
    3.1925    2.6692    0.0000 C   0  0  0  0  0  0  0  0  0  0  0  0
    7.0765    4.7272    0.0000 C   0  0  0  0  0  0  0  0  0  0  0  0
    8.6588    5.4316    0.0000 C   0  0  0  0  0  0  0  0  0  0  0  0
    6.6698    5.6407    0.0000 C   0  0  0  0  0  0  0  0  0  0  0  0
    8.2520    6.3452    0.0000 C   0  0  0  0  0  0  0  0  0  0  0  0
    7.2575    6.4497    0.0000 C   0  0  0  0  0  0  0  0  0  0  0  0
    6.4915   -2.5196    0.0000 H   0  0  0  0  0  0  0  0  0  0  0  0
    6.2589   -4.7322    0.0000 H   0  0  0  0  0  0  0  0  0  0  0  0
    5.9204   -2.1951    0.0000 H   0  0  0  0  0  0  0  0  0  0  0  0
    5.1088   -2.3676    0.0000 H   0  0  0  0  0  0  0  0  0  0  0  0
    4.8749   -4.5934    0.0000 H   0  0  0  0  0  0  0  0  0  0  0  0
    5.6328   -4.9309    0.0000 H   0  0  0  0  0  0  0  0  0  0  0  0
    4.1989   -3.9371    0.0000 H   0  0  0  0  0  0  0  0  0  0  0  0
    3.1756   -2.9587    0.0000 H   0  0  0  0  0  0  0  0  0  0  0  0
    7.6020   -3.2214    0.0000 H   0  0  0  0  0  0  0  0  0  0  0  0
    8.0005   -2.5311    0.0000 H   0  0  0  0  0  0  0  0  0  0  0  0
    1.9439   -2.5026    0.0000 H   0  0  0  0  0  0  0  0  0  0  0  0
    2.5887   -2.9711    0.0000 H   0  0  0  0  0  0  0  0  0  0  0  0
    4.5585   -2.0941    0.0000 H   0  0  0  0  0  0  0  0  0  0  0  0
    4.6418   -1.3014    0.0000 H   0  0  0  0  0  0  0  0  0  0  0  0
    5.9134   -1.0311    0.0000 H   0  0  0  0  0  0  0  0  0  0  0  0
    6.3119   -1.7214    0.0000 H   0  0  0  0  0  0  0  0  0  0  0  0
    8.4680   -1.7214    0.0000 H   0  0  0  0  0  0  0  0  0  0  0  0
    8.8666   -1.0311    0.0000 H   0  0  0  0  0  0  0  0  0  0  0  0
    1.7080   -0.9931    0.0000 H   0  0  0  0  0  0  0  0  0  0  0  0
    1.6247   -1.7857    0.0000 H   0  0  0  0  0  0  0  0  0  0  0  0
    4.3226   -0.5846    0.0000 H   0  0  0  0  0  0  0  0  0  0  0  0
    3.6778   -0.1161    0.0000 H   0  0  0  0  0  0  0  0  0  0  0  0
    7.9269    0.6712    0.0000 H   0  0  0  0  0  0  0  0  0  0  0  0
    2.8974   -0.0340    0.0000 H   0  0  0  0  0  0  0  0  0  0  0  0
    2.1693   -0.3582    0.0000 H   0  0  0  0  0  0  0  0  0  0  0  0
    6.3119    0.4438    0.0000 H   0  0  0  0  0  0  0  0  0  0  0  0
    5.9134   -0.2464    0.0000 H   0  0  0  0  0  0  0  0  0  0  0  0
    8.8666   -0.2464    0.0000 H   0  0  0  0  0  0  0  0  0  0  0  0
    8.4680    0.4438    0.0000 H   0  0  0  0  0  0  0  0  0  0  0  0
    8.2425   -3.8870    0.0000 H   0  0  0  0  0  0  0  0  0  0  0  0
    6.3650   -5.9722    0.0000 H   0  0  0  0  0  0  0  0  0  0  0  0
    9.4464   -4.9710    0.0000 H   0  0  0  0  0  0  0  0  0  0  0  0
    7.5689   -7.0562    0.0000 H   0  0  0  0  0  0  0  0  0  0  0  0
    2.0000   -4.5767    0.0000 H   0  0  0  0  0  0  0  0  0  0  0  0
    8.7886    1.7574    0.0000 H   0  0  0  0  0  0  0  0  0  0  0  0
    9.1096   -6.5556    0.0000 H   0  0  0  0  0  0  0  0  0  0  0  0
    5.1413    1.2583    0.0000 H   0  0  0  0  0  0  0  0  0  0  0  0
    5.9210    1.0926    0.0000 H   0  0  0  0  0  0  0  0  0  0  0  0
    5.3753    2.6908    0.0000 H   0  0  0  0  0  0  0  0  0  0  0  0
    4.5957    2.8565    0.0000 H   0  0  0  0  0  0  0  0  0  0  0  0
    8.9084    3.2631    0.0000 H   0  0  0  0  0  0  0  0  0  0  0  0
    8.9918    4.0558    0.0000 H   0  0  0  0  0  0  0  0  0  0  0  0
    3.4471    1.6184    0.0000 H   0  0  0  0  0  0  0  0  0  0  0  0
    4.2268    1.4527    0.0000 H   0  0  0  0  0  0  0  0  0  0  0  0
    3.6074    3.1300    0.0000 H   0  0  0  0  0  0  0  0  0  0  0  0
    2.7318    3.0841    0.0000 H   0  0  0  0  0  0  0  0  0  0  0  0
    2.7777    2.2085    0.0000 H   0  0  0  0  0  0  0  0  0  0  0  0
    6.7121    4.2256    0.0000 H   0  0  0  0  0  0  0  0  0  0  0  0
    9.2754    5.3668    0.0000 H   0  0  0  0  0  0  0  0  0  0  0  0
    6.0531    5.7055    0.0000 H   0  0  0  0  0  0  0  0  0  0  0  0
    8.6165    6.8468    0.0000 H   0  0  0  0  0  0  0  0  0  0  0  0
    7.0054    7.0161    0.0000 H   0  0  0  0  0  0  0  0  0  0  0  0
  1 25  1  0  0  0  0
  1 78  1  0  0  0  0
  2 25  2  0  0  0  0
  3  9  1  0  0  0  0
  3 10  1  0  0  0  0
  3 11  1  0  0  0  0
  4 13  1  0  0  0  0
  4 17  1  0  0  0  0
  4 18  1  0  0  0  0
  5  6  1  0  0  0  0
  5 28  1  0  0  0  0
  5 33  1  0  0  0  0
  6 34  2  0  0  0  0
  7  8  1  0  0  0  0
  7  9  1  0  0  0  0
  7 13  1  6  0  0  0
  7 45  1  0  0  0  0
  8 10  1  0  0  0  0
  8 16  1  1  0  0  0
  8 46  1  0  0  0  0
  9 47  1  0  0  0  0
  9 48  1  0  0  0  0
 10 49  1  0  0  0  0
 10 50  1  0  0  0  0
 11 12  1  0  0  0  0
 11 25  1  1  0  0  0
 11 51  1  0  0  0  0
 12 14  1  0  0  0  0
 12 15  1  0  0  0  0
 12 52  1  0  0  0  0
 13 53  1  0  0  0  0
 13 54  1  0  0  0  0
 14 19  1  0  0  0  0
 14 55  1  0  0  0  0
 14 56  1  0  0  0  0
 15 20  1  0  0  0  0
 15 57  1  0  0  0  0
 15 58  1  0  0  0  0
 16 26  2  0  0  0  0
 16 27  1  0  0  0  0
 17 23  1  0  0  0  0
 17 59  1  0  0  0  0
 17 60  1  0  0  0  0
 18 24  1  0  0  0  0
 18 61  1  0  0  0  0
 18 62  1  0  0  0  0
 19 22  1  0  0  0  0
 19 63  1  0  0  0  0
 19 64  1  0  0  0  0
 20 22  1  0  0  0  0
 20 65  1  0  0  0  0
 20 66  1  0  0  0  0
 21 23  1  0  0  0  0
 21 24  1  0  0  0  0
 21 28  1  0  0  0  0
 21 67  1  0  0  0  0
 22 68  1  0  0  0  0
 22 69  1  0  0  0  0
 23 70  1  0  0  0  0
 23 71  1  0  0  0  0
 24 72  1  0  0  0  0
 24 73  1  0  0  0  0
 26 29  1  0  0  0  0
 26 74  1  0  0  0  0
 27 30  2  0  0  0  0
 27 75  1  0  0  0  0
 28 31  2  0  0  0  0
 29 32  2  0  0  0  0
 29 76  1  0  0  0  0
 30 32  1  0  0  0  0
 30 77  1  0  0  0  0
 31 34  1  0  0  0  0
 31 79  1  0  0  0  0
 32 80  1  0  0  0  0
 33 35  1  0  0  0  0
 33 81  1  0  0  0  0
 33 82  1  0  0  0  0
 34 36  1  0  0  0  0
 35 37  1  0  0  0  0
 35 83  1  0  0  0  0
 35 84  1  0  0  0  0
 36 38  1  0  0  0  0
 36 85  1  0  0  0  0
 36 86  1  0  0  0  0
 37 39  1  0  0  0  0
 37 87  1  0  0  0  0
 37 88  1  0  0  0  0
 38 40  2  0  0  0  0
 38 41  1  0  0  0  0
 39 89  1  0  0  0  0
 39 90  1  0  0  0  0
 39 91  1  0  0  0  0
 40 42  1  0  0  0  0
 40 92  1  0  0  0  0
 41 43  2  0  0  0  0
 41 93  1  0  0  0  0
 42 44  2  0  0  0  0
 42 94  1  0  0  0  0
 43 44  1  0  0  0  0
 43 95  1  0  0  0  0
 44 96  1  0  0  0  0
M  END
> <PUBCHEM_COMPOUND_CID>
516328
> <PUBCHEM_COMPOUND_CANONICALIZED>
1
> <PUBCHEM_CACTVS_COMPLEXITY>
859
> <PUBCHEM_CACTVS_HBOND_ACCEPTOR>
5
> <PUBCHEM_CACTVS_HBOND_DONOR>
1
> <PUBCHEM_CACTVS_ROTATABLE_BOND>
12
> <PUBCHEM_CACTVS_SUBSKEYS>
AAADcfB/sAAAAAAAAAAAAAAAAAAAAWLAAAA8YMEAAAAAAAAB0AAAHgAICAAADSjBngQyiJMIAgCqAyTyTACSBAAhggAY2CG4ZJgKIDLA0fGE5AhkiADYyAeYyOCOgAAAAAAAAAAAAAAAAAAAAAAAAAAAAA==
> <PUBCHEM_IUPAC_OPENEYE_NAME>
(2R)-2-[(3S,4S)-3-[[4-(5-benzyl-2-butyl-pyrazol-3-yl)-1-piperidyl]methyl]-4-phenyl-pyrrolidin-1-yl]-2-cyclohexyl-acetic acid
> <PUBCHEM_IUPAC_CAS_NAME>
(2R)-2-[(3S,4S)-3-[[4-[2-butyl-5-(phenylmethyl)-3-pyrazolyl]-1-piperidinyl]methyl]-4-phenyl-1-pyrrolidinyl]-2-cyclohexylacetic acid
> <PUBCHEM_IUPAC_NAME_MARKUP>
(2<I>R</I>)-2-[(3<I>S</I>,4<I>S</I>)-3-[[4-(5-benzyl-2-butylpyrazol-3-yl)piperidin-1-yl]methyl]-4-phenylpyrrolidin-1-yl]-2-cyclohexylacetic acid
> <PUBCHEM_IUPAC_NAME>
(2R)-2-[(3S,4S)-3-[[4-(5-benzyl-2-butylpyrazol-3-yl)piperidin-1-yl]methyl]-4-phenylpyrrolidin-1-yl]-2-cyclohexylacetic acid
> <PUBCHEM_IUPAC_SYSTEMATIC_NAME>
(2R)-2-[(3S,4S)-3-[[4-[2-butyl-5-(phenylmethyl)pyrazol-3-yl]piperidin-1-yl]methyl]-4-phenyl-pyrrolidin-1-yl]-2-cyclohexyl-ethanoic acid
> <PUBCHEM_IUPAC_TRADITIONAL_NAME>
(2R)-2-[(3S,4S)-3-[[4-(5-benzyl-2-butyl-pyrazol-3-yl)piperidino]methyl]-4-phenyl-pyrrolidino]-2-cyclohexyl-acetic acid
> <PUBCHEM_IUPAC_INCHI>
InChI=1S/C38H52N4O2/c1-2-3-21-42-36(25-34(39-42)24-29-13-7-4-8-14-29)31-19-22-40(23-20-31)26-33-27-41(28-35(33)30-15-9-5-10-16-30)37(38(43)44)32-17-11-6-12-18-32/h4-5,7-10,13-16,25,31-33,35,37H,2-3,6,11-12,17-24,26-28H2,1H3,(H,43,44)/t33-,35+,37+/m0/s1
> <PUBCHEM_IUPAC_INCHIKEY>
XKTMBPJXKQPVLC-CVZYHWGHSA-N
> <PUBCHEM_XLOGP3_AA>
5.5
> <PUBCHEM_EXACT_MASS>
596.40902691
> <PUBCHEM_MOLECULAR_FORMULA>
C38H52N4O2
> <PUBCHEM_MOLECULAR_WEIGHT>
596.8
> <PUBCHEM_OPENEYE_CAN_SMILES>
CCCCN1C(=CC(=N1)CC2=CC=CC=C2)C3CCN(CC3)CC4CN(CC4C5=CC=CC=C5)C(C6CCCCC6)C(=O)O
> <PUBCHEM_OPENEYE_ISO_SMILES>
CCCCN1C(=CC(=N1)CC2=CC=CC=C2)C3CCN(CC3)C[C@H]4CN(C[C@@H]4C5=CC=CC=C5)[C@H](C6CCCCC6)C(=O)O
> <PUBCHEM_CACTVS_TPSA>
61.6
> <PUBCHEM_MONOISOTOPIC_WEIGHT>
596.40902691
> <PUBCHEM_TOTAL_CHARGE>
0
> <PUBCHEM_HEAVY_ATOM_COUNT>
44
> <PUBCHEM_ATOM_DEF_STEREO_COUNT>
3
> <PUBCHEM_ATOM_UDEF_STEREO_COUNT>
0
> <PUBCHEM_BOND_DEF_STEREO_COUNT>
0
> <PUBCHEM_BOND_UDEF_STEREO_COUNT>
0
> <PUBCHEM_ISOTOPIC_ATOM_COUNT>
0
> <PUBCHEM_COMPONENT_COUNT>
1
> <PUBCHEM_CACTVS_TAUTO_COUNT>
-1
> <PUBCHEM_COORDINATE_TYPE>
1
5
255
> <PUBCHEM_BONDANNOTATIONS>
11  25  5
16  26  8
16  27  8
26  29  8
27  30  8
28  31  8
29  32  8
30  32  8
31  34  8
38  40  8
38  41  8
40  42  8
41  43  8
42  44  8
43  44  8
5  28  8
5  6  8
6  34  8
7  13  6
8  16  5
$$$$
