516348
  -OEChem-10302200282D
 87 93  0     1  0  0  0  0  0999 V2000
    8.2983   -5.6528    0.0000 O   0  0  0  0  0  0  0  0  0  0  0  0
    6.5662   -5.6528    0.0000 O   0  0  0  0  0  0  0  0  0  0  0  0
    6.5662   -3.6528    0.0000 N   0  0  3  0  0  0  0  0  0  0  0  0
    5.6646   -0.7278    0.0000 N   0  0  0  0  0  0  0  0  0  0  0  0
    8.4280    1.6993    0.0000 N   0  0  0  0  0  0  0  0  0  0  0  0
    8.7370    2.6503    0.0000 N   0  0  0  0  0  0  0  0  0  0  0  0
    5.4836   -2.4503    0.0000 C   0  0  2  0  0  0  0  0  0  0  0  0
    4.9836   -3.3164    0.0000 C   0  0  2  0  0  0  0  0  0  0  0  0
    6.4617   -2.6582    0.0000 C   0  0  0  0  0  0  0  0  0  0  0  0
    5.6527   -4.0595    0.0000 C   0  0  0  0  0  0  0  0  0  0  0  0
    7.4323   -4.1528    0.0000 C   0  0  2  0  0  0  0  0  0  0  0  0
    8.2983   -3.6528    0.0000 C   0  0  0  0  0  0  0  0  0  0  0  0
    5.0768   -1.5368    0.0000 C   0  0  0  0  0  0  0  0  0  0  0  0
    8.2983   -2.6528    0.0000 C   0  0  0  0  0  0  0  0  0  0  0  0
    9.1643   -4.1528    0.0000 C   0  0  0  0  0  0  0  0  0  0  0  0
    3.9890   -3.4209    0.0000 C   0  0  0  0  0  0  0  0  0  0  0  0
    9.1643   -2.1528    0.0000 C   0  0  0  0  0  0  0  0  0  0  0  0
   10.0303   -3.6528    0.0000 C   0  0  0  0  0  0  0  0  0  0  0  0
    6.6591   -0.8323    0.0000 C   0  0  0  0  0  0  0  0  0  0  0  0
    5.2579    0.1858    0.0000 C   0  0  0  0  0  0  0  0  0  0  0  0
   10.0303   -2.6528    0.0000 C   0  0  0  0  0  0  0  0  0  0  0  0
    6.8402    0.8903    0.0000 C   0  0  0  0  0  0  0  0  0  0  0  0
    7.2469   -0.0233    0.0000 C   0  0  0  0  0  0  0  0  0  0  0  0
    5.8457    0.9948    0.0000 C   0  0  0  0  0  0  0  0  0  0  0  0
    7.4323   -5.1528    0.0000 C   0  0  0  0  0  0  0  0  0  0  0  0
    3.5823   -4.3344    0.0000 C   0  0  0  0  0  0  0  0  0  0  0  0
    3.4013   -2.6119    0.0000 C   0  0  0  0  0  0  0  0  0  0  0  0
    7.4280    1.6993    0.0000 C   0  0  0  0  0  0  0  0  0  0  0  0
    2.5878   -4.4390    0.0000 C   0  0  0  0  0  0  0  0  0  0  0  0
    2.4067   -2.7164    0.0000 C   0  0  0  0  0  0  0  0  0  0  0  0
    7.1190    2.6503    0.0000 C   0  0  0  0  0  0  0  0  0  0  0  0
    2.0000   -3.6300    0.0000 C   0  0  0  0  0  0  0  0  0  0  0  0
    7.9280    3.2381    0.0000 C   0  0  0  0  0  0  0  0  0  0  0  0
    7.9280    4.2381    0.0000 C   0  0  0  0  0  0  0  0  0  0  0  0
    8.7940    4.7381    0.0000 C   0  0  0  0  0  0  0  0  0  0  0  0
    7.0619    4.7381    0.0000 C   0  0  0  0  0  0  0  0  0  0  0  0
    8.7940    5.7381    0.0000 C   0  0  0  0  0  0  0  0  0  0  0  0
    7.0619    5.7381    0.0000 C   0  0  0  0  0  0  0  0  0  0  0  0
    9.6879    4.2034    0.0000 C   0  0  0  0  0  0  0  0  0  0  0  0
    7.9280    6.2381    0.0000 C   0  0  0  0  0  0  0  0  0  0  0  0
    9.6879    6.2728    0.0000 C   0  0  0  0  0  0  0  0  0  0  0  0
   10.5940    4.7173    0.0000 C   0  0  0  0  0  0  0  0  0  0  0  0
   10.5940    5.7589    0.0000 C   0  0  0  0  0  0  0  0  0  0  0  0
    5.8737   -1.9685    0.0000 H   0  0  0  0  0  0  0  0  0  0  0  0
    4.6459   -2.7964    0.0000 H   0  0  0  0  0  0  0  0  0  0  0  0
    7.0817   -2.6582    0.0000 H   0  0  0  0  0  0  0  0  0  0  0  0
    6.5265   -2.0417    0.0000 H   0  0  0  0  0  0  0  0  0  0  0  0
    5.1511   -4.4239    0.0000 H   0  0  0  0  0  0  0  0  0  0  0  0
    5.9627   -4.5964    0.0000 H   0  0  0  0  0  0  0  0  0  0  0  0
    6.8953   -4.4628    0.0000 H   0  0  0  0  0  0  0  0  0  0  0  0
    8.2983   -4.2728    0.0000 H   0  0  0  0  0  0  0  0  0  0  0  0
    4.6461   -1.0908    0.0000 H   0  0  0  0  0  0  0  0  0  0  0  0
    4.5628   -1.8835    0.0000 H   0  0  0  0  0  0  0  0  0  0  0  0
    8.0862   -2.0702    0.0000 H   0  0  0  0  0  0  0  0  0  0  0  0
    7.6877   -2.7604    0.0000 H   0  0  0  0  0  0  0  0  0  0  0  0
    8.7658   -4.6277    0.0000 H   0  0  0  0  0  0  0  0  0  0  0  0
    9.5628   -4.6277    0.0000 H   0  0  0  0  0  0  0  0  0  0  0  0
    9.5628   -1.6778    0.0000 H   0  0  0  0  0  0  0  0  0  0  0  0
    8.7658   -1.6778    0.0000 H   0  0  0  0  0  0  0  0  0  0  0  0
   10.2424   -4.2354    0.0000 H   0  0  0  0  0  0  0  0  0  0  0  0
   10.6409   -3.5451    0.0000 H   0  0  0  0  0  0  0  0  0  0  0  0
    6.4882   -1.4283    0.0000 H   0  0  0  0  0  0  0  0  0  0  0  0
    7.2164   -1.1041    0.0000 H   0  0  0  0  0  0  0  0  0  0  0  0
    4.8272    0.6318    0.0000 H   0  0  0  0  0  0  0  0  0  0  0  0
    4.7439   -0.1609    0.0000 H   0  0  0  0  0  0  0  0  0  0  0  0
   10.6409   -2.7604    0.0000 H   0  0  0  0  0  0  0  0  0  0  0  0
   10.2424   -2.0702    0.0000 H   0  0  0  0  0  0  0  0  0  0  0  0
    6.5880    1.4566    0.0000 H   0  0  0  0  0  0  0  0  0  0  0  0
    7.6776   -0.4693    0.0000 H   0  0  0  0  0  0  0  0  0  0  0  0
    7.7609    0.3234    0.0000 H   0  0  0  0  0  0  0  0  0  0  0  0
    6.0166    1.5908    0.0000 H   0  0  0  0  0  0  0  0  0  0  0  0
    5.2884    1.2666    0.0000 H   0  0  0  0  0  0  0  0  0  0  0  0
    3.9467   -4.8360    0.0000 H   0  0  0  0  0  0  0  0  0  0  0  0
    3.6534   -2.0455    0.0000 H   0  0  0  0  0  0  0  0  0  0  0  0
    2.3356   -5.0054    0.0000 H   0  0  0  0  0  0  0  0  0  0  0  0
    2.0423   -2.2148    0.0000 H   0  0  0  0  0  0  0  0  0  0  0  0
    8.2983   -6.2728    0.0000 H   0  0  0  0  0  0  0  0  0  0  0  0
    6.5293    2.8419    0.0000 H   0  0  0  0  0  0  0  0  0  0  0  0
    1.3834   -3.6948    0.0000 H   0  0  0  0  0  0  0  0  0  0  0  0
    8.7924    1.1977    0.0000 H   0  0  0  0  0  0  0  0  0  0  0  0
    6.5250    4.4281    0.0000 H   0  0  0  0  0  0  0  0  0  0  0  0
    6.5250    6.0481    0.0000 H   0  0  0  0  0  0  0  0  0  0  0  0
    9.6808    3.5835    0.0000 H   0  0  0  0  0  0  0  0  0  0  0  0
    7.9280    6.8581    0.0000 H   0  0  0  0  0  0  0  0  0  0  0  0
    9.6808    6.8927    0.0000 H   0  0  0  0  0  0  0  0  0  0  0  0
   11.1297    4.4052    0.0000 H   0  0  0  0  0  0  0  0  0  0  0  0
   11.1297    6.0710    0.0000 H   0  0  0  0  0  0  0  0  0  0  0  0
  1 25  1  0  0  0  0
  1 77  1  0  0  0  0
  2 25  2  0  0  0  0
  3  9  1  0  0  0  0
  3 10  1  0  0  0  0
  3 11  1  0  0  0  0
  4 13  1  0  0  0  0
  4 19  1  0  0  0  0
  4 20  1  0  0  0  0
  5  6  1  0  0  0  0
  5 28  1  0  0  0  0
  5 80  1  0  0  0  0
  6 33  2  0  0  0  0
  7  8  1  0  0  0  0
  7  9  1  0  0  0  0
  7 13  1  1  0  0  0
  7 44  1  0  0  0  0
  8 10  1  0  0  0  0
  8 16  1  6  0  0  0
  8 45  1  0  0  0  0
  9 46  1  0  0  0  0
  9 47  1  0  0  0  0
 10 48  1  0  0  0  0
 10 49  1  0  0  0  0
 11 12  1  0  0  0  0
 11 25  1  6  0  0  0
 11 50  1  0  0  0  0
 12 14  1  0  0  0  0
 12 15  1  0  0  0  0
 12 51  1  0  0  0  0
 13 52  1  0  0  0  0
 13 53  1  0  0  0  0
 14 17  1  0  0  0  0
 14 54  1  0  0  0  0
 14 55  1  0  0  0  0
 15 18  1  0  0  0  0
 15 56  1  0  0  0  0
 15 57  1  0  0  0  0
 16 26  2  0  0  0  0
 16 27  1  0  0  0  0
 17 21  1  0  0  0  0
 17 58  1  0  0  0  0
 17 59  1  0  0  0  0
 18 21  1  0  0  0  0
 18 60  1  0  0  0  0
 18 61  1  0  0  0  0
 19 23  1  0  0  0  0
 19 62  1  0  0  0  0
 19 63  1  0  0  0  0
 20 24  1  0  0  0  0
 20 64  1  0  0  0  0
 20 65  1  0  0  0  0
 21 66  1  0  0  0  0
 21 67  1  0  0  0  0
 22 23  1  0  0  0  0
 22 24  1  0  0  0  0
 22 28  1  0  0  0  0
 22 68  1  0  0  0  0
 23 69  1  0  0  0  0
 23 70  1  0  0  0  0
 24 71  1  0  0  0  0
 24 72  1  0  0  0  0
 26 29  1  0  0  0  0
 26 73  1  0  0  0  0
 27 30  2  0  0  0  0
 27 74  1  0  0  0  0
 28 31  2  0  0  0  0
 29 32  2  0  0  0  0
 29 75  1  0  0  0  0
 30 32  1  0  0  0  0
 30 76  1  0  0  0  0
 31 33  1  0  0  0  0
 31 78  1  0  0  0  0
 32 79  1  0  0  0  0
 33 34  1  0  0  0  0
 34 35  1  0  0  0  0
 34 36  2  0  0  0  0
 35 37  1  0  0  0  0
 35 39  2  0  0  0  0
 36 38  1  0  0  0  0
 36 81  1  0  0  0  0
 37 40  1  0  0  0  0
 37 41  2  0  0  0  0
 38 40  2  0  0  0  0
 38 82  1  0  0  0  0
 39 42  1  0  0  0  0
 39 83  1  0  0  0  0
 40 84  1  0  0  0  0
 41 43  1  0  0  0  0
 41 85  1  0  0  0  0
 42 43  2  0  0  0  0
 42 86  1  0  0  0  0
 43 87  1  0  0  0  0
M  END
> <PUBCHEM_COMPOUND_CID>
516348
> <PUBCHEM_COMPOUND_CANONICALIZED>
1
> <PUBCHEM_CACTVS_COMPLEXITY>
895
> <PUBCHEM_CACTVS_HBOND_ACCEPTOR>
5
> <PUBCHEM_CACTVS_HBOND_DONOR>
2
> <PUBCHEM_CACTVS_ROTATABLE_BOND>
8
> <PUBCHEM_CACTVS_SUBSKEYS>
AAADcfB/sAAAAAAAAAAAAAAAAAAAAWLAAAA8YMGCAAAAAADB1AAAHgAYCAAADSjBngQwiNNjAgCqAyTySACSBAAgAgAYuSG4ZJgKILKA0fGE5ABkmACYyAeYyOCOgAACAAAQAAAAAAQAACAAAAAAAAAAAA==
> <PUBCHEM_IUPAC_OPENEYE_NAME>
(2R)-2-cyclohexyl-2-[(3S,4S)-3-[[4-[3-(1-naphthyl)-1H-pyrazol-5-yl]-1-piperidyl]methyl]-4-phenyl-pyrrolidin-1-yl]acetic acid
> <PUBCHEM_IUPAC_CAS_NAME>
(2R)-2-cyclohexyl-2-[(3S,4S)-3-[[4-[3-(1-naphthalenyl)-1H-pyrazol-5-yl]-1-piperidinyl]methyl]-4-phenyl-1-pyrrolidinyl]acetic acid
> <PUBCHEM_IUPAC_NAME_MARKUP>
(2<I>R</I>)-2-cyclohexyl-2-[(3<I>S</I>,4<I>S</I>)-3-[[4-(3-naphthalen-1-yl-1<I>H</I>-pyrazol-5-yl)piperidin-1-yl]methyl]-4-phenylpyrrolidin-1-yl]acetic acid
> <PUBCHEM_IUPAC_NAME>
(2R)-2-cyclohexyl-2-[(3S,4S)-3-[[4-(3-naphthalen-1-yl-1H-pyrazol-5-yl)piperidin-1-yl]methyl]-4-phenylpyrrolidin-1-yl]acetic acid
> <PUBCHEM_IUPAC_SYSTEMATIC_NAME>
(2R)-2-cyclohexyl-2-[(3S,4S)-3-[[4-(3-naphthalen-1-yl-1H-pyrazol-5-yl)piperidin-1-yl]methyl]-4-phenyl-pyrrolidin-1-yl]ethanoic acid
> <PUBCHEM_IUPAC_TRADITIONAL_NAME>
(2R)-2-cyclohexyl-2-[(3S,4S)-3-[[4-[3-(1-naphthyl)-1H-pyrazol-5-yl]piperidino]methyl]-4-phenyl-pyrrolidino]acetic acid
> <PUBCHEM_IUPAC_INCHI>
InChI=1S/C37H44N4O2/c42-37(43)36(29-13-5-2-6-14-29)41-24-30(33(25-41)27-10-3-1-4-11-27)23-40-20-18-28(19-21-40)34-22-35(39-38-34)32-17-9-15-26-12-7-8-16-31(26)32/h1,3-4,7-12,15-17,22,28-30,33,36H,2,5-6,13-14,18-21,23-25H2,(H,38,39)(H,42,43)/t30-,33+,36+/m0/s1
> <PUBCHEM_IUPAC_INCHIKEY>
SFZUCFWFYJJCGY-RJISLUCMSA-N
> <PUBCHEM_XLOGP3_AA>
5.3
> <PUBCHEM_EXACT_MASS>
576.34642666
> <PUBCHEM_MOLECULAR_FORMULA>
C37H44N4O2
> <PUBCHEM_MOLECULAR_WEIGHT>
576.8
> <PUBCHEM_OPENEYE_CAN_SMILES>
C1CCC(CC1)C(C(=O)O)N2CC(C(C2)C3=CC=CC=C3)CN4CCC(CC4)C5=CC(=NN5)C6=CC=CC7=CC=CC=C76
> <PUBCHEM_OPENEYE_ISO_SMILES>
C1CCC(CC1)[C@H](C(=O)O)N2C[C@@H]([C@H](C2)C3=CC=CC=C3)CN4CCC(CC4)C5=CC(=NN5)C6=CC=CC7=CC=CC=C76
> <PUBCHEM_CACTVS_TPSA>
72.5
> <PUBCHEM_MONOISOTOPIC_WEIGHT>
576.34642666
> <PUBCHEM_TOTAL_CHARGE>
0
> <PUBCHEM_HEAVY_ATOM_COUNT>
43
> <PUBCHEM_ATOM_DEF_STEREO_COUNT>
3
> <PUBCHEM_ATOM_UDEF_STEREO_COUNT>
0
> <PUBCHEM_BOND_DEF_STEREO_COUNT>
0
> <PUBCHEM_BOND_UDEF_STEREO_COUNT>
0
> <PUBCHEM_ISOTOPIC_ATOM_COUNT>
0
> <PUBCHEM_COMPONENT_COUNT>
1
> <PUBCHEM_CACTVS_TAUTO_COUNT>
-1
> <PUBCHEM_COORDINATE_TYPE>
1
5
255
> <PUBCHEM_BONDANNOTATIONS>
11  25  6
16  26  8
16  27  8
26  29  8
27  30  8
28  31  8
29  32  8
30  32  8
31  33  8
34  35  8
34  36  8
35  37  8
35  39  8
36  38  8
37  40  8
37  41  8
38  40  8
39  42  8
41  43  8
42  43  8
5  28  8
5  6  8
6  33  8
7  13  5
8  16  6
$$$$
