516334
  -OEChem-10302200282D
 84 89  0     1  0  0  0  0  0999 V2000
    2.3644   -2.8285    0.0000 O   0  0  0  0  0  0  0  0  0  0  0  0
    3.7657   -3.8466    0.0000 O   0  0  0  0  0  0  0  0  0  0  0  0
    4.9413   -2.2285    0.0000 N   0  0  3  0  0  0  0  0  0  0  0  0
    7.3900   -0.3921    0.0000 N   0  0  0  0  0  0  0  0  0  0  0  0
    6.5809    3.1957    0.0000 N   0  0  0  0  0  0  0  0  0  0  0  0
    6.8900    4.1467    0.0000 N   0  0  0  0  0  0  0  0  0  0  0  0
    6.5239   -1.8921    0.0000 C   0  0  2  0  0  0  0  0  0  0  0  0
    6.4194   -2.8866    0.0000 C   0  0  2  0  0  0  0  0  0  0  0  0
    5.6104   -1.4854    0.0000 C   0  0  0  0  0  0  0  0  0  0  0  0
    5.4413   -3.0946    0.0000 C   0  0  0  0  0  0  0  0  0  0  0  0
    3.9467   -2.1240    0.0000 C   0  0  2  0  0  0  0  0  0  0  0  0
    3.5400   -1.2105    0.0000 C   0  0  0  0  0  0  0  0  0  0  0  0
    7.3900   -1.3921    0.0000 C   0  0  0  0  0  0  0  0  0  0  0  0
    2.5455   -1.1059    0.0000 C   0  0  0  0  0  0  0  0  0  0  0  0
    4.1278   -0.4014    0.0000 C   0  0  0  0  0  0  0  0  0  0  0  0
    7.1626   -3.5558    0.0000 C   0  0  0  0  0  0  0  0  0  0  0  0
    6.5239    0.1079    0.0000 C   0  0  0  0  0  0  0  0  0  0  0  0
    8.2560    0.1079    0.0000 C   0  0  0  0  0  0  0  0  0  0  0  0
    2.1387   -0.1924    0.0000 C   0  0  0  0  0  0  0  0  0  0  0  0
    3.7210    0.5121    0.0000 C   0  0  0  0  0  0  0  0  0  0  0  0
    7.3900    1.6079    0.0000 C   0  0  0  0  0  0  0  0  0  0  0  0
    2.7265    0.6166    0.0000 C   0  0  0  0  0  0  0  0  0  0  0  0
    6.5239    1.1079    0.0000 C   0  0  0  0  0  0  0  0  0  0  0  0
    8.2560    1.1079    0.0000 C   0  0  0  0  0  0  0  0  0  0  0  0
    3.3590   -2.9330    0.0000 C   0  0  0  0  0  0  0  0  0  0  0  0
    6.9546   -4.5339    0.0000 C   0  0  0  0  0  0  0  0  0  0  0  0
    8.1136   -3.2468    0.0000 C   0  0  0  0  0  0  0  0  0  0  0  0
    7.3900    2.6079    0.0000 C   0  0  0  0  0  0  0  0  0  0  0  0
    7.6978   -5.2030    0.0000 C   0  0  0  0  0  0  0  0  0  0  0  0
    8.8568   -3.9159    0.0000 C   0  0  0  0  0  0  0  0  0  0  0  0
    8.1990    3.1957    0.0000 C   0  0  0  0  0  0  0  0  0  0  0  0
    8.6488   -4.8940    0.0000 C   0  0  0  0  0  0  0  0  0  0  0  0
    9.1500    2.8866    0.0000 C   0  0  0  0  0  0  0  0  0  0  0  0
    7.8900    4.1467    0.0000 C   0  0  0  0  0  0  0  0  0  0  0  0
    9.8932    3.5558    0.0000 C   0  0  0  0  0  0  0  0  0  0  0  0
   10.8442    3.2468    0.0000 C   0  0  0  0  0  0  0  0  0  0  0  0
    9.6853    4.5339    0.0000 C   0  0  0  0  0  0  0  0  0  0  0  0
   11.5874    3.9159    0.0000 C   0  0  0  0  0  0  0  0  0  0  0  0
   10.4284    5.2030    0.0000 C   0  0  0  0  0  0  0  0  0  0  0  0
   11.3795    4.8940    0.0000 C   0  0  0  0  0  0  0  0  0  0  0  0
    6.4915   -1.2730    0.0000 H   0  0  0  0  0  0  0  0  0  0  0  0
    6.2589   -3.4855    0.0000 H   0  0  0  0  0  0  0  0  0  0  0  0
    5.9204   -0.9485    0.0000 H   0  0  0  0  0  0  0  0  0  0  0  0
    5.1088   -1.1210    0.0000 H   0  0  0  0  0  0  0  0  0  0  0  0
    4.8749   -3.3467    0.0000 H   0  0  0  0  0  0  0  0  0  0  0  0
    5.6328   -3.6842    0.0000 H   0  0  0  0  0  0  0  0  0  0  0  0
    4.1989   -2.6904    0.0000 H   0  0  0  0  0  0  0  0  0  0  0  0
    3.1756   -1.7120    0.0000 H   0  0  0  0  0  0  0  0  0  0  0  0
    7.6020   -1.9747    0.0000 H   0  0  0  0  0  0  0  0  0  0  0  0
    8.0005   -1.2845    0.0000 H   0  0  0  0  0  0  0  0  0  0  0  0
    1.9439   -1.2559    0.0000 H   0  0  0  0  0  0  0  0  0  0  0  0
    2.5887   -1.7244    0.0000 H   0  0  0  0  0  0  0  0  0  0  0  0
    4.5585   -0.8474    0.0000 H   0  0  0  0  0  0  0  0  0  0  0  0
    4.6418   -0.0547    0.0000 H   0  0  0  0  0  0  0  0  0  0  0  0
    5.9134    0.2155    0.0000 H   0  0  0  0  0  0  0  0  0  0  0  0
    6.3119   -0.4747    0.0000 H   0  0  0  0  0  0  0  0  0  0  0  0
    8.4680   -0.4747    0.0000 H   0  0  0  0  0  0  0  0  0  0  0  0
    8.8666    0.2155    0.0000 H   0  0  0  0  0  0  0  0  0  0  0  0
    1.7080    0.2536    0.0000 H   0  0  0  0  0  0  0  0  0  0  0  0
    1.6247   -0.5391    0.0000 H   0  0  0  0  0  0  0  0  0  0  0  0
    4.3226    0.6621    0.0000 H   0  0  0  0  0  0  0  0  0  0  0  0
    3.6778    1.1306    0.0000 H   0  0  0  0  0  0  0  0  0  0  0  0
    7.9269    1.9179    0.0000 H   0  0  0  0  0  0  0  0  0  0  0  0
    2.8974    1.2126    0.0000 H   0  0  0  0  0  0  0  0  0  0  0  0
    2.1693    0.8884    0.0000 H   0  0  0  0  0  0  0  0  0  0  0  0
    6.3119    1.6905    0.0000 H   0  0  0  0  0  0  0  0  0  0  0  0
    5.9134    1.0002    0.0000 H   0  0  0  0  0  0  0  0  0  0  0  0
    8.8666    1.0002    0.0000 H   0  0  0  0  0  0  0  0  0  0  0  0
    8.4680    1.6905    0.0000 H   0  0  0  0  0  0  0  0  0  0  0  0
    6.3650   -4.7255    0.0000 H   0  0  0  0  0  0  0  0  0  0  0  0
    8.2425   -2.6403    0.0000 H   0  0  0  0  0  0  0  0  0  0  0  0
    7.5689   -5.8095    0.0000 H   0  0  0  0  0  0  0  0  0  0  0  0
    9.4464   -3.7243    0.0000 H   0  0  0  0  0  0  0  0  0  0  0  0
    2.0000   -3.3301    0.0000 H   0  0  0  0  0  0  0  0  0  0  0  0
    5.9913    3.0041    0.0000 H   0  0  0  0  0  0  0  0  0  0  0  0
    9.1096   -5.3089    0.0000 H   0  0  0  0  0  0  0  0  0  0  0  0
    8.8590    2.3392    0.0000 H   0  0  0  0  0  0  0  0  0  0  0  0
    9.6386    2.5049    0.0000 H   0  0  0  0  0  0  0  0  0  0  0  0
    8.2544    4.6483    0.0000 H   0  0  0  0  0  0  0  0  0  0  0  0
   10.9731    2.6403    0.0000 H   0  0  0  0  0  0  0  0  0  0  0  0
    9.0956    4.7255    0.0000 H   0  0  0  0  0  0  0  0  0  0  0  0
   12.1770    3.7243    0.0000 H   0  0  0  0  0  0  0  0  0  0  0  0
   10.2995    5.8095    0.0000 H   0  0  0  0  0  0  0  0  0  0  0  0
   11.8402    5.3089    0.0000 H   0  0  0  0  0  0  0  0  0  0  0  0
  1 25  1  0  0  0  0
  1 74  1  0  0  0  0
  2 25  2  0  0  0  0
  3  9  1  0  0  0  0
  3 10  1  0  0  0  0
  3 11  1  0  0  0  0
  4 13  1  0  0  0  0
  4 17  1  0  0  0  0
  4 18  1  0  0  0  0
  5  6  1  0  0  0  0
  5 28  1  0  0  0  0
  5 75  1  0  0  0  0
  6 34  2  0  0  0  0
  7  8  1  0  0  0  0
  7  9  1  0  0  0  0
  7 13  1  6  0  0  0
  7 41  1  0  0  0  0
  8 10  1  0  0  0  0
  8 16  1  1  0  0  0
  8 42  1  0  0  0  0
  9 43  1  0  0  0  0
  9 44  1  0  0  0  0
 10 45  1  0  0  0  0
 10 46  1  0  0  0  0
 11 12  1  0  0  0  0
 11 25  1  1  0  0  0
 11 47  1  0  0  0  0
 12 14  1  0  0  0  0
 12 15  1  0  0  0  0
 12 48  1  0  0  0  0
 13 49  1  0  0  0  0
 13 50  1  0  0  0  0
 14 19  1  0  0  0  0
 14 51  1  0  0  0  0
 14 52  1  0  0  0  0
 15 20  1  0  0  0  0
 15 53  1  0  0  0  0
 15 54  1  0  0  0  0
 16 26  2  0  0  0  0
 16 27  1  0  0  0  0
 17 23  1  0  0  0  0
 17 55  1  0  0  0  0
 17 56  1  0  0  0  0
 18 24  1  0  0  0  0
 18 57  1  0  0  0  0
 18 58  1  0  0  0  0
 19 22  1  0  0  0  0
 19 59  1  0  0  0  0
 19 60  1  0  0  0  0
 20 22  1  0  0  0  0
 20 61  1  0  0  0  0
 20 62  1  0  0  0  0
 21 23  1  0  0  0  0
 21 24  1  0  0  0  0
 21 28  1  0  0  0  0
 21 63  1  0  0  0  0
 22 64  1  0  0  0  0
 22 65  1  0  0  0  0
 23 66  1  0  0  0  0
 23 67  1  0  0  0  0
 24 68  1  0  0  0  0
 24 69  1  0  0  0  0
 26 29  1  0  0  0  0
 26 70  1  0  0  0  0
 27 30  2  0  0  0  0
 27 71  1  0  0  0  0
 28 31  2  0  0  0  0
 29 32  2  0  0  0  0
 29 72  1  0  0  0  0
 30 32  1  0  0  0  0
 30 73  1  0  0  0  0
 31 33  1  0  0  0  0
 31 34  1  0  0  0  0
 32 76  1  0  0  0  0
 33 35  1  0  0  0  0
 33 77  1  0  0  0  0
 33 78  1  0  0  0  0
 34 79  1  0  0  0  0
 35 36  2  0  0  0  0
 35 37  1  0  0  0  0
 36 38  1  0  0  0  0
 36 80  1  0  0  0  0
 37 39  2  0  0  0  0
 37 81  1  0  0  0  0
 38 40  2  0  0  0  0
 38 82  1  0  0  0  0
 39 40  1  0  0  0  0
 39 83  1  0  0  0  0
 40 84  1  0  0  0  0
M  END
> <PUBCHEM_COMPOUND_CID>
516334
> <PUBCHEM_COMPOUND_CANONICALIZED>
1
> <PUBCHEM_CACTVS_COMPLEXITY>
783
> <PUBCHEM_CACTVS_HBOND_ACCEPTOR>
5
> <PUBCHEM_CACTVS_HBOND_DONOR>
2
> <PUBCHEM_CACTVS_ROTATABLE_BOND>
9
> <PUBCHEM_CACTVS_SUBSKEYS>
AAADcfB/sAAAAAAAAAAAAAAAAAAAAWLAAAA8YMEAAAAAAAAB0AAAHgAYCAAADSjBngQ8iJNjAgCqAzT3SACSBAAggAAYuSG4RJgKILKA0fGE5ABkmACYyAeYyOCOgAAAAAAAAAAAAAAAAAAAAAAAAAAAAA==
> <PUBCHEM_IUPAC_OPENEYE_NAME>
(2R)-2-[(3S,4S)-3-[[4-(4-benzyl-1H-pyrazol-5-yl)-1-piperidyl]methyl]-4-phenyl-pyrrolidin-1-yl]-2-cyclohexyl-acetic acid
> <PUBCHEM_IUPAC_CAS_NAME>
(2R)-2-cyclohexyl-2-[(3S,4S)-3-phenyl-4-[[4-[4-(phenylmethyl)-1H-pyrazol-5-yl]-1-piperidinyl]methyl]-1-pyrrolidinyl]acetic acid
> <PUBCHEM_IUPAC_NAME_MARKUP>
(2<I>R</I>)-2-[(3<I>S</I>,4<I>S</I>)-3-[[4-(4-benzyl-1<I>H</I>-pyrazol-5-yl)piperidin-1-yl]methyl]-4-phenylpyrrolidin-1-yl]-2-cyclohexylacetic acid
> <PUBCHEM_IUPAC_NAME>
(2R)-2-[(3S,4S)-3-[[4-(4-benzyl-1H-pyrazol-5-yl)piperidin-1-yl]methyl]-4-phenylpyrrolidin-1-yl]-2-cyclohexylacetic acid
> <PUBCHEM_IUPAC_SYSTEMATIC_NAME>
(2R)-2-cyclohexyl-2-[(3S,4S)-3-phenyl-4-[[4-[4-(phenylmethyl)-1H-pyrazol-5-yl]piperidin-1-yl]methyl]pyrrolidin-1-yl]ethanoic acid
> <PUBCHEM_IUPAC_TRADITIONAL_NAME>
(2R)-2-[(3S,4S)-3-[[4-(4-benzyl-1H-pyrazol-5-yl)piperidino]methyl]-4-phenyl-pyrrolidino]-2-cyclohexyl-acetic acid
> <PUBCHEM_IUPAC_INCHI>
InChI=1S/C34H44N4O2/c39-34(40)33(28-14-8-3-9-15-28)38-23-30(31(24-38)26-12-6-2-7-13-26)22-37-18-16-27(17-19-37)32-29(21-35-36-32)20-25-10-4-1-5-11-25/h1-2,4-7,10-13,21,27-28,30-31,33H,3,8-9,14-20,22-24H2,(H,35,36)(H,39,40)/t30-,31+,33+/m0/s1
> <PUBCHEM_IUPAC_INCHIKEY>
PFQMJEOTSDKJES-RKKDRKJOSA-N
> <PUBCHEM_XLOGP3_AA>
4.3
> <PUBCHEM_EXACT_MASS>
540.34642666
> <PUBCHEM_MOLECULAR_FORMULA>
C34H44N4O2
> <PUBCHEM_MOLECULAR_WEIGHT>
540.7
> <PUBCHEM_OPENEYE_CAN_SMILES>
C1CCC(CC1)C(C(=O)O)N2CC(C(C2)C3=CC=CC=C3)CN4CCC(CC4)C5=C(C=NN5)CC6=CC=CC=C6
> <PUBCHEM_OPENEYE_ISO_SMILES>
C1CCC(CC1)[C@H](C(=O)O)N2C[C@@H]([C@H](C2)C3=CC=CC=C3)CN4CCC(CC4)C5=C(C=NN5)CC6=CC=CC=C6
> <PUBCHEM_CACTVS_TPSA>
72.5
> <PUBCHEM_MONOISOTOPIC_WEIGHT>
540.34642666
> <PUBCHEM_TOTAL_CHARGE>
0
> <PUBCHEM_HEAVY_ATOM_COUNT>
40
> <PUBCHEM_ATOM_DEF_STEREO_COUNT>
3
> <PUBCHEM_ATOM_UDEF_STEREO_COUNT>
0
> <PUBCHEM_BOND_DEF_STEREO_COUNT>
0
> <PUBCHEM_BOND_UDEF_STEREO_COUNT>
0
> <PUBCHEM_ISOTOPIC_ATOM_COUNT>
0
> <PUBCHEM_COMPONENT_COUNT>
1
> <PUBCHEM_CACTVS_TAUTO_COUNT>
-1
> <PUBCHEM_COORDINATE_TYPE>
1
5
255
> <PUBCHEM_BONDANNOTATIONS>
11  25  5
16  26  8
16  27  8
26  29  8
27  30  8
28  31  8
29  32  8
30  32  8
31  34  8
35  36  8
35  37  8
36  38  8
37  39  8
38  40  8
39  40  8
5  28  8
5  6  8
6  34  8
7  13  6
8  16  5
$$$$
