516346
  -OEChem-10302200282D
 92 97  0     1  0  0  0  0  0999 V2000
    2.7688   -2.9034    0.0000 O   0  0  0  0  0  0  0  0  0  0  0  0
    4.3511   -2.1989    0.0000 O   0  0  0  0  0  0  0  0  0  0  0  0
    5.1646   -4.0260    0.0000 N   0  0  3  0  0  0  0  0  0  0  0  0
    7.6133   -2.1896    0.0000 N   0  0  0  0  0  0  0  0  0  0  0  0
    6.8043    1.3982    0.0000 N   0  0  0  0  0  0  0  0  0  0  0  0
    7.1133    2.3493    0.0000 N   0  0  0  0  0  0  0  0  0  0  0  0
   10.0577    6.4989    0.0000 N   0  0  0  0  0  0  0  0  0  0  0  0
    6.7473   -3.6896    0.0000 C   0  0  2  0  0  0  0  0  0  0  0  0
    6.6428   -4.6841    0.0000 C   0  0  2  0  0  0  0  0  0  0  0  0
    5.8338   -3.2828    0.0000 C   0  0  0  0  0  0  0  0  0  0  0  0
    5.6646   -4.8920    0.0000 C   0  0  0  0  0  0  0  0  0  0  0  0
    4.1701   -3.9214    0.0000 C   0  0  2  0  0  0  0  0  0  0  0  0
    3.5823   -4.7304    0.0000 C   0  0  0  0  0  0  0  0  0  0  0  0
    7.6133   -3.1896    0.0000 C   0  0  0  0  0  0  0  0  0  0  0  0
    2.5878   -4.6259    0.0000 C   0  0  0  0  0  0  0  0  0  0  0  0
    3.9890   -5.6440    0.0000 C   0  0  0  0  0  0  0  0  0  0  0  0
    7.3859   -5.3532    0.0000 C   0  0  0  0  0  0  0  0  0  0  0  0
    6.7473   -1.6896    0.0000 C   0  0  0  0  0  0  0  0  0  0  0  0
    8.4793   -1.6896    0.0000 C   0  0  0  0  0  0  0  0  0  0  0  0
    2.0000   -5.4349    0.0000 C   0  0  0  0  0  0  0  0  0  0  0  0
    3.4013   -6.4530    0.0000 C   0  0  0  0  0  0  0  0  0  0  0  0
    7.6133   -0.1896    0.0000 C   0  0  0  0  0  0  0  0  0  0  0  0
    2.4067   -6.3485    0.0000 C   0  0  0  0  0  0  0  0  0  0  0  0
    6.7473   -0.6896    0.0000 C   0  0  0  0  0  0  0  0  0  0  0  0
    8.4793   -0.6896    0.0000 C   0  0  0  0  0  0  0  0  0  0  0  0
    3.7634   -3.0079    0.0000 C   0  0  0  0  0  0  0  0  0  0  0  0
    8.3370   -5.0442    0.0000 C   0  0  0  0  0  0  0  0  0  0  0  0
    7.1780   -6.3314    0.0000 C   0  0  0  0  0  0  0  0  0  0  0  0
    7.6133    0.8104    0.0000 C   0  0  0  0  0  0  0  0  0  0  0  0
    9.0801   -5.7133    0.0000 C   0  0  0  0  0  0  0  0  0  0  0  0
    7.9211   -7.0005    0.0000 C   0  0  0  0  0  0  0  0  0  0  0  0
    8.4223    1.3982    0.0000 C   0  0  0  0  0  0  0  0  0  0  0  0
    8.8722   -6.6915    0.0000 C   0  0  0  0  0  0  0  0  0  0  0  0
    8.1133    2.3493    0.0000 C   0  0  0  0  0  0  0  0  0  0  0  0
    5.8532    1.0892    0.0000 C   0  0  0  0  0  0  0  0  0  0  0  0
    8.7011    3.1583    0.0000 C   0  0  0  0  0  0  0  0  0  0  0  0
    5.1101    1.7583    0.0000 C   0  0  0  0  0  0  0  0  0  0  0  0
    8.2944    4.0719    0.0000 C   0  0  0  0  0  0  0  0  0  0  0  0
    9.6956    3.0538    0.0000 C   0  0  0  0  0  0  0  0  0  0  0  0
    8.8822    4.8809    0.0000 C   0  0  0  0  0  0  0  0  0  0  0  0
   10.2834    3.8628    0.0000 C   0  0  0  0  0  0  0  0  0  0  0  0
    9.8767    4.7763    0.0000 C   0  0  0  0  0  0  0  0  0  0  0  0
   10.4645    5.5854    0.0000 C   0  0  0  0  0  0  0  0  0  0  0  0
    7.2673   -4.0272    0.0000 H   0  0  0  0  0  0  0  0  0  0  0  0
    6.4823   -5.2829    0.0000 H   0  0  0  0  0  0  0  0  0  0  0  0
    6.1437   -2.7459    0.0000 H   0  0  0  0  0  0  0  0  0  0  0  0
    5.3322   -2.9184    0.0000 H   0  0  0  0  0  0  0  0  0  0  0  0
    5.0982   -5.1442    0.0000 H   0  0  0  0  0  0  0  0  0  0  0  0
    5.8562   -5.4816    0.0000 H   0  0  0  0  0  0  0  0  0  0  0  0
    4.5345   -3.4198    0.0000 H   0  0  0  0  0  0  0  0  0  0  0  0
    4.1989   -4.7953    0.0000 H   0  0  0  0  0  0  0  0  0  0  0  0
    7.8254   -3.7722    0.0000 H   0  0  0  0  0  0  0  0  0  0  0  0
    8.2239   -3.0819    0.0000 H   0  0  0  0  0  0  0  0  0  0  0  0
    2.7587   -4.0299    0.0000 H   0  0  0  0  0  0  0  0  0  0  0  0
    2.0305   -4.3541    0.0000 H   0  0  0  0  0  0  0  0  0  0  0  0
    4.4197   -6.0900    0.0000 H   0  0  0  0  0  0  0  0  0  0  0  0
    4.5030   -5.2973    0.0000 H   0  0  0  0  0  0  0  0  0  0  0  0
    6.1367   -1.5819    0.0000 H   0  0  0  0  0  0  0  0  0  0  0  0
    6.5352   -2.2722    0.0000 H   0  0  0  0  0  0  0  0  0  0  0  0
    8.6914   -2.2722    0.0000 H   0  0  0  0  0  0  0  0  0  0  0  0
    9.0899   -1.5819    0.0000 H   0  0  0  0  0  0  0  0  0  0  0  0
    1.5693   -4.9890    0.0000 H   0  0  0  0  0  0  0  0  0  0  0  0
    1.4860   -5.7816    0.0000 H   0  0  0  0  0  0  0  0  0  0  0  0
    3.2304   -7.0490    0.0000 H   0  0  0  0  0  0  0  0  0  0  0  0
    3.9585   -6.7248    0.0000 H   0  0  0  0  0  0  0  0  0  0  0  0
    7.0764    0.1204    0.0000 H   0  0  0  0  0  0  0  0  0  0  0  0
    1.8052   -6.4985    0.0000 H   0  0  0  0  0  0  0  0  0  0  0  0
    2.4500   -6.9670    0.0000 H   0  0  0  0  0  0  0  0  0  0  0  0
    6.5352   -0.1069    0.0000 H   0  0  0  0  0  0  0  0  0  0  0  0
    6.1367   -0.7972    0.0000 H   0  0  0  0  0  0  0  0  0  0  0  0
    9.0899   -0.7972    0.0000 H   0  0  0  0  0  0  0  0  0  0  0  0
    8.6914   -0.1069    0.0000 H   0  0  0  0  0  0  0  0  0  0  0  0
    8.4659   -4.4377    0.0000 H   0  0  0  0  0  0  0  0  0  0  0  0
    6.5883   -6.5230    0.0000 H   0  0  0  0  0  0  0  0  0  0  0  0
    9.6698   -5.5217    0.0000 H   0  0  0  0  0  0  0  0  0  0  0  0
    7.7922   -7.6069    0.0000 H   0  0  0  0  0  0  0  0  0  0  0  0
    2.5167   -2.3370    0.0000 H   0  0  0  0  0  0  0  0  0  0  0  0
    9.0120    1.2066    0.0000 H   0  0  0  0  0  0  0  0  0  0  0  0
    9.3330   -7.1063    0.0000 H   0  0  0  0  0  0  0  0  0  0  0  0
    5.3647    0.7075    0.0000 H   0  0  0  0  0  0  0  0  0  0  0  0
    6.1443    0.5418    0.0000 H   0  0  0  0  0  0  0  0  0  0  0  0
    5.5250    2.2191    0.0000 H   0  0  0  0  0  0  0  0  0  0  0  0
    4.6494    2.1732    0.0000 H   0  0  0  0  0  0  0  0  0  0  0  0
    4.6952    1.2976    0.0000 H   0  0  0  0  0  0  0  0  0  0  0  0
    7.6778    4.1367    0.0000 H   0  0  0  0  0  0  0  0  0  0  0  0
    9.9478    2.4874    0.0000 H   0  0  0  0  0  0  0  0  0  0  0  0
    8.6300    5.4473    0.0000 H   0  0  0  0  0  0  0  0  0  0  0  0
   10.9000    3.7980    0.0000 H   0  0  0  0  0  0  0  0  0  0  0  0
   10.8951    5.1394    0.0000 H   0  0  0  0  0  0  0  0  0  0  0  0
   10.9785    5.9320    0.0000 H   0  0  0  0  0  0  0  0  0  0  0  0
   10.4221    7.0005    0.0000 H   0  0  0  0  0  0  0  0  0  0  0  0
    9.4411    6.5637    0.0000 H   0  0  0  0  0  0  0  0  0  0  0  0
  1 26  1  0  0  0  0
  1 77  1  0  0  0  0
  2 26  2  0  0  0  0
  3 10  1  0  0  0  0
  3 11  1  0  0  0  0
  3 12  1  0  0  0  0
  4 14  1  0  0  0  0
  4 18  1  0  0  0  0
  4 19  1  0  0  0  0
  5  6  1  0  0  0  0
  5 29  1  0  0  0  0
  5 35  1  0  0  0  0
  6 34  2  0  0  0  0
  7 43  1  0  0  0  0
  7 91  1  0  0  0  0
  7 92  1  0  0  0  0
  8  9  1  0  0  0  0
  8 10  1  0  0  0  0
  8 14  1  6  0  0  0
  8 44  1  0  0  0  0
  9 11  1  0  0  0  0
  9 17  1  1  0  0  0
  9 45  1  0  0  0  0
 10 46  1  0  0  0  0
 10 47  1  0  0  0  0
 11 48  1  0  0  0  0
 11 49  1  0  0  0  0
 12 13  1  0  0  0  0
 12 26  1  6  0  0  0
 12 50  1  0  0  0  0
 13 15  1  0  0  0  0
 13 16  1  0  0  0  0
 13 51  1  0  0  0  0
 14 52  1  0  0  0  0
 14 53  1  0  0  0  0
 15 20  1  0  0  0  0
 15 54  1  0  0  0  0
 15 55  1  0  0  0  0
 16 21  1  0  0  0  0
 16 56  1  0  0  0  0
 16 57  1  0  0  0  0
 17 27  2  0  0  0  0
 17 28  1  0  0  0  0
 18 24  1  0  0  0  0
 18 58  1  0  0  0  0
 18 59  1  0  0  0  0
 19 25  1  0  0  0  0
 19 60  1  0  0  0  0
 19 61  1  0  0  0  0
 20 23  1  0  0  0  0
 20 62  1  0  0  0  0
 20 63  1  0  0  0  0
 21 23  1  0  0  0  0
 21 64  1  0  0  0  0
 21 65  1  0  0  0  0
 22 24  1  0  0  0  0
 22 25  1  0  0  0  0
 22 29  1  0  0  0  0
 22 66  1  0  0  0  0
 23 67  1  0  0  0  0
 23 68  1  0  0  0  0
 24 69  1  0  0  0  0
 24 70  1  0  0  0  0
 25 71  1  0  0  0  0
 25 72  1  0  0  0  0
 27 30  1  0  0  0  0
 27 73  1  0  0  0  0
 28 31  2  0  0  0  0
 28 74  1  0  0  0  0
 29 32  2  0  0  0  0
 30 33  2  0  0  0  0
 30 75  1  0  0  0  0
 31 33  1  0  0  0  0
 31 76  1  0  0  0  0
 32 34  1  0  0  0  0
 32 78  1  0  0  0  0
 33 79  1  0  0  0  0
 34 36  1  0  0  0  0
 35 37  1  0  0  0  0
 35 80  1  0  0  0  0
 35 81  1  0  0  0  0
 36 38  2  0  0  0  0
 36 39  1  0  0  0  0
 37 82  1  0  0  0  0
 37 83  1  0  0  0  0
 37 84  1  0  0  0  0
 38 40  1  0  0  0  0
 38 85  1  0  0  0  0
 39 41  2  0  0  0  0
 39 86  1  0  0  0  0
 40 42  2  0  0  0  0
 40 87  1  0  0  0  0
 41 42  1  0  0  0  0
 41 88  1  0  0  0  0
 42 43  1  0  0  0  0
 43 89  1  0  0  0  0
 43 90  1  0  0  0  0
M  END
> <PUBCHEM_COMPOUND_CID>
516346
> <PUBCHEM_COMPOUND_CANONICALIZED>
1
> <PUBCHEM_CACTVS_COMPLEXITY>
860
> <PUBCHEM_CACTVS_HBOND_ACCEPTOR>
6
> <PUBCHEM_CACTVS_HBOND_DONOR>
2
> <PUBCHEM_CACTVS_ROTATABLE_BOND>
10
> <PUBCHEM_CACTVS_SUBSKEYS>
AAADcfB/sAAAAAAAAAAAAAAAAAAAAWLAAAA8YMEAAAAAAAAB0AAAHgAYCAAADSjBngQyiJNIAgCqAyTyTACSBAAhggAY2KG4ZJgKILLA0fGE5AhkiADYyAeYyOCOwAAAAAAAAACAAAAAAAAAAAAAAAAAAA==
> <PUBCHEM_IUPAC_OPENEYE_NAME>
(2R)-2-[(3S,4S)-3-[[4-[5-[4-(aminomethyl)phenyl]-2-ethyl-pyrazol-3-yl]-1-piperidyl]methyl]-4-phenyl-pyrrolidin-1-yl]-2-cyclohexyl-acetic acid
> <PUBCHEM_IUPAC_CAS_NAME>
(2R)-2-[(3S,4S)-3-[[4-[5-[4-(aminomethyl)phenyl]-2-ethyl-3-pyrazolyl]-1-piperidinyl]methyl]-4-phenyl-1-pyrrolidinyl]-2-cyclohexylacetic acid
> <PUBCHEM_IUPAC_NAME_MARKUP>
(2<I>R</I>)-2-[(3<I>S</I>,4<I>S</I>)-3-[[4-[5-[4-(aminomethyl)phenyl]-2-ethylpyrazol-3-yl]piperidin-1-yl]methyl]-4-phenylpyrrolidin-1-yl]-2-cyclohexylacetic acid
> <PUBCHEM_IUPAC_NAME>
(2R)-2-[(3S,4S)-3-[[4-[5-[4-(aminomethyl)phenyl]-2-ethylpyrazol-3-yl]piperidin-1-yl]methyl]-4-phenylpyrrolidin-1-yl]-2-cyclohexylacetic acid
> <PUBCHEM_IUPAC_SYSTEMATIC_NAME>
(2R)-2-[(3S,4S)-3-[[4-[5-[4-(aminomethyl)phenyl]-2-ethyl-pyrazol-3-yl]piperidin-1-yl]methyl]-4-phenyl-pyrrolidin-1-yl]-2-cyclohexyl-ethanoic acid
> <PUBCHEM_IUPAC_TRADITIONAL_NAME>
(2R)-2-[(3S,4S)-3-[[4-[5-[4-(aminomethyl)phenyl]-2-ethyl-pyrazol-3-yl]piperidino]methyl]-4-phenyl-pyrrolidino]-2-cyclohexyl-acetic acid
> <PUBCHEM_IUPAC_INCHI>
InChI=1S/C36H49N5O2/c1-2-41-34(21-33(38-41)28-15-13-26(22-37)14-16-28)29-17-19-39(20-18-29)23-31-24-40(25-32(31)27-9-5-3-6-10-27)35(36(42)43)30-11-7-4-8-12-30/h3,5-6,9-10,13-16,21,29-32,35H,2,4,7-8,11-12,17-20,22-25,37H2,1H3,(H,42,43)/t31-,32+,35+/m0/s1
> <PUBCHEM_IUPAC_INCHIKEY>
YJMFAXOJBXHJLD-GTXBZULCSA-N
> <PUBCHEM_XLOGP3_AA>
3.2
> <PUBCHEM_EXACT_MASS>
583.38862582
> <PUBCHEM_MOLECULAR_FORMULA>
C36H49N5O2
> <PUBCHEM_MOLECULAR_WEIGHT>
583.8
> <PUBCHEM_OPENEYE_CAN_SMILES>
CCN1C(=CC(=N1)C2=CC=C(C=C2)CN)C3CCN(CC3)CC4CN(CC4C5=CC=CC=C5)C(C6CCCCC6)C(=O)O
> <PUBCHEM_OPENEYE_ISO_SMILES>
CCN1C(=CC(=N1)C2=CC=C(C=C2)CN)C3CCN(CC3)C[C@H]4CN(C[C@@H]4C5=CC=CC=C5)[C@H](C6CCCCC6)C(=O)O
> <PUBCHEM_CACTVS_TPSA>
87.6
> <PUBCHEM_MONOISOTOPIC_WEIGHT>
583.38862582
> <PUBCHEM_TOTAL_CHARGE>
0
> <PUBCHEM_HEAVY_ATOM_COUNT>
43
> <PUBCHEM_ATOM_DEF_STEREO_COUNT>
3
> <PUBCHEM_ATOM_UDEF_STEREO_COUNT>
0
> <PUBCHEM_BOND_DEF_STEREO_COUNT>
0
> <PUBCHEM_BOND_UDEF_STEREO_COUNT>
0
> <PUBCHEM_ISOTOPIC_ATOM_COUNT>
0
> <PUBCHEM_COMPONENT_COUNT>
1
> <PUBCHEM_CACTVS_TAUTO_COUNT>
-1
> <PUBCHEM_COORDINATE_TYPE>
1
5
255
> <PUBCHEM_BONDANNOTATIONS>
12  26  6
17  27  8
17  28  8
27  30  8
28  31  8
29  32  8
30  33  8
31  33  8
32  34  8
36  38  8
36  39  8
38  40  8
39  41  8
40  42  8
41  42  8
5  29  8
5  6  8
6  34  8
8  14  6
9  17  5
$$$$
