516363
  -OEChem-10302200282D
 86 90  0     1  0  0  0  0  0999 V2000
    2.4067   -4.0752    0.0000 O   0  0  0  0  0  0  0  0  0  0  0  0
    3.8080   -5.0932    0.0000 O   0  0  0  0  0  0  0  0  0  0  0  0
    4.9836   -3.4752    0.0000 N   0  0  3  0  0  0  0  0  0  0  0  0
    7.4323   -1.6388    0.0000 N   0  0  0  0  0  0  0  0  0  0  0  0
    6.6232    1.9490    0.0000 N   0  0  0  0  0  0  0  0  0  0  0  0
    6.9323    2.9001    0.0000 N   0  0  0  0  0  0  0  0  0  0  0  0
    6.5662   -3.1388    0.0000 C   0  0  2  0  0  0  0  0  0  0  0  0
    6.4617   -4.1333    0.0000 C   0  0  2  0  0  0  0  0  0  0  0  0
    5.6527   -2.7320    0.0000 C   0  0  0  0  0  0  0  0  0  0  0  0
    5.4836   -4.3412    0.0000 C   0  0  0  0  0  0  0  0  0  0  0  0
    7.4323   -2.6388    0.0000 C   0  0  0  0  0  0  0  0  0  0  0  0
    3.9890   -3.3707    0.0000 C   0  0  2  0  0  0  0  0  0  0  0  0
    6.5662   -1.1388    0.0000 C   0  0  0  0  0  0  0  0  0  0  0  0
    8.2983   -1.1388    0.0000 C   0  0  0  0  0  0  0  0  0  0  0  0
    7.2049   -4.8024    0.0000 C   0  0  0  0  0  0  0  0  0  0  0  0
    7.4323    0.3612    0.0000 C   0  0  0  0  0  0  0  0  0  0  0  0
    6.5662   -0.1388    0.0000 C   0  0  0  0  0  0  0  0  0  0  0  0
    8.2983   -0.1388    0.0000 C   0  0  0  0  0  0  0  0  0  0  0  0
    3.5823   -2.4571    0.0000 C   0  0  0  0  0  0  0  0  0  0  0  0
    7.4323    1.3612    0.0000 C   0  0  0  0  0  0  0  0  0  0  0  0
    2.5878   -2.3526    0.0000 C   0  0  0  0  0  0  0  0  0  0  0  0
    3.4013   -4.1797    0.0000 C   0  0  0  0  0  0  0  0  0  0  0  0
    6.9970   -5.7806    0.0000 C   0  0  0  0  0  0  0  0  0  0  0  0
    8.1559   -4.4934    0.0000 C   0  0  0  0  0  0  0  0  0  0  0  0
    8.2413    1.9490    0.0000 C   0  0  0  0  0  0  0  0  0  0  0  0
    2.1810   -1.4390    0.0000 C   0  0  0  0  0  0  0  0  0  0  0  0
    2.0000   -3.1616    0.0000 C   0  0  0  0  0  0  0  0  0  0  0  0
    7.7401   -6.4497    0.0000 C   0  0  0  0  0  0  0  0  0  0  0  0
    8.8991   -5.1626    0.0000 C   0  0  0  0  0  0  0  0  0  0  0  0
    7.9323    2.9001    0.0000 C   0  0  0  0  0  0  0  0  0  0  0  0
    8.6912   -6.1407    0.0000 C   0  0  0  0  0  0  0  0  0  0  0  0
    5.6722    1.6400    0.0000 C   0  0  0  0  0  0  0  0  0  0  0  0
    8.5200    3.7091    0.0000 C   0  0  0  0  0  0  0  0  0  0  0  0
    4.9290    2.3091    0.0000 C   0  0  0  0  0  0  0  0  0  0  0  0
    8.1133    4.6226    0.0000 C   0  0  0  0  0  0  0  0  0  0  0  0
    7.1188    4.7272    0.0000 C   0  0  0  0  0  0  0  0  0  0  0  0
    8.7011    5.4316    0.0000 C   0  0  0  0  0  0  0  0  0  0  0  0
    6.7121    5.6407    0.0000 C   0  0  0  0  0  0  0  0  0  0  0  0
    8.2944    6.3452    0.0000 C   0  0  0  0  0  0  0  0  0  0  0  0
    7.2998    6.4497    0.0000 C   0  0  0  0  0  0  0  0  0  0  0  0
    6.5338   -2.5196    0.0000 H   0  0  0  0  0  0  0  0  0  0  0  0
    6.3012   -4.7322    0.0000 H   0  0  0  0  0  0  0  0  0  0  0  0
    5.9627   -2.1951    0.0000 H   0  0  0  0  0  0  0  0  0  0  0  0
    5.1511   -2.3676    0.0000 H   0  0  0  0  0  0  0  0  0  0  0  0
    4.9172   -4.5934    0.0000 H   0  0  0  0  0  0  0  0  0  0  0  0
    5.6752   -4.9309    0.0000 H   0  0  0  0  0  0  0  0  0  0  0  0
    7.6443   -3.2214    0.0000 H   0  0  0  0  0  0  0  0  0  0  0  0
    8.0428   -2.5311    0.0000 H   0  0  0  0  0  0  0  0  0  0  0  0
    4.6056   -3.4355    0.0000 H   0  0  0  0  0  0  0  0  0  0  0  0
    5.9557   -1.0311    0.0000 H   0  0  0  0  0  0  0  0  0  0  0  0
    6.3542   -1.7214    0.0000 H   0  0  0  0  0  0  0  0  0  0  0  0
    8.5103   -1.7214    0.0000 H   0  0  0  0  0  0  0  0  0  0  0  0
    8.9089   -1.0311    0.0000 H   0  0  0  0  0  0  0  0  0  0  0  0
    7.9692    0.6712    0.0000 H   0  0  0  0  0  0  0  0  0  0  0  0
    6.3542    0.4438    0.0000 H   0  0  0  0  0  0  0  0  0  0  0  0
    5.9557   -0.2464    0.0000 H   0  0  0  0  0  0  0  0  0  0  0  0
    8.9089   -0.2464    0.0000 H   0  0  0  0  0  0  0  0  0  0  0  0
    8.5103    0.4438    0.0000 H   0  0  0  0  0  0  0  0  0  0  0  0
    4.1839   -2.3071    0.0000 H   0  0  0  0  0  0  0  0  0  0  0  0
    3.5391   -1.8386    0.0000 H   0  0  0  0  0  0  0  0  0  0  0  0
    1.9712   -2.2878    0.0000 H   0  0  0  0  0  0  0  0  0  0  0  0
    6.4073   -5.9722    0.0000 H   0  0  0  0  0  0  0  0  0  0  0  0
    8.2848   -3.8870    0.0000 H   0  0  0  0  0  0  0  0  0  0  0  0
    8.8309    1.7574    0.0000 H   0  0  0  0  0  0  0  0  0  0  0  0
    2.7474   -1.1869    0.0000 H   0  0  0  0  0  0  0  0  0  0  0  0
    1.9289   -0.8726    0.0000 H   0  0  0  0  0  0  0  0  0  0  0  0
    1.6146   -1.6912    0.0000 H   0  0  0  0  0  0  0  0  0  0  0  0
    1.4984   -2.7972    0.0000 H   0  0  0  0  0  0  0  0  0  0  0  0
    1.6356   -3.6632    0.0000 H   0  0  0  0  0  0  0  0  0  0  0  0
    2.5016   -3.5260    0.0000 H   0  0  0  0  0  0  0  0  0  0  0  0
    7.6112   -7.0562    0.0000 H   0  0  0  0  0  0  0  0  0  0  0  0
    9.4887   -4.9710    0.0000 H   0  0  0  0  0  0  0  0  0  0  0  0
    9.1519   -6.5556    0.0000 H   0  0  0  0  0  0  0  0  0  0  0  0
    5.1836    1.2583    0.0000 H   0  0  0  0  0  0  0  0  0  0  0  0
    5.9633    1.0926    0.0000 H   0  0  0  0  0  0  0  0  0  0  0  0
    2.0423   -4.5767    0.0000 H   0  0  0  0  0  0  0  0  0  0  0  0
    8.9507    3.2631    0.0000 H   0  0  0  0  0  0  0  0  0  0  0  0
    9.0341    4.0558    0.0000 H   0  0  0  0  0  0  0  0  0  0  0  0
    5.3439    2.7699    0.0000 H   0  0  0  0  0  0  0  0  0  0  0  0
    4.4683    2.7240    0.0000 H   0  0  0  0  0  0  0  0  0  0  0  0
    4.5142    1.8484    0.0000 H   0  0  0  0  0  0  0  0  0  0  0  0
    6.7544    4.2256    0.0000 H   0  0  0  0  0  0  0  0  0  0  0  0
    9.3177    5.3668    0.0000 H   0  0  0  0  0  0  0  0  0  0  0  0
    6.0954    5.7055    0.0000 H   0  0  0  0  0  0  0  0  0  0  0  0
    8.6588    6.8468    0.0000 H   0  0  0  0  0  0  0  0  0  0  0  0
    7.0477    7.0161    0.0000 H   0  0  0  0  0  0  0  0  0  0  0  0
  1 22  1  0  0  0  0
  1 76  1  0  0  0  0
  2 22  2  0  0  0  0
  3  9  1  0  0  0  0
  3 10  1  0  0  0  0
  3 12  1  0  0  0  0
  4 11  1  0  0  0  0
  4 13  1  0  0  0  0
  4 14  1  0  0  0  0
  5  6  1  0  0  0  0
  5 20  1  0  0  0  0
  5 32  1  0  0  0  0
  6 30  2  0  0  0  0
  7  8  1  0  0  0  0
  7  9  1  0  0  0  0
  7 11  1  6  0  0  0
  7 41  1  0  0  0  0
  8 10  1  0  0  0  0
  8 15  1  1  0  0  0
  8 42  1  0  0  0  0
  9 43  1  0  0  0  0
  9 44  1  0  0  0  0
 10 45  1  0  0  0  0
 10 46  1  0  0  0  0
 11 47  1  0  0  0  0
 11 48  1  0  0  0  0
 12 19  1  1  0  0  0
 12 22  1  0  0  0  0
 12 49  1  0  0  0  0
 13 17  1  0  0  0  0
 13 50  1  0  0  0  0
 13 51  1  0  0  0  0
 14 18  1  0  0  0  0
 14 52  1  0  0  0  0
 14 53  1  0  0  0  0
 15 23  2  0  0  0  0
 15 24  1  0  0  0  0
 16 17  1  0  0  0  0
 16 18  1  0  0  0  0
 16 20  1  0  0  0  0
 16 54  1  0  0  0  0
 17 55  1  0  0  0  0
 17 56  1  0  0  0  0
 18 57  1  0  0  0  0
 18 58  1  0  0  0  0
 19 21  1  0  0  0  0
 19 59  1  0  0  0  0
 19 60  1  0  0  0  0
 20 25  2  0  0  0  0
 21 26  1  0  0  0  0
 21 27  1  0  0  0  0
 21 61  1  0  0  0  0
 23 28  1  0  0  0  0
 23 62  1  0  0  0  0
 24 29  2  0  0  0  0
 24 63  1  0  0  0  0
 25 30  1  0  0  0  0
 25 64  1  0  0  0  0
 26 65  1  0  0  0  0
 26 66  1  0  0  0  0
 26 67  1  0  0  0  0
 27 68  1  0  0  0  0
 27 69  1  0  0  0  0
 27 70  1  0  0  0  0
 28 31  2  0  0  0  0
 28 71  1  0  0  0  0
 29 31  1  0  0  0  0
 29 72  1  0  0  0  0
 30 33  1  0  0  0  0
 31 73  1  0  0  0  0
 32 34  1  0  0  0  0
 32 74  1  0  0  0  0
 32 75  1  0  0  0  0
 33 35  1  0  0  0  0
 33 77  1  0  0  0  0
 33 78  1  0  0  0  0
 34 79  1  0  0  0  0
 34 80  1  0  0  0  0
 34 81  1  0  0  0  0
 35 36  2  0  0  0  0
 35 37  1  0  0  0  0
 36 38  1  0  0  0  0
 36 82  1  0  0  0  0
 37 39  2  0  0  0  0
 37 83  1  0  0  0  0
 38 40  2  0  0  0  0
 38 84  1  0  0  0  0
 39 40  1  0  0  0  0
 39 85  1  0  0  0  0
 40 86  1  0  0  0  0
M  END
> <PUBCHEM_COMPOUND_CID>
516363
> <PUBCHEM_COMPOUND_CANONICALIZED>
1
> <PUBCHEM_CACTVS_COMPLEXITY>
772
> <PUBCHEM_CACTVS_HBOND_ACCEPTOR>
5
> <PUBCHEM_CACTVS_HBOND_DONOR>
1
> <PUBCHEM_CACTVS_ROTATABLE_BOND>
11
> <PUBCHEM_CACTVS_SUBSKEYS>
AAADcfB/sAAAAAAAAAAAAAAAAAAAAWLAAAA8YIAAAAAAAAAB0AAAHgAICAAADSjBngQyiJMIAgCqAyTyTACSBAAhggAY2CG4ZJgKIDLA0fGE5AhkiADYyAeYgMAOgAAAAAAAAAAAAAAAAAAAAAAAAAAAAA==
> <PUBCHEM_IUPAC_OPENEYE_NAME>
(2R)-2-[(3S,4S)-3-[[4-(5-benzyl-2-ethyl-pyrazol-3-yl)-1-piperidyl]methyl]-4-phenyl-pyrrolidin-1-yl]-4-methyl-pentanoic acid
> <PUBCHEM_IUPAC_CAS_NAME>
(2R)-2-[(3S,4S)-3-[[4-[2-ethyl-5-(phenylmethyl)-3-pyrazolyl]-1-piperidinyl]methyl]-4-phenyl-1-pyrrolidinyl]-4-methylpentanoic acid
> <PUBCHEM_IUPAC_NAME_MARKUP>
(2<I>R</I>)-2-[(3<I>S</I>,4<I>S</I>)-3-[[4-(5-benzyl-2-ethylpyrazol-3-yl)piperidin-1-yl]methyl]-4-phenylpyrrolidin-1-yl]-4-methylpentanoic acid
> <PUBCHEM_IUPAC_NAME>
(2R)-2-[(3S,4S)-3-[[4-(5-benzyl-2-ethylpyrazol-3-yl)piperidin-1-yl]methyl]-4-phenylpyrrolidin-1-yl]-4-methylpentanoic acid
> <PUBCHEM_IUPAC_SYSTEMATIC_NAME>
(2R)-2-[(3S,4S)-3-[[4-[2-ethyl-5-(phenylmethyl)pyrazol-3-yl]piperidin-1-yl]methyl]-4-phenyl-pyrrolidin-1-yl]-4-methyl-pentanoic acid
> <PUBCHEM_IUPAC_TRADITIONAL_NAME>
(2R)-2-[(3S,4S)-3-[[4-(5-benzyl-2-ethyl-pyrazol-3-yl)piperidino]methyl]-4-phenyl-pyrrolidino]-4-methyl-valeric acid
> <PUBCHEM_IUPAC_INCHI>
InChI=1S/C34H46N4O2/c1-4-38-32(21-30(35-38)20-26-11-7-5-8-12-26)28-15-17-36(18-16-28)22-29-23-37(33(34(39)40)19-25(2)3)24-31(29)27-13-9-6-10-14-27/h5-14,21,25,28-29,31,33H,4,15-20,22-24H2,1-3H3,(H,39,40)/t29-,31+,33+/m0/s1
> <PUBCHEM_IUPAC_INCHIKEY>
ZTZVDDZSGANOSN-KCTCJIHVSA-N
> <PUBCHEM_XLOGP3_AA>
4
> <PUBCHEM_EXACT_MASS>
542.36207672
> <PUBCHEM_MOLECULAR_FORMULA>
C34H46N4O2
> <PUBCHEM_MOLECULAR_WEIGHT>
542.8
> <PUBCHEM_OPENEYE_CAN_SMILES>
CCN1C(=CC(=N1)CC2=CC=CC=C2)C3CCN(CC3)CC4CN(CC4C5=CC=CC=C5)C(CC(C)C)C(=O)O
> <PUBCHEM_OPENEYE_ISO_SMILES>
CCN1C(=CC(=N1)CC2=CC=CC=C2)C3CCN(CC3)C[C@H]4CN(C[C@@H]4C5=CC=CC=C5)[C@H](CC(C)C)C(=O)O
> <PUBCHEM_CACTVS_TPSA>
61.6
> <PUBCHEM_MONOISOTOPIC_WEIGHT>
542.36207672
> <PUBCHEM_TOTAL_CHARGE>
0
> <PUBCHEM_HEAVY_ATOM_COUNT>
40
> <PUBCHEM_ATOM_DEF_STEREO_COUNT>
3
> <PUBCHEM_ATOM_UDEF_STEREO_COUNT>
0
> <PUBCHEM_BOND_DEF_STEREO_COUNT>
0
> <PUBCHEM_BOND_UDEF_STEREO_COUNT>
0
> <PUBCHEM_ISOTOPIC_ATOM_COUNT>
0
> <PUBCHEM_COMPONENT_COUNT>
1
> <PUBCHEM_CACTVS_TAUTO_COUNT>
-1
> <PUBCHEM_COORDINATE_TYPE>
1
5
255
> <PUBCHEM_BONDANNOTATIONS>
12  19  5
15  23  8
15  24  8
20  25  8
23  28  8
24  29  8
25  30  8
28  31  8
29  31  8
35  36  8
35  37  8
36  38  8
37  39  8
38  40  8
39  40  8
5  20  8
5  6  8
6  30  8
7  11  6
8  15  5
$$$$
