516356
  -OEChem-10302200282D
 89 94  0     1  0  0  0  0  0999 V2000
    2.3644   -4.0752    0.0000 O   0  0  0  0  0  0  0  0  0  0  0  0
    3.7657   -5.0932    0.0000 O   0  0  0  0  0  0  0  0  0  0  0  0
    9.4723    3.6046    0.0000 O   0  0  0  0  0  0  0  0  0  0  0  0
    4.9413   -3.4752    0.0000 N   0  0  3  0  0  0  0  0  0  0  0  0
    7.3900   -1.6388    0.0000 N   0  0  0  0  0  0  0  0  0  0  0  0
    6.5809    1.9490    0.0000 N   0  0  0  0  0  0  0  0  0  0  0  0
    6.8900    2.9001    0.0000 N   0  0  0  0  0  0  0  0  0  0  0  0
    6.5239   -3.1388    0.0000 C   0  0  2  0  0  0  0  0  0  0  0  0
    6.4194   -4.1333    0.0000 C   0  0  2  0  0  0  0  0  0  0  0  0
    5.6104   -2.7320    0.0000 C   0  0  0  0  0  0  0  0  0  0  0  0
    5.4413   -4.3412    0.0000 C   0  0  0  0  0  0  0  0  0  0  0  0
    3.9467   -3.3707    0.0000 C   0  0  2  0  0  0  0  0  0  0  0  0
    3.5400   -2.4571    0.0000 C   0  0  0  0  0  0  0  0  0  0  0  0
    7.3900   -2.6388    0.0000 C   0  0  0  0  0  0  0  0  0  0  0  0
    2.5455   -2.3526    0.0000 C   0  0  0  0  0  0  0  0  0  0  0  0
    4.1278   -1.6481    0.0000 C   0  0  0  0  0  0  0  0  0  0  0  0
    7.1626   -4.8024    0.0000 C   0  0  0  0  0  0  0  0  0  0  0  0
    6.5239   -1.1388    0.0000 C   0  0  0  0  0  0  0  0  0  0  0  0
    8.2560   -1.1388    0.0000 C   0  0  0  0  0  0  0  0  0  0  0  0
    2.1387   -1.4390    0.0000 C   0  0  0  0  0  0  0  0  0  0  0  0
    3.7210   -0.7346    0.0000 C   0  0  0  0  0  0  0  0  0  0  0  0
    7.3900    0.3612    0.0000 C   0  0  0  0  0  0  0  0  0  0  0  0
    2.7265   -0.6300    0.0000 C   0  0  0  0  0  0  0  0  0  0  0  0
    6.5239   -0.1388    0.0000 C   0  0  0  0  0  0  0  0  0  0  0  0
    8.2560   -0.1388    0.0000 C   0  0  0  0  0  0  0  0  0  0  0  0
    3.3590   -4.1797    0.0000 C   0  0  0  0  0  0  0  0  0  0  0  0
    6.9546   -5.7806    0.0000 C   0  0  0  0  0  0  0  0  0  0  0  0
    8.1136   -4.4934    0.0000 C   0  0  0  0  0  0  0  0  0  0  0  0
    7.3900    1.3612    0.0000 C   0  0  0  0  0  0  0  0  0  0  0  0
    7.6978   -6.4497    0.0000 C   0  0  0  0  0  0  0  0  0  0  0  0
    8.8568   -5.1626    0.0000 C   0  0  0  0  0  0  0  0  0  0  0  0
    8.1990    1.9490    0.0000 C   0  0  0  0  0  0  0  0  0  0  0  0
    8.6488   -6.1407    0.0000 C   0  0  0  0  0  0  0  0  0  0  0  0
    7.8900    2.9001    0.0000 C   0  0  0  0  0  0  0  0  0  0  0  0
    5.6299    1.6400    0.0000 C   0  0  0  0  0  0  0  0  0  0  0  0
    4.8867    2.3091    0.0000 C   0  0  0  0  0  0  0  0  0  0  0  0
    8.4777    3.7091    0.0000 C   0  0  0  0  0  0  0  0  0  0  0  0
    8.0710    4.6226    0.0000 C   0  0  0  0  0  0  0  0  0  0  0  0
    7.0765    4.7272    0.0000 C   0  0  0  0  0  0  0  0  0  0  0  0
    8.6588    5.4316    0.0000 C   0  0  0  0  0  0  0  0  0  0  0  0
    6.6698    5.6407    0.0000 C   0  0  0  0  0  0  0  0  0  0  0  0
    8.2520    6.3452    0.0000 C   0  0  0  0  0  0  0  0  0  0  0  0
    7.2575    6.4497    0.0000 C   0  0  0  0  0  0  0  0  0  0  0  0
    6.4915   -2.5196    0.0000 H   0  0  0  0  0  0  0  0  0  0  0  0
    6.2589   -4.7322    0.0000 H   0  0  0  0  0  0  0  0  0  0  0  0
    5.9204   -2.1951    0.0000 H   0  0  0  0  0  0  0  0  0  0  0  0
    5.1088   -2.3676    0.0000 H   0  0  0  0  0  0  0  0  0  0  0  0
    4.8749   -4.5934    0.0000 H   0  0  0  0  0  0  0  0  0  0  0  0
    5.6328   -4.9309    0.0000 H   0  0  0  0  0  0  0  0  0  0  0  0
    4.1989   -3.9371    0.0000 H   0  0  0  0  0  0  0  0  0  0  0  0
    3.1756   -2.9587    0.0000 H   0  0  0  0  0  0  0  0  0  0  0  0
    7.6020   -3.2214    0.0000 H   0  0  0  0  0  0  0  0  0  0  0  0
    8.0005   -2.5311    0.0000 H   0  0  0  0  0  0  0  0  0  0  0  0
    1.9439   -2.5026    0.0000 H   0  0  0  0  0  0  0  0  0  0  0  0
    2.5887   -2.9711    0.0000 H   0  0  0  0  0  0  0  0  0  0  0  0
    4.5585   -2.0941    0.0000 H   0  0  0  0  0  0  0  0  0  0  0  0
    4.6418   -1.3014    0.0000 H   0  0  0  0  0  0  0  0  0  0  0  0
    5.9134   -1.0311    0.0000 H   0  0  0  0  0  0  0  0  0  0  0  0
    6.3119   -1.7214    0.0000 H   0  0  0  0  0  0  0  0  0  0  0  0
    8.4680   -1.7214    0.0000 H   0  0  0  0  0  0  0  0  0  0  0  0
    8.8666   -1.0311    0.0000 H   0  0  0  0  0  0  0  0  0  0  0  0
    1.7080   -0.9931    0.0000 H   0  0  0  0  0  0  0  0  0  0  0  0
    1.6247   -1.7857    0.0000 H   0  0  0  0  0  0  0  0  0  0  0  0
    4.3226   -0.5846    0.0000 H   0  0  0  0  0  0  0  0  0  0  0  0
    3.6778   -0.1161    0.0000 H   0  0  0  0  0  0  0  0  0  0  0  0
    7.9269    0.6712    0.0000 H   0  0  0  0  0  0  0  0  0  0  0  0
    2.8974   -0.0340    0.0000 H   0  0  0  0  0  0  0  0  0  0  0  0
    2.1693   -0.3582    0.0000 H   0  0  0  0  0  0  0  0  0  0  0  0
    6.3119    0.4438    0.0000 H   0  0  0  0  0  0  0  0  0  0  0  0
    5.9134   -0.2464    0.0000 H   0  0  0  0  0  0  0  0  0  0  0  0
    8.8666   -0.2464    0.0000 H   0  0  0  0  0  0  0  0  0  0  0  0
    8.4680    0.4438    0.0000 H   0  0  0  0  0  0  0  0  0  0  0  0
    6.3650   -5.9722    0.0000 H   0  0  0  0  0  0  0  0  0  0  0  0
    8.2425   -3.8870    0.0000 H   0  0  0  0  0  0  0  0  0  0  0  0
    7.5689   -7.0562    0.0000 H   0  0  0  0  0  0  0  0  0  0  0  0
    9.4464   -4.9710    0.0000 H   0  0  0  0  0  0  0  0  0  0  0  0
    2.0000   -4.5767    0.0000 H   0  0  0  0  0  0  0  0  0  0  0  0
    8.7886    1.7574    0.0000 H   0  0  0  0  0  0  0  0  0  0  0  0
    9.1096   -6.5556    0.0000 H   0  0  0  0  0  0  0  0  0  0  0  0
    5.1413    1.2583    0.0000 H   0  0  0  0  0  0  0  0  0  0  0  0
    5.9210    1.0926    0.0000 H   0  0  0  0  0  0  0  0  0  0  0  0
    5.3016    2.7699    0.0000 H   0  0  0  0  0  0  0  0  0  0  0  0
    4.4260    2.7240    0.0000 H   0  0  0  0  0  0  0  0  0  0  0  0
    4.4719    1.8484    0.0000 H   0  0  0  0  0  0  0  0  0  0  0  0
    6.7121    4.2256    0.0000 H   0  0  0  0  0  0  0  0  0  0  0  0
    9.2754    5.3668    0.0000 H   0  0  0  0  0  0  0  0  0  0  0  0
    6.0531    5.7055    0.0000 H   0  0  0  0  0  0  0  0  0  0  0  0
    8.6165    6.8468    0.0000 H   0  0  0  0  0  0  0  0  0  0  0  0
    7.0054    7.0161    0.0000 H   0  0  0  0  0  0  0  0  0  0  0  0
  1 26  1  0  0  0  0
  1 77  1  0  0  0  0
  2 26  2  0  0  0  0
  3 37  2  0  0  0  0
  4 10  1  0  0  0  0
  4 11  1  0  0  0  0
  4 12  1  0  0  0  0
  5 14  1  0  0  0  0
  5 18  1  0  0  0  0
  5 19  1  0  0  0  0
  6  7  1  0  0  0  0
  6 29  1  0  0  0  0
  6 35  1  0  0  0  0
  7 34  2  0  0  0  0
  8  9  1  0  0  0  0
  8 10  1  0  0  0  0
  8 14  1  6  0  0  0
  8 44  1  0  0  0  0
  9 11  1  0  0  0  0
  9 17  1  1  0  0  0
  9 45  1  0  0  0  0
 10 46  1  0  0  0  0
 10 47  1  0  0  0  0
 11 48  1  0  0  0  0
 11 49  1  0  0  0  0
 12 13  1  0  0  0  0
 12 26  1  1  0  0  0
 12 50  1  0  0  0  0
 13 15  1  0  0  0  0
 13 16  1  0  0  0  0
 13 51  1  0  0  0  0
 14 52  1  0  0  0  0
 14 53  1  0  0  0  0
 15 20  1  0  0  0  0
 15 54  1  0  0  0  0
 15 55  1  0  0  0  0
 16 21  1  0  0  0  0
 16 56  1  0  0  0  0
 16 57  1  0  0  0  0
 17 27  2  0  0  0  0
 17 28  1  0  0  0  0
 18 24  1  0  0  0  0
 18 58  1  0  0  0  0
 18 59  1  0  0  0  0
 19 25  1  0  0  0  0
 19 60  1  0  0  0  0
 19 61  1  0  0  0  0
 20 23  1  0  0  0  0
 20 62  1  0  0  0  0
 20 63  1  0  0  0  0
 21 23  1  0  0  0  0
 21 64  1  0  0  0  0
 21 65  1  0  0  0  0
 22 24  1  0  0  0  0
 22 25  1  0  0  0  0
 22 29  1  0  0  0  0
 22 66  1  0  0  0  0
 23 67  1  0  0  0  0
 23 68  1  0  0  0  0
 24 69  1  0  0  0  0
 24 70  1  0  0  0  0
 25 71  1  0  0  0  0
 25 72  1  0  0  0  0
 27 30  1  0  0  0  0
 27 73  1  0  0  0  0
 28 31  2  0  0  0  0
 28 74  1  0  0  0  0
 29 32  2  0  0  0  0
 30 33  2  0  0  0  0
 30 75  1  0  0  0  0
 31 33  1  0  0  0  0
 31 76  1  0  0  0  0
 32 34  1  0  0  0  0
 32 78  1  0  0  0  0
 33 79  1  0  0  0  0
 34 37  1  0  0  0  0
 35 36  1  0  0  0  0
 35 80  1  0  0  0  0
 35 81  1  0  0  0  0
 36 82  1  0  0  0  0
 36 83  1  0  0  0  0
 36 84  1  0  0  0  0
 37 38  1  0  0  0  0
 38 39  2  0  0  0  0
 38 40  1  0  0  0  0
 39 41  1  0  0  0  0
 39 85  1  0  0  0  0
 40 42  2  0  0  0  0
 40 86  1  0  0  0  0
 41 43  2  0  0  0  0
 41 87  1  0  0  0  0
 42 43  1  0  0  0  0
 42 88  1  0  0  0  0
 43 89  1  0  0  0  0
M  END
> <PUBCHEM_COMPOUND_CID>
516356
> <PUBCHEM_COMPOUND_CANONICALIZED>
1
> <PUBCHEM_CACTVS_COMPLEXITY>
904
> <PUBCHEM_CACTVS_HBOND_ACCEPTOR>
6
> <PUBCHEM_CACTVS_HBOND_DONOR>
1
> <PUBCHEM_CACTVS_ROTATABLE_BOND>
10
> <PUBCHEM_CACTVS_SUBSKEYS>
AAADcfB/sAAAAAAAAAAAAAAAAAAAAWLAAAA8YMEAAAAAAAAB0AAAHgAICAAADSzBngQyiJMIAgCqA6TyTACSBAAnggAY2CG4ZNgKIDLA1fGE5QhkiADYyYecyOCOgAAAAAAAAAAAAAAAAAAAAAAAAAAAAA==
> <PUBCHEM_IUPAC_OPENEYE_NAME>
(2R)-2-[(3S,4S)-3-[[4-(5-benzoyl-2-ethyl-pyrazol-3-yl)-1-piperidyl]methyl]-4-phenyl-pyrrolidin-1-yl]-2-cyclohexyl-acetic acid
> <PUBCHEM_IUPAC_CAS_NAME>
(2R)-2-[(3S,4S)-3-[[4-(5-benzoyl-2-ethyl-3-pyrazolyl)-1-piperidinyl]methyl]-4-phenyl-1-pyrrolidinyl]-2-cyclohexylacetic acid
> <PUBCHEM_IUPAC_NAME_MARKUP>
(2<I>R</I>)-2-[(3<I>S</I>,4<I>S</I>)-3-[[4-(5-benzoyl-2-ethylpyrazol-3-yl)piperidin-1-yl]methyl]-4-phenylpyrrolidin-1-yl]-2-cyclohexylacetic acid
> <PUBCHEM_IUPAC_NAME>
(2R)-2-[(3S,4S)-3-[[4-(5-benzoyl-2-ethylpyrazol-3-yl)piperidin-1-yl]methyl]-4-phenylpyrrolidin-1-yl]-2-cyclohexylacetic acid
> <PUBCHEM_IUPAC_SYSTEMATIC_NAME>
(2R)-2-cyclohexyl-2-[(3S,4S)-3-[[4-[2-ethyl-5-(phenylcarbonyl)pyrazol-3-yl]piperidin-1-yl]methyl]-4-phenyl-pyrrolidin-1-yl]ethanoic acid
> <PUBCHEM_IUPAC_TRADITIONAL_NAME>
(2R)-2-[(3S,4S)-3-[[4-(5-benzoyl-2-ethyl-pyrazol-3-yl)piperidino]methyl]-4-phenyl-pyrrolidino]-2-cyclohexyl-acetic acid
> <PUBCHEM_IUPAC_INCHI>
InChI=1S/C36H46N4O3/c1-2-40-33(22-32(37-40)35(41)29-16-10-5-11-17-29)27-18-20-38(21-19-27)23-30-24-39(25-31(30)26-12-6-3-7-13-26)34(36(42)43)28-14-8-4-9-15-28/h3,5-7,10-13,16-17,22,27-28,30-31,34H,2,4,8-9,14-15,18-21,23-25H2,1H3,(H,42,43)/t30-,31+,34+/m0/s1
> <PUBCHEM_IUPAC_INCHIKEY>
JHBBXYDELYTENQ-BEJSXWRTSA-N
> <PUBCHEM_XLOGP3_AA>
4.4
> <PUBCHEM_EXACT_MASS>
582.35699134
> <PUBCHEM_MOLECULAR_FORMULA>
C36H46N4O3
> <PUBCHEM_MOLECULAR_WEIGHT>
582.8
> <PUBCHEM_OPENEYE_CAN_SMILES>
CCN1C(=CC(=N1)C(=O)C2=CC=CC=C2)C3CCN(CC3)CC4CN(CC4C5=CC=CC=C5)C(C6CCCCC6)C(=O)O
> <PUBCHEM_OPENEYE_ISO_SMILES>
CCN1C(=CC(=N1)C(=O)C2=CC=CC=C2)C3CCN(CC3)C[C@H]4CN(C[C@@H]4C5=CC=CC=C5)[C@H](C6CCCCC6)C(=O)O
> <PUBCHEM_CACTVS_TPSA>
78.7
> <PUBCHEM_MONOISOTOPIC_WEIGHT>
582.35699134
> <PUBCHEM_TOTAL_CHARGE>
0
> <PUBCHEM_HEAVY_ATOM_COUNT>
43
> <PUBCHEM_ATOM_DEF_STEREO_COUNT>
3
> <PUBCHEM_ATOM_UDEF_STEREO_COUNT>
0
> <PUBCHEM_BOND_DEF_STEREO_COUNT>
0
> <PUBCHEM_BOND_UDEF_STEREO_COUNT>
0
> <PUBCHEM_ISOTOPIC_ATOM_COUNT>
0
> <PUBCHEM_COMPONENT_COUNT>
1
> <PUBCHEM_CACTVS_TAUTO_COUNT>
-1
> <PUBCHEM_COORDINATE_TYPE>
1
5
255
> <PUBCHEM_BONDANNOTATIONS>
12  26  5
17  27  8
17  28  8
27  30  8
28  31  8
29  32  8
30  33  8
31  33  8
32  34  8
38  39  8
38  40  8
39  41  8
40  42  8
41  43  8
42  43  8
6  29  8
6  7  8
7  34  8
8  14  6
9  17  5
$$$$
