516360
  -OEChem-10302200282D
 94100  0     1  0  0  0  0  0999 V2000
    9.0269   -4.0752    0.0000 O   0  0  0  0  0  0  0  0  0  0  0  0
    7.6256   -5.0932    0.0000 O   0  0  0  0  0  0  0  0  0  0  0  0
    6.4500   -3.4752    0.0000 N   0  0  3  0  0  0  0  0  0  0  0  0
    4.0013   -1.6388    0.0000 N   0  0  0  0  0  0  0  0  0  0  0  0
    4.8104    1.9490    0.0000 N   0  0  0  0  0  0  0  0  0  0  0  0
    4.5013    2.9001    0.0000 N   0  0  0  0  0  0  0  0  0  0  0  0
    4.8674   -3.1388    0.0000 C   0  0  2  0  0  0  0  0  0  0  0  0
    2.9136    3.7091    0.0000 C   0  0  0  0  0  0  0  0  0  0  0  0
    4.9719   -4.1333    0.0000 C   0  0  2  0  0  0  0  0  0  0  0  0
    5.7809   -2.7320    0.0000 C   0  0  0  0  0  0  0  0  0  0  0  0
    2.0000    4.1158    0.0000 C   0  0  0  0  0  0  0  0  0  0  0  0
    2.1045    3.1213    0.0000 C   0  0  0  0  0  0  0  0  0  0  0  0
    5.9500   -4.3412    0.0000 C   0  0  0  0  0  0  0  0  0  0  0  0
    7.4446   -3.3707    0.0000 C   0  0  2  0  0  0  0  0  0  0  0  0
    4.0013   -2.6388    0.0000 C   0  0  0  0  0  0  0  0  0  0  0  0
    7.8513   -2.4571    0.0000 C   0  0  0  0  0  0  0  0  0  0  0  0
    4.0013    0.3612    0.0000 C   0  0  0  0  0  0  0  0  0  0  0  0
    3.5013    2.9001    0.0000 C   0  0  0  0  0  0  0  0  0  0  0  0
    3.1353   -1.1388    0.0000 C   0  0  0  0  0  0  0  0  0  0  0  0
    4.8674   -1.1388    0.0000 C   0  0  0  0  0  0  0  0  0  0  0  0
    3.1353   -0.1388    0.0000 C   0  0  0  0  0  0  0  0  0  0  0  0
    4.8674   -0.1388    0.0000 C   0  0  0  0  0  0  0  0  0  0  0  0
    3.3203    4.6226    0.0000 C   0  0  0  0  0  0  0  0  0  0  0  0
    7.2635   -1.6481    0.0000 C   0  0  0  0  0  0  0  0  0  0  0  0
    8.8458   -2.3526    0.0000 C   0  0  0  0  0  0  0  0  0  0  0  0
    4.0013    1.3612    0.0000 C   0  0  0  0  0  0  0  0  0  0  0  0
    4.2287   -4.8024    0.0000 C   0  0  0  0  0  0  0  0  0  0  0  0
    3.1923    1.9490    0.0000 C   0  0  0  0  0  0  0  0  0  0  0  0
    7.6702   -0.7346    0.0000 C   0  0  0  0  0  0  0  0  0  0  0  0
    9.2526   -1.4390    0.0000 C   0  0  0  0  0  0  0  0  0  0  0  0
    8.6648   -0.6300    0.0000 C   0  0  0  0  0  0  0  0  0  0  0  0
    8.0323   -4.1797    0.0000 C   0  0  0  0  0  0  0  0  0  0  0  0
    2.7325    5.4316    0.0000 C   0  0  0  0  0  0  0  0  0  0  0  0
    4.3148    4.7272    0.0000 C   0  0  0  0  0  0  0  0  0  0  0  0
    3.2777   -4.4934    0.0000 C   0  0  0  0  0  0  0  0  0  0  0  0
    4.4366   -5.7806    0.0000 C   0  0  0  0  0  0  0  0  0  0  0  0
    5.7614    1.6400    0.0000 C   0  0  0  0  0  0  0  0  0  0  0  0
    3.1392    6.3452    0.0000 C   0  0  0  0  0  0  0  0  0  0  0  0
    4.7215    5.6407    0.0000 C   0  0  0  0  0  0  0  0  0  0  0  0
    2.5345   -5.1626    0.0000 C   0  0  0  0  0  0  0  0  0  0  0  0
    3.6935   -6.4497    0.0000 C   0  0  0  0  0  0  0  0  0  0  0  0
    6.5046    2.3091    0.0000 C   0  0  0  0  0  0  0  0  0  0  0  0
    4.1338    6.4497    0.0000 C   0  0  0  0  0  0  0  0  0  0  0  0
    2.7424   -6.1407    0.0000 C   0  0  0  0  0  0  0  0  0  0  0  0
    4.3474   -3.4765    0.0000 H   0  0  0  0  0  0  0  0  0  0  0  0
    5.1324   -4.7322    0.0000 H   0  0  0  0  0  0  0  0  0  0  0  0
    6.2825   -2.3676    0.0000 H   0  0  0  0  0  0  0  0  0  0  0  0
    5.4709   -2.1951    0.0000 H   0  0  0  0  0  0  0  0  0  0  0  0
    2.1500    4.7174    0.0000 H   0  0  0  0  0  0  0  0  0  0  0  0
    1.3815    4.1591    0.0000 H   0  0  0  0  0  0  0  0  0  0  0  0
    1.5086    2.9504    0.0000 H   0  0  0  0  0  0  0  0  0  0  0  0
    2.3763    2.5640    0.0000 H   0  0  0  0  0  0  0  0  0  0  0  0
    5.7584   -4.9309    0.0000 H   0  0  0  0  0  0  0  0  0  0  0  0
    6.5164   -4.5934    0.0000 H   0  0  0  0  0  0  0  0  0  0  0  0
    7.1924   -3.9371    0.0000 H   0  0  0  0  0  0  0  0  0  0  0  0
    3.3908   -2.5311    0.0000 H   0  0  0  0  0  0  0  0  0  0  0  0
    3.7893   -3.2214    0.0000 H   0  0  0  0  0  0  0  0  0  0  0  0
    8.2157   -2.9587    0.0000 H   0  0  0  0  0  0  0  0  0  0  0  0
    4.5383    0.6712    0.0000 H   0  0  0  0  0  0  0  0  0  0  0  0
    2.5247   -1.0311    0.0000 H   0  0  0  0  0  0  0  0  0  0  0  0
    2.9232   -1.7214    0.0000 H   0  0  0  0  0  0  0  0  0  0  0  0
    5.0794   -1.7214    0.0000 H   0  0  0  0  0  0  0  0  0  0  0  0
    5.4779   -1.0311    0.0000 H   0  0  0  0  0  0  0  0  0  0  0  0
    2.9232    0.4438    0.0000 H   0  0  0  0  0  0  0  0  0  0  0  0
    2.5247   -0.2464    0.0000 H   0  0  0  0  0  0  0  0  0  0  0  0
    5.4779   -0.2464    0.0000 H   0  0  0  0  0  0  0  0  0  0  0  0
    5.0794    0.4438    0.0000 H   0  0  0  0  0  0  0  0  0  0  0  0
    6.7495   -1.3014    0.0000 H   0  0  0  0  0  0  0  0  0  0  0  0
    6.8328   -2.0941    0.0000 H   0  0  0  0  0  0  0  0  0  0  0  0
    8.8026   -2.9711    0.0000 H   0  0  0  0  0  0  0  0  0  0  0  0
    9.4474   -2.5026    0.0000 H   0  0  0  0  0  0  0  0  0  0  0  0
    2.6027    1.7574    0.0000 H   0  0  0  0  0  0  0  0  0  0  0  0
    7.7135   -0.1161    0.0000 H   0  0  0  0  0  0  0  0  0  0  0  0
    7.0687   -0.5846    0.0000 H   0  0  0  0  0  0  0  0  0  0  0  0
    9.7666   -1.7857    0.0000 H   0  0  0  0  0  0  0  0  0  0  0  0
    9.6832   -0.9931    0.0000 H   0  0  0  0  0  0  0  0  0  0  0  0
    9.2220   -0.3582    0.0000 H   0  0  0  0  0  0  0  0  0  0  0  0
    8.4939   -0.0340    0.0000 H   0  0  0  0  0  0  0  0  0  0  0  0
    2.1159    5.3668    0.0000 H   0  0  0  0  0  0  0  0  0  0  0  0
    4.6792    4.2256    0.0000 H   0  0  0  0  0  0  0  0  0  0  0  0
    3.1488   -3.8870    0.0000 H   0  0  0  0  0  0  0  0  0  0  0  0
    5.0263   -5.9722    0.0000 H   0  0  0  0  0  0  0  0  0  0  0  0
    5.4703    1.0926    0.0000 H   0  0  0  0  0  0  0  0  0  0  0  0
    6.2500    1.2583    0.0000 H   0  0  0  0  0  0  0  0  0  0  0  0
    2.7748    6.8468    0.0000 H   0  0  0  0  0  0  0  0  0  0  0  0
    5.3381    5.7055    0.0000 H   0  0  0  0  0  0  0  0  0  0  0  0
    1.9449   -4.9710    0.0000 H   0  0  0  0  0  0  0  0  0  0  0  0
    3.8224   -7.0562    0.0000 H   0  0  0  0  0  0  0  0  0  0  0  0
    9.3913   -4.5767    0.0000 H   0  0  0  0  0  0  0  0  0  0  0  0
    6.9194    1.8484    0.0000 H   0  0  0  0  0  0  0  0  0  0  0  0
    6.9653    2.7240    0.0000 H   0  0  0  0  0  0  0  0  0  0  0  0
    6.0897    2.7699    0.0000 H   0  0  0  0  0  0  0  0  0  0  0  0
    4.3859    7.0161    0.0000 H   0  0  0  0  0  0  0  0  0  0  0  0
    2.2817   -6.5556    0.0000 H   0  0  0  0  0  0  0  0  0  0  0  0
  1 32  1  0  0  0  0
  1 89  1  0  0  0  0
  2 32  2  0  0  0  0
  3 10  1  0  0  0  0
  3 13  1  0  0  0  0
  3 14  1  0  0  0  0
  4 15  1  0  0  0  0
  4 19  1  0  0  0  0
  4 20  1  0  0  0  0
  5  6  1  0  0  0  0
  5 26  1  0  0  0  0
  5 37  1  0  0  0  0
  6 18  2  0  0  0  0
  7  9  1  0  0  0  0
  7 10  1  0  0  0  0
  7 15  1  1  0  0  0
  7 45  1  0  0  0  0
  8 11  1  0  0  0  0
  8 12  1  0  0  0  0
  8 18  1  0  0  0  0
  8 23  1  0  0  0  0
  9 13  1  0  0  0  0
  9 27  1  6  0  0  0
  9 46  1  0  0  0  0
 10 47  1  0  0  0  0
 10 48  1  0  0  0  0
 11 12  1  0  0  0  0
 11 49  1  0  0  0  0
 11 50  1  0  0  0  0
 12 51  1  0  0  0  0
 12 52  1  0  0  0  0
 13 53  1  0  0  0  0
 13 54  1  0  0  0  0
 14 16  1  0  0  0  0
 14 32  1  6  0  0  0
 14 55  1  0  0  0  0
 15 56  1  0  0  0  0
 15 57  1  0  0  0  0
 16 24  1  0  0  0  0
 16 25  1  0  0  0  0
 16 58  1  0  0  0  0
 17 21  1  0  0  0  0
 17 22  1  0  0  0  0
 17 26  1  0  0  0  0
 17 59  1  0  0  0  0
 18 28  1  0  0  0  0
 19 21  1  0  0  0  0
 19 60  1  0  0  0  0
 19 61  1  0  0  0  0
 20 22  1  0  0  0  0
 20 62  1  0  0  0  0
 20 63  1  0  0  0  0
 21 64  1  0  0  0  0
 21 65  1  0  0  0  0
 22 66  1  0  0  0  0
 22 67  1  0  0  0  0
 23 33  2  0  0  0  0
 23 34  1  0  0  0  0
 24 29  1  0  0  0  0
 24 68  1  0  0  0  0
 24 69  1  0  0  0  0
 25 30  1  0  0  0  0
 25 70  1  0  0  0  0
 25 71  1  0  0  0  0
 26 28  2  0  0  0  0
 27 35  2  0  0  0  0
 27 36  1  0  0  0  0
 28 72  1  0  0  0  0
 29 31  1  0  0  0  0
 29 73  1  0  0  0  0
 29 74  1  0  0  0  0
 30 31  1  0  0  0  0
 30 75  1  0  0  0  0
 30 76  1  0  0  0  0
 31 77  1  0  0  0  0
 31 78  1  0  0  0  0
 33 38  1  0  0  0  0
 33 79  1  0  0  0  0
 34 39  2  0  0  0  0
 34 80  1  0  0  0  0
 35 40  1  0  0  0  0
 35 81  1  0  0  0  0
 36 41  2  0  0  0  0
 36 82  1  0  0  0  0
 37 42  1  0  0  0  0
 37 83  1  0  0  0  0
 37 84  1  0  0  0  0
 38 43  2  0  0  0  0
 38 85  1  0  0  0  0
 39 43  1  0  0  0  0
 39 86  1  0  0  0  0
 40 44  2  0  0  0  0
 40 87  1  0  0  0  0
 41 44  1  0  0  0  0
 41 88  1  0  0  0  0
 42 90  1  0  0  0  0
 42 91  1  0  0  0  0
 42 92  1  0  0  0  0
 43 93  1  0  0  0  0
 44 94  1  0  0  0  0
M  END
> <PUBCHEM_COMPOUND_CID>
516360
> <PUBCHEM_COMPOUND_CANONICALIZED>
1
> <PUBCHEM_CACTVS_COMPLEXITY>
929
> <PUBCHEM_CACTVS_HBOND_ACCEPTOR>
5
> <PUBCHEM_CACTVS_HBOND_DONOR>
1
> <PUBCHEM_CACTVS_ROTATABLE_BOND>
10
> <PUBCHEM_CACTVS_SUBSKEYS>
AAADcfB/sAAAAAAAAAAAAAAAGAAAAWLAAAA8YMEAAAAAAAAB0AAAHgAICAAADyjBngQyiJMIAgCqAyTyTACSBAAhggAY2CG4ZJgKIDLA0fGE5AhkiADYyAeYyOCPgAAAAAAAAAAAAAAAAAAAAAAAAAAAAA==
> <PUBCHEM_IUPAC_OPENEYE_NAME>
(2R)-2-cyclohexyl-2-[(3S,4S)-3-[[4-[2-ethyl-5-(1-phenylcyclopropyl)pyrazol-3-yl]-1-piperidyl]methyl]-4-phenyl-pyrrolidin-1-yl]acetic acid
> <PUBCHEM_IUPAC_CAS_NAME>
(2R)-2-cyclohexyl-2-[(3S,4S)-3-[[4-[2-ethyl-5-(1-phenylcyclopropyl)-3-pyrazolyl]-1-piperidinyl]methyl]-4-phenyl-1-pyrrolidinyl]acetic acid
> <PUBCHEM_IUPAC_NAME_MARKUP>
(2<I>R</I>)-2-cyclohexyl-2-[(3<I>S</I>,4<I>S</I>)-3-[[4-[2-ethyl-5-(1-phenylcyclopropyl)pyrazol-3-yl]piperidin-1-yl]methyl]-4-phenylpyrrolidin-1-yl]acetic acid
> <PUBCHEM_IUPAC_NAME>
(2R)-2-cyclohexyl-2-[(3S,4S)-3-[[4-[2-ethyl-5-(1-phenylcyclopropyl)pyrazol-3-yl]piperidin-1-yl]methyl]-4-phenylpyrrolidin-1-yl]acetic acid
> <PUBCHEM_IUPAC_SYSTEMATIC_NAME>
(2R)-2-cyclohexyl-2-[(3S,4S)-3-[[4-[2-ethyl-5-(1-phenylcyclopropyl)pyrazol-3-yl]piperidin-1-yl]methyl]-4-phenyl-pyrrolidin-1-yl]ethanoic acid
> <PUBCHEM_IUPAC_TRADITIONAL_NAME>
(2R)-2-cyclohexyl-2-[(3S,4S)-3-[[4-[2-ethyl-5-(1-phenylcyclopropyl)pyrazol-3-yl]piperidino]methyl]-4-phenyl-pyrrolidino]acetic acid
> <PUBCHEM_IUPAC_INCHI>
InChI=1S/C38H50N4O2/c1-2-42-34(24-35(39-42)38(20-21-38)32-16-10-5-11-17-32)29-18-22-40(23-19-29)25-31-26-41(27-33(31)28-12-6-3-7-13-28)36(37(43)44)30-14-8-4-9-15-30/h3,5-7,10-13,16-17,24,29-31,33,36H,2,4,8-9,14-15,18-23,25-27H2,1H3,(H,43,44)/t31-,33+,36+/m0/s1
> <PUBCHEM_IUPAC_INCHIKEY>
MBRFPJZMAPZXDL-JNYUFQCESA-N
> <PUBCHEM_XLOGP3_AA>
4.9
> <PUBCHEM_EXACT_MASS>
594.39337685
> <PUBCHEM_MOLECULAR_FORMULA>
C38H50N4O2
> <PUBCHEM_MOLECULAR_WEIGHT>
594.8
> <PUBCHEM_OPENEYE_CAN_SMILES>
CCN1C(=CC(=N1)C2(CC2)C3=CC=CC=C3)C4CCN(CC4)CC5CN(CC5C6=CC=CC=C6)C(C7CCCCC7)C(=O)O
> <PUBCHEM_OPENEYE_ISO_SMILES>
CCN1C(=CC(=N1)C2(CC2)C3=CC=CC=C3)C4CCN(CC4)C[C@H]5CN(C[C@@H]5C6=CC=CC=C6)[C@H](C7CCCCC7)C(=O)O
> <PUBCHEM_CACTVS_TPSA>
61.6
> <PUBCHEM_MONOISOTOPIC_WEIGHT>
594.39337685
> <PUBCHEM_TOTAL_CHARGE>
0
> <PUBCHEM_HEAVY_ATOM_COUNT>
44
> <PUBCHEM_ATOM_DEF_STEREO_COUNT>
3
> <PUBCHEM_ATOM_UDEF_STEREO_COUNT>
0
> <PUBCHEM_BOND_DEF_STEREO_COUNT>
0
> <PUBCHEM_BOND_UDEF_STEREO_COUNT>
0
> <PUBCHEM_ISOTOPIC_ATOM_COUNT>
0
> <PUBCHEM_COMPONENT_COUNT>
1
> <PUBCHEM_CACTVS_TAUTO_COUNT>
-1
> <PUBCHEM_COORDINATE_TYPE>
1
5
255
> <PUBCHEM_BONDANNOTATIONS>
14  32  6
18  28  8
23  33  8
23  34  8
26  28  8
27  35  8
27  36  8
33  38  8
34  39  8
35  40  8
36  41  8
38  43  8
39  43  8
40  44  8
41  44  8
5  26  8
5  6  8
6  18  8
7  15  5
9  27  6
$$$$
