516362
  -OEChem-10302200282D
 84 89  0     1  0  0  0  0  0999 V2000
    8.0390   -6.9388    0.0000 F   0  0  0  0  0  0  0  0  0  0  0  0
    3.0946   -1.8635    0.0000 O   0  0  0  0  0  0  0  0  0  0  0  0
    4.6769   -1.1590    0.0000 O   0  0  0  0  0  0  0  0  0  0  0  0
    5.4904   -2.9861    0.0000 N   0  0  3  0  0  0  0  0  0  0  0  0
    7.9391   -1.1497    0.0000 N   0  0  0  0  0  0  0  0  0  0  0  0
    7.1301    2.4381    0.0000 N   0  0  0  0  0  0  0  0  0  0  0  0
    7.4391    3.3891    0.0000 N   0  0  0  0  0  0  0  0  0  0  0  0
    2.9136   -3.5861    0.0000 C   0  0  0  0  0  0  0  0  0  0  0  0
    7.0730   -2.6497    0.0000 C   0  0  2  0  0  0  0  0  0  0  0  0
    6.9685   -3.6442    0.0000 C   0  0  2  0  0  0  0  0  0  0  0  0
    2.1045   -2.9983    0.0000 C   0  0  0  0  0  0  0  0  0  0  0  0
    2.0000   -3.9928    0.0000 C   0  0  0  0  0  0  0  0  0  0  0  0
    6.1595   -2.2430    0.0000 C   0  0  0  0  0  0  0  0  0  0  0  0
    3.9081   -3.6906    0.0000 C   0  0  0  0  0  0  0  0  0  0  0  0
    4.4958   -2.8816    0.0000 C   0  0  2  0  0  0  0  0  0  0  0  0
    5.9904   -3.8521    0.0000 C   0  0  0  0  0  0  0  0  0  0  0  0
    7.9391   -2.1497    0.0000 C   0  0  0  0  0  0  0  0  0  0  0  0
    7.7117   -4.3134    0.0000 C   0  0  0  0  0  0  0  0  0  0  0  0
    7.0730   -0.6497    0.0000 C   0  0  0  0  0  0  0  0  0  0  0  0
    8.8051   -0.6497    0.0000 C   0  0  0  0  0  0  0  0  0  0  0  0
    7.9391    0.8503    0.0000 C   0  0  0  0  0  0  0  0  0  0  0  0
    7.0730    0.3503    0.0000 C   0  0  0  0  0  0  0  0  0  0  0  0
    8.8051    0.3503    0.0000 C   0  0  0  0  0  0  0  0  0  0  0  0
    4.0891   -1.9680    0.0000 C   0  0  0  0  0  0  0  0  0  0  0  0
    7.5038   -5.2915    0.0000 C   0  0  0  0  0  0  0  0  0  0  0  0
    8.6627   -4.0043    0.0000 C   0  0  0  0  0  0  0  0  0  0  0  0
    7.9391    1.8503    0.0000 C   0  0  0  0  0  0  0  0  0  0  0  0
    8.2469   -5.9606    0.0000 C   0  0  0  0  0  0  0  0  0  0  0  0
    9.4059   -4.6735    0.0000 C   0  0  0  0  0  0  0  0  0  0  0  0
    8.7481    2.4381    0.0000 C   0  0  0  0  0  0  0  0  0  0  0  0
    9.1980   -5.6516    0.0000 C   0  0  0  0  0  0  0  0  0  0  0  0
    8.4391    3.3891    0.0000 C   0  0  0  0  0  0  0  0  0  0  0  0
    6.1790    2.1291    0.0000 C   0  0  0  0  0  0  0  0  0  0  0  0
    9.0269    4.1982    0.0000 C   0  0  0  0  0  0  0  0  0  0  0  0
    5.4359    2.7982    0.0000 C   0  0  0  0  0  0  0  0  0  0  0  0
    8.6201    5.1117    0.0000 C   0  0  0  0  0  0  0  0  0  0  0  0
    7.6256    5.2162    0.0000 C   0  0  0  0  0  0  0  0  0  0  0  0
    9.2079    5.9207    0.0000 C   0  0  0  0  0  0  0  0  0  0  0  0
    7.2189    6.1298    0.0000 C   0  0  0  0  0  0  0  0  0  0  0  0
    8.8012    6.8343    0.0000 C   0  0  0  0  0  0  0  0  0  0  0  0
    7.8066    6.9388    0.0000 C   0  0  0  0  0  0  0  0  0  0  0  0
    3.0105   -4.1984    0.0000 H   0  0  0  0  0  0  0  0  0  0  0  0
    7.5930   -2.9874    0.0000 H   0  0  0  0  0  0  0  0  0  0  0  0
    6.8080   -4.2431    0.0000 H   0  0  0  0  0  0  0  0  0  0  0  0
    6.4695   -1.7060    0.0000 H   0  0  0  0  0  0  0  0  0  0  0  0
    5.6579   -1.8785    0.0000 H   0  0  0  0  0  0  0  0  0  0  0  0
    2.3763   -2.4410    0.0000 H   0  0  0  0  0  0  0  0  0  0  0  0
    1.5086   -2.8274    0.0000 H   0  0  0  0  0  0  0  0  0  0  0  0
    1.3815   -4.0361    0.0000 H   0  0  0  0  0  0  0  0  0  0  0  0
    2.1500   -4.5944    0.0000 H   0  0  0  0  0  0  0  0  0  0  0  0
    3.7372   -4.2866    0.0000 H   0  0  0  0  0  0  0  0  0  0  0  0
    4.4653   -3.9624    0.0000 H   0  0  0  0  0  0  0  0  0  0  0  0
    4.7480   -3.4480    0.0000 H   0  0  0  0  0  0  0  0  0  0  0  0
    5.4240   -4.1043    0.0000 H   0  0  0  0  0  0  0  0  0  0  0  0
    6.1820   -4.4418    0.0000 H   0  0  0  0  0  0  0  0  0  0  0  0
    8.1511   -2.7323    0.0000 H   0  0  0  0  0  0  0  0  0  0  0  0
    8.5497   -2.0420    0.0000 H   0  0  0  0  0  0  0  0  0  0  0  0
    6.4625   -0.5420    0.0000 H   0  0  0  0  0  0  0  0  0  0  0  0
    6.8610   -1.2323    0.0000 H   0  0  0  0  0  0  0  0  0  0  0  0
    9.0172   -1.2323    0.0000 H   0  0  0  0  0  0  0  0  0  0  0  0
    9.4157   -0.5420    0.0000 H   0  0  0  0  0  0  0  0  0  0  0  0
    8.4760    1.1603    0.0000 H   0  0  0  0  0  0  0  0  0  0  0  0
    6.8610    0.9329    0.0000 H   0  0  0  0  0  0  0  0  0  0  0  0
    6.4625    0.2426    0.0000 H   0  0  0  0  0  0  0  0  0  0  0  0
    9.4157    0.2426    0.0000 H   0  0  0  0  0  0  0  0  0  0  0  0
    9.0172    0.9329    0.0000 H   0  0  0  0  0  0  0  0  0  0  0  0
    6.9141   -5.4831    0.0000 H   0  0  0  0  0  0  0  0  0  0  0  0
    8.7916   -3.3979    0.0000 H   0  0  0  0  0  0  0  0  0  0  0  0
    2.8424   -1.2971    0.0000 H   0  0  0  0  0  0  0  0  0  0  0  0
    9.9955   -4.4819    0.0000 H   0  0  0  0  0  0  0  0  0  0  0  0
    9.3378    2.2465    0.0000 H   0  0  0  0  0  0  0  0  0  0  0  0
    9.6587   -6.0665    0.0000 H   0  0  0  0  0  0  0  0  0  0  0  0
    5.6904    1.7474    0.0000 H   0  0  0  0  0  0  0  0  0  0  0  0
    6.4701    1.5816    0.0000 H   0  0  0  0  0  0  0  0  0  0  0  0
    9.4576    3.7522    0.0000 H   0  0  0  0  0  0  0  0  0  0  0  0
    9.5409    4.5448    0.0000 H   0  0  0  0  0  0  0  0  0  0  0  0
    5.8507    3.2589    0.0000 H   0  0  0  0  0  0  0  0  0  0  0  0
    4.9751    3.2130    0.0000 H   0  0  0  0  0  0  0  0  0  0  0  0
    5.0210    2.3374    0.0000 H   0  0  0  0  0  0  0  0  0  0  0  0
    7.2612    4.7146    0.0000 H   0  0  0  0  0  0  0  0  0  0  0  0
    9.8245    5.8559    0.0000 H   0  0  0  0  0  0  0  0  0  0  0  0
    6.6023    6.1946    0.0000 H   0  0  0  0  0  0  0  0  0  0  0  0
    9.1656    7.3358    0.0000 H   0  0  0  0  0  0  0  0  0  0  0  0
    7.5545    7.5052    0.0000 H   0  0  0  0  0  0  0  0  0  0  0  0
  1 28  1  0  0  0  0
  2 24  1  0  0  0  0
  2 69  1  0  0  0  0
  3 24  2  0  0  0  0
  4 13  1  0  0  0  0
  4 15  1  0  0  0  0
  4 16  1  0  0  0  0
  5 17  1  0  0  0  0
  5 19  1  0  0  0  0
  5 20  1  0  0  0  0
  6  7  1  0  0  0  0
  6 27  1  0  0  0  0
  6 33  1  0  0  0  0
  7 32  2  0  0  0  0
  8 11  1  0  0  0  0
  8 12  1  0  0  0  0
  8 14  1  0  0  0  0
  8 42  1  0  0  0  0
  9 10  1  0  0  0  0
  9 13  1  0  0  0  0
  9 17  1  6  0  0  0
  9 43  1  0  0  0  0
 10 16  1  0  0  0  0
 10 18  1  1  0  0  0
 10 44  1  0  0  0  0
 11 12  1  0  0  0  0
 11 47  1  0  0  0  0
 11 48  1  0  0  0  0
 12 49  1  0  0  0  0
 12 50  1  0  0  0  0
 13 45  1  0  0  0  0
 13 46  1  0  0  0  0
 15 14  1  6  0  0  0
 14 51  1  0  0  0  0
 14 52  1  0  0  0  0
 15 24  1  0  0  0  0
 15 53  1  0  0  0  0
 16 54  1  0  0  0  0
 16 55  1  0  0  0  0
 17 56  1  0  0  0  0
 17 57  1  0  0  0  0
 18 25  2  0  0  0  0
 18 26  1  0  0  0  0
 19 22  1  0  0  0  0
 19 58  1  0  0  0  0
 19 59  1  0  0  0  0
 20 23  1  0  0  0  0
 20 60  1  0  0  0  0
 20 61  1  0  0  0  0
 21 22  1  0  0  0  0
 21 23  1  0  0  0  0
 21 27  1  0  0  0  0
 21 62  1  0  0  0  0
 22 63  1  0  0  0  0
 22 64  1  0  0  0  0
 23 65  1  0  0  0  0
 23 66  1  0  0  0  0
 25 28  1  0  0  0  0
 25 67  1  0  0  0  0
 26 29  2  0  0  0  0
 26 68  1  0  0  0  0
 27 30  2  0  0  0  0
 28 31  2  0  0  0  0
 29 31  1  0  0  0  0
 29 70  1  0  0  0  0
 30 32  1  0  0  0  0
 30 71  1  0  0  0  0
 31 72  1  0  0  0  0
 32 34  1  0  0  0  0
 33 35  1  0  0  0  0
 33 73  1  0  0  0  0
 33 74  1  0  0  0  0
 34 36  1  0  0  0  0
 34 75  1  0  0  0  0
 34 76  1  0  0  0  0
 35 77  1  0  0  0  0
 35 78  1  0  0  0  0
 35 79  1  0  0  0  0
 36 37  2  0  0  0  0
 36 38  1  0  0  0  0
 37 39  1  0  0  0  0
 37 80  1  0  0  0  0
 38 40  2  0  0  0  0
 38 81  1  0  0  0  0
 39 41  2  0  0  0  0
 39 82  1  0  0  0  0
 40 41  1  0  0  0  0
 40 83  1  0  0  0  0
 41 84  1  0  0  0  0
M  END
> <PUBCHEM_COMPOUND_CID>
516362
> <PUBCHEM_COMPOUND_CANONICALIZED>
1
> <PUBCHEM_CACTVS_COMPLEXITY>
843
> <PUBCHEM_CACTVS_HBOND_ACCEPTOR>
6
> <PUBCHEM_CACTVS_HBOND_DONOR>
1
> <PUBCHEM_CACTVS_ROTATABLE_BOND>
11
> <PUBCHEM_CACTVS_SUBSKEYS>
AAADcfB/sQAAAAAAAAAAAAAAGAAAAWLAAAA8YIAAAAAAAAAB0AAAHwAICAAADSjBngwyiJMIAgCqAyTyTACSBAAhggAY2CG4ZJgKIDLA0fGE5AhkiADYyAeYyMAOgAAAAAAAAAAAAAAAAAAAAAAAAAAAAA==
> <PUBCHEM_IUPAC_OPENEYE_NAME>
(2R)-2-[(3S,4S)-3-[[4-(5-benzyl-2-ethyl-pyrazol-3-yl)-1-piperidyl]methyl]-4-(3-fluorophenyl)pyrrolidin-1-yl]-3-cyclopropyl-propanoic acid
> <PUBCHEM_IUPAC_CAS_NAME>
(2R)-3-cyclopropyl-2-[(3S,4S)-3-[[4-[2-ethyl-5-(phenylmethyl)-3-pyrazolyl]-1-piperidinyl]methyl]-4-(3-fluorophenyl)-1-pyrrolidinyl]propanoic acid
> <PUBCHEM_IUPAC_NAME_MARKUP>
(2<I>R</I>)-2-[(3<I>S</I>,4<I>S</I>)-3-[[4-(5-benzyl-2-ethylpyrazol-3-yl)piperidin-1-yl]methyl]-4-(3-fluorophenyl)pyrrolidin-1-yl]-3-cyclopropylpropanoic acid
> <PUBCHEM_IUPAC_NAME>
(2R)-2-[(3S,4S)-3-[[4-(5-benzyl-2-ethylpyrazol-3-yl)piperidin-1-yl]methyl]-4-(3-fluorophenyl)pyrrolidin-1-yl]-3-cyclopropylpropanoic acid
> <PUBCHEM_IUPAC_SYSTEMATIC_NAME>
(2R)-3-cyclopropyl-2-[(3S,4S)-3-[[4-[2-ethyl-5-(phenylmethyl)pyrazol-3-yl]piperidin-1-yl]methyl]-4-(3-fluorophenyl)pyrrolidin-1-yl]propanoic acid
> <PUBCHEM_IUPAC_TRADITIONAL_NAME>
(2R)-2-[(3S,4S)-3-[[4-(5-benzyl-2-ethyl-pyrazol-3-yl)piperidino]methyl]-4-(3-fluorophenyl)pyrrolidino]-3-cyclopropyl-propionic acid
> <PUBCHEM_IUPAC_INCHI>
InChI=1S/C34H43FN4O2/c1-2-39-32(20-30(36-39)17-24-7-4-3-5-8-24)26-13-15-37(16-14-26)21-28-22-38(33(34(40)41)18-25-11-12-25)23-31(28)27-9-6-10-29(35)19-27/h3-10,19-20,25-26,28,31,33H,2,11-18,21-23H2,1H3,(H,40,41)/t28-,31+,33+/m0/s1
> <PUBCHEM_IUPAC_INCHIKEY>
WYEUTPJDGLHBSW-HTGHOQDLSA-N
> <PUBCHEM_XLOGP3_AA>
3.8
> <PUBCHEM_EXACT_MASS>
558.33700479
> <PUBCHEM_MOLECULAR_FORMULA>
C34H43FN4O2
> <PUBCHEM_MOLECULAR_WEIGHT>
558.7
> <PUBCHEM_OPENEYE_CAN_SMILES>
CCN1C(=CC(=N1)CC2=CC=CC=C2)C3CCN(CC3)CC4CN(CC4C5=CC(=CC=C5)F)C(CC6CC6)C(=O)O
> <PUBCHEM_OPENEYE_ISO_SMILES>
CCN1C(=CC(=N1)CC2=CC=CC=C2)C3CCN(CC3)C[C@H]4CN(C[C@@H]4C5=CC(=CC=C5)F)[C@H](CC6CC6)C(=O)O
> <PUBCHEM_CACTVS_TPSA>
61.6
> <PUBCHEM_MONOISOTOPIC_WEIGHT>
558.33700479
> <PUBCHEM_TOTAL_CHARGE>
0
> <PUBCHEM_HEAVY_ATOM_COUNT>
41
> <PUBCHEM_ATOM_DEF_STEREO_COUNT>
3
> <PUBCHEM_ATOM_UDEF_STEREO_COUNT>
0
> <PUBCHEM_BOND_DEF_STEREO_COUNT>
0
> <PUBCHEM_BOND_UDEF_STEREO_COUNT>
0
> <PUBCHEM_ISOTOPIC_ATOM_COUNT>
0
> <PUBCHEM_COMPONENT_COUNT>
1
> <PUBCHEM_CACTVS_TAUTO_COUNT>
-1
> <PUBCHEM_COORDINATE_TYPE>
1
5
255
> <PUBCHEM_BONDANNOTATIONS>
10  18  5
15  14  6
18  25  8
18  26  8
25  28  8
26  29  8
27  30  8
28  31  8
29  31  8
30  32  8
36  37  8
36  38  8
37  39  8
38  40  8
39  41  8
40  41  8
6  27  8
6  7  8
7  32  8
9  17  6
$$$$
