516306
  -OEChem-10302200282D
 94 99  0     1  0  0  0  0  0999 V2000
    7.7132   -7.8001    0.0000 F   0  0  0  0  0  0  0  0  0  0  0  0
    2.7688   -2.7248    0.0000 O   0  0  0  0  0  0  0  0  0  0  0  0
    4.3511   -2.0203    0.0000 O   0  0  0  0  0  0  0  0  0  0  0  0
    7.0742    6.9910    0.0000 O   0  0  0  0  0  0  0  0  0  0  0  0
    5.1646   -3.8474    0.0000 N   0  0  3  0  0  0  0  0  0  0  0  0
    7.6133   -2.0110    0.0000 N   0  0  0  0  0  0  0  0  0  0  0  0
    6.8043    1.5768    0.0000 N   0  0  0  0  0  0  0  0  0  0  0  0
    7.1133    2.5278    0.0000 N   0  0  0  0  0  0  0  0  0  0  0  0
    6.7473   -3.5110    0.0000 C   0  0  2  0  0  0  0  0  0  0  0  0
    6.6428   -4.5055    0.0000 C   0  0  2  0  0  0  0  0  0  0  0  0
    5.8338   -3.1042    0.0000 C   0  0  0  0  0  0  0  0  0  0  0  0
    5.6646   -4.7134    0.0000 C   0  0  0  0  0  0  0  0  0  0  0  0
    4.1701   -3.7429    0.0000 C   0  0  2  0  0  0  0  0  0  0  0  0
    3.5823   -4.5519    0.0000 C   0  0  0  0  0  0  0  0  0  0  0  0
    7.6133   -3.0110    0.0000 C   0  0  0  0  0  0  0  0  0  0  0  0
    2.5878   -4.4474    0.0000 C   0  0  0  0  0  0  0  0  0  0  0  0
    3.9890   -5.4654    0.0000 C   0  0  0  0  0  0  0  0  0  0  0  0
    7.3859   -5.1746    0.0000 C   0  0  0  0  0  0  0  0  0  0  0  0
    6.7473   -1.5110    0.0000 C   0  0  0  0  0  0  0  0  0  0  0  0
    8.4793   -1.5110    0.0000 C   0  0  0  0  0  0  0  0  0  0  0  0
    2.0000   -5.2564    0.0000 C   0  0  0  0  0  0  0  0  0  0  0  0
    3.4013   -6.2744    0.0000 C   0  0  0  0  0  0  0  0  0  0  0  0
    7.6133   -0.0110    0.0000 C   0  0  0  0  0  0  0  0  0  0  0  0
    2.4067   -6.1699    0.0000 C   0  0  0  0  0  0  0  0  0  0  0  0
    6.7473   -0.5110    0.0000 C   0  0  0  0  0  0  0  0  0  0  0  0
    8.4793   -0.5110    0.0000 C   0  0  0  0  0  0  0  0  0  0  0  0
    3.7634   -2.8293    0.0000 C   0  0  0  0  0  0  0  0  0  0  0  0
    7.1780   -6.1528    0.0000 C   0  0  0  0  0  0  0  0  0  0  0  0
    8.3370   -4.8656    0.0000 C   0  0  0  0  0  0  0  0  0  0  0  0
    7.6133    0.9890    0.0000 C   0  0  0  0  0  0  0  0  0  0  0  0
    7.9211   -6.8219    0.0000 C   0  0  0  0  0  0  0  0  0  0  0  0
    9.0801   -5.5348    0.0000 C   0  0  0  0  0  0  0  0  0  0  0  0
    8.4223    1.5768    0.0000 C   0  0  0  0  0  0  0  0  0  0  0  0
    8.8722   -6.5129    0.0000 C   0  0  0  0  0  0  0  0  0  0  0  0
    8.1133    2.5278    0.0000 C   0  0  0  0  0  0  0  0  0  0  0  0
    5.8532    1.2678    0.0000 C   0  0  0  0  0  0  0  0  0  0  0  0
    8.7011    3.3369    0.0000 C   0  0  0  0  0  0  0  0  0  0  0  0
    5.1101    1.9369    0.0000 C   0  0  0  0  0  0  0  0  0  0  0  0
    8.2944    4.2504    0.0000 C   0  0  0  0  0  0  0  0  0  0  0  0
    7.2998    4.3549    0.0000 C   0  0  0  0  0  0  0  0  0  0  0  0
    8.8822    5.0594    0.0000 C   0  0  0  0  0  0  0  0  0  0  0  0
    6.8931    5.2685    0.0000 C   0  0  0  0  0  0  0  0  0  0  0  0
    8.4754    5.9730    0.0000 C   0  0  0  0  0  0  0  0  0  0  0  0
    7.4809    6.0775    0.0000 C   0  0  0  0  0  0  0  0  0  0  0  0
    7.6619    7.8001    0.0000 C   0  0  0  0  0  0  0  0  0  0  0  0
    7.2673   -3.8487    0.0000 H   0  0  0  0  0  0  0  0  0  0  0  0
    6.4823   -5.1044    0.0000 H   0  0  0  0  0  0  0  0  0  0  0  0
    6.1437   -2.5673    0.0000 H   0  0  0  0  0  0  0  0  0  0  0  0
    5.3322   -2.7398    0.0000 H   0  0  0  0  0  0  0  0  0  0  0  0
    5.0982   -4.9656    0.0000 H   0  0  0  0  0  0  0  0  0  0  0  0
    5.8562   -5.3031    0.0000 H   0  0  0  0  0  0  0  0  0  0  0  0
    4.5345   -3.2413    0.0000 H   0  0  0  0  0  0  0  0  0  0  0  0
    4.1989   -4.6167    0.0000 H   0  0  0  0  0  0  0  0  0  0  0  0
    7.8254   -3.5936    0.0000 H   0  0  0  0  0  0  0  0  0  0  0  0
    8.2239   -2.9033    0.0000 H   0  0  0  0  0  0  0  0  0  0  0  0
    2.7587   -3.8514    0.0000 H   0  0  0  0  0  0  0  0  0  0  0  0
    2.0305   -4.1756    0.0000 H   0  0  0  0  0  0  0  0  0  0  0  0
    4.4197   -5.9114    0.0000 H   0  0  0  0  0  0  0  0  0  0  0  0
    4.5030   -5.1187    0.0000 H   0  0  0  0  0  0  0  0  0  0  0  0
    6.1367   -1.4033    0.0000 H   0  0  0  0  0  0  0  0  0  0  0  0
    6.5352   -2.0936    0.0000 H   0  0  0  0  0  0  0  0  0  0  0  0
    8.6914   -2.0936    0.0000 H   0  0  0  0  0  0  0  0  0  0  0  0
    9.0899   -1.4033    0.0000 H   0  0  0  0  0  0  0  0  0  0  0  0
    1.5693   -4.8104    0.0000 H   0  0  0  0  0  0  0  0  0  0  0  0
    1.4860   -5.6031    0.0000 H   0  0  0  0  0  0  0  0  0  0  0  0
    3.2304   -6.8704    0.0000 H   0  0  0  0  0  0  0  0  0  0  0  0
    3.9585   -6.5462    0.0000 H   0  0  0  0  0  0  0  0  0  0  0  0
    7.0764    0.2990    0.0000 H   0  0  0  0  0  0  0  0  0  0  0  0
    1.8052   -6.3199    0.0000 H   0  0  0  0  0  0  0  0  0  0  0  0
    2.4500   -6.7884    0.0000 H   0  0  0  0  0  0  0  0  0  0  0  0
    6.5352    0.0716    0.0000 H   0  0  0  0  0  0  0  0  0  0  0  0
    6.1367   -0.6187    0.0000 H   0  0  0  0  0  0  0  0  0  0  0  0
    9.0899   -0.6187    0.0000 H   0  0  0  0  0  0  0  0  0  0  0  0
    8.6914    0.0716    0.0000 H   0  0  0  0  0  0  0  0  0  0  0  0
    6.5883   -6.3444    0.0000 H   0  0  0  0  0  0  0  0  0  0  0  0
    8.4659   -4.2592    0.0000 H   0  0  0  0  0  0  0  0  0  0  0  0
    9.6698   -5.3432    0.0000 H   0  0  0  0  0  0  0  0  0  0  0  0
    2.5167   -2.1584    0.0000 H   0  0  0  0  0  0  0  0  0  0  0  0
    9.0120    1.3852    0.0000 H   0  0  0  0  0  0  0  0  0  0  0  0
    9.3330   -6.9278    0.0000 H   0  0  0  0  0  0  0  0  0  0  0  0
    5.3647    0.8861    0.0000 H   0  0  0  0  0  0  0  0  0  0  0  0
    6.1443    0.7204    0.0000 H   0  0  0  0  0  0  0  0  0  0  0  0
    9.1318    2.8909    0.0000 H   0  0  0  0  0  0  0  0  0  0  0  0
    9.2151    3.6836    0.0000 H   0  0  0  0  0  0  0  0  0  0  0  0
    5.5250    2.3977    0.0000 H   0  0  0  0  0  0  0  0  0  0  0  0
    4.6494    2.3518    0.0000 H   0  0  0  0  0  0  0  0  0  0  0  0
    4.6952    1.4762    0.0000 H   0  0  0  0  0  0  0  0  0  0  0  0
    6.9354    3.8534    0.0000 H   0  0  0  0  0  0  0  0  0  0  0  0
    9.4988    4.9946    0.0000 H   0  0  0  0  0  0  0  0  0  0  0  0
    6.2765    5.3333    0.0000 H   0  0  0  0  0  0  0  0  0  0  0  0
    8.8398    6.4746    0.0000 H   0  0  0  0  0  0  0  0  0  0  0  0
    8.1635    7.4356    0.0000 H   0  0  0  0  0  0  0  0  0  0  0  0
    8.0264    8.3017    0.0000 H   0  0  0  0  0  0  0  0  0  0  0  0
    7.1604    8.1645    0.0000 H   0  0  0  0  0  0  0  0  0  0  0  0
  1 31  1  0  0  0  0
  2 27  1  0  0  0  0
  2 78  1  0  0  0  0
  3 27  2  0  0  0  0
  4 44  1  0  0  0  0
  4 45  1  0  0  0  0
  5 11  1  0  0  0  0
  5 12  1  0  0  0  0
  5 13  1  0  0  0  0
  6 15  1  0  0  0  0
  6 19  1  0  0  0  0
  6 20  1  0  0  0  0
  7  8  1  0  0  0  0
  7 30  1  0  0  0  0
  7 36  1  0  0  0  0
  8 35  2  0  0  0  0
  9 10  1  0  0  0  0
  9 11  1  0  0  0  0
  9 15  1  6  0  0  0
  9 46  1  0  0  0  0
 10 12  1  0  0  0  0
 10 18  1  1  0  0  0
 10 47  1  0  0  0  0
 11 48  1  0  0  0  0
 11 49  1  0  0  0  0
 12 50  1  0  0  0  0
 12 51  1  0  0  0  0
 13 14  1  0  0  0  0
 13 27  1  6  0  0  0
 13 52  1  0  0  0  0
 14 16  1  0  0  0  0
 14 17  1  0  0  0  0
 14 53  1  0  0  0  0
 15 54  1  0  0  0  0
 15 55  1  0  0  0  0
 16 21  1  0  0  0  0
 16 56  1  0  0  0  0
 16 57  1  0  0  0  0
 17 22  1  0  0  0  0
 17 58  1  0  0  0  0
 17 59  1  0  0  0  0
 18 28  2  0  0  0  0
 18 29  1  0  0  0  0
 19 25  1  0  0  0  0
 19 60  1  0  0  0  0
 19 61  1  0  0  0  0
 20 26  1  0  0  0  0
 20 62  1  0  0  0  0
 20 63  1  0  0  0  0
 21 24  1  0  0  0  0
 21 64  1  0  0  0  0
 21 65  1  0  0  0  0
 22 24  1  0  0  0  0
 22 66  1  0  0  0  0
 22 67  1  0  0  0  0
 23 25  1  0  0  0  0
 23 26  1  0  0  0  0
 23 30  1  0  0  0  0
 23 68  1  0  0  0  0
 24 69  1  0  0  0  0
 24 70  1  0  0  0  0
 25 71  1  0  0  0  0
 25 72  1  0  0  0  0
 26 73  1  0  0  0  0
 26 74  1  0  0  0  0
 28 31  1  0  0  0  0
 28 75  1  0  0  0  0
 29 32  2  0  0  0  0
 29 76  1  0  0  0  0
 30 33  2  0  0  0  0
 31 34  2  0  0  0  0
 32 34  1  0  0  0  0
 32 77  1  0  0  0  0
 33 35  1  0  0  0  0
 33 79  1  0  0  0  0
 34 80  1  0  0  0  0
 35 37  1  0  0  0  0
 36 38  1  0  0  0  0
 36 81  1  0  0  0  0
 36 82  1  0  0  0  0
 37 39  1  0  0  0  0
 37 83  1  0  0  0  0
 37 84  1  0  0  0  0
 38 85  1  0  0  0  0
 38 86  1  0  0  0  0
 38 87  1  0  0  0  0
 39 40  2  0  0  0  0
 39 41  1  0  0  0  0
 40 42  1  0  0  0  0
 40 88  1  0  0  0  0
 41 43  2  0  0  0  0
 41 89  1  0  0  0  0
 42 44  2  0  0  0  0
 42 90  1  0  0  0  0
 43 44  1  0  0  0  0
 43 91  1  0  0  0  0
 45 92  1  0  0  0  0
 45 93  1  0  0  0  0
 45 94  1  0  0  0  0
M  END
> <PUBCHEM_COMPOUND_CID>
516306
> <PUBCHEM_COMPOUND_CANONICALIZED>
1
> <PUBCHEM_CACTVS_COMPLEXITY>
919
> <PUBCHEM_CACTVS_HBOND_ACCEPTOR>
7
> <PUBCHEM_CACTVS_HBOND_DONOR>
1
> <PUBCHEM_CACTVS_ROTATABLE_BOND>
11
> <PUBCHEM_CACTVS_SUBSKEYS>
AAADcfB/sQAAAAAAAAAAAAAAAAAAAWLAAAA8YMEAAAAAAAAB0AAAHwAICAAADSzBng4yjpMIBgCqAyTyTACSDAAhogAY2CG+bJgOJjLE8fuE9ChkyBHY6AeYyOCOoAAAAAAAAABAAAAAAAAAAAAAAAAAAA==
> <PUBCHEM_IUPAC_OPENEYE_NAME>
(2R)-2-cyclohexyl-2-[(3S,4S)-3-[[4-[2-ethyl-5-[(4-methoxyphenyl)methyl]pyrazol-3-yl]-1-piperidyl]methyl]-4-(3-fluorophenyl)pyrrolidin-1-yl]acetic acid
> <PUBCHEM_IUPAC_CAS_NAME>
(2R)-2-cyclohexyl-2-[(3S,4S)-3-[[4-[2-ethyl-5-[(4-methoxyphenyl)methyl]-3-pyrazolyl]-1-piperidinyl]methyl]-4-(3-fluorophenyl)-1-pyrrolidinyl]acetic acid
> <PUBCHEM_IUPAC_NAME_MARKUP>
(2<I>R</I>)-2-cyclohexyl-2-[(3<I>S</I>,4<I>S</I>)-3-[[4-[2-ethyl-5-[(4-methoxyphenyl)methyl]pyrazol-3-yl]piperidin-1-yl]methyl]-4-(3-fluorophenyl)pyrrolidin-1-yl]acetic acid
> <PUBCHEM_IUPAC_NAME>
(2R)-2-cyclohexyl-2-[(3S,4S)-3-[[4-[2-ethyl-5-[(4-methoxyphenyl)methyl]pyrazol-3-yl]piperidin-1-yl]methyl]-4-(3-fluorophenyl)pyrrolidin-1-yl]acetic acid
> <PUBCHEM_IUPAC_SYSTEMATIC_NAME>
(2R)-2-cyclohexyl-2-[(3S,4S)-3-[[4-[2-ethyl-5-[(4-methoxyphenyl)methyl]pyrazol-3-yl]piperidin-1-yl]methyl]-4-(3-fluorophenyl)pyrrolidin-1-yl]ethanoic acid
> <PUBCHEM_IUPAC_TRADITIONAL_NAME>
(2R)-2-cyclohexyl-2-[(3S,4S)-3-[[4-(2-ethyl-5-p-anisyl-pyrazol-3-yl)piperidino]methyl]-4-(3-fluorophenyl)pyrrolidino]acetic acid
> <PUBCHEM_IUPAC_INCHI>
InChI=1S/C37H49FN4O3/c1-3-42-35(22-32(39-42)20-26-12-14-33(45-2)15-13-26)27-16-18-40(19-17-27)23-30-24-41(25-34(30)29-10-7-11-31(38)21-29)36(37(43)44)28-8-5-4-6-9-28/h7,10-15,21-22,27-28,30,34,36H,3-6,8-9,16-20,23-25H2,1-2H3,(H,43,44)/t30-,34+,36+/m0/s1
> <PUBCHEM_IUPAC_INCHIKEY>
VPOHYCVKCIUOIJ-LOZBNSEJSA-N
> <PUBCHEM_XLOGP3_AA>
4.7
> <PUBCHEM_EXACT_MASS>
616.37886960
> <PUBCHEM_MOLECULAR_FORMULA>
C37H49FN4O3
> <PUBCHEM_MOLECULAR_WEIGHT>
616.8
> <PUBCHEM_OPENEYE_CAN_SMILES>
CCN1C(=CC(=N1)CC2=CC=C(C=C2)OC)C3CCN(CC3)CC4CN(CC4C5=CC(=CC=C5)F)C(C6CCCCC6)C(=O)O
> <PUBCHEM_OPENEYE_ISO_SMILES>
CCN1C(=CC(=N1)CC2=CC=C(C=C2)OC)C3CCN(CC3)C[C@H]4CN(C[C@@H]4C5=CC(=CC=C5)F)[C@H](C6CCCCC6)C(=O)O
> <PUBCHEM_CACTVS_TPSA>
70.8
> <PUBCHEM_MONOISOTOPIC_WEIGHT>
616.37886960
> <PUBCHEM_TOTAL_CHARGE>
0
> <PUBCHEM_HEAVY_ATOM_COUNT>
45
> <PUBCHEM_ATOM_DEF_STEREO_COUNT>
3
> <PUBCHEM_ATOM_UDEF_STEREO_COUNT>
0
> <PUBCHEM_BOND_DEF_STEREO_COUNT>
0
> <PUBCHEM_BOND_UDEF_STEREO_COUNT>
0
> <PUBCHEM_ISOTOPIC_ATOM_COUNT>
0
> <PUBCHEM_COMPONENT_COUNT>
1
> <PUBCHEM_CACTVS_TAUTO_COUNT>
-1
> <PUBCHEM_COORDINATE_TYPE>
1
5
255
> <PUBCHEM_BONDANNOTATIONS>
10  18  5
13  27  6
18  28  8
18  29  8
28  31  8
29  32  8
30  33  8
31  34  8
32  34  8
33  35  8
39  40  8
39  41  8
40  42  8
41  43  8
42  44  8
43  44  8
7  30  8
7  8  8
8  35  8
9  15  6
$$$$
