516307
  -OEChem-10302200282D
 97102  0     1  0  0  0  0  0999 V2000
    7.7132   -8.2568    0.0000 F   0  0  0  0  0  0  0  0  0  0  0  0
    2.7688   -3.1816    0.0000 O   0  0  0  0  0  0  0  0  0  0  0  0
    4.3511   -2.4771    0.0000 O   0  0  0  0  0  0  0  0  0  0  0  0
    7.0742    6.5343    0.0000 O   0  0  0  0  0  0  0  0  0  0  0  0
    5.1646   -4.3042    0.0000 N   0  0  3  0  0  0  0  0  0  0  0  0
    7.6133   -2.4678    0.0000 N   0  0  0  0  0  0  0  0  0  0  0  0
    6.8043    1.1200    0.0000 N   0  0  0  0  0  0  0  0  0  0  0  0
    7.1133    2.0711    0.0000 N   0  0  0  0  0  0  0  0  0  0  0  0
    6.7473   -3.9678    0.0000 C   0  0  2  0  0  0  0  0  0  0  0  0
    6.6428   -4.9623    0.0000 C   0  0  2  0  0  0  0  0  0  0  0  0
    5.8338   -3.5610    0.0000 C   0  0  0  0  0  0  0  0  0  0  0  0
    5.6646   -5.1702    0.0000 C   0  0  0  0  0  0  0  0  0  0  0  0
    4.1701   -4.1996    0.0000 C   0  0  2  0  0  0  0  0  0  0  0  0
    3.5823   -5.0087    0.0000 C   0  0  0  0  0  0  0  0  0  0  0  0
    7.6133   -3.4678    0.0000 C   0  0  0  0  0  0  0  0  0  0  0  0
    2.5878   -4.9041    0.0000 C   0  0  0  0  0  0  0  0  0  0  0  0
    3.9890   -5.9222    0.0000 C   0  0  0  0  0  0  0  0  0  0  0  0
    7.3859   -5.6314    0.0000 C   0  0  0  0  0  0  0  0  0  0  0  0
    6.7473   -1.9678    0.0000 C   0  0  0  0  0  0  0  0  0  0  0  0
    8.4793   -1.9678    0.0000 C   0  0  0  0  0  0  0  0  0  0  0  0
    2.0000   -5.7132    0.0000 C   0  0  0  0  0  0  0  0  0  0  0  0
    3.4013   -6.7312    0.0000 C   0  0  0  0  0  0  0  0  0  0  0  0
    7.6133   -0.4678    0.0000 C   0  0  0  0  0  0  0  0  0  0  0  0
    2.4067   -6.6267    0.0000 C   0  0  0  0  0  0  0  0  0  0  0  0
    6.7473   -0.9678    0.0000 C   0  0  0  0  0  0  0  0  0  0  0  0
    8.4793   -0.9678    0.0000 C   0  0  0  0  0  0  0  0  0  0  0  0
    3.7634   -3.2861    0.0000 C   0  0  0  0  0  0  0  0  0  0  0  0
    7.1780   -6.6096    0.0000 C   0  0  0  0  0  0  0  0  0  0  0  0
    8.3370   -5.3224    0.0000 C   0  0  0  0  0  0  0  0  0  0  0  0
    7.6133    0.5322    0.0000 C   0  0  0  0  0  0  0  0  0  0  0  0
    7.9211   -7.2787    0.0000 C   0  0  0  0  0  0  0  0  0  0  0  0
    9.0801   -5.9915    0.0000 C   0  0  0  0  0  0  0  0  0  0  0  0
    8.4223    1.1200    0.0000 C   0  0  0  0  0  0  0  0  0  0  0  0
    8.8722   -6.9697    0.0000 C   0  0  0  0  0  0  0  0  0  0  0  0
    8.1133    2.0711    0.0000 C   0  0  0  0  0  0  0  0  0  0  0  0
    5.8532    0.8110    0.0000 C   0  0  0  0  0  0  0  0  0  0  0  0
    8.7011    2.8801    0.0000 C   0  0  0  0  0  0  0  0  0  0  0  0
    5.1101    1.4801    0.0000 C   0  0  0  0  0  0  0  0  0  0  0  0
    8.2944    3.7936    0.0000 C   0  0  0  0  0  0  0  0  0  0  0  0
    7.2998    3.8982    0.0000 C   0  0  0  0  0  0  0  0  0  0  0  0
    8.8822    4.6027    0.0000 C   0  0  0  0  0  0  0  0  0  0  0  0
    6.8931    4.8117    0.0000 C   0  0  0  0  0  0  0  0  0  0  0  0
    8.4754    5.5162    0.0000 C   0  0  0  0  0  0  0  0  0  0  0  0
    7.4809    5.6207    0.0000 C   0  0  0  0  0  0  0  0  0  0  0  0
    7.6619    7.3433    0.0000 C   0  0  0  0  0  0  0  0  0  0  0  0
    7.2552    8.2568    0.0000 C   0  0  0  0  0  0  0  0  0  0  0  0
    7.2673   -4.3054    0.0000 H   0  0  0  0  0  0  0  0  0  0  0  0
    7.2216   -4.7401    0.0000 H   0  0  0  0  0  0  0  0  0  0  0  0
    6.1437   -3.0241    0.0000 H   0  0  0  0  0  0  0  0  0  0  0  0
    5.3322   -3.1966    0.0000 H   0  0  0  0  0  0  0  0  0  0  0  0
    5.0982   -5.4224    0.0000 H   0  0  0  0  0  0  0  0  0  0  0  0
    5.8562   -5.7598    0.0000 H   0  0  0  0  0  0  0  0  0  0  0  0
    4.5345   -3.6980    0.0000 H   0  0  0  0  0  0  0  0  0  0  0  0
    3.3301   -4.4423    0.0000 H   0  0  0  0  0  0  0  0  0  0  0  0
    7.8254   -4.0504    0.0000 H   0  0  0  0  0  0  0  0  0  0  0  0
    8.2239   -3.3601    0.0000 H   0  0  0  0  0  0  0  0  0  0  0  0
    2.7587   -4.3082    0.0000 H   0  0  0  0  0  0  0  0  0  0  0  0
    2.0305   -4.6323    0.0000 H   0  0  0  0  0  0  0  0  0  0  0  0
    4.4197   -6.3682    0.0000 H   0  0  0  0  0  0  0  0  0  0  0  0
    4.5030   -5.5755    0.0000 H   0  0  0  0  0  0  0  0  0  0  0  0
    6.1367   -1.8601    0.0000 H   0  0  0  0  0  0  0  0  0  0  0  0
    6.5352   -2.5504    0.0000 H   0  0  0  0  0  0  0  0  0  0  0  0
    8.6914   -2.5504    0.0000 H   0  0  0  0  0  0  0  0  0  0  0  0
    9.0899   -1.8601    0.0000 H   0  0  0  0  0  0  0  0  0  0  0  0
    1.5693   -5.2672    0.0000 H   0  0  0  0  0  0  0  0  0  0  0  0
    1.4860   -6.0598    0.0000 H   0  0  0  0  0  0  0  0  0  0  0  0
    3.2304   -7.3272    0.0000 H   0  0  0  0  0  0  0  0  0  0  0  0
    3.9585   -7.0030    0.0000 H   0  0  0  0  0  0  0  0  0  0  0  0
    7.0764   -0.1578    0.0000 H   0  0  0  0  0  0  0  0  0  0  0  0
    1.8052   -6.7767    0.0000 H   0  0  0  0  0  0  0  0  0  0  0  0
    2.4500   -7.2452    0.0000 H   0  0  0  0  0  0  0  0  0  0  0  0
    6.5352   -0.3852    0.0000 H   0  0  0  0  0  0  0  0  0  0  0  0
    6.1367   -1.0754    0.0000 H   0  0  0  0  0  0  0  0  0  0  0  0
    9.0899   -1.0754    0.0000 H   0  0  0  0  0  0  0  0  0  0  0  0
    8.6914   -0.3852    0.0000 H   0  0  0  0  0  0  0  0  0  0  0  0
    6.5883   -6.8012    0.0000 H   0  0  0  0  0  0  0  0  0  0  0  0
    8.4659   -4.7160    0.0000 H   0  0  0  0  0  0  0  0  0  0  0  0
    9.6698   -5.7999    0.0000 H   0  0  0  0  0  0  0  0  0  0  0  0
    2.5167   -2.6152    0.0000 H   0  0  0  0  0  0  0  0  0  0  0  0
    9.0120    0.9284    0.0000 H   0  0  0  0  0  0  0  0  0  0  0  0
    9.3330   -7.3845    0.0000 H   0  0  0  0  0  0  0  0  0  0  0  0
    5.3647    0.4293    0.0000 H   0  0  0  0  0  0  0  0  0  0  0  0
    6.1443    0.2636    0.0000 H   0  0  0  0  0  0  0  0  0  0  0  0
    9.1318    2.4341    0.0000 H   0  0  0  0  0  0  0  0  0  0  0  0
    9.2151    3.2268    0.0000 H   0  0  0  0  0  0  0  0  0  0  0  0
    5.5250    1.9409    0.0000 H   0  0  0  0  0  0  0  0  0  0  0  0
    4.6494    1.8950    0.0000 H   0  0  0  0  0  0  0  0  0  0  0  0
    4.6952    1.0194    0.0000 H   0  0  0  0  0  0  0  0  0  0  0  0
    6.9354    3.3966    0.0000 H   0  0  0  0  0  0  0  0  0  0  0  0
    9.4988    4.5378    0.0000 H   0  0  0  0  0  0  0  0  0  0  0  0
    6.2765    4.8765    0.0000 H   0  0  0  0  0  0  0  0  0  0  0  0
    8.8398    6.0178    0.0000 H   0  0  0  0  0  0  0  0  0  0  0  0
    8.0926    6.8973    0.0000 H   0  0  0  0  0  0  0  0  0  0  0  0
    8.1759    7.6900    0.0000 H   0  0  0  0  0  0  0  0  0  0  0  0
    7.8216    8.5090    0.0000 H   0  0  0  0  0  0  0  0  0  0  0  0
    7.0030    8.8232    0.0000 H   0  0  0  0  0  0  0  0  0  0  0  0
    6.6888    8.0047    0.0000 H   0  0  0  0  0  0  0  0  0  0  0  0
  1 31  1  0  0  0  0
  2 27  1  0  0  0  0
  2 79  1  0  0  0  0
  3 27  2  0  0  0  0
  4 44  1  0  0  0  0
  4 45  1  0  0  0  0
  5 11  1  0  0  0  0
  5 12  1  0  0  0  0
  5 13  1  0  0  0  0
  6 15  1  0  0  0  0
  6 19  1  0  0  0  0
  6 20  1  0  0  0  0
  7  8  1  0  0  0  0
  7 30  1  0  0  0  0
  7 36  1  0  0  0  0
  8 35  2  0  0  0  0
  9 10  1  0  0  0  0
  9 11  1  0  0  0  0
  9 15  1  6  0  0  0
  9 47  1  0  0  0  0
 10 12  1  0  0  0  0
 10 18  1  1  0  0  0
 10 48  1  0  0  0  0
 11 49  1  0  0  0  0
 11 50  1  0  0  0  0
 12 51  1  0  0  0  0
 12 52  1  0  0  0  0
 13 14  1  0  0  0  0
 13 27  1  6  0  0  0
 13 53  1  0  0  0  0
 14 16  1  0  0  0  0
 14 17  1  0  0  0  0
 14 54  1  0  0  0  0
 15 55  1  0  0  0  0
 15 56  1  0  0  0  0
 16 21  1  0  0  0  0
 16 57  1  0  0  0  0
 16 58  1  0  0  0  0
 17 22  1  0  0  0  0
 17 59  1  0  0  0  0
 17 60  1  0  0  0  0
 18 28  2  0  0  0  0
 18 29  1  0  0  0  0
 19 25  1  0  0  0  0
 19 61  1  0  0  0  0
 19 62  1  0  0  0  0
 20 26  1  0  0  0  0
 20 63  1  0  0  0  0
 20 64  1  0  0  0  0
 21 24  1  0  0  0  0
 21 65  1  0  0  0  0
 21 66  1  0  0  0  0
 22 24  1  0  0  0  0
 22 67  1  0  0  0  0
 22 68  1  0  0  0  0
 23 25  1  0  0  0  0
 23 26  1  0  0  0  0
 23 30  1  0  0  0  0
 23 69  1  0  0  0  0
 24 70  1  0  0  0  0
 24 71  1  0  0  0  0
 25 72  1  0  0  0  0
 25 73  1  0  0  0  0
 26 74  1  0  0  0  0
 26 75  1  0  0  0  0
 28 31  1  0  0  0  0
 28 76  1  0  0  0  0
 29 32  2  0  0  0  0
 29 77  1  0  0  0  0
 30 33  2  0  0  0  0
 31 34  2  0  0  0  0
 32 34  1  0  0  0  0
 32 78  1  0  0  0  0
 33 35  1  0  0  0  0
 33 80  1  0  0  0  0
 34 81  1  0  0  0  0
 35 37  1  0  0  0  0
 36 38  1  0  0  0  0
 36 82  1  0  0  0  0
 36 83  1  0  0  0  0
 37 39  1  0  0  0  0
 37 84  1  0  0  0  0
 37 85  1  0  0  0  0
 38 86  1  0  0  0  0
 38 87  1  0  0  0  0
 38 88  1  0  0  0  0
 39 40  2  0  0  0  0
 39 41  1  0  0  0  0
 40 42  1  0  0  0  0
 40 89  1  0  0  0  0
 41 43  2  0  0  0  0
 41 90  1  0  0  0  0
 42 44  2  0  0  0  0
 42 91  1  0  0  0  0
 43 44  1  0  0  0  0
 43 92  1  0  0  0  0
 45 46  1  0  0  0  0
 45 93  1  0  0  0  0
 45 94  1  0  0  0  0
 46 95  1  0  0  0  0
 46 96  1  0  0  0  0
 46 97  1  0  0  0  0
M  END
> <PUBCHEM_COMPOUND_CID>
516307
> <PUBCHEM_COMPOUND_CANONICALIZED>
1
> <PUBCHEM_CACTVS_COMPLEXITY>
935
> <PUBCHEM_CACTVS_HBOND_ACCEPTOR>
7
> <PUBCHEM_CACTVS_HBOND_DONOR>
1
> <PUBCHEM_CACTVS_ROTATABLE_BOND>
12
> <PUBCHEM_CACTVS_SUBSKEYS>
AAADcfB/sQAAAAAAAAAAAAAAAAAAAWLAAAA8YMEAAAAAAAAB0AAAHwAICAAADSzhng4yjpMIBgCqAyTyTACSDAAhogAY2CG+bJgOJjLE8fuG/CjkyBHY6AeYyOCOoAAAAAAAAABAAAAAAAAAAAAAAAAAAA==
> <PUBCHEM_IUPAC_OPENEYE_NAME>
(2R)-2-cyclohexyl-2-[(3S,4S)-3-[[4-[5-[(4-ethoxyphenyl)methyl]-2-ethyl-pyrazol-3-yl]-1-piperidyl]methyl]-4-(3-fluorophenyl)pyrrolidin-1-yl]acetic acid
> <PUBCHEM_IUPAC_CAS_NAME>
(2R)-2-cyclohexyl-2-[(3S,4S)-3-[[4-[5-[(4-ethoxyphenyl)methyl]-2-ethyl-3-pyrazolyl]-1-piperidinyl]methyl]-4-(3-fluorophenyl)-1-pyrrolidinyl]acetic acid
> <PUBCHEM_IUPAC_NAME_MARKUP>
(2<I>R</I>)-2-cyclohexyl-2-[(3<I>S</I>,4<I>S</I>)-3-[[4-[5-[(4-ethoxyphenyl)methyl]-2-ethylpyrazol-3-yl]piperidin-1-yl]methyl]-4-(3-fluorophenyl)pyrrolidin-1-yl]acetic acid
> <PUBCHEM_IUPAC_NAME>
(2R)-2-cyclohexyl-2-[(3S,4S)-3-[[4-[5-[(4-ethoxyphenyl)methyl]-2-ethylpyrazol-3-yl]piperidin-1-yl]methyl]-4-(3-fluorophenyl)pyrrolidin-1-yl]acetic acid
> <PUBCHEM_IUPAC_SYSTEMATIC_NAME>
(2R)-2-cyclohexyl-2-[(3S,4S)-3-[[4-[5-[(4-ethoxyphenyl)methyl]-2-ethyl-pyrazol-3-yl]piperidin-1-yl]methyl]-4-(3-fluorophenyl)pyrrolidin-1-yl]ethanoic acid
> <PUBCHEM_IUPAC_TRADITIONAL_NAME>
(2R)-2-cyclohexyl-2-[(3S,4S)-3-[[4-[5-(4-ethoxybenzyl)-2-ethyl-pyrazol-3-yl]piperidino]methyl]-4-(3-fluorophenyl)pyrrolidino]acetic acid
> <PUBCHEM_IUPAC_INCHI>
InChI=1S/C38H51FN4O3/c1-3-43-36(23-33(40-43)21-27-13-15-34(16-14-27)46-4-2)28-17-19-41(20-18-28)24-31-25-42(26-35(31)30-11-8-12-32(39)22-30)37(38(44)45)29-9-6-5-7-10-29/h8,11-16,22-23,28-29,31,35,37H,3-7,9-10,17-21,24-26H2,1-2H3,(H,44,45)/t31-,35+,37+/m0/s1
> <PUBCHEM_IUPAC_INCHIKEY>
BLLRESRTLSJGCS-FCWLVIOWSA-N
> <PUBCHEM_XLOGP3_AA>
5.1
> <PUBCHEM_EXACT_MASS>
630.39451966
> <PUBCHEM_MOLECULAR_FORMULA>
C38H51FN4O3
> <PUBCHEM_MOLECULAR_WEIGHT>
630.8
> <PUBCHEM_OPENEYE_CAN_SMILES>
CCN1C(=CC(=N1)CC2=CC=C(C=C2)OCC)C3CCN(CC3)CC4CN(CC4C5=CC(=CC=C5)F)C(C6CCCCC6)C(=O)O
> <PUBCHEM_OPENEYE_ISO_SMILES>
CCN1C(=CC(=N1)CC2=CC=C(C=C2)OCC)C3CCN(CC3)C[C@H]4CN(C[C@@H]4C5=CC(=CC=C5)F)[C@H](C6CCCCC6)C(=O)O
> <PUBCHEM_CACTVS_TPSA>
70.8
> <PUBCHEM_MONOISOTOPIC_WEIGHT>
630.39451966
> <PUBCHEM_TOTAL_CHARGE>
0
> <PUBCHEM_HEAVY_ATOM_COUNT>
46
> <PUBCHEM_ATOM_DEF_STEREO_COUNT>
3
> <PUBCHEM_ATOM_UDEF_STEREO_COUNT>
0
> <PUBCHEM_BOND_DEF_STEREO_COUNT>
0
> <PUBCHEM_BOND_UDEF_STEREO_COUNT>
0
> <PUBCHEM_ISOTOPIC_ATOM_COUNT>
0
> <PUBCHEM_COMPONENT_COUNT>
1
> <PUBCHEM_CACTVS_TAUTO_COUNT>
-1
> <PUBCHEM_COORDINATE_TYPE>
1
5
255
> <PUBCHEM_BONDANNOTATIONS>
10  18  5
13  27  6
18  28  8
18  29  8
28  31  8
29  32  8
30  33  8
31  34  8
32  34  8
33  35  8
39  40  8
39  41  8
40  42  8
41  43  8
42  44  8
43  44  8
7  30  8
7  8  8
8  35  8
9  15  6
$$$$
