516329
  -OEChem-10302200282D
 90 95  0     1  0  0  0  0  0999 V2000
    4.2176    1.5660    0.0000 F   0  0  0  0  0  0  0  0  0  0  0  0
    4.1436    2.9782    0.0000 F   0  0  0  0  0  0  0  0  0  0  0  0
    5.5559    3.0523    0.0000 F   0  0  0  0  0  0  0  0  0  0  0  0
    2.3644   -4.0752    0.0000 O   0  0  0  0  0  0  0  0  0  0  0  0
    3.7657   -5.0932    0.0000 O   0  0  0  0  0  0  0  0  0  0  0  0
    4.9413   -3.4752    0.0000 N   0  0  3  0  0  0  0  0  0  0  0  0
    7.3900   -1.6388    0.0000 N   0  0  0  0  0  0  0  0  0  0  0  0
    6.5809    1.9490    0.0000 N   0  0  0  0  0  0  0  0  0  0  0  0
    6.8900    2.9001    0.0000 N   0  0  0  0  0  0  0  0  0  0  0  0
    6.5239   -3.1388    0.0000 C   0  0  2  0  0  0  0  0  0  0  0  0
    6.4194   -4.1333    0.0000 C   0  0  2  0  0  0  0  0  0  0  0  0
    5.6104   -2.7320    0.0000 C   0  0  0  0  0  0  0  0  0  0  0  0
    5.4413   -4.3412    0.0000 C   0  0  0  0  0  0  0  0  0  0  0  0
    3.9467   -3.3707    0.0000 C   0  0  2  0  0  0  0  0  0  0  0  0
    3.5400   -2.4571    0.0000 C   0  0  0  0  0  0  0  0  0  0  0  0
    7.3900   -2.6388    0.0000 C   0  0  0  0  0  0  0  0  0  0  0  0
    2.5455   -2.3526    0.0000 C   0  0  0  0  0  0  0  0  0  0  0  0
    4.1278   -1.6481    0.0000 C   0  0  0  0  0  0  0  0  0  0  0  0
    7.1626   -4.8024    0.0000 C   0  0  0  0  0  0  0  0  0  0  0  0
    6.5239   -1.1388    0.0000 C   0  0  0  0  0  0  0  0  0  0  0  0
    8.2560   -1.1388    0.0000 C   0  0  0  0  0  0  0  0  0  0  0  0
    2.1387   -1.4390    0.0000 C   0  0  0  0  0  0  0  0  0  0  0  0
    3.7210   -0.7346    0.0000 C   0  0  0  0  0  0  0  0  0  0  0  0
    7.3900    0.3612    0.0000 C   0  0  0  0  0  0  0  0  0  0  0  0
    2.7265   -0.6300    0.0000 C   0  0  0  0  0  0  0  0  0  0  0  0
    6.5239   -0.1388    0.0000 C   0  0  0  0  0  0  0  0  0  0  0  0
    8.2560   -0.1388    0.0000 C   0  0  0  0  0  0  0  0  0  0  0  0
    3.3590   -4.1797    0.0000 C   0  0  0  0  0  0  0  0  0  0  0  0
    6.9546   -5.7806    0.0000 C   0  0  0  0  0  0  0  0  0  0  0  0
    8.1136   -4.4934    0.0000 C   0  0  0  0  0  0  0  0  0  0  0  0
    7.3900    1.3612    0.0000 C   0  0  0  0  0  0  0  0  0  0  0  0
    7.6978   -6.4497    0.0000 C   0  0  0  0  0  0  0  0  0  0  0  0
    8.8568   -5.1626    0.0000 C   0  0  0  0  0  0  0  0  0  0  0  0
    8.1990    1.9490    0.0000 C   0  0  0  0  0  0  0  0  0  0  0  0
    8.6488   -6.1407    0.0000 C   0  0  0  0  0  0  0  0  0  0  0  0
    7.8900    2.9001    0.0000 C   0  0  0  0  0  0  0  0  0  0  0  0
    5.6299    1.6400    0.0000 C   0  0  0  0  0  0  0  0  0  0  0  0
    8.4777    3.7091    0.0000 C   0  0  0  0  0  0  0  0  0  0  0  0
    4.8867    2.3091    0.0000 C   0  0  0  0  0  0  0  0  0  0  0  0
    8.0710    4.6226    0.0000 C   0  0  0  0  0  0  0  0  0  0  0  0
    7.0765    4.7272    0.0000 C   0  0  0  0  0  0  0  0  0  0  0  0
    8.6588    5.4316    0.0000 C   0  0  0  0  0  0  0  0  0  0  0  0
    6.6698    5.6407    0.0000 C   0  0  0  0  0  0  0  0  0  0  0  0
    8.2520    6.3452    0.0000 C   0  0  0  0  0  0  0  0  0  0  0  0
    7.2575    6.4497    0.0000 C   0  0  0  0  0  0  0  0  0  0  0  0
    6.4915   -2.5196    0.0000 H   0  0  0  0  0  0  0  0  0  0  0  0
    6.2589   -4.7322    0.0000 H   0  0  0  0  0  0  0  0  0  0  0  0
    5.9204   -2.1951    0.0000 H   0  0  0  0  0  0  0  0  0  0  0  0
    5.1088   -2.3676    0.0000 H   0  0  0  0  0  0  0  0  0  0  0  0
    4.8749   -4.5934    0.0000 H   0  0  0  0  0  0  0  0  0  0  0  0
    5.6328   -4.9309    0.0000 H   0  0  0  0  0  0  0  0  0  0  0  0
    4.1989   -3.9371    0.0000 H   0  0  0  0  0  0  0  0  0  0  0  0
    3.1756   -2.9587    0.0000 H   0  0  0  0  0  0  0  0  0  0  0  0
    7.6020   -3.2214    0.0000 H   0  0  0  0  0  0  0  0  0  0  0  0
    8.0005   -2.5311    0.0000 H   0  0  0  0  0  0  0  0  0  0  0  0
    1.9439   -2.5026    0.0000 H   0  0  0  0  0  0  0  0  0  0  0  0
    2.5887   -2.9711    0.0000 H   0  0  0  0  0  0  0  0  0  0  0  0
    4.5585   -2.0941    0.0000 H   0  0  0  0  0  0  0  0  0  0  0  0
    4.6418   -1.3014    0.0000 H   0  0  0  0  0  0  0  0  0  0  0  0
    5.9134   -1.0311    0.0000 H   0  0  0  0  0  0  0  0  0  0  0  0
    6.3119   -1.7214    0.0000 H   0  0  0  0  0  0  0  0  0  0  0  0
    8.4680   -1.7214    0.0000 H   0  0  0  0  0  0  0  0  0  0  0  0
    8.8666   -1.0311    0.0000 H   0  0  0  0  0  0  0  0  0  0  0  0
    1.7080   -0.9931    0.0000 H   0  0  0  0  0  0  0  0  0  0  0  0
    1.6247   -1.7857    0.0000 H   0  0  0  0  0  0  0  0  0  0  0  0
    4.3226   -0.5846    0.0000 H   0  0  0  0  0  0  0  0  0  0  0  0
    3.6778   -0.1161    0.0000 H   0  0  0  0  0  0  0  0  0  0  0  0
    7.9269    0.6712    0.0000 H   0  0  0  0  0  0  0  0  0  0  0  0
    2.8974   -0.0340    0.0000 H   0  0  0  0  0  0  0  0  0  0  0  0
    2.1693   -0.3582    0.0000 H   0  0  0  0  0  0  0  0  0  0  0  0
    6.3119    0.4438    0.0000 H   0  0  0  0  0  0  0  0  0  0  0  0
    5.9134   -0.2464    0.0000 H   0  0  0  0  0  0  0  0  0  0  0  0
    8.8666   -0.2464    0.0000 H   0  0  0  0  0  0  0  0  0  0  0  0
    8.4680    0.4438    0.0000 H   0  0  0  0  0  0  0  0  0  0  0  0
    6.3650   -5.9722    0.0000 H   0  0  0  0  0  0  0  0  0  0  0  0
    8.2425   -3.8870    0.0000 H   0  0  0  0  0  0  0  0  0  0  0  0
    7.5689   -7.0562    0.0000 H   0  0  0  0  0  0  0  0  0  0  0  0
    9.4464   -4.9710    0.0000 H   0  0  0  0  0  0  0  0  0  0  0  0
    2.0000   -4.5767    0.0000 H   0  0  0  0  0  0  0  0  0  0  0  0
    8.7886    1.7574    0.0000 H   0  0  0  0  0  0  0  0  0  0  0  0
    9.1096   -6.5556    0.0000 H   0  0  0  0  0  0  0  0  0  0  0  0
    5.1413    1.2583    0.0000 H   0  0  0  0  0  0  0  0  0  0  0  0
    5.9210    1.0926    0.0000 H   0  0  0  0  0  0  0  0  0  0  0  0
    8.9084    3.2631    0.0000 H   0  0  0  0  0  0  0  0  0  0  0  0
    8.9918    4.0558    0.0000 H   0  0  0  0  0  0  0  0  0  0  0  0
    6.7121    4.2256    0.0000 H   0  0  0  0  0  0  0  0  0  0  0  0
    9.2754    5.3668    0.0000 H   0  0  0  0  0  0  0  0  0  0  0  0
    6.0531    5.7055    0.0000 H   0  0  0  0  0  0  0  0  0  0  0  0
    8.6165    6.8468    0.0000 H   0  0  0  0  0  0  0  0  0  0  0  0
    7.0054    7.0161    0.0000 H   0  0  0  0  0  0  0  0  0  0  0  0
  1 39  1  0  0  0  0
  2 39  1  0  0  0  0
  3 39  1  0  0  0  0
  4 28  1  0  0  0  0
  4 79  1  0  0  0  0
  5 28  2  0  0  0  0
  6 12  1  0  0  0  0
  6 13  1  0  0  0  0
  6 14  1  0  0  0  0
  7 16  1  0  0  0  0
  7 20  1  0  0  0  0
  7 21  1  0  0  0  0
  8  9  1  0  0  0  0
  8 31  1  0  0  0  0
  8 37  1  0  0  0  0
  9 36  2  0  0  0  0
 10 11  1  0  0  0  0
 10 12  1  0  0  0  0
 10 16  1  6  0  0  0
 10 46  1  0  0  0  0
 11 13  1  0  0  0  0
 11 19  1  1  0  0  0
 11 47  1  0  0  0  0
 12 48  1  0  0  0  0
 12 49  1  0  0  0  0
 13 50  1  0  0  0  0
 13 51  1  0  0  0  0
 14 15  1  0  0  0  0
 14 28  1  1  0  0  0
 14 52  1  0  0  0  0
 15 17  1  0  0  0  0
 15 18  1  0  0  0  0
 15 53  1  0  0  0  0
 16 54  1  0  0  0  0
 16 55  1  0  0  0  0
 17 22  1  0  0  0  0
 17 56  1  0  0  0  0
 17 57  1  0  0  0  0
 18 23  1  0  0  0  0
 18 58  1  0  0  0  0
 18 59  1  0  0  0  0
 19 29  2  0  0  0  0
 19 30  1  0  0  0  0
 20 26  1  0  0  0  0
 20 60  1  0  0  0  0
 20 61  1  0  0  0  0
 21 27  1  0  0  0  0
 21 62  1  0  0  0  0
 21 63  1  0  0  0  0
 22 25  1  0  0  0  0
 22 64  1  0  0  0  0
 22 65  1  0  0  0  0
 23 25  1  0  0  0  0
 23 66  1  0  0  0  0
 23 67  1  0  0  0  0
 24 26  1  0  0  0  0
 24 27  1  0  0  0  0
 24 31  1  0  0  0  0
 24 68  1  0  0  0  0
 25 69  1  0  0  0  0
 25 70  1  0  0  0  0
 26 71  1  0  0  0  0
 26 72  1  0  0  0  0
 27 73  1  0  0  0  0
 27 74  1  0  0  0  0
 29 32  1  0  0  0  0
 29 75  1  0  0  0  0
 30 33  2  0  0  0  0
 30 76  1  0  0  0  0
 31 34  2  0  0  0  0
 32 35  2  0  0  0  0
 32 77  1  0  0  0  0
 33 35  1  0  0  0  0
 33 78  1  0  0  0  0
 34 36  1  0  0  0  0
 34 80  1  0  0  0  0
 35 81  1  0  0  0  0
 36 38  1  0  0  0  0
 37 39  1  0  0  0  0
 37 82  1  0  0  0  0
 37 83  1  0  0  0  0
 38 40  1  0  0  0  0
 38 84  1  0  0  0  0
 38 85  1  0  0  0  0
 40 41  2  0  0  0  0
 40 42  1  0  0  0  0
 41 43  1  0  0  0  0
 41 86  1  0  0  0  0
 42 44  2  0  0  0  0
 42 87  1  0  0  0  0
 43 45  2  0  0  0  0
 43 88  1  0  0  0  0
 44 45  1  0  0  0  0
 44 89  1  0  0  0  0
 45 90  1  0  0  0  0
M  END
> <PUBCHEM_COMPOUND_CID>
516329
> <PUBCHEM_COMPOUND_CANONICALIZED>
1
> <PUBCHEM_CACTVS_COMPLEXITY>
926
> <PUBCHEM_CACTVS_HBOND_ACCEPTOR>
8
> <PUBCHEM_CACTVS_HBOND_DONOR>
1
> <PUBCHEM_CACTVS_ROTATABLE_BOND>
10
> <PUBCHEM_CACTVS_SUBSKEYS>
AAADcfB/sYAAAAAAAAAAAAAAAAAAAWLAAAA8YMEAAAAAAAAB0AAAHwAICAAADSjBnhQwiJMIAgCqAyTyTACSBAAhggAY2CG4ZJgKIDLA0fGE5AhkiADYyAeYyOCOgAAAAAAAAAAAAAAAAAAAAAAAAAAAAA==
> <PUBCHEM_IUPAC_OPENEYE_NAME>
(2R)-2-[(3S,4S)-3-[[4-[5-benzyl-2-(2,2,2-trifluoroethyl)pyrazol-3-yl]-1-piperidyl]methyl]-4-phenyl-pyrrolidin-1-yl]-2-cyclohexyl-acetic acid
> <PUBCHEM_IUPAC_CAS_NAME>
(2R)-2-cyclohexyl-2-[(3S,4S)-3-phenyl-4-[[4-[5-(phenylmethyl)-2-(2,2,2-trifluoroethyl)-3-pyrazolyl]-1-piperidinyl]methyl]-1-pyrrolidinyl]acetic acid
> <PUBCHEM_IUPAC_NAME_MARKUP>
(2<I>R</I>)-2-[(3<I>S</I>,4<I>S</I>)-3-[[4-[5-benzyl-2-(2,2,2-trifluoroethyl)pyrazol-3-yl]piperidin-1-yl]methyl]-4-phenylpyrrolidin-1-yl]-2-cyclohexylacetic acid
> <PUBCHEM_IUPAC_NAME>
(2R)-2-[(3S,4S)-3-[[4-[5-benzyl-2-(2,2,2-trifluoroethyl)pyrazol-3-yl]piperidin-1-yl]methyl]-4-phenylpyrrolidin-1-yl]-2-cyclohexylacetic acid
> <PUBCHEM_IUPAC_SYSTEMATIC_NAME>
(2R)-2-cyclohexyl-2-[(3S,4S)-3-phenyl-4-[[4-[5-(phenylmethyl)-2-[2,2,2-tris(fluoranyl)ethyl]pyrazol-3-yl]piperidin-1-yl]methyl]pyrrolidin-1-yl]ethanoic acid
> <PUBCHEM_IUPAC_TRADITIONAL_NAME>
(2R)-2-[(3S,4S)-3-[[4-[5-benzyl-2-(2,2,2-trifluoroethyl)pyrazol-3-yl]piperidino]methyl]-4-phenyl-pyrrolidino]-2-cyclohexyl-acetic acid
> <PUBCHEM_IUPAC_INCHI>
InChI=1S/C36H45F3N4O2/c37-36(38,39)25-43-33(21-31(40-43)20-26-10-4-1-5-11-26)28-16-18-41(19-17-28)22-30-23-42(24-32(30)27-12-6-2-7-13-27)34(35(44)45)29-14-8-3-9-15-29/h1-2,4-7,10-13,21,28-30,32,34H,3,8-9,14-20,22-25H2,(H,44,45)/t30-,32+,34+/m0/s1
> <PUBCHEM_IUPAC_INCHIKEY>
KYMFFPXQUJYRLZ-DEIXXNFJSA-N
> <PUBCHEM_XLOGP3_AA>
5.4
> <PUBCHEM_EXACT_MASS>
622.34946118
> <PUBCHEM_MOLECULAR_FORMULA>
C36H45F3N4O2
> <PUBCHEM_MOLECULAR_WEIGHT>
622.8
> <PUBCHEM_OPENEYE_CAN_SMILES>
C1CCC(CC1)C(C(=O)O)N2CC(C(C2)C3=CC=CC=C3)CN4CCC(CC4)C5=CC(=NN5CC(F)(F)F)CC6=CC=CC=C6
> <PUBCHEM_OPENEYE_ISO_SMILES>
C1CCC(CC1)[C@H](C(=O)O)N2C[C@@H]([C@H](C2)C3=CC=CC=C3)CN4CCC(CC4)C5=CC(=NN5CC(F)(F)F)CC6=CC=CC=C6
> <PUBCHEM_CACTVS_TPSA>
61.6
> <PUBCHEM_MONOISOTOPIC_WEIGHT>
622.34946118
> <PUBCHEM_TOTAL_CHARGE>
0
> <PUBCHEM_HEAVY_ATOM_COUNT>
45
> <PUBCHEM_ATOM_DEF_STEREO_COUNT>
3
> <PUBCHEM_ATOM_UDEF_STEREO_COUNT>
0
> <PUBCHEM_BOND_DEF_STEREO_COUNT>
0
> <PUBCHEM_BOND_UDEF_STEREO_COUNT>
0
> <PUBCHEM_ISOTOPIC_ATOM_COUNT>
0
> <PUBCHEM_COMPONENT_COUNT>
1
> <PUBCHEM_CACTVS_TAUTO_COUNT>
-1
> <PUBCHEM_COORDINATE_TYPE>
1
5
255
> <PUBCHEM_BONDANNOTATIONS>
10  16  6
11  19  5
14  28  5
19  29  8
19  30  8
29  32  8
30  33  8
31  34  8
32  35  8
33  35  8
34  36  8
40  41  8
40  42  8
41  43  8
42  44  8
43  45  8
44  45  8
8  31  8
8  9  8
9  36  8
$$$$
