516301
  -OEChem-10302200282D
 93 98  0     1  0  0  0  0  0999 V2000
    7.7132   -7.8523    0.0000 F   0  0  0  0  0  0  0  0  0  0  0  0
    6.6674    7.8523    0.0000 F   0  0  0  0  0  0  0  0  0  0  0  0
    7.9877    7.3455    0.0000 F   0  0  0  0  0  0  0  0  0  0  0  0
    6.1606    6.5320    0.0000 F   0  0  0  0  0  0  0  0  0  0  0  0
    2.7688   -2.7771    0.0000 O   0  0  0  0  0  0  0  0  0  0  0  0
    4.3511   -2.0726    0.0000 O   0  0  0  0  0  0  0  0  0  0  0  0
    5.1646   -3.8997    0.0000 N   0  0  3  0  0  0  0  0  0  0  0  0
    7.6133   -2.0632    0.0000 N   0  0  0  0  0  0  0  0  0  0  0  0
    6.8043    1.5245    0.0000 N   0  0  0  0  0  0  0  0  0  0  0  0
    7.1133    2.4756    0.0000 N   0  0  0  0  0  0  0  0  0  0  0  0
    6.7473   -3.5632    0.0000 C   0  0  2  0  0  0  0  0  0  0  0  0
    6.6428   -4.5578    0.0000 C   0  0  2  0  0  0  0  0  0  0  0  0
    5.8338   -3.1565    0.0000 C   0  0  0  0  0  0  0  0  0  0  0  0
    5.6646   -4.7657    0.0000 C   0  0  0  0  0  0  0  0  0  0  0  0
    4.1701   -3.7951    0.0000 C   0  0  2  0  0  0  0  0  0  0  0  0
    3.5823   -4.6042    0.0000 C   0  0  0  0  0  0  0  0  0  0  0  0
    7.6133   -3.0632    0.0000 C   0  0  0  0  0  0  0  0  0  0  0  0
    2.5878   -4.4996    0.0000 C   0  0  0  0  0  0  0  0  0  0  0  0
    3.9890   -5.5177    0.0000 C   0  0  0  0  0  0  0  0  0  0  0  0
    7.3859   -5.2269    0.0000 C   0  0  0  0  0  0  0  0  0  0  0  0
    6.7473   -1.5632    0.0000 C   0  0  0  0  0  0  0  0  0  0  0  0
    8.4793   -1.5632    0.0000 C   0  0  0  0  0  0  0  0  0  0  0  0
    2.0000   -5.3086    0.0000 C   0  0  0  0  0  0  0  0  0  0  0  0
    3.4013   -6.3267    0.0000 C   0  0  0  0  0  0  0  0  0  0  0  0
    7.6133   -0.0633    0.0000 C   0  0  0  0  0  0  0  0  0  0  0  0
    2.4067   -6.2222    0.0000 C   0  0  0  0  0  0  0  0  0  0  0  0
    6.7473   -0.5633    0.0000 C   0  0  0  0  0  0  0  0  0  0  0  0
    8.4793   -0.5633    0.0000 C   0  0  0  0  0  0  0  0  0  0  0  0
    3.7634   -2.8816    0.0000 C   0  0  0  0  0  0  0  0  0  0  0  0
    7.1780   -6.2050    0.0000 C   0  0  0  0  0  0  0  0  0  0  0  0
    8.3370   -4.9179    0.0000 C   0  0  0  0  0  0  0  0  0  0  0  0
    7.6133    0.9367    0.0000 C   0  0  0  0  0  0  0  0  0  0  0  0
    7.9211   -6.8742    0.0000 C   0  0  0  0  0  0  0  0  0  0  0  0
    9.0801   -5.5870    0.0000 C   0  0  0  0  0  0  0  0  0  0  0  0
    8.4223    1.5245    0.0000 C   0  0  0  0  0  0  0  0  0  0  0  0
    8.8722   -6.5652    0.0000 C   0  0  0  0  0  0  0  0  0  0  0  0
    8.1133    2.4756    0.0000 C   0  0  0  0  0  0  0  0  0  0  0  0
    5.8532    1.2155    0.0000 C   0  0  0  0  0  0  0  0  0  0  0  0
    8.7011    3.2846    0.0000 C   0  0  0  0  0  0  0  0  0  0  0  0
    5.1101    1.8846    0.0000 C   0  0  0  0  0  0  0  0  0  0  0  0
    8.2944    4.1982    0.0000 C   0  0  0  0  0  0  0  0  0  0  0  0
    7.2998    4.3027    0.0000 C   0  0  0  0  0  0  0  0  0  0  0  0
    8.8822    5.0072    0.0000 C   0  0  0  0  0  0  0  0  0  0  0  0
    6.8931    5.2162    0.0000 C   0  0  0  0  0  0  0  0  0  0  0  0
    8.4754    5.9207    0.0000 C   0  0  0  0  0  0  0  0  0  0  0  0
    7.4809    6.0252    0.0000 C   0  0  0  0  0  0  0  0  0  0  0  0
    7.0742    6.9388    0.0000 C   0  0  0  0  0  0  0  0  0  0  0  0
    7.2673   -3.9009    0.0000 H   0  0  0  0  0  0  0  0  0  0  0  0
    6.4823   -5.1566    0.0000 H   0  0  0  0  0  0  0  0  0  0  0  0
    6.1437   -2.6196    0.0000 H   0  0  0  0  0  0  0  0  0  0  0  0
    5.3322   -2.7921    0.0000 H   0  0  0  0  0  0  0  0  0  0  0  0
    5.0982   -5.0179    0.0000 H   0  0  0  0  0  0  0  0  0  0  0  0
    5.8562   -5.3553    0.0000 H   0  0  0  0  0  0  0  0  0  0  0  0
    4.5345   -3.2935    0.0000 H   0  0  0  0  0  0  0  0  0  0  0  0
    3.3301   -4.0378    0.0000 H   0  0  0  0  0  0  0  0  0  0  0  0
    7.8254   -3.6459    0.0000 H   0  0  0  0  0  0  0  0  0  0  0  0
    8.2239   -2.9556    0.0000 H   0  0  0  0  0  0  0  0  0  0  0  0
    2.7587   -3.9036    0.0000 H   0  0  0  0  0  0  0  0  0  0  0  0
    2.0305   -4.2278    0.0000 H   0  0  0  0  0  0  0  0  0  0  0  0
    4.4197   -5.9637    0.0000 H   0  0  0  0  0  0  0  0  0  0  0  0
    4.5030   -5.1710    0.0000 H   0  0  0  0  0  0  0  0  0  0  0  0
    6.1367   -1.4556    0.0000 H   0  0  0  0  0  0  0  0  0  0  0  0
    6.5352   -2.1459    0.0000 H   0  0  0  0  0  0  0  0  0  0  0  0
    8.6914   -2.1459    0.0000 H   0  0  0  0  0  0  0  0  0  0  0  0
    9.0899   -1.4556    0.0000 H   0  0  0  0  0  0  0  0  0  0  0  0
    1.5693   -4.8626    0.0000 H   0  0  0  0  0  0  0  0  0  0  0  0
    1.4860   -5.6553    0.0000 H   0  0  0  0  0  0  0  0  0  0  0  0
    3.2304   -6.9227    0.0000 H   0  0  0  0  0  0  0  0  0  0  0  0
    3.9585   -6.5985    0.0000 H   0  0  0  0  0  0  0  0  0  0  0  0
    7.0764    0.2467    0.0000 H   0  0  0  0  0  0  0  0  0  0  0  0
    1.8052   -6.3722    0.0000 H   0  0  0  0  0  0  0  0  0  0  0  0
    2.4500   -6.8407    0.0000 H   0  0  0  0  0  0  0  0  0  0  0  0
    6.5352    0.0194    0.0000 H   0  0  0  0  0  0  0  0  0  0  0  0
    6.1367   -0.6709    0.0000 H   0  0  0  0  0  0  0  0  0  0  0  0
    9.0899   -0.6709    0.0000 H   0  0  0  0  0  0  0  0  0  0  0  0
    8.6914    0.0194    0.0000 H   0  0  0  0  0  0  0  0  0  0  0  0
    6.5883   -6.3966    0.0000 H   0  0  0  0  0  0  0  0  0  0  0  0
    8.4659   -4.3114    0.0000 H   0  0  0  0  0  0  0  0  0  0  0  0
    9.6698   -5.3954    0.0000 H   0  0  0  0  0  0  0  0  0  0  0  0
    2.5167   -2.2107    0.0000 H   0  0  0  0  0  0  0  0  0  0  0  0
    9.0120    1.3329    0.0000 H   0  0  0  0  0  0  0  0  0  0  0  0
    9.3330   -6.9800    0.0000 H   0  0  0  0  0  0  0  0  0  0  0  0
    5.3647    0.8338    0.0000 H   0  0  0  0  0  0  0  0  0  0  0  0
    6.1443    0.6681    0.0000 H   0  0  0  0  0  0  0  0  0  0  0  0
    9.1318    2.8386    0.0000 H   0  0  0  0  0  0  0  0  0  0  0  0
    9.2151    3.6313    0.0000 H   0  0  0  0  0  0  0  0  0  0  0  0
    5.5250    2.3454    0.0000 H   0  0  0  0  0  0  0  0  0  0  0  0
    4.6494    2.2995    0.0000 H   0  0  0  0  0  0  0  0  0  0  0  0
    4.6952    1.4239    0.0000 H   0  0  0  0  0  0  0  0  0  0  0  0
    6.9354    3.8011    0.0000 H   0  0  0  0  0  0  0  0  0  0  0  0
    9.4988    4.9424    0.0000 H   0  0  0  0  0  0  0  0  0  0  0  0
    6.2765    5.2810    0.0000 H   0  0  0  0  0  0  0  0  0  0  0  0
    8.8398    6.4223    0.0000 H   0  0  0  0  0  0  0  0  0  0  0  0
  1 33  1  0  0  0  0
  2 47  1  0  0  0  0
  3 47  1  0  0  0  0
  4 47  1  0  0  0  0
  5 29  1  0  0  0  0
  5 80  1  0  0  0  0
  6 29  2  0  0  0  0
  7 13  1  0  0  0  0
  7 14  1  0  0  0  0
  7 15  1  0  0  0  0
  8 17  1  0  0  0  0
  8 21  1  0  0  0  0
  8 22  1  0  0  0  0
  9 10  1  0  0  0  0
  9 32  1  0  0  0  0
  9 38  1  0  0  0  0
 10 37  2  0  0  0  0
 11 12  1  0  0  0  0
 11 13  1  0  0  0  0
 11 17  1  6  0  0  0
 11 48  1  0  0  0  0
 12 14  1  0  0  0  0
 12 20  1  1  0  0  0
 12 49  1  0  0  0  0
 13 50  1  0  0  0  0
 13 51  1  0  0  0  0
 14 52  1  0  0  0  0
 14 53  1  0  0  0  0
 15 16  1  0  0  0  0
 15 29  1  6  0  0  0
 15 54  1  0  0  0  0
 16 18  1  0  0  0  0
 16 19  1  0  0  0  0
 16 55  1  0  0  0  0
 17 56  1  0  0  0  0
 17 57  1  0  0  0  0
 18 23  1  0  0  0  0
 18 58  1  0  0  0  0
 18 59  1  0  0  0  0
 19 24  1  0  0  0  0
 19 60  1  0  0  0  0
 19 61  1  0  0  0  0
 20 30  2  0  0  0  0
 20 31  1  0  0  0  0
 21 27  1  0  0  0  0
 21 62  1  0  0  0  0
 21 63  1  0  0  0  0
 22 28  1  0  0  0  0
 22 64  1  0  0  0  0
 22 65  1  0  0  0  0
 23 26  1  0  0  0  0
 23 66  1  0  0  0  0
 23 67  1  0  0  0  0
 24 26  1  0  0  0  0
 24 68  1  0  0  0  0
 24 69  1  0  0  0  0
 25 27  1  0  0  0  0
 25 28  1  0  0  0  0
 25 32  1  0  0  0  0
 25 70  1  0  0  0  0
 26 71  1  0  0  0  0
 26 72  1  0  0  0  0
 27 73  1  0  0  0  0
 27 74  1  0  0  0  0
 28 75  1  0  0  0  0
 28 76  1  0  0  0  0
 30 33  1  0  0  0  0
 30 77  1  0  0  0  0
 31 34  2  0  0  0  0
 31 78  1  0  0  0  0
 32 35  2  0  0  0  0
 33 36  2  0  0  0  0
 34 36  1  0  0  0  0
 34 79  1  0  0  0  0
 35 37  1  0  0  0  0
 35 81  1  0  0  0  0
 36 82  1  0  0  0  0
 37 39  1  0  0  0  0
 38 40  1  0  0  0  0
 38 83  1  0  0  0  0
 38 84  1  0  0  0  0
 39 41  1  0  0  0  0
 39 85  1  0  0  0  0
 39 86  1  0  0  0  0
 40 87  1  0  0  0  0
 40 88  1  0  0  0  0
 40 89  1  0  0  0  0
 41 42  2  0  0  0  0
 41 43  1  0  0  0  0
 42 44  1  0  0  0  0
 42 90  1  0  0  0  0
 43 45  2  0  0  0  0
 43 91  1  0  0  0  0
 44 46  2  0  0  0  0
 44 92  1  0  0  0  0
 45 46  1  0  0  0  0
 45 93  1  0  0  0  0
 46 47  1  0  0  0  0
M  END
> <PUBCHEM_COMPOUND_CID>
516301
> <PUBCHEM_COMPOUND_CANONICALIZED>
1
> <PUBCHEM_CACTVS_COMPLEXITY>
995
> <PUBCHEM_CACTVS_HBOND_ACCEPTOR>
9
> <PUBCHEM_CACTVS_HBOND_DONOR>
1
> <PUBCHEM_CACTVS_ROTATABLE_BOND>
10
> <PUBCHEM_CACTVS_SUBSKEYS>
AAADcfB/scAAAAAAAAAAAAAAAAAAAWLAAAA8YMEAAAAAAAAB0AAAHwAICAAADSjBnhwyiJMIAgCqAyTyTACSBAAhggAY2CG4ZJgKIDLA0fGE5AhkiADYyAeYyOCOwAAAAAAAAACAAAAAAAAAAAAAAAAAAA==
> <PUBCHEM_IUPAC_OPENEYE_NAME>
(2R)-2-cyclohexyl-2-[(3S,4S)-3-[[4-[2-ethyl-5-[[4-(trifluoromethyl)phenyl]methyl]pyrazol-3-yl]-1-piperidyl]methyl]-4-(3-fluorophenyl)pyrrolidin-1-yl]acetic acid
> <PUBCHEM_IUPAC_CAS_NAME>
(2R)-2-cyclohexyl-2-[(3S,4S)-3-[[4-[2-ethyl-5-[[4-(trifluoromethyl)phenyl]methyl]-3-pyrazolyl]-1-piperidinyl]methyl]-4-(3-fluorophenyl)-1-pyrrolidinyl]acetic acid
> <PUBCHEM_IUPAC_NAME_MARKUP>
(2<I>R</I>)-2-cyclohexyl-2-[(3<I>S</I>,4<I>S</I>)-3-[[4-[2-ethyl-5-[[4-(trifluoromethyl)phenyl]methyl]pyrazol-3-yl]piperidin-1-yl]methyl]-4-(3-fluorophenyl)pyrrolidin-1-yl]acetic acid
> <PUBCHEM_IUPAC_NAME>
(2R)-2-cyclohexyl-2-[(3S,4S)-3-[[4-[2-ethyl-5-[[4-(trifluoromethyl)phenyl]methyl]pyrazol-3-yl]piperidin-1-yl]methyl]-4-(3-fluorophenyl)pyrrolidin-1-yl]acetic acid
> <PUBCHEM_IUPAC_SYSTEMATIC_NAME>
(2R)-2-cyclohexyl-2-[(3S,4S)-3-[[4-[2-ethyl-5-[[4-(trifluoromethyl)phenyl]methyl]pyrazol-3-yl]piperidin-1-yl]methyl]-4-(3-fluorophenyl)pyrrolidin-1-yl]ethanoic acid
> <PUBCHEM_IUPAC_TRADITIONAL_NAME>
(2R)-2-cyclohexyl-2-[(3S,4S)-3-[[4-[2-ethyl-5-[4-(trifluoromethyl)benzyl]pyrazol-3-yl]piperidino]methyl]-4-(3-fluorophenyl)pyrrolidino]acetic acid
> <PUBCHEM_IUPAC_INCHI>
InChI=1S/C37H46F4N4O2/c1-2-45-34(21-32(42-45)19-25-11-13-30(14-12-25)37(39,40)41)26-15-17-43(18-16-26)22-29-23-44(24-33(29)28-9-6-10-31(38)20-28)35(36(46)47)27-7-4-3-5-8-27/h6,9-14,20-21,26-27,29,33,35H,2-5,7-8,15-19,22-24H2,1H3,(H,46,47)/t29-,33+,35+/m0/s1
> <PUBCHEM_IUPAC_INCHIKEY>
QIEIGBFFSMMDGS-HMQVCXRFSA-N
> <PUBCHEM_XLOGP3_AA>
5.6
> <PUBCHEM_EXACT_MASS>
654.35568937
> <PUBCHEM_MOLECULAR_FORMULA>
C37H46F4N4O2
> <PUBCHEM_MOLECULAR_WEIGHT>
654.8
> <PUBCHEM_OPENEYE_CAN_SMILES>
CCN1C(=CC(=N1)CC2=CC=C(C=C2)C(F)(F)F)C3CCN(CC3)CC4CN(CC4C5=CC(=CC=C5)F)C(C6CCCCC6)C(=O)O
> <PUBCHEM_OPENEYE_ISO_SMILES>
CCN1C(=CC(=N1)CC2=CC=C(C=C2)C(F)(F)F)C3CCN(CC3)C[C@H]4CN(C[C@@H]4C5=CC(=CC=C5)F)[C@H](C6CCCCC6)C(=O)O
> <PUBCHEM_CACTVS_TPSA>
61.6
> <PUBCHEM_MONOISOTOPIC_WEIGHT>
654.35568937
> <PUBCHEM_TOTAL_CHARGE>
0
> <PUBCHEM_HEAVY_ATOM_COUNT>
47
> <PUBCHEM_ATOM_DEF_STEREO_COUNT>
3
> <PUBCHEM_ATOM_UDEF_STEREO_COUNT>
0
> <PUBCHEM_BOND_DEF_STEREO_COUNT>
0
> <PUBCHEM_BOND_UDEF_STEREO_COUNT>
0
> <PUBCHEM_ISOTOPIC_ATOM_COUNT>
0
> <PUBCHEM_COMPONENT_COUNT>
1
> <PUBCHEM_CACTVS_TAUTO_COUNT>
-1
> <PUBCHEM_COORDINATE_TYPE>
1
5
255
> <PUBCHEM_BONDANNOTATIONS>
10  37  8
11  17  6
12  20  5
15  29  6
20  30  8
20  31  8
30  33  8
31  34  8
32  35  8
33  36  8
34  36  8
35  37  8
41  42  8
41  43  8
42  44  8
43  45  8
44  46  8
45  46  8
9  10  8
9  32  8
$$$$
