516313
  -OEChem-10302200282D
 91 96  0     1  0  0  0  0  0999 V2000
    7.7132   -7.6464    0.0000 F   0  0  0  0  0  0  0  0  0  0  0  0
    2.7688   -2.5711    0.0000 O   0  0  0  0  0  0  0  0  0  0  0  0
    4.3511   -1.8666    0.0000 O   0  0  0  0  0  0  0  0  0  0  0  0
    7.0742    7.1448    0.0000 O   0  0  0  0  0  0  0  0  0  0  0  0
    5.1646   -3.6937    0.0000 N   0  0  3  0  0  0  0  0  0  0  0  0
    7.6133   -1.8573    0.0000 N   0  0  0  0  0  0  0  0  0  0  0  0
    6.8043    1.7305    0.0000 N   0  0  0  0  0  0  0  0  0  0  0  0
    7.1133    2.6816    0.0000 N   0  0  0  0  0  0  0  0  0  0  0  0
    6.7473   -3.3573    0.0000 C   0  0  2  0  0  0  0  0  0  0  0  0
    6.6428   -4.3518    0.0000 C   0  0  2  0  0  0  0  0  0  0  0  0
    5.8338   -2.9505    0.0000 C   0  0  0  0  0  0  0  0  0  0  0  0
    5.6646   -4.5597    0.0000 C   0  0  0  0  0  0  0  0  0  0  0  0
    4.1701   -3.5892    0.0000 C   0  0  2  0  0  0  0  0  0  0  0  0
    3.5823   -4.3982    0.0000 C   0  0  0  0  0  0  0  0  0  0  0  0
    7.6133   -2.8573    0.0000 C   0  0  0  0  0  0  0  0  0  0  0  0
    2.5878   -4.2936    0.0000 C   0  0  0  0  0  0  0  0  0  0  0  0
    3.9890   -5.3117    0.0000 C   0  0  0  0  0  0  0  0  0  0  0  0
    7.3859   -5.0209    0.0000 C   0  0  0  0  0  0  0  0  0  0  0  0
    6.7473   -1.3573    0.0000 C   0  0  0  0  0  0  0  0  0  0  0  0
    8.4793   -1.3573    0.0000 C   0  0  0  0  0  0  0  0  0  0  0  0
    2.0000   -5.1027    0.0000 C   0  0  0  0  0  0  0  0  0  0  0  0
    3.4013   -6.1207    0.0000 C   0  0  0  0  0  0  0  0  0  0  0  0
    7.6133    0.1427    0.0000 C   0  0  0  0  0  0  0  0  0  0  0  0
    2.4067   -6.0162    0.0000 C   0  0  0  0  0  0  0  0  0  0  0  0
    6.7473   -0.3573    0.0000 C   0  0  0  0  0  0  0  0  0  0  0  0
    8.4793   -0.3573    0.0000 C   0  0  0  0  0  0  0  0  0  0  0  0
    3.7634   -2.6756    0.0000 C   0  0  0  0  0  0  0  0  0  0  0  0
    7.1780   -5.9991    0.0000 C   0  0  0  0  0  0  0  0  0  0  0  0
    8.3370   -4.7119    0.0000 C   0  0  0  0  0  0  0  0  0  0  0  0
    7.6133    1.1427    0.0000 C   0  0  0  0  0  0  0  0  0  0  0  0
    7.9211   -6.6682    0.0000 C   0  0  0  0  0  0  0  0  0  0  0  0
    9.0801   -5.3810    0.0000 C   0  0  0  0  0  0  0  0  0  0  0  0
    8.4223    1.7305    0.0000 C   0  0  0  0  0  0  0  0  0  0  0  0
    8.8722   -6.3592    0.0000 C   0  0  0  0  0  0  0  0  0  0  0  0
    8.1133    2.6816    0.0000 C   0  0  0  0  0  0  0  0  0  0  0  0
    5.8532    1.4215    0.0000 C   0  0  0  0  0  0  0  0  0  0  0  0
    8.7011    3.4906    0.0000 C   0  0  0  0  0  0  0  0  0  0  0  0
    5.1101    2.0906    0.0000 C   0  0  0  0  0  0  0  0  0  0  0  0
    8.2944    4.4041    0.0000 C   0  0  0  0  0  0  0  0  0  0  0  0
    7.2998    4.5087    0.0000 C   0  0  0  0  0  0  0  0  0  0  0  0
    8.8822    5.2131    0.0000 C   0  0  0  0  0  0  0  0  0  0  0  0
    6.8931    5.4222    0.0000 C   0  0  0  0  0  0  0  0  0  0  0  0
    8.4754    6.1267    0.0000 C   0  0  0  0  0  0  0  0  0  0  0  0
    7.4809    6.2312    0.0000 C   0  0  0  0  0  0  0  0  0  0  0  0
    7.2673   -3.6950    0.0000 H   0  0  0  0  0  0  0  0  0  0  0  0
    6.4823   -4.9507    0.0000 H   0  0  0  0  0  0  0  0  0  0  0  0
    6.1437   -2.4136    0.0000 H   0  0  0  0  0  0  0  0  0  0  0  0
    5.3322   -2.5861    0.0000 H   0  0  0  0  0  0  0  0  0  0  0  0
    5.0982   -4.8119    0.0000 H   0  0  0  0  0  0  0  0  0  0  0  0
    5.8562   -5.1494    0.0000 H   0  0  0  0  0  0  0  0  0  0  0  0
    4.5345   -3.0876    0.0000 H   0  0  0  0  0  0  0  0  0  0  0  0
    4.1989   -4.4630    0.0000 H   0  0  0  0  0  0  0  0  0  0  0  0
    7.8254   -3.4399    0.0000 H   0  0  0  0  0  0  0  0  0  0  0  0
    8.2239   -2.7496    0.0000 H   0  0  0  0  0  0  0  0  0  0  0  0
    2.7587   -3.6977    0.0000 H   0  0  0  0  0  0  0  0  0  0  0  0
    2.0305   -4.0218    0.0000 H   0  0  0  0  0  0  0  0  0  0  0  0
    4.4197   -5.7577    0.0000 H   0  0  0  0  0  0  0  0  0  0  0  0
    4.5030   -4.9650    0.0000 H   0  0  0  0  0  0  0  0  0  0  0  0
    6.1367   -1.2496    0.0000 H   0  0  0  0  0  0  0  0  0  0  0  0
    6.5352   -1.9399    0.0000 H   0  0  0  0  0  0  0  0  0  0  0  0
    8.6914   -1.9399    0.0000 H   0  0  0  0  0  0  0  0  0  0  0  0
    9.0899   -1.2496    0.0000 H   0  0  0  0  0  0  0  0  0  0  0  0
    1.5693   -4.6567    0.0000 H   0  0  0  0  0  0  0  0  0  0  0  0
    1.4860   -5.4494    0.0000 H   0  0  0  0  0  0  0  0  0  0  0  0
    3.2304   -6.7167    0.0000 H   0  0  0  0  0  0  0  0  0  0  0  0
    3.9585   -6.3925    0.0000 H   0  0  0  0  0  0  0  0  0  0  0  0
    7.0764    0.4527    0.0000 H   0  0  0  0  0  0  0  0  0  0  0  0
    1.8052   -6.1662    0.0000 H   0  0  0  0  0  0  0  0  0  0  0  0
    2.4500   -6.6347    0.0000 H   0  0  0  0  0  0  0  0  0  0  0  0
    6.5352    0.2253    0.0000 H   0  0  0  0  0  0  0  0  0  0  0  0
    6.1367   -0.4649    0.0000 H   0  0  0  0  0  0  0  0  0  0  0  0
    9.0899   -0.4649    0.0000 H   0  0  0  0  0  0  0  0  0  0  0  0
    8.6914    0.2253    0.0000 H   0  0  0  0  0  0  0  0  0  0  0  0
    6.5883   -6.1907    0.0000 H   0  0  0  0  0  0  0  0  0  0  0  0
    8.4659   -4.1055    0.0000 H   0  0  0  0  0  0  0  0  0  0  0  0
    9.6698   -5.1894    0.0000 H   0  0  0  0  0  0  0  0  0  0  0  0
    2.5167   -2.0047    0.0000 H   0  0  0  0  0  0  0  0  0  0  0  0
    9.0120    1.5389    0.0000 H   0  0  0  0  0  0  0  0  0  0  0  0
    9.3330   -6.7740    0.0000 H   0  0  0  0  0  0  0  0  0  0  0  0
    5.3647    1.0398    0.0000 H   0  0  0  0  0  0  0  0  0  0  0  0
    6.1443    0.8741    0.0000 H   0  0  0  0  0  0  0  0  0  0  0  0
    9.1318    3.0446    0.0000 H   0  0  0  0  0  0  0  0  0  0  0  0
    9.2151    3.8373    0.0000 H   0  0  0  0  0  0  0  0  0  0  0  0
    5.5250    2.5514    0.0000 H   0  0  0  0  0  0  0  0  0  0  0  0
    4.6494    2.5055    0.0000 H   0  0  0  0  0  0  0  0  0  0  0  0
    4.6952    1.6299    0.0000 H   0  0  0  0  0  0  0  0  0  0  0  0
    6.9354    4.0071    0.0000 H   0  0  0  0  0  0  0  0  0  0  0  0
    9.4988    5.1483    0.0000 H   0  0  0  0  0  0  0  0  0  0  0  0
    6.2765    5.4870    0.0000 H   0  0  0  0  0  0  0  0  0  0  0  0
    8.8398    6.6283    0.0000 H   0  0  0  0  0  0  0  0  0  0  0  0
    7.4386    7.6464    0.0000 H   0  0  0  0  0  0  0  0  0  0  0  0
  1 31  1  0  0  0  0
  2 27  1  0  0  0  0
  2 77  1  0  0  0  0
  3 27  2  0  0  0  0
  4 44  1  0  0  0  0
  4 91  1  0  0  0  0
  5 11  1  0  0  0  0
  5 12  1  0  0  0  0
  5 13  1  0  0  0  0
  6 15  1  0  0  0  0
  6 19  1  0  0  0  0
  6 20  1  0  0  0  0
  7  8  1  0  0  0  0
  7 30  1  0  0  0  0
  7 36  1  0  0  0  0
  8 35  2  0  0  0  0
  9 10  1  0  0  0  0
  9 11  1  0  0  0  0
  9 15  1  6  0  0  0
  9 45  1  0  0  0  0
 10 12  1  0  0  0  0
 10 18  1  1  0  0  0
 10 46  1  0  0  0  0
 11 47  1  0  0  0  0
 11 48  1  0  0  0  0
 12 49  1  0  0  0  0
 12 50  1  0  0  0  0
 13 14  1  0  0  0  0
 13 27  1  6  0  0  0
 13 51  1  0  0  0  0
 14 16  1  0  0  0  0
 14 17  1  0  0  0  0
 14 52  1  0  0  0  0
 15 53  1  0  0  0  0
 15 54  1  0  0  0  0
 16 21  1  0  0  0  0
 16 55  1  0  0  0  0
 16 56  1  0  0  0  0
 17 22  1  0  0  0  0
 17 57  1  0  0  0  0
 17 58  1  0  0  0  0
 18 28  2  0  0  0  0
 18 29  1  0  0  0  0
 19 25  1  0  0  0  0
 19 59  1  0  0  0  0
 19 60  1  0  0  0  0
 20 26  1  0  0  0  0
 20 61  1  0  0  0  0
 20 62  1  0  0  0  0
 21 24  1  0  0  0  0
 21 63  1  0  0  0  0
 21 64  1  0  0  0  0
 22 24  1  0  0  0  0
 22 65  1  0  0  0  0
 22 66  1  0  0  0  0
 23 25  1  0  0  0  0
 23 26  1  0  0  0  0
 23 30  1  0  0  0  0
 23 67  1  0  0  0  0
 24 68  1  0  0  0  0
 24 69  1  0  0  0  0
 25 70  1  0  0  0  0
 25 71  1  0  0  0  0
 26 72  1  0  0  0  0
 26 73  1  0  0  0  0
 28 31  1  0  0  0  0
 28 74  1  0  0  0  0
 29 32  2  0  0  0  0
 29 75  1  0  0  0  0
 30 33  2  0  0  0  0
 31 34  2  0  0  0  0
 32 34  1  0  0  0  0
 32 76  1  0  0  0  0
 33 35  1  0  0  0  0
 33 78  1  0  0  0  0
 34 79  1  0  0  0  0
 35 37  1  0  0  0  0
 36 38  1  0  0  0  0
 36 80  1  0  0  0  0
 36 81  1  0  0  0  0
 37 39  1  0  0  0  0
 37 82  1  0  0  0  0
 37 83  1  0  0  0  0
 38 84  1  0  0  0  0
 38 85  1  0  0  0  0
 38 86  1  0  0  0  0
 39 40  2  0  0  0  0
 39 41  1  0  0  0  0
 40 42  1  0  0  0  0
 40 87  1  0  0  0  0
 41 43  2  0  0  0  0
 41 88  1  0  0  0  0
 42 44  2  0  0  0  0
 42 89  1  0  0  0  0
 43 44  1  0  0  0  0
 43 90  1  0  0  0  0
M  END
> <PUBCHEM_COMPOUND_CID>
516313
> <PUBCHEM_COMPOUND_CANONICALIZED>
1
> <PUBCHEM_CACTVS_COMPLEXITY>
904
> <PUBCHEM_CACTVS_HBOND_ACCEPTOR>
7
> <PUBCHEM_CACTVS_HBOND_DONOR>
2
> <PUBCHEM_CACTVS_ROTATABLE_BOND>
10
> <PUBCHEM_CACTVS_SUBSKEYS>
AAADcfB/sQAAAAAAAAAAAAAAAAAAAWLAAAA8YMEAAAAAAAAB0AAAHwAICAAADSzBngwyjpMIAgCqAyTyTACSBAAhogAY2CG+bJgKJjLC0fOE9AhkyBHY2AeYyOCOoAAAAAAAAABAAAAAAAAAAAAAAAAAAA==
> <PUBCHEM_IUPAC_OPENEYE_NAME>
(2R)-2-cyclohexyl-2-[(3S,4S)-3-[[4-[2-ethyl-5-[(4-hydroxyphenyl)methyl]pyrazol-3-yl]-1-piperidyl]methyl]-4-(3-fluorophenyl)pyrrolidin-1-yl]acetic acid
> <PUBCHEM_IUPAC_CAS_NAME>
(2R)-2-cyclohexyl-2-[(3S,4S)-3-[[4-[2-ethyl-5-[(4-hydroxyphenyl)methyl]-3-pyrazolyl]-1-piperidinyl]methyl]-4-(3-fluorophenyl)-1-pyrrolidinyl]acetic acid
> <PUBCHEM_IUPAC_NAME_MARKUP>
(2<I>R</I>)-2-cyclohexyl-2-[(3<I>S</I>,4<I>S</I>)-3-[[4-[2-ethyl-5-[(4-hydroxyphenyl)methyl]pyrazol-3-yl]piperidin-1-yl]methyl]-4-(3-fluorophenyl)pyrrolidin-1-yl]acetic acid
> <PUBCHEM_IUPAC_NAME>
(2R)-2-cyclohexyl-2-[(3S,4S)-3-[[4-[2-ethyl-5-[(4-hydroxyphenyl)methyl]pyrazol-3-yl]piperidin-1-yl]methyl]-4-(3-fluorophenyl)pyrrolidin-1-yl]acetic acid
> <PUBCHEM_IUPAC_SYSTEMATIC_NAME>
(2R)-2-cyclohexyl-2-[(3S,4S)-3-[[4-[2-ethyl-5-[(4-hydroxyphenyl)methyl]pyrazol-3-yl]piperidin-1-yl]methyl]-4-(3-fluorophenyl)pyrrolidin-1-yl]ethanoic acid
> <PUBCHEM_IUPAC_TRADITIONAL_NAME>
(2R)-2-cyclohexyl-2-[(3S,4S)-3-[[4-[2-ethyl-5-(4-hydroxybenzyl)pyrazol-3-yl]piperidino]methyl]-4-(3-fluorophenyl)pyrrolidino]acetic acid
> <PUBCHEM_IUPAC_INCHI>
InChI=1S/C36H47FN4O3/c1-2-41-34(21-31(38-41)19-25-11-13-32(42)14-12-25)26-15-17-39(18-16-26)22-29-23-40(24-33(29)28-9-6-10-30(37)20-28)35(36(43)44)27-7-4-3-5-8-27/h6,9-14,20-21,26-27,29,33,35,42H,2-5,7-8,15-19,22-24H2,1H3,(H,43,44)/t29-,33+,35+/m0/s1
> <PUBCHEM_IUPAC_INCHIKEY>
RXLHNEPWLCJVNN-HMQVCXRFSA-N
> <PUBCHEM_XLOGP3_AA>
4.4
> <PUBCHEM_EXACT_MASS>
602.36321954
> <PUBCHEM_MOLECULAR_FORMULA>
C36H47FN4O3
> <PUBCHEM_MOLECULAR_WEIGHT>
602.8
> <PUBCHEM_OPENEYE_CAN_SMILES>
CCN1C(=CC(=N1)CC2=CC=C(C=C2)O)C3CCN(CC3)CC4CN(CC4C5=CC(=CC=C5)F)C(C6CCCCC6)C(=O)O
> <PUBCHEM_OPENEYE_ISO_SMILES>
CCN1C(=CC(=N1)CC2=CC=C(C=C2)O)C3CCN(CC3)C[C@H]4CN(C[C@@H]4C5=CC(=CC=C5)F)[C@H](C6CCCCC6)C(=O)O
> <PUBCHEM_CACTVS_TPSA>
81.8
> <PUBCHEM_MONOISOTOPIC_WEIGHT>
602.36321954
> <PUBCHEM_TOTAL_CHARGE>
0
> <PUBCHEM_HEAVY_ATOM_COUNT>
44
> <PUBCHEM_ATOM_DEF_STEREO_COUNT>
3
> <PUBCHEM_ATOM_UDEF_STEREO_COUNT>
0
> <PUBCHEM_BOND_DEF_STEREO_COUNT>
0
> <PUBCHEM_BOND_UDEF_STEREO_COUNT>
0
> <PUBCHEM_ISOTOPIC_ATOM_COUNT>
0
> <PUBCHEM_COMPONENT_COUNT>
1
> <PUBCHEM_CACTVS_TAUTO_COUNT>
-1
> <PUBCHEM_COORDINATE_TYPE>
1
5
255
> <PUBCHEM_BONDANNOTATIONS>
10  18  5
13  27  6
18  28  8
18  29  8
28  31  8
29  32  8
30  33  8
31  34  8
32  34  8
33  35  8
39  40  8
39  41  8
40  42  8
41  43  8
42  44  8
43  44  8
7  30  8
7  8  8
8  35  8
9  15  6
$$$$
