516352
  -OEChem-10302200282D
 85 90  0     1  0  0  0  0  0999 V2000
    7.7132   -7.2388    0.0000 F   0  0  0  0  0  0  0  0  0  0  0  0
    2.7688   -2.1635    0.0000 O   0  0  0  0  0  0  0  0  0  0  0  0
    4.3511   -1.4590    0.0000 O   0  0  0  0  0  0  0  0  0  0  0  0
   10.4645    6.3252    0.0000 O   0  0  0  0  0  0  0  0  0  0  0  0
    5.1646   -3.2861    0.0000 N   0  0  3  0  0  0  0  0  0  0  0  0
    7.6133   -1.4497    0.0000 N   0  0  0  0  0  0  0  0  0  0  0  0
    6.8043    2.1381    0.0000 N   0  0  0  0  0  0  0  0  0  0  0  0
    7.1133    3.0892    0.0000 N   0  0  0  0  0  0  0  0  0  0  0  0
    6.7473   -2.9497    0.0000 C   0  0  2  0  0  0  0  0  0  0  0  0
    6.6428   -3.9442    0.0000 C   0  0  2  0  0  0  0  0  0  0  0  0
    5.8338   -2.5430    0.0000 C   0  0  0  0  0  0  0  0  0  0  0  0
    5.6646   -4.1521    0.0000 C   0  0  0  0  0  0  0  0  0  0  0  0
    4.1701   -3.1816    0.0000 C   0  0  2  0  0  0  0  0  0  0  0  0
    3.5823   -3.9906    0.0000 C   0  0  0  0  0  0  0  0  0  0  0  0
    7.6133   -2.4497    0.0000 C   0  0  0  0  0  0  0  0  0  0  0  0
    2.5878   -3.8861    0.0000 C   0  0  0  0  0  0  0  0  0  0  0  0
    3.9890   -4.9041    0.0000 C   0  0  0  0  0  0  0  0  0  0  0  0
    7.3859   -4.6133    0.0000 C   0  0  0  0  0  0  0  0  0  0  0  0
    2.0000   -4.6951    0.0000 C   0  0  0  0  0  0  0  0  0  0  0  0
    3.4013   -5.7132    0.0000 C   0  0  0  0  0  0  0  0  0  0  0  0
    6.7473   -0.9497    0.0000 C   0  0  0  0  0  0  0  0  0  0  0  0
    8.4793   -0.9497    0.0000 C   0  0  0  0  0  0  0  0  0  0  0  0
    2.4067   -5.6086    0.0000 C   0  0  0  0  0  0  0  0  0  0  0  0
    7.6133    0.5503    0.0000 C   0  0  0  0  0  0  0  0  0  0  0  0
    6.7473    0.0503    0.0000 C   0  0  0  0  0  0  0  0  0  0  0  0
    8.4793    0.0503    0.0000 C   0  0  0  0  0  0  0  0  0  0  0  0
    3.7634   -2.2680    0.0000 C   0  0  0  0  0  0  0  0  0  0  0  0
    7.1780   -5.5915    0.0000 C   0  0  0  0  0  0  0  0  0  0  0  0
    8.3370   -4.3043    0.0000 C   0  0  0  0  0  0  0  0  0  0  0  0
    7.6133    1.5503    0.0000 C   0  0  0  0  0  0  0  0  0  0  0  0
    7.9211   -6.2606    0.0000 C   0  0  0  0  0  0  0  0  0  0  0  0
    9.0801   -4.9734    0.0000 C   0  0  0  0  0  0  0  0  0  0  0  0
    8.4223    2.1381    0.0000 C   0  0  0  0  0  0  0  0  0  0  0  0
    8.8722   -5.9516    0.0000 C   0  0  0  0  0  0  0  0  0  0  0  0
    8.1133    3.0892    0.0000 C   0  0  0  0  0  0  0  0  0  0  0  0
    8.7011    3.8982    0.0000 C   0  0  0  0  0  0  0  0  0  0  0  0
    8.2944    4.8117    0.0000 C   0  0  0  0  0  0  0  0  0  0  0  0
    9.6956    3.7936    0.0000 C   0  0  0  0  0  0  0  0  0  0  0  0
    8.8822    5.6207    0.0000 C   0  0  0  0  0  0  0  0  0  0  0  0
   10.2834    4.6027    0.0000 C   0  0  0  0  0  0  0  0  0  0  0  0
    9.8767    5.5162    0.0000 C   0  0  0  0  0  0  0  0  0  0  0  0
   10.0577    7.2388    0.0000 C   0  0  0  0  0  0  0  0  0  0  0  0
    7.2673   -3.2874    0.0000 H   0  0  0  0  0  0  0  0  0  0  0  0
    6.4823   -4.5431    0.0000 H   0  0  0  0  0  0  0  0  0  0  0  0
    6.1437   -2.0060    0.0000 H   0  0  0  0  0  0  0  0  0  0  0  0
    5.3322   -2.1785    0.0000 H   0  0  0  0  0  0  0  0  0  0  0  0
    5.0982   -4.4043    0.0000 H   0  0  0  0  0  0  0  0  0  0  0  0
    5.8562   -4.7418    0.0000 H   0  0  0  0  0  0  0  0  0  0  0  0
    4.5345   -2.6800    0.0000 H   0  0  0  0  0  0  0  0  0  0  0  0
    3.3301   -3.4242    0.0000 H   0  0  0  0  0  0  0  0  0  0  0  0
    7.8254   -3.0323    0.0000 H   0  0  0  0  0  0  0  0  0  0  0  0
    8.2239   -2.3420    0.0000 H   0  0  0  0  0  0  0  0  0  0  0  0
    2.7587   -3.2901    0.0000 H   0  0  0  0  0  0  0  0  0  0  0  0
    2.0305   -3.6143    0.0000 H   0  0  0  0  0  0  0  0  0  0  0  0
    4.4197   -5.3501    0.0000 H   0  0  0  0  0  0  0  0  0  0  0  0
    4.5030   -4.5574    0.0000 H   0  0  0  0  0  0  0  0  0  0  0  0
    1.5693   -4.2491    0.0000 H   0  0  0  0  0  0  0  0  0  0  0  0
    1.4860   -5.0418    0.0000 H   0  0  0  0  0  0  0  0  0  0  0  0
    3.2304   -6.3091    0.0000 H   0  0  0  0  0  0  0  0  0  0  0  0
    3.9585   -5.9849    0.0000 H   0  0  0  0  0  0  0  0  0  0  0  0
    6.1367   -0.8420    0.0000 H   0  0  0  0  0  0  0  0  0  0  0  0
    6.5352   -1.5323    0.0000 H   0  0  0  0  0  0  0  0  0  0  0  0
    8.6914   -1.5323    0.0000 H   0  0  0  0  0  0  0  0  0  0  0  0
    9.0899   -0.8420    0.0000 H   0  0  0  0  0  0  0  0  0  0  0  0
    1.8052   -5.7586    0.0000 H   0  0  0  0  0  0  0  0  0  0  0  0
    2.4500   -6.2271    0.0000 H   0  0  0  0  0  0  0  0  0  0  0  0
    7.0764    0.8603    0.0000 H   0  0  0  0  0  0  0  0  0  0  0  0
    6.5352    0.6329    0.0000 H   0  0  0  0  0  0  0  0  0  0  0  0
    6.1367   -0.0574    0.0000 H   0  0  0  0  0  0  0  0  0  0  0  0
    9.0899   -0.0574    0.0000 H   0  0  0  0  0  0  0  0  0  0  0  0
    8.6914    0.6329    0.0000 H   0  0  0  0  0  0  0  0  0  0  0  0
    6.5883   -5.7831    0.0000 H   0  0  0  0  0  0  0  0  0  0  0  0
    8.4659   -3.6979    0.0000 H   0  0  0  0  0  0  0  0  0  0  0  0
    9.6698   -4.7819    0.0000 H   0  0  0  0  0  0  0  0  0  0  0  0
    2.5167   -1.5971    0.0000 H   0  0  0  0  0  0  0  0  0  0  0  0
    9.0120    1.9465    0.0000 H   0  0  0  0  0  0  0  0  0  0  0  0
    9.3330   -6.3665    0.0000 H   0  0  0  0  0  0  0  0  0  0  0  0
    6.2146    1.9465    0.0000 H   0  0  0  0  0  0  0  0  0  0  0  0
    7.6778    4.8765    0.0000 H   0  0  0  0  0  0  0  0  0  0  0  0
    9.9478    3.2272    0.0000 H   0  0  0  0  0  0  0  0  0  0  0  0
    8.6300    6.1871    0.0000 H   0  0  0  0  0  0  0  0  0  0  0  0
   10.9000    4.5378    0.0000 H   0  0  0  0  0  0  0  0  0  0  0  0
   10.6241    7.4909    0.0000 H   0  0  0  0  0  0  0  0  0  0  0  0
    9.8055    7.8052    0.0000 H   0  0  0  0  0  0  0  0  0  0  0  0
    9.4913    6.9866    0.0000 H   0  0  0  0  0  0  0  0  0  0  0  0
  1 31  1  0  0  0  0
  2 27  1  0  0  0  0
  2 75  1  0  0  0  0
  3 27  2  0  0  0  0
  4 41  1  0  0  0  0
  4 42  1  0  0  0  0
  5 11  1  0  0  0  0
  5 12  1  0  0  0  0
  5 13  1  0  0  0  0
  6 15  1  0  0  0  0
  6 21  1  0  0  0  0
  6 22  1  0  0  0  0
  7  8  1  0  0  0  0
  7 30  1  0  0  0  0
  7 78  1  0  0  0  0
  8 35  2  0  0  0  0
  9 10  1  0  0  0  0
  9 11  1  0  0  0  0
  9 15  1  6  0  0  0
  9 43  1  0  0  0  0
 10 12  1  0  0  0  0
 10 18  1  1  0  0  0
 10 44  1  0  0  0  0
 11 45  1  0  0  0  0
 11 46  1  0  0  0  0
 12 47  1  0  0  0  0
 12 48  1  0  0  0  0
 13 14  1  0  0  0  0
 13 27  1  6  0  0  0
 13 49  1  0  0  0  0
 14 16  1  0  0  0  0
 14 17  1  0  0  0  0
 14 50  1  0  0  0  0
 15 51  1  0  0  0  0
 15 52  1  0  0  0  0
 16 19  1  0  0  0  0
 16 53  1  0  0  0  0
 16 54  1  0  0  0  0
 17 20  1  0  0  0  0
 17 55  1  0  0  0  0
 17 56  1  0  0  0  0
 18 28  2  0  0  0  0
 18 29  1  0  0  0  0
 19 23  1  0  0  0  0
 19 57  1  0  0  0  0
 19 58  1  0  0  0  0
 20 23  1  0  0  0  0
 20 59  1  0  0  0  0
 20 60  1  0  0  0  0
 21 25  1  0  0  0  0
 21 61  1  0  0  0  0
 21 62  1  0  0  0  0
 22 26  1  0  0  0  0
 22 63  1  0  0  0  0
 22 64  1  0  0  0  0
 23 65  1  0  0  0  0
 23 66  1  0  0  0  0
 24 25  1  0  0  0  0
 24 26  1  0  0  0  0
 24 30  1  0  0  0  0
 24 67  1  0  0  0  0
 25 68  1  0  0  0  0
 25 69  1  0  0  0  0
 26 70  1  0  0  0  0
 26 71  1  0  0  0  0
 28 31  1  0  0  0  0
 28 72  1  0  0  0  0
 29 32  2  0  0  0  0
 29 73  1  0  0  0  0
 30 33  2  0  0  0  0
 31 34  2  0  0  0  0
 32 34  1  0  0  0  0
 32 74  1  0  0  0  0
 33 35  1  0  0  0  0
 33 76  1  0  0  0  0
 34 77  1  0  0  0  0
 35 36  1  0  0  0  0
 36 37  2  0  0  0  0
 36 38  1  0  0  0  0
 37 39  1  0  0  0  0
 37 79  1  0  0  0  0
 38 40  2  0  0  0  0
 38 80  1  0  0  0  0
 39 41  2  0  0  0  0
 39 81  1  0  0  0  0
 40 41  1  0  0  0  0
 40 82  1  0  0  0  0
 42 83  1  0  0  0  0
 42 84  1  0  0  0  0
 42 85  1  0  0  0  0
M  END
> <PUBCHEM_COMPOUND_CID>
516352
> <PUBCHEM_COMPOUND_CANONICALIZED>
1
> <PUBCHEM_CACTVS_COMPLEXITY>
858
> <PUBCHEM_CACTVS_HBOND_ACCEPTOR>
7
> <PUBCHEM_CACTVS_HBOND_DONOR>
2
> <PUBCHEM_CACTVS_ROTATABLE_BOND>
9
> <PUBCHEM_CACTVS_SUBSKEYS>
AAADcfB/sQAAAAAAAAAAAAAAAAAAAWLAAAA8YMEAAAAAAAAB0AAAHwAYCAAADSzBng4yjpNjBgCqAyTySACSDAAgIgAYuSG+bJgOJrKE8fuE9CBk2BGY6AeY2OGOoAAAAAAAAABAAAAAAAAAAAAAAAAAAA==
> <PUBCHEM_IUPAC_OPENEYE_NAME>
(2R)-2-cyclohexyl-2-[(3S,4S)-3-(3-fluorophenyl)-4-[[4-[3-(4-methoxyphenyl)-1H-pyrazol-5-yl]-1-piperidyl]methyl]pyrrolidin-1-yl]acetic acid
> <PUBCHEM_IUPAC_CAS_NAME>
(2R)-2-cyclohexyl-2-[(3S,4S)-3-(3-fluorophenyl)-4-[[4-[3-(4-methoxyphenyl)-1H-pyrazol-5-yl]-1-piperidinyl]methyl]-1-pyrrolidinyl]acetic acid
> <PUBCHEM_IUPAC_NAME_MARKUP>
(2<I>R</I>)-2-cyclohexyl-2-[(3<I>S</I>,4<I>S</I>)-3-(3-fluorophenyl)-4-[[4-[3-(4-methoxyphenyl)-1<I>H</I>-pyrazol-5-yl]piperidin-1-yl]methyl]pyrrolidin-1-yl]acetic acid
> <PUBCHEM_IUPAC_NAME>
(2R)-2-cyclohexyl-2-[(3S,4S)-3-(3-fluorophenyl)-4-[[4-[3-(4-methoxyphenyl)-1H-pyrazol-5-yl]piperidin-1-yl]methyl]pyrrolidin-1-yl]acetic acid
> <PUBCHEM_IUPAC_SYSTEMATIC_NAME>
(2R)-2-cyclohexyl-2-[(3S,4S)-3-(3-fluorophenyl)-4-[[4-[3-(4-methoxyphenyl)-1H-pyrazol-5-yl]piperidin-1-yl]methyl]pyrrolidin-1-yl]ethanoic acid
> <PUBCHEM_IUPAC_TRADITIONAL_NAME>
(2R)-2-cyclohexyl-2-[(3S,4S)-3-(3-fluorophenyl)-4-[[4-[3-(4-methoxyphenyl)-1H-pyrazol-5-yl]piperidino]methyl]pyrrolidino]acetic acid
> <PUBCHEM_IUPAC_INCHI>
InChI=1S/C34H43FN4O3/c1-42-29-12-10-23(11-13-29)31-19-32(37-36-31)24-14-16-38(17-15-24)20-27-21-39(22-30(27)26-8-5-9-28(35)18-26)33(34(40)41)25-6-3-2-4-7-25/h5,8-13,18-19,24-25,27,30,33H,2-4,6-7,14-17,20-22H2,1H3,(H,36,37)(H,40,41)/t27-,30+,33+/m0/s1
> <PUBCHEM_IUPAC_INCHIKEY>
ZZHYYHDLFCTNSX-LTXBTDFWSA-N
> <PUBCHEM_XLOGP3_AA>
4.1
> <PUBCHEM_EXACT_MASS>
574.33191941
> <PUBCHEM_MOLECULAR_FORMULA>
C34H43FN4O3
> <PUBCHEM_MOLECULAR_WEIGHT>
574.7
> <PUBCHEM_OPENEYE_CAN_SMILES>
COC1=CC=C(C=C1)C2=NNC(=C2)C3CCN(CC3)CC4CN(CC4C5=CC(=CC=C5)F)C(C6CCCCC6)C(=O)O
> <PUBCHEM_OPENEYE_ISO_SMILES>
COC1=CC=C(C=C1)C2=NNC(=C2)C3CCN(CC3)C[C@H]4CN(C[C@@H]4C5=CC(=CC=C5)F)[C@H](C6CCCCC6)C(=O)O
> <PUBCHEM_CACTVS_TPSA>
81.7
> <PUBCHEM_MONOISOTOPIC_WEIGHT>
574.33191941
> <PUBCHEM_TOTAL_CHARGE>
0
> <PUBCHEM_HEAVY_ATOM_COUNT>
42
> <PUBCHEM_ATOM_DEF_STEREO_COUNT>
3
> <PUBCHEM_ATOM_UDEF_STEREO_COUNT>
0
> <PUBCHEM_BOND_DEF_STEREO_COUNT>
0
> <PUBCHEM_BOND_UDEF_STEREO_COUNT>
0
> <PUBCHEM_ISOTOPIC_ATOM_COUNT>
0
> <PUBCHEM_COMPONENT_COUNT>
1
> <PUBCHEM_CACTVS_TAUTO_COUNT>
-1
> <PUBCHEM_COORDINATE_TYPE>
1
5
255
> <PUBCHEM_BONDANNOTATIONS>
10  18  5
13  27  6
18  28  8
18  29  8
28  31  8
29  32  8
30  33  8
31  34  8
32  34  8
33  35  8
36  37  8
36  38  8
37  39  8
38  40  8
39  41  8
40  41  8
7  30  8
7  8  8
8  35  8
9  15  6
$$$$
