516323
  -OEChem-10302200282D
 93 98  0     1  0  0  0  0  0999 V2000
    2.3644   -3.1616    0.0000 O   0  0  0  0  0  0  0  0  0  0  0  0
    3.7657   -4.1797    0.0000 O   0  0  0  0  0  0  0  0  0  0  0  0
    4.9413   -2.5617    0.0000 N   0  0  3  0  0  0  0  0  0  0  0  0
    7.3900   -0.7252    0.0000 N   0  0  0  0  0  0  0  0  0  0  0  0
    7.3900    2.2748    0.0000 N   0  0  0  0  0  0  0  0  0  0  0  0
    8.1990    2.8626    0.0000 N   0  0  0  0  0  0  0  0  0  0  0  0
    6.5239   -2.2252    0.0000 C   0  0  2  0  0  0  0  0  0  0  0  0
    6.4194   -3.2198    0.0000 C   0  0  3  0  0  0  0  0  0  0  0  0
    5.6104   -1.8185    0.0000 C   0  0  0  0  0  0  0  0  0  0  0  0
    5.4413   -3.4277    0.0000 C   0  0  0  0  0  0  0  0  0  0  0  0
    3.9467   -2.4571    0.0000 C   0  0  2  0  0  0  0  0  0  0  0  0
    3.5400   -1.5436    0.0000 C   0  0  0  0  0  0  0  0  0  0  0  0
    7.3900   -1.7252    0.0000 C   0  0  0  0  0  0  0  0  0  0  0  0
    2.5455   -1.4390    0.0000 C   0  0  0  0  0  0  0  0  0  0  0  0
    4.1278   -0.7346    0.0000 C   0  0  0  0  0  0  0  0  0  0  0  0
    7.1626   -3.8889    0.0000 C   0  0  0  0  0  0  0  0  0  0  0  0
    6.5239   -0.2252    0.0000 C   0  0  0  0  0  0  0  0  0  0  0  0
    8.2560   -0.2252    0.0000 C   0  0  0  0  0  0  0  0  0  0  0  0
    2.1387   -0.5255    0.0000 C   0  0  0  0  0  0  0  0  0  0  0  0
    3.7210    0.1790    0.0000 C   0  0  0  0  0  0  0  0  0  0  0  0
    7.3900    1.2748    0.0000 C   0  0  0  0  0  0  0  0  0  0  0  0
    2.7265    0.2835    0.0000 C   0  0  0  0  0  0  0  0  0  0  0  0
    6.5239    0.7748    0.0000 C   0  0  0  0  0  0  0  0  0  0  0  0
    8.2560    0.7748    0.0000 C   0  0  0  0  0  0  0  0  0  0  0  0
    3.3590   -3.2661    0.0000 C   0  0  0  0  0  0  0  0  0  0  0  0
    8.1136   -3.5799    0.0000 C   0  0  0  0  0  0  0  0  0  0  0  0
    6.9546   -4.8670    0.0000 C   0  0  0  0  0  0  0  0  0  0  0  0
    6.5809    2.8626    0.0000 C   0  0  0  0  0  0  0  0  0  0  0  0
    8.8568   -4.2490    0.0000 C   0  0  0  0  0  0  0  0  0  0  0  0
    7.6978   -5.5362    0.0000 C   0  0  0  0  0  0  0  0  0  0  0  0
    8.6488   -5.2272    0.0000 C   0  0  0  0  0  0  0  0  0  0  0  0
    5.6299    2.5535    0.0000 C   0  0  0  0  0  0  0  0  0  0  0  0
    6.8900    3.8136    0.0000 C   0  0  0  0  0  0  0  0  0  0  0  0
    7.8900    3.8136    0.0000 C   0  0  0  0  0  0  0  0  0  0  0  0
    4.8867    3.2227    0.0000 C   0  0  0  0  0  0  0  0  0  0  0  0
    8.4777    4.6226    0.0000 C   0  0  0  0  0  0  0  0  0  0  0  0
    3.9357    2.9136    0.0000 C   0  0  0  0  0  0  0  0  0  0  0  0
    8.0710    5.5362    0.0000 C   0  0  0  0  0  0  0  0  0  0  0  0
    3.1925    3.5828    0.0000 C   0  0  0  0  0  0  0  0  0  0  0  0
    3.7278    1.9355    0.0000 C   0  0  0  0  0  0  0  0  0  0  0  0
    2.2415    3.2738    0.0000 C   0  0  0  0  0  0  0  0  0  0  0  0
    2.7767    1.6265    0.0000 C   0  0  0  0  0  0  0  0  0  0  0  0
    2.0336    2.2956    0.0000 C   0  0  0  0  0  0  0  0  0  0  0  0
    6.4915   -1.6061    0.0000 H   0  0  0  0  0  0  0  0  0  0  0  0
    6.2589   -3.8186    0.0000 H   0  0  0  0  0  0  0  0  0  0  0  0
    5.9204   -1.2816    0.0000 H   0  0  0  0  0  0  0  0  0  0  0  0
    5.1088   -1.4541    0.0000 H   0  0  0  0  0  0  0  0  0  0  0  0
    4.8749   -3.6798    0.0000 H   0  0  0  0  0  0  0  0  0  0  0  0
    5.6328   -4.0173    0.0000 H   0  0  0  0  0  0  0  0  0  0  0  0
    4.1989   -3.0235    0.0000 H   0  0  0  0  0  0  0  0  0  0  0  0
    3.1756   -2.0452    0.0000 H   0  0  0  0  0  0  0  0  0  0  0  0
    7.6020   -2.3078    0.0000 H   0  0  0  0  0  0  0  0  0  0  0  0
    8.0005   -1.6176    0.0000 H   0  0  0  0  0  0  0  0  0  0  0  0
    1.9439   -1.5890    0.0000 H   0  0  0  0  0  0  0  0  0  0  0  0
    2.5887   -2.0575    0.0000 H   0  0  0  0  0  0  0  0  0  0  0  0
    4.5585   -1.1805    0.0000 H   0  0  0  0  0  0  0  0  0  0  0  0
    4.6418   -0.3879    0.0000 H   0  0  0  0  0  0  0  0  0  0  0  0
    5.9134   -0.1176    0.0000 H   0  0  0  0  0  0  0  0  0  0  0  0
    6.3119   -0.8078    0.0000 H   0  0  0  0  0  0  0  0  0  0  0  0
    8.4680   -0.8078    0.0000 H   0  0  0  0  0  0  0  0  0  0  0  0
    8.8666   -0.1176    0.0000 H   0  0  0  0  0  0  0  0  0  0  0  0
    1.7080   -0.0795    0.0000 H   0  0  0  0  0  0  0  0  0  0  0  0
    1.6247   -0.8722    0.0000 H   0  0  0  0  0  0  0  0  0  0  0  0
    4.3226    0.3290    0.0000 H   0  0  0  0  0  0  0  0  0  0  0  0
    3.6778    0.7975    0.0000 H   0  0  0  0  0  0  0  0  0  0  0  0
    7.9269    1.5848    0.0000 H   0  0  0  0  0  0  0  0  0  0  0  0
    2.8974    0.8795    0.0000 H   0  0  0  0  0  0  0  0  0  0  0  0
    2.1693    0.5553    0.0000 H   0  0  0  0  0  0  0  0  0  0  0  0
    6.3119    1.3574    0.0000 H   0  0  0  0  0  0  0  0  0  0  0  0
    5.9134    0.6671    0.0000 H   0  0  0  0  0  0  0  0  0  0  0  0
    8.8666    0.6671    0.0000 H   0  0  0  0  0  0  0  0  0  0  0  0
    8.4680    1.3574    0.0000 H   0  0  0  0  0  0  0  0  0  0  0  0
    8.2425   -2.9734    0.0000 H   0  0  0  0  0  0  0  0  0  0  0  0
    6.3650   -5.0586    0.0000 H   0  0  0  0  0  0  0  0  0  0  0  0
    9.4464   -4.0574    0.0000 H   0  0  0  0  0  0  0  0  0  0  0  0
    7.5689   -6.1426    0.0000 H   0  0  0  0  0  0  0  0  0  0  0  0
    2.0000   -3.6632    0.0000 H   0  0  0  0  0  0  0  0  0  0  0  0
    9.1096   -5.6420    0.0000 H   0  0  0  0  0  0  0  0  0  0  0  0
    5.1413    2.1718    0.0000 H   0  0  0  0  0  0  0  0  0  0  0  0
    5.9210    2.0061    0.0000 H   0  0  0  0  0  0  0  0  0  0  0  0
    6.5255    4.3152    0.0000 H   0  0  0  0  0  0  0  0  0  0  0  0
    5.3753    3.6044    0.0000 H   0  0  0  0  0  0  0  0  0  0  0  0
    4.5957    3.7701    0.0000 H   0  0  0  0  0  0  0  0  0  0  0  0
    8.9084    4.1766    0.0000 H   0  0  0  0  0  0  0  0  0  0  0  0
    8.9918    4.9693    0.0000 H   0  0  0  0  0  0  0  0  0  0  0  0
    8.6374    5.7883    0.0000 H   0  0  0  0  0  0  0  0  0  0  0  0
    7.8188    6.1026    0.0000 H   0  0  0  0  0  0  0  0  0  0  0  0
    7.5046    5.2840    0.0000 H   0  0  0  0  0  0  0  0  0  0  0  0
    3.3214    4.1892    0.0000 H   0  0  0  0  0  0  0  0  0  0  0  0
    4.1885    1.5206    0.0000 H   0  0  0  0  0  0  0  0  0  0  0  0
    1.7807    3.6886    0.0000 H   0  0  0  0  0  0  0  0  0  0  0  0
    2.6478    1.0200    0.0000 H   0  0  0  0  0  0  0  0  0  0  0  0
    1.4439    2.1040    0.0000 H   0  0  0  0  0  0  0  0  0  0  0  0
  1 25  1  0  0  0  0
  1 77  1  0  0  0  0
  2 25  2  0  0  0  0
  3  9  1  0  0  0  0
  3 10  1  0  0  0  0
  3 11  1  0  0  0  0
  4 13  1  0  0  0  0
  4 17  1  0  0  0  0
  4 18  1  0  0  0  0
  5  6  1  0  0  0  0
  5 21  1  0  0  0  0
  5 28  1  0  0  0  0
  6 34  2  0  0  0  0
  7  8  1  0  0  0  0
  7  9  1  0  0  0  0
  7 13  1  6  0  0  0
  7 44  1  0  0  0  0
  8 10  1  0  0  0  0
  8 16  1  0  0  0  0
  8 45  1  0  0  0  0
  9 46  1  0  0  0  0
  9 47  1  0  0  0  0
 10 48  1  0  0  0  0
 10 49  1  0  0  0  0
 11 12  1  0  0  0  0
 11 25  1  1  0  0  0
 11 50  1  0  0  0  0
 12 14  1  0  0  0  0
 12 15  1  0  0  0  0
 12 51  1  0  0  0  0
 13 52  1  0  0  0  0
 13 53  1  0  0  0  0
 14 19  1  0  0  0  0
 14 54  1  0  0  0  0
 14 55  1  0  0  0  0
 15 20  1  0  0  0  0
 15 56  1  0  0  0  0
 15 57  1  0  0  0  0
 16 26  2  0  0  0  0
 16 27  1  0  0  0  0
 17 23  1  0  0  0  0
 17 58  1  0  0  0  0
 17 59  1  0  0  0  0
 18 24  1  0  0  0  0
 18 60  1  0  0  0  0
 18 61  1  0  0  0  0
 19 22  1  0  0  0  0
 19 62  1  0  0  0  0
 19 63  1  0  0  0  0
 20 22  1  0  0  0  0
 20 64  1  0  0  0  0
 20 65  1  0  0  0  0
 21 23  1  0  0  0  0
 21 24  1  0  0  0  0
 21 66  1  0  0  0  0
 22 67  1  0  0  0  0
 22 68  1  0  0  0  0
 23 69  1  0  0  0  0
 23 70  1  0  0  0  0
 24 71  1  0  0  0  0
 24 72  1  0  0  0  0
 26 29  1  0  0  0  0
 26 73  1  0  0  0  0
 27 30  2  0  0  0  0
 27 74  1  0  0  0  0
 28 32  1  0  0  0  0
 28 33  2  0  0  0  0
 29 31  2  0  0  0  0
 29 75  1  0  0  0  0
 30 31  1  0  0  0  0
 30 76  1  0  0  0  0
 31 78  1  0  0  0  0
 32 35  1  0  0  0  0
 32 79  1  0  0  0  0
 32 80  1  0  0  0  0
 33 34  1  0  0  0  0
 33 81  1  0  0  0  0
 34 36  1  0  0  0  0
 35 37  1  0  0  0  0
 35 82  1  0  0  0  0
 35 83  1  0  0  0  0
 36 38  1  0  0  0  0
 36 84  1  0  0  0  0
 36 85  1  0  0  0  0
 37 39  2  0  0  0  0
 37 40  1  0  0  0  0
 38 86  1  0  0  0  0
 38 87  1  0  0  0  0
 38 88  1  0  0  0  0
 39 41  1  0  0  0  0
 39 89  1  0  0  0  0
 40 42  2  0  0  0  0
 40 90  1  0  0  0  0
 41 43  2  0  0  0  0
 41 91  1  0  0  0  0
 42 43  1  0  0  0  0
 42 92  1  0  0  0  0
 43 93  1  0  0  0  0
M  END
> <PUBCHEM_COMPOUND_CID>
516323
> <PUBCHEM_COMPOUND_CANONICALIZED>
1
> <PUBCHEM_CACTVS_COMPLEXITY>
844
> <PUBCHEM_CACTVS_HBOND_ACCEPTOR>
5
> <PUBCHEM_CACTVS_HBOND_DONOR>
1
> <PUBCHEM_CACTVS_ROTATABLE_BOND>
11
> <PUBCHEM_CACTVS_SUBSKEYS>
AAADcfB/sAAAAAAAAAAAAAAAAAAAAWLAAAA8YMEAAAAAAAAB0AAAHgAICAAADSjBngQyiJMIAgCqAyTyTACSBAAhggAY2CG4ZJgKIDLA0fGE5AhkiADYyAeYyOCOgAAAAAAAAAAAAAAAAAAAAAAAAAAAAA==
> <PUBCHEM_IUPAC_OPENEYE_NAME>
(2R)-2-cyclohexyl-2-[(3S)-3-[[4-[3-ethyl-5-(2-phenylethyl)pyrazol-1-yl]-1-piperidyl]methyl]-4-phenyl-pyrrolidin-1-yl]acetic acid
> <PUBCHEM_IUPAC_CAS_NAME>
(2R)-2-cyclohexyl-2-[(3S)-3-[[4-[3-ethyl-5-(2-phenylethyl)-1-pyrazolyl]-1-piperidinyl]methyl]-4-phenyl-1-pyrrolidinyl]acetic acid
> <PUBCHEM_IUPAC_NAME_MARKUP>
(2<I>R</I>)-2-cyclohexyl-2-[(3<I>S</I>)-3-[[4-[3-ethyl-5-(2-phenylethyl)pyrazol-1-yl]piperidin-1-yl]methyl]-4-phenylpyrrolidin-1-yl]acetic acid
> <PUBCHEM_IUPAC_NAME>
(2R)-2-cyclohexyl-2-[(3S)-3-[[4-[3-ethyl-5-(2-phenylethyl)pyrazol-1-yl]piperidin-1-yl]methyl]-4-phenylpyrrolidin-1-yl]acetic acid
> <PUBCHEM_IUPAC_SYSTEMATIC_NAME>
(2R)-2-cyclohexyl-2-[(3S)-3-[[4-[3-ethyl-5-(2-phenylethyl)pyrazol-1-yl]piperidin-1-yl]methyl]-4-phenyl-pyrrolidin-1-yl]ethanoic acid
> <PUBCHEM_IUPAC_TRADITIONAL_NAME>
(2R)-2-cyclohexyl-2-[(3S)-3-[[4-(3-ethyl-5-phenethyl-pyrazol-1-yl)piperidino]methyl]-4-phenyl-pyrrolidino]acetic acid
> <PUBCHEM_IUPAC_INCHI>
InChI=1S/C37H50N4O2/c1-2-32-24-34(19-18-28-12-6-3-7-13-28)41(38-32)33-20-22-39(23-21-33)25-31-26-40(27-35(31)29-14-8-4-9-15-29)36(37(42)43)30-16-10-5-11-17-30/h3-4,6-9,12-15,24,30-31,33,35-36H,2,5,10-11,16-23,25-27H2,1H3,(H,42,43)/t31-,35?,36+/m0/s1
> <PUBCHEM_IUPAC_INCHIKEY>
QCJIDJDKLOGYDO-DOKIROKCSA-N
> <PUBCHEM_XLOGP3_AA>
5.3
> <PUBCHEM_EXACT_MASS>
582.39337685
> <PUBCHEM_MOLECULAR_FORMULA>
C37H50N4O2
> <PUBCHEM_MOLECULAR_WEIGHT>
582.8
> <PUBCHEM_OPENEYE_CAN_SMILES>
CCC1=NN(C(=C1)CCC2=CC=CC=C2)C3CCN(CC3)CC4CN(CC4C5=CC=CC=C5)C(C6CCCCC6)C(=O)O
> <PUBCHEM_OPENEYE_ISO_SMILES>
CCC1=NN(C(=C1)CCC2=CC=CC=C2)C3CCN(CC3)C[C@H]4CN(CC4C5=CC=CC=C5)[C@H](C6CCCCC6)C(=O)O
> <PUBCHEM_CACTVS_TPSA>
61.6
> <PUBCHEM_MONOISOTOPIC_WEIGHT>
582.39337685
> <PUBCHEM_TOTAL_CHARGE>
0
> <PUBCHEM_HEAVY_ATOM_COUNT>
43
> <PUBCHEM_ATOM_DEF_STEREO_COUNT>
2
> <PUBCHEM_ATOM_UDEF_STEREO_COUNT>
1
> <PUBCHEM_BOND_DEF_STEREO_COUNT>
0
> <PUBCHEM_BOND_UDEF_STEREO_COUNT>
0
> <PUBCHEM_ISOTOPIC_ATOM_COUNT>
0
> <PUBCHEM_COMPONENT_COUNT>
1
> <PUBCHEM_CACTVS_TAUTO_COUNT>
-1
> <PUBCHEM_COORDINATE_TYPE>
1
5
255
> <PUBCHEM_BONDANNOTATIONS>
11  25  5
16  26  8
16  27  8
26  29  8
27  30  8
28  33  8
29  31  8
30  31  8
33  34  8
37  39  8
37  40  8
39  41  8
40  42  8
41  43  8
42  43  8
5  28  8
5  6  8
6  34  8
7  13  6
8  16  3
$$$$
