516398
  -OEChem-10302200282D
 52 54  0     1  0  0  0  0  0999 V2000
    2.5381   -1.3092    0.0000 O   0  0  0  0  0  0  0  0  0  0  0  0
    4.3283   -3.0516    0.0000 O   0  0  0  0  0  0  0  0  0  0  0  0
    6.9464    3.2842    0.0000 O   0  0  0  0  0  0  0  0  0  0  0  0
    9.5844    1.7567    0.0000 O   0  0  0  0  0  0  0  0  0  0  0  0
    5.2022    0.2150    0.0000 C   0  0  1  0  0  0  0  0  0  0  0  0
    5.2022   -0.7850    0.0000 C   0  0  2  0  0  0  0  0  0  0  0  0
    4.3083   -1.3197    0.0000 C   0  0  3  0  0  0  0  0  0  0  0  0
    6.0682    0.7150    0.0000 C   0  0  0  0  0  0  0  0  0  0  0  0
    6.9343    0.2150    0.0000 C   0  0  1  0  0  0  0  0  0  0  0  0
    6.0682   -1.2850    0.0000 C   0  0  0  0  0  0  0  0  0  0  0  0
    4.3083    0.7496    0.0000 C   0  0  0  0  0  0  0  0  0  0  0  0
    3.4022   -0.8059    0.0000 C   0  0  1  0  0  0  0  0  0  0  0  0
    6.9343   -0.7850    0.0000 C   0  0  0  0  0  0  0  0  0  0  0  0
    3.4022    0.2358    0.0000 C   0  0  0  0  0  0  0  0  0  0  0  0
    5.2022    1.2150    0.0000 C   0  0  0  0  0  0  0  0  0  0  0  0
    7.8443    0.7218    0.0000 C   0  0  0  0  0  0  0  0  0  0  0  0
    3.8183   -2.1915    0.0000 C   0  0  0  0  0  0  0  0  0  0  0  0
    4.8183   -2.1799    0.0000 C   0  0  0  0  0  0  0  0  0  0  0  0
    7.8523    1.7634    0.0000 C   0  0  2  0  0  0  0  0  0  0  0  0
    6.0522    1.7565    0.0000 C   0  0  0  0  0  0  0  0  0  0  0  0
    6.9502    2.2842    0.0000 C   0  0  2  0  0  0  0  0  0  0  0  0
    8.7202    2.2600    0.0000 C   0  0  0  0  0  0  0  0  0  0  0  0
    5.2088   -1.6350    0.0000 H   0  0  0  0  0  0  0  0  0  0  0  0
    7.6671   -0.2157    0.0000 H   0  0  0  0  0  0  0  0  0  0  0  0
    5.6697   -1.7600    0.0000 H   0  0  0  0  0  0  0  0  0  0  0  0
    6.4668   -1.7600    0.0000 H   0  0  0  0  0  0  0  0  0  0  0  0
    4.7129    1.2194    0.0000 H   0  0  0  0  0  0  0  0  0  0  0  0
    3.9147    1.2286    0.0000 H   0  0  0  0  0  0  0  0  0  0  0  0
    2.8647   -0.4969    0.0000 H   0  0  0  0  0  0  0  0  0  0  0  0
    7.1463   -1.3677    0.0000 H   0  0  0  0  0  0  0  0  0  0  0  0
    7.5449   -0.6774    0.0000 H   0  0  0  0  0  0  0  0  0  0  0  0
    3.1932    0.8195    0.0000 H   0  0  0  0  0  0  0  0  0  0  0  0
    2.7914    0.1297    0.0000 H   0  0  0  0  0  0  0  0  0  0  0  0
    5.8222    1.2150    0.0000 H   0  0  0  0  0  0  0  0  0  0  0  0
    5.2022    1.8350    0.0000 H   0  0  0  0  0  0  0  0  0  0  0  0
    4.5822    1.2150    0.0000 H   0  0  0  0  0  0  0  0  0  0  0  0
    8.0488    0.1365    0.0000 H   0  0  0  0  0  0  0  0  0  0  0  0
    8.4559    0.8232    0.0000 H   0  0  0  0  0  0  0  0  0  0  0  0
    3.3388   -1.7984    0.0000 H   0  0  0  0  0  0  0  0  0  0  0  0
    3.3480   -2.5954    0.0000 H   0  0  0  0  0  0  0  0  0  0  0  0
    4.2850   -2.4961    0.0000 H   0  0  0  0  0  0  0  0  0  0  0  0
    5.1344   -2.7132    0.0000 H   0  0  0  0  0  0  0  0  0  0  0  0
    5.3516   -1.8637    0.0000 H   0  0  0  0  0  0  0  0  0  0  0  0
    8.3874    1.4503    0.0000 H   0  0  0  0  0  0  0  0  0  0  0  0
    5.5117    2.0602    0.0000 H   0  0  0  0  0  0  0  0  0  0  0  0
    6.4115    2.5911    0.0000 H   0  0  0  0  0  0  0  0  0  0  0  0
    2.0000   -1.0013    0.0000 H   0  0  0  0  0  0  0  0  0  0  0  0
    9.1206    2.7335    0.0000 H   0  0  0  0  0  0  0  0  0  0  0  0
    8.3236    2.7365    0.0000 H   0  0  0  0  0  0  0  0  0  0  0  0
    4.0245   -3.5921    0.0000 H   0  0  0  0  0  0  0  0  0  0  0  0
    6.4082    3.5921    0.0000 H   0  0  0  0  0  0  0  0  0  0  0  0
   10.1225    2.0646    0.0000 H   0  0  0  0  0  0  0  0  0  0  0  0
 12  1  1  6  0  0  0
  1 47  1  0  0  0  0
  2 17  1  0  0  0  0
  2 50  1  0  0  0  0
 21  3  1  6  0  0  0
  3 51  1  0  0  0  0
  4 22  1  0  0  0  0
  4 52  1  0  0  0  0
  5  6  1  0  0  0  0
  5  8  1  0  0  0  0
  5 11  1  0  0  0  0
  5 15  1  1  0  0  0
  6  7  1  0  0  0  0
  6 10  1  0  0  0  0
  6 23  1  6  0  0  0
  7 12  1  0  0  0  0
  7 17  1  0  0  0  0
  7 18  1  0  0  0  0
  8  9  1  0  0  0  0
  8 20  2  0  0  0  0
  9 13  1  0  0  0  0
  9 16  1  0  0  0  0
  9 24  1  1  0  0  0
 10 13  1  0  0  0  0
 10 25  1  0  0  0  0
 10 26  1  0  0  0  0
 11 14  1  0  0  0  0
 11 27  1  0  0  0  0
 11 28  1  0  0  0  0
 12 14  1  0  0  0  0
 12 29  1  0  0  0  0
 13 30  1  0  0  0  0
 13 31  1  0  0  0  0
 14 32  1  0  0  0  0
 14 33  1  0  0  0  0
 15 34  1  0  0  0  0
 15 35  1  0  0  0  0
 15 36  1  0  0  0  0
 16 19  1  0  0  0  0
 16 37  1  0  0  0  0
 16 38  1  0  0  0  0
 17 39  1  0  0  0  0
 17 40  1  0  0  0  0
 18 41  1  0  0  0  0
 18 42  1  0  0  0  0
 18 43  1  0  0  0  0
 19 21  1  0  0  0  0
 19 22  1  6  0  0  0
 19 44  1  0  0  0  0
 20 21  1  0  0  0  0
 20 45  1  0  0  0  0
 21 46  1  0  0  0  0
 22 48  1  0  0  0  0
 22 49  1  0  0  0  0
M  END
> <PUBCHEM_COMPOUND_CID>
516398
> <PUBCHEM_COMPOUND_CANONICALIZED>
1
> <PUBCHEM_CACTVS_COMPLEXITY>
462
> <PUBCHEM_CACTVS_HBOND_ACCEPTOR>
4
> <PUBCHEM_CACTVS_HBOND_DONOR>
4
> <PUBCHEM_CACTVS_ROTATABLE_BOND>
2
> <PUBCHEM_CACTVS_SUBSKEYS>
AAADceB4OAAAAAAAAAAAAAAAAAAAAAAAAAAwYIAAAAAAAADAAAAAGgAACAAADxSggAICAAAAAgCAAiBCAAAAAAAgAAAACAAAAAgAFAIAAQAAUAAFgAAIEAOAwPAPgAAAAAAAAADAAAYAADAAAAAAAAAAAA==
> <PUBCHEM_IUPAC_OPENEYE_NAME>
(2R,4aS,6S,7S,8aS,10aR)-1,7-bis(hydroxymethyl)-1,4a-dimethyl-2,3,4,6,7,8,8a,9,10,10a-decahydrophenanthrene-2,6-diol
> <PUBCHEM_IUPAC_CAS_NAME>
(2R,4aS,6S,7S,8aS,10aR)-1,7-bis(hydroxymethyl)-1,4a-dimethyl-2,3,4,6,7,8,8a,9,10,10a-decahydrophenanthrene-2,6-diol
> <PUBCHEM_IUPAC_NAME_MARKUP>
(2<I>R</I>,4<I>a</I><I>S</I>,6<I>S</I>,7<I>S</I>,8<I>a</I><I>S</I>,10<I>a</I><I>R</I>)-1,7-bis(hydroxymethyl)-1,4<I>a</I>-dimethyl-2,3,4,6,7,8,8<I>a</I>,9,10,10<I>a</I>-decahydrophenanthrene-2,6-diol
> <PUBCHEM_IUPAC_NAME>
(2R,4aS,6S,7S,8aS,10aR)-1,7-bis(hydroxymethyl)-1,4a-dimethyl-2,3,4,6,7,8,8a,9,10,10a-decahydrophenanthrene-2,6-diol
> <PUBCHEM_IUPAC_SYSTEMATIC_NAME>
(2R,4aS,6S,7S,8aS,10aR)-1,7-bis(hydroxymethyl)-1,4a-dimethyl-2,3,4,6,7,8,8a,9,10,10a-decahydrophenanthrene-2,6-diol
> <PUBCHEM_IUPAC_TRADITIONAL_NAME>
(2R,4aS,6S,7S,8aS,10aR)-1,4a-dimethyl-1,7-dimethylol-2,3,4,6,7,8,8a,9,10,10a-decahydrophenanthrene-2,6-diol
> <PUBCHEM_IUPAC_INCHI>
InChI=1S/C18H30O4/c1-17-6-5-16(22)18(2,10-20)15(17)4-3-11-7-12(9-19)14(21)8-13(11)17/h8,11-12,14-16,19-22H,3-7,9-10H2,1-2H3/t11-,12-,14-,15+,16+,17+,18?/m0/s1
> <PUBCHEM_IUPAC_INCHIKEY>
XCMUPVIUNPZOLU-AKTXWISZSA-N
> <PUBCHEM_XLOGP3_AA>
2.2
> <PUBCHEM_EXACT_MASS>
310.21440943
> <PUBCHEM_MOLECULAR_FORMULA>
C18H30O4
> <PUBCHEM_MOLECULAR_WEIGHT>
310.4
> <PUBCHEM_OPENEYE_CAN_SMILES>
CC12CCC(C(C1CCC3C2=CC(C(C3)CO)O)(C)CO)O
> <PUBCHEM_OPENEYE_ISO_SMILES>
C[C@]12CC[C@H](C([C@@H]1CC[C@@H]3C2=C[C@@H]([C@@H](C3)CO)O)(C)CO)O
> <PUBCHEM_CACTVS_TPSA>
80.9
> <PUBCHEM_MONOISOTOPIC_WEIGHT>
310.21440943
> <PUBCHEM_TOTAL_CHARGE>
0
> <PUBCHEM_HEAVY_ATOM_COUNT>
22
> <PUBCHEM_ATOM_DEF_STEREO_COUNT>
6
> <PUBCHEM_ATOM_UDEF_STEREO_COUNT>
1
> <PUBCHEM_BOND_DEF_STEREO_COUNT>
0
> <PUBCHEM_BOND_UDEF_STEREO_COUNT>
0
> <PUBCHEM_ISOTOPIC_ATOM_COUNT>
0
> <PUBCHEM_COMPONENT_COUNT>
1
> <PUBCHEM_CACTVS_TAUTO_COUNT>
-1
> <PUBCHEM_COORDINATE_TYPE>
1
5
255
> <PUBCHEM_BONDANNOTATIONS>
12  1  6
19  22  6
21  3  6
5  15  5
6  23  6
7  18  3
9  24  5
$$$$
