516325
  -OEChem-10302200282D
 84 89  0     1  0  0  0  0  0999 V2000
    2.3644   -4.0752    0.0000 O   0  0  0  0  0  0  0  0  0  0  0  0
    3.7657   -5.0932    0.0000 O   0  0  0  0  0  0  0  0  0  0  0  0
    4.9413   -3.4752    0.0000 N   0  0  3  0  0  0  0  0  0  0  0  0
    7.3900   -1.6388    0.0000 N   0  0  0  0  0  0  0  0  0  0  0  0
    8.1990    1.9490    0.0000 N   0  0  0  0  0  0  0  0  0  0  0  0
    7.8900    2.9001    0.0000 N   0  0  0  0  0  0  0  0  0  0  0  0
    6.5239   -3.1388    0.0000 C   0  0  2  0  0  0  0  0  0  0  0  0
    6.4194   -4.1333    0.0000 C   0  0  2  0  0  0  0  0  0  0  0  0
    5.6104   -2.7320    0.0000 C   0  0  0  0  0  0  0  0  0  0  0  0
    5.4413   -4.3412    0.0000 C   0  0  0  0  0  0  0  0  0  0  0  0
    3.9467   -3.3707    0.0000 C   0  0  2  0  0  0  0  0  0  0  0  0
    3.5400   -2.4571    0.0000 C   0  0  0  0  0  0  0  0  0  0  0  0
    7.3900   -2.6388    0.0000 C   0  0  0  0  0  0  0  0  0  0  0  0
    2.5455   -2.3526    0.0000 C   0  0  0  0  0  0  0  0  0  0  0  0
    4.1278   -1.6481    0.0000 C   0  0  0  0  0  0  0  0  0  0  0  0
    7.1626   -4.8024    0.0000 C   0  0  0  0  0  0  0  0  0  0  0  0
    2.1387   -1.4390    0.0000 C   0  0  0  0  0  0  0  0  0  0  0  0
    3.7210   -0.7346    0.0000 C   0  0  0  0  0  0  0  0  0  0  0  0
    6.5239   -1.1388    0.0000 C   0  0  0  0  0  0  0  0  0  0  0  0
    8.2560   -1.1388    0.0000 C   0  0  0  0  0  0  0  0  0  0  0  0
    2.7265   -0.6300    0.0000 C   0  0  0  0  0  0  0  0  0  0  0  0
    7.3900    0.3612    0.0000 C   0  0  0  0  0  0  0  0  0  0  0  0
    6.5239   -0.1388    0.0000 C   0  0  0  0  0  0  0  0  0  0  0  0
    8.2560   -0.1388    0.0000 C   0  0  0  0  0  0  0  0  0  0  0  0
    3.3590   -4.1797    0.0000 C   0  0  0  0  0  0  0  0  0  0  0  0
    6.9546   -5.7806    0.0000 C   0  0  0  0  0  0  0  0  0  0  0  0
    8.1136   -4.4934    0.0000 C   0  0  0  0  0  0  0  0  0  0  0  0
    7.3900    1.3612    0.0000 C   0  0  0  0  0  0  0  0  0  0  0  0
    7.6978   -6.4497    0.0000 C   0  0  0  0  0  0  0  0  0  0  0  0
    8.8568   -5.1626    0.0000 C   0  0  0  0  0  0  0  0  0  0  0  0
    6.5809    1.9490    0.0000 C   0  0  0  0  0  0  0  0  0  0  0  0
    8.6488   -6.1407    0.0000 C   0  0  0  0  0  0  0  0  0  0  0  0
    6.8900    2.9001    0.0000 C   0  0  0  0  0  0  0  0  0  0  0  0
    6.3022    3.7091    0.0000 C   0  0  0  0  0  0  0  0  0  0  0  0
    6.7089    4.6226    0.0000 C   0  0  0  0  0  0  0  0  0  0  0  0
    7.7034    4.7272    0.0000 C   0  0  0  0  0  0  0  0  0  0  0  0
    6.1211    5.4316    0.0000 C   0  0  0  0  0  0  0  0  0  0  0  0
    8.1102    5.6407    0.0000 C   0  0  0  0  0  0  0  0  0  0  0  0
    6.5279    6.3452    0.0000 C   0  0  0  0  0  0  0  0  0  0  0  0
    7.5224    6.4497    0.0000 C   0  0  0  0  0  0  0  0  0  0  0  0
    6.4915   -2.5196    0.0000 H   0  0  0  0  0  0  0  0  0  0  0  0
    6.2589   -4.7322    0.0000 H   0  0  0  0  0  0  0  0  0  0  0  0
    5.9204   -2.1951    0.0000 H   0  0  0  0  0  0  0  0  0  0  0  0
    5.1088   -2.3676    0.0000 H   0  0  0  0  0  0  0  0  0  0  0  0
    4.8749   -4.5934    0.0000 H   0  0  0  0  0  0  0  0  0  0  0  0
    5.6328   -4.9309    0.0000 H   0  0  0  0  0  0  0  0  0  0  0  0
    4.1989   -3.9371    0.0000 H   0  0  0  0  0  0  0  0  0  0  0  0
    3.1756   -2.9587    0.0000 H   0  0  0  0  0  0  0  0  0  0  0  0
    7.6020   -3.2214    0.0000 H   0  0  0  0  0  0  0  0  0  0  0  0
    8.0005   -2.5311    0.0000 H   0  0  0  0  0  0  0  0  0  0  0  0
    1.9439   -2.5026    0.0000 H   0  0  0  0  0  0  0  0  0  0  0  0
    2.5887   -2.9711    0.0000 H   0  0  0  0  0  0  0  0  0  0  0  0
    4.5585   -2.0941    0.0000 H   0  0  0  0  0  0  0  0  0  0  0  0
    4.6418   -1.3014    0.0000 H   0  0  0  0  0  0  0  0  0  0  0  0
    1.7080   -0.9931    0.0000 H   0  0  0  0  0  0  0  0  0  0  0  0
    1.6247   -1.7857    0.0000 H   0  0  0  0  0  0  0  0  0  0  0  0
    4.3226   -0.5846    0.0000 H   0  0  0  0  0  0  0  0  0  0  0  0
    3.6778   -0.1161    0.0000 H   0  0  0  0  0  0  0  0  0  0  0  0
    5.9134   -1.0311    0.0000 H   0  0  0  0  0  0  0  0  0  0  0  0
    6.3119   -1.7214    0.0000 H   0  0  0  0  0  0  0  0  0  0  0  0
    8.4680   -1.7214    0.0000 H   0  0  0  0  0  0  0  0  0  0  0  0
    8.8666   -1.0311    0.0000 H   0  0  0  0  0  0  0  0  0  0  0  0
    2.8974   -0.0340    0.0000 H   0  0  0  0  0  0  0  0  0  0  0  0
    2.1693   -0.3582    0.0000 H   0  0  0  0  0  0  0  0  0  0  0  0
    7.9269    0.6712    0.0000 H   0  0  0  0  0  0  0  0  0  0  0  0
    6.3119    0.4438    0.0000 H   0  0  0  0  0  0  0  0  0  0  0  0
    5.9134   -0.2464    0.0000 H   0  0  0  0  0  0  0  0  0  0  0  0
    8.8666   -0.2464    0.0000 H   0  0  0  0  0  0  0  0  0  0  0  0
    8.4680    0.4438    0.0000 H   0  0  0  0  0  0  0  0  0  0  0  0
    6.3650   -5.9722    0.0000 H   0  0  0  0  0  0  0  0  0  0  0  0
    8.2425   -3.8870    0.0000 H   0  0  0  0  0  0  0  0  0  0  0  0
    7.5689   -7.0562    0.0000 H   0  0  0  0  0  0  0  0  0  0  0  0
    9.4464   -4.9710    0.0000 H   0  0  0  0  0  0  0  0  0  0  0  0
    2.0000   -4.5767    0.0000 H   0  0  0  0  0  0  0  0  0  0  0  0
    5.9913    1.7574    0.0000 H   0  0  0  0  0  0  0  0  0  0  0  0
    9.1096   -6.5556    0.0000 H   0  0  0  0  0  0  0  0  0  0  0  0
    8.2544    3.4016    0.0000 H   0  0  0  0  0  0  0  0  0  0  0  0
    5.7882    4.0558    0.0000 H   0  0  0  0  0  0  0  0  0  0  0  0
    5.8715    3.2631    0.0000 H   0  0  0  0  0  0  0  0  0  0  0  0
    8.0679    4.2256    0.0000 H   0  0  0  0  0  0  0  0  0  0  0  0
    5.5045    5.3668    0.0000 H   0  0  0  0  0  0  0  0  0  0  0  0
    8.7268    5.7055    0.0000 H   0  0  0  0  0  0  0  0  0  0  0  0
    6.1634    6.8468    0.0000 H   0  0  0  0  0  0  0  0  0  0  0  0
    7.7746    7.0161    0.0000 H   0  0  0  0  0  0  0  0  0  0  0  0
  1 25  1  0  0  0  0
  1 74  1  0  0  0  0
  2 25  2  0  0  0  0
  3  9  1  0  0  0  0
  3 10  1  0  0  0  0
  3 11  1  0  0  0  0
  4 13  1  0  0  0  0
  4 19  1  0  0  0  0
  4 20  1  0  0  0  0
  5  6  1  0  0  0  0
  5 28  2  0  0  0  0
  6 33  1  0  0  0  0
  6 77  1  0  0  0  0
  7  8  1  0  0  0  0
  7  9  1  0  0  0  0
  7 13  1  6  0  0  0
  7 41  1  0  0  0  0
  8 10  1  0  0  0  0
  8 16  1  1  0  0  0
  8 42  1  0  0  0  0
  9 43  1  0  0  0  0
  9 44  1  0  0  0  0
 10 45  1  0  0  0  0
 10 46  1  0  0  0  0
 11 12  1  0  0  0  0
 11 25  1  1  0  0  0
 11 47  1  0  0  0  0
 12 14  1  0  0  0  0
 12 15  1  0  0  0  0
 12 48  1  0  0  0  0
 13 49  1  0  0  0  0
 13 50  1  0  0  0  0
 14 17  1  0  0  0  0
 14 51  1  0  0  0  0
 14 52  1  0  0  0  0
 15 18  1  0  0  0  0
 15 53  1  0  0  0  0
 15 54  1  0  0  0  0
 16 26  2  0  0  0  0
 16 27  1  0  0  0  0
 17 21  1  0  0  0  0
 17 55  1  0  0  0  0
 17 56  1  0  0  0  0
 18 21  1  0  0  0  0
 18 57  1  0  0  0  0
 18 58  1  0  0  0  0
 19 23  1  0  0  0  0
 19 59  1  0  0  0  0
 19 60  1  0  0  0  0
 20 24  1  0  0  0  0
 20 61  1  0  0  0  0
 20 62  1  0  0  0  0
 21 63  1  0  0  0  0
 21 64  1  0  0  0  0
 22 23  1  0  0  0  0
 22 24  1  0  0  0  0
 22 28  1  0  0  0  0
 22 65  1  0  0  0  0
 23 66  1  0  0  0  0
 23 67  1  0  0  0  0
 24 68  1  0  0  0  0
 24 69  1  0  0  0  0
 26 29  1  0  0  0  0
 26 70  1  0  0  0  0
 27 30  2  0  0  0  0
 27 71  1  0  0  0  0
 28 31  1  0  0  0  0
 29 32  2  0  0  0  0
 29 72  1  0  0  0  0
 30 32  1  0  0  0  0
 30 73  1  0  0  0  0
 31 33  2  0  0  0  0
 31 75  1  0  0  0  0
 32 76  1  0  0  0  0
 33 34  1  0  0  0  0
 34 35  1  0  0  0  0
 34 78  1  0  0  0  0
 34 79  1  0  0  0  0
 35 36  2  0  0  0  0
 35 37  1  0  0  0  0
 36 38  1  0  0  0  0
 36 80  1  0  0  0  0
 37 39  2  0  0  0  0
 37 81  1  0  0  0  0
 38 40  2  0  0  0  0
 38 82  1  0  0  0  0
 39 40  1  0  0  0  0
 39 83  1  0  0  0  0
 40 84  1  0  0  0  0
M  END
> <PUBCHEM_COMPOUND_CID>
516325
> <PUBCHEM_COMPOUND_CANONICALIZED>
1
> <PUBCHEM_CACTVS_COMPLEXITY>
783
> <PUBCHEM_CACTVS_HBOND_ACCEPTOR>
5
> <PUBCHEM_CACTVS_HBOND_DONOR>
2
> <PUBCHEM_CACTVS_ROTATABLE_BOND>
9
> <PUBCHEM_CACTVS_SUBSKEYS>
AAADcfB/sAAAAAAAAAAAAAAAAAAAAWLAAAA8YMEAAAAAAAAB0AAAHgAYCAAADSjBngQwiJNjAgCqAyTySACSBAAgAgAYuSG4ZJgKIDKA0fGE5ABkmACYyAeYyOCOgAAAAAAAAAAAAAAAAAAAAAAAAAAAAA==
> <PUBCHEM_IUPAC_OPENEYE_NAME>
(2R)-2-[(3S,4S)-3-[[4-(5-benzyl-1H-pyrazol-3-yl)-1-piperidyl]methyl]-4-phenyl-pyrrolidin-1-yl]-2-cyclohexyl-acetic acid
> <PUBCHEM_IUPAC_CAS_NAME>
(2R)-2-cyclohexyl-2-[(3S,4S)-3-phenyl-4-[[4-[5-(phenylmethyl)-1H-pyrazol-3-yl]-1-piperidinyl]methyl]-1-pyrrolidinyl]acetic acid
> <PUBCHEM_IUPAC_NAME_MARKUP>
(2<I>R</I>)-2-[(3<I>S</I>,4<I>S</I>)-3-[[4-(5-benzyl-1<I>H</I>-pyrazol-3-yl)piperidin-1-yl]methyl]-4-phenylpyrrolidin-1-yl]-2-cyclohexylacetic acid
> <PUBCHEM_IUPAC_NAME>
(2R)-2-[(3S,4S)-3-[[4-(5-benzyl-1H-pyrazol-3-yl)piperidin-1-yl]methyl]-4-phenylpyrrolidin-1-yl]-2-cyclohexylacetic acid
> <PUBCHEM_IUPAC_SYSTEMATIC_NAME>
(2R)-2-cyclohexyl-2-[(3S,4S)-3-phenyl-4-[[4-[5-(phenylmethyl)-1H-pyrazol-3-yl]piperidin-1-yl]methyl]pyrrolidin-1-yl]ethanoic acid
> <PUBCHEM_IUPAC_TRADITIONAL_NAME>
(2R)-2-[(3S,4S)-3-[[4-(5-benzyl-1H-pyrazol-3-yl)piperidino]methyl]-4-phenyl-pyrrolidino]-2-cyclohexyl-acetic acid
> <PUBCHEM_IUPAC_INCHI>
InChI=1S/C34H44N4O2/c39-34(40)33(28-14-8-3-9-15-28)38-23-29(31(24-38)26-12-6-2-7-13-26)22-37-18-16-27(17-19-37)32-21-30(35-36-32)20-25-10-4-1-5-11-25/h1-2,4-7,10-13,21,27-29,31,33H,3,8-9,14-20,22-24H2,(H,35,36)(H,39,40)/t29-,31+,33+/m0/s1
> <PUBCHEM_IUPAC_INCHIKEY>
QAIJWPOWXKGVJQ-KCTCJIHVSA-N
> <PUBCHEM_XLOGP3_AA>
4.3
> <PUBCHEM_EXACT_MASS>
540.34642666
> <PUBCHEM_MOLECULAR_FORMULA>
C34H44N4O2
> <PUBCHEM_MOLECULAR_WEIGHT>
540.7
> <PUBCHEM_OPENEYE_CAN_SMILES>
C1CCC(CC1)C(C(=O)O)N2CC(C(C2)C3=CC=CC=C3)CN4CCC(CC4)C5=NNC(=C5)CC6=CC=CC=C6
> <PUBCHEM_OPENEYE_ISO_SMILES>
C1CCC(CC1)[C@H](C(=O)O)N2C[C@@H]([C@H](C2)C3=CC=CC=C3)CN4CCC(CC4)C5=NNC(=C5)CC6=CC=CC=C6
> <PUBCHEM_CACTVS_TPSA>
72.5
> <PUBCHEM_MONOISOTOPIC_WEIGHT>
540.34642666
> <PUBCHEM_TOTAL_CHARGE>
0
> <PUBCHEM_HEAVY_ATOM_COUNT>
40
> <PUBCHEM_ATOM_DEF_STEREO_COUNT>
3
> <PUBCHEM_ATOM_UDEF_STEREO_COUNT>
0
> <PUBCHEM_BOND_DEF_STEREO_COUNT>
0
> <PUBCHEM_BOND_UDEF_STEREO_COUNT>
0
> <PUBCHEM_ISOTOPIC_ATOM_COUNT>
0
> <PUBCHEM_COMPONENT_COUNT>
1
> <PUBCHEM_CACTVS_TAUTO_COUNT>
-1
> <PUBCHEM_COORDINATE_TYPE>
1
5
255
> <PUBCHEM_BONDANNOTATIONS>
11  25  5
16  26  8
16  27  8
26  29  8
27  30  8
28  31  8
29  32  8
30  32  8
31  33  8
35  36  8
35  37  8
36  38  8
37  39  8
38  40  8
39  40  8
5  28  8
5  6  8
6  33  8
7  13  6
8  16  5
$$$$
