516347
  -OEChem-10302200282D
 82 87  0     1  0  0  0  0  0999 V2000
    2.7688   -2.6003    0.0000 O   0  0  0  0  0  0  0  0  0  0  0  0
    4.3511   -1.8958    0.0000 O   0  0  0  0  0  0  0  0  0  0  0  0
    5.1646   -3.7229    0.0000 N   0  0  3  0  0  0  0  0  0  0  0  0
    7.6133   -1.8865    0.0000 N   0  0  0  0  0  0  0  0  0  0  0  0
    6.8043    1.7013    0.0000 N   0  0  0  0  0  0  0  0  0  0  0  0
    7.1133    2.6523    0.0000 N   0  0  0  0  0  0  0  0  0  0  0  0
   11.0522    6.6974    0.0000 N   0  0  0  0  0  0  0  0  0  0  0  0
    6.7473   -3.3865    0.0000 C   0  0  2  0  0  0  0  0  0  0  0  0
    6.6428   -4.3810    0.0000 C   0  0  2  0  0  0  0  0  0  0  0  0
    5.8338   -2.9798    0.0000 C   0  0  0  0  0  0  0  0  0  0  0  0
    5.6646   -4.5889    0.0000 C   0  0  0  0  0  0  0  0  0  0  0  0
    4.1701   -3.6184    0.0000 C   0  0  2  0  0  0  0  0  0  0  0  0
    3.5823   -4.4274    0.0000 C   0  0  0  0  0  0  0  0  0  0  0  0
    7.6133   -2.8865    0.0000 C   0  0  0  0  0  0  0  0  0  0  0  0
    2.5878   -4.3229    0.0000 C   0  0  0  0  0  0  0  0  0  0  0  0
    3.9890   -5.3409    0.0000 C   0  0  0  0  0  0  0  0  0  0  0  0
    7.3859   -5.0502    0.0000 C   0  0  0  0  0  0  0  0  0  0  0  0
    2.0000   -5.1319    0.0000 C   0  0  0  0  0  0  0  0  0  0  0  0
    3.4013   -6.1500    0.0000 C   0  0  0  0  0  0  0  0  0  0  0  0
    6.7473   -1.3865    0.0000 C   0  0  0  0  0  0  0  0  0  0  0  0
    8.4793   -1.3865    0.0000 C   0  0  0  0  0  0  0  0  0  0  0  0
    2.4067   -6.0454    0.0000 C   0  0  0  0  0  0  0  0  0  0  0  0
    7.6133    0.1135    0.0000 C   0  0  0  0  0  0  0  0  0  0  0  0
    6.7473   -0.3865    0.0000 C   0  0  0  0  0  0  0  0  0  0  0  0
    8.4793   -0.3865    0.0000 C   0  0  0  0  0  0  0  0  0  0  0  0
    3.7634   -2.7048    0.0000 C   0  0  0  0  0  0  0  0  0  0  0  0
    7.1780   -6.0283    0.0000 C   0  0  0  0  0  0  0  0  0  0  0  0
    8.3370   -4.7411    0.0000 C   0  0  0  0  0  0  0  0  0  0  0  0
    7.6133    1.1135    0.0000 C   0  0  0  0  0  0  0  0  0  0  0  0
    7.9211   -6.6974    0.0000 C   0  0  0  0  0  0  0  0  0  0  0  0
    9.0801   -5.4103    0.0000 C   0  0  0  0  0  0  0  0  0  0  0  0
    8.4223    1.7013    0.0000 C   0  0  0  0  0  0  0  0  0  0  0  0
    8.8722   -6.3884    0.0000 C   0  0  0  0  0  0  0  0  0  0  0  0
    8.1133    2.6523    0.0000 C   0  0  0  0  0  0  0  0  0  0  0  0
    8.7011    3.4614    0.0000 C   0  0  0  0  0  0  0  0  0  0  0  0
    9.6956    3.3568    0.0000 C   0  0  0  0  0  0  0  0  0  0  0  0
    8.2944    4.3749    0.0000 C   0  0  0  0  0  0  0  0  0  0  0  0
   10.2834    4.1658    0.0000 C   0  0  0  0  0  0  0  0  0  0  0  0
    8.8822    5.1839    0.0000 C   0  0  0  0  0  0  0  0  0  0  0  0
    9.8767    5.0794    0.0000 C   0  0  0  0  0  0  0  0  0  0  0  0
   10.4645    5.8884    0.0000 C   0  0  0  0  0  0  0  0  0  0  0  0
    7.2673   -3.7242    0.0000 H   0  0  0  0  0  0  0  0  0  0  0  0
    6.4823   -4.9799    0.0000 H   0  0  0  0  0  0  0  0  0  0  0  0
    6.1437   -2.4428    0.0000 H   0  0  0  0  0  0  0  0  0  0  0  0
    5.3322   -2.6153    0.0000 H   0  0  0  0  0  0  0  0  0  0  0  0
    5.0982   -4.8411    0.0000 H   0  0  0  0  0  0  0  0  0  0  0  0
    5.8562   -5.1786    0.0000 H   0  0  0  0  0  0  0  0  0  0  0  0
    4.5345   -3.1168    0.0000 H   0  0  0  0  0  0  0  0  0  0  0  0
    3.3301   -3.8610    0.0000 H   0  0  0  0  0  0  0  0  0  0  0  0
    7.8254   -3.4691    0.0000 H   0  0  0  0  0  0  0  0  0  0  0  0
    8.2239   -2.7788    0.0000 H   0  0  0  0  0  0  0  0  0  0  0  0
    2.7587   -3.7269    0.0000 H   0  0  0  0  0  0  0  0  0  0  0  0
    2.0305   -4.0511    0.0000 H   0  0  0  0  0  0  0  0  0  0  0  0
    4.4197   -5.7869    0.0000 H   0  0  0  0  0  0  0  0  0  0  0  0
    4.5030   -4.9942    0.0000 H   0  0  0  0  0  0  0  0  0  0  0  0
    1.5693   -4.6859    0.0000 H   0  0  0  0  0  0  0  0  0  0  0  0
    1.4860   -5.4786    0.0000 H   0  0  0  0  0  0  0  0  0  0  0  0
    3.2304   -6.7459    0.0000 H   0  0  0  0  0  0  0  0  0  0  0  0
    3.9585   -6.4218    0.0000 H   0  0  0  0  0  0  0  0  0  0  0  0
    6.1367   -1.2788    0.0000 H   0  0  0  0  0  0  0  0  0  0  0  0
    6.5352   -1.9691    0.0000 H   0  0  0  0  0  0  0  0  0  0  0  0
    8.6914   -1.9691    0.0000 H   0  0  0  0  0  0  0  0  0  0  0  0
    9.0899   -1.2788    0.0000 H   0  0  0  0  0  0  0  0  0  0  0  0
    1.8052   -6.1954    0.0000 H   0  0  0  0  0  0  0  0  0  0  0  0
    2.4500   -6.6639    0.0000 H   0  0  0  0  0  0  0  0  0  0  0  0
    7.0764    0.4235    0.0000 H   0  0  0  0  0  0  0  0  0  0  0  0
    6.5352    0.1961    0.0000 H   0  0  0  0  0  0  0  0  0  0  0  0
    6.1367   -0.4942    0.0000 H   0  0  0  0  0  0  0  0  0  0  0  0
    9.0899   -0.4942    0.0000 H   0  0  0  0  0  0  0  0  0  0  0  0
    8.6914    0.1961    0.0000 H   0  0  0  0  0  0  0  0  0  0  0  0
    6.5883   -6.2199    0.0000 H   0  0  0  0  0  0  0  0  0  0  0  0
    8.4659   -4.1347    0.0000 H   0  0  0  0  0  0  0  0  0  0  0  0
    7.7922   -7.3039    0.0000 H   0  0  0  0  0  0  0  0  0  0  0  0
    9.6698   -5.2187    0.0000 H   0  0  0  0  0  0  0  0  0  0  0  0
    2.5167   -2.0339    0.0000 H   0  0  0  0  0  0  0  0  0  0  0  0
    9.0120    1.5097    0.0000 H   0  0  0  0  0  0  0  0  0  0  0  0
    9.3330   -6.8033    0.0000 H   0  0  0  0  0  0  0  0  0  0  0  0
    6.2146    1.5097    0.0000 H   0  0  0  0  0  0  0  0  0  0  0  0
    9.9478    2.7904    0.0000 H   0  0  0  0  0  0  0  0  0  0  0  0
    7.6778    4.4397    0.0000 H   0  0  0  0  0  0  0  0  0  0  0  0
   10.9000    4.1010    0.0000 H   0  0  0  0  0  0  0  0  0  0  0  0
    8.6300    5.7503    0.0000 H   0  0  0  0  0  0  0  0  0  0  0  0
  1 26  1  0  0  0  0
  1 75  1  0  0  0  0
  2 26  2  0  0  0  0
  3 10  1  0  0  0  0
  3 11  1  0  0  0  0
  3 12  1  0  0  0  0
  4 14  1  0  0  0  0
  4 20  1  0  0  0  0
  4 21  1  0  0  0  0
  5  6  1  0  0  0  0
  5 29  1  0  0  0  0
  5 78  1  0  0  0  0
  6 34  2  0  0  0  0
  7 41  3  0  0  0  0
  8  9  1  0  0  0  0
  8 10  1  0  0  0  0
  8 14  1  6  0  0  0
  8 42  1  0  0  0  0
  9 11  1  0  0  0  0
  9 17  1  1  0  0  0
  9 43  1  0  0  0  0
 10 44  1  0  0  0  0
 10 45  1  0  0  0  0
 11 46  1  0  0  0  0
 11 47  1  0  0  0  0
 12 13  1  0  0  0  0
 12 26  1  6  0  0  0
 12 48  1  0  0  0  0
 13 15  1  0  0  0  0
 13 16  1  0  0  0  0
 13 49  1  0  0  0  0
 14 50  1  0  0  0  0
 14 51  1  0  0  0  0
 15 18  1  0  0  0  0
 15 52  1  0  0  0  0
 15 53  1  0  0  0  0
 16 19  1  0  0  0  0
 16 54  1  0  0  0  0
 16 55  1  0  0  0  0
 17 27  2  0  0  0  0
 17 28  1  0  0  0  0
 18 22  1  0  0  0  0
 18 56  1  0  0  0  0
 18 57  1  0  0  0  0
 19 22  1  0  0  0  0
 19 58  1  0  0  0  0
 19 59  1  0  0  0  0
 20 24  1  0  0  0  0
 20 60  1  0  0  0  0
 20 61  1  0  0  0  0
 21 25  1  0  0  0  0
 21 62  1  0  0  0  0
 21 63  1  0  0  0  0
 22 64  1  0  0  0  0
 22 65  1  0  0  0  0
 23 24  1  0  0  0  0
 23 25  1  0  0  0  0
 23 29  1  0  0  0  0
 23 66  1  0  0  0  0
 24 67  1  0  0  0  0
 24 68  1  0  0  0  0
 25 69  1  0  0  0  0
 25 70  1  0  0  0  0
 27 30  1  0  0  0  0
 27 71  1  0  0  0  0
 28 31  2  0  0  0  0
 28 72  1  0  0  0  0
 29 32  2  0  0  0  0
 30 33  2  0  0  0  0
 30 73  1  0  0  0  0
 31 33  1  0  0  0  0
 31 74  1  0  0  0  0
 32 34  1  0  0  0  0
 32 76  1  0  0  0  0
 33 77  1  0  0  0  0
 34 35  1  0  0  0  0
 35 36  2  0  0  0  0
 35 37  1  0  0  0  0
 36 38  1  0  0  0  0
 36 79  1  0  0  0  0
 37 39  2  0  0  0  0
 37 80  1  0  0  0  0
 38 40  2  0  0  0  0
 38 81  1  0  0  0  0
 39 40  1  0  0  0  0
 39 82  1  0  0  0  0
 40 41  1  0  0  0  0
M  END
> <PUBCHEM_COMPOUND_CID>
516347
> <PUBCHEM_COMPOUND_CANONICALIZED>
1
> <PUBCHEM_CACTVS_COMPLEXITY>
892
> <PUBCHEM_CACTVS_HBOND_ACCEPTOR>
6
> <PUBCHEM_CACTVS_HBOND_DONOR>
2
> <PUBCHEM_CACTVS_ROTATABLE_BOND>
8
> <PUBCHEM_CACTVS_SUBSKEYS>
AAADcfB/sAAAAAAAAAAAAAAAAAAAAWLAAAA8YMEAAAAAAAAB0AAAHgAYCAAADSjBngQwiJNjAgC6ByTySACyBAAgAgAYuSG4ZJgKoLKA0fGE5ABkmACYyA+YyOCOwAAAAAAAAACAAAAAAAAAAAAAAAAAAA==
> <PUBCHEM_IUPAC_OPENEYE_NAME>
(2R)-2-[(3S,4S)-3-[[4-[3-(4-cyanophenyl)-1H-pyrazol-5-yl]-1-piperidyl]methyl]-4-phenyl-pyrrolidin-1-yl]-2-cyclohexyl-acetic acid
> <PUBCHEM_IUPAC_CAS_NAME>
(2R)-2-[(3S,4S)-3-[[4-[3-(4-cyanophenyl)-1H-pyrazol-5-yl]-1-piperidinyl]methyl]-4-phenyl-1-pyrrolidinyl]-2-cyclohexylacetic acid
> <PUBCHEM_IUPAC_NAME_MARKUP>
(2<I>R</I>)-2-[(3<I>S</I>,4<I>S</I>)-3-[[4-[3-(4-cyanophenyl)-1<I>H</I>-pyrazol-5-yl]piperidin-1-yl]methyl]-4-phenylpyrrolidin-1-yl]-2-cyclohexylacetic acid
> <PUBCHEM_IUPAC_NAME>
(2R)-2-[(3S,4S)-3-[[4-[3-(4-cyanophenyl)-1H-pyrazol-5-yl]piperidin-1-yl]methyl]-4-phenylpyrrolidin-1-yl]-2-cyclohexylacetic acid
> <PUBCHEM_IUPAC_SYSTEMATIC_NAME>
(2R)-2-[(3S,4S)-3-[[4-[3-(4-cyanophenyl)-1H-pyrazol-5-yl]piperidin-1-yl]methyl]-4-phenyl-pyrrolidin-1-yl]-2-cyclohexyl-ethanoic acid
> <PUBCHEM_IUPAC_TRADITIONAL_NAME>
(2R)-2-[(3S,4S)-3-[[4-[3-(4-cyanophenyl)-1H-pyrazol-5-yl]piperidino]methyl]-4-phenyl-pyrrolidino]-2-cyclohexyl-acetic acid
> <PUBCHEM_IUPAC_INCHI>
InChI=1S/C34H41N5O2/c35-20-24-11-13-26(14-12-24)31-19-32(37-36-31)27-15-17-38(18-16-27)21-29-22-39(23-30(29)25-7-3-1-4-8-25)33(34(40)41)28-9-5-2-6-10-28/h1,3-4,7-8,11-14,19,27-30,33H,2,5-6,9-10,15-18,21-23H2,(H,36,37)(H,40,41)/t29-,30+,33+/m0/s1
> <PUBCHEM_IUPAC_INCHIKEY>
YLNKIGCUCCEUNE-AARCXHMLSA-N
> <PUBCHEM_XLOGP3_AA>
3.7
> <PUBCHEM_EXACT_MASS>
551.32602557
> <PUBCHEM_MOLECULAR_FORMULA>
C34H41N5O2
> <PUBCHEM_MOLECULAR_WEIGHT>
551.7
> <PUBCHEM_OPENEYE_CAN_SMILES>
C1CCC(CC1)C(C(=O)O)N2CC(C(C2)C3=CC=CC=C3)CN4CCC(CC4)C5=CC(=NN5)C6=CC=C(C=C6)C#N
> <PUBCHEM_OPENEYE_ISO_SMILES>
C1CCC(CC1)[C@H](C(=O)O)N2C[C@@H]([C@H](C2)C3=CC=CC=C3)CN4CCC(CC4)C5=CC(=NN5)C6=CC=C(C=C6)C#N
> <PUBCHEM_CACTVS_TPSA>
96.2
> <PUBCHEM_MONOISOTOPIC_WEIGHT>
551.32602557
> <PUBCHEM_TOTAL_CHARGE>
0
> <PUBCHEM_HEAVY_ATOM_COUNT>
41
> <PUBCHEM_ATOM_DEF_STEREO_COUNT>
3
> <PUBCHEM_ATOM_UDEF_STEREO_COUNT>
0
> <PUBCHEM_BOND_DEF_STEREO_COUNT>
0
> <PUBCHEM_BOND_UDEF_STEREO_COUNT>
0
> <PUBCHEM_ISOTOPIC_ATOM_COUNT>
0
> <PUBCHEM_COMPONENT_COUNT>
1
> <PUBCHEM_CACTVS_TAUTO_COUNT>
-1
> <PUBCHEM_COORDINATE_TYPE>
1
5
255
> <PUBCHEM_BONDANNOTATIONS>
12  26  6
17  27  8
17  28  8
27  30  8
28  31  8
29  32  8
30  33  8
31  33  8
32  34  8
35  36  8
35  37  8
36  38  8
37  39  8
38  40  8
39  40  8
5  29  8
5  6  8
6  34  8
8  14  6
9  17  5
$$$$
