516344
  -OEChem-10302200282D
 87 92  0     1  0  0  0  0  0999 V2000
    2.7688   -1.8436    0.0000 O   0  0  0  0  0  0  0  0  0  0  0  0
    4.3511   -1.1391    0.0000 O   0  0  0  0  0  0  0  0  0  0  0  0
    5.1646   -2.9662    0.0000 N   0  0  3  0  0  0  0  0  0  0  0  0
    7.6133   -1.1298    0.0000 N   0  0  0  0  0  0  0  0  0  0  0  0
    6.8043    2.4580    0.0000 N   0  0  0  0  0  0  0  0  0  0  0  0
    7.1133    3.4091    0.0000 N   0  0  0  0  0  0  0  0  0  0  0  0
    6.7473   -2.6298    0.0000 C   0  0  2  0  0  0  0  0  0  0  0  0
    6.6428   -3.6243    0.0000 C   0  0  2  0  0  0  0  0  0  0  0  0
    5.8338   -2.2230    0.0000 C   0  0  0  0  0  0  0  0  0  0  0  0
    5.6646   -3.8322    0.0000 C   0  0  0  0  0  0  0  0  0  0  0  0
    4.1701   -2.8616    0.0000 C   0  0  2  0  0  0  0  0  0  0  0  0
    3.5823   -3.6706    0.0000 C   0  0  0  0  0  0  0  0  0  0  0  0
    7.6133   -2.1298    0.0000 C   0  0  0  0  0  0  0  0  0  0  0  0
    2.5878   -3.5661    0.0000 C   0  0  0  0  0  0  0  0  0  0  0  0
    3.9890   -4.5842    0.0000 C   0  0  0  0  0  0  0  0  0  0  0  0
    7.3859   -4.2934    0.0000 C   0  0  0  0  0  0  0  0  0  0  0  0
    6.7473   -0.6297    0.0000 C   0  0  0  0  0  0  0  0  0  0  0  0
    8.4793   -0.6297    0.0000 C   0  0  0  0  0  0  0  0  0  0  0  0
    2.0000   -4.3751    0.0000 C   0  0  0  0  0  0  0  0  0  0  0  0
    3.4013   -5.3932    0.0000 C   0  0  0  0  0  0  0  0  0  0  0  0
    7.6133    0.8703    0.0000 C   0  0  0  0  0  0  0  0  0  0  0  0
    2.4067   -5.2887    0.0000 C   0  0  0  0  0  0  0  0  0  0  0  0
    6.7473    0.3703    0.0000 C   0  0  0  0  0  0  0  0  0  0  0  0
    8.4793    0.3703    0.0000 C   0  0  0  0  0  0  0  0  0  0  0  0
    3.7634   -1.9481    0.0000 C   0  0  0  0  0  0  0  0  0  0  0  0
    8.3370   -3.9844    0.0000 C   0  0  0  0  0  0  0  0  0  0  0  0
    7.1780   -5.2716    0.0000 C   0  0  0  0  0  0  0  0  0  0  0  0
    7.6133    1.8702    0.0000 C   0  0  0  0  0  0  0  0  0  0  0  0
    9.0801   -4.6535    0.0000 C   0  0  0  0  0  0  0  0  0  0  0  0
    7.9211   -5.9407    0.0000 C   0  0  0  0  0  0  0  0  0  0  0  0
    8.4223    2.4580    0.0000 C   0  0  0  0  0  0  0  0  0  0  0  0
    8.8722   -5.6317    0.0000 C   0  0  0  0  0  0  0  0  0  0  0  0
    8.1133    3.4091    0.0000 C   0  0  0  0  0  0  0  0  0  0  0  0
    5.8532    2.1490    0.0000 C   0  0  0  0  0  0  0  0  0  0  0  0
    8.7011    4.2181    0.0000 C   0  0  0  0  0  0  0  0  0  0  0  0
    5.1101    2.8182    0.0000 C   0  0  0  0  0  0  0  0  0  0  0  0
    8.2944    5.1317    0.0000 C   0  0  0  0  0  0  0  0  0  0  0  0
    9.6956    4.1136    0.0000 C   0  0  0  0  0  0  0  0  0  0  0  0
    8.8822    5.9407    0.0000 C   0  0  0  0  0  0  0  0  0  0  0  0
   10.2834    4.9226    0.0000 C   0  0  0  0  0  0  0  0  0  0  0  0
    9.8767    5.8362    0.0000 C   0  0  0  0  0  0  0  0  0  0  0  0
    7.2673   -2.9674    0.0000 H   0  0  0  0  0  0  0  0  0  0  0  0
    7.2216   -3.4021    0.0000 H   0  0  0  0  0  0  0  0  0  0  0  0
    6.1437   -1.6861    0.0000 H   0  0  0  0  0  0  0  0  0  0  0  0
    5.3322   -1.8586    0.0000 H   0  0  0  0  0  0  0  0  0  0  0  0
    5.0982   -4.0844    0.0000 H   0  0  0  0  0  0  0  0  0  0  0  0
    5.8562   -4.4218    0.0000 H   0  0  0  0  0  0  0  0  0  0  0  0
    4.5345   -2.3600    0.0000 H   0  0  0  0  0  0  0  0  0  0  0  0
    3.3301   -3.1042    0.0000 H   0  0  0  0  0  0  0  0  0  0  0  0
    7.8254   -2.7123    0.0000 H   0  0  0  0  0  0  0  0  0  0  0  0
    8.2239   -2.0221    0.0000 H   0  0  0  0  0  0  0  0  0  0  0  0
    2.7587   -2.9701    0.0000 H   0  0  0  0  0  0  0  0  0  0  0  0
    2.0305   -3.2943    0.0000 H   0  0  0  0  0  0  0  0  0  0  0  0
    4.4197   -5.0302    0.0000 H   0  0  0  0  0  0  0  0  0  0  0  0
    4.5030   -4.2375    0.0000 H   0  0  0  0  0  0  0  0  0  0  0  0
    6.1367   -0.5221    0.0000 H   0  0  0  0  0  0  0  0  0  0  0  0
    6.5352   -1.2124    0.0000 H   0  0  0  0  0  0  0  0  0  0  0  0
    8.6914   -1.2124    0.0000 H   0  0  0  0  0  0  0  0  0  0  0  0
    9.0899   -0.5221    0.0000 H   0  0  0  0  0  0  0  0  0  0  0  0
    1.5693   -3.9291    0.0000 H   0  0  0  0  0  0  0  0  0  0  0  0
    1.4860   -4.7218    0.0000 H   0  0  0  0  0  0  0  0  0  0  0  0
    3.2304   -5.9892    0.0000 H   0  0  0  0  0  0  0  0  0  0  0  0
    3.9585   -5.6650    0.0000 H   0  0  0  0  0  0  0  0  0  0  0  0
    7.0764    1.1802    0.0000 H   0  0  0  0  0  0  0  0  0  0  0  0
    1.8052   -5.4387    0.0000 H   0  0  0  0  0  0  0  0  0  0  0  0
    2.4500   -5.9072    0.0000 H   0  0  0  0  0  0  0  0  0  0  0  0
    6.5352    0.9529    0.0000 H   0  0  0  0  0  0  0  0  0  0  0  0
    6.1367    0.2626    0.0000 H   0  0  0  0  0  0  0  0  0  0  0  0
    9.0899    0.2626    0.0000 H   0  0  0  0  0  0  0  0  0  0  0  0
    8.6914    0.9529    0.0000 H   0  0  0  0  0  0  0  0  0  0  0  0
    8.4659   -3.3779    0.0000 H   0  0  0  0  0  0  0  0  0  0  0  0
    6.5883   -5.4631    0.0000 H   0  0  0  0  0  0  0  0  0  0  0  0
    9.6698   -4.4619    0.0000 H   0  0  0  0  0  0  0  0  0  0  0  0
    7.7922   -6.5471    0.0000 H   0  0  0  0  0  0  0  0  0  0  0  0
    2.5167   -1.2772    0.0000 H   0  0  0  0  0  0  0  0  0  0  0  0
    9.0120    2.2664    0.0000 H   0  0  0  0  0  0  0  0  0  0  0  0
    9.3330   -6.0465    0.0000 H   0  0  0  0  0  0  0  0  0  0  0  0
    5.3647    1.7673    0.0000 H   0  0  0  0  0  0  0  0  0  0  0  0
    6.1443    1.6016    0.0000 H   0  0  0  0  0  0  0  0  0  0  0  0
    5.5250    3.2789    0.0000 H   0  0  0  0  0  0  0  0  0  0  0  0
    4.6494    3.2330    0.0000 H   0  0  0  0  0  0  0  0  0  0  0  0
    4.6952    2.3574    0.0000 H   0  0  0  0  0  0  0  0  0  0  0  0
    7.6778    5.1965    0.0000 H   0  0  0  0  0  0  0  0  0  0  0  0
    9.9478    3.5472    0.0000 H   0  0  0  0  0  0  0  0  0  0  0  0
    8.6300    6.5071    0.0000 H   0  0  0  0  0  0  0  0  0  0  0  0
   10.9000    4.8578    0.0000 H   0  0  0  0  0  0  0  0  0  0  0  0
   10.2411    6.3377    0.0000 H   0  0  0  0  0  0  0  0  0  0  0  0
  1 25  1  0  0  0  0
  1 75  1  0  0  0  0
  2 25  2  0  0  0  0
  3  9  1  0  0  0  0
  3 10  1  0  0  0  0
  3 11  1  0  0  0  0
  4 13  1  0  0  0  0
  4 17  1  0  0  0  0
  4 18  1  0  0  0  0
  5  6  1  0  0  0  0
  5 28  1  0  0  0  0
  5 34  1  0  0  0  0
  6 33  2  0  0  0  0
  7  8  1  0  0  0  0
  7  9  1  0  0  0  0
  7 13  1  6  0  0  0
  7 42  1  0  0  0  0
  8 10  1  0  0  0  0
  8 16  1  1  0  0  0
  8 43  1  0  0  0  0
  9 44  1  0  0  0  0
  9 45  1  0  0  0  0
 10 46  1  0  0  0  0
 10 47  1  0  0  0  0
 11 12  1  0  0  0  0
 11 25  1  6  0  0  0
 11 48  1  0  0  0  0
 12 14  1  0  0  0  0
 12 15  1  0  0  0  0
 12 49  1  0  0  0  0
 13 50  1  0  0  0  0
 13 51  1  0  0  0  0
 14 19  1  0  0  0  0
 14 52  1  0  0  0  0
 14 53  1  0  0  0  0
 15 20  1  0  0  0  0
 15 54  1  0  0  0  0
 15 55  1  0  0  0  0
 16 26  2  0  0  0  0
 16 27  1  0  0  0  0
 17 23  1  0  0  0  0
 17 56  1  0  0  0  0
 17 57  1  0  0  0  0
 18 24  1  0  0  0  0
 18 58  1  0  0  0  0
 18 59  1  0  0  0  0
 19 22  1  0  0  0  0
 19 60  1  0  0  0  0
 19 61  1  0  0  0  0
 20 22  1  0  0  0  0
 20 62  1  0  0  0  0
 20 63  1  0  0  0  0
 21 23  1  0  0  0  0
 21 24  1  0  0  0  0
 21 28  1  0  0  0  0
 21 64  1  0  0  0  0
 22 65  1  0  0  0  0
 22 66  1  0  0  0  0
 23 67  1  0  0  0  0
 23 68  1  0  0  0  0
 24 69  1  0  0  0  0
 24 70  1  0  0  0  0
 26 29  1  0  0  0  0
 26 71  1  0  0  0  0
 27 30  2  0  0  0  0
 27 72  1  0  0  0  0
 28 31  2  0  0  0  0
 29 32  2  0  0  0  0
 29 73  1  0  0  0  0
 30 32  1  0  0  0  0
 30 74  1  0  0  0  0
 31 33  1  0  0  0  0
 31 76  1  0  0  0  0
 32 77  1  0  0  0  0
 33 35  1  0  0  0  0
 34 36  1  0  0  0  0
 34 78  1  0  0  0  0
 34 79  1  0  0  0  0
 35 37  2  0  0  0  0
 35 38  1  0  0  0  0
 36 80  1  0  0  0  0
 36 81  1  0  0  0  0
 36 82  1  0  0  0  0
 37 39  1  0  0  0  0
 37 83  1  0  0  0  0
 38 40  2  0  0  0  0
 38 84  1  0  0  0  0
 39 41  2  0  0  0  0
 39 85  1  0  0  0  0
 40 41  1  0  0  0  0
 40 86  1  0  0  0  0
 41 87  1  0  0  0  0
M  END
> <PUBCHEM_COMPOUND_CID>
516344
> <PUBCHEM_COMPOUND_CANONICALIZED>
1
> <PUBCHEM_CACTVS_COMPLEXITY>
813
> <PUBCHEM_CACTVS_HBOND_ACCEPTOR>
5
> <PUBCHEM_CACTVS_HBOND_DONOR>
1
> <PUBCHEM_CACTVS_ROTATABLE_BOND>
9
> <PUBCHEM_CACTVS_SUBSKEYS>
AAADcfB/sAAAAAAAAAAAAAAAAAAAAWLAAAA8YMEAAAAAAAAB0AAAHgAICAAADSjBngQyiJMIAgCqAyTyTACSBAAhggAY2CG4ZJgKILLA0fGE5AhkiADYyAeYyOCOgAAAAAAAAAAAAAAAAAAAAAAAAAAAAA==
> <PUBCHEM_IUPAC_OPENEYE_NAME>
(2R)-2-cyclohexyl-2-[(3S,4S)-3-[[4-(2-ethyl-5-phenyl-pyrazol-3-yl)-1-piperidyl]methyl]-4-phenyl-pyrrolidin-1-yl]acetic acid
> <PUBCHEM_IUPAC_CAS_NAME>
(2R)-2-cyclohexyl-2-[(3S,4S)-3-[[4-(2-ethyl-5-phenyl-3-pyrazolyl)-1-piperidinyl]methyl]-4-phenyl-1-pyrrolidinyl]acetic acid
> <PUBCHEM_IUPAC_NAME_MARKUP>
(2<I>R</I>)-2-cyclohexyl-2-[(3<I>S</I>,4<I>S</I>)-3-[[4-(2-ethyl-5-phenylpyrazol-3-yl)piperidin-1-yl]methyl]-4-phenylpyrrolidin-1-yl]acetic acid
> <PUBCHEM_IUPAC_NAME>
(2R)-2-cyclohexyl-2-[(3S,4S)-3-[[4-(2-ethyl-5-phenylpyrazol-3-yl)piperidin-1-yl]methyl]-4-phenylpyrrolidin-1-yl]acetic acid
> <PUBCHEM_IUPAC_SYSTEMATIC_NAME>
(2R)-2-cyclohexyl-2-[(3S,4S)-3-[[4-(2-ethyl-5-phenyl-pyrazol-3-yl)piperidin-1-yl]methyl]-4-phenyl-pyrrolidin-1-yl]ethanoic acid
> <PUBCHEM_IUPAC_TRADITIONAL_NAME>
(2R)-2-cyclohexyl-2-[(3S,4S)-3-[[4-(2-ethyl-5-phenyl-pyrazol-3-yl)piperidino]methyl]-4-phenyl-pyrrolidino]acetic acid
> <PUBCHEM_IUPAC_INCHI>
InChI=1S/C35H46N4O2/c1-2-39-33(22-32(36-39)27-14-8-4-9-15-27)28-18-20-37(21-19-28)23-30-24-38(25-31(30)26-12-6-3-7-13-26)34(35(40)41)29-16-10-5-11-17-29/h3-4,6-9,12-15,22,28-31,34H,2,5,10-11,16-21,23-25H2,1H3,(H,40,41)/t30-,31+,34+/m0/s1
> <PUBCHEM_IUPAC_INCHIKEY>
KJLMBMNGYISETQ-BEJSXWRTSA-N
> <PUBCHEM_XLOGP3_AA>
4.3
> <PUBCHEM_EXACT_MASS>
554.36207672
> <PUBCHEM_MOLECULAR_FORMULA>
C35H46N4O2
> <PUBCHEM_MOLECULAR_WEIGHT>
554.8
> <PUBCHEM_OPENEYE_CAN_SMILES>
CCN1C(=CC(=N1)C2=CC=CC=C2)C3CCN(CC3)CC4CN(CC4C5=CC=CC=C5)C(C6CCCCC6)C(=O)O
> <PUBCHEM_OPENEYE_ISO_SMILES>
CCN1C(=CC(=N1)C2=CC=CC=C2)C3CCN(CC3)C[C@H]4CN(C[C@@H]4C5=CC=CC=C5)[C@H](C6CCCCC6)C(=O)O
> <PUBCHEM_CACTVS_TPSA>
61.6
> <PUBCHEM_MONOISOTOPIC_WEIGHT>
554.36207672
> <PUBCHEM_TOTAL_CHARGE>
0
> <PUBCHEM_HEAVY_ATOM_COUNT>
41
> <PUBCHEM_ATOM_DEF_STEREO_COUNT>
3
> <PUBCHEM_ATOM_UDEF_STEREO_COUNT>
0
> <PUBCHEM_BOND_DEF_STEREO_COUNT>
0
> <PUBCHEM_BOND_UDEF_STEREO_COUNT>
0
> <PUBCHEM_ISOTOPIC_ATOM_COUNT>
0
> <PUBCHEM_COMPONENT_COUNT>
1
> <PUBCHEM_CACTVS_TAUTO_COUNT>
-1
> <PUBCHEM_COORDINATE_TYPE>
1
5
255
> <PUBCHEM_BONDANNOTATIONS>
11  25  6
16  26  8
16  27  8
26  29  8
27  30  8
28  31  8
29  32  8
30  32  8
31  33  8
35  37  8
35  38  8
37  39  8
38  40  8
39  41  8
40  41  8
5  28  8
5  6  8
6  33  8
7  13  6
8  16  5
$$$$
