516314
  -OEChem-10302200282D
100106  0     1  0  0  0  0  0999 V2000
    7.7132   -8.3091    0.0000 F   0  0  0  0  0  0  0  0  0  0  0  0
    2.7688   -3.2338    0.0000 O   0  0  0  0  0  0  0  0  0  0  0  0
    4.3511   -2.5293    0.0000 O   0  0  0  0  0  0  0  0  0  0  0  0
    5.1646   -4.3564    0.0000 N   0  0  3  0  0  0  0  0  0  0  0  0
    7.6133   -2.5200    0.0000 N   0  0  0  0  0  0  0  0  0  0  0  0
    6.8043    1.0678    0.0000 N   0  0  0  0  0  0  0  0  0  0  0  0
    7.1133    2.0188    0.0000 N   0  0  0  0  0  0  0  0  0  0  0  0
    6.7473   -4.0200    0.0000 C   0  0  2  0  0  0  0  0  0  0  0  0
    6.6428   -5.0146    0.0000 C   0  0  2  0  0  0  0  0  0  0  0  0
    5.8338   -3.6133    0.0000 C   0  0  0  0  0  0  0  0  0  0  0  0
    5.6646   -5.2225    0.0000 C   0  0  0  0  0  0  0  0  0  0  0  0
    4.1701   -4.2519    0.0000 C   0  0  2  0  0  0  0  0  0  0  0  0
    3.5823   -5.0609    0.0000 C   0  0  0  0  0  0  0  0  0  0  0  0
    7.6133   -3.5200    0.0000 C   0  0  0  0  0  0  0  0  0  0  0  0
    2.5878   -4.9564    0.0000 C   0  0  0  0  0  0  0  0  0  0  0  0
    3.9890   -5.9745    0.0000 C   0  0  0  0  0  0  0  0  0  0  0  0
    7.3859   -5.6837    0.0000 C   0  0  0  0  0  0  0  0  0  0  0  0
    6.7473   -2.0200    0.0000 C   0  0  0  0  0  0  0  0  0  0  0  0
    8.4793   -2.0200    0.0000 C   0  0  0  0  0  0  0  0  0  0  0  0
    2.0000   -5.7654    0.0000 C   0  0  0  0  0  0  0  0  0  0  0  0
    3.4013   -6.7835    0.0000 C   0  0  0  0  0  0  0  0  0  0  0  0
    7.6133   -0.5200    0.0000 C   0  0  0  0  0  0  0  0  0  0  0  0
    2.4067   -6.6790    0.0000 C   0  0  0  0  0  0  0  0  0  0  0  0
    6.7473   -1.0200    0.0000 C   0  0  0  0  0  0  0  0  0  0  0  0
    8.4793   -1.0200    0.0000 C   0  0  0  0  0  0  0  0  0  0  0  0
    3.7634   -3.3384    0.0000 C   0  0  0  0  0  0  0  0  0  0  0  0
    7.1780   -6.6618    0.0000 C   0  0  0  0  0  0  0  0  0  0  0  0
    8.3370   -5.3747    0.0000 C   0  0  0  0  0  0  0  0  0  0  0  0
    7.6133    0.4800    0.0000 C   0  0  0  0  0  0  0  0  0  0  0  0
    7.9211   -7.3310    0.0000 C   0  0  0  0  0  0  0  0  0  0  0  0
    9.0801   -6.0438    0.0000 C   0  0  0  0  0  0  0  0  0  0  0  0
    8.4223    1.0678    0.0000 C   0  0  0  0  0  0  0  0  0  0  0  0
    8.8722   -7.0219    0.0000 C   0  0  0  0  0  0  0  0  0  0  0  0
    8.1133    2.0188    0.0000 C   0  0  0  0  0  0  0  0  0  0  0  0
    5.8532    0.7587    0.0000 C   0  0  0  0  0  0  0  0  0  0  0  0
    8.7011    2.8278    0.0000 C   0  0  0  0  0  0  0  0  0  0  0  0
    5.1101    1.4279    0.0000 C   0  0  0  0  0  0  0  0  0  0  0  0
    8.2944    3.7414    0.0000 C   0  0  0  0  0  0  0  0  0  0  0  0
    8.8822    4.5504    0.0000 C   0  0  0  0  0  0  0  0  0  0  0  0
    7.2998    3.8459    0.0000 C   0  0  0  0  0  0  0  0  0  0  0  0
    8.4754    5.4639    0.0000 C   0  0  0  0  0  0  0  0  0  0  0  0
    6.8931    4.7594    0.0000 C   0  0  0  0  0  0  0  0  0  0  0  0
    7.4809    5.5685    0.0000 C   0  0  0  0  0  0  0  0  0  0  0  0
    7.0742    6.4820    0.0000 C   0  0  0  0  0  0  0  0  0  0  0  0
    6.0796    6.5865    0.0000 C   0  0  0  0  0  0  0  0  0  0  0  0
    7.6619    7.2910    0.0000 C   0  0  0  0  0  0  0  0  0  0  0  0
    5.6729    7.5001    0.0000 C   0  0  0  0  0  0  0  0  0  0  0  0
    7.2552    8.2046    0.0000 C   0  0  0  0  0  0  0  0  0  0  0  0
    6.2607    8.3091    0.0000 C   0  0  0  0  0  0  0  0  0  0  0  0
    7.2673   -4.3577    0.0000 H   0  0  0  0  0  0  0  0  0  0  0  0
    7.2216   -4.7924    0.0000 H   0  0  0  0  0  0  0  0  0  0  0  0
    6.1437   -3.0764    0.0000 H   0  0  0  0  0  0  0  0  0  0  0  0
    5.3322   -3.2489    0.0000 H   0  0  0  0  0  0  0  0  0  0  0  0
    5.0982   -5.4746    0.0000 H   0  0  0  0  0  0  0  0  0  0  0  0
    5.8562   -5.8121    0.0000 H   0  0  0  0  0  0  0  0  0  0  0  0
    4.5345   -3.7503    0.0000 H   0  0  0  0  0  0  0  0  0  0  0  0
    3.3301   -4.4945    0.0000 H   0  0  0  0  0  0  0  0  0  0  0  0
    7.8254   -4.1026    0.0000 H   0  0  0  0  0  0  0  0  0  0  0  0
    8.2239   -3.4124    0.0000 H   0  0  0  0  0  0  0  0  0  0  0  0
    2.7587   -4.3604    0.0000 H   0  0  0  0  0  0  0  0  0  0  0  0
    2.0305   -4.6846    0.0000 H   0  0  0  0  0  0  0  0  0  0  0  0
    4.4197   -6.4205    0.0000 H   0  0  0  0  0  0  0  0  0  0  0  0
    4.5030   -5.6278    0.0000 H   0  0  0  0  0  0  0  0  0  0  0  0
    6.1367   -1.9124    0.0000 H   0  0  0  0  0  0  0  0  0  0  0  0
    6.5352   -2.6026    0.0000 H   0  0  0  0  0  0  0  0  0  0  0  0
    8.6914   -2.6026    0.0000 H   0  0  0  0  0  0  0  0  0  0  0  0
    9.0899   -1.9124    0.0000 H   0  0  0  0  0  0  0  0  0  0  0  0
    1.5693   -5.3194    0.0000 H   0  0  0  0  0  0  0  0  0  0  0  0
    1.4860   -6.1121    0.0000 H   0  0  0  0  0  0  0  0  0  0  0  0
    3.2304   -7.3795    0.0000 H   0  0  0  0  0  0  0  0  0  0  0  0
    3.9585   -7.0553    0.0000 H   0  0  0  0  0  0  0  0  0  0  0  0
    7.0764   -0.2100    0.0000 H   0  0  0  0  0  0  0  0  0  0  0  0
    1.8052   -6.8290    0.0000 H   0  0  0  0  0  0  0  0  0  0  0  0
    2.4500   -7.2974    0.0000 H   0  0  0  0  0  0  0  0  0  0  0  0
    6.5352   -0.4374    0.0000 H   0  0  0  0  0  0  0  0  0  0  0  0
    6.1367   -1.1277    0.0000 H   0  0  0  0  0  0  0  0  0  0  0  0
    9.0899   -1.1277    0.0000 H   0  0  0  0  0  0  0  0  0  0  0  0
    8.6914   -0.4374    0.0000 H   0  0  0  0  0  0  0  0  0  0  0  0
    6.5883   -6.8534    0.0000 H   0  0  0  0  0  0  0  0  0  0  0  0
    8.4659   -4.7682    0.0000 H   0  0  0  0  0  0  0  0  0  0  0  0
    9.6698   -5.8522    0.0000 H   0  0  0  0  0  0  0  0  0  0  0  0
    2.5167   -2.6674    0.0000 H   0  0  0  0  0  0  0  0  0  0  0  0
    9.0120    0.8762    0.0000 H   0  0  0  0  0  0  0  0  0  0  0  0
    9.3330   -7.4368    0.0000 H   0  0  0  0  0  0  0  0  0  0  0  0
    5.3647    0.3770    0.0000 H   0  0  0  0  0  0  0  0  0  0  0  0
    6.1443    0.2113    0.0000 H   0  0  0  0  0  0  0  0  0  0  0  0
    9.1318    2.3818    0.0000 H   0  0  0  0  0  0  0  0  0  0  0  0
    9.2151    3.1745    0.0000 H   0  0  0  0  0  0  0  0  0  0  0  0
    5.5250    1.8886    0.0000 H   0  0  0  0  0  0  0  0  0  0  0  0
    4.6494    1.8427    0.0000 H   0  0  0  0  0  0  0  0  0  0  0  0
    4.6952    0.9671    0.0000 H   0  0  0  0  0  0  0  0  0  0  0  0
    9.4988    4.4856    0.0000 H   0  0  0  0  0  0  0  0  0  0  0  0
    6.9354    3.3443    0.0000 H   0  0  0  0  0  0  0  0  0  0  0  0
    8.8398    5.9655    0.0000 H   0  0  0  0  0  0  0  0  0  0  0  0
    6.2765    4.8243    0.0000 H   0  0  0  0  0  0  0  0  0  0  0  0
    5.7152    6.0850    0.0000 H   0  0  0  0  0  0  0  0  0  0  0  0
    8.2785    7.2262    0.0000 H   0  0  0  0  0  0  0  0  0  0  0  0
    5.0563    7.5649    0.0000 H   0  0  0  0  0  0  0  0  0  0  0  0
    7.6196    8.7062    0.0000 H   0  0  0  0  0  0  0  0  0  0  0  0
    6.0085    8.8755    0.0000 H   0  0  0  0  0  0  0  0  0  0  0  0
  1 30  1  0  0  0  0
  2 26  1  0  0  0  0
  2 82  1  0  0  0  0
  3 26  2  0  0  0  0
  4 10  1  0  0  0  0
  4 11  1  0  0  0  0
  4 12  1  0  0  0  0
  5 14  1  0  0  0  0
  5 18  1  0  0  0  0
  5 19  1  0  0  0  0
  6  7  1  0  0  0  0
  6 29  1  0  0  0  0
  6 35  1  0  0  0  0
  7 34  2  0  0  0  0
  8  9  1  0  0  0  0
  8 10  1  0  0  0  0
  8 14  1  6  0  0  0
  8 50  1  0  0  0  0
  9 11  1  0  0  0  0
  9 17  1  1  0  0  0
  9 51  1  0  0  0  0
 10 52  1  0  0  0  0
 10 53  1  0  0  0  0
 11 54  1  0  0  0  0
 11 55  1  0  0  0  0
 12 13  1  0  0  0  0
 12 26  1  6  0  0  0
 12 56  1  0  0  0  0
 13 15  1  0  0  0  0
 13 16  1  0  0  0  0
 13 57  1  0  0  0  0
 14 58  1  0  0  0  0
 14 59  1  0  0  0  0
 15 20  1  0  0  0  0
 15 60  1  0  0  0  0
 15 61  1  0  0  0  0
 16 21  1  0  0  0  0
 16 62  1  0  0  0  0
 16 63  1  0  0  0  0
 17 27  2  0  0  0  0
 17 28  1  0  0  0  0
 18 24  1  0  0  0  0
 18 64  1  0  0  0  0
 18 65  1  0  0  0  0
 19 25  1  0  0  0  0
 19 66  1  0  0  0  0
 19 67  1  0  0  0  0
 20 23  1  0  0  0  0
 20 68  1  0  0  0  0
 20 69  1  0  0  0  0
 21 23  1  0  0  0  0
 21 70  1  0  0  0  0
 21 71  1  0  0  0  0
 22 24  1  0  0  0  0
 22 25  1  0  0  0  0
 22 29  1  0  0  0  0
 22 72  1  0  0  0  0
 23 73  1  0  0  0  0
 23 74  1  0  0  0  0
 24 75  1  0  0  0  0
 24 76  1  0  0  0  0
 25 77  1  0  0  0  0
 25 78  1  0  0  0  0
 27 30  1  0  0  0  0
 27 79  1  0  0  0  0
 28 31  2  0  0  0  0
 28 80  1  0  0  0  0
 29 32  2  0  0  0  0
 30 33  2  0  0  0  0
 31 33  1  0  0  0  0
 31 81  1  0  0  0  0
 32 34  1  0  0  0  0
 32 83  1  0  0  0  0
 33 84  1  0  0  0  0
 34 36  1  0  0  0  0
 35 37  1  0  0  0  0
 35 85  1  0  0  0  0
 35 86  1  0  0  0  0
 36 38  1  0  0  0  0
 36 87  1  0  0  0  0
 36 88  1  0  0  0  0
 37 89  1  0  0  0  0
 37 90  1  0  0  0  0
 37 91  1  0  0  0  0
 38 39  2  0  0  0  0
 38 40  1  0  0  0  0
 39 41  1  0  0  0  0
 39 92  1  0  0  0  0
 40 42  2  0  0  0  0
 40 93  1  0  0  0  0
 41 43  2  0  0  0  0
 41 94  1  0  0  0  0
 42 43  1  0  0  0  0
 42 95  1  0  0  0  0
 43 44  1  0  0  0  0
 44 45  2  0  0  0  0
 44 46  1  0  0  0  0
 45 47  1  0  0  0  0
 45 96  1  0  0  0  0
 46 48  2  0  0  0  0
 46 97  1  0  0  0  0
 47 49  2  0  0  0  0
 47 98  1  0  0  0  0
 48 49  1  0  0  0  0
 48 99  1  0  0  0  0
 49100  1  0  0  0  0
M  END
> <PUBCHEM_COMPOUND_CID>
516314
> <PUBCHEM_COMPOUND_CANONICALIZED>
1
> <PUBCHEM_CACTVS_COMPLEXITY>
1020
> <PUBCHEM_CACTVS_HBOND_ACCEPTOR>
6
> <PUBCHEM_CACTVS_HBOND_DONOR>
1
> <PUBCHEM_CACTVS_ROTATABLE_BOND>
11
> <PUBCHEM_CACTVS_SUBSKEYS>
AAADcfB/sQAAAAAAAAAAAAAAAAAAAWLAAAA8YMGCAAAAAAAB1AAAHwAICAAADSjBngwyiJMIAgCqAyTyTACSBAAhggAY2CG4ZJgKIDLA0fGE5AhkiADYyAeYyOCOwAAAAAAAAACAAAAAAAAAAAAAAAAAAA==
> <PUBCHEM_IUPAC_OPENEYE_NAME>
(2R)-2-cyclohexyl-2-[(3S,4S)-3-[[4-[2-ethyl-5-[(4-phenylphenyl)methyl]pyrazol-3-yl]-1-piperidyl]methyl]-4-(3-fluorophenyl)pyrrolidin-1-yl]acetic acid
> <PUBCHEM_IUPAC_CAS_NAME>
(2R)-2-cyclohexyl-2-[(3S,4S)-3-[[4-[2-ethyl-5-[(4-phenylphenyl)methyl]-3-pyrazolyl]-1-piperidinyl]methyl]-4-(3-fluorophenyl)-1-pyrrolidinyl]acetic acid
> <PUBCHEM_IUPAC_NAME_MARKUP>
(2<I>R</I>)-2-cyclohexyl-2-[(3<I>S</I>,4<I>S</I>)-3-[[4-[2-ethyl-5-[(4-phenylphenyl)methyl]pyrazol-3-yl]piperidin-1-yl]methyl]-4-(3-fluorophenyl)pyrrolidin-1-yl]acetic acid
> <PUBCHEM_IUPAC_NAME>
(2R)-2-cyclohexyl-2-[(3S,4S)-3-[[4-[2-ethyl-5-[(4-phenylphenyl)methyl]pyrazol-3-yl]piperidin-1-yl]methyl]-4-(3-fluorophenyl)pyrrolidin-1-yl]acetic acid
> <PUBCHEM_IUPAC_SYSTEMATIC_NAME>
(2R)-2-cyclohexyl-2-[(3S,4S)-3-[[4-[2-ethyl-5-[(4-phenylphenyl)methyl]pyrazol-3-yl]piperidin-1-yl]methyl]-4-(3-fluorophenyl)pyrrolidin-1-yl]ethanoic acid
> <PUBCHEM_IUPAC_TRADITIONAL_NAME>
(2R)-2-cyclohexyl-2-[(3S,4S)-3-[[4-[2-ethyl-5-(4-phenylbenzyl)pyrazol-3-yl]piperidino]methyl]-4-(3-fluorophenyl)pyrrolidino]acetic acid
> <PUBCHEM_IUPAC_INCHI>
InChI=1S/C42H51FN4O2/c1-2-47-40(26-38(44-47)24-30-16-18-32(19-17-30)31-10-5-3-6-11-31)33-20-22-45(23-21-33)27-36-28-46(29-39(36)35-14-9-15-37(43)25-35)41(42(48)49)34-12-7-4-8-13-34/h3,5-6,9-11,14-19,25-26,33-34,36,39,41H,2,4,7-8,12-13,20-24,27-29H2,1H3,(H,48,49)/t36-,39+,41+/m0/s1
> <PUBCHEM_IUPAC_INCHIKEY>
SXKNFGNGCSTXQU-HBBZNRFGSA-N
> <PUBCHEM_XLOGP3_AA>
6.4
> <PUBCHEM_EXACT_MASS>
662.39960504
> <PUBCHEM_MOLECULAR_FORMULA>
C42H51FN4O2
> <PUBCHEM_MOLECULAR_WEIGHT>
662.9
> <PUBCHEM_OPENEYE_CAN_SMILES>
CCN1C(=CC(=N1)CC2=CC=C(C=C2)C3=CC=CC=C3)C4CCN(CC4)CC5CN(CC5C6=CC(=CC=C6)F)C(C7CCCCC7)C(=O)O
> <PUBCHEM_OPENEYE_ISO_SMILES>
CCN1C(=CC(=N1)CC2=CC=C(C=C2)C3=CC=CC=C3)C4CCN(CC4)C[C@H]5CN(C[C@@H]5C6=CC(=CC=C6)F)[C@H](C7CCCCC7)C(=O)O
> <PUBCHEM_CACTVS_TPSA>
61.6
> <PUBCHEM_MONOISOTOPIC_WEIGHT>
662.39960504
> <PUBCHEM_TOTAL_CHARGE>
0
> <PUBCHEM_HEAVY_ATOM_COUNT>
49
> <PUBCHEM_ATOM_DEF_STEREO_COUNT>
3
> <PUBCHEM_ATOM_UDEF_STEREO_COUNT>
0
> <PUBCHEM_BOND_DEF_STEREO_COUNT>
0
> <PUBCHEM_BOND_UDEF_STEREO_COUNT>
0
> <PUBCHEM_ISOTOPIC_ATOM_COUNT>
0
> <PUBCHEM_COMPONENT_COUNT>
1
> <PUBCHEM_CACTVS_TAUTO_COUNT>
-1
> <PUBCHEM_COORDINATE_TYPE>
1
5
255
> <PUBCHEM_BONDANNOTATIONS>
12  26  6
17  27  8
17  28  8
27  30  8
28  31  8
29  32  8
30  33  8
31  33  8
32  34  8
38  39  8
38  40  8
39  41  8
40  42  8
41  43  8
42  43  8
44  45  8
44  46  8
45  47  8
46  48  8
47  49  8
48  49  8
6  29  8
6  7  8
7  34  8
8  14  6
9  17  5
$$$$
