516308
  -OEChem-10302200282D
100105  0     1  0  0  0  0  0999 V2000
    7.7132   -8.6614    0.0000 F   0  0  0  0  0  0  0  0  0  0  0  0
    2.7688   -3.5861    0.0000 O   0  0  0  0  0  0  0  0  0  0  0  0
    4.3511   -2.8816    0.0000 O   0  0  0  0  0  0  0  0  0  0  0  0
    7.0742    6.1298    0.0000 O   0  0  0  0  0  0  0  0  0  0  0  0
    5.1646   -4.7087    0.0000 N   0  0  3  0  0  0  0  0  0  0  0  0
    7.6133   -2.8723    0.0000 N   0  0  0  0  0  0  0  0  0  0  0  0
    6.8043    0.7155    0.0000 N   0  0  0  0  0  0  0  0  0  0  0  0
    7.1133    1.6666    0.0000 N   0  0  0  0  0  0  0  0  0  0  0  0
    6.7473   -4.3723    0.0000 C   0  0  2  0  0  0  0  0  0  0  0  0
    6.6428   -5.3668    0.0000 C   0  0  2  0  0  0  0  0  0  0  0  0
    5.8338   -3.9655    0.0000 C   0  0  0  0  0  0  0  0  0  0  0  0
    5.6646   -5.5747    0.0000 C   0  0  0  0  0  0  0  0  0  0  0  0
    4.1701   -4.6042    0.0000 C   0  0  2  0  0  0  0  0  0  0  0  0
    3.5823   -5.4132    0.0000 C   0  0  0  0  0  0  0  0  0  0  0  0
    7.6133   -3.8723    0.0000 C   0  0  0  0  0  0  0  0  0  0  0  0
    2.5878   -5.3086    0.0000 C   0  0  0  0  0  0  0  0  0  0  0  0
    3.9890   -6.3267    0.0000 C   0  0  0  0  0  0  0  0  0  0  0  0
    7.3859   -6.0359    0.0000 C   0  0  0  0  0  0  0  0  0  0  0  0
    2.0000   -6.1177    0.0000 C   0  0  0  0  0  0  0  0  0  0  0  0
    3.4013   -7.1357    0.0000 C   0  0  0  0  0  0  0  0  0  0  0  0
    6.7473   -2.3723    0.0000 C   0  0  0  0  0  0  0  0  0  0  0  0
    8.4793   -2.3723    0.0000 C   0  0  0  0  0  0  0  0  0  0  0  0
    7.6133   -0.8723    0.0000 C   0  0  0  0  0  0  0  0  0  0  0  0
    2.4067   -7.0312    0.0000 C   0  0  0  0  0  0  0  0  0  0  0  0
    6.7473   -1.3723    0.0000 C   0  0  0  0  0  0  0  0  0  0  0  0
    8.4793   -1.3723    0.0000 C   0  0  0  0  0  0  0  0  0  0  0  0
    3.7634   -3.6906    0.0000 C   0  0  0  0  0  0  0  0  0  0  0  0
    7.1780   -7.0141    0.0000 C   0  0  0  0  0  0  0  0  0  0  0  0
    8.3370   -5.7269    0.0000 C   0  0  0  0  0  0  0  0  0  0  0  0
    7.6133    0.1277    0.0000 C   0  0  0  0  0  0  0  0  0  0  0  0
    7.9211   -7.6832    0.0000 C   0  0  0  0  0  0  0  0  0  0  0  0
    9.0801   -6.3960    0.0000 C   0  0  0  0  0  0  0  0  0  0  0  0
    8.4223    0.7155    0.0000 C   0  0  0  0  0  0  0  0  0  0  0  0
    8.8722   -7.3742    0.0000 C   0  0  0  0  0  0  0  0  0  0  0  0
    8.1133    1.6666    0.0000 C   0  0  0  0  0  0  0  0  0  0  0  0
    5.8532    0.4065    0.0000 C   0  0  0  0  0  0  0  0  0  0  0  0
    8.7011    2.4756    0.0000 C   0  0  0  0  0  0  0  0  0  0  0  0
    5.1101    1.0756    0.0000 C   0  0  0  0  0  0  0  0  0  0  0  0
    8.2944    3.3891    0.0000 C   0  0  0  0  0  0  0  0  0  0  0  0
    7.2998    3.4937    0.0000 C   0  0  0  0  0  0  0  0  0  0  0  0
    8.8822    4.1982    0.0000 C   0  0  0  0  0  0  0  0  0  0  0  0
    6.8931    4.4072    0.0000 C   0  0  0  0  0  0  0  0  0  0  0  0
    8.4754    5.1117    0.0000 C   0  0  0  0  0  0  0  0  0  0  0  0
    7.4809    5.2162    0.0000 C   0  0  0  0  0  0  0  0  0  0  0  0
    7.6619    6.9388    0.0000 C   0  0  0  0  0  0  0  0  0  0  0  0
    7.2552    7.8523    0.0000 C   0  0  0  0  0  0  0  0  0  0  0  0
    7.8430    8.6614    0.0000 C   0  0  0  0  0  0  0  0  0  0  0  0
    7.2673   -4.7100    0.0000 H   0  0  0  0  0  0  0  0  0  0  0  0
    7.2216   -5.1446    0.0000 H   0  0  0  0  0  0  0  0  0  0  0  0
    6.1437   -3.4286    0.0000 H   0  0  0  0  0  0  0  0  0  0  0  0
    5.3322   -3.6011    0.0000 H   0  0  0  0  0  0  0  0  0  0  0  0
    5.0982   -5.8269    0.0000 H   0  0  0  0  0  0  0  0  0  0  0  0
    5.8562   -6.1644    0.0000 H   0  0  0  0  0  0  0  0  0  0  0  0
    4.5345   -4.1026    0.0000 H   0  0  0  0  0  0  0  0  0  0  0  0
    3.3301   -4.8468    0.0000 H   0  0  0  0  0  0  0  0  0  0  0  0
    7.8254   -4.4549    0.0000 H   0  0  0  0  0  0  0  0  0  0  0  0
    8.2239   -3.7646    0.0000 H   0  0  0  0  0  0  0  0  0  0  0  0
    2.7587   -4.7127    0.0000 H   0  0  0  0  0  0  0  0  0  0  0  0
    2.0305   -5.0368    0.0000 H   0  0  0  0  0  0  0  0  0  0  0  0
    4.4197   -6.7727    0.0000 H   0  0  0  0  0  0  0  0  0  0  0  0
    4.5030   -5.9800    0.0000 H   0  0  0  0  0  0  0  0  0  0  0  0
    6.1367   -2.2646    0.0000 H   0  0  0  0  0  0  0  0  0  0  0  0
    6.5352   -2.9549    0.0000 H   0  0  0  0  0  0  0  0  0  0  0  0
    8.6914   -2.9549    0.0000 H   0  0  0  0  0  0  0  0  0  0  0  0
    9.0899   -2.2646    0.0000 H   0  0  0  0  0  0  0  0  0  0  0  0
    1.5693   -5.6717    0.0000 H   0  0  0  0  0  0  0  0  0  0  0  0
    1.4860   -6.4644    0.0000 H   0  0  0  0  0  0  0  0  0  0  0  0
    3.2304   -7.7317    0.0000 H   0  0  0  0  0  0  0  0  0  0  0  0
    3.9585   -7.4075    0.0000 H   0  0  0  0  0  0  0  0  0  0  0  0
    7.0764   -0.5623    0.0000 H   0  0  0  0  0  0  0  0  0  0  0  0
    1.8052   -7.1812    0.0000 H   0  0  0  0  0  0  0  0  0  0  0  0
    2.4500   -7.6497    0.0000 H   0  0  0  0  0  0  0  0  0  0  0  0
    6.5352   -0.7897    0.0000 H   0  0  0  0  0  0  0  0  0  0  0  0
    6.1367   -1.4799    0.0000 H   0  0  0  0  0  0  0  0  0  0  0  0
    9.0899   -1.4799    0.0000 H   0  0  0  0  0  0  0  0  0  0  0  0
    8.6914   -0.7897    0.0000 H   0  0  0  0  0  0  0  0  0  0  0  0
    6.5883   -7.2057    0.0000 H   0  0  0  0  0  0  0  0  0  0  0  0
    8.4659   -5.1204    0.0000 H   0  0  0  0  0  0  0  0  0  0  0  0
    9.6698   -6.2044    0.0000 H   0  0  0  0  0  0  0  0  0  0  0  0
    2.5167   -3.0197    0.0000 H   0  0  0  0  0  0  0  0  0  0  0  0
    9.0120    0.5239    0.0000 H   0  0  0  0  0  0  0  0  0  0  0  0
    9.3330   -7.7890    0.0000 H   0  0  0  0  0  0  0  0  0  0  0  0
    5.3647    0.0248    0.0000 H   0  0  0  0  0  0  0  0  0  0  0  0
    6.1443   -0.1409    0.0000 H   0  0  0  0  0  0  0  0  0  0  0  0
    9.1318    2.0296    0.0000 H   0  0  0  0  0  0  0  0  0  0  0  0
    9.2151    2.8223    0.0000 H   0  0  0  0  0  0  0  0  0  0  0  0
    5.5250    1.5364    0.0000 H   0  0  0  0  0  0  0  0  0  0  0  0
    4.6494    1.4905    0.0000 H   0  0  0  0  0  0  0  0  0  0  0  0
    4.6952    0.6149    0.0000 H   0  0  0  0  0  0  0  0  0  0  0  0
    6.9354    2.9921    0.0000 H   0  0  0  0  0  0  0  0  0  0  0  0
    9.4988    4.1333    0.0000 H   0  0  0  0  0  0  0  0  0  0  0  0
    6.2765    4.4720    0.0000 H   0  0  0  0  0  0  0  0  0  0  0  0
    8.8398    5.6133    0.0000 H   0  0  0  0  0  0  0  0  0  0  0  0
    8.0926    6.4928    0.0000 H   0  0  0  0  0  0  0  0  0  0  0  0
    8.1759    7.2855    0.0000 H   0  0  0  0  0  0  0  0  0  0  0  0
    6.8245    8.2983    0.0000 H   0  0  0  0  0  0  0  0  0  0  0  0
    6.7412    7.5056    0.0000 H   0  0  0  0  0  0  0  0  0  0  0  0
    8.3446    8.2969    0.0000 H   0  0  0  0  0  0  0  0  0  0  0  0
    8.2074    9.1629    0.0000 H   0  0  0  0  0  0  0  0  0  0  0  0
    7.3414    9.0258    0.0000 H   0  0  0  0  0  0  0  0  0  0  0  0
  1 31  1  0  0  0  0
  2 27  1  0  0  0  0
  2 80  1  0  0  0  0
  3 27  2  0  0  0  0
  4 44  1  0  0  0  0
  4 45  1  0  0  0  0
  5 11  1  0  0  0  0
  5 12  1  0  0  0  0
  5 13  1  0  0  0  0
  6 15  1  0  0  0  0
  6 21  1  0  0  0  0
  6 22  1  0  0  0  0
  7  8  1  0  0  0  0
  7 30  1  0  0  0  0
  7 36  1  0  0  0  0
  8 35  2  0  0  0  0
  9 10  1  0  0  0  0
  9 11  1  0  0  0  0
  9 15  1  6  0  0  0
  9 48  1  0  0  0  0
 10 12  1  0  0  0  0
 10 18  1  1  0  0  0
 10 49  1  0  0  0  0
 11 50  1  0  0  0  0
 11 51  1  0  0  0  0
 12 52  1  0  0  0  0
 12 53  1  0  0  0  0
 13 14  1  0  0  0  0
 13 27  1  6  0  0  0
 13 54  1  0  0  0  0
 14 16  1  0  0  0  0
 14 17  1  0  0  0  0
 14 55  1  0  0  0  0
 15 56  1  0  0  0  0
 15 57  1  0  0  0  0
 16 19  1  0  0  0  0
 16 58  1  0  0  0  0
 16 59  1  0  0  0  0
 17 20  1  0  0  0  0
 17 60  1  0  0  0  0
 17 61  1  0  0  0  0
 18 28  2  0  0  0  0
 18 29  1  0  0  0  0
 19 24  1  0  0  0  0
 19 66  1  0  0  0  0
 19 67  1  0  0  0  0
 20 24  1  0  0  0  0
 20 68  1  0  0  0  0
 20 69  1  0  0  0  0
 21 25  1  0  0  0  0
 21 62  1  0  0  0  0
 21 63  1  0  0  0  0
 22 26  1  0  0  0  0
 22 64  1  0  0  0  0
 22 65  1  0  0  0  0
 23 25  1  0  0  0  0
 23 26  1  0  0  0  0
 23 30  1  0  0  0  0
 23 70  1  0  0  0  0
 24 71  1  0  0  0  0
 24 72  1  0  0  0  0
 25 73  1  0  0  0  0
 25 74  1  0  0  0  0
 26 75  1  0  0  0  0
 26 76  1  0  0  0  0
 28 31  1  0  0  0  0
 28 77  1  0  0  0  0
 29 32  2  0  0  0  0
 29 78  1  0  0  0  0
 30 33  2  0  0  0  0
 31 34  2  0  0  0  0
 32 34  1  0  0  0  0
 32 79  1  0  0  0  0
 33 35  1  0  0  0  0
 33 81  1  0  0  0  0
 34 82  1  0  0  0  0
 35 37  1  0  0  0  0
 36 38  1  0  0  0  0
 36 83  1  0  0  0  0
 36 84  1  0  0  0  0
 37 39  1  0  0  0  0
 37 85  1  0  0  0  0
 37 86  1  0  0  0  0
 38 87  1  0  0  0  0
 38 88  1  0  0  0  0
 38 89  1  0  0  0  0
 39 40  2  0  0  0  0
 39 41  1  0  0  0  0
 40 42  1  0  0  0  0
 40 90  1  0  0  0  0
 41 43  2  0  0  0  0
 41 91  1  0  0  0  0
 42 44  2  0  0  0  0
 42 92  1  0  0  0  0
 43 44  1  0  0  0  0
 43 93  1  0  0  0  0
 45 46  1  0  0  0  0
 45 94  1  0  0  0  0
 45 95  1  0  0  0  0
 46 47  1  0  0  0  0
 46 96  1  0  0  0  0
 46 97  1  0  0  0  0
 47 98  1  0  0  0  0
 47 99  1  0  0  0  0
 47100  1  0  0  0  0
M  END
> <PUBCHEM_COMPOUND_CID>
516308
> <PUBCHEM_COMPOUND_CANONICALIZED>
1
> <PUBCHEM_CACTVS_COMPLEXITY>
951
> <PUBCHEM_CACTVS_HBOND_ACCEPTOR>
7
> <PUBCHEM_CACTVS_HBOND_DONOR>
1
> <PUBCHEM_CACTVS_ROTATABLE_BOND>
13
> <PUBCHEM_CACTVS_SUBSKEYS>
AAADcfB/sQAAAAAAAAAAAAAAAAAAAWLAAAA8YMEAAAAAAAAB0AAAHwAICAAADSzhng4yjpMIBgCqAyTyTACSDAAhogAY2CG+bJgOJjLE8fuG/CjkyBHY6AeYyOCOoAAAAAAAAABAAAAAAAAAAAAAAAAAAA==
> <PUBCHEM_IUPAC_OPENEYE_NAME>
(2R)-2-cyclohexyl-2-[(3S,4S)-3-[[4-[2-ethyl-5-[(4-propoxyphenyl)methyl]pyrazol-3-yl]-1-piperidyl]methyl]-4-(3-fluorophenyl)pyrrolidin-1-yl]acetic acid
> <PUBCHEM_IUPAC_CAS_NAME>
(2R)-2-cyclohexyl-2-[(3S,4S)-3-[[4-[2-ethyl-5-[(4-propoxyphenyl)methyl]-3-pyrazolyl]-1-piperidinyl]methyl]-4-(3-fluorophenyl)-1-pyrrolidinyl]acetic acid
> <PUBCHEM_IUPAC_NAME_MARKUP>
(2<I>R</I>)-2-cyclohexyl-2-[(3<I>S</I>,4<I>S</I>)-3-[[4-[2-ethyl-5-[(4-propoxyphenyl)methyl]pyrazol-3-yl]piperidin-1-yl]methyl]-4-(3-fluorophenyl)pyrrolidin-1-yl]acetic acid
> <PUBCHEM_IUPAC_NAME>
(2R)-2-cyclohexyl-2-[(3S,4S)-3-[[4-[2-ethyl-5-[(4-propoxyphenyl)methyl]pyrazol-3-yl]piperidin-1-yl]methyl]-4-(3-fluorophenyl)pyrrolidin-1-yl]acetic acid
> <PUBCHEM_IUPAC_SYSTEMATIC_NAME>
(2R)-2-cyclohexyl-2-[(3S,4S)-3-[[4-[2-ethyl-5-[(4-propoxyphenyl)methyl]pyrazol-3-yl]piperidin-1-yl]methyl]-4-(3-fluorophenyl)pyrrolidin-1-yl]ethanoic acid
> <PUBCHEM_IUPAC_TRADITIONAL_NAME>
(2R)-2-cyclohexyl-2-[(3S,4S)-3-[[4-[2-ethyl-5-(4-propoxybenzyl)pyrazol-3-yl]piperidino]methyl]-4-(3-fluorophenyl)pyrrolidino]acetic acid
> <PUBCHEM_IUPAC_INCHI>
InChI=1S/C39H53FN4O3/c1-3-21-47-35-15-13-28(14-16-35)22-34-24-37(44(4-2)41-34)29-17-19-42(20-18-29)25-32-26-43(27-36(32)31-11-8-12-33(40)23-31)38(39(45)46)30-9-6-5-7-10-30/h8,11-16,23-24,29-30,32,36,38H,3-7,9-10,17-22,25-27H2,1-2H3,(H,45,46)/t32-,36+,38+/m0/s1
> <PUBCHEM_IUPAC_INCHIKEY>
VWYAKQIBNSPPEC-GFJCEQABSA-N
> <PUBCHEM_XLOGP3_AA>
5.6
> <PUBCHEM_EXACT_MASS>
644.41016973
> <PUBCHEM_MOLECULAR_FORMULA>
C39H53FN4O3
> <PUBCHEM_MOLECULAR_WEIGHT>
644.9
> <PUBCHEM_OPENEYE_CAN_SMILES>
CCCOC1=CC=C(C=C1)CC2=NN(C(=C2)C3CCN(CC3)CC4CN(CC4C5=CC(=CC=C5)F)C(C6CCCCC6)C(=O)O)CC
> <PUBCHEM_OPENEYE_ISO_SMILES>
CCCOC1=CC=C(C=C1)CC2=NN(C(=C2)C3CCN(CC3)C[C@H]4CN(C[C@@H]4C5=CC(=CC=C5)F)[C@H](C6CCCCC6)C(=O)O)CC
> <PUBCHEM_CACTVS_TPSA>
70.8
> <PUBCHEM_MONOISOTOPIC_WEIGHT>
644.41016973
> <PUBCHEM_TOTAL_CHARGE>
0
> <PUBCHEM_HEAVY_ATOM_COUNT>
47
> <PUBCHEM_ATOM_DEF_STEREO_COUNT>
3
> <PUBCHEM_ATOM_UDEF_STEREO_COUNT>
0
> <PUBCHEM_BOND_DEF_STEREO_COUNT>
0
> <PUBCHEM_BOND_UDEF_STEREO_COUNT>
0
> <PUBCHEM_ISOTOPIC_ATOM_COUNT>
0
> <PUBCHEM_COMPONENT_COUNT>
1
> <PUBCHEM_CACTVS_TAUTO_COUNT>
-1
> <PUBCHEM_COORDINATE_TYPE>
1
5
255
> <PUBCHEM_BONDANNOTATIONS>
10  18  5
13  27  6
18  28  8
18  29  8
28  31  8
29  32  8
30  33  8
31  34  8
32  34  8
33  35  8
39  40  8
39  41  8
40  42  8
41  43  8
42  44  8
43  44  8
7  30  8
7  8  8
8  35  8
9  15  6
$$$$
