516475
  -OEChem-10302200282D
201203  0     1  0  0  0  0  0999 V2000
    6.1350    8.2209    0.0000 S   0  0  0  0  0  0  0  0  0  0  0  0
    3.4030   13.7209    0.0000 S   0  0  0  0  0  0  0  0  0  0  0  0
   12.8542    0.8662    0.0000 O   0  0  0  0  0  0  0  0  0  0  0  0
   12.9965    2.2208    0.0000 O   0  0  0  0  0  0  0  0  0  0  0  0
   11.2794   -2.3772    0.0000 O   0  0  0  0  0  0  0  0  0  0  0  0
   13.8626    2.7208    0.0000 O   0  0  0  0  0  0  0  0  0  0  0  0
   11.0715   -3.3554    0.0000 O   0  0  0  0  0  0  0  0  0  0  0  0
   14.4599   -4.0756    0.0000 O   0  0  0  0  0  0  0  0  0  0  0  0
   16.0632   12.7209    0.0000 O   0  0  0  0  0  0  0  0  0  0  0  0
   14.3312    9.7209    0.0000 O   0  0  0  0  0  0  0  0  0  0  0  0
   11.1909   -6.9590    0.0000 O   0  0  0  0  0  0  0  0  0  0  0  0
   10.1204   -3.6644    0.0000 O   0  0  0  0  0  0  0  0  0  0  0  0
   14.3714   -8.6573    0.0000 O   0  0  0  0  0  0  0  0  0  0  0  0
   11.5991   12.2209    0.0000 O   0  0  0  0  0  0  0  0  0  0  0  0
   10.7331    7.7209    0.0000 O   0  0  0  0  0  0  0  0  0  0  0  0
   12.4651    7.7209    0.0000 O   0  0  0  0  0  0  0  0  0  0  0  0
    8.8671    9.7209    0.0000 O   0  0  0  0  0  0  0  0  0  0  0  0
    6.1350   12.2209    0.0000 O   0  0  0  0  0  0  0  0  0  0  0  0
    2.5369   11.2209    0.0000 O   0  0  0  0  0  0  0  0  0  0  0  0
    3.4030    9.7209    0.0000 O   0  0  0  0  0  0  0  0  0  0  0  0
   11.1600    1.2263    0.0000 N   0  0  0  0  0  0  0  0  0  0  0  0
   12.4383   -1.0901    0.0000 N   0  0  0  0  0  0  0  0  0  0  0  0
   12.1305    3.7208    0.0000 N   0  0  0  0  0  0  0  0  0  0  0  0
   12.7657   -3.7155    0.0000 N   0  0  0  0  0  0  0  0  0  0  0  0
   16.0632   10.7209    0.0000 N   0  0  0  0  0  0  0  0  0  0  0  0
   14.9374    6.9188    0.0000 N   0  0  0  0  0  0  0  0  0  0  0  0
   12.3498   -5.6718    0.0000 N   0  0  0  0  0  0  0  0  0  0  0  0
   13.3312   11.2209    0.0000 N   0  0  0  0  0  0  0  0  0  0  0  0
   15.6188   -2.7884    0.0000 N   0  0  0  0  0  0  0  0  0  0  0  0
   12.6772   -8.2972    0.0000 N   0  0  0  0  0  0  0  0  0  0  0  0
    8.9614   -4.9516    0.0000 N   0  0  0  0  0  0  0  0  0  0  0  0
   10.5991   10.7209    0.0000 N   0  0  0  0  0  0  0  0  0  0  0  0
   13.9555  -10.6136    0.0000 N   0  0  0  0  0  0  0  0  0  0  0  0
    7.8671   11.2209    0.0000 N   0  0  0  0  0  0  0  0  0  0  0  0
   10.8945  -12.5188    0.0000 N   0  0  0  0  0  0  0  0  0  0  0  0
    5.1350   10.7209    0.0000 N   0  0  0  0  0  0  0  0  0  0  0  0
    9.7355  -13.8060    0.0000 N   0  0  0  0  0  0  0  0  0  0  0  0
    9.2003  -12.1587    0.0000 N   0  0  0  0  0  0  0  0  0  0  0  0
   11.2645    2.2208    0.0000 C   0  0  1  0  0  0  0  0  0  0  0  0
   10.3509    2.6276    0.0000 C   0  0  0  0  0  0  0  0  0  0  0  0
   10.1818    1.0184    0.0000 C   0  0  0  0  0  0  0  0  0  0  0  0
    9.6818    1.8844    0.0000 C   0  0  0  0  0  0  0  0  0  0  0  0
   11.6952   -0.4209    0.0000 C   0  0  2  0  0  0  0  0  0  0  0  0
   11.9031    0.5572    0.0000 C   0  0  0  0  0  0  0  0  0  0  0  0
   10.7441   -0.7300    0.0000 C   0  0  2  0  0  0  0  0  0  0  0  0
   12.1305    2.7208    0.0000 C   0  0  0  0  0  0  0  0  0  0  0  0
   10.5362   -1.7081    0.0000 C   0  0  0  0  0  0  0  0  0  0  0  0
   10.0010   -0.0608    0.0000 C   0  0  0  0  0  0  0  0  0  0  0  0
   12.9965    4.2209    0.0000 C   0  0  1  0  0  0  0  0  0  0  0  0
   12.2304   -2.0682    0.0000 C   0  0  0  0  0  0  0  0  0  0  0  0
    9.5852   -2.0171    0.0000 C   0  0  0  0  0  0  0  0  0  0  0  0
   12.9965    5.2209    0.0000 C   0  0  0  0  0  0  0  0  0  0  0  0
   12.9736   -2.7374    0.0000 C   0  0  2  0  0  0  0  0  0  0  0  0
   13.8626    3.7208    0.0000 C   0  0  0  0  0  0  0  0  0  0  0  0
   13.8626    5.7209    0.0000 C   0  0  0  0  0  0  0  0  0  0  0  0
   13.9246   -2.4283    0.0000 C   0  0  0  0  0  0  0  0  0  0  0  0
   14.7704    5.3157    0.0000 C   0  0  0  0  0  0  0  0  0  0  0  0
   13.9656    6.7096    0.0000 C   0  0  0  0  0  0  0  0  0  0  0  0
   15.1972   11.2209    0.0000 C   0  0  1  0  0  0  0  0  0  0  0  0
   15.4382    6.0600    0.0000 C   0  0  0  0  0  0  0  0  0  0  0  0
   11.8146   -4.0245    0.0000 C   0  0  0  0  0  0  0  0  0  0  0  0
   11.6067   -5.0027    0.0000 C   0  0  2  0  0  0  0  0  0  0  0  0
   14.6678   -3.0975    0.0000 C   0  0  0  0  0  0  0  0  0  0  0  0
   15.0810    4.3652    0.0000 C   0  0  0  0  0  0  0  0  0  0  0  0
   15.1972   12.2209    0.0000 C   0  0  0  0  0  0  0  0  0  0  0  0
   16.4167    5.8538    0.0000 C   0  0  0  0  0  0  0  0  0  0  0  0
   14.3312   10.7209    0.0000 C   0  0  0  0  0  0  0  0  0  0  0  0
   12.8851   -7.3191    0.0000 C   0  0  1  0  0  0  0  0  0  0  0  0
   10.6556   -5.3117    0.0000 C   0  0  0  0  0  0  0  0  0  0  0  0
   13.8361   -7.0101    0.0000 C   0  0  2  0  0  0  0  0  0  0  0  0
   16.0595    4.1590    0.0000 C   0  0  0  0  0  0  0  0  0  0  0  0
   16.7274    4.9033    0.0000 C   0  0  0  0  0  0  0  0  0  0  0  0
   12.1419   -6.6499    0.0000 C   0  0  0  0  0  0  0  0  0  0  0  0
   14.5793   -7.6792    0.0000 C   0  0  0  0  0  0  0  0  0  0  0  0
   12.4651   10.7209    0.0000 C   0  0  1  0  0  0  0  0  0  0  0  0
   14.0440   -6.0319    0.0000 C   0  0  0  0  0  0  0  0  0  0  0  0
    9.9125   -4.6426    0.0000 C   0  0  0  0  0  0  0  0  0  0  0  0
   12.4651    9.7209    0.0000 C   0  0  0  0  0  0  0  0  0  0  0  0
   15.5303   -7.3702    0.0000 C   0  0  0  0  0  0  0  0  0  0  0  0
   13.4203   -8.9664    0.0000 C   0  0  0  0  0  0  0  0  0  0  0  0
   13.2124   -9.9445    0.0000 C   0  0  2  0  0  0  0  0  0  0  0  0
   11.5991   11.2209    0.0000 C   0  0  0  0  0  0  0  0  0  0  0  0
   12.2613  -10.2535    0.0000 C   0  0  0  0  0  0  0  0  0  0  0  0
   11.5991    9.2209    0.0000 C   0  0  0  0  0  0  0  0  0  0  0  0
   12.0534  -11.2317    0.0000 C   0  0  0  0  0  0  0  0  0  0  0  0
    9.7331   11.2209    0.0000 C   0  0  2  0  0  0  0  0  0  0  0  0
   11.5991    8.2209    0.0000 C   0  0  0  0  0  0  0  0  0  0  0  0
   11.1024  -11.5407    0.0000 C   0  0  0  0  0  0  0  0  0  0  0  0
    8.8671   10.7209    0.0000 C   0  0  0  0  0  0  0  0  0  0  0  0
    9.7331   12.2209    0.0000 C   0  0  0  0  0  0  0  0  0  0  0  0
    7.0010   10.7209    0.0000 C   0  0  1  0  0  0  0  0  0  0  0  0
    7.0010    9.7209    0.0000 C   0  0  0  0  0  0  0  0  0  0  0  0
    6.1350   11.2209    0.0000 C   0  0  0  0  0  0  0  0  0  0  0  0
    6.1350    9.2209    0.0000 C   0  0  0  0  0  0  0  0  0  0  0  0
    4.2690   11.2209    0.0000 C   0  0  1  0  0  0  0  0  0  0  0  0
    9.9434  -12.8278    0.0000 C   0  0  0  0  0  0  0  0  0  0  0  0
    4.2690   12.2209    0.0000 C   0  0  0  0  0  0  0  0  0  0  0  0
    3.4030   12.7209    0.0000 C   0  0  0  0  0  0  0  0  0  0  0  0
    3.4030   10.7209    0.0000 C   0  0  0  0  0  0  0  0  0  0  0  0
    5.2690    7.7209    0.0000 C   0  0  0  0  0  0  0  0  0  0  0  0
    2.5369   14.2209    0.0000 C   0  0  0  0  0  0  0  0  0  0  0  0
   11.7845    1.8832    0.0000 H   0  0  0  0  0  0  0  0  0  0  0  0
   10.6609    3.1645    0.0000 H   0  0  0  0  0  0  0  0  0  0  0  0
    9.8494    2.9920    0.0000 H   0  0  0  0  0  0  0  0  0  0  0  0
    9.6154    0.7662    0.0000 H   0  0  0  0  0  0  0  0  0  0  0  0
   10.3734    0.4288    0.0000 H   0  0  0  0  0  0  0  0  0  0  0  0
    9.2670    2.3452    0.0000 H   0  0  0  0  0  0  0  0  0  0  0  0
    9.1802    1.5200    0.0000 H   0  0  0  0  0  0  0  0  0  0  0  0
   11.5663   -1.0274    0.0000 H   0  0  0  0  0  0  0  0  0  0  0  0
   10.8730   -0.1235    0.0000 H   0  0  0  0  0  0  0  0  0  0  0  0
   10.6225   -2.3221    0.0000 H   0  0  0  0  0  0  0  0  0  0  0  0
   11.1559   -1.7298    0.0000 H   0  0  0  0  0  0  0  0  0  0  0  0
   13.0280   -0.8985    0.0000 H   0  0  0  0  0  0  0  0  0  0  0  0
   12.6675    4.0308    0.0000 H   0  0  0  0  0  0  0  0  0  0  0  0
   10.4159    0.3999    0.0000 H   0  0  0  0  0  0  0  0  0  0  0  0
    9.5402    0.3540    0.0000 H   0  0  0  0  0  0  0  0  0  0  0  0
    9.5861   -0.5216    0.0000 H   0  0  0  0  0  0  0  0  0  0  0  0
   12.4596    4.5308    0.0000 H   0  0  0  0  0  0  0  0  0  0  0  0
    9.3936   -1.4275    0.0000 H   0  0  0  0  0  0  0  0  0  0  0  0
    8.9955   -2.2087    0.0000 H   0  0  0  0  0  0  0  0  0  0  0  0
    9.7768   -2.6068    0.0000 H   0  0  0  0  0  0  0  0  0  0  0  0
   12.7845    5.8035    0.0000 H   0  0  0  0  0  0  0  0  0  0  0  0
   12.3860    5.1132    0.0000 H   0  0  0  0  0  0  0  0  0  0  0  0
   12.3839   -2.9290    0.0000 H   0  0  0  0  0  0  0  0  0  0  0  0
   14.4132   -2.0466    0.0000 H   0  0  0  0  0  0  0  0  0  0  0  0
   13.6336   -1.8809    0.0000 H   0  0  0  0  0  0  0  0  0  0  0  0
   13.2264   -4.1304    0.0000 H   0  0  0  0  0  0  0  0  0  0  0  0
   16.6001   10.4109    0.0000 H   0  0  0  0  0  0  0  0  0  0  0  0
   13.5042    7.1236    0.0000 H   0  0  0  0  0  0  0  0  0  0  0  0
   15.1972   10.6009    0.0000 H   0  0  0  0  0  0  0  0  0  0  0  0
   15.1877    7.4860    0.0000 H   0  0  0  0  0  0  0  0  0  0  0  0
   11.4778   -5.6091    0.0000 H   0  0  0  0  0  0  0  0  0  0  0  0
   14.6670    3.9038    0.0000 H   0  0  0  0  0  0  0  0  0  0  0  0
   14.9851   12.8035    0.0000 H   0  0  0  0  0  0  0  0  0  0  0  0
   14.5866   12.1132    0.0000 H   0  0  0  0  0  0  0  0  0  0  0  0
   16.8308    6.3153    0.0000 H   0  0  0  0  0  0  0  0  0  0  0  0
   12.2954   -7.5107    0.0000 H   0  0  0  0  0  0  0  0  0  0  0  0
   10.1671   -5.6934    0.0000 H   0  0  0  0  0  0  0  0  0  0  0  0
   10.9467   -5.8591    0.0000 H   0  0  0  0  0  0  0  0  0  0  0  0
   13.3754   -6.5952    0.0000 H   0  0  0  0  0  0  0  0  0  0  0  0
   12.9395   -5.4802    0.0000 H   0  0  0  0  0  0  0  0  0  0  0  0
   16.2521    3.5697    0.0000 H   0  0  0  0  0  0  0  0  0  0  0  0
   17.3340    4.7754    0.0000 H   0  0  0  0  0  0  0  0  0  0  0  0
   13.8681   11.5309    0.0000 H   0  0  0  0  0  0  0  0  0  0  0  0
   14.0907   -8.0609    0.0000 H   0  0  0  0  0  0  0  0  0  0  0  0
   14.8703   -8.2266    0.0000 H   0  0  0  0  0  0  0  0  0  0  0  0
   16.0796   -3.2033    0.0000 H   0  0  0  0  0  0  0  0  0  0  0  0
   15.7477   -2.1820    0.0000 H   0  0  0  0  0  0  0  0  0  0  0  0
   13.0021   10.4109    0.0000 H   0  0  0  0  0  0  0  0  0  0  0  0
   12.0875   -8.4888    0.0000 H   0  0  0  0  0  0  0  0  0  0  0  0
   14.6505   -6.1608    0.0000 H   0  0  0  0  0  0  0  0  0  0  0  0
   14.1729   -5.4255    0.0000 H   0  0  0  0  0  0  0  0  0  0  0  0
   13.4376   -5.9030    0.0000 H   0  0  0  0  0  0  0  0  0  0  0  0
   16.0632   13.3409    0.0000 H   0  0  0  0  0  0  0  0  0  0  0  0
   12.6772    9.1382    0.0000 H   0  0  0  0  0  0  0  0  0  0  0  0
   13.0757    9.8285    0.0000 H   0  0  0  0  0  0  0  0  0  0  0  0
   15.7219   -7.9598    0.0000 H   0  0  0  0  0  0  0  0  0  0  0  0
   16.1200   -7.1786    0.0000 H   0  0  0  0  0  0  0  0  0  0  0  0
   15.3387   -6.7805    0.0000 H   0  0  0  0  0  0  0  0  0  0  0  0
   13.8021   -9.7529    0.0000 H   0  0  0  0  0  0  0  0  0  0  0  0
   12.1751   -9.6396    0.0000 H   0  0  0  0  0  0  0  0  0  0  0  0
   11.6417  -10.2319    0.0000 H   0  0  0  0  0  0  0  0  0  0  0  0
   11.3871    9.8035    0.0000 H   0  0  0  0  0  0  0  0  0  0  0  0
   10.9885    9.1132    0.0000 H   0  0  0  0  0  0  0  0  0  0  0  0
    8.5007   -4.5367    0.0000 H   0  0  0  0  0  0  0  0  0  0  0  0
    8.8325   -5.5580    0.0000 H   0  0  0  0  0  0  0  0  0  0  0  0
   11.1360   10.4109    0.0000 H   0  0  0  0  0  0  0  0  0  0  0  0
   12.1397  -11.8456    0.0000 H   0  0  0  0  0  0  0  0  0  0  0  0
   12.6730  -11.2533    0.0000 H   0  0  0  0  0  0  0  0  0  0  0  0
   10.2700   11.5309    0.0000 H   0  0  0  0  0  0  0  0  0  0  0  0
   13.8266  -11.2201    0.0000 H   0  0  0  0  0  0  0  0  0  0  0  0
   14.5452  -10.4220    0.0000 H   0  0  0  0  0  0  0  0  0  0  0  0
   11.0161  -10.9267    0.0000 H   0  0  0  0  0  0  0  0  0  0  0  0
   10.4827  -11.5190    0.0000 H   0  0  0  0  0  0  0  0  0  0  0  0
   10.3531   12.2209    0.0000 H   0  0  0  0  0  0  0  0  0  0  0  0
    9.7331   12.8409    0.0000 H   0  0  0  0  0  0  0  0  0  0  0  0
    9.1131   12.2209    0.0000 H   0  0  0  0  0  0  0  0  0  0  0  0
    7.5380   10.4109    0.0000 H   0  0  0  0  0  0  0  0  0  0  0  0
    8.4040   11.5309    0.0000 H   0  0  0  0  0  0  0  0  0  0  0  0
    7.2131    9.1382    0.0000 H   0  0  0  0  0  0  0  0  0  0  0  0
    7.6116    9.8285    0.0000 H   0  0  0  0  0  0  0  0  0  0  0  0
   10.7331    7.1009    0.0000 H   0  0  0  0  0  0  0  0  0  0  0  0
    5.9230    9.8035    0.0000 H   0  0  0  0  0  0  0  0  0  0  0  0
    5.5244    9.1132    0.0000 H   0  0  0  0  0  0  0  0  0  0  0  0
    5.6720   10.4109    0.0000 H   0  0  0  0  0  0  0  0  0  0  0  0
    4.8059   11.5309    0.0000 H   0  0  0  0  0  0  0  0  0  0  0  0
    4.8796   12.1132    0.0000 H   0  0  0  0  0  0  0  0  0  0  0  0
    4.4810   12.8035    0.0000 H   0  0  0  0  0  0  0  0  0  0  0  0
    2.7924   12.8285    0.0000 H   0  0  0  0  0  0  0  0  0  0  0  0
    3.1909   12.1382    0.0000 H   0  0  0  0  0  0  0  0  0  0  0  0
    9.1458  -13.9976    0.0000 H   0  0  0  0  0  0  0  0  0  0  0  0
   10.1962  -14.2209    0.0000 H   0  0  0  0  0  0  0  0  0  0  0  0
    8.6106  -12.3503    0.0000 H   0  0  0  0  0  0  0  0  0  0  0  0
    9.3292  -11.5523    0.0000 H   0  0  0  0  0  0  0  0  0  0  0  0
    4.9590    8.2578    0.0000 H   0  0  0  0  0  0  0  0  0  0  0  0
    4.7320    7.4109    0.0000 H   0  0  0  0  0  0  0  0  0  0  0  0
    5.5790    7.1839    0.0000 H   0  0  0  0  0  0  0  0  0  0  0  0
    2.0000   10.9109    0.0000 H   0  0  0  0  0  0  0  0  0  0  0  0
    2.8469   14.7578    0.0000 H   0  0  0  0  0  0  0  0  0  0  0  0
    2.0000   14.5309    0.0000 H   0  0  0  0  0  0  0  0  0  0  0  0
    2.2269   13.6839    0.0000 H   0  0  0  0  0  0  0  0  0  0  0  0
  1 94  1  0  0  0  0
  1100  1  0  0  0  0
  2 98  1  0  0  0  0
  2101  1  0  0  0  0
  3 44  2  0  0  0  0
  4 46  2  0  0  0  0
  5 50  2  0  0  0  0
  6 54  2  0  0  0  0
  7 61  2  0  0  0  0
  8 63  2  0  0  0  0
  9 65  1  0  0  0  0
  9154  1  0  0  0  0
 10 67  2  0  0  0  0
 11 73  2  0  0  0  0
 12 77  2  0  0  0  0
 13 80  2  0  0  0  0
 14 82  2  0  0  0  0
 15 87  1  0  0  0  0
 15182  1  0  0  0  0
 16 87  2  0  0  0  0
 17 89  2  0  0  0  0
 18 93  2  0  0  0  0
 19 99  1  0  0  0  0
 19198  1  0  0  0  0
 20 99  2  0  0  0  0
 21 39  1  0  0  0  0
 21 41  1  0  0  0  0
 21 44  1  0  0  0  0
 43 22  1  1  0  0  0
 22 50  1  0  0  0  0
 22113  1  0  0  0  0
 23 46  1  0  0  0  0
 49 23  1  1  0  0  0
 23114  1  0  0  0  0
 53 24  1  6  0  0  0
 24 61  1  0  0  0  0
 24127  1  0  0  0  0
 25 54  1  0  0  0  0
 59 25  1  6  0  0  0
 25128  1  0  0  0  0
 26 58  1  0  0  0  0
 26 60  1  0  0  0  0
 26131  1  0  0  0  0
 62 27  1  1  0  0  0
 27 73  1  0  0  0  0
 27141  1  0  0  0  0
 28 67  1  0  0  0  0
 75 28  1  1  0  0  0
 28144  1  0  0  0  0
 29 63  1  0  0  0  0
 29147  1  0  0  0  0
 29148  1  0  0  0  0
 68 30  1  6  0  0  0
 30 80  1  0  0  0  0
 30150  1  0  0  0  0
 31 77  1  0  0  0  0
 31165  1  0  0  0  0
 31166  1  0  0  0  0
 32 82  1  0  0  0  0
 86 32  1  6  0  0  0
 32167  1  0  0  0  0
 81 33  1  1  0  0  0
 33171  1  0  0  0  0
 33172  1  0  0  0  0
 34 89  1  0  0  0  0
 91 34  1  1  0  0  0
 34179  1  0  0  0  0
 35 88  1  0  0  0  0
 35 96  2  0  0  0  0
 36 93  1  0  0  0  0
 95 36  1  6  0  0  0
 36185  1  0  0  0  0
 37 96  1  0  0  0  0
 37191  1  0  0  0  0
 37192  1  0  0  0  0
 38 96  1  0  0  0  0
 38193  1  0  0  0  0
 38194  1  0  0  0  0
 39 40  1  0  0  0  0
 39 46  1  1  0  0  0
 39102  1  0  0  0  0
 40 42  1  0  0  0  0
 40103  1  0  0  0  0
 40104  1  0  0  0  0
 41 42  1  0  0  0  0
 41105  1  0  0  0  0
 41106  1  0  0  0  0
 42107  1  0  0  0  0
 42108  1  0  0  0  0
 43 44  1  0  0  0  0
 43 45  1  0  0  0  0
 43109  1  0  0  0  0
 45 47  1  0  0  0  0
 45 48  1  6  0  0  0
 45110  1  0  0  0  0
 47 51  1  0  0  0  0
 47111  1  0  0  0  0
 47112  1  0  0  0  0
 48115  1  0  0  0  0
 48116  1  0  0  0  0
 48117  1  0  0  0  0
 49 52  1  0  0  0  0
 49 54  1  0  0  0  0
 49118  1  0  0  0  0
 50 53  1  0  0  0  0
 51119  1  0  0  0  0
 51120  1  0  0  0  0
 51121  1  0  0  0  0
 52 55  1  0  0  0  0
 52122  1  0  0  0  0
 52123  1  0  0  0  0
 53 56  1  0  0  0  0
 53124  1  0  0  0  0
 55 57  1  0  0  0  0
 55 58  2  0  0  0  0
 56 63  1  0  0  0  0
 56125  1  0  0  0  0
 56126  1  0  0  0  0
 57 60  1  0  0  0  0
 57 64  2  0  0  0  0
 58129  1  0  0  0  0
 59 65  1  0  0  0  0
 59 67  1  0  0  0  0
 59130  1  0  0  0  0
 60 66  2  0  0  0  0
 61 62  1  0  0  0  0
 62 69  1  0  0  0  0
 62132  1  0  0  0  0
 64 71  1  0  0  0  0
 64133  1  0  0  0  0
 65134  1  0  0  0  0
 65135  1  0  0  0  0
 66 72  1  0  0  0  0
 66136  1  0  0  0  0
 68 70  1  0  0  0  0
 68 73  1  0  0  0  0
 68137  1  0  0  0  0
 69 77  1  0  0  0  0
 69138  1  0  0  0  0
 69139  1  0  0  0  0
 70 74  1  0  0  0  0
 70 76  1  1  0  0  0
 70140  1  0  0  0  0
 71 72  2  0  0  0  0
 71142  1  0  0  0  0
 72143  1  0  0  0  0
 74 79  1  0  0  0  0
 74145  1  0  0  0  0
 74146  1  0  0  0  0
 75 78  1  0  0  0  0
 75 82  1  0  0  0  0
 75149  1  0  0  0  0
 76151  1  0  0  0  0
 76152  1  0  0  0  0
 76153  1  0  0  0  0
 78 84  1  0  0  0  0
 78155  1  0  0  0  0
 78156  1  0  0  0  0
 79157  1  0  0  0  0
 79158  1  0  0  0  0
 79159  1  0  0  0  0
 80 81  1  0  0  0  0
 81 83  1  0  0  0  0
 81160  1  0  0  0  0
 83 85  1  0  0  0  0
 83161  1  0  0  0  0
 83162  1  0  0  0  0
 84 87  1  0  0  0  0
 84163  1  0  0  0  0
 84164  1  0  0  0  0
 85 88  1  0  0  0  0
 85168  1  0  0  0  0
 85169  1  0  0  0  0
 86 89  1  0  0  0  0
 86 90  1  0  0  0  0
 86170  1  0  0  0  0
 88173  1  0  0  0  0
 88174  1  0  0  0  0
 90175  1  0  0  0  0
 90176  1  0  0  0  0
 90177  1  0  0  0  0
 91 92  1  0  0  0  0
 91 93  1  0  0  0  0
 91178  1  0  0  0  0
 92 94  1  0  0  0  0
 92180  1  0  0  0  0
 92181  1  0  0  0  0
 94183  1  0  0  0  0
 94184  1  0  0  0  0
 95 97  1  0  0  0  0
 95 99  1  0  0  0  0
 95186  1  0  0  0  0
 97 98  1  0  0  0  0
 97187  1  0  0  0  0
 97188  1  0  0  0  0
 98189  1  0  0  0  0
 98190  1  0  0  0  0
100195  1  0  0  0  0
100196  1  0  0  0  0
100197  1  0  0  0  0
101199  1  0  0  0  0
101200  1  0  0  0  0
101201  1  0  0  0  0
M  END
> <PUBCHEM_COMPOUND_CID>
516475
> <PUBCHEM_COMPOUND_CANONICALIZED>
1
> <PUBCHEM_CACTVS_COMPLEXITY>
2910
> <PUBCHEM_CACTVS_HBOND_ACCEPTOR>
22
> <PUBCHEM_CACTVS_HBOND_DONOR>
19
> <PUBCHEM_CACTVS_ROTATABLE_BOND>
46
> <PUBCHEM_CACTVS_SUBSKEYS>
AAADcfB//gBgAAAAAAAAAAAAAAAAAWLAAAAwAAAAAAAAAFgB8AAAHgQQCAAADSjl3ga/yPPJkgioAzX3fACCgCExAjAI2aG4ZJgKcP7g0bGUYAhmtgDYyAe9n8KOgAAAAAACAAAAAAAAAAQAAAAAAAAAAA==
> <PUBCHEM_IUPAC_OPENEYE_NAME>
(4S)-4-[[(2S)-2-[[(2S)-2-[[(2S)-1-[(2S,3S)-2-[[(2S)-4-amino-2-[[(2S)-4-amino-2-[[(2S,3S)-2-[[(2S)-2-amino-5-guanidino-pentanoyl]amino]-3-methyl-pentanoyl]amino]-4-oxo-butanoyl]amino]-4-oxo-butanoyl]amino]-3-methyl-pentanoyl]pyrrolidine-2-carbonyl]amino]-3-(1H-indol-3-yl)propanoyl]amino]-3-hydroxy-propanoyl]amino]-5-[[(1S)-2-[[(1S)-1-[[(1S)-1-carboxy-3-methylsulfanyl-propyl]carbamoyl]-3-methylsulfanyl-propyl]amino]-1-methyl-2-oxo-ethyl]amino]-5-oxo-pentanoic acid
> <PUBCHEM_IUPAC_CAS_NAME>
(4S)-4-[[(2S)-2-[[(2S)-2-[[[(2S)-1-[(2S,3S)-2-[[(2S)-4-amino-2-[[(2S)-4-amino-2-[[(2S,3S)-2-[[(2S)-2-amino-5-(diaminomethylideneamino)-1-oxopentyl]amino]-3-methyl-1-oxopentyl]amino]-1,4-dioxobutyl]amino]-1,4-dioxobutyl]amino]-3-methyl-1-oxopentyl]-2-pyrrolidinyl]-oxomethyl]amino]-3-(1H-indol-3-yl)-1-oxopropyl]amino]-3-hydroxy-1-oxopropyl]amino]-5-[[(2S)-1-[[(2S)-1-[[(1S)-1-carboxy-3-(methylthio)propyl]amino]-4-(methylthio)-1-oxobutan-2-yl]amino]-1-oxopropan-2-yl]amino]-5-oxopentanoic acid
> <PUBCHEM_IUPAC_NAME_MARKUP>
(4<I>S</I>)-4-[[(2<I>S</I>)-2-[[(2<I>S</I>)-2-[[(2<I>S</I>)-1-[(2<I>S</I>,3<I>S</I>)-2-[[(2<I>S</I>)-4-amino-2-[[(2<I>S</I>)-4-amino-2-[[(2<I>S</I>,3<I>S</I>)-2-[[(2<I>S</I>)-2-amino-5-(diaminomethylideneamino)pentanoyl]amino]-3-methylpentanoyl]amino]-4-oxobutanoyl]amino]-4-oxobutanoyl]amino]-3-methylpentanoyl]pyrrolidine-2-carbonyl]amino]-3-(1<I>H</I>-indol-3-yl)propanoyl]amino]-3-hydroxypropanoyl]amino]-5-[[(2<I>S</I>)-1-[[(2<I>S</I>)-1-[[(1<I>S</I>)-1-carboxy-3-methylsulfanylpropyl]amino]-4-methylsulfanyl-1-oxobutan-2-yl]amino]-1-oxopropan-2-yl]amino]-5-oxopentanoic acid
> <PUBCHEM_IUPAC_NAME>
(4S)-4-[[(2S)-2-[[(2S)-2-[[(2S)-1-[(2S,3S)-2-[[(2S)-4-amino-2-[[(2S)-4-amino-2-[[(2S,3S)-2-[[(2S)-2-amino-5-(diaminomethylideneamino)pentanoyl]amino]-3-methylpentanoyl]amino]-4-oxobutanoyl]amino]-4-oxobutanoyl]amino]-3-methylpentanoyl]pyrrolidine-2-carbonyl]amino]-3-(1H-indol-3-yl)propanoyl]amino]-3-hydroxypropanoyl]amino]-5-[[(2S)-1-[[(2S)-1-[[(1S)-1-carboxy-3-methylsulfanylpropyl]amino]-4-methylsulfanyl-1-oxobutan-2-yl]amino]-1-oxopropan-2-yl]amino]-5-oxopentanoic acid
> <PUBCHEM_IUPAC_SYSTEMATIC_NAME>
(4S)-4-[[(2S)-2-[[(2S)-2-[[(2S)-1-[(2S,3S)-2-[[(2S)-4-azanyl-2-[[(2S)-4-azanyl-2-[[(2S,3S)-2-[[(2S)-2-azanyl-5-[bis(azanyl)methylideneamino]pentanoyl]amino]-3-methyl-pentanoyl]amino]-4-oxidanylidene-butanoyl]amino]-4-oxidanylidene-butanoyl]amino]-3-methyl-pentanoyl]pyrrolidin-2-yl]carbonylamino]-3-(1H-indol-3-yl)propanoyl]amino]-3-oxidanyl-propanoyl]amino]-5-[[(2S)-1-[[(2S)-4-methylsulfanyl-1-[[(2S)-4-methylsulfanyl-1-oxidanyl-1-oxidanylidene-butan-2-yl]amino]-1-oxidanylidene-butan-2-yl]amino]-1-oxidanylidene-propan-2-yl]amino]-5-oxidanylidene-pentanoic acid
> <PUBCHEM_IUPAC_TRADITIONAL_NAME>
(4S)-4-[[(2S)-2-[[(2S)-2-[[(2S)-1-[(2S,3S)-2-[[(2S)-4-amino-2-[[(2S)-4-amino-2-[[(2S,3S)-2-[[(2S)-2-amino-5-guanidino-pentanoyl]amino]-3-methyl-pentanoyl]amino]-4-keto-butanoyl]amino]-4-keto-butanoyl]amino]-3-methyl-pentanoyl]prolyl]amino]-3-(1H-indol-3-yl)propanoyl]amino]-3-hydroxy-propanoyl]amino]-5-[[(1S)-2-[[(1S)-1-[[(1S)-1-carboxy-3-(methylthio)propyl]carbamoyl]-3-(methylthio)propyl]amino]-2-keto-1-methyl-ethyl]amino]-5-keto-valeric acid
> <PUBCHEM_IUPAC_INCHI>
InChI=1S/C63H100N18O18S2/c1-8-31(3)49(79-52(88)36(64)15-12-22-69-63(67)68)60(96)77-42(27-46(65)83)56(92)75-43(28-47(66)84)57(93)80-50(32(4)9-2)61(97)81-23-13-17-45(81)59(95)76-41(26-34-29-70-37-16-11-10-14-35(34)37)55(91)78-44(30-82)58(94)73-38(18-19-48(85)86)53(89)71-33(5)51(87)72-39(20-24-100-6)54(90)74-40(62(98)99)21-25-101-7/h10-11,14,16,29,31-33,36,38-45,49-50,70,82H,8-9,12-13,15,17-28,30,64H2,1-7H3,(H2,65,83)(H2,66,84)(H,71,89)(H,72,87)(H,73,94)(H,74,90)(H,75,92)(H,76,95)(H,77,96)(H,78,91)(H,79,88)(H,80,93)(H,85,86)(H,98,99)(H4,67,68,69)/t31-,32-,33-,36-,38-,39-,40-,41-,42-,43-,44-,45-,49-,50-/m0/s1
> <PUBCHEM_IUPAC_INCHIKEY>
VCLBYPJPLHSYAZ-PZDKMECOSA-N
> <PUBCHEM_XLOGP3_AA>
-5.6
> <PUBCHEM_EXACT_MASS>
1460.69044076
> <PUBCHEM_MOLECULAR_FORMULA>
C63H100N18O18S2
> <PUBCHEM_MOLECULAR_WEIGHT>
1461.7
> <PUBCHEM_OPENEYE_CAN_SMILES>
CCC(C)C(C(=O)NC(CC(=O)N)C(=O)NC(CC(=O)N)C(=O)NC(C(C)CC)C(=O)N1CCCC1C(=O)NC(CC2=CNC3=CC=CC=C32)C(=O)NC(CO)C(=O)NC(CCC(=O)O)C(=O)NC(C)C(=O)NC(CCSC)C(=O)NC(CCSC)C(=O)O)NC(=O)C(CCCN=C(N)N)N
> <PUBCHEM_OPENEYE_ISO_SMILES>
CC[C@H](C)[C@@H](C(=O)N[C@@H](CC(=O)N)C(=O)N[C@@H](CC(=O)N)C(=O)N[C@@H]([C@@H](C)CC)C(=O)N1CCC[C@H]1C(=O)N[C@@H](CC2=CNC3=CC=CC=C32)C(=O)N[C@@H](CO)C(=O)N[C@@H](CCC(=O)O)C(=O)N[C@@H](C)C(=O)N[C@@H](CCSC)C(=O)N[C@@H](CCSC)C(=O)O)NC(=O)[C@H](CCCN=C(N)N)N
> <PUBCHEM_CACTVS_TPSA>
649
> <PUBCHEM_MONOISOTOPIC_WEIGHT>
1460.69044076
> <PUBCHEM_TOTAL_CHARGE>
0
> <PUBCHEM_HEAVY_ATOM_COUNT>
101
> <PUBCHEM_ATOM_DEF_STEREO_COUNT>
14
> <PUBCHEM_ATOM_UDEF_STEREO_COUNT>
0
> <PUBCHEM_BOND_DEF_STEREO_COUNT>
0
> <PUBCHEM_BOND_UDEF_STEREO_COUNT>
0
> <PUBCHEM_ISOTOPIC_ATOM_COUNT>
0
> <PUBCHEM_COMPONENT_COUNT>
1
> <PUBCHEM_CACTVS_TAUTO_COUNT>
-1
> <PUBCHEM_COORDINATE_TYPE>
1
5
255
> <PUBCHEM_BONDANNOTATIONS>
43  22  5
49  23  5
53  24  6
59  25  6
26  58  8
26  60  8
62  27  5
75  28  5
68  30  6
86  32  6
81  33  5
91  34  5
95  36  6
39  46  5
45  48  6
55  57  8
55  58  8
57  60  8
57  64  8
60  66  8
64  71  8
66  72  8
70  76  5
71  72  8
$$$$
