516482
  -OEChem-10302200282D
128130  0     1  0  0  0  0  0999 V2000
    8.0094   -1.2737    0.0000 O   0  0  0  0  0  0  0  0  0  0  0  0
    8.7331   -4.1283    0.0000 O   0  0  0  0  0  0  0  0  0  0  0  0
    9.5842    1.9698    0.0000 O   0  0  0  0  0  0  0  0  0  0  0  0
    6.1350   -1.6283    0.0000 O   0  0  0  0  0  0  0  0  0  0  0  0
    9.7921    2.9479    0.0000 O   0  0  0  0  0  0  0  0  0  0  0  0
    6.4037    3.6682    0.0000 O   0  0  0  0  0  0  0  0  0  0  0  0
   10.7432    3.2569    0.0000 O   0  0  0  0  0  0  0  0  0  0  0  0
    3.4030   -1.1283    0.0000 O   0  0  0  0  0  0  0  0  0  0  0  0
    2.5369   -2.6283    0.0000 O   0  0  0  0  0  0  0  0  0  0  0  0
    3.4030   -4.1283    0.0000 O   0  0  0  0  0  0  0  0  0  0  0  0
   13.8043    5.1621    0.0000 O   0  0  0  0  0  0  0  0  0  0  0  0
    9.6727    6.5515    0.0000 O   0  0  0  0  0  0  0  0  0  0  0  0
    9.7036   -1.6338    0.0000 N   0  0  0  0  0  0  0  0  0  0  0  0
    8.4253    0.6826    0.0000 N   0  0  0  0  0  0  0  0  0  0  0  0
    7.8671   -2.6283    0.0000 N   0  0  0  0  0  0  0  0  0  0  0  0
    8.0979    3.3080    0.0000 N   0  0  0  0  0  0  0  0  0  0  0  0
    5.1350   -3.1283    0.0000 N   0  0  0  0  0  0  0  0  0  0  0  0
    4.5601   -4.9602    0.0000 N   0  0  0  0  0  0  0  0  0  0  0  0
   10.2080    4.9042    0.0000 N   0  0  0  0  0  0  0  0  0  0  0  0
   12.6453    3.8750    0.0000 N   0  0  0  0  0  0  0  0  0  0  0  0
    5.2448    2.3810    0.0000 N   0  0  0  0  0  0  0  0  0  0  0  0
    7.9785    6.9116    0.0000 N   0  0  0  0  0  0  0  0  0  0  0  0
   15.2906    3.8239    0.0000 N   0  0  0  0  0  0  0  0  0  0  0  0
    9.5991   -2.6283    0.0000 C   0  0  1  0  0  0  0  0  0  0  0  0
   10.5127   -3.0350    0.0000 C   0  0  0  0  0  0  0  0  0  0  0  0
   10.6818   -1.4259    0.0000 C   0  0  0  0  0  0  0  0  0  0  0  0
   11.1818   -2.2919    0.0000 C   0  0  0  0  0  0  0  0  0  0  0  0
    9.1684    0.0135    0.0000 C   0  0  2  0  0  0  0  0  0  0  0  0
    8.9605   -0.9647    0.0000 C   0  0  0  0  0  0  0  0  0  0  0  0
   10.1195    0.3225    0.0000 C   0  0  2  0  0  0  0  0  0  0  0  0
    8.7331   -3.1283    0.0000 C   0  0  0  0  0  0  0  0  0  0  0  0
   10.3274    1.3007    0.0000 C   0  0  0  0  0  0  0  0  0  0  0  0
   10.8626   -0.3466    0.0000 C   0  0  0  0  0  0  0  0  0  0  0  0
    7.0010   -3.1283    0.0000 C   0  0  1  0  0  0  0  0  0  0  0  0
    8.6332    1.6608    0.0000 C   0  0  0  0  0  0  0  0  0  0  0  0
   11.2784    1.6097    0.0000 C   0  0  0  0  0  0  0  0  0  0  0  0
    7.0010   -4.1283    0.0000 C   0  0  0  0  0  0  0  0  0  0  0  0
    7.8900    2.3299    0.0000 C   0  0  2  0  0  0  0  0  0  0  0  0
    6.1350   -2.6283    0.0000 C   0  0  0  0  0  0  0  0  0  0  0  0
    6.1350   -4.6283    0.0000 C   0  0  0  0  0  0  0  0  0  0  0  0
    6.9390    2.0209    0.0000 C   0  0  0  0  0  0  0  0  0  0  0  0
    6.0320   -5.6170    0.0000 C   0  0  0  0  0  0  0  0  0  0  0  0
    5.2272   -4.2232    0.0000 C   0  0  0  0  0  0  0  0  0  0  0  0
    9.2569    4.5952    0.0000 C   0  0  2  0  0  0  0  0  0  0  0  0
   12.1101    5.5223    0.0000 C   0  0  2  0  0  0  0  0  0  0  0  0
    9.0490    3.6171    0.0000 C   0  0  0  0  0  0  0  0  0  0  0  0
   11.9022    4.5441    0.0000 C   0  0  1  0  0  0  0  0  0  0  0  0
    5.0534   -5.8232    0.0000 C   0  0  0  0  0  0  0  0  0  0  0  0
    4.2690   -2.6283    0.0000 C   0  0  1  0  0  0  0  0  0  0  0  0
    6.1958    2.6900    0.0000 C   0  0  0  0  0  0  0  0  0  0  0  0
   13.0611    5.8313    0.0000 C   0  0  0  0  0  0  0  0  0  0  0  0
   10.9511    4.2351    0.0000 C   0  0  0  0  0  0  0  0  0  0  0  0
    6.6998   -6.3613    0.0000 C   0  0  0  0  0  0  0  0  0  0  0  0
    8.5138    5.2643    0.0000 C   0  0  0  0  0  0  0  0  0  0  0  0
   11.3669    6.1914    0.0000 C   0  0  0  0  0  0  0  0  0  0  0  0
    4.7428   -6.7738    0.0000 C   0  0  0  0  0  0  0  0  0  0  0  0
    4.2690   -1.6283    0.0000 C   0  0  0  0  0  0  0  0  0  0  0  0
    6.3891   -7.3118    0.0000 C   0  0  0  0  0  0  0  0  0  0  0  0
   13.2690    6.8094    0.0000 C   0  0  0  0  0  0  0  0  0  0  0  0
    5.4106   -7.5181    0.0000 C   0  0  0  0  0  0  0  0  0  0  0  0
    3.4030   -3.1283    0.0000 C   0  0  0  0  0  0  0  0  0  0  0  0
   13.5964    4.1840    0.0000 C   0  0  0  0  0  0  0  0  0  0  0  0
    8.7217    6.2425    0.0000 C   0  0  0  0  0  0  0  0  0  0  0  0
   14.3395    3.5149    0.0000 C   0  0  2  0  0  0  0  0  0  0  0  0
   14.1316    2.5367    0.0000 C   0  0  0  0  0  0  0  0  0  0  0  0
    9.0791   -2.2906    0.0000 H   0  0  0  0  0  0  0  0  0  0  0  0
   10.2027   -3.5720    0.0000 H   0  0  0  0  0  0  0  0  0  0  0  0
   11.0142   -3.3995    0.0000 H   0  0  0  0  0  0  0  0  0  0  0  0
   11.2482   -1.1737    0.0000 H   0  0  0  0  0  0  0  0  0  0  0  0
   10.4902   -0.8362    0.0000 H   0  0  0  0  0  0  0  0  0  0  0  0
   11.5966   -2.7526    0.0000 H   0  0  0  0  0  0  0  0  0  0  0  0
   11.6834   -1.9275    0.0000 H   0  0  0  0  0  0  0  0  0  0  0  0
    9.2973    0.6199    0.0000 H   0  0  0  0  0  0  0  0  0  0  0  0
    9.9906   -0.2839    0.0000 H   0  0  0  0  0  0  0  0  0  0  0  0
   10.2411    1.9146    0.0000 H   0  0  0  0  0  0  0  0  0  0  0  0
    9.7078    1.3223    0.0000 H   0  0  0  0  0  0  0  0  0  0  0  0
    7.8356    0.4910    0.0000 H   0  0  0  0  0  0  0  0  0  0  0  0
    7.8671   -2.0083    0.0000 H   0  0  0  0  0  0  0  0  0  0  0  0
   10.4477   -0.8074    0.0000 H   0  0  0  0  0  0  0  0  0  0  0  0
   11.3234   -0.7615    0.0000 H   0  0  0  0  0  0  0  0  0  0  0  0
   11.2775    0.1141    0.0000 H   0  0  0  0  0  0  0  0  0  0  0  0
    7.5380   -3.4383    0.0000 H   0  0  0  0  0  0  0  0  0  0  0  0
   11.4700    1.0200    0.0000 H   0  0  0  0  0  0  0  0  0  0  0  0
   11.8681    1.8013    0.0000 H   0  0  0  0  0  0  0  0  0  0  0  0
   11.0868    2.1993    0.0000 H   0  0  0  0  0  0  0  0  0  0  0  0
    7.2131   -4.7109    0.0000 H   0  0  0  0  0  0  0  0  0  0  0  0
    7.6116   -4.0206    0.0000 H   0  0  0  0  0  0  0  0  0  0  0  0
    8.4797    2.5215    0.0000 H   0  0  0  0  0  0  0  0  0  0  0  0
    6.4504    1.6392    0.0000 H   0  0  0  0  0  0  0  0  0  0  0  0
    7.2300    1.4735    0.0000 H   0  0  0  0  0  0  0  0  0  0  0  0
    7.6372    3.7229    0.0000 H   0  0  0  0  0  0  0  0  0  0  0  0
    5.6720   -3.4383    0.0000 H   0  0  0  0  0  0  0  0  0  0  0  0
    5.0994   -3.6165    0.0000 H   0  0  0  0  0  0  0  0  0  0  0  0
    9.7177    4.1804    0.0000 H   0  0  0  0  0  0  0  0  0  0  0  0
   11.5204    5.3307    0.0000 H   0  0  0  0  0  0  0  0  0  0  0  0
   12.4918    4.7357    0.0000 H   0  0  0  0  0  0  0  0  0  0  0  0
    4.8059   -2.3183    0.0000 H   0  0  0  0  0  0  0  0  0  0  0  0
    3.9438   -4.8933    0.0000 H   0  0  0  0  0  0  0  0  0  0  0  0
   13.1474    5.2173    0.0000 H   0  0  0  0  0  0  0  0  0  0  0  0
   13.6808    5.8096    0.0000 H   0  0  0  0  0  0  0  0  0  0  0  0
   10.3369    5.5107    0.0000 H   0  0  0  0  0  0  0  0  0  0  0  0
    7.3065   -6.2335    0.0000 H   0  0  0  0  0  0  0  0  0  0  0  0
    7.9389    5.4966    0.0000 H   0  0  0  0  0  0  0  0  0  0  0  0
    8.1852    4.7386    0.0000 H   0  0  0  0  0  0  0  0  0  0  0  0
   11.7818    6.6521    0.0000 H   0  0  0  0  0  0  0  0  0  0  0  0
   10.9062    6.6063    0.0000 H   0  0  0  0  0  0  0  0  0  0  0  0
   10.9521    5.7306    0.0000 H   0  0  0  0  0  0  0  0  0  0  0  0
   12.5164    3.2685    0.0000 H   0  0  0  0  0  0  0  0  0  0  0  0
    4.1361   -6.9016    0.0000 H   0  0  0  0  0  0  0  0  0  0  0  0
    4.8796   -1.7360    0.0000 H   0  0  0  0  0  0  0  0  0  0  0  0
    4.4810   -1.0457    0.0000 H   0  0  0  0  0  0  0  0  0  0  0  0
    6.8032   -7.7733    0.0000 H   0  0  0  0  0  0  0  0  0  0  0  0
   13.8755    6.6805    0.0000 H   0  0  0  0  0  0  0  0  0  0  0  0
   13.3980    7.4159    0.0000 H   0  0  0  0  0  0  0  0  0  0  0  0
   12.6626    6.9383    0.0000 H   0  0  0  0  0  0  0  0  0  0  0  0
    5.2180   -8.1074    0.0000 H   0  0  0  0  0  0  0  0  0  0  0  0
    4.7840    2.7959    0.0000 H   0  0  0  0  0  0  0  0  0  0  0  0
    5.1159    1.7745    0.0000 H   0  0  0  0  0  0  0  0  0  0  0  0
   14.4684    4.1213    0.0000 H   0  0  0  0  0  0  0  0  0  0  0  0
    3.4030   -0.5083    0.0000 H   0  0  0  0  0  0  0  0  0  0  0  0
   13.5252    2.6656    0.0000 H   0  0  0  0  0  0  0  0  0  0  0  0
   14.0027    1.9303    0.0000 H   0  0  0  0  0  0  0  0  0  0  0  0
   14.7381    2.4078    0.0000 H   0  0  0  0  0  0  0  0  0  0  0  0
    2.0000   -2.9383    0.0000 H   0  0  0  0  0  0  0  0  0  0  0  0
    8.1074    7.5181    0.0000 H   0  0  0  0  0  0  0  0  0  0  0  0
    7.3889    6.7200    0.0000 H   0  0  0  0  0  0  0  0  0  0  0  0
   15.7513    3.4090    0.0000 H   0  0  0  0  0  0  0  0  0  0  0  0
   15.4195    4.4303    0.0000 H   0  0  0  0  0  0  0  0  0  0  0  0
  1 29  2  0  0  0  0
  2 31  2  0  0  0  0
  3 35  2  0  0  0  0
  4 39  2  0  0  0  0
  5 46  2  0  0  0  0
  6 50  2  0  0  0  0
  7 52  2  0  0  0  0
  8 57  1  0  0  0  0
  8120  1  0  0  0  0
  9 61  1  0  0  0  0
  9124  1  0  0  0  0
 10 61  2  0  0  0  0
 11 62  2  0  0  0  0
 12 63  2  0  0  0  0
 13 24  1  0  0  0  0
 13 26  1  0  0  0  0
 13 29  1  0  0  0  0
 28 14  1  1  0  0  0
 14 35  1  0  0  0  0
 14 77  1  0  0  0  0
 15 31  1  0  0  0  0
 34 15  1  1  0  0  0
 15 78  1  0  0  0  0
 38 16  1  6  0  0  0
 16 46  1  0  0  0  0
 16 91  1  0  0  0  0
 17 39  1  0  0  0  0
 49 17  1  6  0  0  0
 17 92  1  0  0  0  0
 18 43  1  0  0  0  0
 18 48  1  0  0  0  0
 18 98  1  0  0  0  0
 44 19  1  6  0  0  0
 19 52  1  0  0  0  0
 19101  1  0  0  0  0
 47 20  1  6  0  0  0
 20 62  1  0  0  0  0
 20108  1  0  0  0  0
 21 50  1  0  0  0  0
 21117  1  0  0  0  0
 21118  1  0  0  0  0
 22 63  1  0  0  0  0
 22125  1  0  0  0  0
 22126  1  0  0  0  0
 64 23  1  1  0  0  0
 23127  1  0  0  0  0
 23128  1  0  0  0  0
 24 25  1  0  0  0  0
 24 31  1  1  0  0  0
 24 66  1  0  0  0  0
 25 27  1  0  0  0  0
 25 67  1  0  0  0  0
 25 68  1  0  0  0  0
 26 27  1  0  0  0  0
 26 69  1  0  0  0  0
 26 70  1  0  0  0  0
 27 71  1  0  0  0  0
 27 72  1  0  0  0  0
 28 29  1  0  0  0  0
 28 30  1  0  0  0  0
 28 73  1  0  0  0  0
 30 32  1  0  0  0  0
 30 33  1  6  0  0  0
 30 74  1  0  0  0  0
 32 36  1  0  0  0  0
 32 75  1  0  0  0  0
 32 76  1  0  0  0  0
 33 79  1  0  0  0  0
 33 80  1  0  0  0  0
 33 81  1  0  0  0  0
 34 37  1  0  0  0  0
 34 39  1  0  0  0  0
 34 82  1  0  0  0  0
 35 38  1  0  0  0  0
 36 83  1  0  0  0  0
 36 84  1  0  0  0  0
 36 85  1  0  0  0  0
 37 40  1  0  0  0  0
 37 86  1  0  0  0  0
 37 87  1  0  0  0  0
 38 41  1  0  0  0  0
 38 88  1  0  0  0  0
 40 42  1  0  0  0  0
 40 43  2  0  0  0  0
 41 50  1  0  0  0  0
 41 89  1  0  0  0  0
 41 90  1  0  0  0  0
 42 48  1  0  0  0  0
 42 53  2  0  0  0  0
 43 93  1  0  0  0  0
 44 46  1  0  0  0  0
 44 54  1  0  0  0  0
 44 94  1  0  0  0  0
 45 47  1  0  0  0  0
 45 51  1  0  0  0  0
 45 55  1  1  0  0  0
 45 95  1  0  0  0  0
 47 52  1  0  0  0  0
 47 96  1  0  0  0  0
 48 56  2  0  0  0  0
 49 57  1  0  0  0  0
 49 61  1  0  0  0  0
 49 97  1  0  0  0  0
 51 59  1  0  0  0  0
 51 99  1  0  0  0  0
 51100  1  0  0  0  0
 53 58  1  0  0  0  0
 53102  1  0  0  0  0
 54 63  1  0  0  0  0
 54103  1  0  0  0  0
 54104  1  0  0  0  0
 55105  1  0  0  0  0
 55106  1  0  0  0  0
 55107  1  0  0  0  0
 56 60  1  0  0  0  0
 56109  1  0  0  0  0
 57110  1  0  0  0  0
 57111  1  0  0  0  0
 58 60  2  0  0  0  0
 58112  1  0  0  0  0
 59113  1  0  0  0  0
 59114  1  0  0  0  0
 59115  1  0  0  0  0
 60116  1  0  0  0  0
 62 64  1  0  0  0  0
 64 65  1  0  0  0  0
 64119  1  0  0  0  0
 65121  1  0  0  0  0
 65122  1  0  0  0  0
 65123  1  0  0  0  0
M  END
> <PUBCHEM_COMPOUND_CID>
516482
> <PUBCHEM_COMPOUND_CANONICALIZED>
1
> <PUBCHEM_CACTVS_COMPLEXITY>
1750
> <PUBCHEM_CACTVS_HBOND_ACCEPTOR>
13
> <PUBCHEM_CACTVS_HBOND_DONOR>
12
> <PUBCHEM_CACTVS_ROTATABLE_BOND>
25
> <PUBCHEM_CACTVS_SUBSKEYS>
AAADcfB//AAAAAAAAAAAAAAAAAAAAWLAAAAwAAAAAAAAAFgB8AAAHgAQCAAADSjhngY+yPPJkgCoAzX3XACCgCAxAiAI2aG4ZJgKcP7A0bGUYAhhtgDYyAcdicCOgAAAAAACAAAAAAAAAAQAAAAAAAAAAA==
> <PUBCHEM_IUPAC_OPENEYE_NAME>
(2S)-2-[[(2S)-2-[[(2S)-1-[(2S,3S)-2-[[(2S)-4-amino-2-[[(2S)-4-amino-2-[[(2S,3S)-2-[[(2S)-2-aminopropanoyl]amino]-3-methyl-pentanoyl]amino]-4-oxo-butanoyl]amino]-4-oxo-butanoyl]amino]-3-methyl-pentanoyl]pyrrolidine-2-carbonyl]amino]-3-(1H-indol-3-yl)propanoyl]amino]-3-hydroxy-propanoic acid
> <PUBCHEM_IUPAC_CAS_NAME>
(2S)-2-[[(2S)-2-[[[(2S)-1-[(2S,3S)-2-[[(2S)-4-amino-2-[[(2S)-4-amino-2-[[(2S,3S)-2-[[(2S)-2-amino-1-oxopropyl]amino]-3-methyl-1-oxopentyl]amino]-1,4-dioxobutyl]amino]-1,4-dioxobutyl]amino]-3-methyl-1-oxopentyl]-2-pyrrolidinyl]-oxomethyl]amino]-3-(1H-indol-3-yl)-1-oxopropyl]amino]-3-hydroxypropanoic acid
> <PUBCHEM_IUPAC_NAME_MARKUP>
(2<I>S</I>)-2-[[(2<I>S</I>)-2-[[(2<I>S</I>)-1-[(2<I>S</I>,3<I>S</I>)-2-[[(2<I>S</I>)-4-amino-2-[[(2<I>S</I>)-4-amino-2-[[(2<I>S</I>,3<I>S</I>)-2-[[(2<I>S</I>)-2-aminopropanoyl]amino]-3-methylpentanoyl]amino]-4-oxobutanoyl]amino]-4-oxobutanoyl]amino]-3-methylpentanoyl]pyrrolidine-2-carbonyl]amino]-3-(1<I>H</I>-indol-3-yl)propanoyl]amino]-3-hydroxypropanoic acid
> <PUBCHEM_IUPAC_NAME>
(2S)-2-[[(2S)-2-[[(2S)-1-[(2S,3S)-2-[[(2S)-4-amino-2-[[(2S)-4-amino-2-[[(2S,3S)-2-[[(2S)-2-aminopropanoyl]amino]-3-methylpentanoyl]amino]-4-oxobutanoyl]amino]-4-oxobutanoyl]amino]-3-methylpentanoyl]pyrrolidine-2-carbonyl]amino]-3-(1H-indol-3-yl)propanoyl]amino]-3-hydroxypropanoic acid
> <PUBCHEM_IUPAC_SYSTEMATIC_NAME>
(2S)-2-[[(2S)-2-[[(2S)-1-[(2S,3S)-2-[[(2S)-4-azanyl-2-[[(2S)-4-azanyl-2-[[(2S,3S)-2-[[(2S)-2-azanylpropanoyl]amino]-3-methyl-pentanoyl]amino]-4-oxidanylidene-butanoyl]amino]-4-oxidanylidene-butanoyl]amino]-3-methyl-pentanoyl]pyrrolidin-2-yl]carbonylamino]-3-(1H-indol-3-yl)propanoyl]amino]-3-oxidanyl-propanoic acid
> <PUBCHEM_IUPAC_TRADITIONAL_NAME>
(2S)-2-[[(2S)-2-[[(2S)-1-[(2S,3S)-2-[[(2S)-4-amino-2-[[(2S)-4-amino-2-[[(2S,3S)-2-[[(2S)-2-aminopropanoyl]amino]-3-methyl-pentanoyl]amino]-4-keto-butanoyl]amino]-4-keto-butanoyl]amino]-3-methyl-pentanoyl]prolyl]amino]-3-(1H-indol-3-yl)propanoyl]amino]-3-hydroxy-propionic acid
> <PUBCHEM_IUPAC_INCHI>
InChI=1S/C42H63N11O12/c1-6-20(3)33(51-35(57)22(5)43)40(62)49-27(16-31(44)55)37(59)47-28(17-32(45)56)38(60)52-34(21(4)7-2)41(63)53-14-10-13-30(53)39(61)48-26(36(58)50-29(19-54)42(64)65)15-23-18-46-25-12-9-8-11-24(23)25/h8-9,11-12,18,20-22,26-30,33-34,46,54H,6-7,10,13-17,19,43H2,1-5H3,(H2,44,55)(H2,45,56)(H,47,59)(H,48,61)(H,49,62)(H,50,58)(H,51,57)(H,52,60)(H,64,65)/t20-,21-,22-,26-,27-,28-,29-,30-,33-,34-/m0/s1
> <PUBCHEM_IUPAC_INCHIKEY>
TWAWZLITLJZYFA-WIGPXRTESA-N
> <PUBCHEM_XLOGP3_AA>
-4.2
> <PUBCHEM_EXACT_MASS>
913.46576649
> <PUBCHEM_MOLECULAR_FORMULA>
C42H63N11O12
> <PUBCHEM_MOLECULAR_WEIGHT>
914.0
> <PUBCHEM_OPENEYE_CAN_SMILES>
CCC(C)C(C(=O)NC(CC(=O)N)C(=O)NC(CC(=O)N)C(=O)NC(C(C)CC)C(=O)N1CCCC1C(=O)NC(CC2=CNC3=CC=CC=C32)C(=O)NC(CO)C(=O)O)NC(=O)C(C)N
> <PUBCHEM_OPENEYE_ISO_SMILES>
CC[C@H](C)[C@@H](C(=O)N[C@@H](CC(=O)N)C(=O)N[C@@H](CC(=O)N)C(=O)N[C@@H]([C@@H](C)CC)C(=O)N1CCC[C@H]1C(=O)N[C@@H](CC2=CNC3=CC=CC=C32)C(=O)N[C@@H](CO)C(=O)O)NC(=O)[C@H](C)N
> <PUBCHEM_CACTVS_TPSA>
380
> <PUBCHEM_MONOISOTOPIC_WEIGHT>
913.46576649
> <PUBCHEM_TOTAL_CHARGE>
0
> <PUBCHEM_HEAVY_ATOM_COUNT>
65
> <PUBCHEM_ATOM_DEF_STEREO_COUNT>
10
> <PUBCHEM_ATOM_UDEF_STEREO_COUNT>
0
> <PUBCHEM_BOND_DEF_STEREO_COUNT>
0
> <PUBCHEM_BOND_UDEF_STEREO_COUNT>
0
> <PUBCHEM_ISOTOPIC_ATOM_COUNT>
0
> <PUBCHEM_COMPONENT_COUNT>
1
> <PUBCHEM_CACTVS_TAUTO_COUNT>
-1
> <PUBCHEM_COORDINATE_TYPE>
1
5
255
> <PUBCHEM_BONDANNOTATIONS>
28  14  5
34  15  5
38  16  6
49  17  6
18  43  8
18  48  8
44  19  6
47  20  6
64  23  5
24  31  5
30  33  6
40  42  8
40  43  8
42  48  8
42  53  8
45  55  5
48  56  8
53  58  8
56  60  8
58  60  8
$$$$
