516465
  -OEChem-10302200282D
 43 45  0     1  0  0  0  0  0999 V2000
    8.8712   -1.1307    0.0000 O   0  0  0  0  0  0  0  0  0  0  0  0
    6.9744   -2.8907    0.0000 O   0  0  0  0  0  0  0  0  0  0  0  0
   10.1445   -2.7862    0.0000 O   0  0  0  0  0  0  0  0  0  0  0  0
    9.7942    0.4571    0.0000 O   0  0  0  0  0  0  0  0  0  0  0  0
    8.0622    3.4571    0.0000 O   0  0  0  0  0  0  0  0  0  0  0  0
    2.0000    0.9571    0.0000 O   0  5  0  0  0  0  0  0  0  0  0  0
    2.8660   -0.5429    0.0000 O   0  0  0  0  0  0  0  0  0  0  0  0
    8.0622    0.4571    0.0000 N   0  0  0  0  0  0  0  0  0  0  0  0
    8.9282    1.9571    0.0000 N   0  0  0  0  0  0  0  0  0  0  0  0
    2.8660    0.4571    0.0000 N   0  3  0  0  0  0  0  0  0  0  0  0
    8.0622   -0.5429    0.0000 C   0  0  1  0  0  0  0  0  0  0  0  0
    7.5622   -2.0817    0.0000 C   0  0  1  0  0  0  0  0  0  0  0  0
    7.2532   -1.1307    0.0000 C   0  0  0  0  0  0  0  0  0  0  0  0
    8.5622   -2.0817    0.0000 C   0  0  1  0  0  0  0  0  0  0  0  0
    9.1500   -2.8907    0.0000 C   0  0  0  0  0  0  0  0  0  0  0  0
    7.1962    0.9571    0.0000 C   0  0  0  0  0  0  0  0  0  0  0  0
    8.9282    0.9571    0.0000 C   0  0  0  0  0  0  0  0  0  0  0  0
    7.1962    1.9571    0.0000 C   0  0  0  0  0  0  0  0  0  0  0  0
    6.3301    2.4571    0.0000 C   0  0  0  0  0  0  0  0  0  0  0  0
    8.0622    2.4571    0.0000 C   0  0  0  0  0  0  0  0  0  0  0  0
    5.4641    1.9571    0.0000 C   0  0  0  0  0  0  0  0  0  0  0  0
    5.4641    0.9571    0.0000 C   0  0  0  0  0  0  0  0  0  0  0  0
    4.5981    2.4571    0.0000 C   0  0  0  0  0  0  0  0  0  0  0  0
    4.5981    0.4571    0.0000 C   0  0  0  0  0  0  0  0  0  0  0  0
    3.7320    1.9571    0.0000 C   0  0  0  0  0  0  0  0  0  0  0  0
    3.7320    0.9571    0.0000 C   0  0  0  0  0  0  0  0  0  0  0  0
    7.5098   -0.2614    0.0000 H   0  0  0  0  0  0  0  0  0  0  0  0
    6.9498   -1.9847    0.0000 H   0  0  0  0  0  0  0  0  0  0  0  0
    6.9432   -0.5937    0.0000 H   0  0  0  0  0  0  0  0  0  0  0  0
    6.6868   -1.3828    0.0000 H   0  0  0  0  0  0  0  0  0  0  0  0
    9.1745   -1.9847    0.0000 H   0  0  0  0  0  0  0  0  0  0  0  0
    8.5927   -3.1625    0.0000 H   0  0  0  0  0  0  0  0  0  0  0  0
    9.3209   -3.4867    0.0000 H   0  0  0  0  0  0  0  0  0  0  0  0
    6.6592    0.6471    0.0000 H   0  0  0  0  0  0  0  0  0  0  0  0
    7.2266   -3.4571    0.0000 H   0  0  0  0  0  0  0  0  0  0  0  0
    6.7287    2.9321    0.0000 H   0  0  0  0  0  0  0  0  0  0  0  0
    5.9316    2.9321    0.0000 H   0  0  0  0  0  0  0  0  0  0  0  0
    9.4651    2.2671    0.0000 H   0  0  0  0  0  0  0  0  0  0  0  0
   10.5089   -3.2878    0.0000 H   0  0  0  0  0  0  0  0  0  0  0  0
    6.0010    0.6471    0.0000 H   0  0  0  0  0  0  0  0  0  0  0  0
    4.5981    3.0771    0.0000 H   0  0  0  0  0  0  0  0  0  0  0  0
    4.5981   -0.1629    0.0000 H   0  0  0  0  0  0  0  0  0  0  0  0
    3.1951    2.2671    0.0000 H   0  0  0  0  0  0  0  0  0  0  0  0
  1 11  1  0  0  0  0
  1 14  1  0  0  0  0
 12  2  1  1  0  0  0
  2 35  1  0  0  0  0
  3 15  1  0  0  0  0
  3 39  1  0  0  0  0
  4 17  2  0  0  0  0
  5 20  2  0  0  0  0
  6 10  1  0  0  0  0
  7 10  2  0  0  0  0
 11  8  1  6  0  0  0
  8 16  1  0  0  0  0
  8 17  1  0  0  0  0
  9 17  1  0  0  0  0
  9 20  1  0  0  0  0
  9 38  1  0  0  0  0
 10 26  1  0  0  0  0
 11 13  1  0  0  0  0
 11 27  1  0  0  0  0
 12 13  1  0  0  0  0
 12 14  1  0  0  0  0
 12 28  1  0  0  0  0
 13 29  1  0  0  0  0
 13 30  1  0  0  0  0
 14 15  1  6  0  0  0
 14 31  1  0  0  0  0
 15 32  1  0  0  0  0
 15 33  1  0  0  0  0
 16 18  2  0  0  0  0
 16 34  1  0  0  0  0
 18 19  1  0  0  0  0
 18 20  1  0  0  0  0
 19 21  1  0  0  0  0
 19 36  1  0  0  0  0
 19 37  1  0  0  0  0
 21 22  2  0  0  0  0
 21 23  1  0  0  0  0
 22 24  1  0  0  0  0
 22 40  1  0  0  0  0
 23 25  2  0  0  0  0
 23 41  1  0  0  0  0
 24 26  2  0  0  0  0
 24 42  1  0  0  0  0
 25 26  1  0  0  0  0
 25 43  1  0  0  0  0
M  CHG  2   6  -1  10   1
M  END
> <PUBCHEM_COMPOUND_CID>
516465
> <PUBCHEM_COMPOUND_CANONICALIZED>
1
> <PUBCHEM_CACTVS_COMPLEXITY>
610
> <PUBCHEM_CACTVS_HBOND_ACCEPTOR>
7
> <PUBCHEM_CACTVS_HBOND_DONOR>
3
> <PUBCHEM_CACTVS_ROTATABLE_BOND>
4
> <PUBCHEM_CACTVS_SUBSKEYS>
AAADceB7OAAAAAAAAAAAAAAAAAAAASAAAAAwQAAAAAAAAAABAAAAHgAUCAAADBzhmAYxwIPQRgCJAiVWUwCCAAAgAgAoiAEIZMqJMDKAkZGOYABvhyILyMe4uIKOCAAAAAAAAAAQAAAAAAAAAAAAAAAAAA==
> <PUBCHEM_IUPAC_OPENEYE_NAME>
1-[(2R,4S,5R)-4-hydroxy-5-(hydroxymethyl)tetrahydrofuran-2-yl]-5-[(4-nitrophenyl)methyl]pyrimidine-2,4-dione
> <PUBCHEM_IUPAC_CAS_NAME>
1-[(2R,4S,5R)-4-hydroxy-5-(hydroxymethyl)-2-oxolanyl]-5-[(4-nitrophenyl)methyl]pyrimidine-2,4-dione
> <PUBCHEM_IUPAC_NAME_MARKUP>
1-[(2<I>R</I>,4<I>S</I>,5<I>R</I>)-4-hydroxy-5-(hydroxymethyl)oxolan-2-yl]-5-[(4-nitrophenyl)methyl]pyrimidine-2,4-dione
> <PUBCHEM_IUPAC_NAME>
1-[(2R,4S,5R)-4-hydroxy-5-(hydroxymethyl)oxolan-2-yl]-5-[(4-nitrophenyl)methyl]pyrimidine-2,4-dione
> <PUBCHEM_IUPAC_SYSTEMATIC_NAME>
1-[(2R,4S,5R)-5-(hydroxymethyl)-4-oxidanyl-oxolan-2-yl]-5-[(4-nitrophenyl)methyl]pyrimidine-2,4-dione
> <PUBCHEM_IUPAC_TRADITIONAL_NAME>
1-[(2R,4S,5R)-4-hydroxy-5-methylol-tetrahydrofuran-2-yl]-5-(4-nitrobenzyl)pyrimidine-2,4-quinone
> <PUBCHEM_IUPAC_INCHI>
InChI=1S/C16H17N3O7/c20-8-13-12(21)6-14(26-13)18-7-10(15(22)17-16(18)23)5-9-1-3-11(4-2-9)19(24)25/h1-4,7,12-14,20-21H,5-6,8H2,(H,17,22,23)/t12-,13+,14+/m0/s1
> <PUBCHEM_IUPAC_INCHIKEY>
CLHDVEKVVSPYCW-BFHYXJOUSA-N
> <PUBCHEM_XLOGP3>
0.2
> <PUBCHEM_EXACT_MASS>
363.10664989
> <PUBCHEM_MOLECULAR_FORMULA>
C16H17N3O7
> <PUBCHEM_MOLECULAR_WEIGHT>
363.32
> <PUBCHEM_OPENEYE_CAN_SMILES>
C1C(C(OC1N2C=C(C(=O)NC2=O)CC3=CC=C(C=C3)[N+](=O)[O-])CO)O
> <PUBCHEM_OPENEYE_ISO_SMILES>
C1[C@@H]([C@H](O[C@H]1N2C=C(C(=O)NC2=O)CC3=CC=C(C=C3)[N+](=O)[O-])CO)O
> <PUBCHEM_CACTVS_TPSA>
145
> <PUBCHEM_MONOISOTOPIC_WEIGHT>
363.10664989
> <PUBCHEM_TOTAL_CHARGE>
0
> <PUBCHEM_HEAVY_ATOM_COUNT>
26
> <PUBCHEM_ATOM_DEF_STEREO_COUNT>
3
> <PUBCHEM_ATOM_UDEF_STEREO_COUNT>
0
> <PUBCHEM_BOND_DEF_STEREO_COUNT>
0
> <PUBCHEM_BOND_UDEF_STEREO_COUNT>
0
> <PUBCHEM_ISOTOPIC_ATOM_COUNT>
0
> <PUBCHEM_COMPONENT_COUNT>
1
> <PUBCHEM_CACTVS_TAUTO_COUNT>
-1
> <PUBCHEM_COORDINATE_TYPE>
1
5
255
> <PUBCHEM_BONDANNOTATIONS>
14  15  6
16  18  8
18  20  8
12  2  5
21  22  8
21  23  8
22  24  8
23  25  8
24  26  8
25  26  8
11  8  6
8  16  8
8  17  8
9  17  8
9  20  8
$$$$
