516468
  -OEChem-10302200282D
 47 50  0     1  0  0  0  0  0999 V2000
    6.6053    2.0621    0.0000 O   0  0  0  0  0  0  0  0  0  0  0  0
    5.6782   -0.7911    0.0000 N   0  0  0  0  0  0  0  0  0  0  0  0
    4.5124    1.4853    0.0000 C   0  0  3  0  0  0  0  0  0  0  0  0
    5.3181    0.9031    0.0000 C   0  0  0  0  0  0  0  0  0  0  0  0
    5.0091   -0.0480    0.0000 C   0  0  0  0  0  0  0  0  0  0  0  0
    3.7086    0.9003    0.0000 C   0  0  0  0  0  0  0  0  0  0  0  0
    4.0150   -0.0454    0.0000 C   0  0  0  0  0  0  0  0  0  0  0  0
    6.6564   -0.5832    0.0000 C   0  0  0  0  0  0  0  0  0  0  0  0
    6.2962    1.1110    0.0000 C   0  0  0  0  0  0  0  0  0  0  0  0
    6.9654    0.3679    0.0000 C   0  0  0  0  0  0  0  0  0  0  0  0
    4.5106    2.4853    0.0000 C   0  0  0  0  0  0  0  0  0  0  0  0
    5.3692   -1.7422    0.0000 C   0  0  0  0  0  0  0  0  0  0  0  0
    2.6994    1.1321    0.0000 C   0  0  0  0  0  0  0  0  0  0  0  0
    3.3334   -0.8249    0.0000 C   0  0  0  0  0  0  0  0  0  0  0  0
    7.9808    0.6001    0.0000 C   0  0  0  0  0  0  0  0  0  0  0  0
    8.6837   -0.1686    0.0000 C   0  0  0  0  0  0  0  0  0  0  0  0
    7.3413   -1.3679    0.0000 C   0  0  0  0  0  0  0  0  0  0  0  0
    9.6610    0.0431    0.0000 C   0  0  0  0  0  0  0  0  0  0  0  0
    8.3618   -1.1592    0.0000 C   0  0  0  0  0  0  0  0  0  0  0  0
    2.0000    0.3685    0.0000 C   0  0  0  0  0  0  0  0  0  0  0  0
    2.3191   -0.6165    0.0000 C   0  0  0  0  0  0  0  0  0  0  0  0
    6.0383   -2.4853    0.0000 C   0  0  0  0  0  0  0  0  0  0  0  0
   10.3330   -0.6975    0.0000 C   0  0  0  0  0  0  0  0  0  0  0  0
    9.9664    0.9953    0.0000 C   0  0  0  0  0  0  0  0  0  0  0  0
    5.0642    1.7680    0.0000 H   0  0  0  0  0  0  0  0  0  0  0  0
    5.1306    2.4864    0.0000 H   0  0  0  0  0  0  0  0  0  0  0  0
    4.5096    3.1053    0.0000 H   0  0  0  0  0  0  0  0  0  0  0  0
    3.8906    2.4842    0.0000 H   0  0  0  0  0  0  0  0  0  0  0  0
    4.8218   -1.4511    0.0000 H   0  0  0  0  0  0  0  0  0  0  0  0
    4.9875   -2.2307    0.0000 H   0  0  0  0  0  0  0  0  0  0  0  0
    2.5152    1.7240    0.0000 H   0  0  0  0  0  0  0  0  0  0  0  0
    3.5313   -1.4124    0.0000 H   0  0  0  0  0  0  0  0  0  0  0  0
    8.1655    1.1919    0.0000 H   0  0  0  0  0  0  0  0  0  0  0  0
    7.1429   -1.9553    0.0000 H   0  0  0  0  0  0  0  0  0  0  0  0
    9.2444    0.5023    0.0000 H   0  0  0  0  0  0  0  0  0  0  0  0
    8.7749   -1.6216    0.0000 H   0  0  0  0  0  0  0  0  0  0  0  0
    1.3942    0.5003    0.0000 H   0  0  0  0  0  0  0  0  0  0  0  0
    1.9056   -1.0785    0.0000 H   0  0  0  0  0  0  0  0  0  0  0  0
    5.5776   -2.9002    0.0000 H   0  0  0  0  0  0  0  0  0  0  0  0
    6.4532   -2.9461    0.0000 H   0  0  0  0  0  0  0  0  0  0  0  0
    6.4991   -2.0704    0.0000 H   0  0  0  0  0  0  0  0  0  0  0  0
    9.8739   -1.1141    0.0000 H   0  0  0  0  0  0  0  0  0  0  0  0
   10.7497   -1.1566    0.0000 H   0  0  0  0  0  0  0  0  0  0  0  0
   10.7922   -0.2808    0.0000 H   0  0  0  0  0  0  0  0  0  0  0  0
   10.5568    0.8060    0.0000 H   0  0  0  0  0  0  0  0  0  0  0  0
   10.1557    1.5857    0.0000 H   0  0  0  0  0  0  0  0  0  0  0  0
    9.3760    1.1847    0.0000 H   0  0  0  0  0  0  0  0  0  0  0  0
  1  9  2  0  0  0  0
  2  5  1  0  0  0  0
  2  8  1  0  0  0  0
  2 12  1  0  0  0  0
  3  4  1  0  0  0  0
  3  6  1  0  0  0  0
  3 11  1  0  0  0  0
  3 25  1  0  0  0  0
  4  5  2  0  0  0  0
  4  9  1  0  0  0  0
  5  7  1  0  0  0  0
  6  7  1  0  0  0  0
  6 13  2  0  0  0  0
  7 14  2  0  0  0  0
  8 10  2  0  0  0  0
  8 17  1  0  0  0  0
  9 10  1  0  0  0  0
 10 15  1  0  0  0  0
 11 26  1  0  0  0  0
 11 27  1  0  0  0  0
 11 28  1  0  0  0  0
 12 22  1  0  0  0  0
 12 29  1  0  0  0  0
 12 30  1  0  0  0  0
 13 20  1  0  0  0  0
 13 31  1  0  0  0  0
 14 21  1  0  0  0  0
 14 32  1  0  0  0  0
 15 16  2  0  0  0  0
 15 33  1  0  0  0  0
 16 18  1  0  0  0  0
 16 19  1  0  0  0  0
 17 19  2  0  0  0  0
 17 34  1  0  0  0  0
 18 23  1  0  0  0  0
 18 24  1  0  0  0  0
 18 35  1  0  0  0  0
 19 36  1  0  0  0  0
 20 21  2  0  0  0  0
 20 37  1  0  0  0  0
 21 38  1  0  0  0  0
 22 39  1  0  0  0  0
 22 40  1  0  0  0  0
 22 41  1  0  0  0  0
 23 42  1  0  0  0  0
 23 43  1  0  0  0  0
 23 44  1  0  0  0  0
 24 45  1  0  0  0  0
 24 46  1  0  0  0  0
 24 47  1  0  0  0  0
M  END
> <PUBCHEM_COMPOUND_CID>
516468
> <PUBCHEM_COMPOUND_CANONICALIZED>
1
> <PUBCHEM_CACTVS_COMPLEXITY>
548
> <PUBCHEM_CACTVS_HBOND_ACCEPTOR>
2
> <PUBCHEM_CACTVS_HBOND_DONOR>
0
> <PUBCHEM_CACTVS_ROTATABLE_BOND>
2
> <PUBCHEM_CACTVS_SUBSKEYS>
AAADceB6IAAAAAAAAAAAAAAAAAAAAQAAAAAwYIAAAAAAAFiBQAAAHgAAAAAADQzBmAQywIMAAACIAqRSQACCAAAlAgAIiAEIZMgIIDrAlZGEIYhggADIyccYiMCOiAACAAASAAAQAAQAACQAAAAAAAAAAA==
> <PUBCHEM_IUPAC_OPENEYE_NAME>
5-ethyl-8-isopropyl-11-methyl-11H-indeno[1,2-b]quinolin-10-one
> <PUBCHEM_IUPAC_CAS_NAME>
5-ethyl-11-methyl-8-propan-2-yl-11H-indeno[1,2-b]quinolin-10-one
> <PUBCHEM_IUPAC_NAME_MARKUP>
5-ethyl-11-methyl-8-propan-2-yl-11<I>H</I>-indeno[1,2-b]quinolin-10-one
> <PUBCHEM_IUPAC_NAME>
5-ethyl-11-methyl-8-propan-2-yl-11H-indeno[1,2-b]quinolin-10-one
> <PUBCHEM_IUPAC_SYSTEMATIC_NAME>
5-ethyl-11-methyl-8-propan-2-yl-11H-indeno[1,2-b]quinolin-10-one
> <PUBCHEM_IUPAC_TRADITIONAL_NAME>
5-ethyl-8-isopropyl-11-methyl-11H-indeno[1,2-b]quinolin-10-one
> <PUBCHEM_IUPAC_INCHI>
InChI=1S/C22H23NO/c1-5-23-19-11-10-15(13(2)3)12-18(19)22(24)20-14(4)16-8-6-7-9-17(16)21(20)23/h6-14H,5H2,1-4H3
> <PUBCHEM_IUPAC_INCHIKEY>
MGDHNESCHYIJTB-UHFFFAOYSA-N
> <PUBCHEM_XLOGP3_AA>
5.2
> <PUBCHEM_EXACT_MASS>
317.177964357
> <PUBCHEM_MOLECULAR_FORMULA>
C22H23NO
> <PUBCHEM_MOLECULAR_WEIGHT>
317.4
> <PUBCHEM_OPENEYE_CAN_SMILES>
CCN1C2=C(C=C(C=C2)C(C)C)C(=O)C3=C1C4=CC=CC=C4C3C
> <PUBCHEM_OPENEYE_ISO_SMILES>
CCN1C2=C(C=C(C=C2)C(C)C)C(=O)C3=C1C4=CC=CC=C4C3C
> <PUBCHEM_CACTVS_TPSA>
20.3
> <PUBCHEM_MONOISOTOPIC_WEIGHT>
317.177964357
> <PUBCHEM_TOTAL_CHARGE>
0
> <PUBCHEM_HEAVY_ATOM_COUNT>
24
> <PUBCHEM_ATOM_DEF_STEREO_COUNT>
0
> <PUBCHEM_ATOM_UDEF_STEREO_COUNT>
1
> <PUBCHEM_BOND_DEF_STEREO_COUNT>
0
> <PUBCHEM_BOND_UDEF_STEREO_COUNT>
0
> <PUBCHEM_ISOTOPIC_ATOM_COUNT>
0
> <PUBCHEM_COMPONENT_COUNT>
1
> <PUBCHEM_CACTVS_TAUTO_COUNT>
-1
> <PUBCHEM_COORDINATE_TYPE>
1
5
255
> <PUBCHEM_BONDANNOTATIONS>
10  15  8
13  20  8
14  21  8
15  16  8
16  19  8
17  19  8
2  5  8
2  8  8
20  21  8
3  11  3
4  5  8
4  9  8
6  13  8
6  7  8
7  14  8
8  10  8
8  17  8
9  10  8
$$$$
