516464
  -OEChem-10302200282D
 41 43  0     1  0  0  0  0  0999 V2000
    7.1391   -1.1307    0.0000 O   0  0  0  0  0  0  0  0  0  0  0  0
    5.2423   -2.8907    0.0000 O   0  0  0  0  0  0  0  0  0  0  0  0
    8.4124   -2.7862    0.0000 O   0  0  0  0  0  0  0  0  0  0  0  0
    8.0622    0.4571    0.0000 O   0  0  0  0  0  0  0  0  0  0  0  0
    6.3301    3.4571    0.0000 O   0  0  0  0  0  0  0  0  0  0  0  0
    6.3301    0.4571    0.0000 N   0  0  0  0  0  0  0  0  0  0  0  0
    7.1962    1.9571    0.0000 N   0  0  0  0  0  0  0  0  0  0  0  0
    6.3301   -0.5429    0.0000 C   0  0  1  0  0  0  0  0  0  0  0  0
    5.8301   -2.0817    0.0000 C   0  0  1  0  0  0  0  0  0  0  0  0
    5.5211   -1.1307    0.0000 C   0  0  0  0  0  0  0  0  0  0  0  0
    6.8301   -2.0817    0.0000 C   0  0  1  0  0  0  0  0  0  0  0  0
    7.4179   -2.8907    0.0000 C   0  0  0  0  0  0  0  0  0  0  0  0
    5.4641    0.9571    0.0000 C   0  0  0  0  0  0  0  0  0  0  0  0
    7.1962    0.9571    0.0000 C   0  0  0  0  0  0  0  0  0  0  0  0
    5.4641    1.9571    0.0000 C   0  0  0  0  0  0  0  0  0  0  0  0
    4.5981    2.4571    0.0000 C   0  0  0  0  0  0  0  0  0  0  0  0
    6.3301    2.4571    0.0000 C   0  0  0  0  0  0  0  0  0  0  0  0
    3.7320    1.9571    0.0000 C   0  0  0  0  0  0  0  0  0  0  0  0
    3.7320    0.9571    0.0000 C   0  0  0  0  0  0  0  0  0  0  0  0
    2.8660    2.4571    0.0000 C   0  0  0  0  0  0  0  0  0  0  0  0
    2.8660    0.4571    0.0000 C   0  0  0  0  0  0  0  0  0  0  0  0
    2.0000    1.9571    0.0000 C   0  0  0  0  0  0  0  0  0  0  0  0
    2.0000    0.9571    0.0000 C   0  0  0  0  0  0  0  0  0  0  0  0
    6.8826   -0.2614    0.0000 H   0  0  0  0  0  0  0  0  0  0  0  0
    5.2178   -1.9847    0.0000 H   0  0  0  0  0  0  0  0  0  0  0  0
    5.2111   -0.5937    0.0000 H   0  0  0  0  0  0  0  0  0  0  0  0
    4.9547   -1.3828    0.0000 H   0  0  0  0  0  0  0  0  0  0  0  0
    7.4425   -1.9847    0.0000 H   0  0  0  0  0  0  0  0  0  0  0  0
    6.8607   -3.1625    0.0000 H   0  0  0  0  0  0  0  0  0  0  0  0
    7.5888   -3.4867    0.0000 H   0  0  0  0  0  0  0  0  0  0  0  0
    4.9272    0.6471    0.0000 H   0  0  0  0  0  0  0  0  0  0  0  0
    5.4945   -3.4571    0.0000 H   0  0  0  0  0  0  0  0  0  0  0  0
    4.9966    2.9321    0.0000 H   0  0  0  0  0  0  0  0  0  0  0  0
    4.1996    2.9321    0.0000 H   0  0  0  0  0  0  0  0  0  0  0  0
    7.7331    2.2671    0.0000 H   0  0  0  0  0  0  0  0  0  0  0  0
    8.7769   -3.2878    0.0000 H   0  0  0  0  0  0  0  0  0  0  0  0
    4.2690    0.6471    0.0000 H   0  0  0  0  0  0  0  0  0  0  0  0
    2.8660    3.0771    0.0000 H   0  0  0  0  0  0  0  0  0  0  0  0
    2.8660   -0.1629    0.0000 H   0  0  0  0  0  0  0  0  0  0  0  0
    1.4631    2.2671    0.0000 H   0  0  0  0  0  0  0  0  0  0  0  0
    1.4631    0.6471    0.0000 H   0  0  0  0  0  0  0  0  0  0  0  0
  1  8  1  0  0  0  0
  1 11  1  0  0  0  0
  9  2  1  1  0  0  0
  2 32  1  0  0  0  0
  3 12  1  0  0  0  0
  3 36  1  0  0  0  0
  4 14  2  0  0  0  0
  5 17  2  0  0  0  0
  8  6  1  6  0  0  0
  6 13  1  0  0  0  0
  6 14  1  0  0  0  0
  7 14  1  0  0  0  0
  7 17  1  0  0  0  0
  7 35  1  0  0  0  0
  8 10  1  0  0  0  0
  8 24  1  0  0  0  0
  9 10  1  0  0  0  0
  9 11  1  0  0  0  0
  9 25  1  0  0  0  0
 10 26  1  0  0  0  0
 10 27  1  0  0  0  0
 11 12  1  6  0  0  0
 11 28  1  0  0  0  0
 12 29  1  0  0  0  0
 12 30  1  0  0  0  0
 13 15  2  0  0  0  0
 13 31  1  0  0  0  0
 15 16  1  0  0  0  0
 15 17  1  0  0  0  0
 16 18  1  0  0  0  0
 16 33  1  0  0  0  0
 16 34  1  0  0  0  0
 18 19  2  0  0  0  0
 18 20  1  0  0  0  0
 19 21  1  0  0  0  0
 19 37  1  0  0  0  0
 20 22  2  0  0  0  0
 20 38  1  0  0  0  0
 21 23  2  0  0  0  0
 21 39  1  0  0  0  0
 22 23  1  0  0  0  0
 22 40  1  0  0  0  0
 23 41  1  0  0  0  0
M  END
> <PUBCHEM_COMPOUND_CID>
516464
> <PUBCHEM_COMPOUND_CANONICALIZED>
1
> <PUBCHEM_CACTVS_COMPLEXITY>
501
> <PUBCHEM_CACTVS_HBOND_ACCEPTOR>
5
> <PUBCHEM_CACTVS_HBOND_DONOR>
3
> <PUBCHEM_CACTVS_ROTATABLE_BOND>
4
> <PUBCHEM_CACTVS_SUBSKEYS>
AAADceB7OAAAAAAAAAAAAAAAAAAAASAAAAAwQAAAAAAAAAABAAAAHgAQCAAADBThmAYxAIPABgCIAiFWUACCAAAgAAAIiAEIAMiJMDKAkRCOYAAvhyILiMe4uIKOAAAAAAAAAAAAAAAAAAAAAAAAAAAAAA==
> <PUBCHEM_IUPAC_OPENEYE_NAME>
5-benzyl-1-[(2R,4S,5R)-4-hydroxy-5-(hydroxymethyl)tetrahydrofuran-2-yl]pyrimidine-2,4-dione
> <PUBCHEM_IUPAC_CAS_NAME>
1-[(2R,4S,5R)-4-hydroxy-5-(hydroxymethyl)-2-oxolanyl]-5-(phenylmethyl)pyrimidine-2,4-dione
> <PUBCHEM_IUPAC_NAME_MARKUP>
5-benzyl-1-[(2<I>R</I>,4<I>S</I>,5<I>R</I>)-4-hydroxy-5-(hydroxymethyl)oxolan-2-yl]pyrimidine-2,4-dione
> <PUBCHEM_IUPAC_NAME>
5-benzyl-1-[(2R,4S,5R)-4-hydroxy-5-(hydroxymethyl)oxolan-2-yl]pyrimidine-2,4-dione
> <PUBCHEM_IUPAC_SYSTEMATIC_NAME>
1-[(2R,4S,5R)-5-(hydroxymethyl)-4-oxidanyl-oxolan-2-yl]-5-(phenylmethyl)pyrimidine-2,4-dione
> <PUBCHEM_IUPAC_TRADITIONAL_NAME>
5-benzyl-1-[(2R,4S,5R)-4-hydroxy-5-methylol-tetrahydrofuran-2-yl]pyrimidine-2,4-quinone
> <PUBCHEM_IUPAC_INCHI>
InChI=1S/C16H18N2O5/c19-9-13-12(20)7-14(23-13)18-8-11(15(21)17-16(18)22)6-10-4-2-1-3-5-10/h1-5,8,12-14,19-20H,6-7,9H2,(H,17,21,22)/t12-,13+,14+/m0/s1
> <PUBCHEM_IUPAC_INCHIKEY>
IDAYXYVYLMJASP-BFHYXJOUSA-N
> <PUBCHEM_XLOGP3>
0.4
> <PUBCHEM_EXACT_MASS>
318.12157168
> <PUBCHEM_MOLECULAR_FORMULA>
C16H18N2O5
> <PUBCHEM_MOLECULAR_WEIGHT>
318.32
> <PUBCHEM_OPENEYE_CAN_SMILES>
C1C(C(OC1N2C=C(C(=O)NC2=O)CC3=CC=CC=C3)CO)O
> <PUBCHEM_OPENEYE_ISO_SMILES>
C1[C@@H]([C@H](O[C@H]1N2C=C(C(=O)NC2=O)CC3=CC=CC=C3)CO)O
> <PUBCHEM_CACTVS_TPSA>
99.1
> <PUBCHEM_MONOISOTOPIC_WEIGHT>
318.12157168
> <PUBCHEM_TOTAL_CHARGE>
0
> <PUBCHEM_HEAVY_ATOM_COUNT>
23
> <PUBCHEM_ATOM_DEF_STEREO_COUNT>
3
> <PUBCHEM_ATOM_UDEF_STEREO_COUNT>
0
> <PUBCHEM_BOND_DEF_STEREO_COUNT>
0
> <PUBCHEM_BOND_UDEF_STEREO_COUNT>
0
> <PUBCHEM_ISOTOPIC_ATOM_COUNT>
0
> <PUBCHEM_COMPONENT_COUNT>
1
> <PUBCHEM_CACTVS_TAUTO_COUNT>
-1
> <PUBCHEM_COORDINATE_TYPE>
1
5
255
> <PUBCHEM_BONDANNOTATIONS>
11  12  6
13  15  8
15  17  8
18  19  8
18  20  8
19  21  8
9  2  5
20  22  8
21  23  8
22  23  8
6  13  8
6  14  8
8  6  6
7  14  8
7  17  8
$$$$
