516481
  -OEChem-10302200282D
141143  0     1  0  0  0  0  0999 V2000
    8.0094   -4.4213    0.0000 O   0  0  0  0  0  0  0  0  0  0  0  0
    8.7331   -7.2760    0.0000 O   0  0  0  0  0  0  0  0  0  0  0  0
    9.5842   -1.1779    0.0000 O   0  0  0  0  0  0  0  0  0  0  0  0
    6.1350   -4.7760    0.0000 O   0  0  0  0  0  0  0  0  0  0  0  0
    9.7921   -0.1997    0.0000 O   0  0  0  0  0  0  0  0  0  0  0  0
    6.4037    0.5205    0.0000 O   0  0  0  0  0  0  0  0  0  0  0  0
    9.6727    3.4038    0.0000 O   0  0  0  0  0  0  0  0  0  0  0  0
    3.4030   -4.2760    0.0000 O   0  0  0  0  0  0  0  0  0  0  0  0
    2.5369   -5.7760    0.0000 O   0  0  0  0  0  0  0  0  0  0  0  0
    6.4922    5.1022    0.0000 O   0  0  0  0  0  0  0  0  0  0  0  0
    3.4030   -7.2760    0.0000 O   0  0  0  0  0  0  0  0  0  0  0  0
   10.7432    0.1093    0.0000 O   0  0  0  0  0  0  0  0  0  0  0  0
    9.7036   -4.7815    0.0000 N   0  0  0  0  0  0  0  0  0  0  0  0
    8.4253   -2.4650    0.0000 N   0  0  0  0  0  0  0  0  0  0  0  0
    7.8671   -5.7760    0.0000 N   0  0  0  0  0  0  0  0  0  0  0  0
    8.0979    0.1604    0.0000 N   0  0  0  0  0  0  0  0  0  0  0  0
    5.1350   -6.2760    0.0000 N   0  0  0  0  0  0  0  0  0  0  0  0
    4.5601   -8.1079    0.0000 N   0  0  0  0  0  0  0  0  0  0  0  0
    8.5138    2.1167    0.0000 N   0  0  0  0  0  0  0  0  0  0  0  0
    8.1864    4.7421    0.0000 N   0  0  0  0  0  0  0  0  0  0  0  0
    5.2448   -0.7667    0.0000 N   0  0  0  0  0  0  0  0  0  0  0  0
    6.9081    7.0585    0.0000 N   0  0  0  0  0  0  0  0  0  0  0  0
   11.9022    1.3964    0.0000 N   0  0  0  0  0  0  0  0  0  0  0  0
    9.9692    8.9637    0.0000 N   0  0  0  0  0  0  0  0  0  0  0  0
   11.1281   10.2509    0.0000 N   0  0  0  0  0  0  0  0  0  0  0  0
   11.6633    8.6036    0.0000 N   0  0  0  0  0  0  0  0  0  0  0  0
    9.5991   -5.7760    0.0000 C   0  0  1  0  0  0  0  0  0  0  0  0
   10.5127   -6.1827    0.0000 C   0  0  0  0  0  0  0  0  0  0  0  0
   10.6818   -4.5735    0.0000 C   0  0  0  0  0  0  0  0  0  0  0  0
   11.1818   -5.4396    0.0000 C   0  0  0  0  0  0  0  0  0  0  0  0
    9.1684   -3.1342    0.0000 C   0  0  2  0  0  0  0  0  0  0  0  0
    8.9605   -4.1123    0.0000 C   0  0  0  0  0  0  0  0  0  0  0  0
   10.1195   -2.8252    0.0000 C   0  0  2  0  0  0  0  0  0  0  0  0
    8.7331   -6.2760    0.0000 C   0  0  0  0  0  0  0  0  0  0  0  0
   10.3274   -1.8470    0.0000 C   0  0  0  0  0  0  0  0  0  0  0  0
   10.8626   -3.4943    0.0000 C   0  0  0  0  0  0  0  0  0  0  0  0
    7.0010   -6.2760    0.0000 C   0  0  1  0  0  0  0  0  0  0  0  0
    8.6332   -1.4869    0.0000 C   0  0  0  0  0  0  0  0  0  0  0  0
   11.2784   -1.5380    0.0000 C   0  0  0  0  0  0  0  0  0  0  0  0
    7.0010   -7.2760    0.0000 C   0  0  0  0  0  0  0  0  0  0  0  0
    7.8900   -0.8178    0.0000 C   0  0  2  0  0  0  0  0  0  0  0  0
    6.1350   -5.7760    0.0000 C   0  0  0  0  0  0  0  0  0  0  0  0
    6.1350   -7.7760    0.0000 C   0  0  0  0  0  0  0  0  0  0  0  0
    6.9390   -1.1268    0.0000 C   0  0  0  0  0  0  0  0  0  0  0  0
    6.0320   -8.7647    0.0000 C   0  0  0  0  0  0  0  0  0  0  0  0
    5.2272   -7.3709    0.0000 C   0  0  0  0  0  0  0  0  0  0  0  0
    9.2569    1.4475    0.0000 C   0  0  2  0  0  0  0  0  0  0  0  0
    7.0275    3.4549    0.0000 C   0  0  2  0  0  0  0  0  0  0  0  0
    7.9785    3.7640    0.0000 C   0  0  1  0  0  0  0  0  0  0  0  0
    9.0490    0.4694    0.0000 C   0  0  0  0  0  0  0  0  0  0  0  0
    5.0534   -8.9709    0.0000 C   0  0  0  0  0  0  0  0  0  0  0  0
    4.2690   -5.7760    0.0000 C   0  0  1  0  0  0  0  0  0  0  0  0
    6.1958   -0.4577    0.0000 C   0  0  0  0  0  0  0  0  0  0  0  0
    6.2843    4.1241    0.0000 C   0  0  0  0  0  0  0  0  0  0  0  0
    8.7217    3.0948    0.0000 C   0  0  0  0  0  0  0  0  0  0  0  0
    6.6998   -9.5090    0.0000 C   0  0  0  0  0  0  0  0  0  0  0  0
   10.2080    1.7566    0.0000 C   0  0  0  0  0  0  0  0  0  0  0  0
    6.8196    2.4768    0.0000 C   0  0  0  0  0  0  0  0  0  0  0  0
    4.7428   -9.9214    0.0000 C   0  0  0  0  0  0  0  0  0  0  0  0
    4.2690   -4.7760    0.0000 C   0  0  0  0  0  0  0  0  0  0  0  0
    6.3891  -10.4595    0.0000 C   0  0  0  0  0  0  0  0  0  0  0  0
    5.3333    3.8150    0.0000 C   0  0  0  0  0  0  0  0  0  0  0  0
    7.4433    5.4112    0.0000 C   0  0  0  0  0  0  0  0  0  0  0  0
    7.6512    6.3894    0.0000 C   0  0  2  0  0  0  0  0  0  0  0  0
    3.4030   -6.2760    0.0000 C   0  0  0  0  0  0  0  0  0  0  0  0
    5.4106  -10.6657    0.0000 C   0  0  0  0  0  0  0  0  0  0  0  0
    8.6023    6.6984    0.0000 C   0  0  0  0  0  0  0  0  0  0  0  0
   10.9511    1.0874    0.0000 C   0  0  0  0  0  0  0  0  0  0  0  0
    8.8102    7.6766    0.0000 C   0  0  0  0  0  0  0  0  0  0  0  0
    9.7612    7.9856    0.0000 C   0  0  0  0  0  0  0  0  0  0  0  0
   10.9202    9.2727    0.0000 C   0  0  0  0  0  0  0  0  0  0  0  0
    9.0791   -5.4383    0.0000 H   0  0  0  0  0  0  0  0  0  0  0  0
   10.2027   -6.7196    0.0000 H   0  0  0  0  0  0  0  0  0  0  0  0
   11.0142   -6.5471    0.0000 H   0  0  0  0  0  0  0  0  0  0  0  0
   11.2482   -4.3214    0.0000 H   0  0  0  0  0  0  0  0  0  0  0  0
   10.4902   -3.9839    0.0000 H   0  0  0  0  0  0  0  0  0  0  0  0
   11.5966   -5.9003    0.0000 H   0  0  0  0  0  0  0  0  0  0  0  0
   11.6834   -5.0751    0.0000 H   0  0  0  0  0  0  0  0  0  0  0  0
    9.2973   -2.5277    0.0000 H   0  0  0  0  0  0  0  0  0  0  0  0
    9.9906   -3.4316    0.0000 H   0  0  0  0  0  0  0  0  0  0  0  0
   10.2411   -1.2330    0.0000 H   0  0  0  0  0  0  0  0  0  0  0  0
    9.7078   -1.8254    0.0000 H   0  0  0  0  0  0  0  0  0  0  0  0
    7.8356   -2.6566    0.0000 H   0  0  0  0  0  0  0  0  0  0  0  0
    7.8671   -5.1560    0.0000 H   0  0  0  0  0  0  0  0  0  0  0  0
   10.4477   -3.9550    0.0000 H   0  0  0  0  0  0  0  0  0  0  0  0
   11.3234   -3.9092    0.0000 H   0  0  0  0  0  0  0  0  0  0  0  0
   11.2775   -3.0335    0.0000 H   0  0  0  0  0  0  0  0  0  0  0  0
    7.5380   -6.5860    0.0000 H   0  0  0  0  0  0  0  0  0  0  0  0
   11.4700   -2.1276    0.0000 H   0  0  0  0  0  0  0  0  0  0  0  0
   11.8681   -1.3464    0.0000 H   0  0  0  0  0  0  0  0  0  0  0  0
   11.0868   -0.9483    0.0000 H   0  0  0  0  0  0  0  0  0  0  0  0
    7.2131   -7.8586    0.0000 H   0  0  0  0  0  0  0  0  0  0  0  0
    7.6116   -7.1683    0.0000 H   0  0  0  0  0  0  0  0  0  0  0  0
    8.4797   -0.6262    0.0000 H   0  0  0  0  0  0  0  0  0  0  0  0
    6.4504   -1.5085    0.0000 H   0  0  0  0  0  0  0  0  0  0  0  0
    7.2300   -1.6742    0.0000 H   0  0  0  0  0  0  0  0  0  0  0  0
    7.6372    0.5752    0.0000 H   0  0  0  0  0  0  0  0  0  0  0  0
    5.6720   -6.5860    0.0000 H   0  0  0  0  0  0  0  0  0  0  0  0
    5.0994   -6.7642    0.0000 H   0  0  0  0  0  0  0  0  0  0  0  0
    6.4378    3.2634    0.0000 H   0  0  0  0  0  0  0  0  0  0  0  0
    7.5178    4.1788    0.0000 H   0  0  0  0  0  0  0  0  0  0  0  0
    8.6672    1.2560    0.0000 H   0  0  0  0  0  0  0  0  0  0  0  0
    4.8059   -5.4660    0.0000 H   0  0  0  0  0  0  0  0  0  0  0  0
    3.9438   -8.0409    0.0000 H   0  0  0  0  0  0  0  0  0  0  0  0
    6.7729    4.5058    0.0000 H   0  0  0  0  0  0  0  0  0  0  0  0
    5.9933    4.6715    0.0000 H   0  0  0  0  0  0  0  0  0  0  0  0
    7.9241    1.9251    0.0000 H   0  0  0  0  0  0  0  0  0  0  0  0
    7.3065   -9.3811    0.0000 H   0  0  0  0  0  0  0  0  0  0  0  0
   10.6965    2.1383    0.0000 H   0  0  0  0  0  0  0  0  0  0  0  0
    9.9169    2.3040    0.0000 H   0  0  0  0  0  0  0  0  0  0  0  0
    6.2131    2.6057    0.0000 H   0  0  0  0  0  0  0  0  0  0  0  0
    6.6907    1.8703    0.0000 H   0  0  0  0  0  0  0  0  0  0  0  0
    7.4260    2.3479    0.0000 H   0  0  0  0  0  0  0  0  0  0  0  0
    8.7761    4.9337    0.0000 H   0  0  0  0  0  0  0  0  0  0  0  0
    4.1361  -10.0493    0.0000 H   0  0  0  0  0  0  0  0  0  0  0  0
    4.8796   -4.8836    0.0000 H   0  0  0  0  0  0  0  0  0  0  0  0
    4.4810   -4.1934    0.0000 H   0  0  0  0  0  0  0  0  0  0  0  0
    6.8032  -10.9210    0.0000 H   0  0  0  0  0  0  0  0  0  0  0  0
    5.1417    4.4047    0.0000 H   0  0  0  0  0  0  0  0  0  0  0  0
    4.7436    3.6235    0.0000 H   0  0  0  0  0  0  0  0  0  0  0  0
    5.5249    3.2254    0.0000 H   0  0  0  0  0  0  0  0  0  0  0  0
    7.7801    6.9958    0.0000 H   0  0  0  0  0  0  0  0  0  0  0  0
    5.2180  -11.2551    0.0000 H   0  0  0  0  0  0  0  0  0  0  0  0
    4.7840   -0.3518    0.0000 H   0  0  0  0  0  0  0  0  0  0  0  0
    5.1159   -1.3731    0.0000 H   0  0  0  0  0  0  0  0  0  0  0  0
    8.6886    6.0844    0.0000 H   0  0  0  0  0  0  0  0  0  0  0  0
    9.2219    6.6768    0.0000 H   0  0  0  0  0  0  0  0  0  0  0  0
    8.7239    8.2905    0.0000 H   0  0  0  0  0  0  0  0  0  0  0  0
    8.1906    7.6982    0.0000 H   0  0  0  0  0  0  0  0  0  0  0  0
    7.0370    7.6650    0.0000 H   0  0  0  0  0  0  0  0  0  0  0  0
    6.3184    6.8669    0.0000 H   0  0  0  0  0  0  0  0  0  0  0  0
    3.4030   -3.6560    0.0000 H   0  0  0  0  0  0  0  0  0  0  0  0
    9.8475    7.3716    0.0000 H   0  0  0  0  0  0  0  0  0  0  0  0
   10.3809    7.9639    0.0000 H   0  0  0  0  0  0  0  0  0  0  0  0
    2.0000   -6.0860    0.0000 H   0  0  0  0  0  0  0  0  0  0  0  0
   12.3629    0.9816    0.0000 H   0  0  0  0  0  0  0  0  0  0  0  0
   12.0311    2.0029    0.0000 H   0  0  0  0  0  0  0  0  0  0  0  0
   11.7178   10.4425    0.0000 H   0  0  0  0  0  0  0  0  0  0  0  0
   10.6674   10.6657    0.0000 H   0  0  0  0  0  0  0  0  0  0  0  0
   12.2530    8.7952    0.0000 H   0  0  0  0  0  0  0  0  0  0  0  0
   11.5344    7.9972    0.0000 H   0  0  0  0  0  0  0  0  0  0  0  0
  1 32  2  0  0  0  0
  2 34  2  0  0  0  0
  3 38  2  0  0  0  0
  4 42  2  0  0  0  0
  5 50  2  0  0  0  0
  6 53  2  0  0  0  0
  7 55  2  0  0  0  0
  8 60  1  0  0  0  0
  8132  1  0  0  0  0
  9 65  1  0  0  0  0
  9135  1  0  0  0  0
 10 63  2  0  0  0  0
 11 65  2  0  0  0  0
 12 68  2  0  0  0  0
 13 27  1  0  0  0  0
 13 29  1  0  0  0  0
 13 32  1  0  0  0  0
 31 14  1  1  0  0  0
 14 38  1  0  0  0  0
 14 83  1  0  0  0  0
 15 34  1  0  0  0  0
 37 15  1  1  0  0  0
 15 84  1  0  0  0  0
 41 16  1  6  0  0  0
 16 50  1  0  0  0  0
 16 97  1  0  0  0  0
 17 42  1  0  0  0  0
 52 17  1  6  0  0  0
 17 98  1  0  0  0  0
 18 46  1  0  0  0  0
 18 51  1  0  0  0  0
 18104  1  0  0  0  0
 47 19  1  1  0  0  0
 19 55  1  0  0  0  0
 19107  1  0  0  0  0
 49 20  1  6  0  0  0
 20 63  1  0  0  0  0
 20114  1  0  0  0  0
 21 53  1  0  0  0  0
 21124  1  0  0  0  0
 21125  1  0  0  0  0
 64 22  1  1  0  0  0
 22130  1  0  0  0  0
 22131  1  0  0  0  0
 23 68  1  0  0  0  0
 23136  1  0  0  0  0
 23137  1  0  0  0  0
 24 70  1  0  0  0  0
 24 71  2  0  0  0  0
 25 71  1  0  0  0  0
 25138  1  0  0  0  0
 25139  1  0  0  0  0
 26 71  1  0  0  0  0
 26140  1  0  0  0  0
 26141  1  0  0  0  0
 27 28  1  0  0  0  0
 27 34  1  1  0  0  0
 27 72  1  0  0  0  0
 28 30  1  0  0  0  0
 28 73  1  0  0  0  0
 28 74  1  0  0  0  0
 29 30  1  0  0  0  0
 29 75  1  0  0  0  0
 29 76  1  0  0  0  0
 30 77  1  0  0  0  0
 30 78  1  0  0  0  0
 31 32  1  0  0  0  0
 31 33  1  0  0  0  0
 31 79  1  0  0  0  0
 33 35  1  0  0  0  0
 33 36  1  6  0  0  0
 33 80  1  0  0  0  0
 35 39  1  0  0  0  0
 35 81  1  0  0  0  0
 35 82  1  0  0  0  0
 36 85  1  0  0  0  0
 36 86  1  0  0  0  0
 36 87  1  0  0  0  0
 37 40  1  0  0  0  0
 37 42  1  0  0  0  0
 37 88  1  0  0  0  0
 38 41  1  0  0  0  0
 39 89  1  0  0  0  0
 39 90  1  0  0  0  0
 39 91  1  0  0  0  0
 40 43  1  0  0  0  0
 40 92  1  0  0  0  0
 40 93  1  0  0  0  0
 41 44  1  0  0  0  0
 41 94  1  0  0  0  0
 43 45  1  0  0  0  0
 43 46  2  0  0  0  0
 44 53  1  0  0  0  0
 44 95  1  0  0  0  0
 44 96  1  0  0  0  0
 45 51  1  0  0  0  0
 45 56  2  0  0  0  0
 46 99  1  0  0  0  0
 47 50  1  0  0  0  0
 47 57  1  0  0  0  0
 47102  1  0  0  0  0
 48 49  1  0  0  0  0
 48 54  1  0  0  0  0
 48 58  1  1  0  0  0
 48100  1  0  0  0  0
 49 55  1  0  0  0  0
 49101  1  0  0  0  0
 51 59  2  0  0  0  0
 52 60  1  0  0  0  0
 52 65  1  0  0  0  0
 52103  1  0  0  0  0
 54 62  1  0  0  0  0
 54105  1  0  0  0  0
 54106  1  0  0  0  0
 56 61  1  0  0  0  0
 56108  1  0  0  0  0
 57 68  1  0  0  0  0
 57109  1  0  0  0  0
 57110  1  0  0  0  0
 58111  1  0  0  0  0
 58112  1  0  0  0  0
 58113  1  0  0  0  0
 59 66  1  0  0  0  0
 59115  1  0  0  0  0
 60116  1  0  0  0  0
 60117  1  0  0  0  0
 61 66  2  0  0  0  0
 61118  1  0  0  0  0
 62119  1  0  0  0  0
 62120  1  0  0  0  0
 62121  1  0  0  0  0
 63 64  1  0  0  0  0
 64 67  1  0  0  0  0
 64122  1  0  0  0  0
 66123  1  0  0  0  0
 67 69  1  0  0  0  0
 67126  1  0  0  0  0
 67127  1  0  0  0  0
 69 70  1  0  0  0  0
 69128  1  0  0  0  0
 69129  1  0  0  0  0
 70133  1  0  0  0  0
 70134  1  0  0  0  0
M  END
> <PUBCHEM_COMPOUND_CID>
516481
> <PUBCHEM_COMPOUND_CANONICALIZED>
1
> <PUBCHEM_CACTVS_COMPLEXITY>
1940
> <PUBCHEM_CACTVS_HBOND_ACCEPTOR>
14
> <PUBCHEM_CACTVS_HBOND_DONOR>
14
> <PUBCHEM_CACTVS_ROTATABLE_BOND>
29
> <PUBCHEM_CACTVS_SUBSKEYS>
AAADcfB//AAAAAAAAAAAAAAAAAAAAWLAAAAwAAAAAAAAAFgB8AAAHgAQCAAADSjhngY/yPPJkgCoAzX3fACCgCExAiAI2aG4ZJgKcP7A0bGUYAhhtgDYyAcdicCOgAAAAAACAAAAAAAAAAQAAAAAAAAAAA==
> <PUBCHEM_IUPAC_OPENEYE_NAME>
(2S)-2-[[(2S)-2-[[(2S)-1-[(2S,3S)-2-[[(2S)-4-amino-2-[[(2S)-4-amino-2-[[(2S,3S)-2-[[(2S)-2-amino-5-guanidino-pentanoyl]amino]-3-methyl-pentanoyl]amino]-4-oxo-butanoyl]amino]-4-oxo-butanoyl]amino]-3-methyl-pentanoyl]pyrrolidine-2-carbonyl]amino]-3-(1H-indol-3-yl)propanoyl]amino]-3-hydroxy-propanoic acid
> <PUBCHEM_IUPAC_CAS_NAME>
(2S)-2-[[(2S)-2-[[[(2S)-1-[(2S,3S)-2-[[(2S)-4-amino-2-[[(2S)-4-amino-2-[[(2S,3S)-2-[[(2S)-2-amino-5-(diaminomethylideneamino)-1-oxopentyl]amino]-3-methyl-1-oxopentyl]amino]-1,4-dioxobutyl]amino]-1,4-dioxobutyl]amino]-3-methyl-1-oxopentyl]-2-pyrrolidinyl]-oxomethyl]amino]-3-(1H-indol-3-yl)-1-oxopropyl]amino]-3-hydroxypropanoic acid
> <PUBCHEM_IUPAC_NAME_MARKUP>
(2<I>S</I>)-2-[[(2<I>S</I>)-2-[[(2<I>S</I>)-1-[(2<I>S</I>,3<I>S</I>)-2-[[(2<I>S</I>)-4-amino-2-[[(2<I>S</I>)-4-amino-2-[[(2<I>S</I>,3<I>S</I>)-2-[[(2<I>S</I>)-2-amino-5-(diaminomethylideneamino)pentanoyl]amino]-3-methylpentanoyl]amino]-4-oxobutanoyl]amino]-4-oxobutanoyl]amino]-3-methylpentanoyl]pyrrolidine-2-carbonyl]amino]-3-(1<I>H</I>-indol-3-yl)propanoyl]amino]-3-hydroxypropanoic acid
> <PUBCHEM_IUPAC_NAME>
(2S)-2-[[(2S)-2-[[(2S)-1-[(2S,3S)-2-[[(2S)-4-amino-2-[[(2S)-4-amino-2-[[(2S,3S)-2-[[(2S)-2-amino-5-(diaminomethylideneamino)pentanoyl]amino]-3-methylpentanoyl]amino]-4-oxobutanoyl]amino]-4-oxobutanoyl]amino]-3-methylpentanoyl]pyrrolidine-2-carbonyl]amino]-3-(1H-indol-3-yl)propanoyl]amino]-3-hydroxypropanoic acid
> <PUBCHEM_IUPAC_SYSTEMATIC_NAME>
(2S)-2-[[(2S)-2-[[(2S)-1-[(2S,3S)-2-[[(2S)-4-azanyl-2-[[(2S)-4-azanyl-2-[[(2S,3S)-2-[[(2S)-2-azanyl-5-[bis(azanyl)methylideneamino]pentanoyl]amino]-3-methyl-pentanoyl]amino]-4-oxidanylidene-butanoyl]amino]-4-oxidanylidene-butanoyl]amino]-3-methyl-pentanoyl]pyrrolidin-2-yl]carbonylamino]-3-(1H-indol-3-yl)propanoyl]amino]-3-oxidanyl-propanoic acid
> <PUBCHEM_IUPAC_TRADITIONAL_NAME>
(2S)-2-[[(2S)-2-[[(2S)-1-[(2S,3S)-2-[[(2S)-4-amino-2-[[(2S)-4-amino-2-[[(2S,3S)-2-[[(2S)-2-amino-5-guanidino-pentanoyl]amino]-3-methyl-pentanoyl]amino]-4-keto-butanoyl]amino]-4-keto-butanoyl]amino]-3-methyl-pentanoyl]prolyl]amino]-3-(1H-indol-3-yl)propanoyl]amino]-3-hydroxy-propionic acid
> <PUBCHEM_IUPAC_INCHI>
InChI=1S/C45H70N14O12/c1-5-22(3)35(57-37(63)26(46)12-9-15-51-45(49)50)42(68)55-29(18-33(47)61)39(65)53-30(19-34(48)62)40(66)58-36(23(4)6-2)43(69)59-16-10-14-32(59)41(67)54-28(38(64)56-31(21-60)44(70)71)17-24-20-52-27-13-8-7-11-25(24)27/h7-8,11,13,20,22-23,26,28-32,35-36,52,60H,5-6,9-10,12,14-19,21,46H2,1-4H3,(H2,47,61)(H2,48,62)(H,53,65)(H,54,67)(H,55,68)(H,56,64)(H,57,63)(H,58,66)(H,70,71)(H4,49,50,51)/t22-,23-,26-,28-,29-,30-,31-,32-,35-,36-/m0/s1
> <PUBCHEM_IUPAC_INCHIKEY>
YOMYCPKAVBFCQD-BYZMNQPQSA-N
> <PUBCHEM_XLOGP3_AA>
-5.4
> <PUBCHEM_EXACT_MASS>
998.52976372
> <PUBCHEM_MOLECULAR_FORMULA>
C45H70N14O12
> <PUBCHEM_MOLECULAR_WEIGHT>
999.1
> <PUBCHEM_OPENEYE_CAN_SMILES>
CCC(C)C(C(=O)NC(CC(=O)N)C(=O)NC(CC(=O)N)C(=O)NC(C(C)CC)C(=O)N1CCCC1C(=O)NC(CC2=CNC3=CC=CC=C32)C(=O)NC(CO)C(=O)O)NC(=O)C(CCCN=C(N)N)N
> <PUBCHEM_OPENEYE_ISO_SMILES>
CC[C@H](C)[C@@H](C(=O)N[C@@H](CC(=O)N)C(=O)N[C@@H](CC(=O)N)C(=O)N[C@@H]([C@@H](C)CC)C(=O)N1CCC[C@H]1C(=O)N[C@@H](CC2=CNC3=CC=CC=C32)C(=O)N[C@@H](CO)C(=O)O)NC(=O)[C@H](CCCN=C(N)N)N
> <PUBCHEM_CACTVS_TPSA>
445
> <PUBCHEM_MONOISOTOPIC_WEIGHT>
998.52976372
> <PUBCHEM_TOTAL_CHARGE>
0
> <PUBCHEM_HEAVY_ATOM_COUNT>
71
> <PUBCHEM_ATOM_DEF_STEREO_COUNT>
10
> <PUBCHEM_ATOM_UDEF_STEREO_COUNT>
0
> <PUBCHEM_BOND_DEF_STEREO_COUNT>
0
> <PUBCHEM_BOND_UDEF_STEREO_COUNT>
0
> <PUBCHEM_ISOTOPIC_ATOM_COUNT>
0
> <PUBCHEM_COMPONENT_COUNT>
1
> <PUBCHEM_CACTVS_TAUTO_COUNT>
-1
> <PUBCHEM_COORDINATE_TYPE>
1
5
255
> <PUBCHEM_BONDANNOTATIONS>
31  14  5
37  15  5
41  16  6
52  17  6
18  46  8
18  51  8
47  19  5
49  20  6
64  22  5
27  34  5
33  36  6
43  45  8
43  46  8
45  51  8
45  56  8
48  58  5
51  59  8
56  61  8
59  66  8
61  66  8
$$$$
