516530
  -OEChem-10302200282D
125130  0     1  0  0  0  0  0999 V2000
    8.8671    0.1331    0.0000 S   0  0  0  0  0  0  0  0  0  0  0  0
   12.7095   -0.8129    0.0000 O   0  0  0  0  0  0  0  0  0  0  0  0
   11.4651   -1.3669    0.0000 O   0  0  0  0  0  0  0  0  0  0  0  0
   12.9174    0.1653    0.0000 O   0  0  0  0  0  0  0  0  0  0  0  0
    8.8671   -3.8669    0.0000 O   0  0  0  0  0  0  0  0  0  0  0  0
   12.1742    0.8344    0.0000 O   0  0  0  0  0  0  0  0  0  0  0  0
    6.1350   -1.3669    0.0000 O   0  0  0  0  0  0  0  0  0  0  0  0
    2.5369   -2.3669    0.0000 O   0  0  0  0  0  0  0  0  0  0  0  0
    3.4030   -3.8669    0.0000 O   0  0  0  0  0  0  0  0  0  0  0  0
    3.4030    0.1331    0.0000 O   0  0  0  0  0  0  0  0  0  0  0  0
    2.5369   -1.3669    0.0000 O   0  0  0  0  0  0  0  0  0  0  0  0
   13.2447   -2.4601    0.0000 N   0  0  0  0  0  0  0  0  0  0  0  0
   10.5991   -2.8669    0.0000 N   0  0  0  0  0  0  0  0  0  0  0  0
   14.6116   -0.1948    0.0000 N   0  0  0  0  0  0  0  0  0  0  0  0
    7.8671   -2.3669    0.0000 N   0  0  0  0  0  0  0  0  0  0  0  0
   16.4069   -0.5820    0.0000 N   0  0  0  0  0  0  0  0  0  0  0  0
   13.3332    2.1216    0.0000 N   0  0  0  0  0  0  0  0  0  0  0  0
   17.7159   -1.5331    0.0000 N   0  0  0  0  0  0  0  0  0  0  0  0
   15.0643    4.3400    0.0000 N   0  0  0  0  0  0  0  0  0  0  0  0
    5.1350   -2.8669    0.0000 N   0  0  0  0  0  0  0  0  0  0  0  0
   10.6880    2.1727    0.0000 N   0  0  0  0  0  0  0  0  0  0  0  0
    6.0305   -5.3614    0.0000 N   0  0  0  0  0  0  0  0  0  0  0  0
    4.5523   -4.7033    0.0000 N   0  0  0  0  0  0  0  0  0  0  0  0
   12.3312   -2.8669    0.0000 C   0  0  1  0  0  0  0  0  0  0  0  0
   12.4357   -3.8614    0.0000 C   0  0  0  0  0  0  0  0  0  0  0  0
   13.4138   -4.0693    0.0000 C   0  0  0  0  0  0  0  0  0  0  0  0
   13.9138   -3.2033    0.0000 C   0  0  0  0  0  0  0  0  0  0  0  0
   13.4526   -1.4820    0.0000 C   0  0  0  0  0  0  0  0  0  0  0  0
   11.4651   -2.3669    0.0000 C   0  0  0  0  0  0  0  0  0  0  0  0
   14.4037   -1.1730    0.0000 C   0  0  2  0  0  0  0  0  0  0  0  0
   15.1468   -1.8421    0.0000 C   0  0  0  0  0  0  0  0  0  0  0  0
    9.7331   -2.3669    0.0000 C   0  0  1  0  0  0  0  0  0  0  0  0
    9.7331   -1.3669    0.0000 C   0  0  0  0  0  0  0  0  0  0  0  0
   16.0979   -1.5331    0.0000 C   0  0  0  0  0  0  0  0  0  0  0  0
   13.8684    0.4743    0.0000 C   0  0  0  0  0  0  0  0  0  0  0  0
   14.0764    1.4524    0.0000 C   0  0  2  0  0  0  0  0  0  0  0  0
    8.8671   -2.8669    0.0000 C   0  0  0  0  0  0  0  0  0  0  0  0
   15.0274    1.7615    0.0000 C   0  0  0  0  0  0  0  0  0  0  0  0
    8.8671   -0.8669    0.0000 C   0  0  0  0  0  0  0  0  0  0  0  0
   16.9069   -2.1209    0.0000 C   0  0  0  0  0  0  0  0  0  0  0  0
    7.0010   -2.8669    0.0000 C   0  0  1  0  0  0  0  0  0  0  0  0
   15.2353    2.7396    0.0000 C   0  0  0  0  0  0  0  0  0  0  0  0
   16.1438    3.1432    0.0000 C   0  0  0  0  0  0  0  0  0  0  0  0
    7.0010   -3.8669    0.0000 C   0  0  0  0  0  0  0  0  0  0  0  0
   17.4069   -0.5820    0.0000 C   0  0  0  0  0  0  0  0  0  0  0  0
   12.3822    1.8126    0.0000 C   0  0  0  0  0  0  0  0  0  0  0  0
   14.5695    3.4778    0.0000 C   0  0  0  0  0  0  0  0  0  0  0  0
   16.0376    4.1375    0.0000 C   0  0  0  0  0  0  0  0  0  0  0  0
   11.6390    2.4817    0.0000 C   0  0  2  0  0  0  0  0  0  0  0  0
    6.1350   -2.3669    0.0000 C   0  0  0  0  0  0  0  0  0  0  0  0
    6.1350   -4.3669    0.0000 C   0  0  0  0  0  0  0  0  0  0  0  0
   17.0581    2.7380    0.0000 C   0  0  0  0  0  0  0  0  0  0  0  0
   11.8469    3.4598    0.0000 C   0  0  0  0  0  0  0  0  0  0  0  0
   16.8456    4.7267    0.0000 C   0  0  0  0  0  0  0  0  0  0  0  0
    8.0010    0.6331    0.0000 C   0  0  0  0  0  0  0  0  0  0  0  0
    4.2690   -2.3669    0.0000 C   0  0  1  0  0  0  0  0  0  0  0  0
   17.8661    3.3272    0.0000 C   0  0  0  0  0  0  0  0  0  0  0  0
   17.7598    4.3215    0.0000 C   0  0  0  0  0  0  0  0  0  0  0  0
   11.1038    4.1290    0.0000 C   0  0  0  0  0  0  0  0  0  0  0  0
    5.2215   -3.9601    0.0000 C   0  0  0  0  0  0  0  0  0  0  0  0
    4.2690   -1.3669    0.0000 C   0  0  0  0  0  0  0  0  0  0  0  0
    5.0523   -5.5693    0.0000 C   0  0  0  0  0  0  0  0  0  0  0  0
    3.4030   -2.8669    0.0000 C   0  0  0  0  0  0  0  0  0  0  0  0
   10.1527    3.8200    0.0000 C   0  0  0  0  0  0  0  0  0  0  0  0
   11.3117    5.1071    0.0000 C   0  0  0  0  0  0  0  0  0  0  0  0
    3.4030   -0.8669    0.0000 C   0  0  0  0  0  0  0  0  0  0  0  0
    9.4096    4.4891    0.0000 C   0  0  0  0  0  0  0  0  0  0  0  0
   10.5685    5.7763    0.0000 C   0  0  0  0  0  0  0  0  0  0  0  0
    9.6175    5.4672    0.0000 C   0  0  0  0  0  0  0  0  0  0  0  0
   12.3636   -2.2477    0.0000 H   0  0  0  0  0  0  0  0  0  0  0  0
   11.8157   -3.8614    0.0000 H   0  0  0  0  0  0  0  0  0  0  0  0
   12.3709   -4.4780    0.0000 H   0  0  0  0  0  0  0  0  0  0  0  0
   13.2222   -4.6590    0.0000 H   0  0  0  0  0  0  0  0  0  0  0  0
   13.9802   -4.3215    0.0000 H   0  0  0  0  0  0  0  0  0  0  0  0
   14.4154   -3.5677    0.0000 H   0  0  0  0  0  0  0  0  0  0  0  0
   14.3287   -2.7425    0.0000 H   0  0  0  0  0  0  0  0  0  0  0  0
   13.9429   -0.7581    0.0000 H   0  0  0  0  0  0  0  0  0  0  0  0
   10.5991   -3.4869    0.0000 H   0  0  0  0  0  0  0  0  0  0  0  0
   14.6583   -2.2238    0.0000 H   0  0  0  0  0  0  0  0  0  0  0  0
   15.4379   -2.3895    0.0000 H   0  0  0  0  0  0  0  0  0  0  0  0
   10.2700   -2.0569    0.0000 H   0  0  0  0  0  0  0  0  0  0  0  0
   15.2012   -0.0032    0.0000 H   0  0  0  0  0  0  0  0  0  0  0  0
   10.3437   -1.4745    0.0000 H   0  0  0  0  0  0  0  0  0  0  0  0
    9.9451   -0.7843    0.0000 H   0  0  0  0  0  0  0  0  0  0  0  0
   13.4867    1.2609    0.0000 H   0  0  0  0  0  0  0  0  0  0  0  0
   15.1137    1.1475    0.0000 H   0  0  0  0  0  0  0  0  0  0  0  0
   15.6470    1.7398    0.0000 H   0  0  0  0  0  0  0  0  0  0  0  0
    8.2565   -0.7592    0.0000 H   0  0  0  0  0  0  0  0  0  0  0  0
    8.6550   -1.4495    0.0000 H   0  0  0  0  0  0  0  0  0  0  0  0
    8.4040   -2.0569    0.0000 H   0  0  0  0  0  0  0  0  0  0  0  0
   16.0425   -0.0804    0.0000 H   0  0  0  0  0  0  0  0  0  0  0  0
   16.9069   -2.7409    0.0000 H   0  0  0  0  0  0  0  0  0  0  0  0
    7.5380   -3.1769    0.0000 H   0  0  0  0  0  0  0  0  0  0  0  0
   13.4621    2.7280    0.0000 H   0  0  0  0  0  0  0  0  0  0  0  0
    7.2131   -4.4495    0.0000 H   0  0  0  0  0  0  0  0  0  0  0  0
    7.6116   -3.7592    0.0000 H   0  0  0  0  0  0  0  0  0  0  0  0
   17.7713   -0.0804    0.0000 H   0  0  0  0  0  0  0  0  0  0  0  0
   13.9530    3.4119    0.0000 H   0  0  0  0  0  0  0  0  0  0  0  0
   11.1783    2.8966    0.0000 H   0  0  0  0  0  0  0  0  0  0  0  0
   14.8102    4.9055    0.0000 H   0  0  0  0  0  0  0  0  0  0  0  0
   17.1239    2.1215    0.0000 H   0  0  0  0  0  0  0  0  0  0  0  0
   12.4218    3.2276    0.0000 H   0  0  0  0  0  0  0  0  0  0  0  0
   12.1755    3.9856    0.0000 H   0  0  0  0  0  0  0  0  0  0  0  0
    5.6720   -3.1769    0.0000 H   0  0  0  0  0  0  0  0  0  0  0  0
   16.7797    5.3432    0.0000 H   0  0  0  0  0  0  0  0  0  0  0  0
    8.3110    1.1701    0.0000 H   0  0  0  0  0  0  0  0  0  0  0  0
    7.4641    0.9431    0.0000 H   0  0  0  0  0  0  0  0  0  0  0  0
    7.6910    0.0962    0.0000 H   0  0  0  0  0  0  0  0  0  0  0  0
    4.8059   -2.0569    0.0000 H   0  0  0  0  0  0  0  0  0  0  0  0
   18.4329    3.0760    0.0000 H   0  0  0  0  0  0  0  0  0  0  0  0
   10.5590    1.5662    0.0000 H   0  0  0  0  0  0  0  0  0  0  0  0
   10.2272    2.5875    0.0000 H   0  0  0  0  0  0  0  0  0  0  0  0
   18.2608    4.6868    0.0000 H   0  0  0  0  0  0  0  0  0  0  0  0
    6.4912   -5.7763    0.0000 H   0  0  0  0  0  0  0  0  0  0  0  0
    5.0926   -3.3537    0.0000 H   0  0  0  0  0  0  0  0  0  0  0  0
    4.8796   -1.4745    0.0000 H   0  0  0  0  0  0  0  0  0  0  0  0
    4.4810   -0.7843    0.0000 H   0  0  0  0  0  0  0  0  0  0  0  0
    4.8002   -6.1357    0.0000 H   0  0  0  0  0  0  0  0  0  0  0  0
   10.0238    3.2135    0.0000 H   0  0  0  0  0  0  0  0  0  0  0  0
   11.9013    5.2987    0.0000 H   0  0  0  0  0  0  0  0  0  0  0  0
    8.8199    4.2975    0.0000 H   0  0  0  0  0  0  0  0  0  0  0  0
   10.6974    6.3827    0.0000 H   0  0  0  0  0  0  0  0  0  0  0  0
    9.1567    5.8821    0.0000 H   0  0  0  0  0  0  0  0  0  0  0  0
    2.0000   -2.6769    0.0000 H   0  0  0  0  0  0  0  0  0  0  0  0
    2.8660    0.4431    0.0000 H   0  0  0  0  0  0  0  0  0  0  0  0
  1 39  1  0  0  0  0
  1 55  1  0  0  0  0
  2 28  2  0  0  0  0
  3 29  2  0  0  0  0
  4 35  2  0  0  0  0
  5 37  2  0  0  0  0
  6 46  2  0  0  0  0
  7 50  2  0  0  0  0
  8 63  1  0  0  0  0
  8124  1  0  0  0  0
  9 63  2  0  0  0  0
 10 66  1  0  0  0  0
 10125  1  0  0  0  0
 11 66  2  0  0  0  0
 12 24  1  0  0  0  0
 12 27  1  0  0  0  0
 12 28  1  0  0  0  0
 13 29  1  0  0  0  0
 32 13  1  6  0  0  0
 13 78  1  0  0  0  0
 30 14  1  1  0  0  0
 14 35  1  0  0  0  0
 14 82  1  0  0  0  0
 15 37  1  0  0  0  0
 41 15  1  1  0  0  0
 15 90  1  0  0  0  0
 16 34  1  0  0  0  0
 16 45  1  0  0  0  0
 16 91  1  0  0  0  0
 36 17  1  1  0  0  0
 17 46  1  0  0  0  0
 17 94  1  0  0  0  0
 18 40  1  0  0  0  0
 18 45  2  0  0  0  0
 19 47  1  0  0  0  0
 19 48  1  0  0  0  0
 19100  1  0  0  0  0
 20 50  1  0  0  0  0
 56 20  1  6  0  0  0
 20104  1  0  0  0  0
 49 21  1  1  0  0  0
 21111  1  0  0  0  0
 21112  1  0  0  0  0
 22 51  1  0  0  0  0
 22 62  1  0  0  0  0
 22114  1  0  0  0  0
 23 60  1  0  0  0  0
 23 62  2  0  0  0  0
 24 25  1  0  0  0  0
 24 29  1  1  0  0  0
 24 70  1  0  0  0  0
 25 26  1  0  0  0  0
 25 71  1  0  0  0  0
 25 72  1  0  0  0  0
 26 27  1  0  0  0  0
 26 73  1  0  0  0  0
 26 74  1  0  0  0  0
 27 75  1  0  0  0  0
 27 76  1  0  0  0  0
 28 30  1  0  0  0  0
 30 31  1  0  0  0  0
 30 77  1  0  0  0  0
 31 34  1  0  0  0  0
 31 79  1  0  0  0  0
 31 80  1  0  0  0  0
 32 33  1  0  0  0  0
 32 37  1  0  0  0  0
 32 81  1  0  0  0  0
 33 39  1  0  0  0  0
 33 83  1  0  0  0  0
 33 84  1  0  0  0  0
 34 40  2  0  0  0  0
 35 36  1  0  0  0  0
 36 38  1  0  0  0  0
 36 85  1  0  0  0  0
 38 42  1  0  0  0  0
 38 86  1  0  0  0  0
 38 87  1  0  0  0  0
 39 88  1  0  0  0  0
 39 89  1  0  0  0  0
 40 92  1  0  0  0  0
 41 44  1  0  0  0  0
 41 50  1  0  0  0  0
 41 93  1  0  0  0  0
 42 43  1  0  0  0  0
 42 47  2  0  0  0  0
 43 48  1  0  0  0  0
 43 52  2  0  0  0  0
 44 51  1  0  0  0  0
 44 95  1  0  0  0  0
 44 96  1  0  0  0  0
 45 97  1  0  0  0  0
 46 49  1  0  0  0  0
 47 98  1  0  0  0  0
 48 54  2  0  0  0  0
 49 53  1  0  0  0  0
 49 99  1  0  0  0  0
 51 60  2  0  0  0  0
 52 57  1  0  0  0  0
 52101  1  0  0  0  0
 53 59  1  0  0  0  0
 53102  1  0  0  0  0
 53103  1  0  0  0  0
 54 58  1  0  0  0  0
 54105  1  0  0  0  0
 55106  1  0  0  0  0
 55107  1  0  0  0  0
 55108  1  0  0  0  0
 56 61  1  0  0  0  0
 56 63  1  0  0  0  0
 56109  1  0  0  0  0
 57 58  2  0  0  0  0
 57110  1  0  0  0  0
 58113  1  0  0  0  0
 59 64  2  0  0  0  0
 59 65  1  0  0  0  0
 60115  1  0  0  0  0
 61 66  1  0  0  0  0
 61116  1  0  0  0  0
 61117  1  0  0  0  0
 62118  1  0  0  0  0
 64 67  1  0  0  0  0
 64119  1  0  0  0  0
 65 68  2  0  0  0  0
 65120  1  0  0  0  0
 67 69  2  0  0  0  0
 67121  1  0  0  0  0
 68 69  1  0  0  0  0
 68122  1  0  0  0  0
 69123  1  0  0  0  0
M  END
> <PUBCHEM_COMPOUND_CID>
516530
> <PUBCHEM_COMPOUND_CANONICALIZED>
1
> <PUBCHEM_CACTVS_COMPLEXITY>
1790
> <PUBCHEM_CACTVS_HBOND_ACCEPTOR>
14
> <PUBCHEM_CACTVS_HBOND_DONOR>
11
> <PUBCHEM_CACTVS_ROTATABLE_BOND>
25
> <PUBCHEM_CACTVS_SUBSKEYS>
AAADcfB//ABAAAAAAAAAAAAAAAAAAWLFiwAwYAAAAAAAAFgB/gAAHgQQCAAADCjF3gS/2PfJkgioAzX3fACCgC2xErAJ2aG4dJiKaPrg2bGUYAhulgLYyCdficCOgAAAAAACAAAAAAAAAAQAAAAAAAAAAA==
> <PUBCHEM_IUPAC_OPENEYE_NAME>
(2S)-2-[[(2S)-2-[[(2S)-2-[[(2S)-1-[(2S)-2-[[(2S)-2-[[(2S)-2-amino-3-phenyl-propanoyl]amino]-3-(1H-indol-3-yl)propanoyl]amino]-3-(1H-imidazol-5-yl)propanoyl]pyrrolidine-2-carbonyl]amino]-4-methylsulfanyl-butanoyl]amino]-3-(1H-imidazol-5-yl)propanoyl]amino]butanedioic acid
> <PUBCHEM_IUPAC_CAS_NAME>
(2S)-2-[[(2S)-2-[[(2S)-2-[[[(2S)-1-[(2S)-2-[[(2S)-2-[[(2S)-2-amino-1-oxo-3-phenylpropyl]amino]-3-(1H-indol-3-yl)-1-oxopropyl]amino]-3-(1H-imidazol-5-yl)-1-oxopropyl]-2-pyrrolidinyl]-oxomethyl]amino]-4-(methylthio)-1-oxobutyl]amino]-3-(1H-imidazol-5-yl)-1-oxopropyl]amino]butanedioic acid
> <PUBCHEM_IUPAC_NAME_MARKUP>
(2<I>S</I>)-2-[[(2<I>S</I>)-2-[[(2<I>S</I>)-2-[[(2<I>S</I>)-1-[(2<I>S</I>)-2-[[(2<I>S</I>)-2-[[(2<I>S</I>)-2-amino-3-phenylpropanoyl]amino]-3-(1<I>H</I>-indol-3-yl)propanoyl]amino]-3-(1<I>H</I>-imidazol-5-yl)propanoyl]pyrrolidine-2-carbonyl]amino]-4-methylsulfanylbutanoyl]amino]-3-(1<I>H</I>-imidazol-5-yl)propanoyl]amino]butanedioic acid
> <PUBCHEM_IUPAC_NAME>
(2S)-2-[[(2S)-2-[[(2S)-2-[[(2S)-1-[(2S)-2-[[(2S)-2-[[(2S)-2-amino-3-phenylpropanoyl]amino]-3-(1H-indol-3-yl)propanoyl]amino]-3-(1H-imidazol-5-yl)propanoyl]pyrrolidine-2-carbonyl]amino]-4-methylsulfanylbutanoyl]amino]-3-(1H-imidazol-5-yl)propanoyl]amino]butanedioic acid
> <PUBCHEM_IUPAC_SYSTEMATIC_NAME>
(2S)-2-[[(2S)-2-[[(2S)-2-[[(2S)-1-[(2S)-2-[[(2S)-2-[[(2S)-2-azanyl-3-phenyl-propanoyl]amino]-3-(1H-indol-3-yl)propanoyl]amino]-3-(1H-imidazol-5-yl)propanoyl]pyrrolidin-2-yl]carbonylamino]-4-methylsulfanyl-butanoyl]amino]-3-(1H-imidazol-5-yl)propanoyl]amino]butanedioic acid
> <PUBCHEM_IUPAC_TRADITIONAL_NAME>
(2S)-2-[[(2S)-2-[[(2S)-2-[[(2S)-1-[(2S)-2-[[(2S)-2-[[(2S)-2-amino-3-phenyl-propanoyl]amino]-3-(1H-indol-3-yl)propanoyl]amino]-3-(1H-imidazol-5-yl)propanoyl]prolyl]amino]-4-(methylthio)butanoyl]amino]-3-(1H-imidazol-5-yl)propanoyl]amino]succinic acid
> <PUBCHEM_IUPAC_INCHI>
InChI=1S/C46H56N12O10S/c1-69-15-13-33(41(62)55-35(18-28-22-48-24-51-28)43(64)57-37(46(67)68)20-39(59)60)53-44(65)38-12-7-14-58(38)45(66)36(19-29-23-49-25-52-29)56-42(63)34(17-27-21-50-32-11-6-5-10-30(27)32)54-40(61)31(47)16-26-8-3-2-4-9-26/h2-6,8-11,21-25,31,33-38,50H,7,12-20,47H2,1H3,(H,48,51)(H,49,52)(H,53,65)(H,54,61)(H,55,62)(H,56,63)(H,57,64)(H,59,60)(H,67,68)/t31-,33-,34-,35-,36-,37-,38-/m0/s1
> <PUBCHEM_IUPAC_INCHIKEY>
WQQXFFXNOFNVJI-FCNDXCBGSA-N
> <PUBCHEM_XLOGP3>
-2
> <PUBCHEM_EXACT_MASS>
968.39630720
> <PUBCHEM_MOLECULAR_FORMULA>
C46H56N12O10S
> <PUBCHEM_MOLECULAR_WEIGHT>
969.1
> <PUBCHEM_OPENEYE_CAN_SMILES>
CSCCC(C(=O)NC(CC1=CN=CN1)C(=O)NC(CC(=O)O)C(=O)O)NC(=O)C2CCCN2C(=O)C(CC3=CN=CN3)NC(=O)C(CC4=CNC5=CC=CC=C54)NC(=O)C(CC6=CC=CC=C6)N
> <PUBCHEM_OPENEYE_ISO_SMILES>
CSCC[C@@H](C(=O)N[C@@H](CC1=CN=CN1)C(=O)N[C@@H](CC(=O)O)C(=O)O)NC(=O)[C@@H]2CCCN2C(=O)[C@H](CC3=CN=CN3)NC(=O)[C@H](CC4=CNC5=CC=CC=C54)NC(=O)[C@H](CC6=CC=CC=C6)N
> <PUBCHEM_CACTVS_TPSA>
365
> <PUBCHEM_MONOISOTOPIC_WEIGHT>
968.39630720
> <PUBCHEM_TOTAL_CHARGE>
0
> <PUBCHEM_HEAVY_ATOM_COUNT>
69
> <PUBCHEM_ATOM_DEF_STEREO_COUNT>
7
> <PUBCHEM_ATOM_UDEF_STEREO_COUNT>
0
> <PUBCHEM_BOND_DEF_STEREO_COUNT>
0
> <PUBCHEM_BOND_UDEF_STEREO_COUNT>
0
> <PUBCHEM_ISOTOPIC_ATOM_COUNT>
0
> <PUBCHEM_COMPONENT_COUNT>
1
> <PUBCHEM_CACTVS_TAUTO_COUNT>
-1
> <PUBCHEM_COORDINATE_TYPE>
1
5
255
> <PUBCHEM_BONDANNOTATIONS>
32  13  6
30  14  5
41  15  5
16  34  8
16  45  8
36  17  5
18  40  8
18  45  8
19  47  8
19  48  8
56  20  6
49  21  5
22  51  8
22  62  8
23  60  8
23  62  8
24  29  5
34  40  8
42  43  8
42  47  8
43  48  8
43  52  8
48  54  8
51  60  8
52  57  8
54  58  8
57  58  8
59  64  8
59  65  8
64  67  8
65  68  8
67  69  8
68  69  8
$$$$
