516546
  -OEChem-10302200282D
110111  0     1  0  0  0  0  0999 V2000
   10.4631    2.9917    0.0000 O   0  0  0  0  0  0  0  0  0  0  0  0
    6.8065    1.3636    0.0000 O   0  0  0  0  0  0  0  0  0  0  0  0
   13.1414    0.0171    0.0000 O   0  0  0  0  0  0  0  0  0  0  0  0
   11.1401   -3.4493    0.0000 O   0  0  0  0  0  0  0  0  0  0  0  0
    7.2249   -2.6171    0.0000 O   0  0  0  0  0  0  0  0  0  0  0  0
    8.3417    1.6068    0.0000 N   0  0  0  0  0  0  0  0  0  0  0  0
   11.1688    1.6068    0.0000 N   0  0  0  0  0  0  0  0  0  0  0  0
   12.0424   -1.0819    0.0000 N   0  0  0  0  0  0  0  0  0  0  0  0
    7.4680   -1.0819    0.0000 N   0  0  0  0  0  0  0  0  0  0  0  0
    9.7552   -2.7436    0.0000 N   0  0  0  0  0  0  0  0  0  0  0  0
    6.7294    5.5660    0.0000 N   0  0  0  0  0  0  0  0  0  0  0  0
   13.5699    3.8636    0.0000 N   0  0  0  0  0  0  0  0  0  0  0  0
    4.1989   -1.4964    0.0000 N   0  0  0  0  0  0  0  0  0  0  0  0
   14.9308   -2.6682    0.0000 N   0  0  0  0  0  0  0  0  0  0  0  0
   14.4360    5.3636    0.0000 N   0  0  0  0  0  0  0  0  0  0  0  0
   15.3020    3.8636    0.0000 N   0  0  0  0  0  0  0  0  0  0  0  0
    2.6166   -2.2009    0.0000 N   0  0  0  0  0  0  0  0  0  0  0  0
    2.7976   -0.4783    0.0000 N   0  0  0  0  0  0  0  0  0  0  0  0
   16.6250   -3.0283    0.0000 N   0  0  0  0  0  0  0  0  0  0  0  0
   15.4660   -4.3155    0.0000 N   0  0  0  0  0  0  0  0  0  0  0  0
    9.2552    2.0135    0.0000 C   0  0  2  0  0  0  0  0  0  0  0  0
   11.8379    0.8636    0.0000 C   0  0  1  0  0  0  0  0  0  0  0  0
    9.0473    2.9917    0.0000 C   0  0  0  0  0  0  0  0  0  0  0  0
    7.3635   -0.0874    0.0000 C   0  0  1  0  0  0  0  0  0  0  0  0
   11.5424   -1.9480    0.0000 C   0  0  1  0  0  0  0  0  0  0  0  0
   12.7039    1.3636    0.0000 C   0  0  0  0  0  0  0  0  0  0  0  0
    8.7771   -2.5357    0.0000 C   0  0  2  0  0  0  0  0  0  0  0  0
    8.0962    3.3007    0.0000 C   0  0  0  0  0  0  0  0  0  0  0  0
    6.3690    0.0171    0.0000 C   0  0  0  0  0  0  0  0  0  0  0  0
   10.2552    2.0135    0.0000 C   0  0  0  0  0  0  0  0  0  0  0  0
   12.2855   -2.6171    0.0000 C   0  0  0  0  0  0  0  0  0  0  0  0
    7.6725    0.8636    0.0000 C   0  0  0  0  0  0  0  0  0  0  0  0
   12.1469   -0.0874    0.0000 C   0  0  0  0  0  0  0  0  0  0  0  0
   10.7334   -2.5357    0.0000 C   0  0  0  0  0  0  0  0  0  0  0  0
   12.7039    2.3636    0.0000 C   0  0  0  0  0  0  0  0  0  0  0  0
    7.9680   -1.9480    0.0000 C   0  0  0  0  0  0  0  0  0  0  0  0
    7.8883    4.2788    0.0000 C   0  0  0  0  0  0  0  0  0  0  0  0
    8.3703   -3.4493    0.0000 C   0  0  0  0  0  0  0  0  0  0  0  0
    5.7812   -0.7919    0.0000 C   0  0  0  0  0  0  0  0  0  0  0  0
   13.2366   -2.3081    0.0000 C   0  0  0  0  0  0  0  0  0  0  0  0
    6.9373    4.5879    0.0000 C   0  0  0  0  0  0  0  0  0  0  0  0
   13.5699    2.8636    0.0000 C   0  0  0  0  0  0  0  0  0  0  0  0
    8.9581   -4.2583    0.0000 C   0  0  0  0  0  0  0  0  0  0  0  0
    4.7867   -0.6874    0.0000 C   0  0  0  0  0  0  0  0  0  0  0  0
   13.9797   -2.9772    0.0000 C   0  0  0  0  0  0  0  0  0  0  0  0
    9.9526   -4.1538    0.0000 C   0  0  0  0  0  0  0  0  0  0  0  0
    8.5514   -5.1718    0.0000 C   0  0  0  0  0  0  0  0  0  0  0  0
   10.5404   -4.9628    0.0000 C   0  0  0  0  0  0  0  0  0  0  0  0
    9.1392   -5.9809    0.0000 C   0  0  0  0  0  0  0  0  0  0  0  0
   10.1337   -5.8763    0.0000 C   0  0  0  0  0  0  0  0  0  0  0  0
   14.4360    4.3636    0.0000 C   0  0  0  0  0  0  0  0  0  0  0  0
    3.2044   -1.3919    0.0000 C   0  0  0  0  0  0  0  0  0  0  0  0
   15.6739   -3.3373    0.0000 C   0  0  0  0  0  0  0  0  0  0  0  0
    8.7028    2.2950    0.0000 H   0  0  0  0  0  0  0  0  0  0  0  0
   11.9349    1.4760    0.0000 H   0  0  0  0  0  0  0  0  0  0  0  0
    9.6669    3.0133    0.0000 H   0  0  0  0  0  0  0  0  0  0  0  0
    9.1336    3.6056    0.0000 H   0  0  0  0  0  0  0  0  0  0  0  0
    6.9251   -0.5258    0.0000 H   0  0  0  0  0  0  0  0  0  0  0  0
   12.1547   -1.8510    0.0000 H   0  0  0  0  0  0  0  0  0  0  0  0
   12.9160    0.7810    0.0000 H   0  0  0  0  0  0  0  0  0  0  0  0
   13.3145    1.4713    0.0000 H   0  0  0  0  0  0  0  0  0  0  0  0
    9.0585   -3.0882    0.0000 H   0  0  0  0  0  0  0  0  0  0  0  0
    7.4766    3.2791    0.0000 H   0  0  0  0  0  0  0  0  0  0  0  0
    8.0100    2.6867    0.0000 H   0  0  0  0  0  0  0  0  0  0  0  0
    6.5399    0.6131    0.0000 H   0  0  0  0  0  0  0  0  0  0  0  0
    5.8118    0.2889    0.0000 H   0  0  0  0  0  0  0  0  0  0  0  0
    7.9772    2.1084    0.0000 H   0  0  0  0  0  0  0  0  0  0  0  0
   11.7970   -2.9988    0.0000 H   0  0  0  0  0  0  0  0  0  0  0  0
   12.5766   -3.1645    0.0000 H   0  0  0  0  0  0  0  0  0  0  0  0
   11.5332    2.1084    0.0000 H   0  0  0  0  0  0  0  0  0  0  0  0
   12.6320   -1.2735    0.0000 H   0  0  0  0  0  0  0  0  0  0  0  0
    6.8784   -1.2735    0.0000 H   0  0  0  0  0  0  0  0  0  0  0  0
   12.4919    2.9463    0.0000 H   0  0  0  0  0  0  0  0  0  0  0  0
   12.0933    2.2560    0.0000 H   0  0  0  0  0  0  0  0  0  0  0  0
    9.7552   -3.3636    0.0000 H   0  0  0  0  0  0  0  0  0  0  0  0
    7.8563   -3.1026    0.0000 H   0  0  0  0  0  0  0  0  0  0  0  0
    7.9396   -3.8953    0.0000 H   0  0  0  0  0  0  0  0  0  0  0  0
    8.5080    4.3005    0.0000 H   0  0  0  0  0  0  0  0  0  0  0  0
    7.9746    4.8928    0.0000 H   0  0  0  0  0  0  0  0  0  0  0  0
    5.6103   -1.3879    0.0000 H   0  0  0  0  0  0  0  0  0  0  0  0
    6.3385   -1.0637    0.0000 H   0  0  0  0  0  0  0  0  0  0  0  0
   13.7252   -1.9264    0.0000 H   0  0  0  0  0  0  0  0  0  0  0  0
   12.9455   -1.7606    0.0000 H   0  0  0  0  0  0  0  0  0  0  0  0
    6.3177    4.5662    0.0000 H   0  0  0  0  0  0  0  0  0  0  0  0
    6.8510    3.9739    0.0000 H   0  0  0  0  0  0  0  0  0  0  0  0
   13.7820    2.2810    0.0000 H   0  0  0  0  0  0  0  0  0  0  0  0
   14.1805    2.9713    0.0000 H   0  0  0  0  0  0  0  0  0  0  0  0
    4.9576   -0.0914    0.0000 H   0  0  0  0  0  0  0  0  0  0  0  0
    4.2294   -0.4156    0.0000 H   0  0  0  0  0  0  0  0  0  0  0  0
   13.4912   -3.3589    0.0000 H   0  0  0  0  0  0  0  0  0  0  0  0
   14.2708   -3.5246    0.0000 H   0  0  0  0  0  0  0  0  0  0  0  0
   10.2048   -3.5874    0.0000 H   0  0  0  0  0  0  0  0  0  0  0  0
    7.9348   -5.2367    0.0000 H   0  0  0  0  0  0  0  0  0  0  0  0
    6.1397    5.7576    0.0000 H   0  0  0  0  0  0  0  0  0  0  0  0
    7.1901    5.9809    0.0000 H   0  0  0  0  0  0  0  0  0  0  0  0
   11.1570   -4.8980    0.0000 H   0  0  0  0  0  0  0  0  0  0  0  0
    8.8870   -6.5473    0.0000 H   0  0  0  0  0  0  0  0  0  0  0  0
   10.4981   -6.3779    0.0000 H   0  0  0  0  0  0  0  0  0  0  0  0
   14.9729    5.6736    0.0000 H   0  0  0  0  0  0  0  0  0  0  0  0
   13.8990    5.6736    0.0000 H   0  0  0  0  0  0  0  0  0  0  0  0
   15.8389    4.1736    0.0000 H   0  0  0  0  0  0  0  0  0  0  0  0
   15.3020    3.2436    0.0000 H   0  0  0  0  0  0  0  0  0  0  0  0
    2.0000   -2.1361    0.0000 H   0  0  0  0  0  0  0  0  0  0  0  0
    2.8688   -2.7673    0.0000 H   0  0  0  0  0  0  0  0  0  0  0  0
    2.1810   -0.4135    0.0000 H   0  0  0  0  0  0  0  0  0  0  0  0
    3.1621    0.0233    0.0000 H   0  0  0  0  0  0  0  0  0  0  0  0
   17.0857   -3.4432    0.0000 H   0  0  0  0  0  0  0  0  0  0  0  0
   16.7539   -2.4218    0.0000 H   0  0  0  0  0  0  0  0  0  0  0  0
   15.9268   -4.7303    0.0000 H   0  0  0  0  0  0  0  0  0  0  0  0
   14.8764   -4.5070    0.0000 H   0  0  0  0  0  0  0  0  0  0  0  0
  1 30  2  0  0  0  0
  2 32  2  0  0  0  0
  3 33  2  0  0  0  0
  4 34  2  0  0  0  0
  5 36  2  0  0  0  0
  6 21  1  0  0  0  0
  6 32  1  0  0  0  0
  6 67  1  0  0  0  0
  7 22  1  0  0  0  0
  7 30  1  0  0  0  0
  7 70  1  0  0  0  0
  8 25  1  0  0  0  0
  8 33  1  0  0  0  0
  8 71  1  0  0  0  0
  9 24  1  0  0  0  0
  9 36  1  0  0  0  0
  9 72  1  0  0  0  0
 10 27  1  0  0  0  0
 10 34  1  0  0  0  0
 10 75  1  0  0  0  0
 11 41  1  0  0  0  0
 11 94  1  0  0  0  0
 11 95  1  0  0  0  0
 12 42  1  0  0  0  0
 12 51  2  0  0  0  0
 13 44  1  0  0  0  0
 13 52  2  0  0  0  0
 14 45  1  0  0  0  0
 14 53  2  0  0  0  0
 15 51  1  0  0  0  0
 15 99  1  0  0  0  0
 15100  1  0  0  0  0
 16 51  1  0  0  0  0
 16101  1  0  0  0  0
 16102  1  0  0  0  0
 17 52  1  0  0  0  0
 17103  1  0  0  0  0
 17104  1  0  0  0  0
 18 52  1  0  0  0  0
 18105  1  0  0  0  0
 18106  1  0  0  0  0
 19 53  1  0  0  0  0
 19107  1  0  0  0  0
 19108  1  0  0  0  0
 20 53  1  0  0  0  0
 20109  1  0  0  0  0
 20110  1  0  0  0  0
 21 23  1  6  0  0  0
 21 30  1  0  0  0  0
 21 54  1  0  0  0  0
 22 26  1  1  0  0  0
 22 33  1  0  0  0  0
 22 55  1  0  0  0  0
 23 28  1  0  0  0  0
 23 56  1  0  0  0  0
 23 57  1  0  0  0  0
 24 29  1  1  0  0  0
 24 32  1  0  0  0  0
 24 58  1  0  0  0  0
 25 31  1  1  0  0  0
 25 34  1  0  0  0  0
 25 59  1  0  0  0  0
 26 35  1  0  0  0  0
 26 60  1  0  0  0  0
 26 61  1  0  0  0  0
 27 36  1  0  0  0  0
 27 38  1  1  0  0  0
 27 62  1  0  0  0  0
 28 37  1  0  0  0  0
 28 63  1  0  0  0  0
 28 64  1  0  0  0  0
 29 39  1  0  0  0  0
 29 65  1  0  0  0  0
 29 66  1  0  0  0  0
 31 40  1  0  0  0  0
 31 68  1  0  0  0  0
 31 69  1  0  0  0  0
 35 42  1  0  0  0  0
 35 73  1  0  0  0  0
 35 74  1  0  0  0  0
 37 41  1  0  0  0  0
 37 78  1  0  0  0  0
 37 79  1  0  0  0  0
 38 43  1  0  0  0  0
 38 76  1  0  0  0  0
 38 77  1  0  0  0  0
 39 44  1  0  0  0  0
 39 80  1  0  0  0  0
 39 81  1  0  0  0  0
 40 45  1  0  0  0  0
 40 82  1  0  0  0  0
 40 83  1  0  0  0  0
 41 84  1  0  0  0  0
 41 85  1  0  0  0  0
 42 86  1  0  0  0  0
 42 87  1  0  0  0  0
 43 46  2  0  0  0  0
 43 47  1  0  0  0  0
 44 88  1  0  0  0  0
 44 89  1  0  0  0  0
 45 90  1  0  0  0  0
 45 91  1  0  0  0  0
 46 48  1  0  0  0  0
 46 92  1  0  0  0  0
 47 49  2  0  0  0  0
 47 93  1  0  0  0  0
 48 50  2  0  0  0  0
 48 96  1  0  0  0  0
 49 50  1  0  0  0  0
 49 97  1  0  0  0  0
 50 98  1  0  0  0  0
M  END
> <PUBCHEM_COMPOUND_CID>
516546
> <PUBCHEM_COMPOUND_CANONICALIZED>
1
> <PUBCHEM_CACTVS_COMPLEXITY>
1280
> <PUBCHEM_CACTVS_HBOND_ACCEPTOR>
9
> <PUBCHEM_CACTVS_HBOND_DONOR>
12
> <PUBCHEM_CACTVS_ROTATABLE_BOND>
18
> <PUBCHEM_CACTVS_SUBSKEYS>
AAADcfB/+AAAAAAAAAAAAAAAAAAAAAAAAAAwAAAAAAAAAAABAAAAHgAQAAAADCjBmAQxAILAAACoAiFSNAACAAEgAAAIiIGIAIgIYDKAkTGUIAAglgCIiAcYiYCOAAAAAAAAAAAAAAAAAAAAAAAAAAAAAA==
> <PUBCHEM_IUPAC_OPENEYE_NAME>
2-[3-[(2S,5R,8S,11S,14S)-5-(4-aminobutyl)-14-benzyl-8,11-bis(3-guanidinopropyl)-3,6,9,12,15-pentaoxo-1,4,7,10,13-pentazacyclopentadec-2-yl]propyl]guanidine
> <PUBCHEM_IUPAC_CAS_NAME>
2-[3-[(2S,5R,8S,11S,14S)-5-(4-aminobutyl)-8,11-bis[3-(diaminomethylideneamino)propyl]-3,6,9,12,15-pentaoxo-14-(phenylmethyl)-1,4,7,10,13-pentazacyclopentadec-2-yl]propyl]guanidine
> <PUBCHEM_IUPAC_NAME_MARKUP>
2-[3-[(2<I>S</I>,5<I>R</I>,8<I>S</I>,11<I>S</I>,14<I>S</I>)-5-(4-aminobutyl)-14-benzyl-8,11-bis[3-(diaminomethylideneamino)propyl]-3,6,9,12,15-pentaoxo-1,4,7,10,13-pentazacyclopentadec-2-yl]propyl]guanidine
> <PUBCHEM_IUPAC_NAME>
2-[3-[(2S,5R,8S,11S,14S)-5-(4-aminobutyl)-14-benzyl-8,11-bis[3-(diaminomethylideneamino)propyl]-3,6,9,12,15-pentaoxo-1,4,7,10,13-pentazacyclopentadec-2-yl]propyl]guanidine
> <PUBCHEM_IUPAC_SYSTEMATIC_NAME>
2-[3-[(2S,5R,8S,11S,14S)-5-(4-azanylbutyl)-8,11-bis[3-[bis(azanyl)methylideneamino]propyl]-3,6,9,12,15-pentakis(oxidanylidene)-14-(phenylmethyl)-1,4,7,10,13-pentazacyclopentadec-2-yl]propyl]guanidine
> <PUBCHEM_IUPAC_TRADITIONAL_NAME>
2-[3-[(2S,5R,8S,11S,14S)-5-(4-aminobutyl)-14-benzyl-8,11-bis(3-guanidinopropyl)-3,6,9,12,15-pentaketo-1,4,7,10,13-pentazacyclopentadec-2-yl]propyl]guanidine
> <PUBCHEM_IUPAC_INCHI>
InChI=1S/C33H57N15O5/c34-15-5-4-11-21-26(49)45-22(12-6-16-41-31(35)36)27(50)46-24(14-8-18-43-33(39)40)29(52)48-25(19-20-9-2-1-3-10-20)30(53)47-23(28(51)44-21)13-7-17-42-32(37)38/h1-3,9-10,21-25H,4-8,11-19,34H2,(H,44,51)(H,45,49)(H,46,50)(H,47,53)(H,48,52)(H4,35,36,41)(H4,37,38,42)(H4,39,40,43)/t21-,22+,23+,24+,25+/m1/s1
> <PUBCHEM_IUPAC_INCHIKEY>
MMCZDTMNQLRUKF-RYWAYVEBSA-N
> <PUBCHEM_XLOGP3_AA>
-3.5
> <PUBCHEM_EXACT_MASS>
743.46670998
> <PUBCHEM_MOLECULAR_FORMULA>
C33H57N15O5
> <PUBCHEM_MOLECULAR_WEIGHT>
743.9
> <PUBCHEM_OPENEYE_CAN_SMILES>
C1=CC=C(C=C1)CC2C(=O)NC(C(=O)NC(C(=O)NC(C(=O)NC(C(=O)N2)CCCN=C(N)N)CCCN=C(N)N)CCCCN)CCCN=C(N)N
> <PUBCHEM_OPENEYE_ISO_SMILES>
C1=CC=C(C=C1)C[C@H]2C(=O)N[C@H](C(=O)N[C@@H](C(=O)N[C@H](C(=O)N[C@H](C(=O)N2)CCCN=C(N)N)CCCN=C(N)N)CCCCN)CCCN=C(N)N
> <PUBCHEM_CACTVS_TPSA>
365
> <PUBCHEM_MONOISOTOPIC_WEIGHT>
743.46670998
> <PUBCHEM_TOTAL_CHARGE>
0
> <PUBCHEM_HEAVY_ATOM_COUNT>
53
> <PUBCHEM_ATOM_DEF_STEREO_COUNT>
5
> <PUBCHEM_ATOM_UDEF_STEREO_COUNT>
0
> <PUBCHEM_BOND_DEF_STEREO_COUNT>
0
> <PUBCHEM_BOND_UDEF_STEREO_COUNT>
0
> <PUBCHEM_ISOTOPIC_ATOM_COUNT>
0
> <PUBCHEM_COMPONENT_COUNT>
1
> <PUBCHEM_CACTVS_TAUTO_COUNT>
-1
> <PUBCHEM_COORDINATE_TYPE>
1
5
255
> <PUBCHEM_BONDANNOTATIONS>
21  23  6
22  26  5
24  29  5
25  31  5
27  38  5
43  46  8
43  47  8
46  48  8
47  49  8
48  50  8
49  50  8
$$$$
