516538
  -OEChem-10302200282D
195197  0     1  0  0  0  0  0999 V2000
    6.1350    8.2209    0.0000 S   0  0  0  0  0  0  0  0  0  0  0  0
    3.4030   13.7209    0.0000 S   0  0  0  0  0  0  0  0  0  0  0  0
   12.8542    0.8662    0.0000 O   0  0  0  0  0  0  0  0  0  0  0  0
   12.9965    2.2208    0.0000 O   0  0  0  0  0  0  0  0  0  0  0  0
   11.2794   -2.3772    0.0000 O   0  0  0  0  0  0  0  0  0  0  0  0
   13.8626    2.7208    0.0000 O   0  0  0  0  0  0  0  0  0  0  0  0
   11.0715   -3.3554    0.0000 O   0  0  0  0  0  0  0  0  0  0  0  0
   14.4599   -4.0756    0.0000 O   0  0  0  0  0  0  0  0  0  0  0  0
   16.0632   12.7209    0.0000 O   0  0  0  0  0  0  0  0  0  0  0  0
   14.3312    9.7209    0.0000 O   0  0  0  0  0  0  0  0  0  0  0  0
   11.1909   -6.9590    0.0000 O   0  0  0  0  0  0  0  0  0  0  0  0
   10.1204   -3.6644    0.0000 O   0  0  0  0  0  0  0  0  0  0  0  0
   14.3714   -8.6573    0.0000 O   0  0  0  0  0  0  0  0  0  0  0  0
   11.5991   12.2209    0.0000 O   0  0  0  0  0  0  0  0  0  0  0  0
    8.8671    9.7209    0.0000 O   0  0  0  0  0  0  0  0  0  0  0  0
    6.1350   12.2209    0.0000 O   0  0  0  0  0  0  0  0  0  0  0  0
    2.5369   11.2209    0.0000 O   0  0  0  0  0  0  0  0  0  0  0  0
    3.4030    9.7209    0.0000 O   0  0  0  0  0  0  0  0  0  0  0  0
   11.1600    1.2263    0.0000 N   0  0  0  0  0  0  0  0  0  0  0  0
   12.4383   -1.0901    0.0000 N   0  0  0  0  0  0  0  0  0  0  0  0
   12.1305    3.7208    0.0000 N   0  0  0  0  0  0  0  0  0  0  0  0
   12.7657   -3.7155    0.0000 N   0  0  0  0  0  0  0  0  0  0  0  0
   16.0632   10.7209    0.0000 N   0  0  0  0  0  0  0  0  0  0  0  0
   14.9374    6.9188    0.0000 N   0  0  0  0  0  0  0  0  0  0  0  0
   12.3498   -5.6718    0.0000 N   0  0  0  0  0  0  0  0  0  0  0  0
   15.6188   -2.7884    0.0000 N   0  0  0  0  0  0  0  0  0  0  0  0
   13.3312   11.2209    0.0000 N   0  0  0  0  0  0  0  0  0  0  0  0
   12.6772   -8.2972    0.0000 N   0  0  0  0  0  0  0  0  0  0  0  0
    8.9614   -4.9516    0.0000 N   0  0  0  0  0  0  0  0  0  0  0  0
   13.9555  -10.6136    0.0000 N   0  0  0  0  0  0  0  0  0  0  0  0
   10.5991   10.7209    0.0000 N   0  0  0  0  0  0  0  0  0  0  0  0
    7.8671   11.2209    0.0000 N   0  0  0  0  0  0  0  0  0  0  0  0
   10.8945  -12.5188    0.0000 N   0  0  0  0  0  0  0  0  0  0  0  0
    5.1350   10.7209    0.0000 N   0  0  0  0  0  0  0  0  0  0  0  0
    9.7355  -13.8060    0.0000 N   0  0  0  0  0  0  0  0  0  0  0  0
    9.2003  -12.1587    0.0000 N   0  0  0  0  0  0  0  0  0  0  0  0
   11.2645    2.2208    0.0000 C   0  0  1  0  0  0  0  0  0  0  0  0
   10.3509    2.6276    0.0000 C   0  0  0  0  0  0  0  0  0  0  0  0
   10.1818    1.0184    0.0000 C   0  0  0  0  0  0  0  0  0  0  0  0
    9.6818    1.8844    0.0000 C   0  0  0  0  0  0  0  0  0  0  0  0
   11.6952   -0.4209    0.0000 C   0  0  2  0  0  0  0  0  0  0  0  0
   11.9031    0.5572    0.0000 C   0  0  0  0  0  0  0  0  0  0  0  0
   10.7441   -0.7300    0.0000 C   0  0  2  0  0  0  0  0  0  0  0  0
   12.1305    2.7208    0.0000 C   0  0  0  0  0  0  0  0  0  0  0  0
   10.5362   -1.7081    0.0000 C   0  0  0  0  0  0  0  0  0  0  0  0
   10.0010   -0.0608    0.0000 C   0  0  0  0  0  0  0  0  0  0  0  0
   12.9965    4.2209    0.0000 C   0  0  1  0  0  0  0  0  0  0  0  0
   12.2304   -2.0682    0.0000 C   0  0  0  0  0  0  0  0  0  0  0  0
    9.5852   -2.0171    0.0000 C   0  0  0  0  0  0  0  0  0  0  0  0
   12.9965    5.2209    0.0000 C   0  0  0  0  0  0  0  0  0  0  0  0
   12.9736   -2.7374    0.0000 C   0  0  2  0  0  0  0  0  0  0  0  0
   13.8626    3.7208    0.0000 C   0  0  0  0  0  0  0  0  0  0  0  0
   13.8626    5.7209    0.0000 C   0  0  0  0  0  0  0  0  0  0  0  0
   13.9246   -2.4283    0.0000 C   0  0  0  0  0  0  0  0  0  0  0  0
   14.7704    5.3157    0.0000 C   0  0  0  0  0  0  0  0  0  0  0  0
   13.9656    6.7096    0.0000 C   0  0  0  0  0  0  0  0  0  0  0  0
   15.1972   11.2209    0.0000 C   0  0  1  0  0  0  0  0  0  0  0  0
   15.4382    6.0600    0.0000 C   0  0  0  0  0  0  0  0  0  0  0  0
   11.8146   -4.0245    0.0000 C   0  0  0  0  0  0  0  0  0  0  0  0
   11.6067   -5.0027    0.0000 C   0  0  2  0  0  0  0  0  0  0  0  0
   14.6678   -3.0975    0.0000 C   0  0  0  0  0  0  0  0  0  0  0  0
   15.0810    4.3652    0.0000 C   0  0  0  0  0  0  0  0  0  0  0  0
   15.1972   12.2209    0.0000 C   0  0  0  0  0  0  0  0  0  0  0  0
   16.4167    5.8538    0.0000 C   0  0  0  0  0  0  0  0  0  0  0  0
   12.8851   -7.3191    0.0000 C   0  0  1  0  0  0  0  0  0  0  0  0
   14.3312   10.7209    0.0000 C   0  0  0  0  0  0  0  0  0  0  0  0
   13.8361   -7.0101    0.0000 C   0  0  2  0  0  0  0  0  0  0  0  0
   10.6556   -5.3117    0.0000 C   0  0  0  0  0  0  0  0  0  0  0  0
   16.0595    4.1590    0.0000 C   0  0  0  0  0  0  0  0  0  0  0  0
   12.1419   -6.6499    0.0000 C   0  0  0  0  0  0  0  0  0  0  0  0
   16.7274    4.9033    0.0000 C   0  0  0  0  0  0  0  0  0  0  0  0
   14.5793   -7.6792    0.0000 C   0  0  0  0  0  0  0  0  0  0  0  0
   14.0440   -6.0319    0.0000 C   0  0  0  0  0  0  0  0  0  0  0  0
    9.9125   -4.6426    0.0000 C   0  0  0  0  0  0  0  0  0  0  0  0
   12.4651   10.7209    0.0000 C   0  0  1  0  0  0  0  0  0  0  0  0
   15.5303   -7.3702    0.0000 C   0  0  0  0  0  0  0  0  0  0  0  0
   13.4203   -8.9664    0.0000 C   0  0  0  0  0  0  0  0  0  0  0  0
   13.2124   -9.9445    0.0000 C   0  0  2  0  0  0  0  0  0  0  0  0
   12.2613  -10.2535    0.0000 C   0  0  0  0  0  0  0  0  0  0  0  0
   12.4651    9.7209    0.0000 C   0  0  0  0  0  0  0  0  0  0  0  0
   11.5991   11.2209    0.0000 C   0  0  0  0  0  0  0  0  0  0  0  0
   12.0534  -11.2317    0.0000 C   0  0  0  0  0  0  0  0  0  0  0  0
    9.7331   11.2209    0.0000 C   0  0  2  0  0  0  0  0  0  0  0  0
   11.1024  -11.5407    0.0000 C   0  0  0  0  0  0  0  0  0  0  0  0
    8.8671   10.7209    0.0000 C   0  0  0  0  0  0  0  0  0  0  0  0
    9.7331   12.2209    0.0000 C   0  0  0  0  0  0  0  0  0  0  0  0
    7.0010   10.7209    0.0000 C   0  0  1  0  0  0  0  0  0  0  0  0
    7.0010    9.7209    0.0000 C   0  0  0  0  0  0  0  0  0  0  0  0
    6.1350   11.2209    0.0000 C   0  0  0  0  0  0  0  0  0  0  0  0
    9.9434  -12.8278    0.0000 C   0  0  0  0  0  0  0  0  0  0  0  0
    6.1350    9.2209    0.0000 C   0  0  0  0  0  0  0  0  0  0  0  0
    4.2690   11.2209    0.0000 C   0  0  1  0  0  0  0  0  0  0  0  0
    4.2690   12.2209    0.0000 C   0  0  0  0  0  0  0  0  0  0  0  0
    3.4030   12.7209    0.0000 C   0  0  0  0  0  0  0  0  0  0  0  0
    3.4030   10.7209    0.0000 C   0  0  0  0  0  0  0  0  0  0  0  0
    5.2690    7.7209    0.0000 C   0  0  0  0  0  0  0  0  0  0  0  0
    2.5369   14.2209    0.0000 C   0  0  0  0  0  0  0  0  0  0  0  0
   11.7845    1.8832    0.0000 H   0  0  0  0  0  0  0  0  0  0  0  0
   10.6609    3.1645    0.0000 H   0  0  0  0  0  0  0  0  0  0  0  0
    9.8494    2.9920    0.0000 H   0  0  0  0  0  0  0  0  0  0  0  0
    9.6154    0.7662    0.0000 H   0  0  0  0  0  0  0  0  0  0  0  0
   10.3734    0.4288    0.0000 H   0  0  0  0  0  0  0  0  0  0  0  0
    9.2670    2.3452    0.0000 H   0  0  0  0  0  0  0  0  0  0  0  0
    9.1802    1.5200    0.0000 H   0  0  0  0  0  0  0  0  0  0  0  0
   11.5663   -1.0274    0.0000 H   0  0  0  0  0  0  0  0  0  0  0  0
   10.8730   -0.1235    0.0000 H   0  0  0  0  0  0  0  0  0  0  0  0
   10.6225   -2.3221    0.0000 H   0  0  0  0  0  0  0  0  0  0  0  0
   11.1559   -1.7298    0.0000 H   0  0  0  0  0  0  0  0  0  0  0  0
   13.0280   -0.8985    0.0000 H   0  0  0  0  0  0  0  0  0  0  0  0
   12.6675    4.0308    0.0000 H   0  0  0  0  0  0  0  0  0  0  0  0
   10.4159    0.3999    0.0000 H   0  0  0  0  0  0  0  0  0  0  0  0
    9.5402    0.3540    0.0000 H   0  0  0  0  0  0  0  0  0  0  0  0
    9.5861   -0.5216    0.0000 H   0  0  0  0  0  0  0  0  0  0  0  0
   12.4596    4.5308    0.0000 H   0  0  0  0  0  0  0  0  0  0  0  0
    9.3936   -1.4275    0.0000 H   0  0  0  0  0  0  0  0  0  0  0  0
    8.9955   -2.2087    0.0000 H   0  0  0  0  0  0  0  0  0  0  0  0
    9.7768   -2.6068    0.0000 H   0  0  0  0  0  0  0  0  0  0  0  0
   12.7845    5.8035    0.0000 H   0  0  0  0  0  0  0  0  0  0  0  0
   12.3860    5.1132    0.0000 H   0  0  0  0  0  0  0  0  0  0  0  0
   12.3839   -2.9290    0.0000 H   0  0  0  0  0  0  0  0  0  0  0  0
   14.4132   -2.0466    0.0000 H   0  0  0  0  0  0  0  0  0  0  0  0
   13.6336   -1.8809    0.0000 H   0  0  0  0  0  0  0  0  0  0  0  0
   13.2264   -4.1304    0.0000 H   0  0  0  0  0  0  0  0  0  0  0  0
   16.6001   10.4109    0.0000 H   0  0  0  0  0  0  0  0  0  0  0  0
   13.5042    7.1236    0.0000 H   0  0  0  0  0  0  0  0  0  0  0  0
   15.1972   10.6009    0.0000 H   0  0  0  0  0  0  0  0  0  0  0  0
   15.1877    7.4860    0.0000 H   0  0  0  0  0  0  0  0  0  0  0  0
   11.4778   -5.6091    0.0000 H   0  0  0  0  0  0  0  0  0  0  0  0
   14.6670    3.9038    0.0000 H   0  0  0  0  0  0  0  0  0  0  0  0
   14.9851   12.8035    0.0000 H   0  0  0  0  0  0  0  0  0  0  0  0
   14.5866   12.1132    0.0000 H   0  0  0  0  0  0  0  0  0  0  0  0
   16.8308    6.3153    0.0000 H   0  0  0  0  0  0  0  0  0  0  0  0
   12.2954   -7.5107    0.0000 H   0  0  0  0  0  0  0  0  0  0  0  0
   13.3754   -6.5952    0.0000 H   0  0  0  0  0  0  0  0  0  0  0  0
   10.1671   -5.6934    0.0000 H   0  0  0  0  0  0  0  0  0  0  0  0
   10.9467   -5.8591    0.0000 H   0  0  0  0  0  0  0  0  0  0  0  0
   12.9395   -5.4802    0.0000 H   0  0  0  0  0  0  0  0  0  0  0  0
   16.2521    3.5697    0.0000 H   0  0  0  0  0  0  0  0  0  0  0  0
   17.3340    4.7754    0.0000 H   0  0  0  0  0  0  0  0  0  0  0  0
   14.0907   -8.0609    0.0000 H   0  0  0  0  0  0  0  0  0  0  0  0
   14.8703   -8.2266    0.0000 H   0  0  0  0  0  0  0  0  0  0  0  0
   16.0796   -3.2033    0.0000 H   0  0  0  0  0  0  0  0  0  0  0  0
   15.7477   -2.1820    0.0000 H   0  0  0  0  0  0  0  0  0  0  0  0
   13.8681   11.5309    0.0000 H   0  0  0  0  0  0  0  0  0  0  0  0
   12.0875   -8.4888    0.0000 H   0  0  0  0  0  0  0  0  0  0  0  0
   14.6505   -6.1608    0.0000 H   0  0  0  0  0  0  0  0  0  0  0  0
   14.1729   -5.4255    0.0000 H   0  0  0  0  0  0  0  0  0  0  0  0
   13.4376   -5.9030    0.0000 H   0  0  0  0  0  0  0  0  0  0  0  0
   13.0021   10.4109    0.0000 H   0  0  0  0  0  0  0  0  0  0  0  0
   16.0632   13.3409    0.0000 H   0  0  0  0  0  0  0  0  0  0  0  0
   15.7219   -7.9598    0.0000 H   0  0  0  0  0  0  0  0  0  0  0  0
   16.1200   -7.1786    0.0000 H   0  0  0  0  0  0  0  0  0  0  0  0
   15.3387   -6.7805    0.0000 H   0  0  0  0  0  0  0  0  0  0  0  0
   13.8021   -9.7529    0.0000 H   0  0  0  0  0  0  0  0  0  0  0  0
   12.1751   -9.6396    0.0000 H   0  0  0  0  0  0  0  0  0  0  0  0
   11.6417  -10.2319    0.0000 H   0  0  0  0  0  0  0  0  0  0  0  0
   11.8451    9.7209    0.0000 H   0  0  0  0  0  0  0  0  0  0  0  0
   12.4651    9.1009    0.0000 H   0  0  0  0  0  0  0  0  0  0  0  0
   13.0851    9.7208    0.0000 H   0  0  0  0  0  0  0  0  0  0  0  0
    8.5007   -4.5367    0.0000 H   0  0  0  0  0  0  0  0  0  0  0  0
    8.8325   -5.5580    0.0000 H   0  0  0  0  0  0  0  0  0  0  0  0
   12.1397  -11.8456    0.0000 H   0  0  0  0  0  0  0  0  0  0  0  0
   12.6730  -11.2533    0.0000 H   0  0  0  0  0  0  0  0  0  0  0  0
   13.8266  -11.2201    0.0000 H   0  0  0  0  0  0  0  0  0  0  0  0
   14.5452  -10.4220    0.0000 H   0  0  0  0  0  0  0  0  0  0  0  0
   11.1360   10.4109    0.0000 H   0  0  0  0  0  0  0  0  0  0  0  0
   11.0161  -10.9267    0.0000 H   0  0  0  0  0  0  0  0  0  0  0  0
   10.4827  -11.5190    0.0000 H   0  0  0  0  0  0  0  0  0  0  0  0
   10.2700   11.5309    0.0000 H   0  0  0  0  0  0  0  0  0  0  0  0
   10.3531   12.2209    0.0000 H   0  0  0  0  0  0  0  0  0  0  0  0
    9.7331   12.8409    0.0000 H   0  0  0  0  0  0  0  0  0  0  0  0
    9.1131   12.2209    0.0000 H   0  0  0  0  0  0  0  0  0  0  0  0
    7.5380   10.4109    0.0000 H   0  0  0  0  0  0  0  0  0  0  0  0
    8.4040   11.5309    0.0000 H   0  0  0  0  0  0  0  0  0  0  0  0
    7.2131    9.1382    0.0000 H   0  0  0  0  0  0  0  0  0  0  0  0
    7.6116    9.8285    0.0000 H   0  0  0  0  0  0  0  0  0  0  0  0
    5.9230    9.8035    0.0000 H   0  0  0  0  0  0  0  0  0  0  0  0
    5.5244    9.1132    0.0000 H   0  0  0  0  0  0  0  0  0  0  0  0
    4.8059   11.5309    0.0000 H   0  0  0  0  0  0  0  0  0  0  0  0
    5.6720   10.4109    0.0000 H   0  0  0  0  0  0  0  0  0  0  0  0
    4.8796   12.1132    0.0000 H   0  0  0  0  0  0  0  0  0  0  0  0
    4.4810   12.8035    0.0000 H   0  0  0  0  0  0  0  0  0  0  0  0
    2.7924   12.8285    0.0000 H   0  0  0  0  0  0  0  0  0  0  0  0
    3.1909   12.1382    0.0000 H   0  0  0  0  0  0  0  0  0  0  0  0
    9.1458  -13.9976    0.0000 H   0  0  0  0  0  0  0  0  0  0  0  0
   10.1962  -14.2209    0.0000 H   0  0  0  0  0  0  0  0  0  0  0  0
    8.6106  -12.3503    0.0000 H   0  0  0  0  0  0  0  0  0  0  0  0
    9.3292  -11.5523    0.0000 H   0  0  0  0  0  0  0  0  0  0  0  0
    4.9590    8.2578    0.0000 H   0  0  0  0  0  0  0  0  0  0  0  0
    4.7320    7.4109    0.0000 H   0  0  0  0  0  0  0  0  0  0  0  0
    5.5790    7.1839    0.0000 H   0  0  0  0  0  0  0  0  0  0  0  0
    2.0000   10.9109    0.0000 H   0  0  0  0  0  0  0  0  0  0  0  0
    2.8469   14.7578    0.0000 H   0  0  0  0  0  0  0  0  0  0  0  0
    2.0000   14.5309    0.0000 H   0  0  0  0  0  0  0  0  0  0  0  0
    2.2269   13.6839    0.0000 H   0  0  0  0  0  0  0  0  0  0  0  0
  1 91  1  0  0  0  0
  1 96  1  0  0  0  0
  2 94  1  0  0  0  0
  2 97  1  0  0  0  0
  3 42  2  0  0  0  0
  4 44  2  0  0  0  0
  5 48  2  0  0  0  0
  6 52  2  0  0  0  0
  7 59  2  0  0  0  0
  8 61  2  0  0  0  0
  9 63  1  0  0  0  0
  9150  1  0  0  0  0
 10 66  2  0  0  0  0
 11 70  2  0  0  0  0
 12 74  2  0  0  0  0
 13 77  2  0  0  0  0
 14 81  2  0  0  0  0
 15 85  2  0  0  0  0
 16 89  2  0  0  0  0
 17 95  1  0  0  0  0
 17192  1  0  0  0  0
 18 95  2  0  0  0  0
 19 37  1  0  0  0  0
 19 39  1  0  0  0  0
 19 42  1  0  0  0  0
 41 20  1  1  0  0  0
 20 48  1  0  0  0  0
 20109  1  0  0  0  0
 21 44  1  0  0  0  0
 47 21  1  1  0  0  0
 21110  1  0  0  0  0
 51 22  1  6  0  0  0
 22 59  1  0  0  0  0
 22123  1  0  0  0  0
 23 52  1  0  0  0  0
 57 23  1  6  0  0  0
 23124  1  0  0  0  0
 24 56  1  0  0  0  0
 24 58  1  0  0  0  0
 24127  1  0  0  0  0
 60 25  1  1  0  0  0
 25 70  1  0  0  0  0
 25137  1  0  0  0  0
 26 61  1  0  0  0  0
 26142  1  0  0  0  0
 26143  1  0  0  0  0
 27 66  1  0  0  0  0
 75 27  1  1  0  0  0
 27144  1  0  0  0  0
 65 28  1  6  0  0  0
 28 77  1  0  0  0  0
 28145  1  0  0  0  0
 29 74  1  0  0  0  0
 29160  1  0  0  0  0
 29161  1  0  0  0  0
 78 30  1  1  0  0  0
 30164  1  0  0  0  0
 30165  1  0  0  0  0
 31 81  1  0  0  0  0
 83 31  1  6  0  0  0
 31166  1  0  0  0  0
 32 85  1  0  0  0  0
 87 32  1  1  0  0  0
 32174  1  0  0  0  0
 33 84  1  0  0  0  0
 33 90  2  0  0  0  0
 34 89  1  0  0  0  0
 92 34  1  6  0  0  0
 34180  1  0  0  0  0
 35 90  1  0  0  0  0
 35185  1  0  0  0  0
 35186  1  0  0  0  0
 36 90  1  0  0  0  0
 36187  1  0  0  0  0
 36188  1  0  0  0  0
 37 38  1  0  0  0  0
 37 44  1  1  0  0  0
 37 98  1  0  0  0  0
 38 40  1  0  0  0  0
 38 99  1  0  0  0  0
 38100  1  0  0  0  0
 39 40  1  0  0  0  0
 39101  1  0  0  0  0
 39102  1  0  0  0  0
 40103  1  0  0  0  0
 40104  1  0  0  0  0
 41 42  1  0  0  0  0
 41 43  1  0  0  0  0
 41105  1  0  0  0  0
 43 45  1  0  0  0  0
 43 46  1  6  0  0  0
 43106  1  0  0  0  0
 45 49  1  0  0  0  0
 45107  1  0  0  0  0
 45108  1  0  0  0  0
 46111  1  0  0  0  0
 46112  1  0  0  0  0
 46113  1  0  0  0  0
 47 50  1  0  0  0  0
 47 52  1  0  0  0  0
 47114  1  0  0  0  0
 48 51  1  0  0  0  0
 49115  1  0  0  0  0
 49116  1  0  0  0  0
 49117  1  0  0  0  0
 50 53  1  0  0  0  0
 50118  1  0  0  0  0
 50119  1  0  0  0  0
 51 54  1  0  0  0  0
 51120  1  0  0  0  0
 53 55  1  0  0  0  0
 53 56  2  0  0  0  0
 54 61  1  0  0  0  0
 54121  1  0  0  0  0
 54122  1  0  0  0  0
 55 58  1  0  0  0  0
 55 62  2  0  0  0  0
 56125  1  0  0  0  0
 57 63  1  0  0  0  0
 57 66  1  0  0  0  0
 57126  1  0  0  0  0
 58 64  2  0  0  0  0
 59 60  1  0  0  0  0
 60 68  1  0  0  0  0
 60128  1  0  0  0  0
 62 69  1  0  0  0  0
 62129  1  0  0  0  0
 63130  1  0  0  0  0
 63131  1  0  0  0  0
 64 71  1  0  0  0  0
 64132  1  0  0  0  0
 65 67  1  0  0  0  0
 65 70  1  0  0  0  0
 65133  1  0  0  0  0
 67 72  1  0  0  0  0
 67 73  1  1  0  0  0
 67134  1  0  0  0  0
 68 74  1  0  0  0  0
 68135  1  0  0  0  0
 68136  1  0  0  0  0
 69 71  2  0  0  0  0
 69138  1  0  0  0  0
 71139  1  0  0  0  0
 72 76  1  0  0  0  0
 72140  1  0  0  0  0
 72141  1  0  0  0  0
 73146  1  0  0  0  0
 73147  1  0  0  0  0
 73148  1  0  0  0  0
 75 80  1  0  0  0  0
 75 81  1  0  0  0  0
 75149  1  0  0  0  0
 76151  1  0  0  0  0
 76152  1  0  0  0  0
 76153  1  0  0  0  0
 77 78  1  0  0  0  0
 78 79  1  0  0  0  0
 78154  1  0  0  0  0
 79 82  1  0  0  0  0
 79155  1  0  0  0  0
 79156  1  0  0  0  0
 80157  1  0  0  0  0
 80158  1  0  0  0  0
 80159  1  0  0  0  0
 82 84  1  0  0  0  0
 82162  1  0  0  0  0
 82163  1  0  0  0  0
 83 85  1  0  0  0  0
 83 86  1  0  0  0  0
 83169  1  0  0  0  0
 84167  1  0  0  0  0
 84168  1  0  0  0  0
 86170  1  0  0  0  0
 86171  1  0  0  0  0
 86172  1  0  0  0  0
 87 88  1  0  0  0  0
 87 89  1  0  0  0  0
 87173  1  0  0  0  0
 88 91  1  0  0  0  0
 88175  1  0  0  0  0
 88176  1  0  0  0  0
 91177  1  0  0  0  0
 91178  1  0  0  0  0
 92 93  1  0  0  0  0
 92 95  1  0  0  0  0
 92179  1  0  0  0  0
 93 94  1  0  0  0  0
 93181  1  0  0  0  0
 93182  1  0  0  0  0
 94183  1  0  0  0  0
 94184  1  0  0  0  0
 96189  1  0  0  0  0
 96190  1  0  0  0  0
 96191  1  0  0  0  0
 97193  1  0  0  0  0
 97194  1  0  0  0  0
 97195  1  0  0  0  0
M  END
> <PUBCHEM_COMPOUND_CID>
516538
> <PUBCHEM_COMPOUND_CANONICALIZED>
1
> <PUBCHEM_CACTVS_COMPLEXITY>
2770
> <PUBCHEM_CACTVS_HBOND_ACCEPTOR>
20
> <PUBCHEM_CACTVS_HBOND_DONOR>
18
> <PUBCHEM_CACTVS_ROTATABLE_BOND>
43
> <PUBCHEM_CACTVS_SUBSKEYS>
AAADcfB//gBgAAAAAAAAAAAAAAAAAWLAAAAwAAAAAAAAAFgB8AAAHgQQCAAADSjl3ga/yPPJkgioAzX3fACCgCExAjAI2aG4ZJgKcP7g0bGUYAhmtgDYyAcdicCOgAAAAAACAAAAAAAAAAQAAAAAAAAAAA==
> <PUBCHEM_IUPAC_OPENEYE_NAME>
(2S)-2-[[(2S)-2-[[(2S)-2-[[(2S)-2-[[(2S)-2-[[(2S)-2-[[(2S)-1-[(2S,3S)-2-[[(2S)-4-amino-2-[[(2S)-4-amino-2-[[(2S,3S)-2-[[(2S)-2-amino-5-guanidino-pentanoyl]amino]-3-methyl-pentanoyl]amino]-4-oxo-butanoyl]amino]-4-oxo-butanoyl]amino]-3-methyl-pentanoyl]pyrrolidine-2-carbonyl]amino]-3-(1H-indol-3-yl)propanoyl]amino]-3-hydroxy-propanoyl]amino]propanoyl]amino]propanoyl]amino]-4-methylsulfanyl-butanoyl]amino]-4-methylsulfanyl-butanoic acid
> <PUBCHEM_IUPAC_CAS_NAME>
(2S)-2-[[(2S)-2-[[(2S)-2-[[(2S)-2-[[(2S)-2-[[(2S)-2-[[[(2S)-1-[(2S,3S)-2-[[(2S)-4-amino-2-[[(2S)-4-amino-2-[[(2S,3S)-2-[[(2S)-2-amino-5-(diaminomethylideneamino)-1-oxopentyl]amino]-3-methyl-1-oxopentyl]amino]-1,4-dioxobutyl]amino]-1,4-dioxobutyl]amino]-3-methyl-1-oxopentyl]-2-pyrrolidinyl]-oxomethyl]amino]-3-(1H-indol-3-yl)-1-oxopropyl]amino]-3-hydroxy-1-oxopropyl]amino]-1-oxopropyl]amino]-1-oxopropyl]amino]-4-(methylthio)-1-oxobutyl]amino]-4-(methylthio)butanoic acid
> <PUBCHEM_IUPAC_NAME_MARKUP>
(2<I>S</I>)-2-[[(2<I>S</I>)-2-[[(2<I>S</I>)-2-[[(2<I>S</I>)-2-[[(2<I>S</I>)-2-[[(2<I>S</I>)-2-[[(2<I>S</I>)-1-[(2<I>S</I>,3<I>S</I>)-2-[[(2<I>S</I>)-4-amino-2-[[(2<I>S</I>)-4-amino-2-[[(2<I>S</I>,3<I>S</I>)-2-[[(2<I>S</I>)-2-amino-5-(diaminomethylideneamino)pentanoyl]amino]-3-methylpentanoyl]amino]-4-oxobutanoyl]amino]-4-oxobutanoyl]amino]-3-methylpentanoyl]pyrrolidine-2-carbonyl]amino]-3-(1<I>H</I>-indol-3-yl)propanoyl]amino]-3-hydroxypropanoyl]amino]propanoyl]amino]propanoyl]amino]-4-methylsulfanylbutanoyl]amino]-4-methylsulfanylbutanoic acid
> <PUBCHEM_IUPAC_NAME>
(2S)-2-[[(2S)-2-[[(2S)-2-[[(2S)-2-[[(2S)-2-[[(2S)-2-[[(2S)-1-[(2S,3S)-2-[[(2S)-4-amino-2-[[(2S)-4-amino-2-[[(2S,3S)-2-[[(2S)-2-amino-5-(diaminomethylideneamino)pentanoyl]amino]-3-methylpentanoyl]amino]-4-oxobutanoyl]amino]-4-oxobutanoyl]amino]-3-methylpentanoyl]pyrrolidine-2-carbonyl]amino]-3-(1H-indol-3-yl)propanoyl]amino]-3-hydroxypropanoyl]amino]propanoyl]amino]propanoyl]amino]-4-methylsulfanylbutanoyl]amino]-4-methylsulfanylbutanoic acid
> <PUBCHEM_IUPAC_SYSTEMATIC_NAME>
(2S)-2-[[(2S)-2-[[(2S)-2-[[(2S)-2-[[(2S)-2-[[(2S)-2-[[(2S)-1-[(2S,3S)-2-[[(2S)-4-azanyl-2-[[(2S)-4-azanyl-2-[[(2S,3S)-2-[[(2S)-2-azanyl-5-[bis(azanyl)methylideneamino]pentanoyl]amino]-3-methyl-pentanoyl]amino]-4-oxidanylidene-butanoyl]amino]-4-oxidanylidene-butanoyl]amino]-3-methyl-pentanoyl]pyrrolidin-2-yl]carbonylamino]-3-(1H-indol-3-yl)propanoyl]amino]-3-oxidanyl-propanoyl]amino]propanoyl]amino]propanoyl]amino]-4-methylsulfanyl-butanoyl]amino]-4-methylsulfanyl-butanoic acid
> <PUBCHEM_IUPAC_TRADITIONAL_NAME>
(2S)-2-[[(2S)-2-[[(2S)-2-[[(2S)-2-[[(2S)-2-[[(2S)-2-[[(2S)-1-[(2S,3S)-2-[[(2S)-4-amino-2-[[(2S)-4-amino-2-[[(2S,3S)-2-[[(2S)-2-amino-5-guanidino-pentanoyl]amino]-3-methyl-pentanoyl]amino]-4-keto-butanoyl]amino]-4-keto-butanoyl]amino]-3-methyl-pentanoyl]prolyl]amino]-3-(1H-indol-3-yl)propanoyl]amino]-3-hydroxy-propanoyl]amino]propanoyl]amino]propanoyl]amino]-4-(methylthio)butanoyl]amino]-4-(methylthio)butyric acid
> <PUBCHEM_IUPAC_INCHI>
InChI=1S/C61H98N18O16S2/c1-9-30(3)47(77-51(85)36(62)16-13-21-67-61(65)66)58(92)75-41(26-45(63)81)54(88)73-42(27-46(64)82)55(89)78-48(31(4)10-2)59(93)79-22-14-18-44(79)57(91)74-40(25-34-28-68-37-17-12-11-15-35(34)37)53(87)76-43(29-80)56(90)70-32(5)49(83)69-33(6)50(84)71-38(19-23-96-7)52(86)72-39(60(94)95)20-24-97-8/h11-12,15,17,28,30-33,36,38-44,47-48,68,80H,9-10,13-14,16,18-27,29,62H2,1-8H3,(H2,63,81)(H2,64,82)(H,69,83)(H,70,90)(H,71,84)(H,72,86)(H,73,88)(H,74,91)(H,75,92)(H,76,87)(H,77,85)(H,78,89)(H,94,95)(H4,65,66,67)/t30-,31-,32-,33-,36-,38-,39-,40-,41-,42-,43-,44-,47-,48-/m0/s1
> <PUBCHEM_IUPAC_INCHIKEY>
HQABLCDHXTWMGD-YWJLGCOPSA-N
> <PUBCHEM_XLOGP3_AA>
-5.1
> <PUBCHEM_EXACT_MASS>
1402.68496146
> <PUBCHEM_MOLECULAR_FORMULA>
C61H98N18O16S2
> <PUBCHEM_MOLECULAR_WEIGHT>
1403.7
> <PUBCHEM_OPENEYE_CAN_SMILES>
CCC(C)C(C(=O)NC(CC(=O)N)C(=O)NC(CC(=O)N)C(=O)NC(C(C)CC)C(=O)N1CCCC1C(=O)NC(CC2=CNC3=CC=CC=C32)C(=O)NC(CO)C(=O)NC(C)C(=O)NC(C)C(=O)NC(CCSC)C(=O)NC(CCSC)C(=O)O)NC(=O)C(CCCN=C(N)N)N
> <PUBCHEM_OPENEYE_ISO_SMILES>
CC[C@H](C)[C@@H](C(=O)N[C@@H](CC(=O)N)C(=O)N[C@@H](CC(=O)N)C(=O)N[C@@H]([C@@H](C)CC)C(=O)N1CCC[C@H]1C(=O)N[C@@H](CC2=CNC3=CC=CC=C32)C(=O)N[C@@H](CO)C(=O)N[C@@H](C)C(=O)N[C@@H](C)C(=O)N[C@@H](CCSC)C(=O)N[C@@H](CCSC)C(=O)O)NC(=O)[C@H](CCCN=C(N)N)N
> <PUBCHEM_CACTVS_TPSA>
612
> <PUBCHEM_MONOISOTOPIC_WEIGHT>
1402.68496146
> <PUBCHEM_TOTAL_CHARGE>
0
> <PUBCHEM_HEAVY_ATOM_COUNT>
97
> <PUBCHEM_ATOM_DEF_STEREO_COUNT>
14
> <PUBCHEM_ATOM_UDEF_STEREO_COUNT>
0
> <PUBCHEM_BOND_DEF_STEREO_COUNT>
0
> <PUBCHEM_BOND_UDEF_STEREO_COUNT>
0
> <PUBCHEM_ISOTOPIC_ATOM_COUNT>
0
> <PUBCHEM_COMPONENT_COUNT>
1
> <PUBCHEM_CACTVS_TAUTO_COUNT>
-1
> <PUBCHEM_COORDINATE_TYPE>
1
5
255
> <PUBCHEM_BONDANNOTATIONS>
41  20  5
47  21  5
51  22  6
57  23  6
24  56  8
24  58  8
60  25  5
75  27  5
65  28  6
78  30  5
83  31  6
87  32  5
92  34  6
37  44  5
43  46  6
53  55  8
53  56  8
55  58  8
55  62  8
58  64  8
62  69  8
64  71  8
67  73  5
69  71  8
$$$$
