516549
  -OEChem-10302200282D
 77 81  0     1  0  0  0  0  0999 V2000
    6.6579    3.8747    0.0000 O   0  0  0  0  0  0  0  0  0  0  0  0
    5.1691    4.8438    0.0000 O   0  0  0  0  0  0  0  0  0  0  0  0
    2.5369    1.4029    0.0000 O   0  0  0  0  0  0  0  0  0  0  0  0
    3.4030    2.9029    0.0000 O   0  0  0  0  0  0  0  0  0  0  0  0
   13.8513   -4.8438    0.0000 O   0  0  0  0  0  0  0  0  0  0  0  0
    6.8671    0.9029    0.0000 C   0  0  2  0  0  0  0  0  0  0  0  0
    6.0010    1.4029    0.0000 C   0  0  2  0  0  0  0  0  0  0  0  0
    7.7331    1.4029    0.0000 C   0  0  2  0  0  0  0  0  0  0  0  0
    6.0008    0.4024    0.0000 C   0  0  0  0  0  0  0  0  0  0  0  0
    8.6431    0.8960    0.0000 C   0  0  1  0  0  0  0  0  0  0  0  0
    8.6511   -0.1456    0.0000 C   0  0  2  0  0  0  0  0  0  0  0  0
    6.8510   -0.1386    0.0000 C   0  0  0  0  0  0  0  0  0  0  0  0
    6.0010    2.4029    0.0000 C   0  0  1  0  0  0  0  0  0  0  0  0
    7.7331    2.4029    0.0000 C   0  0  0  0  0  0  0  0  0  0  0  0
    7.7490   -0.6664    0.0000 C   0  0  0  0  0  0  0  0  0  0  0  0
    6.8671    2.9029    0.0000 C   0  0  1  0  0  0  0  0  0  0  0  0
    5.1350    1.9029    0.0000 C   0  0  0  0  0  0  0  0  0  0  0  0
    9.6392   -0.4554    0.0000 C   0  0  2  0  0  0  0  0  0  0  0  0
    9.6262    1.2210    0.0000 C   0  0  0  0  0  0  0  0  0  0  0  0
   10.2406    0.3875    0.0000 C   0  0  0  0  0  0  0  0  0  0  0  0
    8.6354    1.8960    0.0000 C   0  0  0  0  0  0  0  0  0  0  0  0
    5.2640    3.0700    0.0000 C   0  0  0  0  0  0  0  0  0  0  0  0
    8.6588   -1.1455    0.0000 C   0  0  0  0  0  0  0  0  0  0  0  0
    9.9571   -1.4035    0.0000 C   0  0  1  0  0  0  0  0  0  0  0  0
    4.2690    1.4029    0.0000 C   0  0  0  0  0  0  0  0  0  0  0  0
    5.6691    3.9778    0.0000 C   0  0  0  0  0  0  0  0  0  0  0  0
   10.9372   -1.6021    0.0000 C   0  0  0  0  0  0  0  0  0  0  0  0
    4.2855    2.8637    0.0000 C   0  0  0  0  0  0  0  0  0  0  0  0
    9.2950   -2.1529    0.0000 C   0  0  0  0  0  0  0  0  0  0  0  0
    3.4030    1.9029    0.0000 C   0  0  0  0  0  0  0  0  0  0  0  0
   11.2552   -2.5502    0.0000 C   0  0  0  0  0  0  0  0  0  0  0  0
   12.2352   -2.7489    0.0000 C   0  0  0  0  0  0  0  0  0  0  0  0
   12.5532   -3.6970    0.0000 C   0  0  0  0  0  0  0  0  0  0  0  0
   11.8911   -4.4464    0.0000 C   0  0  0  0  0  0  0  0  0  0  0  0
   13.5333   -3.8957    0.0000 C   0  0  0  0  0  0  0  0  0  0  0  0
    8.4659    1.8335    0.0000 H   0  0  0  0  0  0  0  0  0  0  0  0
    5.3902    0.2948    0.0000 H   0  0  0  0  0  0  0  0  0  0  0  0
    6.2129   -0.1802    0.0000 H   0  0  0  0  0  0  0  0  0  0  0  0
    6.2419   -0.0231    0.0000 H   0  0  0  0  0  0  0  0  0  0  0  0
    6.6330   -0.7190    0.0000 H   0  0  0  0  0  0  0  0  0  0  0  0
    6.7372    1.9779    0.0000 H   0  0  0  0  0  0  0  0  0  0  0  0
    8.3437    2.2952    0.0000 H   0  0  0  0  0  0  0  0  0  0  0  0
    7.9451    2.9855    0.0000 H   0  0  0  0  0  0  0  0  0  0  0  0
    7.3481   -1.1393    0.0000 H   0  0  0  0  0  0  0  0  0  0  0  0
    8.1464   -1.1424    0.0000 H   0  0  0  0  0  0  0  0  0  0  0  0
    7.5541    3.4034    0.0000 H   0  0  0  0  0  0  0  0  0  0  0  0
    5.5335    2.3778    0.0000 H   0  0  0  0  0  0  0  0  0  0  0  0
    4.7365    2.3778    0.0000 H   0  0  0  0  0  0  0  0  0  0  0  0
   10.4798   -0.5808    0.0000 H   0  0  0  0  0  0  0  0  0  0  0  0
   10.1612    1.5344    0.0000 H   0  0  0  0  0  0  0  0  0  0  0  0
    9.3708    1.7860    0.0000 H   0  0  0  0  0  0  0  0  0  0  0  0
   10.7046   -0.0236    0.0000 H   0  0  0  0  0  0  0  0  0  0  0  0
   10.6982    0.8058    0.0000 H   0  0  0  0  0  0  0  0  0  0  0  0
    9.2554    1.9008    0.0000 H   0  0  0  0  0  0  0  0  0  0  0  0
    8.6306    2.5160    0.0000 H   0  0  0  0  0  0  0  0  0  0  0  0
    8.0154    1.8912    0.0000 H   0  0  0  0  0  0  0  0  0  0  0  0
    8.0388   -1.1503    0.0000 H   0  0  0  0  0  0  0  0  0  0  0  0
    8.6636   -1.7655    0.0000 H   0  0  0  0  0  0  0  0  0  0  0  0
    9.2788   -1.1408    0.0000 H   0  0  0  0  0  0  0  0  0  0  0  0
   10.1543   -1.9913    0.0000 H   0  0  0  0  0  0  0  0  0  0  0  0
    3.8705    0.9279    0.0000 H   0  0  0  0  0  0  0  0  0  0  0  0
    4.6675    0.9279    0.0000 H   0  0  0  0  0  0  0  0  0  0  0  0
   11.5503   -1.5101    0.0000 H   0  0  0  0  0  0  0  0  0  0  0  0
   10.9530   -0.9823    0.0000 H   0  0  0  0  0  0  0  0  0  0  0  0
    3.8714    3.3252    0.0000 H   0  0  0  0  0  0  0  0  0  0  0  0
    4.0929    2.2744    0.0000 H   0  0  0  0  0  0  0  0  0  0  0  0
    8.8304   -1.7424    0.0000 H   0  0  0  0  0  0  0  0  0  0  0  0
    8.8846   -2.6176    0.0000 H   0  0  0  0  0  0  0  0  0  0  0  0
    9.7597   -2.5634    0.0000 H   0  0  0  0  0  0  0  0  0  0  0  0
   10.6421   -2.6423    0.0000 H   0  0  0  0  0  0  0  0  0  0  0  0
   11.2394   -3.1700    0.0000 H   0  0  0  0  0  0  0  0  0  0  0  0
    2.0000    1.7129    0.0000 H   0  0  0  0  0  0  0  0  0  0  0  0
   12.6457   -2.2843    0.0000 H   0  0  0  0  0  0  0  0  0  0  0  0
   11.4265   -4.0359    0.0000 H   0  0  0  0  0  0  0  0  0  0  0  0
   11.4806   -4.9111    0.0000 H   0  0  0  0  0  0  0  0  0  0  0  0
   12.3558   -4.8569    0.0000 H   0  0  0  0  0  0  0  0  0  0  0  0
   13.9438   -3.4310    0.0000 H   0  0  0  0  0  0  0  0  0  0  0  0
  1 16  1  0  0  0  0
  1 26  1  0  0  0  0
  2 26  2  0  0  0  0
  3 30  1  0  0  0  0
  3 72  1  0  0  0  0
  4 30  2  0  0  0  0
  5 35  2  0  0  0  0
  6  7  1  0  0  0  0
  6  8  1  0  0  0  0
  6  9  1  6  0  0  0
  6 12  1  0  0  0  0
  7  9  1  0  0  0  0
  7 13  1  0  0  0  0
  7 17  1  1  0  0  0
  8 10  1  0  0  0  0
  8 14  1  0  0  0  0
  8 36  1  6  0  0  0
  9 37  1  0  0  0  0
  9 38  1  0  0  0  0
 10 11  1  0  0  0  0
 10 19  1  0  0  0  0
 10 21  1  1  0  0  0
 11 15  1  0  0  0  0
 11 18  1  0  0  0  0
 11 23  1  6  0  0  0
 12 15  1  0  0  0  0
 12 39  1  0  0  0  0
 12 40  1  0  0  0  0
 13 16  1  0  0  0  0
 13 22  1  0  0  0  0
 13 41  1  1  0  0  0
 14 16  1  0  0  0  0
 14 42  1  0  0  0  0
 14 43  1  0  0  0  0
 15 44  1  0  0  0  0
 15 45  1  0  0  0  0
 16 46  1  1  0  0  0
 17 25  1  0  0  0  0
 17 47  1  0  0  0  0
 17 48  1  0  0  0  0
 18 20  1  0  0  0  0
 18 24  1  0  0  0  0
 18 49  1  1  0  0  0
 19 20  1  0  0  0  0
 19 50  1  0  0  0  0
 19 51  1  0  0  0  0
 20 52  1  0  0  0  0
 20 53  1  0  0  0  0
 21 54  1  0  0  0  0
 21 55  1  0  0  0  0
 21 56  1  0  0  0  0
 22 26  1  0  0  0  0
 22 28  2  0  0  0  0
 23 57  1  0  0  0  0
 23 58  1  0  0  0  0
 23 59  1  0  0  0  0
 24 27  1  0  0  0  0
 24 29  1  1  0  0  0
 24 60  1  0  0  0  0
 25 30  1  0  0  0  0
 25 61  1  0  0  0  0
 25 62  1  0  0  0  0
 27 31  1  0  0  0  0
 27 63  1  0  0  0  0
 27 64  1  0  0  0  0
 28 65  1  0  0  0  0
 28 66  1  0  0  0  0
 29 67  1  0  0  0  0
 29 68  1  0  0  0  0
 29 69  1  0  0  0  0
 31 32  1  0  0  0  0
 31 70  1  0  0  0  0
 31 71  1  0  0  0  0
 32 33  2  3  0  0  0
 32 73  1  0  0  0  0
 33 34  1  0  0  0  0
 33 35  1  0  0  0  0
 34 74  1  0  0  0  0
 34 75  1  0  0  0  0
 34 76  1  0  0  0  0
 35 77  1  0  0  0  0
M  END
> <PUBCHEM_COMPOUND_CID>
516549
> <PUBCHEM_COMPOUND_CANONICALIZED>
1
> <PUBCHEM_CACTVS_COMPLEXITY>
997
> <PUBCHEM_CACTVS_HBOND_ACCEPTOR>
5
> <PUBCHEM_CACTVS_HBOND_DONOR>
1
> <PUBCHEM_CACTVS_ROTATABLE_BOND>
8
> <PUBCHEM_CACTVS_SUBSKEYS>
AAADcfB4OAAAAAAAAAAAAAAAGAAAAaIAAAAwYAAABgAAAGjAAAAAGgAACAAADxSggAICCAAABgCIAijSiAAAAAAgAAAACAEAAEgABBIAIQACQAAEwAAIIYOKyPCPgAAAAAAAAADAAAYAADAAAQAACAAAAA==
> <PUBCHEM_IUPAC_OPENEYE_NAME>
3-[(1S,3R,4R,8R,10S,11S,14R,15R)-14-[(1R)-1,5-dimethyl-6-oxo-hex-4-enyl]-11,15-dimethyl-5-methylene-6-oxo-7-oxapentacyclo[8.7.0.01,3.04,8.011,15]heptadecan-3-yl]propanoic acid
> <PUBCHEM_IUPAC_CAS_NAME>
3-[(1S,3R,4R,8R,10S,11S,14R,15R)-11,15-dimethyl-5-methylene-14-[(2R)-6-methyl-7-oxohept-5-en-2-yl]-6-oxo-7-oxapentacyclo[8.7.0.01,3.04,8.011,15]heptadecan-3-yl]propanoic acid
> <PUBCHEM_IUPAC_NAME_MARKUP>
3-[(1<I>S</I>,3<I>R</I>,4<I>R</I>,8<I>R</I>,10<I>S</I>,11<I>S</I>,14<I>R</I>,15<I>R</I>)-11,15-dimethyl-5-methylidene-14-[(2<I>R</I>)-6-methyl-7-oxohept-5-en-2-yl]-6-oxo-7-oxapentacyclo[8.7.0.0<SUP>1,3</SUP>.0<SUP>4,8</SUP>.0<SUP>11,15</SUP>]heptadecan-3-yl]propanoic acid
> <PUBCHEM_IUPAC_NAME>
3-[(1S,3R,4R,8R,10S,11S,14R,15R)-11,15-dimethyl-5-methylidene-14-[(2R)-6-methyl-7-oxohept-5-en-2-yl]-6-oxo-7-oxapentacyclo[8.7.0.01,3.04,8.011,15]heptadecan-3-yl]propanoic acid
> <PUBCHEM_IUPAC_SYSTEMATIC_NAME>
3-[(1S,3R,4R,8R,10S,11S,14R,15R)-11,15-dimethyl-5-methylidene-14-[(2R)-6-methyl-7-oxidanylidene-hept-5-en-2-yl]-6-oxidanylidene-7-oxapentacyclo[8.7.0.01,3.04,8.011,15]heptadecan-3-yl]propanoic acid
> <PUBCHEM_IUPAC_TRADITIONAL_NAME>
3-[(1S,3R,4R,8R,10S,11S,14R,15R)-6-keto-14-[(1R)-6-keto-1,5-dimethyl-hex-4-enyl]-11,15-dimethyl-5-methylene-7-oxapentacyclo[8.7.0.01,3.04,8.011,15]heptadecan-3-yl]propionic acid
> <PUBCHEM_IUPAC_INCHI>
InChI=1S/C30H42O5/c1-18(16-31)7-6-8-19(2)21-9-11-28(5)23-15-22-25(20(3)26(34)35-22)30(12-10-24(32)33)17-29(23,30)14-13-27(21,28)4/h7,16,19,21-23,25H,3,6,8-15,17H2,1-2,4-5H3,(H,32,33)/t19-,21-,22-,23+,25-,27-,28+,29+,30-/m1/s1
> <PUBCHEM_IUPAC_INCHIKEY>
YLQIANWVVVMWMO-YSFVFAJASA-N
> <PUBCHEM_XLOGP3_AA>
6.6
> <PUBCHEM_EXACT_MASS>
482.30322444
> <PUBCHEM_MOLECULAR_FORMULA>
C30H42O5
> <PUBCHEM_MOLECULAR_WEIGHT>
482.6
> <PUBCHEM_OPENEYE_CAN_SMILES>
CC(CCC=C(C)C=O)C1CCC2(C1(CCC34C2CC5C(C3(C4)CCC(=O)O)C(=C)C(=O)O5)C)C
> <PUBCHEM_OPENEYE_ISO_SMILES>
C[C@H](CCC=C(C)C=O)[C@H]1CC[C@@]2([C@@]1(CC[C@]34[C@H]2C[C@@H]5[C@H]([C@]3(C4)CCC(=O)O)C(=C)C(=O)O5)C)C
> <PUBCHEM_CACTVS_TPSA>
80.7
> <PUBCHEM_MONOISOTOPIC_WEIGHT>
482.30322444
> <PUBCHEM_TOTAL_CHARGE>
0
> <PUBCHEM_HEAVY_ATOM_COUNT>
35
> <PUBCHEM_ATOM_DEF_STEREO_COUNT>
9
> <PUBCHEM_ATOM_UDEF_STEREO_COUNT>
0
> <PUBCHEM_BOND_DEF_STEREO_COUNT>
0
> <PUBCHEM_BOND_UDEF_STEREO_COUNT>
1
> <PUBCHEM_ISOTOPIC_ATOM_COUNT>
0
> <PUBCHEM_COMPONENT_COUNT>
1
> <PUBCHEM_CACTVS_TAUTO_COUNT>
-1
> <PUBCHEM_COORDINATE_TYPE>
1
5
255
> <PUBCHEM_BONDANNOTATIONS>
10  21  5
11  23  6
13  41  5
16  46  5
18  49  5
24  29  5
32  33  1
6  9  6
7  17  5
8  36  6
$$$$
