516548
  -OEChem-10302200282D
 75 79  0     1  0  0  0  0  0999 V2000
    3.4244    3.0177    0.0000 O   0  0  0  0  0  0  0  0  0  0  0  0
    2.0000    2.1334    0.0000 O   0  0  0  0  0  0  0  0  0  0  0  0
    6.0166    1.1334    0.0000 C   0  0  2  0  0  0  0  0  0  0  0  0
    5.1506    1.6334    0.0000 C   0  0  2  0  0  0  0  0  0  0  0  0
    6.8826    1.6334    0.0000 C   0  0  2  0  0  0  0  0  0  0  0  0
    5.1503    0.6330    0.0000 C   0  0  0  0  0  0  0  0  0  0  0  0
    7.7926    1.1266    0.0000 C   0  0  1  0  0  0  0  0  0  0  0  0
    7.8007    0.0850    0.0000 C   0  0  2  0  0  0  0  0  0  0  0  0
    6.0005    0.0919    0.0000 C   0  0  0  0  0  0  0  0  0  0  0  0
    5.1506    2.6334    0.0000 C   0  0  1  0  0  0  0  0  0  0  0  0
    6.8986   -0.4358    0.0000 C   0  0  0  0  0  0  0  0  0  0  0  0
    6.8826    2.6334    0.0000 C   0  0  0  0  0  0  0  0  0  0  0  0
    4.3797    1.0271    0.0000 C   0  0  0  0  0  0  0  0  0  0  0  0
    8.7887   -0.2248    0.0000 C   0  0  2  0  0  0  0  0  0  0  0  0
    6.0166    3.1334    0.0000 C   0  0  0  0  0  0  0  0  0  0  0  0
    8.7758    1.4516    0.0000 C   0  0  0  0  0  0  0  0  0  0  0  0
    9.3901    0.6181    0.0000 C   0  0  0  0  0  0  0  0  0  0  0  0
    7.7849    2.1266    0.0000 C   0  0  0  0  0  0  0  0  0  0  0  0
    7.8084   -0.9150    0.0000 C   0  0  0  0  0  0  0  0  0  0  0  0
    4.3797    3.2398    0.0000 C   0  0  0  0  0  0  0  0  0  0  0  0
    3.4244    1.2492    0.0000 C   0  0  0  0  0  0  0  0  0  0  0  0
    9.1067   -1.1729    0.0000 C   0  0  1  0  0  0  0  0  0  0  0  0
    3.0000    2.1334    0.0000 C   0  0  0  0  0  0  0  0  0  0  0  0
   10.0867   -1.3716    0.0000 C   0  0  0  0  0  0  0  0  0  0  0  0
    8.4446   -1.9224    0.0000 C   0  0  0  0  0  0  0  0  0  0  0  0
    4.5969    4.2159    0.0000 C   0  0  0  0  0  0  0  0  0  0  0  0
   10.4047   -2.3197    0.0000 C   0  0  0  0  0  0  0  0  0  0  0  0
   11.3848   -2.5184    0.0000 C   0  0  0  0  0  0  0  0  0  0  0  0
   11.7028   -3.4665    0.0000 C   0  0  0  0  0  0  0  0  0  0  0  0
   12.6828   -3.6651    0.0000 C   0  0  0  0  0  0  0  0  0  0  0  0
   11.0407   -4.2159    0.0000 C   0  0  0  0  0  0  0  0  0  0  0  0
    7.6155    2.0641    0.0000 H   0  0  0  0  0  0  0  0  0  0  0  0
    4.5397    0.5254    0.0000 H   0  0  0  0  0  0  0  0  0  0  0  0
    5.3624    0.0504    0.0000 H   0  0  0  0  0  0  0  0  0  0  0  0
    5.3914    0.2074    0.0000 H   0  0  0  0  0  0  0  0  0  0  0  0
    5.7825   -0.4885    0.0000 H   0  0  0  0  0  0  0  0  0  0  0  0
    5.2113    3.4813    0.0000 H   0  0  0  0  0  0  0  0  0  0  0  0
    6.4976   -0.9087    0.0000 H   0  0  0  0  0  0  0  0  0  0  0  0
    7.2959   -0.9118    0.0000 H   0  0  0  0  0  0  0  0  0  0  0  0
    7.4932    2.5258    0.0000 H   0  0  0  0  0  0  0  0  0  0  0  0
    7.0947    3.2160    0.0000 H   0  0  0  0  0  0  0  0  0  0  0  0
    4.1079    0.4698    0.0000 H   0  0  0  0  0  0  0  0  0  0  0  0
    4.8622    0.6377    0.0000 H   0  0  0  0  0  0  0  0  0  0  0  0
    9.6294   -0.3502    0.0000 H   0  0  0  0  0  0  0  0  0  0  0  0
    6.4151    3.6084    0.0000 H   0  0  0  0  0  0  0  0  0  0  0  0
    5.6181    3.6084    0.0000 H   0  0  0  0  0  0  0  0  0  0  0  0
    9.3108    1.7650    0.0000 H   0  0  0  0  0  0  0  0  0  0  0  0
    8.5204    2.0166    0.0000 H   0  0  0  0  0  0  0  0  0  0  0  0
    9.8542    0.2069    0.0000 H   0  0  0  0  0  0  0  0  0  0  0  0
    9.8478    1.0363    0.0000 H   0  0  0  0  0  0  0  0  0  0  0  0
    8.4049    2.1313    0.0000 H   0  0  0  0  0  0  0  0  0  0  0  0
    7.7802    2.7465    0.0000 H   0  0  0  0  0  0  0  0  0  0  0  0
    7.1650    2.1218    0.0000 H   0  0  0  0  0  0  0  0  0  0  0  0
    7.1884   -0.9198    0.0000 H   0  0  0  0  0  0  0  0  0  0  0  0
    7.8132   -1.5350    0.0000 H   0  0  0  0  0  0  0  0  0  0  0  0
    8.4284   -0.9102    0.0000 H   0  0  0  0  0  0  0  0  0  0  0  0
    2.8196    1.1126    0.0000 H   0  0  0  0  0  0  0  0  0  0  0  0
    3.4224    0.6292    0.0000 H   0  0  0  0  0  0  0  0  0  0  0  0
    9.3038   -1.7607    0.0000 H   0  0  0  0  0  0  0  0  0  0  0  0
   10.6999   -1.2795    0.0000 H   0  0  0  0  0  0  0  0  0  0  0  0
   10.1025   -0.7518    0.0000 H   0  0  0  0  0  0  0  0  0  0  0  0
    7.9800   -1.5119    0.0000 H   0  0  0  0  0  0  0  0  0  0  0  0
    8.0341   -2.3870    0.0000 H   0  0  0  0  0  0  0  0  0  0  0  0
    8.9092   -2.3328    0.0000 H   0  0  0  0  0  0  0  0  0  0  0  0
    5.1884    4.4018    0.0000 H   0  0  0  0  0  0  0  0  0  0  0  0
    4.1402    4.6351    0.0000 H   0  0  0  0  0  0  0  0  0  0  0  0
    9.7916   -2.4118    0.0000 H   0  0  0  0  0  0  0  0  0  0  0  0
   10.3889   -2.9395    0.0000 H   0  0  0  0  0  0  0  0  0  0  0  0
   11.7953   -2.0537    0.0000 H   0  0  0  0  0  0  0  0  0  0  0  0
   12.5597   -4.2728    0.0000 H   0  0  0  0  0  0  0  0  0  0  0  0
   13.2905   -3.7883    0.0000 H   0  0  0  0  0  0  0  0  0  0  0  0
   12.8060   -3.0575    0.0000 H   0  0  0  0  0  0  0  0  0  0  0  0
   10.5760   -3.8054    0.0000 H   0  0  0  0  0  0  0  0  0  0  0  0
   10.6302   -4.6805    0.0000 H   0  0  0  0  0  0  0  0  0  0  0  0
   11.5053   -4.6264    0.0000 H   0  0  0  0  0  0  0  0  0  0  0  0
  1 20  1  0  0  0  0
  1 23  1  0  0  0  0
  2 23  2  0  0  0  0
  3  4  1  0  0  0  0
  3  5  1  0  0  0  0
  3  6  1  6  0  0  0
  3  9  1  0  0  0  0
  4  6  1  6  0  0  0
  4 10  1  0  0  0  0
  4 13  1  0  0  0  0
  5  7  1  0  0  0  0
  5 12  1  0  0  0  0
  5 32  1  6  0  0  0
  6 33  1  0  0  0  0
  6 34  1  0  0  0  0
  7  8  1  0  0  0  0
  7 16  1  0  0  0  0
  7 18  1  1  0  0  0
  8 11  1  0  0  0  0
  8 14  1  0  0  0  0
  8 19  1  6  0  0  0
  9 11  1  0  0  0  0
  9 35  1  0  0  0  0
  9 36  1  0  0  0  0
 10 15  1  0  0  0  0
 10 20  1  0  0  0  0
 10 37  1  1  0  0  0
 11 38  1  0  0  0  0
 11 39  1  0  0  0  0
 12 15  1  0  0  0  0
 12 40  1  0  0  0  0
 12 41  1  0  0  0  0
 13 21  1  0  0  0  0
 13 42  1  0  0  0  0
 13 43  1  0  0  0  0
 14 17  1  0  0  0  0
 14 22  1  0  0  0  0
 14 44  1  1  0  0  0
 15 45  1  0  0  0  0
 15 46  1  0  0  0  0
 16 17  1  0  0  0  0
 16 47  1  0  0  0  0
 16 48  1  0  0  0  0
 17 49  1  0  0  0  0
 17 50  1  0  0  0  0
 18 51  1  0  0  0  0
 18 52  1  0  0  0  0
 18 53  1  0  0  0  0
 19 54  1  0  0  0  0
 19 55  1  0  0  0  0
 19 56  1  0  0  0  0
 20 26  2  0  0  0  0
 21 23  1  0  0  0  0
 21 57  1  0  0  0  0
 21 58  1  0  0  0  0
 22 24  1  0  0  0  0
 22 25  1  1  0  0  0
 22 59  1  0  0  0  0
 24 27  1  0  0  0  0
 24 60  1  0  0  0  0
 24 61  1  0  0  0  0
 25 62  1  0  0  0  0
 25 63  1  0  0  0  0
 25 64  1  0  0  0  0
 26 65  1  0  0  0  0
 26 66  1  0  0  0  0
 27 28  1  0  0  0  0
 27 67  1  0  0  0  0
 27 68  1  0  0  0  0
 28 29  2  0  0  0  0
 28 69  1  0  0  0  0
 29 30  1  0  0  0  0
 29 31  1  0  0  0  0
 30 70  1  0  0  0  0
 30 71  1  0  0  0  0
 30 72  1  0  0  0  0
 31 73  1  0  0  0  0
 31 74  1  0  0  0  0
 31 75  1  0  0  0  0
M  END
> <PUBCHEM_COMPOUND_CID>
516548
> <PUBCHEM_COMPOUND_CANONICALIZED>
1
> <PUBCHEM_CACTVS_COMPLEXITY>
821
> <PUBCHEM_CACTVS_HBOND_ACCEPTOR>
2
> <PUBCHEM_CACTVS_HBOND_DONOR>
0
> <PUBCHEM_CACTVS_ROTATABLE_BOND>
4
> <PUBCHEM_CACTVS_SUBSKEYS>
AAADcfB4MAAAAAAAAAAAAAAAGAAAAYAAAAAwYAAABogAAGDAAAAAGgAAAAAADwSAgAACCAAABACIAiDSCAAACAAgAAAACAEAAAgAABIAAQACAAAEgAAIAAOIyPCPgAAAAAAAAACAAAQAACAAAQAACAAAAA==
> <PUBCHEM_IUPAC_OPENEYE_NAME>
(1S,3R,9R,12S,13S,16R,17R)-16-[(1R)-1,5-dimethylhex-4-enyl]-13,17-dimethyl-8-methylene-7-oxapentacyclo[10.7.0.01,3.03,9.013,17]nonadecan-6-one
> <PUBCHEM_IUPAC_CAS_NAME>
(1S,3R,9R,12S,13S,16R,17R)-13,17-dimethyl-8-methylene-16-[(2R)-6-methylhept-5-en-2-yl]-7-oxapentacyclo[10.7.0.01,3.03,9.013,17]nonadecan-6-one
> <PUBCHEM_IUPAC_NAME_MARKUP>
(1<I>S</I>,3<I>R</I>,9<I>R</I>,12<I>S</I>,13<I>S</I>,16<I>R</I>,17<I>R</I>)-13,17-dimethyl-16-[(2<I>R</I>)-6-methylhept-5-en-2-yl]-8-methylidene-7-oxapentacyclo[10.7.0.0<SUP>1,3</SUP>.0<SUP>3,9</SUP>.0<SUP>13,17</SUP>]nonadecan-6-one
> <PUBCHEM_IUPAC_NAME>
(1S,3R,9R,12S,13S,16R,17R)-13,17-dimethyl-16-[(2R)-6-methylhept-5-en-2-yl]-8-methylidene-7-oxapentacyclo[10.7.0.01,3.03,9.013,17]nonadecan-6-one
> <PUBCHEM_IUPAC_SYSTEMATIC_NAME>
(1S,3R,9R,12S,13S,16R,17R)-13,17-dimethyl-16-[(2R)-6-methylhept-5-en-2-yl]-8-methylidene-7-oxapentacyclo[10.7.0.01,3.03,9.013,17]nonadecan-6-one
> <PUBCHEM_IUPAC_TRADITIONAL_NAME>
(1S,3R,9R,12S,13S,16R,17R)-16-[(1R)-1,5-dimethylhex-4-enyl]-13,17-dimethyl-8-methylene-7-oxapentacyclo[10.7.0.01,3.03,9.013,17]nonadecan-6-one
> <PUBCHEM_IUPAC_INCHI>
InChI=1S/C29H44O2/c1-19(2)8-7-9-20(3)22-12-14-27(6)24-11-10-23-21(4)31-25(30)13-15-28(23)18-29(24,28)17-16-26(22,27)5/h8,20,22-24H,4,7,9-18H2,1-3,5-6H3/t20-,22-,23+,24+,26-,27+,28-,29+/m1/s1
> <PUBCHEM_IUPAC_INCHIKEY>
VFAMPHJYZBUSOU-YAYWIXMOSA-N
> <PUBCHEM_XLOGP3_AA>
8.8
> <PUBCHEM_EXACT_MASS>
424.334130642
> <PUBCHEM_MOLECULAR_FORMULA>
C29H44O2
> <PUBCHEM_MOLECULAR_WEIGHT>
424.7
> <PUBCHEM_OPENEYE_CAN_SMILES>
CC(CCC=C(C)C)C1CCC2(C1(CCC34C2CCC5C3(C4)CCC(=O)OC5=C)C)C
> <PUBCHEM_OPENEYE_ISO_SMILES>
C[C@H](CCC=C(C)C)[C@H]1CC[C@@]2([C@@]1(CC[C@]34[C@H]2CC[C@@H]5[C@]3(C4)CCC(=O)OC5=C)C)C
> <PUBCHEM_CACTVS_TPSA>
26.3
> <PUBCHEM_MONOISOTOPIC_WEIGHT>
424.334130642
> <PUBCHEM_TOTAL_CHARGE>
0
> <PUBCHEM_HEAVY_ATOM_COUNT>
31
> <PUBCHEM_ATOM_DEF_STEREO_COUNT>
8
> <PUBCHEM_ATOM_UDEF_STEREO_COUNT>
0
> <PUBCHEM_BOND_DEF_STEREO_COUNT>
0
> <PUBCHEM_BOND_UDEF_STEREO_COUNT>
0
> <PUBCHEM_ISOTOPIC_ATOM_COUNT>
0
> <PUBCHEM_COMPONENT_COUNT>
1
> <PUBCHEM_CACTVS_TAUTO_COUNT>
-1
> <PUBCHEM_COORDINATE_TYPE>
1
5
255
> <PUBCHEM_BONDANNOTATIONS>
10  37  5
14  44  5
22  25  5
3  6  6
4  6  6
5  32  6
7  18  5
8  19  6
$$$$
