516581
  -OEChem-10302200282D
 51 54  0     1  0  0  0  0  0999 V2000
    6.3397   -0.4900    0.0000 S   0  0  0  0  0  0  0  0  0  0  0  0
    5.8364    0.3741    0.0000 O   0  0  0  0  0  0  0  0  0  0  0  0
    6.8431   -1.3541    0.0000 O   0  0  0  0  0  0  0  0  0  0  0  0
    5.4756   -0.9933    0.0000 N   0  0  3  0  0  0  0  0  0  0  0  0
    9.8699    1.5342    0.0000 N   0  0  0  0  0  0  0  0  0  0  0  0
   10.7359    0.0342    0.0000 N   0  0  0  0  0  0  0  0  0  0  0  0
    9.8699   -1.4658    0.0000 N   0  0  0  0  0  0  0  0  0  0  0  0
   11.6019    1.5342    0.0000 N   0  0  0  0  0  0  0  0  0  0  0  0
    4.6077   -0.4967    0.0000 C   0  0  3  0  0  0  0  0  0  0  0  0
    3.7436   -1.0000    0.0000 C   0  0  0  0  0  0  0  0  0  0  0  0
    3.7475   -2.0000    0.0000 C   0  0  0  0  0  0  0  0  0  0  0  0
    5.4795   -1.9933    0.0000 C   0  0  0  0  0  0  0  0  0  0  0  0
    4.6154   -2.4966    0.0000 C   0  0  0  0  0  0  0  0  0  0  0  0
    4.6038    0.5033    0.0000 C   0  0  0  0  0  0  0  0  0  0  0  0
    3.7359    1.0000    0.0000 C   0  0  0  0  0  0  0  0  0  0  0  0
    7.2038    0.0134    0.0000 C   0  0  0  0  0  0  0  0  0  0  0  0
    8.1099   -0.5005    0.0000 C   0  0  0  0  0  0  0  0  0  0  0  0
    3.7320    2.0000    0.0000 C   0  0  0  0  0  0  0  0  0  0  0  0
    2.8718    0.4967    0.0000 C   0  0  0  0  0  0  0  0  0  0  0  0
    7.2038    1.0550    0.0000 C   0  0  0  0  0  0  0  0  0  0  0  0
    9.0038    0.0342    0.0000 C   0  0  0  0  0  0  0  0  0  0  0  0
    8.1099    1.5688    0.0000 C   0  0  0  0  0  0  0  0  0  0  0  0
    9.0038    1.0342    0.0000 C   0  0  0  0  0  0  0  0  0  0  0  0
    2.8641    2.4966    0.0000 C   0  0  0  0  0  0  0  0  0  0  0  0
    2.0038    0.9933    0.0000 C   0  0  0  0  0  0  0  0  0  0  0  0
    2.0000    1.9933    0.0000 C   0  0  0  0  0  0  0  0  0  0  0  0
    9.8699   -0.4658    0.0000 C   0  0  0  0  0  0  0  0  0  0  0  0
   10.7359    1.0342    0.0000 C   0  0  0  0  0  0  0  0  0  0  0  0
    5.1434   -0.1846    0.0000 H   0  0  0  0  0  0  0  0  0  0  0  0
    3.5293   -0.4182    0.0000 H   0  0  0  0  0  0  0  0  0  0  0  0
    3.1334   -1.1100    0.0000 H   0  0  0  0  0  0  0  0  0  0  0  0
    3.1365   -1.8947    0.0000 H   0  0  0  0  0  0  0  0  0  0  0  0
    3.5376   -2.5834    0.0000 H   0  0  0  0  0  0  0  0  0  0  0  0
    5.6938   -2.5751    0.0000 H   0  0  0  0  0  0  0  0  0  0  0  0
    6.0897   -1.8833    0.0000 H   0  0  0  0  0  0  0  0  0  0  0  0
    4.2187   -2.9731    0.0000 H   0  0  0  0  0  0  0  0  0  0  0  0
    5.0158   -2.9700    0.0000 H   0  0  0  0  0  0  0  0  0  0  0  0
    5.2148    0.3980    0.0000 H   0  0  0  0  0  0  0  0  0  0  0  0
    4.8136    1.0868    0.0000 H   0  0  0  0  0  0  0  0  0  0  0  0
    8.1171   -1.1204    0.0000 H   0  0  0  0  0  0  0  0  0  0  0  0
    4.2678    2.3120    0.0000 H   0  0  0  0  0  0  0  0  0  0  0  0
    2.8742   -0.1233    0.0000 H   0  0  0  0  0  0  0  0  0  0  0  0
    6.6681    1.3671    0.0000 H   0  0  0  0  0  0  0  0  0  0  0  0
    8.1171    2.1888    0.0000 H   0  0  0  0  0  0  0  0  0  0  0  0
    2.8617    3.1166    0.0000 H   0  0  0  0  0  0  0  0  0  0  0  0
    1.4681    0.6812    0.0000 H   0  0  0  0  0  0  0  0  0  0  0  0
    1.4619    2.3012    0.0000 H   0  0  0  0  0  0  0  0  0  0  0  0
   10.4068   -1.7758    0.0000 H   0  0  0  0  0  0  0  0  0  0  0  0
    9.3329   -1.7758    0.0000 H   0  0  0  0  0  0  0  0  0  0  0  0
   11.6019    2.1542    0.0000 H   0  0  0  0  0  0  0  0  0  0  0  0
   12.1388    1.2242    0.0000 H   0  0  0  0  0  0  0  0  0  0  0  0
  1  2  2  0  0  0  0
  1  3  2  0  0  0  0
  1  4  1  0  0  0  0
  1 16  1  0  0  0  0
  4  9  1  0  0  0  0
  4 12  1  0  0  0  0
  5 23  1  0  0  0  0
  5 28  2  0  0  0  0
  6 27  2  0  0  0  0
  6 28  1  0  0  0  0
  7 27  1  0  0  0  0
  7 48  1  0  0  0  0
  7 49  1  0  0  0  0
  8 28  1  0  0  0  0
  8 50  1  0  0  0  0
  8 51  1  0  0  0  0
  9 10  1  0  0  0  0
  9 14  1  0  0  0  0
  9 29  1  0  0  0  0
 10 11  1  0  0  0  0
 10 30  1  0  0  0  0
 10 31  1  0  0  0  0
 11 13  1  0  0  0  0
 11 32  1  0  0  0  0
 11 33  1  0  0  0  0
 12 13  1  0  0  0  0
 12 34  1  0  0  0  0
 12 35  1  0  0  0  0
 13 36  1  0  0  0  0
 13 37  1  0  0  0  0
 14 15  1  0  0  0  0
 14 38  1  0  0  0  0
 14 39  1  0  0  0  0
 15 18  2  0  0  0  0
 15 19  1  0  0  0  0
 16 17  2  0  0  0  0
 16 20  1  0  0  0  0
 17 21  1  0  0  0  0
 17 40  1  0  0  0  0
 18 24  1  0  0  0  0
 18 41  1  0  0  0  0
 19 25  2  0  0  0  0
 19 42  1  0  0  0  0
 20 22  2  0  0  0  0
 20 43  1  0  0  0  0
 21 23  2  0  0  0  0
 21 27  1  0  0  0  0
 22 23  1  0  0  0  0
 22 44  1  0  0  0  0
 24 26  2  0  0  0  0
 24 45  1  0  0  0  0
 25 26  1  0  0  0  0
 25 46  1  0  0  0  0
 26 47  1  0  0  0  0
M  END
> <PUBCHEM_COMPOUND_CID>
516581
> <PUBCHEM_COMPOUND_CANONICALIZED>
1
> <PUBCHEM_CACTVS_COMPLEXITY>
619
> <PUBCHEM_CACTVS_HBOND_ACCEPTOR>
7
> <PUBCHEM_CACTVS_HBOND_DONOR>
2
> <PUBCHEM_CACTVS_ROTATABLE_BOND>
4
> <PUBCHEM_CACTVS_SUBSKEYS>
AAADceB7sABAAAAAAAAAAAAAAAAAAAAAAAA8eIEAAAAAAACx9AAAHAQQQAAADCjBXgQx8fZIEAKgAyZiZHDCgDkhAqAJmDg4ZJiIKKLA2dGEJAhogALIyCcQgMAOAAQAgAACAAAACAEAAAQAAAAAAAAAAA==
> <PUBCHEM_IUPAC_OPENEYE_NAME>
6-[(2-benzyl-1-piperidyl)sulfonyl]quinazoline-2,4-diamine
> <PUBCHEM_IUPAC_CAS_NAME>
6-[[2-(phenylmethyl)-1-piperidinyl]sulfonyl]quinazoline-2,4-diamine
> <PUBCHEM_IUPAC_NAME_MARKUP>
6-(2-benzylpiperidin-1-yl)sulfonylquinazoline-2,4-diamine
> <PUBCHEM_IUPAC_NAME>
6-(2-benzylpiperidin-1-yl)sulfonylquinazoline-2,4-diamine
> <PUBCHEM_IUPAC_SYSTEMATIC_NAME>
6-[2-(phenylmethyl)piperidin-1-yl]sulfonylquinazoline-2,4-diamine
> <PUBCHEM_IUPAC_TRADITIONAL_NAME>
[2-amino-6-(2-benzylpiperidino)sulfonyl-quinazolin-4-yl]amine
> <PUBCHEM_IUPAC_INCHI>
InChI=1S/C20H23N5O2S/c21-19-17-13-16(9-10-18(17)23-20(22)24-19)28(26,27)25-11-5-4-8-15(25)12-14-6-2-1-3-7-14/h1-3,6-7,9-10,13,15H,4-5,8,11-12H2,(H4,21,22,23,24)
> <PUBCHEM_IUPAC_INCHIKEY>
MZXCGHXTJWOJFU-UHFFFAOYSA-N
> <PUBCHEM_XLOGP3_AA>
2.9
> <PUBCHEM_EXACT_MASS>
397.15724617
> <PUBCHEM_MOLECULAR_FORMULA>
C20H23N5O2S
> <PUBCHEM_MOLECULAR_WEIGHT>
397.5
> <PUBCHEM_OPENEYE_CAN_SMILES>
C1CCN(C(C1)CC2=CC=CC=C2)S(=O)(=O)C3=CC4=C(C=C3)N=C(N=C4N)N
> <PUBCHEM_OPENEYE_ISO_SMILES>
C1CCN(C(C1)CC2=CC=CC=C2)S(=O)(=O)C3=CC4=C(C=C3)N=C(N=C4N)N
> <PUBCHEM_CACTVS_TPSA>
124
> <PUBCHEM_MONOISOTOPIC_WEIGHT>
397.15724617
> <PUBCHEM_TOTAL_CHARGE>
0
> <PUBCHEM_HEAVY_ATOM_COUNT>
28
> <PUBCHEM_ATOM_DEF_STEREO_COUNT>
0
> <PUBCHEM_ATOM_UDEF_STEREO_COUNT>
1
> <PUBCHEM_BOND_DEF_STEREO_COUNT>
0
> <PUBCHEM_BOND_UDEF_STEREO_COUNT>
0
> <PUBCHEM_ISOTOPIC_ATOM_COUNT>
0
> <PUBCHEM_COMPONENT_COUNT>
1
> <PUBCHEM_CACTVS_TAUTO_COUNT>
12
> <PUBCHEM_COORDINATE_TYPE>
1
5
255
> <PUBCHEM_BONDANNOTATIONS>
15  18  8
15  19  8
16  17  8
16  20  8
17  21  8
18  24  8
19  25  8
20  22  8
21  23  8
21  27  8
22  23  8
24  26  8
25  26  8
5  23  8
5  28  8
6  27  8
6  28  8
9  14  3
$$$$
