516556
  -OEChem-10302200282D
 41 40  0     1  0  0  0  0  0999 V2000
    4.5981   -0.8100    0.0000 S   0  0  0  0  0  0  0  0  0  0  0  0
    9.7942    1.1900    0.0000 S   0  0  0  0  0  0  0  0  0  0  0  0
    3.7320    0.6900    0.0000 O   0  0  0  0  0  0  0  0  0  0  0  0
    8.0622   -1.8100    0.0000 O   0  0  0  0  0  0  0  0  0  0  0  0
   10.6603    0.6900    0.0000 O   0  0  0  0  0  0  0  0  0  0  0  0
    7.1962   -0.3100    0.0000 N   0  0  0  0  0  0  0  0  0  0  0  0
    9.7942   -0.8100    0.0000 N   0  0  0  0  0  0  0  0  0  0  0  0
    2.8660   -0.8100    0.0000 C   0  0  0  0  0  0  0  0  0  0  0  0
    2.0000   -1.3100    0.0000 C   0  0  0  0  0  0  0  0  0  0  0  0
    2.3660    0.0560    0.0000 C   0  0  0  0  0  0  0  0  0  0  0  0
    3.3660   -1.6760    0.0000 C   0  0  0  0  0  0  0  0  0  0  0  0
    3.7320   -0.3100    0.0000 C   0  0  0  0  0  0  0  0  0  0  0  0
    8.9282   -0.3100    0.0000 C   0  0  2  0  0  0  0  0  0  0  0  0
    6.3301   -0.8100    0.0000 C   0  0  0  0  0  0  0  0  0  0  0  0
    5.4641   -0.3100    0.0000 C   0  0  0  0  0  0  0  0  0  0  0  0
    8.0622   -0.8100    0.0000 C   0  0  0  0  0  0  0  0  0  0  0  0
    8.9282    0.6900    0.0000 C   0  0  0  0  0  0  0  0  0  0  0  0
   10.6603   -0.3100    0.0000 C   0  0  0  0  0  0  0  0  0  0  0  0
   11.5263   -0.8100    0.0000 C   0  0  0  0  0  0  0  0  0  0  0  0
    1.6900   -0.7731    0.0000 H   0  0  0  0  0  0  0  0  0  0  0  0
    1.4631   -1.6200    0.0000 H   0  0  0  0  0  0  0  0  0  0  0  0
    2.3100   -1.8469    0.0000 H   0  0  0  0  0  0  0  0  0  0  0  0
    2.9030    0.3660    0.0000 H   0  0  0  0  0  0  0  0  0  0  0  0
    2.0560    0.5930    0.0000 H   0  0  0  0  0  0  0  0  0  0  0  0
    1.8291   -0.2540    0.0000 H   0  0  0  0  0  0  0  0  0  0  0  0
    2.8291   -1.9860    0.0000 H   0  0  0  0  0  0  0  0  0  0  0  0
    3.6760   -2.2130    0.0000 H   0  0  0  0  0  0  0  0  0  0  0  0
    3.9030   -1.3660    0.0000 H   0  0  0  0  0  0  0  0  0  0  0  0
    9.4651   -0.0000    0.0000 H   0  0  0  0  0  0  0  0  0  0  0  0
    5.9316   -1.2850    0.0000 H   0  0  0  0  0  0  0  0  0  0  0  0
    6.7287   -1.2850    0.0000 H   0  0  0  0  0  0  0  0  0  0  0  0
    5.8626    0.1649    0.0000 H   0  0  0  0  0  0  0  0  0  0  0  0
    5.0656    0.1649    0.0000 H   0  0  0  0  0  0  0  0  0  0  0  0
    7.1962    0.3100    0.0000 H   0  0  0  0  0  0  0  0  0  0  0  0
    8.7162    1.2726    0.0000 H   0  0  0  0  0  0  0  0  0  0  0  0
    8.3176    0.5823    0.0000 H   0  0  0  0  0  0  0  0  0  0  0  0
    9.7942   -1.4300    0.0000 H   0  0  0  0  0  0  0  0  0  0  0  0
    9.7942    1.8100    0.0000 H   0  0  0  0  0  0  0  0  0  0  0  0
   11.2163   -1.3469    0.0000 H   0  0  0  0  0  0  0  0  0  0  0  0
   12.0632   -1.1200    0.0000 H   0  0  0  0  0  0  0  0  0  0  0  0
   11.8363   -0.2731    0.0000 H   0  0  0  0  0  0  0  0  0  0  0  0
  1 12  1  0  0  0  0
  1 15  1  0  0  0  0
  2 17  1  0  0  0  0
  2 38  1  0  0  0  0
  3 12  2  0  0  0  0
  4 16  2  0  0  0  0
  5 18  2  0  0  0  0
  6 14  1  0  0  0  0
  6 16  1  0  0  0  0
  6 34  1  0  0  0  0
 13  7  1  6  0  0  0
  7 18  1  0  0  0  0
  7 37  1  0  0  0  0
  8  9  1  0  0  0  0
  8 10  1  0  0  0  0
  8 11  1  0  0  0  0
  8 12  1  0  0  0  0
  9 20  1  0  0  0  0
  9 21  1  0  0  0  0
  9 22  1  0  0  0  0
 10 23  1  0  0  0  0
 10 24  1  0  0  0  0
 10 25  1  0  0  0  0
 11 26  1  0  0  0  0
 11 27  1  0  0  0  0
 11 28  1  0  0  0  0
 13 16  1  0  0  0  0
 13 17  1  0  0  0  0
 13 29  1  0  0  0  0
 14 15  1  0  0  0  0
 14 30  1  0  0  0  0
 14 31  1  0  0  0  0
 15 32  1  0  0  0  0
 15 33  1  0  0  0  0
 17 35  1  0  0  0  0
 17 36  1  0  0  0  0
 18 19  1  0  0  0  0
 19 39  1  0  0  0  0
 19 40  1  0  0  0  0
 19 41  1  0  0  0  0
M  END
> <PUBCHEM_COMPOUND_CID>
516556
> <PUBCHEM_COMPOUND_CANONICALIZED>
1
> <PUBCHEM_CACTVS_COMPLEXITY>
340
> <PUBCHEM_CACTVS_HBOND_ACCEPTOR>
5
> <PUBCHEM_CACTVS_HBOND_DONOR>
3
> <PUBCHEM_CACTVS_ROTATABLE_BOND>
8
> <PUBCHEM_CACTVS_SUBSKEYS>
AAADceBzMABgAAAAAAAAAAAAAAAAAAAAAAAAAAAAAAAAAAAAAAAAHgQQAAAADijFwASCAALAAAwIAAEQEAAAAAAAABAAAIGIAAAAQAAgACAUAAAAFgCgAAAAAAAAAAAAAAAAAAAAAAAAAAAAAAAAAAAAAA==
> <PUBCHEM_IUPAC_OPENEYE_NAME>
S-[2-[[(2R)-2-acetamido-3-sulfanyl-propanoyl]amino]ethyl] 2,2-dimethylpropanethioate
> <PUBCHEM_IUPAC_CAS_NAME>
2,2-dimethylpropanethioic acid S-[2-[[(2R)-2-acetamido-3-mercapto-1-oxopropyl]amino]ethyl] ester
> <PUBCHEM_IUPAC_NAME_MARKUP>
<I>S</I>-[2-[[(2<I>R</I>)-2-acetamido-3-sulfanylpropanoyl]amino]ethyl] 2,2-dimethylpropanethioate
> <PUBCHEM_IUPAC_NAME>
S-[2-[[(2R)-2-acetamido-3-sulfanylpropanoyl]amino]ethyl] 2,2-dimethylpropanethioate
> <PUBCHEM_IUPAC_SYSTEMATIC_NAME>
S-[2-[[(2R)-2-acetamido-3-sulfanyl-propanoyl]amino]ethyl] 2,2-dimethylpropanethioate
> <PUBCHEM_IUPAC_TRADITIONAL_NAME>
2,2-dimethylpropanethioic acid S-[2-[[(2R)-2-acetamido-3-mercapto-propanoyl]amino]ethyl] ester
> <PUBCHEM_IUPAC_INCHI>
InChI=1S/C12H22N2O3S2/c1-8(15)14-9(7-18)10(16)13-5-6-19-11(17)12(2,3)4/h9,18H,5-7H2,1-4H3,(H,13,16)(H,14,15)/t9-/m0/s1
> <PUBCHEM_IUPAC_INCHIKEY>
RJQQUWMMKDXXLV-VIFPVBQESA-N
> <PUBCHEM_XLOGP3_AA>
1
> <PUBCHEM_EXACT_MASS>
306.10718492
> <PUBCHEM_MOLECULAR_FORMULA>
C12H22N2O3S2
> <PUBCHEM_MOLECULAR_WEIGHT>
306.4
> <PUBCHEM_OPENEYE_CAN_SMILES>
CC(=O)NC(CS)C(=O)NCCSC(=O)C(C)(C)C
> <PUBCHEM_OPENEYE_ISO_SMILES>
CC(=O)N[C@@H](CS)C(=O)NCCSC(=O)C(C)(C)C
> <PUBCHEM_CACTVS_TPSA>
102
> <PUBCHEM_MONOISOTOPIC_WEIGHT>
306.10718492
> <PUBCHEM_TOTAL_CHARGE>
0
> <PUBCHEM_HEAVY_ATOM_COUNT>
19
> <PUBCHEM_ATOM_DEF_STEREO_COUNT>
1
> <PUBCHEM_ATOM_UDEF_STEREO_COUNT>
0
> <PUBCHEM_BOND_DEF_STEREO_COUNT>
0
> <PUBCHEM_BOND_UDEF_STEREO_COUNT>
0
> <PUBCHEM_ISOTOPIC_ATOM_COUNT>
0
> <PUBCHEM_COMPONENT_COUNT>
1
> <PUBCHEM_CACTVS_TAUTO_COUNT>
-1
> <PUBCHEM_COORDINATE_TYPE>
1
5
255
> <PUBCHEM_BONDANNOTATIONS>
13  7  6
$$$$
