516570
  -OEChem-10302200282D
 27 26  0     1  0  0  0  0  0999 V2000
    3.7320   -1.1900    0.0000 S   0  0  0  0  0  0  0  0  0  0  0  0
    8.9282    0.8100    0.0000 S   0  0  0  0  0  0  0  0  0  0  0  0
    5.4641    1.8100    0.0000 O   0  0  0  0  0  0  0  0  0  0  0  0
    2.8660   -0.6900    0.0000 O   0  0  0  0  0  0  0  0  0  0  0  0
    3.7320    0.8100    0.0000 N   0  0  0  0  0  0  0  0  0  0  0  0
    6.3301    0.3100    0.0000 N   0  0  0  0  0  0  0  0  0  0  0  0
    4.5981    0.3100    0.0000 C   0  0  2  0  0  0  0  0  0  0  0  0
    5.4641    0.8100    0.0000 C   0  0  0  0  0  0  0  0  0  0  0  0
    4.5981   -0.6900    0.0000 C   0  0  0  0  0  0  0  0  0  0  0  0
    7.1962    0.8100    0.0000 C   0  0  0  0  0  0  0  0  0  0  0  0
    8.0622    0.3100    0.0000 C   0  0  0  0  0  0  0  0  0  0  0  0
    2.8660    0.3100    0.0000 C   0  0  0  0  0  0  0  0  0  0  0  0
    2.0000    0.8100    0.0000 C   0  0  0  0  0  0  0  0  0  0  0  0
    4.5981    0.9300    0.0000 H   0  0  0  0  0  0  0  0  0  0  0  0
    4.8101   -1.2726    0.0000 H   0  0  0  0  0  0  0  0  0  0  0  0
    5.2087   -0.5823    0.0000 H   0  0  0  0  0  0  0  0  0  0  0  0
    3.7320    1.4300    0.0000 H   0  0  0  0  0  0  0  0  0  0  0  0
    6.3301   -0.3100    0.0000 H   0  0  0  0  0  0  0  0  0  0  0  0
    7.5947    1.2850    0.0000 H   0  0  0  0  0  0  0  0  0  0  0  0
    6.7976    1.2850    0.0000 H   0  0  0  0  0  0  0  0  0  0  0  0
    7.6636   -0.1649    0.0000 H   0  0  0  0  0  0  0  0  0  0  0  0
    8.4607   -0.1649    0.0000 H   0  0  0  0  0  0  0  0  0  0  0  0
    3.7320   -1.8100    0.0000 H   0  0  0  0  0  0  0  0  0  0  0  0
    2.3100    1.3469    0.0000 H   0  0  0  0  0  0  0  0  0  0  0  0
    1.4631    1.1200    0.0000 H   0  0  0  0  0  0  0  0  0  0  0  0
    1.6900    0.2731    0.0000 H   0  0  0  0  0  0  0  0  0  0  0  0
    9.4651    0.5000    0.0000 H   0  0  0  0  0  0  0  0  0  0  0  0
  1  9  1  0  0  0  0
  1 23  1  0  0  0  0
  2 11  1  0  0  0  0
  2 27  1  0  0  0  0
  3  8  2  0  0  0  0
  4 12  2  0  0  0  0
  7  5  1  6  0  0  0
  5 12  1  0  0  0  0
  5 17  1  0  0  0  0
  6  8  1  0  0  0  0
  6 10  1  0  0  0  0
  6 18  1  0  0  0  0
  7  8  1  0  0  0  0
  7  9  1  0  0  0  0
  7 14  1  0  0  0  0
  9 15  1  0  0  0  0
  9 16  1  0  0  0  0
 10 11  1  0  0  0  0
 10 19  1  0  0  0  0
 10 20  1  0  0  0  0
 11 21  1  0  0  0  0
 11 22  1  0  0  0  0
 12 13  1  0  0  0  0
 13 24  1  0  0  0  0
 13 25  1  0  0  0  0
 13 26  1  0  0  0  0
M  END
> <PUBCHEM_COMPOUND_CID>
516570
> <PUBCHEM_COMPOUND_CANONICALIZED>
1
> <PUBCHEM_CACTVS_COMPLEXITY>
187
> <PUBCHEM_CACTVS_HBOND_ACCEPTOR>
4
> <PUBCHEM_CACTVS_HBOND_DONOR>
4
> <PUBCHEM_CACTVS_ROTATABLE_BOND>
5
> <PUBCHEM_CACTVS_SUBSKEYS>
AAADccBjMABgAAAAAAAAAAAAAAAAAAAAAAAAAAAAAAAAAAAAAAAAHgQQAAAACCjFwASCAALAAAQIAAEQEAAAAAAAAAAAAIGIAAAAQAAAACAUAAAAFgCAAAAAAAAAAAAAAAAAAAAAAAAAAAAAAAAAAAAAAA==
> <PUBCHEM_IUPAC_OPENEYE_NAME>
(2R)-2-acetamido-3-sulfanyl-N-(2-sulfanylethyl)propanamide
> <PUBCHEM_IUPAC_CAS_NAME>
(2R)-2-acetamido-3-mercapto-N-(2-mercaptoethyl)propanamide
> <PUBCHEM_IUPAC_NAME_MARKUP>
(2<I>R</I>)-2-acetamido-3-sulfanyl-<I>N</I>-(2-sulfanylethyl)propanamide
> <PUBCHEM_IUPAC_NAME>
(2R)-2-acetamido-3-sulfanyl-N-(2-sulfanylethyl)propanamide
> <PUBCHEM_IUPAC_SYSTEMATIC_NAME>
(2R)-2-acetamido-3-sulfanyl-N-(2-sulfanylethyl)propanamide
> <PUBCHEM_IUPAC_TRADITIONAL_NAME>
(2R)-2-acetamido-3-mercapto-N-(2-mercaptoethyl)propionamide
> <PUBCHEM_IUPAC_INCHI>
InChI=1S/C7H14N2O2S2/c1-5(10)9-6(4-13)7(11)8-2-3-12/h6,12-13H,2-4H2,1H3,(H,8,11)(H,9,10)/t6-/m0/s1
> <PUBCHEM_IUPAC_INCHIKEY>
FYQBKQCYPYVAAK-LURJTMIESA-N
> <PUBCHEM_XLOGP3_AA>
-0.5
> <PUBCHEM_EXACT_MASS>
222.04967004
> <PUBCHEM_MOLECULAR_FORMULA>
C7H14N2O2S2
> <PUBCHEM_MOLECULAR_WEIGHT>
222.3
> <PUBCHEM_OPENEYE_CAN_SMILES>
CC(=O)NC(CS)C(=O)NCCS
> <PUBCHEM_OPENEYE_ISO_SMILES>
CC(=O)N[C@@H](CS)C(=O)NCCS
> <PUBCHEM_CACTVS_TPSA>
60.2
> <PUBCHEM_MONOISOTOPIC_WEIGHT>
222.04967004
> <PUBCHEM_TOTAL_CHARGE>
0
> <PUBCHEM_HEAVY_ATOM_COUNT>
13
> <PUBCHEM_ATOM_DEF_STEREO_COUNT>
1
> <PUBCHEM_ATOM_UDEF_STEREO_COUNT>
0
> <PUBCHEM_BOND_DEF_STEREO_COUNT>
0
> <PUBCHEM_BOND_UDEF_STEREO_COUNT>
0
> <PUBCHEM_ISOTOPIC_ATOM_COUNT>
0
> <PUBCHEM_COMPONENT_COUNT>
1
> <PUBCHEM_CACTVS_TAUTO_COUNT>
-1
> <PUBCHEM_COORDINATE_TYPE>
1
5
255
> <PUBCHEM_BONDANNOTATIONS>
7  5  6
$$$$
