516547
  -OEChem-10302200282D
 81 85  0     1  0  0  0  0  0999 V2000
    6.9870    3.6760    0.0000 O   0  0  0  0  0  0  0  0  0  0  0  0
    5.4982    4.6451    0.0000 O   0  0  0  0  0  0  0  0  0  0  0  0
    2.8660    1.2042    0.0000 O   0  0  0  0  0  0  0  0  0  0  0  0
    3.7320    2.7042    0.0000 O   0  0  0  0  0  0  0  0  0  0  0  0
    7.1962    0.7042    0.0000 C   0  0  2  0  0  0  0  0  0  0  0  0
    6.3301    1.2042    0.0000 C   0  0  2  0  0  0  0  0  0  0  0  0
    8.0622    1.2042    0.0000 C   0  0  2  0  0  0  0  0  0  0  0  0
    6.3299    0.2038    0.0000 C   0  0  0  0  0  0  0  0  0  0  0  0
    8.9722    0.6974    0.0000 C   0  0  1  0  0  0  0  0  0  0  0  0
    8.9802   -0.3442    0.0000 C   0  0  2  0  0  0  0  0  0  0  0  0
    7.1801   -0.3373    0.0000 C   0  0  0  0  0  0  0  0  0  0  0  0
    6.3301    2.2042    0.0000 C   0  0  1  0  0  0  0  0  0  0  0  0
    8.0622    2.2042    0.0000 C   0  0  0  0  0  0  0  0  0  0  0  0
    8.0781   -0.8651    0.0000 C   0  0  0  0  0  0  0  0  0  0  0  0
    7.1962    2.7042    0.0000 C   0  0  1  0  0  0  0  0  0  0  0  0
    5.4641    1.7042    0.0000 C   0  0  0  0  0  0  0  0  0  0  0  0
    9.9682   -0.6540    0.0000 C   0  0  2  0  0  0  0  0  0  0  0  0
    9.9553    1.0224    0.0000 C   0  0  0  0  0  0  0  0  0  0  0  0
   10.5697    0.1888    0.0000 C   0  0  0  0  0  0  0  0  0  0  0  0
    8.9645    1.6973    0.0000 C   0  0  0  0  0  0  0  0  0  0  0  0
    5.5931    2.8713    0.0000 C   0  0  0  0  0  0  0  0  0  0  0  0
    8.9879   -1.3442    0.0000 C   0  0  0  0  0  0  0  0  0  0  0  0
   10.2862   -1.6021    0.0000 C   0  0  1  0  0  0  0  0  0  0  0  0
    4.5981    1.2042    0.0000 C   0  0  0  0  0  0  0  0  0  0  0  0
    5.9982    3.7791    0.0000 C   0  0  0  0  0  0  0  0  0  0  0  0
   11.2663   -1.8008    0.0000 C   0  0  0  0  0  0  0  0  0  0  0  0
    4.6146    2.6651    0.0000 C   0  0  0  0  0  0  0  0  0  0  0  0
    9.6241   -2.3516    0.0000 C   0  0  0  0  0  0  0  0  0  0  0  0
    3.7320    1.7042    0.0000 C   0  0  0  0  0  0  0  0  0  0  0  0
   11.5843   -2.7489    0.0000 C   0  0  0  0  0  0  0  0  0  0  0  0
   12.5643   -2.9476    0.0000 C   0  0  0  0  0  0  0  0  0  0  0  0
    2.0000    1.7042    0.0000 C   0  0  0  0  0  0  0  0  0  0  0  0
   12.8823   -3.8957    0.0000 C   0  0  0  0  0  0  0  0  0  0  0  0
   13.8624   -4.0944    0.0000 C   0  0  0  0  0  0  0  0  0  0  0  0
   12.2202   -4.6451    0.0000 C   0  0  0  0  0  0  0  0  0  0  0  0
    8.7950    1.6349    0.0000 H   0  0  0  0  0  0  0  0  0  0  0  0
    5.7193    0.0962    0.0000 H   0  0  0  0  0  0  0  0  0  0  0  0
    6.5420   -0.3788    0.0000 H   0  0  0  0  0  0  0  0  0  0  0  0
    6.5710   -0.2218    0.0000 H   0  0  0  0  0  0  0  0  0  0  0  0
    6.9621   -0.9177    0.0000 H   0  0  0  0  0  0  0  0  0  0  0  0
    7.0662    1.7792    0.0000 H   0  0  0  0  0  0  0  0  0  0  0  0
    8.6728    2.0966    0.0000 H   0  0  0  0  0  0  0  0  0  0  0  0
    8.2742    2.7868    0.0000 H   0  0  0  0  0  0  0  0  0  0  0  0
    7.6772   -1.3379    0.0000 H   0  0  0  0  0  0  0  0  0  0  0  0
    8.4754   -1.3410    0.0000 H   0  0  0  0  0  0  0  0  0  0  0  0
    7.8832    3.2047    0.0000 H   0  0  0  0  0  0  0  0  0  0  0  0
    5.8626    2.1792    0.0000 H   0  0  0  0  0  0  0  0  0  0  0  0
    5.0656    2.1792    0.0000 H   0  0  0  0  0  0  0  0  0  0  0  0
   10.8089   -0.7794    0.0000 H   0  0  0  0  0  0  0  0  0  0  0  0
   10.4903    1.3357    0.0000 H   0  0  0  0  0  0  0  0  0  0  0  0
    9.6999    1.5873    0.0000 H   0  0  0  0  0  0  0  0  0  0  0  0
   11.0337   -0.2223    0.0000 H   0  0  0  0  0  0  0  0  0  0  0  0
   11.0273    0.6071    0.0000 H   0  0  0  0  0  0  0  0  0  0  0  0
    9.5844    1.7021    0.0000 H   0  0  0  0  0  0  0  0  0  0  0  0
    8.9597    2.3173    0.0000 H   0  0  0  0  0  0  0  0  0  0  0  0
    8.3445    1.6926    0.0000 H   0  0  0  0  0  0  0  0  0  0  0  0
    8.3679   -1.3490    0.0000 H   0  0  0  0  0  0  0  0  0  0  0  0
    8.9927   -1.9642    0.0000 H   0  0  0  0  0  0  0  0  0  0  0  0
    9.6079   -1.3394    0.0000 H   0  0  0  0  0  0  0  0  0  0  0  0
    9.6786   -1.4790    0.0000 H   0  0  0  0  0  0  0  0  0  0  0  0
    4.1996    0.7293    0.0000 H   0  0  0  0  0  0  0  0  0  0  0  0
    4.9966    0.7293    0.0000 H   0  0  0  0  0  0  0  0  0  0  0  0
   11.8794   -1.7087    0.0000 H   0  0  0  0  0  0  0  0  0  0  0  0
   11.2821   -1.1810    0.0000 H   0  0  0  0  0  0  0  0  0  0  0  0
    4.2005    3.1265    0.0000 H   0  0  0  0  0  0  0  0  0  0  0  0
    4.4220    2.0758    0.0000 H   0  0  0  0  0  0  0  0  0  0  0  0
    9.1595   -1.9411    0.0000 H   0  0  0  0  0  0  0  0  0  0  0  0
    9.2136   -2.8162    0.0000 H   0  0  0  0  0  0  0  0  0  0  0  0
   10.0888   -2.7621    0.0000 H   0  0  0  0  0  0  0  0  0  0  0  0
   10.9711   -2.8410    0.0000 H   0  0  0  0  0  0  0  0  0  0  0  0
   11.5685   -3.3687    0.0000 H   0  0  0  0  0  0  0  0  0  0  0  0
   12.9748   -2.4829    0.0000 H   0  0  0  0  0  0  0  0  0  0  0  0
    2.3100    2.2412    0.0000 H   0  0  0  0  0  0  0  0  0  0  0  0
    1.4631    2.0142    0.0000 H   0  0  0  0  0  0  0  0  0  0  0  0
    1.6900    1.1673    0.0000 H   0  0  0  0  0  0  0  0  0  0  0  0
   13.7392   -4.7020    0.0000 H   0  0  0  0  0  0  0  0  0  0  0  0
   14.4700   -4.2175    0.0000 H   0  0  0  0  0  0  0  0  0  0  0  0
   13.9856   -3.4867    0.0000 H   0  0  0  0  0  0  0  0  0  0  0  0
   11.7556   -4.2346    0.0000 H   0  0  0  0  0  0  0  0  0  0  0  0
   11.8097   -5.1098    0.0000 H   0  0  0  0  0  0  0  0  0  0  0  0
   12.6849   -5.0556    0.0000 H   0  0  0  0  0  0  0  0  0  0  0  0
  1 15  1  0  0  0  0
  1 25  1  0  0  0  0
  2 25  2  0  0  0  0
  3 29  1  0  0  0  0
  3 32  1  0  0  0  0
  4 29  2  0  0  0  0
  5  6  1  0  0  0  0
  5  7  1  0  0  0  0
  5  8  1  6  0  0  0
  5 11  1  0  0  0  0
  6  8  1  0  0  0  0
  6 12  1  0  0  0  0
  6 16  1  1  0  0  0
  7  9  1  0  0  0  0
  7 13  1  0  0  0  0
  7 36  1  6  0  0  0
  8 37  1  0  0  0  0
  8 38  1  0  0  0  0
  9 10  1  0  0  0  0
  9 18  1  0  0  0  0
  9 20  1  1  0  0  0
 10 14  1  0  0  0  0
 10 17  1  0  0  0  0
 10 22  1  6  0  0  0
 11 14  1  0  0  0  0
 11 39  1  0  0  0  0
 11 40  1  0  0  0  0
 12 15  1  0  0  0  0
 12 21  1  0  0  0  0
 12 41  1  1  0  0  0
 13 15  1  0  0  0  0
 13 42  1  0  0  0  0
 13 43  1  0  0  0  0
 14 44  1  0  0  0  0
 14 45  1  0  0  0  0
 15 46  1  1  0  0  0
 16 24  1  0  0  0  0
 16 47  1  0  0  0  0
 16 48  1  0  0  0  0
 17 19  1  0  0  0  0
 17 23  1  0  0  0  0
 17 49  1  1  0  0  0
 18 19  1  0  0  0  0
 18 50  1  0  0  0  0
 18 51  1  0  0  0  0
 19 52  1  0  0  0  0
 19 53  1  0  0  0  0
 20 54  1  0  0  0  0
 20 55  1  0  0  0  0
 20 56  1  0  0  0  0
 21 25  1  0  0  0  0
 21 27  2  0  0  0  0
 22 57  1  0  0  0  0
 22 58  1  0  0  0  0
 22 59  1  0  0  0  0
 23 26  1  0  0  0  0
 23 28  1  1  0  0  0
 23 60  1  0  0  0  0
 24 29  1  0  0  0  0
 24 61  1  0  0  0  0
 24 62  1  0  0  0  0
 26 30  1  0  0  0  0
 26 63  1  0  0  0  0
 26 64  1  0  0  0  0
 27 65  1  0  0  0  0
 27 66  1  0  0  0  0
 28 67  1  0  0  0  0
 28 68  1  0  0  0  0
 28 69  1  0  0  0  0
 30 31  1  0  0  0  0
 30 70  1  0  0  0  0
 30 71  1  0  0  0  0
 31 33  2  0  0  0  0
 31 72  1  0  0  0  0
 32 73  1  0  0  0  0
 32 74  1  0  0  0  0
 32 75  1  0  0  0  0
 33 34  1  0  0  0  0
 33 35  1  0  0  0  0
 34 76  1  0  0  0  0
 34 77  1  0  0  0  0
 34 78  1  0  0  0  0
 35 79  1  0  0  0  0
 35 80  1  0  0  0  0
 35 81  1  0  0  0  0
M  END
> <PUBCHEM_COMPOUND_CID>
516547
> <PUBCHEM_COMPOUND_CANONICALIZED>
1
> <PUBCHEM_CACTVS_COMPLEXITY>
961
> <PUBCHEM_CACTVS_HBOND_ACCEPTOR>
4
> <PUBCHEM_CACTVS_HBOND_DONOR>
0
> <PUBCHEM_CACTVS_ROTATABLE_BOND>
8
> <PUBCHEM_CACTVS_SUBSKEYS>
AAADcfB4OAAAAAAAAAAAAAAAGAAAAaIAAAAwYAAABgAAAGjAAAAAGgAAAAAADxSggAICCAAABACIAiDSCAAAAAAgAAAACAEAAEgABBIAIQACAAAEwAAIIIOKyPCPgAAAAAAAAADAAAYAADAAAQAACAAAAA==
> <PUBCHEM_IUPAC_OPENEYE_NAME>
methyl 3-[(1S,3R,4R,8R,10S,11S,14R,15R)-14-[(1R)-1,5-dimethylhex-4-enyl]-11,15-dimethyl-5-methylene-6-oxo-7-oxapentacyclo[8.7.0.01,3.04,8.011,15]heptadecan-3-yl]propanoate
> <PUBCHEM_IUPAC_CAS_NAME>
3-[(1S,3R,4R,8R,10S,11S,14R,15R)-11,15-dimethyl-5-methylene-14-[(2R)-6-methylhept-5-en-2-yl]-6-oxo-7-oxapentacyclo[8.7.0.01,3.04,8.011,15]heptadecan-3-yl]propanoic acid methyl ester
> <PUBCHEM_IUPAC_NAME_MARKUP>
methyl 3-[(1<I>S</I>,3<I>R</I>,4<I>R</I>,8<I>R</I>,10<I>S</I>,11<I>S</I>,14<I>R</I>,15<I>R</I>)-11,15-dimethyl-14-[(2<I>R</I>)-6-methylhept-5-en-2-yl]-5-methylidene-6-oxo-7-oxapentacyclo[8.7.0.0<SUP>1,3</SUP>.0<SUP>4,8</SUP>.0<SUP>11,15</SUP>]heptadecan-3-yl]propanoate
> <PUBCHEM_IUPAC_NAME>
methyl 3-[(1S,3R,4R,8R,10S,11S,14R,15R)-11,15-dimethyl-14-[(2R)-6-methylhept-5-en-2-yl]-5-methylidene-6-oxo-7-oxapentacyclo[8.7.0.01,3.04,8.011,15]heptadecan-3-yl]propanoate
> <PUBCHEM_IUPAC_SYSTEMATIC_NAME>
methyl 3-[(1S,3R,4R,8R,10S,11S,14R,15R)-11,15-dimethyl-14-[(2R)-6-methylhept-5-en-2-yl]-5-methylidene-6-oxidanylidene-7-oxapentacyclo[8.7.0.01,3.04,8.011,15]heptadecan-3-yl]propanoate
> <PUBCHEM_IUPAC_TRADITIONAL_NAME>
3-[(1S,3R,4R,8R,10S,11S,14R,15R)-14-[(1R)-1,5-dimethylhex-4-enyl]-6-keto-11,15-dimethyl-5-methylene-7-oxapentacyclo[8.7.0.01,3.04,8.011,15]heptadecan-3-yl]propionic acid methyl ester
> <PUBCHEM_IUPAC_INCHI>
InChI=1S/C31H46O4/c1-19(2)9-8-10-20(3)22-11-13-29(6)24-17-23-26(21(4)27(33)35-23)31(14-12-25(32)34-7)18-30(24,31)16-15-28(22,29)5/h9,20,22-24,26H,4,8,10-18H2,1-3,5-7H3/t20-,22-,23-,24+,26-,28-,29+,30+,31-/m1/s1
> <PUBCHEM_IUPAC_INCHIKEY>
CLKPXYYJFFVZSE-NOYYCYTFSA-N
> <PUBCHEM_XLOGP3_AA>
8.3
> <PUBCHEM_EXACT_MASS>
482.33960994
> <PUBCHEM_MOLECULAR_FORMULA>
C31H46O4
> <PUBCHEM_MOLECULAR_WEIGHT>
482.7
> <PUBCHEM_OPENEYE_CAN_SMILES>
CC(CCC=C(C)C)C1CCC2(C1(CCC34C2CC5C(C3(C4)CCC(=O)OC)C(=C)C(=O)O5)C)C
> <PUBCHEM_OPENEYE_ISO_SMILES>
C[C@H](CCC=C(C)C)[C@H]1CC[C@@]2([C@@]1(CC[C@]34[C@H]2C[C@@H]5[C@H]([C@]3(C4)CCC(=O)OC)C(=C)C(=O)O5)C)C
> <PUBCHEM_CACTVS_TPSA>
52.6
> <PUBCHEM_MONOISOTOPIC_WEIGHT>
482.33960994
> <PUBCHEM_TOTAL_CHARGE>
0
> <PUBCHEM_HEAVY_ATOM_COUNT>
35
> <PUBCHEM_ATOM_DEF_STEREO_COUNT>
9
> <PUBCHEM_ATOM_UDEF_STEREO_COUNT>
0
> <PUBCHEM_BOND_DEF_STEREO_COUNT>
0
> <PUBCHEM_BOND_UDEF_STEREO_COUNT>
0
> <PUBCHEM_ISOTOPIC_ATOM_COUNT>
0
> <PUBCHEM_COMPONENT_COUNT>
1
> <PUBCHEM_CACTVS_TAUTO_COUNT>
-1
> <PUBCHEM_COORDINATE_TYPE>
1
5
255
> <PUBCHEM_BONDANNOTATIONS>
10  22  6
12  41  5
15  46  5
17  49  5
23  28  5
5  8  6
6  16  5
7  36  6
9  20  5
$$$$
