516665
  -OEChem-10302200282D
134139  0     1  0  0  0  0  0999 V2000
   17.9860   11.7218    0.0000 O   0  0  0  0  0  0  0  0  0  0  0  0
    5.4141  -11.7218    0.0000 O   0  0  0  0  0  0  0  0  0  0  0  0
   16.5922   10.9171    0.0000 O   0  0  0  0  0  0  0  0  0  0  0  0
    6.8079  -10.9171    0.0000 O   0  0  0  0  0  0  0  0  0  0  0  0
   18.1953    8.7500    0.0000 O   0  0  0  0  0  0  0  0  0  0  0  0
    5.2049   -8.7500    0.0000 O   0  0  0  0  0  0  0  0  0  0  0  0
   20.0075   10.5547    0.0000 O   0  0  0  0  0  0  0  0  0  0  0  0
    3.3926  -10.5547    0.0000 O   0  0  0  0  0  0  0  0  0  0  0  0
   20.0075    8.9453    0.0000 O   0  0  0  0  0  0  0  0  0  0  0  0
    3.3926   -8.9453    0.0000 O   0  0  0  0  0  0  0  0  0  0  0  0
   16.4632    7.7500    0.0000 O   0  0  0  0  0  0  0  0  0  0  0  0
    6.9369   -7.7500    0.0000 O   0  0  0  0  0  0  0  0  0  0  0  0
   16.4632    5.7500    0.0000 O   0  0  0  0  0  0  0  0  0  0  0  0
    6.9369   -5.7500    0.0000 O   0  0  0  0  0  0  0  0  0  0  0  0
    8.6690   -5.7500    0.0000 N   0  0  0  0  0  0  0  0  0  0  0  0
   14.7312    4.7500    0.0000 N   0  0  0  0  0  0  0  0  0  0  0  0
   18.1953   10.7500    0.0000 C   0  0  1  0  0  0  0  0  0  0  0  0
    5.2049  -10.7500    0.0000 C   0  0  1  0  0  0  0  0  0  0  0  0
   17.3292   10.2500    0.0000 C   0  0  2  0  0  0  0  0  0  0  0  0
    6.0709  -10.2500    0.0000 C   0  0  2  0  0  0  0  0  0  0  0  0
   19.0613   10.2500    0.0000 C   0  0  2  0  0  0  0  0  0  0  0  0
    4.3388  -10.2500    0.0000 C   0  0  2  0  0  0  0  0  0  0  0  0
   19.0613    9.2500    0.0000 C   0  0  2  0  0  0  0  0  0  0  0  0
   17.3292    9.2500    0.0000 C   0  0  3  0  0  0  0  0  0  0  0  0
    4.3388   -9.2500    0.0000 C   0  0  2  0  0  0  0  0  0  0  0  0
    6.0709   -9.2500    0.0000 C   0  0  3  0  0  0  0  0  0  0  0  0
   16.9973   11.8249    0.0000 C   0  0  0  0  0  0  0  0  0  0  0  0
    6.4028  -11.8249    0.0000 C   0  0  0  0  0  0  0  0  0  0  0  0
   20.5911    9.7500    0.0000 C   0  0  0  0  0  0  0  0  0  0  0  0
    2.8090   -9.7500    0.0000 C   0  0  0  0  0  0  0  0  0  0  0  0
   16.4632    8.7500    0.0000 C   0  0  0  0  0  0  0  0  0  0  0  0
    6.9369   -8.7500    0.0000 C   0  0  0  0  0  0  0  0  0  0  0  0
   17.1019   12.8194    0.0000 C   0  0  0  0  0  0  0  0  0  0  0  0
   16.0838   12.2316    0.0000 C   0  0  0  0  0  0  0  0  0  0  0  0
    7.3163  -12.2316    0.0000 C   0  0  0  0  0  0  0  0  0  0  0  0
    6.2983  -12.8194    0.0000 C   0  0  0  0  0  0  0  0  0  0  0  0
   21.4001   10.3378    0.0000 C   0  0  0  0  0  0  0  0  0  0  0  0
   21.4001    9.1622    0.0000 C   0  0  0  0  0  0  0  0  0  0  0  0
    2.0000   -9.1622    0.0000 C   0  0  0  0  0  0  0  0  0  0  0  0
    2.0000  -10.3378    0.0000 C   0  0  0  0  0  0  0  0  0  0  0  0
   15.5972    7.2500    0.0000 C   0  0  0  0  0  0  0  0  0  0  0  0
    7.8030   -7.2500    0.0000 C   0  0  0  0  0  0  0  0  0  0  0  0
   15.5972    6.2500    0.0000 C   0  0  3  0  0  0  0  0  0  0  0  0
    7.8030   -6.2500    0.0000 C   0  0  3  0  0  0  0  0  0  0  0  0
   14.7312    5.7500    0.0000 C   0  0  0  0  0  0  0  0  0  0  0  0
    8.6690   -4.7500    0.0000 C   0  0  0  0  0  0  0  0  0  0  0  0
    9.5350   -4.2500    0.0000 C   0  0  0  0  0  0  0  0  0  0  0  0
   13.8651    4.2500    0.0000 C   0  0  0  0  0  0  0  0  0  0  0  0
    9.5350   -3.2500    0.0000 C   0  0  0  0  0  0  0  0  0  0  0  0
   13.8651    3.2500    0.0000 C   0  0  0  0  0  0  0  0  0  0  0  0
   10.4010   -2.7500    0.0000 C   0  0  0  0  0  0  0  0  0  0  0  0
   12.9991    2.7500    0.0000 C   0  0  0  0  0  0  0  0  0  0  0  0
   10.4010   -1.7500    0.0000 C   0  0  0  0  0  0  0  0  0  0  0  0
   12.9991    1.7500    0.0000 C   0  0  0  0  0  0  0  0  0  0  0  0
   11.2670   -1.2500    0.0000 C   0  0  0  0  0  0  0  0  0  0  0  0
   12.1331    1.2500    0.0000 C   0  0  0  0  0  0  0  0  0  0  0  0
   11.2670   -0.2500    0.0000 C   0  0  0  0  0  0  0  0  0  0  0  0
   12.1331    0.2500    0.0000 C   0  0  0  0  0  0  0  0  0  0  0  0
   18.8823   11.2505    0.0000 H   0  0  0  0  0  0  0  0  0  0  0  0
    4.5179  -11.2505    0.0000 H   0  0  0  0  0  0  0  0  0  0  0  0
   16.5523    9.9053    0.0000 H   0  0  0  0  0  0  0  0  0  0  0  0
    6.8479   -9.9053    0.0000 H   0  0  0  0  0  0  0  0  0  0  0  0
   19.1512   11.0952    0.0000 H   0  0  0  0  0  0  0  0  0  0  0  0
    4.2489  -11.0952    0.0000 H   0  0  0  0  0  0  0  0  0  0  0  0
   19.1512    8.4048    0.0000 H   0  0  0  0  0  0  0  0  0  0  0  0
   17.3292    8.6300    0.0000 H   0  0  0  0  0  0  0  0  0  0  0  0
    4.2489   -8.4048    0.0000 H   0  0  0  0  0  0  0  0  0  0  0  0
    6.0709   -8.6300    0.0000 H   0  0  0  0  0  0  0  0  0  0  0  0
   16.2511    9.3326    0.0000 H   0  0  0  0  0  0  0  0  0  0  0  0
   15.8526    8.6423    0.0000 H   0  0  0  0  0  0  0  0  0  0  0  0
    7.1490   -9.3326    0.0000 H   0  0  0  0  0  0  0  0  0  0  0  0
    7.5475   -8.6423    0.0000 H   0  0  0  0  0  0  0  0  0  0  0  0
   17.7185   12.7546    0.0000 H   0  0  0  0  0  0  0  0  0  0  0  0
   17.1667   13.4360    0.0000 H   0  0  0  0  0  0  0  0  0  0  0  0
   16.4853   12.8842    0.0000 H   0  0  0  0  0  0  0  0  0  0  0  0
   16.3360   12.7980    0.0000 H   0  0  0  0  0  0  0  0  0  0  0  0
   15.5174   12.4838    0.0000 H   0  0  0  0  0  0  0  0  0  0  0  0
   15.8316   11.6652    0.0000 H   0  0  0  0  0  0  0  0  0  0  0  0
    7.0642  -12.7980    0.0000 H   0  0  0  0  0  0  0  0  0  0  0  0
    7.8827  -12.4838    0.0000 H   0  0  0  0  0  0  0  0  0  0  0  0
    7.5685  -11.6652    0.0000 H   0  0  0  0  0  0  0  0  0  0  0  0
    5.6817  -12.7546    0.0000 H   0  0  0  0  0  0  0  0  0  0  0  0
    6.2335  -13.4360    0.0000 H   0  0  0  0  0  0  0  0  0  0  0  0
    6.9149  -12.8842    0.0000 H   0  0  0  0  0  0  0  0  0  0  0  0
   21.7646    9.8362    0.0000 H   0  0  0  0  0  0  0  0  0  0  0  0
   21.9017   10.7022    0.0000 H   0  0  0  0  0  0  0  0  0  0  0  0
   21.0357   10.8394    0.0000 H   0  0  0  0  0  0  0  0  0  0  0  0
   21.0357    8.6606    0.0000 H   0  0  0  0  0  0  0  0  0  0  0  0
   21.9017    8.7978    0.0000 H   0  0  0  0  0  0  0  0  0  0  0  0
   21.7646    9.6638    0.0000 H   0  0  0  0  0  0  0  0  0  0  0  0
    2.3644   -8.6606    0.0000 H   0  0  0  0  0  0  0  0  0  0  0  0
    1.4984   -8.7978    0.0000 H   0  0  0  0  0  0  0  0  0  0  0  0
    1.6356   -9.6638    0.0000 H   0  0  0  0  0  0  0  0  0  0  0  0
    1.6356   -9.8362    0.0000 H   0  0  0  0  0  0  0  0  0  0  0  0
    1.4984  -10.7022    0.0000 H   0  0  0  0  0  0  0  0  0  0  0  0
    2.3644  -10.8394    0.0000 H   0  0  0  0  0  0  0  0  0  0  0  0
   15.3851    7.8326    0.0000 H   0  0  0  0  0  0  0  0  0  0  0  0
   14.9866    7.1423    0.0000 H   0  0  0  0  0  0  0  0  0  0  0  0
    8.0150   -7.8326    0.0000 H   0  0  0  0  0  0  0  0  0  0  0  0
    8.4135   -7.1423    0.0000 H   0  0  0  0  0  0  0  0  0  0  0  0
   16.1341    6.5600    0.0000 H   0  0  0  0  0  0  0  0  0  0  0  0
    7.8030   -5.6300    0.0000 H   0  0  0  0  0  0  0  0  0  0  0  0
   14.5191    6.3326    0.0000 H   0  0  0  0  0  0  0  0  0  0  0  0
   14.1206    5.6423    0.0000 H   0  0  0  0  0  0  0  0  0  0  0  0
    9.2059   -6.0600    0.0000 H   0  0  0  0  0  0  0  0  0  0  0  0
   17.0001    6.0600    0.0000 H   0  0  0  0  0  0  0  0  0  0  0  0
    8.4569   -4.1674    0.0000 H   0  0  0  0  0  0  0  0  0  0  0  0
    8.0584   -4.8577    0.0000 H   0  0  0  0  0  0  0  0  0  0  0  0
   15.2681    4.4400    0.0000 H   0  0  0  0  0  0  0  0  0  0  0  0
    6.9369   -5.1300    0.0000 H   0  0  0  0  0  0  0  0  0  0  0  0
    9.7470   -4.8326    0.0000 H   0  0  0  0  0  0  0  0  0  0  0  0
   10.1456   -4.1423    0.0000 H   0  0  0  0  0  0  0  0  0  0  0  0
   13.6531    4.8326    0.0000 H   0  0  0  0  0  0  0  0  0  0  0  0
   13.2545    4.1423    0.0000 H   0  0  0  0  0  0  0  0  0  0  0  0
    9.3230   -2.6674    0.0000 H   0  0  0  0  0  0  0  0  0  0  0  0
    8.9244   -3.3577    0.0000 H   0  0  0  0  0  0  0  0  0  0  0  0
   14.0772    2.6674    0.0000 H   0  0  0  0  0  0  0  0  0  0  0  0
   14.4757    3.3577    0.0000 H   0  0  0  0  0  0  0  0  0  0  0  0
   10.6131   -3.3326    0.0000 H   0  0  0  0  0  0  0  0  0  0  0  0
   11.0116   -2.6423    0.0000 H   0  0  0  0  0  0  0  0  0  0  0  0
   12.7870    3.3326    0.0000 H   0  0  0  0  0  0  0  0  0  0  0  0
   12.3885    2.6423    0.0000 H   0  0  0  0  0  0  0  0  0  0  0  0
   10.1890   -1.1674    0.0000 H   0  0  0  0  0  0  0  0  0  0  0  0
    9.7904   -1.8577    0.0000 H   0  0  0  0  0  0  0  0  0  0  0  0
   13.2112    1.1674    0.0000 H   0  0  0  0  0  0  0  0  0  0  0  0
   13.6097    1.8577    0.0000 H   0  0  0  0  0  0  0  0  0  0  0  0
   11.4791   -1.8326    0.0000 H   0  0  0  0  0  0  0  0  0  0  0  0
   11.8776   -1.1423    0.0000 H   0  0  0  0  0  0  0  0  0  0  0  0
   11.9210    1.8326    0.0000 H   0  0  0  0  0  0  0  0  0  0  0  0
   11.5225    1.1423    0.0000 H   0  0  0  0  0  0  0  0  0  0  0  0
   11.0550    0.3326    0.0000 H   0  0  0  0  0  0  0  0  0  0  0  0
   10.6565   -0.3577    0.0000 H   0  0  0  0  0  0  0  0  0  0  0  0
   12.3451   -0.3326    0.0000 H   0  0  0  0  0  0  0  0  0  0  0  0
   12.7437    0.3577    0.0000 H   0  0  0  0  0  0  0  0  0  0  0  0
  1 17  1  0  0  0  0
  1 27  1  0  0  0  0
  2 18  1  0  0  0  0
  2 28  1  0  0  0  0
  3 19  1  0  0  0  0
  3 27  1  0  0  0  0
  4 20  1  0  0  0  0
  4 28  1  0  0  0  0
  5 23  1  0  0  0  0
  5 24  1  0  0  0  0
  6 25  1  0  0  0  0
  6 26  1  0  0  0  0
  7 21  1  0  0  0  0
  7 29  1  0  0  0  0
  8 22  1  0  0  0  0
  8 30  1  0  0  0  0
  9 23  1  0  0  0  0
  9 29  1  0  0  0  0
 10 25  1  0  0  0  0
 10 30  1  0  0  0  0
 11 31  1  0  0  0  0
 11 41  1  0  0  0  0
 12 32  1  0  0  0  0
 12 42  1  0  0  0  0
 13 43  1  0  0  0  0
 13106  1  0  0  0  0
 14 44  1  0  0  0  0
 14110  1  0  0  0  0
 15 44  1  0  0  0  0
 15 46  1  0  0  0  0
 15105  1  0  0  0  0
 16 45  1  0  0  0  0
 16 48  1  0  0  0  0
 16109  1  0  0  0  0
 17 19  1  0  0  0  0
 17 21  1  0  0  0  0
 17 59  1  1  0  0  0
 18 20  1  0  0  0  0
 18 22  1  0  0  0  0
 18 60  1  1  0  0  0
 19 24  1  0  0  0  0
 19 61  1  1  0  0  0
 20 26  1  0  0  0  0
 20 62  1  1  0  0  0
 21 23  1  0  0  0  0
 21 63  1  6  0  0  0
 22 25  1  0  0  0  0
 22 64  1  6  0  0  0
 23 65  1  6  0  0  0
 24 31  1  0  0  0  0
 24 66  1  0  0  0  0
 25 67  1  6  0  0  0
 26 32  1  0  0  0  0
 26 68  1  0  0  0  0
 27 33  1  0  0  0  0
 27 34  1  0  0  0  0
 28 35  1  0  0  0  0
 28 36  1  0  0  0  0
 29 37  1  0  0  0  0
 29 38  1  0  0  0  0
 30 39  1  0  0  0  0
 30 40  1  0  0  0  0
 31 69  1  0  0  0  0
 31 70  1  0  0  0  0
 32 71  1  0  0  0  0
 32 72  1  0  0  0  0
 33 73  1  0  0  0  0
 33 74  1  0  0  0  0
 33 75  1  0  0  0  0
 34 76  1  0  0  0  0
 34 77  1  0  0  0  0
 34 78  1  0  0  0  0
 35 79  1  0  0  0  0
 35 80  1  0  0  0  0
 35 81  1  0  0  0  0
 36 82  1  0  0  0  0
 36 83  1  0  0  0  0
 36 84  1  0  0  0  0
 37 85  1  0  0  0  0
 37 86  1  0  0  0  0
 37 87  1  0  0  0  0
 38 88  1  0  0  0  0
 38 89  1  0  0  0  0
 38 90  1  0  0  0  0
 39 91  1  0  0  0  0
 39 92  1  0  0  0  0
 39 93  1  0  0  0  0
 40 94  1  0  0  0  0
 40 95  1  0  0  0  0
 40 96  1  0  0  0  0
 41 43  1  0  0  0  0
 41 97  1  0  0  0  0
 41 98  1  0  0  0  0
 42 44  1  0  0  0  0
 42 99  1  0  0  0  0
 42100  1  0  0  0  0
 43 45  1  0  0  0  0
 43101  1  0  0  0  0
 44102  1  0  0  0  0
 45103  1  0  0  0  0
 45104  1  0  0  0  0
 46 47  1  0  0  0  0
 46107  1  0  0  0  0
 46108  1  0  0  0  0
 47 49  1  0  0  0  0
 47111  1  0  0  0  0
 47112  1  0  0  0  0
 48 50  1  0  0  0  0
 48113  1  0  0  0  0
 48114  1  0  0  0  0
 49 51  1  0  0  0  0
 49115  1  0  0  0  0
 49116  1  0  0  0  0
 50 52  1  0  0  0  0
 50117  1  0  0  0  0
 50118  1  0  0  0  0
 51 53  1  0  0  0  0
 51119  1  0  0  0  0
 51120  1  0  0  0  0
 52 54  1  0  0  0  0
 52121  1  0  0  0  0
 52122  1  0  0  0  0
 53 55  1  0  0  0  0
 53123  1  0  0  0  0
 53124  1  0  0  0  0
 54 56  1  0  0  0  0
 54125  1  0  0  0  0
 54126  1  0  0  0  0
 55 57  1  0  0  0  0
 55127  1  0  0  0  0
 55128  1  0  0  0  0
 56 58  1  0  0  0  0
 56129  1  0  0  0  0
 56130  1  0  0  0  0
 57 58  1  0  0  0  0
 57131  1  0  0  0  0
 57132  1  0  0  0  0
 58133  1  0  0  0  0
 58134  1  0  0  0  0
M  END
> <PUBCHEM_COMPOUND_CID>
516665
> <PUBCHEM_COMPOUND_CANONICALIZED>
1
> <PUBCHEM_CACTVS_COMPLEXITY>
1240
> <PUBCHEM_CACTVS_HBOND_ACCEPTOR>
16
> <PUBCHEM_CACTVS_HBOND_DONOR>
4
> <PUBCHEM_CACTVS_ROTATABLE_BOND>
25
> <PUBCHEM_CACTVS_SUBSKEYS>
AAADcfB/PAAAAAAAAAAAAAAAAAAAASJEiQAkSAAAAAAAAEgAAAAAHgAQCAAACBTxgAcCCALABgAAAAAAAAAAAAAAAAAAAIAIAAETEAIAgAAnAAAHEACXAAHQ4IwAAAAAAAAAAAAAAAAAAAAAAAAAAAAAAA==
> <PUBCHEM_IUPAC_OPENEYE_NAME>
1-[13-[[1-hydroxy-2-[[(1S,2R,6R,9S)-4,4,11,11-tetramethyl-3,5,7,10,12-pentaoxatricyclo[7.3.0.02,6]dodecan-8-yl]methoxy]ethyl]amino]tridecylamino]-3-[[(1S,2R,6R,9S)-4,4,11,11-tetramethyl-3,5,7,10,12-pentaoxatricyclo[7.3.0.02,6]dodecan-8-yl]methoxy]propan-2-ol
> <PUBCHEM_IUPAC_CAS_NAME>
1-[13-[[1-hydroxy-2-[[(1S,2R,6R,9S)-4,4,11,11-tetramethyl-3,5,7,10,12-pentaoxatricyclo[7.3.0.02,6]dodecan-8-yl]methoxy]ethyl]amino]tridecylamino]-3-[[(1S,2R,6R,9S)-4,4,11,11-tetramethyl-3,5,7,10,12-pentaoxatricyclo[7.3.0.02,6]dodecan-8-yl]methoxy]-2-propanol
> <PUBCHEM_IUPAC_NAME_MARKUP>
1-[13-[[1-hydroxy-2-[[(1<I>S</I>,2<I>R</I>,6<I>R</I>,9<I>S</I>)-4,4,11,11-tetramethyl-3,5,7,10,12-pentaoxatricyclo[7.3.0.0<SUP>2,6</SUP>]dodecan-8-yl]methoxy]ethyl]amino]tridecylamino]-3-[[(1<I>S</I>,2<I>R</I>,6<I>R</I>,9<I>S</I>)-4,4,11,11-tetramethyl-3,5,7,10,12-pentaoxatricyclo[7.3.0.0<SUP>2,6</SUP>]dodecan-8-yl]methoxy]propan-2-ol
> <PUBCHEM_IUPAC_NAME>
1-[13-[[1-hydroxy-2-[[(1S,2R,6R,9S)-4,4,11,11-tetramethyl-3,5,7,10,12-pentaoxatricyclo[7.3.0.02,6]dodecan-8-yl]methoxy]ethyl]amino]tridecylamino]-3-[[(1S,2R,6R,9S)-4,4,11,11-tetramethyl-3,5,7,10,12-pentaoxatricyclo[7.3.0.02,6]dodecan-8-yl]methoxy]propan-2-ol
> <PUBCHEM_IUPAC_SYSTEMATIC_NAME>
1-[13-[[1-oxidanyl-2-[[(1S,2R,6R,9S)-4,4,11,11-tetramethyl-3,5,7,10,12-pentaoxatricyclo[7.3.0.02,6]dodecan-8-yl]methoxy]ethyl]amino]tridecylamino]-3-[[(1S,2R,6R,9S)-4,4,11,11-tetramethyl-3,5,7,10,12-pentaoxatricyclo[7.3.0.02,6]dodecan-8-yl]methoxy]propan-2-ol
> <PUBCHEM_IUPAC_TRADITIONAL_NAME>
1-[13-[[1-hydroxy-2-[[(1S,2R,6R,9S)-4,4,11,11-tetramethyl-3,5,7,10,12-pentaoxatricyclo[7.3.0.02,6]dodecan-8-yl]methoxy]ethyl]amino]tridecylamino]-3-[[(1S,2R,6R,9S)-4,4,11,11-tetramethyl-3,5,7,10,12-pentaoxatricyclo[7.3.0.02,6]dodecan-8-yl]methoxy]propan-2-ol
> <PUBCHEM_IUPAC_INCHI>
InChI=1S/C42H76N2O14/c1-39(2)51-31-28(49-37-35(33(31)53-39)55-41(5,6)57-37)24-47-23-27(45)22-43-20-18-16-14-12-10-9-11-13-15-17-19-21-44-30(46)26-48-25-29-32-34(54-40(3,4)52-32)36-38(50-29)58-42(7,8)56-36/h27-38,43-46H,9-26H2,1-8H3/t27?,28?,29?,30?,31-,32-,33-,34-,35+,36+,37+,38+/m0/s1
> <PUBCHEM_IUPAC_INCHIKEY>
FHCHDOMFBZVLKR-PAIZWGMKSA-N
> <PUBCHEM_XLOGP3_AA>
4
> <PUBCHEM_EXACT_MASS>
832.52965510
> <PUBCHEM_MOLECULAR_FORMULA>
C42H76N2O14
> <PUBCHEM_MOLECULAR_WEIGHT>
833.1
> <PUBCHEM_OPENEYE_CAN_SMILES>
CC1(OC2C(OC3C(C2O1)OC(O3)(C)C)COCC(CNCCCCCCCCCCCCCNC(COCC4C5C(C6C(O4)OC(O6)(C)C)OC(O5)(C)C)O)O)C
> <PUBCHEM_OPENEYE_ISO_SMILES>
CC1(O[C@@H]2[C@@H]3[C@H](OC([C@@H]2O1)COCC(CNCCCCCCCCCCCCCNC(COCC4[C@H]5[C@@H]([C@@H]6[C@H](O4)OC(O6)(C)C)OC(O5)(C)C)O)O)OC(O3)(C)C)C
> <PUBCHEM_CACTVS_TPSA>
175
> <PUBCHEM_MONOISOTOPIC_WEIGHT>
832.52965510
> <PUBCHEM_TOTAL_CHARGE>
0
> <PUBCHEM_HEAVY_ATOM_COUNT>
58
> <PUBCHEM_ATOM_DEF_STEREO_COUNT>
8
> <PUBCHEM_ATOM_UDEF_STEREO_COUNT>
4
> <PUBCHEM_BOND_DEF_STEREO_COUNT>
0
> <PUBCHEM_BOND_UDEF_STEREO_COUNT>
0
> <PUBCHEM_ISOTOPIC_ATOM_COUNT>
0
> <PUBCHEM_COMPONENT_COUNT>
1
> <PUBCHEM_CACTVS_TAUTO_COUNT>
-1
> <PUBCHEM_COORDINATE_TYPE>
1
5
255
> <PUBCHEM_BONDANNOTATIONS>
43  13  3
44  14  3
17  59  5
18  60  5
19  61  5
20  62  5
21  63  6
22  64  6
23  65  6
24  31  3
25  67  6
26  32  3
$$$$
