516661
  -OEChem-10302200282D
107112  0     1  0  0  0  0  0999 V2000
   14.8113    7.5547    0.0000 O   0  0  0  0  0  0  0  0  0  0  0  0
    5.4141   -8.7218    0.0000 O   0  0  0  0  0  0  0  0  0  0  0  0
   14.8113    5.9453    0.0000 O   0  0  0  0  0  0  0  0  0  0  0  0
    6.8079   -7.9171    0.0000 O   0  0  0  0  0  0  0  0  0  0  0  0
   12.1331    6.2500    0.0000 O   0  0  0  0  0  0  0  0  0  0  0  0
    5.2049   -5.7500    0.0000 O   0  0  0  0  0  0  0  0  0  0  0  0
   12.7899    8.7218    0.0000 O   0  0  0  0  0  0  0  0  0  0  0  0
    3.3926   -7.5547    0.0000 O   0  0  0  0  0  0  0  0  0  0  0  0
   11.3961    7.9171    0.0000 O   0  0  0  0  0  0  0  0  0  0  0  0
    3.3926   -5.9453    0.0000 O   0  0  0  0  0  0  0  0  0  0  0  0
   12.1331    4.2500    0.0000 O   0  0  0  0  0  0  0  0  0  0  0  0
    6.9369   -4.7500    0.0000 O   0  0  0  0  0  0  0  0  0  0  0  0
   10.4010    3.2500    0.0000 O   0  0  0  0  0  0  0  0  0  0  0  0
    6.9369   -2.7500    0.0000 O   0  0  0  0  0  0  0  0  0  0  0  0
    8.6690   -2.7500    0.0000 N   0  0  0  0  0  0  0  0  0  0  0  0
   10.4010    1.2500    0.0000 N   0  0  0  0  0  0  0  0  0  0  0  0
   13.8651    7.2500    0.0000 C   0  0  1  0  0  0  0  0  0  0  0  0
    5.2049   -7.7500    0.0000 C   0  0  1  0  0  0  0  0  0  0  0  0
   13.8651    6.2500    0.0000 C   0  0  2  0  0  0  0  0  0  0  0  0
    6.0709   -7.2500    0.0000 C   0  0  2  0  0  0  0  0  0  0  0  0
   12.9991    7.7500    0.0000 C   0  0  2  0  0  0  0  0  0  0  0  0
    4.3388   -7.2500    0.0000 C   0  0  2  0  0  0  0  0  0  0  0  0
   12.1331    7.2500    0.0000 C   0  0  2  0  0  0  0  0  0  0  0  0
   12.9991    5.7500    0.0000 C   0  0  3  0  0  0  0  0  0  0  0  0
    4.3388   -6.2500    0.0000 C   0  0  2  0  0  0  0  0  0  0  0  0
    6.0709   -6.2500    0.0000 C   0  0  3  0  0  0  0  0  0  0  0  0
   15.3950    6.7500    0.0000 C   0  0  0  0  0  0  0  0  0  0  0  0
    6.4028   -8.8249    0.0000 C   0  0  0  0  0  0  0  0  0  0  0  0
   11.8012    8.8249    0.0000 C   0  0  0  0  0  0  0  0  0  0  0  0
    2.8090   -6.7500    0.0000 C   0  0  0  0  0  0  0  0  0  0  0  0
   12.9991    4.7500    0.0000 C   0  0  0  0  0  0  0  0  0  0  0  0
    6.9369   -5.7500    0.0000 C   0  0  0  0  0  0  0  0  0  0  0  0
   16.2040    7.3378    0.0000 C   0  0  0  0  0  0  0  0  0  0  0  0
   16.2040    6.1622    0.0000 C   0  0  0  0  0  0  0  0  0  0  0  0
    7.3163   -9.2316    0.0000 C   0  0  0  0  0  0  0  0  0  0  0  0
    6.2983   -9.8194    0.0000 C   0  0  0  0  0  0  0  0  0  0  0  0
   11.9057    9.8194    0.0000 C   0  0  0  0  0  0  0  0  0  0  0  0
   10.8876    9.2316    0.0000 C   0  0  0  0  0  0  0  0  0  0  0  0
    2.0000   -6.1622    0.0000 C   0  0  0  0  0  0  0  0  0  0  0  0
    2.0000   -7.3378    0.0000 C   0  0  0  0  0  0  0  0  0  0  0  0
   12.1331    3.2500    0.0000 C   0  0  0  0  0  0  0  0  0  0  0  0
    7.8030   -4.2500    0.0000 C   0  0  0  0  0  0  0  0  0  0  0  0
   11.2670    2.7500    0.0000 C   0  0  3  0  0  0  0  0  0  0  0  0
    7.8030   -3.2500    0.0000 C   0  0  3  0  0  0  0  0  0  0  0  0
   11.2670    1.7500    0.0000 C   0  0  0  0  0  0  0  0  0  0  0  0
    8.6690   -1.7500    0.0000 C   0  0  0  0  0  0  0  0  0  0  0  0
    9.5350   -1.2500    0.0000 C   0  0  0  0  0  0  0  0  0  0  0  0
   10.4010    0.2500    0.0000 C   0  0  0  0  0  0  0  0  0  0  0  0
    9.5350   -0.2500    0.0000 C   0  0  0  0  0  0  0  0  0  0  0  0
   13.9551    8.0952    0.0000 H   0  0  0  0  0  0  0  0  0  0  0  0
    4.5179   -8.2505    0.0000 H   0  0  0  0  0  0  0  0  0  0  0  0
   13.9551    5.4048    0.0000 H   0  0  0  0  0  0  0  0  0  0  0  0
    6.8479   -6.9053    0.0000 H   0  0  0  0  0  0  0  0  0  0  0  0
   13.6861    8.2505    0.0000 H   0  0  0  0  0  0  0  0  0  0  0  0
    4.2489   -8.0952    0.0000 H   0  0  0  0  0  0  0  0  0  0  0  0
   11.3561    6.9053    0.0000 H   0  0  0  0  0  0  0  0  0  0  0  0
   12.4622    5.4400    0.0000 H   0  0  0  0  0  0  0  0  0  0  0  0
    4.2489   -5.4048    0.0000 H   0  0  0  0  0  0  0  0  0  0  0  0
    6.0709   -5.6300    0.0000 H   0  0  0  0  0  0  0  0  0  0  0  0
   13.2112    4.1674    0.0000 H   0  0  0  0  0  0  0  0  0  0  0  0
   13.6097    4.8577    0.0000 H   0  0  0  0  0  0  0  0  0  0  0  0
    7.1490   -6.3326    0.0000 H   0  0  0  0  0  0  0  0  0  0  0  0
    7.5475   -5.6423    0.0000 H   0  0  0  0  0  0  0  0  0  0  0  0
   16.5684    6.8362    0.0000 H   0  0  0  0  0  0  0  0  0  0  0  0
   16.7056    7.7022    0.0000 H   0  0  0  0  0  0  0  0  0  0  0  0
   15.8395    7.8394    0.0000 H   0  0  0  0  0  0  0  0  0  0  0  0
   15.8395    5.6606    0.0000 H   0  0  0  0  0  0  0  0  0  0  0  0
   16.7056    5.7978    0.0000 H   0  0  0  0  0  0  0  0  0  0  0  0
   16.5684    6.6638    0.0000 H   0  0  0  0  0  0  0  0  0  0  0  0
    7.0642   -9.7980    0.0000 H   0  0  0  0  0  0  0  0  0  0  0  0
    7.8827   -9.4838    0.0000 H   0  0  0  0  0  0  0  0  0  0  0  0
    7.5685   -8.6652    0.0000 H   0  0  0  0  0  0  0  0  0  0  0  0
    5.6817   -9.7546    0.0000 H   0  0  0  0  0  0  0  0  0  0  0  0
    6.2335  -10.4360    0.0000 H   0  0  0  0  0  0  0  0  0  0  0  0
    6.9149   -9.8842    0.0000 H   0  0  0  0  0  0  0  0  0  0  0  0
   12.5223    9.7546    0.0000 H   0  0  0  0  0  0  0  0  0  0  0  0
   11.9705   10.4360    0.0000 H   0  0  0  0  0  0  0  0  0  0  0  0
   11.2891    9.8842    0.0000 H   0  0  0  0  0  0  0  0  0  0  0  0
   11.1398    9.7980    0.0000 H   0  0  0  0  0  0  0  0  0  0  0  0
   10.3212    9.4838    0.0000 H   0  0  0  0  0  0  0  0  0  0  0  0
   10.6355    8.6652    0.0000 H   0  0  0  0  0  0  0  0  0  0  0  0
    2.3644   -5.6606    0.0000 H   0  0  0  0  0  0  0  0  0  0  0  0
    1.4984   -5.7978    0.0000 H   0  0  0  0  0  0  0  0  0  0  0  0
    1.6356   -6.6638    0.0000 H   0  0  0  0  0  0  0  0  0  0  0  0
    1.6356   -6.8362    0.0000 H   0  0  0  0  0  0  0  0  0  0  0  0
    1.4984   -7.7022    0.0000 H   0  0  0  0  0  0  0  0  0  0  0  0
    2.3644   -7.8394    0.0000 H   0  0  0  0  0  0  0  0  0  0  0  0
   12.3451    2.6674    0.0000 H   0  0  0  0  0  0  0  0  0  0  0  0
   12.7437    3.3577    0.0000 H   0  0  0  0  0  0  0  0  0  0  0  0
    8.0150   -4.8326    0.0000 H   0  0  0  0  0  0  0  0  0  0  0  0
    8.4135   -4.1423    0.0000 H   0  0  0  0  0  0  0  0  0  0  0  0
   10.7301    2.4400    0.0000 H   0  0  0  0  0  0  0  0  0  0  0  0
    7.8030   -2.6300    0.0000 H   0  0  0  0  0  0  0  0  0  0  0  0
   11.4791    1.1674    0.0000 H   0  0  0  0  0  0  0  0  0  0  0  0
   11.8776    1.8577    0.0000 H   0  0  0  0  0  0  0  0  0  0  0  0
    9.2059   -3.0600    0.0000 H   0  0  0  0  0  0  0  0  0  0  0  0
    8.4569   -1.1674    0.0000 H   0  0  0  0  0  0  0  0  0  0  0  0
    8.0584   -1.8577    0.0000 H   0  0  0  0  0  0  0  0  0  0  0  0
    9.8641    1.5600    0.0000 H   0  0  0  0  0  0  0  0  0  0  0  0
   10.4010    3.8700    0.0000 H   0  0  0  0  0  0  0  0  0  0  0  0
    6.9369   -2.1300    0.0000 H   0  0  0  0  0  0  0  0  0  0  0  0
    9.7470   -1.8326    0.0000 H   0  0  0  0  0  0  0  0  0  0  0  0
   10.1456   -1.1423    0.0000 H   0  0  0  0  0  0  0  0  0  0  0  0
   10.6131   -0.3326    0.0000 H   0  0  0  0  0  0  0  0  0  0  0  0
   11.0116    0.3577    0.0000 H   0  0  0  0  0  0  0  0  0  0  0  0
    9.3230    0.3326    0.0000 H   0  0  0  0  0  0  0  0  0  0  0  0
    8.9244   -0.3577    0.0000 H   0  0  0  0  0  0  0  0  0  0  0  0
  1 17  1  0  0  0  0
  1 27  1  0  0  0  0
  2 18  1  0  0  0  0
  2 28  1  0  0  0  0
  3 19  1  0  0  0  0
  3 27  1  0  0  0  0
  4 20  1  0  0  0  0
  4 28  1  0  0  0  0
  5 23  1  0  0  0  0
  5 24  1  0  0  0  0
  6 25  1  0  0  0  0
  6 26  1  0  0  0  0
  7 21  1  0  0  0  0
  7 29  1  0  0  0  0
  8 22  1  0  0  0  0
  8 30  1  0  0  0  0
  9 23  1  0  0  0  0
  9 29  1  0  0  0  0
 10 25  1  0  0  0  0
 10 30  1  0  0  0  0
 11 31  1  0  0  0  0
 11 41  1  0  0  0  0
 12 32  1  0  0  0  0
 12 42  1  0  0  0  0
 13 43  1  0  0  0  0
 13100  1  0  0  0  0
 14 44  1  0  0  0  0
 14101  1  0  0  0  0
 15 44  1  0  0  0  0
 15 46  1  0  0  0  0
 15 96  1  0  0  0  0
 16 45  1  0  0  0  0
 16 48  1  0  0  0  0
 16 99  1  0  0  0  0
 17 19  1  0  0  0  0
 17 21  1  0  0  0  0
 17 50  1  6  0  0  0
 18 20  1  0  0  0  0
 18 22  1  0  0  0  0
 18 51  1  1  0  0  0
 19 24  1  0  0  0  0
 19 52  1  6  0  0  0
 20 26  1  0  0  0  0
 20 53  1  1  0  0  0
 21 23  1  0  0  0  0
 21 54  1  1  0  0  0
 22 25  1  0  0  0  0
 22 55  1  6  0  0  0
 23 56  1  1  0  0  0
 24 31  1  0  0  0  0
 24 57  1  0  0  0  0
 25 58  1  6  0  0  0
 26 32  1  0  0  0  0
 26 59  1  0  0  0  0
 27 33  1  0  0  0  0
 27 34  1  0  0  0  0
 28 35  1  0  0  0  0
 28 36  1  0  0  0  0
 29 37  1  0  0  0  0
 29 38  1  0  0  0  0
 30 39  1  0  0  0  0
 30 40  1  0  0  0  0
 31 60  1  0  0  0  0
 31 61  1  0  0  0  0
 32 62  1  0  0  0  0
 32 63  1  0  0  0  0
 33 64  1  0  0  0  0
 33 65  1  0  0  0  0
 33 66  1  0  0  0  0
 34 67  1  0  0  0  0
 34 68  1  0  0  0  0
 34 69  1  0  0  0  0
 35 70  1  0  0  0  0
 35 71  1  0  0  0  0
 35 72  1  0  0  0  0
 36 73  1  0  0  0  0
 36 74  1  0  0  0  0
 36 75  1  0  0  0  0
 37 76  1  0  0  0  0
 37 77  1  0  0  0  0
 37 78  1  0  0  0  0
 38 79  1  0  0  0  0
 38 80  1  0  0  0  0
 38 81  1  0  0  0  0
 39 82  1  0  0  0  0
 39 83  1  0  0  0  0
 39 84  1  0  0  0  0
 40 85  1  0  0  0  0
 40 86  1  0  0  0  0
 40 87  1  0  0  0  0
 41 43  1  0  0  0  0
 41 88  1  0  0  0  0
 41 89  1  0  0  0  0
 42 44  1  0  0  0  0
 42 90  1  0  0  0  0
 42 91  1  0  0  0  0
 43 45  1  0  0  0  0
 43 92  1  0  0  0  0
 44 93  1  0  0  0  0
 45 94  1  0  0  0  0
 45 95  1  0  0  0  0
 46 47  1  0  0  0  0
 46 97  1  0  0  0  0
 46 98  1  0  0  0  0
 47 49  1  0  0  0  0
 47102  1  0  0  0  0
 47103  1  0  0  0  0
 48 49  1  0  0  0  0
 48104  1  0  0  0  0
 48105  1  0  0  0  0
 49106  1  0  0  0  0
 49107  1  0  0  0  0
M  END
> <PUBCHEM_COMPOUND_CID>
516661
> <PUBCHEM_COMPOUND_CANONICALIZED>
1
> <PUBCHEM_CACTVS_COMPLEXITY>
1100
> <PUBCHEM_CACTVS_HBOND_ACCEPTOR>
16
> <PUBCHEM_CACTVS_HBOND_DONOR>
4
> <PUBCHEM_CACTVS_ROTATABLE_BOND>
16
> <PUBCHEM_CACTVS_SUBSKEYS>
AAADcfB/PAAAAAAAAAAAAAAAAAAAASJEiQAkSAAAAAAAAEgAAAAAHgAQCAAACBTxgAcCCALABgAAAAAAAAAAAAAAAAAAAIAIAAETEAIAgAAnAAAHEACXAAHAYAwAAAAAAAAAAAAAAAAAAAAAAAAAAAAAAA==
> <PUBCHEM_IUPAC_OPENEYE_NAME>
1-[4-[[1-hydroxy-2-[[(1S,2R,6R,9S)-4,4,11,11-tetramethyl-3,5,7,10,12-pentaoxatricyclo[7.3.0.02,6]dodecan-8-yl]methoxy]ethyl]amino]butylamino]-3-[[(1S,2R,6R,9S)-4,4,11,11-tetramethyl-3,5,7,10,12-pentaoxatricyclo[7.3.0.02,6]dodecan-8-yl]methoxy]propan-2-ol
> <PUBCHEM_IUPAC_CAS_NAME>
1-[4-[[1-hydroxy-2-[[(1S,2R,6R,9S)-4,4,11,11-tetramethyl-3,5,7,10,12-pentaoxatricyclo[7.3.0.02,6]dodecan-8-yl]methoxy]ethyl]amino]butylamino]-3-[[(1S,2R,6R,9S)-4,4,11,11-tetramethyl-3,5,7,10,12-pentaoxatricyclo[7.3.0.02,6]dodecan-8-yl]methoxy]-2-propanol
> <PUBCHEM_IUPAC_NAME_MARKUP>
1-[4-[[1-hydroxy-2-[[(1<I>S</I>,2<I>R</I>,6<I>R</I>,9<I>S</I>)-4,4,11,11-tetramethyl-3,5,7,10,12-pentaoxatricyclo[7.3.0.0<SUP>2,6</SUP>]dodecan-8-yl]methoxy]ethyl]amino]butylamino]-3-[[(1<I>S</I>,2<I>R</I>,6<I>R</I>,9<I>S</I>)-4,4,11,11-tetramethyl-3,5,7,10,12-pentaoxatricyclo[7.3.0.0<SUP>2,6</SUP>]dodecan-8-yl]methoxy]propan-2-ol
> <PUBCHEM_IUPAC_NAME>
1-[4-[[1-hydroxy-2-[[(1S,2R,6R,9S)-4,4,11,11-tetramethyl-3,5,7,10,12-pentaoxatricyclo[7.3.0.02,6]dodecan-8-yl]methoxy]ethyl]amino]butylamino]-3-[[(1S,2R,6R,9S)-4,4,11,11-tetramethyl-3,5,7,10,12-pentaoxatricyclo[7.3.0.02,6]dodecan-8-yl]methoxy]propan-2-ol
> <PUBCHEM_IUPAC_SYSTEMATIC_NAME>
1-[4-[[1-oxidanyl-2-[[(1S,2R,6R,9S)-4,4,11,11-tetramethyl-3,5,7,10,12-pentaoxatricyclo[7.3.0.02,6]dodecan-8-yl]methoxy]ethyl]amino]butylamino]-3-[[(1S,2R,6R,9S)-4,4,11,11-tetramethyl-3,5,7,10,12-pentaoxatricyclo[7.3.0.02,6]dodecan-8-yl]methoxy]propan-2-ol
> <PUBCHEM_IUPAC_TRADITIONAL_NAME>
1-[4-[[1-hydroxy-2-[[(1S,2R,6R,9S)-4,4,11,11-tetramethyl-3,5,7,10,12-pentaoxatricyclo[7.3.0.02,6]dodecan-8-yl]methoxy]ethyl]amino]butylamino]-3-[[(1S,2R,6R,9S)-4,4,11,11-tetramethyl-3,5,7,10,12-pentaoxatricyclo[7.3.0.02,6]dodecan-8-yl]methoxy]propan-2-ol
> <PUBCHEM_IUPAC_INCHI>
InChI=1S/C33H58N2O14/c1-30(2)42-22-19(40-28-26(24(22)44-30)46-32(5,6)48-28)15-38-14-18(36)13-34-11-9-10-12-35-21(37)17-39-16-20-23-25(45-31(3,4)43-23)27-29(41-20)49-33(7,8)47-27/h18-29,34-37H,9-17H2,1-8H3/t18?,19?,20?,21?,22-,23-,24-,25-,26+,27+,28+,29+/m0/s1
> <PUBCHEM_IUPAC_INCHIKEY>
LKYXBQBSNIPURF-VFMNHXLPSA-N
> <PUBCHEM_XLOGP3_AA>
-0.5
> <PUBCHEM_EXACT_MASS>
706.38880453
> <PUBCHEM_MOLECULAR_FORMULA>
C33H58N2O14
> <PUBCHEM_MOLECULAR_WEIGHT>
706.8
> <PUBCHEM_OPENEYE_CAN_SMILES>
CC1(OC2C(OC3C(C2O1)OC(O3)(C)C)COCC(CNCCCCNC(COCC4C5C(C6C(O4)OC(O6)(C)C)OC(O5)(C)C)O)O)C
> <PUBCHEM_OPENEYE_ISO_SMILES>
CC1(O[C@@H]2[C@@H]3[C@H](OC([C@@H]2O1)COCC(CNCCCCNC(COCC4[C@H]5[C@@H]([C@@H]6[C@H](O4)OC(O6)(C)C)OC(O5)(C)C)O)O)OC(O3)(C)C)C
> <PUBCHEM_CACTVS_TPSA>
175
> <PUBCHEM_MONOISOTOPIC_WEIGHT>
706.38880453
> <PUBCHEM_TOTAL_CHARGE>
0
> <PUBCHEM_HEAVY_ATOM_COUNT>
49
> <PUBCHEM_ATOM_DEF_STEREO_COUNT>
8
> <PUBCHEM_ATOM_UDEF_STEREO_COUNT>
4
> <PUBCHEM_BOND_DEF_STEREO_COUNT>
0
> <PUBCHEM_BOND_UDEF_STEREO_COUNT>
0
> <PUBCHEM_ISOTOPIC_ATOM_COUNT>
0
> <PUBCHEM_COMPONENT_COUNT>
1
> <PUBCHEM_CACTVS_TAUTO_COUNT>
-1
> <PUBCHEM_COORDINATE_TYPE>
1
5
255
> <PUBCHEM_BONDANNOTATIONS>
43  13  3
44  14  3
17  50  6
18  51  5
19  52  6
20  53  5
21  54  5
22  55  6
23  56  5
24  31  3
25  58  6
26  32  3
$$$$
