516649
  -OEChem-10302200282D
 55 59  0     1  0  0  0  0  0999 V2000
    5.1724   -4.2694    0.0000 F   0  0  0  0  0  0  0  0  0  0  0  0
    6.4814    0.6816    0.0000 O   0  0  0  0  0  0  0  0  0  0  0  0
    6.1724   -0.2694    0.0000 N   0  0  3  0  0  0  0  0  0  0  0  0
    3.4782    0.0907    0.0000 N   0  0  0  0  0  0  0  0  0  0  0  0
    2.6691    1.4920    0.0000 N   0  0  0  0  0  0  0  0  0  0  0  0
    5.1724   -0.2694    0.0000 C   0  0  2  0  0  0  0  0  0  0  0  0
    4.8633    0.6816    0.0000 C   0  0  0  0  0  0  0  0  0  0  0  0
    5.6724    1.2694    0.0000 C   0  0  1  0  0  0  0  0  0  0  0  0
    4.2213   -0.5784    0.0000 C   0  0  0  0  0  0  0  0  0  0  0  0
    5.1724   -1.2694    0.0000 C   0  0  0  0  0  0  0  0  0  0  0  0
    6.7601   -1.0784    0.0000 C   0  0  0  0  0  0  0  0  0  0  0  0
    5.6724    2.2694    0.0000 C   0  0  0  0  0  0  0  0  0  0  0  0
    6.0384   -1.7694    0.0000 C   0  0  0  0  0  0  0  0  0  0  0  0
    4.3063   -1.7694    0.0000 C   0  0  0  0  0  0  0  0  0  0  0  0
    7.7547   -0.9739    0.0000 C   0  0  0  0  0  0  0  0  0  0  0  0
    4.8063    2.7694    0.0000 C   0  0  0  0  0  0  0  0  0  0  0  0
    6.5384    2.7694    0.0000 C   0  0  0  0  0  0  0  0  0  0  0  0
    2.5000   -0.1172    0.0000 C   0  0  0  0  0  0  0  0  0  0  0  0
    3.5827    1.0852    0.0000 C   0  0  0  0  0  0  0  0  0  0  0  0
    6.0384   -2.7694    0.0000 C   0  0  0  0  0  0  0  0  0  0  0  0
    4.3063   -2.7694    0.0000 C   0  0  0  0  0  0  0  0  0  0  0  0
    5.1724   -3.2694    0.0000 C   0  0  0  0  0  0  0  0  0  0  0  0
    8.1614   -0.0604    0.0000 C   0  0  0  0  0  0  0  0  0  0  0  0
    8.3424   -1.7829    0.0000 C   0  0  0  0  0  0  0  0  0  0  0  0
    4.8063    3.7694    0.0000 C   0  0  0  0  0  0  0  0  0  0  0  0
    6.5384    3.7694    0.0000 C   0  0  0  0  0  0  0  0  0  0  0  0
    2.0000    0.7488    0.0000 C   0  0  0  0  0  0  0  0  0  0  0  0
    5.6724    4.2694    0.0000 C   0  0  0  0  0  0  0  0  0  0  0  0
    9.1559    0.0442    0.0000 C   0  0  0  0  0  0  0  0  0  0  0  0
    9.3370   -1.6784    0.0000 C   0  0  0  0  0  0  0  0  0  0  0  0
    9.7437   -0.7649    0.0000 C   0  0  0  0  0  0  0  0  0  0  0  0
    4.5533    1.2186    0.0000 H   0  0  0  0  0  0  0  0  0  0  0  0
    4.2969    0.4295    0.0000 H   0  0  0  0  0  0  0  0  0  0  0  0
    6.2248    1.5509    0.0000 H   0  0  0  0  0  0  0  0  0  0  0  0
    3.7327   -0.9601    0.0000 H   0  0  0  0  0  0  0  0  0  0  0  0
    4.5124   -1.1259    0.0000 H   0  0  0  0  0  0  0  0  0  0  0  0
    6.2029   -1.3502    0.0000 H   0  0  0  0  0  0  0  0  0  0  0  0
    6.9310   -1.6744    0.0000 H   0  0  0  0  0  0  0  0  0  0  0  0
    6.5753   -1.4594    0.0000 H   0  0  0  0  0  0  0  0  0  0  0  0
    3.7694   -1.4594    0.0000 H   0  0  0  0  0  0  0  0  0  0  0  0
    4.2694    2.4594    0.0000 H   0  0  0  0  0  0  0  0  0  0  0  0
    7.0753    2.4594    0.0000 H   0  0  0  0  0  0  0  0  0  0  0  0
    2.2478   -0.6836    0.0000 H   0  0  0  0  0  0  0  0  0  0  0  0
    4.1196    1.3952    0.0000 H   0  0  0  0  0  0  0  0  0  0  0  0
    6.5753   -3.0794    0.0000 H   0  0  0  0  0  0  0  0  0  0  0  0
    3.7694   -3.0794    0.0000 H   0  0  0  0  0  0  0  0  0  0  0  0
    7.7970    0.4412    0.0000 H   0  0  0  0  0  0  0  0  0  0  0  0
    8.0903   -2.3493    0.0000 H   0  0  0  0  0  0  0  0  0  0  0  0
    4.2694    4.0794    0.0000 H   0  0  0  0  0  0  0  0  0  0  0  0
    7.0753    4.0794    0.0000 H   0  0  0  0  0  0  0  0  0  0  0  0
    1.3834    0.8136    0.0000 H   0  0  0  0  0  0  0  0  0  0  0  0
    5.6724    4.8894    0.0000 H   0  0  0  0  0  0  0  0  0  0  0  0
    9.4081    0.6106    0.0000 H   0  0  0  0  0  0  0  0  0  0  0  0
    9.7014   -2.1800    0.0000 H   0  0  0  0  0  0  0  0  0  0  0  0
   10.3603   -0.7000    0.0000 H   0  0  0  0  0  0  0  0  0  0  0  0
  1 22  1  0  0  0  0
  2  3  1  0  0  0  0
  2  8  1  0  0  0  0
  3  6  1  0  0  0  0
  3 11  1  0  0  0  0
  4  9  1  0  0  0  0
  4 18  1  0  0  0  0
  4 19  1  0  0  0  0
  5 19  2  0  0  0  0
  5 27  1  0  0  0  0
  6  7  1  0  0  0  0
  6  9  1  1  0  0  0
  6 10  1  0  0  0  0
  7  8  1  0  0  0  0
  7 32  1  0  0  0  0
  7 33  1  0  0  0  0
  8 12  1  1  0  0  0
  8 34  1  0  0  0  0
  9 35  1  0  0  0  0
  9 36  1  0  0  0  0
 10 13  2  0  0  0  0
 10 14  1  0  0  0  0
 11 15  1  0  0  0  0
 11 37  1  0  0  0  0
 11 38  1  0  0  0  0
 12 16  2  0  0  0  0
 12 17  1  0  0  0  0
 13 20  1  0  0  0  0
 13 39  1  0  0  0  0
 14 21  2  0  0  0  0
 14 40  1  0  0  0  0
 15 23  2  0  0  0  0
 15 24  1  0  0  0  0
 16 25  1  0  0  0  0
 16 41  1  0  0  0  0
 17 26  2  0  0  0  0
 17 42  1  0  0  0  0
 18 27  2  0  0  0  0
 18 43  1  0  0  0  0
 19 44  1  0  0  0  0
 20 22  2  0  0  0  0
 20 45  1  0  0  0  0
 21 22  1  0  0  0  0
 21 46  1  0  0  0  0
 23 29  1  0  0  0  0
 23 47  1  0  0  0  0
 24 30  2  0  0  0  0
 24 48  1  0  0  0  0
 25 28  2  0  0  0  0
 25 49  1  0  0  0  0
 26 28  1  0  0  0  0
 26 50  1  0  0  0  0
 27 51  1  0  0  0  0
 28 52  1  0  0  0  0
 29 31  2  0  0  0  0
 29 53  1  0  0  0  0
 30 31  1  0  0  0  0
 30 54  1  0  0  0  0
 31 55  1  0  0  0  0
M  END
> <PUBCHEM_COMPOUND_CID>
516649
> <PUBCHEM_COMPOUND_CANONICALIZED>
1
> <PUBCHEM_CACTVS_COMPLEXITY>
557
> <PUBCHEM_CACTVS_HBOND_ACCEPTOR>
4
> <PUBCHEM_CACTVS_HBOND_DONOR>
0
> <PUBCHEM_CACTVS_ROTATABLE_BOND>
6
> <PUBCHEM_CACTVS_SUBSKEYS>
AAADceB7IQAAAAAAAAAAAAAAAAAAAWLAAAAwYMAAAAAAAAAB1AAAHwAEAAAADJzhmg49kJccEACgAjBnZACCgC0xEqApyAAYPIiIbiKAmRGUMAhuwAOIiCewwOAOgAAAAAAAAAAAAAAAAAAAAAAAAAAAAA==
> <PUBCHEM_IUPAC_OPENEYE_NAME>
(3S,5S)-2-benzyl-3-(4-fluorophenyl)-3-(imidazol-1-ylmethyl)-5-phenyl-isoxazolidine
> <PUBCHEM_IUPAC_CAS_NAME>
(3S,5S)-3-(4-fluorophenyl)-3-(1-imidazolylmethyl)-5-phenyl-2-(phenylmethyl)isoxazolidine
> <PUBCHEM_IUPAC_NAME_MARKUP>
(3<I>S</I>,5<I>S</I>)-2-benzyl-3-(4-fluorophenyl)-3-(imidazol-1-ylmethyl)-5-phenyl-1,2-oxazolidine
> <PUBCHEM_IUPAC_NAME>
(3S,5S)-2-benzyl-3-(4-fluorophenyl)-3-(imidazol-1-ylmethyl)-5-phenyl-1,2-oxazolidine
> <PUBCHEM_IUPAC_SYSTEMATIC_NAME>
(3S,5S)-3-(4-fluorophenyl)-3-(imidazol-1-ylmethyl)-5-phenyl-2-(phenylmethyl)-1,2-oxazolidine
> <PUBCHEM_IUPAC_TRADITIONAL_NAME>
(3S,5S)-2-benzyl-3-(4-fluorophenyl)-3-(imidazol-1-ylmethyl)-5-phenyl-isoxazolidine
> <PUBCHEM_IUPAC_INCHI>
InChI=1S/C26H24FN3O/c27-24-13-11-23(12-14-24)26(19-29-16-15-28-20-29)17-25(22-9-5-2-6-10-22)31-30(26)18-21-7-3-1-4-8-21/h1-16,20,25H,17-19H2/t25-,26+/m0/s1
> <PUBCHEM_IUPAC_INCHIKEY>
ADMHQVNQRIGPDJ-IZZNHLLZSA-N
> <PUBCHEM_XLOGP3_AA>
4.6
> <PUBCHEM_EXACT_MASS>
413.19034056
> <PUBCHEM_MOLECULAR_FORMULA>
C26H24FN3O
> <PUBCHEM_MOLECULAR_WEIGHT>
413.5
> <PUBCHEM_OPENEYE_CAN_SMILES>
C1C(ON(C1(CN2C=CN=C2)C3=CC=C(C=C3)F)CC4=CC=CC=C4)C5=CC=CC=C5
> <PUBCHEM_OPENEYE_ISO_SMILES>
C1[C@H](ON([C@]1(CN2C=CN=C2)C3=CC=C(C=C3)F)CC4=CC=CC=C4)C5=CC=CC=C5
> <PUBCHEM_CACTVS_TPSA>
30.3
> <PUBCHEM_MONOISOTOPIC_WEIGHT>
413.19034056
> <PUBCHEM_TOTAL_CHARGE>
0
> <PUBCHEM_HEAVY_ATOM_COUNT>
31
> <PUBCHEM_ATOM_DEF_STEREO_COUNT>
2
> <PUBCHEM_ATOM_UDEF_STEREO_COUNT>
0
> <PUBCHEM_BOND_DEF_STEREO_COUNT>
0
> <PUBCHEM_BOND_UDEF_STEREO_COUNT>
0
> <PUBCHEM_ISOTOPIC_ATOM_COUNT>
0
> <PUBCHEM_COMPONENT_COUNT>
1
> <PUBCHEM_CACTVS_TAUTO_COUNT>
1
> <PUBCHEM_COORDINATE_TYPE>
1
5
255
> <PUBCHEM_BONDANNOTATIONS>
10  13  8
10  14  8
12  16  8
12  17  8
13  20  8
14  21  8
15  23  8
15  24  8
16  25  8
17  26  8
18  27  8
20  22  8
21  22  8
23  29  8
24  30  8
25  28  8
26  28  8
29  31  8
30  31  8
4  18  8
4  19  8
5  19  8
5  27  8
6  9  5
8  12  5
$$$$
