516655
  -OEChem-10302200282D
 98100  0     1  0  0  0  0  0999 V2000
    5.4141   -8.9371    0.0000 O   0  0  0  0  0  0  0  0  0  0  0  0
    6.8079   -8.1324    0.0000 O   0  0  0  0  0  0  0  0  0  0  0  0
    5.2049   -5.9653    0.0000 O   0  0  0  0  0  0  0  0  0  0  0  0
    3.3926   -7.7700    0.0000 O   0  0  0  0  0  0  0  0  0  0  0  0
    3.3926   -6.1606    0.0000 O   0  0  0  0  0  0  0  0  0  0  0  0
    6.9369   -4.9653    0.0000 O   0  0  0  0  0  0  0  0  0  0  0  0
    6.9369   -2.9653    0.0000 O   0  0  0  0  0  0  0  0  0  0  0  0
    8.6690   -1.9653    0.0000 N   0  0  0  0  0  0  0  0  0  0  0  0
    5.2049   -7.9653    0.0000 C   0  0  1  0  0  0  0  0  0  0  0  0
    6.0709   -7.4653    0.0000 C   0  0  2  0  0  0  0  0  0  0  0  0
    4.3388   -7.4653    0.0000 C   0  0  2  0  0  0  0  0  0  0  0  0
    4.3388   -6.4653    0.0000 C   0  0  2  0  0  0  0  0  0  0  0  0
    6.0709   -6.4653    0.0000 C   0  0  3  0  0  0  0  0  0  0  0  0
    6.4028   -9.0402    0.0000 C   0  0  0  0  0  0  0  0  0  0  0  0
    2.8090   -6.9653    0.0000 C   0  0  0  0  0  0  0  0  0  0  0  0
    6.9369   -5.9653    0.0000 C   0  0  0  0  0  0  0  0  0  0  0  0
    7.3163   -9.4469    0.0000 C   0  0  0  0  0  0  0  0  0  0  0  0
    6.2983  -10.0347    0.0000 C   0  0  0  0  0  0  0  0  0  0  0  0
    2.0000   -6.3775    0.0000 C   0  0  0  0  0  0  0  0  0  0  0  0
    2.0000   -7.5531    0.0000 C   0  0  0  0  0  0  0  0  0  0  0  0
    7.8030   -4.4653    0.0000 C   0  0  0  0  0  0  0  0  0  0  0  0
    7.8030   -3.4653    0.0000 C   0  0  3  0  0  0  0  0  0  0  0  0
    8.6690   -2.9653    0.0000 C   0  0  0  0  0  0  0  0  0  0  0  0
    9.5350   -1.4653    0.0000 C   0  0  0  0  0  0  0  0  0  0  0  0
    9.5350   -0.4653    0.0000 C   0  0  0  0  0  0  0  0  0  0  0  0
   10.4010    0.0347    0.0000 C   0  0  0  0  0  0  0  0  0  0  0  0
   10.4010    1.0347    0.0000 C   0  0  0  0  0  0  0  0  0  0  0  0
   11.2670    1.5347    0.0000 C   0  0  0  0  0  0  0  0  0  0  0  0
   11.2670    2.5347    0.0000 C   0  0  0  0  0  0  0  0  0  0  0  0
   12.1331    3.0347    0.0000 C   0  0  0  0  0  0  0  0  0  0  0  0
   12.1331    4.0347    0.0000 C   0  0  0  0  0  0  0  0  0  0  0  0
   12.9991    4.5347    0.0000 C   0  0  0  0  0  0  0  0  0  0  0  0
   12.9991    5.5347    0.0000 C   0  0  0  0  0  0  0  0  0  0  0  0
   13.8651    6.0347    0.0000 C   0  0  0  0  0  0  0  0  0  0  0  0
   13.8651    7.0347    0.0000 C   0  0  0  0  0  0  0  0  0  0  0  0
   14.7312    7.5347    0.0000 C   0  0  0  0  0  0  0  0  0  0  0  0
   14.7312    8.5347    0.0000 C   0  0  0  0  0  0  0  0  0  0  0  0
   15.5972    9.0347    0.0000 C   0  0  0  0  0  0  0  0  0  0  0  0
   15.5972   10.0347    0.0000 C   0  0  0  0  0  0  0  0  0  0  0  0
    4.5179   -8.4658    0.0000 H   0  0  0  0  0  0  0  0  0  0  0  0
    6.8479   -7.1206    0.0000 H   0  0  0  0  0  0  0  0  0  0  0  0
    4.2489   -8.3105    0.0000 H   0  0  0  0  0  0  0  0  0  0  0  0
    4.2489   -5.6201    0.0000 H   0  0  0  0  0  0  0  0  0  0  0  0
    6.0709   -5.8453    0.0000 H   0  0  0  0  0  0  0  0  0  0  0  0
    7.1490   -6.5479    0.0000 H   0  0  0  0  0  0  0  0  0  0  0  0
    7.5475   -5.8576    0.0000 H   0  0  0  0  0  0  0  0  0  0  0  0
    7.0642  -10.0133    0.0000 H   0  0  0  0  0  0  0  0  0  0  0  0
    7.8827   -9.6991    0.0000 H   0  0  0  0  0  0  0  0  0  0  0  0
    7.5685   -8.8805    0.0000 H   0  0  0  0  0  0  0  0  0  0  0  0
    5.6817   -9.9699    0.0000 H   0  0  0  0  0  0  0  0  0  0  0  0
    6.2335  -10.6513    0.0000 H   0  0  0  0  0  0  0  0  0  0  0  0
    6.9149  -10.0995    0.0000 H   0  0  0  0  0  0  0  0  0  0  0  0
    2.3644   -5.8759    0.0000 H   0  0  0  0  0  0  0  0  0  0  0  0
    1.4984   -6.0131    0.0000 H   0  0  0  0  0  0  0  0  0  0  0  0
    1.6356   -6.8791    0.0000 H   0  0  0  0  0  0  0  0  0  0  0  0
    1.6356   -7.0515    0.0000 H   0  0  0  0  0  0  0  0  0  0  0  0
    1.4984   -7.9175    0.0000 H   0  0  0  0  0  0  0  0  0  0  0  0
    2.3644   -8.0547    0.0000 H   0  0  0  0  0  0  0  0  0  0  0  0
    8.0150   -5.0479    0.0000 H   0  0  0  0  0  0  0  0  0  0  0  0
    8.4135   -4.3576    0.0000 H   0  0  0  0  0  0  0  0  0  0  0  0
    7.8030   -2.8453    0.0000 H   0  0  0  0  0  0  0  0  0  0  0  0
    8.8810   -3.5479    0.0000 H   0  0  0  0  0  0  0  0  0  0  0  0
    9.2796   -2.8576    0.0000 H   0  0  0  0  0  0  0  0  0  0  0  0
    8.1320   -1.6553    0.0000 H   0  0  0  0  0  0  0  0  0  0  0  0
    6.9369   -2.3453    0.0000 H   0  0  0  0  0  0  0  0  0  0  0  0
    9.7470   -2.0479    0.0000 H   0  0  0  0  0  0  0  0  0  0  0  0
   10.1456   -1.3576    0.0000 H   0  0  0  0  0  0  0  0  0  0  0  0
    9.3230    0.1173    0.0000 H   0  0  0  0  0  0  0  0  0  0  0  0
    8.9244   -0.5730    0.0000 H   0  0  0  0  0  0  0  0  0  0  0  0
   10.6131   -0.5479    0.0000 H   0  0  0  0  0  0  0  0  0  0  0  0
   11.0116    0.1424    0.0000 H   0  0  0  0  0  0  0  0  0  0  0  0
   10.1890    1.6173    0.0000 H   0  0  0  0  0  0  0  0  0  0  0  0
    9.7904    0.9270    0.0000 H   0  0  0  0  0  0  0  0  0  0  0  0
   11.4791    0.9521    0.0000 H   0  0  0  0  0  0  0  0  0  0  0  0
   11.8776    1.6424    0.0000 H   0  0  0  0  0  0  0  0  0  0  0  0
   11.0550    3.1173    0.0000 H   0  0  0  0  0  0  0  0  0  0  0  0
   10.6565    2.4270    0.0000 H   0  0  0  0  0  0  0  0  0  0  0  0
   12.3451    2.4521    0.0000 H   0  0  0  0  0  0  0  0  0  0  0  0
   12.7437    3.1424    0.0000 H   0  0  0  0  0  0  0  0  0  0  0  0
   11.9210    4.6173    0.0000 H   0  0  0  0  0  0  0  0  0  0  0  0
   11.5225    3.9270    0.0000 H   0  0  0  0  0  0  0  0  0  0  0  0
   13.2112    3.9521    0.0000 H   0  0  0  0  0  0  0  0  0  0  0  0
   13.6097    4.6424    0.0000 H   0  0  0  0  0  0  0  0  0  0  0  0
   12.7870    6.1173    0.0000 H   0  0  0  0  0  0  0  0  0  0  0  0
   12.3885    5.4270    0.0000 H   0  0  0  0  0  0  0  0  0  0  0  0
   14.0772    5.4521    0.0000 H   0  0  0  0  0  0  0  0  0  0  0  0
   14.4757    6.1424    0.0000 H   0  0  0  0  0  0  0  0  0  0  0  0
   13.6531    7.6173    0.0000 H   0  0  0  0  0  0  0  0  0  0  0  0
   13.2545    6.9270    0.0000 H   0  0  0  0  0  0  0  0  0  0  0  0
   14.9432    6.9521    0.0000 H   0  0  0  0  0  0  0  0  0  0  0  0
   15.3417    7.6424    0.0000 H   0  0  0  0  0  0  0  0  0  0  0  0
   14.5191    9.1173    0.0000 H   0  0  0  0  0  0  0  0  0  0  0  0
   14.1206    8.4270    0.0000 H   0  0  0  0  0  0  0  0  0  0  0  0
   15.8092    8.4521    0.0000 H   0  0  0  0  0  0  0  0  0  0  0  0
   16.2078    9.1424    0.0000 H   0  0  0  0  0  0  0  0  0  0  0  0
   16.2172   10.0347    0.0000 H   0  0  0  0  0  0  0  0  0  0  0  0
   15.5972   10.6547    0.0000 H   0  0  0  0  0  0  0  0  0  0  0  0
   14.9772   10.0347    0.0000 H   0  0  0  0  0  0  0  0  0  0  0  0
  1  9  1  0  0  0  0
  1 14  1  0  0  0  0
  2 10  1  0  0  0  0
  2 14  1  0  0  0  0
  3 12  1  0  0  0  0
  3 13  1  0  0  0  0
  4 11  1  0  0  0  0
  4 15  1  0  0  0  0
  5 12  1  0  0  0  0
  5 15  1  0  0  0  0
  6 16  1  0  0  0  0
  6 21  1  0  0  0  0
  7 22  1  0  0  0  0
  7 65  1  0  0  0  0
  8 23  1  0  0  0  0
  8 24  1  0  0  0  0
  8 64  1  0  0  0  0
  9 10  1  0  0  0  0
  9 11  1  0  0  0  0
  9 40  1  1  0  0  0
 10 13  1  0  0  0  0
 10 41  1  1  0  0  0
 11 12  1  0  0  0  0
 11 42  1  6  0  0  0
 12 43  1  6  0  0  0
 13 16  1  0  0  0  0
 13 44  1  0  0  0  0
 14 17  1  0  0  0  0
 14 18  1  0  0  0  0
 15 19  1  0  0  0  0
 15 20  1  0  0  0  0
 16 45  1  0  0  0  0
 16 46  1  0  0  0  0
 17 47  1  0  0  0  0
 17 48  1  0  0  0  0
 17 49  1  0  0  0  0
 18 50  1  0  0  0  0
 18 51  1  0  0  0  0
 18 52  1  0  0  0  0
 19 53  1  0  0  0  0
 19 54  1  0  0  0  0
 19 55  1  0  0  0  0
 20 56  1  0  0  0  0
 20 57  1  0  0  0  0
 20 58  1  0  0  0  0
 21 22  1  0  0  0  0
 21 59  1  0  0  0  0
 21 60  1  0  0  0  0
 22 23  1  0  0  0  0
 22 61  1  0  0  0  0
 23 62  1  0  0  0  0
 23 63  1  0  0  0  0
 24 25  1  0  0  0  0
 24 66  1  0  0  0  0
 24 67  1  0  0  0  0
 25 26  1  0  0  0  0
 25 68  1  0  0  0  0
 25 69  1  0  0  0  0
 26 27  1  0  0  0  0
 26 70  1  0  0  0  0
 26 71  1  0  0  0  0
 27 28  1  0  0  0  0
 27 72  1  0  0  0  0
 27 73  1  0  0  0  0
 28 29  1  0  0  0  0
 28 74  1  0  0  0  0
 28 75  1  0  0  0  0
 29 30  1  0  0  0  0
 29 76  1  0  0  0  0
 29 77  1  0  0  0  0
 30 31  1  0  0  0  0
 30 78  1  0  0  0  0
 30 79  1  0  0  0  0
 31 32  1  0  0  0  0
 31 80  1  0  0  0  0
 31 81  1  0  0  0  0
 32 33  1  0  0  0  0
 32 82  1  0  0  0  0
 32 83  1  0  0  0  0
 33 34  1  0  0  0  0
 33 84  1  0  0  0  0
 33 85  1  0  0  0  0
 34 35  1  0  0  0  0
 34 86  1  0  0  0  0
 34 87  1  0  0  0  0
 35 36  1  0  0  0  0
 35 88  1  0  0  0  0
 35 89  1  0  0  0  0
 36 37  1  0  0  0  0
 36 90  1  0  0  0  0
 36 91  1  0  0  0  0
 37 38  1  0  0  0  0
 37 92  1  0  0  0  0
 37 93  1  0  0  0  0
 38 39  1  0  0  0  0
 38 94  1  0  0  0  0
 38 95  1  0  0  0  0
 39 96  1  0  0  0  0
 39 97  1  0  0  0  0
 39 98  1  0  0  0  0
M  END
> <PUBCHEM_COMPOUND_CID>
516655
> <PUBCHEM_COMPOUND_CANONICALIZED>
1
> <PUBCHEM_CACTVS_COMPLEXITY>
661
> <PUBCHEM_CACTVS_HBOND_ACCEPTOR>
8
> <PUBCHEM_CACTVS_HBOND_DONOR>
2
> <PUBCHEM_CACTVS_ROTATABLE_BOND>
21
> <PUBCHEM_CACTVS_SUBSKEYS>
AAADcfB6OAAAAAAAAAAAAAAAAAAAASJAAAAkAAAAAAAAAEgAAAAAHgAQCAAACBTxgAcCCALABgAAAAAAAAAAAAAAAAAAAIAIAAATEAIAgAAmAAAHEACXAAHQ4IwAAAAAAAAAAAAAAAAAAAAAAAAAAAAAAA==
> <PUBCHEM_IUPAC_OPENEYE_NAME>
1-(hexadecylamino)-3-[[(1S,2R,6R,9S)-4,4,11,11-tetramethyl-3,5,7,10,12-pentaoxatricyclo[7.3.0.02,6]dodecan-8-yl]methoxy]propan-2-ol
> <PUBCHEM_IUPAC_CAS_NAME>
1-(hexadecylamino)-3-[[(1S,2R,6R,9S)-4,4,11,11-tetramethyl-3,5,7,10,12-pentaoxatricyclo[7.3.0.02,6]dodecan-8-yl]methoxy]-2-propanol
> <PUBCHEM_IUPAC_NAME_MARKUP>
1-(hexadecylamino)-3-[[(1<I>S</I>,2<I>R</I>,6<I>R</I>,9<I>S</I>)-4,4,11,11-tetramethyl-3,5,7,10,12-pentaoxatricyclo[7.3.0.0<SUP>2,6</SUP>]dodecan-8-yl]methoxy]propan-2-ol
> <PUBCHEM_IUPAC_NAME>
1-(hexadecylamino)-3-[[(1S,2R,6R,9S)-4,4,11,11-tetramethyl-3,5,7,10,12-pentaoxatricyclo[7.3.0.02,6]dodecan-8-yl]methoxy]propan-2-ol
> <PUBCHEM_IUPAC_SYSTEMATIC_NAME>
1-(hexadecylamino)-3-[[(1S,2R,6R,9S)-4,4,11,11-tetramethyl-3,5,7,10,12-pentaoxatricyclo[7.3.0.02,6]dodecan-8-yl]methoxy]propan-2-ol
> <PUBCHEM_IUPAC_TRADITIONAL_NAME>
1-(cetylamino)-3-[[(1S,2R,6R,9S)-4,4,11,11-tetramethyl-3,5,7,10,12-pentaoxatricyclo[7.3.0.02,6]dodecan-8-yl]methoxy]propan-2-ol
> <PUBCHEM_IUPAC_INCHI>
InChI=1S/C31H59NO7/c1-6-7-8-9-10-11-12-13-14-15-16-17-18-19-20-32-21-24(33)22-34-23-25-26-27(37-30(2,3)36-26)28-29(35-25)39-31(4,5)38-28/h24-29,32-33H,6-23H2,1-5H3/t24?,25?,26-,27-,28+,29+/m0/s1
> <PUBCHEM_IUPAC_INCHIKEY>
UHNXDCFIRUWHMZ-VBJKPFQRSA-N
> <PUBCHEM_XLOGP3_AA>
7.2
> <PUBCHEM_EXACT_MASS>
557.42915322
> <PUBCHEM_MOLECULAR_FORMULA>
C31H59NO7
> <PUBCHEM_MOLECULAR_WEIGHT>
557.8
> <PUBCHEM_OPENEYE_CAN_SMILES>
CCCCCCCCCCCCCCCCNCC(COCC1C2C(C3C(O1)OC(O3)(C)C)OC(O2)(C)C)O
> <PUBCHEM_OPENEYE_ISO_SMILES>
CCCCCCCCCCCCCCCCNCC(COCC1[C@H]2[C@@H]([C@@H]3[C@H](O1)OC(O3)(C)C)OC(O2)(C)C)O
> <PUBCHEM_CACTVS_TPSA>
87.6
> <PUBCHEM_MONOISOTOPIC_WEIGHT>
557.42915322
> <PUBCHEM_TOTAL_CHARGE>
0
> <PUBCHEM_HEAVY_ATOM_COUNT>
39
> <PUBCHEM_ATOM_DEF_STEREO_COUNT>
4
> <PUBCHEM_ATOM_UDEF_STEREO_COUNT>
2
> <PUBCHEM_BOND_DEF_STEREO_COUNT>
0
> <PUBCHEM_BOND_UDEF_STEREO_COUNT>
0
> <PUBCHEM_ISOTOPIC_ATOM_COUNT>
0
> <PUBCHEM_COMPONENT_COUNT>
1
> <PUBCHEM_CACTVS_TAUTO_COUNT>
-1
> <PUBCHEM_COORDINATE_TYPE>
1
5
255
> <PUBCHEM_BONDANNOTATIONS>
10  41  5
11  42  6
12  43  6
13  16  3
22  7  3
9  40  5
$$$$
