516659
  -OEChem-10302200282D
 71 75  0     1  0  0  0  0  0999 V2000
   10.4010    4.2847    0.0000 Cl  0  0  0  0  0  0  0  0  0  0  0  0
    5.4141   -4.6871    0.0000 O   0  0  0  0  0  0  0  0  0  0  0  0
    6.8079   -3.8824    0.0000 O   0  0  0  0  0  0  0  0  0  0  0  0
    5.2049   -1.7153    0.0000 O   0  0  0  0  0  0  0  0  0  0  0  0
    3.3926   -3.5200    0.0000 O   0  0  0  0  0  0  0  0  0  0  0  0
    3.3926   -1.9106    0.0000 O   0  0  0  0  0  0  0  0  0  0  0  0
    6.9369   -0.7153    0.0000 O   0  0  0  0  0  0  0  0  0  0  0  0
    6.9369    1.2847    0.0000 O   0  0  0  0  0  0  0  0  0  0  0  0
    8.6690    2.2847    0.0000 N   0  0  3  0  0  0  0  0  0  0  0  0
    8.6690    4.2847    0.0000 N   0  0  0  0  0  0  0  0  0  0  0  0
    6.0709    3.7847    0.0000 N   0  0  0  0  0  0  0  0  0  0  0  0
    5.2049   -3.7153    0.0000 C   0  0  1  0  0  0  0  0  0  0  0  0
    6.0709   -3.2153    0.0000 C   0  0  2  0  0  0  0  0  0  0  0  0
    4.3388   -3.2153    0.0000 C   0  0  2  0  0  0  0  0  0  0  0  0
    6.0709   -2.2153    0.0000 C   0  0  3  0  0  0  0  0  0  0  0  0
    4.3388   -2.2153    0.0000 C   0  0  2  0  0  0  0  0  0  0  0  0
    6.4028   -4.7902    0.0000 C   0  0  0  0  0  0  0  0  0  0  0  0
    2.8090   -2.7153    0.0000 C   0  0  0  0  0  0  0  0  0  0  0  0
    6.9369   -1.7153    0.0000 C   0  0  0  0  0  0  0  0  0  0  0  0
    7.3163   -5.1969    0.0000 C   0  0  0  0  0  0  0  0  0  0  0  0
    6.2983   -5.7847    0.0000 C   0  0  0  0  0  0  0  0  0  0  0  0
    2.0000   -2.1275    0.0000 C   0  0  0  0  0  0  0  0  0  0  0  0
    2.0000   -3.3031    0.0000 C   0  0  0  0  0  0  0  0  0  0  0  0
    7.8030   -0.2153    0.0000 C   0  0  0  0  0  0  0  0  0  0  0  0
    7.8030    0.7847    0.0000 C   0  0  3  0  0  0  0  0  0  0  0  0
    8.6690    1.2847    0.0000 C   0  0  0  0  0  0  0  0  0  0  0  0
    7.8030    2.7847    0.0000 C   0  0  0  0  0  0  0  0  0  0  0  0
    7.8030    3.7847    0.0000 C   0  0  3  0  0  0  0  0  0  0  0  0
    9.5350    2.7847    0.0000 C   0  0  0  0  0  0  0  0  0  0  0  0
    9.5350    3.7847    0.0000 C   0  0  3  0  0  0  0  0  0  0  0  0
    6.9369    4.2847    0.0000 C   0  0  0  0  0  0  0  0  0  0  0  0
    6.9369    5.2847    0.0000 C   0  0  0  0  0  0  0  0  0  0  0  0
    6.0709    5.7847    0.0000 C   0  0  0  0  0  0  0  0  0  0  0  0
    5.2049    4.2847    0.0000 C   0  0  0  0  0  0  0  0  0  0  0  0
    5.2049    5.2847    0.0000 C   0  0  0  0  0  0  0  0  0  0  0  0
    4.5179   -4.2158    0.0000 H   0  0  0  0  0  0  0  0  0  0  0  0
    6.8479   -2.8706    0.0000 H   0  0  0  0  0  0  0  0  0  0  0  0
    4.2489   -4.0605    0.0000 H   0  0  0  0  0  0  0  0  0  0  0  0
    6.0709   -1.5953    0.0000 H   0  0  0  0  0  0  0  0  0  0  0  0
    4.2489   -1.3701    0.0000 H   0  0  0  0  0  0  0  0  0  0  0  0
    7.1490   -2.2979    0.0000 H   0  0  0  0  0  0  0  0  0  0  0  0
    7.5475   -1.6076    0.0000 H   0  0  0  0  0  0  0  0  0  0  0  0
    7.0642   -5.7633    0.0000 H   0  0  0  0  0  0  0  0  0  0  0  0
    7.8827   -5.4491    0.0000 H   0  0  0  0  0  0  0  0  0  0  0  0
    7.5685   -4.6305    0.0000 H   0  0  0  0  0  0  0  0  0  0  0  0
    5.6817   -5.7199    0.0000 H   0  0  0  0  0  0  0  0  0  0  0  0
    6.2335   -6.4013    0.0000 H   0  0  0  0  0  0  0  0  0  0  0  0
    6.9149   -5.8495    0.0000 H   0  0  0  0  0  0  0  0  0  0  0  0
    2.3644   -1.6259    0.0000 H   0  0  0  0  0  0  0  0  0  0  0  0
    1.4984   -1.7631    0.0000 H   0  0  0  0  0  0  0  0  0  0  0  0
    1.6356   -2.6291    0.0000 H   0  0  0  0  0  0  0  0  0  0  0  0
    1.6356   -2.8015    0.0000 H   0  0  0  0  0  0  0  0  0  0  0  0
    1.4984   -3.6675    0.0000 H   0  0  0  0  0  0  0  0  0  0  0  0
    2.3644   -3.8047    0.0000 H   0  0  0  0  0  0  0  0  0  0  0  0
    8.0150   -0.7979    0.0000 H   0  0  0  0  0  0  0  0  0  0  0  0
    8.4135   -0.1076    0.0000 H   0  0  0  0  0  0  0  0  0  0  0  0
    7.8030    1.4047    0.0000 H   0  0  0  0  0  0  0  0  0  0  0  0
    8.8810    0.7021    0.0000 H   0  0  0  0  0  0  0  0  0  0  0  0
    9.2796    1.3924    0.0000 H   0  0  0  0  0  0  0  0  0  0  0  0
    7.1924    2.8924    0.0000 H   0  0  0  0  0  0  0  0  0  0  0  0
    7.5909    2.2021    0.0000 H   0  0  0  0  0  0  0  0  0  0  0  0
    7.8030    4.4047    0.0000 H   0  0  0  0  0  0  0  0  0  0  0  0
    9.7470    2.2021    0.0000 H   0  0  0  0  0  0  0  0  0  0  0  0
   10.1456    2.8924    0.0000 H   0  0  0  0  0  0  0  0  0  0  0  0
    9.5350    4.4047    0.0000 H   0  0  0  0  0  0  0  0  0  0  0  0
    8.6690    4.9047    0.0000 H   0  0  0  0  0  0  0  0  0  0  0  0
    6.4000    0.9747    0.0000 H   0  0  0  0  0  0  0  0  0  0  0  0
    7.4739    5.5947    0.0000 H   0  0  0  0  0  0  0  0  0  0  0  0
    6.0709    6.4047    0.0000 H   0  0  0  0  0  0  0  0  0  0  0  0
    4.6679    3.9747    0.0000 H   0  0  0  0  0  0  0  0  0  0  0  0
    4.6679    5.5947    0.0000 H   0  0  0  0  0  0  0  0  0  0  0  0
  1 30  1  0  0  0  0
  2 12  1  0  0  0  0
  2 17  1  0  0  0  0
  3 13  1  0  0  0  0
  3 17  1  0  0  0  0
  4 15  1  0  0  0  0
  4 16  1  0  0  0  0
  5 14  1  0  0  0  0
  5 18  1  0  0  0  0
  6 16  1  0  0  0  0
  6 18  1  0  0  0  0
  7 19  1  0  0  0  0
  7 24  1  0  0  0  0
  8 25  1  0  0  0  0
  8 67  1  0  0  0  0
  9 26  1  0  0  0  0
  9 27  1  0  0  0  0
  9 29  1  0  0  0  0
 10 28  1  0  0  0  0
 10 30  1  0  0  0  0
 10 66  1  0  0  0  0
 11 31  1  0  0  0  0
 11 34  2  0  0  0  0
 12 13  1  0  0  0  0
 12 14  1  0  0  0  0
 12 36  1  1  0  0  0
 13 15  1  0  0  0  0
 13 37  1  1  0  0  0
 14 16  1  0  0  0  0
 14 38  1  6  0  0  0
 15 19  1  0  0  0  0
 15 39  1  0  0  0  0
 16 40  1  6  0  0  0
 17 20  1  0  0  0  0
 17 21  1  0  0  0  0
 18 22  1  0  0  0  0
 18 23  1  0  0  0  0
 19 41  1  0  0  0  0
 19 42  1  0  0  0  0
 20 43  1  0  0  0  0
 20 44  1  0  0  0  0
 20 45  1  0  0  0  0
 21 46  1  0  0  0  0
 21 47  1  0  0  0  0
 21 48  1  0  0  0  0
 22 49  1  0  0  0  0
 22 50  1  0  0  0  0
 22 51  1  0  0  0  0
 23 52  1  0  0  0  0
 23 53  1  0  0  0  0
 23 54  1  0  0  0  0
 24 25  1  0  0  0  0
 24 55  1  0  0  0  0
 24 56  1  0  0  0  0
 25 26  1  0  0  0  0
 25 57  1  0  0  0  0
 26 58  1  0  0  0  0
 26 59  1  0  0  0  0
 27 28  1  0  0  0  0
 27 60  1  0  0  0  0
 27 61  1  0  0  0  0
 28 31  1  0  0  0  0
 28 62  1  0  0  0  0
 29 30  1  0  0  0  0
 29 63  1  0  0  0  0
 29 64  1  0  0  0  0
 30 65  1  0  0  0  0
 31 32  2  0  0  0  0
 32 33  1  0  0  0  0
 32 68  1  0  0  0  0
 33 35  2  0  0  0  0
 33 69  1  0  0  0  0
 34 35  1  0  0  0  0
 34 70  1  0  0  0  0
 35 71  1  0  0  0  0
M  END
> <PUBCHEM_COMPOUND_CID>
516659
> <PUBCHEM_COMPOUND_CANONICALIZED>
1
> <PUBCHEM_CACTVS_COMPLEXITY>
731
> <PUBCHEM_CACTVS_HBOND_ACCEPTOR>
10
> <PUBCHEM_CACTVS_HBOND_DONOR>
2
> <PUBCHEM_CACTVS_ROTATABLE_BOND>
7
> <PUBCHEM_CACTVS_SUBSKEYS>
AAADcfB7OAAEAAAAAAAAAAAAAAAAASJAAAAsWJAAAAAAAEgBgAAAHgIQCAAACD/xlkc+iJPIFgCgATRnRACCgCAxAiAI2KA4ZJgbcOLA0ZH2IAhnkADfyAfQ4AwAAAAAAAAAAAAAAAAAAAAAAAAAAAAAAA==
> <PUBCHEM_IUPAC_OPENEYE_NAME>
1-[3-chloro-5-(2-pyridyl)piperazin-1-yl]-3-[[(1S,2R,6R,9S)-4,4,11,11-tetramethyl-3,5,7,10,12-pentaoxatricyclo[7.3.0.02,6]dodecan-8-yl]methoxy]propan-2-ol
> <PUBCHEM_IUPAC_CAS_NAME>
1-[3-chloro-5-(2-pyridinyl)-1-piperazinyl]-3-[[(1S,2R,6R,9S)-4,4,11,11-tetramethyl-3,5,7,10,12-pentaoxatricyclo[7.3.0.02,6]dodecan-8-yl]methoxy]-2-propanol
> <PUBCHEM_IUPAC_NAME_MARKUP>
1-(3-chloro-5-pyridin-2-ylpiperazin-1-yl)-3-[[(1<I>S</I>,2<I>R</I>,6<I>R</I>,9<I>S</I>)-4,4,11,11-tetramethyl-3,5,7,10,12-pentaoxatricyclo[7.3.0.0<SUP>2,6</SUP>]dodecan-8-yl]methoxy]propan-2-ol
> <PUBCHEM_IUPAC_NAME>
1-(3-chloro-5-pyridin-2-ylpiperazin-1-yl)-3-[[(1S,2R,6R,9S)-4,4,11,11-tetramethyl-3,5,7,10,12-pentaoxatricyclo[7.3.0.02,6]dodecan-8-yl]methoxy]propan-2-ol
> <PUBCHEM_IUPAC_SYSTEMATIC_NAME>
1-(3-chloranyl-5-pyridin-2-yl-piperazin-1-yl)-3-[[(1S,2R,6R,9S)-4,4,11,11-tetramethyl-3,5,7,10,12-pentaoxatricyclo[7.3.0.02,6]dodecan-8-yl]methoxy]propan-2-ol
> <PUBCHEM_IUPAC_TRADITIONAL_NAME>
1-[3-chloro-5-(2-pyridyl)piperazino]-3-[[(1S,2R,6R,9S)-4,4,11,11-tetramethyl-3,5,7,10,12-pentaoxatricyclo[7.3.0.02,6]dodecan-8-yl]methoxy]propan-2-ol
> <PUBCHEM_IUPAC_INCHI>
InChI=1S/C24H36ClN3O7/c1-23(2)32-19-17(31-22-21(20(19)33-23)34-24(3,4)35-22)13-30-12-14(29)9-28-10-16(27-18(25)11-28)15-7-5-6-8-26-15/h5-8,14,16-22,27,29H,9-13H2,1-4H3/t14?,16?,17?,18?,19-,20-,21+,22+/m0/s1
> <PUBCHEM_IUPAC_INCHIKEY>
FQNGBWWHLQDUMH-NTGDANNFSA-N
> <PUBCHEM_XLOGP3_AA>
0.5
> <PUBCHEM_EXACT_MASS>
513.2241782
> <PUBCHEM_MOLECULAR_FORMULA>
C24H36ClN3O7
> <PUBCHEM_MOLECULAR_WEIGHT>
514.0
> <PUBCHEM_OPENEYE_CAN_SMILES>
CC1(OC2C(OC3C(C2O1)OC(O3)(C)C)COCC(CN4CC(NC(C4)Cl)C5=CC=CC=N5)O)C
> <PUBCHEM_OPENEYE_ISO_SMILES>
CC1(O[C@@H]2[C@@H]3[C@H](OC([C@@H]2O1)COCC(CN4CC(NC(C4)Cl)C5=CC=CC=N5)O)OC(O3)(C)C)C
> <PUBCHEM_CACTVS_TPSA>
104
> <PUBCHEM_MONOISOTOPIC_WEIGHT>
513.2241782
> <PUBCHEM_TOTAL_CHARGE>
0
> <PUBCHEM_HEAVY_ATOM_COUNT>
35
> <PUBCHEM_ATOM_DEF_STEREO_COUNT>
4
> <PUBCHEM_ATOM_UDEF_STEREO_COUNT>
4
> <PUBCHEM_BOND_DEF_STEREO_COUNT>
0
> <PUBCHEM_BOND_UDEF_STEREO_COUNT>
0
> <PUBCHEM_ISOTOPIC_ATOM_COUNT>
0
> <PUBCHEM_COMPONENT_COUNT>
1
> <PUBCHEM_CACTVS_TAUTO_COUNT>
-1
> <PUBCHEM_COORDINATE_TYPE>
1
5
255
> <PUBCHEM_BONDANNOTATIONS>
30  1  3
11  31  8
11  34  8
12  36  5
13  37  5
14  38  6
15  19  3
16  40  6
28  31  3
31  32  8
32  33  8
33  35  8
34  35  8
25  8  3
$$$$
