516652
  -OEChem-10302200282D
 63 66  0     1  0  0  0  0  0999 V2000
    5.4141   -4.6871    0.0000 O   0  0  0  0  0  0  0  0  0  0  0  0
    6.8079   -3.8824    0.0000 O   0  0  0  0  0  0  0  0  0  0  0  0
    5.2049   -1.7153    0.0000 O   0  0  0  0  0  0  0  0  0  0  0  0
    3.3926   -3.5200    0.0000 O   0  0  0  0  0  0  0  0  0  0  0  0
    3.3926   -1.9106    0.0000 O   0  0  0  0  0  0  0  0  0  0  0  0
    6.9369   -0.7153    0.0000 O   0  0  0  0  0  0  0  0  0  0  0  0
    6.9369    1.2847    0.0000 O   0  0  0  0  0  0  0  0  0  0  0  0
    8.6690    2.2847    0.0000 N   0  0  0  0  0  0  0  0  0  0  0  0
    5.2049   -3.7153    0.0000 C   0  0  1  0  0  0  0  0  0  0  0  0
    6.0709   -3.2153    0.0000 C   0  0  2  0  0  0  0  0  0  0  0  0
    4.3388   -3.2153    0.0000 C   0  0  2  0  0  0  0  0  0  0  0  0
    6.0709   -2.2153    0.0000 C   0  0  3  0  0  0  0  0  0  0  0  0
    4.3388   -2.2153    0.0000 C   0  0  2  0  0  0  0  0  0  0  0  0
    6.4028   -4.7902    0.0000 C   0  0  0  0  0  0  0  0  0  0  0  0
    2.8090   -2.7153    0.0000 C   0  0  0  0  0  0  0  0  0  0  0  0
    6.9369   -1.7153    0.0000 C   0  0  0  0  0  0  0  0  0  0  0  0
    7.3163   -5.1969    0.0000 C   0  0  0  0  0  0  0  0  0  0  0  0
    6.2983   -5.7847    0.0000 C   0  0  0  0  0  0  0  0  0  0  0  0
    2.0000   -2.1275    0.0000 C   0  0  0  0  0  0  0  0  0  0  0  0
    2.0000   -3.3031    0.0000 C   0  0  0  0  0  0  0  0  0  0  0  0
    7.8030   -0.2153    0.0000 C   0  0  0  0  0  0  0  0  0  0  0  0
    7.8030    0.7847    0.0000 C   0  0  3  0  0  0  0  0  0  0  0  0
    8.6690    1.2847    0.0000 C   0  0  0  0  0  0  0  0  0  0  0  0
    9.5350    2.7847    0.0000 C   0  0  0  0  0  0  0  0  0  0  0  0
    9.5350    3.7847    0.0000 C   0  0  0  0  0  0  0  0  0  0  0  0
    8.6690    4.2847    0.0000 C   0  0  0  0  0  0  0  0  0  0  0  0
   10.4010    4.2847    0.0000 C   0  0  0  0  0  0  0  0  0  0  0  0
    8.6690    5.2847    0.0000 C   0  0  0  0  0  0  0  0  0  0  0  0
   10.4010    5.2847    0.0000 C   0  0  0  0  0  0  0  0  0  0  0  0
    9.5350    5.7847    0.0000 C   0  0  0  0  0  0  0  0  0  0  0  0
    4.5179   -4.2158    0.0000 H   0  0  0  0  0  0  0  0  0  0  0  0
    6.8479   -2.8706    0.0000 H   0  0  0  0  0  0  0  0  0  0  0  0
    4.2489   -4.0605    0.0000 H   0  0  0  0  0  0  0  0  0  0  0  0
    6.0709   -1.5953    0.0000 H   0  0  0  0  0  0  0  0  0  0  0  0
    4.2489   -1.3701    0.0000 H   0  0  0  0  0  0  0  0  0  0  0  0
    7.1490   -2.2979    0.0000 H   0  0  0  0  0  0  0  0  0  0  0  0
    7.5475   -1.6076    0.0000 H   0  0  0  0  0  0  0  0  0  0  0  0
    7.0642   -5.7633    0.0000 H   0  0  0  0  0  0  0  0  0  0  0  0
    7.8827   -5.4491    0.0000 H   0  0  0  0  0  0  0  0  0  0  0  0
    7.5685   -4.6305    0.0000 H   0  0  0  0  0  0  0  0  0  0  0  0
    5.6817   -5.7199    0.0000 H   0  0  0  0  0  0  0  0  0  0  0  0
    6.2335   -6.4013    0.0000 H   0  0  0  0  0  0  0  0  0  0  0  0
    6.9149   -5.8495    0.0000 H   0  0  0  0  0  0  0  0  0  0  0  0
    2.3644   -1.6259    0.0000 H   0  0  0  0  0  0  0  0  0  0  0  0
    1.4984   -1.7631    0.0000 H   0  0  0  0  0  0  0  0  0  0  0  0
    1.6356   -2.6291    0.0000 H   0  0  0  0  0  0  0  0  0  0  0  0
    1.6356   -2.8015    0.0000 H   0  0  0  0  0  0  0  0  0  0  0  0
    1.4984   -3.6675    0.0000 H   0  0  0  0  0  0  0  0  0  0  0  0
    2.3644   -3.8047    0.0000 H   0  0  0  0  0  0  0  0  0  0  0  0
    8.0150   -0.7979    0.0000 H   0  0  0  0  0  0  0  0  0  0  0  0
    8.4135   -0.1076    0.0000 H   0  0  0  0  0  0  0  0  0  0  0  0
    7.8030    1.4047    0.0000 H   0  0  0  0  0  0  0  0  0  0  0  0
    8.8810    0.7021    0.0000 H   0  0  0  0  0  0  0  0  0  0  0  0
    9.2796    1.3924    0.0000 H   0  0  0  0  0  0  0  0  0  0  0  0
    6.9369    1.9047    0.0000 H   0  0  0  0  0  0  0  0  0  0  0  0
    8.1320    2.5947    0.0000 H   0  0  0  0  0  0  0  0  0  0  0  0
    9.7470    2.2021    0.0000 H   0  0  0  0  0  0  0  0  0  0  0  0
   10.1456    2.8924    0.0000 H   0  0  0  0  0  0  0  0  0  0  0  0
    8.1320    3.9747    0.0000 H   0  0  0  0  0  0  0  0  0  0  0  0
   10.9380    3.9747    0.0000 H   0  0  0  0  0  0  0  0  0  0  0  0
    8.1320    5.5947    0.0000 H   0  0  0  0  0  0  0  0  0  0  0  0
   10.9380    5.5947    0.0000 H   0  0  0  0  0  0  0  0  0  0  0  0
    9.5350    6.4047    0.0000 H   0  0  0  0  0  0  0  0  0  0  0  0
  1  9  1  0  0  0  0
  1 14  1  0  0  0  0
  2 10  1  0  0  0  0
  2 14  1  0  0  0  0
  3 12  1  0  0  0  0
  3 13  1  0  0  0  0
  4 11  1  0  0  0  0
  4 15  1  0  0  0  0
  5 13  1  0  0  0  0
  5 15  1  0  0  0  0
  6 16  1  0  0  0  0
  6 21  1  0  0  0  0
  7 22  1  0  0  0  0
  7 55  1  0  0  0  0
  8 23  1  0  0  0  0
  8 24  1  0  0  0  0
  8 56  1  0  0  0  0
  9 10  1  0  0  0  0
  9 11  1  0  0  0  0
  9 31  1  1  0  0  0
 10 12  1  0  0  0  0
 10 32  1  1  0  0  0
 11 13  1  0  0  0  0
 11 33  1  6  0  0  0
 12 16  1  0  0  0  0
 12 34  1  0  0  0  0
 13 35  1  6  0  0  0
 14 17  1  0  0  0  0
 14 18  1  0  0  0  0
 15 19  1  0  0  0  0
 15 20  1  0  0  0  0
 16 36  1  0  0  0  0
 16 37  1  0  0  0  0
 17 38  1  0  0  0  0
 17 39  1  0  0  0  0
 17 40  1  0  0  0  0
 18 41  1  0  0  0  0
 18 42  1  0  0  0  0
 18 43  1  0  0  0  0
 19 44  1  0  0  0  0
 19 45  1  0  0  0  0
 19 46  1  0  0  0  0
 20 47  1  0  0  0  0
 20 48  1  0  0  0  0
 20 49  1  0  0  0  0
 21 22  1  0  0  0  0
 21 50  1  0  0  0  0
 21 51  1  0  0  0  0
 22 23  1  0  0  0  0
 22 52  1  0  0  0  0
 23 53  1  0  0  0  0
 23 54  1  0  0  0  0
 24 25  1  0  0  0  0
 24 57  1  0  0  0  0
 24 58  1  0  0  0  0
 25 26  2  0  0  0  0
 25 27  1  0  0  0  0
 26 28  1  0  0  0  0
 26 59  1  0  0  0  0
 27 29  2  0  0  0  0
 27 60  1  0  0  0  0
 28 30  2  0  0  0  0
 28 61  1  0  0  0  0
 29 30  1  0  0  0  0
 29 62  1  0  0  0  0
 30 63  1  0  0  0  0
M  END
> <PUBCHEM_COMPOUND_CID>
516652
> <PUBCHEM_COMPOUND_CANONICALIZED>
1
> <PUBCHEM_CACTVS_COMPLEXITY>
566
> <PUBCHEM_CACTVS_HBOND_ACCEPTOR>
8
> <PUBCHEM_CACTVS_HBOND_DONOR>
2
> <PUBCHEM_CACTVS_ROTATABLE_BOND>
8
> <PUBCHEM_CACTVS_SUBSKEYS>
AAADcfB6OAAAAAAAAAAAAAAAAAAAASJAAAA0QAAAAAAAAEgBAAAAHgAQCAAADBTxmAcyCILABgCAAiBCAACCAAAgAAAIiIAIBIgbMCKAkRGmIAhnkACfiAfQ4AwOAAAAAAAAAAAAAAAAAAAAAAAAAAAAAA==
> <PUBCHEM_IUPAC_OPENEYE_NAME>
1-(benzylamino)-3-[[(1S,2R,6R,9S)-4,4,11,11-tetramethyl-3,5,7,10,12-pentaoxatricyclo[7.3.0.02,6]dodecan-8-yl]methoxy]propan-2-ol
> <PUBCHEM_IUPAC_CAS_NAME>
1-[(phenylmethyl)amino]-3-[[(1S,2R,6R,9S)-4,4,11,11-tetramethyl-3,5,7,10,12-pentaoxatricyclo[7.3.0.02,6]dodecan-8-yl]methoxy]-2-propanol
> <PUBCHEM_IUPAC_NAME_MARKUP>
1-(benzylamino)-3-[[(1<I>S</I>,2<I>R</I>,6<I>R</I>,9<I>S</I>)-4,4,11,11-tetramethyl-3,5,7,10,12-pentaoxatricyclo[7.3.0.0<SUP>2,6</SUP>]dodecan-8-yl]methoxy]propan-2-ol
> <PUBCHEM_IUPAC_NAME>
1-(benzylamino)-3-[[(1S,2R,6R,9S)-4,4,11,11-tetramethyl-3,5,7,10,12-pentaoxatricyclo[7.3.0.02,6]dodecan-8-yl]methoxy]propan-2-ol
> <PUBCHEM_IUPAC_SYSTEMATIC_NAME>
1-[(phenylmethyl)amino]-3-[[(1S,2R,6R,9S)-4,4,11,11-tetramethyl-3,5,7,10,12-pentaoxatricyclo[7.3.0.02,6]dodecan-8-yl]methoxy]propan-2-ol
> <PUBCHEM_IUPAC_TRADITIONAL_NAME>
1-(benzylamino)-3-[[(1S,2R,6R,9S)-4,4,11,11-tetramethyl-3,5,7,10,12-pentaoxatricyclo[7.3.0.02,6]dodecan-8-yl]methoxy]propan-2-ol
> <PUBCHEM_IUPAC_INCHI>
InChI=1S/C22H33NO7/c1-21(2)27-17-16(26-20-19(18(17)28-21)29-22(3,4)30-20)13-25-12-15(24)11-23-10-14-8-6-5-7-9-14/h5-9,15-20,23-24H,10-13H2,1-4H3/t15?,16?,17-,18-,19+,20+/m0/s1
> <PUBCHEM_IUPAC_INCHIKEY>
NTLCCVYGPOYMEB-JGECRLCUSA-N
> <PUBCHEM_XLOGP3_AA>
1
> <PUBCHEM_EXACT_MASS>
423.22570239
> <PUBCHEM_MOLECULAR_FORMULA>
C22H33NO7
> <PUBCHEM_MOLECULAR_WEIGHT>
423.5
> <PUBCHEM_OPENEYE_CAN_SMILES>
CC1(OC2C(OC3C(C2O1)OC(O3)(C)C)COCC(CNCC4=CC=CC=C4)O)C
> <PUBCHEM_OPENEYE_ISO_SMILES>
CC1(O[C@@H]2[C@@H]3[C@H](OC([C@@H]2O1)COCC(CNCC4=CC=CC=C4)O)OC(O3)(C)C)C
> <PUBCHEM_CACTVS_TPSA>
87.6
> <PUBCHEM_MONOISOTOPIC_WEIGHT>
423.22570239
> <PUBCHEM_TOTAL_CHARGE>
0
> <PUBCHEM_HEAVY_ATOM_COUNT>
30
> <PUBCHEM_ATOM_DEF_STEREO_COUNT>
4
> <PUBCHEM_ATOM_UDEF_STEREO_COUNT>
2
> <PUBCHEM_BOND_DEF_STEREO_COUNT>
0
> <PUBCHEM_BOND_UDEF_STEREO_COUNT>
0
> <PUBCHEM_ISOTOPIC_ATOM_COUNT>
0
> <PUBCHEM_COMPONENT_COUNT>
1
> <PUBCHEM_CACTVS_TAUTO_COUNT>
-1
> <PUBCHEM_COORDINATE_TYPE>
1
5
255
> <PUBCHEM_BONDANNOTATIONS>
10  32  5
11  33  6
12  16  3
13  35  6
25  26  8
25  27  8
26  28  8
27  29  8
28  30  8
29  30  8
22  7  3
9  31  5
$$$$
