516657
  -OEChem-10302200282D
 60 63  0     1  0  0  0  0  0999 V2000
    5.4141   -3.7065    0.0000 O   0  0  0  0  0  0  0  0  0  0  0  0
    6.8079   -2.9018    0.0000 O   0  0  0  0  0  0  0  0  0  0  0  0
    5.2049   -0.7347    0.0000 O   0  0  0  0  0  0  0  0  0  0  0  0
    3.3926   -2.5395    0.0000 O   0  0  0  0  0  0  0  0  0  0  0  0
    3.3926   -0.9300    0.0000 O   0  0  0  0  0  0  0  0  0  0  0  0
    6.9369    0.2653    0.0000 O   0  0  0  0  0  0  0  0  0  0  0  0
    6.9369    2.2653    0.0000 O   0  0  0  0  0  0  0  0  0  0  0  0
    8.6690    3.2653    0.0000 N   0  0  0  0  0  0  0  0  0  0  0  0
    5.2049   -2.7347    0.0000 C   0  0  1  0  0  0  0  0  0  0  0  0
    6.0709   -2.2347    0.0000 C   0  0  2  0  0  0  0  0  0  0  0  0
    4.3388   -2.2347    0.0000 C   0  0  2  0  0  0  0  0  0  0  0  0
    6.0709   -1.2347    0.0000 C   0  0  3  0  0  0  0  0  0  0  0  0
    4.3388   -1.2347    0.0000 C   0  0  2  0  0  0  0  0  0  0  0  0
    6.4028   -3.8096    0.0000 C   0  0  0  0  0  0  0  0  0  0  0  0
    2.8090   -1.7347    0.0000 C   0  0  0  0  0  0  0  0  0  0  0  0
    6.9369   -0.7347    0.0000 C   0  0  0  0  0  0  0  0  0  0  0  0
    7.3163   -4.2163    0.0000 C   0  0  0  0  0  0  0  0  0  0  0  0
    6.2983   -4.8041    0.0000 C   0  0  0  0  0  0  0  0  0  0  0  0
    2.0000   -1.1469    0.0000 C   0  0  0  0  0  0  0  0  0  0  0  0
    2.0000   -2.3225    0.0000 C   0  0  0  0  0  0  0  0  0  0  0  0
    7.8030    0.7653    0.0000 C   0  0  0  0  0  0  0  0  0  0  0  0
    7.8030    1.7653    0.0000 C   0  0  3  0  0  0  0  0  0  0  0  0
    8.6690    2.2653    0.0000 C   0  0  0  0  0  0  0  0  0  0  0  0
    9.4780    3.8531    0.0000 C   0  0  0  0  0  0  0  0  0  0  0  0
    7.8600    3.8531    0.0000 C   0  0  0  0  0  0  0  0  0  0  0  0
    9.1690    4.8041    0.0000 C   0  0  0  0  0  0  0  0  0  0  0  0
    8.1690    4.8041    0.0000 C   0  0  0  0  0  0  0  0  0  0  0  0
    4.5179   -3.2352    0.0000 H   0  0  0  0  0  0  0  0  0  0  0  0
    6.8479   -1.8900    0.0000 H   0  0  0  0  0  0  0  0  0  0  0  0
    4.2489   -3.0800    0.0000 H   0  0  0  0  0  0  0  0  0  0  0  0
    6.0709   -0.6147    0.0000 H   0  0  0  0  0  0  0  0  0  0  0  0
    4.2489   -0.3895    0.0000 H   0  0  0  0  0  0  0  0  0  0  0  0
    7.1490   -1.3173    0.0000 H   0  0  0  0  0  0  0  0  0  0  0  0
    7.5475   -0.6271    0.0000 H   0  0  0  0  0  0  0  0  0  0  0  0
    7.0642   -4.7827    0.0000 H   0  0  0  0  0  0  0  0  0  0  0  0
    7.8827   -4.4685    0.0000 H   0  0  0  0  0  0  0  0  0  0  0  0
    7.5685   -3.6499    0.0000 H   0  0  0  0  0  0  0  0  0  0  0  0
    5.6817   -4.7393    0.0000 H   0  0  0  0  0  0  0  0  0  0  0  0
    6.2335   -5.4207    0.0000 H   0  0  0  0  0  0  0  0  0  0  0  0
    6.9149   -4.8689    0.0000 H   0  0  0  0  0  0  0  0  0  0  0  0
    2.3644   -0.6453    0.0000 H   0  0  0  0  0  0  0  0  0  0  0  0
    1.4984   -0.7825    0.0000 H   0  0  0  0  0  0  0  0  0  0  0  0
    1.6356   -1.6485    0.0000 H   0  0  0  0  0  0  0  0  0  0  0  0
    1.6356   -1.8209    0.0000 H   0  0  0  0  0  0  0  0  0  0  0  0
    1.4984   -2.6869    0.0000 H   0  0  0  0  0  0  0  0  0  0  0  0
    2.3644   -2.8241    0.0000 H   0  0  0  0  0  0  0  0  0  0  0  0
    8.0150    0.1827    0.0000 H   0  0  0  0  0  0  0  0  0  0  0  0
    8.4135    0.8729    0.0000 H   0  0  0  0  0  0  0  0  0  0  0  0
    7.2660    1.4553    0.0000 H   0  0  0  0  0  0  0  0  0  0  0  0
    8.8810    1.6827    0.0000 H   0  0  0  0  0  0  0  0  0  0  0  0
    9.2796    2.3729    0.0000 H   0  0  0  0  0  0  0  0  0  0  0  0
    9.7880    3.3161    0.0000 H   0  0  0  0  0  0  0  0  0  0  0  0
   10.0444    4.1052    0.0000 H   0  0  0  0  0  0  0  0  0  0  0  0
    7.2936    4.1052    0.0000 H   0  0  0  0  0  0  0  0  0  0  0  0
    7.5500    3.3161    0.0000 H   0  0  0  0  0  0  0  0  0  0  0  0
    9.7754    4.9330    0.0000 H   0  0  0  0  0  0  0  0  0  0  0  0
    9.1042    5.4207    0.0000 H   0  0  0  0  0  0  0  0  0  0  0  0
    8.2338    5.4207    0.0000 H   0  0  0  0  0  0  0  0  0  0  0  0
    7.5625    4.9330    0.0000 H   0  0  0  0  0  0  0  0  0  0  0  0
    6.4000    1.9553    0.0000 H   0  0  0  0  0  0  0  0  0  0  0  0
  1  9  1  0  0  0  0
  1 14  1  0  0  0  0
  2 10  1  0  0  0  0
  2 14  1  0  0  0  0
  3 12  1  0  0  0  0
  3 13  1  0  0  0  0
  4 11  1  0  0  0  0
  4 15  1  0  0  0  0
  5 13  1  0  0  0  0
  5 15  1  0  0  0  0
  6 16  1  0  0  0  0
  6 21  1  0  0  0  0
  7 22  1  0  0  0  0
  7 60  1  0  0  0  0
  8 23  1  0  0  0  0
  8 24  1  0  0  0  0
  8 25  1  0  0  0  0
  9 10  1  0  0  0  0
  9 11  1  0  0  0  0
  9 28  1  1  0  0  0
 10 12  1  0  0  0  0
 10 29  1  1  0  0  0
 11 13  1  0  0  0  0
 11 30  1  6  0  0  0
 12 16  1  0  0  0  0
 12 31  1  0  0  0  0
 13 32  1  6  0  0  0
 14 17  1  0  0  0  0
 14 18  1  0  0  0  0
 15 19  1  0  0  0  0
 15 20  1  0  0  0  0
 16 33  1  0  0  0  0
 16 34  1  0  0  0  0
 17 35  1  0  0  0  0
 17 36  1  0  0  0  0
 17 37  1  0  0  0  0
 18 38  1  0  0  0  0
 18 39  1  0  0  0  0
 18 40  1  0  0  0  0
 19 41  1  0  0  0  0
 19 42  1  0  0  0  0
 19 43  1  0  0  0  0
 20 44  1  0  0  0  0
 20 45  1  0  0  0  0
 20 46  1  0  0  0  0
 21 22  1  0  0  0  0
 21 47  1  0  0  0  0
 21 48  1  0  0  0  0
 22 23  1  0  0  0  0
 22 49  1  0  0  0  0
 23 50  1  0  0  0  0
 23 51  1  0  0  0  0
 24 26  1  0  0  0  0
 24 52  1  0  0  0  0
 24 53  1  0  0  0  0
 25 27  1  0  0  0  0
 25 54  1  0  0  0  0
 25 55  1  0  0  0  0
 26 27  1  0  0  0  0
 26 56  1  0  0  0  0
 26 57  1  0  0  0  0
 27 58  1  0  0  0  0
 27 59  1  0  0  0  0
M  END
> <PUBCHEM_COMPOUND_CID>
516657
> <PUBCHEM_COMPOUND_CANONICALIZED>
1
> <PUBCHEM_CACTVS_COMPLEXITY>
522
> <PUBCHEM_CACTVS_HBOND_ACCEPTOR>
8
> <PUBCHEM_CACTVS_HBOND_DONOR>
1
> <PUBCHEM_CACTVS_ROTATABLE_BOND>
6
> <PUBCHEM_CACTVS_SUBSKEYS>
AAADcfB6OAAAAAAAAAAAAAAAAAAAAWJEgAAkAAAAAAAAAEgAAAAAHgAACAAACBTxgAcCCAMABgAAAAAAAAAAAAAAAAAAAAAIAAATEAIAgAAmAAAHAACXAAHAYAwAAAAAAAAAAAAAAAAAAAAAAAAAAAAAAA==
> <PUBCHEM_IUPAC_OPENEYE_NAME>
1-pyrrolidin-1-yl-3-[[(1S,2R,6R,9S)-4,4,11,11-tetramethyl-3,5,7,10,12-pentaoxatricyclo[7.3.0.02,6]dodecan-8-yl]methoxy]propan-2-ol
> <PUBCHEM_IUPAC_CAS_NAME>
1-(1-pyrrolidinyl)-3-[[(1S,2R,6R,9S)-4,4,11,11-tetramethyl-3,5,7,10,12-pentaoxatricyclo[7.3.0.02,6]dodecan-8-yl]methoxy]-2-propanol
> <PUBCHEM_IUPAC_NAME_MARKUP>
1-pyrrolidin-1-yl-3-[[(1<I>S</I>,2<I>R</I>,6<I>R</I>,9<I>S</I>)-4,4,11,11-tetramethyl-3,5,7,10,12-pentaoxatricyclo[7.3.0.0<SUP>2,6</SUP>]dodecan-8-yl]methoxy]propan-2-ol
> <PUBCHEM_IUPAC_NAME>
1-pyrrolidin-1-yl-3-[[(1S,2R,6R,9S)-4,4,11,11-tetramethyl-3,5,7,10,12-pentaoxatricyclo[7.3.0.02,6]dodecan-8-yl]methoxy]propan-2-ol
> <PUBCHEM_IUPAC_SYSTEMATIC_NAME>
1-pyrrolidin-1-yl-3-[[(1S,2R,6R,9S)-4,4,11,11-tetramethyl-3,5,7,10,12-pentaoxatricyclo[7.3.0.02,6]dodecan-8-yl]methoxy]propan-2-ol
> <PUBCHEM_IUPAC_TRADITIONAL_NAME>
1-pyrrolidino-3-[[(1S,2R,6R,9S)-4,4,11,11-tetramethyl-3,5,7,10,12-pentaoxatricyclo[7.3.0.02,6]dodecan-8-yl]methoxy]propan-2-ol
> <PUBCHEM_IUPAC_INCHI>
InChI=1S/C19H33NO7/c1-18(2)24-14-13(11-22-10-12(21)9-20-7-5-6-8-20)23-17-16(15(14)25-18)26-19(3,4)27-17/h12-17,21H,5-11H2,1-4H3/t12?,13?,14-,15-,16+,17+/m0/s1
> <PUBCHEM_IUPAC_INCHIKEY>
VBQPGZKCLGMWGO-NKSCKVGQSA-N
> <PUBCHEM_XLOGP3_AA>
0.4
> <PUBCHEM_EXACT_MASS>
387.22570239
> <PUBCHEM_MOLECULAR_FORMULA>
C19H33NO7
> <PUBCHEM_MOLECULAR_WEIGHT>
387.5
> <PUBCHEM_OPENEYE_CAN_SMILES>
CC1(OC2C(OC3C(C2O1)OC(O3)(C)C)COCC(CN4CCCC4)O)C
> <PUBCHEM_OPENEYE_ISO_SMILES>
CC1(O[C@@H]2[C@@H]3[C@H](OC([C@@H]2O1)COCC(CN4CCCC4)O)OC(O3)(C)C)C
> <PUBCHEM_CACTVS_TPSA>
78.8
> <PUBCHEM_MONOISOTOPIC_WEIGHT>
387.22570239
> <PUBCHEM_TOTAL_CHARGE>
0
> <PUBCHEM_HEAVY_ATOM_COUNT>
27
> <PUBCHEM_ATOM_DEF_STEREO_COUNT>
4
> <PUBCHEM_ATOM_UDEF_STEREO_COUNT>
2
> <PUBCHEM_BOND_DEF_STEREO_COUNT>
0
> <PUBCHEM_BOND_UDEF_STEREO_COUNT>
0
> <PUBCHEM_ISOTOPIC_ATOM_COUNT>
0
> <PUBCHEM_COMPONENT_COUNT>
1
> <PUBCHEM_CACTVS_TAUTO_COUNT>
-1
> <PUBCHEM_COORDINATE_TYPE>
1
5
255
> <PUBCHEM_BONDANNOTATIONS>
10  29  5
11  30  6
12  16  3
13  32  6
22  7  3
9  28  5
$$$$
