516647
  -OEChem-10302200282D
 45 48  0     1  0  0  0  0  0999 V2000
    5.1724   -4.2694    0.0000 F   0  0  0  0  0  0  0  0  0  0  0  0
    6.4814    0.6816    0.0000 O   0  0  0  0  0  0  0  0  0  0  0  0
    6.1724   -0.2694    0.0000 N   0  0  3  0  0  0  0  0  0  0  0  0
    3.4782    0.0907    0.0000 N   0  0  0  0  0  0  0  0  0  0  0  0
    2.6691    1.4920    0.0000 N   0  0  0  0  0  0  0  0  0  0  0  0
    5.1724   -0.2694    0.0000 C   0  0  2  0  0  0  0  0  0  0  0  0
    4.8633    0.6816    0.0000 C   0  0  0  0  0  0  0  0  0  0  0  0
    5.6724    1.2694    0.0000 C   0  0  1  0  0  0  0  0  0  0  0  0
    4.2213   -0.5784    0.0000 C   0  0  0  0  0  0  0  0  0  0  0  0
    5.1724   -1.2694    0.0000 C   0  0  0  0  0  0  0  0  0  0  0  0
    5.6724    2.2694    0.0000 C   0  0  0  0  0  0  0  0  0  0  0  0
    6.7601   -1.0784    0.0000 C   0  0  0  0  0  0  0  0  0  0  0  0
    4.3063   -1.7694    0.0000 C   0  0  0  0  0  0  0  0  0  0  0  0
    6.0384   -1.7694    0.0000 C   0  0  0  0  0  0  0  0  0  0  0  0
    4.8063    2.7694    0.0000 C   0  0  0  0  0  0  0  0  0  0  0  0
    6.5384    2.7694    0.0000 C   0  0  0  0  0  0  0  0  0  0  0  0
    2.5000   -0.1172    0.0000 C   0  0  0  0  0  0  0  0  0  0  0  0
    3.5827    1.0852    0.0000 C   0  0  0  0  0  0  0  0  0  0  0  0
    4.3063   -2.7694    0.0000 C   0  0  0  0  0  0  0  0  0  0  0  0
    6.0384   -2.7694    0.0000 C   0  0  0  0  0  0  0  0  0  0  0  0
    5.1724   -3.2694    0.0000 C   0  0  0  0  0  0  0  0  0  0  0  0
    4.8063    3.7694    0.0000 C   0  0  0  0  0  0  0  0  0  0  0  0
    6.5384    3.7694    0.0000 C   0  0  0  0  0  0  0  0  0  0  0  0
    2.0000    0.7488    0.0000 C   0  0  0  0  0  0  0  0  0  0  0  0
    5.6724    4.2694    0.0000 C   0  0  0  0  0  0  0  0  0  0  0  0
    4.5533    1.2186    0.0000 H   0  0  0  0  0  0  0  0  0  0  0  0
    4.2969    0.4295    0.0000 H   0  0  0  0  0  0  0  0  0  0  0  0
    6.2248    1.5509    0.0000 H   0  0  0  0  0  0  0  0  0  0  0  0
    3.7327   -0.9601    0.0000 H   0  0  0  0  0  0  0  0  0  0  0  0
    4.5124   -1.1259    0.0000 H   0  0  0  0  0  0  0  0  0  0  0  0
    6.2585   -1.4429    0.0000 H   0  0  0  0  0  0  0  0  0  0  0  0
    7.1246   -1.5800    0.0000 H   0  0  0  0  0  0  0  0  0  0  0  0
    7.2617   -0.7140    0.0000 H   0  0  0  0  0  0  0  0  0  0  0  0
    3.7694   -1.4594    0.0000 H   0  0  0  0  0  0  0  0  0  0  0  0
    6.5753   -1.4594    0.0000 H   0  0  0  0  0  0  0  0  0  0  0  0
    4.2694    2.4594    0.0000 H   0  0  0  0  0  0  0  0  0  0  0  0
    7.0753    2.4594    0.0000 H   0  0  0  0  0  0  0  0  0  0  0  0
    2.2478   -0.6836    0.0000 H   0  0  0  0  0  0  0  0  0  0  0  0
    4.1196    1.3952    0.0000 H   0  0  0  0  0  0  0  0  0  0  0  0
    3.7694   -3.0794    0.0000 H   0  0  0  0  0  0  0  0  0  0  0  0
    6.5753   -3.0794    0.0000 H   0  0  0  0  0  0  0  0  0  0  0  0
    4.2694    4.0794    0.0000 H   0  0  0  0  0  0  0  0  0  0  0  0
    7.0753    4.0794    0.0000 H   0  0  0  0  0  0  0  0  0  0  0  0
    1.3834    0.8136    0.0000 H   0  0  0  0  0  0  0  0  0  0  0  0
    5.6724    4.8894    0.0000 H   0  0  0  0  0  0  0  0  0  0  0  0
  1 21  1  0  0  0  0
  2  3  1  0  0  0  0
  2  8  1  0  0  0  0
  3  6  1  0  0  0  0
  3 12  1  0  0  0  0
  4  9  1  0  0  0  0
  4 17  1  0  0  0  0
  4 18  1  0  0  0  0
  5 18  2  0  0  0  0
  5 24  1  0  0  0  0
  6  7  1  0  0  0  0
  6  9  1  1  0  0  0
  6 10  1  0  0  0  0
  7  8  1  0  0  0  0
  7 26  1  0  0  0  0
  7 27  1  0  0  0  0
  8 11  1  1  0  0  0
  8 28  1  0  0  0  0
  9 29  1  0  0  0  0
  9 30  1  0  0  0  0
 10 13  2  0  0  0  0
 10 14  1  0  0  0  0
 11 15  2  0  0  0  0
 11 16  1  0  0  0  0
 12 31  1  0  0  0  0
 12 32  1  0  0  0  0
 12 33  1  0  0  0  0
 13 19  1  0  0  0  0
 13 34  1  0  0  0  0
 14 20  2  0  0  0  0
 14 35  1  0  0  0  0
 15 22  1  0  0  0  0
 15 36  1  0  0  0  0
 16 23  2  0  0  0  0
 16 37  1  0  0  0  0
 17 24  2  0  0  0  0
 17 38  1  0  0  0  0
 18 39  1  0  0  0  0
 19 21  2  0  0  0  0
 19 40  1  0  0  0  0
 20 21  1  0  0  0  0
 20 41  1  0  0  0  0
 22 25  2  0  0  0  0
 22 42  1  0  0  0  0
 23 25  1  0  0  0  0
 23 43  1  0  0  0  0
 24 44  1  0  0  0  0
 25 45  1  0  0  0  0
M  END
> <PUBCHEM_COMPOUND_CID>
516647
> <PUBCHEM_COMPOUND_CANONICALIZED>
1
> <PUBCHEM_CACTVS_COMPLEXITY>
437
> <PUBCHEM_CACTVS_HBOND_ACCEPTOR>
4
> <PUBCHEM_CACTVS_HBOND_DONOR>
0
> <PUBCHEM_CACTVS_ROTATABLE_BOND>
4
> <PUBCHEM_CACTVS_SUBSKEYS>
AAADceB7IQAAAAAAAAAAAAAAAAAAAWLAAAAwYAAAAAAAAAAB0AAAHwAEAAAADJzhmg4/kJccEACgAjBnZACCgC0xEqApyAAYPIiIbiKAmRGUMAhuwAOIiCewwOAOgAAAAAAAAAAAAAAAAAAAAAAAAAAAAA==
> <PUBCHEM_IUPAC_OPENEYE_NAME>
(3S,5S)-3-(4-fluorophenyl)-3-(imidazol-1-ylmethyl)-2-methyl-5-phenyl-isoxazolidine
> <PUBCHEM_IUPAC_CAS_NAME>
(3S,5S)-3-(4-fluorophenyl)-3-(1-imidazolylmethyl)-2-methyl-5-phenylisoxazolidine
> <PUBCHEM_IUPAC_NAME_MARKUP>
(3<I>S</I>,5<I>S</I>)-3-(4-fluorophenyl)-3-(imidazol-1-ylmethyl)-2-methyl-5-phenyl-1,2-oxazolidine
> <PUBCHEM_IUPAC_NAME>
(3S,5S)-3-(4-fluorophenyl)-3-(imidazol-1-ylmethyl)-2-methyl-5-phenyl-1,2-oxazolidine
> <PUBCHEM_IUPAC_SYSTEMATIC_NAME>
(3S,5S)-3-(4-fluorophenyl)-3-(imidazol-1-ylmethyl)-2-methyl-5-phenyl-1,2-oxazolidine
> <PUBCHEM_IUPAC_TRADITIONAL_NAME>
(3S,5S)-3-(4-fluorophenyl)-3-(imidazol-1-ylmethyl)-2-methyl-5-phenyl-isoxazolidine
> <PUBCHEM_IUPAC_INCHI>
InChI=1S/C20H20FN3O/c1-23-20(14-24-12-11-22-15-24,17-7-9-18(21)10-8-17)13-19(25-23)16-5-3-2-4-6-16/h2-12,15,19H,13-14H2,1H3/t19-,20+/m0/s1
> <PUBCHEM_IUPAC_INCHIKEY>
GXXHTTLQSBUPQA-VQTJNVASSA-N
> <PUBCHEM_XLOGP3_AA>
3.1
> <PUBCHEM_EXACT_MASS>
337.15904043
> <PUBCHEM_MOLECULAR_FORMULA>
C20H20FN3O
> <PUBCHEM_MOLECULAR_WEIGHT>
337.4
> <PUBCHEM_OPENEYE_CAN_SMILES>
CN1C(CC(O1)C2=CC=CC=C2)(CN3C=CN=C3)C4=CC=C(C=C4)F
> <PUBCHEM_OPENEYE_ISO_SMILES>
CN1[C@](C[C@H](O1)C2=CC=CC=C2)(CN3C=CN=C3)C4=CC=C(C=C4)F
> <PUBCHEM_CACTVS_TPSA>
30.3
> <PUBCHEM_MONOISOTOPIC_WEIGHT>
337.15904043
> <PUBCHEM_TOTAL_CHARGE>
0
> <PUBCHEM_HEAVY_ATOM_COUNT>
25
> <PUBCHEM_ATOM_DEF_STEREO_COUNT>
2
> <PUBCHEM_ATOM_UDEF_STEREO_COUNT>
0
> <PUBCHEM_BOND_DEF_STEREO_COUNT>
0
> <PUBCHEM_BOND_UDEF_STEREO_COUNT>
0
> <PUBCHEM_ISOTOPIC_ATOM_COUNT>
0
> <PUBCHEM_COMPONENT_COUNT>
1
> <PUBCHEM_CACTVS_TAUTO_COUNT>
1
> <PUBCHEM_COORDINATE_TYPE>
1
5
255
> <PUBCHEM_BONDANNOTATIONS>
10  13  8
10  14  8
11  15  8
11  16  8
13  19  8
14  20  8
15  22  8
16  23  8
17  24  8
19  21  8
20  21  8
22  25  8
23  25  8
4  17  8
4  18  8
5  18  8
5  24  8
6  9  5
8  11  5
$$$$
