516650
  -OEChem-10302200282D
 48 51  0     1  0  0  0  0  0999 V2000
    5.1724   -4.7694    0.0000 Cl  0  0  0  0  0  0  0  0  0  0  0  0
    6.4814    0.1816    0.0000 O   0  0  0  0  0  0  0  0  0  0  0  0
    6.1724   -0.7694    0.0000 N   0  0  3  0  0  0  0  0  0  0  0  0
    3.4782   -0.4093    0.0000 N   0  0  0  0  0  0  0  0  0  0  0  0
    2.6691    0.9920    0.0000 N   0  0  0  0  0  0  0  0  0  0  0  0
    5.1724   -0.7694    0.0000 C   0  0  2  0  0  0  0  0  0  0  0  0
    4.8633    0.1816    0.0000 C   0  0  0  0  0  0  0  0  0  0  0  0
    5.6724    0.7694    0.0000 C   0  0  2  0  0  0  0  0  0  0  0  0
    4.2213   -1.0784    0.0000 C   0  0  0  0  0  0  0  0  0  0  0  0
    5.1724   -1.7694    0.0000 C   0  0  0  0  0  0  0  0  0  0  0  0
    5.6724    1.7694    0.0000 C   0  0  0  0  0  0  0  0  0  0  0  0
    6.7601   -1.5784    0.0000 C   0  0  0  0  0  0  0  0  0  0  0  0
    4.3063   -2.2694    0.0000 C   0  0  0  0  0  0  0  0  0  0  0  0
    6.0384   -2.2694    0.0000 C   0  0  0  0  0  0  0  0  0  0  0  0
    4.8063    2.2694    0.0000 C   0  0  0  0  0  0  0  0  0  0  0  0
    6.5384    2.2694    0.0000 C   0  0  0  0  0  0  0  0  0  0  0  0
    2.5000   -0.6172    0.0000 C   0  0  0  0  0  0  0  0  0  0  0  0
    3.5827    0.5852    0.0000 C   0  0  0  0  0  0  0  0  0  0  0  0
    4.3063   -3.2694    0.0000 C   0  0  0  0  0  0  0  0  0  0  0  0
    6.0384   -3.2694    0.0000 C   0  0  0  0  0  0  0  0  0  0  0  0
    5.1724   -3.7694    0.0000 C   0  0  0  0  0  0  0  0  0  0  0  0
    4.8063    3.2694    0.0000 C   0  0  0  0  0  0  0  0  0  0  0  0
    6.5384    3.2694    0.0000 C   0  0  0  0  0  0  0  0  0  0  0  0
    5.6724    3.7694    0.0000 C   0  0  0  0  0  0  0  0  0  0  0  0
    2.0000    0.2488    0.0000 C   0  0  0  0  0  0  0  0  0  0  0  0
    5.6724    4.7694    0.0000 C   0  0  0  0  0  0  0  0  0  0  0  0
    4.5533    0.7186    0.0000 H   0  0  0  0  0  0  0  0  0  0  0  0
    4.2969   -0.0705    0.0000 H   0  0  0  0  0  0  0  0  0  0  0  0
    6.2248    1.0509    0.0000 H   0  0  0  0  0  0  0  0  0  0  0  0
    3.7327   -1.4602    0.0000 H   0  0  0  0  0  0  0  0  0  0  0  0
    4.5124   -1.6259    0.0000 H   0  0  0  0  0  0  0  0  0  0  0  0
    6.2585   -1.9429    0.0000 H   0  0  0  0  0  0  0  0  0  0  0  0
    7.1246   -2.0800    0.0000 H   0  0  0  0  0  0  0  0  0  0  0  0
    7.2617   -1.2140    0.0000 H   0  0  0  0  0  0  0  0  0  0  0  0
    3.7694   -1.9594    0.0000 H   0  0  0  0  0  0  0  0  0  0  0  0
    6.5753   -1.9594    0.0000 H   0  0  0  0  0  0  0  0  0  0  0  0
    4.2694    1.9594    0.0000 H   0  0  0  0  0  0  0  0  0  0  0  0
    7.0753    1.9594    0.0000 H   0  0  0  0  0  0  0  0  0  0  0  0
    2.2478   -1.1836    0.0000 H   0  0  0  0  0  0  0  0  0  0  0  0
    4.1196    0.8952    0.0000 H   0  0  0  0  0  0  0  0  0  0  0  0
    3.7694   -3.5794    0.0000 H   0  0  0  0  0  0  0  0  0  0  0  0
    6.5753   -3.5794    0.0000 H   0  0  0  0  0  0  0  0  0  0  0  0
    4.2694    3.5794    0.0000 H   0  0  0  0  0  0  0  0  0  0  0  0
    7.0753    3.5794    0.0000 H   0  0  0  0  0  0  0  0  0  0  0  0
    1.3834    0.3136    0.0000 H   0  0  0  0  0  0  0  0  0  0  0  0
    6.2924    4.7694    0.0000 H   0  0  0  0  0  0  0  0  0  0  0  0
    5.6724    5.3894    0.0000 H   0  0  0  0  0  0  0  0  0  0  0  0
    5.0524    4.7694    0.0000 H   0  0  0  0  0  0  0  0  0  0  0  0
  1 21  1  0  0  0  0
  2  3  1  0  0  0  0
  2  8  1  0  0  0  0
  3  6  1  0  0  0  0
  3 12  1  0  0  0  0
  4  9  1  0  0  0  0
  4 17  1  0  0  0  0
  4 18  1  0  0  0  0
  5 18  2  0  0  0  0
  5 25  1  0  0  0  0
  6  7  1  0  0  0  0
  6  9  1  1  0  0  0
  6 10  1  0  0  0  0
  7  8  1  0  0  0  0
  7 27  1  0  0  0  0
  7 28  1  0  0  0  0
  8 11  1  6  0  0  0
  8 29  1  0  0  0  0
  9 30  1  0  0  0  0
  9 31  1  0  0  0  0
 10 13  2  0  0  0  0
 10 14  1  0  0  0  0
 11 15  2  0  0  0  0
 11 16  1  0  0  0  0
 12 32  1  0  0  0  0
 12 33  1  0  0  0  0
 12 34  1  0  0  0  0
 13 19  1  0  0  0  0
 13 35  1  0  0  0  0
 14 20  2  0  0  0  0
 14 36  1  0  0  0  0
 15 22  1  0  0  0  0
 15 37  1  0  0  0  0
 16 23  2  0  0  0  0
 16 38  1  0  0  0  0
 17 25  2  0  0  0  0
 17 39  1  0  0  0  0
 18 40  1  0  0  0  0
 19 21  2  0  0  0  0
 19 41  1  0  0  0  0
 20 21  1  0  0  0  0
 20 42  1  0  0  0  0
 22 24  2  0  0  0  0
 22 43  1  0  0  0  0
 23 24  1  0  0  0  0
 23 44  1  0  0  0  0
 24 26  1  0  0  0  0
 25 45  1  0  0  0  0
 26 46  1  0  0  0  0
 26 47  1  0  0  0  0
 26 48  1  0  0  0  0
M  END
> <PUBCHEM_COMPOUND_CID>
516650
> <PUBCHEM_COMPOUND_CANONICALIZED>
1
> <PUBCHEM_CACTVS_COMPLEXITY>
462
> <PUBCHEM_CACTVS_HBOND_ACCEPTOR>
3
> <PUBCHEM_CACTVS_HBOND_DONOR>
0
> <PUBCHEM_CACTVS_ROTATABLE_BOND>
4
> <PUBCHEM_CACTVS_SUBSKEYS>
AAADceB7IAAEAAAAAAAAAAAAAAAAAWLAAAAwYAAAAAAAAAAB0AAAHgIEAAAADJ7hmiY/kJccEACgAjBnZACCgC0xF6ApyAAYPoiIbiKBmxGUMAhuwAOIiCewwPAOxAAAAAAAAACIAAAAAAAAAAAAAAAAAA==
> <PUBCHEM_IUPAC_OPENEYE_NAME>
(3S,5R)-3-(4-chlorophenyl)-3-(imidazol-1-ylmethyl)-2-methyl-5-(p-tolyl)isoxazolidine
> <PUBCHEM_IUPAC_CAS_NAME>
(3S,5R)-3-(4-chlorophenyl)-3-(1-imidazolylmethyl)-2-methyl-5-(4-methylphenyl)isoxazolidine
> <PUBCHEM_IUPAC_NAME_MARKUP>
(3<I>S</I>,5<I>R</I>)-3-(4-chlorophenyl)-3-(imidazol-1-ylmethyl)-2-methyl-5-(4-methylphenyl)-1,2-oxazolidine
> <PUBCHEM_IUPAC_NAME>
(3S,5R)-3-(4-chlorophenyl)-3-(imidazol-1-ylmethyl)-2-methyl-5-(4-methylphenyl)-1,2-oxazolidine
> <PUBCHEM_IUPAC_SYSTEMATIC_NAME>
(3S,5R)-3-(4-chlorophenyl)-3-(imidazol-1-ylmethyl)-2-methyl-5-(4-methylphenyl)-1,2-oxazolidine
> <PUBCHEM_IUPAC_TRADITIONAL_NAME>
(3S,5R)-3-(4-chlorophenyl)-3-(imidazol-1-ylmethyl)-2-methyl-5-(p-tolyl)isoxazolidine
> <PUBCHEM_IUPAC_INCHI>
InChI=1S/C21H22ClN3O/c1-16-3-5-17(6-4-16)20-13-21(24(2)26-20,14-25-12-11-23-15-25)18-7-9-19(22)10-8-18/h3-12,15,20H,13-14H2,1-2H3/t20-,21-/m1/s1
> <PUBCHEM_IUPAC_INCHIKEY>
PVSGWGTXWGYMKX-NHCUHLMSSA-N
> <PUBCHEM_XLOGP3_AA>
4
> <PUBCHEM_EXACT_MASS>
367.1451400
> <PUBCHEM_MOLECULAR_FORMULA>
C21H22ClN3O
> <PUBCHEM_MOLECULAR_WEIGHT>
367.9
> <PUBCHEM_OPENEYE_CAN_SMILES>
CC1=CC=C(C=C1)C2CC(N(O2)C)(CN3C=CN=C3)C4=CC=C(C=C4)Cl
> <PUBCHEM_OPENEYE_ISO_SMILES>
CC1=CC=C(C=C1)[C@H]2C[C@@](N(O2)C)(CN3C=CN=C3)C4=CC=C(C=C4)Cl
> <PUBCHEM_CACTVS_TPSA>
30.3
> <PUBCHEM_MONOISOTOPIC_WEIGHT>
367.1451400
> <PUBCHEM_TOTAL_CHARGE>
0
> <PUBCHEM_HEAVY_ATOM_COUNT>
26
> <PUBCHEM_ATOM_DEF_STEREO_COUNT>
2
> <PUBCHEM_ATOM_UDEF_STEREO_COUNT>
0
> <PUBCHEM_BOND_DEF_STEREO_COUNT>
0
> <PUBCHEM_BOND_UDEF_STEREO_COUNT>
0
> <PUBCHEM_ISOTOPIC_ATOM_COUNT>
0
> <PUBCHEM_COMPONENT_COUNT>
1
> <PUBCHEM_CACTVS_TAUTO_COUNT>
1
> <PUBCHEM_COORDINATE_TYPE>
1
5
255
> <PUBCHEM_BONDANNOTATIONS>
10  13  8
10  14  8
11  15  8
11  16  8
13  19  8
14  20  8
15  22  8
16  23  8
17  25  8
19  21  8
20  21  8
22  24  8
23  24  8
4  17  8
4  18  8
5  18  8
5  25  8
6  9  5
8  11  6
$$$$
