516648
  -OEChem-10302200282D
 53 56  0     1  0  0  0  0  0999 V2000
    6.4814    0.1816    0.0000 O   0  0  0  0  0  0  0  0  0  0  0  0
    5.1724   -4.7694    0.0000 O   0  0  0  0  0  0  0  0  0  0  0  0
    5.6724    4.7694    0.0000 O   0  0  0  0  0  0  0  0  0  0  0  0
    6.1724   -0.7694    0.0000 N   0  0  3  0  0  0  0  0  0  0  0  0
    3.4782   -0.4093    0.0000 N   0  0  0  0  0  0  0  0  0  0  0  0
    2.6691    0.9920    0.0000 N   0  0  0  0  0  0  0  0  0  0  0  0
    5.1724   -0.7694    0.0000 C   0  0  2  0  0  0  0  0  0  0  0  0
    4.8633    0.1816    0.0000 C   0  0  0  0  0  0  0  0  0  0  0  0
    5.6724    0.7694    0.0000 C   0  0  1  0  0  0  0  0  0  0  0  0
    4.2213   -1.0784    0.0000 C   0  0  0  0  0  0  0  0  0  0  0  0
    5.1724   -1.7694    0.0000 C   0  0  0  0  0  0  0  0  0  0  0  0
    5.6724    1.7694    0.0000 C   0  0  0  0  0  0  0  0  0  0  0  0
    6.7601   -1.5784    0.0000 C   0  0  0  0  0  0  0  0  0  0  0  0
    6.0384   -2.2694    0.0000 C   0  0  0  0  0  0  0  0  0  0  0  0
    4.3063   -2.2694    0.0000 C   0  0  0  0  0  0  0  0  0  0  0  0
    6.5384    2.2694    0.0000 C   0  0  0  0  0  0  0  0  0  0  0  0
    4.8063    2.2694    0.0000 C   0  0  0  0  0  0  0  0  0  0  0  0
    2.5000   -0.6172    0.0000 C   0  0  0  0  0  0  0  0  0  0  0  0
    3.5827    0.5852    0.0000 C   0  0  0  0  0  0  0  0  0  0  0  0
    6.0384   -3.2694    0.0000 C   0  0  0  0  0  0  0  0  0  0  0  0
    4.3063   -3.2694    0.0000 C   0  0  0  0  0  0  0  0  0  0  0  0
    5.1724   -3.7694    0.0000 C   0  0  0  0  0  0  0  0  0  0  0  0
    6.5384    3.2694    0.0000 C   0  0  0  0  0  0  0  0  0  0  0  0
    4.8063    3.2694    0.0000 C   0  0  0  0  0  0  0  0  0  0  0  0
    2.0000    0.2488    0.0000 C   0  0  0  0  0  0  0  0  0  0  0  0
    5.6724    3.7694    0.0000 C   0  0  0  0  0  0  0  0  0  0  0  0
    6.0384   -5.2694    0.0000 C   0  0  0  0  0  0  0  0  0  0  0  0
    6.5384    5.2694    0.0000 C   0  0  0  0  0  0  0  0  0  0  0  0
    4.5533    0.7186    0.0000 H   0  0  0  0  0  0  0  0  0  0  0  0
    4.2969   -0.0705    0.0000 H   0  0  0  0  0  0  0  0  0  0  0  0
    6.2248    1.0509    0.0000 H   0  0  0  0  0  0  0  0  0  0  0  0
    3.7327   -1.4602    0.0000 H   0  0  0  0  0  0  0  0  0  0  0  0
    4.5124   -1.6259    0.0000 H   0  0  0  0  0  0  0  0  0  0  0  0
    6.2585   -1.9429    0.0000 H   0  0  0  0  0  0  0  0  0  0  0  0
    7.1246   -2.0800    0.0000 H   0  0  0  0  0  0  0  0  0  0  0  0
    7.2617   -1.2140    0.0000 H   0  0  0  0  0  0  0  0  0  0  0  0
    6.5753   -1.9594    0.0000 H   0  0  0  0  0  0  0  0  0  0  0  0
    3.7694   -1.9594    0.0000 H   0  0  0  0  0  0  0  0  0  0  0  0
    7.0753    1.9594    0.0000 H   0  0  0  0  0  0  0  0  0  0  0  0
    4.2694    1.9594    0.0000 H   0  0  0  0  0  0  0  0  0  0  0  0
    2.2478   -1.1836    0.0000 H   0  0  0  0  0  0  0  0  0  0  0  0
    4.1196    0.8952    0.0000 H   0  0  0  0  0  0  0  0  0  0  0  0
    6.5753   -3.5794    0.0000 H   0  0  0  0  0  0  0  0  0  0  0  0
    3.7694   -3.5794    0.0000 H   0  0  0  0  0  0  0  0  0  0  0  0
    7.0753    3.5794    0.0000 H   0  0  0  0  0  0  0  0  0  0  0  0
    4.2694    3.5794    0.0000 H   0  0  0  0  0  0  0  0  0  0  0  0
    1.3834    0.3136    0.0000 H   0  0  0  0  0  0  0  0  0  0  0  0
    5.7284   -5.8064    0.0000 H   0  0  0  0  0  0  0  0  0  0  0  0
    6.5753   -5.5794    0.0000 H   0  0  0  0  0  0  0  0  0  0  0  0
    6.3484   -4.7325    0.0000 H   0  0  0  0  0  0  0  0  0  0  0  0
    6.8484    4.7325    0.0000 H   0  0  0  0  0  0  0  0  0  0  0  0
    7.0753    5.5794    0.0000 H   0  0  0  0  0  0  0  0  0  0  0  0
    6.2284    5.8064    0.0000 H   0  0  0  0  0  0  0  0  0  0  0  0
  1  4  1  0  0  0  0
  1  9  1  0  0  0  0
  2 22  1  0  0  0  0
  2 27  1  0  0  0  0
  3 26  1  0  0  0  0
  3 28  1  0  0  0  0
  4  7  1  0  0  0  0
  4 13  1  0  0  0  0
  5 10  1  0  0  0  0
  5 18  1  0  0  0  0
  5 19  1  0  0  0  0
  6 19  2  0  0  0  0
  6 25  1  0  0  0  0
  7  8  1  0  0  0  0
  7 10  1  1  0  0  0
  7 11  1  0  0  0  0
  8  9  1  0  0  0  0
  8 29  1  0  0  0  0
  8 30  1  0  0  0  0
  9 12  1  1  0  0  0
  9 31  1  0  0  0  0
 10 32  1  0  0  0  0
 10 33  1  0  0  0  0
 11 14  2  0  0  0  0
 11 15  1  0  0  0  0
 12 16  2  0  0  0  0
 12 17  1  0  0  0  0
 13 34  1  0  0  0  0
 13 35  1  0  0  0  0
 13 36  1  0  0  0  0
 14 20  1  0  0  0  0
 14 37  1  0  0  0  0
 15 21  2  0  0  0  0
 15 38  1  0  0  0  0
 16 23  1  0  0  0  0
 16 39  1  0  0  0  0
 17 24  2  0  0  0  0
 17 40  1  0  0  0  0
 18 25  2  0  0  0  0
 18 41  1  0  0  0  0
 19 42  1  0  0  0  0
 20 22  2  0  0  0  0
 20 43  1  0  0  0  0
 21 22  1  0  0  0  0
 21 44  1  0  0  0  0
 23 26  2  0  0  0  0
 23 45  1  0  0  0  0
 24 26  1  0  0  0  0
 24 46  1  0  0  0  0
 25 47  1  0  0  0  0
 27 48  1  0  0  0  0
 27 49  1  0  0  0  0
 27 50  1  0  0  0  0
 28 51  1  0  0  0  0
 28 52  1  0  0  0  0
 28 53  1  0  0  0  0
M  END
> <PUBCHEM_COMPOUND_CID>
516648
> <PUBCHEM_COMPOUND_CANONICALIZED>
1
> <PUBCHEM_CACTVS_COMPLEXITY>
491
> <PUBCHEM_CACTVS_HBOND_ACCEPTOR>
5
> <PUBCHEM_CACTVS_HBOND_DONOR>
0
> <PUBCHEM_CACTVS_ROTATABLE_BOND>
6
> <PUBCHEM_CACTVS_SUBSKEYS>
AAADceB7MAAAAAAAAAAAAAAAAAAAAWLAAAAwYAAAAAAAAAAB0AAAHgAEAAAADJzhmgY/lpccFACgAjBnZACCiC0xMqApyAAePIiMbiKEuRuUMChuwBOIqCew8P8OoAAAAAAAAABAAAAAAAAAAAAAAAAAAA==
> <PUBCHEM_IUPAC_OPENEYE_NAME>
(3S,5S)-3-(imidazol-1-ylmethyl)-3,5-bis(4-methoxyphenyl)-2-methyl-isoxazolidine
> <PUBCHEM_IUPAC_CAS_NAME>
(3S,5S)-3-(1-imidazolylmethyl)-3,5-bis(4-methoxyphenyl)-2-methylisoxazolidine
> <PUBCHEM_IUPAC_NAME_MARKUP>
(3<I>S</I>,5<I>S</I>)-3-(imidazol-1-ylmethyl)-3,5-bis(4-methoxyphenyl)-2-methyl-1,2-oxazolidine
> <PUBCHEM_IUPAC_NAME>
(3S,5S)-3-(imidazol-1-ylmethyl)-3,5-bis(4-methoxyphenyl)-2-methyl-1,2-oxazolidine
> <PUBCHEM_IUPAC_SYSTEMATIC_NAME>
(3S,5S)-3-(imidazol-1-ylmethyl)-3,5-bis(4-methoxyphenyl)-2-methyl-1,2-oxazolidine
> <PUBCHEM_IUPAC_TRADITIONAL_NAME>
(3S,5S)-3-(imidazol-1-ylmethyl)-3,5-bis(4-methoxyphenyl)-2-methyl-isoxazolidine
> <PUBCHEM_IUPAC_INCHI>
InChI=1S/C22H25N3O3/c1-24-22(15-25-13-12-23-16-25,18-6-10-20(27-3)11-7-18)14-21(28-24)17-4-8-19(26-2)9-5-17/h4-13,16,21H,14-15H2,1-3H3/t21-,22+/m0/s1
> <PUBCHEM_IUPAC_INCHIKEY>
CNYROMOXLMPVQK-FCHUYYIVSA-N
> <PUBCHEM_XLOGP3_AA>
3
> <PUBCHEM_EXACT_MASS>
379.18959167
> <PUBCHEM_MOLECULAR_FORMULA>
C22H25N3O3
> <PUBCHEM_MOLECULAR_WEIGHT>
379.5
> <PUBCHEM_OPENEYE_CAN_SMILES>
CN1C(CC(O1)C2=CC=C(C=C2)OC)(CN3C=CN=C3)C4=CC=C(C=C4)OC
> <PUBCHEM_OPENEYE_ISO_SMILES>
CN1[C@](C[C@H](O1)C2=CC=C(C=C2)OC)(CN3C=CN=C3)C4=CC=C(C=C4)OC
> <PUBCHEM_CACTVS_TPSA>
48.8
> <PUBCHEM_MONOISOTOPIC_WEIGHT>
379.18959167
> <PUBCHEM_TOTAL_CHARGE>
0
> <PUBCHEM_HEAVY_ATOM_COUNT>
28
> <PUBCHEM_ATOM_DEF_STEREO_COUNT>
2
> <PUBCHEM_ATOM_UDEF_STEREO_COUNT>
0
> <PUBCHEM_BOND_DEF_STEREO_COUNT>
0
> <PUBCHEM_BOND_UDEF_STEREO_COUNT>
0
> <PUBCHEM_ISOTOPIC_ATOM_COUNT>
0
> <PUBCHEM_COMPONENT_COUNT>
1
> <PUBCHEM_CACTVS_TAUTO_COUNT>
1
> <PUBCHEM_COORDINATE_TYPE>
1
5
255
> <PUBCHEM_BONDANNOTATIONS>
11  14  8
11  15  8
12  16  8
12  17  8
14  20  8
15  21  8
16  23  8
17  24  8
18  25  8
20  22  8
21  22  8
23  26  8
24  26  8
5  18  8
5  19  8
6  19  8
6  25  8
7  10  5
9  12  5
$$$$
