516663
  -OEChem-10302200282D
125130  0     1  0  0  0  0  0999 V2000
   17.4094    9.8047    0.0000 O   0  0  0  0  0  0  0  0  0  0  0  0
    5.4141  -10.9718    0.0000 O   0  0  0  0  0  0  0  0  0  0  0  0
   17.4094    8.1953    0.0000 O   0  0  0  0  0  0  0  0  0  0  0  0
    6.8079  -10.1671    0.0000 O   0  0  0  0  0  0  0  0  0  0  0  0
   14.7312    8.5000    0.0000 O   0  0  0  0  0  0  0  0  0  0  0  0
    5.2049   -8.0000    0.0000 O   0  0  0  0  0  0  0  0  0  0  0  0
   15.3880   10.9718    0.0000 O   0  0  0  0  0  0  0  0  0  0  0  0
    3.3926   -9.8047    0.0000 O   0  0  0  0  0  0  0  0  0  0  0  0
   13.9941   10.1671    0.0000 O   0  0  0  0  0  0  0  0  0  0  0  0
    3.3926   -8.1953    0.0000 O   0  0  0  0  0  0  0  0  0  0  0  0
   14.7312    6.5000    0.0000 O   0  0  0  0  0  0  0  0  0  0  0  0
    6.9369   -7.0000    0.0000 O   0  0  0  0  0  0  0  0  0  0  0  0
   12.9991    5.5000    0.0000 O   0  0  0  0  0  0  0  0  0  0  0  0
    6.9369   -5.0000    0.0000 O   0  0  0  0  0  0  0  0  0  0  0  0
    8.6690   -5.0000    0.0000 N   0  0  0  0  0  0  0  0  0  0  0  0
   12.9991    3.5000    0.0000 N   0  0  0  0  0  0  0  0  0  0  0  0
   16.4632    9.5000    0.0000 C   0  0  1  0  0  0  0  0  0  0  0  0
    5.2049  -10.0000    0.0000 C   0  0  1  0  0  0  0  0  0  0  0  0
   16.4632    8.5000    0.0000 C   0  0  2  0  0  0  0  0  0  0  0  0
    6.0709   -9.5000    0.0000 C   0  0  2  0  0  0  0  0  0  0  0  0
   15.5972   10.0000    0.0000 C   0  0  2  0  0  0  0  0  0  0  0  0
    4.3388   -9.5000    0.0000 C   0  0  2  0  0  0  0  0  0  0  0  0
   14.7312    9.5000    0.0000 C   0  0  2  0  0  0  0  0  0  0  0  0
   15.5972    8.0000    0.0000 C   0  0  3  0  0  0  0  0  0  0  0  0
    4.3388   -8.5000    0.0000 C   0  0  2  0  0  0  0  0  0  0  0  0
    6.0709   -8.5000    0.0000 C   0  0  3  0  0  0  0  0  0  0  0  0
   17.9930    9.0000    0.0000 C   0  0  0  0  0  0  0  0  0  0  0  0
    6.4028  -11.0749    0.0000 C   0  0  0  0  0  0  0  0  0  0  0  0
   14.3992   11.0749    0.0000 C   0  0  0  0  0  0  0  0  0  0  0  0
    2.8090   -9.0000    0.0000 C   0  0  0  0  0  0  0  0  0  0  0  0
   15.5972    7.0000    0.0000 C   0  0  0  0  0  0  0  0  0  0  0  0
    6.9369   -8.0000    0.0000 C   0  0  0  0  0  0  0  0  0  0  0  0
   18.8020    9.5878    0.0000 C   0  0  0  0  0  0  0  0  0  0  0  0
   18.8020    8.4122    0.0000 C   0  0  0  0  0  0  0  0  0  0  0  0
    7.3163  -11.4816    0.0000 C   0  0  0  0  0  0  0  0  0  0  0  0
    6.2983  -12.0694    0.0000 C   0  0  0  0  0  0  0  0  0  0  0  0
   14.5038   12.0694    0.0000 C   0  0  0  0  0  0  0  0  0  0  0  0
   13.4857   11.4816    0.0000 C   0  0  0  0  0  0  0  0  0  0  0  0
    2.0000   -8.4122    0.0000 C   0  0  0  0  0  0  0  0  0  0  0  0
    2.0000   -9.5878    0.0000 C   0  0  0  0  0  0  0  0  0  0  0  0
   14.7312    5.5000    0.0000 C   0  0  0  0  0  0  0  0  0  0  0  0
    7.8030   -6.5000    0.0000 C   0  0  0  0  0  0  0  0  0  0  0  0
   13.8651    5.0000    0.0000 C   0  0  3  0  0  0  0  0  0  0  0  0
    7.8030   -5.5000    0.0000 C   0  0  3  0  0  0  0  0  0  0  0  0
   13.8651    4.0000    0.0000 C   0  0  0  0  0  0  0  0  0  0  0  0
    8.6690   -4.0000    0.0000 C   0  0  0  0  0  0  0  0  0  0  0  0
    9.5350   -3.5000    0.0000 C   0  0  0  0  0  0  0  0  0  0  0  0
   12.9991    2.5000    0.0000 C   0  0  0  0  0  0  0  0  0  0  0  0
    9.5350   -2.5000    0.0000 C   0  0  0  0  0  0  0  0  0  0  0  0
   12.1331    2.0000    0.0000 C   0  0  0  0  0  0  0  0  0  0  0  0
   10.4010   -2.0000    0.0000 C   0  0  0  0  0  0  0  0  0  0  0  0
   12.1331    1.0000    0.0000 C   0  0  0  0  0  0  0  0  0  0  0  0
   10.4010   -1.0000    0.0000 C   0  0  0  0  0  0  0  0  0  0  0  0
   11.2670    0.5000    0.0000 C   0  0  0  0  0  0  0  0  0  0  0  0
   11.2670   -0.5000    0.0000 C   0  0  0  0  0  0  0  0  0  0  0  0
   16.5531   10.3452    0.0000 H   0  0  0  0  0  0  0  0  0  0  0  0
    4.5179  -10.5005    0.0000 H   0  0  0  0  0  0  0  0  0  0  0  0
   16.5531    7.6548    0.0000 H   0  0  0  0  0  0  0  0  0  0  0  0
    6.8479   -9.1553    0.0000 H   0  0  0  0  0  0  0  0  0  0  0  0
   16.2842   10.5005    0.0000 H   0  0  0  0  0  0  0  0  0  0  0  0
    4.2489  -10.3452    0.0000 H   0  0  0  0  0  0  0  0  0  0  0  0
   13.9542    9.1553    0.0000 H   0  0  0  0  0  0  0  0  0  0  0  0
   15.0602    7.6900    0.0000 H   0  0  0  0  0  0  0  0  0  0  0  0
    4.2489   -7.6548    0.0000 H   0  0  0  0  0  0  0  0  0  0  0  0
    6.0709   -7.8800    0.0000 H   0  0  0  0  0  0  0  0  0  0  0  0
   15.8092    6.4174    0.0000 H   0  0  0  0  0  0  0  0  0  0  0  0
   16.2078    7.1077    0.0000 H   0  0  0  0  0  0  0  0  0  0  0  0
    7.1490   -8.5826    0.0000 H   0  0  0  0  0  0  0  0  0  0  0  0
    7.5475   -7.8923    0.0000 H   0  0  0  0  0  0  0  0  0  0  0  0
   19.1665    9.0862    0.0000 H   0  0  0  0  0  0  0  0  0  0  0  0
   19.3036    9.9522    0.0000 H   0  0  0  0  0  0  0  0  0  0  0  0
   18.4376   10.0894    0.0000 H   0  0  0  0  0  0  0  0  0  0  0  0
   18.4376    7.9106    0.0000 H   0  0  0  0  0  0  0  0  0  0  0  0
   19.3036    8.0478    0.0000 H   0  0  0  0  0  0  0  0  0  0  0  0
   19.1665    8.9138    0.0000 H   0  0  0  0  0  0  0  0  0  0  0  0
    7.0642  -12.0480    0.0000 H   0  0  0  0  0  0  0  0  0  0  0  0
    7.8827  -11.7338    0.0000 H   0  0  0  0  0  0  0  0  0  0  0  0
    7.5685  -10.9152    0.0000 H   0  0  0  0  0  0  0  0  0  0  0  0
    5.6817  -12.0046    0.0000 H   0  0  0  0  0  0  0  0  0  0  0  0
    6.2335  -12.6860    0.0000 H   0  0  0  0  0  0  0  0  0  0  0  0
    6.9149  -12.1342    0.0000 H   0  0  0  0  0  0  0  0  0  0  0  0
   15.1204   12.0046    0.0000 H   0  0  0  0  0  0  0  0  0  0  0  0
   14.5686   12.6860    0.0000 H   0  0  0  0  0  0  0  0  0  0  0  0
   13.8872   12.1342    0.0000 H   0  0  0  0  0  0  0  0  0  0  0  0
   13.7379   12.0480    0.0000 H   0  0  0  0  0  0  0  0  0  0  0  0
   12.9193   11.7338    0.0000 H   0  0  0  0  0  0  0  0  0  0  0  0
   13.2335   10.9152    0.0000 H   0  0  0  0  0  0  0  0  0  0  0  0
    2.3644   -7.9106    0.0000 H   0  0  0  0  0  0  0  0  0  0  0  0
    1.4984   -8.0478    0.0000 H   0  0  0  0  0  0  0  0  0  0  0  0
    1.6356   -8.9138    0.0000 H   0  0  0  0  0  0  0  0  0  0  0  0
    1.6356   -9.0862    0.0000 H   0  0  0  0  0  0  0  0  0  0  0  0
    1.4984   -9.9522    0.0000 H   0  0  0  0  0  0  0  0  0  0  0  0
    2.3644  -10.0894    0.0000 H   0  0  0  0  0  0  0  0  0  0  0  0
   14.9432    4.9174    0.0000 H   0  0  0  0  0  0  0  0  0  0  0  0
   15.3417    5.6077    0.0000 H   0  0  0  0  0  0  0  0  0  0  0  0
    8.0150   -7.0826    0.0000 H   0  0  0  0  0  0  0  0  0  0  0  0
    8.4135   -6.3923    0.0000 H   0  0  0  0  0  0  0  0  0  0  0  0
   13.8651    5.6200    0.0000 H   0  0  0  0  0  0  0  0  0  0  0  0
    7.8030   -4.8800    0.0000 H   0  0  0  0  0  0  0  0  0  0  0  0
   14.0772    3.4174    0.0000 H   0  0  0  0  0  0  0  0  0  0  0  0
   14.4757    4.1077    0.0000 H   0  0  0  0  0  0  0  0  0  0  0  0
    9.2059   -5.3100    0.0000 H   0  0  0  0  0  0  0  0  0  0  0  0
   12.9991    6.1200    0.0000 H   0  0  0  0  0  0  0  0  0  0  0  0
    8.4569   -3.4174    0.0000 H   0  0  0  0  0  0  0  0  0  0  0  0
    8.0584   -4.1077    0.0000 H   0  0  0  0  0  0  0  0  0  0  0  0
   12.4622    3.8100    0.0000 H   0  0  0  0  0  0  0  0  0  0  0  0
    6.9369   -4.3800    0.0000 H   0  0  0  0  0  0  0  0  0  0  0  0
    9.7470   -4.0826    0.0000 H   0  0  0  0  0  0  0  0  0  0  0  0
   10.1456   -3.3923    0.0000 H   0  0  0  0  0  0  0  0  0  0  0  0
   13.2112    1.9174    0.0000 H   0  0  0  0  0  0  0  0  0  0  0  0
   13.6097    2.6077    0.0000 H   0  0  0  0  0  0  0  0  0  0  0  0
    9.3230   -1.9174    0.0000 H   0  0  0  0  0  0  0  0  0  0  0  0
    8.9244   -2.6077    0.0000 H   0  0  0  0  0  0  0  0  0  0  0  0
   11.9210    2.5826    0.0000 H   0  0  0  0  0  0  0  0  0  0  0  0
   11.5225    1.8923    0.0000 H   0  0  0  0  0  0  0  0  0  0  0  0
   10.6131   -2.5826    0.0000 H   0  0  0  0  0  0  0  0  0  0  0  0
   11.0116   -1.8923    0.0000 H   0  0  0  0  0  0  0  0  0  0  0  0
   12.3451    0.4174    0.0000 H   0  0  0  0  0  0  0  0  0  0  0  0
   12.7437    1.1077    0.0000 H   0  0  0  0  0  0  0  0  0  0  0  0
   10.1890   -0.4174    0.0000 H   0  0  0  0  0  0  0  0  0  0  0  0
    9.7904   -1.1077    0.0000 H   0  0  0  0  0  0  0  0  0  0  0  0
   11.0550    1.0826    0.0000 H   0  0  0  0  0  0  0  0  0  0  0  0
   10.6565    0.3923    0.0000 H   0  0  0  0  0  0  0  0  0  0  0  0
   11.4791   -1.0826    0.0000 H   0  0  0  0  0  0  0  0  0  0  0  0
   11.8776   -0.3923    0.0000 H   0  0  0  0  0  0  0  0  0  0  0  0
  1 17  1  0  0  0  0
  1 27  1  0  0  0  0
  2 18  1  0  0  0  0
  2 28  1  0  0  0  0
  3 19  1  0  0  0  0
  3 27  1  0  0  0  0
  4 20  1  0  0  0  0
  4 28  1  0  0  0  0
  5 23  1  0  0  0  0
  5 24  1  0  0  0  0
  6 25  1  0  0  0  0
  6 26  1  0  0  0  0
  7 21  1  0  0  0  0
  7 29  1  0  0  0  0
  8 22  1  0  0  0  0
  8 30  1  0  0  0  0
  9 23  1  0  0  0  0
  9 29  1  0  0  0  0
 10 25  1  0  0  0  0
 10 30  1  0  0  0  0
 11 31  1  0  0  0  0
 11 41  1  0  0  0  0
 12 32  1  0  0  0  0
 12 42  1  0  0  0  0
 13 43  1  0  0  0  0
 13103  1  0  0  0  0
 14 44  1  0  0  0  0
 14107  1  0  0  0  0
 15 44  1  0  0  0  0
 15 46  1  0  0  0  0
 15102  1  0  0  0  0
 16 45  1  0  0  0  0
 16 48  1  0  0  0  0
 16106  1  0  0  0  0
 17 19  1  0  0  0  0
 17 21  1  0  0  0  0
 17 56  1  6  0  0  0
 18 20  1  0  0  0  0
 18 22  1  0  0  0  0
 18 57  1  1  0  0  0
 19 24  1  0  0  0  0
 19 58  1  6  0  0  0
 20 26  1  0  0  0  0
 20 59  1  1  0  0  0
 21 23  1  0  0  0  0
 21 60  1  1  0  0  0
 22 25  1  0  0  0  0
 22 61  1  6  0  0  0
 23 62  1  1  0  0  0
 24 31  1  0  0  0  0
 24 63  1  0  0  0  0
 25 64  1  6  0  0  0
 26 32  1  0  0  0  0
 26 65  1  0  0  0  0
 27 33  1  0  0  0  0
 27 34  1  0  0  0  0
 28 35  1  0  0  0  0
 28 36  1  0  0  0  0
 29 37  1  0  0  0  0
 29 38  1  0  0  0  0
 30 39  1  0  0  0  0
 30 40  1  0  0  0  0
 31 66  1  0  0  0  0
 31 67  1  0  0  0  0
 32 68  1  0  0  0  0
 32 69  1  0  0  0  0
 33 70  1  0  0  0  0
 33 71  1  0  0  0  0
 33 72  1  0  0  0  0
 34 73  1  0  0  0  0
 34 74  1  0  0  0  0
 34 75  1  0  0  0  0
 35 76  1  0  0  0  0
 35 77  1  0  0  0  0
 35 78  1  0  0  0  0
 36 79  1  0  0  0  0
 36 80  1  0  0  0  0
 36 81  1  0  0  0  0
 37 82  1  0  0  0  0
 37 83  1  0  0  0  0
 37 84  1  0  0  0  0
 38 85  1  0  0  0  0
 38 86  1  0  0  0  0
 38 87  1  0  0  0  0
 39 88  1  0  0  0  0
 39 89  1  0  0  0  0
 39 90  1  0  0  0  0
 40 91  1  0  0  0  0
 40 92  1  0  0  0  0
 40 93  1  0  0  0  0
 41 43  1  0  0  0  0
 41 94  1  0  0  0  0
 41 95  1  0  0  0  0
 42 44  1  0  0  0  0
 42 96  1  0  0  0  0
 42 97  1  0  0  0  0
 43 45  1  0  0  0  0
 43 98  1  0  0  0  0
 44 99  1  0  0  0  0
 45100  1  0  0  0  0
 45101  1  0  0  0  0
 46 47  1  0  0  0  0
 46104  1  0  0  0  0
 46105  1  0  0  0  0
 47 49  1  0  0  0  0
 47108  1  0  0  0  0
 47109  1  0  0  0  0
 48 50  1  0  0  0  0
 48110  1  0  0  0  0
 48111  1  0  0  0  0
 49 51  1  0  0  0  0
 49112  1  0  0  0  0
 49113  1  0  0  0  0
 50 52  1  0  0  0  0
 50114  1  0  0  0  0
 50115  1  0  0  0  0
 51 53  1  0  0  0  0
 51116  1  0  0  0  0
 51117  1  0  0  0  0
 52 54  1  0  0  0  0
 52118  1  0  0  0  0
 52119  1  0  0  0  0
 53 55  1  0  0  0  0
 53120  1  0  0  0  0
 53121  1  0  0  0  0
 54 55  1  0  0  0  0
 54122  1  0  0  0  0
 54123  1  0  0  0  0
 55124  1  0  0  0  0
 55125  1  0  0  0  0
M  END
> <PUBCHEM_COMPOUND_CID>
516663
> <PUBCHEM_COMPOUND_CANONICALIZED>
1
> <PUBCHEM_CACTVS_COMPLEXITY>
1190
> <PUBCHEM_CACTVS_HBOND_ACCEPTOR>
16
> <PUBCHEM_CACTVS_HBOND_DONOR>
4
> <PUBCHEM_CACTVS_ROTATABLE_BOND>
22
> <PUBCHEM_CACTVS_SUBSKEYS>
AAADcfB/PAAAAAAAAAAAAAAAAAAAASJEiQAkSAAAAAAAAEgAAAAAHgAQCAAACBTxgAcCCALABgAAAAAAAAAAAAAAAAAAAIAIAAETEAIAgAAnAAAHEACXAAHQ4IwAAAAAAAAAAAAAAAAAAAAAAAAAAAAAAA==
> <PUBCHEM_IUPAC_OPENEYE_NAME>
1-[10-[[1-hydroxy-2-[[(1S,2R,6R,9S)-4,4,11,11-tetramethyl-3,5,7,10,12-pentaoxatricyclo[7.3.0.02,6]dodecan-8-yl]methoxy]ethyl]amino]decylamino]-3-[[(1S,2R,6R,9S)-4,4,11,11-tetramethyl-3,5,7,10,12-pentaoxatricyclo[7.3.0.02,6]dodecan-8-yl]methoxy]propan-2-ol
> <PUBCHEM_IUPAC_CAS_NAME>
1-[10-[[1-hydroxy-2-[[(1S,2R,6R,9S)-4,4,11,11-tetramethyl-3,5,7,10,12-pentaoxatricyclo[7.3.0.02,6]dodecan-8-yl]methoxy]ethyl]amino]decylamino]-3-[[(1S,2R,6R,9S)-4,4,11,11-tetramethyl-3,5,7,10,12-pentaoxatricyclo[7.3.0.02,6]dodecan-8-yl]methoxy]-2-propanol
> <PUBCHEM_IUPAC_NAME_MARKUP>
1-[10-[[1-hydroxy-2-[[(1<I>S</I>,2<I>R</I>,6<I>R</I>,9<I>S</I>)-4,4,11,11-tetramethyl-3,5,7,10,12-pentaoxatricyclo[7.3.0.0<SUP>2,6</SUP>]dodecan-8-yl]methoxy]ethyl]amino]decylamino]-3-[[(1<I>S</I>,2<I>R</I>,6<I>R</I>,9<I>S</I>)-4,4,11,11-tetramethyl-3,5,7,10,12-pentaoxatricyclo[7.3.0.0<SUP>2,6</SUP>]dodecan-8-yl]methoxy]propan-2-ol
> <PUBCHEM_IUPAC_NAME>
1-[10-[[1-hydroxy-2-[[(1S,2R,6R,9S)-4,4,11,11-tetramethyl-3,5,7,10,12-pentaoxatricyclo[7.3.0.02,6]dodecan-8-yl]methoxy]ethyl]amino]decylamino]-3-[[(1S,2R,6R,9S)-4,4,11,11-tetramethyl-3,5,7,10,12-pentaoxatricyclo[7.3.0.02,6]dodecan-8-yl]methoxy]propan-2-ol
> <PUBCHEM_IUPAC_SYSTEMATIC_NAME>
1-[10-[[1-oxidanyl-2-[[(1S,2R,6R,9S)-4,4,11,11-tetramethyl-3,5,7,10,12-pentaoxatricyclo[7.3.0.02,6]dodecan-8-yl]methoxy]ethyl]amino]decylamino]-3-[[(1S,2R,6R,9S)-4,4,11,11-tetramethyl-3,5,7,10,12-pentaoxatricyclo[7.3.0.02,6]dodecan-8-yl]methoxy]propan-2-ol
> <PUBCHEM_IUPAC_TRADITIONAL_NAME>
1-[10-[[1-hydroxy-2-[[(1S,2R,6R,9S)-4,4,11,11-tetramethyl-3,5,7,10,12-pentaoxatricyclo[7.3.0.02,6]dodecan-8-yl]methoxy]ethyl]amino]decylamino]-3-[[(1S,2R,6R,9S)-4,4,11,11-tetramethyl-3,5,7,10,12-pentaoxatricyclo[7.3.0.02,6]dodecan-8-yl]methoxy]propan-2-ol
> <PUBCHEM_IUPAC_INCHI>
InChI=1S/C39H70N2O14/c1-36(2)48-28-25(46-34-32(30(28)50-36)52-38(5,6)54-34)21-44-20-24(42)19-40-17-15-13-11-9-10-12-14-16-18-41-27(43)23-45-22-26-29-31(51-37(3,4)49-29)33-35(47-26)55-39(7,8)53-33/h24-35,40-43H,9-23H2,1-8H3/t24?,25?,26?,27?,28-,29-,30-,31-,32+,33+,34+,35+/m0/s1
> <PUBCHEM_IUPAC_INCHIKEY>
BRTHWVDDUIEOSR-PQPCTRCTSA-N
> <PUBCHEM_XLOGP3_AA>
2.4
> <PUBCHEM_EXACT_MASS>
790.48270491
> <PUBCHEM_MOLECULAR_FORMULA>
C39H70N2O14
> <PUBCHEM_MOLECULAR_WEIGHT>
791.0
> <PUBCHEM_OPENEYE_CAN_SMILES>
CC1(OC2C(OC3C(C2O1)OC(O3)(C)C)COCC(CNCCCCCCCCCCNC(COCC4C5C(C6C(O4)OC(O6)(C)C)OC(O5)(C)C)O)O)C
> <PUBCHEM_OPENEYE_ISO_SMILES>
CC1(O[C@@H]2[C@@H]3[C@H](OC([C@@H]2O1)COCC(CNCCCCCCCCCCNC(COCC4[C@H]5[C@@H]([C@@H]6[C@H](O4)OC(O6)(C)C)OC(O5)(C)C)O)O)OC(O3)(C)C)C
> <PUBCHEM_CACTVS_TPSA>
175
> <PUBCHEM_MONOISOTOPIC_WEIGHT>
790.48270491
> <PUBCHEM_TOTAL_CHARGE>
0
> <PUBCHEM_HEAVY_ATOM_COUNT>
55
> <PUBCHEM_ATOM_DEF_STEREO_COUNT>
8
> <PUBCHEM_ATOM_UDEF_STEREO_COUNT>
4
> <PUBCHEM_BOND_DEF_STEREO_COUNT>
0
> <PUBCHEM_BOND_UDEF_STEREO_COUNT>
0
> <PUBCHEM_ISOTOPIC_ATOM_COUNT>
0
> <PUBCHEM_COMPONENT_COUNT>
1
> <PUBCHEM_CACTVS_TAUTO_COUNT>
-1
> <PUBCHEM_COORDINATE_TYPE>
1
5
255
> <PUBCHEM_BONDANNOTATIONS>
43  13  3
44  14  3
17  56  6
18  57  5
19  58  6
20  59  5
21  60  5
22  61  6
23  62  5
24  31  3
25  64  6
26  32  3
$$$$
