516658
  -OEChem-10302200282D
 63 66  0     1  0  0  0  0  0999 V2000
    5.4141   -3.9371    0.0000 O   0  0  0  0  0  0  0  0  0  0  0  0
    6.8079   -3.1324    0.0000 O   0  0  0  0  0  0  0  0  0  0  0  0
    5.2049   -0.9653    0.0000 O   0  0  0  0  0  0  0  0  0  0  0  0
    3.3926   -2.7700    0.0000 O   0  0  0  0  0  0  0  0  0  0  0  0
    3.3926   -1.1606    0.0000 O   0  0  0  0  0  0  0  0  0  0  0  0
    6.9369    0.0347    0.0000 O   0  0  0  0  0  0  0  0  0  0  0  0
    6.9369    2.0347    0.0000 O   0  0  0  0  0  0  0  0  0  0  0  0
    8.6690    3.0347    0.0000 N   0  0  0  0  0  0  0  0  0  0  0  0
    5.2049   -2.9653    0.0000 C   0  0  1  0  0  0  0  0  0  0  0  0
    6.0709   -2.4653    0.0000 C   0  0  2  0  0  0  0  0  0  0  0  0
    4.3388   -2.4653    0.0000 C   0  0  2  0  0  0  0  0  0  0  0  0
    6.0709   -1.4653    0.0000 C   0  0  3  0  0  0  0  0  0  0  0  0
    4.3388   -1.4653    0.0000 C   0  0  2  0  0  0  0  0  0  0  0  0
    6.4028   -4.0402    0.0000 C   0  0  0  0  0  0  0  0  0  0  0  0
    2.8090   -1.9653    0.0000 C   0  0  0  0  0  0  0  0  0  0  0  0
    6.9369   -0.9653    0.0000 C   0  0  0  0  0  0  0  0  0  0  0  0
    7.3163   -4.4469    0.0000 C   0  0  0  0  0  0  0  0  0  0  0  0
    6.2983   -5.0347    0.0000 C   0  0  0  0  0  0  0  0  0  0  0  0
    2.0000   -1.3775    0.0000 C   0  0  0  0  0  0  0  0  0  0  0  0
    2.0000   -2.5531    0.0000 C   0  0  0  0  0  0  0  0  0  0  0  0
    7.8030    0.5347    0.0000 C   0  0  0  0  0  0  0  0  0  0  0  0
    7.8030    1.5347    0.0000 C   0  0  3  0  0  0  0  0  0  0  0  0
    8.6690    2.0347    0.0000 C   0  0  0  0  0  0  0  0  0  0  0  0
    9.5350    3.5347    0.0000 C   0  0  0  0  0  0  0  0  0  0  0  0
    7.8030    3.5347    0.0000 C   0  0  0  0  0  0  0  0  0  0  0  0
    9.5350    4.5347    0.0000 C   0  0  0  0  0  0  0  0  0  0  0  0
    7.8030    4.5347    0.0000 C   0  0  0  0  0  0  0  0  0  0  0  0
    8.6690    5.0347    0.0000 C   0  0  0  0  0  0  0  0  0  0  0  0
    4.5179   -3.4658    0.0000 H   0  0  0  0  0  0  0  0  0  0  0  0
    6.8479   -2.1206    0.0000 H   0  0  0  0  0  0  0  0  0  0  0  0
    4.2489   -3.3105    0.0000 H   0  0  0  0  0  0  0  0  0  0  0  0
    6.0709   -0.8453    0.0000 H   0  0  0  0  0  0  0  0  0  0  0  0
    4.2489   -0.6201    0.0000 H   0  0  0  0  0  0  0  0  0  0  0  0
    7.1490   -1.5479    0.0000 H   0  0  0  0  0  0  0  0  0  0  0  0
    7.5475   -0.8576    0.0000 H   0  0  0  0  0  0  0  0  0  0  0  0
    7.0642   -5.0133    0.0000 H   0  0  0  0  0  0  0  0  0  0  0  0
    7.8827   -4.6991    0.0000 H   0  0  0  0  0  0  0  0  0  0  0  0
    7.5685   -3.8805    0.0000 H   0  0  0  0  0  0  0  0  0  0  0  0
    5.6817   -4.9699    0.0000 H   0  0  0  0  0  0  0  0  0  0  0  0
    6.2335   -5.6513    0.0000 H   0  0  0  0  0  0  0  0  0  0  0  0
    6.9149   -5.0995    0.0000 H   0  0  0  0  0  0  0  0  0  0  0  0
    2.3644   -0.8759    0.0000 H   0  0  0  0  0  0  0  0  0  0  0  0
    1.4984   -1.0131    0.0000 H   0  0  0  0  0  0  0  0  0  0  0  0
    1.6356   -1.8791    0.0000 H   0  0  0  0  0  0  0  0  0  0  0  0
    1.6356   -2.0515    0.0000 H   0  0  0  0  0  0  0  0  0  0  0  0
    1.4984   -2.9175    0.0000 H   0  0  0  0  0  0  0  0  0  0  0  0
    2.3644   -3.0547    0.0000 H   0  0  0  0  0  0  0  0  0  0  0  0
    8.0150   -0.0479    0.0000 H   0  0  0  0  0  0  0  0  0  0  0  0
    8.4135    0.6424    0.0000 H   0  0  0  0  0  0  0  0  0  0  0  0
    7.2660    1.2247    0.0000 H   0  0  0  0  0  0  0  0  0  0  0  0
    8.8810    1.4521    0.0000 H   0  0  0  0  0  0  0  0  0  0  0  0
    9.2796    2.1424    0.0000 H   0  0  0  0  0  0  0  0  0  0  0  0
    9.7470    2.9521    0.0000 H   0  0  0  0  0  0  0  0  0  0  0  0
   10.1456    3.6424    0.0000 H   0  0  0  0  0  0  0  0  0  0  0  0
    7.1924    3.6424    0.0000 H   0  0  0  0  0  0  0  0  0  0  0  0
    7.5909    2.9521    0.0000 H   0  0  0  0  0  0  0  0  0  0  0  0
   10.1456    4.4270    0.0000 H   0  0  0  0  0  0  0  0  0  0  0  0
    9.7470    5.1173    0.0000 H   0  0  0  0  0  0  0  0  0  0  0  0
    7.5909    5.1173    0.0000 H   0  0  0  0  0  0  0  0  0  0  0  0
    7.1924    4.4270    0.0000 H   0  0  0  0  0  0  0  0  0  0  0  0
    9.0675    5.5096    0.0000 H   0  0  0  0  0  0  0  0  0  0  0  0
    8.2704    5.5096    0.0000 H   0  0  0  0  0  0  0  0  0  0  0  0
    6.4000    1.7247    0.0000 H   0  0  0  0  0  0  0  0  0  0  0  0
  1  9  1  0  0  0  0
  1 14  1  0  0  0  0
  2 10  1  0  0  0  0
  2 14  1  0  0  0  0
  3 12  1  0  0  0  0
  3 13  1  0  0  0  0
  4 11  1  0  0  0  0
  4 15  1  0  0  0  0
  5 13  1  0  0  0  0
  5 15  1  0  0  0  0
  6 16  1  0  0  0  0
  6 21  1  0  0  0  0
  7 22  1  0  0  0  0
  7 63  1  0  0  0  0
  8 23  1  0  0  0  0
  8 24  1  0  0  0  0
  8 25  1  0  0  0  0
  9 10  1  0  0  0  0
  9 11  1  0  0  0  0
  9 29  1  1  0  0  0
 10 12  1  0  0  0  0
 10 30  1  1  0  0  0
 11 13  1  0  0  0  0
 11 31  1  6  0  0  0
 12 16  1  0  0  0  0
 12 32  1  0  0  0  0
 13 33  1  6  0  0  0
 14 17  1  0  0  0  0
 14 18  1  0  0  0  0
 15 19  1  0  0  0  0
 15 20  1  0  0  0  0
 16 34  1  0  0  0  0
 16 35  1  0  0  0  0
 17 36  1  0  0  0  0
 17 37  1  0  0  0  0
 17 38  1  0  0  0  0
 18 39  1  0  0  0  0
 18 40  1  0  0  0  0
 18 41  1  0  0  0  0
 19 42  1  0  0  0  0
 19 43  1  0  0  0  0
 19 44  1  0  0  0  0
 20 45  1  0  0  0  0
 20 46  1  0  0  0  0
 20 47  1  0  0  0  0
 21 22  1  0  0  0  0
 21 48  1  0  0  0  0
 21 49  1  0  0  0  0
 22 23  1  0  0  0  0
 22 50  1  0  0  0  0
 23 51  1  0  0  0  0
 23 52  1  0  0  0  0
 24 26  1  0  0  0  0
 24 53  1  0  0  0  0
 24 54  1  0  0  0  0
 25 27  1  0  0  0  0
 25 55  1  0  0  0  0
 25 56  1  0  0  0  0
 26 28  1  0  0  0  0
 26 57  1  0  0  0  0
 26 58  1  0  0  0  0
 27 28  1  0  0  0  0
 27 59  1  0  0  0  0
 27 60  1  0  0  0  0
 28 61  1  0  0  0  0
 28 62  1  0  0  0  0
M  END
> <PUBCHEM_COMPOUND_CID>
516658
> <PUBCHEM_COMPOUND_CANONICALIZED>
1
> <PUBCHEM_CACTVS_COMPLEXITY>
537
> <PUBCHEM_CACTVS_HBOND_ACCEPTOR>
8
> <PUBCHEM_CACTVS_HBOND_DONOR>
1
> <PUBCHEM_CACTVS_ROTATABLE_BOND>
6
> <PUBCHEM_CACTVS_SUBSKEYS>
AAADcfB6OAAAAAAAAAAAAAAAAAAAASJAAAAsSAAAAAAAAEgAAAAAHgAACAAACBTxgAcCCAMABgAAAAAAAAAAAAAAAAAAAAAIAAATEAIAgAAmAAAHAACXAAHQYAwAAAAAAAAAAAAAAAAAAAAAAAAAAAAAAA==
> <PUBCHEM_IUPAC_OPENEYE_NAME>
1-(1-piperidyl)-3-[[(1S,2R,6R,9S)-4,4,11,11-tetramethyl-3,5,7,10,12-pentaoxatricyclo[7.3.0.02,6]dodecan-8-yl]methoxy]propan-2-ol
> <PUBCHEM_IUPAC_CAS_NAME>
1-(1-piperidinyl)-3-[[(1S,2R,6R,9S)-4,4,11,11-tetramethyl-3,5,7,10,12-pentaoxatricyclo[7.3.0.02,6]dodecan-8-yl]methoxy]-2-propanol
> <PUBCHEM_IUPAC_NAME_MARKUP>
1-piperidin-1-yl-3-[[(1<I>S</I>,2<I>R</I>,6<I>R</I>,9<I>S</I>)-4,4,11,11-tetramethyl-3,5,7,10,12-pentaoxatricyclo[7.3.0.0<SUP>2,6</SUP>]dodecan-8-yl]methoxy]propan-2-ol
> <PUBCHEM_IUPAC_NAME>
1-piperidin-1-yl-3-[[(1S,2R,6R,9S)-4,4,11,11-tetramethyl-3,5,7,10,12-pentaoxatricyclo[7.3.0.02,6]dodecan-8-yl]methoxy]propan-2-ol
> <PUBCHEM_IUPAC_SYSTEMATIC_NAME>
1-piperidin-1-yl-3-[[(1S,2R,6R,9S)-4,4,11,11-tetramethyl-3,5,7,10,12-pentaoxatricyclo[7.3.0.02,6]dodecan-8-yl]methoxy]propan-2-ol
> <PUBCHEM_IUPAC_TRADITIONAL_NAME>
1-piperidino-3-[[(1S,2R,6R,9S)-4,4,11,11-tetramethyl-3,5,7,10,12-pentaoxatricyclo[7.3.0.02,6]dodecan-8-yl]methoxy]propan-2-ol
> <PUBCHEM_IUPAC_INCHI>
InChI=1S/C20H35NO7/c1-19(2)25-15-14(12-23-11-13(22)10-21-8-6-5-7-9-21)24-18-17(16(15)26-19)27-20(3,4)28-18/h13-18,22H,5-12H2,1-4H3/t13?,14?,15-,16-,17+,18+/m0/s1
> <PUBCHEM_IUPAC_INCHIKEY>
AYWDOYKMNDHEOV-DGMLVCQYSA-N
> <PUBCHEM_XLOGP3_AA>
0.8
> <PUBCHEM_EXACT_MASS>
401.24135246
> <PUBCHEM_MOLECULAR_FORMULA>
C20H35NO7
> <PUBCHEM_MOLECULAR_WEIGHT>
401.5
> <PUBCHEM_OPENEYE_CAN_SMILES>
CC1(OC2C(OC3C(C2O1)OC(O3)(C)C)COCC(CN4CCCCC4)O)C
> <PUBCHEM_OPENEYE_ISO_SMILES>
CC1(O[C@@H]2[C@@H]3[C@H](OC([C@@H]2O1)COCC(CN4CCCCC4)O)OC(O3)(C)C)C
> <PUBCHEM_CACTVS_TPSA>
78.8
> <PUBCHEM_MONOISOTOPIC_WEIGHT>
401.24135246
> <PUBCHEM_TOTAL_CHARGE>
0
> <PUBCHEM_HEAVY_ATOM_COUNT>
28
> <PUBCHEM_ATOM_DEF_STEREO_COUNT>
4
> <PUBCHEM_ATOM_UDEF_STEREO_COUNT>
2
> <PUBCHEM_BOND_DEF_STEREO_COUNT>
0
> <PUBCHEM_BOND_UDEF_STEREO_COUNT>
0
> <PUBCHEM_ISOTOPIC_ATOM_COUNT>
0
> <PUBCHEM_COMPONENT_COUNT>
1
> <PUBCHEM_CACTVS_TAUTO_COUNT>
-1
> <PUBCHEM_COORDINATE_TYPE>
1
5
255
> <PUBCHEM_BONDANNOTATIONS>
10  30  5
11  31  6
12  16  3
13  33  6
22  7  3
9  29  5
$$$$
