516654
  -OEChem-10302200282D
 86 88  0     1  0  0  0  0  0999 V2000
    5.4141   -7.4371    0.0000 O   0  0  0  0  0  0  0  0  0  0  0  0
    6.8079   -6.6324    0.0000 O   0  0  0  0  0  0  0  0  0  0  0  0
    5.2049   -4.4653    0.0000 O   0  0  0  0  0  0  0  0  0  0  0  0
    3.3926   -6.2700    0.0000 O   0  0  0  0  0  0  0  0  0  0  0  0
    3.3926   -4.6606    0.0000 O   0  0  0  0  0  0  0  0  0  0  0  0
    6.9369   -3.4653    0.0000 O   0  0  0  0  0  0  0  0  0  0  0  0
    6.9369   -1.4653    0.0000 O   0  0  0  0  0  0  0  0  0  0  0  0
    8.6690   -0.4653    0.0000 N   0  0  0  0  0  0  0  0  0  0  0  0
    5.2049   -6.4653    0.0000 C   0  0  1  0  0  0  0  0  0  0  0  0
    6.0709   -5.9653    0.0000 C   0  0  2  0  0  0  0  0  0  0  0  0
    4.3388   -5.9653    0.0000 C   0  0  2  0  0  0  0  0  0  0  0  0
    4.3388   -4.9653    0.0000 C   0  0  2  0  0  0  0  0  0  0  0  0
    6.0709   -4.9653    0.0000 C   0  0  3  0  0  0  0  0  0  0  0  0
    6.4028   -7.5402    0.0000 C   0  0  0  0  0  0  0  0  0  0  0  0
    2.8090   -5.4653    0.0000 C   0  0  0  0  0  0  0  0  0  0  0  0
    6.9369   -4.4653    0.0000 C   0  0  0  0  0  0  0  0  0  0  0  0
    7.3163   -7.9469    0.0000 C   0  0  0  0  0  0  0  0  0  0  0  0
    6.2983   -8.5347    0.0000 C   0  0  0  0  0  0  0  0  0  0  0  0
    2.0000   -4.8775    0.0000 C   0  0  0  0  0  0  0  0  0  0  0  0
    2.0000   -6.0531    0.0000 C   0  0  0  0  0  0  0  0  0  0  0  0
    7.8030   -2.9653    0.0000 C   0  0  0  0  0  0  0  0  0  0  0  0
    7.8030   -1.9653    0.0000 C   0  0  3  0  0  0  0  0  0  0  0  0
    8.6690   -1.4653    0.0000 C   0  0  0  0  0  0  0  0  0  0  0  0
    9.5350    0.0347    0.0000 C   0  0  0  0  0  0  0  0  0  0  0  0
    9.5350    1.0347    0.0000 C   0  0  0  0  0  0  0  0  0  0  0  0
   10.4010    1.5347    0.0000 C   0  0  0  0  0  0  0  0  0  0  0  0
   10.4010    2.5347    0.0000 C   0  0  0  0  0  0  0  0  0  0  0  0
   11.2670    3.0347    0.0000 C   0  0  0  0  0  0  0  0  0  0  0  0
   11.2670    4.0347    0.0000 C   0  0  0  0  0  0  0  0  0  0  0  0
   12.1331    4.5347    0.0000 C   0  0  0  0  0  0  0  0  0  0  0  0
   12.1331    5.5347    0.0000 C   0  0  0  0  0  0  0  0  0  0  0  0
   12.9991    6.0347    0.0000 C   0  0  0  0  0  0  0  0  0  0  0  0
   12.9991    7.0347    0.0000 C   0  0  0  0  0  0  0  0  0  0  0  0
   13.8651    7.5347    0.0000 C   0  0  0  0  0  0  0  0  0  0  0  0
   13.8651    8.5347    0.0000 C   0  0  0  0  0  0  0  0  0  0  0  0
    4.5179   -6.9658    0.0000 H   0  0  0  0  0  0  0  0  0  0  0  0
    6.8479   -5.6206    0.0000 H   0  0  0  0  0  0  0  0  0  0  0  0
    4.2489   -6.8105    0.0000 H   0  0  0  0  0  0  0  0  0  0  0  0
    4.2489   -4.1201    0.0000 H   0  0  0  0  0  0  0  0  0  0  0  0
    6.0709   -4.3453    0.0000 H   0  0  0  0  0  0  0  0  0  0  0  0
    7.1490   -5.0479    0.0000 H   0  0  0  0  0  0  0  0  0  0  0  0
    7.5475   -4.3576    0.0000 H   0  0  0  0  0  0  0  0  0  0  0  0
    7.0642   -8.5133    0.0000 H   0  0  0  0  0  0  0  0  0  0  0  0
    7.8827   -8.1991    0.0000 H   0  0  0  0  0  0  0  0  0  0  0  0
    7.5685   -7.3805    0.0000 H   0  0  0  0  0  0  0  0  0  0  0  0
    5.6817   -8.4699    0.0000 H   0  0  0  0  0  0  0  0  0  0  0  0
    6.2335   -9.1513    0.0000 H   0  0  0  0  0  0  0  0  0  0  0  0
    6.9149   -8.5995    0.0000 H   0  0  0  0  0  0  0  0  0  0  0  0
    2.3644   -4.3759    0.0000 H   0  0  0  0  0  0  0  0  0  0  0  0
    1.4984   -4.5131    0.0000 H   0  0  0  0  0  0  0  0  0  0  0  0
    1.6356   -5.3791    0.0000 H   0  0  0  0  0  0  0  0  0  0  0  0
    1.6356   -5.5515    0.0000 H   0  0  0  0  0  0  0  0  0  0  0  0
    1.4984   -6.4175    0.0000 H   0  0  0  0  0  0  0  0  0  0  0  0
    2.3644   -6.5547    0.0000 H   0  0  0  0  0  0  0  0  0  0  0  0
    8.0150   -3.5479    0.0000 H   0  0  0  0  0  0  0  0  0  0  0  0
    8.4135   -2.8576    0.0000 H   0  0  0  0  0  0  0  0  0  0  0  0
    7.8030   -1.3453    0.0000 H   0  0  0  0  0  0  0  0  0  0  0  0
    8.8810   -2.0479    0.0000 H   0  0  0  0  0  0  0  0  0  0  0  0
    9.2796   -1.3576    0.0000 H   0  0  0  0  0  0  0  0  0  0  0  0
    8.1320   -0.1553    0.0000 H   0  0  0  0  0  0  0  0  0  0  0  0
    6.9369   -0.8453    0.0000 H   0  0  0  0  0  0  0  0  0  0  0  0
    9.7470   -0.5479    0.0000 H   0  0  0  0  0  0  0  0  0  0  0  0
   10.1456    0.1424    0.0000 H   0  0  0  0  0  0  0  0  0  0  0  0
    9.3230    1.6173    0.0000 H   0  0  0  0  0  0  0  0  0  0  0  0
    8.9244    0.9270    0.0000 H   0  0  0  0  0  0  0  0  0  0  0  0
   10.6131    0.9521    0.0000 H   0  0  0  0  0  0  0  0  0  0  0  0
   11.0116    1.6424    0.0000 H   0  0  0  0  0  0  0  0  0  0  0  0
   10.1890    3.1173    0.0000 H   0  0  0  0  0  0  0  0  0  0  0  0
    9.7904    2.4270    0.0000 H   0  0  0  0  0  0  0  0  0  0  0  0
   11.4791    2.4521    0.0000 H   0  0  0  0  0  0  0  0  0  0  0  0
   11.8776    3.1424    0.0000 H   0  0  0  0  0  0  0  0  0  0  0  0
   11.0550    4.6173    0.0000 H   0  0  0  0  0  0  0  0  0  0  0  0
   10.6565    3.9270    0.0000 H   0  0  0  0  0  0  0  0  0  0  0  0
   12.3451    3.9521    0.0000 H   0  0  0  0  0  0  0  0  0  0  0  0
   12.7437    4.6424    0.0000 H   0  0  0  0  0  0  0  0  0  0  0  0
   11.9210    6.1173    0.0000 H   0  0  0  0  0  0  0  0  0  0  0  0
   11.5225    5.4270    0.0000 H   0  0  0  0  0  0  0  0  0  0  0  0
   13.2112    5.4521    0.0000 H   0  0  0  0  0  0  0  0  0  0  0  0
   13.6097    6.1424    0.0000 H   0  0  0  0  0  0  0  0  0  0  0  0
   12.7870    7.6173    0.0000 H   0  0  0  0  0  0  0  0  0  0  0  0
   12.3885    6.9270    0.0000 H   0  0  0  0  0  0  0  0  0  0  0  0
   14.0772    6.9521    0.0000 H   0  0  0  0  0  0  0  0  0  0  0  0
   14.4757    7.6424    0.0000 H   0  0  0  0  0  0  0  0  0  0  0  0
   14.4851    8.5347    0.0000 H   0  0  0  0  0  0  0  0  0  0  0  0
   13.8651    9.1547    0.0000 H   0  0  0  0  0  0  0  0  0  0  0  0
   13.2451    8.5347    0.0000 H   0  0  0  0  0  0  0  0  0  0  0  0
  1  9  1  0  0  0  0
  1 14  1  0  0  0  0
  2 10  1  0  0  0  0
  2 14  1  0  0  0  0
  3 12  1  0  0  0  0
  3 13  1  0  0  0  0
  4 11  1  0  0  0  0
  4 15  1  0  0  0  0
  5 12  1  0  0  0  0
  5 15  1  0  0  0  0
  6 16  1  0  0  0  0
  6 21  1  0  0  0  0
  7 22  1  0  0  0  0
  7 61  1  0  0  0  0
  8 23  1  0  0  0  0
  8 24  1  0  0  0  0
  8 60  1  0  0  0  0
  9 10  1  0  0  0  0
  9 11  1  0  0  0  0
  9 36  1  1  0  0  0
 10 13  1  0  0  0  0
 10 37  1  1  0  0  0
 11 12  1  0  0  0  0
 11 38  1  6  0  0  0
 12 39  1  6  0  0  0
 13 16  1  0  0  0  0
 13 40  1  0  0  0  0
 14 17  1  0  0  0  0
 14 18  1  0  0  0  0
 15 19  1  0  0  0  0
 15 20  1  0  0  0  0
 16 41  1  0  0  0  0
 16 42  1  0  0  0  0
 17 43  1  0  0  0  0
 17 44  1  0  0  0  0
 17 45  1  0  0  0  0
 18 46  1  0  0  0  0
 18 47  1  0  0  0  0
 18 48  1  0  0  0  0
 19 49  1  0  0  0  0
 19 50  1  0  0  0  0
 19 51  1  0  0  0  0
 20 52  1  0  0  0  0
 20 53  1  0  0  0  0
 20 54  1  0  0  0  0
 21 22  1  0  0  0  0
 21 55  1  0  0  0  0
 21 56  1  0  0  0  0
 22 23  1  0  0  0  0
 22 57  1  0  0  0  0
 23 58  1  0  0  0  0
 23 59  1  0  0  0  0
 24 25  1  0  0  0  0
 24 62  1  0  0  0  0
 24 63  1  0  0  0  0
 25 26  1  0  0  0  0
 25 64  1  0  0  0  0
 25 65  1  0  0  0  0
 26 27  1  0  0  0  0
 26 66  1  0  0  0  0
 26 67  1  0  0  0  0
 27 28  1  0  0  0  0
 27 68  1  0  0  0  0
 27 69  1  0  0  0  0
 28 29  1  0  0  0  0
 28 70  1  0  0  0  0
 28 71  1  0  0  0  0
 29 30  1  0  0  0  0
 29 72  1  0  0  0  0
 29 73  1  0  0  0  0
 30 31  1  0  0  0  0
 30 74  1  0  0  0  0
 30 75  1  0  0  0  0
 31 32  1  0  0  0  0
 31 76  1  0  0  0  0
 31 77  1  0  0  0  0
 32 33  1  0  0  0  0
 32 78  1  0  0  0  0
 32 79  1  0  0  0  0
 33 34  1  0  0  0  0
 33 80  1  0  0  0  0
 33 81  1  0  0  0  0
 34 35  1  0  0  0  0
 34 82  1  0  0  0  0
 34 83  1  0  0  0  0
 35 84  1  0  0  0  0
 35 85  1  0  0  0  0
 35 86  1  0  0  0  0
M  END
> <PUBCHEM_COMPOUND_CID>
516654
> <PUBCHEM_COMPOUND_CANONICALIZED>
1
> <PUBCHEM_CACTVS_COMPLEXITY>
602
> <PUBCHEM_CACTVS_HBOND_ACCEPTOR>
8
> <PUBCHEM_CACTVS_HBOND_DONOR>
2
> <PUBCHEM_CACTVS_ROTATABLE_BOND>
17
> <PUBCHEM_CACTVS_SUBSKEYS>
AAADcfB6OAAAAAAAAAAAAAAAAAAAASJAAAAkAAAAAAAAAEgAAAAAHgAQCAAACBTxgAcCCALABgAAAAAAAAAAAAAAAAAAAIAIAAATEAIAgAAmAAAHEACXAAHQ4IwAAAAAAAAAAAAAAAAAAAAAAAAAAAAAAA==
> <PUBCHEM_IUPAC_OPENEYE_NAME>
1-(dodecylamino)-3-[[(1S,2R,6R,9S)-4,4,11,11-tetramethyl-3,5,7,10,12-pentaoxatricyclo[7.3.0.02,6]dodecan-8-yl]methoxy]propan-2-ol
> <PUBCHEM_IUPAC_CAS_NAME>
1-(dodecylamino)-3-[[(1S,2R,6R,9S)-4,4,11,11-tetramethyl-3,5,7,10,12-pentaoxatricyclo[7.3.0.02,6]dodecan-8-yl]methoxy]-2-propanol
> <PUBCHEM_IUPAC_NAME_MARKUP>
1-(dodecylamino)-3-[[(1<I>S</I>,2<I>R</I>,6<I>R</I>,9<I>S</I>)-4,4,11,11-tetramethyl-3,5,7,10,12-pentaoxatricyclo[7.3.0.0<SUP>2,6</SUP>]dodecan-8-yl]methoxy]propan-2-ol
> <PUBCHEM_IUPAC_NAME>
1-(dodecylamino)-3-[[(1S,2R,6R,9S)-4,4,11,11-tetramethyl-3,5,7,10,12-pentaoxatricyclo[7.3.0.02,6]dodecan-8-yl]methoxy]propan-2-ol
> <PUBCHEM_IUPAC_SYSTEMATIC_NAME>
1-(dodecylamino)-3-[[(1S,2R,6R,9S)-4,4,11,11-tetramethyl-3,5,7,10,12-pentaoxatricyclo[7.3.0.02,6]dodecan-8-yl]methoxy]propan-2-ol
> <PUBCHEM_IUPAC_TRADITIONAL_NAME>
1-(laurylamino)-3-[[(1S,2R,6R,9S)-4,4,11,11-tetramethyl-3,5,7,10,12-pentaoxatricyclo[7.3.0.02,6]dodecan-8-yl]methoxy]propan-2-ol
> <PUBCHEM_IUPAC_INCHI>
InChI=1S/C27H51NO7/c1-6-7-8-9-10-11-12-13-14-15-16-28-17-20(29)18-30-19-21-22-23(33-26(2,3)32-22)24-25(31-21)35-27(4,5)34-24/h20-25,28-29H,6-19H2,1-5H3/t20?,21?,22-,23-,24+,25+/m0/s1
> <PUBCHEM_IUPAC_INCHIKEY>
HMGJYDZRFKTJNT-KSMJQTSNSA-N
> <PUBCHEM_XLOGP3_AA>
5.1
> <PUBCHEM_EXACT_MASS>
501.36655297
> <PUBCHEM_MOLECULAR_FORMULA>
C27H51NO7
> <PUBCHEM_MOLECULAR_WEIGHT>
501.7
> <PUBCHEM_OPENEYE_CAN_SMILES>
CCCCCCCCCCCCNCC(COCC1C2C(C3C(O1)OC(O3)(C)C)OC(O2)(C)C)O
> <PUBCHEM_OPENEYE_ISO_SMILES>
CCCCCCCCCCCCNCC(COCC1[C@H]2[C@@H]([C@@H]3[C@H](O1)OC(O3)(C)C)OC(O2)(C)C)O
> <PUBCHEM_CACTVS_TPSA>
87.6
> <PUBCHEM_MONOISOTOPIC_WEIGHT>
501.36655297
> <PUBCHEM_TOTAL_CHARGE>
0
> <PUBCHEM_HEAVY_ATOM_COUNT>
35
> <PUBCHEM_ATOM_DEF_STEREO_COUNT>
4
> <PUBCHEM_ATOM_UDEF_STEREO_COUNT>
2
> <PUBCHEM_BOND_DEF_STEREO_COUNT>
0
> <PUBCHEM_BOND_UDEF_STEREO_COUNT>
0
> <PUBCHEM_ISOTOPIC_ATOM_COUNT>
0
> <PUBCHEM_COMPONENT_COUNT>
1
> <PUBCHEM_CACTVS_TAUTO_COUNT>
-1
> <PUBCHEM_COORDINATE_TYPE>
1
5
255
> <PUBCHEM_BONDANNOTATIONS>
10  37  5
11  38  6
12  39  6
13  16  3
22  7  3
9  36  5
$$$$
