516706
  -OEChem-10302200292D
 34 36  0     1  0  0  0  0  0999 V2000
    7.2622   -1.0000    0.0000 S   0  0  0  0  0  0  0  0  0  0  0  0
   10.7263    1.0000    0.0000 F   0  0  0  0  0  0  0  0  0  0  0  0
    2.0000   -1.0241    0.0000 F   0  0  0  0  0  0  0  0  0  0  0  0
    2.0000    1.0241    0.0000 F   0  0  0  0  0  0  0  0  0  0  0  0
    5.5301   -2.0000    0.0000 O   0  0  0  0  0  0  0  0  0  0  0  0
    5.5301    2.0000    0.0000 O   0  5  0  0  0  0  0  0  0  0  0  0
    5.5301   -1.0000    0.0000 N   0  3  0  0  0  0  0  0  0  0  0  0
    5.5301    1.0000    0.0000 N   0  0  0  0  0  0  0  0  0  0  0  0
    8.1282   -0.5000    0.0000 C   0  0  3  0  0  0  0  0  0  0  0  0
    6.3961   -0.5000    0.0000 C   0  0  0  0  0  0  0  0  0  0  0  0
    8.9942   -1.0000    0.0000 C   0  0  0  0  0  0  0  0  0  0  0  0
    6.3961    0.5000    0.0000 C   0  0  0  0  0  0  0  0  0  0  0  0
    4.6641   -0.5000    0.0000 C   0  0  0  0  0  0  0  0  0  0  0  0
    4.6641    0.5000    0.0000 C   0  0  0  0  0  0  0  0  0  0  0  0
    8.1282    0.5000    0.0000 C   0  0  0  0  0  0  0  0  0  0  0  0
    9.8602   -0.5000    0.0000 C   0  0  0  0  0  0  0  0  0  0  0  0
    3.7702   -1.0347    0.0000 C   0  0  0  0  0  0  0  0  0  0  0  0
    3.7702    1.0347    0.0000 C   0  0  0  0  0  0  0  0  0  0  0  0
    7.2622    1.0000    0.0000 C   0  0  0  0  0  0  0  0  0  0  0  0
    8.9942    1.0000    0.0000 C   0  0  0  0  0  0  0  0  0  0  0  0
    9.8602    0.5000    0.0000 C   0  0  0  0  0  0  0  0  0  0  0  0
    2.8641   -0.5208    0.0000 C   0  0  0  0  0  0  0  0  0  0  0  0
    2.8641    0.5208    0.0000 C   0  0  0  0  0  0  0  0  0  0  0  0
    8.1282   -1.1200    0.0000 H   0  0  0  0  0  0  0  0  0  0  0  0
    8.5957   -1.4750    0.0000 H   0  0  0  0  0  0  0  0  0  0  0  0
    9.3928   -1.4750    0.0000 H   0  0  0  0  0  0  0  0  0  0  0  0
    7.5913    0.8100    0.0000 H   0  0  0  0  0  0  0  0  0  0  0  0
   10.3972   -0.8100    0.0000 H   0  0  0  0  0  0  0  0  0  0  0  0
    3.7773   -1.6546    0.0000 H   0  0  0  0  0  0  0  0  0  0  0  0
    3.7773    1.6546    0.0000 H   0  0  0  0  0  0  0  0  0  0  0  0
    7.5722    0.4631    0.0000 H   0  0  0  0  0  0  0  0  0  0  0  0
    7.7991    1.3100    0.0000 H   0  0  0  0  0  0  0  0  0  0  0  0
    6.9522    1.5369    0.0000 H   0  0  0  0  0  0  0  0  0  0  0  0
    8.9942    1.6200    0.0000 H   0  0  0  0  0  0  0  0  0  0  0  0
  1  9  1  0  0  0  0
  1 10  1  0  0  0  0
  2 21  1  0  0  0  0
  3 22  1  0  0  0  0
  4 23  1  0  0  0  0
  5  7  2  0  0  0  0
  6  8  1  0  0  0  0
  7 10  1  0  0  0  0
  7 13  1  0  0  0  0
  8 12  1  0  0  0  0
  8 14  1  0  0  0  0
  9 11  1  0  0  0  0
  9 15  1  0  0  0  0
  9 24  1  0  0  0  0
 10 12  2  0  0  0  0
 11 16  1  0  0  0  0
 11 25  1  0  0  0  0
 11 26  1  0  0  0  0
 12 19  1  0  0  0  0
 13 14  1  0  0  0  0
 13 17  2  0  0  0  0
 14 18  2  0  0  0  0
 15 20  2  0  0  0  0
 15 27  1  0  0  0  0
 16 21  2  0  0  0  0
 16 28  1  0  0  0  0
 17 22  1  0  0  0  0
 17 29  1  0  0  0  0
 18 23  1  0  0  0  0
 18 30  1  0  0  0  0
 19 31  1  0  0  0  0
 19 32  1  0  0  0  0
 19 33  1  0  0  0  0
 20 21  1  0  0  0  0
 20 34  1  0  0  0  0
 22 23  2  0  0  0  0
M  CHG  2   6  -1   7   1
M  END
> <PUBCHEM_COMPOUND_CID>
516706
> <PUBCHEM_COMPOUND_CANONICALIZED>
1
> <PUBCHEM_CACTVS_COMPLEXITY>
608
> <PUBCHEM_CACTVS_HBOND_ACCEPTOR>
7
> <PUBCHEM_CACTVS_HBOND_DONOR>
0
> <PUBCHEM_CACTVS_ROTATABLE_BOND>
2
> <PUBCHEM_CACTVS_SUBSKEYS>
AAADccBzMYBAAAAAAAAAAAAAAAAAAAAAAAAwQIAAAAAAAACBAAAAHQQEAAAACAiFUAiywIIQAAiBACRCQgCCAABhAhAoiAAAdIoIYCLgkZGUIAhggIDIyAcQAAAAAAAAAAAAACAAAAAAAAAAQAAAAAAAAA==
> <PUBCHEM_IUPAC_OPENEYE_NAME>
6,7-difluoro-2-(4-fluorocyclohexa-2,4-dien-1-yl)sulfanyl-3-methyl-4-oxido-quinoxalin-1-ium 1-oxide
> <PUBCHEM_IUPAC_CAS_NAME>
6,7-difluoro-2-[(4-fluoro-1-cyclohexa-2,4-dienyl)thio]-3-methyl-4-oxidoquinoxalin-1-ium 1-oxide
> <PUBCHEM_IUPAC_NAME_MARKUP>
6,7-difluoro-2-(4-fluorocyclohexa-2,4-dien-1-yl)sulfanyl-3-methyl-4-oxidoquinoxalin-1-ium 1-oxide
> <PUBCHEM_IUPAC_NAME>
6,7-difluoro-2-(4-fluorocyclohexa-2,4-dien-1-yl)sulfanyl-3-methyl-4-oxidoquinoxalin-1-ium 1-oxide
> <PUBCHEM_IUPAC_SYSTEMATIC_NAME>
6,7-bis(fluoranyl)-2-(4-fluoranylcyclohexa-2,4-dien-1-yl)sulfanyl-3-methyl-4-oxidanidyl-quinoxalin-1-ium 1-oxide
> <PUBCHEM_IUPAC_TRADITIONAL_NAME>
6,7-difluoro-2-[(4-fluorocyclohexa-2,4-dien-1-yl)thio]-3-methyl-4-oxido-quinoxalin-1-ium 1-oxide
> <PUBCHEM_IUPAC_INCHI>
InChI=1S/C15H11F3N2O2S/c1-8-15(23-10-4-2-9(16)3-5-10)20(22)14-7-12(18)11(17)6-13(14)19(8)21/h2-4,6-7,10H,5H2,1H3
> <PUBCHEM_IUPAC_INCHIKEY>
OJWRCHHTIZSLET-UHFFFAOYSA-N
> <PUBCHEM_XLOGP3_AA>
2.7
> <PUBCHEM_EXACT_MASS>
340.04933326
> <PUBCHEM_MOLECULAR_FORMULA>
C15H11F3N2O2S
> <PUBCHEM_MOLECULAR_WEIGHT>
340.3
> <PUBCHEM_OPENEYE_CAN_SMILES>
CC1=C([N+](=O)C2=CC(=C(C=C2N1[O-])F)F)SC3CC=C(C=C3)F
> <PUBCHEM_OPENEYE_ISO_SMILES>
CC1=C([N+](=O)C2=CC(=C(C=C2N1[O-])F)F)SC3CC=C(C=C3)F
> <PUBCHEM_CACTVS_TPSA>
71.7
> <PUBCHEM_MONOISOTOPIC_WEIGHT>
340.04933326
> <PUBCHEM_TOTAL_CHARGE>
0
> <PUBCHEM_HEAVY_ATOM_COUNT>
23
> <PUBCHEM_ATOM_DEF_STEREO_COUNT>
0
> <PUBCHEM_ATOM_UDEF_STEREO_COUNT>
1
> <PUBCHEM_BOND_DEF_STEREO_COUNT>
0
> <PUBCHEM_BOND_UDEF_STEREO_COUNT>
0
> <PUBCHEM_ISOTOPIC_ATOM_COUNT>
0
> <PUBCHEM_COMPONENT_COUNT>
1
> <PUBCHEM_CACTVS_TAUTO_COUNT>
-1
> <PUBCHEM_COORDINATE_TYPE>
1
5
255
> <PUBCHEM_BONDANNOTATIONS>
9  1  3
10  12  8
13  14  8
13  17  8
14  18  8
17  22  8
18  23  8
22  23  8
7  10  8
7  13  8
8  12  8
8  14  8
$$$$
