516726
  -OEChem-10302200292D
 88 91  0     1  0  0  0  0  0999 V2000
   10.5269    2.4106    0.0000 O   0  0  0  0  0  0  0  0  0  0  0  0
   11.4147   -2.1209    0.0000 O   0  0  0  0  0  0  0  0  0  0  0  0
   12.6498    2.1658    0.0000 O   0  0  0  0  0  0  0  0  0  0  0  0
    5.9998   -2.1417    0.0000 O   0  0  0  0  0  0  0  0  0  0  0  0
    8.7948    5.4106    0.0000 N   0  0  0  0  0  0  0  0  0  0  0  0
   13.1813   -5.1006    0.0000 N   0  0  0  0  0  0  0  0  0  0  0  0
    2.5357   -2.1284    0.0000 N   0  0  0  0  0  0  0  0  0  0  0  0
   10.5269   -0.5894    0.0000 C   0  0  3  0  0  0  0  0  0  0  0  0
    9.6608   -0.0894    0.0000 C   0  0  1  0  0  0  0  0  0  0  0  0
   11.3929   -0.0894    0.0000 C   0  0  1  0  0  0  0  0  0  0  0  0
    8.7508   -0.5963    0.0000 C   0  0  2  0  0  0  0  0  0  0  0  0
   11.3929    0.9106    0.0000 C   0  0  2  0  0  0  0  0  0  0  0  0
    8.7428   -1.6378    0.0000 C   0  0  3  0  0  0  0  0  0  0  0  0
    9.6608    0.9106    0.0000 C   0  0  0  0  0  0  0  0  0  0  0  0
   10.5269    1.4106    0.0000 C   0  0  2  0  0  0  0  0  0  0  0  0
   10.5429   -1.6309    0.0000 C   0  0  1  0  0  0  0  0  0  0  0  0
   12.3391   -0.3941    0.0000 C   0  0  0  0  0  0  0  0  0  0  0  0
   12.3391    1.2153    0.0000 C   0  0  2  0  0  0  0  0  0  0  0  0
    9.6449   -2.1587    0.0000 C   0  0  0  0  0  0  0  0  0  0  0  0
    7.8240   -0.0322    0.0000 C   0  0  0  0  0  0  0  0  0  0  0  0
   12.9227    0.4106    0.0000 C   0  0  0  0  0  0  0  0  0  0  0  0
    7.8074   -2.1876    0.0000 C   0  0  0  0  0  0  0  0  0  0  0  0
    8.7586    0.4037    0.0000 C   0  0  0  0  0  0  0  0  0  0  0  0
   11.3929    1.9106    0.0000 C   0  0  0  0  0  0  0  0  0  0  0  0
    6.8761   -0.5601    0.0000 C   0  0  0  0  0  0  0  0  0  0  0  0
    6.8678   -1.6451    0.0000 C   0  0  1  0  0  0  0  0  0  0  0  0
    9.6608    2.9106    0.0000 C   0  0  0  0  0  0  0  0  0  0  0  0
   11.4262   -3.1208    0.0000 C   0  0  0  0  0  0  0  0  0  0  0  0
    5.1357   -1.6384    0.0000 C   0  0  0  0  0  0  0  0  0  0  0  0
    9.6608    3.9106    0.0000 C   0  0  0  0  0  0  0  0  0  0  0  0
   12.2980   -3.6108    0.0000 C   0  0  0  0  0  0  0  0  0  0  0  0
    4.2678   -2.1351    0.0000 C   0  0  0  0  0  0  0  0  0  0  0  0
    8.7948    4.4106    0.0000 C   0  0  0  0  0  0  0  0  0  0  0  0
   12.3096   -4.6107    0.0000 C   0  0  0  0  0  0  0  0  0  0  0  0
    3.4037   -1.6317    0.0000 C   0  0  0  0  0  0  0  0  0  0  0  0
   11.0662   -0.8953    0.0000 H   0  0  0  0  0  0  0  0  0  0  0  0
   10.3970    0.3356    0.0000 H   0  0  0  0  0  0  0  0  0  0  0  0
   11.4828   -0.9346    0.0000 H   0  0  0  0  0  0  0  0  0  0  0  0
    8.7452   -2.2578    0.0000 H   0  0  0  0  0  0  0  0  0  0  0  0
    9.4488    1.4932    0.0000 H   0  0  0  0  0  0  0  0  0  0  0  0
    9.0503    0.8029    0.0000 H   0  0  0  0  0  0  0  0  0  0  0  0
    9.9899    1.7206    0.0000 H   0  0  0  0  0  0  0  0  0  0  0  0
   10.5489   -2.2509    0.0000 H   0  0  0  0  0  0  0  0  0  0  0  0
   12.0881   -0.9610    0.0000 H   0  0  0  0  0  0  0  0  0  0  0  0
   12.8765   -0.7034    0.0000 H   0  0  0  0  0  0  0  0  0  0  0  0
   12.9516    1.3115    0.0000 H   0  0  0  0  0  0  0  0  0  0  0  0
    9.2476   -2.6346    0.0000 H   0  0  0  0  0  0  0  0  0  0  0  0
   10.0459   -2.6316    0.0000 H   0  0  0  0  0  0  0  0  0  0  0  0
    8.2322    0.4345    0.0000 H   0  0  0  0  0  0  0  0  0  0  0  0
    7.4341    0.4499    0.0000 H   0  0  0  0  0  0  0  0  0  0  0  0
   13.3836   -0.0041    0.0000 H   0  0  0  0  0  0  0  0  0  0  0  0
   13.3836    0.8253    0.0000 H   0  0  0  0  0  0  0  0  0  0  0  0
    7.4101   -2.6636    0.0000 H   0  0  0  0  0  0  0  0  0  0  0  0
    8.2084   -2.6605    0.0000 H   0  0  0  0  0  0  0  0  0  0  0  0
    9.3785    0.3989    0.0000 H   0  0  0  0  0  0  0  0  0  0  0  0
    8.7633    1.0237    0.0000 H   0  0  0  0  0  0  0  0  0  0  0  0
    8.1386    0.4085    0.0000 H   0  0  0  0  0  0  0  0  0  0  0  0
   12.0129    1.9106    0.0000 H   0  0  0  0  0  0  0  0  0  0  0  0
   11.3929    2.5306    0.0000 H   0  0  0  0  0  0  0  0  0  0  0  0
   10.7729    1.9106    0.0000 H   0  0  0  0  0  0  0  0  0  0  0  0
    6.6716    0.0252    0.0000 H   0  0  0  0  0  0  0  0  0  0  0  0
    6.2645   -0.6615    0.0000 H   0  0  0  0  0  0  0  0  0  0  0  0
    6.8666   -2.2651    0.0000 H   0  0  0  0  0  0  0  0  0  0  0  0
   13.2565    2.2937    0.0000 H   0  0  0  0  0  0  0  0  0  0  0  0
    9.0503    3.0183    0.0000 H   0  0  0  0  0  0  0  0  0  0  0  0
    9.4488    2.3280    0.0000 H   0  0  0  0  0  0  0  0  0  0  0  0
   10.8145   -3.0202    0.0000 H   0  0  0  0  0  0  0  0  0  0  0  0
   11.2209   -3.7058    0.0000 H   0  0  0  0  0  0  0  0  0  0  0  0
    5.5361   -1.1650    0.0000 H   0  0  0  0  0  0  0  0  0  0  0  0
    4.7390   -1.1619    0.0000 H   0  0  0  0  0  0  0  0  0  0  0  0
   10.2714    3.8029    0.0000 H   0  0  0  0  0  0  0  0  0  0  0  0
    9.8729    4.4932    0.0000 H   0  0  0  0  0  0  0  0  0  0  0  0
   12.9098   -3.7113    0.0000 H   0  0  0  0  0  0  0  0  0  0  0  0
   12.5033   -3.0257    0.0000 H   0  0  0  0  0  0  0  0  0  0  0  0
    3.8674   -2.6085    0.0000 H   0  0  0  0  0  0  0  0  0  0  0  0
    4.6645   -2.6115    0.0000 H   0  0  0  0  0  0  0  0  0  0  0  0
    8.1842    4.5183    0.0000 H   0  0  0  0  0  0  0  0  0  0  0  0
    8.5828    3.8280    0.0000 H   0  0  0  0  0  0  0  0  0  0  0  0
   11.6978   -4.5101    0.0000 H   0  0  0  0  0  0  0  0  0  0  0  0
   12.1043   -5.1957    0.0000 H   0  0  0  0  0  0  0  0  0  0  0  0
    3.8040   -1.1583    0.0000 H   0  0  0  0  0  0  0  0  0  0  0  0
    3.0070   -1.1553    0.0000 H   0  0  0  0  0  0  0  0  0  0  0  0
    8.2579    5.7206    0.0000 H   0  0  0  0  0  0  0  0  0  0  0  0
    9.3318    5.7206    0.0000 H   0  0  0  0  0  0  0  0  0  0  0  0
   13.1885   -5.7206    0.0000 H   0  0  0  0  0  0  0  0  0  0  0  0
   13.7146   -4.7844    0.0000 H   0  0  0  0  0  0  0  0  0  0  0  0
    2.0000   -1.8163    0.0000 H   0  0  0  0  0  0  0  0  0  0  0  0
    2.5334   -2.7484    0.0000 H   0  0  0  0  0  0  0  0  0  0  0  0
 15  1  1  6  0  0  0
  1 27  1  0  0  0  0
  2 16  1  0  0  0  0
  2 28  1  0  0  0  0
 18  3  1  1  0  0  0
  3 64  1  0  0  0  0
 26  4  1  6  0  0  0
  4 29  1  0  0  0  0
  5 33  1  0  0  0  0
  5 83  1  0  0  0  0
  5 84  1  0  0  0  0
  6 34  1  0  0  0  0
  6 85  1  0  0  0  0
  6 86  1  0  0  0  0
  7 35  1  0  0  0  0
  7 87  1  0  0  0  0
  7 88  1  0  0  0  0
  8  9  1  0  0  0  0
  8 10  1  0  0  0  0
  8 16  1  0  0  0  0
  8 36  1  0  0  0  0
  9 11  1  0  0  0  0
  9 14  1  0  0  0  0
  9 37  1  6  0  0  0
 10 12  1  0  0  0  0
 10 17  1  0  0  0  0
 10 38  1  6  0  0  0
 11 13  1  0  0  0  0
 11 20  1  0  0  0  0
 11 23  1  1  0  0  0
 12 15  1  0  0  0  0
 12 18  1  0  0  0  0
 12 24  1  1  0  0  0
 13 19  1  0  0  0  0
 13 22  1  0  0  0  0
 13 39  1  0  0  0  0
 14 15  1  0  0  0  0
 14 40  1  0  0  0  0
 14 41  1  0  0  0  0
 15 42  1  0  0  0  0
 16 19  1  0  0  0  0
 16 43  1  0  0  0  0
 17 21  1  0  0  0  0
 17 44  1  0  0  0  0
 17 45  1  0  0  0  0
 18 21  1  0  0  0  0
 18 46  1  0  0  0  0
 19 47  1  0  0  0  0
 19 48  1  0  0  0  0
 20 25  1  0  0  0  0
 20 49  1  0  0  0  0
 20 50  1  0  0  0  0
 21 51  1  0  0  0  0
 21 52  1  0  0  0  0
 22 26  1  0  0  0  0
 22 53  1  0  0  0  0
 22 54  1  0  0  0  0
 23 55  1  0  0  0  0
 23 56  1  0  0  0  0
 23 57  1  0  0  0  0
 24 58  1  0  0  0  0
 24 59  1  0  0  0  0
 24 60  1  0  0  0  0
 25 26  1  0  0  0  0
 25 61  1  0  0  0  0
 25 62  1  0  0  0  0
 26 63  1  0  0  0  0
 27 30  1  0  0  0  0
 27 65  1  0  0  0  0
 27 66  1  0  0  0  0
 28 31  1  0  0  0  0
 28 67  1  0  0  0  0
 28 68  1  0  0  0  0
 29 32  1  0  0  0  0
 29 69  1  0  0  0  0
 29 70  1  0  0  0  0
 30 33  1  0  0  0  0
 30 71  1  0  0  0  0
 30 72  1  0  0  0  0
 31 34  1  0  0  0  0
 31 73  1  0  0  0  0
 31 74  1  0  0  0  0
 32 35  1  0  0  0  0
 32 75  1  0  0  0  0
 32 76  1  0  0  0  0
 33 77  1  0  0  0  0
 33 78  1  0  0  0  0
 34 79  1  0  0  0  0
 34 80  1  0  0  0  0
 35 81  1  0  0  0  0
 35 82  1  0  0  0  0
M  END
> <PUBCHEM_COMPOUND_CID>
516726
> <PUBCHEM_COMPOUND_CANONICALIZED>
1
> <PUBCHEM_CACTVS_COMPLEXITY>
668
> <PUBCHEM_CACTVS_HBOND_ACCEPTOR>
7
> <PUBCHEM_CACTVS_HBOND_DONOR>
4
> <PUBCHEM_CACTVS_ROTATABLE_BOND>
12
> <PUBCHEM_CACTVS_SUBSKEYS>
AAADcfB7OAAAAAAAAAAAAAAAAAAAAYAAAAAwYMAAAAAAAGDAAAAAHgAQCAAADxThgAYCAABABgAAAAAAAAAAAAAAAAAAAIAAAAAAEAIAAAACQAAHEAAAAAGA4PwPgAAAAAAAAADAAAYAADAAAIAADAAAAA==
> <PUBCHEM_IUPAC_OPENEYE_NAME>
(3R,7R,9S,10S,12S,13S,14S,17S)-3,7,12-tris(3-aminopropoxy)-10,13-dimethyl-2,3,4,5,6,7,8,9,11,12,14,15,16,17-tetradecahydro-1H-cyclopenta[a]phenanthren-17-ol
> <PUBCHEM_IUPAC_CAS_NAME>
(3R,7R,9S,10S,12S,13S,14S,17S)-3,7,12-tris(3-aminopropoxy)-10,13-dimethyl-2,3,4,5,6,7,8,9,11,12,14,15,16,17-tetradecahydro-1H-cyclopenta[a]phenanthren-17-ol
> <PUBCHEM_IUPAC_NAME_MARKUP>
(3<I>R</I>,7<I>R</I>,9<I>S</I>,10<I>S</I>,12<I>S</I>,13<I>S</I>,14<I>S</I>,17<I>S</I>)-3,7,12-tris(3-aminopropoxy)-10,13-dimethyl-2,3,4,5,6,7,8,9,11,12,14,15,16,17-tetradecahydro-1<I>H</I>-cyclopenta[a]phenanthren-17-ol
> <PUBCHEM_IUPAC_NAME>
(3R,7R,9S,10S,12S,13S,14S,17S)-3,7,12-tris(3-aminopropoxy)-10,13-dimethyl-2,3,4,5,6,7,8,9,11,12,14,15,16,17-tetradecahydro-1H-cyclopenta[a]phenanthren-17-ol
> <PUBCHEM_IUPAC_SYSTEMATIC_NAME>
(3R,7R,9S,10S,12S,13S,14S,17S)-3,7,12-tris(3-azanylpropoxy)-10,13-dimethyl-2,3,4,5,6,7,8,9,11,12,14,15,16,17-tetradecahydro-1H-cyclopenta[a]phenanthren-17-ol
> <PUBCHEM_IUPAC_TRADITIONAL_NAME>
(3R,7R,9S,10S,12S,13S,14S,17S)-3,7,12-tris(3-aminopropoxy)-10,13-dimethyl-2,3,4,5,6,7,8,9,11,12,14,15,16,17-tetradecahydro-1H-cyclopenta[a]phenanthren-17-ol
> <PUBCHEM_IUPAC_INCHI>
InChI=1S/C28H53N3O4/c1-27-9-8-20(33-13-3-10-29)16-19(27)17-23(34-14-4-11-30)26-21-6-7-24(32)28(21,2)25(18-22(26)27)35-15-5-12-31/h19-26,32H,3-18,29-31H2,1-2H3/t19?,20-,21+,22+,23-,24+,25+,26?,27+,28+/m1/s1
> <PUBCHEM_IUPAC_INCHIKEY>
AVNWZLQHCNTTKU-SQMWKTAMSA-N
> <PUBCHEM_XLOGP3_AA>
1.5
> <PUBCHEM_EXACT_MASS>
495.40360718
> <PUBCHEM_MOLECULAR_FORMULA>
C28H53N3O4
> <PUBCHEM_MOLECULAR_WEIGHT>
495.7
> <PUBCHEM_OPENEYE_CAN_SMILES>
CC12CCC(CC1CC(C3C2CC(C4(C3CCC4O)C)OCCCN)OCCCN)OCCCN
> <PUBCHEM_OPENEYE_ISO_SMILES>
C[C@]12CC[C@H](CC1C[C@H](C3[C@@H]2C[C@@H]([C@]4([C@H]3CC[C@@H]4O)C)OCCCN)OCCCN)OCCCN
> <PUBCHEM_CACTVS_TPSA>
126
> <PUBCHEM_MONOISOTOPIC_WEIGHT>
495.40360718
> <PUBCHEM_TOTAL_CHARGE>
0
> <PUBCHEM_HEAVY_ATOM_COUNT>
35
> <PUBCHEM_ATOM_DEF_STEREO_COUNT>
8
> <PUBCHEM_ATOM_UDEF_STEREO_COUNT>
2
> <PUBCHEM_BOND_DEF_STEREO_COUNT>
0
> <PUBCHEM_BOND_UDEF_STEREO_COUNT>
0
> <PUBCHEM_ISOTOPIC_ATOM_COUNT>
0
> <PUBCHEM_COMPONENT_COUNT>
1
> <PUBCHEM_CACTVS_TAUTO_COUNT>
-1
> <PUBCHEM_COORDINATE_TYPE>
1
5
255
> <PUBCHEM_BONDANNOTATIONS>
15  1  6
10  38  6
11  23  5
12  24  5
13  22  3
18  3  5
26  4  6
8  16  3
9  37  6
$$$$
