516744
  -OEChem-10302200292D
 45 47  0     1  0  0  0  0  0999 V2000
    4.5411    2.0313    0.0000 O   0  0  0  0  0  0  0  0  0  0  0  0
    4.4131   -0.6424    0.0000 O   0  0  0  0  0  0  0  0  0  0  0  0
    5.4641    3.6190    0.0000 O   0  0  0  0  0  0  0  0  0  0  0  0
    3.7320    6.6190    0.0000 O   0  0  0  0  0  0  0  0  0  0  0  0
    5.9954   -1.3468    0.0000 O   0  0  0  0  0  0  0  0  0  0  0  0
    3.7807   -4.1920    0.0000 O   0  0  0  0  0  0  0  0  0  0  0  0
    3.7320    3.6190    0.0000 N   0  0  0  0  0  0  0  0  0  0  0  0
    4.5981    5.1190    0.0000 N   0  0  0  0  0  0  0  0  0  0  0  0
    5.1819   -3.1739    0.0000 N   0  0  0  0  0  0  0  0  0  0  0  0
    6.3575   -4.7920    0.0000 N   0  0  0  0  0  0  0  0  0  0  0  0
    6.5386   -6.5145    0.0000 N   0  0  0  0  0  0  0  0  0  0  0  0
    3.7320    2.6190    0.0000 C   0  0  3  0  0  0  0  0  0  0  0  0
    4.2320    1.0802    0.0000 C   0  0  3  0  0  0  0  0  0  0  0  0
    2.9230    2.0313    0.0000 C   0  0  0  0  0  0  0  0  0  0  0  0
    3.2320    1.0802    0.0000 C   0  0  0  0  0  0  0  0  0  0  0  0
    4.8198    0.2712    0.0000 C   0  0  0  0  0  0  0  0  0  0  0  0
    2.8660    4.1190    0.0000 C   0  0  0  0  0  0  0  0  0  0  0  0
    4.5981    4.1190    0.0000 C   0  0  0  0  0  0  0  0  0  0  0  0
    2.8660    5.1190    0.0000 C   0  0  0  0  0  0  0  0  0  0  0  0
    3.7320    5.6190    0.0000 C   0  0  0  0  0  0  0  0  0  0  0  0
    2.0000    5.6190    0.0000 C   0  0  0  0  0  0  0  0  0  0  0  0
    5.0009   -1.4514    0.0000 C   0  0  0  0  0  0  0  0  0  0  0  0
    4.5942   -2.3649    0.0000 C   0  0  0  0  0  0  0  0  0  0  0  0
    4.7752   -4.0875    0.0000 C   0  0  0  0  0  0  0  0  0  0  0  0
    5.3630   -4.8965    0.0000 C   0  0  0  0  0  0  0  0  0  0  0  0
    4.9562   -5.8100    0.0000 C   0  0  0  0  0  0  0  0  0  0  0  0
    5.5440   -6.6190    0.0000 C   0  0  0  0  0  0  0  0  0  0  0  0
    6.9453   -5.6010    0.0000 C   0  0  0  0  0  0  0  0  0  0  0  0
    4.2845    2.9005    0.0000 H   0  0  0  0  0  0  0  0  0  0  0  0
    4.8444    1.1772    0.0000 H   0  0  0  0  0  0  0  0  0  0  0  0
    2.3334    2.2229    0.0000 H   0  0  0  0  0  0  0  0  0  0  0  0
    2.8676    0.5786    0.0000 H   0  0  0  0  0  0  0  0  0  0  0  0
    5.3338   -0.0755    0.0000 H   0  0  0  0  0  0  0  0  0  0  0  0
    5.2505    0.7172    0.0000 H   0  0  0  0  0  0  0  0  0  0  0  0
    2.3291    3.8090    0.0000 H   0  0  0  0  0  0  0  0  0  0  0  0
    5.1350    5.4290    0.0000 H   0  0  0  0  0  0  0  0  0  0  0  0
    2.3100    6.1560    0.0000 H   0  0  0  0  0  0  0  0  0  0  0  0
    1.4631    5.9290    0.0000 H   0  0  0  0  0  0  0  0  0  0  0  0
    1.6900    5.0821    0.0000 H   0  0  0  0  0  0  0  0  0  0  0  0
    4.0801   -2.0182    0.0000 H   0  0  0  0  0  0  0  0  0  0  0  0
    4.1635   -2.8109    0.0000 H   0  0  0  0  0  0  0  0  0  0  0  0
    5.7985   -3.1091    0.0000 H   0  0  0  0  0  0  0  0  0  0  0  0
    4.3396   -5.8748    0.0000 H   0  0  0  0  0  0  0  0  0  0  0  0
    5.2918   -7.1854    0.0000 H   0  0  0  0  0  0  0  0  0  0  0  0
    7.5619   -5.5362    0.0000 H   0  0  0  0  0  0  0  0  0  0  0  0
  1 12  1  0  0  0  0
  1 13  1  0  0  0  0
  2 16  1  0  0  0  0
  2 22  1  0  0  0  0
  3 18  2  0  0  0  0
  4 20  2  0  0  0  0
  5 22  2  0  0  0  0
  6 24  2  0  0  0  0
  7 12  1  0  0  0  0
  7 17  1  0  0  0  0
  7 18  1  0  0  0  0
  8 18  1  0  0  0  0
  8 20  1  0  0  0  0
  8 36  1  0  0  0  0
  9 23  1  0  0  0  0
  9 24  1  0  0  0  0
  9 42  1  0  0  0  0
 10 25  2  0  0  0  0
 10 28  1  0  0  0  0
 11 27  1  0  0  0  0
 11 28  2  0  0  0  0
 12 14  1  0  0  0  0
 12 29  1  0  0  0  0
 13 15  1  0  0  0  0
 13 16  1  0  0  0  0
 13 30  1  0  0  0  0
 14 15  2  0  0  0  0
 14 31  1  0  0  0  0
 15 32  1  0  0  0  0
 16 33  1  0  0  0  0
 16 34  1  0  0  0  0
 17 19  2  0  0  0  0
 17 35  1  0  0  0  0
 19 20  1  0  0  0  0
 19 21  1  0  0  0  0
 21 37  1  0  0  0  0
 21 38  1  0  0  0  0
 21 39  1  0  0  0  0
 22 23  1  0  0  0  0
 23 40  1  0  0  0  0
 23 41  1  0  0  0  0
 24 25  1  0  0  0  0
 25 26  1  0  0  0  0
 26 27  2  0  0  0  0
 26 43  1  0  0  0  0
 27 44  1  0  0  0  0
 28 45  1  0  0  0  0
M  END
> <PUBCHEM_COMPOUND_CID>
516744
> <PUBCHEM_COMPOUND_CANONICALIZED>
1
> <PUBCHEM_CACTVS_COMPLEXITY>
721
> <PUBCHEM_CACTVS_HBOND_ACCEPTOR>
8
> <PUBCHEM_CACTVS_HBOND_DONOR>
2
> <PUBCHEM_CACTVS_ROTATABLE_BOND>
7
> <PUBCHEM_CACTVS_SUBSKEYS>
AAADceB7uAAAAAAAAAAAAAAAAAAAAQAAAAAsQAAAAAAAAAABgAAAHgAQAAAADBzhlgY/mJfIFACoAzX3fACAgCk3AqAJWKG4ZFiDbJBA7eEfFQhIRyLaYeIEAAAAAAAAAAAAAAAAAAAAAAAAAAAAAAAAAA==
> <PUBCHEM_IUPAC_OPENEYE_NAME>
[5-(5-methyl-2,4-dioxo-pyrimidin-1-yl)-2,5-dihydrofuran-2-yl]methyl 2-(pyrimidine-4-carbonylamino)acetate
> <PUBCHEM_IUPAC_CAS_NAME>
2-[[oxo(4-pyrimidinyl)methyl]amino]acetic acid [5-(5-methyl-2,4-dioxo-1-pyrimidinyl)-2,5-dihydrofuran-2-yl]methyl ester
> <PUBCHEM_IUPAC_NAME_MARKUP>
[5-(5-methyl-2,4-dioxopyrimidin-1-yl)-2,5-dihydrofuran-2-yl]methyl 2-(pyrimidine-4-carbonylamino)acetate
> <PUBCHEM_IUPAC_NAME>
[5-(5-methyl-2,4-dioxopyrimidin-1-yl)-2,5-dihydrofuran-2-yl]methyl 2-(pyrimidine-4-carbonylamino)acetate
> <PUBCHEM_IUPAC_SYSTEMATIC_NAME>
[5-[5-methyl-2,4-bis(oxidanylidene)pyrimidin-1-yl]-2,5-dihydrofuran-2-yl]methyl 2-(pyrimidin-4-ylcarbonylamino)ethanoate
> <PUBCHEM_IUPAC_TRADITIONAL_NAME>
2-(pyrimidine-4-carbonylamino)acetic acid [5-(2,4-diketo-5-methyl-pyrimidin-1-yl)-2,5-dihydrofuran-2-yl]methyl ester
> <PUBCHEM_IUPAC_INCHI>
InChI=1S/C17H17N5O6/c1-10-7-22(17(26)21-15(10)24)13-3-2-11(28-13)8-27-14(23)6-19-16(25)12-4-5-18-9-20-12/h2-5,7,9,11,13H,6,8H2,1H3,(H,19,25)(H,21,24,26)
> <PUBCHEM_IUPAC_INCHIKEY>
XJSCGSRINVOPKW-UHFFFAOYSA-N
> <PUBCHEM_XLOGP3>
-0.6
> <PUBCHEM_EXACT_MASS>
387.11788328
> <PUBCHEM_MOLECULAR_FORMULA>
C17H17N5O6
> <PUBCHEM_MOLECULAR_WEIGHT>
387.3
> <PUBCHEM_OPENEYE_CAN_SMILES>
CC1=CN(C(=O)NC1=O)C2C=CC(O2)COC(=O)CNC(=O)C3=NC=NC=C3
> <PUBCHEM_OPENEYE_ISO_SMILES>
CC1=CN(C(=O)NC1=O)C2C=CC(O2)COC(=O)CNC(=O)C3=NC=NC=C3
> <PUBCHEM_CACTVS_TPSA>
140
> <PUBCHEM_MONOISOTOPIC_WEIGHT>
387.11788328
> <PUBCHEM_TOTAL_CHARGE>
0
> <PUBCHEM_HEAVY_ATOM_COUNT>
28
> <PUBCHEM_ATOM_DEF_STEREO_COUNT>
0
> <PUBCHEM_ATOM_UDEF_STEREO_COUNT>
2
> <PUBCHEM_BOND_DEF_STEREO_COUNT>
0
> <PUBCHEM_BOND_UDEF_STEREO_COUNT>
0
> <PUBCHEM_ISOTOPIC_ATOM_COUNT>
0
> <PUBCHEM_COMPONENT_COUNT>
1
> <PUBCHEM_CACTVS_TAUTO_COUNT>
-1
> <PUBCHEM_COORDINATE_TYPE>
1
5
255
> <PUBCHEM_BONDANNOTATIONS>
10  25  8
10  28  8
11  27  8
11  28  8
13  16  3
17  19  8
19  20  8
25  26  8
26  27  8
12  7  3
7  17  8
7  18  8
8  18  8
8  20  8
$$$$
