516730
  -OEChem-10302200292D
143146  0     1  0  0  0  0  0999 V2000
   12.2589    1.4727    0.0000 O   0  0  0  0  0  0  0  0  0  0  0  0
   13.1467   -3.0588    0.0000 O   0  0  0  0  0  0  0  0  0  0  0  0
    7.7318   -3.0796    0.0000 O   0  0  0  0  0  0  0  0  0  0  0  0
   16.9602    3.5414    0.0000 N   0  0  0  0  0  0  0  0  0  0  0  0
   10.5269    4.4727    0.0000 N   0  0  0  0  0  0  0  0  0  0  0  0
   14.9133   -6.0385    0.0000 N   0  0  0  0  0  0  0  0  0  0  0  0
    4.2678   -3.0663    0.0000 N   0  0  0  0  0  0  0  0  0  0  0  0
    9.6608    5.9727    0.0000 N   0  0  0  0  0  0  0  0  0  0  0  0
    8.7948    4.4727    0.0000 N   0  0  0  0  0  0  0  0  0  0  0  0
   15.7967   -7.5284    0.0000 N   0  0  0  0  0  0  0  0  0  0  0  0
   14.0647   -7.5484    0.0000 N   0  0  0  0  0  0  0  0  0  0  0  0
    2.5357   -3.0596    0.0000 N   0  0  0  0  0  0  0  0  0  0  0  0
    3.4075   -1.5629    0.0000 N   0  0  0  0  0  0  0  0  0  0  0  0
   13.1249   -0.0273    0.0000 C   0  0  1  0  0  0  0  0  0  0  0  0
   13.1249   -1.0273    0.0000 C   0  0  2  0  0  0  0  0  0  0  0  0
   12.2589   -1.5273    0.0000 C   0  0  3  0  0  0  0  0  0  0  0  0
   11.3929   -1.0273    0.0000 C   0  0  1  0  0  0  0  0  0  0  0  0
   10.4829   -1.5341    0.0000 C   0  0  2  0  0  0  0  0  0  0  0  0
   14.0712    0.2774    0.0000 C   0  0  2  0  0  0  0  0  0  0  0  0
   12.2589    0.4727    0.0000 C   0  0  2  0  0  0  0  0  0  0  0  0
   11.3929   -0.0273    0.0000 C   0  0  0  0  0  0  0  0  0  0  0  0
   10.4749   -2.5757    0.0000 C   0  0  3  0  0  0  0  0  0  0  0  0
   12.2750   -2.5688    0.0000 C   0  0  1  0  0  0  0  0  0  0  0  0
   14.0712   -1.3320    0.0000 C   0  0  0  0  0  0  0  0  0  0  0  0
   14.6548   -0.5273    0.0000 C   0  0  0  0  0  0  0  0  0  0  0  0
   11.3769   -3.0966    0.0000 C   0  0  0  0  0  0  0  0  0  0  0  0
    9.5561   -0.9701    0.0000 C   0  0  0  0  0  0  0  0  0  0  0  0
   13.1249    0.9727    0.0000 C   0  0  0  0  0  0  0  0  0  0  0  0
   14.3818    1.2280    0.0000 C   0  0  1  0  0  0  0  0  0  0  0  0
    9.5394   -3.1255    0.0000 C   0  0  0  0  0  0  0  0  0  0  0  0
   10.4906   -0.5342    0.0000 C   0  0  0  0  0  0  0  0  0  0  0  0
    8.6082   -1.4980    0.0000 C   0  0  0  0  0  0  0  0  0  0  0  0
    8.5998   -2.5830    0.0000 C   0  0  1  0  0  0  0  0  0  0  0  0
   15.3603    1.4342    0.0000 C   0  0  0  0  0  0  0  0  0  0  0  0
   13.7140    1.9723    0.0000 C   0  0  0  0  0  0  0  0  0  0  0  0
   11.3929    1.9727    0.0000 C   0  0  0  0  0  0  0  0  0  0  0  0
   13.1583   -4.0587    0.0000 C   0  0  0  0  0  0  0  0  0  0  0  0
   15.6710    2.3847    0.0000 C   0  0  0  0  0  0  0  0  0  0  0  0
   11.3929    2.9727    0.0000 C   0  0  0  0  0  0  0  0  0  0  0  0
   14.0300   -4.5486    0.0000 C   0  0  0  0  0  0  0  0  0  0  0  0
    6.8678   -2.5763    0.0000 C   0  0  0  0  0  0  0  0  0  0  0  0
   16.6495    2.5909    0.0000 C   0  0  0  0  0  0  0  0  0  0  0  0
   10.5269    3.4727    0.0000 C   0  0  0  0  0  0  0  0  0  0  0  0
    5.9998   -3.0730    0.0000 C   0  0  0  0  0  0  0  0  0  0  0  0
   14.0416   -5.5486    0.0000 C   0  0  0  0  0  0  0  0  0  0  0  0
    5.1357   -2.5696    0.0000 C   0  0  0  0  0  0  0  0  0  0  0  0
   17.9387    3.7477    0.0000 C   0  0  0  0  0  0  0  0  0  0  0  0
   18.2493    4.6982    0.0000 C   0  0  0  0  0  0  0  0  0  0  0  0
    9.6608    4.9727    0.0000 C   0  0  0  0  0  0  0  0  0  0  0  0
   14.9249   -7.0385    0.0000 C   0  0  0  0  0  0  0  0  0  0  0  0
   19.2278    4.9044    0.0000 C   0  0  0  0  0  0  0  0  0  0  0  0
    3.4037   -2.5629    0.0000 C   0  0  0  0  0  0  0  0  0  0  0  0
   19.5385    5.8549    0.0000 C   0  0  0  0  0  0  0  0  0  0  0  0
   20.5170    6.0611    0.0000 C   0  0  0  0  0  0  0  0  0  0  0  0
   20.8277    7.0117    0.0000 C   0  0  0  0  0  0  0  0  0  0  0  0
   21.8062    7.2179    0.0000 C   0  0  0  0  0  0  0  0  0  0  0  0
   22.1168    8.1684    0.0000 C   0  0  0  0  0  0  0  0  0  0  0  0
   13.2149   -1.8725    0.0000 H   0  0  0  0  0  0  0  0  0  0  0  0
   12.7982   -1.8331    0.0000 H   0  0  0  0  0  0  0  0  0  0  0  0
   12.1290   -0.6023    0.0000 H   0  0  0  0  0  0  0  0  0  0  0  0
   14.9109    0.4093    0.0000 H   0  0  0  0  0  0  0  0  0  0  0  0
   11.7220    0.7827    0.0000 H   0  0  0  0  0  0  0  0  0  0  0  0
   11.1808    0.5553    0.0000 H   0  0  0  0  0  0  0  0  0  0  0  0
   10.7823   -0.1350    0.0000 H   0  0  0  0  0  0  0  0  0  0  0  0
   10.4772   -3.1957    0.0000 H   0  0  0  0  0  0  0  0  0  0  0  0
   12.8077   -2.2516    0.0000 H   0  0  0  0  0  0  0  0  0  0  0  0
   13.8201   -1.8989    0.0000 H   0  0  0  0  0  0  0  0  0  0  0  0
   14.6085   -1.6412    0.0000 H   0  0  0  0  0  0  0  0  0  0  0  0
   15.1156   -0.9420    0.0000 H   0  0  0  0  0  0  0  0  0  0  0  0
   15.1156   -0.1126    0.0000 H   0  0  0  0  0  0  0  0  0  0  0  0
   10.9796   -3.5725    0.0000 H   0  0  0  0  0  0  0  0  0  0  0  0
   11.7779   -3.5694    0.0000 H   0  0  0  0  0  0  0  0  0  0  0  0
    9.9642   -0.5034    0.0000 H   0  0  0  0  0  0  0  0  0  0  0  0
    9.1661   -0.4880    0.0000 H   0  0  0  0  0  0  0  0  0  0  0  0
   13.7449    0.9727    0.0000 H   0  0  0  0  0  0  0  0  0  0  0  0
   13.1249    1.5927    0.0000 H   0  0  0  0  0  0  0  0  0  0  0  0
   12.5049    0.9727    0.0000 H   0  0  0  0  0  0  0  0  0  0  0  0
   14.5744    1.8173    0.0000 H   0  0  0  0  0  0  0  0  0  0  0  0
    9.1421   -3.6014    0.0000 H   0  0  0  0  0  0  0  0  0  0  0  0
    9.9404   -3.5984    0.0000 H   0  0  0  0  0  0  0  0  0  0  0  0
   11.1106   -0.5389    0.0000 H   0  0  0  0  0  0  0  0  0  0  0  0
   10.4954    0.0858    0.0000 H   0  0  0  0  0  0  0  0  0  0  0  0
    9.8706   -0.5294    0.0000 H   0  0  0  0  0  0  0  0  0  0  0  0
    8.4036   -0.9127    0.0000 H   0  0  0  0  0  0  0  0  0  0  0  0
    7.9965   -1.5994    0.0000 H   0  0  0  0  0  0  0  0  0  0  0  0
    8.5986   -3.2030    0.0000 H   0  0  0  0  0  0  0  0  0  0  0  0
   15.3809    0.8145    0.0000 H   0  0  0  0  0  0  0  0  0  0  0  0
   15.9741    1.3468    0.0000 H   0  0  0  0  0  0  0  0  0  0  0  0
   14.1754    2.3863    0.0000 H   0  0  0  0  0  0  0  0  0  0  0  0
   13.2999    2.4337    0.0000 H   0  0  0  0  0  0  0  0  0  0  0  0
   13.2525    1.5582    0.0000 H   0  0  0  0  0  0  0  0  0  0  0  0
   10.7823    2.0804    0.0000 H   0  0  0  0  0  0  0  0  0  0  0  0
   11.1808    1.3901    0.0000 H   0  0  0  0  0  0  0  0  0  0  0  0
   12.5465   -3.9581    0.0000 H   0  0  0  0  0  0  0  0  0  0  0  0
   12.9530   -4.6437    0.0000 H   0  0  0  0  0  0  0  0  0  0  0  0
   15.6504    3.0044    0.0000 H   0  0  0  0  0  0  0  0  0  0  0  0
   15.0572    2.4720    0.0000 H   0  0  0  0  0  0  0  0  0  0  0  0
   12.0035    2.8650    0.0000 H   0  0  0  0  0  0  0  0  0  0  0  0
   11.6049    3.5553    0.0000 H   0  0  0  0  0  0  0  0  0  0  0  0
   14.6418   -4.6492    0.0000 H   0  0  0  0  0  0  0  0  0  0  0  0
   14.2353   -3.9636    0.0000 H   0  0  0  0  0  0  0  0  0  0  0  0
    7.2681   -2.1029    0.0000 H   0  0  0  0  0  0  0  0  0  0  0  0
    6.4711   -2.0998    0.0000 H   0  0  0  0  0  0  0  0  0  0  0  0
   16.6701    1.9713    0.0000 H   0  0  0  0  0  0  0  0  0  0  0  0
   17.2633    2.5036    0.0000 H   0  0  0  0  0  0  0  0  0  0  0  0
    9.9163    3.5804    0.0000 H   0  0  0  0  0  0  0  0  0  0  0  0
   10.3148    2.8901    0.0000 H   0  0  0  0  0  0  0  0  0  0  0  0
    5.5995   -3.5464    0.0000 H   0  0  0  0  0  0  0  0  0  0  0  0
    6.3965   -3.5494    0.0000 H   0  0  0  0  0  0  0  0  0  0  0  0
   13.4298   -5.4480    0.0000 H   0  0  0  0  0  0  0  0  0  0  0  0
   13.8363   -6.1336    0.0000 H   0  0  0  0  0  0  0  0  0  0  0  0
   16.5461    4.0029    0.0000 H   0  0  0  0  0  0  0  0  0  0  0  0
    5.5361   -2.0962    0.0000 H   0  0  0  0  0  0  0  0  0  0  0  0
    4.7390   -2.0931    0.0000 H   0  0  0  0  0  0  0  0  0  0  0  0
   17.9592    3.1280    0.0000 H   0  0  0  0  0  0  0  0  0  0  0  0
   18.5525    3.6603    0.0000 H   0  0  0  0  0  0  0  0  0  0  0  0
   18.2288    5.3178    0.0000 H   0  0  0  0  0  0  0  0  0  0  0  0
   17.6355    4.7855    0.0000 H   0  0  0  0  0  0  0  0  0  0  0  0
   19.2484    4.2847    0.0000 H   0  0  0  0  0  0  0  0  0  0  0  0
   19.8416    4.8170    0.0000 H   0  0  0  0  0  0  0  0  0  0  0  0
    9.1239    6.2827    0.0000 H   0  0  0  0  0  0  0  0  0  0  0  0
   10.1978    6.2827    0.0000 H   0  0  0  0  0  0  0  0  0  0  0  0
    8.2579    4.7827    0.0000 H   0  0  0  0  0  0  0  0  0  0  0  0
    8.7948    3.8527    0.0000 H   0  0  0  0  0  0  0  0  0  0  0  0
   19.5179    6.4746    0.0000 H   0  0  0  0  0  0  0  0  0  0  0  0
   18.9247    5.9423    0.0000 H   0  0  0  0  0  0  0  0  0  0  0  0
   15.8038   -8.1484    0.0000 H   0  0  0  0  0  0  0  0  0  0  0  0
   16.3300   -7.2122    0.0000 H   0  0  0  0  0  0  0  0  0  0  0  0
   14.0719   -8.1684    0.0000 H   0  0  0  0  0  0  0  0  0  0  0  0
   13.5242   -7.2447    0.0000 H   0  0  0  0  0  0  0  0  0  0  0  0
   20.5376    5.4415    0.0000 H   0  0  0  0  0  0  0  0  0  0  0  0
   21.1308    5.9738    0.0000 H   0  0  0  0  0  0  0  0  0  0  0  0
    2.0000   -2.7475    0.0000 H   0  0  0  0  0  0  0  0  0  0  0  0
    2.5334   -3.6796    0.0000 H   0  0  0  0  0  0  0  0  0  0  0  0
    2.8718   -1.2509    0.0000 H   0  0  0  0  0  0  0  0  0  0  0  0
    3.9457   -1.2550    0.0000 H   0  0  0  0  0  0  0  0  0  0  0  0
   20.8071    7.6313    0.0000 H   0  0  0  0  0  0  0  0  0  0  0  0
   20.2138    7.0990    0.0000 H   0  0  0  0  0  0  0  0  0  0  0  0
   21.8267    6.5982    0.0000 H   0  0  0  0  0  0  0  0  0  0  0  0
   22.4200    7.1305    0.0000 H   0  0  0  0  0  0  0  0  0  0  0  0
   22.7062    7.9758    0.0000 H   0  0  0  0  0  0  0  0  0  0  0  0
   22.3094    8.7577    0.0000 H   0  0  0  0  0  0  0  0  0  0  0  0
   21.5275    8.3610    0.0000 H   0  0  0  0  0  0  0  0  0  0  0  0
 20  1  1  6  0  0  0
  1 36  1  0  0  0  0
  2 23  1  0  0  0  0
  2 37  1  0  0  0  0
 33  3  1  6  0  0  0
  3 41  1  0  0  0  0
  4 42  1  0  0  0  0
  4 47  1  0  0  0  0
  4112  1  0  0  0  0
  5 43  1  0  0  0  0
  5 49  2  0  0  0  0
  6 45  1  0  0  0  0
  6 50  2  0  0  0  0
  7 46  1  0  0  0  0
  7 52  2  0  0  0  0
  8 49  1  0  0  0  0
  8121  1  0  0  0  0
  8122  1  0  0  0  0
  9 49  1  0  0  0  0
  9123  1  0  0  0  0
  9124  1  0  0  0  0
 10 50  1  0  0  0  0
 10127  1  0  0  0  0
 10128  1  0  0  0  0
 11 50  1  0  0  0  0
 11129  1  0  0  0  0
 11130  1  0  0  0  0
 12 52  1  0  0  0  0
 12133  1  0  0  0  0
 12134  1  0  0  0  0
 13 52  1  0  0  0  0
 13135  1  0  0  0  0
 13136  1  0  0  0  0
 14 15  1  0  0  0  0
 14 19  1  0  0  0  0
 14 20  1  0  0  0  0
 14 28  1  1  0  0  0
 15 16  1  0  0  0  0
 15 24  1  0  0  0  0
 15 58  1  6  0  0  0
 16 17  1  0  0  0  0
 16 23  1  0  0  0  0
 16 59  1  0  0  0  0
 17 18  1  0  0  0  0
 17 21  1  0  0  0  0
 17 60  1  6  0  0  0
 18 22  1  0  0  0  0
 18 27  1  0  0  0  0
 18 31  1  1  0  0  0
 19 25  1  0  0  0  0
 19 29  1  0  0  0  0
 19 61  1  6  0  0  0
 20 21  1  0  0  0  0
 20 62  1  0  0  0  0
 21 63  1  0  0  0  0
 21 64  1  0  0  0  0
 22 26  1  0  0  0  0
 22 30  1  0  0  0  0
 22 65  1  0  0  0  0
 23 26  1  0  0  0  0
 23 66  1  0  0  0  0
 24 25  1  0  0  0  0
 24 67  1  0  0  0  0
 24 68  1  0  0  0  0
 25 69  1  0  0  0  0
 25 70  1  0  0  0  0
 26 71  1  0  0  0  0
 26 72  1  0  0  0  0
 27 32  1  0  0  0  0
 27 73  1  0  0  0  0
 27 74  1  0  0  0  0
 28 75  1  0  0  0  0
 28 76  1  0  0  0  0
 28 77  1  0  0  0  0
 29 34  1  0  0  0  0
 29 35  1  6  0  0  0
 29 78  1  0  0  0  0
 30 33  1  0  0  0  0
 30 79  1  0  0  0  0
 30 80  1  0  0  0  0
 31 81  1  0  0  0  0
 31 82  1  0  0  0  0
 31 83  1  0  0  0  0
 32 33  1  0  0  0  0
 32 84  1  0  0  0  0
 32 85  1  0  0  0  0
 33 86  1  0  0  0  0
 34 38  1  0  0  0  0
 34 87  1  0  0  0  0
 34 88  1  0  0  0  0
 35 89  1  0  0  0  0
 35 90  1  0  0  0  0
 35 91  1  0  0  0  0
 36 39  1  0  0  0  0
 36 92  1  0  0  0  0
 36 93  1  0  0  0  0
 37 40  1  0  0  0  0
 37 94  1  0  0  0  0
 37 95  1  0  0  0  0
 38 42  1  0  0  0  0
 38 96  1  0  0  0  0
 38 97  1  0  0  0  0
 39 43  1  0  0  0  0
 39 98  1  0  0  0  0
 39 99  1  0  0  0  0
 40 45  1  0  0  0  0
 40100  1  0  0  0  0
 40101  1  0  0  0  0
 41 44  1  0  0  0  0
 41102  1  0  0  0  0
 41103  1  0  0  0  0
 42104  1  0  0  0  0
 42105  1  0  0  0  0
 43106  1  0  0  0  0
 43107  1  0  0  0  0
 44 46  1  0  0  0  0
 44108  1  0  0  0  0
 44109  1  0  0  0  0
 45110  1  0  0  0  0
 45111  1  0  0  0  0
 46113  1  0  0  0  0
 46114  1  0  0  0  0
 47 48  1  0  0  0  0
 47115  1  0  0  0  0
 47116  1  0  0  0  0
 48 51  1  0  0  0  0
 48117  1  0  0  0  0
 48118  1  0  0  0  0
 51 53  1  0  0  0  0
 51119  1  0  0  0  0
 51120  1  0  0  0  0
 53 54  1  0  0  0  0
 53125  1  0  0  0  0
 53126  1  0  0  0  0
 54 55  1  0  0  0  0
 54131  1  0  0  0  0
 54132  1  0  0  0  0
 55 56  1  0  0  0  0
 55137  1  0  0  0  0
 55138  1  0  0  0  0
 56 57  1  0  0  0  0
 56139  1  0  0  0  0
 56140  1  0  0  0  0
 57141  1  0  0  0  0
 57142  1  0  0  0  0
 57143  1  0  0  0  0
M  END
> <PUBCHEM_COMPOUND_CID>
516730
> <PUBCHEM_COMPOUND_CANONICALIZED>
1
> <PUBCHEM_CACTVS_COMPLEXITY>
1240
> <PUBCHEM_CACTVS_HBOND_ACCEPTOR>
7
> <PUBCHEM_CACTVS_HBOND_DONOR>
7
> <PUBCHEM_CACTVS_ROTATABLE_BOND>
27
> <PUBCHEM_CACTVS_SUBSKEYS>
AAADcfB/8AAAAAAAAAAAAAAAAAAAAYAAAAAwYMAAAAAAAGDAAAAAHgAQAAAADxThgAYDAALABAAgAAAAJAAAAAEAAAAAAIAIAAAAAAIAgAAGAAAGEACAAAGQ4PwPgAAAAAAAAADAAAYAADAAAQAACAAAAA==
> <PUBCHEM_IUPAC_OPENEYE_NAME>
2-[3-[[(3R,7R,9S,10S,12S,13R,14S,17R)-3,7-bis(3-guanidinopropoxy)-10,13-dimethyl-17-[(1R)-1-methyl-4-(octylamino)butyl]-2,3,4,5,6,7,8,9,11,12,14,15,16,17-tetradecahydro-1H-cyclopenta[a]phenanthren-12-yl]oxy]propyl]guanidine
> <PUBCHEM_IUPAC_CAS_NAME>
2-[3-[[(3R,7R,9S,10S,12S,13R,14S,17R)-3,7-bis[3-(diaminomethylideneamino)propoxy]-10,13-dimethyl-17-[(2R)-5-(octylamino)pentan-2-yl]-2,3,4,5,6,7,8,9,11,12,14,15,16,17-tetradecahydro-1H-cyclopenta[a]phenanthren-12-yl]oxy]propyl]guanidine
> <PUBCHEM_IUPAC_NAME_MARKUP>
2-[3-[[(3<I>R</I>,7<I>R</I>,9<I>S</I>,10<I>S</I>,12<I>S</I>,13<I>R</I>,14<I>S</I>,17<I>R</I>)-3,7-bis[3-(diaminomethylideneamino)propoxy]-10,13-dimethyl-17-[(2<I>R</I>)-5-(octylamino)pentan-2-yl]-2,3,4,5,6,7,8,9,11,12,14,15,16,17-tetradecahydro-1<I>H</I>-cyclopenta[a]phenanthren-12-yl]oxy]propyl]guanidine
> <PUBCHEM_IUPAC_NAME>
2-[3-[[(3R,7R,9S,10S,12S,13R,14S,17R)-3,7-bis[3-(diaminomethylideneamino)propoxy]-10,13-dimethyl-17-[(2R)-5-(octylamino)pentan-2-yl]-2,3,4,5,6,7,8,9,11,12,14,15,16,17-tetradecahydro-1H-cyclopenta[a]phenanthren-12-yl]oxy]propyl]guanidine
> <PUBCHEM_IUPAC_SYSTEMATIC_NAME>
2-[3-[[(3R,7R,9S,10S,12S,13R,14S,17R)-3,7-bis[3-[bis(azanyl)methylideneamino]propoxy]-10,13-dimethyl-17-[(2R)-5-(octylamino)pentan-2-yl]-2,3,4,5,6,7,8,9,11,12,14,15,16,17-tetradecahydro-1H-cyclopenta[a]phenanthren-12-yl]oxy]propyl]guanidine
> <PUBCHEM_IUPAC_TRADITIONAL_NAME>
2-[3-[[(3R,7R,9S,10S,12S,13R,14S,17R)-3,7-bis(3-guanidinopropoxy)-10,13-dimethyl-17-[(1R)-1-methyl-4-(octylamino)butyl]-2,3,4,5,6,7,8,9,11,12,14,15,16,17-tetradecahydro-1H-cyclopenta[a]phenanthren-12-yl]oxy]propyl]guanidine
> <PUBCHEM_IUPAC_INCHI>
InChI=1S/C44H86N10O3/c1-5-6-7-8-9-10-20-51-21-11-15-31(2)34-16-17-35-39-36(30-38(44(34,35)4)57-27-14-24-54-42(49)50)43(3)19-18-33(55-25-12-22-52-40(45)46)28-32(43)29-37(39)56-26-13-23-53-41(47)48/h31-39,51H,5-30H2,1-4H3,(H4,45,46,52)(H4,47,48,53)(H4,49,50,54)/t31-,32?,33-,34-,35+,36+,37-,38+,39?,43+,44-/m1/s1
> <PUBCHEM_IUPAC_INCHIKEY>
DFPUUFRLTBTPMS-DISYNXKASA-N
> <PUBCHEM_XLOGP3_AA>
5.5
> <PUBCHEM_EXACT_MASS>
802.68843664
> <PUBCHEM_MOLECULAR_FORMULA>
C44H86N10O3
> <PUBCHEM_MOLECULAR_WEIGHT>
803.2
> <PUBCHEM_OPENEYE_CAN_SMILES>
CCCCCCCCNCCCC(C)C1CCC2C1(C(CC3C2C(CC4C3(CCC(C4)OCCCN=C(N)N)C)OCCCN=C(N)N)OCCCN=C(N)N)C
> <PUBCHEM_OPENEYE_ISO_SMILES>
CCCCCCCCNCCC[C@@H](C)[C@H]1CC[C@@H]2[C@@]1([C@H](C[C@H]3C2[C@@H](CC4[C@@]3(CC[C@H](C4)OCCCN=C(N)N)C)OCCCN=C(N)N)OCCCN=C(N)N)C
> <PUBCHEM_CACTVS_TPSA>
233
> <PUBCHEM_MONOISOTOPIC_WEIGHT>
802.68843664
> <PUBCHEM_TOTAL_CHARGE>
0
> <PUBCHEM_HEAVY_ATOM_COUNT>
57
> <PUBCHEM_ATOM_DEF_STEREO_COUNT>
9
> <PUBCHEM_ATOM_UDEF_STEREO_COUNT>
2
> <PUBCHEM_BOND_DEF_STEREO_COUNT>
0
> <PUBCHEM_BOND_UDEF_STEREO_COUNT>
0
> <PUBCHEM_ISOTOPIC_ATOM_COUNT>
0
> <PUBCHEM_COMPONENT_COUNT>
1
> <PUBCHEM_CACTVS_TAUTO_COUNT>
-1
> <PUBCHEM_COORDINATE_TYPE>
1
5
255
> <PUBCHEM_BONDANNOTATIONS>
20  1  6
14  28  5
15  58  6
16  23  3
17  60  6
18  31  5
19  61  6
22  30  3
29  35  6
33  3  6
$$$$
