516752
  -OEChem-10302200292D
 41 40  0     1  0  0  0  0  0999 V2000
    7.0749    1.3100    0.0000 P   0  0  0  0  0  0  0  0  0  0  0  0
    7.9409    2.8100    0.0000 O   0  0  0  0  0  0  0  0  0  0  0  0
    6.2089    3.8100    0.0000 O   0  0  0  0  0  0  0  0  0  0  0  0
    7.0749    0.3100    0.0000 O   0  0  0  0  0  0  0  0  0  0  0  0
    6.0749    1.3100    0.0000 O   0  0  0  0  0  0  0  0  0  0  0  0
   10.5390    5.3100    0.0000 O   0  0  0  0  0  0  0  0  0  0  0  0
    8.0749    1.3100    0.0000 O   0  0  0  0  0  0  0  0  0  0  0  0
    3.1350    4.2500    0.0000 O   0  0  0  0  0  0  0  0  0  0  0  0
    1.4030    3.2500    0.0000 O   0  0  0  0  0  0  0  0  0  0  0  0
    8.8070    5.3100    0.0000 N   0  0  0  0  0  0  0  0  0  0  0  0
    9.6730    6.8100    0.0000 N   0  0  0  0  0  0  0  0  0  0  0  0
    8.8070    8.3100    0.0000 N   0  0  0  0  0  0  0  0  0  0  0  0
    2.2690    4.7500    0.0000 N   0  0  0  0  0  0  0  0  0  0  0  0
    0.5369    4.7500    0.0000 N   0  0  0  0  0  0  0  0  0  0  0  0
    7.9409    3.8100    0.0000 C   0  0  1  0  0  0  0  0  0  0  0  0
    8.8070    4.3100    0.0000 C   0  0  0  0  0  0  0  0  0  0  0  0
    7.0749    4.3100    0.0000 C   0  0  0  0  0  0  0  0  0  0  0  0
    7.0749    2.3100    0.0000 C   0  0  0  0  0  0  0  0  0  0  0  0
    7.9409    5.8100    0.0000 C   0  0  0  0  0  0  0  0  0  0  0  0
    9.6730    5.8100    0.0000 C   0  0  0  0  0  0  0  0  0  0  0  0
    7.9409    6.8100    0.0000 C   0  0  0  0  0  0  0  0  0  0  0  0
    8.8070    7.3100    0.0000 C   0  0  0  0  0  0  0  0  0  0  0  0
    1.4030    4.2500    0.0000 C   0  0  0  0  0  0  0  0  0  0  0  0
    8.4779    3.5000    0.0000 H   0  0  0  0  0  0  0  0  0  0  0  0
    9.0190    3.7274    0.0000 H   0  0  0  0  0  0  0  0  0  0  0  0
    9.4175    4.4177    0.0000 H   0  0  0  0  0  0  0  0  0  0  0  0
    7.4734    4.7850    0.0000 H   0  0  0  0  0  0  0  0  0  0  0  0
    6.6764    4.7850    0.0000 H   0  0  0  0  0  0  0  0  0  0  0  0
    6.8629    2.8926    0.0000 H   0  0  0  0  0  0  0  0  0  0  0  0
    6.4643    2.2023    0.0000 H   0  0  0  0  0  0  0  0  0  0  0  0
    7.4040    5.5000    0.0000 H   0  0  0  0  0  0  0  0  0  0  0  0
    7.4040    7.1200    0.0000 H   0  0  0  0  0  0  0  0  0  0  0  0
    5.6720    4.1200    0.0000 H   0  0  0  0  0  0  0  0  0  0  0  0
    6.5380    0.0000    0.0000 H   0  0  0  0  0  0  0  0  0  0  0  0
    5.7649    0.7731    0.0000 H   0  0  0  0  0  0  0  0  0  0  0  0
    8.2700    8.6200    0.0000 H   0  0  0  0  0  0  0  0  0  0  0  0
    9.3439    8.6200    0.0000 H   0  0  0  0  0  0  0  0  0  0  0  0
    2.2690    5.3700    0.0000 H   0  0  0  0  0  0  0  0  0  0  0  0
    0.0000    4.4400    0.0000 H   0  0  0  0  0  0  0  0  0  0  0  0
    0.5369    5.3700    0.0000 H   0  0  0  0  0  0  0  0  0  0  0  0
    3.6720    4.5600    0.0000 H   0  0  0  0  0  0  0  0  0  0  0  0
  1  4  1  0  0  0  0
  1  5  1  0  0  0  0
  1  7  2  0  0  0  0
  1 18  1  0  0  0  0
 15  2  1  6  0  0  0
  2 18  1  0  0  0  0
  3 17  1  0  0  0  0
  3 33  1  0  0  0  0
  4 34  1  0  0  0  0
  5 35  1  0  0  0  0
  6 20  2  0  0  0  0
  8 13  1  0  0  0  0
  8 41  1  0  0  0  0
  9 23  2  0  0  0  0
 10 16  1  0  0  0  0
 10 19  1  0  0  0  0
 10 20  1  0  0  0  0
 11 20  1  0  0  0  0
 11 22  2  0  0  0  0
 12 22  1  0  0  0  0
 12 36  1  0  0  0  0
 12 37  1  0  0  0  0
 13 23  1  0  0  0  0
 13 38  1  0  0  0  0
 14 23  1  0  0  0  0
 14 39  1  0  0  0  0
 14 40  1  0  0  0  0
 15 16  1  0  0  0  0
 15 17  1  0  0  0  0
 15 24  1  0  0  0  0
 16 25  1  0  0  0  0
 16 26  1  0  0  0  0
 17 27  1  0  0  0  0
 17 28  1  0  0  0  0
 18 29  1  0  0  0  0
 18 30  1  0  0  0  0
 19 21  2  0  0  0  0
 19 31  1  0  0  0  0
 21 22  1  0  0  0  0
 21 32  1  0  0  0  0
M  END
> <PUBCHEM_COMPOUND_CID>
516752
> <PUBCHEM_COMPOUND_CANONICALIZED>
1
> <PUBCHEM_CACTVS_COMPLEXITY>
460
> <PUBCHEM_CACTVS_HBOND_ACCEPTOR>
8
> <PUBCHEM_CACTVS_HBOND_DONOR>
7
> <PUBCHEM_CACTVS_ROTATABLE_BOND>
6
> <PUBCHEM_CACTVS_SUBSKEYS>
AAADceBzvAIAAAAAAAAAAAAAAAAAAAAAAAAgAAAAAAAAAAAAAAAAHggUCCAACBThgAYBAANQBhCoQCJmdICAAAEAAgAIAAAYABCDEAAAAAAFQAACFgITAAAAAAAAAAAAAAAAAAAAAAAAAAAAAAAAAAAAAA==
> <PUBCHEM_IUPAC_OPENEYE_NAME>
[(1S)-1-[(4-amino-2-oxo-pyrimidin-1-yl)methyl]-2-hydroxy-ethoxy]methylphosphonic acid;hydroxyurea
> <PUBCHEM_IUPAC_CAS_NAME>
[(2S)-1-(4-amino-2-oxo-1-pyrimidinyl)-3-hydroxypropan-2-yl]oxymethylphosphonic acid;hydroxyurea
> <PUBCHEM_IUPAC_NAME_MARKUP>
[(2<I>S</I>)-1-(4-amino-2-oxopyrimidin-1-yl)-3-hydroxypropan-2-yl]oxymethylphosphonic acid;hydroxyurea
> <PUBCHEM_IUPAC_NAME>
[(2S)-1-(4-amino-2-oxopyrimidin-1-yl)-3-hydroxypropan-2-yl]oxymethylphosphonic acid;hydroxyurea
> <PUBCHEM_IUPAC_SYSTEMATIC_NAME>
[(2S)-1-(4-azanyl-2-oxidanylidene-pyrimidin-1-yl)-3-oxidanyl-propan-2-yl]oxymethylphosphonic acid;1-oxidanylurea
> <PUBCHEM_IUPAC_TRADITIONAL_NAME>
[(1S)-1-[(4-amino-2-keto-pyrimidin-1-yl)methyl]-2-hydroxy-ethoxy]methylphosphonic acid;hydroxyurea
> <PUBCHEM_IUPAC_INCHI>
InChI=1S/C8H14N3O6P.CH4N2O2/c9-7-1-2-11(8(13)10-7)3-6(4-12)17-5-18(14,15)16;2-1(4)3-5/h1-2,6,12H,3-5H2,(H2,9,10,13)(H2,14,15,16);5H,(H3,2,3,4)/t6-;/m0./s1
> <PUBCHEM_IUPAC_INCHIKEY>
HRXCMFLJRJPXOW-RGMNGODLSA-N
> <PUBCHEM_EXACT_MASS>
355.08929955
> <PUBCHEM_MOLECULAR_FORMULA>
C9H18N5O8P
> <PUBCHEM_MOLECULAR_WEIGHT>
355.24
> <PUBCHEM_OPENEYE_CAN_SMILES>
C1=CN(C(=O)N=C1N)CC(CO)OCP(=O)(O)O.C(=O)(N)NO
> <PUBCHEM_OPENEYE_ISO_SMILES>
C1=CN(C(=O)N=C1N)C[C@@H](CO)OCP(=O)(O)O.C(=O)(N)NO
> <PUBCHEM_CACTVS_TPSA>
221
> <PUBCHEM_MONOISOTOPIC_WEIGHT>
355.08929955
> <PUBCHEM_TOTAL_CHARGE>
0
> <PUBCHEM_HEAVY_ATOM_COUNT>
23
> <PUBCHEM_ATOM_DEF_STEREO_COUNT>
1
> <PUBCHEM_ATOM_UDEF_STEREO_COUNT>
0
> <PUBCHEM_BOND_DEF_STEREO_COUNT>
0
> <PUBCHEM_BOND_UDEF_STEREO_COUNT>
0
> <PUBCHEM_ISOTOPIC_ATOM_COUNT>
0
> <PUBCHEM_COMPONENT_COUNT>
2
> <PUBCHEM_CACTVS_TAUTO_COUNT>
-1
> <PUBCHEM_COORDINATE_TYPE>
1
5
255
> <PUBCHEM_BONDANNOTATIONS>
10  19  8
10  20  8
11  20  8
11  22  8
19  21  8
15  2  6
21  22  8
$$$$
