516707
  -OEChem-10302200292D
 34 36  0     1  0  0  0  0  0999 V2000
   10.7263   -1.0000    0.0000 Cl  0  0  0  0  0  0  0  0  0  0  0  0
   10.7263    1.0000    0.0000 Cl  0  0  0  0  0  0  0  0  0  0  0  0
    7.2622   -1.0000    0.0000 S   0  0  0  0  0  0  0  0  0  0  0  0
    2.0000   -1.0241    0.0000 F   0  0  0  0  0  0  0  0  0  0  0  0
    2.0000    1.0241    0.0000 F   0  0  0  0  0  0  0  0  0  0  0  0
    5.5301   -2.0000    0.0000 O   0  0  0  0  0  0  0  0  0  0  0  0
    5.5301    2.0000    0.0000 O   0  5  0  0  0  0  0  0  0  0  0  0
    5.5301   -1.0000    0.0000 N   0  3  0  0  0  0  0  0  0  0  0  0
    5.5301    1.0000    0.0000 N   0  0  0  0  0  0  0  0  0  0  0  0
    8.1282   -0.5000    0.0000 C   0  0  3  0  0  0  0  0  0  0  0  0
    8.1282    0.5000    0.0000 C   0  0  0  0  0  0  0  0  0  0  0  0
    6.3961   -0.5000    0.0000 C   0  0  0  0  0  0  0  0  0  0  0  0
    6.3961    0.5000    0.0000 C   0  0  0  0  0  0  0  0  0  0  0  0
    4.6641   -0.5000    0.0000 C   0  0  0  0  0  0  0  0  0  0  0  0
    4.6641    0.5000    0.0000 C   0  0  0  0  0  0  0  0  0  0  0  0
    8.9942   -1.0000    0.0000 C   0  0  0  0  0  0  0  0  0  0  0  0
    8.9942    1.0000    0.0000 C   0  0  0  0  0  0  0  0  0  0  0  0
    3.7702   -1.0347    0.0000 C   0  0  0  0  0  0  0  0  0  0  0  0
    9.8602   -0.5000    0.0000 C   0  0  0  0  0  0  0  0  0  0  0  0
    7.2622    1.0000    0.0000 C   0  0  0  0  0  0  0  0  0  0  0  0
    3.7702    1.0347    0.0000 C   0  0  0  0  0  0  0  0  0  0  0  0
    9.8602    0.5000    0.0000 C   0  0  0  0  0  0  0  0  0  0  0  0
    2.8641   -0.5208    0.0000 C   0  0  0  0  0  0  0  0  0  0  0  0
    2.8641    0.5208    0.0000 C   0  0  0  0  0  0  0  0  0  0  0  0
    8.1282   -1.1200    0.0000 H   0  0  0  0  0  0  0  0  0  0  0  0
    7.9162    1.0826    0.0000 H   0  0  0  0  0  0  0  0  0  0  0  0
    7.5176    0.3923    0.0000 H   0  0  0  0  0  0  0  0  0  0  0  0
    8.9942   -1.6200    0.0000 H   0  0  0  0  0  0  0  0  0  0  0  0
    8.9942    1.6200    0.0000 H   0  0  0  0  0  0  0  0  0  0  0  0
    3.7773   -1.6546    0.0000 H   0  0  0  0  0  0  0  0  0  0  0  0
    7.5722    0.4631    0.0000 H   0  0  0  0  0  0  0  0  0  0  0  0
    7.7991    1.3100    0.0000 H   0  0  0  0  0  0  0  0  0  0  0  0
    6.9522    1.5369    0.0000 H   0  0  0  0  0  0  0  0  0  0  0  0
    3.7773    1.6546    0.0000 H   0  0  0  0  0  0  0  0  0  0  0  0
  1 19  1  0  0  0  0
  2 22  1  0  0  0  0
  3 10  1  0  0  0  0
  3 12  1  0  0  0  0
  4 23  1  0  0  0  0
  5 24  1  0  0  0  0
  6  8  2  0  0  0  0
  7  9  1  0  0  0  0
  8 12  1  0  0  0  0
  8 14  1  0  0  0  0
  9 13  1  0  0  0  0
  9 15  1  0  0  0  0
 10 11  1  0  0  0  0
 10 16  1  0  0  0  0
 10 25  1  0  0  0  0
 11 17  1  0  0  0  0
 11 26  1  0  0  0  0
 11 27  1  0  0  0  0
 12 13  2  0  0  0  0
 13 20  1  0  0  0  0
 14 15  1  0  0  0  0
 14 18  2  0  0  0  0
 15 21  2  0  0  0  0
 16 19  2  0  0  0  0
 16 28  1  0  0  0  0
 17 22  2  0  0  0  0
 17 29  1  0  0  0  0
 18 23  1  0  0  0  0
 18 30  1  0  0  0  0
 19 22  1  0  0  0  0
 20 31  1  0  0  0  0
 20 32  1  0  0  0  0
 20 33  1  0  0  0  0
 21 24  1  0  0  0  0
 21 34  1  0  0  0  0
 23 24  2  0  0  0  0
M  CHG  2   7  -1   8   1
M  END
> <PUBCHEM_COMPOUND_CID>
516707
> <PUBCHEM_COMPOUND_CANONICALIZED>
1
> <PUBCHEM_CACTVS_COMPLEXITY>
655
> <PUBCHEM_CACTVS_HBOND_ACCEPTOR>
6
> <PUBCHEM_CACTVS_HBOND_DONOR>
0
> <PUBCHEM_CACTVS_ROTATABLE_BOND>
2
> <PUBCHEM_CACTVS_SUBSKEYS>
AAADccBzMYBGAAAAAAAAAAAAAAAAAAAAAAAwQIAAAAAAAACBAAAAHQYEAAAACAqFUAiywIIQAAiBACRCQgCCAABhAhAgiEAAdIoIYCLgkJGUIAhggIDIyAcQAAAAAAAAAAAAACAAAAAAAAAAQAAAAAAAAA==
> <PUBCHEM_IUPAC_OPENEYE_NAME>
2-(3,4-dichlorocyclohexa-2,4-dien-1-yl)sulfanyl-6,7-difluoro-3-methyl-4-oxido-quinoxalin-1-ium 1-oxide
> <PUBCHEM_IUPAC_CAS_NAME>
2-[(3,4-dichloro-1-cyclohexa-2,4-dienyl)thio]-6,7-difluoro-3-methyl-4-oxidoquinoxalin-1-ium 1-oxide
> <PUBCHEM_IUPAC_NAME_MARKUP>
2-(3,4-dichlorocyclohexa-2,4-dien-1-yl)sulfanyl-6,7-difluoro-3-methyl-4-oxidoquinoxalin-1-ium 1-oxide
> <PUBCHEM_IUPAC_NAME>
2-(3,4-dichlorocyclohexa-2,4-dien-1-yl)sulfanyl-6,7-difluoro-3-methyl-4-oxidoquinoxalin-1-ium 1-oxide
> <PUBCHEM_IUPAC_SYSTEMATIC_NAME>
2-[3,4-bis(chloranyl)cyclohexa-2,4-dien-1-yl]sulfanyl-6,7-bis(fluoranyl)-3-methyl-4-oxidanidyl-quinoxalin-1-ium 1-oxide
> <PUBCHEM_IUPAC_TRADITIONAL_NAME>
2-[(3,4-dichlorocyclohexa-2,4-dien-1-yl)thio]-6,7-difluoro-3-methyl-4-oxido-quinoxalin-1-ium 1-oxide
> <PUBCHEM_IUPAC_INCHI>
InChI=1S/C15H10Cl2F2N2O2S/c1-7-15(24-8-2-3-9(16)10(17)4-8)21(23)14-6-12(19)11(18)5-13(14)20(7)22/h3-6,8H,2H2,1H3
> <PUBCHEM_IUPAC_INCHIKEY>
ICCPFYNZQWVBAC-UHFFFAOYSA-N
> <PUBCHEM_XLOGP3_AA>
3.5
> <PUBCHEM_EXACT_MASS>
389.9808105
> <PUBCHEM_MOLECULAR_FORMULA>
C15H10Cl2F2N2O2S
> <PUBCHEM_MOLECULAR_WEIGHT>
391.2
> <PUBCHEM_OPENEYE_CAN_SMILES>
CC1=C([N+](=O)C2=CC(=C(C=C2N1[O-])F)F)SC3CC=C(C(=C3)Cl)Cl
> <PUBCHEM_OPENEYE_ISO_SMILES>
CC1=C([N+](=O)C2=CC(=C(C=C2N1[O-])F)F)SC3CC=C(C(=C3)Cl)Cl
> <PUBCHEM_CACTVS_TPSA>
71.7
> <PUBCHEM_MONOISOTOPIC_WEIGHT>
389.9808105
> <PUBCHEM_TOTAL_CHARGE>
0
> <PUBCHEM_HEAVY_ATOM_COUNT>
24
> <PUBCHEM_ATOM_DEF_STEREO_COUNT>
0
> <PUBCHEM_ATOM_UDEF_STEREO_COUNT>
1
> <PUBCHEM_BOND_DEF_STEREO_COUNT>
0
> <PUBCHEM_BOND_UDEF_STEREO_COUNT>
0
> <PUBCHEM_ISOTOPIC_ATOM_COUNT>
0
> <PUBCHEM_COMPONENT_COUNT>
1
> <PUBCHEM_CACTVS_TAUTO_COUNT>
-1
> <PUBCHEM_COORDINATE_TYPE>
1
5
255
> <PUBCHEM_BONDANNOTATIONS>
12  13  8
14  15  8
14  18  8
15  21  8
18  23  8
21  24  8
23  24  8
10  3  3
8  12  8
8  14  8
9  13  8
9  15  8
$$$$
