516776
  -OEChem-10302200292D
 45 47  0     1  0  0  0  0  0999 V2000
    3.2760   -0.2435    0.0000 O   0  0  0  0  0  0  0  0  0  0  0  0
    5.0046   -0.1329    0.0000 N   0  0  0  0  0  0  0  0  0  0  0  0
    3.5053    2.8141    0.0000 C   0  0  3  0  0  0  0  0  0  0  0  0
    4.0445    1.3087    0.0000 C   0  0  3  0  0  0  0  0  0  0  0  0
    4.0670    2.3871    0.0000 C   0  0  3  0  0  0  0  0  0  0  0  0
    2.4493    1.3312    0.0000 C   0  0  3  0  0  0  0  0  0  0  0  0
    3.0494    0.7402    0.0000 C   0  0  0  0  0  0  0  0  0  0  0  0
    2.9885    2.0277    0.0000 C   0  0  0  0  0  0  0  0  0  0  0  0
    2.7864    3.0162    0.0000 C   0  0  0  0  0  0  0  0  0  0  0  0
    2.0000    2.2972    0.0000 C   0  0  0  0  0  0  0  0  0  0  0  0
    5.1158    0.8668    0.0000 C   0  0  0  0  0  0  0  0  0  0  0  0
    4.9882    2.2299    0.0000 C   0  0  0  0  0  0  0  0  0  0  0  0
    5.5723    1.5559    0.0000 C   0  0  0  0  0  0  0  0  0  0  0  0
    4.1084    0.3108    0.0000 C   0  0  0  0  0  0  0  0  0  0  0  0
    5.0684   -1.1309    0.0000 C   0  0  0  0  0  0  0  0  0  0  0  0
    5.9646   -1.5746    0.0000 C   0  0  0  0  0  0  0  0  0  0  0  0
    6.0284   -2.5726    0.0000 C   0  0  0  0  0  0  0  0  0  0  0  0
    6.9246   -3.0162    0.0000 C   0  0  0  0  0  0  0  0  0  0  0  0
    3.7817    3.3691    0.0000 H   0  0  0  0  0  0  0  0  0  0  0  0
    4.1143    1.7689    0.0000 H   0  0  0  0  0  0  0  0  0  0  0  0
    1.9426    0.9739    0.0000 H   0  0  0  0  0  0  0  0  0  0  0  0
    2.5759    0.3400    0.0000 H   0  0  0  0  0  0  0  0  0  0  0  0
    3.4047    0.2322    0.0000 H   0  0  0  0  0  0  0  0  0  0  0  0
    2.9917    2.6476    0.0000 H   0  0  0  0  0  0  0  0  0  0  0  0
    3.3472    1.5219    0.0000 H   0  0  0  0  0  0  0  0  0  0  0  0
    3.0613    3.5720    0.0000 H   0  0  0  0  0  0  0  0  0  0  0  0
    2.2908    3.3889    0.0000 H   0  0  0  0  0  0  0  0  0  0  0  0
    1.6303    2.7950    0.0000 H   0  0  0  0  0  0  0  0  0  0  0  0
    1.4673    1.9800    0.0000 H   0  0  0  0  0  0  0  0  0  0  0  0
    4.8428    0.3102    0.0000 H   0  0  0  0  0  0  0  0  0  0  0  0
    5.6537    0.5585    0.0000 H   0  0  0  0  0  0  0  0  0  0  0  0
    5.5544    2.4825    0.0000 H   0  0  0  0  0  0  0  0  0  0  0  0
    4.9107    2.8450    0.0000 H   0  0  0  0  0  0  0  0  0  0  0  0
    6.0561    1.1681    0.0000 H   0  0  0  0  0  0  0  0  0  0  0  0
    6.0022    2.0026    0.0000 H   0  0  0  0  0  0  0  0  0  0  0  0
    5.5206    0.2107    0.0000 H   0  0  0  0  0  0  0  0  0  0  0  0
    4.4522   -1.0624    0.0000 H   0  0  0  0  0  0  0  0  0  0  0  0
    4.8940   -1.7259    0.0000 H   0  0  0  0  0  0  0  0  0  0  0  0
    6.5808   -1.6431    0.0000 H   0  0  0  0  0  0  0  0  0  0  0  0
    6.1390   -0.9796    0.0000 H   0  0  0  0  0  0  0  0  0  0  0  0
    5.4122   -2.5041    0.0000 H   0  0  0  0  0  0  0  0  0  0  0  0
    5.8540   -3.1675    0.0000 H   0  0  0  0  0  0  0  0  0  0  0  0
    6.6495   -3.5719    0.0000 H   0  0  0  0  0  0  0  0  0  0  0  0
    7.4802   -3.2913    0.0000 H   0  0  0  0  0  0  0  0  0  0  0  0
    7.1997   -2.4606    0.0000 H   0  0  0  0  0  0  0  0  0  0  0  0
  1 14  2  0  0  0  0
  2 14  1  0  0  0  0
  2 15  1  0  0  0  0
  2 36  1  0  0  0  0
  3  4  1  0  0  0  0
  3  5  1  0  0  0  0
  3  9  1  0  0  0  0
  3 19  1  0  0  0  0
  4  7  1  0  0  0  0
  4 11  1  0  0  0  0
  4 14  1  0  0  0  0
  5  8  1  0  0  0  0
  5 12  1  0  0  0  0
  5 20  1  0  0  0  0
  6  7  1  0  0  0  0
  6  8  1  0  0  0  0
  6 10  1  0  0  0  0
  6 21  1  0  0  0  0
  7 22  1  0  0  0  0
  7 23  1  0  0  0  0
  8 24  1  0  0  0  0
  8 25  1  0  0  0  0
  9 10  1  0  0  0  0
  9 26  1  0  0  0  0
  9 27  1  0  0  0  0
 10 28  1  0  0  0  0
 10 29  1  0  0  0  0
 11 13  1  0  0  0  0
 11 30  1  0  0  0  0
 11 31  1  0  0  0  0
 12 13  1  0  0  0  0
 12 32  1  0  0  0  0
 12 33  1  0  0  0  0
 13 34  1  0  0  0  0
 13 35  1  0  0  0  0
 15 16  1  0  0  0  0
 15 37  1  0  0  0  0
 15 38  1  0  0  0  0
 16 17  1  0  0  0  0
 16 39  1  0  0  0  0
 16 40  1  0  0  0  0
 17 18  1  0  0  0  0
 17 41  1  0  0  0  0
 17 42  1  0  0  0  0
 18 43  1  0  0  0  0
 18 44  1  0  0  0  0
 18 45  1  0  0  0  0
M  END
> <PUBCHEM_COMPOUND_CID>
516776
> <PUBCHEM_COMPOUND_CANONICALIZED>
1
> <PUBCHEM_CACTVS_COMPLEXITY>
327
> <PUBCHEM_CACTVS_HBOND_ACCEPTOR>
1
> <PUBCHEM_CACTVS_HBOND_DONOR>
1
> <PUBCHEM_CACTVS_ROTATABLE_BOND>
4
> <PUBCHEM_CACTVS_SUBSKEYS>
AAADceB6IAAAAAAAAAAAAAAAAAAAAAAAAAAwYMAAAAAYAAAAAAAAHgAQAAAADwDBgAQCAALAAAAIAAEQEAAAAAAAAAAAAIEIAAAAABIAgAAEAAAAFgCAAAEYiMCPgAAAAAAAAACAAAQAACAAAAAAAAAAAA==
> <PUBCHEM_IUPAC_OPENEYE_NAME>
N-butyltricyclo[5.3.1.03,8]undecane-3-carboxamide
> <PUBCHEM_IUPAC_CAS_NAME>
N-butyl-3-tricyclo[5.3.1.03,8]undecanecarboxamide
> <PUBCHEM_IUPAC_NAME_MARKUP>
<I>N</I>-butyltricyclo[5.3.1.0<SUP>3,8</SUP>]undecane-3-carboxamide
> <PUBCHEM_IUPAC_NAME>
N-butyltricyclo[5.3.1.03,8]undecane-3-carboxamide
> <PUBCHEM_IUPAC_SYSTEMATIC_NAME>
N-butyltricyclo[5.3.1.03,8]undecane-3-carboxamide
> <PUBCHEM_IUPAC_TRADITIONAL_NAME>
N-butyltricyclo[5.3.1.03,8]undecane-3-carboxamide
> <PUBCHEM_IUPAC_INCHI>
InChI=1S/C16H27NO/c1-2-3-9-17-15(18)16-8-4-5-13-10-12(11-16)6-7-14(13)16/h12-14H,2-11H2,1H3,(H,17,18)
> <PUBCHEM_IUPAC_INCHIKEY>
PWXGWYKJKXVGSZ-UHFFFAOYSA-N
> <PUBCHEM_XLOGP3_AA>
4.1
> <PUBCHEM_EXACT_MASS>
249.209264485
> <PUBCHEM_MOLECULAR_FORMULA>
C16H27NO
> <PUBCHEM_MOLECULAR_WEIGHT>
249.39
> <PUBCHEM_OPENEYE_CAN_SMILES>
CCCCNC(=O)C12CCCC3C1CCC(C3)C2
> <PUBCHEM_OPENEYE_ISO_SMILES>
CCCCNC(=O)C12CCCC3C1CCC(C3)C2
> <PUBCHEM_CACTVS_TPSA>
29.1
> <PUBCHEM_MONOISOTOPIC_WEIGHT>
249.209264485
> <PUBCHEM_TOTAL_CHARGE>
0
> <PUBCHEM_HEAVY_ATOM_COUNT>
18
> <PUBCHEM_ATOM_DEF_STEREO_COUNT>
0
> <PUBCHEM_ATOM_UDEF_STEREO_COUNT>
4
> <PUBCHEM_BOND_DEF_STEREO_COUNT>
0
> <PUBCHEM_BOND_UDEF_STEREO_COUNT>
0
> <PUBCHEM_ISOTOPIC_ATOM_COUNT>
0
> <PUBCHEM_COMPONENT_COUNT>
1
> <PUBCHEM_CACTVS_TAUTO_COUNT>
-1
> <PUBCHEM_COORDINATE_TYPE>
1
5
255
> <PUBCHEM_BONDANNOTATIONS>
3  9  3
4  14  3
5  12  3
6  10  3
$$$$
