516753
  -OEChem-10302200292D
 45 45  0     1  0  0  0  0  0999 V2000
    7.0168    6.8911    0.0000 O   0  0  0  0  0  0  0  0  0  0  0  0
    2.2690   10.3145    0.0000 O   0  0  0  0  0  0  0  0  0  0  0  0
    6.9702    4.2458    0.0000 O   0  0  0  0  0  0  0  0  0  0  0  0
    5.0875    1.0000    0.0000 O   0  0  0  0  0  0  0  0  0  0  0  0
    3.3554    0.0000    0.0000 O   0  0  0  0  0  0  0  0  0  0  0  0
    4.0812    7.5098    0.0000 N   0  0  3  0  0  0  0  0  0  0  0  0
    2.2690    7.3145    0.0000 N   0  0  0  0  0  0  0  0  0  0  0  0
    1.4030    8.8145    0.0000 N   0  0  0  0  0  0  0  0  0  0  0  0
    0.5369    7.3145    0.0000 N   0  0  0  0  0  0  0  0  0  0  0  0
    4.2215    1.5000    0.0000 N   0  0  0  0  0  0  0  0  0  0  0  0
    2.4894    1.5000    0.0000 N   0  0  0  0  0  0  0  0  0  0  0  0
    3.1350    7.8145    0.0000 C   0  0  3  0  0  0  0  0  0  0  0  0
    3.1350    8.8145    0.0000 C   0  0  3  0  0  0  0  0  0  0  0  0
    4.3919    6.5593    0.0000 C   0  0  0  0  0  0  0  0  0  0  0  0
    5.3704    6.3531    0.0000 C   0  0  3  0  0  0  0  0  0  0  0  0
    4.0812    9.1193    0.0000 C   0  0  0  0  0  0  0  0  0  0  0  0
    4.6648    8.3145    0.0000 C   0  0  0  0  0  0  0  0  0  0  0  0
    5.6811    5.4025    0.0000 C   0  0  0  0  0  0  0  0  0  0  0  0
    2.2690    9.3145    0.0000 C   0  0  0  0  0  0  0  0  0  0  0  0
    6.0382    7.0974    0.0000 C   0  0  0  0  0  0  0  0  0  0  0  0
    1.4030    7.8145    0.0000 C   0  0  0  0  0  0  0  0  0  0  0  0
    6.6596    5.1963    0.0000 C   0  0  0  0  0  0  0  0  0  0  0  0
    3.3554    1.0000    0.0000 C   0  0  0  0  0  0  0  0  0  0  0  0
    3.2006    7.1980    0.0000 H   0  0  0  0  0  0  0  0  0  0  0  0
    3.2006    9.4311    0.0000 H   0  0  0  0  0  0  0  0  0  0  0  0
    3.7781    6.4719    0.0000 H   0  0  0  0  0  0  0  0  0  0  0  0
    4.3713    5.9396    0.0000 H   0  0  0  0  0  0  0  0  0  0  0  0
    5.1778    6.9424    0.0000 H   0  0  0  0  0  0  0  0  0  0  0  0
    4.2738    9.7086    0.0000 H   0  0  0  0  0  0  0  0  0  0  0  0
    5.2848    8.3145    0.0000 H   0  0  0  0  0  0  0  0  0  0  0  0
    5.0672    5.3152    0.0000 H   0  0  0  0  0  0  0  0  0  0  0  0
    5.6605    4.7829    0.0000 H   0  0  0  0  0  0  0  0  0  0  0  0
    6.2695    7.6726    0.0000 H   0  0  0  0  0  0  0  0  0  0  0  0
    5.5119    7.4250    0.0000 H   0  0  0  0  0  0  0  0  0  0  0  0
    0.8660    9.1245    0.0000 H   0  0  0  0  0  0  0  0  0  0  0  0
    7.2734    5.2837    0.0000 H   0  0  0  0  0  0  0  0  0  0  0  0
    6.6801    5.8160    0.0000 H   0  0  0  0  0  0  0  0  0  0  0  0
    7.4308    7.3526    0.0000 H   0  0  0  0  0  0  0  0  0  0  0  0
    0.5369    6.6945    0.0000 H   0  0  0  0  0  0  0  0  0  0  0  0
    0.0000    7.6245    0.0000 H   0  0  0  0  0  0  0  0  0  0  0  0
    7.5769    4.1179    0.0000 H   0  0  0  0  0  0  0  0  0  0  0  0
    4.2215    2.1200    0.0000 H   0  0  0  0  0  0  0  0  0  0  0  0
    1.9525    1.1900    0.0000 H   0  0  0  0  0  0  0  0  0  0  0  0
    2.4894    2.1200    0.0000 H   0  0  0  0  0  0  0  0  0  0  0  0
    5.6244    1.3100    0.0000 H   0  0  0  0  0  0  0  0  0  0  0  0
  1 20  1  0  0  0  0
  1 38  1  0  0  0  0
  2 19  2  0  0  0  0
  3 22  1  0  0  0  0
  3 41  1  0  0  0  0
  4 10  1  0  0  0  0
  4 45  1  0  0  0  0
  5 23  2  0  0  0  0
  6 12  1  0  0  0  0
  6 14  1  0  0  0  0
  6 17  1  0  0  0  0
  7 12  1  0  0  0  0
  7 21  2  0  0  0  0
  8 19  1  0  0  0  0
  8 21  1  0  0  0  0
  8 35  1  0  0  0  0
  9 21  1  0  0  0  0
  9 39  1  0  0  0  0
  9 40  1  0  0  0  0
 10 23  1  0  0  0  0
 10 42  1  0  0  0  0
 11 23  1  0  0  0  0
 11 43  1  0  0  0  0
 11 44  1  0  0  0  0
 12 13  1  0  0  0  0
 12 24  1  0  0  0  0
 13 16  1  0  0  0  0
 13 19  1  0  0  0  0
 13 25  1  0  0  0  0
 14 15  1  0  0  0  0
 14 26  1  0  0  0  0
 14 27  1  0  0  0  0
 15 18  1  0  0  0  0
 15 20  1  0  0  0  0
 15 28  1  0  0  0  0
 16 17  2  0  0  0  0
 16 29  1  0  0  0  0
 17 30  1  0  0  0  0
 18 22  1  0  0  0  0
 18 31  1  0  0  0  0
 18 32  1  0  0  0  0
 20 33  1  0  0  0  0
 20 34  1  0  0  0  0
 22 36  1  0  0  0  0
 22 37  1  0  0  0  0
M  END
> <PUBCHEM_COMPOUND_CID>
516753
> <PUBCHEM_COMPOUND_CANONICALIZED>
1
> <PUBCHEM_CACTVS_COMPLEXITY>
425
> <PUBCHEM_CACTVS_HBOND_ACCEPTOR>
7
> <PUBCHEM_CACTVS_HBOND_DONOR>
7
> <PUBCHEM_CACTVS_ROTATABLE_BOND>
5
> <PUBCHEM_CACTVS_SUBSKEYS>
AAADceBzuAAAAAAAAAAAAAAAAAAAAQAAAAAgAAAAAAAAAEAAAAAAHgAUCAAADQDhgAYBAAPQAgCoACFWdAAAAAEgAgAJAAEIAAiAEAgAyQAEQAAGEQKAAABgAAAIAAAAAAAAAAAAAAAAAAAAAAAAAAAAAA==
> <PUBCHEM_IUPAC_OPENEYE_NAME>
2-amino-7-[4-hydroxy-2-(hydroxymethyl)butyl]-4a,7a-dihydro-3H-pyrrolo[2,3-d]pyrimidin-4-one;hydroxyurea
> <PUBCHEM_IUPAC_CAS_NAME>
2-amino-7-[4-hydroxy-2-(hydroxymethyl)butyl]-4a,7a-dihydro-3H-pyrrolo[2,3-d]pyrimidin-4-one;hydroxyurea
> <PUBCHEM_IUPAC_NAME_MARKUP>
2-amino-7-[4-hydroxy-2-(hydroxymethyl)butyl]-4<I>a</I>,7<I>a</I>-dihydro-3<I>H</I>-pyrrolo[2,3-d]pyrimidin-4-one;hydroxyurea
> <PUBCHEM_IUPAC_NAME>
2-amino-7-[4-hydroxy-2-(hydroxymethyl)butyl]-4a,7a-dihydro-3H-pyrrolo[2,3-d]pyrimidin-4-one;hydroxyurea
> <PUBCHEM_IUPAC_SYSTEMATIC_NAME>
2-azanyl-7-[2-(hydroxymethyl)-4-oxidanyl-butyl]-4a,7a-dihydro-3H-pyrrolo[2,3-d]pyrimidin-4-one;1-oxidanylurea
> <PUBCHEM_IUPAC_TRADITIONAL_NAME>
2-amino-7-(4-hydroxy-2-methylol-butyl)-4a,7a-dihydro-3H-pyrrolo[2,3-d]pyrimidin-4-one;hydroxyurea
> <PUBCHEM_IUPAC_INCHI>
InChI=1S/C11H18N4O3.CH4N2O2/c12-11-13-9-8(10(18)14-11)1-3-15(9)5-7(6-17)2-4-16;2-1(4)3-5/h1,3,7-9,16-17H,2,4-6H2,(H3,12,13,14,18);5H,(H3,2,3,4)
> <PUBCHEM_IUPAC_INCHIKEY>
CDBWHPXOSSYSEA-UHFFFAOYSA-N
> <PUBCHEM_EXACT_MASS>
330.16516782
> <PUBCHEM_MOLECULAR_FORMULA>
C12H22N6O5
> <PUBCHEM_MOLECULAR_WEIGHT>
330.34
> <PUBCHEM_OPENEYE_CAN_SMILES>
C1=CN(C2C1C(=O)NC(=N2)N)CC(CCO)CO.C(=O)(N)NO
> <PUBCHEM_OPENEYE_ISO_SMILES>
C1=CN(C2C1C(=O)NC(=N2)N)CC(CCO)CO.C(=O)(N)NO
> <PUBCHEM_CACTVS_TPSA>
187
> <PUBCHEM_MONOISOTOPIC_WEIGHT>
330.16516782
> <PUBCHEM_TOTAL_CHARGE>
0
> <PUBCHEM_HEAVY_ATOM_COUNT>
23
> <PUBCHEM_ATOM_DEF_STEREO_COUNT>
0
> <PUBCHEM_ATOM_UDEF_STEREO_COUNT>
3
> <PUBCHEM_BOND_DEF_STEREO_COUNT>
0
> <PUBCHEM_BOND_UDEF_STEREO_COUNT>
0
> <PUBCHEM_ISOTOPIC_ATOM_COUNT>
0
> <PUBCHEM_COMPONENT_COUNT>
2
> <PUBCHEM_CACTVS_TAUTO_COUNT>
-1
> <PUBCHEM_COORDINATE_TYPE>
1
5
255
> <PUBCHEM_BONDANNOTATIONS>
13  16  3
15  18  3
12  7  3
$$$$
