516742
  -OEChem-10302200292D
 45 47  0     1  0  0  0  0  0999 V2000
    2.9230   -1.3556    0.0000 O   0  0  0  0  0  0  0  0  0  0  0  0
    5.3198    4.9434    0.0000 O   0  0  0  0  0  0  0  0  0  0  0  0
    2.6443    0.4045    0.0000 O   0  0  0  0  0  0  0  0  0  0  0  0
    4.2320   -0.4045    0.0000 N   0  0  0  0  0  0  0  0  0  0  0  0
    5.3198    2.9434    0.0000 N   0  0  0  0  0  0  0  0  0  0  0  0
    5.3198    1.9434    0.0000 N   0  0  0  0  0  0  0  0  0  0  0  0
    3.7320   -1.9434    0.0000 C   0  0  2  0  0  0  0  0  0  0  0  0
    4.5411   -1.3556    0.0000 C   0  0  0  0  0  0  0  0  0  0  0  0
    3.7320   -2.9434    0.0000 C   0  0  0  0  0  0  0  0  0  0  0  0
    4.8198    0.4045    0.0000 C   0  0  0  0  0  0  0  0  0  0  0  0
    6.1859    3.4434    0.0000 C   0  0  0  0  0  0  0  0  0  0  0  0
    4.4538    3.4434    0.0000 C   0  0  0  0  0  0  0  0  0  0  0  0
    4.5108    1.3556    0.0000 C   0  0  0  0  0  0  0  0  0  0  0  0
    3.2320   -0.4045    0.0000 C   0  0  0  0  0  0  0  0  0  0  0  0
    2.8660   -3.4434    0.0000 C   0  0  0  0  0  0  0  0  0  0  0  0
    5.8198    0.4045    0.0000 C   0  0  0  0  0  0  0  0  0  0  0  0
    6.1859    4.4434    0.0000 C   0  0  0  0  0  0  0  0  0  0  0  0
    4.4538    4.4434    0.0000 C   0  0  0  0  0  0  0  0  0  0  0  0
    6.1288    1.3556    0.0000 C   0  0  0  0  0  0  0  0  0  0  0  0
    2.8660   -4.4434    0.0000 C   0  0  0  0  0  0  0  0  0  0  0  0
    2.0000   -4.9434    0.0000 C   0  0  0  0  0  0  0  0  0  0  0  0
    3.7320   -4.9434    0.0000 C   0  0  0  0  0  0  0  0  0  0  0  0
    3.1796   -2.2248    0.0000 H   0  0  0  0  0  0  0  0  0  0  0  0
    4.8511   -1.8925    0.0000 H   0  0  0  0  0  0  0  0  0  0  0  0
    5.1075   -1.1034    0.0000 H   0  0  0  0  0  0  0  0  0  0  0  0
    3.9441   -3.5260    0.0000 H   0  0  0  0  0  0  0  0  0  0  0  0
    4.3426   -2.8357    0.0000 H   0  0  0  0  0  0  0  0  0  0  0  0
    6.3979    2.8607    0.0000 H   0  0  0  0  0  0  0  0  0  0  0  0
    6.7964    3.5510    0.0000 H   0  0  0  0  0  0  0  0  0  0  0  0
    3.8432    3.5510    0.0000 H   0  0  0  0  0  0  0  0  0  0  0  0
    4.2418    2.8607    0.0000 H   0  0  0  0  0  0  0  0  0  0  0  0
    3.9212    1.5472    0.0000 H   0  0  0  0  0  0  0  0  0  0  0  0
    2.6540   -2.8607    0.0000 H   0  0  0  0  0  0  0  0  0  0  0  0
    2.2554   -3.5510    0.0000 H   0  0  0  0  0  0  0  0  0  0  0  0
    6.7964    4.3357    0.0000 H   0  0  0  0  0  0  0  0  0  0  0  0
    6.3979    5.0260    0.0000 H   0  0  0  0  0  0  0  0  0  0  0  0
    4.2418    5.0260    0.0000 H   0  0  0  0  0  0  0  0  0  0  0  0
    3.8432    4.3357    0.0000 H   0  0  0  0  0  0  0  0  0  0  0  0
    6.1843   -0.0971    0.0000 H   0  0  0  0  0  0  0  0  0  0  0  0
    6.7185    1.5472    0.0000 H   0  0  0  0  0  0  0  0  0  0  0  0
    1.6900   -4.4064    0.0000 H   0  0  0  0  0  0  0  0  0  0  0  0
    1.4631   -5.2534    0.0000 H   0  0  0  0  0  0  0  0  0  0  0  0
    2.3100   -5.4803    0.0000 H   0  0  0  0  0  0  0  0  0  0  0  0
    3.7320   -5.5634    0.0000 H   0  0  0  0  0  0  0  0  0  0  0  0
    4.2690   -4.6334    0.0000 H   0  0  0  0  0  0  0  0  0  0  0  0
  1  7  1  0  0  0  0
  1 14  1  0  0  0  0
  2 17  1  0  0  0  0
  2 18  1  0  0  0  0
  3 14  2  0  0  0  0
  4  8  1  0  0  0  0
  4 10  1  0  0  0  0
  4 14  1  0  0  0  0
  5  6  1  0  0  0  0
  5 11  1  0  0  0  0
  5 12  1  0  0  0  0
  6 13  1  0  0  0  0
  6 19  1  0  0  0  0
  7  8  1  0  0  0  0
  7  9  1  6  0  0  0
  7 23  1  0  0  0  0
  8 24  1  0  0  0  0
  8 25  1  0  0  0  0
  9 15  1  0  0  0  0
  9 26  1  0  0  0  0
  9 27  1  0  0  0  0
 10 13  2  0  0  0  0
 10 16  1  0  0  0  0
 11 17  1  0  0  0  0
 11 28  1  0  0  0  0
 11 29  1  0  0  0  0
 12 18  1  0  0  0  0
 12 30  1  0  0  0  0
 12 31  1  0  0  0  0
 13 32  1  0  0  0  0
 15 20  1  0  0  0  0
 15 33  1  0  0  0  0
 15 34  1  0  0  0  0
 16 19  2  0  0  0  0
 16 39  1  0  0  0  0
 17 35  1  0  0  0  0
 17 36  1  0  0  0  0
 18 37  1  0  0  0  0
 18 38  1  0  0  0  0
 19 40  1  0  0  0  0
 20 21  1  0  0  0  0
 20 22  2  0  0  0  0
 21 41  1  0  0  0  0
 21 42  1  0  0  0  0
 21 43  1  0  0  0  0
 22 44  1  0  0  0  0
 22 45  1  0  0  0  0
M  END
> <PUBCHEM_COMPOUND_CID>
516742
> <PUBCHEM_COMPOUND_CANONICALIZED>
1
> <PUBCHEM_CACTVS_COMPLEXITY>
423
> <PUBCHEM_CACTVS_HBOND_ACCEPTOR>
4
> <PUBCHEM_CACTVS_HBOND_DONOR>
0
> <PUBCHEM_CACTVS_ROTATABLE_BOND>
5
> <PUBCHEM_CACTVS_SUBSKEYS>
AAADceB7MAAAAAAAAAAAAAAAAAAAAWLAAAAsAAAAAAAAAAABgAAAHgAIAAAADBzhkgY+yJMIFACoAjRnXACShCAxEiAY2CA4dJgKYMJAwcEfBAhEjgDQQAGQAAAAAAAAAAAAAAAAAAAAAAAAAAAAAAAAAA==
> <PUBCHEM_IUPAC_OPENEYE_NAME>
(5S)-5-(3-methylbut-3-enyl)-3-(1-morpholinopyrrol-3-yl)oxazolidin-2-one
> <PUBCHEM_IUPAC_CAS_NAME>
(5S)-5-(3-methylbut-3-enyl)-3-[1-(4-morpholinyl)-3-pyrrolyl]-2-oxazolidinone
> <PUBCHEM_IUPAC_NAME_MARKUP>
(5<I>S</I>)-5-(3-methylbut-3-enyl)-3-(1-morpholin-4-ylpyrrol-3-yl)-1,3-oxazolidin-2-one
> <PUBCHEM_IUPAC_NAME>
(5S)-5-(3-methylbut-3-enyl)-3-(1-morpholin-4-ylpyrrol-3-yl)-1,3-oxazolidin-2-one
> <PUBCHEM_IUPAC_SYSTEMATIC_NAME>
(5S)-5-(3-methylbut-3-enyl)-3-(1-morpholin-4-ylpyrrol-3-yl)-1,3-oxazolidin-2-one
> <PUBCHEM_IUPAC_TRADITIONAL_NAME>
(5S)-5-(3-methylbut-3-enyl)-3-(1-morpholinopyrrol-3-yl)oxazolidin-2-one
> <PUBCHEM_IUPAC_INCHI>
InChI=1S/C16H23N3O3/c1-13(2)3-4-15-12-19(16(20)22-15)14-5-6-18(11-14)17-7-9-21-10-8-17/h5-6,11,15H,1,3-4,7-10,12H2,2H3/t15-/m0/s1
> <PUBCHEM_IUPAC_INCHIKEY>
IAENNTGFSWCYML-HNNXBMFYSA-N
> <PUBCHEM_XLOGP3_AA>
2.5
> <PUBCHEM_EXACT_MASS>
305.17394160
> <PUBCHEM_MOLECULAR_FORMULA>
C16H23N3O3
> <PUBCHEM_MOLECULAR_WEIGHT>
305.37
> <PUBCHEM_OPENEYE_CAN_SMILES>
CC(=C)CCC1CN(C(=O)O1)C2=CN(C=C2)N3CCOCC3
> <PUBCHEM_OPENEYE_ISO_SMILES>
CC(=C)CC[C@H]1CN(C(=O)O1)C2=CN(C=C2)N3CCOCC3
> <PUBCHEM_CACTVS_TPSA>
46.9
> <PUBCHEM_MONOISOTOPIC_WEIGHT>
305.17394160
> <PUBCHEM_TOTAL_CHARGE>
0
> <PUBCHEM_HEAVY_ATOM_COUNT>
22
> <PUBCHEM_ATOM_DEF_STEREO_COUNT>
1
> <PUBCHEM_ATOM_UDEF_STEREO_COUNT>
0
> <PUBCHEM_BOND_DEF_STEREO_COUNT>
0
> <PUBCHEM_BOND_UDEF_STEREO_COUNT>
0
> <PUBCHEM_ISOTOPIC_ATOM_COUNT>
0
> <PUBCHEM_COMPONENT_COUNT>
1
> <PUBCHEM_CACTVS_TAUTO_COUNT>
-1
> <PUBCHEM_COORDINATE_TYPE>
1
5
255
> <PUBCHEM_BONDANNOTATIONS>
10  13  8
10  16  8
16  19  8
6  13  8
6  19  8
7  9  6
$$$$
