516737
  -OEChem-10302200292D
 42 44  0     1  0  0  0  0  0999 V2000
    2.0000   -2.9434    0.0000 F   0  0  0  0  0  0  0  0  0  0  0  0
    6.1288    1.3556    0.0000 O   0  0  0  0  0  0  0  0  0  0  0  0
    6.4076   -0.4045    0.0000 O   0  0  0  0  0  0  0  0  0  0  0  0
    4.8198    0.4045    0.0000 N   0  0  0  0  0  0  0  0  0  0  0  0
    3.7320   -1.9434    0.0000 N   0  0  0  0  0  0  0  0  0  0  0  0
    5.3198    1.9434    0.0000 C   0  0  2  0  0  0  0  0  0  0  0  0
    4.5108    1.3556    0.0000 C   0  0  0  0  0  0  0  0  0  0  0  0
    5.3198    2.9434    0.0000 C   0  0  0  0  0  0  0  0  0  0  0  0
    6.1859    3.4434    0.0000 C   0  0  0  0  0  0  0  0  0  0  0  0
    4.2320   -0.4045    0.0000 C   0  0  0  0  0  0  0  0  0  0  0  0
    5.8198    0.4045    0.0000 C   0  0  0  0  0  0  0  0  0  0  0  0
    4.5411   -1.3556    0.0000 C   0  0  0  0  0  0  0  0  0  0  0  0
    3.2320   -0.4045    0.0000 C   0  0  0  0  0  0  0  0  0  0  0  0
    6.1859    4.4434    0.0000 C   0  0  0  0  0  0  0  0  0  0  0  0
    2.9230   -1.3556    0.0000 C   0  0  0  0  0  0  0  0  0  0  0  0
    3.7320   -2.9434    0.0000 C   0  0  0  0  0  0  0  0  0  0  0  0
    7.0519    4.9434    0.0000 C   0  0  0  0  0  0  0  0  0  0  0  0
    5.3198    4.9434    0.0000 C   0  0  0  0  0  0  0  0  0  0  0  0
    2.8660   -3.4434    0.0000 C   0  0  0  0  0  0  0  0  0  0  0  0
    4.5981   -3.4434    0.0000 C   0  0  0  0  0  0  0  0  0  0  0  0
    2.8660   -4.4434    0.0000 C   0  0  0  0  0  0  0  0  0  0  0  0
    4.5981   -4.4434    0.0000 C   0  0  0  0  0  0  0  0  0  0  0  0
    3.7320   -4.9434    0.0000 C   0  0  0  0  0  0  0  0  0  0  0  0
    5.8723    2.2248    0.0000 H   0  0  0  0  0  0  0  0  0  0  0  0
    4.2008    1.8925    0.0000 H   0  0  0  0  0  0  0  0  0  0  0  0
    3.9444    1.1034    0.0000 H   0  0  0  0  0  0  0  0  0  0  0  0
    5.1078    3.5260    0.0000 H   0  0  0  0  0  0  0  0  0  0  0  0
    4.7093    2.8357    0.0000 H   0  0  0  0  0  0  0  0  0  0  0  0
    6.3979    2.8607    0.0000 H   0  0  0  0  0  0  0  0  0  0  0  0
    6.7964    3.5510    0.0000 H   0  0  0  0  0  0  0  0  0  0  0  0
    5.1307   -1.5472    0.0000 H   0  0  0  0  0  0  0  0  0  0  0  0
    2.8676    0.0971    0.0000 H   0  0  0  0  0  0  0  0  0  0  0  0
    2.3334   -1.5472    0.0000 H   0  0  0  0  0  0  0  0  0  0  0  0
    7.3619    4.4064    0.0000 H   0  0  0  0  0  0  0  0  0  0  0  0
    7.5888    5.2534    0.0000 H   0  0  0  0  0  0  0  0  0  0  0  0
    6.7419    5.4803    0.0000 H   0  0  0  0  0  0  0  0  0  0  0  0
    5.3198    5.5634    0.0000 H   0  0  0  0  0  0  0  0  0  0  0  0
    4.7829    4.6334    0.0000 H   0  0  0  0  0  0  0  0  0  0  0  0
    5.1350   -3.1334    0.0000 H   0  0  0  0  0  0  0  0  0  0  0  0
    2.3291   -4.7534    0.0000 H   0  0  0  0  0  0  0  0  0  0  0  0
    5.1350   -4.7534    0.0000 H   0  0  0  0  0  0  0  0  0  0  0  0
    3.7320   -5.5634    0.0000 H   0  0  0  0  0  0  0  0  0  0  0  0
  1 19  1  0  0  0  0
  2  6  1  0  0  0  0
  2 11  1  0  0  0  0
  3 11  2  0  0  0  0
  4  7  1  0  0  0  0
  4 10  1  0  0  0  0
  4 11  1  0  0  0  0
  5 12  1  0  0  0  0
  5 15  1  0  0  0  0
  5 16  1  0  0  0  0
  6  7  1  0  0  0  0
  6  8  1  6  0  0  0
  6 24  1  0  0  0  0
  7 25  1  0  0  0  0
  7 26  1  0  0  0  0
  8  9  1  0  0  0  0
  8 27  1  0  0  0  0
  8 28  1  0  0  0  0
  9 14  1  0  0  0  0
  9 29  1  0  0  0  0
  9 30  1  0  0  0  0
 10 12  2  0  0  0  0
 10 13  1  0  0  0  0
 12 31  1  0  0  0  0
 13 15  2  0  0  0  0
 13 32  1  0  0  0  0
 14 17  1  0  0  0  0
 14 18  2  0  0  0  0
 15 33  1  0  0  0  0
 16 19  1  0  0  0  0
 16 20  2  0  0  0  0
 17 34  1  0  0  0  0
 17 35  1  0  0  0  0
 17 36  1  0  0  0  0
 18 37  1  0  0  0  0
 18 38  1  0  0  0  0
 19 21  2  0  0  0  0
 20 22  1  0  0  0  0
 20 39  1  0  0  0  0
 21 23  1  0  0  0  0
 21 40  1  0  0  0  0
 22 23  2  0  0  0  0
 22 41  1  0  0  0  0
 23 42  1  0  0  0  0
M  END
> <PUBCHEM_COMPOUND_CID>
516737
> <PUBCHEM_COMPOUND_CANONICALIZED>
1
> <PUBCHEM_CACTVS_COMPLEXITY>
456
> <PUBCHEM_CACTVS_HBOND_ACCEPTOR>
3
> <PUBCHEM_CACTVS_HBOND_DONOR>
0
> <PUBCHEM_CACTVS_ROTATABLE_BOND>
5
> <PUBCHEM_CACTVS_SUBSKEYS>
AAADceB7MQAAAAAAAAAAAAAAAAAAAWLAAAAwAAAAAAAAAAABwAAAHwAAAAAADBzhkg4+yJMMFACoAjRnXACCgCAxEiAI2CA4dJgKYOLA0dGdJAhkhgDYyAeQAAAAAAAAAAAAAAAAAAAAAAAAAAAAAAAAAA==
> <PUBCHEM_IUPAC_OPENEYE_NAME>
(5S)-3-[1-(2-fluorophenyl)pyrrol-3-yl]-5-(3-methylbut-3-enyl)oxazolidin-2-one
> <PUBCHEM_IUPAC_CAS_NAME>
(5S)-3-[1-(2-fluorophenyl)-3-pyrrolyl]-5-(3-methylbut-3-enyl)-2-oxazolidinone
> <PUBCHEM_IUPAC_NAME_MARKUP>
(5<I>S</I>)-3-[1-(2-fluorophenyl)pyrrol-3-yl]-5-(3-methylbut-3-enyl)-1,3-oxazolidin-2-one
> <PUBCHEM_IUPAC_NAME>
(5S)-3-[1-(2-fluorophenyl)pyrrol-3-yl]-5-(3-methylbut-3-enyl)-1,3-oxazolidin-2-one
> <PUBCHEM_IUPAC_SYSTEMATIC_NAME>
(5S)-3-[1-(2-fluorophenyl)pyrrol-3-yl]-5-(3-methylbut-3-enyl)-1,3-oxazolidin-2-one
> <PUBCHEM_IUPAC_TRADITIONAL_NAME>
(5S)-3-[1-(2-fluorophenyl)pyrrol-3-yl]-5-(3-methylbut-3-enyl)oxazolidin-2-one
> <PUBCHEM_IUPAC_INCHI>
InChI=1S/C18H19FN2O2/c1-13(2)7-8-15-12-21(18(22)23-15)14-9-10-20(11-14)17-6-4-3-5-16(17)19/h3-6,9-11,15H,1,7-8,12H2,2H3/t15-/m0/s1
> <PUBCHEM_IUPAC_INCHIKEY>
CTJNCQNUDYEOQI-HNNXBMFYSA-N
> <PUBCHEM_XLOGP3_AA>
4.1
> <PUBCHEM_EXACT_MASS>
314.14305602
> <PUBCHEM_MOLECULAR_FORMULA>
C18H19FN2O2
> <PUBCHEM_MOLECULAR_WEIGHT>
314.4
> <PUBCHEM_OPENEYE_CAN_SMILES>
CC(=C)CCC1CN(C(=O)O1)C2=CN(C=C2)C3=CC=CC=C3F
> <PUBCHEM_OPENEYE_ISO_SMILES>
CC(=C)CC[C@H]1CN(C(=O)O1)C2=CN(C=C2)C3=CC=CC=C3F
> <PUBCHEM_CACTVS_TPSA>
34.5
> <PUBCHEM_MONOISOTOPIC_WEIGHT>
314.14305602
> <PUBCHEM_TOTAL_CHARGE>
0
> <PUBCHEM_HEAVY_ATOM_COUNT>
23
> <PUBCHEM_ATOM_DEF_STEREO_COUNT>
1
> <PUBCHEM_ATOM_UDEF_STEREO_COUNT>
0
> <PUBCHEM_BOND_DEF_STEREO_COUNT>
0
> <PUBCHEM_BOND_UDEF_STEREO_COUNT>
0
> <PUBCHEM_ISOTOPIC_ATOM_COUNT>
0
> <PUBCHEM_COMPONENT_COUNT>
1
> <PUBCHEM_CACTVS_TAUTO_COUNT>
-1
> <PUBCHEM_COORDINATE_TYPE>
1
5
255
> <PUBCHEM_BONDANNOTATIONS>
10  12  8
10  13  8
13  15  8
16  19  8
16  20  8
19  21  8
20  22  8
21  23  8
22  23  8
5  12  8
5  15  8
6  8  6
$$$$
