516729
  -OEChem-10302200292D
128131  0     1  0  0  0  0  0999 V2000
   10.5269    0.7178    0.0000 O   0  0  0  0  0  0  0  0  0  0  0  0
   11.4147   -3.8137    0.0000 O   0  0  0  0  0  0  0  0  0  0  0  0
    5.9998   -3.8346    0.0000 O   0  0  0  0  0  0  0  0  0  0  0  0
   15.2281    2.7865    0.0000 N   0  0  0  0  0  0  0  0  0  0  0  0
    8.7948    3.7178    0.0000 N   0  0  0  0  0  0  0  0  0  0  0  0
   13.1813   -6.7935    0.0000 N   0  0  0  0  0  0  0  0  0  0  0  0
    2.5357   -3.8212    0.0000 N   0  0  0  0  0  0  0  0  0  0  0  0
   11.3929   -0.7822    0.0000 C   0  0  1  0  0  0  0  0  0  0  0  0
   11.3929   -1.7822    0.0000 C   0  0  2  0  0  0  0  0  0  0  0  0
   10.5269   -2.2822    0.0000 C   0  0  3  0  0  0  0  0  0  0  0  0
    9.6608   -1.7822    0.0000 C   0  0  1  0  0  0  0  0  0  0  0  0
    8.7508   -2.2891    0.0000 C   0  0  2  0  0  0  0  0  0  0  0  0
   12.3391   -0.4775    0.0000 C   0  0  2  0  0  0  0  0  0  0  0  0
   10.5269   -0.2822    0.0000 C   0  0  2  0  0  0  0  0  0  0  0  0
    9.6608   -0.7822    0.0000 C   0  0  0  0  0  0  0  0  0  0  0  0
    8.7428   -3.3307    0.0000 C   0  0  3  0  0  0  0  0  0  0  0  0
   10.5429   -3.3238    0.0000 C   0  0  1  0  0  0  0  0  0  0  0  0
   12.3391   -2.0870    0.0000 C   0  0  0  0  0  0  0  0  0  0  0  0
   12.9227   -1.2822    0.0000 C   0  0  0  0  0  0  0  0  0  0  0  0
    9.6449   -3.8515    0.0000 C   0  0  0  0  0  0  0  0  0  0  0  0
    7.8240   -1.7250    0.0000 C   0  0  0  0  0  0  0  0  0  0  0  0
   11.3929    0.2178    0.0000 C   0  0  0  0  0  0  0  0  0  0  0  0
   12.6498    0.4730    0.0000 C   0  0  1  0  0  0  0  0  0  0  0  0
    7.8074   -3.8804    0.0000 C   0  0  0  0  0  0  0  0  0  0  0  0
    8.7586   -1.2891    0.0000 C   0  0  0  0  0  0  0  0  0  0  0  0
    6.8761   -2.2530    0.0000 C   0  0  0  0  0  0  0  0  0  0  0  0
    6.8678   -3.3379    0.0000 C   0  0  1  0  0  0  0  0  0  0  0  0
   13.6283    0.6792    0.0000 C   0  0  0  0  0  0  0  0  0  0  0  0
   11.9819    1.2173    0.0000 C   0  0  0  0  0  0  0  0  0  0  0  0
    9.6608    1.2178    0.0000 C   0  0  0  0  0  0  0  0  0  0  0  0
   11.4262   -4.8136    0.0000 C   0  0  0  0  0  0  0  0  0  0  0  0
   13.9389    1.6297    0.0000 C   0  0  0  0  0  0  0  0  0  0  0  0
    9.6608    2.2178    0.0000 C   0  0  0  0  0  0  0  0  0  0  0  0
   12.2980   -5.3036    0.0000 C   0  0  0  0  0  0  0  0  0  0  0  0
    5.1357   -3.3312    0.0000 C   0  0  0  0  0  0  0  0  0  0  0  0
   14.9175    1.8360    0.0000 C   0  0  0  0  0  0  0  0  0  0  0  0
    8.7948    2.7178    0.0000 C   0  0  0  0  0  0  0  0  0  0  0  0
    4.2678   -3.8279    0.0000 C   0  0  0  0  0  0  0  0  0  0  0  0
   12.3096   -6.3035    0.0000 C   0  0  0  0  0  0  0  0  0  0  0  0
    3.4037   -3.3246    0.0000 C   0  0  0  0  0  0  0  0  0  0  0  0
   16.2066    2.9927    0.0000 C   0  0  0  0  0  0  0  0  0  0  0  0
   16.5173    3.9432    0.0000 C   0  0  0  0  0  0  0  0  0  0  0  0
   17.4958    4.1494    0.0000 C   0  0  0  0  0  0  0  0  0  0  0  0
   17.8065    5.1000    0.0000 C   0  0  0  0  0  0  0  0  0  0  0  0
   18.7850    5.3062    0.0000 C   0  0  0  0  0  0  0  0  0  0  0  0
   19.0956    6.2567    0.0000 C   0  0  0  0  0  0  0  0  0  0  0  0
   20.0741    6.4629    0.0000 C   0  0  0  0  0  0  0  0  0  0  0  0
   20.3848    7.4134    0.0000 C   0  0  0  0  0  0  0  0  0  0  0  0
   11.4828   -2.6275    0.0000 H   0  0  0  0  0  0  0  0  0  0  0  0
   11.0662   -2.5881    0.0000 H   0  0  0  0  0  0  0  0  0  0  0  0
   10.3970   -1.3572    0.0000 H   0  0  0  0  0  0  0  0  0  0  0  0
   13.1788   -0.3456    0.0000 H   0  0  0  0  0  0  0  0  0  0  0  0
    9.9899    0.0278    0.0000 H   0  0  0  0  0  0  0  0  0  0  0  0
    9.4488   -0.1996    0.0000 H   0  0  0  0  0  0  0  0  0  0  0  0
    9.0503   -0.8899    0.0000 H   0  0  0  0  0  0  0  0  0  0  0  0
    8.7452   -3.9507    0.0000 H   0  0  0  0  0  0  0  0  0  0  0  0
   10.5489   -3.9437    0.0000 H   0  0  0  0  0  0  0  0  0  0  0  0
   12.0881   -2.6539    0.0000 H   0  0  0  0  0  0  0  0  0  0  0  0
   12.8765   -2.3962    0.0000 H   0  0  0  0  0  0  0  0  0  0  0  0
   13.3836   -1.6970    0.0000 H   0  0  0  0  0  0  0  0  0  0  0  0
   13.3836   -0.8675    0.0000 H   0  0  0  0  0  0  0  0  0  0  0  0
    9.2476   -4.3275    0.0000 H   0  0  0  0  0  0  0  0  0  0  0  0
   10.0459   -4.3244    0.0000 H   0  0  0  0  0  0  0  0  0  0  0  0
    8.2322   -1.2584    0.0000 H   0  0  0  0  0  0  0  0  0  0  0  0
    7.4341   -1.2430    0.0000 H   0  0  0  0  0  0  0  0  0  0  0  0
   12.0129    0.2178    0.0000 H   0  0  0  0  0  0  0  0  0  0  0  0
   11.3929    0.8378    0.0000 H   0  0  0  0  0  0  0  0  0  0  0  0
   10.7729    0.2178    0.0000 H   0  0  0  0  0  0  0  0  0  0  0  0
   12.8424    1.0623    0.0000 H   0  0  0  0  0  0  0  0  0  0  0  0
    7.4101   -4.3564    0.0000 H   0  0  0  0  0  0  0  0  0  0  0  0
    8.2084   -4.3533    0.0000 H   0  0  0  0  0  0  0  0  0  0  0  0
    9.3785   -1.2939    0.0000 H   0  0  0  0  0  0  0  0  0  0  0  0
    8.7633   -0.6691    0.0000 H   0  0  0  0  0  0  0  0  0  0  0  0
    8.1386   -1.2844    0.0000 H   0  0  0  0  0  0  0  0  0  0  0  0
    6.6716   -1.6677    0.0000 H   0  0  0  0  0  0  0  0  0  0  0  0
    6.2645   -2.3543    0.0000 H   0  0  0  0  0  0  0  0  0  0  0  0
    6.8666   -3.9579    0.0000 H   0  0  0  0  0  0  0  0  0  0  0  0
   13.6489    0.0596    0.0000 H   0  0  0  0  0  0  0  0  0  0  0  0
   14.2421    0.5919    0.0000 H   0  0  0  0  0  0  0  0  0  0  0  0
   12.4434    1.6314    0.0000 H   0  0  0  0  0  0  0  0  0  0  0  0
   11.5679    1.6788    0.0000 H   0  0  0  0  0  0  0  0  0  0  0  0
   11.5205    0.8032    0.0000 H   0  0  0  0  0  0  0  0  0  0  0  0
    9.0503    1.3254    0.0000 H   0  0  0  0  0  0  0  0  0  0  0  0
    9.4488    0.6351    0.0000 H   0  0  0  0  0  0  0  0  0  0  0  0
   10.8145   -4.7130    0.0000 H   0  0  0  0  0  0  0  0  0  0  0  0
   11.2209   -5.3987    0.0000 H   0  0  0  0  0  0  0  0  0  0  0  0
   13.9184    2.2494    0.0000 H   0  0  0  0  0  0  0  0  0  0  0  0
   13.3251    1.7171    0.0000 H   0  0  0  0  0  0  0  0  0  0  0  0
   10.2714    2.1101    0.0000 H   0  0  0  0  0  0  0  0  0  0  0  0
    9.8729    2.8004    0.0000 H   0  0  0  0  0  0  0  0  0  0  0  0
   12.9098   -5.4042    0.0000 H   0  0  0  0  0  0  0  0  0  0  0  0
   12.5033   -4.7186    0.0000 H   0  0  0  0  0  0  0  0  0  0  0  0
    5.5361   -2.8578    0.0000 H   0  0  0  0  0  0  0  0  0  0  0  0
    4.7390   -2.8548    0.0000 H   0  0  0  0  0  0  0  0  0  0  0  0
   14.9380    1.2163    0.0000 H   0  0  0  0  0  0  0  0  0  0  0  0
   15.5313    1.7486    0.0000 H   0  0  0  0  0  0  0  0  0  0  0  0
    8.1842    2.8254    0.0000 H   0  0  0  0  0  0  0  0  0  0  0  0
    8.5828    2.1351    0.0000 H   0  0  0  0  0  0  0  0  0  0  0  0
    3.8674   -4.3013    0.0000 H   0  0  0  0  0  0  0  0  0  0  0  0
    4.6645   -4.3044    0.0000 H   0  0  0  0  0  0  0  0  0  0  0  0
   11.6978   -6.2029    0.0000 H   0  0  0  0  0  0  0  0  0  0  0  0
   12.1043   -6.8886    0.0000 H   0  0  0  0  0  0  0  0  0  0  0  0
   14.8141    3.2480    0.0000 H   0  0  0  0  0  0  0  0  0  0  0  0
    3.8040   -2.8512    0.0000 H   0  0  0  0  0  0  0  0  0  0  0  0
    3.0070   -2.8481    0.0000 H   0  0  0  0  0  0  0  0  0  0  0  0
    8.2579    4.0278    0.0000 H   0  0  0  0  0  0  0  0  0  0  0  0
    9.3318    4.0278    0.0000 H   0  0  0  0  0  0  0  0  0  0  0  0
   16.2272    2.3730    0.0000 H   0  0  0  0  0  0  0  0  0  0  0  0
   16.8204    2.9054    0.0000 H   0  0  0  0  0  0  0  0  0  0  0  0
   13.1885   -7.4134    0.0000 H   0  0  0  0  0  0  0  0  0  0  0  0
   13.7146   -6.4773    0.0000 H   0  0  0  0  0  0  0  0  0  0  0  0
   16.4967    4.5629    0.0000 H   0  0  0  0  0  0  0  0  0  0  0  0
   15.9035    4.0306    0.0000 H   0  0  0  0  0  0  0  0  0  0  0  0
    2.0000   -3.5092    0.0000 H   0  0  0  0  0  0  0  0  0  0  0  0
    2.5334   -4.4412    0.0000 H   0  0  0  0  0  0  0  0  0  0  0  0
   17.5164    3.5298    0.0000 H   0  0  0  0  0  0  0  0  0  0  0  0
   18.1096    4.0621    0.0000 H   0  0  0  0  0  0  0  0  0  0  0  0
   17.7859    5.7196    0.0000 H   0  0  0  0  0  0  0  0  0  0  0  0
   17.1926    5.1873    0.0000 H   0  0  0  0  0  0  0  0  0  0  0  0
   18.8055    4.6865    0.0000 H   0  0  0  0  0  0  0  0  0  0  0  0
   19.3988    5.2188    0.0000 H   0  0  0  0  0  0  0  0  0  0  0  0
   19.0751    6.8764    0.0000 H   0  0  0  0  0  0  0  0  0  0  0  0
   18.4818    6.3440    0.0000 H   0  0  0  0  0  0  0  0  0  0  0  0
   20.0947    5.8433    0.0000 H   0  0  0  0  0  0  0  0  0  0  0  0
   20.6879    6.3756    0.0000 H   0  0  0  0  0  0  0  0  0  0  0  0
   20.9741    7.2208    0.0000 H   0  0  0  0  0  0  0  0  0  0  0  0
   20.5774    8.0028    0.0000 H   0  0  0  0  0  0  0  0  0  0  0  0
   19.7955    7.6060    0.0000 H   0  0  0  0  0  0  0  0  0  0  0  0
 14  1  1  6  0  0  0
  1 30  1  0  0  0  0
  2 17  1  0  0  0  0
  2 31  1  0  0  0  0
 27  3  1  6  0  0  0
  3 35  1  0  0  0  0
  4 36  1  0  0  0  0
  4 41  1  0  0  0  0
  4103  1  0  0  0  0
  5 37  1  0  0  0  0
  5106  1  0  0  0  0
  5107  1  0  0  0  0
  6 39  1  0  0  0  0
  6110  1  0  0  0  0
  6111  1  0  0  0  0
  7 40  1  0  0  0  0
  7114  1  0  0  0  0
  7115  1  0  0  0  0
  8  9  1  0  0  0  0
  8 13  1  0  0  0  0
  8 14  1  0  0  0  0
  8 22  1  1  0  0  0
  9 10  1  0  0  0  0
  9 18  1  0  0  0  0
  9 49  1  6  0  0  0
 10 11  1  0  0  0  0
 10 17  1  0  0  0  0
 10 50  1  0  0  0  0
 11 12  1  0  0  0  0
 11 15  1  0  0  0  0
 11 51  1  6  0  0  0
 12 16  1  0  0  0  0
 12 21  1  0  0  0  0
 12 25  1  1  0  0  0
 13 19  1  0  0  0  0
 13 23  1  0  0  0  0
 13 52  1  6  0  0  0
 14 15  1  0  0  0  0
 14 53  1  0  0  0  0
 15 54  1  0  0  0  0
 15 55  1  0  0  0  0
 16 20  1  0  0  0  0
 16 24  1  0  0  0  0
 16 56  1  0  0  0  0
 17 20  1  0  0  0  0
 17 57  1  0  0  0  0
 18 19  1  0  0  0  0
 18 58  1  0  0  0  0
 18 59  1  0  0  0  0
 19 60  1  0  0  0  0
 19 61  1  0  0  0  0
 20 62  1  0  0  0  0
 20 63  1  0  0  0  0
 21 26  1  0  0  0  0
 21 64  1  0  0  0  0
 21 65  1  0  0  0  0
 22 66  1  0  0  0  0
 22 67  1  0  0  0  0
 22 68  1  0  0  0  0
 23 28  1  0  0  0  0
 23 29  1  6  0  0  0
 23 69  1  0  0  0  0
 24 27  1  0  0  0  0
 24 70  1  0  0  0  0
 24 71  1  0  0  0  0
 25 72  1  0  0  0  0
 25 73  1  0  0  0  0
 25 74  1  0  0  0  0
 26 27  1  0  0  0  0
 26 75  1  0  0  0  0
 26 76  1  0  0  0  0
 27 77  1  0  0  0  0
 28 32  1  0  0  0  0
 28 78  1  0  0  0  0
 28 79  1  0  0  0  0
 29 80  1  0  0  0  0
 29 81  1  0  0  0  0
 29 82  1  0  0  0  0
 30 33  1  0  0  0  0
 30 83  1  0  0  0  0
 30 84  1  0  0  0  0
 31 34  1  0  0  0  0
 31 85  1  0  0  0  0
 31 86  1  0  0  0  0
 32 36  1  0  0  0  0
 32 87  1  0  0  0  0
 32 88  1  0  0  0  0
 33 37  1  0  0  0  0
 33 89  1  0  0  0  0
 33 90  1  0  0  0  0
 34 39  1  0  0  0  0
 34 91  1  0  0  0  0
 34 92  1  0  0  0  0
 35 38  1  0  0  0  0
 35 93  1  0  0  0  0
 35 94  1  0  0  0  0
 36 95  1  0  0  0  0
 36 96  1  0  0  0  0
 37 97  1  0  0  0  0
 37 98  1  0  0  0  0
 38 40  1  0  0  0  0
 38 99  1  0  0  0  0
 38100  1  0  0  0  0
 39101  1  0  0  0  0
 39102  1  0  0  0  0
 40104  1  0  0  0  0
 40105  1  0  0  0  0
 41 42  1  0  0  0  0
 41108  1  0  0  0  0
 41109  1  0  0  0  0
 42 43  1  0  0  0  0
 42112  1  0  0  0  0
 42113  1  0  0  0  0
 43 44  1  0  0  0  0
 43116  1  0  0  0  0
 43117  1  0  0  0  0
 44 45  1  0  0  0  0
 44118  1  0  0  0  0
 44119  1  0  0  0  0
 45 46  1  0  0  0  0
 45120  1  0  0  0  0
 45121  1  0  0  0  0
 46 47  1  0  0  0  0
 46122  1  0  0  0  0
 46123  1  0  0  0  0
 47 48  1  0  0  0  0
 47124  1  0  0  0  0
 47125  1  0  0  0  0
 48126  1  0  0  0  0
 48127  1  0  0  0  0
 48128  1  0  0  0  0
M  END
> <PUBCHEM_COMPOUND_CID>
516729
> <PUBCHEM_COMPOUND_CANONICALIZED>
1
> <PUBCHEM_CACTVS_COMPLEXITY>
879
> <PUBCHEM_CACTVS_HBOND_ACCEPTOR>
7
> <PUBCHEM_CACTVS_HBOND_DONOR>
4
> <PUBCHEM_CACTVS_ROTATABLE_BOND>
24
> <PUBCHEM_CACTVS_SUBSKEYS>
AAADcfB/sAAAAAAAAAAAAAAAAAAAAYAAAAAwYMAAAAAAAGDAAAAAHgAQAAAADxThgAYCAALABAAAAAAAAAAAAAAAAAAAAIAIAAAAAAIAgAAGAAAGEACAAAGQ4PwPgAAAAAAAAADAAAYAADAAAQAACAAAAA==
> <PUBCHEM_IUPAC_OPENEYE_NAME>
N-[(4R)-4-[(3R,7R,9S,10S,12S,13R,14S,17R)-3,7,12-tris(3-aminopropoxy)-10,13-dimethyl-2,3,4,5,6,7,8,9,11,12,14,15,16,17-tetradecahydro-1H-cyclopenta[a]phenanthren-17-yl]pentyl]octan-1-amine
> <PUBCHEM_IUPAC_CAS_NAME>
N-[(4R)-4-[(3R,7R,9S,10S,12S,13R,14S,17R)-3,7,12-tris(3-aminopropoxy)-10,13-dimethyl-2,3,4,5,6,7,8,9,11,12,14,15,16,17-tetradecahydro-1H-cyclopenta[a]phenanthren-17-yl]pentyl]-1-octanamine
> <PUBCHEM_IUPAC_NAME_MARKUP>
<I>N</I>-[(4<I>R</I>)-4-[(3<I>R</I>,7<I>R</I>,9<I>S</I>,10<I>S</I>,12<I>S</I>,13<I>R</I>,14<I>S</I>,17<I>R</I>)-3,7,12-tris(3-aminopropoxy)-10,13-dimethyl-2,3,4,5,6,7,8,9,11,12,14,15,16,17-tetradecahydro-1<I>H</I>-cyclopenta[a]phenanthren-17-yl]pentyl]octan-1-amine
> <PUBCHEM_IUPAC_NAME>
N-[(4R)-4-[(3R,7R,9S,10S,12S,13R,14S,17R)-3,7,12-tris(3-aminopropoxy)-10,13-dimethyl-2,3,4,5,6,7,8,9,11,12,14,15,16,17-tetradecahydro-1H-cyclopenta[a]phenanthren-17-yl]pentyl]octan-1-amine
> <PUBCHEM_IUPAC_SYSTEMATIC_NAME>
N-[(4R)-4-[(3R,7R,9S,10S,12S,13R,14S,17R)-3,7,12-tris(3-azanylpropoxy)-10,13-dimethyl-2,3,4,5,6,7,8,9,11,12,14,15,16,17-tetradecahydro-1H-cyclopenta[a]phenanthren-17-yl]pentyl]octan-1-amine
> <PUBCHEM_IUPAC_TRADITIONAL_NAME>
octyl-[(4R)-4-[(3R,7R,9S,10S,12S,13R,14S,17R)-3,7,12-tris(3-aminopropoxy)-10,13-dimethyl-2,3,4,5,6,7,8,9,11,12,14,15,16,17-tetradecahydro-1H-cyclopenta[a]phenanthren-17-yl]pentyl]amine
> <PUBCHEM_IUPAC_INCHI>
InChI=1S/C41H80N4O3/c1-5-6-7-8-9-10-23-45-24-11-15-31(2)34-16-17-35-39-36(30-38(41(34,35)4)48-27-14-22-44)40(3)19-18-33(46-25-12-20-42)28-32(40)29-37(39)47-26-13-21-43/h31-39,45H,5-30,42-44H2,1-4H3/t31-,32?,33-,34-,35+,36+,37-,38+,39?,40+,41-/m1/s1
> <PUBCHEM_IUPAC_INCHIKEY>
YDYLISNLJUDIGF-SYXDDQKTSA-N
> <PUBCHEM_XLOGP3_AA>
7.3
> <PUBCHEM_EXACT_MASS>
676.62304243
> <PUBCHEM_MOLECULAR_FORMULA>
C41H80N4O3
> <PUBCHEM_MOLECULAR_WEIGHT>
677.1
> <PUBCHEM_OPENEYE_CAN_SMILES>
CCCCCCCCNCCCC(C)C1CCC2C1(C(CC3C2C(CC4C3(CCC(C4)OCCCN)C)OCCCN)OCCCN)C
> <PUBCHEM_OPENEYE_ISO_SMILES>
CCCCCCCCNCCC[C@@H](C)[C@H]1CC[C@@H]2[C@@]1([C@H](C[C@H]3C2[C@@H](CC4[C@@]3(CC[C@H](C4)OCCCN)C)OCCCN)OCCCN)C
> <PUBCHEM_CACTVS_TPSA>
118
> <PUBCHEM_MONOISOTOPIC_WEIGHT>
676.62304243
> <PUBCHEM_TOTAL_CHARGE>
0
> <PUBCHEM_HEAVY_ATOM_COUNT>
48
> <PUBCHEM_ATOM_DEF_STEREO_COUNT>
9
> <PUBCHEM_ATOM_UDEF_STEREO_COUNT>
2
> <PUBCHEM_BOND_DEF_STEREO_COUNT>
0
> <PUBCHEM_BOND_UDEF_STEREO_COUNT>
0
> <PUBCHEM_ISOTOPIC_ATOM_COUNT>
0
> <PUBCHEM_COMPONENT_COUNT>
1
> <PUBCHEM_CACTVS_TAUTO_COUNT>
-1
> <PUBCHEM_COORDINATE_TYPE>
1
5
255
> <PUBCHEM_BONDANNOTATIONS>
14  1  6
10  17  3
11  51  6
12  25  5
13  52  6
16  24  3
23  29  6
27  3  6
8  22  5
9  49  6
$$$$
