516708
  -OEChem-10302200292D
 38 40  0     1  0  0  0  0  0999 V2000
    7.2622   -1.0000    0.0000 S   0  0  0  0  0  0  0  0  0  0  0  0
    2.0000   -1.0241    0.0000 F   0  0  0  0  0  0  0  0  0  0  0  0
    2.0000    1.0241    0.0000 F   0  0  0  0  0  0  0  0  0  0  0  0
   10.7263    1.0000    0.0000 O   0  0  0  0  0  0  0  0  0  0  0  0
    5.5301   -2.0000    0.0000 O   0  0  0  0  0  0  0  0  0  0  0  0
    5.5301    2.0000    0.0000 O   0  5  0  0  0  0  0  0  0  0  0  0
    5.5301   -1.0000    0.0000 N   0  3  0  0  0  0  0  0  0  0  0  0
    5.5301    1.0000    0.0000 N   0  0  0  0  0  0  0  0  0  0  0  0
    8.1282   -0.5000    0.0000 C   0  0  3  0  0  0  0  0  0  0  0  0
    8.9942   -1.0000    0.0000 C   0  0  0  0  0  0  0  0  0  0  0  0
    6.3961   -0.5000    0.0000 C   0  0  0  0  0  0  0  0  0  0  0  0
    6.3961    0.5000    0.0000 C   0  0  0  0  0  0  0  0  0  0  0  0
    4.6641   -0.5000    0.0000 C   0  0  0  0  0  0  0  0  0  0  0  0
    4.6641    0.5000    0.0000 C   0  0  0  0  0  0  0  0  0  0  0  0
    8.1282    0.5000    0.0000 C   0  0  0  0  0  0  0  0  0  0  0  0
    9.8602   -0.5000    0.0000 C   0  0  0  0  0  0  0  0  0  0  0  0
    9.8602    0.5000    0.0000 C   0  0  0  0  0  0  0  0  0  0  0  0
    8.9942    1.0000    0.0000 C   0  0  0  0  0  0  0  0  0  0  0  0
    3.7702   -1.0347    0.0000 C   0  0  0  0  0  0  0  0  0  0  0  0
    7.2622    1.0000    0.0000 C   0  0  0  0  0  0  0  0  0  0  0  0
    3.7702    1.0347    0.0000 C   0  0  0  0  0  0  0  0  0  0  0  0
    2.8641   -0.5208    0.0000 C   0  0  0  0  0  0  0  0  0  0  0  0
    2.8641    0.5208    0.0000 C   0  0  0  0  0  0  0  0  0  0  0  0
   11.5923    0.5000    0.0000 C   0  0  0  0  0  0  0  0  0  0  0  0
    8.1282   -1.1200    0.0000 H   0  0  0  0  0  0  0  0  0  0  0  0
    8.5957   -1.4750    0.0000 H   0  0  0  0  0  0  0  0  0  0  0  0
    9.3928   -1.4750    0.0000 H   0  0  0  0  0  0  0  0  0  0  0  0
    7.5913    0.8100    0.0000 H   0  0  0  0  0  0  0  0  0  0  0  0
   10.3972   -0.8100    0.0000 H   0  0  0  0  0  0  0  0  0  0  0  0
    8.9942    1.6200    0.0000 H   0  0  0  0  0  0  0  0  0  0  0  0
    3.7773   -1.6546    0.0000 H   0  0  0  0  0  0  0  0  0  0  0  0
    7.5722    0.4631    0.0000 H   0  0  0  0  0  0  0  0  0  0  0  0
    7.7991    1.3100    0.0000 H   0  0  0  0  0  0  0  0  0  0  0  0
    6.9522    1.5369    0.0000 H   0  0  0  0  0  0  0  0  0  0  0  0
    3.7773    1.6546    0.0000 H   0  0  0  0  0  0  0  0  0  0  0  0
   11.2823   -0.0369    0.0000 H   0  0  0  0  0  0  0  0  0  0  0  0
   12.1292    0.1900    0.0000 H   0  0  0  0  0  0  0  0  0  0  0  0
   11.9023    1.0369    0.0000 H   0  0  0  0  0  0  0  0  0  0  0  0
  1  9  1  0  0  0  0
  1 11  1  0  0  0  0
  2 22  1  0  0  0  0
  3 23  1  0  0  0  0
  4 17  1  0  0  0  0
  4 24  1  0  0  0  0
  5  7  2  0  0  0  0
  6  8  1  0  0  0  0
  7 11  1  0  0  0  0
  7 13  1  0  0  0  0
  8 12  1  0  0  0  0
  8 14  1  0  0  0  0
  9 10  1  0  0  0  0
  9 15  1  0  0  0  0
  9 25  1  0  0  0  0
 10 16  1  0  0  0  0
 10 26  1  0  0  0  0
 10 27  1  0  0  0  0
 11 12  2  0  0  0  0
 12 20  1  0  0  0  0
 13 14  1  0  0  0  0
 13 19  2  0  0  0  0
 14 21  2  0  0  0  0
 15 18  2  0  0  0  0
 15 28  1  0  0  0  0
 16 17  2  0  0  0  0
 16 29  1  0  0  0  0
 17 18  1  0  0  0  0
 18 30  1  0  0  0  0
 19 22  1  0  0  0  0
 19 31  1  0  0  0  0
 20 32  1  0  0  0  0
 20 33  1  0  0  0  0
 20 34  1  0  0  0  0
 21 23  1  0  0  0  0
 21 35  1  0  0  0  0
 22 23  2  0  0  0  0
 24 36  1  0  0  0  0
 24 37  1  0  0  0  0
 24 38  1  0  0  0  0
M  CHG  2   6  -1   7   1
M  END
> <PUBCHEM_COMPOUND_CID>
516708
> <PUBCHEM_COMPOUND_CANONICALIZED>
1
> <PUBCHEM_CACTVS_COMPLEXITY>
622
> <PUBCHEM_CACTVS_HBOND_ACCEPTOR>
7
> <PUBCHEM_CACTVS_HBOND_DONOR>
0
> <PUBCHEM_CACTVS_ROTATABLE_BOND>
3
> <PUBCHEM_CACTVS_SUBSKEYS>
AAADccB7MYBAAAAAAAAAAAAAAAAAAAAAAAAwQIAAAAAAAACBAAAAHwQEAAAACAyF0AqywIIQBAiBACRCQgCCCABhIhAoiAAAdIoIZCLgsZGUMAhggIDI6AcQAAAAAAAAAAAAACAAAAAAAAAAQAAAAAAAAA==
> <PUBCHEM_IUPAC_OPENEYE_NAME>
6,7-difluoro-2-(4-methoxycyclohexa-2,4-dien-1-yl)sulfanyl-3-methyl-4-oxido-quinoxalin-1-ium 1-oxide
> <PUBCHEM_IUPAC_CAS_NAME>
6,7-difluoro-2-[(4-methoxy-1-cyclohexa-2,4-dienyl)thio]-3-methyl-4-oxidoquinoxalin-1-ium 1-oxide
> <PUBCHEM_IUPAC_NAME_MARKUP>
6,7-difluoro-2-(4-methoxycyclohexa-2,4-dien-1-yl)sulfanyl-3-methyl-4-oxidoquinoxalin-1-ium 1-oxide
> <PUBCHEM_IUPAC_NAME>
6,7-difluoro-2-(4-methoxycyclohexa-2,4-dien-1-yl)sulfanyl-3-methyl-4-oxidoquinoxalin-1-ium 1-oxide
> <PUBCHEM_IUPAC_SYSTEMATIC_NAME>
6,7-bis(fluoranyl)-2-(4-methoxycyclohexa-2,4-dien-1-yl)sulfanyl-3-methyl-4-oxidanidyl-quinoxalin-1-ium 1-oxide
> <PUBCHEM_IUPAC_TRADITIONAL_NAME>
6,7-difluoro-2-[(4-methoxycyclohexa-2,4-dien-1-yl)thio]-3-methyl-4-oxido-quinoxalin-1-ium 1-oxide
> <PUBCHEM_IUPAC_INCHI>
InChI=1S/C16H14F2N2O3S/c1-9-16(24-11-5-3-10(23-2)4-6-11)20(22)15-8-13(18)12(17)7-14(15)19(9)21/h3-5,7-8,11H,6H2,1-2H3
> <PUBCHEM_IUPAC_INCHIKEY>
UYLVKFBUHUCCNF-UHFFFAOYSA-N
> <PUBCHEM_XLOGP3_AA>
2.5
> <PUBCHEM_EXACT_MASS>
352.06931981
> <PUBCHEM_MOLECULAR_FORMULA>
C16H14F2N2O3S
> <PUBCHEM_MOLECULAR_WEIGHT>
352.4
> <PUBCHEM_OPENEYE_CAN_SMILES>
CC1=C([N+](=O)C2=CC(=C(C=C2N1[O-])F)F)SC3CC=C(C=C3)OC
> <PUBCHEM_OPENEYE_ISO_SMILES>
CC1=C([N+](=O)C2=CC(=C(C=C2N1[O-])F)F)SC3CC=C(C=C3)OC
> <PUBCHEM_CACTVS_TPSA>
80.9
> <PUBCHEM_MONOISOTOPIC_WEIGHT>
352.06931981
> <PUBCHEM_TOTAL_CHARGE>
0
> <PUBCHEM_HEAVY_ATOM_COUNT>
24
> <PUBCHEM_ATOM_DEF_STEREO_COUNT>
0
> <PUBCHEM_ATOM_UDEF_STEREO_COUNT>
1
> <PUBCHEM_BOND_DEF_STEREO_COUNT>
0
> <PUBCHEM_BOND_UDEF_STEREO_COUNT>
0
> <PUBCHEM_ISOTOPIC_ATOM_COUNT>
0
> <PUBCHEM_COMPONENT_COUNT>
1
> <PUBCHEM_CACTVS_TAUTO_COUNT>
-1
> <PUBCHEM_COORDINATE_TYPE>
1
5
255
> <PUBCHEM_BONDANNOTATIONS>
9  1  3
11  12  8
13  14  8
13  19  8
14  21  8
19  22  8
21  23  8
22  23  8
7  11  8
7  13  8
8  12  8
8  14  8
$$$$
