516723
  -OEChem-10302200292D
111115  0     1  0  0  0  0  0999 V2000
    9.6613    1.1055    0.0000 O   0  0  0  0  0  0  0  0  0  0  0  0
   10.5491   -3.4260    0.0000 O   0  0  0  0  0  0  0  0  0  0  0  0
    5.1343   -3.4468    0.0000 O   0  0  0  0  0  0  0  0  0  0  0  0
   14.3626    3.1742    0.0000 N   0  0  3  0  0  0  0  0  0  0  0  0
    7.9293    3.1055    0.0000 N   0  0  0  0  0  0  0  0  0  0  0  0
   11.4440   -5.9158    0.0000 N   0  0  0  0  0  0  0  0  0  0  0  0
    2.5381   -2.9368    0.0000 N   0  0  0  0  0  0  0  0  0  0  0  0
   10.5273   -0.3945    0.0000 C   0  0  1  0  0  0  0  0  0  0  0  0
   10.5273   -1.3945    0.0000 C   0  0  2  0  0  0  0  0  0  0  0  0
    9.6613   -1.8945    0.0000 C   0  0  3  0  0  0  0  0  0  0  0  0
    8.7953   -1.3945    0.0000 C   0  0  1  0  0  0  0  0  0  0  0  0
    7.8853   -1.9014    0.0000 C   0  0  2  0  0  0  0  0  0  0  0  0
   11.4736   -0.0898    0.0000 C   0  0  2  0  0  0  0  0  0  0  0  0
    9.6613    0.1055    0.0000 C   0  0  2  0  0  0  0  0  0  0  0  0
    8.7953   -0.3945    0.0000 C   0  0  0  0  0  0  0  0  0  0  0  0
    7.8773   -2.9430    0.0000 C   0  0  3  0  0  0  0  0  0  0  0  0
    9.6774   -2.9360    0.0000 C   0  0  1  0  0  0  0  0  0  0  0  0
   11.4736   -1.6992    0.0000 C   0  0  0  0  0  0  0  0  0  0  0  0
   12.0572   -0.8945    0.0000 C   0  0  0  0  0  0  0  0  0  0  0  0
    8.7793   -3.4638    0.0000 C   0  0  0  0  0  0  0  0  0  0  0  0
    6.9584   -1.3373    0.0000 C   0  0  0  0  0  0  0  0  0  0  0  0
   10.5273    0.6055    0.0000 C   0  0  0  0  0  0  0  0  0  0  0  0
   11.7842    0.8607    0.0000 C   0  0  1  0  0  0  0  0  0  0  0  0
    6.9418   -3.4927    0.0000 C   0  0  0  0  0  0  0  0  0  0  0  0
    7.8930   -0.9014    0.0000 C   0  0  0  0  0  0  0  0  0  0  0  0
    6.0106   -1.8652    0.0000 C   0  0  0  0  0  0  0  0  0  0  0  0
    6.0022   -2.9502    0.0000 C   0  0  1  0  0  0  0  0  0  0  0  0
   12.7627    1.0670    0.0000 C   0  0  0  0  0  0  0  0  0  0  0  0
   11.1164    1.6050    0.0000 C   0  0  0  0  0  0  0  0  0  0  0  0
    8.7953    1.6055    0.0000 C   0  0  0  0  0  0  0  0  0  0  0  0
   10.5607   -4.4259    0.0000 C   0  0  0  0  0  0  0  0  0  0  0  0
   13.0734    2.0175    0.0000 C   0  0  0  0  0  0  0  0  0  0  0  0
    8.7953    2.6055    0.0000 C   0  0  0  0  0  0  0  0  0  0  0  0
    4.2702   -2.9435    0.0000 C   0  0  0  0  0  0  0  0  0  0  0  0
   11.4324   -4.9159    0.0000 C   0  0  0  0  0  0  0  0  0  0  0  0
   14.0519    2.2237    0.0000 C   0  0  0  0  0  0  0  0  0  0  0  0
    3.4022   -3.4402    0.0000 C   0  0  0  0  0  0  0  0  0  0  0  0
   15.3411    3.3804    0.0000 C   0  0  0  0  0  0  0  0  0  0  0  0
   13.6947    3.9185    0.0000 C   0  0  0  0  0  0  0  0  0  0  0  0
   15.6517    4.3309    0.0000 C   0  0  0  0  0  0  0  0  0  0  0  0
   14.9839    5.0752    0.0000 C   0  0  0  0  0  0  0  0  0  0  0  0
   16.6302    4.5372    0.0000 C   0  0  0  0  0  0  0  0  0  0  0  0
   15.2945    6.0258    0.0000 C   0  0  0  0  0  0  0  0  0  0  0  0
   16.9409    5.4877    0.0000 C   0  0  0  0  0  0  0  0  0  0  0  0
   16.2731    6.2320    0.0000 C   0  0  0  0  0  0  0  0  0  0  0  0
   10.6173   -2.2398    0.0000 H   0  0  0  0  0  0  0  0  0  0  0  0
   10.2006   -2.2004    0.0000 H   0  0  0  0  0  0  0  0  0  0  0  0
    9.5314   -0.9695    0.0000 H   0  0  0  0  0  0  0  0  0  0  0  0
   12.3133    0.0421    0.0000 H   0  0  0  0  0  0  0  0  0  0  0  0
    9.1244    0.4155    0.0000 H   0  0  0  0  0  0  0  0  0  0  0  0
    8.5832    0.1881    0.0000 H   0  0  0  0  0  0  0  0  0  0  0  0
    8.1847   -0.5022    0.0000 H   0  0  0  0  0  0  0  0  0  0  0  0
    7.8796   -3.5630    0.0000 H   0  0  0  0  0  0  0  0  0  0  0  0
   10.2101   -2.6188    0.0000 H   0  0  0  0  0  0  0  0  0  0  0  0
   11.2225   -2.2662    0.0000 H   0  0  0  0  0  0  0  0  0  0  0  0
   12.0109   -2.0085    0.0000 H   0  0  0  0  0  0  0  0  0  0  0  0
   12.5180   -1.3092    0.0000 H   0  0  0  0  0  0  0  0  0  0  0  0
   12.5180   -0.4798    0.0000 H   0  0  0  0  0  0  0  0  0  0  0  0
    8.3820   -3.9398    0.0000 H   0  0  0  0  0  0  0  0  0  0  0  0
    9.1803   -3.9367    0.0000 H   0  0  0  0  0  0  0  0  0  0  0  0
    7.3667   -0.8706    0.0000 H   0  0  0  0  0  0  0  0  0  0  0  0
    6.5685   -0.8552    0.0000 H   0  0  0  0  0  0  0  0  0  0  0  0
   11.1473    0.6055    0.0000 H   0  0  0  0  0  0  0  0  0  0  0  0
   10.5273    1.2255    0.0000 H   0  0  0  0  0  0  0  0  0  0  0  0
    9.9073    0.6055    0.0000 H   0  0  0  0  0  0  0  0  0  0  0  0
   11.9768    1.4500    0.0000 H   0  0  0  0  0  0  0  0  0  0  0  0
    6.5445   -3.9687    0.0000 H   0  0  0  0  0  0  0  0  0  0  0  0
    7.3428   -3.9656    0.0000 H   0  0  0  0  0  0  0  0  0  0  0  0
    8.5130   -0.9062    0.0000 H   0  0  0  0  0  0  0  0  0  0  0  0
    7.8978   -0.2814    0.0000 H   0  0  0  0  0  0  0  0  0  0  0  0
    7.2730   -0.8966    0.0000 H   0  0  0  0  0  0  0  0  0  0  0  0
    5.8060   -1.2800    0.0000 H   0  0  0  0  0  0  0  0  0  0  0  0
    5.3989   -1.9666    0.0000 H   0  0  0  0  0  0  0  0  0  0  0  0
    5.4671   -2.6371    0.0000 H   0  0  0  0  0  0  0  0  0  0  0  0
   12.7833    0.4473    0.0000 H   0  0  0  0  0  0  0  0  0  0  0  0
   13.3765    0.9796    0.0000 H   0  0  0  0  0  0  0  0  0  0  0  0
   11.5778    2.0191    0.0000 H   0  0  0  0  0  0  0  0  0  0  0  0
   10.7023    2.0665    0.0000 H   0  0  0  0  0  0  0  0  0  0  0  0
   10.6549    1.1910    0.0000 H   0  0  0  0  0  0  0  0  0  0  0  0
    8.1847    1.7131    0.0000 H   0  0  0  0  0  0  0  0  0  0  0  0
    8.5832    1.0229    0.0000 H   0  0  0  0  0  0  0  0  0  0  0  0
    9.9489   -4.3253    0.0000 H   0  0  0  0  0  0  0  0  0  0  0  0
   10.3554   -5.0109    0.0000 H   0  0  0  0  0  0  0  0  0  0  0  0
   13.0528    2.6371    0.0000 H   0  0  0  0  0  0  0  0  0  0  0  0
   12.4596    2.1048    0.0000 H   0  0  0  0  0  0  0  0  0  0  0  0
    9.4059    2.4978    0.0000 H   0  0  0  0  0  0  0  0  0  0  0  0
    9.0073    3.1881    0.0000 H   0  0  0  0  0  0  0  0  0  0  0  0
    4.6705   -2.4701    0.0000 H   0  0  0  0  0  0  0  0  0  0  0  0
    3.8735   -2.4670    0.0000 H   0  0  0  0  0  0  0  0  0  0  0  0
   12.0442   -5.0165    0.0000 H   0  0  0  0  0  0  0  0  0  0  0  0
   11.6377   -4.3308    0.0000 H   0  0  0  0  0  0  0  0  0  0  0  0
   14.0725    1.6040    0.0000 H   0  0  0  0  0  0  0  0  0  0  0  0
   14.6657    2.1363    0.0000 H   0  0  0  0  0  0  0  0  0  0  0  0
    3.0019   -3.9136    0.0000 H   0  0  0  0  0  0  0  0  0  0  0  0
    3.7989   -3.9167    0.0000 H   0  0  0  0  0  0  0  0  0  0  0  0
    7.9293    3.7255    0.0000 H   0  0  0  0  0  0  0  0  0  0  0  0
    7.3923    2.7955    0.0000 H   0  0  0  0  0  0  0  0  0  0  0  0
   11.9845   -6.2196    0.0000 H   0  0  0  0  0  0  0  0  0  0  0  0
   10.9107   -6.2320    0.0000 H   0  0  0  0  0  0  0  0  0  0  0  0
   15.3616    2.7608    0.0000 H   0  0  0  0  0  0  0  0  0  0  0  0
   15.9549    3.2931    0.0000 H   0  0  0  0  0  0  0  0  0  0  0  0
   14.1562    4.3326    0.0000 H   0  0  0  0  0  0  0  0  0  0  0  0
   13.2807    4.3800    0.0000 H   0  0  0  0  0  0  0  0  0  0  0  0
   13.2332    3.5044    0.0000 H   0  0  0  0  0  0  0  0  0  0  0  0
    2.0000   -3.2448    0.0000 H   0  0  0  0  0  0  0  0  0  0  0  0
    2.5405   -2.3168    0.0000 H   0  0  0  0  0  0  0  0  0  0  0  0
   14.3772    4.9474    0.0000 H   0  0  0  0  0  0  0  0  0  0  0  0
   17.0443    4.0757    0.0000 H   0  0  0  0  0  0  0  0  0  0  0  0
   14.8805    6.4872    0.0000 H   0  0  0  0  0  0  0  0  0  0  0  0
   17.5476    5.6155    0.0000 H   0  0  0  0  0  0  0  0  0  0  0  0
   16.4657    6.8213    0.0000 H   0  0  0  0  0  0  0  0  0  0  0  0
 14  1  1  6  0  0  0
  1 30  1  0  0  0  0
  2 17  1  0  0  0  0
  2 31  1  0  0  0  0
 27  3  1  6  0  0  0
  3 34  1  0  0  0  0
  4 36  1  0  0  0  0
  4 38  1  0  0  0  0
  4 39  1  0  0  0  0
  5 33  1  0  0  0  0
  5 96  1  0  0  0  0
  5 97  1  0  0  0  0
  6 35  1  0  0  0  0
  6 98  1  0  0  0  0
  6 99  1  0  0  0  0
  7 37  1  0  0  0  0
  7105  1  0  0  0  0
  7106  1  0  0  0  0
  8  9  1  0  0  0  0
  8 13  1  0  0  0  0
  8 14  1  0  0  0  0
  8 22  1  1  0  0  0
  9 10  1  0  0  0  0
  9 18  1  0  0  0  0
  9 46  1  6  0  0  0
 10 11  1  0  0  0  0
 10 17  1  0  0  0  0
 10 47  1  0  0  0  0
 11 12  1  0  0  0  0
 11 15  1  0  0  0  0
 11 48  1  6  0  0  0
 12 16  1  0  0  0  0
 12 21  1  0  0  0  0
 12 25  1  1  0  0  0
 13 19  1  0  0  0  0
 13 23  1  0  0  0  0
 13 49  1  6  0  0  0
 14 15  1  0  0  0  0
 14 50  1  0  0  0  0
 15 51  1  0  0  0  0
 15 52  1  0  0  0  0
 16 20  1  0  0  0  0
 16 24  1  0  0  0  0
 16 53  1  0  0  0  0
 17 20  1  0  0  0  0
 17 54  1  0  0  0  0
 18 19  1  0  0  0  0
 18 55  1  0  0  0  0
 18 56  1  0  0  0  0
 19 57  1  0  0  0  0
 19 58  1  0  0  0  0
 20 59  1  0  0  0  0
 20 60  1  0  0  0  0
 21 26  1  0  0  0  0
 21 61  1  0  0  0  0
 21 62  1  0  0  0  0
 22 63  1  0  0  0  0
 22 64  1  0  0  0  0
 22 65  1  0  0  0  0
 23 28  1  0  0  0  0
 23 29  1  6  0  0  0
 23 66  1  0  0  0  0
 24 27  1  0  0  0  0
 24 67  1  0  0  0  0
 24 68  1  0  0  0  0
 25 69  1  0  0  0  0
 25 70  1  0  0  0  0
 25 71  1  0  0  0  0
 26 27  1  0  0  0  0
 26 72  1  0  0  0  0
 26 73  1  0  0  0  0
 27 74  1  0  0  0  0
 28 32  1  0  0  0  0
 28 75  1  0  0  0  0
 28 76  1  0  0  0  0
 29 77  1  0  0  0  0
 29 78  1  0  0  0  0
 29 79  1  0  0  0  0
 30 33  1  0  0  0  0
 30 80  1  0  0  0  0
 30 81  1  0  0  0  0
 31 35  1  0  0  0  0
 31 82  1  0  0  0  0
 31 83  1  0  0  0  0
 32 36  1  0  0  0  0
 32 84  1  0  0  0  0
 32 85  1  0  0  0  0
 33 86  1  0  0  0  0
 33 87  1  0  0  0  0
 34 37  1  0  0  0  0
 34 88  1  0  0  0  0
 34 89  1  0  0  0  0
 35 90  1  0  0  0  0
 35 91  1  0  0  0  0
 36 92  1  0  0  0  0
 36 93  1  0  0  0  0
 37 94  1  0  0  0  0
 37 95  1  0  0  0  0
 38 40  1  0  0  0  0
 38100  1  0  0  0  0
 38101  1  0  0  0  0
 39102  1  0  0  0  0
 39103  1  0  0  0  0
 39104  1  0  0  0  0
 40 41  2  0  0  0  0
 40 42  1  0  0  0  0
 41 43  1  0  0  0  0
 41107  1  0  0  0  0
 42 44  2  0  0  0  0
 42108  1  0  0  0  0
 43 45  2  0  0  0  0
 43109  1  0  0  0  0
 44 45  1  0  0  0  0
 44110  1  0  0  0  0
 45111  1  0  0  0  0
M  END
> <PUBCHEM_COMPOUND_CID>
516723
> <PUBCHEM_COMPOUND_CANONICALIZED>
1
> <PUBCHEM_CACTVS_COMPLEXITY>
887
> <PUBCHEM_CACTVS_HBOND_ACCEPTOR>
7
> <PUBCHEM_CACTVS_HBOND_DONOR>
3
> <PUBCHEM_CACTVS_ROTATABLE_BOND>
16
> <PUBCHEM_CACTVS_SUBSKEYS>
AAADcfB/sAAAAAAAAAAAAAAAAAAAAYAAAAAwYMGAAAAAAGDBAAAAHgAQAAAADxThmAYyAINABACAAiBCAACCAAAgAAAIiIAIBIgKICKAkRGHIAhkkACIiAeQ4PwPgAAAAAAAAADAAAYAADAAAQAACAAAAA==
> <PUBCHEM_IUPAC_OPENEYE_NAME>
(4R)-N-benzyl-N-methyl-4-[(3R,7R,9S,10S,12S,13R,14S,17R)-3,7,12-tris(2-aminoethoxy)-10,13-dimethyl-2,3,4,5,6,7,8,9,11,12,14,15,16,17-tetradecahydro-1H-cyclopenta[a]phenanthren-17-yl]pentan-1-amine
> <PUBCHEM_IUPAC_CAS_NAME>
(4R)-N-methyl-N-(phenylmethyl)-4-[(3R,7R,9S,10S,12S,13R,14S,17R)-3,7,12-tris(2-aminoethoxy)-10,13-dimethyl-2,3,4,5,6,7,8,9,11,12,14,15,16,17-tetradecahydro-1H-cyclopenta[a]phenanthren-17-yl]-1-pentanamine
> <PUBCHEM_IUPAC_NAME_MARKUP>
(4<I>R</I>)-<I>N</I>-benzyl-<I>N</I>-methyl-4-[(3<I>R</I>,7<I>R</I>,9<I>S</I>,10<I>S</I>,12<I>S</I>,13<I>R</I>,14<I>S</I>,17<I>R</I>)-3,7,12-tris(2-aminoethoxy)-10,13-dimethyl-2,3,4,5,6,7,8,9,11,12,14,15,16,17-tetradecahydro-1<I>H</I>-cyclopenta[a]phenanthren-17-yl]pentan-1-amine
> <PUBCHEM_IUPAC_NAME>
(4R)-N-benzyl-N-methyl-4-[(3R,7R,9S,10S,12S,13R,14S,17R)-3,7,12-tris(2-aminoethoxy)-10,13-dimethyl-2,3,4,5,6,7,8,9,11,12,14,15,16,17-tetradecahydro-1H-cyclopenta[a]phenanthren-17-yl]pentan-1-amine
> <PUBCHEM_IUPAC_SYSTEMATIC_NAME>
(4R)-N-methyl-N-(phenylmethyl)-4-[(3R,7R,9S,10S,12S,13R,14S,17R)-3,7,12-tris(2-azanylethoxy)-10,13-dimethyl-2,3,4,5,6,7,8,9,11,12,14,15,16,17-tetradecahydro-1H-cyclopenta[a]phenanthren-17-yl]pentan-1-amine
> <PUBCHEM_IUPAC_TRADITIONAL_NAME>
benzyl-methyl-[(4R)-4-[(3R,7R,9S,10S,12S,13R,14S,17R)-3,7,12-tris(2-aminoethoxy)-10,13-dimethyl-2,3,4,5,6,7,8,9,11,12,14,15,16,17-tetradecahydro-1H-cyclopenta[a]phenanthren-17-yl]pentyl]amine
> <PUBCHEM_IUPAC_INCHI>
InChI=1S/C38H66N4O3/c1-27(9-8-19-42(4)26-28-10-6-5-7-11-28)31-12-13-32-36-33(25-35(38(31,32)3)45-22-18-41)37(2)15-14-30(43-20-16-39)23-29(37)24-34(36)44-21-17-40/h5-7,10-11,27,29-36H,8-9,12-26,39-41H2,1-4H3/t27-,29?,30-,31-,32+,33+,34-,35+,36?,37+,38-/m1/s1
> <PUBCHEM_IUPAC_INCHIKEY>
OUXXNYQLGNXUGD-KRDXXMFSSA-N
> <PUBCHEM_XLOGP3_AA>
4.8
> <PUBCHEM_EXACT_MASS>
626.51349198
> <PUBCHEM_MOLECULAR_FORMULA>
C38H66N4O3
> <PUBCHEM_MOLECULAR_WEIGHT>
627.0
> <PUBCHEM_OPENEYE_CAN_SMILES>
CC(CCCN(C)CC1=CC=CC=C1)C2CCC3C2(C(CC4C3C(CC5C4(CCC(C5)OCCN)C)OCCN)OCCN)C
> <PUBCHEM_OPENEYE_ISO_SMILES>
C[C@H](CCCN(C)CC1=CC=CC=C1)[C@H]2CC[C@@H]3[C@@]2([C@H](C[C@H]4C3[C@@H](CC5[C@@]4(CC[C@H](C5)OCCN)C)OCCN)OCCN)C
> <PUBCHEM_CACTVS_TPSA>
109
> <PUBCHEM_MONOISOTOPIC_WEIGHT>
626.51349198
> <PUBCHEM_TOTAL_CHARGE>
0
> <PUBCHEM_HEAVY_ATOM_COUNT>
45
> <PUBCHEM_ATOM_DEF_STEREO_COUNT>
9
> <PUBCHEM_ATOM_UDEF_STEREO_COUNT>
2
> <PUBCHEM_BOND_DEF_STEREO_COUNT>
0
> <PUBCHEM_BOND_UDEF_STEREO_COUNT>
0
> <PUBCHEM_ISOTOPIC_ATOM_COUNT>
0
> <PUBCHEM_COMPONENT_COUNT>
1
> <PUBCHEM_CACTVS_TAUTO_COUNT>
-1
> <PUBCHEM_COORDINATE_TYPE>
1
5
255
> <PUBCHEM_BONDANNOTATIONS>
14  1  6
10  17  3
11  48  6
12  25  5
13  49  6
16  24  3
23  29  6
27  3  6
40  41  8
40  42  8
41  43  8
42  44  8
43  45  8
44  45  8
8  22  5
9  46  6
$$$$
