516724
  -OEChem-10302200292D
120124  0     1  0  0  0  0  0999 V2000
   10.5269    1.5023    0.0000 O   0  0  0  0  0  0  0  0  0  0  0  0
   11.4147   -3.0291    0.0000 O   0  0  0  0  0  0  0  0  0  0  0  0
    5.9998   -3.0500    0.0000 O   0  0  0  0  0  0  0  0  0  0  0  0
   15.2281    3.5711    0.0000 N   0  0  3  0  0  0  0  0  0  0  0  0
    8.7948    4.5023    0.0000 N   0  0  0  0  0  0  0  0  0  0  0  0
   13.1813   -6.0089    0.0000 N   0  0  0  0  0  0  0  0  0  0  0  0
    2.5357   -3.0366    0.0000 N   0  0  0  0  0  0  0  0  0  0  0  0
   11.3929    0.0023    0.0000 C   0  0  1  0  0  0  0  0  0  0  0  0
   11.3929   -0.9977    0.0000 C   0  0  2  0  0  0  0  0  0  0  0  0
   10.5269   -1.4977    0.0000 C   0  0  3  0  0  0  0  0  0  0  0  0
    9.6608   -0.9977    0.0000 C   0  0  1  0  0  0  0  0  0  0  0  0
    8.7508   -1.5045    0.0000 C   0  0  2  0  0  0  0  0  0  0  0  0
   12.3391    0.3071    0.0000 C   0  0  2  0  0  0  0  0  0  0  0  0
   10.5269    0.5023    0.0000 C   0  0  2  0  0  0  0  0  0  0  0  0
    9.6608    0.0023    0.0000 C   0  0  0  0  0  0  0  0  0  0  0  0
    8.7428   -2.5461    0.0000 C   0  0  3  0  0  0  0  0  0  0  0  0
   10.5429   -2.5392    0.0000 C   0  0  1  0  0  0  0  0  0  0  0  0
   12.3391   -1.3024    0.0000 C   0  0  0  0  0  0  0  0  0  0  0  0
   12.9227   -0.4977    0.0000 C   0  0  0  0  0  0  0  0  0  0  0  0
    9.6449   -3.0669    0.0000 C   0  0  0  0  0  0  0  0  0  0  0  0
    7.8240   -0.9404    0.0000 C   0  0  0  0  0  0  0  0  0  0  0  0
   11.3929    1.0023    0.0000 C   0  0  0  0  0  0  0  0  0  0  0  0
   12.6498    1.2576    0.0000 C   0  0  1  0  0  0  0  0  0  0  0  0
    7.8074   -3.0958    0.0000 C   0  0  0  0  0  0  0  0  0  0  0  0
    8.7586   -0.5045    0.0000 C   0  0  0  0  0  0  0  0  0  0  0  0
    6.8761   -1.4684    0.0000 C   0  0  0  0  0  0  0  0  0  0  0  0
    6.8678   -2.5533    0.0000 C   0  0  1  0  0  0  0  0  0  0  0  0
   13.6283    1.4638    0.0000 C   0  0  0  0  0  0  0  0  0  0  0  0
   11.9819    2.0019    0.0000 C   0  0  0  0  0  0  0  0  0  0  0  0
    9.6608    2.0023    0.0000 C   0  0  0  0  0  0  0  0  0  0  0  0
   11.4262   -4.0290    0.0000 C   0  0  0  0  0  0  0  0  0  0  0  0
   13.9389    2.4143    0.0000 C   0  0  0  0  0  0  0  0  0  0  0  0
    9.6608    3.0023    0.0000 C   0  0  0  0  0  0  0  0  0  0  0  0
   12.2980   -4.5190    0.0000 C   0  0  0  0  0  0  0  0  0  0  0  0
    5.1357   -2.5467    0.0000 C   0  0  0  0  0  0  0  0  0  0  0  0
   14.9175    2.6206    0.0000 C   0  0  0  0  0  0  0  0  0  0  0  0
    8.7948    3.5023    0.0000 C   0  0  0  0  0  0  0  0  0  0  0  0
    4.2678   -3.0433    0.0000 C   0  0  0  0  0  0  0  0  0  0  0  0
   12.3096   -5.5189    0.0000 C   0  0  0  0  0  0  0  0  0  0  0  0
    3.4037   -2.5400    0.0000 C   0  0  0  0  0  0  0  0  0  0  0  0
   16.2066    3.7773    0.0000 C   0  0  0  0  0  0  0  0  0  0  0  0
   14.5603    4.3154    0.0000 C   0  0  0  0  0  0  0  0  0  0  0  0
   16.5173    4.7278    0.0000 C   0  0  0  0  0  0  0  0  0  0  0  0
   15.8494    5.4721    0.0000 C   0  0  0  0  0  0  0  0  0  0  0  0
   17.4958    4.9340    0.0000 C   0  0  0  0  0  0  0  0  0  0  0  0
   16.1601    6.4226    0.0000 C   0  0  0  0  0  0  0  0  0  0  0  0
   17.8065    5.8846    0.0000 C   0  0  0  0  0  0  0  0  0  0  0  0
   17.1386    6.6288    0.0000 C   0  0  0  0  0  0  0  0  0  0  0  0
   11.4828   -1.8429    0.0000 H   0  0  0  0  0  0  0  0  0  0  0  0
   11.0662   -1.8035    0.0000 H   0  0  0  0  0  0  0  0  0  0  0  0
   10.3970   -0.5727    0.0000 H   0  0  0  0  0  0  0  0  0  0  0  0
   13.1788    0.4390    0.0000 H   0  0  0  0  0  0  0  0  0  0  0  0
    9.9899    0.8123    0.0000 H   0  0  0  0  0  0  0  0  0  0  0  0
    9.4488    0.5849    0.0000 H   0  0  0  0  0  0  0  0  0  0  0  0
    9.0503   -0.1053    0.0000 H   0  0  0  0  0  0  0  0  0  0  0  0
    8.7452   -3.1661    0.0000 H   0  0  0  0  0  0  0  0  0  0  0  0
   10.5489   -3.1591    0.0000 H   0  0  0  0  0  0  0  0  0  0  0  0
   12.0881   -1.8693    0.0000 H   0  0  0  0  0  0  0  0  0  0  0  0
   12.8765   -1.6116    0.0000 H   0  0  0  0  0  0  0  0  0  0  0  0
   13.3836   -0.9124    0.0000 H   0  0  0  0  0  0  0  0  0  0  0  0
   13.3836   -0.0829    0.0000 H   0  0  0  0  0  0  0  0  0  0  0  0
    9.2476   -3.5429    0.0000 H   0  0  0  0  0  0  0  0  0  0  0  0
   10.0459   -3.5398    0.0000 H   0  0  0  0  0  0  0  0  0  0  0  0
    8.2322   -0.4738    0.0000 H   0  0  0  0  0  0  0  0  0  0  0  0
    7.4341   -0.4584    0.0000 H   0  0  0  0  0  0  0  0  0  0  0  0
   12.0129    1.0023    0.0000 H   0  0  0  0  0  0  0  0  0  0  0  0
   11.3929    1.6223    0.0000 H   0  0  0  0  0  0  0  0  0  0  0  0
   10.7729    1.0023    0.0000 H   0  0  0  0  0  0  0  0  0  0  0  0
   12.8424    1.8469    0.0000 H   0  0  0  0  0  0  0  0  0  0  0  0
    7.4101   -3.5718    0.0000 H   0  0  0  0  0  0  0  0  0  0  0  0
    8.2084   -3.5687    0.0000 H   0  0  0  0  0  0  0  0  0  0  0  0
    9.3785   -0.5093    0.0000 H   0  0  0  0  0  0  0  0  0  0  0  0
    8.7633    0.1154    0.0000 H   0  0  0  0  0  0  0  0  0  0  0  0
    8.1386   -0.4998    0.0000 H   0  0  0  0  0  0  0  0  0  0  0  0
    6.6716   -0.8831    0.0000 H   0  0  0  0  0  0  0  0  0  0  0  0
    6.2645   -1.5698    0.0000 H   0  0  0  0  0  0  0  0  0  0  0  0
    6.8666   -3.1733    0.0000 H   0  0  0  0  0  0  0  0  0  0  0  0
   13.6489    0.8442    0.0000 H   0  0  0  0  0  0  0  0  0  0  0  0
   14.2421    1.3765    0.0000 H   0  0  0  0  0  0  0  0  0  0  0  0
   12.4434    2.4160    0.0000 H   0  0  0  0  0  0  0  0  0  0  0  0
   11.5679    2.4634    0.0000 H   0  0  0  0  0  0  0  0  0  0  0  0
   11.5205    1.5878    0.0000 H   0  0  0  0  0  0  0  0  0  0  0  0
    9.0503    2.1100    0.0000 H   0  0  0  0  0  0  0  0  0  0  0  0
    9.4488    1.4197    0.0000 H   0  0  0  0  0  0  0  0  0  0  0  0
   10.8145   -3.9285    0.0000 H   0  0  0  0  0  0  0  0  0  0  0  0
   11.2209   -4.6141    0.0000 H   0  0  0  0  0  0  0  0  0  0  0  0
   13.9184    3.0340    0.0000 H   0  0  0  0  0  0  0  0  0  0  0  0
   13.3251    2.5017    0.0000 H   0  0  0  0  0  0  0  0  0  0  0  0
   10.2714    2.8947    0.0000 H   0  0  0  0  0  0  0  0  0  0  0  0
    9.8729    3.5850    0.0000 H   0  0  0  0  0  0  0  0  0  0  0  0
   12.9098   -4.6196    0.0000 H   0  0  0  0  0  0  0  0  0  0  0  0
   12.5033   -3.9340    0.0000 H   0  0  0  0  0  0  0  0  0  0  0  0
    5.5361   -2.0732    0.0000 H   0  0  0  0  0  0  0  0  0  0  0  0
    4.7390   -2.0702    0.0000 H   0  0  0  0  0  0  0  0  0  0  0  0
   14.9380    2.0009    0.0000 H   0  0  0  0  0  0  0  0  0  0  0  0
   15.5313    2.5332    0.0000 H   0  0  0  0  0  0  0  0  0  0  0  0
    8.1842    3.6100    0.0000 H   0  0  0  0  0  0  0  0  0  0  0  0
    8.5828    2.9197    0.0000 H   0  0  0  0  0  0  0  0  0  0  0  0
    3.8674   -3.5167    0.0000 H   0  0  0  0  0  0  0  0  0  0  0  0
    4.6645   -3.5198    0.0000 H   0  0  0  0  0  0  0  0  0  0  0  0
   11.6978   -5.4183    0.0000 H   0  0  0  0  0  0  0  0  0  0  0  0
   12.1043   -6.1040    0.0000 H   0  0  0  0  0  0  0  0  0  0  0  0
    3.8040   -2.0666    0.0000 H   0  0  0  0  0  0  0  0  0  0  0  0
    3.0070   -2.0635    0.0000 H   0  0  0  0  0  0  0  0  0  0  0  0
   16.2272    3.1576    0.0000 H   0  0  0  0  0  0  0  0  0  0  0  0
   16.8204    3.6899    0.0000 H   0  0  0  0  0  0  0  0  0  0  0  0
    8.2579    4.8123    0.0000 H   0  0  0  0  0  0  0  0  0  0  0  0
    9.3318    4.8123    0.0000 H   0  0  0  0  0  0  0  0  0  0  0  0
   15.0217    4.7294    0.0000 H   0  0  0  0  0  0  0  0  0  0  0  0
   14.1462    4.7768    0.0000 H   0  0  0  0  0  0  0  0  0  0  0  0
   14.0988    3.9013    0.0000 H   0  0  0  0  0  0  0  0  0  0  0  0
   13.1885   -6.6288    0.0000 H   0  0  0  0  0  0  0  0  0  0  0  0
   13.7146   -5.6927    0.0000 H   0  0  0  0  0  0  0  0  0  0  0  0
    2.0000   -2.7246    0.0000 H   0  0  0  0  0  0  0  0  0  0  0  0
    2.5334   -3.6566    0.0000 H   0  0  0  0  0  0  0  0  0  0  0  0
   15.2428    5.3442    0.0000 H   0  0  0  0  0  0  0  0  0  0  0  0
   17.9099    4.4726    0.0000 H   0  0  0  0  0  0  0  0  0  0  0  0
   15.7460    6.8841    0.0000 H   0  0  0  0  0  0  0  0  0  0  0  0
   18.4131    6.0124    0.0000 H   0  0  0  0  0  0  0  0  0  0  0  0
   17.3312    7.2182    0.0000 H   0  0  0  0  0  0  0  0  0  0  0  0
 14  1  1  6  0  0  0
  1 30  1  0  0  0  0
  2 17  1  0  0  0  0
  2 31  1  0  0  0  0
 27  3  1  6  0  0  0
  3 35  1  0  0  0  0
  4 36  1  0  0  0  0
  4 41  1  0  0  0  0
  4 42  1  0  0  0  0
  5 37  1  0  0  0  0
  5107  1  0  0  0  0
  5108  1  0  0  0  0
  6 39  1  0  0  0  0
  6112  1  0  0  0  0
  6113  1  0  0  0  0
  7 40  1  0  0  0  0
  7114  1  0  0  0  0
  7115  1  0  0  0  0
  8  9  1  0  0  0  0
  8 13  1  0  0  0  0
  8 14  1  0  0  0  0
  8 22  1  1  0  0  0
  9 10  1  0  0  0  0
  9 18  1  0  0  0  0
  9 49  1  6  0  0  0
 10 11  1  0  0  0  0
 10 17  1  0  0  0  0
 10 50  1  0  0  0  0
 11 12  1  0  0  0  0
 11 15  1  0  0  0  0
 11 51  1  6  0  0  0
 12 16  1  0  0  0  0
 12 21  1  0  0  0  0
 12 25  1  1  0  0  0
 13 19  1  0  0  0  0
 13 23  1  0  0  0  0
 13 52  1  6  0  0  0
 14 15  1  0  0  0  0
 14 53  1  0  0  0  0
 15 54  1  0  0  0  0
 15 55  1  0  0  0  0
 16 20  1  0  0  0  0
 16 24  1  0  0  0  0
 16 56  1  0  0  0  0
 17 20  1  0  0  0  0
 17 57  1  0  0  0  0
 18 19  1  0  0  0  0
 18 58  1  0  0  0  0
 18 59  1  0  0  0  0
 19 60  1  0  0  0  0
 19 61  1  0  0  0  0
 20 62  1  0  0  0  0
 20 63  1  0  0  0  0
 21 26  1  0  0  0  0
 21 64  1  0  0  0  0
 21 65  1  0  0  0  0
 22 66  1  0  0  0  0
 22 67  1  0  0  0  0
 22 68  1  0  0  0  0
 23 28  1  0  0  0  0
 23 29  1  6  0  0  0
 23 69  1  0  0  0  0
 24 27  1  0  0  0  0
 24 70  1  0  0  0  0
 24 71  1  0  0  0  0
 25 72  1  0  0  0  0
 25 73  1  0  0  0  0
 25 74  1  0  0  0  0
 26 27  1  0  0  0  0
 26 75  1  0  0  0  0
 26 76  1  0  0  0  0
 27 77  1  0  0  0  0
 28 32  1  0  0  0  0
 28 78  1  0  0  0  0
 28 79  1  0  0  0  0
 29 80  1  0  0  0  0
 29 81  1  0  0  0  0
 29 82  1  0  0  0  0
 30 33  1  0  0  0  0
 30 83  1  0  0  0  0
 30 84  1  0  0  0  0
 31 34  1  0  0  0  0
 31 85  1  0  0  0  0
 31 86  1  0  0  0  0
 32 36  1  0  0  0  0
 32 87  1  0  0  0  0
 32 88  1  0  0  0  0
 33 37  1  0  0  0  0
 33 89  1  0  0  0  0
 33 90  1  0  0  0  0
 34 39  1  0  0  0  0
 34 91  1  0  0  0  0
 34 92  1  0  0  0  0
 35 38  1  0  0  0  0
 35 93  1  0  0  0  0
 35 94  1  0  0  0  0
 36 95  1  0  0  0  0
 36 96  1  0  0  0  0
 37 97  1  0  0  0  0
 37 98  1  0  0  0  0
 38 40  1  0  0  0  0
 38 99  1  0  0  0  0
 38100  1  0  0  0  0
 39101  1  0  0  0  0
 39102  1  0  0  0  0
 40103  1  0  0  0  0
 40104  1  0  0  0  0
 41 43  1  0  0  0  0
 41105  1  0  0  0  0
 41106  1  0  0  0  0
 42109  1  0  0  0  0
 42110  1  0  0  0  0
 42111  1  0  0  0  0
 43 44  2  0  0  0  0
 43 45  1  0  0  0  0
 44 46  1  0  0  0  0
 44116  1  0  0  0  0
 45 47  2  0  0  0  0
 45117  1  0  0  0  0
 46 48  2  0  0  0  0
 46118  1  0  0  0  0
 47 48  1  0  0  0  0
 47119  1  0  0  0  0
 48120  1  0  0  0  0
M  END
> <PUBCHEM_COMPOUND_CID>
516724
> <PUBCHEM_COMPOUND_CANONICALIZED>
1
> <PUBCHEM_CACTVS_COMPLEXITY>
933
> <PUBCHEM_CACTVS_HBOND_ACCEPTOR>
7
> <PUBCHEM_CACTVS_HBOND_DONOR>
3
> <PUBCHEM_CACTVS_ROTATABLE_BOND>
19
> <PUBCHEM_CACTVS_SUBSKEYS>
AAADcfB/sAAAAAAAAAAAAAAAAAAAAYAAAAAwYMGAAAAAAGDBAAAAHgAQAAAADxThmAYyAINABACAAiBCAACCAAAgAAAIiIAIBIgIICKAkRGGIAhmkACIiAeQ4PwPgAAAAAAAAADAAAYAADAAAQAACAAAAA==
> <PUBCHEM_IUPAC_OPENEYE_NAME>
(4R)-N-benzyl-N-methyl-4-[(3R,7R,9S,10S,12S,13R,14S,17R)-3,7,12-tris(3-aminopropoxy)-10,13-dimethyl-2,3,4,5,6,7,8,9,11,12,14,15,16,17-tetradecahydro-1H-cyclopenta[a]phenanthren-17-yl]pentan-1-amine
> <PUBCHEM_IUPAC_CAS_NAME>
(4R)-N-methyl-N-(phenylmethyl)-4-[(3R,7R,9S,10S,12S,13R,14S,17R)-3,7,12-tris(3-aminopropoxy)-10,13-dimethyl-2,3,4,5,6,7,8,9,11,12,14,15,16,17-tetradecahydro-1H-cyclopenta[a]phenanthren-17-yl]-1-pentanamine
> <PUBCHEM_IUPAC_NAME_MARKUP>
(4<I>R</I>)-<I>N</I>-benzyl-<I>N</I>-methyl-4-[(3<I>R</I>,7<I>R</I>,9<I>S</I>,10<I>S</I>,12<I>S</I>,13<I>R</I>,14<I>S</I>,17<I>R</I>)-3,7,12-tris(3-aminopropoxy)-10,13-dimethyl-2,3,4,5,6,7,8,9,11,12,14,15,16,17-tetradecahydro-1<I>H</I>-cyclopenta[a]phenanthren-17-yl]pentan-1-amine
> <PUBCHEM_IUPAC_NAME>
(4R)-N-benzyl-N-methyl-4-[(3R,7R,9S,10S,12S,13R,14S,17R)-3,7,12-tris(3-aminopropoxy)-10,13-dimethyl-2,3,4,5,6,7,8,9,11,12,14,15,16,17-tetradecahydro-1H-cyclopenta[a]phenanthren-17-yl]pentan-1-amine
> <PUBCHEM_IUPAC_SYSTEMATIC_NAME>
(4R)-N-methyl-N-(phenylmethyl)-4-[(3R,7R,9S,10S,12S,13R,14S,17R)-3,7,12-tris(3-azanylpropoxy)-10,13-dimethyl-2,3,4,5,6,7,8,9,11,12,14,15,16,17-tetradecahydro-1H-cyclopenta[a]phenanthren-17-yl]pentan-1-amine
> <PUBCHEM_IUPAC_TRADITIONAL_NAME>
benzyl-methyl-[(4R)-4-[(3R,7R,9S,10S,12S,13R,14S,17R)-3,7,12-tris(3-aminopropoxy)-10,13-dimethyl-2,3,4,5,6,7,8,9,11,12,14,15,16,17-tetradecahydro-1H-cyclopenta[a]phenanthren-17-yl]pentyl]amine
> <PUBCHEM_IUPAC_INCHI>
InChI=1S/C41H72N4O3/c1-30(12-8-22-45(4)29-31-13-6-5-7-14-31)34-15-16-35-39-36(28-38(41(34,35)3)48-25-11-21-44)40(2)18-17-33(46-23-9-19-42)26-32(40)27-37(39)47-24-10-20-43/h5-7,13-14,30,32-39H,8-12,15-29,42-44H2,1-4H3/t30-,32?,33-,34-,35+,36+,37-,38+,39?,40+,41-/m1/s1
> <PUBCHEM_IUPAC_INCHIKEY>
OHGFUPQFFRJXNJ-XYCGPNBWSA-N
> <PUBCHEM_XLOGP3_AA>
5.8
> <PUBCHEM_EXACT_MASS>
668.56044217
> <PUBCHEM_MOLECULAR_FORMULA>
C41H72N4O3
> <PUBCHEM_MOLECULAR_WEIGHT>
669.0
> <PUBCHEM_OPENEYE_CAN_SMILES>
CC(CCCN(C)CC1=CC=CC=C1)C2CCC3C2(C(CC4C3C(CC5C4(CCC(C5)OCCCN)C)OCCCN)OCCCN)C
> <PUBCHEM_OPENEYE_ISO_SMILES>
C[C@H](CCCN(C)CC1=CC=CC=C1)[C@H]2CC[C@@H]3[C@@]2([C@H](C[C@H]4C3[C@@H](CC5[C@@]4(CC[C@H](C5)OCCCN)C)OCCCN)OCCCN)C
> <PUBCHEM_CACTVS_TPSA>
109
> <PUBCHEM_MONOISOTOPIC_WEIGHT>
668.56044217
> <PUBCHEM_TOTAL_CHARGE>
0
> <PUBCHEM_HEAVY_ATOM_COUNT>
48
> <PUBCHEM_ATOM_DEF_STEREO_COUNT>
9
> <PUBCHEM_ATOM_UDEF_STEREO_COUNT>
2
> <PUBCHEM_BOND_DEF_STEREO_COUNT>
0
> <PUBCHEM_BOND_UDEF_STEREO_COUNT>
0
> <PUBCHEM_ISOTOPIC_ATOM_COUNT>
0
> <PUBCHEM_COMPONENT_COUNT>
1
> <PUBCHEM_CACTVS_TAUTO_COUNT>
-1
> <PUBCHEM_COORDINATE_TYPE>
1
5
255
> <PUBCHEM_BONDANNOTATIONS>
14  1  6
10  17  3
11  51  6
12  25  5
13  52  6
16  24  3
23  29  6
27  3  6
43  44  8
43  45  8
44  46  8
45  47  8
46  48  8
47  48  8
8  22  5
9  49  6
$$$$
