516780
  -OEChem-10302200292D
 34 36  0     1  0  0  0  0  0999 V2000
    5.0046   -1.2652    0.0000 N   0  0  0  0  0  0  0  0  0  0  0  0
    4.0445    0.1764    0.0000 C   0  0  3  0  0  0  0  0  0  0  0  0
    3.5053    1.6818    0.0000 C   0  0  3  0  0  0  0  0  0  0  0  0
    4.0670    1.2548    0.0000 C   0  0  3  0  0  0  0  0  0  0  0  0
    2.4493    0.1989    0.0000 C   0  0  3  0  0  0  0  0  0  0  0  0
    3.0494   -0.3920    0.0000 C   0  0  0  0  0  0  0  0  0  0  0  0
    2.9885    0.8954    0.0000 C   0  0  0  0  0  0  0  0  0  0  0  0
    2.7864    1.8840    0.0000 C   0  0  0  0  0  0  0  0  0  0  0  0
    5.1158   -0.2654    0.0000 C   0  0  0  0  0  0  0  0  0  0  0  0
    2.0000    1.1650    0.0000 C   0  0  0  0  0  0  0  0  0  0  0  0
    4.9882    1.0976    0.0000 C   0  0  0  0  0  0  0  0  0  0  0  0
    5.5723    0.4236    0.0000 C   0  0  0  0  0  0  0  0  0  0  0  0
    4.1084   -0.8215    0.0000 C   0  0  0  0  0  0  0  0  0  0  0  0
    3.7817    2.2368    0.0000 H   0  0  0  0  0  0  0  0  0  0  0  0
    4.1143    0.6366    0.0000 H   0  0  0  0  0  0  0  0  0  0  0  0
    1.9426   -0.1584    0.0000 H   0  0  0  0  0  0  0  0  0  0  0  0
    2.5759   -0.7923    0.0000 H   0  0  0  0  0  0  0  0  0  0  0  0
    3.4047   -0.9001    0.0000 H   0  0  0  0  0  0  0  0  0  0  0  0
    2.9917    1.5154    0.0000 H   0  0  0  0  0  0  0  0  0  0  0  0
    3.3472    0.3896    0.0000 H   0  0  0  0  0  0  0  0  0  0  0  0
    3.0613    2.4397    0.0000 H   0  0  0  0  0  0  0  0  0  0  0  0
    2.2908    2.2566    0.0000 H   0  0  0  0  0  0  0  0  0  0  0  0
    4.8428   -0.8221    0.0000 H   0  0  0  0  0  0  0  0  0  0  0  0
    5.6537   -0.5738    0.0000 H   0  0  0  0  0  0  0  0  0  0  0  0
    1.6303    1.6627    0.0000 H   0  0  0  0  0  0  0  0  0  0  0  0
    1.4673    0.8477    0.0000 H   0  0  0  0  0  0  0  0  0  0  0  0
    5.5544    1.3503    0.0000 H   0  0  0  0  0  0  0  0  0  0  0  0
    4.9107    1.7128    0.0000 H   0  0  0  0  0  0  0  0  0  0  0  0
    6.0561    0.0358    0.0000 H   0  0  0  0  0  0  0  0  0  0  0  0
    6.0022    0.8703    0.0000 H   0  0  0  0  0  0  0  0  0  0  0  0
    3.4922   -0.7531    0.0000 H   0  0  0  0  0  0  0  0  0  0  0  0
    3.9340   -1.4165    0.0000 H   0  0  0  0  0  0  0  0  0  0  0  0
    5.0441   -1.8840    0.0000 H   0  0  0  0  0  0  0  0  0  0  0  0
    5.5206   -0.9216    0.0000 H   0  0  0  0  0  0  0  0  0  0  0  0
  1 13  1  0  0  0  0
  1 33  1  0  0  0  0
  1 34  1  0  0  0  0
  2  3  1  0  0  0  0
  2  6  1  0  0  0  0
  2  9  1  0  0  0  0
  2 13  1  0  0  0  0
  3  4  1  0  0  0  0
  3  8  1  0  0  0  0
  3 14  1  0  0  0  0
  4  7  1  0  0  0  0
  4 11  1  0  0  0  0
  4 15  1  0  0  0  0
  5  6  1  0  0  0  0
  5  7  1  0  0  0  0
  5 10  1  0  0  0  0
  5 16  1  0  0  0  0
  6 17  1  0  0  0  0
  6 18  1  0  0  0  0
  7 19  1  0  0  0  0
  7 20  1  0  0  0  0
  8 10  1  0  0  0  0
  8 21  1  0  0  0  0
  8 22  1  0  0  0  0
  9 12  1  0  0  0  0
  9 23  1  0  0  0  0
  9 24  1  0  0  0  0
 10 25  1  0  0  0  0
 10 26  1  0  0  0  0
 11 12  1  0  0  0  0
 11 27  1  0  0  0  0
 11 28  1  0  0  0  0
 12 29  1  0  0  0  0
 12 30  1  0  0  0  0
 13 31  1  0  0  0  0
 13 32  1  0  0  0  0
M  END
> <PUBCHEM_COMPOUND_CID>
516780
> <PUBCHEM_COMPOUND_CANONICALIZED>
1
> <PUBCHEM_CACTVS_COMPLEXITY>
213
> <PUBCHEM_CACTVS_HBOND_ACCEPTOR>
1
> <PUBCHEM_CACTVS_HBOND_DONOR>
1
> <PUBCHEM_CACTVS_ROTATABLE_BOND>
1
> <PUBCHEM_CACTVS_SUBSKEYS>
AAADceByAAAAAAAAAAAAAAAAAAAAAAAAAAAwYMAAAAAYAAAAAAAAHAAQAAAADwDBAAQAAABAAAAAAAAAAAAAAAAAAAAAAIAAAAAAAAIAgAAAAAAAAAAAAAEQgMAPgAAAAAAAAACAAAQAACAAAAAAAAAAAA==
> <PUBCHEM_IUPAC_OPENEYE_NAME>
3-tricyclo[5.3.1.03,8]undecanylmethanamine
> <PUBCHEM_IUPAC_CAS_NAME>
3-tricyclo[5.3.1.03,8]undecanylmethanamine
> <PUBCHEM_IUPAC_NAME_MARKUP>
3-tricyclo[5.3.1.0<SUP>3,8</SUP>]undecanylmethanamine
> <PUBCHEM_IUPAC_NAME>
3-tricyclo[5.3.1.03,8]undecanylmethanamine
> <PUBCHEM_IUPAC_SYSTEMATIC_NAME>
3-tricyclo[5.3.1.03,8]undecanylmethanamine
> <PUBCHEM_IUPAC_TRADITIONAL_NAME>
3-tricyclo[5.3.1.03,8]undecanylmethylamine
> <PUBCHEM_IUPAC_INCHI>
InChI=1S/C12H21N/c13-8-12-5-1-2-10-6-9(7-12)3-4-11(10)12/h9-11H,1-8,13H2
> <PUBCHEM_IUPAC_INCHIKEY>
YIDFUSIJMZFOER-UHFFFAOYSA-N
> <PUBCHEM_XLOGP3_AA>
2.9
> <PUBCHEM_EXACT_MASS>
179.167399674
> <PUBCHEM_MOLECULAR_FORMULA>
C12H21N
> <PUBCHEM_MOLECULAR_WEIGHT>
179.30
> <PUBCHEM_OPENEYE_CAN_SMILES>
C1CC2CC3CCC2C(C1)(C3)CN
> <PUBCHEM_OPENEYE_ISO_SMILES>
C1CC2CC3CCC2C(C1)(C3)CN
> <PUBCHEM_CACTVS_TPSA>
26
> <PUBCHEM_MONOISOTOPIC_WEIGHT>
179.167399674
> <PUBCHEM_TOTAL_CHARGE>
0
> <PUBCHEM_HEAVY_ATOM_COUNT>
13
> <PUBCHEM_ATOM_DEF_STEREO_COUNT>
0
> <PUBCHEM_ATOM_UDEF_STEREO_COUNT>
4
> <PUBCHEM_BOND_DEF_STEREO_COUNT>
0
> <PUBCHEM_BOND_UDEF_STEREO_COUNT>
0
> <PUBCHEM_ISOTOPIC_ATOM_COUNT>
0
> <PUBCHEM_COMPONENT_COUNT>
1
> <PUBCHEM_CACTVS_TAUTO_COUNT>
-1
> <PUBCHEM_COORDINATE_TYPE>
1
5
255
> <PUBCHEM_BONDANNOTATIONS>
2  13  3
3  8  3
4  11  3
5  10  3
$$$$
