516739
  -OEChem-10302200292D
 42 44  0     1  0  0  0  0  0999 V2000
    7.2500   -4.9366    0.0000 F   0  0  0  0  0  0  0  0  0  0  0  0
    5.6622    2.9501    0.0000 O   0  0  0  0  0  0  0  0  0  0  0  0
    7.4223    2.6713    0.0000 O   0  0  0  0  0  0  0  0  0  0  0  0
    6.1622    1.4112    0.0000 N   0  0  0  0  0  0  0  0  0  0  0  0
    7.2500   -0.9366    0.0000 N   0  0  0  0  0  0  0  0  0  0  0  0
    4.8532    2.3623    0.0000 C   0  0  2  0  0  0  0  0  0  0  0  0
    5.1622    1.4112    0.0000 C   0  0  0  0  0  0  0  0  0  0  0  0
    3.9021    2.6713    0.0000 C   0  0  0  0  0  0  0  0  0  0  0  0
    3.6942    3.6495    0.0000 C   0  0  0  0  0  0  0  0  0  0  0  0
    6.7500    0.6022    0.0000 C   0  0  0  0  0  0  0  0  0  0  0  0
    6.4712    2.3623    0.0000 C   0  0  0  0  0  0  0  0  0  0  0  0
    6.4410   -0.3488    0.0000 C   0  0  0  0  0  0  0  0  0  0  0  0
    7.7500    0.6022    0.0000 C   0  0  0  0  0  0  0  0  0  0  0  0
    2.7431    3.9585    0.0000 C   0  0  0  0  0  0  0  0  0  0  0  0
    8.0590   -0.3488    0.0000 C   0  0  0  0  0  0  0  0  0  0  0  0
    7.2500   -1.9366    0.0000 C   0  0  0  0  0  0  0  0  0  0  0  0
    2.5352    4.9366    0.0000 C   0  0  0  0  0  0  0  0  0  0  0  0
    2.0000    3.2893    0.0000 C   0  0  0  0  0  0  0  0  0  0  0  0
    8.1160   -2.4366    0.0000 C   0  0  0  0  0  0  0  0  0  0  0  0
    6.3839   -2.4366    0.0000 C   0  0  0  0  0  0  0  0  0  0  0  0
    8.1160   -3.4366    0.0000 C   0  0  0  0  0  0  0  0  0  0  0  0
    6.3839   -3.4366    0.0000 C   0  0  0  0  0  0  0  0  0  0  0  0
    7.2500   -3.9366    0.0000 C   0  0  0  0  0  0  0  0  0  0  0  0
    4.7562    2.9747    0.0000 H   0  0  0  0  0  0  0  0  0  0  0  0
    4.5557    1.2823    0.0000 H   0  0  0  0  0  0  0  0  0  0  0  0
    5.2270    0.7946    0.0000 H   0  0  0  0  0  0  0  0  0  0  0  0
    3.2825    2.6497    0.0000 H   0  0  0  0  0  0  0  0  0  0  0  0
    3.8158    2.0573    0.0000 H   0  0  0  0  0  0  0  0  0  0  0  0
    4.3138    3.6711    0.0000 H   0  0  0  0  0  0  0  0  0  0  0  0
    3.7805    4.2634    0.0000 H   0  0  0  0  0  0  0  0  0  0  0  0
    5.8513   -0.5404    0.0000 H   0  0  0  0  0  0  0  0  0  0  0  0
    8.1144    1.1038    0.0000 H   0  0  0  0  0  0  0  0  0  0  0  0
    8.6486   -0.5404    0.0000 H   0  0  0  0  0  0  0  0  0  0  0  0
    3.1417    5.0655    0.0000 H   0  0  0  0  0  0  0  0  0  0  0  0
    2.4063    5.5431    0.0000 H   0  0  0  0  0  0  0  0  0  0  0  0
    1.9288    4.8077    0.0000 H   0  0  0  0  0  0  0  0  0  0  0  0
    1.4103    3.4809    0.0000 H   0  0  0  0  0  0  0  0  0  0  0  0
    2.1289    2.6829    0.0000 H   0  0  0  0  0  0  0  0  0  0  0  0
    8.6529   -2.1266    0.0000 H   0  0  0  0  0  0  0  0  0  0  0  0
    5.8470   -2.1266    0.0000 H   0  0  0  0  0  0  0  0  0  0  0  0
    8.6529   -3.7466    0.0000 H   0  0  0  0  0  0  0  0  0  0  0  0
    5.8470   -3.7466    0.0000 H   0  0  0  0  0  0  0  0  0  0  0  0
  1 23  1  0  0  0  0
  2  6  1  0  0  0  0
  2 11  1  0  0  0  0
  3 11  2  0  0  0  0
  4  7  1  0  0  0  0
  4 10  1  0  0  0  0
  4 11  1  0  0  0  0
  5 12  1  0  0  0  0
  5 15  1  0  0  0  0
  5 16  1  0  0  0  0
  6  7  1  0  0  0  0
  6  8  1  6  0  0  0
  6 24  1  0  0  0  0
  7 25  1  0  0  0  0
  7 26  1  0  0  0  0
  8  9  1  0  0  0  0
  8 27  1  0  0  0  0
  8 28  1  0  0  0  0
  9 14  1  0  0  0  0
  9 29  1  0  0  0  0
  9 30  1  0  0  0  0
 10 12  2  0  0  0  0
 10 13  1  0  0  0  0
 12 31  1  0  0  0  0
 13 15  2  0  0  0  0
 13 32  1  0  0  0  0
 14 17  1  0  0  0  0
 14 18  2  0  0  0  0
 15 33  1  0  0  0  0
 16 19  2  0  0  0  0
 16 20  1  0  0  0  0
 17 34  1  0  0  0  0
 17 35  1  0  0  0  0
 17 36  1  0  0  0  0
 18 37  1  0  0  0  0
 18 38  1  0  0  0  0
 19 21  1  0  0  0  0
 19 39  1  0  0  0  0
 20 22  2  0  0  0  0
 20 40  1  0  0  0  0
 21 23  2  0  0  0  0
 21 41  1  0  0  0  0
 22 23  1  0  0  0  0
 22 42  1  0  0  0  0
M  END
> <PUBCHEM_COMPOUND_CID>
516739
> <PUBCHEM_COMPOUND_CANONICALIZED>
1
> <PUBCHEM_CACTVS_COMPLEXITY>
448
> <PUBCHEM_CACTVS_HBOND_ACCEPTOR>
3
> <PUBCHEM_CACTVS_HBOND_DONOR>
0
> <PUBCHEM_CACTVS_ROTATABLE_BOND>
5
> <PUBCHEM_CACTVS_SUBSKEYS>
AAADceB7MQAAAAAAAAAAAAAAAAAAAWLAAAAwAAAAAAAAAAABwAAAHwAAAAAADBzhkg4+yJMMFACoAjRnXACCgCAxEiAI2CA4dJgKYOLA0dGdJAhkhgDYyAeQAAAAAAAAAAAAAAAAAAAAAAAAAAAAAAAAAA==
> <PUBCHEM_IUPAC_OPENEYE_NAME>
(5S)-3-[1-(4-fluorophenyl)pyrrol-3-yl]-5-(3-methylbut-3-enyl)oxazolidin-2-one
> <PUBCHEM_IUPAC_CAS_NAME>
(5S)-3-[1-(4-fluorophenyl)-3-pyrrolyl]-5-(3-methylbut-3-enyl)-2-oxazolidinone
> <PUBCHEM_IUPAC_NAME_MARKUP>
(5<I>S</I>)-3-[1-(4-fluorophenyl)pyrrol-3-yl]-5-(3-methylbut-3-enyl)-1,3-oxazolidin-2-one
> <PUBCHEM_IUPAC_NAME>
(5S)-3-[1-(4-fluorophenyl)pyrrol-3-yl]-5-(3-methylbut-3-enyl)-1,3-oxazolidin-2-one
> <PUBCHEM_IUPAC_SYSTEMATIC_NAME>
(5S)-3-[1-(4-fluorophenyl)pyrrol-3-yl]-5-(3-methylbut-3-enyl)-1,3-oxazolidin-2-one
> <PUBCHEM_IUPAC_TRADITIONAL_NAME>
(5S)-3-[1-(4-fluorophenyl)pyrrol-3-yl]-5-(3-methylbut-3-enyl)oxazolidin-2-one
> <PUBCHEM_IUPAC_INCHI>
InChI=1S/C18H19FN2O2/c1-13(2)3-8-17-12-21(18(22)23-17)16-9-10-20(11-16)15-6-4-14(19)5-7-15/h4-7,9-11,17H,1,3,8,12H2,2H3/t17-/m0/s1
> <PUBCHEM_IUPAC_INCHIKEY>
AJIGAEUEWLMTSU-KRWDZBQOSA-N
> <PUBCHEM_XLOGP3_AA>
4.1
> <PUBCHEM_EXACT_MASS>
314.14305602
> <PUBCHEM_MOLECULAR_FORMULA>
C18H19FN2O2
> <PUBCHEM_MOLECULAR_WEIGHT>
314.4
> <PUBCHEM_OPENEYE_CAN_SMILES>
CC(=C)CCC1CN(C(=O)O1)C2=CN(C=C2)C3=CC=C(C=C3)F
> <PUBCHEM_OPENEYE_ISO_SMILES>
CC(=C)CC[C@H]1CN(C(=O)O1)C2=CN(C=C2)C3=CC=C(C=C3)F
> <PUBCHEM_CACTVS_TPSA>
34.5
> <PUBCHEM_MONOISOTOPIC_WEIGHT>
314.14305602
> <PUBCHEM_TOTAL_CHARGE>
0
> <PUBCHEM_HEAVY_ATOM_COUNT>
23
> <PUBCHEM_ATOM_DEF_STEREO_COUNT>
1
> <PUBCHEM_ATOM_UDEF_STEREO_COUNT>
0
> <PUBCHEM_BOND_DEF_STEREO_COUNT>
0
> <PUBCHEM_BOND_UDEF_STEREO_COUNT>
0
> <PUBCHEM_ISOTOPIC_ATOM_COUNT>
0
> <PUBCHEM_COMPONENT_COUNT>
1
> <PUBCHEM_CACTVS_TAUTO_COUNT>
-1
> <PUBCHEM_COORDINATE_TYPE>
1
5
255
> <PUBCHEM_BONDANNOTATIONS>
10  12  8
10  13  8
13  15  8
16  19  8
16  20  8
19  21  8
20  22  8
21  23  8
22  23  8
5  12  8
5  15  8
6  8  6
$$$$
