516728
  -OEChem-10302200292D
112115  0     1  0  0  0  0  0999 V2000
   10.5269    2.3497    0.0000 O   0  0  0  0  0  0  0  0  0  0  0  0
   11.4147   -2.1817    0.0000 O   0  0  0  0  0  0  0  0  0  0  0  0
    5.9998   -2.2026    0.0000 O   0  0  0  0  0  0  0  0  0  0  0  0
   15.2281    4.4185    0.0000 O   0  0  0  0  0  0  0  0  0  0  0  0
    8.7948    5.3498    0.0000 N   0  0  0  0  0  0  0  0  0  0  0  0
   13.1813   -5.1615    0.0000 N   0  0  0  0  0  0  0  0  0  0  0  0
    2.5357   -2.1892    0.0000 N   0  0  0  0  0  0  0  0  0  0  0  0
   11.3929    0.8498    0.0000 C   0  0  1  0  0  0  0  0  0  0  0  0
   11.3929   -0.1502    0.0000 C   0  0  2  0  0  0  0  0  0  0  0  0
   10.5269   -0.6502    0.0000 C   0  0  3  0  0  0  0  0  0  0  0  0
    9.6608   -0.1502    0.0000 C   0  0  1  0  0  0  0  0  0  0  0  0
    8.7508   -0.6571    0.0000 C   0  0  2  0  0  0  0  0  0  0  0  0
   12.3391    1.1545    0.0000 C   0  0  2  0  0  0  0  0  0  0  0  0
   10.5269    1.3498    0.0000 C   0  0  2  0  0  0  0  0  0  0  0  0
    9.6608    0.8498    0.0000 C   0  0  0  0  0  0  0  0  0  0  0  0
    8.7428   -1.6987    0.0000 C   0  0  3  0  0  0  0  0  0  0  0  0
   10.5429   -1.6918    0.0000 C   0  0  1  0  0  0  0  0  0  0  0  0
   12.3391   -0.4550    0.0000 C   0  0  0  0  0  0  0  0  0  0  0  0
   12.9227    0.3498    0.0000 C   0  0  0  0  0  0  0  0  0  0  0  0
    9.6449   -2.2195    0.0000 C   0  0  0  0  0  0  0  0  0  0  0  0
    7.8240   -0.0930    0.0000 C   0  0  0  0  0  0  0  0  0  0  0  0
   11.3929    1.8498    0.0000 C   0  0  0  0  0  0  0  0  0  0  0  0
   12.6498    2.1050    0.0000 C   0  0  1  0  0  0  0  0  0  0  0  0
    7.8074   -2.2484    0.0000 C   0  0  0  0  0  0  0  0  0  0  0  0
    8.7586    0.3429    0.0000 C   0  0  0  0  0  0  0  0  0  0  0  0
    6.8761   -0.6210    0.0000 C   0  0  0  0  0  0  0  0  0  0  0  0
    6.8678   -1.7059    0.0000 C   0  0  1  0  0  0  0  0  0  0  0  0
   13.6283    2.3112    0.0000 C   0  0  0  0  0  0  0  0  0  0  0  0
   11.9819    2.8493    0.0000 C   0  0  0  0  0  0  0  0  0  0  0  0
    9.6608    2.8497    0.0000 C   0  0  0  0  0  0  0  0  0  0  0  0
   11.4262   -3.1816    0.0000 C   0  0  0  0  0  0  0  0  0  0  0  0
   13.9389    3.2617    0.0000 C   0  0  0  0  0  0  0  0  0  0  0  0
    9.6608    3.8498    0.0000 C   0  0  0  0  0  0  0  0  0  0  0  0
   12.2980   -3.6716    0.0000 C   0  0  0  0  0  0  0  0  0  0  0  0
    5.1357   -1.6992    0.0000 C   0  0  0  0  0  0  0  0  0  0  0  0
   14.9175    3.4680    0.0000 C   0  0  0  0  0  0  0  0  0  0  0  0
    8.7948    4.3498    0.0000 C   0  0  0  0  0  0  0  0  0  0  0  0
    4.2678   -2.1959    0.0000 C   0  0  0  0  0  0  0  0  0  0  0  0
   12.3096   -4.6715    0.0000 C   0  0  0  0  0  0  0  0  0  0  0  0
    3.4037   -1.6926    0.0000 C   0  0  0  0  0  0  0  0  0  0  0  0
   16.2066    4.6247    0.0000 C   0  0  0  0  0  0  0  0  0  0  0  0
   16.5173    5.5752    0.0000 C   0  0  0  0  0  0  0  0  0  0  0  0
   17.4958    5.7814    0.0000 C   0  0  0  0  0  0  0  0  0  0  0  0
   11.4828   -0.9955    0.0000 H   0  0  0  0  0  0  0  0  0  0  0  0
   11.0662   -0.9561    0.0000 H   0  0  0  0  0  0  0  0  0  0  0  0
   10.3970    0.2748    0.0000 H   0  0  0  0  0  0  0  0  0  0  0  0
   13.1788    1.2864    0.0000 H   0  0  0  0  0  0  0  0  0  0  0  0
    9.9899    1.6598    0.0000 H   0  0  0  0  0  0  0  0  0  0  0  0
    9.4488    1.4324    0.0000 H   0  0  0  0  0  0  0  0  0  0  0  0
    9.0503    0.7421    0.0000 H   0  0  0  0  0  0  0  0  0  0  0  0
    8.7452   -2.3187    0.0000 H   0  0  0  0  0  0  0  0  0  0  0  0
   10.5489   -2.3117    0.0000 H   0  0  0  0  0  0  0  0  0  0  0  0
   12.0881   -1.0219    0.0000 H   0  0  0  0  0  0  0  0  0  0  0  0
   12.8765   -0.7642    0.0000 H   0  0  0  0  0  0  0  0  0  0  0  0
   13.3836   -0.0650    0.0000 H   0  0  0  0  0  0  0  0  0  0  0  0
   13.3836    0.7645    0.0000 H   0  0  0  0  0  0  0  0  0  0  0  0
    9.2476   -2.6955    0.0000 H   0  0  0  0  0  0  0  0  0  0  0  0
   10.0459   -2.6924    0.0000 H   0  0  0  0  0  0  0  0  0  0  0  0
    8.2322    0.3736    0.0000 H   0  0  0  0  0  0  0  0  0  0  0  0
    7.4341    0.3890    0.0000 H   0  0  0  0  0  0  0  0  0  0  0  0
   12.0129    1.8498    0.0000 H   0  0  0  0  0  0  0  0  0  0  0  0
   11.3929    2.4698    0.0000 H   0  0  0  0  0  0  0  0  0  0  0  0
   10.7729    1.8498    0.0000 H   0  0  0  0  0  0  0  0  0  0  0  0
   12.8424    2.6943    0.0000 H   0  0  0  0  0  0  0  0  0  0  0  0
    7.4101   -2.7244    0.0000 H   0  0  0  0  0  0  0  0  0  0  0  0
    8.2084   -2.7213    0.0000 H   0  0  0  0  0  0  0  0  0  0  0  0
    9.3785    0.3381    0.0000 H   0  0  0  0  0  0  0  0  0  0  0  0
    8.7633    0.9629    0.0000 H   0  0  0  0  0  0  0  0  0  0  0  0
    8.1386    0.3477    0.0000 H   0  0  0  0  0  0  0  0  0  0  0  0
    6.6716   -0.0357    0.0000 H   0  0  0  0  0  0  0  0  0  0  0  0
    6.2645   -0.7223    0.0000 H   0  0  0  0  0  0  0  0  0  0  0  0
    6.3326   -1.3928    0.0000 H   0  0  0  0  0  0  0  0  0  0  0  0
   13.6489    1.6916    0.0000 H   0  0  0  0  0  0  0  0  0  0  0  0
   14.2421    2.2239    0.0000 H   0  0  0  0  0  0  0  0  0  0  0  0
   12.4434    3.2634    0.0000 H   0  0  0  0  0  0  0  0  0  0  0  0
   11.5679    3.3108    0.0000 H   0  0  0  0  0  0  0  0  0  0  0  0
   11.5205    2.4352    0.0000 H   0  0  0  0  0  0  0  0  0  0  0  0
    9.0503    2.9574    0.0000 H   0  0  0  0  0  0  0  0  0  0  0  0
    9.4488    2.2671    0.0000 H   0  0  0  0  0  0  0  0  0  0  0  0
   10.8145   -3.0810    0.0000 H   0  0  0  0  0  0  0  0  0  0  0  0
   11.2209   -3.7667    0.0000 H   0  0  0  0  0  0  0  0  0  0  0  0
   13.9184    3.8814    0.0000 H   0  0  0  0  0  0  0  0  0  0  0  0
   13.3251    3.3491    0.0000 H   0  0  0  0  0  0  0  0  0  0  0  0
   10.2714    3.7421    0.0000 H   0  0  0  0  0  0  0  0  0  0  0  0
    9.8729    4.4324    0.0000 H   0  0  0  0  0  0  0  0  0  0  0  0
   12.9098   -3.7722    0.0000 H   0  0  0  0  0  0  0  0  0  0  0  0
   12.5033   -3.0866    0.0000 H   0  0  0  0  0  0  0  0  0  0  0  0
    5.5361   -1.2258    0.0000 H   0  0  0  0  0  0  0  0  0  0  0  0
    4.7390   -1.2228    0.0000 H   0  0  0  0  0  0  0  0  0  0  0  0
   14.9380    2.8483    0.0000 H   0  0  0  0  0  0  0  0  0  0  0  0
   15.5313    3.3806    0.0000 H   0  0  0  0  0  0  0  0  0  0  0  0
    8.1842    4.4574    0.0000 H   0  0  0  0  0  0  0  0  0  0  0  0
    8.5828    3.7671    0.0000 H   0  0  0  0  0  0  0  0  0  0  0  0
    3.8674   -2.6693    0.0000 H   0  0  0  0  0  0  0  0  0  0  0  0
    4.6645   -2.6724    0.0000 H   0  0  0  0  0  0  0  0  0  0  0  0
   11.6978   -4.5709    0.0000 H   0  0  0  0  0  0  0  0  0  0  0  0
   12.1043   -5.2566    0.0000 H   0  0  0  0  0  0  0  0  0  0  0  0
    3.8040   -1.2192    0.0000 H   0  0  0  0  0  0  0  0  0  0  0  0
    3.0070   -1.2161    0.0000 H   0  0  0  0  0  0  0  0  0  0  0  0
    8.2579    5.6598    0.0000 H   0  0  0  0  0  0  0  0  0  0  0  0
    9.3318    5.6598    0.0000 H   0  0  0  0  0  0  0  0  0  0  0  0
   13.1885   -5.7814    0.0000 H   0  0  0  0  0  0  0  0  0  0  0  0
   13.7146   -4.8453    0.0000 H   0  0  0  0  0  0  0  0  0  0  0  0
   16.2272    4.0050    0.0000 H   0  0  0  0  0  0  0  0  0  0  0  0
   16.8204    4.5374    0.0000 H   0  0  0  0  0  0  0  0  0  0  0  0
    2.0000   -1.8772    0.0000 H   0  0  0  0  0  0  0  0  0  0  0  0
    2.5334   -2.8092    0.0000 H   0  0  0  0  0  0  0  0  0  0  0  0
   16.4967    6.1949    0.0000 H   0  0  0  0  0  0  0  0  0  0  0  0
   15.9035    5.6626    0.0000 H   0  0  0  0  0  0  0  0  0  0  0  0
   17.6236    5.1748    0.0000 H   0  0  0  0  0  0  0  0  0  0  0  0
   18.1025    5.9093    0.0000 H   0  0  0  0  0  0  0  0  0  0  0  0
   17.3679    6.3881    0.0000 H   0  0  0  0  0  0  0  0  0  0  0  0
 14  1  1  6  0  0  0
  1 30  1  0  0  0  0
  2 17  1  0  0  0  0
  2 31  1  0  0  0  0
 27  3  1  6  0  0  0
  3 35  1  0  0  0  0
  4 36  1  0  0  0  0
  4 41  1  0  0  0  0
  5 37  1  0  0  0  0
  5100  1  0  0  0  0
  5101  1  0  0  0  0
  6 39  1  0  0  0  0
  6102  1  0  0  0  0
  6103  1  0  0  0  0
  7 40  1  0  0  0  0
  7106  1  0  0  0  0
  7107  1  0  0  0  0
  8  9  1  0  0  0  0
  8 13  1  0  0  0  0
  8 14  1  0  0  0  0
  8 22  1  1  0  0  0
  9 10  1  0  0  0  0
  9 18  1  0  0  0  0
  9 44  1  6  0  0  0
 10 11  1  0  0  0  0
 10 17  1  0  0  0  0
 10 45  1  0  0  0  0
 11 12  1  0  0  0  0
 11 15  1  0  0  0  0
 11 46  1  6  0  0  0
 12 16  1  0  0  0  0
 12 21  1  0  0  0  0
 12 25  1  1  0  0  0
 13 19  1  0  0  0  0
 13 23  1  0  0  0  0
 13 47  1  6  0  0  0
 14 15  1  0  0  0  0
 14 48  1  0  0  0  0
 15 49  1  0  0  0  0
 15 50  1  0  0  0  0
 16 20  1  0  0  0  0
 16 24  1  0  0  0  0
 16 51  1  0  0  0  0
 17 20  1  0  0  0  0
 17 52  1  0  0  0  0
 18 19  1  0  0  0  0
 18 53  1  0  0  0  0
 18 54  1  0  0  0  0
 19 55  1  0  0  0  0
 19 56  1  0  0  0  0
 20 57  1  0  0  0  0
 20 58  1  0  0  0  0
 21 26  1  0  0  0  0
 21 59  1  0  0  0  0
 21 60  1  0  0  0  0
 22 61  1  0  0  0  0
 22 62  1  0  0  0  0
 22 63  1  0  0  0  0
 23 28  1  0  0  0  0
 23 29  1  6  0  0  0
 23 64  1  0  0  0  0
 24 27  1  0  0  0  0
 24 65  1  0  0  0  0
 24 66  1  0  0  0  0
 25 67  1  0  0  0  0
 25 68  1  0  0  0  0
 25 69  1  0  0  0  0
 26 27  1  0  0  0  0
 26 70  1  0  0  0  0
 26 71  1  0  0  0  0
 27 72  1  0  0  0  0
 28 32  1  0  0  0  0
 28 73  1  0  0  0  0
 28 74  1  0  0  0  0
 29 75  1  0  0  0  0
 29 76  1  0  0  0  0
 29 77  1  0  0  0  0
 30 33  1  0  0  0  0
 30 78  1  0  0  0  0
 30 79  1  0  0  0  0
 31 34  1  0  0  0  0
 31 80  1  0  0  0  0
 31 81  1  0  0  0  0
 32 36  1  0  0  0  0
 32 82  1  0  0  0  0
 32 83  1  0  0  0  0
 33 37  1  0  0  0  0
 33 84  1  0  0  0  0
 33 85  1  0  0  0  0
 34 39  1  0  0  0  0
 34 86  1  0  0  0  0
 34 87  1  0  0  0  0
 35 38  1  0  0  0  0
 35 88  1  0  0  0  0
 35 89  1  0  0  0  0
 36 90  1  0  0  0  0
 36 91  1  0  0  0  0
 37 92  1  0  0  0  0
 37 93  1  0  0  0  0
 38 40  1  0  0  0  0
 38 94  1  0  0  0  0
 38 95  1  0  0  0  0
 39 96  1  0  0  0  0
 39 97  1  0  0  0  0
 40 98  1  0  0  0  0
 40 99  1  0  0  0  0
 41 42  1  0  0  0  0
 41104  1  0  0  0  0
 41105  1  0  0  0  0
 42 43  1  0  0  0  0
 42108  1  0  0  0  0
 42109  1  0  0  0  0
 43110  1  0  0  0  0
 43111  1  0  0  0  0
 43112  1  0  0  0  0
M  END
> <PUBCHEM_COMPOUND_CID>
516728
> <PUBCHEM_COMPOUND_CANONICALIZED>
1
> <PUBCHEM_CACTVS_COMPLEXITY>
803
> <PUBCHEM_CACTVS_HBOND_ACCEPTOR>
7
> <PUBCHEM_CACTVS_HBOND_DONOR>
3
> <PUBCHEM_CACTVS_ROTATABLE_BOND>
19
> <PUBCHEM_CACTVS_SUBSKEYS>
AAADcfB/OAAAAAAAAAAAAAAAAAAAAYAAAAAwYMAAAAAAAGDAAAAAHgAQAAAADxThgAYCAABABAAAAAAAAAAAAAAAAAAAAIAAAAAAAAIAAAACAAAGEAAAAAGA4PwPgAAAAAAAAADAAAYAADAAAQAACAAAAA==
> <PUBCHEM_IUPAC_OPENEYE_NAME>
3-[[(3R,7R,9S,10S,12S,13R,14S,17R)-7,12-bis(3-aminopropoxy)-10,13-dimethyl-17-[(1R)-1-methyl-4-propoxy-butyl]-2,3,4,5,6,7,8,9,11,12,14,15,16,17-tetradecahydro-1H-cyclopenta[a]phenanthren-3-yl]oxy]propan-1-amine
> <PUBCHEM_IUPAC_CAS_NAME>
3-[[(3R,7R,9S,10S,12S,13R,14S,17R)-7,12-bis(3-aminopropoxy)-10,13-dimethyl-17-[(2R)-5-propoxypentan-2-yl]-2,3,4,5,6,7,8,9,11,12,14,15,16,17-tetradecahydro-1H-cyclopenta[a]phenanthren-3-yl]oxy]-1-propanamine
> <PUBCHEM_IUPAC_NAME_MARKUP>
3-[[(3<I>R</I>,7<I>R</I>,9<I>S</I>,10<I>S</I>,12<I>S</I>,13<I>R</I>,14<I>S</I>,17<I>R</I>)-7,12-bis(3-aminopropoxy)-10,13-dimethyl-17-[(2<I>R</I>)-5-propoxypentan-2-yl]-2,3,4,5,6,7,8,9,11,12,14,15,16,17-tetradecahydro-1<I>H</I>-cyclopenta[a]phenanthren-3-yl]oxy]propan-1-amine
> <PUBCHEM_IUPAC_NAME>
3-[[(3R,7R,9S,10S,12S,13R,14S,17R)-7,12-bis(3-aminopropoxy)-10,13-dimethyl-17-[(2R)-5-propoxypentan-2-yl]-2,3,4,5,6,7,8,9,11,12,14,15,16,17-tetradecahydro-1H-cyclopenta[a]phenanthren-3-yl]oxy]propan-1-amine
> <PUBCHEM_IUPAC_SYSTEMATIC_NAME>
3-[[(3R,7R,9S,10S,12S,13R,14S,17R)-7,12-bis(3-azanylpropoxy)-10,13-dimethyl-17-[(2R)-5-propoxypentan-2-yl]-2,3,4,5,6,7,8,9,11,12,14,15,16,17-tetradecahydro-1H-cyclopenta[a]phenanthren-3-yl]oxy]propan-1-amine
> <PUBCHEM_IUPAC_TRADITIONAL_NAME>
3-[[(3R,7R,9S,10S,12S,13R,14S,17R)-3,7-bis(3-aminopropoxy)-10,13-dimethyl-17-[(1R)-1-methyl-4-propoxy-butyl]-2,3,4,5,6,7,8,9,11,12,14,15,16,17-tetradecahydro-1H-cyclopenta[a]phenanthren-12-yl]oxy]propylamine
> <PUBCHEM_IUPAC_INCHI>
InChI=1S/C36H69N3O4/c1-5-18-40-19-6-10-26(2)29-11-12-30-34-31(25-33(36(29,30)4)43-22-9-17-39)35(3)14-13-28(41-20-7-15-37)23-27(35)24-32(34)42-21-8-16-38/h26-34H,5-25,37-39H2,1-4H3/t26-,27?,28-,29-,30+,31+,32-,33+,34?,35+,36-/m1/s1
> <PUBCHEM_IUPAC_INCHIKEY>
GAICQGPIHJEVKU-ANDDSYCQSA-N
> <PUBCHEM_XLOGP3_AA>
5
> <PUBCHEM_EXACT_MASS>
607.52880769
> <PUBCHEM_MOLECULAR_FORMULA>
C36H69N3O4
> <PUBCHEM_MOLECULAR_WEIGHT>
608.0
> <PUBCHEM_OPENEYE_CAN_SMILES>
CCCOCCCC(C)C1CCC2C1(C(CC3C2C(CC4C3(CCC(C4)OCCCN)C)OCCCN)OCCCN)C
> <PUBCHEM_OPENEYE_ISO_SMILES>
CCCOCCC[C@@H](C)[C@H]1CC[C@@H]2[C@@]1([C@H](C[C@H]3C2[C@@H](CC4[C@@]3(CC[C@H](C4)OCCCN)C)OCCCN)OCCCN)C
> <PUBCHEM_CACTVS_TPSA>
115
> <PUBCHEM_MONOISOTOPIC_WEIGHT>
607.52880769
> <PUBCHEM_TOTAL_CHARGE>
0
> <PUBCHEM_HEAVY_ATOM_COUNT>
43
> <PUBCHEM_ATOM_DEF_STEREO_COUNT>
9
> <PUBCHEM_ATOM_UDEF_STEREO_COUNT>
2
> <PUBCHEM_BOND_DEF_STEREO_COUNT>
0
> <PUBCHEM_BOND_UDEF_STEREO_COUNT>
0
> <PUBCHEM_ISOTOPIC_ATOM_COUNT>
0
> <PUBCHEM_COMPONENT_COUNT>
1
> <PUBCHEM_CACTVS_TAUTO_COUNT>
-1
> <PUBCHEM_COORDINATE_TYPE>
1
5
255
> <PUBCHEM_BONDANNOTATIONS>
14  1  6
10  17  3
11  46  6
12  25  5
13  47  6
16  24  3
23  29  6
27  3  6
8  22  5
9  44  6
$$$$
