516709
  -OEChem-10302200292D
 42 44  0     1  0  0  0  0  0999 V2000
    7.2622   -1.0000    0.0000 S   0  0  0  0  0  0  0  0  0  0  0  0
    2.0000   -1.0241    0.0000 F   0  0  0  0  0  0  0  0  0  0  0  0
    2.0000    1.0241    0.0000 F   0  0  0  0  0  0  0  0  0  0  0  0
   10.7263   -1.0000    0.0000 O   0  0  0  0  0  0  0  0  0  0  0  0
   10.7263    1.0000    0.0000 O   0  0  0  0  0  0  0  0  0  0  0  0
    5.5301   -2.0000    0.0000 O   0  0  0  0  0  0  0  0  0  0  0  0
    5.5301    2.0000    0.0000 O   0  5  0  0  0  0  0  0  0  0  0  0
    5.5301   -1.0000    0.0000 N   0  3  0  0  0  0  0  0  0  0  0  0
    5.5301    1.0000    0.0000 N   0  0  0  0  0  0  0  0  0  0  0  0
    8.1282   -0.5000    0.0000 C   0  0  3  0  0  0  0  0  0  0  0  0
    8.1282    0.5000    0.0000 C   0  0  0  0  0  0  0  0  0  0  0  0
    6.3961   -0.5000    0.0000 C   0  0  0  0  0  0  0  0  0  0  0  0
    8.9942   -1.0000    0.0000 C   0  0  0  0  0  0  0  0  0  0  0  0
    6.3961    0.5000    0.0000 C   0  0  0  0  0  0  0  0  0  0  0  0
    8.9942    1.0000    0.0000 C   0  0  0  0  0  0  0  0  0  0  0  0
    4.6641   -0.5000    0.0000 C   0  0  0  0  0  0  0  0  0  0  0  0
    4.6641    0.5000    0.0000 C   0  0  0  0  0  0  0  0  0  0  0  0
    9.8602   -0.5000    0.0000 C   0  0  0  0  0  0  0  0  0  0  0  0
    9.8602    0.5000    0.0000 C   0  0  0  0  0  0  0  0  0  0  0  0
    7.2622    1.0000    0.0000 C   0  0  0  0  0  0  0  0  0  0  0  0
    3.7702   -1.0347    0.0000 C   0  0  0  0  0  0  0  0  0  0  0  0
    3.7702    1.0347    0.0000 C   0  0  0  0  0  0  0  0  0  0  0  0
    2.8641   -0.5208    0.0000 C   0  0  0  0  0  0  0  0  0  0  0  0
    2.8641    0.5208    0.0000 C   0  0  0  0  0  0  0  0  0  0  0  0
   10.7263   -2.0000    0.0000 C   0  0  0  0  0  0  0  0  0  0  0  0
   10.7263    2.0000    0.0000 C   0  0  0  0  0  0  0  0  0  0  0  0
    8.1282   -1.1200    0.0000 H   0  0  0  0  0  0  0  0  0  0  0  0
    7.9162    1.0826    0.0000 H   0  0  0  0  0  0  0  0  0  0  0  0
    7.5176    0.3923    0.0000 H   0  0  0  0  0  0  0  0  0  0  0  0
    8.9942   -1.6200    0.0000 H   0  0  0  0  0  0  0  0  0  0  0  0
    8.9942    1.6200    0.0000 H   0  0  0  0  0  0  0  0  0  0  0  0
    7.5722    0.4631    0.0000 H   0  0  0  0  0  0  0  0  0  0  0  0
    7.7991    1.3100    0.0000 H   0  0  0  0  0  0  0  0  0  0  0  0
    6.9522    1.5369    0.0000 H   0  0  0  0  0  0  0  0  0  0  0  0
    3.7773   -1.6546    0.0000 H   0  0  0  0  0  0  0  0  0  0  0  0
    3.7773    1.6546    0.0000 H   0  0  0  0  0  0  0  0  0  0  0  0
   10.1063   -2.0000    0.0000 H   0  0  0  0  0  0  0  0  0  0  0  0
   10.7263   -2.6200    0.0000 H   0  0  0  0  0  0  0  0  0  0  0  0
   11.3463   -2.0000    0.0000 H   0  0  0  0  0  0  0  0  0  0  0  0
   11.3463    2.0000    0.0000 H   0  0  0  0  0  0  0  0  0  0  0  0
   10.7263    2.6200    0.0000 H   0  0  0  0  0  0  0  0  0  0  0  0
   10.1063    2.0000    0.0000 H   0  0  0  0  0  0  0  0  0  0  0  0
  1 10  1  0  0  0  0
  1 12  1  0  0  0  0
  2 23  1  0  0  0  0
  3 24  1  0  0  0  0
  4 18  1  0  0  0  0
  4 25  1  0  0  0  0
  5 19  1  0  0  0  0
  5 26  1  0  0  0  0
  6  8  2  0  0  0  0
  7  9  1  0  0  0  0
  8 12  1  0  0  0  0
  8 16  1  0  0  0  0
  9 14  1  0  0  0  0
  9 17  1  0  0  0  0
 10 11  1  0  0  0  0
 10 13  1  0  0  0  0
 10 27  1  0  0  0  0
 11 15  1  0  0  0  0
 11 28  1  0  0  0  0
 11 29  1  0  0  0  0
 12 14  2  0  0  0  0
 13 18  2  0  0  0  0
 13 30  1  0  0  0  0
 14 20  1  0  0  0  0
 15 19  2  0  0  0  0
 15 31  1  0  0  0  0
 16 17  1  0  0  0  0
 16 21  2  0  0  0  0
 17 22  2  0  0  0  0
 18 19  1  0  0  0  0
 20 32  1  0  0  0  0
 20 33  1  0  0  0  0
 20 34  1  0  0  0  0
 21 23  1  0  0  0  0
 21 35  1  0  0  0  0
 22 24  1  0  0  0  0
 22 36  1  0  0  0  0
 23 24  2  0  0  0  0
 25 37  1  0  0  0  0
 25 38  1  0  0  0  0
 25 39  1  0  0  0  0
 26 40  1  0  0  0  0
 26 41  1  0  0  0  0
 26 42  1  0  0  0  0
M  CHG  2   7  -1   8   1
M  END
> <PUBCHEM_COMPOUND_CID>
516709
> <PUBCHEM_COMPOUND_CANONICALIZED>
1
> <PUBCHEM_CACTVS_COMPLEXITY>
682
> <PUBCHEM_CACTVS_HBOND_ACCEPTOR>
8
> <PUBCHEM_CACTVS_HBOND_DONOR>
0
> <PUBCHEM_CACTVS_ROTATABLE_BOND>
4
> <PUBCHEM_CACTVS_SUBSKEYS>
AAADceB7OYBAAAAAAAAAAAAAAAAAAAAAAAAwQIAAAAAAAACBAAAAHwQEAAAACAyF0AqywIIQBAiBACRCQgCCCABhIhAgiAAAdIoJZCLgsJGUMAhggIDK6AcQAAAAAAAAAAAAACAAAAAAAAAAQAAAAAAAAA==
> <PUBCHEM_IUPAC_OPENEYE_NAME>
2-(3,4-dimethoxycyclohexa-2,4-dien-1-yl)sulfanyl-6,7-difluoro-3-methyl-4-oxido-quinoxalin-1-ium 1-oxide
> <PUBCHEM_IUPAC_CAS_NAME>
2-[(3,4-dimethoxy-1-cyclohexa-2,4-dienyl)thio]-6,7-difluoro-3-methyl-4-oxidoquinoxalin-1-ium 1-oxide
> <PUBCHEM_IUPAC_NAME_MARKUP>
2-(3,4-dimethoxycyclohexa-2,4-dien-1-yl)sulfanyl-6,7-difluoro-3-methyl-4-oxidoquinoxalin-1-ium 1-oxide
> <PUBCHEM_IUPAC_NAME>
2-(3,4-dimethoxycyclohexa-2,4-dien-1-yl)sulfanyl-6,7-difluoro-3-methyl-4-oxidoquinoxalin-1-ium 1-oxide
> <PUBCHEM_IUPAC_SYSTEMATIC_NAME>
2-(3,4-dimethoxycyclohexa-2,4-dien-1-yl)sulfanyl-6,7-bis(fluoranyl)-3-methyl-4-oxidanidyl-quinoxalin-1-ium 1-oxide
> <PUBCHEM_IUPAC_TRADITIONAL_NAME>
2-[(3,4-dimethoxycyclohexa-2,4-dien-1-yl)thio]-6,7-difluoro-3-methyl-4-oxido-quinoxalin-1-ium 1-oxide
> <PUBCHEM_IUPAC_INCHI>
InChI=1S/C17H16F2N2O4S/c1-9-17(26-10-4-5-15(24-2)16(6-10)25-3)21(23)14-8-12(19)11(18)7-13(14)20(9)22/h5-8,10H,4H2,1-3H3
> <PUBCHEM_IUPAC_INCHIKEY>
XVHJTIZCDPCOCB-UHFFFAOYSA-N
> <PUBCHEM_XLOGP3_AA>
2.2
> <PUBCHEM_EXACT_MASS>
382.07988449
> <PUBCHEM_MOLECULAR_FORMULA>
C17H16F2N2O4S
> <PUBCHEM_MOLECULAR_WEIGHT>
382.4
> <PUBCHEM_OPENEYE_CAN_SMILES>
CC1=C([N+](=O)C2=CC(=C(C=C2N1[O-])F)F)SC3CC=C(C(=C3)OC)OC
> <PUBCHEM_OPENEYE_ISO_SMILES>
CC1=C([N+](=O)C2=CC(=C(C=C2N1[O-])F)F)SC3CC=C(C(=C3)OC)OC
> <PUBCHEM_CACTVS_TPSA>
90.1
> <PUBCHEM_MONOISOTOPIC_WEIGHT>
382.07988449
> <PUBCHEM_TOTAL_CHARGE>
0
> <PUBCHEM_HEAVY_ATOM_COUNT>
26
> <PUBCHEM_ATOM_DEF_STEREO_COUNT>
0
> <PUBCHEM_ATOM_UDEF_STEREO_COUNT>
1
> <PUBCHEM_BOND_DEF_STEREO_COUNT>
0
> <PUBCHEM_BOND_UDEF_STEREO_COUNT>
0
> <PUBCHEM_ISOTOPIC_ATOM_COUNT>
0
> <PUBCHEM_COMPONENT_COUNT>
1
> <PUBCHEM_CACTVS_TAUTO_COUNT>
-1
> <PUBCHEM_COORDINATE_TYPE>
1
5
255
> <PUBCHEM_BONDANNOTATIONS>
10  1  3
12  14  8
16  17  8
16  21  8
17  22  8
21  23  8
22  24  8
23  24  8
8  12  8
8  16  8
9  14  8
9  17  8
$$$$
