516778
  -OEChem-10302200292D
 57 62  0     1  0  0  0  0  0999 V2000
    3.2760   -0.0016    0.0000 O   0  0  0  0  0  0  0  0  0  0  0  0
    5.0046    0.1089    0.0000 N   0  0  0  0  0  0  0  0  0  0  0  0
    4.0445    1.5506    0.0000 C   0  0  3  0  0  0  0  0  0  0  0  0
    3.5053    3.0559    0.0000 C   0  0  3  0  0  0  0  0  0  0  0  0
    5.0684   -0.8890    0.0000 C   0  0  0  0  0  0  0  0  0  0  0  0
    4.0670    2.6290    0.0000 C   0  0  3  0  0  0  0  0  0  0  0  0
    2.4493    1.5730    0.0000 C   0  0  3  0  0  0  0  0  0  0  0  0
    3.0494    0.9821    0.0000 C   0  0  0  0  0  0  0  0  0  0  0  0
    4.3264   -2.3878    0.0000 C   0  0  0  0  0  0  0  0  0  0  0  0
    5.9954   -2.2810    0.0000 C   0  0  0  0  0  0  0  0  0  0  0  0
    5.8783   -2.7245    0.0000 C   0  0  0  0  0  0  0  0  0  0  0  0
    4.2647   -1.4242    0.0000 C   0  0  0  0  0  0  0  0  0  0  0  0
    5.9337   -1.3174    0.0000 C   0  0  0  0  0  0  0  0  0  0  0  0
    5.8116   -1.6813    0.0000 C   0  0  0  0  0  0  0  0  0  0  0  0
    2.9885    2.2695    0.0000 C   0  0  0  0  0  0  0  0  0  0  0  0
    2.7864    3.2581    0.0000 C   0  0  0  0  0  0  0  0  0  0  0  0
    5.1158    1.1087    0.0000 C   0  0  0  0  0  0  0  0  0  0  0  0
    5.1802   -2.6365    0.0000 C   0  0  0  0  0  0  0  0  0  0  0  0
    5.0049   -3.2581    0.0000 C   0  0  0  0  0  0  0  0  0  0  0  0
    6.8613   -2.7094    0.0000 C   0  0  0  0  0  0  0  0  0  0  0  0
    2.0000    2.5391    0.0000 C   0  0  0  0  0  0  0  0  0  0  0  0
    4.9882    2.4718    0.0000 C   0  0  0  0  0  0  0  0  0  0  0  0
    4.1084    0.5526    0.0000 C   0  0  0  0  0  0  0  0  0  0  0  0
    5.5723    1.7977    0.0000 C   0  0  0  0  0  0  0  0  0  0  0  0
    3.7817    3.6109    0.0000 H   0  0  0  0  0  0  0  0  0  0  0  0
    4.1143    2.0108    0.0000 H   0  0  0  0  0  0  0  0  0  0  0  0
    1.9426    1.2157    0.0000 H   0  0  0  0  0  0  0  0  0  0  0  0
    2.5759    0.5819    0.0000 H   0  0  0  0  0  0  0  0  0  0  0  0
    3.4047    0.4741    0.0000 H   0  0  0  0  0  0  0  0  0  0  0  0
    3.7468   -2.6079    0.0000 H   0  0  0  0  0  0  0  0  0  0  0  0
    6.5114   -1.9373    0.0000 H   0  0  0  0  0  0  0  0  0  0  0  0
    6.0508   -3.3200    0.0000 H   0  0  0  0  0  0  0  0  0  0  0  0
    2.9917    2.8895    0.0000 H   0  0  0  0  0  0  0  0  0  0  0  0
    3.3472    1.7638    0.0000 H   0  0  0  0  0  0  0  0  0  0  0  0
    4.0159   -0.8563    0.0000 H   0  0  0  0  0  0  0  0  0  0  0  0
    3.6623   -1.5706    0.0000 H   0  0  0  0  0  0  0  0  0  0  0  0
    6.5499   -1.3859    0.0000 H   0  0  0  0  0  0  0  0  0  0  0  0
    6.1081   -0.7225    0.0000 H   0  0  0  0  0  0  0  0  0  0  0  0
    6.4152   -1.8226    0.0000 H   0  0  0  0  0  0  0  0  0  0  0  0
    6.1216   -1.1444    0.0000 H   0  0  0  0  0  0  0  0  0  0  0  0
    3.0613    3.8138    0.0000 H   0  0  0  0  0  0  0  0  0  0  0  0
    2.2908    3.6308    0.0000 H   0  0  0  0  0  0  0  0  0  0  0  0
    4.8428    0.5520    0.0000 H   0  0  0  0  0  0  0  0  0  0  0  0
    5.6537    0.8004    0.0000 H   0  0  0  0  0  0  0  0  0  0  0  0
    4.8427   -3.1567    0.0000 H   0  0  0  0  0  0  0  0  0  0  0  0
    5.5812   -3.1094    0.0000 H   0  0  0  0  0  0  0  0  0  0  0  0
    4.5019   -3.6205    0.0000 H   0  0  0  0  0  0  0  0  0  0  0  0
    5.3480   -3.7746    0.0000 H   0  0  0  0  0  0  0  0  0  0  0  0
    7.0916   -3.2850    0.0000 H   0  0  0  0  0  0  0  0  0  0  0  0
    7.3166   -2.2885    0.0000 H   0  0  0  0  0  0  0  0  0  0  0  0
    1.6303    3.0368    0.0000 H   0  0  0  0  0  0  0  0  0  0  0  0
    1.4673    2.2219    0.0000 H   0  0  0  0  0  0  0  0  0  0  0  0
    5.5544    2.7244    0.0000 H   0  0  0  0  0  0  0  0  0  0  0  0
    4.9107    3.0869    0.0000 H   0  0  0  0  0  0  0  0  0  0  0  0
    5.5206    0.4526    0.0000 H   0  0  0  0  0  0  0  0  0  0  0  0
    6.0561    1.4100    0.0000 H   0  0  0  0  0  0  0  0  0  0  0  0
    6.0022    2.2445    0.0000 H   0  0  0  0  0  0  0  0  0  0  0  0
  1 23  2  0  0  0  0
  2  5  1  0  0  0  0
  2 23  1  0  0  0  0
  2 55  1  0  0  0  0
  3  4  1  0  0  0  0
  3  8  1  0  0  0  0
  3 17  1  0  0  0  0
  3 23  1  0  0  0  0
  4  6  1  0  0  0  0
  4 16  1  0  0  0  0
  4 25  1  0  0  0  0
  5 12  1  0  0  0  0
  5 13  1  0  0  0  0
  5 14  1  0  0  0  0
  6 15  1  0  0  0  0
  6 22  1  0  0  0  0
  6 26  1  0  0  0  0
  7  8  1  0  0  0  0
  7 15  1  0  0  0  0
  7 21  1  0  0  0  0
  7 27  1  0  0  0  0
  8 28  1  0  0  0  0
  8 29  1  0  0  0  0
  9 12  1  0  0  0  0
  9 18  1  0  0  0  0
  9 19  1  0  0  0  0
  9 30  1  0  0  0  0
 10 13  1  0  0  0  0
 10 18  1  0  0  0  0
 10 20  1  0  0  0  0
 10 31  1  0  0  0  0
 11 14  1  0  0  0  0
 11 19  1  0  0  0  0
 11 20  1  0  0  0  0
 11 32  1  0  0  0  0
 12 35  1  0  0  0  0
 12 36  1  0  0  0  0
 13 37  1  0  0  0  0
 13 38  1  0  0  0  0
 14 39  1  0  0  0  0
 14 40  1  0  0  0  0
 15 33  1  0  0  0  0
 15 34  1  0  0  0  0
 16 21  1  0  0  0  0
 16 41  1  0  0  0  0
 16 42  1  0  0  0  0
 17 24  1  0  0  0  0
 17 43  1  0  0  0  0
 17 44  1  0  0  0  0
 18 45  1  0  0  0  0
 18 46  1  0  0  0  0
 19 47  1  0  0  0  0
 19 48  1  0  0  0  0
 20 49  1  0  0  0  0
 20 50  1  0  0  0  0
 21 51  1  0  0  0  0
 21 52  1  0  0  0  0
 22 24  1  0  0  0  0
 22 53  1  0  0  0  0
 22 54  1  0  0  0  0
 24 56  1  0  0  0  0
 24 57  1  0  0  0  0
M  END
> <PUBCHEM_COMPOUND_CID>
516778
> <PUBCHEM_COMPOUND_CANONICALIZED>
1
> <PUBCHEM_CACTVS_COMPLEXITY>
527
> <PUBCHEM_CACTVS_HBOND_ACCEPTOR>
1
> <PUBCHEM_CACTVS_HBOND_DONOR>
1
> <PUBCHEM_CACTVS_ROTATABLE_BOND>
2
> <PUBCHEM_CACTVS_SUBSKEYS>
AAADcfB6IAAAAAAAAAAAAAAAAAAAAAAAAAAwYMGDAAAYAAAAAAAAHgAQAAAAD4iBgAAAAALAAAAIAAEQEAAAAAAAAAAAAAEAAAAAABIAgAAEAAAAFACAAAEYiMCPgAAAAAAAAACAAASAACAAAAAAAAAAAA==
> <PUBCHEM_IUPAC_OPENEYE_NAME>
N-(1-adamantyl)tricyclo[5.3.1.03,8]undecane-3-carboxamide
> <PUBCHEM_IUPAC_CAS_NAME>
N-(1-adamantyl)-3-tricyclo[5.3.1.03,8]undecanecarboxamide
> <PUBCHEM_IUPAC_NAME_MARKUP>
<I>N</I>-(1-adamantyl)tricyclo[5.3.1.0<SUP>3,8</SUP>]undecane-3-carboxamide
> <PUBCHEM_IUPAC_NAME>
N-(1-adamantyl)tricyclo[5.3.1.03,8]undecane-3-carboxamide
> <PUBCHEM_IUPAC_SYSTEMATIC_NAME>
N-(1-adamantyl)tricyclo[5.3.1.03,8]undecane-3-carboxamide
> <PUBCHEM_IUPAC_TRADITIONAL_NAME>
N-(1-adamantyl)tricyclo[5.3.1.03,8]undecane-3-carboxamide
> <PUBCHEM_IUPAC_INCHI>
InChI=1S/C22H33NO/c24-20(22-5-1-2-18-9-14(13-22)3-4-19(18)22)23-21-10-15-6-16(11-21)8-17(7-15)12-21/h14-19H,1-13H2,(H,23,24)
> <PUBCHEM_IUPAC_INCHIKEY>
FGGMSMSZYGQTPF-UHFFFAOYSA-N
> <PUBCHEM_XLOGP3_AA>
5.5
> <PUBCHEM_EXACT_MASS>
327.256214676
> <PUBCHEM_MOLECULAR_FORMULA>
C22H33NO
> <PUBCHEM_MOLECULAR_WEIGHT>
327.5
> <PUBCHEM_OPENEYE_CAN_SMILES>
C1CC2CC3CCC2C(C1)(C3)C(=O)NC45CC6CC(C4)CC(C6)C5
> <PUBCHEM_OPENEYE_ISO_SMILES>
C1CC2CC3CCC2C(C1)(C3)C(=O)NC45CC6CC(C4)CC(C6)C5
> <PUBCHEM_CACTVS_TPSA>
29.1
> <PUBCHEM_MONOISOTOPIC_WEIGHT>
327.256214676
> <PUBCHEM_TOTAL_CHARGE>
0
> <PUBCHEM_HEAVY_ATOM_COUNT>
24
> <PUBCHEM_ATOM_DEF_STEREO_COUNT>
0
> <PUBCHEM_ATOM_UDEF_STEREO_COUNT>
4
> <PUBCHEM_BOND_DEF_STEREO_COUNT>
0
> <PUBCHEM_BOND_UDEF_STEREO_COUNT>
0
> <PUBCHEM_ISOTOPIC_ATOM_COUNT>
0
> <PUBCHEM_COMPONENT_COUNT>
1
> <PUBCHEM_CACTVS_TAUTO_COUNT>
-1
> <PUBCHEM_COORDINATE_TYPE>
1
5
255
> <PUBCHEM_BONDANNOTATIONS>
3  23  3
4  16  3
6  22  3
7  21  3
$$$$
