516813
  -OEChem-10302200292D
 68 73  0     1  0  0  0  0  0999 V2000
   12.1179    1.3699    0.0000 O   0  0  0  0  0  0  0  0  0  0  0  0
    5.4679   -2.9377    0.0000 O   0  0  0  0  0  0  0  0  0  0  0  0
   13.7642    0.8318    0.0000 O   0  0  0  0  0  0  0  0  0  0  0  0
    4.6077   -1.4344    0.0000 O   0  0  0  0  0  0  0  0  0  0  0  0
   10.8610    0.1146    0.0000 C   0  0  3  0  0  0  0  0  0  0  0  0
   10.8610   -0.8854    0.0000 C   0  0  3  0  0  0  0  0  0  0  0  0
    9.9950   -1.3854    0.0000 C   0  0  3  0  0  0  0  0  0  0  0  0
    9.1290   -0.8854    0.0000 C   0  0  3  0  0  0  0  0  0  0  0  0
   11.8072    0.4194    0.0000 C   0  0  3  0  0  0  0  0  0  0  0  0
    9.9950    0.6146    0.0000 C   0  0  0  0  0  0  0  0  0  0  0  0
   11.8072   -1.1901    0.0000 C   0  0  0  0  0  0  0  0  0  0  0  0
    9.1290    0.1146    0.0000 C   0  0  0  0  0  0  0  0  0  0  0  0
   12.3908   -0.3854    0.0000 C   0  0  0  0  0  0  0  0  0  0  0  0
   10.0110   -2.4269    0.0000 C   0  0  0  0  0  0  0  0  0  0  0  0
   10.8610    1.1146    0.0000 C   0  0  0  0  0  0  0  0  0  0  0  0
    8.2190   -1.3922    0.0000 C   0  0  0  0  0  0  0  0  0  0  0  0
    9.1130   -2.9546    0.0000 C   0  0  0  0  0  0  0  0  0  0  0  0
    8.2109   -2.4338    0.0000 C   0  0  0  0  0  0  0  0  0  0  0  0
    7.2921   -0.8281    0.0000 C   0  0  0  0  0  0  0  0  0  0  0  0
    7.2755   -2.9835    0.0000 C   0  0  0  0  0  0  0  0  0  0  0  0
   13.0964    1.5761    0.0000 C   0  0  0  0  0  0  0  0  0  0  0  0
    6.3442   -1.3561    0.0000 C   0  0  0  0  0  0  0  0  0  0  0  0
    6.3359   -2.4410    0.0000 C   0  0  0  0  0  0  0  0  0  0  0  0
   13.4071    2.5266    0.0000 C   0  0  0  0  0  0  0  0  0  0  0  0
   12.7392    3.2709    0.0000 C   0  0  0  0  0  0  0  0  0  0  0  0
   14.3856    2.7328    0.0000 C   0  0  0  0  0  0  0  0  0  0  0  0
    4.6038   -2.4344    0.0000 C   0  0  0  0  0  0  0  0  0  0  0  0
   13.0499    4.2214    0.0000 C   0  0  0  0  0  0  0  0  0  0  0  0
   14.6962    3.6834    0.0000 C   0  0  0  0  0  0  0  0  0  0  0  0
   14.0284    4.4277    0.0000 C   0  0  0  0  0  0  0  0  0  0  0  0
    3.7359   -2.9310    0.0000 C   0  0  0  0  0  0  0  0  0  0  0  0
    3.7320   -3.9310    0.0000 C   0  0  0  0  0  0  0  0  0  0  0  0
    2.8718   -2.4277    0.0000 C   0  0  0  0  0  0  0  0  0  0  0  0
    2.8641   -4.4277    0.0000 C   0  0  0  0  0  0  0  0  0  0  0  0
    2.0038   -2.9243    0.0000 C   0  0  0  0  0  0  0  0  0  0  0  0
    2.0000   -3.9243    0.0000 C   0  0  0  0  0  0  0  0  0  0  0  0
   10.9266   -1.5019    0.0000 H   0  0  0  0  0  0  0  0  0  0  0  0
   10.5343   -1.6912    0.0000 H   0  0  0  0  0  0  0  0  0  0  0  0
    9.6659   -0.5754    0.0000 H   0  0  0  0  0  0  0  0  0  0  0  0
   12.4197    0.5156    0.0000 H   0  0  0  0  0  0  0  0  0  0  0  0
   10.3935    1.0896    0.0000 H   0  0  0  0  0  0  0  0  0  0  0  0
    9.5965    1.0896    0.0000 H   0  0  0  0  0  0  0  0  0  0  0  0
   11.5562   -1.7570    0.0000 H   0  0  0  0  0  0  0  0  0  0  0  0
   12.3446   -1.4993    0.0000 H   0  0  0  0  0  0  0  0  0  0  0  0
    8.9169    0.6972    0.0000 H   0  0  0  0  0  0  0  0  0  0  0  0
    8.5184    0.0070    0.0000 H   0  0  0  0  0  0  0  0  0  0  0  0
   12.8517   -0.8001    0.0000 H   0  0  0  0  0  0  0  0  0  0  0  0
   12.8517    0.0294    0.0000 H   0  0  0  0  0  0  0  0  0  0  0  0
   10.2291   -3.0073    0.0000 H   0  0  0  0  0  0  0  0  0  0  0  0
   10.6202   -2.3114    0.0000 H   0  0  0  0  0  0  0  0  0  0  0  0
   11.4810    1.1146    0.0000 H   0  0  0  0  0  0  0  0  0  0  0  0
   10.8610    1.7346    0.0000 H   0  0  0  0  0  0  0  0  0  0  0  0
   10.2410    1.1146    0.0000 H   0  0  0  0  0  0  0  0  0  0  0  0
    8.7157   -3.4306    0.0000 H   0  0  0  0  0  0  0  0  0  0  0  0
    9.5140   -3.4275    0.0000 H   0  0  0  0  0  0  0  0  0  0  0  0
    7.3041   -0.2082    0.0000 H   0  0  0  0  0  0  0  0  0  0  0  0
    7.2779   -3.6035    0.0000 H   0  0  0  0  0  0  0  0  0  0  0  0
    5.8109   -1.0399    0.0000 H   0  0  0  0  0  0  0  0  0  0  0  0
   12.1325    3.1431    0.0000 H   0  0  0  0  0  0  0  0  0  0  0  0
   14.7996    2.2714    0.0000 H   0  0  0  0  0  0  0  0  0  0  0  0
   12.6358    4.6829    0.0000 H   0  0  0  0  0  0  0  0  0  0  0  0
   15.3029    3.8112    0.0000 H   0  0  0  0  0  0  0  0  0  0  0  0
   14.2210    5.0170    0.0000 H   0  0  0  0  0  0  0  0  0  0  0  0
    4.2678   -4.2431    0.0000 H   0  0  0  0  0  0  0  0  0  0  0  0
    2.8742   -1.8077    0.0000 H   0  0  0  0  0  0  0  0  0  0  0  0
    2.8617   -5.0477    0.0000 H   0  0  0  0  0  0  0  0  0  0  0  0
    1.4681   -2.6123    0.0000 H   0  0  0  0  0  0  0  0  0  0  0  0
    1.4619   -4.2323    0.0000 H   0  0  0  0  0  0  0  0  0  0  0  0
  1  9  1  0  0  0  0
  1 21  1  0  0  0  0
  2 23  1  0  0  0  0
  2 27  1  0  0  0  0
  3 21  2  0  0  0  0
  4 27  2  0  0  0  0
  5  6  1  0  0  0  0
  5  9  1  0  0  0  0
  5 10  1  0  0  0  0
  5 15  1  0  0  0  0
  6  7  1  0  0  0  0
  6 11  1  0  0  0  0
  6 37  1  0  0  0  0
  7  8  1  0  0  0  0
  7 14  1  0  0  0  0
  7 38  1  0  0  0  0
  8 12  1  0  0  0  0
  8 16  1  0  0  0  0
  8 39  1  0  0  0  0
  9 13  1  0  0  0  0
  9 40  1  0  0  0  0
 10 12  1  0  0  0  0
 10 41  1  0  0  0  0
 10 42  1  0  0  0  0
 11 13  1  0  0  0  0
 11 43  1  0  0  0  0
 11 44  1  0  0  0  0
 12 45  1  0  0  0  0
 12 46  1  0  0  0  0
 13 47  1  0  0  0  0
 13 48  1  0  0  0  0
 14 17  1  0  0  0  0
 14 49  1  0  0  0  0
 14 50  1  0  0  0  0
 15 51  1  0  0  0  0
 15 52  1  0  0  0  0
 15 53  1  0  0  0  0
 16 18  2  0  0  0  0
 16 19  1  0  0  0  0
 17 18  1  0  0  0  0
 17 54  1  0  0  0  0
 17 55  1  0  0  0  0
 18 20  1  0  0  0  0
 19 22  2  0  0  0  0
 19 56  1  0  0  0  0
 20 23  2  0  0  0  0
 20 57  1  0  0  0  0
 21 24  1  0  0  0  0
 22 23  1  0  0  0  0
 22 58  1  0  0  0  0
 24 25  2  0  0  0  0
 24 26  1  0  0  0  0
 25 28  1  0  0  0  0
 25 59  1  0  0  0  0
 26 29  2  0  0  0  0
 26 60  1  0  0  0  0
 27 31  1  0  0  0  0
 28 30  2  0  0  0  0
 28 61  1  0  0  0  0
 29 30  1  0  0  0  0
 29 62  1  0  0  0  0
 30 63  1  0  0  0  0
 31 32  2  0  0  0  0
 31 33  1  0  0  0  0
 32 34  1  0  0  0  0
 32 64  1  0  0  0  0
 33 35  2  0  0  0  0
 33 65  1  0  0  0  0
 34 36  2  0  0  0  0
 34 66  1  0  0  0  0
 35 36  1  0  0  0  0
 35 67  1  0  0  0  0
 36 68  1  0  0  0  0
M  END
> <PUBCHEM_COMPOUND_CID>
516813
> <PUBCHEM_COMPOUND_CANONICALIZED>
1
> <PUBCHEM_CACTVS_COMPLEXITY>
796
> <PUBCHEM_CACTVS_HBOND_ACCEPTOR>
4
> <PUBCHEM_CACTVS_HBOND_DONOR>
0
> <PUBCHEM_CACTVS_ROTATABLE_BOND>
6
> <PUBCHEM_CACTVS_SUBSKEYS>
AAADcfB8OAAAAAAAAAAAAAAAAAAAAYAAAAAwYMGDAAAAAGDBUAAAGgAAAAAADxSgmAIyDoAABACIAiDSCAACCAAkIAAIiAEGCMgMJjKENRqCOyCkwBEIqYeIyPCPoAABAAAQAADAAAYAACAAAIAADAAAAA==
> <PUBCHEM_IUPAC_OPENEYE_NAME>
(3-benzoyloxy-13-methyl-6,7,8,9,11,12,14,15,16,17-decahydrocyclopenta[a]phenanthren-17-yl) benzoate
> <PUBCHEM_IUPAC_CAS_NAME>
benzoic acid (3-benzoyloxy-13-methyl-6,7,8,9,11,12,14,15,16,17-decahydrocyclopenta[a]phenanthren-17-yl) ester
> <PUBCHEM_IUPAC_NAME_MARKUP>
(3-benzoyloxy-13-methyl-6,7,8,9,11,12,14,15,16,17-decahydrocyclopenta[a]phenanthren-17-yl) benzoate
> <PUBCHEM_IUPAC_NAME>
(3-benzoyloxy-13-methyl-6,7,8,9,11,12,14,15,16,17-decahydrocyclopenta[a]phenanthren-17-yl) benzoate
> <PUBCHEM_IUPAC_SYSTEMATIC_NAME>
[13-methyl-3-(phenylcarbonyloxy)-6,7,8,9,11,12,14,15,16,17-decahydrocyclopenta[a]phenanthren-17-yl] benzoate
> <PUBCHEM_IUPAC_TRADITIONAL_NAME>
benzoic acid (3-benzoyloxy-13-methyl-6,7,8,9,11,12,14,15,16,17-decahydrocyclopenta[a]phenanthren-17-yl) ester
> <PUBCHEM_IUPAC_INCHI>
InChI=1S/C32H32O4/c1-32-19-18-26-25-15-13-24(35-30(33)21-8-4-2-5-9-21)20-23(25)12-14-27(26)28(32)16-17-29(32)36-31(34)22-10-6-3-7-11-22/h2-11,13,15,20,26-29H,12,14,16-19H2,1H3
> <PUBCHEM_IUPAC_INCHIKEY>
QSEBTTYLHXQXSF-UHFFFAOYSA-N
> <PUBCHEM_XLOGP3>
6.7
> <PUBCHEM_EXACT_MASS>
480.23005950
> <PUBCHEM_MOLECULAR_FORMULA>
C32H32O4
> <PUBCHEM_MOLECULAR_WEIGHT>
480.6
> <PUBCHEM_OPENEYE_CAN_SMILES>
CC12CCC3C(C1CCC2OC(=O)C4=CC=CC=C4)CCC5=C3C=CC(=C5)OC(=O)C6=CC=CC=C6
> <PUBCHEM_OPENEYE_ISO_SMILES>
CC12CCC3C(C1CCC2OC(=O)C4=CC=CC=C4)CCC5=C3C=CC(=C5)OC(=O)C6=CC=CC=C6
> <PUBCHEM_CACTVS_TPSA>
52.6
> <PUBCHEM_MONOISOTOPIC_WEIGHT>
480.23005950
> <PUBCHEM_TOTAL_CHARGE>
0
> <PUBCHEM_HEAVY_ATOM_COUNT>
36
> <PUBCHEM_ATOM_DEF_STEREO_COUNT>
0
> <PUBCHEM_ATOM_UDEF_STEREO_COUNT>
5
> <PUBCHEM_BOND_DEF_STEREO_COUNT>
0
> <PUBCHEM_BOND_UDEF_STEREO_COUNT>
0
> <PUBCHEM_ISOTOPIC_ATOM_COUNT>
0
> <PUBCHEM_COMPONENT_COUNT>
1
> <PUBCHEM_CACTVS_TAUTO_COUNT>
-1
> <PUBCHEM_COORDINATE_TYPE>
1
5
255
> <PUBCHEM_BONDANNOTATIONS>
9  1  3
16  18  8
16  19  8
18  20  8
19  22  8
20  23  8
22  23  8
24  25  8
24  26  8
25  28  8
26  29  8
28  30  8
29  30  8
31  32  8
31  33  8
32  34  8
33  35  8
34  36  8
35  36  8
5  15  3
6  11  3
7  14  3
8  12  3
$$$$
