516816
  -OEChem-10302200292D
 62 65  0     1  0  0  0  0  0999 V2000
    7.1857    4.9734    0.0000 O   0  0  0  0  0  0  0  0  0  0  0  0
    8.8320    4.4353    0.0000 O   0  0  0  0  0  0  0  0  0  0  0  0
    0.5357    0.6658    0.0000 O   0  0  0  0  0  0  0  0  0  0  0  0
    5.9288    3.7182    0.0000 C   0  0  3  0  0  0  0  0  0  0  0  0
    5.9288    2.7182    0.0000 C   0  0  3  0  0  0  0  0  0  0  0  0
    5.0628    2.2182    0.0000 C   0  0  3  0  0  0  0  0  0  0  0  0
    4.1968    2.7182    0.0000 C   0  0  3  0  0  0  0  0  0  0  0  0
    6.8750    4.0229    0.0000 C   0  0  3  0  0  0  0  0  0  0  0  0
    5.0628    4.2182    0.0000 C   0  0  0  0  0  0  0  0  0  0  0  0
    6.8750    2.4134    0.0000 C   0  0  0  0  0  0  0  0  0  0  0  0
    4.1968    3.7182    0.0000 C   0  0  0  0  0  0  0  0  0  0  0  0
    7.4586    3.2182    0.0000 C   0  0  0  0  0  0  0  0  0  0  0  0
    5.0789    1.1767    0.0000 C   0  0  0  0  0  0  0  0  0  0  0  0
    5.9288    4.7182    0.0000 C   0  0  0  0  0  0  0  0  0  0  0  0
    3.2868    2.2113    0.0000 C   0  0  0  0  0  0  0  0  0  0  0  0
    4.1808    0.6489    0.0000 C   0  0  0  0  0  0  0  0  0  0  0  0
    3.2787    1.1697    0.0000 C   0  0  0  0  0  0  0  0  0  0  0  0
    2.3599    2.7754    0.0000 C   0  0  0  0  0  0  0  0  0  0  0  0
    2.3433    0.6200    0.0000 C   0  0  0  0  0  0  0  0  0  0  0  0
    8.1642    5.1796    0.0000 C   0  0  0  0  0  0  0  0  0  0  0  0
    1.4120    2.2475    0.0000 C   0  0  0  0  0  0  0  0  0  0  0  0
    1.4037    1.1625    0.0000 C   0  0  0  0  0  0  0  0  0  0  0  0
    8.4749    6.1302    0.0000 C   0  0  0  0  0  0  0  0  0  0  0  0
    7.8070    6.8745    0.0000 C   0  0  0  0  0  0  0  0  0  0  0  0
    9.4534    6.3364    0.0000 C   0  0  0  0  0  0  0  0  0  0  0  0
    8.1177    7.8250    0.0000 C   0  0  0  0  0  0  0  0  0  0  0  0
    9.7640    7.2869    0.0000 C   0  0  0  0  0  0  0  0  0  0  0  0
    9.0962    8.0312    0.0000 C   0  0  0  0  0  0  0  0  0  0  0  0
    5.6854   11.1944    0.0000 C   0  0  0  0  0  0  0  0  0  0  0  0
    4.6854   11.1944    0.0000 C   0  0  0  0  0  0  0  0  0  0  0  0
    5.9944    2.1016    0.0000 H   0  0  0  0  0  0  0  0  0  0  0  0
    5.6021    1.9123    0.0000 H   0  0  0  0  0  0  0  0  0  0  0  0
    4.7337    3.0282    0.0000 H   0  0  0  0  0  0  0  0  0  0  0  0
    7.4875    4.1191    0.0000 H   0  0  0  0  0  0  0  0  0  0  0  0
    5.4613    4.6931    0.0000 H   0  0  0  0  0  0  0  0  0  0  0  0
    4.6643    4.6931    0.0000 H   0  0  0  0  0  0  0  0  0  0  0  0
    6.6240    1.8465    0.0000 H   0  0  0  0  0  0  0  0  0  0  0  0
    7.4124    2.1042    0.0000 H   0  0  0  0  0  0  0  0  0  0  0  0
    3.9847    4.3008    0.0000 H   0  0  0  0  0  0  0  0  0  0  0  0
    3.5862    3.6105    0.0000 H   0  0  0  0  0  0  0  0  0  0  0  0
    7.9195    2.8034    0.0000 H   0  0  0  0  0  0  0  0  0  0  0  0
    7.9195    3.6329    0.0000 H   0  0  0  0  0  0  0  0  0  0  0  0
    5.2969    0.5963    0.0000 H   0  0  0  0  0  0  0  0  0  0  0  0
    5.6880    1.2922    0.0000 H   0  0  0  0  0  0  0  0  0  0  0  0
    6.5488    4.7182    0.0000 H   0  0  0  0  0  0  0  0  0  0  0  0
    5.9288    5.3382    0.0000 H   0  0  0  0  0  0  0  0  0  0  0  0
    5.3088    4.7182    0.0000 H   0  0  0  0  0  0  0  0  0  0  0  0
    3.7835    0.1729    0.0000 H   0  0  0  0  0  0  0  0  0  0  0  0
    4.5818    0.1760    0.0000 H   0  0  0  0  0  0  0  0  0  0  0  0
    2.3719    3.3953    0.0000 H   0  0  0  0  0  0  0  0  0  0  0  0
    2.3457    0.0000    0.0000 H   0  0  0  0  0  0  0  0  0  0  0  0
    0.8787    2.5636    0.0000 H   0  0  0  0  0  0  0  0  0  0  0  0
    0.0000    0.9779    0.0000 H   0  0  0  0  0  0  0  0  0  0  0  0
    7.2004    6.7466    0.0000 H   0  0  0  0  0  0  0  0  0  0  0  0
    9.8674    5.8749    0.0000 H   0  0  0  0  0  0  0  0  0  0  0  0
    7.7036    8.2864    0.0000 H   0  0  0  0  0  0  0  0  0  0  0  0
   10.3707    7.4148    0.0000 H   0  0  0  0  0  0  0  0  0  0  0  0
    9.2888    8.6205    0.0000 H   0  0  0  0  0  0  0  0  0  0  0  0
    5.9954   10.6575    0.0000 H   0  0  0  0  0  0  0  0  0  0  0  0
    5.9954   11.7313    0.0000 H   0  0  0  0  0  0  0  0  0  0  0  0
    4.3754   11.7313    0.0000 H   0  0  0  0  0  0  0  0  0  0  0  0
    4.3754   10.6575    0.0000 H   0  0  0  0  0  0  0  0  0  0  0  0
  1  8  1  0  0  0  0
  1 20  1  0  0  0  0
  2 20  2  0  0  0  0
  3 22  1  0  0  0  0
  3 53  1  0  0  0  0
  4  5  1  0  0  0  0
  4  8  1  0  0  0  0
  4  9  1  0  0  0  0
  4 14  1  0  0  0  0
  5  6  1  0  0  0  0
  5 10  1  0  0  0  0
  5 31  1  0  0  0  0
  6  7  1  0  0  0  0
  6 13  1  0  0  0  0
  6 32  1  0  0  0  0
  7 11  1  0  0  0  0
  7 15  1  0  0  0  0
  7 33  1  0  0  0  0
  8 12  1  0  0  0  0
  8 34  1  0  0  0  0
  9 11  1  0  0  0  0
  9 35  1  0  0  0  0
  9 36  1  0  0  0  0
 10 12  1  0  0  0  0
 10 37  1  0  0  0  0
 10 38  1  0  0  0  0
 11 39  1  0  0  0  0
 11 40  1  0  0  0  0
 12 41  1  0  0  0  0
 12 42  1  0  0  0  0
 13 16  1  0  0  0  0
 13 43  1  0  0  0  0
 13 44  1  0  0  0  0
 14 45  1  0  0  0  0
 14 46  1  0  0  0  0
 14 47  1  0  0  0  0
 15 17  2  0  0  0  0
 15 18  1  0  0  0  0
 16 17  1  0  0  0  0
 16 48  1  0  0  0  0
 16 49  1  0  0  0  0
 17 19  1  0  0  0  0
 18 21  2  0  0  0  0
 18 50  1  0  0  0  0
 19 22  2  0  0  0  0
 19 51  1  0  0  0  0
 20 23  1  0  0  0  0
 21 22  1  0  0  0  0
 21 52  1  0  0  0  0
 23 24  2  0  0  0  0
 23 25  1  0  0  0  0
 24 26  1  0  0  0  0
 24 54  1  0  0  0  0
 25 27  2  0  0  0  0
 25 55  1  0  0  0  0
 26 28  2  0  0  0  0
 26 56  1  0  0  0  0
 27 28  1  0  0  0  0
 27 57  1  0  0  0  0
 28 58  1  0  0  0  0
 29 30  2  0  0  0  0
 29 59  1  0  0  0  0
 29 60  1  0  0  0  0
 30 61  1  0  0  0  0
 30 62  1  0  0  0  0
M  END
> <PUBCHEM_COMPOUND_CID>
516816
> <PUBCHEM_COMPOUND_CANONICALIZED>
1
> <PUBCHEM_CACTVS_COMPLEXITY>
582
> <PUBCHEM_CACTVS_HBOND_ACCEPTOR>
3
> <PUBCHEM_CACTVS_HBOND_DONOR>
1
> <PUBCHEM_CACTVS_ROTATABLE_BOND>
3
> <PUBCHEM_CACTVS_SUBSKEYS>
AAADcfB4MAAAAAAAAAAAAAAAAAAAAYAAAAAwYMGAAAAAAGDBQAAAGgAACAAADxSgmAIyDoAABgCIAiDSCAACAAAkIAAIiAEGCMgIJjKCNRqCcQAkwBEIuYeIyPCPoAABAAAQAADAAAYAACAAAIAADAAAAA==
> <PUBCHEM_IUPAC_OPENEYE_NAME>
ethylene;(3-hydroxy-13-methyl-6,7,8,9,11,12,14,15,16,17-decahydrocyclopenta[a]phenanthren-17-yl) benzoate
> <PUBCHEM_IUPAC_CAS_NAME>
benzoic acid (3-hydroxy-13-methyl-6,7,8,9,11,12,14,15,16,17-decahydrocyclopenta[a]phenanthren-17-yl) ester;ethene
> <PUBCHEM_IUPAC_NAME_MARKUP>
ethene;(3-hydroxy-13-methyl-6,7,8,9,11,12,14,15,16,17-decahydrocyclopenta[a]phenanthren-17-yl) benzoate
> <PUBCHEM_IUPAC_NAME>
ethene;(3-hydroxy-13-methyl-6,7,8,9,11,12,14,15,16,17-decahydrocyclopenta[a]phenanthren-17-yl) benzoate
> <PUBCHEM_IUPAC_SYSTEMATIC_NAME>
ethene;(13-methyl-3-oxidanyl-6,7,8,9,11,12,14,15,16,17-decahydrocyclopenta[a]phenanthren-17-yl) benzoate
> <PUBCHEM_IUPAC_TRADITIONAL_NAME>
benzoic acid (3-hydroxy-13-methyl-6,7,8,9,11,12,14,15,16,17-decahydrocyclopenta[a]phenanthren-17-yl) ester;ethylene
> <PUBCHEM_IUPAC_INCHI>
InChI=1S/C25H28O3.C2H4/c1-25-14-13-20-19-10-8-18(26)15-17(19)7-9-21(20)22(25)11-12-23(25)28-24(27)16-5-3-2-4-6-16;1-2/h2-6,8,10,15,20-23,26H,7,9,11-14H2,1H3;1-2H2
> <PUBCHEM_IUPAC_INCHIKEY>
ZWFGDSWGIVDODO-UHFFFAOYSA-N
> <PUBCHEM_EXACT_MASS>
404.23514488
> <PUBCHEM_MOLECULAR_FORMULA>
C27H32O3
> <PUBCHEM_MOLECULAR_WEIGHT>
404.5
> <PUBCHEM_OPENEYE_CAN_SMILES>
CC12CCC3C(C1CCC2OC(=O)C4=CC=CC=C4)CCC5=C3C=CC(=C5)O.C=C
> <PUBCHEM_OPENEYE_ISO_SMILES>
CC12CCC3C(C1CCC2OC(=O)C4=CC=CC=C4)CCC5=C3C=CC(=C5)O.C=C
> <PUBCHEM_CACTVS_TPSA>
46.5
> <PUBCHEM_MONOISOTOPIC_WEIGHT>
404.23514488
> <PUBCHEM_TOTAL_CHARGE>
0
> <PUBCHEM_HEAVY_ATOM_COUNT>
30
> <PUBCHEM_ATOM_DEF_STEREO_COUNT>
0
> <PUBCHEM_ATOM_UDEF_STEREO_COUNT>
5
> <PUBCHEM_BOND_DEF_STEREO_COUNT>
0
> <PUBCHEM_BOND_UDEF_STEREO_COUNT>
0
> <PUBCHEM_ISOTOPIC_ATOM_COUNT>
0
> <PUBCHEM_COMPONENT_COUNT>
2
> <PUBCHEM_CACTVS_TAUTO_COUNT>
-1
> <PUBCHEM_COORDINATE_TYPE>
1
5
255
> <PUBCHEM_BONDANNOTATIONS>
8  1  3
15  17  8
15  18  8
17  19  8
18  21  8
19  22  8
21  22  8
23  24  8
23  25  8
24  26  8
25  27  8
26  28  8
27  28  8
4  14  3
5  10  3
6  13  3
7  11  3
$$$$
