516963
  -OEChem-10302200292D
 76 77  0     1  0  0  0  0  0999 V2000
    5.4641    0.2500    0.0000 O   0  0  0  0  0  0  0  0  0  0  0  0
   11.5263   -0.2500    0.0000 O   0  0  0  0  0  0  0  0  0  0  0  0
    6.3301   -1.2500    0.0000 O   0  0  0  0  0  0  0  0  0  0  0  0
   10.6603    1.2500    0.0000 O   0  0  0  0  0  0  0  0  0  0  0  0
    8.0622   -0.2500    0.0000 C   0  0  3  0  0  0  0  0  0  0  0  0
    8.9282    0.2500    0.0000 C   0  0  3  0  0  0  0  0  0  0  0  0
    7.1962    0.2500    0.0000 C   0  0  0  0  0  0  0  0  0  0  0  0
    9.7942   -0.2500    0.0000 C   0  0  0  0  0  0  0  0  0  0  0  0
    8.0622   -1.2500    0.0000 C   0  0  0  0  0  0  0  0  0  0  0  0
    8.9282    1.2500    0.0000 C   0  0  0  0  0  0  0  0  0  0  0  0
    3.7320    0.2500    0.0000 C   0  0  0  0  0  0  0  0  0  0  0  0
   13.2583   -0.2500    0.0000 C   0  0  0  0  0  0  0  0  0  0  0  0
    6.3301   -0.2500    0.0000 C   0  0  0  0  0  0  0  0  0  0  0  0
   10.6603    0.2500    0.0000 C   0  0  0  0  0  0  0  0  0  0  0  0
    7.1962   -1.7500    0.0000 C   0  0  0  0  0  0  0  0  0  0  0  0
    9.7942    1.7500    0.0000 C   0  0  0  0  0  0  0  0  0  0  0  0
    8.9282   -1.7500    0.0000 C   0  0  0  0  0  0  0  0  0  0  0  0
    8.0622    1.7500    0.0000 C   0  0  0  0  0  0  0  0  0  0  0  0
    4.5981   -0.2500    0.0000 C   0  0  0  0  0  0  0  0  0  0  0  0
   12.3923    0.2500    0.0000 C   0  0  0  0  0  0  0  0  0  0  0  0
    2.8660   -0.2500    0.0000 C   0  0  0  0  0  0  0  0  0  0  0  0
    3.7320    1.2500    0.0000 C   0  0  0  0  0  0  0  0  0  0  0  0
   14.1244    0.2500    0.0000 C   0  0  0  0  0  0  0  0  0  0  0  0
   13.2583   -1.2500    0.0000 C   0  0  0  0  0  0  0  0  0  0  0  0
    7.1962   -2.7500    0.0000 C   0  0  0  0  0  0  0  0  0  0  0  0
    9.7942    2.7500    0.0000 C   0  0  0  0  0  0  0  0  0  0  0  0
    8.9282   -2.7500    0.0000 C   0  0  0  0  0  0  0  0  0  0  0  0
    8.0622    2.7500    0.0000 C   0  0  0  0  0  0  0  0  0  0  0  0
    8.0622   -3.2500    0.0000 C   0  0  0  0  0  0  0  0  0  0  0  0
    8.9282    3.2500    0.0000 C   0  0  0  0  0  0  0  0  0  0  0  0
    2.0000    0.2500    0.0000 C   0  0  0  0  0  0  0  0  0  0  0  0
    2.8660    1.7500    0.0000 C   0  0  0  0  0  0  0  0  0  0  0  0
   14.9904   -0.2500    0.0000 C   0  0  0  0  0  0  0  0  0  0  0  0
   14.1244   -1.7500    0.0000 C   0  0  0  0  0  0  0  0  0  0  0  0
    8.0622    0.3700    0.0000 H   0  0  0  0  0  0  0  0  0  0  0  0
    9.4651    0.5600    0.0000 H   0  0  0  0  0  0  0  0  0  0  0  0
    7.5947    0.7249    0.0000 H   0  0  0  0  0  0  0  0  0  0  0  0
    6.7976    0.7249    0.0000 H   0  0  0  0  0  0  0  0  0  0  0  0
    9.3957   -0.7249    0.0000 H   0  0  0  0  0  0  0  0  0  0  0  0
   10.1928   -0.7249    0.0000 H   0  0  0  0  0  0  0  0  0  0  0  0
    3.7320   -0.3700    0.0000 H   0  0  0  0  0  0  0  0  0  0  0  0
   13.7953   -0.5600    0.0000 H   0  0  0  0  0  0  0  0  0  0  0  0
    6.6592   -1.4400    0.0000 H   0  0  0  0  0  0  0  0  0  0  0  0
   10.3312    1.4400    0.0000 H   0  0  0  0  0  0  0  0  0  0  0  0
    9.4651   -1.4400    0.0000 H   0  0  0  0  0  0  0  0  0  0  0  0
    7.5252    1.4400    0.0000 H   0  0  0  0  0  0  0  0  0  0  0  0
    4.1996   -0.7249    0.0000 H   0  0  0  0  0  0  0  0  0  0  0  0
    4.9966   -0.7249    0.0000 H   0  0  0  0  0  0  0  0  0  0  0  0
   12.7908    0.7249    0.0000 H   0  0  0  0  0  0  0  0  0  0  0  0
   11.9938    0.7249    0.0000 H   0  0  0  0  0  0  0  0  0  0  0  0
    2.4675   -0.7249    0.0000 H   0  0  0  0  0  0  0  0  0  0  0  0
    3.2646   -0.7249    0.0000 H   0  0  0  0  0  0  0  0  0  0  0  0
    4.3426    1.1423    0.0000 H   0  0  0  0  0  0  0  0  0  0  0  0
    3.9441    1.8326    0.0000 H   0  0  0  0  0  0  0  0  0  0  0  0
   14.5229    0.7249    0.0000 H   0  0  0  0  0  0  0  0  0  0  0  0
   13.7258    0.7249    0.0000 H   0  0  0  0  0  0  0  0  0  0  0  0
   12.6477   -1.1423    0.0000 H   0  0  0  0  0  0  0  0  0  0  0  0
   13.0463   -1.8326    0.0000 H   0  0  0  0  0  0  0  0  0  0  0  0
    6.6592   -3.0600    0.0000 H   0  0  0  0  0  0  0  0  0  0  0  0
   10.3312    3.0600    0.0000 H   0  0  0  0  0  0  0  0  0  0  0  0
    9.4651   -3.0600    0.0000 H   0  0  0  0  0  0  0  0  0  0  0  0
    7.5252    3.0600    0.0000 H   0  0  0  0  0  0  0  0  0  0  0  0
    8.0622   -3.8700    0.0000 H   0  0  0  0  0  0  0  0  0  0  0  0
    8.9282    3.8700    0.0000 H   0  0  0  0  0  0  0  0  0  0  0  0
    2.3100    0.7869    0.0000 H   0  0  0  0  0  0  0  0  0  0  0  0
    1.4631    0.5600    0.0000 H   0  0  0  0  0  0  0  0  0  0  0  0
    1.6900   -0.2869    0.0000 H   0  0  0  0  0  0  0  0  0  0  0  0
    3.1760    2.2869    0.0000 H   0  0  0  0  0  0  0  0  0  0  0  0
    2.3291    2.0600    0.0000 H   0  0  0  0  0  0  0  0  0  0  0  0
    2.5560    1.2131    0.0000 H   0  0  0  0  0  0  0  0  0  0  0  0
   14.6804   -0.7869    0.0000 H   0  0  0  0  0  0  0  0  0  0  0  0
   15.5273   -0.5600    0.0000 H   0  0  0  0  0  0  0  0  0  0  0  0
   15.3004    0.2869    0.0000 H   0  0  0  0  0  0  0  0  0  0  0  0
   13.8144   -2.2869    0.0000 H   0  0  0  0  0  0  0  0  0  0  0  0
   14.6613   -2.0600    0.0000 H   0  0  0  0  0  0  0  0  0  0  0  0
   14.4344   -1.2131    0.0000 H   0  0  0  0  0  0  0  0  0  0  0  0
  1 13  1  0  0  0  0
  1 19  1  0  0  0  0
  2 14  1  0  0  0  0
  2 20  1  0  0  0  0
  3 13  2  0  0  0  0
  4 14  2  0  0  0  0
  5  6  1  0  0  0  0
  5  7  1  0  0  0  0
  5  9  1  0  0  0  0
  5 35  1  0  0  0  0
  6  8  1  0  0  0  0
  6 10  1  0  0  0  0
  6 36  1  0  0  0  0
  7 13  1  0  0  0  0
  7 37  1  0  0  0  0
  7 38  1  0  0  0  0
  8 14  1  0  0  0  0
  8 39  1  0  0  0  0
  8 40  1  0  0  0  0
  9 15  2  0  0  0  0
  9 17  1  0  0  0  0
 10 16  2  0  0  0  0
 10 18  1  0  0  0  0
 11 19  1  0  0  0  0
 11 21  1  0  0  0  0
 11 22  1  0  0  0  0
 11 41  1  0  0  0  0
 12 20  1  0  0  0  0
 12 23  1  0  0  0  0
 12 24  1  0  0  0  0
 12 42  1  0  0  0  0
 15 25  1  0  0  0  0
 15 43  1  0  0  0  0
 16 26  1  0  0  0  0
 16 44  1  0  0  0  0
 17 27  2  0  0  0  0
 17 45  1  0  0  0  0
 18 28  2  0  0  0  0
 18 46  1  0  0  0  0
 19 47  1  0  0  0  0
 19 48  1  0  0  0  0
 20 49  1  0  0  0  0
 20 50  1  0  0  0  0
 21 31  1  0  0  0  0
 21 51  1  0  0  0  0
 21 52  1  0  0  0  0
 22 32  1  0  0  0  0
 22 53  1  0  0  0  0
 22 54  1  0  0  0  0
 23 33  1  0  0  0  0
 23 55  1  0  0  0  0
 23 56  1  0  0  0  0
 24 34  1  0  0  0  0
 24 57  1  0  0  0  0
 24 58  1  0  0  0  0
 25 29  2  0  0  0  0
 25 59  1  0  0  0  0
 26 30  2  0  0  0  0
 26 60  1  0  0  0  0
 27 29  1  0  0  0  0
 27 61  1  0  0  0  0
 28 30  1  0  0  0  0
 28 62  1  0  0  0  0
 29 63  1  0  0  0  0
 30 64  1  0  0  0  0
 31 65  1  0  0  0  0
 31 66  1  0  0  0  0
 31 67  1  0  0  0  0
 32 68  1  0  0  0  0
 32 69  1  0  0  0  0
 32 70  1  0  0  0  0
 33 71  1  0  0  0  0
 33 72  1  0  0  0  0
 33 73  1  0  0  0  0
 34 74  1  0  0  0  0
 34 75  1  0  0  0  0
 34 76  1  0  0  0  0
M  END
> <PUBCHEM_COMPOUND_CID>
516963
> <PUBCHEM_COMPOUND_CANONICALIZED>
1
> <PUBCHEM_CACTVS_COMPLEXITY>
504
> <PUBCHEM_CACTVS_HBOND_ACCEPTOR>
4
> <PUBCHEM_CACTVS_HBOND_DONOR>
0
> <PUBCHEM_CACTVS_ROTATABLE_BOND>
17
> <PUBCHEM_CACTVS_SUBSKEYS>
AAADcfB4OAAAAAAAAAAAAAAAAAAAAAAAAAAwYAAAAAAAAAABQAAAGgAAAAAADQCgmAIyCIAABACIAiDSCAACAAAgAAAIiAEAAIgIIDKAERCCIAAkgAAIiAeIyPCOgAAAAAAAAAAAAAAAAAAAAAAAAAAAAA==
> <PUBCHEM_IUPAC_OPENEYE_NAME>
bis(2-ethylbutyl) 3,4-diphenylhexanedioate
> <PUBCHEM_IUPAC_CAS_NAME>
3,4-diphenylhexanedioic acid bis(2-ethylbutyl) ester
> <PUBCHEM_IUPAC_NAME_MARKUP>
bis(2-ethylbutyl) 3,4-diphenylhexanedioate
> <PUBCHEM_IUPAC_NAME>
bis(2-ethylbutyl) 3,4-diphenylhexanedioate
> <PUBCHEM_IUPAC_SYSTEMATIC_NAME>
bis(2-ethylbutyl) 3,4-diphenylhexanedioate
> <PUBCHEM_IUPAC_TRADITIONAL_NAME>
3,4-diphenyladipic acid bis(2-ethylbutyl) ester
> <PUBCHEM_IUPAC_INCHI>
InChI=1S/C30H42O4/c1-5-23(6-2)21-33-29(31)19-27(25-15-11-9-12-16-25)28(26-17-13-10-14-18-26)20-30(32)34-22-24(7-3)8-4/h9-18,23-24,27-28H,5-8,19-22H2,1-4H3
> <PUBCHEM_IUPAC_INCHIKEY>
WZZDDPWSRZHHMB-UHFFFAOYSA-N
> <PUBCHEM_XLOGP3_AA>
7.5
> <PUBCHEM_EXACT_MASS>
466.30830982
> <PUBCHEM_MOLECULAR_FORMULA>
C30H42O4
> <PUBCHEM_MOLECULAR_WEIGHT>
466.7
> <PUBCHEM_OPENEYE_CAN_SMILES>
CCC(CC)COC(=O)CC(C1=CC=CC=C1)C(CC(=O)OCC(CC)CC)C2=CC=CC=C2
> <PUBCHEM_OPENEYE_ISO_SMILES>
CCC(CC)COC(=O)CC(C1=CC=CC=C1)C(CC(=O)OCC(CC)CC)C2=CC=CC=C2
> <PUBCHEM_CACTVS_TPSA>
52.6
> <PUBCHEM_MONOISOTOPIC_WEIGHT>
466.30830982
> <PUBCHEM_TOTAL_CHARGE>
0
> <PUBCHEM_HEAVY_ATOM_COUNT>
34
> <PUBCHEM_ATOM_DEF_STEREO_COUNT>
0
> <PUBCHEM_ATOM_UDEF_STEREO_COUNT>
2
> <PUBCHEM_BOND_DEF_STEREO_COUNT>
0
> <PUBCHEM_BOND_UDEF_STEREO_COUNT>
0
> <PUBCHEM_ISOTOPIC_ATOM_COUNT>
0
> <PUBCHEM_COMPONENT_COUNT>
1
> <PUBCHEM_CACTVS_TAUTO_COUNT>
-1
> <PUBCHEM_COORDINATE_TYPE>
1
5
255
> <PUBCHEM_BONDANNOTATIONS>
10  16  8
10  18  8
15  25  8
16  26  8
17  27  8
18  28  8
25  29  8
26  30  8
27  29  8
28  30  8
5  7  3
6  8  3
9  15  8
9  17  8
$$$$
