516976
  -OEChem-10302200292D
 29 30  0     1  0  0  0  0  0999 V2000
    5.1350   -1.0000    0.0000 O   0  0  0  0  0  0  0  0  0  0  0  0
    2.5369   -0.5000    0.0000 O   0  0  0  0  0  0  0  0  0  0  0  0
    4.2690   -0.5000    0.0000 C   0  0  3  0  0  0  0  0  0  0  0  0
    7.7331   -0.5000    0.0000 C   0  0  0  0  0  0  0  0  0  0  0  0
    7.7331    0.5000    0.0000 C   0  0  0  0  0  0  0  0  0  0  0  0
    6.0010   -0.5000    0.0000 C   0  0  0  0  0  0  0  0  0  0  0  0
    6.8671   -1.0000    0.0000 C   0  0  0  0  0  0  0  0  0  0  0  0
    3.4030   -1.0000    0.0000 C   0  0  0  0  0  0  0  0  0  0  0  0
    6.8671    1.0000    0.0000 C   0  0  0  0  0  0  0  0  0  0  0  0
    6.0010    0.5000    0.0000 C   0  0  0  0  0  0  0  0  0  0  0  0
    4.2690    0.5000    0.0000 C   0  0  0  0  0  0  0  0  0  0  0  0
    8.6270   -1.0347    0.0000 C   0  0  0  0  0  0  0  0  0  0  0  0
    8.6270    1.0347    0.0000 C   0  0  0  0  0  0  0  0  0  0  0  0
    9.5331   -0.5208    0.0000 C   0  0  0  0  0  0  0  0  0  0  0  0
    9.5331    0.5208    0.0000 C   0  0  0  0  0  0  0  0  0  0  0  0
    4.2690   -1.1200    0.0000 H   0  0  0  0  0  0  0  0  0  0  0  0
    6.8671   -1.6200    0.0000 H   0  0  0  0  0  0  0  0  0  0  0  0
    3.0044   -1.4750    0.0000 H   0  0  0  0  0  0  0  0  0  0  0  0
    3.8015   -1.4750    0.0000 H   0  0  0  0  0  0  0  0  0  0  0  0
    5.4641    0.8100    0.0000 H   0  0  0  0  0  0  0  0  0  0  0  0
    6.8671    1.6200    0.0000 H   0  0  0  0  0  0  0  0  0  0  0  0
    4.8890    0.5000    0.0000 H   0  0  0  0  0  0  0  0  0  0  0  0
    4.2690    1.1200    0.0000 H   0  0  0  0  0  0  0  0  0  0  0  0
    3.6490    0.5000    0.0000 H   0  0  0  0  0  0  0  0  0  0  0  0
    8.6199   -1.6546    0.0000 H   0  0  0  0  0  0  0  0  0  0  0  0
    8.6199    1.6546    0.0000 H   0  0  0  0  0  0  0  0  0  0  0  0
   10.0688   -0.8329    0.0000 H   0  0  0  0  0  0  0  0  0  0  0  0
   10.0688    0.8329    0.0000 H   0  0  0  0  0  0  0  0  0  0  0  0
    2.0000   -0.8100    0.0000 H   0  0  0  0  0  0  0  0  0  0  0  0
  1  3  1  0  0  0  0
  1  6  1  0  0  0  0
  2  8  1  0  0  0  0
  2 29  1  0  0  0  0
  3  8  1  0  0  0  0
  3 11  1  0  0  0  0
  3 16  1  0  0  0  0
  4  5  1  0  0  0  0
  4  7  1  0  0  0  0
  4 12  2  0  0  0  0
  5  9  1  0  0  0  0
  5 13  2  0  0  0  0
  6  7  2  0  0  0  0
  6 10  1  0  0  0  0
  7 17  1  0  0  0  0
  8 18  1  0  0  0  0
  8 19  1  0  0  0  0
  9 10  2  0  0  0  0
  9 21  1  0  0  0  0
 10 20  1  0  0  0  0
 11 22  1  0  0  0  0
 11 23  1  0  0  0  0
 11 24  1  0  0  0  0
 12 14  1  0  0  0  0
 12 25  1  0  0  0  0
 13 15  1  0  0  0  0
 13 26  1  0  0  0  0
 14 15  2  0  0  0  0
 14 27  1  0  0  0  0
 15 28  1  0  0  0  0
M  END
> <PUBCHEM_COMPOUND_CID>
516976
> <PUBCHEM_COMPOUND_CANONICALIZED>
1
> <PUBCHEM_CACTVS_COMPLEXITY>
193
> <PUBCHEM_CACTVS_HBOND_ACCEPTOR>
2
> <PUBCHEM_CACTVS_HBOND_DONOR>
1
> <PUBCHEM_CACTVS_ROTATABLE_BOND>
3
> <PUBCHEM_CACTVS_SUBSKEYS>
AAADccBwMAAAAAAAAAAAAAAAAAAAAAAAAAAwYAAAAAAAAADBUAAAGgAACAAADBSgmAIyBsAABgCAAiBCAAACCAAgIAAIiAAGCIgNNiKEMRqCeCCkwBELqAeAwLAOoAABAAAQAABAAAIAACAAAAAAAAAAAA==
> <PUBCHEM_IUPAC_OPENEYE_NAME>
2-(2-naphthyloxy)propan-1-ol
> <PUBCHEM_IUPAC_CAS_NAME>
2-(2-naphthalenyloxy)-1-propanol
> <PUBCHEM_IUPAC_NAME_MARKUP>
2-naphthalen-2-yloxypropan-1-ol
> <PUBCHEM_IUPAC_NAME>
2-naphthalen-2-yloxypropan-1-ol
> <PUBCHEM_IUPAC_SYSTEMATIC_NAME>
2-naphthalen-2-yloxypropan-1-ol
> <PUBCHEM_IUPAC_TRADITIONAL_NAME>
2-(2-naphthoxy)propan-1-ol
> <PUBCHEM_IUPAC_INCHI>
InChI=1S/C13H14O2/c1-10(9-14)15-13-7-6-11-4-2-3-5-12(11)8-13/h2-8,10,14H,9H2,1H3
> <PUBCHEM_IUPAC_INCHIKEY>
MIOCXGZKIFRNRK-UHFFFAOYSA-N
> <PUBCHEM_XLOGP3>
3.2
> <PUBCHEM_EXACT_MASS>
202.099379685
> <PUBCHEM_MOLECULAR_FORMULA>
C13H14O2
> <PUBCHEM_MOLECULAR_WEIGHT>
202.25
> <PUBCHEM_OPENEYE_CAN_SMILES>
CC(CO)OC1=CC2=CC=CC=C2C=C1
> <PUBCHEM_OPENEYE_ISO_SMILES>
CC(CO)OC1=CC2=CC=CC=C2C=C1
> <PUBCHEM_CACTVS_TPSA>
29.5
> <PUBCHEM_MONOISOTOPIC_WEIGHT>
202.099379685
> <PUBCHEM_TOTAL_CHARGE>
0
> <PUBCHEM_HEAVY_ATOM_COUNT>
15
> <PUBCHEM_ATOM_DEF_STEREO_COUNT>
0
> <PUBCHEM_ATOM_UDEF_STEREO_COUNT>
1
> <PUBCHEM_BOND_DEF_STEREO_COUNT>
0
> <PUBCHEM_BOND_UDEF_STEREO_COUNT>
0
> <PUBCHEM_ISOTOPIC_ATOM_COUNT>
0
> <PUBCHEM_COMPONENT_COUNT>
1
> <PUBCHEM_CACTVS_TAUTO_COUNT>
1
> <PUBCHEM_COORDINATE_TYPE>
1
5
255
> <PUBCHEM_BONDANNOTATIONS>
12  14  8
13  15  8
14  15  8
3  11  3
4  12  8
4  5  8
4  7  8
5  13  8
5  9  8
6  10  8
6  7  8
9  10  8
$$$$
