516967
  -OEChem-10302200292D
 49 52  0     1  0  0  0  0  0999 V2000
    2.5780    0.5735    0.0000 O   0  0  0  0  0  0  0  0  0  0  0  0
    5.7088   -0.5383    0.0000 O   0  0  0  0  0  0  0  0  0  0  0  0
    5.1502    2.8285    0.0000 N   0  0  3  0  0  0  0  0  0  0  0  0
    5.6280    0.8799    0.0000 C   0  0  3  0  0  0  0  0  0  0  0  0
    4.4070    0.0143    0.0000 C   0  0  3  0  0  0  0  0  0  0  0  0
    5.8868    1.8458    0.0000 C   0  0  3  0  0  0  0  0  0  0  0  0
    7.0270    0.3711    0.0000 C   0  0  0  0  0  0  0  0  0  0  0  0
    3.5780    0.5734    0.0000 C   0  0  3  0  0  0  0  0  0  0  0  0
    7.2858    1.3370    0.0000 C   0  0  0  0  0  0  0  0  0  0  0  0
    3.8536    1.5347    0.0000 C   0  0  0  0  0  0  0  0  0  0  0  0
    4.7816   -0.9129    0.0000 C   0  0  0  0  0  0  0  0  0  0  0  0
    4.6502    3.6945    0.0000 C   0  0  0  0  0  0  0  0  0  0  0  0
    5.1562   -1.8401    0.0000 C   0  0  0  0  0  0  0  0  0  0  0  0
    3.8544   -1.2875    0.0000 C   0  0  0  0  0  0  0  0  0  0  0  0
    4.5406   -2.6281    0.0000 C   0  0  0  0  0  0  0  0  0  0  0  0
    3.0664   -0.6718    0.0000 C   0  0  0  0  0  0  0  0  0  0  0  0
    6.1465   -1.9793    0.0000 C   0  0  0  0  0  0  0  0  0  0  0  0
    3.7152   -2.2778    0.0000 C   0  0  0  0  0  0  0  0  0  0  0  0
    4.9152   -3.5553    0.0000 C   0  0  0  0  0  0  0  0  0  0  0  0
    2.1392   -1.0464    0.0000 C   0  0  0  0  0  0  0  0  0  0  0  0
    6.5211   -2.9065    0.0000 C   0  0  0  0  0  0  0  0  0  0  0  0
    2.7880   -2.6524    0.0000 C   0  0  0  0  0  0  0  0  0  0  0  0
    5.9054   -3.6945    0.0000 C   0  0  0  0  0  0  0  0  0  0  0  0
    2.0000   -2.0367    0.0000 C   0  0  0  0  0  0  0  0  0  0  0  0
    5.7108    0.2655    0.0000 H   0  0  0  0  0  0  0  0  0  0  0  0
    3.9252   -0.3759    0.0000 H   0  0  0  0  0  0  0  0  0  0  0  0
    6.2562    2.3438    0.0000 H   0  0  0  0  0  0  0  0  0  0  0  0
    6.8320   -0.2175    0.0000 H   0  0  0  0  0  0  0  0  0  0  0  0
    7.6209    0.1933    0.0000 H   0  0  0  0  0  0  0  0  0  0  0  0
    3.3967   -0.0195    0.0000 H   0  0  0  0  0  0  0  0  0  0  0  0
    7.8797    1.1592    0.0000 H   0  0  0  0  0  0  0  0  0  0  0  0
    7.4807    1.9256    0.0000 H   0  0  0  0  0  0  0  0  0  0  0  0
    3.8485    2.1547    0.0000 H   0  0  0  0  0  0  0  0  0  0  0  0
    3.2393    1.6185    0.0000 H   0  0  0  0  0  0  0  0  0  0  0  0
    5.1872    4.0045    0.0000 H   0  0  0  0  0  0  0  0  0  0  0  0
    4.3402    4.2314    0.0000 H   0  0  0  0  0  0  0  0  0  0  0  0
    4.1133    3.3845    0.0000 H   0  0  0  0  0  0  0  0  0  0  0  0
    2.2680    1.1104    0.0000 H   0  0  0  0  0  0  0  0  0  0  0  0
    6.1973   -0.9200    0.0000 H   0  0  0  0  0  0  0  0  0  0  0  0
    3.9266   -2.5418    0.0000 H   0  0  0  0  0  0  0  0  0  0  0  0
    3.1526   -0.0578    0.0000 H   0  0  0  0  0  0  0  0  0  0  0  0
    6.5282   -1.4907    0.0000 H   0  0  0  0  0  0  0  0  0  0  0  0
    4.2038   -2.6595    0.0000 H   0  0  0  0  0  0  0  0  0  0  0  0
    4.5335   -4.0439    0.0000 H   0  0  0  0  0  0  0  0  0  0  0  0
    1.6506   -0.6647    0.0000 H   0  0  0  0  0  0  0  0  0  0  0  0
    7.1350   -2.9928    0.0000 H   0  0  0  0  0  0  0  0  0  0  0  0
    2.7017   -3.2664    0.0000 H   0  0  0  0  0  0  0  0  0  0  0  0
    6.1377   -4.2693    0.0000 H   0  0  0  0  0  0  0  0  0  0  0  0
    1.4252   -2.2690    0.0000 H   0  0  0  0  0  0  0  0  0  0  0  0
  1  8  1  0  0  0  0
  1 38  1  0  0  0  0
  2 11  1  0  0  0  0
  2 39  1  0  0  0  0
  3  4  1  0  0  0  0
  3  6  1  0  0  0  0
  3 12  1  0  0  0  0
  4  5  1  0  0  0  0
  4  7  1  0  0  0  0
  4 25  1  0  0  0  0
  5  8  1  0  0  0  0
  5 11  1  0  0  0  0
  5 26  1  0  0  0  0
  6  9  1  0  0  0  0
  6 10  1  0  0  0  0
  6 27  1  0  0  0  0
  7  9  1  0  0  0  0
  7 28  1  0  0  0  0
  7 29  1  0  0  0  0
  8 10  1  0  0  0  0
  8 30  1  0  0  0  0
  9 31  1  0  0  0  0
  9 32  1  0  0  0  0
 10 33  1  0  0  0  0
 10 34  1  0  0  0  0
 11 13  1  0  0  0  0
 11 14  1  0  0  0  0
 12 35  1  0  0  0  0
 12 36  1  0  0  0  0
 12 37  1  0  0  0  0
 13 15  2  0  0  0  0
 13 17  1  0  0  0  0
 14 16  2  0  0  0  0
 14 18  1  0  0  0  0
 15 19  1  0  0  0  0
 15 40  1  0  0  0  0
 16 20  1  0  0  0  0
 16 41  1  0  0  0  0
 17 21  2  0  0  0  0
 17 42  1  0  0  0  0
 18 22  2  0  0  0  0
 18 43  1  0  0  0  0
 19 23  2  0  0  0  0
 19 44  1  0  0  0  0
 20 24  2  0  0  0  0
 20 45  1  0  0  0  0
 21 23  1  0  0  0  0
 21 46  1  0  0  0  0
 22 24  1  0  0  0  0
 22 47  1  0  0  0  0
 23 48  1  0  0  0  0
 24 49  1  0  0  0  0
M  END
> <PUBCHEM_COMPOUND_CID>
516967
> <PUBCHEM_COMPOUND_CANONICALIZED>
1
> <PUBCHEM_CACTVS_COMPLEXITY>
410
> <PUBCHEM_CACTVS_HBOND_ACCEPTOR>
3
> <PUBCHEM_CACTVS_HBOND_DONOR>
2
> <PUBCHEM_CACTVS_ROTATABLE_BOND>
3
> <PUBCHEM_CACTVS_SUBSKEYS>
AAADceB6MAAAAAAAAAAAAAAAAAAAAWAAAAA8YIAABgAAAAABQAAAHgAACAAADXzhmAYyAIMAAgCAAiBCAAACAAAgAAAIiAAICIgINiKAkRCEcAAnwAGImAeQ0OMOgAAAAAAAAAAAAAAAAAAAAAAAAAAAAA==
> <PUBCHEM_IUPAC_OPENEYE_NAME>
2-[hydroxy(diphenyl)methyl]-8-methyl-8-azabicyclo[3.2.1]octan-3-ol
> <PUBCHEM_IUPAC_CAS_NAME>
2-[hydroxy(diphenyl)methyl]-8-methyl-8-azabicyclo[3.2.1]octan-3-ol
> <PUBCHEM_IUPAC_NAME_MARKUP>
2-[hydroxy(diphenyl)methyl]-8-methyl-8-azabicyclo[3.2.1]octan-3-ol
> <PUBCHEM_IUPAC_NAME>
2-[hydroxy(diphenyl)methyl]-8-methyl-8-azabicyclo[3.2.1]octan-3-ol
> <PUBCHEM_IUPAC_SYSTEMATIC_NAME>
8-methyl-2-[oxidanyl(diphenyl)methyl]-8-azabicyclo[3.2.1]octan-3-ol
> <PUBCHEM_IUPAC_TRADITIONAL_NAME>
2-[hydroxy(diphenyl)methyl]-8-methyl-8-azabicyclo[3.2.1]octan-3-ol
> <PUBCHEM_IUPAC_INCHI>
InChI=1S/C21H25NO2/c1-22-17-12-13-18(22)20(19(23)14-17)21(24,15-8-4-2-5-9-15)16-10-6-3-7-11-16/h2-11,17-20,23-24H,12-14H2,1H3
> <PUBCHEM_IUPAC_INCHIKEY>
WEWDSUKFXIYYNN-UHFFFAOYSA-N
> <PUBCHEM_XLOGP3_AA>
3.5
> <PUBCHEM_EXACT_MASS>
323.188529040
> <PUBCHEM_MOLECULAR_FORMULA>
C21H25NO2
> <PUBCHEM_MOLECULAR_WEIGHT>
323.4
> <PUBCHEM_OPENEYE_CAN_SMILES>
CN1C2CCC1C(C(C2)O)C(C3=CC=CC=C3)(C4=CC=CC=C4)O
> <PUBCHEM_OPENEYE_ISO_SMILES>
CN1C2CCC1C(C(C2)O)C(C3=CC=CC=C3)(C4=CC=CC=C4)O
> <PUBCHEM_CACTVS_TPSA>
43.7
> <PUBCHEM_MONOISOTOPIC_WEIGHT>
323.188529040
> <PUBCHEM_TOTAL_CHARGE>
0
> <PUBCHEM_HEAVY_ATOM_COUNT>
24
> <PUBCHEM_ATOM_DEF_STEREO_COUNT>
0
> <PUBCHEM_ATOM_UDEF_STEREO_COUNT>
4
> <PUBCHEM_BOND_DEF_STEREO_COUNT>
0
> <PUBCHEM_BOND_UDEF_STEREO_COUNT>
0
> <PUBCHEM_ISOTOPIC_ATOM_COUNT>
0
> <PUBCHEM_COMPONENT_COUNT>
1
> <PUBCHEM_CACTVS_TAUTO_COUNT>
-1
> <PUBCHEM_COORDINATE_TYPE>
1
5
255
> <PUBCHEM_BONDANNOTATIONS>
8  1  3
13  15  8
13  17  8
14  16  8
14  18  8
15  19  8
16  20  8
17  21  8
18  22  8
19  23  8
20  24  8
21  23  8
22  24  8
4  7  3
5  11  3
6  9  3
$$$$
