516993
  -OEChem-10302200292D
 27 28  0     1  0  0  0  0  0999 V2000
    3.2092    1.4750    0.0000 O   0  0  0  0  0  0  0  0  0  0  0  0
    2.0148    4.9500    0.0000 O   0  0  0  0  0  0  0  0  0  0  0  0
    2.3426    1.9750    0.0000 C   0  0  3  0  0  0  0  0  0  0  0  0
    2.3426    0.9749    0.0000 C   0  0  3  0  0  0  0  0  0  0  0  0
    1.4766    2.4750    0.0000 C   0  0  0  0  0  0  0  0  0  0  0  0
    1.4766    0.4749    0.0000 C   0  0  0  0  0  0  0  0  0  0  0  0
    0.6106    1.9750    0.0000 C   0  0  0  0  0  0  0  0  0  0  0  0
    0.6106    0.9749    0.0000 C   0  0  0  0  0  0  0  0  0  0  0  0
    1.5148    5.8161    0.0000 C   0  0  3  0  0  0  0  0  0  0  0  0
    2.5148    5.8161    0.0000 C   0  0  0  0  0  0  0  0  0  0  0  0
    0.6487    6.3161    0.0000 C   0  0  0  0  0  0  0  0  0  0  0  0
    2.6526    2.5119    0.0000 H   0  0  0  0  0  0  0  0  0  0  0  0
    2.6526    0.4380    0.0000 H   0  0  0  0  0  0  0  0  0  0  0  0
    1.8751    2.9499    0.0000 H   0  0  0  0  0  0  0  0  0  0  0  0
    1.0781    2.9499    0.0000 H   0  0  0  0  0  0  0  0  0  0  0  0
    1.0781    0.0000    0.0000 H   0  0  0  0  0  0  0  0  0  0  0  0
    1.8751    0.0000    0.0000 H   0  0  0  0  0  0  0  0  0  0  0  0
    0.3985    2.5576    0.0000 H   0  0  0  0  0  0  0  0  0  0  0  0
    0.0000    1.8673    0.0000 H   0  0  0  0  0  0  0  0  0  0  0  0
    0.0000    1.0826    0.0000 H   0  0  0  0  0  0  0  0  0  0  0  0
    0.3985    0.3923    0.0000 H   0  0  0  0  0  0  0  0  0  0  0  0
    1.0764    5.3777    0.0000 H   0  0  0  0  0  0  0  0  0  0  0  0
    3.0974    5.6040    0.0000 H   0  0  0  0  0  0  0  0  0  0  0  0
    2.6224    6.4267    0.0000 H   0  0  0  0  0  0  0  0  0  0  0  0
    0.9587    6.8530    0.0000 H   0  0  0  0  0  0  0  0  0  0  0  0
    0.1118    6.6261    0.0000 H   0  0  0  0  0  0  0  0  0  0  0  0
    0.3387    5.7791    0.0000 H   0  0  0  0  0  0  0  0  0  0  0  0
  1  3  1  0  0  0  0
  1  4  1  0  0  0  0
  2  9  1  0  0  0  0
  2 10  1  0  0  0  0
  3  4  1  0  0  0  0
  3  5  1  0  0  0  0
  3 12  1  0  0  0  0
  4  6  1  0  0  0  0
  4 13  1  0  0  0  0
  5  7  1  0  0  0  0
  5 14  1  0  0  0  0
  5 15  1  0  0  0  0
  6  8  1  0  0  0  0
  6 16  1  0  0  0  0
  6 17  1  0  0  0  0
  7  8  1  0  0  0  0
  7 18  1  0  0  0  0
  7 19  1  0  0  0  0
  8 20  1  0  0  0  0
  8 21  1  0  0  0  0
  9 10  1  0  0  0  0
  9 11  1  0  0  0  0
  9 22  1  0  0  0  0
 10 23  1  0  0  0  0
 10 24  1  0  0  0  0
 11 25  1  0  0  0  0
 11 26  1  0  0  0  0
 11 27  1  0  0  0  0
M  END
> <PUBCHEM_COMPOUND_CID>
516993
> <PUBCHEM_COMPOUND_CANONICALIZED>
1
> <PUBCHEM_CACTVS_COMPLEXITY>
96.7
> <PUBCHEM_CACTVS_HBOND_ACCEPTOR>
2
> <PUBCHEM_CACTVS_HBOND_DONOR>
0
> <PUBCHEM_CACTVS_ROTATABLE_BOND>
0
> <PUBCHEM_CACTVS_SUBSKEYS>
AAADceBwMAAAAAAAAAAAAAAAEiQAAAAAAAAwAAAABIAAAAAAAAAAGgAAAAAACBSggAICAAAABAAAAAAAAAAAAAAAAAAAAAAAAAAAAAIAAAACAAAEAAAAAAGAQAAAAAAAAAAAAAAAAAAAAAAAAAAAAAAAAA==
> <PUBCHEM_IUPAC_OPENEYE_NAME>
2-methyloxirane;7-oxabicyclo[4.1.0]heptane
> <PUBCHEM_IUPAC_CAS_NAME>
2-methyloxirane;7-oxabicyclo[4.1.0]heptane
> <PUBCHEM_IUPAC_NAME_MARKUP>
2-methyloxirane;7-oxabicyclo[4.1.0]heptane
> <PUBCHEM_IUPAC_NAME>
2-methyloxirane;7-oxabicyclo[4.1.0]heptane
> <PUBCHEM_IUPAC_SYSTEMATIC_NAME>
2-methyloxirane;7-oxabicyclo[4.1.0]heptane
> <PUBCHEM_IUPAC_TRADITIONAL_NAME>
7-oxabicyclo[4.1.0]heptane;propylene oxide
> <PUBCHEM_IUPAC_INCHI>
InChI=1S/C6H10O.C3H6O/c1-2-4-6-5(3-1)7-6;1-3-2-4-3/h5-6H,1-4H2;3H,2H2,1H3
> <PUBCHEM_IUPAC_INCHIKEY>
AVROMNDRDNRBOK-UHFFFAOYSA-N
> <PUBCHEM_EXACT_MASS>
156.115029749
> <PUBCHEM_MOLECULAR_FORMULA>
C9H16O2
> <PUBCHEM_MOLECULAR_WEIGHT>
156.22
> <PUBCHEM_OPENEYE_CAN_SMILES>
CC1CO1.C1CCC2C(C1)O2
> <PUBCHEM_OPENEYE_ISO_SMILES>
CC1CO1.C1CCC2C(C1)O2
> <PUBCHEM_CACTVS_TPSA>
25.1
> <PUBCHEM_MONOISOTOPIC_WEIGHT>
156.115029749
> <PUBCHEM_TOTAL_CHARGE>
0
> <PUBCHEM_HEAVY_ATOM_COUNT>
11
> <PUBCHEM_ATOM_DEF_STEREO_COUNT>
0
> <PUBCHEM_ATOM_UDEF_STEREO_COUNT>
3
> <PUBCHEM_BOND_DEF_STEREO_COUNT>
0
> <PUBCHEM_BOND_UDEF_STEREO_COUNT>
0
> <PUBCHEM_ISOTOPIC_ATOM_COUNT>
0
> <PUBCHEM_COMPONENT_COUNT>
2
> <PUBCHEM_CACTVS_TAUTO_COUNT>
-1
> <PUBCHEM_COORDINATE_TYPE>
1
5
255
> <PUBCHEM_BONDANNOTATIONS>
3  5  3
4  6  3
9  11  3
$$$$
