516989
  -OEChem-10302200292D
 54 52  0     1  0  0  0  0  0999 V2000
    9.7942    3.2500    0.0000 S   0  0  0  0  0  0  0  0  0  0  0  0
   11.5263    3.2500    0.0000 Na  0  3  0  0  0  0  0  0  0  0  0  0
    7.1962    2.7500    0.0000 O   0  0  0  0  0  0  0  0  0  0  0  0
    8.0622    0.2500    0.0000 O   0  0  0  0  0  0  0  0  0  0  0  0
   10.6603    3.7500    0.0000 O   0  5  0  0  0  0  0  0  0  0  0  0
    8.0622    4.2500    0.0000 O   0  0  0  0  0  0  0  0  0  0  0  0
   10.2942    2.3840    0.0000 O   0  0  0  0  0  0  0  0  0  0  0  0
    9.2942    4.1160    0.0000 O   0  0  0  0  0  0  0  0  0  0  0  0
    7.1962    1.7500    0.0000 O   0  0  0  0  0  0  0  0  0  0  0  0
    4.5981    3.2500    0.0000 C   0  0  0  0  0  0  0  0  0  0  0  0
    8.9282    2.7500    0.0000 C   0  0  3  0  0  0  0  0  0  0  0  0
    6.3301   -1.7500    0.0000 C   0  0  0  0  0  0  0  0  0  0  0  0
    5.4641    2.7500    0.0000 C   0  0  0  0  0  0  0  0  0  0  0  0
    3.7320    2.7500    0.0000 C   0  0  0  0  0  0  0  0  0  0  0  0
    7.1962   -1.2500    0.0000 C   0  0  0  0  0  0  0  0  0  0  0  0
    6.3301   -2.7500    0.0000 C   0  0  0  0  0  0  0  0  0  0  0  0
    8.9282    1.7500    0.0000 C   0  0  0  0  0  0  0  0  0  0  0  0
    6.3301    3.2500    0.0000 C   0  0  0  0  0  0  0  0  0  0  0  0
    2.8660    3.2500    0.0000 C   0  0  0  0  0  0  0  0  0  0  0  0
    7.1962   -0.2500    0.0000 C   0  0  0  0  0  0  0  0  0  0  0  0
    5.4641   -3.2500    0.0000 C   0  0  0  0  0  0  0  0  0  0  0  0
    8.0622    3.2500    0.0000 C   0  0  0  0  0  0  0  0  0  0  0  0
    8.0622    1.2500    0.0000 C   0  0  0  0  0  0  0  0  0  0  0  0
    2.0000    2.7500    0.0000 C   0  0  0  0  0  0  0  0  0  0  0  0
    5.4641   -4.2500    0.0000 C   0  0  0  0  0  0  0  0  0  0  0  0
    4.9966    3.7250    0.0000 H   0  0  0  0  0  0  0  0  0  0  0  0
    4.1996    3.7250    0.0000 H   0  0  0  0  0  0  0  0  0  0  0  0
    9.4651    2.4400    0.0000 H   0  0  0  0  0  0  0  0  0  0  0  0
    6.1181   -1.1674    0.0000 H   0  0  0  0  0  0  0  0  0  0  0  0
    5.7196   -1.8577    0.0000 H   0  0  0  0  0  0  0  0  0  0  0  0
    5.0656    2.2750    0.0000 H   0  0  0  0  0  0  0  0  0  0  0  0
    5.8626    2.2750    0.0000 H   0  0  0  0  0  0  0  0  0  0  0  0
    3.3335    2.2750    0.0000 H   0  0  0  0  0  0  0  0  0  0  0  0
    4.1306    2.2750    0.0000 H   0  0  0  0  0  0  0  0  0  0  0  0
    7.4082   -1.8326    0.0000 H   0  0  0  0  0  0  0  0  0  0  0  0
    7.8067   -1.1423    0.0000 H   0  0  0  0  0  0  0  0  0  0  0  0
    6.5422   -3.3326    0.0000 H   0  0  0  0  0  0  0  0  0  0  0  0
    6.9407   -2.6423    0.0000 H   0  0  0  0  0  0  0  0  0  0  0  0
    9.1403    1.1674    0.0000 H   0  0  0  0  0  0  0  0  0  0  0  0
    9.5388    1.8577    0.0000 H   0  0  0  0  0  0  0  0  0  0  0  0
    6.7287    3.7250    0.0000 H   0  0  0  0  0  0  0  0  0  0  0  0
    5.9316    3.7250    0.0000 H   0  0  0  0  0  0  0  0  0  0  0  0
    3.2646    3.7250    0.0000 H   0  0  0  0  0  0  0  0  0  0  0  0
    2.4675    3.7250    0.0000 H   0  0  0  0  0  0  0  0  0  0  0  0
    6.9841    0.3326    0.0000 H   0  0  0  0  0  0  0  0  0  0  0  0
    6.5856   -0.3577    0.0000 H   0  0  0  0  0  0  0  0  0  0  0  0
    5.2520   -2.6674    0.0000 H   0  0  0  0  0  0  0  0  0  0  0  0
    4.8535   -3.3577    0.0000 H   0  0  0  0  0  0  0  0  0  0  0  0
    1.6900    3.2869    0.0000 H   0  0  0  0  0  0  0  0  0  0  0  0
    1.4631    2.4400    0.0000 H   0  0  0  0  0  0  0  0  0  0  0  0
    2.3100    2.2131    0.0000 H   0  0  0  0  0  0  0  0  0  0  0  0
    4.8441   -4.2500    0.0000 H   0  0  0  0  0  0  0  0  0  0  0  0
    5.4641   -4.8700    0.0000 H   0  0  0  0  0  0  0  0  0  0  0  0
    6.0841   -4.2500    0.0000 H   0  0  0  0  0  0  0  0  0  0  0  0
  1  5  1  0  0  0  0
  1  7  2  0  0  0  0
  1  8  2  0  0  0  0
  1 11  1  0  0  0  0
  3 18  1  0  0  0  0
  3 22  1  0  0  0  0
  4 20  1  0  0  0  0
  4 23  1  0  0  0  0
  6 22  2  0  0  0  0
  9 23  2  0  0  0  0
 10 13  1  0  0  0  0
 10 14  1  0  0  0  0
 10 26  1  0  0  0  0
 10 27  1  0  0  0  0
 11 17  1  0  0  0  0
 11 22  1  0  0  0  0
 11 28  1  0  0  0  0
 12 15  1  0  0  0  0
 12 16  1  0  0  0  0
 12 29  1  0  0  0  0
 12 30  1  0  0  0  0
 13 18  1  0  0  0  0
 13 31  1  0  0  0  0
 13 32  1  0  0  0  0
 14 19  1  0  0  0  0
 14 33  1  0  0  0  0
 14 34  1  0  0  0  0
 15 20  1  0  0  0  0
 15 35  1  0  0  0  0
 15 36  1  0  0  0  0
 16 21  1  0  0  0  0
 16 37  1  0  0  0  0
 16 38  1  0  0  0  0
 17 23  1  0  0  0  0
 17 39  1  0  0  0  0
 17 40  1  0  0  0  0
 18 41  1  0  0  0  0
 18 42  1  0  0  0  0
 19 24  1  0  0  0  0
 19 43  1  0  0  0  0
 19 44  1  0  0  0  0
 20 45  1  0  0  0  0
 20 46  1  0  0  0  0
 21 25  1  0  0  0  0
 21 47  1  0  0  0  0
 21 48  1  0  0  0  0
 24 49  1  0  0  0  0
 24 50  1  0  0  0  0
 24 51  1  0  0  0  0
 25 52  1  0  0  0  0
 25 53  1  0  0  0  0
 25 54  1  0  0  0  0
M  CHG  2   2   1   5  -1
M  END
> <PUBCHEM_COMPOUND_CID>
516989
> <PUBCHEM_COMPOUND_CANONICALIZED>
1
> <PUBCHEM_CACTVS_COMPLEXITY>
460
> <PUBCHEM_CACTVS_HBOND_ACCEPTOR>
7
> <PUBCHEM_CACTVS_HBOND_DONOR>
0
> <PUBCHEM_CACTVS_ROTATABLE_BOND>
16
> <PUBCHEM_CACTVS_SUBSKEYS>
AAADceB4OCBAAAAAAAAAAAAAAAAAAAAAAAAAAAAAAAAAAAAAAAAAGgQAAAAACACkwAKCCAAABAIIAACQCHBAAAAAAAAAAAEAAAAAABIAAAACAAAEAAAAAAHDQAAAAAAAAAAAAAAAAAAAAAAAAAAAAAAAAA==
> <PUBCHEM_IUPAC_OPENEYE_NAME>
sodium;1,4-dihexoxy-1,4-dioxo-butane-2-sulfonate
> <PUBCHEM_IUPAC_CAS_NAME>
sodium;1,4-dihexoxy-1,4-dioxo-2-butanesulfonate
> <PUBCHEM_IUPAC_NAME_MARKUP>
sodium;1,4-dihexoxy-1,4-dioxobutane-2-sulfonate
> <PUBCHEM_IUPAC_NAME>
sodium;1,4-dihexoxy-1,4-dioxobutane-2-sulfonate
> <PUBCHEM_IUPAC_SYSTEMATIC_NAME>
sodium;1,4-dihexoxy-1,4-bis(oxidanylidene)butane-2-sulfonate
> <PUBCHEM_IUPAC_TRADITIONAL_NAME>
sodium;1,4-dihexoxy-1,4-diketo-butane-2-sulfonate
> <PUBCHEM_IUPAC_INCHI>
InChI=1S/C16H30O7S.Na/c1-3-5-7-9-11-22-15(17)13-14(24(19,20)21)16(18)23-12-10-8-6-4-2;/h14H,3-13H2,1-2H3,(H,19,20,21);/q;+1/p-1
> <PUBCHEM_IUPAC_INCHIKEY>
WVFDILODTFJAPA-UHFFFAOYSA-M
> <PUBCHEM_EXACT_MASS>
388.15316872
> <PUBCHEM_MOLECULAR_FORMULA>
C16H29NaO7S
> <PUBCHEM_MOLECULAR_WEIGHT>
388.5
> <PUBCHEM_OPENEYE_CAN_SMILES>
CCCCCCOC(=O)CC(C(=O)OCCCCCC)S(=O)(=O)[O-].[Na+]
> <PUBCHEM_OPENEYE_ISO_SMILES>
CCCCCCOC(=O)CC(C(=O)OCCCCCC)S(=O)(=O)[O-].[Na+]
> <PUBCHEM_CACTVS_TPSA>
118
> <PUBCHEM_MONOISOTOPIC_WEIGHT>
388.15316872
> <PUBCHEM_TOTAL_CHARGE>
0
> <PUBCHEM_HEAVY_ATOM_COUNT>
25
> <PUBCHEM_ATOM_DEF_STEREO_COUNT>
0
> <PUBCHEM_ATOM_UDEF_STEREO_COUNT>
1
> <PUBCHEM_BOND_DEF_STEREO_COUNT>
0
> <PUBCHEM_BOND_UDEF_STEREO_COUNT>
0
> <PUBCHEM_ISOTOPIC_ATOM_COUNT>
0
> <PUBCHEM_COMPONENT_COUNT>
2
> <PUBCHEM_CACTVS_TAUTO_COUNT>
1
> <PUBCHEM_NONSTANDARDBOND>
2  5  7
> <PUBCHEM_COORDINATE_TYPE>
1
5
255
> <PUBCHEM_BONDANNOTATIONS>
11  17  3
$$$$
