516954
  -OEChem-10302200292D
 39 42  0     1  0  0  0  0  0999 V2000
    4.8714    0.6582    0.0000 N   0  0  0  0  0  0  0  0  0  0  0  0
    6.0125    2.3008    0.0000 N   0  0  0  0  0  0  0  0  0  0  0  0
    4.3009   -0.1631    0.0000 C   0  0  3  0  0  0  0  0  0  0  0  0
    3.3073   -0.1435    0.0000 C   0  0  0  0  0  0  0  0  0  0  0  0
    4.6660   -1.0874    0.0000 C   0  0  0  0  0  0  0  0  0  0  0  0
    4.4455    1.5629    0.0000 C   0  0  0  0  0  0  0  0  0  0  0  0
    5.8680    0.5748    0.0000 C   0  0  0  0  0  0  0  0  0  0  0  0
    3.8000   -1.5874    0.0000 C   0  0  0  0  0  0  0  0  0  0  0  0
    2.9061   -1.0527    0.0000 C   0  0  0  0  0  0  0  0  0  0  0  0
    5.0160    2.3842    0.0000 C   0  0  0  0  0  0  0  0  0  0  0  0
    6.4385    1.3960    0.0000 C   0  0  0  0  0  0  0  0  0  0  0  0
    3.8000   -2.5874    0.0000 C   0  0  0  0  0  0  0  0  0  0  0  0
    5.5321   -1.5874    0.0000 C   0  0  0  0  0  0  0  0  0  0  0  0
    2.0000   -1.5666    0.0000 C   0  0  0  0  0  0  0  0  0  0  0  0
    6.5830    3.1221    0.0000 C   0  0  0  0  0  0  0  0  0  0  0  0
    4.6660   -3.0874    0.0000 C   0  0  0  0  0  0  0  0  0  0  0  0
    5.5321   -2.5874    0.0000 C   0  0  0  0  0  0  0  0  0  0  0  0
    2.9061   -3.1221    0.0000 C   0  0  0  0  0  0  0  0  0  0  0  0
    2.0000   -2.6082    0.0000 C   0  0  0  0  0  0  0  0  0  0  0  0
    4.0190    0.3891    0.0000 H   0  0  0  0  0  0  0  0  0  0  0  0
    3.4010    0.4694    0.0000 H   0  0  0  0  0  0  0  0  0  0  0  0
    2.7121    0.0300    0.0000 H   0  0  0  0  0  0  0  0  0  0  0  0
    4.0054    1.9997    0.0000 H   0  0  0  0  0  0  0  0  0  0  0  0
    3.9389    1.2054    0.0000 H   0  0  0  0  0  0  0  0  0  0  0  0
    5.7097   -0.0247    0.0000 H   0  0  0  0  0  0  0  0  0  0  0  0
    6.4308    0.3148    0.0000 H   0  0  0  0  0  0  0  0  0  0  0  0
    5.1742    2.9837    0.0000 H   0  0  0  0  0  0  0  0  0  0  0  0
    4.4531    2.6441    0.0000 H   0  0  0  0  0  0  0  0  0  0  0  0
    6.8785    0.9593    0.0000 H   0  0  0  0  0  0  0  0  0  0  0  0
    6.9450    1.7536    0.0000 H   0  0  0  0  0  0  0  0  0  0  0  0
    6.0690   -1.2774    0.0000 H   0  0  0  0  0  0  0  0  0  0  0  0
    1.4643   -1.2545    0.0000 H   0  0  0  0  0  0  0  0  0  0  0  0
    7.0922    2.7683    0.0000 H   0  0  0  0  0  0  0  0  0  0  0  0
    6.9367    3.6312    0.0000 H   0  0  0  0  0  0  0  0  0  0  0  0
    6.0738    3.4758    0.0000 H   0  0  0  0  0  0  0  0  0  0  0  0
    4.6660   -3.7074    0.0000 H   0  0  0  0  0  0  0  0  0  0  0  0
    6.0690   -2.8974    0.0000 H   0  0  0  0  0  0  0  0  0  0  0  0
    2.9132   -3.7420    0.0000 H   0  0  0  0  0  0  0  0  0  0  0  0
    1.4643   -2.9203    0.0000 H   0  0  0  0  0  0  0  0  0  0  0  0
  1  3  1  0  0  0  0
  1  6  1  0  0  0  0
  1  7  1  0  0  0  0
  2 10  1  0  0  0  0
  2 11  1  0  0  0  0
  2 15  1  0  0  0  0
  3  4  1  0  0  0  0
  3  5  1  0  0  0  0
  3 20  1  0  0  0  0
  4  9  1  0  0  0  0
  4 21  1  0  0  0  0
  4 22  1  0  0  0  0
  5  8  1  0  0  0  0
  5 13  2  0  0  0  0
  6 10  1  0  0  0  0
  6 23  1  0  0  0  0
  6 24  1  0  0  0  0
  7 11  1  0  0  0  0
  7 25  1  0  0  0  0
  7 26  1  0  0  0  0
  8  9  1  0  0  0  0
  8 12  2  0  0  0  0
  9 14  2  0  0  0  0
 10 27  1  0  0  0  0
 10 28  1  0  0  0  0
 11 29  1  0  0  0  0
 11 30  1  0  0  0  0
 12 16  1  0  0  0  0
 12 18  1  0  0  0  0
 13 17  1  0  0  0  0
 13 31  1  0  0  0  0
 14 19  1  0  0  0  0
 14 32  1  0  0  0  0
 15 33  1  0  0  0  0
 15 34  1  0  0  0  0
 15 35  1  0  0  0  0
 16 17  2  0  0  0  0
 16 36  1  0  0  0  0
 17 37  1  0  0  0  0
 18 19  2  0  0  0  0
 18 38  1  0  0  0  0
 19 39  1  0  0  0  0
M  END
> <PUBCHEM_COMPOUND_CID>
516954
> <PUBCHEM_COMPOUND_CANONICALIZED>
1
> <PUBCHEM_CACTVS_COMPLEXITY>
321
> <PUBCHEM_CACTVS_HBOND_ACCEPTOR>
2
> <PUBCHEM_CACTVS_HBOND_DONOR>
0
> <PUBCHEM_CACTVS_ROTATABLE_BOND>
1
> <PUBCHEM_CACTVS_SUBSKEYS>
AAADceB7AAAAAAAAAAAAAAAAAAAAAYAAAAA8YIAAAAAAAGDBUAAAHAAAAAAADCjBGAQyAMMAAACAAiBCAACCAAAgAAAIiAAIBIgIYCKAkRGUIAhggACIiAcQgMAOgAACAAAQAAAAAAQAACAAASAACQAAAA==
> <PUBCHEM_IUPAC_OPENEYE_NAME>
1-(1,2-dihydroacenaphthylen-1-yl)-4-methyl-piperazine
> <PUBCHEM_IUPAC_CAS_NAME>
1-(1,2-dihydroacenaphthylen-1-yl)-4-methylpiperazine
> <PUBCHEM_IUPAC_NAME_MARKUP>
1-(1,2-dihydroacenaphthylen-1-yl)-4-methylpiperazine
> <PUBCHEM_IUPAC_NAME>
1-(1,2-dihydroacenaphthylen-1-yl)-4-methylpiperazine
> <PUBCHEM_IUPAC_SYSTEMATIC_NAME>
1-(1,2-dihydroacenaphthylen-1-yl)-4-methyl-piperazine
> <PUBCHEM_IUPAC_TRADITIONAL_NAME>
1-acenaphthen-1-yl-4-methyl-piperazine
> <PUBCHEM_IUPAC_INCHI>
InChI=1S/C17H20N2/c1-18-8-10-19(11-9-18)16-12-14-6-2-4-13-5-3-7-15(16)17(13)14/h2-7,16H,8-12H2,1H3
> <PUBCHEM_IUPAC_INCHIKEY>
AATZGAXDYNGPCE-UHFFFAOYSA-N
> <PUBCHEM_XLOGP3_AA>
2.9
> <PUBCHEM_EXACT_MASS>
252.162648646
> <PUBCHEM_MOLECULAR_FORMULA>
C17H20N2
> <PUBCHEM_MOLECULAR_WEIGHT>
252.35
> <PUBCHEM_OPENEYE_CAN_SMILES>
CN1CCN(CC1)C2CC3=CC=CC4=C3C2=CC=C4
> <PUBCHEM_OPENEYE_ISO_SMILES>
CN1CCN(CC1)C2CC3=CC=CC4=C3C2=CC=C4
> <PUBCHEM_CACTVS_TPSA>
6.5
> <PUBCHEM_MONOISOTOPIC_WEIGHT>
252.162648646
> <PUBCHEM_TOTAL_CHARGE>
0
> <PUBCHEM_HEAVY_ATOM_COUNT>
19
> <PUBCHEM_ATOM_DEF_STEREO_COUNT>
0
> <PUBCHEM_ATOM_UDEF_STEREO_COUNT>
1
> <PUBCHEM_BOND_DEF_STEREO_COUNT>
0
> <PUBCHEM_BOND_UDEF_STEREO_COUNT>
0
> <PUBCHEM_ISOTOPIC_ATOM_COUNT>
0
> <PUBCHEM_COMPONENT_COUNT>
1
> <PUBCHEM_CACTVS_TAUTO_COUNT>
-1
> <PUBCHEM_COORDINATE_TYPE>
1
5
255
> <PUBCHEM_BONDANNOTATIONS>
3  1  3
12  16  8
12  18  8
13  17  8
14  19  8
16  17  8
18  19  8
5  13  8
5  8  8
8  12  8
8  9  8
9  14  8
$$$$
