517080
  -OEChem-10302200292D
 55 57  0     1  0  0  0  0  0999 V2000
    4.5981   -1.7500    0.0000 O   0  0  0  0  0  0  0  0  0  0  0  0
    6.3301   -1.7500    0.0000 O   0  0  0  0  0  0  0  0  0  0  0  0
    5.4641   -0.2500    0.0000 N   0  0  0  0  0  0  0  0  0  0  0  0
    8.9282    1.7500    0.0000 N   0  0  0  0  0  0  0  0  0  0  0  0
    8.9282    2.7500    0.0000 N   0  0  0  0  0  0  0  0  0  0  0  0
    3.7320   -3.2500    0.0000 C   0  0  3  0  0  0  0  0  0  0  0  0
    4.5981   -2.7500    0.0000 C   0  0  3  0  0  0  0  0  0  0  0  0
    2.8660   -2.7500    0.0000 C   0  0  0  0  0  0  0  0  0  0  0  0
    3.7320   -4.2500    0.0000 C   0  0  0  0  0  0  0  0  0  0  0  0
    5.4641   -3.2500    0.0000 C   0  0  0  0  0  0  0  0  0  0  0  0
    5.4641   -4.2500    0.0000 C   0  0  0  0  0  0  0  0  0  0  0  0
    4.5981   -4.7500    0.0000 C   0  0  0  0  0  0  0  0  0  0  0  0
    2.0000   -3.2500    0.0000 C   0  0  0  0  0  0  0  0  0  0  0  0
    2.8660   -1.7500    0.0000 C   0  0  0  0  0  0  0  0  0  0  0  0
    6.3301   -4.7500    0.0000 C   0  0  0  0  0  0  0  0  0  0  0  0
    5.4641   -1.2500    0.0000 C   0  0  0  0  0  0  0  0  0  0  0  0
    6.3301    0.2500    0.0000 C   0  0  0  0  0  0  0  0  0  0  0  0
    6.3301    1.2500    0.0000 C   0  0  0  0  0  0  0  0  0  0  0  0
    7.1962   -0.2500    0.0000 C   0  0  0  0  0  0  0  0  0  0  0  0
    7.1962    1.7500    0.0000 C   0  0  0  0  0  0  0  0  0  0  0  0
    8.0622    0.2500    0.0000 C   0  0  0  0  0  0  0  0  0  0  0  0
    8.0622    1.2500    0.0000 C   0  0  0  0  0  0  0  0  0  0  0  0
    9.7942    3.2500    0.0000 C   0  0  0  0  0  0  0  0  0  0  0  0
   10.6603    2.7500    0.0000 C   0  0  0  0  0  0  0  0  0  0  0  0
    9.7942    4.2500    0.0000 C   0  0  0  0  0  0  0  0  0  0  0  0
   11.5263    3.2500    0.0000 C   0  0  0  0  0  0  0  0  0  0  0  0
   10.6603    4.7500    0.0000 C   0  0  0  0  0  0  0  0  0  0  0  0
   11.5263    4.2500    0.0000 C   0  0  0  0  0  0  0  0  0  0  0  0
    4.2690   -3.5600    0.0000 H   0  0  0  0  0  0  0  0  0  0  0  0
    5.1350   -2.4400    0.0000 H   0  0  0  0  0  0  0  0  0  0  0  0
    2.8660   -3.3700    0.0000 H   0  0  0  0  0  0  0  0  0  0  0  0
    3.1215   -4.1423    0.0000 H   0  0  0  0  0  0  0  0  0  0  0  0
    3.5200   -4.8326    0.0000 H   0  0  0  0  0  0  0  0  0  0  0  0
    6.0747   -3.3577    0.0000 H   0  0  0  0  0  0  0  0  0  0  0  0
    5.6762   -2.6674    0.0000 H   0  0  0  0  0  0  0  0  0  0  0  0
    4.5981   -5.3700    0.0000 H   0  0  0  0  0  0  0  0  0  0  0  0
    1.6900   -2.7131    0.0000 H   0  0  0  0  0  0  0  0  0  0  0  0
    1.4631   -3.5600    0.0000 H   0  0  0  0  0  0  0  0  0  0  0  0
    2.3100   -3.7869    0.0000 H   0  0  0  0  0  0  0  0  0  0  0  0
    3.4860   -1.7500    0.0000 H   0  0  0  0  0  0  0  0  0  0  0  0
    2.8660   -1.1300    0.0000 H   0  0  0  0  0  0  0  0  0  0  0  0
    2.2460   -1.7500    0.0000 H   0  0  0  0  0  0  0  0  0  0  0  0
    6.0201   -5.2869    0.0000 H   0  0  0  0  0  0  0  0  0  0  0  0
    6.8671   -5.0600    0.0000 H   0  0  0  0  0  0  0  0  0  0  0  0
    6.6401   -4.2131    0.0000 H   0  0  0  0  0  0  0  0  0  0  0  0
    4.9272    0.0600    0.0000 H   0  0  0  0  0  0  0  0  0  0  0  0
    5.7932    1.5600    0.0000 H   0  0  0  0  0  0  0  0  0  0  0  0
    7.1962   -0.8700    0.0000 H   0  0  0  0  0  0  0  0  0  0  0  0
    7.1962    2.3700    0.0000 H   0  0  0  0  0  0  0  0  0  0  0  0
    8.5991   -0.0600    0.0000 H   0  0  0  0  0  0  0  0  0  0  0  0
   10.6603    2.1300    0.0000 H   0  0  0  0  0  0  0  0  0  0  0  0
    9.2573    4.5600    0.0000 H   0  0  0  0  0  0  0  0  0  0  0  0
   12.0632    2.9400    0.0000 H   0  0  0  0  0  0  0  0  0  0  0  0
   10.6603    5.3700    0.0000 H   0  0  0  0  0  0  0  0  0  0  0  0
   12.0632    4.5600    0.0000 H   0  0  0  0  0  0  0  0  0  0  0  0
  1  7  1  0  0  0  0
  1 16  1  0  0  0  0
  2 16  2  0  0  0  0
  3 16  1  0  0  0  0
  3 17  1  0  0  0  0
  3 46  1  0  0  0  0
  4  5  2  0  0  0  0
  4 22  1  0  0  0  0
  5 23  1  0  0  0  0
  6  7  1  0  0  0  0
  6  8  1  0  0  0  0
  6  9  1  0  0  0  0
  6 29  1  0  0  0  0
  7 10  1  0  0  0  0
  7 30  1  0  0  0  0
  8 13  1  0  0  0  0
  8 14  1  0  0  0  0
  8 31  1  0  0  0  0
  9 12  1  0  0  0  0
  9 32  1  0  0  0  0
  9 33  1  0  0  0  0
 10 11  1  0  0  0  0
 10 34  1  0  0  0  0
 10 35  1  0  0  0  0
 11 12  2  0  0  0  0
 11 15  1  0  0  0  0
 12 36  1  0  0  0  0
 13 37  1  0  0  0  0
 13 38  1  0  0  0  0
 13 39  1  0  0  0  0
 14 40  1  0  0  0  0
 14 41  1  0  0  0  0
 14 42  1  0  0  0  0
 15 43  1  0  0  0  0
 15 44  1  0  0  0  0
 15 45  1  0  0  0  0
 17 18  2  0  0  0  0
 17 19  1  0  0  0  0
 18 20  1  0  0  0  0
 18 47  1  0  0  0  0
 19 21  2  0  0  0  0
 19 48  1  0  0  0  0
 20 22  2  0  0  0  0
 20 49  1  0  0  0  0
 21 22  1  0  0  0  0
 21 50  1  0  0  0  0
 23 24  2  0  0  0  0
 23 25  1  0  0  0  0
 24 26  1  0  0  0  0
 24 51  1  0  0  0  0
 25 27  2  0  0  0  0
 25 52  1  0  0  0  0
 26 28  2  0  0  0  0
 26 53  1  0  0  0  0
 27 28  1  0  0  0  0
 27 54  1  0  0  0  0
 28 55  1  0  0  0  0
M  END
> <PUBCHEM_COMPOUND_CID>
517080
> <PUBCHEM_COMPOUND_CANONICALIZED>
1
> <PUBCHEM_CACTVS_COMPLEXITY>
558
> <PUBCHEM_CACTVS_HBOND_ACCEPTOR>
4
> <PUBCHEM_CACTVS_HBOND_DONOR>
1
> <PUBCHEM_CACTVS_ROTATABLE_BOND>
6
> <PUBCHEM_CACTVS_SUBSKEYS>
AAADceB7MAAAAAAAAAAAAAAAAAAAAAAAAAAwYIAAAAAAAAABQAAAHgAYAAAADRyhkAIyyILABACKAiRCWACCAAAhAgAIiAAAZIkIICLAkZGMIAhk1ABIyAcQgEAOgACAAAAAAAAAAQAAAAAAAAAAAAAAAA==
> <PUBCHEM_IUPAC_OPENEYE_NAME>
(6-isopropyl-3-methyl-cyclohex-3-en-1-yl) N-(4-phenylazophenyl)carbamate
> <PUBCHEM_IUPAC_CAS_NAME>
N-(4-phenyldiazenylphenyl)carbamic acid (3-methyl-6-propan-2-yl-1-cyclohex-3-enyl) ester
> <PUBCHEM_IUPAC_NAME_MARKUP>
(3-methyl-6-propan-2-ylcyclohex-3-en-1-yl) <I>N</I>-(4-phenyldiazenylphenyl)carbamate
> <PUBCHEM_IUPAC_NAME>
(3-methyl-6-propan-2-ylcyclohex-3-en-1-yl) N-(4-phenyldiazenylphenyl)carbamate
> <PUBCHEM_IUPAC_SYSTEMATIC_NAME>
(3-methyl-6-propan-2-yl-cyclohex-3-en-1-yl) N-(4-phenyldiazenylphenyl)carbamate
> <PUBCHEM_IUPAC_TRADITIONAL_NAME>
N-(4-phenylazophenyl)carbamic acid (6-isopropyl-3-methyl-cyclohex-3-en-1-yl) ester
> <PUBCHEM_IUPAC_INCHI>
InChI=1S/C23H27N3O2/c1-16(2)21-14-9-17(3)15-22(21)28-23(27)24-18-10-12-20(13-11-18)26-25-19-7-5-4-6-8-19/h4-13,16,21-22H,14-15H2,1-3H3,(H,24,27)
> <PUBCHEM_IUPAC_INCHIKEY>
KNGBJNQXPCNLFK-UHFFFAOYSA-N
> <PUBCHEM_XLOGP3_AA>
6
> <PUBCHEM_EXACT_MASS>
377.21032711
> <PUBCHEM_MOLECULAR_FORMULA>
C23H27N3O2
> <PUBCHEM_MOLECULAR_WEIGHT>
377.5
> <PUBCHEM_OPENEYE_CAN_SMILES>
CC1=CCC(C(C1)OC(=O)NC2=CC=C(C=C2)N=NC3=CC=CC=C3)C(C)C
> <PUBCHEM_OPENEYE_ISO_SMILES>
CC1=CCC(C(C1)OC(=O)NC2=CC=C(C=C2)N=NC3=CC=CC=C3)C(C)C
> <PUBCHEM_CACTVS_TPSA>
63
> <PUBCHEM_MONOISOTOPIC_WEIGHT>
377.21032711
> <PUBCHEM_TOTAL_CHARGE>
0
> <PUBCHEM_HEAVY_ATOM_COUNT>
28
> <PUBCHEM_ATOM_DEF_STEREO_COUNT>
0
> <PUBCHEM_ATOM_UDEF_STEREO_COUNT>
2
> <PUBCHEM_BOND_DEF_STEREO_COUNT>
0
> <PUBCHEM_BOND_UDEF_STEREO_COUNT>
0
> <PUBCHEM_ISOTOPIC_ATOM_COUNT>
0
> <PUBCHEM_COMPONENT_COUNT>
1
> <PUBCHEM_CACTVS_TAUTO_COUNT>
-1
> <PUBCHEM_COORDINATE_TYPE>
1
5
255
> <PUBCHEM_BONDANNOTATIONS>
7  1  3
17  18  8
17  19  8
18  20  8
19  21  8
20  22  8
21  22  8
23  24  8
23  25  8
24  26  8
25  27  8
26  28  8
27  28  8
6  8  3
$$$$
