517056
  -OEChem-10302200292D
 25 23  0     1  0  0  0  0  0999 V2000
    2.0000   -0.2500    0.0000 Na  0  3  0  0  0  0  0  0  0  0  0  0
    6.3301    1.2500    0.0000 O   0  0  0  0  0  0  0  0  0  0  0  0
    5.4641   -1.2500    0.0000 O   0  0  0  0  0  0  0  0  0  0  0  0
    7.1962   -1.2500    0.0000 O   0  0  0  0  0  0  0  0  0  0  0  0
    4.5981    1.2500    0.0000 O   0  0  0  0  0  0  0  0  0  0  0  0
    8.9282   -0.2500    0.0000 O   0  0  0  0  0  0  0  0  0  0  0  0
    2.8660    0.2500    0.0000 O   0  5  0  0  0  0  0  0  0  0  0  0
    3.7320   -1.2500    0.0000 O   0  0  0  0  0  0  0  0  0  0  0  0
    6.3301    0.2500    0.0000 C   0  0  3  0  0  0  0  0  0  0  0  0
    5.4641   -0.2500    0.0000 C   0  0  3  0  0  0  0  0  0  0  0  0
    7.1962   -0.2500    0.0000 C   0  0  3  0  0  0  0  0  0  0  0  0
    4.5981    0.2500    0.0000 C   0  0  3  0  0  0  0  0  0  0  0  0
    8.0622    0.2500    0.0000 C   0  0  0  0  0  0  0  0  0  0  0  0
    3.7320   -0.2500    0.0000 C   0  0  0  0  0  0  0  0  0  0  0  0
    7.0662    0.6750    0.0000 H   0  0  0  0  0  0  0  0  0  0  0  0
    6.2002   -0.6750    0.0000 H   0  0  0  0  0  0  0  0  0  0  0  0
    6.4600   -0.6750    0.0000 H   0  0  0  0  0  0  0  0  0  0  0  0
    5.3342    0.6750    0.0000 H   0  0  0  0  0  0  0  0  0  0  0  0
    8.4607    0.7249    0.0000 H   0  0  0  0  0  0  0  0  0  0  0  0
    7.6636    0.7249    0.0000 H   0  0  0  0  0  0  0  0  0  0  0  0
    6.8671    1.5600    0.0000 H   0  0  0  0  0  0  0  0  0  0  0  0
    4.9272   -1.5600    0.0000 H   0  0  0  0  0  0  0  0  0  0  0  0
    7.7331   -1.5600    0.0000 H   0  0  0  0  0  0  0  0  0  0  0  0
    4.0611    1.5600    0.0000 H   0  0  0  0  0  0  0  0  0  0  0  0
    9.4651    0.0600    0.0000 H   0  0  0  0  0  0  0  0  0  0  0  0
  2  9  1  0  0  0  0
  2 21  1  0  0  0  0
  3 10  1  0  0  0  0
  3 22  1  0  0  0  0
  4 11  1  0  0  0  0
  4 23  1  0  0  0  0
  5 12  1  0  0  0  0
  5 24  1  0  0  0  0
  6 13  1  0  0  0  0
  6 25  1  0  0  0  0
  7 14  1  0  0  0  0
  8 14  2  0  0  0  0
  9 10  1  0  0  0  0
  9 11  1  0  0  0  0
  9 15  1  0  0  0  0
 10 12  1  0  0  0  0
 10 16  1  0  0  0  0
 11 13  1  0  0  0  0
 11 17  1  0  0  0  0
 12 14  1  0  0  0  0
 12 18  1  0  0  0  0
 13 19  1  0  0  0  0
 13 20  1  0  0  0  0
M  CHG  2   1   1   7  -1
M  END
> <PUBCHEM_COMPOUND_CID>
517056
> <PUBCHEM_COMPOUND_CANONICALIZED>
1
> <PUBCHEM_CACTVS_COMPLEXITY>
176
> <PUBCHEM_CACTVS_HBOND_ACCEPTOR>
7
> <PUBCHEM_CACTVS_HBOND_DONOR>
5
> <PUBCHEM_CACTVS_ROTATABLE_BOND>
5
> <PUBCHEM_CACTVS_SUBSKEYS>
AAADccBgOCAAAAAAAAAAAAAAAAAAAAAAAAAAAAAAAAAAAAAAAAAAGgAACAAACBSggAIACAAAAgAIAACQCAIAAAAAAAAAAAFAAAABEBYAAAAAQAAFIAABAAHKbARAAAAAAAAAAAAAAAAAAAAAAAAAAAAAAA==
> <PUBCHEM_IUPAC_OPENEYE_NAME>
sodium;2,3,4,5,6-pentahydroxyhexanoate
> <PUBCHEM_IUPAC_CAS_NAME>
sodium;2,3,4,5,6-pentahydroxyhexanoate
> <PUBCHEM_IUPAC_NAME_MARKUP>
sodium;2,3,4,5,6-pentahydroxyhexanoate
> <PUBCHEM_IUPAC_NAME>
sodium;2,3,4,5,6-pentahydroxyhexanoate
> <PUBCHEM_IUPAC_SYSTEMATIC_NAME>
sodium;2,3,4,5,6-pentakis(oxidanyl)hexanoate
> <PUBCHEM_IUPAC_TRADITIONAL_NAME>
sodium;2,3,4,5,6-pentahydroxyhexanoate
> <PUBCHEM_IUPAC_INCHI>
InChI=1S/C6H12O7.Na/c7-1-2(8)3(9)4(10)5(11)6(12)13;/h2-5,7-11H,1H2,(H,12,13);/q;+1/p-1
> <PUBCHEM_IUPAC_INCHIKEY>
UPMFZISCCZSDND-UHFFFAOYSA-M
> <PUBCHEM_EXACT_MASS>
218.04024697
> <PUBCHEM_MOLECULAR_FORMULA>
C6H11NaO7
> <PUBCHEM_MOLECULAR_WEIGHT>
218.14
> <PUBCHEM_OPENEYE_CAN_SMILES>
C(C(C(C(C(C(=O)[O-])O)O)O)O)O.[Na+]
> <PUBCHEM_OPENEYE_ISO_SMILES>
C(C(C(C(C(C(=O)[O-])O)O)O)O)O.[Na+]
> <PUBCHEM_CACTVS_TPSA>
141
> <PUBCHEM_MONOISOTOPIC_WEIGHT>
218.04024697
> <PUBCHEM_TOTAL_CHARGE>
0
> <PUBCHEM_HEAVY_ATOM_COUNT>
14
> <PUBCHEM_ATOM_DEF_STEREO_COUNT>
0
> <PUBCHEM_ATOM_UDEF_STEREO_COUNT>
4
> <PUBCHEM_BOND_DEF_STEREO_COUNT>
0
> <PUBCHEM_BOND_UDEF_STEREO_COUNT>
0
> <PUBCHEM_ISOTOPIC_ATOM_COUNT>
0
> <PUBCHEM_COMPONENT_COUNT>
2
> <PUBCHEM_CACTVS_TAUTO_COUNT>
-1
> <PUBCHEM_NONSTANDARDBOND>
1  7  7
> <PUBCHEM_COORDINATE_TYPE>
1
5
255
> <PUBCHEM_BONDANNOTATIONS>
10  16  3
11  17  3
12  18  3
9  15  3
$$$$
