517078
  -OEChem-10302200292D
 50 51  0     1  0  0  0  0  0999 V2000
    4.5981    2.2500    0.0000 O   0  0  0  0  0  0  0  0  0  0  0  0
    5.4641    0.7500    0.0000 O   0  0  0  0  0  0  0  0  0  0  0  0
    3.7320    0.7500    0.0000 N   0  0  0  0  0  0  0  0  0  0  0  0
    3.7320   -3.2500    0.0000 N   0  0  0  0  0  0  0  0  0  0  0  0
    2.8660   -3.7500    0.0000 N   0  0  0  0  0  0  0  0  0  0  0  0
    6.3301    4.2500    0.0000 C   0  0  3  0  0  0  0  0  0  0  0  0
    6.3301    5.2500    0.0000 C   0  0  0  0  0  0  0  0  0  0  0  0
    5.4641    3.7500    0.0000 C   0  0  0  0  0  0  0  0  0  0  0  0
    7.1962    5.7500    0.0000 C   0  0  0  0  0  0  0  0  0  0  0  0
    7.1962    3.7500    0.0000 C   0  0  0  0  0  0  0  0  0  0  0  0
    5.4641    2.7500    0.0000 C   0  0  0  0  0  0  0  0  0  0  0  0
    7.1962    6.7500    0.0000 C   0  0  0  0  0  0  0  0  0  0  0  0
    4.5981    1.2500    0.0000 C   0  0  0  0  0  0  0  0  0  0  0  0
    3.7320   -0.2500    0.0000 C   0  0  0  0  0  0  0  0  0  0  0  0
    2.8660   -0.7500    0.0000 C   0  0  0  0  0  0  0  0  0  0  0  0
    4.5981   -0.7500    0.0000 C   0  0  0  0  0  0  0  0  0  0  0  0
    2.8660   -1.7500    0.0000 C   0  0  0  0  0  0  0  0  0  0  0  0
    4.5981   -1.7500    0.0000 C   0  0  0  0  0  0  0  0  0  0  0  0
    3.7320   -2.2500    0.0000 C   0  0  0  0  0  0  0  0  0  0  0  0
    2.8660   -4.7500    0.0000 C   0  0  0  0  0  0  0  0  0  0  0  0
    3.7320   -5.2500    0.0000 C   0  0  0  0  0  0  0  0  0  0  0  0
    2.0000   -5.2500    0.0000 C   0  0  0  0  0  0  0  0  0  0  0  0
    3.7320   -6.2500    0.0000 C   0  0  0  0  0  0  0  0  0  0  0  0
    2.0000   -6.2500    0.0000 C   0  0  0  0  0  0  0  0  0  0  0  0
    2.8660   -6.7500    0.0000 C   0  0  0  0  0  0  0  0  0  0  0  0
    6.8671    4.5600    0.0000 H   0  0  0  0  0  0  0  0  0  0  0  0
    6.1181    5.8326    0.0000 H   0  0  0  0  0  0  0  0  0  0  0  0
    5.7196    5.1423    0.0000 H   0  0  0  0  0  0  0  0  0  0  0  0
    5.2520    4.3326    0.0000 H   0  0  0  0  0  0  0  0  0  0  0  0
    4.8535    3.6423    0.0000 H   0  0  0  0  0  0  0  0  0  0  0  0
    7.4082    5.1674    0.0000 H   0  0  0  0  0  0  0  0  0  0  0  0
    7.8067    5.8577    0.0000 H   0  0  0  0  0  0  0  0  0  0  0  0
    6.8862    3.2131    0.0000 H   0  0  0  0  0  0  0  0  0  0  0  0
    7.7331    3.4400    0.0000 H   0  0  0  0  0  0  0  0  0  0  0  0
    7.5062    4.2869    0.0000 H   0  0  0  0  0  0  0  0  0  0  0  0
    5.6762    2.1674    0.0000 H   0  0  0  0  0  0  0  0  0  0  0  0
    6.0747    2.8577    0.0000 H   0  0  0  0  0  0  0  0  0  0  0  0
    7.8162    6.7500    0.0000 H   0  0  0  0  0  0  0  0  0  0  0  0
    7.1962    7.3700    0.0000 H   0  0  0  0  0  0  0  0  0  0  0  0
    6.5762    6.7500    0.0000 H   0  0  0  0  0  0  0  0  0  0  0  0
    3.1951    1.0600    0.0000 H   0  0  0  0  0  0  0  0  0  0  0  0
    2.3291   -0.4400    0.0000 H   0  0  0  0  0  0  0  0  0  0  0  0
    5.1350   -0.4400    0.0000 H   0  0  0  0  0  0  0  0  0  0  0  0
    2.3291   -2.0600    0.0000 H   0  0  0  0  0  0  0  0  0  0  0  0
    5.1350   -2.0600    0.0000 H   0  0  0  0  0  0  0  0  0  0  0  0
    4.2690   -4.9400    0.0000 H   0  0  0  0  0  0  0  0  0  0  0  0
    1.4631   -4.9400    0.0000 H   0  0  0  0  0  0  0  0  0  0  0  0
    4.2690   -6.5600    0.0000 H   0  0  0  0  0  0  0  0  0  0  0  0
    1.4631   -6.5600    0.0000 H   0  0  0  0  0  0  0  0  0  0  0  0
    2.8660   -7.3700    0.0000 H   0  0  0  0  0  0  0  0  0  0  0  0
  1 11  1  0  0  0  0
  1 13  1  0  0  0  0
  2 13  2  0  0  0  0
  3 13  1  0  0  0  0
  3 14  1  0  0  0  0
  3 41  1  0  0  0  0
  4  5  2  0  0  0  0
  4 19  1  0  0  0  0
  5 20  1  0  0  0  0
  6  7  1  0  0  0  0
  6  8  1  0  0  0  0
  6 10  1  0  0  0  0
  6 26  1  0  0  0  0
  7  9  1  0  0  0  0
  7 27  1  0  0  0  0
  7 28  1  0  0  0  0
  8 11  1  0  0  0  0
  8 29  1  0  0  0  0
  8 30  1  0  0  0  0
  9 12  1  0  0  0  0
  9 31  1  0  0  0  0
  9 32  1  0  0  0  0
 10 33  1  0  0  0  0
 10 34  1  0  0  0  0
 10 35  1  0  0  0  0
 11 36  1  0  0  0  0
 11 37  1  0  0  0  0
 12 38  1  0  0  0  0
 12 39  1  0  0  0  0
 12 40  1  0  0  0  0
 14 15  2  0  0  0  0
 14 16  1  0  0  0  0
 15 17  1  0  0  0  0
 15 42  1  0  0  0  0
 16 18  2  0  0  0  0
 16 43  1  0  0  0  0
 17 19  2  0  0  0  0
 17 44  1  0  0  0  0
 18 19  1  0  0  0  0
 18 45  1  0  0  0  0
 20 21  2  0  0  0  0
 20 22  1  0  0  0  0
 21 23  1  0  0  0  0
 21 46  1  0  0  0  0
 22 24  2  0  0  0  0
 22 47  1  0  0  0  0
 23 25  2  0  0  0  0
 23 48  1  0  0  0  0
 24 25  1  0  0  0  0
 24 49  1  0  0  0  0
 25 50  1  0  0  0  0
M  END
> <PUBCHEM_COMPOUND_CID>
517078
> <PUBCHEM_COMPOUND_CANONICALIZED>
1
> <PUBCHEM_CACTVS_COMPLEXITY>
400
> <PUBCHEM_CACTVS_HBOND_ACCEPTOR>
4
> <PUBCHEM_CACTVS_HBOND_DONOR>
1
> <PUBCHEM_CACTVS_ROTATABLE_BOND>
9
> <PUBCHEM_CACTVS_SUBSKEYS>
AAADceB7MAAAAAAAAAAAAAAAAAAAAAAAAAAwYAAAAAAAAAABQAAAHgAYAAAADQihkAIyyILABACKACRCWACCAAAhAgAIiAAAZIkIICLAkZGMIAhklABIyAeQQAAOAACAAAAAAAAAAQAAAAAAAAAAAAAAAA==
> <PUBCHEM_IUPAC_OPENEYE_NAME>
3-methylhexyl N-(4-phenylazophenyl)carbamate
> <PUBCHEM_IUPAC_CAS_NAME>
N-(4-phenyldiazenylphenyl)carbamic acid 3-methylhexyl ester
> <PUBCHEM_IUPAC_NAME_MARKUP>
3-methylhexyl <I>N</I>-(4-phenyldiazenylphenyl)carbamate
> <PUBCHEM_IUPAC_NAME>
3-methylhexyl N-(4-phenyldiazenylphenyl)carbamate
> <PUBCHEM_IUPAC_SYSTEMATIC_NAME>
3-methylhexyl N-(4-phenyldiazenylphenyl)carbamate
> <PUBCHEM_IUPAC_TRADITIONAL_NAME>
N-(4-phenylazophenyl)carbamic acid 3-methylhexyl ester
> <PUBCHEM_IUPAC_INCHI>
InChI=1S/C20H25N3O2/c1-3-7-16(2)14-15-25-20(24)21-17-10-12-19(13-11-17)23-22-18-8-5-4-6-9-18/h4-6,8-13,16H,3,7,14-15H2,1-2H3,(H,21,24)
> <PUBCHEM_IUPAC_INCHIKEY>
XKTPEHCVTZLIQB-UHFFFAOYSA-N
> <PUBCHEM_XLOGP3_AA>
6
> <PUBCHEM_EXACT_MASS>
339.19467705
> <PUBCHEM_MOLECULAR_FORMULA>
C20H25N3O2
> <PUBCHEM_MOLECULAR_WEIGHT>
339.4
> <PUBCHEM_OPENEYE_CAN_SMILES>
CCCC(C)CCOC(=O)NC1=CC=C(C=C1)N=NC2=CC=CC=C2
> <PUBCHEM_OPENEYE_ISO_SMILES>
CCCC(C)CCOC(=O)NC1=CC=C(C=C1)N=NC2=CC=CC=C2
> <PUBCHEM_CACTVS_TPSA>
63
> <PUBCHEM_MONOISOTOPIC_WEIGHT>
339.19467705
> <PUBCHEM_TOTAL_CHARGE>
0
> <PUBCHEM_HEAVY_ATOM_COUNT>
25
> <PUBCHEM_ATOM_DEF_STEREO_COUNT>
0
> <PUBCHEM_ATOM_UDEF_STEREO_COUNT>
1
> <PUBCHEM_BOND_DEF_STEREO_COUNT>
0
> <PUBCHEM_BOND_UDEF_STEREO_COUNT>
0
> <PUBCHEM_ISOTOPIC_ATOM_COUNT>
0
> <PUBCHEM_COMPONENT_COUNT>
1
> <PUBCHEM_CACTVS_TAUTO_COUNT>
-1
> <PUBCHEM_COORDINATE_TYPE>
1
5
255
> <PUBCHEM_BONDANNOTATIONS>
14  15  8
14  16  8
15  17  8
16  18  8
17  19  8
18  19  8
20  21  8
20  22  8
21  23  8
22  24  8
23  25  8
24  25  8
6  10  3
$$$$
