517015
  -OEChem-10302200292D
 26 24  0     1  0  0  0  0  0999 V2000
    5.7456    2.6550    0.0000 Cl  0  0  0  0  0  0  0  0  0  0  0  0
    3.1350    4.3100    0.0000 O   0  5  0  0  0  0  0  0  0  0  0  0
    2.2690    5.8100    0.0000 O   0  0  0  0  0  0  0  0  0  0  0  0
    0.5369    4.8100    0.0000 N   0  3  0  0  0  0  0  0  0  0  0  0
    3.1350    0.3100    0.0000 N   0  0  0  0  0  0  0  0  0  0  0  0
    1.4030    3.3100    0.0000 C   0  0  0  0  0  0  0  0  0  0  0  0
    2.2690    2.8100    0.0000 C   0  0  0  0  0  0  0  0  0  0  0  0
    1.4030    4.3100    0.0000 C   0  0  3  0  0  0  0  0  0  0  0  0
    2.2690    1.8100    0.0000 C   0  0  0  0  0  0  0  0  0  0  0  0
    3.1350    1.3100    0.0000 C   0  0  0  0  0  0  0  0  0  0  0  0
    2.2690    4.8100    0.0000 C   0  0  0  0  0  0  0  0  0  0  0  0
    0.7924    3.4177    0.0000 H   0  0  0  0  0  0  0  0  0  0  0  0
    1.1909    2.7274    0.0000 H   0  0  0  0  0  0  0  0  0  0  0  0
    2.8796    2.7023    0.0000 H   0  0  0  0  0  0  0  0  0  0  0  0
    2.4810    3.3926    0.0000 H   0  0  0  0  0  0  0  0  0  0  0  0
    1.4030    4.9300    0.0000 H   0  0  0  0  0  0  0  0  0  0  0  0
    1.6584    1.9177    0.0000 H   0  0  0  0  0  0  0  0  0  0  0  0
    2.0569    1.2274    0.0000 H   0  0  0  0  0  0  0  0  0  0  0  0
    0.0000    5.1200    0.0000 H   0  0  0  0  0  0  0  0  0  0  0  0
    0.2269    4.2731    0.0000 H   0  0  0  0  0  0  0  0  0  0  0  0
    0.8469    5.3469    0.0000 H   0  0  0  0  0  0  0  0  0  0  0  0
    3.7456    1.2023    0.0000 H   0  0  0  0  0  0  0  0  0  0  0  0
    3.3471    1.8926    0.0000 H   0  0  0  0  0  0  0  0  0  0  0  0
    3.6720    0.0000    0.0000 H   0  0  0  0  0  0  0  0  0  0  0  0
    2.5981    0.0000    0.0000 H   0  0  0  0  0  0  0  0  0  0  0  0
    6.7456    2.6550    0.0000 H   0  0  0  0  0  0  0  0  0  0  0  0
  1 26  1  0  0  0  0
  2 11  1  0  0  0  0
  3 11  2  0  0  0  0
  4  8  1  0  0  0  0
  4 19  1  0  0  0  0
  4 20  1  0  0  0  0
  4 21  1  0  0  0  0
  5 10  1  0  0  0  0
  5 24  1  0  0  0  0
  5 25  1  0  0  0  0
  6  7  1  0  0  0  0
  6  8  1  0  0  0  0
  6 12  1  0  0  0  0
  6 13  1  0  0  0  0
  7  9  1  0  0  0  0
  7 14  1  0  0  0  0
  7 15  1  0  0  0  0
  8 11  1  0  0  0  0
  8 16  1  0  0  0  0
  9 10  1  0  0  0  0
  9 17  1  0  0  0  0
  9 18  1  0  0  0  0
 10 22  1  0  0  0  0
 10 23  1  0  0  0  0
M  CHG  2   2  -1   4   1
M  END
> <PUBCHEM_COMPOUND_CID>
517015
> <PUBCHEM_COMPOUND_CANONICALIZED>
1
> <PUBCHEM_CACTVS_COMPLEXITY>
100
> <PUBCHEM_CACTVS_HBOND_ACCEPTOR>
3
> <PUBCHEM_CACTVS_HBOND_DONOR>
3
> <PUBCHEM_CACTVS_ROTATABLE_BOND>
4
> <PUBCHEM_CACTVS_SUBSKEYS>
AAADccBjMAAEAAAAAAAAAAAAAAAAAAAAAAAAAAAAAAAAAAAAAAAAHgAQAAAACCjBgAQACABAAAAIAACQCAAAAAAAAAAAAIGAAAACABIAgAAAAAAEEAAAAAGYSAAAAAAAAAAAAAAAAAAAAAAAAAAAAAAAAA==
> <PUBCHEM_IUPAC_OPENEYE_NAME>
6-amino-2-azaniumyl-hexanoate;hydrochloride
> <PUBCHEM_IUPAC_CAS_NAME>
6-amino-2-ammoniohexanoate;hydrochloride
> <PUBCHEM_IUPAC_NAME_MARKUP>
6-amino-2-azaniumylhexanoate;hydrochloride
> <PUBCHEM_IUPAC_NAME>
6-amino-2-azaniumylhexanoate;hydrochloride
> <PUBCHEM_IUPAC_SYSTEMATIC_NAME>
2-azaniumyl-6-azanyl-hexanoate;hydrochloride
> <PUBCHEM_IUPAC_TRADITIONAL_NAME>
6-amino-2-ammonio-hexanoate;hydrochloride
> <PUBCHEM_IUPAC_INCHI>
InChI=1S/C6H14N2O2.ClH/c7-4-2-1-3-5(8)6(9)10;/h5H,1-4,7-8H2,(H,9,10);1H
> <PUBCHEM_IUPAC_INCHIKEY>
BVHLGVCQOALMSV-UHFFFAOYSA-N
> <PUBCHEM_EXACT_MASS>
182.0822054
> <PUBCHEM_MOLECULAR_FORMULA>
C6H15ClN2O2
> <PUBCHEM_MOLECULAR_WEIGHT>
182.65
> <PUBCHEM_OPENEYE_CAN_SMILES>
C(CCN)CC(C(=O)[O-])[NH3+].Cl
> <PUBCHEM_OPENEYE_ISO_SMILES>
C(CCN)CC(C(=O)[O-])[NH3+].Cl
> <PUBCHEM_CACTVS_TPSA>
93.8
> <PUBCHEM_MONOISOTOPIC_WEIGHT>
182.0822054
> <PUBCHEM_TOTAL_CHARGE>
0
> <PUBCHEM_HEAVY_ATOM_COUNT>
11
> <PUBCHEM_ATOM_DEF_STEREO_COUNT>
0
> <PUBCHEM_ATOM_UDEF_STEREO_COUNT>
1
> <PUBCHEM_BOND_DEF_STEREO_COUNT>
0
> <PUBCHEM_BOND_UDEF_STEREO_COUNT>
0
> <PUBCHEM_ISOTOPIC_ATOM_COUNT>
0
> <PUBCHEM_COMPONENT_COUNT>
2
> <PUBCHEM_CACTVS_TAUTO_COUNT>
-1
> <PUBCHEM_COORDINATE_TYPE>
1
5
255
> <PUBCHEM_BONDANNOTATIONS>
8  4  3
$$$$
