517083
  -OEChem-10302200292D
 40 40  0     1  0  0  0  0  0999 V2000
    5.4641    0.0000    0.0000 O   0  0  0  0  0  0  0  0  0  0  0  0
    6.3301   -1.5000    0.0000 O   0  0  0  0  0  0  0  0  0  0  0  0
    2.0000   -3.0000    0.0000 O   0  5  0  0  0  0  0  0  0  0  0  0
    2.8660   -1.5000    0.0000 O   0  0  0  0  0  0  0  0  0  0  0  0
    4.5981   -1.5000    0.0000 N   0  0  0  0  0  0  0  0  0  0  0  0
    2.8660   -2.5000    0.0000 N   0  3  0  0  0  0  0  0  0  0  0  0
    7.1962    2.0000    0.0000 C   0  0  3  0  0  0  0  0  0  0  0  0
    7.1962    3.0000    0.0000 C   0  0  0  0  0  0  0  0  0  0  0  0
    6.3301    1.5000    0.0000 C   0  0  0  0  0  0  0  0  0  0  0  0
    8.0622    3.5000    0.0000 C   0  0  0  0  0  0  0  0  0  0  0  0
    8.0622    1.5000    0.0000 C   0  0  0  0  0  0  0  0  0  0  0  0
    6.3301    0.5000    0.0000 C   0  0  0  0  0  0  0  0  0  0  0  0
    8.0622    4.5000    0.0000 C   0  0  0  0  0  0  0  0  0  0  0  0
    5.4641   -1.0000    0.0000 C   0  0  0  0  0  0  0  0  0  0  0  0
    4.5981   -2.5000    0.0000 C   0  0  0  0  0  0  0  0  0  0  0  0
    3.7320   -3.0000    0.0000 C   0  0  0  0  0  0  0  0  0  0  0  0
    5.4641   -3.0000    0.0000 C   0  0  0  0  0  0  0  0  0  0  0  0
    3.7320   -4.0000    0.0000 C   0  0  0  0  0  0  0  0  0  0  0  0
    5.4641   -4.0000    0.0000 C   0  0  0  0  0  0  0  0  0  0  0  0
    4.5981   -4.5000    0.0000 C   0  0  0  0  0  0  0  0  0  0  0  0
    7.7331    2.3100    0.0000 H   0  0  0  0  0  0  0  0  0  0  0  0
    6.9841    3.5826    0.0000 H   0  0  0  0  0  0  0  0  0  0  0  0
    6.5856    2.8923    0.0000 H   0  0  0  0  0  0  0  0  0  0  0  0
    6.1181    2.0826    0.0000 H   0  0  0  0  0  0  0  0  0  0  0  0
    5.7196    1.3923    0.0000 H   0  0  0  0  0  0  0  0  0  0  0  0
    8.2742    2.9174    0.0000 H   0  0  0  0  0  0  0  0  0  0  0  0
    8.6728    3.6077    0.0000 H   0  0  0  0  0  0  0  0  0  0  0  0
    7.7522    0.9631    0.0000 H   0  0  0  0  0  0  0  0  0  0  0  0
    8.5991    1.1900    0.0000 H   0  0  0  0  0  0  0  0  0  0  0  0
    8.3722    2.0369    0.0000 H   0  0  0  0  0  0  0  0  0  0  0  0
    6.5422   -0.0826    0.0000 H   0  0  0  0  0  0  0  0  0  0  0  0
    6.9407    0.6077    0.0000 H   0  0  0  0  0  0  0  0  0  0  0  0
    8.6822    4.5000    0.0000 H   0  0  0  0  0  0  0  0  0  0  0  0
    8.0622    5.1200    0.0000 H   0  0  0  0  0  0  0  0  0  0  0  0
    7.4422    4.5000    0.0000 H   0  0  0  0  0  0  0  0  0  0  0  0
    4.0611   -1.1900    0.0000 H   0  0  0  0  0  0  0  0  0  0  0  0
    6.0010   -2.6900    0.0000 H   0  0  0  0  0  0  0  0  0  0  0  0
    3.1951   -4.3100    0.0000 H   0  0  0  0  0  0  0  0  0  0  0  0
    6.0010   -4.3100    0.0000 H   0  0  0  0  0  0  0  0  0  0  0  0
    4.5981   -5.1200    0.0000 H   0  0  0  0  0  0  0  0  0  0  0  0
  1 12  1  0  0  0  0
  1 14  1  0  0  0  0
  2 14  2  0  0  0  0
  3  6  1  0  0  0  0
  4  6  2  0  0  0  0
  5 14  1  0  0  0  0
  5 15  1  0  0  0  0
  5 36  1  0  0  0  0
  6 16  1  0  0  0  0
  7  8  1  0  0  0  0
  7  9  1  0  0  0  0
  7 11  1  0  0  0  0
  7 21  1  0  0  0  0
  8 10  1  0  0  0  0
  8 22  1  0  0  0  0
  8 23  1  0  0  0  0
  9 12  1  0  0  0  0
  9 24  1  0  0  0  0
  9 25  1  0  0  0  0
 10 13  1  0  0  0  0
 10 26  1  0  0  0  0
 10 27  1  0  0  0  0
 11 28  1  0  0  0  0
 11 29  1  0  0  0  0
 11 30  1  0  0  0  0
 12 31  1  0  0  0  0
 12 32  1  0  0  0  0
 13 33  1  0  0  0  0
 13 34  1  0  0  0  0
 13 35  1  0  0  0  0
 15 16  1  0  0  0  0
 15 17  2  0  0  0  0
 16 18  2  0  0  0  0
 17 19  1  0  0  0  0
 17 37  1  0  0  0  0
 18 20  1  0  0  0  0
 18 38  1  0  0  0  0
 19 20  2  0  0  0  0
 19 39  1  0  0  0  0
 20 40  1  0  0  0  0
M  CHG  2   3  -1   6   1
M  END
> <PUBCHEM_COMPOUND_CID>
517083
> <PUBCHEM_COMPOUND_CANONICALIZED>
1
> <PUBCHEM_CACTVS_COMPLEXITY>
317
> <PUBCHEM_CACTVS_HBOND_ACCEPTOR>
4
> <PUBCHEM_CACTVS_HBOND_DONOR>
1
> <PUBCHEM_CACTVS_ROTATABLE_BOND>
7
> <PUBCHEM_CACTVS_SUBSKEYS>
AAADceBzOAAAAAAAAAAAAAAAAAAAAAAAAAAwAAAAAAAAAAABAAAAHgAUAAAADQihkAIyyILQRACJACRCWwCCAAAhAgAoiAAAdIsIYCLAkZGcIAhklIBIyAeQQAAOAAAAAAAAACAAAAAAAAAAQAAAAAAAAA==
> <PUBCHEM_IUPAC_OPENEYE_NAME>
3-methylhexyl N-(2-nitrophenyl)carbamate
> <PUBCHEM_IUPAC_CAS_NAME>
N-(2-nitrophenyl)carbamic acid 3-methylhexyl ester
> <PUBCHEM_IUPAC_NAME_MARKUP>
3-methylhexyl <I>N</I>-(2-nitrophenyl)carbamate
> <PUBCHEM_IUPAC_NAME>
3-methylhexyl N-(2-nitrophenyl)carbamate
> <PUBCHEM_IUPAC_SYSTEMATIC_NAME>
3-methylhexyl N-(2-nitrophenyl)carbamate
> <PUBCHEM_IUPAC_TRADITIONAL_NAME>
N-(2-nitrophenyl)carbamic acid 3-methylhexyl ester
> <PUBCHEM_IUPAC_INCHI>
InChI=1S/C14H20N2O4/c1-3-6-11(2)9-10-20-14(17)15-12-7-4-5-8-13(12)16(18)19/h4-5,7-8,11H,3,6,9-10H2,1-2H3,(H,15,17)
> <PUBCHEM_IUPAC_INCHIKEY>
MWOLBIXTUGYGHX-UHFFFAOYSA-N
> <PUBCHEM_XLOGP3>
4.8
> <PUBCHEM_EXACT_MASS>
280.14230712
> <PUBCHEM_MOLECULAR_FORMULA>
C14H20N2O4
> <PUBCHEM_MOLECULAR_WEIGHT>
280.32
> <PUBCHEM_OPENEYE_CAN_SMILES>
CCCC(C)CCOC(=O)NC1=CC=CC=C1[N+](=O)[O-]
> <PUBCHEM_OPENEYE_ISO_SMILES>
CCCC(C)CCOC(=O)NC1=CC=CC=C1[N+](=O)[O-]
> <PUBCHEM_CACTVS_TPSA>
84.2
> <PUBCHEM_MONOISOTOPIC_WEIGHT>
280.14230712
> <PUBCHEM_TOTAL_CHARGE>
0
> <PUBCHEM_HEAVY_ATOM_COUNT>
20
> <PUBCHEM_ATOM_DEF_STEREO_COUNT>
0
> <PUBCHEM_ATOM_UDEF_STEREO_COUNT>
1
> <PUBCHEM_BOND_DEF_STEREO_COUNT>
0
> <PUBCHEM_BOND_UDEF_STEREO_COUNT>
0
> <PUBCHEM_ISOTOPIC_ATOM_COUNT>
0
> <PUBCHEM_COMPONENT_COUNT>
1
> <PUBCHEM_CACTVS_TAUTO_COUNT>
-1
> <PUBCHEM_COORDINATE_TYPE>
1
5
255
> <PUBCHEM_BONDANNOTATIONS>
15  16  8
15  17  8
16  18  8
17  19  8
18  20  8
19  20  8
7  11  3
$$$$
