517077
  -OEChem-10302200292D
 74 73  0     1  0  0  0  0  0999 V2000
    7.9409    9.6200    0.0000 O   0  0  0  0  0  0  0  0  0  0  0  0
    8.8070    8.1200    0.0000 O   0  0  0  0  0  0  0  0  0  0  0  0
    7.0749    8.1200    0.0000 N   0  0  0  0  0  0  0  0  0  0  0  0
    7.0749    4.1200    0.0000 N   0  0  0  0  0  0  0  0  0  0  0  0
    6.2089    3.6200    0.0000 N   0  0  0  0  0  0  0  0  0  0  0  0
    9.6730   11.6200    0.0000 C   0  0  3  0  0  0  0  0  0  0  0  0
    9.6730   12.6200    0.0000 C   0  0  0  0  0  0  0  0  0  0  0  0
    8.8070   11.1200    0.0000 C   0  0  0  0  0  0  0  0  0  0  0  0
   10.5390   13.1200    0.0000 C   0  0  0  0  0  0  0  0  0  0  0  0
   10.5390   11.1200    0.0000 C   0  0  0  0  0  0  0  0  0  0  0  0
    8.8070   10.1200    0.0000 C   0  0  0  0  0  0  0  0  0  0  0  0
   10.5390   14.1200    0.0000 C   0  0  0  0  0  0  0  0  0  0  0  0
    7.9409    8.6200    0.0000 C   0  0  0  0  0  0  0  0  0  0  0  0
    7.0749    7.1200    0.0000 C   0  0  0  0  0  0  0  0  0  0  0  0
    6.2089    6.6200    0.0000 C   0  0  0  0  0  0  0  0  0  0  0  0
    7.9409    6.6200    0.0000 C   0  0  0  0  0  0  0  0  0  0  0  0
    6.2089    5.6200    0.0000 C   0  0  0  0  0  0  0  0  0  0  0  0
    7.9409    5.6200    0.0000 C   0  0  0  0  0  0  0  0  0  0  0  0
    7.0749    5.1200    0.0000 C   0  0  0  0  0  0  0  0  0  0  0  0
    6.2089    2.6200    0.0000 C   0  0  0  0  0  0  0  0  0  0  0  0
    5.3429    2.1200    0.0000 C   0  0  0  0  0  0  0  0  0  0  0  0
    7.0749    2.1200    0.0000 C   0  0  0  0  0  0  0  0  0  0  0  0
    5.3429    1.1200    0.0000 C   0  0  0  0  0  0  0  0  0  0  0  0
    7.0749    1.1200    0.0000 C   0  0  0  0  0  0  0  0  0  0  0  0
    6.2089    0.6200    0.0000 C   0  0  0  0  0  0  0  0  0  0  0  0
    1.4030    7.5065    0.0000 C   0  0  0  0  0  0  0  0  0  0  0  0
   14.5620    7.5065    0.0000 C   0  0  0  0  0  0  0  0  0  0  0  0
    2.2690    8.0065    0.0000 C   0  0  0  0  0  0  0  0  0  0  0  0
    0.5369    8.0065    0.0000 C   0  0  0  0  0  0  0  0  0  0  0  0
   15.4280    8.0065    0.0000 C   0  0  0  0  0  0  0  0  0  0  0  0
   13.6959    8.0065    0.0000 C   0  0  0  0  0  0  0  0  0  0  0  0
    1.4030    6.5065    0.0000 C   0  0  0  0  0  0  0  0  0  0  0  0
   14.5620    6.5065    0.0000 C   0  0  0  0  0  0  0  0  0  0  0  0
   10.2099   11.9300    0.0000 H   0  0  0  0  0  0  0  0  0  0  0  0
    9.4609   13.2026    0.0000 H   0  0  0  0  0  0  0  0  0  0  0  0
    9.0624   12.5123    0.0000 H   0  0  0  0  0  0  0  0  0  0  0  0
    8.5949   11.7026    0.0000 H   0  0  0  0  0  0  0  0  0  0  0  0
    8.1964   11.0123    0.0000 H   0  0  0  0  0  0  0  0  0  0  0  0
   10.7511   12.5374    0.0000 H   0  0  0  0  0  0  0  0  0  0  0  0
   11.1496   13.2277    0.0000 H   0  0  0  0  0  0  0  0  0  0  0  0
   10.2290   10.5831    0.0000 H   0  0  0  0  0  0  0  0  0  0  0  0
   11.0759   10.8100    0.0000 H   0  0  0  0  0  0  0  0  0  0  0  0
   10.8490   11.6569    0.0000 H   0  0  0  0  0  0  0  0  0  0  0  0
    9.0190    9.5374    0.0000 H   0  0  0  0  0  0  0  0  0  0  0  0
    9.4175   10.2277    0.0000 H   0  0  0  0  0  0  0  0  0  0  0  0
   11.1590   14.1200    0.0000 H   0  0  0  0  0  0  0  0  0  0  0  0
   10.5390   14.7400    0.0000 H   0  0  0  0  0  0  0  0  0  0  0  0
    9.9190   14.1200    0.0000 H   0  0  0  0  0  0  0  0  0  0  0  0
    6.5380    8.4300    0.0000 H   0  0  0  0  0  0  0  0  0  0  0  0
    5.6720    6.9300    0.0000 H   0  0  0  0  0  0  0  0  0  0  0  0
    8.4779    6.9300    0.0000 H   0  0  0  0  0  0  0  0  0  0  0  0
    5.6720    5.3100    0.0000 H   0  0  0  0  0  0  0  0  0  0  0  0
    8.4779    5.3100    0.0000 H   0  0  0  0  0  0  0  0  0  0  0  0
    4.8059    2.4300    0.0000 H   0  0  0  0  0  0  0  0  0  0  0  0
    7.6118    2.4300    0.0000 H   0  0  0  0  0  0  0  0  0  0  0  0
    4.8059    0.8100    0.0000 H   0  0  0  0  0  0  0  0  0  0  0  0
    7.6118    0.8100    0.0000 H   0  0  0  0  0  0  0  0  0  0  0  0
    6.2089    0.0000    0.0000 H   0  0  0  0  0  0  0  0  0  0  0  0
    2.5790    7.4696    0.0000 H   0  0  0  0  0  0  0  0  0  0  0  0
    2.8059    8.3165    0.0000 H   0  0  0  0  0  0  0  0  0  0  0  0
    1.9590    8.5435    0.0000 H   0  0  0  0  0  0  0  0  0  0  0  0
    0.8469    8.5435    0.0000 H   0  0  0  0  0  0  0  0  0  0  0  0
    0.0000    8.3165    0.0000 H   0  0  0  0  0  0  0  0  0  0  0  0
    0.2269    7.4696    0.0000 H   0  0  0  0  0  0  0  0  0  0  0  0
   15.7380    7.4696    0.0000 H   0  0  0  0  0  0  0  0  0  0  0  0
   15.9649    8.3165    0.0000 H   0  0  0  0  0  0  0  0  0  0  0  0
   15.1180    8.5435    0.0000 H   0  0  0  0  0  0  0  0  0  0  0  0
   14.0059    8.5435    0.0000 H   0  0  0  0  0  0  0  0  0  0  0  0
   13.1590    8.3165    0.0000 H   0  0  0  0  0  0  0  0  0  0  0  0
   13.3859    7.4696    0.0000 H   0  0  0  0  0  0  0  0  0  0  0  0
    0.8660    6.1965    0.0000 H   0  0  0  0  0  0  0  0  0  0  0  0
    1.9399    6.1965    0.0000 H   0  0  0  0  0  0  0  0  0  0  0  0
   14.0250    6.1965    0.0000 H   0  0  0  0  0  0  0  0  0  0  0  0
   15.0989    6.1965    0.0000 H   0  0  0  0  0  0  0  0  0  0  0  0
  1 11  1  0  0  0  0
  1 13  1  0  0  0  0
  2 13  2  0  0  0  0
  3 13  1  0  0  0  0
  3 14  1  0  0  0  0
  3 49  1  0  0  0  0
  4  5  2  0  0  0  0
  4 19  1  0  0  0  0
  5 20  1  0  0  0  0
  6  7  1  0  0  0  0
  6  8  1  0  0  0  0
  6 10  1  0  0  0  0
  6 34  1  0  0  0  0
  7  9  1  0  0  0  0
  7 35  1  0  0  0  0
  7 36  1  0  0  0  0
  8 11  1  0  0  0  0
  8 37  1  0  0  0  0
  8 38  1  0  0  0  0
  9 12  1  0  0  0  0
  9 39  1  0  0  0  0
  9 40  1  0  0  0  0
 10 41  1  0  0  0  0
 10 42  1  0  0  0  0
 10 43  1  0  0  0  0
 11 44  1  0  0  0  0
 11 45  1  0  0  0  0
 12 46  1  0  0  0  0
 12 47  1  0  0  0  0
 12 48  1  0  0  0  0
 14 15  2  0  0  0  0
 14 16  1  0  0  0  0
 15 17  1  0  0  0  0
 15 50  1  0  0  0  0
 16 18  2  0  0  0  0
 16 51  1  0  0  0  0
 17 19  2  0  0  0  0
 17 52  1  0  0  0  0
 18 19  1  0  0  0  0
 18 53  1  0  0  0  0
 20 21  2  0  0  0  0
 20 22  1  0  0  0  0
 21 23  1  0  0  0  0
 21 54  1  0  0  0  0
 22 24  2  0  0  0  0
 22 55  1  0  0  0  0
 23 25  2  0  0  0  0
 23 56  1  0  0  0  0
 24 25  1  0  0  0  0
 24 57  1  0  0  0  0
 25 58  1  0  0  0  0
 26 28  1  0  0  0  0
 26 29  1  0  0  0  0
 26 32  2  0  0  0  0
 27 30  1  0  0  0  0
 27 31  1  0  0  0  0
 27 33  2  0  0  0  0
 28 59  1  0  0  0  0
 28 60  1  0  0  0  0
 28 61  1  0  0  0  0
 29 62  1  0  0  0  0
 29 63  1  0  0  0  0
 29 64  1  0  0  0  0
 30 65  1  0  0  0  0
 30 66  1  0  0  0  0
 30 67  1  0  0  0  0
 31 68  1  0  0  0  0
 31 69  1  0  0  0  0
 31 70  1  0  0  0  0
 32 71  1  0  0  0  0
 32 72  1  0  0  0  0
 33 73  1  0  0  0  0
 33 74  1  0  0  0  0
M  END
> <PUBCHEM_COMPOUND_CID>
517077
> <PUBCHEM_COMPOUND_CANONICALIZED>
1
> <PUBCHEM_CACTVS_COMPLEXITY>
423
> <PUBCHEM_CACTVS_HBOND_ACCEPTOR>
4
> <PUBCHEM_CACTVS_HBOND_DONOR>
1
> <PUBCHEM_CACTVS_ROTATABLE_BOND>
9
> <PUBCHEM_CACTVS_SUBSKEYS>
AAADcfB7MAAAAAAAAAAAAAAAAAAAAAAAAAAwYAAAAAAAAAABQAAAHgAYAAAADQihkAIyyILABACKAiRCWACCAAAhAgAIiAAAZIkIICLAkZGMIAhklABIyAeQQAAOAACAAAAAAAAAAQAAAAAAAAAAAAAAAA==
> <PUBCHEM_IUPAC_OPENEYE_NAME>
3-methylhexyl N-(4-phenylazophenyl)carbamate;2-methylprop-1-ene
> <PUBCHEM_IUPAC_CAS_NAME>
2-methyl-1-propene;N-(4-phenyldiazenylphenyl)carbamic acid 3-methylhexyl ester
> <PUBCHEM_IUPAC_NAME_MARKUP>
3-methylhexyl <I>N</I>-(4-phenyldiazenylphenyl)carbamate;2-methylprop-1-ene
> <PUBCHEM_IUPAC_NAME>
3-methylhexyl N-(4-phenyldiazenylphenyl)carbamate;2-methylprop-1-ene
> <PUBCHEM_IUPAC_SYSTEMATIC_NAME>
3-methylhexyl N-(4-phenyldiazenylphenyl)carbamate;2-methylprop-1-ene
> <PUBCHEM_IUPAC_TRADITIONAL_NAME>
isobutylene;N-(4-phenylazophenyl)carbamic acid 3-methylhexyl ester
> <PUBCHEM_IUPAC_INCHI>
InChI=1S/C20H25N3O2.2C4H8/c1-3-7-16(2)14-15-25-20(24)21-17-10-12-19(13-11-17)23-22-18-8-5-4-6-9-18;2*1-4(2)3/h4-6,8-13,16H,3,7,14-15H2,1-2H3,(H,21,24);2*1H2,2-3H3
> <PUBCHEM_IUPAC_INCHIKEY>
GBQMXPCQEMORTP-UHFFFAOYSA-N
> <PUBCHEM_EXACT_MASS>
451.31987756
> <PUBCHEM_MOLECULAR_FORMULA>
C28H41N3O2
> <PUBCHEM_MOLECULAR_WEIGHT>
451.6
> <PUBCHEM_OPENEYE_CAN_SMILES>
CCCC(C)CCOC(=O)NC1=CC=C(C=C1)N=NC2=CC=CC=C2.CC(=C)C.CC(=C)C
> <PUBCHEM_OPENEYE_ISO_SMILES>
CCCC(C)CCOC(=O)NC1=CC=C(C=C1)N=NC2=CC=CC=C2.CC(=C)C.CC(=C)C
> <PUBCHEM_CACTVS_TPSA>
63
> <PUBCHEM_MONOISOTOPIC_WEIGHT>
451.31987756
> <PUBCHEM_TOTAL_CHARGE>
0
> <PUBCHEM_HEAVY_ATOM_COUNT>
33
> <PUBCHEM_ATOM_DEF_STEREO_COUNT>
0
> <PUBCHEM_ATOM_UDEF_STEREO_COUNT>
1
> <PUBCHEM_BOND_DEF_STEREO_COUNT>
0
> <PUBCHEM_BOND_UDEF_STEREO_COUNT>
0
> <PUBCHEM_ISOTOPIC_ATOM_COUNT>
0
> <PUBCHEM_COMPONENT_COUNT>
3
> <PUBCHEM_CACTVS_TAUTO_COUNT>
-1
> <PUBCHEM_COORDINATE_TYPE>
1
5
255
> <PUBCHEM_BONDANNOTATIONS>
14  15  8
14  16  8
15  17  8
16  18  8
17  19  8
18  19  8
20  21  8
20  22  8
21  23  8
22  24  8
23  25  8
24  25  8
6  10  3
$$$$
