517057
  -OEChem-10302200292D
 29 27  0     1  0  0  0  0  0999 V2000
   10.3312    0.2500    0.0000 Na  0  3  0  0  0  0  0  0  0  0  0  0
    6.0010   -1.2500    0.0000 O   0  0  0  0  0  0  0  0  0  0  0  0
    5.1350    1.2500    0.0000 O   0  0  0  0  0  0  0  0  0  0  0  0
    6.8671    1.2500    0.0000 O   0  0  0  0  0  0  0  0  0  0  0  0
    4.2690   -1.2500    0.0000 O   0  0  0  0  0  0  0  0  0  0  0  0
    7.7331   -1.2500    0.0000 O   0  0  0  0  0  0  0  0  0  0  0  0
    2.5369   -0.2500    0.0000 O   0  0  0  0  0  0  0  0  0  0  0  0
    9.4651   -0.2500    0.0000 O   0  5  0  0  0  0  0  0  0  0  0  0
    8.5991    1.2500    0.0000 O   0  0  0  0  0  0  0  0  0  0  0  0
    6.0010   -0.2500    0.0000 C   0  0  3  0  0  0  0  0  0  0  0  0
    5.1350    0.2500    0.0000 C   0  0  3  0  0  0  0  0  0  0  0  0
    6.8671    0.2500    0.0000 C   0  0  3  0  0  0  0  0  0  0  0  0
    4.2690   -0.2500    0.0000 C   0  0  3  0  0  0  0  0  0  0  0  0
    7.7331   -0.2500    0.0000 C   0  0  3  0  0  0  0  0  0  0  0  0
    3.4030    0.2500    0.0000 C   0  0  0  0  0  0  0  0  0  0  0  0
    8.5991    0.2500    0.0000 C   0  0  0  0  0  0  0  0  0  0  0  0
    6.5380   -0.5600    0.0000 H   0  0  0  0  0  0  0  0  0  0  0  0
    5.6720    0.5600    0.0000 H   0  0  0  0  0  0  0  0  0  0  0  0
    6.3301    0.5600    0.0000 H   0  0  0  0  0  0  0  0  0  0  0  0
    4.8059   -0.5600    0.0000 H   0  0  0  0  0  0  0  0  0  0  0  0
    8.2700   -0.5600    0.0000 H   0  0  0  0  0  0  0  0  0  0  0  0
    3.8015    0.7249    0.0000 H   0  0  0  0  0  0  0  0  0  0  0  0
    3.0044    0.7249    0.0000 H   0  0  0  0  0  0  0  0  0  0  0  0
    5.4641   -1.5600    0.0000 H   0  0  0  0  0  0  0  0  0  0  0  0
    4.5981    1.5600    0.0000 H   0  0  0  0  0  0  0  0  0  0  0  0
    7.4040    1.5600    0.0000 H   0  0  0  0  0  0  0  0  0  0  0  0
    3.7320   -1.5600    0.0000 H   0  0  0  0  0  0  0  0  0  0  0  0
    8.2700   -1.5600    0.0000 H   0  0  0  0  0  0  0  0  0  0  0  0
    2.0000    0.0600    0.0000 H   0  0  0  0  0  0  0  0  0  0  0  0
  2 10  1  0  0  0  0
  2 24  1  0  0  0  0
  3 11  1  0  0  0  0
  3 25  1  0  0  0  0
  4 12  1  0  0  0  0
  4 26  1  0  0  0  0
  5 13  1  0  0  0  0
  5 27  1  0  0  0  0
  6 14  1  0  0  0  0
  6 28  1  0  0  0  0
  7 15  1  0  0  0  0
  7 29  1  0  0  0  0
  8 16  1  0  0  0  0
  9 16  2  0  0  0  0
 10 11  1  0  0  0  0
 10 12  1  0  0  0  0
 10 17  1  0  0  0  0
 11 13  1  0  0  0  0
 11 18  1  0  0  0  0
 12 14  1  0  0  0  0
 12 19  1  0  0  0  0
 13 15  1  0  0  0  0
 13 20  1  0  0  0  0
 14 16  1  0  0  0  0
 14 21  1  0  0  0  0
 15 22  1  0  0  0  0
 15 23  1  0  0  0  0
M  CHG  2   1   1   8  -1
M  END
> <PUBCHEM_COMPOUND_CID>
517057
> <PUBCHEM_COMPOUND_CANONICALIZED>
1
> <PUBCHEM_CACTVS_COMPLEXITY>
213
> <PUBCHEM_CACTVS_HBOND_ACCEPTOR>
8
> <PUBCHEM_CACTVS_HBOND_DONOR>
6
> <PUBCHEM_CACTVS_ROTATABLE_BOND>
6
> <PUBCHEM_CACTVS_SUBSKEYS>
AAADccBgPCAAAAAAAAAAAAAAAAAAAAAAAAAAAAAAAAAAAAAAAAAAGgAACAAACBSggAIACAAAAgAIAACQCAIAAAAAAAAAAAFAAAABEBYAAAAAQAAFIAABAAHK7CTAAAAAAAAAAAAAAAAAAAAAAAAAAAAAAA==
> <PUBCHEM_IUPAC_OPENEYE_NAME>
sodium;2,3,4,5,6,7-hexahydroxyheptanoate
> <PUBCHEM_IUPAC_CAS_NAME>
sodium;2,3,4,5,6,7-hexahydroxyheptanoate
> <PUBCHEM_IUPAC_NAME_MARKUP>
sodium;2,3,4,5,6,7-hexahydroxyheptanoate
> <PUBCHEM_IUPAC_NAME>
sodium;2,3,4,5,6,7-hexahydroxyheptanoate
> <PUBCHEM_IUPAC_SYSTEMATIC_NAME>
sodium;2,3,4,5,6,7-hexakis(oxidanyl)heptanoate
> <PUBCHEM_IUPAC_TRADITIONAL_NAME>
sodium;2,3,4,5,6,7-hexahydroxyenanthate
> <PUBCHEM_IUPAC_INCHI>
InChI=1S/C7H14O8.Na/c8-1-2(9)3(10)4(11)5(12)6(13)7(14)15;/h2-6,8-13H,1H2,(H,14,15);/q;+1/p-1
> <PUBCHEM_IUPAC_INCHIKEY>
FMYOMWCQJXWGEN-UHFFFAOYSA-M
> <PUBCHEM_EXACT_MASS>
248.05081165
> <PUBCHEM_MOLECULAR_FORMULA>
C7H13NaO8
> <PUBCHEM_MOLECULAR_WEIGHT>
248.16
> <PUBCHEM_OPENEYE_CAN_SMILES>
C(C(C(C(C(C(C(=O)[O-])O)O)O)O)O)O.[Na+]
> <PUBCHEM_OPENEYE_ISO_SMILES>
C(C(C(C(C(C(C(=O)[O-])O)O)O)O)O)O.[Na+]
> <PUBCHEM_CACTVS_TPSA>
162
> <PUBCHEM_MONOISOTOPIC_WEIGHT>
248.05081165
> <PUBCHEM_TOTAL_CHARGE>
0
> <PUBCHEM_HEAVY_ATOM_COUNT>
16
> <PUBCHEM_ATOM_DEF_STEREO_COUNT>
0
> <PUBCHEM_ATOM_UDEF_STEREO_COUNT>
5
> <PUBCHEM_BOND_DEF_STEREO_COUNT>
0
> <PUBCHEM_BOND_UDEF_STEREO_COUNT>
0
> <PUBCHEM_ISOTOPIC_ATOM_COUNT>
0
> <PUBCHEM_COMPONENT_COUNT>
2
> <PUBCHEM_CACTVS_TAUTO_COUNT>
1
> <PUBCHEM_NONSTANDARDBOND>
1  8  7
> <PUBCHEM_COORDINATE_TYPE>
1
5
255
> <PUBCHEM_BONDANNOTATIONS>
10  2  3
11  3  3
12  4  3
13  5  3
14  6  3
$$$$
