517191
  -OEChem-10302200292D
 22 23  0     1  0  0  0  0  0999 V2000
    5.0981    2.7024    0.0000 O   0  0  0  0  0  0  0  0  0  0  0  0
    3.7320    0.3364    0.0000 O   0  0  0  0  0  0  0  0  0  0  0  0
    2.0000    0.3364    0.0000 O   0  0  0  0  0  0  0  0  0  0  0  0
    4.5981    1.8364    0.0000 C   0  0  3  0  0  0  0  0  0  0  0  0
    5.5981    1.8364    0.0000 C   0  0  0  0  0  0  0  0  0  0  0  0
    3.7320    1.3364    0.0000 C   0  0  0  0  0  0  0  0  0  0  0  0
    2.8660   -1.1636    0.0000 C   0  0  0  0  0  0  0  0  0  0  0  0
    2.0570   -1.7514    0.0000 C   0  0  0  0  0  0  0  0  0  0  0  0
    2.8660   -0.1636    0.0000 C   0  0  0  0  0  0  0  0  0  0  0  0
    3.6750   -1.7514    0.0000 C   0  0  0  0  0  0  0  0  0  0  0  0
    2.3660   -2.7024    0.0000 C   0  0  0  0  0  0  0  0  0  0  0  0
    3.3660   -2.7024    0.0000 C   0  0  0  0  0  0  0  0  0  0  0  0
    4.1597    2.2748    0.0000 H   0  0  0  0  0  0  0  0  0  0  0  0
    5.7057    1.2258    0.0000 H   0  0  0  0  0  0  0  0  0  0  0  0
    6.1807    2.0485    0.0000 H   0  0  0  0  0  0  0  0  0  0  0  0
    3.5200    1.9190    0.0000 H   0  0  0  0  0  0  0  0  0  0  0  0
    3.1215    1.2288    0.0000 H   0  0  0  0  0  0  0  0  0  0  0  0
    1.7470   -1.2144    0.0000 H   0  0  0  0  0  0  0  0  0  0  0  0
    1.4906   -2.0036    0.0000 H   0  0  0  0  0  0  0  0  0  0  0  0
    4.2647   -1.5598    0.0000 H   0  0  0  0  0  0  0  0  0  0  0  0
    2.0016   -3.2040    0.0000 H   0  0  0  0  0  0  0  0  0  0  0  0
    3.7304   -3.2040    0.0000 H   0  0  0  0  0  0  0  0  0  0  0  0
  1  4  1  0  0  0  0
  1  5  1  0  0  0  0
  2  6  1  0  0  0  0
  2  9  1  0  0  0  0
  3  9  2  0  0  0  0
  4  5  1  0  0  0  0
  4  6  1  0  0  0  0
  4 13  1  0  0  0  0
  5 14  1  0  0  0  0
  5 15  1  0  0  0  0
  6 16  1  0  0  0  0
  6 17  1  0  0  0  0
  7  8  1  0  0  0  0
  7  9  1  0  0  0  0
  7 10  2  0  0  0  0
  8 11  1  0  0  0  0
  8 18  1  0  0  0  0
  8 19  1  0  0  0  0
 10 12  1  0  0  0  0
 10 20  1  0  0  0  0
 11 12  2  0  0  0  0
 11 21  1  0  0  0  0
 12 22  1  0  0  0  0
M  END
> <PUBCHEM_COMPOUND_CID>
517191
> <PUBCHEM_COMPOUND_CANONICALIZED>
1
> <PUBCHEM_CACTVS_COMPLEXITY>
253
> <PUBCHEM_CACTVS_HBOND_ACCEPTOR>
3
> <PUBCHEM_CACTVS_HBOND_DONOR>
0
> <PUBCHEM_CACTVS_ROTATABLE_BOND>
4
> <PUBCHEM_CACTVS_SUBSKEYS>
AAADccBwMAAAAAAAAAAAAAAAEgAAAQAAAAAAAAAAAAAAAAAAAAAAGgAAAAAADBSggAIACAAABACIAiDSCAAAAAAgAAAICAEAAEgJBBAAIQACEAAFgAAKoYIAAAAAAAAAAAAAAAAAAAAAAAAAAAAAAAAAAA==
> <PUBCHEM_IUPAC_OPENEYE_NAME>
oxiran-2-ylmethyl cyclopenta-1,3-diene-1-carboxylate
> <PUBCHEM_IUPAC_CAS_NAME>
1-cyclopenta-1,3-dienecarboxylic acid 2-oxiranylmethyl ester
> <PUBCHEM_IUPAC_NAME_MARKUP>
oxiran-2-ylmethyl cyclopenta-1,3-diene-1-carboxylate
> <PUBCHEM_IUPAC_NAME>
oxiran-2-ylmethyl cyclopenta-1,3-diene-1-carboxylate
> <PUBCHEM_IUPAC_SYSTEMATIC_NAME>
oxiran-2-ylmethyl cyclopenta-1,3-diene-1-carboxylate
> <PUBCHEM_IUPAC_TRADITIONAL_NAME>
cyclopenta-1,3-diene-1-carboxylic acid glycidyl ester
> <PUBCHEM_IUPAC_INCHI>
InChI=1S/C9H10O3/c10-9(7-3-1-2-4-7)12-6-8-5-11-8/h1-3,8H,4-6H2
> <PUBCHEM_IUPAC_INCHIKEY>
HOZXCFLRWLVBSK-UHFFFAOYSA-N
> <PUBCHEM_XLOGP3_AA>
1.1
> <PUBCHEM_EXACT_MASS>
166.062994177
> <PUBCHEM_MOLECULAR_FORMULA>
C9H10O3
> <PUBCHEM_MOLECULAR_WEIGHT>
166.17
> <PUBCHEM_OPENEYE_CAN_SMILES>
C1C=CC=C1C(=O)OCC2CO2
> <PUBCHEM_OPENEYE_ISO_SMILES>
C1C=CC=C1C(=O)OCC2CO2
> <PUBCHEM_CACTVS_TPSA>
38.8
> <PUBCHEM_MONOISOTOPIC_WEIGHT>
166.062994177
> <PUBCHEM_TOTAL_CHARGE>
0
> <PUBCHEM_HEAVY_ATOM_COUNT>
12
> <PUBCHEM_ATOM_DEF_STEREO_COUNT>
0
> <PUBCHEM_ATOM_UDEF_STEREO_COUNT>
1
> <PUBCHEM_BOND_DEF_STEREO_COUNT>
0
> <PUBCHEM_BOND_UDEF_STEREO_COUNT>
0
> <PUBCHEM_ISOTOPIC_ATOM_COUNT>
0
> <PUBCHEM_COMPONENT_COUNT>
1
> <PUBCHEM_CACTVS_TAUTO_COUNT>
-1
> <PUBCHEM_COORDINATE_TYPE>
1
5
255
> <PUBCHEM_BONDANNOTATIONS>
10  12  8
11  12  8
4  6  3
7  10  8
7  8  8
8  11  8
$$$$
