517179
  -OEChem-10302200292D
 12 11  0     1  0  0  0  0  0999 V2000
    5.1350   -0.3170    0.0000 Cl  0  0  0  0  0  0  0  0  0  0  0  0
    3.4030   -0.3170    0.0000 S   0  0  0  0  0  0  0  0  0  0  0  0
    2.5369   -0.8170    0.0000 O   0  0  0  0  0  0  0  0  0  0  0  0
    2.9030    0.5490    0.0000 O   0  0  0  0  0  0  0  0  0  0  0  0
    3.9030   -1.1830    0.0000 O   0  0  0  0  0  0  0  0  0  0  0  0
    4.2690    0.1830    0.0000 C   0  0  3  0  0  0  0  0  0  0  0  0
    4.2690    1.1830    0.0000 C   0  0  0  0  0  0  0  0  0  0  0  0
    4.2690   -0.4370    0.0000 H   0  0  0  0  0  0  0  0  0  0  0  0
    4.8890    1.1830    0.0000 H   0  0  0  0  0  0  0  0  0  0  0  0
    4.2690    1.8030    0.0000 H   0  0  0  0  0  0  0  0  0  0  0  0
    3.6490    1.1830    0.0000 H   0  0  0  0  0  0  0  0  0  0  0  0
    2.0000   -0.5070    0.0000 H   0  0  0  0  0  0  0  0  0  0  0  0
  1  6  1  0  0  0  0
  2  3  1  0  0  0  0
  2  4  2  0  0  0  0
  2  5  2  0  0  0  0
  2  6  1  0  0  0  0
  3 12  1  0  0  0  0
  6  7  1  0  0  0  0
  6  8  1  0  0  0  0
  7  9  1  0  0  0  0
  7 10  1  0  0  0  0
  7 11  1  0  0  0  0
M  END
> <PUBCHEM_COMPOUND_CID>
517179
> <PUBCHEM_COMPOUND_CANONICALIZED>
1
> <PUBCHEM_CACTVS_COMPLEXITY>
132
> <PUBCHEM_CACTVS_HBOND_ACCEPTOR>
3
> <PUBCHEM_CACTVS_HBOND_DONOR>
1
> <PUBCHEM_CACTVS_ROTATABLE_BOND>
1
> <PUBCHEM_CACTVS_SUBSKEYS>
AAADcYBAMABEAAAAAAAAAAAAAAAAAAAAAAAAAAAAAAAAAAAAAAAAGAYACAAAAAOEQECCAAAAAIIAAAAAAHBAAAAAAAAAAAAAAAAAAAAAAAAAAAAAAAAAAAAAAAAAAAAAAAAAAAAAAAAAAAAAAAAAAAAAAA==
> <PUBCHEM_IUPAC_OPENEYE_NAME>
1-chloroethanesulfonic acid
> <PUBCHEM_IUPAC_CAS_NAME>
1-chloroethanesulfonic acid
> <PUBCHEM_IUPAC_NAME_MARKUP>
1-chloroethanesulfonic acid
> <PUBCHEM_IUPAC_NAME>
1-chloroethanesulfonic acid
> <PUBCHEM_IUPAC_SYSTEMATIC_NAME>
1-chloranylethanesulfonic acid
> <PUBCHEM_IUPAC_TRADITIONAL_NAME>
1-chloroethanesulfonic acid
> <PUBCHEM_IUPAC_INCHI>
InChI=1S/C2H5ClO3S/c1-2(3)7(4,5)6/h2H,1H3,(H,4,5,6)
> <PUBCHEM_IUPAC_INCHIKEY>
LHORZPMPPHTXFQ-UHFFFAOYSA-N
> <PUBCHEM_XLOGP3_AA>
0.2
> <PUBCHEM_EXACT_MASS>
143.9647929
> <PUBCHEM_MOLECULAR_FORMULA>
C2H5ClO3S
> <PUBCHEM_MOLECULAR_WEIGHT>
144.58
> <PUBCHEM_OPENEYE_CAN_SMILES>
CC(S(=O)(=O)O)Cl
> <PUBCHEM_OPENEYE_ISO_SMILES>
CC(S(=O)(=O)O)Cl
> <PUBCHEM_CACTVS_TPSA>
62.8
> <PUBCHEM_MONOISOTOPIC_WEIGHT>
143.9647929
> <PUBCHEM_TOTAL_CHARGE>
0
> <PUBCHEM_HEAVY_ATOM_COUNT>
7
> <PUBCHEM_ATOM_DEF_STEREO_COUNT>
0
> <PUBCHEM_ATOM_UDEF_STEREO_COUNT>
1
> <PUBCHEM_BOND_DEF_STEREO_COUNT>
0
> <PUBCHEM_BOND_UDEF_STEREO_COUNT>
0
> <PUBCHEM_ISOTOPIC_ATOM_COUNT>
0
> <PUBCHEM_COMPONENT_COUNT>
1
> <PUBCHEM_CACTVS_TAUTO_COUNT>
-1
> <PUBCHEM_COORDINATE_TYPE>
1
5
255
> <PUBCHEM_BONDANNOTATIONS>
6  1  3
$$$$
