517112
  -OEChem-10302200292D
 39 42  0     1  0  0  0  0  0999 V2000
    7.2785   -3.0614    0.0000 I   0  0  0  0  0  0  0  0  0  0  0  0
    3.7817   -3.0614    0.0000 I   0  0  0  0  0  0  0  0  0  0  0  0
    5.5301   -2.0268    0.0000 O   0  0  0  0  0  0  0  0  0  0  0  0
    9.0602   -2.0510    0.0000 O   0  0  0  0  0  0  0  0  0  0  0  0
    2.0000   -2.0510    0.0000 O   0  0  0  0  0  0  0  0  0  0  0  0
    3.3373    2.5866    0.0000 O   0  0  0  0  0  0  0  0  0  0  0  0
    3.0365    0.8807    0.0000 O   0  0  0  0  0  0  0  0  0  0  0  0
    6.3961   -0.5268    0.0000 C   0  0  3  0  0  0  0  0  0  0  0  0
    6.3961   -1.5268    0.0000 C   0  0  3  0  0  0  0  0  0  0  0  0
    5.5301   -0.0268    0.0000 C   0  0  0  0  0  0  0  0  0  0  0  0
    4.6641   -0.5268    0.0000 C   0  0  0  0  0  0  0  0  0  0  0  0
    7.2901    0.0078    0.0000 C   0  0  0  0  0  0  0  0  0  0  0  0
    4.6641   -1.5268    0.0000 C   0  0  0  0  0  0  0  0  0  0  0  0
    7.2901   -2.0615    0.0000 C   0  0  0  0  0  0  0  0  0  0  0  0
    5.5301    0.9732    0.0000 C   0  0  0  0  0  0  0  0  0  0  0  0
    8.1962   -0.5060    0.0000 C   0  0  0  0  0  0  0  0  0  0  0  0
    8.1962   -1.5477    0.0000 C   0  0  0  0  0  0  0  0  0  0  0  0
    3.7702    0.0078    0.0000 C   0  0  0  0  0  0  0  0  0  0  0  0
    4.6641    1.4732    0.0000 C   0  0  0  0  0  0  0  0  0  0  0  0
    3.7702   -2.0615    0.0000 C   0  0  0  0  0  0  0  0  0  0  0  0
    6.3961    1.4732    0.0000 C   0  0  0  0  0  0  0  0  0  0  0  0
    2.8641   -0.5060    0.0000 C   0  0  0  0  0  0  0  0  0  0  0  0
    2.8641   -1.5477    0.0000 C   0  0  0  0  0  0  0  0  0  0  0  0
    4.6641    2.4732    0.0000 C   0  0  0  0  0  0  0  0  0  0  0  0
    6.3961    2.4732    0.0000 C   0  0  0  0  0  0  0  0  0  0  0  0
    5.5301    2.9732    0.0000 C   0  0  0  0  0  0  0  0  0  0  0  0
    3.6793    1.6468    0.0000 C   0  0  0  0  0  0  0  0  0  0  0  0
    6.3914    0.0931    0.0000 H   0  0  0  0  0  0  0  0  0  0  0  0
    6.3914   -2.1468    0.0000 H   0  0  0  0  0  0  0  0  0  0  0  0
    7.2829    0.6278    0.0000 H   0  0  0  0  0  0  0  0  0  0  0  0
    8.7319   -0.1940    0.0000 H   0  0  0  0  0  0  0  0  0  0  0  0
    3.7773    0.6278    0.0000 H   0  0  0  0  0  0  0  0  0  0  0  0
    6.9331    1.1631    0.0000 H   0  0  0  0  0  0  0  0  0  0  0  0
    2.3284   -0.1940    0.0000 H   0  0  0  0  0  0  0  0  0  0  0  0
    4.1272    2.7832    0.0000 H   0  0  0  0  0  0  0  0  0  0  0  0
    6.9331    2.7832    0.0000 H   0  0  0  0  0  0  0  0  0  0  0  0
    5.5301    3.5932    0.0000 H   0  0  0  0  0  0  0  0  0  0  0  0
    9.5984   -1.7431    0.0000 H   0  0  0  0  0  0  0  0  0  0  0  0
    3.7358    3.0614    0.0000 H   0  0  0  0  0  0  0  0  0  0  0  0
  1 14  1  0  0  0  0
  2 20  1  0  0  0  0
  3  9  1  0  0  0  0
  3 13  1  0  0  0  0
  4 17  1  0  0  0  0
  4 38  1  0  0  0  0
  5 23  2  0  0  0  0
  6 27  1  0  0  0  0
  6 39  1  0  0  0  0
  7 27  2  0  0  0  0
  8  9  1  0  0  0  0
  8 10  1  0  0  0  0
  8 12  1  0  0  0  0
  8 28  1  0  0  0  0
  9 14  1  0  0  0  0
  9 29  1  0  0  0  0
 10 11  2  0  0  0  0
 10 15  1  0  0  0  0
 11 13  1  0  0  0  0
 11 18  1  0  0  0  0
 12 16  2  0  0  0  0
 12 30  1  0  0  0  0
 13 20  2  0  0  0  0
 14 17  2  0  0  0  0
 15 19  1  0  0  0  0
 15 21  2  0  0  0  0
 16 17  1  0  0  0  0
 16 31  1  0  0  0  0
 18 22  2  0  0  0  0
 18 32  1  0  0  0  0
 19 24  2  0  0  0  0
 19 27  1  0  0  0  0
 20 23  1  0  0  0  0
 21 25  1  0  0  0  0
 21 33  1  0  0  0  0
 22 23  1  0  0  0  0
 22 34  1  0  0  0  0
 24 26  1  0  0  0  0
 24 35  1  0  0  0  0
 25 26  2  0  0  0  0
 25 36  1  0  0  0  0
 26 37  1  0  0  0  0
M  END
> <PUBCHEM_COMPOUND_CID>
517112
> <PUBCHEM_COMPOUND_CANONICALIZED>
1
> <PUBCHEM_CACTVS_COMPLEXITY>
877
> <PUBCHEM_CACTVS_HBOND_ACCEPTOR>
5
> <PUBCHEM_CACTVS_HBOND_DONOR>
2
> <PUBCHEM_CACTVS_ROTATABLE_BOND>
2
> <PUBCHEM_CACTVS_SUBSKEYS>
AAADccB4OAAAAwAAAAAAAAAAAAAAAAAAAAAwQIEAAAAAAACBAAAAGgAgCAAADRSimAIwCIAABgCIAqDSCAACCAAkIAAIiAEACMgIJjKANRCCcQAkwAEIuYeIyPCOgAAAAAAQAAAAAAAAACAAAAAAAAAAAA==
> <PUBCHEM_IUPAC_OPENEYE_NAME>
2-(3-hydroxy-4,5-diiodo-6-oxo-4a,9a-dihydroxanthen-9-yl)benzoic acid
> <PUBCHEM_IUPAC_CAS_NAME>
2-(3-hydroxy-4,5-diiodo-6-oxo-4a,9a-dihydroxanthen-9-yl)benzoic acid
> <PUBCHEM_IUPAC_NAME_MARKUP>
2-(3-hydroxy-4,5-diiodo-6-oxo-4<I>a</I>,9<I>a</I>-dihydroxanthen-9-yl)benzoic acid
> <PUBCHEM_IUPAC_NAME>
2-(3-hydroxy-4,5-diiodo-6-oxo-4a,9a-dihydroxanthen-9-yl)benzoic acid
> <PUBCHEM_IUPAC_SYSTEMATIC_NAME>
2-[4,5-bis(iodanyl)-3-oxidanyl-6-oxidanylidene-4a,9a-dihydroxanthen-9-yl]benzoic acid
> <PUBCHEM_IUPAC_TRADITIONAL_NAME>
2-(3-hydroxy-4,5-diiodo-6-keto-4a,9a-dihydroxanthen-9-yl)benzoic acid
> <PUBCHEM_IUPAC_INCHI>
InChI=1S/C20H12I2O5/c21-16-13(23)7-5-11-15(9-3-1-2-4-10(9)20(25)26)12-6-8-14(24)17(22)19(12)27-18(11)16/h1-8,11,18,23H,(H,25,26)
> <PUBCHEM_IUPAC_INCHIKEY>
SGBGBWVDANLPDL-UHFFFAOYSA-N
> <PUBCHEM_XLOGP3_AA>
2.8
> <PUBCHEM_EXACT_MASS>
585.87742
> <PUBCHEM_MOLECULAR_FORMULA>
C20H12I2O5
> <PUBCHEM_MOLECULAR_WEIGHT>
586.1
> <PUBCHEM_OPENEYE_CAN_SMILES>
C1=CC=C(C(=C1)C2=C3C=CC(=O)C(=C3OC4C2C=CC(=C4I)O)I)C(=O)O
> <PUBCHEM_OPENEYE_ISO_SMILES>
C1=CC=C(C(=C1)C2=C3C=CC(=O)C(=C3OC4C2C=CC(=C4I)O)I)C(=O)O
> <PUBCHEM_CACTVS_TPSA>
83.8
> <PUBCHEM_MONOISOTOPIC_WEIGHT>
585.87742
> <PUBCHEM_TOTAL_CHARGE>
0
> <PUBCHEM_HEAVY_ATOM_COUNT>
27
> <PUBCHEM_ATOM_DEF_STEREO_COUNT>
0
> <PUBCHEM_ATOM_UDEF_STEREO_COUNT>
2
> <PUBCHEM_BOND_DEF_STEREO_COUNT>
0
> <PUBCHEM_BOND_UDEF_STEREO_COUNT>
0
> <PUBCHEM_ISOTOPIC_ATOM_COUNT>
0
> <PUBCHEM_COMPONENT_COUNT>
1
> <PUBCHEM_CACTVS_TAUTO_COUNT>
-1
> <PUBCHEM_COORDINATE_TYPE>
1
5
255
> <PUBCHEM_BONDANNOTATIONS>
15  19  8
15  21  8
19  24  8
21  25  8
24  26  8
25  26  8
8  12  3
9  14  3
$$$$
