517175
  -OEChem-10302200292D
 28 25  0     1  0  0  0  0  0999 V2000
    0.0000    3.9050    0.0000 Cl  0  0  0  0  0  0  0  0  0  0  0  0
    4.8058    0.0000    0.0000 Cl  0  0  0  0  0  0  0  0  0  0  0  0
    7.0747    6.8100    0.0000 O   0  0  0  0  0  0  0  0  0  0  0  0
    6.2087    8.3100    0.0000 O   0  0  0  0  0  0  0  0  0  0  0  0
    4.4766    7.3100    0.0000 N   0  0  0  0  0  0  0  0  0  0  0  0
    3.6106    2.8100    0.0000 N   0  0  0  0  0  0  0  0  0  0  0  0
    4.4766    5.3100    0.0000 C   0  0  0  0  0  0  0  0  0  0  0  0
    5.3426    5.8100    0.0000 C   0  0  0  0  0  0  0  0  0  0  0  0
    4.4766    4.3100    0.0000 C   0  0  0  0  0  0  0  0  0  0  0  0
    5.3426    6.8100    0.0000 C   0  0  3  0  0  0  0  0  0  0  0  0
    3.6106    3.8100    0.0000 C   0  0  0  0  0  0  0  0  0  0  0  0
    6.2087    7.3100    0.0000 C   0  0  0  0  0  0  0  0  0  0  0  0
    4.2646    5.8926    0.0000 H   0  0  0  0  0  0  0  0  0  0  0  0
    3.8660    5.2023    0.0000 H   0  0  0  0  0  0  0  0  0  0  0  0
    5.5547    5.2274    0.0000 H   0  0  0  0  0  0  0  0  0  0  0  0
    5.9532    5.9177    0.0000 H   0  0  0  0  0  0  0  0  0  0  0  0
    4.6887    3.7274    0.0000 H   0  0  0  0  0  0  0  0  0  0  0  0
    5.0872    4.4177    0.0000 H   0  0  0  0  0  0  0  0  0  0  0  0
    5.3426    7.4300    0.0000 H   0  0  0  0  0  0  0  0  0  0  0  0
    3.3985    4.3926    0.0000 H   0  0  0  0  0  0  0  0  0  0  0  0
    3.0000    3.7023    0.0000 H   0  0  0  0  0  0  0  0  0  0  0  0
    3.9397    7.0000    0.0000 H   0  0  0  0  0  0  0  0  0  0  0  0
    4.4766    7.9300    0.0000 H   0  0  0  0  0  0  0  0  0  0  0  0
    3.0737    2.5000    0.0000 H   0  0  0  0  0  0  0  0  0  0  0  0
    4.1475    2.5000    0.0000 H   0  0  0  0  0  0  0  0  0  0  0  0
    7.6116    7.1200    0.0000 H   0  0  0  0  0  0  0  0  0  0  0  0
    1.0000    3.9050    0.0000 H   0  0  0  0  0  0  0  0  0  0  0  0
    5.8058    0.0000    0.0000 H   0  0  0  0  0  0  0  0  0  0  0  0
  1 27  1  0  0  0  0
  2 28  1  0  0  0  0
  3 12  1  0  0  0  0
  3 26  1  0  0  0  0
  4 12  2  0  0  0  0
  5 10  1  0  0  0  0
  5 22  1  0  0  0  0
  5 23  1  0  0  0  0
  6 11  1  0  0  0  0
  6 24  1  0  0  0  0
  6 25  1  0  0  0  0
  7  8  1  0  0  0  0
  7  9  1  0  0  0  0
  7 13  1  0  0  0  0
  7 14  1  0  0  0  0
  8 10  1  0  0  0  0
  8 15  1  0  0  0  0
  8 16  1  0  0  0  0
  9 11  1  0  0  0  0
  9 17  1  0  0  0  0
  9 18  1  0  0  0  0
 10 12  1  0  0  0  0
 10 19  1  0  0  0  0
 11 20  1  0  0  0  0
 11 21  1  0  0  0  0
M  END
> <PUBCHEM_COMPOUND_CID>
517175
> <PUBCHEM_COMPOUND_CANONICALIZED>
1
> <PUBCHEM_CACTVS_COMPLEXITY>
106
> <PUBCHEM_CACTVS_HBOND_ACCEPTOR>
4
> <PUBCHEM_CACTVS_HBOND_DONOR>
5
> <PUBCHEM_CACTVS_ROTATABLE_BOND>
5
> <PUBCHEM_CACTVS_SUBSKEYS>
AAADceBjMAAGAAAAAAAAAAAAAAAAAAAAAAAAAAAAAAAAAAAAAAAAHgAQCAAACCjBgAQACABAAgAIAACQCAAAAAAAAAAAAIGAAAACABIAgAAAQAAEEAAAAAGYSAAAAAAAAAAAAAAAAAAAAAAAAAAAAAAAAA==
> <PUBCHEM_IUPAC_OPENEYE_NAME>
2,6-diaminohexanoic acid;dihydrochloride
> <PUBCHEM_IUPAC_CAS_NAME>
2,6-diaminohexanoic acid;dihydrochloride
> <PUBCHEM_IUPAC_NAME_MARKUP>
2,6-diaminohexanoic acid;dihydrochloride
> <PUBCHEM_IUPAC_NAME>
2,6-diaminohexanoic acid;dihydrochloride
> <PUBCHEM_IUPAC_SYSTEMATIC_NAME>
2,6-bis(azanyl)hexanoic acid;dihydrochloride
> <PUBCHEM_IUPAC_TRADITIONAL_NAME>
2,6-diaminohexanoic acid;dihydrochloride
> <PUBCHEM_IUPAC_INCHI>
InChI=1S/C6H14N2O2.2ClH/c7-4-2-1-3-5(8)6(9)10;;/h5H,1-4,7-8H2,(H,9,10);2*1H
> <PUBCHEM_IUPAC_INCHIKEY>
JBBURJFZIMRPCZ-UHFFFAOYSA-N
> <PUBCHEM_EXACT_MASS>
218.0588831
> <PUBCHEM_MOLECULAR_FORMULA>
C6H16Cl2N2O2
> <PUBCHEM_MOLECULAR_WEIGHT>
219.11
> <PUBCHEM_OPENEYE_CAN_SMILES>
C(CCN)CC(C(=O)O)N.Cl.Cl
> <PUBCHEM_OPENEYE_ISO_SMILES>
C(CCN)CC(C(=O)O)N.Cl.Cl
> <PUBCHEM_CACTVS_TPSA>
89.3
> <PUBCHEM_MONOISOTOPIC_WEIGHT>
218.0588831
> <PUBCHEM_TOTAL_CHARGE>
0
> <PUBCHEM_HEAVY_ATOM_COUNT>
12
> <PUBCHEM_ATOM_DEF_STEREO_COUNT>
0
> <PUBCHEM_ATOM_UDEF_STEREO_COUNT>
1
> <PUBCHEM_BOND_DEF_STEREO_COUNT>
0
> <PUBCHEM_BOND_UDEF_STEREO_COUNT>
0
> <PUBCHEM_ISOTOPIC_ATOM_COUNT>
0
> <PUBCHEM_COMPONENT_COUNT>
3
> <PUBCHEM_CACTVS_TAUTO_COUNT>
1
> <PUBCHEM_COORDINATE_TYPE>
1
5
255
> <PUBCHEM_BONDANNOTATIONS>
10  5  3
$$$$
