517194
  -OEChem-10302200292D
 24 24  0     1  0  0  0  0  0999 V2000
    3.8313    1.8582    0.0000 O   0  0  0  0  0  0  0  0  0  0  0  0
    6.6791   -0.2109    0.0000 O   0  0  0  0  0  0  0  0  0  0  0  0
    4.9190   -0.4897    0.0000 N   0  0  0  0  0  0  0  0  0  0  0  0
    5.4190    1.0492    0.0000 N   0  0  0  0  0  0  0  0  0  0  0  0
    4.1100    0.0981    0.0000 C   0  0  3  0  0  0  0  0  0  0  0  0
    2.9511   -1.1890    0.0000 C   0  0  0  0  0  0  0  0  0  0  0  0
    3.1590   -0.2109    0.0000 C   0  0  0  0  0  0  0  0  0  0  0  0
    4.4190    1.0492    0.0000 C   0  0  0  0  0  0  0  0  0  0  0  0
    2.0000   -1.4981    0.0000 C   0  0  0  0  0  0  0  0  0  0  0  0
    3.6942   -1.8582    0.0000 C   0  0  0  0  0  0  0  0  0  0  0  0
    5.7281    0.0981    0.0000 C   0  0  0  0  0  0  0  0  0  0  0  0
    2.4158    0.4582    0.0000 C   0  0  0  0  0  0  0  0  0  0  0  0
    4.0130   -0.5143    0.0000 H   0  0  0  0  0  0  0  0  0  0  0  0
    2.8222   -1.7955    0.0000 H   0  0  0  0  0  0  0  0  0  0  0  0
    4.9190   -1.1097    0.0000 H   0  0  0  0  0  0  0  0  0  0  0  0
    1.8084   -0.9084    0.0000 H   0  0  0  0  0  0  0  0  0  0  0  0
    1.4103   -1.6897    0.0000 H   0  0  0  0  0  0  0  0  0  0  0  0
    2.1916   -2.0877    0.0000 H   0  0  0  0  0  0  0  0  0  0  0  0
    3.2793   -2.3189    0.0000 H   0  0  0  0  0  0  0  0  0  0  0  0
    4.1550   -2.2730    0.0000 H   0  0  0  0  0  0  0  0  0  0  0  0
    4.1091   -1.3974    0.0000 H   0  0  0  0  0  0  0  0  0  0  0  0
    5.7835    1.5508    0.0000 H   0  0  0  0  0  0  0  0  0  0  0  0
    2.5447    1.0647    0.0000 H   0  0  0  0  0  0  0  0  0  0  0  0
    1.8262    0.2666    0.0000 H   0  0  0  0  0  0  0  0  0  0  0  0
  1  8  2  0  0  0  0
  2 11  2  0  0  0  0
  3  5  1  0  0  0  0
  3 11  1  0  0  0  0
  3 15  1  0  0  0  0
  4  8  1  0  0  0  0
  4 11  1  0  0  0  0
  4 22  1  0  0  0  0
  5  7  1  0  0  0  0
  5  8  1  0  0  0  0
  5 13  1  0  0  0  0
  6  7  1  0  0  0  0
  6  9  1  0  0  0  0
  6 10  1  0  0  0  0
  6 14  1  0  0  0  0
  7 12  2  0  0  0  0
  9 16  1  0  0  0  0
  9 17  1  0  0  0  0
  9 18  1  0  0  0  0
 10 19  1  0  0  0  0
 10 20  1  0  0  0  0
 10 21  1  0  0  0  0
 12 23  1  0  0  0  0
 12 24  1  0  0  0  0
M  END
> <PUBCHEM_COMPOUND_CID>
517194
> <PUBCHEM_COMPOUND_CANONICALIZED>
1
> <PUBCHEM_CACTVS_COMPLEXITY>
245
> <PUBCHEM_CACTVS_HBOND_ACCEPTOR>
2
> <PUBCHEM_CACTVS_HBOND_DONOR>
2
> <PUBCHEM_CACTVS_ROTATABLE_BOND>
2
> <PUBCHEM_CACTVS_SUBSKEYS>
AAADccBzMAAAAAAAAAAAAAAAAAAAAWAAAAAAAAAAAAAAAAAAAAAAHgAQAAAADSjBgAQDAALAAACIAgFSEACAAAAgAAAAAIGIAAiAQBIAgSAUAAAIFyIAAAAYAAAMAAAAAAAAAAAAAAAAAAAAAAAAAAAAAA==
> <PUBCHEM_IUPAC_OPENEYE_NAME>
5-(2-methyl-1-methylene-propyl)imidazolidine-2,4-dione
> <PUBCHEM_IUPAC_CAS_NAME>
5-(3-methylbut-1-en-2-yl)imidazolidine-2,4-dione
> <PUBCHEM_IUPAC_NAME_MARKUP>
5-(3-methylbut-1-en-2-yl)imidazolidine-2,4-dione
> <PUBCHEM_IUPAC_NAME>
5-(3-methylbut-1-en-2-yl)imidazolidine-2,4-dione
> <PUBCHEM_IUPAC_SYSTEMATIC_NAME>
5-(3-methylbut-1-en-2-yl)imidazolidine-2,4-dione
> <PUBCHEM_IUPAC_TRADITIONAL_NAME>
5-(1-isopropylvinyl)hydantoin
> <PUBCHEM_IUPAC_INCHI>
InChI=1S/C8H12N2O2/c1-4(2)5(3)6-7(11)10-8(12)9-6/h4,6H,3H2,1-2H3,(H2,9,10,11,12)
> <PUBCHEM_IUPAC_INCHIKEY>
GNYHPTLIBVGYBY-UHFFFAOYSA-N
> <PUBCHEM_XLOGP3_AA>
1.2
> <PUBCHEM_EXACT_MASS>
168.089877630
> <PUBCHEM_MOLECULAR_FORMULA>
C8H12N2O2
> <PUBCHEM_MOLECULAR_WEIGHT>
168.19
> <PUBCHEM_OPENEYE_CAN_SMILES>
CC(C)C(=C)C1C(=O)NC(=O)N1
> <PUBCHEM_OPENEYE_ISO_SMILES>
CC(C)C(=C)C1C(=O)NC(=O)N1
> <PUBCHEM_CACTVS_TPSA>
58.2
> <PUBCHEM_MONOISOTOPIC_WEIGHT>
168.089877630
> <PUBCHEM_TOTAL_CHARGE>
0
> <PUBCHEM_HEAVY_ATOM_COUNT>
12
> <PUBCHEM_ATOM_DEF_STEREO_COUNT>
0
> <PUBCHEM_ATOM_UDEF_STEREO_COUNT>
1
> <PUBCHEM_BOND_DEF_STEREO_COUNT>
0
> <PUBCHEM_BOND_UDEF_STEREO_COUNT>
0
> <PUBCHEM_ISOTOPIC_ATOM_COUNT>
0
> <PUBCHEM_COMPONENT_COUNT>
1
> <PUBCHEM_CACTVS_TAUTO_COUNT>
-1
> <PUBCHEM_COORDINATE_TYPE>
1
5
255
> <PUBCHEM_BONDANNOTATIONS>
5  7  3
$$$$
