517195
  -OEChem-10302200292D
 49 50  0     1  0  0  0  0  0999 V2000
    2.8660    1.0849    0.0000 O   0  0  0  0  0  0  0  0  0  0  0  0
    6.3301    1.0849    0.0000 O   0  0  0  0  0  0  0  0  0  0  0  0
    4.5981   -1.9151    0.0000 O   0  0  0  0  0  0  0  0  0  0  0  0
    2.0000   -5.4151    0.0000 O   0  5  0  0  0  0  0  0  0  0  0  0
    3.7320   -5.4151    0.0000 O   0  0  0  0  0  0  0  0  0  0  0  0
    3.7320   -0.4151    0.0000 N   0  0  0  0  0  0  0  0  0  0  0  0
    5.4641   -0.4151    0.0000 N   0  0  0  0  0  0  0  0  0  0  0  0
    2.8660   -4.9151    0.0000 N   0  3  0  0  0  0  0  0  0  0  0  0
    4.5981    1.0849    0.0000 C   0  0  3  0  0  0  0  0  0  0  0  0
    5.0981    1.9510    0.0000 C   0  0  0  0  0  0  0  0  0  0  0  0
    4.0981    1.9510    0.0000 C   0  0  0  0  0  0  0  0  0  0  0  0
    4.5981    2.8170    0.0000 C   0  0  0  0  0  0  0  0  0  0  0  0
    3.7320    0.5849    0.0000 C   0  0  0  0  0  0  0  0  0  0  0  0
    5.4641    0.5849    0.0000 C   0  0  0  0  0  0  0  0  0  0  0  0
    5.0981    3.6830    0.0000 C   0  0  0  0  0  0  0  0  0  0  0  0
    3.0981    1.9510    0.0000 C   0  0  0  0  0  0  0  0  0  0  0  0
    4.5981   -0.9151    0.0000 C   0  0  0  0  0  0  0  0  0  0  0  0
    2.8660   -0.9151    0.0000 C   0  0  0  0  0  0  0  0  0  0  0  0
    4.5981    4.5490    0.0000 C   0  0  0  0  0  0  0  0  0  0  0  0
    2.8660   -1.9151    0.0000 C   0  0  0  0  0  0  0  0  0  0  0  0
    5.0981    5.4151    0.0000 C   0  0  0  0  0  0  0  0  0  0  0  0
    3.7320   -2.4151    0.0000 C   0  0  0  0  0  0  0  0  0  0  0  0
    2.0000   -2.4151    0.0000 C   0  0  0  0  0  0  0  0  0  0  0  0
    3.7320   -3.4151    0.0000 C   0  0  0  0  0  0  0  0  0  0  0  0
    2.0000   -3.4151    0.0000 C   0  0  0  0  0  0  0  0  0  0  0  0
    2.8660   -3.9151    0.0000 C   0  0  0  0  0  0  0  0  0  0  0  0
    5.5730    1.5524    0.0000 H   0  0  0  0  0  0  0  0  0  0  0  0
    5.5730    2.3495    0.0000 H   0  0  0  0  0  0  0  0  0  0  0  0
    4.6807    2.1630    0.0000 H   0  0  0  0  0  0  0  0  0  0  0  0
    3.9904    2.5615    0.0000 H   0  0  0  0  0  0  0  0  0  0  0  0
    4.1231    3.2155    0.0000 H   0  0  0  0  0  0  0  0  0  0  0  0
    4.1231    2.4185    0.0000 H   0  0  0  0  0  0  0  0  0  0  0  0
    5.5730    3.2845    0.0000 H   0  0  0  0  0  0  0  0  0  0  0  0
    5.5730    4.0815    0.0000 H   0  0  0  0  0  0  0  0  0  0  0  0
    3.0981    2.5710    0.0000 H   0  0  0  0  0  0  0  0  0  0  0  0
    2.4781    1.9510    0.0000 H   0  0  0  0  0  0  0  0  0  0  0  0
    3.0981    1.3310    0.0000 H   0  0  0  0  0  0  0  0  0  0  0  0
    6.0010   -0.7251    0.0000 H   0  0  0  0  0  0  0  0  0  0  0  0
    2.6540   -0.3325    0.0000 H   0  0  0  0  0  0  0  0  0  0  0  0
    2.2554   -1.0227    0.0000 H   0  0  0  0  0  0  0  0  0  0  0  0
    4.1231    4.9476    0.0000 H   0  0  0  0  0  0  0  0  0  0  0  0
    4.1231    4.1505    0.0000 H   0  0  0  0  0  0  0  0  0  0  0  0
    5.6350    5.1051    0.0000 H   0  0  0  0  0  0  0  0  0  0  0  0
    5.4081    5.9520    0.0000 H   0  0  0  0  0  0  0  0  0  0  0  0
    4.5611    5.7251    0.0000 H   0  0  0  0  0  0  0  0  0  0  0  0
    4.2690   -2.1051    0.0000 H   0  0  0  0  0  0  0  0  0  0  0  0
    1.4631   -2.1051    0.0000 H   0  0  0  0  0  0  0  0  0  0  0  0
    4.2690   -3.7251    0.0000 H   0  0  0  0  0  0  0  0  0  0  0  0
    1.4631   -3.7251    0.0000 H   0  0  0  0  0  0  0  0  0  0  0  0
  1 13  2  0  0  0  0
  2 14  2  0  0  0  0
  3 17  2  0  0  0  0
  4  8  1  0  0  0  0
  5  8  2  0  0  0  0
  6 13  1  0  0  0  0
  6 17  1  0  0  0  0
  6 18  1  0  0  0  0
  7 14  1  0  0  0  0
  7 17  1  0  0  0  0
  7 38  1  0  0  0  0
  8 26  1  0  0  0  0
  9 10  1  0  0  0  0
  9 11  1  0  0  0  0
  9 13  1  0  0  0  0
  9 14  1  0  0  0  0
 10 12  1  0  0  0  0
 10 27  1  0  0  0  0
 10 28  1  0  0  0  0
 11 16  1  0  0  0  0
 11 29  1  0  0  0  0
 11 30  1  0  0  0  0
 12 15  1  0  0  0  0
 12 31  1  0  0  0  0
 12 32  1  0  0  0  0
 15 19  1  0  0  0  0
 15 33  1  0  0  0  0
 15 34  1  0  0  0  0
 16 35  1  0  0  0  0
 16 36  1  0  0  0  0
 16 37  1  0  0  0  0
 18 20  1  0  0  0  0
 18 39  1  0  0  0  0
 18 40  1  0  0  0  0
 19 21  1  0  0  0  0
 19 41  1  0  0  0  0
 19 42  1  0  0  0  0
 20 22  2  0  0  0  0
 20 23  1  0  0  0  0
 21 43  1  0  0  0  0
 21 44  1  0  0  0  0
 21 45  1  0  0  0  0
 22 24  1  0  0  0  0
 22 46  1  0  0  0  0
 23 25  2  0  0  0  0
 23 47  1  0  0  0  0
 24 26  2  0  0  0  0
 24 48  1  0  0  0  0
 25 26  1  0  0  0  0
 25 49  1  0  0  0  0
M  CHG  2   4  -1   8   1
M  END
> <PUBCHEM_COMPOUND_CID>
517195
> <PUBCHEM_COMPOUND_CANONICALIZED>
1
> <PUBCHEM_CACTVS_COMPLEXITY>
566
> <PUBCHEM_CACTVS_HBOND_ACCEPTOR>
5
> <PUBCHEM_CACTVS_HBOND_DONOR>
1
> <PUBCHEM_CACTVS_ROTATABLE_BOND>
7
> <PUBCHEM_CACTVS_SUBSKEYS>
AAADceB7OAAAAAAAAAAAAAAAAAAAAAAAAAA8QAAAAAAAAAABAAAAHgAUAAAADgjBmAQzwIPQQACJAiVSUwCCAAAgAgAoiAEIZIqIIDqI0ZGEIAhohyKIyAcYiMCPCAAAAAAAAAAQAAAAAAAAAAAAAAAAAA==
> <PUBCHEM_IUPAC_OPENEYE_NAME>
5-ethyl-1-[(4-nitrophenyl)methyl]-5-pentyl-hexahydropyrimidine-2,4,6-trione
> <PUBCHEM_IUPAC_CAS_NAME>
5-ethyl-1-[(4-nitrophenyl)methyl]-5-pentyl-1,3-diazinane-2,4,6-trione
> <PUBCHEM_IUPAC_NAME_MARKUP>
5-ethyl-1-[(4-nitrophenyl)methyl]-5-pentyl-1,3-diazinane-2,4,6-trione
> <PUBCHEM_IUPAC_NAME>
5-ethyl-1-[(4-nitrophenyl)methyl]-5-pentyl-1,3-diazinane-2,4,6-trione
> <PUBCHEM_IUPAC_SYSTEMATIC_NAME>
5-ethyl-1-[(4-nitrophenyl)methyl]-5-pentyl-1,3-diazinane-2,4,6-trione
> <PUBCHEM_IUPAC_TRADITIONAL_NAME>
5-amyl-5-ethyl-1-(4-nitrobenzyl)barbituric acid
> <PUBCHEM_IUPAC_INCHI>
InChI=1S/C18H23N3O5/c1-3-5-6-11-18(4-2)15(22)19-17(24)20(16(18)23)12-13-7-9-14(10-8-13)21(25)26/h7-10H,3-6,11-12H2,1-2H3,(H,19,22,24)
> <PUBCHEM_IUPAC_INCHIKEY>
LQJFANKQMOSOLM-UHFFFAOYSA-N
> <PUBCHEM_XLOGP3_AA>
3.6
> <PUBCHEM_EXACT_MASS>
361.16377084
> <PUBCHEM_MOLECULAR_FORMULA>
C18H23N3O5
> <PUBCHEM_MOLECULAR_WEIGHT>
361.4
> <PUBCHEM_OPENEYE_CAN_SMILES>
CCCCCC1(C(=O)NC(=O)N(C1=O)CC2=CC=C(C=C2)[N+](=O)[O-])CC
> <PUBCHEM_OPENEYE_ISO_SMILES>
CCCCCC1(C(=O)NC(=O)N(C1=O)CC2=CC=C(C=C2)[N+](=O)[O-])CC
> <PUBCHEM_CACTVS_TPSA>
112
> <PUBCHEM_MONOISOTOPIC_WEIGHT>
361.16377084
> <PUBCHEM_TOTAL_CHARGE>
0
> <PUBCHEM_HEAVY_ATOM_COUNT>
26
> <PUBCHEM_ATOM_DEF_STEREO_COUNT>
0
> <PUBCHEM_ATOM_UDEF_STEREO_COUNT>
1
> <PUBCHEM_BOND_DEF_STEREO_COUNT>
0
> <PUBCHEM_BOND_UDEF_STEREO_COUNT>
0
> <PUBCHEM_ISOTOPIC_ATOM_COUNT>
0
> <PUBCHEM_COMPONENT_COUNT>
1
> <PUBCHEM_CACTVS_TAUTO_COUNT>
-1
> <PUBCHEM_COORDINATE_TYPE>
1
5
255
> <PUBCHEM_BONDANNOTATIONS>
20  22  8
20  23  8
22  24  8
23  25  8
24  26  8
25  26  8
9  11  3
$$$$
