517197
  -OEChem-10302200292D
 24 24  0     1  0  0  0  0  0999 V2000
    2.8660   -2.7500    0.0000 O   0  0  0  0  0  0  0  0  0  0  0  0
    3.7320    2.7500    0.0000 N   0  0  0  0  0  0  0  0  0  0  0  0
    2.8660    1.2500    0.0000 C   0  0  3  0  0  0  0  0  0  0  0  0
    2.8660    0.2500    0.0000 C   0  0  0  0  0  0  0  0  0  0  0  0
    3.7320    1.7500    0.0000 C   0  0  0  0  0  0  0  0  0  0  0  0
    2.0000    1.7500    0.0000 C   0  0  0  0  0  0  0  0  0  0  0  0
    2.0000   -0.2500    0.0000 C   0  0  0  0  0  0  0  0  0  0  0  0
    3.7320   -0.2500    0.0000 C   0  0  0  0  0  0  0  0  0  0  0  0
    2.0000   -1.2500    0.0000 C   0  0  0  0  0  0  0  0  0  0  0  0
    3.7320   -1.2500    0.0000 C   0  0  0  0  0  0  0  0  0  0  0  0
    2.8660   -1.7500    0.0000 C   0  0  0  0  0  0  0  0  0  0  0  0
    2.8660    1.8700    0.0000 H   0  0  0  0  0  0  0  0  0  0  0  0
    3.9441    1.1674    0.0000 H   0  0  0  0  0  0  0  0  0  0  0  0
    4.3426    1.8577    0.0000 H   0  0  0  0  0  0  0  0  0  0  0  0
    2.3100    2.2869    0.0000 H   0  0  0  0  0  0  0  0  0  0  0  0
    1.4631    2.0600    0.0000 H   0  0  0  0  0  0  0  0  0  0  0  0
    1.6900    1.2131    0.0000 H   0  0  0  0  0  0  0  0  0  0  0  0
    1.4631    0.0600    0.0000 H   0  0  0  0  0  0  0  0  0  0  0  0
    4.2690    0.0600    0.0000 H   0  0  0  0  0  0  0  0  0  0  0  0
    1.4631   -1.5600    0.0000 H   0  0  0  0  0  0  0  0  0  0  0  0
    4.2690   -1.5600    0.0000 H   0  0  0  0  0  0  0  0  0  0  0  0
    4.2690    3.0600    0.0000 H   0  0  0  0  0  0  0  0  0  0  0  0
    3.1951    3.0600    0.0000 H   0  0  0  0  0  0  0  0  0  0  0  0
    2.3291   -3.0600    0.0000 H   0  0  0  0  0  0  0  0  0  0  0  0
  1 11  1  0  0  0  0
  1 24  1  0  0  0  0
  2  5  1  0  0  0  0
  2 22  1  0  0  0  0
  2 23  1  0  0  0  0
  3  4  1  0  0  0  0
  3  5  1  0  0  0  0
  3  6  1  0  0  0  0
  3 12  1  0  0  0  0
  4  7  2  0  0  0  0
  4  8  1  0  0  0  0
  5 13  1  0  0  0  0
  5 14  1  0  0  0  0
  6 15  1  0  0  0  0
  6 16  1  0  0  0  0
  6 17  1  0  0  0  0
  7  9  1  0  0  0  0
  7 18  1  0  0  0  0
  8 10  2  0  0  0  0
  8 19  1  0  0  0  0
  9 11  2  0  0  0  0
  9 20  1  0  0  0  0
 10 11  1  0  0  0  0
 10 21  1  0  0  0  0
M  END
> <PUBCHEM_COMPOUND_CID>
517197
> <PUBCHEM_COMPOUND_CANONICALIZED>
1
> <PUBCHEM_CACTVS_COMPLEXITY>
108
> <PUBCHEM_CACTVS_HBOND_ACCEPTOR>
2
> <PUBCHEM_CACTVS_HBOND_DONOR>
2
> <PUBCHEM_CACTVS_ROTATABLE_BOND>
2
> <PUBCHEM_CACTVS_SUBSKEYS>
AAADccByIAAAAAAAAAAAAAAAAAAAAAAAAAAwAAAAAAAAAAABAAAAHgAQCAAADQTBmAQyBoBAAgCAAiBCAAACAAAgIAAIiIAGCIgIJiKCkROAcAAk0BEImAeQwNAOoAAAAAAAAABAAAAAAAAAAAAAAAAAAA==
> <PUBCHEM_IUPAC_OPENEYE_NAME>
4-(2-amino-1-methyl-ethyl)phenol
> <PUBCHEM_IUPAC_CAS_NAME>
4-(1-aminopropan-2-yl)phenol
> <PUBCHEM_IUPAC_NAME_MARKUP>
4-(1-aminopropan-2-yl)phenol
> <PUBCHEM_IUPAC_NAME>
4-(1-aminopropan-2-yl)phenol
> <PUBCHEM_IUPAC_SYSTEMATIC_NAME>
4-(1-azanylpropan-2-yl)phenol
> <PUBCHEM_IUPAC_TRADITIONAL_NAME>
4-(2-amino-1-methyl-ethyl)phenol
> <PUBCHEM_IUPAC_INCHI>
InChI=1S/C9H13NO/c1-7(6-10)8-2-4-9(11)5-3-8/h2-5,7,11H,6,10H2,1H3
> <PUBCHEM_IUPAC_INCHIKEY>
ZGYDQXZKRDEGFR-UHFFFAOYSA-N
> <PUBCHEM_XLOGP3>
1.4
> <PUBCHEM_EXACT_MASS>
151.099714038
> <PUBCHEM_MOLECULAR_FORMULA>
C9H13NO
> <PUBCHEM_MOLECULAR_WEIGHT>
151.21
> <PUBCHEM_OPENEYE_CAN_SMILES>
CC(CN)C1=CC=C(C=C1)O
> <PUBCHEM_OPENEYE_ISO_SMILES>
CC(CN)C1=CC=C(C=C1)O
> <PUBCHEM_CACTVS_TPSA>
46.2
> <PUBCHEM_MONOISOTOPIC_WEIGHT>
151.099714038
> <PUBCHEM_TOTAL_CHARGE>
0
> <PUBCHEM_HEAVY_ATOM_COUNT>
11
> <PUBCHEM_ATOM_DEF_STEREO_COUNT>
0
> <PUBCHEM_ATOM_UDEF_STEREO_COUNT>
1
> <PUBCHEM_BOND_DEF_STEREO_COUNT>
0
> <PUBCHEM_BOND_UDEF_STEREO_COUNT>
0
> <PUBCHEM_ISOTOPIC_ATOM_COUNT>
0
> <PUBCHEM_COMPONENT_COUNT>
1
> <PUBCHEM_CACTVS_TAUTO_COUNT>
2
> <PUBCHEM_COORDINATE_TYPE>
1
5
255
> <PUBCHEM_BONDANNOTATIONS>
10  11  8
3  6  3
4  7  8
4  8  8
7  9  8
8  10  8
9  11  8
$$$$
