517190
  -OEChem-10302200292D
 43 44  0     1  0  0  0  0  0999 V2000
    7.7634    0.2503    0.0000 Fe  0  2  0  0  0  0  0  0  0  0  0  0
    2.6691   -2.8178    0.0000 O   0  0  0  0  0  0  0  0  0  0  0  0
   12.5853    1.4965    0.0000 O   0  0  0  0  0  0  0  0  0  0  0  0
    4.6724   -1.5066    0.0000 O   0  0  0  0  0  0  0  0  0  0  0  0
   10.3188    0.7252    0.0000 O   0  0  0  0  0  0  0  0  0  0  0  0
    5.2076    0.1406    0.0000 O   0  0  0  0  0  0  0  0  0  0  0  0
    8.9919   -0.3881    0.0000 O   0  0  0  0  0  0  0  0  0  0  0  0
    2.9782   -1.8668    0.0000 C   0  0  3  0  0  0  0  0  0  0  0  0
   11.6456    1.8385    0.0000 C   0  0  3  0  0  0  0  0  0  0  0  0
    2.0000   -2.0747    0.0000 C   0  0  0  0  0  0  0  0  0  0  0  0
   12.4116    2.4813    0.0000 C   0  0  0  0  0  0  0  0  0  0  0  0
    3.7213   -1.1976    0.0000 C   0  0  0  0  0  0  0  0  0  0  0  0
   10.6608    1.6649    0.0000 C   0  0  0  0  0  0  0  0  0  0  0  0
    7.1756   -0.5587    0.0000 C   0  5  0  0  0  0  0  0  0  0  0  0
    7.6936    1.2478    0.0000 C   0  5  0  0  0  0  0  0  0  0  0  0
    6.3666   -1.1465    0.0000 C   0  0  0  0  0  0  0  0  0  0  0  0
    8.6912    1.3176    0.0000 C   0  0  0  0  0  0  0  0  0  0  0  0
    7.9846   -1.1465    0.0000 C   0  0  0  0  0  0  0  0  0  0  0  0
    7.3190    2.1750    0.0000 C   0  0  0  0  0  0  0  0  0  0  0  0
    5.4155   -0.8375    0.0000 C   0  0  0  0  0  0  0  0  0  0  0  0
    9.3340    0.5516    0.0000 C   0  0  0  0  0  0  0  0  0  0  0  0
    6.6756   -2.0976    0.0000 C   0  0  0  0  0  0  0  0  0  0  0  0
    8.9331    2.2879    0.0000 C   0  0  0  0  0  0  0  0  0  0  0  0
    7.6756   -2.0976    0.0000 C   0  0  0  0  0  0  0  0  0  0  0  0
    8.0850    2.8178    0.0000 C   0  0  0  0  0  0  0  0  0  0  0  0
    3.4981   -2.2044    0.0000 H   0  0  0  0  0  0  0  0  0  0  0  0
   11.5915    1.2209    0.0000 H   0  0  0  0  0  0  0  0  0  0  0  0
    1.7677   -1.4998    0.0000 H   0  0  0  0  0  0  0  0  0  0  0  0
    1.4742   -2.4032    0.0000 H   0  0  0  0  0  0  0  0  0  0  0  0
   12.9942    2.6934    0.0000 H   0  0  0  0  0  0  0  0  0  0  0  0
   12.1016    3.0183    0.0000 H   0  0  0  0  0  0  0  0  0  0  0  0
    4.0124   -0.6502    0.0000 H   0  0  0  0  0  0  0  0  0  0  0  0
    3.2327   -0.8159    0.0000 H   0  0  0  0  0  0  0  0  0  0  0  0
   10.6608    2.2849    0.0000 H   0  0  0  0  0  0  0  0  0  0  0  0
   10.0502    1.7726    0.0000 H   0  0  0  0  0  0  0  0  0  0  0  0
    6.6616   -0.2120    0.0000 H   0  0  0  0  0  0  0  0  0  0  0  0
    6.7664    0.8732    0.0000 H   0  0  0  0  0  0  0  0  0  0  0  0
    8.5742   -0.9549    0.0000 H   0  0  0  0  0  0  0  0  0  0  0  0
    6.7174    2.3250    0.0000 H   0  0  0  0  0  0  0  0  0  0  0  0
    6.3111   -2.5992    0.0000 H   0  0  0  0  0  0  0  0  0  0  0  0
    9.5079    2.5202    0.0000 H   0  0  0  0  0  0  0  0  0  0  0  0
    8.0400   -2.5992    0.0000 H   0  0  0  0  0  0  0  0  0  0  0  0
    8.0418    3.4363    0.0000 H   0  0  0  0  0  0  0  0  0  0  0  0
  2  8  1  0  0  0  0
  2 10  1  0  0  0  0
  3  9  1  0  0  0  0
  3 11  1  0  0  0  0
  4 12  1  0  0  0  0
  4 20  1  0  0  0  0
  5 13  1  0  0  0  0
  5 21  1  0  0  0  0
  6 20  2  0  0  0  0
  7 21  2  0  0  0  0
  8 10  1  0  0  0  0
  8 12  1  0  0  0  0
  8 26  1  0  0  0  0
  9 11  1  0  0  0  0
  9 13  1  0  0  0  0
  9 27  1  0  0  0  0
 10 28  1  0  0  0  0
 10 29  1  0  0  0  0
 11 30  1  0  0  0  0
 11 31  1  0  0  0  0
 12 32  1  0  0  0  0
 12 33  1  0  0  0  0
 13 34  1  0  0  0  0
 13 35  1  0  0  0  0
 14 16  1  0  0  0  0
 14 18  1  0  0  0  0
 14 36  1  0  0  0  0
 15 17  1  0  0  0  0
 15 19  1  0  0  0  0
 15 37  1  0  0  0  0
 16 20  1  0  0  0  0
 16 22  2  0  0  0  0
 17 21  1  0  0  0  0
 17 23  2  0  0  0  0
 18 24  2  0  0  0  0
 18 38  1  0  0  0  0
 19 25  2  0  0  0  0
 19 39  1  0  0  0  0
 22 24  1  0  0  0  0
 22 40  1  0  0  0  0
 23 25  1  0  0  0  0
 23 41  1  0  0  0  0
 24 42  1  0  0  0  0
 25 43  1  0  0  0  0
M  CHG  3   1   2  14  -1  15  -1
M  END
> <PUBCHEM_COMPOUND_CID>
517190
> <PUBCHEM_COMPOUND_CANONICALIZED>
1
> <PUBCHEM_CACTVS_COMPLEXITY>
403
> <PUBCHEM_CACTVS_HBOND_ACCEPTOR>
8
> <PUBCHEM_CACTVS_HBOND_DONOR>
0
> <PUBCHEM_CACTVS_ROTATABLE_BOND>
8
> <PUBCHEM_CACTVS_SUBSKEYS>
AAADceB4OAAAAAAgAAAAAAAAEiQAAYMAAAAAAAAAAAAAAAABQAAAGgAAAAAADBSgmAIwCIAABACIAiDSCAACAAAkAAAIiAEACMgJJjKANRiCMQAlwAEKqYeISAAOAAAAAAAAAAAAAAAAAAAAAAAAAAAAAA==
> <PUBCHEM_IUPAC_OPENEYE_NAME>
ferrous;oxiran-2-ylmethyl cyclopenta-1,3-diene-1-carboxylate
> <PUBCHEM_IUPAC_CAS_NAME>
1-cyclopenta-1,3-dienecarboxylic acid 2-oxiranylmethyl ester;iron(2+)
> <PUBCHEM_IUPAC_NAME_MARKUP>
iron(2+);oxiran-2-ylmethyl cyclopenta-1,3-diene-1-carboxylate
> <PUBCHEM_IUPAC_NAME>
iron(2+);oxiran-2-ylmethyl cyclopenta-1,3-diene-1-carboxylate
> <PUBCHEM_IUPAC_SYSTEMATIC_NAME>
iron(2+);oxiran-2-ylmethyl cyclopenta-1,3-diene-1-carboxylate
> <PUBCHEM_IUPAC_TRADITIONAL_NAME>
ferrous;cyclopenta-1,3-diene-1-carboxylic acid glycidyl ester
> <PUBCHEM_IUPAC_INCHI>
InChI=1S/2C9H9O3.Fe/c2*10-9(7-3-1-2-4-7)12-6-8-5-11-8;/h2*1-4,8H,5-6H2;/q2*-1;+2
> <PUBCHEM_IUPAC_INCHIKEY>
WXTSHYCBACZJNW-UHFFFAOYSA-N
> <PUBCHEM_EXACT_MASS>
386.045274
> <PUBCHEM_MOLECULAR_FORMULA>
C18H18FeO6
> <PUBCHEM_MOLECULAR_WEIGHT>
386.2
> <PUBCHEM_OPENEYE_CAN_SMILES>
C1C(O1)COC(=O)C2=CC=C[CH-]2.C1C(O1)COC(=O)C2=CC=C[CH-]2.[Fe+2]
> <PUBCHEM_OPENEYE_ISO_SMILES>
C1C(O1)COC(=O)C2=CC=C[CH-]2.C1C(O1)COC(=O)C2=CC=C[CH-]2.[Fe+2]
> <PUBCHEM_CACTVS_TPSA>
77.7
> <PUBCHEM_MONOISOTOPIC_WEIGHT>
386.045274
> <PUBCHEM_TOTAL_CHARGE>
0
> <PUBCHEM_HEAVY_ATOM_COUNT>
25
> <PUBCHEM_ATOM_DEF_STEREO_COUNT>
0
> <PUBCHEM_ATOM_UDEF_STEREO_COUNT>
2
> <PUBCHEM_BOND_DEF_STEREO_COUNT>
0
> <PUBCHEM_BOND_UDEF_STEREO_COUNT>
0
> <PUBCHEM_ISOTOPIC_ATOM_COUNT>
0
> <PUBCHEM_COMPONENT_COUNT>
3
> <PUBCHEM_CACTVS_TAUTO_COUNT>
-1
> <PUBCHEM_NONSTANDARDBOND>
1  14  6
1  15  6
> <PUBCHEM_COORDINATE_TYPE>
1
5
255
> <PUBCHEM_BONDANNOTATIONS>
14  16  8
14  18  8
15  17  8
15  19  8
16  22  8
17  23  8
18  24  8
19  25  8
22  24  8
23  25  8
8  12  3
9  13  3
$$$$
