517288
  -OEChem-10302200292D
 54 55  0     1  0  0  0  0  0999 V2000
    0.0369    3.4806    0.0000 Cl  0  0  0  0  0  0  0  0  0  0  0  0
    4.7082    3.0750    0.0000 O   0  0  0  0  0  0  0  0  0  0  0  0
    4.4768    0.6200    0.0000 O   0  0  0  0  0  0  0  0  0  0  0  0
    4.4768    5.4243    0.0000 O   0  0  0  0  0  0  0  0  0  0  0  0
    6.4232    9.4612    0.0000 O   0  0  0  0  0  0  0  0  0  0  0  0
    0.5369    5.9806    0.0000 O   0  0  0  0  0  0  0  0  0  0  0  0
    8.6375    2.0711    0.0000 N   0  0  3  0  0  0  0  0  0  0  0  0
    6.1665    2.5466    0.0000 C   0  0  3  0  0  0  0  0  0  0  0  0
    6.9902    2.0711    0.0000 C   0  0  3  0  0  0  0  0  0  0  0  0
    7.8138    2.5466    0.0000 C   0  0  3  0  0  0  0  0  0  0  0  0
    5.3428    2.0711    0.0000 C   0  0  3  0  0  0  0  0  0  0  0  0
    6.7160    3.2441    0.0000 C   0  0  0  0  0  0  0  0  0  0  0  0
    6.1665    3.4977    0.0000 C   0  0  0  0  0  0  0  0  0  0  0  0
    7.8138    3.4977    0.0000 C   0  0  0  0  0  0  0  0  0  0  0  0
    8.0687    3.2441    0.0000 C   0  0  0  0  0  0  0  0  0  0  0  0
    6.9902    3.9732    0.0000 C   0  0  0  0  0  0  0  0  0  0  0  0
    5.3428    1.1200    0.0000 C   0  0  3  0  0  0  0  0  0  0  0  0
    6.9902    1.1200    0.0000 C   0  0  0  0  0  0  0  0  0  0  0  0
    5.3428    3.9732    0.0000 C   0  0  0  0  0  0  0  0  0  0  0  0
    6.1665    0.6445    0.0000 C   0  0  0  0  0  0  0  0  0  0  0  0
    6.9902    4.9243    0.0000 C   0  0  0  0  0  0  0  0  0  0  0  0
    9.3186    1.3389    0.0000 C   0  0  0  0  0  0  0  0  0  0  0  0
    5.3428    4.9243    0.0000 C   0  0  0  0  0  0  0  0  0  0  0  0
    6.1665    5.3998    0.0000 C   0  0  0  0  0  0  0  0  0  0  0  0
    4.4768    6.4243    0.0000 C   0  0  0  0  0  0  0  0  0  0  0  0
    3.6108    6.9243    0.0000 C   0  0  0  0  0  0  0  0  0  0  0  0
    7.5271    1.7611    0.0000 H   0  0  0  0  0  0  0  0  0  0  0  0
    8.3508    2.8566    0.0000 H   0  0  0  0  0  0  0  0  0  0  0  0
    4.7473    1.8986    0.0000 H   0  0  0  0  0  0  0  0  0  0  0  0
    6.8528    3.8488    0.0000 H   0  0  0  0  0  0  0  0  0  0  0  0
    6.1564    3.5109    0.0000 H   0  0  0  0  0  0  0  0  0  0  0  0
    8.4244    3.3900    0.0000 H   0  0  0  0  0  0  0  0  0  0  0  0
    8.0259    4.0803    0.0000 H   0  0  0  0  0  0  0  0  0  0  0  0
    8.6608    3.4279    0.0000 H   0  0  0  0  0  0  0  0  0  0  0  0
    7.9757    3.8570    0.0000 H   0  0  0  0  0  0  0  0  0  0  0  0
    5.3428    0.5000    0.0000 H   0  0  0  0  0  0  0  0  0  0  0  0
    7.5271    0.8100    0.0000 H   0  0  0  0  0  0  0  0  0  0  0  0
    6.1665    0.0245    0.0000 H   0  0  0  0  0  0  0  0  0  0  0  0
    7.5271    5.2343    0.0000 H   0  0  0  0  0  0  0  0  0  0  0  0
    8.8647    0.9166    0.0000 H   0  0  0  0  0  0  0  0  0  0  0  0
    9.7410    0.8850    0.0000 H   0  0  0  0  0  0  0  0  0  0  0  0
    9.7726    1.7613    0.0000 H   0  0  0  0  0  0  0  0  0  0  0  0
    6.1665    6.0198    0.0000 H   0  0  0  0  0  0  0  0  0  0  0  0
    4.4768    0.0000    0.0000 H   0  0  0  0  0  0  0  0  0  0  0  0
    5.0874    6.3166    0.0000 H   0  0  0  0  0  0  0  0  0  0  0  0
    4.6889    7.0069    0.0000 H   0  0  0  0  0  0  0  0  0  0  0  0
    3.9208    7.4612    0.0000 H   0  0  0  0  0  0  0  0  0  0  0  0
    3.0739    7.2343    0.0000 H   0  0  0  0  0  0  0  0  0  0  0  0
    3.3008    6.3874    0.0000 H   0  0  0  0  0  0  0  0  0  0  0  0
    6.9602    9.7712    0.0000 H   0  0  0  0  0  0  0  0  0  0  0  0
    5.8863    9.7712    0.0000 H   0  0  0  0  0  0  0  0  0  0  0  0
    1.0739    6.2906    0.0000 H   0  0  0  0  0  0  0  0  0  0  0  0
    0.0000    6.2906    0.0000 H   0  0  0  0  0  0  0  0  0  0  0  0
    1.0369    3.4806    0.0000 H   0  0  0  0  0  0  0  0  0  0  0  0
  1 54  1  0  0  0  0
  2 11  1  0  0  0  0
  2 19  1  0  0  0  0
  3 17  1  0  0  0  0
  3 44  1  0  0  0  0
  4 23  1  0  0  0  0
  4 25  1  0  0  0  0
  5 50  1  0  0  0  0
  5 51  1  0  0  0  0
  6 52  1  0  0  0  0
  6 53  1  0  0  0  0
  7 10  1  0  0  0  0
  7 15  1  0  0  0  0
  7 22  1  0  0  0  0
  8  9  1  0  0  0  0
  8 11  1  0  0  0  0
  8 12  1  0  0  0  0
  8 13  1  0  0  0  0
  9 10  1  0  0  0  0
  9 18  1  0  0  0  0
  9 27  1  0  0  0  0
 10 14  1  0  0  0  0
 10 28  1  0  0  0  0
 11 17  1  0  0  0  0
 11 29  1  0  0  0  0
 12 15  1  0  0  0  0
 12 30  1  0  0  0  0
 12 31  1  0  0  0  0
 13 16  2  0  0  0  0
 13 19  1  0  0  0  0
 14 16  1  0  0  0  0
 14 32  1  0  0  0  0
 14 33  1  0  0  0  0
 15 34  1  0  0  0  0
 15 35  1  0  0  0  0
 16 21  1  0  0  0  0
 17 20  1  0  0  0  0
 17 36  1  0  0  0  0
 18 20  2  0  0  0  0
 18 37  1  0  0  0  0
 19 23  2  0  0  0  0
 20 38  1  0  0  0  0
 21 24  2  0  0  0  0
 21 39  1  0  0  0  0
 22 40  1  0  0  0  0
 22 41  1  0  0  0  0
 22 42  1  0  0  0  0
 23 24  1  0  0  0  0
 24 43  1  0  0  0  0
 25 26  1  0  0  0  0
 25 45  1  0  0  0  0
 25 46  1  0  0  0  0
 26 47  1  0  0  0  0
 26 48  1  0  0  0  0
 26 49  1  0  0  0  0
M  END
> <PUBCHEM_COMPOUND_CID>
517288
> <PUBCHEM_COMPOUND_CANONICALIZED>
1
> <PUBCHEM_CACTVS_COMPLEXITY>
523
> <PUBCHEM_CACTVS_HBOND_ACCEPTOR>
6
> <PUBCHEM_CACTVS_HBOND_DONOR>
4
> <PUBCHEM_CACTVS_ROTATABLE_BOND>
2
> <PUBCHEM_CACTVS_SUBSKEYS>
AAADceB6OAAEAAAAAAAAAAAAAAAAASAAAAA8YIEAAAAWAEjBAAAAHgAACAAADzzhmAYyBoMABgCAAiBCAAACCAAgIAAIiAAOiIgNNiKEsRuGeCKkwBGLuAew8P8PoAABAAAYQADQAAaAADSAAAAAAAAAAA==
> <PUBCHEM_IUPAC_OPENEYE_NAME>
9-ethoxy-3-methyl-2,4,4a,7,7a,13-hexahydro-1H-4,12-methanobenzofuro[3,2-e]isoquinolin-7-ol;dihydrate;hydrochloride
> <PUBCHEM_IUPAC_CAS_NAME>
9-ethoxy-3-methyl-2,4,4a,7,7a,13-hexahydro-1H-4,12-methanobenzofuro[3,2-e]isoquinolin-7-ol;dihydrate;hydrochloride
> <PUBCHEM_IUPAC_NAME_MARKUP>
9-ethoxy-3-methyl-2,4,4<I>a</I>,7,7<I>a</I>,13-hexahydro-1<I>H</I>-4,12-methanobenzofuro[3,2-e]isoquinolin-7-ol;dihydrate;hydrochloride
> <PUBCHEM_IUPAC_NAME>
9-ethoxy-3-methyl-2,4,4a,7,7a,13-hexahydro-1H-4,12-methanobenzofuro[3,2-e]isoquinolin-7-ol;dihydrate;hydrochloride
> <PUBCHEM_IUPAC_SYSTEMATIC_NAME>
9-ethoxy-3-methyl-2,4,4a,7,7a,13-hexahydro-1H-4,12-methanobenzofuro[3,2-e]isoquinolin-7-ol;dihydrate;hydrochloride
> <PUBCHEM_IUPAC_TRADITIONAL_NAME>
9-ethoxy-3-methyl-2,4,4a,7,7a,13-hexahydro-1H-4,12-methanobenzofuro[3,2-e]isoquinolin-7-ol;dihydrate;hydrochloride
> <PUBCHEM_IUPAC_INCHI>
InChI=1S/C19H23NO3.ClH.2H2O/c1-3-22-15-7-4-11-10-13-12-5-6-14(21)18-19(12,8-9-20(13)2)16(11)17(15)23-18;;;/h4-7,12-14,18,21H,3,8-10H2,1-2H3;1H;2*1H2
> <PUBCHEM_IUPAC_INCHIKEY>
FKEDUFRSQFFLHR-UHFFFAOYSA-N
> <PUBCHEM_EXACT_MASS>
385.1656007
> <PUBCHEM_MOLECULAR_FORMULA>
C19H28ClNO5
> <PUBCHEM_MOLECULAR_WEIGHT>
385.9
> <PUBCHEM_OPENEYE_CAN_SMILES>
CCOC1=C2C3=C(CC4C5C3(CCN4C)C(O2)C(C=C5)O)C=C1.O.O.Cl
> <PUBCHEM_OPENEYE_ISO_SMILES>
CCOC1=C2C3=C(CC4C5C3(CCN4C)C(O2)C(C=C5)O)C=C1.O.O.Cl
> <PUBCHEM_CACTVS_TPSA>
43.9
> <PUBCHEM_MONOISOTOPIC_WEIGHT>
385.1656007
> <PUBCHEM_TOTAL_CHARGE>
0
> <PUBCHEM_HEAVY_ATOM_COUNT>
26
> <PUBCHEM_ATOM_DEF_STEREO_COUNT>
0
> <PUBCHEM_ATOM_UDEF_STEREO_COUNT>
5
> <PUBCHEM_BOND_DEF_STEREO_COUNT>
0
> <PUBCHEM_BOND_UDEF_STEREO_COUNT>
0
> <PUBCHEM_ISOTOPIC_ATOM_COUNT>
0
> <PUBCHEM_COMPONENT_COUNT>
4
> <PUBCHEM_CACTVS_TAUTO_COUNT>
-1
> <PUBCHEM_COORDINATE_TYPE>
1
5
255
> <PUBCHEM_BONDANNOTATIONS>
10  14  3
13  16  8
13  19  8
16  21  8
19  23  8
11  2  3
21  24  8
23  24  8
17  3  3
8  12  3
9  18  3
$$$$
