517268
  -OEChem-10302200292D
 22 19  0     1  0  0  0  0  0999 V2000
    4.0010    3.5000    0.0000 Na  0  3  0  0  0  0  0  0  0  0  0  0
    3.1350    3.0000    0.0000 O   0  5  0  0  0  0  0  0  0  0  0  0
    2.2690    4.5000    0.0000 O   0  0  0  0  0  0  0  0  0  0  0  0
    3.1350    0.0000    0.0000 O   0  5  0  0  0  0  0  0  0  0  0  0
    1.4030    0.0000    0.0000 O   0  0  0  0  0  0  0  0  0  0  0  0
    2.0005    6.5000    0.0000 O   0  0  0  0  0  0  0  0  0  0  0  0
    0.5369    3.5000    0.0000 N   0  3  0  0  0  0  0  0  0  0  0  0
    1.4030    3.0000    0.0000 C   0  0  3  0  0  0  0  0  0  0  0  0
    1.4030    2.0000    0.0000 C   0  0  0  0  0  0  0  0  0  0  0  0
    2.2690    1.5000    0.0000 C   0  0  0  0  0  0  0  0  0  0  0  0
    2.2690    3.5000    0.0000 C   0  0  0  0  0  0  0  0  0  0  0  0
    2.2690    0.5000    0.0000 C   0  0  0  0  0  0  0  0  0  0  0  0
    1.4030    3.6200    0.0000 H   0  0  0  0  0  0  0  0  0  0  0  0
    0.7924    2.1077    0.0000 H   0  0  0  0  0  0  0  0  0  0  0  0
    1.1909    1.4174    0.0000 H   0  0  0  0  0  0  0  0  0  0  0  0
    2.8796    1.3923    0.0000 H   0  0  0  0  0  0  0  0  0  0  0  0
    2.4810    2.0826    0.0000 H   0  0  0  0  0  0  0  0  0  0  0  0
    0.0000    3.8100    0.0000 H   0  0  0  0  0  0  0  0  0  0  0  0
    0.2269    2.9631    0.0000 H   0  0  0  0  0  0  0  0  0  0  0  0
    0.8469    4.0369    0.0000 H   0  0  0  0  0  0  0  0  0  0  0  0
    2.5375    6.8100    0.0000 H   0  0  0  0  0  0  0  0  0  0  0  0
    1.4636    6.8100    0.0000 H   0  0  0  0  0  0  0  0  0  0  0  0
  2 11  1  0  0  0  0
  3 11  2  0  0  0  0
  4 12  1  0  0  0  0
  5 12  2  0  0  0  0
  6 21  1  0  0  0  0
  6 22  1  0  0  0  0
  7  8  1  0  0  0  0
  7 18  1  0  0  0  0
  7 19  1  0  0  0  0
  7 20  1  0  0  0  0
  8  9  1  0  0  0  0
  8 11  1  0  0  0  0
  8 13  1  0  0  0  0
  9 10  1  0  0  0  0
  9 14  1  0  0  0  0
  9 15  1  0  0  0  0
 10 12  1  0  0  0  0
 10 16  1  0  0  0  0
 10 17  1  0  0  0  0
M  CHG  4   1   1   2  -1   4  -1   7   1
M  END
> <PUBCHEM_COMPOUND_CID>
517268
> <PUBCHEM_COMPOUND_CANONICALIZED>
1
> <PUBCHEM_CACTVS_COMPLEXITY>
134
> <PUBCHEM_CACTVS_HBOND_ACCEPTOR>
5
> <PUBCHEM_CACTVS_HBOND_DONOR>
2
> <PUBCHEM_CACTVS_ROTATABLE_BOND>
2
> <PUBCHEM_CACTVS_SUBSKEYS>
AAADccBiOCAAAAAAAAAAAAAAAAAAAAAAAAAAAAAAAAAAAAAAAAAAHgAQCAAACCjBgAQACABAAAAIAACQCAAAAAAAAAAAAIGAAAACABIAgAAAAAAEEAAAAACsJgAAAAAAAAAAAAAAAAAAAAAAAAAAAAAAAA==
> <PUBCHEM_IUPAC_OPENEYE_NAME>
sodium;2-azaniumylpentanedioate;hydrate
> <PUBCHEM_IUPAC_CAS_NAME>
sodium;2-ammoniopentanedioate;hydrate
> <PUBCHEM_IUPAC_NAME_MARKUP>
sodium;2-azaniumylpentanedioate;hydrate
> <PUBCHEM_IUPAC_NAME>
sodium;2-azaniumylpentanedioate;hydrate
> <PUBCHEM_IUPAC_SYSTEMATIC_NAME>
sodium;2-azaniumylpentanedioate;hydrate
> <PUBCHEM_IUPAC_TRADITIONAL_NAME>
sodium;2-ammonioglutarate;hydrate
> <PUBCHEM_IUPAC_INCHI>
InChI=1S/C5H9NO4.Na.H2O/c6-3(5(9)10)1-2-4(7)8;;/h3H,1-2,6H2,(H,7,8)(H,9,10);;1H2/q;+1;/p-1
> <PUBCHEM_IUPAC_INCHIKEY>
GJBHGUUFMNITCI-UHFFFAOYSA-M
> <PUBCHEM_EXACT_MASS>
187.04566670
> <PUBCHEM_MOLECULAR_FORMULA>
C5H10NNaO5
> <PUBCHEM_MOLECULAR_WEIGHT>
187.13
> <PUBCHEM_OPENEYE_CAN_SMILES>
C(CC(=O)[O-])C(C(=O)[O-])[NH3+].O.[Na+]
> <PUBCHEM_OPENEYE_ISO_SMILES>
C(CC(=O)[O-])C(C(=O)[O-])[NH3+].O.[Na+]
> <PUBCHEM_CACTVS_TPSA>
109
> <PUBCHEM_MONOISOTOPIC_WEIGHT>
187.04566670
> <PUBCHEM_TOTAL_CHARGE>
0
> <PUBCHEM_HEAVY_ATOM_COUNT>
12
> <PUBCHEM_ATOM_DEF_STEREO_COUNT>
0
> <PUBCHEM_ATOM_UDEF_STEREO_COUNT>
1
> <PUBCHEM_BOND_DEF_STEREO_COUNT>
0
> <PUBCHEM_BOND_UDEF_STEREO_COUNT>
0
> <PUBCHEM_ISOTOPIC_ATOM_COUNT>
0
> <PUBCHEM_COMPONENT_COUNT>
3
> <PUBCHEM_CACTVS_TAUTO_COUNT>
-1
> <PUBCHEM_COORDINATE_TYPE>
1
5
255
> <PUBCHEM_BONDANNOTATIONS>
8  7  3
$$$$
