517281
  -OEChem-10302200292D
 51 52  0     1  0  0  0  0  0999 V2000
    0.0369    3.2722    0.0000 Br  0  0  0  0  0  0  0  0  0  0  0  0
    3.9252    3.0750    0.0000 O   0  0  0  0  0  0  0  0  0  0  0  0
    3.6939    0.6200    0.0000 O   0  0  0  0  0  0  0  0  0  0  0  0
    3.6939    5.4243    0.0000 O   0  0  0  0  0  0  0  0  0  0  0  0
    6.0317    9.0443    0.0000 O   0  0  0  0  0  0  0  0  0  0  0  0
    0.5369    5.7722    0.0000 O   0  0  0  0  0  0  0  0  0  0  0  0
    7.8545    2.0711    0.0000 N   0  0  3  0  0  0  0  0  0  0  0  0
    5.3835    2.5466    0.0000 C   0  0  3  0  0  0  0  0  0  0  0  0
    6.2072    2.0711    0.0000 C   0  0  3  0  0  0  0  0  0  0  0  0
    7.0309    2.5466    0.0000 C   0  0  3  0  0  0  0  0  0  0  0  0
    4.5599    2.0711    0.0000 C   0  0  3  0  0  0  0  0  0  0  0  0
    5.9331    3.2441    0.0000 C   0  0  0  0  0  0  0  0  0  0  0  0
    5.3835    3.4977    0.0000 C   0  0  0  0  0  0  0  0  0  0  0  0
    7.0309    3.4977    0.0000 C   0  0  0  0  0  0  0  0  0  0  0  0
    7.2857    3.2441    0.0000 C   0  0  0  0  0  0  0  0  0  0  0  0
    6.2072    3.9732    0.0000 C   0  0  0  0  0  0  0  0  0  0  0  0
    4.5599    1.1200    0.0000 C   0  0  3  0  0  0  0  0  0  0  0  0
    6.2072    1.1200    0.0000 C   0  0  0  0  0  0  0  0  0  0  0  0
    4.5599    3.9732    0.0000 C   0  0  0  0  0  0  0  0  0  0  0  0
    5.3835    0.6445    0.0000 C   0  0  0  0  0  0  0  0  0  0  0  0
    8.5357    1.3389    0.0000 C   0  0  0  0  0  0  0  0  0  0  0  0
    6.2072    4.9243    0.0000 C   0  0  0  0  0  0  0  0  0  0  0  0
    4.5599    4.9243    0.0000 C   0  0  0  0  0  0  0  0  0  0  0  0
    5.3835    5.3998    0.0000 C   0  0  0  0  0  0  0  0  0  0  0  0
    3.6939    6.4243    0.0000 C   0  0  0  0  0  0  0  0  0  0  0  0
    6.7441    1.7611    0.0000 H   0  0  0  0  0  0  0  0  0  0  0  0
    7.5678    2.8566    0.0000 H   0  0  0  0  0  0  0  0  0  0  0  0
    3.9644    1.8986    0.0000 H   0  0  0  0  0  0  0  0  0  0  0  0
    6.0698    3.8488    0.0000 H   0  0  0  0  0  0  0  0  0  0  0  0
    5.3734    3.5109    0.0000 H   0  0  0  0  0  0  0  0  0  0  0  0
    7.6414    3.3900    0.0000 H   0  0  0  0  0  0  0  0  0  0  0  0
    7.2429    4.0803    0.0000 H   0  0  0  0  0  0  0  0  0  0  0  0
    7.8778    3.4279    0.0000 H   0  0  0  0  0  0  0  0  0  0  0  0
    7.1927    3.8570    0.0000 H   0  0  0  0  0  0  0  0  0  0  0  0
    4.5599    0.5000    0.0000 H   0  0  0  0  0  0  0  0  0  0  0  0
    6.7441    0.8100    0.0000 H   0  0  0  0  0  0  0  0  0  0  0  0
    5.3835    0.0245    0.0000 H   0  0  0  0  0  0  0  0  0  0  0  0
    8.0818    0.9166    0.0000 H   0  0  0  0  0  0  0  0  0  0  0  0
    8.9580    0.8850    0.0000 H   0  0  0  0  0  0  0  0  0  0  0  0
    8.9896    1.7613    0.0000 H   0  0  0  0  0  0  0  0  0  0  0  0
    6.7441    5.2343    0.0000 H   0  0  0  0  0  0  0  0  0  0  0  0
    5.3835    6.0198    0.0000 H   0  0  0  0  0  0  0  0  0  0  0  0
    3.6939    0.0000    0.0000 H   0  0  0  0  0  0  0  0  0  0  0  0
    4.3139    6.4243    0.0000 H   0  0  0  0  0  0  0  0  0  0  0  0
    3.6939    7.0443    0.0000 H   0  0  0  0  0  0  0  0  0  0  0  0
    3.0739    6.4243    0.0000 H   0  0  0  0  0  0  0  0  0  0  0  0
    6.5687    9.3543    0.0000 H   0  0  0  0  0  0  0  0  0  0  0  0
    5.4948    9.3543    0.0000 H   0  0  0  0  0  0  0  0  0  0  0  0
    1.0739    6.0822    0.0000 H   0  0  0  0  0  0  0  0  0  0  0  0
    0.0000    6.0822    0.0000 H   0  0  0  0  0  0  0  0  0  0  0  0
    1.0369    3.2722    0.0000 H   0  0  0  0  0  0  0  0  0  0  0  0
  1 51  1  0  0  0  0
  2 11  1  0  0  0  0
  2 19  1  0  0  0  0
  3 17  1  0  0  0  0
  3 43  1  0  0  0  0
  4 23  1  0  0  0  0
  4 25  1  0  0  0  0
  5 47  1  0  0  0  0
  5 48  1  0  0  0  0
  6 49  1  0  0  0  0
  6 50  1  0  0  0  0
  7 10  1  0  0  0  0
  7 15  1  0  0  0  0
  7 21  1  0  0  0  0
  8  9  1  0  0  0  0
  8 11  1  0  0  0  0
  8 12  1  0  0  0  0
  8 13  1  0  0  0  0
  9 10  1  0  0  0  0
  9 18  1  0  0  0  0
  9 26  1  0  0  0  0
 10 14  1  0  0  0  0
 10 27  1  0  0  0  0
 11 17  1  0  0  0  0
 11 28  1  0  0  0  0
 12 15  1  0  0  0  0
 12 29  1  0  0  0  0
 12 30  1  0  0  0  0
 13 16  2  0  0  0  0
 13 19  1  0  0  0  0
 14 16  1  0  0  0  0
 14 31  1  0  0  0  0
 14 32  1  0  0  0  0
 15 33  1  0  0  0  0
 15 34  1  0  0  0  0
 16 22  1  0  0  0  0
 17 20  1  0  0  0  0
 17 35  1  0  0  0  0
 18 20  2  0  0  0  0
 18 36  1  0  0  0  0
 19 23  2  0  0  0  0
 20 37  1  0  0  0  0
 21 38  1  0  0  0  0
 21 39  1  0  0  0  0
 21 40  1  0  0  0  0
 22 24  2  0  0  0  0
 22 41  1  0  0  0  0
 23 24  1  0  0  0  0
 24 42  1  0  0  0  0
 25 44  1  0  0  0  0
 25 45  1  0  0  0  0
 25 46  1  0  0  0  0
M  END
> <PUBCHEM_COMPOUND_CID>
517281
> <PUBCHEM_COMPOUND_CANONICALIZED>
1
> <PUBCHEM_CACTVS_COMPLEXITY>
509
> <PUBCHEM_CACTVS_HBOND_ACCEPTOR>
6
> <PUBCHEM_CACTVS_HBOND_DONOR>
4
> <PUBCHEM_CACTVS_ROTATABLE_BOND>
1
> <PUBCHEM_CACTVS_SUBSKEYS>
AAADceB6OAAAEAAAAAAAAAAAAAAAASAAAAA8YIEAAAAWAEjBAAAAHgAACAAADzzhmAYyBoMABgCAAiBCAAACCAAgIAAIiAAOiIgNNiKEsRuGeCKkwBGLuAew8P8PoAABAAAYQADQAAaAADSAAAAAAAAAAA==
> <PUBCHEM_IUPAC_OPENEYE_NAME>
9-methoxy-3-methyl-2,4,4a,7,7a,13-hexahydro-1H-4,12-methanobenzofuro[3,2-e]isoquinolin-7-ol;dihydrate;hydrobromide
> <PUBCHEM_IUPAC_CAS_NAME>
9-methoxy-3-methyl-2,4,4a,7,7a,13-hexahydro-1H-4,12-methanobenzofuro[3,2-e]isoquinolin-7-ol;dihydrate;hydrobromide
> <PUBCHEM_IUPAC_NAME_MARKUP>
9-methoxy-3-methyl-2,4,4<I>a</I>,7,7<I>a</I>,13-hexahydro-1<I>H</I>-4,12-methanobenzofuro[3,2-e]isoquinolin-7-ol;dihydrate;hydrobromide
> <PUBCHEM_IUPAC_NAME>
9-methoxy-3-methyl-2,4,4a,7,7a,13-hexahydro-1H-4,12-methanobenzofuro[3,2-e]isoquinolin-7-ol;dihydrate;hydrobromide
> <PUBCHEM_IUPAC_SYSTEMATIC_NAME>
9-methoxy-3-methyl-2,4,4a,7,7a,13-hexahydro-1H-4,12-methanobenzofuro[3,2-e]isoquinolin-7-ol;dihydrate;hydrobromide
> <PUBCHEM_IUPAC_TRADITIONAL_NAME>
9-methoxy-3-methyl-2,4,4a,7,7a,13-hexahydro-1H-4,12-methanobenzofuro[3,2-e]isoquinolin-7-ol;dihydrate;hydrobromide
> <PUBCHEM_IUPAC_INCHI>
InChI=1S/C18H21NO3.BrH.2H2O/c1-19-8-7-18-11-4-5-13(20)17(18)22-16-14(21-2)6-3-10(15(16)18)9-12(11)19;;;/h3-6,11-13,17,20H,7-9H2,1-2H3;1H;2*1H2
> <PUBCHEM_IUPAC_INCHIKEY>
YYPNRUMYXOJKDO-UHFFFAOYSA-N
> <PUBCHEM_EXACT_MASS>
415.09944
> <PUBCHEM_MOLECULAR_FORMULA>
C18H26BrNO5
> <PUBCHEM_MOLECULAR_WEIGHT>
416.3
> <PUBCHEM_OPENEYE_CAN_SMILES>
CN1CCC23C4C1CC5=C2C(=C(C=C5)OC)OC3C(C=C4)O.O.O.Br
> <PUBCHEM_OPENEYE_ISO_SMILES>
CN1CCC23C4C1CC5=C2C(=C(C=C5)OC)OC3C(C=C4)O.O.O.Br
> <PUBCHEM_CACTVS_TPSA>
43.9
> <PUBCHEM_MONOISOTOPIC_WEIGHT>
415.09944
> <PUBCHEM_TOTAL_CHARGE>
0
> <PUBCHEM_HEAVY_ATOM_COUNT>
25
> <PUBCHEM_ATOM_DEF_STEREO_COUNT>
0
> <PUBCHEM_ATOM_UDEF_STEREO_COUNT>
5
> <PUBCHEM_BOND_DEF_STEREO_COUNT>
0
> <PUBCHEM_BOND_UDEF_STEREO_COUNT>
0
> <PUBCHEM_ISOTOPIC_ATOM_COUNT>
0
> <PUBCHEM_COMPONENT_COUNT>
4
> <PUBCHEM_CACTVS_TAUTO_COUNT>
-1
> <PUBCHEM_COORDINATE_TYPE>
1
5
255
> <PUBCHEM_BONDANNOTATIONS>
10  14  3
13  16  8
13  19  8
16  22  8
19  23  8
11  2  3
22  24  8
23  24  8
17  3  3
8  12  3
9  18  3
$$$$
