517295
  -OEChem-10302200292D
 98100  0     1  0  0  0  0  0999 V2000
   15.1045    0.8660    0.0000 S   0  0  0  0  0  0  0  0  0  0  0  0
    3.2940    8.3467    0.0000 O   0  0  0  0  0  0  0  0  0  0  0  0
   14.1307    8.9251    0.0000 O   0  0  0  0  0  0  0  0  0  0  0  0
    3.8864    6.7191    0.0000 O   0  0  0  0  0  0  0  0  0  0  0  0
   14.7231    7.2975    0.0000 O   0  0  0  0  0  0  0  0  0  0  0  0
    0.4749    7.3207    0.0000 O   0  0  0  0  0  0  0  0  0  0  0  0
   11.3117    7.8990    0.0000 O   0  0  0  0  0  0  0  0  0  0  0  0
   14.2384    0.3660    0.0000 O   0  5  0  0  0  0  0  0  0  0  0  0
   14.6045    1.7320    0.0000 O   0  5  0  0  0  0  0  0  0  0  0  0
   15.9705    1.3660    0.0000 O   0  0  0  0  0  0  0  0  0  0  0  0
   15.6045    0.0000    0.0000 O   0  0  0  0  0  0  0  0  0  0  0  0
   15.1045   15.4345    0.0000 O   0  0  0  0  0  0  0  0  0  0  0  0
    5.8060   10.9438    0.0000 N   0  3  0  0  0  0  0  0  0  0  0  0
   16.6427   11.5221    0.0000 N   0  3  0  0  0  0  0  0  0  0  0  0
    6.5426    9.9611    0.0000 C   0  0  3  0  0  0  0  0  0  0  0  0
    6.2838    8.9952    0.0000 C   0  0  3  0  0  0  0  0  0  0  0  0
   17.3793   10.5395    0.0000 C   0  0  3  0  0  0  0  0  0  0  0  0
   17.1205    9.5736    0.0000 C   0  0  3  0  0  0  0  0  0  0  0  0
    7.9415    9.4523    0.0000 C   0  0  0  0  0  0  0  0  0  0  0  0
    7.6827    8.4864    0.0000 C   0  0  0  0  0  0  0  0  0  0  0  0
   18.7783   10.0307    0.0000 C   0  0  0  0  0  0  0  0  0  0  0  0
   18.5194    9.0648    0.0000 C   0  0  0  0  0  0  0  0  0  0  0  0
    4.5094    9.6500    0.0000 C   0  0  0  0  0  0  0  0  0  0  0  0
    5.0628    8.1296    0.0000 C   0  0  0  0  0  0  0  0  0  0  0  0
   15.3461   10.2284    0.0000 C   0  0  0  0  0  0  0  0  0  0  0  0
   15.8995    8.7079    0.0000 C   0  0  0  0  0  0  0  0  0  0  0  0
    4.2337    8.6887    0.0000 C   0  0  0  0  0  0  0  0  0  0  0  0
   15.0704    9.2671    0.0000 C   0  0  0  0  0  0  0  0  0  0  0  0
    5.9105   11.9383    0.0000 C   0  0  0  0  0  0  0  0  0  0  0  0
   16.7472   12.5166    0.0000 C   0  0  0  0  0  0  0  0  0  0  0  0
    3.1204    7.3619    0.0000 C   0  0  0  0  0  0  0  0  0  0  0  0
   13.9571    7.9403    0.0000 C   0  0  0  0  0  0  0  0  0  0  0  0
    2.1807    7.0199    0.0000 C   0  0  3  0  0  0  0  0  0  0  0  0
   13.0174    7.5983    0.0000 C   0  0  3  0  0  0  0  0  0  0  0  0
    1.4146    7.6627    0.0000 C   0  0  0  0  0  0  0  0  0  0  0  0
   12.2514    8.2411    0.0000 C   0  0  0  0  0  0  0  0  0  0  0  0
    2.0070    6.0351    0.0000 C   0  0  0  0  0  0  0  0  0  0  0  0
   12.8438    6.6135    0.0000 C   0  0  0  0  0  0  0  0  0  0  0  0
    2.7731    5.3923    0.0000 C   0  0  0  0  0  0  0  0  0  0  0  0
   13.6098    5.9707    0.0000 C   0  0  0  0  0  0  0  0  0  0  0  0
    1.0673    5.6931    0.0000 C   0  0  0  0  0  0  0  0  0  0  0  0
   11.9041    6.2714    0.0000 C   0  0  0  0  0  0  0  0  0  0  0  0
    2.5994    4.4075    0.0000 C   0  0  0  0  0  0  0  0  0  0  0  0
   13.4361    4.9859    0.0000 C   0  0  0  0  0  0  0  0  0  0  0  0
    0.8937    4.7083    0.0000 C   0  0  0  0  0  0  0  0  0  0  0  0
   11.7304    5.2866    0.0000 C   0  0  0  0  0  0  0  0  0  0  0  0
    1.6597    4.0655    0.0000 C   0  0  0  0  0  0  0  0  0  0  0  0
   12.4965    4.6438    0.0000 C   0  0  0  0  0  0  0  0  0  0  0  0
    6.9120   10.4591    0.0000 H   0  0  0  0  0  0  0  0  0  0  0  0
    6.3666    8.3808    0.0000 H   0  0  0  0  0  0  0  0  0  0  0  0
   17.7487   11.0375    0.0000 H   0  0  0  0  0  0  0  0  0  0  0  0
   17.2033    8.9591    0.0000 H   0  0  0  0  0  0  0  0  0  0  0  0
    5.2396   11.1959    0.0000 H   0  0  0  0  0  0  0  0  0  0  0  0
   16.0763   11.7743    0.0000 H   0  0  0  0  0  0  0  0  0  0  0  0
    8.5355    9.2746    0.0000 H   0  0  0  0  0  0  0  0  0  0  0  0
    8.1365   10.0409    0.0000 H   0  0  0  0  0  0  0  0  0  0  0  0
    7.4878    7.8978    0.0000 H   0  0  0  0  0  0  0  0  0  0  0  0
    8.2767    8.3086    0.0000 H   0  0  0  0  0  0  0  0  0  0  0  0
   19.3722    9.8529    0.0000 H   0  0  0  0  0  0  0  0  0  0  0  0
   18.9732   10.6193    0.0000 H   0  0  0  0  0  0  0  0  0  0  0  0
   18.3245    8.4762    0.0000 H   0  0  0  0  0  0  0  0  0  0  0  0
   19.1134    8.8870    0.0000 H   0  0  0  0  0  0  0  0  0  0  0  0
    4.5043   10.2700    0.0000 H   0  0  0  0  0  0  0  0  0  0  0  0
    3.8950    9.7338    0.0000 H   0  0  0  0  0  0  0  0  0  0  0  0
    4.6569    7.6608    0.0000 H   0  0  0  0  0  0  0  0  0  0  0  0
    5.4794    7.6704    0.0000 H   0  0  0  0  0  0  0  0  0  0  0  0
   15.3410   10.8484    0.0000 H   0  0  0  0  0  0  0  0  0  0  0  0
   14.7318   10.3122    0.0000 H   0  0  0  0  0  0  0  0  0  0  0  0
   15.4936    8.2392    0.0000 H   0  0  0  0  0  0  0  0  0  0  0  0
   16.3161    8.2488    0.0000 H   0  0  0  0  0  0  0  0  0  0  0  0
    3.7803    9.1116    0.0000 H   0  0  0  0  0  0  0  0  0  0  0  0
   14.6170    9.6900    0.0000 H   0  0  0  0  0  0  0  0  0  0  0  0
    6.5271   11.8735    0.0000 H   0  0  0  0  0  0  0  0  0  0  0  0
    5.9753   12.5549    0.0000 H   0  0  0  0  0  0  0  0  0  0  0  0
    5.2939   12.0031    0.0000 H   0  0  0  0  0  0  0  0  0  0  0  0
   17.3638   12.4518    0.0000 H   0  0  0  0  0  0  0  0  0  0  0  0
   16.8120   13.1333    0.0000 H   0  0  0  0  0  0  0  0  0  0  0  0
   16.1306   12.5815    0.0000 H   0  0  0  0  0  0  0  0  0  0  0  0
    2.2884    7.6305    0.0000 H   0  0  0  0  0  0  0  0  0  0  0  0
   13.1251    8.2088    0.0000 H   0  0  0  0  0  0  0  0  0  0  0  0
    1.8896    8.0612    0.0000 H   0  0  0  0  0  0  0  0  0  0  0  0
    1.1046    8.1996    0.0000 H   0  0  0  0  0  0  0  0  0  0  0  0
   12.7263    8.6396    0.0000 H   0  0  0  0  0  0  0  0  0  0  0  0
   11.9414    8.7780    0.0000 H   0  0  0  0  0  0  0  0  0  0  0  0
    3.3557    5.6044    0.0000 H   0  0  0  0  0  0  0  0  0  0  0  0
   14.1924    6.1827    0.0000 H   0  0  0  0  0  0  0  0  0  0  0  0
    0.5924    6.0916    0.0000 H   0  0  0  0  0  0  0  0  0  0  0  0
   11.4291    6.6700    0.0000 H   0  0  0  0  0  0  0  0  0  0  0  0
    0.0000    7.7192    0.0000 H   0  0  0  0  0  0  0  0  0  0  0  0
   10.8367    8.2976    0.0000 H   0  0  0  0  0  0  0  0  0  0  0  0
    3.0744    4.0090    0.0000 H   0  0  0  0  0  0  0  0  0  0  0  0
   13.9111    4.5873    0.0000 H   0  0  0  0  0  0  0  0  0  0  0  0
    0.3111    4.4962    0.0000 H   0  0  0  0  0  0  0  0  0  0  0  0
   11.1478    5.0746    0.0000 H   0  0  0  0  0  0  0  0  0  0  0  0
    1.5521    3.4549    0.0000 H   0  0  0  0  0  0  0  0  0  0  0  0
   12.3888    4.0333    0.0000 H   0  0  0  0  0  0  0  0  0  0  0  0
   15.6414   15.7445    0.0000 H   0  0  0  0  0  0  0  0  0  0  0  0
   14.5675   15.7445    0.0000 H   0  0  0  0  0  0  0  0  0  0  0  0
  1  8  1  0  0  0  0
  1  9  1  0  0  0  0
  1 10  2  0  0  0  0
  1 11  2  0  0  0  0
  2 27  1  0  0  0  0
  2 31  1  0  0  0  0
  3 28  1  0  0  0  0
  3 32  1  0  0  0  0
  4 31  2  0  0  0  0
  5 32  2  0  0  0  0
  6 35  1  0  0  0  0
  6 89  1  0  0  0  0
  7 36  1  0  0  0  0
  7 90  1  0  0  0  0
 12 97  1  0  0  0  0
 12 98  1  0  0  0  0
 13 15  1  0  0  0  0
 13 16  1  0  0  0  0
 13 29  1  0  0  0  0
 13 53  1  0  0  0  0
 14 17  1  0  0  0  0
 14 18  1  0  0  0  0
 14 30  1  0  0  0  0
 14 54  1  0  0  0  0
 15 19  1  0  0  0  0
 15 23  1  0  0  0  0
 15 49  1  0  0  0  0
 16 20  1  0  0  0  0
 16 24  1  0  0  0  0
 16 50  1  0  0  0  0
 17 21  1  0  0  0  0
 17 25  1  0  0  0  0
 17 51  1  0  0  0  0
 18 22  1  0  0  0  0
 18 26  1  0  0  0  0
 18 52  1  0  0  0  0
 19 20  1  0  0  0  0
 19 55  1  0  0  0  0
 19 56  1  0  0  0  0
 20 57  1  0  0  0  0
 20 58  1  0  0  0  0
 21 22  1  0  0  0  0
 21 59  1  0  0  0  0
 21 60  1  0  0  0  0
 22 61  1  0  0  0  0
 22 62  1  0  0  0  0
 23 27  1  0  0  0  0
 23 63  1  0  0  0  0
 23 64  1  0  0  0  0
 24 27  1  0  0  0  0
 24 65  1  0  0  0  0
 24 66  1  0  0  0  0
 25 28  1  0  0  0  0
 25 67  1  0  0  0  0
 25 68  1  0  0  0  0
 26 28  1  0  0  0  0
 26 69  1  0  0  0  0
 26 70  1  0  0  0  0
 27 71  1  0  0  0  0
 28 72  1  0  0  0  0
 29 73  1  0  0  0  0
 29 74  1  0  0  0  0
 29 75  1  0  0  0  0
 30 76  1  0  0  0  0
 30 77  1  0  0  0  0
 30 78  1  0  0  0  0
 31 33  1  0  0  0  0
 32 34  1  0  0  0  0
 33 35  1  0  0  0  0
 33 37  1  0  0  0  0
 33 79  1  0  0  0  0
 34 36  1  0  0  0  0
 34 38  1  0  0  0  0
 34 80  1  0  0  0  0
 35 81  1  0  0  0  0
 35 82  1  0  0  0  0
 36 83  1  0  0  0  0
 36 84  1  0  0  0  0
 37 39  2  0  0  0  0
 37 41  1  0  0  0  0
 38 40  2  0  0  0  0
 38 42  1  0  0  0  0
 39 43  1  0  0  0  0
 39 85  1  0  0  0  0
 40 44  1  0  0  0  0
 40 86  1  0  0  0  0
 41 45  2  0  0  0  0
 41 87  1  0  0  0  0
 42 46  2  0  0  0  0
 42 88  1  0  0  0  0
 43 47  2  0  0  0  0
 43 91  1  0  0  0  0
 44 48  2  0  0  0  0
 44 92  1  0  0  0  0
 45 47  1  0  0  0  0
 45 93  1  0  0  0  0
 46 48  1  0  0  0  0
 46 94  1  0  0  0  0
 47 95  1  0  0  0  0
 48 96  1  0  0  0  0
M  CHG  4   8  -1   9  -1  13   1  14   1
M  END
> <PUBCHEM_COMPOUND_CID>
517295
> <PUBCHEM_COMPOUND_CANONICALIZED>
1
> <PUBCHEM_CACTVS_COMPLEXITY>
415
> <PUBCHEM_CACTVS_HBOND_ACCEPTOR>
11
> <PUBCHEM_CACTVS_HBOND_DONOR>
5
> <PUBCHEM_CACTVS_ROTATABLE_BOND>
10
> <PUBCHEM_CACTVS_SUBSKEYS>
AAADcfB/PABAAAAAAAAAAAAAAAAAAWLAAAA8eIEABgwAAAABQAAAHgAQCAAADTzhmAYyCIPABgCIAiDSCDACAAAgAAAIiIEIAIgIMDaAlRCGYAAn8AGIiAeYyOCOgAAAAAAAAAAAAAAAAAAAAAAAAAAAAA==
> <PUBCHEM_IUPAC_OPENEYE_NAME>
(8-methyl-8-azoniabicyclo[3.2.1]octan-3-yl) 3-hydroxy-2-phenyl-propanoate;sulfate;hydrate
> <PUBCHEM_IUPAC_CAS_NAME>
3-hydroxy-2-phenylpropanoic acid (8-methyl-8-azoniabicyclo[3.2.1]octan-3-yl) ester;sulfate;hydrate
> <PUBCHEM_IUPAC_NAME_MARKUP>
(8-methyl-8-azoniabicyclo[3.2.1]octan-3-yl) 3-hydroxy-2-phenylpropanoate;sulfate;hydrate
> <PUBCHEM_IUPAC_NAME>
(8-methyl-8-azoniabicyclo[3.2.1]octan-3-yl) 3-hydroxy-2-phenylpropanoate;sulfate;hydrate
> <PUBCHEM_IUPAC_SYSTEMATIC_NAME>
(8-methyl-8-azoniabicyclo[3.2.1]octan-3-yl) 3-oxidanyl-2-phenyl-propanoate;sulfate;hydrate
> <PUBCHEM_IUPAC_TRADITIONAL_NAME>
3-hydroxy-2-phenyl-propionic acid (8-methyl-8-azoniabicyclo[3.2.1]octan-3-yl) ester;sulfate;hydrate
> <PUBCHEM_IUPAC_INCHI>
InChI=1S/2C17H23NO3.H2O4S.H2O/c2*1-18-13-7-8-14(18)10-15(9-13)21-17(20)16(11-19)12-5-3-2-4-6-12;1-5(2,3)4;/h2*2-6,13-16,19H,7-11H2,1H3;(H2,1,2,3,4);1H2
> <PUBCHEM_IUPAC_INCHIKEY>
JPKKQJKQTPNWTR-UHFFFAOYSA-N
> <PUBCHEM_EXACT_MASS>
694.31353159
> <PUBCHEM_MOLECULAR_FORMULA>
C34H50N2O11S
> <PUBCHEM_MOLECULAR_WEIGHT>
694.8
> <PUBCHEM_OPENEYE_CAN_SMILES>
C[NH+]1C2CCC1CC(C2)OC(=O)C(CO)C3=CC=CC=C3.C[NH+]1C2CCC1CC(C2)OC(=O)C(CO)C3=CC=CC=C3.O.[O-]S(=O)(=O)[O-]
> <PUBCHEM_OPENEYE_ISO_SMILES>
C[NH+]1C2CCC1CC(C2)OC(=O)C(CO)C3=CC=CC=C3.C[NH+]1C2CCC1CC(C2)OC(=O)C(CO)C3=CC=CC=C3.O.[O-]S(=O)(=O)[O-]
> <PUBCHEM_CACTVS_TPSA>
192
> <PUBCHEM_MONOISOTOPIC_WEIGHT>
694.31353159
> <PUBCHEM_TOTAL_CHARGE>
0
> <PUBCHEM_HEAVY_ATOM_COUNT>
48
> <PUBCHEM_ATOM_DEF_STEREO_COUNT>
0
> <PUBCHEM_ATOM_UDEF_STEREO_COUNT>
6
> <PUBCHEM_BOND_DEF_STEREO_COUNT>
0
> <PUBCHEM_BOND_UDEF_STEREO_COUNT>
0
> <PUBCHEM_ISOTOPIC_ATOM_COUNT>
0
> <PUBCHEM_COMPONENT_COUNT>
4
> <PUBCHEM_CACTVS_TAUTO_COUNT>
-1
> <PUBCHEM_COORDINATE_TYPE>
1
5
255
> <PUBCHEM_BONDANNOTATIONS>
15  19  3
16  20  3
17  21  3
18  22  3
33  35  3
34  36  3
37  39  8
37  41  8
38  40  8
38  42  8
39  43  8
40  44  8
41  45  8
42  46  8
43  47  8
44  48  8
45  47  8
46  48  8
$$$$
