517284
  -OEChem-10302200292D
 51 51  0     1  0  0  0  0  0999 V2000
    7.3327    1.5221    0.0000 Cl  0  0  0  0  0  0  0  0  0  0  0  0
    0.2314    3.0750    0.0000 O   0  0  0  0  0  0  0  0  0  0  0  0
    0.0000    0.6200    0.0000 O   0  0  0  0  0  0  0  0  0  0  0  0
    0.0000    5.4243    0.0000 O   0  0  0  0  0  0  0  0  0  0  0  0
    2.6479    8.0443    0.0000 O   0  0  0  0  0  0  0  0  0  0  0  0
    7.8327    4.0222    0.0000 O   0  0  0  0  0  0  0  0  0  0  0  0
    7.8327    6.5222    0.0000 O   0  0  0  0  0  0  0  0  0  0  0  0
    4.1607    2.0711    0.0000 N   0  0  3  0  0  0  0  0  0  0  0  0
    1.6897    2.5466    0.0000 C   0  0  3  0  0  0  0  0  0  0  0  0
    2.5133    2.0711    0.0000 C   0  0  3  0  0  0  0  0  0  0  0  0
    3.3370    2.5466    0.0000 C   0  0  3  0  0  0  0  0  0  0  0  0
    0.8660    2.0711    0.0000 C   0  0  3  0  0  0  0  0  0  0  0  0
    2.2392    3.2441    0.0000 C   0  0  0  0  0  0  0  0  0  0  0  0
    1.6897    3.4977    0.0000 C   0  0  0  0  0  0  0  0  0  0  0  0
    3.3370    3.4977    0.0000 C   0  0  0  0  0  0  0  0  0  0  0  0
    3.5918    3.2441    0.0000 C   0  0  0  0  0  0  0  0  0  0  0  0
    2.5133    3.9732    0.0000 C   0  0  0  0  0  0  0  0  0  0  0  0
    0.8660    1.1200    0.0000 C   0  0  3  0  0  0  0  0  0  0  0  0
    2.5133    1.1200    0.0000 C   0  0  0  0  0  0  0  0  0  0  0  0
    0.8660    3.9732    0.0000 C   0  0  0  0  0  0  0  0  0  0  0  0
    1.6897    0.6445    0.0000 C   0  0  0  0  0  0  0  0  0  0  0  0
    4.8418    1.3389    0.0000 C   0  0  0  0  0  0  0  0  0  0  0  0
    2.5133    4.9243    0.0000 C   0  0  0  0  0  0  0  0  0  0  0  0
    0.8660    4.9243    0.0000 C   0  0  0  0  0  0  0  0  0  0  0  0
    1.6897    5.3998    0.0000 C   0  0  0  0  0  0  0  0  0  0  0  0
    3.0503    1.7611    0.0000 H   0  0  0  0  0  0  0  0  0  0  0  0
    3.8739    2.8566    0.0000 H   0  0  0  0  0  0  0  0  0  0  0  0
    0.2705    1.8986    0.0000 H   0  0  0  0  0  0  0  0  0  0  0  0
    2.3760    3.8488    0.0000 H   0  0  0  0  0  0  0  0  0  0  0  0
    1.6795    3.5109    0.0000 H   0  0  0  0  0  0  0  0  0  0  0  0
    3.9476    3.3900    0.0000 H   0  0  0  0  0  0  0  0  0  0  0  0
    3.5490    4.0803    0.0000 H   0  0  0  0  0  0  0  0  0  0  0  0
    4.1840    3.4279    0.0000 H   0  0  0  0  0  0  0  0  0  0  0  0
    3.4989    3.8570    0.0000 H   0  0  0  0  0  0  0  0  0  0  0  0
    0.8660    0.5000    0.0000 H   0  0  0  0  0  0  0  0  0  0  0  0
    3.0503    0.8100    0.0000 H   0  0  0  0  0  0  0  0  0  0  0  0
    1.6897    0.0245    0.0000 H   0  0  0  0  0  0  0  0  0  0  0  0
    4.3879    0.9166    0.0000 H   0  0  0  0  0  0  0  0  0  0  0  0
    5.2641    0.8850    0.0000 H   0  0  0  0  0  0  0  0  0  0  0  0
    5.2957    1.7613    0.0000 H   0  0  0  0  0  0  0  0  0  0  0  0
    3.0503    5.2343    0.0000 H   0  0  0  0  0  0  0  0  0  0  0  0
    1.6897    6.0198    0.0000 H   0  0  0  0  0  0  0  0  0  0  0  0
    0.0000    0.0000    0.0000 H   0  0  0  0  0  0  0  0  0  0  0  0
    0.0000    6.0443    0.0000 H   0  0  0  0  0  0  0  0  0  0  0  0
    3.1848    8.3543    0.0000 H   0  0  0  0  0  0  0  0  0  0  0  0
    2.1109    8.3543    0.0000 H   0  0  0  0  0  0  0  0  0  0  0  0
    8.3696    4.3322    0.0000 H   0  0  0  0  0  0  0  0  0  0  0  0
    7.2957    4.3322    0.0000 H   0  0  0  0  0  0  0  0  0  0  0  0
    8.3696    6.8322    0.0000 H   0  0  0  0  0  0  0  0  0  0  0  0
    7.2957    6.8322    0.0000 H   0  0  0  0  0  0  0  0  0  0  0  0
    8.3327    1.5221    0.0000 H   0  0  0  0  0  0  0  0  0  0  0  0
  1 51  1  0  0  0  0
  2 12  1  0  0  0  0
  2 20  1  0  0  0  0
  3 18  1  0  0  0  0
  3 43  1  0  0  0  0
  4 24  1  0  0  0  0
  4 44  1  0  0  0  0
  5 45  1  0  0  0  0
  5 46  1  0  0  0  0
  6 47  1  0  0  0  0
  6 48  1  0  0  0  0
  7 49  1  0  0  0  0
  7 50  1  0  0  0  0
  8 11  1  0  0  0  0
  8 16  1  0  0  0  0
  8 22  1  0  0  0  0
  9 10  1  0  0  0  0
  9 12  1  0  0  0  0
  9 13  1  0  0  0  0
  9 14  1  0  0  0  0
 10 11  1  0  0  0  0
 10 19  1  0  0  0  0
 10 26  1  0  0  0  0
 11 15  1  0  0  0  0
 11 27  1  0  0  0  0
 12 18  1  0  0  0  0
 12 28  1  0  0  0  0
 13 16  1  0  0  0  0
 13 29  1  0  0  0  0
 13 30  1  0  0  0  0
 14 17  2  0  0  0  0
 14 20  1  0  0  0  0
 15 17  1  0  0  0  0
 15 31  1  0  0  0  0
 15 32  1  0  0  0  0
 16 33  1  0  0  0  0
 16 34  1  0  0  0  0
 17 23  1  0  0  0  0
 18 21  1  0  0  0  0
 18 35  1  0  0  0  0
 19 21  2  0  0  0  0
 19 36  1  0  0  0  0
 20 24  2  0  0  0  0
 21 37  1  0  0  0  0
 22 38  1  0  0  0  0
 22 39  1  0  0  0  0
 22 40  1  0  0  0  0
 23 25  2  0  0  0  0
 23 41  1  0  0  0  0
 24 25  1  0  0  0  0
 25 42  1  0  0  0  0
M  END
> <PUBCHEM_COMPOUND_CID>
517284
> <PUBCHEM_COMPOUND_CANONICALIZED>
1
> <PUBCHEM_CACTVS_COMPLEXITY>
494
> <PUBCHEM_CACTVS_HBOND_ACCEPTOR>
7
> <PUBCHEM_CACTVS_HBOND_DONOR>
6
> <PUBCHEM_CACTVS_ROTATABLE_BOND>
0
> <PUBCHEM_CACTVS_SUBSKEYS>
AAADceB6OAAEAAAAAAAAAAAAAAAAASAAAAA8YIEAAAAWAEjBAAAAHgAACAAADzzhmAYyBoMABgCAAiBCAAACCAAgIAAIiAAOiIgNNiKGsRuGeCOkwBGLuAew8PcPoAABAAAYQADQAAaAADSAAAAAAAAAAA==
> <PUBCHEM_IUPAC_OPENEYE_NAME>
3-methyl-2,4,4a,7,7a,13-hexahydro-1H-4,12-methanobenzofuro[3,2-e]isoquinoline-7,9-diol;trihydrate;hydrochloride
> <PUBCHEM_IUPAC_CAS_NAME>
3-methyl-2,4,4a,7,7a,13-hexahydro-1H-4,12-methanobenzofuro[3,2-e]isoquinoline-7,9-diol;trihydrate;hydrochloride
> <PUBCHEM_IUPAC_NAME_MARKUP>
3-methyl-2,4,4<I>a</I>,7,7<I>a</I>,13-hexahydro-1<I>H</I>-4,12-methanobenzofuro[3,2-e]isoquinoline-7,9-diol;trihydrate;hydrochloride
> <PUBCHEM_IUPAC_NAME>
3-methyl-2,4,4a,7,7a,13-hexahydro-1H-4,12-methanobenzofuro[3,2-e]isoquinoline-7,9-diol;trihydrate;hydrochloride
> <PUBCHEM_IUPAC_SYSTEMATIC_NAME>
3-methyl-2,4,4a,7,7a,13-hexahydro-1H-4,12-methanobenzofuro[3,2-e]isoquinoline-7,9-diol;trihydrate;hydrochloride
> <PUBCHEM_IUPAC_TRADITIONAL_NAME>
3-methyl-2,4,4a,7,7a,13-hexahydro-1H-4,12-methanobenzofuro[3,2-e]isoquinoline-7,9-diol;trihydrate;hydrochloride
> <PUBCHEM_IUPAC_INCHI>
InChI=1S/C17H19NO3.ClH.3H2O/c1-18-7-6-17-10-3-5-13(20)16(17)21-15-12(19)4-2-9(14(15)17)8-11(10)18;;;;/h2-5,10-11,13,16,19-20H,6-8H2,1H3;1H;3*1H2
> <PUBCHEM_IUPAC_INCHIKEY>
XELXKCKNPPSFNN-UHFFFAOYSA-N
> <PUBCHEM_EXACT_MASS>
375.1448652
> <PUBCHEM_MOLECULAR_FORMULA>
C17H26ClNO6
> <PUBCHEM_MOLECULAR_WEIGHT>
375.8
> <PUBCHEM_OPENEYE_CAN_SMILES>
CN1CCC23C4C1CC5=C2C(=C(C=C5)O)OC3C(C=C4)O.O.O.O.Cl
> <PUBCHEM_OPENEYE_ISO_SMILES>
CN1CCC23C4C1CC5=C2C(=C(C=C5)O)OC3C(C=C4)O.O.O.O.Cl
> <PUBCHEM_CACTVS_TPSA>
55.9
> <PUBCHEM_MONOISOTOPIC_WEIGHT>
375.1448652
> <PUBCHEM_TOTAL_CHARGE>
0
> <PUBCHEM_HEAVY_ATOM_COUNT>
25
> <PUBCHEM_ATOM_DEF_STEREO_COUNT>
0
> <PUBCHEM_ATOM_UDEF_STEREO_COUNT>
5
> <PUBCHEM_BOND_DEF_STEREO_COUNT>
0
> <PUBCHEM_BOND_UDEF_STEREO_COUNT>
0
> <PUBCHEM_ISOTOPIC_ATOM_COUNT>
0
> <PUBCHEM_COMPONENT_COUNT>
5
> <PUBCHEM_CACTVS_TAUTO_COUNT>
-1
> <PUBCHEM_COORDINATE_TYPE>
1
5
255
> <PUBCHEM_BONDANNOTATIONS>
10  19  3
11  15  3
14  17  8
14  20  8
17  23  8
12  2  3
20  24  8
23  25  8
24  25  8
18  3  3
9  13  3
$$$$
