517286
  -OEChem-10302200292D
102104  0     1  0  0  0  0  0999 V2000
    4.4768    9.5443    0.0000 S   0  0  0  0  0  0  0  0  0  0  0  0
    8.1112   11.1193    0.0000 O   0  0  0  0  0  0  0  0  0  0  0  0
    8.1112    3.0750    0.0000 O   0  0  0  0  0  0  0  0  0  0  0  0
    7.8798    8.6643    0.0000 O   0  0  0  0  0  0  0  0  0  0  0  0
    7.8798    0.6200    0.0000 O   0  0  0  0  0  0  0  0  0  0  0  0
    7.8798   13.4686    0.0000 O   0  0  0  0  0  0  0  0  0  0  0  0
    7.8798    5.4243    0.0000 O   0  0  0  0  0  0  0  0  0  0  0  0
    5.3429   10.0443    0.0000 O   0  0  0  0  0  0  0  0  0  0  0  0
    3.6108    9.0443    0.0000 O   0  0  0  0  0  0  0  0  0  0  0  0
    3.9768   10.4103    0.0000 O   0  0  0  0  0  0  0  0  0  0  0  0
    4.9768    8.6783    0.0000 O   0  0  0  0  0  0  0  0  0  0  0  0
    0.5369    9.2943    0.0000 O   0  0  0  0  0  0  0  0  0  0  0  0
   18.7863    9.2943    0.0000 O   0  0  0  0  0  0  0  0  0  0  0  0
   10.5277   18.5886    0.0000 O   0  0  0  0  0  0  0  0  0  0  0  0
   15.7125    9.2943    0.0000 O   0  0  0  0  0  0  0  0  0  0  0  0
   10.5277   16.0886    0.0000 O   0  0  0  0  0  0  0  0  0  0  0  0
   12.0404   10.1154    0.0000 N   0  0  3  0  0  0  0  0  0  0  0  0
   12.0404    2.0711    0.0000 N   0  0  3  0  0  0  0  0  0  0  0  0
    9.5695   10.5909    0.0000 C   0  0  3  0  0  0  0  0  0  0  0  0
    9.5695    2.5466    0.0000 C   0  0  3  0  0  0  0  0  0  0  0  0
   10.3931   10.1154    0.0000 C   0  0  3  0  0  0  0  0  0  0  0  0
   10.3931    2.0711    0.0000 C   0  0  3  0  0  0  0  0  0  0  0  0
   11.2168   10.5909    0.0000 C   0  0  3  0  0  0  0  0  0  0  0  0
   11.2168    2.5466    0.0000 C   0  0  3  0  0  0  0  0  0  0  0  0
    8.7458   10.1154    0.0000 C   0  0  3  0  0  0  0  0  0  0  0  0
    8.7458    2.0711    0.0000 C   0  0  3  0  0  0  0  0  0  0  0  0
   10.1190   11.2884    0.0000 C   0  0  0  0  0  0  0  0  0  0  0  0
   10.1190    3.2441    0.0000 C   0  0  0  0  0  0  0  0  0  0  0  0
    9.5695   11.5420    0.0000 C   0  0  0  0  0  0  0  0  0  0  0  0
    9.5695    3.4977    0.0000 C   0  0  0  0  0  0  0  0  0  0  0  0
   11.2168   11.5420    0.0000 C   0  0  0  0  0  0  0  0  0  0  0  0
   11.2168    3.4977    0.0000 C   0  0  0  0  0  0  0  0  0  0  0  0
   11.4716   11.2884    0.0000 C   0  0  0  0  0  0  0  0  0  0  0  0
   11.4716    3.2441    0.0000 C   0  0  0  0  0  0  0  0  0  0  0  0
   10.3931   12.0175    0.0000 C   0  0  0  0  0  0  0  0  0  0  0  0
   10.3931    3.9732    0.0000 C   0  0  0  0  0  0  0  0  0  0  0  0
    8.7458    9.1643    0.0000 C   0  0  3  0  0  0  0  0  0  0  0  0
    8.7458    1.1200    0.0000 C   0  0  3  0  0  0  0  0  0  0  0  0
   10.3931    9.1643    0.0000 C   0  0  0  0  0  0  0  0  0  0  0  0
   10.3931    1.1200    0.0000 C   0  0  0  0  0  0  0  0  0  0  0  0
    8.7458   12.0175    0.0000 C   0  0  0  0  0  0  0  0  0  0  0  0
    8.7458    3.9732    0.0000 C   0  0  0  0  0  0  0  0  0  0  0  0
    9.5695    8.6888    0.0000 C   0  0  0  0  0  0  0  0  0  0  0  0
    9.5695    0.6445    0.0000 C   0  0  0  0  0  0  0  0  0  0  0  0
   12.7216    9.3832    0.0000 C   0  0  0  0  0  0  0  0  0  0  0  0
   12.7216    1.3389    0.0000 C   0  0  0  0  0  0  0  0  0  0  0  0
   10.3931   12.9686    0.0000 C   0  0  0  0  0  0  0  0  0  0  0  0
   10.3931    4.9243    0.0000 C   0  0  0  0  0  0  0  0  0  0  0  0
    8.7458   12.9686    0.0000 C   0  0  0  0  0  0  0  0  0  0  0  0
    8.7458    4.9243    0.0000 C   0  0  0  0  0  0  0  0  0  0  0  0
    9.5695   13.4441    0.0000 C   0  0  0  0  0  0  0  0  0  0  0  0
    9.5695    5.3998    0.0000 C   0  0  0  0  0  0  0  0  0  0  0  0
   10.9301    9.8054    0.0000 H   0  0  0  0  0  0  0  0  0  0  0  0
   10.9301    1.7611    0.0000 H   0  0  0  0  0  0  0  0  0  0  0  0
   11.7537   10.9009    0.0000 H   0  0  0  0  0  0  0  0  0  0  0  0
   11.7537    2.8566    0.0000 H   0  0  0  0  0  0  0  0  0  0  0  0
    8.1503    9.9429    0.0000 H   0  0  0  0  0  0  0  0  0  0  0  0
    8.1503    1.8986    0.0000 H   0  0  0  0  0  0  0  0  0  0  0  0
   10.2558   11.8931    0.0000 H   0  0  0  0  0  0  0  0  0  0  0  0
    9.5593   11.5552    0.0000 H   0  0  0  0  0  0  0  0  0  0  0  0
   10.2558    3.8488    0.0000 H   0  0  0  0  0  0  0  0  0  0  0  0
    9.5593    3.5109    0.0000 H   0  0  0  0  0  0  0  0  0  0  0  0
   11.8274   11.4343    0.0000 H   0  0  0  0  0  0  0  0  0  0  0  0
   11.4288   12.1246    0.0000 H   0  0  0  0  0  0  0  0  0  0  0  0
   11.8274    3.3900    0.0000 H   0  0  0  0  0  0  0  0  0  0  0  0
   11.4288    4.0803    0.0000 H   0  0  0  0  0  0  0  0  0  0  0  0
   12.0638   11.4722    0.0000 H   0  0  0  0  0  0  0  0  0  0  0  0
   11.3787   11.9014    0.0000 H   0  0  0  0  0  0  0  0  0  0  0  0
   12.0638    3.4279    0.0000 H   0  0  0  0  0  0  0  0  0  0  0  0
   11.3787    3.8570    0.0000 H   0  0  0  0  0  0  0  0  0  0  0  0
    8.7458    8.5443    0.0000 H   0  0  0  0  0  0  0  0  0  0  0  0
    8.7458    0.5000    0.0000 H   0  0  0  0  0  0  0  0  0  0  0  0
   10.9301    8.8543    0.0000 H   0  0  0  0  0  0  0  0  0  0  0  0
   10.9301    0.8100    0.0000 H   0  0  0  0  0  0  0  0  0  0  0  0
    9.5695    8.0688    0.0000 H   0  0  0  0  0  0  0  0  0  0  0  0
    9.5695    0.0245    0.0000 H   0  0  0  0  0  0  0  0  0  0  0  0
   12.2677    8.9609    0.0000 H   0  0  0  0  0  0  0  0  0  0  0  0
   13.1439    8.9293    0.0000 H   0  0  0  0  0  0  0  0  0  0  0  0
   13.1755    9.8056    0.0000 H   0  0  0  0  0  0  0  0  0  0  0  0
   12.2677    0.9166    0.0000 H   0  0  0  0  0  0  0  0  0  0  0  0
   13.1439    0.8850    0.0000 H   0  0  0  0  0  0  0  0  0  0  0  0
   13.1755    1.7613    0.0000 H   0  0  0  0  0  0  0  0  0  0  0  0
   10.9301   13.2786    0.0000 H   0  0  0  0  0  0  0  0  0  0  0  0
   10.9301    5.2343    0.0000 H   0  0  0  0  0  0  0  0  0  0  0  0
    9.5695   14.0641    0.0000 H   0  0  0  0  0  0  0  0  0  0  0  0
    9.5695    6.0198    0.0000 H   0  0  0  0  0  0  0  0  0  0  0  0
    7.8798    8.0443    0.0000 H   0  0  0  0  0  0  0  0  0  0  0  0
    7.8798    0.0000    0.0000 H   0  0  0  0  0  0  0  0  0  0  0  0
    7.8798   14.0886    0.0000 H   0  0  0  0  0  0  0  0  0  0  0  0
    7.8798    6.0443    0.0000 H   0  0  0  0  0  0  0  0  0  0  0  0
    5.8798    9.7343    0.0000 H   0  0  0  0  0  0  0  0  0  0  0  0
    3.0739    9.3543    0.0000 H   0  0  0  0  0  0  0  0  0  0  0  0
    1.0739    9.6043    0.0000 H   0  0  0  0  0  0  0  0  0  0  0  0
    0.0000    9.6043    0.0000 H   0  0  0  0  0  0  0  0  0  0  0  0
   19.3233    9.6043    0.0000 H   0  0  0  0  0  0  0  0  0  0  0  0
   18.2494    9.6043    0.0000 H   0  0  0  0  0  0  0  0  0  0  0  0
   11.0646   18.8986    0.0000 H   0  0  0  0  0  0  0  0  0  0  0  0
    9.9907   18.8986    0.0000 H   0  0  0  0  0  0  0  0  0  0  0  0
   16.2494    9.6043    0.0000 H   0  0  0  0  0  0  0  0  0  0  0  0
   15.1755    9.6043    0.0000 H   0  0  0  0  0  0  0  0  0  0  0  0
   11.0646   16.3986    0.0000 H   0  0  0  0  0  0  0  0  0  0  0  0
    9.9907   16.3986    0.0000 H   0  0  0  0  0  0  0  0  0  0  0  0
  1  8  1  0  0  0  0
  1  9  1  0  0  0  0
  1 10  2  0  0  0  0
  1 11  2  0  0  0  0
  2 25  1  0  0  0  0
  2 41  1  0  0  0  0
  3 26  1  0  0  0  0
  3 42  1  0  0  0  0
  4 37  1  0  0  0  0
  4 87  1  0  0  0  0
  5 38  1  0  0  0  0
  5 88  1  0  0  0  0
  6 49  1  0  0  0  0
  6 89  1  0  0  0  0
  7 50  1  0  0  0  0
  7 90  1  0  0  0  0
  8 91  1  0  0  0  0
  9 92  1  0  0  0  0
 12 93  1  0  0  0  0
 12 94  1  0  0  0  0
 13 95  1  0  0  0  0
 13 96  1  0  0  0  0
 14 97  1  0  0  0  0
 14 98  1  0  0  0  0
 15 99  1  0  0  0  0
 15100  1  0  0  0  0
 16101  1  0  0  0  0
 16102  1  0  0  0  0
 17 23  1  0  0  0  0
 17 33  1  0  0  0  0
 17 45  1  0  0  0  0
 18 24  1  0  0  0  0
 18 34  1  0  0  0  0
 18 46  1  0  0  0  0
 19 21  1  0  0  0  0
 19 25  1  0  0  0  0
 19 27  1  0  0  0  0
 19 29  1  0  0  0  0
 20 22  1  0  0  0  0
 20 26  1  0  0  0  0
 20 28  1  0  0  0  0
 20 30  1  0  0  0  0
 21 23  1  0  0  0  0
 21 39  1  0  0  0  0
 21 53  1  0  0  0  0
 22 24  1  0  0  0  0
 22 40  1  0  0  0  0
 22 54  1  0  0  0  0
 23 31  1  0  0  0  0
 23 55  1  0  0  0  0
 24 32  1  0  0  0  0
 24 56  1  0  0  0  0
 25 37  1  0  0  0  0
 25 57  1  0  0  0  0
 26 38  1  0  0  0  0
 26 58  1  0  0  0  0
 27 33  1  0  0  0  0
 27 59  1  0  0  0  0
 27 60  1  0  0  0  0
 28 34  1  0  0  0  0
 28 61  1  0  0  0  0
 28 62  1  0  0  0  0
 29 35  2  0  0  0  0
 29 41  1  0  0  0  0
 30 36  2  0  0  0  0
 30 42  1  0  0  0  0
 31 35  1  0  0  0  0
 31 63  1  0  0  0  0
 31 64  1  0  0  0  0
 32 36  1  0  0  0  0
 32 65  1  0  0  0  0
 32 66  1  0  0  0  0
 33 67  1  0  0  0  0
 33 68  1  0  0  0  0
 34 69  1  0  0  0  0
 34 70  1  0  0  0  0
 35 47  1  0  0  0  0
 36 48  1  0  0  0  0
 37 43  1  0  0  0  0
 37 71  1  0  0  0  0
 38 44  1  0  0  0  0
 38 72  1  0  0  0  0
 39 43  2  0  0  0  0
 39 73  1  0  0  0  0
 40 44  2  0  0  0  0
 40 74  1  0  0  0  0
 41 49  2  0  0  0  0
 42 50  2  0  0  0  0
 43 75  1  0  0  0  0
 44 76  1  0  0  0  0
 45 77  1  0  0  0  0
 45 78  1  0  0  0  0
 45 79  1  0  0  0  0
 46 80  1  0  0  0  0
 46 81  1  0  0  0  0
 46 82  1  0  0  0  0
 47 51  2  0  0  0  0
 47 83  1  0  0  0  0
 48 52  2  0  0  0  0
 48 84  1  0  0  0  0
 49 51  1  0  0  0  0
 50 52  1  0  0  0  0
 51 85  1  0  0  0  0
 52 86  1  0  0  0  0
M  END
> <PUBCHEM_COMPOUND_CID>
517286
> <PUBCHEM_COMPOUND_CANONICALIZED>
1
> <PUBCHEM_CACTVS_COMPLEXITY>
576
> <PUBCHEM_CACTVS_HBOND_ACCEPTOR>
17
> <PUBCHEM_CACTVS_HBOND_DONOR>
11
> <PUBCHEM_CACTVS_ROTATABLE_BOND>
0
> <PUBCHEM_CACTVS_SUBSKEYS>
AAADcfB/PABAAAAAAAAAAAAAAAAAASJAAAA8eMGCAAAWLEjBQAAAHgAACAAADzzhmAYyBoMABoCAAiBCADACCAAgIAAIiAAOiIgNNiKGsRuGeCOkwBGLuAew8PcPoAABAAAYQADQAAaAADSAAAAAAAAAAA==
> <PUBCHEM_IUPAC_OPENEYE_NAME>
3-methyl-2,4,4a,7,7a,13-hexahydro-1H-4,12-methanobenzofuro[3,2-e]isoquinoline-7,9-diol;sulfuric acid;pentahydrate
> <PUBCHEM_IUPAC_CAS_NAME>
3-methyl-2,4,4a,7,7a,13-hexahydro-1H-4,12-methanobenzofuro[3,2-e]isoquinoline-7,9-diol;sulfuric acid;pentahydrate
> <PUBCHEM_IUPAC_NAME_MARKUP>
3-methyl-2,4,4<I>a</I>,7,7<I>a</I>,13-hexahydro-1<I>H</I>-4,12-methanobenzofuro[3,2-e]isoquinoline-7,9-diol;sulfuric acid;pentahydrate
> <PUBCHEM_IUPAC_NAME>
3-methyl-2,4,4a,7,7a,13-hexahydro-1H-4,12-methanobenzofuro[3,2-e]isoquinoline-7,9-diol;sulfuric acid;pentahydrate
> <PUBCHEM_IUPAC_SYSTEMATIC_NAME>
3-methyl-2,4,4a,7,7a,13-hexahydro-1H-4,12-methanobenzofuro[3,2-e]isoquinoline-7,9-diol;sulfuric acid;pentahydrate
> <PUBCHEM_IUPAC_TRADITIONAL_NAME>
3-methyl-2,4,4a,7,7a,13-hexahydro-1H-4,12-methanobenzofuro[3,2-e]isoquinoline-7,9-diol;sulfuric acid;pentahydrate
> <PUBCHEM_IUPAC_INCHI>
InChI=1S/2C17H19NO3.H2O4S.5H2O/c2*1-18-7-6-17-10-3-5-13(20)16(17)21-15-12(19)4-2-9(14(15)17)8-11(10)18;1-5(2,3)4;;;;;/h2*2-5,10-11,13,16,19-20H,6-8H2,1H3;(H2,1,2,3,4);5*1H2
> <PUBCHEM_IUPAC_INCHIKEY>
GRVOTVYEFDAHCL-UHFFFAOYSA-N
> <PUBCHEM_EXACT_MASS>
758.29319007
> <PUBCHEM_MOLECULAR_FORMULA>
C34H50N2O15S
> <PUBCHEM_MOLECULAR_WEIGHT>
758.8
> <PUBCHEM_OPENEYE_CAN_SMILES>
CN1CCC23C4C1CC5=C2C(=C(C=C5)O)OC3C(C=C4)O.CN1CCC23C4C1CC5=C2C(=C(C=C5)O)OC3C(C=C4)O.O.O.O.O.O.OS(=O)(=O)O
> <PUBCHEM_OPENEYE_ISO_SMILES>
CN1CCC23C4C1CC5=C2C(=C(C=C5)O)OC3C(C=C4)O.CN1CCC23C4C1CC5=C2C(=C(C=C5)O)OC3C(C=C4)O.O.O.O.O.O.OS(=O)(=O)O
> <PUBCHEM_CACTVS_TPSA>
194
> <PUBCHEM_MONOISOTOPIC_WEIGHT>
758.29319007
> <PUBCHEM_TOTAL_CHARGE>
0
> <PUBCHEM_HEAVY_ATOM_COUNT>
52
> <PUBCHEM_ATOM_DEF_STEREO_COUNT>
0
> <PUBCHEM_ATOM_UDEF_STEREO_COUNT>
10
> <PUBCHEM_BOND_DEF_STEREO_COUNT>
0
> <PUBCHEM_BOND_UDEF_STEREO_COUNT>
0
> <PUBCHEM_ISOTOPIC_ATOM_COUNT>
0
> <PUBCHEM_COMPONENT_COUNT>
8
> <PUBCHEM_CACTVS_TAUTO_COUNT>
-1
> <PUBCHEM_COORDINATE_TYPE>
1
5
255
> <PUBCHEM_BONDANNOTATIONS>
19  27  3
25  2  3
20  28  3
21  39  3
22  40  3
23  31  3
24  32  3
29  35  8
29  41  8
26  3  3
30  36  8
30  42  8
35  47  8
36  48  8
37  4  3
41  49  8
42  50  8
47  51  8
48  52  8
49  51  8
38  5  3
50  52  8
$$$$
