517245
  -OEChem-10302200292D
 73 72  0     1  0  0  0  0  0999 V2000
    6.3301    0.2220    0.0000 S   0  0  0  0  0  0  0  0  0  0  0  0
    4.5981   -0.7780    0.0000 O   0  0  0  0  0  0  0  0  0  0  0  0
    2.8660    0.2220    0.0000 N   0  3  0  0  0  0  0  0  0  0  0  0
    3.7320    0.7220    0.0000 C   0  0  0  0  0  0  0  0  0  0  0  0
    4.5981    0.2220    0.0000 C   0  0  3  0  0  0  0  0  0  0  0  0
   12.3923    0.7220    0.0000 C   0  0  0  0  0  0  0  0  0  0  0  0
   13.2583    0.2220    0.0000 C   0  0  0  0  0  0  0  0  0  0  0  0
   11.5263    0.2220    0.0000 C   0  0  0  0  0  0  0  0  0  0  0  0
   14.1244    0.7220    0.0000 C   0  0  0  0  0  0  0  0  0  0  0  0
   10.6603    0.7220    0.0000 C   0  0  0  0  0  0  0  0  0  0  0  0
   14.9904    0.2220    0.0000 C   0  0  0  0  0  0  0  0  0  0  0  0
    2.0000   -0.2780    0.0000 C   0  0  0  0  0  0  0  0  0  0  0  0
    2.3660    1.0880    0.0000 C   0  0  0  0  0  0  0  0  0  0  0  0
    3.3660   -0.6440    0.0000 C   0  0  0  0  0  0  0  0  0  0  0  0
    9.7942    0.2220    0.0000 C   0  0  0  0  0  0  0  0  0  0  0  0
   15.8564    0.7220    0.0000 C   0  0  0  0  0  0  0  0  0  0  0  0
    5.4641    0.7220    0.0000 C   0  0  0  0  0  0  0  0  0  0  0  0
    8.9282    0.7220    0.0000 C   0  0  0  0  0  0  0  0  0  0  0  0
   16.7224    0.2220    0.0000 C   0  0  0  0  0  0  0  0  0  0  0  0
    8.0622    0.2220    0.0000 C   0  0  0  0  0  0  0  0  0  0  0  0
   17.5885    0.7220    0.0000 C   0  0  0  0  0  0  0  0  0  0  0  0
    7.1962    0.7220    0.0000 C   0  0  0  0  0  0  0  0  0  0  0  0
   18.4545    0.2220    0.0000 C   0  0  0  0  0  0  0  0  0  0  0  0
   19.3205    0.7220    0.0000 C   0  0  0  0  0  0  0  0  0  0  0  0
   20.1865    0.2220    0.0000 C   0  0  0  0  0  0  0  0  0  0  0  0
    4.1306    1.1969    0.0000 H   0  0  0  0  0  0  0  0  0  0  0  0
    3.3335    1.1969    0.0000 H   0  0  0  0  0  0  0  0  0  0  0  0
    5.1350   -0.0880    0.0000 H   0  0  0  0  0  0  0  0  0  0  0  0
   12.7908    1.1969    0.0000 H   0  0  0  0  0  0  0  0  0  0  0  0
   11.9938    1.1969    0.0000 H   0  0  0  0  0  0  0  0  0  0  0  0
   12.8598   -0.2530    0.0000 H   0  0  0  0  0  0  0  0  0  0  0  0
   13.6569   -0.2530    0.0000 H   0  0  0  0  0  0  0  0  0  0  0  0
   11.1278   -0.2530    0.0000 H   0  0  0  0  0  0  0  0  0  0  0  0
   11.9248   -0.2530    0.0000 H   0  0  0  0  0  0  0  0  0  0  0  0
   14.5229    1.1969    0.0000 H   0  0  0  0  0  0  0  0  0  0  0  0
   13.7258    1.1969    0.0000 H   0  0  0  0  0  0  0  0  0  0  0  0
   11.0588    1.1969    0.0000 H   0  0  0  0  0  0  0  0  0  0  0  0
   10.2617    1.1969    0.0000 H   0  0  0  0  0  0  0  0  0  0  0  0
   14.5919   -0.2530    0.0000 H   0  0  0  0  0  0  0  0  0  0  0  0
   15.3889   -0.2530    0.0000 H   0  0  0  0  0  0  0  0  0  0  0  0
    1.6900    0.2589    0.0000 H   0  0  0  0  0  0  0  0  0  0  0  0
    1.4631   -0.5880    0.0000 H   0  0  0  0  0  0  0  0  0  0  0  0
    2.3100   -0.8149    0.0000 H   0  0  0  0  0  0  0  0  0  0  0  0
    2.9030    1.3980    0.0000 H   0  0  0  0  0  0  0  0  0  0  0  0
    2.0560    1.6249    0.0000 H   0  0  0  0  0  0  0  0  0  0  0  0
    1.8291    0.7780    0.0000 H   0  0  0  0  0  0  0  0  0  0  0  0
    2.8291   -0.9540    0.0000 H   0  0  0  0  0  0  0  0  0  0  0  0
    3.6760   -1.1810    0.0000 H   0  0  0  0  0  0  0  0  0  0  0  0
    3.9030   -0.3340    0.0000 H   0  0  0  0  0  0  0  0  0  0  0  0
    9.3957   -0.2530    0.0000 H   0  0  0  0  0  0  0  0  0  0  0  0
   10.1928   -0.2530    0.0000 H   0  0  0  0  0  0  0  0  0  0  0  0
   16.2549    1.1969    0.0000 H   0  0  0  0  0  0  0  0  0  0  0  0
   15.4579    1.1969    0.0000 H   0  0  0  0  0  0  0  0  0  0  0  0
    5.8626    1.1969    0.0000 H   0  0  0  0  0  0  0  0  0  0  0  0
    5.0656    1.1969    0.0000 H   0  0  0  0  0  0  0  0  0  0  0  0
    9.3267    1.1969    0.0000 H   0  0  0  0  0  0  0  0  0  0  0  0
    8.5297    1.1969    0.0000 H   0  0  0  0  0  0  0  0  0  0  0  0
   16.3239   -0.2530    0.0000 H   0  0  0  0  0  0  0  0  0  0  0  0
   17.1210   -0.2530    0.0000 H   0  0  0  0  0  0  0  0  0  0  0  0
    7.6636   -0.2530    0.0000 H   0  0  0  0  0  0  0  0  0  0  0  0
    8.4607   -0.2530    0.0000 H   0  0  0  0  0  0  0  0  0  0  0  0
   17.9870    1.1969    0.0000 H   0  0  0  0  0  0  0  0  0  0  0  0
   17.1899    1.1969    0.0000 H   0  0  0  0  0  0  0  0  0  0  0  0
    7.5947    1.1969    0.0000 H   0  0  0  0  0  0  0  0  0  0  0  0
    6.7976    1.1969    0.0000 H   0  0  0  0  0  0  0  0  0  0  0  0
   18.0560   -0.2530    0.0000 H   0  0  0  0  0  0  0  0  0  0  0  0
   18.8530   -0.2530    0.0000 H   0  0  0  0  0  0  0  0  0  0  0  0
    5.1350   -1.0880    0.0000 H   0  0  0  0  0  0  0  0  0  0  0  0
   19.7190    1.1969    0.0000 H   0  0  0  0  0  0  0  0  0  0  0  0
   18.9220    1.1969    0.0000 H   0  0  0  0  0  0  0  0  0  0  0  0
   19.8765   -0.3149    0.0000 H   0  0  0  0  0  0  0  0  0  0  0  0
   20.7235   -0.0880    0.0000 H   0  0  0  0  0  0  0  0  0  0  0  0
   20.4965    0.7589    0.0000 H   0  0  0  0  0  0  0  0  0  0  0  0
  1 17  1  0  0  0  0
  1 22  1  0  0  0  0
  2  5  1  0  0  0  0
  2 68  1  0  0  0  0
  3  4  1  0  0  0  0
  3 12  1  0  0  0  0
  3 13  1  0  0  0  0
  3 14  1  0  0  0  0
  4  5  1  0  0  0  0
  4 26  1  0  0  0  0
  4 27  1  0  0  0  0
  5 17  1  0  0  0  0
  5 28  1  0  0  0  0
  6  7  1  0  0  0  0
  6  8  1  0  0  0  0
  6 29  1  0  0  0  0
  6 30  1  0  0  0  0
  7  9  1  0  0  0  0
  7 31  1  0  0  0  0
  7 32  1  0  0  0  0
  8 10  1  0  0  0  0
  8 33  1  0  0  0  0
  8 34  1  0  0  0  0
  9 11  1  0  0  0  0
  9 35  1  0  0  0  0
  9 36  1  0  0  0  0
 10 15  1  0  0  0  0
 10 37  1  0  0  0  0
 10 38  1  0  0  0  0
 11 16  1  0  0  0  0
 11 39  1  0  0  0  0
 11 40  1  0  0  0  0
 12 41  1  0  0  0  0
 12 42  1  0  0  0  0
 12 43  1  0  0  0  0
 13 44  1  0  0  0  0
 13 45  1  0  0  0  0
 13 46  1  0  0  0  0
 14 47  1  0  0  0  0
 14 48  1  0  0  0  0
 14 49  1  0  0  0  0
 15 18  1  0  0  0  0
 15 50  1  0  0  0  0
 15 51  1  0  0  0  0
 16 19  1  0  0  0  0
 16 52  1  0  0  0  0
 16 53  1  0  0  0  0
 17 54  1  0  0  0  0
 17 55  1  0  0  0  0
 18 20  1  0  0  0  0
 18 56  1  0  0  0  0
 18 57  1  0  0  0  0
 19 21  1  0  0  0  0
 19 58  1  0  0  0  0
 19 59  1  0  0  0  0
 20 22  1  0  0  0  0
 20 60  1  0  0  0  0
 20 61  1  0  0  0  0
 21 23  1  0  0  0  0
 21 62  1  0  0  0  0
 21 63  1  0  0  0  0
 22 64  1  0  0  0  0
 22 65  1  0  0  0  0
 23 24  1  0  0  0  0
 23 66  1  0  0  0  0
 23 67  1  0  0  0  0
 24 25  1  0  0  0  0
 24 69  1  0  0  0  0
 24 70  1  0  0  0  0
 25 71  1  0  0  0  0
 25 72  1  0  0  0  0
 25 73  1  0  0  0  0
M  CHG  1   3   1
M  END
> <PUBCHEM_COMPOUND_CID>
517245
> <PUBCHEM_COMPOUND_CANONICALIZED>
1
> <PUBCHEM_CACTVS_COMPLEXITY>
265
> <PUBCHEM_CACTVS_HBOND_ACCEPTOR>
2
> <PUBCHEM_CACTVS_HBOND_DONOR>
1
> <PUBCHEM_CACTVS_ROTATABLE_BOND>
19
> <PUBCHEM_CACTVS_SUBSKEYS>
AAADcfB6IABAAAAAAAAAAAAAAAAAAAAAAAAAAAAAAAAAAAAAAAAAHgQACAAACBTlwAaCAAMAAggAAAAAAAAAAAAAABAAAAAIAAACEAIgAAAEAAAAAAAwAAEAgIAAAAAAAAAAAAAAAAAAAAAAAAAAAAAAAA==
> <PUBCHEM_IUPAC_OPENEYE_NAME>
(3-hexadecylsulfanyl-2-hydroxy-propyl)-trimethyl-ammonium
> <PUBCHEM_IUPAC_CAS_NAME>
[3-(hexadecylthio)-2-hydroxypropyl]-trimethylammonium
> <PUBCHEM_IUPAC_NAME_MARKUP>
(3-hexadecylsulfanyl-2-hydroxypropyl)-trimethylazanium
> <PUBCHEM_IUPAC_NAME>
(3-hexadecylsulfanyl-2-hydroxypropyl)-trimethylazanium
> <PUBCHEM_IUPAC_SYSTEMATIC_NAME>
(3-hexadecylsulfanyl-2-oxidanyl-propyl)-trimethyl-azanium
> <PUBCHEM_IUPAC_TRADITIONAL_NAME>
[3-(cetylthio)-2-hydroxy-propyl]-trimethyl-ammonium
> <PUBCHEM_IUPAC_INCHI>
InChI=1S/C22H48NOS/c1-5-6-7-8-9-10-11-12-13-14-15-16-17-18-19-25-21-22(24)20-23(2,3)4/h22,24H,5-21H2,1-4H3/q+1
> <PUBCHEM_IUPAC_INCHIKEY>
NXQRMEKANHIXEP-UHFFFAOYSA-N
> <PUBCHEM_XLOGP3_AA>
8.1
> <PUBCHEM_EXACT_MASS>
374.34566133
> <PUBCHEM_MOLECULAR_FORMULA>
C22H48NOS+
> <PUBCHEM_MOLECULAR_WEIGHT>
374.7
> <PUBCHEM_OPENEYE_CAN_SMILES>
CCCCCCCCCCCCCCCCSCC(C[N+](C)(C)C)O
> <PUBCHEM_OPENEYE_ISO_SMILES>
CCCCCCCCCCCCCCCCSCC(C[N+](C)(C)C)O
> <PUBCHEM_CACTVS_TPSA>
45.5
> <PUBCHEM_MONOISOTOPIC_WEIGHT>
374.34566133
> <PUBCHEM_TOTAL_CHARGE>
1
> <PUBCHEM_HEAVY_ATOM_COUNT>
25
> <PUBCHEM_ATOM_DEF_STEREO_COUNT>
0
> <PUBCHEM_ATOM_UDEF_STEREO_COUNT>
1
> <PUBCHEM_BOND_DEF_STEREO_COUNT>
0
> <PUBCHEM_BOND_UDEF_STEREO_COUNT>
0
> <PUBCHEM_ISOTOPIC_ATOM_COUNT>
0
> <PUBCHEM_COMPONENT_COUNT>
1
> <PUBCHEM_CACTVS_TAUTO_COUNT>
-1
> <PUBCHEM_COORDINATE_TYPE>
1
5
255
> <PUBCHEM_BONDANNOTATIONS>
5  2  3
$$$$
