517258
  -OEChem-10302200292D
 17 16  0     1  0  0  0  0  0999 V2000
    2.5369   -1.1900    0.0000 S   0  0  0  0  0  0  0  0  0  0  0  0
    4.2690    1.8100    0.0000 O   0  0  0  0  0  0  0  0  0  0  0  0
    2.5369    0.8100    0.0000 N   0  0  0  0  0  0  0  0  0  0  0  0
    5.1350    0.3100    0.0000 N   0  0  0  0  0  0  0  0  0  0  0  0
    6.0010    0.8100    0.0000 N   0  0  0  0  0  0  0  0  0  0  0  0
    3.4030    0.3100    0.0000 C   0  0  3  0  0  0  0  0  0  0  0  0
    3.4030   -0.6900    0.0000 C   0  0  0  0  0  0  0  0  0  0  0  0
    4.2690    0.8100    0.0000 C   0  0  0  0  0  0  0  0  0  0  0  0
    3.4030    0.9300    0.0000 H   0  0  0  0  0  0  0  0  0  0  0  0
    3.6150   -1.2726    0.0000 H   0  0  0  0  0  0  0  0  0  0  0  0
    4.0135   -0.5823    0.0000 H   0  0  0  0  0  0  0  0  0  0  0  0
    2.0000    0.5000    0.0000 H   0  0  0  0  0  0  0  0  0  0  0  0
    2.5369    1.4300    0.0000 H   0  0  0  0  0  0  0  0  0  0  0  0
    5.1350   -0.3100    0.0000 H   0  0  0  0  0  0  0  0  0  0  0  0
    2.5369   -1.8100    0.0000 H   0  0  0  0  0  0  0  0  0  0  0  0
    6.5380    0.5000    0.0000 H   0  0  0  0  0  0  0  0  0  0  0  0
    6.0010    1.4300    0.0000 H   0  0  0  0  0  0  0  0  0  0  0  0
  1  7  1  0  0  0  0
  1 15  1  0  0  0  0
  2  8  2  0  0  0  0
  3  6  1  0  0  0  0
  3 12  1  0  0  0  0
  3 13  1  0  0  0  0
  4  5  1  0  0  0  0
  4  8  1  0  0  0  0
  4 14  1  0  0  0  0
  5 16  1  0  0  0  0
  5 17  1  0  0  0  0
  6  7  1  0  0  0  0
  6  8  1  0  0  0  0
  6  9  1  0  0  0  0
  7 10  1  0  0  0  0
  7 11  1  0  0  0  0
M  END
> <PUBCHEM_COMPOUND_CID>
517258
> <PUBCHEM_COMPOUND_CANONICALIZED>
1
> <PUBCHEM_CACTVS_COMPLEXITY>
86.6
> <PUBCHEM_CACTVS_HBOND_ACCEPTOR>
4
> <PUBCHEM_CACTVS_HBOND_DONOR>
4
> <PUBCHEM_CACTVS_ROTATABLE_BOND>
2
> <PUBCHEM_CACTVS_SUBSKEYS>
AAADccBDIABAAAAAAAAAAAAAAAAAAAAAAAAAAAAAAAAAAAAAAAAAHgQYAAAACCjFwASAAABiAAQIAAEQEAAAAAAAAAISIIGAAAAAQAAAAAAAAAAAEAAAAAAAAAAAAAAAAAAAAAAAAAAAAAAAAAAAAAAAAA==
> <PUBCHEM_IUPAC_OPENEYE_NAME>
2-amino-3-sulfanyl-propanehydrazide
> <PUBCHEM_IUPAC_CAS_NAME>
2-amino-3-mercaptopropanehydrazide
> <PUBCHEM_IUPAC_NAME_MARKUP>
2-amino-3-sulfanylpropanehydrazide
> <PUBCHEM_IUPAC_NAME>
2-amino-3-sulfanylpropanehydrazide
> <PUBCHEM_IUPAC_SYSTEMATIC_NAME>
2-azanyl-3-sulfanyl-propanehydrazide
> <PUBCHEM_IUPAC_TRADITIONAL_NAME>
2-amino-3-mercapto-propionohydrazide
> <PUBCHEM_IUPAC_INCHI>
InChI=1S/C3H9N3OS/c4-2(1-8)3(7)6-5/h2,8H,1,4-5H2,(H,6,7)
> <PUBCHEM_IUPAC_INCHIKEY>
IQIYDJRAZKPGKO-UHFFFAOYSA-N
> <PUBCHEM_XLOGP3_AA>
-1.8
> <PUBCHEM_EXACT_MASS>
135.04663309
> <PUBCHEM_MOLECULAR_FORMULA>
C3H9N3OS
> <PUBCHEM_MOLECULAR_WEIGHT>
135.19
> <PUBCHEM_OPENEYE_CAN_SMILES>
C(C(C(=O)NN)N)S
> <PUBCHEM_OPENEYE_ISO_SMILES>
C(C(C(=O)NN)N)S
> <PUBCHEM_CACTVS_TPSA>
82.1
> <PUBCHEM_MONOISOTOPIC_WEIGHT>
135.04663309
> <PUBCHEM_TOTAL_CHARGE>
0
> <PUBCHEM_HEAVY_ATOM_COUNT>
8
> <PUBCHEM_ATOM_DEF_STEREO_COUNT>
0
> <PUBCHEM_ATOM_UDEF_STEREO_COUNT>
1
> <PUBCHEM_BOND_DEF_STEREO_COUNT>
0
> <PUBCHEM_BOND_UDEF_STEREO_COUNT>
0
> <PUBCHEM_ISOTOPIC_ATOM_COUNT>
0
> <PUBCHEM_COMPONENT_COUNT>
1
> <PUBCHEM_CACTVS_TAUTO_COUNT>
-1
> <PUBCHEM_COORDINATE_TYPE>
1
5
255
> <PUBCHEM_BONDANNOTATIONS>
6  3  3
$$$$
