517334
  -OEChem-10302200292D
 29 28  0     1  0  0  0  0  0999 V2000
    5.1350   -0.6900    0.0000 S   0  0  0  0  0  0  0  0  0  0  0  0
    4.2690    0.8100    0.0000 S   0  0  0  0  0  0  0  0  0  0  0  0
    7.7331   -2.1900    0.0000 O   0  5  0  0  0  0  0  0  0  0  0  0
    5.1350    2.3100    0.0000 O   0  5  0  0  0  0  0  0  0  0  0  0
    6.8671   -0.6900    0.0000 O   0  0  0  0  0  0  0  0  0  0  0  0
    4.2690    3.8100    0.0000 O   0  0  0  0  0  0  0  0  0  0  0  0
    6.0010   -3.1900    0.0000 N   0  3  0  0  0  0  0  0  0  0  0  0
    2.5369    2.8100    0.0000 N   0  3  0  0  0  0  0  0  0  0  0  0
    6.0010   -2.1900    0.0000 C   0  0  3  0  0  0  0  0  0  0  0  0
    3.4030    2.3100    0.0000 C   0  0  3  0  0  0  0  0  0  0  0  0
    5.1350   -1.6900    0.0000 C   0  0  0  0  0  0  0  0  0  0  0  0
    3.4030    1.3100    0.0000 C   0  0  0  0  0  0  0  0  0  0  0  0
    4.2690   -0.1900    0.0000 C   0  0  0  0  0  0  0  0  0  0  0  0
    6.8671   -1.6900    0.0000 C   0  0  0  0  0  0  0  0  0  0  0  0
    4.2690    2.8100    0.0000 C   0  0  0  0  0  0  0  0  0  0  0  0
    6.5380   -2.5000    0.0000 H   0  0  0  0  0  0  0  0  0  0  0  0
    3.4030    2.9300    0.0000 H   0  0  0  0  0  0  0  0  0  0  0  0
    4.5244   -1.5823    0.0000 H   0  0  0  0  0  0  0  0  0  0  0  0
    4.9230   -2.2726    0.0000 H   0  0  0  0  0  0  0  0  0  0  0  0
    2.7924    1.4177    0.0000 H   0  0  0  0  0  0  0  0  0  0  0  0
    3.1909    0.7274    0.0000 H   0  0  0  0  0  0  0  0  0  0  0  0
    6.0010   -3.8100    0.0000 H   0  0  0  0  0  0  0  0  0  0  0  0
    6.6210   -3.1900    0.0000 H   0  0  0  0  0  0  0  0  0  0  0  0
    5.3810   -3.1900    0.0000 H   0  0  0  0  0  0  0  0  0  0  0  0
    2.0000    3.1200    0.0000 H   0  0  0  0  0  0  0  0  0  0  0  0
    2.2269    2.2731    0.0000 H   0  0  0  0  0  0  0  0  0  0  0  0
    2.8469    3.3469    0.0000 H   0  0  0  0  0  0  0  0  0  0  0  0
    3.6584   -0.0823    0.0000 H   0  0  0  0  0  0  0  0  0  0  0  0
    4.0569   -0.7726    0.0000 H   0  0  0  0  0  0  0  0  0  0  0  0
  1 11  1  0  0  0  0
  1 13  1  0  0  0  0
  2 12  1  0  0  0  0
  2 13  1  0  0  0  0
  3 14  1  0  0  0  0
  4 15  1  0  0  0  0
  5 14  2  0  0  0  0
  6 15  2  0  0  0  0
  7  9  1  0  0  0  0
  7 22  1  0  0  0  0
  7 23  1  0  0  0  0
  7 24  1  0  0  0  0
  8 10  1  0  0  0  0
  8 25  1  0  0  0  0
  8 26  1  0  0  0  0
  8 27  1  0  0  0  0
  9 11  1  0  0  0  0
  9 14  1  0  0  0  0
  9 16  1  0  0  0  0
 10 12  1  0  0  0  0
 10 15  1  0  0  0  0
 10 17  1  0  0  0  0
 11 18  1  0  0  0  0
 11 19  1  0  0  0  0
 12 20  1  0  0  0  0
 12 21  1  0  0  0  0
 13 28  1  0  0  0  0
 13 29  1  0  0  0  0
M  CHG  4   3  -1   4  -1   7   1   8   1
M  END
> <PUBCHEM_COMPOUND_CID>
517334
> <PUBCHEM_COMPOUND_CANONICALIZED>
1
> <PUBCHEM_CACTVS_COMPLEXITY>
194
> <PUBCHEM_CACTVS_HBOND_ACCEPTOR>
6
> <PUBCHEM_CACTVS_HBOND_DONOR>
2
> <PUBCHEM_CACTVS_ROTATABLE_BOND>
6
> <PUBCHEM_CACTVS_SUBSKEYS>
AAADccBjOABgAAAAAAAAAAAAAAAAAAAAAAAAAAAAAAAAAAAAAAAAHgQQAAAACCjFwASACABAAAgIAACQCAAAAQAAABAAAIGAAAACAAAgAAAAAAAAEAAAAAAAAAAAAAAAAAAAAAAAAAAAAAAAAAAAAAAAAA==
> <PUBCHEM_IUPAC_OPENEYE_NAME>
2-azaniumyl-3-[(2-azaniumyl-2-carboxylato-ethyl)sulfanylmethylsulfanyl]propanoate
> <PUBCHEM_IUPAC_CAS_NAME>
2-ammonio-3-[[(2-ammonio-2-carboxylatoethyl)thio]methylthio]propanoate
> <PUBCHEM_IUPAC_NAME_MARKUP>
2-azaniumyl-3-[(2-azaniumyl-2-carboxylatoethyl)sulfanylmethylsulfanyl]propanoate
> <PUBCHEM_IUPAC_NAME>
2-azaniumyl-3-[(2-azaniumyl-2-carboxylatoethyl)sulfanylmethylsulfanyl]propanoate
> <PUBCHEM_IUPAC_SYSTEMATIC_NAME>
2-azaniumyl-3-[(2-azaniumyl-3-oxidanidyl-3-oxidanylidene-propyl)sulfanylmethylsulfanyl]propanoate
> <PUBCHEM_IUPAC_TRADITIONAL_NAME>
2-ammonio-3-[[(2-ammonio-2-carboxylato-ethyl)thio]methylthio]propionate
> <PUBCHEM_IUPAC_INCHI>
InChI=1S/C7H14N2O4S2/c8-4(6(10)11)1-14-3-15-2-5(9)7(12)13/h4-5H,1-3,8-9H2,(H,10,11)(H,12,13)
> <PUBCHEM_IUPAC_INCHIKEY>
JMQMNWIBUCGUDO-UHFFFAOYSA-N
> <PUBCHEM_XLOGP3_AA>
-4.3
> <PUBCHEM_EXACT_MASS>
254.03949928
> <PUBCHEM_MOLECULAR_FORMULA>
C7H14N2O4S2
> <PUBCHEM_MOLECULAR_WEIGHT>
254.3
> <PUBCHEM_OPENEYE_CAN_SMILES>
C(C(C(=O)[O-])[NH3+])SCSCC(C(=O)[O-])[NH3+]
> <PUBCHEM_OPENEYE_ISO_SMILES>
C(C(C(=O)[O-])[NH3+])SCSCC(C(=O)[O-])[NH3+]
> <PUBCHEM_CACTVS_TPSA>
186
> <PUBCHEM_MONOISOTOPIC_WEIGHT>
254.03949928
> <PUBCHEM_TOTAL_CHARGE>
0
> <PUBCHEM_HEAVY_ATOM_COUNT>
15
> <PUBCHEM_ATOM_DEF_STEREO_COUNT>
0
> <PUBCHEM_ATOM_UDEF_STEREO_COUNT>
2
> <PUBCHEM_BOND_DEF_STEREO_COUNT>
0
> <PUBCHEM_BOND_UDEF_STEREO_COUNT>
0
> <PUBCHEM_ISOTOPIC_ATOM_COUNT>
0
> <PUBCHEM_COMPONENT_COUNT>
1
> <PUBCHEM_CACTVS_TAUTO_COUNT>
-1
> <PUBCHEM_COORDINATE_TYPE>
1
5
255
> <PUBCHEM_BONDANNOTATIONS>
9  7  3
10  8  3
$$$$
