517314
  -OEChem-10302200292D
 47 47  0     1  0  0  0  0  0999 V2000
    4.0010    8.7400    0.0000 O   0  0  0  0  0  0  0  0  0  0  0  0
    2.3058    0.3100    0.0000 O   0  0  0  0  0  0  0  0  0  0  0  0
    3.1718    2.8100    0.0000 O   0  0  0  0  0  0  0  0  0  0  0  0
    0.5738    1.3100    0.0000 O   0  0  0  0  0  0  0  0  0  0  0  0
    4.9039    1.8100    0.0000 O   0  0  0  0  0  0  0  0  0  0  0  0
    1.4398    2.8100    0.0000 O   0  0  0  0  0  0  0  0  0  0  0  0
    4.0379    0.3100    0.0000 O   0  0  0  0  0  0  0  0  0  0  0  0
    4.0010    6.7400    0.0000 N   0  0  3  0  0  0  0  0  0  0  0  0
    3.1350    7.2400    0.0000 C   0  0  3  0  0  0  0  0  0  0  0  0
    3.1350    8.2400    0.0000 C   0  0  3  0  0  0  0  0  0  0  0  0
    4.8671    7.2400    0.0000 C   0  0  0  0  0  0  0  0  0  0  0  0
    4.8671    8.2400    0.0000 C   0  0  0  0  0  0  0  0  0  0  0  0
    2.2690    6.7400    0.0000 C   0  0  0  0  0  0  0  0  0  0  0  0
    2.2690    8.7400    0.0000 C   0  0  0  0  0  0  0  0  0  0  0  0
    4.0010    5.7400    0.0000 C   0  0  0  0  0  0  0  0  0  0  0  0
    1.4030    8.2400    0.0000 C   0  0  0  0  0  0  0  0  0  0  0  0
    2.2690    9.7400    0.0000 C   0  0  0  0  0  0  0  0  0  0  0  0
    0.5369    8.7400    0.0000 C   0  0  0  0  0  0  0  0  0  0  0  0
    1.4030   10.2400    0.0000 C   0  0  0  0  0  0  0  0  0  0  0  0
    0.5369    9.7400    0.0000 C   0  0  0  0  0  0  0  0  0  0  0  0
    2.3058    1.3100    0.0000 C   0  0  3  0  0  0  0  0  0  0  0  0
    3.1718    1.8100    0.0000 C   0  0  3  0  0  0  0  0  0  0  0  0
    1.4398    1.8100    0.0000 C   0  0  0  0  0  0  0  0  0  0  0  0
    4.0379    1.3100    0.0000 C   0  0  0  0  0  0  0  0  0  0  0  0
    3.1350    6.3900    0.0000 H   0  0  0  0  0  0  0  0  0  0  0  0
    3.1350    9.0900    0.0000 H   0  0  0  0  0  0  0  0  0  0  0  0
    5.0791    6.6574    0.0000 H   0  0  0  0  0  0  0  0  0  0  0  0
    5.4776    7.3477    0.0000 H   0  0  0  0  0  0  0  0  0  0  0  0
    5.4776    8.1323    0.0000 H   0  0  0  0  0  0  0  0  0  0  0  0
    5.0791    8.8226    0.0000 H   0  0  0  0  0  0  0  0  0  0  0  0
    1.9590    7.2769    0.0000 H   0  0  0  0  0  0  0  0  0  0  0  0
    1.7320    6.4300    0.0000 H   0  0  0  0  0  0  0  0  0  0  0  0
    2.5790    6.2031    0.0000 H   0  0  0  0  0  0  0  0  0  0  0  0
    3.3810    5.7400    0.0000 H   0  0  0  0  0  0  0  0  0  0  0  0
    4.0010    5.1200    0.0000 H   0  0  0  0  0  0  0  0  0  0  0  0
    4.6210    5.7400    0.0000 H   0  0  0  0  0  0  0  0  0  0  0  0
    1.4030    7.6200    0.0000 H   0  0  0  0  0  0  0  0  0  0  0  0
    2.8059   10.0500    0.0000 H   0  0  0  0  0  0  0  0  0  0  0  0
    0.0000    8.4300    0.0000 H   0  0  0  0  0  0  0  0  0  0  0  0
    1.4030   10.8600    0.0000 H   0  0  0  0  0  0  0  0  0  0  0  0
    0.0000   10.0500    0.0000 H   0  0  0  0  0  0  0  0  0  0  0  0
    3.0419    0.8850    0.0000 H   0  0  0  0  0  0  0  0  0  0  0  0
    3.9080    2.2350    0.0000 H   0  0  0  0  0  0  0  0  0  0  0  0
    1.7689    0.0000    0.0000 H   0  0  0  0  0  0  0  0  0  0  0  0
    3.7088    3.1200    0.0000 H   0  0  0  0  0  0  0  0  0  0  0  0
    0.0368    1.6200    0.0000 H   0  0  0  0  0  0  0  0  0  0  0  0
    5.4408    1.5000    0.0000 H   0  0  0  0  0  0  0  0  0  0  0  0
  1 10  1  0  0  0  0
  1 12  1  0  0  0  0
  2 21  1  0  0  0  0
  2 44  1  0  0  0  0
  3 22  1  0  0  0  0
  3 45  1  0  0  0  0
  4 23  1  0  0  0  0
  4 46  1  0  0  0  0
  5 24  1  0  0  0  0
  5 47  1  0  0  0  0
  6 23  2  0  0  0  0
  7 24  2  0  0  0  0
  8  9  1  0  0  0  0
  8 11  1  0  0  0  0
  8 15  1  0  0  0  0
  9 10  1  0  0  0  0
  9 13  1  0  0  0  0
  9 25  1  0  0  0  0
 10 14  1  0  0  0  0
 10 26  1  0  0  0  0
 11 12  1  0  0  0  0
 11 27  1  0  0  0  0
 11 28  1  0  0  0  0
 12 29  1  0  0  0  0
 12 30  1  0  0  0  0
 13 31  1  0  0  0  0
 13 32  1  0  0  0  0
 13 33  1  0  0  0  0
 14 16  2  0  0  0  0
 14 17  1  0  0  0  0
 15 34  1  0  0  0  0
 15 35  1  0  0  0  0
 15 36  1  0  0  0  0
 16 18  1  0  0  0  0
 16 37  1  0  0  0  0
 17 19  2  0  0  0  0
 17 38  1  0  0  0  0
 18 20  2  0  0  0  0
 18 39  1  0  0  0  0
 19 20  1  0  0  0  0
 19 40  1  0  0  0  0
 20 41  1  0  0  0  0
 21 22  1  0  0  0  0
 21 23  1  0  0  0  0
 21 42  1  0  0  0  0
 22 24  1  0  0  0  0
 22 43  1  0  0  0  0
M  END
> <PUBCHEM_COMPOUND_CID>
517314
> <PUBCHEM_COMPOUND_CANONICALIZED>
1
> <PUBCHEM_CACTVS_COMPLEXITY>
311
> <PUBCHEM_CACTVS_HBOND_ACCEPTOR>
8
> <PUBCHEM_CACTVS_HBOND_DONOR>
4
> <PUBCHEM_CACTVS_ROTATABLE_BOND>
4
> <PUBCHEM_CACTVS_SUBSKEYS>
AAADceB6OAAAAAAAAAAAAAAAAAAAAAAAAAA8QAAAAAAAAAABAAAAHgAACAAADDzhmAYyCIMABgCIAiDSCAICAAAgAAAIiAFICIgLNjaAsRmHcAAl4AGZqAfTwKAOAAAAAAAAAAAAAAAAAAAAAAAAAAAAAA==
> <PUBCHEM_IUPAC_OPENEYE_NAME>
2,3-dihydroxybutanedioic acid;3,4-dimethyl-2-phenyl-morpholine
> <PUBCHEM_IUPAC_CAS_NAME>
2,3-dihydroxybutanedioic acid;3,4-dimethyl-2-phenylmorpholine
> <PUBCHEM_IUPAC_NAME_MARKUP>
2,3-dihydroxybutanedioic acid;3,4-dimethyl-2-phenylmorpholine
> <PUBCHEM_IUPAC_NAME>
2,3-dihydroxybutanedioic acid;3,4-dimethyl-2-phenylmorpholine
> <PUBCHEM_IUPAC_SYSTEMATIC_NAME>
2,3-bis(oxidanyl)butanedioic acid;3,4-dimethyl-2-phenyl-morpholine
> <PUBCHEM_IUPAC_TRADITIONAL_NAME>
3,4-dimethyl-2-phenyl-morpholine;tartaric acid
> <PUBCHEM_IUPAC_INCHI>
InChI=1S/C12H17NO.C4H6O6/c1-10-12(14-9-8-13(10)2)11-6-4-3-5-7-11;5-1(3(7)8)2(6)4(9)10/h3-7,10,12H,8-9H2,1-2H3;1-2,5-6H,(H,7,8)(H,9,10)
> <PUBCHEM_IUPAC_INCHIKEY>
VEPOHXYIFQMVHW-UHFFFAOYSA-N
> <PUBCHEM_EXACT_MASS>
341.14745207
> <PUBCHEM_MOLECULAR_FORMULA>
C16H23NO7
> <PUBCHEM_MOLECULAR_WEIGHT>
341.36
> <PUBCHEM_OPENEYE_CAN_SMILES>
CC1C(OCCN1C)C2=CC=CC=C2.C(C(C(=O)O)O)(C(=O)O)O
> <PUBCHEM_OPENEYE_ISO_SMILES>
CC1C(OCCN1C)C2=CC=CC=C2.C(C(C(=O)O)O)(C(=O)O)O
> <PUBCHEM_CACTVS_TPSA>
128
> <PUBCHEM_MONOISOTOPIC_WEIGHT>
341.14745207
> <PUBCHEM_TOTAL_CHARGE>
0
> <PUBCHEM_HEAVY_ATOM_COUNT>
24
> <PUBCHEM_ATOM_DEF_STEREO_COUNT>
0
> <PUBCHEM_ATOM_UDEF_STEREO_COUNT>
4
> <PUBCHEM_BOND_DEF_STEREO_COUNT>
0
> <PUBCHEM_BOND_UDEF_STEREO_COUNT>
0
> <PUBCHEM_ISOTOPIC_ATOM_COUNT>
0
> <PUBCHEM_COMPONENT_COUNT>
2
> <PUBCHEM_CACTVS_TAUTO_COUNT>
1
> <PUBCHEM_COORDINATE_TYPE>
1
5
255
> <PUBCHEM_BONDANNOTATIONS>
10  26  3
14  16  8
14  17  8
16  18  8
17  19  8
18  20  8
19  20  8
21  42  3
22  43  3
9  25  3
$$$$
