517315
  -OEChem-10302200292D
 42 42  0     1  0  0  0  0  0999 V2000
    3.3548    0.0000    0.0000 Cl  0  5  0  0  0  0  0  0  0  0  0  0
    4.0010    3.6200    0.0000 O   0  0  0  0  0  0  0  0  0  0  0  0
    5.7331    4.6200    0.0000 N   0  3  3  0  0  0  0  0  0  0  0  0
    3.1350    5.1200    0.0000 N   0  0  0  0  0  0  0  0  0  0  0  0
    4.8671    5.1200    0.0000 C   0  0  3  0  0  0  0  0  0  0  0  0
    6.5991    5.1200    0.0000 C   0  0  0  0  0  0  0  0  0  0  0  0
    4.8671    6.1200    0.0000 C   0  0  0  0  0  0  0  0  0  0  0  0
    6.5991    6.1200    0.0000 C   0  0  0  0  0  0  0  0  0  0  0  0
    5.7331    6.6200    0.0000 C   0  0  0  0  0  0  0  0  0  0  0  0
    6.2331    3.7540    0.0000 C   0  0  0  0  0  0  0  0  0  0  0  0
    4.0010    4.6200    0.0000 C   0  0  0  0  0  0  0  0  0  0  0  0
    2.2690    4.6200    0.0000 C   0  0  0  0  0  0  0  0  0  0  0  0
    1.4030    5.1200    0.0000 C   0  0  0  0  0  0  0  0  0  0  0  0
    2.2690    3.6200    0.0000 C   0  0  0  0  0  0  0  0  0  0  0  0
    0.5369    4.6200    0.0000 C   0  0  0  0  0  0  0  0  0  0  0  0
    1.4030    3.1200    0.0000 C   0  0  0  0  0  0  0  0  0  0  0  0
    1.4030    6.1200    0.0000 C   0  0  0  0  0  0  0  0  0  0  0  0
    3.1350    3.1200    0.0000 C   0  0  0  0  0  0  0  0  0  0  0  0
    0.5369    3.6200    0.0000 C   0  0  0  0  0  0  0  0  0  0  0  0
    5.4231    4.0831    0.0000 H   0  0  0  0  0  0  0  0  0  0  0  0
    4.8671    4.5000    0.0000 H   0  0  0  0  0  0  0  0  0  0  0  0
    6.8112    4.5374    0.0000 H   0  0  0  0  0  0  0  0  0  0  0  0
    7.2097    5.2277    0.0000 H   0  0  0  0  0  0  0  0  0  0  0  0
    4.6550    6.7026    0.0000 H   0  0  0  0  0  0  0  0  0  0  0  0
    4.2565    6.0123    0.0000 H   0  0  0  0  0  0  0  0  0  0  0  0
    7.2097    6.0123    0.0000 H   0  0  0  0  0  0  0  0  0  0  0  0
    6.8112    6.7026    0.0000 H   0  0  0  0  0  0  0  0  0  0  0  0
    6.1316    7.0950    0.0000 H   0  0  0  0  0  0  0  0  0  0  0  0
    5.3346    7.0950    0.0000 H   0  0  0  0  0  0  0  0  0  0  0  0
    5.6962    3.4440    0.0000 H   0  0  0  0  0  0  0  0  0  0  0  0
    6.5431    3.2170    0.0000 H   0  0  0  0  0  0  0  0  0  0  0  0
    6.7700    4.0640    0.0000 H   0  0  0  0  0  0  0  0  0  0  0  0
    3.1350    5.7400    0.0000 H   0  0  0  0  0  0  0  0  0  0  0  0
    0.0000    4.9300    0.0000 H   0  0  0  0  0  0  0  0  0  0  0  0
    1.4030    2.5000    0.0000 H   0  0  0  0  0  0  0  0  0  0  0  0
    2.0230    6.1200    0.0000 H   0  0  0  0  0  0  0  0  0  0  0  0
    1.4030    6.7400    0.0000 H   0  0  0  0  0  0  0  0  0  0  0  0
    0.7830    6.1200    0.0000 H   0  0  0  0  0  0  0  0  0  0  0  0
    2.8250    2.5831    0.0000 H   0  0  0  0  0  0  0  0  0  0  0  0
    3.6720    2.8100    0.0000 H   0  0  0  0  0  0  0  0  0  0  0  0
    3.4450    3.6569    0.0000 H   0  0  0  0  0  0  0  0  0  0  0  0
    0.0000    3.3100    0.0000 H   0  0  0  0  0  0  0  0  0  0  0  0
  2 11  2  0  0  0  0
  3  5  1  0  0  0  0
  3  6  1  0  0  0  0
  3 10  1  0  0  0  0
  3 20  1  0  0  0  0
  4 11  1  0  0  0  0
  4 12  1  0  0  0  0
  4 33  1  0  0  0  0
  5  7  1  0  0  0  0
  5 11  1  0  0  0  0
  5 21  1  0  0  0  0
  6  8  1  0  0  0  0
  6 22  1  0  0  0  0
  6 23  1  0  0  0  0
  7  9  1  0  0  0  0
  7 24  1  0  0  0  0
  7 25  1  0  0  0  0
  8  9  1  0  0  0  0
  8 26  1  0  0  0  0
  8 27  1  0  0  0  0
  9 28  1  0  0  0  0
  9 29  1  0  0  0  0
 10 30  1  0  0  0  0
 10 31  1  0  0  0  0
 10 32  1  0  0  0  0
 12 13  2  0  0  0  0
 12 14  1  0  0  0  0
 13 15  1  0  0  0  0
 13 17  1  0  0  0  0
 14 16  2  0  0  0  0
 14 18  1  0  0  0  0
 15 19  2  0  0  0  0
 15 34  1  0  0  0  0
 16 19  1  0  0  0  0
 16 35  1  0  0  0  0
 17 36  1  0  0  0  0
 17 37  1  0  0  0  0
 17 38  1  0  0  0  0
 18 39  1  0  0  0  0
 18 40  1  0  0  0  0
 18 41  1  0  0  0  0
 19 42  1  0  0  0  0
M  CHG  2   1  -1   3   1
M  END
> <PUBCHEM_COMPOUND_CID>
517315
> <PUBCHEM_COMPOUND_CANONICALIZED>
1
> <PUBCHEM_CACTVS_COMPLEXITY>
282
> <PUBCHEM_CACTVS_HBOND_ACCEPTOR>
2
> <PUBCHEM_CACTVS_HBOND_DONOR>
2
> <PUBCHEM_CACTVS_ROTATABLE_BOND>
2
> <PUBCHEM_CACTVS_SUBSKEYS>
AAADceBzIAAEAAAAAAAAAAAAAAAAAAAAAAA8QAAAAAAAAAABAAAAHgAQAAAADCjBmAQywIPAAACIAiVSUACCAAAhAAAIiIGIRIgIYDLAkbGUIAhglADIyAcYiEAOAAACAAACAAAAAAQAAAQAAAAAAAAAAA==
> <PUBCHEM_IUPAC_OPENEYE_NAME>
N-(2,6-dimethylphenyl)-1-methyl-piperidin-1-ium-2-carboxamide;chloride
> <PUBCHEM_IUPAC_CAS_NAME>
N-(2,6-dimethylphenyl)-1-methyl-2-piperidin-1-iumcarboxamide;chloride
> <PUBCHEM_IUPAC_NAME_MARKUP>
<I>N</I>-(2,6-dimethylphenyl)-1-methylpiperidin-1-ium-2-carboxamide;chloride
> <PUBCHEM_IUPAC_NAME>
N-(2,6-dimethylphenyl)-1-methylpiperidin-1-ium-2-carboxamide;chloride
> <PUBCHEM_IUPAC_SYSTEMATIC_NAME>
N-(2,6-dimethylphenyl)-1-methyl-piperidin-1-ium-2-carboxamide;chloride
> <PUBCHEM_IUPAC_TRADITIONAL_NAME>
N-(2,6-dimethylphenyl)-1-methyl-piperidin-1-ium-2-carboxamide;chloride
> <PUBCHEM_IUPAC_INCHI>
InChI=1S/C15H22N2O.ClH/c1-11-7-6-8-12(2)14(11)16-15(18)13-9-4-5-10-17(13)3;/h6-8,13H,4-5,9-10H2,1-3H3,(H,16,18);1H
> <PUBCHEM_IUPAC_INCHIKEY>
RETIMRUQNCDCQB-UHFFFAOYSA-N
> <PUBCHEM_EXACT_MASS>
282.1498911
> <PUBCHEM_MOLECULAR_FORMULA>
C15H23ClN2O
> <PUBCHEM_MOLECULAR_WEIGHT>
282.81
> <PUBCHEM_OPENEYE_CAN_SMILES>
CC1=C(C(=CC=C1)C)NC(=O)C2CCCC[NH+]2C.[Cl-]
> <PUBCHEM_OPENEYE_ISO_SMILES>
CC1=C(C(=CC=C1)C)NC(=O)C2CCCC[NH+]2C.[Cl-]
> <PUBCHEM_CACTVS_TPSA>
33.5
> <PUBCHEM_MONOISOTOPIC_WEIGHT>
282.1498911
> <PUBCHEM_TOTAL_CHARGE>
0
> <PUBCHEM_HEAVY_ATOM_COUNT>
19
> <PUBCHEM_ATOM_DEF_STEREO_COUNT>
0
> <PUBCHEM_ATOM_UDEF_STEREO_COUNT>
1
> <PUBCHEM_BOND_DEF_STEREO_COUNT>
0
> <PUBCHEM_BOND_UDEF_STEREO_COUNT>
0
> <PUBCHEM_ISOTOPIC_ATOM_COUNT>
0
> <PUBCHEM_COMPONENT_COUNT>
2
> <PUBCHEM_CACTVS_TAUTO_COUNT>
-1
> <PUBCHEM_COORDINATE_TYPE>
1
5
255
> <PUBCHEM_BONDANNOTATIONS>
12  13  8
12  14  8
13  15  8
14  16  8
15  19  8
16  19  8
5  11  3
$$$$
