517316
  -OEChem-10302200292D
 56 61  0     1  0  0  0  0  0999 V2000
    5.7819   -2.4946    0.0000 O   0  0  0  0  0  0  0  0  0  0  0  0
    3.6107    3.0613    0.0000 O   0  0  0  0  0  0  0  0  0  0  0  0
    2.3981    1.9901    0.0000 O   0  0  0  0  0  0  0  0  0  0  0  0
    4.0498   -2.4946    0.0000 C   0  0  3  0  0  0  0  0  0  0  0  0
    3.1838   -1.9946    0.0000 C   0  0  3  0  0  0  0  0  0  0  0  0
    3.8406   -3.4664    0.0000 C   0  0  3  0  0  0  0  0  0  0  0  0
    4.7873   -3.1618    0.0000 C   0  0  0  0  0  0  0  0  0  0  0  0
    3.1838   -0.9946    0.0000 C   0  0  3  0  0  0  0  0  0  0  0  0
    4.9158   -1.9946    0.0000 C   0  0  3  0  0  0  0  0  0  0  0  0
    4.0498   -0.4946    0.0000 C   0  0  3  0  0  0  0  0  0  0  0  0
    2.4468   -2.6617    0.0000 C   0  0  0  0  0  0  0  0  0  0  0  0
    2.8519   -3.5695    0.0000 C   0  0  0  0  0  0  0  0  0  0  0  0
    4.9158   -0.9946    0.0000 C   0  0  0  0  0  0  0  0  0  0  0  0
    4.0659    0.5469    0.0000 C   0  0  3  0  0  0  0  0  0  0  0  0
    3.1678    1.0746    0.0000 C   0  0  3  0  0  0  0  0  0  0  0  0
    2.2738   -0.4878    0.0000 C   0  0  0  0  0  0  0  0  0  0  0  0
    2.3178   -1.4946    0.0000 C   0  0  0  0  0  0  0  0  0  0  0  0
    2.2658    0.5538    0.0000 C   0  0  0  0  0  0  0  0  0  0  0  0
    3.3936    2.0852    0.0000 C   0  0  0  0  0  0  0  0  0  0  0  0
    4.8389    1.2358    0.0000 C   0  0  0  0  0  0  0  0  0  0  0  0
    4.4242    2.1846    0.0000 C   0  0  0  0  0  0  0  0  0  0  0  0
    2.1844    1.2559    0.0000 C   0  0  0  0  0  0  0  0  0  0  0  0
    2.7494    3.5695    0.0000 C   0  0  0  0  0  0  0  0  0  0  0  0
    2.0000    2.9074    0.0000 C   0  0  0  0  0  0  0  0  0  0  0  0
    3.9684   -4.0731    0.0000 H   0  0  0  0  0  0  0  0  0  0  0  0
    5.0769   -3.7100    0.0000 H   0  0  0  0  0  0  0  0  0  0  0  0
    5.2769   -2.7813    0.0000 H   0  0  0  0  0  0  0  0  0  0  0  0
    3.7207   -1.3046    0.0000 H   0  0  0  0  0  0  0  0  0  0  0  0
    4.9158   -2.6146    0.0000 H   0  0  0  0  0  0  0  0  0  0  0  0
    4.5891   -0.1888    0.0000 H   0  0  0  0  0  0  0  0  0  0  0  0
    2.0814   -2.1608    0.0000 H   0  0  0  0  0  0  0  0  0  0  0  0
    1.9103   -2.9725    0.0000 H   0  0  0  0  0  0  0  0  0  0  0  0
    2.2623   -3.7613    0.0000 H   0  0  0  0  0  0  0  0  0  0  0  0
    2.9806   -4.1760    0.0000 H   0  0  0  0  0  0  0  0  0  0  0  0
    5.5264   -1.1023    0.0000 H   0  0  0  0  0  0  0  0  0  0  0  0
    5.1279   -0.4120    0.0000 H   0  0  0  0  0  0  0  0  0  0  0  0
    4.6297    0.2889    0.0000 H   0  0  0  0  0  0  0  0  0  0  0  0
    1.6622   -0.3864    0.0000 H   0  0  0  0  0  0  0  0  0  0  0  0
    2.0692   -1.0731    0.0000 H   0  0  0  0  0  0  0  0  0  0  0  0
    2.6278   -0.9577    0.0000 H   0  0  0  0  0  0  0  0  0  0  0  0
    1.7808   -1.1846    0.0000 H   0  0  0  0  0  0  0  0  0  0  0  0
    2.0078   -2.0316    0.0000 H   0  0  0  0  0  0  0  0  0  0  0  0
    2.0522    1.1359    0.0000 H   0  0  0  0  0  0  0  0  0  0  0  0
    1.6558    0.4430    0.0000 H   0  0  0  0  0  0  0  0  0  0  0  0
    5.2005    0.7321    0.0000 H   0  0  0  0  0  0  0  0  0  0  0  0
    5.3778    1.5424    0.0000 H   0  0  0  0  0  0  0  0  0  0  0  0
    5.0153    2.3718    0.0000 H   0  0  0  0  0  0  0  0  0  0  0  0
    4.3002    2.7921    0.0000 H   0  0  0  0  0  0  0  0  0  0  0  0
    6.3188   -2.1846    0.0000 H   0  0  0  0  0  0  0  0  0  0  0  0
    2.2968    1.8656    0.0000 H   0  0  0  0  0  0  0  0  0  0  0  0
    1.5747    1.3682    0.0000 H   0  0  0  0  0  0  0  0  0  0  0  0
    2.0720    0.6461    0.0000 H   0  0  0  0  0  0  0  0  0  0  0  0
    3.1186    4.0676    0.0000 H   0  0  0  0  0  0  0  0  0  0  0  0
    2.2926    3.9887    0.0000 H   0  0  0  0  0  0  0  0  0  0  0  0
    1.6403    3.4124    0.0000 H   0  0  0  0  0  0  0  0  0  0  0  0
    1.4602    2.6025    0.0000 H   0  0  0  0  0  0  0  0  0  0  0  0
  1  9  1  0  0  0  0
  1 49  1  0  0  0  0
  2 19  1  0  0  0  0
  2 23  1  0  0  0  0
  3 19  1  0  0  0  0
  3 24  1  0  0  0  0
  4  5  1  0  0  0  0
  4  6  1  0  0  0  0
  4  7  1  0  0  0  0
  4  9  1  0  0  0  0
  5  8  1  0  0  0  0
  5 11  1  0  0  0  0
  5 17  1  0  0  0  0
  6  7  1  0  0  0  0
  6 12  1  0  0  0  0
  6 25  1  0  0  0  0
  7 26  1  0  0  0  0
  7 27  1  0  0  0  0
  8 10  1  0  0  0  0
  8 16  1  0  0  0  0
  8 28  1  0  0  0  0
  9 13  1  0  0  0  0
  9 29  1  0  0  0  0
 10 13  1  0  0  0  0
 10 14  1  0  0  0  0
 10 30  1  0  0  0  0
 11 12  1  0  0  0  0
 11 31  1  0  0  0  0
 11 32  1  0  0  0  0
 12 33  1  0  0  0  0
 12 34  1  0  0  0  0
 13 35  1  0  0  0  0
 13 36  1  0  0  0  0
 14 15  1  0  0  0  0
 14 20  1  0  0  0  0
 14 37  1  0  0  0  0
 15 18  1  0  0  0  0
 15 19  1  0  0  0  0
 15 22  1  0  0  0  0
 16 18  1  0  0  0  0
 16 38  1  0  0  0  0
 16 39  1  0  0  0  0
 17 40  1  0  0  0  0
 17 41  1  0  0  0  0
 17 42  1  0  0  0  0
 18 43  1  0  0  0  0
 18 44  1  0  0  0  0
 19 21  1  0  0  0  0
 20 21  1  0  0  0  0
 20 45  1  0  0  0  0
 20 46  1  0  0  0  0
 21 47  1  0  0  0  0
 21 48  1  0  0  0  0
 22 50  1  0  0  0  0
 22 51  1  0  0  0  0
 22 52  1  0  0  0  0
 23 24  1  0  0  0  0
 23 53  1  0  0  0  0
 23 54  1  0  0  0  0
 24 55  1  0  0  0  0
 24 56  1  0  0  0  0
M  END
> <PUBCHEM_COMPOUND_CID>
517316
> <PUBCHEM_COMPOUND_CANONICALIZED>
1
> <PUBCHEM_CACTVS_COMPLEXITY>
584
> <PUBCHEM_CACTVS_HBOND_ACCEPTOR>
3
> <PUBCHEM_CACTVS_HBOND_DONOR>
1
> <PUBCHEM_CACTVS_ROTATABLE_BOND>
0
> <PUBCHEM_CACTVS_SUBSKEYS>
AAADcfB4MAAAAAAAAAAAAAAAGAAAAaMEAAAwYMAAAAAAAGDAAAAAGgAACAAADxSggAICCAAABgAAAAAAAAAAAAAAAAAAAAAAAAAREAIAAAAiQAAEAAAGAAGAwPAPgAAAAAAAAADAAAYAADAAAYAADAAAAA==
> <PUBCHEM_IUPAC_OPENEYE_NAME>
2',15'-dimethylspiro[1,3-dioxolane-2,14'-pentacyclo[8.7.0.02,7.05,7.011,15]heptadecane]-8'-ol
> <PUBCHEM_IUPAC_CAS_NAME>
2',15'-dimethyl-8'-spiro[1,3-dioxolane-2,14'-pentacyclo[8.7.0.02,7.05,7.011,15]heptadecane]ol
> <PUBCHEM_IUPAC_NAME_MARKUP>
2&apos;,15&apos;-dimethylspiro[1,3-dioxolane-2,14&apos;-pentacyclo[8.7.0.0<SUP>2,7</SUP>.0<SUP>5,7</SUP>.0<SUP>11,15</SUP>]heptadecane]-8&apos;-ol
> <PUBCHEM_IUPAC_NAME>
2',15'-dimethylspiro[1,3-dioxolane-2,14'-pentacyclo[8.7.0.02,7.05,7.011,15]heptadecane]-8'-ol
> <PUBCHEM_IUPAC_SYSTEMATIC_NAME>
2',15'-dimethylspiro[1,3-dioxolane-2,14'-pentacyclo[8.7.0.02,7.05,7.011,15]heptadecane]-8'-ol
> <PUBCHEM_IUPAC_TRADITIONAL_NAME>
2',15'-dimethylspiro[1,3-dioxolane-2,14'-pentacyclo[8.7.0.02,7.05,7.011,15]heptadecane]-8'-ol
> <PUBCHEM_IUPAC_INCHI>
InChI=1S/C21H32O3/c1-18-6-3-13-12-20(13,18)17(22)11-14-15(18)4-7-19(2)16(14)5-8-21(19)23-9-10-24-21/h13-17,22H,3-12H2,1-2H3
> <PUBCHEM_IUPAC_INCHIKEY>
QKKPKPKZZIQUSI-UHFFFAOYSA-N
> <PUBCHEM_XLOGP3_AA>
3.8
> <PUBCHEM_EXACT_MASS>
332.23514488
> <PUBCHEM_MOLECULAR_FORMULA>
C21H32O3
> <PUBCHEM_MOLECULAR_WEIGHT>
332.5
> <PUBCHEM_OPENEYE_CAN_SMILES>
CC12CCC3C1(C3)C(CC4C2CCC5(C4CCC56OCCO6)C)O
> <PUBCHEM_OPENEYE_ISO_SMILES>
CC12CCC3C1(C3)C(CC4C2CCC5(C4CCC56OCCO6)C)O
> <PUBCHEM_CACTVS_TPSA>
38.7
> <PUBCHEM_MONOISOTOPIC_WEIGHT>
332.23514488
> <PUBCHEM_TOTAL_CHARGE>
0
> <PUBCHEM_HEAVY_ATOM_COUNT>
24
> <PUBCHEM_ATOM_DEF_STEREO_COUNT>
0
> <PUBCHEM_ATOM_UDEF_STEREO_COUNT>
8
> <PUBCHEM_BOND_DEF_STEREO_COUNT>
0
> <PUBCHEM_BOND_UDEF_STEREO_COUNT>
0
> <PUBCHEM_ISOTOPIC_ATOM_COUNT>
0
> <PUBCHEM_COMPONENT_COUNT>
1
> <PUBCHEM_CACTVS_TAUTO_COUNT>
-1
> <PUBCHEM_COORDINATE_TYPE>
1
5
255
> <PUBCHEM_BONDANNOTATIONS>
9  1  3
10  13  3
14  20  3
15  22  3
4  7  3
5  17  3
6  12  3
8  16  3
$$$$
