517374
  -OEChem-10302200292D
 23 23  0     1  0  0  0  0  0999 V2000
    6.3301    1.4330    0.0000 S   0  0  0  0  0  0  0  0  0  0  0  0
    3.7320   -0.0670    0.0000 S   0  0  0  0  0  0  0  0  0  0  0  0
    2.8660   -0.5670    0.0000 S   0  0  0  0  0  0  0  0  0  0  0  0
    2.0000   -1.0670    0.0000 O   0  5  0  0  0  0  0  0  0  0  0  0
    2.3660    0.2990    0.0000 O   0  0  0  0  0  0  0  0  0  0  0  0
    3.3660   -1.4330    0.0000 O   0  0  0  0  0  0  0  0  0  0  0  0
    6.3301   -0.5670    0.0000 N   0  3  0  0  0  0  0  0  0  0  0  0
    5.4641   -0.0670    0.0000 C   0  0  3  0  0  0  0  0  0  0  0  0
    7.1962   -0.0670    0.0000 C   0  0  0  0  0  0  0  0  0  0  0  0
    5.4641    0.9330    0.0000 C   0  0  0  0  0  0  0  0  0  0  0  0
    4.5981   -0.5670    0.0000 C   0  0  0  0  0  0  0  0  0  0  0  0
    7.1962    0.9330    0.0000 C   0  0  0  0  0  0  0  0  0  0  0  0
    5.4641   -0.6870    0.0000 H   0  0  0  0  0  0  0  0  0  0  0  0
    6.0201   -1.1039    0.0000 H   0  0  0  0  0  0  0  0  0  0  0  0
    6.6401   -1.1039    0.0000 H   0  0  0  0  0  0  0  0  0  0  0  0
    7.4082   -0.6496    0.0000 H   0  0  0  0  0  0  0  0  0  0  0  0
    7.8067    0.0407    0.0000 H   0  0  0  0  0  0  0  0  0  0  0  0
    5.2520    1.5156    0.0000 H   0  0  0  0  0  0  0  0  0  0  0  0
    4.8535    0.8254    0.0000 H   0  0  0  0  0  0  0  0  0  0  0  0
    4.1996   -1.0419    0.0000 H   0  0  0  0  0  0  0  0  0  0  0  0
    4.9966   -1.0419    0.0000 H   0  0  0  0  0  0  0  0  0  0  0  0
    7.8067    0.8254    0.0000 H   0  0  0  0  0  0  0  0  0  0  0  0
    7.4082    1.5156    0.0000 H   0  0  0  0  0  0  0  0  0  0  0  0
  1 10  1  0  0  0  0
  1 12  1  0  0  0  0
  2  3  1  0  0  0  0
  2 11  1  0  0  0  0
  3  4  1  0  0  0  0
  3  5  2  0  0  0  0
  3  6  2  0  0  0  0
  7  8  1  0  0  0  0
  7  9  1  0  0  0  0
  7 14  1  0  0  0  0
  7 15  1  0  0  0  0
  8 10  1  0  0  0  0
  8 11  1  0  0  0  0
  8 13  1  0  0  0  0
  9 12  1  0  0  0  0
  9 16  1  0  0  0  0
  9 17  1  0  0  0  0
 10 18  1  0  0  0  0
 10 19  1  0  0  0  0
 11 20  1  0  0  0  0
 11 21  1  0  0  0  0
 12 22  1  0  0  0  0
 12 23  1  0  0  0  0
M  CHG  2   4  -1   7   1
M  END
> <PUBCHEM_COMPOUND_CID>
517374
> <PUBCHEM_COMPOUND_CANONICALIZED>
1
> <PUBCHEM_CACTVS_COMPLEXITY>
209
> <PUBCHEM_CACTVS_HBOND_ACCEPTOR>
5
> <PUBCHEM_CACTVS_HBOND_DONOR>
1
> <PUBCHEM_CACTVS_ROTATABLE_BOND>
2
> <PUBCHEM_CACTVS_SUBSKEYS>
AAADccBiMABgAAAAAAAAAAAAAAAAAAAAAAAsAAAAAAAAAAAAAAAAHAQQAAAACCjFQASAAALAAAgAAAAAADAAAAAAABAAAIAIAAAAAAAgAAAAAAAAEACgAAAAAAAAAAAAAAAAAAAAAAAAAAAAAAAAAAAAAA==
> <PUBCHEM_IUPAC_OPENEYE_NAME>
3-(sulfonatosulfanylmethyl)thiomorpholin-4-ium
> <PUBCHEM_IUPAC_CAS_NAME>
3-[(sulfonatothio)methyl]thiomorpholin-4-ium
> <PUBCHEM_IUPAC_NAME_MARKUP>
3-(sulfonatosulfanylmethyl)thiomorpholin-4-ium
> <PUBCHEM_IUPAC_NAME>
3-(sulfonatosulfanylmethyl)thiomorpholin-4-ium
> <PUBCHEM_IUPAC_SYSTEMATIC_NAME>
3-(sulfonatosulfanylmethyl)thiomorpholin-4-ium
> <PUBCHEM_IUPAC_TRADITIONAL_NAME>
3-[(sulfonatothio)methyl]thiomorpholin-4-ium
> <PUBCHEM_IUPAC_INCHI>
InChI=1S/C5H11NO3S3/c7-12(8,9)11-4-5-3-10-2-1-6-5/h5-6H,1-4H2,(H,7,8,9)
> <PUBCHEM_IUPAC_INCHIKEY>
YVJPWJQJQLRLPT-UHFFFAOYSA-N
> <PUBCHEM_XLOGP3_AA>
-2.8
> <PUBCHEM_EXACT_MASS>
228.99010673
> <PUBCHEM_MOLECULAR_FORMULA>
C5H11NO3S3
> <PUBCHEM_MOLECULAR_WEIGHT>
229.3
> <PUBCHEM_OPENEYE_CAN_SMILES>
C1CSCC([NH2+]1)CSS(=O)(=O)[O-]
> <PUBCHEM_OPENEYE_ISO_SMILES>
C1CSCC([NH2+]1)CSS(=O)(=O)[O-]
> <PUBCHEM_CACTVS_TPSA>
133
> <PUBCHEM_MONOISOTOPIC_WEIGHT>
228.99010673
> <PUBCHEM_TOTAL_CHARGE>
0
> <PUBCHEM_HEAVY_ATOM_COUNT>
12
> <PUBCHEM_ATOM_DEF_STEREO_COUNT>
0
> <PUBCHEM_ATOM_UDEF_STEREO_COUNT>
1
> <PUBCHEM_BOND_DEF_STEREO_COUNT>
0
> <PUBCHEM_BOND_UDEF_STEREO_COUNT>
0
> <PUBCHEM_ISOTOPIC_ATOM_COUNT>
0
> <PUBCHEM_COMPONENT_COUNT>
1
> <PUBCHEM_CACTVS_TAUTO_COUNT>
-1
> <PUBCHEM_COORDINATE_TYPE>
1
5
255
> <PUBCHEM_BONDANNOTATIONS>
8  11  3
$$$$
