517311
  -OEChem-10302200292D
 90 96  0     1  0  0  0  0  0999 V2000
    5.5735    1.6009    0.0000 O   0  0  0  0  0  0  0  0  0  0  0  0
    7.2808   -2.0306    0.0000 O   0  0  0  0  0  0  0  0  0  0  0  0
    3.5903    2.5569    0.0000 O   0  0  0  0  0  0  0  0  0  0  0  0
    7.4835   -4.1847    0.0000 O   0  0  0  0  0  0  0  0  0  0  0  0
    3.5903    4.5501    0.0000 O   0  0  0  0  0  0  0  0  0  0  0  0
    8.7695   -1.8456    0.0000 O   0  0  0  0  0  0  0  0  0  0  0  0
    7.8969    3.0569    0.0000 N   0  3  0  0  0  0  0  0  0  0  0  0
    2.9854   -3.4477    0.0000 N   0  3  0  0  0  0  0  0  0  0  0  0
    7.0368    2.5603    0.0000 C   0  0  3  0  0  0  0  0  0  0  0  0
    3.7482   -2.8117    0.0000 C   0  0  3  0  0  0  0  0  0  0  0  0
    7.8969    4.0501    0.0000 C   0  0  0  0  0  0  0  0  0  0  0  0
    3.1547   -4.4264    0.0000 C   0  0  0  0  0  0  0  0  0  0  0  0
    6.1766    3.0569    0.0000 C   0  0  0  0  0  0  0  0  0  0  0  0
    7.0368    4.5467    0.0000 C   0  0  0  0  0  0  0  0  0  0  0  0
    4.6804   -3.1544    0.0000 C   0  0  0  0  0  0  0  0  0  0  0  0
    6.7797    1.6009    0.0000 C   0  0  0  0  0  0  0  0  0  0  0  0
    4.0869   -4.7691    0.0000 C   0  0  0  0  0  0  0  0  0  0  0  0
    6.1766    4.0501    0.0000 C   0  0  0  0  0  0  0  0  0  0  0  0
    3.5871   -1.8397    0.0000 C   0  0  0  0  0  0  0  0  0  0  0  0
    8.8969    3.0569    0.0000 C   0  0  0  0  0  0  0  0  0  0  0  0
    8.3969    2.1908    0.0000 C   0  0  0  0  0  0  0  0  0  0  0  0
    4.8498   -4.1331    0.0000 C   0  0  0  0  0  0  0  0  0  0  0  0
    2.0000   -3.6183    0.0000 C   0  0  0  0  0  0  0  0  0  0  0  0
    2.3450   -2.6797    0.0000 C   0  0  0  0  0  0  0  0  0  0  0  0
    5.3165    2.5603    0.0000 C   0  0  0  0  0  0  0  0  0  0  0  0
    5.4433   -2.5184    0.0000 C   0  0  0  0  0  0  0  0  0  0  0  0
    7.2763    0.7407    0.0000 C   0  0  0  0  0  0  0  0  0  0  0  0
    4.0837   -0.9795    0.0000 C   0  0  0  0  0  0  0  0  0  0  0  0
    5.3165    4.5467    0.0000 C   0  0  0  0  0  0  0  0  0  0  0  0
    5.7820   -4.4757    0.0000 C   0  0  0  0  0  0  0  0  0  0  0  0
    4.4563    3.0569    0.0000 C   0  0  0  0  0  0  0  0  0  0  0  0
    6.3755   -2.8610    0.0000 C   0  0  0  0  0  0  0  0  0  0  0  0
    4.4563    4.0501    0.0000 C   0  0  0  0  0  0  0  0  0  0  0  0
    6.5449   -3.8397    0.0000 C   0  0  0  0  0  0  0  0  0  0  0  0
    6.7797   -0.1194    0.0000 C   0  0  0  0  0  0  0  0  0  0  0  0
    3.5871   -0.1194    0.0000 C   0  0  0  0  0  0  0  0  0  0  0  0
    5.0769   -0.9795    0.0000 C   0  0  0  0  0  0  0  0  0  0  0  0
    8.2695    0.7407    0.0000 C   0  0  0  0  0  0  0  0  0  0  0  0
    5.0769    0.7407    0.0000 C   0  0  0  0  0  0  0  0  0  0  0  0
    7.2763   -0.9795    0.0000 C   0  0  0  0  0  0  0  0  0  0  0  0
    4.0837    0.7407    0.0000 C   0  0  0  0  0  0  0  0  0  0  0  0
    5.5735   -0.1194    0.0000 C   0  0  0  0  0  0  0  0  0  0  0  0
    8.7661   -0.1194    0.0000 C   0  0  0  0  0  0  0  0  0  0  0  0
    8.2695   -0.9795    0.0000 C   0  0  0  0  0  0  0  0  0  0  0  0
    2.7243    3.0569    0.0000 C   0  0  0  0  0  0  0  0  0  0  0  0
    7.6540   -5.1701    0.0000 C   0  0  0  0  0  0  0  0  0  0  0  0
    7.5286    2.1828    0.0000 H   0  0  0  0  0  0  0  0  0  0  0  0
    3.1670   -2.5958    0.0000 H   0  0  0  0  0  0  0  0  0  0  0  0
    8.5075    3.9424    0.0000 H   0  0  0  0  0  0  0  0  0  0  0  0
    8.1090    4.6327    0.0000 H   0  0  0  0  0  0  0  0  0  0  0  0
    2.5347   -4.4244    0.0000 H   0  0  0  0  0  0  0  0  0  0  0  0
    3.0451   -5.0366    0.0000 H   0  0  0  0  0  0  0  0  0  0  0  0
    7.4353    5.0216    0.0000 H   0  0  0  0  0  0  0  0  0  0  0  0
    6.6382    5.0216    0.0000 H   0  0  0  0  0  0  0  0  0  0  0  0
    6.2428    1.9109    0.0000 H   0  0  0  0  0  0  0  0  0  0  0  0
    6.3413    1.1625    0.0000 H   0  0  0  0  0  0  0  0  0  0  0  0
    3.7752   -5.3050    0.0000 H   0  0  0  0  0  0  0  0  0  0  0  0
    4.5606   -5.1691    0.0000 H   0  0  0  0  0  0  0  0  0  0  0  0
    3.1632   -1.3873    0.0000 H   0  0  0  0  0  0  0  0  0  0  0  0
    3.0312   -2.1141    0.0000 H   0  0  0  0  0  0  0  0  0  0  0  0
    8.8969    2.4369    0.0000 H   0  0  0  0  0  0  0  0  0  0  0  0
    9.5169    3.0569    0.0000 H   0  0  0  0  0  0  0  0  0  0  0  0
    8.8969    3.6769    0.0000 H   0  0  0  0  0  0  0  0  0  0  0  0
    7.8600    1.8808    0.0000 H   0  0  0  0  0  0  0  0  0  0  0  0
    8.7069    1.6539    0.0000 H   0  0  0  0  0  0  0  0  0  0  0  0
    8.9338    2.5008    0.0000 H   0  0  0  0  0  0  0  0  0  0  0  0
    1.8943   -3.0073    0.0000 H   0  0  0  0  0  0  0  0  0  0  0  0
    1.3891   -3.7240    0.0000 H   0  0  0  0  0  0  0  0  0  0  0  0
    2.1057   -4.2292    0.0000 H   0  0  0  0  0  0  0  0  0  0  0  0
    2.8212   -2.2826    0.0000 H   0  0  0  0  0  0  0  0  0  0  0  0
    1.9480   -2.2034    0.0000 H   0  0  0  0  0  0  0  0  0  0  0  0
    1.8688   -3.0767    0.0000 H   0  0  0  0  0  0  0  0  0  0  0  0
    5.3376   -1.9075    0.0000 H   0  0  0  0  0  0  0  0  0  0  0  0
    5.3165    5.1667    0.0000 H   0  0  0  0  0  0  0  0  0  0  0  0
    5.8878   -5.0866    0.0000 H   0  0  0  0  0  0  0  0  0  0  0  0
    6.1597   -0.1194    0.0000 H   0  0  0  0  0  0  0  0  0  0  0  0
    2.9671   -0.1194    0.0000 H   0  0  0  0  0  0  0  0  0  0  0  0
    5.3869   -1.5165    0.0000 H   0  0  0  0  0  0  0  0  0  0  0  0
    8.5795    1.2777    0.0000 H   0  0  0  0  0  0  0  0  0  0  0  0
    3.7737    1.2777    0.0000 H   0  0  0  0  0  0  0  0  0  0  0  0
    6.1935   -0.1194    0.0000 H   0  0  0  0  0  0  0  0  0  0  0  0
    9.3861   -0.1194    0.0000 H   0  0  0  0  0  0  0  0  0  0  0  0
    3.5903    5.1701    0.0000 H   0  0  0  0  0  0  0  0  0  0  0  0
    3.0343    3.5938    0.0000 H   0  0  0  0  0  0  0  0  0  0  0  0
    2.1874    3.3669    0.0000 H   0  0  0  0  0  0  0  0  0  0  0  0
    2.4143    2.5199    0.0000 H   0  0  0  0  0  0  0  0  0  0  0  0
    7.0431   -5.2758    0.0000 H   0  0  0  0  0  0  0  0  0  0  0  0
    7.7597   -5.7810    0.0000 H   0  0  0  0  0  0  0  0  0  0  0  0
    8.2649   -5.0644    0.0000 H   0  0  0  0  0  0  0  0  0  0  0  0
    9.3895   -1.8456    0.0000 H   0  0  0  0  0  0  0  0  0  0  0  0
  1 25  1  0  0  0  0
  1 39  1  0  0  0  0
  2 32  1  0  0  0  0
  2 40  1  0  0  0  0
  3 31  1  0  0  0  0
  3 45  1  0  0  0  0
  4 34  1  0  0  0  0
  4 46  1  0  0  0  0
  5 33  1  0  0  0  0
  5 83  1  0  0  0  0
  6 44  1  0  0  0  0
  6 90  1  0  0  0  0
  7  9  1  0  0  0  0
  7 11  1  0  0  0  0
  7 20  1  0  0  0  0
  7 21  1  0  0  0  0
  8 10  1  0  0  0  0
  8 12  1  0  0  0  0
  8 23  1  0  0  0  0
  8 24  1  0  0  0  0
  9 13  1  0  0  0  0
  9 16  1  0  0  0  0
  9 47  1  0  0  0  0
 10 15  1  0  0  0  0
 10 19  1  0  0  0  0
 10 48  1  0  0  0  0
 11 14  1  0  0  0  0
 11 49  1  0  0  0  0
 11 50  1  0  0  0  0
 12 17  1  0  0  0  0
 12 51  1  0  0  0  0
 12 52  1  0  0  0  0
 13 18  1  0  0  0  0
 13 25  2  0  0  0  0
 14 18  1  0  0  0  0
 14 53  1  0  0  0  0
 14 54  1  0  0  0  0
 15 22  1  0  0  0  0
 15 26  2  0  0  0  0
 16 27  1  0  0  0  0
 16 55  1  0  0  0  0
 16 56  1  0  0  0  0
 17 22  1  0  0  0  0
 17 57  1  0  0  0  0
 17 58  1  0  0  0  0
 18 29  2  0  0  0  0
 19 28  1  0  0  0  0
 19 59  1  0  0  0  0
 19 60  1  0  0  0  0
 20 61  1  0  0  0  0
 20 62  1  0  0  0  0
 20 63  1  0  0  0  0
 21 64  1  0  0  0  0
 21 65  1  0  0  0  0
 21 66  1  0  0  0  0
 22 30  2  0  0  0  0
 23 67  1  0  0  0  0
 23 68  1  0  0  0  0
 23 69  1  0  0  0  0
 24 70  1  0  0  0  0
 24 71  1  0  0  0  0
 24 72  1  0  0  0  0
 25 31  1  0  0  0  0
 26 32  1  0  0  0  0
 26 73  1  0  0  0  0
 27 35  2  0  0  0  0
 27 38  1  0  0  0  0
 28 36  2  0  0  0  0
 28 37  1  0  0  0  0
 29 33  1  0  0  0  0
 29 74  1  0  0  0  0
 30 34  1  0  0  0  0
 30 75  1  0  0  0  0
 31 33  2  0  0  0  0
 32 34  2  0  0  0  0
 35 40  1  0  0  0  0
 35 76  1  0  0  0  0
 36 41  1  0  0  0  0
 36 77  1  0  0  0  0
 37 42  2  0  0  0  0
 37 78  1  0  0  0  0
 38 43  2  0  0  0  0
 38 79  1  0  0  0  0
 39 41  2  0  0  0  0
 39 42  1  0  0  0  0
 40 44  2  0  0  0  0
 41 80  1  0  0  0  0
 42 81  1  0  0  0  0
 43 44  1  0  0  0  0
 43 82  1  0  0  0  0
 45 84  1  0  0  0  0
 45 85  1  0  0  0  0
 45 86  1  0  0  0  0
 46 87  1  0  0  0  0
 46 88  1  0  0  0  0
 46 89  1  0  0  0  0
M  CHG  2   7   1   8   1
M  END
> <PUBCHEM_COMPOUND_CID>
517311
> <PUBCHEM_COMPOUND_CANONICALIZED>
1
> <PUBCHEM_CACTVS_COMPLEXITY>
1030
> <PUBCHEM_CACTVS_HBOND_ACCEPTOR>
6
> <PUBCHEM_CACTVS_HBOND_DONOR>
2
> <PUBCHEM_CACTVS_ROTATABLE_BOND>
2
> <PUBCHEM_CACTVS_SUBSKEYS>
AAADcfB/OAAAAAAAAAAAAAAAAAAAAAAAAAA8eMGCAAAAAACxVAAAHgAACAAADCzBmAYyBoMABgCAAiBCAACCCAAgIAAIiAAOjIgNJyKGsRuGeCvnwBWLuAew8P8OoAABCAAYQABAAAIQADCAAAAAAAAAAA==
> <PUBCHEM_IUPAC_OPENEYE_NAME>
9,25-dimethoxy-15,15,30,30-tetramethyl-7,23-dioxa-15,30-diazoniaheptacyclo[22.6.2.23,6.18,12.118,22.027,31.016,34]hexatriaconta-3(36),4,6(35),8(34),9,11,18(33),19,21,24,26,31-dodecaene-10,21-diol
> <PUBCHEM_IUPAC_CAS_NAME>
9,25-dimethoxy-15,15,30,30-tetramethyl-7,23-dioxa-15,30-diazoniaheptacyclo[22.6.2.23,6.18,12.118,22.027,31.016,34]hexatriaconta-3(36),4,6(35),8(34),9,11,18(33),19,21,24,26,31-dodecaene-10,21-diol
> <PUBCHEM_IUPAC_NAME_MARKUP>
9,25-dimethoxy-15,15,30,30-tetramethyl-7,23-dioxa-15,30-diazoniaheptacyclo[22.6.2.2<SUP>3,6</SUP>.1<SUP>8,12</SUP>.1<SUP>18,22</SUP>.0<SUP>27,31</SUP>.0<SUP>16,34</SUP>]hexatriaconta-3(36),4,6(35),8(34),9,11,18(33),19,21,24,26,31-dodecaene-10,21-diol
> <PUBCHEM_IUPAC_NAME>
9,25-dimethoxy-15,15,30,30-tetramethyl-7,23-dioxa-15,30-diazoniaheptacyclo[22.6.2.23,6.18,12.118,22.027,31.016,34]hexatriaconta-3(36),4,6(35),8(34),9,11,18(33),19,21,24,26,31-dodecaene-10,21-diol
> <PUBCHEM_IUPAC_SYSTEMATIC_NAME>
9,25-dimethoxy-15,15,30,30-tetramethyl-7,23-dioxa-15,30-diazoniaheptacyclo[22.6.2.23,6.18,12.118,22.027,31.016,34]hexatriaconta-3(36),4,6(35),8(34),9,11,18(33),19,21,24,26,31-dodecaene-10,21-diol
> <PUBCHEM_IUPAC_TRADITIONAL_NAME>
9,25-dimethoxy-15,15,30,30-tetramethyl-7,23-dioxa-15,30-diazoniaheptacyclo[22.6.2.23,6.18,12.118,22.027,31.016,34]hexatriaconta-3(36),4,6(35),8(34),9,11,18(33),19,21,24,26,31-dodecaene-10,21-diol
> <PUBCHEM_IUPAC_INCHI>
InChI=1S/C38H42N2O6/c1-39(2)15-13-25-21-34(43-5)35-22-28(25)29(39)17-23-7-10-27(11-8-23)45-38-36-26(20-32(42)37(38)44-6)14-16-40(3,4)30(36)18-24-9-12-31(41)33(19-24)46-35/h7-12,19-22,29-30H,13-18H2,1-6H3/p+2
> <PUBCHEM_IUPAC_INCHIKEY>
RTIQKWHRAFFWIG-UHFFFAOYSA-P
> <PUBCHEM_XLOGP3_AA>
6
> <PUBCHEM_EXACT_MASS>
624.31993713
> <PUBCHEM_MOLECULAR_FORMULA>
C38H44N2O6+2
> <PUBCHEM_MOLECULAR_WEIGHT>
624.8
> <PUBCHEM_OPENEYE_CAN_SMILES>
C[N+]1(CCC2=CC(=C3C=C2C1CC4=CC=C(C=C4)OC5=C6C(CC7=CC(=C(C=C7)O)O3)[N+](CCC6=CC(=C5OC)O)(C)C)OC)C
> <PUBCHEM_OPENEYE_ISO_SMILES>
C[N+]1(CCC2=CC(=C3C=C2C1CC4=CC=C(C=C4)OC5=C6C(CC7=CC(=C(C=C7)O)O3)[N+](CCC6=CC(=C5OC)O)(C)C)OC)C
> <PUBCHEM_CACTVS_TPSA>
77.4
> <PUBCHEM_MONOISOTOPIC_WEIGHT>
624.31993713
> <PUBCHEM_TOTAL_CHARGE>
2
> <PUBCHEM_HEAVY_ATOM_COUNT>
46
> <PUBCHEM_ATOM_DEF_STEREO_COUNT>
0
> <PUBCHEM_ATOM_UDEF_STEREO_COUNT>
2
> <PUBCHEM_BOND_DEF_STEREO_COUNT>
0
> <PUBCHEM_BOND_UDEF_STEREO_COUNT>
0
> <PUBCHEM_ISOTOPIC_ATOM_COUNT>
0
> <PUBCHEM_COMPONENT_COUNT>
1
> <PUBCHEM_CACTVS_TAUTO_COUNT>
-1
> <PUBCHEM_COORDINATE_TYPE>
1
5
255
> <PUBCHEM_BONDANNOTATIONS>
10  19  3
13  18  8
13  25  8
15  22  8
15  26  8
18  29  8
22  30  8
25  31  8
26  32  8
27  35  8
27  38  8
28  36  8
28  37  8
29  33  8
30  34  8
31  33  8
32  34  8
35  40  8
36  41  8
37  42  8
38  43  8
39  41  8
39  42  8
40  44  8
43  44  8
9  16  3
$$$$
