517300
  -OEChem-10302200292D
 55 56  0     1  0  0  0  0  0999 V2000
    8.3192    3.2975    0.0000 Cl  0  5  0  0  0  0  0  0  0  0  0  0
    0.4766    3.4750    0.0000 O   0  0  0  0  0  0  0  0  0  0  0  0
    3.9766    2.6089    0.0000 N   0  3  0  0  0  0  0  0  0  0  0  0
    1.4766    2.4750    0.0000 C   0  0  0  0  0  0  0  0  0  0  0  0
    1.4766    3.4750    0.0000 C   0  0  3  0  0  0  0  0  0  0  0  0
    2.4766    3.4750    0.0000 C   0  0  0  0  0  0  0  0  0  0  0  0
    0.6106    1.9750    0.0000 C   0  0  0  0  0  0  0  0  0  0  0  0
    2.3426    1.9750    0.0000 C   0  0  0  0  0  0  0  0  0  0  0  0
    2.9766    2.6089    0.0000 C   0  0  0  0  0  0  0  0  0  0  0  0
    0.6106    0.9749    0.0000 C   0  0  0  0  0  0  0  0  0  0  0  0
    2.3426    0.9749    0.0000 C   0  0  0  0  0  0  0  0  0  0  0  0
    4.8426    2.1089    0.0000 C   0  0  0  0  0  0  0  0  0  0  0  0
    3.9766    3.6089    0.0000 C   0  0  0  0  0  0  0  0  0  0  0  0
    1.4766    0.4749    0.0000 C   0  0  0  0  0  0  0  0  0  0  0  0
    1.4766    4.4750    0.0000 C   0  0  0  0  0  0  0  0  0  0  0  0
    5.7087    2.6089    0.0000 C   0  0  0  0  0  0  0  0  0  0  0  0
    4.8426    4.1089    0.0000 C   0  0  0  0  0  0  0  0  0  0  0  0
    5.7087    3.6089    0.0000 C   0  0  0  0  0  0  0  0  0  0  0  0
    0.6106    4.9750    0.0000 C   0  0  0  0  0  0  0  0  0  0  0  0
    2.3426    4.9750    0.0000 C   0  0  0  0  0  0  0  0  0  0  0  0
    0.6106    5.9750    0.0000 C   0  0  0  0  0  0  0  0  0  0  0  0
    2.3426    5.9750    0.0000 C   0  0  0  0  0  0  0  0  0  0  0  0
    1.4766    6.4750    0.0000 C   0  0  0  0  0  0  0  0  0  0  0  0
    2.0135    2.7849    0.0000 H   0  0  0  0  0  0  0  0  0  0  0  0
    3.4766    1.7429    0.0000 H   0  0  0  0  0  0  0  0  0  0  0  0
    3.0592    3.6870    0.0000 H   0  0  0  0  0  0  0  0  0  0  0  0
    2.3689    4.0855    0.0000 H   0  0  0  0  0  0  0  0  0  0  0  0
    0.3985    2.5576    0.0000 H   0  0  0  0  0  0  0  0  0  0  0  0
    0.0000    1.8673    0.0000 H   0  0  0  0  0  0  0  0  0  0  0  0
    2.9532    1.8673    0.0000 H   0  0  0  0  0  0  0  0  0  0  0  0
    2.5547    2.5576    0.0000 H   0  0  0  0  0  0  0  0  0  0  0  0
    2.3940    2.3969    0.0000 H   0  0  0  0  0  0  0  0  0  0  0  0
    3.0843    1.9983    0.0000 H   0  0  0  0  0  0  0  0  0  0  0  0
    4.4441    1.6340    0.0000 H   0  0  0  0  0  0  0  0  0  0  0  0
    5.2412    1.6340    0.0000 H   0  0  0  0  0  0  0  0  0  0  0  0
    3.7646    4.1915    0.0000 H   0  0  0  0  0  0  0  0  0  0  0  0
    3.3660    3.5013    0.0000 H   0  0  0  0  0  0  0  0  0  0  0  0
    0.0000    1.0826    0.0000 H   0  0  0  0  0  0  0  0  0  0  0  0
    0.3985    0.3923    0.0000 H   0  0  0  0  0  0  0  0  0  0  0  0
    2.5547    0.3923    0.0000 H   0  0  0  0  0  0  0  0  0  0  0  0
    2.9532    1.0826    0.0000 H   0  0  0  0  0  0  0  0  0  0  0  0
    1.0781    0.0000    0.0000 H   0  0  0  0  0  0  0  0  0  0  0  0
    1.8751    0.0000    0.0000 H   0  0  0  0  0  0  0  0  0  0  0  0
    5.9207    2.0263    0.0000 H   0  0  0  0  0  0  0  0  0  0  0  0
    6.3192    2.7166    0.0000 H   0  0  0  0  0  0  0  0  0  0  0  0
    5.2412    4.5839    0.0000 H   0  0  0  0  0  0  0  0  0  0  0  0
    4.4441    4.5839    0.0000 H   0  0  0  0  0  0  0  0  0  0  0  0
    6.3192    3.5013    0.0000 H   0  0  0  0  0  0  0  0  0  0  0  0
    5.9207    4.1915    0.0000 H   0  0  0  0  0  0  0  0  0  0  0  0
    0.1666    4.0119    0.0000 H   0  0  0  0  0  0  0  0  0  0  0  0
    0.0736    4.6650    0.0000 H   0  0  0  0  0  0  0  0  0  0  0  0
    2.8796    4.6650    0.0000 H   0  0  0  0  0  0  0  0  0  0  0  0
    0.0736    6.2850    0.0000 H   0  0  0  0  0  0  0  0  0  0  0  0
    2.8796    6.2850    0.0000 H   0  0  0  0  0  0  0  0  0  0  0  0
    1.4766    7.0950    0.0000 H   0  0  0  0  0  0  0  0  0  0  0  0
  2  5  1  0  0  0  0
  2 50  1  0  0  0  0
  3  9  1  0  0  0  0
  3 12  1  0  0  0  0
  3 13  1  0  0  0  0
  3 25  1  0  0  0  0
  4  5  1  0  0  0  0
  4  7  1  0  0  0  0
  4  8  1  0  0  0  0
  4 24  1  0  0  0  0
  5  6  1  0  0  0  0
  5 15  1  0  0  0  0
  6  9  1  0  0  0  0
  6 26  1  0  0  0  0
  6 27  1  0  0  0  0
  7 10  1  0  0  0  0
  7 28  1  0  0  0  0
  7 29  1  0  0  0  0
  8 11  1  0  0  0  0
  8 30  1  0  0  0  0
  8 31  1  0  0  0  0
  9 32  1  0  0  0  0
  9 33  1  0  0  0  0
 10 14  1  0  0  0  0
 10 38  1  0  0  0  0
 10 39  1  0  0  0  0
 11 14  1  0  0  0  0
 11 40  1  0  0  0  0
 11 41  1  0  0  0  0
 12 16  1  0  0  0  0
 12 34  1  0  0  0  0
 12 35  1  0  0  0  0
 13 17  1  0  0  0  0
 13 36  1  0  0  0  0
 13 37  1  0  0  0  0
 14 42  1  0  0  0  0
 14 43  1  0  0  0  0
 15 19  2  0  0  0  0
 15 20  1  0  0  0  0
 16 18  1  0  0  0  0
 16 44  1  0  0  0  0
 16 45  1  0  0  0  0
 17 18  1  0  0  0  0
 17 46  1  0  0  0  0
 17 47  1  0  0  0  0
 18 48  1  0  0  0  0
 18 49  1  0  0  0  0
 19 21  1  0  0  0  0
 19 51  1  0  0  0  0
 20 22  2  0  0  0  0
 20 52  1  0  0  0  0
 21 23  2  0  0  0  0
 21 53  1  0  0  0  0
 22 23  1  0  0  0  0
 22 54  1  0  0  0  0
 23 55  1  0  0  0  0
M  CHG  2   1  -1   3   1
M  END
> <PUBCHEM_COMPOUND_CID>
517300
> <PUBCHEM_COMPOUND_CANONICALIZED>
1
> <PUBCHEM_CACTVS_COMPLEXITY>
314
> <PUBCHEM_CACTVS_HBOND_ACCEPTOR>
2
> <PUBCHEM_CACTVS_HBOND_DONOR>
2
> <PUBCHEM_CACTVS_ROTATABLE_BOND>
5
> <PUBCHEM_CACTVS_SUBSKEYS>
AAADcfB6IAAEAAAAAAAAAAAAAAAAAAAAAAA8YIAAAAAAAAABAAAAHgAQCAAADUTBmAQwAIPAAgCAAiBCAAACAAAgAAAIiIAICIgIJiKAkRCEcAAm0AGImAeQwOAOgAAAAAAAAAAAAAAAAAAAAAAAAAAAAA==
> <PUBCHEM_IUPAC_OPENEYE_NAME>
1-cyclohexyl-1-phenyl-3-piperidin-1-ium-1-yl-propan-1-ol;chloride
> <PUBCHEM_IUPAC_CAS_NAME>
1-cyclohexyl-1-phenyl-3-(1-piperidin-1-iumyl)-1-propanol;chloride
> <PUBCHEM_IUPAC_NAME_MARKUP>
1-cyclohexyl-1-phenyl-3-piperidin-1-ium-1-ylpropan-1-ol;chloride
> <PUBCHEM_IUPAC_NAME>
1-cyclohexyl-1-phenyl-3-piperidin-1-ium-1-ylpropan-1-ol;chloride
> <PUBCHEM_IUPAC_SYSTEMATIC_NAME>
1-cyclohexyl-1-phenyl-3-piperidin-1-ium-1-yl-propan-1-ol;chloride
> <PUBCHEM_IUPAC_TRADITIONAL_NAME>
1-cyclohexyl-1-phenyl-3-piperidin-1-ium-1-yl-propan-1-ol;chloride
> <PUBCHEM_IUPAC_INCHI>
InChI=1S/C20H31NO.ClH/c22-20(18-10-4-1-5-11-18,19-12-6-2-7-13-19)14-17-21-15-8-3-9-16-21;/h1,4-5,10-11,19,22H,2-3,6-9,12-17H2;1H
> <PUBCHEM_IUPAC_INCHIKEY>
QDWJJTJNXAKQKD-UHFFFAOYSA-N
> <PUBCHEM_EXACT_MASS>
337.2172423
> <PUBCHEM_MOLECULAR_FORMULA>
C20H32ClNO
> <PUBCHEM_MOLECULAR_WEIGHT>
337.9
> <PUBCHEM_OPENEYE_CAN_SMILES>
C1CCC(CC1)C(CC[NH+]2CCCCC2)(C3=CC=CC=C3)O.[Cl-]
> <PUBCHEM_OPENEYE_ISO_SMILES>
C1CCC(CC1)C(CC[NH+]2CCCCC2)(C3=CC=CC=C3)O.[Cl-]
> <PUBCHEM_CACTVS_TPSA>
24.7
> <PUBCHEM_MONOISOTOPIC_WEIGHT>
337.2172423
> <PUBCHEM_TOTAL_CHARGE>
0
> <PUBCHEM_HEAVY_ATOM_COUNT>
23
> <PUBCHEM_ATOM_DEF_STEREO_COUNT>
0
> <PUBCHEM_ATOM_UDEF_STEREO_COUNT>
1
> <PUBCHEM_BOND_DEF_STEREO_COUNT>
0
> <PUBCHEM_BOND_UDEF_STEREO_COUNT>
0
> <PUBCHEM_ISOTOPIC_ATOM_COUNT>
0
> <PUBCHEM_COMPONENT_COUNT>
2
> <PUBCHEM_CACTVS_TAUTO_COUNT>
-1
> <PUBCHEM_COORDINATE_TYPE>
1
5
255
> <PUBCHEM_BONDANNOTATIONS>
15  19  8
15  20  8
19  21  8
5  2  3
20  22  8
21  23  8
22  23  8
$$$$
