517381
  -OEChem-10302200292D
 46 45  0     1  0  0  0  0  0999 V2000
    8.5991    3.9050    0.0000 Na  0  3  0  0  0  0  0  0  0  0  0  0
    4.2690   -0.5950    0.0000 O   0  0  0  0  0  0  0  0  0  0  0  0
    6.0010   -0.5950    0.0000 O   0  0  0  0  0  0  0  0  0  0  0  0
    4.2690   -3.5950    0.0000 O   0  0  0  0  0  0  0  0  0  0  0  0
    6.0010   -2.5950    0.0000 O   0  0  0  0  0  0  0  0  0  0  0  0
    2.5369   -2.5950    0.0000 O   0  0  0  0  0  0  0  0  0  0  0  0
    7.7331    0.4050    0.0000 O   0  0  0  0  0  0  0  0  0  0  0  0
    4.2690    0.4050    0.0000 O   0  0  0  0  0  0  0  0  0  0  0  0
    2.5369    0.4050    0.0000 O   0  0  0  0  0  0  0  0  0  0  0  0
    6.0010    2.4050    0.0000 O   0  0  0  0  0  0  0  0  0  0  0  0
    4.2690    2.4050    0.0000 O   0  0  0  0  0  0  0  0  0  0  0  0
    7.7331    3.4050    0.0000 O   0  5  0  0  0  0  0  0  0  0  0  0
    8.5991    1.9050    0.0000 O   0  0  0  0  0  0  0  0  0  0  0  0
    4.2690   -2.5950    0.0000 C   0  0  3  0  0  0  0  0  0  0  0  0
    5.1350   -2.0950    0.0000 C   0  0  3  0  0  0  0  0  0  0  0  0
    3.4030   -2.0950    0.0000 C   0  0  3  0  0  0  0  0  0  0  0  0
    5.1350   -1.0950    0.0000 C   0  0  3  0  0  0  0  0  0  0  0  0
    3.4030   -1.0950    0.0000 C   0  0  3  0  0  0  0  0  0  0  0  0
    6.0010    0.4050    0.0000 C   0  0  3  0  0  0  0  0  0  0  0  0
    6.8671    0.9050    0.0000 C   0  0  3  0  0  0  0  0  0  0  0  0
    5.1350    0.9050    0.0000 C   0  0  3  0  0  0  0  0  0  0  0  0
    2.5369   -0.5950    0.0000 C   0  0  0  0  0  0  0  0  0  0  0  0
    6.8671    1.9050    0.0000 C   0  0  3  0  0  0  0  0  0  0  0  0
    5.1350    1.9050    0.0000 C   0  0  0  0  0  0  0  0  0  0  0  0
    7.7331    2.4050    0.0000 C   0  0  0  0  0  0  0  0  0  0  0  0
    3.7320   -2.9050    0.0000 H   0  0  0  0  0  0  0  0  0  0  0  0
    5.1350   -2.7150    0.0000 H   0  0  0  0  0  0  0  0  0  0  0  0
    3.4030   -2.7150    0.0000 H   0  0  0  0  0  0  0  0  0  0  0  0
    5.1350   -0.4750    0.0000 H   0  0  0  0  0  0  0  0  0  0  0  0
    3.4030   -0.4750    0.0000 H   0  0  0  0  0  0  0  0  0  0  0  0
    6.5380    0.0950    0.0000 H   0  0  0  0  0  0  0  0  0  0  0  0
    7.4040    1.2150    0.0000 H   0  0  0  0  0  0  0  0  0  0  0  0
    5.1350    0.2850    0.0000 H   0  0  0  0  0  0  0  0  0  0  0  0
    1.9264   -0.4873    0.0000 H   0  0  0  0  0  0  0  0  0  0  0  0
    2.3249   -1.1776    0.0000 H   0  0  0  0  0  0  0  0  0  0  0  0
    6.3301    1.5950    0.0000 H   0  0  0  0  0  0  0  0  0  0  0  0
    6.0010   -3.2150    0.0000 H   0  0  0  0  0  0  0  0  0  0  0  0
    3.7320   -3.9050    0.0000 H   0  0  0  0  0  0  0  0  0  0  0  0
    2.0000   -2.2850    0.0000 H   0  0  0  0  0  0  0  0  0  0  0  0
    5.7456    1.7973    0.0000 H   0  0  0  0  0  0  0  0  0  0  0  0
    5.3471    2.4876    0.0000 H   0  0  0  0  0  0  0  0  0  0  0  0
    8.2700    0.7150    0.0000 H   0  0  0  0  0  0  0  0  0  0  0  0
    3.7320    0.7150    0.0000 H   0  0  0  0  0  0  0  0  0  0  0  0
    2.0000    0.7150    0.0000 H   0  0  0  0  0  0  0  0  0  0  0  0
    6.0010    3.0250    0.0000 H   0  0  0  0  0  0  0  0  0  0  0  0
    4.2690    3.0250    0.0000 H   0  0  0  0  0  0  0  0  0  0  0  0
  2 17  1  0  0  0  0
  2 18  1  0  0  0  0
  3 17  1  0  0  0  0
  3 19  1  0  0  0  0
  4 14  1  0  0  0  0
  4 38  1  0  0  0  0
  5 15  1  0  0  0  0
  5 37  1  0  0  0  0
  6 16  1  0  0  0  0
  6 39  1  0  0  0  0
  7 20  1  0  0  0  0
  7 42  1  0  0  0  0
  8 21  1  0  0  0  0
  8 43  1  0  0  0  0
  9 22  1  0  0  0  0
  9 44  1  0  0  0  0
 10 23  1  0  0  0  0
 10 45  1  0  0  0  0
 11 24  1  0  0  0  0
 11 46  1  0  0  0  0
 12 25  1  0  0  0  0
 13 25  2  0  0  0  0
 14 15  1  0  0  0  0
 14 16  1  0  0  0  0
 14 26  1  0  0  0  0
 15 17  1  0  0  0  0
 15 27  1  0  0  0  0
 16 18  1  0  0  0  0
 16 28  1  0  0  0  0
 17 29  1  0  0  0  0
 18 22  1  0  0  0  0
 18 30  1  0  0  0  0
 19 20  1  0  0  0  0
 19 21  1  0  0  0  0
 19 31  1  0  0  0  0
 20 23  1  0  0  0  0
 20 32  1  0  0  0  0
 21 24  1  0  0  0  0
 21 33  1  0  0  0  0
 22 34  1  0  0  0  0
 22 35  1  0  0  0  0
 23 25  1  0  0  0  0
 23 36  1  0  0  0  0
 24 40  1  0  0  0  0
 24 41  1  0  0  0  0
M  CHG  2   1   1  12  -1
M  END
> <PUBCHEM_COMPOUND_CID>
517381
> <PUBCHEM_COMPOUND_CANONICALIZED>
1
> <PUBCHEM_CACTVS_COMPLEXITY>
412
> <PUBCHEM_CACTVS_HBOND_ACCEPTOR>
12
> <PUBCHEM_CACTVS_HBOND_DONOR>
8
> <PUBCHEM_CACTVS_ROTATABLE_BOND>
8
> <PUBCHEM_CACTVS_SUBSKEYS>
AAADceBwPCAAAAAAAAAAAAAAAAAAAAAAAAAkAAAAAAAAAAAAAAAAGgAACAAACBSwgAMACAAABgAIAACQCAIAAAAAAAAAAAFAAAAREBYAAAAiQAAFIAAHAAHKbAxAAAAAAAAAAAAAAAAAAAAAAAAAAAAAAA==
> <PUBCHEM_IUPAC_OPENEYE_NAME>
sodium;2,3,5,6-tetrahydroxy-4-[3,4,5-trihydroxy-6-(hydroxymethyl)tetrahydropyran-2-yl]oxy-hexanoate
> <PUBCHEM_IUPAC_CAS_NAME>
sodium;2,3,5,6-tetrahydroxy-4-[[3,4,5-trihydroxy-6-(hydroxymethyl)-2-oxanyl]oxy]hexanoate
> <PUBCHEM_IUPAC_NAME_MARKUP>
sodium;2,3,5,6-tetrahydroxy-4-[3,4,5-trihydroxy-6-(hydroxymethyl)oxan-2-yl]oxyhexanoate
> <PUBCHEM_IUPAC_NAME>
sodium;2,3,5,6-tetrahydroxy-4-[3,4,5-trihydroxy-6-(hydroxymethyl)oxan-2-yl]oxyhexanoate
> <PUBCHEM_IUPAC_SYSTEMATIC_NAME>
sodium;4-[6-(hydroxymethyl)-3,4,5-tris(oxidanyl)oxan-2-yl]oxy-2,3,5,6-tetrakis(oxidanyl)hexanoate
> <PUBCHEM_IUPAC_TRADITIONAL_NAME>
sodium;2,3,5,6-tetrahydroxy-4-(3,4,5-trihydroxy-6-methylol-tetrahydropyran-2-yl)oxy-hexanoate
> <PUBCHEM_IUPAC_INCHI>
InChI=1S/C12H22O12.Na/c13-1-3(15)10(7(18)8(19)11(21)22)24-12-9(20)6(17)5(16)4(2-14)23-12;/h3-10,12-20H,1-2H2,(H,21,22);/q;+1/p-1
> <PUBCHEM_IUPAC_INCHIKEY>
AQKFVNLHZYOMKQ-UHFFFAOYSA-M
> <PUBCHEM_EXACT_MASS>
380.09307038
> <PUBCHEM_MOLECULAR_FORMULA>
C12H21NaO12
> <PUBCHEM_MOLECULAR_WEIGHT>
380.28
> <PUBCHEM_OPENEYE_CAN_SMILES>
C(C1C(C(C(C(O1)OC(C(CO)O)C(C(C(=O)[O-])O)O)O)O)O)O.[Na+]
> <PUBCHEM_OPENEYE_ISO_SMILES>
C(C1C(C(C(C(O1)OC(C(CO)O)C(C(C(=O)[O-])O)O)O)O)O)O.[Na+]
> <PUBCHEM_CACTVS_TPSA>
220
> <PUBCHEM_MONOISOTOPIC_WEIGHT>
380.09307038
> <PUBCHEM_TOTAL_CHARGE>
0
> <PUBCHEM_HEAVY_ATOM_COUNT>
25
> <PUBCHEM_ATOM_DEF_STEREO_COUNT>
0
> <PUBCHEM_ATOM_UDEF_STEREO_COUNT>
9
> <PUBCHEM_BOND_DEF_STEREO_COUNT>
0
> <PUBCHEM_BOND_UDEF_STEREO_COUNT>
0
> <PUBCHEM_ISOTOPIC_ATOM_COUNT>
0
> <PUBCHEM_COMPONENT_COUNT>
2
> <PUBCHEM_CACTVS_TAUTO_COUNT>
-1
> <PUBCHEM_NONSTANDARDBOND>
1  12  7
> <PUBCHEM_COORDINATE_TYPE>
1
5
255
> <PUBCHEM_BONDANNOTATIONS>
23  10  3
18  22  3
17  3  3
19  3  3
14  4  3
15  5  3
16  6  3
20  7  3
21  8  3
$$$$
