517323
  -OEChem-10302200292D
 48 51  0     1  0  0  0  0  0999 V2000
   10.9354    1.8309    0.0000 O   0  0  0  0  0  0  0  0  0  0  0  0
   12.5190    1.0262    0.0000 O   0  0  0  0  0  0  0  0  0  0  0  0
    3.7320   -1.0228    0.0000 O   0  0  0  0  0  0  0  0  0  0  0  0
    4.5923   -2.5262    0.0000 O   0  0  0  0  0  0  0  0  0  0  0  0
    9.9892    0.5262    0.0000 C   0  0  3  0  0  0  0  0  0  0  0  0
    9.1232    0.0262    0.0000 C   0  0  3  0  0  0  0  0  0  0  0  0
    9.9892    1.5262    0.0000 C   0  0  3  0  0  0  0  0  0  0  0  0
    8.2572    0.5262    0.0000 C   0  0  3  0  0  0  0  0  0  0  0  0
    9.1232    2.0262    0.0000 C   0  0  0  0  0  0  0  0  0  0  0  0
    8.2572    1.5262    0.0000 C   0  0  0  0  0  0  0  0  0  0  0  0
    9.1392   -1.0154    0.0000 C   0  0  0  0  0  0  0  0  0  0  0  0
   10.9354    0.2214    0.0000 C   0  0  0  0  0  0  0  0  0  0  0  0
    7.3472    0.0193    0.0000 C   0  0  0  0  0  0  0  0  0  0  0  0
    8.2412   -1.5431    0.0000 C   0  0  0  0  0  0  0  0  0  0  0  0
    9.9892    2.5262    0.0000 C   0  0  0  0  0  0  0  0  0  0  0  0
    7.3391   -1.0223    0.0000 C   0  0  0  0  0  0  0  0  0  0  0  0
   11.5190    1.0262    0.0000 C   0  0  0  0  0  0  0  0  0  0  0  0
    6.4203    0.5834    0.0000 C   0  0  0  0  0  0  0  0  0  0  0  0
    6.4037   -1.5720    0.0000 C   0  0  0  0  0  0  0  0  0  0  0  0
    5.4724    0.0555    0.0000 C   0  0  0  0  0  0  0  0  0  0  0  0
    5.4641   -1.0295    0.0000 C   0  0  0  0  0  0  0  0  0  0  0  0
    4.5961   -1.5262    0.0000 C   0  0  0  0  0  0  0  0  0  0  0  0
    2.8641   -1.5195    0.0000 C   0  0  0  0  0  0  0  0  0  0  0  0
    2.0000   -1.0162    0.0000 C   0  0  0  0  0  0  0  0  0  0  0  0
   10.0548   -0.0904    0.0000 H   0  0  0  0  0  0  0  0  0  0  0  0
    9.6625   -0.2797    0.0000 H   0  0  0  0  0  0  0  0  0  0  0  0
    8.7941    0.8362    0.0000 H   0  0  0  0  0  0  0  0  0  0  0  0
    9.5217    2.5011    0.0000 H   0  0  0  0  0  0  0  0  0  0  0  0
    8.7247    2.5011    0.0000 H   0  0  0  0  0  0  0  0  0  0  0  0
    8.0451    2.1088    0.0000 H   0  0  0  0  0  0  0  0  0  0  0  0
    7.6466    1.4185    0.0000 H   0  0  0  0  0  0  0  0  0  0  0  0
    9.3573   -1.5957    0.0000 H   0  0  0  0  0  0  0  0  0  0  0  0
    9.7484   -0.8998    0.0000 H   0  0  0  0  0  0  0  0  0  0  0  0
   10.6844   -0.3455    0.0000 H   0  0  0  0  0  0  0  0  0  0  0  0
   11.4728   -0.0878    0.0000 H   0  0  0  0  0  0  0  0  0  0  0  0
    7.8439   -2.0191    0.0000 H   0  0  0  0  0  0  0  0  0  0  0  0
    8.6422   -2.0160    0.0000 H   0  0  0  0  0  0  0  0  0  0  0  0
   10.6092    2.5262    0.0000 H   0  0  0  0  0  0  0  0  0  0  0  0
    9.9892    3.1462    0.0000 H   0  0  0  0  0  0  0  0  0  0  0  0
    9.3692    2.5262    0.0000 H   0  0  0  0  0  0  0  0  0  0  0  0
    6.4323    1.2033    0.0000 H   0  0  0  0  0  0  0  0  0  0  0  0
    6.4061   -2.1920    0.0000 H   0  0  0  0  0  0  0  0  0  0  0  0
    4.9391    0.3716    0.0000 H   0  0  0  0  0  0  0  0  0  0  0  0
    2.4637   -1.9929    0.0000 H   0  0  0  0  0  0  0  0  0  0  0  0
    3.2608   -1.9960    0.0000 H   0  0  0  0  0  0  0  0  0  0  0  0
    2.3121   -0.4804    0.0000 H   0  0  0  0  0  0  0  0  0  0  0  0
    1.4643   -0.7041    0.0000 H   0  0  0  0  0  0  0  0  0  0  0  0
    1.6879   -1.5519    0.0000 H   0  0  0  0  0  0  0  0  0  0  0  0
  1  7  1  0  0  0  0
  1 17  1  0  0  0  0
  2 17  2  0  0  0  0
  3 22  1  0  0  0  0
  3 23  1  0  0  0  0
  4 22  2  0  0  0  0
  5  6  1  0  0  0  0
  5  7  1  0  0  0  0
  5 12  1  0  0  0  0
  5 25  1  0  0  0  0
  6  8  1  0  0  0  0
  6 11  1  0  0  0  0
  6 26  1  0  0  0  0
  7  9  1  0  0  0  0
  7 15  1  0  0  0  0
  8 10  1  0  0  0  0
  8 13  1  0  0  0  0
  8 27  1  0  0  0  0
  9 10  1  0  0  0  0
  9 28  1  0  0  0  0
  9 29  1  0  0  0  0
 10 30  1  0  0  0  0
 10 31  1  0  0  0  0
 11 14  1  0  0  0  0
 11 32  1  0  0  0  0
 11 33  1  0  0  0  0
 12 17  1  0  0  0  0
 12 34  1  0  0  0  0
 12 35  1  0  0  0  0
 13 16  2  0  0  0  0
 13 18  1  0  0  0  0
 14 16  1  0  0  0  0
 14 36  1  0  0  0  0
 14 37  1  0  0  0  0
 15 38  1  0  0  0  0
 15 39  1  0  0  0  0
 15 40  1  0  0  0  0
 16 19  1  0  0  0  0
 18 20  2  0  0  0  0
 18 41  1  0  0  0  0
 19 21  2  0  0  0  0
 19 42  1  0  0  0  0
 20 21  1  0  0  0  0
 20 43  1  0  0  0  0
 21 22  1  0  0  0  0
 23 24  1  0  0  0  0
 23 44  1  0  0  0  0
 23 45  1  0  0  0  0
 24 46  1  0  0  0  0
 24 47  1  0  0  0  0
 24 48  1  0  0  0  0
M  END
> <PUBCHEM_COMPOUND_CID>
517323
> <PUBCHEM_COMPOUND_CANONICALIZED>
1
> <PUBCHEM_CACTVS_COMPLEXITY>
530
> <PUBCHEM_CACTVS_HBOND_ACCEPTOR>
4
> <PUBCHEM_CACTVS_HBOND_DONOR>
0
> <PUBCHEM_CACTVS_ROTATABLE_BOND>
3
> <PUBCHEM_CACTVS_SUBSKEYS>
AAADceB4OAAAAAAAAAAAAAAAAAAAASAAAAAwYMAAAAAAAEjBAAAAGgAAAAAADUSgmAIyCIAABACIAiDSCAACAAAkAAAIiAEACMgIJjKANRiCMQAkwAEIqYeKyPCOwAACAAAQAADAAAYAADAAAAAAAAAAAA==
> <PUBCHEM_IUPAC_OPENEYE_NAME>
ethyl 11a-methyl-2-oxo-3,3a,3b,4,5,9b,10,11-octahydronaphtho[2,1-e]benzofuran-7-carboxylate
> <PUBCHEM_IUPAC_CAS_NAME>
11a-methyl-2-oxo-3,3a,3b,4,5,9b,10,11-octahydronaphtho[2,1-e]benzofuran-7-carboxylic acid ethyl ester
> <PUBCHEM_IUPAC_NAME_MARKUP>
ethyl 11<I>a</I>-methyl-2-oxo-3,3<I>a</I>,3<I>b</I>,4,5,9<I>b</I>,10,11-octahydronaphtho[2,1-e][1]benzofuran-7-carboxylate
> <PUBCHEM_IUPAC_NAME>
ethyl 11a-methyl-2-oxo-3,3a,3b,4,5,9b,10,11-octahydronaphtho[2,1-e][1]benzofuran-7-carboxylate
> <PUBCHEM_IUPAC_SYSTEMATIC_NAME>
ethyl 11a-methyl-2-oxidanylidene-3,3a,3b,4,5,9b,10,11-octahydronaphtho[2,1-e][1]benzofuran-7-carboxylate
> <PUBCHEM_IUPAC_TRADITIONAL_NAME>
2-keto-11a-methyl-3,3a,3b,4,5,9b,10,11-octahydronaphtho[2,1-e]benzofuran-7-carboxylic acid ethyl ester
> <PUBCHEM_IUPAC_INCHI>
InChI=1S/C20H24O4/c1-3-23-19(22)13-5-6-14-12(10-13)4-7-16-15(14)8-9-20(2)17(16)11-18(21)24-20/h5-6,10,15-17H,3-4,7-9,11H2,1-2H3
> <PUBCHEM_IUPAC_INCHIKEY>
ISAOGXCREJVTNK-UHFFFAOYSA-N
> <PUBCHEM_XLOGP3_AA>
3.6
> <PUBCHEM_EXACT_MASS>
328.16745924
> <PUBCHEM_MOLECULAR_FORMULA>
C20H24O4
> <PUBCHEM_MOLECULAR_WEIGHT>
328.4
> <PUBCHEM_OPENEYE_CAN_SMILES>
CCOC(=O)C1=CC2=C(C=C1)C3CCC4(C(C3CC2)CC(=O)O4)C
> <PUBCHEM_OPENEYE_ISO_SMILES>
CCOC(=O)C1=CC2=C(C=C1)C3CCC4(C(C3CC2)CC(=O)O4)C
> <PUBCHEM_CACTVS_TPSA>
52.6
> <PUBCHEM_MONOISOTOPIC_WEIGHT>
328.16745924
> <PUBCHEM_TOTAL_CHARGE>
0
> <PUBCHEM_HEAVY_ATOM_COUNT>
24
> <PUBCHEM_ATOM_DEF_STEREO_COUNT>
0
> <PUBCHEM_ATOM_UDEF_STEREO_COUNT>
4
> <PUBCHEM_BOND_DEF_STEREO_COUNT>
0
> <PUBCHEM_BOND_UDEF_STEREO_COUNT>
0
> <PUBCHEM_ISOTOPIC_ATOM_COUNT>
0
> <PUBCHEM_COMPONENT_COUNT>
1
> <PUBCHEM_CACTVS_TAUTO_COUNT>
-1
> <PUBCHEM_COORDINATE_TYPE>
1
5
255
> <PUBCHEM_BONDANNOTATIONS>
13  16  8
13  18  8
16  19  8
18  20  8
19  21  8
20  21  8
5  12  3
6  11  3
7  15  3
8  10  3
$$$$
