517301
  -OEChem-10302200292D
 46 46  0     1  0  0  0  0  0999 V2000
    0.0000    3.8775    0.0000 Cl  0  5  0  0  0  0  0  0  0  0  0  0
    6.1350    1.7540    0.0000 O   0  0  0  0  0  0  0  0  0  0  0  0
    5.6718    7.7550    0.0000 O   0  0  0  0  0  0  0  0  0  0  0  0
    7.3671    2.6200    0.0000 N   0  3  0  0  0  0  0  0  0  0  0  0
    6.5010    3.1200    0.0000 C   0  0  3  0  0  0  0  0  0  0  0  0
    6.5010    4.1200    0.0000 C   0  0  0  0  0  0  0  0  0  0  0  0
    5.6350    2.6200    0.0000 C   0  0  0  0  0  0  0  0  0  0  0  0
    8.2331    3.1200    0.0000 C   0  0  0  0  0  0  0  0  0  0  0  0
    7.3671    4.6200    0.0000 C   0  0  0  0  0  0  0  0  0  0  0  0
    8.2331    4.1200    0.0000 C   0  0  0  0  0  0  0  0  0  0  0  0
    4.7690    2.1200    0.0000 C   0  0  0  0  0  0  0  0  0  0  0  0
    5.1350    3.4860    0.0000 C   0  0  0  0  0  0  0  0  0  0  0  0
    3.9030    2.6200    0.0000 C   0  0  0  0  0  0  0  0  0  0  0  0
    4.1350    3.4860    0.0000 C   0  0  0  0  0  0  0  0  0  0  0  0
    4.7690    1.1200    0.0000 C   0  0  0  0  0  0  0  0  0  0  0  0
    5.6350    4.3520    0.0000 C   0  0  0  0  0  0  0  0  0  0  0  0
    3.0369    2.1200    0.0000 C   0  0  0  0  0  0  0  0  0  0  0  0
    3.6350    4.3520    0.0000 C   0  0  0  0  0  0  0  0  0  0  0  0
    3.9030    0.6200    0.0000 C   0  0  0  0  0  0  0  0  0  0  0  0
    5.1350    5.2181    0.0000 C   0  0  0  0  0  0  0  0  0  0  0  0
    3.0369    1.1200    0.0000 C   0  0  0  0  0  0  0  0  0  0  0  0
    4.1350    5.2181    0.0000 C   0  0  0  0  0  0  0  0  0  0  0  0
    6.5010    2.5000    0.0000 H   0  0  0  0  0  0  0  0  0  0  0  0
    7.6771    2.0831    0.0000 H   0  0  0  0  0  0  0  0  0  0  0  0
    7.0571    2.0831    0.0000 H   0  0  0  0  0  0  0  0  0  0  0  0
    6.2890    4.7026    0.0000 H   0  0  0  0  0  0  0  0  0  0  0  0
    5.8905    4.0123    0.0000 H   0  0  0  0  0  0  0  0  0  0  0  0
    8.4451    2.5374    0.0000 H   0  0  0  0  0  0  0  0  0  0  0  0
    8.8437    3.2277    0.0000 H   0  0  0  0  0  0  0  0  0  0  0  0
    7.7656    5.0950    0.0000 H   0  0  0  0  0  0  0  0  0  0  0  0
    6.9685    5.0950    0.0000 H   0  0  0  0  0  0  0  0  0  0  0  0
    8.8437    4.0123    0.0000 H   0  0  0  0  0  0  0  0  0  0  0  0
    8.4451    4.7026    0.0000 H   0  0  0  0  0  0  0  0  0  0  0  0
    5.8250    1.2170    0.0000 H   0  0  0  0  0  0  0  0  0  0  0  0
    3.9030    3.2400    0.0000 H   0  0  0  0  0  0  0  0  0  0  0  0
    3.8250    2.9491    0.0000 H   0  0  0  0  0  0  0  0  0  0  0  0
    5.3059    0.8100    0.0000 H   0  0  0  0  0  0  0  0  0  0  0  0
    6.2550    4.3520    0.0000 H   0  0  0  0  0  0  0  0  0  0  0  0
    2.5000    2.4300    0.0000 H   0  0  0  0  0  0  0  0  0  0  0  0
    3.0150    4.3520    0.0000 H   0  0  0  0  0  0  0  0  0  0  0  0
    3.9030    0.0000    0.0000 H   0  0  0  0  0  0  0  0  0  0  0  0
    5.4450    5.7550    0.0000 H   0  0  0  0  0  0  0  0  0  0  0  0
    2.5000    0.8100    0.0000 H   0  0  0  0  0  0  0  0  0  0  0  0
    3.8250    5.7550    0.0000 H   0  0  0  0  0  0  0  0  0  0  0  0
    6.2088    8.0650    0.0000 H   0  0  0  0  0  0  0  0  0  0  0  0
    5.1349    8.0650    0.0000 H   0  0  0  0  0  0  0  0  0  0  0  0
  2  7  1  0  0  0  0
  2 34  1  0  0  0  0
  3 45  1  0  0  0  0
  3 46  1  0  0  0  0
  4  5  1  0  0  0  0
  4  8  1  0  0  0  0
  4 24  1  0  0  0  0
  4 25  1  0  0  0  0
  5  6  1  0  0  0  0
  5  7  1  0  0  0  0
  5 23  1  0  0  0  0
  6  9  1  0  0  0  0
  6 26  1  0  0  0  0
  6 27  1  0  0  0  0
  7 11  1  0  0  0  0
  7 12  1  0  0  0  0
  8 10  1  0  0  0  0
  8 28  1  0  0  0  0
  8 29  1  0  0  0  0
  9 10  1  0  0  0  0
  9 30  1  0  0  0  0
  9 31  1  0  0  0  0
 10 32  1  0  0  0  0
 10 33  1  0  0  0  0
 11 13  2  0  0  0  0
 11 15  1  0  0  0  0
 12 14  2  0  0  0  0
 12 16  1  0  0  0  0
 13 17  1  0  0  0  0
 13 35  1  0  0  0  0
 14 18  1  0  0  0  0
 14 36  1  0  0  0  0
 15 19  2  0  0  0  0
 15 37  1  0  0  0  0
 16 20  2  0  0  0  0
 16 38  1  0  0  0  0
 17 21  2  0  0  0  0
 17 39  1  0  0  0  0
 18 22  2  0  0  0  0
 18 40  1  0  0  0  0
 19 21  1  0  0  0  0
 19 41  1  0  0  0  0
 20 22  1  0  0  0  0
 20 42  1  0  0  0  0
 21 43  1  0  0  0  0
 22 44  1  0  0  0  0
M  CHG  2   1  -1   4   1
M  END
> <PUBCHEM_COMPOUND_CID>
517301
> <PUBCHEM_COMPOUND_CANONICALIZED>
1
> <PUBCHEM_CACTVS_COMPLEXITY>
274
> <PUBCHEM_CACTVS_HBOND_ACCEPTOR>
3
> <PUBCHEM_CACTVS_HBOND_DONOR>
3
> <PUBCHEM_CACTVS_ROTATABLE_BOND>
3
> <PUBCHEM_CACTVS_SUBSKEYS>
AAADceB6MAAEAAAAAAAAAAAAAAAAAAAAAAA8YIAAAAAAAAABQAAAHgAQCAAADGzBmAQwAILAAgCAAiBCAAACAAAgAAAIiIAICIgKJiKAkRGEcAAk0AGYmAeQwOAOgAAAAAAAAAAAAAAAAAAAAAAAAAAAAA==
> <PUBCHEM_IUPAC_OPENEYE_NAME>
diphenyl(piperidin-1-ium-2-yl)methanol;chloride;hydrate
> <PUBCHEM_IUPAC_CAS_NAME>
diphenyl(2-piperidin-1-iumyl)methanol;chloride;hydrate
> <PUBCHEM_IUPAC_NAME_MARKUP>
diphenyl(piperidin-1-ium-2-yl)methanol;chloride;hydrate
> <PUBCHEM_IUPAC_NAME>
diphenyl(piperidin-1-ium-2-yl)methanol;chloride;hydrate
> <PUBCHEM_IUPAC_SYSTEMATIC_NAME>
diphenyl(piperidin-1-ium-2-yl)methanol;chloride;hydrate
> <PUBCHEM_IUPAC_TRADITIONAL_NAME>
diphenyl(piperidin-1-ium-2-yl)methanol;chloride;hydrate
> <PUBCHEM_IUPAC_INCHI>
InChI=1S/C18H21NO.ClH.H2O/c20-18(15-9-3-1-4-10-15,16-11-5-2-6-12-16)17-13-7-8-14-19-17;;/h1-6,9-12,17,19-20H,7-8,13-14H2;1H;1H2
> <PUBCHEM_IUPAC_INCHIKEY>
XQSMUOVQUGHUCC-UHFFFAOYSA-N
> <PUBCHEM_EXACT_MASS>
321.1495567
> <PUBCHEM_MOLECULAR_FORMULA>
C18H24ClNO2
> <PUBCHEM_MOLECULAR_WEIGHT>
321.8
> <PUBCHEM_OPENEYE_CAN_SMILES>
C1CC[NH2+]C(C1)C(C2=CC=CC=C2)(C3=CC=CC=C3)O.O.[Cl-]
> <PUBCHEM_OPENEYE_ISO_SMILES>
C1CC[NH2+]C(C1)C(C2=CC=CC=C2)(C3=CC=CC=C3)O.O.[Cl-]
> <PUBCHEM_CACTVS_TPSA>
37.8
> <PUBCHEM_MONOISOTOPIC_WEIGHT>
321.1495567
> <PUBCHEM_TOTAL_CHARGE>
0
> <PUBCHEM_HEAVY_ATOM_COUNT>
22
> <PUBCHEM_ATOM_DEF_STEREO_COUNT>
0
> <PUBCHEM_ATOM_UDEF_STEREO_COUNT>
1
> <PUBCHEM_BOND_DEF_STEREO_COUNT>
0
> <PUBCHEM_BOND_UDEF_STEREO_COUNT>
0
> <PUBCHEM_ISOTOPIC_ATOM_COUNT>
0
> <PUBCHEM_COMPONENT_COUNT>
3
> <PUBCHEM_CACTVS_TAUTO_COUNT>
-1
> <PUBCHEM_COORDINATE_TYPE>
1
5
255
> <PUBCHEM_BONDANNOTATIONS>
11  13  8
11  15  8
12  14  8
12  16  8
13  17  8
14  18  8
15  19  8
16  20  8
17  21  8
18  22  8
19  21  8
20  22  8
5  7  3
$$$$
