517482
  -OEChem-10302200292D
 21 20  0     1  0  0  0  0  0999 V2000
    5.1350    1.4050    0.0000 O   0  5  0  0  0  0  0  0  0  0  0  0
    4.2690    2.9050    0.0000 O   0  0  0  0  0  0  0  0  0  0  0  0
    3.4030   -1.5950    0.0000 O   0  0  0  0  0  0  0  0  0  0  0  0
    5.1350   -2.5950    0.0000 O   0  0  0  0  0  0  0  0  0  0  0  0
    2.5369    1.9050    0.0000 N   0  3  0  0  0  0  0  0  0  0  0  0
    5.1350   -1.5950    0.0000 N   0  0  0  0  0  0  0  0  0  0  0  0
    3.4030    1.4050    0.0000 C   0  0  3  0  0  0  0  0  0  0  0  0
    3.4030    0.4050    0.0000 C   0  0  0  0  0  0  0  0  0  0  0  0
    4.2690   -0.0950    0.0000 C   0  0  0  0  0  0  0  0  0  0  0  0
    4.2690    1.9050    0.0000 C   0  0  0  0  0  0  0  0  0  0  0  0
    4.2690   -1.0950    0.0000 C   0  0  0  0  0  0  0  0  0  0  0  0
    3.4030    2.0250    0.0000 H   0  0  0  0  0  0  0  0  0  0  0  0
    2.7924    0.5127    0.0000 H   0  0  0  0  0  0  0  0  0  0  0  0
    3.1909   -0.1776    0.0000 H   0  0  0  0  0  0  0  0  0  0  0  0
    4.8796   -0.2027    0.0000 H   0  0  0  0  0  0  0  0  0  0  0  0
    4.4810    0.4876    0.0000 H   0  0  0  0  0  0  0  0  0  0  0  0
    2.0000    2.2150    0.0000 H   0  0  0  0  0  0  0  0  0  0  0  0
    2.2269    1.3681    0.0000 H   0  0  0  0  0  0  0  0  0  0  0  0
    2.8469    2.4419    0.0000 H   0  0  0  0  0  0  0  0  0  0  0  0
    5.6720   -1.2850    0.0000 H   0  0  0  0  0  0  0  0  0  0  0  0
    5.6720   -2.9050    0.0000 H   0  0  0  0  0  0  0  0  0  0  0  0
  1 10  1  0  0  0  0
  2 10  2  0  0  0  0
  3 11  2  0  0  0  0
  4  6  1  0  0  0  0
  4 21  1  0  0  0  0
  5  7  1  0  0  0  0
  5 17  1  0  0  0  0
  5 18  1  0  0  0  0
  5 19  1  0  0  0  0
  6 11  1  0  0  0  0
  6 20  1  0  0  0  0
  7  8  1  0  0  0  0
  7 10  1  0  0  0  0
  7 12  1  0  0  0  0
  8  9  1  0  0  0  0
  8 13  1  0  0  0  0
  8 14  1  0  0  0  0
  9 11  1  0  0  0  0
  9 15  1  0  0  0  0
  9 16  1  0  0  0  0
M  CHG  2   1  -1   5   1
M  END
> <PUBCHEM_COMPOUND_CID>
517482
> <PUBCHEM_COMPOUND_CANONICALIZED>
1
> <PUBCHEM_CACTVS_COMPLEXITY>
153
> <PUBCHEM_CACTVS_HBOND_ACCEPTOR>
4
> <PUBCHEM_CACTVS_HBOND_DONOR>
3
> <PUBCHEM_CACTVS_ROTATABLE_BOND>
3
> <PUBCHEM_CACTVS_SUBSKEYS>
AAADccBjOAAAAAAAAAAAAAAAAAAAAAAAAAAAAAAAAAAAAAAAAAAAHgAUCAAACCjBgAQACABQAAAIAAGQGAAAAAAAAAAgAIGAAAACABIAgAAAAAAEEAAAAACcFwAAAAAAAAAAAAAAAAAAAAAAAAAAAAAAAA==
> <PUBCHEM_IUPAC_OPENEYE_NAME>
2-azaniumyl-5-(hydroxyamino)-5-oxo-pentanoate
> <PUBCHEM_IUPAC_CAS_NAME>
2-ammonio-5-(hydroxyamino)-5-oxopentanoate
> <PUBCHEM_IUPAC_NAME_MARKUP>
2-azaniumyl-5-(hydroxyamino)-5-oxopentanoate
> <PUBCHEM_IUPAC_NAME>
2-azaniumyl-5-(hydroxyamino)-5-oxopentanoate
> <PUBCHEM_IUPAC_SYSTEMATIC_NAME>
2-azaniumyl-5-(oxidanylamino)-5-oxidanylidene-pentanoate
> <PUBCHEM_IUPAC_TRADITIONAL_NAME>
2-ammonio-5-(hydroxyamino)-5-keto-valerate
> <PUBCHEM_IUPAC_INCHI>
InChI=1S/C5H10N2O4/c6-3(5(9)10)1-2-4(8)7-11/h3,11H,1-2,6H2,(H,7,8)(H,9,10)
> <PUBCHEM_IUPAC_INCHIKEY>
YVGZXTQJQNXIAU-UHFFFAOYSA-N
> <PUBCHEM_XLOGP3_AA>
-3.6
> <PUBCHEM_EXACT_MASS>
162.06405680
> <PUBCHEM_MOLECULAR_FORMULA>
C5H10N2O4
> <PUBCHEM_MOLECULAR_WEIGHT>
162.14
> <PUBCHEM_OPENEYE_CAN_SMILES>
C(CC(=O)NO)C(C(=O)[O-])[NH3+]
> <PUBCHEM_OPENEYE_ISO_SMILES>
C(CC(=O)NO)C(C(=O)[O-])[NH3+]
> <PUBCHEM_CACTVS_TPSA>
117
> <PUBCHEM_MONOISOTOPIC_WEIGHT>
162.06405680
> <PUBCHEM_TOTAL_CHARGE>
0
> <PUBCHEM_HEAVY_ATOM_COUNT>
11
> <PUBCHEM_ATOM_DEF_STEREO_COUNT>
0
> <PUBCHEM_ATOM_UDEF_STEREO_COUNT>
1
> <PUBCHEM_BOND_DEF_STEREO_COUNT>
0
> <PUBCHEM_BOND_UDEF_STEREO_COUNT>
0
> <PUBCHEM_ISOTOPIC_ATOM_COUNT>
0
> <PUBCHEM_COMPONENT_COUNT>
1
> <PUBCHEM_CACTVS_TAUTO_COUNT>
-1
> <PUBCHEM_COORDINATE_TYPE>
1
5
255
> <PUBCHEM_BONDANNOTATIONS>
7  5  3
$$$$
