517406
  -OEChem-10302200292D
 44 44  0     1  0  0  0  0  0999 V2000
    4.6171    0.0000    0.0000 Cl  0  5  0  0  0  0  0  0  0  0  0  0
    2.2690    6.6200    0.0000 O   0  0  0  0  0  0  0  0  0  0  0  0
    5.7331    7.6200    0.0000 O   0  0  0  0  0  0  0  0  0  0  0  0
    1.4030    8.1200    0.0000 O   0  0  0  0  0  0  0  0  0  0  0  0
    4.8671    9.1200    0.0000 O   0  0  0  0  0  0  0  0  0  0  0  0
    3.1350    9.1200    0.0000 N   0  3  0  0  0  0  0  0  0  0  0  0
    3.1350    8.1200    0.0000 C   0  0  3  0  0  0  0  0  0  0  0  0
    4.0010    7.6200    0.0000 C   0  0  0  0  0  0  0  0  0  0  0  0
    2.2690    7.6200    0.0000 C   0  0  0  0  0  0  0  0  0  0  0  0
    4.8671    8.1200    0.0000 C   0  0  0  0  0  0  0  0  0  0  0  0
    1.4030    6.1200    0.0000 C   0  0  0  0  0  0  0  0  0  0  0  0
    6.5991    8.1200    0.0000 C   0  0  0  0  0  0  0  0  0  0  0  0
    1.4030    5.1200    0.0000 C   0  0  0  0  0  0  0  0  0  0  0  0
    7.4651    7.6200    0.0000 C   0  0  0  0  0  0  0  0  0  0  0  0
    0.5369    4.6200    0.0000 C   0  0  0  0  0  0  0  0  0  0  0  0
    2.2690    4.6200    0.0000 C   0  0  0  0  0  0  0  0  0  0  0  0
    7.4651    6.6200    0.0000 C   0  0  0  0  0  0  0  0  0  0  0  0
    8.3312    8.1200    0.0000 C   0  0  0  0  0  0  0  0  0  0  0  0
    0.5369    3.6200    0.0000 C   0  0  0  0  0  0  0  0  0  0  0  0
    2.2690    3.6200    0.0000 C   0  0  0  0  0  0  0  0  0  0  0  0
    8.3312    6.1200    0.0000 C   0  0  0  0  0  0  0  0  0  0  0  0
    9.1972    7.6200    0.0000 C   0  0  0  0  0  0  0  0  0  0  0  0
    1.4030    3.1200    0.0000 C   0  0  0  0  0  0  0  0  0  0  0  0
    9.1972    6.6200    0.0000 C   0  0  0  0  0  0  0  0  0  0  0  0
    3.6720    8.4300    0.0000 H   0  0  0  0  0  0  0  0  0  0  0  0
    3.6025    7.1450    0.0000 H   0  0  0  0  0  0  0  0  0  0  0  0
    4.3996    7.1450    0.0000 H   0  0  0  0  0  0  0  0  0  0  0  0
    3.1350    9.7400    0.0000 H   0  0  0  0  0  0  0  0  0  0  0  0
    3.7550    9.1200    0.0000 H   0  0  0  0  0  0  0  0  0  0  0  0
    2.5150    9.1200    0.0000 H   0  0  0  0  0  0  0  0  0  0  0  0
    1.1909    6.7026    0.0000 H   0  0  0  0  0  0  0  0  0  0  0  0
    0.7924    6.0123    0.0000 H   0  0  0  0  0  0  0  0  0  0  0  0
    6.9976    8.5950    0.0000 H   0  0  0  0  0  0  0  0  0  0  0  0
    6.2006    8.5950    0.0000 H   0  0  0  0  0  0  0  0  0  0  0  0
    0.0000    4.9300    0.0000 H   0  0  0  0  0  0  0  0  0  0  0  0
    2.8059    4.9300    0.0000 H   0  0  0  0  0  0  0  0  0  0  0  0
    6.9282    6.3100    0.0000 H   0  0  0  0  0  0  0  0  0  0  0  0
    8.3312    8.7400    0.0000 H   0  0  0  0  0  0  0  0  0  0  0  0
    0.0000    3.3100    0.0000 H   0  0  0  0  0  0  0  0  0  0  0  0
    2.8059    3.3100    0.0000 H   0  0  0  0  0  0  0  0  0  0  0  0
    8.3312    5.5000    0.0000 H   0  0  0  0  0  0  0  0  0  0  0  0
    9.7341    7.9300    0.0000 H   0  0  0  0  0  0  0  0  0  0  0  0
    1.4030    2.5000    0.0000 H   0  0  0  0  0  0  0  0  0  0  0  0
    9.7341    6.3100    0.0000 H   0  0  0  0  0  0  0  0  0  0  0  0
  2  9  1  0  0  0  0
  2 11  1  0  0  0  0
  3 10  1  0  0  0  0
  3 12  1  0  0  0  0
  4  9  2  0  0  0  0
  5 10  2  0  0  0  0
  6  7  1  0  0  0  0
  6 28  1  0  0  0  0
  6 29  1  0  0  0  0
  6 30  1  0  0  0  0
  7  8  1  0  0  0  0
  7  9  1  0  0  0  0
  7 25  1  0  0  0  0
  8 10  1  0  0  0  0
  8 26  1  0  0  0  0
  8 27  1  0  0  0  0
 11 13  1  0  0  0  0
 11 31  1  0  0  0  0
 11 32  1  0  0  0  0
 12 14  1  0  0  0  0
 12 33  1  0  0  0  0
 12 34  1  0  0  0  0
 13 15  2  0  0  0  0
 13 16  1  0  0  0  0
 14 17  2  0  0  0  0
 14 18  1  0  0  0  0
 15 19  1  0  0  0  0
 15 35  1  0  0  0  0
 16 20  2  0  0  0  0
 16 36  1  0  0  0  0
 17 21  1  0  0  0  0
 17 37  1  0  0  0  0
 18 22  2  0  0  0  0
 18 38  1  0  0  0  0
 19 23  2  0  0  0  0
 19 39  1  0  0  0  0
 20 23  1  0  0  0  0
 20 40  1  0  0  0  0
 21 24  2  0  0  0  0
 21 41  1  0  0  0  0
 22 24  1  0  0  0  0
 22 42  1  0  0  0  0
 23 43  1  0  0  0  0
 24 44  1  0  0  0  0
M  CHG  2   1  -1   6   1
M  END
> <PUBCHEM_COMPOUND_CID>
517406
> <PUBCHEM_COMPOUND_CANONICALIZED>
1
> <PUBCHEM_CACTVS_COMPLEXITY>
373
> <PUBCHEM_CACTVS_HBOND_ACCEPTOR>
5
> <PUBCHEM_CACTVS_HBOND_DONOR>
1
> <PUBCHEM_CACTVS_ROTATABLE_BOND>
9
> <PUBCHEM_CACTVS_SUBSKEYS>
AAADceB6OAAEAAAAAAAAAAAAAAAAAAAAAAAwYAAAAAAAAAABQAAAHgAQAAAADCjhmAYwCIBABACIAiDSCAACAAAgAAAIiIGACIgKJjqAMRiDMAAm0AEIqAfDwCAOAAAAAAAAAAAAAAAAAAAAAAAAAAAAAA==
> <PUBCHEM_IUPAC_OPENEYE_NAME>
(3-benzyloxy-1-benzyloxycarbonyl-3-oxo-propyl)ammonium;chloride
> <PUBCHEM_IUPAC_CAS_NAME>
[1,4-dioxo-1,4-bis(phenylmethoxy)butan-2-yl]ammonium;chloride
> <PUBCHEM_IUPAC_NAME_MARKUP>
[1,4-dioxo-1,4-bis(phenylmethoxy)butan-2-yl]azanium;chloride
> <PUBCHEM_IUPAC_NAME>
[1,4-dioxo-1,4-bis(phenylmethoxy)butan-2-yl]azanium;chloride
> <PUBCHEM_IUPAC_SYSTEMATIC_NAME>
[1,4-bis(oxidanylidene)-1,4-bis(phenylmethoxy)butan-2-yl]azanium;chloride
> <PUBCHEM_IUPAC_TRADITIONAL_NAME>
(3-benzoxy-1-carbobenzoxy-3-keto-propyl)ammonium;chloride
> <PUBCHEM_IUPAC_INCHI>
InChI=1S/C18H19NO4.ClH/c19-16(18(21)23-13-15-9-5-2-6-10-15)11-17(20)22-12-14-7-3-1-4-8-14;/h1-10,16H,11-13,19H2;1H
> <PUBCHEM_IUPAC_INCHIKEY>
ILBZEWOOBCRRAP-UHFFFAOYSA-N
> <PUBCHEM_EXACT_MASS>
349.1080858
> <PUBCHEM_MOLECULAR_FORMULA>
C18H20ClNO4
> <PUBCHEM_MOLECULAR_WEIGHT>
349.8
> <PUBCHEM_OPENEYE_CAN_SMILES>
C1=CC=C(C=C1)COC(=O)CC(C(=O)OCC2=CC=CC=C2)[NH3+].[Cl-]
> <PUBCHEM_OPENEYE_ISO_SMILES>
C1=CC=C(C=C1)COC(=O)CC(C(=O)OCC2=CC=CC=C2)[NH3+].[Cl-]
> <PUBCHEM_CACTVS_TPSA>
80.2
> <PUBCHEM_MONOISOTOPIC_WEIGHT>
349.1080858
> <PUBCHEM_TOTAL_CHARGE>
0
> <PUBCHEM_HEAVY_ATOM_COUNT>
24
> <PUBCHEM_ATOM_DEF_STEREO_COUNT>
0
> <PUBCHEM_ATOM_UDEF_STEREO_COUNT>
1
> <PUBCHEM_BOND_DEF_STEREO_COUNT>
0
> <PUBCHEM_BOND_UDEF_STEREO_COUNT>
0
> <PUBCHEM_ISOTOPIC_ATOM_COUNT>
0
> <PUBCHEM_COMPONENT_COUNT>
2
> <PUBCHEM_CACTVS_TAUTO_COUNT>
-1
> <PUBCHEM_COORDINATE_TYPE>
1
5
255
> <PUBCHEM_BONDANNOTATIONS>
13  15  8
13  16  8
14  17  8
14  18  8
15  19  8
16  20  8
17  21  8
18  22  8
19  23  8
20  23  8
21  24  8
22  24  8
7  6  3
$$$$
