517472
  -OEChem-10302200292D
 47 47  0     1  0  0  0  0  0999 V2000
    4.5981    0.7500    0.0000 S   0  0  0  0  0  0  0  0  0  0  0  0
    6.3301    0.7500    0.0000 O   0  0  0  0  0  0  0  0  0  0  0  0
    7.1962   -0.7500    0.0000 O   0  0  0  0  0  0  0  0  0  0  0  0
    2.8660    3.7500    0.0000 O   0  0  0  0  0  0  0  0  0  0  0  0
    3.7320   -1.7500    0.0000 O   0  0  0  0  0  0  0  0  0  0  0  0
    2.0000    2.2500    0.0000 O   0  0  0  0  0  0  0  0  0  0  0  0
    5.4641   -1.7500    0.0000 N   0  0  0  0  0  0  0  0  0  0  0  0
    5.4641   -0.7500    0.0000 C   0  0  3  0  0  0  0  0  0  0  0  0
    4.5981   -0.2500    0.0000 C   0  0  0  0  0  0  0  0  0  0  0  0
    6.3301   -0.2500    0.0000 C   0  0  0  0  0  0  0  0  0  0  0  0
    3.7320    1.2500    0.0000 C   0  0  0  0  0  0  0  0  0  0  0  0
    3.7320    2.2500    0.0000 C   0  0  0  0  0  0  0  0  0  0  0  0
    4.5981   -2.2500    0.0000 C   0  0  0  0  0  0  0  0  0  0  0  0
    4.5981   -3.2500    0.0000 C   0  0  0  0  0  0  0  0  0  0  0  0
    2.8660    2.7500    0.0000 C   0  0  0  0  0  0  0  0  0  0  0  0
    7.1962    1.2500    0.0000 C   0  0  0  0  0  0  0  0  0  0  0  0
    5.4641   -3.7500    0.0000 C   0  0  0  0  0  0  0  0  0  0  0  0
    3.7320   -3.7500    0.0000 C   0  0  0  0  0  0  0  0  0  0  0  0
    5.4641   -4.7500    0.0000 C   0  0  0  0  0  0  0  0  0  0  0  0
    3.7320   -4.7500    0.0000 C   0  0  0  0  0  0  0  0  0  0  0  0
    7.1962    2.2500    0.0000 C   0  0  0  0  0  0  0  0  0  0  0  0
    4.5981   -5.2500    0.0000 C   0  0  0  0  0  0  0  0  0  0  0  0
    2.0000    4.2500    0.0000 C   0  0  0  0  0  0  0  0  0  0  0  0
    2.0000    5.2500    0.0000 C   0  0  0  0  0  0  0  0  0  0  0  0
    6.0010   -1.0600    0.0000 H   0  0  0  0  0  0  0  0  0  0  0  0
    3.9875   -0.1423    0.0000 H   0  0  0  0  0  0  0  0  0  0  0  0
    4.3860   -0.8326    0.0000 H   0  0  0  0  0  0  0  0  0  0  0  0
    6.0010   -2.0600    0.0000 H   0  0  0  0  0  0  0  0  0  0  0  0
    3.1215    1.3577    0.0000 H   0  0  0  0  0  0  0  0  0  0  0  0
    3.5200    0.6674    0.0000 H   0  0  0  0  0  0  0  0  0  0  0  0
    4.3426    2.1423    0.0000 H   0  0  0  0  0  0  0  0  0  0  0  0
    3.9441    2.8326    0.0000 H   0  0  0  0  0  0  0  0  0  0  0  0
    7.4082    0.6674    0.0000 H   0  0  0  0  0  0  0  0  0  0  0  0
    7.8067    1.3577    0.0000 H   0  0  0  0  0  0  0  0  0  0  0  0
    6.0010   -3.4400    0.0000 H   0  0  0  0  0  0  0  0  0  0  0  0
    3.1951   -3.4400    0.0000 H   0  0  0  0  0  0  0  0  0  0  0  0
    6.0010   -5.0600    0.0000 H   0  0  0  0  0  0  0  0  0  0  0  0
    3.1951   -5.0600    0.0000 H   0  0  0  0  0  0  0  0  0  0  0  0
    7.8162    2.2500    0.0000 H   0  0  0  0  0  0  0  0  0  0  0  0
    7.1962    2.8700    0.0000 H   0  0  0  0  0  0  0  0  0  0  0  0
    6.5762    2.2500    0.0000 H   0  0  0  0  0  0  0  0  0  0  0  0
    4.5981   -5.8700    0.0000 H   0  0  0  0  0  0  0  0  0  0  0  0
    1.3894    4.3577    0.0000 H   0  0  0  0  0  0  0  0  0  0  0  0
    1.7880    3.6674    0.0000 H   0  0  0  0  0  0  0  0  0  0  0  0
    2.6200    5.2500    0.0000 H   0  0  0  0  0  0  0  0  0  0  0  0
    2.0000    5.8700    0.0000 H   0  0  0  0  0  0  0  0  0  0  0  0
    1.3800    5.2500    0.0000 H   0  0  0  0  0  0  0  0  0  0  0  0
  1  9  1  0  0  0  0
  1 11  1  0  0  0  0
  2 10  1  0  0  0  0
  2 16  1  0  0  0  0
  3 10  2  0  0  0  0
  4 15  1  0  0  0  0
  4 23  1  0  0  0  0
  5 13  2  0  0  0  0
  6 15  2  0  0  0  0
  7  8  1  0  0  0  0
  7 13  1  0  0  0  0
  7 28  1  0  0  0  0
  8  9  1  0  0  0  0
  8 10  1  0  0  0  0
  8 25  1  0  0  0  0
  9 26  1  0  0  0  0
  9 27  1  0  0  0  0
 11 12  1  0  0  0  0
 11 29  1  0  0  0  0
 11 30  1  0  0  0  0
 12 15  1  0  0  0  0
 12 31  1  0  0  0  0
 12 32  1  0  0  0  0
 13 14  1  0  0  0  0
 14 17  2  0  0  0  0
 14 18  1  0  0  0  0
 16 21  1  0  0  0  0
 16 33  1  0  0  0  0
 16 34  1  0  0  0  0
 17 19  1  0  0  0  0
 17 35  1  0  0  0  0
 18 20  2  0  0  0  0
 18 36  1  0  0  0  0
 19 22  2  0  0  0  0
 19 37  1  0  0  0  0
 20 22  1  0  0  0  0
 20 38  1  0  0  0  0
 21 39  1  0  0  0  0
 21 40  1  0  0  0  0
 21 41  1  0  0  0  0
 22 42  1  0  0  0  0
 23 24  1  0  0  0  0
 23 43  1  0  0  0  0
 23 44  1  0  0  0  0
 24 45  1  0  0  0  0
 24 46  1  0  0  0  0
 24 47  1  0  0  0  0
M  END
> <PUBCHEM_COMPOUND_CID>
517472
> <PUBCHEM_COMPOUND_CANONICALIZED>
1
> <PUBCHEM_CACTVS_COMPLEXITY>
410
> <PUBCHEM_CACTVS_HBOND_ACCEPTOR>
6
> <PUBCHEM_CACTVS_HBOND_DONOR>
1
> <PUBCHEM_CACTVS_ROTATABLE_BOND>
12
> <PUBCHEM_CACTVS_SUBSKEYS>
AAADceB6OABAAAAAAAAAAAAAAAAAAAAAAAAwAAAAAAAAAAABAAAAHgQQAAAADCjl2AayCILABAiIAiHSGACCAAAkABAIiIGIBMgKIDKglTGHIQhglgC4iYcYiACOAAAAAAAAAAAAAAAAAAAAAAAAAAAAAA==
> <PUBCHEM_IUPAC_OPENEYE_NAME>
ethyl 2-benzamido-3-(3-ethoxy-3-oxo-propyl)sulfanyl-propanoate
> <PUBCHEM_IUPAC_CAS_NAME>
2-benzamido-3-[(3-ethoxy-3-oxopropyl)thio]propanoic acid ethyl ester
> <PUBCHEM_IUPAC_NAME_MARKUP>
ethyl 2-benzamido-3-(3-ethoxy-3-oxopropyl)sulfanylpropanoate
> <PUBCHEM_IUPAC_NAME>
ethyl 2-benzamido-3-(3-ethoxy-3-oxopropyl)sulfanylpropanoate
> <PUBCHEM_IUPAC_SYSTEMATIC_NAME>
ethyl 2-benzamido-3-(3-ethoxy-3-oxidanylidene-propyl)sulfanyl-propanoate
> <PUBCHEM_IUPAC_TRADITIONAL_NAME>
2-benzamido-3-[(3-ethoxy-3-keto-propyl)thio]propionic acid ethyl ester
> <PUBCHEM_IUPAC_INCHI>
InChI=1S/C17H23NO5S/c1-3-22-15(19)10-11-24-12-14(17(21)23-4-2)18-16(20)13-8-6-5-7-9-13/h5-9,14H,3-4,10-12H2,1-2H3,(H,18,20)
> <PUBCHEM_IUPAC_INCHIKEY>
XAJHKKNIXXMYJX-UHFFFAOYSA-N
> <PUBCHEM_XLOGP3_AA>
2.4
> <PUBCHEM_EXACT_MASS>
353.12969401
> <PUBCHEM_MOLECULAR_FORMULA>
C17H23NO5S
> <PUBCHEM_MOLECULAR_WEIGHT>
353.4
> <PUBCHEM_OPENEYE_CAN_SMILES>
CCOC(=O)CCSCC(C(=O)OCC)NC(=O)C1=CC=CC=C1
> <PUBCHEM_OPENEYE_ISO_SMILES>
CCOC(=O)CCSCC(C(=O)OCC)NC(=O)C1=CC=CC=C1
> <PUBCHEM_CACTVS_TPSA>
107
> <PUBCHEM_MONOISOTOPIC_WEIGHT>
353.12969401
> <PUBCHEM_TOTAL_CHARGE>
0
> <PUBCHEM_HEAVY_ATOM_COUNT>
24
> <PUBCHEM_ATOM_DEF_STEREO_COUNT>
0
> <PUBCHEM_ATOM_UDEF_STEREO_COUNT>
1
> <PUBCHEM_BOND_DEF_STEREO_COUNT>
0
> <PUBCHEM_BOND_UDEF_STEREO_COUNT>
0
> <PUBCHEM_ISOTOPIC_ATOM_COUNT>
0
> <PUBCHEM_COMPONENT_COUNT>
1
> <PUBCHEM_CACTVS_TAUTO_COUNT>
-1
> <PUBCHEM_COORDINATE_TYPE>
1
5
255
> <PUBCHEM_BONDANNOTATIONS>
14  17  8
14  18  8
17  19  8
18  20  8
19  22  8
20  22  8
8  9  3
$$$$
