517403
  -OEChem-10302200292D
 42 41  0     1  0  0  0  0  0999 V2000
    1.4030    4.7150    0.0000 S   0  0  0  0  0  0  0  0  0  0  0  0
    2.2690    5.2150    0.0000 O   0  0  0  0  0  0  0  0  0  0  0  0
    0.5369    4.2150    0.0000 O   0  0  0  0  0  0  0  0  0  0  0  0
    0.9030    5.5810    0.0000 O   0  0  0  0  0  0  0  0  0  0  0  0
    1.9030    3.8490    0.0000 O   0  0  0  0  0  0  0  0  0  0  0  0
    7.1117    0.0000    0.0000 O   0  0  0  0  0  0  0  0  0  0  0  0
    5.4165    8.3100    0.0000 N   0  0  0  0  0  0  0  0  0  0  0  0
    6.2825    2.8100    0.0000 N   0  0  0  0  0  0  0  0  0  0  0  0
    6.2825    6.8100    0.0000 C   0  0  3  0  0  0  0  0  0  0  0  0
    6.2825    5.8100    0.0000 C   0  0  0  0  0  0  0  0  0  0  0  0
    7.1486    7.3100    0.0000 C   0  0  0  0  0  0  0  0  0  0  0  0
    5.4165    7.3100    0.0000 C   0  0  0  0  0  0  0  0  0  0  0  0
    5.4165    5.3100    0.0000 C   0  0  0  0  0  0  0  0  0  0  0  0
    7.1486    5.3100    0.0000 C   0  0  0  0  0  0  0  0  0  0  0  0
    7.1486    8.3100    0.0000 C   0  0  0  0  0  0  0  0  0  0  0  0
    8.0146    6.8100    0.0000 C   0  0  0  0  0  0  0  0  0  0  0  0
    5.4165    4.3100    0.0000 C   0  0  0  0  0  0  0  0  0  0  0  0
    7.1486    4.3100    0.0000 C   0  0  0  0  0  0  0  0  0  0  0  0
    6.2825    3.8100    0.0000 C   0  0  0  0  0  0  0  0  0  0  0  0
    8.0146    8.8100    0.0000 C   0  0  0  0  0  0  0  0  0  0  0  0
    8.8806    7.3100    0.0000 C   0  0  0  0  0  0  0  0  0  0  0  0
    8.8806    8.3100    0.0000 C   0  0  0  0  0  0  0  0  0  0  0  0
    5.7456    6.5000    0.0000 H   0  0  0  0  0  0  0  0  0  0  0  0
    4.8059    7.4177    0.0000 H   0  0  0  0  0  0  0  0  0  0  0  0
    5.2044    6.7274    0.0000 H   0  0  0  0  0  0  0  0  0  0  0  0
    4.8796    5.6200    0.0000 H   0  0  0  0  0  0  0  0  0  0  0  0
    7.6855    5.6200    0.0000 H   0  0  0  0  0  0  0  0  0  0  0  0
    6.6116    8.6200    0.0000 H   0  0  0  0  0  0  0  0  0  0  0  0
    8.0146    6.1900    0.0000 H   0  0  0  0  0  0  0  0  0  0  0  0
    4.8796    4.0000    0.0000 H   0  0  0  0  0  0  0  0  0  0  0  0
    7.6855    4.0000    0.0000 H   0  0  0  0  0  0  0  0  0  0  0  0
    4.8796    8.6200    0.0000 H   0  0  0  0  0  0  0  0  0  0  0  0
    5.9534    8.6200    0.0000 H   0  0  0  0  0  0  0  0  0  0  0  0
    8.0146    9.4300    0.0000 H   0  0  0  0  0  0  0  0  0  0  0  0
    9.4175    7.0000    0.0000 H   0  0  0  0  0  0  0  0  0  0  0  0
    9.4175    8.6200    0.0000 H   0  0  0  0  0  0  0  0  0  0  0  0
    5.7456    2.5000    0.0000 H   0  0  0  0  0  0  0  0  0  0  0  0
    6.8195    2.5000    0.0000 H   0  0  0  0  0  0  0  0  0  0  0  0
    2.8059    4.9050    0.0000 H   0  0  0  0  0  0  0  0  0  0  0  0
    0.0000    4.5250    0.0000 H   0  0  0  0  0  0  0  0  0  0  0  0
    7.6487    0.3100    0.0000 H   0  0  0  0  0  0  0  0  0  0  0  0
    6.5748    0.3100    0.0000 H   0  0  0  0  0  0  0  0  0  0  0  0
  1  2  1  0  0  0  0
  1  3  1  0  0  0  0
  1  4  2  0  0  0  0
  1  5  2  0  0  0  0
  2 39  1  0  0  0  0
  3 40  1  0  0  0  0
  6 41  1  0  0  0  0
  6 42  1  0  0  0  0
  7 12  1  0  0  0  0
  7 32  1  0  0  0  0
  7 33  1  0  0  0  0
  8 19  1  0  0  0  0
  8 37  1  0  0  0  0
  8 38  1  0  0  0  0
  9 10  1  0  0  0  0
  9 11  1  0  0  0  0
  9 12  1  0  0  0  0
  9 23  1  0  0  0  0
 10 13  2  0  0  0  0
 10 14  1  0  0  0  0
 11 15  2  0  0  0  0
 11 16  1  0  0  0  0
 12 24  1  0  0  0  0
 12 25  1  0  0  0  0
 13 17  1  0  0  0  0
 13 26  1  0  0  0  0
 14 18  2  0  0  0  0
 14 27  1  0  0  0  0
 15 20  1  0  0  0  0
 15 28  1  0  0  0  0
 16 21  2  0  0  0  0
 16 29  1  0  0  0  0
 17 19  2  0  0  0  0
 17 30  1  0  0  0  0
 18 19  1  0  0  0  0
 18 31  1  0  0  0  0
 20 22  2  0  0  0  0
 20 34  1  0  0  0  0
 21 22  1  0  0  0  0
 21 35  1  0  0  0  0
 22 36  1  0  0  0  0
M  END
> <PUBCHEM_COMPOUND_CID>
517403
> <PUBCHEM_COMPOUND_CANONICALIZED>
1
> <PUBCHEM_CACTVS_COMPLEXITY>
272
> <PUBCHEM_CACTVS_HBOND_ACCEPTOR>
7
> <PUBCHEM_CACTVS_HBOND_DONOR>
5
> <PUBCHEM_CACTVS_ROTATABLE_BOND>
3
> <PUBCHEM_CACTVS_SUBSKEYS>
AAADceBzOABAAAAAAAAAAAAAAAAAAAAAAAAwYAAAAAAAAAABQAAAHAAQCAAADQjBGAQwwIBAAICAAiRCQDCCAAAgAgAIiIAAZIgIICKAkZGAIABgkAAIyAcQgMAOiAAAAAAAAAAQAAAAAAAAAAAAAAAAAA==
> <PUBCHEM_IUPAC_OPENEYE_NAME>
4-(2-amino-1-phenyl-ethyl)aniline;sulfuric acid;hydrate
> <PUBCHEM_IUPAC_CAS_NAME>
4-(2-amino-1-phenylethyl)aniline;sulfuric acid;hydrate
> <PUBCHEM_IUPAC_NAME_MARKUP>
4-(2-amino-1-phenylethyl)aniline;sulfuric acid;hydrate
> <PUBCHEM_IUPAC_NAME>
4-(2-amino-1-phenylethyl)aniline;sulfuric acid;hydrate
> <PUBCHEM_IUPAC_SYSTEMATIC_NAME>
4-(2-azanyl-1-phenyl-ethyl)aniline;sulfuric acid;hydrate
> <PUBCHEM_IUPAC_TRADITIONAL_NAME>
[4-(2-amino-1-phenyl-ethyl)phenyl]amine;sulfuric acid;hydrate
> <PUBCHEM_IUPAC_INCHI>
InChI=1S/C14H16N2.H2O4S.H2O/c15-10-14(11-4-2-1-3-5-11)12-6-8-13(16)9-7-12;1-5(2,3)4;/h1-9,14H,10,15-16H2;(H2,1,2,3,4);1H2
> <PUBCHEM_IUPAC_INCHIKEY>
KNCSMGIEPJSEQP-UHFFFAOYSA-N
> <PUBCHEM_EXACT_MASS>
328.10929292
> <PUBCHEM_MOLECULAR_FORMULA>
C14H20N2O5S
> <PUBCHEM_MOLECULAR_WEIGHT>
328.39
> <PUBCHEM_OPENEYE_CAN_SMILES>
C1=CC=C(C=C1)C(CN)C2=CC=C(C=C2)N.O.OS(=O)(=O)O
> <PUBCHEM_OPENEYE_ISO_SMILES>
C1=CC=C(C=C1)C(CN)C2=CC=C(C=C2)N.O.OS(=O)(=O)O
> <PUBCHEM_CACTVS_TPSA>
136
> <PUBCHEM_MONOISOTOPIC_WEIGHT>
328.10929292
> <PUBCHEM_TOTAL_CHARGE>
0
> <PUBCHEM_HEAVY_ATOM_COUNT>
22
> <PUBCHEM_ATOM_DEF_STEREO_COUNT>
0
> <PUBCHEM_ATOM_UDEF_STEREO_COUNT>
1
> <PUBCHEM_BOND_DEF_STEREO_COUNT>
0
> <PUBCHEM_BOND_UDEF_STEREO_COUNT>
0
> <PUBCHEM_ISOTOPIC_ATOM_COUNT>
0
> <PUBCHEM_COMPONENT_COUNT>
3
> <PUBCHEM_CACTVS_TAUTO_COUNT>
-1
> <PUBCHEM_COORDINATE_TYPE>
1
5
255
> <PUBCHEM_BONDANNOTATIONS>
10  13  8
10  14  8
11  15  8
11  16  8
13  17  8
14  18  8
15  20  8
16  21  8
17  19  8
18  19  8
20  22  8
21  22  8
9  12  3
$$$$
