517405
  -OEChem-10302200292D
 22 23  0     1  0  0  0  0  0999 V2000
    2.8660   -0.0588    0.0000 N   0  0  0  0  0  0  0  0  0  0  0  0
    3.8366    1.4357    0.0000 N   0  0  0  0  0  0  0  0  0  0  0  0
    4.6456    0.0345    0.0000 N   0  0  0  0  0  0  0  0  0  0  0  0
    5.3147    0.7776    0.0000 N   0  0  0  0  0  0  0  0  0  0  0  0
    5.2215    2.5572    0.0000 N   0  0  0  0  0  0  0  0  0  0  0  0
    3.7320    0.4412    0.0000 C   0  0  3  0  0  0  0  0  0  0  0  0
    2.8660   -1.0588    0.0000 C   0  0  0  0  0  0  0  0  0  0  0  0
    2.0000   -1.5588    0.0000 C   0  0  0  0  0  0  0  0  0  0  0  0
    3.7320   -1.5588    0.0000 C   0  0  0  0  0  0  0  0  0  0  0  0
    2.0000   -2.5588    0.0000 C   0  0  0  0  0  0  0  0  0  0  0  0
    3.7320   -2.5588    0.0000 C   0  0  0  0  0  0  0  0  0  0  0  0
    4.8147    1.6436    0.0000 C   0  0  0  0  0  0  0  0  0  0  0  0
    2.8660   -3.0588    0.0000 C   0  0  0  0  0  0  0  0  0  0  0  0
    3.2121    0.7789    0.0000 H   0  0  0  0  0  0  0  0  0  0  0  0
    2.3291    0.2512    0.0000 H   0  0  0  0  0  0  0  0  0  0  0  0
    1.4631   -1.2488    0.0000 H   0  0  0  0  0  0  0  0  0  0  0  0
    4.2690   -1.2488    0.0000 H   0  0  0  0  0  0  0  0  0  0  0  0
    1.4631   -2.8688    0.0000 H   0  0  0  0  0  0  0  0  0  0  0  0
    4.2690   -2.8688    0.0000 H   0  0  0  0  0  0  0  0  0  0  0  0
    2.8660   -3.6788    0.0000 H   0  0  0  0  0  0  0  0  0  0  0  0
    5.8381    2.6220    0.0000 H   0  0  0  0  0  0  0  0  0  0  0  0
    4.8570    3.0588    0.0000 H   0  0  0  0  0  0  0  0  0  0  0  0
  1  6  1  0  0  0  0
  1  7  1  0  0  0  0
  1 15  1  0  0  0  0
  2  6  1  0  0  0  0
  2 12  2  0  0  0  0
  3  4  2  0  0  0  0
  3  6  1  0  0  0  0
  4 12  1  0  0  0  0
  5 12  1  0  0  0  0
  5 21  1  0  0  0  0
  5 22  1  0  0  0  0
  6 14  1  0  0  0  0
  7  8  2  0  0  0  0
  7  9  1  0  0  0  0
  8 10  1  0  0  0  0
  8 16  1  0  0  0  0
  9 11  2  0  0  0  0
  9 17  1  0  0  0  0
 10 13  2  0  0  0  0
 10 18  1  0  0  0  0
 11 13  1  0  0  0  0
 11 19  1  0  0  0  0
 13 20  1  0  0  0  0
M  END
> <PUBCHEM_COMPOUND_CID>
517405
> <PUBCHEM_COMPOUND_CANONICALIZED>
1
> <PUBCHEM_CACTVS_COMPLEXITY>
229
> <PUBCHEM_CACTVS_HBOND_ACCEPTOR>
3
> <PUBCHEM_CACTVS_HBOND_DONOR>
2
> <PUBCHEM_CACTVS_ROTATABLE_BOND>
2
> <PUBCHEM_CACTVS_SUBSKEYS>
AAADccBzgAAAAAAAAAAAAAAAAAAAAQAAAAAwAAAAAAAAAAABAAAAHAAYAAAACAiBEAQxwILAAACiACRCZACCAAEhAgAIiIAIZIiIICLAkZGEIAhgkAJIyCcQAAAAAAAAAAAAAAAAAAAAAAAAAAAAAAAAAA==
> <PUBCHEM_IUPAC_OPENEYE_NAME>
N3-phenyl-3H-1,2,4-triazole-3,5-diamine
> <PUBCHEM_IUPAC_CAS_NAME>
N3-phenyl-3H-1,2,4-triazole-3,5-diamine
> <PUBCHEM_IUPAC_NAME_MARKUP>
3-<I>N</I>-phenyl-3<I>H</I>-1,2,4-triazole-3,5-diamine
> <PUBCHEM_IUPAC_NAME>
3-N-phenyl-3H-1,2,4-triazole-3,5-diamine
> <PUBCHEM_IUPAC_SYSTEMATIC_NAME>
N3-phenyl-3H-1,2,4-triazole-3,5-diamine
> <PUBCHEM_IUPAC_TRADITIONAL_NAME>
(5-amino-3H-1,2,4-triazol-3-yl)-phenyl-amine
> <PUBCHEM_IUPAC_INCHI>
InChI=1S/C8H9N5/c9-7-11-8(13-12-7)10-6-4-2-1-3-5-6/h1-5,8,10H,(H2,9,11)
> <PUBCHEM_IUPAC_INCHIKEY>
HPJAVIXGHSANOQ-UHFFFAOYSA-N
> <PUBCHEM_XLOGP3_AA>
1.4
> <PUBCHEM_EXACT_MASS>
175.08579531
> <PUBCHEM_MOLECULAR_FORMULA>
C8H9N5
> <PUBCHEM_MOLECULAR_WEIGHT>
175.19
> <PUBCHEM_OPENEYE_CAN_SMILES>
C1=CC=C(C=C1)NC2N=C(N=N2)N
> <PUBCHEM_OPENEYE_ISO_SMILES>
C1=CC=C(C=C1)NC2N=C(N=N2)N
> <PUBCHEM_CACTVS_TPSA>
75.1
> <PUBCHEM_MONOISOTOPIC_WEIGHT>
175.08579531
> <PUBCHEM_TOTAL_CHARGE>
0
> <PUBCHEM_HEAVY_ATOM_COUNT>
13
> <PUBCHEM_ATOM_DEF_STEREO_COUNT>
0
> <PUBCHEM_ATOM_UDEF_STEREO_COUNT>
1
> <PUBCHEM_BOND_DEF_STEREO_COUNT>
0
> <PUBCHEM_BOND_UDEF_STEREO_COUNT>
0
> <PUBCHEM_ISOTOPIC_ATOM_COUNT>
0
> <PUBCHEM_COMPONENT_COUNT>
1
> <PUBCHEM_CACTVS_TAUTO_COUNT>
-1
> <PUBCHEM_COORDINATE_TYPE>
1
5
255
> <PUBCHEM_BONDANNOTATIONS>
6  1  3
10  13  8
11  13  8
7  8  8
7  9  8
8  10  8
9  11  8
$$$$
