517402
  -OEChem-10302200292D
 36 35  0     1  0  0  0  0  0999 V2000
    6.6116    4.4650    0.0000 Cl  0  0  0  0  0  0  0  0  0  0  0  0
    6.6116    1.9650    0.0000 Cl  0  0  0  0  0  0  0  0  0  0  0  0
    0.6106    5.8100    0.0000 N   0  0  0  0  0  0  0  0  0  0  0  0
    1.4766    0.3100    0.0000 N   0  0  0  0  0  0  0  0  0  0  0  0
    1.4766    4.3100    0.0000 C   0  0  3  0  0  0  0  0  0  0  0  0
    1.4766    3.3100    0.0000 C   0  0  0  0  0  0  0  0  0  0  0  0
    2.3426    4.8100    0.0000 C   0  0  0  0  0  0  0  0  0  0  0  0
    0.6106    4.8100    0.0000 C   0  0  0  0  0  0  0  0  0  0  0  0
    0.6106    2.8100    0.0000 C   0  0  0  0  0  0  0  0  0  0  0  0
    2.3426    2.8100    0.0000 C   0  0  0  0  0  0  0  0  0  0  0  0
    3.2087    4.3100    0.0000 C   0  0  0  0  0  0  0  0  0  0  0  0
    2.3426    5.8100    0.0000 C   0  0  0  0  0  0  0  0  0  0  0  0
    0.6106    1.8100    0.0000 C   0  0  0  0  0  0  0  0  0  0  0  0
    2.3426    1.8100    0.0000 C   0  0  0  0  0  0  0  0  0  0  0  0
    1.4766    1.3100    0.0000 C   0  0  0  0  0  0  0  0  0  0  0  0
    4.0747    4.8100    0.0000 C   0  0  0  0  0  0  0  0  0  0  0  0
    3.2087    6.3100    0.0000 C   0  0  0  0  0  0  0  0  0  0  0  0
    4.0747    5.8100    0.0000 C   0  0  0  0  0  0  0  0  0  0  0  0
    0.9397    4.0000    0.0000 H   0  0  0  0  0  0  0  0  0  0  0  0
    0.0000    4.9177    0.0000 H   0  0  0  0  0  0  0  0  0  0  0  0
    0.3985    4.2274    0.0000 H   0  0  0  0  0  0  0  0  0  0  0  0
    0.0736    3.1200    0.0000 H   0  0  0  0  0  0  0  0  0  0  0  0
    2.8796    3.1200    0.0000 H   0  0  0  0  0  0  0  0  0  0  0  0
    3.2087    3.6900    0.0000 H   0  0  0  0  0  0  0  0  0  0  0  0
    1.8057    6.1200    0.0000 H   0  0  0  0  0  0  0  0  0  0  0  0
    0.0736    1.5000    0.0000 H   0  0  0  0  0  0  0  0  0  0  0  0
    2.8796    1.5000    0.0000 H   0  0  0  0  0  0  0  0  0  0  0  0
    0.0736    6.1200    0.0000 H   0  0  0  0  0  0  0  0  0  0  0  0
    1.1475    6.1200    0.0000 H   0  0  0  0  0  0  0  0  0  0  0  0
    4.6116    4.5000    0.0000 H   0  0  0  0  0  0  0  0  0  0  0  0
    3.2087    6.9300    0.0000 H   0  0  0  0  0  0  0  0  0  0  0  0
    4.6116    6.1200    0.0000 H   0  0  0  0  0  0  0  0  0  0  0  0
    0.9397    0.0000    0.0000 H   0  0  0  0  0  0  0  0  0  0  0  0
    2.0135    0.0000    0.0000 H   0  0  0  0  0  0  0  0  0  0  0  0
    7.6116    4.4650    0.0000 H   0  0  0  0  0  0  0  0  0  0  0  0
    7.6116    1.9650    0.0000 H   0  0  0  0  0  0  0  0  0  0  0  0
  1 35  1  0  0  0  0
  2 36  1  0  0  0  0
  3  8  1  0  0  0  0
  3 28  1  0  0  0  0
  3 29  1  0  0  0  0
  4 15  1  0  0  0  0
  4 33  1  0  0  0  0
  4 34  1  0  0  0  0
  5  6  1  0  0  0  0
  5  7  1  0  0  0  0
  5  8  1  0  0  0  0
  5 19  1  0  0  0  0
  6  9  2  0  0  0  0
  6 10  1  0  0  0  0
  7 11  2  0  0  0  0
  7 12  1  0  0  0  0
  8 20  1  0  0  0  0
  8 21  1  0  0  0  0
  9 13  1  0  0  0  0
  9 22  1  0  0  0  0
 10 14  2  0  0  0  0
 10 23  1  0  0  0  0
 11 16  1  0  0  0  0
 11 24  1  0  0  0  0
 12 17  2  0  0  0  0
 12 25  1  0  0  0  0
 13 15  2  0  0  0  0
 13 26  1  0  0  0  0
 14 15  1  0  0  0  0
 14 27  1  0  0  0  0
 16 18  2  0  0  0  0
 16 30  1  0  0  0  0
 17 18  1  0  0  0  0
 17 31  1  0  0  0  0
 18 32  1  0  0  0  0
M  END
> <PUBCHEM_COMPOUND_CID>
517402
> <PUBCHEM_COMPOUND_CANONICALIZED>
1
> <PUBCHEM_CACTVS_COMPLEXITY>
191
> <PUBCHEM_CACTVS_HBOND_ACCEPTOR>
2
> <PUBCHEM_CACTVS_HBOND_DONOR>
4
> <PUBCHEM_CACTVS_ROTATABLE_BOND>
3
> <PUBCHEM_CACTVS_SUBSKEYS>
AAADceBzAAAGAAAAAAAAAAAAAAAAAAAAAAAwYAAAAAAAAAABQAAAHAAQAAAADQjBGAQwwIBAAACAAiRCQACCAAAgAgAIiIAAZIgIICKAkZGAIABgkAAIyAcQgMAOiAAAAAAAAAAQAAAAAAAAAAAAAAAAAA==
> <PUBCHEM_IUPAC_OPENEYE_NAME>
4-(2-amino-1-phenyl-ethyl)aniline;dihydrochloride
> <PUBCHEM_IUPAC_CAS_NAME>
4-(2-amino-1-phenylethyl)aniline;dihydrochloride
> <PUBCHEM_IUPAC_NAME_MARKUP>
4-(2-amino-1-phenylethyl)aniline;dihydrochloride
> <PUBCHEM_IUPAC_NAME>
4-(2-amino-1-phenylethyl)aniline;dihydrochloride
> <PUBCHEM_IUPAC_SYSTEMATIC_NAME>
4-(2-azanyl-1-phenyl-ethyl)aniline;dihydrochloride
> <PUBCHEM_IUPAC_TRADITIONAL_NAME>
[4-(2-amino-1-phenyl-ethyl)phenyl]amine;dihydrochloride
> <PUBCHEM_IUPAC_INCHI>
InChI=1S/C14H16N2.2ClH/c15-10-14(11-4-2-1-3-5-11)12-6-8-13(16)9-7-12;;/h1-9,14H,10,15-16H2;2*1H
> <PUBCHEM_IUPAC_INCHIKEY>
GXDXPGPSDVRXBY-UHFFFAOYSA-N
> <PUBCHEM_EXACT_MASS>
284.0847040
> <PUBCHEM_MOLECULAR_FORMULA>
C14H18Cl2N2
> <PUBCHEM_MOLECULAR_WEIGHT>
285.2
> <PUBCHEM_OPENEYE_CAN_SMILES>
C1=CC=C(C=C1)C(CN)C2=CC=C(C=C2)N.Cl.Cl
> <PUBCHEM_OPENEYE_ISO_SMILES>
C1=CC=C(C=C1)C(CN)C2=CC=C(C=C2)N.Cl.Cl
> <PUBCHEM_CACTVS_TPSA>
52
> <PUBCHEM_MONOISOTOPIC_WEIGHT>
284.0847040
> <PUBCHEM_TOTAL_CHARGE>
0
> <PUBCHEM_HEAVY_ATOM_COUNT>
18
> <PUBCHEM_ATOM_DEF_STEREO_COUNT>
0
> <PUBCHEM_ATOM_UDEF_STEREO_COUNT>
1
> <PUBCHEM_BOND_DEF_STEREO_COUNT>
0
> <PUBCHEM_BOND_UDEF_STEREO_COUNT>
0
> <PUBCHEM_ISOTOPIC_ATOM_COUNT>
0
> <PUBCHEM_COMPONENT_COUNT>
3
> <PUBCHEM_CACTVS_TAUTO_COUNT>
-1
> <PUBCHEM_COORDINATE_TYPE>
1
5
255
> <PUBCHEM_BONDANNOTATIONS>
10  14  8
11  16  8
12  17  8
13  15  8
14  15  8
16  18  8
17  18  8
5  8  3
6  10  8
6  9  8
7  11  8
7  12  8
9  13  8
$$$$
