517416
  -OEChem-10302200292D
 26 25  0     1  0  0  0  0  0999 V2000
    5.9476    4.4465    0.0000 Cl  0  0  0  0  0  0  0  0  0  0  0  0
    0.0000    3.6232    0.0000 Cl  0  5  0  0  0  0  0  0  0  0  0  0
    5.7761    7.2465    0.0000 O   0  0  0  0  0  0  0  0  0  0  0  0
    5.8005    1.1660    0.0000 N   0  3  0  0  0  0  0  0  0  0  0  0
    6.0593    2.1319    0.0000 C   0  0  0  0  0  0  0  0  0  0  0  0
    4.8227    2.9805    0.0000 C   0  0  0  0  0  0  0  0  0  0  0  0
    5.6887    3.4805    0.0000 C   0  0  3  0  0  0  0  0  0  0  0  0
    7.1994    0.6572    0.0000 C   0  0  0  0  0  0  0  0  0  0  0  0
    4.4278    0.5740    0.0000 C   0  0  0  0  0  0  0  0  0  0  0  0
    7.4583    1.6231    0.0000 C   0  0  0  0  0  0  0  0  0  0  0  0
    4.0858    1.5136    0.0000 C   0  0  0  0  0  0  0  0  0  0  0  0
    5.6400    0.5671    0.0000 H   0  0  0  0  0  0  0  0  0  0  0  0
    6.0453    1.5121    0.0000 H   0  0  0  0  0  0  0  0  0  0  0  0
    4.5180    3.5205    0.0000 H   0  0  0  0  0  0  0  0  0  0  0  0
    4.2798    2.6811    0.0000 H   0  0  0  0  0  0  0  0  0  0  0  0
    6.3087    3.4825    0.0000 H   0  0  0  0  0  0  0  0  0  0  0  0
    7.0045    0.0686    0.0000 H   0  0  0  0  0  0  0  0  0  0  0  0
    7.7934    0.4794    0.0000 H   0  0  0  0  0  0  0  0  0  0  0  0
    3.8494    0.3507    0.0000 H   0  0  0  0  0  0  0  0  0  0  0  0
    4.6623    0.0000    0.0000 H   0  0  0  0  0  0  0  0  0  0  0  0
    8.0522    1.4453    0.0000 H   0  0  0  0  0  0  0  0  0  0  0  0
    7.6532    2.2116    0.0000 H   0  0  0  0  0  0  0  0  0  0  0  0
    3.8915    2.1024    0.0000 H   0  0  0  0  0  0  0  0  0  0  0  0
    3.5000    1.3105    0.0000 H   0  0  0  0  0  0  0  0  0  0  0  0
    6.3131    7.5565    0.0000 H   0  0  0  0  0  0  0  0  0  0  0  0
    5.2392    7.5565    0.0000 H   0  0  0  0  0  0  0  0  0  0  0  0
  1  7  1  0  0  0  0
  3 25  1  0  0  0  0
  3 26  1  0  0  0  0
  4  6  1  0  0  0  0
  4  8  1  0  0  0  0
  4  9  1  0  0  0  0
  4 12  1  0  0  0  0
  5  7  1  0  0  0  0
  5 10  1  0  0  0  0
  5 11  1  0  0  0  0
  5 13  1  0  0  0  0
  6  7  1  0  0  0  0
  6 14  1  0  0  0  0
  6 15  1  0  0  0  0
  7 16  1  0  0  0  0
  8 10  1  0  0  0  0
  8 17  1  0  0  0  0
  8 18  1  0  0  0  0
  9 11  1  0  0  0  0
  9 19  1  0  0  0  0
  9 20  1  0  0  0  0
 10 21  1  0  0  0  0
 10 22  1  0  0  0  0
 11 23  1  0  0  0  0
 11 24  1  0  0  0  0
M  CHG  2   2  -1   4   1
M  END
> <PUBCHEM_COMPOUND_CID>
517416
> <PUBCHEM_COMPOUND_CANONICALIZED>
1
> <PUBCHEM_CACTVS_COMPLEXITY>
108
> <PUBCHEM_CACTVS_HBOND_ACCEPTOR>
2
> <PUBCHEM_CACTVS_HBOND_DONOR>
2
> <PUBCHEM_CACTVS_ROTATABLE_BOND>
0
> <PUBCHEM_CACTVS_SUBSKEYS>
AAADccBiIAAGAAAAAAAAAAAAAAAAAAAAAAAsWLAAAAAAAAAAAAAAHAIQCAAADQPBAEQAAAPAAAAAAAAAAAAAAAAAAAAAAIAIAgAAAAIBgABEAAAAEACAAAAQAAAKAAAAAAAAAAAAAAAAAAAAAAAAAAAAAA==
> <PUBCHEM_IUPAC_OPENEYE_NAME>
3-chloroquinuclidin-1-ium;chloride;hydrate
> <PUBCHEM_IUPAC_CAS_NAME>
3-chloro-1-azoniabicyclo[2.2.2]octane;chloride;hydrate
> <PUBCHEM_IUPAC_NAME_MARKUP>
3-chloro-1-azoniabicyclo[2.2.2]octane;chloride;hydrate
> <PUBCHEM_IUPAC_NAME>
3-chloro-1-azoniabicyclo[2.2.2]octane;chloride;hydrate
> <PUBCHEM_IUPAC_SYSTEMATIC_NAME>
3-chloranyl-1-azoniabicyclo[2.2.2]octane;chloride;hydrate
> <PUBCHEM_IUPAC_TRADITIONAL_NAME>
3-chloroquinuclidin-1-ium;chloride;hydrate
> <PUBCHEM_IUPAC_INCHI>
InChI=1S/C7H12ClN.ClH.H2O/c8-7-5-9-3-1-6(7)2-4-9;;/h6-7H,1-5H2;1H;1H2
> <PUBCHEM_IUPAC_INCHIKEY>
OPJOYRUZVLLOMS-UHFFFAOYSA-N
> <PUBCHEM_EXACT_MASS>
199.0530695
> <PUBCHEM_MOLECULAR_FORMULA>
C7H15Cl2NO
> <PUBCHEM_MOLECULAR_WEIGHT>
200.10
> <PUBCHEM_OPENEYE_CAN_SMILES>
C1C[NH+]2CCC1C(C2)Cl.O.[Cl-]
> <PUBCHEM_OPENEYE_ISO_SMILES>
C1C[NH+]2CCC1C(C2)Cl.O.[Cl-]
> <PUBCHEM_CACTVS_TPSA>
5.4
> <PUBCHEM_MONOISOTOPIC_WEIGHT>
199.0530695
> <PUBCHEM_TOTAL_CHARGE>
0
> <PUBCHEM_HEAVY_ATOM_COUNT>
11
> <PUBCHEM_ATOM_DEF_STEREO_COUNT>
0
> <PUBCHEM_ATOM_UDEF_STEREO_COUNT>
1
> <PUBCHEM_BOND_DEF_STEREO_COUNT>
0
> <PUBCHEM_BOND_UDEF_STEREO_COUNT>
0
> <PUBCHEM_ISOTOPIC_ATOM_COUNT>
0
> <PUBCHEM_COMPONENT_COUNT>
3
> <PUBCHEM_CACTVS_TAUTO_COUNT>
-1
> <PUBCHEM_COORDINATE_TYPE>
1
5
255
> <PUBCHEM_BONDANNOTATIONS>
7  1  3
$$$$
