517417
  -OEChem-10302200292D
 29 29  0     1  0  0  0  0  0999 V2000
    3.9030    0.0000    0.0000 Cl  0  0  0  0  0  0  0  0  0  0  0  0
    0.0000    3.0600    0.0000 Cl  0  5  0  0  0  0  0  0  0  0  0  0
    3.0369    4.5000    0.0000 N   0  3  0  0  0  0  0  0  0  0  0  0
    3.9030    4.0000    0.0000 C   0  0  3  0  0  0  0  0  0  0  0  0
    3.9030    3.0000    0.0000 C   0  0  0  0  0  0  0  0  0  0  0  0
    4.7690    4.5000    0.0000 C   0  0  0  0  0  0  0  0  0  0  0  0
    3.0369    2.5000    0.0000 C   0  0  0  0  0  0  0  0  0  0  0  0
    4.7690    2.5000    0.0000 C   0  0  0  0  0  0  0  0  0  0  0  0
    5.6350    4.0000    0.0000 C   0  0  0  0  0  0  0  0  0  0  0  0
    4.7690    5.5000    0.0000 C   0  0  0  0  0  0  0  0  0  0  0  0
    3.0369    1.5000    0.0000 C   0  0  0  0  0  0  0  0  0  0  0  0
    4.7690    1.5000    0.0000 C   0  0  0  0  0  0  0  0  0  0  0  0
    6.5010    4.5000    0.0000 C   0  0  0  0  0  0  0  0  0  0  0  0
    5.6350    6.0000    0.0000 C   0  0  0  0  0  0  0  0  0  0  0  0
    3.9030    1.0000    0.0000 C   0  0  0  0  0  0  0  0  0  0  0  0
    6.5010    5.5000    0.0000 C   0  0  0  0  0  0  0  0  0  0  0  0
    3.9030    4.6200    0.0000 H   0  0  0  0  0  0  0  0  0  0  0  0
    2.5000    4.8100    0.0000 H   0  0  0  0  0  0  0  0  0  0  0  0
    3.3469    5.0369    0.0000 H   0  0  0  0  0  0  0  0  0  0  0  0
    2.7269    3.9631    0.0000 H   0  0  0  0  0  0  0  0  0  0  0  0
    2.5000    2.8100    0.0000 H   0  0  0  0  0  0  0  0  0  0  0  0
    5.3059    2.8100    0.0000 H   0  0  0  0  0  0  0  0  0  0  0  0
    5.6350    3.3800    0.0000 H   0  0  0  0  0  0  0  0  0  0  0  0
    4.2320    5.8100    0.0000 H   0  0  0  0  0  0  0  0  0  0  0  0
    2.5000    1.1900    0.0000 H   0  0  0  0  0  0  0  0  0  0  0  0
    5.3059    1.1900    0.0000 H   0  0  0  0  0  0  0  0  0  0  0  0
    7.0380    4.1900    0.0000 H   0  0  0  0  0  0  0  0  0  0  0  0
    5.6350    6.6200    0.0000 H   0  0  0  0  0  0  0  0  0  0  0  0
    7.0380    5.8100    0.0000 H   0  0  0  0  0  0  0  0  0  0  0  0
  1 15  1  0  0  0  0
  3  4  1  0  0  0  0
  3 18  1  0  0  0  0
  3 19  1  0  0  0  0
  3 20  1  0  0  0  0
  4  5  1  0  0  0  0
  4  6  1  0  0  0  0
  4 17  1  0  0  0  0
  5  7  2  0  0  0  0
  5  8  1  0  0  0  0
  6  9  2  0  0  0  0
  6 10  1  0  0  0  0
  7 11  1  0  0  0  0
  7 21  1  0  0  0  0
  8 12  2  0  0  0  0
  8 22  1  0  0  0  0
  9 13  1  0  0  0  0
  9 23  1  0  0  0  0
 10 14  2  0  0  0  0
 10 24  1  0  0  0  0
 11 15  2  0  0  0  0
 11 25  1  0  0  0  0
 12 15  1  0  0  0  0
 12 26  1  0  0  0  0
 13 16  2  0  0  0  0
 13 27  1  0  0  0  0
 14 16  1  0  0  0  0
 14 28  1  0  0  0  0
 16 29  1  0  0  0  0
M  CHG  2   2  -1   3   1
M  END
> <PUBCHEM_COMPOUND_CID>
517417
> <PUBCHEM_COMPOUND_CANONICALIZED>
1
> <PUBCHEM_CACTVS_COMPLEXITY>
181
> <PUBCHEM_CACTVS_HBOND_ACCEPTOR>
1
> <PUBCHEM_CACTVS_HBOND_DONOR>
1
> <PUBCHEM_CACTVS_ROTATABLE_BOND>
2
> <PUBCHEM_CACTVS_SUBSKEYS>
AAADccByAAAGAAAAAAAAAAAAAAAAAAAAAAAwYAAAAAAAAAABQAAAHAIQAAAADCrBGCQwAIBAAACAAiBCAACCAAAgBQAIiIAABogIICKBkxGAIABggAAIiAcQgMAOBAAAAAAAAAAIAAAAAAAAAAAAAAAAAA==
> <PUBCHEM_IUPAC_OPENEYE_NAME>
[(4-chlorophenyl)-phenyl-methyl]ammonium;chloride
> <PUBCHEM_IUPAC_CAS_NAME>
[(4-chlorophenyl)-phenylmethyl]ammonium;chloride
> <PUBCHEM_IUPAC_NAME_MARKUP>
[(4-chlorophenyl)-phenylmethyl]azanium;chloride
> <PUBCHEM_IUPAC_NAME>
[(4-chlorophenyl)-phenylmethyl]azanium;chloride
> <PUBCHEM_IUPAC_SYSTEMATIC_NAME>
[(4-chlorophenyl)-phenyl-methyl]azanium;chloride
> <PUBCHEM_IUPAC_TRADITIONAL_NAME>
[(4-chlorophenyl)-phenyl-methyl]ammonium;chloride
> <PUBCHEM_IUPAC_INCHI>
InChI=1S/C13H12ClN.ClH/c14-12-8-6-11(7-9-12)13(15)10-4-2-1-3-5-10;/h1-9,13H,15H2;1H
> <PUBCHEM_IUPAC_INCHIKEY>
UHPRBUXOILBKFH-UHFFFAOYSA-N
> <PUBCHEM_EXACT_MASS>
253.0425048
> <PUBCHEM_MOLECULAR_FORMULA>
C13H13Cl2N
> <PUBCHEM_MOLECULAR_WEIGHT>
254.15
> <PUBCHEM_OPENEYE_CAN_SMILES>
C1=CC=C(C=C1)C(C2=CC=C(C=C2)Cl)[NH3+].[Cl-]
> <PUBCHEM_OPENEYE_ISO_SMILES>
C1=CC=C(C=C1)C(C2=CC=C(C=C2)Cl)[NH3+].[Cl-]
> <PUBCHEM_CACTVS_TPSA>
27.6
> <PUBCHEM_MONOISOTOPIC_WEIGHT>
253.0425048
> <PUBCHEM_TOTAL_CHARGE>
0
> <PUBCHEM_HEAVY_ATOM_COUNT>
16
> <PUBCHEM_ATOM_DEF_STEREO_COUNT>
0
> <PUBCHEM_ATOM_UDEF_STEREO_COUNT>
1
> <PUBCHEM_BOND_DEF_STEREO_COUNT>
0
> <PUBCHEM_BOND_UDEF_STEREO_COUNT>
0
> <PUBCHEM_ISOTOPIC_ATOM_COUNT>
0
> <PUBCHEM_COMPONENT_COUNT>
2
> <PUBCHEM_CACTVS_TAUTO_COUNT>
-1
> <PUBCHEM_COORDINATE_TYPE>
1
5
255
> <PUBCHEM_BONDANNOTATIONS>
10  14  8
11  15  8
12  15  8
13  16  8
14  16  8
4  3  3
5  7  8
5  8  8
6  10  8
6  9  8
7  11  8
8  12  8
9  13  8
$$$$
