517460
  -OEChem-10302200292D
 16 15  0     1  0  0  0  0  0999 V2000
    5.1350    0.0000    0.0000 O   0  5  0  0  0  0  0  0  0  0  0  0
    4.2690    1.5000    0.0000 O   0  0  0  0  0  0  0  0  0  0  0  0
    2.5369    0.5000    0.0000 N   0  3  0  0  0  0  0  0  0  0  0  0
    3.4030    0.0000    0.0000 C   0  0  3  0  0  0  0  0  0  0  0  0
    3.4030   -1.0000    0.0000 C   0  0  0  0  0  0  0  0  0  0  0  0
    4.2690   -1.5000    0.0000 C   0  0  0  0  0  0  0  0  0  0  0  0
    4.2690    0.5000    0.0000 C   0  0  0  0  0  0  0  0  0  0  0  0
    3.4030    0.6200    0.0000 H   0  0  0  0  0  0  0  0  0  0  0  0
    2.7924   -0.8923    0.0000 H   0  0  0  0  0  0  0  0  0  0  0  0
    3.1909   -1.5826    0.0000 H   0  0  0  0  0  0  0  0  0  0  0  0
    2.0000    0.8100    0.0000 H   0  0  0  0  0  0  0  0  0  0  0  0
    2.2269   -0.0369    0.0000 H   0  0  0  0  0  0  0  0  0  0  0  0
    2.8469    1.0369    0.0000 H   0  0  0  0  0  0  0  0  0  0  0  0
    3.9590   -2.0369    0.0000 H   0  0  0  0  0  0  0  0  0  0  0  0
    4.8059   -1.8100    0.0000 H   0  0  0  0  0  0  0  0  0  0  0  0
    4.5790   -0.9631    0.0000 H   0  0  0  0  0  0  0  0  0  0  0  0
  1  7  1  0  0  0  0
  2  7  2  0  0  0  0
  3  4  1  0  0  0  0
  3 11  1  0  0  0  0
  3 12  1  0  0  0  0
  3 13  1  0  0  0  0
  4  5  1  0  0  0  0
  4  7  1  0  0  0  0
  4  8  1  0  0  0  0
  5  6  1  0  0  0  0
  5  9  1  0  0  0  0
  5 10  1  0  0  0  0
  6 14  1  0  0  0  0
  6 15  1  0  0  0  0
  6 16  1  0  0  0  0
M  CHG  2   1  -1   3   1
M  END
> <PUBCHEM_COMPOUND_CID>
517460
> <PUBCHEM_COMPOUND_CANONICALIZED>
1
> <PUBCHEM_CACTVS_COMPLEXITY>
66.6
> <PUBCHEM_CACTVS_HBOND_ACCEPTOR>
2
> <PUBCHEM_CACTVS_HBOND_DONOR>
1
> <PUBCHEM_CACTVS_ROTATABLE_BOND>
1
> <PUBCHEM_CACTVS_SUBSKEYS>
AAADccBiMAAAAAAAAAAAAAAAAAAAAAAAAAAAAAAAAAAAAAAAAAAAHgAQAAAACCjBgAQCCABAAAAIAACQCAAAAAAAAAAAAIGAAAACABAAAAAAAAAEEAAAAAAAAAAAAAAAAAAAAAAAAAAAAAAAAAAAAAAAAA==
> <PUBCHEM_IUPAC_OPENEYE_NAME>
2-azaniumylbutanoate
> <PUBCHEM_IUPAC_CAS_NAME>
2-ammoniobutanoate
> <PUBCHEM_IUPAC_NAME_MARKUP>
2-azaniumylbutanoate
> <PUBCHEM_IUPAC_NAME>
2-azaniumylbutanoate
> <PUBCHEM_IUPAC_SYSTEMATIC_NAME>
2-azaniumylbutanoate
> <PUBCHEM_IUPAC_TRADITIONAL_NAME>
2-ammoniobutyrate
> <PUBCHEM_IUPAC_INCHI>
InChI=1S/C4H9NO2/c1-2-3(5)4(6)7/h3H,2,5H2,1H3,(H,6,7)
> <PUBCHEM_IUPAC_INCHIKEY>
QWCKQJZIFLGMSD-UHFFFAOYSA-N
> <PUBCHEM_XLOGP3>
-1.9
> <PUBCHEM_EXACT_MASS>
103.063328530
> <PUBCHEM_MOLECULAR_FORMULA>
C4H9NO2
> <PUBCHEM_MOLECULAR_WEIGHT>
103.12
> <PUBCHEM_OPENEYE_CAN_SMILES>
CCC(C(=O)[O-])[NH3+]
> <PUBCHEM_OPENEYE_ISO_SMILES>
CCC(C(=O)[O-])[NH3+]
> <PUBCHEM_CACTVS_TPSA>
67.8
> <PUBCHEM_MONOISOTOPIC_WEIGHT>
103.063328530
> <PUBCHEM_TOTAL_CHARGE>
0
> <PUBCHEM_HEAVY_ATOM_COUNT>
7
> <PUBCHEM_ATOM_DEF_STEREO_COUNT>
0
> <PUBCHEM_ATOM_UDEF_STEREO_COUNT>
1
> <PUBCHEM_BOND_DEF_STEREO_COUNT>
0
> <PUBCHEM_BOND_UDEF_STEREO_COUNT>
0
> <PUBCHEM_ISOTOPIC_ATOM_COUNT>
0
> <PUBCHEM_COMPONENT_COUNT>
1
> <PUBCHEM_CACTVS_TAUTO_COUNT>
-1
> <PUBCHEM_COORDINATE_TYPE>
1
5
255
> <PUBCHEM_BONDANNOTATIONS>
4  3  3
$$$$
