517419
  -OEChem-10302200292D
 51 48  0     1  0  0  0  0  0999 V2000
    1.4030    4.6200    0.0000 S   0  0  0  0  0  0  0  0  0  0  0  0
    2.4030    4.6200    0.0000 O   0  0  0  0  0  0  0  0  0  0  0  0
    0.4030    4.6200    0.0000 O   0  0  0  0  0  0  0  0  0  0  0  0
    3.1350    7.6200    0.0000 O   0  0  0  0  0  0  0  0  0  0  0  0
    1.4030    7.6200    0.0000 O   0  0  0  0  0  0  0  0  0  0  0  0
   10.5390    3.8700    0.0000 O   0  0  0  0  0  0  0  0  0  0  0  0
   10.5390    6.3700    0.0000 O   0  0  0  0  0  0  0  0  0  0  0  0
    4.0010   10.2400    0.0000 O   0  0  0  0  0  0  0  0  0  0  0  0
    1.4030    5.6200    0.0000 N   0  0  0  0  0  0  0  0  0  0  0  0
    5.7331    6.1200    0.0000 N   0  0  0  0  0  0  0  0  0  0  0  0
    7.4651    6.1200    0.0000 N   0  0  0  0  0  0  0  0  0  0  0  0
    6.5991    4.6200    0.0000 N   0  0  0  0  0  0  0  0  0  0  0  0
    2.2690    6.1200    0.0000 C   0  0  3  0  0  0  0  0  0  0  0  0
    3.1350    5.6200    0.0000 C   0  0  0  0  0  0  0  0  0  0  0  0
    4.0010    6.1200    0.0000 C   0  0  0  0  0  0  0  0  0  0  0  0
    4.8671    5.6200    0.0000 C   0  0  0  0  0  0  0  0  0  0  0  0
    1.4030    3.6200    0.0000 C   0  0  0  0  0  0  0  0  0  0  0  0
    2.2690    7.1200    0.0000 C   0  0  0  0  0  0  0  0  0  0  0  0
    0.5369    3.1200    0.0000 C   0  0  0  0  0  0  0  0  0  0  0  0
    2.2690    3.1200    0.0000 C   0  0  0  0  0  0  0  0  0  0  0  0
    1.4030    1.6200    0.0000 C   0  0  0  0  0  0  0  0  0  0  0  0
    0.5369    2.1200    0.0000 C   0  0  0  0  0  0  0  0  0  0  0  0
    2.2690    2.1200    0.0000 C   0  0  0  0  0  0  0  0  0  0  0  0
    1.4030    0.6200    0.0000 C   0  0  0  0  0  0  0  0  0  0  0  0
    6.5991    5.6200    0.0000 C   0  0  0  0  0  0  0  0  0  0  0  0
    2.2690    5.5000    0.0000 H   0  0  0  0  0  0  0  0  0  0  0  0
    2.7365    5.1450    0.0000 H   0  0  0  0  0  0  0  0  0  0  0  0
    3.5335    5.1450    0.0000 H   0  0  0  0  0  0  0  0  0  0  0  0
    4.3996    6.5950    0.0000 H   0  0  0  0  0  0  0  0  0  0  0  0
    3.6025    6.5950    0.0000 H   0  0  0  0  0  0  0  0  0  0  0  0
    0.8660    5.9300    0.0000 H   0  0  0  0  0  0  0  0  0  0  0  0
    4.4685    5.1450    0.0000 H   0  0  0  0  0  0  0  0  0  0  0  0
    5.2656    5.1450    0.0000 H   0  0  0  0  0  0  0  0  0  0  0  0
    0.0000    3.4300    0.0000 H   0  0  0  0  0  0  0  0  0  0  0  0
    2.8059    3.4300    0.0000 H   0  0  0  0  0  0  0  0  0  0  0  0
    0.0000    1.8100    0.0000 H   0  0  0  0  0  0  0  0  0  0  0  0
    2.8059    1.8100    0.0000 H   0  0  0  0  0  0  0  0  0  0  0  0
    3.1350    8.2400    0.0000 H   0  0  0  0  0  0  0  0  0  0  0  0
    0.7830    0.6200    0.0000 H   0  0  0  0  0  0  0  0  0  0  0  0
    1.4030    0.0000    0.0000 H   0  0  0  0  0  0  0  0  0  0  0  0
    2.0230    0.6200    0.0000 H   0  0  0  0  0  0  0  0  0  0  0  0
    8.0021    5.8100    0.0000 H   0  0  0  0  0  0  0  0  0  0  0  0
    7.4651    6.7400    0.0000 H   0  0  0  0  0  0  0  0  0  0  0  0
    7.1360    4.3100    0.0000 H   0  0  0  0  0  0  0  0  0  0  0  0
    6.0622    4.3100    0.0000 H   0  0  0  0  0  0  0  0  0  0  0  0
   11.0759    4.1800    0.0000 H   0  0  0  0  0  0  0  0  0  0  0  0
   10.0021    4.1800    0.0000 H   0  0  0  0  0  0  0  0  0  0  0  0
   11.0759    6.6800    0.0000 H   0  0  0  0  0  0  0  0  0  0  0  0
   10.0021    6.6800    0.0000 H   0  0  0  0  0  0  0  0  0  0  0  0
    4.5380   10.5500    0.0000 H   0  0  0  0  0  0  0  0  0  0  0  0
    3.4641   10.5500    0.0000 H   0  0  0  0  0  0  0  0  0  0  0  0
  1  2  2  0  0  0  0
  1  3  2  0  0  0  0
  1  9  1  0  0  0  0
  1 17  1  0  0  0  0
  4 18  1  0  0  0  0
  4 38  1  0  0  0  0
  5 18  2  0  0  0  0
  6 46  1  0  0  0  0
  6 47  1  0  0  0  0
  7 48  1  0  0  0  0
  7 49  1  0  0  0  0
  8 50  1  0  0  0  0
  8 51  1  0  0  0  0
  9 13  1  0  0  0  0
  9 31  1  0  0  0  0
 10 16  1  0  0  0  0
 10 25  2  0  0  0  0
 11 25  1  0  0  0  0
 11 42  1  0  0  0  0
 11 43  1  0  0  0  0
 12 25  1  0  0  0  0
 12 44  1  0  0  0  0
 12 45  1  0  0  0  0
 13 14  1  0  0  0  0
 13 18  1  0  0  0  0
 13 26  1  0  0  0  0
 14 15  1  0  0  0  0
 14 27  1  0  0  0  0
 14 28  1  0  0  0  0
 15 16  1  0  0  0  0
 15 29  1  0  0  0  0
 15 30  1  0  0  0  0
 16 32  1  0  0  0  0
 16 33  1  0  0  0  0
 17 19  2  0  0  0  0
 17 20  1  0  0  0  0
 19 22  1  0  0  0  0
 19 34  1  0  0  0  0
 20 23  2  0  0  0  0
 20 35  1  0  0  0  0
 21 22  2  0  0  0  0
 21 23  1  0  0  0  0
 21 24  1  0  0  0  0
 22 36  1  0  0  0  0
 23 37  1  0  0  0  0
 24 39  1  0  0  0  0
 24 40  1  0  0  0  0
 24 41  1  0  0  0  0
M  END
> <PUBCHEM_COMPOUND_CID>
517419
> <PUBCHEM_COMPOUND_CANONICALIZED>
1
> <PUBCHEM_CACTVS_COMPLEXITY>
489
> <PUBCHEM_CACTVS_HBOND_ACCEPTOR>
9
> <PUBCHEM_CACTVS_HBOND_DONOR>
7
> <PUBCHEM_CACTVS_ROTATABLE_BOND>
8
> <PUBCHEM_CACTVS_SUBSKEYS>
AAADceBzuABAAAAAAAAAAAAAAAAAAAAAAAAwAAAAAAAAAAABAAAAHgQQSAAADCjB2AQzCYJAAgKoAiDSLHBCABEgAAAIiJmAAIgKIDKAkRCAYAAkkAAIiAeYkQAOEAAAAAAAAAAgAAAAAAAAAAAAAAAAAA==
> <PUBCHEM_IUPAC_OPENEYE_NAME>
5-guanidino-2-(p-tolylsulfonylamino)pentanoic acid;trihydrate
> <PUBCHEM_IUPAC_CAS_NAME>
5-(diaminomethylideneamino)-2-[(4-methylphenyl)sulfonylamino]pentanoic acid;trihydrate
> <PUBCHEM_IUPAC_NAME_MARKUP>
5-(diaminomethylideneamino)-2-[(4-methylphenyl)sulfonylamino]pentanoic acid;trihydrate
> <PUBCHEM_IUPAC_NAME>
5-(diaminomethylideneamino)-2-[(4-methylphenyl)sulfonylamino]pentanoic acid;trihydrate
> <PUBCHEM_IUPAC_SYSTEMATIC_NAME>
5-[bis(azanyl)methylideneamino]-2-[(4-methylphenyl)sulfonylamino]pentanoic acid;trihydrate
> <PUBCHEM_IUPAC_TRADITIONAL_NAME>
5-guanidino-2-(tosylamino)valeric acid;trihydrate
> <PUBCHEM_IUPAC_INCHI>
InChI=1S/C13H20N4O4S.3H2O/c1-9-4-6-10(7-5-9)22(20,21)17-11(12(18)19)3-2-8-16-13(14)15;;;/h4-7,11,17H,2-3,8H2,1H3,(H,18,19)(H4,14,15,16);3*1H2
> <PUBCHEM_IUPAC_INCHIKEY>
VTHNITWESKGGPD-UHFFFAOYSA-N
> <PUBCHEM_EXACT_MASS>
382.15222035
> <PUBCHEM_MOLECULAR_FORMULA>
C13H26N4O7S
> <PUBCHEM_MOLECULAR_WEIGHT>
382.44
> <PUBCHEM_OPENEYE_CAN_SMILES>
CC1=CC=C(C=C1)S(=O)(=O)NC(CCCN=C(N)N)C(=O)O.O.O.O
> <PUBCHEM_OPENEYE_ISO_SMILES>
CC1=CC=C(C=C1)S(=O)(=O)NC(CCCN=C(N)N)C(=O)O.O.O.O
> <PUBCHEM_CACTVS_TPSA>
159
> <PUBCHEM_MONOISOTOPIC_WEIGHT>
382.15222035
> <PUBCHEM_TOTAL_CHARGE>
0
> <PUBCHEM_HEAVY_ATOM_COUNT>
25
> <PUBCHEM_ATOM_DEF_STEREO_COUNT>
0
> <PUBCHEM_ATOM_UDEF_STEREO_COUNT>
1
> <PUBCHEM_BOND_DEF_STEREO_COUNT>
0
> <PUBCHEM_BOND_UDEF_STEREO_COUNT>
0
> <PUBCHEM_ISOTOPIC_ATOM_COUNT>
0
> <PUBCHEM_COMPONENT_COUNT>
4
> <PUBCHEM_CACTVS_TAUTO_COUNT>
-1
> <PUBCHEM_COORDINATE_TYPE>
1
5
255
> <PUBCHEM_BONDANNOTATIONS>
13  14  3
17  19  8
17  20  8
19  22  8
20  23  8
21  22  8
21  23  8
$$$$
