517433
  -OEChem-10302200292D
 20 18  0     1  0  0  0  0  0999 V2000
    2.0190    0.0000    0.0000 Br  0  5  0  0  0  0  0  0  0  0  0  0
    4.0010    5.3100    0.0000 O   0  0  0  0  0  0  0  0  0  0  0  0
    3.1350    2.8100    0.0000 O   0  0  0  0  0  0  0  0  0  0  0  0
    3.1350    6.8100    0.0000 O   0  0  0  0  0  0  0  0  0  0  0  0
    4.0010    4.3100    0.0000 O   0  0  0  0  0  0  0  0  0  0  0  0
    1.4030    5.8100    0.0000 N   0  0  0  0  0  0  0  0  0  0  0  0
    0.5369    5.3100    0.0000 N   0  3  0  0  0  0  0  0  0  0  0  0
    2.2690    5.3100    0.0000 C   0  0  3  0  0  0  0  0  0  0  0  0
    2.2690    4.3100    0.0000 C   0  0  0  0  0  0  0  0  0  0  0  0
    3.1350    5.8100    0.0000 C   0  0  0  0  0  0  0  0  0  0  0  0
    3.1350    3.8100    0.0000 C   0  0  0  0  0  0  0  0  0  0  0  0
    2.2690    5.9300    0.0000 H   0  0  0  0  0  0  0  0  0  0  0  0
    1.6584    4.4177    0.0000 H   0  0  0  0  0  0  0  0  0  0  0  0
    2.0569    3.7274    0.0000 H   0  0  0  0  0  0  0  0  0  0  0  0
    1.4030    6.4300    0.0000 H   0  0  0  0  0  0  0  0  0  0  0  0
    0.0000    5.0000    0.0000 H   0  0  0  0  0  0  0  0  0  0  0  0
    0.2269    5.8469    0.0000 H   0  0  0  0  0  0  0  0  0  0  0  0
    0.8469    4.7731    0.0000 H   0  0  0  0  0  0  0  0  0  0  0  0
    4.5380    5.6200    0.0000 H   0  0  0  0  0  0  0  0  0  0  0  0
    3.6720    2.5000    0.0000 H   0  0  0  0  0  0  0  0  0  0  0  0
  2 10  1  0  0  0  0
  2 19  1  0  0  0  0
  3 11  1  0  0  0  0
  3 20  1  0  0  0  0
  4 10  2  0  0  0  0
  5 11  2  0  0  0  0
  6  7  1  0  0  0  0
  6  8  1  0  0  0  0
  6 15  1  0  0  0  0
  7 16  1  0  0  0  0
  7 17  1  0  0  0  0
  7 18  1  0  0  0  0
  8  9  1  0  0  0  0
  8 10  1  0  0  0  0
  8 12  1  0  0  0  0
  9 11  1  0  0  0  0
  9 13  1  0  0  0  0
  9 14  1  0  0  0  0
M  CHG  2   1  -1   7   1
M  END
> <PUBCHEM_COMPOUND_CID>
517433
> <PUBCHEM_COMPOUND_CANONICALIZED>
1
> <PUBCHEM_CACTVS_COMPLEXITY>
146
> <PUBCHEM_CACTVS_HBOND_ACCEPTOR>
6
> <PUBCHEM_CACTVS_HBOND_DONOR>
4
> <PUBCHEM_CACTVS_ROTATABLE_BOND>
4
> <PUBCHEM_CACTVS_SUBSKEYS>
AAADccBjOAAAEAAAAAAAAAAAAAAAAAAAAAAAAAAAAAAAAAAAAAAAHgAYCAAACCjBgAQACABiAgAIAACQCAAAAAAAAAIQIIGAAAACABgAAAAAQAAGEAAAAABDAAAAAAAAAAAAAAAAAAAAAAAAAAAAAAAAAA==
> <PUBCHEM_IUPAC_OPENEYE_NAME>
(1,2-dicarboxyethylamino)ammonium;bromide
> <PUBCHEM_IUPAC_CAS_NAME>
(1,2-dicarboxyethylamino)ammonium;bromide
> <PUBCHEM_IUPAC_NAME_MARKUP>
(1,2-dicarboxyethylamino)azanium;bromide
> <PUBCHEM_IUPAC_NAME>
(1,2-dicarboxyethylamino)azanium;bromide
> <PUBCHEM_IUPAC_SYSTEMATIC_NAME>
[[1,4-bis(oxidanyl)-1,4-bis(oxidanylidene)butan-2-yl]amino]azanium;bromide
> <PUBCHEM_IUPAC_TRADITIONAL_NAME>
(1,2-dicarboxyethylamino)ammonium;bromide
> <PUBCHEM_IUPAC_INCHI>
InChI=1S/C4H8N2O4.BrH/c5-6-2(4(9)10)1-3(7)8;/h2,6H,1,5H2,(H,7,8)(H,9,10);1H
> <PUBCHEM_IUPAC_INCHIKEY>
SMQPJHZJHJXKFR-UHFFFAOYSA-N
> <PUBCHEM_EXACT_MASS>
227.97457
> <PUBCHEM_MOLECULAR_FORMULA>
C4H9BrN2O4
> <PUBCHEM_MOLECULAR_WEIGHT>
229.03
> <PUBCHEM_OPENEYE_CAN_SMILES>
C(C(C(=O)O)N[NH3+])C(=O)O.[Br-]
> <PUBCHEM_OPENEYE_ISO_SMILES>
C(C(C(=O)O)N[NH3+])C(=O)O.[Br-]
> <PUBCHEM_CACTVS_TPSA>
114
> <PUBCHEM_MONOISOTOPIC_WEIGHT>
227.97457
> <PUBCHEM_TOTAL_CHARGE>
0
> <PUBCHEM_HEAVY_ATOM_COUNT>
11
> <PUBCHEM_ATOM_DEF_STEREO_COUNT>
0
> <PUBCHEM_ATOM_UDEF_STEREO_COUNT>
1
> <PUBCHEM_BOND_DEF_STEREO_COUNT>
0
> <PUBCHEM_BOND_UDEF_STEREO_COUNT>
0
> <PUBCHEM_ISOTOPIC_ATOM_COUNT>
0
> <PUBCHEM_COMPONENT_COUNT>
2
> <PUBCHEM_CACTVS_TAUTO_COUNT>
-1
> <PUBCHEM_COORDINATE_TYPE>
1
5
255
> <PUBCHEM_BONDANNOTATIONS>
8  9  3
$$$$
