517560
  -OEChem-10302200292D
 77 80  0     1  0  0  0  0  0999 V2000
    4.5653    0.0000    0.0000 Cl  0  0  0  0  0  0  0  0  0  0  0  0
    2.8567    2.8346    0.0000 N   0  0  0  0  0  0  0  0  0  0  0  0
    1.9907    4.3346    0.0000 C   0  0  3  0  0  0  0  0  0  0  0  0
    1.9907    5.3346    0.0000 C   0  0  3  0  0  0  0  0  0  0  0  0
    1.0445    4.0299    0.0000 C   0  0  3  0  0  0  0  0  0  0  0  0
    1.7816    3.3623    0.0000 C   0  0  0  0  0  0  0  0  0  0  0  0
    2.8567    5.8346    0.0000 C   0  0  3  0  0  0  0  0  0  0  0  0
    2.8567    3.8346    0.0000 C   0  0  3  0  0  0  0  0  0  0  0  0
    3.7228    5.3346    0.0000 C   0  0  3  0  0  0  0  0  0  0  0  0
    1.0445    5.6394    0.0000 C   0  0  0  0  0  0  0  0  0  0  0  0
    0.4609    4.8346    0.0000 C   0  0  0  0  0  0  0  0  0  0  0  0
    3.7228    4.3346    0.0000 C   0  0  0  0  0  0  0  0  0  0  0  0
    4.6328    5.8415    0.0000 C   0  0  3  0  0  0  0  0  0  0  0  0
    4.6408    6.8831    0.0000 C   0  0  3  0  0  0  0  0  0  0  0  0
    2.8407    6.8761    0.0000 C   0  0  0  0  0  0  0  0  0  0  0  0
    1.9907    6.3346    0.0000 C   0  0  0  0  0  0  0  0  0  0  0  0
    3.7387    7.4039    0.0000 C   0  0  0  0  0  0  0  0  0  0  0  0
    5.6288    7.1929    0.0000 C   0  0  3  0  0  0  0  0  0  0  0  0
    5.6159    5.5165    0.0000 C   0  0  0  0  0  0  0  0  0  0  0  0
    6.2302    6.3500    0.0000 C   0  0  0  0  0  0  0  0  0  0  0  0
    4.6485    7.8830    0.0000 C   0  0  0  0  0  0  0  0  0  0  0  0
    5.9468    8.1410    0.0000 C   0  0  3  0  0  0  0  0  0  0  0  0
    6.9269    8.3397    0.0000 C   0  0  0  0  0  0  0  0  0  0  0  0
    5.2847    8.8904    0.0000 C   0  0  0  0  0  0  0  0  0  0  0  0
    7.2448    9.2878    0.0000 C   0  0  0  0  0  0  0  0  0  0  0  0
    8.2249    9.4864    0.0000 C   0  0  0  0  0  0  0  0  0  0  0  0
    8.5429   10.4345    0.0000 C   0  0  0  0  0  0  0  0  0  0  0  0
    9.5230   10.6332    0.0000 C   0  0  0  0  0  0  0  0  0  0  0  0
    7.8808   11.1840    0.0000 C   0  0  0  0  0  0  0  0  0  0  0  0
    0.5830    3.6159    0.0000 H   0  0  0  0  0  0  0  0  0  0  0  0
    1.4517    2.8374    0.0000 H   0  0  0  0  0  0  0  0  0  0  0  0
    2.3559    3.1286    0.0000 H   0  0  0  0  0  0  0  0  0  0  0  0
    3.3912    6.1488    0.0000 H   0  0  0  0  0  0  0  0  0  0  0  0
    3.3937    3.5246    0.0000 H   0  0  0  0  0  0  0  0  0  0  0  0
    4.2573    5.0205    0.0000 H   0  0  0  0  0  0  0  0  0  0  0  0
    1.2955    6.2063    0.0000 H   0  0  0  0  0  0  0  0  0  0  0  0
    0.5071    5.9486    0.0000 H   0  0  0  0  0  0  0  0  0  0  0  0
    0.0000    5.2494    0.0000 H   0  0  0  0  0  0  0  0  0  0  0  0
    0.0000    4.4199    0.0000 H   0  0  0  0  0  0  0  0  0  0  0  0
    3.9348    3.7520    0.0000 H   0  0  0  0  0  0  0  0  0  0  0  0
    4.3333    4.4423    0.0000 H   0  0  0  0  0  0  0  0  0  0  0  0
    4.6912    5.2242    0.0000 H   0  0  0  0  0  0  0  0  0  0  0  0
    2.6226    7.4565    0.0000 H   0  0  0  0  0  0  0  0  0  0  0  0
    2.2315    6.7606    0.0000 H   0  0  0  0  0  0  0  0  0  0  0  0
    2.6107    6.3346    0.0000 H   0  0  0  0  0  0  0  0  0  0  0  0
    1.9907    6.9546    0.0000 H   0  0  0  0  0  0  0  0  0  0  0  0
    1.3707    6.3346    0.0000 H   0  0  0  0  0  0  0  0  0  0  0  0
    4.1360    7.8799    0.0000 H   0  0  0  0  0  0  0  0  0  0  0  0
    3.3377    7.8768    0.0000 H   0  0  0  0  0  0  0  0  0  0  0  0
    6.2420    7.2844    0.0000 H   0  0  0  0  0  0  0  0  0  0  0  0
    5.3605    4.9515    0.0000 H   0  0  0  0  0  0  0  0  0  0  0  0
    6.1509    5.2031    0.0000 H   0  0  0  0  0  0  0  0  0  0  0  0
    3.3937    2.5246    0.0000 H   0  0  0  0  0  0  0  0  0  0  0  0
    2.3198    2.5246    0.0000 H   0  0  0  0  0  0  0  0  0  0  0  0
    6.6879    5.9317    0.0000 H   0  0  0  0  0  0  0  0  0  0  0  0
    6.6943    6.7612    0.0000 H   0  0  0  0  0  0  0  0  0  0  0  0
    5.2685    7.8783    0.0000 H   0  0  0  0  0  0  0  0  0  0  0  0
    4.6533    8.5030    0.0000 H   0  0  0  0  0  0  0  0  0  0  0  0
    4.0285    7.8878    0.0000 H   0  0  0  0  0  0  0  0  0  0  0  0
    6.1439    8.7288    0.0000 H   0  0  0  0  0  0  0  0  0  0  0  0
    6.9426    7.7199    0.0000 H   0  0  0  0  0  0  0  0  0  0  0  0
    7.5400    8.2476    0.0000 H   0  0  0  0  0  0  0  0  0  0  0  0
    5.7494    9.3009    0.0000 H   0  0  0  0  0  0  0  0  0  0  0  0
    4.8742    9.3551    0.0000 H   0  0  0  0  0  0  0  0  0  0  0  0
    4.8201    8.4799    0.0000 H   0  0  0  0  0  0  0  0  0  0  0  0
    7.2290    9.9076    0.0000 H   0  0  0  0  0  0  0  0  0  0  0  0
    6.6317    9.3798    0.0000 H   0  0  0  0  0  0  0  0  0  0  0  0
    8.2407    8.8666    0.0000 H   0  0  0  0  0  0  0  0  0  0  0  0
    8.8380    9.3944    0.0000 H   0  0  0  0  0  0  0  0  0  0  0  0
    8.9534    9.9699    0.0000 H   0  0  0  0  0  0  0  0  0  0  0  0
    9.6461   10.0256    0.0000 H   0  0  0  0  0  0  0  0  0  0  0  0
   10.1306   10.7564    0.0000 H   0  0  0  0  0  0  0  0  0  0  0  0
    9.3998   11.2408    0.0000 H   0  0  0  0  0  0  0  0  0  0  0  0
    8.3454   11.5944    0.0000 H   0  0  0  0  0  0  0  0  0  0  0  0
    7.4703   11.6486    0.0000 H   0  0  0  0  0  0  0  0  0  0  0  0
    7.4162   10.7735    0.0000 H   0  0  0  0  0  0  0  0  0  0  0  0
    5.5653    0.0000    0.0000 H   0  0  0  0  0  0  0  0  0  0  0  0
  1 77  1  0  0  0  0
  2  8  1  0  0  0  0
  2 53  1  0  0  0  0
  2 54  1  0  0  0  0
  3  4  1  0  0  0  0
  3  5  1  0  0  0  0
  3  6  1  0  0  0  0
  3  8  1  0  0  0  0
  4  7  1  0  0  0  0
  4 10  1  0  0  0  0
  4 16  1  0  0  0  0
  5  6  1  0  0  0  0
  5 11  1  0  0  0  0
  5 30  1  0  0  0  0
  6 31  1  0  0  0  0
  6 32  1  0  0  0  0
  7  9  1  0  0  0  0
  7 15  1  0  0  0  0
  7 33  1  0  0  0  0
  8 12  1  0  0  0  0
  8 34  1  0  0  0  0
  9 12  1  0  0  0  0
  9 13  1  0  0  0  0
  9 35  1  0  0  0  0
 10 11  1  0  0  0  0
 10 36  1  0  0  0  0
 10 37  1  0  0  0  0
 11 38  1  0  0  0  0
 11 39  1  0  0  0  0
 12 40  1  0  0  0  0
 12 41  1  0  0  0  0
 13 14  1  0  0  0  0
 13 19  1  0  0  0  0
 13 42  1  0  0  0  0
 14 17  1  0  0  0  0
 14 18  1  0  0  0  0
 14 21  1  0  0  0  0
 15 17  1  0  0  0  0
 15 43  1  0  0  0  0
 15 44  1  0  0  0  0
 16 45  1  0  0  0  0
 16 46  1  0  0  0  0
 16 47  1  0  0  0  0
 17 48  1  0  0  0  0
 17 49  1  0  0  0  0
 18 20  1  0  0  0  0
 18 22  1  0  0  0  0
 18 50  1  0  0  0  0
 19 20  1  0  0  0  0
 19 51  1  0  0  0  0
 19 52  1  0  0  0  0
 20 55  1  0  0  0  0
 20 56  1  0  0  0  0
 21 57  1  0  0  0  0
 21 58  1  0  0  0  0
 21 59  1  0  0  0  0
 22 23  1  0  0  0  0
 22 24  1  0  0  0  0
 22 60  1  0  0  0  0
 23 25  1  0  0  0  0
 23 61  1  0  0  0  0
 23 62  1  0  0  0  0
 24 63  1  0  0  0  0
 24 64  1  0  0  0  0
 24 65  1  0  0  0  0
 25 26  1  0  0  0  0
 25 66  1  0  0  0  0
 25 67  1  0  0  0  0
 26 27  1  0  0  0  0
 26 68  1  0  0  0  0
 26 69  1  0  0  0  0
 27 28  1  0  0  0  0
 27 29  1  0  0  0  0
 27 70  1  0  0  0  0
 28 71  1  0  0  0  0
 28 72  1  0  0  0  0
 28 73  1  0  0  0  0
 29 74  1  0  0  0  0
 29 75  1  0  0  0  0
 29 76  1  0  0  0  0
M  END
> <PUBCHEM_COMPOUND_CID>
517560
> <PUBCHEM_COMPOUND_CANONICALIZED>
1
> <PUBCHEM_CACTVS_COMPLEXITY>
611
> <PUBCHEM_CACTVS_HBOND_ACCEPTOR>
1
> <PUBCHEM_CACTVS_HBOND_DONOR>
2
> <PUBCHEM_CACTVS_ROTATABLE_BOND>
5
> <PUBCHEM_CACTVS_SUBSKEYS>
AAADcfB6AAAEAAAAAAAAAAAAGAAAAYMAAAAwYMAAAAAAAGDAAAAAHAAQAAAADyjBAAQCAABAAAAAAAAAAAAAAAAAAAAAAIAAAAAAAAIAgAAAAAAAEAAAAAEQgMAPgAAAAAAAAACQAASAACQAAQAACAAAAA==
> <PUBCHEM_IUPAC_OPENEYE_NAME>
14-(1,5-dimethylhexyl)-2,15-dimethyl-pentacyclo[8.7.0.02,7.05,7.011,15]heptadecan-8-amine;hydrochloride
> <PUBCHEM_IUPAC_CAS_NAME>
2,15-dimethyl-14-(6-methylheptan-2-yl)-8-pentacyclo[8.7.0.02,7.05,7.011,15]heptadecanamine;hydrochloride
> <PUBCHEM_IUPAC_NAME_MARKUP>
2,15-dimethyl-14-(6-methylheptan-2-yl)pentacyclo[8.7.0.0<SUP>2,7</SUP>.0<SUP>5,7</SUP>.0<SUP>11,15</SUP>]heptadecan-8-amine;hydrochloride
> <PUBCHEM_IUPAC_NAME>
2,15-dimethyl-14-(6-methylheptan-2-yl)pentacyclo[8.7.0.02,7.05,7.011,15]heptadecan-8-amine;hydrochloride
> <PUBCHEM_IUPAC_SYSTEMATIC_NAME>
2,15-dimethyl-14-(6-methylheptan-2-yl)pentacyclo[8.7.0.02,7.05,7.011,15]heptadecan-8-amine;hydrochloride
> <PUBCHEM_IUPAC_TRADITIONAL_NAME>
[14-(1,5-dimethylhexyl)-2,15-dimethyl-8-pentacyclo[8.7.0.02,7.05,7.011,15]heptadecanyl]amine;hydrochloride
> <PUBCHEM_IUPAC_INCHI>
InChI=1S/C27H47N.ClH/c1-17(2)7-6-8-18(3)21-9-10-22-20-15-24(28)27-16-19(27)11-14-26(27,5)23(20)12-13-25(21,22)4;/h17-24H,6-16,28H2,1-5H3;1H
> <PUBCHEM_IUPAC_INCHIKEY>
OWUIIMSSXYMPQL-UHFFFAOYSA-N
> <PUBCHEM_EXACT_MASS>
421.3475282
> <PUBCHEM_MOLECULAR_FORMULA>
C27H48ClN
> <PUBCHEM_MOLECULAR_WEIGHT>
422.1
> <PUBCHEM_OPENEYE_CAN_SMILES>
CC(C)CCCC(C)C1CCC2C1(CCC3C2CC(C45C3(CCC4C5)C)N)C.Cl
> <PUBCHEM_OPENEYE_ISO_SMILES>
CC(C)CCCC(C)C1CCC2C1(CCC3C2CC(C45C3(CCC4C5)C)N)C.Cl
> <PUBCHEM_CACTVS_TPSA>
26
> <PUBCHEM_MONOISOTOPIC_WEIGHT>
421.3475282
> <PUBCHEM_TOTAL_CHARGE>
0
> <PUBCHEM_HEAVY_ATOM_COUNT>
29
> <PUBCHEM_ATOM_DEF_STEREO_COUNT>
0
> <PUBCHEM_ATOM_UDEF_STEREO_COUNT>
10
> <PUBCHEM_BOND_DEF_STEREO_COUNT>
0
> <PUBCHEM_BOND_UDEF_STEREO_COUNT>
0
> <PUBCHEM_ISOTOPIC_ATOM_COUNT>
0
> <PUBCHEM_COMPONENT_COUNT>
2
> <PUBCHEM_CACTVS_TAUTO_COUNT>
-1
> <PUBCHEM_COORDINATE_TYPE>
1
5
255
> <PUBCHEM_BONDANNOTATIONS>
13  19  3
14  21  3
18  20  3
8  2  3
22  24  3
3  6  3
4  16  3
5  11  3
7  15  3
9  12  3
$$$$
