517543
  -OEChem-10302200292D
 22 21  0     1  0  0  0  0  0999 V2000
    5.1350    0.7500    0.0000 O   0  5  0  0  0  0  0  0  0  0  0  0
    4.2690    2.2500    0.0000 O   0  0  0  0  0  0  0  0  0  0  0  0
    2.5369    1.2500    0.0000 N   0  3  0  0  0  0  0  0  0  0  0  0
    3.4030   -0.2500    0.0000 C   0  0  0  0  0  0  0  0  0  0  0  0
    3.4030    0.7500    0.0000 C   0  0  3  0  0  0  0  0  0  0  0  0
    4.2690   -0.7500    0.0000 C   0  0  0  0  0  0  0  0  0  0  0  0
    4.2690   -1.7500    0.0000 C   0  0  0  0  0  0  0  0  0  0  0  0
    4.2690    1.2500    0.0000 C   0  0  0  0  0  0  0  0  0  0  0  0
    5.1350   -2.2500    0.0000 C   0  0  0  0  0  0  0  0  0  0  0  0
    2.7924   -0.1423    0.0000 H   0  0  0  0  0  0  0  0  0  0  0  0
    3.1909   -0.8326    0.0000 H   0  0  0  0  0  0  0  0  0  0  0  0
    3.4030    1.3700    0.0000 H   0  0  0  0  0  0  0  0  0  0  0  0
    4.8796   -0.8577    0.0000 H   0  0  0  0  0  0  0  0  0  0  0  0
    4.4810   -0.1674    0.0000 H   0  0  0  0  0  0  0  0  0  0  0  0
    3.6584   -1.6423    0.0000 H   0  0  0  0  0  0  0  0  0  0  0  0
    4.0569   -2.3326    0.0000 H   0  0  0  0  0  0  0  0  0  0  0  0
    2.0000    1.5600    0.0000 H   0  0  0  0  0  0  0  0  0  0  0  0
    2.2269    0.7131    0.0000 H   0  0  0  0  0  0  0  0  0  0  0  0
    2.8469    1.7869    0.0000 H   0  0  0  0  0  0  0  0  0  0  0  0
    4.8250   -2.7869    0.0000 H   0  0  0  0  0  0  0  0  0  0  0  0
    5.6720   -2.5600    0.0000 H   0  0  0  0  0  0  0  0  0  0  0  0
    5.4450   -1.7131    0.0000 H   0  0  0  0  0  0  0  0  0  0  0  0
  1  8  1  0  0  0  0
  2  8  2  0  0  0  0
  3  5  1  0  0  0  0
  3 17  1  0  0  0  0
  3 18  1  0  0  0  0
  3 19  1  0  0  0  0
  4  5  1  0  0  0  0
  4  6  1  0  0  0  0
  4 10  1  0  0  0  0
  4 11  1  0  0  0  0
  5  8  1  0  0  0  0
  5 12  1  0  0  0  0
  6  7  1  0  0  0  0
  6 13  1  0  0  0  0
  6 14  1  0  0  0  0
  7  9  1  0  0  0  0
  7 15  1  0  0  0  0
  7 16  1  0  0  0  0
  9 20  1  0  0  0  0
  9 21  1  0  0  0  0
  9 22  1  0  0  0  0
M  CHG  2   1  -1   3   1
M  END
> <PUBCHEM_COMPOUND_CID>
517543
> <PUBCHEM_COMPOUND_CANONICALIZED>
1
> <PUBCHEM_CACTVS_COMPLEXITY>
87.5
> <PUBCHEM_CACTVS_HBOND_ACCEPTOR>
2
> <PUBCHEM_CACTVS_HBOND_DONOR>
1
> <PUBCHEM_CACTVS_ROTATABLE_BOND>
3
> <PUBCHEM_CACTVS_SUBSKEYS>
AAADccBiMAAAAAAAAAAAAAAAAAAAAAAAAAAAAAAAAAAAAAAAAAAAHgAQAAAACCjBgAQCCABAAAAIAACQCAAAAAAAAAAAAIGAAAACABIAgAAAAAAEEAAAAAGYSAAAAAAAAAAAAAAAAAAAAAAAAAAAAAAAAA==
> <PUBCHEM_IUPAC_OPENEYE_NAME>
2-azaniumylhexanoate
> <PUBCHEM_IUPAC_CAS_NAME>
2-ammoniohexanoate
> <PUBCHEM_IUPAC_NAME_MARKUP>
2-azaniumylhexanoate
> <PUBCHEM_IUPAC_NAME>
2-azaniumylhexanoate
> <PUBCHEM_IUPAC_SYSTEMATIC_NAME>
2-azaniumylhexanoate
> <PUBCHEM_IUPAC_TRADITIONAL_NAME>
2-ammoniohexanoate
> <PUBCHEM_IUPAC_INCHI>
InChI=1S/C6H13NO2/c1-2-3-4-5(7)6(8)9/h5H,2-4,7H2,1H3,(H,8,9)
> <PUBCHEM_IUPAC_INCHIKEY>
LRQKBLKVPFOOQJ-UHFFFAOYSA-N
> <PUBCHEM_XLOGP3>
-0.9
> <PUBCHEM_EXACT_MASS>
131.094628657
> <PUBCHEM_MOLECULAR_FORMULA>
C6H13NO2
> <PUBCHEM_MOLECULAR_WEIGHT>
131.17
> <PUBCHEM_OPENEYE_CAN_SMILES>
CCCCC(C(=O)[O-])[NH3+]
> <PUBCHEM_OPENEYE_ISO_SMILES>
CCCCC(C(=O)[O-])[NH3+]
> <PUBCHEM_CACTVS_TPSA>
67.8
> <PUBCHEM_MONOISOTOPIC_WEIGHT>
131.094628657
> <PUBCHEM_TOTAL_CHARGE>
0
> <PUBCHEM_HEAVY_ATOM_COUNT>
9
> <PUBCHEM_ATOM_DEF_STEREO_COUNT>
0
> <PUBCHEM_ATOM_UDEF_STEREO_COUNT>
1
> <PUBCHEM_BOND_DEF_STEREO_COUNT>
0
> <PUBCHEM_BOND_UDEF_STEREO_COUNT>
0
> <PUBCHEM_ISOTOPIC_ATOM_COUNT>
0
> <PUBCHEM_COMPONENT_COUNT>
1
> <PUBCHEM_CACTVS_TAUTO_COUNT>
-1
> <PUBCHEM_COORDINATE_TYPE>
1
5
255
> <PUBCHEM_BONDANNOTATIONS>
5  3  3
$$$$
