517512
  -OEChem-10302200292D
 19 19  0     1  0  0  0  0  0999 V2000
    4.2690    1.6270    0.0000 S   0  0  0  0  0  0  0  0  0  0  0  0
    2.5369    1.6270    0.0000 O   0  0  0  0  0  0  0  0  0  0  0  0
    5.1350    2.1270    0.0000 O   0  5  0  0  0  0  0  0  0  0  0  0
    3.7690    2.4930    0.0000 O   0  0  0  0  0  0  0  0  0  0  0  0
    4.7690    0.7610    0.0000 O   0  0  0  0  0  0  0  0  0  0  0  0
    3.4030   -1.8730    0.0000 N   0  3  0  0  0  0  0  0  0  0  0  0
    3.4030    1.1270    0.0000 C   0  0  3  0  0  0  0  0  0  0  0  0
    3.4030    0.1270    0.0000 C   0  0  0  0  0  0  0  0  0  0  0  0
    2.5369   -0.3730    0.0000 C   0  0  0  0  0  0  0  0  0  0  0  0
    4.2690   -0.3730    0.0000 C   0  0  0  0  0  0  0  0  0  0  0  0
    2.5369   -1.3730    0.0000 C   0  0  0  0  0  0  0  0  0  0  0  0
    4.2690   -1.3730    0.0000 C   0  0  0  0  0  0  0  0  0  0  0  0
    3.4030    1.7470    0.0000 H   0  0  0  0  0  0  0  0  0  0  0  0
    2.0000   -0.0630    0.0000 H   0  0  0  0  0  0  0  0  0  0  0  0
    4.8059   -0.0630    0.0000 H   0  0  0  0  0  0  0  0  0  0  0  0
    2.0000   -1.6830    0.0000 H   0  0  0  0  0  0  0  0  0  0  0  0
    4.8059   -1.6830    0.0000 H   0  0  0  0  0  0  0  0  0  0  0  0
    3.4030   -2.4930    0.0000 H   0  0  0  0  0  0  0  0  0  0  0  0
    2.0000    1.3170    0.0000 H   0  0  0  0  0  0  0  0  0  0  0  0
  1  3  1  0  0  0  0
  1  4  2  0  0  0  0
  1  5  2  0  0  0  0
  1  7  1  0  0  0  0
  2  7  1  0  0  0  0
  2 19  1  0  0  0  0
  6 11  2  0  0  0  0
  6 12  1  0  0  0  0
  6 18  1  0  0  0  0
  7  8  1  0  0  0  0
  7 13  1  0  0  0  0
  8  9  2  0  0  0  0
  8 10  1  0  0  0  0
  9 11  1  0  0  0  0
  9 14  1  0  0  0  0
 10 12  2  0  0  0  0
 10 15  1  0  0  0  0
 11 16  1  0  0  0  0
 12 17  1  0  0  0  0
M  CHG  2   3  -1   6   1
M  END
> <PUBCHEM_COMPOUND_CID>
517512
> <PUBCHEM_COMPOUND_CANONICALIZED>
1
> <PUBCHEM_CACTVS_COMPLEXITY>
213
> <PUBCHEM_CACTVS_HBOND_ACCEPTOR>
4
> <PUBCHEM_CACTVS_HBOND_DONOR>
2
> <PUBCHEM_CACTVS_ROTATABLE_BOND>
1
> <PUBCHEM_CACTVS_SUBSKEYS>
AAADcYBiOABAAAAAAAAAAAAAAAAAAAAAAAAsAAAAAAAAAAABgAAAHgQQCAAADADl2ga8gJLJkgKgAjBnRHDCgCAxAiAI2aA4bJgINmLAkZGEcAhk0AHI2AYwAAAKAAAAAAAAAAAAAAAAAAAAAAAAAAAAAA==
> <PUBCHEM_IUPAC_OPENEYE_NAME>
hydroxy(pyridin-1-ium-4-yl)methanesulfonate
> <PUBCHEM_IUPAC_CAS_NAME>
hydroxy(4-pyridin-1-iumyl)methanesulfonate
> <PUBCHEM_IUPAC_NAME_MARKUP>
hydroxy(pyridin-1-ium-4-yl)methanesulfonate
> <PUBCHEM_IUPAC_NAME>
hydroxy(pyridin-1-ium-4-yl)methanesulfonate
> <PUBCHEM_IUPAC_SYSTEMATIC_NAME>
oxidanyl(pyridin-1-ium-4-yl)methanesulfonate
> <PUBCHEM_IUPAC_TRADITIONAL_NAME>
hydroxy(pyridin-1-ium-4-yl)methanesulfonate
> <PUBCHEM_IUPAC_INCHI>
InChI=1S/C6H7NO4S/c8-6(12(9,10)11)5-1-3-7-4-2-5/h1-4,6,8H,(H,9,10,11)
> <PUBCHEM_IUPAC_INCHIKEY>
LQGYKYJLWSWUAR-UHFFFAOYSA-N
> <PUBCHEM_XLOGP3_AA>
-0.9
> <PUBCHEM_EXACT_MASS>
189.00957888
> <PUBCHEM_MOLECULAR_FORMULA>
C6H7NO4S
> <PUBCHEM_MOLECULAR_WEIGHT>
189.19
> <PUBCHEM_OPENEYE_CAN_SMILES>
C1=C[NH+]=CC=C1C(O)S(=O)(=O)[O-]
> <PUBCHEM_OPENEYE_ISO_SMILES>
C1=C[NH+]=CC=C1C(O)S(=O)(=O)[O-]
> <PUBCHEM_CACTVS_TPSA>
100
> <PUBCHEM_MONOISOTOPIC_WEIGHT>
189.00957888
> <PUBCHEM_TOTAL_CHARGE>
0
> <PUBCHEM_HEAVY_ATOM_COUNT>
12
> <PUBCHEM_ATOM_DEF_STEREO_COUNT>
0
> <PUBCHEM_ATOM_UDEF_STEREO_COUNT>
1
> <PUBCHEM_BOND_DEF_STEREO_COUNT>
0
> <PUBCHEM_BOND_UDEF_STEREO_COUNT>
0
> <PUBCHEM_ISOTOPIC_ATOM_COUNT>
0
> <PUBCHEM_COMPONENT_COUNT>
1
> <PUBCHEM_CACTVS_TAUTO_COUNT>
-1
> <PUBCHEM_COORDINATE_TYPE>
1
5
255
> <PUBCHEM_BONDANNOTATIONS>
10  12  8
7  2  3
6  11  8
6  12  8
8  10  8
8  9  8
9  11  8
$$$$
