517579
  -OEChem-10302200292D
 44 44  0     1  0  0  0  0  0999 V2000
    4.5981   -1.0000    0.0000 N   0  0  0  0  0  0  0  0  0  0  0  0
    3.7320   -1.5000    0.0000 C   0  0  3  0  0  0  0  0  0  0  0  0
    3.7320   -2.5000    0.0000 C   0  0  0  0  0  0  0  0  0  0  0  0
    4.5981    3.0000    0.0000 C   0  0  0  0  0  0  0  0  0  0  0  0
    2.8660   -3.0000    0.0000 C   0  0  0  0  0  0  0  0  0  0  0  0
    4.5981    2.0000    0.0000 C   0  0  0  0  0  0  0  0  0  0  0  0
    4.5981   -0.0000    0.0000 C   0  0  0  0  0  0  0  0  0  0  0  0
    2.8660   -1.0000    0.0000 C   0  0  0  0  0  0  0  0  0  0  0  0
    4.5981    4.0000    0.0000 C   0  0  0  0  0  0  0  0  0  0  0  0
    5.5981    3.0000    0.0000 C   0  0  0  0  0  0  0  0  0  0  0  0
    3.5981    3.0000    0.0000 C   0  0  0  0  0  0  0  0  0  0  0  0
    2.8660   -4.0000    0.0000 C   0  0  0  0  0  0  0  0  0  0  0  0
    2.0000   -2.5000    0.0000 C   0  0  0  0  0  0  0  0  0  0  0  0
    5.4641    1.5000    0.0000 C   0  0  0  0  0  0  0  0  0  0  0  0
    3.7320    1.5000    0.0000 C   0  0  0  0  0  0  0  0  0  0  0  0
    5.4641    0.5000    0.0000 C   0  0  0  0  0  0  0  0  0  0  0  0
    3.7320    0.5000    0.0000 C   0  0  0  0  0  0  0  0  0  0  0  0
    3.7320   -0.8800    0.0000 H   0  0  0  0  0  0  0  0  0  0  0  0
    3.9441   -3.0826    0.0000 H   0  0  0  0  0  0  0  0  0  0  0  0
    4.3426   -2.3923    0.0000 H   0  0  0  0  0  0  0  0  0  0  0  0
    2.8660   -2.3800    0.0000 H   0  0  0  0  0  0  0  0  0  0  0  0
    5.1350   -1.3100    0.0000 H   0  0  0  0  0  0  0  0  0  0  0  0
    3.1760   -0.4631    0.0000 H   0  0  0  0  0  0  0  0  0  0  0  0
    2.3291   -0.6900    0.0000 H   0  0  0  0  0  0  0  0  0  0  0  0
    2.5560   -1.5369    0.0000 H   0  0  0  0  0  0  0  0  0  0  0  0
    5.2181    4.0000    0.0000 H   0  0  0  0  0  0  0  0  0  0  0  0
    4.5981    4.6200    0.0000 H   0  0  0  0  0  0  0  0  0  0  0  0
    3.9781    4.0000    0.0000 H   0  0  0  0  0  0  0  0  0  0  0  0
    5.5981    2.3800    0.0000 H   0  0  0  0  0  0  0  0  0  0  0  0
    6.2181    3.0000    0.0000 H   0  0  0  0  0  0  0  0  0  0  0  0
    5.5981    3.6200    0.0000 H   0  0  0  0  0  0  0  0  0  0  0  0
    3.5981    3.6200    0.0000 H   0  0  0  0  0  0  0  0  0  0  0  0
    2.9781    3.0000    0.0000 H   0  0  0  0  0  0  0  0  0  0  0  0
    3.5981    2.3800    0.0000 H   0  0  0  0  0  0  0  0  0  0  0  0
    2.2460   -4.0000    0.0000 H   0  0  0  0  0  0  0  0  0  0  0  0
    2.8660   -4.6200    0.0000 H   0  0  0  0  0  0  0  0  0  0  0  0
    3.4860   -4.0000    0.0000 H   0  0  0  0  0  0  0  0  0  0  0  0
    2.3100   -1.9631    0.0000 H   0  0  0  0  0  0  0  0  0  0  0  0
    1.4631   -2.1900    0.0000 H   0  0  0  0  0  0  0  0  0  0  0  0
    1.6900   -3.0369    0.0000 H   0  0  0  0  0  0  0  0  0  0  0  0
    6.0010    1.8100    0.0000 H   0  0  0  0  0  0  0  0  0  0  0  0
    3.1951    1.8100    0.0000 H   0  0  0  0  0  0  0  0  0  0  0  0
    6.0010    0.1900    0.0000 H   0  0  0  0  0  0  0  0  0  0  0  0
    3.1951    0.1900    0.0000 H   0  0  0  0  0  0  0  0  0  0  0  0
  1  2  1  0  0  0  0
  1  7  1  0  0  0  0
  1 22  1  0  0  0  0
  2  3  1  0  0  0  0
  2  8  1  0  0  0  0
  2 18  1  0  0  0  0
  3  5  1  0  0  0  0
  3 19  1  0  0  0  0
  3 20  1  0  0  0  0
  4  6  1  0  0  0  0
  4  9  1  0  0  0  0
  4 10  1  0  0  0  0
  4 11  1  0  0  0  0
  5 12  1  0  0  0  0
  5 13  1  0  0  0  0
  5 21  1  0  0  0  0
  6 14  2  0  0  0  0
  6 15  1  0  0  0  0
  7 16  2  0  0  0  0
  7 17  1  0  0  0  0
  8 23  1  0  0  0  0
  8 24  1  0  0  0  0
  8 25  1  0  0  0  0
  9 26  1  0  0  0  0
  9 27  1  0  0  0  0
  9 28  1  0  0  0  0
 10 29  1  0  0  0  0
 10 30  1  0  0  0  0
 10 31  1  0  0  0  0
 11 32  1  0  0  0  0
 11 33  1  0  0  0  0
 11 34  1  0  0  0  0
 12 35  1  0  0  0  0
 12 36  1  0  0  0  0
 12 37  1  0  0  0  0
 13 38  1  0  0  0  0
 13 39  1  0  0  0  0
 13 40  1  0  0  0  0
 14 16  1  0  0  0  0
 14 41  1  0  0  0  0
 15 17  2  0  0  0  0
 15 42  1  0  0  0  0
 16 43  1  0  0  0  0
 17 44  1  0  0  0  0
M  END
> <PUBCHEM_COMPOUND_CID>
517579
> <PUBCHEM_COMPOUND_CANONICALIZED>
1
> <PUBCHEM_CACTVS_COMPLEXITY>
206
> <PUBCHEM_CACTVS_HBOND_ACCEPTOR>
1
> <PUBCHEM_CACTVS_HBOND_DONOR>
1
> <PUBCHEM_CACTVS_ROTATABLE_BOND>
5
> <PUBCHEM_CACTVS_SUBSKEYS>
AAADceB6AAAAAAAAAAAAAAAAAAAAAAAAAAAwAAAAAAAAAAABAAAAHAAQAAAADyjBGAQywILAAACAAiRCQACCAAAhAgAIiIAIZIgIICLAkZGEIAhgkADIyAcQgMAPiAAAAAAAAAAQAAAAAAAAAAAAAAAAAA==
> <PUBCHEM_IUPAC_OPENEYE_NAME>
4-tert-butyl-N-(1,3-dimethylbutyl)aniline
> <PUBCHEM_IUPAC_CAS_NAME>
4-tert-butyl-N-(4-methylpentan-2-yl)aniline
> <PUBCHEM_IUPAC_NAME_MARKUP>
4-<I>tert</I>-butyl-<I>N</I>-(4-methylpentan-2-yl)aniline
> <PUBCHEM_IUPAC_NAME>
4-tert-butyl-N-(4-methylpentan-2-yl)aniline
> <PUBCHEM_IUPAC_SYSTEMATIC_NAME>
4-tert-butyl-N-(4-methylpentan-2-yl)aniline
> <PUBCHEM_IUPAC_TRADITIONAL_NAME>
(4-tert-butylphenyl)-(1,3-dimethylbutyl)amine
> <PUBCHEM_IUPAC_INCHI>
InChI=1S/C16H27N/c1-12(2)11-13(3)17-15-9-7-14(8-10-15)16(4,5)6/h7-10,12-13,17H,11H2,1-6H3
> <PUBCHEM_IUPAC_INCHIKEY>
FMRJPZKPQMPPAA-UHFFFAOYSA-N
> <PUBCHEM_XLOGP3_AA>
5.7
> <PUBCHEM_EXACT_MASS>
233.214349865
> <PUBCHEM_MOLECULAR_FORMULA>
C16H27N
> <PUBCHEM_MOLECULAR_WEIGHT>
233.39
> <PUBCHEM_OPENEYE_CAN_SMILES>
CC(C)CC(C)NC1=CC=C(C=C1)C(C)(C)C
> <PUBCHEM_OPENEYE_ISO_SMILES>
CC(C)CC(C)NC1=CC=C(C=C1)C(C)(C)C
> <PUBCHEM_CACTVS_TPSA>
12
> <PUBCHEM_MONOISOTOPIC_WEIGHT>
233.214349865
> <PUBCHEM_TOTAL_CHARGE>
0
> <PUBCHEM_HEAVY_ATOM_COUNT>
17
> <PUBCHEM_ATOM_DEF_STEREO_COUNT>
0
> <PUBCHEM_ATOM_UDEF_STEREO_COUNT>
1
> <PUBCHEM_BOND_DEF_STEREO_COUNT>
0
> <PUBCHEM_BOND_UDEF_STEREO_COUNT>
0
> <PUBCHEM_ISOTOPIC_ATOM_COUNT>
0
> <PUBCHEM_COMPONENT_COUNT>
1
> <PUBCHEM_CACTVS_TAUTO_COUNT>
-1
> <PUBCHEM_COORDINATE_TYPE>
1
5
255
> <PUBCHEM_BONDANNOTATIONS>
14  16  8
15  17  8
2  8  3
6  14  8
6  15  8
7  16  8
7  17  8
$$$$
