517559
  -OEChem-10302200292D
 52 53  0     1  0  0  0  0  0999 V2000
    2.0005    4.1200    0.0000 O   0  0  0  0  0  0  0  0  0  0  0  0
    2.2690   11.5500    0.0000 O   0  0  0  0  0  0  0  0  0  0  0  0
    6.5991   13.0500    0.0000 O   0  0  0  0  0  0  0  0  0  0  0  0
    0.5369    9.5500    0.0000 O   0  0  0  0  0  0  0  0  0  0  0  0
    1.4030   11.0500    0.0000 O   0  0  0  0  0  0  0  0  0  0  0  0
    3.7326    5.1200    0.0000 N   0  0  0  0  0  0  0  0  0  0  0  0
    2.8665    3.6200    0.0000 C   0  0  3  0  0  0  0  0  0  0  0  0
    3.7326    4.1200    0.0000 C   0  0  3  0  0  0  0  0  0  0  0  0
    2.8665    2.6200    0.0000 C   0  0  0  0  0  0  0  0  0  0  0  0
    4.5986    3.6200    0.0000 C   0  0  0  0  0  0  0  0  0  0  0  0
    3.7326    2.1200    0.0000 C   0  0  0  0  0  0  0  0  0  0  0  0
    2.0005    2.1200    0.0000 C   0  0  0  0  0  0  0  0  0  0  0  0
    3.7326    1.1200    0.0000 C   0  0  0  0  0  0  0  0  0  0  0  0
    2.0005    1.1200    0.0000 C   0  0  0  0  0  0  0  0  0  0  0  0
    2.8665    0.6200    0.0000 C   0  0  0  0  0  0  0  0  0  0  0  0
    3.1350   10.0500    0.0000 C   0  0  0  0  0  0  0  0  0  0  0  0
    4.0010   11.5500    0.0000 C   0  0  0  0  0  0  0  0  0  0  0  0
    3.1350   11.0500    0.0000 C   0  0  0  0  0  0  0  0  0  0  0  0
    2.2690    9.5500    0.0000 C   0  0  0  0  0  0  0  0  0  0  0  0
    4.0010    9.5500    0.0000 C   0  0  0  0  0  0  0  0  0  0  0  0
    2.2690    8.5500    0.0000 C   0  0  0  0  0  0  0  0  0  0  0  0
    4.8671   11.0500    0.0000 C   0  0  0  0  0  0  0  0  0  0  0  0
    4.0010   12.5500    0.0000 C   0  0  0  0  0  0  0  0  0  0  0  0
    4.0010    8.5500    0.0000 C   0  0  0  0  0  0  0  0  0  0  0  0
    3.1350    8.0500    0.0000 C   0  0  0  0  0  0  0  0  0  0  0  0
    5.7331   11.5500    0.0000 C   0  0  0  0  0  0  0  0  0  0  0  0
    4.8671   13.0500    0.0000 C   0  0  0  0  0  0  0  0  0  0  0  0
    5.7331   12.5500    0.0000 C   0  0  0  0  0  0  0  0  0  0  0  0
    1.4030   10.0500    0.0000 C   0  0  0  0  0  0  0  0  0  0  0  0
    2.8665    4.2400    0.0000 H   0  0  0  0  0  0  0  0  0  0  0  0
    4.2695    4.4300    0.0000 H   0  0  0  0  0  0  0  0  0  0  0  0
    4.2886    3.0831    0.0000 H   0  0  0  0  0  0  0  0  0  0  0  0
    5.1355    3.3100    0.0000 H   0  0  0  0  0  0  0  0  0  0  0  0
    4.9086    4.1569    0.0000 H   0  0  0  0  0  0  0  0  0  0  0  0
    4.2695    5.4300    0.0000 H   0  0  0  0  0  0  0  0  0  0  0  0
    3.1956    5.4300    0.0000 H   0  0  0  0  0  0  0  0  0  0  0  0
    4.2695    2.4300    0.0000 H   0  0  0  0  0  0  0  0  0  0  0  0
    1.4636    2.4300    0.0000 H   0  0  0  0  0  0  0  0  0  0  0  0
    2.0005    4.7400    0.0000 H   0  0  0  0  0  0  0  0  0  0  0  0
    4.2695    0.8100    0.0000 H   0  0  0  0  0  0  0  0  0  0  0  0
    1.4636    0.8100    0.0000 H   0  0  0  0  0  0  0  0  0  0  0  0
    2.8665    0.0000    0.0000 H   0  0  0  0  0  0  0  0  0  0  0  0
    4.5380    9.8600    0.0000 H   0  0  0  0  0  0  0  0  0  0  0  0
    1.7320    8.2400    0.0000 H   0  0  0  0  0  0  0  0  0  0  0  0
    4.8671   10.4300    0.0000 H   0  0  0  0  0  0  0  0  0  0  0  0
    3.4641   12.8600    0.0000 H   0  0  0  0  0  0  0  0  0  0  0  0
    4.5380    8.2400    0.0000 H   0  0  0  0  0  0  0  0  0  0  0  0
    3.1350    7.4300    0.0000 H   0  0  0  0  0  0  0  0  0  0  0  0
    6.2700   11.2400    0.0000 H   0  0  0  0  0  0  0  0  0  0  0  0
    4.8671   13.6700    0.0000 H   0  0  0  0  0  0  0  0  0  0  0  0
    6.5991   13.6700    0.0000 H   0  0  0  0  0  0  0  0  0  0  0  0
    0.0000    9.8600    0.0000 H   0  0  0  0  0  0  0  0  0  0  0  0
  1  7  1  0  0  0  0
  1 39  1  0  0  0  0
  2 18  2  0  0  0  0
  3 28  1  0  0  0  0
  3 51  1  0  0  0  0
  4 29  1  0  0  0  0
  4 52  1  0  0  0  0
  5 29  2  0  0  0  0
  6  8  1  0  0  0  0
  6 35  1  0  0  0  0
  6 36  1  0  0  0  0
  7  8  1  0  0  0  0
  7  9  1  0  0  0  0
  7 30  1  0  0  0  0
  8 10  1  0  0  0  0
  8 31  1  0  0  0  0
  9 11  2  0  0  0  0
  9 12  1  0  0  0  0
 10 32  1  0  0  0  0
 10 33  1  0  0  0  0
 10 34  1  0  0  0  0
 11 13  1  0  0  0  0
 11 37  1  0  0  0  0
 12 14  2  0  0  0  0
 12 38  1  0  0  0  0
 13 15  2  0  0  0  0
 13 40  1  0  0  0  0
 14 15  1  0  0  0  0
 14 41  1  0  0  0  0
 15 42  1  0  0  0  0
 16 18  1  0  0  0  0
 16 19  1  0  0  0  0
 16 20  2  0  0  0  0
 17 18  1  0  0  0  0
 17 22  2  0  0  0  0
 17 23  1  0  0  0  0
 19 21  2  0  0  0  0
 19 29  1  0  0  0  0
 20 24  1  0  0  0  0
 20 43  1  0  0  0  0
 21 25  1  0  0  0  0
 21 44  1  0  0  0  0
 22 26  1  0  0  0  0
 22 45  1  0  0  0  0
 23 27  2  0  0  0  0
 23 46  1  0  0  0  0
 24 25  2  0  0  0  0
 24 47  1  0  0  0  0
 25 48  1  0  0  0  0
 26 28  2  0  0  0  0
 26 49  1  0  0  0  0
 27 28  1  0  0  0  0
 27 50  1  0  0  0  0
M  END
> <PUBCHEM_COMPOUND_CID>
517559
> <PUBCHEM_COMPOUND_CANONICALIZED>
1
> <PUBCHEM_CACTVS_COMPLEXITY>
428
> <PUBCHEM_CACTVS_HBOND_ACCEPTOR>
6
> <PUBCHEM_CACTVS_HBOND_DONOR>
4
> <PUBCHEM_CACTVS_ROTATABLE_BOND>
5
> <PUBCHEM_CACTVS_SUBSKEYS>
AAADceB6OAAAAAAAAAAAAAAAAAAAAAAAAAAwYMAAAAAAAAABUAAAHgAQCAAADDzhmAYyDoBAAgCIAqDSCAACAAAkIAAIiIEGCMgKNjKClROAcQAk0BEImYebzPDOoAAAAAAQAABAAAAAACAAAAAAAAAAAA==
> <PUBCHEM_IUPAC_OPENEYE_NAME>
2-amino-1-phenyl-propan-1-ol;2-(4-hydroxybenzoyl)benzoic acid
> <PUBCHEM_IUPAC_CAS_NAME>
2-amino-1-phenyl-1-propanol;2-[(4-hydroxyphenyl)-oxomethyl]benzoic acid
> <PUBCHEM_IUPAC_NAME_MARKUP>
2-amino-1-phenylpropan-1-ol;2-(4-hydroxybenzoyl)benzoic acid
> <PUBCHEM_IUPAC_NAME>
2-amino-1-phenylpropan-1-ol;2-(4-hydroxybenzoyl)benzoic acid
> <PUBCHEM_IUPAC_SYSTEMATIC_NAME>
2-azanyl-1-phenyl-propan-1-ol;2-(4-hydroxyphenyl)carbonylbenzoic acid
> <PUBCHEM_IUPAC_TRADITIONAL_NAME>
2-amino-1-phenyl-propan-1-ol;2-(4-hydroxybenzoyl)benzoic acid
> <PUBCHEM_IUPAC_INCHI>
InChI=1S/C14H10O4.C9H13NO/c15-10-7-5-9(6-8-10)13(16)11-3-1-2-4-12(11)14(17)18;1-7(10)9(11)8-5-3-2-4-6-8/h1-8,15H,(H,17,18);2-7,9,11H,10H2,1H3
> <PUBCHEM_IUPAC_INCHIKEY>
COSNDJOWAPABAM-UHFFFAOYSA-N
> <PUBCHEM_EXACT_MASS>
393.15762283
> <PUBCHEM_MOLECULAR_FORMULA>
C23H23NO5
> <PUBCHEM_MOLECULAR_WEIGHT>
393.4
> <PUBCHEM_OPENEYE_CAN_SMILES>
CC(C(C1=CC=CC=C1)O)N.C1=CC=C(C(=C1)C(=O)C2=CC=C(C=C2)O)C(=O)O
> <PUBCHEM_OPENEYE_ISO_SMILES>
CC(C(C1=CC=CC=C1)O)N.C1=CC=C(C(=C1)C(=O)C2=CC=C(C=C2)O)C(=O)O
> <PUBCHEM_CACTVS_TPSA>
121
> <PUBCHEM_MONOISOTOPIC_WEIGHT>
393.15762283
> <PUBCHEM_TOTAL_CHARGE>
0
> <PUBCHEM_HEAVY_ATOM_COUNT>
29
> <PUBCHEM_ATOM_DEF_STEREO_COUNT>
0
> <PUBCHEM_ATOM_UDEF_STEREO_COUNT>
2
> <PUBCHEM_BOND_DEF_STEREO_COUNT>
0
> <PUBCHEM_BOND_UDEF_STEREO_COUNT>
0
> <PUBCHEM_ISOTOPIC_ATOM_COUNT>
0
> <PUBCHEM_COMPONENT_COUNT>
2
> <PUBCHEM_CACTVS_TAUTO_COUNT>
-1
> <PUBCHEM_COORDINATE_TYPE>
1
5
255
> <PUBCHEM_BONDANNOTATIONS>
7  1  3
11  13  8
12  14  8
13  15  8
14  15  8
16  19  8
16  20  8
17  22  8
17  23  8
19  21  8
20  24  8
21  25  8
22  26  8
23  27  8
24  25  8
26  28  8
27  28  8
8  6  3
9  11  8
9  12  8
$$$$
