517620
  -OEChem-10302200292D
 23 21  0     1  0  0  0  0  0999 V2000
    0.0000    2.6200    0.0000 Cl  0  0  0  0  0  0  0  0  0  0  0  0
    4.3728    0.0000    0.0000 Cl  0  0  0  0  0  0  0  0  0  0  0  0
    5.2690    3.1200    0.0000 N   0  0  0  0  0  0  0  0  0  0  0  0
    5.2690    5.1200    0.0000 N   0  0  0  0  0  0  0  0  0  0  0  0
    4.4030    3.6200    0.0000 C   0  0  3  0  0  0  0  0  0  0  0  0
    4.4030    4.6200    0.0000 C   0  0  0  0  0  0  0  0  0  0  0  0
    6.1350    3.6200    0.0000 C   0  0  0  0  0  0  0  0  0  0  0  0
    6.1350    4.6200    0.0000 C   0  0  0  0  0  0  0  0  0  0  0  0
    3.5369    3.1200    0.0000 C   0  0  0  0  0  0  0  0  0  0  0  0
    4.4030    3.0000    0.0000 H   0  0  0  0  0  0  0  0  0  0  0  0
    4.1909    5.2026    0.0000 H   0  0  0  0  0  0  0  0  0  0  0  0
    3.7924    4.5123    0.0000 H   0  0  0  0  0  0  0  0  0  0  0  0
    6.3471    3.0374    0.0000 H   0  0  0  0  0  0  0  0  0  0  0  0
    6.7456    3.7277    0.0000 H   0  0  0  0  0  0  0  0  0  0  0  0
    6.7456    4.5123    0.0000 H   0  0  0  0  0  0  0  0  0  0  0  0
    6.3471    5.2026    0.0000 H   0  0  0  0  0  0  0  0  0  0  0  0
    5.2690    2.5000    0.0000 H   0  0  0  0  0  0  0  0  0  0  0  0
    5.2690    5.7400    0.0000 H   0  0  0  0  0  0  0  0  0  0  0  0
    3.2269    3.6569    0.0000 H   0  0  0  0  0  0  0  0  0  0  0  0
    3.0000    2.8100    0.0000 H   0  0  0  0  0  0  0  0  0  0  0  0
    3.8469    2.5831    0.0000 H   0  0  0  0  0  0  0  0  0  0  0  0
    1.0000    2.6200    0.0000 H   0  0  0  0  0  0  0  0  0  0  0  0
    5.3728    0.0000    0.0000 H   0  0  0  0  0  0  0  0  0  0  0  0
  1 22  1  0  0  0  0
  2 23  1  0  0  0  0
  3  5  1  0  0  0  0
  3  7  1  0  0  0  0
  3 17  1  0  0  0  0
  4  6  1  0  0  0  0
  4  8  1  0  0  0  0
  4 18  1  0  0  0  0
  5  6  1  0  0  0  0
  5  9  1  0  0  0  0
  5 10  1  0  0  0  0
  6 11  1  0  0  0  0
  6 12  1  0  0  0  0
  7  8  1  0  0  0  0
  7 13  1  0  0  0  0
  7 14  1  0  0  0  0
  8 15  1  0  0  0  0
  8 16  1  0  0  0  0
  9 19  1  0  0  0  0
  9 20  1  0  0  0  0
  9 21  1  0  0  0  0
M  END
> <PUBCHEM_COMPOUND_CID>
517620
> <PUBCHEM_COMPOUND_CANONICALIZED>
1
> <PUBCHEM_CACTVS_COMPLEXITY>
54
> <PUBCHEM_CACTVS_HBOND_ACCEPTOR>
2
> <PUBCHEM_CACTVS_HBOND_DONOR>
4
> <PUBCHEM_CACTVS_ROTATABLE_BOND>
0
> <PUBCHEM_CACTVS_SUBSKEYS>
AAADccBjAAAGAAAAAAAAAAAAAAAAAAAAAAAsAAAAAAAAAAAAAAAAHAAQAAAACCjBAAQCAALAAAAAAAAAAAAAAAAAAAAAAIAIAAAAQAAAAAAUAAAAEACAAAAAAAAAAAAAAAAAAAAAAAAAAAAAAAAAAAAAAA==
> <PUBCHEM_IUPAC_OPENEYE_NAME>
2-methylpiperazine;dihydrochloride
> <PUBCHEM_IUPAC_CAS_NAME>
2-methylpiperazine;dihydrochloride
> <PUBCHEM_IUPAC_NAME_MARKUP>
2-methylpiperazine;dihydrochloride
> <PUBCHEM_IUPAC_NAME>
2-methylpiperazine;dihydrochloride
> <PUBCHEM_IUPAC_SYSTEMATIC_NAME>
2-methylpiperazine;dihydrochloride
> <PUBCHEM_IUPAC_TRADITIONAL_NAME>
2-methylpiperazine;dihydrochloride
> <PUBCHEM_IUPAC_INCHI>
InChI=1S/C5H12N2.2ClH/c1-5-4-6-2-3-7-5;;/h5-7H,2-4H2,1H3;2*1H
> <PUBCHEM_IUPAC_INCHIKEY>
XMUWOBYBMGVFIU-UHFFFAOYSA-N
> <PUBCHEM_EXACT_MASS>
172.0534038
> <PUBCHEM_MOLECULAR_FORMULA>
C5H14Cl2N2
> <PUBCHEM_MOLECULAR_WEIGHT>
173.08
> <PUBCHEM_OPENEYE_CAN_SMILES>
CC1CNCCN1.Cl.Cl
> <PUBCHEM_OPENEYE_ISO_SMILES>
CC1CNCCN1.Cl.Cl
> <PUBCHEM_CACTVS_TPSA>
24.1
> <PUBCHEM_MONOISOTOPIC_WEIGHT>
172.0534038
> <PUBCHEM_TOTAL_CHARGE>
0
> <PUBCHEM_HEAVY_ATOM_COUNT>
9
> <PUBCHEM_ATOM_DEF_STEREO_COUNT>
0
> <PUBCHEM_ATOM_UDEF_STEREO_COUNT>
1
> <PUBCHEM_BOND_DEF_STEREO_COUNT>
0
> <PUBCHEM_BOND_UDEF_STEREO_COUNT>
0
> <PUBCHEM_ISOTOPIC_ATOM_COUNT>
0
> <PUBCHEM_COMPONENT_COUNT>
3
> <PUBCHEM_CACTVS_TAUTO_COUNT>
-1
> <PUBCHEM_COORDINATE_TYPE>
1
5
255
> <PUBCHEM_BONDANNOTATIONS>
5  9  3
$$$$
