517632
  -OEChem-10302200292D
 19 16  0     1  0  0  0  0  0999 V2000
    0.0000    2.3700    0.0000 Cl  0  0  0  0  0  0  0  0  0  0  0  0
    4.3360    0.0000    0.0000 Cl  0  0  0  0  0  0  0  0  0  0  0  0
    3.5369    4.6200    0.0000 N   0  0  0  0  0  0  0  0  0  0  0  0
    6.1350    4.1200    0.0000 N   0  0  0  0  0  0  0  0  0  0  0  0
    4.4030    4.1200    0.0000 C   0  0  3  0  0  0  0  0  0  0  0  0
    5.2690    4.6200    0.0000 C   0  0  0  0  0  0  0  0  0  0  0  0
    4.4030    3.1200    0.0000 C   0  0  0  0  0  0  0  0  0  0  0  0
    3.8660    3.8100    0.0000 H   0  0  0  0  0  0  0  0  0  0  0  0
    5.6675    5.0950    0.0000 H   0  0  0  0  0  0  0  0  0  0  0  0
    4.8705    5.0950    0.0000 H   0  0  0  0  0  0  0  0  0  0  0  0
    3.7830    3.1200    0.0000 H   0  0  0  0  0  0  0  0  0  0  0  0
    4.4030    2.5000    0.0000 H   0  0  0  0  0  0  0  0  0  0  0  0
    5.0230    3.1200    0.0000 H   0  0  0  0  0  0  0  0  0  0  0  0
    3.0000    4.3100    0.0000 H   0  0  0  0  0  0  0  0  0  0  0  0
    3.5369    5.2400    0.0000 H   0  0  0  0  0  0  0  0  0  0  0  0
    6.6720    4.4300    0.0000 H   0  0  0  0  0  0  0  0  0  0  0  0
    6.1350    3.5000    0.0000 H   0  0  0  0  0  0  0  0  0  0  0  0
    1.0000    2.3700    0.0000 H   0  0  0  0  0  0  0  0  0  0  0  0
    5.3360    0.0000    0.0000 H   0  0  0  0  0  0  0  0  0  0  0  0
  1 18  1  0  0  0  0
  2 19  1  0  0  0  0
  3  5  1  0  0  0  0
  3 14  1  0  0  0  0
  3 15  1  0  0  0  0
  4  6  1  0  0  0  0
  4 16  1  0  0  0  0
  4 17  1  0  0  0  0
  5  6  1  0  0  0  0
  5  7  1  0  0  0  0
  5  8  1  0  0  0  0
  6  9  1  0  0  0  0
  6 10  1  0  0  0  0
  7 11  1  0  0  0  0
  7 12  1  0  0  0  0
  7 13  1  0  0  0  0
M  END
> <PUBCHEM_COMPOUND_CID>
517632
> <PUBCHEM_COMPOUND_CANONICALIZED>
1
> <PUBCHEM_CACTVS_COMPLEXITY>
20.9
> <PUBCHEM_CACTVS_HBOND_ACCEPTOR>
2
> <PUBCHEM_CACTVS_HBOND_DONOR>
4
> <PUBCHEM_CACTVS_ROTATABLE_BOND>
1
> <PUBCHEM_CACTVS_SUBSKEYS>
AAADccBDAAAGAAAAAAAAAAAAAAAAAAAAAAAAAAAAAAAAAAAAAAAAHAAQAAAACCjBAAQCAABAAAAAAAAAAAAAAAAAAAAAAIAAAAAAQAAAAAAAAAAAEAAAAAAAAAAAAAAAAAAAAAAAAAAAAAAAAAAAAAAAAA==
> <PUBCHEM_IUPAC_OPENEYE_NAME>
propane-1,2-diamine;dihydrochloride
> <PUBCHEM_IUPAC_CAS_NAME>
propane-1,2-diamine;dihydrochloride
> <PUBCHEM_IUPAC_NAME_MARKUP>
propane-1,2-diamine;dihydrochloride
> <PUBCHEM_IUPAC_NAME>
propane-1,2-diamine;dihydrochloride
> <PUBCHEM_IUPAC_SYSTEMATIC_NAME>
propane-1,2-diamine;dihydrochloride
> <PUBCHEM_IUPAC_TRADITIONAL_NAME>
(2-amino-1-methyl-ethyl)amine;dihydrochloride
> <PUBCHEM_IUPAC_INCHI>
InChI=1S/C3H10N2.2ClH/c1-3(5)2-4;;/h3H,2,4-5H2,1H3;2*1H
> <PUBCHEM_IUPAC_INCHIKEY>
AEIAMRMQKCPGJR-UHFFFAOYSA-N
> <PUBCHEM_EXACT_MASS>
146.0377538
> <PUBCHEM_MOLECULAR_FORMULA>
C3H12Cl2N2
> <PUBCHEM_MOLECULAR_WEIGHT>
147.04
> <PUBCHEM_OPENEYE_CAN_SMILES>
CC(CN)N.Cl.Cl
> <PUBCHEM_OPENEYE_ISO_SMILES>
CC(CN)N.Cl.Cl
> <PUBCHEM_CACTVS_TPSA>
52
> <PUBCHEM_MONOISOTOPIC_WEIGHT>
146.0377538
> <PUBCHEM_TOTAL_CHARGE>
0
> <PUBCHEM_HEAVY_ATOM_COUNT>
7
> <PUBCHEM_ATOM_DEF_STEREO_COUNT>
0
> <PUBCHEM_ATOM_UDEF_STEREO_COUNT>
1
> <PUBCHEM_BOND_DEF_STEREO_COUNT>
0
> <PUBCHEM_BOND_UDEF_STEREO_COUNT>
0
> <PUBCHEM_ISOTOPIC_ATOM_COUNT>
0
> <PUBCHEM_COMPONENT_COUNT>
3
> <PUBCHEM_CACTVS_TAUTO_COUNT>
-1
> <PUBCHEM_COORDINATE_TYPE>
1
5
255
> <PUBCHEM_BONDANNOTATIONS>
5  3  3
$$$$
