517681
  -OEChem-10302200292D
 72 75  0     1  0  0  0  0  0999 V2000
    5.3307    0.6987    0.0000 O   0  0  0  0  0  0  0  0  0  0  0  0
    2.5357   -2.8536    0.0000 O   0  0  0  0  0  0  0  0  0  0  0  0
   11.7640    3.7674    0.0000 O   0  0  0  0  0  0  0  0  0  0  0  0
    7.9288   -0.8013    0.0000 C   0  0  3  0  0  0  0  0  0  0  0  0
    7.9288    0.1987    0.0000 C   0  0  3  0  0  0  0  0  0  0  0  0
    7.0628   -1.3013    0.0000 C   0  0  3  0  0  0  0  0  0  0  0  0
    6.1968   -0.8013    0.0000 C   0  0  3  0  0  0  0  0  0  0  0  0
    8.8750    0.5034    0.0000 C   0  0  3  0  0  0  0  0  0  0  0  0
    8.8750   -1.1060    0.0000 C   0  0  0  0  0  0  0  0  0  0  0  0
    7.0628    0.6987    0.0000 C   0  0  0  0  0  0  0  0  0  0  0  0
    9.4586   -0.3013    0.0000 C   0  0  0  0  0  0  0  0  0  0  0  0
    5.2868   -1.3082    0.0000 C   0  0  3  0  0  0  0  0  0  0  0  0
    6.1968    0.1987    0.0000 C   0  0  0  0  0  0  0  0  0  0  0  0
    7.0789   -2.3428    0.0000 C   0  0  0  0  0  0  0  0  0  0  0  0
    7.9288   -1.8013    0.0000 C   0  0  0  0  0  0  0  0  0  0  0  0
    7.9288    1.1987    0.0000 C   0  0  0  0  0  0  0  0  0  0  0  0
    9.1857    1.4540    0.0000 C   0  0  3  0  0  0  0  0  0  0  0  0
    5.2787   -2.3497    0.0000 C   0  0  0  0  0  0  0  0  0  0  0  0
    5.3307   -0.3013    0.0000 C   0  0  0  0  0  0  0  0  0  0  0  0
    4.3599   -0.7441    0.0000 C   0  0  0  0  0  0  0  0  0  0  0  0
    6.1808   -2.8706    0.0000 C   0  0  0  0  0  0  0  0  0  0  0  0
    4.3433   -2.8995    0.0000 C   0  0  0  0  0  0  0  0  0  0  0  0
    3.4120   -1.2720    0.0000 C   0  0  0  0  0  0  0  0  0  0  0  0
    3.4037   -2.3570    0.0000 C   0  0  3  0  0  0  0  0  0  0  0  0
   10.1642    1.6602    0.0000 C   0  0  0  0  0  0  0  0  0  0  0  0
    8.5179    2.1982    0.0000 C   0  0  0  0  0  0  0  0  0  0  0  0
    3.8467   -3.7674    0.0000 C   0  0  0  0  0  0  0  0  0  0  0  0
    4.8466   -3.7636    0.0000 C   0  0  0  0  0  0  0  0  0  0  0  0
   10.4749    2.6107    0.0000 C   0  0  0  0  0  0  0  0  0  0  0  0
   11.4534    2.8169    0.0000 C   0  0  0  0  0  0  0  0  0  0  0  0
    7.6021   -1.6072    0.0000 H   0  0  0  0  0  0  0  0  0  0  0  0
    9.4875    0.5996    0.0000 H   0  0  0  0  0  0  0  0  0  0  0  0
    8.6240   -1.6730    0.0000 H   0  0  0  0  0  0  0  0  0  0  0  0
    9.4124   -1.4153    0.0000 H   0  0  0  0  0  0  0  0  0  0  0  0
    7.4613    1.1736    0.0000 H   0  0  0  0  0  0  0  0  0  0  0  0
    6.6643    1.1736    0.0000 H   0  0  0  0  0  0  0  0  0  0  0  0
    9.9195   -0.7160    0.0000 H   0  0  0  0  0  0  0  0  0  0  0  0
    9.9195    0.1134    0.0000 H   0  0  0  0  0  0  0  0  0  0  0  0
    5.8201   -1.6243    0.0000 H   0  0  0  0  0  0  0  0  0  0  0  0
    7.2969   -2.9232    0.0000 H   0  0  0  0  0  0  0  0  0  0  0  0
    7.6880   -2.2273    0.0000 H   0  0  0  0  0  0  0  0  0  0  0  0
    7.3088   -1.8013    0.0000 H   0  0  0  0  0  0  0  0  0  0  0  0
    7.9288   -2.4213    0.0000 H   0  0  0  0  0  0  0  0  0  0  0  0
    8.5488   -1.8013    0.0000 H   0  0  0  0  0  0  0  0  0  0  0  0
    8.5488    1.1987    0.0000 H   0  0  0  0  0  0  0  0  0  0  0  0
    7.9288    1.8187    0.0000 H   0  0  0  0  0  0  0  0  0  0  0  0
    7.3088    1.1987    0.0000 H   0  0  0  0  0  0  0  0  0  0  0  0
    9.3783    2.0433    0.0000 H   0  0  0  0  0  0  0  0  0  0  0  0
    5.6407    0.2356    0.0000 H   0  0  0  0  0  0  0  0  0  0  0  0
    4.7938    0.0087    0.0000 H   0  0  0  0  0  0  0  0  0  0  0  0
    5.0207   -0.8382    0.0000 H   0  0  0  0  0  0  0  0  0  0  0  0
    4.7681   -0.2774    0.0000 H   0  0  0  0  0  0  0  0  0  0  0  0
    3.9700   -0.2620    0.0000 H   0  0  0  0  0  0  0  0  0  0  0  0
    6.1832   -3.4906    0.0000 H   0  0  0  0  0  0  0  0  0  0  0  0
    3.2075   -0.6867    0.0000 H   0  0  0  0  0  0  0  0  0  0  0  0
    2.8004   -1.3734    0.0000 H   0  0  0  0  0  0  0  0  0  0  0  0
    2.8686   -2.0439    0.0000 H   0  0  0  0  0  0  0  0  0  0  0  0
   10.1848    1.0405    0.0000 H   0  0  0  0  0  0  0  0  0  0  0  0
   10.7780    1.5728    0.0000 H   0  0  0  0  0  0  0  0  0  0  0  0
    8.9793    2.6123    0.0000 H   0  0  0  0  0  0  0  0  0  0  0  0
    8.1038    2.6597    0.0000 H   0  0  0  0  0  0  0  0  0  0  0  0
    8.0564    1.7842    0.0000 H   0  0  0  0  0  0  0  0  0  0  0  0
    3.3085   -3.4595    0.0000 H   0  0  0  0  0  0  0  0  0  0  0  0
    3.5387   -4.3056    0.0000 H   0  0  0  0  0  0  0  0  0  0  0  0
    4.3848   -4.0754    0.0000 H   0  0  0  0  0  0  0  0  0  0  0  0
    4.3109   -4.0756    0.0000 H   0  0  0  0  0  0  0  0  0  0  0  0
    5.1587   -4.2993    0.0000 H   0  0  0  0  0  0  0  0  0  0  0  0
    5.3824   -3.4515    0.0000 H   0  0  0  0  0  0  0  0  0  0  0  0
   10.4543    3.2303    0.0000 H   0  0  0  0  0  0  0  0  0  0  0  0
    9.8611    2.6980    0.0000 H   0  0  0  0  0  0  0  0  0  0  0  0
    2.0000   -2.5416    0.0000 H   0  0  0  0  0  0  0  0  0  0  0  0
   11.8674    2.3554    0.0000 H   0  0  0  0  0  0  0  0  0  0  0  0
  1 13  2  0  0  0  0
  2 24  1  0  0  0  0
  2 71  1  0  0  0  0
  3 30  2  0  0  0  0
  4  5  1  0  0  0  0
  4  6  1  0  0  0  0
  4  9  1  0  0  0  0
  4 15  1  0  0  0  0
  5  8  1  0  0  0  0
  5 10  1  0  0  0  0
  5 16  1  0  0  0  0
  6  7  1  0  0  0  0
  6 14  1  0  0  0  0
  6 31  1  0  0  0  0
  7 12  1  0  0  0  0
  7 13  1  0  0  0  0
  7 19  1  0  0  0  0
  8 11  1  0  0  0  0
  8 17  1  0  0  0  0
  8 32  1  0  0  0  0
  9 11  1  0  0  0  0
  9 33  1  0  0  0  0
  9 34  1  0  0  0  0
 10 13  1  0  0  0  0
 10 35  1  0  0  0  0
 10 36  1  0  0  0  0
 11 37  1  0  0  0  0
 11 38  1  0  0  0  0
 12 18  1  0  0  0  0
 12 20  1  0  0  0  0
 12 39  1  0  0  0  0
 14 21  1  0  0  0  0
 14 40  1  0  0  0  0
 14 41  1  0  0  0  0
 15 42  1  0  0  0  0
 15 43  1  0  0  0  0
 15 44  1  0  0  0  0
 16 45  1  0  0  0  0
 16 46  1  0  0  0  0
 16 47  1  0  0  0  0
 17 25  1  0  0  0  0
 17 26  1  0  0  0  0
 17 48  1  0  0  0  0
 18 21  2  0  0  0  0
 18 22  1  0  0  0  0
 19 49  1  0  0  0  0
 19 50  1  0  0  0  0
 19 51  1  0  0  0  0
 20 23  1  0  0  0  0
 20 52  1  0  0  0  0
 20 53  1  0  0  0  0
 21 54  1  0  0  0  0
 22 24  1  0  0  0  0
 22 27  1  0  0  0  0
 22 28  1  0  0  0  0
 23 24  1  0  0  0  0
 23 55  1  0  0  0  0
 23 56  1  0  0  0  0
 24 57  1  0  0  0  0
 25 29  1  0  0  0  0
 25 58  1  0  0  0  0
 25 59  1  0  0  0  0
 26 60  1  0  0  0  0
 26 61  1  0  0  0  0
 26 62  1  0  0  0  0
 27 63  1  0  0  0  0
 27 64  1  0  0  0  0
 27 65  1  0  0  0  0
 28 66  1  0  0  0  0
 28 67  1  0  0  0  0
 28 68  1  0  0  0  0
 29 30  1  0  0  0  0
 29 69  1  0  0  0  0
 29 70  1  0  0  0  0
 30 72  1  0  0  0  0
M  END
> <PUBCHEM_COMPOUND_CID>
517681
> <PUBCHEM_COMPOUND_CANONICALIZED>
1
> <PUBCHEM_CACTVS_COMPLEXITY>
766
> <PUBCHEM_CACTVS_HBOND_ACCEPTOR>
3
> <PUBCHEM_CACTVS_HBOND_DONOR>
1
> <PUBCHEM_CACTVS_ROTATABLE_BOND>
4
> <PUBCHEM_CACTVS_SUBSKEYS>
AAADcfB4MAAAAAAAAAAAAAAAAAAAAYAAAAAwYIAAAAAAAGCAAAAAGgAACAAADxSggAICAAAAAgCIAqhSgAAAAAAgAAAACAEAAAgAEBIAAQAAQAAEwAAIAAOIyPCPgAAAAAAAAADAAAQAADAAAQAACAAAAA==
> <PUBCHEM_IUPAC_OPENEYE_NAME>
4-(3-hydroxy-4,4,9,13,14-pentamethyl-11-oxo-1,2,3,7,8,10,12,15,16,17-decahydrocyclopenta[a]phenanthren-17-yl)pentanal
> <PUBCHEM_IUPAC_CAS_NAME>
4-(3-hydroxy-4,4,9,13,14-pentamethyl-11-oxo-1,2,3,7,8,10,12,15,16,17-decahydrocyclopenta[a]phenanthren-17-yl)pentanal
> <PUBCHEM_IUPAC_NAME_MARKUP>
4-(3-hydroxy-4,4,9,13,14-pentamethyl-11-oxo-1,2,3,7,8,10,12,15,16,17-decahydrocyclopenta[a]phenanthren-17-yl)pentanal
> <PUBCHEM_IUPAC_NAME>
4-(3-hydroxy-4,4,9,13,14-pentamethyl-11-oxo-1,2,3,7,8,10,12,15,16,17-decahydrocyclopenta[a]phenanthren-17-yl)pentanal
> <PUBCHEM_IUPAC_SYSTEMATIC_NAME>
4-(4,4,9,13,14-pentamethyl-3-oxidanyl-11-oxidanylidene-1,2,3,7,8,10,12,15,16,17-decahydrocyclopenta[a]phenanthren-17-yl)pentanal
> <PUBCHEM_IUPAC_TRADITIONAL_NAME>
4-(3-hydroxy-11-keto-4,4,9,13,14-pentamethyl-1,2,3,7,8,10,12,15,16,17-decahydrocyclopenta[a]phenanthren-17-yl)valeraldehyde
> <PUBCHEM_IUPAC_INCHI>
InChI=1S/C27H42O3/c1-17(8-7-15-28)18-13-14-25(4)21-11-9-19-20(10-12-22(29)24(19,2)3)27(21,6)23(30)16-26(18,25)5/h9,15,17-18,20-22,29H,7-8,10-14,16H2,1-6H3
> <PUBCHEM_IUPAC_INCHIKEY>
CONXLKZYRPNXQH-UHFFFAOYSA-N
> <PUBCHEM_XLOGP3_AA>
4.8
> <PUBCHEM_EXACT_MASS>
414.31339520
> <PUBCHEM_MOLECULAR_FORMULA>
C27H42O3
> <PUBCHEM_MOLECULAR_WEIGHT>
414.6
> <PUBCHEM_OPENEYE_CAN_SMILES>
CC(CCC=O)C1CCC2(C1(CC(=O)C3(C2CC=C4C3CCC(C4(C)C)O)C)C)C
> <PUBCHEM_OPENEYE_ISO_SMILES>
CC(CCC=O)C1CCC2(C1(CC(=O)C3(C2CC=C4C3CCC(C4(C)C)O)C)C)C
> <PUBCHEM_CACTVS_TPSA>
54.4
> <PUBCHEM_MONOISOTOPIC_WEIGHT>
414.31339520
> <PUBCHEM_TOTAL_CHARGE>
0
> <PUBCHEM_HEAVY_ATOM_COUNT>
30
> <PUBCHEM_ATOM_DEF_STEREO_COUNT>
0
> <PUBCHEM_ATOM_UDEF_STEREO_COUNT>
8
> <PUBCHEM_BOND_DEF_STEREO_COUNT>
0
> <PUBCHEM_BOND_UDEF_STEREO_COUNT>
0
> <PUBCHEM_ISOTOPIC_ATOM_COUNT>
0
> <PUBCHEM_COMPONENT_COUNT>
1
> <PUBCHEM_CACTVS_TAUTO_COUNT>
-1
> <PUBCHEM_COORDINATE_TYPE>
1
5
255
> <PUBCHEM_BONDANNOTATIONS>
12  20  3
17  26  3
24  2  3
4  15  3
5  16  3
6  14  3
7  19  3
8  11  3
$$$$
