517675
  -OEChem-10302200292D
 38 37  0     1  0  0  0  0  0999 V2000
    7.1962   -0.2500    0.0000 S   0  0  0  0  0  0  0  0  0  0  0  0
    8.0622    0.2500    0.0000 S   0  0  0  0  0  0  0  0  0  0  0  0
    2.0000    0.7500    0.0000 O   0  5  0  0  0  0  0  0  0  0  0  0
   13.2583   -0.7500    0.0000 O   0  5  0  0  0  0  0  0  0  0  0  0
    2.8660   -0.7500    0.0000 O   0  0  0  0  0  0  0  0  0  0  0  0
   12.3923    0.7500    0.0000 O   0  0  0  0  0  0  0  0  0  0  0  0
    4.5981    0.2500    0.0000 N   0  3  0  0  0  0  0  0  0  0  0  0
   10.6603   -0.2500    0.0000 N   0  3  0  0  0  0  0  0  0  0  0  0
    3.7320    0.7500    0.0000 C   0  0  3  0  0  0  0  0  0  0  0  0
   11.5263   -0.7500    0.0000 C   0  0  3  0  0  0  0  0  0  0  0  0
    5.4641   -0.2500    0.0000 C   0  0  0  0  0  0  0  0  0  0  0  0
    9.7942    0.2500    0.0000 C   0  0  0  0  0  0  0  0  0  0  0  0
    6.3301    0.2500    0.0000 C   0  0  0  0  0  0  0  0  0  0  0  0
    8.9282   -0.2500    0.0000 C   0  0  0  0  0  0  0  0  0  0  0  0
    3.7320    1.7500    0.0000 C   0  0  0  0  0  0  0  0  0  0  0  0
   11.5263   -1.7500    0.0000 C   0  0  0  0  0  0  0  0  0  0  0  0
    2.8660    0.2500    0.0000 C   0  0  0  0  0  0  0  0  0  0  0  0
   12.3923   -0.2500    0.0000 C   0  0  0  0  0  0  0  0  0  0  0  0
    4.2881   -0.2869    0.0000 H   0  0  0  0  0  0  0  0  0  0  0  0
    4.9081    0.7869    0.0000 H   0  0  0  0  0  0  0  0  0  0  0  0
   10.3503   -0.7869    0.0000 H   0  0  0  0  0  0  0  0  0  0  0  0
   10.9703    0.2869    0.0000 H   0  0  0  0  0  0  0  0  0  0  0  0
    3.7320    0.1300    0.0000 H   0  0  0  0  0  0  0  0  0  0  0  0
   10.9893   -1.0600    0.0000 H   0  0  0  0  0  0  0  0  0  0  0  0
    5.0656   -0.7249    0.0000 H   0  0  0  0  0  0  0  0  0  0  0  0
    5.8626   -0.7249    0.0000 H   0  0  0  0  0  0  0  0  0  0  0  0
   10.1928    0.7249    0.0000 H   0  0  0  0  0  0  0  0  0  0  0  0
    9.3957    0.7249    0.0000 H   0  0  0  0  0  0  0  0  0  0  0  0
    6.7287    0.7249    0.0000 H   0  0  0  0  0  0  0  0  0  0  0  0
    5.9316    0.7249    0.0000 H   0  0  0  0  0  0  0  0  0  0  0  0
    8.5297   -0.7249    0.0000 H   0  0  0  0  0  0  0  0  0  0  0  0
    9.3267   -0.7249    0.0000 H   0  0  0  0  0  0  0  0  0  0  0  0
    4.3520    1.7500    0.0000 H   0  0  0  0  0  0  0  0  0  0  0  0
    3.7320    2.3700    0.0000 H   0  0  0  0  0  0  0  0  0  0  0  0
    3.1120    1.7500    0.0000 H   0  0  0  0  0  0  0  0  0  0  0  0
   10.9063   -1.7500    0.0000 H   0  0  0  0  0  0  0  0  0  0  0  0
   11.5263   -2.3700    0.0000 H   0  0  0  0  0  0  0  0  0  0  0  0
   12.1463   -1.7500    0.0000 H   0  0  0  0  0  0  0  0  0  0  0  0
  1  2  1  0  0  0  0
  1 13  1  0  0  0  0
  2 14  1  0  0  0  0
  3 17  1  0  0  0  0
  4 18  1  0  0  0  0
  5 17  2  0  0  0  0
  6 18  2  0  0  0  0
  7  9  1  0  0  0  0
  7 11  1  0  0  0  0
  7 19  1  0  0  0  0
  7 20  1  0  0  0  0
  8 10  1  0  0  0  0
  8 12  1  0  0  0  0
  8 21  1  0  0  0  0
  8 22  1  0  0  0  0
  9 15  1  0  0  0  0
  9 17  1  0  0  0  0
  9 23  1  0  0  0  0
 10 16  1  0  0  0  0
 10 18  1  0  0  0  0
 10 24  1  0  0  0  0
 11 13  1  0  0  0  0
 11 25  1  0  0  0  0
 11 26  1  0  0  0  0
 12 14  1  0  0  0  0
 12 27  1  0  0  0  0
 12 28  1  0  0  0  0
 13 29  1  0  0  0  0
 13 30  1  0  0  0  0
 14 31  1  0  0  0  0
 14 32  1  0  0  0  0
 15 33  1  0  0  0  0
 15 34  1  0  0  0  0
 15 35  1  0  0  0  0
 16 36  1  0  0  0  0
 16 37  1  0  0  0  0
 16 38  1  0  0  0  0
M  CHG  4   3  -1   4  -1   7   1   8   1
M  END
> <PUBCHEM_COMPOUND_CID>
517675
> <PUBCHEM_COMPOUND_CANONICALIZED>
1
> <PUBCHEM_CACTVS_COMPLEXITY>
229
> <PUBCHEM_CACTVS_HBOND_ACCEPTOR>
6
> <PUBCHEM_CACTVS_HBOND_DONOR>
2
> <PUBCHEM_CACTVS_ROTATABLE_BOND>
9
> <PUBCHEM_CACTVS_SUBSKEYS>
AAADceBzOABgAAAAAAAAAAAAAAAAAAAAAAAAAAAAAAAAAAAAAAAAHgQQAAAACCjFwASCCALAAAAIAACQCAAAAAAAAAAAAIGIAAACAAAAACAAAAAAEACQAAAAAAAAAAAAAAAAAAAAAAAAAAAAAAAAAAAAAA==
> <PUBCHEM_IUPAC_OPENEYE_NAME>
2-[2-[2-(1-carboxylatoethylammonio)ethyldisulfanyl]ethylammonio]propanoate
> <PUBCHEM_IUPAC_CAS_NAME>
2-[2-[2-(1-carboxylatoethylammonio)ethyldisulfanyl]ethylammonio]propanoate
> <PUBCHEM_IUPAC_NAME_MARKUP>
2-[2-[2-(1-carboxylatoethylazaniumyl)ethyldisulfanyl]ethylazaniumyl]propanoate
> <PUBCHEM_IUPAC_NAME>
2-[2-[2-(1-carboxylatoethylazaniumyl)ethyldisulfanyl]ethylazaniumyl]propanoate
> <PUBCHEM_IUPAC_SYSTEMATIC_NAME>
2-[2-[2-[(1-oxidanidyl-1-oxidanylidene-propan-2-yl)azaniumyl]ethyldisulfanyl]ethylazaniumyl]propanoate
> <PUBCHEM_IUPAC_TRADITIONAL_NAME>
2-[2-[2-(1-carboxylatoethylammonio)ethyldisulfanyl]ethylammonio]propionate
> <PUBCHEM_IUPAC_INCHI>
InChI=1S/C10H20N2O4S2/c1-7(9(13)14)11-3-5-17-18-6-4-12-8(2)10(15)16/h7-8,11-12H,3-6H2,1-2H3,(H,13,14)(H,15,16)
> <PUBCHEM_IUPAC_INCHIKEY>
PQYZJHWCCCXNSM-UHFFFAOYSA-N
> <PUBCHEM_XLOGP3_AA>
-3.2
> <PUBCHEM_EXACT_MASS>
296.08644947
> <PUBCHEM_MOLECULAR_FORMULA>
C10H20N2O4S2
> <PUBCHEM_MOLECULAR_WEIGHT>
296.4
> <PUBCHEM_OPENEYE_CAN_SMILES>
CC(C(=O)[O-])[NH2+]CCSSCC[NH2+]C(C)C(=O)[O-]
> <PUBCHEM_OPENEYE_ISO_SMILES>
CC(C(=O)[O-])[NH2+]CCSSCC[NH2+]C(C)C(=O)[O-]
> <PUBCHEM_CACTVS_TPSA>
164
> <PUBCHEM_MONOISOTOPIC_WEIGHT>
296.08644947
> <PUBCHEM_TOTAL_CHARGE>
0
> <PUBCHEM_HEAVY_ATOM_COUNT>
18
> <PUBCHEM_ATOM_DEF_STEREO_COUNT>
0
> <PUBCHEM_ATOM_UDEF_STEREO_COUNT>
2
> <PUBCHEM_BOND_DEF_STEREO_COUNT>
0
> <PUBCHEM_BOND_UDEF_STEREO_COUNT>
0
> <PUBCHEM_ISOTOPIC_ATOM_COUNT>
0
> <PUBCHEM_COMPONENT_COUNT>
1
> <PUBCHEM_CACTVS_TAUTO_COUNT>
-1
> <PUBCHEM_COORDINATE_TYPE>
1
5
255
> <PUBCHEM_BONDANNOTATIONS>
10  16  3
9  15  3
$$$$
