517676
  -OEChem-10302200292D
 38 37  0     1  0  0  0  0  0999 V2000
    7.7331    0.2500    0.0000 S   0  0  0  0  0  0  0  0  0  0  0  0
    8.5991   -0.2500    0.0000 S   0  0  0  0  0  0  0  0  0  0  0  0
    2.5369    0.2500    0.0000 O   0  0  0  0  0  0  0  0  0  0  0  0
   13.7953   -0.2500    0.0000 O   0  0  0  0  0  0  0  0  0  0  0  0
    3.4030   -1.2500    0.0000 O   0  0  0  0  0  0  0  0  0  0  0  0
   12.9292    1.2500    0.0000 O   0  0  0  0  0  0  0  0  0  0  0  0
    5.1350   -0.2500    0.0000 N   0  0  0  0  0  0  0  0  0  0  0  0
   11.1972    0.2500    0.0000 N   0  0  0  0  0  0  0  0  0  0  0  0
    4.2690    0.2500    0.0000 C   0  0  3  0  0  0  0  0  0  0  0  0
   12.0632   -0.2500    0.0000 C   0  0  3  0  0  0  0  0  0  0  0  0
    6.0010    0.2500    0.0000 C   0  0  0  0  0  0  0  0  0  0  0  0
   10.3312   -0.2500    0.0000 C   0  0  0  0  0  0  0  0  0  0  0  0
    6.8671   -0.2500    0.0000 C   0  0  0  0  0  0  0  0  0  0  0  0
    9.4651    0.2500    0.0000 C   0  0  0  0  0  0  0  0  0  0  0  0
    4.2690    1.2500    0.0000 C   0  0  0  0  0  0  0  0  0  0  0  0
   12.0632   -1.2500    0.0000 C   0  0  0  0  0  0  0  0  0  0  0  0
    3.4030   -0.2500    0.0000 C   0  0  0  0  0  0  0  0  0  0  0  0
   12.9292    0.2500    0.0000 C   0  0  0  0  0  0  0  0  0  0  0  0
    4.2690   -0.3700    0.0000 H   0  0  0  0  0  0  0  0  0  0  0  0
   12.0632    0.3700    0.0000 H   0  0  0  0  0  0  0  0  0  0  0  0
    6.3996    0.7249    0.0000 H   0  0  0  0  0  0  0  0  0  0  0  0
    5.6025    0.7249    0.0000 H   0  0  0  0  0  0  0  0  0  0  0  0
    9.9326   -0.7249    0.0000 H   0  0  0  0  0  0  0  0  0  0  0  0
   10.7297   -0.7249    0.0000 H   0  0  0  0  0  0  0  0  0  0  0  0
    5.1350   -0.8700    0.0000 H   0  0  0  0  0  0  0  0  0  0  0  0
   11.1972    0.8700    0.0000 H   0  0  0  0  0  0  0  0  0  0  0  0
    6.4685   -0.7249    0.0000 H   0  0  0  0  0  0  0  0  0  0  0  0
    7.2656   -0.7249    0.0000 H   0  0  0  0  0  0  0  0  0  0  0  0
    9.8637    0.7249    0.0000 H   0  0  0  0  0  0  0  0  0  0  0  0
    9.0666    0.7249    0.0000 H   0  0  0  0  0  0  0  0  0  0  0  0
    4.8890    1.2500    0.0000 H   0  0  0  0  0  0  0  0  0  0  0  0
    4.2690    1.8700    0.0000 H   0  0  0  0  0  0  0  0  0  0  0  0
    3.6490    1.2500    0.0000 H   0  0  0  0  0  0  0  0  0  0  0  0
   11.4432   -1.2500    0.0000 H   0  0  0  0  0  0  0  0  0  0  0  0
   12.0632   -1.8700    0.0000 H   0  0  0  0  0  0  0  0  0  0  0  0
   12.6832   -1.2500    0.0000 H   0  0  0  0  0  0  0  0  0  0  0  0
    2.0000   -0.0600    0.0000 H   0  0  0  0  0  0  0  0  0  0  0  0
   14.3322    0.0600    0.0000 H   0  0  0  0  0  0  0  0  0  0  0  0
  1  2  1  0  0  0  0
  1 13  1  0  0  0  0
  2 14  1  0  0  0  0
  3 17  1  0  0  0  0
  3 37  1  0  0  0  0
  4 18  1  0  0  0  0
  4 38  1  0  0  0  0
  5 17  2  0  0  0  0
  6 18  2  0  0  0  0
  7  9  1  0  0  0  0
  7 11  1  0  0  0  0
  7 25  1  0  0  0  0
  8 10  1  0  0  0  0
  8 12  1  0  0  0  0
  8 26  1  0  0  0  0
  9 15  1  0  0  0  0
  9 17  1  0  0  0  0
  9 19  1  0  0  0  0
 10 16  1  0  0  0  0
 10 18  1  0  0  0  0
 10 20  1  0  0  0  0
 11 13  1  0  0  0  0
 11 21  1  0  0  0  0
 11 22  1  0  0  0  0
 12 14  1  0  0  0  0
 12 23  1  0  0  0  0
 12 24  1  0  0  0  0
 13 27  1  0  0  0  0
 13 28  1  0  0  0  0
 14 29  1  0  0  0  0
 14 30  1  0  0  0  0
 15 31  1  0  0  0  0
 15 32  1  0  0  0  0
 15 33  1  0  0  0  0
 16 34  1  0  0  0  0
 16 35  1  0  0  0  0
 16 36  1  0  0  0  0
M  END
> <PUBCHEM_COMPOUND_CID>
517676
> <PUBCHEM_COMPOUND_CANONICALIZED>
1
> <PUBCHEM_CACTVS_COMPLEXITY>
240
> <PUBCHEM_CACTVS_HBOND_ACCEPTOR>
8
> <PUBCHEM_CACTVS_HBOND_DONOR>
4
> <PUBCHEM_CACTVS_ROTATABLE_BOND>
11
> <PUBCHEM_CACTVS_SUBSKEYS>
AAADceBzOABgAAAAAAAAAAAAAAAAAAAAAAAAAAAAAAAAAAAAAAAAHgQQCAAACCjFwASCCALAAgAIAACQCAAAAAAAAAAAAIGIAAACAAAAACAAQAAAEACQAAAAAAAAAAAAAAAAAAAAAAAAAAAAAAAAAAAAAA==
> <PUBCHEM_IUPAC_OPENEYE_NAME>
2-[2-[2-(1-carboxyethylamino)ethyldisulfanyl]ethylamino]propanoic acid
> <PUBCHEM_IUPAC_CAS_NAME>
2-[2-[2-(1-carboxyethylamino)ethyldisulfanyl]ethylamino]propanoic acid
> <PUBCHEM_IUPAC_NAME_MARKUP>
2-[2-[2-(1-carboxyethylamino)ethyldisulfanyl]ethylamino]propanoic acid
> <PUBCHEM_IUPAC_NAME>
2-[2-[2-(1-carboxyethylamino)ethyldisulfanyl]ethylamino]propanoic acid
> <PUBCHEM_IUPAC_SYSTEMATIC_NAME>
2-[2-[2-[(1-oxidanyl-1-oxidanylidene-propan-2-yl)amino]ethyldisulfanyl]ethylamino]propanoic acid
> <PUBCHEM_IUPAC_TRADITIONAL_NAME>
2-[2-[2-(1-carboxyethylamino)ethyldisulfanyl]ethylamino]propionic acid
> <PUBCHEM_IUPAC_INCHI>
InChI=1S/C10H20N2O4S2/c1-7(9(13)14)11-3-5-17-18-6-4-12-8(2)10(15)16/h7-8,11-12H,3-6H2,1-2H3,(H,13,14)(H,15,16)
> <PUBCHEM_IUPAC_INCHIKEY>
PQYZJHWCCCXNSM-UHFFFAOYSA-N
> <PUBCHEM_XLOGP3_AA>
-4.5
> <PUBCHEM_EXACT_MASS>
296.08644947
> <PUBCHEM_MOLECULAR_FORMULA>
C10H20N2O4S2
> <PUBCHEM_MOLECULAR_WEIGHT>
296.4
> <PUBCHEM_OPENEYE_CAN_SMILES>
CC(C(=O)O)NCCSSCCNC(C)C(=O)O
> <PUBCHEM_OPENEYE_ISO_SMILES>
CC(C(=O)O)NCCSSCCNC(C)C(=O)O
> <PUBCHEM_CACTVS_TPSA>
149
> <PUBCHEM_MONOISOTOPIC_WEIGHT>
296.08644947
> <PUBCHEM_TOTAL_CHARGE>
0
> <PUBCHEM_HEAVY_ATOM_COUNT>
18
> <PUBCHEM_ATOM_DEF_STEREO_COUNT>
0
> <PUBCHEM_ATOM_UDEF_STEREO_COUNT>
2
> <PUBCHEM_BOND_DEF_STEREO_COUNT>
0
> <PUBCHEM_BOND_UDEF_STEREO_COUNT>
0
> <PUBCHEM_ISOTOPIC_ATOM_COUNT>
0
> <PUBCHEM_COMPONENT_COUNT>
1
> <PUBCHEM_CACTVS_TAUTO_COUNT>
-1
> <PUBCHEM_COORDINATE_TYPE>
1
5
255
> <PUBCHEM_BONDANNOTATIONS>
10  16  3
9  15  3
$$$$
