517687
  -OEChem-10302200292D
 40 39  0     1  0  0  0  0  0999 V2000
    3.8971   10.0369    0.0000 O   0  5  0  0  0  0  0  0  0  0  0  0
    3.0311   11.5369    0.0000 O   0  0  0  0  0  0  0  0  0  0  0  0
    0.8660    3.0000    0.0000 O   0  5  0  0  0  0  0  0  0  0  0  0
    0.8660    0.0000    0.0000 O   0  5  0  0  0  0  0  0  0  0  0  0
    3.4641    4.5000    0.0000 O   0  5  0  0  0  0  0  0  0  0  0  0
    0.0000    1.5000    0.0000 O   0  0  0  0  0  0  0  0  0  0  0  0
    1.7320    4.5000    0.0000 O   0  0  0  0  0  0  0  0  0  0  0  0
    4.3301    0.0000    0.0000 O   0  5  0  0  0  0  0  0  0  0  0  0
    5.1962    1.5000    0.0000 O   0  0  0  0  0  0  0  0  0  0  0  0
    1.2990   10.5369    0.0000 N   0  3  0  0  0  0  0  0  0  0  0  0
    3.8971    7.0369    0.0000 N   0  3  0  0  0  0  0  0  0  0  0  0
    0.8660    1.0000    0.0000 N   0  3  0  0  0  0  0  0  0  0  0  0
    2.5981    4.0000    0.0000 N   0  3  0  0  0  0  0  0  0  0  0  0
    4.3301    1.0000    0.0000 N   0  3  0  0  0  0  0  0  0  0  0  0
    2.1651    9.0369    0.0000 C   0  0  0  0  0  0  0  0  0  0  0  0
    3.0311    8.5369    0.0000 C   0  0  0  0  0  0  0  0  0  0  0  0
    2.1651   10.0369    0.0000 C   0  0  3  0  0  0  0  0  0  0  0  0
    3.0311    7.5369    0.0000 C   0  0  0  0  0  0  0  0  0  0  0  0
    3.0311   10.5369    0.0000 C   0  0  0  0  0  0  0  0  0  0  0  0
    1.7320    1.5000    0.0000 C   0  0  0  0  0  0  0  0  0  0  0  0
    2.5981    3.0000    0.0000 C   0  0  0  0  0  0  0  0  0  0  0  0
    3.4641    1.5000    0.0000 C   0  0  0  0  0  0  0  0  0  0  0  0
    1.7320    2.5000    0.0000 C   0  0  0  0  0  0  0  0  0  0  0  0
    2.5981    1.0000    0.0000 C   0  0  0  0  0  0  0  0  0  0  0  0
    3.4641    2.5000    0.0000 C   0  0  0  0  0  0  0  0  0  0  0  0
    1.5545    9.1446    0.0000 H   0  0  0  0  0  0  0  0  0  0  0  0
    1.9530    8.4543    0.0000 H   0  0  0  0  0  0  0  0  0  0  0  0
    3.6417    8.4293    0.0000 H   0  0  0  0  0  0  0  0  0  0  0  0
    3.2431    9.1195    0.0000 H   0  0  0  0  0  0  0  0  0  0  0  0
    1.6281    9.7269    0.0000 H   0  0  0  0  0  0  0  0  0  0  0  0
    2.4205    7.6446    0.0000 H   0  0  0  0  0  0  0  0  0  0  0  0
    2.8190    6.9543    0.0000 H   0  0  0  0  0  0  0  0  0  0  0  0
    0.7621   10.8469    0.0000 H   0  0  0  0  0  0  0  0  0  0  0  0
    0.9890   10.0000    0.0000 H   0  0  0  0  0  0  0  0  0  0  0  0
    1.6090   11.0739    0.0000 H   0  0  0  0  0  0  0  0  0  0  0  0
    4.4340    6.7269    0.0000 H   0  0  0  0  0  0  0  0  0  0  0  0
    3.5871    6.5000    0.0000 H   0  0  0  0  0  0  0  0  0  0  0  0
    4.2071    7.5739    0.0000 H   0  0  0  0  0  0  0  0  0  0  0  0
    2.5981    0.3800    0.0000 H   0  0  0  0  0  0  0  0  0  0  0  0
    4.0010    2.8100    0.0000 H   0  0  0  0  0  0  0  0  0  0  0  0
  1 19  1  0  0  0  0
  2 19  2  0  0  0  0
  3 23  1  0  0  0  0
  4 12  1  0  0  0  0
  5 13  1  0  0  0  0
  6 12  2  0  0  0  0
  7 13  2  0  0  0  0
  8 14  1  0  0  0  0
  9 14  2  0  0  0  0
 10 17  1  0  0  0  0
 10 33  1  0  0  0  0
 10 34  1  0  0  0  0
 10 35  1  0  0  0  0
 11 18  1  0  0  0  0
 11 36  1  0  0  0  0
 11 37  1  0  0  0  0
 11 38  1  0  0  0  0
 12 20  1  0  0  0  0
 13 21  1  0  0  0  0
 14 22  1  0  0  0  0
 15 16  1  0  0  0  0
 15 17  1  0  0  0  0
 15 26  1  0  0  0  0
 15 27  1  0  0  0  0
 16 18  1  0  0  0  0
 16 28  1  0  0  0  0
 16 29  1  0  0  0  0
 17 19  1  0  0  0  0
 17 30  1  0  0  0  0
 18 31  1  0  0  0  0
 18 32  1  0  0  0  0
 20 23  2  0  0  0  0
 20 24  1  0  0  0  0
 21 23  1  0  0  0  0
 21 25  2  0  0  0  0
 22 24  2  0  0  0  0
 22 25  1  0  0  0  0
 24 39  1  0  0  0  0
 25 40  1  0  0  0  0
M  CHG  8   1  -1   3  -1   4  -1   5  -1   8  -1  10   1  11   1  12   1
M  CHG  2  13   1  14   1
M  END
> <PUBCHEM_COMPOUND_CID>
517687
> <PUBCHEM_COMPOUND_CANONICALIZED>
1
> <PUBCHEM_CACTVS_COMPLEXITY>
381
> <PUBCHEM_CACTVS_HBOND_ACCEPTOR>
9
> <PUBCHEM_CACTVS_HBOND_DONOR>
2
> <PUBCHEM_CACTVS_ROTATABLE_BOND>
3
> <PUBCHEM_CACTVS_SUBSKEYS>
AAADccBzvAAAAAAAAAAAAAAAAAAAAAAAAAAwAAAAAAAAAAABAAAAHgAUAAAACCzBkAQwzoBQQACJACTSSwCCAAAgIgAgiIGFbIoKJjKA0dOAMABk0FEIyAe4UQAAAEAAAAQAEAAAgAAACAAgAAAAAAAAAA==
> <PUBCHEM_IUPAC_OPENEYE_NAME>
2,5-bis(azaniumyl)pentanoate;2,4,6-trinitrophenolate
> <PUBCHEM_IUPAC_CAS_NAME>
2,5-diammoniopentanoate;2,4,6-trinitrophenolate
> <PUBCHEM_IUPAC_NAME_MARKUP>
2,5-bis(azaniumyl)pentanoate;2,4,6-trinitrophenolate
> <PUBCHEM_IUPAC_NAME>
2,5-bis(azaniumyl)pentanoate;2,4,6-trinitrophenolate
> <PUBCHEM_IUPAC_SYSTEMATIC_NAME>
2,5-bis(azaniumyl)pentanoate;2,4,6-trinitrophenolate
> <PUBCHEM_IUPAC_TRADITIONAL_NAME>
2,5-diammoniovalerate;picrate
> <PUBCHEM_IUPAC_INCHI>
InChI=1S/C6H3N3O7.C5H12N2O2/c10-6-4(8(13)14)1-3(7(11)12)2-5(6)9(15)16;6-3-1-2-4(7)5(8)9/h1-2,10H;4H,1-3,6-7H2,(H,8,9)
> <PUBCHEM_IUPAC_INCHIKEY>
WKIKSEOAEQBGPM-UHFFFAOYSA-N
> <PUBCHEM_EXACT_MASS>
361.08697707
> <PUBCHEM_MOLECULAR_FORMULA>
C11H15N5O9
> <PUBCHEM_MOLECULAR_WEIGHT>
361.27
> <PUBCHEM_OPENEYE_CAN_SMILES>
C1=C(C=C(C(=C1[N+](=O)[O-])[O-])[N+](=O)[O-])[N+](=O)[O-].C(CC(C(=O)[O-])[NH3+])C[NH3+]
> <PUBCHEM_OPENEYE_ISO_SMILES>
C1=C(C=C(C(=C1[N+](=O)[O-])[O-])[N+](=O)[O-])[N+](=O)[O-].C(CC(C(=O)[O-])[NH3+])C[NH3+]
> <PUBCHEM_CACTVS_TPSA>
256
> <PUBCHEM_MONOISOTOPIC_WEIGHT>
361.08697707
> <PUBCHEM_TOTAL_CHARGE>
0
> <PUBCHEM_HEAVY_ATOM_COUNT>
25
> <PUBCHEM_ATOM_DEF_STEREO_COUNT>
0
> <PUBCHEM_ATOM_UDEF_STEREO_COUNT>
1
> <PUBCHEM_BOND_DEF_STEREO_COUNT>
0
> <PUBCHEM_BOND_UDEF_STEREO_COUNT>
0
> <PUBCHEM_ISOTOPIC_ATOM_COUNT>
0
> <PUBCHEM_COMPONENT_COUNT>
2
> <PUBCHEM_CACTVS_TAUTO_COUNT>
-1
> <PUBCHEM_COORDINATE_TYPE>
1
5
255
> <PUBCHEM_BONDANNOTATIONS>
17  10  3
20  23  8
20  24  8
21  23  8
21  25  8
22  24  8
22  25  8
$$$$
