517671
  -OEChem-10302200292D
 26 24  0     1  0  0  0  0  0999 V2000
    0.0000    2.5785    0.0000 Cl  0  0  0  0  0  0  0  0  0  0  0  0
    5.2690    5.1200    0.0000 O   0  0  0  0  0  0  0  0  0  0  0  0
    5.2690    0.0000    0.0000 O   0  0  0  0  0  0  0  0  0  0  0  0
    5.2690    3.1200    0.0000 N   0  0  0  0  0  0  0  0  0  0  0  0
    6.1350    4.6200    0.0000 C   0  0  3  0  0  0  0  0  0  0  0  0
    4.4030    4.6200    0.0000 C   0  0  3  0  0  0  0  0  0  0  0  0
    6.1350    3.6200    0.0000 C   0  0  0  0  0  0  0  0  0  0  0  0
    4.4030    3.6200    0.0000 C   0  0  0  0  0  0  0  0  0  0  0  0
    7.0010    5.1200    0.0000 C   0  0  0  0  0  0  0  0  0  0  0  0
    3.5369    5.1200    0.0000 C   0  0  0  0  0  0  0  0  0  0  0  0
    6.1350    5.2400    0.0000 H   0  0  0  0  0  0  0  0  0  0  0  0
    4.4030    5.2400    0.0000 H   0  0  0  0  0  0  0  0  0  0  0  0
    6.3471    3.0374    0.0000 H   0  0  0  0  0  0  0  0  0  0  0  0
    6.7456    3.7277    0.0000 H   0  0  0  0  0  0  0  0  0  0  0  0
    3.7924    3.7277    0.0000 H   0  0  0  0  0  0  0  0  0  0  0  0
    4.1909    3.0374    0.0000 H   0  0  0  0  0  0  0  0  0  0  0  0
    5.2690    2.5000    0.0000 H   0  0  0  0  0  0  0  0  0  0  0  0
    7.3110    4.5831    0.0000 H   0  0  0  0  0  0  0  0  0  0  0  0
    7.5380    5.4300    0.0000 H   0  0  0  0  0  0  0  0  0  0  0  0
    6.6910    5.6569    0.0000 H   0  0  0  0  0  0  0  0  0  0  0  0
    3.8469    5.6569    0.0000 H   0  0  0  0  0  0  0  0  0  0  0  0
    3.0000    5.4300    0.0000 H   0  0  0  0  0  0  0  0  0  0  0  0
    3.2269    4.5831    0.0000 H   0  0  0  0  0  0  0  0  0  0  0  0
    5.8059    0.3100    0.0000 H   0  0  0  0  0  0  0  0  0  0  0  0
    4.7320    0.3100    0.0000 H   0  0  0  0  0  0  0  0  0  0  0  0
    1.0000    2.5785    0.0000 H   0  0  0  0  0  0  0  0  0  0  0  0
  1 26  1  0  0  0  0
  2  5  1  0  0  0  0
  2  6  1  0  0  0  0
  3 24  1  0  0  0  0
  3 25  1  0  0  0  0
  4  7  1  0  0  0  0
  4  8  1  0  0  0  0
  4 17  1  0  0  0  0
  5  7  1  0  0  0  0
  5  9  1  0  0  0  0
  5 11  1  0  0  0  0
  6  8  1  0  0  0  0
  6 10  1  0  0  0  0
  6 12  1  0  0  0  0
  7 13  1  0  0  0  0
  7 14  1  0  0  0  0
  8 15  1  0  0  0  0
  8 16  1  0  0  0  0
  9 18  1  0  0  0  0
  9 19  1  0  0  0  0
  9 20  1  0  0  0  0
 10 21  1  0  0  0  0
 10 22  1  0  0  0  0
 10 23  1  0  0  0  0
M  END
> <PUBCHEM_COMPOUND_CID>
517671
> <PUBCHEM_COMPOUND_CANONICALIZED>
1
> <PUBCHEM_CACTVS_COMPLEXITY>
66.9
> <PUBCHEM_CACTVS_HBOND_ACCEPTOR>
3
> <PUBCHEM_CACTVS_HBOND_DONOR>
3
> <PUBCHEM_CACTVS_ROTATABLE_BOND>
0
> <PUBCHEM_CACTVS_SUBSKEYS>
AAADceBiMAAEAAAAAAAAAAAAAAAAAAAAAAAsAAAAAAAAAAAAAAAAHgAQCAAACBThgAYCAALABAAAAAAAAAAAAAAAAAAAAIAIAAACAAAAAAAHAAAAEACQAAAAAAAAAAAAAAAAAAAAAAAAAAAAAAAAAAAAAA==
> <PUBCHEM_IUPAC_OPENEYE_NAME>
2,6-dimethylmorpholine;hydrate;hydrochloride
> <PUBCHEM_IUPAC_CAS_NAME>
2,6-dimethylmorpholine;hydrate;hydrochloride
> <PUBCHEM_IUPAC_NAME_MARKUP>
2,6-dimethylmorpholine;hydrate;hydrochloride
> <PUBCHEM_IUPAC_NAME>
2,6-dimethylmorpholine;hydrate;hydrochloride
> <PUBCHEM_IUPAC_SYSTEMATIC_NAME>
2,6-dimethylmorpholine;hydrate;hydrochloride
> <PUBCHEM_IUPAC_TRADITIONAL_NAME>
2,6-dimethylmorpholine;hydrate;hydrochloride
> <PUBCHEM_IUPAC_INCHI>
InChI=1S/C6H13NO.ClH.H2O/c1-5-3-7-4-6(2)8-5;;/h5-7H,3-4H2,1-2H3;1H;1H2
> <PUBCHEM_IUPAC_INCHIKEY>
WIFXQUHMRRMPHF-UHFFFAOYSA-N
> <PUBCHEM_EXACT_MASS>
169.0869564
> <PUBCHEM_MOLECULAR_FORMULA>
C6H16ClNO2
> <PUBCHEM_MOLECULAR_WEIGHT>
169.65
> <PUBCHEM_OPENEYE_CAN_SMILES>
CC1CNCC(O1)C.O.Cl
> <PUBCHEM_OPENEYE_ISO_SMILES>
CC1CNCC(O1)C.O.Cl
> <PUBCHEM_CACTVS_TPSA>
22.3
> <PUBCHEM_MONOISOTOPIC_WEIGHT>
169.0869564
> <PUBCHEM_TOTAL_CHARGE>
0
> <PUBCHEM_HEAVY_ATOM_COUNT>
10
> <PUBCHEM_ATOM_DEF_STEREO_COUNT>
0
> <PUBCHEM_ATOM_UDEF_STEREO_COUNT>
2
> <PUBCHEM_BOND_DEF_STEREO_COUNT>
0
> <PUBCHEM_BOND_UDEF_STEREO_COUNT>
0
> <PUBCHEM_ISOTOPIC_ATOM_COUNT>
0
> <PUBCHEM_COMPONENT_COUNT>
3
> <PUBCHEM_CACTVS_TAUTO_COUNT>
-1
> <PUBCHEM_COORDINATE_TYPE>
1
5
255
> <PUBCHEM_BONDANNOTATIONS>
5  9  3
6  10  3
$$$$
