517688
  -OEChem-10302200292D
 61 60  0     1  0  0  0  0  0999 V2000
    7.5079    0.8660    0.0000 S   0  0  0  0  0  0  0  0  0  0  0  0
    1.4030    2.1760    0.0000 O   0  0  0  0  0  0  0  0  0  0  0  0
    7.0749    4.0420    0.0000 O   0  0  0  0  0  0  0  0  0  0  0  0
    6.6419    0.3660    0.0000 O   0  5  0  0  0  0  0  0  0  0  0  0
    7.0079    1.7320    0.0000 O   0  5  0  0  0  0  0  0  0  0  0  0
    8.3740    1.3660    0.0000 O   0  0  0  0  0  0  0  0  0  0  0  0
    8.0079    0.0000    0.0000 O   0  0  0  0  0  0  0  0  0  0  0  0
    2.2690    7.6760    0.0000 N   0  3  0  0  0  0  0  0  0  0  0  0
    7.9409    9.5420    0.0000 N   0  3  0  0  0  0  0  0  0  0  0  0
    2.2690    6.6760    0.0000 C   0  0  3  0  0  0  0  0  0  0  0  0
    7.9409    8.5420    0.0000 C   0  0  3  0  0  0  0  0  0  0  0  0
    1.4030    6.1760    0.0000 C   0  0  0  0  0  0  0  0  0  0  0  0
    7.0749    8.0420    0.0000 C   0  0  0  0  0  0  0  0  0  0  0  0
    3.1350    6.1760    0.0000 C   0  0  0  0  0  0  0  0  0  0  0  0
    8.8070    8.0420    0.0000 C   0  0  0  0  0  0  0  0  0  0  0  0
    1.4030    5.1760    0.0000 C   0  0  0  0  0  0  0  0  0  0  0  0
    7.0749    7.0420    0.0000 C   0  0  0  0  0  0  0  0  0  0  0  0
    2.2690    8.6760    0.0000 C   0  0  0  0  0  0  0  0  0  0  0  0
    7.9409   10.5421    0.0000 C   0  0  0  0  0  0  0  0  0  0  0  0
    2.2690    4.6760    0.0000 C   0  0  0  0  0  0  0  0  0  0  0  0
    7.9409    6.5420    0.0000 C   0  0  0  0  0  0  0  0  0  0  0  0
    0.5369    4.6760    0.0000 C   0  0  0  0  0  0  0  0  0  0  0  0
    6.2089    6.5420    0.0000 C   0  0  0  0  0  0  0  0  0  0  0  0
    2.2690    3.6760    0.0000 C   0  0  0  0  0  0  0  0  0  0  0  0
    7.9409    5.5420    0.0000 C   0  0  0  0  0  0  0  0  0  0  0  0
    0.5369    3.6760    0.0000 C   0  0  0  0  0  0  0  0  0  0  0  0
    6.2089    5.5420    0.0000 C   0  0  0  0  0  0  0  0  0  0  0  0
    1.4030    3.1760    0.0000 C   0  0  0  0  0  0  0  0  0  0  0  0
    7.0749    5.0420    0.0000 C   0  0  0  0  0  0  0  0  0  0  0  0
    2.8059    6.9860    0.0000 H   0  0  0  0  0  0  0  0  0  0  0  0
    7.4040    8.8520    0.0000 H   0  0  0  0  0  0  0  0  0  0  0  0
    1.1909    6.7586    0.0000 H   0  0  0  0  0  0  0  0  0  0  0  0
    0.7924    6.0684    0.0000 H   0  0  0  0  0  0  0  0  0  0  0  0
    6.8629    8.6247    0.0000 H   0  0  0  0  0  0  0  0  0  0  0  0
    6.4643    7.9344    0.0000 H   0  0  0  0  0  0  0  0  0  0  0  0
    2.8890    7.6760    0.0000 H   0  0  0  0  0  0  0  0  0  0  0  0
    1.6490    7.6760    0.0000 H   0  0  0  0  0  0  0  0  0  0  0  0
    8.5609    9.5420    0.0000 H   0  0  0  0  0  0  0  0  0  0  0  0
    7.3209    9.5420    0.0000 H   0  0  0  0  0  0  0  0  0  0  0  0
    2.8250    5.6391    0.0000 H   0  0  0  0  0  0  0  0  0  0  0  0
    3.6720    5.8660    0.0000 H   0  0  0  0  0  0  0  0  0  0  0  0
    3.4450    6.7130    0.0000 H   0  0  0  0  0  0  0  0  0  0  0  0
    8.4970    7.5051    0.0000 H   0  0  0  0  0  0  0  0  0  0  0  0
    9.3439    7.7320    0.0000 H   0  0  0  0  0  0  0  0  0  0  0  0
    9.1170    8.5790    0.0000 H   0  0  0  0  0  0  0  0  0  0  0  0
    2.8890    8.6760    0.0000 H   0  0  0  0  0  0  0  0  0  0  0  0
    2.2690    9.2960    0.0000 H   0  0  0  0  0  0  0  0  0  0  0  0
    1.6490    8.6760    0.0000 H   0  0  0  0  0  0  0  0  0  0  0  0
    8.5609   10.5421    0.0000 H   0  0  0  0  0  0  0  0  0  0  0  0
    7.9409   11.1621    0.0000 H   0  0  0  0  0  0  0  0  0  0  0  0
    7.3209   10.5421    0.0000 H   0  0  0  0  0  0  0  0  0  0  0  0
    2.8059    4.9860    0.0000 H   0  0  0  0  0  0  0  0  0  0  0  0
    8.4779    6.8520    0.0000 H   0  0  0  0  0  0  0  0  0  0  0  0
    0.0000    4.9860    0.0000 H   0  0  0  0  0  0  0  0  0  0  0  0
    5.6720    6.8520    0.0000 H   0  0  0  0  0  0  0  0  0  0  0  0
    2.8059    3.3660    0.0000 H   0  0  0  0  0  0  0  0  0  0  0  0
    8.4779    5.2320    0.0000 H   0  0  0  0  0  0  0  0  0  0  0  0
    0.0000    3.3660    0.0000 H   0  0  0  0  0  0  0  0  0  0  0  0
    5.6720    5.2320    0.0000 H   0  0  0  0  0  0  0  0  0  0  0  0
    0.8660    1.8660    0.0000 H   0  0  0  0  0  0  0  0  0  0  0  0
    6.5380    3.7320    0.0000 H   0  0  0  0  0  0  0  0  0  0  0  0
  1  4  1  0  0  0  0
  1  5  1  0  0  0  0
  1  6  2  0  0  0  0
  1  7  2  0  0  0  0
  2 28  1  0  0  0  0
  2 60  1  0  0  0  0
  3 29  1  0  0  0  0
  3 61  1  0  0  0  0
  8 10  1  0  0  0  0
  8 18  1  0  0  0  0
  8 36  1  0  0  0  0
  8 37  1  0  0  0  0
  9 11  1  0  0  0  0
  9 19  1  0  0  0  0
  9 38  1  0  0  0  0
  9 39  1  0  0  0  0
 10 12  1  0  0  0  0
 10 14  1  0  0  0  0
 10 30  1  0  0  0  0
 11 13  1  0  0  0  0
 11 15  1  0  0  0  0
 11 31  1  0  0  0  0
 12 16  1  0  0  0  0
 12 32  1  0  0  0  0
 12 33  1  0  0  0  0
 13 17  1  0  0  0  0
 13 34  1  0  0  0  0
 13 35  1  0  0  0  0
 14 40  1  0  0  0  0
 14 41  1  0  0  0  0
 14 42  1  0  0  0  0
 15 43  1  0  0  0  0
 15 44  1  0  0  0  0
 15 45  1  0  0  0  0
 16 20  2  0  0  0  0
 16 22  1  0  0  0  0
 17 21  2  0  0  0  0
 17 23  1  0  0  0  0
 18 46  1  0  0  0  0
 18 47  1  0  0  0  0
 18 48  1  0  0  0  0
 19 49  1  0  0  0  0
 19 50  1  0  0  0  0
 19 51  1  0  0  0  0
 20 24  1  0  0  0  0
 20 52  1  0  0  0  0
 21 25  1  0  0  0  0
 21 53  1  0  0  0  0
 22 26  2  0  0  0  0
 22 54  1  0  0  0  0
 23 27  2  0  0  0  0
 23 55  1  0  0  0  0
 24 28  2  0  0  0  0
 24 56  1  0  0  0  0
 25 29  2  0  0  0  0
 25 57  1  0  0  0  0
 26 28  1  0  0  0  0
 26 58  1  0  0  0  0
 27 29  1  0  0  0  0
 27 59  1  0  0  0  0
M  CHG  4   4  -1   5  -1   8   1   9   1
M  END
> <PUBCHEM_COMPOUND_CID>
517688
> <PUBCHEM_COMPOUND_CANONICALIZED>
1
> <PUBCHEM_CACTVS_COMPLEXITY>
181
> <PUBCHEM_CACTVS_HBOND_ACCEPTOR>
6
> <PUBCHEM_CACTVS_HBOND_DONOR>
4
> <PUBCHEM_CACTVS_ROTATABLE_BOND>
6
> <PUBCHEM_CACTVS_SUBSKEYS>
AAADcfB7OABAAAAAAAAAAAAAAAAAAAAAAAAwYAAAAAAAAAABQAAAHgAQCAAADCzBmAQyBoLAAgCAAiBCADACAAAgIAAIiIAOCIgIJiKCkROEcAAk0BEImAeQwKAOIAAAAAAAAABAAAAAAAAAAAAAAAAAAA==
> <PUBCHEM_IUPAC_OPENEYE_NAME>
[2-(4-hydroxyphenyl)-1-methyl-ethyl]-methyl-ammonium;sulfate
> <PUBCHEM_IUPAC_CAS_NAME>
1-(4-hydroxyphenyl)propan-2-yl-methylammonium;sulfate
> <PUBCHEM_IUPAC_NAME_MARKUP>
1-(4-hydroxyphenyl)propan-2-yl-methylazanium;sulfate
> <PUBCHEM_IUPAC_NAME>
1-(4-hydroxyphenyl)propan-2-yl-methylazanium;sulfate
> <PUBCHEM_IUPAC_SYSTEMATIC_NAME>
1-(4-hydroxyphenyl)propan-2-yl-methyl-azanium;sulfate
> <PUBCHEM_IUPAC_TRADITIONAL_NAME>
[2-(4-hydroxyphenyl)-1-methyl-ethyl]-methyl-ammonium;sulfate
> <PUBCHEM_IUPAC_INCHI>
InChI=1S/2C10H15NO.H2O4S/c2*1-8(11-2)7-9-3-5-10(12)6-4-9;1-5(2,3)4/h2*3-6,8,11-12H,7H2,1-2H3;(H2,1,2,3,4)
> <PUBCHEM_IUPAC_INCHIKEY>
WUORSSYNZWHFQY-UHFFFAOYSA-N
> <PUBCHEM_EXACT_MASS>
428.19810792
> <PUBCHEM_MOLECULAR_FORMULA>
C20H32N2O6S
> <PUBCHEM_MOLECULAR_WEIGHT>
428.5
> <PUBCHEM_OPENEYE_CAN_SMILES>
CC(CC1=CC=C(C=C1)O)[NH2+]C.CC(CC1=CC=C(C=C1)O)[NH2+]C.[O-]S(=O)(=O)[O-]
> <PUBCHEM_OPENEYE_ISO_SMILES>
CC(CC1=CC=C(C=C1)O)[NH2+]C.CC(CC1=CC=C(C=C1)O)[NH2+]C.[O-]S(=O)(=O)[O-]
> <PUBCHEM_CACTVS_TPSA>
162
> <PUBCHEM_MONOISOTOPIC_WEIGHT>
428.19810792
> <PUBCHEM_TOTAL_CHARGE>
0
> <PUBCHEM_HEAVY_ATOM_COUNT>
29
> <PUBCHEM_ATOM_DEF_STEREO_COUNT>
0
> <PUBCHEM_ATOM_UDEF_STEREO_COUNT>
2
> <PUBCHEM_BOND_DEF_STEREO_COUNT>
0
> <PUBCHEM_BOND_UDEF_STEREO_COUNT>
0
> <PUBCHEM_ISOTOPIC_ATOM_COUNT>
0
> <PUBCHEM_COMPONENT_COUNT>
3
> <PUBCHEM_CACTVS_TAUTO_COUNT>
-1
> <PUBCHEM_COORDINATE_TYPE>
1
5
255
> <PUBCHEM_BONDANNOTATIONS>
10  14  3
11  15  3
16  20  8
16  22  8
17  21  8
17  23  8
20  24  8
21  25  8
22  26  8
23  27  8
24  28  8
25  29  8
26  28  8
27  29  8
$$$$
