517635
  -OEChem-10302200292D
 46 43  0     1  0  0  0  0  0999 V2000
    4.8001    0.0000    0.0000 Cl  0  0  0  0  0  0  0  0  0  0  0  0
    4.8001    2.5000    0.0000 Cl  0  0  0  0  0  0  0  0  0  0  0  0
    0.5369    7.6200    0.0000 N   0  0  0  0  0  0  0  0  0  0  0  0
    2.2690    5.6200    0.0000 N   0  0  0  0  0  0  0  0  0  0  0  0
    4.0010    7.6200    0.0000 C   0  0  0  0  0  0  0  0  0  0  0  0
    4.8671    7.1200    0.0000 C   0  0  0  0  0  0  0  0  0  0  0  0
    3.1350    7.1200    0.0000 C   0  0  0  0  0  0  0  0  0  0  0  0
    5.7331    7.6200    0.0000 C   0  0  0  0  0  0  0  0  0  0  0  0
    2.2690    7.6200    0.0000 C   0  0  0  0  0  0  0  0  0  0  0  0
    6.5991    7.1200    0.0000 C   0  0  0  0  0  0  0  0  0  0  0  0
    1.4030    7.1200    0.0000 C   0  0  3  0  0  0  0  0  0  0  0  0
    7.4651    7.6200    0.0000 C   0  0  0  0  0  0  0  0  0  0  0  0
    8.3312    7.1200    0.0000 C   0  0  0  0  0  0  0  0  0  0  0  0
    1.4030    6.1200    0.0000 C   0  0  0  0  0  0  0  0  0  0  0  0
    9.1972    7.6200    0.0000 C   0  0  0  0  0  0  0  0  0  0  0  0
   10.0632    7.1200    0.0000 C   0  0  0  0  0  0  0  0  0  0  0  0
    4.3996    8.0950    0.0000 H   0  0  0  0  0  0  0  0  0  0  0  0
    3.6025    8.0950    0.0000 H   0  0  0  0  0  0  0  0  0  0  0  0
    4.4685    6.6450    0.0000 H   0  0  0  0  0  0  0  0  0  0  0  0
    5.2656    6.6450    0.0000 H   0  0  0  0  0  0  0  0  0  0  0  0
    2.7365    6.6450    0.0000 H   0  0  0  0  0  0  0  0  0  0  0  0
    3.5335    6.6450    0.0000 H   0  0  0  0  0  0  0  0  0  0  0  0
    6.1316    8.0950    0.0000 H   0  0  0  0  0  0  0  0  0  0  0  0
    5.3346    8.0950    0.0000 H   0  0  0  0  0  0  0  0  0  0  0  0
    2.6675    8.0950    0.0000 H   0  0  0  0  0  0  0  0  0  0  0  0
    1.8705    8.0950    0.0000 H   0  0  0  0  0  0  0  0  0  0  0  0
    6.2006    6.6450    0.0000 H   0  0  0  0  0  0  0  0  0  0  0  0
    6.9976    6.6450    0.0000 H   0  0  0  0  0  0  0  0  0  0  0  0
    0.8660    6.8100    0.0000 H   0  0  0  0  0  0  0  0  0  0  0  0
    7.8637    8.0950    0.0000 H   0  0  0  0  0  0  0  0  0  0  0  0
    7.0666    8.0950    0.0000 H   0  0  0  0  0  0  0  0  0  0  0  0
    7.9326    6.6450    0.0000 H   0  0  0  0  0  0  0  0  0  0  0  0
    8.7297    6.6450    0.0000 H   0  0  0  0  0  0  0  0  0  0  0  0
    0.7924    6.2277    0.0000 H   0  0  0  0  0  0  0  0  0  0  0  0
    1.1909    5.5374    0.0000 H   0  0  0  0  0  0  0  0  0  0  0  0
    9.5957    8.0950    0.0000 H   0  0  0  0  0  0  0  0  0  0  0  0
    8.7987    8.0950    0.0000 H   0  0  0  0  0  0  0  0  0  0  0  0
    0.0000    7.3100    0.0000 H   0  0  0  0  0  0  0  0  0  0  0  0
    0.5369    8.2400    0.0000 H   0  0  0  0  0  0  0  0  0  0  0  0
    9.7532    6.5831    0.0000 H   0  0  0  0  0  0  0  0  0  0  0  0
   10.6002    6.8100    0.0000 H   0  0  0  0  0  0  0  0  0  0  0  0
   10.3732    7.6569    0.0000 H   0  0  0  0  0  0  0  0  0  0  0  0
    2.2690    5.0000    0.0000 H   0  0  0  0  0  0  0  0  0  0  0  0
    2.8059    5.9300    0.0000 H   0  0  0  0  0  0  0  0  0  0  0  0
    5.8001    0.0000    0.0000 H   0  0  0  0  0  0  0  0  0  0  0  0
    5.8001    2.5000    0.0000 H   0  0  0  0  0  0  0  0  0  0  0  0
  1 45  1  0  0  0  0
  2 46  1  0  0  0  0
  3 11  1  0  0  0  0
  3 38  1  0  0  0  0
  3 39  1  0  0  0  0
  4 14  1  0  0  0  0
  4 43  1  0  0  0  0
  4 44  1  0  0  0  0
  5  6  1  0  0  0  0
  5  7  1  0  0  0  0
  5 17  1  0  0  0  0
  5 18  1  0  0  0  0
  6  8  1  0  0  0  0
  6 19  1  0  0  0  0
  6 20  1  0  0  0  0
  7  9  1  0  0  0  0
  7 21  1  0  0  0  0
  7 22  1  0  0  0  0
  8 10  1  0  0  0  0
  8 23  1  0  0  0  0
  8 24  1  0  0  0  0
  9 11  1  0  0  0  0
  9 25  1  0  0  0  0
  9 26  1  0  0  0  0
 10 12  1  0  0  0  0
 10 27  1  0  0  0  0
 10 28  1  0  0  0  0
 11 14  1  0  0  0  0
 11 29  1  0  0  0  0
 12 13  1  0  0  0  0
 12 30  1  0  0  0  0
 12 31  1  0  0  0  0
 13 15  1  0  0  0  0
 13 32  1  0  0  0  0
 13 33  1  0  0  0  0
 14 34  1  0  0  0  0
 14 35  1  0  0  0  0
 15 16  1  0  0  0  0
 15 36  1  0  0  0  0
 15 37  1  0  0  0  0
 16 40  1  0  0  0  0
 16 41  1  0  0  0  0
 16 42  1  0  0  0  0
M  END
> <PUBCHEM_COMPOUND_CID>
517635
> <PUBCHEM_COMPOUND_CANONICALIZED>
1
> <PUBCHEM_CACTVS_COMPLEXITY>
105
> <PUBCHEM_CACTVS_HBOND_ACCEPTOR>
2
> <PUBCHEM_CACTVS_HBOND_DONOR>
4
> <PUBCHEM_CACTVS_ROTATABLE_BOND>
10
> <PUBCHEM_CACTVS_SUBSKEYS>
AAADceBzAAAGAAAAAAAAAAAAAAAAAAAAAAAAAAAAAAAAAAAAAAAAHAAQAAAACCjBAAQCAABAAAAAAAAAAAAAAAAAAAAAAIAAAAAAQAIAgAAAAAAAEAAAAAEQgIAAAAAAAAAAAAAAAAAAAAAAAAAAAAAAAA==
> <PUBCHEM_IUPAC_OPENEYE_NAME>
dodecane-1,2-diamine;dihydrochloride
> <PUBCHEM_IUPAC_CAS_NAME>
dodecane-1,2-diamine;dihydrochloride
> <PUBCHEM_IUPAC_NAME_MARKUP>
dodecane-1,2-diamine;dihydrochloride
> <PUBCHEM_IUPAC_NAME>
dodecane-1,2-diamine;dihydrochloride
> <PUBCHEM_IUPAC_SYSTEMATIC_NAME>
dodecane-1,2-diamine;dihydrochloride
> <PUBCHEM_IUPAC_TRADITIONAL_NAME>
2-aminododecylamine;dihydrochloride
> <PUBCHEM_IUPAC_INCHI>
InChI=1S/C12H28N2.2ClH/c1-2-3-4-5-6-7-8-9-10-12(14)11-13;;/h12H,2-11,13-14H2,1H3;2*1H
> <PUBCHEM_IUPAC_INCHIKEY>
CSLWNDWYIPXXQZ-UHFFFAOYSA-N
> <PUBCHEM_EXACT_MASS>
272.1786044
> <PUBCHEM_MOLECULAR_FORMULA>
C12H30Cl2N2
> <PUBCHEM_MOLECULAR_WEIGHT>
273.28
> <PUBCHEM_OPENEYE_CAN_SMILES>
CCCCCCCCCCC(CN)N.Cl.Cl
> <PUBCHEM_OPENEYE_ISO_SMILES>
CCCCCCCCCCC(CN)N.Cl.Cl
> <PUBCHEM_CACTVS_TPSA>
52
> <PUBCHEM_MONOISOTOPIC_WEIGHT>
272.1786044
> <PUBCHEM_TOTAL_CHARGE>
0
> <PUBCHEM_HEAVY_ATOM_COUNT>
16
> <PUBCHEM_ATOM_DEF_STEREO_COUNT>
0
> <PUBCHEM_ATOM_UDEF_STEREO_COUNT>
1
> <PUBCHEM_BOND_DEF_STEREO_COUNT>
0
> <PUBCHEM_BOND_UDEF_STEREO_COUNT>
0
> <PUBCHEM_ISOTOPIC_ATOM_COUNT>
0
> <PUBCHEM_COMPONENT_COUNT>
3
> <PUBCHEM_CACTVS_TAUTO_COUNT>
-1
> <PUBCHEM_COORDINATE_TYPE>
1
5
255
> <PUBCHEM_BONDANNOTATIONS>
11  3  3
$$$$
