517664
  -OEChem-10302200292D
 23 23  0     1  0  0  0  0  0999 V2000
    5.6238    2.3294    0.0000 Cl  0  0  0  0  0  0  0  0  0  0  0  0
    1.9030    5.1588    0.0000 N   0  0  0  0  0  0  0  0  0  0  0  0
    0.9030    5.1588    0.0000 N   0  0  0  0  0  0  0  0  0  0  0  0
    3.1630    3.8988    0.0000 N   0  0  0  0  0  0  0  0  0  0  0  0
    1.4030    3.6200    0.0000 C   0  0  3  0  0  0  0  0  0  0  0  0
    1.4030    2.6200    0.0000 C   0  0  0  0  0  0  0  0  0  0  0  0
    2.2120    4.2078    0.0000 C   0  0  0  0  0  0  0  0  0  0  0  0
    0.5939    4.2078    0.0000 C   0  0  0  0  0  0  0  0  0  0  0  0
    0.5369    2.1200    0.0000 C   0  0  0  0  0  0  0  0  0  0  0  0
    2.2690    2.1200    0.0000 C   0  0  0  0  0  0  0  0  0  0  0  0
    0.5369    1.1200    0.0000 C   0  0  0  0  0  0  0  0  0  0  0  0
    2.2690    1.1200    0.0000 C   0  0  0  0  0  0  0  0  0  0  0  0
    1.4030    0.6200    0.0000 C   0  0  0  0  0  0  0  0  0  0  0  0
    1.9554    3.3385    0.0000 H   0  0  0  0  0  0  0  0  0  0  0  0
    0.0043    4.0162    0.0000 H   0  0  0  0  0  0  0  0  0  0  0  0
    0.0000    2.4300    0.0000 H   0  0  0  0  0  0  0  0  0  0  0  0
    2.8059    2.4300    0.0000 H   0  0  0  0  0  0  0  0  0  0  0  0
    0.0000    0.8100    0.0000 H   0  0  0  0  0  0  0  0  0  0  0  0
    2.8059    0.8100    0.0000 H   0  0  0  0  0  0  0  0  0  0  0  0
    1.4030    0.0000    0.0000 H   0  0  0  0  0  0  0  0  0  0  0  0
    3.6238    4.3136    0.0000 H   0  0  0  0  0  0  0  0  0  0  0  0
    3.2919    3.2923    0.0000 H   0  0  0  0  0  0  0  0  0  0  0  0
    6.6238    2.3294    0.0000 H   0  0  0  0  0  0  0  0  0  0  0  0
  1 23  1  0  0  0  0
  2  3  1  0  0  0  0
  2  7  2  0  0  0  0
  3  8  2  0  0  0  0
  4  7  1  0  0  0  0
  4 21  1  0  0  0  0
  4 22  1  0  0  0  0
  5  6  1  0  0  0  0
  5  7  1  0  0  0  0
  5  8  1  0  0  0  0
  5 14  1  0  0  0  0
  6  9  2  0  0  0  0
  6 10  1  0  0  0  0
  8 15  1  0  0  0  0
  9 11  1  0  0  0  0
  9 16  1  0  0  0  0
 10 12  2  0  0  0  0
 10 17  1  0  0  0  0
 11 13  2  0  0  0  0
 11 18  1  0  0  0  0
 12 13  1  0  0  0  0
 12 19  1  0  0  0  0
 13 20  1  0  0  0  0
M  END
> <PUBCHEM_COMPOUND_CID>
517664
> <PUBCHEM_COMPOUND_CANONICALIZED>
1
> <PUBCHEM_CACTVS_COMPLEXITY>
214
> <PUBCHEM_CACTVS_HBOND_ACCEPTOR>
2
> <PUBCHEM_CACTVS_HBOND_DONOR>
2
> <PUBCHEM_CACTVS_ROTATABLE_BOND>
1
> <PUBCHEM_CACTVS_SUBSKEYS>
AAADccBzAAAEAAAAAAAAAAAAAAAAAQAAAAAwAAAAAAAAAAABAAAAHAAYAAAADQDBGAQxAIBAAACgAjJjIAACAAAgAAAIiAAwAIgIICKAkRGAIAAgkAAIiAcQgMAOgAAAAAAAAAAAAAAAAAAAAAAAAAAAAA==
> <PUBCHEM_IUPAC_OPENEYE_NAME>
4-phenyl-4H-pyrazol-3-amine;hydrochloride
> <PUBCHEM_IUPAC_CAS_NAME>
4-phenyl-4H-pyrazol-3-amine;hydrochloride
> <PUBCHEM_IUPAC_NAME_MARKUP>
4-phenyl-4<I>H</I>-pyrazol-3-amine;hydrochloride
> <PUBCHEM_IUPAC_NAME>
4-phenyl-4H-pyrazol-3-amine;hydrochloride
> <PUBCHEM_IUPAC_SYSTEMATIC_NAME>
4-phenyl-4H-pyrazol-3-amine;hydrochloride
> <PUBCHEM_IUPAC_TRADITIONAL_NAME>
(4-phenyl-4H-pyrazol-3-yl)amine;hydrochloride
> <PUBCHEM_IUPAC_INCHI>
InChI=1S/C9H9N3.ClH/c10-9-8(6-11-12-9)7-4-2-1-3-5-7;/h1-6,8H,(H2,10,12);1H
> <PUBCHEM_IUPAC_INCHIKEY>
RDXUHTZACYVRKB-UHFFFAOYSA-N
> <PUBCHEM_EXACT_MASS>
195.0563250
> <PUBCHEM_MOLECULAR_FORMULA>
C9H10ClN3
> <PUBCHEM_MOLECULAR_WEIGHT>
195.65
> <PUBCHEM_OPENEYE_CAN_SMILES>
C1=CC=C(C=C1)C2C=NN=C2N.Cl
> <PUBCHEM_OPENEYE_ISO_SMILES>
C1=CC=C(C=C1)C2C=NN=C2N.Cl
> <PUBCHEM_CACTVS_TPSA>
50.7
> <PUBCHEM_MONOISOTOPIC_WEIGHT>
195.0563250
> <PUBCHEM_TOTAL_CHARGE>
0
> <PUBCHEM_HEAVY_ATOM_COUNT>
13
> <PUBCHEM_ATOM_DEF_STEREO_COUNT>
0
> <PUBCHEM_ATOM_UDEF_STEREO_COUNT>
1
> <PUBCHEM_BOND_DEF_STEREO_COUNT>
0
> <PUBCHEM_BOND_UDEF_STEREO_COUNT>
0
> <PUBCHEM_ISOTOPIC_ATOM_COUNT>
0
> <PUBCHEM_COMPONENT_COUNT>
2
> <PUBCHEM_CACTVS_TAUTO_COUNT>
-1
> <PUBCHEM_COORDINATE_TYPE>
1
5
255
> <PUBCHEM_BONDANNOTATIONS>
10  12  8
11  13  8
12  13  8
5  6  3
6  10  8
6  9  8
9  11  8
$$$$
