517755
  -OEChem-10302200292D
 50 52  0     1  0  0  0  0  0999 V2000
    3.4340    0.0000    0.0000 Cl  0  0  0  0  0  0  0  0  0  0  0  0
    6.3527    4.1180    0.0000 O   0  0  0  0  0  0  0  0  0  0  0  0
    4.7691    3.3132    0.0000 N   0  0  0  0  0  0  0  0  0  0  0  0
    3.1765    7.0355    0.0000 N   0  0  0  0  0  0  0  0  0  0  0  0
    4.7691    4.9227    0.0000 C   0  0  3  0  0  0  0  0  0  0  0  0
    4.4617    5.8743    0.0000 C   0  0  0  0  0  0  0  0  0  0  0  0
    3.8228    4.6180    0.0000 C   0  0  0  0  0  0  0  0  0  0  0  0
    5.3527    4.1180    0.0000 C   0  0  0  0  0  0  0  0  0  0  0  0
    5.5791    5.5091    0.0000 C   0  0  0  0  0  0  0  0  0  0  0  0
    3.8228    3.6180    0.0000 C   0  0  0  0  0  0  0  0  0  0  0  0
    3.4839    6.0839    0.0000 C   0  0  0  0  0  0  0  0  0  0  0  0
    2.9568    5.1180    0.0000 C   0  0  0  0  0  0  0  0  0  0  0  0
    5.4763    6.5038    0.0000 C   0  0  0  0  0  0  0  0  0  0  0  0
    6.4919    5.1008    0.0000 C   0  0  0  0  0  0  0  0  0  0  0  0
    2.9568    3.1180    0.0000 C   0  0  0  0  0  0  0  0  0  0  0  0
    2.0908    4.6180    0.0000 C   0  0  0  0  0  0  0  0  0  0  0  0
    2.0908    3.6180    0.0000 C   0  0  0  0  0  0  0  0  0  0  0  0
    2.1988    7.2451    0.0000 C   0  0  0  0  0  0  0  0  0  0  0  0
    6.2863    7.0902    0.0000 C   0  0  0  0  0  0  0  0  0  0  0  0
    7.3020    5.6871    0.0000 C   0  0  0  0  0  0  0  0  0  0  0  0
    7.1992    6.6818    0.0000 C   0  0  0  0  0  0  0  0  0  0  0  0
    1.8914    8.1967    0.0000 C   0  0  0  0  0  0  0  0  0  0  0  0
    0.9136    8.4063    0.0000 C   0  0  0  0  0  0  0  0  0  0  0  0
    2.5618    8.9387    0.0000 C   0  0  0  0  0  0  0  0  0  0  0  0
    0.6062    9.3579    0.0000 C   0  0  0  0  0  0  0  0  0  0  0  0
    2.2544    9.8902    0.0000 C   0  0  0  0  0  0  0  0  0  0  0  0
    1.2766   10.0998    0.0000 C   0  0  0  0  0  0  0  0  0  0  0  0
    5.0758    5.9595    0.0000 H   0  0  0  0  0  0  0  0  0  0  0  0
    4.4844    6.4939    0.0000 H   0  0  0  0  0  0  0  0  0  0  0  0
    2.8698    5.9987    0.0000 H   0  0  0  0  0  0  0  0  0  0  0  0
    3.4612    5.4643    0.0000 H   0  0  0  0  0  0  0  0  0  0  0  0
    4.9617    2.7239    0.0000 H   0  0  0  0  0  0  0  0  0  0  0  0
    2.9568    5.7380    0.0000 H   0  0  0  0  0  0  0  0  0  0  0  0
    4.9103    6.7569    0.0000 H   0  0  0  0  0  0  0  0  0  0  0  0
    6.5557    4.4840    0.0000 H   0  0  0  0  0  0  0  0  0  0  0  0
    2.9568    2.4980    0.0000 H   0  0  0  0  0  0  0  0  0  0  0  0
    3.5922    7.4955    0.0000 H   0  0  0  0  0  0  0  0  0  0  0  0
    1.5539    4.9280    0.0000 H   0  0  0  0  0  0  0  0  0  0  0  0
    1.5539    3.3080    0.0000 H   0  0  0  0  0  0  0  0  0  0  0  0
    1.5846    7.1598    0.0000 H   0  0  0  0  0  0  0  0  0  0  0  0
    2.1760    6.6255    0.0000 H   0  0  0  0  0  0  0  0  0  0  0  0
    6.2226    7.7069    0.0000 H   0  0  0  0  0  0  0  0  0  0  0  0
    7.8679    5.4340    0.0000 H   0  0  0  0  0  0  0  0  0  0  0  0
    7.7014    7.0454    0.0000 H   0  0  0  0  0  0  0  0  0  0  0  0
    0.4979    7.9462    0.0000 H   0  0  0  0  0  0  0  0  0  0  0  0
    3.1680    8.8087    0.0000 H   0  0  0  0  0  0  0  0  0  0  0  0
    0.0000    9.4878    0.0000 H   0  0  0  0  0  0  0  0  0  0  0  0
    2.6701   10.3503    0.0000 H   0  0  0  0  0  0  0  0  0  0  0  0
    1.0861   10.6898    0.0000 H   0  0  0  0  0  0  0  0  0  0  0  0
    4.4340    0.0000    0.0000 H   0  0  0  0  0  0  0  0  0  0  0  0
  1 50  1  0  0  0  0
  2  8  2  0  0  0  0
  3  8  1  0  0  0  0
  3 10  1  0  0  0  0
  3 32  1  0  0  0  0
  4 11  1  0  0  0  0
  4 18  1  0  0  0  0
  4 37  1  0  0  0  0
  5  6  1  0  0  0  0
  5  7  1  0  0  0  0
  5  8  1  0  0  0  0
  5  9  1  0  0  0  0
  6 11  1  0  0  0  0
  6 28  1  0  0  0  0
  6 29  1  0  0  0  0
  7 10  1  0  0  0  0
  7 12  2  0  0  0  0
  9 13  2  0  0  0  0
  9 14  1  0  0  0  0
 10 15  2  0  0  0  0
 11 30  1  0  0  0  0
 11 31  1  0  0  0  0
 12 16  1  0  0  0  0
 12 33  1  0  0  0  0
 13 19  1  0  0  0  0
 13 34  1  0  0  0  0
 14 20  2  0  0  0  0
 14 35  1  0  0  0  0
 15 17  1  0  0  0  0
 15 36  1  0  0  0  0
 16 17  2  0  0  0  0
 16 38  1  0  0  0  0
 17 39  1  0  0  0  0
 18 22  1  0  0  0  0
 18 40  1  0  0  0  0
 18 41  1  0  0  0  0
 19 21  2  0  0  0  0
 19 42  1  0  0  0  0
 20 21  1  0  0  0  0
 20 43  1  0  0  0  0
 21 44  1  0  0  0  0
 22 23  2  0  0  0  0
 22 24  1  0  0  0  0
 23 25  1  0  0  0  0
 23 45  1  0  0  0  0
 24 26  2  0  0  0  0
 24 46  1  0  0  0  0
 25 27  2  0  0  0  0
 25 47  1  0  0  0  0
 26 27  1  0  0  0  0
 26 48  1  0  0  0  0
 27 49  1  0  0  0  0
M  END
> <PUBCHEM_COMPOUND_CID>
517755
> <PUBCHEM_COMPOUND_CANONICALIZED>
1
> <PUBCHEM_CACTVS_COMPLEXITY>
467
> <PUBCHEM_CACTVS_HBOND_ACCEPTOR>
2
> <PUBCHEM_CACTVS_HBOND_DONOR>
3
> <PUBCHEM_CACTVS_ROTATABLE_BOND>
6
> <PUBCHEM_CACTVS_SUBSKEYS>
AAADceB7IAAEAAAAAAAAAAAAAAAAAWAAAAAwYMAAAAAAAFgBUAAAHgAQAAAADgjBmAQwwILAAACIAiVSUACCAAAhAgAIiIEIZIgIIDLAlZGEIAhglADIyAcciMCPgAAAAAACAAAAAAAAAAQAAAAAAAAAAA==
> <PUBCHEM_IUPAC_OPENEYE_NAME>
3-[2-(benzylamino)ethyl]-3-phenyl-indolin-2-one;hydrochloride
> <PUBCHEM_IUPAC_CAS_NAME>
3-phenyl-3-[2-[(phenylmethyl)amino]ethyl]-1H-indol-2-one;hydrochloride
> <PUBCHEM_IUPAC_NAME_MARKUP>
3-[2-(benzylamino)ethyl]-3-phenyl-1<I>H</I>-indol-2-one;hydrochloride
> <PUBCHEM_IUPAC_NAME>
3-[2-(benzylamino)ethyl]-3-phenyl-1H-indol-2-one;hydrochloride
> <PUBCHEM_IUPAC_SYSTEMATIC_NAME>
3-phenyl-3-[2-[(phenylmethyl)amino]ethyl]-1H-indol-2-one;hydrochloride
> <PUBCHEM_IUPAC_TRADITIONAL_NAME>
3-[2-(benzylamino)ethyl]-3-phenyl-oxindole;hydrochloride
> <PUBCHEM_IUPAC_INCHI>
InChI=1S/C23H22N2O.ClH/c26-22-23(19-11-5-2-6-12-19,20-13-7-8-14-21(20)25-22)15-16-24-17-18-9-3-1-4-10-18;/h1-14,24H,15-17H2,(H,25,26);1H
> <PUBCHEM_IUPAC_INCHIKEY>
CBPRYLRJCMKRLO-UHFFFAOYSA-N
> <PUBCHEM_EXACT_MASS>
378.1498911
> <PUBCHEM_MOLECULAR_FORMULA>
C23H23ClN2O
> <PUBCHEM_MOLECULAR_WEIGHT>
378.9
> <PUBCHEM_OPENEYE_CAN_SMILES>
C1=CC=C(C=C1)CNCCC2(C3=CC=CC=C3NC2=O)C4=CC=CC=C4.Cl
> <PUBCHEM_OPENEYE_ISO_SMILES>
C1=CC=C(C=C1)CNCCC2(C3=CC=CC=C3NC2=O)C4=CC=CC=C4.Cl
> <PUBCHEM_CACTVS_TPSA>
41.1
> <PUBCHEM_MONOISOTOPIC_WEIGHT>
378.1498911
> <PUBCHEM_TOTAL_CHARGE>
0
> <PUBCHEM_HEAVY_ATOM_COUNT>
27
> <PUBCHEM_ATOM_DEF_STEREO_COUNT>
0
> <PUBCHEM_ATOM_UDEF_STEREO_COUNT>
1
> <PUBCHEM_BOND_DEF_STEREO_COUNT>
0
> <PUBCHEM_BOND_UDEF_STEREO_COUNT>
0
> <PUBCHEM_ISOTOPIC_ATOM_COUNT>
0
> <PUBCHEM_COMPONENT_COUNT>
2
> <PUBCHEM_CACTVS_TAUTO_COUNT>
-1
> <PUBCHEM_COORDINATE_TYPE>
1
5
255
> <PUBCHEM_BONDANNOTATIONS>
10  15  8
12  16  8
13  19  8
14  20  8
15  17  8
16  17  8
19  21  8
20  21  8
22  23  8
22  24  8
23  25  8
24  26  8
25  27  8
26  27  8
5  6  3
7  10  8
7  12  8
9  13  8
9  14  8
$$$$
