517753
  -OEChem-10302200292D
 22 22  0     1  0  0  0  0  0999 V2000
    5.4641    3.0670    0.0000 Cl  0  0  0  0  0  0  0  0  0  0  0  0
    4.0981    3.4330    0.0000 Cl  0  0  0  0  0  0  0  0  0  0  0  0
    5.0981    1.7010    0.0000 Cl  0  0  0  0  0  0  0  0  0  0  0  0
    2.8660   -3.4330    0.0000 Cl  0  0  0  0  0  0  0  0  0  0  0  0
    3.7320    1.0670    0.0000 O   0  0  0  0  0  0  0  0  0  0  0  0
    2.0000    1.0670    0.0000 O   0  0  0  0  0  0  0  0  0  0  0  0
    2.0000    3.0670    0.0000 N   0  0  0  0  0  0  0  0  0  0  0  0
    3.7320    2.0670    0.0000 C   0  0  3  0  0  0  0  0  0  0  0  0
    2.8660   -0.4330    0.0000 C   0  0  0  0  0  0  0  0  0  0  0  0
    4.5981    2.5670    0.0000 C   0  0  0  0  0  0  0  0  0  0  0  0
    2.8660    0.5670    0.0000 C   0  0  0  0  0  0  0  0  0  0  0  0
    2.0000   -0.9330    0.0000 C   0  0  0  0  0  0  0  0  0  0  0  0
    3.7320   -0.9330    0.0000 C   0  0  0  0  0  0  0  0  0  0  0  0
    2.0000   -1.9330    0.0000 C   0  0  0  0  0  0  0  0  0  0  0  0
    3.7320   -1.9330    0.0000 C   0  0  0  0  0  0  0  0  0  0  0  0
    2.8660   -2.4330    0.0000 C   0  0  0  0  0  0  0  0  0  0  0  0
    2.8660    2.5670    0.0000 C   0  0  0  0  0  0  0  0  0  0  0  0
    4.2690    1.7570    0.0000 H   0  0  0  0  0  0  0  0  0  0  0  0
    1.4631   -0.6230    0.0000 H   0  0  0  0  0  0  0  0  0  0  0  0
    4.2690   -0.6230    0.0000 H   0  0  0  0  0  0  0  0  0  0  0  0
    1.4631   -2.2430    0.0000 H   0  0  0  0  0  0  0  0  0  0  0  0
    4.2690   -2.2430    0.0000 H   0  0  0  0  0  0  0  0  0  0  0  0
  1 10  1  0  0  0  0
  2 10  1  0  0  0  0
  3 10  1  0  0  0  0
  4 16  1  0  0  0  0
  5  8  1  0  0  0  0
  5 11  1  0  0  0  0
  6 11  2  0  0  0  0
  7 17  3  0  0  0  0
  8 10  1  0  0  0  0
  8 17  1  0  0  0  0
  8 18  1  0  0  0  0
  9 11  1  0  0  0  0
  9 12  2  0  0  0  0
  9 13  1  0  0  0  0
 12 14  1  0  0  0  0
 12 19  1  0  0  0  0
 13 15  2  0  0  0  0
 13 20  1  0  0  0  0
 14 16  2  0  0  0  0
 14 21  1  0  0  0  0
 15 16  1  0  0  0  0
 15 22  1  0  0  0  0
M  END
> <PUBCHEM_COMPOUND_CID>
517753
> <PUBCHEM_COMPOUND_CANONICALIZED>
1
> <PUBCHEM_CACTVS_COMPLEXITY>
325
> <PUBCHEM_CACTVS_HBOND_ACCEPTOR>
3
> <PUBCHEM_CACTVS_HBOND_DONOR>
0
> <PUBCHEM_CACTVS_ROTATABLE_BOND>
3
> <PUBCHEM_CACTVS_SUBSKEYS>
AAADcYByMAAHAAAAAAAAAAAAAAAAAAAAAAAwAAAAAAAAAAABAAAAHgIAAAAADBahmKIwCIAABACYBiDSCAACAAAkBQAIiAEAC8gIpjKBNxiCMQAkwAEIqYeIyCCOBAAAAAAAAAAIAAAAAAAAAAAAAAAAAA==
> <PUBCHEM_IUPAC_OPENEYE_NAME>
(2,2,2-trichloro-1-cyano-ethyl) 4-chlorobenzoate
> <PUBCHEM_IUPAC_CAS_NAME>
4-chlorobenzoic acid (2,2,2-trichloro-1-cyanoethyl) ester
> <PUBCHEM_IUPAC_NAME_MARKUP>
(2,2,2-trichloro-1-cyanoethyl) 4-chlorobenzoate
> <PUBCHEM_IUPAC_NAME>
(2,2,2-trichloro-1-cyanoethyl) 4-chlorobenzoate
> <PUBCHEM_IUPAC_SYSTEMATIC_NAME>
[2,2,2-tris(chloranyl)-1-cyano-ethyl] 4-chloranylbenzoate
> <PUBCHEM_IUPAC_TRADITIONAL_NAME>
4-chlorobenzoic acid (2,2,2-trichloro-1-cyano-ethyl) ester
> <PUBCHEM_IUPAC_INCHI>
InChI=1S/C10H5Cl4NO2/c11-7-3-1-6(2-4-7)9(16)17-8(5-15)10(12,13)14/h1-4,8H
> <PUBCHEM_IUPAC_INCHIKEY>
GXQADAOVOZXMNA-UHFFFAOYSA-N
> <PUBCHEM_XLOGP3_AA>
4.1
> <PUBCHEM_EXACT_MASS>
312.904489
> <PUBCHEM_MOLECULAR_FORMULA>
C10H5Cl4NO2
> <PUBCHEM_MOLECULAR_WEIGHT>
313.0
> <PUBCHEM_OPENEYE_CAN_SMILES>
C1=CC(=CC=C1C(=O)OC(C#N)C(Cl)(Cl)Cl)Cl
> <PUBCHEM_OPENEYE_ISO_SMILES>
C1=CC(=CC=C1C(=O)OC(C#N)C(Cl)(Cl)Cl)Cl
> <PUBCHEM_CACTVS_TPSA>
50.1
> <PUBCHEM_MONOISOTOPIC_WEIGHT>
310.907439
> <PUBCHEM_TOTAL_CHARGE>
0
> <PUBCHEM_HEAVY_ATOM_COUNT>
17
> <PUBCHEM_ATOM_DEF_STEREO_COUNT>
0
> <PUBCHEM_ATOM_UDEF_STEREO_COUNT>
1
> <PUBCHEM_BOND_DEF_STEREO_COUNT>
0
> <PUBCHEM_BOND_UDEF_STEREO_COUNT>
0
> <PUBCHEM_ISOTOPIC_ATOM_COUNT>
0
> <PUBCHEM_COMPONENT_COUNT>
1
> <PUBCHEM_CACTVS_TAUTO_COUNT>
-1
> <PUBCHEM_COORDINATE_TYPE>
1
5
255
> <PUBCHEM_BONDANNOTATIONS>
12  14  8
13  15  8
14  16  8
15  16  8
8  17  3
9  12  8
9  13  8
$$$$
