517708
  -OEChem-10302200292D
 16 15  0     1  0  0  0  0  0999 V2000
    5.1350    0.5000    0.0000 S   0  0  0  0  0  0  0  0  0  0  0  0
    2.5369    1.0000    0.0000 N   0  0  0  0  0  0  0  0  0  0  0  0
    4.2690   -1.0000    0.0000 N   0  0  0  0  0  0  0  0  0  0  0  0
    3.4030    0.5000    0.0000 C   0  0  3  0  0  0  0  0  0  0  0  0
    3.4030   -0.5000    0.0000 C   0  0  0  0  0  0  0  0  0  0  0  0
    4.2690    1.0000    0.0000 C   0  0  0  0  0  0  0  0  0  0  0  0
    3.4030    1.3500    0.0000 H   0  0  0  0  0  0  0  0  0  0  0  0
    2.7924   -0.3923    0.0000 H   0  0  0  0  0  0  0  0  0  0  0  0
    3.1909   -1.0826    0.0000 H   0  0  0  0  0  0  0  0  0  0  0  0
    4.6675    1.4750    0.0000 H   0  0  0  0  0  0  0  0  0  0  0  0
    3.8705    1.4750    0.0000 H   0  0  0  0  0  0  0  0  0  0  0  0
    2.0000    0.6900    0.0000 H   0  0  0  0  0  0  0  0  0  0  0  0
    2.5369    1.6200    0.0000 H   0  0  0  0  0  0  0  0  0  0  0  0
    4.2690   -1.6200    0.0000 H   0  0  0  0  0  0  0  0  0  0  0  0
    4.8059   -0.6900    0.0000 H   0  0  0  0  0  0  0  0  0  0  0  0
    5.6720    0.8100    0.0000 H   0  0  0  0  0  0  0  0  0  0  0  0
  1  6  1  0  0  0  0
  1 16  1  0  0  0  0
  2  4  1  0  0  0  0
  2 12  1  0  0  0  0
  2 13  1  0  0  0  0
  3  5  1  0  0  0  0
  3 14  1  0  0  0  0
  3 15  1  0  0  0  0
  4  5  1  0  0  0  0
  4  6  1  0  0  0  0
  4  7  1  0  0  0  0
  5  8  1  0  0  0  0
  5  9  1  0  0  0  0
  6 10  1  0  0  0  0
  6 11  1  0  0  0  0
M  END
> <PUBCHEM_COMPOUND_CID>
517708
> <PUBCHEM_COMPOUND_CANONICALIZED>
1
> <PUBCHEM_CACTVS_COMPLEXITY>
32
> <PUBCHEM_CACTVS_HBOND_ACCEPTOR>
3
> <PUBCHEM_CACTVS_HBOND_DONOR>
3
> <PUBCHEM_CACTVS_ROTATABLE_BOND>
2
> <PUBCHEM_CACTVS_SUBSKEYS>
AAADccBDAABAAAAAAAAAAAAAAAAAAAAAAAAAAAAAAAAAAAAAAAAAHAQQAAAACCjFQASAAABAAAQAAAAAAAAAAAAAAAAAAIAAAAAAQAAAAAAAAAAAEAAAAAAAAAAAAAAAAAAAAAAAAAAAAAAAAAAAAAAAAA==
> <PUBCHEM_IUPAC_OPENEYE_NAME>
2,3-diaminopropane-1-thiol
> <PUBCHEM_IUPAC_CAS_NAME>
2,3-diamino-1-propanethiol
> <PUBCHEM_IUPAC_NAME_MARKUP>
2,3-diaminopropane-1-thiol
> <PUBCHEM_IUPAC_NAME>
2,3-diaminopropane-1-thiol
> <PUBCHEM_IUPAC_SYSTEMATIC_NAME>
2,3-bis(azanyl)propane-1-thiol
> <PUBCHEM_IUPAC_TRADITIONAL_NAME>
2,3-diaminopropane-1-thiol
> <PUBCHEM_IUPAC_INCHI>
InChI=1S/C3H10N2S/c4-1-3(5)2-6/h3,6H,1-2,4-5H2
> <PUBCHEM_IUPAC_INCHIKEY>
KFCAJDUOSGKVSB-UHFFFAOYSA-N
> <PUBCHEM_XLOGP3_AA>
-1.3
> <PUBCHEM_EXACT_MASS>
106.05646950
> <PUBCHEM_MOLECULAR_FORMULA>
C3H10N2S
> <PUBCHEM_MOLECULAR_WEIGHT>
106.19
> <PUBCHEM_OPENEYE_CAN_SMILES>
C(C(CS)N)N
> <PUBCHEM_OPENEYE_ISO_SMILES>
C(C(CS)N)N
> <PUBCHEM_CACTVS_TPSA>
53
> <PUBCHEM_MONOISOTOPIC_WEIGHT>
106.05646950
> <PUBCHEM_TOTAL_CHARGE>
0
> <PUBCHEM_HEAVY_ATOM_COUNT>
6
> <PUBCHEM_ATOM_DEF_STEREO_COUNT>
0
> <PUBCHEM_ATOM_UDEF_STEREO_COUNT>
1
> <PUBCHEM_BOND_DEF_STEREO_COUNT>
0
> <PUBCHEM_BOND_UDEF_STEREO_COUNT>
0
> <PUBCHEM_ISOTOPIC_ATOM_COUNT>
0
> <PUBCHEM_COMPONENT_COUNT>
1
> <PUBCHEM_CACTVS_TAUTO_COUNT>
1
> <PUBCHEM_COORDINATE_TYPE>
1
5
255
> <PUBCHEM_BONDANNOTATIONS>
4  7  3
$$$$
