517707
  -OEChem-10302200292D
 20 17  0     1  0  0  0  0  0999 V2000
    0.0000    2.6200    0.0000 Br  0  0  0  0  0  0  0  0  0  0  0  0
    4.3360    0.0000    0.0000 Br  0  0  0  0  0  0  0  0  0  0  0  0
    6.1350    4.6200    0.0000 S   0  0  0  0  0  0  0  0  0  0  0  0
    3.5369    5.1200    0.0000 N   0  0  0  0  0  0  0  0  0  0  0  0
    5.2690    3.1200    0.0000 N   0  0  0  0  0  0  0  0  0  0  0  0
    4.4030    4.6200    0.0000 C   0  0  3  0  0  0  0  0  0  0  0  0
    4.4030    3.6200    0.0000 C   0  0  0  0  0  0  0  0  0  0  0  0
    5.2690    5.1200    0.0000 C   0  0  0  0  0  0  0  0  0  0  0  0
    3.6668    4.1950    0.0000 H   0  0  0  0  0  0  0  0  0  0  0  0
    3.7924    3.7277    0.0000 H   0  0  0  0  0  0  0  0  0  0  0  0
    4.1909    3.0374    0.0000 H   0  0  0  0  0  0  0  0  0  0  0  0
    5.6675    5.5950    0.0000 H   0  0  0  0  0  0  0  0  0  0  0  0
    4.8705    5.5950    0.0000 H   0  0  0  0  0  0  0  0  0  0  0  0
    3.0000    4.8100    0.0000 H   0  0  0  0  0  0  0  0  0  0  0  0
    3.5369    5.7400    0.0000 H   0  0  0  0  0  0  0  0  0  0  0  0
    5.2690    2.5000    0.0000 H   0  0  0  0  0  0  0  0  0  0  0  0
    5.8059    3.4300    0.0000 H   0  0  0  0  0  0  0  0  0  0  0  0
    6.6720    4.9300    0.0000 H   0  0  0  0  0  0  0  0  0  0  0  0
    1.0000    2.6200    0.0000 H   0  0  0  0  0  0  0  0  0  0  0  0
    5.3360    0.0000    0.0000 H   0  0  0  0  0  0  0  0  0  0  0  0
  1 19  1  0  0  0  0
  2 20  1  0  0  0  0
  3  8  1  0  0  0  0
  3 18  1  0  0  0  0
  4  6  1  0  0  0  0
  4 14  1  0  0  0  0
  4 15  1  0  0  0  0
  5  7  1  0  0  0  0
  5 16  1  0  0  0  0
  5 17  1  0  0  0  0
  6  7  1  0  0  0  0
  6  8  1  0  0  0  0
  6  9  1  0  0  0  0
  7 10  1  0  0  0  0
  7 11  1  0  0  0  0
  8 12  1  0  0  0  0
  8 13  1  0  0  0  0
M  END
> <PUBCHEM_COMPOUND_CID>
517707
> <PUBCHEM_COMPOUND_CANONICALIZED>
1
> <PUBCHEM_CACTVS_COMPLEXITY>
32
> <PUBCHEM_CACTVS_HBOND_ACCEPTOR>
3
> <PUBCHEM_CACTVS_HBOND_DONOR>
5
> <PUBCHEM_CACTVS_ROTATABLE_BOND>
2
> <PUBCHEM_CACTVS_SUBSKEYS>
AAADccBDAABAGAAAAAAAAAAAAAAAAAAAAAAAAAAAAAAAAAAAAAAAHAQQAAAACCjFQASAAABAAAQAAAAAAAAAAAAAAAAAAIAAAAAAQAAAAAAAAAAAEAAAAAAAAAAAAAAAAAAAAAAAAAAAAAAAAAAAAAAAAA==
> <PUBCHEM_IUPAC_OPENEYE_NAME>
2,3-diaminopropane-1-thiol;dihydrobromide
> <PUBCHEM_IUPAC_CAS_NAME>
2,3-diamino-1-propanethiol;dihydrobromide
> <PUBCHEM_IUPAC_NAME_MARKUP>
2,3-diaminopropane-1-thiol;dihydrobromide
> <PUBCHEM_IUPAC_NAME>
2,3-diaminopropane-1-thiol;dihydrobromide
> <PUBCHEM_IUPAC_SYSTEMATIC_NAME>
2,3-bis(azanyl)propane-1-thiol;dihydrobromide
> <PUBCHEM_IUPAC_TRADITIONAL_NAME>
2,3-diaminopropane-1-thiol;dihydrobromide
> <PUBCHEM_IUPAC_INCHI>
InChI=1S/C3H10N2S.2BrH/c4-1-3(5)2-6;;/h3,6H,1-2,4-5H2;2*1H
> <PUBCHEM_IUPAC_INCHIKEY>
QKAYOPSZSQIZDI-UHFFFAOYSA-N
> <PUBCHEM_EXACT_MASS>
267.90675
> <PUBCHEM_MOLECULAR_FORMULA>
C3H12Br2N2S
> <PUBCHEM_MOLECULAR_WEIGHT>
268.02
> <PUBCHEM_OPENEYE_CAN_SMILES>
C(C(CS)N)N.Br.Br
> <PUBCHEM_OPENEYE_ISO_SMILES>
C(C(CS)N)N.Br.Br
> <PUBCHEM_CACTVS_TPSA>
53
> <PUBCHEM_MONOISOTOPIC_WEIGHT>
265.90879
> <PUBCHEM_TOTAL_CHARGE>
0
> <PUBCHEM_HEAVY_ATOM_COUNT>
8
> <PUBCHEM_ATOM_DEF_STEREO_COUNT>
0
> <PUBCHEM_ATOM_UDEF_STEREO_COUNT>
1
> <PUBCHEM_BOND_DEF_STEREO_COUNT>
0
> <PUBCHEM_BOND_UDEF_STEREO_COUNT>
0
> <PUBCHEM_ISOTOPIC_ATOM_COUNT>
0
> <PUBCHEM_COMPONENT_COUNT>
3
> <PUBCHEM_CACTVS_TAUTO_COUNT>
1
> <PUBCHEM_COORDINATE_TYPE>
1
5
255
> <PUBCHEM_BONDANNOTATIONS>
6  9  3
$$$$
