517717
  -OEChem-10302200292D
 49 51  0     1  0  0  0  0  0999 V2000
    5.8055    0.6063    0.0000 O   0  0  0  0  0  0  0  0  0  0  0  0
    8.1515   -0.4856    0.0000 O   0  0  0  0  0  0  0  0  0  0  0  0
    8.1552    1.6900    0.0000 O   0  0  0  0  0  0  0  0  0  0  0  0
    5.1095    2.5754    0.0000 O   0  0  0  0  0  0  0  0  0  0  0  0
    9.1720    0.9139    0.0000 O   0  0  0  0  0  0  0  0  0  0  0  0
    7.1396    3.0930    0.0000 O   0  0  0  0  0  0  0  0  0  0  0  0
    5.4726    4.2690    0.0000 O   0  0  0  0  0  0  0  0  0  0  0  0
    6.0812   -1.1543    0.0000 N   0  0  0  0  0  0  0  0  0  0  0  0
    6.0812   -2.7638    0.0000 N   0  0  0  0  0  0  0  0  0  0  0  0
    4.2690   -0.9590    0.0000 N   0  0  0  0  0  0  0  0  0  0  0  0
    3.4030   -2.4590    0.0000 N   0  0  0  0  0  0  0  0  0  0  0  0
    4.2690   -3.9590    0.0000 N   0  0  0  0  0  0  0  0  0  0  0  0
    2.5369   -0.9590    0.0000 N   0  0  0  0  0  0  0  0  0  0  0  0
    7.3435    0.1036    0.0000 C   0  0  3  0  0  0  0  0  0  0  0  0
    7.3452    1.1036    0.0000 C   0  0  3  0  0  0  0  0  0  0  0  0
    6.3919   -0.2038    0.0000 C   0  0  3  0  0  0  0  0  0  0  0  0
    6.3947    1.4143    0.0000 C   0  0  3  0  0  0  0  0  0  0  0  0
    6.0873    2.3658    0.0000 C   0  0  0  0  0  0  0  0  0  0  0  0
    5.1350   -1.4590    0.0000 C   0  0  0  0  0  0  0  0  0  0  0  0
    6.6648   -1.9590    0.0000 C   0  0  0  0  0  0  0  0  0  0  0  0
    5.1350   -2.4590    0.0000 C   0  0  0  0  0  0  0  0  0  0  0  0
    9.0657   -0.0804    0.0000 C   0  0  0  0  0  0  0  0  0  0  0  0
    8.0524    2.6847    0.0000 C   0  0  0  0  0  0  0  0  0  0  0  0
    4.2690   -2.9590    0.0000 C   0  0  0  0  0  0  0  0  0  0  0  0
    9.8737   -0.6696    0.0000 C   0  0  0  0  0  0  0  0  0  0  0  0
    4.8022    3.5270    0.0000 C   0  0  0  0  0  0  0  0  0  0  0  0
    8.8625    3.2711    0.0000 C   0  0  0  0  0  0  0  0  0  0  0  0
    3.4030   -1.4590    0.0000 C   0  0  0  0  0  0  0  0  0  0  0  0
    3.8244    3.7366    0.0000 C   0  0  0  0  0  0  0  0  0  0  0  0
    7.2454   -0.5086    0.0000 H   0  0  0  0  0  0  0  0  0  0  0  0
    7.2493    1.7161    0.0000 H   0  0  0  0  0  0  0  0  0  0  0  0
    5.7794   -0.2997    0.0000 H   0  0  0  0  0  0  0  0  0  0  0  0
    5.7825    1.5123    0.0000 H   0  0  0  0  0  0  0  0  0  0  0  0
    6.7014    2.4511    0.0000 H   0  0  0  0  0  0  0  0  0  0  0  0
    6.1100    2.9854    0.0000 H   0  0  0  0  0  0  0  0  0  0  0  0
    7.2848   -1.9590    0.0000 H   0  0  0  0  0  0  0  0  0  0  0  0
    9.5084   -1.1706    0.0000 H   0  0  0  0  0  0  0  0  0  0  0  0
   10.3747   -1.0349    0.0000 H   0  0  0  0  0  0  0  0  0  0  0  0
   10.2390   -0.1687    0.0000 H   0  0  0  0  0  0  0  0  0  0  0  0
    9.2260    2.7688    0.0000 H   0  0  0  0  0  0  0  0  0  0  0  0
    9.3647    3.6346    0.0000 H   0  0  0  0  0  0  0  0  0  0  0  0
    8.4989    3.7733    0.0000 H   0  0  0  0  0  0  0  0  0  0  0  0
    3.7320   -4.2690    0.0000 H   0  0  0  0  0  0  0  0  0  0  0  0
    4.8059   -4.2690    0.0000 H   0  0  0  0  0  0  0  0  0  0  0  0
    3.9543    4.3429    0.0000 H   0  0  0  0  0  0  0  0  0  0  0  0
    3.2182    3.8666    0.0000 H   0  0  0  0  0  0  0  0  0  0  0  0
    3.6944    3.1304    0.0000 H   0  0  0  0  0  0  0  0  0  0  0  0
    2.0000   -1.2690    0.0000 H   0  0  0  0  0  0  0  0  0  0  0  0
    2.5369   -0.3390    0.0000 H   0  0  0  0  0  0  0  0  0  0  0  0
  1 16  1  0  0  0  0
  1 17  1  0  0  0  0
  2 14  1  0  0  0  0
  2 22  1  0  0  0  0
  3 15  1  0  0  0  0
  3 23  1  0  0  0  0
  4 18  1  0  0  0  0
  4 26  1  0  0  0  0
  5 22  2  0  0  0  0
  6 23  2  0  0  0  0
  7 26  2  0  0  0  0
  8 16  1  0  0  0  0
  8 19  1  0  0  0  0
  8 20  1  0  0  0  0
  9 20  2  0  0  0  0
  9 21  1  0  0  0  0
 10 19  2  0  0  0  0
 10 28  1  0  0  0  0
 11 24  1  0  0  0  0
 11 28  2  0  0  0  0
 12 24  1  0  0  0  0
 12 43  1  0  0  0  0
 12 44  1  0  0  0  0
 13 28  1  0  0  0  0
 13 48  1  0  0  0  0
 13 49  1  0  0  0  0
 14 15  1  0  0  0  0
 14 16  1  0  0  0  0
 14 30  1  0  0  0  0
 15 17  1  0  0  0  0
 15 31  1  0  0  0  0
 16 32  1  0  0  0  0
 17 18  1  0  0  0  0
 17 33  1  0  0  0  0
 18 34  1  0  0  0  0
 18 35  1  0  0  0  0
 19 21  1  0  0  0  0
 20 36  1  0  0  0  0
 21 24  2  0  0  0  0
 22 25  1  0  0  0  0
 23 27  1  0  0  0  0
 25 37  1  0  0  0  0
 25 38  1  0  0  0  0
 25 39  1  0  0  0  0
 26 29  1  0  0  0  0
 27 40  1  0  0  0  0
 27 41  1  0  0  0  0
 27 42  1  0  0  0  0
 29 45  1  0  0  0  0
 29 46  1  0  0  0  0
 29 47  1  0  0  0  0
M  END
> <PUBCHEM_COMPOUND_CID>
517717
> <PUBCHEM_COMPOUND_CANONICALIZED>
1
> <PUBCHEM_CACTVS_COMPLEXITY>
651
> <PUBCHEM_CACTVS_HBOND_ACCEPTOR>
12
> <PUBCHEM_CACTVS_HBOND_DONOR>
2
> <PUBCHEM_CACTVS_ROTATABLE_BOND>
8
> <PUBCHEM_CACTVS_SUBSKEYS>
AAADceB7uAAAAAAAAAAAAAAAAAAAAWJAAAAsAAAAAAAAAFgB+AAAHgAQAAAACBzhlwYH+L9MFACoAQbxbACAgC0REKABUCAoVBCDSAJAyEAfBAgPAALSACDwMAoAAAAAAAAAAAAAAAAAAAAAAAAAAAAAAA==
> <PUBCHEM_IUPAC_OPENEYE_NAME>
[3,4-diacetoxy-5-(2,6-diaminopurin-9-yl)tetrahydrofuran-2-yl]methyl acetate
> <PUBCHEM_IUPAC_CAS_NAME>
acetic acid [3,4-diacetyloxy-5-(2,6-diamino-9-purinyl)-2-oxolanyl]methyl ester
> <PUBCHEM_IUPAC_NAME_MARKUP>
[3,4-diacetyloxy-5-(2,6-diaminopurin-9-yl)oxolan-2-yl]methyl acetate
> <PUBCHEM_IUPAC_NAME>
[3,4-diacetyloxy-5-(2,6-diaminopurin-9-yl)oxolan-2-yl]methyl acetate
> <PUBCHEM_IUPAC_SYSTEMATIC_NAME>
[3,4-diacetyloxy-5-[2,6-bis(azanyl)purin-9-yl]oxolan-2-yl]methyl ethanoate
> <PUBCHEM_IUPAC_TRADITIONAL_NAME>
acetic acid [3,4-diacetoxy-5-(2,6-diaminopurin-9-yl)tetrahydrofuran-2-yl]methyl ester
> <PUBCHEM_IUPAC_INCHI>
InChI=1S/C16H20N6O7/c1-6(23)26-4-9-11(27-7(2)24)12(28-8(3)25)15(29-9)22-5-19-10-13(17)20-16(18)21-14(10)22/h5,9,11-12,15H,4H2,1-3H3,(H4,17,18,20,21)
> <PUBCHEM_IUPAC_INCHIKEY>
SYQRSDUMMOZBJO-UHFFFAOYSA-N
> <PUBCHEM_XLOGP3>
-0.2
> <PUBCHEM_EXACT_MASS>
408.13934700
> <PUBCHEM_MOLECULAR_FORMULA>
C16H20N6O7
> <PUBCHEM_MOLECULAR_WEIGHT>
408.37
> <PUBCHEM_OPENEYE_CAN_SMILES>
CC(=O)OCC1C(C(C(O1)N2C=NC3=C(N=C(N=C32)N)N)OC(=O)C)OC(=O)C
> <PUBCHEM_OPENEYE_ISO_SMILES>
CC(=O)OCC1C(C(C(O1)N2C=NC3=C(N=C(N=C32)N)N)OC(=O)C)OC(=O)C
> <PUBCHEM_CACTVS_TPSA>
184
> <PUBCHEM_MONOISOTOPIC_WEIGHT>
408.13934700
> <PUBCHEM_TOTAL_CHARGE>
0
> <PUBCHEM_HEAVY_ATOM_COUNT>
29
> <PUBCHEM_ATOM_DEF_STEREO_COUNT>
0
> <PUBCHEM_ATOM_UDEF_STEREO_COUNT>
4
> <PUBCHEM_BOND_DEF_STEREO_COUNT>
0
> <PUBCHEM_BOND_UDEF_STEREO_COUNT>
0
> <PUBCHEM_ISOTOPIC_ATOM_COUNT>
0
> <PUBCHEM_COMPONENT_COUNT>
1
> <PUBCHEM_CACTVS_TAUTO_COUNT>
-1
> <PUBCHEM_COORDINATE_TYPE>
1
5
255
> <PUBCHEM_BONDANNOTATIONS>
10  19  8
10  28  8
11  24  8
11  28  8
17  18  3
19  21  8
14  2  3
21  24  8
15  3  3
16  8  3
8  19  8
8  20  8
9  20  8
9  21  8
$$$$
