517702
  -OEChem-10302200292D
 26 24  0     1  0  0  0  0  0999 V2000
    0.0000    2.8925    0.0000 Cl  0  0  0  0  0  0  0  0  0  0  0  0
    4.3728    0.0000    0.0000 Cl  0  0  0  0  0  0  0  0  0  0  0  0
    3.5369    4.9750    0.0000 N   0  0  0  0  0  0  0  0  0  0  0  0
    5.2690    5.9750    0.0000 N   0  0  0  0  0  0  0  0  0  0  0  0
    4.4030    4.4750    0.0000 C   0  0  3  0  0  0  0  0  0  0  0  0
    5.2690    4.9750    0.0000 C   0  0  3  0  0  0  0  0  0  0  0  0
    4.4030    3.4750    0.0000 C   0  0  0  0  0  0  0  0  0  0  0  0
    6.1350    4.4750    0.0000 C   0  0  0  0  0  0  0  0  0  0  0  0
    5.2690    2.9750    0.0000 C   0  0  0  0  0  0  0  0  0  0  0  0
    6.1350    3.4750    0.0000 C   0  0  0  0  0  0  0  0  0  0  0  0
    3.8660    4.1650    0.0000 H   0  0  0  0  0  0  0  0  0  0  0  0
    5.8059    5.2850    0.0000 H   0  0  0  0  0  0  0  0  0  0  0  0
    3.7924    3.5826    0.0000 H   0  0  0  0  0  0  0  0  0  0  0  0
    4.1909    2.8923    0.0000 H   0  0  0  0  0  0  0  0  0  0  0  0
    6.7456    4.3673    0.0000 H   0  0  0  0  0  0  0  0  0  0  0  0
    6.3471    5.0576    0.0000 H   0  0  0  0  0  0  0  0  0  0  0  0
    4.8705    2.5000    0.0000 H   0  0  0  0  0  0  0  0  0  0  0  0
    5.6675    2.5000    0.0000 H   0  0  0  0  0  0  0  0  0  0  0  0
    6.3471    2.8923    0.0000 H   0  0  0  0  0  0  0  0  0  0  0  0
    6.7456    3.5826    0.0000 H   0  0  0  0  0  0  0  0  0  0  0  0
    3.0000    4.6650    0.0000 H   0  0  0  0  0  0  0  0  0  0  0  0
    3.5369    5.5950    0.0000 H   0  0  0  0  0  0  0  0  0  0  0  0
    5.8059    6.2850    0.0000 H   0  0  0  0  0  0  0  0  0  0  0  0
    4.7320    6.2850    0.0000 H   0  0  0  0  0  0  0  0  0  0  0  0
    1.0000    2.8925    0.0000 H   0  0  0  0  0  0  0  0  0  0  0  0
    5.3728    0.0000    0.0000 H   0  0  0  0  0  0  0  0  0  0  0  0
  1 25  1  0  0  0  0
  2 26  1  0  0  0  0
  3  5  1  0  0  0  0
  3 21  1  0  0  0  0
  3 22  1  0  0  0  0
  4  6  1  0  0  0  0
  4 23  1  0  0  0  0
  4 24  1  0  0  0  0
  5  6  1  0  0  0  0
  5  7  1  0  0  0  0
  5 11  1  0  0  0  0
  6  8  1  0  0  0  0
  6 12  1  0  0  0  0
  7  9  1  0  0  0  0
  7 13  1  0  0  0  0
  7 14  1  0  0  0  0
  8 10  1  0  0  0  0
  8 15  1  0  0  0  0
  8 16  1  0  0  0  0
  9 10  1  0  0  0  0
  9 17  1  0  0  0  0
  9 18  1  0  0  0  0
 10 19  1  0  0  0  0
 10 20  1  0  0  0  0
M  END
> <PUBCHEM_COMPOUND_CID>
517702
> <PUBCHEM_COMPOUND_CANONICALIZED>
1
> <PUBCHEM_CACTVS_COMPLEXITY>
62.9
> <PUBCHEM_CACTVS_HBOND_ACCEPTOR>
2
> <PUBCHEM_CACTVS_HBOND_DONOR>
4
> <PUBCHEM_CACTVS_ROTATABLE_BOND>
0
> <PUBCHEM_CACTVS_SUBSKEYS>
AAADceBjAAAGAAAAAAAAAAAAAAAAAAAAAAAwAAAAAAAAAAAAAAAAHAAQAAAACCjBAAQAAABAAAAAAAAAAAAAAAAAAAAAAIAAAAAAQAIAgAAAAAAAEAAAAAEQAAAAAAAAAAAAAAAAAAAAAAAAQAAAAAAAAA==
> <PUBCHEM_IUPAC_OPENEYE_NAME>
cyclohexane-1,2-diamine;dihydrochloride
> <PUBCHEM_IUPAC_CAS_NAME>
cyclohexane-1,2-diamine;dihydrochloride
> <PUBCHEM_IUPAC_NAME_MARKUP>
cyclohexane-1,2-diamine;dihydrochloride
> <PUBCHEM_IUPAC_NAME>
cyclohexane-1,2-diamine;dihydrochloride
> <PUBCHEM_IUPAC_SYSTEMATIC_NAME>
cyclohexane-1,2-diamine;dihydrochloride
> <PUBCHEM_IUPAC_TRADITIONAL_NAME>
(2-aminocyclohexyl)amine;dihydrochloride
> <PUBCHEM_IUPAC_INCHI>
InChI=1S/C6H14N2.2ClH/c7-5-3-1-2-4-6(5)8;;/h5-6H,1-4,7-8H2;2*1H
> <PUBCHEM_IUPAC_INCHIKEY>
HEKOZXSZLOBKGM-UHFFFAOYSA-N
> <PUBCHEM_EXACT_MASS>
186.0690539
> <PUBCHEM_MOLECULAR_FORMULA>
C6H16Cl2N2
> <PUBCHEM_MOLECULAR_WEIGHT>
187.11
> <PUBCHEM_OPENEYE_CAN_SMILES>
C1CCC(C(C1)N)N.Cl.Cl
> <PUBCHEM_OPENEYE_ISO_SMILES>
C1CCC(C(C1)N)N.Cl.Cl
> <PUBCHEM_CACTVS_TPSA>
52
> <PUBCHEM_MONOISOTOPIC_WEIGHT>
186.0690539
> <PUBCHEM_TOTAL_CHARGE>
0
> <PUBCHEM_HEAVY_ATOM_COUNT>
10
> <PUBCHEM_ATOM_DEF_STEREO_COUNT>
0
> <PUBCHEM_ATOM_UDEF_STEREO_COUNT>
2
> <PUBCHEM_BOND_DEF_STEREO_COUNT>
0
> <PUBCHEM_BOND_UDEF_STEREO_COUNT>
0
> <PUBCHEM_ISOTOPIC_ATOM_COUNT>
0
> <PUBCHEM_COMPONENT_COUNT>
3
> <PUBCHEM_CACTVS_TAUTO_COUNT>
-1
> <PUBCHEM_COORDINATE_TYPE>
1
5
255
> <PUBCHEM_BONDANNOTATIONS>
5  3  3
6  4  3
$$$$
