517724
  -OEChem-10302200292D
 29 30  0     1  0  0  0  0  0999 V2000
    7.1522    0.4937    0.0000 Cl  0  0  0  0  0  0  0  0  0  0  0  0
    7.9244    1.6784    0.0000 Cl  0  0  0  0  0  0  0  0  0  0  0  0
    6.7397    2.4507    0.0000 Cl  0  0  0  0  0  0  0  0  0  0  0  0
    4.9889    1.0598    0.0000 O   0  0  0  0  0  0  0  0  0  0  0  0
    5.2619   -0.6955    0.0000 O   0  0  0  0  0  0  0  0  0  0  0  0
    4.9889   -2.4507    0.0000 O   0  0  0  0  0  0  0  0  0  0  0  0
    5.9674    1.2660    0.0000 C   0  0  0  0  0  0  0  0  0  0  0  0
    4.6783    0.1093    0.0000 C   0  0  3  0  0  0  0  0  0  0  0  0
    3.7320   -0.1955    0.0000 C   0  0  0  0  0  0  0  0  0  0  0  0
    6.9459    1.4722    0.0000 C   0  0  0  0  0  0  0  0  0  0  0  0
    5.7612    2.2445    0.0000 C   0  0  0  0  0  0  0  0  0  0  0  0
    6.1737    0.2875    0.0000 C   0  0  0  0  0  0  0  0  0  0  0  0
    3.7320   -1.1955    0.0000 C   0  0  0  0  0  0  0  0  0  0  0  0
    4.6783   -1.5002    0.0000 C   0  0  0  0  0  0  0  0  0  0  0  0
    2.8660    0.3045    0.0000 C   0  0  0  0  0  0  0  0  0  0  0  0
    2.8660   -1.6955    0.0000 C   0  0  0  0  0  0  0  0  0  0  0  0
    2.0000   -0.1955    0.0000 C   0  0  0  0  0  0  0  0  0  0  0  0
    2.0000   -1.1955    0.0000 C   0  0  0  0  0  0  0  0  0  0  0  0
    4.2408    0.5486    0.0000 H   0  0  0  0  0  0  0  0  0  0  0  0
    6.3679    2.3724    0.0000 H   0  0  0  0  0  0  0  0  0  0  0  0
    5.6334    2.8512    0.0000 H   0  0  0  0  0  0  0  0  0  0  0  0
    5.1546    2.1166    0.0000 H   0  0  0  0  0  0  0  0  0  0  0  0
    5.5670    0.1596    0.0000 H   0  0  0  0  0  0  0  0  0  0  0  0
    6.3015   -0.3192    0.0000 H   0  0  0  0  0  0  0  0  0  0  0  0
    6.7803    0.4153    0.0000 H   0  0  0  0  0  0  0  0  0  0  0  0
    2.8660    0.9245    0.0000 H   0  0  0  0  0  0  0  0  0  0  0  0
    2.8660   -2.3155    0.0000 H   0  0  0  0  0  0  0  0  0  0  0  0
    1.4631    0.1145    0.0000 H   0  0  0  0  0  0  0  0  0  0  0  0
    1.4631   -1.5055    0.0000 H   0  0  0  0  0  0  0  0  0  0  0  0
  1 10  1  0  0  0  0
  2 10  1  0  0  0  0
  3 10  1  0  0  0  0
  4  7  1  0  0  0  0
  4  8  1  0  0  0  0
  5  8  1  0  0  0  0
  5 14  1  0  0  0  0
  6 14  2  0  0  0  0
  7 10  1  0  0  0  0
  7 11  1  0  0  0  0
  7 12  1  0  0  0  0
  8  9  1  0  0  0  0
  8 19  1  0  0  0  0
  9 13  1  0  0  0  0
  9 15  2  0  0  0  0
 11 20  1  0  0  0  0
 11 21  1  0  0  0  0
 11 22  1  0  0  0  0
 12 23  1  0  0  0  0
 12 24  1  0  0  0  0
 12 25  1  0  0  0  0
 13 14  1  0  0  0  0
 13 16  2  0  0  0  0
 15 17  1  0  0  0  0
 15 26  1  0  0  0  0
 16 18  1  0  0  0  0
 16 27  1  0  0  0  0
 17 18  2  0  0  0  0
 17 28  1  0  0  0  0
 18 29  1  0  0  0  0
M  END
> <PUBCHEM_COMPOUND_CID>
517724
> <PUBCHEM_COMPOUND_CANONICALIZED>
1
> <PUBCHEM_CACTVS_COMPLEXITY>
338
> <PUBCHEM_CACTVS_HBOND_ACCEPTOR>
3
> <PUBCHEM_CACTVS_HBOND_DONOR>
0
> <PUBCHEM_CACTVS_ROTATABLE_BOND>
2
> <PUBCHEM_CACTVS_SUBSKEYS>
AAADccBwMAAGAAAAAAAAAAAAAAAAASAAAAAwAAAAAAAAAEgBAAAAGgIAAAAADEawmIMyCIAABACIAiDSCAACAAAkAAAIiAEAC8gYJjKANRiiMQAkwAEMqYfKyKCOgAAAAAAQAAAAAAAAACAAAAAAAAAAAA==
> <PUBCHEM_IUPAC_OPENEYE_NAME>
3-(2,2,2-trichloro-1,1-dimethyl-ethoxy)-3H-isobenzofuran-1-one
> <PUBCHEM_IUPAC_CAS_NAME>
3-(1,1,1-trichloro-2-methylpropan-2-yl)oxy-3H-isobenzofuran-1-one
> <PUBCHEM_IUPAC_NAME_MARKUP>
3-(1,1,1-trichloro-2-methylpropan-2-yl)oxy-3<I>H</I>-2-benzofuran-1-one
> <PUBCHEM_IUPAC_NAME>
3-(1,1,1-trichloro-2-methylpropan-2-yl)oxy-3H-2-benzofuran-1-one
> <PUBCHEM_IUPAC_SYSTEMATIC_NAME>
3-[1,1,1-tris(chloranyl)-2-methyl-propan-2-yl]oxy-3H-2-benzofuran-1-one
> <PUBCHEM_IUPAC_TRADITIONAL_NAME>
3-(2,2,2-trichloro-1,1-dimethyl-ethoxy)phthalide
> <PUBCHEM_IUPAC_INCHI>
InChI=1S/C12H11Cl3O3/c1-11(2,12(13,14)15)18-10-8-6-4-3-5-7(8)9(16)17-10/h3-6,10H,1-2H3
> <PUBCHEM_IUPAC_INCHIKEY>
XFHFPSJKJWQYGG-UHFFFAOYSA-N
> <PUBCHEM_XLOGP3>
3.5
> <PUBCHEM_EXACT_MASS>
307.977377
> <PUBCHEM_MOLECULAR_FORMULA>
C12H11Cl3O3
> <PUBCHEM_MOLECULAR_WEIGHT>
309.6
> <PUBCHEM_OPENEYE_CAN_SMILES>
CC(C)(C(Cl)(Cl)Cl)OC1C2=CC=CC=C2C(=O)O1
> <PUBCHEM_OPENEYE_ISO_SMILES>
CC(C)(C(Cl)(Cl)Cl)OC1C2=CC=CC=C2C(=O)O1
> <PUBCHEM_CACTVS_TPSA>
35.5
> <PUBCHEM_MONOISOTOPIC_WEIGHT>
307.977377
> <PUBCHEM_TOTAL_CHARGE>
0
> <PUBCHEM_HEAVY_ATOM_COUNT>
18
> <PUBCHEM_ATOM_DEF_STEREO_COUNT>
0
> <PUBCHEM_ATOM_UDEF_STEREO_COUNT>
1
> <PUBCHEM_BOND_DEF_STEREO_COUNT>
0
> <PUBCHEM_BOND_UDEF_STEREO_COUNT>
0
> <PUBCHEM_ISOTOPIC_ATOM_COUNT>
0
> <PUBCHEM_COMPONENT_COUNT>
1
> <PUBCHEM_CACTVS_TAUTO_COUNT>
-1
> <PUBCHEM_COORDINATE_TYPE>
1
5
255
> <PUBCHEM_BONDANNOTATIONS>
13  16  8
15  17  8
16  18  8
17  18  8
8  4  3
9  13  8
9  15  8
$$$$
