517794
  -OEChem-10302200292D
 44 48  0     1  0  0  0  0  0999 V2000
    8.6300    2.1677    0.0000 O   0  0  0  0  0  0  0  0  0  0  0  0
    5.2619   -2.1677    0.0000 O   0  0  0  0  0  0  0  0  0  0  0  0
    8.9030    3.9229    0.0000 O   0  0  0  0  0  0  0  0  0  0  0  0
    4.9889   -3.9229    0.0000 O   0  0  0  0  0  0  0  0  0  0  0  0
    8.9030    0.4124    0.0000 N   0  0  0  0  0  0  0  0  0  0  0  0
    4.9889   -0.4124    0.0000 N   0  0  0  0  0  0  0  0  0  0  0  0
    9.2136    1.3630    0.0000 C   0  0  3  0  0  0  0  0  0  0  0  0
    4.6783   -1.3630    0.0000 C   0  0  3  0  0  0  0  0  0  0  0  0
   10.1598    1.6677    0.0000 C   0  0  0  0  0  0  0  0  0  0  0  0
    3.7320   -1.6677    0.0000 C   0  0  0  0  0  0  0  0  0  0  0  0
   10.1598    2.6677    0.0000 C   0  0  0  0  0  0  0  0  0  0  0  0
    3.7320   -2.6677    0.0000 C   0  0  0  0  0  0  0  0  0  0  0  0
    7.9244    0.2062    0.0000 C   0  0  0  0  0  0  0  0  0  0  0  0
    5.9674   -0.2062    0.0000 C   0  0  0  0  0  0  0  0  0  0  0  0
    9.2136    2.9724    0.0000 C   0  0  0  0  0  0  0  0  0  0  0  0
    4.6783   -2.9724    0.0000 C   0  0  0  0  0  0  0  0  0  0  0  0
   11.0259    1.1677    0.0000 C   0  0  0  0  0  0  0  0  0  0  0  0
    2.8660   -1.1677    0.0000 C   0  0  0  0  0  0  0  0  0  0  0  0
    7.2566    0.9505    0.0000 C   0  0  0  0  0  0  0  0  0  0  0  0
    6.2781    0.7443    0.0000 C   0  0  0  0  0  0  0  0  0  0  0  0
    7.6138   -0.7443    0.0000 C   0  0  0  0  0  0  0  0  0  0  0  0
    6.6353   -0.9505    0.0000 C   0  0  0  0  0  0  0  0  0  0  0  0
   11.0259    3.1677    0.0000 C   0  0  0  0  0  0  0  0  0  0  0  0
    2.8660   -3.1677    0.0000 C   0  0  0  0  0  0  0  0  0  0  0  0
   11.8919    1.6677    0.0000 C   0  0  0  0  0  0  0  0  0  0  0  0
    2.0000   -1.6677    0.0000 C   0  0  0  0  0  0  0  0  0  0  0  0
   11.8919    2.6677    0.0000 C   0  0  0  0  0  0  0  0  0  0  0  0
    2.0000   -2.6677    0.0000 C   0  0  0  0  0  0  0  0  0  0  0  0
    9.6511    0.9236    0.0000 H   0  0  0  0  0  0  0  0  0  0  0  0
    4.2408   -0.9236    0.0000 H   0  0  0  0  0  0  0  0  0  0  0  0
    9.3170   -0.0490    0.0000 H   0  0  0  0  0  0  0  0  0  0  0  0
    4.5749    0.0490    0.0000 H   0  0  0  0  0  0  0  0  0  0  0  0
   11.0259    0.5477    0.0000 H   0  0  0  0  0  0  0  0  0  0  0  0
    2.8660   -0.5477    0.0000 H   0  0  0  0  0  0  0  0  0  0  0  0
    7.4492    1.5398    0.0000 H   0  0  0  0  0  0  0  0  0  0  0  0
    5.8640    1.2058    0.0000 H   0  0  0  0  0  0  0  0  0  0  0  0
    8.0279   -1.2058    0.0000 H   0  0  0  0  0  0  0  0  0  0  0  0
    6.4427   -1.5398    0.0000 H   0  0  0  0  0  0  0  0  0  0  0  0
   11.0259    3.7877    0.0000 H   0  0  0  0  0  0  0  0  0  0  0  0
    2.8660   -3.7877    0.0000 H   0  0  0  0  0  0  0  0  0  0  0  0
   12.4288    1.3577    0.0000 H   0  0  0  0  0  0  0  0  0  0  0  0
    1.4631   -1.3577    0.0000 H   0  0  0  0  0  0  0  0  0  0  0  0
   12.4288    2.9777    0.0000 H   0  0  0  0  0  0  0  0  0  0  0  0
    1.4631   -2.9777    0.0000 H   0  0  0  0  0  0  0  0  0  0  0  0
  1  7  1  0  0  0  0
  1 15  1  0  0  0  0
  2  8  1  0  0  0  0
  2 16  1  0  0  0  0
  3 15  2  0  0  0  0
  4 16  2  0  0  0  0
  5  7  1  0  0  0  0
  5 13  1  0  0  0  0
  5 31  1  0  0  0  0
  6  8  1  0  0  0  0
  6 14  1  0  0  0  0
  6 32  1  0  0  0  0
  7  9  1  0  0  0  0
  7 29  1  0  0  0  0
  8 10  1  0  0  0  0
  8 30  1  0  0  0  0
  9 11  1  0  0  0  0
  9 17  2  0  0  0  0
 10 12  1  0  0  0  0
 10 18  2  0  0  0  0
 11 15  1  0  0  0  0
 11 23  2  0  0  0  0
 12 16  1  0  0  0  0
 12 24  2  0  0  0  0
 13 19  2  0  0  0  0
 13 21  1  0  0  0  0
 14 20  2  0  0  0  0
 14 22  1  0  0  0  0
 17 25  1  0  0  0  0
 17 33  1  0  0  0  0
 18 26  1  0  0  0  0
 18 34  1  0  0  0  0
 19 20  1  0  0  0  0
 19 35  1  0  0  0  0
 20 36  1  0  0  0  0
 21 22  2  0  0  0  0
 21 37  1  0  0  0  0
 22 38  1  0  0  0  0
 23 27  1  0  0  0  0
 23 39  1  0  0  0  0
 24 28  1  0  0  0  0
 24 40  1  0  0  0  0
 25 27  2  0  0  0  0
 25 41  1  0  0  0  0
 26 28  2  0  0  0  0
 26 42  1  0  0  0  0
 27 43  1  0  0  0  0
 28 44  1  0  0  0  0
M  END
> <PUBCHEM_COMPOUND_CID>
517794
> <PUBCHEM_COMPOUND_CANONICALIZED>
1
> <PUBCHEM_CACTVS_COMPLEXITY>
551
> <PUBCHEM_CACTVS_HBOND_ACCEPTOR>
6
> <PUBCHEM_CACTVS_HBOND_DONOR>
2
> <PUBCHEM_CACTVS_ROTATABLE_BOND>
4
> <PUBCHEM_CACTVS_SUBSKEYS>
AAADceB7OAAAAAAAAAAAAAAAAAAAASJAAAAwYMAAAAAAAEgBUAAAHgAQAAAADAjhmAYwyILABACIAiTSSACCAAAlAgAIiIEIbMkIJjLAtZmOMQhk0AHI6Ye+yKCOgACAAAAQAAAAAQAAACAAAAAAAAAAAA==
> <PUBCHEM_IUPAC_OPENEYE_NAME>
3-[4-[(3-oxo-1H-isobenzofuran-1-yl)amino]anilino]-3H-isobenzofuran-1-one
> <PUBCHEM_IUPAC_CAS_NAME>
3-[4-[(3-oxo-1H-isobenzofuran-1-yl)amino]anilino]-3H-isobenzofuran-1-one
> <PUBCHEM_IUPAC_NAME_MARKUP>
3-[4-[(3-oxo-1<I>H</I>-2-benzofuran-1-yl)amino]anilino]-3<I>H</I>-2-benzofuran-1-one
> <PUBCHEM_IUPAC_NAME>
3-[4-[(3-oxo-1H-2-benzofuran-1-yl)amino]anilino]-3H-2-benzofuran-1-one
> <PUBCHEM_IUPAC_SYSTEMATIC_NAME>
3-[[4-[(3-oxidanylidene-1H-2-benzofuran-1-yl)amino]phenyl]amino]-3H-2-benzofuran-1-one
> <PUBCHEM_IUPAC_TRADITIONAL_NAME>
3-[4-(phthalidylamino)anilino]phthalide
> <PUBCHEM_IUPAC_INCHI>
InChI=1S/C22H16N2O4/c25-21-17-7-3-1-5-15(17)19(27-21)23-13-9-11-14(12-10-13)24-20-16-6-2-4-8-18(16)22(26)28-20/h1-12,19-20,23-24H
> <PUBCHEM_IUPAC_INCHIKEY>
BINQLLJWERQNKD-UHFFFAOYSA-N
> <PUBCHEM_XLOGP3_AA>
4.4
> <PUBCHEM_EXACT_MASS>
372.11100700
> <PUBCHEM_MOLECULAR_FORMULA>
C22H16N2O4
> <PUBCHEM_MOLECULAR_WEIGHT>
372.4
> <PUBCHEM_OPENEYE_CAN_SMILES>
C1=CC=C2C(=C1)C(OC2=O)NC3=CC=C(C=C3)NC4C5=CC=CC=C5C(=O)O4
> <PUBCHEM_OPENEYE_ISO_SMILES>
C1=CC=C2C(=C1)C(OC2=O)NC3=CC=C(C=C3)NC4C5=CC=CC=C5C(=O)O4
> <PUBCHEM_CACTVS_TPSA>
76.7
> <PUBCHEM_MONOISOTOPIC_WEIGHT>
372.11100700
> <PUBCHEM_TOTAL_CHARGE>
0
> <PUBCHEM_HEAVY_ATOM_COUNT>
28
> <PUBCHEM_ATOM_DEF_STEREO_COUNT>
0
> <PUBCHEM_ATOM_UDEF_STEREO_COUNT>
2
> <PUBCHEM_BOND_DEF_STEREO_COUNT>
0
> <PUBCHEM_BOND_UDEF_STEREO_COUNT>
0
> <PUBCHEM_ISOTOPIC_ATOM_COUNT>
0
> <PUBCHEM_COMPONENT_COUNT>
1
> <PUBCHEM_CACTVS_TAUTO_COUNT>
-1
> <PUBCHEM_COORDINATE_TYPE>
1
5
255
> <PUBCHEM_BONDANNOTATIONS>
10  12  8
10  18  8
11  23  8
12  24  8
13  19  8
13  21  8
14  20  8
14  22  8
17  25  8
18  26  8
19  20  8
21  22  8
23  27  8
24  28  8
25  27  8
26  28  8
7  5  3
8  6  3
9  11  8
9  17  8
$$$$
