517759
  -OEChem-10302200292D
112111  0     1  0  0  0  0  0999 V2000
    9.7942    6.7500    0.0000 O   0  0  0  0  0  0  0  0  0  0  0  0
    7.1962    5.2500    0.0000 O   0  0  0  0  0  0  0  0  0  0  0  0
    8.0622    6.7500    0.0000 O   0  0  0  0  0  0  0  0  0  0  0  0
    7.1962    2.2500    0.0000 C   0  0  0  0  0  0  0  0  0  0  0  0
    7.1962    1.2500    0.0000 C   0  0  0  0  0  0  0  0  0  0  0  0
    8.0622    2.7500    0.0000 C   0  0  0  0  0  0  0  0  0  0  0  0
    6.3301    0.7500    0.0000 C   0  0  0  0  0  0  0  0  0  0  0  0
    8.0622    3.7500    0.0000 C   0  0  0  0  0  0  0  0  0  0  0  0
    6.3301   -0.2500    0.0000 C   0  0  0  0  0  0  0  0  0  0  0  0
    8.9282    4.2500    0.0000 C   0  0  0  0  0  0  0  0  0  0  0  0
   14.9904    5.7500    0.0000 C   0  0  0  0  0  0  0  0  0  0  0  0
   15.8564    5.2500    0.0000 C   0  0  0  0  0  0  0  0  0  0  0  0
    5.4641   -0.7500    0.0000 C   0  0  0  0  0  0  0  0  0  0  0  0
   14.1244    5.2500    0.0000 C   0  0  0  0  0  0  0  0  0  0  0  0
   16.7224    5.7500    0.0000 C   0  0  0  0  0  0  0  0  0  0  0  0
    8.9282    5.2500    0.0000 C   0  0  3  0  0  0  0  0  0  0  0  0
   13.2583    5.7500    0.0000 C   0  0  0  0  0  0  0  0  0  0  0  0
   17.5885    5.2500    0.0000 C   0  0  0  0  0  0  0  0  0  0  0  0
    5.4641   -1.7500    0.0000 C   0  0  0  0  0  0  0  0  0  0  0  0
   12.3923    5.2500    0.0000 C   0  0  0  0  0  0  0  0  0  0  0  0
   18.4545    5.7500    0.0000 C   0  0  0  0  0  0  0  0  0  0  0  0
   11.5263    5.7500    0.0000 C   0  0  0  0  0  0  0  0  0  0  0  0
    4.5981   -2.2500    0.0000 C   0  0  0  0  0  0  0  0  0  0  0  0
   19.3205    5.2500    0.0000 C   0  0  0  0  0  0  0  0  0  0  0  0
   10.6603    5.2500    0.0000 C   0  0  0  0  0  0  0  0  0  0  0  0
    4.5981   -3.2500    0.0000 C   0  0  0  0  0  0  0  0  0  0  0  0
   20.1865    5.7500    0.0000 C   0  0  0  0  0  0  0  0  0  0  0  0
    9.7942    5.7500    0.0000 C   0  0  0  0  0  0  0  0  0  0  0  0
    3.7320   -3.7500    0.0000 C   0  0  0  0  0  0  0  0  0  0  0  0
   21.0526    5.2500    0.0000 C   0  0  0  0  0  0  0  0  0  0  0  0
    3.7320   -4.7500    0.0000 C   0  0  0  0  0  0  0  0  0  0  0  0
   21.9186    5.7500    0.0000 C   0  0  0  0  0  0  0  0  0  0  0  0
    8.0622    5.7500    0.0000 C   0  0  0  0  0  0  0  0  0  0  0  0
    2.8660   -5.2500    0.0000 C   0  0  0  0  0  0  0  0  0  0  0  0
   22.7846    5.2500    0.0000 C   0  0  0  0  0  0  0  0  0  0  0  0
    2.8660   -6.2500    0.0000 C   0  0  0  0  0  0  0  0  0  0  0  0
   23.6506    5.7500    0.0000 C   0  0  0  0  0  0  0  0  0  0  0  0
    2.0000   -6.7500    0.0000 C   0  0  0  0  0  0  0  0  0  0  0  0
   24.5167    5.2500    0.0000 C   0  0  0  0  0  0  0  0  0  0  0  0
    6.3301    5.7500    0.0000 C   0  0  0  0  0  0  0  0  0  0  0  0
    6.9841    2.8326    0.0000 H   0  0  0  0  0  0  0  0  0  0  0  0
    6.5856    2.1423    0.0000 H   0  0  0  0  0  0  0  0  0  0  0  0
    7.4082    0.6674    0.0000 H   0  0  0  0  0  0  0  0  0  0  0  0
    7.8067    1.3577    0.0000 H   0  0  0  0  0  0  0  0  0  0  0  0
    8.2742    2.1674    0.0000 H   0  0  0  0  0  0  0  0  0  0  0  0
    8.6728    2.8577    0.0000 H   0  0  0  0  0  0  0  0  0  0  0  0
    6.1181    1.3326    0.0000 H   0  0  0  0  0  0  0  0  0  0  0  0
    5.7196    0.6423    0.0000 H   0  0  0  0  0  0  0  0  0  0  0  0
    7.8501    4.3326    0.0000 H   0  0  0  0  0  0  0  0  0  0  0  0
    7.4516    3.6423    0.0000 H   0  0  0  0  0  0  0  0  0  0  0  0
    6.5422   -0.8326    0.0000 H   0  0  0  0  0  0  0  0  0  0  0  0
    6.9407   -0.1423    0.0000 H   0  0  0  0  0  0  0  0  0  0  0  0
    9.1403    3.6674    0.0000 H   0  0  0  0  0  0  0  0  0  0  0  0
    9.5388    4.3577    0.0000 H   0  0  0  0  0  0  0  0  0  0  0  0
   15.3889    6.2250    0.0000 H   0  0  0  0  0  0  0  0  0  0  0  0
   14.5919    6.2250    0.0000 H   0  0  0  0  0  0  0  0  0  0  0  0
   15.4579    4.7750    0.0000 H   0  0  0  0  0  0  0  0  0  0  0  0
   16.2549    4.7750    0.0000 H   0  0  0  0  0  0  0  0  0  0  0  0
    5.2520   -0.1674    0.0000 H   0  0  0  0  0  0  0  0  0  0  0  0
    4.8535   -0.8577    0.0000 H   0  0  0  0  0  0  0  0  0  0  0  0
   13.7258    4.7750    0.0000 H   0  0  0  0  0  0  0  0  0  0  0  0
   14.5229    4.7750    0.0000 H   0  0  0  0  0  0  0  0  0  0  0  0
   17.1210    6.2250    0.0000 H   0  0  0  0  0  0  0  0  0  0  0  0
   16.3239    6.2250    0.0000 H   0  0  0  0  0  0  0  0  0  0  0  0
    9.4651    4.9400    0.0000 H   0  0  0  0  0  0  0  0  0  0  0  0
   13.6569    6.2250    0.0000 H   0  0  0  0  0  0  0  0  0  0  0  0
   12.8598    6.2250    0.0000 H   0  0  0  0  0  0  0  0  0  0  0  0
   17.1899    4.7750    0.0000 H   0  0  0  0  0  0  0  0  0  0  0  0
   17.9870    4.7750    0.0000 H   0  0  0  0  0  0  0  0  0  0  0  0
    5.6762   -2.3326    0.0000 H   0  0  0  0  0  0  0  0  0  0  0  0
    6.0747   -1.6423    0.0000 H   0  0  0  0  0  0  0  0  0  0  0  0
   11.9938    4.7750    0.0000 H   0  0  0  0  0  0  0  0  0  0  0  0
   12.7908    4.7750    0.0000 H   0  0  0  0  0  0  0  0  0  0  0  0
   18.8530    6.2250    0.0000 H   0  0  0  0  0  0  0  0  0  0  0  0
   18.0560    6.2250    0.0000 H   0  0  0  0  0  0  0  0  0  0  0  0
   11.9248    6.2250    0.0000 H   0  0  0  0  0  0  0  0  0  0  0  0
   11.1278    6.2250    0.0000 H   0  0  0  0  0  0  0  0  0  0  0  0
    4.3860   -1.6674    0.0000 H   0  0  0  0  0  0  0  0  0  0  0  0
    3.9875   -2.3577    0.0000 H   0  0  0  0  0  0  0  0  0  0  0  0
   18.9220    4.7750    0.0000 H   0  0  0  0  0  0  0  0  0  0  0  0
   19.7190    4.7750    0.0000 H   0  0  0  0  0  0  0  0  0  0  0  0
   10.2617    4.7750    0.0000 H   0  0  0  0  0  0  0  0  0  0  0  0
   11.0588    4.7750    0.0000 H   0  0  0  0  0  0  0  0  0  0  0  0
    4.8101   -3.8326    0.0000 H   0  0  0  0  0  0  0  0  0  0  0  0
    5.2087   -3.1423    0.0000 H   0  0  0  0  0  0  0  0  0  0  0  0
   20.5851    6.2250    0.0000 H   0  0  0  0  0  0  0  0  0  0  0  0
   19.7880    6.2250    0.0000 H   0  0  0  0  0  0  0  0  0  0  0  0
    3.5200   -3.1674    0.0000 H   0  0  0  0  0  0  0  0  0  0  0  0
    3.1215   -3.8577    0.0000 H   0  0  0  0  0  0  0  0  0  0  0  0
   20.6540    4.7750    0.0000 H   0  0  0  0  0  0  0  0  0  0  0  0
   21.4511    4.7750    0.0000 H   0  0  0  0  0  0  0  0  0  0  0  0
    3.9441   -5.3326    0.0000 H   0  0  0  0  0  0  0  0  0  0  0  0
    4.3426   -4.6423    0.0000 H   0  0  0  0  0  0  0  0  0  0  0  0
   22.3171    6.2250    0.0000 H   0  0  0  0  0  0  0  0  0  0  0  0
   21.5201    6.2250    0.0000 H   0  0  0  0  0  0  0  0  0  0  0  0
    2.6540   -4.6674    0.0000 H   0  0  0  0  0  0  0  0  0  0  0  0
    2.2554   -5.3577    0.0000 H   0  0  0  0  0  0  0  0  0  0  0  0
   22.3861    4.7750    0.0000 H   0  0  0  0  0  0  0  0  0  0  0  0
   23.1831    4.7750    0.0000 H   0  0  0  0  0  0  0  0  0  0  0  0
    3.0781   -6.8326    0.0000 H   0  0  0  0  0  0  0  0  0  0  0  0
    3.4766   -6.1423    0.0000 H   0  0  0  0  0  0  0  0  0  0  0  0
   24.0492    6.2250    0.0000 H   0  0  0  0  0  0  0  0  0  0  0  0
   23.2521    6.2250    0.0000 H   0  0  0  0  0  0  0  0  0  0  0  0
    1.6900   -6.2131    0.0000 H   0  0  0  0  0  0  0  0  0  0  0  0
    1.4631   -7.0600    0.0000 H   0  0  0  0  0  0  0  0  0  0  0  0
    2.3100   -7.2869    0.0000 H   0  0  0  0  0  0  0  0  0  0  0  0
   24.2067    4.7131    0.0000 H   0  0  0  0  0  0  0  0  0  0  0  0
   25.0536    4.9400    0.0000 H   0  0  0  0  0  0  0  0  0  0  0  0
   24.8267    5.7869    0.0000 H   0  0  0  0  0  0  0  0  0  0  0  0
    6.6401    6.2869    0.0000 H   0  0  0  0  0  0  0  0  0  0  0  0
    5.7932    6.0600    0.0000 H   0  0  0  0  0  0  0  0  0  0  0  0
    6.0201    5.2131    0.0000 H   0  0  0  0  0  0  0  0  0  0  0  0
  1 28  2  0  0  0  0
  2 33  1  0  0  0  0
  2 40  1  0  0  0  0
  3 33  2  0  0  0  0
  4  5  1  0  0  0  0
  4  6  1  0  0  0  0
  4 41  1  0  0  0  0
  4 42  1  0  0  0  0
  5  7  1  0  0  0  0
  5 43  1  0  0  0  0
  5 44  1  0  0  0  0
  6  8  1  0  0  0  0
  6 45  1  0  0  0  0
  6 46  1  0  0  0  0
  7  9  1  0  0  0  0
  7 47  1  0  0  0  0
  7 48  1  0  0  0  0
  8 10  1  0  0  0  0
  8 49  1  0  0  0  0
  8 50  1  0  0  0  0
  9 13  1  0  0  0  0
  9 51  1  0  0  0  0
  9 52  1  0  0  0  0
 10 16  1  0  0  0  0
 10 53  1  0  0  0  0
 10 54  1  0  0  0  0
 11 12  1  0  0  0  0
 11 14  1  0  0  0  0
 11 55  1  0  0  0  0
 11 56  1  0  0  0  0
 12 15  1  0  0  0  0
 12 57  1  0  0  0  0
 12 58  1  0  0  0  0
 13 19  1  0  0  0  0
 13 59  1  0  0  0  0
 13 60  1  0  0  0  0
 14 17  1  0  0  0  0
 14 61  1  0  0  0  0
 14 62  1  0  0  0  0
 15 18  1  0  0  0  0
 15 63  1  0  0  0  0
 15 64  1  0  0  0  0
 16 28  1  0  0  0  0
 16 33  1  0  0  0  0
 16 65  1  0  0  0  0
 17 20  1  0  0  0  0
 17 66  1  0  0  0  0
 17 67  1  0  0  0  0
 18 21  1  0  0  0  0
 18 68  1  0  0  0  0
 18 69  1  0  0  0  0
 19 23  1  0  0  0  0
 19 70  1  0  0  0  0
 19 71  1  0  0  0  0
 20 22  1  0  0  0  0
 20 72  1  0  0  0  0
 20 73  1  0  0  0  0
 21 24  1  0  0  0  0
 21 74  1  0  0  0  0
 21 75  1  0  0  0  0
 22 25  1  0  0  0  0
 22 76  1  0  0  0  0
 22 77  1  0  0  0  0
 23 26  1  0  0  0  0
 23 78  1  0  0  0  0
 23 79  1  0  0  0  0
 24 27  1  0  0  0  0
 24 80  1  0  0  0  0
 24 81  1  0  0  0  0
 25 28  1  0  0  0  0
 25 82  1  0  0  0  0
 25 83  1  0  0  0  0
 26 29  1  0  0  0  0
 26 84  1  0  0  0  0
 26 85  1  0  0  0  0
 27 30  1  0  0  0  0
 27 86  1  0  0  0  0
 27 87  1  0  0  0  0
 29 31  1  0  0  0  0
 29 88  1  0  0  0  0
 29 89  1  0  0  0  0
 30 32  1  0  0  0  0
 30 90  1  0  0  0  0
 30 91  1  0  0  0  0
 31 34  1  0  0  0  0
 31 92  1  0  0  0  0
 31 93  1  0  0  0  0
 32 35  1  0  0  0  0
 32 94  1  0  0  0  0
 32 95  1  0  0  0  0
 34 36  1  0  0  0  0
 34 96  1  0  0  0  0
 34 97  1  0  0  0  0
 35 37  1  0  0  0  0
 35 98  1  0  0  0  0
 35 99  1  0  0  0  0
 36 38  1  0  0  0  0
 36100  1  0  0  0  0
 36101  1  0  0  0  0
 37 39  1  0  0  0  0
 37102  1  0  0  0  0
 37103  1  0  0  0  0
 38104  1  0  0  0  0
 38105  1  0  0  0  0
 38106  1  0  0  0  0
 39107  1  0  0  0  0
 39108  1  0  0  0  0
 39109  1  0  0  0  0
 40110  1  0  0  0  0
 40111  1  0  0  0  0
 40112  1  0  0  0  0
M  END
> <PUBCHEM_COMPOUND_CID>
517759
> <PUBCHEM_COMPOUND_CANONICALIZED>
1
> <PUBCHEM_CACTVS_COMPLEXITY>
530
> <PUBCHEM_CACTVS_HBOND_ACCEPTOR>
3
> <PUBCHEM_CACTVS_HBOND_DONOR>
0
> <PUBCHEM_CACTVS_ROTATABLE_BOND>
34
> <PUBCHEM_CACTVS_SUBSKEYS>
AAADcfB8MAAAAAAAAAAAAAAAAAAAAAAAAAAAAAAAAAAAAAAAAAAAGgAAAAAADQSAgAICCAAABAAIAICQCAAAAAAAAAAAAAEAAAAAABYIAAAAAAAEIAAAAAGIyOCOAAAAAAAAAAAAAAAAAAAAAAAAAAAAAA==
> <PUBCHEM_IUPAC_OPENEYE_NAME>
methyl 2-hexadecyl-3-oxo-icosanoate
> <PUBCHEM_IUPAC_CAS_NAME>
2-hexadecyl-3-oxoeicosanoic acid methyl ester
> <PUBCHEM_IUPAC_NAME_MARKUP>
methyl 2-hexadecyl-3-oxoicosanoate
> <PUBCHEM_IUPAC_NAME>
methyl 2-hexadecyl-3-oxoicosanoate
> <PUBCHEM_IUPAC_SYSTEMATIC_NAME>
methyl 2-hexadecyl-3-oxidanylidene-icosanoate
> <PUBCHEM_IUPAC_TRADITIONAL_NAME>
2-cetyl-3-keto-arachidic acid methyl ester
> <PUBCHEM_IUPAC_INCHI>
InChI=1S/C37H72O3/c1-4-6-8-10-12-14-16-18-20-22-24-26-28-30-32-34-36(38)35(37(39)40-3)33-31-29-27-25-23-21-19-17-15-13-11-9-7-5-2/h35H,4-34H2,1-3H3
> <PUBCHEM_IUPAC_INCHIKEY>
QSOSUDRRPSNGFF-UHFFFAOYSA-N
> <PUBCHEM_XLOGP3_AA>
16.9
> <PUBCHEM_EXACT_MASS>
564.54814615
> <PUBCHEM_MOLECULAR_FORMULA>
C37H72O3
> <PUBCHEM_MOLECULAR_WEIGHT>
565.0
> <PUBCHEM_OPENEYE_CAN_SMILES>
CCCCCCCCCCCCCCCCCC(=O)C(CCCCCCCCCCCCCCCC)C(=O)OC
> <PUBCHEM_OPENEYE_ISO_SMILES>
CCCCCCCCCCCCCCCCCC(=O)C(CCCCCCCCCCCCCCCC)C(=O)OC
> <PUBCHEM_CACTVS_TPSA>
43.4
> <PUBCHEM_MONOISOTOPIC_WEIGHT>
564.54814615
> <PUBCHEM_TOTAL_CHARGE>
0
> <PUBCHEM_HEAVY_ATOM_COUNT>
40
> <PUBCHEM_ATOM_DEF_STEREO_COUNT>
0
> <PUBCHEM_ATOM_UDEF_STEREO_COUNT>
1
> <PUBCHEM_BOND_DEF_STEREO_COUNT>
0
> <PUBCHEM_BOND_UDEF_STEREO_COUNT>
0
> <PUBCHEM_ISOTOPIC_ATOM_COUNT>
0
> <PUBCHEM_COMPONENT_COUNT>
1
> <PUBCHEM_CACTVS_TAUTO_COUNT>
-1
> <PUBCHEM_COORDINATE_TYPE>
1
5
255
> <PUBCHEM_BONDANNOTATIONS>
16  10  3
$$$$
