517738
  -OEChem-10302200292D
 22 23  0     1  0  0  0  0  0999 V2000
    5.3741   -1.8709    0.0000 O   0  0  0  0  0  0  0  0  0  0  0  0
    4.0501   -0.0776    0.0000 C   0  0  3  0  0  0  0  0  0  0  0  0
    4.3089    0.8883    0.0000 C   0  0  3  0  0  0  0  0  0  0  0  0
    3.5723    1.8709    0.0000 C   0  0  0  0  0  0  0  0  0  0  0  0
    2.8290   -0.9433    0.0000 C   0  0  0  0  0  0  0  0  0  0  0  0
    2.2756    0.5772    0.0000 C   0  0  0  0  0  0  0  0  0  0  0  0
    2.0000   -0.3841    0.0000 C   0  0  0  0  0  0  0  0  0  0  0  0
    5.3217   -0.8723    0.0000 C   0  0  0  0  0  0  0  0  0  0  0  0
    5.7405    0.6906    0.0000 C   0  0  0  0  0  0  0  0  0  0  0  0
    6.0989   -0.2430    0.0000 C   0  0  0  0  0  0  0  0  0  0  0  0
    4.0681   -0.6974    0.0000 H   0  0  0  0  0  0  0  0  0  0  0  0
    4.3134    0.2683    0.0000 H   0  0  0  0  0  0  0  0  0  0  0  0
    3.8901    2.4033    0.0000 H   0  0  0  0  0  0  0  0  0  0  0  0
    2.9591    1.9629    0.0000 H   0  0  0  0  0  0  0  0  0  0  0  0
    2.4232   -1.4120    0.0000 H   0  0  0  0  0  0  0  0  0  0  0  0
    3.2457   -1.4024    0.0000 H   0  0  0  0  0  0  0  0  0  0  0  0
    2.2706    1.1971    0.0000 H   0  0  0  0  0  0  0  0  0  0  0  0
    1.6613    0.6609    0.0000 H   0  0  0  0  0  0  0  0  0  0  0  0
    1.4252   -0.1518    0.0000 H   0  0  0  0  0  0  0  0  0  0  0  0
    1.7089   -0.9315    0.0000 H   0  0  0  0  0  0  0  0  0  0  0  0
    6.1259    1.1763    0.0000 H   0  0  0  0  0  0  0  0  0  0  0  0
    6.6978   -0.4034    0.0000 H   0  0  0  0  0  0  0  0  0  0  0  0
  1  8  2  0  0  0  0
  2  4  1  0  0  0  0
  2  5  1  0  0  0  0
  2  8  1  0  0  0  0
  2 11  1  0  0  0  0
  3  4  1  0  0  0  0
  3  6  1  0  0  0  0
  3  9  1  0  0  0  0
  3 12  1  0  0  0  0
  4 13  1  0  0  0  0
  4 14  1  0  0  0  0
  5  7  1  0  0  0  0
  5 15  1  0  0  0  0
  5 16  1  0  0  0  0
  6  7  1  0  0  0  0
  6 17  1  0  0  0  0
  6 18  1  0  0  0  0
  7 19  1  0  0  0  0
  7 20  1  0  0  0  0
  8 10  1  0  0  0  0
  9 10  2  0  0  0  0
  9 21  1  0  0  0  0
 10 22  1  0  0  0  0
M  END
> <PUBCHEM_COMPOUND_CID>
517738
> <PUBCHEM_COMPOUND_CANONICALIZED>
1
> <PUBCHEM_CACTVS_COMPLEXITY>
181
> <PUBCHEM_CACTVS_HBOND_ACCEPTOR>
1
> <PUBCHEM_CACTVS_HBOND_DONOR>
0
> <PUBCHEM_CACTVS_ROTATABLE_BOND>
0
> <PUBCHEM_CACTVS_SUBSKEYS>
AAADccBwIAAAAAAAAAAAAAAAAAAAAAAAAAAwQAAAAAAQAAAAAAAAGgAAAAAADQSAgAAAAAAAAACIAKBSAAAAAAAgAAAICAEAAEgAABIAAQAAAAAAgAAIAYMIiMCOAAAAAAAAAAAAAAQAAAAAAAAAAAAAAA==
> <PUBCHEM_IUPAC_OPENEYE_NAME>
bicyclo[3.3.1]non-3-en-2-one
> <PUBCHEM_IUPAC_CAS_NAME>
2-bicyclo[3.3.1]non-3-enone
> <PUBCHEM_IUPAC_NAME_MARKUP>
bicyclo[3.3.1]non-3-en-2-one
> <PUBCHEM_IUPAC_NAME>
bicyclo[3.3.1]non-3-en-2-one
> <PUBCHEM_IUPAC_SYSTEMATIC_NAME>
bicyclo[3.3.1]non-3-en-2-one
> <PUBCHEM_IUPAC_TRADITIONAL_NAME>
bicyclo[3.3.1]non-3-en-2-one
> <PUBCHEM_IUPAC_INCHI>
InChI=1S/C9H12O/c10-9-5-4-7-2-1-3-8(9)6-7/h4-5,7-8H,1-3,6H2
> <PUBCHEM_IUPAC_INCHIKEY>
TUQWWBMBVKVORD-UHFFFAOYSA-N
> <PUBCHEM_XLOGP3_AA>
1.9
> <PUBCHEM_EXACT_MASS>
136.088815002
> <PUBCHEM_MOLECULAR_FORMULA>
C9H12O
> <PUBCHEM_MOLECULAR_WEIGHT>
136.19
> <PUBCHEM_OPENEYE_CAN_SMILES>
C1CC2CC(C1)C(=O)C=C2
> <PUBCHEM_OPENEYE_ISO_SMILES>
C1CC2CC(C1)C(=O)C=C2
> <PUBCHEM_CACTVS_TPSA>
17.1
> <PUBCHEM_MONOISOTOPIC_WEIGHT>
136.088815002
> <PUBCHEM_TOTAL_CHARGE>
0
> <PUBCHEM_HEAVY_ATOM_COUNT>
10
> <PUBCHEM_ATOM_DEF_STEREO_COUNT>
0
> <PUBCHEM_ATOM_UDEF_STEREO_COUNT>
2
> <PUBCHEM_BOND_DEF_STEREO_COUNT>
0
> <PUBCHEM_BOND_UDEF_STEREO_COUNT>
0
> <PUBCHEM_ISOTOPIC_ATOM_COUNT>
0
> <PUBCHEM_COMPONENT_COUNT>
1
> <PUBCHEM_CACTVS_TAUTO_COUNT>
-1
> <PUBCHEM_COORDINATE_TYPE>
1
5
255
> <PUBCHEM_BONDANNOTATIONS>
2  5  3
3  6  3
$$$$
