517815
  -OEChem-10302200292D
 68 72  0     1  0  0  0  0  0999 V2000
    5.3693    1.8416    0.0000 O   0  0  0  0  0  0  0  0  0  0  0  0
    6.3450    0.4106    0.0000 O   0  0  0  0  0  0  0  0  0  0  0  0
    7.0965    1.9711    0.0000 N   0  0  0  0  0  0  0  0  0  0  0  0
   10.7003    0.2356    0.0000 N   0  0  0  0  0  0  0  0  0  0  0  0
   11.5266    0.7989    0.0000 N   0  0  0  0  0  0  0  0  0  0  0  0
    4.0430   -0.9123    0.0000 C   0  0  3  0  0  0  0  0  0  0  0  0
    3.1420   -0.4784    0.0000 C   0  0  3  0  0  0  0  0  0  0  0  0
    2.9195    0.4965    0.0000 C   0  0  0  0  0  0  0  0  0  0  0  0
    3.5430    1.2783    0.0000 C   0  0  3  0  0  0  0  0  0  0  0  0
    4.1499    0.2645    0.0000 C   0  0  0  0  0  0  0  0  0  0  0  0
    3.9070   -1.8970    0.0000 C   0  0  3  0  0  0  0  0  0  0  0  0
    4.9440   -0.4784    0.0000 C   0  0  0  0  0  0  0  0  0  0  0  0
    4.5430    1.2783    0.0000 C   0  0  3  0  0  0  0  0  0  0  0  0
    2.4569   -1.1987    0.0000 C   0  0  0  0  0  0  0  0  0  0  0  0
    2.9288   -2.0737    0.0000 C   0  0  0  0  0  0  0  0  0  0  0  0
    5.1665    0.4965    0.0000 C   0  0  0  0  0  0  0  0  0  0  0  0
    2.2616    1.2496    0.0000 C   0  0  0  0  0  0  0  0  0  0  0  0
    2.0000    0.1035    0.0000 C   0  0  0  0  0  0  0  0  0  0  0  0
    4.6286   -2.5894    0.0000 C   0  0  0  0  0  0  0  0  0  0  0  0
    4.4683    2.2755    0.0000 C   0  0  0  0  0  0  0  0  0  0  0  0
    6.2702    1.4078    0.0000 C   0  0  0  0  0  0  0  0  0  0  0  0
    7.9974    1.5372    0.0000 C   0  0  0  0  0  0  0  0  0  0  0  0
    8.0722    0.5400    0.0000 C   0  0  0  0  0  0  0  0  0  0  0  0
    8.8237    2.1005    0.0000 C   0  0  0  0  0  0  0  0  0  0  0  0
    8.9731    0.1061    0.0000 C   0  0  0  0  0  0  0  0  0  0  0  0
    9.7246    1.6666    0.0000 C   0  0  0  0  0  0  0  0  0  0  0  0
    9.7994    0.6694    0.0000 C   0  0  0  0  0  0  0  0  0  0  0  0
   12.4275    0.3650    0.0000 C   0  0  0  0  0  0  0  0  0  0  0  0
   13.2538    0.9283    0.0000 C   0  0  0  0  0  0  0  0  0  0  0  0
   12.5023   -0.6322    0.0000 C   0  0  0  0  0  0  0  0  0  0  0  0
   14.1548    0.4944    0.0000 C   0  0  0  0  0  0  0  0  0  0  0  0
   13.4032   -1.0661    0.0000 C   0  0  0  0  0  0  0  0  0  0  0  0
   14.2295   -0.5028    0.0000 C   0  0  0  0  0  0  0  0  0  0  0  0
    2.5442   -0.3143    0.0000 H   0  0  0  0  0  0  0  0  0  0  0  0
    3.2740    1.8369    0.0000 H   0  0  0  0  0  0  0  0  0  0  0  0
    4.7199    0.0206    0.0000 H   0  0  0  0  0  0  0  0  0  0  0  0
    4.5577    0.7315    0.0000 H   0  0  0  0  0  0  0  0  0  0  0  0
    3.7279   -2.4906    0.0000 H   0  0  0  0  0  0  0  0  0  0  0  0
    5.0820   -1.0829    0.0000 H   0  0  0  0  0  0  0  0  0  0  0  0
    5.5640   -0.4784    0.0000 H   0  0  0  0  0  0  0  0  0  0  0  0
    2.0551   -0.7266    0.0000 H   0  0  0  0  0  0  0  0  0  0  0  0
    1.9452   -1.5487    0.0000 H   0  0  0  0  0  0  0  0  0  0  0  0
    2.3551   -2.3090    0.0000 H   0  0  0  0  0  0  0  0  0  0  0  0
    3.1025   -2.6689    0.0000 H   0  0  0  0  0  0  0  0  0  0  0  0
    5.7251    0.2275    0.0000 H   0  0  0  0  0  0  0  0  0  0  0  0
    5.5531    0.9812    0.0000 H   0  0  0  0  0  0  0  0  0  0  0  0
    2.7285    1.6575    0.0000 H   0  0  0  0  0  0  0  0  0  0  0  0
    1.8537    1.7165    0.0000 H   0  0  0  0  0  0  0  0  0  0  0  0
    1.7947    0.8417    0.0000 H   0  0  0  0  0  0  0  0  0  0  0  0
    1.7563    0.6736    0.0000 H   0  0  0  0  0  0  0  0  0  0  0  0
    1.4299   -0.1402    0.0000 H   0  0  0  0  0  0  0  0  0  0  0  0
    2.2437   -0.4666    0.0000 H   0  0  0  0  0  0  0  0  0  0  0  0
    4.1994   -3.0368    0.0000 H   0  0  0  0  0  0  0  0  0  0  0  0
    5.0760   -3.0186    0.0000 H   0  0  0  0  0  0  0  0  0  0  0  0
    5.0578   -2.1420    0.0000 H   0  0  0  0  0  0  0  0  0  0  0  0
    5.0866    2.3219    0.0000 H   0  0  0  0  0  0  0  0  0  0  0  0
    4.4220    2.8938    0.0000 H   0  0  0  0  0  0  0  0  0  0  0  0
    3.8500    2.2292    0.0000 H   0  0  0  0  0  0  0  0  0  0  0  0
    7.0501    2.5894    0.0000 H   0  0  0  0  0  0  0  0  0  0  0  0
    7.5599    0.1907    0.0000 H   0  0  0  0  0  0  0  0  0  0  0  0
    8.7773    2.7188    0.0000 H   0  0  0  0  0  0  0  0  0  0  0  0
    9.0195   -0.5121    0.0000 H   0  0  0  0  0  0  0  0  0  0  0  0
   10.2369    2.0159    0.0000 H   0  0  0  0  0  0  0  0  0  0  0  0
   13.2075    1.5466    0.0000 H   0  0  0  0  0  0  0  0  0  0  0  0
   11.9900   -0.9815    0.0000 H   0  0  0  0  0  0  0  0  0  0  0  0
   14.6670    0.8437    0.0000 H   0  0  0  0  0  0  0  0  0  0  0  0
   13.4496   -1.6844    0.0000 H   0  0  0  0  0  0  0  0  0  0  0  0
   14.7881   -0.7718    0.0000 H   0  0  0  0  0  0  0  0  0  0  0  0
  1 13  1  0  0  0  0
  1 21  1  0  0  0  0
  2 21  2  0  0  0  0
  3 21  1  0  0  0  0
  3 22  1  0  0  0  0
  3 59  1  0  0  0  0
  4  5  2  0  0  0  0
  4 27  1  0  0  0  0
  5 28  1  0  0  0  0
  6  7  1  0  0  0  0
  6 10  1  0  0  0  0
  6 11  1  0  0  0  0
  6 12  1  0  0  0  0
  7  8  1  0  0  0  0
  7 14  1  0  0  0  0
  7 34  1  0  0  0  0
  8  9  1  0  0  0  0
  8 17  1  0  0  0  0
  8 18  1  0  0  0  0
  9 10  1  0  0  0  0
  9 13  1  0  0  0  0
  9 35  1  0  0  0  0
 10 36  1  0  0  0  0
 10 37  1  0  0  0  0
 11 15  1  0  0  0  0
 11 19  1  0  0  0  0
 11 38  1  0  0  0  0
 12 16  1  0  0  0  0
 12 39  1  0  0  0  0
 12 40  1  0  0  0  0
 13 16  1  0  0  0  0
 13 20  1  0  0  0  0
 14 15  1  0  0  0  0
 14 41  1  0  0  0  0
 14 42  1  0  0  0  0
 15 43  1  0  0  0  0
 15 44  1  0  0  0  0
 16 45  1  0  0  0  0
 16 46  1  0  0  0  0
 17 47  1  0  0  0  0
 17 48  1  0  0  0  0
 17 49  1  0  0  0  0
 18 50  1  0  0  0  0
 18 51  1  0  0  0  0
 18 52  1  0  0  0  0
 19 53  1  0  0  0  0
 19 54  1  0  0  0  0
 19 55  1  0  0  0  0
 20 56  1  0  0  0  0
 20 57  1  0  0  0  0
 20 58  1  0  0  0  0
 22 23  2  0  0  0  0
 22 24  1  0  0  0  0
 23 25  1  0  0  0  0
 23 60  1  0  0  0  0
 24 26  2  0  0  0  0
 24 61  1  0  0  0  0
 25 27  2  0  0  0  0
 25 62  1  0  0  0  0
 26 27  1  0  0  0  0
 26 63  1  0  0  0  0
 28 29  2  0  0  0  0
 28 30  1  0  0  0  0
 29 31  1  0  0  0  0
 29 64  1  0  0  0  0
 30 32  2  0  0  0  0
 30 65  1  0  0  0  0
 31 33  2  0  0  0  0
 31 66  1  0  0  0  0
 32 33  1  0  0  0  0
 32 67  1  0  0  0  0
 33 68  1  0  0  0  0
M  END
> <PUBCHEM_COMPOUND_CID>
517815
> <PUBCHEM_COMPOUND_CANONICALIZED>
1
> <PUBCHEM_CACTVS_COMPLEXITY>
752
> <PUBCHEM_CACTVS_HBOND_ACCEPTOR>
4
> <PUBCHEM_CACTVS_HBOND_DONOR>
1
> <PUBCHEM_CACTVS_ROTATABLE_BOND>
5
> <PUBCHEM_CACTVS_SUBSKEYS>
AAADcfB7MAAAAAAAAAAAAAAAAAAAAYMAAAAwYMAABgAYAADBQAAAHgAYAAAAD0yBkAAyyILABACKACRCWACCAAAhAgAIiAAAZIkIICLAkZGMIAhklABIyAeQwPAPgACAAAAAAADAAQQAADAAAQAACAAAAA==
> <PUBCHEM_IUPAC_OPENEYE_NAME>
(2,6,6,8-tetramethyl-8-tricyclo[5.3.1.01,5]undecanyl) N-(4-phenylazophenyl)carbamate
> <PUBCHEM_IUPAC_CAS_NAME>
N-(4-phenyldiazenylphenyl)carbamic acid (2,6,6,8-tetramethyl-8-tricyclo[5.3.1.01,5]undecanyl) ester
> <PUBCHEM_IUPAC_NAME_MARKUP>
(2,6,6,8-tetramethyl-8-tricyclo[5.3.1.0<SUP>1,5</SUP>]undecanyl) <I>N</I>-(4-phenyldiazenylphenyl)carbamate
> <PUBCHEM_IUPAC_NAME>
(2,6,6,8-tetramethyl-8-tricyclo[5.3.1.01,5]undecanyl) N-(4-phenyldiazenylphenyl)carbamate
> <PUBCHEM_IUPAC_SYSTEMATIC_NAME>
(2,6,6,8-tetramethyl-8-tricyclo[5.3.1.01,5]undecanyl) N-(4-phenyldiazenylphenyl)carbamate
> <PUBCHEM_IUPAC_TRADITIONAL_NAME>
N-(4-phenylazophenyl)carbamic acid (2,6,6,8-tetramethyl-8-tricyclo[5.3.1.01,5]undecanyl) ester
> <PUBCHEM_IUPAC_INCHI>
InChI=1S/C28H35N3O2/c1-19-10-15-23-26(2,3)24-18-28(19,23)17-16-27(24,4)33-25(32)29-20-11-13-22(14-12-20)31-30-21-8-6-5-7-9-21/h5-9,11-14,19,23-24H,10,15-18H2,1-4H3,(H,29,32)
> <PUBCHEM_IUPAC_INCHIKEY>
KVAHSFBEHKORJU-UHFFFAOYSA-N
> <PUBCHEM_XLOGP3_AA>
7.6
> <PUBCHEM_EXACT_MASS>
445.27292737
> <PUBCHEM_MOLECULAR_FORMULA>
C28H35N3O2
> <PUBCHEM_MOLECULAR_WEIGHT>
445.6
> <PUBCHEM_OPENEYE_CAN_SMILES>
CC1CCC2C13CCC(C(C3)C2(C)C)(C)OC(=O)NC4=CC=C(C=C4)N=NC5=CC=CC=C5
> <PUBCHEM_OPENEYE_ISO_SMILES>
CC1CCC2C13CCC(C(C3)C2(C)C)(C)OC(=O)NC4=CC=C(C=C4)N=NC5=CC=CC=C5
> <PUBCHEM_CACTVS_TPSA>
63
> <PUBCHEM_MONOISOTOPIC_WEIGHT>
445.27292737
> <PUBCHEM_TOTAL_CHARGE>
0
> <PUBCHEM_HEAVY_ATOM_COUNT>
33
> <PUBCHEM_ATOM_DEF_STEREO_COUNT>
0
> <PUBCHEM_ATOM_UDEF_STEREO_COUNT>
5
> <PUBCHEM_BOND_DEF_STEREO_COUNT>
0
> <PUBCHEM_BOND_UDEF_STEREO_COUNT>
0
> <PUBCHEM_ISOTOPIC_ATOM_COUNT>
0
> <PUBCHEM_COMPONENT_COUNT>
1
> <PUBCHEM_CACTVS_TAUTO_COUNT>
-1
> <PUBCHEM_COORDINATE_TYPE>
1
5
255
> <PUBCHEM_BONDANNOTATIONS>
11  19  3
13  20  3
22  23  8
22  24  8
23  25  8
24  26  8
25  27  8
26  27  8
28  29  8
28  30  8
29  31  8
30  32  8
31  33  8
32  33  8
6  12  3
7  14  3
9  10  3
$$$$
