517890
  -OEChem-10302200292D
 29 31  0     1  0  0  0  0  0999 V2000
    5.2619   -0.7071    0.0000 O   0  0  0  0  0  0  0  0  0  0  0  0
    4.9889   -2.4623    0.0000 O   0  0  0  0  0  0  0  0  0  0  0  0
    8.9030    1.8730    0.0000 O   0  0  0  0  0  0  0  0  0  0  0  0
    4.9889    1.0482    0.0000 N   0  0  0  0  0  0  0  0  0  0  0  0
    4.6783    0.0976    0.0000 C   0  0  3  0  0  0  0  0  0  0  0  0
    3.7320   -0.2071    0.0000 C   0  0  0  0  0  0  0  0  0  0  0  0
    3.7320   -1.2071    0.0000 C   0  0  0  0  0  0  0  0  0  0  0  0
    4.6783   -1.5118    0.0000 C   0  0  0  0  0  0  0  0  0  0  0  0
    2.8660    0.2929    0.0000 C   0  0  0  0  0  0  0  0  0  0  0  0
    5.9674    1.2544    0.0000 C   0  0  0  0  0  0  0  0  0  0  0  0
    2.8660   -1.7071    0.0000 C   0  0  0  0  0  0  0  0  0  0  0  0
    2.0000   -0.2071    0.0000 C   0  0  0  0  0  0  0  0  0  0  0  0
    2.0000   -1.2071    0.0000 C   0  0  0  0  0  0  0  0  0  0  0  0
    6.2781    2.2049    0.0000 C   0  0  0  0  0  0  0  0  0  0  0  0
    6.6353    0.5101    0.0000 C   0  0  0  0  0  0  0  0  0  0  0  0
    7.2566    2.4111    0.0000 C   0  0  0  0  0  0  0  0  0  0  0  0
    7.6138    0.7163    0.0000 C   0  0  0  0  0  0  0  0  0  0  0  0
    7.9244    1.6668    0.0000 C   0  0  0  0  0  0  0  0  0  0  0  0
    4.2408    0.5370    0.0000 H   0  0  0  0  0  0  0  0  0  0  0  0
    4.5749    1.5096    0.0000 H   0  0  0  0  0  0  0  0  0  0  0  0
    2.8660    0.9129    0.0000 H   0  0  0  0  0  0  0  0  0  0  0  0
    2.8660   -2.3271    0.0000 H   0  0  0  0  0  0  0  0  0  0  0  0
    1.4631    0.1029    0.0000 H   0  0  0  0  0  0  0  0  0  0  0  0
    1.4631   -1.5171    0.0000 H   0  0  0  0  0  0  0  0  0  0  0  0
    5.8640    2.6664    0.0000 H   0  0  0  0  0  0  0  0  0  0  0  0
    6.4427   -0.0793    0.0000 H   0  0  0  0  0  0  0  0  0  0  0  0
    7.4492    3.0004    0.0000 H   0  0  0  0  0  0  0  0  0  0  0  0
    8.0279    0.2548    0.0000 H   0  0  0  0  0  0  0  0  0  0  0  0
    9.0956    2.4623    0.0000 H   0  0  0  0  0  0  0  0  0  0  0  0
  1  5  1  0  0  0  0
  1  8  1  0  0  0  0
  2  8  2  0  0  0  0
  3 18  1  0  0  0  0
  3 29  1  0  0  0  0
  4  5  1  0  0  0  0
  4 10  1  0  0  0  0
  4 20  1  0  0  0  0
  5  6  1  0  0  0  0
  5 19  1  0  0  0  0
  6  7  1  0  0  0  0
  6  9  2  0  0  0  0
  7  8  1  0  0  0  0
  7 11  2  0  0  0  0
  9 12  1  0  0  0  0
  9 21  1  0  0  0  0
 10 14  2  0  0  0  0
 10 15  1  0  0  0  0
 11 13  1  0  0  0  0
 11 22  1  0  0  0  0
 12 13  2  0  0  0  0
 12 23  1  0  0  0  0
 13 24  1  0  0  0  0
 14 16  1  0  0  0  0
 14 25  1  0  0  0  0
 15 17  2  0  0  0  0
 15 26  1  0  0  0  0
 16 18  2  0  0  0  0
 16 27  1  0  0  0  0
 17 18  1  0  0  0  0
 17 28  1  0  0  0  0
M  END
> <PUBCHEM_COMPOUND_CID>
517890
> <PUBCHEM_COMPOUND_CANONICALIZED>
1
> <PUBCHEM_CACTVS_COMPLEXITY>
312
> <PUBCHEM_CACTVS_HBOND_ACCEPTOR>
4
> <PUBCHEM_CACTVS_HBOND_DONOR>
2
> <PUBCHEM_CACTVS_ROTATABLE_BOND>
2
> <PUBCHEM_CACTVS_SUBSKEYS>
AAADccByMAAAAAAAAAAAAAAAAAAAASAAAAAwYAAAAAAAAEgBQAAAHgAQCAAADAzhmAYwzoLABgCIAiTSSACCAAAlIgAIiIEObMkIJjLCtZuOcQhk0BHI+Ye+yKCOgEAAAAAQAAAAgAAAACAAAAAAAAAAAA==
> <PUBCHEM_IUPAC_OPENEYE_NAME>
3-(4-hydroxyanilino)-3H-isobenzofuran-1-one
> <PUBCHEM_IUPAC_CAS_NAME>
3-(4-hydroxyanilino)-3H-isobenzofuran-1-one
> <PUBCHEM_IUPAC_NAME_MARKUP>
3-(4-hydroxyanilino)-3<I>H</I>-2-benzofuran-1-one
> <PUBCHEM_IUPAC_NAME>
3-(4-hydroxyanilino)-3H-2-benzofuran-1-one
> <PUBCHEM_IUPAC_SYSTEMATIC_NAME>
3-[(4-hydroxyphenyl)amino]-3H-2-benzofuran-1-one
> <PUBCHEM_IUPAC_TRADITIONAL_NAME>
3-(4-hydroxyanilino)phthalide
> <PUBCHEM_IUPAC_INCHI>
InChI=1S/C14H11NO3/c16-10-7-5-9(6-8-10)15-13-11-3-1-2-4-12(11)14(17)18-13/h1-8,13,15-16H
> <PUBCHEM_IUPAC_INCHIKEY>
WLBLNJAQWNYRGB-UHFFFAOYSA-N
> <PUBCHEM_XLOGP3>
2.5
> <PUBCHEM_EXACT_MASS>
241.07389321
> <PUBCHEM_MOLECULAR_FORMULA>
C14H11NO3
> <PUBCHEM_MOLECULAR_WEIGHT>
241.24
> <PUBCHEM_OPENEYE_CAN_SMILES>
C1=CC=C2C(=C1)C(OC2=O)NC3=CC=C(C=C3)O
> <PUBCHEM_OPENEYE_ISO_SMILES>
C1=CC=C2C(=C1)C(OC2=O)NC3=CC=C(C=C3)O
> <PUBCHEM_CACTVS_TPSA>
58.6
> <PUBCHEM_MONOISOTOPIC_WEIGHT>
241.07389321
> <PUBCHEM_TOTAL_CHARGE>
0
> <PUBCHEM_HEAVY_ATOM_COUNT>
18
> <PUBCHEM_ATOM_DEF_STEREO_COUNT>
0
> <PUBCHEM_ATOM_UDEF_STEREO_COUNT>
1
> <PUBCHEM_BOND_DEF_STEREO_COUNT>
0
> <PUBCHEM_BOND_UDEF_STEREO_COUNT>
0
> <PUBCHEM_ISOTOPIC_ATOM_COUNT>
0
> <PUBCHEM_COMPONENT_COUNT>
1
> <PUBCHEM_CACTVS_TAUTO_COUNT>
-1
> <PUBCHEM_COORDINATE_TYPE>
1
5
255
> <PUBCHEM_BONDANNOTATIONS>
10  14  8
10  15  8
11  13  8
12  13  8
14  16  8
15  17  8
16  18  8
17  18  8
5  4  3
6  7  8
6  9  8
7  11  8
9  12  8
$$$$
