517848
  -OEChem-10302200292D
 55 58  0     1  0  0  0  0  0999 V2000
    2.5357   -2.7732    0.0000 O   0  0  0  0  0  0  0  0  0  0  0  0
   10.4749    2.6912    0.0000 O   0  0  0  0  0  0  0  0  0  0  0  0
   10.1642    1.7406    0.0000 N   0  0  0  0  0  0  0  0  0  0  0  0
    6.1968   -0.7208    0.0000 C   0  0  3  0  0  0  0  0  0  0  0  0
    7.0628   -1.2208    0.0000 C   0  0  3  0  0  0  0  0  0  0  0  0
    7.9288   -0.7208    0.0000 C   0  0  3  0  0  0  0  0  0  0  0  0
    7.9288    0.2792    0.0000 C   0  0  3  0  0  0  0  0  0  0  0  0
    5.2868   -1.2277    0.0000 C   0  0  3  0  0  0  0  0  0  0  0  0
    6.1968    0.2792    0.0000 C   0  0  0  0  0  0  0  0  0  0  0  0
    7.0628    0.7792    0.0000 C   0  0  0  0  0  0  0  0  0  0  0  0
    7.0789   -2.2624    0.0000 C   0  0  0  0  0  0  0  0  0  0  0  0
    8.8750   -1.0256    0.0000 C   0  0  0  0  0  0  0  0  0  0  0  0
    5.2787   -2.2693    0.0000 C   0  0  0  0  0  0  0  0  0  0  0  0
    4.3599   -0.6636    0.0000 C   0  0  0  0  0  0  0  0  0  0  0  0
    8.8750    0.5839    0.0000 C   0  0  0  0  0  0  0  0  0  0  0  0
    6.1808   -2.7901    0.0000 C   0  0  0  0  0  0  0  0  0  0  0  0
    7.9288    1.2792    0.0000 C   0  0  0  0  0  0  0  0  0  0  0  0
    5.2945   -0.2277    0.0000 C   0  0  0  0  0  0  0  0  0  0  0  0
    9.4586   -0.2208    0.0000 C   0  0  0  0  0  0  0  0  0  0  0  0
    4.3433   -2.8190    0.0000 C   0  0  0  0  0  0  0  0  0  0  0  0
    3.4120   -1.1916    0.0000 C   0  0  0  0  0  0  0  0  0  0  0  0
    3.4037   -2.2765    0.0000 C   0  0  3  0  0  0  0  0  0  0  0  0
    9.1857    1.5344    0.0000 C   0  0  0  0  0  0  0  0  0  0  0  0
    8.5179    2.2787    0.0000 C   0  0  0  0  0  0  0  0  0  0  0  0
    6.7337   -0.4108    0.0000 H   0  0  0  0  0  0  0  0  0  0  0  0
    7.6021   -1.5267    0.0000 H   0  0  0  0  0  0  0  0  0  0  0  0
    7.9944   -1.3374    0.0000 H   0  0  0  0  0  0  0  0  0  0  0  0
    5.9847    0.8618    0.0000 H   0  0  0  0  0  0  0  0  0  0  0  0
    5.5862    0.1715    0.0000 H   0  0  0  0  0  0  0  0  0  0  0  0
    7.4613    1.2541    0.0000 H   0  0  0  0  0  0  0  0  0  0  0  0
    6.6643    1.2541    0.0000 H   0  0  0  0  0  0  0  0  0  0  0  0
    7.2969   -2.8427    0.0000 H   0  0  0  0  0  0  0  0  0  0  0  0
    7.6880   -2.1468    0.0000 H   0  0  0  0  0  0  0  0  0  0  0  0
    8.6240   -1.5925    0.0000 H   0  0  0  0  0  0  0  0  0  0  0  0
    9.4124   -1.3348    0.0000 H   0  0  0  0  0  0  0  0  0  0  0  0
    4.7681   -0.1969    0.0000 H   0  0  0  0  0  0  0  0  0  0  0  0
    3.9700   -0.1816    0.0000 H   0  0  0  0  0  0  0  0  0  0  0  0
    6.1832   -3.4101    0.0000 H   0  0  0  0  0  0  0  0  0  0  0  0
    8.5488    1.2792    0.0000 H   0  0  0  0  0  0  0  0  0  0  0  0
    7.9288    1.8992    0.0000 H   0  0  0  0  0  0  0  0  0  0  0  0
    7.3088    1.2792    0.0000 H   0  0  0  0  0  0  0  0  0  0  0  0
    5.9145   -0.2325    0.0000 H   0  0  0  0  0  0  0  0  0  0  0  0
    5.2993    0.3923    0.0000 H   0  0  0  0  0  0  0  0  0  0  0  0
    4.6745   -0.2229    0.0000 H   0  0  0  0  0  0  0  0  0  0  0  0
   10.0786   -0.2208    0.0000 H   0  0  0  0  0  0  0  0  0  0  0  0
    3.9460   -3.2950    0.0000 H   0  0  0  0  0  0  0  0  0  0  0  0
    4.7443   -3.2919    0.0000 H   0  0  0  0  0  0  0  0  0  0  0  0
    3.2075   -0.6063    0.0000 H   0  0  0  0  0  0  0  0  0  0  0  0
    2.8004   -1.2929    0.0000 H   0  0  0  0  0  0  0  0  0  0  0  0
    2.8686   -1.9634    0.0000 H   0  0  0  0  0  0  0  0  0  0  0  0
    2.0000   -2.4611    0.0000 H   0  0  0  0  0  0  0  0  0  0  0  0
    8.9793    2.6928    0.0000 H   0  0  0  0  0  0  0  0  0  0  0  0
    8.1038    2.7402    0.0000 H   0  0  0  0  0  0  0  0  0  0  0  0
    8.0564    1.8646    0.0000 H   0  0  0  0  0  0  0  0  0  0  0  0
   11.0815    2.8190    0.0000 H   0  0  0  0  0  0  0  0  0  0  0  0
  1 22  1  0  0  0  0
  1 51  1  0  0  0  0
  2  3  1  0  0  0  0
  2 55  1  0  0  0  0
  3 23  2  3  0  0  0
  4  5  1  0  0  0  0
  4  8  1  0  0  0  0
  4  9  1  0  0  0  0
  4 25  1  0  0  0  0
  5  6  1  0  0  0  0
  5 11  1  0  0  0  0
  5 26  1  0  0  0  0
  6  7  1  0  0  0  0
  6 12  1  0  0  0  0
  6 27  1  0  0  0  0
  7 10  1  0  0  0  0
  7 15  1  0  0  0  0
  7 17  1  0  0  0  0
  8 13  1  0  0  0  0
  8 14  1  0  0  0  0
  8 18  1  0  0  0  0
  9 10  1  0  0  0  0
  9 28  1  0  0  0  0
  9 29  1  0  0  0  0
 10 30  1  0  0  0  0
 10 31  1  0  0  0  0
 11 16  1  0  0  0  0
 11 32  1  0  0  0  0
 11 33  1  0  0  0  0
 12 19  1  0  0  0  0
 12 34  1  0  0  0  0
 12 35  1  0  0  0  0
 13 16  2  0  0  0  0
 13 20  1  0  0  0  0
 14 21  1  0  0  0  0
 14 36  1  0  0  0  0
 14 37  1  0  0  0  0
 15 19  2  0  0  0  0
 15 23  1  0  0  0  0
 16 38  1  0  0  0  0
 17 39  1  0  0  0  0
 17 40  1  0  0  0  0
 17 41  1  0  0  0  0
 18 42  1  0  0  0  0
 18 43  1  0  0  0  0
 18 44  1  0  0  0  0
 19 45  1  0  0  0  0
 20 22  1  0  0  0  0
 20 46  1  0  0  0  0
 20 47  1  0  0  0  0
 21 22  1  0  0  0  0
 21 48  1  0  0  0  0
 21 49  1  0  0  0  0
 22 50  1  0  0  0  0
 23 24  1  0  0  0  0
 24 52  1  0  0  0  0
 24 53  1  0  0  0  0
 24 54  1  0  0  0  0
M  END
> <PUBCHEM_COMPOUND_CID>
517848
> <PUBCHEM_COMPOUND_CANONICALIZED>
1
> <PUBCHEM_CACTVS_COMPLEXITY>
634
> <PUBCHEM_CACTVS_HBOND_ACCEPTOR>
3
> <PUBCHEM_CACTVS_HBOND_DONOR>
2
> <PUBCHEM_CACTVS_ROTATABLE_BOND>
1
> <PUBCHEM_CACTVS_SUBSKEYS>
AAADceB6MAAAAAAAAAAAAAAAAAAAAQAAAAAwYIAAAAAAAECAAAAAHgAECAAADxyhgAICAAAQAgCgAyBiAAAAAAAgAAAACAAwABgAEAIAAQAAQAAEwAAIAAOAwPAPgAAAAAAAAADAAAQAACAAAAAAAAAAAA==
> <PUBCHEM_IUPAC_OPENEYE_NAME>
1-(3-hydroxy-10,13-dimethyl-2,3,4,7,8,9,11,12,14,15-decahydro-1H-cyclopenta[a]phenanthren-17-yl)ethanone oxime
> <PUBCHEM_IUPAC_CAS_NAME>
1-(3-hydroxy-10,13-dimethyl-2,3,4,7,8,9,11,12,14,15-decahydro-1H-cyclopenta[a]phenanthren-17-yl)ethanone oxime
> <PUBCHEM_IUPAC_NAME_MARKUP>
17-(<I>N</I>-hydroxy-<I>C</I>-methylcarbonimidoyl)-10,13-dimethyl-2,3,4,7,8,9,11,12,14,15-decahydro-1<I>H</I>-cyclopenta[a]phenanthren-3-ol
> <PUBCHEM_IUPAC_NAME>
17-(N-hydroxy-C-methylcarbonimidoyl)-10,13-dimethyl-2,3,4,7,8,9,11,12,14,15-decahydro-1H-cyclopenta[a]phenanthren-3-ol
> <PUBCHEM_IUPAC_SYSTEMATIC_NAME>
10,13-dimethyl-17-(C-methyl-N-oxidanyl-carbonimidoyl)-2,3,4,7,8,9,11,12,14,15-decahydro-1H-cyclopenta[a]phenanthren-3-ol
> <PUBCHEM_IUPAC_TRADITIONAL_NAME>
1-(3-hydroxy-10,13-dimethyl-2,3,4,7,8,9,11,12,14,15-decahydro-1H-cyclopenta[a]phenanthren-17-yl)ethanone oxime
> <PUBCHEM_IUPAC_INCHI>
InChI=1S/C21H31NO2/c1-13(22-24)17-6-7-18-16-5-4-14-12-15(23)8-10-20(14,2)19(16)9-11-21(17,18)3/h4,6,15-16,18-19,23-24H,5,7-12H2,1-3H3
> <PUBCHEM_IUPAC_INCHIKEY>
PUAYLIXQYVQBPE-UHFFFAOYSA-N
> <PUBCHEM_XLOGP3_AA>
4.2
> <PUBCHEM_EXACT_MASS>
329.235479232
> <PUBCHEM_MOLECULAR_FORMULA>
C21H31NO2
> <PUBCHEM_MOLECULAR_WEIGHT>
329.5
> <PUBCHEM_OPENEYE_CAN_SMILES>
CC(=NO)C1=CCC2C1(CCC3C2CC=C4C3(CCC(C4)O)C)C
> <PUBCHEM_OPENEYE_ISO_SMILES>
CC(=NO)C1=CCC2C1(CCC3C2CC=C4C3(CCC(C4)O)C)C
> <PUBCHEM_CACTVS_TPSA>
52.8
> <PUBCHEM_MONOISOTOPIC_WEIGHT>
329.235479232
> <PUBCHEM_TOTAL_CHARGE>
0
> <PUBCHEM_HEAVY_ATOM_COUNT>
24
> <PUBCHEM_ATOM_DEF_STEREO_COUNT>
0
> <PUBCHEM_ATOM_UDEF_STEREO_COUNT>
6
> <PUBCHEM_BOND_DEF_STEREO_COUNT>
0
> <PUBCHEM_BOND_UDEF_STEREO_COUNT>
1
> <PUBCHEM_ISOTOPIC_ATOM_COUNT>
0
> <PUBCHEM_COMPONENT_COUNT>
1
> <PUBCHEM_CACTVS_TAUTO_COUNT>
-1
> <PUBCHEM_COORDINATE_TYPE>
1
5
255
> <PUBCHEM_BONDANNOTATIONS>
22  1  3
3  23  1
4  9  3
5  11  3
6  12  3
7  17  3
8  18  3
$$$$
