517889
  -OEChem-10302200292D
 73 74  0     1  0  0  0  0  0999 V2000
    8.2997    1.1612    0.0000 O   0  0  0  0  0  0  0  0  0  0  0  0
    6.3301   -0.4915    0.0000 O   0  0  0  0  0  0  0  0  0  0  0  0
    5.6461    3.3879    0.0000 O   0  0  0  0  0  0  0  0  0  0  0  0
    3.7320    1.0085    0.0000 O   0  0  0  0  0  0  0  0  0  0  0  0
   11.2542    0.6403    0.0000 O   0  0  0  0  0  0  0  0  0  0  0  0
    2.8660   -3.4915    0.0000 O   0  0  0  0  0  0  0  0  0  0  0  0
   11.8557    4.0518    0.0000 O   0  0  0  0  0  0  0  0  0  0  0  0
    6.3301   -3.4915    0.0000 O   0  0  0  0  0  0  0  0  0  0  0  0
   12.5397    2.1724    0.0000 O   0  0  0  0  0  0  0  0  0  0  0  0
    4.5981   -4.4915    0.0000 O   0  0  0  0  0  0  0  0  0  0  0  0
    8.6005    2.8670    0.0000 N   0  0  0  0  0  0  0  0  0  0  0  0
    4.5981   -0.4915    0.0000 N   0  0  0  0  0  0  0  0  0  0  0  0
    6.3301    1.5085    0.0000 C   0  0  0  0  0  0  0  0  0  0  0  0
    6.9729    2.2746    0.0000 C   0  0  3  0  0  0  0  0  0  0  0  0
    5.4641    1.0085    0.0000 C   0  0  3  0  0  0  0  0  0  0  0  0
    7.9577    2.1009    0.0000 C   0  0  0  0  0  0  0  0  0  0  0  0
    5.4641    0.0085    0.0000 C   0  0  0  0  0  0  0  0  0  0  0  0
    6.6309    3.2143    0.0000 C   0  0  0  0  0  0  0  0  0  0  0  0
    4.5981    1.5085    0.0000 C   0  0  0  0  0  0  0  0  0  0  0  0
    7.2737    3.9803    0.0000 C   0  0  0  0  0  0  0  0  0  0  0  0
    3.9553    2.2746    0.0000 C   0  0  0  0  0  0  0  0  0  0  0  0
    9.5853    2.6933    0.0000 C   0  0  0  0  0  0  0  0  0  0  0  0
    4.5981   -1.4915    0.0000 C   0  0  0  0  0  0  0  0  0  0  0  0
   10.2281    3.4594    0.0000 C   0  0  0  0  0  0  0  0  0  0  0  0
    5.4641   -1.9915    0.0000 C   0  0  0  0  0  0  0  0  0  0  0  0
    9.9273    1.7536    0.0000 C   0  0  0  0  0  0  0  0  0  0  0  0
    3.7320   -1.9915    0.0000 C   0  0  0  0  0  0  0  0  0  0  0  0
   10.9121    1.5800    0.0000 C   0  0  0  0  0  0  0  0  0  0  0  0
    3.7320   -2.9915    0.0000 C   0  0  0  0  0  0  0  0  0  0  0  0
   11.2129    3.2857    0.0000 C   0  0  0  0  0  0  0  0  0  0  0  0
    5.4641   -2.9915    0.0000 C   0  0  0  0  0  0  0  0  0  0  0  0
   11.5549    2.3460    0.0000 C   0  0  0  0  0  0  0  0  0  0  0  0
    4.5981   -3.4915    0.0000 C   0  0  0  0  0  0  0  0  0  0  0  0
   12.2390    0.4666    0.0000 C   0  0  0  0  0  0  0  0  0  0  0  0
    2.0000   -2.9915    0.0000 C   0  0  0  0  0  0  0  0  0  0  0  0
   11.5137    4.9915    0.0000 C   0  0  0  0  0  0  0  0  0  0  0  0
    7.1962   -2.9915    0.0000 C   0  0  0  0  0  0  0  0  0  0  0  0
   13.1825    2.9384    0.0000 C   0  0  0  0  0  0  0  0  0  0  0  0
    3.7320   -4.9915    0.0000 C   0  0  0  0  0  0  0  0  0  0  0  0
    6.4021    0.8927    0.0000 H   0  0  0  0  0  0  0  0  0  0  0  0
    5.9316    1.9835    0.0000 H   0  0  0  0  0  0  0  0  0  0  0  0
    6.3623    2.3822    0.0000 H   0  0  0  0  0  0  0  0  0  0  0  0
    5.4641    1.6285    0.0000 H   0  0  0  0  0  0  0  0  0  0  0  0
    8.3885    3.4496    0.0000 H   0  0  0  0  0  0  0  0  0  0  0  0
    4.0611   -0.1815    0.0000 H   0  0  0  0  0  0  0  0  0  0  0  0
    7.7486    3.5818    0.0000 H   0  0  0  0  0  0  0  0  0  0  0  0
    7.6722    4.4553    0.0000 H   0  0  0  0  0  0  0  0  0  0  0  0
    6.7987    4.3788    0.0000 H   0  0  0  0  0  0  0  0  0  0  0  0
    4.4302    2.6731    0.0000 H   0  0  0  0  0  0  0  0  0  0  0  0
    3.5568    2.7495    0.0000 H   0  0  0  0  0  0  0  0  0  0  0  0
    3.4803    1.8760    0.0000 H   0  0  0  0  0  0  0  0  0  0  0  0
   10.0161    4.0420    0.0000 H   0  0  0  0  0  0  0  0  0  0  0  0
    6.0010   -1.6815    0.0000 H   0  0  0  0  0  0  0  0  0  0  0  0
    9.5288    1.2787    0.0000 H   0  0  0  0  0  0  0  0  0  0  0  0
    3.1951   -1.6815    0.0000 H   0  0  0  0  0  0  0  0  0  0  0  0
   12.1313   -0.1439    0.0000 H   0  0  0  0  0  0  0  0  0  0  0  0
   12.8496    0.3590    0.0000 H   0  0  0  0  0  0  0  0  0  0  0  0
   12.3466    1.0772    0.0000 H   0  0  0  0  0  0  0  0  0  0  0  0
    2.3100   -2.4545    0.0000 H   0  0  0  0  0  0  0  0  0  0  0  0
    1.4631   -2.6815    0.0000 H   0  0  0  0  0  0  0  0  0  0  0  0
    1.6900   -3.5284    0.0000 H   0  0  0  0  0  0  0  0  0  0  0  0
   12.0963    5.2035    0.0000 H   0  0  0  0  0  0  0  0  0  0  0  0
   11.3016    5.5741    0.0000 H   0  0  0  0  0  0  0  0  0  0  0  0
   10.9311    4.7794    0.0000 H   0  0  0  0  0  0  0  0  0  0  0  0
    7.5062   -3.5284    0.0000 H   0  0  0  0  0  0  0  0  0  0  0  0
    7.7331   -2.6815    0.0000 H   0  0  0  0  0  0  0  0  0  0  0  0
    6.8862   -2.4545    0.0000 H   0  0  0  0  0  0  0  0  0  0  0  0
   13.6575    2.5399    0.0000 H   0  0  0  0  0  0  0  0  0  0  0  0
   13.5811    3.4134    0.0000 H   0  0  0  0  0  0  0  0  0  0  0  0
   12.7076    3.3370    0.0000 H   0  0  0  0  0  0  0  0  0  0  0  0
    3.4220   -4.4545    0.0000 H   0  0  0  0  0  0  0  0  0  0  0  0
    3.1951   -5.3015    0.0000 H   0  0  0  0  0  0  0  0  0  0  0  0
    4.0420   -5.5284    0.0000 H   0  0  0  0  0  0  0  0  0  0  0  0
  1 16  2  0  0  0  0
  2 17  2  0  0  0  0
  3 18  2  0  0  0  0
  4 19  2  0  0  0  0
  5 28  1  0  0  0  0
  5 34  1  0  0  0  0
  6 29  1  0  0  0  0
  6 35  1  0  0  0  0
  7 30  1  0  0  0  0
  7 36  1  0  0  0  0
  8 31  1  0  0  0  0
  8 37  1  0  0  0  0
  9 32  1  0  0  0  0
  9 38  1  0  0  0  0
 10 33  1  0  0  0  0
 10 39  1  0  0  0  0
 11 16  1  0  0  0  0
 11 22  1  0  0  0  0
 11 44  1  0  0  0  0
 12 17  1  0  0  0  0
 12 23  1  0  0  0  0
 12 45  1  0  0  0  0
 13 14  1  0  0  0  0
 13 15  1  0  0  0  0
 13 40  1  0  0  0  0
 13 41  1  0  0  0  0
 14 16  1  0  0  0  0
 14 18  1  0  0  0  0
 14 42  1  0  0  0  0
 15 17  1  0  0  0  0
 15 19  1  0  0  0  0
 15 43  1  0  0  0  0
 18 20  1  0  0  0  0
 19 21  1  0  0  0  0
 20 46  1  0  0  0  0
 20 47  1  0  0  0  0
 20 48  1  0  0  0  0
 21 49  1  0  0  0  0
 21 50  1  0  0  0  0
 21 51  1  0  0  0  0
 22 24  2  0  0  0  0
 22 26  1  0  0  0  0
 23 25  2  0  0  0  0
 23 27  1  0  0  0  0
 24 30  1  0  0  0  0
 24 52  1  0  0  0  0
 25 31  1  0  0  0  0
 25 53  1  0  0  0  0
 26 28  2  0  0  0  0
 26 54  1  0  0  0  0
 27 29  2  0  0  0  0
 27 55  1  0  0  0  0
 28 32  1  0  0  0  0
 29 33  1  0  0  0  0
 30 32  2  0  0  0  0
 31 33  2  0  0  0  0
 34 56  1  0  0  0  0
 34 57  1  0  0  0  0
 34 58  1  0  0  0  0
 35 59  1  0  0  0  0
 35 60  1  0  0  0  0
 35 61  1  0  0  0  0
 36 62  1  0  0  0  0
 36 63  1  0  0  0  0
 36 64  1  0  0  0  0
 37 65  1  0  0  0  0
 37 66  1  0  0  0  0
 37 67  1  0  0  0  0
 38 68  1  0  0  0  0
 38 69  1  0  0  0  0
 38 70  1  0  0  0  0
 39 71  1  0  0  0  0
 39 72  1  0  0  0  0
 39 73  1  0  0  0  0
M  END
> <PUBCHEM_COMPOUND_CID>
517889
> <PUBCHEM_COMPOUND_CANONICALIZED>
1
> <PUBCHEM_CACTVS_COMPLEXITY>
745
> <PUBCHEM_CACTVS_HBOND_ACCEPTOR>
10
> <PUBCHEM_CACTVS_HBOND_DONOR>
2
> <PUBCHEM_CACTVS_ROTATABLE_BOND>
14
> <PUBCHEM_CACTVS_SUBSKEYS>
AAADcfB7PAAAAAAAAAAAAAAAAAAAAAAAAAAwYAAAAAAAAAABQAAAHgAQAAAADQyBkAIyxoLABACIAKVSUACCCAAhIgAAiAEG7IgNJzrMsZuEMCpn1B3K6Ae4+w8uAEAACgAAQAAAgAAUAACAAAAAAAAAAA==
> <PUBCHEM_IUPAC_OPENEYE_NAME>
2,4-diacetyl-N,N'-bis(3,4,5-trimethoxyphenyl)pentanediamide
> <PUBCHEM_IUPAC_CAS_NAME>
2,4-diacetyl-N,N'-bis(3,4,5-trimethoxyphenyl)pentanediamide
> <PUBCHEM_IUPAC_NAME_MARKUP>
2,4-diacetyl-<I>N</I>,<I>N</I>&apos;-bis(3,4,5-trimethoxyphenyl)pentanediamide
> <PUBCHEM_IUPAC_NAME>
2,4-diacetyl-N,N'-bis(3,4,5-trimethoxyphenyl)pentanediamide
> <PUBCHEM_IUPAC_SYSTEMATIC_NAME>
2,4-diethanoyl-N,N'-bis(3,4,5-trimethoxyphenyl)pentanediamide
> <PUBCHEM_IUPAC_TRADITIONAL_NAME>
2,4-diacetyl-N,N'-bis(3,4,5-trimethoxyphenyl)glutaramide
> <PUBCHEM_IUPAC_INCHI>
InChI=1S/C27H34N2O10/c1-14(30)18(26(32)28-16-9-20(34-3)24(38-7)21(10-16)35-4)13-19(15(2)31)27(33)29-17-11-22(36-5)25(39-8)23(12-17)37-6/h9-12,18-19H,13H2,1-8H3,(H,28,32)(H,29,33)
> <PUBCHEM_IUPAC_INCHIKEY>
HSSQSPPVRLGGLX-UHFFFAOYSA-N
> <PUBCHEM_XLOGP3_AA>
3
> <PUBCHEM_EXACT_MASS>
546.22134529
> <PUBCHEM_MOLECULAR_FORMULA>
C27H34N2O10
> <PUBCHEM_MOLECULAR_WEIGHT>
546.6
> <PUBCHEM_OPENEYE_CAN_SMILES>
CC(=O)C(CC(C(=O)C)C(=O)NC1=CC(=C(C(=C1)OC)OC)OC)C(=O)NC2=CC(=C(C(=C2)OC)OC)OC
> <PUBCHEM_OPENEYE_ISO_SMILES>
CC(=O)C(CC(C(=O)C)C(=O)NC1=CC(=C(C(=C1)OC)OC)OC)C(=O)NC2=CC(=C(C(=C2)OC)OC)OC
> <PUBCHEM_CACTVS_TPSA>
148
> <PUBCHEM_MONOISOTOPIC_WEIGHT>
546.22134529
> <PUBCHEM_TOTAL_CHARGE>
0
> <PUBCHEM_HEAVY_ATOM_COUNT>
39
> <PUBCHEM_ATOM_DEF_STEREO_COUNT>
0
> <PUBCHEM_ATOM_UDEF_STEREO_COUNT>
2
> <PUBCHEM_BOND_DEF_STEREO_COUNT>
0
> <PUBCHEM_BOND_UDEF_STEREO_COUNT>
0
> <PUBCHEM_ISOTOPIC_ATOM_COUNT>
0
> <PUBCHEM_COMPONENT_COUNT>
1
> <PUBCHEM_CACTVS_TAUTO_COUNT>
-1
> <PUBCHEM_COORDINATE_TYPE>
1
5
255
> <PUBCHEM_BONDANNOTATIONS>
14  13  3
15  13  3
22  24  8
22  26  8
23  25  8
23  27  8
24  30  8
25  31  8
26  28  8
27  29  8
28  32  8
29  33  8
30  32  8
31  33  8
$$$$
