517897
  -OEChem-10302200292D
 48 50  0     1  0  0  0  0  0999 V2000
    4.5715    0.0000    0.0000 Cl  0  0  0  0  0  0  0  0  0  0  0  0
    8.5624    5.0163    0.0000 O   0  0  0  0  0  0  0  0  0  0  0  0
    9.1584    6.9254    0.0000 O   0  0  0  0  0  0  0  0  0  0  0  0
    5.6607    4.3253    0.0000 N   0  0  0  0  0  0  0  0  0  0  0  0
    3.1333    5.4495    0.0000 N   0  0  0  0  0  0  0  0  0  0  0  0
    4.9577    5.0940    0.0000 C   0  0  3  0  0  0  0  0  0  0  0  0
    3.9423    4.8617    0.0000 C   0  0  0  0  0  0  0  0  0  0  0  0
    3.6333    3.9107    0.0000 C   0  0  0  0  0  0  0  0  0  0  0  0
    4.3183    3.1260    0.0000 C   0  0  0  0  0  0  0  0  0  0  0  0
    5.3388    3.3346    0.0000 C   0  0  0  0  0  0  0  0  0  0  0  0
    5.2557    6.0486    0.0000 C   0  0  0  0  0  0  0  0  0  0  0  0
    2.6333    3.9107    0.0000 C   0  0  0  0  0  0  0  0  0  0  0  0
    2.3243    4.8617    0.0000 C   0  0  0  0  0  0  0  0  0  0  0  0
    6.2314    6.2678    0.0000 C   0  0  0  0  0  0  0  0  0  0  0  0
    1.9483    3.1260    0.0000 C   0  0  0  0  0  0  0  0  0  0  0  0
    1.3089    5.0940    0.0000 C   0  0  0  0  0  0  0  0  0  0  0  0
    0.9278    3.3346    0.0000 C   0  0  0  0  0  0  0  0  0  0  0  0
    6.9091    5.5324    0.0000 C   0  0  0  0  0  0  0  0  0  0  0  0
    6.5294    7.2223    0.0000 C   0  0  0  0  0  0  0  0  0  0  0  0
    0.6060    4.3253    0.0000 C   0  0  0  0  0  0  0  0  0  0  0  0
    7.8848    5.7516    0.0000 C   0  0  0  0  0  0  0  0  0  0  0  0
    7.5051    7.4415    0.0000 C   0  0  0  0  0  0  0  0  0  0  0  0
    8.1828    6.7062    0.0000 C   0  0  0  0  0  0  0  0  0  0  0  0
    9.5381    5.2355    0.0000 C   0  0  0  0  0  0  0  0  0  0  0  0
    9.4564    7.8800    0.0000 C   0  0  0  0  0  0  0  0  0  0  0  0
    5.5629    5.2287    0.0000 H   0  0  0  0  0  0  0  0  0  0  0  0
    3.7883    2.8042    0.0000 H   0  0  0  0  0  0  0  0  0  0  0  0
    4.5446    2.5487    0.0000 H   0  0  0  0  0  0  0  0  0  0  0  0
    5.3572    2.7149    0.0000 H   0  0  0  0  0  0  0  0  0  0  0  0
    5.9525    3.2468    0.0000 H   0  0  0  0  0  0  0  0  0  0  0  0
    6.2666    4.4566    0.0000 H   0  0  0  0  0  0  0  0  0  0  0  0
    5.2269    6.6679    0.0000 H   0  0  0  0  0  0  0  0  0  0  0  0
    4.6408    6.1277    0.0000 H   0  0  0  0  0  0  0  0  0  0  0  0
    3.1333    6.0695    0.0000 H   0  0  0  0  0  0  0  0  0  0  0  0
    2.1467    2.5386    0.0000 H   0  0  0  0  0  0  0  0  0  0  0  0
    1.1241    5.6858    0.0000 H   0  0  0  0  0  0  0  0  0  0  0  0
    0.5148    2.8723    0.0000 H   0  0  0  0  0  0  0  0  0  0  0  0
    6.7243    4.9406    0.0000 H   0  0  0  0  0  0  0  0  0  0  0  0
    6.1092    7.6782    0.0000 H   0  0  0  0  0  0  0  0  0  0  0  0
    0.0000    4.4566    0.0000 H   0  0  0  0  0  0  0  0  0  0  0  0
    7.6898    8.0334    0.0000 H   0  0  0  0  0  0  0  0  0  0  0  0
    9.6740    4.6306    0.0000 H   0  0  0  0  0  0  0  0  0  0  0  0
   10.1430    5.3714    0.0000 H   0  0  0  0  0  0  0  0  0  0  0  0
    9.4022    5.8404    0.0000 H   0  0  0  0  0  0  0  0  0  0  0  0
   10.0483    7.6952    0.0000 H   0  0  0  0  0  0  0  0  0  0  0  0
    9.6412    8.4718    0.0000 H   0  0  0  0  0  0  0  0  0  0  0  0
    8.8646    8.0647    0.0000 H   0  0  0  0  0  0  0  0  0  0  0  0
    5.5715    0.0000    0.0000 H   0  0  0  0  0  0  0  0  0  0  0  0
  1 48  1  0  0  0  0
  2 21  1  0  0  0  0
  2 24  1  0  0  0  0
  3 23  1  0  0  0  0
  3 25  1  0  0  0  0
  4  6  1  0  0  0  0
  4 10  1  0  0  0  0
  4 31  1  0  0  0  0
  5  7  1  0  0  0  0
  5 13  1  0  0  0  0
  5 34  1  0  0  0  0
  6  7  1  0  0  0  0
  6 11  1  0  0  0  0
  6 26  1  0  0  0  0
  7  8  2  0  0  0  0
  8  9  1  0  0  0  0
  8 12  1  0  0  0  0
  9 10  1  0  0  0  0
  9 27  1  0  0  0  0
  9 28  1  0  0  0  0
 10 29  1  0  0  0  0
 10 30  1  0  0  0  0
 11 14  1  0  0  0  0
 11 32  1  0  0  0  0
 11 33  1  0  0  0  0
 12 13  1  0  0  0  0
 12 15  2  0  0  0  0
 13 16  2  0  0  0  0
 14 18  2  0  0  0  0
 14 19  1  0  0  0  0
 15 17  1  0  0  0  0
 15 35  1  0  0  0  0
 16 20  1  0  0  0  0
 16 36  1  0  0  0  0
 17 20  2  0  0  0  0
 17 37  1  0  0  0  0
 18 21  1  0  0  0  0
 18 38  1  0  0  0  0
 19 22  2  0  0  0  0
 19 39  1  0  0  0  0
 20 40  1  0  0  0  0
 21 23  2  0  0  0  0
 22 23  1  0  0  0  0
 22 41  1  0  0  0  0
 24 42  1  0  0  0  0
 24 43  1  0  0  0  0
 24 44  1  0  0  0  0
 25 45  1  0  0  0  0
 25 46  1  0  0  0  0
 25 47  1  0  0  0  0
M  END
> <PUBCHEM_COMPOUND_CID>
517897
> <PUBCHEM_COMPOUND_CANONICALIZED>
1
> <PUBCHEM_CACTVS_COMPLEXITY>
418
> <PUBCHEM_CACTVS_HBOND_ACCEPTOR>
3
> <PUBCHEM_CACTVS_HBOND_DONOR>
3
> <PUBCHEM_CACTVS_ROTATABLE_BOND>
4
> <PUBCHEM_CACTVS_SUBSKEYS>
AAADceB7MAAEAAAAAAAAAAAAAAAAAWAAAAA8YIAAAAAAAFgB9AAAHgAQAAAADCzBngYyxvLJlACgAyRiRACCiCAhIiAImaA+7JgNZuLEsZuUMCpk0BHK6AeQ0PMOoAABAAACQABAAAIAAASAAAAAAAAAAA==
> <PUBCHEM_IUPAC_OPENEYE_NAME>
1-[(3,4-dimethoxyphenyl)methyl]-2,3,4,9-tetrahydro-1H-pyrido[3,4-b]indole;hydrochloride
> <PUBCHEM_IUPAC_CAS_NAME>
1-[(3,4-dimethoxyphenyl)methyl]-2,3,4,9-tetrahydro-1H-pyrido[3,4-b]indole;hydrochloride
> <PUBCHEM_IUPAC_NAME_MARKUP>
1-[(3,4-dimethoxyphenyl)methyl]-2,3,4,9-tetrahydro-1<I>H</I>-pyrido[3,4-b]indole;hydrochloride
> <PUBCHEM_IUPAC_NAME>
1-[(3,4-dimethoxyphenyl)methyl]-2,3,4,9-tetrahydro-1H-pyrido[3,4-b]indole;hydrochloride
> <PUBCHEM_IUPAC_SYSTEMATIC_NAME>
1-[(3,4-dimethoxyphenyl)methyl]-2,3,4,9-tetrahydro-1H-pyrido[3,4-b]indole;hydrochloride
> <PUBCHEM_IUPAC_TRADITIONAL_NAME>
1-veratryl-2,3,4,9-tetrahydro-1H-beta-carboline;hydrochloride
> <PUBCHEM_IUPAC_INCHI>
InChI=1S/C20H22N2O2.ClH/c1-23-18-8-7-13(12-19(18)24-2)11-17-20-15(9-10-21-17)14-5-3-4-6-16(14)22-20;/h3-8,12,17,21-22H,9-11H2,1-2H3;1H
> <PUBCHEM_IUPAC_INCHIKEY>
FQOXSVFNMXEPIL-UHFFFAOYSA-N
> <PUBCHEM_EXACT_MASS>
358.1448057
> <PUBCHEM_MOLECULAR_FORMULA>
C20H23ClN2O2
> <PUBCHEM_MOLECULAR_WEIGHT>
358.9
> <PUBCHEM_OPENEYE_CAN_SMILES>
COC1=C(C=C(C=C1)CC2C3=C(CCN2)C4=CC=CC=C4N3)OC.Cl
> <PUBCHEM_OPENEYE_ISO_SMILES>
COC1=C(C=C(C=C1)CC2C3=C(CCN2)C4=CC=CC=C4N3)OC.Cl
> <PUBCHEM_CACTVS_TPSA>
46.3
> <PUBCHEM_MONOISOTOPIC_WEIGHT>
358.1448057
> <PUBCHEM_TOTAL_CHARGE>
0
> <PUBCHEM_HEAVY_ATOM_COUNT>
25
> <PUBCHEM_ATOM_DEF_STEREO_COUNT>
0
> <PUBCHEM_ATOM_UDEF_STEREO_COUNT>
1
> <PUBCHEM_BOND_DEF_STEREO_COUNT>
0
> <PUBCHEM_BOND_UDEF_STEREO_COUNT>
0
> <PUBCHEM_ISOTOPIC_ATOM_COUNT>
0
> <PUBCHEM_COMPONENT_COUNT>
2
> <PUBCHEM_CACTVS_TAUTO_COUNT>
-1
> <PUBCHEM_COORDINATE_TYPE>
1
5
255
> <PUBCHEM_BONDANNOTATIONS>
12  13  8
12  15  8
13  16  8
14  18  8
14  19  8
15  17  8
16  20  8
17  20  8
18  21  8
19  22  8
21  23  8
22  23  8
5  13  8
5  7  8
6  11  3
7  8  8
8  12  8
$$$$
