517857
  -OEChem-10302200292D
 58 61  0     1  0  0  0  0  0999 V2000
    5.3693    1.3058    0.0000 O   0  0  0  0  0  0  0  0  0  0  0  0
    6.3450   -0.1253    0.0000 O   0  0  0  0  0  0  0  0  0  0  0  0
    9.5752    3.1252    0.0000 O   0  5  0  0  0  0  0  0  0  0  0  0
    7.8480    2.9958    0.0000 O   0  0  0  0  0  0  0  0  0  0  0  0
    7.0965    1.4352    0.0000 N   0  0  0  0  0  0  0  0  0  0  0  0
    8.7489    2.5619    0.0000 N   0  3  0  0  0  0  0  0  0  0  0  0
    4.0430   -1.4482    0.0000 C   0  0  3  0  0  0  0  0  0  0  0  0
    3.1420   -1.0143    0.0000 C   0  0  3  0  0  0  0  0  0  0  0  0
    2.9195   -0.0393    0.0000 C   0  0  0  0  0  0  0  0  0  0  0  0
    3.5430    0.7425    0.0000 C   0  0  3  0  0  0  0  0  0  0  0  0
    4.1499   -0.2714    0.0000 C   0  0  0  0  0  0  0  0  0  0  0  0
    3.9070   -2.4329    0.0000 C   0  0  3  0  0  0  0  0  0  0  0  0
    4.9440   -1.0143    0.0000 C   0  0  0  0  0  0  0  0  0  0  0  0
    4.5430    0.7425    0.0000 C   0  0  3  0  0  0  0  0  0  0  0  0
    2.4569   -1.7346    0.0000 C   0  0  0  0  0  0  0  0  0  0  0  0
    2.9288   -2.6095    0.0000 C   0  0  0  0  0  0  0  0  0  0  0  0
    5.1665   -0.0393    0.0000 C   0  0  0  0  0  0  0  0  0  0  0  0
    2.2616    0.7137    0.0000 C   0  0  0  0  0  0  0  0  0  0  0  0
    2.0000   -0.4324    0.0000 C   0  0  0  0  0  0  0  0  0  0  0  0
    4.6286   -3.1252    0.0000 C   0  0  0  0  0  0  0  0  0  0  0  0
    4.4683    1.7397    0.0000 C   0  0  0  0  0  0  0  0  0  0  0  0
    6.2702    0.8719    0.0000 C   0  0  0  0  0  0  0  0  0  0  0  0
    7.9974    1.0014    0.0000 C   0  0  0  0  0  0  0  0  0  0  0  0
    8.8237    1.5647    0.0000 C   0  0  0  0  0  0  0  0  0  0  0  0
    8.0722    0.0042    0.0000 C   0  0  0  0  0  0  0  0  0  0  0  0
    9.7246    1.1308    0.0000 C   0  0  0  0  0  0  0  0  0  0  0  0
    8.9731   -0.4297    0.0000 C   0  0  0  0  0  0  0  0  0  0  0  0
    9.7994    0.1336    0.0000 C   0  0  0  0  0  0  0  0  0  0  0  0
    2.5442   -0.8501    0.0000 H   0  0  0  0  0  0  0  0  0  0  0  0
    3.2740    1.3011    0.0000 H   0  0  0  0  0  0  0  0  0  0  0  0
    4.7199   -0.5152    0.0000 H   0  0  0  0  0  0  0  0  0  0  0  0
    4.5577    0.1956    0.0000 H   0  0  0  0  0  0  0  0  0  0  0  0
    3.7279   -3.0265    0.0000 H   0  0  0  0  0  0  0  0  0  0  0  0
    5.0820   -1.6187    0.0000 H   0  0  0  0  0  0  0  0  0  0  0  0
    5.5640   -1.0143    0.0000 H   0  0  0  0  0  0  0  0  0  0  0  0
    2.0551   -1.2624    0.0000 H   0  0  0  0  0  0  0  0  0  0  0  0
    1.9452   -2.0846    0.0000 H   0  0  0  0  0  0  0  0  0  0  0  0
    2.3551   -2.8448    0.0000 H   0  0  0  0  0  0  0  0  0  0  0  0
    3.1025   -3.2047    0.0000 H   0  0  0  0  0  0  0  0  0  0  0  0
    5.7251   -0.3084    0.0000 H   0  0  0  0  0  0  0  0  0  0  0  0
    5.5531    0.4454    0.0000 H   0  0  0  0  0  0  0  0  0  0  0  0
    2.7285    1.1216    0.0000 H   0  0  0  0  0  0  0  0  0  0  0  0
    1.8537    1.1806    0.0000 H   0  0  0  0  0  0  0  0  0  0  0  0
    1.7947    0.3058    0.0000 H   0  0  0  0  0  0  0  0  0  0  0  0
    1.7563    0.1377    0.0000 H   0  0  0  0  0  0  0  0  0  0  0  0
    1.4299   -0.6760    0.0000 H   0  0  0  0  0  0  0  0  0  0  0  0
    2.2437   -1.0025    0.0000 H   0  0  0  0  0  0  0  0  0  0  0  0
    4.1994   -3.5726    0.0000 H   0  0  0  0  0  0  0  0  0  0  0  0
    5.0760   -3.5544    0.0000 H   0  0  0  0  0  0  0  0  0  0  0  0
    5.0578   -2.6778    0.0000 H   0  0  0  0  0  0  0  0  0  0  0  0
    5.0866    1.7860    0.0000 H   0  0  0  0  0  0  0  0  0  0  0  0
    4.4220    2.3580    0.0000 H   0  0  0  0  0  0  0  0  0  0  0  0
    3.8500    1.6934    0.0000 H   0  0  0  0  0  0  0  0  0  0  0  0
    7.0501    2.0535    0.0000 H   0  0  0  0  0  0  0  0  0  0  0  0
    7.5599   -0.3451    0.0000 H   0  0  0  0  0  0  0  0  0  0  0  0
   10.2369    1.4800    0.0000 H   0  0  0  0  0  0  0  0  0  0  0  0
    9.0195   -1.0480    0.0000 H   0  0  0  0  0  0  0  0  0  0  0  0
   10.3580   -0.1354    0.0000 H   0  0  0  0  0  0  0  0  0  0  0  0
  1 14  1  0  0  0  0
  1 22  1  0  0  0  0
  2 22  2  0  0  0  0
  3  6  1  0  0  0  0
  4  6  2  0  0  0  0
  5 22  1  0  0  0  0
  5 23  1  0  0  0  0
  5 54  1  0  0  0  0
  6 24  1  0  0  0  0
  7  8  1  0  0  0  0
  7 11  1  0  0  0  0
  7 12  1  0  0  0  0
  7 13  1  0  0  0  0
  8  9  1  0  0  0  0
  8 15  1  0  0  0  0
  8 29  1  0  0  0  0
  9 10  1  0  0  0  0
  9 18  1  0  0  0  0
  9 19  1  0  0  0  0
 10 11  1  0  0  0  0
 10 14  1  0  0  0  0
 10 30  1  0  0  0  0
 11 31  1  0  0  0  0
 11 32  1  0  0  0  0
 12 16  1  0  0  0  0
 12 20  1  0  0  0  0
 12 33  1  0  0  0  0
 13 17  1  0  0  0  0
 13 34  1  0  0  0  0
 13 35  1  0  0  0  0
 14 17  1  0  0  0  0
 14 21  1  0  0  0  0
 15 16  1  0  0  0  0
 15 36  1  0  0  0  0
 15 37  1  0  0  0  0
 16 38  1  0  0  0  0
 16 39  1  0  0  0  0
 17 40  1  0  0  0  0
 17 41  1  0  0  0  0
 18 42  1  0  0  0  0
 18 43  1  0  0  0  0
 18 44  1  0  0  0  0
 19 45  1  0  0  0  0
 19 46  1  0  0  0  0
 19 47  1  0  0  0  0
 20 48  1  0  0  0  0
 20 49  1  0  0  0  0
 20 50  1  0  0  0  0
 21 51  1  0  0  0  0
 21 52  1  0  0  0  0
 21 53  1  0  0  0  0
 23 24  1  0  0  0  0
 23 25  2  0  0  0  0
 24 26  2  0  0  0  0
 25 27  1  0  0  0  0
 25 55  1  0  0  0  0
 26 28  1  0  0  0  0
 26 56  1  0  0  0  0
 27 28  2  0  0  0  0
 27 57  1  0  0  0  0
 28 58  1  0  0  0  0
M  CHG  2   3  -1   6   1
M  END
> <PUBCHEM_COMPOUND_CID>
517857
> <PUBCHEM_COMPOUND_CANONICALIZED>
1
> <PUBCHEM_CACTVS_COMPLEXITY>
659
> <PUBCHEM_CACTVS_HBOND_ACCEPTOR>
4
> <PUBCHEM_CACTVS_HBOND_DONOR>
1
> <PUBCHEM_CACTVS_ROTATABLE_BOND>
3
> <PUBCHEM_CACTVS_SUBSKEYS>
AAADceB7OAAAAAAAAAAAAAAAAAAAAYMAAAAwYAAABgAYAADBAAAAHgAUAAAAD0yBkAAyyILQRACJACRCWwCCAAAhAgAoiAAAdIsIYCLAkZGcIAhklIBIyAeQwPAPgAAAAAAAACDAAAQAADAAQQAACAAAAA==
> <PUBCHEM_IUPAC_OPENEYE_NAME>
(2,6,6,8-tetramethyl-8-tricyclo[5.3.1.01,5]undecanyl) N-(2-nitrophenyl)carbamate
> <PUBCHEM_IUPAC_CAS_NAME>
N-(2-nitrophenyl)carbamic acid (2,6,6,8-tetramethyl-8-tricyclo[5.3.1.01,5]undecanyl) ester
> <PUBCHEM_IUPAC_NAME_MARKUP>
(2,6,6,8-tetramethyl-8-tricyclo[5.3.1.0<SUP>1,5</SUP>]undecanyl) <I>N</I>-(2-nitrophenyl)carbamate
> <PUBCHEM_IUPAC_NAME>
(2,6,6,8-tetramethyl-8-tricyclo[5.3.1.01,5]undecanyl) N-(2-nitrophenyl)carbamate
> <PUBCHEM_IUPAC_SYSTEMATIC_NAME>
(2,6,6,8-tetramethyl-8-tricyclo[5.3.1.01,5]undecanyl) N-(2-nitrophenyl)carbamate
> <PUBCHEM_IUPAC_TRADITIONAL_NAME>
N-(2-nitrophenyl)carbamic acid (2,6,6,8-tetramethyl-8-tricyclo[5.3.1.01,5]undecanyl) ester
> <PUBCHEM_IUPAC_INCHI>
InChI=1S/C22H30N2O4/c1-14-9-10-17-20(2,3)18-13-22(14,17)12-11-21(18,4)28-19(25)23-15-7-5-6-8-16(15)24(26)27/h5-8,14,17-18H,9-13H2,1-4H3,(H,23,25)
> <PUBCHEM_IUPAC_INCHIKEY>
HFRKDCZGTMMNIX-UHFFFAOYSA-N
> <PUBCHEM_XLOGP3_AA>
6.2
> <PUBCHEM_EXACT_MASS>
386.22055744
> <PUBCHEM_MOLECULAR_FORMULA>
C22H30N2O4
> <PUBCHEM_MOLECULAR_WEIGHT>
386.5
> <PUBCHEM_OPENEYE_CAN_SMILES>
CC1CCC2C13CCC(C(C3)C2(C)C)(C)OC(=O)NC4=CC=CC=C4[N+](=O)[O-]
> <PUBCHEM_OPENEYE_ISO_SMILES>
CC1CCC2C13CCC(C(C3)C2(C)C)(C)OC(=O)NC4=CC=CC=C4[N+](=O)[O-]
> <PUBCHEM_CACTVS_TPSA>
84.2
> <PUBCHEM_MONOISOTOPIC_WEIGHT>
386.22055744
> <PUBCHEM_TOTAL_CHARGE>
0
> <PUBCHEM_HEAVY_ATOM_COUNT>
28
> <PUBCHEM_ATOM_DEF_STEREO_COUNT>
0
> <PUBCHEM_ATOM_UDEF_STEREO_COUNT>
5
> <PUBCHEM_BOND_DEF_STEREO_COUNT>
0
> <PUBCHEM_BOND_UDEF_STEREO_COUNT>
0
> <PUBCHEM_ISOTOPIC_ATOM_COUNT>
0
> <PUBCHEM_COMPONENT_COUNT>
1
> <PUBCHEM_CACTVS_TAUTO_COUNT>
-1
> <PUBCHEM_COORDINATE_TYPE>
1
5
255
> <PUBCHEM_BONDANNOTATIONS>
10  11  3
12  20  3
14  21  3
23  24  8
23  25  8
24  26  8
25  27  8
26  28  8
27  28  8
7  13  3
8  15  3
$$$$
