517876
  -OEChem-10302200292D
 38 40  0     1  0  0  0  0  0999 V2000
    5.7320   -2.5000    0.0000 O   0  0  0  0  0  0  0  0  0  0  0  0
    2.0000    2.5000    0.0000 O   0  0  0  0  0  0  0  0  0  0  0  0
    3.8660   -1.0000    0.0000 N   0  0  3  0  0  0  0  0  0  0  0  0
    3.8660    1.0000    0.0000 N   0  0  3  0  0  0  0  0  0  0  0  0
    3.0000   -0.5000    0.0000 C   0  0  3  0  0  0  0  0  0  0  0  0
    4.7320    0.5000    0.0000 C   0  0  3  0  0  0  0  0  0  0  0  0
    4.7320   -0.5000    0.0000 C   0  0  0  0  0  0  0  0  0  0  0  0
    3.0000    0.5000    0.0000 C   0  0  0  0  0  0  0  0  0  0  0  0
    3.8660   -2.0000    0.0000 C   0  0  0  0  0  0  0  0  0  0  0  0
    3.8660    2.0000    0.0000 C   0  0  0  0  0  0  0  0  0  0  0  0
    4.7320   -2.5000    0.0000 C   0  0  3  0  0  0  0  0  0  0  0  0
    3.0000    2.5000    0.0000 C   0  0  3  0  0  0  0  0  0  0  0  0
    5.2320   -3.3660    0.0000 C   0  0  0  0  0  0  0  0  0  0  0  0
    2.5000    3.3660    0.0000 C   0  0  0  0  0  0  0  0  0  0  0  0
    2.1340   -1.0000    0.0000 C   0  0  0  0  0  0  0  0  0  0  0  0
    5.5981    1.0000    0.0000 C   0  0  0  0  0  0  0  0  0  0  0  0
    3.0000   -1.1200    0.0000 H   0  0  0  0  0  0  0  0  0  0  0  0
    4.7320    1.1200    0.0000 H   0  0  0  0  0  0  0  0  0  0  0  0
    4.9441   -1.0826    0.0000 H   0  0  0  0  0  0  0  0  0  0  0  0
    5.3426   -0.3923    0.0000 H   0  0  0  0  0  0  0  0  0  0  0  0
    2.7880    1.0826    0.0000 H   0  0  0  0  0  0  0  0  0  0  0  0
    2.3894    0.3923    0.0000 H   0  0  0  0  0  0  0  0  0  0  0  0
    3.2554   -1.8923    0.0000 H   0  0  0  0  0  0  0  0  0  0  0  0
    3.6540   -2.5826    0.0000 H   0  0  0  0  0  0  0  0  0  0  0  0
    4.4766    1.8923    0.0000 H   0  0  0  0  0  0  0  0  0  0  0  0
    4.0781    2.5826    0.0000 H   0  0  0  0  0  0  0  0  0  0  0  0
    4.8925   -1.9011    0.0000 H   0  0  0  0  0  0  0  0  0  0  0  0
    2.8395    1.9011    0.0000 H   0  0  0  0  0  0  0  0  0  0  0  0
    4.7571   -3.7646    0.0000 H   0  0  0  0  0  0  0  0  0  0  0  0
    5.7070   -3.7646    0.0000 H   0  0  0  0  0  0  0  0  0  0  0  0
    2.9750    3.7646    0.0000 H   0  0  0  0  0  0  0  0  0  0  0  0
    2.0250    3.7646    0.0000 H   0  0  0  0  0  0  0  0  0  0  0  0
    1.8240   -0.4631    0.0000 H   0  0  0  0  0  0  0  0  0  0  0  0
    1.5970   -1.3100    0.0000 H   0  0  0  0  0  0  0  0  0  0  0  0
    2.4440   -1.5369    0.0000 H   0  0  0  0  0  0  0  0  0  0  0  0
    5.9081    0.4631    0.0000 H   0  0  0  0  0  0  0  0  0  0  0  0
    6.1350    1.3100    0.0000 H   0  0  0  0  0  0  0  0  0  0  0  0
    5.2881    1.5369    0.0000 H   0  0  0  0  0  0  0  0  0  0  0  0
  1 11  1  0  0  0  0
  1 13  1  0  0  0  0
  2 12  1  0  0  0  0
  2 14  1  0  0  0  0
  3  5  1  0  0  0  0
  3  7  1  0  0  0  0
  3  9  1  0  0  0  0
  4  6  1  0  0  0  0
  4  8  1  0  0  0  0
  4 10  1  0  0  0  0
  5  8  1  0  0  0  0
  5 15  1  0  0  0  0
  5 17  1  0  0  0  0
  6  7  1  0  0  0  0
  6 16  1  0  0  0  0
  6 18  1  0  0  0  0
  7 19  1  0  0  0  0
  7 20  1  0  0  0  0
  8 21  1  0  0  0  0
  8 22  1  0  0  0  0
  9 11  1  0  0  0  0
  9 23  1  0  0  0  0
  9 24  1  0  0  0  0
 10 12  1  0  0  0  0
 10 25  1  0  0  0  0
 10 26  1  0  0  0  0
 11 13  1  0  0  0  0
 11 27  1  0  0  0  0
 12 14  1  0  0  0  0
 12 28  1  0  0  0  0
 13 29  1  0  0  0  0
 13 30  1  0  0  0  0
 14 31  1  0  0  0  0
 14 32  1  0  0  0  0
 15 33  1  0  0  0  0
 15 34  1  0  0  0  0
 15 35  1  0  0  0  0
 16 36  1  0  0  0  0
 16 37  1  0  0  0  0
 16 38  1  0  0  0  0
M  END
> <PUBCHEM_COMPOUND_CID>
517876
> <PUBCHEM_COMPOUND_CANONICALIZED>
1
> <PUBCHEM_CACTVS_COMPLEXITY>
235
> <PUBCHEM_CACTVS_HBOND_ACCEPTOR>
4
> <PUBCHEM_CACTVS_HBOND_DONOR>
0
> <PUBCHEM_CACTVS_ROTATABLE_BOND>
4
> <PUBCHEM_CACTVS_SUBSKEYS>
AAADceBzMAAAAAAAAAAAAAAAEiQAAAAAAAAsAAAAAAAAAAAAAAAAHgAAAAAACDzhgAYCAAMABAAAAAAAAAAAAAAAAAAAAAAIAAACQAAAAAAVAAACAACQAAAAAAAAAAAAAAAAAAAAAAAAAAAAAAAAAAAAAA==
> <PUBCHEM_IUPAC_OPENEYE_NAME>
2,5-dimethyl-1,4-bis(oxiran-2-ylmethyl)piperazine
> <PUBCHEM_IUPAC_CAS_NAME>
2,5-dimethyl-1,4-bis(2-oxiranylmethyl)piperazine
> <PUBCHEM_IUPAC_NAME_MARKUP>
2,5-dimethyl-1,4-bis(oxiran-2-ylmethyl)piperazine
> <PUBCHEM_IUPAC_NAME>
2,5-dimethyl-1,4-bis(oxiran-2-ylmethyl)piperazine
> <PUBCHEM_IUPAC_SYSTEMATIC_NAME>
2,5-dimethyl-1,4-bis(oxiran-2-ylmethyl)piperazine
> <PUBCHEM_IUPAC_TRADITIONAL_NAME>
1,4-diglycidyl-2,5-dimethyl-piperazine
> <PUBCHEM_IUPAC_INCHI>
InChI=1S/C12H22N2O2/c1-9-3-14(6-12-8-16-12)10(2)4-13(9)5-11-7-15-11/h9-12H,3-8H2,1-2H3
> <PUBCHEM_IUPAC_INCHIKEY>
JILLNOGUZDWMKV-UHFFFAOYSA-N
> <PUBCHEM_XLOGP3_AA>
0.3
> <PUBCHEM_EXACT_MASS>
226.168127949
> <PUBCHEM_MOLECULAR_FORMULA>
C12H22N2O2
> <PUBCHEM_MOLECULAR_WEIGHT>
226.32
> <PUBCHEM_OPENEYE_CAN_SMILES>
CC1CN(C(CN1CC2CO2)C)CC3CO3
> <PUBCHEM_OPENEYE_ISO_SMILES>
CC1CN(C(CN1CC2CO2)C)CC3CO3
> <PUBCHEM_CACTVS_TPSA>
31.5
> <PUBCHEM_MONOISOTOPIC_WEIGHT>
226.168127949
> <PUBCHEM_TOTAL_CHARGE>
0
> <PUBCHEM_HEAVY_ATOM_COUNT>
16
> <PUBCHEM_ATOM_DEF_STEREO_COUNT>
0
> <PUBCHEM_ATOM_UDEF_STEREO_COUNT>
4
> <PUBCHEM_BOND_DEF_STEREO_COUNT>
0
> <PUBCHEM_BOND_UDEF_STEREO_COUNT>
0
> <PUBCHEM_ISOTOPIC_ATOM_COUNT>
0
> <PUBCHEM_COMPONENT_COUNT>
1
> <PUBCHEM_CACTVS_TAUTO_COUNT>
-1
> <PUBCHEM_COORDINATE_TYPE>
1
5
255
> <PUBCHEM_BONDANNOTATIONS>
12  10  3
5  15  3
6  16  3
11  9  3
$$$$
