517807
  -OEChem-10302200292D
 65 66  0     1  0  0  0  0  0999 V2000
    4.9889   -2.8717    0.0000 O   0  0  0  0  0  0  0  0  0  0  0  0
    5.2619   -4.6270    0.0000 O   0  0  0  0  0  0  0  0  0  0  0  0
    4.9889   -6.3822    0.0000 O   0  0  0  0  0  0  0  0  0  0  0  0
   10.1456    1.7552    0.0000 C   0  0  0  0  0  0  0  0  0  0  0  0
    9.8349    0.8047    0.0000 C   0  0  0  0  0  0  0  0  0  0  0  0
   11.1241    1.9615    0.0000 C   0  0  0  0  0  0  0  0  0  0  0  0
    8.8564    0.5985    0.0000 C   0  0  0  0  0  0  0  0  0  0  0  0
   11.4348    2.9120    0.0000 C   0  0  0  0  0  0  0  0  0  0  0  0
    8.5458   -0.3520    0.0000 C   0  0  0  0  0  0  0  0  0  0  0  0
   12.4133    3.1182    0.0000 C   0  0  0  0  0  0  0  0  0  0  0  0
    7.5673   -0.5582    0.0000 C   0  0  0  0  0  0  0  0  0  0  0  0
   12.7239    4.0687    0.0000 C   0  0  0  0  0  0  0  0  0  0  0  0
    7.2566   -1.5088    0.0000 C   0  0  0  0  0  0  0  0  0  0  0  0
   13.7024    4.2749    0.0000 C   0  0  0  0  0  0  0  0  0  0  0  0
    6.2781   -1.7150    0.0000 C   0  0  0  0  0  0  0  0  0  0  0  0
   14.0131    5.2255    0.0000 C   0  0  0  0  0  0  0  0  0  0  0  0
    5.9674   -2.6655    0.0000 C   0  0  0  0  0  0  0  0  0  0  0  0
   14.9916    5.4317    0.0000 C   0  0  0  0  0  0  0  0  0  0  0  0
    4.6783   -3.8222    0.0000 C   0  0  3  0  0  0  0  0  0  0  0  0
    3.7320   -4.1270    0.0000 C   0  0  0  0  0  0  0  0  0  0  0  0
   15.3023    6.3822    0.0000 C   0  0  0  0  0  0  0  0  0  0  0  0
    3.7320   -5.1270    0.0000 C   0  0  0  0  0  0  0  0  0  0  0  0
    4.6783   -5.4317    0.0000 C   0  0  0  0  0  0  0  0  0  0  0  0
    2.8660   -3.6270    0.0000 C   0  0  0  0  0  0  0  0  0  0  0  0
    2.8660   -5.6270    0.0000 C   0  0  0  0  0  0  0  0  0  0  0  0
    2.0000   -4.1270    0.0000 C   0  0  0  0  0  0  0  0  0  0  0  0
    2.0000   -5.1270    0.0000 C   0  0  0  0  0  0  0  0  0  0  0  0
   10.1250    2.3749    0.0000 H   0  0  0  0  0  0  0  0  0  0  0  0
    9.5318    1.8426    0.0000 H   0  0  0  0  0  0  0  0  0  0  0  0
    9.8555    0.1851    0.0000 H   0  0  0  0  0  0  0  0  0  0  0  0
   10.4488    0.7174    0.0000 H   0  0  0  0  0  0  0  0  0  0  0  0
   11.1447    1.3418    0.0000 H   0  0  0  0  0  0  0  0  0  0  0  0
   11.7379    1.8741    0.0000 H   0  0  0  0  0  0  0  0  0  0  0  0
    8.8359    1.2182    0.0000 H   0  0  0  0  0  0  0  0  0  0  0  0
    8.2426    0.6859    0.0000 H   0  0  0  0  0  0  0  0  0  0  0  0
   11.4142    3.5316    0.0000 H   0  0  0  0  0  0  0  0  0  0  0  0
   10.8210    2.9993    0.0000 H   0  0  0  0  0  0  0  0  0  0  0  0
    8.5663   -0.9717    0.0000 H   0  0  0  0  0  0  0  0  0  0  0  0
    9.1596   -0.4394    0.0000 H   0  0  0  0  0  0  0  0  0  0  0  0
   12.4338    2.4986    0.0000 H   0  0  0  0  0  0  0  0  0  0  0  0
   13.0271    3.0309    0.0000 H   0  0  0  0  0  0  0  0  0  0  0  0
    7.5467    0.0614    0.0000 H   0  0  0  0  0  0  0  0  0  0  0  0
    6.9534   -0.4709    0.0000 H   0  0  0  0  0  0  0  0  0  0  0  0
   12.7034    4.6884    0.0000 H   0  0  0  0  0  0  0  0  0  0  0  0
   12.1101    4.1561    0.0000 H   0  0  0  0  0  0  0  0  0  0  0  0
    7.2772   -2.1284    0.0000 H   0  0  0  0  0  0  0  0  0  0  0  0
    7.8704   -1.5961    0.0000 H   0  0  0  0  0  0  0  0  0  0  0  0
   13.7230    3.6553    0.0000 H   0  0  0  0  0  0  0  0  0  0  0  0
   14.3163    4.1876    0.0000 H   0  0  0  0  0  0  0  0  0  0  0  0
    6.2575   -1.0953    0.0000 H   0  0  0  0  0  0  0  0  0  0  0  0
    5.6643   -1.6276    0.0000 H   0  0  0  0  0  0  0  0  0  0  0  0
   13.9925    5.8451    0.0000 H   0  0  0  0  0  0  0  0  0  0  0  0
   13.3993    5.3128    0.0000 H   0  0  0  0  0  0  0  0  0  0  0  0
    5.9880   -3.2851    0.0000 H   0  0  0  0  0  0  0  0  0  0  0  0
    6.5812   -2.7528    0.0000 H   0  0  0  0  0  0  0  0  0  0  0  0
   15.0122    4.8120    0.0000 H   0  0  0  0  0  0  0  0  0  0  0  0
   15.6054    5.3443    0.0000 H   0  0  0  0  0  0  0  0  0  0  0  0
    4.2408   -3.3829    0.0000 H   0  0  0  0  0  0  0  0  0  0  0  0
   15.8916    6.1896    0.0000 H   0  0  0  0  0  0  0  0  0  0  0  0
   15.4949    6.9715    0.0000 H   0  0  0  0  0  0  0  0  0  0  0  0
   14.7130    6.5748    0.0000 H   0  0  0  0  0  0  0  0  0  0  0  0
    2.8660   -3.0070    0.0000 H   0  0  0  0  0  0  0  0  0  0  0  0
    2.8660   -6.2470    0.0000 H   0  0  0  0  0  0  0  0  0  0  0  0
    1.4631   -3.8170    0.0000 H   0  0  0  0  0  0  0  0  0  0  0  0
    1.4631   -5.4370    0.0000 H   0  0  0  0  0  0  0  0  0  0  0  0
  1 17  1  0  0  0  0
  1 19  1  0  0  0  0
  2 19  1  0  0  0  0
  2 23  1  0  0  0  0
  3 23  2  0  0  0  0
  4  5  1  0  0  0  0
  4  6  1  0  0  0  0
  4 28  1  0  0  0  0
  4 29  1  0  0  0  0
  5  7  1  0  0  0  0
  5 30  1  0  0  0  0
  5 31  1  0  0  0  0
  6  8  1  0  0  0  0
  6 32  1  0  0  0  0
  6 33  1  0  0  0  0
  7  9  1  0  0  0  0
  7 34  1  0  0  0  0
  7 35  1  0  0  0  0
  8 10  1  0  0  0  0
  8 36  1  0  0  0  0
  8 37  1  0  0  0  0
  9 11  1  0  0  0  0
  9 38  1  0  0  0  0
  9 39  1  0  0  0  0
 10 12  1  0  0  0  0
 10 40  1  0  0  0  0
 10 41  1  0  0  0  0
 11 13  1  0  0  0  0
 11 42  1  0  0  0  0
 11 43  1  0  0  0  0
 12 14  1  0  0  0  0
 12 44  1  0  0  0  0
 12 45  1  0  0  0  0
 13 15  1  0  0  0  0
 13 46  1  0  0  0  0
 13 47  1  0  0  0  0
 14 16  1  0  0  0  0
 14 48  1  0  0  0  0
 14 49  1  0  0  0  0
 15 17  1  0  0  0  0
 15 50  1  0  0  0  0
 15 51  1  0  0  0  0
 16 18  1  0  0  0  0
 16 52  1  0  0  0  0
 16 53  1  0  0  0  0
 17 54  1  0  0  0  0
 17 55  1  0  0  0  0
 18 21  1  0  0  0  0
 18 56  1  0  0  0  0
 18 57  1  0  0  0  0
 19 20  1  0  0  0  0
 19 58  1  0  0  0  0
 20 22  1  0  0  0  0
 20 24  2  0  0  0  0
 21 59  1  0  0  0  0
 21 60  1  0  0  0  0
 21 61  1  0  0  0  0
 22 23  1  0  0  0  0
 22 25  2  0  0  0  0
 24 26  1  0  0  0  0
 24 62  1  0  0  0  0
 25 27  1  0  0  0  0
 25 63  1  0  0  0  0
 26 27  2  0  0  0  0
 26 64  1  0  0  0  0
 27 65  1  0  0  0  0
M  END
> <PUBCHEM_COMPOUND_CID>
517807
> <PUBCHEM_COMPOUND_CANONICALIZED>
1
> <PUBCHEM_CACTVS_COMPLEXITY>
382
> <PUBCHEM_CACTVS_HBOND_ACCEPTOR>
3
> <PUBCHEM_CACTVS_HBOND_DONOR>
0
> <PUBCHEM_CACTVS_ROTATABLE_BOND>
16
> <PUBCHEM_CACTVS_SUBSKEYS>
AAADcfB4MAAAAAAAAAAAAAAAAAAAASAAAAAwAAAAAAAAAEgBAAAAGgAAAAAADACwmAMyCIAABACIAiDSCAACAAAkAAAIiAEACMgYJjKANRiiMQAkwAEMqYfKyKCOgAAAAAAQAAAAAAAAACAAAAAAAAAAAA==
> <PUBCHEM_IUPAC_OPENEYE_NAME>
3-hexadecoxy-3H-isobenzofuran-1-one
> <PUBCHEM_IUPAC_CAS_NAME>
3-hexadecoxy-3H-isobenzofuran-1-one
> <PUBCHEM_IUPAC_NAME_MARKUP>
3-hexadecoxy-3<I>H</I>-2-benzofuran-1-one
> <PUBCHEM_IUPAC_NAME>
3-hexadecoxy-3H-2-benzofuran-1-one
> <PUBCHEM_IUPAC_SYSTEMATIC_NAME>
3-hexadecoxy-3H-2-benzofuran-1-one
> <PUBCHEM_IUPAC_TRADITIONAL_NAME>
3-cetyloxyphthalide
> <PUBCHEM_IUPAC_INCHI>
InChI=1S/C24H38O3/c1-2-3-4-5-6-7-8-9-10-11-12-13-14-17-20-26-24-22-19-16-15-18-21(22)23(25)27-24/h15-16,18-19,24H,2-14,17,20H2,1H3
> <PUBCHEM_IUPAC_INCHIKEY>
OZWCPSZFQNJWGZ-UHFFFAOYSA-N
> <PUBCHEM_XLOGP3>
8.8
> <PUBCHEM_EXACT_MASS>
374.28209507
> <PUBCHEM_MOLECULAR_FORMULA>
C24H38O3
> <PUBCHEM_MOLECULAR_WEIGHT>
374.6
> <PUBCHEM_OPENEYE_CAN_SMILES>
CCCCCCCCCCCCCCCCOC1C2=CC=CC=C2C(=O)O1
> <PUBCHEM_OPENEYE_ISO_SMILES>
CCCCCCCCCCCCCCCCOC1C2=CC=CC=C2C(=O)O1
> <PUBCHEM_CACTVS_TPSA>
35.5
> <PUBCHEM_MONOISOTOPIC_WEIGHT>
374.28209507
> <PUBCHEM_TOTAL_CHARGE>
0
> <PUBCHEM_HEAVY_ATOM_COUNT>
27
> <PUBCHEM_ATOM_DEF_STEREO_COUNT>
0
> <PUBCHEM_ATOM_UDEF_STEREO_COUNT>
1
> <PUBCHEM_BOND_DEF_STEREO_COUNT>
0
> <PUBCHEM_BOND_UDEF_STEREO_COUNT>
0
> <PUBCHEM_ISOTOPIC_ATOM_COUNT>
0
> <PUBCHEM_COMPONENT_COUNT>
1
> <PUBCHEM_CACTVS_TAUTO_COUNT>
-1
> <PUBCHEM_COORDINATE_TYPE>
1
5
255
> <PUBCHEM_BONDANNOTATIONS>
19  1  3
20  22  8
20  24  8
22  25  8
24  26  8
25  27  8
26  27  8
$$$$
