517901
  -OEChem-10302200292D
102105  0     1  0  0  0  0  0999 V2000
    7.1961   -3.1894    0.0000 O   0  0  0  0  0  0  0  0  0  0  0  0
    6.3359   -1.6860    0.0000 O   0  0  0  0  0  0  0  0  0  0  0  0
    2.8680   -2.6727    0.0000 O   0  0  0  0  0  0  0  0  0  0  0  0
    3.7282   -4.1760    0.0000 O   0  0  0  0  0  0  0  0  0  0  0  0
    2.8795    0.3273    0.0000 O   0  0  0  0  0  0  0  0  0  0  0  0
    4.6116    0.3206    0.0000 O   0  0  0  0  0  0  0  0  0  0  0  0
    5.4641   -3.1827    0.0000 N   0  0  0  0  0  0  0  0  0  0  0  0
   12.5892   -0.1370    0.0000 C   0  0  3  0  0  0  0  0  0  0  0  0
   12.5892   -1.1370    0.0000 C   0  0  3  0  0  0  0  0  0  0  0  0
   11.7232   -1.6370    0.0000 C   0  0  3  0  0  0  0  0  0  0  0  0
   10.8571   -1.1370    0.0000 C   0  0  3  0  0  0  0  0  0  0  0  0
   13.5354    0.1677    0.0000 C   0  0  3  0  0  0  0  0  0  0  0  0
   11.7232    0.3630    0.0000 C   0  0  0  0  0  0  0  0  0  0  0  0
    9.9472   -1.6439    0.0000 C   0  0  3  0  0  0  0  0  0  0  0  0
   13.5354   -1.4418    0.0000 C   0  0  0  0  0  0  0  0  0  0  0  0
   10.8571   -0.1370    0.0000 C   0  0  0  0  0  0  0  0  0  0  0  0
   14.1190   -0.6370    0.0000 C   0  0  0  0  0  0  0  0  0  0  0  0
   11.7392   -2.6785    0.0000 C   0  0  0  0  0  0  0  0  0  0  0  0
   13.8461    1.1182    0.0000 C   0  0  3  0  0  0  0  0  0  0  0  0
   12.5892    0.8630    0.0000 C   0  0  0  0  0  0  0  0  0  0  0  0
    9.9391   -2.6855    0.0000 C   0  0  0  0  0  0  0  0  0  0  0  0
    9.0203   -1.0798    0.0000 C   0  0  0  0  0  0  0  0  0  0  0  0
   10.8412   -3.2063    0.0000 C   0  0  0  0  0  0  0  0  0  0  0  0
    9.9548   -0.6439    0.0000 C   0  0  0  0  0  0  0  0  0  0  0  0
    9.0037   -3.2352    0.0000 C   0  0  0  0  0  0  0  0  0  0  0  0
    8.0724   -1.6077    0.0000 C   0  0  0  0  0  0  0  0  0  0  0  0
   14.8246    1.3244    0.0000 C   0  0  0  0  0  0  0  0  0  0  0  0
    8.0641   -2.6927    0.0000 C   0  0  3  0  0  0  0  0  0  0  0  0
   13.1782    1.8625    0.0000 C   0  0  0  0  0  0  0  0  0  0  0  0
   15.1352    2.2750    0.0000 C   0  0  0  0  0  0  0  0  0  0  0  0
   16.1138    2.4812    0.0000 C   0  0  3  0  0  0  0  0  0  0  0  0
   16.4244    3.4317    0.0000 C   0  0  0  0  0  0  0  0  0  0  0  0
   16.7816    1.7369    0.0000 C   0  0  0  0  0  0  0  0  0  0  0  0
    6.3320   -2.6860    0.0000 C   0  0  0  0  0  0  0  0  0  0  0  0
   17.4029    3.6379    0.0000 C   0  0  0  0  0  0  0  0  0  0  0  0
   15.7566    4.1760    0.0000 C   0  0  0  0  0  0  0  0  0  0  0  0
    4.6000   -2.6794    0.0000 C   0  0  3  0  0  0  0  0  0  0  0  0
    4.6038   -1.6794    0.0000 C   0  0  0  0  0  0  0  0  0  0  0  0
    3.7320   -3.1760    0.0000 C   0  0  0  0  0  0  0  0  0  0  0  0
    3.7398   -1.1760    0.0000 C   0  0  0  0  0  0  0  0  0  0  0  0
    3.7436   -0.1760    0.0000 C   0  0  0  0  0  0  0  0  0  0  0  0
    2.0000   -3.1693    0.0000 C   0  0  0  0  0  0  0  0  0  0  0  0
    2.8834    1.3273    0.0000 C   0  0  0  0  0  0  0  0  0  0  0  0
   12.6548   -1.7536    0.0000 H   0  0  0  0  0  0  0  0  0  0  0  0
   12.2625   -1.9429    0.0000 H   0  0  0  0  0  0  0  0  0  0  0  0
   11.3941   -0.8270    0.0000 H   0  0  0  0  0  0  0  0  0  0  0  0
   14.1479    0.2639    0.0000 H   0  0  0  0  0  0  0  0  0  0  0  0
   12.1217    0.8379    0.0000 H   0  0  0  0  0  0  0  0  0  0  0  0
   11.3246    0.8379    0.0000 H   0  0  0  0  0  0  0  0  0  0  0  0
   13.2844   -2.0087    0.0000 H   0  0  0  0  0  0  0  0  0  0  0  0
   14.0728   -1.7510    0.0000 H   0  0  0  0  0  0  0  0  0  0  0  0
   10.6451    0.4456    0.0000 H   0  0  0  0  0  0  0  0  0  0  0  0
   10.2466   -0.2447    0.0000 H   0  0  0  0  0  0  0  0  0  0  0  0
   14.5799   -1.0518    0.0000 H   0  0  0  0  0  0  0  0  0  0  0  0
   14.5799   -0.2223    0.0000 H   0  0  0  0  0  0  0  0  0  0  0  0
   11.9573   -3.2589    0.0000 H   0  0  0  0  0  0  0  0  0  0  0  0
   12.3484   -2.5630    0.0000 H   0  0  0  0  0  0  0  0  0  0  0  0
   13.2394    0.9904    0.0000 H   0  0  0  0  0  0  0  0  0  0  0  0
   13.2092    0.8630    0.0000 H   0  0  0  0  0  0  0  0  0  0  0  0
   12.5892    1.4830    0.0000 H   0  0  0  0  0  0  0  0  0  0  0  0
   11.9692    0.8630    0.0000 H   0  0  0  0  0  0  0  0  0  0  0  0
    9.4285   -0.6131    0.0000 H   0  0  0  0  0  0  0  0  0  0  0  0
    8.6304   -0.5978    0.0000 H   0  0  0  0  0  0  0  0  0  0  0  0
   10.8436   -3.8263    0.0000 H   0  0  0  0  0  0  0  0  0  0  0  0
   10.5748   -0.6487    0.0000 H   0  0  0  0  0  0  0  0  0  0  0  0
    9.9596   -0.0239    0.0000 H   0  0  0  0  0  0  0  0  0  0  0  0
    9.3349   -0.6391    0.0000 H   0  0  0  0  0  0  0  0  0  0  0  0
    8.6064   -3.7112    0.0000 H   0  0  0  0  0  0  0  0  0  0  0  0
    9.4047   -3.7081    0.0000 H   0  0  0  0  0  0  0  0  0  0  0  0
    7.8679   -1.0225    0.0000 H   0  0  0  0  0  0  0  0  0  0  0  0
    7.4608   -1.7091    0.0000 H   0  0  0  0  0  0  0  0  0  0  0  0
   14.8452    0.7048    0.0000 H   0  0  0  0  0  0  0  0  0  0  0  0
   15.4384    1.2371    0.0000 H   0  0  0  0  0  0  0  0  0  0  0  0
    8.0629   -3.3127    0.0000 H   0  0  0  0  0  0  0  0  0  0  0  0
   13.6397    2.2766    0.0000 H   0  0  0  0  0  0  0  0  0  0  0  0
   12.7642    2.3240    0.0000 H   0  0  0  0  0  0  0  0  0  0  0  0
   12.7168    1.4485    0.0000 H   0  0  0  0  0  0  0  0  0  0  0  0
   15.1147    2.8946    0.0000 H   0  0  0  0  0  0  0  0  0  0  0  0
   14.5214    2.3623    0.0000 H   0  0  0  0  0  0  0  0  0  0  0  0
   16.7204    2.6090    0.0000 H   0  0  0  0  0  0  0  0  0  0  0  0
   16.6170    4.0210    0.0000 H   0  0  0  0  0  0  0  0  0  0  0  0
   16.3201    1.3228    0.0000 H   0  0  0  0  0  0  0  0  0  0  0  0
   17.1957    1.2754    0.0000 H   0  0  0  0  0  0  0  0  0  0  0  0
   17.2431    2.1509    0.0000 H   0  0  0  0  0  0  0  0  0  0  0  0
   17.5308    3.0312    0.0000 H   0  0  0  0  0  0  0  0  0  0  0  0
   18.0096    3.7658    0.0000 H   0  0  0  0  0  0  0  0  0  0  0  0
   17.2751    4.2446    0.0000 H   0  0  0  0  0  0  0  0  0  0  0  0
   16.2180    4.5901    0.0000 H   0  0  0  0  0  0  0  0  0  0  0  0
   15.3425    4.6375    0.0000 H   0  0  0  0  0  0  0  0  0  0  0  0
   15.2951    3.7619    0.0000 H   0  0  0  0  0  0  0  0  0  0  0  0
    5.4617   -3.8027    0.0000 H   0  0  0  0  0  0  0  0  0  0  0  0
    5.1381   -2.3714    0.0000 H   0  0  0  0  0  0  0  0  0  0  0  0
    5.2140   -1.7894    0.0000 H   0  0  0  0  0  0  0  0  0  0  0  0
    4.8181   -1.0976    0.0000 H   0  0  0  0  0  0  0  0  0  0  0  0
    3.1296   -1.0660    0.0000 H   0  0  0  0  0  0  0  0  0  0  0  0
    3.5254   -1.7578    0.0000 H   0  0  0  0  0  0  0  0  0  0  0  0
    1.6921   -2.6312    0.0000 H   0  0  0  0  0  0  0  0  0  0  0  0
    1.4619   -3.4773    0.0000 H   0  0  0  0  0  0  0  0  0  0  0  0
    2.3079   -3.7075    0.0000 H   0  0  0  0  0  0  0  0  0  0  0  0
    3.5034    1.3249    0.0000 H   0  0  0  0  0  0  0  0  0  0  0  0
    2.8857    1.9473    0.0000 H   0  0  0  0  0  0  0  0  0  0  0  0
    2.2634    1.3297    0.0000 H   0  0  0  0  0  0  0  0  0  0  0  0
  1 28  1  0  0  0  0
  1 34  1  0  0  0  0
  2 34  2  0  0  0  0
  3 39  1  0  0  0  0
  3 42  1  0  0  0  0
  4 39  2  0  0  0  0
  5 41  1  0  0  0  0
  5 43  1  0  0  0  0
  6 41  2  0  0  0  0
  7 34  1  0  0  0  0
  7 37  1  0  0  0  0
  7 91  1  0  0  0  0
  8  9  1  0  0  0  0
  8 12  1  0  0  0  0
  8 13  1  0  0  0  0
  8 20  1  0  0  0  0
  9 10  1  0  0  0  0
  9 15  1  0  0  0  0
  9 44  1  0  0  0  0
 10 11  1  0  0  0  0
 10 18  1  0  0  0  0
 10 45  1  0  0  0  0
 11 14  1  0  0  0  0
 11 16  1  0  0  0  0
 11 46  1  0  0  0  0
 12 17  1  0  0  0  0
 12 19  1  0  0  0  0
 12 47  1  0  0  0  0
 13 16  1  0  0  0  0
 13 48  1  0  0  0  0
 13 49  1  0  0  0  0
 14 21  1  0  0  0  0
 14 22  1  0  0  0  0
 14 24  1  0  0  0  0
 15 17  1  0  0  0  0
 15 50  1  0  0  0  0
 15 51  1  0  0  0  0
 16 52  1  0  0  0  0
 16 53  1  0  0  0  0
 17 54  1  0  0  0  0
 17 55  1  0  0  0  0
 18 23  1  0  0  0  0
 18 56  1  0  0  0  0
 18 57  1  0  0  0  0
 19 27  1  0  0  0  0
 19 29  1  0  0  0  0
 19 58  1  0  0  0  0
 20 59  1  0  0  0  0
 20 60  1  0  0  0  0
 20 61  1  0  0  0  0
 21 23  2  0  0  0  0
 21 25  1  0  0  0  0
 22 26  1  0  0  0  0
 22 62  1  0  0  0  0
 22 63  1  0  0  0  0
 23 64  1  0  0  0  0
 24 65  1  0  0  0  0
 24 66  1  0  0  0  0
 24 67  1  0  0  0  0
 25 28  1  0  0  0  0
 25 68  1  0  0  0  0
 25 69  1  0  0  0  0
 26 28  1  0  0  0  0
 26 70  1  0  0  0  0
 26 71  1  0  0  0  0
 27 30  1  0  0  0  0
 27 72  1  0  0  0  0
 27 73  1  0  0  0  0
 28 74  1  0  0  0  0
 29 75  1  0  0  0  0
 29 76  1  0  0  0  0
 29 77  1  0  0  0  0
 30 31  1  0  0  0  0
 30 78  1  0  0  0  0
 30 79  1  0  0  0  0
 31 32  1  0  0  0  0
 31 33  1  0  0  0  0
 31 80  1  0  0  0  0
 32 35  1  0  0  0  0
 32 36  1  0  0  0  0
 32 81  1  0  0  0  0
 33 82  1  0  0  0  0
 33 83  1  0  0  0  0
 33 84  1  0  0  0  0
 35 85  1  0  0  0  0
 35 86  1  0  0  0  0
 35 87  1  0  0  0  0
 36 88  1  0  0  0  0
 36 89  1  0  0  0  0
 36 90  1  0  0  0  0
 37 38  1  0  0  0  0
 37 39  1  0  0  0  0
 37 92  1  0  0  0  0
 38 40  1  0  0  0  0
 38 93  1  0  0  0  0
 38 94  1  0  0  0  0
 40 41  1  0  0  0  0
 40 95  1  0  0  0  0
 40 96  1  0  0  0  0
 42 97  1  0  0  0  0
 42 98  1  0  0  0  0
 42 99  1  0  0  0  0
 43100  1  0  0  0  0
 43101  1  0  0  0  0
 43102  1  0  0  0  0
M  END
> <PUBCHEM_COMPOUND_CID>
517901
> <PUBCHEM_COMPOUND_CANONICALIZED>
1
> <PUBCHEM_CACTVS_COMPLEXITY>
1040
> <PUBCHEM_CACTVS_HBOND_ACCEPTOR>
6
> <PUBCHEM_CACTVS_HBOND_DONOR>
1
> <PUBCHEM_CACTVS_ROTATABLE_BOND>
14
> <PUBCHEM_CACTVS_SUBSKEYS>
AAADcfB+OAAAAAAAAAAAAAAAAAAAAYAAAAAwYIAAAAAAAGCAAAAAHgAQAAAADzzhgAYCCALABACIAiDSGAAAAAAgAAAACIGIAAkCABIAgSANAAAE1gAYAAOs5vgPgAAAAAAAAADAAAQAACAAAQAACAAAAA==
> <PUBCHEM_IUPAC_OPENEYE_NAME>
dimethyl 2-[[10,13-dimethyl-17-(1,4,5-trimethylhexyl)-2,3,4,7,8,9,11,12,14,15,16,17-dodecahydro-1H-cyclopenta[a]phenanthren-3-yl]oxycarbonylamino]pentanedioate
> <PUBCHEM_IUPAC_CAS_NAME>
2-[[[17-(5,6-dimethylheptan-2-yl)-10,13-dimethyl-2,3,4,7,8,9,11,12,14,15,16,17-dodecahydro-1H-cyclopenta[a]phenanthren-3-yl]oxy-oxomethyl]amino]pentanedioic acid dimethyl ester
> <PUBCHEM_IUPAC_NAME_MARKUP>
dimethyl 2-[[17-(5,6-dimethylheptan-2-yl)-10,13-dimethyl-2,3,4,7,8,9,11,12,14,15,16,17-dodecahydro-1<I>H</I>-cyclopenta[a]phenanthren-3-yl]oxycarbonylamino]pentanedioate
> <PUBCHEM_IUPAC_NAME>
dimethyl 2-[[17-(5,6-dimethylheptan-2-yl)-10,13-dimethyl-2,3,4,7,8,9,11,12,14,15,16,17-dodecahydro-1H-cyclopenta[a]phenanthren-3-yl]oxycarbonylamino]pentanedioate
> <PUBCHEM_IUPAC_SYSTEMATIC_NAME>
dimethyl 2-[[17-(5,6-dimethylheptan-2-yl)-10,13-dimethyl-2,3,4,7,8,9,11,12,14,15,16,17-dodecahydro-1H-cyclopenta[a]phenanthren-3-yl]oxycarbonylamino]pentanedioate
> <PUBCHEM_IUPAC_TRADITIONAL_NAME>
2-[[10,13-dimethyl-17-(1,4,5-trimethylhexyl)-2,3,4,7,8,9,11,12,14,15,16,17-dodecahydro-1H-cyclopenta[a]phenanthren-3-yl]oxycarbonylamino]glutaric acid dimethyl ester
> <PUBCHEM_IUPAC_INCHI>
InChI=1S/C36H59NO6/c1-22(2)23(3)9-10-24(4)28-13-14-29-27-12-11-25-21-26(17-19-35(25,5)30(27)18-20-36(28,29)6)43-34(40)37-31(33(39)42-8)15-16-32(38)41-7/h11,22-24,26-31H,9-10,12-21H2,1-8H3,(H,37,40)
> <PUBCHEM_IUPAC_INCHIKEY>
AKBJDAPKDCGLBG-UHFFFAOYSA-N
> <PUBCHEM_XLOGP3_AA>
9.3
> <PUBCHEM_EXACT_MASS>
601.43423860
> <PUBCHEM_MOLECULAR_FORMULA>
C36H59NO6
> <PUBCHEM_MOLECULAR_WEIGHT>
601.9
> <PUBCHEM_OPENEYE_CAN_SMILES>
CC(C)C(C)CCC(C)C1CCC2C1(CCC3C2CC=C4C3(CCC(C4)OC(=O)NC(CCC(=O)OC)C(=O)OC)C)C
> <PUBCHEM_OPENEYE_ISO_SMILES>
CC(C)C(C)CCC(C)C1CCC2C1(CCC3C2CC=C4C3(CCC(C4)OC(=O)NC(CCC(=O)OC)C(=O)OC)C)C
> <PUBCHEM_CACTVS_TPSA>
90.9
> <PUBCHEM_MONOISOTOPIC_WEIGHT>
601.43423860
> <PUBCHEM_TOTAL_CHARGE>
0
> <PUBCHEM_HEAVY_ATOM_COUNT>
43
> <PUBCHEM_ATOM_DEF_STEREO_COUNT>
0
> <PUBCHEM_ATOM_UDEF_STEREO_COUNT>
10
> <PUBCHEM_BOND_DEF_STEREO_COUNT>
0
> <PUBCHEM_BOND_UDEF_STEREO_COUNT>
0
> <PUBCHEM_ISOTOPIC_ATOM_COUNT>
0
> <PUBCHEM_COMPONENT_COUNT>
1
> <PUBCHEM_CACTVS_TAUTO_COUNT>
-1
> <PUBCHEM_COORDINATE_TYPE>
1
5
255
> <PUBCHEM_BONDANNOTATIONS>
28  1  3
10  18  3
11  16  3
12  17  3
14  24  3
19  29  3
31  33  3
37  38  3
8  20  3
9  15  3
$$$$
