517989
  -OEChem-10302200292D
 41 41  0     1  0  0  0  0  0999 V2000
    6.3301   -1.5670    0.0000 O   0  0  0  0  0  0  0  0  0  0  0  0
    3.7320   -1.0670    0.0000 C   0  0  3  0  0  0  0  0  0  0  0  0
    4.5981    0.4330    0.0000 C   0  0  3  0  0  0  0  0  0  0  0  0
    3.7320   -0.0670    0.0000 C   0  0  0  0  0  0  0  0  0  0  0  0
    2.8660   -1.5670    0.0000 C   0  0  0  0  0  0  0  0  0  0  0  0
    4.5981    1.4330    0.0000 C   0  0  0  0  0  0  0  0  0  0  0  0
    4.5981   -1.5670    0.0000 C   0  0  0  0  0  0  0  0  0  0  0  0
    5.4641   -0.0670    0.0000 C   0  0  0  0  0  0  0  0  0  0  0  0
    5.4641   -1.0670    0.0000 C   0  0  0  0  0  0  0  0  0  0  0  0
    2.0000   -2.0670    0.0000 C   0  0  0  0  0  0  0  0  0  0  0  0
    3.3660   -2.4330    0.0000 C   0  0  0  0  0  0  0  0  0  0  0  0
    2.3660   -0.7010    0.0000 C   0  0  0  0  0  0  0  0  0  0  0  0
    4.5981    2.4330    0.0000 C   0  0  0  0  0  0  0  0  0  0  0  0
    5.5981    1.4330    0.0000 C   0  0  0  0  0  0  0  0  0  0  0  0
    3.5981    1.4330    0.0000 C   0  0  0  0  0  0  0  0  0  0  0  0
    3.7320   -1.6870    0.0000 H   0  0  0  0  0  0  0  0  0  0  0  0
    5.1350    0.7430    0.0000 H   0  0  0  0  0  0  0  0  0  0  0  0
    3.5200    0.5156    0.0000 H   0  0  0  0  0  0  0  0  0  0  0  0
    3.1215   -0.1746    0.0000 H   0  0  0  0  0  0  0  0  0  0  0  0
    4.1996   -2.0419    0.0000 H   0  0  0  0  0  0  0  0  0  0  0  0
    4.9966   -2.0419    0.0000 H   0  0  0  0  0  0  0  0  0  0  0  0
    6.0747   -0.1746    0.0000 H   0  0  0  0  0  0  0  0  0  0  0  0
    5.6762    0.5156    0.0000 H   0  0  0  0  0  0  0  0  0  0  0  0
    1.6900   -1.5300    0.0000 H   0  0  0  0  0  0  0  0  0  0  0  0
    1.4631   -2.3770    0.0000 H   0  0  0  0  0  0  0  0  0  0  0  0
    2.3100   -2.6039    0.0000 H   0  0  0  0  0  0  0  0  0  0  0  0
    2.8291   -2.7430    0.0000 H   0  0  0  0  0  0  0  0  0  0  0  0
    3.6760   -2.9700    0.0000 H   0  0  0  0  0  0  0  0  0  0  0  0
    3.9030   -2.1230    0.0000 H   0  0  0  0  0  0  0  0  0  0  0  0
    2.9030   -0.3910    0.0000 H   0  0  0  0  0  0  0  0  0  0  0  0
    2.0560   -0.1640    0.0000 H   0  0  0  0  0  0  0  0  0  0  0  0
    1.8291   -1.0110    0.0000 H   0  0  0  0  0  0  0  0  0  0  0  0
    5.2181    2.4330    0.0000 H   0  0  0  0  0  0  0  0  0  0  0  0
    4.5981    3.0530    0.0000 H   0  0  0  0  0  0  0  0  0  0  0  0
    3.9781    2.4330    0.0000 H   0  0  0  0  0  0  0  0  0  0  0  0
    5.5981    0.8130    0.0000 H   0  0  0  0  0  0  0  0  0  0  0  0
    6.2181    1.4330    0.0000 H   0  0  0  0  0  0  0  0  0  0  0  0
    5.5981    2.0530    0.0000 H   0  0  0  0  0  0  0  0  0  0  0  0
    3.5981    2.0530    0.0000 H   0  0  0  0  0  0  0  0  0  0  0  0
    2.9781    1.4330    0.0000 H   0  0  0  0  0  0  0  0  0  0  0  0
    3.5981    0.8130    0.0000 H   0  0  0  0  0  0  0  0  0  0  0  0
  1  9  2  0  0  0  0
  2  4  1  0  0  0  0
  2  5  1  0  0  0  0
  2  7  1  0  0  0  0
  2 16  1  0  0  0  0
  3  4  1  0  0  0  0
  3  6  1  0  0  0  0
  3  8  1  0  0  0  0
  3 17  1  0  0  0  0
  4 18  1  0  0  0  0
  4 19  1  0  0  0  0
  5 10  1  0  0  0  0
  5 11  1  0  0  0  0
  5 12  1  0  0  0  0
  6 13  1  0  0  0  0
  6 14  1  0  0  0  0
  6 15  1  0  0  0  0
  7  9  1  0  0  0  0
  7 20  1  0  0  0  0
  7 21  1  0  0  0  0
  8  9  1  0  0  0  0
  8 22  1  0  0  0  0
  8 23  1  0  0  0  0
 10 24  1  0  0  0  0
 10 25  1  0  0  0  0
 10 26  1  0  0  0  0
 11 27  1  0  0  0  0
 11 28  1  0  0  0  0
 11 29  1  0  0  0  0
 12 30  1  0  0  0  0
 12 31  1  0  0  0  0
 12 32  1  0  0  0  0
 13 33  1  0  0  0  0
 13 34  1  0  0  0  0
 13 35  1  0  0  0  0
 14 36  1  0  0  0  0
 14 37  1  0  0  0  0
 14 38  1  0  0  0  0
 15 39  1  0  0  0  0
 15 40  1  0  0  0  0
 15 41  1  0  0  0  0
M  END
> <PUBCHEM_COMPOUND_CID>
517989
> <PUBCHEM_COMPOUND_CANONICALIZED>
1
> <PUBCHEM_CACTVS_COMPLEXITY>
215
> <PUBCHEM_CACTVS_HBOND_ACCEPTOR>
1
> <PUBCHEM_CACTVS_HBOND_DONOR>
0
> <PUBCHEM_CACTVS_ROTATABLE_BOND>
2
> <PUBCHEM_CACTVS_SUBSKEYS>
AAADceBwIAAAAAAAAAAAAAAAAAAAAAAAAAAwAAAAAAAAAAAAAAAAGgAAAAAADwSAgAACAAAAAAAIAIAQAAAAAAAAAAAAAAEAAAAAABIAAAAAAAAAAAAAAAEIiMCPgAAAAAAAAAAAAAQAAAAAAAAAAAAAAA==
> <PUBCHEM_IUPAC_OPENEYE_NAME>
3,5-ditert-butylcyclohexanone
> <PUBCHEM_IUPAC_CAS_NAME>
3,5-ditert-butyl-1-cyclohexanone
> <PUBCHEM_IUPAC_NAME_MARKUP>
3,5-di<I>tert</I>-butylcyclohexan-1-one
> <PUBCHEM_IUPAC_NAME>
3,5-ditert-butylcyclohexan-1-one
> <PUBCHEM_IUPAC_SYSTEMATIC_NAME>
3,5-ditert-butylcyclohexan-1-one
> <PUBCHEM_IUPAC_TRADITIONAL_NAME>
3,5-ditert-butylcyclohexanone
> <PUBCHEM_IUPAC_INCHI>
InChI=1S/C14H26O/c1-13(2,3)10-7-11(14(4,5)6)9-12(15)8-10/h10-11H,7-9H2,1-6H3
> <PUBCHEM_IUPAC_INCHIKEY>
VTGCARYDRSRJMW-UHFFFAOYSA-N
> <PUBCHEM_XLOGP3_AA>
4.2
> <PUBCHEM_EXACT_MASS>
210.198365449
> <PUBCHEM_MOLECULAR_FORMULA>
C14H26O
> <PUBCHEM_MOLECULAR_WEIGHT>
210.36
> <PUBCHEM_OPENEYE_CAN_SMILES>
CC(C)(C)C1CC(CC(=O)C1)C(C)(C)C
> <PUBCHEM_OPENEYE_ISO_SMILES>
CC(C)(C)C1CC(CC(=O)C1)C(C)(C)C
> <PUBCHEM_CACTVS_TPSA>
17.1
> <PUBCHEM_MONOISOTOPIC_WEIGHT>
210.198365449
> <PUBCHEM_TOTAL_CHARGE>
0
> <PUBCHEM_HEAVY_ATOM_COUNT>
15
> <PUBCHEM_ATOM_DEF_STEREO_COUNT>
0
> <PUBCHEM_ATOM_UDEF_STEREO_COUNT>
2
> <PUBCHEM_BOND_DEF_STEREO_COUNT>
0
> <PUBCHEM_BOND_UDEF_STEREO_COUNT>
0
> <PUBCHEM_ISOTOPIC_ATOM_COUNT>
0
> <PUBCHEM_COMPONENT_COUNT>
1
> <PUBCHEM_CACTVS_TAUTO_COUNT>
-1
> <PUBCHEM_COORDINATE_TYPE>
1
5
255
> <PUBCHEM_BONDANNOTATIONS>
2  5  3
3  6  3
$$$$
