517999
  -OEChem-10302200292D
 45 47  0     1  0  0  0  0  0999 V2000
    4.5124    0.0000    0.0000 Br  0  0  0  0  0  0  0  0  0  0  0  0
    0.0000    4.2552    0.0000 O   0  0  0  0  0  0  0  0  0  0  0  0
    5.3728    4.2496    0.0000 O   0  0  0  0  0  0  0  0  0  0  0  0
    5.8210    5.9227    0.0000 O   0  0  0  0  0  0  0  0  0  0  0  0
    8.2705    3.4732    0.0000 O   0  0  0  0  0  0  0  0  0  0  0  0
    1.8802    6.6223    0.0000 N   0  0  0  0  0  0  0  0  0  0  0  0
    0.6433    5.0214    0.0000 C   0  0  3  0  0  0  0  0  0  0  0  0
    0.9853    4.0818    0.0000 C   0  0  3  0  0  0  0  0  0  0  0  0
    2.6168    5.6397    0.0000 C   0  0  3  0  0  0  0  0  0  0  0  0
    2.3580    4.6738    0.0000 C   0  0  3  0  0  0  0  0  0  0  0  0
    4.0485    5.4420    0.0000 C   0  0  0  0  0  0  0  0  0  0  0  0
    3.6297    3.8791    0.0000 C   0  0  0  0  0  0  0  0  0  0  0  0
    4.4068    4.5084    0.0000 C   0  0  0  0  0  0  0  0  0  0  0  0
    1.3802    7.4883    0.0000 C   0  0  0  0  0  0  0  0  0  0  0  0
    6.0799    4.9567    0.0000 C   0  0  0  0  0  0  0  0  0  0  0  0
    7.0458    4.6979    0.0000 C   0  0  3  0  0  0  0  0  0  0  0  0
    7.3046    3.7320    0.0000 C   0  0  0  0  0  0  0  0  0  0  0  0
    7.7529    5.4050    0.0000 C   0  0  0  0  0  0  0  0  0  0  0  0
    7.4941    6.3710    0.0000 C   0  0  0  0  0  0  0  0  0  0  0  0
    8.7188    5.1462    0.0000 C   0  0  0  0  0  0  0  0  0  0  0  0
    8.2012    7.0781    0.0000 C   0  0  0  0  0  0  0  0  0  0  0  0
    9.4259    5.8533    0.0000 C   0  0  0  0  0  0  0  0  0  0  0  0
    9.1671    6.8192    0.0000 C   0  0  0  0  0  0  0  0  0  0  0  0
    0.2994    5.5373    0.0000 H   0  0  0  0  0  0  0  0  0  0  0  0
    1.0573    3.4660    0.0000 H   0  0  0  0  0  0  0  0  0  0  0  0
    2.9315    6.1739    0.0000 H   0  0  0  0  0  0  0  0  0  0  0  0
    2.8603    5.0372    0.0000 H   0  0  0  0  0  0  0  0  0  0  0  0
    4.6563    5.5644    0.0000 H   0  0  0  0  0  0  0  0  0  0  0  0
    4.0294    6.0617    0.0000 H   0  0  0  0  0  0  0  0  0  0  0  0
    3.2451    3.3928    0.0000 H   0  0  0  0  0  0  0  0  0  0  0  0
    4.0706    3.4433    0.0000 H   0  0  0  0  0  0  0  0  0  0  0  0
    4.5357    3.9020    0.0000 H   0  0  0  0  0  0  0  0  0  0  0  0
    1.9171    7.7983    0.0000 H   0  0  0  0  0  0  0  0  0  0  0  0
    1.0702    8.0253    0.0000 H   0  0  0  0  0  0  0  0  0  0  0  0
    0.8433    7.1783    0.0000 H   0  0  0  0  0  0  0  0  0  0  0  0
    6.6074    4.2595    0.0000 H   0  0  0  0  0  0  0  0  0  0  0  0
    6.6870    3.6780    0.0000 H   0  0  0  0  0  0  0  0  0  0  0  0
    7.2506    3.1144    0.0000 H   0  0  0  0  0  0  0  0  0  0  0  0
    6.8952    6.5314    0.0000 H   0  0  0  0  0  0  0  0  0  0  0  0
    8.8793    4.5473    0.0000 H   0  0  0  0  0  0  0  0  0  0  0  0
    8.4310    2.8743    0.0000 H   0  0  0  0  0  0  0  0  0  0  0  0
    8.0407    7.6769    0.0000 H   0  0  0  0  0  0  0  0  0  0  0  0
   10.0248    5.6928    0.0000 H   0  0  0  0  0  0  0  0  0  0  0  0
    9.6055    7.2576    0.0000 H   0  0  0  0  0  0  0  0  0  0  0  0
    5.5124    0.0000    0.0000 H   0  0  0  0  0  0  0  0  0  0  0  0
  1 45  1  0  0  0  0
  2  7  1  0  0  0  0
  2  8  1  0  0  0  0
  3 13  1  0  0  0  0
  3 15  1  0  0  0  0
  4 15  2  0  0  0  0
  5 17  1  0  0  0  0
  5 41  1  0  0  0  0
  6  9  1  0  0  0  0
  6 10  1  0  0  0  0
  6 14  1  0  0  0  0
  7  8  1  0  0  0  0
  7  9  1  0  0  0  0
  7 24  1  0  0  0  0
  8 10  1  0  0  0  0
  8 25  1  0  0  0  0
  9 11  1  0  0  0  0
  9 26  1  0  0  0  0
 10 12  1  0  0  0  0
 10 27  1  0  0  0  0
 11 13  1  0  0  0  0
 11 28  1  0  0  0  0
 11 29  1  0  0  0  0
 12 13  1  0  0  0  0
 12 30  1  0  0  0  0
 12 31  1  0  0  0  0
 13 32  1  0  0  0  0
 14 33  1  0  0  0  0
 14 34  1  0  0  0  0
 14 35  1  0  0  0  0
 15 16  1  0  0  0  0
 16 17  1  0  0  0  0
 16 18  1  0  0  0  0
 16 36  1  0  0  0  0
 17 37  1  0  0  0  0
 17 38  1  0  0  0  0
 18 19  2  0  0  0  0
 18 20  1  0  0  0  0
 19 21  1  0  0  0  0
 19 39  1  0  0  0  0
 20 22  2  0  0  0  0
 20 40  1  0  0  0  0
 21 23  2  0  0  0  0
 21 42  1  0  0  0  0
 22 23  1  0  0  0  0
 22 43  1  0  0  0  0
 23 44  1  0  0  0  0
M  END
> <PUBCHEM_COMPOUND_CID>
517999
> <PUBCHEM_COMPOUND_CANONICALIZED>
1
> <PUBCHEM_CACTVS_COMPLEXITY>
418
> <PUBCHEM_CACTVS_HBOND_ACCEPTOR>
5
> <PUBCHEM_CACTVS_HBOND_DONOR>
2
> <PUBCHEM_CACTVS_ROTATABLE_BOND>
5
> <PUBCHEM_CACTVS_SUBSKEYS>
AAADceB6OAAAEAAAAAAAAAAAEgAAAWAAAAA8WIAABgAAAAABAAAAHgAACAAADTzhmAYyCIMABgCIAiDSCAACAAAgAAAIiAEIAIgKMDaAlRCHYAAn4AGYiAfY6OyOgAAAAAAAAAAAAAAAAAAAAAAAAAAAAA==
> <PUBCHEM_IUPAC_OPENEYE_NAME>
(9-methyl-3-oxa-9-azatricyclo[3.3.1.02,4]nonan-7-yl) 3-hydroxy-2-phenyl-propanoate;hydrobromide
> <PUBCHEM_IUPAC_CAS_NAME>
3-hydroxy-2-phenylpropanoic acid (9-methyl-3-oxa-9-azatricyclo[3.3.1.02,4]nonan-7-yl) ester;hydrobromide
> <PUBCHEM_IUPAC_NAME_MARKUP>
(9-methyl-3-oxa-9-azatricyclo[3.3.1.0<SUP>2,4</SUP>]nonan-7-yl) 3-hydroxy-2-phenylpropanoate;hydrobromide
> <PUBCHEM_IUPAC_NAME>
(9-methyl-3-oxa-9-azatricyclo[3.3.1.02,4]nonan-7-yl) 3-hydroxy-2-phenylpropanoate;hydrobromide
> <PUBCHEM_IUPAC_SYSTEMATIC_NAME>
(9-methyl-3-oxa-9-azatricyclo[3.3.1.02,4]nonan-7-yl) 3-oxidanyl-2-phenyl-propanoate;hydrobromide
> <PUBCHEM_IUPAC_TRADITIONAL_NAME>
3-hydroxy-2-phenyl-propionic acid (9-methyl-3-oxa-9-azatricyclo[3.3.1.02,4]nonan-7-yl) ester;hydrobromide
> <PUBCHEM_IUPAC_INCHI>
InChI=1S/C17H21NO4.BrH/c1-18-13-7-11(8-14(18)16-15(13)22-16)21-17(20)12(9-19)10-5-3-2-4-6-10;/h2-6,11-16,19H,7-9H2,1H3;1H
> <PUBCHEM_IUPAC_INCHIKEY>
WTGQALLALWYDJH-UHFFFAOYSA-N
> <PUBCHEM_EXACT_MASS>
383.07322
> <PUBCHEM_MOLECULAR_FORMULA>
C17H22BrNO4
> <PUBCHEM_MOLECULAR_WEIGHT>
384.3
> <PUBCHEM_OPENEYE_CAN_SMILES>
CN1C2CC(CC1C3C2O3)OC(=O)C(CO)C4=CC=CC=C4.Br
> <PUBCHEM_OPENEYE_ISO_SMILES>
CN1C2CC(CC1C3C2O3)OC(=O)C(CO)C4=CC=CC=C4.Br
> <PUBCHEM_CACTVS_TPSA>
62.3
> <PUBCHEM_MONOISOTOPIC_WEIGHT>
383.07322
> <PUBCHEM_TOTAL_CHARGE>
0
> <PUBCHEM_HEAVY_ATOM_COUNT>
23
> <PUBCHEM_ATOM_DEF_STEREO_COUNT>
0
> <PUBCHEM_ATOM_UDEF_STEREO_COUNT>
5
> <PUBCHEM_BOND_DEF_STEREO_COUNT>
0
> <PUBCHEM_BOND_UDEF_STEREO_COUNT>
0
> <PUBCHEM_ISOTOPIC_ATOM_COUNT>
0
> <PUBCHEM_COMPONENT_COUNT>
2
> <PUBCHEM_CACTVS_TAUTO_COUNT>
1
> <PUBCHEM_COORDINATE_TYPE>
1
5
255
> <PUBCHEM_BONDANNOTATIONS>
10  12  3
16  17  3
18  19  8
18  20  8
19  21  8
7  2  3
8  2  3
20  22  8
21  23  8
22  23  8
9  11  3
$$$$
