517915
  -OEChem-10302200292D
 49 52  0     1  0  0  0  0  0999 V2000
    3.8114   -2.7406    0.0000 Cl  0  0  0  0  0  0  0  0  0  0  0  0
    8.6500    2.6128    0.0000 O   0  0  0  0  0  0  0  0  0  0  0  0
    2.0000   -1.6948    0.0000 O   0  0  0  0  0  0  0  0  0  0  0  0
    7.3931    0.3575    0.0000 C   0  0  3  0  0  0  0  0  0  0  0  0
    7.3931    1.3575    0.0000 C   0  0  3  0  0  0  0  0  0  0  0  0
    6.5271   -0.1425    0.0000 C   0  0  3  0  0  0  0  0  0  0  0  0
    5.6610    0.3575    0.0000 C   0  0  3  0  0  0  0  0  0  0  0  0
    4.7510   -0.1493    0.0000 C   0  0  3  0  0  0  0  0  0  0  0  0
    6.5271    1.8575    0.0000 C   0  0  0  0  0  0  0  0  0  0  0  0
    5.6610    1.3575    0.0000 C   0  0  0  0  0  0  0  0  0  0  0  0
    8.3393    1.6623    0.0000 C   0  0  3  0  0  0  0  0  0  0  0  0
    8.3393    0.0528    0.0000 C   0  0  0  0  0  0  0  0  0  0  0  0
    6.5431   -1.1840    0.0000 C   0  0  0  0  0  0  0  0  0  0  0  0
    8.9229    0.8575    0.0000 C   0  0  0  0  0  0  0  0  0  0  0  0
    4.7430   -1.1909    0.0000 C   0  0  0  0  0  0  0  0  0  0  0  0
    5.6451   -1.7117    0.0000 C   0  0  0  0  0  0  0  0  0  0  0  0
    7.3931    2.3575    0.0000 C   0  0  0  0  0  0  0  0  0  0  0  0
    3.8242    0.4148    0.0000 C   0  0  0  0  0  0  0  0  0  0  0  0
    4.7587    0.8507    0.0000 C   0  0  0  0  0  0  0  0  0  0  0  0
    2.8763   -0.1132    0.0000 C   0  0  0  0  0  0  0  0  0  0  0  0
    3.8076   -1.7406    0.0000 C   0  0  0  0  0  0  0  0  0  0  0  0
    2.8680   -1.1982    0.0000 C   0  0  0  0  0  0  0  0  0  0  0  0
    7.4587   -0.2590    0.0000 H   0  0  0  0  0  0  0  0  0  0  0  0
    7.0664   -0.4483    0.0000 H   0  0  0  0  0  0  0  0  0  0  0  0
    6.1980    0.6675    0.0000 H   0  0  0  0  0  0  0  0  0  0  0  0
    6.9256    2.3325    0.0000 H   0  0  0  0  0  0  0  0  0  0  0  0
    6.1285    2.3325    0.0000 H   0  0  0  0  0  0  0  0  0  0  0  0
    5.4490    1.9401    0.0000 H   0  0  0  0  0  0  0  0  0  0  0  0
    5.0504    1.2499    0.0000 H   0  0  0  0  0  0  0  0  0  0  0  0
    7.9018    2.1016    0.0000 H   0  0  0  0  0  0  0  0  0  0  0  0
    8.0883   -0.5141    0.0000 H   0  0  0  0  0  0  0  0  0  0  0  0
    8.8767   -0.2564    0.0000 H   0  0  0  0  0  0  0  0  0  0  0  0
    6.7612   -1.7644    0.0000 H   0  0  0  0  0  0  0  0  0  0  0  0
    7.1523   -1.0685    0.0000 H   0  0  0  0  0  0  0  0  0  0  0  0
    9.3838    0.4428    0.0000 H   0  0  0  0  0  0  0  0  0  0  0  0
    9.3838    1.2723    0.0000 H   0  0  0  0  0  0  0  0  0  0  0  0
    5.2478   -2.1877    0.0000 H   0  0  0  0  0  0  0  0  0  0  0  0
    6.0460   -2.1846    0.0000 H   0  0  0  0  0  0  0  0  0  0  0  0
    8.0131    2.3575    0.0000 H   0  0  0  0  0  0  0  0  0  0  0  0
    7.3931    2.9775    0.0000 H   0  0  0  0  0  0  0  0  0  0  0  0
    6.7731    2.3575    0.0000 H   0  0  0  0  0  0  0  0  0  0  0  0
    4.2324    0.8814    0.0000 H   0  0  0  0  0  0  0  0  0  0  0  0
    3.4343    0.8968    0.0000 H   0  0  0  0  0  0  0  0  0  0  0  0
    5.3787    0.8459    0.0000 H   0  0  0  0  0  0  0  0  0  0  0  0
    4.7635    1.4706    0.0000 H   0  0  0  0  0  0  0  0  0  0  0  0
    4.1388    0.8554    0.0000 H   0  0  0  0  0  0  0  0  0  0  0  0
    2.6718    0.4721    0.0000 H   0  0  0  0  0  0  0  0  0  0  0  0
    2.2647   -0.2146    0.0000 H   0  0  0  0  0  0  0  0  0  0  0  0
    9.2566    2.7406    0.0000 H   0  0  0  0  0  0  0  0  0  0  0  0
  1 21  1  0  0  0  0
  2 11  1  0  0  0  0
  2 49  1  0  0  0  0
  3 22  2  0  0  0  0
  4  5  1  0  0  0  0
  4  6  1  0  0  0  0
  4 12  1  0  0  0  0
  4 23  1  0  0  0  0
  5  9  1  0  0  0  0
  5 11  1  0  0  0  0
  5 17  1  0  0  0  0
  6  7  1  0  0  0  0
  6 13  1  0  0  0  0
  6 24  1  0  0  0  0
  7  8  1  0  0  0  0
  7 10  1  0  0  0  0
  7 25  1  0  0  0  0
  8 15  1  0  0  0  0
  8 18  1  0  0  0  0
  8 19  1  0  0  0  0
  9 10  1  0  0  0  0
  9 26  1  0  0  0  0
  9 27  1  0  0  0  0
 10 28  1  0  0  0  0
 10 29  1  0  0  0  0
 11 14  1  0  0  0  0
 11 30  1  0  0  0  0
 12 14  1  0  0  0  0
 12 31  1  0  0  0  0
 12 32  1  0  0  0  0
 13 16  1  0  0  0  0
 13 33  1  0  0  0  0
 13 34  1  0  0  0  0
 14 35  1  0  0  0  0
 14 36  1  0  0  0  0
 15 16  1  0  0  0  0
 15 21  2  0  0  0  0
 16 37  1  0  0  0  0
 16 38  1  0  0  0  0
 17 39  1  0  0  0  0
 17 40  1  0  0  0  0
 17 41  1  0  0  0  0
 18 20  1  0  0  0  0
 18 42  1  0  0  0  0
 18 43  1  0  0  0  0
 19 44  1  0  0  0  0
 19 45  1  0  0  0  0
 19 46  1  0  0  0  0
 20 22  1  0  0  0  0
 20 47  1  0  0  0  0
 20 48  1  0  0  0  0
 21 22  1  0  0  0  0
M  END
> <PUBCHEM_COMPOUND_CID>
517915
> <PUBCHEM_COMPOUND_CANONICALIZED>
1
> <PUBCHEM_CACTVS_COMPLEXITY>
554
> <PUBCHEM_CACTVS_HBOND_ACCEPTOR>
2
> <PUBCHEM_CACTVS_HBOND_DONOR>
1
> <PUBCHEM_CACTVS_ROTATABLE_BOND>
0
> <PUBCHEM_CACTVS_SUBSKEYS>
AAADceB4MAAEAAAAAAAAAAAAAAAAAYAAAAAwYIAAAAAAAGDAAAAAGgIACAAADxaggAICAAAAAgCIAoBQAAAAAAAgAAAACAEAAkhAEBIBAAAAQAAEgAAIAQOIyPCPgAAAAAAAAACAAAQAACAAAIAADAAAAA==
> <PUBCHEM_IUPAC_OPENEYE_NAME>
4-chloro-17-hydroxy-10,13-dimethyl-1,2,6,7,8,9,11,12,14,15,16,17-dodecahydrocyclopenta[a]phenanthren-3-one
> <PUBCHEM_IUPAC_CAS_NAME>
4-chloro-17-hydroxy-10,13-dimethyl-1,2,6,7,8,9,11,12,14,15,16,17-dodecahydrocyclopenta[a]phenanthren-3-one
> <PUBCHEM_IUPAC_NAME_MARKUP>
4-chloro-17-hydroxy-10,13-dimethyl-1,2,6,7,8,9,11,12,14,15,16,17-dodecahydrocyclopenta[a]phenanthren-3-one
> <PUBCHEM_IUPAC_NAME>
4-chloro-17-hydroxy-10,13-dimethyl-1,2,6,7,8,9,11,12,14,15,16,17-dodecahydrocyclopenta[a]phenanthren-3-one
> <PUBCHEM_IUPAC_SYSTEMATIC_NAME>
4-chloranyl-10,13-dimethyl-17-oxidanyl-1,2,6,7,8,9,11,12,14,15,16,17-dodecahydrocyclopenta[a]phenanthren-3-one
> <PUBCHEM_IUPAC_TRADITIONAL_NAME>
4-chloro-17-hydroxy-10,13-dimethyl-1,2,6,7,8,9,11,12,14,15,16,17-dodecahydrocyclopenta[a]phenanthren-3-one
> <PUBCHEM_IUPAC_INCHI>
InChI=1S/C19H27ClO2/c1-18-10-8-15(21)17(20)14(18)4-3-11-12-5-6-16(22)19(12,2)9-7-13(11)18/h11-13,16,22H,3-10H2,1-2H3
> <PUBCHEM_IUPAC_INCHIKEY>
KCZCIYZKSLLNNH-UHFFFAOYSA-N
> <PUBCHEM_XLOGP3>
4.2
> <PUBCHEM_EXACT_MASS>
322.1699578
> <PUBCHEM_MOLECULAR_FORMULA>
C19H27ClO2
> <PUBCHEM_MOLECULAR_WEIGHT>
322.9
> <PUBCHEM_OPENEYE_CAN_SMILES>
CC12CCC3C(C1CCC2O)CCC4=C(C(=O)CCC34C)Cl
> <PUBCHEM_OPENEYE_ISO_SMILES>
CC12CCC3C(C1CCC2O)CCC4=C(C(=O)CCC34C)Cl
> <PUBCHEM_CACTVS_TPSA>
37.3
> <PUBCHEM_MONOISOTOPIC_WEIGHT>
322.1699578
> <PUBCHEM_TOTAL_CHARGE>
0
> <PUBCHEM_HEAVY_ATOM_COUNT>
22
> <PUBCHEM_ATOM_DEF_STEREO_COUNT>
0
> <PUBCHEM_ATOM_UDEF_STEREO_COUNT>
6
> <PUBCHEM_BOND_DEF_STEREO_COUNT>
0
> <PUBCHEM_BOND_UDEF_STEREO_COUNT>
0
> <PUBCHEM_ISOTOPIC_ATOM_COUNT>
0
> <PUBCHEM_COMPONENT_COUNT>
1
> <PUBCHEM_CACTVS_TAUTO_COUNT>
-1
> <PUBCHEM_COORDINATE_TYPE>
1
5
255
> <PUBCHEM_BONDANNOTATIONS>
11  2  3
4  12  3
5  17  3
6  13  3
7  10  3
8  19  3
$$$$
