517927
  -OEChem-10302200292D
 60 63  0     1  0  0  0  0  0999 V2000
    8.5677    1.8625    0.0000 O   0  0  0  0  0  0  0  0  0  0  0  0
   10.5979    1.0890    0.0000 O   0  0  0  0  0  0  0  0  0  0  0  0
    2.5357   -2.4462    0.0000 O   0  0  0  0  0  0  0  0  0  0  0  0
    7.9288   -0.3938    0.0000 C   0  0  3  0  0  0  0  0  0  0  0  0
    7.9288    0.6062    0.0000 C   0  0  3  0  0  0  0  0  0  0  0  0
    7.0628   -0.8938    0.0000 C   0  0  3  0  0  0  0  0  0  0  0  0
    6.1968   -0.3938    0.0000 C   0  0  3  0  0  0  0  0  0  0  0  0
    5.2868   -0.9007    0.0000 C   0  0  3  0  0  0  0  0  0  0  0  0
    8.8750    0.9109    0.0000 C   0  0  3  0  0  0  0  0  0  0  0  0
    5.2787   -1.9423    0.0000 C   0  0  3  0  0  0  0  0  0  0  0  0
    7.0628    1.1062    0.0000 C   0  0  0  0  0  0  0  0  0  0  0  0
    6.1968    0.6062    0.0000 C   0  0  0  0  0  0  0  0  0  0  0  0
    8.8750   -0.6986    0.0000 C   0  0  0  0  0  0  0  0  0  0  0  0
    7.0789   -1.9353    0.0000 C   0  0  0  0  0  0  0  0  0  0  0  0
    9.4586    0.1062    0.0000 C   0  0  0  0  0  0  0  0  0  0  0  0
    6.1808   -2.4631    0.0000 C   0  0  0  0  0  0  0  0  0  0  0  0
    4.3599   -0.3366    0.0000 C   0  0  0  0  0  0  0  0  0  0  0  0
    7.9288    1.6062    0.0000 C   0  0  0  0  0  0  0  0  0  0  0  0
    4.3433   -2.4920    0.0000 C   0  0  0  0  0  0  0  0  0  0  0  0
    5.2945    0.0993    0.0000 C   0  0  0  0  0  0  0  0  0  0  0  0
    9.6851    1.4973    0.0000 C   0  0  3  0  0  0  0  0  0  0  0  0
    3.4120   -0.8645    0.0000 C   0  0  0  0  0  0  0  0  0  0  0  0
    3.4037   -1.9495    0.0000 C   0  0  3  0  0  0  0  0  0  0  0  0
    9.5823    2.4920    0.0000 C   0  0  0  0  0  0  0  0  0  0  0  0
    7.9944   -1.0103    0.0000 H   0  0  0  0  0  0  0  0  0  0  0  0
    7.6021   -1.1997    0.0000 H   0  0  0  0  0  0  0  0  0  0  0  0
    6.7337   -0.0838    0.0000 H   0  0  0  0  0  0  0  0  0  0  0  0
    5.2811   -2.5623    0.0000 H   0  0  0  0  0  0  0  0  0  0  0  0
    7.4613    1.5811    0.0000 H   0  0  0  0  0  0  0  0  0  0  0  0
    6.6643    1.5811    0.0000 H   0  0  0  0  0  0  0  0  0  0  0  0
    5.9847    1.1888    0.0000 H   0  0  0  0  0  0  0  0  0  0  0  0
    5.5862    0.4985    0.0000 H   0  0  0  0  0  0  0  0  0  0  0  0
    8.6240   -1.2655    0.0000 H   0  0  0  0  0  0  0  0  0  0  0  0
    9.4124   -1.0078    0.0000 H   0  0  0  0  0  0  0  0  0  0  0  0
    7.2969   -2.5157    0.0000 H   0  0  0  0  0  0  0  0  0  0  0  0
    7.6880   -1.8198    0.0000 H   0  0  0  0  0  0  0  0  0  0  0  0
    9.9195   -0.3086    0.0000 H   0  0  0  0  0  0  0  0  0  0  0  0
    9.9195    0.5209    0.0000 H   0  0  0  0  0  0  0  0  0  0  0  0
    5.7835   -2.9390    0.0000 H   0  0  0  0  0  0  0  0  0  0  0  0
    6.5818   -2.9360    0.0000 H   0  0  0  0  0  0  0  0  0  0  0  0
    4.7681    0.1301    0.0000 H   0  0  0  0  0  0  0  0  0  0  0  0
    3.9700    0.1455    0.0000 H   0  0  0  0  0  0  0  0  0  0  0  0
    8.5488    1.6062    0.0000 H   0  0  0  0  0  0  0  0  0  0  0  0
    7.9288    2.2262    0.0000 H   0  0  0  0  0  0  0  0  0  0  0  0
    7.3088    1.6062    0.0000 H   0  0  0  0  0  0  0  0  0  0  0  0
    3.9460   -2.9680    0.0000 H   0  0  0  0  0  0  0  0  0  0  0  0
    4.7443   -2.9649    0.0000 H   0  0  0  0  0  0  0  0  0  0  0  0
    5.9145    0.0945    0.0000 H   0  0  0  0  0  0  0  0  0  0  0  0
    5.2993    0.7193    0.0000 H   0  0  0  0  0  0  0  0  0  0  0  0
    4.6745    0.1041    0.0000 H   0  0  0  0  0  0  0  0  0  0  0  0
   10.1873    1.8608    0.0000 H   0  0  0  0  0  0  0  0  0  0  0  0
    3.2075   -0.2792    0.0000 H   0  0  0  0  0  0  0  0  0  0  0  0
    2.8004   -0.9659    0.0000 H   0  0  0  0  0  0  0  0  0  0  0  0
    3.4025   -2.5695    0.0000 H   0  0  0  0  0  0  0  0  0  0  0  0
    8.9833    2.3225    0.0000 H   0  0  0  0  0  0  0  0  0  0  0  0
   10.1990    2.5557    0.0000 H   0  0  0  0  0  0  0  0  0  0  0  0
    9.5185    3.1087    0.0000 H   0  0  0  0  0  0  0  0  0  0  0  0
    8.9656    2.4282    0.0000 H   0  0  0  0  0  0  0  0  0  0  0  0
   11.1001    1.4525    0.0000 H   0  0  0  0  0  0  0  0  0  0  0  0
    2.0000   -2.1341    0.0000 H   0  0  0  0  0  0  0  0  0  0  0  0
  1  9  1  0  0  0  0
  1 55  1  0  0  0  0
  2 21  1  0  0  0  0
  2 59  1  0  0  0  0
  3 23  1  0  0  0  0
  3 60  1  0  0  0  0
  4  5  1  0  0  0  0
  4  6  1  0  0  0  0
  4 13  1  0  0  0  0
  4 25  1  0  0  0  0
  5  9  1  0  0  0  0
  5 11  1  0  0  0  0
  5 18  1  0  0  0  0
  6  7  1  0  0  0  0
  6 14  1  0  0  0  0
  6 26  1  0  0  0  0
  7  8  1  0  0  0  0
  7 12  1  0  0  0  0
  7 27  1  0  0  0  0
  8 10  1  0  0  0  0
  8 17  1  0  0  0  0
  8 20  1  0  0  0  0
  9 15  1  0  0  0  0
  9 21  1  0  0  0  0
 10 16  1  0  0  0  0
 10 19  1  0  0  0  0
 10 28  1  0  0  0  0
 11 12  1  0  0  0  0
 11 29  1  0  0  0  0
 11 30  1  0  0  0  0
 12 31  1  0  0  0  0
 12 32  1  0  0  0  0
 13 15  1  0  0  0  0
 13 33  1  0  0  0  0
 13 34  1  0  0  0  0
 14 16  1  0  0  0  0
 14 35  1  0  0  0  0
 14 36  1  0  0  0  0
 15 37  1  0  0  0  0
 15 38  1  0  0  0  0
 16 39  1  0  0  0  0
 16 40  1  0  0  0  0
 17 22  1  0  0  0  0
 17 41  1  0  0  0  0
 17 42  1  0  0  0  0
 18 43  1  0  0  0  0
 18 44  1  0  0  0  0
 18 45  1  0  0  0  0
 19 23  1  0  0  0  0
 19 46  1  0  0  0  0
 19 47  1  0  0  0  0
 20 48  1  0  0  0  0
 20 49  1  0  0  0  0
 20 50  1  0  0  0  0
 21 24  1  0  0  0  0
 21 51  1  0  0  0  0
 22 23  1  0  0  0  0
 22 52  1  0  0  0  0
 22 53  1  0  0  0  0
 23 54  1  0  0  0  0
 24 56  1  0  0  0  0
 24 57  1  0  0  0  0
 24 58  1  0  0  0  0
M  END
> <PUBCHEM_COMPOUND_CID>
517927
> <PUBCHEM_COMPOUND_CANONICALIZED>
1
> <PUBCHEM_CACTVS_COMPLEXITY>
507
> <PUBCHEM_CACTVS_HBOND_ACCEPTOR>
3
> <PUBCHEM_CACTVS_HBOND_DONOR>
3
> <PUBCHEM_CACTVS_ROTATABLE_BOND>
1
> <PUBCHEM_CACTVS_SUBSKEYS>
AAADcfB4MAAAAAAAAAAAAAAAAAAAAYAAAAAwYMAAAAAAAGDAAAAAGgAACAAAD1SggAICAAAAAgAAAAAAAAAAAAAAAAAAAAAAAAABEAIAAAAAQAAEAAABAAGAwPAPgAAAAAAAAADAAAYAACAAAYAADAAAAA==
> <PUBCHEM_IUPAC_OPENEYE_NAME>
17-(1-hydroxyethyl)-10,13-dimethyl-1,2,3,4,5,6,7,8,9,11,12,14,15,16-tetradecahydrocyclopenta[a]phenanthrene-3,17-diol
> <PUBCHEM_IUPAC_CAS_NAME>
17-(1-hydroxyethyl)-10,13-dimethyl-1,2,3,4,5,6,7,8,9,11,12,14,15,16-tetradecahydrocyclopenta[a]phenanthrene-3,17-diol
> <PUBCHEM_IUPAC_NAME_MARKUP>
17-(1-hydroxyethyl)-10,13-dimethyl-1,2,3,4,5,6,7,8,9,11,12,14,15,16-tetradecahydrocyclopenta[a]phenanthrene-3,17-diol
> <PUBCHEM_IUPAC_NAME>
17-(1-hydroxyethyl)-10,13-dimethyl-1,2,3,4,5,6,7,8,9,11,12,14,15,16-tetradecahydrocyclopenta[a]phenanthrene-3,17-diol
> <PUBCHEM_IUPAC_SYSTEMATIC_NAME>
17-(1-hydroxyethyl)-10,13-dimethyl-1,2,3,4,5,6,7,8,9,11,12,14,15,16-tetradecahydrocyclopenta[a]phenanthrene-3,17-diol
> <PUBCHEM_IUPAC_TRADITIONAL_NAME>
17-(1-hydroxyethyl)-10,13-dimethyl-1,2,3,4,5,6,7,8,9,11,12,14,15,16-tetradecahydrocyclopenta[a]phenanthrene-3,17-diol
> <PUBCHEM_IUPAC_INCHI>
InChI=1S/C21H36O3/c1-13(22)21(24)11-8-18-16-5-4-14-12-15(23)6-9-19(14,2)17(16)7-10-20(18,21)3/h13-18,22-24H,4-12H2,1-3H3
> <PUBCHEM_IUPAC_INCHIKEY>
SCPADBBISMMJAW-UHFFFAOYSA-N
> <PUBCHEM_XLOGP3_AA>
3.8
> <PUBCHEM_EXACT_MASS>
336.26644501
> <PUBCHEM_MOLECULAR_FORMULA>
C21H36O3
> <PUBCHEM_MOLECULAR_WEIGHT>
336.5
> <PUBCHEM_OPENEYE_CAN_SMILES>
CC(C1(CCC2C1(CCC3C2CCC4C3(CCC(C4)O)C)C)O)O
> <PUBCHEM_OPENEYE_ISO_SMILES>
CC(C1(CCC2C1(CCC3C2CCC4C3(CCC(C4)O)C)C)O)O
> <PUBCHEM_CACTVS_TPSA>
60.7
> <PUBCHEM_MONOISOTOPIC_WEIGHT>
336.26644501
> <PUBCHEM_TOTAL_CHARGE>
0
> <PUBCHEM_HEAVY_ATOM_COUNT>
24
> <PUBCHEM_ATOM_DEF_STEREO_COUNT>
0
> <PUBCHEM_ATOM_UDEF_STEREO_COUNT>
9
> <PUBCHEM_BOND_DEF_STEREO_COUNT>
0
> <PUBCHEM_BOND_UDEF_STEREO_COUNT>
0
> <PUBCHEM_ISOTOPIC_ATOM_COUNT>
0
> <PUBCHEM_COMPONENT_COUNT>
1
> <PUBCHEM_CACTVS_TAUTO_COUNT>
-1
> <PUBCHEM_COORDINATE_TYPE>
1
5
255
> <PUBCHEM_BONDANNOTATIONS>
10  16  3
21  2  3
23  3  3
4  13  3
5  18  3
6  14  3
7  12  3
8  20  3
9  21  3
$$$$
