518014
  -OEChem-10302200292D
 38 37  0     1  0  0  0  0  0999 V2000
    6.5380    4.3285    0.0000 Cl  0  0  0  0  0  0  0  0  0  0  0  0
    2.2690    2.5369    0.0000 N   0  0  0  0  0  0  0  0  0  0  0  0
    2.2690    3.5369    0.0000 N   0  0  0  0  0  0  0  0  0  0  0  0
    3.1350    4.0369    0.0000 N   0  0  0  0  0  0  0  0  0  0  0  0
    4.0010    8.5369    0.0000 N   0  0  0  0  0  0  0  0  0  0  0  0
    2.2690    8.5369    0.0000 N   0  0  0  0  0  0  0  0  0  0  0  0
    1.4030    2.0369    0.0000 C   0  0  3  0  0  0  0  0  0  0  0  0
    1.4030    1.0369    0.0000 C   0  0  0  0  0  0  0  0  0  0  0  0
    0.5369    2.5369    0.0000 C   0  0  0  0  0  0  0  0  0  0  0  0
    0.5369    0.5369    0.0000 C   0  0  0  0  0  0  0  0  0  0  0  0
    3.1350    2.0369    0.0000 C   0  0  0  0  0  0  0  0  0  0  0  0
    3.1350    5.0369    0.0000 C   0  0  0  0  0  0  0  0  0  0  0  0
    3.1350    7.0369    0.0000 C   0  0  0  0  0  0  0  0  0  0  0  0
    4.0010    5.5369    0.0000 C   0  0  0  0  0  0  0  0  0  0  0  0
    2.2690    5.5369    0.0000 C   0  0  0  0  0  0  0  0  0  0  0  0
    4.0010    6.5369    0.0000 C   0  0  0  0  0  0  0  0  0  0  0  0
    2.2690    6.5369    0.0000 C   0  0  0  0  0  0  0  0  0  0  0  0
    3.1350    8.0369    0.0000 C   0  0  0  0  0  0  0  0  0  0  0  0
    1.4030    2.6569    0.0000 H   0  0  0  0  0  0  0  0  0  0  0  0
    1.6150    0.4543    0.0000 H   0  0  0  0  0  0  0  0  0  0  0  0
    2.0135    1.1446    0.0000 H   0  0  0  0  0  0  0  0  0  0  0  0
    0.8469    3.0739    0.0000 H   0  0  0  0  0  0  0  0  0  0  0  0
    0.0000    2.8469    0.0000 H   0  0  0  0  0  0  0  0  0  0  0  0
    0.2269    2.0000    0.0000 H   0  0  0  0  0  0  0  0  0  0  0  0
    0.2269    1.0739    0.0000 H   0  0  0  0  0  0  0  0  0  0  0  0
    0.0000    0.2269    0.0000 H   0  0  0  0  0  0  0  0  0  0  0  0
    0.8469    0.0000    0.0000 H   0  0  0  0  0  0  0  0  0  0  0  0
    2.8250    1.5000    0.0000 H   0  0  0  0  0  0  0  0  0  0  0  0
    3.6720    1.7269    0.0000 H   0  0  0  0  0  0  0  0  0  0  0  0
    3.4450    2.5739    0.0000 H   0  0  0  0  0  0  0  0  0  0  0  0
    4.5380    5.2269    0.0000 H   0  0  0  0  0  0  0  0  0  0  0  0
    1.7320    5.2269    0.0000 H   0  0  0  0  0  0  0  0  0  0  0  0
    4.5380    6.8469    0.0000 H   0  0  0  0  0  0  0  0  0  0  0  0
    1.7320    6.8469    0.0000 H   0  0  0  0  0  0  0  0  0  0  0  0
    4.0010    9.1569    0.0000 H   0  0  0  0  0  0  0  0  0  0  0  0
    4.5380    8.2269    0.0000 H   0  0  0  0  0  0  0  0  0  0  0  0
    2.2690    9.1569    0.0000 H   0  0  0  0  0  0  0  0  0  0  0  0
    7.5380    4.3285    0.0000 H   0  0  0  0  0  0  0  0  0  0  0  0
  1 38  1  0  0  0  0
  2  3  1  0  0  0  0
  2  7  1  0  0  0  0
  2 11  1  0  0  0  0
  3  4  2  0  0  0  0
  4 12  1  0  0  0  0
  5 18  1  0  0  0  0
  5 35  1  0  0  0  0
  5 36  1  0  0  0  0
  6 18  2  0  0  0  0
  6 37  1  0  0  0  0
  7  8  1  0  0  0  0
  7  9  1  0  0  0  0
  7 19  1  0  0  0  0
  8 10  1  0  0  0  0
  8 20  1  0  0  0  0
  8 21  1  0  0  0  0
  9 22  1  0  0  0  0
  9 23  1  0  0  0  0
  9 24  1  0  0  0  0
 10 25  1  0  0  0  0
 10 26  1  0  0  0  0
 10 27  1  0  0  0  0
 11 28  1  0  0  0  0
 11 29  1  0  0  0  0
 11 30  1  0  0  0  0
 12 14  2  0  0  0  0
 12 15  1  0  0  0  0
 13 16  2  0  0  0  0
 13 17  1  0  0  0  0
 13 18  1  0  0  0  0
 14 16  1  0  0  0  0
 14 31  1  0  0  0  0
 15 17  2  0  0  0  0
 15 32  1  0  0  0  0
 16 33  1  0  0  0  0
 17 34  1  0  0  0  0
M  END
> <PUBCHEM_COMPOUND_CID>
518014
> <PUBCHEM_COMPOUND_CANONICALIZED>
1
> <PUBCHEM_CACTVS_COMPLEXITY>
268
> <PUBCHEM_CACTVS_HBOND_ACCEPTOR>
4
> <PUBCHEM_CACTVS_HBOND_DONOR>
3
> <PUBCHEM_CACTVS_ROTATABLE_BOND>
5
> <PUBCHEM_CACTVS_SUBSKEYS>
AAADceBzgAAEAAAAAAAAAAAAAAAAAAAAAAAwAAAAAAAAAAABAAAAHAAYAAAADCjBGAQzwIJAAACiAiZiYACCAACgAgAYiAAoZJgIIKKAkZGEIABggAAIyAcQgAAOCAAAAAAAAAAQAAAAAAAAAAAAAAAAAA==
> <PUBCHEM_IUPAC_OPENEYE_NAME>
4-[methyl(sec-butyl)amino]azobenzamidine;hydrochloride
> <PUBCHEM_IUPAC_CAS_NAME>
4-[butan-2-yl(methyl)amino]azobenzenecarboximidamide;hydrochloride
> <PUBCHEM_IUPAC_NAME_MARKUP>
4-[[butan-2-yl(methyl)amino]diazenyl]benzenecarboximidamide;hydrochloride
> <PUBCHEM_IUPAC_NAME>
4-[[butan-2-yl(methyl)amino]diazenyl]benzenecarboximidamide;hydrochloride
> <PUBCHEM_IUPAC_SYSTEMATIC_NAME>
4-[[butan-2-yl(methyl)amino]diazenyl]benzenecarboximidamide;hydrochloride
> <PUBCHEM_IUPAC_TRADITIONAL_NAME>
4-[methyl(sec-butyl)amino]azobenzamidine;hydrochloride
> <PUBCHEM_IUPAC_INCHI>
InChI=1S/C12H19N5.ClH/c1-4-9(2)17(3)16-15-11-7-5-10(6-8-11)12(13)14;/h5-9H,4H2,1-3H3,(H3,13,14);1H
> <PUBCHEM_IUPAC_INCHIKEY>
LIIUWUXWYUSTGP-UHFFFAOYSA-N
> <PUBCHEM_EXACT_MASS>
269.1407234
> <PUBCHEM_MOLECULAR_FORMULA>
C12H20ClN5
> <PUBCHEM_MOLECULAR_WEIGHT>
269.77
> <PUBCHEM_OPENEYE_CAN_SMILES>
CCC(C)N(C)N=NC1=CC=C(C=C1)C(=N)N.Cl
> <PUBCHEM_OPENEYE_ISO_SMILES>
CCC(C)N(C)N=NC1=CC=C(C=C1)C(=N)N.Cl
> <PUBCHEM_CACTVS_TPSA>
77.8
> <PUBCHEM_MONOISOTOPIC_WEIGHT>
269.1407234
> <PUBCHEM_TOTAL_CHARGE>
0
> <PUBCHEM_HEAVY_ATOM_COUNT>
18
> <PUBCHEM_ATOM_DEF_STEREO_COUNT>
0
> <PUBCHEM_ATOM_UDEF_STEREO_COUNT>
1
> <PUBCHEM_BOND_DEF_STEREO_COUNT>
0
> <PUBCHEM_BOND_UDEF_STEREO_COUNT>
0
> <PUBCHEM_ISOTOPIC_ATOM_COUNT>
0
> <PUBCHEM_COMPONENT_COUNT>
2
> <PUBCHEM_CACTVS_TAUTO_COUNT>
-1
> <PUBCHEM_COORDINATE_TYPE>
1
5
255
> <PUBCHEM_BONDANNOTATIONS>
12  14  8
12  15  8
13  16  8
13  17  8
14  16  8
15  17  8
7  9  3
$$$$
