518085
  -OEChem-10302200292D
 31 32  0     1  0  0  0  0  0999 V2000
    7.6811    1.9560    0.0000 Cl  0  0  0  0  0  0  0  0  0  0  0  0
    2.5369    0.0440    0.0000 O   0  0  0  0  0  0  0  0  0  0  0  0
    5.7240    1.5436    0.0000 O   0  0  0  0  0  0  0  0  0  0  0  0
    5.1350   -0.4560    0.0000 C   0  0  3  0  0  0  0  0  0  0  0  0
    5.1350   -1.4560    0.0000 C   0  0  3  0  0  0  0  0  0  0  0  0
    6.0812   -0.1513    0.0000 C   0  0  3  0  0  0  0  0  0  0  0  0
    6.0812   -1.7607    0.0000 C   0  0  0  0  0  0  0  0  0  0  0  0
    4.2690    0.0440    0.0000 C   0  0  0  0  0  0  0  0  0  0  0  0
    6.6648   -0.9560    0.0000 C   0  0  0  0  0  0  0  0  0  0  0  0
    4.2690   -1.9560    0.0000 C   0  0  0  0  0  0  0  0  0  0  0  0
    3.4030   -0.4560    0.0000 C   0  0  3  0  0  0  0  0  0  0  0  0
    3.4030   -1.4560    0.0000 C   0  0  0  0  0  0  0  0  0  0  0  0
    6.3919    0.7993    0.0000 C   0  0  0  0  0  0  0  0  0  0  0  0
    7.3704    1.0055    0.0000 C   0  0  0  0  0  0  0  0  0  0  0  0
    5.2250    0.3892    0.0000 H   0  0  0  0  0  0  0  0  0  0  0  0
    5.2250   -2.3012    0.0000 H   0  0  0  0  0  0  0  0  0  0  0  0
    5.4815    0.4511    0.0000 H   0  0  0  0  0  0  0  0  0  0  0  0
    5.8302   -2.3276    0.0000 H   0  0  0  0  0  0  0  0  0  0  0  0
    6.6186   -2.0700    0.0000 H   0  0  0  0  0  0  0  0  0  0  0  0
    4.6675    0.5190    0.0000 H   0  0  0  0  0  0  0  0  0  0  0  0
    3.8705    0.5190    0.0000 H   0  0  0  0  0  0  0  0  0  0  0  0
    7.1257   -1.3707    0.0000 H   0  0  0  0  0  0  0  0  0  0  0  0
    7.1257   -0.5413    0.0000 H   0  0  0  0  0  0  0  0  0  0  0  0
    3.8705   -2.4309    0.0000 H   0  0  0  0  0  0  0  0  0  0  0  0
    4.6675   -2.4309    0.0000 H   0  0  0  0  0  0  0  0  0  0  0  0
    3.4030    0.3940    0.0000 H   0  0  0  0  0  0  0  0  0  0  0  0
    2.7924   -1.3483    0.0000 H   0  0  0  0  0  0  0  0  0  0  0  0
    3.1909   -2.0386    0.0000 H   0  0  0  0  0  0  0  0  0  0  0  0
    2.0000   -0.2660    0.0000 H   0  0  0  0  0  0  0  0  0  0  0  0
    7.3910    0.3858    0.0000 H   0  0  0  0  0  0  0  0  0  0  0  0
    7.9842    0.9181    0.0000 H   0  0  0  0  0  0  0  0  0  0  0  0
  1 14  1  0  0  0  0
  2 11  1  0  0  0  0
  2 29  1  0  0  0  0
  3 13  2  0  0  0  0
  4  5  1  0  0  0  0
  4  6  1  0  0  0  0
  4  8  1  0  0  0  0
  4 15  1  0  0  0  0
  5  7  1  0  0  0  0
  5 10  1  0  0  0  0
  5 16  1  0  0  0  0
  6  9  1  0  0  0  0
  6 13  1  0  0  0  0
  6 17  1  0  0  0  0
  7  9  1  0  0  0  0
  7 18  1  0  0  0  0
  7 19  1  0  0  0  0
  8 11  1  0  0  0  0
  8 20  1  0  0  0  0
  8 21  1  0  0  0  0
  9 22  1  0  0  0  0
  9 23  1  0  0  0  0
 10 12  1  0  0  0  0
 10 24  1  0  0  0  0
 10 25  1  0  0  0  0
 11 12  1  0  0  0  0
 11 26  1  0  0  0  0
 12 27  1  0  0  0  0
 12 28  1  0  0  0  0
 13 14  1  0  0  0  0
 14 30  1  0  0  0  0
 14 31  1  0  0  0  0
M  END
> <PUBCHEM_COMPOUND_CID>
518085
> <PUBCHEM_COMPOUND_CANONICALIZED>
1
> <PUBCHEM_CACTVS_COMPLEXITY>
229
> <PUBCHEM_CACTVS_HBOND_ACCEPTOR>
2
> <PUBCHEM_CACTVS_HBOND_DONOR>
1
> <PUBCHEM_CACTVS_ROTATABLE_BOND>
2
> <PUBCHEM_CACTVS_SUBSKEYS>
AAADceBwMAAEAAAAAAAAAAAAAAAAAYAAAAAwAAAAAAAAAGAAAAAAGgIACAAADReggEIAAAAAAgAIAIAQAAAAAAAAAAAAAAEAAgBAEBIBAAAAQAAEAAAAAAGIzPDOgAAAAAAAAABAAAIAACAAAQAACAAAAA==
> <PUBCHEM_IUPAC_OPENEYE_NAME>
2-chloro-1-(6-hydroxy-2,3,3a,4,5,6,7,7a-octahydro-1H-inden-1-yl)ethanone
> <PUBCHEM_IUPAC_CAS_NAME>
2-chloro-1-(6-hydroxy-2,3,3a,4,5,6,7,7a-octahydro-1H-inden-1-yl)ethanone
> <PUBCHEM_IUPAC_NAME_MARKUP>
2-chloro-1-(6-hydroxy-2,3,3<I>a</I>,4,5,6,7,7<I>a</I>-octahydro-1<I>H</I>-inden-1-yl)ethanone
> <PUBCHEM_IUPAC_NAME>
2-chloro-1-(6-hydroxy-2,3,3a,4,5,6,7,7a-octahydro-1H-inden-1-yl)ethanone
> <PUBCHEM_IUPAC_SYSTEMATIC_NAME>
2-chloranyl-1-(6-oxidanyl-2,3,3a,4,5,6,7,7a-octahydro-1H-inden-1-yl)ethanone
> <PUBCHEM_IUPAC_TRADITIONAL_NAME>
2-chloro-1-(6-hydroxy-2,3,3a,4,5,6,7,7a-octahydro-1H-inden-1-yl)ethanone
> <PUBCHEM_IUPAC_INCHI>
InChI=1S/C11H17ClO2/c12-6-11(14)9-4-2-7-1-3-8(13)5-10(7)9/h7-10,13H,1-6H2
> <PUBCHEM_IUPAC_INCHIKEY>
UGZFMOUIJAVIJS-UHFFFAOYSA-N
> <PUBCHEM_XLOGP3_AA>
2
> <PUBCHEM_EXACT_MASS>
216.0917075
> <PUBCHEM_MOLECULAR_FORMULA>
C11H17ClO2
> <PUBCHEM_MOLECULAR_WEIGHT>
216.70
> <PUBCHEM_OPENEYE_CAN_SMILES>
C1CC(CC2C1CCC2C(=O)CCl)O
> <PUBCHEM_OPENEYE_ISO_SMILES>
C1CC(CC2C1CCC2C(=O)CCl)O
> <PUBCHEM_CACTVS_TPSA>
37.3
> <PUBCHEM_MONOISOTOPIC_WEIGHT>
216.0917075
> <PUBCHEM_TOTAL_CHARGE>
0
> <PUBCHEM_HEAVY_ATOM_COUNT>
14
> <PUBCHEM_ATOM_DEF_STEREO_COUNT>
0
> <PUBCHEM_ATOM_UDEF_STEREO_COUNT>
4
> <PUBCHEM_BOND_DEF_STEREO_COUNT>
0
> <PUBCHEM_BOND_UDEF_STEREO_COUNT>
0
> <PUBCHEM_ISOTOPIC_ATOM_COUNT>
0
> <PUBCHEM_COMPONENT_COUNT>
1
> <PUBCHEM_CACTVS_TAUTO_COUNT>
3
> <PUBCHEM_COORDINATE_TYPE>
1
5
255
> <PUBCHEM_BONDANNOTATIONS>
11  26  3
4  15  3
5  16  3
6  17  3
$$$$
