518092
  -OEChem-10302200292D
 36 36  0     1  0  0  0  0  0999 V2000
    6.3301    0.5950    0.0000 O   0  0  0  0  0  0  0  0  0  0  0  0
    4.5981    0.5950    0.0000 N   0  0  0  0  0  0  0  0  0  0  0  0
    5.4641    2.0950    0.0000 N   0  0  0  0  0  0  0  0  0  0  0  0
    3.7320   -0.9050    0.0000 C   0  0  3  0  0  0  0  0  0  0  0  0
    4.5981   -0.4050    0.0000 C   0  0  3  0  0  0  0  0  0  0  0  0
    3.7320   -1.9050    0.0000 C   0  0  0  0  0  0  0  0  0  0  0  0
    5.4641   -1.9050    0.0000 C   0  0  3  0  0  0  0  0  0  0  0  0
    5.4641   -0.9050    0.0000 C   0  0  0  0  0  0  0  0  0  0  0  0
    4.5981   -2.4050    0.0000 C   0  0  0  0  0  0  0  0  0  0  0  0
    2.8660   -0.4050    0.0000 C   0  0  0  0  0  0  0  0  0  0  0  0
    6.3301   -2.4050    0.0000 C   0  0  0  0  0  0  0  0  0  0  0  0
    2.0000   -0.9050    0.0000 C   0  0  0  0  0  0  0  0  0  0  0  0
    2.8660    0.5950    0.0000 C   0  0  0  0  0  0  0  0  0  0  0  0
    5.4641    1.0950    0.0000 C   0  0  0  0  0  0  0  0  0  0  0  0
    4.2690   -1.2150    0.0000 H   0  0  0  0  0  0  0  0  0  0  0  0
    5.1350   -0.0950    0.0000 H   0  0  0  0  0  0  0  0  0  0  0  0
    3.1215   -1.7973    0.0000 H   0  0  0  0  0  0  0  0  0  0  0  0
    3.5200   -2.4876    0.0000 H   0  0  0  0  0  0  0  0  0  0  0  0
    5.4641   -2.5250    0.0000 H   0  0  0  0  0  0  0  0  0  0  0  0
    6.0747   -1.0127    0.0000 H   0  0  0  0  0  0  0  0  0  0  0  0
    5.6762   -0.3224    0.0000 H   0  0  0  0  0  0  0  0  0  0  0  0
    4.1996   -2.8800    0.0000 H   0  0  0  0  0  0  0  0  0  0  0  0
    4.9966   -2.8800    0.0000 H   0  0  0  0  0  0  0  0  0  0  0  0
    2.8660   -1.0250    0.0000 H   0  0  0  0  0  0  0  0  0  0  0  0
    6.0201   -2.9419    0.0000 H   0  0  0  0  0  0  0  0  0  0  0  0
    6.8671   -2.7150    0.0000 H   0  0  0  0  0  0  0  0  0  0  0  0
    6.6401   -1.8681    0.0000 H   0  0  0  0  0  0  0  0  0  0  0  0
    4.0611    0.9050    0.0000 H   0  0  0  0  0  0  0  0  0  0  0  0
    1.6900   -0.3681    0.0000 H   0  0  0  0  0  0  0  0  0  0  0  0
    1.4631   -1.2150    0.0000 H   0  0  0  0  0  0  0  0  0  0  0  0
    2.3100   -1.4419    0.0000 H   0  0  0  0  0  0  0  0  0  0  0  0
    3.4860    0.5950    0.0000 H   0  0  0  0  0  0  0  0  0  0  0  0
    2.8660    1.2150    0.0000 H   0  0  0  0  0  0  0  0  0  0  0  0
    2.2460    0.5950    0.0000 H   0  0  0  0  0  0  0  0  0  0  0  0
    6.0010    2.4050    0.0000 H   0  0  0  0  0  0  0  0  0  0  0  0
    4.9272    2.4050    0.0000 H   0  0  0  0  0  0  0  0  0  0  0  0
  1 14  2  0  0  0  0
  2  5  1  0  0  0  0
  2 14  1  0  0  0  0
  2 28  1  0  0  0  0
  3 14  1  0  0  0  0
  3 35  1  0  0  0  0
  3 36  1  0  0  0  0
  4  5  1  0  0  0  0
  4  6  1  0  0  0  0
  4 10  1  0  0  0  0
  4 15  1  0  0  0  0
  5  8  1  0  0  0  0
  5 16  1  0  0  0  0
  6  9  1  0  0  0  0
  6 17  1  0  0  0  0
  6 18  1  0  0  0  0
  7  8  1  0  0  0  0
  7  9  1  0  0  0  0
  7 11  1  0  0  0  0
  7 19  1  0  0  0  0
  8 20  1  0  0  0  0
  8 21  1  0  0  0  0
  9 22  1  0  0  0  0
  9 23  1  0  0  0  0
 10 12  1  0  0  0  0
 10 13  1  0  0  0  0
 10 24  1  0  0  0  0
 11 25  1  0  0  0  0
 11 26  1  0  0  0  0
 11 27  1  0  0  0  0
 12 29  1  0  0  0  0
 12 30  1  0  0  0  0
 12 31  1  0  0  0  0
 13 32  1  0  0  0  0
 13 33  1  0  0  0  0
 13 34  1  0  0  0  0
M  END
> <PUBCHEM_COMPOUND_CID>
518092
> <PUBCHEM_COMPOUND_CANONICALIZED>
1
> <PUBCHEM_CACTVS_COMPLEXITY>
204
> <PUBCHEM_CACTVS_HBOND_ACCEPTOR>
1
> <PUBCHEM_CACTVS_HBOND_DONOR>
2
> <PUBCHEM_CACTVS_ROTATABLE_BOND>
2
> <PUBCHEM_CACTVS_SUBSKEYS>
AAADceBzIAAAAAAAAAAAAAAAAAAAAAAAAAAwAAAAAAAAAAAAAAAAHgAQAAAADSjBAAQDAALAAAAIAAAAEAAAAAAAAAAAAIAIAACAAAIAgAAEAAAAFgIAAAEQgMAOgAAAAAAAAACAAACAAAQAAAAAAAAAAA==
> <PUBCHEM_IUPAC_OPENEYE_NAME>
(2-isopropyl-5-methyl-cyclohexyl)urea
> <PUBCHEM_IUPAC_CAS_NAME>
(5-methyl-2-propan-2-ylcyclohexyl)urea
> <PUBCHEM_IUPAC_NAME_MARKUP>
(5-methyl-2-propan-2-ylcyclohexyl)urea
> <PUBCHEM_IUPAC_NAME>
(5-methyl-2-propan-2-ylcyclohexyl)urea
> <PUBCHEM_IUPAC_SYSTEMATIC_NAME>
1-(5-methyl-2-propan-2-yl-cyclohexyl)urea
> <PUBCHEM_IUPAC_TRADITIONAL_NAME>
(2-isopropyl-5-methyl-cyclohexyl)urea
> <PUBCHEM_IUPAC_INCHI>
InChI=1S/C11H22N2O/c1-7(2)9-5-4-8(3)6-10(9)13-11(12)14/h7-10H,4-6H2,1-3H3,(H3,12,13,14)
> <PUBCHEM_IUPAC_INCHIKEY>
ZHDFNTPMUOKIJA-UHFFFAOYSA-N
> <PUBCHEM_XLOGP3_AA>
2.4
> <PUBCHEM_EXACT_MASS>
198.173213330
> <PUBCHEM_MOLECULAR_FORMULA>
C11H22N2O
> <PUBCHEM_MOLECULAR_WEIGHT>
198.31
> <PUBCHEM_OPENEYE_CAN_SMILES>
CC1CCC(C(C1)NC(=O)N)C(C)C
> <PUBCHEM_OPENEYE_ISO_SMILES>
CC1CCC(C(C1)NC(=O)N)C(C)C
> <PUBCHEM_CACTVS_TPSA>
55.1
> <PUBCHEM_MONOISOTOPIC_WEIGHT>
198.173213330
> <PUBCHEM_TOTAL_CHARGE>
0
> <PUBCHEM_HEAVY_ATOM_COUNT>
14
> <PUBCHEM_ATOM_DEF_STEREO_COUNT>
0
> <PUBCHEM_ATOM_UDEF_STEREO_COUNT>
3
> <PUBCHEM_BOND_DEF_STEREO_COUNT>
0
> <PUBCHEM_BOND_UDEF_STEREO_COUNT>
0
> <PUBCHEM_ISOTOPIC_ATOM_COUNT>
0
> <PUBCHEM_COMPONENT_COUNT>
1
> <PUBCHEM_CACTVS_TAUTO_COUNT>
-1
> <PUBCHEM_COORDINATE_TYPE>
1
5
255
> <PUBCHEM_BONDANNOTATIONS>
5  2  3
4  10  3
7  11  3
$$$$
