518065
  -OEChem-10302200292D
 48 49  0     1  0  0  0  0  0999 V2000
    4.9641    0.7315    0.0000 O   0  0  0  0  0  0  0  0  0  0  0  0
    7.4641    1.5976    0.0000 N   0  0  0  0  0  0  0  0  0  0  0  0
    2.8660   -0.6345    0.0000 N   0  0  0  0  0  0  0  0  0  0  0  0
    5.4641   -0.1345    0.0000 C   0  0  3  0  0  0  0  0  0  0  0  0
    4.5981   -0.6345    0.0000 C   0  0  3  0  0  0  0  0  0  0  0  0
    5.9641    0.7315    0.0000 C   0  0  0  0  0  0  0  0  0  0  0  0
    6.3301   -0.6345    0.0000 C   0  0  0  0  0  0  0  0  0  0  0  0
    4.5981   -1.6345    0.0000 C   0  0  0  0  0  0  0  0  0  0  0  0
    6.9641    0.7315    0.0000 C   0  0  3  0  0  0  0  0  0  0  0  0
    6.3301   -1.6345    0.0000 C   0  0  0  0  0  0  0  0  0  0  0  0
    5.4641   -2.1345    0.0000 C   0  0  0  0  0  0  0  0  0  0  0  0
    3.7320   -0.1345    0.0000 C   0  0  0  0  0  0  0  0  0  0  0  0
    7.4641   -0.1345    0.0000 C   0  0  0  0  0  0  0  0  0  0  0  0
    8.4641   -0.1345    0.0000 C   0  0  0  0  0  0  0  0  0  0  0  0
    8.4641    1.5976    0.0000 C   0  0  0  0  0  0  0  0  0  0  0  0
    8.9641    0.7315    0.0000 C   0  0  0  0  0  0  0  0  0  0  0  0
    2.0000   -0.1345    0.0000 C   0  0  0  0  0  0  0  0  0  0  0  0
    2.8660   -1.6345    0.0000 C   0  0  0  0  0  0  0  0  0  0  0  0
    4.5981   -0.0145    0.0000 H   0  0  0  0  0  0  0  0  0  0  0  0
    6.0718    1.3421    0.0000 H   0  0  0  0  0  0  0  0  0  0  0  0
    5.3815    0.9436    0.0000 H   0  0  0  0  0  0  0  0  0  0  0  0
    6.9407   -0.7422    0.0000 H   0  0  0  0  0  0  0  0  0  0  0  0
    6.5422   -0.0519    0.0000 H   0  0  0  0  0  0  0  0  0  0  0  0
    3.9875   -1.5268    0.0000 H   0  0  0  0  0  0  0  0  0  0  0  0
    4.3860   -2.2171    0.0000 H   0  0  0  0  0  0  0  0  0  0  0  0
    6.6541    1.2685    0.0000 H   0  0  0  0  0  0  0  0  0  0  0  0
    6.5422   -2.2171    0.0000 H   0  0  0  0  0  0  0  0  0  0  0  0
    6.9407   -1.5268    0.0000 H   0  0  0  0  0  0  0  0  0  0  0  0
    5.0656   -2.6094    0.0000 H   0  0  0  0  0  0  0  0  0  0  0  0
    5.8626   -2.6094    0.0000 H   0  0  0  0  0  0  0  0  0  0  0  0
    4.1306    0.3405    0.0000 H   0  0  0  0  0  0  0  0  0  0  0  0
    3.3335    0.3405    0.0000 H   0  0  0  0  0  0  0  0  0  0  0  0
    6.8815   -0.3465    0.0000 H   0  0  0  0  0  0  0  0  0  0  0  0
    7.5718   -0.7451    0.0000 H   0  0  0  0  0  0  0  0  0  0  0  0
    7.1541    2.1345    0.0000 H   0  0  0  0  0  0  0  0  0  0  0  0
    8.3564   -0.7451    0.0000 H   0  0  0  0  0  0  0  0  0  0  0  0
    9.0467   -0.3465    0.0000 H   0  0  0  0  0  0  0  0  0  0  0  0
    5.2741    1.2685    0.0000 H   0  0  0  0  0  0  0  0  0  0  0  0
    9.0467    1.8096    0.0000 H   0  0  0  0  0  0  0  0  0  0  0  0
    8.3564    2.2081    0.0000 H   0  0  0  0  0  0  0  0  0  0  0  0
    9.4390    0.3330    0.0000 H   0  0  0  0  0  0  0  0  0  0  0  0
    9.4390    1.1301    0.0000 H   0  0  0  0  0  0  0  0  0  0  0  0
    2.3100    0.4024    0.0000 H   0  0  0  0  0  0  0  0  0  0  0  0
    1.4631    0.1755    0.0000 H   0  0  0  0  0  0  0  0  0  0  0  0
    1.6900   -0.6714    0.0000 H   0  0  0  0  0  0  0  0  0  0  0  0
    2.2460   -1.6345    0.0000 H   0  0  0  0  0  0  0  0  0  0  0  0
    2.8660   -2.2545    0.0000 H   0  0  0  0  0  0  0  0  0  0  0  0
    3.4860   -1.6345    0.0000 H   0  0  0  0  0  0  0  0  0  0  0  0
  1  4  1  0  0  0  0
  1 38  1  0  0  0  0
  2  9  1  0  0  0  0
  2 15  1  0  0  0  0
  2 35  1  0  0  0  0
  3 12  1  0  0  0  0
  3 17  1  0  0  0  0
  3 18  1  0  0  0  0
  4  5  1  0  0  0  0
  4  6  1  0  0  0  0
  4  7  1  0  0  0  0
  5  8  1  0  0  0  0
  5 12  1  0  0  0  0
  5 19  1  0  0  0  0
  6  9  1  0  0  0  0
  6 20  1  0  0  0  0
  6 21  1  0  0  0  0
  7 10  1  0  0  0  0
  7 22  1  0  0  0  0
  7 23  1  0  0  0  0
  8 11  1  0  0  0  0
  8 24  1  0  0  0  0
  8 25  1  0  0  0  0
  9 13  1  0  0  0  0
  9 26  1  0  0  0  0
 10 11  1  0  0  0  0
 10 27  1  0  0  0  0
 10 28  1  0  0  0  0
 11 29  1  0  0  0  0
 11 30  1  0  0  0  0
 12 31  1  0  0  0  0
 12 32  1  0  0  0  0
 13 14  1  0  0  0  0
 13 33  1  0  0  0  0
 13 34  1  0  0  0  0
 14 16  1  0  0  0  0
 14 36  1  0  0  0  0
 14 37  1  0  0  0  0
 15 16  1  0  0  0  0
 15 39  1  0  0  0  0
 15 40  1  0  0  0  0
 16 41  1  0  0  0  0
 16 42  1  0  0  0  0
 17 43  1  0  0  0  0
 17 44  1  0  0  0  0
 17 45  1  0  0  0  0
 18 46  1  0  0  0  0
 18 47  1  0  0  0  0
 18 48  1  0  0  0  0
M  END
> <PUBCHEM_COMPOUND_CID>
518065
> <PUBCHEM_COMPOUND_CANONICALIZED>
1
> <PUBCHEM_CACTVS_COMPLEXITY>
257
> <PUBCHEM_CACTVS_HBOND_ACCEPTOR>
3
> <PUBCHEM_CACTVS_HBOND_DONOR>
2
> <PUBCHEM_CACTVS_ROTATABLE_BOND>
4
> <PUBCHEM_CACTVS_SUBSKEYS>
AAADceBzIAAAAAAAAAAAAAAAAAAAAAAAAAA8QAAAAAAAAAAAAAAAHgAQCAAADWzBgAQCAAPAAgAAAAAAAAAAAAAAAAAAAIAIAAAAAAIAgAAEQAAGEACAAAGQwOAOgAAAAAAAAAAAAAAAADAAAAAAAAAAAA==
> <PUBCHEM_IUPAC_OPENEYE_NAME>
2-[(dimethylamino)methyl]-1-(2-piperidylmethyl)cyclohexanol
> <PUBCHEM_IUPAC_CAS_NAME>
2-[(dimethylamino)methyl]-1-(2-piperidinylmethyl)-1-cyclohexanol
> <PUBCHEM_IUPAC_NAME_MARKUP>
2-[(dimethylamino)methyl]-1-(piperidin-2-ylmethyl)cyclohexan-1-ol
> <PUBCHEM_IUPAC_NAME>
2-[(dimethylamino)methyl]-1-(piperidin-2-ylmethyl)cyclohexan-1-ol
> <PUBCHEM_IUPAC_SYSTEMATIC_NAME>
2-[(dimethylamino)methyl]-1-(piperidin-2-ylmethyl)cyclohexan-1-ol
> <PUBCHEM_IUPAC_TRADITIONAL_NAME>
2-[(dimethylamino)methyl]-1-(2-piperidylmethyl)cyclohexanol
> <PUBCHEM_IUPAC_INCHI>
InChI=1S/C15H30N2O/c1-17(2)12-13-7-3-5-9-15(13,18)11-14-8-4-6-10-16-14/h13-14,16,18H,3-12H2,1-2H3
> <PUBCHEM_IUPAC_INCHIKEY>
IXHYXGISKYEXIS-UHFFFAOYSA-N
> <PUBCHEM_XLOGP3_AA>
1.9
> <PUBCHEM_EXACT_MASS>
254.235813585
> <PUBCHEM_MOLECULAR_FORMULA>
C15H30N2O
> <PUBCHEM_MOLECULAR_WEIGHT>
254.41
> <PUBCHEM_OPENEYE_CAN_SMILES>
CN(C)CC1CCCCC1(CC2CCCCN2)O
> <PUBCHEM_OPENEYE_ISO_SMILES>
CN(C)CC1CCCCC1(CC2CCCCN2)O
> <PUBCHEM_CACTVS_TPSA>
35.5
> <PUBCHEM_MONOISOTOPIC_WEIGHT>
254.235813585
> <PUBCHEM_TOTAL_CHARGE>
0
> <PUBCHEM_HEAVY_ATOM_COUNT>
18
> <PUBCHEM_ATOM_DEF_STEREO_COUNT>
0
> <PUBCHEM_ATOM_UDEF_STEREO_COUNT>
3
> <PUBCHEM_BOND_DEF_STEREO_COUNT>
0
> <PUBCHEM_BOND_UDEF_STEREO_COUNT>
0
> <PUBCHEM_ISOTOPIC_ATOM_COUNT>
0
> <PUBCHEM_COMPONENT_COUNT>
1
> <PUBCHEM_CACTVS_TAUTO_COUNT>
-1
> <PUBCHEM_COORDINATE_TYPE>
1
5
255
> <PUBCHEM_BONDANNOTATIONS>
4  1  3
5  12  3
9  6  3
$$$$
