518008
  -OEChem-10302200292D
 24 23  0     1  0  0  0  0  0999 V2000
    5.1350    0.2500    0.0000 O   0  0  0  0  0  0  0  0  0  0  0  0
    2.5369   -0.2500    0.0000 O   0  0  0  0  0  0  0  0  0  0  0  0
    6.0010   -1.2500    0.0000 O   0  0  0  0  0  0  0  0  0  0  0  0
    6.8671    0.2500    0.0000 C   0  0  0  0  0  0  0  0  0  0  0  0
    3.4030    0.2500    0.0000 C   0  0  3  0  0  0  0  0  0  0  0  0
    4.2690   -0.2500    0.0000 C   0  0  0  0  0  0  0  0  0  0  0  0
    6.0010   -0.2500    0.0000 C   0  0  0  0  0  0  0  0  0  0  0  0
    7.7331   -0.2500    0.0000 C   0  0  0  0  0  0  0  0  0  0  0  0
    6.8671    1.2500    0.0000 C   0  0  0  0  0  0  0  0  0  0  0  0
    3.4030    1.2500    0.0000 C   0  0  0  0  0  0  0  0  0  0  0  0
    6.3301    0.5600    0.0000 H   0  0  0  0  0  0  0  0  0  0  0  0
    3.4030   -0.3700    0.0000 H   0  0  0  0  0  0  0  0  0  0  0  0
    3.8705   -0.7249    0.0000 H   0  0  0  0  0  0  0  0  0  0  0  0
    4.6675   -0.7249    0.0000 H   0  0  0  0  0  0  0  0  0  0  0  0
    7.4231   -0.7869    0.0000 H   0  0  0  0  0  0  0  0  0  0  0  0
    8.2700   -0.5600    0.0000 H   0  0  0  0  0  0  0  0  0  0  0  0
    8.0431    0.2869    0.0000 H   0  0  0  0  0  0  0  0  0  0  0  0
    7.4871    1.2500    0.0000 H   0  0  0  0  0  0  0  0  0  0  0  0
    6.8671    1.8700    0.0000 H   0  0  0  0  0  0  0  0  0  0  0  0
    6.2471    1.2500    0.0000 H   0  0  0  0  0  0  0  0  0  0  0  0
    4.0230    1.2500    0.0000 H   0  0  0  0  0  0  0  0  0  0  0  0
    3.4030    1.8700    0.0000 H   0  0  0  0  0  0  0  0  0  0  0  0
    2.7830    1.2500    0.0000 H   0  0  0  0  0  0  0  0  0  0  0  0
    2.0000    0.0600    0.0000 H   0  0  0  0  0  0  0  0  0  0  0  0
  1  6  1  0  0  0  0
  1  7  1  0  0  0  0
  2  5  1  0  0  0  0
  2 24  1  0  0  0  0
  3  7  2  0  0  0  0
  4  7  1  0  0  0  0
  4  8  1  0  0  0  0
  4  9  1  0  0  0  0
  4 11  1  0  0  0  0
  5  6  1  0  0  0  0
  5 10  1  0  0  0  0
  5 12  1  0  0  0  0
  6 13  1  0  0  0  0
  6 14  1  0  0  0  0
  8 15  1  0  0  0  0
  8 16  1  0  0  0  0
  8 17  1  0  0  0  0
  9 18  1  0  0  0  0
  9 19  1  0  0  0  0
  9 20  1  0  0  0  0
 10 21  1  0  0  0  0
 10 22  1  0  0  0  0
 10 23  1  0  0  0  0
M  END
> <PUBCHEM_COMPOUND_CID>
518008
> <PUBCHEM_COMPOUND_CANONICALIZED>
1
> <PUBCHEM_CACTVS_COMPLEXITY>
109
> <PUBCHEM_CACTVS_HBOND_ACCEPTOR>
3
> <PUBCHEM_CACTVS_HBOND_DONOR>
1
> <PUBCHEM_CACTVS_ROTATABLE_BOND>
4
> <PUBCHEM_CACTVS_SUBSKEYS>
AAADccBgMAAAAAAAAAAAAAAAAAAAAAAAAAAAAAAAAAAAAAAAAAAAGgAACAAADRSggAICCAAABgAIAACQCAAAAAAAAAAAAAEAAAABEAAAAAACAAAAAAADAAAAAAAAAAAAAAAAAAAAAAAAAAAAAAAAAAAAAA==
> <PUBCHEM_IUPAC_OPENEYE_NAME>
2-hydroxypropyl 2-methylpropanoate
> <PUBCHEM_IUPAC_CAS_NAME>
2-methylpropanoic acid 2-hydroxypropyl ester
> <PUBCHEM_IUPAC_NAME_MARKUP>
2-hydroxypropyl 2-methylpropanoate
> <PUBCHEM_IUPAC_NAME>
2-hydroxypropyl 2-methylpropanoate
> <PUBCHEM_IUPAC_SYSTEMATIC_NAME>
2-oxidanylpropyl 2-methylpropanoate
> <PUBCHEM_IUPAC_TRADITIONAL_NAME>
2-methylpropionic acid 2-hydroxypropyl ester
> <PUBCHEM_IUPAC_INCHI>
InChI=1S/C7H14O3/c1-5(2)7(9)10-4-6(3)8/h5-6,8H,4H2,1-3H3
> <PUBCHEM_IUPAC_INCHIKEY>
TWVANRHJFGGUTM-UHFFFAOYSA-N
> <PUBCHEM_XLOGP3_AA>
0.9
> <PUBCHEM_EXACT_MASS>
146.094294304
> <PUBCHEM_MOLECULAR_FORMULA>
C7H14O3
> <PUBCHEM_MOLECULAR_WEIGHT>
146.18
> <PUBCHEM_OPENEYE_CAN_SMILES>
CC(C)C(=O)OCC(C)O
> <PUBCHEM_OPENEYE_ISO_SMILES>
CC(C)C(=O)OCC(C)O
> <PUBCHEM_CACTVS_TPSA>
46.5
> <PUBCHEM_MONOISOTOPIC_WEIGHT>
146.094294304
> <PUBCHEM_TOTAL_CHARGE>
0
> <PUBCHEM_HEAVY_ATOM_COUNT>
10
> <PUBCHEM_ATOM_DEF_STEREO_COUNT>
0
> <PUBCHEM_ATOM_UDEF_STEREO_COUNT>
1
> <PUBCHEM_BOND_DEF_STEREO_COUNT>
0
> <PUBCHEM_BOND_UDEF_STEREO_COUNT>
0
> <PUBCHEM_ISOTOPIC_ATOM_COUNT>
0
> <PUBCHEM_COMPONENT_COUNT>
1
> <PUBCHEM_CACTVS_TAUTO_COUNT>
-1
> <PUBCHEM_COORDINATE_TYPE>
1
5
255
> <PUBCHEM_BONDANNOTATIONS>
5  2  3
$$$$
