518067
  -OEChem-10302200292D
 50 53  0     1  0  0  0  0  0999 V2000
    3.7320    0.4510    0.0000 O   0  0  0  0  0  0  0  0  0  0  0  0
    2.0000   -2.5490    0.0000 O   0  0  0  0  0  0  0  0  0  0  0  0
    3.7320   -1.5490    0.0000 N   0  0  0  0  0  0  0  0  0  0  0  0
    5.4641    0.4510    0.0000 C   0  0  0  0  0  0  0  0  0  0  0  0
    4.5981   -1.0490    0.0000 C   0  0  3  0  0  0  0  0  0  0  0  0
    6.3301   -0.0490    0.0000 C   0  0  0  0  0  0  0  0  0  0  0  0
    5.4641   -1.5490    0.0000 C   0  0  0  0  0  0  0  0  0  0  0  0
    6.3301   -1.0490    0.0000 C   0  0  0  0  0  0  0  0  0  0  0  0
    4.5981   -0.0490    0.0000 C   0  0  0  0  0  0  0  0  0  0  0  0
    6.4038    0.7930    0.0000 C   0  0  0  0  0  0  0  0  0  0  0  0
    4.9641    1.3170    0.0000 C   0  0  0  0  0  0  0  0  0  0  0  0
    3.7320   -2.5490    0.0000 C   0  0  0  0  0  0  0  0  0  0  0  0
    2.8660   -1.0490    0.0000 C   0  0  0  0  0  0  0  0  0  0  0  0
    2.8660   -3.0490    0.0000 C   0  0  0  0  0  0  0  0  0  0  0  0
    2.0000   -1.5490    0.0000 C   0  0  0  0  0  0  0  0  0  0  0  0
    7.1698    0.1502    0.0000 C   0  0  0  0  0  0  0  0  0  0  0  0
    5.4641    2.1830    0.0000 C   0  0  0  0  0  0  0  0  0  0  0  0
    6.5774    1.7778    0.0000 C   0  0  0  0  0  0  0  0  0  0  0  0
    3.9641    1.3170    0.0000 C   0  0  0  0  0  0  0  0  0  0  0  0
    8.1095    0.4922    0.0000 C   0  0  0  0  0  0  0  0  0  0  0  0
    4.9641    3.0490    0.0000 C   0  0  0  0  0  0  0  0  0  0  0  0
    7.5171    2.1198    0.0000 C   0  0  0  0  0  0  0  0  0  0  0  0
    3.4641    2.1830    0.0000 C   0  0  0  0  0  0  0  0  0  0  0  0
    8.2832    1.4770    0.0000 C   0  0  0  0  0  0  0  0  0  0  0  0
    3.9641    3.0490    0.0000 C   0  0  0  0  0  0  0  0  0  0  0  0
    4.5981   -1.6690    0.0000 H   0  0  0  0  0  0  0  0  0  0  0  0
    6.9407   -0.1567    0.0000 H   0  0  0  0  0  0  0  0  0  0  0  0
    6.5422    0.5336    0.0000 H   0  0  0  0  0  0  0  0  0  0  0  0
    5.0656   -2.0240    0.0000 H   0  0  0  0  0  0  0  0  0  0  0  0
    5.8626   -2.0240    0.0000 H   0  0  0  0  0  0  0  0  0  0  0  0
    6.5422   -1.6316    0.0000 H   0  0  0  0  0  0  0  0  0  0  0  0
    6.9407   -0.9414    0.0000 H   0  0  0  0  0  0  0  0  0  0  0  0
    3.9441   -3.1316    0.0000 H   0  0  0  0  0  0  0  0  0  0  0  0
    4.3426   -2.4414    0.0000 H   0  0  0  0  0  0  0  0  0  0  0  0
    3.2646   -0.5741    0.0000 H   0  0  0  0  0  0  0  0  0  0  0  0
    2.4675   -0.5741    0.0000 H   0  0  0  0  0  0  0  0  0  0  0  0
    2.4675   -3.5240    0.0000 H   0  0  0  0  0  0  0  0  0  0  0  0
    3.2646   -3.5240    0.0000 H   0  0  0  0  0  0  0  0  0  0  0  0
    1.7880   -0.9664    0.0000 H   0  0  0  0  0  0  0  0  0  0  0  0
    1.3894   -1.6567    0.0000 H   0  0  0  0  0  0  0  0  0  0  0  0
    7.0622   -0.4604    0.0000 H   0  0  0  0  0  0  0  0  0  0  0  0
    6.0841    2.1830    0.0000 H   0  0  0  0  0  0  0  0  0  0  0  0
    6.1025    2.1763    0.0000 H   0  0  0  0  0  0  0  0  0  0  0  0
    3.6541    0.7801    0.0000 H   0  0  0  0  0  0  0  0  0  0  0  0
    8.5845    0.0937    0.0000 H   0  0  0  0  0  0  0  0  0  0  0  0
    5.2741    3.5860    0.0000 H   0  0  0  0  0  0  0  0  0  0  0  0
    7.6248    2.7304    0.0000 H   0  0  0  0  0  0  0  0  0  0  0  0
    2.8441    2.1830    0.0000 H   0  0  0  0  0  0  0  0  0  0  0  0
    8.8658    1.6891    0.0000 H   0  0  0  0  0  0  0  0  0  0  0  0
    3.6541    3.5860    0.0000 H   0  0  0  0  0  0  0  0  0  0  0  0
  1  9  2  0  0  0  0
  2 14  1  0  0  0  0
  2 15  1  0  0  0  0
  3  5  1  0  0  0  0
  3 12  1  0  0  0  0
  3 13  1  0  0  0  0
  4  6  1  0  0  0  0
  4  9  1  0  0  0  0
  4 10  1  0  0  0  0
  4 11  1  0  0  0  0
  5  7  1  0  0  0  0
  5  9  1  0  0  0  0
  5 26  1  0  0  0  0
  6  8  1  0  0  0  0
  6 27  1  0  0  0  0
  6 28  1  0  0  0  0
  7  8  1  0  0  0  0
  7 29  1  0  0  0  0
  7 30  1  0  0  0  0
  8 31  1  0  0  0  0
  8 32  1  0  0  0  0
 10 16  2  0  0  0  0
 10 18  1  0  0  0  0
 11 17  2  0  0  0  0
 11 19  1  0  0  0  0
 12 14  1  0  0  0  0
 12 33  1  0  0  0  0
 12 34  1  0  0  0  0
 13 15  1  0  0  0  0
 13 35  1  0  0  0  0
 13 36  1  0  0  0  0
 14 37  1  0  0  0  0
 14 38  1  0  0  0  0
 15 39  1  0  0  0  0
 15 40  1  0  0  0  0
 16 20  1  0  0  0  0
 16 41  1  0  0  0  0
 17 21  1  0  0  0  0
 17 42  1  0  0  0  0
 18 22  2  0  0  0  0
 18 43  1  0  0  0  0
 19 23  2  0  0  0  0
 19 44  1  0  0  0  0
 20 24  2  0  0  0  0
 20 45  1  0  0  0  0
 21 25  2  0  0  0  0
 21 46  1  0  0  0  0
 22 24  1  0  0  0  0
 22 47  1  0  0  0  0
 23 25  1  0  0  0  0
 23 48  1  0  0  0  0
 24 49  1  0  0  0  0
 25 50  1  0  0  0  0
M  END
> <PUBCHEM_COMPOUND_CID>
518067
> <PUBCHEM_COMPOUND_CANONICALIZED>
1
> <PUBCHEM_CACTVS_COMPLEXITY>
427
> <PUBCHEM_CACTVS_HBOND_ACCEPTOR>
3
> <PUBCHEM_CACTVS_HBOND_DONOR>
0
> <PUBCHEM_CACTVS_ROTATABLE_BOND>
3
> <PUBCHEM_CACTVS_SUBSKEYS>
AAADceB6MAAAAAAAAAAAAAAAAAAAAAAAAAA8YMEAAAAAAAABQAAAHgAAAAAADizhmAYwAIMABACIAqBSAAACAAAgAAAIiAGIAIgKIDKAlTCHIAAggACYiAcYiMCPgAAAAAAAAAAAAACAAAAAAAAAAAAAAA==
> <PUBCHEM_IUPAC_OPENEYE_NAME>
6-morpholino-2,2-diphenyl-cyclohexanone
> <PUBCHEM_IUPAC_CAS_NAME>
6-(4-morpholinyl)-2,2-diphenyl-1-cyclohexanone
> <PUBCHEM_IUPAC_NAME_MARKUP>
6-morpholin-4-yl-2,2-diphenylcyclohexan-1-one
> <PUBCHEM_IUPAC_NAME>
6-morpholin-4-yl-2,2-diphenylcyclohexan-1-one
> <PUBCHEM_IUPAC_SYSTEMATIC_NAME>
6-morpholin-4-yl-2,2-diphenyl-cyclohexan-1-one
> <PUBCHEM_IUPAC_TRADITIONAL_NAME>
6-morpholino-2,2-diphenyl-cyclohexanone
> <PUBCHEM_IUPAC_INCHI>
InChI=1S/C22H25NO2/c24-21-20(23-14-16-25-17-15-23)12-7-13-22(21,18-8-3-1-4-9-18)19-10-5-2-6-11-19/h1-6,8-11,20H,7,12-17H2
> <PUBCHEM_IUPAC_INCHIKEY>
NFIXJIQTNKTVAT-UHFFFAOYSA-N
> <PUBCHEM_XLOGP3_AA>
3.7
> <PUBCHEM_EXACT_MASS>
335.188529040
> <PUBCHEM_MOLECULAR_FORMULA>
C22H25NO2
> <PUBCHEM_MOLECULAR_WEIGHT>
335.4
> <PUBCHEM_OPENEYE_CAN_SMILES>
C1CC(C(=O)C(C1)(C2=CC=CC=C2)C3=CC=CC=C3)N4CCOCC4
> <PUBCHEM_OPENEYE_ISO_SMILES>
C1CC(C(=O)C(C1)(C2=CC=CC=C2)C3=CC=CC=C3)N4CCOCC4
> <PUBCHEM_CACTVS_TPSA>
29.5
> <PUBCHEM_MONOISOTOPIC_WEIGHT>
335.188529040
> <PUBCHEM_TOTAL_CHARGE>
0
> <PUBCHEM_HEAVY_ATOM_COUNT>
25
> <PUBCHEM_ATOM_DEF_STEREO_COUNT>
0
> <PUBCHEM_ATOM_UDEF_STEREO_COUNT>
1
> <PUBCHEM_BOND_DEF_STEREO_COUNT>
0
> <PUBCHEM_BOND_UDEF_STEREO_COUNT>
0
> <PUBCHEM_ISOTOPIC_ATOM_COUNT>
0
> <PUBCHEM_COMPONENT_COUNT>
1
> <PUBCHEM_CACTVS_TAUTO_COUNT>
-1
> <PUBCHEM_COORDINATE_TYPE>
1
5
255
> <PUBCHEM_BONDANNOTATIONS>
10  16  8
10  18  8
11  17  8
11  19  8
16  20  8
17  21  8
18  22  8
19  23  8
20  24  8
21  25  8
22  24  8
23  25  8
5  3  3
$$$$
