518026
  -OEChem-10302200292D
 62 61  0     1  0  0  0  0  0999 V2000
    3.7320    1.5000    0.0000 O   0  0  0  0  0  0  0  0  0  0  0  0
   10.6603    1.5000    0.0000 O   0  0  0  0  0  0  0  0  0  0  0  0
    7.1962    0.5000    0.0000 O   0  0  0  0  0  0  0  0  0  0  0  0
    3.7320   -1.5000    0.0000 O   0  0  0  0  0  0  0  0  0  0  0  0
   10.6603   -1.5000    0.0000 O   0  0  0  0  0  0  0  0  0  0  0  0
    4.5981    3.0000    0.0000 O   0  0  0  0  0  0  0  0  0  0  0  0
    9.7942    3.0000    0.0000 O   0  0  0  0  0  0  0  0  0  0  0  0
    5.4641   -1.5000    0.0000 O   0  0  0  0  0  0  0  0  0  0  0  0
    8.9282   -1.5000    0.0000 O   0  0  0  0  0  0  0  0  0  0  0  0
    6.3301    2.0000    0.0000 N   0  0  0  0  0  0  0  0  0  0  0  0
    8.0622    2.0000    0.0000 N   0  0  0  0  0  0  0  0  0  0  0  0
    5.4641    1.5000    0.0000 C   0  0  3  0  0  0  0  0  0  0  0  0
    8.9282    1.5000    0.0000 C   0  0  3  0  0  0  0  0  0  0  0  0
    5.4641    0.5000    0.0000 C   0  0  0  0  0  0  0  0  0  0  0  0
    8.9282    0.5000    0.0000 C   0  0  0  0  0  0  0  0  0  0  0  0
    4.5981   -0.0000    0.0000 C   0  0  0  0  0  0  0  0  0  0  0  0
    9.7942    0.0000    0.0000 C   0  0  0  0  0  0  0  0  0  0  0  0
    7.1962    1.5000    0.0000 C   0  0  0  0  0  0  0  0  0  0  0  0
    4.5981    2.0000    0.0000 C   0  0  0  0  0  0  0  0  0  0  0  0
    9.7942    2.0000    0.0000 C   0  0  0  0  0  0  0  0  0  0  0  0
    4.5981   -1.0000    0.0000 C   0  0  0  0  0  0  0  0  0  0  0  0
    9.7942   -1.0000    0.0000 C   0  0  0  0  0  0  0  0  0  0  0  0
    2.8660    2.0000    0.0000 C   0  0  0  0  0  0  0  0  0  0  0  0
   11.5263    2.0000    0.0000 C   0  0  0  0  0  0  0  0  0  0  0  0
    3.7320   -2.5000    0.0000 C   0  0  0  0  0  0  0  0  0  0  0  0
   10.6603   -2.5000    0.0000 C   0  0  0  0  0  0  0  0  0  0  0  0
    2.0000    1.5000    0.0000 C   0  0  0  0  0  0  0  0  0  0  0  0
   12.3923    1.5000    0.0000 C   0  0  0  0  0  0  0  0  0  0  0  0
    2.8660   -3.0000    0.0000 C   0  0  0  0  0  0  0  0  0  0  0  0
   11.5263   -3.0000    0.0000 C   0  0  0  0  0  0  0  0  0  0  0  0
    5.4641    2.1200    0.0000 H   0  0  0  0  0  0  0  0  0  0  0  0
    8.9282    2.1200    0.0000 H   0  0  0  0  0  0  0  0  0  0  0  0
    5.6762   -0.0826    0.0000 H   0  0  0  0  0  0  0  0  0  0  0  0
    6.0747    0.6077    0.0000 H   0  0  0  0  0  0  0  0  0  0  0  0
    8.3176    0.6077    0.0000 H   0  0  0  0  0  0  0  0  0  0  0  0
    8.7162   -0.0826    0.0000 H   0  0  0  0  0  0  0  0  0  0  0  0
    6.3301    2.6200    0.0000 H   0  0  0  0  0  0  0  0  0  0  0  0
    8.0622    2.6200    0.0000 H   0  0  0  0  0  0  0  0  0  0  0  0
    4.3860    0.5826    0.0000 H   0  0  0  0  0  0  0  0  0  0  0  0
    3.9875   -0.1077    0.0000 H   0  0  0  0  0  0  0  0  0  0  0  0
   10.4048   -0.1077    0.0000 H   0  0  0  0  0  0  0  0  0  0  0  0
   10.0063    0.5826    0.0000 H   0  0  0  0  0  0  0  0  0  0  0  0
    3.2646    2.4750    0.0000 H   0  0  0  0  0  0  0  0  0  0  0  0
    2.4675    2.4750    0.0000 H   0  0  0  0  0  0  0  0  0  0  0  0
   11.9248    2.4750    0.0000 H   0  0  0  0  0  0  0  0  0  0  0  0
   11.1278    2.4750    0.0000 H   0  0  0  0  0  0  0  0  0  0  0  0
    3.9441   -3.0826    0.0000 H   0  0  0  0  0  0  0  0  0  0  0  0
    4.3426   -2.3923    0.0000 H   0  0  0  0  0  0  0  0  0  0  0  0
   10.0497   -2.3923    0.0000 H   0  0  0  0  0  0  0  0  0  0  0  0
   10.4482   -3.0826    0.0000 H   0  0  0  0  0  0  0  0  0  0  0  0
    1.6900    2.0369    0.0000 H   0  0  0  0  0  0  0  0  0  0  0  0
    1.4631    1.1900    0.0000 H   0  0  0  0  0  0  0  0  0  0  0  0
    2.3100    0.9631    0.0000 H   0  0  0  0  0  0  0  0  0  0  0  0
   12.0823    0.9631    0.0000 H   0  0  0  0  0  0  0  0  0  0  0  0
   12.9292    1.1900    0.0000 H   0  0  0  0  0  0  0  0  0  0  0  0
   12.7023    2.0369    0.0000 H   0  0  0  0  0  0  0  0  0  0  0  0
    2.5560   -2.4631    0.0000 H   0  0  0  0  0  0  0  0  0  0  0  0
    2.3291   -3.3100    0.0000 H   0  0  0  0  0  0  0  0  0  0  0  0
    3.1760   -3.5369    0.0000 H   0  0  0  0  0  0  0  0  0  0  0  0
   11.2163   -3.5369    0.0000 H   0  0  0  0  0  0  0  0  0  0  0  0
   12.0632   -3.3100    0.0000 H   0  0  0  0  0  0  0  0  0  0  0  0
   11.8363   -2.4631    0.0000 H   0  0  0  0  0  0  0  0  0  0  0  0
  1 19  1  0  0  0  0
  1 23  1  0  0  0  0
  2 20  1  0  0  0  0
  2 24  1  0  0  0  0
  3 18  2  0  0  0  0
  4 21  1  0  0  0  0
  4 25  1  0  0  0  0
  5 22  1  0  0  0  0
  5 26  1  0  0  0  0
  6 19  2  0  0  0  0
  7 20  2  0  0  0  0
  8 21  2  0  0  0  0
  9 22  2  0  0  0  0
 10 12  1  0  0  0  0
 10 18  1  0  0  0  0
 10 37  1  0  0  0  0
 11 13  1  0  0  0  0
 11 18  1  0  0  0  0
 11 38  1  0  0  0  0
 12 14  1  0  0  0  0
 12 19  1  0  0  0  0
 12 31  1  0  0  0  0
 13 15  1  0  0  0  0
 13 20  1  0  0  0  0
 13 32  1  0  0  0  0
 14 16  1  0  0  0  0
 14 33  1  0  0  0  0
 14 34  1  0  0  0  0
 15 17  1  0  0  0  0
 15 35  1  0  0  0  0
 15 36  1  0  0  0  0
 16 21  1  0  0  0  0
 16 39  1  0  0  0  0
 16 40  1  0  0  0  0
 17 22  1  0  0  0  0
 17 41  1  0  0  0  0
 17 42  1  0  0  0  0
 23 27  1  0  0  0  0
 23 43  1  0  0  0  0
 23 44  1  0  0  0  0
 24 28  1  0  0  0  0
 24 45  1  0  0  0  0
 24 46  1  0  0  0  0
 25 29  1  0  0  0  0
 25 47  1  0  0  0  0
 25 48  1  0  0  0  0
 26 30  1  0  0  0  0
 26 49  1  0  0  0  0
 26 50  1  0  0  0  0
 27 51  1  0  0  0  0
 27 52  1  0  0  0  0
 27 53  1  0  0  0  0
 28 54  1  0  0  0  0
 28 55  1  0  0  0  0
 28 56  1  0  0  0  0
 29 57  1  0  0  0  0
 29 58  1  0  0  0  0
 29 59  1  0  0  0  0
 30 60  1  0  0  0  0
 30 61  1  0  0  0  0
 30 62  1  0  0  0  0
M  END
> <PUBCHEM_COMPOUND_CID>
518026
> <PUBCHEM_COMPOUND_CANONICALIZED>
1
> <PUBCHEM_CACTVS_COMPLEXITY>
532
> <PUBCHEM_CACTVS_HBOND_ACCEPTOR>
9
> <PUBCHEM_CACTVS_HBOND_DONOR>
2
> <PUBCHEM_CACTVS_ROTATABLE_BOND>
18
> <PUBCHEM_CACTVS_SUBSKEYS>
AAADcfB7PAAAAAAAAAAAAAAAAAAAAAAAAAAAAAAAAAAAAAAAAAAAHgAQAAAACCjhgAYDCALABAAIAACQGAAAAAAAAAAAAIGIAACCABIAgCAHAAAMFgIQAACsJggAAAAAAAAAAAAAAAAAAAAAAAAAAAAAAA==
> <PUBCHEM_IUPAC_OPENEYE_NAME>
diethyl 2-[(4-ethoxy-1-ethoxycarbonyl-4-oxo-butyl)carbamoylamino]pentanedioate
> <PUBCHEM_IUPAC_CAS_NAME>
2-[[[(1,5-diethoxy-1,5-dioxopentan-2-yl)amino]-oxomethyl]amino]pentanedioic acid diethyl ester
> <PUBCHEM_IUPAC_NAME_MARKUP>
diethyl 2-[(1,5-diethoxy-1,5-dioxopentan-2-yl)carbamoylamino]pentanedioate
> <PUBCHEM_IUPAC_NAME>
diethyl 2-[(1,5-diethoxy-1,5-dioxopentan-2-yl)carbamoylamino]pentanedioate
> <PUBCHEM_IUPAC_SYSTEMATIC_NAME>
diethyl 2-[[1,5-diethoxy-1,5-bis(oxidanylidene)pentan-2-yl]carbamoylamino]pentanedioate
> <PUBCHEM_IUPAC_TRADITIONAL_NAME>
2-[(1-carbethoxy-4-ethoxy-4-keto-butyl)carbamoylamino]glutaric acid diethyl ester
> <PUBCHEM_IUPAC_INCHI>
InChI=1S/C19H32N2O9/c1-5-27-15(22)11-9-13(17(24)29-7-3)20-19(26)21-14(18(25)30-8-4)10-12-16(23)28-6-2/h13-14H,5-12H2,1-4H3,(H2,20,21,26)
> <PUBCHEM_IUPAC_INCHIKEY>
FIGMIPZJZUVFKC-UHFFFAOYSA-N
> <PUBCHEM_XLOGP3_AA>
1.1
> <PUBCHEM_EXACT_MASS>
432.21078060
> <PUBCHEM_MOLECULAR_FORMULA>
C19H32N2O9
> <PUBCHEM_MOLECULAR_WEIGHT>
432.5
> <PUBCHEM_OPENEYE_CAN_SMILES>
CCOC(=O)CCC(C(=O)OCC)NC(=O)NC(CCC(=O)OCC)C(=O)OCC
> <PUBCHEM_OPENEYE_ISO_SMILES>
CCOC(=O)CCC(C(=O)OCC)NC(=O)NC(CCC(=O)OCC)C(=O)OCC
> <PUBCHEM_CACTVS_TPSA>
146
> <PUBCHEM_MONOISOTOPIC_WEIGHT>
432.21078060
> <PUBCHEM_TOTAL_CHARGE>
0
> <PUBCHEM_HEAVY_ATOM_COUNT>
30
> <PUBCHEM_ATOM_DEF_STEREO_COUNT>
0
> <PUBCHEM_ATOM_UDEF_STEREO_COUNT>
2
> <PUBCHEM_BOND_DEF_STEREO_COUNT>
0
> <PUBCHEM_BOND_UDEF_STEREO_COUNT>
0
> <PUBCHEM_ISOTOPIC_ATOM_COUNT>
0
> <PUBCHEM_COMPONENT_COUNT>
1
> <PUBCHEM_CACTVS_TAUTO_COUNT>
-1
> <PUBCHEM_COORDINATE_TYPE>
1
5
255
> <PUBCHEM_BONDANNOTATIONS>
12  14  3
13  15  3
$$$$
