518091
  -OEChem-10302200292D
 18 17  0     1  0  0  0  0  0999 V2000
    3.2320    0.6160    0.0000 Cl  0  0  0  0  0  0  0  0  0  0  0  0
    5.4641   -0.2500    0.0000 O   0  0  0  0  0  0  0  0  0  0  0  0
    4.5981    1.2500    0.0000 O   0  0  0  0  0  0  0  0  0  0  0  0
    2.0000   -1.2500    0.0000 N   0  0  0  0  0  0  0  0  0  0  0  0
    3.7320   -0.2500    0.0000 C   0  0  3  0  0  0  0  0  0  0  0  0
    4.2320   -1.1160    0.0000 C   0  0  0  0  0  0  0  0  0  0  0  0
    4.5981    0.2500    0.0000 C   0  0  0  0  0  0  0  0  0  0  0  0
    6.3301    0.2500    0.0000 C   0  0  0  0  0  0  0  0  0  0  0  0
    7.1962   -0.2500    0.0000 C   0  0  0  0  0  0  0  0  0  0  0  0
    2.8660   -0.7500    0.0000 C   0  0  0  0  0  0  0  0  0  0  0  0
    3.6951   -1.4260    0.0000 H   0  0  0  0  0  0  0  0  0  0  0  0
    4.5420   -1.6530    0.0000 H   0  0  0  0  0  0  0  0  0  0  0  0
    4.7690   -0.8060    0.0000 H   0  0  0  0  0  0  0  0  0  0  0  0
    6.7287    0.7249    0.0000 H   0  0  0  0  0  0  0  0  0  0  0  0
    5.9316    0.7249    0.0000 H   0  0  0  0  0  0  0  0  0  0  0  0
    6.8862   -0.7869    0.0000 H   0  0  0  0  0  0  0  0  0  0  0  0
    7.7331   -0.5600    0.0000 H   0  0  0  0  0  0  0  0  0  0  0  0
    7.5062    0.2869    0.0000 H   0  0  0  0  0  0  0  0  0  0  0  0
  1  5  1  0  0  0  0
  2  7  1  0  0  0  0
  2  8  1  0  0  0  0
  3  7  2  0  0  0  0
  4 10  3  0  0  0  0
  5  6  1  0  0  0  0
  5  7  1  0  0  0  0
  5 10  1  0  0  0  0
  6 11  1  0  0  0  0
  6 12  1  0  0  0  0
  6 13  1  0  0  0  0
  8  9  1  0  0  0  0
  8 14  1  0  0  0  0
  8 15  1  0  0  0  0
  9 16  1  0  0  0  0
  9 17  1  0  0  0  0
  9 18  1  0  0  0  0
M  END
> <PUBCHEM_COMPOUND_CID>
518091
> <PUBCHEM_COMPOUND_CANONICALIZED>
1
> <PUBCHEM_CACTVS_COMPLEXITY>
183
> <PUBCHEM_CACTVS_HBOND_ACCEPTOR>
3
> <PUBCHEM_CACTVS_HBOND_DONOR>
0
> <PUBCHEM_CACTVS_ROTATABLE_BOND>
3
> <PUBCHEM_CACTVS_SUBSKEYS>
AAADccBiMAAEAAAAAAAAAAAAAAAAAAAAAAAAAAAAAAAAAAAAAAAAHgIAAAAADAKhgAICCAAABAAYBACQCAAAAAAAAAAAAAEAAQBAgAAAAAACAAAAAAAAAAAAAAAAAAAAAAAAAAAAAAAAAAAAAAAAAAAAAA==
> <PUBCHEM_IUPAC_OPENEYE_NAME>
ethyl 2-chloro-2-cyano-propanoate
> <PUBCHEM_IUPAC_CAS_NAME>
2-chloro-2-cyanopropanoic acid ethyl ester
> <PUBCHEM_IUPAC_NAME_MARKUP>
ethyl 2-chloro-2-cyanopropanoate
> <PUBCHEM_IUPAC_NAME>
ethyl 2-chloro-2-cyanopropanoate
> <PUBCHEM_IUPAC_SYSTEMATIC_NAME>
ethyl 2-chloranyl-2-cyano-propanoate
> <PUBCHEM_IUPAC_TRADITIONAL_NAME>
2-chloro-2-cyano-propionic acid ethyl ester
> <PUBCHEM_IUPAC_INCHI>
InChI=1S/C6H8ClNO2/c1-3-10-5(9)6(2,7)4-8/h3H2,1-2H3
> <PUBCHEM_IUPAC_INCHIKEY>
WVSHMLDANLHKIZ-UHFFFAOYSA-N
> <PUBCHEM_XLOGP3_AA>
1.3
> <PUBCHEM_EXACT_MASS>
161.0243562
> <PUBCHEM_MOLECULAR_FORMULA>
C6H8ClNO2
> <PUBCHEM_MOLECULAR_WEIGHT>
161.58
> <PUBCHEM_OPENEYE_CAN_SMILES>
CCOC(=O)C(C)(C#N)Cl
> <PUBCHEM_OPENEYE_ISO_SMILES>
CCOC(=O)C(C)(C#N)Cl
> <PUBCHEM_CACTVS_TPSA>
50.1
> <PUBCHEM_MONOISOTOPIC_WEIGHT>
161.0243562
> <PUBCHEM_TOTAL_CHARGE>
0
> <PUBCHEM_HEAVY_ATOM_COUNT>
10
> <PUBCHEM_ATOM_DEF_STEREO_COUNT>
0
> <PUBCHEM_ATOM_UDEF_STEREO_COUNT>
1
> <PUBCHEM_BOND_DEF_STEREO_COUNT>
0
> <PUBCHEM_BOND_UDEF_STEREO_COUNT>
0
> <PUBCHEM_ISOTOPIC_ATOM_COUNT>
0
> <PUBCHEM_COMPONENT_COUNT>
1
> <PUBCHEM_CACTVS_TAUTO_COUNT>
-1
> <PUBCHEM_COORDINATE_TYPE>
1
5
255
> <PUBCHEM_BONDANNOTATIONS>
5  1  3
$$$$
