518188
  -OEChem-10302200292D
 22 21  0     1  0  0  0  0  0999 V2000
    2.0000   -0.5950    0.0000 Cl  0  0  0  0  0  0  0  0  0  0  0  0
    2.3660    0.7710    0.0000 Cl  0  0  0  0  0  0  0  0  0  0  0  0
    4.5981   -0.0950    0.0000 O   0  0  0  0  0  0  0  0  0  0  0  0
    6.3301   -1.0950    0.0000 O   0  0  0  0  0  0  0  0  0  0  0  0
    8.0622   -0.0950    0.0000 O   0  0  0  0  0  0  0  0  0  0  0  0
    3.7320    1.4050    0.0000 O   0  0  0  0  0  0  0  0  0  0  0  0
    6.3301   -0.0950    0.0000 C   0  0  3  0  0  0  0  0  0  0  0  0
    5.4641    0.4050    0.0000 C   0  0  0  0  0  0  0  0  0  0  0  0
    7.1962    0.4050    0.0000 C   0  0  0  0  0  0  0  0  0  0  0  0
    2.8660   -0.0950    0.0000 C   0  0  0  0  0  0  0  0  0  0  0  0
    3.7320    0.4050    0.0000 C   0  0  0  0  0  0  0  0  0  0  0  0
    3.3660   -0.9610    0.0000 C   0  0  0  0  0  0  0  0  0  0  0  0
    6.8671   -0.4050    0.0000 H   0  0  0  0  0  0  0  0  0  0  0  0
    5.8626    0.8799    0.0000 H   0  0  0  0  0  0  0  0  0  0  0  0
    5.0656    0.8799    0.0000 H   0  0  0  0  0  0  0  0  0  0  0  0
    7.5947    0.8799    0.0000 H   0  0  0  0  0  0  0  0  0  0  0  0
    6.7976    0.8799    0.0000 H   0  0  0  0  0  0  0  0  0  0  0  0
    2.8291   -1.2710    0.0000 H   0  0  0  0  0  0  0  0  0  0  0  0
    3.6760   -1.4980    0.0000 H   0  0  0  0  0  0  0  0  0  0  0  0
    3.9030   -0.6510    0.0000 H   0  0  0  0  0  0  0  0  0  0  0  0
    6.8671   -1.4050    0.0000 H   0  0  0  0  0  0  0  0  0  0  0  0
    8.5991    0.2150    0.0000 H   0  0  0  0  0  0  0  0  0  0  0  0
  1 10  1  0  0  0  0
  2 10  1  0  0  0  0
  3  8  1  0  0  0  0
  3 11  1  0  0  0  0
  4  7  1  0  0  0  0
  4 21  1  0  0  0  0
  5  9  1  0  0  0  0
  5 22  1  0  0  0  0
  6 11  2  0  0  0  0
  7  8  1  0  0  0  0
  7  9  1  0  0  0  0
  7 13  1  0  0  0  0
  8 14  1  0  0  0  0
  8 15  1  0  0  0  0
  9 16  1  0  0  0  0
  9 17  1  0  0  0  0
 10 11  1  0  0  0  0
 10 12  1  0  0  0  0
 12 18  1  0  0  0  0
 12 19  1  0  0  0  0
 12 20  1  0  0  0  0
M  END
> <PUBCHEM_COMPOUND_CID>
518188
> <PUBCHEM_COMPOUND_CANONICALIZED>
1
> <PUBCHEM_CACTVS_COMPLEXITY>
160
> <PUBCHEM_CACTVS_HBOND_ACCEPTOR>
4
> <PUBCHEM_CACTVS_HBOND_DONOR>
2
> <PUBCHEM_CACTVS_ROTATABLE_BOND>
5
> <PUBCHEM_CACTVS_SUBSKEYS>
AAADccBgOAAGAAAAAAAAAAAAAAAAAAAAAAAAAAAAAAAAAAAAAAAAGgIACAAACBaggIICCAAABgAIAACQCAAAAAAAAAAAAAEAAQBBEAAAAAACQAABAAADAAAAAAAAAAAAAAAAAAAAAAAAAAAAAAAAAAAAAA==
> <PUBCHEM_IUPAC_OPENEYE_NAME>
2,3-dihydroxypropyl 2,2-dichloropropanoate
> <PUBCHEM_IUPAC_CAS_NAME>
2,2-dichloropropanoic acid 2,3-dihydroxypropyl ester
> <PUBCHEM_IUPAC_NAME_MARKUP>
2,3-dihydroxypropyl 2,2-dichloropropanoate
> <PUBCHEM_IUPAC_NAME>
2,3-dihydroxypropyl 2,2-dichloropropanoate
> <PUBCHEM_IUPAC_SYSTEMATIC_NAME>
2,3-bis(oxidanyl)propyl 2,2-bis(chloranyl)propanoate
> <PUBCHEM_IUPAC_TRADITIONAL_NAME>
2,2-dichloropropionic acid glyceryl ester
> <PUBCHEM_IUPAC_INCHI>
InChI=1S/C6H10Cl2O4/c1-6(7,8)5(11)12-3-4(10)2-9/h4,9-10H,2-3H2,1H3
> <PUBCHEM_IUPAC_INCHIKEY>
MPXPHJHCZGNCNN-UHFFFAOYSA-N
> <PUBCHEM_XLOGP3_AA>
0.3
> <PUBCHEM_EXACT_MASS>
215.9956142
> <PUBCHEM_MOLECULAR_FORMULA>
C6H10Cl2O4
> <PUBCHEM_MOLECULAR_WEIGHT>
217.04
> <PUBCHEM_OPENEYE_CAN_SMILES>
CC(C(=O)OCC(CO)O)(Cl)Cl
> <PUBCHEM_OPENEYE_ISO_SMILES>
CC(C(=O)OCC(CO)O)(Cl)Cl
> <PUBCHEM_CACTVS_TPSA>
66.8
> <PUBCHEM_MONOISOTOPIC_WEIGHT>
215.9956142
> <PUBCHEM_TOTAL_CHARGE>
0
> <PUBCHEM_HEAVY_ATOM_COUNT>
12
> <PUBCHEM_ATOM_DEF_STEREO_COUNT>
0
> <PUBCHEM_ATOM_UDEF_STEREO_COUNT>
1
> <PUBCHEM_BOND_DEF_STEREO_COUNT>
0
> <PUBCHEM_BOND_UDEF_STEREO_COUNT>
0
> <PUBCHEM_ISOTOPIC_ATOM_COUNT>
0
> <PUBCHEM_COMPONENT_COUNT>
1
> <PUBCHEM_CACTVS_TAUTO_COUNT>
-1
> <PUBCHEM_COORDINATE_TYPE>
1
5
255
> <PUBCHEM_BONDANNOTATIONS>
7  4  3
$$$$
