518187
  -OEChem-10302200292D
 31 31  0     1  0  0  0  0  0999 V2000
    7.1962    3.8170    0.0000 Cl  0  0  0  0  0  0  0  0  0  0  0  0
    5.8301    4.1830    0.0000 Cl  0  0  0  0  0  0  0  0  0  0  0  0
    2.0000   -3.1830    0.0000 Cl  0  0  0  0  0  0  0  0  0  0  0  0
    3.7320   -4.1830    0.0000 Cl  0  0  0  0  0  0  0  0  0  0  0  0
    5.4641    1.8170    0.0000 O   0  0  0  0  0  0  0  0  0  0  0  0
    3.7320   -0.1830    0.0000 O   0  0  0  0  0  0  0  0  0  0  0  0
    4.5981    3.3170    0.0000 O   0  0  0  0  0  0  0  0  0  0  0  0
    4.5981    1.3170    0.0000 C   0  0  3  0  0  0  0  0  0  0  0  0
    4.5981    0.3170    0.0000 C   0  0  0  0  0  0  0  0  0  0  0  0
    3.7320    1.8170    0.0000 C   0  0  0  0  0  0  0  0  0  0  0  0
    3.7320   -1.1830    0.0000 C   0  0  0  0  0  0  0  0  0  0  0  0
    6.3301    3.3170    0.0000 C   0  0  0  0  0  0  0  0  0  0  0  0
    5.4641    2.8170    0.0000 C   0  0  0  0  0  0  0  0  0  0  0  0
    2.8660   -1.6830    0.0000 C   0  0  0  0  0  0  0  0  0  0  0  0
    4.5981   -1.6830    0.0000 C   0  0  0  0  0  0  0  0  0  0  0  0
    6.8301    2.4510    0.0000 C   0  0  0  0  0  0  0  0  0  0  0  0
    2.8660   -2.6830    0.0000 C   0  0  0  0  0  0  0  0  0  0  0  0
    4.5981   -2.6830    0.0000 C   0  0  0  0  0  0  0  0  0  0  0  0
    3.7320   -3.1830    0.0000 C   0  0  0  0  0  0  0  0  0  0  0  0
    4.5981    1.9370    0.0000 H   0  0  0  0  0  0  0  0  0  0  0  0
    4.8101   -0.2656    0.0000 H   0  0  0  0  0  0  0  0  0  0  0  0
    5.2087    0.4246    0.0000 H   0  0  0  0  0  0  0  0  0  0  0  0
    4.0420    2.3539    0.0000 H   0  0  0  0  0  0  0  0  0  0  0  0
    3.1951    2.1270    0.0000 H   0  0  0  0  0  0  0  0  0  0  0  0
    3.4220    1.2800    0.0000 H   0  0  0  0  0  0  0  0  0  0  0  0
    2.3291   -1.3730    0.0000 H   0  0  0  0  0  0  0  0  0  0  0  0
    5.1350   -1.3730    0.0000 H   0  0  0  0  0  0  0  0  0  0  0  0
    6.2932    2.1410    0.0000 H   0  0  0  0  0  0  0  0  0  0  0  0
    7.1401    1.9140    0.0000 H   0  0  0  0  0  0  0  0  0  0  0  0
    7.3671    2.7610    0.0000 H   0  0  0  0  0  0  0  0  0  0  0  0
    5.1350   -2.9930    0.0000 H   0  0  0  0  0  0  0  0  0  0  0  0
  1 12  1  0  0  0  0
  2 12  1  0  0  0  0
  3 17  1  0  0  0  0
  4 19  1  0  0  0  0
  5  8  1  0  0  0  0
  5 13  1  0  0  0  0
  6  9  1  0  0  0  0
  6 11  1  0  0  0  0
  7 13  2  0  0  0  0
  8  9  1  0  0  0  0
  8 10  1  0  0  0  0
  8 20  1  0  0  0  0
  9 21  1  0  0  0  0
  9 22  1  0  0  0  0
 10 23  1  0  0  0  0
 10 24  1  0  0  0  0
 10 25  1  0  0  0  0
 11 14  2  0  0  0  0
 11 15  1  0  0  0  0
 12 13  1  0  0  0  0
 12 16  1  0  0  0  0
 14 17  1  0  0  0  0
 14 26  1  0  0  0  0
 15 18  2  0  0  0  0
 15 27  1  0  0  0  0
 16 28  1  0  0  0  0
 16 29  1  0  0  0  0
 16 30  1  0  0  0  0
 17 19  2  0  0  0  0
 18 19  1  0  0  0  0
 18 31  1  0  0  0  0
M  END
> <PUBCHEM_COMPOUND_CID>
518187
> <PUBCHEM_COMPOUND_CANONICALIZED>
1
> <PUBCHEM_CACTVS_COMPLEXITY>
311
> <PUBCHEM_CACTVS_HBOND_ACCEPTOR>
3
> <PUBCHEM_CACTVS_HBOND_DONOR>
0
> <PUBCHEM_CACTVS_ROTATABLE_BOND>
6
> <PUBCHEM_CACTVS_SUBSKEYS>
AAADccBwMAAHAAAAAAAAAAAAAAAAAAAAAAAwAAAAAAAAAAABAAAAGgIAAAAACBagkKIyDoAABACIACDSCAACCAAgJQAIikEGC4hNJiKFMxqCOCCkwBEKqAeAQAAAACAAAQAAAAQAQAACAAAACAAAAAAAAA==
> <PUBCHEM_IUPAC_OPENEYE_NAME>
[2-(3,4-dichlorophenoxy)-1-methyl-ethyl] 2,2-dichloropropanoate
> <PUBCHEM_IUPAC_CAS_NAME>
2,2-dichloropropanoic acid 1-(3,4-dichlorophenoxy)propan-2-yl ester
> <PUBCHEM_IUPAC_NAME_MARKUP>
1-(3,4-dichlorophenoxy)propan-2-yl 2,2-dichloropropanoate
> <PUBCHEM_IUPAC_NAME>
1-(3,4-dichlorophenoxy)propan-2-yl 2,2-dichloropropanoate
> <PUBCHEM_IUPAC_SYSTEMATIC_NAME>
1-[3,4-bis(chloranyl)phenoxy]propan-2-yl 2,2-bis(chloranyl)propanoate
> <PUBCHEM_IUPAC_TRADITIONAL_NAME>
2,2-dichloropropionic acid [2-(3,4-dichlorophenoxy)-1-methyl-ethyl] ester
> <PUBCHEM_IUPAC_INCHI>
InChI=1S/C12H12Cl4O3/c1-7(19-11(17)12(2,15)16)6-18-8-3-4-9(13)10(14)5-8/h3-5,7H,6H2,1-2H3
> <PUBCHEM_IUPAC_INCHIKEY>
KGLPCYVCDGKBJA-UHFFFAOYSA-N
> <PUBCHEM_XLOGP3_AA>
5
> <PUBCHEM_EXACT_MASS>
345.951105
> <PUBCHEM_MOLECULAR_FORMULA>
C12H12Cl4O3
> <PUBCHEM_MOLECULAR_WEIGHT>
346.0
> <PUBCHEM_OPENEYE_CAN_SMILES>
CC(COC1=CC(=C(C=C1)Cl)Cl)OC(=O)C(C)(Cl)Cl
> <PUBCHEM_OPENEYE_ISO_SMILES>
CC(COC1=CC(=C(C=C1)Cl)Cl)OC(=O)C(C)(Cl)Cl
> <PUBCHEM_CACTVS_TPSA>
35.5
> <PUBCHEM_MONOISOTOPIC_WEIGHT>
343.954055
> <PUBCHEM_TOTAL_CHARGE>
0
> <PUBCHEM_HEAVY_ATOM_COUNT>
19
> <PUBCHEM_ATOM_DEF_STEREO_COUNT>
0
> <PUBCHEM_ATOM_UDEF_STEREO_COUNT>
1
> <PUBCHEM_BOND_DEF_STEREO_COUNT>
0
> <PUBCHEM_BOND_UDEF_STEREO_COUNT>
0
> <PUBCHEM_ISOTOPIC_ATOM_COUNT>
0
> <PUBCHEM_COMPONENT_COUNT>
1
> <PUBCHEM_CACTVS_TAUTO_COUNT>
-1
> <PUBCHEM_COORDINATE_TYPE>
1
5
255
> <PUBCHEM_BONDANNOTATIONS>
11  14  8
11  15  8
14  17  8
15  18  8
17  19  8
18  19  8
8  10  3
$$$$
