518151
  -OEChem-10302200292D
 74 79  0     1  0  0  0  0  0999 V2000
    5.5000    1.0849    0.0000 P   0  0  0  0  0  0  0  0  0  0  0  0
    4.6340    0.5849    0.0000 O   0  0  0  0  0  0  0  0  0  0  0  0
    6.0000    0.2189    0.0000 O   0  0  0  0  0  0  0  0  0  0  0  0
    5.0000    1.9510    0.0000 O   0  0  0  0  0  0  0  0  0  0  0  0
    6.3660    1.5849    0.0000 O   0  0  0  0  0  0  0  0  0  0  0  0
    4.6339   -3.4150    0.0000 C   0  0  3  0  0  0  0  0  0  0  0  0
    4.6339   -2.4150    0.0000 C   0  0  0  0  0  0  0  0  0  0  0  0
    3.7679   -3.9150    0.0000 C   0  0  0  0  0  0  0  0  0  0  0  0
    5.5000   -3.9151    0.0000 C   0  0  0  0  0  0  0  0  0  0  0  0
    5.5000   -1.9150    0.0000 C   0  0  0  0  0  0  0  0  0  0  0  0
    3.7679   -1.9150    0.0000 C   0  0  0  0  0  0  0  0  0  0  0  0
    2.9019   -3.4150    0.0000 C   0  0  0  0  0  0  0  0  0  0  0  0
    3.7679   -4.9151    0.0000 C   0  0  0  0  0  0  0  0  0  0  0  0
    4.6340   -0.4151    0.0000 C   0  0  0  0  0  0  0  0  0  0  0  0
    5.5000   -0.9150    0.0000 C   0  0  0  0  0  0  0  0  0  0  0  0
    3.7680   -0.9151    0.0000 C   0  0  0  0  0  0  0  0  0  0  0  0
    2.0358   -3.9150    0.0000 C   0  0  0  0  0  0  0  0  0  0  0  0
    2.9019   -5.4150    0.0000 C   0  0  0  0  0  0  0  0  0  0  0  0
    2.0358   -4.9150    0.0000 C   0  0  0  0  0  0  0  0  0  0  0  0
    7.0000    0.2189    0.0000 C   0  0  0  0  0  0  0  0  0  0  0  0
    4.0000    1.9510    0.0000 C   0  0  0  0  0  0  0  0  0  0  0  0
    7.8660    0.7189    0.0000 C   0  0  0  0  0  0  0  0  0  0  0  0
    3.5000    2.8170    0.0000 C   0  0  0  0  0  0  0  0  0  0  0  0
    8.3660    1.5849    0.0000 C   0  0  0  0  0  0  0  0  0  0  0  0
    4.0000    3.6830    0.0000 C   0  0  0  0  0  0  0  0  0  0  0  0
    7.0000   -0.7811    0.0000 C   0  0  0  0  0  0  0  0  0  0  0  0
    3.5000    1.0849    0.0000 C   0  0  0  0  0  0  0  0  0  0  0  0
    8.7320    0.2189    0.0000 C   0  0  0  0  0  0  0  0  0  0  0  0
    2.5000    2.8170    0.0000 C   0  0  0  0  0  0  0  0  0  0  0  0
    7.8660   -1.2811    0.0000 C   0  0  0  0  0  0  0  0  0  0  0  0
    2.5000    1.0849    0.0000 C   0  0  0  0  0  0  0  0  0  0  0  0
    8.7320   -0.7811    0.0000 C   0  0  0  0  0  0  0  0  0  0  0  0
    2.0000    1.9510    0.0000 C   0  0  0  0  0  0  0  0  0  0  0  0
    7.8660    2.4510    0.0000 C   0  0  0  0  0  0  0  0  0  0  0  0
    5.0000    3.6830    0.0000 C   0  0  0  0  0  0  0  0  0  0  0  0
    9.3660    1.5849    0.0000 C   0  0  0  0  0  0  0  0  0  0  0  0
    3.5000    4.5490    0.0000 C   0  0  0  0  0  0  0  0  0  0  0  0
    8.3660    3.3170    0.0000 C   0  0  0  0  0  0  0  0  0  0  0  0
    5.5000    4.5490    0.0000 C   0  0  0  0  0  0  0  0  0  0  0  0
    9.8660    2.4510    0.0000 C   0  0  0  0  0  0  0  0  0  0  0  0
    4.0000    5.4150    0.0000 C   0  0  0  0  0  0  0  0  0  0  0  0
    9.3660    3.3170    0.0000 C   0  0  0  0  0  0  0  0  0  0  0  0
    5.0000    5.4150    0.0000 C   0  0  0  0  0  0  0  0  0  0  0  0
    5.1709   -3.1050    0.0000 H   0  0  0  0  0  0  0  0  0  0  0  0
    5.1900   -4.4520    0.0000 H   0  0  0  0  0  0  0  0  0  0  0  0
    6.0369   -4.2251    0.0000 H   0  0  0  0  0  0  0  0  0  0  0  0
    5.8100   -3.3781    0.0000 H   0  0  0  0  0  0  0  0  0  0  0  0
    6.0369   -2.2250    0.0000 H   0  0  0  0  0  0  0  0  0  0  0  0
    3.2310   -2.2250    0.0000 H   0  0  0  0  0  0  0  0  0  0  0  0
    2.9019   -2.7950    0.0000 H   0  0  0  0  0  0  0  0  0  0  0  0
    4.3048   -5.2251    0.0000 H   0  0  0  0  0  0  0  0  0  0  0  0
    6.0369   -0.6050    0.0000 H   0  0  0  0  0  0  0  0  0  0  0  0
    3.2310   -0.6051    0.0000 H   0  0  0  0  0  0  0  0  0  0  0  0
    1.4989   -3.6050    0.0000 H   0  0  0  0  0  0  0  0  0  0  0  0
    2.9019   -6.0350    0.0000 H   0  0  0  0  0  0  0  0  0  0  0  0
    1.4989   -5.2250    0.0000 H   0  0  0  0  0  0  0  0  0  0  0  0
    6.4631   -1.0911    0.0000 H   0  0  0  0  0  0  0  0  0  0  0  0
    3.8100    0.5480    0.0000 H   0  0  0  0  0  0  0  0  0  0  0  0
    9.2690    0.5289    0.0000 H   0  0  0  0  0  0  0  0  0  0  0  0
    2.1900    3.3539    0.0000 H   0  0  0  0  0  0  0  0  0  0  0  0
    7.8660   -1.9011    0.0000 H   0  0  0  0  0  0  0  0  0  0  0  0
    2.1900    0.5480    0.0000 H   0  0  0  0  0  0  0  0  0  0  0  0
    9.2690   -1.0911    0.0000 H   0  0  0  0  0  0  0  0  0  0  0  0
    1.3800    1.9510    0.0000 H   0  0  0  0  0  0  0  0  0  0  0  0
    7.2460    2.4510    0.0000 H   0  0  0  0  0  0  0  0  0  0  0  0
    5.3100    3.1461    0.0000 H   0  0  0  0  0  0  0  0  0  0  0  0
    9.6760    1.0480    0.0000 H   0  0  0  0  0  0  0  0  0  0  0  0
    2.8800    4.5490    0.0000 H   0  0  0  0  0  0  0  0  0  0  0  0
    8.0560    3.8539    0.0000 H   0  0  0  0  0  0  0  0  0  0  0  0
    6.1200    4.5490    0.0000 H   0  0  0  0  0  0  0  0  0  0  0  0
   10.4860    2.4510    0.0000 H   0  0  0  0  0  0  0  0  0  0  0  0
    3.6900    5.9520    0.0000 H   0  0  0  0  0  0  0  0  0  0  0  0
    9.6760    3.8539    0.0000 H   0  0  0  0  0  0  0  0  0  0  0  0
    5.3100    5.9520    0.0000 H   0  0  0  0  0  0  0  0  0  0  0  0
  1  2  1  0  0  0  0
  1  3  1  0  0  0  0
  1  4  1  0  0  0  0
  1  5  2  0  0  0  0
  2 14  1  0  0  0  0
  3 20  1  0  0  0  0
  4 21  1  0  0  0  0
  6  7  1  0  0  0  0
  6  8  1  0  0  0  0
  6  9  1  0  0  0  0
  6 44  1  0  0  0  0
  7 10  2  0  0  0  0
  7 11  1  0  0  0  0
  8 12  2  0  0  0  0
  8 13  1  0  0  0  0
  9 45  1  0  0  0  0
  9 46  1  0  0  0  0
  9 47  1  0  0  0  0
 10 15  1  0  0  0  0
 10 48  1  0  0  0  0
 11 16  2  0  0  0  0
 11 49  1  0  0  0  0
 12 17  1  0  0  0  0
 12 50  1  0  0  0  0
 13 18  2  0  0  0  0
 13 51  1  0  0  0  0
 14 15  2  0  0  0  0
 14 16  1  0  0  0  0
 15 52  1  0  0  0  0
 16 53  1  0  0  0  0
 17 19  2  0  0  0  0
 17 54  1  0  0  0  0
 18 19  1  0  0  0  0
 18 55  1  0  0  0  0
 19 56  1  0  0  0  0
 20 22  1  0  0  0  0
 20 26  2  0  0  0  0
 21 23  1  0  0  0  0
 21 27  2  0  0  0  0
 22 24  1  0  0  0  0
 22 28  2  0  0  0  0
 23 25  1  0  0  0  0
 23 29  2  0  0  0  0
 24 34  2  0  0  0  0
 24 36  1  0  0  0  0
 25 35  2  0  0  0  0
 25 37  1  0  0  0  0
 26 30  1  0  0  0  0
 26 57  1  0  0  0  0
 27 31  1  0  0  0  0
 27 58  1  0  0  0  0
 28 32  1  0  0  0  0
 28 59  1  0  0  0  0
 29 33  1  0  0  0  0
 29 60  1  0  0  0  0
 30 32  2  0  0  0  0
 30 61  1  0  0  0  0
 31 33  2  0  0  0  0
 31 62  1  0  0  0  0
 32 63  1  0  0  0  0
 33 64  1  0  0  0  0
 34 38  1  0  0  0  0
 34 65  1  0  0  0  0
 35 39  1  0  0  0  0
 35 66  1  0  0  0  0
 36 40  2  0  0  0  0
 36 67  1  0  0  0  0
 37 41  2  0  0  0  0
 37 68  1  0  0  0  0
 38 42  2  0  0  0  0
 38 69  1  0  0  0  0
 39 43  2  0  0  0  0
 39 70  1  0  0  0  0
 40 42  1  0  0  0  0
 40 71  1  0  0  0  0
 41 43  1  0  0  0  0
 41 72  1  0  0  0  0
 42 73  1  0  0  0  0
 43 74  1  0  0  0  0
M  END
> <PUBCHEM_COMPOUND_CID>
518151
> <PUBCHEM_COMPOUND_CANONICALIZED>
1
> <PUBCHEM_CACTVS_COMPLEXITY>
808
> <PUBCHEM_CACTVS_HBOND_ACCEPTOR>
4
> <PUBCHEM_CACTVS_HBOND_DONOR>
0
> <PUBCHEM_CACTVS_ROTATABLE_BOND>
10
> <PUBCHEM_CACTVS_SUBSKEYS>
AAADceB8OAIAAAAAAAAAAAAAAAAAAAAAAAAwYMGDAAAAAAABVAAAGgAAACAADQSAmAAyBoAAARCAQiBCAIACAAAgIAAIiAAGCIgIJiKAERKAMAAkwBEIiAeAwPAOoAAAAAAIAABAAAAAABAAAAAAAAAAAA==
> <PUBCHEM_IUPAC_OPENEYE_NAME>
[4-(1-phenylethyl)phenyl] bis(2-phenylphenyl) phosphate
> <PUBCHEM_IUPAC_CAS_NAME>
phosphoric acid [4-(1-phenylethyl)phenyl] bis(2-phenylphenyl) ester
> <PUBCHEM_IUPAC_NAME_MARKUP>
[4-(1-phenylethyl)phenyl] bis(2-phenylphenyl) phosphate
> <PUBCHEM_IUPAC_NAME>
[4-(1-phenylethyl)phenyl] bis(2-phenylphenyl) phosphate
> <PUBCHEM_IUPAC_SYSTEMATIC_NAME>
[4-(1-phenylethyl)phenyl] bis(2-phenylphenyl) phosphate
> <PUBCHEM_IUPAC_TRADITIONAL_NAME>
phosphoric acid [4-(1-phenylethyl)phenyl] bis(2-phenylphenyl) ester
> <PUBCHEM_IUPAC_INCHI>
InChI=1S/C38H31O4P/c1-29(30-15-5-2-6-16-30)31-25-27-34(28-26-31)40-43(39,41-37-23-13-11-21-35(37)32-17-7-3-8-18-32)42-38-24-14-12-22-36(38)33-19-9-4-10-20-33/h2-29H,1H3
> <PUBCHEM_IUPAC_INCHIKEY>
NSGMZQQTTMQEMW-UHFFFAOYSA-N
> <PUBCHEM_XLOGP3_AA>
10.5
> <PUBCHEM_EXACT_MASS>
582.19599646
> <PUBCHEM_MOLECULAR_FORMULA>
C38H31O4P
> <PUBCHEM_MOLECULAR_WEIGHT>
582.6
> <PUBCHEM_OPENEYE_CAN_SMILES>
CC(C1=CC=CC=C1)C2=CC=C(C=C2)OP(=O)(OC3=CC=CC=C3C4=CC=CC=C4)OC5=CC=CC=C5C6=CC=CC=C6
> <PUBCHEM_OPENEYE_ISO_SMILES>
CC(C1=CC=CC=C1)C2=CC=C(C=C2)OP(=O)(OC3=CC=CC=C3C4=CC=CC=C4)OC5=CC=CC=C5C6=CC=CC=C6
> <PUBCHEM_CACTVS_TPSA>
44.8
> <PUBCHEM_MONOISOTOPIC_WEIGHT>
582.19599646
> <PUBCHEM_TOTAL_CHARGE>
0
> <PUBCHEM_HEAVY_ATOM_COUNT>
43
> <PUBCHEM_ATOM_DEF_STEREO_COUNT>
0
> <PUBCHEM_ATOM_UDEF_STEREO_COUNT>
1
> <PUBCHEM_BOND_DEF_STEREO_COUNT>
0
> <PUBCHEM_BOND_UDEF_STEREO_COUNT>
0
> <PUBCHEM_ISOTOPIC_ATOM_COUNT>
0
> <PUBCHEM_COMPONENT_COUNT>
1
> <PUBCHEM_CACTVS_TAUTO_COUNT>
-1
> <PUBCHEM_COORDINATE_TYPE>
1
5
255
> <PUBCHEM_BONDANNOTATIONS>
10  15  8
11  16  8
12  17  8
13  18  8
14  15  8
14  16  8
17  19  8
18  19  8
20  22  8
20  26  8
21  23  8
21  27  8
22  28  8
23  29  8
24  34  8
24  36  8
25  35  8
25  37  8
26  30  8
27  31  8
28  32  8
29  33  8
30  32  8
31  33  8
34  38  8
35  39  8
36  40  8
37  41  8
38  42  8
39  43  8
40  42  8
41  43  8
6  9  3
7  10  8
7  11  8
8  12  8
8  13  8
$$$$
