518234
  -OEChem-10302200292D
 19 19  0     1  0  0  0  0  0999 V2000
    4.3660   -0.0000    0.0000 O   0  0  0  0  0  0  0  0  0  0  0  0
    2.5000   -0.5000    0.0000 C   0  0  3  0  0  0  0  0  0  0  0  0
    2.5000    0.5000    0.0000 C   0  0  3  0  0  0  0  0  0  0  0  0
    3.3660   -0.0000    0.0000 C   0  0  0  0  0  0  0  0  0  0  0  0
    2.0000   -1.3660    0.0000 C   0  0  0  0  0  0  0  0  0  0  0  0
    2.0000    1.3660    0.0000 C   0  0  0  0  0  0  0  0  0  0  0  0
    4.8660   -0.8660    0.0000 C   0  0  0  0  0  0  0  0  0  0  0  0
    1.9011   -0.3395    0.0000 H   0  0  0  0  0  0  0  0  0  0  0  0
    1.9011    0.3395    0.0000 H   0  0  0  0  0  0  0  0  0  0  0  0
    3.5265    0.5989    0.0000 H   0  0  0  0  0  0  0  0  0  0  0  0
    1.4631   -1.0560    0.0000 H   0  0  0  0  0  0  0  0  0  0  0  0
    1.6900   -1.9030    0.0000 H   0  0  0  0  0  0  0  0  0  0  0  0
    2.5369   -1.6760    0.0000 H   0  0  0  0  0  0  0  0  0  0  0  0
    2.5369    1.6760    0.0000 H   0  0  0  0  0  0  0  0  0  0  0  0
    1.6900    1.9030    0.0000 H   0  0  0  0  0  0  0  0  0  0  0  0
    1.4631    1.0560    0.0000 H   0  0  0  0  0  0  0  0  0  0  0  0
    4.3291   -1.1760    0.0000 H   0  0  0  0  0  0  0  0  0  0  0  0
    5.1760   -1.4030    0.0000 H   0  0  0  0  0  0  0  0  0  0  0  0
    5.4030   -0.5560    0.0000 H   0  0  0  0  0  0  0  0  0  0  0  0
  1  4  1  0  0  0  0
  1  7  1  0  0  0  0
  2  3  1  0  0  0  0
  2  4  1  0  0  0  0
  2  5  1  0  0  0  0
  2  8  1  0  0  0  0
  3  4  1  0  0  0  0
  3  6  1  0  0  0  0
  3  9  1  0  0  0  0
  4 10  1  0  0  0  0
  5 11  1  0  0  0  0
  5 12  1  0  0  0  0
  5 13  1  0  0  0  0
  6 14  1  0  0  0  0
  6 15  1  0  0  0  0
  6 16  1  0  0  0  0
  7 17  1  0  0  0  0
  7 18  1  0  0  0  0
  7 19  1  0  0  0  0
M  END
> <PUBCHEM_COMPOUND_CID>
518234
> <PUBCHEM_COMPOUND_CANONICALIZED>
1
> <PUBCHEM_CACTVS_COMPLEXITY>
62.6
> <PUBCHEM_CACTVS_HBOND_ACCEPTOR>
1
> <PUBCHEM_CACTVS_HBOND_DONOR>
0
> <PUBCHEM_CACTVS_ROTATABLE_BOND>
1
> <PUBCHEM_CACTVS_SUBSKEYS>
AAADccBgIAAAAAAAAAAAAAAAGAAAAAAAAAAAAAAAAAAAAAAAAAAAGgAAAAAADRSggAICAAAABAAAAAAAAAAAAAAAAAAAAAAAAAAAAAIAAAAAAAAEAAAAAAAAAAAIAAAAAAAAAAAAAAAAAAAAAAAAAAAAAA==
> <PUBCHEM_IUPAC_OPENEYE_NAME>
1-methoxy-2,3-dimethyl-cyclopropane
> <PUBCHEM_IUPAC_CAS_NAME>
1-methoxy-2,3-dimethylcyclopropane
> <PUBCHEM_IUPAC_NAME_MARKUP>
1-methoxy-2,3-dimethylcyclopropane
> <PUBCHEM_IUPAC_NAME>
1-methoxy-2,3-dimethylcyclopropane
> <PUBCHEM_IUPAC_SYSTEMATIC_NAME>
1-methoxy-2,3-dimethyl-cyclopropane
> <PUBCHEM_IUPAC_TRADITIONAL_NAME>
1-methoxy-2,3-dimethyl-cyclopropane
> <PUBCHEM_IUPAC_INCHI>
InChI=1S/C6H12O/c1-4-5(2)6(4)7-3/h4-6H,1-3H3
> <PUBCHEM_IUPAC_INCHIKEY>
SRXMDYKINVQGHW-UHFFFAOYSA-N
> <PUBCHEM_XLOGP3_AA>
1.5
> <PUBCHEM_EXACT_MASS>
100.088815002
> <PUBCHEM_MOLECULAR_FORMULA>
C6H12O
> <PUBCHEM_MOLECULAR_WEIGHT>
100.16
> <PUBCHEM_OPENEYE_CAN_SMILES>
CC1C(C1OC)C
> <PUBCHEM_OPENEYE_ISO_SMILES>
CC1C(C1OC)C
> <PUBCHEM_CACTVS_TPSA>
9.2
> <PUBCHEM_MONOISOTOPIC_WEIGHT>
100.088815002
> <PUBCHEM_TOTAL_CHARGE>
0
> <PUBCHEM_HEAVY_ATOM_COUNT>
7
> <PUBCHEM_ATOM_DEF_STEREO_COUNT>
0
> <PUBCHEM_ATOM_UDEF_STEREO_COUNT>
2
> <PUBCHEM_BOND_DEF_STEREO_COUNT>
0
> <PUBCHEM_BOND_UDEF_STEREO_COUNT>
0
> <PUBCHEM_ISOTOPIC_ATOM_COUNT>
0
> <PUBCHEM_COMPONENT_COUNT>
1
> <PUBCHEM_CACTVS_TAUTO_COUNT>
-1
> <PUBCHEM_COORDINATE_TYPE>
1
5
255
> <PUBCHEM_BONDANNOTATIONS>
2  5  3
3  6  3
$$$$
