518272
  -OEChem-10302200292D
 32 32  0     1  0  0  0  0  0999 V2000
    2.0000   -1.4050    0.0000 Cl  0  0  0  0  0  0  0  0  0  0  0  0
    3.7320   -4.4050    0.0000 Cl  0  0  0  0  0  0  0  0  0  0  0  0
    5.4641    1.5950    0.0000 O   0  0  0  0  0  0  0  0  0  0  0  0
    6.3301    4.0950    0.0000 O   0  0  0  0  0  0  0  0  0  0  0  0
    3.7320   -0.4050    0.0000 O   0  0  0  0  0  0  0  0  0  0  0  0
    3.7320    1.5950    0.0000 O   0  0  0  0  0  0  0  0  0  0  0  0
    5.4641    2.5950    0.0000 C   0  0  3  0  0  0  0  0  0  0  0  0
    6.3301    3.0950    0.0000 C   0  0  3  0  0  0  0  0  0  0  0  0
    4.5981    3.0950    0.0000 C   0  0  0  0  0  0  0  0  0  0  0  0
    7.1962    2.5950    0.0000 C   0  0  0  0  0  0  0  0  0  0  0  0
    4.5981    1.0950    0.0000 C   0  0  0  0  0  0  0  0  0  0  0  0
    4.5981    0.0950    0.0000 C   0  0  0  0  0  0  0  0  0  0  0  0
    3.7320   -1.4050    0.0000 C   0  0  0  0  0  0  0  0  0  0  0  0
    2.8660   -1.9050    0.0000 C   0  0  0  0  0  0  0  0  0  0  0  0
    4.5981   -1.9050    0.0000 C   0  0  0  0  0  0  0  0  0  0  0  0
    2.8660   -2.9050    0.0000 C   0  0  0  0  0  0  0  0  0  0  0  0
    4.5981   -2.9050    0.0000 C   0  0  0  0  0  0  0  0  0  0  0  0
    3.7320   -3.4050    0.0000 C   0  0  0  0  0  0  0  0  0  0  0  0
    6.0010    2.2850    0.0000 H   0  0  0  0  0  0  0  0  0  0  0  0
    6.8671    3.4050    0.0000 H   0  0  0  0  0  0  0  0  0  0  0  0
    4.9081    3.6319    0.0000 H   0  0  0  0  0  0  0  0  0  0  0  0
    4.0611    3.4050    0.0000 H   0  0  0  0  0  0  0  0  0  0  0  0
    4.2881    2.5581    0.0000 H   0  0  0  0  0  0  0  0  0  0  0  0
    6.8862    2.0581    0.0000 H   0  0  0  0  0  0  0  0  0  0  0  0
    7.7331    2.2850    0.0000 H   0  0  0  0  0  0  0  0  0  0  0  0
    7.5062    3.1319    0.0000 H   0  0  0  0  0  0  0  0  0  0  0  0
    6.8671    4.4050    0.0000 H   0  0  0  0  0  0  0  0  0  0  0  0
    4.8101   -0.4876    0.0000 H   0  0  0  0  0  0  0  0  0  0  0  0
    5.2087    0.2027    0.0000 H   0  0  0  0  0  0  0  0  0  0  0  0
    5.1350   -1.5950    0.0000 H   0  0  0  0  0  0  0  0  0  0  0  0
    2.3291   -3.2150    0.0000 H   0  0  0  0  0  0  0  0  0  0  0  0
    5.1350   -3.2150    0.0000 H   0  0  0  0  0  0  0  0  0  0  0  0
  1 14  1  0  0  0  0
  2 18  1  0  0  0  0
  3  7  1  0  0  0  0
  3 11  1  0  0  0  0
  4  8  1  0  0  0  0
  4 27  1  0  0  0  0
  5 12  1  0  0  0  0
  5 13  1  0  0  0  0
  6 11  2  0  0  0  0
  7  8  1  0  0  0  0
  7  9  1  0  0  0  0
  7 19  1  0  0  0  0
  8 10  1  0  0  0  0
  8 20  1  0  0  0  0
  9 21  1  0  0  0  0
  9 22  1  0  0  0  0
  9 23  1  0  0  0  0
 10 24  1  0  0  0  0
 10 25  1  0  0  0  0
 10 26  1  0  0  0  0
 11 12  1  0  0  0  0
 12 28  1  0  0  0  0
 12 29  1  0  0  0  0
 13 14  2  0  0  0  0
 13 15  1  0  0  0  0
 14 16  1  0  0  0  0
 15 17  2  0  0  0  0
 15 30  1  0  0  0  0
 16 18  2  0  0  0  0
 16 31  1  0  0  0  0
 17 18  1  0  0  0  0
 17 32  1  0  0  0  0
M  END
> <PUBCHEM_COMPOUND_CID>
518272
> <PUBCHEM_COMPOUND_CANONICALIZED>
1
> <PUBCHEM_CACTVS_COMPLEXITY>
275
> <PUBCHEM_CACTVS_HBOND_ACCEPTOR>
4
> <PUBCHEM_CACTVS_HBOND_DONOR>
1
> <PUBCHEM_CACTVS_ROTATABLE_BOND>
6
> <PUBCHEM_CACTVS_SUBSKEYS>
AAADccBwOAAGAAAAAAAAAAAAAAAAAAAAAAAwAAAAAAAAAAABAAAAGgIACAAACBagkCIyDoAABgCIACDSCAICCAAgJUAIiABGC4gNNiOFMx6CeCCkwBELqAeAQAAAACAAAACACAAAQAAAAQAQAAAAAAAAAA==
> <PUBCHEM_IUPAC_OPENEYE_NAME>
(2-hydroxy-1-methyl-propyl) 2-(2,4-dichlorophenoxy)acetate
> <PUBCHEM_IUPAC_CAS_NAME>
2-(2,4-dichlorophenoxy)acetic acid 3-hydroxybutan-2-yl ester
> <PUBCHEM_IUPAC_NAME_MARKUP>
3-hydroxybutan-2-yl 2-(2,4-dichlorophenoxy)acetate
> <PUBCHEM_IUPAC_NAME>
3-hydroxybutan-2-yl 2-(2,4-dichlorophenoxy)acetate
> <PUBCHEM_IUPAC_SYSTEMATIC_NAME>
3-oxidanylbutan-2-yl 2-[2,4-bis(chloranyl)phenoxy]ethanoate
> <PUBCHEM_IUPAC_TRADITIONAL_NAME>
2-(2,4-dichlorophenoxy)acetic acid (2-hydroxy-1-methyl-propyl) ester
> <PUBCHEM_IUPAC_INCHI>
InChI=1S/C12H14Cl2O4/c1-7(15)8(2)18-12(16)6-17-11-4-3-9(13)5-10(11)14/h3-5,7-8,15H,6H2,1-2H3
> <PUBCHEM_IUPAC_INCHIKEY>
VXSLRAHUUHDTDM-UHFFFAOYSA-N
> <PUBCHEM_XLOGP3>
3.3
> <PUBCHEM_EXACT_MASS>
292.0269143
> <PUBCHEM_MOLECULAR_FORMULA>
C12H14Cl2O4
> <PUBCHEM_MOLECULAR_WEIGHT>
293.14
> <PUBCHEM_OPENEYE_CAN_SMILES>
CC(C(C)OC(=O)COC1=C(C=C(C=C1)Cl)Cl)O
> <PUBCHEM_OPENEYE_ISO_SMILES>
CC(C(C)OC(=O)COC1=C(C=C(C=C1)Cl)Cl)O
> <PUBCHEM_CACTVS_TPSA>
55.8
> <PUBCHEM_MONOISOTOPIC_WEIGHT>
292.0269143
> <PUBCHEM_TOTAL_CHARGE>
0
> <PUBCHEM_HEAVY_ATOM_COUNT>
18
> <PUBCHEM_ATOM_DEF_STEREO_COUNT>
0
> <PUBCHEM_ATOM_UDEF_STEREO_COUNT>
2
> <PUBCHEM_BOND_DEF_STEREO_COUNT>
0
> <PUBCHEM_BOND_UDEF_STEREO_COUNT>
0
> <PUBCHEM_ISOTOPIC_ATOM_COUNT>
0
> <PUBCHEM_COMPONENT_COUNT>
1
> <PUBCHEM_CACTVS_TAUTO_COUNT>
-1
> <PUBCHEM_COORDINATE_TYPE>
1
5
255
> <PUBCHEM_BONDANNOTATIONS>
13  14  8
13  15  8
14  16  8
15  17  8
16  18  8
17  18  8
8  4  3
7  9  3
$$$$
