518257
  -OEChem-10302200292D
 24 24  0     1  0  0  0  0  0999 V2000
    4.0392    2.1672    0.0000 O   0  0  0  0  0  0  0  0  0  0  0  0
    6.8870    0.0981    0.0000 O   0  0  0  0  0  0  0  0  0  0  0  0
    5.1270   -0.1807    0.0000 N   0  0  0  0  0  0  0  0  0  0  0  0
    5.6270    1.3582    0.0000 N   0  0  0  0  0  0  0  0  0  0  0  0
    4.3179    0.4071    0.0000 C   0  0  3  0  0  0  0  0  0  0  0  0
    3.3669    0.0981    0.0000 C   0  0  0  0  0  0  0  0  0  0  0  0
    3.1590   -0.8800    0.0000 C   0  0  0  0  0  0  0  0  0  0  0  0
    4.6270    1.3582    0.0000 C   0  0  0  0  0  0  0  0  0  0  0  0
    2.2079   -1.1890    0.0000 C   0  0  0  0  0  0  0  0  0  0  0  0
    5.9360    0.4071    0.0000 C   0  0  0  0  0  0  0  0  0  0  0  0
    2.6237    0.7672    0.0000 C   0  0  0  0  0  0  0  0  0  0  0  0
    2.0000   -2.1672    0.0000 C   0  0  0  0  0  0  0  0  0  0  0  0
    4.2210   -0.2052    0.0000 H   0  0  0  0  0  0  0  0  0  0  0  0
    3.2453   -1.4940    0.0000 H   0  0  0  0  0  0  0  0  0  0  0  0
    3.7786   -0.9017    0.0000 H   0  0  0  0  0  0  0  0  0  0  0  0
    5.1270   -0.8007    0.0000 H   0  0  0  0  0  0  0  0  0  0  0  0
    2.1216   -0.5751    0.0000 H   0  0  0  0  0  0  0  0  0  0  0  0
    1.5883   -1.1674    0.0000 H   0  0  0  0  0  0  0  0  0  0  0  0
    5.9914    1.8598    0.0000 H   0  0  0  0  0  0  0  0  0  0  0  0
    2.7526    1.3737    0.0000 H   0  0  0  0  0  0  0  0  0  0  0  0
    2.0341    0.5757    0.0000 H   0  0  0  0  0  0  0  0  0  0  0  0
    1.3936   -2.0383    0.0000 H   0  0  0  0  0  0  0  0  0  0  0  0
    1.8711   -2.7736    0.0000 H   0  0  0  0  0  0  0  0  0  0  0  0
    2.6064   -2.2961    0.0000 H   0  0  0  0  0  0  0  0  0  0  0  0
  1  8  2  0  0  0  0
  2 10  2  0  0  0  0
  3  5  1  0  0  0  0
  3 10  1  0  0  0  0
  3 16  1  0  0  0  0
  4  8  1  0  0  0  0
  4 10  1  0  0  0  0
  4 19  1  0  0  0  0
  5  6  1  0  0  0  0
  5  8  1  0  0  0  0
  5 13  1  0  0  0  0
  6  7  1  0  0  0  0
  6 11  2  0  0  0  0
  7  9  1  0  0  0  0
  7 14  1  0  0  0  0
  7 15  1  0  0  0  0
  9 12  1  0  0  0  0
  9 17  1  0  0  0  0
  9 18  1  0  0  0  0
 11 20  1  0  0  0  0
 11 21  1  0  0  0  0
 12 22  1  0  0  0  0
 12 23  1  0  0  0  0
 12 24  1  0  0  0  0
M  END
> <PUBCHEM_COMPOUND_CID>
518257
> <PUBCHEM_COMPOUND_CANONICALIZED>
1
> <PUBCHEM_CACTVS_COMPLEXITY>
235
> <PUBCHEM_CACTVS_HBOND_ACCEPTOR>
2
> <PUBCHEM_CACTVS_HBOND_DONOR>
2
> <PUBCHEM_CACTVS_ROTATABLE_BOND>
3
> <PUBCHEM_CACTVS_SUBSKEYS>
AAADccBzMAAAAAAAAAAAAAAAAAAAAWAAAAAAAAAAAAAAAAAAAAAAHgAQAAAADCjBgAQDAALAAACIAgFSEACAAAAgAAAAAIGIAAiAQBIAgSAUAAAIlyIAAAEYCAAAAAAAAAAAAAAAAAAAAAAAAAAAAAAAAA==
> <PUBCHEM_IUPAC_OPENEYE_NAME>
5-(1-methylenebutyl)imidazolidine-2,4-dione
> <PUBCHEM_IUPAC_CAS_NAME>
5-pent-1-en-2-ylimidazolidine-2,4-dione
> <PUBCHEM_IUPAC_NAME_MARKUP>
5-pent-1-en-2-ylimidazolidine-2,4-dione
> <PUBCHEM_IUPAC_NAME>
5-pent-1-en-2-ylimidazolidine-2,4-dione
> <PUBCHEM_IUPAC_SYSTEMATIC_NAME>
5-pent-1-en-2-ylimidazolidine-2,4-dione
> <PUBCHEM_IUPAC_TRADITIONAL_NAME>
5-(1-propylvinyl)hydantoin
> <PUBCHEM_IUPAC_INCHI>
InChI=1S/C8H12N2O2/c1-3-4-5(2)6-7(11)10-8(12)9-6/h6H,2-4H2,1H3,(H2,9,10,11,12)
> <PUBCHEM_IUPAC_INCHIKEY>
UYGMZBYLCPNOJJ-UHFFFAOYSA-N
> <PUBCHEM_XLOGP3_AA>
1.4
> <PUBCHEM_EXACT_MASS>
168.089877630
> <PUBCHEM_MOLECULAR_FORMULA>
C8H12N2O2
> <PUBCHEM_MOLECULAR_WEIGHT>
168.19
> <PUBCHEM_OPENEYE_CAN_SMILES>
CCCC(=C)C1C(=O)NC(=O)N1
> <PUBCHEM_OPENEYE_ISO_SMILES>
CCCC(=C)C1C(=O)NC(=O)N1
> <PUBCHEM_CACTVS_TPSA>
58.2
> <PUBCHEM_MONOISOTOPIC_WEIGHT>
168.089877630
> <PUBCHEM_TOTAL_CHARGE>
0
> <PUBCHEM_HEAVY_ATOM_COUNT>
12
> <PUBCHEM_ATOM_DEF_STEREO_COUNT>
0
> <PUBCHEM_ATOM_UDEF_STEREO_COUNT>
1
> <PUBCHEM_BOND_DEF_STEREO_COUNT>
0
> <PUBCHEM_BOND_UDEF_STEREO_COUNT>
0
> <PUBCHEM_ISOTOPIC_ATOM_COUNT>
0
> <PUBCHEM_COMPONENT_COUNT>
1
> <PUBCHEM_CACTVS_TAUTO_COUNT>
-1
> <PUBCHEM_COORDINATE_TYPE>
1
5
255
> <PUBCHEM_BONDANNOTATIONS>
5  6  3
$$$$
