518287
  -OEChem-10302200292D
 33 35  0     1  0  0  0  0  0999 V2000
    4.6783   -1.7908    0.0000 O   0  0  0  0  0  0  0  0  0  0  0  0
    6.2619   -0.9861    0.0000 O   0  0  0  0  0  0  0  0  0  0  0  0
    4.6783   -0.1814    0.0000 C   0  0  3  0  0  0  0  0  0  0  0  0
    3.7320   -0.4861    0.0000 C   0  0  0  0  0  0  0  0  0  0  0  0
    4.3709    0.7702    0.0000 C   0  0  0  0  0  0  0  0  0  0  0  0
    5.4883    0.4050    0.0000 C   0  0  0  0  0  0  0  0  0  0  0  0
    5.2619   -0.9861    0.0000 C   0  0  0  0  0  0  0  0  0  0  0  0
    3.7320   -1.4861    0.0000 C   0  0  0  0  0  0  0  0  0  0  0  0
    2.8660    0.0139    0.0000 C   0  0  0  0  0  0  0  0  0  0  0  0
    6.4011   -0.0033    0.0000 C   0  0  0  0  0  0  0  0  0  0  0  0
    5.3855    1.3997    0.0000 C   0  0  0  0  0  0  0  0  0  0  0  0
    3.3931    0.9798    0.0000 C   0  0  0  0  0  0  0  0  0  0  0  0
    2.8660   -1.9861    0.0000 C   0  0  0  0  0  0  0  0  0  0  0  0
    2.0000   -0.4861    0.0000 C   0  0  0  0  0  0  0  0  0  0  0  0
    2.0000   -1.4861    0.0000 C   0  0  0  0  0  0  0  0  0  0  0  0
    7.2112    0.5831    0.0000 C   0  0  0  0  0  0  0  0  0  0  0  0
    6.1955    1.9861    0.0000 C   0  0  0  0  0  0  0  0  0  0  0  0
    7.1084    1.5778    0.0000 C   0  0  0  0  0  0  0  0  0  0  0  0
    3.0857    1.9314    0.0000 C   0  0  0  0  0  0  0  0  0  0  0  0
    4.9850    0.8554    0.0000 H   0  0  0  0  0  0  0  0  0  0  0  0
    4.3936    1.3898    0.0000 H   0  0  0  0  0  0  0  0  0  0  0  0
    2.8660    0.6339    0.0000 H   0  0  0  0  0  0  0  0  0  0  0  0
    6.4649   -0.6200    0.0000 H   0  0  0  0  0  0  0  0  0  0  0  0
    4.8195    1.6529    0.0000 H   0  0  0  0  0  0  0  0  0  0  0  0
    2.9775    0.5198    0.0000 H   0  0  0  0  0  0  0  0  0  0  0  0
    2.8660   -2.6061    0.0000 H   0  0  0  0  0  0  0  0  0  0  0  0
    1.4631   -0.1761    0.0000 H   0  0  0  0  0  0  0  0  0  0  0  0
    1.4631   -1.7961    0.0000 H   0  0  0  0  0  0  0  0  0  0  0  0
    7.7771    0.3299    0.0000 H   0  0  0  0  0  0  0  0  0  0  0  0
    6.1318    2.6028    0.0000 H   0  0  0  0  0  0  0  0  0  0  0  0
    7.6106    1.9413    0.0000 H   0  0  0  0  0  0  0  0  0  0  0  0
    3.5014    2.3914    0.0000 H   0  0  0  0  0  0  0  0  0  0  0  0
    2.4795    2.0614    0.0000 H   0  0  0  0  0  0  0  0  0  0  0  0
  1  7  1  0  0  0  0
  1  8  1  0  0  0  0
  2  7  2  0  0  0  0
  3  4  1  0  0  0  0
  3  5  1  0  0  0  0
  3  6  1  0  0  0  0
  3  7  1  0  0  0  0
  4  8  1  0  0  0  0
  4  9  2  0  0  0  0
  5 12  1  0  0  0  0
  5 20  1  0  0  0  0
  5 21  1  0  0  0  0
  6 10  2  0  0  0  0
  6 11  1  0  0  0  0
  8 13  2  0  0  0  0
  9 14  1  0  0  0  0
  9 22  1  0  0  0  0
 10 16  1  0  0  0  0
 10 23  1  0  0  0  0
 11 17  2  0  0  0  0
 11 24  1  0  0  0  0
 12 19  2  0  0  0  0
 12 25  1  0  0  0  0
 13 15  1  0  0  0  0
 13 26  1  0  0  0  0
 14 15  2  0  0  0  0
 14 27  1  0  0  0  0
 15 28  1  0  0  0  0
 16 18  2  0  0  0  0
 16 29  1  0  0  0  0
 17 18  1  0  0  0  0
 17 30  1  0  0  0  0
 18 31  1  0  0  0  0
 19 32  1  0  0  0  0
 19 33  1  0  0  0  0
M  END
> <PUBCHEM_COMPOUND_CID>
518287
> <PUBCHEM_COMPOUND_CANONICALIZED>
1
> <PUBCHEM_CACTVS_COMPLEXITY>
356
> <PUBCHEM_CACTVS_HBOND_ACCEPTOR>
2
> <PUBCHEM_CACTVS_HBOND_DONOR>
0
> <PUBCHEM_CACTVS_ROTATABLE_BOND>
3
> <PUBCHEM_CACTVS_SUBSKEYS>
AAADccB4MAAAAAAAAAAAAAAAAAAAASAAAAAwYAAAAAAAAEgBQAAAGgAAAAAADgSAmAAwDoAABACIAiDSCAACCAAgIAAIiAEGCIgMJjKENRqCOiCkwBEIqAeKyOCPgAAAAAAIAAAAAAAAABAAAAAAAAAAAA==
> <PUBCHEM_IUPAC_OPENEYE_NAME>
3-allyl-3-phenyl-benzofuran-2-one
> <PUBCHEM_IUPAC_CAS_NAME>
3-phenyl-3-prop-2-enyl-2-benzofuranone
> <PUBCHEM_IUPAC_NAME_MARKUP>
3-phenyl-3-prop-2-enyl-1-benzofuran-2-one
> <PUBCHEM_IUPAC_NAME>
3-phenyl-3-prop-2-enyl-1-benzofuran-2-one
> <PUBCHEM_IUPAC_SYSTEMATIC_NAME>
3-phenyl-3-prop-2-enyl-1-benzofuran-2-one
> <PUBCHEM_IUPAC_TRADITIONAL_NAME>
3-allyl-3-phenyl-coumaran-2-one
> <PUBCHEM_IUPAC_INCHI>
InChI=1S/C17H14O2/c1-2-12-17(13-8-4-3-5-9-13)14-10-6-7-11-15(14)19-16(17)18/h2-11H,1,12H2
> <PUBCHEM_IUPAC_INCHIKEY>
DRYGRMOBXKVKNO-UHFFFAOYSA-N
> <PUBCHEM_XLOGP3_AA>
4
> <PUBCHEM_EXACT_MASS>
250.099379685
> <PUBCHEM_MOLECULAR_FORMULA>
C17H14O2
> <PUBCHEM_MOLECULAR_WEIGHT>
250.29
> <PUBCHEM_OPENEYE_CAN_SMILES>
C=CCC1(C2=CC=CC=C2OC1=O)C3=CC=CC=C3
> <PUBCHEM_OPENEYE_ISO_SMILES>
C=CCC1(C2=CC=CC=C2OC1=O)C3=CC=CC=C3
> <PUBCHEM_CACTVS_TPSA>
26.3
> <PUBCHEM_MONOISOTOPIC_WEIGHT>
250.099379685
> <PUBCHEM_TOTAL_CHARGE>
0
> <PUBCHEM_HEAVY_ATOM_COUNT>
19
> <PUBCHEM_ATOM_DEF_STEREO_COUNT>
0
> <PUBCHEM_ATOM_UDEF_STEREO_COUNT>
1
> <PUBCHEM_BOND_DEF_STEREO_COUNT>
0
> <PUBCHEM_BOND_UDEF_STEREO_COUNT>
0
> <PUBCHEM_ISOTOPIC_ATOM_COUNT>
0
> <PUBCHEM_COMPONENT_COUNT>
1
> <PUBCHEM_CACTVS_TAUTO_COUNT>
-1
> <PUBCHEM_COORDINATE_TYPE>
1
5
255
> <PUBCHEM_BONDANNOTATIONS>
10  16  8
11  17  8
13  15  8
14  15  8
16  18  8
17  18  8
3  5  3
4  8  8
4  9  8
6  10  8
6  11  8
8  13  8
9  14  8
$$$$
