518262
  -OEChem-10302200292D
 76 77  0     1  0  0  0  0  0999 V2000
    9.7942    0.5000    0.0000 O   0  0  0  0  0  0  0  0  0  0  0  0
    5.4641    1.0000    0.0000 O   0  0  0  0  0  0  0  0  0  0  0  0
   10.6603   -1.0000    0.0000 O   0  0  0  0  0  0  0  0  0  0  0  0
    6.3301   -0.5000    0.0000 O   0  0  0  0  0  0  0  0  0  0  0  0
    8.0622   -0.5000    0.0000 C   0  0  0  0  0  0  0  0  0  0  0  0
    8.0622    0.5000    0.0000 C   0  0  0  0  0  0  0  0  0  0  0  0
    8.9282   -1.0000    0.0000 C   0  0  3  0  0  0  0  0  0  0  0  0
    7.1962    1.0000    0.0000 C   0  0  3  0  0  0  0  0  0  0  0  0
   10.6603    2.0000    0.0000 C   0  0  0  0  0  0  0  0  0  0  0  0
    3.7320    1.0000    0.0000 C   0  0  0  0  0  0  0  0  0  0  0  0
    8.9282   -2.0000    0.0000 C   0  0  0  0  0  0  0  0  0  0  0  0
    7.1962    2.0000    0.0000 C   0  0  0  0  0  0  0  0  0  0  0  0
   10.6603    1.0000    0.0000 C   0  0  0  0  0  0  0  0  0  0  0  0
    4.5981    0.5000    0.0000 C   0  0  0  0  0  0  0  0  0  0  0  0
    9.7942   -0.5000    0.0000 C   0  0  0  0  0  0  0  0  0  0  0  0
    6.3301    0.5000    0.0000 C   0  0  0  0  0  0  0  0  0  0  0  0
   11.5263    2.5000    0.0000 C   0  0  0  0  0  0  0  0  0  0  0  0
    9.7942    2.5000    0.0000 C   0  0  0  0  0  0  0  0  0  0  0  0
    2.8660    0.5000    0.0000 C   0  0  0  0  0  0  0  0  0  0  0  0
    3.7320    2.0000    0.0000 C   0  0  0  0  0  0  0  0  0  0  0  0
    8.0622   -2.5000    0.0000 C   0  0  0  0  0  0  0  0  0  0  0  0
    8.0622    2.5000    0.0000 C   0  0  0  0  0  0  0  0  0  0  0  0
    9.7942   -2.5000    0.0000 C   0  0  0  0  0  0  0  0  0  0  0  0
    6.3301    2.5000    0.0000 C   0  0  0  0  0  0  0  0  0  0  0  0
   11.5263    3.5000    0.0000 C   0  0  0  0  0  0  0  0  0  0  0  0
    9.7942    3.5000    0.0000 C   0  0  0  0  0  0  0  0  0  0  0  0
    2.0000    1.0000    0.0000 C   0  0  0  0  0  0  0  0  0  0  0  0
    2.8660    2.5000    0.0000 C   0  0  0  0  0  0  0  0  0  0  0  0
    8.0622   -3.5000    0.0000 C   0  0  0  0  0  0  0  0  0  0  0  0
    8.0622    3.5000    0.0000 C   0  0  0  0  0  0  0  0  0  0  0  0
    9.7942   -3.5000    0.0000 C   0  0  0  0  0  0  0  0  0  0  0  0
    6.3301    3.5000    0.0000 C   0  0  0  0  0  0  0  0  0  0  0  0
    8.9282   -4.0000    0.0000 C   0  0  0  0  0  0  0  0  0  0  0  0
    7.1962    4.0000    0.0000 C   0  0  0  0  0  0  0  0  0  0  0  0
    7.4516   -0.3923    0.0000 H   0  0  0  0  0  0  0  0  0  0  0  0
    7.8501   -1.0826    0.0000 H   0  0  0  0  0  0  0  0  0  0  0  0
    8.6728    0.3923    0.0000 H   0  0  0  0  0  0  0  0  0  0  0  0
    8.2742    1.0826    0.0000 H   0  0  0  0  0  0  0  0  0  0  0  0
    8.9282   -0.3800    0.0000 H   0  0  0  0  0  0  0  0  0  0  0  0
    7.7331    1.3100    0.0000 H   0  0  0  0  0  0  0  0  0  0  0  0
   11.1972    1.6900    0.0000 H   0  0  0  0  0  0  0  0  0  0  0  0
    3.7320    0.3800    0.0000 H   0  0  0  0  0  0  0  0  0  0  0  0
   10.8723    0.4174    0.0000 H   0  0  0  0  0  0  0  0  0  0  0  0
   11.2708    1.1077    0.0000 H   0  0  0  0  0  0  0  0  0  0  0  0
    4.1996    0.0251    0.0000 H   0  0  0  0  0  0  0  0  0  0  0  0
    4.9966    0.0251    0.0000 H   0  0  0  0  0  0  0  0  0  0  0  0
   11.7383    1.9174    0.0000 H   0  0  0  0  0  0  0  0  0  0  0  0
   12.1369    2.6077    0.0000 H   0  0  0  0  0  0  0  0  0  0  0  0
    9.1836    2.6077    0.0000 H   0  0  0  0  0  0  0  0  0  0  0  0
    9.5822    1.9174    0.0000 H   0  0  0  0  0  0  0  0  0  0  0  0
    2.4675    0.0251    0.0000 H   0  0  0  0  0  0  0  0  0  0  0  0
    3.2646    0.0251    0.0000 H   0  0  0  0  0  0  0  0  0  0  0  0
    4.3426    1.8923    0.0000 H   0  0  0  0  0  0  0  0  0  0  0  0
    3.9441    2.5826    0.0000 H   0  0  0  0  0  0  0  0  0  0  0  0
    7.5252   -2.1900    0.0000 H   0  0  0  0  0  0  0  0  0  0  0  0
    8.5991    2.1900    0.0000 H   0  0  0  0  0  0  0  0  0  0  0  0
   10.3312   -2.1900    0.0000 H   0  0  0  0  0  0  0  0  0  0  0  0
    5.7932    2.1900    0.0000 H   0  0  0  0  0  0  0  0  0  0  0  0
   12.1463    3.5000    0.0000 H   0  0  0  0  0  0  0  0  0  0  0  0
   11.5263    4.1200    0.0000 H   0  0  0  0  0  0  0  0  0  0  0  0
   10.9063    3.5000    0.0000 H   0  0  0  0  0  0  0  0  0  0  0  0
   10.4142    3.5000    0.0000 H   0  0  0  0  0  0  0  0  0  0  0  0
    9.7942    4.1200    0.0000 H   0  0  0  0  0  0  0  0  0  0  0  0
    9.1742    3.5000    0.0000 H   0  0  0  0  0  0  0  0  0  0  0  0
    2.3100    1.5369    0.0000 H   0  0  0  0  0  0  0  0  0  0  0  0
    1.4631    1.3100    0.0000 H   0  0  0  0  0  0  0  0  0  0  0  0
    1.6900    0.4631    0.0000 H   0  0  0  0  0  0  0  0  0  0  0  0
    3.1760    3.0369    0.0000 H   0  0  0  0  0  0  0  0  0  0  0  0
    2.3291    2.8100    0.0000 H   0  0  0  0  0  0  0  0  0  0  0  0
    2.5560    1.9631    0.0000 H   0  0  0  0  0  0  0  0  0  0  0  0
    7.5252   -3.8100    0.0000 H   0  0  0  0  0  0  0  0  0  0  0  0
    8.5991    3.8100    0.0000 H   0  0  0  0  0  0  0  0  0  0  0  0
   10.3312   -3.8100    0.0000 H   0  0  0  0  0  0  0  0  0  0  0  0
    5.7932    3.8100    0.0000 H   0  0  0  0  0  0  0  0  0  0  0  0
    8.9282   -4.6200    0.0000 H   0  0  0  0  0  0  0  0  0  0  0  0
    7.1962    4.6200    0.0000 H   0  0  0  0  0  0  0  0  0  0  0  0
  1 13  1  0  0  0  0
  1 15  1  0  0  0  0
  2 14  1  0  0  0  0
  2 16  1  0  0  0  0
  3 15  2  0  0  0  0
  4 16  2  0  0  0  0
  5  6  1  0  0  0  0
  5  7  1  0  0  0  0
  5 35  1  0  0  0  0
  5 36  1  0  0  0  0
  6  8  1  0  0  0  0
  6 37  1  0  0  0  0
  6 38  1  0  0  0  0
  7 11  1  0  0  0  0
  7 15  1  0  0  0  0
  7 39  1  0  0  0  0
  8 12  1  0  0  0  0
  8 16  1  0  0  0  0
  8 40  1  0  0  0  0
  9 13  1  0  0  0  0
  9 17  1  0  0  0  0
  9 18  1  0  0  0  0
  9 41  1  0  0  0  0
 10 14  1  0  0  0  0
 10 19  1  0  0  0  0
 10 20  1  0  0  0  0
 10 42  1  0  0  0  0
 11 21  2  0  0  0  0
 11 23  1  0  0  0  0
 12 22  2  0  0  0  0
 12 24  1  0  0  0  0
 13 43  1  0  0  0  0
 13 44  1  0  0  0  0
 14 45  1  0  0  0  0
 14 46  1  0  0  0  0
 17 25  1  0  0  0  0
 17 47  1  0  0  0  0
 17 48  1  0  0  0  0
 18 26  1  0  0  0  0
 18 49  1  0  0  0  0
 18 50  1  0  0  0  0
 19 27  1  0  0  0  0
 19 51  1  0  0  0  0
 19 52  1  0  0  0  0
 20 28  1  0  0  0  0
 20 53  1  0  0  0  0
 20 54  1  0  0  0  0
 21 29  1  0  0  0  0
 21 55  1  0  0  0  0
 22 30  1  0  0  0  0
 22 56  1  0  0  0  0
 23 31  2  0  0  0  0
 23 57  1  0  0  0  0
 24 32  2  0  0  0  0
 24 58  1  0  0  0  0
 25 59  1  0  0  0  0
 25 60  1  0  0  0  0
 25 61  1  0  0  0  0
 26 62  1  0  0  0  0
 26 63  1  0  0  0  0
 26 64  1  0  0  0  0
 27 65  1  0  0  0  0
 27 66  1  0  0  0  0
 27 67  1  0  0  0  0
 28 68  1  0  0  0  0
 28 69  1  0  0  0  0
 28 70  1  0  0  0  0
 29 33  2  0  0  0  0
 29 71  1  0  0  0  0
 30 34  2  0  0  0  0
 30 72  1  0  0  0  0
 31 33  1  0  0  0  0
 31 73  1  0  0  0  0
 32 34  1  0  0  0  0
 32 74  1  0  0  0  0
 33 75  1  0  0  0  0
 34 76  1  0  0  0  0
M  END
> <PUBCHEM_COMPOUND_CID>
518262
> <PUBCHEM_COMPOUND_CANONICALIZED>
1
> <PUBCHEM_CACTVS_COMPLEXITY>
504
> <PUBCHEM_CACTVS_HBOND_ACCEPTOR>
4
> <PUBCHEM_CACTVS_HBOND_DONOR>
0
> <PUBCHEM_CACTVS_ROTATABLE_BOND>
17
> <PUBCHEM_CACTVS_SUBSKEYS>
AAADcfB4OAAAAAAAAAAAAAAAAAAAAAAAAAAwYAAAAAAAAAABQAAAGgAAAAAADQCgmAIyCIAABACIAiDSCAACAAAgAAAIiAEAAIgIIDKAFRCCIAAkwAEIiAeIyPCOgAAAAAAAAAAAAAAAAAAAAAAAAAAAAA==
> <PUBCHEM_IUPAC_OPENEYE_NAME>
bis(2-ethylbutyl) 2,5-diphenylhexanedioate
> <PUBCHEM_IUPAC_CAS_NAME>
2,5-diphenylhexanedioic acid bis(2-ethylbutyl) ester
> <PUBCHEM_IUPAC_NAME_MARKUP>
bis(2-ethylbutyl) 2,5-diphenylhexanedioate
> <PUBCHEM_IUPAC_NAME>
bis(2-ethylbutyl) 2,5-diphenylhexanedioate
> <PUBCHEM_IUPAC_SYSTEMATIC_NAME>
bis(2-ethylbutyl) 2,5-diphenylhexanedioate
> <PUBCHEM_IUPAC_TRADITIONAL_NAME>
2,5-diphenyladipic acid bis(2-ethylbutyl) ester
> <PUBCHEM_IUPAC_INCHI>
InChI=1S/C30H42O4/c1-5-23(6-2)21-33-29(31)27(25-15-11-9-12-16-25)19-20-28(26-17-13-10-14-18-26)30(32)34-22-24(7-3)8-4/h9-18,23-24,27-28H,5-8,19-22H2,1-4H3
> <PUBCHEM_IUPAC_INCHIKEY>
JYJRMRSDLBQCKK-UHFFFAOYSA-N
> <PUBCHEM_XLOGP3_AA>
8.1
> <PUBCHEM_EXACT_MASS>
466.30830982
> <PUBCHEM_MOLECULAR_FORMULA>
C30H42O4
> <PUBCHEM_MOLECULAR_WEIGHT>
466.7
> <PUBCHEM_OPENEYE_CAN_SMILES>
CCC(CC)COC(=O)C(CCC(C1=CC=CC=C1)C(=O)OCC(CC)CC)C2=CC=CC=C2
> <PUBCHEM_OPENEYE_ISO_SMILES>
CCC(CC)COC(=O)C(CCC(C1=CC=CC=C1)C(=O)OCC(CC)CC)C2=CC=CC=C2
> <PUBCHEM_CACTVS_TPSA>
52.6
> <PUBCHEM_MONOISOTOPIC_WEIGHT>
466.30830982
> <PUBCHEM_TOTAL_CHARGE>
0
> <PUBCHEM_HEAVY_ATOM_COUNT>
34
> <PUBCHEM_ATOM_DEF_STEREO_COUNT>
0
> <PUBCHEM_ATOM_UDEF_STEREO_COUNT>
2
> <PUBCHEM_BOND_DEF_STEREO_COUNT>
0
> <PUBCHEM_BOND_UDEF_STEREO_COUNT>
0
> <PUBCHEM_ISOTOPIC_ATOM_COUNT>
0
> <PUBCHEM_COMPONENT_COUNT>
1
> <PUBCHEM_CACTVS_TAUTO_COUNT>
-1
> <PUBCHEM_COORDINATE_TYPE>
1
5
255
> <PUBCHEM_BONDANNOTATIONS>
11  21  8
11  23  8
12  22  8
12  24  8
21  29  8
22  30  8
23  31  8
24  32  8
29  33  8
30  34  8
31  33  8
32  34  8
7  5  3
8  6  3
$$$$
