518386
  -OEChem-10302200292D
 29 28  0     1  0  0  0  0  0999 V2000
    2.5369   -0.2500    0.0000 O   0  0  0  0  0  0  0  0  0  0  0  0
    3.4030    1.2500    0.0000 O   0  0  0  0  0  0  0  0  0  0  0  0
    5.1350    0.2500    0.0000 C   0  0  0  0  0  0  0  0  0  0  0  0
    4.2690   -0.2500    0.0000 C   0  0  3  0  0  0  0  0  0  0  0  0
    6.0010   -0.2500    0.0000 C   0  0  0  0  0  0  0  0  0  0  0  0
    5.1350    1.2500    0.0000 C   0  0  0  0  0  0  0  0  0  0  0  0
    4.2690   -1.2500    0.0000 C   0  0  0  0  0  0  0  0  0  0  0  0
    3.4030    0.2500    0.0000 C   0  0  0  0  0  0  0  0  0  0  0  0
    6.8671    0.2500    0.0000 C   0  0  0  0  0  0  0  0  0  0  0  0
    6.0010    1.7500    0.0000 C   0  0  0  0  0  0  0  0  0  0  0  0
    3.4030   -1.7500    0.0000 C   0  0  0  0  0  0  0  0  0  0  0  0
    5.1350   -0.3700    0.0000 H   0  0  0  0  0  0  0  0  0  0  0  0
    4.2690    0.3700    0.0000 H   0  0  0  0  0  0  0  0  0  0  0  0
    5.6025   -0.7249    0.0000 H   0  0  0  0  0  0  0  0  0  0  0  0
    6.3996   -0.7249    0.0000 H   0  0  0  0  0  0  0  0  0  0  0  0
    4.9230    1.8326    0.0000 H   0  0  0  0  0  0  0  0  0  0  0  0
    4.5244    1.1423    0.0000 H   0  0  0  0  0  0  0  0  0  0  0  0
    4.4810   -1.8326    0.0000 H   0  0  0  0  0  0  0  0  0  0  0  0
    4.8796   -1.1423    0.0000 H   0  0  0  0  0  0  0  0  0  0  0  0
    7.1771   -0.2869    0.0000 H   0  0  0  0  0  0  0  0  0  0  0  0
    7.4040    0.5600    0.0000 H   0  0  0  0  0  0  0  0  0  0  0  0
    6.5571    0.7869    0.0000 H   0  0  0  0  0  0  0  0  0  0  0  0
    6.3110    1.2131    0.0000 H   0  0  0  0  0  0  0  0  0  0  0  0
    6.5380    2.0600    0.0000 H   0  0  0  0  0  0  0  0  0  0  0  0
    5.6910    2.2869    0.0000 H   0  0  0  0  0  0  0  0  0  0  0  0
    3.0930   -1.2131    0.0000 H   0  0  0  0  0  0  0  0  0  0  0  0
    2.8660   -2.0600    0.0000 H   0  0  0  0  0  0  0  0  0  0  0  0
    3.7130   -2.2869    0.0000 H   0  0  0  0  0  0  0  0  0  0  0  0
    2.0000    0.0600    0.0000 H   0  0  0  0  0  0  0  0  0  0  0  0
  1  8  1  0  0  0  0
  1 29  1  0  0  0  0
  2  8  2  0  0  0  0
  3  4  1  0  0  0  0
  3  5  1  0  0  0  0
  3  6  1  0  0  0  0
  3 12  1  0  0  0  0
  4  7  1  0  0  0  0
  4  8  1  0  0  0  0
  4 13  1  0  0  0  0
  5  9  1  0  0  0  0
  5 14  1  0  0  0  0
  5 15  1  0  0  0  0
  6 10  1  0  0  0  0
  6 16  1  0  0  0  0
  6 17  1  0  0  0  0
  7 11  1  0  0  0  0
  7 18  1  0  0  0  0
  7 19  1  0  0  0  0
  9 20  1  0  0  0  0
  9 21  1  0  0  0  0
  9 22  1  0  0  0  0
 10 23  1  0  0  0  0
 10 24  1  0  0  0  0
 10 25  1  0  0  0  0
 11 26  1  0  0  0  0
 11 27  1  0  0  0  0
 11 28  1  0  0  0  0
M  END
> <PUBCHEM_COMPOUND_CID>
518386
> <PUBCHEM_COMPOUND_CANONICALIZED>
1
> <PUBCHEM_CACTVS_COMPLEXITY>
117
> <PUBCHEM_CACTVS_HBOND_ACCEPTOR>
2
> <PUBCHEM_CACTVS_HBOND_DONOR>
1
> <PUBCHEM_CACTVS_ROTATABLE_BOND>
5
> <PUBCHEM_CACTVS_SUBSKEYS>
AAADceBwMAAAAAAAAAAAAAAAAAAAAAAAAAAAAAAAAAAAAAAAAAAAGgAACAAADQCAgAACCAAAAgAIAACQCAAAAAAAAAAAAAEAAAAAABIAAAAAQAAEAAAAAAGIAAAOgAAAAAAAAAAAAAAAAAAAAAAAAAAAAA==
> <PUBCHEM_IUPAC_OPENEYE_NAME>
2,3-diethylpentanoic acid
> <PUBCHEM_IUPAC_CAS_NAME>
2,3-diethylpentanoic acid
> <PUBCHEM_IUPAC_NAME_MARKUP>
2,3-diethylpentanoic acid
> <PUBCHEM_IUPAC_NAME>
2,3-diethylpentanoic acid
> <PUBCHEM_IUPAC_SYSTEMATIC_NAME>
2,3-diethylpentanoic acid
> <PUBCHEM_IUPAC_TRADITIONAL_NAME>
2,3-diethylvaleric acid
> <PUBCHEM_IUPAC_INCHI>
InChI=1S/C9H18O2/c1-4-7(5-2)8(6-3)9(10)11/h7-8H,4-6H2,1-3H3,(H,10,11)
> <PUBCHEM_IUPAC_INCHIKEY>
OGOLANDEOQZZKM-UHFFFAOYSA-N
> <PUBCHEM_XLOGP3_AA>
3.1
> <PUBCHEM_EXACT_MASS>
158.130679813
> <PUBCHEM_MOLECULAR_FORMULA>
C9H18O2
> <PUBCHEM_MOLECULAR_WEIGHT>
158.24
> <PUBCHEM_OPENEYE_CAN_SMILES>
CCC(CC)C(CC)C(=O)O
> <PUBCHEM_OPENEYE_ISO_SMILES>
CCC(CC)C(CC)C(=O)O
> <PUBCHEM_CACTVS_TPSA>
37.3
> <PUBCHEM_MONOISOTOPIC_WEIGHT>
158.130679813
> <PUBCHEM_TOTAL_CHARGE>
0
> <PUBCHEM_HEAVY_ATOM_COUNT>
11
> <PUBCHEM_ATOM_DEF_STEREO_COUNT>
0
> <PUBCHEM_ATOM_UDEF_STEREO_COUNT>
1
> <PUBCHEM_BOND_DEF_STEREO_COUNT>
0
> <PUBCHEM_BOND_UDEF_STEREO_COUNT>
0
> <PUBCHEM_ISOTOPIC_ATOM_COUNT>
0
> <PUBCHEM_COMPONENT_COUNT>
1
> <PUBCHEM_CACTVS_TAUTO_COUNT>
-1
> <PUBCHEM_COORDINATE_TYPE>
1
5
255
> <PUBCHEM_BONDANNOTATIONS>
4  7  3
$$$$
