518354
  -OEChem-10302200292D
 46 45  0     1  0  0  0  0  0999 V2000
    5.4641   -0.9821    0.0000 P   0  0  0  0  0  0  0  0  0  0  0  0
    4.5981   -1.4820    0.0000 O   0  0  0  0  0  0  0  0  0  0  0  0
    4.9641   -0.1160    0.0000 O   0  0  0  0  0  0  0  0  0  0  0  0
    5.9641   -1.8481    0.0000 O   0  0  0  0  0  0  0  0  0  0  0  0
    8.9282   -0.9821    0.0000 O   0  0  0  0  0  0  0  0  0  0  0  0
    8.0622    0.5179    0.0000 O   0  0  0  0  0  0  0  0  0  0  0  0
    6.3301   -0.4821    0.0000 C   0  0  0  0  0  0  0  0  0  0  0  0
    7.1962   -0.9821    0.0000 C   0  0  3  0  0  0  0  0  0  0  0  0
    2.8660   -1.4820    0.0000 C   0  0  0  0  0  0  0  0  0  0  0  0
    4.9641    1.6160    0.0000 C   0  0  0  0  0  0  0  0  0  0  0  0
    3.7320   -0.9821    0.0000 C   0  0  0  0  0  0  0  0  0  0  0  0
    5.4641    0.7500    0.0000 C   0  0  0  0  0  0  0  0  0  0  0  0
    7.1962   -1.9820    0.0000 C   0  0  0  0  0  0  0  0  0  0  0  0
    8.0622   -0.4821    0.0000 C   0  0  0  0  0  0  0  0  0  0  0  0
    2.0000   -0.9821    0.0000 C   0  0  0  0  0  0  0  0  0  0  0  0
    2.8660   -2.4820    0.0000 C   0  0  0  0  0  0  0  0  0  0  0  0
    5.4641    2.4820    0.0000 C   0  0  0  0  0  0  0  0  0  0  0  0
    3.9641    1.6160    0.0000 C   0  0  0  0  0  0  0  0  0  0  0  0
    9.7942   -0.4821    0.0000 C   0  0  0  0  0  0  0  0  0  0  0  0
    6.7287   -0.0071    0.0000 H   0  0  0  0  0  0  0  0  0  0  0  0
    5.9316   -0.0071    0.0000 H   0  0  0  0  0  0  0  0  0  0  0  0
    6.6592   -1.2920    0.0000 H   0  0  0  0  0  0  0  0  0  0  0  0
    2.8660   -0.8621    0.0000 H   0  0  0  0  0  0  0  0  0  0  0  0
    5.5841    1.6160    0.0000 H   0  0  0  0  0  0  0  0  0  0  0  0
    4.1306   -0.5071    0.0000 H   0  0  0  0  0  0  0  0  0  0  0  0
    3.3335   -0.5071    0.0000 H   0  0  0  0  0  0  0  0  0  0  0  0
    5.9390    0.3515    0.0000 H   0  0  0  0  0  0  0  0  0  0  0  0
    5.9390    1.1485    0.0000 H   0  0  0  0  0  0  0  0  0  0  0  0
    6.5762   -1.9820    0.0000 H   0  0  0  0  0  0  0  0  0  0  0  0
    7.1962   -2.6021    0.0000 H   0  0  0  0  0  0  0  0  0  0  0  0
    7.8162   -1.9820    0.0000 H   0  0  0  0  0  0  0  0  0  0  0  0
    2.3100   -0.4451    0.0000 H   0  0  0  0  0  0  0  0  0  0  0  0
    1.4631   -0.6721    0.0000 H   0  0  0  0  0  0  0  0  0  0  0  0
    1.6900   -1.5190    0.0000 H   0  0  0  0  0  0  0  0  0  0  0  0
    2.2460   -2.4820    0.0000 H   0  0  0  0  0  0  0  0  0  0  0  0
    2.8660   -3.1021    0.0000 H   0  0  0  0  0  0  0  0  0  0  0  0
    3.4860   -2.4820    0.0000 H   0  0  0  0  0  0  0  0  0  0  0  0
    6.0010    2.1720    0.0000 H   0  0  0  0  0  0  0  0  0  0  0  0
    5.7741    3.0190    0.0000 H   0  0  0  0  0  0  0  0  0  0  0  0
    4.9272    2.7920    0.0000 H   0  0  0  0  0  0  0  0  0  0  0  0
    3.9641    2.2360    0.0000 H   0  0  0  0  0  0  0  0  0  0  0  0
    3.3441    1.6160    0.0000 H   0  0  0  0  0  0  0  0  0  0  0  0
    3.9641    0.9960    0.0000 H   0  0  0  0  0  0  0  0  0  0  0  0
   10.1042   -1.0190    0.0000 H   0  0  0  0  0  0  0  0  0  0  0  0
   10.3312   -0.1721    0.0000 H   0  0  0  0  0  0  0  0  0  0  0  0
    9.4842    0.0549    0.0000 H   0  0  0  0  0  0  0  0  0  0  0  0
  1  2  1  0  0  0  0
  1  3  1  0  0  0  0
  1  4  2  0  0  0  0
  1  7  1  0  0  0  0
  2 11  1  0  0  0  0
  3 12  1  0  0  0  0
  5 14  1  0  0  0  0
  5 19  1  0  0  0  0
  6 14  2  0  0  0  0
  7  8  1  0  0  0  0
  7 20  1  0  0  0  0
  7 21  1  0  0  0  0
  8 13  1  0  0  0  0
  8 14  1  0  0  0  0
  8 22  1  0  0  0  0
  9 11  1  0  0  0  0
  9 15  1  0  0  0  0
  9 16  1  0  0  0  0
  9 23  1  0  0  0  0
 10 12  1  0  0  0  0
 10 17  1  0  0  0  0
 10 18  1  0  0  0  0
 10 24  1  0  0  0  0
 11 25  1  0  0  0  0
 11 26  1  0  0  0  0
 12 27  1  0  0  0  0
 12 28  1  0  0  0  0
 13 29  1  0  0  0  0
 13 30  1  0  0  0  0
 13 31  1  0  0  0  0
 15 32  1  0  0  0  0
 15 33  1  0  0  0  0
 15 34  1  0  0  0  0
 16 35  1  0  0  0  0
 16 36  1  0  0  0  0
 16 37  1  0  0  0  0
 17 38  1  0  0  0  0
 17 39  1  0  0  0  0
 17 40  1  0  0  0  0
 18 41  1  0  0  0  0
 18 42  1  0  0  0  0
 18 43  1  0  0  0  0
 19 44  1  0  0  0  0
 19 45  1  0  0  0  0
 19 46  1  0  0  0  0
M  END
> <PUBCHEM_COMPOUND_CID>
518354
> <PUBCHEM_COMPOUND_CANONICALIZED>
1
> <PUBCHEM_CACTVS_COMPLEXITY>
298
> <PUBCHEM_CACTVS_HBOND_ACCEPTOR>
5
> <PUBCHEM_CACTVS_HBOND_DONOR>
0
> <PUBCHEM_CACTVS_ROTATABLE_BOND>
10
> <PUBCHEM_CACTVS_SUBSKEYS>
AAADceBwOAIAAAAAAAAAAAAAAAAAAAAAAAAAAAAAAAAAAAAAAAAAGggAACAADQCogAICCAAABRAIQACQCIAAAAAAAAAAAAEAAAAAAAAAAAAAAAAAAAAAAAAAAAAAAAAAAAAAAAAAAAAAAAAAAAAAAAAAAA==
> <PUBCHEM_IUPAC_OPENEYE_NAME>
methyl 3-diisobutoxyphosphoryl-2-methyl-propanoate
> <PUBCHEM_IUPAC_CAS_NAME>
3-[bis(2-methylpropoxy)phosphoryl]-2-methylpropanoic acid methyl ester
> <PUBCHEM_IUPAC_NAME_MARKUP>
methyl 3-[bis(2-methylpropoxy)phosphoryl]-2-methylpropanoate
> <PUBCHEM_IUPAC_NAME>
methyl 3-[bis(2-methylpropoxy)phosphoryl]-2-methylpropanoate
> <PUBCHEM_IUPAC_SYSTEMATIC_NAME>
methyl 3-[bis(2-methylpropoxy)phosphoryl]-2-methyl-propanoate
> <PUBCHEM_IUPAC_TRADITIONAL_NAME>
3-diisobutoxyphosphoryl-2-methyl-propionic acid methyl ester
> <PUBCHEM_IUPAC_INCHI>
InChI=1S/C13H27O5P/c1-10(2)7-17-19(15,18-8-11(3)4)9-12(5)13(14)16-6/h10-12H,7-9H2,1-6H3
> <PUBCHEM_IUPAC_INCHIKEY>
QZZBQOSHOLMNCH-UHFFFAOYSA-N
> <PUBCHEM_XLOGP3_AA>
2.5
> <PUBCHEM_EXACT_MASS>
294.15961096
> <PUBCHEM_MOLECULAR_FORMULA>
C13H27O5P
> <PUBCHEM_MOLECULAR_WEIGHT>
294.32
> <PUBCHEM_OPENEYE_CAN_SMILES>
CC(C)COP(=O)(CC(C)C(=O)OC)OCC(C)C
> <PUBCHEM_OPENEYE_ISO_SMILES>
CC(C)COP(=O)(CC(C)C(=O)OC)OCC(C)C
> <PUBCHEM_CACTVS_TPSA>
61.8
> <PUBCHEM_MONOISOTOPIC_WEIGHT>
294.15961096
> <PUBCHEM_TOTAL_CHARGE>
0
> <PUBCHEM_HEAVY_ATOM_COUNT>
19
> <PUBCHEM_ATOM_DEF_STEREO_COUNT>
0
> <PUBCHEM_ATOM_UDEF_STEREO_COUNT>
1
> <PUBCHEM_BOND_DEF_STEREO_COUNT>
0
> <PUBCHEM_BOND_UDEF_STEREO_COUNT>
0
> <PUBCHEM_ISOTOPIC_ATOM_COUNT>
0
> <PUBCHEM_COMPONENT_COUNT>
1
> <PUBCHEM_CACTVS_TAUTO_COUNT>
-1
> <PUBCHEM_COORDINATE_TYPE>
1
5
255
> <PUBCHEM_BONDANNOTATIONS>
8  13  3
$$$$
