518353
  -OEChem-10302200292D
 39 40  0     1  0  0  0  0  0999 V2000
    3.3940   -0.0194    0.0000 S   0  0  0  0  0  0  0  0  0  0  0  0
    3.7601    4.0194    0.0000 O   0  0  0  0  0  0  0  0  0  0  0  0
    3.3940    0.9806    0.0000 O   0  0  0  0  0  0  0  0  0  0  0  0
    4.3940   -0.0194    0.0000 O   0  0  0  0  0  0  0  0  0  0  0  0
    2.3940   -0.0194    0.0000 O   0  0  0  0  0  0  0  0  0  0  0  0
    3.2601    2.4806    0.0000 N   0  0  0  0  0  0  0  0  0  0  0  0
    4.2601    2.4806    0.0000 C   0  0  3  0  0  0  0  0  0  0  0  0
    5.2111    2.1716    0.0000 C   0  0  0  0  0  0  0  0  0  0  0  0
    4.5691    3.4316    0.0000 C   0  0  0  0  0  0  0  0  0  0  0  0
    4.2601    1.4806    0.0000 C   0  0  0  0  0  0  0  0  0  0  0  0
    2.9511    3.4316    0.0000 C   0  0  0  0  0  0  0  0  0  0  0  0
    5.9543    2.8407    0.0000 C   0  0  0  0  0  0  0  0  0  0  0  0
    2.0000    3.7406    0.0000 C   0  0  0  0  0  0  0  0  0  0  0  0
    3.3940   -1.0194    0.0000 C   0  0  0  0  0  0  0  0  0  0  0  0
    2.5280   -1.5194    0.0000 C   0  0  0  0  0  0  0  0  0  0  0  0
    4.2601   -1.5194    0.0000 C   0  0  0  0  0  0  0  0  0  0  0  0
    3.3940   -3.0194    0.0000 C   0  0  0  0  0  0  0  0  0  0  0  0
    2.5280   -2.5194    0.0000 C   0  0  0  0  0  0  0  0  0  0  0  0
    4.2601   -2.5194    0.0000 C   0  0  0  0  0  0  0  0  0  0  0  0
    3.3940   -4.0194    0.0000 C   0  0  0  0  0  0  0  0  0  0  0  0
    4.9201    1.6241    0.0000 H   0  0  0  0  0  0  0  0  0  0  0  0
    5.6997    1.7898    0.0000 H   0  0  0  0  0  0  0  0  0  0  0  0
    5.1355    3.1795    0.0000 H   0  0  0  0  0  0  0  0  0  0  0  0
    4.8791    3.9686    0.0000 H   0  0  0  0  0  0  0  0  0  0  0  0
    4.4721    0.8980    0.0000 H   0  0  0  0  0  0  0  0  0  0  0  0
    4.8707    1.5882    0.0000 H   0  0  0  0  0  0  0  0  0  0  0  0
    6.3691    2.3799    0.0000 H   0  0  0  0  0  0  0  0  0  0  0  0
    6.4150    3.2556    0.0000 H   0  0  0  0  0  0  0  0  0  0  0  0
    5.5394    3.3014    0.0000 H   0  0  0  0  0  0  0  0  0  0  0  0
    2.1916    4.3303    0.0000 H   0  0  0  0  0  0  0  0  0  0  0  0
    1.4103    3.9322    0.0000 H   0  0  0  0  0  0  0  0  0  0  0  0
    1.8084    3.1510    0.0000 H   0  0  0  0  0  0  0  0  0  0  0  0
    1.9911   -1.2094    0.0000 H   0  0  0  0  0  0  0  0  0  0  0  0
    4.7970   -1.2094    0.0000 H   0  0  0  0  0  0  0  0  0  0  0  0
    1.9911   -2.8294    0.0000 H   0  0  0  0  0  0  0  0  0  0  0  0
    4.7970   -2.8294    0.0000 H   0  0  0  0  0  0  0  0  0  0  0  0
    2.7740   -4.0194    0.0000 H   0  0  0  0  0  0  0  0  0  0  0  0
    3.3940   -4.6394    0.0000 H   0  0  0  0  0  0  0  0  0  0  0  0
    4.0140   -4.0194    0.0000 H   0  0  0  0  0  0  0  0  0  0  0  0
  1  3  1  0  0  0  0
  1  4  2  0  0  0  0
  1  5  2  0  0  0  0
  1 14  1  0  0  0  0
  2  9  1  0  0  0  0
  2 11  1  0  0  0  0
  3 10  1  0  0  0  0
  6  7  1  0  0  0  0
  6 11  2  0  0  0  0
  7  8  1  0  0  0  0
  7  9  1  0  0  0  0
  7 10  1  0  0  0  0
  8 12  1  0  0  0  0
  8 21  1  0  0  0  0
  8 22  1  0  0  0  0
  9 23  1  0  0  0  0
  9 24  1  0  0  0  0
 10 25  1  0  0  0  0
 10 26  1  0  0  0  0
 11 13  1  0  0  0  0
 12 27  1  0  0  0  0
 12 28  1  0  0  0  0
 12 29  1  0  0  0  0
 13 30  1  0  0  0  0
 13 31  1  0  0  0  0
 13 32  1  0  0  0  0
 14 15  2  0  0  0  0
 14 16  1  0  0  0  0
 15 18  1  0  0  0  0
 15 33  1  0  0  0  0
 16 19  2  0  0  0  0
 16 34  1  0  0  0  0
 17 18  2  0  0  0  0
 17 19  1  0  0  0  0
 17 20  1  0  0  0  0
 18 35  1  0  0  0  0
 19 36  1  0  0  0  0
 20 37  1  0  0  0  0
 20 38  1  0  0  0  0
 20 39  1  0  0  0  0
M  END
> <PUBCHEM_COMPOUND_CID>
518353
> <PUBCHEM_COMPOUND_CANONICALIZED>
1
> <PUBCHEM_CACTVS_COMPLEXITY>
460
> <PUBCHEM_CACTVS_HBOND_ACCEPTOR>
5
> <PUBCHEM_CACTVS_HBOND_DONOR>
0
> <PUBCHEM_CACTVS_ROTATABLE_BOND>
5
> <PUBCHEM_CACTVS_SUBSKEYS>
AAADceByOABAAAAAAAAAAAAAAAAAAQAAAAAwAAAAAAAAAAABAAAAHgQAAAAADIih2AIyAYIABAKgAiBiBHBCAEAgAAAIiBgQAIgKICKAERCDIAAlgAAIiAcAgAAOEAAAAAAAAAAgAAAAAAAAAAAAAAAAAA==
> <PUBCHEM_IUPAC_OPENEYE_NAME>
(4-ethyl-2-methyl-5H-oxazol-4-yl)methyl 4-methylbenzenesulfonate
> <PUBCHEM_IUPAC_CAS_NAME>
4-methylbenzenesulfonic acid (4-ethyl-2-methyl-5H-oxazol-4-yl)methyl ester
> <PUBCHEM_IUPAC_NAME_MARKUP>
(4-ethyl-2-methyl-5<I>H</I>-1,3-oxazol-4-yl)methyl 4-methylbenzenesulfonate
> <PUBCHEM_IUPAC_NAME>
(4-ethyl-2-methyl-5H-1,3-oxazol-4-yl)methyl 4-methylbenzenesulfonate
> <PUBCHEM_IUPAC_SYSTEMATIC_NAME>
(4-ethyl-2-methyl-5H-1,3-oxazol-4-yl)methyl 4-methylbenzenesulfonate
> <PUBCHEM_IUPAC_TRADITIONAL_NAME>
4-methylbenzenesulfonic acid (4-ethyl-2-methyl-2-oxazolin-4-yl)methyl ester
> <PUBCHEM_IUPAC_INCHI>
InChI=1S/C14H19NO4S/c1-4-14(9-18-12(3)15-14)10-19-20(16,17)13-7-5-11(2)6-8-13/h5-8H,4,9-10H2,1-3H3
> <PUBCHEM_IUPAC_INCHIKEY>
MIMPOGKFEUESDC-UHFFFAOYSA-N
> <PUBCHEM_XLOGP3_AA>
1.9
> <PUBCHEM_EXACT_MASS>
297.10347926
> <PUBCHEM_MOLECULAR_FORMULA>
C14H19NO4S
> <PUBCHEM_MOLECULAR_WEIGHT>
297.37
> <PUBCHEM_OPENEYE_CAN_SMILES>
CCC1(COC(=N1)C)COS(=O)(=O)C2=CC=C(C=C2)C
> <PUBCHEM_OPENEYE_ISO_SMILES>
CCC1(COC(=N1)C)COS(=O)(=O)C2=CC=C(C=C2)C
> <PUBCHEM_CACTVS_TPSA>
73.3
> <PUBCHEM_MONOISOTOPIC_WEIGHT>
297.10347926
> <PUBCHEM_TOTAL_CHARGE>
0
> <PUBCHEM_HEAVY_ATOM_COUNT>
20
> <PUBCHEM_ATOM_DEF_STEREO_COUNT>
0
> <PUBCHEM_ATOM_UDEF_STEREO_COUNT>
1
> <PUBCHEM_BOND_DEF_STEREO_COUNT>
0
> <PUBCHEM_BOND_UDEF_STEREO_COUNT>
0
> <PUBCHEM_ISOTOPIC_ATOM_COUNT>
0
> <PUBCHEM_COMPONENT_COUNT>
1
> <PUBCHEM_CACTVS_TAUTO_COUNT>
-1
> <PUBCHEM_COORDINATE_TYPE>
1
5
255
> <PUBCHEM_BONDANNOTATIONS>
14  15  8
14  16  8
15  18  8
16  19  8
17  18  8
17  19  8
7  8  3
$$$$
