518351
  -OEChem-10302200292D
 42 41  0     1  0  0  0  0  0999 V2000
    7.1962    0.8100    0.0000 N   0  0  0  0  0  0  0  0  0  0  0  0
    4.5981    0.3100    0.0000 C   0  0  3  0  0  0  0  0  0  0  0  0
    5.4641    0.8100    0.0000 C   0  0  0  0  0  0  0  0  0  0  0  0
    3.7320    0.8100    0.0000 C   0  0  0  0  0  0  0  0  0  0  0  0
    6.3301    0.3100    0.0000 C   0  0  3  0  0  0  0  0  0  0  0  0
    2.8660    0.3100    0.0000 C   0  0  0  0  0  0  0  0  0  0  0  0
    4.5981   -0.6900    0.0000 C   0  0  0  0  0  0  0  0  0  0  0  0
    2.0000    0.8100    0.0000 C   0  0  0  0  0  0  0  0  0  0  0  0
    2.8660   -0.6900    0.0000 C   0  0  0  0  0  0  0  0  0  0  0  0
    8.0622    0.3100    0.0000 C   0  0  0  0  0  0  0  0  0  0  0  0
    7.1962    1.8100    0.0000 C   0  0  0  0  0  0  0  0  0  0  0  0
    6.3301   -0.6900    0.0000 C   0  0  0  0  0  0  0  0  0  0  0  0
    8.9282    0.8100    0.0000 C   0  0  0  0  0  0  0  0  0  0  0  0
    8.0622    2.3100    0.0000 C   0  0  0  0  0  0  0  0  0  0  0  0
    6.3301   -1.6900    0.0000 C   0  0  0  0  0  0  0  0  0  0  0  0
    5.1350   -0.0000    0.0000 H   0  0  0  0  0  0  0  0  0  0  0  0
    5.8626    1.2850    0.0000 H   0  0  0  0  0  0  0  0  0  0  0  0
    5.0656    1.2850    0.0000 H   0  0  0  0  0  0  0  0  0  0  0  0
    4.1306    1.2850    0.0000 H   0  0  0  0  0  0  0  0  0  0  0  0
    3.3335    1.2850    0.0000 H   0  0  0  0  0  0  0  0  0  0  0  0
    6.8671    0.0000    0.0000 H   0  0  0  0  0  0  0  0  0  0  0  0
    2.8660    0.9300    0.0000 H   0  0  0  0  0  0  0  0  0  0  0  0
    3.9781   -0.6900    0.0000 H   0  0  0  0  0  0  0  0  0  0  0  0
    4.5981   -1.3100    0.0000 H   0  0  0  0  0  0  0  0  0  0  0  0
    5.2181   -0.6900    0.0000 H   0  0  0  0  0  0  0  0  0  0  0  0
    2.3100    1.3469    0.0000 H   0  0  0  0  0  0  0  0  0  0  0  0
    1.4631    1.1200    0.0000 H   0  0  0  0  0  0  0  0  0  0  0  0
    1.6900    0.2731    0.0000 H   0  0  0  0  0  0  0  0  0  0  0  0
    2.2460   -0.6900    0.0000 H   0  0  0  0  0  0  0  0  0  0  0  0
    2.8660   -1.3100    0.0000 H   0  0  0  0  0  0  0  0  0  0  0  0
    3.4860   -0.6900    0.0000 H   0  0  0  0  0  0  0  0  0  0  0  0
    7.6636   -0.1649    0.0000 H   0  0  0  0  0  0  0  0  0  0  0  0
    8.4607   -0.1649    0.0000 H   0  0  0  0  0  0  0  0  0  0  0  0
    6.9841    2.3926    0.0000 H   0  0  0  0  0  0  0  0  0  0  0  0
    6.5856    1.7023    0.0000 H   0  0  0  0  0  0  0  0  0  0  0  0
    9.2382    0.2731    0.0000 H   0  0  0  0  0  0  0  0  0  0  0  0
    9.4651    1.1200    0.0000 H   0  0  0  0  0  0  0  0  0  0  0  0
    8.6182    1.3469    0.0000 H   0  0  0  0  0  0  0  0  0  0  0  0
    8.3722    1.7731    0.0000 H   0  0  0  0  0  0  0  0  0  0  0  0
    8.5991    2.6200    0.0000 H   0  0  0  0  0  0  0  0  0  0  0  0
    7.7522    2.8469    0.0000 H   0  0  0  0  0  0  0  0  0  0  0  0
    6.3301   -2.3100    0.0000 H   0  0  0  0  0  0  0  0  0  0  0  0
  1  5  1  0  0  0  0
  1 10  1  0  0  0  0
  1 11  1  0  0  0  0
  2  3  1  0  0  0  0
  2  4  1  0  0  0  0
  2  7  1  0  0  0  0
  2 16  1  0  0  0  0
  3  5  1  0  0  0  0
  3 17  1  0  0  0  0
  3 18  1  0  0  0  0
  4  6  1  0  0  0  0
  4 19  1  0  0  0  0
  4 20  1  0  0  0  0
  5 12  1  0  0  0  0
  5 21  1  0  0  0  0
  6  8  1  0  0  0  0
  6  9  1  0  0  0  0
  6 22  1  0  0  0  0
  7 23  1  0  0  0  0
  7 24  1  0  0  0  0
  7 25  1  0  0  0  0
  8 26  1  0  0  0  0
  8 27  1  0  0  0  0
  8 28  1  0  0  0  0
  9 29  1  0  0  0  0
  9 30  1  0  0  0  0
  9 31  1  0  0  0  0
 10 13  1  0  0  0  0
 10 32  1  0  0  0  0
 10 33  1  0  0  0  0
 11 14  1  0  0  0  0
 11 34  1  0  0  0  0
 11 35  1  0  0  0  0
 12 15  3  0  0  0  0
 13 36  1  0  0  0  0
 13 37  1  0  0  0  0
 13 38  1  0  0  0  0
 14 39  1  0  0  0  0
 14 40  1  0  0  0  0
 14 41  1  0  0  0  0
 15 42  1  0  0  0  0
M  END
> <PUBCHEM_COMPOUND_CID>
518351
> <PUBCHEM_COMPOUND_CANONICALIZED>
1
> <PUBCHEM_CACTVS_COMPLEXITY>
195
> <PUBCHEM_CACTVS_HBOND_ACCEPTOR>
1
> <PUBCHEM_CACTVS_HBOND_DONOR>
0
> <PUBCHEM_CACTVS_ROTATABLE_BOND>
7
> <PUBCHEM_CACTVS_SUBSKEYS>
AAADceByAAAAAAAAAAAAAAAAAAAAAAAAAAAAAAAAAAAAAAAAAAAAHAAAAAAADSjBAAQCAAMAAABAGAAAAAgAAAAAAAAAAAAIAAAAAAIAgAAEAAAAAACAAAEQgEAOAAAAAAAAAAAAAAAAAAAAAAAAAAAAAA==
> <PUBCHEM_IUPAC_OPENEYE_NAME>
N,N-diethyl-5,7-dimethyl-oct-1-yn-3-amine
> <PUBCHEM_IUPAC_CAS_NAME>
N,N-diethyl-5,7-dimethyl-1-octyn-3-amine
> <PUBCHEM_IUPAC_NAME_MARKUP>
<I>N</I>,<I>N</I>-diethyl-5,7-dimethyloct-1-yn-3-amine
> <PUBCHEM_IUPAC_NAME>
N,N-diethyl-5,7-dimethyloct-1-yn-3-amine
> <PUBCHEM_IUPAC_SYSTEMATIC_NAME>
N,N-diethyl-5,7-dimethyl-oct-1-yn-3-amine
> <PUBCHEM_IUPAC_TRADITIONAL_NAME>
1-(2,4-dimethylpentyl)prop-2-ynyl-diethyl-amine
> <PUBCHEM_IUPAC_INCHI>
InChI=1S/C14H27N/c1-7-14(15(8-2)9-3)11-13(6)10-12(4)5/h1,12-14H,8-11H2,2-6H3
> <PUBCHEM_IUPAC_INCHIKEY>
XLSSYWHORCDFFA-UHFFFAOYSA-N
> <PUBCHEM_XLOGP3_AA>
4.2
> <PUBCHEM_EXACT_MASS>
209.214349865
> <PUBCHEM_MOLECULAR_FORMULA>
C14H27N
> <PUBCHEM_MOLECULAR_WEIGHT>
209.37
> <PUBCHEM_OPENEYE_CAN_SMILES>
CCN(CC)C(CC(C)CC(C)C)C#C
> <PUBCHEM_OPENEYE_ISO_SMILES>
CCN(CC)C(CC(C)CC(C)C)C#C
> <PUBCHEM_CACTVS_TPSA>
3.2
> <PUBCHEM_MONOISOTOPIC_WEIGHT>
209.214349865
> <PUBCHEM_TOTAL_CHARGE>
0
> <PUBCHEM_HEAVY_ATOM_COUNT>
15
> <PUBCHEM_ATOM_DEF_STEREO_COUNT>
0
> <PUBCHEM_ATOM_UDEF_STEREO_COUNT>
2
> <PUBCHEM_BOND_DEF_STEREO_COUNT>
0
> <PUBCHEM_BOND_UDEF_STEREO_COUNT>
0
> <PUBCHEM_ISOTOPIC_ATOM_COUNT>
0
> <PUBCHEM_COMPONENT_COUNT>
1
> <PUBCHEM_CACTVS_TAUTO_COUNT>
-1
> <PUBCHEM_COORDINATE_TYPE>
1
5
255
> <PUBCHEM_BONDANNOTATIONS>
2  7  3
5  3  3
$$$$
