518317
  -OEChem-10302200292D
 29 29  0     1  0  0  0  0  0999 V2000
    5.0047    3.8784    0.0000 Cl  0  0  0  0  0  0  0  0  0  0  0  0
    0.5939    4.2078    0.0000 S   0  0  0  0  0  0  0  0  0  0  0  0
    2.6718    7.6904    0.0000 O   0  0  0  0  0  0  0  0  0  0  0  0
    2.2120    4.2078    0.0000 N   0  0  0  0  0  0  0  0  0  0  0  0
    1.9030    5.1588    0.0000 C   0  0  3  0  0  0  0  0  0  0  0  0
    2.4907    5.9679    0.0000 C   0  0  0  0  0  0  0  0  0  0  0  0
    0.9030    5.1588    0.0000 C   0  0  0  0  0  0  0  0  0  0  0  0
    1.4030    3.6200    0.0000 C   0  0  0  0  0  0  0  0  0  0  0  0
    2.0840    6.8814    0.0000 C   0  0  0  0  0  0  0  0  0  0  0  0
    1.4030    2.6200    0.0000 C   0  0  0  0  0  0  0  0  0  0  0  0
    0.5369    2.1200    0.0000 C   0  0  0  0  0  0  0  0  0  0  0  0
    2.2690    2.1200    0.0000 C   0  0  0  0  0  0  0  0  0  0  0  0
    0.5369    1.1200    0.0000 C   0  0  0  0  0  0  0  0  0  0  0  0
    2.2690    1.1200    0.0000 C   0  0  0  0  0  0  0  0  0  0  0  0
    1.4030    0.6200    0.0000 C   0  0  0  0  0  0  0  0  0  0  0  0
    2.5153    5.0618    0.0000 H   0  0  0  0  0  0  0  0  0  0  0  0
    2.9214    5.5219    0.0000 H   0  0  0  0  0  0  0  0  0  0  0  0
    3.0048    6.3146    0.0000 H   0  0  0  0  0  0  0  0  0  0  0  0
    0.9678    5.7754    0.0000 H   0  0  0  0  0  0  0  0  0  0  0  0
    0.2965    5.2878    0.0000 H   0  0  0  0  0  0  0  0  0  0  0  0
    1.6533    7.3274    0.0000 H   0  0  0  0  0  0  0  0  0  0  0  0
    1.5700    6.5347    0.0000 H   0  0  0  0  0  0  0  0  0  0  0  0
    0.0000    2.4300    0.0000 H   0  0  0  0  0  0  0  0  0  0  0  0
    2.8059    2.4300    0.0000 H   0  0  0  0  0  0  0  0  0  0  0  0
    0.0000    0.8100    0.0000 H   0  0  0  0  0  0  0  0  0  0  0  0
    2.8059    0.8100    0.0000 H   0  0  0  0  0  0  0  0  0  0  0  0
    2.4196    8.2568    0.0000 H   0  0  0  0  0  0  0  0  0  0  0  0
    1.4030    0.0000    0.0000 H   0  0  0  0  0  0  0  0  0  0  0  0
    6.0047    3.8784    0.0000 H   0  0  0  0  0  0  0  0  0  0  0  0
  1 29  1  0  0  0  0
  2  7  1  0  0  0  0
  2  8  1  0  0  0  0
  3  9  1  0  0  0  0
  3 27  1  0  0  0  0
  4  5  1  0  0  0  0
  4  8  2  0  0  0  0
  5  6  1  0  0  0  0
  5  7  1  0  0  0  0
  5 16  1  0  0  0  0
  6  9  1  0  0  0  0
  6 17  1  0  0  0  0
  6 18  1  0  0  0  0
  7 19  1  0  0  0  0
  7 20  1  0  0  0  0
  8 10  1  0  0  0  0
  9 21  1  0  0  0  0
  9 22  1  0  0  0  0
 10 11  2  0  0  0  0
 10 12  1  0  0  0  0
 11 13  1  0  0  0  0
 11 23  1  0  0  0  0
 12 14  2  0  0  0  0
 12 24  1  0  0  0  0
 13 15  2  0  0  0  0
 13 25  1  0  0  0  0
 14 15  1  0  0  0  0
 14 26  1  0  0  0  0
 15 28  1  0  0  0  0
M  END
> <PUBCHEM_COMPOUND_CID>
518317
> <PUBCHEM_COMPOUND_CANONICALIZED>
1
> <PUBCHEM_CACTVS_COMPLEXITY>
211
> <PUBCHEM_CACTVS_HBOND_ACCEPTOR>
3
> <PUBCHEM_CACTVS_HBOND_DONOR>
2
> <PUBCHEM_CACTVS_ROTATABLE_BOND>
3
> <PUBCHEM_CACTVS_SUBSKEYS>
AAADccByIABEAAAAAAAAAAAAAAAAAQAAAAAwAAAAAAAAAAABAAAAHgQACAAADCjl2AawAIIAAgigAiBiBAACEAAgABAIiAAgAJgIMKKgERCAYAAmgAAoiAcAgAAOAAAAAAAAAAAAAAAAAAAAAAAAAAAAAA==
> <PUBCHEM_IUPAC_OPENEYE_NAME>
2-(2-phenyl-4,5-dihydrothiazol-4-yl)ethanol;hydrochloride
> <PUBCHEM_IUPAC_CAS_NAME>
2-(2-phenyl-4,5-dihydrothiazol-4-yl)ethanol;hydrochloride
> <PUBCHEM_IUPAC_NAME_MARKUP>
2-(2-phenyl-4,5-dihydro-1,3-thiazol-4-yl)ethanol;hydrochloride
> <PUBCHEM_IUPAC_NAME>
2-(2-phenyl-4,5-dihydro-1,3-thiazol-4-yl)ethanol;hydrochloride
> <PUBCHEM_IUPAC_SYSTEMATIC_NAME>
2-(2-phenyl-4,5-dihydro-1,3-thiazol-4-yl)ethanol;hydrochloride
> <PUBCHEM_IUPAC_TRADITIONAL_NAME>
2-(2-phenyl-2-thiazolin-4-yl)ethanol;hydrochloride
> <PUBCHEM_IUPAC_INCHI>
InChI=1S/C11H13NOS.ClH/c13-7-6-10-8-14-11(12-10)9-4-2-1-3-5-9;/h1-5,10,13H,6-8H2;1H
> <PUBCHEM_IUPAC_INCHIKEY>
QMTAZMLTJPGKPH-UHFFFAOYSA-N
> <PUBCHEM_EXACT_MASS>
243.0484629
> <PUBCHEM_MOLECULAR_FORMULA>
C11H14ClNOS
> <PUBCHEM_MOLECULAR_WEIGHT>
243.75
> <PUBCHEM_OPENEYE_CAN_SMILES>
C1C(N=C(S1)C2=CC=CC=C2)CCO.Cl
> <PUBCHEM_OPENEYE_ISO_SMILES>
C1C(N=C(S1)C2=CC=CC=C2)CCO.Cl
> <PUBCHEM_CACTVS_TPSA>
57.9
> <PUBCHEM_MONOISOTOPIC_WEIGHT>
243.0484629
> <PUBCHEM_TOTAL_CHARGE>
0
> <PUBCHEM_HEAVY_ATOM_COUNT>
15
> <PUBCHEM_ATOM_DEF_STEREO_COUNT>
0
> <PUBCHEM_ATOM_UDEF_STEREO_COUNT>
1
> <PUBCHEM_BOND_DEF_STEREO_COUNT>
0
> <PUBCHEM_BOND_UDEF_STEREO_COUNT>
0
> <PUBCHEM_ISOTOPIC_ATOM_COUNT>
0
> <PUBCHEM_COMPONENT_COUNT>
2
> <PUBCHEM_CACTVS_TAUTO_COUNT>
-1
> <PUBCHEM_COORDINATE_TYPE>
1
5
255
> <PUBCHEM_BONDANNOTATIONS>
10  11  8
10  12  8
11  13  8
12  14  8
13  15  8
14  15  8
5  6  3
$$$$
