518355
  -OEChem-10302200292D
 46 45  0     1  0  0  0  0  0999 V2000
    6.3301   -1.6651    0.0000 P   0  0  0  0  0  0  0  0  0  0  0  0
    5.4641   -2.1651    0.0000 O   0  0  0  0  0  0  0  0  0  0  0  0
    5.8301   -0.7990    0.0000 O   0  0  0  0  0  0  0  0  0  0  0  0
    6.8301   -2.5311    0.0000 O   0  0  0  0  0  0  0  0  0  0  0  0
    9.7942   -1.6651    0.0000 O   0  0  0  0  0  0  0  0  0  0  0  0
    8.9282   -0.1651    0.0000 O   0  0  0  0  0  0  0  0  0  0  0  0
    7.1962   -1.1651    0.0000 C   0  0  0  0  0  0  0  0  0  0  0  0
    8.0622   -1.6651    0.0000 C   0  0  3  0  0  0  0  0  0  0  0  0
    4.5981   -1.6651    0.0000 C   0  0  0  0  0  0  0  0  0  0  0  0
    6.3301    0.0670    0.0000 C   0  0  0  0  0  0  0  0  0  0  0  0
    8.0622   -2.6651    0.0000 C   0  0  0  0  0  0  0  0  0  0  0  0
    3.7320   -2.1651    0.0000 C   0  0  0  0  0  0  0  0  0  0  0  0
    5.8301    0.9330    0.0000 C   0  0  0  0  0  0  0  0  0  0  0  0
    8.9282   -1.1651    0.0000 C   0  0  0  0  0  0  0  0  0  0  0  0
    2.8660   -1.6651    0.0000 C   0  0  0  0  0  0  0  0  0  0  0  0
    6.3301    1.7990    0.0000 C   0  0  0  0  0  0  0  0  0  0  0  0
    2.0000   -2.1651    0.0000 C   0  0  0  0  0  0  0  0  0  0  0  0
    5.8301    2.6651    0.0000 C   0  0  0  0  0  0  0  0  0  0  0  0
   10.6603   -1.1651    0.0000 C   0  0  0  0  0  0  0  0  0  0  0  0
    7.5947   -0.6901    0.0000 H   0  0  0  0  0  0  0  0  0  0  0  0
    6.7976   -0.6901    0.0000 H   0  0  0  0  0  0  0  0  0  0  0  0
    7.5252   -1.9751    0.0000 H   0  0  0  0  0  0  0  0  0  0  0  0
    4.9966   -1.1901    0.0000 H   0  0  0  0  0  0  0  0  0  0  0  0
    4.1996   -1.1901    0.0000 H   0  0  0  0  0  0  0  0  0  0  0  0
    6.8051   -0.3315    0.0000 H   0  0  0  0  0  0  0  0  0  0  0  0
    6.8051    0.4655    0.0000 H   0  0  0  0  0  0  0  0  0  0  0  0
    7.4422   -2.6651    0.0000 H   0  0  0  0  0  0  0  0  0  0  0  0
    8.0622   -3.2851    0.0000 H   0  0  0  0  0  0  0  0  0  0  0  0
    8.6822   -2.6651    0.0000 H   0  0  0  0  0  0  0  0  0  0  0  0
    3.3335   -2.6400    0.0000 H   0  0  0  0  0  0  0  0  0  0  0  0
    4.1306   -2.6400    0.0000 H   0  0  0  0  0  0  0  0  0  0  0  0
    5.3552    1.3315    0.0000 H   0  0  0  0  0  0  0  0  0  0  0  0
    5.3552    0.5345    0.0000 H   0  0  0  0  0  0  0  0  0  0  0  0
    3.2646   -1.1901    0.0000 H   0  0  0  0  0  0  0  0  0  0  0  0
    2.4675   -1.1901    0.0000 H   0  0  0  0  0  0  0  0  0  0  0  0
    6.8051    1.4005    0.0000 H   0  0  0  0  0  0  0  0  0  0  0  0
    6.8051    2.1976    0.0000 H   0  0  0  0  0  0  0  0  0  0  0  0
    1.6900   -1.6281    0.0000 H   0  0  0  0  0  0  0  0  0  0  0  0
    1.4631   -2.4751    0.0000 H   0  0  0  0  0  0  0  0  0  0  0  0
    2.3100   -2.7020    0.0000 H   0  0  0  0  0  0  0  0  0  0  0  0
    6.3671    2.9751    0.0000 H   0  0  0  0  0  0  0  0  0  0  0  0
    5.5201    3.2020    0.0000 H   0  0  0  0  0  0  0  0  0  0  0  0
    5.2932    2.3551    0.0000 H   0  0  0  0  0  0  0  0  0  0  0  0
   10.9703   -1.7020    0.0000 H   0  0  0  0  0  0  0  0  0  0  0  0
   11.1972   -0.8551    0.0000 H   0  0  0  0  0  0  0  0  0  0  0  0
   10.3503   -0.6281    0.0000 H   0  0  0  0  0  0  0  0  0  0  0  0
  1  2  1  0  0  0  0
  1  3  1  0  0  0  0
  1  4  2  0  0  0  0
  1  7  1  0  0  0  0
  2  9  1  0  0  0  0
  3 10  1  0  0  0  0
  5 14  1  0  0  0  0
  5 19  1  0  0  0  0
  6 14  2  0  0  0  0
  7  8  1  0  0  0  0
  7 20  1  0  0  0  0
  7 21  1  0  0  0  0
  8 11  1  0  0  0  0
  8 14  1  0  0  0  0
  8 22  1  0  0  0  0
  9 12  1  0  0  0  0
  9 23  1  0  0  0  0
  9 24  1  0  0  0  0
 10 13  1  0  0  0  0
 10 25  1  0  0  0  0
 10 26  1  0  0  0  0
 11 27  1  0  0  0  0
 11 28  1  0  0  0  0
 11 29  1  0  0  0  0
 12 15  1  0  0  0  0
 12 30  1  0  0  0  0
 12 31  1  0  0  0  0
 13 16  1  0  0  0  0
 13 32  1  0  0  0  0
 13 33  1  0  0  0  0
 15 17  1  0  0  0  0
 15 34  1  0  0  0  0
 15 35  1  0  0  0  0
 16 18  1  0  0  0  0
 16 36  1  0  0  0  0
 16 37  1  0  0  0  0
 17 38  1  0  0  0  0
 17 39  1  0  0  0  0
 17 40  1  0  0  0  0
 18 41  1  0  0  0  0
 18 42  1  0  0  0  0
 18 43  1  0  0  0  0
 19 44  1  0  0  0  0
 19 45  1  0  0  0  0
 19 46  1  0  0  0  0
M  END
> <PUBCHEM_COMPOUND_CID>
518355
> <PUBCHEM_COMPOUND_CANONICALIZED>
1
> <PUBCHEM_CACTVS_COMPLEXITY>
279
> <PUBCHEM_CACTVS_HBOND_ACCEPTOR>
5
> <PUBCHEM_CACTVS_HBOND_DONOR>
0
> <PUBCHEM_CACTVS_ROTATABLE_BOND>
12
> <PUBCHEM_CACTVS_SUBSKEYS>
AAADceBwOAIAAAAAAAAAAAAAAAAAAAAAAAAAAAAAAAAAAAAAAAAAGggAACAADQCogAICCAAABRAIQACQCIAAAAAAAAAAAAEAAAAAAAAAAAAAAAAEAAAAAAAAAAAAAAAAAAAAAAAAAAAAAAAAAAAAAAAAAA==
> <PUBCHEM_IUPAC_OPENEYE_NAME>
methyl 3-dibutoxyphosphoryl-2-methyl-propanoate
> <PUBCHEM_IUPAC_CAS_NAME>
3-dibutoxyphosphoryl-2-methylpropanoic acid methyl ester
> <PUBCHEM_IUPAC_NAME_MARKUP>
methyl 3-dibutoxyphosphoryl-2-methylpropanoate
> <PUBCHEM_IUPAC_NAME>
methyl 3-dibutoxyphosphoryl-2-methylpropanoate
> <PUBCHEM_IUPAC_SYSTEMATIC_NAME>
methyl 3-dibutoxyphosphoryl-2-methyl-propanoate
> <PUBCHEM_IUPAC_TRADITIONAL_NAME>
3-dibutoxyphosphoryl-2-methyl-propionic acid methyl ester
> <PUBCHEM_IUPAC_INCHI>
InChI=1S/C13H27O5P/c1-5-7-9-17-19(15,18-10-8-6-2)11-12(3)13(14)16-4/h12H,5-11H2,1-4H3
> <PUBCHEM_IUPAC_INCHIKEY>
FRMUDADDWKVTFZ-UHFFFAOYSA-N
> <PUBCHEM_XLOGP3_AA>
2.4
> <PUBCHEM_EXACT_MASS>
294.15961096
> <PUBCHEM_MOLECULAR_FORMULA>
C13H27O5P
> <PUBCHEM_MOLECULAR_WEIGHT>
294.32
> <PUBCHEM_OPENEYE_CAN_SMILES>
CCCCOP(=O)(CC(C)C(=O)OC)OCCCC
> <PUBCHEM_OPENEYE_ISO_SMILES>
CCCCOP(=O)(CC(C)C(=O)OC)OCCCC
> <PUBCHEM_CACTVS_TPSA>
61.8
> <PUBCHEM_MONOISOTOPIC_WEIGHT>
294.15961096
> <PUBCHEM_TOTAL_CHARGE>
0
> <PUBCHEM_HEAVY_ATOM_COUNT>
19
> <PUBCHEM_ATOM_DEF_STEREO_COUNT>
0
> <PUBCHEM_ATOM_UDEF_STEREO_COUNT>
1
> <PUBCHEM_BOND_DEF_STEREO_COUNT>
0
> <PUBCHEM_BOND_UDEF_STEREO_COUNT>
0
> <PUBCHEM_ISOTOPIC_ATOM_COUNT>
0
> <PUBCHEM_COMPONENT_COUNT>
1
> <PUBCHEM_CACTVS_TAUTO_COUNT>
-1
> <PUBCHEM_COORDINATE_TYPE>
1
5
255
> <PUBCHEM_BONDANNOTATIONS>
8  11  3
$$$$
