518461
  -OEChem-10302200292D
 23 23  0     1  0  0  0  0  0999 V2000
    2.0000   -0.7593    0.0000 O   0  0  0  0  0  0  0  0  0  0  0  0
    3.7601   -0.4806    0.0000 C   0  0  3  0  0  0  0  0  0  0  0  0
    4.5691   -1.0684    0.0000 C   0  0  0  0  0  0  0  0  0  0  0  0
    4.2601   -2.0194    0.0000 C   0  0  0  0  0  0  0  0  0  0  0  0
    3.7601    0.5194    0.0000 C   0  0  0  0  0  0  0  0  0  0  0  0
    3.2601   -2.0194    0.0000 C   0  0  0  0  0  0  0  0  0  0  0  0
    2.9511   -1.0684    0.0000 C   0  0  0  0  0  0  0  0  0  0  0  0
    4.6261    1.0194    0.0000 C   0  0  0  0  0  0  0  0  0  0  0  0
    4.6261    2.0194    0.0000 C   0  0  0  0  0  0  0  0  0  0  0  0
    4.3125   -0.1991    0.0000 H   0  0  0  0  0  0  0  0  0  0  0  0
    5.1355   -1.3205    0.0000 H   0  0  0  0  0  0  0  0  0  0  0  0
    4.8791   -0.5314    0.0000 H   0  0  0  0  0  0  0  0  0  0  0  0
    4.1953   -2.6360    0.0000 H   0  0  0  0  0  0  0  0  0  0  0  0
    4.8665   -2.1483    0.0000 H   0  0  0  0  0  0  0  0  0  0  0  0
    3.5480    1.1020    0.0000 H   0  0  0  0  0  0  0  0  0  0  0  0
    3.1495    0.4118    0.0000 H   0  0  0  0  0  0  0  0  0  0  0  0
    2.6536   -2.1483    0.0000 H   0  0  0  0  0  0  0  0  0  0  0  0
    3.3249   -2.6360    0.0000 H   0  0  0  0  0  0  0  0  0  0  0  0
    4.8382    0.4368    0.0000 H   0  0  0  0  0  0  0  0  0  0  0  0
    5.2367    1.1271    0.0000 H   0  0  0  0  0  0  0  0  0  0  0  0
    5.2461    2.0194    0.0000 H   0  0  0  0  0  0  0  0  0  0  0  0
    4.6261    2.6394    0.0000 H   0  0  0  0  0  0  0  0  0  0  0  0
    4.0061    2.0194    0.0000 H   0  0  0  0  0  0  0  0  0  0  0  0
  1  7  2  0  0  0  0
  2  3  1  0  0  0  0
  2  5  1  0  0  0  0
  2  7  1  0  0  0  0
  2 10  1  0  0  0  0
  3  4  1  0  0  0  0
  3 11  1  0  0  0  0
  3 12  1  0  0  0  0
  4  6  1  0  0  0  0
  4 13  1  0  0  0  0
  4 14  1  0  0  0  0
  5  8  1  0  0  0  0
  5 15  1  0  0  0  0
  5 16  1  0  0  0  0
  6  7  1  0  0  0  0
  6 17  1  0  0  0  0
  6 18  1  0  0  0  0
  8  9  1  0  0  0  0
  8 19  1  0  0  0  0
  8 20  1  0  0  0  0
  9 21  1  0  0  0  0
  9 22  1  0  0  0  0
  9 23  1  0  0  0  0
M  END
> <PUBCHEM_COMPOUND_CID>
518461
> <PUBCHEM_COMPOUND_CANONICALIZED>
1
> <PUBCHEM_CACTVS_COMPLEXITY>
107
> <PUBCHEM_CACTVS_HBOND_ACCEPTOR>
1
> <PUBCHEM_CACTVS_HBOND_DONOR>
0
> <PUBCHEM_CACTVS_ROTATABLE_BOND>
2
> <PUBCHEM_CACTVS_SUBSKEYS>
AAADccBwIAAAAAAAAAAAAAAAAAAAAYAAAAAAAAAAAAAAAAAAAAAAGgAAAAAADQSAgAACAAAAAAAIAIAQAAAAAAAAAAAAAAEAAAAAABIAAAAAAAAAAAAAAAEIiICOAAAAAAAAAAAAAAAAAAAAAAAAAAAAAA==
> <PUBCHEM_IUPAC_OPENEYE_NAME>
2-propylcyclopentanone
> <PUBCHEM_IUPAC_CAS_NAME>
2-propyl-1-cyclopentanone
> <PUBCHEM_IUPAC_NAME_MARKUP>
2-propylcyclopentan-1-one
> <PUBCHEM_IUPAC_NAME>
2-propylcyclopentan-1-one
> <PUBCHEM_IUPAC_SYSTEMATIC_NAME>
2-propylcyclopentan-1-one
> <PUBCHEM_IUPAC_TRADITIONAL_NAME>
2-propylcyclopentanone
> <PUBCHEM_IUPAC_INCHI>
InChI=1S/C8H14O/c1-2-4-7-5-3-6-8(7)9/h7H,2-6H2,1H3
> <PUBCHEM_IUPAC_INCHIKEY>
PFUCFFRQJFQQHE-UHFFFAOYSA-N
> <PUBCHEM_XLOGP3_AA>
1.9
> <PUBCHEM_EXACT_MASS>
126.104465066
> <PUBCHEM_MOLECULAR_FORMULA>
C8H14O
> <PUBCHEM_MOLECULAR_WEIGHT>
126.20
> <PUBCHEM_OPENEYE_CAN_SMILES>
CCCC1CCCC1=O
> <PUBCHEM_OPENEYE_ISO_SMILES>
CCCC1CCCC1=O
> <PUBCHEM_CACTVS_TPSA>
17.1
> <PUBCHEM_MONOISOTOPIC_WEIGHT>
126.104465066
> <PUBCHEM_TOTAL_CHARGE>
0
> <PUBCHEM_HEAVY_ATOM_COUNT>
9
> <PUBCHEM_ATOM_DEF_STEREO_COUNT>
0
> <PUBCHEM_ATOM_UDEF_STEREO_COUNT>
1
> <PUBCHEM_BOND_DEF_STEREO_COUNT>
0
> <PUBCHEM_BOND_UDEF_STEREO_COUNT>
0
> <PUBCHEM_ISOTOPIC_ATOM_COUNT>
0
> <PUBCHEM_COMPONENT_COUNT>
1
> <PUBCHEM_CACTVS_TAUTO_COUNT>
3
> <PUBCHEM_COORDINATE_TYPE>
1
5
255
> <PUBCHEM_BONDANNOTATIONS>
2  5  3
$$$$
