518485
  -OEChem-10302200292D
 29 29  0     1  0  0  0  0  0999 V2000
    0.0000    2.6200    0.0000 Cl  0  0  0  0  0  0  0  0  0  0  0  0
    2.4814    6.9903    0.0000 Cl  0  0  0  0  0  0  0  0  0  0  0  0
    3.5443    0.8153    0.0000 N   0  0  0  0  0  0  0  0  0  0  0  0
    5.1441    4.5320    0.0000 N   0  0  0  0  0  0  0  0  0  0  0  0
    3.8550    3.3752    0.0000 C   0  0  0  0  0  0  0  0  0  0  0  0
    3.5443    2.4247    0.0000 C   0  0  0  0  0  0  0  0  0  0  0  0
    4.8335    3.5815    0.0000 C   0  0  3  0  0  0  0  0  0  0  0  0
    2.5981    2.1200    0.0000 C   0  0  0  0  0  0  0  0  0  0  0  0
    2.5981    1.1200    0.0000 C   0  0  0  0  0  0  0  0  0  0  0  0
    4.1279    1.6200    0.0000 C   0  0  0  0  0  0  0  0  0  0  0  0
    5.5013    2.8372    0.0000 C   0  0  0  0  0  0  0  0  0  0  0  0
    1.7320    2.6200    0.0000 C   0  0  0  0  0  0  0  0  0  0  0  0
    1.7320    0.6200    0.0000 C   0  0  0  0  0  0  0  0  0  0  0  0
    0.8660    2.1200    0.0000 C   0  0  0  0  0  0  0  0  0  0  0  0
    0.8660    1.1200    0.0000 C   0  0  0  0  0  0  0  0  0  0  0  0
    3.8344    3.9949    0.0000 H   0  0  0  0  0  0  0  0  0  0  0  0
    3.2411    3.4626    0.0000 H   0  0  0  0  0  0  0  0  0  0  0  0
    4.4194    4.0429    0.0000 H   0  0  0  0  0  0  0  0  0  0  0  0
    4.7479    1.6200    0.0000 H   0  0  0  0  0  0  0  0  0  0  0  0
    3.7369    0.2259    0.0000 H   0  0  0  0  0  0  0  0  0  0  0  0
    5.0398    2.4231    0.0000 H   0  0  0  0  0  0  0  0  0  0  0  0
    5.9154    2.3757    0.0000 H   0  0  0  0  0  0  0  0  0  0  0  0
    5.9628    3.2512    0.0000 H   0  0  0  0  0  0  0  0  0  0  0  0
    1.7320    3.2400    0.0000 H   0  0  0  0  0  0  0  0  0  0  0  0
    1.7320    0.0000    0.0000 H   0  0  0  0  0  0  0  0  0  0  0  0
    5.7508    4.6598    0.0000 H   0  0  0  0  0  0  0  0  0  0  0  0
    4.7301    4.9935    0.0000 H   0  0  0  0  0  0  0  0  0  0  0  0
    0.3291    0.8100    0.0000 H   0  0  0  0  0  0  0  0  0  0  0  0
    3.4814    6.9903    0.0000 H   0  0  0  0  0  0  0  0  0  0  0  0
  1 14  1  0  0  0  0
  2 29  1  0  0  0  0
  3  9  1  0  0  0  0
  3 10  1  0  0  0  0
  3 20  1  0  0  0  0
  4  7  1  0  0  0  0
  4 26  1  0  0  0  0
  4 27  1  0  0  0  0
  5  6  1  0  0  0  0
  5  7  1  0  0  0  0
  5 16  1  0  0  0  0
  5 17  1  0  0  0  0
  6  8  1  0  0  0  0
  6 10  2  0  0  0  0
  7 11  1  0  0  0  0
  7 18  1  0  0  0  0
  8  9  2  0  0  0  0
  8 12  1  0  0  0  0
  9 13  1  0  0  0  0
 10 19  1  0  0  0  0
 11 21  1  0  0  0  0
 11 22  1  0  0  0  0
 11 23  1  0  0  0  0
 12 14  2  0  0  0  0
 12 24  1  0  0  0  0
 13 15  2  0  0  0  0
 13 25  1  0  0  0  0
 14 15  1  0  0  0  0
 15 28  1  0  0  0  0
M  END
> <PUBCHEM_COMPOUND_CID>
518485
> <PUBCHEM_COMPOUND_CANONICALIZED>
1
> <PUBCHEM_CACTVS_COMPLEXITY>
198
> <PUBCHEM_CACTVS_HBOND_ACCEPTOR>
1
> <PUBCHEM_CACTVS_HBOND_DONOR>
3
> <PUBCHEM_CACTVS_ROTATABLE_BOND>
2
> <PUBCHEM_CACTVS_SUBSKEYS>
AAADccBzAAAGAAAAAAAAAAAAAAAAAWAAAAAwAAAAAAAAAFgB8AAAHAIQAAAADCrBHiQ+wPLJkACgAzRnRACCgCAxByAI2aA4ZpgIIOLBk5GEIAhgkADIyAcQgMAOgABAIAACAAAAAIBAAAQAAAAAAAAAAA==
> <PUBCHEM_IUPAC_OPENEYE_NAME>
1-(5-chloro-1H-indol-3-yl)propan-2-amine;hydrochloride
> <PUBCHEM_IUPAC_CAS_NAME>
1-(5-chloro-1H-indol-3-yl)-2-propanamine;hydrochloride
> <PUBCHEM_IUPAC_NAME_MARKUP>
1-(5-chloro-1<I>H</I>-indol-3-yl)propan-2-amine;hydrochloride
> <PUBCHEM_IUPAC_NAME>
1-(5-chloro-1H-indol-3-yl)propan-2-amine;hydrochloride
> <PUBCHEM_IUPAC_SYSTEMATIC_NAME>
1-(5-chloranyl-1H-indol-3-yl)propan-2-amine;hydrochloride
> <PUBCHEM_IUPAC_TRADITIONAL_NAME>
[2-(5-chloro-1H-indol-3-yl)-1-methyl-ethyl]amine;hydrochloride
> <PUBCHEM_IUPAC_INCHI>
InChI=1S/C11H13ClN2.ClH/c1-7(13)4-8-6-14-11-3-2-9(12)5-10(8)11;/h2-3,5-7,14H,4,13H2,1H3;1H
> <PUBCHEM_IUPAC_INCHIKEY>
ZPKPOALZYQCCES-UHFFFAOYSA-N
> <PUBCHEM_EXACT_MASS>
244.0534038
> <PUBCHEM_MOLECULAR_FORMULA>
C11H14Cl2N2
> <PUBCHEM_MOLECULAR_WEIGHT>
245.14
> <PUBCHEM_OPENEYE_CAN_SMILES>
CC(CC1=CNC2=C1C=C(C=C2)Cl)N.Cl
> <PUBCHEM_OPENEYE_ISO_SMILES>
CC(CC1=CNC2=C1C=C(C=C2)Cl)N.Cl
> <PUBCHEM_CACTVS_TPSA>
41.8
> <PUBCHEM_MONOISOTOPIC_WEIGHT>
244.0534038
> <PUBCHEM_TOTAL_CHARGE>
0
> <PUBCHEM_HEAVY_ATOM_COUNT>
15
> <PUBCHEM_ATOM_DEF_STEREO_COUNT>
0
> <PUBCHEM_ATOM_UDEF_STEREO_COUNT>
1
> <PUBCHEM_BOND_DEF_STEREO_COUNT>
0
> <PUBCHEM_BOND_UDEF_STEREO_COUNT>
0
> <PUBCHEM_ISOTOPIC_ATOM_COUNT>
0
> <PUBCHEM_COMPONENT_COUNT>
2
> <PUBCHEM_CACTVS_TAUTO_COUNT>
1
> <PUBCHEM_COORDINATE_TYPE>
1
5
255
> <PUBCHEM_BONDANNOTATIONS>
12  14  8
13  15  8
14  15  8
3  10  8
3  9  8
7  4  3
6  10  8
6  8  8
8  12  8
8  9  8
9  13  8
$$$$
