518445
  -OEChem-10302200292D
 28 28  0     1  0  0  0  0  0999 V2000
    5.0981   -1.1830    0.0000 O   0  0  0  0  0  0  0  0  0  0  0  0
    2.8660   -0.3170    0.0000 O   0  0  0  0  0  0  0  0  0  0  0  0
    3.7320    1.1830    0.0000 O   0  0  0  0  0  0  0  0  0  0  0  0
    5.5981   -0.3170    0.0000 C   0  0  3  0  0  0  0  0  0  0  0  0
    4.5981   -0.3170    0.0000 C   0  0  3  0  0  0  0  0  0  0  0  0
    6.4641    0.1830    0.0000 C   0  0  0  0  0  0  0  0  0  0  0  0
    7.3301   -0.3170    0.0000 C   0  0  0  0  0  0  0  0  0  0  0  0
    8.1962    0.1830    0.0000 C   0  0  0  0  0  0  0  0  0  0  0  0
    3.7320    0.1830    0.0000 C   0  0  0  0  0  0  0  0  0  0  0  0
    9.0622   -0.3170    0.0000 C   0  0  0  0  0  0  0  0  0  0  0  0
    9.9282    0.1830    0.0000 C   0  0  0  0  0  0  0  0  0  0  0  0
    2.0000    0.1830    0.0000 C   0  0  0  0  0  0  0  0  0  0  0  0
    6.0365   -0.7554    0.0000 H   0  0  0  0  0  0  0  0  0  0  0  0
    4.1597   -0.7554    0.0000 H   0  0  0  0  0  0  0  0  0  0  0  0
    6.8626    0.6580    0.0000 H   0  0  0  0  0  0  0  0  0  0  0  0
    6.0656    0.6580    0.0000 H   0  0  0  0  0  0  0  0  0  0  0  0
    6.9316   -0.7919    0.0000 H   0  0  0  0  0  0  0  0  0  0  0  0
    7.7287   -0.7919    0.0000 H   0  0  0  0  0  0  0  0  0  0  0  0
    8.5947    0.6580    0.0000 H   0  0  0  0  0  0  0  0  0  0  0  0
    7.7976    0.6580    0.0000 H   0  0  0  0  0  0  0  0  0  0  0  0
    8.6636   -0.7919    0.0000 H   0  0  0  0  0  0  0  0  0  0  0  0
    9.4607   -0.7919    0.0000 H   0  0  0  0  0  0  0  0  0  0  0  0
   10.2382   -0.3539    0.0000 H   0  0  0  0  0  0  0  0  0  0  0  0
   10.4651    0.4930    0.0000 H   0  0  0  0  0  0  0  0  0  0  0  0
    9.6182    0.7199    0.0000 H   0  0  0  0  0  0  0  0  0  0  0  0
    2.3100    0.7199    0.0000 H   0  0  0  0  0  0  0  0  0  0  0  0
    1.4631    0.4930    0.0000 H   0  0  0  0  0  0  0  0  0  0  0  0
    1.6900   -0.3539    0.0000 H   0  0  0  0  0  0  0  0  0  0  0  0
  1  4  1  0  0  0  0
  1  5  1  0  0  0  0
  2  9  1  0  0  0  0
  2 12  1  0  0  0  0
  3  9  2  0  0  0  0
  4  5  1  0  0  0  0
  4  6  1  0  0  0  0
  4 13  1  0  0  0  0
  5  9  1  0  0  0  0
  5 14  1  0  0  0  0
  6  7  1  0  0  0  0
  6 15  1  0  0  0  0
  6 16  1  0  0  0  0
  7  8  1  0  0  0  0
  7 17  1  0  0  0  0
  7 18  1  0  0  0  0
  8 10  1  0  0  0  0
  8 19  1  0  0  0  0
  8 20  1  0  0  0  0
 10 11  1  0  0  0  0
 10 21  1  0  0  0  0
 10 22  1  0  0  0  0
 11 23  1  0  0  0  0
 11 24  1  0  0  0  0
 11 25  1  0  0  0  0
 12 26  1  0  0  0  0
 12 27  1  0  0  0  0
 12 28  1  0  0  0  0
M  END
> <PUBCHEM_COMPOUND_CID>
518445
> <PUBCHEM_COMPOUND_CANONICALIZED>
1
> <PUBCHEM_CACTVS_COMPLEXITY>
156
> <PUBCHEM_CACTVS_HBOND_ACCEPTOR>
3
> <PUBCHEM_CACTVS_HBOND_DONOR>
0
> <PUBCHEM_CACTVS_ROTATABLE_BOND>
6
> <PUBCHEM_CACTVS_SUBSKEYS>
AAADceBwMAAAAAAAAAAAAAAAEgAAAAAAAAAAAAAAAAAAAAAAAAAAGgAAAAAACBSggAICCAAABAAIAACQCAIAAAAAAAAAAAFAAAABABYAAAQCAAAFIAACAAGIyKCAAAAAAAAAAAAAAAAAAAAAAAAAAAAAAA==
> <PUBCHEM_IUPAC_OPENEYE_NAME>
methyl 3-pentyloxirane-2-carboxylate
> <PUBCHEM_IUPAC_CAS_NAME>
3-pentyl-2-oxiranecarboxylic acid methyl ester
> <PUBCHEM_IUPAC_NAME_MARKUP>
methyl 3-pentyloxirane-2-carboxylate
> <PUBCHEM_IUPAC_NAME>
methyl 3-pentyloxirane-2-carboxylate
> <PUBCHEM_IUPAC_SYSTEMATIC_NAME>
methyl 3-pentyloxirane-2-carboxylate
> <PUBCHEM_IUPAC_TRADITIONAL_NAME>
3-amyloxirane-2-carboxylic acid methyl ester
> <PUBCHEM_IUPAC_INCHI>
InChI=1S/C9H16O3/c1-3-4-5-6-7-8(12-7)9(10)11-2/h7-8H,3-6H2,1-2H3
> <PUBCHEM_IUPAC_INCHIKEY>
CBKAPKPTOHISFB-UHFFFAOYSA-N
> <PUBCHEM_XLOGP3_AA>
2.2
> <PUBCHEM_EXACT_MASS>
172.109944368
> <PUBCHEM_MOLECULAR_FORMULA>
C9H16O3
> <PUBCHEM_MOLECULAR_WEIGHT>
172.22
> <PUBCHEM_OPENEYE_CAN_SMILES>
CCCCCC1C(O1)C(=O)OC
> <PUBCHEM_OPENEYE_ISO_SMILES>
CCCCCC1C(O1)C(=O)OC
> <PUBCHEM_CACTVS_TPSA>
38.8
> <PUBCHEM_MONOISOTOPIC_WEIGHT>
172.109944368
> <PUBCHEM_TOTAL_CHARGE>
0
> <PUBCHEM_HEAVY_ATOM_COUNT>
12
> <PUBCHEM_ATOM_DEF_STEREO_COUNT>
0
> <PUBCHEM_ATOM_UDEF_STEREO_COUNT>
2
> <PUBCHEM_BOND_DEF_STEREO_COUNT>
0
> <PUBCHEM_BOND_UDEF_STEREO_COUNT>
0
> <PUBCHEM_ISOTOPIC_ATOM_COUNT>
0
> <PUBCHEM_COMPONENT_COUNT>
1
> <PUBCHEM_CACTVS_TAUTO_COUNT>
-1
> <PUBCHEM_COORDINATE_TYPE>
1
5
255
> <PUBCHEM_BONDANNOTATIONS>
4  6  3
5  9  3
$$$$
