518617
  -OEChem-10302200292D
 72 76  0     1  0  0  0  0  0999 V2000
   11.3605    1.5983    0.0000 S   0  0  0  0  0  0  0  0  0  0  0  0
   10.3820    1.3921    0.0000 O   0  0  0  0  0  0  0  0  0  0  0  0
    3.7320   -2.9155    0.0000 O   0  0  0  0  0  0  0  0  0  0  0  0
   11.1543    2.5768    0.0000 O   0  0  0  0  0  0  0  0  0  0  0  0
   11.5667    0.6198    0.0000 O   0  0  0  0  0  0  0  0  0  0  0  0
    2.8718   -1.4121    0.0000 O   0  0  0  0  0  0  0  0  0  0  0  0
    9.1251   -0.8631    0.0000 C   0  0  3  0  0  0  0  0  0  0  0  0
    9.1251    0.1369    0.0000 C   0  0  3  0  0  0  0  0  0  0  0  0
    8.2591   -1.3631    0.0000 C   0  0  3  0  0  0  0  0  0  0  0  0
    7.3931   -0.8631    0.0000 C   0  0  3  0  0  0  0  0  0  0  0  0
    6.4831   -1.3700    0.0000 C   0  0  3  0  0  0  0  0  0  0  0  0
    8.2591    0.6369    0.0000 C   0  0  0  0  0  0  0  0  0  0  0  0
    7.3931    0.1369    0.0000 C   0  0  0  0  0  0  0  0  0  0  0  0
   10.0713    0.4416    0.0000 C   0  0  3  0  0  0  0  0  0  0  0  0
   10.0713   -1.1679    0.0000 C   0  0  0  0  0  0  0  0  0  0  0  0
   10.6550   -0.3631    0.0000 C   0  0  0  0  0  0  0  0  0  0  0  0
    8.2752   -2.4046    0.0000 C   0  0  0  0  0  0  0  0  0  0  0  0
    6.4750   -2.4116    0.0000 C   0  0  0  0  0  0  0  0  0  0  0  0
    9.1251    1.1369    0.0000 C   0  0  0  0  0  0  0  0  0  0  0  0
    5.5562   -0.8059    0.0000 C   0  0  0  0  0  0  0  0  0  0  0  0
    7.3771   -2.9324    0.0000 C   0  0  0  0  0  0  0  0  0  0  0  0
    6.4908   -0.3700    0.0000 C   0  0  0  0  0  0  0  0  0  0  0  0
    5.5396   -2.9613    0.0000 C   0  0  0  0  0  0  0  0  0  0  0  0
    4.6084   -1.3338    0.0000 C   0  0  0  0  0  0  0  0  0  0  0  0
    4.6000   -2.4188    0.0000 C   0  0  3  0  0  0  0  0  0  0  0  0
   12.3390    1.8046    0.0000 C   0  0  0  0  0  0  0  0  0  0  0  0
    2.8680   -2.4121    0.0000 C   0  0  0  0  0  0  0  0  0  0  0  0
   13.0069    1.0603    0.0000 C   0  0  0  0  0  0  0  0  0  0  0  0
   12.6497    2.7551    0.0000 C   0  0  0  0  0  0  0  0  0  0  0  0
    2.0000   -2.9088    0.0000 C   0  0  0  0  0  0  0  0  0  0  0  0
   13.9854    1.2665    0.0000 C   0  0  0  0  0  0  0  0  0  0  0  0
   13.6282    2.9613    0.0000 C   0  0  0  0  0  0  0  0  0  0  0  0
   14.2960    2.2170    0.0000 C   0  0  0  0  0  0  0  0  0  0  0  0
   15.2745    2.4232    0.0000 C   0  0  0  0  0  0  0  0  0  0  0  0
    9.1907   -1.4796    0.0000 H   0  0  0  0  0  0  0  0  0  0  0  0
    8.7984   -1.6690    0.0000 H   0  0  0  0  0  0  0  0  0  0  0  0
    7.9300   -0.5531    0.0000 H   0  0  0  0  0  0  0  0  0  0  0  0
    8.6576    1.1118    0.0000 H   0  0  0  0  0  0  0  0  0  0  0  0
    7.8606    1.1118    0.0000 H   0  0  0  0  0  0  0  0  0  0  0  0
    7.1810    0.7195    0.0000 H   0  0  0  0  0  0  0  0  0  0  0  0
    6.7825    0.0292    0.0000 H   0  0  0  0  0  0  0  0  0  0  0  0
    9.6339    0.8810    0.0000 H   0  0  0  0  0  0  0  0  0  0  0  0
    9.8203   -1.7348    0.0000 H   0  0  0  0  0  0  0  0  0  0  0  0
   10.6087   -1.4771    0.0000 H   0  0  0  0  0  0  0  0  0  0  0  0
   11.1158   -0.7779    0.0000 H   0  0  0  0  0  0  0  0  0  0  0  0
   11.1158    0.0516    0.0000 H   0  0  0  0  0  0  0  0  0  0  0  0
    8.4932   -2.9850    0.0000 H   0  0  0  0  0  0  0  0  0  0  0  0
    8.8843   -2.2891    0.0000 H   0  0  0  0  0  0  0  0  0  0  0  0
    9.7451    1.1369    0.0000 H   0  0  0  0  0  0  0  0  0  0  0  0
    9.1251    1.7569    0.0000 H   0  0  0  0  0  0  0  0  0  0  0  0
    8.5051    1.1369    0.0000 H   0  0  0  0  0  0  0  0  0  0  0  0
    5.9644   -0.3392    0.0000 H   0  0  0  0  0  0  0  0  0  0  0  0
    5.1663   -0.3239    0.0000 H   0  0  0  0  0  0  0  0  0  0  0  0
    7.3795   -3.5524    0.0000 H   0  0  0  0  0  0  0  0  0  0  0  0
    7.1108   -0.3748    0.0000 H   0  0  0  0  0  0  0  0  0  0  0  0
    6.4956    0.2500    0.0000 H   0  0  0  0  0  0  0  0  0  0  0  0
    5.8708   -0.3652    0.0000 H   0  0  0  0  0  0  0  0  0  0  0  0
    5.1423   -3.4373    0.0000 H   0  0  0  0  0  0  0  0  0  0  0  0
    5.9406   -3.4342    0.0000 H   0  0  0  0  0  0  0  0  0  0  0  0
    4.4038   -0.7486    0.0000 H   0  0  0  0  0  0  0  0  0  0  0  0
    3.9967   -1.4352    0.0000 H   0  0  0  0  0  0  0  0  0  0  0  0
    4.0648   -2.1057    0.0000 H   0  0  0  0  0  0  0  0  0  0  0  0
   12.8142    0.4709    0.0000 H   0  0  0  0  0  0  0  0  0  0  0  0
   12.2356    3.2165    0.0000 H   0  0  0  0  0  0  0  0  0  0  0  0
    1.6921   -2.3707    0.0000 H   0  0  0  0  0  0  0  0  0  0  0  0
    1.4619   -3.2167    0.0000 H   0  0  0  0  0  0  0  0  0  0  0  0
    2.3079   -3.4469    0.0000 H   0  0  0  0  0  0  0  0  0  0  0  0
   14.3994    0.8050    0.0000 H   0  0  0  0  0  0  0  0  0  0  0  0
   13.8208    3.5506    0.0000 H   0  0  0  0  0  0  0  0  0  0  0  0
   15.4024    1.8165    0.0000 H   0  0  0  0  0  0  0  0  0  0  0  0
   15.8812    2.5511    0.0000 H   0  0  0  0  0  0  0  0  0  0  0  0
   15.1467    3.0299    0.0000 H   0  0  0  0  0  0  0  0  0  0  0  0
  1  2  1  0  0  0  0
  1  4  2  0  0  0  0
  1  5  2  0  0  0  0
  1 26  1  0  0  0  0
  2 14  1  0  0  0  0
  3 25  1  0  0  0  0
  3 27  1  0  0  0  0
  6 27  2  0  0  0  0
  7  8  1  0  0  0  0
  7  9  1  0  0  0  0
  7 15  1  0  0  0  0
  7 35  1  0  0  0  0
  8 12  1  0  0  0  0
  8 14  1  0  0  0  0
  8 19  1  0  0  0  0
  9 10  1  0  0  0  0
  9 17  1  0  0  0  0
  9 36  1  0  0  0  0
 10 11  1  0  0  0  0
 10 13  1  0  0  0  0
 10 37  1  0  0  0  0
 11 18  1  0  0  0  0
 11 20  1  0  0  0  0
 11 22  1  0  0  0  0
 12 13  1  0  0  0  0
 12 38  1  0  0  0  0
 12 39  1  0  0  0  0
 13 40  1  0  0  0  0
 13 41  1  0  0  0  0
 14 16  1  0  0  0  0
 14 42  1  0  0  0  0
 15 16  1  0  0  0  0
 15 43  1  0  0  0  0
 15 44  1  0  0  0  0
 16 45  1  0  0  0  0
 16 46  1  0  0  0  0
 17 21  1  0  0  0  0
 17 47  1  0  0  0  0
 17 48  1  0  0  0  0
 18 21  2  0  0  0  0
 18 23  1  0  0  0  0
 19 49  1  0  0  0  0
 19 50  1  0  0  0  0
 19 51  1  0  0  0  0
 20 24  1  0  0  0  0
 20 52  1  0  0  0  0
 20 53  1  0  0  0  0
 21 54  1  0  0  0  0
 22 55  1  0  0  0  0
 22 56  1  0  0  0  0
 22 57  1  0  0  0  0
 23 25  1  0  0  0  0
 23 58  1  0  0  0  0
 23 59  1  0  0  0  0
 24 25  1  0  0  0  0
 24 60  1  0  0  0  0
 24 61  1  0  0  0  0
 25 62  1  0  0  0  0
 26 28  2  0  0  0  0
 26 29  1  0  0  0  0
 27 30  1  0  0  0  0
 28 31  1  0  0  0  0
 28 63  1  0  0  0  0
 29 32  2  0  0  0  0
 29 64  1  0  0  0  0
 30 65  1  0  0  0  0
 30 66  1  0  0  0  0
 30 67  1  0  0  0  0
 31 33  2  0  0  0  0
 31 68  1  0  0  0  0
 32 33  1  0  0  0  0
 32 69  1  0  0  0  0
 33 34  1  0  0  0  0
 34 70  1  0  0  0  0
 34 71  1  0  0  0  0
 34 72  1  0  0  0  0
M  END
> <PUBCHEM_COMPOUND_CID>
518617
> <PUBCHEM_COMPOUND_CANONICALIZED>
1
> <PUBCHEM_CACTVS_COMPLEXITY>
927
> <PUBCHEM_CACTVS_HBOND_ACCEPTOR>
5
> <PUBCHEM_CACTVS_HBOND_DONOR>
0
> <PUBCHEM_CACTVS_ROTATABLE_BOND>
5
> <PUBCHEM_CACTVS_SUBSKEYS>
AAADcfB4OABAAAAAAAAAAAAAAAAAAYAAAAAwYMEAAAAAAGCBAAAAGgQAAAAADxSg2AIyCYAABAKIAiDSCHBCAEAgAAAIiBgAAIgIICKAERCCIAAkwAAIiAeAwPAPkAAAAAAAAADgAAQAACAAAIAADAAAAA==
> <PUBCHEM_IUPAC_OPENEYE_NAME>
[10,13-dimethyl-17-(p-tolylsulfonyloxy)-2,3,4,7,8,9,11,12,14,15,16,17-dodecahydro-1H-cyclopenta[a]phenanthren-3-yl] acetate
> <PUBCHEM_IUPAC_CAS_NAME>
acetic acid [10,13-dimethyl-17-(4-methylphenyl)sulfonyloxy-2,3,4,7,8,9,11,12,14,15,16,17-dodecahydro-1H-cyclopenta[a]phenanthren-3-yl] ester
> <PUBCHEM_IUPAC_NAME_MARKUP>
[10,13-dimethyl-17-(4-methylphenyl)sulfonyloxy-2,3,4,7,8,9,11,12,14,15,16,17-dodecahydro-1<I>H</I>-cyclopenta[a]phenanthren-3-yl] acetate
> <PUBCHEM_IUPAC_NAME>
[10,13-dimethyl-17-(4-methylphenyl)sulfonyloxy-2,3,4,7,8,9,11,12,14,15,16,17-dodecahydro-1H-cyclopenta[a]phenanthren-3-yl] acetate
> <PUBCHEM_IUPAC_SYSTEMATIC_NAME>
[10,13-dimethyl-17-(4-methylphenyl)sulfonyloxy-2,3,4,7,8,9,11,12,14,15,16,17-dodecahydro-1H-cyclopenta[a]phenanthren-3-yl] ethanoate
> <PUBCHEM_IUPAC_TRADITIONAL_NAME>
acetic acid (10,13-dimethyl-17-tosyloxy-2,3,4,7,8,9,11,12,14,15,16,17-dodecahydro-1H-cyclopenta[a]phenanthren-3-yl) ester
> <PUBCHEM_IUPAC_INCHI>
InChI=1S/C28H38O5S/c1-18-5-8-22(9-6-18)34(30,31)33-26-12-11-24-23-10-7-20-17-21(32-19(2)29)13-15-27(20,3)25(23)14-16-28(24,26)4/h5-9,21,23-26H,10-17H2,1-4H3
> <PUBCHEM_IUPAC_INCHIKEY>
VHSUWQHYYVDVEW-UHFFFAOYSA-N
> <PUBCHEM_XLOGP3>
6.2
> <PUBCHEM_EXACT_MASS>
486.24399548
> <PUBCHEM_MOLECULAR_FORMULA>
C28H38O5S
> <PUBCHEM_MOLECULAR_WEIGHT>
486.7
> <PUBCHEM_OPENEYE_CAN_SMILES>
CC1=CC=C(C=C1)S(=O)(=O)OC2CCC3C2(CCC4C3CC=C5C4(CCC(C5)OC(=O)C)C)C
> <PUBCHEM_OPENEYE_ISO_SMILES>
CC1=CC=C(C=C1)S(=O)(=O)OC2CCC3C2(CCC4C3CC=C5C4(CCC(C5)OC(=O)C)C)C
> <PUBCHEM_CACTVS_TPSA>
78
> <PUBCHEM_MONOISOTOPIC_WEIGHT>
486.24399548
> <PUBCHEM_TOTAL_CHARGE>
0
> <PUBCHEM_HEAVY_ATOM_COUNT>
34
> <PUBCHEM_ATOM_DEF_STEREO_COUNT>
0
> <PUBCHEM_ATOM_UDEF_STEREO_COUNT>
7
> <PUBCHEM_BOND_DEF_STEREO_COUNT>
0
> <PUBCHEM_BOND_UDEF_STEREO_COUNT>
0
> <PUBCHEM_ISOTOPIC_ATOM_COUNT>
0
> <PUBCHEM_COMPONENT_COUNT>
1
> <PUBCHEM_CACTVS_TAUTO_COUNT>
-1
> <PUBCHEM_COORDINATE_TYPE>
1
5
255
> <PUBCHEM_BONDANNOTATIONS>
10  13  3
11  22  3
14  2  3
26  28  8
26  29  8
28  31  8
29  32  8
25  3  3
31  33  8
32  33  8
7  15  3
8  19  3
9  17  3
$$$$
