518610
  -OEChem-10302200292D
 70 75  0     1  0  0  0  0  0999 V2000
    3.3652   -6.3224    0.0000 O   0  0  0  0  0  0  0  0  0  0  0  0
    4.5695   -5.2418    0.0000 O   0  0  0  0  0  0  0  0  0  0  0  0
    3.8372    1.8239    0.0000 O   0  0  0  0  0  0  0  0  0  0  0  0
    5.5692    1.8172    0.0000 O   0  0  0  0  0  0  0  0  0  0  0  0
    5.5885    6.8172    0.0000 O   0  5  0  0  0  0  0  0  0  0  0  0
    3.8565    6.8239    0.0000 O   0  0  0  0  0  0  0  0  0  0  0  0
    4.7206    6.3206    0.0000 N   0  3  0  0  0  0  0  0  0  0  0  0
    3.7841   -4.3728    0.0000 C   0  0  3  0  0  0  0  0  0  0  0  0
    2.9180   -3.8728    0.0000 C   0  0  3  0  0  0  0  0  0  0  0  0
    2.9180   -2.8728    0.0000 C   0  0  3  0  0  0  0  0  0  0  0  0
    3.7841   -2.3728    0.0000 C   0  0  3  0  0  0  0  0  0  0  0  0
    3.5748   -5.3446    0.0000 C   0  0  0  0  0  0  0  0  0  0  0  0
    3.8001   -1.3313    0.0000 C   0  0  3  0  0  0  0  0  0  0  0  0
    4.6501   -3.8728    0.0000 C   0  0  0  0  0  0  0  0  0  0  0  0
    2.1810   -4.5399    0.0000 C   0  0  0  0  0  0  0  0  0  0  0  0
    4.6501   -2.8728    0.0000 C   0  0  0  0  0  0  0  0  0  0  0  0
    2.5861   -5.4477    0.0000 C   0  0  0  0  0  0  0  0  0  0  0  0
    2.0080   -2.3659    0.0000 C   0  0  0  0  0  0  0  0  0  0  0  0
    4.7689   -4.5464    0.0000 C   0  0  0  0  0  0  0  0  0  0  0  0
    2.9021   -0.8035    0.0000 C   0  0  0  0  0  0  0  0  0  0  0  0
    4.7520   -0.8107    0.0000 C   0  0  0  0  0  0  0  0  0  0  0  0
    2.0000   -1.3243    0.0000 C   0  0  0  0  0  0  0  0  0  0  0  0
    4.6623   -1.8379    0.0000 C   0  0  0  0  0  0  0  0  0  0  0  0
    2.8937    0.2814    0.0000 C   0  0  0  0  0  0  0  0  0  0  0  0
    4.7688    0.2742    0.0000 C   0  0  0  0  0  0  0  0  0  0  0  0
    3.8334    0.8239    0.0000 C   0  0  3  0  0  0  0  0  0  0  0  0
    4.2304   -6.8239    0.0000 C   0  0  0  0  0  0  0  0  0  0  0  0
    4.9747   -6.1560    0.0000 C   0  0  0  0  0  0  0  0  0  0  0  0
    4.7052    2.3206    0.0000 C   0  0  0  0  0  0  0  0  0  0  0  0
    4.7090    3.3206    0.0000 C   0  0  0  0  0  0  0  0  0  0  0  0
    3.8449    3.8239    0.0000 C   0  0  0  0  0  0  0  0  0  0  0  0
    5.5770    3.8172    0.0000 C   0  0  0  0  0  0  0  0  0  0  0  0
    3.8488    4.8239    0.0000 C   0  0  0  0  0  0  0  0  0  0  0  0
    5.5808    4.8172    0.0000 C   0  0  0  0  0  0  0  0  0  0  0  0
    4.7167    5.3206    0.0000 C   0  0  0  0  0  0  0  0  0  0  0  0
    2.3513   -3.6214    0.0000 H   0  0  0  0  0  0  0  0  0  0  0  0
    2.3835   -3.1869    0.0000 H   0  0  0  0  0  0  0  0  0  0  0  0
    4.3234   -2.0669    0.0000 H   0  0  0  0  0  0  0  0  0  0  0  0
    4.8621   -4.4554    0.0000 H   0  0  0  0  0  0  0  0  0  0  0  0
    5.2607   -3.7651    0.0000 H   0  0  0  0  0  0  0  0  0  0  0  0
    1.8156   -4.0390    0.0000 H   0  0  0  0  0  0  0  0  0  0  0  0
    1.6445   -4.8506    0.0000 H   0  0  0  0  0  0  0  0  0  0  0  0
    5.2607   -2.9804    0.0000 H   0  0  0  0  0  0  0  0  0  0  0  0
    4.8621   -2.2902    0.0000 H   0  0  0  0  0  0  0  0  0  0  0  0
    1.9965   -5.6394    0.0000 H   0  0  0  0  0  0  0  0  0  0  0  0
    2.7149   -6.0542    0.0000 H   0  0  0  0  0  0  0  0  0  0  0  0
    1.3964   -2.2646    0.0000 H   0  0  0  0  0  0  0  0  0  0  0  0
    1.8035   -2.9512    0.0000 H   0  0  0  0  0  0  0  0  0  0  0  0
    4.6612   -5.1570    0.0000 H   0  0  0  0  0  0  0  0  0  0  0  0
    5.3794   -4.6541    0.0000 H   0  0  0  0  0  0  0  0  0  0  0  0
    4.8765   -3.9358    0.0000 H   0  0  0  0  0  0  0  0  0  0  0  0
    4.9521   -1.3975    0.0000 H   0  0  0  0  0  0  0  0  0  0  0  0
    5.3645   -0.7140    0.0000 H   0  0  0  0  0  0  0  0  0  0  0  0
    1.4619   -1.0164    0.0000 H   0  0  0  0  0  0  0  0  0  0  0  0
    4.3481   -2.3725    0.0000 H   0  0  0  0  0  0  0  0  0  0  0  0
    5.1968   -2.1521    0.0000 H   0  0  0  0  0  0  0  0  0  0  0  0
    4.9764   -1.3034    0.0000 H   0  0  0  0  0  0  0  0  0  0  0  0
    2.6802    0.8635    0.0000 H   0  0  0  0  0  0  0  0  0  0  0  0
    2.2837    0.1706    0.0000 H   0  0  0  0  0  0  0  0  0  0  0  0
    5.3779    0.1587    0.0000 H   0  0  0  0  0  0  0  0  0  0  0  0
    4.9868    0.8546    0.0000 H   0  0  0  0  0  0  0  0  0  0  0  0
    3.2970    1.1350    0.0000 H   0  0  0  0  0  0  0  0  0  0  0  0
    3.8651   -7.3248    0.0000 H   0  0  0  0  0  0  0  0  0  0  0  0
    4.6904   -7.2396    0.0000 H   0  0  0  0  0  0  0  0  0  0  0  0
    5.3383   -6.6583    0.0000 H   0  0  0  0  0  0  0  0  0  0  0  0
    5.5122   -5.8470    0.0000 H   0  0  0  0  0  0  0  0  0  0  0  0
    3.3068    3.5160    0.0000 H   0  0  0  0  0  0  0  0  0  0  0  0
    6.1127    3.5052    0.0000 H   0  0  0  0  0  0  0  0  0  0  0  0
    3.3130    5.1360    0.0000 H   0  0  0  0  0  0  0  0  0  0  0  0
    6.1189    5.1252    0.0000 H   0  0  0  0  0  0  0  0  0  0  0  0
  1 12  1  0  0  0  0
  1 27  1  0  0  0  0
  2 12  1  0  0  0  0
  2 28  1  0  0  0  0
  3 26  1  0  0  0  0
  3 29  1  0  0  0  0
  4 29  2  0  0  0  0
  5  7  1  0  0  0  0
  6  7  2  0  0  0  0
  7 35  1  0  0  0  0
  8  9  1  0  0  0  0
  8 12  1  0  0  0  0
  8 14  1  0  0  0  0
  8 19  1  0  0  0  0
  9 10  1  0  0  0  0
  9 15  1  0  0  0  0
  9 36  1  0  0  0  0
 10 11  1  0  0  0  0
 10 18  1  0  0  0  0
 10 37  1  0  0  0  0
 11 13  1  0  0  0  0
 11 16  1  0  0  0  0
 11 38  1  0  0  0  0
 12 17  1  0  0  0  0
 13 20  1  0  0  0  0
 13 21  1  0  0  0  0
 13 23  1  0  0  0  0
 14 16  1  0  0  0  0
 14 39  1  0  0  0  0
 14 40  1  0  0  0  0
 15 17  1  0  0  0  0
 15 41  1  0  0  0  0
 15 42  1  0  0  0  0
 16 43  1  0  0  0  0
 16 44  1  0  0  0  0
 17 45  1  0  0  0  0
 17 46  1  0  0  0  0
 18 22  1  0  0  0  0
 18 47  1  0  0  0  0
 18 48  1  0  0  0  0
 19 49  1  0  0  0  0
 19 50  1  0  0  0  0
 19 51  1  0  0  0  0
 20 22  2  0  0  0  0
 20 24  1  0  0  0  0
 21 25  1  0  0  0  0
 21 52  1  0  0  0  0
 21 53  1  0  0  0  0
 22 54  1  0  0  0  0
 23 55  1  0  0  0  0
 23 56  1  0  0  0  0
 23 57  1  0  0  0  0
 24 26  1  0  0  0  0
 24 58  1  0  0  0  0
 24 59  1  0  0  0  0
 25 26  1  0  0  0  0
 25 60  1  0  0  0  0
 25 61  1  0  0  0  0
 26 62  1  0  0  0  0
 27 28  1  0  0  0  0
 27 63  1  0  0  0  0
 27 64  1  0  0  0  0
 28 65  1  0  0  0  0
 28 66  1  0  0  0  0
 29 30  1  0  0  0  0
 30 31  2  0  0  0  0
 30 32  1  0  0  0  0
 31 33  1  0  0  0  0
 31 67  1  0  0  0  0
 32 34  2  0  0  0  0
 32 68  1  0  0  0  0
 33 35  2  0  0  0  0
 33 69  1  0  0  0  0
 34 35  1  0  0  0  0
 34 70  1  0  0  0  0
M  CHG  2   5  -1   7   1
M  END
> <PUBCHEM_COMPOUND_CID>
518610
> <PUBCHEM_COMPOUND_CANONICALIZED>
1
> <PUBCHEM_CACTVS_COMPLEXITY>
898
> <PUBCHEM_CACTVS_HBOND_ACCEPTOR>
6
> <PUBCHEM_CACTVS_HBOND_DONOR>
0
> <PUBCHEM_CACTVS_ROTATABLE_BOND>
3
> <PUBCHEM_CACTVS_SUBSKEYS>
AAADcfB6OAAAAAAAAAAAAAAAAAAAAaIAAAAwYMEAAAAAAGCBAAAAHgAEAAAADxyhmAIyyIAQRACJAiTSSwCCAAAkAgAoiAEAbMoZJjKAtZmiMQBkwAEO6YeY2fGfiAAAAAAAAADQAAQAACAAAIAADAAAAA==
> <PUBCHEM_IUPAC_OPENEYE_NAME>
(10,13-dimethylspiro[1,2,3,4,7,8,9,11,12,14,15,16-dodecahydrocyclopenta[a]phenanthrene-17,2'-1,3-dioxolane]-3-yl) 4-nitrobenzoate
> <PUBCHEM_IUPAC_CAS_NAME>
4-nitrobenzoic acid (10,13-dimethyl-3-spiro[1,2,3,4,7,8,9,11,12,14,15,16-dodecahydrocyclopenta[a]phenanthrene-17,2'-1,3-dioxolane]yl) ester
> <PUBCHEM_IUPAC_NAME_MARKUP>
(10,13-dimethylspiro[1,2,3,4,7,8,9,11,12,14,15,16-dodecahydrocyclopenta[a]phenanthrene-17,2&apos;-1,3-dioxolane]-3-yl) 4-nitrobenzoate
> <PUBCHEM_IUPAC_NAME>
(10,13-dimethylspiro[1,2,3,4,7,8,9,11,12,14,15,16-dodecahydrocyclopenta[a]phenanthrene-17,2'-1,3-dioxolane]-3-yl) 4-nitrobenzoate
> <PUBCHEM_IUPAC_SYSTEMATIC_NAME>
(10,13-dimethylspiro[1,2,3,4,7,8,9,11,12,14,15,16-dodecahydrocyclopenta[a]phenanthrene-17,2'-1,3-dioxolane]-3-yl) 4-nitrobenzoate
> <PUBCHEM_IUPAC_TRADITIONAL_NAME>
4-nitrobenzoic acid (10,13-dimethylspiro[1,2,3,4,7,8,9,11,12,14,15,16-dodecahydrocyclopenta[a]phenanthrene-17,2'-1,3-dioxolane]-3-yl) ester
> <PUBCHEM_IUPAC_INCHI>
InChI=1S/C28H35NO6/c1-26-12-9-21(35-25(30)18-3-6-20(7-4-18)29(31)32)17-19(26)5-8-22-23(26)10-13-27(2)24(22)11-14-28(27)33-15-16-34-28/h3-7,21-24H,8-17H2,1-2H3
> <PUBCHEM_IUPAC_INCHIKEY>
ARNUAHHGHXAYII-UHFFFAOYSA-N
> <PUBCHEM_XLOGP3_AA>
5.5
> <PUBCHEM_EXACT_MASS>
481.24643784
> <PUBCHEM_MOLECULAR_FORMULA>
C28H35NO6
> <PUBCHEM_MOLECULAR_WEIGHT>
481.6
> <PUBCHEM_OPENEYE_CAN_SMILES>
CC12CCC(CC1=CCC3C2CCC4(C3CCC45OCCO5)C)OC(=O)C6=CC=C(C=C6)[N+](=O)[O-]
> <PUBCHEM_OPENEYE_ISO_SMILES>
CC12CCC(CC1=CCC3C2CCC4(C3CCC45OCCO5)C)OC(=O)C6=CC=C(C=C6)[N+](=O)[O-]
> <PUBCHEM_CACTVS_TPSA>
90.6
> <PUBCHEM_MONOISOTOPIC_WEIGHT>
481.24643784
> <PUBCHEM_TOTAL_CHARGE>
0
> <PUBCHEM_HEAVY_ATOM_COUNT>
35
> <PUBCHEM_ATOM_DEF_STEREO_COUNT>
0
> <PUBCHEM_ATOM_UDEF_STEREO_COUNT>
6
> <PUBCHEM_BOND_DEF_STEREO_COUNT>
0
> <PUBCHEM_BOND_UDEF_STEREO_COUNT>
0
> <PUBCHEM_ISOTOPIC_ATOM_COUNT>
0
> <PUBCHEM_COMPONENT_COUNT>
1
> <PUBCHEM_CACTVS_TAUTO_COUNT>
-1
> <PUBCHEM_COORDINATE_TYPE>
1
5
255
> <PUBCHEM_BONDANNOTATIONS>
10  18  3
11  16  3
13  23  3
26  3  3
30  31  8
30  32  8
31  33  8
32  34  8
33  35  8
34  35  8
8  19  3
9  15  3
$$$$
