518616
  -OEChem-10302200292D
 86 90  0     1  0  0  0  0  0999 V2000
    3.7320   -3.2456    0.0000 O   0  0  0  0  0  0  0  0  0  0  0  0
    2.8602   -1.7490    0.0000 O   0  0  0  0  0  0  0  0  0  0  0  0
    7.2622   -1.2214    0.0000 C   0  0  3  0  0  0  0  0  0  0  0  0
    6.3961   -1.7214    0.0000 C   0  0  3  0  0  0  0  0  0  0  0  0
    6.3959   -0.7210    0.0000 C   0  0  0  0  0  0  0  0  0  0  0  0
    8.1282   -1.7214    0.0000 C   0  0  3  0  0  0  0  0  0  0  0  0
    6.3961   -2.7214    0.0000 C   0  0  3  0  0  0  0  0  0  0  0  0
    9.0382   -1.2146    0.0000 C   0  0  3  0  0  0  0  0  0  0  0  0
    7.2461   -0.1799    0.0000 C   0  0  0  0  0  0  0  0  0  0  0  0
    9.0462   -0.1730    0.0000 C   0  0  3  0  0  0  0  0  0  0  0  0
    5.5022   -1.1868    0.0000 C   0  0  0  0  0  0  0  0  0  0  0  0
    8.1282   -2.7214    0.0000 C   0  0  0  0  0  0  0  0  0  0  0  0
    7.2622   -3.2214    0.0000 C   0  0  0  0  0  0  0  0  0  0  0  0
    8.1441    0.3478    0.0000 C   0  0  0  0  0  0  0  0  0  0  0  0
    5.5022   -3.2561    0.0000 C   0  0  0  0  0  0  0  0  0  0  0  0
   10.0342    0.1368    0.0000 C   0  0  3  0  0  0  0  0  0  0  0  0
   10.0213   -1.5396    0.0000 C   0  0  0  0  0  0  0  0  0  0  0  0
    4.5961   -1.7006    0.0000 C   0  0  0  0  0  0  0  0  0  0  0  0
    4.5961   -2.7423    0.0000 C   0  0  3  0  0  0  0  0  0  0  0  0
   10.6357   -0.7061    0.0000 C   0  0  0  0  0  0  0  0  0  0  0  0
    9.0305   -2.2146    0.0000 C   0  0  0  0  0  0  0  0  0  0  0  0
    9.0539    0.8270    0.0000 C   0  0  0  0  0  0  0  0  0  0  0  0
   10.3522    1.0849    0.0000 C   0  0  3  0  0  0  0  0  0  0  0  0
    5.0122   -4.1279    0.0000 C   0  0  0  0  0  0  0  0  0  0  0  0
    6.0122   -4.1163    0.0000 C   0  0  0  0  0  0  0  0  0  0  0  0
   11.3323    1.2836    0.0000 C   0  0  0  0  0  0  0  0  0  0  0  0
    9.6901    1.8343    0.0000 C   0  0  0  0  0  0  0  0  0  0  0  0
   11.6503    2.2317    0.0000 C   0  0  0  0  0  0  0  0  0  0  0  0
    2.8641   -2.7489    0.0000 C   0  0  0  0  0  0  0  0  0  0  0  0
    2.0000   -3.2523    0.0000 C   0  0  0  0  0  0  0  0  0  0  0  0
   12.6303    2.4303    0.0000 C   0  0  0  0  0  0  0  0  0  0  0  0
   12.9483    3.3784    0.0000 C   0  0  0  0  0  0  0  0  0  0  0  0
   13.9284    3.5771    0.0000 C   0  0  0  0  0  0  0  0  0  0  0  0
   12.2862    4.1279    0.0000 C   0  0  0  0  0  0  0  0  0  0  0  0
    6.6080   -0.1384    0.0000 H   0  0  0  0  0  0  0  0  0  0  0  0
    5.7853   -0.6134    0.0000 H   0  0  0  0  0  0  0  0  0  0  0  0
    8.6627   -2.0356    0.0000 H   0  0  0  0  0  0  0  0  0  0  0  0
    6.4009   -3.3414    0.0000 H   0  0  0  0  0  0  0  0  0  0  0  0
    7.0281    0.4005    0.0000 H   0  0  0  0  0  0  0  0  0  0  0  0
    6.6370   -0.2954    0.0000 H   0  0  0  0  0  0  0  0  0  0  0  0
    5.9068   -0.7170    0.0000 H   0  0  0  0  0  0  0  0  0  0  0  0
    5.1086   -0.7078    0.0000 H   0  0  0  0  0  0  0  0  0  0  0  0
    8.3402   -3.3041    0.0000 H   0  0  0  0  0  0  0  0  0  0  0  0
    8.7388   -2.6138    0.0000 H   0  0  0  0  0  0  0  0  0  0  0  0
    6.8636   -3.6964    0.0000 H   0  0  0  0  0  0  0  0  0  0  0  0
    7.6607   -3.6964    0.0000 H   0  0  0  0  0  0  0  0  0  0  0  0
    8.5414    0.8238    0.0000 H   0  0  0  0  0  0  0  0  0  0  0  0
    7.7432    0.8207    0.0000 H   0  0  0  0  0  0  0  0  0  0  0  0
   10.6475    0.2283    0.0000 H   0  0  0  0  0  0  0  0  0  0  0  0
    9.7659   -2.1046    0.0000 H   0  0  0  0  0  0  0  0  0  0  0  0
   10.5563   -1.8530    0.0000 H   0  0  0  0  0  0  0  0  0  0  0  0
    4.3871   -1.1170    0.0000 H   0  0  0  0  0  0  0  0  0  0  0  0
    3.9853   -1.8067    0.0000 H   0  0  0  0  0  0  0  0  0  0  0  0
    4.0586   -2.4333    0.0000 H   0  0  0  0  0  0  0  0  0  0  0  0
   11.0933   -1.1244    0.0000 H   0  0  0  0  0  0  0  0  0  0  0  0
   11.0997   -0.2949    0.0000 H   0  0  0  0  0  0  0  0  0  0  0  0
    8.4105   -2.2098    0.0000 H   0  0  0  0  0  0  0  0  0  0  0  0
    9.0257   -2.8346    0.0000 H   0  0  0  0  0  0  0  0  0  0  0  0
    9.6505   -2.2194    0.0000 H   0  0  0  0  0  0  0  0  0  0  0  0
    9.6739    0.8222    0.0000 H   0  0  0  0  0  0  0  0  0  0  0  0
    9.0587    1.4470    0.0000 H   0  0  0  0  0  0  0  0  0  0  0  0
    8.4340    0.8317    0.0000 H   0  0  0  0  0  0  0  0  0  0  0  0
    9.7446    0.9617    0.0000 H   0  0  0  0  0  0  0  0  0  0  0  0
    4.4718   -3.8241    0.0000 H   0  0  0  0  0  0  0  0  0  0  0  0
    4.7085   -4.6684    0.0000 H   0  0  0  0  0  0  0  0  0  0  0  0
    5.5527   -4.4316    0.0000 H   0  0  0  0  0  0  0  0  0  0  0  0
    5.4789   -4.4325    0.0000 H   0  0  0  0  0  0  0  0  0  0  0  0
    6.3284   -4.6496    0.0000 H   0  0  0  0  0  0  0  0  0  0  0  0
    6.5455   -3.8001    0.0000 H   0  0  0  0  0  0  0  0  0  0  0  0
   11.3481    0.6638    0.0000 H   0  0  0  0  0  0  0  0  0  0  0  0
   11.9454    1.1915    0.0000 H   0  0  0  0  0  0  0  0  0  0  0  0
   10.1548    2.2448    0.0000 H   0  0  0  0  0  0  0  0  0  0  0  0
    9.2796    2.2990    0.0000 H   0  0  0  0  0  0  0  0  0  0  0  0
    9.2255    1.4238    0.0000 H   0  0  0  0  0  0  0  0  0  0  0  0
   11.6345    2.8515    0.0000 H   0  0  0  0  0  0  0  0  0  0  0  0
   11.0372    2.3238    0.0000 H   0  0  0  0  0  0  0  0  0  0  0  0
    1.6879   -2.7165    0.0000 H   0  0  0  0  0  0  0  0  0  0  0  0
    1.4643   -3.5644    0.0000 H   0  0  0  0  0  0  0  0  0  0  0  0
    2.3121   -3.7880    0.0000 H   0  0  0  0  0  0  0  0  0  0  0  0
   13.0408    1.9657    0.0000 H   0  0  0  0  0  0  0  0  0  0  0  0
   14.0516    2.9695    0.0000 H   0  0  0  0  0  0  0  0  0  0  0  0
   14.5360    3.7003    0.0000 H   0  0  0  0  0  0  0  0  0  0  0  0
   13.8052    4.1848    0.0000 H   0  0  0  0  0  0  0  0  0  0  0  0
   12.7509    4.5384    0.0000 H   0  0  0  0  0  0  0  0  0  0  0  0
   11.8757    4.5925    0.0000 H   0  0  0  0  0  0  0  0  0  0  0  0
   11.8216    3.7174    0.0000 H   0  0  0  0  0  0  0  0  0  0  0  0
  1 19  1  0  0  0  0
  1 29  1  0  0  0  0
  2 29  2  0  0  0  0
  3  4  1  0  0  0  0
  3  5  1  0  0  0  0
  3  6  1  0  0  0  0
  3  9  1  0  0  0  0
  4  5  1  0  0  0  0
  4  7  1  0  0  0  0
  4 11  1  0  0  0  0
  5 35  1  0  0  0  0
  5 36  1  0  0  0  0
  6  8  1  0  0  0  0
  6 12  1  0  0  0  0
  6 37  1  0  0  0  0
  7 13  1  0  0  0  0
  7 15  1  0  0  0  0
  7 38  1  0  0  0  0
  8 10  1  0  0  0  0
  8 17  1  0  0  0  0
  8 21  1  0  0  0  0
  9 14  1  0  0  0  0
  9 39  1  0  0  0  0
  9 40  1  0  0  0  0
 10 14  1  0  0  0  0
 10 16  1  0  0  0  0
 10 22  1  0  0  0  0
 11 18  1  0  0  0  0
 11 41  1  0  0  0  0
 11 42  1  0  0  0  0
 12 13  1  0  0  0  0
 12 43  1  0  0  0  0
 12 44  1  0  0  0  0
 13 45  1  0  0  0  0
 13 46  1  0  0  0  0
 14 47  1  0  0  0  0
 14 48  1  0  0  0  0
 15 19  1  0  0  0  0
 15 24  1  0  0  0  0
 15 25  1  0  0  0  0
 16 20  1  0  0  0  0
 16 23  1  0  0  0  0
 16 49  1  0  0  0  0
 17 20  1  0  0  0  0
 17 50  1  0  0  0  0
 17 51  1  0  0  0  0
 18 19  1  0  0  0  0
 18 52  1  0  0  0  0
 18 53  1  0  0  0  0
 19 54  1  0  0  0  0
 20 55  1  0  0  0  0
 20 56  1  0  0  0  0
 21 57  1  0  0  0  0
 21 58  1  0  0  0  0
 21 59  1  0  0  0  0
 22 60  1  0  0  0  0
 22 61  1  0  0  0  0
 22 62  1  0  0  0  0
 23 26  1  0  0  0  0
 23 27  1  0  0  0  0
 23 63  1  0  0  0  0
 24 64  1  0  0  0  0
 24 65  1  0  0  0  0
 24 66  1  0  0  0  0
 25 67  1  0  0  0  0
 25 68  1  0  0  0  0
 25 69  1  0  0  0  0
 26 28  1  0  0  0  0
 26 70  1  0  0  0  0
 26 71  1  0  0  0  0
 27 72  1  0  0  0  0
 27 73  1  0  0  0  0
 27 74  1  0  0  0  0
 28 31  1  0  0  0  0
 28 75  1  0  0  0  0
 28 76  1  0  0  0  0
 29 30  1  0  0  0  0
 30 77  1  0  0  0  0
 30 78  1  0  0  0  0
 30 79  1  0  0  0  0
 31 32  2  0  0  0  0
 31 80  1  0  0  0  0
 32 33  1  0  0  0  0
 32 34  1  0  0  0  0
 33 81  1  0  0  0  0
 33 82  1  0  0  0  0
 33 83  1  0  0  0  0
 34 84  1  0  0  0  0
 34 85  1  0  0  0  0
 34 86  1  0  0  0  0
M  END
> <PUBCHEM_COMPOUND_CID>
518616
> <PUBCHEM_COMPOUND_CANONICALIZED>
1
> <PUBCHEM_CACTVS_COMPLEXITY>
866
> <PUBCHEM_CACTVS_HBOND_ACCEPTOR>
2
> <PUBCHEM_CACTVS_HBOND_DONOR>
0
> <PUBCHEM_CACTVS_ROTATABLE_BOND>
6
> <PUBCHEM_CACTVS_SUBSKEYS>
AAADcfB8MAAAAAAAAAAAAAAAGAAAAYAAAAAwYMAABgAAAGDAAAAAGgAAAAAADxSggAICCAAABACIAiDSCAAAAAAgAAAACAAAAAgAAAIAAQACAAAEgAAIAAOAwPAPgAAAAAAAAADAAAYAADAAAQAACAAAAA==
> <PUBCHEM_IUPAC_OPENEYE_NAME>
[15-(1,5-dimethylhex-4-enyl)-7,7,12,16-tetramethyl-6-pentacyclo[9.7.0.01,3.03,8.012,16]octadecanyl] acetate
> <PUBCHEM_IUPAC_CAS_NAME>
acetic acid [7,7,12,16-tetramethyl-15-(6-methylhept-5-en-2-yl)-6-pentacyclo[9.7.0.01,3.03,8.012,16]octadecanyl] ester
> <PUBCHEM_IUPAC_NAME_MARKUP>
[7,7,12,16-tetramethyl-15-(6-methylhept-5-en-2-yl)-6-pentacyclo[9.7.0.0<SUP>1,3</SUP>.0<SUP>3,8</SUP>.0<SUP>12,16</SUP>]octadecanyl] acetate
> <PUBCHEM_IUPAC_NAME>
[7,7,12,16-tetramethyl-15-(6-methylhept-5-en-2-yl)-6-pentacyclo[9.7.0.01,3.03,8.012,16]octadecanyl] acetate
> <PUBCHEM_IUPAC_SYSTEMATIC_NAME>
[7,7,12,16-tetramethyl-15-(6-methylhept-5-en-2-yl)-6-pentacyclo[9.7.0.01,3.03,8.012,16]octadecanyl] ethanoate
> <PUBCHEM_IUPAC_TRADITIONAL_NAME>
acetic acid [15-(1,5-dimethylhex-4-enyl)-7,7,12,16-tetramethyl-6-pentacyclo[9.7.0.01,3.03,8.012,16]octadecanyl] ester
> <PUBCHEM_IUPAC_INCHI>
InChI=1S/C32H52O2/c1-21(2)10-9-11-22(3)24-14-16-30(8)26-13-12-25-28(5,6)27(34-23(4)33)15-17-31(25)20-32(26,31)19-18-29(24,30)7/h10,22,24-27H,9,11-20H2,1-8H3
> <PUBCHEM_IUPAC_INCHIKEY>
PQNTWKDHNSWVPU-UHFFFAOYSA-N
> <PUBCHEM_XLOGP3_AA>
10.3
> <PUBCHEM_EXACT_MASS>
468.396730897
> <PUBCHEM_MOLECULAR_FORMULA>
C32H52O2
> <PUBCHEM_MOLECULAR_WEIGHT>
468.8
> <PUBCHEM_OPENEYE_CAN_SMILES>
CC(CCC=C(C)C)C1CCC2(C1(CCC34C2CCC5C3(C4)CCC(C5(C)C)OC(=O)C)C)C
> <PUBCHEM_OPENEYE_ISO_SMILES>
CC(CCC=C(C)C)C1CCC2(C1(CCC34C2CCC5C3(C4)CCC(C5(C)C)OC(=O)C)C)C
> <PUBCHEM_CACTVS_TPSA>
26.3
> <PUBCHEM_MONOISOTOPIC_WEIGHT>
468.396730897
> <PUBCHEM_TOTAL_CHARGE>
0
> <PUBCHEM_HEAVY_ATOM_COUNT>
34
> <PUBCHEM_ATOM_DEF_STEREO_COUNT>
0
> <PUBCHEM_ATOM_UDEF_STEREO_COUNT>
9
> <PUBCHEM_BOND_DEF_STEREO_COUNT>
0
> <PUBCHEM_BOND_UDEF_STEREO_COUNT>
0
> <PUBCHEM_ISOTOPIC_ATOM_COUNT>
0
> <PUBCHEM_COMPONENT_COUNT>
1
> <PUBCHEM_CACTVS_TAUTO_COUNT>
-1
> <PUBCHEM_COORDINATE_TYPE>
1
5
255
> <PUBCHEM_BONDANNOTATIONS>
19  1  3
10  22  3
16  20  3
23  27  3
3  9  3
4  11  3
6  12  3
7  13  3
8  21  3
$$$$
