518692
  -OEChem-10302200292D
 19 19  0     1  0  0  0  0  0999 V2000
    4.2077   -0.6796    0.0000 S   0  0  0  0  0  0  0  0  0  0  0  0
    3.5797    1.6307    0.0000 O   0  0  0  0  0  0  0  0  0  0  0  0
    2.5896   -0.6796    0.0000 N   0  0  0  0  0  0  0  0  0  0  0  0
    4.9810    0.6126    0.0000 N   0  0  0  0  0  0  0  0  0  0  0  0
    3.3987   -0.0919    0.0000 C   0  0  3  0  0  0  0  0  0  0  0  0
    2.8987   -1.6307    0.0000 C   0  0  0  0  0  0  0  0  0  0  0  0
    3.8987   -1.6307    0.0000 C   0  0  0  0  0  0  0  0  0  0  0  0
    2.8109    0.7172    0.0000 C   0  0  0  0  0  0  0  0  0  0  0  0
    3.9865    0.7172    0.0000 C   0  0  0  0  0  0  0  0  0  0  0  0
    2.2922   -1.7596    0.0000 H   0  0  0  0  0  0  0  0  0  0  0  0
    2.9635   -2.2473    0.0000 H   0  0  0  0  0  0  0  0  0  0  0  0
    2.0000   -0.4881    0.0000 H   0  0  0  0  0  0  0  0  0  0  0  0
    3.8339   -2.2473    0.0000 H   0  0  0  0  0  0  0  0  0  0  0  0
    4.5051   -1.7596    0.0000 H   0  0  0  0  0  0  0  0  0  0  0  0
    3.3125    1.0816    0.0000 H   0  0  0  0  0  0  0  0  0  0  0  0
    2.4465    1.2188    0.0000 H   0  0  0  0  0  0  0  0  0  0  0  0
    2.3093    0.3527    0.0000 H   0  0  0  0  0  0  0  0  0  0  0  0
    5.3454    1.1142    0.0000 H   0  0  0  0  0  0  0  0  0  0  0  0
    5.2332    0.0462    0.0000 H   0  0  0  0  0  0  0  0  0  0  0  0
  1  5  1  0  0  0  0
  1  7  1  0  0  0  0
  2  9  2  0  0  0  0
  3  5  1  0  0  0  0
  3  6  1  0  0  0  0
  3 12  1  0  0  0  0
  4  9  1  0  0  0  0
  4 18  1  0  0  0  0
  4 19  1  0  0  0  0
  5  8  1  0  0  0  0
  5  9  1  0  0  0  0
  6  7  1  0  0  0  0
  6 10  1  0  0  0  0
  6 11  1  0  0  0  0
  7 13  1  0  0  0  0
  7 14  1  0  0  0  0
  8 15  1  0  0  0  0
  8 16  1  0  0  0  0
  8 17  1  0  0  0  0
M  END
> <PUBCHEM_COMPOUND_CID>
518692
> <PUBCHEM_COMPOUND_CANONICALIZED>
1
> <PUBCHEM_CACTVS_COMPLEXITY>
139
> <PUBCHEM_CACTVS_HBOND_ACCEPTOR>
3
> <PUBCHEM_CACTVS_HBOND_DONOR>
2
> <PUBCHEM_CACTVS_ROTATABLE_BOND>
1
> <PUBCHEM_CACTVS_SUBSKEYS>
AAADccBjIABAAAAAAAAAAAAAAAAAAWAAAAAAAAAAAAAAAAAAAAAAHgQQAAAACAjFwASCAALAAAgIAAEQEAAAAABAABAAAIGIAAAAQAAAACAQAAAAEACgAAAAAAAAAAAAAAAAAAAAAAAAAAAAAAAAAAAAAA==
> <PUBCHEM_IUPAC_OPENEYE_NAME>
2-methylthiazolidine-2-carboxamide
> <PUBCHEM_IUPAC_CAS_NAME>
2-methyl-2-thiazolidinecarboxamide
> <PUBCHEM_IUPAC_NAME_MARKUP>
2-methyl-1,3-thiazolidine-2-carboxamide
> <PUBCHEM_IUPAC_NAME>
2-methyl-1,3-thiazolidine-2-carboxamide
> <PUBCHEM_IUPAC_SYSTEMATIC_NAME>
2-methyl-1,3-thiazolidine-2-carboxamide
> <PUBCHEM_IUPAC_TRADITIONAL_NAME>
2-methylthiazolidine-2-carboxamide
> <PUBCHEM_IUPAC_INCHI>
InChI=1S/C5H10N2OS/c1-5(4(6)8)7-2-3-9-5/h7H,2-3H2,1H3,(H2,6,8)
> <PUBCHEM_IUPAC_INCHIKEY>
JMAFWCZDYHKNPQ-UHFFFAOYSA-N
> <PUBCHEM_XLOGP3_AA>
-0.5
> <PUBCHEM_EXACT_MASS>
146.05138412
> <PUBCHEM_MOLECULAR_FORMULA>
C5H10N2OS
> <PUBCHEM_MOLECULAR_WEIGHT>
146.21
> <PUBCHEM_OPENEYE_CAN_SMILES>
CC1(NCCS1)C(=O)N
> <PUBCHEM_OPENEYE_ISO_SMILES>
CC1(NCCS1)C(=O)N
> <PUBCHEM_CACTVS_TPSA>
80.4
> <PUBCHEM_MONOISOTOPIC_WEIGHT>
146.05138412
> <PUBCHEM_TOTAL_CHARGE>
0
> <PUBCHEM_HEAVY_ATOM_COUNT>
9
> <PUBCHEM_ATOM_DEF_STEREO_COUNT>
0
> <PUBCHEM_ATOM_UDEF_STEREO_COUNT>
1
> <PUBCHEM_BOND_DEF_STEREO_COUNT>
0
> <PUBCHEM_BOND_UDEF_STEREO_COUNT>
0
> <PUBCHEM_ISOTOPIC_ATOM_COUNT>
0
> <PUBCHEM_COMPONENT_COUNT>
1
> <PUBCHEM_CACTVS_TAUTO_COUNT>
2
> <PUBCHEM_COORDINATE_TYPE>
1
5
255
> <PUBCHEM_BONDANNOTATIONS>
5  8  3
$$$$
