518789
  -OEChem-10302200292D
 49 51  0     1  0  0  0  0  0999 V2000
    2.0000   -2.4707    0.0000 O   0  0  0  0  0  0  0  0  0  0  0  0
    4.3838   -1.0527    0.0000 C   0  0  3  0  0  0  0  0  0  0  0  0
    4.3838   -0.0527    0.0000 C   0  0  3  0  0  0  0  0  0  0  0  0
    3.4899   -1.5874    0.0000 C   0  0  3  0  0  0  0  0  0  0  0  0
    3.4899    0.4820    0.0000 C   0  0  0  0  0  0  0  0  0  0  0  0
    5.2498   -1.5527    0.0000 C   0  0  0  0  0  0  0  0  0  0  0  0
    2.5838   -1.0735    0.0000 C   0  0  0  0  0  0  0  0  0  0  0  0
    2.5838   -0.0319    0.0000 C   0  0  0  0  0  0  0  0  0  0  0  0
    5.2498    0.4473    0.0000 C   0  0  0  0  0  0  0  0  0  0  0  0
    6.1159   -1.0527    0.0000 C   0  0  0  0  0  0  0  0  0  0  0  0
    4.3838    0.9473    0.0000 C   0  0  0  0  0  0  0  0  0  0  0  0
    6.1159   -0.0527    0.0000 C   0  0  0  0  0  0  0  0  0  0  0  0
    3.9999   -2.4475    0.0000 C   0  0  0  0  0  0  0  0  0  0  0  0
    2.9999   -2.4591    0.0000 C   0  0  0  0  0  0  0  0  0  0  0  0
    5.2338    1.4888    0.0000 C   0  0  0  0  0  0  0  0  0  0  0  0
    7.0259    0.4542    0.0000 C   0  0  0  0  0  0  0  0  0  0  0  0
    7.0339    1.4958    0.0000 C   0  0  0  0  0  0  0  0  0  0  0  0
    6.1318    2.0166    0.0000 C   0  0  0  0  0  0  0  0  0  0  0  0
    7.9019    1.9924    0.0000 C   0  0  0  0  0  0  0  0  0  0  0  0
    7.9057    2.9924    0.0000 C   0  0  0  0  0  0  0  0  0  0  0  0
    8.7660    1.4891    0.0000 C   0  0  0  0  0  0  0  0  0  0  0  0
    4.3904   -1.9027    0.0000 H   0  0  0  0  0  0  0  0  0  0  0  0
    3.8945    0.9518    0.0000 H   0  0  0  0  0  0  0  0  0  0  0  0
    3.0963    0.9610    0.0000 H   0  0  0  0  0  0  0  0  0  0  0  0
    4.8513   -2.0276    0.0000 H   0  0  0  0  0  0  0  0  0  0  0  0
    5.6484   -2.0276    0.0000 H   0  0  0  0  0  0  0  0  0  0  0  0
    1.9730   -0.9674    0.0000 H   0  0  0  0  0  0  0  0  0  0  0  0
    2.3748   -1.6572    0.0000 H   0  0  0  0  0  0  0  0  0  0  0  0
    2.3748    0.5518    0.0000 H   0  0  0  0  0  0  0  0  0  0  0  0
    1.9730   -0.1380    0.0000 H   0  0  0  0  0  0  0  0  0  0  0  0
    6.3279   -1.6353    0.0000 H   0  0  0  0  0  0  0  0  0  0  0  0
    6.7265   -0.9450    0.0000 H   0  0  0  0  0  0  0  0  0  0  0  0
    5.0038    0.9473    0.0000 H   0  0  0  0  0  0  0  0  0  0  0  0
    4.3838    1.5673    0.0000 H   0  0  0  0  0  0  0  0  0  0  0  0
    3.7638    0.9473    0.0000 H   0  0  0  0  0  0  0  0  0  0  0  0
    3.4666   -2.7637    0.0000 H   0  0  0  0  0  0  0  0  0  0  0  0
    4.3160   -2.9809    0.0000 H   0  0  0  0  0  0  0  0  0  0  0  0
    4.5332   -2.1313    0.0000 H   0  0  0  0  0  0  0  0  0  0  0  0
    3.3161   -2.9924    0.0000 H   0  0  0  0  0  0  0  0  0  0  0  0
    4.6933    1.7926    0.0000 H   0  0  0  0  0  0  0  0  0  0  0  0
    7.5592    0.1380    0.0000 H   0  0  0  0  0  0  0  0  0  0  0  0
    6.1294    2.6366    0.0000 H   0  0  0  0  0  0  0  0  0  0  0  0
    7.8995    1.3724    0.0000 H   0  0  0  0  0  0  0  0  0  0  0  0
    8.5257    2.9900    0.0000 H   0  0  0  0  0  0  0  0  0  0  0  0
    7.9081    3.6124    0.0000 H   0  0  0  0  0  0  0  0  0  0  0  0
    7.2857    2.9948    0.0000 H   0  0  0  0  0  0  0  0  0  0  0  0
    8.4539    0.9533    0.0000 H   0  0  0  0  0  0  0  0  0  0  0  0
    9.3017    1.1770    0.0000 H   0  0  0  0  0  0  0  0  0  0  0  0
    9.0780    2.0248    0.0000 H   0  0  0  0  0  0  0  0  0  0  0  0
  1 14  2  0  0  0  0
  2  3  1  0  0  0  0
  2  4  1  0  0  0  0
  2  6  1  0  0  0  0
  2 22  1  0  0  0  0
  3  5  1  0  0  0  0
  3  9  1  0  0  0  0
  3 11  1  0  0  0  0
  4  7  1  0  0  0  0
  4 13  1  0  0  0  0
  4 14  1  0  0  0  0
  5  8  1  0  0  0  0
  5 23  1  0  0  0  0
  5 24  1  0  0  0  0
  6 10  1  0  0  0  0
  6 25  1  0  0  0  0
  6 26  1  0  0  0  0
  7  8  1  0  0  0  0
  7 27  1  0  0  0  0
  7 28  1  0  0  0  0
  8 29  1  0  0  0  0
  8 30  1  0  0  0  0
  9 12  2  0  0  0  0
  9 15  1  0  0  0  0
 10 12  1  0  0  0  0
 10 31  1  0  0  0  0
 10 32  1  0  0  0  0
 11 33  1  0  0  0  0
 11 34  1  0  0  0  0
 11 35  1  0  0  0  0
 12 16  1  0  0  0  0
 13 36  1  0  0  0  0
 13 37  1  0  0  0  0
 13 38  1  0  0  0  0
 14 39  1  0  0  0  0
 15 18  2  0  0  0  0
 15 40  1  0  0  0  0
 16 17  2  0  0  0  0
 16 41  1  0  0  0  0
 17 18  1  0  0  0  0
 17 19  1  0  0  0  0
 18 42  1  0  0  0  0
 19 20  1  0  0  0  0
 19 21  1  0  0  0  0
 19 43  1  0  0  0  0
 20 44  1  0  0  0  0
 20 45  1  0  0  0  0
 20 46  1  0  0  0  0
 21 47  1  0  0  0  0
 21 48  1  0  0  0  0
 21 49  1  0  0  0  0
M  END
> <PUBCHEM_COMPOUND_CID>
518789
> <PUBCHEM_COMPOUND_CANONICALIZED>
1
> <PUBCHEM_CACTVS_COMPLEXITY>
401
> <PUBCHEM_CACTVS_HBOND_ACCEPTOR>
1
> <PUBCHEM_CACTVS_HBOND_DONOR>
0
> <PUBCHEM_CACTVS_ROTATABLE_BOND>
2
> <PUBCHEM_CACTVS_SUBSKEYS>
AAADceB4IAAAAAAAAAAAAAAAAAAAAAAAAAAwYMAAAAAAAADBAAAAGgAAAAAADwCgmAIyAIAAAACIAihSgAACAAAgAAAIiAEAAIgIIDKAERCAIAAggAAIiAcIiMCPwAACAAAQAACAAAQAACAAAAAAAAAAAA==
> <PUBCHEM_IUPAC_OPENEYE_NAME>
7-isopropyl-1,4a-dimethyl-2,3,4,9,10,10a-hexahydrophenanthrene-1-carbaldehyde
> <PUBCHEM_IUPAC_CAS_NAME>
1,4a-dimethyl-7-propan-2-yl-2,3,4,9,10,10a-hexahydrophenanthrene-1-carboxaldehyde
> <PUBCHEM_IUPAC_NAME_MARKUP>
1,4<I>a</I>-dimethyl-7-propan-2-yl-2,3,4,9,10,10<I>a</I>-hexahydrophenanthrene-1-carbaldehyde
> <PUBCHEM_IUPAC_NAME>
1,4a-dimethyl-7-propan-2-yl-2,3,4,9,10,10a-hexahydrophenanthrene-1-carbaldehyde
> <PUBCHEM_IUPAC_SYSTEMATIC_NAME>
1,4a-dimethyl-7-propan-2-yl-2,3,4,9,10,10a-hexahydrophenanthrene-1-carbaldehyde
> <PUBCHEM_IUPAC_TRADITIONAL_NAME>
7-isopropyl-1,4a-dimethyl-2,3,4,9,10,10a-hexahydrophenanthrene-1-carbaldehyde
> <PUBCHEM_IUPAC_INCHI>
InChI=1S/C20H28O/c1-14(2)15-6-8-17-16(12-15)7-9-18-19(3,13-21)10-5-11-20(17,18)4/h6,8,12-14,18H,5,7,9-11H2,1-4H3
> <PUBCHEM_IUPAC_INCHIKEY>
YCLCHPWRGSDZKL-UHFFFAOYSA-N
> <PUBCHEM_XLOGP3_AA>
5.5
> <PUBCHEM_EXACT_MASS>
284.214015512
> <PUBCHEM_MOLECULAR_FORMULA>
C20H28O
> <PUBCHEM_MOLECULAR_WEIGHT>
284.4
> <PUBCHEM_OPENEYE_CAN_SMILES>
CC(C)C1=CC2=C(C=C1)C3(CCCC(C3CC2)(C)C=O)C
> <PUBCHEM_OPENEYE_ISO_SMILES>
CC(C)C1=CC2=C(C=C1)C3(CCCC(C3CC2)(C)C=O)C
> <PUBCHEM_CACTVS_TPSA>
17.1
> <PUBCHEM_MONOISOTOPIC_WEIGHT>
284.214015512
> <PUBCHEM_TOTAL_CHARGE>
0
> <PUBCHEM_HEAVY_ATOM_COUNT>
21
> <PUBCHEM_ATOM_DEF_STEREO_COUNT>
0
> <PUBCHEM_ATOM_UDEF_STEREO_COUNT>
3
> <PUBCHEM_BOND_DEF_STEREO_COUNT>
0
> <PUBCHEM_BOND_UDEF_STEREO_COUNT>
0
> <PUBCHEM_ISOTOPIC_ATOM_COUNT>
0
> <PUBCHEM_COMPONENT_COUNT>
1
> <PUBCHEM_CACTVS_TAUTO_COUNT>
1
> <PUBCHEM_COORDINATE_TYPE>
1
5
255
> <PUBCHEM_BONDANNOTATIONS>
12  16  8
15  18  8
16  17  8
17  18  8
2  22  3
3  11  3
4  13  3
9  12  8
9  15  8
$$$$
