518767
  -OEChem-10302200292D
 23 24  0     1  0  0  0  0  0999 V2000
    2.7369    0.8373    0.0000 O   0  0  0  0  0  0  0  0  0  0  0  0
    4.2369    1.7033    0.0000 O   0  0  0  0  0  0  0  0  0  0  0  0
    3.9735   -1.0114    0.0000 C   0  0  3  0  0  0  0  0  0  0  0  0
    3.7147   -1.9773    0.0000 C   0  0  3  0  0  0  0  0  0  0  0  0
    3.2369   -0.0288    0.0000 C   0  0  0  0  0  0  0  0  0  0  0  0
    2.0000   -1.6296    0.0000 C   0  0  0  0  0  0  0  0  0  0  0  0
    2.3420   -2.5693    0.0000 C   0  0  0  0  0  0  0  0  0  0  0  0
    5.3725   -1.5202    0.0000 C   0  0  0  0  0  0  0  0  0  0  0  0
    5.1137   -2.4861    0.0000 C   0  0  0  0  0  0  0  0  0  0  0  0
    3.2369    1.7033    0.0000 C   0  0  0  0  0  0  0  0  0  0  0  0
    2.7369    2.5693    0.0000 C   0  0  0  0  0  0  0  0  0  0  0  0
    3.9595   -1.6312    0.0000 H   0  0  0  0  0  0  0  0  0  0  0  0
    3.7328   -2.5970    0.0000 H   0  0  0  0  0  0  0  0  0  0  0  0
    3.7544    0.3128    0.0000 H   0  0  0  0  0  0  0  0  0  0  0  0
    1.8057   -1.0409    0.0000 H   0  0  0  0  0  0  0  0  0  0  0  0
    1.4142   -1.8328    0.0000 H   0  0  0  0  0  0  0  0  0  0  0  0
    1.7636   -2.7926    0.0000 H   0  0  0  0  0  0  0  0  0  0  0  0
    2.5765   -3.1433    0.0000 H   0  0  0  0  0  0  0  0  0  0  0  0
    5.9224   -1.2338    0.0000 H   0  0  0  0  0  0  0  0  0  0  0  0
    5.4000   -3.0360    0.0000 H   0  0  0  0  0  0  0  0  0  0  0  0
    3.2739    2.8793    0.0000 H   0  0  0  0  0  0  0  0  0  0  0  0
    2.4269    3.1062    0.0000 H   0  0  0  0  0  0  0  0  0  0  0  0
    2.2000    2.2593    0.0000 H   0  0  0  0  0  0  0  0  0  0  0  0
  1  5  1  0  0  0  0
  1 10  1  0  0  0  0
  2 10  2  0  0  0  0
  3  5  1  0  0  0  0
  3  6  1  0  0  0  0
  3  8  1  0  0  0  0
  3 12  1  0  0  0  0
  4  5  1  0  0  0  0
  4  7  1  0  0  0  0
  4  9  1  0  0  0  0
  4 13  1  0  0  0  0
  5 14  1  0  0  0  0
  6  7  1  0  0  0  0
  6 15  1  0  0  0  0
  6 16  1  0  0  0  0
  7 17  1  0  0  0  0
  7 18  1  0  0  0  0
  8  9  2  0  0  0  0
  8 19  1  0  0  0  0
  9 20  1  0  0  0  0
 10 11  1  0  0  0  0
 11 21  1  0  0  0  0
 11 22  1  0  0  0  0
 11 23  1  0  0  0  0
M  END
> <PUBCHEM_COMPOUND_CID>
518767
> <PUBCHEM_COMPOUND_CANONICALIZED>
1
> <PUBCHEM_CACTVS_COMPLEXITY>
194
> <PUBCHEM_CACTVS_HBOND_ACCEPTOR>
2
> <PUBCHEM_CACTVS_HBOND_DONOR>
0
> <PUBCHEM_CACTVS_ROTATABLE_BOND>
2
> <PUBCHEM_CACTVS_SUBSKEYS>
AAADccBwMAAAAAAAAAAAAAAAAAAAAYIAAAAgAAAAAAAAAAAAAAAAGgAAAAAADRSggAICCAAABACIACDSCAAAAAAgAAAICAAAAAgAAAIAAQACAAAEwAAIAAOAQAAOAAAAAAAAAAAAAAAAAAAAAQAABAAAAA==
> <PUBCHEM_IUPAC_OPENEYE_NAME>
7-bicyclo[2.2.1]hept-2-enyl acetate
> <PUBCHEM_IUPAC_CAS_NAME>
acetic acid 7-bicyclo[2.2.1]hept-2-enyl ester
> <PUBCHEM_IUPAC_NAME_MARKUP>
7-bicyclo[2.2.1]hept-2-enyl acetate
> <PUBCHEM_IUPAC_NAME>
7-bicyclo[2.2.1]hept-2-enyl acetate
> <PUBCHEM_IUPAC_SYSTEMATIC_NAME>
7-bicyclo[2.2.1]hept-2-enyl ethanoate
> <PUBCHEM_IUPAC_TRADITIONAL_NAME>
acetic acid 7-bicyclo[2.2.1]hept-2-enyl ester
> <PUBCHEM_IUPAC_INCHI>
InChI=1S/C9H12O2/c1-6(10)11-9-7-2-3-8(9)5-4-7/h2-3,7-9H,4-5H2,1H3
> <PUBCHEM_IUPAC_INCHIKEY>
AWPLNKVBPBFYBU-UHFFFAOYSA-N
> <PUBCHEM_XLOGP3_AA>
1.4
> <PUBCHEM_EXACT_MASS>
152.083729621
> <PUBCHEM_MOLECULAR_FORMULA>
C9H12O2
> <PUBCHEM_MOLECULAR_WEIGHT>
152.19
> <PUBCHEM_OPENEYE_CAN_SMILES>
CC(=O)OC1C2CCC1C=C2
> <PUBCHEM_OPENEYE_ISO_SMILES>
CC(=O)OC1C2CCC1C=C2
> <PUBCHEM_CACTVS_TPSA>
26.3
> <PUBCHEM_MONOISOTOPIC_WEIGHT>
152.083729621
> <PUBCHEM_TOTAL_CHARGE>
0
> <PUBCHEM_HEAVY_ATOM_COUNT>
11
> <PUBCHEM_ATOM_DEF_STEREO_COUNT>
0
> <PUBCHEM_ATOM_UDEF_STEREO_COUNT>
2
> <PUBCHEM_BOND_DEF_STEREO_COUNT>
0
> <PUBCHEM_BOND_UDEF_STEREO_COUNT>
0
> <PUBCHEM_ISOTOPIC_ATOM_COUNT>
0
> <PUBCHEM_COMPONENT_COUNT>
1
> <PUBCHEM_CACTVS_TAUTO_COUNT>
-1
> <PUBCHEM_COORDINATE_TYPE>
1
5
255
> <PUBCHEM_BONDANNOTATIONS>
3  6  3
4  7  3
$$$$
