518745
  -OEChem-10302200292D
 17 20  0     1  0  0  0  0  0999 V2000
    2.0000   -1.8380    0.0000 N   0  0  0  0  0  0  0  0  0  0  0  0
    4.8782   -1.8398    0.0000 N   0  0  0  0  0  0  0  0  0  0  0  0
    3.0263   -0.1214    0.0000 C   0  0  3  0  0  0  0  0  0  0  0  0
    3.8550   -0.1214    0.0000 C   0  0  3  0  0  0  0  0  0  0  0  0
    3.0263    0.7073    0.0000 C   0  0  3  0  0  0  0  0  0  0  0  0
    3.8550    0.7073    0.0000 C   0  0  3  0  0  0  0  0  0  0  0  0
    2.4278    0.9927    0.0000 C   0  0  3  0  0  0  0  0  0  0  0  0
    4.5088    1.0848    0.0000 C   0  0  3  0  0  0  0  0  0  0  0  0
    3.4038    1.8398    0.0000 C   0  0  0  0  0  0  0  0  0  0  0  0
    2.5132   -0.9797    0.0000 C   0  0  0  0  0  0  0  0  0  0  0  0
    4.3666   -0.9806    0.0000 C   0  0  0  0  0  0  0  0  0  0  0  0
    3.4647    0.2689    0.0000 H   0  0  0  0  0  0  0  0  0  0  0  0
    3.4166    0.2689    0.0000 H   0  0  0  0  0  0  0  0  0  0  0  0
    1.8180    1.1046    0.0000 H   0  0  0  0  0  0  0  0  0  0  0  0
    5.1114    1.2306    0.0000 H   0  0  0  0  0  0  0  0  0  0  0  0
    3.7960    2.3200    0.0000 H   0  0  0  0  0  0  0  0  0  0  0  0
    2.9589    2.2716    0.0000 H   0  0  0  0  0  0  0  0  0  0  0  0
  1 10  3  0  0  0  0
  2 11  3  0  0  0  0
  3  4  1  0  0  0  0
  3  5  1  0  0  0  0
  3  7  1  0  0  0  0
  3 10  1  0  0  0  0
  4  6  1  0  0  0  0
  4  8  1  0  0  0  0
  4 11  1  0  0  0  0
  5  6  1  0  0  0  0
  5  7  1  0  0  0  0
  5 12  1  0  0  0  0
  6  8  1  0  0  0  0
  6 13  1  0  0  0  0
  7  9  1  0  0  0  0
  7 14  1  0  0  0  0
  8  9  1  0  0  0  0
  8 15  1  0  0  0  0
  9 16  1  0  0  0  0
  9 17  1  0  0  0  0
M  END
> <PUBCHEM_COMPOUND_CID>
518745
> <PUBCHEM_COMPOUND_CANONICALIZED>
1
> <PUBCHEM_CACTVS_COMPLEXITY>
356
> <PUBCHEM_CACTVS_HBOND_ACCEPTOR>
2
> <PUBCHEM_CACTVS_HBOND_DONOR>
0
> <PUBCHEM_CACTVS_ROTATABLE_BOND>
0
> <PUBCHEM_CACTVS_SUBSKEYS>
AAADcYBzAAAAAAAAAAAAAAAAGDBgAYMAAAAAAAAAAAAAAAAAAAAAHAAAAAAADwCBAAAAAAAAAAAQBAAAAAAAAAAAAAAAAAAAAAAAgAIAAAAAAAAAAAAAAAkAgMAPgAAAAAAAAACAAAQAACAAAQAACAAAAA==
> <PUBCHEM_IUPAC_OPENEYE_NAME>
tetracyclo[3.2.0.02,7.04,6]heptane-1,5-dicarbonitrile
> <PUBCHEM_IUPAC_CAS_NAME>
tetracyclo[3.2.0.02,7.04,6]heptane-1,5-dicarbonitrile
> <PUBCHEM_IUPAC_NAME_MARKUP>
tetracyclo[3.2.0.0<SUP>2,7</SUP>.0<SUP>4,6</SUP>]heptane-1,5-dicarbonitrile
> <PUBCHEM_IUPAC_NAME>
tetracyclo[3.2.0.02,7.04,6]heptane-1,5-dicarbonitrile
> <PUBCHEM_IUPAC_SYSTEMATIC_NAME>
tetracyclo[3.2.0.02,7.04,6]heptane-1,5-dicarbonitrile
> <PUBCHEM_IUPAC_TRADITIONAL_NAME>
tetracyclo[3.2.0.02,7.04,6]heptane-1,5-dicarbonitrile
> <PUBCHEM_IUPAC_INCHI>
InChI=1S/C9H6N2/c10-2-8-4-1-5-7(6(4)8)9(5,8)3-11/h4-7H,1H2
> <PUBCHEM_IUPAC_INCHIKEY>
CEEUJBOISPRDSX-UHFFFAOYSA-N
> <PUBCHEM_XLOGP3_AA>
0
> <PUBCHEM_EXACT_MASS>
142.053098200
> <PUBCHEM_MOLECULAR_FORMULA>
C9H6N2
> <PUBCHEM_MOLECULAR_WEIGHT>
142.16
> <PUBCHEM_OPENEYE_CAN_SMILES>
C1C2C3C2(C4(C1C34)C#N)C#N
> <PUBCHEM_OPENEYE_ISO_SMILES>
C1C2C3C2(C4(C1C34)C#N)C#N
> <PUBCHEM_CACTVS_TPSA>
47.6
> <PUBCHEM_MONOISOTOPIC_WEIGHT>
142.053098200
> <PUBCHEM_TOTAL_CHARGE>
0
> <PUBCHEM_HEAVY_ATOM_COUNT>
11
> <PUBCHEM_ATOM_DEF_STEREO_COUNT>
0
> <PUBCHEM_ATOM_UDEF_STEREO_COUNT>
6
> <PUBCHEM_BOND_DEF_STEREO_COUNT>
0
> <PUBCHEM_BOND_UDEF_STEREO_COUNT>
0
> <PUBCHEM_ISOTOPIC_ATOM_COUNT>
0
> <PUBCHEM_COMPONENT_COUNT>
1
> <PUBCHEM_CACTVS_TAUTO_COUNT>
-1
> <PUBCHEM_COORDINATE_TYPE>
1
5
255
> <PUBCHEM_BONDANNOTATIONS>
3  10  3
4  11  3
5  7  3
6  8  3
7  9  3
8  9  3
$$$$
