518749
  -OEChem-10302200292D
 51 54  0     1  0  0  0  0  0999 V2000
   10.8814    1.4410    0.0000 O   0  0  0  0  0  0  0  0  0  0  0  0
    3.7320   -2.5024    0.0000 O   0  0  0  0  0  0  0  0  0  0  0  0
    2.8718   -0.9991    0.0000 O   0  0  0  0  0  0  0  0  0  0  0  0
    9.1251    0.5499    0.0000 C   0  0  3  0  0  0  0  0  0  0  0  0
    9.1251   -0.4501    0.0000 C   0  0  3  0  0  0  0  0  0  0  0  0
   10.0713    0.8547    0.0000 C   0  0  3  0  0  0  0  0  0  0  0  0
   10.0713   -0.7548    0.0000 C   0  0  0  0  0  0  0  0  0  0  0  0
   10.6550    0.0499    0.0000 C   0  0  0  0  0  0  0  0  0  0  0  0
    8.2591    1.0499    0.0000 C   0  0  0  0  0  0  0  0  0  0  0  0
    8.2591   -0.9501    0.0000 C   0  0  0  0  0  0  0  0  0  0  0  0
    9.1251    1.5499    0.0000 C   0  0  0  0  0  0  0  0  0  0  0  0
    9.7640    1.8062    0.0000 C   0  0  0  0  0  0  0  0  0  0  0  0
    7.3931    0.5499    0.0000 C   0  0  0  0  0  0  0  0  0  0  0  0
    7.3931   -0.4501    0.0000 C   0  0  0  0  0  0  0  0  0  0  0  0
    8.2752   -1.9916    0.0000 C   0  0  0  0  0  0  0  0  0  0  0  0
   10.4344    2.5482    0.0000 C   0  0  0  0  0  0  0  0  0  0  0  0
    6.4831   -0.9569    0.0000 C   0  0  0  0  0  0  0  0  0  0  0  0
    6.4750   -1.9985    0.0000 C   0  0  0  0  0  0  0  0  0  0  0  0
    7.3771   -2.5193    0.0000 C   0  0  0  0  0  0  0  0  0  0  0  0
    5.5562   -0.3928    0.0000 C   0  0  0  0  0  0  0  0  0  0  0  0
    5.5396   -2.5482    0.0000 C   0  0  0  0  0  0  0  0  0  0  0  0
    4.6084   -0.9208    0.0000 C   0  0  0  0  0  0  0  0  0  0  0  0
    4.6000   -2.0057    0.0000 C   0  0  0  0  0  0  0  0  0  0  0  0
    2.8680   -1.9991    0.0000 C   0  0  0  0  0  0  0  0  0  0  0  0
    2.0000   -2.4957    0.0000 C   0  0  0  0  0  0  0  0  0  0  0  0
    9.1907   -1.0666    0.0000 H   0  0  0  0  0  0  0  0  0  0  0  0
    9.8203   -1.3217    0.0000 H   0  0  0  0  0  0  0  0  0  0  0  0
   10.6087   -1.0640    0.0000 H   0  0  0  0  0  0  0  0  0  0  0  0
   11.1158   -0.3648    0.0000 H   0  0  0  0  0  0  0  0  0  0  0  0
   11.1158    0.4647    0.0000 H   0  0  0  0  0  0  0  0  0  0  0  0
    8.6576    1.5249    0.0000 H   0  0  0  0  0  0  0  0  0  0  0  0
    7.8606    1.5249    0.0000 H   0  0  0  0  0  0  0  0  0  0  0  0
    9.7451    1.5499    0.0000 H   0  0  0  0  0  0  0  0  0  0  0  0
    9.1251    2.1699    0.0000 H   0  0  0  0  0  0  0  0  0  0  0  0
    8.5051    1.5499    0.0000 H   0  0  0  0  0  0  0  0  0  0  0  0
    9.3831    2.2955    0.0000 H   0  0  0  0  0  0  0  0  0  0  0  0
    9.2160    1.5161    0.0000 H   0  0  0  0  0  0  0  0  0  0  0  0
    7.1810    1.1325    0.0000 H   0  0  0  0  0  0  0  0  0  0  0  0
    6.7825    0.4423    0.0000 H   0  0  0  0  0  0  0  0  0  0  0  0
   11.4473    1.1879    0.0000 H   0  0  0  0  0  0  0  0  0  0  0  0
    8.8156   -2.2954    0.0000 H   0  0  0  0  0  0  0  0  0  0  0  0
   10.8944    2.1326    0.0000 H   0  0  0  0  0  0  0  0  0  0  0  0
   10.8500    3.0083    0.0000 H   0  0  0  0  0  0  0  0  0  0  0  0
    9.9744    2.9639    0.0000 H   0  0  0  0  0  0  0  0  0  0  0  0
    7.3795   -3.1393    0.0000 H   0  0  0  0  0  0  0  0  0  0  0  0
    5.5682    0.2271    0.0000 H   0  0  0  0  0  0  0  0  0  0  0  0
    5.5420   -3.1682    0.0000 H   0  0  0  0  0  0  0  0  0  0  0  0
    4.0750   -0.6046    0.0000 H   0  0  0  0  0  0  0  0  0  0  0  0
    1.6921   -1.9576    0.0000 H   0  0  0  0  0  0  0  0  0  0  0  0
    1.4619   -2.8037    0.0000 H   0  0  0  0  0  0  0  0  0  0  0  0
    2.3079   -3.0338    0.0000 H   0  0  0  0  0  0  0  0  0  0  0  0
  1  6  1  0  0  0  0
  1 40  1  0  0  0  0
  2 23  1  0  0  0  0
  2 24  1  0  0  0  0
  3 24  2  0  0  0  0
  4  5  1  0  0  0  0
  4  6  1  0  0  0  0
  4  9  1  0  0  0  0
  4 11  1  0  0  0  0
  5  7  1  0  0  0  0
  5 10  1  0  0  0  0
  5 26  1  0  0  0  0
  6  8  1  0  0  0  0
  6 12  1  0  0  0  0
  7  8  1  0  0  0  0
  7 27  1  0  0  0  0
  7 28  1  0  0  0  0
  8 29  1  0  0  0  0
  8 30  1  0  0  0  0
  9 13  1  0  0  0  0
  9 31  1  0  0  0  0
  9 32  1  0  0  0  0
 10 14  2  0  0  0  0
 10 15  1  0  0  0  0
 11 33  1  0  0  0  0
 11 34  1  0  0  0  0
 11 35  1  0  0  0  0
 12 16  1  0  0  0  0
 12 36  1  0  0  0  0
 12 37  1  0  0  0  0
 13 14  1  0  0  0  0
 13 38  1  0  0  0  0
 13 39  1  0  0  0  0
 14 17  1  0  0  0  0
 15 19  2  0  0  0  0
 15 41  1  0  0  0  0
 16 42  1  0  0  0  0
 16 43  1  0  0  0  0
 16 44  1  0  0  0  0
 17 18  2  0  0  0  0
 17 20  1  0  0  0  0
 18 19  1  0  0  0  0
 18 21  1  0  0  0  0
 19 45  1  0  0  0  0
 20 22  2  0  0  0  0
 20 46  1  0  0  0  0
 21 23  2  0  0  0  0
 21 47  1  0  0  0  0
 22 23  1  0  0  0  0
 22 48  1  0  0  0  0
 24 25  1  0  0  0  0
 25 49  1  0  0  0  0
 25 50  1  0  0  0  0
 25 51  1  0  0  0  0
M  END
> <PUBCHEM_COMPOUND_CID>
518749
> <PUBCHEM_COMPOUND_CANONICALIZED>
1
> <PUBCHEM_CACTVS_COMPLEXITY>
531
> <PUBCHEM_CACTVS_HBOND_ACCEPTOR>
3
> <PUBCHEM_CACTVS_HBOND_DONOR>
1
> <PUBCHEM_CACTVS_ROTATABLE_BOND>
3
> <PUBCHEM_CACTVS_SUBSKEYS>
AAADceB4MAAAAAAAAAAAAAAAAAAAAYAAAAAwYMAAAAAAAGDBUAAAGgAACAAAD0SAmAAyDsAABgCIAiDSCAACCAAgIAAIiAAGCIgMJiKEMRqCeiCkwBEIqAeAwPAP4AADAAAQAADAAAYAACAAAYAADAAAAA==
> <PUBCHEM_IUPAC_OPENEYE_NAME>
(17-ethyl-17-hydroxy-13-methyl-12,14,15,16-tetrahydro-11H-cyclopenta[a]phenanthren-3-yl) acetate
> <PUBCHEM_IUPAC_CAS_NAME>
acetic acid (17-ethyl-17-hydroxy-13-methyl-12,14,15,16-tetrahydro-11H-cyclopenta[a]phenanthren-3-yl) ester
> <PUBCHEM_IUPAC_NAME_MARKUP>
(17-ethyl-17-hydroxy-13-methyl-12,14,15,16-tetrahydro-11<I>H</I>-cyclopenta[a]phenanthren-3-yl) acetate
> <PUBCHEM_IUPAC_NAME>
(17-ethyl-17-hydroxy-13-methyl-12,14,15,16-tetrahydro-11H-cyclopenta[a]phenanthren-3-yl) acetate
> <PUBCHEM_IUPAC_SYSTEMATIC_NAME>
(17-ethyl-13-methyl-17-oxidanyl-12,14,15,16-tetrahydro-11H-cyclopenta[a]phenanthren-3-yl) ethanoate
> <PUBCHEM_IUPAC_TRADITIONAL_NAME>
acetic acid (17-ethyl-17-hydroxy-13-methyl-12,14,15,16-tetrahydro-11H-cyclopenta[a]phenanthren-3-yl) ester
> <PUBCHEM_IUPAC_INCHI>
InChI=1S/C22H26O3/c1-4-22(24)12-10-20-19-7-5-15-13-16(25-14(2)23)6-8-17(15)18(19)9-11-21(20,22)3/h5-8,13,20,24H,4,9-12H2,1-3H3
> <PUBCHEM_IUPAC_INCHIKEY>
YQEMHVRYFAVXBT-UHFFFAOYSA-N
> <PUBCHEM_XLOGP3_AA>
4.6
> <PUBCHEM_EXACT_MASS>
338.18819469
> <PUBCHEM_MOLECULAR_FORMULA>
C22H26O3
> <PUBCHEM_MOLECULAR_WEIGHT>
338.4
> <PUBCHEM_OPENEYE_CAN_SMILES>
CCC1(CCC2C1(CCC3=C2C=CC4=C3C=CC(=C4)OC(=O)C)C)O
> <PUBCHEM_OPENEYE_ISO_SMILES>
CCC1(CCC2C1(CCC3=C2C=CC4=C3C=CC(=C4)OC(=O)C)C)O
> <PUBCHEM_CACTVS_TPSA>
46.5
> <PUBCHEM_MONOISOTOPIC_WEIGHT>
338.18819469
> <PUBCHEM_TOTAL_CHARGE>
0
> <PUBCHEM_HEAVY_ATOM_COUNT>
25
> <PUBCHEM_ATOM_DEF_STEREO_COUNT>
0
> <PUBCHEM_ATOM_UDEF_STEREO_COUNT>
3
> <PUBCHEM_BOND_DEF_STEREO_COUNT>
0
> <PUBCHEM_BOND_UDEF_STEREO_COUNT>
0
> <PUBCHEM_ISOTOPIC_ATOM_COUNT>
0
> <PUBCHEM_COMPONENT_COUNT>
1
> <PUBCHEM_CACTVS_TAUTO_COUNT>
-1
> <PUBCHEM_COORDINATE_TYPE>
1
5
255
> <PUBCHEM_BONDANNOTATIONS>
6  1  3
10  14  8
10  15  8
14  17  8
15  19  8
17  18  8
17  20  8
18  19  8
18  21  8
20  22  8
21  23  8
22  23  8
4  11  3
5  7  3
$$$$
