518741
  -OEChem-10302200292D
 40 41  0     1  0  0  0  0  0999 V2000
    6.0010   -0.5000    0.0000 O   0  0  0  0  0  0  0  0  0  0  0  0
    4.2690    0.5000    0.0000 O   0  0  0  0  0  0  0  0  0  0  0  0
    2.5369   -0.5000    0.0000 O   0  0  0  0  0  0  0  0  0  0  0  0
    7.7331    0.5000    0.0000 C   0  0  0  0  0  0  0  0  0  0  0  0
    8.5991    1.0000    0.0000 C   0  0  0  0  0  0  0  0  0  0  0  0
    6.8671    1.0000    0.0000 C   0  0  0  0  0  0  0  0  0  0  0  0
    8.5991    2.0000    0.0000 C   0  0  0  0  0  0  0  0  0  0  0  0
    6.8671    2.0000    0.0000 C   0  0  0  0  0  0  0  0  0  0  0  0
    7.7331    2.5000    0.0000 C   0  0  0  0  0  0  0  0  0  0  0  0
    7.7331   -0.5000    0.0000 C   0  0  0  0  0  0  0  0  0  0  0  0
    6.8671   -1.0000    0.0000 C   0  0  0  0  0  0  0  0  0  0  0  0
    8.5991   -1.0000    0.0000 C   0  0  0  0  0  0  0  0  0  0  0  0
    6.8671   -2.0000    0.0000 C   0  0  0  0  0  0  0  0  0  0  0  0
    8.5991   -2.0000    0.0000 C   0  0  0  0  0  0  0  0  0  0  0  0
    7.7331   -2.5000    0.0000 C   0  0  0  0  0  0  0  0  0  0  0  0
    5.1350   -1.0000    0.0000 C   0  0  0  0  0  0  0  0  0  0  0  0
    4.2690   -0.5000    0.0000 C   0  0  3  0  0  0  0  0  0  0  0  0
    3.4030   -1.0000    0.0000 C   0  0  0  0  0  0  0  0  0  0  0  0
    8.2700    0.1900    0.0000 H   0  0  0  0  0  0  0  0  0  0  0  0
    8.8112    0.4174    0.0000 H   0  0  0  0  0  0  0  0  0  0  0  0
    9.2097    1.1077    0.0000 H   0  0  0  0  0  0  0  0  0  0  0  0
    6.2565    1.1077    0.0000 H   0  0  0  0  0  0  0  0  0  0  0  0
    6.6550    0.4174    0.0000 H   0  0  0  0  0  0  0  0  0  0  0  0
    9.2097    1.8923    0.0000 H   0  0  0  0  0  0  0  0  0  0  0  0
    8.8112    2.5826    0.0000 H   0  0  0  0  0  0  0  0  0  0  0  0
    6.6550    2.5826    0.0000 H   0  0  0  0  0  0  0  0  0  0  0  0
    6.2565    1.8923    0.0000 H   0  0  0  0  0  0  0  0  0  0  0  0
    8.1316    2.9750    0.0000 H   0  0  0  0  0  0  0  0  0  0  0  0
    7.3346    2.9750    0.0000 H   0  0  0  0  0  0  0  0  0  0  0  0
    9.1360   -0.6900    0.0000 H   0  0  0  0  0  0  0  0  0  0  0  0
    6.3301   -2.3100    0.0000 H   0  0  0  0  0  0  0  0  0  0  0  0
    9.1360   -2.3100    0.0000 H   0  0  0  0  0  0  0  0  0  0  0  0
    7.7331   -3.1200    0.0000 H   0  0  0  0  0  0  0  0  0  0  0  0
    4.7365   -1.4750    0.0000 H   0  0  0  0  0  0  0  0  0  0  0  0
    5.5335   -1.4750    0.0000 H   0  0  0  0  0  0  0  0  0  0  0  0
    4.8059   -0.1900    0.0000 H   0  0  0  0  0  0  0  0  0  0  0  0
    3.0044   -1.4750    0.0000 H   0  0  0  0  0  0  0  0  0  0  0  0
    3.8015   -1.4750    0.0000 H   0  0  0  0  0  0  0  0  0  0  0  0
    3.7320    0.8100    0.0000 H   0  0  0  0  0  0  0  0  0  0  0  0
    2.0000   -0.8100    0.0000 H   0  0  0  0  0  0  0  0  0  0  0  0
  1 11  1  0  0  0  0
  1 16  1  0  0  0  0
  2 17  1  0  0  0  0
  2 39  1  0  0  0  0
  3 18  1  0  0  0  0
  3 40  1  0  0  0  0
  4  5  1  0  0  0  0
  4  6  1  0  0  0  0
  4 10  1  0  0  0  0
  4 19  1  0  0  0  0
  5  7  1  0  0  0  0
  5 20  1  0  0  0  0
  5 21  1  0  0  0  0
  6  8  1  0  0  0  0
  6 22  1  0  0  0  0
  6 23  1  0  0  0  0
  7  9  1  0  0  0  0
  7 24  1  0  0  0  0
  7 25  1  0  0  0  0
  8  9  1  0  0  0  0
  8 26  1  0  0  0  0
  8 27  1  0  0  0  0
  9 28  1  0  0  0  0
  9 29  1  0  0  0  0
 10 11  1  0  0  0  0
 10 12  2  0  0  0  0
 11 13  2  0  0  0  0
 12 14  1  0  0  0  0
 12 30  1  0  0  0  0
 13 15  1  0  0  0  0
 13 31  1  0  0  0  0
 14 15  2  0  0  0  0
 14 32  1  0  0  0  0
 15 33  1  0  0  0  0
 16 17  1  0  0  0  0
 16 34  1  0  0  0  0
 16 35  1  0  0  0  0
 17 18  1  0  0  0  0
 17 36  1  0  0  0  0
 18 37  1  0  0  0  0
 18 38  1  0  0  0  0
M  END
> <PUBCHEM_COMPOUND_CID>
518741
> <PUBCHEM_COMPOUND_CANONICALIZED>
1
> <PUBCHEM_CACTVS_COMPLEXITY>
226
> <PUBCHEM_CACTVS_HBOND_ACCEPTOR>
3
> <PUBCHEM_CACTVS_HBOND_DONOR>
2
> <PUBCHEM_CACTVS_ROTATABLE_BOND>
5
> <PUBCHEM_CACTVS_SUBSKEYS>
AAADceBwMAAAAAAAAAAAAAAAAAAAAAAAAAAwYAAAAAAAAAABAAAAGgAACAAADRSgmAIwBoAABgCAAiBCAAACCAAgIAAIiAAGCIgNNiKEMRqCeCClwBELqAeAwOAOgAAAAAAIAAAAAAAAABAAAAAAAAAAAA==
> <PUBCHEM_IUPAC_OPENEYE_NAME>
3-(2-cyclohexylphenoxy)propane-1,2-diol
> <PUBCHEM_IUPAC_CAS_NAME>
3-(2-cyclohexylphenoxy)propane-1,2-diol
> <PUBCHEM_IUPAC_NAME_MARKUP>
3-(2-cyclohexylphenoxy)propane-1,2-diol
> <PUBCHEM_IUPAC_NAME>
3-(2-cyclohexylphenoxy)propane-1,2-diol
> <PUBCHEM_IUPAC_SYSTEMATIC_NAME>
3-(2-cyclohexylphenoxy)propane-1,2-diol
> <PUBCHEM_IUPAC_TRADITIONAL_NAME>
3-(2-cyclohexylphenoxy)propane-1,2-diol
> <PUBCHEM_IUPAC_INCHI>
InChI=1S/C15H22O3/c16-10-13(17)11-18-15-9-5-4-8-14(15)12-6-2-1-3-7-12/h4-5,8-9,12-13,16-17H,1-3,6-7,10-11H2
> <PUBCHEM_IUPAC_INCHIKEY>
GEGQXICLYBLOQI-UHFFFAOYSA-N
> <PUBCHEM_XLOGP3>
3.5
> <PUBCHEM_EXACT_MASS>
250.15689456
> <PUBCHEM_MOLECULAR_FORMULA>
C15H22O3
> <PUBCHEM_MOLECULAR_WEIGHT>
250.33
> <PUBCHEM_OPENEYE_CAN_SMILES>
C1CCC(CC1)C2=CC=CC=C2OCC(CO)O
> <PUBCHEM_OPENEYE_ISO_SMILES>
C1CCC(CC1)C2=CC=CC=C2OCC(CO)O
> <PUBCHEM_CACTVS_TPSA>
49.7
> <PUBCHEM_MONOISOTOPIC_WEIGHT>
250.15689456
> <PUBCHEM_TOTAL_CHARGE>
0
> <PUBCHEM_HEAVY_ATOM_COUNT>
18
> <PUBCHEM_ATOM_DEF_STEREO_COUNT>
0
> <PUBCHEM_ATOM_UDEF_STEREO_COUNT>
1
> <PUBCHEM_BOND_DEF_STEREO_COUNT>
0
> <PUBCHEM_BOND_UDEF_STEREO_COUNT>
0
> <PUBCHEM_ISOTOPIC_ATOM_COUNT>
0
> <PUBCHEM_COMPONENT_COUNT>
1
> <PUBCHEM_CACTVS_TAUTO_COUNT>
-1
> <PUBCHEM_COORDINATE_TYPE>
1
5
255
> <PUBCHEM_BONDANNOTATIONS>
10  11  8
10  12  8
11  13  8
12  14  8
13  15  8
14  15  8
17  2  3
$$$$
