518757
  -OEChem-10302200292D
 55 58  0     1  0  0  0  0  0999 V2000
   10.8148   -0.0589    0.0000 O   0  0  0  0  0  0  0  0  0  0  0  0
    9.2450    0.6731    0.0000 O   0  0  0  0  0  0  0  0  0  0  0  0
    9.3960   -1.0524    0.0000 N   0  0  0  0  0  0  0  0  0  0  0  0
    5.4112   -1.4010    0.0000 N   0  0  0  0  0  0  0  0  0  0  0  0
    4.9886   -2.3073    0.0000 N   0  0  0  0  0  0  0  0  0  0  0  0
   12.6101    1.4394    0.0000 C   0  0  3  0  0  0  0  0  0  0  0  0
   12.8689    2.4053    0.0000 C   0  0  3  0  0  0  0  0  0  0  0  0
   10.8954    1.7871    0.0000 C   0  0  0  0  0  0  0  0  0  0  0  0
   11.2374    0.8474    0.0000 C   0  0  3  0  0  0  0  0  0  0  0  0
   12.1323    3.3879    0.0000 C   0  0  0  0  0  0  0  0  0  0  0  0
   14.0091    0.9306    0.0000 C   0  0  0  0  0  0  0  0  0  0  0  0
   14.2679    1.8965    0.0000 C   0  0  0  0  0  0  0  0  0  0  0  0
   12.3513    0.4735    0.0000 C   0  0  0  0  0  0  0  0  0  0  0  0
   10.4106    2.6617    0.0000 C   0  0  0  0  0  0  0  0  0  0  0  0
    9.9138    1.5963    0.0000 C   0  0  0  0  0  0  0  0  0  0  0  0
    9.8186   -0.1461    0.0000 C   0  0  0  0  0  0  0  0  0  0  0  0
    8.3998   -1.1396    0.0000 C   0  0  0  0  0  0  0  0  0  0  0  0
    7.9772   -2.0458    0.0000 C   0  0  0  0  0  0  0  0  0  0  0  0
    7.8262   -0.3204    0.0000 C   0  0  0  0  0  0  0  0  0  0  0  0
    6.9810   -2.1330    0.0000 C   0  0  0  0  0  0  0  0  0  0  0  0
    6.8300   -0.4076    0.0000 C   0  0  0  0  0  0  0  0  0  0  0  0
    6.4074   -1.3139    0.0000 C   0  0  0  0  0  0  0  0  0  0  0  0
    3.9924   -2.3945    0.0000 C   0  0  0  0  0  0  0  0  0  0  0  0
    3.4188   -1.5753    0.0000 C   0  0  0  0  0  0  0  0  0  0  0  0
    3.5698   -3.3008    0.0000 C   0  0  0  0  0  0  0  0  0  0  0  0
    2.4226   -1.6625    0.0000 C   0  0  0  0  0  0  0  0  0  0  0  0
    2.5736   -3.3879    0.0000 C   0  0  0  0  0  0  0  0  0  0  0  0
    2.0000   -2.5688    0.0000 C   0  0  0  0  0  0  0  0  0  0  0  0
   12.8549    1.7855    0.0000 H   0  0  0  0  0  0  0  0  0  0  0  0
   11.6694    0.4026    0.0000 H   0  0  0  0  0  0  0  0  0  0  0  0
   12.4501    3.9203    0.0000 H   0  0  0  0  0  0  0  0  0  0  0  0
   11.5192    3.4799    0.0000 H   0  0  0  0  0  0  0  0  0  0  0  0
   13.8141    0.3420    0.0000 H   0  0  0  0  0  0  0  0  0  0  0  0
   14.6030    0.7528    0.0000 H   0  0  0  0  0  0  0  0  0  0  0  0
   14.8618    1.7187    0.0000 H   0  0  0  0  0  0  0  0  0  0  0  0
   14.4628    2.4851    0.0000 H   0  0  0  0  0  0  0  0  0  0  0  0
   11.7524    0.6339    0.0000 H   0  0  0  0  0  0  0  0  0  0  0  0
   12.1908   -0.1254    0.0000 H   0  0  0  0  0  0  0  0  0  0  0  0
   12.9502    0.3130    0.0000 H   0  0  0  0  0  0  0  0  0  0  0  0
   10.9528    2.9623    0.0000 H   0  0  0  0  0  0  0  0  0  0  0  0
   10.1100    3.2040    0.0000 H   0  0  0  0  0  0  0  0  0  0  0  0
    9.8683    2.3611    0.0000 H   0  0  0  0  0  0  0  0  0  0  0  0
    9.7955    2.2049    0.0000 H   0  0  0  0  0  0  0  0  0  0  0  0
    9.3052    1.4780    0.0000 H   0  0  0  0  0  0  0  0  0  0  0  0
   10.0321    0.9877    0.0000 H   0  0  0  0  0  0  0  0  0  0  0  0
    9.7516   -1.5603    0.0000 H   0  0  0  0  0  0  0  0  0  0  0  0
    8.3328   -2.5537    0.0000 H   0  0  0  0  0  0  0  0  0  0  0  0
    8.0882    0.2415    0.0000 H   0  0  0  0  0  0  0  0  0  0  0  0
    6.7190   -2.6949    0.0000 H   0  0  0  0  0  0  0  0  0  0  0  0
    6.4744    0.1003    0.0000 H   0  0  0  0  0  0  0  0  0  0  0  0
    3.6808   -1.0134    0.0000 H   0  0  0  0  0  0  0  0  0  0  0  0
    3.9254   -3.8087    0.0000 H   0  0  0  0  0  0  0  0  0  0  0  0
    2.0670   -1.1546    0.0000 H   0  0  0  0  0  0  0  0  0  0  0  0
    2.3116   -3.9498    0.0000 H   0  0  0  0  0  0  0  0  0  0  0  0
    1.3824   -2.6228    0.0000 H   0  0  0  0  0  0  0  0  0  0  0  0
  1  9  1  0  0  0  0
  1 16  1  0  0  0  0
  2 16  2  0  0  0  0
  3 16  1  0  0  0  0
  3 17  1  0  0  0  0
  3 46  1  0  0  0  0
  4  5  2  0  0  0  0
  4 22  1  0  0  0  0
  5 23  1  0  0  0  0
  6  9  1  0  0  0  0
  6 10  1  0  0  0  0
  6 11  1  0  0  0  0
  6 13  1  0  0  0  0
  7  8  1  0  0  0  0
  7 10  1  0  0  0  0
  7 12  1  0  0  0  0
  7 29  1  0  0  0  0
  8  9  1  0  0  0  0
  8 14  1  0  0  0  0
  8 15  1  0  0  0  0
  9 30  1  0  0  0  0
 10 31  1  0  0  0  0
 10 32  1  0  0  0  0
 11 12  1  0  0  0  0
 11 33  1  0  0  0  0
 11 34  1  0  0  0  0
 12 35  1  0  0  0  0
 12 36  1  0  0  0  0
 13 37  1  0  0  0  0
 13 38  1  0  0  0  0
 13 39  1  0  0  0  0
 14 40  1  0  0  0  0
 14 41  1  0  0  0  0
 14 42  1  0  0  0  0
 15 43  1  0  0  0  0
 15 44  1  0  0  0  0
 15 45  1  0  0  0  0
 17 18  2  0  0  0  0
 17 19  1  0  0  0  0
 18 20  1  0  0  0  0
 18 47  1  0  0  0  0
 19 21  2  0  0  0  0
 19 48  1  0  0  0  0
 20 22  2  0  0  0  0
 20 49  1  0  0  0  0
 21 22  1  0  0  0  0
 21 50  1  0  0  0  0
 23 24  2  0  0  0  0
 23 25  1  0  0  0  0
 24 26  1  0  0  0  0
 24 51  1  0  0  0  0
 25 27  2  0  0  0  0
 25 52  1  0  0  0  0
 26 28  2  0  0  0  0
 26 53  1  0  0  0  0
 27 28  1  0  0  0  0
 27 54  1  0  0  0  0
 28 55  1  0  0  0  0
M  END
> <PUBCHEM_COMPOUND_CID>
518757
> <PUBCHEM_COMPOUND_CANONICALIZED>
1
> <PUBCHEM_CACTVS_COMPLEXITY>
591
> <PUBCHEM_CACTVS_HBOND_ACCEPTOR>
4
> <PUBCHEM_CACTVS_HBOND_DONOR>
1
> <PUBCHEM_CACTVS_ROTATABLE_BOND>
5
> <PUBCHEM_CACTVS_SUBSKEYS>
AAADceB7MAAAAAAAAAAAAAAAAAAAAYMAAAAwYMAAAAAAAAABQAAAHgAYAAAADxyhkAIyyILABACKACRCWACCAAAhAgAIiAAAZIkIICLAkZGMIAhklABIyAeQwPAPgACAAAAAAACAAQYAADAAAYAADAAAAA==
> <PUBCHEM_IUPAC_OPENEYE_NAME>
(1,3,3-trimethylnorbornan-2-yl) N-(4-phenylazophenyl)carbamate
> <PUBCHEM_IUPAC_CAS_NAME>
N-(4-phenyldiazenylphenyl)carbamic acid (1,3,3-trimethyl-2-bicyclo[2.2.1]heptanyl) ester
> <PUBCHEM_IUPAC_NAME_MARKUP>
(1,3,3-trimethyl-2-bicyclo[2.2.1]heptanyl) <I>N</I>-(4-phenyldiazenylphenyl)carbamate
> <PUBCHEM_IUPAC_NAME>
(1,3,3-trimethyl-2-bicyclo[2.2.1]heptanyl) N-(4-phenyldiazenylphenyl)carbamate
> <PUBCHEM_IUPAC_SYSTEMATIC_NAME>
(1,3,3-trimethyl-2-bicyclo[2.2.1]heptanyl) N-(4-phenyldiazenylphenyl)carbamate
> <PUBCHEM_IUPAC_TRADITIONAL_NAME>
N-(4-phenylazophenyl)carbamic acid (1,3,3-trimethylnorbornan-2-yl) ester
> <PUBCHEM_IUPAC_INCHI>
InChI=1S/C23H27N3O2/c1-22(2)16-13-14-23(3,15-16)20(22)28-21(27)24-17-9-11-19(12-10-17)26-25-18-7-5-4-6-8-18/h4-12,16,20H,13-15H2,1-3H3,(H,24,27)
> <PUBCHEM_IUPAC_INCHIKEY>
XGYMCAYACKAZLC-UHFFFAOYSA-N
> <PUBCHEM_XLOGP3_AA>
6.2
> <PUBCHEM_EXACT_MASS>
377.21032711
> <PUBCHEM_MOLECULAR_FORMULA>
C23H27N3O2
> <PUBCHEM_MOLECULAR_WEIGHT>
377.5
> <PUBCHEM_OPENEYE_CAN_SMILES>
CC1(C2CCC(C2)(C1OC(=O)NC3=CC=C(C=C3)N=NC4=CC=CC=C4)C)C
> <PUBCHEM_OPENEYE_ISO_SMILES>
CC1(C2CCC(C2)(C1OC(=O)NC3=CC=C(C=C3)N=NC4=CC=CC=C4)C)C
> <PUBCHEM_CACTVS_TPSA>
63
> <PUBCHEM_MONOISOTOPIC_WEIGHT>
377.21032711
> <PUBCHEM_TOTAL_CHARGE>
0
> <PUBCHEM_HEAVY_ATOM_COUNT>
28
> <PUBCHEM_ATOM_DEF_STEREO_COUNT>
0
> <PUBCHEM_ATOM_UDEF_STEREO_COUNT>
3
> <PUBCHEM_BOND_DEF_STEREO_COUNT>
0
> <PUBCHEM_BOND_UDEF_STEREO_COUNT>
0
> <PUBCHEM_ISOTOPIC_ATOM_COUNT>
0
> <PUBCHEM_COMPONENT_COUNT>
1
> <PUBCHEM_CACTVS_TAUTO_COUNT>
-1
> <PUBCHEM_COORDINATE_TYPE>
1
5
255
> <PUBCHEM_BONDANNOTATIONS>
9  1  3
17  18  8
17  19  8
18  20  8
19  21  8
20  22  8
21  22  8
23  24  8
23  25  8
24  26  8
25  27  8
26  28  8
27  28  8
6  13  3
7  12  3
$$$$
