518754
  -OEChem-10302200292D
 38 37  0     1  0  0  0  0  0999 V2000
   10.6603   -1.1900    0.0000 S   0  0  0  0  0  0  0  0  0  0  0  0
   11.5263    0.3100    0.0000 O   0  0  0  0  0  0  0  0  0  0  0  0
   10.6603    1.8100    0.0000 O   0  0  0  0  0  0  0  0  0  0  0  0
    8.9282    0.8100    0.0000 N   0  0  0  0  0  0  0  0  0  0  0  0
    6.3301    0.3100    0.0000 C   0  0  0  0  0  0  0  0  0  0  0  0
    5.4641    0.8100    0.0000 C   0  0  0  0  0  0  0  0  0  0  0  0
    7.1962    0.8100    0.0000 C   0  0  0  0  0  0  0  0  0  0  0  0
    4.5981    0.3100    0.0000 C   0  0  0  0  0  0  0  0  0  0  0  0
    8.0622    0.3100    0.0000 C   0  0  0  0  0  0  0  0  0  0  0  0
    3.7320    0.8100    0.0000 C   0  0  0  0  0  0  0  0  0  0  0  0
    2.8660    0.3100    0.0000 C   0  0  0  0  0  0  0  0  0  0  0  0
    9.7942    0.3100    0.0000 C   0  0  3  0  0  0  0  0  0  0  0  0
    9.7942   -0.6900    0.0000 C   0  0  0  0  0  0  0  0  0  0  0  0
    2.0000    0.8100    0.0000 C   0  0  0  0  0  0  0  0  0  0  0  0
   10.6603    0.8100    0.0000 C   0  0  0  0  0  0  0  0  0  0  0  0
    5.9316   -0.1649    0.0000 H   0  0  0  0  0  0  0  0  0  0  0  0
    6.7287   -0.1649    0.0000 H   0  0  0  0  0  0  0  0  0  0  0  0
    5.8626    1.2850    0.0000 H   0  0  0  0  0  0  0  0  0  0  0  0
    5.0656    1.2850    0.0000 H   0  0  0  0  0  0  0  0  0  0  0  0
    7.5947    1.2850    0.0000 H   0  0  0  0  0  0  0  0  0  0  0  0
    6.7976    1.2850    0.0000 H   0  0  0  0  0  0  0  0  0  0  0  0
    4.1996   -0.1649    0.0000 H   0  0  0  0  0  0  0  0  0  0  0  0
    4.9966   -0.1649    0.0000 H   0  0  0  0  0  0  0  0  0  0  0  0
    7.6636   -0.1649    0.0000 H   0  0  0  0  0  0  0  0  0  0  0  0
    8.4607   -0.1649    0.0000 H   0  0  0  0  0  0  0  0  0  0  0  0
    4.1306    1.2850    0.0000 H   0  0  0  0  0  0  0  0  0  0  0  0
    3.3335    1.2850    0.0000 H   0  0  0  0  0  0  0  0  0  0  0  0
    2.4675   -0.1649    0.0000 H   0  0  0  0  0  0  0  0  0  0  0  0
    3.2646   -0.1649    0.0000 H   0  0  0  0  0  0  0  0  0  0  0  0
    8.9282    1.4300    0.0000 H   0  0  0  0  0  0  0  0  0  0  0  0
    9.2573    0.0000    0.0000 H   0  0  0  0  0  0  0  0  0  0  0  0
    9.1836   -0.5823    0.0000 H   0  0  0  0  0  0  0  0  0  0  0  0
    9.5822   -1.2726    0.0000 H   0  0  0  0  0  0  0  0  0  0  0  0
    2.3100    1.3469    0.0000 H   0  0  0  0  0  0  0  0  0  0  0  0
    1.4631    1.1200    0.0000 H   0  0  0  0  0  0  0  0  0  0  0  0
    1.6900    0.2731    0.0000 H   0  0  0  0  0  0  0  0  0  0  0  0
   10.6603   -1.8100    0.0000 H   0  0  0  0  0  0  0  0  0  0  0  0
   12.0632    0.6200    0.0000 H   0  0  0  0  0  0  0  0  0  0  0  0
  1 13  1  0  0  0  0
  1 37  1  0  0  0  0
  2 15  1  0  0  0  0
  2 38  1  0  0  0  0
  3 15  2  0  0  0  0
  4  9  1  0  0  0  0
  4 12  1  0  0  0  0
  4 30  1  0  0  0  0
  5  6  1  0  0  0  0
  5  7  1  0  0  0  0
  5 16  1  0  0  0  0
  5 17  1  0  0  0  0
  6  8  1  0  0  0  0
  6 18  1  0  0  0  0
  6 19  1  0  0  0  0
  7  9  1  0  0  0  0
  7 20  1  0  0  0  0
  7 21  1  0  0  0  0
  8 10  1  0  0  0  0
  8 22  1  0  0  0  0
  8 23  1  0  0  0  0
  9 24  1  0  0  0  0
  9 25  1  0  0  0  0
 10 11  1  0  0  0  0
 10 26  1  0  0  0  0
 10 27  1  0  0  0  0
 11 14  1  0  0  0  0
 11 28  1  0  0  0  0
 11 29  1  0  0  0  0
 12 13  1  0  0  0  0
 12 15  1  0  0  0  0
 12 31  1  0  0  0  0
 13 32  1  0  0  0  0
 13 33  1  0  0  0  0
 14 34  1  0  0  0  0
 14 35  1  0  0  0  0
 14 36  1  0  0  0  0
M  END
> <PUBCHEM_COMPOUND_CID>
518754
> <PUBCHEM_COMPOUND_CANONICALIZED>
1
> <PUBCHEM_CACTVS_COMPLEXITY>
165
> <PUBCHEM_CACTVS_HBOND_ACCEPTOR>
4
> <PUBCHEM_CACTVS_HBOND_DONOR>
3
> <PUBCHEM_CACTVS_ROTATABLE_BOND>
10
> <PUBCHEM_CACTVS_SUBSKEYS>
AAADceByMABAAAAAAAAAAAAAAAAAAAAAAAAAAAAAAAAAAAAAAAAAHgQQCAAACCjFwASCCALAAgQIAACQCAAAAAAAAAAAAIGIAAACAAIAgCAEQAAAEACQAAEQgIAAAAAAAAAAAAAAAAAAAAAAAAAAAAAAAA==
> <PUBCHEM_IUPAC_OPENEYE_NAME>
2-(octylamino)-3-sulfanyl-propanoic acid
> <PUBCHEM_IUPAC_CAS_NAME>
3-mercapto-2-(octylamino)propanoic acid
> <PUBCHEM_IUPAC_NAME_MARKUP>
2-(octylamino)-3-sulfanylpropanoic acid
> <PUBCHEM_IUPAC_NAME>
2-(octylamino)-3-sulfanylpropanoic acid
> <PUBCHEM_IUPAC_SYSTEMATIC_NAME>
2-(octylamino)-3-sulfanyl-propanoic acid
> <PUBCHEM_IUPAC_TRADITIONAL_NAME>
3-mercapto-2-(octylamino)propionic acid
> <PUBCHEM_IUPAC_INCHI>
InChI=1S/C11H23NO2S/c1-2-3-4-5-6-7-8-12-10(9-15)11(13)14/h10,12,15H,2-9H2,1H3,(H,13,14)
> <PUBCHEM_IUPAC_INCHIKEY>
ODUXJJSEHOSSRB-UHFFFAOYSA-N
> <PUBCHEM_XLOGP3_AA>
0.9
> <PUBCHEM_EXACT_MASS>
233.14495015
> <PUBCHEM_MOLECULAR_FORMULA>
C11H23NO2S
> <PUBCHEM_MOLECULAR_WEIGHT>
233.37
> <PUBCHEM_OPENEYE_CAN_SMILES>
CCCCCCCCNC(CS)C(=O)O
> <PUBCHEM_OPENEYE_ISO_SMILES>
CCCCCCCCNC(CS)C(=O)O
> <PUBCHEM_CACTVS_TPSA>
50.3
> <PUBCHEM_MONOISOTOPIC_WEIGHT>
233.14495015
> <PUBCHEM_TOTAL_CHARGE>
0
> <PUBCHEM_HEAVY_ATOM_COUNT>
15
> <PUBCHEM_ATOM_DEF_STEREO_COUNT>
0
> <PUBCHEM_ATOM_UDEF_STEREO_COUNT>
1
> <PUBCHEM_BOND_DEF_STEREO_COUNT>
0
> <PUBCHEM_BOND_UDEF_STEREO_COUNT>
0
> <PUBCHEM_ISOTOPIC_ATOM_COUNT>
0
> <PUBCHEM_COMPONENT_COUNT>
1
> <PUBCHEM_CACTVS_TAUTO_COUNT>
-1
> <PUBCHEM_COORDINATE_TYPE>
1
5
255
> <PUBCHEM_BONDANNOTATIONS>
12  13  3
$$$$
