518737
  -OEChem-10302200292D
 42 40  0     1  0  0  0  0  0999 V2000
    5.6661    0.0000    0.0000 Cl  0  0  0  0  0  0  0  0  0  0  0  0
    8.3312    3.8100    0.0000 O   0  0  0  0  0  0  0  0  0  0  0  0
    4.0010    4.3100    0.0000 O   0  0  0  0  0  0  0  0  0  0  0  0
    7.4651    5.3100    0.0000 O   0  0  0  0  0  0  0  0  0  0  0  0
    4.8671    2.8100    0.0000 O   0  0  0  0  0  0  0  0  0  0  0  0
    6.5991    2.8100    0.0000 N   0  0  0  0  0  0  0  0  0  0  0  0
    6.5991    3.8100    0.0000 C   0  0  3  0  0  0  0  0  0  0  0  0
    5.7331    4.3100    0.0000 C   0  0  0  0  0  0  0  0  0  0  0  0
   10.0632    3.8100    0.0000 C   0  0  0  0  0  0  0  0  0  0  0  0
    2.2690    4.3100    0.0000 C   0  0  0  0  0  0  0  0  0  0  0  0
    9.1972    4.3100    0.0000 C   0  0  0  0  0  0  0  0  0  0  0  0
   10.9292    4.3100    0.0000 C   0  0  0  0  0  0  0  0  0  0  0  0
    3.1350    3.8100    0.0000 C   0  0  0  0  0  0  0  0  0  0  0  0
    1.4030    3.8100    0.0000 C   0  0  0  0  0  0  0  0  0  0  0  0
    7.4651    4.3100    0.0000 C   0  0  0  0  0  0  0  0  0  0  0  0
    4.8671    3.8100    0.0000 C   0  0  0  0  0  0  0  0  0  0  0  0
   11.7953    3.8100    0.0000 C   0  0  0  0  0  0  0  0  0  0  0  0
    0.5369    4.3100    0.0000 C   0  0  0  0  0  0  0  0  0  0  0  0
    6.0622    3.5000    0.0000 H   0  0  0  0  0  0  0  0  0  0  0  0
    6.1316    4.7850    0.0000 H   0  0  0  0  0  0  0  0  0  0  0  0
    5.3346    4.7850    0.0000 H   0  0  0  0  0  0  0  0  0  0  0  0
    9.6647    3.3350    0.0000 H   0  0  0  0  0  0  0  0  0  0  0  0
   10.4617    3.3350    0.0000 H   0  0  0  0  0  0  0  0  0  0  0  0
    2.6675    4.7850    0.0000 H   0  0  0  0  0  0  0  0  0  0  0  0
    1.8705    4.7850    0.0000 H   0  0  0  0  0  0  0  0  0  0  0  0
    9.5957    4.7850    0.0000 H   0  0  0  0  0  0  0  0  0  0  0  0
    8.7987    4.7850    0.0000 H   0  0  0  0  0  0  0  0  0  0  0  0
   11.3278    4.7850    0.0000 H   0  0  0  0  0  0  0  0  0  0  0  0
   10.5307    4.7850    0.0000 H   0  0  0  0  0  0  0  0  0  0  0  0
    2.7365    3.3350    0.0000 H   0  0  0  0  0  0  0  0  0  0  0  0
    3.5335    3.3350    0.0000 H   0  0  0  0  0  0  0  0  0  0  0  0
    1.0044    3.3350    0.0000 H   0  0  0  0  0  0  0  0  0  0  0  0
    1.8015    3.3350    0.0000 H   0  0  0  0  0  0  0  0  0  0  0  0
   11.4853    3.2731    0.0000 H   0  0  0  0  0  0  0  0  0  0  0  0
   12.3322    3.5000    0.0000 H   0  0  0  0  0  0  0  0  0  0  0  0
   12.1053    4.3469    0.0000 H   0  0  0  0  0  0  0  0  0  0  0  0
    6.0622    2.5000    0.0000 H   0  0  0  0  0  0  0  0  0  0  0  0
    7.1360    2.5000    0.0000 H   0  0  0  0  0  0  0  0  0  0  0  0
    0.8469    4.8469    0.0000 H   0  0  0  0  0  0  0  0  0  0  0  0
    0.0000    4.6200    0.0000 H   0  0  0  0  0  0  0  0  0  0  0  0
    0.2269    3.7731    0.0000 H   0  0  0  0  0  0  0  0  0  0  0  0
    6.6661    0.0000    0.0000 H   0  0  0  0  0  0  0  0  0  0  0  0
  1 42  1  0  0  0  0
  2 11  1  0  0  0  0
  2 15  1  0  0  0  0
  3 13  1  0  0  0  0
  3 16  1  0  0  0  0
  4 15  2  0  0  0  0
  5 16  2  0  0  0  0
  6  7  1  0  0  0  0
  6 37  1  0  0  0  0
  6 38  1  0  0  0  0
  7  8  1  0  0  0  0
  7 15  1  0  0  0  0
  7 19  1  0  0  0  0
  8 16  1  0  0  0  0
  8 20  1  0  0  0  0
  8 21  1  0  0  0  0
  9 11  1  0  0  0  0
  9 12  1  0  0  0  0
  9 22  1  0  0  0  0
  9 23  1  0  0  0  0
 10 13  1  0  0  0  0
 10 14  1  0  0  0  0
 10 24  1  0  0  0  0
 10 25  1  0  0  0  0
 11 26  1  0  0  0  0
 11 27  1  0  0  0  0
 12 17  1  0  0  0  0
 12 28  1  0  0  0  0
 12 29  1  0  0  0  0
 13 30  1  0  0  0  0
 13 31  1  0  0  0  0
 14 18  1  0  0  0  0
 14 32  1  0  0  0  0
 14 33  1  0  0  0  0
 17 34  1  0  0  0  0
 17 35  1  0  0  0  0
 17 36  1  0  0  0  0
 18 39  1  0  0  0  0
 18 40  1  0  0  0  0
 18 41  1  0  0  0  0
M  END
> <PUBCHEM_COMPOUND_CID>
518737
> <PUBCHEM_COMPOUND_CANONICALIZED>
1
> <PUBCHEM_CACTVS_COMPLEXITY>
231
> <PUBCHEM_CACTVS_HBOND_ACCEPTOR>
5
> <PUBCHEM_CACTVS_HBOND_DONOR>
2
> <PUBCHEM_CACTVS_ROTATABLE_BOND>
11
> <PUBCHEM_CACTVS_SUBSKEYS>
AAADceByOAAEAAAAAAAAAAAAAAAAAAAAAAAAAAAAAAAAAAAAAAAAHgAQAAAACCjhgAYCCABABAAIAACQCAAAAAAAAAAAAIGAAAACABgAAAADAAAGEAAAAABDAAAAAAAAAAAAAAAAAAAAAAAAAAAAAAAAAA==
> <PUBCHEM_IUPAC_OPENEYE_NAME>
dibutyl 2-aminobutanedioate;hydrochloride
> <PUBCHEM_IUPAC_CAS_NAME>
2-aminobutanedioic acid dibutyl ester;hydrochloride
> <PUBCHEM_IUPAC_NAME_MARKUP>
dibutyl 2-aminobutanedioate;hydrochloride
> <PUBCHEM_IUPAC_NAME>
dibutyl 2-aminobutanedioate;hydrochloride
> <PUBCHEM_IUPAC_SYSTEMATIC_NAME>
dibutyl 2-azanylbutanedioate;hydrochloride
> <PUBCHEM_IUPAC_TRADITIONAL_NAME>
2-aminosuccinic acid dibutyl ester;hydrochloride
> <PUBCHEM_IUPAC_INCHI>
InChI=1S/C12H23NO4.ClH/c1-3-5-7-16-11(14)9-10(13)12(15)17-8-6-4-2;/h10H,3-9,13H2,1-2H3;1H
> <PUBCHEM_IUPAC_INCHIKEY>
CJSMIUYSKUOBAZ-UHFFFAOYSA-N
> <PUBCHEM_EXACT_MASS>
281.1393859
> <PUBCHEM_MOLECULAR_FORMULA>
C12H24ClNO4
> <PUBCHEM_MOLECULAR_WEIGHT>
281.77
> <PUBCHEM_OPENEYE_CAN_SMILES>
CCCCOC(=O)CC(C(=O)OCCCC)N.Cl
> <PUBCHEM_OPENEYE_ISO_SMILES>
CCCCOC(=O)CC(C(=O)OCCCC)N.Cl
> <PUBCHEM_CACTVS_TPSA>
78.6
> <PUBCHEM_MONOISOTOPIC_WEIGHT>
281.1393859
> <PUBCHEM_TOTAL_CHARGE>
0
> <PUBCHEM_HEAVY_ATOM_COUNT>
18
> <PUBCHEM_ATOM_DEF_STEREO_COUNT>
0
> <PUBCHEM_ATOM_UDEF_STEREO_COUNT>
1
> <PUBCHEM_BOND_DEF_STEREO_COUNT>
0
> <PUBCHEM_BOND_UDEF_STEREO_COUNT>
0
> <PUBCHEM_ISOTOPIC_ATOM_COUNT>
0
> <PUBCHEM_COMPONENT_COUNT>
2
> <PUBCHEM_CACTVS_TAUTO_COUNT>
-1
> <PUBCHEM_COORDINATE_TYPE>
1
5
255
> <PUBCHEM_BONDANNOTATIONS>
7  6  3
$$$$
