518835
  -OEChem-10302200292D
 27 26  0     1  0  0  0  0  0999 V2000
    5.2320   -0.3060    0.0000 S   0  0  0  0  0  0  0  0  0  0  0  0
    6.0981    0.1940    0.0000 S   0  0  0  0  0  0  0  0  0  0  0  0
    6.9641    0.6940    0.0000 O   0  0  0  0  0  0  0  0  0  0  0  0
    6.5981   -0.6721    0.0000 O   0  0  0  0  0  0  0  0  0  0  0  0
    5.5981    1.0600    0.0000 O   0  0  0  0  0  0  0  0  0  0  0  0
    2.6340   -0.8060    0.0000 N   0  0  0  0  0  0  0  0  0  0  0  0
    3.5000   -0.3060    0.0000 C   0  0  3  0  0  0  0  0  0  0  0  0
    3.0000    0.5600    0.0000 C   0  0  0  0  0  0  0  0  0  0  0  0
    4.3660    0.1940    0.0000 C   0  0  0  0  0  0  0  0  0  0  0  0
    4.0000   -1.1720    0.0000 C   0  0  0  0  0  0  0  0  0  0  0  0
    3.5000    1.4260    0.0000 C   0  0  0  0  0  0  0  0  0  0  0  0
    2.0000    0.5600    0.0000 C   0  0  0  0  0  0  0  0  0  0  0  0
    3.6200    0.5600    0.0000 H   0  0  0  0  0  0  0  0  0  0  0  0
    4.7646    0.6689    0.0000 H   0  0  0  0  0  0  0  0  0  0  0  0
    3.9675    0.6689    0.0000 H   0  0  0  0  0  0  0  0  0  0  0  0
    3.4631   -1.4820    0.0000 H   0  0  0  0  0  0  0  0  0  0  0  0
    4.3100   -1.7090    0.0000 H   0  0  0  0  0  0  0  0  0  0  0  0
    4.5369   -0.8621    0.0000 H   0  0  0  0  0  0  0  0  0  0  0  0
    4.0369    1.1160    0.0000 H   0  0  0  0  0  0  0  0  0  0  0  0
    3.8100    1.9630    0.0000 H   0  0  0  0  0  0  0  0  0  0  0  0
    2.9631    1.7360    0.0000 H   0  0  0  0  0  0  0  0  0  0  0  0
    2.0000    1.1800    0.0000 H   0  0  0  0  0  0  0  0  0  0  0  0
    1.3800    0.5600    0.0000 H   0  0  0  0  0  0  0  0  0  0  0  0
    2.0000   -0.0600    0.0000 H   0  0  0  0  0  0  0  0  0  0  0  0
    2.0970   -0.4960    0.0000 H   0  0  0  0  0  0  0  0  0  0  0  0
    2.6340   -1.4260    0.0000 H   0  0  0  0  0  0  0  0  0  0  0  0
    7.5010    0.3840    0.0000 H   0  0  0  0  0  0  0  0  0  0  0  0
  1  2  1  0  0  0  0
  1  9  1  0  0  0  0
  2  3  1  0  0  0  0
  2  4  2  0  0  0  0
  2  5  2  0  0  0  0
  3 27  1  0  0  0  0
  6  7  1  0  0  0  0
  6 25  1  0  0  0  0
  6 26  1  0  0  0  0
  7  8  1  0  0  0  0
  7  9  1  0  0  0  0
  7 10  1  0  0  0  0
  8 11  1  0  0  0  0
  8 12  1  0  0  0  0
  8 13  1  0  0  0  0
  9 14  1  0  0  0  0
  9 15  1  0  0  0  0
 10 16  1  0  0  0  0
 10 17  1  0  0  0  0
 10 18  1  0  0  0  0
 11 19  1  0  0  0  0
 11 20  1  0  0  0  0
 11 21  1  0  0  0  0
 12 22  1  0  0  0  0
 12 23  1  0  0  0  0
 12 24  1  0  0  0  0
M  END
> <PUBCHEM_COMPOUND_CID>
518835
> <PUBCHEM_COMPOUND_CANONICALIZED>
1
> <PUBCHEM_CACTVS_COMPLEXITY>
232
> <PUBCHEM_CACTVS_HBOND_ACCEPTOR>
5
> <PUBCHEM_CACTVS_HBOND_DONOR>
2
> <PUBCHEM_CACTVS_ROTATABLE_BOND>
4
> <PUBCHEM_CACTVS_SUBSKEYS>
AAADccBiMABgAAAAAAAAAAAAAAAAAAAAAAAAAAAAAAAAAAAAAAAAHAQQCAAADYiFQACCAABAAIAAAAAAADAAAAAAAAAAAAAAAAAAAAAAAAAAAAAAEAAAAAAAAAAIgAAAAAAAAAAAAAAAAAAAAAAAAAAAAA==
> <PUBCHEM_IUPAC_OPENEYE_NAME>
2-amino-2,3-dimethyl-1-sulfosulfanyl-butane
> <PUBCHEM_IUPAC_CAS_NAME>
2-amino-2,3-dimethyl-1-(sulfothio)butane
> <PUBCHEM_IUPAC_NAME_MARKUP>
2-amino-2,3-dimethyl-1-sulfosulfanylbutane
> <PUBCHEM_IUPAC_NAME>
2-amino-2,3-dimethyl-1-sulfosulfanylbutane
> <PUBCHEM_IUPAC_SYSTEMATIC_NAME>
2-azanyl-2,3-dimethyl-1-sulfosulfanyl-butane
> <PUBCHEM_IUPAC_TRADITIONAL_NAME>
2-amino-2,3-dimethyl-1-(sulfothio)butane
> <PUBCHEM_IUPAC_INCHI>
InChI=1S/C6H15NO3S2/c1-5(2)6(3,7)4-11-12(8,9)10/h5H,4,7H2,1-3H3,(H,8,9,10)
> <PUBCHEM_IUPAC_INCHIKEY>
DCHHOPWXFOJUML-UHFFFAOYSA-N
> <PUBCHEM_XLOGP3_AA>
-2.1
> <PUBCHEM_EXACT_MASS>
213.04933569
> <PUBCHEM_MOLECULAR_FORMULA>
C6H15NO3S2
> <PUBCHEM_MOLECULAR_WEIGHT>
213.3
> <PUBCHEM_OPENEYE_CAN_SMILES>
CC(C)C(C)(CSS(=O)(=O)O)N
> <PUBCHEM_OPENEYE_ISO_SMILES>
CC(C)C(C)(CSS(=O)(=O)O)N
> <PUBCHEM_CACTVS_TPSA>
114
> <PUBCHEM_MONOISOTOPIC_WEIGHT>
213.04933569
> <PUBCHEM_TOTAL_CHARGE>
0
> <PUBCHEM_HEAVY_ATOM_COUNT>
12
> <PUBCHEM_ATOM_DEF_STEREO_COUNT>
0
> <PUBCHEM_ATOM_UDEF_STEREO_COUNT>
1
> <PUBCHEM_BOND_DEF_STEREO_COUNT>
0
> <PUBCHEM_BOND_UDEF_STEREO_COUNT>
0
> <PUBCHEM_ISOTOPIC_ATOM_COUNT>
0
> <PUBCHEM_COMPONENT_COUNT>
1
> <PUBCHEM_CACTVS_TAUTO_COUNT>
-1
> <PUBCHEM_COORDINATE_TYPE>
1
5
255
> <PUBCHEM_BONDANNOTATIONS>
7  6  3
$$$$
