518995
  -OEChem-10302200292D
 43 43  0     1  0  0  0  0  0999 V2000
    2.5369    1.0000    0.0000 O   0  0  0  0  0  0  0  0  0  0  0  0
    4.2690    1.0000    0.0000 C   0  0  3  0  0  0  0  0  0  0  0  0
    4.2690   -1.0000    0.0000 C   0  0  3  0  0  0  0  0  0  0  0  0
    3.4030    0.5000    0.0000 C   0  0  3  0  0  0  0  0  0  0  0  0
    3.4030   -0.5000    0.0000 C   0  0  0  0  0  0  0  0  0  0  0  0
    5.1350    0.5000    0.0000 C   0  0  0  0  0  0  0  0  0  0  0  0
    5.1350   -0.5000    0.0000 C   0  0  0  0  0  0  0  0  0  0  0  0
    4.2690    2.0000    0.0000 C   0  0  0  0  0  0  0  0  0  0  0  0
    4.2690   -2.0000    0.0000 C   0  0  0  0  0  0  0  0  0  0  0  0
    4.2690    3.0000    0.0000 C   0  0  0  0  0  0  0  0  0  0  0  0
    5.2690    2.0000    0.0000 C   0  0  0  0  0  0  0  0  0  0  0  0
    3.2690    2.0000    0.0000 C   0  0  0  0  0  0  0  0  0  0  0  0
    4.2690   -3.0000    0.0000 C   0  0  0  0  0  0  0  0  0  0  0  0
    5.2690   -2.0000    0.0000 C   0  0  0  0  0  0  0  0  0  0  0  0
    3.2690   -2.0000    0.0000 C   0  0  0  0  0  0  0  0  0  0  0  0
    4.8059    1.3100    0.0000 H   0  0  0  0  0  0  0  0  0  0  0  0
    4.8059   -1.3100    0.0000 H   0  0  0  0  0  0  0  0  0  0  0  0
    3.4030    1.1200    0.0000 H   0  0  0  0  0  0  0  0  0  0  0  0
    2.7924   -0.3923    0.0000 H   0  0  0  0  0  0  0  0  0  0  0  0
    3.1909   -1.0826    0.0000 H   0  0  0  0  0  0  0  0  0  0  0  0
    5.7456    0.3923    0.0000 H   0  0  0  0  0  0  0  0  0  0  0  0
    5.3471    1.0826    0.0000 H   0  0  0  0  0  0  0  0  0  0  0  0
    5.3471   -1.0826    0.0000 H   0  0  0  0  0  0  0  0  0  0  0  0
    5.7456   -0.3923    0.0000 H   0  0  0  0  0  0  0  0  0  0  0  0
    4.8890    3.0000    0.0000 H   0  0  0  0  0  0  0  0  0  0  0  0
    4.2690    3.6200    0.0000 H   0  0  0  0  0  0  0  0  0  0  0  0
    3.6490    3.0000    0.0000 H   0  0  0  0  0  0  0  0  0  0  0  0
    5.2690    1.3800    0.0000 H   0  0  0  0  0  0  0  0  0  0  0  0
    5.8890    2.0000    0.0000 H   0  0  0  0  0  0  0  0  0  0  0  0
    5.2690    2.6200    0.0000 H   0  0  0  0  0  0  0  0  0  0  0  0
    3.2690    2.6200    0.0000 H   0  0  0  0  0  0  0  0  0  0  0  0
    2.6490    2.0000    0.0000 H   0  0  0  0  0  0  0  0  0  0  0  0
    3.2690    1.3800    0.0000 H   0  0  0  0  0  0  0  0  0  0  0  0
    3.6490   -3.0000    0.0000 H   0  0  0  0  0  0  0  0  0  0  0  0
    4.2690   -3.6200    0.0000 H   0  0  0  0  0  0  0  0  0  0  0  0
    4.8890   -3.0000    0.0000 H   0  0  0  0  0  0  0  0  0  0  0  0
    5.2690   -2.6200    0.0000 H   0  0  0  0  0  0  0  0  0  0  0  0
    5.8890   -2.0000    0.0000 H   0  0  0  0  0  0  0  0  0  0  0  0
    5.2690   -1.3800    0.0000 H   0  0  0  0  0  0  0  0  0  0  0  0
    3.2690   -1.3800    0.0000 H   0  0  0  0  0  0  0  0  0  0  0  0
    2.6490   -2.0000    0.0000 H   0  0  0  0  0  0  0  0  0  0  0  0
    3.2690   -2.6200    0.0000 H   0  0  0  0  0  0  0  0  0  0  0  0
    2.0000    0.6900    0.0000 H   0  0  0  0  0  0  0  0  0  0  0  0
  1  4  1  0  0  0  0
  1 43  1  0  0  0  0
  2  4  1  0  0  0  0
  2  6  1  0  0  0  0
  2  8  1  0  0  0  0
  2 16  1  0  0  0  0
  3  5  1  0  0  0  0
  3  7  1  0  0  0  0
  3  9  1  0  0  0  0
  3 17  1  0  0  0  0
  4  5  1  0  0  0  0
  4 18  1  0  0  0  0
  5 19  1  0  0  0  0
  5 20  1  0  0  0  0
  6  7  1  0  0  0  0
  6 21  1  0  0  0  0
  6 22  1  0  0  0  0
  7 23  1  0  0  0  0
  7 24  1  0  0  0  0
  8 10  1  0  0  0  0
  8 11  1  0  0  0  0
  8 12  1  0  0  0  0
  9 13  1  0  0  0  0
  9 14  1  0  0  0  0
  9 15  1  0  0  0  0
 10 25  1  0  0  0  0
 10 26  1  0  0  0  0
 10 27  1  0  0  0  0
 11 28  1  0  0  0  0
 11 29  1  0  0  0  0
 11 30  1  0  0  0  0
 12 31  1  0  0  0  0
 12 32  1  0  0  0  0
 12 33  1  0  0  0  0
 13 34  1  0  0  0  0
 13 35  1  0  0  0  0
 13 36  1  0  0  0  0
 14 37  1  0  0  0  0
 14 38  1  0  0  0  0
 14 39  1  0  0  0  0
 15 40  1  0  0  0  0
 15 41  1  0  0  0  0
 15 42  1  0  0  0  0
M  END
> <PUBCHEM_COMPOUND_CID>
518995
> <PUBCHEM_COMPOUND_CANONICALIZED>
1
> <PUBCHEM_CACTVS_COMPLEXITY>
206
> <PUBCHEM_CACTVS_HBOND_ACCEPTOR>
1
> <PUBCHEM_CACTVS_HBOND_DONOR>
1
> <PUBCHEM_CACTVS_ROTATABLE_BOND>
2
> <PUBCHEM_CACTVS_SUBSKEYS>
AAADceBwIAAAAAAAAAAAAAAAAAAAAAAAAAAwAAAAAAAAAAAAAAAAGgAACAAADxSggAICAAAAAgAAAAAAAAAAAAAAAAAAAAAAAAAAEAIAAAAAQAAEAAAAAAGAwPAPgAAAAAAAAACAAAIAABAAAAAAAAAAAA==
> <PUBCHEM_IUPAC_OPENEYE_NAME>
2,5-ditert-butylcyclohexanol
> <PUBCHEM_IUPAC_CAS_NAME>
2,5-ditert-butyl-1-cyclohexanol
> <PUBCHEM_IUPAC_NAME_MARKUP>
2,5-di<I>tert</I>-butylcyclohexan-1-ol
> <PUBCHEM_IUPAC_NAME>
2,5-ditert-butylcyclohexan-1-ol
> <PUBCHEM_IUPAC_SYSTEMATIC_NAME>
2,5-ditert-butylcyclohexan-1-ol
> <PUBCHEM_IUPAC_TRADITIONAL_NAME>
2,5-ditert-butylcyclohexanol
> <PUBCHEM_IUPAC_INCHI>
InChI=1S/C14H28O/c1-13(2,3)10-7-8-11(12(15)9-10)14(4,5)6/h10-12,15H,7-9H2,1-6H3
> <PUBCHEM_IUPAC_INCHIKEY>
REPJSEOIEYLARO-UHFFFAOYSA-N
> <PUBCHEM_XLOGP3_AA>
4.6
> <PUBCHEM_EXACT_MASS>
212.214015512
> <PUBCHEM_MOLECULAR_FORMULA>
C14H28O
> <PUBCHEM_MOLECULAR_WEIGHT>
212.37
> <PUBCHEM_OPENEYE_CAN_SMILES>
CC(C)(C)C1CCC(C(C1)O)C(C)(C)C
> <PUBCHEM_OPENEYE_ISO_SMILES>
CC(C)(C)C1CCC(C(C1)O)C(C)(C)C
> <PUBCHEM_CACTVS_TPSA>
20.2
> <PUBCHEM_MONOISOTOPIC_WEIGHT>
212.214015512
> <PUBCHEM_TOTAL_CHARGE>
0
> <PUBCHEM_HEAVY_ATOM_COUNT>
15
> <PUBCHEM_ATOM_DEF_STEREO_COUNT>
0
> <PUBCHEM_ATOM_UDEF_STEREO_COUNT>
3
> <PUBCHEM_BOND_DEF_STEREO_COUNT>
0
> <PUBCHEM_BOND_UDEF_STEREO_COUNT>
0
> <PUBCHEM_ISOTOPIC_ATOM_COUNT>
0
> <PUBCHEM_COMPONENT_COUNT>
1
> <PUBCHEM_CACTVS_TAUTO_COUNT>
-1
> <PUBCHEM_COORDINATE_TYPE>
1
5
255
> <PUBCHEM_BONDANNOTATIONS>
4  1  3
2  8  3
3  9  3
$$$$
