518962
  -OEChem-10302200292D
 63 68  0     1  0  0  0  0  0999 V2000
    5.0395   -1.5330    0.0000 O   0  0  0  0  0  0  0  0  0  0  0  0
    7.8466   -1.3675    0.0000 O   0  0  0  0  0  0  0  0  0  0  0  0
    5.7551   -2.2850    0.0000 O   0  0  0  0  0  0  0  0  0  0  0  0
    2.6200   -1.7335    0.0000 O   0  0  0  0  0  0  0  0  0  0  0  0
    6.0154    2.4758    0.0000 N   0  0  3  0  0  0  0  0  0  0  0  0
    5.5328   -0.0317    0.0000 C   0  0  3  0  0  0  0  0  0  0  0  0
    6.0154    0.8041    0.0000 C   0  0  3  0  0  0  0  0  0  0  0  0
    6.0154   -0.8675    0.0000 C   0  0  3  0  0  0  0  0  0  0  0  0
    6.9805   -0.8675    0.0000 C   0  0  3  0  0  0  0  0  0  0  0  0
    5.5328    1.6400    0.0000 C   0  0  3  0  0  0  0  0  0  0  0  0
    6.7124    0.3544    0.0000 C   0  0  0  0  0  0  0  0  0  0  0  0
    6.3478   -0.3748    0.0000 C   0  0  3  0  0  0  0  0  0  0  0  0
    5.0503    0.8041    0.0000 C   0  0  0  0  0  0  0  0  0  0  0  0
    4.5677   -0.0317    0.0000 C   0  0  0  0  0  0  0  0  0  0  0  0
    6.9805    0.8041    0.0000 C   0  0  0  0  0  0  0  0  0  0  0  0
    4.5677    1.6400    0.0000 C   0  0  0  0  0  0  0  0  0  0  0  0
    7.4631   -0.0317    0.0000 C   0  0  0  0  0  0  0  0  0  0  0  0
    5.0395    2.6492    0.0000 C   0  0  0  0  0  0  0  0  0  0  0  0
    6.0514   -1.3299    0.0000 C   0  0  3  0  0  0  0  0  0  0  0  0
    4.0851    0.8041    0.0000 C   0  0  0  0  0  0  0  0  0  0  0  0
    4.0851   -0.8675    0.0000 C   0  0  0  0  0  0  0  0  0  0  0  0
    7.0066   -1.6262    0.0000 C   0  0  0  0  0  0  0  0  0  0  0  0
    6.9220    2.8978    0.0000 C   0  0  0  0  0  0  0  0  0  0  0  0
    3.1200    0.8041    0.0000 C   0  0  0  0  0  0  0  0  0  0  0  0
    5.1624   -0.8723    0.0000 C   0  0  0  0  0  0  0  0  0  0  0  0
    3.1200   -0.8675    0.0000 C   0  0  0  0  0  0  0  0  0  0  0  0
    2.6374   -0.0317    0.0000 C   0  0  0  0  0  0  0  0  0  0  0  0
    8.7126   -0.8675    0.0000 C   0  0  0  0  0  0  0  0  0  0  0  0
    7.2276   -2.6015    0.0000 C   0  0  0  0  0  0  0  0  0  0  0  0
    8.1827   -2.8978    0.0000 C   0  0  0  0  0  0  0  0  0  0  0  0
    6.1982   -1.4600    0.0000 H   0  0  0  0  0  0  0  0  0  0  0  0
    5.2228    2.1769    0.0000 H   0  0  0  0  0  0  0  0  0  0  0  0
    7.2565    0.0571    0.0000 H   0  0  0  0  0  0  0  0  0  0  0  0
    7.0294    0.8872    0.0000 H   0  0  0  0  0  0  0  0  0  0  0  0
    5.7726   -0.1436    0.0000 H   0  0  0  0  0  0  0  0  0  0  0  0
    4.4668    1.0139    0.0000 H   0  0  0  0  0  0  0  0  0  0  0  0
    5.6487    0.9664    0.0000 H   0  0  0  0  0  0  0  0  0  0  0  0
    7.2905    1.3411    0.0000 H   0  0  0  0  0  0  0  0  0  0  0  0
    4.6754    2.2506    0.0000 H   0  0  0  0  0  0  0  0  0  0  0  0
    3.9851    1.8520    0.0000 H   0  0  0  0  0  0  0  0  0  0  0  0
    8.0831   -0.0317    0.0000 H   0  0  0  0  0  0  0  0  0  0  0  0
    5.1109    3.2651    0.0000 H   0  0  0  0  0  0  0  0  0  0  0  0
    4.4205    2.6832    0.0000 H   0  0  0  0  0  0  0  0  0  0  0  0
    7.6259   -1.5963    0.0000 H   0  0  0  0  0  0  0  0  0  0  0  0
    7.0847   -1.0112    0.0000 H   0  0  0  0  0  0  0  0  0  0  0  0
    7.1836    2.3357    0.0000 H   0  0  0  0  0  0  0  0  0  0  0  0
    7.4841    3.1594    0.0000 H   0  0  0  0  0  0  0  0  0  0  0  0
    6.6604    3.4599    0.0000 H   0  0  0  0  0  0  0  0  0  0  0  0
    2.8100    1.3411    0.0000 H   0  0  0  0  0  0  0  0  0  0  0  0
    5.4461   -0.3210    0.0000 H   0  0  0  0  0  0  0  0  0  0  0  0
    4.6111   -0.5885    0.0000 H   0  0  0  0  0  0  0  0  0  0  0  0
    4.8786   -1.4235    0.0000 H   0  0  0  0  0  0  0  0  0  0  0  0
    6.1761   -2.7402    0.0000 H   0  0  0  0  0  0  0  0  0  0  0  0
    2.0174   -0.0317    0.0000 H   0  0  0  0  0  0  0  0  0  0  0  0
    9.0226   -1.4044    0.0000 H   0  0  0  0  0  0  0  0  0  0  0  0
    9.2495   -0.5575    0.0000 H   0  0  0  0  0  0  0  0  0  0  0  0
    8.4026   -0.3306    0.0000 H   0  0  0  0  0  0  0  0  0  0  0  0
    6.6083   -2.6314    0.0000 H   0  0  0  0  0  0  0  0  0  0  0  0
    7.1495   -3.2166    0.0000 H   0  0  0  0  0  0  0  0  0  0  0  0
    2.0000   -1.7335    0.0000 H   0  0  0  0  0  0  0  0  0  0  0  0
    7.9990   -3.4900    0.0000 H   0  0  0  0  0  0  0  0  0  0  0  0
    8.7748   -3.0815    0.0000 H   0  0  0  0  0  0  0  0  0  0  0  0
    8.3664   -2.3056    0.0000 H   0  0  0  0  0  0  0  0  0  0  0  0
  1  8  1  0  0  0  0
  1 21  1  0  0  0  0
  2  9  1  0  0  0  0
  2 28  1  0  0  0  0
  3 19  1  0  0  0  0
  3 53  1  0  0  0  0
  4 26  1  0  0  0  0
  4 60  1  0  0  0  0
  5 10  1  0  0  0  0
  5 18  1  0  0  0  0
  5 23  1  0  0  0  0
  6  7  1  0  0  0  0
  6  8  1  0  0  0  0
  6 13  1  0  0  0  0
  6 14  1  0  0  0  0
  7 10  1  0  0  0  0
  7 11  1  0  0  0  0
  7 15  1  0  0  0  0
  8  9  1  0  0  0  0
  8 31  1  0  0  0  0
  9 12  1  0  0  0  0
  9 17  1  0  0  0  0
 10 16  1  0  0  0  0
 10 32  1  0  0  0  0
 11 12  1  0  0  0  0
 11 33  1  0  0  0  0
 11 34  1  0  0  0  0
 12 19  1  0  0  0  0
 12 35  1  0  0  0  0
 13 18  1  0  0  0  0
 13 36  1  0  0  0  0
 13 37  1  0  0  0  0
 14 20  2  0  0  0  0
 14 21  1  0  0  0  0
 15 17  2  0  0  0  0
 15 38  1  0  0  0  0
 16 20  1  0  0  0  0
 16 39  1  0  0  0  0
 16 40  1  0  0  0  0
 17 41  1  0  0  0  0
 18 42  1  0  0  0  0
 18 43  1  0  0  0  0
 19 22  1  0  0  0  0
 19 25  1  0  0  0  0
 20 24  1  0  0  0  0
 21 26  2  0  0  0  0
 22 29  1  0  0  0  0
 22 44  1  0  0  0  0
 22 45  1  0  0  0  0
 23 46  1  0  0  0  0
 23 47  1  0  0  0  0
 23 48  1  0  0  0  0
 24 27  2  0  0  0  0
 24 49  1  0  0  0  0
 25 50  1  0  0  0  0
 25 51  1  0  0  0  0
 25 52  1  0  0  0  0
 26 27  1  0  0  0  0
 27 54  1  0  0  0  0
 28 55  1  0  0  0  0
 28 56  1  0  0  0  0
 28 57  1  0  0  0  0
 29 30  1  0  0  0  0
 29 58  1  0  0  0  0
 29 59  1  0  0  0  0
 30 61  1  0  0  0  0
 30 62  1  0  0  0  0
 30 63  1  0  0  0  0
M  END
> <PUBCHEM_COMPOUND_CID>
518962
> <PUBCHEM_COMPOUND_CANONICALIZED>
1
> <PUBCHEM_CACTVS_COMPLEXITY>
772
> <PUBCHEM_CACTVS_HBOND_ACCEPTOR>
5
> <PUBCHEM_CACTVS_HBOND_DONOR>
2
> <PUBCHEM_CACTVS_ROTATABLE_BOND>
4
> <PUBCHEM_CACTVS_SUBSKEYS>
AAADcfB6OAAAAAAAAAAAAAAAAAAAASAAAAA8YMECAAAWAEjxAAAAHgAACAAAD3zhmAYyBoMABgCAAiBCAAACCAAgIAAIiAAOiIgNJiKGsRuGeCOlwBGLuAfw8P8PoAABAAAYQADQAAaAADSAAAAAAAAAAA==
> <PUBCHEM_IUPAC_OPENEYE_NAME>
19-(1-hydroxy-1-methyl-butyl)-15-methoxy-5-methyl-13-oxa-5-azahexacyclo[13.2.2.12,8.01,6.02,14.012,20]icosa-8(20),9,11,16-tetraen-11-ol
> <PUBCHEM_IUPAC_CAS_NAME>
19-(2-hydroxypentan-2-yl)-15-methoxy-5-methyl-13-oxa-5-azahexacyclo[13.2.2.12,8.01,6.02,14.012,20]eicosa-8(20),9,11,16-tetraen-11-ol
> <PUBCHEM_IUPAC_NAME_MARKUP>
19-(2-hydroxypentan-2-yl)-15-methoxy-5-methyl-13-oxa-5-azahexacyclo[13.2.2.1<SUP>2,8</SUP>.0<SUP>1,6</SUP>.0<SUP>2,14</SUP>.0<SUP>12,20</SUP>]icosa-8(20),9,11,16-tetraen-11-ol
> <PUBCHEM_IUPAC_NAME>
19-(2-hydroxypentan-2-yl)-15-methoxy-5-methyl-13-oxa-5-azahexacyclo[13.2.2.12,8.01,6.02,14.012,20]icosa-8(20),9,11,16-tetraen-11-ol
> <PUBCHEM_IUPAC_SYSTEMATIC_NAME>
15-methoxy-5-methyl-19-(2-oxidanylpentan-2-yl)-13-oxa-5-azahexacyclo[13.2.2.12,8.01,6.02,14.012,20]icosa-8(20),9,11,16-tetraen-11-ol
> <PUBCHEM_IUPAC_TRADITIONAL_NAME>
19-(1-hydroxy-1-methyl-butyl)-15-methoxy-5-methyl-13-oxa-5-azahexacyclo[13.2.2.12,8.01,6.02,14.012,20]eicosa-8(20),9,11,16-tetraen-11-ol
> <PUBCHEM_IUPAC_INCHI>
InChI=1S/C25H33NO4/c1-5-8-22(2,28)17-14-23-9-10-25(17,29-4)21-24(23)11-12-26(3)18(23)13-15-6-7-16(27)20(30-21)19(15)24/h6-7,9-10,17-18,21,27-28H,5,8,11-14H2,1-4H3
> <PUBCHEM_IUPAC_INCHIKEY>
CAHCBJPUTCKATP-UHFFFAOYSA-N
> <PUBCHEM_XLOGP3_AA>
3.1
> <PUBCHEM_EXACT_MASS>
411.24095853
> <PUBCHEM_MOLECULAR_FORMULA>
C25H33NO4
> <PUBCHEM_MOLECULAR_WEIGHT>
411.5
> <PUBCHEM_OPENEYE_CAN_SMILES>
CCCC(C)(C1CC23C=CC1(C4C25CCN(C3CC6=C5C(=C(C=C6)O)O4)C)OC)O
> <PUBCHEM_OPENEYE_ISO_SMILES>
CCCC(C)(C1CC23C=CC1(C4C25CCN(C3CC6=C5C(=C(C=C6)O)O4)C)OC)O
> <PUBCHEM_CACTVS_TPSA>
62.2
> <PUBCHEM_MONOISOTOPIC_WEIGHT>
411.24095853
> <PUBCHEM_TOTAL_CHARGE>
0
> <PUBCHEM_HEAVY_ATOM_COUNT>
30
> <PUBCHEM_ATOM_DEF_STEREO_COUNT>
0
> <PUBCHEM_ATOM_UDEF_STEREO_COUNT>
7
> <PUBCHEM_BOND_DEF_STEREO_COUNT>
0
> <PUBCHEM_BOND_UDEF_STEREO_COUNT>
0
> <PUBCHEM_ISOTOPIC_ATOM_COUNT>
0
> <PUBCHEM_COMPONENT_COUNT>
1
> <PUBCHEM_CACTVS_TAUTO_COUNT>
-1
> <PUBCHEM_COORDINATE_TYPE>
1
5
255
> <PUBCHEM_BONDANNOTATIONS>
8  1  3
10  16  3
12  11  3
14  20  8
14  21  8
20  24  8
21  26  8
24  27  8
26  27  8
19  3  3
6  13  3
7  11  3
9  12  3
$$$$
