518901
  -OEChem-10302200292D
 82 81  0     1  0  0  0  0  0999 V2000
    4.5981   -2.3170    0.0000 Si  0  0  0  0  0  0  0  0  0  0  0  0
    8.0622   -0.3170    0.0000 Si  0  0  0  0  0  0  0  0  0  0  0  0
    2.8660   -0.3170    0.0000 Si  0  0  0  0  0  0  0  0  0  0  0  0
    7.1962    2.1830    0.0000 Si  0  0  0  0  0  0  0  0  0  0  0  0
    3.7320    2.1830    0.0000 Si  0  0  0  0  0  0  0  0  0  0  0  0
    5.4641   -1.8170    0.0000 O   0  0  0  0  0  0  0  0  0  0  0  0
    7.1962   -0.8170    0.0000 O   0  0  0  0  0  0  0  0  0  0  0  0
    3.7320   -0.8170    0.0000 O   0  0  0  0  0  0  0  0  0  0  0  0
    7.1962    1.1830    0.0000 O   0  0  0  0  0  0  0  0  0  0  0  0
    3.7320    1.1830    0.0000 O   0  0  0  0  0  0  0  0  0  0  0  0
    5.4641   -0.8170    0.0000 C   0  0  0  0  0  0  0  0  0  0  0  0
    6.3301   -0.3170    0.0000 C   0  0  3  0  0  0  0  0  0  0  0  0
    4.5981   -0.3170    0.0000 C   0  0  3  0  0  0  0  0  0  0  0  0
    6.3301    0.6830    0.0000 C   0  0  0  0  0  0  0  0  0  0  0  0
    4.5981    0.6830    0.0000 C   0  0  0  0  0  0  0  0  0  0  0  0
    3.7320   -2.8170    0.0000 C   0  0  0  0  0  0  0  0  0  0  0  0
    5.0981   -3.1830    0.0000 C   0  0  0  0  0  0  0  0  0  0  0  0
    4.0981   -1.4510    0.0000 C   0  0  0  0  0  0  0  0  0  0  0  0
    8.9282    0.1830    0.0000 C   0  0  0  0  0  0  0  0  0  0  0  0
    8.5622   -1.1830    0.0000 C   0  0  0  0  0  0  0  0  0  0  0  0
    7.5622    0.5490    0.0000 C   0  0  0  0  0  0  0  0  0  0  0  0
    2.0000    0.1830    0.0000 C   0  0  0  0  0  0  0  0  0  0  0  0
    2.3660   -1.1830    0.0000 C   0  0  0  0  0  0  0  0  0  0  0  0
    3.3660    0.5490    0.0000 C   0  0  0  0  0  0  0  0  0  0  0  0
    7.1962    3.1830    0.0000 C   0  0  0  0  0  0  0  0  0  0  0  0
    8.1962    2.1830    0.0000 C   0  0  0  0  0  0  0  0  0  0  0  0
    6.1962    2.1830    0.0000 C   0  0  0  0  0  0  0  0  0  0  0  0
    3.7320    3.1830    0.0000 C   0  0  0  0  0  0  0  0  0  0  0  0
    2.7320    2.1830    0.0000 C   0  0  0  0  0  0  0  0  0  0  0  0
    4.7320    2.1830    0.0000 C   0  0  0  0  0  0  0  0  0  0  0  0
    6.0010   -1.1270    0.0000 H   0  0  0  0  0  0  0  0  0  0  0  0
    6.8671   -0.0070    0.0000 H   0  0  0  0  0  0  0  0  0  0  0  0
    4.5981   -0.9370    0.0000 H   0  0  0  0  0  0  0  0  0  0  0  0
    6.1181    1.2656    0.0000 H   0  0  0  0  0  0  0  0  0  0  0  0
    5.7196    0.5754    0.0000 H   0  0  0  0  0  0  0  0  0  0  0  0
    5.2087    0.5754    0.0000 H   0  0  0  0  0  0  0  0  0  0  0  0
    4.8101    1.2656    0.0000 H   0  0  0  0  0  0  0  0  0  0  0  0
    3.4220   -2.2800    0.0000 H   0  0  0  0  0  0  0  0  0  0  0  0
    3.1951   -3.1270    0.0000 H   0  0  0  0  0  0  0  0  0  0  0  0
    4.0420   -3.3539    0.0000 H   0  0  0  0  0  0  0  0  0  0  0  0
    4.5611   -3.4930    0.0000 H   0  0  0  0  0  0  0  0  0  0  0  0
    5.4081   -3.7200    0.0000 H   0  0  0  0  0  0  0  0  0  0  0  0
    5.6350   -2.8730    0.0000 H   0  0  0  0  0  0  0  0  0  0  0  0
    4.6350   -1.1410    0.0000 H   0  0  0  0  0  0  0  0  0  0  0  0
    3.7881   -0.9140    0.0000 H   0  0  0  0  0  0  0  0  0  0  0  0
    3.5611   -1.7610    0.0000 H   0  0  0  0  0  0  0  0  0  0  0  0
    9.2382   -0.3539    0.0000 H   0  0  0  0  0  0  0  0  0  0  0  0
    9.4651    0.4930    0.0000 H   0  0  0  0  0  0  0  0  0  0  0  0
    8.6182    0.7199    0.0000 H   0  0  0  0  0  0  0  0  0  0  0  0
    8.0252   -1.4930    0.0000 H   0  0  0  0  0  0  0  0  0  0  0  0
    8.8722   -1.7200    0.0000 H   0  0  0  0  0  0  0  0  0  0  0  0
    9.0991   -0.8730    0.0000 H   0  0  0  0  0  0  0  0  0  0  0  0
    8.0991    0.8590    0.0000 H   0  0  0  0  0  0  0  0  0  0  0  0
    7.2522    1.0860    0.0000 H   0  0  0  0  0  0  0  0  0  0  0  0
    7.0252    0.2390    0.0000 H   0  0  0  0  0  0  0  0  0  0  0  0
    2.3100    0.7199    0.0000 H   0  0  0  0  0  0  0  0  0  0  0  0
    1.4631    0.4930    0.0000 H   0  0  0  0  0  0  0  0  0  0  0  0
    1.6900   -0.3539    0.0000 H   0  0  0  0  0  0  0  0  0  0  0  0
    1.8291   -0.8730    0.0000 H   0  0  0  0  0  0  0  0  0  0  0  0
    2.0560   -1.7200    0.0000 H   0  0  0  0  0  0  0  0  0  0  0  0
    2.9030   -1.4930    0.0000 H   0  0  0  0  0  0  0  0  0  0  0  0
    3.9030    0.2390    0.0000 H   0  0  0  0  0  0  0  0  0  0  0  0
    3.6760    1.0860    0.0000 H   0  0  0  0  0  0  0  0  0  0  0  0
    2.8291    0.8590    0.0000 H   0  0  0  0  0  0  0  0  0  0  0  0
    7.8162    3.1830    0.0000 H   0  0  0  0  0  0  0  0  0  0  0  0
    7.1962    3.8030    0.0000 H   0  0  0  0  0  0  0  0  0  0  0  0
    6.5762    3.1830    0.0000 H   0  0  0  0  0  0  0  0  0  0  0  0
    8.1962    1.5630    0.0000 H   0  0  0  0  0  0  0  0  0  0  0  0
    8.8162    2.1830    0.0000 H   0  0  0  0  0  0  0  0  0  0  0  0
    8.1962    2.8030    0.0000 H   0  0  0  0  0  0  0  0  0  0  0  0
    6.1962    2.8030    0.0000 H   0  0  0  0  0  0  0  0  0  0  0  0
    5.5762    2.1830    0.0000 H   0  0  0  0  0  0  0  0  0  0  0  0
    6.1962    1.5630    0.0000 H   0  0  0  0  0  0  0  0  0  0  0  0
    4.3520    3.1830    0.0000 H   0  0  0  0  0  0  0  0  0  0  0  0
    3.7320    3.8030    0.0000 H   0  0  0  0  0  0  0  0  0  0  0  0
    3.1120    3.1830    0.0000 H   0  0  0  0  0  0  0  0  0  0  0  0
    2.7320    2.8030    0.0000 H   0  0  0  0  0  0  0  0  0  0  0  0
    2.1120    2.1830    0.0000 H   0  0  0  0  0  0  0  0  0  0  0  0
    2.7320    1.5630    0.0000 H   0  0  0  0  0  0  0  0  0  0  0  0
    4.7320    1.5630    0.0000 H   0  0  0  0  0  0  0  0  0  0  0  0
    5.3520    2.1830    0.0000 H   0  0  0  0  0  0  0  0  0  0  0  0
    4.7320    2.8030    0.0000 H   0  0  0  0  0  0  0  0  0  0  0  0
  1  6  1  0  0  0  0
  1 16  1  0  0  0  0
  1 17  1  0  0  0  0
  1 18  1  0  0  0  0
  2  7  1  0  0  0  0
  2 19  1  0  0  0  0
  2 20  1  0  0  0  0
  2 21  1  0  0  0  0
  3  8  1  0  0  0  0
  3 22  1  0  0  0  0
  3 23  1  0  0  0  0
  3 24  1  0  0  0  0
  4  9  1  0  0  0  0
  4 25  1  0  0  0  0
  4 26  1  0  0  0  0
  4 27  1  0  0  0  0
  5 10  1  0  0  0  0
  5 28  1  0  0  0  0
  5 29  1  0  0  0  0
  5 30  1  0  0  0  0
  6 11  1  0  0  0  0
  7 12  1  0  0  0  0
  8 13  1  0  0  0  0
  9 14  1  0  0  0  0
 10 15  1  0  0  0  0
 11 12  1  0  0  0  0
 11 13  1  0  0  0  0
 11 31  1  0  0  0  0
 12 14  1  0  0  0  0
 12 32  1  0  0  0  0
 13 15  1  0  0  0  0
 13 33  1  0  0  0  0
 14 34  1  0  0  0  0
 14 35  1  0  0  0  0
 15 36  1  0  0  0  0
 15 37  1  0  0  0  0
 16 38  1  0  0  0  0
 16 39  1  0  0  0  0
 16 40  1  0  0  0  0
 17 41  1  0  0  0  0
 17 42  1  0  0  0  0
 17 43  1  0  0  0  0
 18 44  1  0  0  0  0
 18 45  1  0  0  0  0
 18 46  1  0  0  0  0
 19 47  1  0  0  0  0
 19 48  1  0  0  0  0
 19 49  1  0  0  0  0
 20 50  1  0  0  0  0
 20 51  1  0  0  0  0
 20 52  1  0  0  0  0
 21 53  1  0  0  0  0
 21 54  1  0  0  0  0
 21 55  1  0  0  0  0
 22 56  1  0  0  0  0
 22 57  1  0  0  0  0
 22 58  1  0  0  0  0
 23 59  1  0  0  0  0
 23 60  1  0  0  0  0
 23 61  1  0  0  0  0
 24 62  1  0  0  0  0
 24 63  1  0  0  0  0
 24 64  1  0  0  0  0
 25 65  1  0  0  0  0
 25 66  1  0  0  0  0
 25 67  1  0  0  0  0
 26 68  1  0  0  0  0
 26 69  1  0  0  0  0
 26 70  1  0  0  0  0
 27 71  1  0  0  0  0
 27 72  1  0  0  0  0
 27 73  1  0  0  0  0
 28 74  1  0  0  0  0
 28 75  1  0  0  0  0
 28 76  1  0  0  0  0
 29 77  1  0  0  0  0
 29 78  1  0  0  0  0
 29 79  1  0  0  0  0
 30 80  1  0  0  0  0
 30 81  1  0  0  0  0
 30 82  1  0  0  0  0
M  END
> <PUBCHEM_COMPOUND_CID>
518901
> <PUBCHEM_COMPOUND_CANONICALIZED>
1
> <PUBCHEM_CACTVS_COMPLEXITY>
460
> <PUBCHEM_CACTVS_HBOND_ACCEPTOR>
5
> <PUBCHEM_CACTVS_HBOND_DONOR>
0
> <PUBCHEM_CACTVS_ROTATABLE_BOND>
14
> <PUBCHEM_CACTVS_SUBSKEYS>
AAADcfB4OAwAAAAAAAAAAAAAAAAAAAAAAAAAAAAAAAAAAAAAAAAAGhAAAEAACBSggAJCAAAAAAEAAAAAAAAAAAAAAAAAAAAAAAABAAIAAAAAAAAFAAAAAADAIAAAAAAAAAAAAAAAAAAAAAAAAAAAAAAAAA==
> <PUBCHEM_IUPAC_OPENEYE_NAME>
trimethyl-[2,3,4,5-tetrakis(trimethylsilyloxy)pentoxy]silane
> <PUBCHEM_IUPAC_CAS_NAME>
trimethyl-[1,2,4,5-tetrakis(trimethylsilyloxy)pentan-3-yloxy]silane
> <PUBCHEM_IUPAC_NAME_MARKUP>
trimethyl-[1,2,4,5-tetrakis(trimethylsilyloxy)pentan-3-yloxy]silane
> <PUBCHEM_IUPAC_NAME>
trimethyl-[1,2,4,5-tetrakis(trimethylsilyloxy)pentan-3-yloxy]silane
> <PUBCHEM_IUPAC_SYSTEMATIC_NAME>
trimethyl-[1,2,4,5-tetrakis(trimethylsilyloxy)pentan-3-yloxy]silane
> <PUBCHEM_IUPAC_TRADITIONAL_NAME>
trimethyl-[2,3,4,5-tetrakis(trimethylsilyloxy)pentoxy]silane
> <PUBCHEM_IUPAC_INCHI>
InChI=1S/C20H52O5Si5/c1-26(2,3)21-16-18(23-28(7,8)9)20(25-30(13,14)15)19(24-29(10,11)12)17-22-27(4,5)6/h18-20H,16-17H2,1-15H3
> <PUBCHEM_IUPAC_INCHIKEY>
SUZLPERYXSOGNY-UHFFFAOYSA-N
> <PUBCHEM_EXACT_MASS>
512.26610743
> <PUBCHEM_MOLECULAR_FORMULA>
C20H52O5Si5
> <PUBCHEM_MOLECULAR_WEIGHT>
513.0
> <PUBCHEM_OPENEYE_CAN_SMILES>
C[Si](C)(C)OCC(C(C(CO[Si](C)(C)C)O[Si](C)(C)C)O[Si](C)(C)C)O[Si](C)(C)C
> <PUBCHEM_OPENEYE_ISO_SMILES>
C[Si](C)(C)OCC(C(C(CO[Si](C)(C)C)O[Si](C)(C)C)O[Si](C)(C)C)O[Si](C)(C)C
> <PUBCHEM_CACTVS_TPSA>
46.2
> <PUBCHEM_MONOISOTOPIC_WEIGHT>
512.26610743
> <PUBCHEM_TOTAL_CHARGE>
0
> <PUBCHEM_HEAVY_ATOM_COUNT>
30
> <PUBCHEM_ATOM_DEF_STEREO_COUNT>
0
> <PUBCHEM_ATOM_UDEF_STEREO_COUNT>
2
> <PUBCHEM_BOND_DEF_STEREO_COUNT>
0
> <PUBCHEM_BOND_UDEF_STEREO_COUNT>
0
> <PUBCHEM_ISOTOPIC_ATOM_COUNT>
0
> <PUBCHEM_COMPONENT_COUNT>
1
> <PUBCHEM_CACTVS_TAUTO_COUNT>
-1
> <PUBCHEM_COORDINATE_TYPE>
1
5
255
> <PUBCHEM_BONDANNOTATIONS>
12  14  3
13  15  3
$$$$
