518935
  -OEChem-10302200292D
 56 57  0     1  0  0  0  0  0999 V2000
    4.3660    3.2500    0.0000 O   0  0  0  0  0  0  0  0  0  0  0  0
    3.5000   -3.2500    0.0000 O   0  0  0  0  0  0  0  0  0  0  0  0
    5.2320    0.7500    0.0000 C   0  0  3  0  0  0  0  0  0  0  0  0
    5.2320    1.7500    0.0000 C   0  0  3  0  0  0  0  0  0  0  0  0
    6.1260    2.2847    0.0000 C   0  0  0  0  0  0  0  0  0  0  0  0
    4.3660    0.2500    0.0000 C   0  0  3  0  0  0  0  0  0  0  0  0
    6.1260    0.2153    0.0000 C   0  0  0  0  0  0  0  0  0  0  0  0
    4.3660    2.2500    0.0000 C   0  0  3  0  0  0  0  0  0  0  0  0
    7.0321    1.7708    0.0000 C   0  0  0  0  0  0  0  0  0  0  0  0
    7.0321    0.7292    0.0000 C   0  0  0  0  0  0  0  0  0  0  0  0
    3.5000    1.7500    0.0000 C   0  0  0  0  0  0  0  0  0  0  0  0
    5.2320   -0.2500    0.0000 C   0  0  0  0  0  0  0  0  0  0  0  0
    3.5000    0.7500    0.0000 C   0  0  0  0  0  0  0  0  0  0  0  0
    4.3660   -0.7500    0.0000 C   0  0  0  0  0  0  0  0  0  0  0  0
    6.6160    3.1564    0.0000 C   0  0  0  0  0  0  0  0  0  0  0  0
    5.6160    3.1448    0.0000 C   0  0  0  0  0  0  0  0  0  0  0  0
    3.5000   -1.2500    0.0000 C   0  0  0  0  0  0  0  0  0  0  0  0
    2.6340    0.2500    0.0000 C   0  0  0  0  0  0  0  0  0  0  0  0
    3.5000   -2.2500    0.0000 C   0  0  3  0  0  0  0  0  0  0  0  0
    4.5000   -2.2500    0.0000 C   0  0  0  0  0  0  0  0  0  0  0  0
    2.5000   -2.2500    0.0000 C   0  0  0  0  0  0  0  0  0  0  0  0
    2.0000   -3.1160    0.0000 C   0  0  0  0  0  0  0  0  0  0  0  0
    5.7714    1.4442    0.0000 H   0  0  0  0  0  0  0  0  0  0  0  0
    3.8291   -0.0600    0.0000 H   0  0  0  0  0  0  0  0  0  0  0  0
    5.7214   -0.2544    0.0000 H   0  0  0  0  0  0  0  0  0  0  0  0
    6.5196   -0.2637    0.0000 H   0  0  0  0  0  0  0  0  0  0  0  0
    4.9030    2.5600    0.0000 H   0  0  0  0  0  0  0  0  0  0  0  0
    7.6429    1.6647    0.0000 H   0  0  0  0  0  0  0  0  0  0  0  0
    7.2411    2.3545    0.0000 H   0  0  0  0  0  0  0  0  0  0  0  0
    7.2411    0.1455    0.0000 H   0  0  0  0  0  0  0  0  0  0  0  0
    7.6429    0.8353    0.0000 H   0  0  0  0  0  0  0  0  0  0  0  0
    3.2880    2.3326    0.0000 H   0  0  0  0  0  0  0  0  0  0  0  0
    2.8894    1.6423    0.0000 H   0  0  0  0  0  0  0  0  0  0  0  0
    4.6120   -0.2500    0.0000 H   0  0  0  0  0  0  0  0  0  0  0  0
    5.2320   -0.8700    0.0000 H   0  0  0  0  0  0  0  0  0  0  0  0
    5.8520   -0.2500    0.0000 H   0  0  0  0  0  0  0  0  0  0  0  0
    4.5781   -1.3326    0.0000 H   0  0  0  0  0  0  0  0  0  0  0  0
    4.9766   -0.6423    0.0000 H   0  0  0  0  0  0  0  0  0  0  0  0
    7.1564    2.8526    0.0000 H   0  0  0  0  0  0  0  0  0  0  0  0
    6.9197    3.6969    0.0000 H   0  0  0  0  0  0  0  0  0  0  0  0
    6.0755    3.4602    0.0000 H   0  0  0  0  0  0  0  0  0  0  0  0
    6.1493    3.4610    0.0000 H   0  0  0  0  0  0  0  0  0  0  0  0
    5.2998    3.6782    0.0000 H   0  0  0  0  0  0  0  0  0  0  0  0
    5.0827    2.8287    0.0000 H   0  0  0  0  0  0  0  0  0  0  0  0
    3.2880   -0.6674    0.0000 H   0  0  0  0  0  0  0  0  0  0  0  0
    2.8894   -1.3577    0.0000 H   0  0  0  0  0  0  0  0  0  0  0  0
    3.8291    3.5600    0.0000 H   0  0  0  0  0  0  0  0  0  0  0  0
    2.0970    0.5600    0.0000 H   0  0  0  0  0  0  0  0  0  0  0  0
    2.6340   -0.3700    0.0000 H   0  0  0  0  0  0  0  0  0  0  0  0
    4.5000   -2.8700    0.0000 H   0  0  0  0  0  0  0  0  0  0  0  0
    5.1200   -2.2500    0.0000 H   0  0  0  0  0  0  0  0  0  0  0  0
    4.5000   -1.6300    0.0000 H   0  0  0  0  0  0  0  0  0  0  0  0
    2.1900   -1.7131    0.0000 H   0  0  0  0  0  0  0  0  0  0  0  0
    2.9631   -3.5600    0.0000 H   0  0  0  0  0  0  0  0  0  0  0  0
    1.3800   -3.1160    0.0000 H   0  0  0  0  0  0  0  0  0  0  0  0
    2.3100   -3.6530    0.0000 H   0  0  0  0  0  0  0  0  0  0  0  0
  1  8  1  0  0  0  0
  1 47  1  0  0  0  0
  2 19  1  0  0  0  0
  2 54  1  0  0  0  0
  3  4  1  0  0  0  0
  3  6  1  0  0  0  0
  3  7  1  0  0  0  0
  3 12  1  0  0  0  0
  4  5  1  0  0  0  0
  4  8  1  0  0  0  0
  4 23  1  0  0  0  0
  5  9  1  0  0  0  0
  5 15  1  0  0  0  0
  5 16  1  0  0  0  0
  6 13  1  0  0  0  0
  6 14  1  0  0  0  0
  6 24  1  0  0  0  0
  7 10  1  0  0  0  0
  7 25  1  0  0  0  0
  7 26  1  0  0  0  0
  8 11  1  0  0  0  0
  8 27  1  0  0  0  0
  9 10  1  0  0  0  0
  9 28  1  0  0  0  0
  9 29  1  0  0  0  0
 10 30  1  0  0  0  0
 10 31  1  0  0  0  0
 11 13  1  0  0  0  0
 11 32  1  0  0  0  0
 11 33  1  0  0  0  0
 12 34  1  0  0  0  0
 12 35  1  0  0  0  0
 12 36  1  0  0  0  0
 13 18  2  0  0  0  0
 14 17  1  0  0  0  0
 14 37  1  0  0  0  0
 14 38  1  0  0  0  0
 15 39  1  0  0  0  0
 15 40  1  0  0  0  0
 15 41  1  0  0  0  0
 16 42  1  0  0  0  0
 16 43  1  0  0  0  0
 16 44  1  0  0  0  0
 17 19  1  0  0  0  0
 17 45  1  0  0  0  0
 17 46  1  0  0  0  0
 18 48  1  0  0  0  0
 18 49  1  0  0  0  0
 19 20  1  0  0  0  0
 19 21  1  0  0  0  0
 20 50  1  0  0  0  0
 20 51  1  0  0  0  0
 20 52  1  0  0  0  0
 21 22  2  0  0  0  0
 21 53  1  0  0  0  0
 22 55  1  0  0  0  0
 22 56  1  0  0  0  0
M  END
> <PUBCHEM_COMPOUND_CID>
518935
> <PUBCHEM_COMPOUND_CANONICALIZED>
1
> <PUBCHEM_CACTVS_COMPLEXITY>
453
> <PUBCHEM_CACTVS_HBOND_ACCEPTOR>
2
> <PUBCHEM_CACTVS_HBOND_DONOR>
2
> <PUBCHEM_CACTVS_ROTATABLE_BOND>
4
> <PUBCHEM_CACTVS_SUBSKEYS>
AAADcfB4MAAAAAAAAAAAAAAAAAAAAAAAAAAwYAAAAAAAAADAAAAAGgAACAAAD1SggAICAAAAAgCAAiBCAAAAAAAgAAAIAAAAAAgAFAIAAQAAQAAEwAAAEAGAwPAPgAAAAAAAAABAAAYAADAAAAAAAAAAAA==
> <PUBCHEM_IUPAC_OPENEYE_NAME>
4-(3-hydroxy-3-methyl-pent-4-enyl)-4a,8,8-trimethyl-3-methylene-decalin-1-ol
> <PUBCHEM_IUPAC_CAS_NAME>
4-(3-hydroxy-3-methylpent-4-enyl)-4a,8,8-trimethyl-3-methylene-2,4,5,6,7,8a-hexahydro-1H-naphthalen-1-ol
> <PUBCHEM_IUPAC_NAME_MARKUP>
4-(3-hydroxy-3-methylpent-4-enyl)-4<I>a</I>,8,8-trimethyl-3-methylidene-2,4,5,6,7,8<I>a</I>-hexahydro-1<I>H</I>-naphthalen-1-ol
> <PUBCHEM_IUPAC_NAME>
4-(3-hydroxy-3-methylpent-4-enyl)-4a,8,8-trimethyl-3-methylidene-2,4,5,6,7,8a-hexahydro-1H-naphthalen-1-ol
> <PUBCHEM_IUPAC_SYSTEMATIC_NAME>
4a,8,8-trimethyl-3-methylidene-4-(3-methyl-3-oxidanyl-pent-4-enyl)-2,4,5,6,7,8a-hexahydro-1H-naphthalen-1-ol
> <PUBCHEM_IUPAC_TRADITIONAL_NAME>
4-(3-hydroxy-3-methyl-pent-4-enyl)-4a,8,8-trimethyl-3-methylene-decalin-1-ol
> <PUBCHEM_IUPAC_INCHI>
InChI=1S/C20H34O2/c1-7-19(5,22)12-9-15-14(2)13-16(21)17-18(3,4)10-8-11-20(15,17)6/h7,15-17,21-22H,1-2,8-13H2,3-6H3
> <PUBCHEM_IUPAC_INCHIKEY>
CLGDBTZPPRVUII-UHFFFAOYSA-N
> <PUBCHEM_XLOGP3_AA>
4.6
> <PUBCHEM_EXACT_MASS>
306.255880323
> <PUBCHEM_MOLECULAR_FORMULA>
C20H34O2
> <PUBCHEM_MOLECULAR_WEIGHT>
306.5
> <PUBCHEM_OPENEYE_CAN_SMILES>
CC1(CCCC2(C1C(CC(=C)C2CCC(C)(C=C)O)O)C)C
> <PUBCHEM_OPENEYE_ISO_SMILES>
CC1(CCCC2(C1C(CC(=C)C2CCC(C)(C=C)O)O)C)C
> <PUBCHEM_CACTVS_TPSA>
40.5
> <PUBCHEM_MONOISOTOPIC_WEIGHT>
306.255880323
> <PUBCHEM_TOTAL_CHARGE>
0
> <PUBCHEM_HEAVY_ATOM_COUNT>
22
> <PUBCHEM_ATOM_DEF_STEREO_COUNT>
0
> <PUBCHEM_ATOM_UDEF_STEREO_COUNT>
5
> <PUBCHEM_BOND_DEF_STEREO_COUNT>
0
> <PUBCHEM_BOND_UDEF_STEREO_COUNT>
0
> <PUBCHEM_ISOTOPIC_ATOM_COUNT>
0
> <PUBCHEM_COMPONENT_COUNT>
1
> <PUBCHEM_CACTVS_TAUTO_COUNT>
-1
> <PUBCHEM_COORDINATE_TYPE>
1
5
255
> <PUBCHEM_BONDANNOTATIONS>
8  1  3
19  2  3
3  12  3
4  5  3
6  14  3
$$$$
