518911
  -OEChem-10302200292D
 44 47  0     1  0  0  0  0  0999 V2000
    4.7587    0.3507    0.0000 F   0  0  0  0  0  0  0  0  0  0  0  0
    8.6500    2.1128    0.0000 O   0  0  0  0  0  0  0  0  0  0  0  0
    2.0000   -2.1948    0.0000 O   0  0  0  0  0  0  0  0  0  0  0  0
    7.3931   -0.1425    0.0000 C   0  0  3  0  0  0  0  0  0  0  0  0
    7.3931    0.8575    0.0000 C   0  0  3  0  0  0  0  0  0  0  0  0
    6.5271   -0.6425    0.0000 C   0  0  3  0  0  0  0  0  0  0  0  0
    5.6610   -0.1425    0.0000 C   0  0  3  0  0  0  0  0  0  0  0  0
    6.5271    1.3575    0.0000 C   0  0  0  0  0  0  0  0  0  0  0  0
    8.3393    1.1623    0.0000 C   0  0  3  0  0  0  0  0  0  0  0  0
    8.3393   -0.4472    0.0000 C   0  0  0  0  0  0  0  0  0  0  0  0
    5.6610    0.8575    0.0000 C   0  0  0  0  0  0  0  0  0  0  0  0
    8.9229    0.3575    0.0000 C   0  0  0  0  0  0  0  0  0  0  0  0
    6.5431   -1.6840    0.0000 C   0  0  0  0  0  0  0  0  0  0  0  0
    4.7510   -0.6493    0.0000 C   0  0  3  0  0  0  0  0  0  0  0  0
    7.3931    1.8575    0.0000 C   0  0  0  0  0  0  0  0  0  0  0  0
    5.6451   -2.2117    0.0000 C   0  0  0  0  0  0  0  0  0  0  0  0
    4.7430   -1.6909    0.0000 C   0  0  0  0  0  0  0  0  0  0  0  0
    3.8242   -0.0852    0.0000 C   0  0  0  0  0  0  0  0  0  0  0  0
    3.8076   -2.2406    0.0000 C   0  0  0  0  0  0  0  0  0  0  0  0
    2.8763   -0.6132    0.0000 C   0  0  0  0  0  0  0  0  0  0  0  0
    2.8680   -1.6981    0.0000 C   0  0  0  0  0  0  0  0  0  0  0  0
    7.4830   -0.9877    0.0000 H   0  0  0  0  0  0  0  0  0  0  0  0
    7.2664   -1.0618    0.0000 H   0  0  0  0  0  0  0  0  0  0  0  0
    6.3972    0.2825    0.0000 H   0  0  0  0  0  0  0  0  0  0  0  0
    6.9256    1.8325    0.0000 H   0  0  0  0  0  0  0  0  0  0  0  0
    6.1285    1.8325    0.0000 H   0  0  0  0  0  0  0  0  0  0  0  0
    7.7396    1.7646    0.0000 H   0  0  0  0  0  0  0  0  0  0  0  0
    8.0883   -1.0141    0.0000 H   0  0  0  0  0  0  0  0  0  0  0  0
    8.8767   -0.7564    0.0000 H   0  0  0  0  0  0  0  0  0  0  0  0
    5.4490    1.4401    0.0000 H   0  0  0  0  0  0  0  0  0  0  0  0
    5.0504    0.7499    0.0000 H   0  0  0  0  0  0  0  0  0  0  0  0
    9.3838   -0.0572    0.0000 H   0  0  0  0  0  0  0  0  0  0  0  0
    9.3838    0.7723    0.0000 H   0  0  0  0  0  0  0  0  0  0  0  0
    6.7612   -2.2644    0.0000 H   0  0  0  0  0  0  0  0  0  0  0  0
    7.1523   -1.5685    0.0000 H   0  0  0  0  0  0  0  0  0  0  0  0
    8.0131    1.8575    0.0000 H   0  0  0  0  0  0  0  0  0  0  0  0
    7.3931    2.4775    0.0000 H   0  0  0  0  0  0  0  0  0  0  0  0
    6.7731    1.8575    0.0000 H   0  0  0  0  0  0  0  0  0  0  0  0
    5.2478   -2.6877    0.0000 H   0  0  0  0  0  0  0  0  0  0  0  0
    6.0460   -2.6846    0.0000 H   0  0  0  0  0  0  0  0  0  0  0  0
    3.8361    0.5347    0.0000 H   0  0  0  0  0  0  0  0  0  0  0  0
    9.2566    2.2406    0.0000 H   0  0  0  0  0  0  0  0  0  0  0  0
    3.8100   -2.8606    0.0000 H   0  0  0  0  0  0  0  0  0  0  0  0
    2.3430   -0.2970    0.0000 H   0  0  0  0  0  0  0  0  0  0  0  0
  1 14  1  0  0  0  0
  2  9  1  0  0  0  0
  2 42  1  0  0  0  0
  3 21  2  0  0  0  0
  4  5  1  0  0  0  0
  4  6  1  0  0  0  0
  4 10  1  0  0  0  0
  4 22  1  0  0  0  0
  5  8  1  0  0  0  0
  5  9  1  0  0  0  0
  5 15  1  0  0  0  0
  6  7  1  0  0  0  0
  6 13  1  0  0  0  0
  6 23  1  0  0  0  0
  7 11  1  0  0  0  0
  7 14  1  0  0  0  0
  7 24  1  0  0  0  0
  8 11  1  0  0  0  0
  8 25  1  0  0  0  0
  8 26  1  0  0  0  0
  9 12  1  0  0  0  0
  9 27  1  0  0  0  0
 10 12  1  0  0  0  0
 10 28  1  0  0  0  0
 10 29  1  0  0  0  0
 11 30  1  0  0  0  0
 11 31  1  0  0  0  0
 12 32  1  0  0  0  0
 12 33  1  0  0  0  0
 13 16  1  0  0  0  0
 13 34  1  0  0  0  0
 13 35  1  0  0  0  0
 14 17  1  0  0  0  0
 14 18  1  0  0  0  0
 15 36  1  0  0  0  0
 15 37  1  0  0  0  0
 15 38  1  0  0  0  0
 16 17  1  0  0  0  0
 16 39  1  0  0  0  0
 16 40  1  0  0  0  0
 17 19  2  0  0  0  0
 18 20  2  0  0  0  0
 18 41  1  0  0  0  0
 19 21  1  0  0  0  0
 19 43  1  0  0  0  0
 20 21  1  0  0  0  0
 20 44  1  0  0  0  0
M  END
> <PUBCHEM_COMPOUND_CID>
518911
> <PUBCHEM_COMPOUND_CANONICALIZED>
1
> <PUBCHEM_CACTVS_COMPLEXITY>
551
> <PUBCHEM_CACTVS_HBOND_ACCEPTOR>
3
> <PUBCHEM_CACTVS_HBOND_DONOR>
1
> <PUBCHEM_CACTVS_ROTATABLE_BOND>
0
> <PUBCHEM_CACTVS_SUBSKEYS>
AAADceB4MQAAAAAAAAAAAAAAAAAAAYAAAAAwYIAAAAAAAGDAAAAAGwAACAAADxSggAICAAAAAgCIAqBSAAAAAAAgAAAICAAAAEgAEAIAAQAAQAAEgAAIAYOAwPAPgAAAAAAAAACAAAQAACAAAIAADAAAAA==
> <PUBCHEM_IUPAC_OPENEYE_NAME>
10-fluoro-17-hydroxy-13-methyl-6,7,8,9,11,12,14,15,16,17-decahydrocyclopenta[a]phenanthren-3-one
> <PUBCHEM_IUPAC_CAS_NAME>
10-fluoro-17-hydroxy-13-methyl-6,7,8,9,11,12,14,15,16,17-decahydrocyclopenta[a]phenanthren-3-one
> <PUBCHEM_IUPAC_NAME_MARKUP>
10-fluoro-17-hydroxy-13-methyl-6,7,8,9,11,12,14,15,16,17-decahydrocyclopenta[a]phenanthren-3-one
> <PUBCHEM_IUPAC_NAME>
10-fluoro-17-hydroxy-13-methyl-6,7,8,9,11,12,14,15,16,17-decahydrocyclopenta[a]phenanthren-3-one
> <PUBCHEM_IUPAC_SYSTEMATIC_NAME>
10-fluoranyl-13-methyl-17-oxidanyl-6,7,8,9,11,12,14,15,16,17-decahydrocyclopenta[a]phenanthren-3-one
> <PUBCHEM_IUPAC_TRADITIONAL_NAME>
10-fluoro-17-hydroxy-13-methyl-6,7,8,9,11,12,14,15,16,17-decahydrocyclopenta[a]phenanthren-3-one
> <PUBCHEM_IUPAC_INCHI>
InChI=1S/C18H23FO2/c1-17-8-7-15-13(14(17)4-5-16(17)21)3-2-11-10-12(20)6-9-18(11,15)19/h6,9-10,13-16,21H,2-5,7-8H2,1H3
> <PUBCHEM_IUPAC_INCHIKEY>
KMESAHJOIFFQAU-UHFFFAOYSA-N
> <PUBCHEM_XLOGP3_AA>
2.7
> <PUBCHEM_EXACT_MASS>
290.16820813
> <PUBCHEM_MOLECULAR_FORMULA>
C18H23FO2
> <PUBCHEM_MOLECULAR_WEIGHT>
290.4
> <PUBCHEM_OPENEYE_CAN_SMILES>
CC12CCC3C(C1CCC2O)CCC4=CC(=O)C=CC34F
> <PUBCHEM_OPENEYE_ISO_SMILES>
CC12CCC3C(C1CCC2O)CCC4=CC(=O)C=CC34F
> <PUBCHEM_CACTVS_TPSA>
37.3
> <PUBCHEM_MONOISOTOPIC_WEIGHT>
290.16820813
> <PUBCHEM_TOTAL_CHARGE>
0
> <PUBCHEM_HEAVY_ATOM_COUNT>
21
> <PUBCHEM_ATOM_DEF_STEREO_COUNT>
0
> <PUBCHEM_ATOM_UDEF_STEREO_COUNT>
6
> <PUBCHEM_BOND_DEF_STEREO_COUNT>
0
> <PUBCHEM_BOND_UDEF_STEREO_COUNT>
0
> <PUBCHEM_ISOTOPIC_ATOM_COUNT>
0
> <PUBCHEM_COMPONENT_COUNT>
1
> <PUBCHEM_CACTVS_TAUTO_COUNT>
3
> <PUBCHEM_COORDINATE_TYPE>
1
5
255
> <PUBCHEM_BONDANNOTATIONS>
14  1  3
4  22  3
5  15  3
6  23  3
7  24  3
9  27  3
$$$$
