518919
  -OEChem-10302200292D
 53 58  0     1  0  0  0  0  0999 V2000
    4.8294   -1.1372    0.0000 O   0  0  0  0  0  0  0  0  0  0  0  0
    4.5981   -3.5922    0.0000 O   0  0  0  0  0  0  0  0  0  0  0  0
    4.5981    1.2122    0.0000 O   0  0  0  0  0  0  0  0  0  0  0  0
    8.7587   -2.1411    0.0000 N   0  0  3  0  0  0  0  0  0  0  0  0
    6.2878   -1.6656    0.0000 C   0  0  3  0  0  0  0  0  0  0  0  0
    7.1114   -2.1411    0.0000 C   0  0  3  0  0  0  0  0  0  0  0  0
    7.9351   -1.6656    0.0000 C   0  0  3  0  0  0  0  0  0  0  0  0
    5.4641   -2.1411    0.0000 C   0  0  3  0  0  0  0  0  0  0  0  0
    6.8373   -0.9681    0.0000 C   0  0  0  0  0  0  0  0  0  0  0  0
    6.2878   -0.7145    0.0000 C   0  0  0  0  0  0  0  0  0  0  0  0
    7.9351   -0.7145    0.0000 C   0  0  0  0  0  0  0  0  0  0  0  0
    8.1899   -0.9681    0.0000 C   0  0  0  0  0  0  0  0  0  0  0  0
    7.1114   -0.2389    0.0000 C   0  0  0  0  0  0  0  0  0  0  0  0
    5.4641   -3.0922    0.0000 C   0  0  3  0  0  0  0  0  0  0  0  0
    7.1114   -3.0922    0.0000 C   0  0  0  0  0  0  0  0  0  0  0  0
    5.4641   -0.2389    0.0000 C   0  0  0  0  0  0  0  0  0  0  0  0
    6.2878   -3.5677    0.0000 C   0  0  0  0  0  0  0  0  0  0  0  0
    7.1114    0.7121    0.0000 C   0  0  0  0  0  0  0  0  0  0  0  0
    9.4399   -2.8732    0.0000 C   0  0  0  0  0  0  0  0  0  0  0  0
    5.4641    0.7121    0.0000 C   0  0  0  0  0  0  0  0  0  0  0  0
    6.2878    1.1877    0.0000 C   0  0  0  0  0  0  0  0  0  0  0  0
    4.5981    2.2122    0.0000 C   0  0  0  0  0  0  0  0  0  0  0  0
    3.7320    2.7122    0.0000 C   0  0  0  0  0  0  0  0  0  0  0  0
    2.8660    2.2122    0.0000 C   0  0  0  0  0  0  0  0  0  0  0  0
    3.7320    3.7122    0.0000 C   0  0  0  0  0  0  0  0  0  0  0  0
    2.0000    2.7122    0.0000 C   0  0  0  0  0  0  0  0  0  0  0  0
    2.8660    4.2122    0.0000 C   0  0  0  0  0  0  0  0  0  0  0  0
    2.0000    3.7122    0.0000 C   0  0  0  0  0  0  0  0  0  0  0  0
    7.6483   -2.4511    0.0000 H   0  0  0  0  0  0  0  0  0  0  0  0
    8.4720   -1.3556    0.0000 H   0  0  0  0  0  0  0  0  0  0  0  0
    4.8686   -2.3135    0.0000 H   0  0  0  0  0  0  0  0  0  0  0  0
    6.9740   -0.3634    0.0000 H   0  0  0  0  0  0  0  0  0  0  0  0
    6.2776   -0.7013    0.0000 H   0  0  0  0  0  0  0  0  0  0  0  0
    8.5456   -0.8221    0.0000 H   0  0  0  0  0  0  0  0  0  0  0  0
    8.1471   -0.1319    0.0000 H   0  0  0  0  0  0  0  0  0  0  0  0
    8.7820   -0.7843    0.0000 H   0  0  0  0  0  0  0  0  0  0  0  0
    8.0969   -0.3551    0.0000 H   0  0  0  0  0  0  0  0  0  0  0  0
    5.4641   -3.7122    0.0000 H   0  0  0  0  0  0  0  0  0  0  0  0
    7.6483   -3.4022    0.0000 H   0  0  0  0  0  0  0  0  0  0  0  0
    6.2878   -4.1877    0.0000 H   0  0  0  0  0  0  0  0  0  0  0  0
    7.6483    1.0221    0.0000 H   0  0  0  0  0  0  0  0  0  0  0  0
    8.9860   -3.2955    0.0000 H   0  0  0  0  0  0  0  0  0  0  0  0
    9.8622   -3.3271    0.0000 H   0  0  0  0  0  0  0  0  0  0  0  0
    9.8938   -2.4509    0.0000 H   0  0  0  0  0  0  0  0  0  0  0  0
    6.2878    1.8077    0.0000 H   0  0  0  0  0  0  0  0  0  0  0  0
    4.5981   -4.2122    0.0000 H   0  0  0  0  0  0  0  0  0  0  0  0
    5.2086    2.1045    0.0000 H   0  0  0  0  0  0  0  0  0  0  0  0
    4.8101    2.7948    0.0000 H   0  0  0  0  0  0  0  0  0  0  0  0
    2.8660    1.5922    0.0000 H   0  0  0  0  0  0  0  0  0  0  0  0
    4.2690    4.0222    0.0000 H   0  0  0  0  0  0  0  0  0  0  0  0
    1.4631    2.4022    0.0000 H   0  0  0  0  0  0  0  0  0  0  0  0
    2.8660    4.8322    0.0000 H   0  0  0  0  0  0  0  0  0  0  0  0
    1.4631    4.0222    0.0000 H   0  0  0  0  0  0  0  0  0  0  0  0
  1  8  1  0  0  0  0
  1 16  1  0  0  0  0
  2 14  1  0  0  0  0
  2 46  1  0  0  0  0
  3 20  1  0  0  0  0
  3 22  1  0  0  0  0
  4  7  1  0  0  0  0
  4 12  1  0  0  0  0
  4 19  1  0  0  0  0
  5  6  1  0  0  0  0
  5  8  1  0  0  0  0
  5  9  1  0  0  0  0
  5 10  1  0  0  0  0
  6  7  1  0  0  0  0
  6 15  1  0  0  0  0
  6 29  1  0  0  0  0
  7 11  1  0  0  0  0
  7 30  1  0  0  0  0
  8 14  1  0  0  0  0
  8 31  1  0  0  0  0
  9 12  1  0  0  0  0
  9 32  1  0  0  0  0
  9 33  1  0  0  0  0
 10 13  2  0  0  0  0
 10 16  1  0  0  0  0
 11 13  1  0  0  0  0
 11 34  1  0  0  0  0
 11 35  1  0  0  0  0
 12 36  1  0  0  0  0
 12 37  1  0  0  0  0
 13 18  1  0  0  0  0
 14 17  1  0  0  0  0
 14 38  1  0  0  0  0
 15 17  2  0  0  0  0
 15 39  1  0  0  0  0
 16 20  2  0  0  0  0
 17 40  1  0  0  0  0
 18 21  2  0  0  0  0
 18 41  1  0  0  0  0
 19 42  1  0  0  0  0
 19 43  1  0  0  0  0
 19 44  1  0  0  0  0
 20 21  1  0  0  0  0
 21 45  1  0  0  0  0
 22 23  1  0  0  0  0
 22 47  1  0  0  0  0
 22 48  1  0  0  0  0
 23 24  2  0  0  0  0
 23 25  1  0  0  0  0
 24 26  1  0  0  0  0
 24 49  1  0  0  0  0
 25 27  2  0  0  0  0
 25 50  1  0  0  0  0
 26 28  2  0  0  0  0
 26 51  1  0  0  0  0
 27 28  1  0  0  0  0
 27 52  1  0  0  0  0
 28 53  1  0  0  0  0
M  END
> <PUBCHEM_COMPOUND_CID>
518919
> <PUBCHEM_COMPOUND_CANONICALIZED>
1
> <PUBCHEM_CACTVS_COMPLEXITY>
631
> <PUBCHEM_CACTVS_HBOND_ACCEPTOR>
4
> <PUBCHEM_CACTVS_HBOND_DONOR>
1
> <PUBCHEM_CACTVS_ROTATABLE_BOND>
3
> <PUBCHEM_CACTVS_SUBSKEYS>
AAADceB6MAAAAAAAAAAAAAAAAAAAASAAAAA8YMECAAAWAEjBQAAAHgAACAAADzzhmAYyBoMABgCAAiBCAAACCAAgIAAIiAAOiIgNNiKEsRuGeCKkwBGLuAew8P8PoAABAAAYQADQAAaAADSAAAAAAAAAAA==
> <PUBCHEM_IUPAC_OPENEYE_NAME>
9-benzyloxy-3-methyl-2,4,4a,7,7a,13-hexahydro-1H-4,12-methanobenzofuro[3,2-e]isoquinolin-7-ol
> <PUBCHEM_IUPAC_CAS_NAME>
3-methyl-9-phenylmethoxy-2,4,4a,7,7a,13-hexahydro-1H-4,12-methanobenzofuro[3,2-e]isoquinolin-7-ol
> <PUBCHEM_IUPAC_NAME_MARKUP>
3-methyl-9-phenylmethoxy-2,4,4<I>a</I>,7,7<I>a</I>,13-hexahydro-1<I>H</I>-4,12-methanobenzofuro[3,2-e]isoquinolin-7-ol
> <PUBCHEM_IUPAC_NAME>
3-methyl-9-phenylmethoxy-2,4,4a,7,7a,13-hexahydro-1H-4,12-methanobenzofuro[3,2-e]isoquinolin-7-ol
> <PUBCHEM_IUPAC_SYSTEMATIC_NAME>
3-methyl-9-phenylmethoxy-2,4,4a,7,7a,13-hexahydro-1H-4,12-methanobenzofuro[3,2-e]isoquinolin-7-ol
> <PUBCHEM_IUPAC_TRADITIONAL_NAME>
9-benzoxy-3-methyl-2,4,4a,7,7a,13-hexahydro-1H-4,12-methanobenzofuro[3,2-e]isoquinolin-7-ol
> <PUBCHEM_IUPAC_INCHI>
InChI=1S/C24H25NO3/c1-25-12-11-24-17-8-9-19(26)23(24)28-22-20(27-14-15-5-3-2-4-6-15)10-7-16(21(22)24)13-18(17)25/h2-10,17-19,23,26H,11-14H2,1H3
> <PUBCHEM_IUPAC_INCHIKEY>
RDJGWRFTDZZXSM-UHFFFAOYSA-N
> <PUBCHEM_XLOGP3>
2.6
> <PUBCHEM_EXACT_MASS>
375.18344366
> <PUBCHEM_MOLECULAR_FORMULA>
C24H25NO3
> <PUBCHEM_MOLECULAR_WEIGHT>
375.5
> <PUBCHEM_OPENEYE_CAN_SMILES>
CN1CCC23C4C1CC5=C2C(=C(C=C5)OCC6=CC=CC=C6)OC3C(C=C4)O
> <PUBCHEM_OPENEYE_ISO_SMILES>
CN1CCC23C4C1CC5=C2C(=C(C=C5)OCC6=CC=CC=C6)OC3C(C=C4)O
> <PUBCHEM_CACTVS_TPSA>
41.9
> <PUBCHEM_MONOISOTOPIC_WEIGHT>
375.18344366
> <PUBCHEM_TOTAL_CHARGE>
0
> <PUBCHEM_HEAVY_ATOM_COUNT>
28
> <PUBCHEM_ATOM_DEF_STEREO_COUNT>
0
> <PUBCHEM_ATOM_UDEF_STEREO_COUNT>
5
> <PUBCHEM_BOND_DEF_STEREO_COUNT>
0
> <PUBCHEM_BOND_UDEF_STEREO_COUNT>
0
> <PUBCHEM_ISOTOPIC_ATOM_COUNT>
0
> <PUBCHEM_COMPONENT_COUNT>
1
> <PUBCHEM_CACTVS_TAUTO_COUNT>
-1
> <PUBCHEM_COORDINATE_TYPE>
1
5
255
> <PUBCHEM_BONDANNOTATIONS>
8  1  3
10  13  8
10  16  8
13  18  8
16  20  8
18  21  8
14  2  3
20  21  8
23  24  8
23  25  8
24  26  8
25  27  8
26  28  8
27  28  8
5  9  3
6  15  3
7  11  3
$$$$
