518950
  -OEChem-10302200292D
 38 40  0     1  0  0  0  0  0999 V2000
    3.6730   -0.0699    0.0000 C   0  0  0  0  0  0  0  0  0  0  0  0
    4.5092   -1.5182    0.0000 C   0  0  0  0  0  0  0  0  0  0  0  0
    2.8368   -1.5182    0.0000 C   0  0  0  0  0  0  0  0  0  0  0  0
    2.9819   -1.9533    0.0000 C   0  0  0  0  0  0  0  0  0  0  0  0
    4.5092   -0.5527    0.0000 C   0  0  0  0  0  0  0  0  0  0  0  0
    2.8368   -0.5527    0.0000 C   0  0  0  0  0  0  0  0  0  0  0  0
    2.9819   -0.9080    0.0000 C   0  0  0  0  0  0  0  0  0  0  0  0
    3.6730   -1.8210    0.0000 C   0  0  0  0  0  0  0  0  0  0  0  0
    3.8876   -2.4301    0.0000 C   0  0  0  0  0  0  0  0  0  0  0  0
    2.0000   -2.0010    0.0000 C   0  0  0  0  0  0  0  0  0  0  0  0
    3.6730    0.9301    0.0000 C   0  0  3  0  0  0  0  0  0  0  0  0
    4.5390    1.4301    0.0000 C   0  0  0  0  0  0  0  0  0  0  0  0
    2.8070    1.4301    0.0000 C   0  0  0  0  0  0  0  0  0  0  0  0
    4.5390    2.4301    0.0000 C   0  0  0  0  0  0  0  0  0  0  0  0
    5.1016   -1.7009    0.0000 H   0  0  0  0  0  0  0  0  0  0  0  0
    3.3444   -1.1622    0.0000 H   0  0  0  0  0  0  0  0  0  0  0  0
    2.8478   -2.5586    0.0000 H   0  0  0  0  0  0  0  0  0  0  0  0
    5.1198   -0.6603    0.0000 H   0  0  0  0  0  0  0  0  0  0  0  0
    4.7212    0.0299    0.0000 H   0  0  0  0  0  0  0  0  0  0  0  0
    2.6247    0.0299    0.0000 H   0  0  0  0  0  0  0  0  0  0  0  0
    2.2262   -0.6603    0.0000 H   0  0  0  0  0  0  0  0  0  0  0  0
    2.6383   -0.3920    0.0000 H   0  0  0  0  0  0  0  0  0  0  0  0
    2.3885   -1.0875    0.0000 H   0  0  0  0  0  0  0  0  0  0  0  0
    3.3030   -2.3185    0.0000 H   0  0  0  0  0  0  0  0  0  0  0  0
    4.0430   -2.3185    0.0000 H   0  0  0  0  0  0  0  0  0  0  0  0
    3.5782   -2.9674    0.0000 H   0  0  0  0  0  0  0  0  0  0  0  0
    4.4127   -2.7597    0.0000 H   0  0  0  0  0  0  0  0  0  0  0  0
    1.5188   -1.6101    0.0000 H   0  0  0  0  0  0  0  0  0  0  0  0
    1.8068   -2.5901    0.0000 H   0  0  0  0  0  0  0  0  0  0  0  0
    3.1361    0.6201    0.0000 H   0  0  0  0  0  0  0  0  0  0  0  0
    4.7511    0.8475    0.0000 H   0  0  0  0  0  0  0  0  0  0  0  0
    5.1496    1.5378    0.0000 H   0  0  0  0  0  0  0  0  0  0  0  0
    3.1170    1.9670    0.0000 H   0  0  0  0  0  0  0  0  0  0  0  0
    2.2700    1.7401    0.0000 H   0  0  0  0  0  0  0  0  0  0  0  0
    2.4970    0.8932    0.0000 H   0  0  0  0  0  0  0  0  0  0  0  0
    5.1590    2.4301    0.0000 H   0  0  0  0  0  0  0  0  0  0  0  0
    4.5390    3.0501    0.0000 H   0  0  0  0  0  0  0  0  0  0  0  0
    3.9190    2.4301    0.0000 H   0  0  0  0  0  0  0  0  0  0  0  0
  1  5  1  0  0  0  0
  1  6  1  0  0  0  0
  1  7  1  0  0  0  0
  1 11  1  0  0  0  0
  2  5  1  0  0  0  0
  2  8  1  0  0  0  0
  2  9  1  0  0  0  0
  2 15  1  0  0  0  0
  3  6  1  0  0  0  0
  3  8  1  0  0  0  0
  3 10  1  0  0  0  0
  3 16  1  0  0  0  0
  4  7  1  0  0  0  0
  4  9  1  0  0  0  0
  4 10  1  0  0  0  0
  4 17  1  0  0  0  0
  5 18  1  0  0  0  0
  5 19  1  0  0  0  0
  6 20  1  0  0  0  0
  6 21  1  0  0  0  0
  7 22  1  0  0  0  0
  7 23  1  0  0  0  0
  8 24  1  0  0  0  0
  8 25  1  0  0  0  0
  9 26  1  0  0  0  0
  9 27  1  0  0  0  0
 10 28  1  0  0  0  0
 10 29  1  0  0  0  0
 11 12  1  0  0  0  0
 11 13  1  0  0  0  0
 11 30  1  0  0  0  0
 12 14  1  0  0  0  0
 12 31  1  0  0  0  0
 12 32  1  0  0  0  0
 13 33  1  0  0  0  0
 13 34  1  0  0  0  0
 13 35  1  0  0  0  0
 14 36  1  0  0  0  0
 14 37  1  0  0  0  0
 14 38  1  0  0  0  0
M  END
> <PUBCHEM_COMPOUND_CID>
518950
> <PUBCHEM_COMPOUND_CANONICALIZED>
1
> <PUBCHEM_CACTVS_COMPLEXITY>
187
> <PUBCHEM_CACTVS_HBOND_ACCEPTOR>
0
> <PUBCHEM_CACTVS_HBOND_DONOR>
0
> <PUBCHEM_CACTVS_ROTATABLE_BOND>
2
> <PUBCHEM_CACTVS_SUBSKEYS>
AAADceBwAAAAAAAAAAAAAAAAAAAAAAAAAAAwYMGAAAAAAAAAAAAAGAAAAAAADwCAAAACAAAAAAAAAAAAAAAAAAAAAAAAAAAAAAAAAAIAAAAAAAAAAAAAAAEAgMAPgAAAAAAAAAAAAAQAAAAAAAAAAAAAAA==
> <PUBCHEM_IUPAC_OPENEYE_NAME>
1-sec-butyladamantane
> <PUBCHEM_IUPAC_CAS_NAME>
1-butan-2-yladamantane
> <PUBCHEM_IUPAC_NAME_MARKUP>
1-butan-2-yladamantane
> <PUBCHEM_IUPAC_NAME>
1-butan-2-yladamantane
> <PUBCHEM_IUPAC_SYSTEMATIC_NAME>
1-butan-2-yladamantane
> <PUBCHEM_IUPAC_TRADITIONAL_NAME>
1-sec-butyladamantane
> <PUBCHEM_IUPAC_INCHI>
InChI=1S/C14H24/c1-3-10(2)14-7-11-4-12(8-14)6-13(5-11)9-14/h10-13H,3-9H2,1-2H3
> <PUBCHEM_IUPAC_INCHIKEY>
JEURJPFZYYKZIK-UHFFFAOYSA-N
> <PUBCHEM_XLOGP3_AA>
5.6
> <PUBCHEM_EXACT_MASS>
192.187800766
> <PUBCHEM_MOLECULAR_FORMULA>
C14H24
> <PUBCHEM_MOLECULAR_WEIGHT>
192.34
> <PUBCHEM_OPENEYE_CAN_SMILES>
CCC(C)C12CC3CC(C1)CC(C3)C2
> <PUBCHEM_OPENEYE_ISO_SMILES>
CCC(C)C12CC3CC(C1)CC(C3)C2
> <PUBCHEM_CACTVS_TPSA>
0
> <PUBCHEM_MONOISOTOPIC_WEIGHT>
192.187800766
> <PUBCHEM_TOTAL_CHARGE>
0
> <PUBCHEM_HEAVY_ATOM_COUNT>
14
> <PUBCHEM_ATOM_DEF_STEREO_COUNT>
0
> <PUBCHEM_ATOM_UDEF_STEREO_COUNT>
1
> <PUBCHEM_BOND_DEF_STEREO_COUNT>
0
> <PUBCHEM_BOND_UDEF_STEREO_COUNT>
0
> <PUBCHEM_ISOTOPIC_ATOM_COUNT>
0
> <PUBCHEM_COMPONENT_COUNT>
1
> <PUBCHEM_CACTVS_TAUTO_COUNT>
-1
> <PUBCHEM_COORDINATE_TYPE>
1
5
255
> <PUBCHEM_BONDANNOTATIONS>
11  13  3
$$$$
