519014
  -OEChem-10302200292D
 32 31  0     1  0  0  0  0  0999 V2000
    3.0000    2.6200    0.0000 Cl  0  0  0  0  0  0  0  0  0  0  0  0
    6.4641    2.6200    0.0000 Cl  0  0  0  0  0  0  0  0  0  0  0  0
    0.0000    3.3700    0.0000 Cl  0  0  0  0  0  0  0  0  0  0  0  0
    4.7320    3.6200    0.0000 O   0  0  0  0  0  0  0  0  0  0  0  0
    6.4641    5.6200    0.0000 N   0  0  0  0  0  0  0  0  0  0  0  0
    5.5981    4.1200    0.0000 C   0  0  3  0  0  0  0  0  0  0  0  0
    5.5981    5.1200    0.0000 C   0  0  0  0  0  0  0  0  0  0  0  0
    6.4641    3.6200    0.0000 C   0  0  0  0  0  0  0  0  0  0  0  0
    6.4641    6.6200    0.0000 C   0  0  0  0  0  0  0  0  0  0  0  0
    7.3301    5.1200    0.0000 C   0  0  0  0  0  0  0  0  0  0  0  0
    4.7320    2.6200    0.0000 C   0  0  0  0  0  0  0  0  0  0  0  0
    3.8660    2.1200    0.0000 C   0  0  0  0  0  0  0  0  0  0  0  0
    5.5981    2.1200    0.0000 C   0  0  0  0  0  0  0  0  0  0  0  0
    3.8660    1.1200    0.0000 C   0  0  0  0  0  0  0  0  0  0  0  0
    5.5981    1.1200    0.0000 C   0  0  0  0  0  0  0  0  0  0  0  0
    4.7320    0.6200    0.0000 C   0  0  0  0  0  0  0  0  0  0  0  0
    5.5981    3.5000    0.0000 H   0  0  0  0  0  0  0  0  0  0  0  0
    5.3860    5.7026    0.0000 H   0  0  0  0  0  0  0  0  0  0  0  0
    4.9875    5.0123    0.0000 H   0  0  0  0  0  0  0  0  0  0  0  0
    6.1541    3.0831    0.0000 H   0  0  0  0  0  0  0  0  0  0  0  0
    7.0010    3.3100    0.0000 H   0  0  0  0  0  0  0  0  0  0  0  0
    6.7741    4.1569    0.0000 H   0  0  0  0  0  0  0  0  0  0  0  0
    7.0841    6.6200    0.0000 H   0  0  0  0  0  0  0  0  0  0  0  0
    6.4641    7.2400    0.0000 H   0  0  0  0  0  0  0  0  0  0  0  0
    5.8441    6.6200    0.0000 H   0  0  0  0  0  0  0  0  0  0  0  0
    7.0201    4.5831    0.0000 H   0  0  0  0  0  0  0  0  0  0  0  0
    7.8671    4.8100    0.0000 H   0  0  0  0  0  0  0  0  0  0  0  0
    7.6401    5.6569    0.0000 H   0  0  0  0  0  0  0  0  0  0  0  0
    3.3291    0.8100    0.0000 H   0  0  0  0  0  0  0  0  0  0  0  0
    6.1350    0.8100    0.0000 H   0  0  0  0  0  0  0  0  0  0  0  0
    4.7320    0.0000    0.0000 H   0  0  0  0  0  0  0  0  0  0  0  0
    1.0000    3.3700    0.0000 H   0  0  0  0  0  0  0  0  0  0  0  0
  1 12  1  0  0  0  0
  2 13  1  0  0  0  0
  3 32  1  0  0  0  0
  4  6  1  0  0  0  0
  4 11  1  0  0  0  0
  5  7  1  0  0  0  0
  5  9  1  0  0  0  0
  5 10  1  0  0  0  0
  6  7  1  0  0  0  0
  6  8  1  0  0  0  0
  6 17  1  0  0  0  0
  7 18  1  0  0  0  0
  7 19  1  0  0  0  0
  8 20  1  0  0  0  0
  8 21  1  0  0  0  0
  8 22  1  0  0  0  0
  9 23  1  0  0  0  0
  9 24  1  0  0  0  0
  9 25  1  0  0  0  0
 10 26  1  0  0  0  0
 10 27  1  0  0  0  0
 10 28  1  0  0  0  0
 11 12  2  0  0  0  0
 11 13  1  0  0  0  0
 12 14  1  0  0  0  0
 13 15  2  0  0  0  0
 14 16  2  0  0  0  0
 14 29  1  0  0  0  0
 15 16  1  0  0  0  0
 15 30  1  0  0  0  0
 16 31  1  0  0  0  0
M  END
> <PUBCHEM_COMPOUND_CID>
519014
> <PUBCHEM_COMPOUND_CANONICALIZED>
1
> <PUBCHEM_CACTVS_COMPLEXITY>
179
> <PUBCHEM_CACTVS_HBOND_ACCEPTOR>
2
> <PUBCHEM_CACTVS_HBOND_DONOR>
1
> <PUBCHEM_CACTVS_ROTATABLE_BOND>
4
> <PUBCHEM_CACTVS_SUBSKEYS>
AAADceByIAAGAAAAAAAAAAAAAAAAAAAAAAAwAAAAAAAAAAABAAAAHgIAAAAACBbhkCYyBoMABACAACBCAAACCAAgJUAIiAAMC4gOJiOFMxqHOCCkwBEYqAeAQAAAAAAAAACACAAAAAAAAQAQAAAAAAAAAA==
> <PUBCHEM_IUPAC_OPENEYE_NAME>
2-(2,6-dichlorophenoxy)-N,N-dimethyl-propan-1-amine;hydrochloride
> <PUBCHEM_IUPAC_CAS_NAME>
2-(2,6-dichlorophenoxy)-N,N-dimethyl-1-propanamine;hydrochloride
> <PUBCHEM_IUPAC_NAME_MARKUP>
2-(2,6-dichlorophenoxy)-<I>N</I>,<I>N</I>-dimethylpropan-1-amine;hydrochloride
> <PUBCHEM_IUPAC_NAME>
2-(2,6-dichlorophenoxy)-N,N-dimethylpropan-1-amine;hydrochloride
> <PUBCHEM_IUPAC_SYSTEMATIC_NAME>
2-[2,6-bis(chloranyl)phenoxy]-N,N-dimethyl-propan-1-amine;hydrochloride
> <PUBCHEM_IUPAC_TRADITIONAL_NAME>
2-(2,6-dichlorophenoxy)propyl-dimethyl-amine;hydrochloride
> <PUBCHEM_IUPAC_INCHI>
InChI=1S/C11H15Cl2NO.ClH/c1-8(7-14(2)3)15-11-9(12)5-4-6-10(11)13;/h4-6,8H,7H2,1-3H3;1H
> <PUBCHEM_IUPAC_INCHIKEY>
AWQLSDWSCCCQEQ-UHFFFAOYSA-N
> <PUBCHEM_EXACT_MASS>
283.029747
> <PUBCHEM_MOLECULAR_FORMULA>
C11H16Cl3NO
> <PUBCHEM_MOLECULAR_WEIGHT>
284.6
> <PUBCHEM_OPENEYE_CAN_SMILES>
CC(CN(C)C)OC1=C(C=CC=C1Cl)Cl.Cl
> <PUBCHEM_OPENEYE_ISO_SMILES>
CC(CN(C)C)OC1=C(C=CC=C1Cl)Cl.Cl
> <PUBCHEM_CACTVS_TPSA>
12.5
> <PUBCHEM_MONOISOTOPIC_WEIGHT>
283.029747
> <PUBCHEM_TOTAL_CHARGE>
0
> <PUBCHEM_HEAVY_ATOM_COUNT>
16
> <PUBCHEM_ATOM_DEF_STEREO_COUNT>
0
> <PUBCHEM_ATOM_UDEF_STEREO_COUNT>
1
> <PUBCHEM_BOND_DEF_STEREO_COUNT>
0
> <PUBCHEM_BOND_UDEF_STEREO_COUNT>
0
> <PUBCHEM_ISOTOPIC_ATOM_COUNT>
0
> <PUBCHEM_COMPONENT_COUNT>
2
> <PUBCHEM_CACTVS_TAUTO_COUNT>
-1
> <PUBCHEM_COORDINATE_TYPE>
1
5
255
> <PUBCHEM_BONDANNOTATIONS>
11  12  8
11  13  8
12  14  8
13  15  8
14  16  8
15  16  8
6  8  3
$$$$
