519019
  -OEChem-10302200292D
 47 49  0     1  0  0  0  0  0999 V2000
    2.3100   -0.6464    0.0000 O   0  0  0  0  0  0  0  0  0  0  0  0
    5.7242   -0.6464    0.0000 N   0  0  0  0  0  0  0  0  0  0  0  0
    4.0171    0.0607    0.0000 C   0  0  0  0  0  0  0  0  0  0  0  0
    4.7242   -0.6464    0.0000 C   0  0  3  0  0  0  0  0  0  0  0  0
    4.0171   -1.3536    0.0000 C   0  0  0  0  0  0  0  0  0  0  0  0
    3.3100   -0.6464    0.0000 C   0  0  3  0  0  0  0  0  0  0  0  0
    3.1511    0.5607    0.0000 C   0  0  0  0  0  0  0  0  0  0  0  0
    4.8831    0.5607    0.0000 C   0  0  0  0  0  0  0  0  0  0  0  0
    3.3100   -2.0607    0.0000 C   0  0  0  0  0  0  0  0  0  0  0  0
    4.7242   -2.0607    0.0000 C   0  0  0  0  0  0  0  0  0  0  0  0
    3.1511    1.5607    0.0000 C   0  0  0  0  0  0  0  0  0  0  0  0
    4.8831    1.5607    0.0000 C   0  0  0  0  0  0  0  0  0  0  0  0
    4.0171    2.0607    0.0000 C   0  0  0  0  0  0  0  0  0  0  0  0
    6.2242   -1.5125    0.0000 C   0  0  0  0  0  0  0  0  0  0  0  0
    6.2242    0.2196    0.0000 C   0  0  0  0  0  0  0  0  0  0  0  0
    7.2242   -1.5125    0.0000 C   0  0  0  0  0  0  0  0  0  0  0  0
    7.2242    0.2196    0.0000 C   0  0  0  0  0  0  0  0  0  0  0  0
    7.7242   -0.6464    0.0000 C   0  0  0  0  0  0  0  0  0  0  0  0
    4.9615   -1.2192    0.0000 H   0  0  0  0  0  0  0  0  0  0  0  0
    3.0727   -0.0736    0.0000 H   0  0  0  0  0  0  0  0  0  0  0  0
    2.5405    0.6683    0.0000 H   0  0  0  0  0  0  0  0  0  0  0  0
    2.9390   -0.0219    0.0000 H   0  0  0  0  0  0  0  0  0  0  0  0
    5.0952   -0.0219    0.0000 H   0  0  0  0  0  0  0  0  0  0  0  0
    5.4937    0.6683    0.0000 H   0  0  0  0  0  0  0  0  0  0  0  0
    2.8716   -1.6222    0.0000 H   0  0  0  0  0  0  0  0  0  0  0  0
    2.8716   -2.4991    0.0000 H   0  0  0  0  0  0  0  0  0  0  0  0
    3.7484   -2.4991    0.0000 H   0  0  0  0  0  0  0  0  0  0  0  0
    4.2858   -2.4991    0.0000 H   0  0  0  0  0  0  0  0  0  0  0  0
    5.1626   -2.4991    0.0000 H   0  0  0  0  0  0  0  0  0  0  0  0
    5.1626   -1.6222    0.0000 H   0  0  0  0  0  0  0  0  0  0  0  0
    2.9390    2.1433    0.0000 H   0  0  0  0  0  0  0  0  0  0  0  0
    2.5405    1.4530    0.0000 H   0  0  0  0  0  0  0  0  0  0  0  0
    5.4937    1.4530    0.0000 H   0  0  0  0  0  0  0  0  0  0  0  0
    5.0952    2.1433    0.0000 H   0  0  0  0  0  0  0  0  0  0  0  0
    4.4156    2.5356    0.0000 H   0  0  0  0  0  0  0  0  0  0  0  0
    3.6186    2.5356    0.0000 H   0  0  0  0  0  0  0  0  0  0  0  0
    5.6416   -1.7245    0.0000 H   0  0  0  0  0  0  0  0  0  0  0  0
    6.3319   -2.1230    0.0000 H   0  0  0  0  0  0  0  0  0  0  0  0
    6.3319    0.8302    0.0000 H   0  0  0  0  0  0  0  0  0  0  0  0
    5.6416    0.4316    0.0000 H   0  0  0  0  0  0  0  0  0  0  0  0
    2.0000   -1.1834    0.0000 H   0  0  0  0  0  0  0  0  0  0  0  0
    7.1166   -2.1230    0.0000 H   0  0  0  0  0  0  0  0  0  0  0  0
    7.8068   -1.7245    0.0000 H   0  0  0  0  0  0  0  0  0  0  0  0
    7.8068    0.4316    0.0000 H   0  0  0  0  0  0  0  0  0  0  0  0
    7.1166    0.8302    0.0000 H   0  0  0  0  0  0  0  0  0  0  0  0
    8.1992   -1.0450    0.0000 H   0  0  0  0  0  0  0  0  0  0  0  0
    8.1992   -0.2479    0.0000 H   0  0  0  0  0  0  0  0  0  0  0  0
  1  6  1  0  0  0  0
  1 41  1  0  0  0  0
  2  4  1  0  0  0  0
  2 14  1  0  0  0  0
  2 15  1  0  0  0  0
  3  4  1  0  0  0  0
  3  6  1  0  0  0  0
  3  7  1  0  0  0  0
  3  8  1  0  0  0  0
  4  5  1  0  0  0  0
  4 19  1  0  0  0  0
  5  6  1  0  0  0  0
  5  9  1  0  0  0  0
  5 10  1  0  0  0  0
  6 20  1  0  0  0  0
  7 11  1  0  0  0  0
  7 21  1  0  0  0  0
  7 22  1  0  0  0  0
  8 12  1  0  0  0  0
  8 23  1  0  0  0  0
  8 24  1  0  0  0  0
  9 25  1  0  0  0  0
  9 26  1  0  0  0  0
  9 27  1  0  0  0  0
 10 28  1  0  0  0  0
 10 29  1  0  0  0  0
 10 30  1  0  0  0  0
 11 13  1  0  0  0  0
 11 31  1  0  0  0  0
 11 32  1  0  0  0  0
 12 13  1  0  0  0  0
 12 33  1  0  0  0  0
 12 34  1  0  0  0  0
 13 35  1  0  0  0  0
 13 36  1  0  0  0  0
 14 16  1  0  0  0  0
 14 37  1  0  0  0  0
 14 38  1  0  0  0  0
 15 17  1  0  0  0  0
 15 39  1  0  0  0  0
 15 40  1  0  0  0  0
 16 18  1  0  0  0  0
 16 42  1  0  0  0  0
 16 43  1  0  0  0  0
 17 18  1  0  0  0  0
 17 44  1  0  0  0  0
 17 45  1  0  0  0  0
 18 46  1  0  0  0  0
 18 47  1  0  0  0  0
M  END
> <PUBCHEM_COMPOUND_CID>
519019
> <PUBCHEM_COMPOUND_CANONICALIZED>
1
> <PUBCHEM_CACTVS_COMPLEXITY>
300
> <PUBCHEM_CACTVS_HBOND_ACCEPTOR>
2
> <PUBCHEM_CACTVS_HBOND_DONOR>
1
> <PUBCHEM_CACTVS_ROTATABLE_BOND>
1
> <PUBCHEM_CACTVS_SUBSKEYS>
AAADceB6IAAAAAAAAAAAAAAAAABgAAAAAAA8QAAAAAAAAAAAAAAAHgAACAAADjzhgAYCAAMAAgAAAAAAAAAAAAAAAAAAAAAIAAAAEAIAgAAEQAAGAACAAAGQwOAPAAAAAAAAAAAAAAAAAAAAAAAAAAAAAA==
> <PUBCHEM_IUPAC_OPENEYE_NAME>
2,2-dimethyl-1-(1-piperidyl)spiro[3.5]nonan-3-ol
> <PUBCHEM_IUPAC_CAS_NAME>
2,2-dimethyl-1-(1-piperidinyl)-3-spiro[3.5]nonanol
> <PUBCHEM_IUPAC_NAME_MARKUP>
2,2-dimethyl-1-piperidin-1-ylspiro[3.5]nonan-3-ol
> <PUBCHEM_IUPAC_NAME>
2,2-dimethyl-1-piperidin-1-ylspiro[3.5]nonan-3-ol
> <PUBCHEM_IUPAC_SYSTEMATIC_NAME>
2,2-dimethyl-1-piperidin-1-yl-spiro[3.5]nonan-3-ol
> <PUBCHEM_IUPAC_TRADITIONAL_NAME>
2,2-dimethyl-1-piperidino-spiro[3.5]nonan-3-ol
> <PUBCHEM_IUPAC_INCHI>
InChI=1S/C16H29NO/c1-15(2)13(17-11-7-4-8-12-17)16(14(15)18)9-5-3-6-10-16/h13-14,18H,3-12H2,1-2H3
> <PUBCHEM_IUPAC_INCHIKEY>
GGMXAOMOXTXJBU-UHFFFAOYSA-N
> <PUBCHEM_XLOGP3_AA>
3.7
> <PUBCHEM_EXACT_MASS>
251.224914549
> <PUBCHEM_MOLECULAR_FORMULA>
C16H29NO
> <PUBCHEM_MOLECULAR_WEIGHT>
251.41
> <PUBCHEM_OPENEYE_CAN_SMILES>
CC1(C(C2(C1O)CCCCC2)N3CCCCC3)C
> <PUBCHEM_OPENEYE_ISO_SMILES>
CC1(C(C2(C1O)CCCCC2)N3CCCCC3)C
> <PUBCHEM_CACTVS_TPSA>
23.5
> <PUBCHEM_MONOISOTOPIC_WEIGHT>
251.224914549
> <PUBCHEM_TOTAL_CHARGE>
0
> <PUBCHEM_HEAVY_ATOM_COUNT>
18
> <PUBCHEM_ATOM_DEF_STEREO_COUNT>
0
> <PUBCHEM_ATOM_UDEF_STEREO_COUNT>
2
> <PUBCHEM_BOND_DEF_STEREO_COUNT>
0
> <PUBCHEM_BOND_UDEF_STEREO_COUNT>
0
> <PUBCHEM_ISOTOPIC_ATOM_COUNT>
0
> <PUBCHEM_COMPONENT_COUNT>
1
> <PUBCHEM_CACTVS_TAUTO_COUNT>
-1
> <PUBCHEM_COORDINATE_TYPE>
1
5
255
> <PUBCHEM_BONDANNOTATIONS>
6  1  3
4  2  3
$$$$
