519050
  -OEChem-10302200292D
 26 28  0     1  0  0  0  0  0999 V2000
    4.2320    0.7500    0.0000 C   0  0  3  0  0  0  0  0  0  0  0  0
    3.3660    0.2500    0.0000 C   0  0  3  0  0  0  0  0  0  0  0  0
    3.3660    1.2500    0.0000 C   0  0  0  0  0  0  0  0  0  0  0  0
    4.7320   -0.1160    0.0000 C   0  0  0  0  0  0  0  0  0  0  0  0
    2.8660   -0.6160    0.0000 C   0  0  0  0  0  0  0  0  0  0  0  0
    4.7320   -1.1160    0.0000 C   0  0  0  0  0  0  0  0  0  0  0  0
    5.5981   -0.6160    0.0000 C   0  0  0  0  0  0  0  0  0  0  0  0
    2.0000   -1.1160    0.0000 C   0  0  0  0  0  0  0  0  0  0  0  0
    2.8660   -1.6160    0.0000 C   0  0  0  0  0  0  0  0  0  0  0  0
    4.7320    1.6160    0.0000 C   0  0  0  0  0  0  0  0  0  0  0  0
    2.7672    0.4105    0.0000 H   0  0  0  0  0  0  0  0  0  0  0  0
    3.5781    1.8326    0.0000 H   0  0  0  0  0  0  0  0  0  0  0  0
    2.7554    1.3577    0.0000 H   0  0  0  0  0  0  0  0  0  0  0  0
    4.1332   -0.2765    0.0000 H   0  0  0  0  0  0  0  0  0  0  0  0
    2.4276   -0.1776    0.0000 H   0  0  0  0  0  0  0  0  0  0  0  0
    4.1215   -1.2237    0.0000 H   0  0  0  0  0  0  0  0  0  0  0  0
    4.9441   -1.6986    0.0000 H   0  0  0  0  0  0  0  0  0  0  0  0
    5.9966   -1.0910    0.0000 H   0  0  0  0  0  0  0  0  0  0  0  0
    5.9966   -0.1411    0.0000 H   0  0  0  0  0  0  0  0  0  0  0  0
    1.6015   -0.6411    0.0000 H   0  0  0  0  0  0  0  0  0  0  0  0
    1.6015   -1.5910    0.0000 H   0  0  0  0  0  0  0  0  0  0  0  0
    2.6540   -2.1986    0.0000 H   0  0  0  0  0  0  0  0  0  0  0  0
    3.4766   -1.7237    0.0000 H   0  0  0  0  0  0  0  0  0  0  0  0
    5.2690    1.3060    0.0000 H   0  0  0  0  0  0  0  0  0  0  0  0
    5.0420    2.1530    0.0000 H   0  0  0  0  0  0  0  0  0  0  0  0
    4.1951    1.9260    0.0000 H   0  0  0  0  0  0  0  0  0  0  0  0
  1  2  1  0  0  0  0
  1  3  1  0  0  0  0
  1  4  1  0  0  0  0
  1 10  1  0  0  0  0
  2  3  1  0  0  0  0
  2  5  1  0  0  0  0
  2 11  1  0  0  0  0
  3 12  1  0  0  0  0
  3 13  1  0  0  0  0
  4  6  1  0  0  0  0
  4  7  1  0  0  0  0
  4 14  1  0  0  0  0
  5  8  1  0  0  0  0
  5  9  1  0  0  0  0
  5 15  1  0  0  0  0
  6  7  1  0  0  0  0
  6 16  1  0  0  0  0
  6 17  1  0  0  0  0
  7 18  1  0  0  0  0
  7 19  1  0  0  0  0
  8  9  1  0  0  0  0
  8 20  1  0  0  0  0
  8 21  1  0  0  0  0
  9 22  1  0  0  0  0
  9 23  1  0  0  0  0
 10 24  1  0  0  0  0
 10 25  1  0  0  0  0
 10 26  1  0  0  0  0
M  END
> <PUBCHEM_COMPOUND_CID>
519050
> <PUBCHEM_COMPOUND_CANONICALIZED>
1
> <PUBCHEM_CACTVS_COMPLEXITY>
165
> <PUBCHEM_CACTVS_HBOND_ACCEPTOR>
0
> <PUBCHEM_CACTVS_HBOND_DONOR>
0
> <PUBCHEM_CACTVS_ROTATABLE_BOND>
2
> <PUBCHEM_CACTVS_SUBSKEYS>
AAADceBwAAAAAAAAAAAAAAAAGDAAAAAAAAAAAAAAAAAAAAAAAAAAGAAAAAAADwCAAAACAAAAAAAAAAAAAAAAAAAAAAAAAAAAAAAAAAIAAAAAAAAAAAAAAAEAgMAPgAAAAAAAAAAAAAAAAAAAAAAAAAAAAA==
> <PUBCHEM_IUPAC_OPENEYE_NAME>
1,2-dicyclopropyl-1-methyl-cyclopropane
> <PUBCHEM_IUPAC_CAS_NAME>
1,2-dicyclopropyl-1-methylcyclopropane
> <PUBCHEM_IUPAC_NAME_MARKUP>
1,2-dicyclopropyl-1-methylcyclopropane
> <PUBCHEM_IUPAC_NAME>
1,2-dicyclopropyl-1-methylcyclopropane
> <PUBCHEM_IUPAC_SYSTEMATIC_NAME>
1,2-dicyclopropyl-1-methyl-cyclopropane
> <PUBCHEM_IUPAC_TRADITIONAL_NAME>
1,2-dicyclopropyl-1-methyl-cyclopropane
> <PUBCHEM_IUPAC_INCHI>
InChI=1S/C10H16/c1-10(8-4-5-8)6-9(10)7-2-3-7/h7-9H,2-6H2,1H3
> <PUBCHEM_IUPAC_INCHIKEY>
GTKAAVZEFUFXDD-UHFFFAOYSA-N
> <PUBCHEM_XLOGP3_AA>
3.7
> <PUBCHEM_EXACT_MASS>
136.125200510
> <PUBCHEM_MOLECULAR_FORMULA>
C10H16
> <PUBCHEM_MOLECULAR_WEIGHT>
136.23
> <PUBCHEM_OPENEYE_CAN_SMILES>
CC1(CC1C2CC2)C3CC3
> <PUBCHEM_OPENEYE_ISO_SMILES>
CC1(CC1C2CC2)C3CC3
> <PUBCHEM_CACTVS_TPSA>
0
> <PUBCHEM_MONOISOTOPIC_WEIGHT>
136.125200510
> <PUBCHEM_TOTAL_CHARGE>
0
> <PUBCHEM_HEAVY_ATOM_COUNT>
10
> <PUBCHEM_ATOM_DEF_STEREO_COUNT>
0
> <PUBCHEM_ATOM_UDEF_STEREO_COUNT>
2
> <PUBCHEM_BOND_DEF_STEREO_COUNT>
0
> <PUBCHEM_BOND_UDEF_STEREO_COUNT>
0
> <PUBCHEM_ISOTOPIC_ATOM_COUNT>
0
> <PUBCHEM_COMPONENT_COUNT>
1
> <PUBCHEM_CACTVS_TAUTO_COUNT>
-1
> <PUBCHEM_COORDINATE_TYPE>
1
5
255
> <PUBCHEM_BONDANNOTATIONS>
1  10  3
2  5  3
$$$$
