519048
  -OEChem-10302200292D
 38 40  0     1  0  0  0  0  0999 V2000
    5.1350   -0.2653    0.0000 O   0  0  0  0  0  0  0  0  0  0  0  0
    2.6660    1.4018    0.0000 O   0  0  0  0  0  0  0  0  0  0  0  0
    4.0598    2.2065    0.0000 O   0  0  0  0  0  0  0  0  0  0  0  0
    5.0780   -1.3531    0.0000 O   0  0  0  0  0  0  0  0  0  0  0  0
    3.7690   -2.3041    0.0000 O   0  0  0  0  0  0  0  0  0  0  0  0
    2.5369   -0.7653    0.0000 O   0  0  0  0  0  0  0  0  0  0  0  0
    3.4030    0.7347    0.0000 C   0  0  2  0  0  0  0  0  0  0  0  0
    4.2690   -0.7653    0.0000 C   0  0  1  0  0  0  0  0  0  0  0  0
    3.4030   -0.2653    0.0000 C   0  0  3  0  0  0  0  0  0  0  0  0
    4.2690    1.2347    0.0000 C   0  0  1  0  0  0  0  0  0  0  0  0
    5.1350    0.7347    0.0000 C   0  0  0  0  0  0  0  0  0  0  0  0
    3.4600   -1.3531    0.0000 C   0  0  0  0  0  0  0  0  0  0  0  0
    3.0711    2.3096    0.0000 C   0  0  0  0  0  0  0  0  0  0  0  0
    4.7690   -2.3041    0.0000 C   0  0  0  0  0  0  0  0  0  0  0  0
    3.1756    3.3041    0.0000 C   0  0  0  0  0  0  0  0  0  0  0  0
    2.1575    2.7163    0.0000 C   0  0  0  0  0  0  0  0  0  0  0  0
    4.7690   -3.3041    0.0000 C   0  0  0  0  0  0  0  0  0  0  0  0
    5.7200   -2.6131    0.0000 C   0  0  0  0  0  0  0  0  0  0  0  0
    2.6260    0.3900    0.0000 H   0  0  0  0  0  0  0  0  0  0  0  0
    3.4030   -0.8853    0.0000 H   0  0  0  0  0  0  0  0  0  0  0  0
    4.9560    1.7352    0.0000 H   0  0  0  0  0  0  0  0  0  0  0  0
    5.7456    0.6271    0.0000 H   0  0  0  0  0  0  0  0  0  0  0  0
    5.3471    1.3173    0.0000 H   0  0  0  0  0  0  0  0  0  0  0  0
    3.1500   -0.8161    0.0000 H   0  0  0  0  0  0  0  0  0  0  0  0
    2.8936   -1.6052    0.0000 H   0  0  0  0  0  0  0  0  0  0  0  0
    2.0000   -0.4553    0.0000 H   0  0  0  0  0  0  0  0  0  0  0  0
    3.7922    3.2393    0.0000 H   0  0  0  0  0  0  0  0  0  0  0  0
    3.2404    3.9207    0.0000 H   0  0  0  0  0  0  0  0  0  0  0  0
    2.5590    3.3689    0.0000 H   0  0  0  0  0  0  0  0  0  0  0  0
    2.4097    3.2827    0.0000 H   0  0  0  0  0  0  0  0  0  0  0  0
    1.5911    2.9685    0.0000 H   0  0  0  0  0  0  0  0  0  0  0  0
    1.9053    2.1499    0.0000 H   0  0  0  0  0  0  0  0  0  0  0  0
    4.1490   -3.3041    0.0000 H   0  0  0  0  0  0  0  0  0  0  0  0
    4.7690   -3.9241    0.0000 H   0  0  0  0  0  0  0  0  0  0  0  0
    5.3890   -3.3041    0.0000 H   0  0  0  0  0  0  0  0  0  0  0  0
    5.5284   -3.2028    0.0000 H   0  0  0  0  0  0  0  0  0  0  0  0
    6.3097   -2.8047    0.0000 H   0  0  0  0  0  0  0  0  0  0  0  0
    5.9116   -2.0235    0.0000 H   0  0  0  0  0  0  0  0  0  0  0  0
  8  1  1  6  0  0  0
  1 11  1  0  0  0  0
  2  7  1  0  0  0  0
  2 13  1  0  0  0  0
  3 10  1  0  0  0  0
  3 13  1  0  0  0  0
  4  8  1  0  0  0  0
  4 14  1  0  0  0  0
  5 12  1  0  0  0  0
  5 14  1  0  0  0  0
  6  9  1  0  0  0  0
  6 26  1  0  0  0  0
  7  9  1  0  0  0  0
  7 10  1  0  0  0  0
  7 19  1  6  0  0  0
  8  9  1  0  0  0  0
  8 12  1  0  0  0  0
  9 20  1  0  0  0  0
 10 11  1  0  0  0  0
 10 21  1  1  0  0  0
 11 22  1  0  0  0  0
 11 23  1  0  0  0  0
 12 24  1  0  0  0  0
 12 25  1  0  0  0  0
 13 15  1  0  0  0  0
 13 16  1  0  0  0  0
 14 17  1  0  0  0  0
 14 18  1  0  0  0  0
 15 27  1  0  0  0  0
 15 28  1  0  0  0  0
 15 29  1  0  0  0  0
 16 30  1  0  0  0  0
 16 31  1  0  0  0  0
 16 32  1  0  0  0  0
 17 33  1  0  0  0  0
 17 34  1  0  0  0  0
 17 35  1  0  0  0  0
 18 36  1  0  0  0  0
 18 37  1  0  0  0  0
 18 38  1  0  0  0  0
M  END
> <PUBCHEM_COMPOUND_CID>
519048
> <PUBCHEM_COMPOUND_CANONICALIZED>
1
> <PUBCHEM_CACTVS_COMPLEXITY>
355
> <PUBCHEM_CACTVS_HBOND_ACCEPTOR>
6
> <PUBCHEM_CACTVS_HBOND_DONOR>
1
> <PUBCHEM_CACTVS_ROTATABLE_BOND>
0
> <PUBCHEM_CACTVS_SUBSKEYS>
AAADceBwOAAAAAAAAAAAAAAAAAAAASJAAAAkAAAAAAAAAEgAAAAAGgAACAAACBSggAICCAAABgAAAAAAAAAAAAAAAAAAAAAAAAAREAIAAAAiQAAFAAAHAAHAYAwAAAAAAAAAAAAAAAAAAAAAAAAAAAAAAA==
> <PUBCHEM_IUPAC_OPENEYE_NAME>
(3'aR,4S,7'aR)-2,2,2',2'-tetramethylspiro[1,3-dioxolane-4,6'-3a,4,7,7a-tetrahydro-[1,3]dioxolo[4,5-c]pyran]-7'-ol
> <PUBCHEM_IUPAC_CAS_NAME>
(3'aR,4S,7'aR)-2,2,2',2'-tetramethyl-7'-spiro[1,3-dioxolane-4,6'-3a,4,7,7a-tetrahydro-[1,3]dioxolo[4,5-c]pyran]ol
> <PUBCHEM_IUPAC_NAME_MARKUP>
(3&apos;<I>a</I><I>R</I>,4<I>S</I>,7&apos;<I>a</I><I>R</I>)-2,2,2&apos;,2&apos;-tetramethylspiro[1,3-dioxolane-4,6&apos;-3<I>a</I>,4,7,7<I>a</I>-tetrahydro-[1,3]dioxolo[4,5-c]pyran]-7&apos;-ol
> <PUBCHEM_IUPAC_NAME>
(3'aR,4S,7'aR)-2,2,2',2'-tetramethylspiro[1,3-dioxolane-4,6'-3a,4,7,7a-tetrahydro-[1,3]dioxolo[4,5-c]pyran]-7'-ol
> <PUBCHEM_IUPAC_SYSTEMATIC_NAME>
(3'aR,4S,7'aR)-2,2,2',2'-tetramethylspiro[1,3-dioxolane-4,6'-3a,4,7,7a-tetrahydro-[1,3]dioxolo[4,5-c]pyran]-7'-ol
> <PUBCHEM_IUPAC_TRADITIONAL_NAME>
(3'aR,4S,7'aR)-2,2,2',2'-tetramethylspiro[1,3-dioxolane-4,6'-3a,4,7,7a-tetrahydro-[1,3]dioxolo[4,5-c]pyran]-7'-ol
> <PUBCHEM_IUPAC_INCHI>
InChI=1S/C12H20O6/c1-10(2)15-6-12(18-10)9(13)8-7(5-14-12)16-11(3,4)17-8/h7-9,13H,5-6H2,1-4H3/t7-,8+,9?,12+/m1/s1
> <PUBCHEM_IUPAC_INCHIKEY>
NFHXOQDPQIQPKT-HDGHKHHHSA-N
> <PUBCHEM_XLOGP3_AA>
-0.3
> <PUBCHEM_EXACT_MASS>
260.12598835
> <PUBCHEM_MOLECULAR_FORMULA>
C12H20O6
> <PUBCHEM_MOLECULAR_WEIGHT>
260.28
> <PUBCHEM_OPENEYE_CAN_SMILES>
CC1(OCC2(O1)C(C3C(CO2)OC(O3)(C)C)O)C
> <PUBCHEM_OPENEYE_ISO_SMILES>
CC1(OC[C@]2(O1)C([C@@H]3[C@@H](CO2)OC(O3)(C)C)O)C
> <PUBCHEM_CACTVS_TPSA>
66.4
> <PUBCHEM_MONOISOTOPIC_WEIGHT>
260.12598835
> <PUBCHEM_TOTAL_CHARGE>
0
> <PUBCHEM_HEAVY_ATOM_COUNT>
18
> <PUBCHEM_ATOM_DEF_STEREO_COUNT>
3
> <PUBCHEM_ATOM_UDEF_STEREO_COUNT>
1
> <PUBCHEM_BOND_DEF_STEREO_COUNT>
0
> <PUBCHEM_BOND_UDEF_STEREO_COUNT>
0
> <PUBCHEM_ISOTOPIC_ATOM_COUNT>
0
> <PUBCHEM_COMPONENT_COUNT>
1
> <PUBCHEM_CACTVS_TAUTO_COUNT>
-1
> <PUBCHEM_COORDINATE_TYPE>
1
5
255
> <PUBCHEM_BONDANNOTATIONS>
8  1  6
10  21  5
9  6  3
7  19  6
$$$$
