519112
  -OEChem-10302200292D
 68 72  0     1  0  0  0  0  0999 V2000
    7.8564    0.3833    0.0000 O   0  0  0  0  0  0  0  0  0  0  0  0
    7.3564   -2.1555    0.0000 O   0  0  0  0  0  0  0  0  0  0  0  0
    5.5963   -0.8768    0.0000 O   0  0  0  0  0  0  0  0  0  0  0  0
    8.7532   -1.3768    0.0000 O   0  0  0  0  0  0  0  0  0  0  0  0
    9.3244    0.7194    0.0000 O   0  0  0  0  0  0  0  0  0  0  0  0
    6.6753    2.1059    0.0000 O   0  0  0  0  0  0  0  0  0  0  0  0
    5.6243   -2.1555    0.0000 O   0  0  0  0  0  0  0  0  0  0  0  0
    5.0611    0.7705    0.0000 O   0  0  0  0  0  0  0  0  0  0  0  0
   11.0186    0.3593    0.0000 O   0  0  0  0  0  0  0  0  0  0  0  0
    5.0930    2.8104    0.0000 O   0  0  0  0  0  0  0  0  0  0  0  0
    7.3564   -5.1555    0.0000 N   0  0  0  0  0  0  0  0  0  0  0  0
    2.7431   -1.8038    0.0000 N   0  0  0  0  0  0  0  0  0  0  0  0
   11.6423    3.2938    0.0000 N   0  0  0  0  0  0  0  0  0  0  0  0
    7.8956    4.8465    0.0000 N   0  0  0  0  0  0  0  0  0  0  0  0
    7.3564   -1.1555    0.0000 C   0  0  3  0  0  0  0  0  0  0  0  0
    6.5474   -0.5677    0.0000 C   0  0  3  0  0  0  0  0  0  0  0  0
    8.1654   -0.5677    0.0000 C   0  0  3  0  0  0  0  0  0  0  0  0
    6.8564    0.3833    0.0000 C   0  0  3  0  0  0  0  0  0  0  0  0
    9.1165   -0.2587    0.0000 C   0  0  0  0  0  0  0  0  0  0  0  0
    6.2686    1.1923    0.0000 C   0  0  0  0  0  0  0  0  0  0  0  0
    6.4904   -2.6555    0.0000 C   0  0  0  0  0  0  0  0  0  0  0  0
    4.8532   -0.2076    0.0000 C   0  0  0  0  0  0  0  0  0  0  0  0
   10.2754    1.0284    0.0000 C   0  0  0  0  0  0  0  0  0  0  0  0
    6.4904   -3.6555    0.0000 C   0  0  0  0  0  0  0  0  0  0  0  0
    6.0876    2.9149    0.0000 C   0  0  0  0  0  0  0  0  0  0  0  0
    3.9021   -0.5166    0.0000 C   0  0  0  0  0  0  0  0  0  0  0  0
   10.4833    2.0066    0.0000 C   0  0  0  0  0  0  0  0  0  0  0  0
    6.4943    3.8284    0.0000 C   0  0  0  0  0  0  0  0  0  0  0  0
    5.6243   -4.1555    0.0000 C   0  0  0  0  0  0  0  0  0  0  0  0
    3.1590    0.1525    0.0000 C   0  0  0  0  0  0  0  0  0  0  0  0
    7.3564   -4.1555    0.0000 C   0  0  0  0  0  0  0  0  0  0  0  0
    3.6942   -1.4948    0.0000 C   0  0  0  0  0  0  0  0  0  0  0  0
    9.7402    2.6757    0.0000 C   0  0  0  0  0  0  0  0  0  0  0  0
    5.6243   -5.1555    0.0000 C   0  0  0  0  0  0  0  0  0  0  0  0
    2.2079   -0.1565    0.0000 C   0  0  0  0  0  0  0  0  0  0  0  0
    5.9065    4.6374    0.0000 C   0  0  0  0  0  0  0  0  0  0  0  0
   11.4344    2.3156    0.0000 C   0  0  0  0  0  0  0  0  0  0  0  0
    7.4888    3.9330    0.0000 C   0  0  0  0  0  0  0  0  0  0  0  0
    6.4904   -5.6555    0.0000 C   0  0  0  0  0  0  0  0  0  0  0  0
    2.0000   -1.1347    0.0000 C   0  0  0  0  0  0  0  0  0  0  0  0
    9.9481    3.6539    0.0000 C   0  0  0  0  0  0  0  0  0  0  0  0
    6.3132    5.5510    0.0000 C   0  0  0  0  0  0  0  0  0  0  0  0
   10.8992    3.9629    0.0000 C   0  0  0  0  0  0  0  0  0  0  0  0
    7.3078    5.6555    0.0000 C   0  0  0  0  0  0  0  0  0  0  0  0
    7.9088   -1.4370    0.0000 H   0  0  0  0  0  0  0  0  0  0  0  0
    6.1090   -0.1293    0.0000 H   0  0  0  0  0  0  0  0  0  0  0  0
    7.1379    0.9357    0.0000 H   0  0  0  0  0  0  0  0  0  0  0  0
    9.2028   -0.8727    0.0000 H   0  0  0  0  0  0  0  0  0  0  0  0
    9.7361   -0.2804    0.0000 H   0  0  0  0  0  0  0  0  0  0  0  0
    5.7546    1.5390    0.0000 H   0  0  0  0  0  0  0  0  0  0  0  0
    5.8379    0.7463    0.0000 H   0  0  0  0  0  0  0  0  0  0  0  0
    9.3698   -1.3120    0.0000 H   0  0  0  0  0  0  0  0  0  0  0  0
    5.0874   -3.8455    0.0000 H   0  0  0  0  0  0  0  0  0  0  0  0
    3.2879    0.7589    0.0000 H   0  0  0  0  0  0  0  0  0  0  0  0
    7.8933   -3.8455    0.0000 H   0  0  0  0  0  0  0  0  0  0  0  0
    4.1550   -1.9097    0.0000 H   0  0  0  0  0  0  0  0  0  0  0  0
    9.1505    2.4841    0.0000 H   0  0  0  0  0  0  0  0  0  0  0  0
    5.0874   -5.4655    0.0000 H   0  0  0  0  0  0  0  0  0  0  0  0
    1.7472    0.2583    0.0000 H   0  0  0  0  0  0  0  0  0  0  0  0
    5.2899    4.5726    0.0000 H   0  0  0  0  0  0  0  0  0  0  0  0
   11.8951    1.9007    0.0000 H   0  0  0  0  0  0  0  0  0  0  0  0
    7.8532    3.4314    0.0000 H   0  0  0  0  0  0  0  0  0  0  0  0
    6.4904   -6.2755    0.0000 H   0  0  0  0  0  0  0  0  0  0  0  0
    1.4103   -1.3263    0.0000 H   0  0  0  0  0  0  0  0  0  0  0  0
    9.4874    4.0687    0.0000 H   0  0  0  0  0  0  0  0  0  0  0  0
    5.9488    6.0526    0.0000 H   0  0  0  0  0  0  0  0  0  0  0  0
   11.0281    4.5693    0.0000 H   0  0  0  0  0  0  0  0  0  0  0  0
    7.5599    6.2219    0.0000 H   0  0  0  0  0  0  0  0  0  0  0  0
  1 17  1  0  0  0  0
  1 18  1  0  0  0  0
  2 15  1  0  0  0  0
  2 21  1  0  0  0  0
  3 16  1  0  0  0  0
  3 22  1  0  0  0  0
  4 17  1  0  0  0  0
  4 52  1  0  0  0  0
  5 19  1  0  0  0  0
  5 23  1  0  0  0  0
  6 20  1  0  0  0  0
  6 25  1  0  0  0  0
  7 21  2  0  0  0  0
  8 22  2  0  0  0  0
  9 23  2  0  0  0  0
 10 25  2  0  0  0  0
 11 31  1  0  0  0  0
 11 39  2  0  0  0  0
 12 32  1  0  0  0  0
 12 40  2  0  0  0  0
 13 37  1  0  0  0  0
 13 43  2  0  0  0  0
 14 38  1  0  0  0  0
 14 44  2  0  0  0  0
 15 16  1  0  0  0  0
 15 17  1  0  0  0  0
 15 45  1  0  0  0  0
 16 18  1  0  0  0  0
 16 46  1  0  0  0  0
 17 19  1  0  0  0  0
 18 20  1  0  0  0  0
 18 47  1  0  0  0  0
 19 48  1  0  0  0  0
 19 49  1  0  0  0  0
 20 50  1  0  0  0  0
 20 51  1  0  0  0  0
 21 24  1  0  0  0  0
 22 26  1  0  0  0  0
 23 27  1  0  0  0  0
 24 29  1  0  0  0  0
 24 31  2  0  0  0  0
 25 28  1  0  0  0  0
 26 30  1  0  0  0  0
 26 32  2  0  0  0  0
 27 33  1  0  0  0  0
 27 37  2  0  0  0  0
 28 36  1  0  0  0  0
 28 38  2  0  0  0  0
 29 34  2  0  0  0  0
 29 53  1  0  0  0  0
 30 35  2  0  0  0  0
 30 54  1  0  0  0  0
 31 55  1  0  0  0  0
 32 56  1  0  0  0  0
 33 41  2  0  0  0  0
 33 57  1  0  0  0  0
 34 39  1  0  0  0  0
 34 58  1  0  0  0  0
 35 40  1  0  0  0  0
 35 59  1  0  0  0  0
 36 42  2  0  0  0  0
 36 60  1  0  0  0  0
 37 61  1  0  0  0  0
 38 62  1  0  0  0  0
 39 63  1  0  0  0  0
 40 64  1  0  0  0  0
 41 43  1  0  0  0  0
 41 65  1  0  0  0  0
 42 44  1  0  0  0  0
 42 66  1  0  0  0  0
 43 67  1  0  0  0  0
 44 68  1  0  0  0  0
M  END
> <PUBCHEM_COMPOUND_CID>
519112
> <PUBCHEM_COMPOUND_CANONICALIZED>
1
> <PUBCHEM_CACTVS_COMPLEXITY>
1020
> <PUBCHEM_CACTVS_HBOND_ACCEPTOR>
14
> <PUBCHEM_CACTVS_HBOND_DONOR>
1
> <PUBCHEM_CACTVS_ROTATABLE_BOND>
14
> <PUBCHEM_CACTVS_SUBSKEYS>
AAADceB7vAAAAAAAAAAAAAAAAAAAASAAAAAsWLFgAAAAAAAB/gAAHgAACAAADBThmgY8iJIIFgCoAjD3TACCgCA1AiAI2CE4bNgZJvrAtZmGcYhnwAHP6cfYcQ4MAAAAAAAAAAAAAAAAAAAAAAAAAAAAAA==
> <PUBCHEM_IUPAC_OPENEYE_NAME>
[5-hydroxy-3,4-bis(pyridine-3-carbonyloxy)-5-(pyridine-3-carbonyloxymethyl)tetrahydrofuran-2-yl]methyl pyridine-3-carboxylate
> <PUBCHEM_IUPAC_CAS_NAME>
3-pyridinecarboxylic acid [5-hydroxy-3,4-bis[oxo(3-pyridinyl)methoxy]-5-[[oxo(3-pyridinyl)methoxy]methyl]-2-oxolanyl]methyl ester
> <PUBCHEM_IUPAC_NAME_MARKUP>
[5-hydroxy-3,4-bis(pyridine-3-carbonyloxy)-5-(pyridine-3-carbonyloxymethyl)oxolan-2-yl]methyl pyridine-3-carboxylate
> <PUBCHEM_IUPAC_NAME>
[5-hydroxy-3,4-bis(pyridine-3-carbonyloxy)-5-(pyridine-3-carbonyloxymethyl)oxolan-2-yl]methyl pyridine-3-carboxylate
> <PUBCHEM_IUPAC_SYSTEMATIC_NAME>
[5-oxidanyl-3,4-bis(pyridin-3-ylcarbonyloxy)-5-(pyridin-3-ylcarbonyloxymethyl)oxolan-2-yl]methyl pyridine-3-carboxylate
> <PUBCHEM_IUPAC_TRADITIONAL_NAME>
nicotinic acid [5-hydroxy-3,4-dinicotinoyloxy-5-(nicotinoyloxymethyl)tetrahydrofuran-2-yl]methyl ester
> <PUBCHEM_IUPAC_INCHI>
InChI=1S/C30H24N4O10/c35-26(19-5-1-9-31-13-19)40-17-23-24(42-28(37)21-7-3-11-33-15-21)25(43-29(38)22-8-4-12-34-16-22)30(39,44-23)18-41-27(36)20-6-2-10-32-14-20/h1-16,23-25,39H,17-18H2
> <PUBCHEM_IUPAC_INCHIKEY>
FUWFSXZKBMCSKF-UHFFFAOYSA-N
> <PUBCHEM_XLOGP3_AA>
1.3
> <PUBCHEM_EXACT_MASS>
600.14924298
> <PUBCHEM_MOLECULAR_FORMULA>
C30H24N4O10
> <PUBCHEM_MOLECULAR_WEIGHT>
600.5
> <PUBCHEM_OPENEYE_CAN_SMILES>
C1=CC(=CN=C1)C(=O)OCC2C(C(C(O2)(COC(=O)C3=CN=CC=C3)O)OC(=O)C4=CN=CC=C4)OC(=O)C5=CN=CC=C5
> <PUBCHEM_OPENEYE_ISO_SMILES>
C1=CC(=CN=C1)C(=O)OCC2C(C(C(O2)(COC(=O)C3=CN=CC=C3)O)OC(=O)C4=CN=CC=C4)OC(=O)C5=CN=CC=C5
> <PUBCHEM_CACTVS_TPSA>
186
> <PUBCHEM_MONOISOTOPIC_WEIGHT>
600.14924298
> <PUBCHEM_TOTAL_CHARGE>
0
> <PUBCHEM_HEAVY_ATOM_COUNT>
44
> <PUBCHEM_ATOM_DEF_STEREO_COUNT>
0
> <PUBCHEM_ATOM_UDEF_STEREO_COUNT>
4
> <PUBCHEM_BOND_DEF_STEREO_COUNT>
0
> <PUBCHEM_BOND_UDEF_STEREO_COUNT>
0
> <PUBCHEM_ISOTOPIC_ATOM_COUNT>
0
> <PUBCHEM_COMPONENT_COUNT>
1
> <PUBCHEM_CACTVS_TAUTO_COUNT>
-1
> <PUBCHEM_COORDINATE_TYPE>
1
5
255
> <PUBCHEM_BONDANNOTATIONS>
11  31  8
11  39  8
12  32  8
12  40  8
13  37  8
13  43  8
14  38  8
14  44  8
17  19  3
18  20  3
15  2  3
24  29  8
24  31  8
26  30  8
26  32  8
27  33  8
27  37  8
28  36  8
28  38  8
29  34  8
16  3  3
30  35  8
33  41  8
34  39  8
35  40  8
36  42  8
41  43  8
42  44  8
$$$$
