519125
  -OEChem-10302200292D
 19 19  0     1  0  0  0  0  0999 V2000
    2.8090   -0.4197    0.0000 S   0  0  0  0  0  0  0  0  0  0  0  0
    3.6180    0.1681    0.0000 C   0  0  3  0  0  0  0  0  0  0  0  0
    3.3090    1.1191    0.0000 C   0  0  0  0  0  0  0  0  0  0  0  0
    2.3090    1.1191    0.0000 C   0  0  0  0  0  0  0  0  0  0  0  0
    2.0000    0.1681    0.0000 C   0  0  0  0  0  0  0  0  0  0  0  0
    4.5691   -0.1410    0.0000 C   0  0  0  0  0  0  0  0  0  0  0  0
    4.7770   -1.1191    0.0000 C   0  0  0  0  0  0  0  0  0  0  0  0
    3.7510   -0.6715    0.0000 H   0  0  0  0  0  0  0  0  0  0  0  0
    3.9155    1.2480    0.0000 H   0  0  0  0  0  0  0  0  0  0  0  0
    3.2442    1.7357    0.0000 H   0  0  0  0  0  0  0  0  0  0  0  0
    2.3738    1.7357    0.0000 H   0  0  0  0  0  0  0  0  0  0  0  0
    1.7026    1.2480    0.0000 H   0  0  0  0  0  0  0  0  0  0  0  0
    1.4336    0.4202    0.0000 H   0  0  0  0  0  0  0  0  0  0  0  0
    1.6900   -0.3689    0.0000 H   0  0  0  0  0  0  0  0  0  0  0  0
    5.1887   -0.1193    0.0000 H   0  0  0  0  0  0  0  0  0  0  0  0
    4.6554    0.4730    0.0000 H   0  0  0  0  0  0  0  0  0  0  0  0
    4.1706   -1.2480    0.0000 H   0  0  0  0  0  0  0  0  0  0  0  0
    4.9059   -1.7256    0.0000 H   0  0  0  0  0  0  0  0  0  0  0  0
    5.3834   -0.9902    0.0000 H   0  0  0  0  0  0  0  0  0  0  0  0
  1  2  1  0  0  0  0
  1  5  1  0  0  0  0
  2  3  1  0  0  0  0
  2  6  1  0  0  0  0
  2  8  1  0  0  0  0
  3  4  1  0  0  0  0
  3  9  1  0  0  0  0
  3 10  1  0  0  0  0
  4  5  1  0  0  0  0
  4 11  1  0  0  0  0
  4 12  1  0  0  0  0
  5 13  1  0  0  0  0
  5 14  1  0  0  0  0
  6  7  1  0  0  0  0
  6 15  1  0  0  0  0
  6 16  1  0  0  0  0
  7 17  1  0  0  0  0
  7 18  1  0  0  0  0
  7 19  1  0  0  0  0
M  END
> <PUBCHEM_COMPOUND_CID>
519125
> <PUBCHEM_COMPOUND_CANONICALIZED>
1
> <PUBCHEM_CACTVS_COMPLEXITY>
52.1
> <PUBCHEM_CACTVS_HBOND_ACCEPTOR>
1
> <PUBCHEM_CACTVS_HBOND_DONOR>
0
> <PUBCHEM_CACTVS_ROTATABLE_BOND>
1
> <PUBCHEM_CACTVS_SUBSKEYS>
AAADccBgAABAAAAAAAAAAAAAAAAAASAAAAAAAAAAAAAAAAAAAAAAGAQAAAAACACEQACCAAAAAAgAAAAAAAAAAAAAABAAAAAAAAAAAAIgAAAAAAAAAAAgAAEAAAAAAAAAAAAAAAAAAAAAAAAAAAAAAAAAAA==
> <PUBCHEM_IUPAC_OPENEYE_NAME>
2-ethyltetrahydrothiophene
> <PUBCHEM_IUPAC_CAS_NAME>
2-ethylthiolane
> <PUBCHEM_IUPAC_NAME_MARKUP>
2-ethylthiolane
> <PUBCHEM_IUPAC_NAME>
2-ethylthiolane
> <PUBCHEM_IUPAC_SYSTEMATIC_NAME>
2-ethylthiolane
> <PUBCHEM_IUPAC_TRADITIONAL_NAME>
2-ethyltetrahydrothiophene
> <PUBCHEM_IUPAC_INCHI>
InChI=1S/C6H12S/c1-2-6-4-3-5-7-6/h6H,2-5H2,1H3
> <PUBCHEM_IUPAC_INCHIKEY>
FQAXENNJSLPYOP-UHFFFAOYSA-N
> <PUBCHEM_XLOGP3_AA>
2.3
> <PUBCHEM_EXACT_MASS>
116.06597156
> <PUBCHEM_MOLECULAR_FORMULA>
C6H12S
> <PUBCHEM_MOLECULAR_WEIGHT>
116.23
> <PUBCHEM_OPENEYE_CAN_SMILES>
CCC1CCCS1
> <PUBCHEM_OPENEYE_ISO_SMILES>
CCC1CCCS1
> <PUBCHEM_CACTVS_TPSA>
25.3
> <PUBCHEM_MONOISOTOPIC_WEIGHT>
116.06597156
> <PUBCHEM_TOTAL_CHARGE>
0
> <PUBCHEM_HEAVY_ATOM_COUNT>
7
> <PUBCHEM_ATOM_DEF_STEREO_COUNT>
0
> <PUBCHEM_ATOM_UDEF_STEREO_COUNT>
1
> <PUBCHEM_BOND_DEF_STEREO_COUNT>
0
> <PUBCHEM_BOND_UDEF_STEREO_COUNT>
0
> <PUBCHEM_ISOTOPIC_ATOM_COUNT>
0
> <PUBCHEM_COMPONENT_COUNT>
1
> <PUBCHEM_CACTVS_TAUTO_COUNT>
1
> <PUBCHEM_COORDINATE_TYPE>
1
5
255
> <PUBCHEM_BONDANNOTATIONS>
2  8  3
$$$$
