519132
  -OEChem-10302200292D
 44 46  0     1  0  0  0  0  0999 V2000
    4.5981   -1.7500    0.0000 O   0  0  0  0  0  0  0  0  0  0  0  0
    4.5981    1.2500    0.0000 N   0  0  0  0  0  0  0  0  0  0  0  0
    5.4641   -0.2500    0.0000 N   0  0  0  0  0  0  0  0  0  0  0  0
    3.7320    1.7500    0.0000 C   0  0  0  0  0  0  0  0  0  0  0  0
    5.4641    1.7500    0.0000 C   0  0  0  0  0  0  0  0  0  0  0  0
    3.7320    2.7500    0.0000 C   0  0  0  0  0  0  0  0  0  0  0  0
    5.4641    2.7500    0.0000 C   0  0  0  0  0  0  0  0  0  0  0  0
    4.5981    3.2500    0.0000 C   0  0  0  0  0  0  0  0  0  0  0  0
    4.5981    0.2500    0.0000 C   0  0  3  0  0  0  0  0  0  0  0  0
    3.7320   -0.2500    0.0000 C   0  0  0  0  0  0  0  0  0  0  0  0
    2.8660    0.2500    0.0000 C   0  0  0  0  0  0  0  0  0  0  0  0
    3.7320   -1.2500    0.0000 C   0  0  0  0  0  0  0  0  0  0  0  0
    5.4641   -1.2500    0.0000 C   0  0  0  0  0  0  0  0  0  0  0  0
    2.0000   -0.2500    0.0000 C   0  0  0  0  0  0  0  0  0  0  0  0
    2.8660   -1.7500    0.0000 C   0  0  0  0  0  0  0  0  0  0  0  0
    6.3301   -1.7500    0.0000 C   0  0  0  0  0  0  0  0  0  0  0  0
    2.0000   -1.2500    0.0000 C   0  0  0  0  0  0  0  0  0  0  0  0
    7.1962   -1.2500    0.0000 C   0  0  0  0  0  0  0  0  0  0  0  0
    6.3301   -2.7500    0.0000 C   0  0  0  0  0  0  0  0  0  0  0  0
    8.0622   -1.7500    0.0000 C   0  0  0  0  0  0  0  0  0  0  0  0
    7.1962   -3.2500    0.0000 C   0  0  0  0  0  0  0  0  0  0  0  0
    8.0622   -2.7500    0.0000 C   0  0  0  0  0  0  0  0  0  0  0  0
    3.1215    1.8577    0.0000 H   0  0  0  0  0  0  0  0  0  0  0  0
    3.5200    1.1674    0.0000 H   0  0  0  0  0  0  0  0  0  0  0  0
    5.6762    1.1674    0.0000 H   0  0  0  0  0  0  0  0  0  0  0  0
    6.0747    1.8577    0.0000 H   0  0  0  0  0  0  0  0  0  0  0  0
    3.5200    3.3326    0.0000 H   0  0  0  0  0  0  0  0  0  0  0  0
    3.1215    2.6423    0.0000 H   0  0  0  0  0  0  0  0  0  0  0  0
    6.0747    2.6423    0.0000 H   0  0  0  0  0  0  0  0  0  0  0  0
    5.6762    3.3326    0.0000 H   0  0  0  0  0  0  0  0  0  0  0  0
    4.9966    3.7250    0.0000 H   0  0  0  0  0  0  0  0  0  0  0  0
    4.1996    3.7250    0.0000 H   0  0  0  0  0  0  0  0  0  0  0  0
    4.5981   -0.3700    0.0000 H   0  0  0  0  0  0  0  0  0  0  0  0
    6.0010    0.0600    0.0000 H   0  0  0  0  0  0  0  0  0  0  0  0
    2.8660    0.8700    0.0000 H   0  0  0  0  0  0  0  0  0  0  0  0
    4.2690   -1.5600    0.0000 H   0  0  0  0  0  0  0  0  0  0  0  0
    1.4631    0.0600    0.0000 H   0  0  0  0  0  0  0  0  0  0  0  0
    2.8660   -2.3700    0.0000 H   0  0  0  0  0  0  0  0  0  0  0  0
    1.4631   -1.5600    0.0000 H   0  0  0  0  0  0  0  0  0  0  0  0
    7.1962   -0.6300    0.0000 H   0  0  0  0  0  0  0  0  0  0  0  0
    5.7932   -3.0600    0.0000 H   0  0  0  0  0  0  0  0  0  0  0  0
    8.5991   -1.4400    0.0000 H   0  0  0  0  0  0  0  0  0  0  0  0
    7.1962   -3.8700    0.0000 H   0  0  0  0  0  0  0  0  0  0  0  0
    8.5991   -3.0600    0.0000 H   0  0  0  0  0  0  0  0  0  0  0  0
  1 13  2  0  0  0  0
  2  4  1  0  0  0  0
  2  5  1  0  0  0  0
  2  9  1  0  0  0  0
  3  9  1  0  0  0  0
  3 13  1  0  0  0  0
  3 34  1  0  0  0  0
  4  6  1  0  0  0  0
  4 23  1  0  0  0  0
  4 24  1  0  0  0  0
  5  7  1  0  0  0  0
  5 25  1  0  0  0  0
  5 26  1  0  0  0  0
  6  8  1  0  0  0  0
  6 27  1  0  0  0  0
  6 28  1  0  0  0  0
  7  8  1  0  0  0  0
  7 29  1  0  0  0  0
  7 30  1  0  0  0  0
  8 31  1  0  0  0  0
  8 32  1  0  0  0  0
  9 10  1  0  0  0  0
  9 33  1  0  0  0  0
 10 11  2  0  0  0  0
 10 12  1  0  0  0  0
 11 14  1  0  0  0  0
 11 35  1  0  0  0  0
 12 15  2  0  0  0  0
 12 36  1  0  0  0  0
 13 16  1  0  0  0  0
 14 17  2  0  0  0  0
 14 37  1  0  0  0  0
 15 17  1  0  0  0  0
 15 38  1  0  0  0  0
 16 18  2  0  0  0  0
 16 19  1  0  0  0  0
 17 39  1  0  0  0  0
 18 20  1  0  0  0  0
 18 40  1  0  0  0  0
 19 21  2  0  0  0  0
 19 41  1  0  0  0  0
 20 22  2  0  0  0  0
 20 42  1  0  0  0  0
 21 22  1  0  0  0  0
 21 43  1  0  0  0  0
 22 44  1  0  0  0  0
M  END
> <PUBCHEM_COMPOUND_CID>
519132
> <PUBCHEM_COMPOUND_CANONICALIZED>
1
> <PUBCHEM_CACTVS_COMPLEXITY>
339
> <PUBCHEM_CACTVS_HBOND_ACCEPTOR>
2
> <PUBCHEM_CACTVS_HBOND_DONOR>
1
> <PUBCHEM_CACTVS_ROTATABLE_BOND>
4
> <PUBCHEM_CACTVS_SUBSKEYS>
AAADceB7IAAAAAAAAAAAAAAAAAAAAAAAAAA8YIAAAAAAAAABQAAAHgAQAAAADADBmAQxAIPAAACIAiFSEACCAAAkAAAIiIEIBMiIIDKAlRGEIQhohwKIiYcYiACOAAAAAAAAAAAAAAAAAAAAAAAAAAAAAA==
> <PUBCHEM_IUPAC_OPENEYE_NAME>
N-[phenyl(1-piperidyl)methyl]benzamide
> <PUBCHEM_IUPAC_CAS_NAME>
N-[phenyl(1-piperidinyl)methyl]benzamide
> <PUBCHEM_IUPAC_NAME_MARKUP>
<I>N</I>-[phenyl(piperidin-1-yl)methyl]benzamide
> <PUBCHEM_IUPAC_NAME>
N-[phenyl(piperidin-1-yl)methyl]benzamide
> <PUBCHEM_IUPAC_SYSTEMATIC_NAME>
N-[phenyl(piperidin-1-yl)methyl]benzamide
> <PUBCHEM_IUPAC_TRADITIONAL_NAME>
N-[phenyl(piperidino)methyl]benzamide
> <PUBCHEM_IUPAC_INCHI>
InChI=1S/C19H22N2O/c22-19(17-12-6-2-7-13-17)20-18(16-10-4-1-5-11-16)21-14-8-3-9-15-21/h1-2,4-7,10-13,18H,3,8-9,14-15H2,(H,20,22)
> <PUBCHEM_IUPAC_INCHIKEY>
NVVFLNPPJPMLEF-UHFFFAOYSA-N
> <PUBCHEM_XLOGP3_AA>
3.7
> <PUBCHEM_EXACT_MASS>
294.173213330
> <PUBCHEM_MOLECULAR_FORMULA>
C19H22N2O
> <PUBCHEM_MOLECULAR_WEIGHT>
294.4
> <PUBCHEM_OPENEYE_CAN_SMILES>
C1CCN(CC1)C(C2=CC=CC=C2)NC(=O)C3=CC=CC=C3
> <PUBCHEM_OPENEYE_ISO_SMILES>
C1CCN(CC1)C(C2=CC=CC=C2)NC(=O)C3=CC=CC=C3
> <PUBCHEM_CACTVS_TPSA>
32.3
> <PUBCHEM_MONOISOTOPIC_WEIGHT>
294.173213330
> <PUBCHEM_TOTAL_CHARGE>
0
> <PUBCHEM_HEAVY_ATOM_COUNT>
22
> <PUBCHEM_ATOM_DEF_STEREO_COUNT>
0
> <PUBCHEM_ATOM_UDEF_STEREO_COUNT>
1
> <PUBCHEM_BOND_DEF_STEREO_COUNT>
0
> <PUBCHEM_BOND_UDEF_STEREO_COUNT>
0
> <PUBCHEM_ISOTOPIC_ATOM_COUNT>
0
> <PUBCHEM_COMPONENT_COUNT>
1
> <PUBCHEM_CACTVS_TAUTO_COUNT>
-1
> <PUBCHEM_COORDINATE_TYPE>
1
5
255
> <PUBCHEM_BONDANNOTATIONS>
10  11  8
10  12  8
11  14  8
12  15  8
14  17  8
15  17  8
16  18  8
16  19  8
18  20  8
19  21  8
20  22  8
21  22  8
9  3  3
$$$$
