519161
  -OEChem-10302200292D
 18 18  0     1  0  0  0  0  0999 V2000
    3.0000   -0.5000    0.0000 C   0  0  3  0  0  0  0  0  0  0  0  0
    3.0000    0.5000    0.0000 C   0  0  3  0  0  0  0  0  0  0  0  0
    2.0000   -0.5000    0.0000 C   0  0  0  0  0  0  0  0  0  0  0  0
    2.0000    0.5000    0.0000 C   0  0  0  0  0  0  0  0  0  0  0  0
    3.7071   -1.2071    0.0000 C   0  0  0  0  0  0  0  0  0  0  0  0
    3.7071    1.2071    0.0000 C   0  0  0  0  0  0  0  0  0  0  0  0
    3.5728   -0.2627    0.0000 H   0  0  0  0  0  0  0  0  0  0  0  0
    3.5728    0.2627    0.0000 H   0  0  0  0  0  0  0  0  0  0  0  0
    1.3800   -0.5000    0.0000 H   0  0  0  0  0  0  0  0  0  0  0  0
    2.0000   -1.1200    0.0000 H   0  0  0  0  0  0  0  0  0  0  0  0
    2.0000    1.1200    0.0000 H   0  0  0  0  0  0  0  0  0  0  0  0
    1.3800    0.5000    0.0000 H   0  0  0  0  0  0  0  0  0  0  0  0
    3.2687   -1.6455    0.0000 H   0  0  0  0  0  0  0  0  0  0  0  0
    4.1455   -1.6455    0.0000 H   0  0  0  0  0  0  0  0  0  0  0  0
    4.1455   -0.7687    0.0000 H   0  0  0  0  0  0  0  0  0  0  0  0
    4.1455    0.7687    0.0000 H   0  0  0  0  0  0  0  0  0  0  0  0
    4.1455    1.6455    0.0000 H   0  0  0  0  0  0  0  0  0  0  0  0
    3.2687    1.6455    0.0000 H   0  0  0  0  0  0  0  0  0  0  0  0
  1  2  1  0  0  0  0
  1  3  1  0  0  0  0
  1  5  1  0  0  0  0
  1  7  1  0  0  0  0
  2  4  1  0  0  0  0
  2  6  1  0  0  0  0
  2  8  1  0  0  0  0
  3  4  1  0  0  0  0
  3  9  1  0  0  0  0
  3 10  1  0  0  0  0
  4 11  1  0  0  0  0
  4 12  1  0  0  0  0
  5 13  1  0  0  0  0
  5 14  1  0  0  0  0
  5 15  1  0  0  0  0
  6 16  1  0  0  0  0
  6 17  1  0  0  0  0
  6 18  1  0  0  0  0
M  END
> <PUBCHEM_COMPOUND_CID>
519161
> <PUBCHEM_COMPOUND_CANONICALIZED>
1
> <PUBCHEM_CACTVS_COMPLEXITY>
40
> <PUBCHEM_CACTVS_HBOND_ACCEPTOR>
0
> <PUBCHEM_CACTVS_HBOND_DONOR>
0
> <PUBCHEM_CACTVS_ROTATABLE_BOND>
0
> <PUBCHEM_CACTVS_SUBSKEYS>
AAADccBgAAAAAAAAAAAAAAAAAABgAAAAAAAAAAAAAAAAAAAAAAAAGAAAAAAADQCAAAACAAAAAAAAAAAAAAAAAAAAAAAAAAAAAAAAAAIAAAAAAAAAAAAAAAEAAAAKgAAAAAAAAAAAAAAAAAAAAAAAAAAAAA==
> <PUBCHEM_IUPAC_OPENEYE_NAME>
1,2-dimethylcyclobutane
> <PUBCHEM_IUPAC_CAS_NAME>
1,2-dimethylcyclobutane
> <PUBCHEM_IUPAC_NAME_MARKUP>
1,2-dimethylcyclobutane
> <PUBCHEM_IUPAC_NAME>
1,2-dimethylcyclobutane
> <PUBCHEM_IUPAC_SYSTEMATIC_NAME>
1,2-dimethylcyclobutane
> <PUBCHEM_IUPAC_TRADITIONAL_NAME>
1,2-dimethylcyclobutane
> <PUBCHEM_IUPAC_INCHI>
InChI=1S/C6H12/c1-5-3-4-6(5)2/h5-6H,3-4H2,1-2H3
> <PUBCHEM_IUPAC_INCHIKEY>
IVAGOJQDJFWIRT-UHFFFAOYSA-N
> <PUBCHEM_XLOGP3_AA>
2.7
> <PUBCHEM_EXACT_MASS>
84.093900383
> <PUBCHEM_MOLECULAR_FORMULA>
C6H12
> <PUBCHEM_MOLECULAR_WEIGHT>
84.16
> <PUBCHEM_OPENEYE_CAN_SMILES>
CC1CCC1C
> <PUBCHEM_OPENEYE_ISO_SMILES>
CC1CCC1C
> <PUBCHEM_CACTVS_TPSA>
0
> <PUBCHEM_MONOISOTOPIC_WEIGHT>
84.093900383
> <PUBCHEM_TOTAL_CHARGE>
0
> <PUBCHEM_HEAVY_ATOM_COUNT>
6
> <PUBCHEM_ATOM_DEF_STEREO_COUNT>
0
> <PUBCHEM_ATOM_UDEF_STEREO_COUNT>
2
> <PUBCHEM_BOND_DEF_STEREO_COUNT>
0
> <PUBCHEM_BOND_UDEF_STEREO_COUNT>
0
> <PUBCHEM_ISOTOPIC_ATOM_COUNT>
0
> <PUBCHEM_COMPONENT_COUNT>
1
> <PUBCHEM_CACTVS_TAUTO_COUNT>
-1
> <PUBCHEM_COORDINATE_TYPE>
1
5
255
> <PUBCHEM_BONDANNOTATIONS>
1  5  3
2  6  3
$$$$
