519126
  -OEChem-10302200292D
 22 22  0     1  0  0  0  0  0999 V2000
    2.8090   -0.2652    0.0000 S   0  0  0  0  0  0  0  0  0  0  0  0
    3.6180    0.3226    0.0000 C   0  0  3  0  0  0  0  0  0  0  0  0
    3.3090    1.2736    0.0000 C   0  0  0  0  0  0  0  0  0  0  0  0
    2.3090    1.2736    0.0000 C   0  0  0  0  0  0  0  0  0  0  0  0
    4.5691    0.0135    0.0000 C   0  0  0  0  0  0  0  0  0  0  0  0
    2.0000    0.3226    0.0000 C   0  0  0  0  0  0  0  0  0  0  0  0
    4.7770   -0.9646    0.0000 C   0  0  0  0  0  0  0  0  0  0  0  0
    5.7281   -1.2736    0.0000 C   0  0  0  0  0  0  0  0  0  0  0  0
    3.7510   -0.5170    0.0000 H   0  0  0  0  0  0  0  0  0  0  0  0
    3.9155    1.4025    0.0000 H   0  0  0  0  0  0  0  0  0  0  0  0
    3.2442    1.8902    0.0000 H   0  0  0  0  0  0  0  0  0  0  0  0
    2.3738    1.8902    0.0000 H   0  0  0  0  0  0  0  0  0  0  0  0
    1.7026    1.4025    0.0000 H   0  0  0  0  0  0  0  0  0  0  0  0
    5.1887    0.0352    0.0000 H   0  0  0  0  0  0  0  0  0  0  0  0
    4.6554    0.6275    0.0000 H   0  0  0  0  0  0  0  0  0  0  0  0
    1.4336    0.5747    0.0000 H   0  0  0  0  0  0  0  0  0  0  0  0
    1.6900   -0.2144    0.0000 H   0  0  0  0  0  0  0  0  0  0  0  0
    4.1574   -0.9862    0.0000 H   0  0  0  0  0  0  0  0  0  0  0  0
    4.6907   -1.5786    0.0000 H   0  0  0  0  0  0  0  0  0  0  0  0
    5.5365   -1.8633    0.0000 H   0  0  0  0  0  0  0  0  0  0  0  0
    6.3177   -1.4652    0.0000 H   0  0  0  0  0  0  0  0  0  0  0  0
    5.9196   -0.6840    0.0000 H   0  0  0  0  0  0  0  0  0  0  0  0
  1  2  1  0  0  0  0
  1  6  1  0  0  0  0
  2  3  1  0  0  0  0
  2  5  1  0  0  0  0
  2  9  1  0  0  0  0
  3  4  1  0  0  0  0
  3 10  1  0  0  0  0
  3 11  1  0  0  0  0
  4  6  1  0  0  0  0
  4 12  1  0  0  0  0
  4 13  1  0  0  0  0
  5  7  1  0  0  0  0
  5 14  1  0  0  0  0
  5 15  1  0  0  0  0
  6 16  1  0  0  0  0
  6 17  1  0  0  0  0
  7  8  1  0  0  0  0
  7 18  1  0  0  0  0
  7 19  1  0  0  0  0
  8 20  1  0  0  0  0
  8 21  1  0  0  0  0
  8 22  1  0  0  0  0
M  END
> <PUBCHEM_COMPOUND_CID>
519126
> <PUBCHEM_COMPOUND_CANONICALIZED>
1
> <PUBCHEM_CACTVS_COMPLEXITY>
61.4
> <PUBCHEM_CACTVS_HBOND_ACCEPTOR>
1
> <PUBCHEM_CACTVS_HBOND_DONOR>
0
> <PUBCHEM_CACTVS_ROTATABLE_BOND>
2
> <PUBCHEM_CACTVS_SUBSKEYS>
AAADccBgAABAAAAAAAAAAAAAAAAAASAAAAAAAAAAAAAAAAAAAAAAGAQAAAAACACEQACCAAAAAAgAAAAAAAAAAAAAABAAAAAAAAAAAAIgAAAAAAAAAAAgAAEAgAAAAAAAAAAAAAAAAAAAAAAAAAAAAAAAAA==
> <PUBCHEM_IUPAC_OPENEYE_NAME>
2-propyltetrahydrothiophene
> <PUBCHEM_IUPAC_CAS_NAME>
2-propylthiolane
> <PUBCHEM_IUPAC_NAME_MARKUP>
2-propylthiolane
> <PUBCHEM_IUPAC_NAME>
2-propylthiolane
> <PUBCHEM_IUPAC_SYSTEMATIC_NAME>
2-propylthiolane
> <PUBCHEM_IUPAC_TRADITIONAL_NAME>
2-propyltetrahydrothiophene
> <PUBCHEM_IUPAC_INCHI>
InChI=1S/C7H14S/c1-2-4-7-5-3-6-8-7/h7H,2-6H2,1H3
> <PUBCHEM_IUPAC_INCHIKEY>
RKTPCTKFTDSWND-UHFFFAOYSA-N
> <PUBCHEM_XLOGP3_AA>
2.7
> <PUBCHEM_EXACT_MASS>
130.08162162
> <PUBCHEM_MOLECULAR_FORMULA>
C7H14S
> <PUBCHEM_MOLECULAR_WEIGHT>
130.25
> <PUBCHEM_OPENEYE_CAN_SMILES>
CCCC1CCCS1
> <PUBCHEM_OPENEYE_ISO_SMILES>
CCCC1CCCS1
> <PUBCHEM_CACTVS_TPSA>
25.3
> <PUBCHEM_MONOISOTOPIC_WEIGHT>
130.08162162
> <PUBCHEM_TOTAL_CHARGE>
0
> <PUBCHEM_HEAVY_ATOM_COUNT>
8
> <PUBCHEM_ATOM_DEF_STEREO_COUNT>
0
> <PUBCHEM_ATOM_UDEF_STEREO_COUNT>
1
> <PUBCHEM_BOND_DEF_STEREO_COUNT>
0
> <PUBCHEM_BOND_UDEF_STEREO_COUNT>
0
> <PUBCHEM_ISOTOPIC_ATOM_COUNT>
0
> <PUBCHEM_COMPONENT_COUNT>
1
> <PUBCHEM_CACTVS_TAUTO_COUNT>
1
> <PUBCHEM_COORDINATE_TYPE>
1
5
255
> <PUBCHEM_BONDANNOTATIONS>
2  9  3
$$$$
