519123
  -OEChem-10302200292D
 23 22  0     1  0  0  0  0  0999 V2000
    3.7320    0.1830    0.0000 O   0  0  0  0  0  0  0  0  0  0  0  0
    4.5981   -0.3170    0.0000 O   0  0  0  0  0  0  0  0  0  0  0  0
    6.3301   -0.3170    0.0000 O   0  0  0  0  0  0  0  0  0  0  0  0
    2.8660   -0.3170    0.0000 C   0  0  0  0  0  0  0  0  0  0  0  0
    2.0000   -0.8170    0.0000 C   0  0  0  0  0  0  0  0  0  0  0  0
    2.3660    0.5490    0.0000 C   0  0  0  0  0  0  0  0  0  0  0  0
    3.3660   -1.1830    0.0000 C   0  0  0  0  0  0  0  0  0  0  0  0
    5.4641    0.1830    0.0000 C   0  0  3  0  0  0  0  0  0  0  0  0
    5.4641    1.1830    0.0000 C   0  0  0  0  0  0  0  0  0  0  0  0
    1.6900   -0.2801    0.0000 H   0  0  0  0  0  0  0  0  0  0  0  0
    1.4631   -1.1270    0.0000 H   0  0  0  0  0  0  0  0  0  0  0  0
    2.3100   -1.3539    0.0000 H   0  0  0  0  0  0  0  0  0  0  0  0
    2.9030    0.8590    0.0000 H   0  0  0  0  0  0  0  0  0  0  0  0
    2.0560    1.0860    0.0000 H   0  0  0  0  0  0  0  0  0  0  0  0
    1.8291    0.2390    0.0000 H   0  0  0  0  0  0  0  0  0  0  0  0
    2.8291   -1.4930    0.0000 H   0  0  0  0  0  0  0  0  0  0  0  0
    3.6760   -1.7200    0.0000 H   0  0  0  0  0  0  0  0  0  0  0  0
    3.9030   -0.8730    0.0000 H   0  0  0  0  0  0  0  0  0  0  0  0
    5.4641   -0.4370    0.0000 H   0  0  0  0  0  0  0  0  0  0  0  0
    6.0841    1.1830    0.0000 H   0  0  0  0  0  0  0  0  0  0  0  0
    5.4641    1.8030    0.0000 H   0  0  0  0  0  0  0  0  0  0  0  0
    4.8441    1.1830    0.0000 H   0  0  0  0  0  0  0  0  0  0  0  0
    6.8671   -0.0070    0.0000 H   0  0  0  0  0  0  0  0  0  0  0  0
  1  2  1  0  0  0  0
  1  4  1  0  0  0  0
  2  8  1  0  0  0  0
  3  8  1  0  0  0  0
  3 23  1  0  0  0  0
  4  5  1  0  0  0  0
  4  6  1  0  0  0  0
  4  7  1  0  0  0  0
  5 10  1  0  0  0  0
  5 11  1  0  0  0  0
  5 12  1  0  0  0  0
  6 13  1  0  0  0  0
  6 14  1  0  0  0  0
  6 15  1  0  0  0  0
  7 16  1  0  0  0  0
  7 17  1  0  0  0  0
  7 18  1  0  0  0  0
  8  9  1  0  0  0  0
  8 19  1  0  0  0  0
  9 20  1  0  0  0  0
  9 21  1  0  0  0  0
  9 22  1  0  0  0  0
M  END
> <PUBCHEM_COMPOUND_CID>
519123
> <PUBCHEM_COMPOUND_CANONICALIZED>
1
> <PUBCHEM_CACTVS_COMPLEXITY>
74.9
> <PUBCHEM_CACTVS_HBOND_ACCEPTOR>
3
> <PUBCHEM_CACTVS_HBOND_DONOR>
1
> <PUBCHEM_CACTVS_ROTATABLE_BOND>
3
> <PUBCHEM_CACTVS_SUBSKEYS>
AAADccBgMAAAAAAAAAAAAAAAAAAAAAAAAAAAAAAAAAAAAAAAAAAAGgAADAAADESwgAMCCAAAAgAAAAAAAAAAAAAAAAAAAAAAAAAAEAAAAAAAAAAAAAAAAAAAAAAAAAAAAAAAAAAAAAAAAAAAAAAAAAAAAA==
> <PUBCHEM_IUPAC_OPENEYE_NAME>
1-tert-butylperoxyethanol
> <PUBCHEM_IUPAC_CAS_NAME>
1-tert-butyldioxyethanol
> <PUBCHEM_IUPAC_NAME_MARKUP>
1-<I>tert</I>-butylperoxyethanol
> <PUBCHEM_IUPAC_NAME>
1-tert-butylperoxyethanol
> <PUBCHEM_IUPAC_SYSTEMATIC_NAME>
1-tert-butylperoxyethanol
> <PUBCHEM_IUPAC_TRADITIONAL_NAME>
1-tert-butylperoxyethanol
> <PUBCHEM_IUPAC_INCHI>
InChI=1S/C6H14O3/c1-5(7)8-9-6(2,3)4/h5,7H,1-4H3
> <PUBCHEM_IUPAC_INCHIKEY>
KIXWZUXGOBMLHH-UHFFFAOYSA-N
> <PUBCHEM_XLOGP3_AA>
1
> <PUBCHEM_EXACT_MASS>
134.094294304
> <PUBCHEM_MOLECULAR_FORMULA>
C6H14O3
> <PUBCHEM_MOLECULAR_WEIGHT>
134.17
> <PUBCHEM_OPENEYE_CAN_SMILES>
CC(O)OOC(C)(C)C
> <PUBCHEM_OPENEYE_ISO_SMILES>
CC(O)OOC(C)(C)C
> <PUBCHEM_CACTVS_TPSA>
38.7
> <PUBCHEM_MONOISOTOPIC_WEIGHT>
134.094294304
> <PUBCHEM_TOTAL_CHARGE>
0
> <PUBCHEM_HEAVY_ATOM_COUNT>
9
> <PUBCHEM_ATOM_DEF_STEREO_COUNT>
0
> <PUBCHEM_ATOM_UDEF_STEREO_COUNT>
1
> <PUBCHEM_BOND_DEF_STEREO_COUNT>
0
> <PUBCHEM_BOND_UDEF_STEREO_COUNT>
0
> <PUBCHEM_ISOTOPIC_ATOM_COUNT>
0
> <PUBCHEM_COMPONENT_COUNT>
1
> <PUBCHEM_CACTVS_TAUTO_COUNT>
-1
> <PUBCHEM_COORDINATE_TYPE>
1
5
255
> <PUBCHEM_BONDANNOTATIONS>
8  3  3
$$$$
