519109
  -OEChem-10302200292D
 26 25  0     1  0  0  0  0  0999 V2000
    4.5981   -0.4330    0.0000 P   0  0  0  0  0  0  0  0  0  0  0  0
    3.7320   -0.9330    0.0000 O   0  0  0  0  0  0  0  0  0  0  0  0
    4.0981    0.4330    0.0000 O   0  0  0  0  0  0  0  0  0  0  0  0
    6.3301   -0.4330    0.0000 O   0  0  0  0  0  0  0  0  0  0  0  0
    5.0981   -1.2990    0.0000 O   0  0  0  0  0  0  0  0  0  0  0  0
    5.4641    0.0670    0.0000 C   0  0  3  0  0  0  0  0  0  0  0  0
    5.4641    1.0670    0.0000 C   0  0  0  0  0  0  0  0  0  0  0  0
    2.8660   -0.4330    0.0000 C   0  0  0  0  0  0  0  0  0  0  0  0
    3.0981    0.4330    0.0000 C   0  0  0  0  0  0  0  0  0  0  0  0
    2.0000   -0.9330    0.0000 C   0  0  0  0  0  0  0  0  0  0  0  0
    2.5981    1.2990    0.0000 C   0  0  0  0  0  0  0  0  0  0  0  0
    5.4641   -0.5530    0.0000 H   0  0  0  0  0  0  0  0  0  0  0  0
    6.0841    1.0670    0.0000 H   0  0  0  0  0  0  0  0  0  0  0  0
    5.4641    1.6870    0.0000 H   0  0  0  0  0  0  0  0  0  0  0  0
    4.8441    1.0670    0.0000 H   0  0  0  0  0  0  0  0  0  0  0  0
    3.2646    0.0419    0.0000 H   0  0  0  0  0  0  0  0  0  0  0  0
    2.4675    0.0419    0.0000 H   0  0  0  0  0  0  0  0  0  0  0  0
    2.5155    0.2210    0.0000 H   0  0  0  0  0  0  0  0  0  0  0  0
    3.2057   -0.1776    0.0000 H   0  0  0  0  0  0  0  0  0  0  0  0
    6.8671   -0.1230    0.0000 H   0  0  0  0  0  0  0  0  0  0  0  0
    1.6900   -0.3961    0.0000 H   0  0  0  0  0  0  0  0  0  0  0  0
    1.4631   -1.2430    0.0000 H   0  0  0  0  0  0  0  0  0  0  0  0
    2.3100   -1.4700    0.0000 H   0  0  0  0  0  0  0  0  0  0  0  0
    3.1350    1.6090    0.0000 H   0  0  0  0  0  0  0  0  0  0  0  0
    2.2881    1.8360    0.0000 H   0  0  0  0  0  0  0  0  0  0  0  0
    2.0611    0.9890    0.0000 H   0  0  0  0  0  0  0  0  0  0  0  0
  1  2  1  0  0  0  0
  1  3  1  0  0  0  0
  1  5  2  0  0  0  0
  1  6  1  0  0  0  0
  2  8  1  0  0  0  0
  3  9  1  0  0  0  0
  4  6  1  0  0  0  0
  4 20  1  0  0  0  0
  6  7  1  0  0  0  0
  6 12  1  0  0  0  0
  7 13  1  0  0  0  0
  7 14  1  0  0  0  0
  7 15  1  0  0  0  0
  8 10  1  0  0  0  0
  8 16  1  0  0  0  0
  8 17  1  0  0  0  0
  9 11  1  0  0  0  0
  9 18  1  0  0  0  0
  9 19  1  0  0  0  0
 10 21  1  0  0  0  0
 10 22  1  0  0  0  0
 10 23  1  0  0  0  0
 11 24  1  0  0  0  0
 11 25  1  0  0  0  0
 11 26  1  0  0  0  0
M  END
> <PUBCHEM_COMPOUND_CID>
519109
> <PUBCHEM_COMPOUND_CANONICALIZED>
1
> <PUBCHEM_CACTVS_COMPLEXITY>
138
> <PUBCHEM_CACTVS_HBOND_ACCEPTOR>
4
> <PUBCHEM_CACTVS_HBOND_DONOR>
1
> <PUBCHEM_CACTVS_ROTATABLE_BOND>
5
> <PUBCHEM_CACTVS_SUBSKEYS>
AAADccBgOAIAAAAAAAAAAAAAAAAAAAAAAAAAAAAAAAAAAAAAAAAAGggACCAAAACogAICAAAAAxAAQAAAAIAAAAAAAAAAAAAAAAAAEAAAAAAAAAAAAAAAAAAAAAAAAAAAAAAAAAAAAAAAAAAAAAAAAAAAAA==
> <PUBCHEM_IUPAC_OPENEYE_NAME>
1-diethoxyphosphorylethanol
> <PUBCHEM_IUPAC_CAS_NAME>
1-diethoxyphosphorylethanol
> <PUBCHEM_IUPAC_NAME_MARKUP>
1-diethoxyphosphorylethanol
> <PUBCHEM_IUPAC_NAME>
1-diethoxyphosphorylethanol
> <PUBCHEM_IUPAC_SYSTEMATIC_NAME>
1-diethoxyphosphorylethanol
> <PUBCHEM_IUPAC_TRADITIONAL_NAME>
1-diethoxyphosphorylethanol
> <PUBCHEM_IUPAC_INCHI>
InChI=1S/C6H15O4P/c1-4-9-11(8,6(3)7)10-5-2/h6-7H,4-5H2,1-3H3
> <PUBCHEM_IUPAC_INCHIKEY>
CPHUZBQLLNFATG-UHFFFAOYSA-N
> <PUBCHEM_XLOGP3_AA>
0.1
> <PUBCHEM_EXACT_MASS>
182.07079595
> <PUBCHEM_MOLECULAR_FORMULA>
C6H15O4P
> <PUBCHEM_MOLECULAR_WEIGHT>
182.15
> <PUBCHEM_OPENEYE_CAN_SMILES>
CCOP(=O)(C(C)O)OCC
> <PUBCHEM_OPENEYE_ISO_SMILES>
CCOP(=O)(C(C)O)OCC
> <PUBCHEM_CACTVS_TPSA>
55.8
> <PUBCHEM_MONOISOTOPIC_WEIGHT>
182.07079595
> <PUBCHEM_TOTAL_CHARGE>
0
> <PUBCHEM_HEAVY_ATOM_COUNT>
11
> <PUBCHEM_ATOM_DEF_STEREO_COUNT>
0
> <PUBCHEM_ATOM_UDEF_STEREO_COUNT>
1
> <PUBCHEM_BOND_DEF_STEREO_COUNT>
0
> <PUBCHEM_BOND_UDEF_STEREO_COUNT>
0
> <PUBCHEM_ISOTOPIC_ATOM_COUNT>
0
> <PUBCHEM_COMPONENT_COUNT>
1
> <PUBCHEM_CACTVS_TAUTO_COUNT>
1
> <PUBCHEM_COORDINATE_TYPE>
1
5
255
> <PUBCHEM_BONDANNOTATIONS>
6  4  3
$$$$
