519239
  -OEChem-10302200292D
 17 17  0     1  0  0  0  0  0999 V2000
    4.3660   -0.5976    0.0000 N   0  0  0  0  0  0  0  0  0  0  0  0
    2.8660    0.2685    0.0000 C   0  0  0  0  0  0  0  0  0  0  0  0
    2.0000   -0.2315    0.0000 C   0  0  0  0  0  0  0  0  0  0  0  0
    2.0000    0.7685    0.0000 C   0  0  0  0  0  0  0  0  0  0  0  0
    3.8660    0.2685    0.0000 C   0  0  3  0  0  0  0  0  0  0  0  0
    4.3660    1.1345    0.0000 C   0  0  0  0  0  0  0  0  0  0  0  0
    3.0265   -0.3304    0.0000 H   0  0  0  0  0  0  0  0  0  0  0  0
    1.3894   -0.3392    0.0000 H   0  0  0  0  0  0  0  0  0  0  0  0
    2.2120   -0.8141    0.0000 H   0  0  0  0  0  0  0  0  0  0  0  0
    2.2120    1.3511    0.0000 H   0  0  0  0  0  0  0  0  0  0  0  0
    1.3894    0.8761    0.0000 H   0  0  0  0  0  0  0  0  0  0  0  0
    4.7160    0.2685    0.0000 H   0  0  0  0  0  0  0  0  0  0  0  0
    4.9030    0.8245    0.0000 H   0  0  0  0  0  0  0  0  0  0  0  0
    4.6760    1.6714    0.0000 H   0  0  0  0  0  0  0  0  0  0  0  0
    3.8291    1.4445    0.0000 H   0  0  0  0  0  0  0  0  0  0  0  0
    4.9860   -0.5976    0.0000 H   0  0  0  0  0  0  0  0  0  0  0  0
    4.0560   -1.1345    0.0000 H   0  0  0  0  0  0  0  0  0  0  0  0
  1  5  1  0  0  0  0
  1 16  1  0  0  0  0
  1 17  1  0  0  0  0
  2  3  1  0  0  0  0
  2  4  1  0  0  0  0
  2  5  1  0  0  0  0
  2  7  1  0  0  0  0
  3  4  1  0  0  0  0
  3  8  1  0  0  0  0
  3  9  1  0  0  0  0
  4 10  1  0  0  0  0
  4 11  1  0  0  0  0
  5  6  1  0  0  0  0
  5 12  1  0  0  0  0
  6 13  1  0  0  0  0
  6 14  1  0  0  0  0
  6 15  1  0  0  0  0
M  END
> <PUBCHEM_COMPOUND_CID>
519239
> <PUBCHEM_COMPOUND_CANONICALIZED>
1
> <PUBCHEM_CACTVS_COMPLEXITY>
47.9
> <PUBCHEM_CACTVS_HBOND_ACCEPTOR>
1
> <PUBCHEM_CACTVS_HBOND_DONOR>
1
> <PUBCHEM_CACTVS_ROTATABLE_BOND>
1
> <PUBCHEM_CACTVS_SUBSKEYS>
AAADccBiAAAAAAAAAAAAAAAAGAAAAAAAAAAAAAAAAAAAAAAAAAAAHAAQAAAADSjBAAQCAABAAAAAAAAAAAAAAAAAAAAAAIAAAAAAAAIAgAAAAAAAEAAAAAAAAAAIAAAAAAAAAAAAAAAAAAAAAAAAAAAAAA==
> <PUBCHEM_IUPAC_OPENEYE_NAME>
1-cyclopropylethanamine
> <PUBCHEM_IUPAC_CAS_NAME>
1-cyclopropylethanamine
> <PUBCHEM_IUPAC_NAME_MARKUP>
1-cyclopropylethanamine
> <PUBCHEM_IUPAC_NAME>
1-cyclopropylethanamine
> <PUBCHEM_IUPAC_SYSTEMATIC_NAME>
1-cyclopropylethanamine
> <PUBCHEM_IUPAC_TRADITIONAL_NAME>
1-cyclopropylethylamine
> <PUBCHEM_IUPAC_INCHI>
InChI=1S/C5H11N/c1-4(6)5-2-3-5/h4-5H,2-3,6H2,1H3
> <PUBCHEM_IUPAC_INCHIKEY>
IXCXVGWKYIDNOS-UHFFFAOYSA-N
> <PUBCHEM_XLOGP3_AA>
0.5
> <PUBCHEM_EXACT_MASS>
85.089149355
> <PUBCHEM_MOLECULAR_FORMULA>
C5H11N
> <PUBCHEM_MOLECULAR_WEIGHT>
85.15
> <PUBCHEM_OPENEYE_CAN_SMILES>
CC(C1CC1)N
> <PUBCHEM_OPENEYE_ISO_SMILES>
CC(C1CC1)N
> <PUBCHEM_CACTVS_TPSA>
26
> <PUBCHEM_MONOISOTOPIC_WEIGHT>
85.089149355
> <PUBCHEM_TOTAL_CHARGE>
0
> <PUBCHEM_HEAVY_ATOM_COUNT>
6
> <PUBCHEM_ATOM_DEF_STEREO_COUNT>
0
> <PUBCHEM_ATOM_UDEF_STEREO_COUNT>
1
> <PUBCHEM_BOND_DEF_STEREO_COUNT>
0
> <PUBCHEM_BOND_UDEF_STEREO_COUNT>
0
> <PUBCHEM_ISOTOPIC_ATOM_COUNT>
0
> <PUBCHEM_COMPONENT_COUNT>
1
> <PUBCHEM_CACTVS_TAUTO_COUNT>
1
> <PUBCHEM_COORDINATE_TYPE>
1
5
255
> <PUBCHEM_BONDANNOTATIONS>
5  12  3
$$$$
