519263
  -OEChem-10302200292D
 21 20  0     1  0  0  0  0  0999 V2000
    2.5369    0.5000    0.0000 S   0  0  0  0  0  0  0  0  0  0  0  0
    4.2690    0.5000    0.0000 C   0  0  0  0  0  0  0  0  0  0  0  0
    3.4030    0.0000    0.0000 C   0  0  3  0  0  0  0  0  0  0  0  0
    3.4030   -1.0000    0.0000 C   0  0  0  0  0  0  0  0  0  0  0  0
    5.1350    0.0000    0.0000 C   0  0  0  0  0  0  0  0  0  0  0  0
    4.2690    1.5000    0.0000 C   0  0  0  0  0  0  0  0  0  0  0  0
    2.5369   -1.5000    0.0000 C   0  0  0  0  0  0  0  0  0  0  0  0
    4.2690   -0.1200    0.0000 H   0  0  0  0  0  0  0  0  0  0  0  0
    3.4030    0.8500    0.0000 H   0  0  0  0  0  0  0  0  0  0  0  0
    3.6150   -1.5826    0.0000 H   0  0  0  0  0  0  0  0  0  0  0  0
    4.0135   -0.8923    0.0000 H   0  0  0  0  0  0  0  0  0  0  0  0
    4.8250   -0.5369    0.0000 H   0  0  0  0  0  0  0  0  0  0  0  0
    5.6720   -0.3100    0.0000 H   0  0  0  0  0  0  0  0  0  0  0  0
    5.4450    0.5369    0.0000 H   0  0  0  0  0  0  0  0  0  0  0  0
    4.8890    1.5000    0.0000 H   0  0  0  0  0  0  0  0  0  0  0  0
    4.2690    2.1200    0.0000 H   0  0  0  0  0  0  0  0  0  0  0  0
    3.6490    1.5000    0.0000 H   0  0  0  0  0  0  0  0  0  0  0  0
    2.2269   -0.9631    0.0000 H   0  0  0  0  0  0  0  0  0  0  0  0
    2.0000   -1.8100    0.0000 H   0  0  0  0  0  0  0  0  0  0  0  0
    2.8469   -2.0369    0.0000 H   0  0  0  0  0  0  0  0  0  0  0  0
    2.0000    0.1900    0.0000 H   0  0  0  0  0  0  0  0  0  0  0  0
  1  3  1  0  0  0  0
  1 21  1  0  0  0  0
  2  3  1  0  0  0  0
  2  5  1  0  0  0  0
  2  6  1  0  0  0  0
  2  8  1  0  0  0  0
  3  4  1  0  0  0  0
  3  9  1  0  0  0  0
  4  7  1  0  0  0  0
  4 10  1  0  0  0  0
  4 11  1  0  0  0  0
  5 12  1  0  0  0  0
  5 13  1  0  0  0  0
  5 14  1  0  0  0  0
  6 15  1  0  0  0  0
  6 16  1  0  0  0  0
  6 17  1  0  0  0  0
  7 18  1  0  0  0  0
  7 19  1  0  0  0  0
  7 20  1  0  0  0  0
M  END
> <PUBCHEM_COMPOUND_CID>
519263
> <PUBCHEM_COMPOUND_CANONICALIZED>
1
> <PUBCHEM_CACTVS_COMPLEXITY>
41.4
> <PUBCHEM_CACTVS_HBOND_ACCEPTOR>
1
> <PUBCHEM_CACTVS_HBOND_DONOR>
1
> <PUBCHEM_CACTVS_ROTATABLE_BOND>
2
> <PUBCHEM_CACTVS_SUBSKEYS>
AAADccBgAABAAAAAAAAAAAAAAAAAAAAAAAAAAAAAAAAAAAAAAAAAGAQAAAAADQCEQACCAAAAAAQAAAAAAAAAAAAAAAAAAAAAAAAAAAIAAAAAAAAAAAAAAAAAAAAMAAAAAAAAAAAAAAAAAAAAAAAAAAAAAA==
> <PUBCHEM_IUPAC_OPENEYE_NAME>
2-methylpentane-3-thiol
> <PUBCHEM_IUPAC_CAS_NAME>
2-methyl-3-pentanethiol
> <PUBCHEM_IUPAC_NAME_MARKUP>
2-methylpentane-3-thiol
> <PUBCHEM_IUPAC_NAME>
2-methylpentane-3-thiol
> <PUBCHEM_IUPAC_SYSTEMATIC_NAME>
2-methylpentane-3-thiol
> <PUBCHEM_IUPAC_TRADITIONAL_NAME>
2-methylpentane-3-thiol
> <PUBCHEM_IUPAC_INCHI>
InChI=1S/C6H14S/c1-4-6(7)5(2)3/h5-7H,4H2,1-3H3
> <PUBCHEM_IUPAC_INCHIKEY>
NTRKGRUMBHBCAM-UHFFFAOYSA-N
> <PUBCHEM_XLOGP3_AA>
2.8
> <PUBCHEM_EXACT_MASS>
118.08162162
> <PUBCHEM_MOLECULAR_FORMULA>
C6H14S
> <PUBCHEM_MOLECULAR_WEIGHT>
118.24
> <PUBCHEM_OPENEYE_CAN_SMILES>
CCC(C(C)C)S
> <PUBCHEM_OPENEYE_ISO_SMILES>
CCC(C(C)C)S
> <PUBCHEM_CACTVS_TPSA>
1
> <PUBCHEM_MONOISOTOPIC_WEIGHT>
118.08162162
> <PUBCHEM_TOTAL_CHARGE>
0
> <PUBCHEM_HEAVY_ATOM_COUNT>
7
> <PUBCHEM_ATOM_DEF_STEREO_COUNT>
0
> <PUBCHEM_ATOM_UDEF_STEREO_COUNT>
1
> <PUBCHEM_BOND_DEF_STEREO_COUNT>
0
> <PUBCHEM_BOND_UDEF_STEREO_COUNT>
0
> <PUBCHEM_ISOTOPIC_ATOM_COUNT>
0
> <PUBCHEM_COMPONENT_COUNT>
1
> <PUBCHEM_CACTVS_TAUTO_COUNT>
1
> <PUBCHEM_COORDINATE_TYPE>
1
5
255
> <PUBCHEM_BONDANNOTATIONS>
3  9  3
$$$$
