519251
  -OEChem-10302200292D
 21 20  0     1  0  0  0  0  0999 V2000
    2.5369    0.2500    0.0000 S   0  0  0  0  0  0  0  0  0  0  0  0
    4.2690    0.2500    0.0000 C   0  0  3  0  0  0  0  0  0  0  0  0
    5.1350    0.7500    0.0000 C   0  0  0  0  0  0  0  0  0  0  0  0
    6.0010    0.2500    0.0000 C   0  0  0  0  0  0  0  0  0  0  0  0
    3.4030    0.7500    0.0000 C   0  0  0  0  0  0  0  0  0  0  0  0
    4.2690   -0.7500    0.0000 C   0  0  0  0  0  0  0  0  0  0  0  0
    6.8671    0.7500    0.0000 C   0  0  0  0  0  0  0  0  0  0  0  0
    5.0051   -0.1750    0.0000 H   0  0  0  0  0  0  0  0  0  0  0  0
    5.5335    1.2250    0.0000 H   0  0  0  0  0  0  0  0  0  0  0  0
    4.7365    1.2250    0.0000 H   0  0  0  0  0  0  0  0  0  0  0  0
    5.6025   -0.2249    0.0000 H   0  0  0  0  0  0  0  0  0  0  0  0
    6.3996   -0.2249    0.0000 H   0  0  0  0  0  0  0  0  0  0  0  0
    3.8015    1.2250    0.0000 H   0  0  0  0  0  0  0  0  0  0  0  0
    3.0044    1.2250    0.0000 H   0  0  0  0  0  0  0  0  0  0  0  0
    3.6490   -0.7500    0.0000 H   0  0  0  0  0  0  0  0  0  0  0  0
    4.2690   -1.3700    0.0000 H   0  0  0  0  0  0  0  0  0  0  0  0
    4.8890   -0.7500    0.0000 H   0  0  0  0  0  0  0  0  0  0  0  0
    7.1771    0.2131    0.0000 H   0  0  0  0  0  0  0  0  0  0  0  0
    7.4040    1.0600    0.0000 H   0  0  0  0  0  0  0  0  0  0  0  0
    6.5571    1.2869    0.0000 H   0  0  0  0  0  0  0  0  0  0  0  0
    2.0000    0.5600    0.0000 H   0  0  0  0  0  0  0  0  0  0  0  0
  1  5  1  0  0  0  0
  1 21  1  0  0  0  0
  2  3  1  0  0  0  0
  2  5  1  0  0  0  0
  2  6  1  0  0  0  0
  2  8  1  0  0  0  0
  3  4  1  0  0  0  0
  3  9  1  0  0  0  0
  3 10  1  0  0  0  0
  4  7  1  0  0  0  0
  4 11  1  0  0  0  0
  4 12  1  0  0  0  0
  5 13  1  0  0  0  0
  5 14  1  0  0  0  0
  6 15  1  0  0  0  0
  6 16  1  0  0  0  0
  6 17  1  0  0  0  0
  7 18  1  0  0  0  0
  7 19  1  0  0  0  0
  7 20  1  0  0  0  0
M  END
> <PUBCHEM_COMPOUND_CID>
519251
> <PUBCHEM_COMPOUND_CANONICALIZED>
1
> <PUBCHEM_CACTVS_COMPLEXITY>
35.2
> <PUBCHEM_CACTVS_HBOND_ACCEPTOR>
1
> <PUBCHEM_CACTVS_HBOND_DONOR>
1
> <PUBCHEM_CACTVS_ROTATABLE_BOND>
3
> <PUBCHEM_CACTVS_SUBSKEYS>
AAADccBgAABAAAAAAAAAAAAAAAAAAAAAAAAAAAAAAAAAAAAAAAAAGAQAAAAADQCEQACCAAAAAAQAAAAAAAAAAAAAAAAAAAAAAAAAAAIAAAAAAAAAAAAAAAAAAAAMAAAAAAAAAAAAAAAAAAAAAAAAAAAAAA==
> <PUBCHEM_IUPAC_OPENEYE_NAME>
2-methylpentane-1-thiol
> <PUBCHEM_IUPAC_CAS_NAME>
2-methyl-1-pentanethiol
> <PUBCHEM_IUPAC_NAME_MARKUP>
2-methylpentane-1-thiol
> <PUBCHEM_IUPAC_NAME>
2-methylpentane-1-thiol
> <PUBCHEM_IUPAC_SYSTEMATIC_NAME>
2-methylpentane-1-thiol
> <PUBCHEM_IUPAC_TRADITIONAL_NAME>
2-methylpentane-1-thiol
> <PUBCHEM_IUPAC_INCHI>
InChI=1S/C6H14S/c1-3-4-6(2)5-7/h6-7H,3-5H2,1-2H3
> <PUBCHEM_IUPAC_INCHIKEY>
ZUPLFMMTGJBSMK-UHFFFAOYSA-N
> <PUBCHEM_XLOGP3_AA>
2.7
> <PUBCHEM_EXACT_MASS>
118.08162162
> <PUBCHEM_MOLECULAR_FORMULA>
C6H14S
> <PUBCHEM_MOLECULAR_WEIGHT>
118.24
> <PUBCHEM_OPENEYE_CAN_SMILES>
CCCC(C)CS
> <PUBCHEM_OPENEYE_ISO_SMILES>
CCCC(C)CS
> <PUBCHEM_CACTVS_TPSA>
1
> <PUBCHEM_MONOISOTOPIC_WEIGHT>
118.08162162
> <PUBCHEM_TOTAL_CHARGE>
0
> <PUBCHEM_HEAVY_ATOM_COUNT>
7
> <PUBCHEM_ATOM_DEF_STEREO_COUNT>
0
> <PUBCHEM_ATOM_UDEF_STEREO_COUNT>
1
> <PUBCHEM_BOND_DEF_STEREO_COUNT>
0
> <PUBCHEM_BOND_UDEF_STEREO_COUNT>
0
> <PUBCHEM_ISOTOPIC_ATOM_COUNT>
0
> <PUBCHEM_COMPONENT_COUNT>
1
> <PUBCHEM_CACTVS_TAUTO_COUNT>
1
> <PUBCHEM_COORDINATE_TYPE>
1
5
255
> <PUBCHEM_BONDANNOTATIONS>
2  8  3
$$$$
