519248
  -OEChem-10302200292D
 63 66  0     1  0  0  0  0  0999 V2000
    8.2591    1.8431    0.0000 O   0  0  0  0  0  0  0  0  0  0  0  0
    3.7320   -2.7092    0.0000 O   0  0  0  0  0  0  0  0  0  0  0  0
   12.0284    1.0603    0.0000 O   0  0  0  0  0  0  0  0  0  0  0  0
    2.8718   -1.2059    0.0000 O   0  0  0  0  0  0  0  0  0  0  0  0
   10.3820    1.5983    0.0000 N   0  0  0  0  0  0  0  0  0  0  0  0
    8.2591   -1.1569    0.0000 C   0  0  3  0  0  0  0  0  0  0  0  0
    7.3931   -0.6569    0.0000 C   0  0  3  0  0  0  0  0  0  0  0  0
    6.4831   -1.1638    0.0000 C   0  0  3  0  0  0  0  0  0  0  0  0
    9.1251   -0.6569    0.0000 C   0  0  3  0  0  0  0  0  0  0  0  0
    9.1251    0.3431    0.0000 C   0  0  3  0  0  0  0  0  0  0  0  0
    6.4750   -2.2054    0.0000 C   0  0  3  0  0  0  0  0  0  0  0  0
    8.2752   -2.1984    0.0000 C   0  0  0  0  0  0  0  0  0  0  0  0
    7.3931    0.3431    0.0000 C   0  0  0  0  0  0  0  0  0  0  0  0
    7.3771   -2.7262    0.0000 C   0  0  0  0  0  0  0  0  0  0  0  0
   10.0713    0.6478    0.0000 C   0  0  3  0  0  0  0  0  0  0  0  0
   10.0713   -0.9616    0.0000 C   0  0  0  0  0  0  0  0  0  0  0  0
    5.5562   -0.5997    0.0000 C   0  0  0  0  0  0  0  0  0  0  0  0
    8.2591    0.8431    0.0000 C   0  0  0  0  0  0  0  0  0  0  0  0
   10.6550   -0.1569    0.0000 C   0  0  0  0  0  0  0  0  0  0  0  0
    5.5396   -2.7551    0.0000 C   0  0  0  0  0  0  0  0  0  0  0  0
    6.4908   -0.1638    0.0000 C   0  0  0  0  0  0  0  0  0  0  0  0
    4.6084   -1.1276    0.0000 C   0  0  0  0  0  0  0  0  0  0  0  0
    9.1251    1.3431    0.0000 C   0  0  0  0  0  0  0  0  0  0  0  0
    4.6000   -2.2126    0.0000 C   0  0  3  0  0  0  0  0  0  0  0  0
   11.3605    1.8046    0.0000 C   0  0  0  0  0  0  0  0  0  0  0  0
    2.8680   -2.2059    0.0000 C   0  0  0  0  0  0  0  0  0  0  0  0
   11.6712    2.7551    0.0000 C   0  0  0  0  0  0  0  0  0  0  0  0
    2.0000   -2.7026    0.0000 C   0  0  0  0  0  0  0  0  0  0  0  0
    8.7984   -1.4628    0.0000 H   0  0  0  0  0  0  0  0  0  0  0  0
    7.9300   -0.3469    0.0000 H   0  0  0  0  0  0  0  0  0  0  0  0
    9.1907   -1.2734    0.0000 H   0  0  0  0  0  0  0  0  0  0  0  0
    6.4774   -2.8253    0.0000 H   0  0  0  0  0  0  0  0  0  0  0  0
    8.4932   -2.7788    0.0000 H   0  0  0  0  0  0  0  0  0  0  0  0
    8.8843   -2.0829    0.0000 H   0  0  0  0  0  0  0  0  0  0  0  0
    7.1810    0.9257    0.0000 H   0  0  0  0  0  0  0  0  0  0  0  0
    6.7825    0.2354    0.0000 H   0  0  0  0  0  0  0  0  0  0  0  0
    6.9798   -3.2021    0.0000 H   0  0  0  0  0  0  0  0  0  0  0  0
    7.7781   -3.1991    0.0000 H   0  0  0  0  0  0  0  0  0  0  0  0
    9.6339    1.0872    0.0000 H   0  0  0  0  0  0  0  0  0  0  0  0
    9.8203   -1.5286    0.0000 H   0  0  0  0  0  0  0  0  0  0  0  0
   10.6087   -1.2709    0.0000 H   0  0  0  0  0  0  0  0  0  0  0  0
    5.9644   -0.1330    0.0000 H   0  0  0  0  0  0  0  0  0  0  0  0
    5.1663   -0.1176    0.0000 H   0  0  0  0  0  0  0  0  0  0  0  0
   11.1158   -0.5716    0.0000 H   0  0  0  0  0  0  0  0  0  0  0  0
   11.1158    0.2578    0.0000 H   0  0  0  0  0  0  0  0  0  0  0  0
    5.1423   -3.2311    0.0000 H   0  0  0  0  0  0  0  0  0  0  0  0
    5.9406   -3.2280    0.0000 H   0  0  0  0  0  0  0  0  0  0  0  0
    7.1108   -0.1686    0.0000 H   0  0  0  0  0  0  0  0  0  0  0  0
    6.4956    0.4562    0.0000 H   0  0  0  0  0  0  0  0  0  0  0  0
    5.8708   -0.1590    0.0000 H   0  0  0  0  0  0  0  0  0  0  0  0
    4.4038   -0.5423    0.0000 H   0  0  0  0  0  0  0  0  0  0  0  0
    3.9967   -1.2290    0.0000 H   0  0  0  0  0  0  0  0  0  0  0  0
    9.7451    1.3431    0.0000 H   0  0  0  0  0  0  0  0  0  0  0  0
    9.1251    1.9631    0.0000 H   0  0  0  0  0  0  0  0  0  0  0  0
    8.5051    1.3431    0.0000 H   0  0  0  0  0  0  0  0  0  0  0  0
    4.0648   -1.8995    0.0000 H   0  0  0  0  0  0  0  0  0  0  0  0
    9.9679    2.0598    0.0000 H   0  0  0  0  0  0  0  0  0  0  0  0
   12.2605    2.5625    0.0000 H   0  0  0  0  0  0  0  0  0  0  0  0
   11.8638    3.3444    0.0000 H   0  0  0  0  0  0  0  0  0  0  0  0
   11.0818    2.9477    0.0000 H   0  0  0  0  0  0  0  0  0  0  0  0
    1.6921   -2.1644    0.0000 H   0  0  0  0  0  0  0  0  0  0  0  0
    1.4619   -3.0105    0.0000 H   0  0  0  0  0  0  0  0  0  0  0  0
    2.3079   -3.2407    0.0000 H   0  0  0  0  0  0  0  0  0  0  0  0
  1 18  2  0  0  0  0
  2 24  1  0  0  0  0
  2 26  1  0  0  0  0
  3 25  2  0  0  0  0
  4 26  2  0  0  0  0
  5 15  1  0  0  0  0
  5 25  1  0  0  0  0
  5 57  1  0  0  0  0
  6  7  1  0  0  0  0
  6  9  1  0  0  0  0
  6 12  1  0  0  0  0
  6 29  1  0  0  0  0
  7  8  1  0  0  0  0
  7 13  1  0  0  0  0
  7 30  1  0  0  0  0
  8 11  1  0  0  0  0
  8 17  1  0  0  0  0
  8 21  1  0  0  0  0
  9 10  1  0  0  0  0
  9 16  1  0  0  0  0
  9 31  1  0  0  0  0
 10 15  1  0  0  0  0
 10 18  1  0  0  0  0
 10 23  1  0  0  0  0
 11 14  1  0  0  0  0
 11 20  1  0  0  0  0
 11 32  1  0  0  0  0
 12 14  1  0  0  0  0
 12 33  1  0  0  0  0
 12 34  1  0  0  0  0
 13 18  1  0  0  0  0
 13 35  1  0  0  0  0
 13 36  1  0  0  0  0
 14 37  1  0  0  0  0
 14 38  1  0  0  0  0
 15 19  1  0  0  0  0
 15 39  1  0  0  0  0
 16 19  1  0  0  0  0
 16 40  1  0  0  0  0
 16 41  1  0  0  0  0
 17 22  1  0  0  0  0
 17 42  1  0  0  0  0
 17 43  1  0  0  0  0
 19 44  1  0  0  0  0
 19 45  1  0  0  0  0
 20 24  1  0  0  0  0
 20 46  1  0  0  0  0
 20 47  1  0  0  0  0
 21 48  1  0  0  0  0
 21 49  1  0  0  0  0
 21 50  1  0  0  0  0
 22 24  1  0  0  0  0
 22 51  1  0  0  0  0
 22 52  1  0  0  0  0
 23 53  1  0  0  0  0
 23 54  1  0  0  0  0
 23 55  1  0  0  0  0
 24 56  1  0  0  0  0
 25 27  1  0  0  0  0
 26 28  1  0  0  0  0
 27 58  1  0  0  0  0
 27 59  1  0  0  0  0
 27 60  1  0  0  0  0
 28 61  1  0  0  0  0
 28 62  1  0  0  0  0
 28 63  1  0  0  0  0
M  END
> <PUBCHEM_COMPOUND_CID>
519248
> <PUBCHEM_COMPOUND_CANONICALIZED>
1
> <PUBCHEM_CACTVS_COMPLEXITY>
690
> <PUBCHEM_CACTVS_HBOND_ACCEPTOR>
4
> <PUBCHEM_CACTVS_HBOND_DONOR>
1
> <PUBCHEM_CACTVS_ROTATABLE_BOND>
3
> <PUBCHEM_CACTVS_SUBSKEYS>
AAADcfB6OAAAAAAAAAAAAAAAAAAAAYAAAAAwYMAAAAAAAGDAAAAAHgAQAAAADzzhgAYCCALABAAIAIGQGAAAAAAAAAAAAIEIAAAAABoAgAAGAAAEFgCAAAGYyPCPgAAAAAAAAADAAAYAACAAACAACQAAAA==
> <PUBCHEM_IUPAC_OPENEYE_NAME>
(17-acetamido-10,13-dimethyl-12-oxo-1,2,3,4,5,6,7,8,9,11,14,15,16,17-tetradecahydrocyclopenta[a]phenanthren-3-yl) acetate
> <PUBCHEM_IUPAC_CAS_NAME>
acetic acid (17-acetamido-10,13-dimethyl-12-oxo-1,2,3,4,5,6,7,8,9,11,14,15,16,17-tetradecahydrocyclopenta[a]phenanthren-3-yl) ester
> <PUBCHEM_IUPAC_NAME_MARKUP>
(17-acetamido-10,13-dimethyl-12-oxo-1,2,3,4,5,6,7,8,9,11,14,15,16,17-tetradecahydrocyclopenta[a]phenanthren-3-yl) acetate
> <PUBCHEM_IUPAC_NAME>
(17-acetamido-10,13-dimethyl-12-oxo-1,2,3,4,5,6,7,8,9,11,14,15,16,17-tetradecahydrocyclopenta[a]phenanthren-3-yl) acetate
> <PUBCHEM_IUPAC_SYSTEMATIC_NAME>
(17-acetamido-10,13-dimethyl-12-oxidanylidene-1,2,3,4,5,6,7,8,9,11,14,15,16,17-tetradecahydrocyclopenta[a]phenanthren-3-yl) ethanoate
> <PUBCHEM_IUPAC_TRADITIONAL_NAME>
acetic acid (17-acetamido-12-keto-10,13-dimethyl-1,2,3,4,5,6,7,8,9,11,14,15,16,17-tetradecahydrocyclopenta[a]phenanthren-3-yl) ester
> <PUBCHEM_IUPAC_INCHI>
InChI=1S/C23H35NO4/c1-13(25)24-20-8-7-18-17-6-5-15-11-16(28-14(2)26)9-10-22(15,3)19(17)12-21(27)23(18,20)4/h15-20H,5-12H2,1-4H3,(H,24,25)
> <PUBCHEM_IUPAC_INCHIKEY>
JLPROZIQMZUUDI-UHFFFAOYSA-N
> <PUBCHEM_XLOGP3_AA>
3.3
> <PUBCHEM_EXACT_MASS>
389.25660860
> <PUBCHEM_MOLECULAR_FORMULA>
C23H35NO4
> <PUBCHEM_MOLECULAR_WEIGHT>
389.5
> <PUBCHEM_OPENEYE_CAN_SMILES>
CC(=O)NC1CCC2C1(C(=O)CC3C2CCC4C3(CCC(C4)OC(=O)C)C)C
> <PUBCHEM_OPENEYE_ISO_SMILES>
CC(=O)NC1CCC2C1(C(=O)CC3C2CCC4C3(CCC(C4)OC(=O)C)C)C
> <PUBCHEM_CACTVS_TPSA>
72.5
> <PUBCHEM_MONOISOTOPIC_WEIGHT>
389.25660860
> <PUBCHEM_TOTAL_CHARGE>
0
> <PUBCHEM_HEAVY_ATOM_COUNT>
28
> <PUBCHEM_ATOM_DEF_STEREO_COUNT>
0
> <PUBCHEM_ATOM_UDEF_STEREO_COUNT>
8
> <PUBCHEM_BOND_DEF_STEREO_COUNT>
0
> <PUBCHEM_BOND_UDEF_STEREO_COUNT>
0
> <PUBCHEM_ISOTOPIC_ATOM_COUNT>
0
> <PUBCHEM_COMPONENT_COUNT>
1
> <PUBCHEM_CACTVS_TAUTO_COUNT>
-1
> <PUBCHEM_COORDINATE_TYPE>
1
5
255
> <PUBCHEM_BONDANNOTATIONS>
10  23  3
11  14  3
24  2  3
15  5  3
6  12  3
7  13  3
8  21  3
9  16  3
$$$$
