519283
  -OEChem-10302200292D
 30 30  0     1  0  0  0  0  0999 V2000
    3.7320    0.2500    0.0000 C   0  0  3  0  0  0  0  0  0  0  0  0
    2.8660   -0.2500    0.0000 C   0  0  3  0  0  0  0  0  0  0  0  0
    4.5981   -0.2500    0.0000 C   0  0  0  0  0  0  0  0  0  0  0  0
    2.8660   -1.2500    0.0000 C   0  0  0  0  0  0  0  0  0  0  0  0
    3.7320    1.2500    0.0000 C   0  0  0  0  0  0  0  0  0  0  0  0
    4.5981   -1.2500    0.0000 C   0  0  0  0  0  0  0  0  0  0  0  0
    3.7320   -1.7500    0.0000 C   0  0  0  0  0  0  0  0  0  0  0  0
    2.0000    0.2500    0.0000 C   0  0  0  0  0  0  0  0  0  0  0  0
    4.5981    1.7500    0.0000 C   0  0  0  0  0  0  0  0  0  0  0  0
    2.8660    1.7500    0.0000 C   0  0  0  0  0  0  0  0  0  0  0  0
    4.4682    0.6750    0.0000 H   0  0  0  0  0  0  0  0  0  0  0  0
    2.8660    0.6000    0.0000 H   0  0  0  0  0  0  0  0  0  0  0  0
    5.2087   -0.3577    0.0000 H   0  0  0  0  0  0  0  0  0  0  0  0
    4.8101    0.3326    0.0000 H   0  0  0  0  0  0  0  0  0  0  0  0
    2.2554   -1.1423    0.0000 H   0  0  0  0  0  0  0  0  0  0  0  0
    2.6540   -1.8326    0.0000 H   0  0  0  0  0  0  0  0  0  0  0  0
    3.7320    1.8700    0.0000 H   0  0  0  0  0  0  0  0  0  0  0  0
    4.8101   -1.8326    0.0000 H   0  0  0  0  0  0  0  0  0  0  0  0
    5.2087   -1.1423    0.0000 H   0  0  0  0  0  0  0  0  0  0  0  0
    3.3335   -2.2250    0.0000 H   0  0  0  0  0  0  0  0  0  0  0  0
    4.1306   -2.2250    0.0000 H   0  0  0  0  0  0  0  0  0  0  0  0
    2.3100    0.7869    0.0000 H   0  0  0  0  0  0  0  0  0  0  0  0
    1.4631    0.5600    0.0000 H   0  0  0  0  0  0  0  0  0  0  0  0
    1.6900   -0.2869    0.0000 H   0  0  0  0  0  0  0  0  0  0  0  0
    4.9081    1.2131    0.0000 H   0  0  0  0  0  0  0  0  0  0  0  0
    5.1350    2.0600    0.0000 H   0  0  0  0  0  0  0  0  0  0  0  0
    4.2881    2.2869    0.0000 H   0  0  0  0  0  0  0  0  0  0  0  0
    3.1760    2.2869    0.0000 H   0  0  0  0  0  0  0  0  0  0  0  0
    2.3291    2.0600    0.0000 H   0  0  0  0  0  0  0  0  0  0  0  0
    2.5560    1.2131    0.0000 H   0  0  0  0  0  0  0  0  0  0  0  0
  1  2  1  0  0  0  0
  1  3  1  0  0  0  0
  1  5  1  0  0  0  0
  1 11  1  0  0  0  0
  2  4  1  0  0  0  0
  2  8  1  0  0  0  0
  2 12  1  0  0  0  0
  3  6  1  0  0  0  0
  3 13  1  0  0  0  0
  3 14  1  0  0  0  0
  4  7  1  0  0  0  0
  4 15  1  0  0  0  0
  4 16  1  0  0  0  0
  5  9  1  0  0  0  0
  5 10  1  0  0  0  0
  5 17  1  0  0  0  0
  6  7  1  0  0  0  0
  6 18  1  0  0  0  0
  6 19  1  0  0  0  0
  7 20  1  0  0  0  0
  7 21  1  0  0  0  0
  8 22  1  0  0  0  0
  8 23  1  0  0  0  0
  8 24  1  0  0  0  0
  9 25  1  0  0  0  0
  9 26  1  0  0  0  0
  9 27  1  0  0  0  0
 10 28  1  0  0  0  0
 10 29  1  0  0  0  0
 10 30  1  0  0  0  0
M  END
> <PUBCHEM_COMPOUND_CID>
519283
> <PUBCHEM_COMPOUND_CANONICALIZED>
1
> <PUBCHEM_CACTVS_COMPLEXITY>
94.2
> <PUBCHEM_CACTVS_HBOND_ACCEPTOR>
0
> <PUBCHEM_CACTVS_HBOND_DONOR>
0
> <PUBCHEM_CACTVS_ROTATABLE_BOND>
1
> <PUBCHEM_CACTVS_SUBSKEYS>
AAADceBwAAAAAAAAAAAAAAAAAAAAAAAAAAAwAAAAAAAAAAAAAAAAGAAAAAAADQCAAAACAAAAAAAAAAAAAAAAAAAAAAAAAAAAAAAAAAIAAAAAAAAAAAAAAAEAgMAOgAAAAAAAAAAAAAAAACAAAAAAAAAAAA==
> <PUBCHEM_IUPAC_OPENEYE_NAME>
1-isopropyl-2-methyl-cyclohexane
> <PUBCHEM_IUPAC_CAS_NAME>
1-methyl-2-propan-2-ylcyclohexane
> <PUBCHEM_IUPAC_NAME_MARKUP>
1-methyl-2-propan-2-ylcyclohexane
> <PUBCHEM_IUPAC_NAME>
1-methyl-2-propan-2-ylcyclohexane
> <PUBCHEM_IUPAC_SYSTEMATIC_NAME>
1-methyl-2-propan-2-yl-cyclohexane
> <PUBCHEM_IUPAC_TRADITIONAL_NAME>
1-isopropyl-2-methyl-cyclohexane
> <PUBCHEM_IUPAC_INCHI>
InChI=1S/C10H20/c1-8(2)10-7-5-4-6-9(10)3/h8-10H,4-7H2,1-3H3
> <PUBCHEM_IUPAC_INCHIKEY>
UMWPTXOKSJXVDS-UHFFFAOYSA-N
> <PUBCHEM_XLOGP3_AA>
4.5
> <PUBCHEM_EXACT_MASS>
140.156500638
> <PUBCHEM_MOLECULAR_FORMULA>
C10H20
> <PUBCHEM_MOLECULAR_WEIGHT>
140.27
> <PUBCHEM_OPENEYE_CAN_SMILES>
CC1CCCCC1C(C)C
> <PUBCHEM_OPENEYE_ISO_SMILES>
CC1CCCCC1C(C)C
> <PUBCHEM_CACTVS_TPSA>
0
> <PUBCHEM_MONOISOTOPIC_WEIGHT>
140.156500638
> <PUBCHEM_TOTAL_CHARGE>
0
> <PUBCHEM_HEAVY_ATOM_COUNT>
10
> <PUBCHEM_ATOM_DEF_STEREO_COUNT>
0
> <PUBCHEM_ATOM_UDEF_STEREO_COUNT>
2
> <PUBCHEM_BOND_DEF_STEREO_COUNT>
0
> <PUBCHEM_BOND_UDEF_STEREO_COUNT>
0
> <PUBCHEM_ISOTOPIC_ATOM_COUNT>
0
> <PUBCHEM_COMPONENT_COUNT>
1
> <PUBCHEM_CACTVS_TAUTO_COUNT>
1
> <PUBCHEM_COORDINATE_TYPE>
1
5
255
> <PUBCHEM_BONDANNOTATIONS>
1  11  3
2  12  3
$$$$
