519316
  -OEChem-10302200292D
 27 26  0     1  0  0  0  0  0999 V2000
    2.3426    3.3100    0.0000 O   0  0  0  0  0  0  0  0  0  0  0  0
    0.6106    1.3100    0.0000 O   0  0  0  0  0  0  0  0  0  0  0  0
    2.3426    0.3100    0.0000 O   0  0  0  0  0  0  0  0  0  0  0  0
    4.0747    1.3100    0.0000 O   0  0  0  0  0  0  0  0  0  0  0  0
    4.0747    3.3100    0.0000 O   0  0  0  0  0  0  0  0  0  0  0  0
    0.6106    4.3100    0.0000 O   0  0  0  0  0  0  0  0  0  0  0  0
    2.3058    6.6200    0.0000 O   0  0  0  0  0  0  0  0  0  0  0  0
    1.4766    1.8100    0.0000 C   0  0  3  0  0  0  0  0  0  0  0  0
    2.3426    1.3100    0.0000 C   0  0  3  0  0  0  0  0  0  0  0  0
    1.4766    2.8100    0.0000 C   0  0  3  0  0  0  0  0  0  0  0  0
    3.2087    1.8100    0.0000 C   0  0  3  0  0  0  0  0  0  0  0  0
    3.2087    2.8100    0.0000 C   0  0  3  0  0  0  0  0  0  0  0  0
    0.6106    3.3100    0.0000 C   0  0  0  0  0  0  0  0  0  0  0  0
    1.4766    1.1900    0.0000 H   0  0  0  0  0  0  0  0  0  0  0  0
    1.8057    1.0000    0.0000 H   0  0  0  0  0  0  0  0  0  0  0  0
    1.4766    3.4300    0.0000 H   0  0  0  0  0  0  0  0  0  0  0  0
    3.2087    1.1900    0.0000 H   0  0  0  0  0  0  0  0  0  0  0  0
    3.2087    3.4300    0.0000 H   0  0  0  0  0  0  0  0  0  0  0  0
    0.0000    3.4177    0.0000 H   0  0  0  0  0  0  0  0  0  0  0  0
    0.3985    2.7274    0.0000 H   0  0  0  0  0  0  0  0  0  0  0  0
    0.0736    1.6200    0.0000 H   0  0  0  0  0  0  0  0  0  0  0  0
    2.8796    0.0000    0.0000 H   0  0  0  0  0  0  0  0  0  0  0  0
    4.6116    1.6200    0.0000 H   0  0  0  0  0  0  0  0  0  0  0  0
    4.0747    3.9300    0.0000 H   0  0  0  0  0  0  0  0  0  0  0  0
    0.0736    4.6200    0.0000 H   0  0  0  0  0  0  0  0  0  0  0  0
    2.8427    6.9300    0.0000 H   0  0  0  0  0  0  0  0  0  0  0  0
    1.7689    6.9300    0.0000 H   0  0  0  0  0  0  0  0  0  0  0  0
  1 10  1  0  0  0  0
  1 12  1  0  0  0  0
  2  8  1  0  0  0  0
  2 21  1  0  0  0  0
  3  9  1  0  0  0  0
  3 22  1  0  0  0  0
  4 11  1  0  0  0  0
  4 23  1  0  0  0  0
  5 12  1  0  0  0  0
  5 24  1  0  0  0  0
  6 13  1  0  0  0  0
  6 25  1  0  0  0  0
  7 26  1  0  0  0  0
  7 27  1  0  0  0  0
  8  9  1  0  0  0  0
  8 10  1  0  0  0  0
  8 14  1  0  0  0  0
  9 11  1  0  0  0  0
  9 15  1  0  0  0  0
 10 13  1  0  0  0  0
 10 16  1  0  0  0  0
 11 12  1  0  0  0  0
 11 17  1  0  0  0  0
 12 18  1  0  0  0  0
 13 19  1  0  0  0  0
 13 20  1  0  0  0  0
M  END
> <PUBCHEM_COMPOUND_CID>
519316
> <PUBCHEM_COMPOUND_CANONICALIZED>
1
> <PUBCHEM_CACTVS_COMPLEXITY>
151
> <PUBCHEM_CACTVS_HBOND_ACCEPTOR>
7
> <PUBCHEM_CACTVS_HBOND_DONOR>
6
> <PUBCHEM_CACTVS_ROTATABLE_BOND>
1
> <PUBCHEM_CACTVS_SUBSKEYS>
AAADccBgOAAAAAAAAAAAAAAAAAAAAAAAAAAkAAAAAAAAAAAAAAAAGgAACAAACBSwgAMACAAABgAAAAAAAAAAAAAAAAAAAAAAAAAREAIAAAACQAAFAAAHAAHAYAQAAAAAAAAAAAAAAAAAAAAAAAAAAAAAAA==
> <PUBCHEM_IUPAC_OPENEYE_NAME>
6-(hydroxymethyl)tetrahydropyran-2,3,4,5-tetrol;hydrate
> <PUBCHEM_IUPAC_CAS_NAME>
6-(hydroxymethyl)oxane-2,3,4,5-tetrol;hydrate
> <PUBCHEM_IUPAC_NAME_MARKUP>
6-(hydroxymethyl)oxane-2,3,4,5-tetrol;hydrate
> <PUBCHEM_IUPAC_NAME>
6-(hydroxymethyl)oxane-2,3,4,5-tetrol;hydrate
> <PUBCHEM_IUPAC_SYSTEMATIC_NAME>
6-(hydroxymethyl)oxane-2,3,4,5-tetrol;hydrate
> <PUBCHEM_IUPAC_TRADITIONAL_NAME>
6-methyloltetrahydropyran-2,3,4,5-tetrol;hydrate
> <PUBCHEM_IUPAC_INCHI>
InChI=1S/C6H12O6.H2O/c7-1-2-3(8)4(9)5(10)6(11)12-2;/h2-11H,1H2;1H2
> <PUBCHEM_IUPAC_INCHIKEY>
OSNSWKAZFASRNG-UHFFFAOYSA-N
> <PUBCHEM_EXACT_MASS>
198.07395278
> <PUBCHEM_MOLECULAR_FORMULA>
C6H14O7
> <PUBCHEM_MOLECULAR_WEIGHT>
198.17
> <PUBCHEM_OPENEYE_CAN_SMILES>
C(C1C(C(C(C(O1)O)O)O)O)O.O
> <PUBCHEM_OPENEYE_ISO_SMILES>
C(C1C(C(C(C(O1)O)O)O)O)O.O
> <PUBCHEM_CACTVS_TPSA>
111
> <PUBCHEM_MONOISOTOPIC_WEIGHT>
198.07395278
> <PUBCHEM_TOTAL_CHARGE>
0
> <PUBCHEM_HEAVY_ATOM_COUNT>
13
> <PUBCHEM_ATOM_DEF_STEREO_COUNT>
0
> <PUBCHEM_ATOM_UDEF_STEREO_COUNT>
5
> <PUBCHEM_BOND_DEF_STEREO_COUNT>
0
> <PUBCHEM_BOND_UDEF_STEREO_COUNT>
0
> <PUBCHEM_ISOTOPIC_ATOM_COUNT>
0
> <PUBCHEM_COMPONENT_COUNT>
2
> <PUBCHEM_CACTVS_TAUTO_COUNT>
-1
> <PUBCHEM_COORDINATE_TYPE>
1
5
255
> <PUBCHEM_BONDANNOTATIONS>
10  13  3
8  2  3
9  3  3
11  4  3
12  5  3
$$$$
