519325
  -OEChem-10302200292D
 55 57  0     1  0  0  0  0  0999 V2000
    2.4900   -2.4134    0.0000 O   0  0  0  0  0  0  0  0  0  0  0  0
    3.9999   -3.2620    0.0000 O   0  0  0  0  0  0  0  0  0  0  0  0
    4.8738    0.0046    0.0000 C   0  0  3  0  0  0  0  0  0  0  0  0
    4.8738   -0.9954    0.0000 C   0  0  3  0  0  0  0  0  0  0  0  0
    5.7398    0.5046    0.0000 C   0  0  3  0  0  0  0  0  0  0  0  0
    3.9798   -1.5300    0.0000 C   0  0  3  0  0  0  0  0  0  0  0  0
    3.9798    0.5393    0.0000 C   0  0  0  0  0  0  0  0  0  0  0  0
    5.7398   -1.4954    0.0000 C   0  0  0  0  0  0  0  0  0  0  0  0
    6.6058    0.0046    0.0000 C   0  0  0  0  0  0  0  0  0  0  0  0
    3.0738   -1.0162    0.0000 C   0  0  0  0  0  0  0  0  0  0  0  0
    3.0738    0.0254    0.0000 C   0  0  0  0  0  0  0  0  0  0  0  0
    5.7238    1.5461    0.0000 C   0  0  0  0  0  0  0  0  0  0  0  0
    6.6058   -0.9954    0.0000 C   0  0  0  0  0  0  0  0  0  0  0  0
    4.8738    1.0046    0.0000 C   0  0  0  0  0  0  0  0  0  0  0  0
    6.6218    2.0739    0.0000 C   0  0  0  0  0  0  0  0  0  0  0  0
    7.5239    1.5531    0.0000 C   0  0  3  0  0  0  0  0  0  0  0  0
    4.4898   -2.3902    0.0000 C   0  0  0  0  0  0  0  0  0  0  0  0
    7.5158    0.5115    0.0000 C   0  0  0  0  0  0  0  0  0  0  0  0
    3.4899   -2.4018    0.0000 C   0  0  0  0  0  0  0  0  0  0  0  0
    8.5238    1.5492    0.0000 C   0  0  0  0  0  0  0  0  0  0  0  0
    8.0272    2.4172    0.0000 C   0  0  0  0  0  0  0  0  0  0  0  0
    7.5305    3.2851    0.0000 C   0  0  0  0  0  0  0  0  0  0  0  0
    2.0000   -3.2851    0.0000 C   0  0  0  0  0  0  0  0  0  0  0  0
    4.8803   -1.8454    0.0000 H   0  0  0  0  0  0  0  0  0  0  0  0
    6.4726    0.9353    0.0000 H   0  0  0  0  0  0  0  0  0  0  0  0
    4.3844    1.0091    0.0000 H   0  0  0  0  0  0  0  0  0  0  0  0
    3.5862    1.0183    0.0000 H   0  0  0  0  0  0  0  0  0  0  0  0
    5.3413   -1.9703    0.0000 H   0  0  0  0  0  0  0  0  0  0  0  0
    6.1383   -1.9703    0.0000 H   0  0  0  0  0  0  0  0  0  0  0  0
    2.4629   -0.9101    0.0000 H   0  0  0  0  0  0  0  0  0  0  0  0
    2.8647   -1.5999    0.0000 H   0  0  0  0  0  0  0  0  0  0  0  0
    2.8647    0.6091    0.0000 H   0  0  0  0  0  0  0  0  0  0  0  0
    2.4629   -0.0807    0.0000 H   0  0  0  0  0  0  0  0  0  0  0  0
    5.5057    2.1265    0.0000 H   0  0  0  0  0  0  0  0  0  0  0  0
    5.1146    1.4306    0.0000 H   0  0  0  0  0  0  0  0  0  0  0  0
    6.8179   -1.5780    0.0000 H   0  0  0  0  0  0  0  0  0  0  0  0
    7.2164   -0.8877    0.0000 H   0  0  0  0  0  0  0  0  0  0  0  0
    5.4938    1.0046    0.0000 H   0  0  0  0  0  0  0  0  0  0  0  0
    4.8738    1.6246    0.0000 H   0  0  0  0  0  0  0  0  0  0  0  0
    4.2538    1.0046    0.0000 H   0  0  0  0  0  0  0  0  0  0  0  0
    7.0191    2.5498    0.0000 H   0  0  0  0  0  0  0  0  0  0  0  0
    6.2208    2.5468    0.0000 H   0  0  0  0  0  0  0  0  0  0  0  0
    3.9565   -2.7064    0.0000 H   0  0  0  0  0  0  0  0  0  0  0  0
    4.8060   -2.9235    0.0000 H   0  0  0  0  0  0  0  0  0  0  0  0
    5.0231   -2.0740    0.0000 H   0  0  0  0  0  0  0  0  0  0  0  0
    8.0491    0.1953    0.0000 H   0  0  0  0  0  0  0  0  0  0  0  0
    8.5215    0.9292    0.0000 H   0  0  0  0  0  0  0  0  0  0  0  0
    9.1438    1.5468    0.0000 H   0  0  0  0  0  0  0  0  0  0  0  0
    8.5262    2.1692    0.0000 H   0  0  0  0  0  0  0  0  0  0  0  0
    8.6472    2.4148    0.0000 H   0  0  0  0  0  0  0  0  0  0  0  0
    7.8426    3.8208    0.0000 H   0  0  0  0  0  0  0  0  0  0  0  0
    6.9105    3.2875    0.0000 H   0  0  0  0  0  0  0  0  0  0  0  0
    1.4595   -2.9813    0.0000 H   0  0  0  0  0  0  0  0  0  0  0  0
    1.6962   -3.8256    0.0000 H   0  0  0  0  0  0  0  0  0  0  0  0
    2.5405   -3.5889    0.0000 H   0  0  0  0  0  0  0  0  0  0  0  0
  1 19  1  0  0  0  0
  1 23  1  0  0  0  0
  2 19  2  0  0  0  0
  3  4  1  0  0  0  0
  3  5  1  0  0  0  0
  3  7  1  0  0  0  0
  3 14  1  0  0  0  0
  4  6  1  0  0  0  0
  4  8  1  0  0  0  0
  4 24  1  0  0  0  0
  5  9  1  0  0  0  0
  5 12  1  0  0  0  0
  5 25  1  0  0  0  0
  6 10  1  0  0  0  0
  6 17  1  0  0  0  0
  6 19  1  0  0  0  0
  7 11  1  0  0  0  0
  7 26  1  0  0  0  0
  7 27  1  0  0  0  0
  8 13  1  0  0  0  0
  8 28  1  0  0  0  0
  8 29  1  0  0  0  0
  9 13  1  0  0  0  0
  9 18  2  0  0  0  0
 10 11  1  0  0  0  0
 10 30  1  0  0  0  0
 10 31  1  0  0  0  0
 11 32  1  0  0  0  0
 11 33  1  0  0  0  0
 12 15  1  0  0  0  0
 12 34  1  0  0  0  0
 12 35  1  0  0  0  0
 13 36  1  0  0  0  0
 13 37  1  0  0  0  0
 14 38  1  0  0  0  0
 14 39  1  0  0  0  0
 14 40  1  0  0  0  0
 15 16  1  0  0  0  0
 15 41  1  0  0  0  0
 15 42  1  0  0  0  0
 16 18  1  0  0  0  0
 16 20  1  0  0  0  0
 16 21  1  0  0  0  0
 17 43  1  0  0  0  0
 17 44  1  0  0  0  0
 17 45  1  0  0  0  0
 18 46  1  0  0  0  0
 20 47  1  0  0  0  0
 20 48  1  0  0  0  0
 20 49  1  0  0  0  0
 21 22  2  0  0  0  0
 21 50  1  0  0  0  0
 22 51  1  0  0  0  0
 22 52  1  0  0  0  0
 23 53  1  0  0  0  0
 23 54  1  0  0  0  0
 23 55  1  0  0  0  0
M  END
> <PUBCHEM_COMPOUND_CID>
519325
> <PUBCHEM_COMPOUND_CANONICALIZED>
1
> <PUBCHEM_CACTVS_COMPLEXITY>
548
> <PUBCHEM_CACTVS_HBOND_ACCEPTOR>
2
> <PUBCHEM_CACTVS_HBOND_DONOR>
0
> <PUBCHEM_CACTVS_ROTATABLE_BOND>
3
> <PUBCHEM_CACTVS_SUBSKEYS>
AAADcfB4MAAAAAAAAAAAAAAAAAAAAAAAAAAwYIAAAAAAAADAAAAAGgAAAAAADwCAgAICCAAABACIAiDSCAAAAAAgAAAICAEAAAgAABIAAQAAAAAEgAAIAAOIyPCPgAAAAAAAAAAAAAQAACAAAAAAAAAAAA==
> <PUBCHEM_IUPAC_OPENEYE_NAME>
methyl 1,4a,7-trimethyl-7-vinyl-3,4,4b,5,6,9,10,10a-octahydro-2H-phenanthrene-1-carboxylate
> <PUBCHEM_IUPAC_CAS_NAME>
7-ethenyl-1,4a,7-trimethyl-3,4,4b,5,6,9,10,10a-octahydro-2H-phenanthrene-1-carboxylic acid methyl ester
> <PUBCHEM_IUPAC_NAME_MARKUP>
methyl 7-ethenyl-1,4<I>a</I>,7-trimethyl-3,4,4<I>b</I>,5,6,9,10,10<I>a</I>-octahydro-2<I>H</I>-phenanthrene-1-carboxylate
> <PUBCHEM_IUPAC_NAME>
methyl 7-ethenyl-1,4a,7-trimethyl-3,4,4b,5,6,9,10,10a-octahydro-2H-phenanthrene-1-carboxylate
> <PUBCHEM_IUPAC_SYSTEMATIC_NAME>
methyl 7-ethenyl-1,4a,7-trimethyl-3,4,4b,5,6,9,10,10a-octahydro-2H-phenanthrene-1-carboxylate
> <PUBCHEM_IUPAC_TRADITIONAL_NAME>
1,4a,7-trimethyl-7-vinyl-3,4,4b,5,6,9,10,10a-octahydro-2H-phenanthrene-1-carboxylic acid methyl ester
> <PUBCHEM_IUPAC_INCHI>
InChI=1S/C21H32O2/c1-6-19(2)13-10-16-15(14-19)8-9-17-20(16,3)11-7-12-21(17,4)18(22)23-5/h6,14,16-17H,1,7-13H2,2-5H3
> <PUBCHEM_IUPAC_INCHIKEY>
BGCXKCIPDDNDEV-UHFFFAOYSA-N
> <PUBCHEM_XLOGP3_AA>
5.9
> <PUBCHEM_EXACT_MASS>
316.240230259
> <PUBCHEM_MOLECULAR_FORMULA>
C21H32O2
> <PUBCHEM_MOLECULAR_WEIGHT>
316.5
> <PUBCHEM_OPENEYE_CAN_SMILES>
CC1(CCC2C(=C1)CCC3C2(CCCC3(C)C(=O)OC)C)C=C
> <PUBCHEM_OPENEYE_ISO_SMILES>
CC1(CCC2C(=C1)CCC3C2(CCCC3(C)C(=O)OC)C)C=C
> <PUBCHEM_CACTVS_TPSA>
26.3
> <PUBCHEM_MONOISOTOPIC_WEIGHT>
316.240230259
> <PUBCHEM_TOTAL_CHARGE>
0
> <PUBCHEM_HEAVY_ATOM_COUNT>
23
> <PUBCHEM_ATOM_DEF_STEREO_COUNT>
0
> <PUBCHEM_ATOM_UDEF_STEREO_COUNT>
5
> <PUBCHEM_BOND_DEF_STEREO_COUNT>
0
> <PUBCHEM_BOND_UDEF_STEREO_COUNT>
0
> <PUBCHEM_ISOTOPIC_ATOM_COUNT>
0
> <PUBCHEM_COMPONENT_COUNT>
1
> <PUBCHEM_CACTVS_TAUTO_COUNT>
1
> <PUBCHEM_COORDINATE_TYPE>
1
5
255
> <PUBCHEM_BONDANNOTATIONS>
16  20  3
3  14  3
4  24  3
5  25  3
6  17  3
$$$$
