519353
  -OEChem-10302200292D
 20 20  0     1  0  0  0  0  0999 V2000
    5.0032    1.1191    0.0000 O   0  0  0  0  0  0  0  0  0  0  0  0
    6.2633   -0.1410    0.0000 O   0  0  0  0  0  0  0  0  0  0  0  0
    4.5032   -0.4197    0.0000 N   0  0  0  0  0  0  0  0  0  0  0  0
    3.6942    0.1681    0.0000 C   0  0  3  0  0  0  0  0  0  0  0  0
    2.7431   -0.1410    0.0000 C   0  0  0  0  0  0  0  0  0  0  0  0
    4.0032    1.1191    0.0000 C   0  0  0  0  0  0  0  0  0  0  0  0
    2.0000    0.5282    0.0000 C   0  0  0  0  0  0  0  0  0  0  0  0
    2.5352   -1.1191    0.0000 C   0  0  0  0  0  0  0  0  0  0  0  0
    5.3122    0.1681    0.0000 C   0  0  0  0  0  0  0  0  0  0  0  0
    4.2839    0.3596    0.0000 H   0  0  0  0  0  0  0  0  0  0  0  0
    3.2039   -0.5558    0.0000 H   0  0  0  0  0  0  0  0  0  0  0  0
    4.0680    1.7357    0.0000 H   0  0  0  0  0  0  0  0  0  0  0  0
    3.3968    1.2480    0.0000 H   0  0  0  0  0  0  0  0  0  0  0  0
    4.5032   -1.0397    0.0000 H   0  0  0  0  0  0  0  0  0  0  0  0
    2.4149    0.9889    0.0000 H   0  0  0  0  0  0  0  0  0  0  0  0
    1.5392    0.9430    0.0000 H   0  0  0  0  0  0  0  0  0  0  0  0
    1.5851    0.0674    0.0000 H   0  0  0  0  0  0  0  0  0  0  0  0
    1.9288   -0.9902    0.0000 H   0  0  0  0  0  0  0  0  0  0  0  0
    2.4063   -1.7256    0.0000 H   0  0  0  0  0  0  0  0  0  0  0  0
    3.1417   -1.2480    0.0000 H   0  0  0  0  0  0  0  0  0  0  0  0
  1  6  1  0  0  0  0
  1  9  1  0  0  0  0
  2  9  2  0  0  0  0
  3  4  1  0  0  0  0
  3  9  1  0  0  0  0
  3 14  1  0  0  0  0
  4  5  1  0  0  0  0
  4  6  1  0  0  0  0
  4 10  1  0  0  0  0
  5  7  1  0  0  0  0
  5  8  1  0  0  0  0
  5 11  1  0  0  0  0
  6 12  1  0  0  0  0
  6 13  1  0  0  0  0
  7 15  1  0  0  0  0
  7 16  1  0  0  0  0
  7 17  1  0  0  0  0
  8 18  1  0  0  0  0
  8 19  1  0  0  0  0
  8 20  1  0  0  0  0
M  END
> <PUBCHEM_COMPOUND_CID>
519353
> <PUBCHEM_COMPOUND_CANONICALIZED>
1
> <PUBCHEM_CACTVS_COMPLEXITY>
122
> <PUBCHEM_CACTVS_HBOND_ACCEPTOR>
2
> <PUBCHEM_CACTVS_HBOND_DONOR>
1
> <PUBCHEM_CACTVS_ROTATABLE_BOND>
1
> <PUBCHEM_CACTVS_SUBSKEYS>
AAADccBiMAAAAAAAAAAAAAAAAAAAAWAAAAAAAAAAAAAAAAAAAAAAHgAQAAAADSjhgAYCCALABAAIAAAAGAAAAAAAAAAAAIAIAAECAAAAAAANAAAEFgAQAAAAAAAIAAAAAAAAAAAAAAAAAAAAAAAAAAAAAA==
> <PUBCHEM_IUPAC_OPENEYE_NAME>
4-isopropyloxazolidin-2-one
> <PUBCHEM_IUPAC_CAS_NAME>
4-propan-2-yl-2-oxazolidinone
> <PUBCHEM_IUPAC_NAME_MARKUP>
4-propan-2-yl-1,3-oxazolidin-2-one
> <PUBCHEM_IUPAC_NAME>
4-propan-2-yl-1,3-oxazolidin-2-one
> <PUBCHEM_IUPAC_SYSTEMATIC_NAME>
4-propan-2-yl-1,3-oxazolidin-2-one
> <PUBCHEM_IUPAC_TRADITIONAL_NAME>
4-isopropyloxazolidin-2-one
> <PUBCHEM_IUPAC_INCHI>
InChI=1S/C6H11NO2/c1-4(2)5-3-9-6(8)7-5/h4-5H,3H2,1-2H3,(H,7,8)
> <PUBCHEM_IUPAC_INCHIKEY>
YBUPWRYTXGAWJX-UHFFFAOYSA-N
> <PUBCHEM_XLOGP3_AA>
1.1
> <PUBCHEM_EXACT_MASS>
129.078978594
> <PUBCHEM_MOLECULAR_FORMULA>
C6H11NO2
> <PUBCHEM_MOLECULAR_WEIGHT>
129.16
> <PUBCHEM_OPENEYE_CAN_SMILES>
CC(C)C1COC(=O)N1
> <PUBCHEM_OPENEYE_ISO_SMILES>
CC(C)C1COC(=O)N1
> <PUBCHEM_CACTVS_TPSA>
38.3
> <PUBCHEM_MONOISOTOPIC_WEIGHT>
129.078978594
> <PUBCHEM_TOTAL_CHARGE>
0
> <PUBCHEM_HEAVY_ATOM_COUNT>
9
> <PUBCHEM_ATOM_DEF_STEREO_COUNT>
0
> <PUBCHEM_ATOM_UDEF_STEREO_COUNT>
1
> <PUBCHEM_BOND_DEF_STEREO_COUNT>
0
> <PUBCHEM_BOND_UDEF_STEREO_COUNT>
0
> <PUBCHEM_ISOTOPIC_ATOM_COUNT>
0
> <PUBCHEM_COMPONENT_COUNT>
1
> <PUBCHEM_CACTVS_TAUTO_COUNT>
-1
> <PUBCHEM_COORDINATE_TYPE>
1
5
255
> <PUBCHEM_BONDANNOTATIONS>
4  5  3
$$$$
