519372
  -OEChem-10302200292D
 23 23  0     1  0  0  0  0  0999 V2000
    3.7601   -1.0633    0.0000 O   0  0  0  0  0  0  0  0  0  0  0  0
    4.2601    0.4755    0.0000 O   0  0  0  0  0  0  0  0  0  0  0  0
    2.9511   -0.4755    0.0000 C   0  0  3  0  0  0  0  0  0  0  0  0
    3.2601    0.4755    0.0000 C   0  0  3  0  0  0  0  0  0  0  0  0
    4.5691   -0.4755    0.0000 C   0  0  0  0  0  0  0  0  0  0  0  0
    2.0000   -0.7845    0.0000 C   0  0  0  0  0  0  0  0  0  0  0  0
    2.6723    1.2846    0.0000 C   0  0  0  0  0  0  0  0  0  0  0  0
    5.1569   -1.2846    0.0000 C   0  0  0  0  0  0  0  0  0  0  0  0
    5.5202   -0.1665    0.0000 C   0  0  0  0  0  0  0  0  0  0  0  0
    2.8541   -1.0879    0.0000 H   0  0  0  0  0  0  0  0  0  0  0  0
    3.5416    1.0280    0.0000 H   0  0  0  0  0  0  0  0  0  0  0  0
    1.8084   -0.1949    0.0000 H   0  0  0  0  0  0  0  0  0  0  0  0
    1.4103   -0.9761    0.0000 H   0  0  0  0  0  0  0  0  0  0  0  0
    2.1916   -1.3742    0.0000 H   0  0  0  0  0  0  0  0  0  0  0  0
    3.1739    1.6490    0.0000 H   0  0  0  0  0  0  0  0  0  0  0  0
    2.3079    1.7861    0.0000 H   0  0  0  0  0  0  0  0  0  0  0  0
    2.1707    0.9201    0.0000 H   0  0  0  0  0  0  0  0  0  0  0  0
    4.6553   -1.6490    0.0000 H   0  0  0  0  0  0  0  0  0  0  0  0
    5.5213   -1.7861    0.0000 H   0  0  0  0  0  0  0  0  0  0  0  0
    5.6585   -0.9201    0.0000 H   0  0  0  0  0  0  0  0  0  0  0  0
    5.7117   -0.7562    0.0000 H   0  0  0  0  0  0  0  0  0  0  0  0
    6.1098    0.0251    0.0000 H   0  0  0  0  0  0  0  0  0  0  0  0
    5.3286    0.4231    0.0000 H   0  0  0  0  0  0  0  0  0  0  0  0
  1  3  1  0  0  0  0
  1  5  1  0  0  0  0
  2  4  1  0  0  0  0
  2  5  1  0  0  0  0
  3  4  1  0  0  0  0
  3  6  1  0  0  0  0
  3 10  1  0  0  0  0
  4  7  1  0  0  0  0
  4 11  1  0  0  0  0
  5  8  1  0  0  0  0
  5  9  1  0  0  0  0
  6 12  1  0  0  0  0
  6 13  1  0  0  0  0
  6 14  1  0  0  0  0
  7 15  1  0  0  0  0
  7 16  1  0  0  0  0
  7 17  1  0  0  0  0
  8 18  1  0  0  0  0
  8 19  1  0  0  0  0
  8 20  1  0  0  0  0
  9 21  1  0  0  0  0
  9 22  1  0  0  0  0
  9 23  1  0  0  0  0
M  END
> <PUBCHEM_COMPOUND_CID>
519372
> <PUBCHEM_COMPOUND_CANONICALIZED>
1
> <PUBCHEM_CACTVS_COMPLEXITY>
97.5
> <PUBCHEM_CACTVS_HBOND_ACCEPTOR>
2
> <PUBCHEM_CACTVS_HBOND_DONOR>
0
> <PUBCHEM_CACTVS_ROTATABLE_BOND>
0
> <PUBCHEM_CACTVS_SUBSKEYS>
AAADccBgMAAAAAAAAAAAAAAAAAAAASAAAAAAAAAAAAAAAAAAAAAAGgAAAAAACBSggAICCAAABAAAAAAAAAAAAAAAAAAAAAAAAAARAAAAAAAiAAAAAAAGAAAAAAAAAAAAAAAAAAAAAAAAAAAAAAAAAAAAAA==
> <PUBCHEM_IUPAC_OPENEYE_NAME>
2,2,4,5-tetramethyl-1,3-dioxolane
> <PUBCHEM_IUPAC_CAS_NAME>
2,2,4,5-tetramethyl-1,3-dioxolane
> <PUBCHEM_IUPAC_NAME_MARKUP>
2,2,4,5-tetramethyl-1,3-dioxolane
> <PUBCHEM_IUPAC_NAME>
2,2,4,5-tetramethyl-1,3-dioxolane
> <PUBCHEM_IUPAC_SYSTEMATIC_NAME>
2,2,4,5-tetramethyl-1,3-dioxolane
> <PUBCHEM_IUPAC_TRADITIONAL_NAME>
2,2,4,5-tetramethyl-1,3-dioxolane
> <PUBCHEM_IUPAC_INCHI>
InChI=1S/C7H14O2/c1-5-6(2)9-7(3,4)8-5/h5-6H,1-4H3
> <PUBCHEM_IUPAC_INCHIKEY>
IWHKRVPYJLOGAW-UHFFFAOYSA-N
> <PUBCHEM_XLOGP3_AA>
1.3
> <PUBCHEM_EXACT_MASS>
130.099379685
> <PUBCHEM_MOLECULAR_FORMULA>
C7H14O2
> <PUBCHEM_MOLECULAR_WEIGHT>
130.18
> <PUBCHEM_OPENEYE_CAN_SMILES>
CC1C(OC(O1)(C)C)C
> <PUBCHEM_OPENEYE_ISO_SMILES>
CC1C(OC(O1)(C)C)C
> <PUBCHEM_CACTVS_TPSA>
18.5
> <PUBCHEM_MONOISOTOPIC_WEIGHT>
130.099379685
> <PUBCHEM_TOTAL_CHARGE>
0
> <PUBCHEM_HEAVY_ATOM_COUNT>
9
> <PUBCHEM_ATOM_DEF_STEREO_COUNT>
0
> <PUBCHEM_ATOM_UDEF_STEREO_COUNT>
2
> <PUBCHEM_BOND_DEF_STEREO_COUNT>
0
> <PUBCHEM_BOND_UDEF_STEREO_COUNT>
0
> <PUBCHEM_ISOTOPIC_ATOM_COUNT>
0
> <PUBCHEM_COMPONENT_COUNT>
1
> <PUBCHEM_CACTVS_TAUTO_COUNT>
-1
> <PUBCHEM_COORDINATE_TYPE>
1
5
255
> <PUBCHEM_BONDANNOTATIONS>
3  6  3
4  7  3
$$$$
