519328
  -OEChem-10302200292D
 52 54  0     1  0  0  0  0  0999 V2000
    3.8000   -0.4370    0.0000 C   0  0  3  0  0  0  0  0  0  0  0  0
    3.8000   -1.4370    0.0000 C   0  0  3  0  0  0  0  0  0  0  0  0
    4.6660    0.0630    0.0000 C   0  0  3  0  0  0  0  0  0  0  0  0
    2.9061   -1.9717    0.0000 C   0  0  0  0  0  0  0  0  0  0  0  0
    2.9061    0.0976    0.0000 C   0  0  0  0  0  0  0  0  0  0  0  0
    4.6660   -1.9370    0.0000 C   0  0  0  0  0  0  0  0  0  0  0  0
    5.5321   -0.4370    0.0000 C   0  0  0  0  0  0  0  0  0  0  0  0
    2.0000   -1.4578    0.0000 C   0  0  0  0  0  0  0  0  0  0  0  0
    4.6500    1.1045    0.0000 C   0  0  0  0  0  0  0  0  0  0  0  0
    2.0000   -0.4162    0.0000 C   0  0  0  0  0  0  0  0  0  0  0  0
    3.8000    0.5630    0.0000 C   0  0  0  0  0  0  0  0  0  0  0  0
    6.4501    1.1114    0.0000 C   0  0  3  0  0  0  0  0  0  0  0  0
    6.4421    0.0698    0.0000 C   0  0  0  0  0  0  0  0  0  0  0  0
    5.5321   -1.4370    0.0000 C   0  0  0  0  0  0  0  0  0  0  0  0
    5.5480    1.6322    0.0000 C   0  0  0  0  0  0  0  0  0  0  0  0
    2.4161   -2.8434    0.0000 C   0  0  0  0  0  0  0  0  0  0  0  0
    3.4160   -2.8319    0.0000 C   0  0  0  0  0  0  0  0  0  0  0  0
    7.4501    1.1076    0.0000 C   0  0  0  0  0  0  0  0  0  0  0  0
    6.9534    1.9755    0.0000 C   0  0  0  0  0  0  0  0  0  0  0  0
    6.4568    2.8434    0.0000 C   0  0  0  0  0  0  0  0  0  0  0  0
    3.8048   -2.0570    0.0000 H   0  0  0  0  0  0  0  0  0  0  0  0
    5.2006    0.3771    0.0000 H   0  0  0  0  0  0  0  0  0  0  0  0
    3.3107    0.5674    0.0000 H   0  0  0  0  0  0  0  0  0  0  0  0
    2.5124    0.5766    0.0000 H   0  0  0  0  0  0  0  0  0  0  0  0
    4.2675   -2.4120    0.0000 H   0  0  0  0  0  0  0  0  0  0  0  0
    5.0646   -2.4120    0.0000 H   0  0  0  0  0  0  0  0  0  0  0  0
    1.3891   -1.3518    0.0000 H   0  0  0  0  0  0  0  0  0  0  0  0
    1.7909   -2.0415    0.0000 H   0  0  0  0  0  0  0  0  0  0  0  0
    4.4319    1.6849    0.0000 H   0  0  0  0  0  0  0  0  0  0  0  0
    4.0408    0.9890    0.0000 H   0  0  0  0  0  0  0  0  0  0  0  0
    1.7909    0.1675    0.0000 H   0  0  0  0  0  0  0  0  0  0  0  0
    1.3891   -0.5223    0.0000 H   0  0  0  0  0  0  0  0  0  0  0  0
    4.4200    0.5630    0.0000 H   0  0  0  0  0  0  0  0  0  0  0  0
    3.8000    1.1830    0.0000 H   0  0  0  0  0  0  0  0  0  0  0  0
    3.1800    0.5630    0.0000 H   0  0  0  0  0  0  0  0  0  0  0  0
    6.6466   -0.5155    0.0000 H   0  0  0  0  0  0  0  0  0  0  0  0
    7.0537    0.1712    0.0000 H   0  0  0  0  0  0  0  0  0  0  0  0
    6.0690   -1.7470    0.0000 H   0  0  0  0  0  0  0  0  0  0  0  0
    5.9453    2.1082    0.0000 H   0  0  0  0  0  0  0  0  0  0  0  0
    5.1470    2.1051    0.0000 H   0  0  0  0  0  0  0  0  0  0  0  0
    1.8756   -2.5397    0.0000 H   0  0  0  0  0  0  0  0  0  0  0  0
    2.1123   -3.3839    0.0000 H   0  0  0  0  0  0  0  0  0  0  0  0
    2.9566   -3.1472    0.0000 H   0  0  0  0  0  0  0  0  0  0  0  0
    2.8827   -3.1481    0.0000 H   0  0  0  0  0  0  0  0  0  0  0  0
    3.7322   -3.3652    0.0000 H   0  0  0  0  0  0  0  0  0  0  0  0
    3.9494   -2.5157    0.0000 H   0  0  0  0  0  0  0  0  0  0  0  0
    7.4477    0.4876    0.0000 H   0  0  0  0  0  0  0  0  0  0  0  0
    8.0701    1.1052    0.0000 H   0  0  0  0  0  0  0  0  0  0  0  0
    7.4525    1.7276    0.0000 H   0  0  0  0  0  0  0  0  0  0  0  0
    7.5734    1.9731    0.0000 H   0  0  0  0  0  0  0  0  0  0  0  0
    6.7688    3.3792    0.0000 H   0  0  0  0  0  0  0  0  0  0  0  0
    5.8368    2.8458    0.0000 H   0  0  0  0  0  0  0  0  0  0  0  0
  1  2  1  0  0  0  0
  1  3  1  0  0  0  0
  1  5  1  0  0  0  0
  1 11  1  0  0  0  0
  2  4  1  0  0  0  0
  2  6  1  0  0  0  0
  2 21  1  0  0  0  0
  3  7  1  0  0  0  0
  3  9  1  0  0  0  0
  3 22  1  0  0  0  0
  4  8  1  0  0  0  0
  4 16  1  0  0  0  0
  4 17  1  0  0  0  0
  5 10  1  0  0  0  0
  5 23  1  0  0  0  0
  5 24  1  0  0  0  0
  6 14  1  0  0  0  0
  6 25  1  0  0  0  0
  6 26  1  0  0  0  0
  7 13  1  0  0  0  0
  7 14  2  0  0  0  0
  8 10  1  0  0  0  0
  8 27  1  0  0  0  0
  8 28  1  0  0  0  0
  9 15  1  0  0  0  0
  9 29  1  0  0  0  0
  9 30  1  0  0  0  0
 10 31  1  0  0  0  0
 10 32  1  0  0  0  0
 11 33  1  0  0  0  0
 11 34  1  0  0  0  0
 11 35  1  0  0  0  0
 12 13  1  0  0  0  0
 12 15  1  0  0  0  0
 12 18  1  0  0  0  0
 12 19  1  0  0  0  0
 13 36  1  0  0  0  0
 13 37  1  0  0  0  0
 14 38  1  0  0  0  0
 15 39  1  0  0  0  0
 15 40  1  0  0  0  0
 16 41  1  0  0  0  0
 16 42  1  0  0  0  0
 16 43  1  0  0  0  0
 17 44  1  0  0  0  0
 17 45  1  0  0  0  0
 17 46  1  0  0  0  0
 18 47  1  0  0  0  0
 18 48  1  0  0  0  0
 18 49  1  0  0  0  0
 19 20  2  0  0  0  0
 19 50  1  0  0  0  0
 20 51  1  0  0  0  0
 20 52  1  0  0  0  0
M  END
> <PUBCHEM_COMPOUND_CID>
519328
> <PUBCHEM_COMPOUND_CANONICALIZED>
1
> <PUBCHEM_CACTVS_COMPLEXITY>
441
> <PUBCHEM_CACTVS_HBOND_ACCEPTOR>
0
> <PUBCHEM_CACTVS_HBOND_DONOR>
0
> <PUBCHEM_CACTVS_ROTATABLE_BOND>
1
> <PUBCHEM_CACTVS_SUBSKEYS>
AAADcfB4AAAAAAAAAAAAAAAAAAAAAAAAAAAwYIAAAAAAAACAAAAAGAAAAAAADwCAAAACAAAAAACAAiBCAAAAAAAgAAAICAAAAAgAAAIAAQAAAAAAgAAIAAMAgMAPgAAAAAAAAACAAAQAACAAAAAAAAAAAA==
> <PUBCHEM_IUPAC_OPENEYE_NAME>
2,4b,8,8-tetramethyl-2-vinyl-3,4,4a,5,6,7,8a,9-octahydro-1H-phenanthrene
> <PUBCHEM_IUPAC_CAS_NAME>
2-ethenyl-2,4b,8,8-tetramethyl-3,4,4a,5,6,7,8a,9-octahydro-1H-phenanthrene
> <PUBCHEM_IUPAC_NAME_MARKUP>
2-ethenyl-2,4<I>b</I>,8,8-tetramethyl-3,4,4<I>a</I>,5,6,7,8<I>a</I>,9-octahydro-1<I>H</I>-phenanthrene
> <PUBCHEM_IUPAC_NAME>
2-ethenyl-2,4b,8,8-tetramethyl-3,4,4a,5,6,7,8a,9-octahydro-1H-phenanthrene
> <PUBCHEM_IUPAC_SYSTEMATIC_NAME>
2-ethenyl-2,4b,8,8-tetramethyl-3,4,4a,5,6,7,8a,9-octahydro-1H-phenanthrene
> <PUBCHEM_IUPAC_TRADITIONAL_NAME>
2,4b,8,8-tetramethyl-2-vinyl-3,4,4a,5,6,7,8a,9-octahydro-1H-phenanthrene
> <PUBCHEM_IUPAC_INCHI>
InChI=1S/C20H32/c1-6-19(4)13-10-16-15(14-19)8-9-17-18(2,3)11-7-12-20(16,17)5/h6,8,16-17H,1,7,9-14H2,2-5H3
> <PUBCHEM_IUPAC_INCHIKEY>
VCOVNILQQQZROK-UHFFFAOYSA-N
> <PUBCHEM_XLOGP3_AA>
6.8
> <PUBCHEM_EXACT_MASS>
272.250401021
> <PUBCHEM_MOLECULAR_FORMULA>
C20H32
> <PUBCHEM_MOLECULAR_WEIGHT>
272.5
> <PUBCHEM_OPENEYE_CAN_SMILES>
CC1(CCCC2(C1CC=C3C2CCC(C3)(C)C=C)C)C
> <PUBCHEM_OPENEYE_ISO_SMILES>
CC1(CCCC2(C1CC=C3C2CCC(C3)(C)C=C)C)C
> <PUBCHEM_CACTVS_TPSA>
0
> <PUBCHEM_MONOISOTOPIC_WEIGHT>
272.250401021
> <PUBCHEM_TOTAL_CHARGE>
0
> <PUBCHEM_HEAVY_ATOM_COUNT>
20
> <PUBCHEM_ATOM_DEF_STEREO_COUNT>
0
> <PUBCHEM_ATOM_UDEF_STEREO_COUNT>
4
> <PUBCHEM_BOND_DEF_STEREO_COUNT>
0
> <PUBCHEM_BOND_UDEF_STEREO_COUNT>
0
> <PUBCHEM_ISOTOPIC_ATOM_COUNT>
0
> <PUBCHEM_COMPONENT_COUNT>
1
> <PUBCHEM_CACTVS_TAUTO_COUNT>
-1
> <PUBCHEM_COORDINATE_TYPE>
1
5
255
> <PUBCHEM_BONDANNOTATIONS>
1  11  3
12  18  3
2  6  3
3  9  3
$$$$
