519329
  -OEChem-10302200292D
 52 54  0     1  0  0  0  0  0999 V2000
    5.3033   -0.0902    0.0000 C   0  0  3  0  0  0  0  0  0  0  0  0
    5.3033   -1.0902    0.0000 C   0  0  3  0  0  0  0  0  0  0  0  0
    6.1694    0.4098    0.0000 C   0  0  3  0  0  0  0  0  0  0  0  0
    4.4094    0.4444    0.0000 C   0  0  0  0  0  0  0  0  0  0  0  0
    4.4094   -1.6249    0.0000 C   0  0  0  0  0  0  0  0  0  0  0  0
    7.0354   -0.0902    0.0000 C   0  0  0  0  0  0  0  0  0  0  0  0
    3.5033   -1.1111    0.0000 C   0  0  3  0  0  0  0  0  0  0  0  0
    6.1694   -1.5902    0.0000 C   0  0  0  0  0  0  0  0  0  0  0  0
    3.5033   -0.0694    0.0000 C   0  0  0  0  0  0  0  0  0  0  0  0
    7.9454    0.4166    0.0000 C   0  0  0  0  0  0  0  0  0  0  0  0
    6.1533    1.4513    0.0000 C   0  0  0  0  0  0  0  0  0  0  0  0
    5.3033    0.9098    0.0000 C   0  0  0  0  0  0  0  0  0  0  0  0
    7.0354   -1.0902    0.0000 C   0  0  0  0  0  0  0  0  0  0  0  0
    7.9534    1.4582    0.0000 C   0  0  0  0  0  0  0  0  0  0  0  0
    7.0513    1.9790    0.0000 C   0  0  0  0  0  0  0  0  0  0  0  0
    3.0067   -1.9790    0.0000 C   0  0  0  0  0  0  0  0  0  0  0  0
    8.9453    0.4050    0.0000 C   0  0  0  0  0  0  0  0  0  0  0  0
    8.4353   -0.4552    0.0000 C   0  0  0  0  0  0  0  0  0  0  0  0
    2.5033   -1.1149    0.0000 C   0  0  0  0  0  0  0  0  0  0  0  0
    2.0000   -0.2508    0.0000 C   0  0  0  0  0  0  0  0  0  0  0  0
    5.3081   -1.7102    0.0000 H   0  0  0  0  0  0  0  0  0  0  0  0
    6.7039    0.7239    0.0000 H   0  0  0  0  0  0  0  0  0  0  0  0
    4.8140    0.9142    0.0000 H   0  0  0  0  0  0  0  0  0  0  0  0
    4.0158    0.9234    0.0000 H   0  0  0  0  0  0  0  0  0  0  0  0
    4.0158   -2.1039    0.0000 H   0  0  0  0  0  0  0  0  0  0  0  0
    4.8140   -2.0947    0.0000 H   0  0  0  0  0  0  0  0  0  0  0  0
    5.7708   -2.0652    0.0000 H   0  0  0  0  0  0  0  0  0  0  0  0
    6.5679   -2.0652    0.0000 H   0  0  0  0  0  0  0  0  0  0  0  0
    3.2943    0.5143    0.0000 H   0  0  0  0  0  0  0  0  0  0  0  0
    2.8925   -0.1755    0.0000 H   0  0  0  0  0  0  0  0  0  0  0  0
    5.9353    2.0317    0.0000 H   0  0  0  0  0  0  0  0  0  0  0  0
    5.5442    1.3358    0.0000 H   0  0  0  0  0  0  0  0  0  0  0  0
    5.9233    0.9098    0.0000 H   0  0  0  0  0  0  0  0  0  0  0  0
    5.3033    1.5298    0.0000 H   0  0  0  0  0  0  0  0  0  0  0  0
    4.6833    0.9098    0.0000 H   0  0  0  0  0  0  0  0  0  0  0  0
    7.5723   -1.4002    0.0000 H   0  0  0  0  0  0  0  0  0  0  0  0
    8.5634    1.3474    0.0000 H   0  0  0  0  0  0  0  0  0  0  0  0
    8.1670    2.0403    0.0000 H   0  0  0  0  0  0  0  0  0  0  0  0
    7.4486    2.4550    0.0000 H   0  0  0  0  0  0  0  0  0  0  0  0
    6.6504    2.4519    0.0000 H   0  0  0  0  0  0  0  0  0  0  0  0
    2.4685   -1.6711    0.0000 H   0  0  0  0  0  0  0  0  0  0  0  0
    2.6987   -2.5171    0.0000 H   0  0  0  0  0  0  0  0  0  0  0  0
    3.5448   -2.2869    0.0000 H   0  0  0  0  0  0  0  0  0  0  0  0
    8.9382   -0.2149    0.0000 H   0  0  0  0  0  0  0  0  0  0  0  0
    9.5653    0.3979    0.0000 H   0  0  0  0  0  0  0  0  0  0  0  0
    8.9525    1.0250    0.0000 H   0  0  0  0  0  0  0  0  0  0  0  0
    7.8949   -0.7589    0.0000 H   0  0  0  0  0  0  0  0  0  0  0  0
    8.7391   -0.9956    0.0000 H   0  0  0  0  0  0  0  0  0  0  0  0
    8.9758   -0.1514    0.0000 H   0  0  0  0  0  0  0  0  0  0  0  0
    2.1954   -1.6530    0.0000 H   0  0  0  0  0  0  0  0  0  0  0  0
    2.3079    0.2873    0.0000 H   0  0  0  0  0  0  0  0  0  0  0  0
    1.3800   -0.2532    0.0000 H   0  0  0  0  0  0  0  0  0  0  0  0
  1  2  1  0  0  0  0
  1  3  1  0  0  0  0
  1  4  1  0  0  0  0
  1 12  1  0  0  0  0
  2  5  1  0  0  0  0
  2  8  1  0  0  0  0
  2 21  1  0  0  0  0
  3  6  1  0  0  0  0
  3 11  1  0  0  0  0
  3 22  1  0  0  0  0
  4  9  1  0  0  0  0
  4 23  1  0  0  0  0
  4 24  1  0  0  0  0
  5  7  1  0  0  0  0
  5 25  1  0  0  0  0
  5 26  1  0  0  0  0
  6 10  1  0  0  0  0
  6 13  2  0  0  0  0
  7  9  1  0  0  0  0
  7 16  1  0  0  0  0
  7 19  1  0  0  0  0
  8 13  1  0  0  0  0
  8 27  1  0  0  0  0
  8 28  1  0  0  0  0
  9 29  1  0  0  0  0
  9 30  1  0  0  0  0
 10 14  1  0  0  0  0
 10 17  1  0  0  0  0
 10 18  1  0  0  0  0
 11 15  1  0  0  0  0
 11 31  1  0  0  0  0
 11 32  1  0  0  0  0
 12 33  1  0  0  0  0
 12 34  1  0  0  0  0
 12 35  1  0  0  0  0
 13 36  1  0  0  0  0
 14 15  1  0  0  0  0
 14 37  1  0  0  0  0
 14 38  1  0  0  0  0
 15 39  1  0  0  0  0
 15 40  1  0  0  0  0
 16 41  1  0  0  0  0
 16 42  1  0  0  0  0
 16 43  1  0  0  0  0
 17 44  1  0  0  0  0
 17 45  1  0  0  0  0
 17 46  1  0  0  0  0
 18 47  1  0  0  0  0
 18 48  1  0  0  0  0
 18 49  1  0  0  0  0
 19 20  2  0  0  0  0
 19 50  1  0  0  0  0
 20 51  1  0  0  0  0
 20 52  1  0  0  0  0
M  END
> <PUBCHEM_COMPOUND_CID>
519329
> <PUBCHEM_COMPOUND_CANONICALIZED>
1
> <PUBCHEM_CACTVS_COMPLEXITY>
441
> <PUBCHEM_CACTVS_HBOND_ACCEPTOR>
0
> <PUBCHEM_CACTVS_HBOND_DONOR>
0
> <PUBCHEM_CACTVS_ROTATABLE_BOND>
1
> <PUBCHEM_CACTVS_SUBSKEYS>
AAADcfB4AAAAAAAAAAAAAAAAAAAAAAAAAAAwYIAAAAAAAACAAAAAGAAAAAAADwCAAAACAAAAAACAAiBCAAAAAAAgAAAICAAAAAgAAAIAAQAAAAAAgAAIAAMAgMAPgAAAAAAAAACAAAQAACAAAAAAAAAAAA==
> <PUBCHEM_IUPAC_OPENEYE_NAME>
2,4a,8,8-tetramethyl-2-vinyl-3,4,4b,5,6,7,10,10a-octahydro-1H-phenanthrene
> <PUBCHEM_IUPAC_CAS_NAME>
2-ethenyl-2,4a,8,8-tetramethyl-3,4,4b,5,6,7,10,10a-octahydro-1H-phenanthrene
> <PUBCHEM_IUPAC_NAME_MARKUP>
2-ethenyl-2,4<I>a</I>,8,8-tetramethyl-3,4,4<I>b</I>,5,6,7,10,10<I>a</I>-octahydro-1<I>H</I>-phenanthrene
> <PUBCHEM_IUPAC_NAME>
2-ethenyl-2,4a,8,8-tetramethyl-3,4,4b,5,6,7,10,10a-octahydro-1H-phenanthrene
> <PUBCHEM_IUPAC_SYSTEMATIC_NAME>
2-ethenyl-2,4a,8,8-tetramethyl-3,4,4b,5,6,7,10,10a-octahydro-1H-phenanthrene
> <PUBCHEM_IUPAC_TRADITIONAL_NAME>
2,4a,8,8-tetramethyl-2-vinyl-3,4,4b,5,6,7,10,10a-octahydro-1H-phenanthrene
> <PUBCHEM_IUPAC_INCHI>
InChI=1S/C20H32/c1-6-19(4)12-13-20(5)15(14-19)9-10-16-17(20)8-7-11-18(16,2)3/h6,10,15,17H,1,7-9,11-14H2,2-5H3
> <PUBCHEM_IUPAC_INCHIKEY>
BAIWMJSLFJWAQP-UHFFFAOYSA-N
> <PUBCHEM_XLOGP3_AA>
7
> <PUBCHEM_EXACT_MASS>
272.250401021
> <PUBCHEM_MOLECULAR_FORMULA>
C20H32
> <PUBCHEM_MOLECULAR_WEIGHT>
272.5
> <PUBCHEM_OPENEYE_CAN_SMILES>
CC1(CCCC2C1=CCC3C2(CCC(C3)(C)C=C)C)C
> <PUBCHEM_OPENEYE_ISO_SMILES>
CC1(CCCC2C1=CCC3C2(CCC(C3)(C)C=C)C)C
> <PUBCHEM_CACTVS_TPSA>
0
> <PUBCHEM_MONOISOTOPIC_WEIGHT>
272.250401021
> <PUBCHEM_TOTAL_CHARGE>
0
> <PUBCHEM_HEAVY_ATOM_COUNT>
20
> <PUBCHEM_ATOM_DEF_STEREO_COUNT>
0
> <PUBCHEM_ATOM_UDEF_STEREO_COUNT>
4
> <PUBCHEM_BOND_DEF_STEREO_COUNT>
0
> <PUBCHEM_BOND_UDEF_STEREO_COUNT>
0
> <PUBCHEM_ISOTOPIC_ATOM_COUNT>
0
> <PUBCHEM_COMPONENT_COUNT>
1
> <PUBCHEM_CACTVS_TAUTO_COUNT>
-1
> <PUBCHEM_COORDINATE_TYPE>
1
5
255
> <PUBCHEM_BONDANNOTATIONS>
1  12  3
2  8  3
3  11  3
7  16  3
$$$$
