519483
  -OEChem-10302200292D
 38 40  0     1  0  0  0  0  0999 V2000
    4.9889   -1.3338    0.0000 O   0  0  0  0  0  0  0  0  0  0  0  0
    4.9889    2.1767    0.0000 O   0  0  0  0  0  0  0  0  0  0  0  0
    8.2619    0.4214    0.0000 O   0  0  0  0  0  0  0  0  0  0  0  0
    5.2619    0.4214    0.0000 C   0  0  0  0  0  0  0  0  0  0  0  0
    6.2619    0.4214    0.0000 C   0  0  3  0  0  0  0  0  0  0  0  0
    6.7619    1.2874    0.0000 C   0  0  0  0  0  0  0  0  0  0  0  0
    4.6783   -0.3833    0.0000 C   0  0  0  0  0  0  0  0  0  0  0  0
    4.6783    1.2261    0.0000 C   0  0  0  0  0  0  0  0  0  0  0  0
    6.7619   -0.4446    0.0000 C   0  0  0  0  0  0  0  0  0  0  0  0
    3.7320   -0.0786    0.0000 C   0  0  0  0  0  0  0  0  0  0  0  0
    3.7320    0.9214    0.0000 C   0  0  0  0  0  0  0  0  0  0  0  0
    7.7619    1.2874    0.0000 C   0  0  0  0  0  0  0  0  0  0  0  0
    6.2619   -1.3106    0.0000 C   0  0  0  0  0  0  0  0  0  0  0  0
    7.7619   -0.4446    0.0000 C   0  0  0  0  0  0  0  0  0  0  0  0
    2.8660   -0.5786    0.0000 C   0  0  0  0  0  0  0  0  0  0  0  0
    2.8660    1.4214    0.0000 C   0  0  0  0  0  0  0  0  0  0  0  0
    2.0000   -0.0786    0.0000 C   0  0  0  0  0  0  0  0  0  0  0  0
    2.0000    0.9214    0.0000 C   0  0  0  0  0  0  0  0  0  0  0  0
    6.7619   -2.1767    0.0000 C   0  0  0  0  0  0  0  0  0  0  0  0
    8.2619   -1.3106    0.0000 C   0  0  0  0  0  0  0  0  0  0  0  0
    8.2619    2.1535    0.0000 C   0  0  0  0  0  0  0  0  0  0  0  0
    7.7619   -2.1767    0.0000 C   0  0  0  0  0  0  0  0  0  0  0  0
    5.5436   -0.1309    0.0000 H   0  0  0  0  0  0  0  0  0  0  0  0
    6.8819    0.4214    0.0000 H   0  0  0  0  0  0  0  0  0  0  0  0
    6.8695    1.8980    0.0000 H   0  0  0  0  0  0  0  0  0  0  0  0
    6.1793    1.4995    0.0000 H   0  0  0  0  0  0  0  0  0  0  0  0
    5.6419   -1.3106    0.0000 H   0  0  0  0  0  0  0  0  0  0  0  0
    8.0719    0.0923    0.0000 H   0  0  0  0  0  0  0  0  0  0  0  0
    2.8660   -1.1986    0.0000 H   0  0  0  0  0  0  0  0  0  0  0  0
    2.8660    2.0414    0.0000 H   0  0  0  0  0  0  0  0  0  0  0  0
    1.4631   -0.3886    0.0000 H   0  0  0  0  0  0  0  0  0  0  0  0
    1.4631    1.2314    0.0000 H   0  0  0  0  0  0  0  0  0  0  0  0
    6.4519   -2.7136    0.0000 H   0  0  0  0  0  0  0  0  0  0  0  0
    8.8819   -1.3106    0.0000 H   0  0  0  0  0  0  0  0  0  0  0  0
    8.7988    1.8435    0.0000 H   0  0  0  0  0  0  0  0  0  0  0  0
    8.5719    2.6904    0.0000 H   0  0  0  0  0  0  0  0  0  0  0  0
    7.7249    2.4635    0.0000 H   0  0  0  0  0  0  0  0  0  0  0  0
    8.0719   -2.7136    0.0000 H   0  0  0  0  0  0  0  0  0  0  0  0
  1  7  2  0  0  0  0
  2  8  2  0  0  0  0
  3 12  2  0  0  0  0
  4  5  1  0  0  0  0
  4  7  1  0  0  0  0
  4  8  1  0  0  0  0
  4 23  1  0  0  0  0
  5  6  1  0  0  0  0
  5  9  1  0  0  0  0
  5 24  1  0  0  0  0
  6 12  1  0  0  0  0
  6 25  1  0  0  0  0
  6 26  1  0  0  0  0
  7 10  1  0  0  0  0
  8 11  1  0  0  0  0
  9 13  2  0  0  0  0
  9 14  1  0  0  0  0
 10 11  1  0  0  0  0
 10 15  2  0  0  0  0
 11 16  2  0  0  0  0
 12 21  1  0  0  0  0
 13 19  1  0  0  0  0
 13 27  1  0  0  0  0
 14 20  2  0  0  0  0
 14 28  1  0  0  0  0
 15 17  1  0  0  0  0
 15 29  1  0  0  0  0
 16 18  1  0  0  0  0
 16 30  1  0  0  0  0
 17 18  2  0  0  0  0
 17 31  1  0  0  0  0
 18 32  1  0  0  0  0
 19 22  2  0  0  0  0
 19 33  1  0  0  0  0
 20 22  1  0  0  0  0
 20 34  1  0  0  0  0
 21 35  1  0  0  0  0
 21 36  1  0  0  0  0
 21 37  1  0  0  0  0
 22 38  1  0  0  0  0
M  END
> <PUBCHEM_COMPOUND_CID>
519483
> <PUBCHEM_COMPOUND_CANONICALIZED>
1
> <PUBCHEM_CACTVS_COMPLEXITY>
437
> <PUBCHEM_CACTVS_HBOND_ACCEPTOR>
3
> <PUBCHEM_CACTVS_HBOND_DONOR>
0
> <PUBCHEM_CACTVS_ROTATABLE_BOND>
4
> <PUBCHEM_CACTVS_SUBSKEYS>
AAADceB4MAAAAAAAAAAAAAAAAAAAAYAAAAAwYAAAAAAAAGABQAAAGgAAAAAADQSAmAAyAIAAAACIAqBSAAACAAAkAAAIiAEAAMgIIDKIFRCAIQAggAAIiYcJisCugAAAAAAQAAAAAAAAACAAAQAACAAAAA==
> <PUBCHEM_IUPAC_OPENEYE_NAME>
2-(3-oxo-1-phenyl-butyl)indane-1,3-dione
> <PUBCHEM_IUPAC_CAS_NAME>
2-(3-oxo-1-phenylbutyl)indene-1,3-dione
> <PUBCHEM_IUPAC_NAME_MARKUP>
2-(3-oxo-1-phenylbutyl)indene-1,3-dione
> <PUBCHEM_IUPAC_NAME>
2-(3-oxo-1-phenylbutyl)indene-1,3-dione
> <PUBCHEM_IUPAC_SYSTEMATIC_NAME>
2-(3-oxidanylidene-1-phenyl-butyl)indene-1,3-dione
> <PUBCHEM_IUPAC_TRADITIONAL_NAME>
2-(3-keto-1-phenyl-butyl)indane-1,3-quinone
> <PUBCHEM_IUPAC_INCHI>
InChI=1S/C19H16O3/c1-12(20)11-16(13-7-3-2-4-8-13)17-18(21)14-9-5-6-10-15(14)19(17)22/h2-10,16-17H,11H2,1H3
> <PUBCHEM_IUPAC_INCHIKEY>
KJULKZCUOFDKHU-UHFFFAOYSA-N
> <PUBCHEM_XLOGP3_AA>
2.8
> <PUBCHEM_EXACT_MASS>
292.109944368
> <PUBCHEM_MOLECULAR_FORMULA>
C19H16O3
> <PUBCHEM_MOLECULAR_WEIGHT>
292.3
> <PUBCHEM_OPENEYE_CAN_SMILES>
CC(=O)CC(C1C(=O)C2=CC=CC=C2C1=O)C3=CC=CC=C3
> <PUBCHEM_OPENEYE_ISO_SMILES>
CC(=O)CC(C1C(=O)C2=CC=CC=C2C1=O)C3=CC=CC=C3
> <PUBCHEM_CACTVS_TPSA>
51.2
> <PUBCHEM_MONOISOTOPIC_WEIGHT>
292.109944368
> <PUBCHEM_TOTAL_CHARGE>
0
> <PUBCHEM_HEAVY_ATOM_COUNT>
22
> <PUBCHEM_ATOM_DEF_STEREO_COUNT>
0
> <PUBCHEM_ATOM_UDEF_STEREO_COUNT>
1
> <PUBCHEM_BOND_DEF_STEREO_COUNT>
0
> <PUBCHEM_BOND_UDEF_STEREO_COUNT>
0
> <PUBCHEM_ISOTOPIC_ATOM_COUNT>
0
> <PUBCHEM_COMPONENT_COUNT>
1
> <PUBCHEM_CACTVS_TAUTO_COUNT>
-1
> <PUBCHEM_COORDINATE_TYPE>
1
5
255
> <PUBCHEM_BONDANNOTATIONS>
10  11  8
10  15  8
11  16  8
13  19  8
14  20  8
15  17  8
16  18  8
17  18  8
19  22  8
20  22  8
5  6  3
9  13  8
9  14  8
$$$$
