519455
  -OEChem-10302200292D
 27 27  0     1  0  0  0  0  0999 V2000
    3.7320   -1.9330    0.0000 O   0  0  0  0  0  0  0  0  0  0  0  0
    3.7320    1.0670    0.0000 C   0  0  3  0  0  0  0  0  0  0  0  0
    4.5981    0.5670    0.0000 C   0  0  0  0  0  0  0  0  0  0  0  0
    4.2320    1.9330    0.0000 C   0  0  0  0  0  0  0  0  0  0  0  0
    2.8660    0.5670    0.0000 C   0  0  0  0  0  0  0  0  0  0  0  0
    4.5981   -0.4330    0.0000 C   0  0  0  0  0  0  0  0  0  0  0  0
    3.2320    1.9330    0.0000 C   0  0  0  0  0  0  0  0  0  0  0  0
    2.8660   -0.4330    0.0000 C   0  0  0  0  0  0  0  0  0  0  0  0
    3.7320   -0.9330    0.0000 C   0  0  0  0  0  0  0  0  0  0  0  0
    5.2320    1.9330    0.0000 C   0  0  0  0  0  0  0  0  0  0  0  0
    2.0000    1.0670    0.0000 C   0  0  0  0  0  0  0  0  0  0  0  0
    5.2087    0.4593    0.0000 H   0  0  0  0  0  0  0  0  0  0  0  0
    4.8101    1.1496    0.0000 H   0  0  0  0  0  0  0  0  0  0  0  0
    4.3397    2.5436    0.0000 H   0  0  0  0  0  0  0  0  0  0  0  0
    3.6494    2.1451    0.0000 H   0  0  0  0  0  0  0  0  0  0  0  0
    4.8101   -1.0156    0.0000 H   0  0  0  0  0  0  0  0  0  0  0  0
    5.2087   -0.3254    0.0000 H   0  0  0  0  0  0  0  0  0  0  0  0
    3.7690    2.2430    0.0000 H   0  0  0  0  0  0  0  0  0  0  0  0
    2.9220    2.4700    0.0000 H   0  0  0  0  0  0  0  0  0  0  0  0
    2.6951    1.6230    0.0000 H   0  0  0  0  0  0  0  0  0  0  0  0
    2.3291   -0.7430    0.0000 H   0  0  0  0  0  0  0  0  0  0  0  0
    5.2320    1.3130    0.0000 H   0  0  0  0  0  0  0  0  0  0  0  0
    5.8520    1.9330    0.0000 H   0  0  0  0  0  0  0  0  0  0  0  0
    5.2320    2.5530    0.0000 H   0  0  0  0  0  0  0  0  0  0  0  0
    2.3100    1.6039    0.0000 H   0  0  0  0  0  0  0  0  0  0  0  0
    1.4631    1.3770    0.0000 H   0  0  0  0  0  0  0  0  0  0  0  0
    1.6900    0.5301    0.0000 H   0  0  0  0  0  0  0  0  0  0  0  0
  1  9  2  0  0  0  0
  2  3  1  0  0  0  0
  2  4  1  0  0  0  0
  2  5  1  0  0  0  0
  2  7  1  0  0  0  0
  3  6  1  0  0  0  0
  3 12  1  0  0  0  0
  3 13  1  0  0  0  0
  4 10  1  0  0  0  0
  4 14  1  0  0  0  0
  4 15  1  0  0  0  0
  5  8  2  0  0  0  0
  5 11  1  0  0  0  0
  6  9  1  0  0  0  0
  6 16  1  0  0  0  0
  6 17  1  0  0  0  0
  7 18  1  0  0  0  0
  7 19  1  0  0  0  0
  7 20  1  0  0  0  0
  8  9  1  0  0  0  0
  8 21  1  0  0  0  0
 10 22  1  0  0  0  0
 10 23  1  0  0  0  0
 10 24  1  0  0  0  0
 11 25  1  0  0  0  0
 11 26  1  0  0  0  0
 11 27  1  0  0  0  0
M  END
> <PUBCHEM_COMPOUND_CID>
519455
> <PUBCHEM_COMPOUND_CANONICALIZED>
1
> <PUBCHEM_CACTVS_COMPLEXITY>
203
> <PUBCHEM_CACTVS_HBOND_ACCEPTOR>
1
> <PUBCHEM_CACTVS_HBOND_DONOR>
0
> <PUBCHEM_CACTVS_ROTATABLE_BOND>
1
> <PUBCHEM_CACTVS_SUBSKEYS>
AAADceBwIAAAAAAAAAAAAAAAAAAAAAAAAAAgAAAAAAAAAAAAAAAAGgAAAAAADgSAgAACAAAAAACIAqBSAAAAAAAgAAAACAEAAEgAABIAAQAAAAAAgAAIAQMIiAAPAAAAAAAAAAAAAAAAAAAAAAAAAAAAAA==
> <PUBCHEM_IUPAC_OPENEYE_NAME>
4-ethyl-3,4-dimethyl-cyclohex-2-en-1-one
> <PUBCHEM_IUPAC_CAS_NAME>
4-ethyl-3,4-dimethyl-1-cyclohex-2-enone
> <PUBCHEM_IUPAC_NAME_MARKUP>
4-ethyl-3,4-dimethylcyclohex-2-en-1-one
> <PUBCHEM_IUPAC_NAME>
4-ethyl-3,4-dimethylcyclohex-2-en-1-one
> <PUBCHEM_IUPAC_SYSTEMATIC_NAME>
4-ethyl-3,4-dimethyl-cyclohex-2-en-1-one
> <PUBCHEM_IUPAC_TRADITIONAL_NAME>
4-ethyl-3,4-dimethyl-cyclohex-2-en-1-one
> <PUBCHEM_IUPAC_INCHI>
InChI=1S/C10H16O/c1-4-10(3)6-5-9(11)7-8(10)2/h7H,4-6H2,1-3H3
> <PUBCHEM_IUPAC_INCHIKEY>
LVBPXRKIGDMCEV-UHFFFAOYSA-N
> <PUBCHEM_XLOGP3_AA>
2.2
> <PUBCHEM_EXACT_MASS>
152.120115130
> <PUBCHEM_MOLECULAR_FORMULA>
C10H16O
> <PUBCHEM_MOLECULAR_WEIGHT>
152.23
> <PUBCHEM_OPENEYE_CAN_SMILES>
CCC1(CCC(=O)C=C1C)C
> <PUBCHEM_OPENEYE_ISO_SMILES>
CCC1(CCC(=O)C=C1C)C
> <PUBCHEM_CACTVS_TPSA>
17.1
> <PUBCHEM_MONOISOTOPIC_WEIGHT>
152.120115130
> <PUBCHEM_TOTAL_CHARGE>
0
> <PUBCHEM_HEAVY_ATOM_COUNT>
11
> <PUBCHEM_ATOM_DEF_STEREO_COUNT>
0
> <PUBCHEM_ATOM_UDEF_STEREO_COUNT>
1
> <PUBCHEM_BOND_DEF_STEREO_COUNT>
0
> <PUBCHEM_BOND_UDEF_STEREO_COUNT>
0
> <PUBCHEM_ISOTOPIC_ATOM_COUNT>
0
> <PUBCHEM_COMPONENT_COUNT>
1
> <PUBCHEM_CACTVS_TAUTO_COUNT>
5
> <PUBCHEM_COORDINATE_TYPE>
1
5
255
> <PUBCHEM_BONDANNOTATIONS>
2  7  3
$$$$
