519586
  -OEChem-10302200292D
 49 52  0     1  0  0  0  0  0999 V2000
    5.6489   -2.7262    0.0000 F   0  0  0  0  0  0  0  0  0  0  0  0
    8.6500    2.5983    0.0000 O   0  0  0  0  0  0  0  0  0  0  0  0
    2.0000   -1.7093    0.0000 O   0  0  0  0  0  0  0  0  0  0  0  0
    7.3931    0.3431    0.0000 C   0  0  3  0  0  0  0  0  0  0  0  0
    7.3931    1.3431    0.0000 C   0  0  3  0  0  0  0  0  0  0  0  0
    6.5271   -0.1569    0.0000 C   0  0  3  0  0  0  0  0  0  0  0  0
    5.6610    0.3431    0.0000 C   0  0  3  0  0  0  0  0  0  0  0  0
    4.7510   -0.1638    0.0000 C   0  0  3  0  0  0  0  0  0  0  0  0
    6.5271    1.8431    0.0000 C   0  0  0  0  0  0  0  0  0  0  0  0
    5.6610    1.3431    0.0000 C   0  0  0  0  0  0  0  0  0  0  0  0
    8.3393    1.6478    0.0000 C   0  0  3  0  0  0  0  0  0  0  0  0
    8.3393    0.0383    0.0000 C   0  0  0  0  0  0  0  0  0  0  0  0
    6.5431   -1.1984    0.0000 C   0  0  0  0  0  0  0  0  0  0  0  0
    8.9229    0.8431    0.0000 C   0  0  0  0  0  0  0  0  0  0  0  0
    4.7430   -1.2054    0.0000 C   0  0  0  0  0  0  0  0  0  0  0  0
    5.6451   -1.7262    0.0000 C   0  0  3  0  0  0  0  0  0  0  0  0
    7.3931    2.3431    0.0000 C   0  0  0  0  0  0  0  0  0  0  0  0
    3.8242    0.4003    0.0000 C   0  0  0  0  0  0  0  0  0  0  0  0
    4.7587    0.8362    0.0000 C   0  0  0  0  0  0  0  0  0  0  0  0
    2.8763   -0.1276    0.0000 C   0  0  0  0  0  0  0  0  0  0  0  0
    3.8076   -1.7551    0.0000 C   0  0  0  0  0  0  0  0  0  0  0  0
    2.8680   -1.2126    0.0000 C   0  0  0  0  0  0  0  0  0  0  0  0
    7.4587   -0.2734    0.0000 H   0  0  0  0  0  0  0  0  0  0  0  0
    7.0664   -0.4628    0.0000 H   0  0  0  0  0  0  0  0  0  0  0  0
    6.1980    0.6531    0.0000 H   0  0  0  0  0  0  0  0  0  0  0  0
    6.9256    2.3180    0.0000 H   0  0  0  0  0  0  0  0  0  0  0  0
    6.1285    2.3180    0.0000 H   0  0  0  0  0  0  0  0  0  0  0  0
    5.4490    1.9257    0.0000 H   0  0  0  0  0  0  0  0  0  0  0  0
    5.0504    1.2354    0.0000 H   0  0  0  0  0  0  0  0  0  0  0  0
    7.9018    2.0872    0.0000 H   0  0  0  0  0  0  0  0  0  0  0  0
    8.0883   -0.5286    0.0000 H   0  0  0  0  0  0  0  0  0  0  0  0
    8.8767   -0.2709    0.0000 H   0  0  0  0  0  0  0  0  0  0  0  0
    6.7612   -1.7788    0.0000 H   0  0  0  0  0  0  0  0  0  0  0  0
    7.1523   -1.0829    0.0000 H   0  0  0  0  0  0  0  0  0  0  0  0
    9.3838    0.4283    0.0000 H   0  0  0  0  0  0  0  0  0  0  0  0
    9.3838    1.2578    0.0000 H   0  0  0  0  0  0  0  0  0  0  0  0
    5.1087   -2.0372    0.0000 H   0  0  0  0  0  0  0  0  0  0  0  0
    8.0131    2.3431    0.0000 H   0  0  0  0  0  0  0  0  0  0  0  0
    7.3931    2.9631    0.0000 H   0  0  0  0  0  0  0  0  0  0  0  0
    6.7731    2.3431    0.0000 H   0  0  0  0  0  0  0  0  0  0  0  0
    4.2324    0.8670    0.0000 H   0  0  0  0  0  0  0  0  0  0  0  0
    3.4343    0.8823    0.0000 H   0  0  0  0  0  0  0  0  0  0  0  0
    5.3787    0.8314    0.0000 H   0  0  0  0  0  0  0  0  0  0  0  0
    4.7635    1.4562    0.0000 H   0  0  0  0  0  0  0  0  0  0  0  0
    4.1388    0.8410    0.0000 H   0  0  0  0  0  0  0  0  0  0  0  0
    2.6718    0.4576    0.0000 H   0  0  0  0  0  0  0  0  0  0  0  0
    2.2647   -0.2290    0.0000 H   0  0  0  0  0  0  0  0  0  0  0  0
    3.8100   -2.3751    0.0000 H   0  0  0  0  0  0  0  0  0  0  0  0
    9.2566    2.7262    0.0000 H   0  0  0  0  0  0  0  0  0  0  0  0
  1 16  1  0  0  0  0
  2 11  1  0  0  0  0
  2 49  1  0  0  0  0
  3 22  2  0  0  0  0
  4  5  1  0  0  0  0
  4  6  1  0  0  0  0
  4 12  1  0  0  0  0
  4 23  1  0  0  0  0
  5  9  1  0  0  0  0
  5 11  1  0  0  0  0
  5 17  1  0  0  0  0
  6  7  1  0  0  0  0
  6 13  1  0  0  0  0
  6 24  1  0  0  0  0
  7  8  1  0  0  0  0
  7 10  1  0  0  0  0
  7 25  1  0  0  0  0
  8 15  1  0  0  0  0
  8 18  1  0  0  0  0
  8 19  1  0  0  0  0
  9 10  1  0  0  0  0
  9 26  1  0  0  0  0
  9 27  1  0  0  0  0
 10 28  1  0  0  0  0
 10 29  1  0  0  0  0
 11 14  1  0  0  0  0
 11 30  1  0  0  0  0
 12 14  1  0  0  0  0
 12 31  1  0  0  0  0
 12 32  1  0  0  0  0
 13 16  1  0  0  0  0
 13 33  1  0  0  0  0
 13 34  1  0  0  0  0
 14 35  1  0  0  0  0
 14 36  1  0  0  0  0
 15 16  1  0  0  0  0
 15 21  2  0  0  0  0
 16 37  1  0  0  0  0
 17 38  1  0  0  0  0
 17 39  1  0  0  0  0
 17 40  1  0  0  0  0
 18 20  1  0  0  0  0
 18 41  1  0  0  0  0
 18 42  1  0  0  0  0
 19 43  1  0  0  0  0
 19 44  1  0  0  0  0
 19 45  1  0  0  0  0
 20 22  1  0  0  0  0
 20 46  1  0  0  0  0
 20 47  1  0  0  0  0
 21 22  1  0  0  0  0
 21 48  1  0  0  0  0
M  END
> <PUBCHEM_COMPOUND_CID>
519586
> <PUBCHEM_COMPOUND_CANONICALIZED>
1
> <PUBCHEM_CACTVS_COMPLEXITY>
542
> <PUBCHEM_CACTVS_HBOND_ACCEPTOR>
3
> <PUBCHEM_CACTVS_HBOND_DONOR>
1
> <PUBCHEM_CACTVS_ROTATABLE_BOND>
0
> <PUBCHEM_CACTVS_SUBSKEYS>
AAADceB4MQAAAAAAAAAAAAAAAAAAAYAAAAAwYIAAAAAAAGDAAAAAGwAACAAADxSggAICAAAAAgCIAqBSAAAAAAAgAAAACAEAAEgAEBIAAQAAQAAEgAAIAQOIyPCPgAAAAAAAAACAAAQAACAAAIAADAAAAA==
> <PUBCHEM_IUPAC_OPENEYE_NAME>
6-fluoro-17-hydroxy-10,13-dimethyl-1,2,6,7,8,9,11,12,14,15,16,17-dodecahydrocyclopenta[a]phenanthren-3-one
> <PUBCHEM_IUPAC_CAS_NAME>
6-fluoro-17-hydroxy-10,13-dimethyl-1,2,6,7,8,9,11,12,14,15,16,17-dodecahydrocyclopenta[a]phenanthren-3-one
> <PUBCHEM_IUPAC_NAME_MARKUP>
6-fluoro-17-hydroxy-10,13-dimethyl-1,2,6,7,8,9,11,12,14,15,16,17-dodecahydrocyclopenta[a]phenanthren-3-one
> <PUBCHEM_IUPAC_NAME>
6-fluoro-17-hydroxy-10,13-dimethyl-1,2,6,7,8,9,11,12,14,15,16,17-dodecahydrocyclopenta[a]phenanthren-3-one
> <PUBCHEM_IUPAC_SYSTEMATIC_NAME>
6-fluoranyl-10,13-dimethyl-17-oxidanyl-1,2,6,7,8,9,11,12,14,15,16,17-dodecahydrocyclopenta[a]phenanthren-3-one
> <PUBCHEM_IUPAC_TRADITIONAL_NAME>
6-fluoro-17-hydroxy-10,13-dimethyl-1,2,6,7,8,9,11,12,14,15,16,17-dodecahydrocyclopenta[a]phenanthren-3-one
> <PUBCHEM_IUPAC_INCHI>
InChI=1S/C19H27FO2/c1-18-7-5-11(21)9-15(18)16(20)10-12-13-3-4-17(22)19(13,2)8-6-14(12)18/h9,12-14,16-17,22H,3-8,10H2,1-2H3
> <PUBCHEM_IUPAC_INCHIKEY>
GGQPTOITOZXLBE-UHFFFAOYSA-N
> <PUBCHEM_XLOGP3>
3.1
> <PUBCHEM_EXACT_MASS>
306.19950826
> <PUBCHEM_MOLECULAR_FORMULA>
C19H27FO2
> <PUBCHEM_MOLECULAR_WEIGHT>
306.4
> <PUBCHEM_OPENEYE_CAN_SMILES>
CC12CCC3C(C1CCC2O)CC(C4=CC(=O)CCC34C)F
> <PUBCHEM_OPENEYE_ISO_SMILES>
CC12CCC3C(C1CCC2O)CC(C4=CC(=O)CCC34C)F
> <PUBCHEM_CACTVS_TPSA>
37.3
> <PUBCHEM_MONOISOTOPIC_WEIGHT>
306.19950826
> <PUBCHEM_TOTAL_CHARGE>
0
> <PUBCHEM_HEAVY_ATOM_COUNT>
22
> <PUBCHEM_ATOM_DEF_STEREO_COUNT>
0
> <PUBCHEM_ATOM_UDEF_STEREO_COUNT>
7
> <PUBCHEM_BOND_DEF_STEREO_COUNT>
0
> <PUBCHEM_BOND_UDEF_STEREO_COUNT>
0
> <PUBCHEM_ISOTOPIC_ATOM_COUNT>
0
> <PUBCHEM_COMPONENT_COUNT>
1
> <PUBCHEM_CACTVS_TAUTO_COUNT>
-1
> <PUBCHEM_COORDINATE_TYPE>
1
5
255
> <PUBCHEM_BONDANNOTATIONS>
16  1  3
11  2  3
4  12  3
5  17  3
6  13  3
7  10  3
8  19  3
$$$$
