519514
  -OEChem-10302200292D
 42 42  0     1  0  0  0  0  0999 V2000
    6.1350    0.0000    0.0000 Br  0  0  0  0  0  0  0  0  0  0  0  0
    0.0000    3.7685    0.0000 Cl  0  0  0  0  0  0  0  0  0  0  0  0
    5.2690    4.5000    0.0000 O   0  0  0  0  0  0  0  0  0  0  0  0
    4.4030    7.0000    0.0000 N   0  0  0  0  0  0  0  0  0  0  0  0
    6.1350    4.0000    0.0000 C   0  0  3  0  0  0  0  0  0  0  0  0
    6.1350    3.0000    0.0000 C   0  0  0  0  0  0  0  0  0  0  0  0
    7.0010    4.5000    0.0000 C   0  0  0  0  0  0  0  0  0  0  0  0
    5.2690    5.5000    0.0000 C   0  0  0  0  0  0  0  0  0  0  0  0
    4.4030    6.0000    0.0000 C   0  0  0  0  0  0  0  0  0  0  0  0
    5.2690    2.5000    0.0000 C   0  0  0  0  0  0  0  0  0  0  0  0
    7.0010    2.5000    0.0000 C   0  0  0  0  0  0  0  0  0  0  0  0
    7.0010    5.5000    0.0000 C   0  0  0  0  0  0  0  0  0  0  0  0
    7.8671    4.0000    0.0000 C   0  0  0  0  0  0  0  0  0  0  0  0
    3.5369    7.5000    0.0000 C   0  0  0  0  0  0  0  0  0  0  0  0
    5.2690    7.5000    0.0000 C   0  0  0  0  0  0  0  0  0  0  0  0
    5.2690    1.5000    0.0000 C   0  0  0  0  0  0  0  0  0  0  0  0
    7.0010    1.5000    0.0000 C   0  0  0  0  0  0  0  0  0  0  0  0
    7.8671    6.0000    0.0000 C   0  0  0  0  0  0  0  0  0  0  0  0
    8.7331    4.5000    0.0000 C   0  0  0  0  0  0  0  0  0  0  0  0
    6.1350    1.0000    0.0000 C   0  0  0  0  0  0  0  0  0  0  0  0
    8.7331    5.5000    0.0000 C   0  0  0  0  0  0  0  0  0  0  0  0
    6.1350    4.8500    0.0000 H   0  0  0  0  0  0  0  0  0  0  0  0
    5.8796    5.3923    0.0000 H   0  0  0  0  0  0  0  0  0  0  0  0
    5.4810    6.0826    0.0000 H   0  0  0  0  0  0  0  0  0  0  0  0
    3.7924    6.1077    0.0000 H   0  0  0  0  0  0  0  0  0  0  0  0
    4.1909    5.4174    0.0000 H   0  0  0  0  0  0  0  0  0  0  0  0
    4.7320    2.8100    0.0000 H   0  0  0  0  0  0  0  0  0  0  0  0
    7.5380    2.8100    0.0000 H   0  0  0  0  0  0  0  0  0  0  0  0
    6.4641    5.8100    0.0000 H   0  0  0  0  0  0  0  0  0  0  0  0
    7.8671    3.3800    0.0000 H   0  0  0  0  0  0  0  0  0  0  0  0
    3.8469    8.0369    0.0000 H   0  0  0  0  0  0  0  0  0  0  0  0
    3.0000    7.8100    0.0000 H   0  0  0  0  0  0  0  0  0  0  0  0
    3.2269    6.9631    0.0000 H   0  0  0  0  0  0  0  0  0  0  0  0
    5.5790    6.9631    0.0000 H   0  0  0  0  0  0  0  0  0  0  0  0
    5.8059    7.8100    0.0000 H   0  0  0  0  0  0  0  0  0  0  0  0
    4.9590    8.0369    0.0000 H   0  0  0  0  0  0  0  0  0  0  0  0
    4.7320    1.1900    0.0000 H   0  0  0  0  0  0  0  0  0  0  0  0
    7.5380    1.1900    0.0000 H   0  0  0  0  0  0  0  0  0  0  0  0
    7.8671    6.6200    0.0000 H   0  0  0  0  0  0  0  0  0  0  0  0
    9.2700    4.1900    0.0000 H   0  0  0  0  0  0  0  0  0  0  0  0
    9.2700    5.8100    0.0000 H   0  0  0  0  0  0  0  0  0  0  0  0
    1.0000    3.7685    0.0000 H   0  0  0  0  0  0  0  0  0  0  0  0
  1 20  1  0  0  0  0
  2 42  1  0  0  0  0
  3  5  1  0  0  0  0
  3  8  1  0  0  0  0
  4  9  1  0  0  0  0
  4 14  1  0  0  0  0
  4 15  1  0  0  0  0
  5  6  1  0  0  0  0
  5  7  1  0  0  0  0
  5 22  1  0  0  0  0
  6 10  2  0  0  0  0
  6 11  1  0  0  0  0
  7 12  2  0  0  0  0
  7 13  1  0  0  0  0
  8  9  1  0  0  0  0
  8 23  1  0  0  0  0
  8 24  1  0  0  0  0
  9 25  1  0  0  0  0
  9 26  1  0  0  0  0
 10 16  1  0  0  0  0
 10 27  1  0  0  0  0
 11 17  2  0  0  0  0
 11 28  1  0  0  0  0
 12 18  1  0  0  0  0
 12 29  1  0  0  0  0
 13 19  2  0  0  0  0
 13 30  1  0  0  0  0
 14 31  1  0  0  0  0
 14 32  1  0  0  0  0
 14 33  1  0  0  0  0
 15 34  1  0  0  0  0
 15 35  1  0  0  0  0
 15 36  1  0  0  0  0
 16 20  2  0  0  0  0
 16 37  1  0  0  0  0
 17 20  1  0  0  0  0
 17 38  1  0  0  0  0
 18 21  2  0  0  0  0
 18 39  1  0  0  0  0
 19 21  1  0  0  0  0
 19 40  1  0  0  0  0
 21 41  1  0  0  0  0
M  END
> <PUBCHEM_COMPOUND_CID>
519514
> <PUBCHEM_COMPOUND_CANONICALIZED>
1
> <PUBCHEM_CACTVS_COMPLEXITY>
258
> <PUBCHEM_CACTVS_HBOND_ACCEPTOR>
2
> <PUBCHEM_CACTVS_HBOND_DONOR>
1
> <PUBCHEM_CACTVS_ROTATABLE_BOND>
6
> <PUBCHEM_CACTVS_SUBSKEYS>
AAADceB6IAAEEAAAAAAAAAAAAAAAAAAAAAAwYAAAAAAAAAABQAAAHgBAAAABrBThmAYyAIMABACAAiBCAAACAAAgAAQIiAAICKgKJiKAMRiDMAAkwAEYqheAwOAOAgAAAAAAAAAEAAAAAAAAAAAAAAAAAA==
> <PUBCHEM_IUPAC_OPENEYE_NAME>
2-[(4-bromophenyl)-phenyl-methoxy]-N,N-dimethyl-ethanamine;hydrochloride
> <PUBCHEM_IUPAC_CAS_NAME>
2-[(4-bromophenyl)-phenylmethoxy]-N,N-dimethylethanamine;hydrochloride
> <PUBCHEM_IUPAC_NAME_MARKUP>
2-[(4-bromophenyl)-phenylmethoxy]-<I>N</I>,<I>N</I>-dimethylethanamine;hydrochloride
> <PUBCHEM_IUPAC_NAME>
2-[(4-bromophenyl)-phenylmethoxy]-N,N-dimethylethanamine;hydrochloride
> <PUBCHEM_IUPAC_SYSTEMATIC_NAME>
2-[(4-bromophenyl)-phenyl-methoxy]-N,N-dimethyl-ethanamine;hydrochloride
> <PUBCHEM_IUPAC_TRADITIONAL_NAME>
2-[(4-bromophenyl)-phenyl-methoxy]ethyl-dimethyl-amine;hydrochloride
> <PUBCHEM_IUPAC_INCHI>
InChI=1S/C17H20BrNO.ClH/c1-19(2)12-13-20-17(14-6-4-3-5-7-14)15-8-10-16(18)11-9-15;/h3-11,17H,12-13H2,1-2H3;1H
> <PUBCHEM_IUPAC_INCHIKEY>
ZQDJSWUEGOYDGT-UHFFFAOYSA-N
> <PUBCHEM_EXACT_MASS>
369.04950
> <PUBCHEM_MOLECULAR_FORMULA>
C17H21BrClNO
> <PUBCHEM_MOLECULAR_WEIGHT>
370.7
> <PUBCHEM_OPENEYE_CAN_SMILES>
CN(C)CCOC(C1=CC=CC=C1)C2=CC=C(C=C2)Br.Cl
> <PUBCHEM_OPENEYE_ISO_SMILES>
CN(C)CCOC(C1=CC=CC=C1)C2=CC=C(C=C2)Br.Cl
> <PUBCHEM_CACTVS_TPSA>
12.5
> <PUBCHEM_MONOISOTOPIC_WEIGHT>
369.04950
> <PUBCHEM_TOTAL_CHARGE>
0
> <PUBCHEM_HEAVY_ATOM_COUNT>
21
> <PUBCHEM_ATOM_DEF_STEREO_COUNT>
0
> <PUBCHEM_ATOM_UDEF_STEREO_COUNT>
1
> <PUBCHEM_BOND_DEF_STEREO_COUNT>
0
> <PUBCHEM_BOND_UDEF_STEREO_COUNT>
0
> <PUBCHEM_ISOTOPIC_ATOM_COUNT>
0
> <PUBCHEM_COMPONENT_COUNT>
2
> <PUBCHEM_CACTVS_TAUTO_COUNT>
1
> <PUBCHEM_COORDINATE_TYPE>
1
5
255
> <PUBCHEM_BONDANNOTATIONS>
10  16  8
11  17  8
12  18  8
13  19  8
16  20  8
17  20  8
18  21  8
19  21  8
5  22  3
6  10  8
6  11  8
7  12  8
7  13  8
$$$$
