519588
  -OEChem-10302200292D
 66 65  0     1  0  0  0  0  0999 V2000
    2.8660   -0.2500    0.0000 Si  0  0  0  0  0  0  0  0  0  0  0  0
    7.1962    0.2500    0.0000 Si  0  0  0  0  0  0  0  0  0  0  0  0
    3.7320   -2.7500    0.0000 Si  0  0  0  0  0  0  0  0  0  0  0  0
    6.3301    2.7500    0.0000 Si  0  0  0  0  0  0  0  0  0  0  0  0
    3.7320    0.2500    0.0000 O   0  0  0  0  0  0  0  0  0  0  0  0
    6.3301   -0.2500    0.0000 O   0  0  0  0  0  0  0  0  0  0  0  0
    3.7320   -1.7500    0.0000 O   0  0  0  0  0  0  0  0  0  0  0  0
    6.3301    1.7500    0.0000 O   0  0  0  0  0  0  0  0  0  0  0  0
    4.5981   -0.2500    0.0000 C   0  0  3  0  0  0  0  0  0  0  0  0
    5.4641    0.2500    0.0000 C   0  0  3  0  0  0  0  0  0  0  0  0
    4.5981   -1.2500    0.0000 C   0  0  0  0  0  0  0  0  0  0  0  0
    5.4641    1.2500    0.0000 C   0  0  0  0  0  0  0  0  0  0  0  0
    2.0000   -0.7500    0.0000 C   0  0  0  0  0  0  0  0  0  0  0  0
    2.3660    0.6160    0.0000 C   0  0  0  0  0  0  0  0  0  0  0  0
    3.3660   -1.1160    0.0000 C   0  0  0  0  0  0  0  0  0  0  0  0
    8.0622    0.7500    0.0000 C   0  0  0  0  0  0  0  0  0  0  0  0
    7.6962   -0.6160    0.0000 C   0  0  0  0  0  0  0  0  0  0  0  0
    6.6962    1.1160    0.0000 C   0  0  0  0  0  0  0  0  0  0  0  0
    3.7320   -3.7500    0.0000 C   0  0  0  0  0  0  0  0  0  0  0  0
    2.7320   -2.7500    0.0000 C   0  0  0  0  0  0  0  0  0  0  0  0
    4.7320   -2.7500    0.0000 C   0  0  0  0  0  0  0  0  0  0  0  0
    6.3301    3.7500    0.0000 C   0  0  0  0  0  0  0  0  0  0  0  0
    7.3301    2.7500    0.0000 C   0  0  0  0  0  0  0  0  0  0  0  0
    5.3301    2.7500    0.0000 C   0  0  0  0  0  0  0  0  0  0  0  0
    4.5981    0.3700    0.0000 H   0  0  0  0  0  0  0  0  0  0  0  0
    5.4641   -0.3700    0.0000 H   0  0  0  0  0  0  0  0  0  0  0  0
    4.8101   -1.8326    0.0000 H   0  0  0  0  0  0  0  0  0  0  0  0
    5.2087   -1.1423    0.0000 H   0  0  0  0  0  0  0  0  0  0  0  0
    5.2520    1.8326    0.0000 H   0  0  0  0  0  0  0  0  0  0  0  0
    4.8535    1.1423    0.0000 H   0  0  0  0  0  0  0  0  0  0  0  0
    1.6900   -0.2131    0.0000 H   0  0  0  0  0  0  0  0  0  0  0  0
    1.4631   -1.0600    0.0000 H   0  0  0  0  0  0  0  0  0  0  0  0
    2.3100   -1.2869    0.0000 H   0  0  0  0  0  0  0  0  0  0  0  0
    2.9030    0.9260    0.0000 H   0  0  0  0  0  0  0  0  0  0  0  0
    2.0560    1.1530    0.0000 H   0  0  0  0  0  0  0  0  0  0  0  0
    1.8291    0.3060    0.0000 H   0  0  0  0  0  0  0  0  0  0  0  0
    2.8291   -1.4260    0.0000 H   0  0  0  0  0  0  0  0  0  0  0  0
    3.6760   -1.6530    0.0000 H   0  0  0  0  0  0  0  0  0  0  0  0
    3.9030   -0.8060    0.0000 H   0  0  0  0  0  0  0  0  0  0  0  0
    8.3722    0.2131    0.0000 H   0  0  0  0  0  0  0  0  0  0  0  0
    8.5991    1.0600    0.0000 H   0  0  0  0  0  0  0  0  0  0  0  0
    7.7522    1.2869    0.0000 H   0  0  0  0  0  0  0  0  0  0  0  0
    7.1592   -0.9260    0.0000 H   0  0  0  0  0  0  0  0  0  0  0  0
    8.0062   -1.1530    0.0000 H   0  0  0  0  0  0  0  0  0  0  0  0
    8.2331   -0.3060    0.0000 H   0  0  0  0  0  0  0  0  0  0  0  0
    7.2331    1.4260    0.0000 H   0  0  0  0  0  0  0  0  0  0  0  0
    6.3862    1.6530    0.0000 H   0  0  0  0  0  0  0  0  0  0  0  0
    6.1592    0.8060    0.0000 H   0  0  0  0  0  0  0  0  0  0  0  0
    3.1120   -3.7500    0.0000 H   0  0  0  0  0  0  0  0  0  0  0  0
    3.7320   -4.3700    0.0000 H   0  0  0  0  0  0  0  0  0  0  0  0
    4.3520   -3.7500    0.0000 H   0  0  0  0  0  0  0  0  0  0  0  0
    2.7320   -2.1300    0.0000 H   0  0  0  0  0  0  0  0  0  0  0  0
    2.1120   -2.7500    0.0000 H   0  0  0  0  0  0  0  0  0  0  0  0
    2.7320   -3.3700    0.0000 H   0  0  0  0  0  0  0  0  0  0  0  0
    4.7320   -3.3700    0.0000 H   0  0  0  0  0  0  0  0  0  0  0  0
    5.3520   -2.7500    0.0000 H   0  0  0  0  0  0  0  0  0  0  0  0
    4.7320   -2.1300    0.0000 H   0  0  0  0  0  0  0  0  0  0  0  0
    6.9501    3.7500    0.0000 H   0  0  0  0  0  0  0  0  0  0  0  0
    6.3301    4.3700    0.0000 H   0  0  0  0  0  0  0  0  0  0  0  0
    5.7101    3.7500    0.0000 H   0  0  0  0  0  0  0  0  0  0  0  0
    7.3301    2.1300    0.0000 H   0  0  0  0  0  0  0  0  0  0  0  0
    7.9501    2.7500    0.0000 H   0  0  0  0  0  0  0  0  0  0  0  0
    7.3301    3.3700    0.0000 H   0  0  0  0  0  0  0  0  0  0  0  0
    5.3301    3.3700    0.0000 H   0  0  0  0  0  0  0  0  0  0  0  0
    4.7101    2.7500    0.0000 H   0  0  0  0  0  0  0  0  0  0  0  0
    5.3301    2.1300    0.0000 H   0  0  0  0  0  0  0  0  0  0  0  0
  1  5  1  0  0  0  0
  1 13  1  0  0  0  0
  1 14  1  0  0  0  0
  1 15  1  0  0  0  0
  2  6  1  0  0  0  0
  2 16  1  0  0  0  0
  2 17  1  0  0  0  0
  2 18  1  0  0  0  0
  3  7  1  0  0  0  0
  3 19  1  0  0  0  0
  3 20  1  0  0  0  0
  3 21  1  0  0  0  0
  4  8  1  0  0  0  0
  4 22  1  0  0  0  0
  4 23  1  0  0  0  0
  4 24  1  0  0  0  0
  5  9  1  0  0  0  0
  6 10  1  0  0  0  0
  7 11  1  0  0  0  0
  8 12  1  0  0  0  0
  9 10  1  0  0  0  0
  9 11  1  0  0  0  0
  9 25  1  0  0  0  0
 10 12  1  0  0  0  0
 10 26  1  0  0  0  0
 11 27  1  0  0  0  0
 11 28  1  0  0  0  0
 12 29  1  0  0  0  0
 12 30  1  0  0  0  0
 13 31  1  0  0  0  0
 13 32  1  0  0  0  0
 13 33  1  0  0  0  0
 14 34  1  0  0  0  0
 14 35  1  0  0  0  0
 14 36  1  0  0  0  0
 15 37  1  0  0  0  0
 15 38  1  0  0  0  0
 15 39  1  0  0  0  0
 16 40  1  0  0  0  0
 16 41  1  0  0  0  0
 16 42  1  0  0  0  0
 17 43  1  0  0  0  0
 17 44  1  0  0  0  0
 17 45  1  0  0  0  0
 18 46  1  0  0  0  0
 18 47  1  0  0  0  0
 18 48  1  0  0  0  0
 19 49  1  0  0  0  0
 19 50  1  0  0  0  0
 19 51  1  0  0  0  0
 20 52  1  0  0  0  0
 20 53  1  0  0  0  0
 20 54  1  0  0  0  0
 21 55  1  0  0  0  0
 21 56  1  0  0  0  0
 21 57  1  0  0  0  0
 22 58  1  0  0  0  0
 22 59  1  0  0  0  0
 22 60  1  0  0  0  0
 23 61  1  0  0  0  0
 23 62  1  0  0  0  0
 23 63  1  0  0  0  0
 24 64  1  0  0  0  0
 24 65  1  0  0  0  0
 24 66  1  0  0  0  0
M  END
> <PUBCHEM_COMPOUND_CID>
519588
> <PUBCHEM_COMPOUND_CANONICALIZED>
1
> <PUBCHEM_CACTVS_COMPLEXITY>
328
> <PUBCHEM_CACTVS_HBOND_ACCEPTOR>
4
> <PUBCHEM_CACTVS_HBOND_DONOR>
0
> <PUBCHEM_CACTVS_ROTATABLE_BOND>
11
> <PUBCHEM_CACTVS_SUBSKEYS>
AAADcfB4OAwAAAAAAAAAAAAAAAAAAAAAAAAAAAAAAAAAAAAAAAAAGhAAAEAACBSggAJCAAAAAAEAAAAAAAAAAAAAAAAAAAAAAAABAAAAAAAAAAAFAAAAAABAAAAAAAAAAAAAAAAAAAAAAAAAAAAAAAAAAA==
> <PUBCHEM_IUPAC_OPENEYE_NAME>
trimethyl-[2,3,4-tris(trimethylsilyloxy)butoxy]silane
> <PUBCHEM_IUPAC_CAS_NAME>
trimethyl-[1,3,4-tris(trimethylsilyloxy)butan-2-yloxy]silane
> <PUBCHEM_IUPAC_NAME_MARKUP>
trimethyl-[1,3,4-tris(trimethylsilyloxy)butan-2-yloxy]silane
> <PUBCHEM_IUPAC_NAME>
trimethyl-[1,3,4-tris(trimethylsilyloxy)butan-2-yloxy]silane
> <PUBCHEM_IUPAC_SYSTEMATIC_NAME>
trimethyl-[1,3,4-tris(trimethylsilyloxy)butan-2-yloxy]silane
> <PUBCHEM_IUPAC_TRADITIONAL_NAME>
trimethyl-[2,3,4-tris(trimethylsilyloxy)butoxy]silane
> <PUBCHEM_IUPAC_INCHI>
InChI=1S/C16H42O4Si4/c1-21(2,3)17-13-15(19-23(7,8)9)16(20-24(10,11)12)14-18-22(4,5)6/h15-16H,13-14H2,1-12H3
> <PUBCHEM_IUPAC_INCHIKEY>
ZBFVOPVQUXWTHM-UHFFFAOYSA-N
> <PUBCHEM_EXACT_MASS>
410.21601595
> <PUBCHEM_MOLECULAR_FORMULA>
C16H42O4Si4
> <PUBCHEM_MOLECULAR_WEIGHT>
410.8
> <PUBCHEM_OPENEYE_CAN_SMILES>
C[Si](C)(C)OCC(C(CO[Si](C)(C)C)O[Si](C)(C)C)O[Si](C)(C)C
> <PUBCHEM_OPENEYE_ISO_SMILES>
C[Si](C)(C)OCC(C(CO[Si](C)(C)C)O[Si](C)(C)C)O[Si](C)(C)C
> <PUBCHEM_CACTVS_TPSA>
36.9
> <PUBCHEM_MONOISOTOPIC_WEIGHT>
410.21601595
> <PUBCHEM_TOTAL_CHARGE>
0
> <PUBCHEM_HEAVY_ATOM_COUNT>
24
> <PUBCHEM_ATOM_DEF_STEREO_COUNT>
0
> <PUBCHEM_ATOM_UDEF_STEREO_COUNT>
2
> <PUBCHEM_BOND_DEF_STEREO_COUNT>
0
> <PUBCHEM_BOND_UDEF_STEREO_COUNT>
0
> <PUBCHEM_ISOTOPIC_ATOM_COUNT>
0
> <PUBCHEM_COMPONENT_COUNT>
1
> <PUBCHEM_CACTVS_TAUTO_COUNT>
-1
> <PUBCHEM_COORDINATE_TYPE>
1
5
255
> <PUBCHEM_BONDANNOTATIONS>
10  12  3
9  11  3
$$$$
