519539
  -OEChem-10302200292D
 20 20  0     1  0  0  0  0  0999 V2000
    2.8090   -0.2652    0.0000 S   0  0  0  0  0  0  0  0  0  0  0  0
    3.3090    1.2736    0.0000 N   0  0  0  0  0  0  0  0  0  0  0  0
    4.5691    0.0135    0.0000 C   0  0  3  0  0  0  0  0  0  0  0  0
    4.7770   -0.9646    0.0000 C   0  0  0  0  0  0  0  0  0  0  0  0
    5.3122    0.6827    0.0000 C   0  0  0  0  0  0  0  0  0  0  0  0
    3.6180    0.3226    0.0000 C   0  0  0  0  0  0  0  0  0  0  0  0
    5.7281   -1.2736    0.0000 C   0  0  0  0  0  0  0  0  0  0  0  0
    2.0000    0.3226    0.0000 C   0  0  0  0  0  0  0  0  0  0  0  0
    2.3090    1.2736    0.0000 C   0  0  0  0  0  0  0  0  0  0  0  0
    4.3924    0.8450    0.0000 H   0  0  0  0  0  0  0  0  0  0  0  0
    4.1574   -0.9862    0.0000 H   0  0  0  0  0  0  0  0  0  0  0  0
    4.6907   -1.5786    0.0000 H   0  0  0  0  0  0  0  0  0  0  0  0
    5.7271    0.2219    0.0000 H   0  0  0  0  0  0  0  0  0  0  0  0
    5.7730    1.0975    0.0000 H   0  0  0  0  0  0  0  0  0  0  0  0
    4.8974    1.1434    0.0000 H   0  0  0  0  0  0  0  0  0  0  0  0
    5.5365   -1.8633    0.0000 H   0  0  0  0  0  0  0  0  0  0  0  0
    6.3177   -1.4652    0.0000 H   0  0  0  0  0  0  0  0  0  0  0  0
    5.9196   -0.6840    0.0000 H   0  0  0  0  0  0  0  0  0  0  0  0
    1.4103    0.1310    0.0000 H   0  0  0  0  0  0  0  0  0  0  0  0
    1.9446    1.7752    0.0000 H   0  0  0  0  0  0  0  0  0  0  0  0
  1  6  1  0  0  0  0
  1  8  1  0  0  0  0
  2  6  2  0  0  0  0
  2  9  1  0  0  0  0
  3  4  1  0  0  0  0
  3  5  1  0  0  0  0
  3  6  1  0  0  0  0
  3 10  1  0  0  0  0
  4  7  1  0  0  0  0
  4 11  1  0  0  0  0
  4 12  1  0  0  0  0
  5 13  1  0  0  0  0
  5 14  1  0  0  0  0
  5 15  1  0  0  0  0
  7 16  1  0  0  0  0
  7 17  1  0  0  0  0
  7 18  1  0  0  0  0
  8  9  2  0  0  0  0
  8 19  1  0  0  0  0
  9 20  1  0  0  0  0
M  END
> <PUBCHEM_COMPOUND_CID>
519539
> <PUBCHEM_COMPOUND_CANONICALIZED>
1
> <PUBCHEM_CACTVS_COMPLEXITY>
85
> <PUBCHEM_CACTVS_HBOND_ACCEPTOR>
2
> <PUBCHEM_CACTVS_HBOND_DONOR>
0
> <PUBCHEM_CACTVS_ROTATABLE_BOND>
2
> <PUBCHEM_CACTVS_SUBSKEYS>
AAADccBiAABAAAAAAAAAAAAAAAAAAWAAAAAAAAAAAAAAAAABgAAAHAQAAAAADQDFQgSugRIIEAikABAnRAAA8KBRCjhIQAw4IAAAAAAggAAEAAAAAACgAAAAAAAIAAAAAAAAAAAAAAAAAAAAAAAAAAAAAA==
> <PUBCHEM_IUPAC_OPENEYE_NAME>
2-sec-butylthiazole
> <PUBCHEM_IUPAC_CAS_NAME>
2-butan-2-ylthiazole
> <PUBCHEM_IUPAC_NAME_MARKUP>
2-butan-2-yl-1,3-thiazole
> <PUBCHEM_IUPAC_NAME>
2-butan-2-yl-1,3-thiazole
> <PUBCHEM_IUPAC_SYSTEMATIC_NAME>
2-butan-2-yl-1,3-thiazole
> <PUBCHEM_IUPAC_TRADITIONAL_NAME>
2-sec-butylthiazole
> <PUBCHEM_IUPAC_INCHI>
InChI=1S/C7H11NS/c1-3-6(2)7-8-4-5-9-7/h4-6H,3H2,1-2H3
> <PUBCHEM_IUPAC_INCHIKEY>
MHJSWOZJMPIGJQ-UHFFFAOYSA-N
> <PUBCHEM_XLOGP3_AA>
2.5
> <PUBCHEM_EXACT_MASS>
141.06122053
> <PUBCHEM_MOLECULAR_FORMULA>
C7H11NS
> <PUBCHEM_MOLECULAR_WEIGHT>
141.24
> <PUBCHEM_OPENEYE_CAN_SMILES>
CCC(C)C1=NC=CS1
> <PUBCHEM_OPENEYE_ISO_SMILES>
CCC(C)C1=NC=CS1
> <PUBCHEM_CACTVS_TPSA>
41.1
> <PUBCHEM_MONOISOTOPIC_WEIGHT>
141.06122053
> <PUBCHEM_TOTAL_CHARGE>
0
> <PUBCHEM_HEAVY_ATOM_COUNT>
9
> <PUBCHEM_ATOM_DEF_STEREO_COUNT>
0
> <PUBCHEM_ATOM_UDEF_STEREO_COUNT>
1
> <PUBCHEM_BOND_DEF_STEREO_COUNT>
0
> <PUBCHEM_BOND_UDEF_STEREO_COUNT>
0
> <PUBCHEM_ISOTOPIC_ATOM_COUNT>
0
> <PUBCHEM_COMPONENT_COUNT>
1
> <PUBCHEM_CACTVS_TAUTO_COUNT>
2
> <PUBCHEM_COORDINATE_TYPE>
1
5
255
> <PUBCHEM_BONDANNOTATIONS>
1  6  8
1  8  8
2  6  8
2  9  8
3  10  3
8  9  8
$$$$
