519536
  -OEChem-10302200292D
 20 20  0     1  0  0  0  0  0999 V2000
    3.7320    3.2500    0.0000 S   0  0  0  0  0  0  0  0  0  0  0  0
    2.8660   -3.2500    0.0000 F   0  0  0  0  0  0  0  0  0  0  0  0
    3.7320    1.2500    0.0000 N   0  0  0  0  0  0  0  0  0  0  0  0
    2.8660    0.7500    0.0000 C   0  0  3  0  0  0  0  0  0  0  0  0
    2.8660   -0.2500    0.0000 C   0  0  0  0  0  0  0  0  0  0  0  0
    2.0000    1.2500    0.0000 C   0  0  0  0  0  0  0  0  0  0  0  0
    3.7320   -0.7500    0.0000 C   0  0  0  0  0  0  0  0  0  0  0  0
    2.0000   -0.7500    0.0000 C   0  0  0  0  0  0  0  0  0  0  0  0
    3.7320   -1.7500    0.0000 C   0  0  0  0  0  0  0  0  0  0  0  0
    2.0000   -1.7500    0.0000 C   0  0  0  0  0  0  0  0  0  0  0  0
    2.8660   -2.2500    0.0000 C   0  0  0  0  0  0  0  0  0  0  0  0
    3.7320    2.2500    0.0000 C   0  0  0  0  0  0  0  0  0  0  0  0
    2.8660    1.6000    0.0000 H   0  0  0  0  0  0  0  0  0  0  0  0
    2.3100    1.7869    0.0000 H   0  0  0  0  0  0  0  0  0  0  0  0
    1.4631    1.5600    0.0000 H   0  0  0  0  0  0  0  0  0  0  0  0
    1.6900    0.7131    0.0000 H   0  0  0  0  0  0  0  0  0  0  0  0
    4.2690   -0.4400    0.0000 H   0  0  0  0  0  0  0  0  0  0  0  0
    1.4631   -0.4400    0.0000 H   0  0  0  0  0  0  0  0  0  0  0  0
    4.2690   -2.0600    0.0000 H   0  0  0  0  0  0  0  0  0  0  0  0
    1.4631   -2.0600    0.0000 H   0  0  0  0  0  0  0  0  0  0  0  0
  1 12  2  0  0  0  0
  2 11  1  0  0  0  0
  3  4  1  0  0  0  0
  3 12  2  0  0  0  0
  4  5  1  0  0  0  0
  4  6  1  0  0  0  0
  4 13  1  0  0  0  0
  5  7  2  0  0  0  0
  5  8  1  0  0  0  0
  6 14  1  0  0  0  0
  6 15  1  0  0  0  0
  6 16  1  0  0  0  0
  7  9  1  0  0  0  0
  7 17  1  0  0  0  0
  8 10  2  0  0  0  0
  8 18  1  0  0  0  0
  9 11  2  0  0  0  0
  9 19  1  0  0  0  0
 10 11  1  0  0  0  0
 10 20  1  0  0  0  0
M  END
> <PUBCHEM_COMPOUND_CID>
519536
> <PUBCHEM_COMPOUND_CANONICALIZED>
1
> <PUBCHEM_CACTVS_COMPLEXITY>
181
> <PUBCHEM_CACTVS_HBOND_ACCEPTOR>
3
> <PUBCHEM_CACTVS_HBOND_DONOR>
0
> <PUBCHEM_CACTVS_ROTATABLE_BOND>
2
> <PUBCHEM_CACTVS_SUBSKEYS>
AAADccByAQBAAAAAAAAAAAAAAAAAAAAAAAAwAAAAAAAAAAABAAAAHQQAAAAADCjBGAwyAIIAAACkAiBCBACCAAAgAAAIiAAABIgIICKAkRGAIABggAAIiAcQgIAOAAAAAAAAAAAAAAAAAAAAAAAAAAAAAA==
> <PUBCHEM_IUPAC_OPENEYE_NAME>
1-fluoro-4-(1-isothiocyanatoethyl)benzene
> <PUBCHEM_IUPAC_CAS_NAME>
1-fluoro-4-(1-isothiocyanatoethyl)benzene
> <PUBCHEM_IUPAC_NAME_MARKUP>
1-fluoro-4-(1-isothiocyanatoethyl)benzene
> <PUBCHEM_IUPAC_NAME>
1-fluoro-4-(1-isothiocyanatoethyl)benzene
> <PUBCHEM_IUPAC_SYSTEMATIC_NAME>
1-fluoranyl-4-(1-isothiocyanatoethyl)benzene
> <PUBCHEM_IUPAC_TRADITIONAL_NAME>
1-fluoro-4-(1-isothiocyanatoethyl)benzene
> <PUBCHEM_IUPAC_INCHI>
InChI=1S/C9H8FNS/c1-7(11-6-12)8-2-4-9(10)5-3-8/h2-5,7H,1H3
> <PUBCHEM_IUPAC_INCHIKEY>
JXMBAXGHCKMDES-UHFFFAOYSA-N
> <PUBCHEM_XLOGP3>
3.6
> <PUBCHEM_EXACT_MASS>
181.03614860
> <PUBCHEM_MOLECULAR_FORMULA>
C9H8FNS
> <PUBCHEM_MOLECULAR_WEIGHT>
181.23
> <PUBCHEM_OPENEYE_CAN_SMILES>
CC(C1=CC=C(C=C1)F)N=C=S
> <PUBCHEM_OPENEYE_ISO_SMILES>
CC(C1=CC=C(C=C1)F)N=C=S
> <PUBCHEM_CACTVS_TPSA>
44.4
> <PUBCHEM_MONOISOTOPIC_WEIGHT>
181.03614860
> <PUBCHEM_TOTAL_CHARGE>
0
> <PUBCHEM_HEAVY_ATOM_COUNT>
12
> <PUBCHEM_ATOM_DEF_STEREO_COUNT>
0
> <PUBCHEM_ATOM_UDEF_STEREO_COUNT>
1
> <PUBCHEM_BOND_DEF_STEREO_COUNT>
0
> <PUBCHEM_BOND_UDEF_STEREO_COUNT>
0
> <PUBCHEM_ISOTOPIC_ATOM_COUNT>
0
> <PUBCHEM_COMPONENT_COUNT>
1
> <PUBCHEM_CACTVS_TAUTO_COUNT>
1
> <PUBCHEM_COORDINATE_TYPE>
1
5
255
> <PUBCHEM_BONDANNOTATIONS>
10  11  8
4  13  3
5  7  8
5  8  8
7  9  8
8  10  8
9  11  8
$$$$
