519682
  -OEChem-10302200292D
 27 28  0     1  0  0  0  0  0999 V2000
    5.2215    2.5572    0.0000 O   0  0  0  0  0  0  0  0  0  0  0  0
    6.3092    0.6731    0.0000 O   0  0  0  0  0  0  0  0  0  0  0  0
    3.0934    2.1049    0.0000 O   0  0  0  0  0  0  0  0  0  0  0  0
    4.8535   -0.9437    0.0000 O   0  0  0  0  0  0  0  0  0  0  0  0
    3.7320    0.4412    0.0000 N   0  0  0  0  0  0  0  0  0  0  0  0
    4.8147    1.6436    0.0000 C   0  0  3  0  0  0  0  0  0  0  0  0
    5.3147    0.7776    0.0000 C   0  0  3  0  0  0  0  0  0  0  0  0
    3.8366    1.4357    0.0000 C   0  0  0  0  0  0  0  0  0  0  0  0
    4.6456    0.0345    0.0000 C   0  0  0  0  0  0  0  0  0  0  0  0
    2.8660   -0.0588    0.0000 C   0  0  0  0  0  0  0  0  0  0  0  0
    2.8660   -1.0588    0.0000 C   0  0  0  0  0  0  0  0  0  0  0  0
    2.0000   -1.5588    0.0000 C   0  0  0  0  0  0  0  0  0  0  0  0
    3.7320   -1.5588    0.0000 C   0  0  0  0  0  0  0  0  0  0  0  0
    2.0000   -2.5588    0.0000 C   0  0  0  0  0  0  0  0  0  0  0  0
    3.7320   -2.5588    0.0000 C   0  0  0  0  0  0  0  0  0  0  0  0
    2.8660   -3.0588    0.0000 C   0  0  0  0  0  0  0  0  0  0  0  0
    4.4246    2.1255    0.0000 H   0  0  0  0  0  0  0  0  0  0  0  0
    5.5369    0.1988    0.0000 H   0  0  0  0  0  0  0  0  0  0  0  0
    2.6540    0.5238    0.0000 H   0  0  0  0  0  0  0  0  0  0  0  0
    2.2554   -0.1664    0.0000 H   0  0  0  0  0  0  0  0  0  0  0  0
    4.8570    3.0588    0.0000 H   0  0  0  0  0  0  0  0  0  0  0  0
    6.6737    1.1747    0.0000 H   0  0  0  0  0  0  0  0  0  0  0  0
    1.4631   -1.2488    0.0000 H   0  0  0  0  0  0  0  0  0  0  0  0
    4.2690   -1.2488    0.0000 H   0  0  0  0  0  0  0  0  0  0  0  0
    1.4631   -2.8688    0.0000 H   0  0  0  0  0  0  0  0  0  0  0  0
    4.2690   -2.8688    0.0000 H   0  0  0  0  0  0  0  0  0  0  0  0
    2.8660   -3.6788    0.0000 H   0  0  0  0  0  0  0  0  0  0  0  0
  1  6  1  0  0  0  0
  1 21  1  0  0  0  0
  2  7  1  0  0  0  0
  2 22  1  0  0  0  0
  3  8  2  0  0  0  0
  4  9  2  0  0  0  0
  5  8  1  0  0  0  0
  5  9  1  0  0  0  0
  5 10  1  0  0  0  0
  6  7  1  0  0  0  0
  6  8  1  0  0  0  0
  6 17  1  0  0  0  0
  7  9  1  0  0  0  0
  7 18  1  0  0  0  0
 10 11  1  0  0  0  0
 10 19  1  0  0  0  0
 10 20  1  0  0  0  0
 11 12  2  0  0  0  0
 11 13  1  0  0  0  0
 12 14  1  0  0  0  0
 12 23  1  0  0  0  0
 13 15  2  0  0  0  0
 13 24  1  0  0  0  0
 14 16  2  0  0  0  0
 14 25  1  0  0  0  0
 15 16  1  0  0  0  0
 15 26  1  0  0  0  0
 16 27  1  0  0  0  0
M  END
> <PUBCHEM_COMPOUND_CID>
519682
> <PUBCHEM_COMPOUND_CANONICALIZED>
1
> <PUBCHEM_CACTVS_COMPLEXITY>
278
> <PUBCHEM_CACTVS_HBOND_ACCEPTOR>
4
> <PUBCHEM_CACTVS_HBOND_DONOR>
2
> <PUBCHEM_CACTVS_ROTATABLE_BOND>
2
> <PUBCHEM_CACTVS_SUBSKEYS>
AAADccByOAAAAAAAAAAAAAAAAAAAAWAAAAAwAAAAAAAAAAABAAAAHgAACAAADBThmAYwAIMAAgCIAiFSEAKCAAAgAAAIiAFIBIgLMDaAkRGEYAhipiCZiAcVgAAOAAAAAAAAAAAAAAAAAAAAAAAAAAAAAA==
> <PUBCHEM_IUPAC_OPENEYE_NAME>
1-benzyl-3,4-dihydroxy-pyrrolidine-2,5-dione
> <PUBCHEM_IUPAC_CAS_NAME>
3,4-dihydroxy-1-(phenylmethyl)pyrrolidine-2,5-dione
> <PUBCHEM_IUPAC_NAME_MARKUP>
1-benzyl-3,4-dihydroxypyrrolidine-2,5-dione
> <PUBCHEM_IUPAC_NAME>
1-benzyl-3,4-dihydroxypyrrolidine-2,5-dione
> <PUBCHEM_IUPAC_SYSTEMATIC_NAME>
3,4-bis(oxidanyl)-1-(phenylmethyl)pyrrolidine-2,5-dione
> <PUBCHEM_IUPAC_TRADITIONAL_NAME>
1-benzyl-3,4-dihydroxy-pyrrolidine-2,5-quinone
> <PUBCHEM_IUPAC_INCHI>
InChI=1S/C11H11NO4/c13-8-9(14)11(16)12(10(8)15)6-7-4-2-1-3-5-7/h1-5,8-9,13-14H,6H2
> <PUBCHEM_IUPAC_INCHIKEY>
IZBMPGFJNIDMRR-UHFFFAOYSA-N
> <PUBCHEM_XLOGP3_AA>
-0.5
> <PUBCHEM_EXACT_MASS>
221.06880783
> <PUBCHEM_MOLECULAR_FORMULA>
C11H11NO4
> <PUBCHEM_MOLECULAR_WEIGHT>
221.21
> <PUBCHEM_OPENEYE_CAN_SMILES>
C1=CC=C(C=C1)CN2C(=O)C(C(C2=O)O)O
> <PUBCHEM_OPENEYE_ISO_SMILES>
C1=CC=C(C=C1)CN2C(=O)C(C(C2=O)O)O
> <PUBCHEM_CACTVS_TPSA>
77.8
> <PUBCHEM_MONOISOTOPIC_WEIGHT>
221.06880783
> <PUBCHEM_TOTAL_CHARGE>
0
> <PUBCHEM_HEAVY_ATOM_COUNT>
16
> <PUBCHEM_ATOM_DEF_STEREO_COUNT>
0
> <PUBCHEM_ATOM_UDEF_STEREO_COUNT>
2
> <PUBCHEM_BOND_DEF_STEREO_COUNT>
0
> <PUBCHEM_BOND_UDEF_STEREO_COUNT>
0
> <PUBCHEM_ISOTOPIC_ATOM_COUNT>
0
> <PUBCHEM_COMPONENT_COUNT>
1
> <PUBCHEM_CACTVS_TAUTO_COUNT>
-1
> <PUBCHEM_COORDINATE_TYPE>
1
5
255
> <PUBCHEM_BONDANNOTATIONS>
6  1  3
11  12  8
11  13  8
12  14  8
13  15  8
14  16  8
15  16  8
7  2  3
$$$$
