519670
  -OEChem-10302200292D
 27 26  0     1  0  0  0  0  0999 V2000
    5.4641   -0.5670    0.0000 O   0  0  0  0  0  0  0  0  0  0  0  0
    3.7320   -0.5670    0.0000 C   0  0  0  0  0  0  0  0  0  0  0  0
    4.5981   -0.0670    0.0000 C   0  0  3  0  0  0  0  0  0  0  0  0
    2.8660   -1.0670    0.0000 C   0  0  0  0  0  0  0  0  0  0  0  0
    3.2320    0.2990    0.0000 C   0  0  0  0  0  0  0  0  0  0  0  0
    4.2320   -1.4330    0.0000 C   0  0  0  0  0  0  0  0  0  0  0  0
    4.5981    0.9330    0.0000 C   0  0  0  0  0  0  0  0  0  0  0  0
    2.0000   -0.5670    0.0000 C   0  0  0  0  0  0  0  0  0  0  0  0
    5.4641    1.4330    0.0000 C   0  0  0  0  0  0  0  0  0  0  0  0
    4.5981   -0.6870    0.0000 H   0  0  0  0  0  0  0  0  0  0  0  0
    2.4675   -1.5419    0.0000 H   0  0  0  0  0  0  0  0  0  0  0  0
    3.2646   -1.5419    0.0000 H   0  0  0  0  0  0  0  0  0  0  0  0
    3.7690    0.6090    0.0000 H   0  0  0  0  0  0  0  0  0  0  0  0
    2.9220    0.8360    0.0000 H   0  0  0  0  0  0  0  0  0  0  0  0
    2.6951   -0.0110    0.0000 H   0  0  0  0  0  0  0  0  0  0  0  0
    3.6951   -1.7430    0.0000 H   0  0  0  0  0  0  0  0  0  0  0  0
    4.5420   -1.9700    0.0000 H   0  0  0  0  0  0  0  0  0  0  0  0
    4.7690   -1.1230    0.0000 H   0  0  0  0  0  0  0  0  0  0  0  0
    4.3860    1.5156    0.0000 H   0  0  0  0  0  0  0  0  0  0  0  0
    3.9875    0.8254    0.0000 H   0  0  0  0  0  0  0  0  0  0  0  0
    2.3100   -0.0301    0.0000 H   0  0  0  0  0  0  0  0  0  0  0  0
    1.4631   -0.2570    0.0000 H   0  0  0  0  0  0  0  0  0  0  0  0
    1.6900   -1.1039    0.0000 H   0  0  0  0  0  0  0  0  0  0  0  0
    5.7741    0.8961    0.0000 H   0  0  0  0  0  0  0  0  0  0  0  0
    6.0010    1.7430    0.0000 H   0  0  0  0  0  0  0  0  0  0  0  0
    5.1541    1.9700    0.0000 H   0  0  0  0  0  0  0  0  0  0  0  0
    6.0010   -0.2570    0.0000 H   0  0  0  0  0  0  0  0  0  0  0  0
  1  3  1  0  0  0  0
  1 27  1  0  0  0  0
  2  3  1  0  0  0  0
  2  4  1  0  0  0  0
  2  5  1  0  0  0  0
  2  6  1  0  0  0  0
  3  7  1  0  0  0  0
  3 10  1  0  0  0  0
  4  8  1  0  0  0  0
  4 11  1  0  0  0  0
  4 12  1  0  0  0  0
  5 13  1  0  0  0  0
  5 14  1  0  0  0  0
  5 15  1  0  0  0  0
  6 16  1  0  0  0  0
  6 17  1  0  0  0  0
  6 18  1  0  0  0  0
  7  9  1  0  0  0  0
  7 19  1  0  0  0  0
  7 20  1  0  0  0  0
  8 21  1  0  0  0  0
  8 22  1  0  0  0  0
  8 23  1  0  0  0  0
  9 24  1  0  0  0  0
  9 25  1  0  0  0  0
  9 26  1  0  0  0  0
M  END
> <PUBCHEM_COMPOUND_CID>
519670
> <PUBCHEM_COMPOUND_CANONICALIZED>
1
> <PUBCHEM_CACTVS_COMPLEXITY>
76.6
> <PUBCHEM_CACTVS_HBOND_ACCEPTOR>
1
> <PUBCHEM_CACTVS_HBOND_DONOR>
1
> <PUBCHEM_CACTVS_ROTATABLE_BOND>
3
> <PUBCHEM_CACTVS_SUBSKEYS>
AAADceBwIAAAAAAAAAAAAAAAAAAAAAAAAAAAAAAAAAAAAAAAAAAAGgAACAAADhSggAICAAAAAgAAAAAAAAAAAAAAAAAAAAAAAAAAEAIAAAAAQAAEAAAAAAEAAAAPAAAAAAAAAAAAAAAAAAAAAAAAAAAAAA==
> <PUBCHEM_IUPAC_OPENEYE_NAME>
4,4-dimethylhexan-3-ol
> <PUBCHEM_IUPAC_CAS_NAME>
4,4-dimethyl-3-hexanol
> <PUBCHEM_IUPAC_NAME_MARKUP>
4,4-dimethylhexan-3-ol
> <PUBCHEM_IUPAC_NAME>
4,4-dimethylhexan-3-ol
> <PUBCHEM_IUPAC_SYSTEMATIC_NAME>
4,4-dimethylhexan-3-ol
> <PUBCHEM_IUPAC_TRADITIONAL_NAME>
4,4-dimethylhexan-3-ol
> <PUBCHEM_IUPAC_INCHI>
InChI=1S/C8H18O/c1-5-7(9)8(3,4)6-2/h7,9H,5-6H2,1-4H3
> <PUBCHEM_IUPAC_INCHIKEY>
BARKHVPKOOSMNW-UHFFFAOYSA-N
> <PUBCHEM_XLOGP3_AA>
2.6
> <PUBCHEM_EXACT_MASS>
130.135765193
> <PUBCHEM_MOLECULAR_FORMULA>
C8H18O
> <PUBCHEM_MOLECULAR_WEIGHT>
130.23
> <PUBCHEM_OPENEYE_CAN_SMILES>
CCC(C(C)(C)CC)O
> <PUBCHEM_OPENEYE_ISO_SMILES>
CCC(C(C)(C)CC)O
> <PUBCHEM_CACTVS_TPSA>
20.2
> <PUBCHEM_MONOISOTOPIC_WEIGHT>
130.135765193
> <PUBCHEM_TOTAL_CHARGE>
0
> <PUBCHEM_HEAVY_ATOM_COUNT>
9
> <PUBCHEM_ATOM_DEF_STEREO_COUNT>
0
> <PUBCHEM_ATOM_UDEF_STEREO_COUNT>
1
> <PUBCHEM_BOND_DEF_STEREO_COUNT>
0
> <PUBCHEM_BOND_UDEF_STEREO_COUNT>
0
> <PUBCHEM_ISOTOPIC_ATOM_COUNT>
0
> <PUBCHEM_COMPONENT_COUNT>
1
> <PUBCHEM_CACTVS_TAUTO_COUNT>
-1
> <PUBCHEM_COORDINATE_TYPE>
1
5
255
> <PUBCHEM_BONDANNOTATIONS>
3  1  3
$$$$
