519625
  -OEChem-10302200292D
 24 23  0     1  0  0  0  0  0999 V2000
    4.9641    0.5490    0.0000 O   0  0  0  0  0  0  0  0  0  0  0  0
    7.1962   -0.3170    0.0000 O   0  0  0  0  0  0  0  0  0  0  0  0
    2.8660   -0.8170    0.0000 O   0  0  0  0  0  0  0  0  0  0  0  0
    6.3301    1.1830    0.0000 O   0  0  0  0  0  0  0  0  0  0  0  0
    3.7320    0.6830    0.0000 O   0  0  0  0  0  0  0  0  0  0  0  0
    5.4641   -0.3170    0.0000 C   0  0  3  0  0  0  0  0  0  0  0  0
    4.5981   -0.8170    0.0000 C   0  0  0  0  0  0  0  0  0  0  0  0
    5.9641   -1.1830    0.0000 C   0  0  0  0  0  0  0  0  0  0  0  0
    6.3301    0.1830    0.0000 C   0  0  0  0  0  0  0  0  0  0  0  0
    3.7320   -0.3170    0.0000 C   0  0  0  0  0  0  0  0  0  0  0  0
    8.0622    0.1830    0.0000 C   0  0  0  0  0  0  0  0  0  0  0  0
    2.0000   -0.3170    0.0000 C   0  0  0  0  0  0  0  0  0  0  0  0
    4.1996   -1.2919    0.0000 H   0  0  0  0  0  0  0  0  0  0  0  0
    4.9966   -1.2919    0.0000 H   0  0  0  0  0  0  0  0  0  0  0  0
    5.4272   -1.4930    0.0000 H   0  0  0  0  0  0  0  0  0  0  0  0
    6.2741   -1.7200    0.0000 H   0  0  0  0  0  0  0  0  0  0  0  0
    6.5010   -0.8730    0.0000 H   0  0  0  0  0  0  0  0  0  0  0  0
    4.3441    0.5490    0.0000 H   0  0  0  0  0  0  0  0  0  0  0  0
    8.3722   -0.3539    0.0000 H   0  0  0  0  0  0  0  0  0  0  0  0
    8.5991    0.4930    0.0000 H   0  0  0  0  0  0  0  0  0  0  0  0
    7.7522    0.7199    0.0000 H   0  0  0  0  0  0  0  0  0  0  0  0
    2.3100    0.2199    0.0000 H   0  0  0  0  0  0  0  0  0  0  0  0
    1.4631   -0.0070    0.0000 H   0  0  0  0  0  0  0  0  0  0  0  0
    1.6900   -0.8539    0.0000 H   0  0  0  0  0  0  0  0  0  0  0  0
  1  6  1  0  0  0  0
  1 18  1  0  0  0  0
  2  9  1  0  0  0  0
  2 11  1  0  0  0  0
  3 10  1  0  0  0  0
  3 12  1  0  0  0  0
  4  9  2  0  0  0  0
  5 10  2  0  0  0  0
  6  7  1  0  0  0  0
  6  8  1  0  0  0  0
  6  9  1  0  0  0  0
  7 10  1  0  0  0  0
  7 13  1  0  0  0  0
  7 14  1  0  0  0  0
  8 15  1  0  0  0  0
  8 16  1  0  0  0  0
  8 17  1  0  0  0  0
 11 19  1  0  0  0  0
 11 20  1  0  0  0  0
 11 21  1  0  0  0  0
 12 22  1  0  0  0  0
 12 23  1  0  0  0  0
 12 24  1  0  0  0  0
M  END
> <PUBCHEM_COMPOUND_CID>
519625
> <PUBCHEM_COMPOUND_CANONICALIZED>
1
> <PUBCHEM_CACTVS_COMPLEXITY>
188
> <PUBCHEM_CACTVS_HBOND_ACCEPTOR>
5
> <PUBCHEM_CACTVS_HBOND_DONOR>
1
> <PUBCHEM_CACTVS_ROTATABLE_BOND>
5
> <PUBCHEM_CACTVS_SUBSKEYS>
AAADccBgOAAAAAAAAAAAAAAAAAAAAAAAAAAAAAAAAAAAAAAAAAAAGgAACAAADESAgAICCAAABgAIAACQCAIAAAAAAAAAAAFAAAABABQAAAAAQAAFIAADAABDAAAIAAAAAAAAAAAAAAAAAAAAAAAAAAAAAA==
> <PUBCHEM_IUPAC_OPENEYE_NAME>
dimethyl 2-hydroxy-2-methyl-butanedioate
> <PUBCHEM_IUPAC_CAS_NAME>
2-hydroxy-2-methylbutanedioic acid dimethyl ester
> <PUBCHEM_IUPAC_NAME_MARKUP>
dimethyl 2-hydroxy-2-methylbutanedioate
> <PUBCHEM_IUPAC_NAME>
dimethyl 2-hydroxy-2-methylbutanedioate
> <PUBCHEM_IUPAC_SYSTEMATIC_NAME>
dimethyl 2-methyl-2-oxidanyl-butanedioate
> <PUBCHEM_IUPAC_TRADITIONAL_NAME>
2-hydroxy-2-methyl-succinic acid dimethyl ester
> <PUBCHEM_IUPAC_INCHI>
InChI=1S/C7H12O5/c1-7(10,6(9)12-3)4-5(8)11-2/h10H,4H2,1-3H3
> <PUBCHEM_IUPAC_INCHIKEY>
GMSSNUSBKDUVFC-UHFFFAOYSA-N
> <PUBCHEM_XLOGP3_AA>
-0.5
> <PUBCHEM_EXACT_MASS>
176.06847348
> <PUBCHEM_MOLECULAR_FORMULA>
C7H12O5
> <PUBCHEM_MOLECULAR_WEIGHT>
176.17
> <PUBCHEM_OPENEYE_CAN_SMILES>
CC(CC(=O)OC)(C(=O)OC)O
> <PUBCHEM_OPENEYE_ISO_SMILES>
CC(CC(=O)OC)(C(=O)OC)O
> <PUBCHEM_CACTVS_TPSA>
72.8
> <PUBCHEM_MONOISOTOPIC_WEIGHT>
176.06847348
> <PUBCHEM_TOTAL_CHARGE>
0
> <PUBCHEM_HEAVY_ATOM_COUNT>
12
> <PUBCHEM_ATOM_DEF_STEREO_COUNT>
0
> <PUBCHEM_ATOM_UDEF_STEREO_COUNT>
1
> <PUBCHEM_BOND_DEF_STEREO_COUNT>
0
> <PUBCHEM_BOND_UDEF_STEREO_COUNT>
0
> <PUBCHEM_ISOTOPIC_ATOM_COUNT>
0
> <PUBCHEM_COMPONENT_COUNT>
1
> <PUBCHEM_CACTVS_TAUTO_COUNT>
-1
> <PUBCHEM_COORDINATE_TYPE>
1
5
255
> <PUBCHEM_BONDANNOTATIONS>
6  1  3
$$$$
