519674
  -OEChem-10302200292D
 27 29  0     1  0  0  0  0  0999 V2000
    4.6783   -0.5234    0.0000 C   0  0  3  0  0  0  0  0  0  0  0  0
    3.7320   -0.8281    0.0000 C   0  0  0  0  0  0  0  0  0  0  0  0
    3.7320   -1.8282    0.0000 C   0  0  0  0  0  0  0  0  0  0  0  0
    4.9889    0.4271    0.0000 C   0  0  0  0  0  0  0  0  0  0  0  0
    5.2619   -1.3282    0.0000 C   0  0  0  0  0  0  0  0  0  0  0  0
    4.6783   -2.1329    0.0000 C   0  0  0  0  0  0  0  0  0  0  0  0
    2.8660   -0.3281    0.0000 C   0  0  0  0  0  0  0  0  0  0  0  0
    2.8660   -2.3282    0.0000 C   0  0  0  0  0  0  0  0  0  0  0  0
    5.9674    0.6333    0.0000 C   0  0  0  0  0  0  0  0  0  0  0  0
    4.3211    1.1714    0.0000 C   0  0  0  0  0  0  0  0  0  0  0  0
    2.0000   -0.8281    0.0000 C   0  0  0  0  0  0  0  0  0  0  0  0
    2.0000   -1.8282    0.0000 C   0  0  0  0  0  0  0  0  0  0  0  0
    6.2781    1.5838    0.0000 C   0  0  0  0  0  0  0  0  0  0  0  0
    4.6318    2.1219    0.0000 C   0  0  0  0  0  0  0  0  0  0  0  0
    5.6103    2.3282    0.0000 C   0  0  0  0  0  0  0  0  0  0  0  0
    5.2908   -0.4272    0.0000 H   0  0  0  0  0  0  0  0  0  0  0  0
    5.8819   -1.3282    0.0000 H   0  0  0  0  0  0  0  0  0  0  0  0
    4.8709   -2.7222    0.0000 H   0  0  0  0  0  0  0  0  0  0  0  0
    2.8660    0.2919    0.0000 H   0  0  0  0  0  0  0  0  0  0  0  0
    2.8660   -2.9482    0.0000 H   0  0  0  0  0  0  0  0  0  0  0  0
    6.3815    0.1719    0.0000 H   0  0  0  0  0  0  0  0  0  0  0  0
    3.7144    1.0436    0.0000 H   0  0  0  0  0  0  0  0  0  0  0  0
    1.4631   -0.5181    0.0000 H   0  0  0  0  0  0  0  0  0  0  0  0
    1.4631   -2.1382    0.0000 H   0  0  0  0  0  0  0  0  0  0  0  0
    6.8848    1.7117    0.0000 H   0  0  0  0  0  0  0  0  0  0  0  0
    4.2177    2.5834    0.0000 H   0  0  0  0  0  0  0  0  0  0  0  0
    5.8029    2.9175    0.0000 H   0  0  0  0  0  0  0  0  0  0  0  0
  1  2  1  0  0  0  0
  1  4  1  0  0  0  0
  1  5  1  0  0  0  0
  1 16  1  0  0  0  0
  2  3  1  0  0  0  0
  2  7  2  0  0  0  0
  3  6  1  0  0  0  0
  3  8  2  0  0  0  0
  4  9  2  0  0  0  0
  4 10  1  0  0  0  0
  5  6  2  0  0  0  0
  5 17  1  0  0  0  0
  6 18  1  0  0  0  0
  7 11  1  0  0  0  0
  7 19  1  0  0  0  0
  8 12  1  0  0  0  0
  8 20  1  0  0  0  0
  9 13  1  0  0  0  0
  9 21  1  0  0  0  0
 10 14  2  0  0  0  0
 10 22  1  0  0  0  0
 11 12  2  0  0  0  0
 11 23  1  0  0  0  0
 12 24  1  0  0  0  0
 13 15  2  0  0  0  0
 13 25  1  0  0  0  0
 14 15  1  0  0  0  0
 14 26  1  0  0  0  0
 15 27  1  0  0  0  0
M  END
> <PUBCHEM_COMPOUND_CID>
519674
> <PUBCHEM_COMPOUND_CANONICALIZED>
1
> <PUBCHEM_CACTVS_COMPLEXITY>
234
> <PUBCHEM_CACTVS_HBOND_ACCEPTOR>
0
> <PUBCHEM_CACTVS_HBOND_DONOR>
0
> <PUBCHEM_CACTVS_ROTATABLE_BOND>
1
> <PUBCHEM_CACTVS_SUBSKEYS>
AAADccBwAAAAAAAAAAAAAAAAAAAAAQAAAAAwYAAAAAAAAEABQAAAGAAAAAAADQCAGAAwAIAAAACAAiBCAAACAAAgAAAIiAAAAIgIICKAERCAIAAggAAIiAcAgMAOgAAAAAAQAAAAAAAAACAAAAAAAAAAAA==
> <PUBCHEM_IUPAC_OPENEYE_NAME>
1-phenyl-1H-indene
> <PUBCHEM_IUPAC_CAS_NAME>
1-phenyl-1H-indene
> <PUBCHEM_IUPAC_NAME_MARKUP>
1-phenyl-1<I>H</I>-indene
> <PUBCHEM_IUPAC_NAME>
1-phenyl-1H-indene
> <PUBCHEM_IUPAC_SYSTEMATIC_NAME>
1-phenyl-1H-indene
> <PUBCHEM_IUPAC_TRADITIONAL_NAME>
1-phenyl-1H-indene
> <PUBCHEM_IUPAC_INCHI>
InChI=1S/C15H12/c1-2-6-12(7-3-1)15-11-10-13-8-4-5-9-14(13)15/h1-11,15H
> <PUBCHEM_IUPAC_INCHIKEY>
PXORBAGTGTXORO-UHFFFAOYSA-N
> <PUBCHEM_XLOGP3_AA>
4.2
> <PUBCHEM_EXACT_MASS>
192.093900383
> <PUBCHEM_MOLECULAR_FORMULA>
C15H12
> <PUBCHEM_MOLECULAR_WEIGHT>
192.25
> <PUBCHEM_OPENEYE_CAN_SMILES>
C1=CC=C(C=C1)C2C=CC3=CC=CC=C23
> <PUBCHEM_OPENEYE_ISO_SMILES>
C1=CC=C(C=C1)C2C=CC3=CC=CC=C23
> <PUBCHEM_CACTVS_TPSA>
0
> <PUBCHEM_MONOISOTOPIC_WEIGHT>
192.093900383
> <PUBCHEM_TOTAL_CHARGE>
0
> <PUBCHEM_HEAVY_ATOM_COUNT>
15
> <PUBCHEM_ATOM_DEF_STEREO_COUNT>
0
> <PUBCHEM_ATOM_UDEF_STEREO_COUNT>
1
> <PUBCHEM_BOND_DEF_STEREO_COUNT>
0
> <PUBCHEM_BOND_UDEF_STEREO_COUNT>
0
> <PUBCHEM_ISOTOPIC_ATOM_COUNT>
0
> <PUBCHEM_COMPONENT_COUNT>
1
> <PUBCHEM_CACTVS_TAUTO_COUNT>
1
> <PUBCHEM_COORDINATE_TYPE>
1
5
255
> <PUBCHEM_BONDANNOTATIONS>
1  4  3
10  14  8
11  12  8
13  15  8
14  15  8
2  3  8
2  7  8
3  8  8
4  10  8
4  9  8
7  11  8
8  12  8
9  13  8
$$$$
