519781
  -OEChem-10302200292D
 32 34  0     1  0  0  0  0  0999 V2000
    3.8000   -1.2673    0.0000 C   0  0  3  0  0  0  0  0  0  0  0  0
    3.8000   -0.2673    0.0000 C   0  0  3  0  0  0  0  0  0  0  0  0
    2.9061   -1.8020    0.0000 C   0  0  0  0  0  0  0  0  0  0  0  0
    2.9061    0.2674    0.0000 C   0  0  0  0  0  0  0  0  0  0  0  0
    4.6660   -1.7673    0.0000 C   0  0  0  0  0  0  0  0  0  0  0  0
    2.0000   -1.2881    0.0000 C   0  0  0  0  0  0  0  0  0  0  0  0
    2.0000   -0.2465    0.0000 C   0  0  0  0  0  0  0  0  0  0  0  0
    4.6660    0.2327    0.0000 C   0  0  0  0  0  0  0  0  0  0  0  0
    5.5321   -1.2673    0.0000 C   0  0  0  0  0  0  0  0  0  0  0  0
    5.5321   -0.2673    0.0000 C   0  0  0  0  0  0  0  0  0  0  0  0
    4.6500    1.2742    0.0000 C   0  0  0  0  0  0  0  0  0  0  0  0
    6.4421    0.2395    0.0000 C   0  0  0  0  0  0  0  0  0  0  0  0
    5.5480    1.8020    0.0000 C   0  0  0  0  0  0  0  0  0  0  0  0
    6.4501    1.2812    0.0000 C   0  0  0  0  0  0  0  0  0  0  0  0
    3.8048   -1.8873    0.0000 H   0  0  0  0  0  0  0  0  0  0  0  0
    3.8048    0.3527    0.0000 H   0  0  0  0  0  0  0  0  0  0  0  0
    2.5124   -2.2810    0.0000 H   0  0  0  0  0  0  0  0  0  0  0  0
    3.3107   -2.2718    0.0000 H   0  0  0  0  0  0  0  0  0  0  0  0
    3.3107    0.7371    0.0000 H   0  0  0  0  0  0  0  0  0  0  0  0
    2.5124    0.7464    0.0000 H   0  0  0  0  0  0  0  0  0  0  0  0
    4.2675   -2.2422    0.0000 H   0  0  0  0  0  0  0  0  0  0  0  0
    5.0646   -2.2422    0.0000 H   0  0  0  0  0  0  0  0  0  0  0  0
    1.3891   -1.1820    0.0000 H   0  0  0  0  0  0  0  0  0  0  0  0
    1.7909   -1.8718    0.0000 H   0  0  0  0  0  0  0  0  0  0  0  0
    1.7909    0.3372    0.0000 H   0  0  0  0  0  0  0  0  0  0  0  0
    1.3891   -0.3526    0.0000 H   0  0  0  0  0  0  0  0  0  0  0  0
    5.7441   -1.8499    0.0000 H   0  0  0  0  0  0  0  0  0  0  0  0
    6.1426   -1.1596    0.0000 H   0  0  0  0  0  0  0  0  0  0  0  0
    4.1095    1.5780    0.0000 H   0  0  0  0  0  0  0  0  0  0  0  0
    6.9754   -0.0766    0.0000 H   0  0  0  0  0  0  0  0  0  0  0  0
    5.5456    2.4220    0.0000 H   0  0  0  0  0  0  0  0  0  0  0  0
    6.9882    1.5891    0.0000 H   0  0  0  0  0  0  0  0  0  0  0  0
  1  2  1  0  0  0  0
  1  3  1  0  0  0  0
  1  5  1  0  0  0  0
  1 15  1  0  0  0  0
  2  4  1  0  0  0  0
  2  8  1  0  0  0  0
  2 16  1  0  0  0  0
  3  6  1  0  0  0  0
  3 17  1  0  0  0  0
  3 18  1  0  0  0  0
  4  7  1  0  0  0  0
  4 19  1  0  0  0  0
  4 20  1  0  0  0  0
  5  9  1  0  0  0  0
  5 21  1  0  0  0  0
  5 22  1  0  0  0  0
  6  7  1  0  0  0  0
  6 23  1  0  0  0  0
  6 24  1  0  0  0  0
  7 25  1  0  0  0  0
  7 26  1  0  0  0  0
  8 10  1  0  0  0  0
  8 11  2  0  0  0  0
  9 10  1  0  0  0  0
  9 27  1  0  0  0  0
  9 28  1  0  0  0  0
 10 12  2  0  0  0  0
 11 13  1  0  0  0  0
 11 29  1  0  0  0  0
 12 14  1  0  0  0  0
 12 30  1  0  0  0  0
 13 14  2  0  0  0  0
 13 31  1  0  0  0  0
 14 32  1  0  0  0  0
M  END
> <PUBCHEM_COMPOUND_CID>
519781
> <PUBCHEM_COMPOUND_CANONICALIZED>
1
> <PUBCHEM_CACTVS_COMPLEXITY>
196
> <PUBCHEM_CACTVS_HBOND_ACCEPTOR>
0
> <PUBCHEM_CACTVS_HBOND_DONOR>
0
> <PUBCHEM_CACTVS_ROTATABLE_BOND>
0
> <PUBCHEM_CACTVS_SUBSKEYS>
AAADceBwAAAAAAAAAAAAAAAAAAAAAAAAAAAwYMAAAAAAAADBAAAAGAAAAAAADQCAGAAwAIAAAACAAiBCAAACAAAgAAAIiAAAAIgIICKAERCAIAAggAAIiAcAgMAOgAAAAAAQAACAAAQAACAAAAAAAAAAAA==
> <PUBCHEM_IUPAC_OPENEYE_NAME>
1,2,3,4,4a,9,10,10a-octahydrophenanthrene
> <PUBCHEM_IUPAC_CAS_NAME>
1,2,3,4,4a,9,10,10a-octahydrophenanthrene
> <PUBCHEM_IUPAC_NAME_MARKUP>
1,2,3,4,4<I>a</I>,9,10,10<I>a</I>-octahydrophenanthrene
> <PUBCHEM_IUPAC_NAME>
1,2,3,4,4a,9,10,10a-octahydrophenanthrene
> <PUBCHEM_IUPAC_SYSTEMATIC_NAME>
1,2,3,4,4a,9,10,10a-octahydrophenanthrene
> <PUBCHEM_IUPAC_TRADITIONAL_NAME>
1,2,3,4,4a,9,10,10a-octahydrophenanthrene
> <PUBCHEM_IUPAC_INCHI>
InChI=1S/C14H18/c1-3-7-13-11(5-1)9-10-12-6-2-4-8-14(12)13/h1,3,5,7,12,14H,2,4,6,8-10H2
> <PUBCHEM_IUPAC_INCHIKEY>
KFGROPZLGDSAPK-UHFFFAOYSA-N
> <PUBCHEM_XLOGP3_AA>
4.7
> <PUBCHEM_EXACT_MASS>
186.140850574
> <PUBCHEM_MOLECULAR_FORMULA>
C14H18
> <PUBCHEM_MOLECULAR_WEIGHT>
186.29
> <PUBCHEM_OPENEYE_CAN_SMILES>
C1CCC2C(C1)CCC3=CC=CC=C23
> <PUBCHEM_OPENEYE_ISO_SMILES>
C1CCC2C(C1)CCC3=CC=CC=C23
> <PUBCHEM_CACTVS_TPSA>
0
> <PUBCHEM_MONOISOTOPIC_WEIGHT>
186.140850574
> <PUBCHEM_TOTAL_CHARGE>
0
> <PUBCHEM_HEAVY_ATOM_COUNT>
14
> <PUBCHEM_ATOM_DEF_STEREO_COUNT>
0
> <PUBCHEM_ATOM_UDEF_STEREO_COUNT>
2
> <PUBCHEM_BOND_DEF_STEREO_COUNT>
0
> <PUBCHEM_BOND_UDEF_STEREO_COUNT>
0
> <PUBCHEM_ISOTOPIC_ATOM_COUNT>
0
> <PUBCHEM_COMPONENT_COUNT>
1
> <PUBCHEM_CACTVS_TAUTO_COUNT>
1
> <PUBCHEM_COORDINATE_TYPE>
1
5
255
> <PUBCHEM_BONDANNOTATIONS>
1  3  3
10  12  8
11  13  8
12  14  8
13  14  8
2  4  3
8  10  8
8  11  8
$$$$
