519762
  -OEChem-10302200292D
 38 38  0     1  0  0  0  0  0999 V2000
    6.3301   -0.7500    0.0000 O   0  0  0  0  0  0  0  0  0  0  0  0
    4.5981    1.2500    0.0000 C   0  0  3  0  0  0  0  0  0  0  0  0
    3.7320    0.7500    0.0000 C   0  0  3  0  0  0  0  0  0  0  0  0
    5.4641    0.7500    0.0000 C   0  0  0  0  0  0  0  0  0  0  0  0
    3.7320   -0.2500    0.0000 C   0  0  0  0  0  0  0  0  0  0  0  0
    4.5981   -0.7500    0.0000 C   0  0  0  0  0  0  0  0  0  0  0  0
    4.0981    2.1160    0.0000 C   0  0  0  0  0  0  0  0  0  0  0  0
    5.4641   -0.2500    0.0000 C   0  0  0  0  0  0  0  0  0  0  0  0
    2.8660    1.2500    0.0000 C   0  0  0  0  0  0  0  0  0  0  0  0
    5.0981    2.1160    0.0000 C   0  0  0  0  0  0  0  0  0  0  0  0
    4.5981   -1.7500    0.0000 C   0  0  0  0  0  0  0  0  0  0  0  0
    2.0000    0.7500    0.0000 C   0  0  0  0  0  0  0  0  0  0  0  0
    2.8660    2.2500    0.0000 C   0  0  0  0  0  0  0  0  0  0  0  0
    6.0981    2.1160    0.0000 C   0  0  0  0  0  0  0  0  0  0  0  0
    3.7320   -2.2500    0.0000 C   0  0  0  0  0  0  0  0  0  0  0  0
    5.4641   -2.2500    0.0000 C   0  0  0  0  0  0  0  0  0  0  0  0
    3.7320    1.3700    0.0000 H   0  0  0  0  0  0  0  0  0  0  0  0
    6.0747    0.6423    0.0000 H   0  0  0  0  0  0  0  0  0  0  0  0
    5.6762    1.3326    0.0000 H   0  0  0  0  0  0  0  0  0  0  0  0
    3.1215   -0.1423    0.0000 H   0  0  0  0  0  0  0  0  0  0  0  0
    3.5200   -0.8326    0.0000 H   0  0  0  0  0  0  0  0  0  0  0  0
    4.6350    2.4260    0.0000 H   0  0  0  0  0  0  0  0  0  0  0  0
    3.7881    2.6530    0.0000 H   0  0  0  0  0  0  0  0  0  0  0  0
    3.5611    1.8060    0.0000 H   0  0  0  0  0  0  0  0  0  0  0  0
    4.7881    2.6530    0.0000 H   0  0  0  0  0  0  0  0  0  0  0  0
    1.6900    1.2869    0.0000 H   0  0  0  0  0  0  0  0  0  0  0  0
    1.4631    0.4400    0.0000 H   0  0  0  0  0  0  0  0  0  0  0  0
    2.3100    0.2131    0.0000 H   0  0  0  0  0  0  0  0  0  0  0  0
    3.4030    2.5600    0.0000 H   0  0  0  0  0  0  0  0  0  0  0  0
    2.3291    2.5600    0.0000 H   0  0  0  0  0  0  0  0  0  0  0  0
    6.4081    1.5791    0.0000 H   0  0  0  0  0  0  0  0  0  0  0  0
    6.4081    2.6530    0.0000 H   0  0  0  0  0  0  0  0  0  0  0  0
    3.4220   -1.7131    0.0000 H   0  0  0  0  0  0  0  0  0  0  0  0
    3.1951   -2.5600    0.0000 H   0  0  0  0  0  0  0  0  0  0  0  0
    4.0420   -2.7869    0.0000 H   0  0  0  0  0  0  0  0  0  0  0  0
    5.1541   -2.7869    0.0000 H   0  0  0  0  0  0  0  0  0  0  0  0
    6.0010   -2.5600    0.0000 H   0  0  0  0  0  0  0  0  0  0  0  0
    5.7741   -1.7131    0.0000 H   0  0  0  0  0  0  0  0  0  0  0  0
  1  8  2  0  0  0  0
  2  3  1  0  0  0  0
  2  4  1  0  0  0  0
  2  7  1  0  0  0  0
  2 10  1  0  0  0  0
  3  5  1  0  0  0  0
  3  9  1  0  0  0  0
  3 17  1  0  0  0  0
  4  8  1  0  0  0  0
  4 18  1  0  0  0  0
  4 19  1  0  0  0  0
  5  6  1  0  0  0  0
  5 20  1  0  0  0  0
  5 21  1  0  0  0  0
  6  8  1  0  0  0  0
  6 11  2  0  0  0  0
  7 22  1  0  0  0  0
  7 23  1  0  0  0  0
  7 24  1  0  0  0  0
  9 12  1  0  0  0  0
  9 13  2  0  0  0  0
 10 14  2  0  0  0  0
 10 25  1  0  0  0  0
 11 15  1  0  0  0  0
 11 16  1  0  0  0  0
 12 26  1  0  0  0  0
 12 27  1  0  0  0  0
 12 28  1  0  0  0  0
 13 29  1  0  0  0  0
 13 30  1  0  0  0  0
 14 31  1  0  0  0  0
 14 32  1  0  0  0  0
 15 33  1  0  0  0  0
 15 34  1  0  0  0  0
 15 35  1  0  0  0  0
 16 36  1  0  0  0  0
 16 37  1  0  0  0  0
 16 38  1  0  0  0  0
M  END
> <PUBCHEM_COMPOUND_CID>
519762
> <PUBCHEM_COMPOUND_CANONICALIZED>
1
> <PUBCHEM_CACTVS_COMPLEXITY>
369
> <PUBCHEM_CACTVS_HBOND_ACCEPTOR>
1
> <PUBCHEM_CACTVS_HBOND_DONOR>
0
> <PUBCHEM_CACTVS_ROTATABLE_BOND>
2
> <PUBCHEM_CACTVS_SUBSKEYS>
AAADceBwIAAAAAAAAAAAAAAAAAAAAAAAAAAwAAAAAAAAAAAAAAAAGgAAAAAADwSAgAACAAAAAACIAqBSAAAAAAAgAAAICAEAAEgAABIAAQAAAAAAgAAIAQMIiMAPgAAAAAAAAAAAAAAAACAAAAAAAAAAAA==
> <PUBCHEM_IUPAC_OPENEYE_NAME>
4-isopropenyl-2-isopropylidene-5-methyl-5-vinyl-cyclohexanone
> <PUBCHEM_IUPAC_CAS_NAME>
5-ethenyl-5-methyl-4-(1-methylethenyl)-2-propan-2-ylidene-1-cyclohexanone
> <PUBCHEM_IUPAC_NAME_MARKUP>
5-ethenyl-5-methyl-2-propan-2-ylidene-4-prop-1-en-2-ylcyclohexan-1-one
> <PUBCHEM_IUPAC_NAME>
5-ethenyl-5-methyl-2-propan-2-ylidene-4-prop-1-en-2-ylcyclohexan-1-one
> <PUBCHEM_IUPAC_SYSTEMATIC_NAME>
5-ethenyl-5-methyl-2-propan-2-ylidene-4-prop-1-en-2-yl-cyclohexan-1-one
> <PUBCHEM_IUPAC_TRADITIONAL_NAME>
4-isopropenyl-2-isopropylidene-5-methyl-5-vinyl-cyclohexanone
> <PUBCHEM_IUPAC_INCHI>
InChI=1S/C15H22O/c1-7-15(6)9-14(16)12(10(2)3)8-13(15)11(4)5/h7,13H,1,4,8-9H2,2-3,5-6H3
> <PUBCHEM_IUPAC_INCHIKEY>
ABLPGPHZENVRRH-UHFFFAOYSA-N
> <PUBCHEM_XLOGP3_AA>
4.4
> <PUBCHEM_EXACT_MASS>
218.167065321
> <PUBCHEM_MOLECULAR_FORMULA>
C15H22O
> <PUBCHEM_MOLECULAR_WEIGHT>
218.33
> <PUBCHEM_OPENEYE_CAN_SMILES>
CC(=C1CC(C(CC1=O)(C)C=C)C(=C)C)C
> <PUBCHEM_OPENEYE_ISO_SMILES>
CC(=C1CC(C(CC1=O)(C)C=C)C(=C)C)C
> <PUBCHEM_CACTVS_TPSA>
17.1
> <PUBCHEM_MONOISOTOPIC_WEIGHT>
218.167065321
> <PUBCHEM_TOTAL_CHARGE>
0
> <PUBCHEM_HEAVY_ATOM_COUNT>
16
> <PUBCHEM_ATOM_DEF_STEREO_COUNT>
0
> <PUBCHEM_ATOM_UDEF_STEREO_COUNT>
2
> <PUBCHEM_BOND_DEF_STEREO_COUNT>
0
> <PUBCHEM_BOND_UDEF_STEREO_COUNT>
0
> <PUBCHEM_ISOTOPIC_ATOM_COUNT>
0
> <PUBCHEM_COMPONENT_COUNT>
1
> <PUBCHEM_CACTVS_TAUTO_COUNT>
-1
> <PUBCHEM_COORDINATE_TYPE>
1
5
255
> <PUBCHEM_BONDANNOTATIONS>
2  7  3
3  9  3
$$$$
