519782
  -OEChem-10302200292D
 41 41  0     1  0  0  0  0  0999 V2000
    7.8916   -0.3956    0.0000 O   0  0  0  0  0  0  0  0  0  0  0  0
    5.5963    1.5304    0.0000 O   0  0  0  0  0  0  0  0  0  0  0  0
    7.0826    0.1922    0.0000 C   0  0  3  0  0  0  0  0  0  0  0  0
    8.7006    0.1922    0.0000 C   0  0  3  0  0  0  0  0  0  0  0  0
    7.3916    1.1432    0.0000 C   0  0  0  0  0  0  0  0  0  0  0  0
    8.3916    1.1432    0.0000 C   0  0  0  0  0  0  0  0  0  0  0  0
    6.1316   -0.1169    0.0000 C   0  0  3  0  0  0  0  0  0  0  0  0
    9.6517    0.5012    0.0000 C   0  0  0  0  0  0  0  0  0  0  0  0
    9.2884   -0.6169    0.0000 C   0  0  0  0  0  0  0  0  0  0  0  0
    5.9236   -1.0950    0.0000 C   0  0  0  0  0  0  0  0  0  0  0  0
    5.3884    0.5523    0.0000 C   0  0  0  0  0  0  0  0  0  0  0  0
    4.4374    0.2432    0.0000 C   0  0  0  0  0  0  0  0  0  0  0  0
    8.8817   -1.5304    0.0000 C   0  0  0  0  0  0  0  0  0  0  0  0
    3.6942    0.9124    0.0000 C   0  0  0  0  0  0  0  0  0  0  0  0
    2.7431    0.6034    0.0000 C   0  0  0  0  0  0  0  0  0  0  0  0
    2.0000    1.2725    0.0000 C   0  0  0  0  0  0  0  0  0  0  0  0
    2.5352   -0.3748    0.0000 C   0  0  0  0  0  0  0  0  0  0  0  0
    6.9856   -0.4202    0.0000 H   0  0  0  0  0  0  0  0  0  0  0  0
    7.4564    1.7598    0.0000 H   0  0  0  0  0  0  0  0  0  0  0  0
    6.7852    1.2721    0.0000 H   0  0  0  0  0  0  0  0  0  0  0  0
    8.9981    1.2721    0.0000 H   0  0  0  0  0  0  0  0  0  0  0  0
    8.3268    1.7598    0.0000 H   0  0  0  0  0  0  0  0  0  0  0  0
    5.5419   -0.3085    0.0000 H   0  0  0  0  0  0  0  0  0  0  0  0
    9.8433   -0.0885    0.0000 H   0  0  0  0  0  0  0  0  0  0  0  0
   10.2413    0.6928    0.0000 H   0  0  0  0  0  0  0  0  0  0  0  0
    9.4601    1.0908    0.0000 H   0  0  0  0  0  0  0  0  0  0  0  0
    9.9050   -0.5521    0.0000 H   0  0  0  0  0  0  0  0  0  0  0  0
    5.3172   -0.9661    0.0000 H   0  0  0  0  0  0  0  0  0  0  0  0
    5.7947   -1.7015    0.0000 H   0  0  0  0  0  0  0  0  0  0  0  0
    6.5301   -1.2239    0.0000 H   0  0  0  0  0  0  0  0  0  0  0  0
    3.9488   -0.1385    0.0000 H   0  0  0  0  0  0  0  0  0  0  0  0
    4.7284   -0.3042    0.0000 H   0  0  0  0  0  0  0  0  0  0  0  0
    8.2651   -1.5952    0.0000 H   0  0  0  0  0  0  0  0  0  0  0  0
    9.2461   -2.0320    0.0000 H   0  0  0  0  0  0  0  0  0  0  0  0
    3.8231    1.5188    0.0000 H   0  0  0  0  0  0  0  0  0  0  0  0
    2.4149    1.7332    0.0000 H   0  0  0  0  0  0  0  0  0  0  0  0
    1.5392    1.6874    0.0000 H   0  0  0  0  0  0  0  0  0  0  0  0
    1.5851    0.8117    0.0000 H   0  0  0  0  0  0  0  0  0  0  0  0
    1.9288   -0.2459    0.0000 H   0  0  0  0  0  0  0  0  0  0  0  0
    2.4063   -0.9812    0.0000 H   0  0  0  0  0  0  0  0  0  0  0  0
    3.1417   -0.5037    0.0000 H   0  0  0  0  0  0  0  0  0  0  0  0
  1  3  1  0  0  0  0
  1  4  1  0  0  0  0
  2 11  2  0  0  0  0
  3  5  1  0  0  0  0
  3  7  1  0  0  0  0
  3 18  1  0  0  0  0
  4  6  1  0  0  0  0
  4  8  1  0  0  0  0
  4  9  1  0  0  0  0
  5  6  1  0  0  0  0
  5 19  1  0  0  0  0
  5 20  1  0  0  0  0
  6 21  1  0  0  0  0
  6 22  1  0  0  0  0
  7 10  1  0  0  0  0
  7 11  1  0  0  0  0
  7 23  1  0  0  0  0
  8 24  1  0  0  0  0
  8 25  1  0  0  0  0
  8 26  1  0  0  0  0
  9 13  2  0  0  0  0
  9 27  1  0  0  0  0
 10 28  1  0  0  0  0
 10 29  1  0  0  0  0
 10 30  1  0  0  0  0
 11 12  1  0  0  0  0
 12 14  1  0  0  0  0
 12 31  1  0  0  0  0
 12 32  1  0  0  0  0
 13 33  1  0  0  0  0
 13 34  1  0  0  0  0
 14 15  2  0  0  0  0
 14 35  1  0  0  0  0
 15 16  1  0  0  0  0
 15 17  1  0  0  0  0
 16 36  1  0  0  0  0
 16 37  1  0  0  0  0
 16 38  1  0  0  0  0
 17 39  1  0  0  0  0
 17 40  1  0  0  0  0
 17 41  1  0  0  0  0
M  END
> <PUBCHEM_COMPOUND_CID>
519782
> <PUBCHEM_COMPOUND_CANONICALIZED>
1
> <PUBCHEM_CACTVS_COMPLEXITY>
326
> <PUBCHEM_CACTVS_HBOND_ACCEPTOR>
2
> <PUBCHEM_CACTVS_HBOND_DONOR>
0
> <PUBCHEM_CACTVS_ROTATABLE_BOND>
5
> <PUBCHEM_CACTVS_SUBSKEYS>
AAADceBwMAAAAAAAAAAAAAAAAAAAASAAAAAAAAAAAAAAAAAAAAAAGgAAAAAADVSggAICAAAABACIAqBSAAAAAAAgAAAICAEAAAgABBYAIQACAAAEoAAIIAOIyPCOAAAAAAAAAAAAAAAAAAAAAAAAAAAAAA==
> <PUBCHEM_IUPAC_OPENEYE_NAME>
6-methyl-2-(5-methyl-5-vinyl-tetrahydrofuran-2-yl)hept-5-en-3-one
> <PUBCHEM_IUPAC_CAS_NAME>
2-(5-ethenyl-5-methyl-2-oxolanyl)-6-methyl-5-hepten-3-one
> <PUBCHEM_IUPAC_NAME_MARKUP>
2-(5-ethenyl-5-methyloxolan-2-yl)-6-methylhept-5-en-3-one
> <PUBCHEM_IUPAC_NAME>
2-(5-ethenyl-5-methyloxolan-2-yl)-6-methylhept-5-en-3-one
> <PUBCHEM_IUPAC_SYSTEMATIC_NAME>
2-(5-ethenyl-5-methyl-oxolan-2-yl)-6-methyl-hept-5-en-3-one
> <PUBCHEM_IUPAC_TRADITIONAL_NAME>
6-methyl-2-(5-methyl-5-vinyl-tetrahydrofuran-2-yl)hept-5-en-3-one
> <PUBCHEM_IUPAC_INCHI>
InChI=1S/C15H24O2/c1-6-15(5)10-9-14(17-15)12(4)13(16)8-7-11(2)3/h6-7,12,14H,1,8-10H2,2-5H3
> <PUBCHEM_IUPAC_INCHIKEY>
FJKKZNIYYVEYOL-UHFFFAOYSA-N
> <PUBCHEM_XLOGP3_AA>
3.3
> <PUBCHEM_EXACT_MASS>
236.177630004
> <PUBCHEM_MOLECULAR_FORMULA>
C15H24O2
> <PUBCHEM_MOLECULAR_WEIGHT>
236.35
> <PUBCHEM_OPENEYE_CAN_SMILES>
CC(C1CCC(O1)(C)C=C)C(=O)CC=C(C)C
> <PUBCHEM_OPENEYE_ISO_SMILES>
CC(C1CCC(O1)(C)C=C)C(=O)CC=C(C)C
> <PUBCHEM_CACTVS_TPSA>
26.3
> <PUBCHEM_MONOISOTOPIC_WEIGHT>
236.177630004
> <PUBCHEM_TOTAL_CHARGE>
0
> <PUBCHEM_HEAVY_ATOM_COUNT>
17
> <PUBCHEM_ATOM_DEF_STEREO_COUNT>
0
> <PUBCHEM_ATOM_UDEF_STEREO_COUNT>
3
> <PUBCHEM_BOND_DEF_STEREO_COUNT>
0
> <PUBCHEM_BOND_UDEF_STEREO_COUNT>
0
> <PUBCHEM_ISOTOPIC_ATOM_COUNT>
0
> <PUBCHEM_COMPONENT_COUNT>
1
> <PUBCHEM_CACTVS_TAUTO_COUNT>
-1
> <PUBCHEM_COORDINATE_TYPE>
1
5
255
> <PUBCHEM_BONDANNOTATIONS>
3  5  3
4  8  3
7  10  3
$$$$
