519880
  -OEChem-10302200292D
 42 42  0     1  0  0  0  0  0999 V2000
    3.0000   -2.5950    0.0000 O   0  0  0  0  0  0  0  0  0  0  0  0
    3.0000   -0.5950    0.0000 C   0  0  3  0  0  0  0  0  0  0  0  0
    3.0000   -1.5950    0.0000 C   0  0  0  0  0  0  0  0  0  0  0  0
    2.1340   -0.0950    0.0000 C   0  0  0  0  0  0  0  0  0  0  0  0
    3.8660   -0.0950    0.0000 C   0  0  0  0  0  0  0  0  0  0  0  0
    2.1340    0.9050    0.0000 C   0  0  0  0  0  0  0  0  0  0  0  0
    2.0000   -1.5950    0.0000 C   0  0  0  0  0  0  0  0  0  0  0  0
    4.0000   -1.5950    0.0000 C   0  0  0  0  0  0  0  0  0  0  0  0
    3.8660    0.9050    0.0000 C   0  0  0  0  0  0  0  0  0  0  0  0
    3.0000    1.4050    0.0000 C   0  0  0  0  0  0  0  0  0  0  0  0
    4.7320    1.4050    0.0000 C   0  0  0  0  0  0  0  0  0  0  0  0
    4.7320    2.4050    0.0000 C   0  0  0  0  0  0  0  0  0  0  0  0
    3.8660    2.9050    0.0000 C   0  0  0  0  0  0  0  0  0  0  0  0
    3.0000    2.4050    0.0000 C   0  0  0  0  0  0  0  0  0  0  0  0
    3.8660    1.9050    0.0000 C   0  0  0  0  0  0  0  0  0  0  0  0
    5.5981    0.9050    0.0000 C   0  0  0  0  0  0  0  0  0  0  0  0
    3.5369   -0.9050    0.0000 H   0  0  0  0  0  0  0  0  0  0  0  0
    1.5234    0.0127    0.0000 H   0  0  0  0  0  0  0  0  0  0  0  0
    1.9219   -0.6776    0.0000 H   0  0  0  0  0  0  0  0  0  0  0  0
    4.0781   -0.6776    0.0000 H   0  0  0  0  0  0  0  0  0  0  0  0
    4.4766    0.0127    0.0000 H   0  0  0  0  0  0  0  0  0  0  0  0
    1.9219    1.4876    0.0000 H   0  0  0  0  0  0  0  0  0  0  0  0
    1.5234    0.7973    0.0000 H   0  0  0  0  0  0  0  0  0  0  0  0
    2.0000   -0.9750    0.0000 H   0  0  0  0  0  0  0  0  0  0  0  0
    1.3800   -1.5950    0.0000 H   0  0  0  0  0  0  0  0  0  0  0  0
    2.0000   -2.2150    0.0000 H   0  0  0  0  0  0  0  0  0  0  0  0
    4.0000   -2.2150    0.0000 H   0  0  0  0  0  0  0  0  0  0  0  0
    4.6200   -1.5950    0.0000 H   0  0  0  0  0  0  0  0  0  0  0  0
    4.0000   -0.9750    0.0000 H   0  0  0  0  0  0  0  0  0  0  0  0
    3.3291    1.2150    0.0000 H   0  0  0  0  0  0  0  0  0  0  0  0
    2.4631   -2.9050    0.0000 H   0  0  0  0  0  0  0  0  0  0  0  0
    5.3426    2.2973    0.0000 H   0  0  0  0  0  0  0  0  0  0  0  0
    4.9441    2.9876    0.0000 H   0  0  0  0  0  0  0  0  0  0  0  0
    4.2646    3.3800    0.0000 H   0  0  0  0  0  0  0  0  0  0  0  0
    3.4675    3.3800    0.0000 H   0  0  0  0  0  0  0  0  0  0  0  0
    2.4631    2.7150    0.0000 H   0  0  0  0  0  0  0  0  0  0  0  0
    4.1760    1.3681    0.0000 H   0  0  0  0  0  0  0  0  0  0  0  0
    4.4030    2.2150    0.0000 H   0  0  0  0  0  0  0  0  0  0  0  0
    3.5560    2.4419    0.0000 H   0  0  0  0  0  0  0  0  0  0  0  0
    5.2881    0.3681    0.0000 H   0  0  0  0  0  0  0  0  0  0  0  0
    6.1350    0.5950    0.0000 H   0  0  0  0  0  0  0  0  0  0  0  0
    5.9081    1.4419    0.0000 H   0  0  0  0  0  0  0  0  0  0  0  0
  1  3  1  0  0  0  0
  1 31  1  0  0  0  0
  2  3  1  0  0  0  0
  2  4  1  0  0  0  0
  2  5  1  0  0  0  0
  2 17  1  0  0  0  0
  3  7  1  0  0  0  0
  3  8  1  0  0  0  0
  4  6  1  0  0  0  0
  4 18  1  0  0  0  0
  4 19  1  0  0  0  0
  5  9  1  0  0  0  0
  5 20  1  0  0  0  0
  5 21  1  0  0  0  0
  6 10  1  0  0  0  0
  6 22  1  0  0  0  0
  6 23  1  0  0  0  0
  7 24  1  0  0  0  0
  7 25  1  0  0  0  0
  7 26  1  0  0  0  0
  8 27  1  0  0  0  0
  8 28  1  0  0  0  0
  8 29  1  0  0  0  0
  9 11  2  3  0  0  0
  9 30  1  0  0  0  0
 10 14  2  3  0  0  0
 10 15  1  0  0  0  0
 11 12  1  0  0  0  0
 11 16  1  0  0  0  0
 12 13  1  0  0  0  0
 12 32  1  0  0  0  0
 12 33  1  0  0  0  0
 13 14  1  0  0  0  0
 13 34  1  0  0  0  0
 13 35  1  0  0  0  0
 14 36  1  0  0  0  0
 15 37  1  0  0  0  0
 15 38  1  0  0  0  0
 15 39  1  0  0  0  0
 16 40  1  0  0  0  0
 16 41  1  0  0  0  0
 16 42  1  0  0  0  0
M  END
> <PUBCHEM_COMPOUND_CID>
519880
> <PUBCHEM_COMPOUND_CANONICALIZED>
1
> <PUBCHEM_CACTVS_COMPLEXITY>
284
> <PUBCHEM_CACTVS_HBOND_ACCEPTOR>
1
> <PUBCHEM_CACTVS_HBOND_DONOR>
1
> <PUBCHEM_CACTVS_ROTATABLE_BOND>
1
> <PUBCHEM_CACTVS_SUBSKEYS>
AAADceBwIAAAAAAAAAAAAAAAAAAAAAAAAAAAAAAAAAAAAACAAAAAGgAACAAADUSAgAACAAAAAgCAAiBCAAAAAAAgAAAACAAAAAgAAAIAAQAAQAAEgAAIAAOAwEAOgAAAAAAAAAAAAAAAAAAAAAAAAAAAAA==
> <PUBCHEM_IUPAC_OPENEYE_NAME>
2-(4,8-dimethylcyclodeca-3,7-dien-1-yl)propan-2-ol
> <PUBCHEM_IUPAC_CAS_NAME>
2-(4,8-dimethyl-1-cyclodeca-3,7-dienyl)-2-propanol
> <PUBCHEM_IUPAC_NAME_MARKUP>
2-(4,8-dimethylcyclodeca-3,7-dien-1-yl)propan-2-ol
> <PUBCHEM_IUPAC_NAME>
2-(4,8-dimethylcyclodeca-3,7-dien-1-yl)propan-2-ol
> <PUBCHEM_IUPAC_SYSTEMATIC_NAME>
2-(4,8-dimethylcyclodeca-3,7-dien-1-yl)propan-2-ol
> <PUBCHEM_IUPAC_TRADITIONAL_NAME>
2-(4,8-dimethylcyclodeca-3,7-dien-1-yl)propan-2-ol
> <PUBCHEM_IUPAC_INCHI>
InChI=1S/C15H26O/c1-12-6-5-7-13(2)9-11-14(10-8-12)15(3,4)16/h6,9,14,16H,5,7-8,10-11H2,1-4H3
> <PUBCHEM_IUPAC_INCHIKEY>
SDMLCXJKAYFHQM-UHFFFAOYSA-N
> <PUBCHEM_XLOGP3_AA>
3.1
> <PUBCHEM_EXACT_MASS>
222.198365449
> <PUBCHEM_MOLECULAR_FORMULA>
C15H26O
> <PUBCHEM_MOLECULAR_WEIGHT>
222.37
> <PUBCHEM_OPENEYE_CAN_SMILES>
CC1=CCCC(=CCC(CC1)C(C)(C)O)C
> <PUBCHEM_OPENEYE_ISO_SMILES>
CC1=CCCC(=CCC(CC1)C(C)(C)O)C
> <PUBCHEM_CACTVS_TPSA>
20.2
> <PUBCHEM_MONOISOTOPIC_WEIGHT>
222.198365449
> <PUBCHEM_TOTAL_CHARGE>
0
> <PUBCHEM_HEAVY_ATOM_COUNT>
16
> <PUBCHEM_ATOM_DEF_STEREO_COUNT>
0
> <PUBCHEM_ATOM_UDEF_STEREO_COUNT>
1
> <PUBCHEM_BOND_DEF_STEREO_COUNT>
0
> <PUBCHEM_BOND_UDEF_STEREO_COUNT>
2
> <PUBCHEM_ISOTOPIC_ATOM_COUNT>
0
> <PUBCHEM_COMPONENT_COUNT>
1
> <PUBCHEM_CACTVS_TAUTO_COUNT>
-1
> <PUBCHEM_COORDINATE_TYPE>
1
5
255
> <PUBCHEM_BONDANNOTATIONS>
10  14  1
2  3  3
9  11  1
$$$$
