519870
  -OEChem-10302200292D
 39 42  0     1  0  0  0  0  0999 V2000
    9.5141    2.1767    0.0000 O   0  0  0  0  0  0  0  0  0  0  0  0
    2.8641   -2.1309    0.0000 O   0  0  0  0  0  0  0  0  0  0  0  0
    8.2572    0.9215    0.0000 C   0  0  3  0  0  0  0  0  0  0  0  0
    7.3912    1.4215    0.0000 C   0  0  0  0  0  0  0  0  0  0  0  0
    8.2572   -0.0785    0.0000 C   0  0  0  0  0  0  0  0  0  0  0  0
    6.5251    0.9215    0.0000 C   0  0  0  0  0  0  0  0  0  0  0  0
    9.2034    1.2262    0.0000 C   0  0  0  0  0  0  0  0  0  0  0  0
    7.3912   -0.5785    0.0000 C   0  0  0  0  0  0  0  0  0  0  0  0
    6.5251   -0.0785    0.0000 C   0  0  0  0  0  0  0  0  0  0  0  0
    8.2572    1.9215    0.0000 C   0  0  0  0  0  0  0  0  0  0  0  0
    9.7870    0.4215    0.0000 C   0  0  0  0  0  0  0  0  0  0  0  0
    9.2034   -0.3833    0.0000 C   0  0  0  0  0  0  0  0  0  0  0  0
    5.6151   -0.5854    0.0000 C   0  0  0  0  0  0  0  0  0  0  0  0
    7.4072   -1.6200    0.0000 C   0  0  0  0  0  0  0  0  0  0  0  0
    5.6071   -1.6270    0.0000 C   0  0  0  0  0  0  0  0  0  0  0  0
    6.5092   -2.1478    0.0000 C   0  0  0  0  0  0  0  0  0  0  0  0
    4.6883   -0.0213    0.0000 C   0  0  0  0  0  0  0  0  0  0  0  0
    4.6717   -2.1767    0.0000 C   0  0  0  0  0  0  0  0  0  0  0  0
    3.7404   -0.5493    0.0000 C   0  0  0  0  0  0  0  0  0  0  0  0
    3.7320   -1.6342    0.0000 C   0  0  0  0  0  0  0  0  0  0  0  0
    2.0000   -1.6275    0.0000 C   0  0  0  0  0  0  0  0  0  0  0  0
    7.7897    1.8964    0.0000 H   0  0  0  0  0  0  0  0  0  0  0  0
    6.9926    1.8964    0.0000 H   0  0  0  0  0  0  0  0  0  0  0  0
    6.3131    1.5041    0.0000 H   0  0  0  0  0  0  0  0  0  0  0  0
    5.9145    0.8138    0.0000 H   0  0  0  0  0  0  0  0  0  0  0  0
    8.8772    1.9215    0.0000 H   0  0  0  0  0  0  0  0  0  0  0  0
    8.2572    2.5415    0.0000 H   0  0  0  0  0  0  0  0  0  0  0  0
    7.6372    1.9215    0.0000 H   0  0  0  0  0  0  0  0  0  0  0  0
   10.2479    0.0067    0.0000 H   0  0  0  0  0  0  0  0  0  0  0  0
   10.2479    0.8362    0.0000 H   0  0  0  0  0  0  0  0  0  0  0  0
    9.3960   -0.9726    0.0000 H   0  0  0  0  0  0  0  0  0  0  0  0
    7.9477   -1.9238    0.0000 H   0  0  0  0  0  0  0  0  0  0  0  0
    6.5116   -2.7678    0.0000 H   0  0  0  0  0  0  0  0  0  0  0  0
    4.7002    0.5986    0.0000 H   0  0  0  0  0  0  0  0  0  0  0  0
    4.6741   -2.7967    0.0000 H   0  0  0  0  0  0  0  0  0  0  0  0
    3.2071   -0.2331    0.0000 H   0  0  0  0  0  0  0  0  0  0  0  0
    2.3121   -1.0918    0.0000 H   0  0  0  0  0  0  0  0  0  0  0  0
    1.4643   -1.3155    0.0000 H   0  0  0  0  0  0  0  0  0  0  0  0
    1.6879   -2.1633    0.0000 H   0  0  0  0  0  0  0  0  0  0  0  0
  1  7  2  0  0  0  0
  2 20  1  0  0  0  0
  2 21  1  0  0  0  0
  3  4  1  0  0  0  0
  3  5  1  0  0  0  0
  3  7  1  0  0  0  0
  3 10  1  0  0  0  0
  4  6  1  0  0  0  0
  4 22  1  0  0  0  0
  4 23  1  0  0  0  0
  5  8  1  0  0  0  0
  5 12  2  0  0  0  0
  6  9  1  0  0  0  0
  6 24  1  0  0  0  0
  6 25  1  0  0  0  0
  7 11  1  0  0  0  0
  8  9  2  0  0  0  0
  8 14  1  0  0  0  0
  9 13  1  0  0  0  0
 10 26  1  0  0  0  0
 10 27  1  0  0  0  0
 10 28  1  0  0  0  0
 11 12  1  0  0  0  0
 11 29  1  0  0  0  0
 11 30  1  0  0  0  0
 12 31  1  0  0  0  0
 13 15  2  0  0  0  0
 13 17  1  0  0  0  0
 14 16  2  0  0  0  0
 14 32  1  0  0  0  0
 15 16  1  0  0  0  0
 15 18  1  0  0  0  0
 16 33  1  0  0  0  0
 17 19  2  0  0  0  0
 17 34  1  0  0  0  0
 18 20  2  0  0  0  0
 18 35  1  0  0  0  0
 19 20  1  0  0  0  0
 19 36  1  0  0  0  0
 21 37  1  0  0  0  0
 21 38  1  0  0  0  0
 21 39  1  0  0  0  0
M  END
> <PUBCHEM_COMPOUND_CID>
519870
> <PUBCHEM_COMPOUND_CANONICALIZED>
1
> <PUBCHEM_CACTVS_COMPLEXITY>
480
> <PUBCHEM_CACTVS_HBOND_ACCEPTOR>
2
> <PUBCHEM_CACTVS_HBOND_DONOR>
0
> <PUBCHEM_CACTVS_ROTATABLE_BOND>
1
> <PUBCHEM_CACTVS_SUBSKEYS>
AAADceB4MAAAAAAAAAAAAAAAAAAAAQAAAAAwYMAAAAAAAEDBUAAAGgAAAAAADgSAmAIyBsAABACIAqBSAAACCAAgIAAIiAEGCIgMJjKEMRqAMCAkwBEIqAeIyPCP4AADAAAQAADAAAYAACAAAAAAAAAAAA==
> <PUBCHEM_IUPAC_OPENEYE_NAME>
3-methoxy-13-methyl-12,16-dihydro-11H-cyclopenta[a]phenanthren-17-one
> <PUBCHEM_IUPAC_CAS_NAME>
3-methoxy-13-methyl-12,16-dihydro-11H-cyclopenta[a]phenanthren-17-one
> <PUBCHEM_IUPAC_NAME_MARKUP>
3-methoxy-13-methyl-12,16-dihydro-11<I>H</I>-cyclopenta[a]phenanthren-17-one
> <PUBCHEM_IUPAC_NAME>
3-methoxy-13-methyl-12,16-dihydro-11H-cyclopenta[a]phenanthren-17-one
> <PUBCHEM_IUPAC_SYSTEMATIC_NAME>
3-methoxy-13-methyl-12,16-dihydro-11H-cyclopenta[a]phenanthren-17-one
> <PUBCHEM_IUPAC_TRADITIONAL_NAME>
3-methoxy-13-methyl-12,16-dihydro-11H-cyclopenta[a]phenanthren-17-one
> <PUBCHEM_IUPAC_INCHI>
InChI=1S/C19H18O2/c1-19-10-9-15-14-6-4-13(21-2)11-12(14)3-5-16(15)17(19)7-8-18(19)20/h3-7,11H,8-10H2,1-2H3
> <PUBCHEM_IUPAC_INCHIKEY>
GSJXNXTTXUGDFZ-UHFFFAOYSA-N
> <PUBCHEM_XLOGP3_AA>
3.7
> <PUBCHEM_EXACT_MASS>
278.130679813
> <PUBCHEM_MOLECULAR_FORMULA>
C19H18O2
> <PUBCHEM_MOLECULAR_WEIGHT>
278.3
> <PUBCHEM_OPENEYE_CAN_SMILES>
CC12CCC3=C(C1=CCC2=O)C=CC4=C3C=CC(=C4)OC
> <PUBCHEM_OPENEYE_ISO_SMILES>
CC12CCC3=C(C1=CCC2=O)C=CC4=C3C=CC(=C4)OC
> <PUBCHEM_CACTVS_TPSA>
26.3
> <PUBCHEM_MONOISOTOPIC_WEIGHT>
278.130679813
> <PUBCHEM_TOTAL_CHARGE>
0
> <PUBCHEM_HEAVY_ATOM_COUNT>
21
> <PUBCHEM_ATOM_DEF_STEREO_COUNT>
0
> <PUBCHEM_ATOM_UDEF_STEREO_COUNT>
1
> <PUBCHEM_BOND_DEF_STEREO_COUNT>
0
> <PUBCHEM_BOND_UDEF_STEREO_COUNT>
0
> <PUBCHEM_ISOTOPIC_ATOM_COUNT>
0
> <PUBCHEM_COMPONENT_COUNT>
1
> <PUBCHEM_CACTVS_TAUTO_COUNT>
-1
> <PUBCHEM_COORDINATE_TYPE>
1
5
255
> <PUBCHEM_BONDANNOTATIONS>
13  15  8
13  17  8
14  16  8
15  16  8
15  18  8
17  19  8
18  20  8
19  20  8
3  10  3
8  14  8
8  9  8
9  13  8
$$$$
