519959
  -OEChem-10302200292D
 62 66  0     1  0  0  0  0  0999 V2000
    3.8114   -5.2592    0.0000 Cl  0  0  0  0  0  0  0  0  0  0  0  0
   12.1603    5.2592    0.0000 Cl  0  0  0  0  0  0  0  0  0  0  0  0
    8.6500    0.0942    0.0000 O   0  0  0  0  0  0  0  0  0  0  0  0
    2.0000   -4.2134    0.0000 O   0  0  0  0  0  0  0  0  0  0  0  0
   10.2963   -0.4439    0.0000 O   0  0  0  0  0  0  0  0  0  0  0  0
   10.9176    1.4572    0.0000 O   0  0  0  0  0  0  0  0  0  0  0  0
    7.3931   -2.1611    0.0000 C   0  0  3  0  0  0  0  0  0  0  0  0
    7.3931   -1.1611    0.0000 C   0  0  3  0  0  0  0  0  0  0  0  0
    6.5271   -2.6611    0.0000 C   0  0  3  0  0  0  0  0  0  0  0  0
    5.6610   -2.1611    0.0000 C   0  0  3  0  0  0  0  0  0  0  0  0
    6.5271   -0.6611    0.0000 C   0  0  0  0  0  0  0  0  0  0  0  0
    8.3393   -0.8563    0.0000 C   0  0  3  0  0  0  0  0  0  0  0  0
    8.3393   -2.4658    0.0000 C   0  0  0  0  0  0  0  0  0  0  0  0
    5.6610   -1.1611    0.0000 C   0  0  0  0  0  0  0  0  0  0  0  0
    4.7510   -2.6679    0.0000 C   0  0  3  0  0  0  0  0  0  0  0  0
    8.9229   -1.6611    0.0000 C   0  0  0  0  0  0  0  0  0  0  0  0
    6.5431   -3.7026    0.0000 C   0  0  0  0  0  0  0  0  0  0  0  0
    7.3931   -0.1611    0.0000 C   0  0  0  0  0  0  0  0  0  0  0  0
    5.6451   -4.2303    0.0000 C   0  0  0  0  0  0  0  0  0  0  0  0
    4.7430   -3.7095    0.0000 C   0  0  0  0  0  0  0  0  0  0  0  0
    3.8242   -2.1038    0.0000 C   0  0  0  0  0  0  0  0  0  0  0  0
    2.8763   -2.6318    0.0000 C   0  0  0  0  0  0  0  0  0  0  0  0
    3.8076   -4.2592    0.0000 C   0  0  0  0  0  0  0  0  0  0  0  0
    2.8680   -3.7167    0.0000 C   0  0  0  0  0  0  0  0  0  0  0  0
    9.6285    0.3004    0.0000 C   0  0  0  0  0  0  0  0  0  0  0  0
    9.9391    1.2509    0.0000 C   0  0  0  0  0  0  0  0  0  0  0  0
   11.2283    2.4077    0.0000 C   0  0  0  0  0  0  0  0  0  0  0  0
   10.5605    3.1520    0.0000 C   0  0  0  0  0  0  0  0  0  0  0  0
   12.2068    2.6139    0.0000 C   0  0  0  0  0  0  0  0  0  0  0  0
   10.8711    4.1025    0.0000 C   0  0  0  0  0  0  0  0  0  0  0  0
   12.5175    3.5644    0.0000 C   0  0  0  0  0  0  0  0  0  0  0  0
   11.8496    4.3087    0.0000 C   0  0  0  0  0  0  0  0  0  0  0  0
    7.4587   -2.7776    0.0000 H   0  0  0  0  0  0  0  0  0  0  0  0
    7.0664   -2.9669    0.0000 H   0  0  0  0  0  0  0  0  0  0  0  0
    6.1980   -1.8511    0.0000 H   0  0  0  0  0  0  0  0  0  0  0  0
    6.9256   -0.1861    0.0000 H   0  0  0  0  0  0  0  0  0  0  0  0
    6.1285   -0.1861    0.0000 H   0  0  0  0  0  0  0  0  0  0  0  0
    7.9018   -0.4170    0.0000 H   0  0  0  0  0  0  0  0  0  0  0  0
    8.0883   -3.0327    0.0000 H   0  0  0  0  0  0  0  0  0  0  0  0
    8.8767   -2.7750    0.0000 H   0  0  0  0  0  0  0  0  0  0  0  0
    5.4490   -0.5785    0.0000 H   0  0  0  0  0  0  0  0  0  0  0  0
    5.0504   -1.2687    0.0000 H   0  0  0  0  0  0  0  0  0  0  0  0
    4.7630   -2.0480    0.0000 H   0  0  0  0  0  0  0  0  0  0  0  0
    9.3838   -2.0758    0.0000 H   0  0  0  0  0  0  0  0  0  0  0  0
    9.3838   -1.2463    0.0000 H   0  0  0  0  0  0  0  0  0  0  0  0
    6.7612   -4.2830    0.0000 H   0  0  0  0  0  0  0  0  0  0  0  0
    7.1523   -3.5871    0.0000 H   0  0  0  0  0  0  0  0  0  0  0  0
    8.0131   -0.1611    0.0000 H   0  0  0  0  0  0  0  0  0  0  0  0
    7.3931    0.4589    0.0000 H   0  0  0  0  0  0  0  0  0  0  0  0
    6.7731   -0.1611    0.0000 H   0  0  0  0  0  0  0  0  0  0  0  0
    5.2478   -4.7063    0.0000 H   0  0  0  0  0  0  0  0  0  0  0  0
    6.0460   -4.7032    0.0000 H   0  0  0  0  0  0  0  0  0  0  0  0
    4.2324   -1.6372    0.0000 H   0  0  0  0  0  0  0  0  0  0  0  0
    3.4343   -1.6218    0.0000 H   0  0  0  0  0  0  0  0  0  0  0  0
    2.6718   -2.0465    0.0000 H   0  0  0  0  0  0  0  0  0  0  0  0
    2.2647   -2.7332    0.0000 H   0  0  0  0  0  0  0  0  0  0  0  0
    9.9186    1.8706    0.0000 H   0  0  0  0  0  0  0  0  0  0  0  0
    9.3253    1.3383    0.0000 H   0  0  0  0  0  0  0  0  0  0  0  0
    9.9538    3.0241    0.0000 H   0  0  0  0  0  0  0  0  0  0  0  0
   12.6209    2.1524    0.0000 H   0  0  0  0  0  0  0  0  0  0  0  0
   10.4571    4.5640    0.0000 H   0  0  0  0  0  0  0  0  0  0  0  0
   13.1241    3.6923    0.0000 H   0  0  0  0  0  0  0  0  0  0  0  0
  1 23  1  0  0  0  0
  2 32  1  0  0  0  0
  3 12  1  0  0  0  0
  3 25  1  0  0  0  0
  4 24  2  0  0  0  0
  5 25  2  0  0  0  0
  6 26  1  0  0  0  0
  6 27  1  0  0  0  0
  7  8  1  0  0  0  0
  7  9  1  0  0  0  0
  7 13  1  0  0  0  0
  7 33  1  0  0  0  0
  8 11  1  0  0  0  0
  8 12  1  0  0  0  0
  8 18  1  0  0  0  0
  9 10  1  0  0  0  0
  9 17  1  0  0  0  0
  9 34  1  0  0  0  0
 10 14  1  0  0  0  0
 10 15  1  0  0  0  0
 10 35  1  0  0  0  0
 11 14  1  0  0  0  0
 11 36  1  0  0  0  0
 11 37  1  0  0  0  0
 12 16  1  0  0  0  0
 12 38  1  0  0  0  0
 13 16  1  0  0  0  0
 13 39  1  0  0  0  0
 13 40  1  0  0  0  0
 14 41  1  0  0  0  0
 14 42  1  0  0  0  0
 15 20  1  0  0  0  0
 15 21  1  0  0  0  0
 15 43  1  0  0  0  0
 16 44  1  0  0  0  0
 16 45  1  0  0  0  0
 17 19  1  0  0  0  0
 17 46  1  0  0  0  0
 17 47  1  0  0  0  0
 18 48  1  0  0  0  0
 18 49  1  0  0  0  0
 18 50  1  0  0  0  0
 19 20  1  0  0  0  0
 19 51  1  0  0  0  0
 19 52  1  0  0  0  0
 20 23  2  0  0  0  0
 21 22  1  0  0  0  0
 21 53  1  0  0  0  0
 21 54  1  0  0  0  0
 22 24  1  0  0  0  0
 22 55  1  0  0  0  0
 22 56  1  0  0  0  0
 23 24  1  0  0  0  0
 25 26  1  0  0  0  0
 26 57  1  0  0  0  0
 26 58  1  0  0  0  0
 27 28  2  0  0  0  0
 27 29  1  0  0  0  0
 28 30  1  0  0  0  0
 28 59  1  0  0  0  0
 29 31  2  0  0  0  0
 29 60  1  0  0  0  0
 30 32  2  0  0  0  0
 30 61  1  0  0  0  0
 31 32  1  0  0  0  0
 31 62  1  0  0  0  0
M  END
> <PUBCHEM_COMPOUND_CID>
519959
> <PUBCHEM_COMPOUND_CANONICALIZED>
1
> <PUBCHEM_CACTVS_COMPLEXITY>
787
> <PUBCHEM_CACTVS_HBOND_ACCEPTOR>
4
> <PUBCHEM_CACTVS_HBOND_DONOR>
0
> <PUBCHEM_CACTVS_ROTATABLE_BOND>
5
> <PUBCHEM_CACTVS_SUBSKEYS>
AAADceB4OAAGAAAAAAAAAAAAAAAAAYAAAAAwYMEAAAAAAGDBAAAAGgIAAAAADxagkCIyDoAABACIAqDSCAICCAAgJQAIiAFGCshNJjKFMx6COCCkwBEKqQeIyPCPgCAAAAAAAACAQAQAACAAAIAADAAAAA==
> <PUBCHEM_IUPAC_OPENEYE_NAME>
(4-chloro-13-methyl-3-oxo-2,6,7,8,9,10,11,12,14,15,16,17-dodecahydro-1H-cyclopenta[a]phenanthren-17-yl) 2-(4-chlorophenoxy)acetate
> <PUBCHEM_IUPAC_CAS_NAME>
2-(4-chlorophenoxy)acetic acid (4-chloro-13-methyl-3-oxo-2,6,7,8,9,10,11,12,14,15,16,17-dodecahydro-1H-cyclopenta[a]phenanthren-17-yl) ester
> <PUBCHEM_IUPAC_NAME_MARKUP>
(4-chloro-13-methyl-3-oxo-2,6,7,8,9,10,11,12,14,15,16,17-dodecahydro-1<I>H</I>-cyclopenta[a]phenanthren-17-yl) 2-(4-chlorophenoxy)acetate
> <PUBCHEM_IUPAC_NAME>
(4-chloro-13-methyl-3-oxo-2,6,7,8,9,10,11,12,14,15,16,17-dodecahydro-1H-cyclopenta[a]phenanthren-17-yl) 2-(4-chlorophenoxy)acetate
> <PUBCHEM_IUPAC_SYSTEMATIC_NAME>
(4-chloranyl-13-methyl-3-oxidanylidene-2,6,7,8,9,10,11,12,14,15,16,17-dodecahydro-1H-cyclopenta[a]phenanthren-17-yl) 2-(4-chloranylphenoxy)ethanoate
> <PUBCHEM_IUPAC_TRADITIONAL_NAME>
2-(4-chlorophenoxy)acetic acid (4-chloro-3-keto-13-methyl-2,6,7,8,9,10,11,12,14,15,16,17-dodecahydro-1H-cyclopenta[a]phenanthren-17-yl) ester
> <PUBCHEM_IUPAC_INCHI>
InChI=1S/C26H30Cl2O4/c1-26-13-12-18-17-8-10-22(29)25(28)20(17)7-6-19(18)21(26)9-11-23(26)32-24(30)14-31-16-4-2-15(27)3-5-16/h2-5,17-19,21,23H,6-14H2,1H3
> <PUBCHEM_IUPAC_INCHIKEY>
RIFKMUCBGBCCAA-UHFFFAOYSA-N
> <PUBCHEM_XLOGP3_AA>
6.5
> <PUBCHEM_EXACT_MASS>
476.1521148
> <PUBCHEM_MOLECULAR_FORMULA>
C26H30Cl2O4
> <PUBCHEM_MOLECULAR_WEIGHT>
477.4
> <PUBCHEM_OPENEYE_CAN_SMILES>
CC12CCC3C(C1CCC2OC(=O)COC4=CC=C(C=C4)Cl)CCC5=C(C(=O)CCC35)Cl
> <PUBCHEM_OPENEYE_ISO_SMILES>
CC12CCC3C(C1CCC2OC(=O)COC4=CC=C(C=C4)Cl)CCC5=C(C(=O)CCC35)Cl
> <PUBCHEM_CACTVS_TPSA>
52.6
> <PUBCHEM_MONOISOTOPIC_WEIGHT>
476.1521148
> <PUBCHEM_TOTAL_CHARGE>
0
> <PUBCHEM_HEAVY_ATOM_COUNT>
32
> <PUBCHEM_ATOM_DEF_STEREO_COUNT>
0
> <PUBCHEM_ATOM_UDEF_STEREO_COUNT>
6
> <PUBCHEM_BOND_DEF_STEREO_COUNT>
0
> <PUBCHEM_BOND_UDEF_STEREO_COUNT>
0
> <PUBCHEM_ISOTOPIC_ATOM_COUNT>
0
> <PUBCHEM_COMPONENT_COUNT>
1
> <PUBCHEM_CACTVS_TAUTO_COUNT>
-1
> <PUBCHEM_COORDINATE_TYPE>
1
5
255
> <PUBCHEM_BONDANNOTATIONS>
10  14  3
15  21  3
27  28  8
27  29  8
28  30  8
29  31  8
12  3  3
30  32  8
31  32  8
7  13  3
8  18  3
9  17  3
$$$$
