519920
  -OEChem-10302200292D
 32 31  0     1  0  0  0  0  0999 V2000
    5.1350   -0.5950    0.0000 O   0  0  0  0  0  0  0  0  0  0  0  0
    7.7331    0.9050    0.0000 C   0  0  0  0  0  0  0  0  0  0  0  0
    6.8671    0.4050    0.0000 C   0  0  0  0  0  0  0  0  0  0  0  0
    8.5991    0.4050    0.0000 C   0  0  0  0  0  0  0  0  0  0  0  0
    6.0010    0.9050    0.0000 C   0  0  0  0  0  0  0  0  0  0  0  0
    9.4651    0.9050    0.0000 C   0  0  0  0  0  0  0  0  0  0  0  0
    5.1350    0.4050    0.0000 C   0  0  3  0  0  0  0  0  0  0  0  0
   10.3312    0.4050    0.0000 C   0  0  0  0  0  0  0  0  0  0  0  0
    4.2690    0.9050    0.0000 C   0  0  0  0  0  0  0  0  0  0  0  0
   11.1972    0.9050    0.0000 C   0  0  0  0  0  0  0  0  0  0  0  0
    3.4030    0.4050    0.0000 C   0  0  0  0  0  0  0  0  0  0  0  0
    2.5369   -0.0950    0.0000 C   0  0  0  0  0  0  0  0  0  0  0  0
    8.1316    1.3800    0.0000 H   0  0  0  0  0  0  0  0  0  0  0  0
    7.3346    1.3800    0.0000 H   0  0  0  0  0  0  0  0  0  0  0  0
    6.4685   -0.0699    0.0000 H   0  0  0  0  0  0  0  0  0  0  0  0
    7.2656   -0.0699    0.0000 H   0  0  0  0  0  0  0  0  0  0  0  0
    8.2006   -0.0699    0.0000 H   0  0  0  0  0  0  0  0  0  0  0  0
    8.9976   -0.0699    0.0000 H   0  0  0  0  0  0  0  0  0  0  0  0
    6.3996    1.3800    0.0000 H   0  0  0  0  0  0  0  0  0  0  0  0
    5.6025    1.3800    0.0000 H   0  0  0  0  0  0  0  0  0  0  0  0
    9.8637    1.3800    0.0000 H   0  0  0  0  0  0  0  0  0  0  0  0
    9.0666    1.3800    0.0000 H   0  0  0  0  0  0  0  0  0  0  0  0
    5.8711   -0.0200    0.0000 H   0  0  0  0  0  0  0  0  0  0  0  0
    9.9326   -0.0699    0.0000 H   0  0  0  0  0  0  0  0  0  0  0  0
   10.7297   -0.0699    0.0000 H   0  0  0  0  0  0  0  0  0  0  0  0
    4.6675    1.3800    0.0000 H   0  0  0  0  0  0  0  0  0  0  0  0
    3.8705    1.3800    0.0000 H   0  0  0  0  0  0  0  0  0  0  0  0
   11.5072    0.3681    0.0000 H   0  0  0  0  0  0  0  0  0  0  0  0
   11.7341    1.2150    0.0000 H   0  0  0  0  0  0  0  0  0  0  0  0
   10.8872    1.4419    0.0000 H   0  0  0  0  0  0  0  0  0  0  0  0
    4.5981   -0.9050    0.0000 H   0  0  0  0  0  0  0  0  0  0  0  0
    2.0000   -0.4050    0.0000 H   0  0  0  0  0  0  0  0  0  0  0  0
  1  7  1  0  0  0  0
  1 31  1  0  0  0  0
  2  3  1  0  0  0  0
  2  4  1  0  0  0  0
  2 13  1  0  0  0  0
  2 14  1  0  0  0  0
  3  5  1  0  0  0  0
  3 15  1  0  0  0  0
  3 16  1  0  0  0  0
  4  6  1  0  0  0  0
  4 17  1  0  0  0  0
  4 18  1  0  0  0  0
  5  7  1  0  0  0  0
  5 19  1  0  0  0  0
  5 20  1  0  0  0  0
  6  8  1  0  0  0  0
  6 21  1  0  0  0  0
  6 22  1  0  0  0  0
  7  9  1  0  0  0  0
  7 23  1  0  0  0  0
  8 10  1  0  0  0  0
  8 24  1  0  0  0  0
  8 25  1  0  0  0  0
  9 11  1  0  0  0  0
  9 26  1  0  0  0  0
  9 27  1  0  0  0  0
 10 28  1  0  0  0  0
 10 29  1  0  0  0  0
 10 30  1  0  0  0  0
 11 12  3  0  0  0  0
 12 32  1  0  0  0  0
M  END
> <PUBCHEM_COMPOUND_CID>
519920
> <PUBCHEM_COMPOUND_CANONICALIZED>
1
> <PUBCHEM_CACTVS_COMPLEXITY>
131
> <PUBCHEM_CACTVS_HBOND_ACCEPTOR>
1
> <PUBCHEM_CACTVS_HBOND_DONOR>
1
> <PUBCHEM_CACTVS_ROTATABLE_BOND>
7
> <PUBCHEM_CACTVS_SUBSKEYS>
AAADceBwIAAAAAAAAAAAAAAAAAAAAAAAAAAAAAAAAAAAAAAAAAAAGgAACAAACBSggAICAAAAAgBAGAAAAAgAAAAAAAAAAAAAAAAAEAIAAAAAQAAEAAAAAAGAwKAAAAAAAAAAAAAAAAAAAAAAAAAAAAAAAA==
> <PUBCHEM_IUPAC_OPENEYE_NAME>
undec-1-yn-4-ol
> <PUBCHEM_IUPAC_CAS_NAME>
1-undecyn-4-ol
> <PUBCHEM_IUPAC_NAME_MARKUP>
undec-1-yn-4-ol
> <PUBCHEM_IUPAC_NAME>
undec-1-yn-4-ol
> <PUBCHEM_IUPAC_SYSTEMATIC_NAME>
undec-1-yn-4-ol
> <PUBCHEM_IUPAC_TRADITIONAL_NAME>
undec-1-yn-4-ol
> <PUBCHEM_IUPAC_INCHI>
InChI=1S/C11H20O/c1-3-5-6-7-8-10-11(12)9-4-2/h2,11-12H,3,5-10H2,1H3
> <PUBCHEM_IUPAC_INCHIKEY>
IBEKWLNDNQDLQS-UHFFFAOYSA-N
> <PUBCHEM_XLOGP3_AA>
3.6
> <PUBCHEM_EXACT_MASS>
168.151415257
> <PUBCHEM_MOLECULAR_FORMULA>
C11H20O
> <PUBCHEM_MOLECULAR_WEIGHT>
168.28
> <PUBCHEM_OPENEYE_CAN_SMILES>
CCCCCCCC(CC#C)O
> <PUBCHEM_OPENEYE_ISO_SMILES>
CCCCCCCC(CC#C)O
> <PUBCHEM_CACTVS_TPSA>
20.2
> <PUBCHEM_MONOISOTOPIC_WEIGHT>
168.151415257
> <PUBCHEM_TOTAL_CHARGE>
0
> <PUBCHEM_HEAVY_ATOM_COUNT>
12
> <PUBCHEM_ATOM_DEF_STEREO_COUNT>
0
> <PUBCHEM_ATOM_UDEF_STEREO_COUNT>
1
> <PUBCHEM_BOND_DEF_STEREO_COUNT>
0
> <PUBCHEM_BOND_UDEF_STEREO_COUNT>
0
> <PUBCHEM_ISOTOPIC_ATOM_COUNT>
0
> <PUBCHEM_COMPONENT_COUNT>
1
> <PUBCHEM_CACTVS_TAUTO_COUNT>
1
> <PUBCHEM_COORDINATE_TYPE>
1
5
255
> <PUBCHEM_BONDANNOTATIONS>
7  23  3
$$$$
