519998
  -OEChem-10302200292D
 24 23  0     1  0  0  0  0  0999 V2000
    2.0000   -0.8170    0.0000 Cl  0  0  0  0  0  0  0  0  0  0  0  0
    3.7320    1.1830    0.0000 Cl  0  0  0  0  0  0  0  0  0  0  0  0
    2.8660   -0.3170    0.0000 C   0  0  0  0  0  0  0  0  0  0  0  0
    3.7320    0.1830    0.0000 C   0  0  3  0  0  0  0  0  0  0  0  0
    2.3660    0.5490    0.0000 C   0  0  0  0  0  0  0  0  0  0  0  0
    3.3660   -1.1830    0.0000 C   0  0  0  0  0  0  0  0  0  0  0  0
    4.5981   -0.3170    0.0000 C   0  0  0  0  0  0  0  0  0  0  0  0
    5.4641    0.1830    0.0000 C   0  0  0  0  0  0  0  0  0  0  0  0
    6.3301   -0.3170    0.0000 C   0  0  0  0  0  0  0  0  0  0  0  0
    5.4641    1.1830    0.0000 C   0  0  0  0  0  0  0  0  0  0  0  0
    4.2690    0.4930    0.0000 H   0  0  0  0  0  0  0  0  0  0  0  0
    2.9030    0.8590    0.0000 H   0  0  0  0  0  0  0  0  0  0  0  0
    2.0560    1.0860    0.0000 H   0  0  0  0  0  0  0  0  0  0  0  0
    1.8291    0.2390    0.0000 H   0  0  0  0  0  0  0  0  0  0  0  0
    2.8291   -1.4930    0.0000 H   0  0  0  0  0  0  0  0  0  0  0  0
    3.6760   -1.7200    0.0000 H   0  0  0  0  0  0  0  0  0  0  0  0
    3.9030   -0.8730    0.0000 H   0  0  0  0  0  0  0  0  0  0  0  0
    4.5981   -0.9370    0.0000 H   0  0  0  0  0  0  0  0  0  0  0  0
    6.0201   -0.8539    0.0000 H   0  0  0  0  0  0  0  0  0  0  0  0
    6.8671   -0.6270    0.0000 H   0  0  0  0  0  0  0  0  0  0  0  0
    6.6401    0.2199    0.0000 H   0  0  0  0  0  0  0  0  0  0  0  0
    6.0841    1.1830    0.0000 H   0  0  0  0  0  0  0  0  0  0  0  0
    5.4641    1.8030    0.0000 H   0  0  0  0  0  0  0  0  0  0  0  0
    4.8441    1.1830    0.0000 H   0  0  0  0  0  0  0  0  0  0  0  0
  1  3  1  0  0  0  0
  2  4  1  0  0  0  0
  3  4  1  0  0  0  0
  3  5  1  0  0  0  0
  3  6  1  0  0  0  0
  4  7  1  0  0  0  0
  4 11  1  0  0  0  0
  5 12  1  0  0  0  0
  5 13  1  0  0  0  0
  5 14  1  0  0  0  0
  6 15  1  0  0  0  0
  6 16  1  0  0  0  0
  6 17  1  0  0  0  0
  7  8  2  0  0  0  0
  7 18  1  0  0  0  0
  8  9  1  0  0  0  0
  8 10  1  0  0  0  0
  9 19  1  0  0  0  0
  9 20  1  0  0  0  0
  9 21  1  0  0  0  0
 10 22  1  0  0  0  0
 10 23  1  0  0  0  0
 10 24  1  0  0  0  0
M  END
> <PUBCHEM_COMPOUND_CID>
519998
> <PUBCHEM_COMPOUND_CANONICALIZED>
1
> <PUBCHEM_CACTVS_COMPLEXITY>
132
> <PUBCHEM_CACTVS_HBOND_ACCEPTOR>
0
> <PUBCHEM_CACTVS_HBOND_DONOR>
0
> <PUBCHEM_CACTVS_ROTATABLE_BOND>
2
> <PUBCHEM_CACTVS_SUBSKEYS>
AAADccBwAAAGAAAAAAAAAAAAAAAAAAAAAAAAAAAAAAAAAAAAAAAAGAIAAAAADAOAAEACAAAAAACAAiBCAAAAAAAgAAAACEAAAggAAAAAAQAAAAAAgAAIAAIAAAAIAAAAAAAAAAAAAAAAAAAAAAAAAAAAAA==
> <PUBCHEM_IUPAC_OPENEYE_NAME>
4,5-dichloro-2,5-dimethyl-hex-2-ene
> <PUBCHEM_IUPAC_CAS_NAME>
4,5-dichloro-2,5-dimethyl-2-hexene
> <PUBCHEM_IUPAC_NAME_MARKUP>
4,5-dichloro-2,5-dimethylhex-2-ene
> <PUBCHEM_IUPAC_NAME>
4,5-dichloro-2,5-dimethylhex-2-ene
> <PUBCHEM_IUPAC_SYSTEMATIC_NAME>
4,5-bis(chloranyl)-2,5-dimethyl-hex-2-ene
> <PUBCHEM_IUPAC_TRADITIONAL_NAME>
4,5-dichloro-2,5-dimethyl-hex-2-ene
> <PUBCHEM_IUPAC_INCHI>
InChI=1S/C8H14Cl2/c1-6(2)5-7(9)8(3,4)10/h5,7H,1-4H3
> <PUBCHEM_IUPAC_INCHIKEY>
OQGJAXHJJNMURO-UHFFFAOYSA-N
> <PUBCHEM_XLOGP3_AA>
3.6
> <PUBCHEM_EXACT_MASS>
180.0472558
> <PUBCHEM_MOLECULAR_FORMULA>
C8H14Cl2
> <PUBCHEM_MOLECULAR_WEIGHT>
181.10
> <PUBCHEM_OPENEYE_CAN_SMILES>
CC(=CC(C(C)(C)Cl)Cl)C
> <PUBCHEM_OPENEYE_ISO_SMILES>
CC(=CC(C(C)(C)Cl)Cl)C
> <PUBCHEM_CACTVS_TPSA>
0
> <PUBCHEM_MONOISOTOPIC_WEIGHT>
180.0472558
> <PUBCHEM_TOTAL_CHARGE>
0
> <PUBCHEM_HEAVY_ATOM_COUNT>
10
> <PUBCHEM_ATOM_DEF_STEREO_COUNT>
0
> <PUBCHEM_ATOM_UDEF_STEREO_COUNT>
1
> <PUBCHEM_BOND_DEF_STEREO_COUNT>
0
> <PUBCHEM_BOND_UDEF_STEREO_COUNT>
0
> <PUBCHEM_ISOTOPIC_ATOM_COUNT>
0
> <PUBCHEM_COMPONENT_COUNT>
1
> <PUBCHEM_CACTVS_TAUTO_COUNT>
-1
> <PUBCHEM_COORDINATE_TYPE>
1
5
255
> <PUBCHEM_BONDANNOTATIONS>
4  2  3
$$$$
