519917
  -OEChem-10302200292D
 33 34  0     1  0  0  0  0  0999 V2000
    4.5981    0.2500    0.0000 O   0  0  0  0  0  0  0  0  0  0  0  0
    2.0000   -1.2500    0.0000 O   0  0  0  0  0  0  0  0  0  0  0  0
    2.8660    0.2500    0.0000 O   0  0  0  0  0  0  0  0  0  0  0  0
    3.7320   -1.2500    0.0000 C   0  0  3  0  0  0  0  0  0  0  0  0
    4.5981   -1.7500    0.0000 C   0  0  0  0  0  0  0  0  0  0  0  0
    4.5981   -2.7500    0.0000 C   0  0  0  0  0  0  0  0  0  0  0  0
    3.7320   -3.2500    0.0000 C   0  0  0  0  0  0  0  0  0  0  0  0
    2.8660   -2.7500    0.0000 C   0  0  0  0  0  0  0  0  0  0  0  0
    2.8660   -1.7500    0.0000 C   0  0  0  0  0  0  0  0  0  0  0  0
    3.7320   -0.2500    0.0000 C   0  0  0  0  0  0  0  0  0  0  0  0
    4.5981    1.2500    0.0000 C   0  0  0  0  0  0  0  0  0  0  0  0
    5.4641    1.7500    0.0000 C   0  0  0  0  0  0  0  0  0  0  0  0
    6.3301    1.2500    0.0000 C   0  0  0  0  0  0  0  0  0  0  0  0
    5.4641    2.7500    0.0000 C   0  0  0  0  0  0  0  0  0  0  0  0
    7.1962    1.7500    0.0000 C   0  0  0  0  0  0  0  0  0  0  0  0
    6.3301    3.2500    0.0000 C   0  0  0  0  0  0  0  0  0  0  0  0
    7.1962    2.7500    0.0000 C   0  0  0  0  0  0  0  0  0  0  0  0
    4.2690   -0.9400    0.0000 H   0  0  0  0  0  0  0  0  0  0  0  0
    5.2087   -1.8577    0.0000 H   0  0  0  0  0  0  0  0  0  0  0  0
    4.8101   -1.1674    0.0000 H   0  0  0  0  0  0  0  0  0  0  0  0
    4.8101   -3.3326    0.0000 H   0  0  0  0  0  0  0  0  0  0  0  0
    5.2087   -2.6423    0.0000 H   0  0  0  0  0  0  0  0  0  0  0  0
    3.3335   -3.7250    0.0000 H   0  0  0  0  0  0  0  0  0  0  0  0
    4.1306   -3.7250    0.0000 H   0  0  0  0  0  0  0  0  0  0  0  0
    2.2554   -2.6423    0.0000 H   0  0  0  0  0  0  0  0  0  0  0  0
    2.6540   -3.3326    0.0000 H   0  0  0  0  0  0  0  0  0  0  0  0
    4.3860    1.8326    0.0000 H   0  0  0  0  0  0  0  0  0  0  0  0
    3.9875    1.1423    0.0000 H   0  0  0  0  0  0  0  0  0  0  0  0
    6.3301    0.6300    0.0000 H   0  0  0  0  0  0  0  0  0  0  0  0
    4.9272    3.0600    0.0000 H   0  0  0  0  0  0  0  0  0  0  0  0
    7.7331    1.4400    0.0000 H   0  0  0  0  0  0  0  0  0  0  0  0
    6.3301    3.8700    0.0000 H   0  0  0  0  0  0  0  0  0  0  0  0
    7.7331    3.0600    0.0000 H   0  0  0  0  0  0  0  0  0  0  0  0
  1 10  1  0  0  0  0
  1 11  1  0  0  0  0
  2  9  2  0  0  0  0
  3 10  2  0  0  0  0
  4  5  1  0  0  0  0
  4  9  1  0  0  0  0
  4 10  1  0  0  0  0
  4 18  1  0  0  0  0
  5  6  1  0  0  0  0
  5 19  1  0  0  0  0
  5 20  1  0  0  0  0
  6  7  1  0  0  0  0
  6 21  1  0  0  0  0
  6 22  1  0  0  0  0
  7  8  1  0  0  0  0
  7 23  1  0  0  0  0
  7 24  1  0  0  0  0
  8  9  1  0  0  0  0
  8 25  1  0  0  0  0
  8 26  1  0  0  0  0
 11 12  1  0  0  0  0
 11 27  1  0  0  0  0
 11 28  1  0  0  0  0
 12 13  2  0  0  0  0
 12 14  1  0  0  0  0
 13 15  1  0  0  0  0
 13 29  1  0  0  0  0
 14 16  2  0  0  0  0
 14 30  1  0  0  0  0
 15 17  2  0  0  0  0
 15 31  1  0  0  0  0
 16 17  1  0  0  0  0
 16 32  1  0  0  0  0
 17 33  1  0  0  0  0
M  END
> <PUBCHEM_COMPOUND_CID>
519917
> <PUBCHEM_COMPOUND_CANONICALIZED>
1
> <PUBCHEM_CACTVS_COMPLEXITY>
279
> <PUBCHEM_CACTVS_HBOND_ACCEPTOR>
3
> <PUBCHEM_CACTVS_HBOND_DONOR>
0
> <PUBCHEM_CACTVS_ROTATABLE_BOND>
4
> <PUBCHEM_CACTVS_SUBSKEYS>
AAADceBwMAAAAAAAAAAAAAAAAAAAAAAAAAAwYAAAAAAAAAABAAAAGgAAAAAADQSgmAIwCIAABACIAqDSCAACAAAgAAAIiAEACIgIJjaIMRiCMAAk4AEIqAeIyCCOAAAAAAAAAAAAAAAAAAAAAAAAAAAAAA==
> <PUBCHEM_IUPAC_OPENEYE_NAME>
benzyl 2-oxocyclohexanecarboxylate
> <PUBCHEM_IUPAC_CAS_NAME>
2-oxo-1-cyclohexanecarboxylic acid (phenylmethyl) ester
> <PUBCHEM_IUPAC_NAME_MARKUP>
benzyl 2-oxocyclohexane-1-carboxylate
> <PUBCHEM_IUPAC_NAME>
benzyl 2-oxocyclohexane-1-carboxylate
> <PUBCHEM_IUPAC_SYSTEMATIC_NAME>
(phenylmethyl) 2-oxidanylidenecyclohexane-1-carboxylate
> <PUBCHEM_IUPAC_TRADITIONAL_NAME>
2-ketocyclohexanecarboxylic acid benzyl ester
> <PUBCHEM_IUPAC_INCHI>
InChI=1S/C14H16O3/c15-13-9-5-4-8-12(13)14(16)17-10-11-6-2-1-3-7-11/h1-3,6-7,12H,4-5,8-10H2
> <PUBCHEM_IUPAC_INCHIKEY>
UZOGMVJYLSQKCU-UHFFFAOYSA-N
> <PUBCHEM_XLOGP3_AA>
2.6
> <PUBCHEM_EXACT_MASS>
232.109944368
> <PUBCHEM_MOLECULAR_FORMULA>
C14H16O3
> <PUBCHEM_MOLECULAR_WEIGHT>
232.27
> <PUBCHEM_OPENEYE_CAN_SMILES>
C1CCC(=O)C(C1)C(=O)OCC2=CC=CC=C2
> <PUBCHEM_OPENEYE_ISO_SMILES>
C1CCC(=O)C(C1)C(=O)OCC2=CC=CC=C2
> <PUBCHEM_CACTVS_TPSA>
43.4
> <PUBCHEM_MONOISOTOPIC_WEIGHT>
232.109944368
> <PUBCHEM_TOTAL_CHARGE>
0
> <PUBCHEM_HEAVY_ATOM_COUNT>
17
> <PUBCHEM_ATOM_DEF_STEREO_COUNT>
0
> <PUBCHEM_ATOM_UDEF_STEREO_COUNT>
1
> <PUBCHEM_BOND_DEF_STEREO_COUNT>
0
> <PUBCHEM_BOND_UDEF_STEREO_COUNT>
0
> <PUBCHEM_ISOTOPIC_ATOM_COUNT>
0
> <PUBCHEM_COMPONENT_COUNT>
1
> <PUBCHEM_CACTVS_TAUTO_COUNT>
-1
> <PUBCHEM_COORDINATE_TYPE>
1
5
255
> <PUBCHEM_BONDANNOTATIONS>
12  13  8
12  14  8
13  15  8
14  16  8
15  17  8
16  17  8
4  10  3
$$$$
