520052
  -OEChem-10302200292D
 31 30  0     1  0  0  0  0  0999 V2000
    3.3660   -1.6760    0.0000 F   0  0  0  0  0  0  0  0  0  0  0  0
    2.0000   -1.3100    0.0000 F   0  0  0  0  0  0  0  0  0  0  0  0
    2.3660    0.0560    0.0000 F   0  0  0  0  0  0  0  0  0  0  0  0
    7.1962   -0.3100    0.0000 O   0  0  0  0  0  0  0  0  0  0  0  0
    6.3301    1.1900    0.0000 O   0  0  0  0  0  0  0  0  0  0  0  0
    6.3301   -1.8100    0.0000 O   0  0  0  0  0  0  0  0  0  0  0  0
    3.7320    0.6900    0.0000 O   0  0  0  0  0  0  0  0  0  0  0  0
    4.5981   -0.8100    0.0000 N   0  0  0  0  0  0  0  0  0  0  0  0
    5.4641   -0.3100    0.0000 C   0  0  3  0  0  0  0  0  0  0  0  0
    8.9282   -0.3100    0.0000 C   0  0  0  0  0  0  0  0  0  0  0  0
    8.0622   -0.8100    0.0000 C   0  0  0  0  0  0  0  0  0  0  0  0
    9.7942   -0.8100    0.0000 C   0  0  0  0  0  0  0  0  0  0  0  0
    5.4641    0.6900    0.0000 C   0  0  0  0  0  0  0  0  0  0  0  0
    6.3301   -0.8100    0.0000 C   0  0  0  0  0  0  0  0  0  0  0  0
   10.6603   -0.3100    0.0000 C   0  0  0  0  0  0  0  0  0  0  0  0
    3.7320   -0.3100    0.0000 C   0  0  0  0  0  0  0  0  0  0  0  0
    2.8660   -0.8100    0.0000 C   0  0  0  0  0  0  0  0  0  0  0  0
    5.4641   -0.9300    0.0000 H   0  0  0  0  0  0  0  0  0  0  0  0
    9.3267    0.1649    0.0000 H   0  0  0  0  0  0  0  0  0  0  0  0
    8.5297    0.1649    0.0000 H   0  0  0  0  0  0  0  0  0  0  0  0
    7.6636   -1.2850    0.0000 H   0  0  0  0  0  0  0  0  0  0  0  0
    8.4607   -1.2850    0.0000 H   0  0  0  0  0  0  0  0  0  0  0  0
    9.3957   -1.2850    0.0000 H   0  0  0  0  0  0  0  0  0  0  0  0
   10.1928   -1.2850    0.0000 H   0  0  0  0  0  0  0  0  0  0  0  0
    5.2520    1.2726    0.0000 H   0  0  0  0  0  0  0  0  0  0  0  0
    4.8535    0.5823    0.0000 H   0  0  0  0  0  0  0  0  0  0  0  0
    4.5981   -1.4300    0.0000 H   0  0  0  0  0  0  0  0  0  0  0  0
   10.9703   -0.8469    0.0000 H   0  0  0  0  0  0  0  0  0  0  0  0
   11.1972   -0.0000    0.0000 H   0  0  0  0  0  0  0  0  0  0  0  0
   10.3503    0.2269    0.0000 H   0  0  0  0  0  0  0  0  0  0  0  0
    6.3301    1.8100    0.0000 H   0  0  0  0  0  0  0  0  0  0  0  0
  1 17  1  0  0  0  0
  2 17  1  0  0  0  0
  3 17  1  0  0  0  0
  4 11  1  0  0  0  0
  4 14  1  0  0  0  0
  5 13  1  0  0  0  0
  5 31  1  0  0  0  0
  6 14  2  0  0  0  0
  7 16  2  0  0  0  0
  8  9  1  0  0  0  0
  8 16  1  0  0  0  0
  8 27  1  0  0  0  0
  9 13  1  0  0  0  0
  9 14  1  0  0  0  0
  9 18  1  0  0  0  0
 10 11  1  0  0  0  0
 10 12  1  0  0  0  0
 10 19  1  0  0  0  0
 10 20  1  0  0  0  0
 11 21  1  0  0  0  0
 11 22  1  0  0  0  0
 12 15  1  0  0  0  0
 12 23  1  0  0  0  0
 12 24  1  0  0  0  0
 13 25  1  0  0  0  0
 13 26  1  0  0  0  0
 15 28  1  0  0  0  0
 15 29  1  0  0  0  0
 15 30  1  0  0  0  0
 16 17  1  0  0  0  0
M  END
> <PUBCHEM_COMPOUND_CID>
520052
> <PUBCHEM_COMPOUND_CANONICALIZED>
1
> <PUBCHEM_CACTVS_COMPLEXITY>
268
> <PUBCHEM_CACTVS_HBOND_ACCEPTOR>
7
> <PUBCHEM_CACTVS_HBOND_DONOR>
2
> <PUBCHEM_CACTVS_ROTATABLE_BOND>
7
> <PUBCHEM_CACTVS_SUBSKEYS>
AAADccByOYAAAAAAAAAAAAAAAAAAAAAAAAAAAAAAAAAAAAAAAAAAHwAQCAAACCjhgBYCCALABgAIAAGQGAAAAAAAAAAAAIGIAAACEAQAACADQAAFNgCQAAAAAAAAAAAAAAAAAAAAAAAAAAAAAAAAAAAAAA==
> <PUBCHEM_IUPAC_OPENEYE_NAME>
butyl 3-hydroxy-2-[(2,2,2-trifluoroacetyl)amino]propanoate
> <PUBCHEM_IUPAC_CAS_NAME>
3-hydroxy-2-[(2,2,2-trifluoro-1-oxoethyl)amino]propanoic acid butyl ester
> <PUBCHEM_IUPAC_NAME_MARKUP>
butyl 3-hydroxy-2-[(2,2,2-trifluoroacetyl)amino]propanoate
> <PUBCHEM_IUPAC_NAME>
butyl 3-hydroxy-2-[(2,2,2-trifluoroacetyl)amino]propanoate
> <PUBCHEM_IUPAC_SYSTEMATIC_NAME>
butyl 3-oxidanyl-2-[2,2,2-tris(fluoranyl)ethanoylamino]propanoate
> <PUBCHEM_IUPAC_TRADITIONAL_NAME>
3-hydroxy-2-[(2,2,2-trifluoroacetyl)amino]propionic acid butyl ester
> <PUBCHEM_IUPAC_INCHI>
InChI=1S/C9H14F3NO4/c1-2-3-4-17-7(15)6(5-14)13-8(16)9(10,11)12/h6,14H,2-5H2,1H3,(H,13,16)
> <PUBCHEM_IUPAC_INCHIKEY>
YRBVCQWRGDWXAR-UHFFFAOYSA-N
> <PUBCHEM_XLOGP3_AA>
1.2
> <PUBCHEM_EXACT_MASS>
257.08749241
> <PUBCHEM_MOLECULAR_FORMULA>
C9H14F3NO4
> <PUBCHEM_MOLECULAR_WEIGHT>
257.21
> <PUBCHEM_OPENEYE_CAN_SMILES>
CCCCOC(=O)C(CO)NC(=O)C(F)(F)F
> <PUBCHEM_OPENEYE_ISO_SMILES>
CCCCOC(=O)C(CO)NC(=O)C(F)(F)F
> <PUBCHEM_CACTVS_TPSA>
75.6
> <PUBCHEM_MONOISOTOPIC_WEIGHT>
257.08749241
> <PUBCHEM_TOTAL_CHARGE>
0
> <PUBCHEM_HEAVY_ATOM_COUNT>
17
> <PUBCHEM_ATOM_DEF_STEREO_COUNT>
0
> <PUBCHEM_ATOM_UDEF_STEREO_COUNT>
1
> <PUBCHEM_BOND_DEF_STEREO_COUNT>
0
> <PUBCHEM_BOND_UDEF_STEREO_COUNT>
0
> <PUBCHEM_ISOTOPIC_ATOM_COUNT>
0
> <PUBCHEM_COMPONENT_COUNT>
1
> <PUBCHEM_CACTVS_TAUTO_COUNT>
-1
> <PUBCHEM_COORDINATE_TYPE>
1
5
255
> <PUBCHEM_BONDANNOTATIONS>
9  13  3
$$$$
