520053
  -OEChem-10302200292D
 37 36  0     1  0  0  0  0  0999 V2000
    6.3301   -1.7500    0.0000 S   0  0  0  0  0  0  0  0  0  0  0  0
    2.0000    1.7500    0.0000 F   0  0  0  0  0  0  0  0  0  0  0  0
    2.3660    0.3840    0.0000 F   0  0  0  0  0  0  0  0  0  0  0  0
    3.3660    2.1160    0.0000 F   0  0  0  0  0  0  0  0  0  0  0  0
    7.1962    0.7500    0.0000 O   0  0  0  0  0  0  0  0  0  0  0  0
    6.3301    2.2500    0.0000 O   0  0  0  0  0  0  0  0  0  0  0  0
    3.7320   -0.2500    0.0000 O   0  0  0  0  0  0  0  0  0  0  0  0
    4.5981    1.2500    0.0000 N   0  0  0  0  0  0  0  0  0  0  0  0
    5.4641    0.7500    0.0000 C   0  0  3  0  0  0  0  0  0  0  0  0
    5.4641   -0.2500    0.0000 C   0  0  0  0  0  0  0  0  0  0  0  0
    6.3301   -0.7500    0.0000 C   0  0  0  0  0  0  0  0  0  0  0  0
    6.3301    1.2500    0.0000 C   0  0  0  0  0  0  0  0  0  0  0  0
    8.9282    0.7500    0.0000 C   0  0  0  0  0  0  0  0  0  0  0  0
    8.0622    1.2500    0.0000 C   0  0  0  0  0  0  0  0  0  0  0  0
    9.7942    1.2500    0.0000 C   0  0  0  0  0  0  0  0  0  0  0  0
    3.7320    0.7500    0.0000 C   0  0  0  0  0  0  0  0  0  0  0  0
   10.6603    0.7500    0.0000 C   0  0  0  0  0  0  0  0  0  0  0  0
    2.8660    1.2500    0.0000 C   0  0  0  0  0  0  0  0  0  0  0  0
    7.1962   -2.2500    0.0000 C   0  0  0  0  0  0  0  0  0  0  0  0
    5.4641    1.3700    0.0000 H   0  0  0  0  0  0  0  0  0  0  0  0
    4.8535   -0.1423    0.0000 H   0  0  0  0  0  0  0  0  0  0  0  0
    5.2520   -0.8326    0.0000 H   0  0  0  0  0  0  0  0  0  0  0  0
    6.9407   -0.8577    0.0000 H   0  0  0  0  0  0  0  0  0  0  0  0
    6.5422   -0.1674    0.0000 H   0  0  0  0  0  0  0  0  0  0  0  0
    8.5297    0.2751    0.0000 H   0  0  0  0  0  0  0  0  0  0  0  0
    9.3267    0.2751    0.0000 H   0  0  0  0  0  0  0  0  0  0  0  0
    4.5981    1.8700    0.0000 H   0  0  0  0  0  0  0  0  0  0  0  0
    8.4607    1.7250    0.0000 H   0  0  0  0  0  0  0  0  0  0  0  0
    7.6636    1.7250    0.0000 H   0  0  0  0  0  0  0  0  0  0  0  0
   10.1928    1.7250    0.0000 H   0  0  0  0  0  0  0  0  0  0  0  0
    9.3957    1.7250    0.0000 H   0  0  0  0  0  0  0  0  0  0  0  0
   10.3503    0.2131    0.0000 H   0  0  0  0  0  0  0  0  0  0  0  0
   11.1972    0.4400    0.0000 H   0  0  0  0  0  0  0  0  0  0  0  0
   10.9703    1.2869    0.0000 H   0  0  0  0  0  0  0  0  0  0  0  0
    6.8862   -2.7869    0.0000 H   0  0  0  0  0  0  0  0  0  0  0  0
    7.7331   -2.5600    0.0000 H   0  0  0  0  0  0  0  0  0  0  0  0
    7.5062   -1.7131    0.0000 H   0  0  0  0  0  0  0  0  0  0  0  0
  1 11  1  0  0  0  0
  1 19  1  0  0  0  0
  2 18  1  0  0  0  0
  3 18  1  0  0  0  0
  4 18  1  0  0  0  0
  5 12  1  0  0  0  0
  5 14  1  0  0  0  0
  6 12  2  0  0  0  0
  7 16  2  0  0  0  0
  8  9  1  0  0  0  0
  8 16  1  0  0  0  0
  8 27  1  0  0  0  0
  9 10  1  0  0  0  0
  9 12  1  0  0  0  0
  9 20  1  0  0  0  0
 10 11  1  0  0  0  0
 10 21  1  0  0  0  0
 10 22  1  0  0  0  0
 11 23  1  0  0  0  0
 11 24  1  0  0  0  0
 13 14  1  0  0  0  0
 13 15  1  0  0  0  0
 13 25  1  0  0  0  0
 13 26  1  0  0  0  0
 14 28  1  0  0  0  0
 14 29  1  0  0  0  0
 15 17  1  0  0  0  0
 15 30  1  0  0  0  0
 15 31  1  0  0  0  0
 16 18  1  0  0  0  0
 17 32  1  0  0  0  0
 17 33  1  0  0  0  0
 17 34  1  0  0  0  0
 19 35  1  0  0  0  0
 19 36  1  0  0  0  0
 19 37  1  0  0  0  0
M  END
> <PUBCHEM_COMPOUND_CID>
520053
> <PUBCHEM_COMPOUND_CANONICALIZED>
1
> <PUBCHEM_CACTVS_COMPLEXITY>
297
> <PUBCHEM_CACTVS_HBOND_ACCEPTOR>
7
> <PUBCHEM_CACTVS_HBOND_DONOR>
1
> <PUBCHEM_CACTVS_ROTATABLE_BOND>
9
> <PUBCHEM_CACTVS_SUBSKEYS>
AAADceByMYBAAAAAAAAAAAAAAAAAAAAAAAAAAAAAAAAAAAAAAAAAHwQQAAAACCjlwBaCCALABAgIAAGQGAAAAAAAABAAAIGIAAACABAgACAHAAAEFgCQAAAAAAAAAAAAAAAAAAAAAAAAAAAAAAAAAAAAAA==
> <PUBCHEM_IUPAC_OPENEYE_NAME>
butyl 4-methylsulfanyl-2-[(2,2,2-trifluoroacetyl)amino]butanoate
> <PUBCHEM_IUPAC_CAS_NAME>
4-(methylthio)-2-[(2,2,2-trifluoro-1-oxoethyl)amino]butanoic acid butyl ester
> <PUBCHEM_IUPAC_NAME_MARKUP>
butyl 4-methylsulfanyl-2-[(2,2,2-trifluoroacetyl)amino]butanoate
> <PUBCHEM_IUPAC_NAME>
butyl 4-methylsulfanyl-2-[(2,2,2-trifluoroacetyl)amino]butanoate
> <PUBCHEM_IUPAC_SYSTEMATIC_NAME>
butyl 4-methylsulfanyl-2-[2,2,2-tris(fluoranyl)ethanoylamino]butanoate
> <PUBCHEM_IUPAC_TRADITIONAL_NAME>
4-(methylthio)-2-[(2,2,2-trifluoroacetyl)amino]butyric acid butyl ester
> <PUBCHEM_IUPAC_INCHI>
InChI=1S/C11H18F3NO3S/c1-3-4-6-18-9(16)8(5-7-19-2)15-10(17)11(12,13)14/h8H,3-7H2,1-2H3,(H,15,17)
> <PUBCHEM_IUPAC_INCHIKEY>
GMLYSZLQJGGOFS-UHFFFAOYSA-N
> <PUBCHEM_XLOGP3_AA>
2.9
> <PUBCHEM_EXACT_MASS>
301.09594910
> <PUBCHEM_MOLECULAR_FORMULA>
C11H18F3NO3S
> <PUBCHEM_MOLECULAR_WEIGHT>
301.33
> <PUBCHEM_OPENEYE_CAN_SMILES>
CCCCOC(=O)C(CCSC)NC(=O)C(F)(F)F
> <PUBCHEM_OPENEYE_ISO_SMILES>
CCCCOC(=O)C(CCSC)NC(=O)C(F)(F)F
> <PUBCHEM_CACTVS_TPSA>
80.7
> <PUBCHEM_MONOISOTOPIC_WEIGHT>
301.09594910
> <PUBCHEM_TOTAL_CHARGE>
0
> <PUBCHEM_HEAVY_ATOM_COUNT>
19
> <PUBCHEM_ATOM_DEF_STEREO_COUNT>
0
> <PUBCHEM_ATOM_UDEF_STEREO_COUNT>
1
> <PUBCHEM_BOND_DEF_STEREO_COUNT>
0
> <PUBCHEM_BOND_UDEF_STEREO_COUNT>
0
> <PUBCHEM_ISOTOPIC_ATOM_COUNT>
0
> <PUBCHEM_COMPONENT_COUNT>
1
> <PUBCHEM_CACTVS_TAUTO_COUNT>
-1
> <PUBCHEM_COORDINATE_TYPE>
1
5
255
> <PUBCHEM_BONDANNOTATIONS>
9  10  3
$$$$
