520078
  -OEChem-10302200292D
 22 23  0     1  0  0  0  0  0999 V2000
    1.8439    0.0000    0.0000 Cl  0  0  0  0  0  0  0  0  0  0  0  0
    4.0678    5.1232    0.0000 N   0  0  0  0  0  0  0  0  0  0  0  0
    3.2018    3.6232    0.0000 C   0  0  3  0  0  0  0  0  0  0  0  0
    4.0678    4.1232    0.0000 C   0  0  3  0  0  0  0  0  0  0  0  0
    4.0681    3.1228    0.0000 C   0  0  0  0  0  0  0  0  0  0  0  0
    2.3358    4.1232    0.0000 C   0  0  0  0  0  0  0  0  0  0  0  0
    2.3358    5.1232    0.0000 C   0  0  0  0  0  0  0  0  0  0  0  0
    3.2018    5.6232    0.0000 C   0  0  0  0  0  0  0  0  0  0  0  0
    1.4418    3.5886    0.0000 C   0  0  0  0  0  0  0  0  0  0  0  0
    1.4418    5.6579    0.0000 C   0  0  0  0  0  0  0  0  0  0  0  0
    0.5357    4.1024    0.0000 C   0  0  0  0  0  0  0  0  0  0  0  0
    0.5357    5.1440    0.0000 C   0  0  0  0  0  0  0  0  0  0  0  0
    2.8917    3.0863    0.0000 H   0  0  0  0  0  0  0  0  0  0  0  0
    4.6878    4.1233    0.0000 H   0  0  0  0  0  0  0  0  0  0  0  0
    3.8560    2.5402    0.0000 H   0  0  0  0  0  0  0  0  0  0  0  0
    4.6786    3.0152    0.0000 H   0  0  0  0  0  0  0  0  0  0  0  0
    3.2018    6.2432    0.0000 H   0  0  0  0  0  0  0  0  0  0  0  0
    1.4490    2.9686    0.0000 H   0  0  0  0  0  0  0  0  0  0  0  0
    1.4490    6.2778    0.0000 H   0  0  0  0  0  0  0  0  0  0  0  0
    0.0000    3.7904    0.0000 H   0  0  0  0  0  0  0  0  0  0  0  0
    0.0000    5.4561    0.0000 H   0  0  0  0  0  0  0  0  0  0  0  0
    2.8439    0.0000    0.0000 H   0  0  0  0  0  0  0  0  0  0  0  0
  1 22  1  0  0  0  0
  2  4  1  0  0  0  0
  2  8  2  0  0  0  0
  3  4  1  0  0  0  0
  3  5  1  0  0  0  0
  3  6  1  0  0  0  0
  3 13  1  0  0  0  0
  4  5  1  0  0  0  0
  4 14  1  0  0  0  0
  5 15  1  0  0  0  0
  5 16  1  0  0  0  0
  6  7  1  0  0  0  0
  6  9  2  0  0  0  0
  7  8  1  0  0  0  0
  7 10  2  0  0  0  0
  8 17  1  0  0  0  0
  9 11  1  0  0  0  0
  9 18  1  0  0  0  0
 10 12  1  0  0  0  0
 10 19  1  0  0  0  0
 11 12  2  0  0  0  0
 11 20  1  0  0  0  0
 12 21  1  0  0  0  0
M  END
> <PUBCHEM_COMPOUND_CID>
520078
> <PUBCHEM_COMPOUND_CANONICALIZED>
1
> <PUBCHEM_CACTVS_COMPLEXITY>
197
> <PUBCHEM_CACTVS_HBOND_ACCEPTOR>
1
> <PUBCHEM_CACTVS_HBOND_DONOR>
1
> <PUBCHEM_CACTVS_ROTATABLE_BOND>
0
> <PUBCHEM_CACTVS_SUBSKEYS>
AAADccByAAAEAAAAAAAAAAAAGAAAAAAAAAAwQAAABAAAAACBAAAAHAAAAAAADSjBGAQwAIIAAACgAjBjBAACAAAgAAAIiAAgAJgIIKKAkRGAIAAggAAIiAcQgMAOgAAAAAAQAAAAAAAAACAAAAAAAAAAAA==
> <PUBCHEM_IUPAC_OPENEYE_NAME>
1a,7b-dihydro-1H-cyclopropa[c]isoquinoline;hydrochloride
> <PUBCHEM_IUPAC_CAS_NAME>
1a,7b-dihydro-1H-cyclopropa[c]isoquinoline;hydrochloride
> <PUBCHEM_IUPAC_NAME_MARKUP>
1<I>a</I>,7<I>b</I>-dihydro-1<I>H</I>-cyclopropa[c]isoquinoline;hydrochloride
> <PUBCHEM_IUPAC_NAME>
1a,7b-dihydro-1H-cyclopropa[c]isoquinoline;hydrochloride
> <PUBCHEM_IUPAC_SYSTEMATIC_NAME>
1a,7b-dihydro-1H-cyclopropa[c]isoquinoline;hydrochloride
> <PUBCHEM_IUPAC_TRADITIONAL_NAME>
1a,7b-dihydro-1H-cycloprop[c]isoquinoline;hydrochloride
> <PUBCHEM_IUPAC_INCHI>
InChI=1S/C10H9N.ClH/c1-2-4-8-7(3-1)6-11-10-5-9(8)10;/h1-4,6,9-10H,5H2;1H
> <PUBCHEM_IUPAC_INCHIKEY>
NJMJXESDNKVKQW-UHFFFAOYSA-N
> <PUBCHEM_EXACT_MASS>
179.0501770
> <PUBCHEM_MOLECULAR_FORMULA>
C10H10ClN
> <PUBCHEM_MOLECULAR_WEIGHT>
179.64
> <PUBCHEM_OPENEYE_CAN_SMILES>
C1C2C1N=CC3=CC=CC=C23.Cl
> <PUBCHEM_OPENEYE_ISO_SMILES>
C1C2C1N=CC3=CC=CC=C23.Cl
> <PUBCHEM_CACTVS_TPSA>
12.4
> <PUBCHEM_MONOISOTOPIC_WEIGHT>
179.0501770
> <PUBCHEM_TOTAL_CHARGE>
0
> <PUBCHEM_HEAVY_ATOM_COUNT>
12
> <PUBCHEM_ATOM_DEF_STEREO_COUNT>
0
> <PUBCHEM_ATOM_UDEF_STEREO_COUNT>
2
> <PUBCHEM_BOND_DEF_STEREO_COUNT>
0
> <PUBCHEM_BOND_UDEF_STEREO_COUNT>
0
> <PUBCHEM_ISOTOPIC_ATOM_COUNT>
0
> <PUBCHEM_COMPONENT_COUNT>
2
> <PUBCHEM_CACTVS_TAUTO_COUNT>
-1
> <PUBCHEM_COORDINATE_TYPE>
1
5
255
> <PUBCHEM_BONDANNOTATIONS>
10  12  8
11  12  8
3  5  3
4  5  3
6  7  8
6  9  8
7  10  8
9  11  8
$$$$
