520037
  -OEChem-10302200292D
 57 57  0     1  0  0  0  0  0999 V2000
    3.3450    0.0000    0.0000 Cl  0  0  0  0  0  0  0  0  0  0  0  0
    2.2883    6.1200    0.0000 O   0  0  0  0  0  0  0  0  0  0  0  0
    2.4223    9.6200    0.0000 O   0  5  0  0  0  0  0  0  0  0  0  0
    1.1751    4.7931    0.0000 O   0  0  0  0  0  0  0  0  0  0  0  0
    2.4223    8.6200    0.0000 N   0  3  0  0  0  0  0  0  0  0  0  0
    3.2883    7.1200    0.0000 C   0  0  3  0  0  0  0  0  0  0  0  0
    3.2883    6.1200    0.0000 C   0  0  3  0  0  0  0  0  0  0  0  0
    2.4223    7.6200    0.0000 C   0  0  0  0  0  0  0  0  0  0  0  0
    4.2883    6.1200    0.0000 C   0  0  0  0  0  0  0  0  0  0  0  0
    3.2883    5.1200    0.0000 C   0  0  0  0  0  0  0  0  0  0  0  0
    4.1544    7.6200    0.0000 C   0  0  0  0  0  0  0  0  0  0  0  0
    5.2280    6.4620    0.0000 C   0  0  0  0  0  0  0  0  0  0  0  0
    1.4223    8.6200    0.0000 C   0  0  0  0  0  0  0  0  0  0  0  0
    3.4223    8.6200    0.0000 C   0  0  0  0  0  0  0  0  0  0  0  0
    4.1544    4.6200    0.0000 C   0  0  0  0  0  0  0  0  0  0  0  0
    2.4223    4.6200    0.0000 C   0  0  0  0  0  0  0  0  0  0  0  0
    1.3486    5.7780    0.0000 C   0  0  0  0  0  0  0  0  0  0  0  0
    5.4017    7.4468    0.0000 C   0  0  0  0  0  0  0  0  0  0  0  0
    5.9941    5.8192    0.0000 C   0  0  0  0  0  0  0  0  0  0  0  0
    4.1544    3.6200    0.0000 C   0  0  0  0  0  0  0  0  0  0  0  0
    2.4223    3.6200    0.0000 C   0  0  0  0  0  0  0  0  0  0  0  0
    0.5826    6.4208    0.0000 C   0  0  0  0  0  0  0  0  0  0  0  0
    3.2883    3.1200    0.0000 C   0  0  0  0  0  0  0  0  0  0  0  0
    6.3414    7.7889    0.0000 C   0  0  0  0  0  0  0  0  0  0  0  0
    6.9338    6.1613    0.0000 C   0  0  0  0  0  0  0  0  0  0  0  0
    7.1074    7.1461    0.0000 C   0  0  0  0  0  0  0  0  0  0  0  0
    0.7563    7.4057    0.0000 C   0  0  0  0  0  0  0  0  0  0  0  0
    3.2883    7.7400    0.0000 H   0  0  0  0  0  0  0  0  0  0  0  0
    1.8117    7.7277    0.0000 H   0  0  0  0  0  0  0  0  0  0  0  0
    2.2102    7.0374    0.0000 H   0  0  0  0  0  0  0  0  0  0  0  0
    4.0428    5.5507    0.0000 H   0  0  0  0  0  0  0  0  0  0  0  0
    4.1807    6.7306    0.0000 H   0  0  0  0  0  0  0  0  0  0  0  0
    4.4644    7.0831    0.0000 H   0  0  0  0  0  0  0  0  0  0  0  0
    4.6913    7.9300    0.0000 H   0  0  0  0  0  0  0  0  0  0  0  0
    3.8444    8.1570    0.0000 H   0  0  0  0  0  0  0  0  0  0  0  0
    1.4223    9.2400    0.0000 H   0  0  0  0  0  0  0  0  0  0  0  0
    0.8023    8.6200    0.0000 H   0  0  0  0  0  0  0  0  0  0  0  0
    1.4223    8.0000    0.0000 H   0  0  0  0  0  0  0  0  0  0  0  0
    3.4223    8.0000    0.0000 H   0  0  0  0  0  0  0  0  0  0  0  0
    4.0423    8.6200    0.0000 H   0  0  0  0  0  0  0  0  0  0  0  0
    3.4223    9.2400    0.0000 H   0  0  0  0  0  0  0  0  0  0  0  0
    4.6913    4.9300    0.0000 H   0  0  0  0  0  0  0  0  0  0  0  0
    1.8854    4.9300    0.0000 H   0  0  0  0  0  0  0  0  0  0  0  0
    4.9267    7.8454    0.0000 H   0  0  0  0  0  0  0  0  0  0  0  0
    5.8864    5.2087    0.0000 H   0  0  0  0  0  0  0  0  0  0  0  0
    4.6913    3.3100    0.0000 H   0  0  0  0  0  0  0  0  0  0  0  0
    1.8854    3.3100    0.0000 H   0  0  0  0  0  0  0  0  0  0  0  0
    0.0000    6.6329    0.0000 H   0  0  0  0  0  0  0  0  0  0  0  0
    0.2726    5.8839    0.0000 H   0  0  0  0  0  0  0  0  0  0  0  0
    3.2883    2.5000    0.0000 H   0  0  0  0  0  0  0  0  0  0  0  0
    6.4490    8.3994    0.0000 H   0  0  0  0  0  0  0  0  0  0  0  0
    7.4087    5.7627    0.0000 H   0  0  0  0  0  0  0  0  0  0  0  0
    7.6900    7.3581    0.0000 H   0  0  0  0  0  0  0  0  0  0  0  0
    1.3669    7.2980    0.0000 H   0  0  0  0  0  0  0  0  0  0  0  0
    0.8640    8.0162    0.0000 H   0  0  0  0  0  0  0  0  0  0  0  0
    0.1457    7.5134    0.0000 H   0  0  0  0  0  0  0  0  0  0  0  0
    4.3450    0.0000    0.0000 H   0  0  0  0  0  0  0  0  0  0  0  0
  1 57  1  0  0  0  0
  2  7  1  0  0  0  0
  2 17  1  0  0  0  0
  3  5  1  0  0  0  0
  4 17  2  0  0  0  0
  5  8  1  0  0  0  0
  5 13  1  0  0  0  0
  5 14  1  0  0  0  0
  6  7  1  0  0  0  0
  6  8  1  0  0  0  0
  6 11  1  0  0  0  0
  6 28  1  0  0  0  0
  7  9  1  0  0  0  0
  7 10  1  0  0  0  0
  8 29  1  0  0  0  0
  8 30  1  0  0  0  0
  9 12  1  0  0  0  0
  9 31  1  0  0  0  0
  9 32  1  0  0  0  0
 10 15  2  0  0  0  0
 10 16  1  0  0  0  0
 11 33  1  0  0  0  0
 11 34  1  0  0  0  0
 11 35  1  0  0  0  0
 12 18  2  0  0  0  0
 12 19  1  0  0  0  0
 13 36  1  0  0  0  0
 13 37  1  0  0  0  0
 13 38  1  0  0  0  0
 14 39  1  0  0  0  0
 14 40  1  0  0  0  0
 14 41  1  0  0  0  0
 15 20  1  0  0  0  0
 15 42  1  0  0  0  0
 16 21  2  0  0  0  0
 16 43  1  0  0  0  0
 17 22  1  0  0  0  0
 18 24  1  0  0  0  0
 18 44  1  0  0  0  0
 19 25  2  0  0  0  0
 19 45  1  0  0  0  0
 20 23  2  0  0  0  0
 20 46  1  0  0  0  0
 21 23  1  0  0  0  0
 21 47  1  0  0  0  0
 22 27  1  0  0  0  0
 22 48  1  0  0  0  0
 22 49  1  0  0  0  0
 23 50  1  0  0  0  0
 24 26  2  0  0  0  0
 24 51  1  0  0  0  0
 25 26  1  0  0  0  0
 25 52  1  0  0  0  0
 26 53  1  0  0  0  0
 27 54  1  0  0  0  0
 27 55  1  0  0  0  0
 27 56  1  0  0  0  0
M  CHG  2   3  -1   5   1
M  END
> <PUBCHEM_COMPOUND_CID>
520037
> <PUBCHEM_COMPOUND_CANONICALIZED>
1
> <PUBCHEM_CACTVS_COMPLEXITY>
439
> <PUBCHEM_CACTVS_HBOND_ACCEPTOR>
3
> <PUBCHEM_CACTVS_HBOND_DONOR>
1
> <PUBCHEM_CACTVS_ROTATABLE_BOND>
9
> <PUBCHEM_CACTVS_SUBSKEYS>
AAADceB6MAAEAAAAAAAAAAAAAAAAAAAAAAAwYAAAAAAAAAABQAAAHgAEAAAADUTBmAQyCIMQBACIAiDSCAACAAAgAAAoiAEICIgIJiKAsRiGMAAmwAEIqAeQwOAOgAAAAAAAAAAAAAAAAAAAAAAAAAAAAA==
> <PUBCHEM_IUPAC_OPENEYE_NAME>
N,N,2-trimethyl-3,4-diphenyl-3-propanoyloxy-butan-1-amine oxide;hydrochloride
> <PUBCHEM_IUPAC_CAS_NAME>
N,N,2-trimethyl-3-(1-oxopropoxy)-3,4-diphenyl-1-butanamine oxide;hydrochloride
> <PUBCHEM_IUPAC_NAME_MARKUP>
<I>N</I>,<I>N</I>,2-trimethyl-3,4-diphenyl-3-propanoyloxybutan-1-amine oxide;hydrochloride
> <PUBCHEM_IUPAC_NAME>
N,N,2-trimethyl-3,4-diphenyl-3-propanoyloxybutan-1-amine oxide;hydrochloride
> <PUBCHEM_IUPAC_SYSTEMATIC_NAME>
N,N,2-trimethyl-3,4-diphenyl-3-propanoyloxy-butan-1-amine oxide;hydrochloride
> <PUBCHEM_IUPAC_TRADITIONAL_NAME>
N,N,2-trimethyl-3,4-diphenyl-3-propionyloxy-butan-1-amine oxide;hydrochloride
> <PUBCHEM_IUPAC_INCHI>
InChI=1S/C22H29NO3.ClH/c1-5-21(24)26-22(18(2)17-23(3,4)25,20-14-10-7-11-15-20)16-19-12-8-6-9-13-19;/h6-15,18H,5,16-17H2,1-4H3;1H
> <PUBCHEM_IUPAC_INCHIKEY>
AKGLUYFNWUKIRF-UHFFFAOYSA-N
> <PUBCHEM_EXACT_MASS>
391.1914215
> <PUBCHEM_MOLECULAR_FORMULA>
C22H30ClNO3
> <PUBCHEM_MOLECULAR_WEIGHT>
391.9
> <PUBCHEM_OPENEYE_CAN_SMILES>
CCC(=O)OC(CC1=CC=CC=C1)(C2=CC=CC=C2)C(C)C[N+](C)(C)[O-].Cl
> <PUBCHEM_OPENEYE_ISO_SMILES>
CCC(=O)OC(CC1=CC=CC=C1)(C2=CC=CC=C2)C(C)C[N+](C)(C)[O-].Cl
> <PUBCHEM_CACTVS_TPSA>
44.4
> <PUBCHEM_MONOISOTOPIC_WEIGHT>
391.1914215
> <PUBCHEM_TOTAL_CHARGE>
0
> <PUBCHEM_HEAVY_ATOM_COUNT>
27
> <PUBCHEM_ATOM_DEF_STEREO_COUNT>
0
> <PUBCHEM_ATOM_UDEF_STEREO_COUNT>
2
> <PUBCHEM_BOND_DEF_STEREO_COUNT>
0
> <PUBCHEM_BOND_UDEF_STEREO_COUNT>
0
> <PUBCHEM_ISOTOPIC_ATOM_COUNT>
0
> <PUBCHEM_COMPONENT_COUNT>
2
> <PUBCHEM_CACTVS_TAUTO_COUNT>
-1
> <PUBCHEM_COORDINATE_TYPE>
1
5
255
> <PUBCHEM_BONDANNOTATIONS>
10  15  8
10  16  8
12  18  8
12  19  8
15  20  8
16  21  8
18  24  8
19  25  8
20  23  8
21  23  8
24  26  8
25  26  8
6  11  3
7  9  3
$$$$
