520038
  -OEChem-10302200292D
 55 56  0     1  0  0  0  0  0999 V2000
    3.7057   -0.2500    0.0000 O   0  0  0  0  0  0  0  0  0  0  0  0
    3.8397    3.2500    0.0000 O   0  5  0  0  0  0  0  0  0  0  0  0
    2.5925   -1.5769    0.0000 O   0  0  0  0  0  0  0  0  0  0  0  0
    3.8397    2.2500    0.0000 N   0  3  0  0  0  0  0  0  0  0  0  0
    4.7057    0.7500    0.0000 C   0  0  3  0  0  0  0  0  0  0  0  0
    4.7057   -0.2500    0.0000 C   0  0  3  0  0  0  0  0  0  0  0  0
    3.8397    1.2500    0.0000 C   0  0  0  0  0  0  0  0  0  0  0  0
    5.7057   -0.2500    0.0000 C   0  0  0  0  0  0  0  0  0  0  0  0
    4.7057   -1.2500    0.0000 C   0  0  0  0  0  0  0  0  0  0  0  0
    5.5718    1.2500    0.0000 C   0  0  0  0  0  0  0  0  0  0  0  0
    6.6454    0.0920    0.0000 C   0  0  0  0  0  0  0  0  0  0  0  0
    2.8397    2.2500    0.0000 C   0  0  0  0  0  0  0  0  0  0  0  0
    4.8397    2.2500    0.0000 C   0  0  0  0  0  0  0  0  0  0  0  0
    5.5718   -1.7500    0.0000 C   0  0  0  0  0  0  0  0  0  0  0  0
    3.8397   -1.7500    0.0000 C   0  0  0  0  0  0  0  0  0  0  0  0
    2.7660   -0.5921    0.0000 C   0  0  0  0  0  0  0  0  0  0  0  0
    6.8191    1.0768    0.0000 C   0  0  0  0  0  0  0  0  0  0  0  0
    7.4115   -0.5508    0.0000 C   0  0  0  0  0  0  0  0  0  0  0  0
    5.5718   -2.7500    0.0000 C   0  0  0  0  0  0  0  0  0  0  0  0
    3.8397   -2.7500    0.0000 C   0  0  0  0  0  0  0  0  0  0  0  0
    2.0000    0.0508    0.0000 C   0  0  0  0  0  0  0  0  0  0  0  0
    4.7057   -3.2500    0.0000 C   0  0  0  0  0  0  0  0  0  0  0  0
    7.7588    1.4188    0.0000 C   0  0  0  0  0  0  0  0  0  0  0  0
    8.3512   -0.2087    0.0000 C   0  0  0  0  0  0  0  0  0  0  0  0
    8.5248    0.7761    0.0000 C   0  0  0  0  0  0  0  0  0  0  0  0
    2.1737    1.0356    0.0000 C   0  0  0  0  0  0  0  0  0  0  0  0
    5.2427    0.4400    0.0000 H   0  0  0  0  0  0  0  0  0  0  0  0
    3.2291    1.3577    0.0000 H   0  0  0  0  0  0  0  0  0  0  0  0
    3.6276    0.6674    0.0000 H   0  0  0  0  0  0  0  0  0  0  0  0
    5.4602   -0.8193    0.0000 H   0  0  0  0  0  0  0  0  0  0  0  0
    5.5981    0.3606    0.0000 H   0  0  0  0  0  0  0  0  0  0  0  0
    5.8818    0.7131    0.0000 H   0  0  0  0  0  0  0  0  0  0  0  0
    6.1087    1.5600    0.0000 H   0  0  0  0  0  0  0  0  0  0  0  0
    5.2618    1.7869    0.0000 H   0  0  0  0  0  0  0  0  0  0  0  0
    2.8397    2.8700    0.0000 H   0  0  0  0  0  0  0  0  0  0  0  0
    2.2197    2.2500    0.0000 H   0  0  0  0  0  0  0  0  0  0  0  0
    2.8397    1.6300    0.0000 H   0  0  0  0  0  0  0  0  0  0  0  0
    4.8397    1.6300    0.0000 H   0  0  0  0  0  0  0  0  0  0  0  0
    5.4597    2.2500    0.0000 H   0  0  0  0  0  0  0  0  0  0  0  0
    4.8397    2.8700    0.0000 H   0  0  0  0  0  0  0  0  0  0  0  0
    6.1087   -1.4400    0.0000 H   0  0  0  0  0  0  0  0  0  0  0  0
    3.3028   -1.4400    0.0000 H   0  0  0  0  0  0  0  0  0  0  0  0
    6.3441    1.4754    0.0000 H   0  0  0  0  0  0  0  0  0  0  0  0
    7.3038   -1.1614    0.0000 H   0  0  0  0  0  0  0  0  0  0  0  0
    6.1087   -3.0600    0.0000 H   0  0  0  0  0  0  0  0  0  0  0  0
    3.3028   -3.0600    0.0000 H   0  0  0  0  0  0  0  0  0  0  0  0
    1.4174    0.2629    0.0000 H   0  0  0  0  0  0  0  0  0  0  0  0
    1.6900   -0.4861    0.0000 H   0  0  0  0  0  0  0  0  0  0  0  0
    4.7057   -3.8700    0.0000 H   0  0  0  0  0  0  0  0  0  0  0  0
    7.8664    2.0294    0.0000 H   0  0  0  0  0  0  0  0  0  0  0  0
    8.8261   -0.6073    0.0000 H   0  0  0  0  0  0  0  0  0  0  0  0
    9.1074    0.9881    0.0000 H   0  0  0  0  0  0  0  0  0  0  0  0
    2.7843    0.9280    0.0000 H   0  0  0  0  0  0  0  0  0  0  0  0
    2.2814    1.6462    0.0000 H   0  0  0  0  0  0  0  0  0  0  0  0
    1.5631    1.1433    0.0000 H   0  0  0  0  0  0  0  0  0  0  0  0
  1  6  1  0  0  0  0
  1 16  1  0  0  0  0
  2  4  1  0  0  0  0
  3 16  2  0  0  0  0
  4  7  1  0  0  0  0
  4 12  1  0  0  0  0
  4 13  1  0  0  0  0
  5  6  1  0  0  0  0
  5  7  1  0  0  0  0
  5 10  1  0  0  0  0
  5 27  1  0  0  0  0
  6  8  1  0  0  0  0
  6  9  1  0  0  0  0
  7 28  1  0  0  0  0
  7 29  1  0  0  0  0
  8 11  1  0  0  0  0
  8 30  1  0  0  0  0
  8 31  1  0  0  0  0
  9 14  2  0  0  0  0
  9 15  1  0  0  0  0
 10 32  1  0  0  0  0
 10 33  1  0  0  0  0
 10 34  1  0  0  0  0
 11 17  2  0  0  0  0
 11 18  1  0  0  0  0
 12 35  1  0  0  0  0
 12 36  1  0  0  0  0
 12 37  1  0  0  0  0
 13 38  1  0  0  0  0
 13 39  1  0  0  0  0
 13 40  1  0  0  0  0
 14 19  1  0  0  0  0
 14 41  1  0  0  0  0
 15 20  2  0  0  0  0
 15 42  1  0  0  0  0
 16 21  1  0  0  0  0
 17 23  1  0  0  0  0
 17 43  1  0  0  0  0
 18 24  2  0  0  0  0
 18 44  1  0  0  0  0
 19 22  2  0  0  0  0
 19 45  1  0  0  0  0
 20 22  1  0  0  0  0
 20 46  1  0  0  0  0
 21 26  1  0  0  0  0
 21 47  1  0  0  0  0
 21 48  1  0  0  0  0
 22 49  1  0  0  0  0
 23 25  2  0  0  0  0
 23 50  1  0  0  0  0
 24 25  1  0  0  0  0
 24 51  1  0  0  0  0
 25 52  1  0  0  0  0
 26 53  1  0  0  0  0
 26 54  1  0  0  0  0
 26 55  1  0  0  0  0
M  CHG  2   2  -1   4   1
M  END
> <PUBCHEM_COMPOUND_CID>
520038
> <PUBCHEM_COMPOUND_CANONICALIZED>
1
> <PUBCHEM_CACTVS_COMPLEXITY>
439
> <PUBCHEM_CACTVS_HBOND_ACCEPTOR>
3
> <PUBCHEM_CACTVS_HBOND_DONOR>
0
> <PUBCHEM_CACTVS_ROTATABLE_BOND>
9
> <PUBCHEM_CACTVS_SUBSKEYS>
AAADceB6MAAAAAAAAAAAAAAAAAAAAAAAAAAwYAAAAAAAAAABQAAAHgAEAAAADUTBmAQyCIMQBACIAiDSCAACAAAgAAAoiAEICIgIJiKAsRiGMAAmwAEIqAeQwOAOgAAAAAAAAAAAAAAAAAAAAAAAAAAAAA==
> <PUBCHEM_IUPAC_OPENEYE_NAME>
N,N,2-trimethyl-3,4-diphenyl-3-propanoyloxy-butan-1-amine oxide
> <PUBCHEM_IUPAC_CAS_NAME>
N,N,2-trimethyl-3-(1-oxopropoxy)-3,4-diphenyl-1-butanamine oxide
> <PUBCHEM_IUPAC_NAME_MARKUP>
<I>N</I>,<I>N</I>,2-trimethyl-3,4-diphenyl-3-propanoyloxybutan-1-amine oxide
> <PUBCHEM_IUPAC_NAME>
N,N,2-trimethyl-3,4-diphenyl-3-propanoyloxybutan-1-amine oxide
> <PUBCHEM_IUPAC_SYSTEMATIC_NAME>
N,N,2-trimethyl-3,4-diphenyl-3-propanoyloxy-butan-1-amine oxide
> <PUBCHEM_IUPAC_TRADITIONAL_NAME>
N,N,2-trimethyl-3,4-diphenyl-3-propionyloxy-butan-1-amine oxide
> <PUBCHEM_IUPAC_INCHI>
InChI=1S/C22H29NO3/c1-5-21(24)26-22(18(2)17-23(3,4)25,20-14-10-7-11-15-20)16-19-12-8-6-9-13-19/h6-15,18H,5,16-17H2,1-4H3
> <PUBCHEM_IUPAC_INCHIKEY>
WSSSJOXEJVEUKO-UHFFFAOYSA-N
> <PUBCHEM_XLOGP3>
3.6
> <PUBCHEM_EXACT_MASS>
355.21474379
> <PUBCHEM_MOLECULAR_FORMULA>
C22H29NO3
> <PUBCHEM_MOLECULAR_WEIGHT>
355.5
> <PUBCHEM_OPENEYE_CAN_SMILES>
CCC(=O)OC(CC1=CC=CC=C1)(C2=CC=CC=C2)C(C)C[N+](C)(C)[O-]
> <PUBCHEM_OPENEYE_ISO_SMILES>
CCC(=O)OC(CC1=CC=CC=C1)(C2=CC=CC=C2)C(C)C[N+](C)(C)[O-]
> <PUBCHEM_CACTVS_TPSA>
44.4
> <PUBCHEM_MONOISOTOPIC_WEIGHT>
355.21474379
> <PUBCHEM_TOTAL_CHARGE>
0
> <PUBCHEM_HEAVY_ATOM_COUNT>
26
> <PUBCHEM_ATOM_DEF_STEREO_COUNT>
0
> <PUBCHEM_ATOM_UDEF_STEREO_COUNT>
2
> <PUBCHEM_BOND_DEF_STEREO_COUNT>
0
> <PUBCHEM_BOND_UDEF_STEREO_COUNT>
0
> <PUBCHEM_ISOTOPIC_ATOM_COUNT>
0
> <PUBCHEM_COMPONENT_COUNT>
1
> <PUBCHEM_CACTVS_TAUTO_COUNT>
-1
> <PUBCHEM_COORDINATE_TYPE>
1
5
255
> <PUBCHEM_BONDANNOTATIONS>
11  17  8
11  18  8
14  19  8
15  20  8
17  23  8
18  24  8
19  22  8
20  22  8
23  25  8
24  25  8
5  10  3
6  8  3
9  14  8
9  15  8
$$$$
