520098
  -OEChem-10302200292D
 26 26  0     1  0  0  0  0  0999 V2000
    2.8660   -0.2500    0.0000 O   0  0  0  0  0  0  0  0  0  0  0  0
    5.4641   -0.7500    0.0000 N   0  0  0  0  0  0  0  0  0  0  0  0
    3.7320   -1.7500    0.0000 N   0  0  0  0  0  0  0  0  0  0  0  0
    4.5981    0.7500    0.0000 C   0  0  3  0  0  0  0  0  0  0  0  0
    5.4641    1.2500    0.0000 C   0  0  0  0  0  0  0  0  0  0  0  0
    4.5981   -0.2500    0.0000 C   0  0  0  0  0  0  0  0  0  0  0  0
    3.7320    1.2500    0.0000 C   0  0  0  0  0  0  0  0  0  0  0  0
    5.4641    2.2500    0.0000 C   0  0  0  0  0  0  0  0  0  0  0  0
    3.7320   -0.7500    0.0000 C   0  0  0  0  0  0  0  0  0  0  0  0
    5.4641   -1.7500    0.0000 C   0  0  0  0  0  0  0  0  0  0  0  0
    4.5981   -2.2500    0.0000 C   0  0  0  0  0  0  0  0  0  0  0  0
    2.0000   -0.7500    0.0000 C   0  0  0  0  0  0  0  0  0  0  0  0
    4.5981    1.3700    0.0000 H   0  0  0  0  0  0  0  0  0  0  0  0
    5.6762    0.6674    0.0000 H   0  0  0  0  0  0  0  0  0  0  0  0
    6.0747    1.3577    0.0000 H   0  0  0  0  0  0  0  0  0  0  0  0
    4.0420    1.7869    0.0000 H   0  0  0  0  0  0  0  0  0  0  0  0
    3.1951    1.5600    0.0000 H   0  0  0  0  0  0  0  0  0  0  0  0
    3.4220    0.7131    0.0000 H   0  0  0  0  0  0  0  0  0  0  0  0
    6.0841    2.2500    0.0000 H   0  0  0  0  0  0  0  0  0  0  0  0
    5.4641    2.8700    0.0000 H   0  0  0  0  0  0  0  0  0  0  0  0
    4.8441    2.2500    0.0000 H   0  0  0  0  0  0  0  0  0  0  0  0
    6.0010   -2.0600    0.0000 H   0  0  0  0  0  0  0  0  0  0  0  0
    4.5981   -2.8700    0.0000 H   0  0  0  0  0  0  0  0  0  0  0  0
    1.6900   -0.2131    0.0000 H   0  0  0  0  0  0  0  0  0  0  0  0
    1.4631   -1.0600    0.0000 H   0  0  0  0  0  0  0  0  0  0  0  0
    2.3100   -1.2869    0.0000 H   0  0  0  0  0  0  0  0  0  0  0  0
  1  9  1  0  0  0  0
  1 12  1  0  0  0  0
  2  6  2  0  0  0  0
  2 10  1  0  0  0  0
  3  9  2  0  0  0  0
  3 11  1  0  0  0  0
  4  5  1  0  0  0  0
  4  6  1  0  0  0  0
  4  7  1  0  0  0  0
  4 13  1  0  0  0  0
  5  8  1  0  0  0  0
  5 14  1  0  0  0  0
  5 15  1  0  0  0  0
  6  9  1  0  0  0  0
  7 16  1  0  0  0  0
  7 17  1  0  0  0  0
  7 18  1  0  0  0  0
  8 19  1  0  0  0  0
  8 20  1  0  0  0  0
  8 21  1  0  0  0  0
 10 11  2  0  0  0  0
 10 22  1  0  0  0  0
 11 23  1  0  0  0  0
 12 24  1  0  0  0  0
 12 25  1  0  0  0  0
 12 26  1  0  0  0  0
M  END
> <PUBCHEM_COMPOUND_CID>
520098
> <PUBCHEM_COMPOUND_CANONICALIZED>
1
> <PUBCHEM_CACTVS_COMPLEXITY>
130
> <PUBCHEM_CACTVS_HBOND_ACCEPTOR>
3
> <PUBCHEM_CACTVS_HBOND_DONOR>
0
> <PUBCHEM_CACTVS_ROTATABLE_BOND>
3
> <PUBCHEM_CACTVS_SUBSKEYS>
AAADccBzIAAAAAAAAAAAAAAAAAAAAAAAAAAsAAAAAAAAAAABgAAAHgAAAAAADQjBlgYuhBIIFACgARRnRAQAiCQxciAIUAA9cAgGYEJEkAKVACAEgADQQACQAAAKAAAAAAAAAAAAAAAAAAAAAAAAAAAAAA==
> <PUBCHEM_IUPAC_OPENEYE_NAME>
2-methoxy-3-sec-butyl-pyrazine
> <PUBCHEM_IUPAC_CAS_NAME>
2-butan-2-yl-3-methoxypyrazine
> <PUBCHEM_IUPAC_NAME_MARKUP>
2-butan-2-yl-3-methoxypyrazine
> <PUBCHEM_IUPAC_NAME>
2-butan-2-yl-3-methoxypyrazine
> <PUBCHEM_IUPAC_SYSTEMATIC_NAME>
2-butan-2-yl-3-methoxy-pyrazine
> <PUBCHEM_IUPAC_TRADITIONAL_NAME>
2-methoxy-3-sec-butyl-pyrazine
> <PUBCHEM_IUPAC_INCHI>
InChI=1S/C9H14N2O/c1-4-7(2)8-9(12-3)11-6-5-10-8/h5-7H,4H2,1-3H3
> <PUBCHEM_IUPAC_INCHIKEY>
QMQDJVIJVPEQHE-UHFFFAOYSA-N
> <PUBCHEM_XLOGP3_AA>
1.6
> <PUBCHEM_EXACT_MASS>
166.110613074
> <PUBCHEM_MOLECULAR_FORMULA>
C9H14N2O
> <PUBCHEM_MOLECULAR_WEIGHT>
166.22
> <PUBCHEM_OPENEYE_CAN_SMILES>
CCC(C)C1=NC=CN=C1OC
> <PUBCHEM_OPENEYE_ISO_SMILES>
CCC(C)C1=NC=CN=C1OC
> <PUBCHEM_CACTVS_TPSA>
35
> <PUBCHEM_MONOISOTOPIC_WEIGHT>
166.110613074
> <PUBCHEM_TOTAL_CHARGE>
0
> <PUBCHEM_HEAVY_ATOM_COUNT>
12
> <PUBCHEM_ATOM_DEF_STEREO_COUNT>
0
> <PUBCHEM_ATOM_UDEF_STEREO_COUNT>
1
> <PUBCHEM_BOND_DEF_STEREO_COUNT>
0
> <PUBCHEM_BOND_UDEF_STEREO_COUNT>
0
> <PUBCHEM_ISOTOPIC_ATOM_COUNT>
0
> <PUBCHEM_COMPONENT_COUNT>
1
> <PUBCHEM_CACTVS_TAUTO_COUNT>
2
> <PUBCHEM_COORDINATE_TYPE>
1
5
255
> <PUBCHEM_BONDANNOTATIONS>
10  11  8
2  10  8
2  6  8
3  11  8
3  9  8
4  7  3
6  9  8
$$$$
