520155
  -OEChem-10302200292D
139140  0     1  0  0  0  0  0999 V2000
   19.1865    0.5345    0.0000 O   0  0  0  0  0  0  0  0  0  0  0  0
   20.1865   -0.4655    0.0000 O   0  0  0  0  0  0  0  0  0  0  0  0
   18.4545   -0.4655    0.0000 O   0  0  0  0  0  0  0  0  0  0  0  0
   21.4466    1.7946    0.0000 O   0  0  0  0  0  0  0  0  0  0  0  0
   19.6865    3.0733    0.0000 O   0  0  0  0  0  0  0  0  0  0  0  0
   21.8807    0.8946    0.0000 O   0  0  0  0  0  0  0  0  0  0  0  0
   20.1865   -2.4655    0.0000 O   0  0  0  0  0  0  0  0  0  0  0  0
   18.4545   -3.4655    0.0000 O   0  0  0  0  0  0  0  0  0  0  0  0
   16.7224   -2.4655    0.0000 O   0  0  0  0  0  0  0  0  0  0  0  0
   17.7185    2.7727    0.0000 O   0  0  0  0  0  0  0  0  0  0  0  0
   15.8564   -0.9655    0.0000 O   0  0  0  0  0  0  0  0  0  0  0  0
   23.0397   -0.3926    0.0000 O   0  0  0  0  0  0  0  0  0  0  0  0
   14.9904    0.5345    0.0000 O   0  0  0  0  0  0  0  0  0  0  0  0
   20.1865    0.5345    0.0000 C   0  0  3  0  0  0  0  0  0  0  0  0
   20.4956    1.4856    0.0000 C   0  0  3  0  0  0  0  0  0  0  0  0
   19.6865    2.0733    0.0000 C   0  0  3  0  0  0  0  0  0  0  0  0
   18.8775    1.4856    0.0000 C   0  0  3  0  0  0  0  0  0  0  0  0
   19.3205   -0.9655    0.0000 C   0  0  3  0  0  0  0  0  0  0  0  0
   19.3205   -1.9655    0.0000 C   0  0  3  0  0  0  0  0  0  0  0  0
   21.1376    0.2255    0.0000 C   0  0  0  0  0  0  0  0  0  0  0  0
   18.4545   -2.4655    0.0000 C   0  0  3  0  0  0  0  0  0  0  0  0
   17.5885   -1.9655    0.0000 C   0  0  3  0  0  0  0  0  0  0  0  0
   17.5885   -0.9655    0.0000 C   0  0  3  0  0  0  0  0  0  0  0  0
   17.9265    1.7946    0.0000 C   0  0  0  0  0  0  0  0  0  0  0  0
   16.7224   -0.4655    0.0000 C   0  0  0  0  0  0  0  0  0  0  0  0
   22.8318    0.5856    0.0000 C   0  0  0  0  0  0  0  0  0  0  0  0
   23.5749    1.2547    0.0000 C   0  0  0  0  0  0  0  0  0  0  0  0
   24.5260    0.9457    0.0000 C   0  0  0  0  0  0  0  0  0  0  0  0
   14.9904   -0.4655    0.0000 C   0  0  0  0  0  0  0  0  0  0  0  0
   25.2691    1.6148    0.0000 C   0  0  0  0  0  0  0  0  0  0  0  0
   14.1244   -0.9655    0.0000 C   0  0  0  0  0  0  0  0  0  0  0  0
   26.2202    1.3058    0.0000 C   0  0  0  0  0  0  0  0  0  0  0  0
   13.2583   -0.4655    0.0000 C   0  0  0  0  0  0  0  0  0  0  0  0
   26.9633    1.9749    0.0000 C   0  0  0  0  0  0  0  0  0  0  0  0
   12.3923   -0.9655    0.0000 C   0  0  0  0  0  0  0  0  0  0  0  0
   27.9144    1.6659    0.0000 C   0  0  0  0  0  0  0  0  0  0  0  0
   11.5263   -0.4655    0.0000 C   0  0  0  0  0  0  0  0  0  0  0  0
   28.6575    2.3351    0.0000 C   0  0  0  0  0  0  0  0  0  0  0  0
   10.6603   -0.9655    0.0000 C   0  0  0  0  0  0  0  0  0  0  0  0
    9.7942   -0.4655    0.0000 C   0  0  0  0  0  0  0  0  0  0  0  0
   29.6086    2.0260    0.0000 C   0  0  0  0  0  0  0  0  0  0  0  0
    8.9282   -0.9655    0.0000 C   0  0  0  0  0  0  0  0  0  0  0  0
   30.3517    2.6952    0.0000 C   0  0  0  0  0  0  0  0  0  0  0  0
    8.0622   -0.4655    0.0000 C   0  0  0  0  0  0  0  0  0  0  0  0
    7.1962   -0.9655    0.0000 C   0  0  0  0  0  0  0  0  0  0  0  0
   31.3028    2.3862    0.0000 C   0  0  0  0  0  0  0  0  0  0  0  0
    6.3301   -0.4655    0.0000 C   0  0  0  0  0  0  0  0  0  0  0  0
   32.0459    3.0553    0.0000 C   0  0  0  0  0  0  0  0  0  0  0  0
    5.4641   -0.9655    0.0000 C   0  0  0  0  0  0  0  0  0  0  0  0
   32.9970    2.7463    0.0000 C   0  0  0  0  0  0  0  0  0  0  0  0
    4.5981   -0.4655    0.0000 C   0  0  0  0  0  0  0  0  0  0  0  0
   33.7401    3.4154    0.0000 C   0  0  0  0  0  0  0  0  0  0  0  0
    3.7320   -0.9655    0.0000 C   0  0  0  0  0  0  0  0  0  0  0  0
   34.6912    3.1064    0.0000 C   0  0  0  0  0  0  0  0  0  0  0  0
    2.8660   -0.4655    0.0000 C   0  0  0  0  0  0  0  0  0  0  0  0
   35.4343    3.7755    0.0000 C   0  0  0  0  0  0  0  0  0  0  0  0
    2.0000   -0.9655    0.0000 C   0  0  0  0  0  0  0  0  0  0  0  0
   20.5925    2.0979    0.0000 H   0  0  0  0  0  0  0  0  0  0  0  0
   20.2390    2.3548    0.0000 H   0  0  0  0  0  0  0  0  0  0  0  0
   18.4391    1.0471    0.0000 H   0  0  0  0  0  0  0  0  0  0  0  0
   19.8574   -1.2755    0.0000 H   0  0  0  0  0  0  0  0  0  0  0  0
   19.3205   -2.5855    0.0000 H   0  0  0  0  0  0  0  0  0  0  0  0
   20.8465   -0.3220    0.0000 H   0  0  0  0  0  0  0  0  0  0  0  0
   21.6262   -0.1562    0.0000 H   0  0  0  0  0  0  0  0  0  0  0  0
   17.9175   -2.7755    0.0000 H   0  0  0  0  0  0  0  0  0  0  0  0
   17.5885   -2.5855    0.0000 H   0  0  0  0  0  0  0  0  0  0  0  0
   17.5885   -0.3455    0.0000 H   0  0  0  0  0  0  0  0  0  0  0  0
   17.3068    1.7729    0.0000 H   0  0  0  0  0  0  0  0  0  0  0  0
   17.8402    1.1806    0.0000 H   0  0  0  0  0  0  0  0  0  0  0  0
   21.5755    2.4010    0.0000 H   0  0  0  0  0  0  0  0  0  0  0  0
   17.1210    0.0094    0.0000 H   0  0  0  0  0  0  0  0  0  0  0  0
   16.3239    0.0094    0.0000 H   0  0  0  0  0  0  0  0  0  0  0  0
   20.2235    3.3833    0.0000 H   0  0  0  0  0  0  0  0  0  0  0  0
   20.1865   -3.0855    0.0000 H   0  0  0  0  0  0  0  0  0  0  0  0
   17.9175   -3.7755    0.0000 H   0  0  0  0  0  0  0  0  0  0  0  0
   16.7224   -3.0855    0.0000 H   0  0  0  0  0  0  0  0  0  0  0  0
   17.1289    2.9643    0.0000 H   0  0  0  0  0  0  0  0  0  0  0  0
   23.8660    1.8021    0.0000 H   0  0  0  0  0  0  0  0  0  0  0  0
   23.0864    1.6364    0.0000 H   0  0  0  0  0  0  0  0  0  0  0  0
   24.2349    0.3983    0.0000 H   0  0  0  0  0  0  0  0  0  0  0  0
   25.0146    0.5640    0.0000 H   0  0  0  0  0  0  0  0  0  0  0  0
   25.5602    2.1623    0.0000 H   0  0  0  0  0  0  0  0  0  0  0  0
   24.7806    1.9965    0.0000 H   0  0  0  0  0  0  0  0  0  0  0  0
   13.7258   -1.4405    0.0000 H   0  0  0  0  0  0  0  0  0  0  0  0
   14.5229   -1.4405    0.0000 H   0  0  0  0  0  0  0  0  0  0  0  0
   25.9291    0.7584    0.0000 H   0  0  0  0  0  0  0  0  0  0  0  0
   26.7088    0.9241    0.0000 H   0  0  0  0  0  0  0  0  0  0  0  0
   13.6569    0.0094    0.0000 H   0  0  0  0  0  0  0  0  0  0  0  0
   12.8598    0.0094    0.0000 H   0  0  0  0  0  0  0  0  0  0  0  0
   27.2544    2.5224    0.0000 H   0  0  0  0  0  0  0  0  0  0  0  0
   26.4748    2.3566    0.0000 H   0  0  0  0  0  0  0  0  0  0  0  0
   11.9938   -1.4405    0.0000 H   0  0  0  0  0  0  0  0  0  0  0  0
   12.7908   -1.4405    0.0000 H   0  0  0  0  0  0  0  0  0  0  0  0
   27.6233    1.1185    0.0000 H   0  0  0  0  0  0  0  0  0  0  0  0
   28.4030    1.2842    0.0000 H   0  0  0  0  0  0  0  0  0  0  0  0
   11.9248    0.0094    0.0000 H   0  0  0  0  0  0  0  0  0  0  0  0
   11.1278    0.0094    0.0000 H   0  0  0  0  0  0  0  0  0  0  0  0
   28.9486    2.8825    0.0000 H   0  0  0  0  0  0  0  0  0  0  0  0
   28.1690    2.7168    0.0000 H   0  0  0  0  0  0  0  0  0  0  0  0
   10.2617   -1.4405    0.0000 H   0  0  0  0  0  0  0  0  0  0  0  0
   11.0588   -1.4405    0.0000 H   0  0  0  0  0  0  0  0  0  0  0  0
   10.1928    0.0094    0.0000 H   0  0  0  0  0  0  0  0  0  0  0  0
    9.3957    0.0094    0.0000 H   0  0  0  0  0  0  0  0  0  0  0  0
   29.3175    1.4786    0.0000 H   0  0  0  0  0  0  0  0  0  0  0  0
   30.0972    1.6443    0.0000 H   0  0  0  0  0  0  0  0  0  0  0  0
    8.5297   -1.4405    0.0000 H   0  0  0  0  0  0  0  0  0  0  0  0
    9.3267   -1.4405    0.0000 H   0  0  0  0  0  0  0  0  0  0  0  0
   30.6428    3.2426    0.0000 H   0  0  0  0  0  0  0  0  0  0  0  0
   29.8632    3.0769    0.0000 H   0  0  0  0  0  0  0  0  0  0  0  0
    8.4607    0.0094    0.0000 H   0  0  0  0  0  0  0  0  0  0  0  0
    7.6636    0.0094    0.0000 H   0  0  0  0  0  0  0  0  0  0  0  0
    6.7976   -1.4405    0.0000 H   0  0  0  0  0  0  0  0  0  0  0  0
    7.5947   -1.4405    0.0000 H   0  0  0  0  0  0  0  0  0  0  0  0
   31.0117    1.8387    0.0000 H   0  0  0  0  0  0  0  0  0  0  0  0
   31.7914    2.0044    0.0000 H   0  0  0  0  0  0  0  0  0  0  0  0
    6.7287    0.0094    0.0000 H   0  0  0  0  0  0  0  0  0  0  0  0
    5.9316    0.0094    0.0000 H   0  0  0  0  0  0  0  0  0  0  0  0
   32.3370    3.6027    0.0000 H   0  0  0  0  0  0  0  0  0  0  0  0
   31.5574    3.4370    0.0000 H   0  0  0  0  0  0  0  0  0  0  0  0
    5.0656   -1.4405    0.0000 H   0  0  0  0  0  0  0  0  0  0  0  0
    5.8626   -1.4405    0.0000 H   0  0  0  0  0  0  0  0  0  0  0  0
   32.7059    2.1988    0.0000 H   0  0  0  0  0  0  0  0  0  0  0  0
   33.4856    2.3646    0.0000 H   0  0  0  0  0  0  0  0  0  0  0  0
    4.9966    0.0094    0.0000 H   0  0  0  0  0  0  0  0  0  0  0  0
    4.1996    0.0094    0.0000 H   0  0  0  0  0  0  0  0  0  0  0  0
   34.0312    3.9628    0.0000 H   0  0  0  0  0  0  0  0  0  0  0  0
   33.2516    3.7971    0.0000 H   0  0  0  0  0  0  0  0  0  0  0  0
    3.3335   -1.4405    0.0000 H   0  0  0  0  0  0  0  0  0  0  0  0
    4.1306   -1.4405    0.0000 H   0  0  0  0  0  0  0  0  0  0  0  0
   34.4001    2.5590    0.0000 H   0  0  0  0  0  0  0  0  0  0  0  0
   35.1798    2.7247    0.0000 H   0  0  0  0  0  0  0  0  0  0  0  0
    3.2646    0.0094    0.0000 H   0  0  0  0  0  0  0  0  0  0  0  0
    2.4675    0.0094    0.0000 H   0  0  0  0  0  0  0  0  0  0  0  0
   35.8492    3.3148    0.0000 H   0  0  0  0  0  0  0  0  0  0  0  0
   35.8951    4.1904    0.0000 H   0  0  0  0  0  0  0  0  0  0  0  0
   35.0195    4.2363    0.0000 H   0  0  0  0  0  0  0  0  0  0  0  0
    1.6900   -0.4286    0.0000 H   0  0  0  0  0  0  0  0  0  0  0  0
    1.4631   -1.2755    0.0000 H   0  0  0  0  0  0  0  0  0  0  0  0
    2.3100   -1.5024    0.0000 H   0  0  0  0  0  0  0  0  0  0  0  0
  1 14  1  0  0  0  0
  1 17  1  0  0  0  0
  2 14  1  0  0  0  0
  2 18  1  0  0  0  0
  3 18  1  0  0  0  0
  3 23  1  0  0  0  0
  4 15  1  0  0  0  0
  4 70  1  0  0  0  0
  5 16  1  0  0  0  0
  5 73  1  0  0  0  0
  6 20  1  0  0  0  0
  6 26  1  0  0  0  0
  7 19  1  0  0  0  0
  7 74  1  0  0  0  0
  8 21  1  0  0  0  0
  8 75  1  0  0  0  0
  9 22  1  0  0  0  0
  9 76  1  0  0  0  0
 10 24  1  0  0  0  0
 10 77  1  0  0  0  0
 11 25  1  0  0  0  0
 11 29  1  0  0  0  0
 12 26  2  0  0  0  0
 13 29  2  0  0  0  0
 14 15  1  0  0  0  0
 14 20  1  0  0  0  0
 15 16  1  0  0  0  0
 15 58  1  0  0  0  0
 16 17  1  0  0  0  0
 16 59  1  0  0  0  0
 17 24  1  0  0  0  0
 17 60  1  0  0  0  0
 18 19  1  0  0  0  0
 18 61  1  0  0  0  0
 19 21  1  0  0  0  0
 19 62  1  0  0  0  0
 20 63  1  0  0  0  0
 20 64  1  0  0  0  0
 21 22  1  0  0  0  0
 21 65  1  0  0  0  0
 22 23  1  0  0  0  0
 22 66  1  0  0  0  0
 23 25  1  0  0  0  0
 23 67  1  0  0  0  0
 24 68  1  0  0  0  0
 24 69  1  0  0  0  0
 25 71  1  0  0  0  0
 25 72  1  0  0  0  0
 26 27  1  0  0  0  0
 27 28  1  0  0  0  0
 27 78  1  0  0  0  0
 27 79  1  0  0  0  0
 28 30  1  0  0  0  0
 28 80  1  0  0  0  0
 28 81  1  0  0  0  0
 29 31  1  0  0  0  0
 30 32  1  0  0  0  0
 30 82  1  0  0  0  0
 30 83  1  0  0  0  0
 31 33  1  0  0  0  0
 31 84  1  0  0  0  0
 31 85  1  0  0  0  0
 32 34  1  0  0  0  0
 32 86  1  0  0  0  0
 32 87  1  0  0  0  0
 33 35  1  0  0  0  0
 33 88  1  0  0  0  0
 33 89  1  0  0  0  0
 34 36  1  0  0  0  0
 34 90  1  0  0  0  0
 34 91  1  0  0  0  0
 35 37  1  0  0  0  0
 35 92  1  0  0  0  0
 35 93  1  0  0  0  0
 36 38  1  0  0  0  0
 36 94  1  0  0  0  0
 36 95  1  0  0  0  0
 37 39  1  0  0  0  0
 37 96  1  0  0  0  0
 37 97  1  0  0  0  0
 38 41  1  0  0  0  0
 38 98  1  0  0  0  0
 38 99  1  0  0  0  0
 39 40  1  0  0  0  0
 39100  1  0  0  0  0
 39101  1  0  0  0  0
 40 42  1  0  0  0  0
 40102  1  0  0  0  0
 40103  1  0  0  0  0
 41 43  1  0  0  0  0
 41104  1  0  0  0  0
 41105  1  0  0  0  0
 42 44  1  0  0  0  0
 42106  1  0  0  0  0
 42107  1  0  0  0  0
 43 46  1  0  0  0  0
 43108  1  0  0  0  0
 43109  1  0  0  0  0
 44 45  1  0  0  0  0
 44110  1  0  0  0  0
 44111  1  0  0  0  0
 45 47  1  0  0  0  0
 45112  1  0  0  0  0
 45113  1  0  0  0  0
 46 48  1  0  0  0  0
 46114  1  0  0  0  0
 46115  1  0  0  0  0
 47 49  1  0  0  0  0
 47116  1  0  0  0  0
 47117  1  0  0  0  0
 48 50  1  0  0  0  0
 48118  1  0  0  0  0
 48119  1  0  0  0  0
 49 51  1  0  0  0  0
 49120  1  0  0  0  0
 49121  1  0  0  0  0
 50 52  1  0  0  0  0
 50122  1  0  0  0  0
 50123  1  0  0  0  0
 51 53  1  0  0  0  0
 51124  1  0  0  0  0
 51125  1  0  0  0  0
 52 54  1  0  0  0  0
 52126  1  0  0  0  0
 52127  1  0  0  0  0
 53 55  1  0  0  0  0
 53128  1  0  0  0  0
 53129  1  0  0  0  0
 54 56  1  0  0  0  0
 54130  1  0  0  0  0
 54131  1  0  0  0  0
 55 57  1  0  0  0  0
 55132  1  0  0  0  0
 55133  1  0  0  0  0
 56134  1  0  0  0  0
 56135  1  0  0  0  0
 56136  1  0  0  0  0
 57137  1  0  0  0  0
 57138  1  0  0  0  0
 57139  1  0  0  0  0
M  END
> <PUBCHEM_COMPOUND_CID>
520155
> <PUBCHEM_COMPOUND_CANONICALIZED>
1
> <PUBCHEM_CACTVS_COMPLEXITY>
1020
> <PUBCHEM_CACTVS_HBOND_ACCEPTOR>
13
> <PUBCHEM_CACTVS_HBOND_DONOR>
6
> <PUBCHEM_CACTVS_ROTATABLE_BOND>
37
> <PUBCHEM_CACTVS_SUBSKEYS>
AAADcfB8PAAAAAAAAAAAAAAAAAAAASAAAAAkAAAAAAAAAAAAAAAAGgAACAAACBSwgAMCCAAABgAIAACQCAAAAAAAAAAAAAEAAAAREBIAAAAiQAAFAAAHAAHI6KyAAAAAAAAAAAAAAAAAAAAAAAAAAAAAAA==
> <PUBCHEM_IUPAC_OPENEYE_NAME>
[6-[2-(hexadecanoyloxymethyl)-3,4-dihydroxy-5-(hydroxymethyl)tetrahydrofuran-2-yl]oxy-3,4,5-trihydroxy-tetrahydropyran-2-yl]methyl hexadecanoate
> <PUBCHEM_IUPAC_CAS_NAME>
hexadecanoic acid [6-[[3,4-dihydroxy-5-(hydroxymethyl)-2-(1-oxohexadecoxymethyl)-2-oxolanyl]oxy]-3,4,5-trihydroxy-2-oxanyl]methyl ester
> <PUBCHEM_IUPAC_NAME_MARKUP>
[6-[2-(hexadecanoyloxymethyl)-3,4-dihydroxy-5-(hydroxymethyl)oxolan-2-yl]oxy-3,4,5-trihydroxyoxan-2-yl]methyl hexadecanoate
> <PUBCHEM_IUPAC_NAME>
[6-[2-(hexadecanoyloxymethyl)-3,4-dihydroxy-5-(hydroxymethyl)oxolan-2-yl]oxy-3,4,5-trihydroxyoxan-2-yl]methyl hexadecanoate
> <PUBCHEM_IUPAC_SYSTEMATIC_NAME>
[6-[2-(hexadecanoyloxymethyl)-5-(hydroxymethyl)-3,4-bis(oxidanyl)oxolan-2-yl]oxy-3,4,5-tris(oxidanyl)oxan-2-yl]methyl hexadecanoate
> <PUBCHEM_IUPAC_TRADITIONAL_NAME>
palmitic acid [6-[2-(hexadecanoyloxymethyl)-3,4-dihydroxy-5-methylol-tetrahydrofuran-2-yl]oxy-3,4,5-trihydroxy-tetrahydropyran-2-yl]methyl ester
> <PUBCHEM_IUPAC_INCHI>
InChI=1S/C44H82O13/c1-3-5-7-9-11-13-15-17-19-21-23-25-27-29-36(46)53-32-35-38(48)40(50)41(51)43(55-35)57-44(42(52)39(49)34(31-45)56-44)33-54-37(47)30-28-26-24-22-20-18-16-14-12-10-8-6-4-2/h34-35,38-43,45,48-52H,3-33H2,1-2H3
> <PUBCHEM_IUPAC_INCHIKEY>
HQQGQPZMCTVNNX-UHFFFAOYSA-N
> <PUBCHEM_XLOGP3>
11
> <PUBCHEM_EXACT_MASS>
818.57554267
> <PUBCHEM_MOLECULAR_FORMULA>
C44H82O13
> <PUBCHEM_MOLECULAR_WEIGHT>
819.1
> <PUBCHEM_OPENEYE_CAN_SMILES>
CCCCCCCCCCCCCCCC(=O)OCC1C(C(C(C(O1)OC2(C(C(C(O2)CO)O)O)COC(=O)CCCCCCCCCCCCCCC)O)O)O
> <PUBCHEM_OPENEYE_ISO_SMILES>
CCCCCCCCCCCCCCCC(=O)OCC1C(C(C(C(O1)OC2(C(C(C(O2)CO)O)O)COC(=O)CCCCCCCCCCCCCCC)O)O)O
> <PUBCHEM_CACTVS_TPSA>
202
> <PUBCHEM_MONOISOTOPIC_WEIGHT>
818.57554267
> <PUBCHEM_TOTAL_CHARGE>
0
> <PUBCHEM_HEAVY_ATOM_COUNT>
57
> <PUBCHEM_ATOM_DEF_STEREO_COUNT>
0
> <PUBCHEM_ATOM_UDEF_STEREO_COUNT>
9
> <PUBCHEM_BOND_DEF_STEREO_COUNT>
0
> <PUBCHEM_BOND_UDEF_STEREO_COUNT>
0
> <PUBCHEM_ISOTOPIC_ATOM_COUNT>
0
> <PUBCHEM_COMPONENT_COUNT>
1
> <PUBCHEM_CACTVS_TAUTO_COUNT>
-1
> <PUBCHEM_COORDINATE_TYPE>
1
5
255
> <PUBCHEM_BONDANNOTATIONS>
14  20  3
17  24  3
18  2  3
23  25  3
15  4  3
16  5  3
19  7  3
21  8  3
22  9  3
$$$$
