520190
  -OEChem-10302200292D
 55 55  0     1  0  0  0  0  0999 V2000
    6.2071    2.2192    0.0000 O   0  0  0  0  0  0  0  0  0  0  0  0
    5.0000   -1.0860    0.0000 C   0  0  3  0  0  0  0  0  0  0  0  0
    5.5000   -1.9520    0.0000 C   0  0  0  0  0  0  0  0  0  0  0  0
    4.0000   -1.0860    0.0000 C   0  0  0  0  0  0  0  0  0  0  0  0
    5.5000    1.5121    0.0000 C   0  0  3  0  0  0  0  0  0  0  0  0
    5.5000   -0.2200    0.0000 C   0  0  0  0  0  0  0  0  0  0  0  0
    3.5000   -1.9520    0.0000 C   0  0  0  0  0  0  0  0  0  0  0  0
    5.0000    2.3781    0.0000 C   0  0  0  0  0  0  0  0  0  0  0  0
    5.0000    0.6460    0.0000 C   0  0  0  0  0  0  0  0  0  0  0  0
    6.5000   -1.9520    0.0000 C   0  0  0  0  0  0  0  0  0  0  0  0
    5.0000   -2.8180    0.0000 C   0  0  0  0  0  0  0  0  0  0  0  0
    2.5000   -1.9520    0.0000 C   0  0  0  0  0  0  0  0  0  0  0  0
    4.0000    2.3781    0.0000 C   0  0  0  0  0  0  0  0  0  0  0  0
    6.4659    1.2532    0.0000 C   0  0  0  0  0  0  0  0  0  0  0  0
    2.0000   -1.0860    0.0000 C   0  0  0  0  0  0  0  0  0  0  0  0
    2.5000   -0.2200    0.0000 C   0  0  0  0  0  0  0  0  0  0  0  0
    2.0000    0.6460    0.0000 C   0  0  0  0  0  0  0  0  0  0  0  0
    3.5000    1.5121    0.0000 C   0  0  0  0  0  0  0  0  0  0  0  0
    2.5000    1.5121    0.0000 C   0  0  0  0  0  0  0  0  0  0  0  0
    2.0000   -2.8180    0.0000 C   0  0  0  0  0  0  0  0  0  0  0  0
    2.0000    2.3781    0.0000 C   0  0  0  0  0  0  0  0  0  0  0  0
    5.6200   -1.0860    0.0000 H   0  0  0  0  0  0  0  0  0  0  0  0
    4.8800   -1.9520    0.0000 H   0  0  0  0  0  0  0  0  0  0  0  0
    4.1077   -0.4754    0.0000 H   0  0  0  0  0  0  0  0  0  0  0  0
    3.4174   -0.8740    0.0000 H   0  0  0  0  0  0  0  0  0  0  0  0
    6.1200   -0.2200    0.0000 H   0  0  0  0  0  0  0  0  0  0  0  0
    3.3923   -2.5626    0.0000 H   0  0  0  0  0  0  0  0  0  0  0  0
    4.0826   -2.1641    0.0000 H   0  0  0  0  0  0  0  0  0  0  0  0
    5.5826    2.5902    0.0000 H   0  0  0  0  0  0  0  0  0  0  0  0
    4.8923    2.9887    0.0000 H   0  0  0  0  0  0  0  0  0  0  0  0
    4.3800    0.6460    0.0000 H   0  0  0  0  0  0  0  0  0  0  0  0
    6.5000   -2.5720    0.0000 H   0  0  0  0  0  0  0  0  0  0  0  0
    7.1200   -1.9520    0.0000 H   0  0  0  0  0  0  0  0  0  0  0  0
    6.5000   -1.3320    0.0000 H   0  0  0  0  0  0  0  0  0  0  0  0
    4.4631   -2.5080    0.0000 H   0  0  0  0  0  0  0  0  0  0  0  0
    4.6900   -3.3550    0.0000 H   0  0  0  0  0  0  0  0  0  0  0  0
    5.5369   -3.1280    0.0000 H   0  0  0  0  0  0  0  0  0  0  0  0
    4.1077    2.9887    0.0000 H   0  0  0  0  0  0  0  0  0  0  0  0
    3.4174    2.5902    0.0000 H   0  0  0  0  0  0  0  0  0  0  0  0
    6.3055    0.6544    0.0000 H   0  0  0  0  0  0  0  0  0  0  0  0
    7.0648    1.0928    0.0000 H   0  0  0  0  0  0  0  0  0  0  0  0
    6.6264    1.8521    0.0000 H   0  0  0  0  0  0  0  0  0  0  0  0
    1.3800   -1.0860    0.0000 H   0  0  0  0  0  0  0  0  0  0  0  0
    2.9750   -0.6185    0.0000 H   0  0  0  0  0  0  0  0  0  0  0  0
    2.9750    0.1786    0.0000 H   0  0  0  0  0  0  0  0  0  0  0  0
    1.5250    1.0446    0.0000 H   0  0  0  0  0  0  0  0  0  0  0  0
    1.5250    0.2475    0.0000 H   0  0  0  0  0  0  0  0  0  0  0  0
    3.8100    0.9751    0.0000 H   0  0  0  0  0  0  0  0  0  0  0  0
    1.4631   -2.5080    0.0000 H   0  0  0  0  0  0  0  0  0  0  0  0
    1.6900   -3.3550    0.0000 H   0  0  0  0  0  0  0  0  0  0  0  0
    2.5369   -3.1280    0.0000 H   0  0  0  0  0  0  0  0  0  0  0  0
    6.0466    2.8180    0.0000 H   0  0  0  0  0  0  0  0  0  0  0  0
    2.5369    2.6881    0.0000 H   0  0  0  0  0  0  0  0  0  0  0  0
    1.6900    2.9150    0.0000 H   0  0  0  0  0  0  0  0  0  0  0  0
    1.4631    2.0681    0.0000 H   0  0  0  0  0  0  0  0  0  0  0  0
  1  5  1  0  0  0  0
  1 52  1  0  0  0  0
  2  3  1  0  0  0  0
  2  4  1  0  0  0  0
  2  6  1  0  0  0  0
  2 22  1  0  0  0  0
  3 10  1  0  0  0  0
  3 11  1  0  0  0  0
  3 23  1  0  0  0  0
  4  7  1  0  0  0  0
  4 24  1  0  0  0  0
  4 25  1  0  0  0  0
  5  8  1  0  0  0  0
  5  9  1  0  0  0  0
  5 14  1  0  0  0  0
  6  9  2  3  0  0  0
  6 26  1  0  0  0  0
  7 12  1  0  0  0  0
  7 27  1  0  0  0  0
  7 28  1  0  0  0  0
  8 13  1  0  0  0  0
  8 29  1  0  0  0  0
  8 30  1  0  0  0  0
  9 31  1  0  0  0  0
 10 32  1  0  0  0  0
 10 33  1  0  0  0  0
 10 34  1  0  0  0  0
 11 35  1  0  0  0  0
 11 36  1  0  0  0  0
 11 37  1  0  0  0  0
 12 15  2  3  0  0  0
 12 20  1  0  0  0  0
 13 18  1  0  0  0  0
 13 38  1  0  0  0  0
 13 39  1  0  0  0  0
 14 40  1  0  0  0  0
 14 41  1  0  0  0  0
 14 42  1  0  0  0  0
 15 16  1  0  0  0  0
 15 43  1  0  0  0  0
 16 17  1  0  0  0  0
 16 44  1  0  0  0  0
 16 45  1  0  0  0  0
 17 19  1  0  0  0  0
 17 46  1  0  0  0  0
 17 47  1  0  0  0  0
 18 19  2  3  0  0  0
 18 48  1  0  0  0  0
 19 21  1  0  0  0  0
 20 49  1  0  0  0  0
 20 50  1  0  0  0  0
 20 51  1  0  0  0  0
 21 53  1  0  0  0  0
 21 54  1  0  0  0  0
 21 55  1  0  0  0  0
M  END
> <PUBCHEM_COMPOUND_CID>
520190
> <PUBCHEM_COMPOUND_CANONICALIZED>
1
> <PUBCHEM_CACTVS_COMPLEXITY>
400
> <PUBCHEM_CACTVS_HBOND_ACCEPTOR>
1
> <PUBCHEM_CACTVS_HBOND_DONOR>
1
> <PUBCHEM_CACTVS_ROTATABLE_BOND>
1
> <PUBCHEM_CACTVS_SUBSKEYS>
AAADcfB4IAAAAAAAAAAAAAAAAAAAAAAAAAAAAAAAAAAAAAAAAAAAGgAACAAADUSAgAACAAAAAgCAAiBCAAAAAAAgAAAICAAAAAgABAIAAQAAUAAEgAAIEAMAgEAOgAAAAAAAAAAAAAAAAAAAAAAAAAAAAA==
> <PUBCHEM_IUPAC_OPENEYE_NAME>
4-isopropyl-1,7,11-trimethyl-cyclotetradeca-2,7,11-trien-1-ol
> <PUBCHEM_IUPAC_CAS_NAME>
1,7,11-trimethyl-4-propan-2-yl-1-cyclotetradeca-2,7,11-trienol
> <PUBCHEM_IUPAC_NAME_MARKUP>
1,7,11-trimethyl-4-propan-2-ylcyclotetradeca-2,7,11-trien-1-ol
> <PUBCHEM_IUPAC_NAME>
1,7,11-trimethyl-4-propan-2-ylcyclotetradeca-2,7,11-trien-1-ol
> <PUBCHEM_IUPAC_SYSTEMATIC_NAME>
1,7,11-trimethyl-4-propan-2-yl-cyclotetradeca-2,7,11-trien-1-ol
> <PUBCHEM_IUPAC_TRADITIONAL_NAME>
4-isopropyl-1,7,11-trimethyl-cyclotetradeca-2,7,11-trien-1-ol
> <PUBCHEM_IUPAC_INCHI>
InChI=1S/C20H34O/c1-16(2)19-12-11-18(4)9-6-8-17(3)10-7-14-20(5,21)15-13-19/h9-10,13,15-16,19,21H,6-8,11-12,14H2,1-5H3
> <PUBCHEM_IUPAC_INCHIKEY>
YAPXSYXFLHDPCK-UHFFFAOYSA-N
> <PUBCHEM_XLOGP3_AA>
5.1
> <PUBCHEM_EXACT_MASS>
290.260965704
> <PUBCHEM_MOLECULAR_FORMULA>
C20H34O
> <PUBCHEM_MOLECULAR_WEIGHT>
290.5
> <PUBCHEM_OPENEYE_CAN_SMILES>
CC1=CCCC(C=CC(CCC(=CCC1)C)C(C)C)(C)O
> <PUBCHEM_OPENEYE_ISO_SMILES>
CC1=CCCC(C=CC(CCC(=CCC1)C)C(C)C)(C)O
> <PUBCHEM_CACTVS_TPSA>
20.2
> <PUBCHEM_MONOISOTOPIC_WEIGHT>
290.260965704
> <PUBCHEM_TOTAL_CHARGE>
0
> <PUBCHEM_HEAVY_ATOM_COUNT>
21
> <PUBCHEM_ATOM_DEF_STEREO_COUNT>
0
> <PUBCHEM_ATOM_UDEF_STEREO_COUNT>
2
> <PUBCHEM_BOND_DEF_STEREO_COUNT>
0
> <PUBCHEM_BOND_UDEF_STEREO_COUNT>
3
> <PUBCHEM_ISOTOPIC_ATOM_COUNT>
0
> <PUBCHEM_COMPONENT_COUNT>
1
> <PUBCHEM_CACTVS_TAUTO_COUNT>
-1
> <PUBCHEM_COORDINATE_TYPE>
1
5
255
> <PUBCHEM_BONDANNOTATIONS>
5  1  3
12  15  1
18  19  1
2  3  3
6  9  1
$$$$
