520195
  -OEChem-10302200292D
 51 50  0     1  0  0  0  0  0999 V2000
    2.5369    0.2500    0.0000 O   0  0  0  0  0  0  0  0  0  0  0  0
    7.7331    0.2500    0.0000 C   0  0  0  0  0  0  0  0  0  0  0  0
    8.5991    0.7500    0.0000 C   0  0  0  0  0  0  0  0  0  0  0  0
    6.8671    0.7500    0.0000 C   0  0  0  0  0  0  0  0  0  0  0  0
    9.4651    0.2500    0.0000 C   0  0  0  0  0  0  0  0  0  0  0  0
    6.0010    0.2500    0.0000 C   0  0  0  0  0  0  0  0  0  0  0  0
   10.3312    0.7500    0.0000 C   0  0  0  0  0  0  0  0  0  0  0  0
    5.1350    0.7500    0.0000 C   0  0  0  0  0  0  0  0  0  0  0  0
   11.1972    0.2500    0.0000 C   0  0  0  0  0  0  0  0  0  0  0  0
    4.2690    0.2500    0.0000 C   0  0  3  0  0  0  0  0  0  0  0  0
   12.0632    0.7500    0.0000 C   0  0  0  0  0  0  0  0  0  0  0  0
   12.9292    0.2500    0.0000 C   0  0  0  0  0  0  0  0  0  0  0  0
   13.7953    0.7500    0.0000 C   0  0  0  0  0  0  0  0  0  0  0  0
    3.4030    0.7500    0.0000 C   0  0  0  0  0  0  0  0  0  0  0  0
    4.2690   -0.7500    0.0000 C   0  0  0  0  0  0  0  0  0  0  0  0
   14.6613    0.2500    0.0000 C   0  0  0  0  0  0  0  0  0  0  0  0
   15.5273    0.7500    0.0000 C   0  0  0  0  0  0  0  0  0  0  0  0
    7.3346   -0.2249    0.0000 H   0  0  0  0  0  0  0  0  0  0  0  0
    8.1316   -0.2249    0.0000 H   0  0  0  0  0  0  0  0  0  0  0  0
    8.9976    1.2250    0.0000 H   0  0  0  0  0  0  0  0  0  0  0  0
    8.2006    1.2250    0.0000 H   0  0  0  0  0  0  0  0  0  0  0  0
    7.2656    1.2250    0.0000 H   0  0  0  0  0  0  0  0  0  0  0  0
    6.4685    1.2250    0.0000 H   0  0  0  0  0  0  0  0  0  0  0  0
    9.0666   -0.2249    0.0000 H   0  0  0  0  0  0  0  0  0  0  0  0
    9.8637   -0.2249    0.0000 H   0  0  0  0  0  0  0  0  0  0  0  0
    5.6025   -0.2249    0.0000 H   0  0  0  0  0  0  0  0  0  0  0  0
    6.3996   -0.2249    0.0000 H   0  0  0  0  0  0  0  0  0  0  0  0
   10.7297    1.2250    0.0000 H   0  0  0  0  0  0  0  0  0  0  0  0
    9.9326    1.2250    0.0000 H   0  0  0  0  0  0  0  0  0  0  0  0
    5.5335    1.2250    0.0000 H   0  0  0  0  0  0  0  0  0  0  0  0
    4.7365    1.2250    0.0000 H   0  0  0  0  0  0  0  0  0  0  0  0
   10.7987   -0.2249    0.0000 H   0  0  0  0  0  0  0  0  0  0  0  0
   11.5957   -0.2249    0.0000 H   0  0  0  0  0  0  0  0  0  0  0  0
    4.8059   -0.0600    0.0000 H   0  0  0  0  0  0  0  0  0  0  0  0
   12.4617    1.2250    0.0000 H   0  0  0  0  0  0  0  0  0  0  0  0
   11.6647    1.2250    0.0000 H   0  0  0  0  0  0  0  0  0  0  0  0
   12.5307   -0.2249    0.0000 H   0  0  0  0  0  0  0  0  0  0  0  0
   13.3278   -0.2249    0.0000 H   0  0  0  0  0  0  0  0  0  0  0  0
   14.1938    1.2250    0.0000 H   0  0  0  0  0  0  0  0  0  0  0  0
   13.3967    1.2250    0.0000 H   0  0  0  0  0  0  0  0  0  0  0  0
    3.8015    1.2250    0.0000 H   0  0  0  0  0  0  0  0  0  0  0  0
    3.0044    1.2250    0.0000 H   0  0  0  0  0  0  0  0  0  0  0  0
    3.6490   -0.7500    0.0000 H   0  0  0  0  0  0  0  0  0  0  0  0
    4.2690   -1.3700    0.0000 H   0  0  0  0  0  0  0  0  0  0  0  0
    4.8890   -0.7500    0.0000 H   0  0  0  0  0  0  0  0  0  0  0  0
   14.2628   -0.2249    0.0000 H   0  0  0  0  0  0  0  0  0  0  0  0
   15.0598   -0.2249    0.0000 H   0  0  0  0  0  0  0  0  0  0  0  0
   15.8373    0.2131    0.0000 H   0  0  0  0  0  0  0  0  0  0  0  0
   16.0643    1.0600    0.0000 H   0  0  0  0  0  0  0  0  0  0  0  0
   15.2173    1.2869    0.0000 H   0  0  0  0  0  0  0  0  0  0  0  0
    2.0000    0.5600    0.0000 H   0  0  0  0  0  0  0  0  0  0  0  0
  1 14  1  0  0  0  0
  1 51  1  0  0  0  0
  2  3  1  0  0  0  0
  2  4  1  0  0  0  0
  2 18  1  0  0  0  0
  2 19  1  0  0  0  0
  3  5  1  0  0  0  0
  3 20  1  0  0  0  0
  3 21  1  0  0  0  0
  4  6  1  0  0  0  0
  4 22  1  0  0  0  0
  4 23  1  0  0  0  0
  5  7  1  0  0  0  0
  5 24  1  0  0  0  0
  5 25  1  0  0  0  0
  6  8  1  0  0  0  0
  6 26  1  0  0  0  0
  6 27  1  0  0  0  0
  7  9  1  0  0  0  0
  7 28  1  0  0  0  0
  7 29  1  0  0  0  0
  8 10  1  0  0  0  0
  8 30  1  0  0  0  0
  8 31  1  0  0  0  0
  9 11  1  0  0  0  0
  9 32  1  0  0  0  0
  9 33  1  0  0  0  0
 10 14  1  0  0  0  0
 10 15  1  0  0  0  0
 10 34  1  0  0  0  0
 11 12  1  0  0  0  0
 11 35  1  0  0  0  0
 11 36  1  0  0  0  0
 12 13  1  0  0  0  0
 12 37  1  0  0  0  0
 12 38  1  0  0  0  0
 13 16  1  0  0  0  0
 13 39  1  0  0  0  0
 13 40  1  0  0  0  0
 14 41  1  0  0  0  0
 14 42  1  0  0  0  0
 15 43  1  0  0  0  0
 15 44  1  0  0  0  0
 15 45  1  0  0  0  0
 16 17  1  0  0  0  0
 16 46  1  0  0  0  0
 16 47  1  0  0  0  0
 17 48  1  0  0  0  0
 17 49  1  0  0  0  0
 17 50  1  0  0  0  0
M  END
> <PUBCHEM_COMPOUND_CID>
520195
> <PUBCHEM_COMPOUND_CANONICALIZED>
1
> <PUBCHEM_CACTVS_COMPLEXITY>
134
> <PUBCHEM_CACTVS_HBOND_ACCEPTOR>
1
> <PUBCHEM_CACTVS_HBOND_DONOR>
1
> <PUBCHEM_CACTVS_ROTATABLE_BOND>
13
> <PUBCHEM_CACTVS_SUBSKEYS>
AAADcfB4IAAAAAAAAAAAAAAAAAAAAAAAAAAAAAAAAAAAAAAAAAAAGgAACAAADQCggAICAAAAAgAAAAAAAAAAAAAAAAAAAAAAAAAAEAIAAAAAQAAEAAAAAAGAwOAMAAAAAAAAAAAAAAAAAAAAAAAAAAAAAA==
> <PUBCHEM_IUPAC_OPENEYE_NAME>
2-methylpentadecan-1-ol
> <PUBCHEM_IUPAC_CAS_NAME>
2-methyl-1-pentadecanol
> <PUBCHEM_IUPAC_NAME_MARKUP>
2-methylpentadecan-1-ol
> <PUBCHEM_IUPAC_NAME>
2-methylpentadecan-1-ol
> <PUBCHEM_IUPAC_SYSTEMATIC_NAME>
2-methylpentadecan-1-ol
> <PUBCHEM_IUPAC_TRADITIONAL_NAME>
2-methylpentadecan-1-ol
> <PUBCHEM_IUPAC_INCHI>
InChI=1S/C16H34O/c1-3-4-5-6-7-8-9-10-11-12-13-14-16(2)15-17/h16-17H,3-15H2,1-2H3
> <PUBCHEM_IUPAC_INCHIKEY>
ZBQXOOAHEIPFSM-UHFFFAOYSA-N
> <PUBCHEM_XLOGP3_AA>
7.2
> <PUBCHEM_EXACT_MASS>
242.260965704
> <PUBCHEM_MOLECULAR_FORMULA>
C16H34O
> <PUBCHEM_MOLECULAR_WEIGHT>
242.44
> <PUBCHEM_OPENEYE_CAN_SMILES>
CCCCCCCCCCCCCC(C)CO
> <PUBCHEM_OPENEYE_ISO_SMILES>
CCCCCCCCCCCCCC(C)CO
> <PUBCHEM_CACTVS_TPSA>
20.2
> <PUBCHEM_MONOISOTOPIC_WEIGHT>
242.260965704
> <PUBCHEM_TOTAL_CHARGE>
0
> <PUBCHEM_HEAVY_ATOM_COUNT>
17
> <PUBCHEM_ATOM_DEF_STEREO_COUNT>
0
> <PUBCHEM_ATOM_UDEF_STEREO_COUNT>
1
> <PUBCHEM_BOND_DEF_STEREO_COUNT>
0
> <PUBCHEM_BOND_UDEF_STEREO_COUNT>
0
> <PUBCHEM_ISOTOPIC_ATOM_COUNT>
0
> <PUBCHEM_COMPONENT_COUNT>
1
> <PUBCHEM_CACTVS_TAUTO_COUNT>
-1
> <PUBCHEM_COORDINATE_TYPE>
1
5
255
> <PUBCHEM_BONDANNOTATIONS>
10  15  3
$$$$
