520198
  -OEChem-10302200292D
 23 22  0     1  0  0  0  0  0999 V2000
    7.1962    0.7500    0.0000 O   0  0  0  0  0  0  0  0  0  0  0  0
    3.7320    0.7500    0.0000 O   0  0  0  0  0  0  0  0  0  0  0  0
    8.9282    0.7500    0.0000 O   0  5  0  0  0  0  0  0  0  0  0  0
    2.0000    0.7500    0.0000 O   0  5  0  0  0  0  0  0  0  0  0  0
    8.0622   -0.7500    0.0000 O   0  0  0  0  0  0  0  0  0  0  0  0
    2.8660   -0.7500    0.0000 O   0  0  0  0  0  0  0  0  0  0  0  0
    8.0622    0.2500    0.0000 N   0  3  0  0  0  0  0  0  0  0  0  0
    2.8660    0.2500    0.0000 N   0  3  0  0  0  0  0  0  0  0  0  0
    5.4641    0.7500    0.0000 C   0  0  0  0  0  0  0  0  0  0  0  0
    6.3301    0.2500    0.0000 C   0  0  3  0  0  0  0  0  0  0  0  0
    4.5981    0.2500    0.0000 C   0  0  3  0  0  0  0  0  0  0  0  0
    6.3301   -0.7500    0.0000 C   0  0  0  0  0  0  0  0  0  0  0  0
    4.5981   -0.7500    0.0000 C   0  0  0  0  0  0  0  0  0  0  0  0
    5.8626    1.2250    0.0000 H   0  0  0  0  0  0  0  0  0  0  0  0
    5.0656    1.2250    0.0000 H   0  0  0  0  0  0  0  0  0  0  0  0
    6.8671   -0.0600    0.0000 H   0  0  0  0  0  0  0  0  0  0  0  0
    4.5981    0.8700    0.0000 H   0  0  0  0  0  0  0  0  0  0  0  0
    5.7101   -0.7500    0.0000 H   0  0  0  0  0  0  0  0  0  0  0  0
    6.3301   -1.3700    0.0000 H   0  0  0  0  0  0  0  0  0  0  0  0
    6.9501   -0.7500    0.0000 H   0  0  0  0  0  0  0  0  0  0  0  0
    3.9781   -0.7500    0.0000 H   0  0  0  0  0  0  0  0  0  0  0  0
    4.5981   -1.3700    0.0000 H   0  0  0  0  0  0  0  0  0  0  0  0
    5.2181   -0.7500    0.0000 H   0  0  0  0  0  0  0  0  0  0  0  0
  1  7  1  0  0  0  0
  1 10  1  0  0  0  0
  2  8  1  0  0  0  0
  2 11  1  0  0  0  0
  3  7  1  0  0  0  0
  4  8  1  0  0  0  0
  5  7  2  0  0  0  0
  6  8  2  0  0  0  0
  9 10  1  0  0  0  0
  9 11  1  0  0  0  0
  9 14  1  0  0  0  0
  9 15  1  0  0  0  0
 10 12  1  0  0  0  0
 10 16  1  0  0  0  0
 11 13  1  0  0  0  0
 11 17  1  0  0  0  0
 12 18  1  0  0  0  0
 12 19  1  0  0  0  0
 12 20  1  0  0  0  0
 13 21  1  0  0  0  0
 13 22  1  0  0  0  0
 13 23  1  0  0  0  0
M  CHG  4   3  -1   4  -1   7   1   8   1
M  END
> <PUBCHEM_COMPOUND_CID>
520198
> <PUBCHEM_COMPOUND_CANONICALIZED>
1
> <PUBCHEM_CACTVS_COMPLEXITY>
164
> <PUBCHEM_CACTVS_HBOND_ACCEPTOR>
6
> <PUBCHEM_CACTVS_HBOND_DONOR>
0
> <PUBCHEM_CACTVS_ROTATABLE_BOND>
4
> <PUBCHEM_CACTVS_SUBSKEYS>
AAADccBjOAAAAAAAAAAAAAAAAAAAAAAAAAAAAAAAAAAAAAAAAAAAGgAEAAAACBSggAICAAAAQAABAAAAAQAAAAAAAAAAAAAAAAAAAAIAAAAAAAAFAAAAAAAAAAAAAAAAAAAAAAAAAAAAAAAAAAAAAAAAAA==
> <PUBCHEM_IUPAC_OPENEYE_NAME>
(1-methyl-3-nitrooxy-butyl) nitrate
> <PUBCHEM_IUPAC_CAS_NAME>
nitric acid 4-nitrooxypentan-2-yl ester
> <PUBCHEM_IUPAC_NAME_MARKUP>
4-nitrooxypentan-2-yl nitrate
> <PUBCHEM_IUPAC_NAME>
4-nitrooxypentan-2-yl nitrate
> <PUBCHEM_IUPAC_SYSTEMATIC_NAME>
4-nitrooxypentan-2-yl nitrate
> <PUBCHEM_IUPAC_TRADITIONAL_NAME>
nitric acid (1-methyl-3-nitrooxy-butyl) ester
> <PUBCHEM_IUPAC_INCHI>
InChI=1S/C5H10N2O6/c1-4(12-6(8)9)3-5(2)13-7(10)11/h4-5H,3H2,1-2H3
> <PUBCHEM_IUPAC_INCHIKEY>
XVWLQUXGMQFTPO-UHFFFAOYSA-N
> <PUBCHEM_XLOGP3_AA>
2
> <PUBCHEM_EXACT_MASS>
194.05388604
> <PUBCHEM_MOLECULAR_FORMULA>
C5H10N2O6
> <PUBCHEM_MOLECULAR_WEIGHT>
194.14
> <PUBCHEM_OPENEYE_CAN_SMILES>
CC(CC(C)O[N+](=O)[O-])O[N+](=O)[O-]
> <PUBCHEM_OPENEYE_ISO_SMILES>
CC(CC(C)O[N+](=O)[O-])O[N+](=O)[O-]
> <PUBCHEM_CACTVS_TPSA>
110
> <PUBCHEM_MONOISOTOPIC_WEIGHT>
194.05388604
> <PUBCHEM_TOTAL_CHARGE>
0
> <PUBCHEM_HEAVY_ATOM_COUNT>
13
> <PUBCHEM_ATOM_DEF_STEREO_COUNT>
0
> <PUBCHEM_ATOM_UDEF_STEREO_COUNT>
2
> <PUBCHEM_BOND_DEF_STEREO_COUNT>
0
> <PUBCHEM_BOND_UDEF_STEREO_COUNT>
0
> <PUBCHEM_ISOTOPIC_ATOM_COUNT>
0
> <PUBCHEM_COMPONENT_COUNT>
1
> <PUBCHEM_CACTVS_TAUTO_COUNT>
-1
> <PUBCHEM_COORDINATE_TYPE>
1
5
255
> <PUBCHEM_BONDANNOTATIONS>
10  12  3
11  13  3
$$$$
