520296
  -OEChem-10302200292D
 42 42  0     1  0  0  0  0  0999 V2000
   10.6603   -1.0000    0.0000 O   0  0  0  0  0  0  0  0  0  0  0  0
   12.3923   -1.0000    0.0000 O   0  0  0  0  0  0  0  0  0  0  0  0
    9.7942   -0.5000    0.0000 C   0  0  3  0  0  0  0  0  0  0  0  0
    8.9282   -1.0000    0.0000 C   0  0  0  0  0  0  0  0  0  0  0  0
    8.0622   -0.5000    0.0000 C   0  0  0  0  0  0  0  0  0  0  0  0
    9.7942    0.5000    0.0000 C   0  0  0  0  0  0  0  0  0  0  0  0
    7.1962   -1.0000    0.0000 C   0  0  0  0  0  0  0  0  0  0  0  0
    6.3301   -0.5000    0.0000 C   0  0  0  0  0  0  0  0  0  0  0  0
   10.6603    1.0000    0.0000 C   0  0  0  0  0  0  0  0  0  0  0  0
    5.4641   -1.0000    0.0000 C   0  0  0  0  0  0  0  0  0  0  0  0
   11.5263    0.5000    0.0000 C   0  0  0  0  0  0  0  0  0  0  0  0
    4.5981   -0.5000    0.0000 C   0  0  0  0  0  0  0  0  0  0  0  0
   11.5263   -0.5000    0.0000 C   0  0  0  0  0  0  0  0  0  0  0  0
    3.7320   -1.0000    0.0000 C   0  0  0  0  0  0  0  0  0  0  0  0
    2.8660   -0.5000    0.0000 C   0  0  0  0  0  0  0  0  0  0  0  0
    2.0000   -1.0000    0.0000 C   0  0  0  0  0  0  0  0  0  0  0  0
    9.7942   -1.3500    0.0000 H   0  0  0  0  0  0  0  0  0  0  0  0
    8.5297   -1.4750    0.0000 H   0  0  0  0  0  0  0  0  0  0  0  0
    9.3267   -1.4750    0.0000 H   0  0  0  0  0  0  0  0  0  0  0  0
    8.4607   -0.0251    0.0000 H   0  0  0  0  0  0  0  0  0  0  0  0
    7.6636   -0.0251    0.0000 H   0  0  0  0  0  0  0  0  0  0  0  0
    9.5822    1.0826    0.0000 H   0  0  0  0  0  0  0  0  0  0  0  0
    9.1836    0.3923    0.0000 H   0  0  0  0  0  0  0  0  0  0  0  0
    6.7976   -1.4750    0.0000 H   0  0  0  0  0  0  0  0  0  0  0  0
    7.5947   -1.4750    0.0000 H   0  0  0  0  0  0  0  0  0  0  0  0
    6.7287   -0.0251    0.0000 H   0  0  0  0  0  0  0  0  0  0  0  0
    5.9316   -0.0251    0.0000 H   0  0  0  0  0  0  0  0  0  0  0  0
   11.0588    1.4750    0.0000 H   0  0  0  0  0  0  0  0  0  0  0  0
   10.2617    1.4750    0.0000 H   0  0  0  0  0  0  0  0  0  0  0  0
    5.0656   -1.4750    0.0000 H   0  0  0  0  0  0  0  0  0  0  0  0
    5.8626   -1.4750    0.0000 H   0  0  0  0  0  0  0  0  0  0  0  0
   12.1369    0.3923    0.0000 H   0  0  0  0  0  0  0  0  0  0  0  0
   11.7383    1.0826    0.0000 H   0  0  0  0  0  0  0  0  0  0  0  0
    4.9966   -0.0251    0.0000 H   0  0  0  0  0  0  0  0  0  0  0  0
    4.1996   -0.0251    0.0000 H   0  0  0  0  0  0  0  0  0  0  0  0
    3.3335   -1.4750    0.0000 H   0  0  0  0  0  0  0  0  0  0  0  0
    4.1306   -1.4750    0.0000 H   0  0  0  0  0  0  0  0  0  0  0  0
    3.2646   -0.0251    0.0000 H   0  0  0  0  0  0  0  0  0  0  0  0
    2.4675   -0.0251    0.0000 H   0  0  0  0  0  0  0  0  0  0  0  0
    1.6900   -0.4631    0.0000 H   0  0  0  0  0  0  0  0  0  0  0  0
    1.4631   -1.3100    0.0000 H   0  0  0  0  0  0  0  0  0  0  0  0
    2.3100   -1.5369    0.0000 H   0  0  0  0  0  0  0  0  0  0  0  0
  1  3  1  0  0  0  0
  1 13  1  0  0  0  0
  2 13  2  0  0  0  0
  3  4  1  0  0  0  0
  3  6  1  0  0  0  0
  3 17  1  0  0  0  0
  4  5  1  0  0  0  0
  4 18  1  0  0  0  0
  4 19  1  0  0  0  0
  5  7  1  0  0  0  0
  5 20  1  0  0  0  0
  5 21  1  0  0  0  0
  6  9  1  0  0  0  0
  6 22  1  0  0  0  0
  6 23  1  0  0  0  0
  7  8  1  0  0  0  0
  7 24  1  0  0  0  0
  7 25  1  0  0  0  0
  8 10  1  0  0  0  0
  8 26  1  0  0  0  0
  8 27  1  0  0  0  0
  9 11  1  0  0  0  0
  9 28  1  0  0  0  0
  9 29  1  0  0  0  0
 10 12  1  0  0  0  0
 10 30  1  0  0  0  0
 10 31  1  0  0  0  0
 11 13  1  0  0  0  0
 11 32  1  0  0  0  0
 11 33  1  0  0  0  0
 12 14  1  0  0  0  0
 12 34  1  0  0  0  0
 12 35  1  0  0  0  0
 14 15  1  0  0  0  0
 14 36  1  0  0  0  0
 14 37  1  0  0  0  0
 15 16  1  0  0  0  0
 15 38  1  0  0  0  0
 15 39  1  0  0  0  0
 16 40  1  0  0  0  0
 16 41  1  0  0  0  0
 16 42  1  0  0  0  0
M  END
> <PUBCHEM_COMPOUND_CID>
520296
> <PUBCHEM_COMPOUND_CANONICALIZED>
1
> <PUBCHEM_CACTVS_COMPLEXITY>
189
> <PUBCHEM_CACTVS_HBOND_ACCEPTOR>
2
> <PUBCHEM_CACTVS_HBOND_DONOR>
0
> <PUBCHEM_CACTVS_ROTATABLE_BOND>
8
> <PUBCHEM_CACTVS_SUBSKEYS>
AAADceBwMAAAAAAAAAAAAAAAAAAAAAAAAAAkAAAAAAAAAAAAAAAAGgAAAAAACBSggAICCAAABAAIAACQCAAAAAAAAAAAAAEAAAAAABIAAAACAAAEAAAAAAGIzKDAAAAAAAAAAAAAAAAAAAAAAAAAAAAAAA==
> <PUBCHEM_IUPAC_OPENEYE_NAME>
6-nonyltetrahydropyran-2-one
> <PUBCHEM_IUPAC_CAS_NAME>
6-nonyl-2-oxanone
> <PUBCHEM_IUPAC_NAME_MARKUP>
6-nonyloxan-2-one
> <PUBCHEM_IUPAC_NAME>
6-nonyloxan-2-one
> <PUBCHEM_IUPAC_SYSTEMATIC_NAME>
6-nonyloxan-2-one
> <PUBCHEM_IUPAC_TRADITIONAL_NAME>
6-nonyltetrahydropyran-2-one
> <PUBCHEM_IUPAC_INCHI>
InChI=1S/C14H26O2/c1-2-3-4-5-6-7-8-10-13-11-9-12-14(15)16-13/h13H,2-12H2,1H3
> <PUBCHEM_IUPAC_INCHIKEY>
SKQYTJLYRIFFCO-UHFFFAOYSA-N
> <PUBCHEM_XLOGP3>
4.7
> <PUBCHEM_EXACT_MASS>
226.193280068
> <PUBCHEM_MOLECULAR_FORMULA>
C14H26O2
> <PUBCHEM_MOLECULAR_WEIGHT>
226.35
> <PUBCHEM_OPENEYE_CAN_SMILES>
CCCCCCCCCC1CCCC(=O)O1
> <PUBCHEM_OPENEYE_ISO_SMILES>
CCCCCCCCCC1CCCC(=O)O1
> <PUBCHEM_CACTVS_TPSA>
26.3
> <PUBCHEM_MONOISOTOPIC_WEIGHT>
226.193280068
> <PUBCHEM_TOTAL_CHARGE>
0
> <PUBCHEM_HEAVY_ATOM_COUNT>
16
> <PUBCHEM_ATOM_DEF_STEREO_COUNT>
0
> <PUBCHEM_ATOM_UDEF_STEREO_COUNT>
1
> <PUBCHEM_BOND_DEF_STEREO_COUNT>
0
> <PUBCHEM_BOND_UDEF_STEREO_COUNT>
0
> <PUBCHEM_ISOTOPIC_ATOM_COUNT>
0
> <PUBCHEM_COMPONENT_COUNT>
1
> <PUBCHEM_CACTVS_TAUTO_COUNT>
2
> <PUBCHEM_COORDINATE_TYPE>
1
5
255
> <PUBCHEM_BONDANNOTATIONS>
3  17  3
$$$$
