520208
  -OEChem-10302200292D
 73 76  0     1  0  0  0  0  0999 V2000
   11.3567    1.9480    0.0000 Si  0  0  0  0  0  0  0  0  0  0  0  0
    2.8641   -2.0624    0.0000 Si  0  0  0  0  0  0  0  0  0  0  0  0
   10.3781    1.7418    0.0000 O   0  0  0  0  0  0  0  0  0  0  0  0
    3.7282   -2.5658    0.0000 O   0  0  0  0  0  0  0  0  0  0  0  0
    9.1213    0.4866    0.0000 C   0  0  3  0  0  0  0  0  0  0  0  0
    9.1213   -0.5134    0.0000 C   0  0  3  0  0  0  0  0  0  0  0  0
    8.2552   -1.0134    0.0000 C   0  0  3  0  0  0  0  0  0  0  0  0
    7.3892   -0.5134    0.0000 C   0  0  3  0  0  0  0  0  0  0  0  0
    8.2552    0.9866    0.0000 C   0  0  0  0  0  0  0  0  0  0  0  0
   10.0675    0.7913    0.0000 C   0  0  3  0  0  0  0  0  0  0  0  0
    6.4792   -1.0203    0.0000 C   0  0  3  0  0  0  0  0  0  0  0  0
    7.3892    0.4866    0.0000 C   0  0  0  0  0  0  0  0  0  0  0  0
   10.0675   -0.8182    0.0000 C   0  0  0  0  0  0  0  0  0  0  0  0
   10.6511   -0.0134    0.0000 C   0  0  0  0  0  0  0  0  0  0  0  0
    8.2713   -2.0550    0.0000 C   0  0  0  0  0  0  0  0  0  0  0  0
    9.1213    1.4866    0.0000 C   0  0  0  0  0  0  0  0  0  0  0  0
    6.4712   -2.0619    0.0000 C   0  0  0  0  0  0  0  0  0  0  0  0
    5.5524   -0.4562    0.0000 C   0  0  0  0  0  0  0  0  0  0  0  0
    7.3733   -2.5827    0.0000 C   0  0  0  0  0  0  0  0  0  0  0  0
    6.4869   -0.0203    0.0000 C   0  0  0  0  0  0  0  0  0  0  0  0
    4.6045   -0.9842    0.0000 C   0  0  0  0  0  0  0  0  0  0  0  0
    5.5358   -2.6116    0.0000 C   0  0  0  0  0  0  0  0  0  0  0  0
    4.5961   -2.0691    0.0000 C   0  0  0  0  0  0  0  0  0  0  0  0
   12.3352    2.1543    0.0000 C   0  0  0  0  0  0  0  0  0  0  0  0
   11.1504    2.9265    0.0000 C   0  0  0  0  0  0  0  0  0  0  0  0
   11.5629    0.9695    0.0000 C   0  0  0  0  0  0  0  0  0  0  0  0
    2.0000   -1.5591    0.0000 C   0  0  0  0  0  0  0  0  0  0  0  0
    2.3608   -2.9265    0.0000 C   0  0  0  0  0  0  0  0  0  0  0  0
    3.3674   -1.1984    0.0000 C   0  0  0  0  0  0  0  0  0  0  0  0
    9.1869   -1.1300    0.0000 H   0  0  0  0  0  0  0  0  0  0  0  0
    8.7945   -1.3193    0.0000 H   0  0  0  0  0  0  0  0  0  0  0  0
    7.9262   -0.2034    0.0000 H   0  0  0  0  0  0  0  0  0  0  0  0
    8.6538    1.4615    0.0000 H   0  0  0  0  0  0  0  0  0  0  0  0
    7.8567    1.4615    0.0000 H   0  0  0  0  0  0  0  0  0  0  0  0
   10.6800    0.8875    0.0000 H   0  0  0  0  0  0  0  0  0  0  0  0
    7.1772    1.0692    0.0000 H   0  0  0  0  0  0  0  0  0  0  0  0
    6.7786    0.3789    0.0000 H   0  0  0  0  0  0  0  0  0  0  0  0
    9.8164   -1.3851    0.0000 H   0  0  0  0  0  0  0  0  0  0  0  0
   10.6049   -1.1274    0.0000 H   0  0  0  0  0  0  0  0  0  0  0  0
   11.1120   -0.4282    0.0000 H   0  0  0  0  0  0  0  0  0  0  0  0
   11.1120    0.4013    0.0000 H   0  0  0  0  0  0  0  0  0  0  0  0
    8.4893   -2.6354    0.0000 H   0  0  0  0  0  0  0  0  0  0  0  0
    8.8804   -1.9394    0.0000 H   0  0  0  0  0  0  0  0  0  0  0  0
    9.7413    1.4866    0.0000 H   0  0  0  0  0  0  0  0  0  0  0  0
    9.1213    2.1066    0.0000 H   0  0  0  0  0  0  0  0  0  0  0  0
    8.5013    1.4866    0.0000 H   0  0  0  0  0  0  0  0  0  0  0  0
    5.9606    0.0104    0.0000 H   0  0  0  0  0  0  0  0  0  0  0  0
    5.1625    0.0258    0.0000 H   0  0  0  0  0  0  0  0  0  0  0  0
    7.3756   -3.2027    0.0000 H   0  0  0  0  0  0  0  0  0  0  0  0
    7.1069   -0.0251    0.0000 H   0  0  0  0  0  0  0  0  0  0  0  0
    6.4917    0.5997    0.0000 H   0  0  0  0  0  0  0  0  0  0  0  0
    5.8669   -0.0155    0.0000 H   0  0  0  0  0  0  0  0  0  0  0  0
    4.3999   -0.3989    0.0000 H   0  0  0  0  0  0  0  0  0  0  0  0
    3.9928   -1.0855    0.0000 H   0  0  0  0  0  0  0  0  0  0  0  0
    5.5382   -3.2316    0.0000 H   0  0  0  0  0  0  0  0  0  0  0  0
   12.4630    1.5476    0.0000 H   0  0  0  0  0  0  0  0  0  0  0  0
   12.9418    2.2821    0.0000 H   0  0  0  0  0  0  0  0  0  0  0  0
   12.2073    2.7609    0.0000 H   0  0  0  0  0  0  0  0  0  0  0  0
   11.7571    3.0544    0.0000 H   0  0  0  0  0  0  0  0  0  0  0  0
   11.0226    3.5332    0.0000 H   0  0  0  0  0  0  0  0  0  0  0  0
   10.5438    2.7987    0.0000 H   0  0  0  0  0  0  0  0  0  0  0  0
   10.9562    0.8417    0.0000 H   0  0  0  0  0  0  0  0  0  0  0  0
   11.6907    0.3628    0.0000 H   0  0  0  0  0  0  0  0  0  0  0  0
   12.1695    1.0974    0.0000 H   0  0  0  0  0  0  0  0  0  0  0  0
    2.3121   -1.0234    0.0000 H   0  0  0  0  0  0  0  0  0  0  0  0
    1.4643   -1.2470    0.0000 H   0  0  0  0  0  0  0  0  0  0  0  0
    1.6879   -2.0948    0.0000 H   0  0  0  0  0  0  0  0  0  0  0  0
    1.8250   -2.6145    0.0000 H   0  0  0  0  0  0  0  0  0  0  0  0
    2.0487   -3.4623    0.0000 H   0  0  0  0  0  0  0  0  0  0  0  0
    2.8965   -3.2386    0.0000 H   0  0  0  0  0  0  0  0  0  0  0  0
    3.9032   -1.5104    0.0000 H   0  0  0  0  0  0  0  0  0  0  0  0
    3.6795   -0.6626    0.0000 H   0  0  0  0  0  0  0  0  0  0  0  0
    2.8317   -0.8863    0.0000 H   0  0  0  0  0  0  0  0  0  0  0  0
  1  3  1  0  0  0  0
  1 24  1  0  0  0  0
  1 25  1  0  0  0  0
  1 26  1  0  0  0  0
  2  4  1  0  0  0  0
  2 27  1  0  0  0  0
  2 28  1  0  0  0  0
  2 29  1  0  0  0  0
  3 10  1  0  0  0  0
  4 23  1  0  0  0  0
  5  6  1  0  0  0  0
  5  9  1  0  0  0  0
  5 10  1  0  0  0  0
  5 16  1  0  0  0  0
  6  7  1  0  0  0  0
  6 13  1  0  0  0  0
  6 30  1  0  0  0  0
  7  8  1  0  0  0  0
  7 15  1  0  0  0  0
  7 31  1  0  0  0  0
  8 11  1  0  0  0  0
  8 12  1  0  0  0  0
  8 32  1  0  0  0  0
  9 12  1  0  0  0  0
  9 33  1  0  0  0  0
  9 34  1  0  0  0  0
 10 14  1  0  0  0  0
 10 35  1  0  0  0  0
 11 17  1  0  0  0  0
 11 18  1  0  0  0  0
 11 20  1  0  0  0  0
 12 36  1  0  0  0  0
 12 37  1  0  0  0  0
 13 14  1  0  0  0  0
 13 38  1  0  0  0  0
 13 39  1  0  0  0  0
 14 40  1  0  0  0  0
 14 41  1  0  0  0  0
 15 19  1  0  0  0  0
 15 42  1  0  0  0  0
 15 43  1  0  0  0  0
 16 44  1  0  0  0  0
 16 45  1  0  0  0  0
 16 46  1  0  0  0  0
 17 19  2  0  0  0  0
 17 22  1  0  0  0  0
 18 21  1  0  0  0  0
 18 47  1  0  0  0  0
 18 48  1  0  0  0  0
 19 49  1  0  0  0  0
 20 50  1  0  0  0  0
 20 51  1  0  0  0  0
 20 52  1  0  0  0  0
 21 23  1  0  0  0  0
 21 53  1  0  0  0  0
 21 54  1  0  0  0  0
 22 23  2  0  0  0  0
 22 55  1  0  0  0  0
 24 56  1  0  0  0  0
 24 57  1  0  0  0  0
 24 58  1  0  0  0  0
 25 59  1  0  0  0  0
 25 60  1  0  0  0  0
 25 61  1  0  0  0  0
 26 62  1  0  0  0  0
 26 63  1  0  0  0  0
 26 64  1  0  0  0  0
 27 65  1  0  0  0  0
 27 66  1  0  0  0  0
 27 67  1  0  0  0  0
 28 68  1  0  0  0  0
 28 69  1  0  0  0  0
 28 70  1  0  0  0  0
 29 71  1  0  0  0  0
 29 72  1  0  0  0  0
 29 73  1  0  0  0  0
M  END
> <PUBCHEM_COMPOUND_CID>
520208
> <PUBCHEM_COMPOUND_CANONICALIZED>
1
> <PUBCHEM_CACTVS_COMPLEXITY>
713
> <PUBCHEM_CACTVS_HBOND_ACCEPTOR>
2
> <PUBCHEM_CACTVS_HBOND_DONOR>
0
> <PUBCHEM_CACTVS_ROTATABLE_BOND>
4
> <PUBCHEM_CACTVS_SUBSKEYS>
AAADcfB4MAwAAAAAAAAAAAAAAAAAAYAAAAAwQIAAAAAAAGCAAAAAGhAAAEAADxSggAJCAAAAAAGAAiBCAAAAAAAgIAAACAAAAAgIAAIAAQAAAAAEgAAIgAOAwPAPgAAAAAAAAACAAAQAACAAAIAADAAAAA==
> <PUBCHEM_IUPAC_OPENEYE_NAME>
(10,13-dimethyl-3-trimethylsilyloxy-2,7,8,9,11,12,14,15,16,17-decahydro-1H-cyclopenta[a]phenanthren-17-yl)oxy-trimethyl-silane
> <PUBCHEM_IUPAC_CAS_NAME>
(10,13-dimethyl-3-trimethylsilyloxy-2,7,8,9,11,12,14,15,16,17-decahydro-1H-cyclopenta[a]phenanthren-17-yl)oxy-trimethylsilane
> <PUBCHEM_IUPAC_NAME_MARKUP>
(10,13-dimethyl-3-trimethylsilyloxy-2,7,8,9,11,12,14,15,16,17-decahydro-1<I>H</I>-cyclopenta[a]phenanthren-17-yl)oxy-trimethylsilane
> <PUBCHEM_IUPAC_NAME>
(10,13-dimethyl-3-trimethylsilyloxy-2,7,8,9,11,12,14,15,16,17-decahydro-1H-cyclopenta[a]phenanthren-17-yl)oxy-trimethylsilane
> <PUBCHEM_IUPAC_SYSTEMATIC_NAME>
(10,13-dimethyl-3-trimethylsilyloxy-2,7,8,9,11,12,14,15,16,17-decahydro-1H-cyclopenta[a]phenanthren-17-yl)oxy-trimethyl-silane
> <PUBCHEM_IUPAC_TRADITIONAL_NAME>
(10,13-dimethyl-3-trimethylsilyloxy-2,7,8,9,11,12,14,15,16,17-decahydro-1H-cyclopenta[a]phenanthren-17-yl)oxy-trimethyl-silane
> <PUBCHEM_IUPAC_INCHI>
InChI=1S/C25H44O2Si2/c1-24-15-13-19(26-28(3,4)5)17-18(24)9-10-20-21-11-12-23(27-29(6,7)8)25(21,2)16-14-22(20)24/h9,17,20-23H,10-16H2,1-8H3
> <PUBCHEM_IUPAC_INCHIKEY>
MLVIKHIRGFETED-UHFFFAOYSA-N
> <PUBCHEM_EXACT_MASS>
432.28798371
> <PUBCHEM_MOLECULAR_FORMULA>
C25H44O2Si2
> <PUBCHEM_MOLECULAR_WEIGHT>
432.8
> <PUBCHEM_OPENEYE_CAN_SMILES>
CC12CCC3C(C1CCC2O[Si](C)(C)C)CC=C4C3(CCC(=C4)O[Si](C)(C)C)C
> <PUBCHEM_OPENEYE_ISO_SMILES>
CC12CCC3C(C1CCC2O[Si](C)(C)C)CC=C4C3(CCC(=C4)O[Si](C)(C)C)C
> <PUBCHEM_CACTVS_TPSA>
18.5
> <PUBCHEM_MONOISOTOPIC_WEIGHT>
432.28798371
> <PUBCHEM_TOTAL_CHARGE>
0
> <PUBCHEM_HEAVY_ATOM_COUNT>
29
> <PUBCHEM_ATOM_DEF_STEREO_COUNT>
0
> <PUBCHEM_ATOM_UDEF_STEREO_COUNT>
6
> <PUBCHEM_BOND_DEF_STEREO_COUNT>
0
> <PUBCHEM_BOND_UDEF_STEREO_COUNT>
0
> <PUBCHEM_ISOTOPIC_ATOM_COUNT>
0
> <PUBCHEM_COMPONENT_COUNT>
1
> <PUBCHEM_CACTVS_TAUTO_COUNT>
-1
> <PUBCHEM_COORDINATE_TYPE>
1
5
255
> <PUBCHEM_BONDANNOTATIONS>
11  20  3
10  3  3
5  16  3
6  13  3
7  15  3
8  12  3
$$$$
