520222
  -OEChem-10302200292D
 34 36  0     1  0  0  0  0  0999 V2000
    5.0000   -2.4330    0.0000 N   0  0  0  0  0  0  0  0  0  0  0  0
    4.0000    3.2990    0.0000 N   0  0  0  0  0  0  0  0  0  0  0  0
    4.0000   -0.7010    0.0000 C   0  0  3  0  0  0  0  0  0  0  0  0
    3.1340   -0.2010    0.0000 C   0  0  0  0  0  0  0  0  0  0  0  0
    3.1340    0.7990    0.0000 C   0  0  0  0  0  0  0  0  0  0  0  0
    4.8660   -0.2010    0.0000 C   0  0  0  0  0  0  0  0  0  0  0  0
    4.0000    1.2990    0.0000 C   0  0  3  0  0  0  0  0  0  0  0  0
    4.8660    0.7990    0.0000 C   0  0  0  0  0  0  0  0  0  0  0  0
    3.5000   -1.5670    0.0000 C   0  0  0  0  0  0  0  0  0  0  0  0
    5.7600   -0.7356    0.0000 C   0  0  0  0  0  0  0  0  0  0  0  0
    5.7600    1.3337    0.0000 C   0  0  0  0  0  0  0  0  0  0  0  0
    4.5000   -1.5670    0.0000 C   0  0  0  0  0  0  0  0  0  0  0  0
    2.5000   -1.5670    0.0000 C   0  0  0  0  0  0  0  0  0  0  0  0
    4.0000   -2.4330    0.0000 C   0  0  0  0  0  0  0  0  0  0  0  0
    6.6660   -0.2218    0.0000 C   0  0  0  0  0  0  0  0  0  0  0  0
    4.0000    2.2990    0.0000 C   0  0  0  0  0  0  0  0  0  0  0  0
    6.6660    0.8199    0.0000 C   0  0  0  0  0  0  0  0  0  0  0  0
    2.0000   -2.4330    0.0000 C   0  0  0  0  0  0  0  0  0  0  0  0
    3.5000   -3.2990    0.0000 C   0  0  0  0  0  0  0  0  0  0  0  0
    2.5000   -3.2990    0.0000 C   0  0  0  0  0  0  0  0  0  0  0  0
    2.5234   -0.0933    0.0000 H   0  0  0  0  0  0  0  0  0  0  0  0
    2.9219   -0.7836    0.0000 H   0  0  0  0  0  0  0  0  0  0  0  0
    2.9219    1.3816    0.0000 H   0  0  0  0  0  0  0  0  0  0  0  0
    2.5234    0.6914    0.0000 H   0  0  0  0  0  0  0  0  0  0  0  0
    4.5369    1.6090    0.0000 H   0  0  0  0  0  0  0  0  0  0  0  0
    5.7528   -1.3556    0.0000 H   0  0  0  0  0  0  0  0  0  0  0  0
    5.7528    1.9537    0.0000 H   0  0  0  0  0  0  0  0  0  0  0  0
    2.1900   -1.0300    0.0000 H   0  0  0  0  0  0  0  0  0  0  0  0
    4.6200   -2.4330    0.0000 H   0  0  0  0  0  0  0  0  0  0  0  0
    7.2018   -0.5338    0.0000 H   0  0  0  0  0  0  0  0  0  0  0  0
    7.2018    1.1319    0.0000 H   0  0  0  0  0  0  0  0  0  0  0  0
    1.3800   -2.4330    0.0000 H   0  0  0  0  0  0  0  0  0  0  0  0
    3.8100   -3.8360    0.0000 H   0  0  0  0  0  0  0  0  0  0  0  0
    2.1900   -3.8360    0.0000 H   0  0  0  0  0  0  0  0  0  0  0  0
  1 12  3  0  0  0  0
  2 16  3  0  0  0  0
  3  4  1  0  0  0  0
  3  6  1  0  0  0  0
  3  9  1  0  0  0  0
  3 12  1  0  0  0  0
  4  5  1  0  0  0  0
  4 21  1  0  0  0  0
  4 22  1  0  0  0  0
  5  7  1  0  0  0  0
  5 23  1  0  0  0  0
  5 24  1  0  0  0  0
  6  8  1  0  0  0  0
  6 10  2  0  0  0  0
  7  8  1  0  0  0  0
  7 16  1  0  0  0  0
  7 25  1  0  0  0  0
  8 11  2  0  0  0  0
  9 13  2  0  0  0  0
  9 14  1  0  0  0  0
 10 15  1  0  0  0  0
 10 26  1  0  0  0  0
 11 17  1  0  0  0  0
 11 27  1  0  0  0  0
 13 18  1  0  0  0  0
 13 28  1  0  0  0  0
 14 19  2  0  0  0  0
 14 29  1  0  0  0  0
 15 17  2  0  0  0  0
 15 30  1  0  0  0  0
 17 31  1  0  0  0  0
 18 20  2  0  0  0  0
 18 32  1  0  0  0  0
 19 20  1  0  0  0  0
 19 33  1  0  0  0  0
 20 34  1  0  0  0  0
M  END
> <PUBCHEM_COMPOUND_CID>
520222
> <PUBCHEM_COMPOUND_CANONICALIZED>
1
> <PUBCHEM_CACTVS_COMPLEXITY>
445
> <PUBCHEM_CACTVS_HBOND_ACCEPTOR>
2
> <PUBCHEM_CACTVS_HBOND_DONOR>
0
> <PUBCHEM_CACTVS_ROTATABLE_BOND>
1
> <PUBCHEM_CACTVS_SUBSKEYS>
AAADccB7AAAAAAAAAAAAAAAAAAAAAAAAAAAwYMAAAAAAAADBQAAAHAAAAAAADwCBGAAwAIAAAACQBiBCAAACAAAgAAAIiAAAAIgIoCKAERCAIAAggAAIiA8AgMAPgAAAAAAQAACAAAQAACAAAAAAAAAAAA==
> <PUBCHEM_IUPAC_OPENEYE_NAME>
1-phenyltetralin-1,4-dicarbonitrile
> <PUBCHEM_IUPAC_CAS_NAME>
4-phenyl-2,3-dihydro-1H-naphthalene-1,4-dicarbonitrile
> <PUBCHEM_IUPAC_NAME_MARKUP>
4-phenyl-2,3-dihydro-1<I>H</I>-naphthalene-1,4-dicarbonitrile
> <PUBCHEM_IUPAC_NAME>
4-phenyl-2,3-dihydro-1H-naphthalene-1,4-dicarbonitrile
> <PUBCHEM_IUPAC_SYSTEMATIC_NAME>
4-phenyl-2,3-dihydro-1H-naphthalene-1,4-dicarbonitrile
> <PUBCHEM_IUPAC_TRADITIONAL_NAME>
1-phenyltetralin-1,4-dicarbonitrile
> <PUBCHEM_IUPAC_INCHI>
InChI=1S/C18H14N2/c19-12-14-10-11-18(13-20,15-6-2-1-3-7-15)17-9-5-4-8-16(14)17/h1-9,14H,10-11H2
> <PUBCHEM_IUPAC_INCHIKEY>
VPBGDRICPKPSNM-UHFFFAOYSA-N
> <PUBCHEM_XLOGP3_AA>
3.3
> <PUBCHEM_EXACT_MASS>
258.115698455
> <PUBCHEM_MOLECULAR_FORMULA>
C18H14N2
> <PUBCHEM_MOLECULAR_WEIGHT>
258.3
> <PUBCHEM_OPENEYE_CAN_SMILES>
C1CC(C2=CC=CC=C2C1C#N)(C#N)C3=CC=CC=C3
> <PUBCHEM_OPENEYE_ISO_SMILES>
C1CC(C2=CC=CC=C2C1C#N)(C#N)C3=CC=CC=C3
> <PUBCHEM_CACTVS_TPSA>
47.6
> <PUBCHEM_MONOISOTOPIC_WEIGHT>
258.115698455
> <PUBCHEM_TOTAL_CHARGE>
0
> <PUBCHEM_HEAVY_ATOM_COUNT>
20
> <PUBCHEM_ATOM_DEF_STEREO_COUNT>
0
> <PUBCHEM_ATOM_UDEF_STEREO_COUNT>
2
> <PUBCHEM_BOND_DEF_STEREO_COUNT>
0
> <PUBCHEM_BOND_UDEF_STEREO_COUNT>
0
> <PUBCHEM_ISOTOPIC_ATOM_COUNT>
0
> <PUBCHEM_COMPONENT_COUNT>
1
> <PUBCHEM_CACTVS_TAUTO_COUNT>
-1
> <PUBCHEM_COORDINATE_TYPE>
1
5
255
> <PUBCHEM_BONDANNOTATIONS>
10  15  8
11  17  8
13  18  8
14  19  8
15  17  8
18  20  8
19  20  8
3  12  3
6  10  8
6  8  8
7  16  3
8  11  8
9  13  8
9  14  8
$$$$
