520280
  -OEChem-10302200292D
182182  0     1  0  0  0  0  0999 V2000
   11.4693    0.3377    0.0000 O   0  0  0  0  0  0  0  0  0  0  0  0
    9.5725   -1.4224    0.0000 O   0  0  0  0  0  0  0  0  0  0  0  0
    8.9002    0.6467    0.0000 O   0  0  0  0  0  0  0  0  0  0  0  0
   11.5263    2.4255    0.0000 O   0  0  0  0  0  0  0  0  0  0  0  0
    9.7942    3.4255    0.0000 O   0  0  0  0  0  0  0  0  0  0  0  0
   10.9737   -2.4405    0.0000 O   0  0  0  0  0  0  0  0  0  0  0  0
   10.6603    3.9255    0.0000 O   0  0  0  0  0  0  0  0  0  0  0  0
    8.0622    3.4255    0.0000 O   0  0  0  0  0  0  0  0  0  0  0  0
   10.6603    0.9255    0.0000 C   0  0  3  0  0  0  0  0  0  0  0  0
    9.8512    0.3377    0.0000 C   0  0  3  0  0  0  0  0  0  0  0  0
   10.1603   -0.6134    0.0000 C   0  0  3  0  0  0  0  0  0  0  0  0
   10.6603    1.9255    0.0000 C   0  0  3  0  0  0  0  0  0  0  0  0
   11.1603   -0.6134    0.0000 C   0  0  0  0  0  0  0  0  0  0  0  0
    9.7942    2.4255    0.0000 C   0  0  0  0  0  0  0  0  0  0  0  0
    9.9792   -2.3359    0.0000 C   0  0  0  0  0  0  0  0  0  0  0  0
    9.3914   -3.1450    0.0000 C   0  0  0  0  0  0  0  0  0  0  0  0
   11.5263    3.4255    0.0000 C   0  0  0  0  0  0  0  0  0  0  0  0
    9.7982   -4.0585    0.0000 C   0  0  0  0  0  0  0  0  0  0  0  0
   12.3923    3.9255    0.0000 C   0  0  0  0  0  0  0  0  0  0  0  0
    9.2104   -4.8675    0.0000 C   0  0  0  0  0  0  0  0  0  0  0  0
   12.3923    4.9255    0.0000 C   0  0  0  0  0  0  0  0  0  0  0  0
    9.6171   -5.7811    0.0000 C   0  0  0  0  0  0  0  0  0  0  0  0
   13.2583    5.4255    0.0000 C   0  0  0  0  0  0  0  0  0  0  0  0
    9.0293   -6.5901    0.0000 C   0  0  0  0  0  0  0  0  0  0  0  0
   13.2583    6.4255    0.0000 C   0  0  0  0  0  0  0  0  0  0  0  0
    8.9282    3.9255    0.0000 C   0  0  0  0  0  0  0  0  0  0  0  0
   14.1244    6.9255    0.0000 C   0  0  0  0  0  0  0  0  0  0  0  0
    9.4361   -7.5036    0.0000 C   0  0  0  0  0  0  0  0  0  0  0  0
    8.9282    4.9255    0.0000 C   0  0  0  0  0  0  0  0  0  0  0  0
   14.1244    7.9255    0.0000 C   0  0  0  0  0  0  0  0  0  0  0  0
    8.8483   -8.3126    0.0000 C   0  0  0  0  0  0  0  0  0  0  0  0
    8.0622    5.4255    0.0000 C   0  0  0  0  0  0  0  0  0  0  0  0
   14.9904    8.4255    0.0000 C   0  0  0  0  0  0  0  0  0  0  0  0
    9.2550   -9.2262    0.0000 C   0  0  0  0  0  0  0  0  0  0  0  0
    8.0622    6.4255    0.0000 C   0  0  0  0  0  0  0  0  0  0  0  0
   14.9904    9.4255    0.0000 C   0  0  0  0  0  0  0  0  0  0  0  0
    7.1962    6.9255    0.0000 C   0  0  0  0  0  0  0  0  0  0  0  0
    7.1962    7.9255    0.0000 C   0  0  0  0  0  0  0  0  0  0  0  0
    8.6672  -10.0352    0.0000 C   0  0  0  0  0  0  0  0  0  0  0  0
    6.3301    8.4255    0.0000 C   0  0  0  0  0  0  0  0  0  0  0  0
   15.8564    9.9255    0.0000 C   0  0  0  0  0  0  0  0  0  0  0  0
    6.3301    9.4255    0.0000 C   0  0  0  0  0  0  0  0  0  0  0  0
    9.0740  -10.9488    0.0000 C   0  0  0  0  0  0  0  0  0  0  0  0
    5.4641    9.9255    0.0000 C   0  0  0  0  0  0  0  0  0  0  0  0
   15.8564   10.9255    0.0000 C   0  0  0  0  0  0  0  0  0  0  0  0
    5.4641   10.9255    0.0000 C   0  0  0  0  0  0  0  0  0  0  0  0
    8.4862  -11.7578    0.0000 C   0  0  0  0  0  0  0  0  0  0  0  0
    4.5981   11.4255    0.0000 C   0  0  0  0  0  0  0  0  0  0  0  0
   16.7224   11.4255    0.0000 C   0  0  0  0  0  0  0  0  0  0  0  0
    4.5981   12.4255    0.0000 C   0  0  0  0  0  0  0  0  0  0  0  0
    8.8929  -12.6713    0.0000 C   0  0  0  0  0  0  0  0  0  0  0  0
   16.7224   12.4255    0.0000 C   0  0  0  0  0  0  0  0  0  0  0  0
    3.7320   12.9255    0.0000 C   0  0  0  0  0  0  0  0  0  0  0  0
    8.3051  -13.4803    0.0000 C   0  0  0  0  0  0  0  0  0  0  0  0
   17.5885   12.9255    0.0000 C   0  0  0  0  0  0  0  0  0  0  0  0
    3.7320   13.9255    0.0000 C   0  0  0  0  0  0  0  0  0  0  0  0
    8.7119  -14.3939    0.0000 C   0  0  0  0  0  0  0  0  0  0  0  0
   17.5885   13.9255    0.0000 C   0  0  0  0  0  0  0  0  0  0  0  0
    2.8660   14.4255    0.0000 C   0  0  0  0  0  0  0  0  0  0  0  0
    8.1241  -15.2029    0.0000 C   0  0  0  0  0  0  0  0  0  0  0  0
   18.4545   14.4255    0.0000 C   0  0  0  0  0  0  0  0  0  0  0  0
    2.8660   15.4255    0.0000 C   0  0  0  0  0  0  0  0  0  0  0  0
    8.5308  -16.1164    0.0000 C   0  0  0  0  0  0  0  0  0  0  0  0
   18.4545   15.4255    0.0000 C   0  0  0  0  0  0  0  0  0  0  0  0
    2.0000   15.9255    0.0000 C   0  0  0  0  0  0  0  0  0  0  0  0
    7.9430  -16.9255    0.0000 C   0  0  0  0  0  0  0  0  0  0  0  0
   19.3205   15.9255    0.0000 C   0  0  0  0  0  0  0  0  0  0  0  0
    2.0000   16.9255    0.0000 C   0  0  0  0  0  0  0  0  0  0  0  0
   11.2127    1.2069    0.0000 H   0  0  0  0  0  0  0  0  0  0  0  0
    9.4128   -0.1007    0.0000 H   0  0  0  0  0  0  0  0  0  0  0  0
   10.4417   -1.1658    0.0000 H   0  0  0  0  0  0  0  0  0  0  0  0
   10.6603    2.5455    0.0000 H   0  0  0  0  0  0  0  0  0  0  0  0
   11.0954   -1.2300    0.0000 H   0  0  0  0  0  0  0  0  0  0  0  0
   11.7667   -0.7423    0.0000 H   0  0  0  0  0  0  0  0  0  0  0  0
    9.1836    2.5331    0.0000 H   0  0  0  0  0  0  0  0  0  0  0  0
    9.5822    1.8428    0.0000 H   0  0  0  0  0  0  0  0  0  0  0  0
    8.4394    0.2318    0.0000 H   0  0  0  0  0  0  0  0  0  0  0  0
    8.9607   -2.6990    0.0000 H   0  0  0  0  0  0  0  0  0  0  0  0
    8.8774   -3.4917    0.0000 H   0  0  0  0  0  0  0  0  0  0  0  0
   10.2288   -4.5045    0.0000 H   0  0  0  0  0  0  0  0  0  0  0  0
   10.3122   -3.7118    0.0000 H   0  0  0  0  0  0  0  0  0  0  0  0
   12.6044    3.3428    0.0000 H   0  0  0  0  0  0  0  0  0  0  0  0
   13.0029    4.0331    0.0000 H   0  0  0  0  0  0  0  0  0  0  0  0
    8.7797   -4.4215    0.0000 H   0  0  0  0  0  0  0  0  0  0  0  0
    8.6964   -5.2142    0.0000 H   0  0  0  0  0  0  0  0  0  0  0  0
   12.1803    5.5081    0.0000 H   0  0  0  0  0  0  0  0  0  0  0  0
   11.7817    4.8178    0.0000 H   0  0  0  0  0  0  0  0  0  0  0  0
   10.0478   -6.2271    0.0000 H   0  0  0  0  0  0  0  0  0  0  0  0
   10.1311   -5.4344    0.0000 H   0  0  0  0  0  0  0  0  0  0  0  0
   13.4704    4.8428    0.0000 H   0  0  0  0  0  0  0  0  0  0  0  0
   13.8689    5.5331    0.0000 H   0  0  0  0  0  0  0  0  0  0  0  0
    8.5986   -6.1441    0.0000 H   0  0  0  0  0  0  0  0  0  0  0  0
    8.5153   -6.9368    0.0000 H   0  0  0  0  0  0  0  0  0  0  0  0
   13.0463    7.0081    0.0000 H   0  0  0  0  0  0  0  0  0  0  0  0
   12.6477    6.3178    0.0000 H   0  0  0  0  0  0  0  0  0  0  0  0
   14.3364    6.3428    0.0000 H   0  0  0  0  0  0  0  0  0  0  0  0
   14.7349    7.0331    0.0000 H   0  0  0  0  0  0  0  0  0  0  0  0
    9.8668   -7.9496    0.0000 H   0  0  0  0  0  0  0  0  0  0  0  0
    9.9501   -7.1569    0.0000 H   0  0  0  0  0  0  0  0  0  0  0  0
    9.5388    4.8178    0.0000 H   0  0  0  0  0  0  0  0  0  0  0  0
    9.1403    5.5081    0.0000 H   0  0  0  0  0  0  0  0  0  0  0  0
   13.9123    8.5081    0.0000 H   0  0  0  0  0  0  0  0  0  0  0  0
   13.5138    7.8178    0.0000 H   0  0  0  0  0  0  0  0  0  0  0  0
    8.4176   -7.8667    0.0000 H   0  0  0  0  0  0  0  0  0  0  0  0
    8.3343   -8.6594    0.0000 H   0  0  0  0  0  0  0  0  0  0  0  0
    7.4516    5.5331    0.0000 H   0  0  0  0  0  0  0  0  0  0  0  0
    7.8501    4.8428    0.0000 H   0  0  0  0  0  0  0  0  0  0  0  0
   15.2024    7.8428    0.0000 H   0  0  0  0  0  0  0  0  0  0  0  0
   15.6010    8.5331    0.0000 H   0  0  0  0  0  0  0  0  0  0  0  0
    9.6857   -9.6722    0.0000 H   0  0  0  0  0  0  0  0  0  0  0  0
    9.7690   -8.8795    0.0000 H   0  0  0  0  0  0  0  0  0  0  0  0
    8.6728    6.3178    0.0000 H   0  0  0  0  0  0  0  0  0  0  0  0
    8.2742    7.0081    0.0000 H   0  0  0  0  0  0  0  0  0  0  0  0
   14.7783   10.0081    0.0000 H   0  0  0  0  0  0  0  0  0  0  0  0
   14.3798    9.3178    0.0000 H   0  0  0  0  0  0  0  0  0  0  0  0
    6.5856    7.0331    0.0000 H   0  0  0  0  0  0  0  0  0  0  0  0
    6.9841    6.3428    0.0000 H   0  0  0  0  0  0  0  0  0  0  0  0
    7.8067    7.8178    0.0000 H   0  0  0  0  0  0  0  0  0  0  0  0
    7.4082    8.5081    0.0000 H   0  0  0  0  0  0  0  0  0  0  0  0
    8.2365   -9.5892    0.0000 H   0  0  0  0  0  0  0  0  0  0  0  0
    8.1532  -10.3819    0.0000 H   0  0  0  0  0  0  0  0  0  0  0  0
    5.7196    8.5331    0.0000 H   0  0  0  0  0  0  0  0  0  0  0  0
    6.1181    7.8428    0.0000 H   0  0  0  0  0  0  0  0  0  0  0  0
   16.0685    9.3428    0.0000 H   0  0  0  0  0  0  0  0  0  0  0  0
   16.4670   10.0331    0.0000 H   0  0  0  0  0  0  0  0  0  0  0  0
    6.9407    9.3178    0.0000 H   0  0  0  0  0  0  0  0  0  0  0  0
    6.5422   10.0081    0.0000 H   0  0  0  0  0  0  0  0  0  0  0  0
    9.5046  -11.3947    0.0000 H   0  0  0  0  0  0  0  0  0  0  0  0
    9.5880  -10.6021    0.0000 H   0  0  0  0  0  0  0  0  0  0  0  0
    4.8535   10.0331    0.0000 H   0  0  0  0  0  0  0  0  0  0  0  0
    5.2520    9.3428    0.0000 H   0  0  0  0  0  0  0  0  0  0  0  0
   15.6444   11.5081    0.0000 H   0  0  0  0  0  0  0  0  0  0  0  0
   15.2458   10.8178    0.0000 H   0  0  0  0  0  0  0  0  0  0  0  0
    6.0747   10.8178    0.0000 H   0  0  0  0  0  0  0  0  0  0  0  0
    5.6762   11.5081    0.0000 H   0  0  0  0  0  0  0  0  0  0  0  0
    8.0555  -11.3118    0.0000 H   0  0  0  0  0  0  0  0  0  0  0  0
    7.9722  -12.1045    0.0000 H   0  0  0  0  0  0  0  0  0  0  0  0
    3.9875   11.5331    0.0000 H   0  0  0  0  0  0  0  0  0  0  0  0
    4.3860   10.8429    0.0000 H   0  0  0  0  0  0  0  0  0  0  0  0
   16.9345   10.8429    0.0000 H   0  0  0  0  0  0  0  0  0  0  0  0
   17.3330   11.5331    0.0000 H   0  0  0  0  0  0  0  0  0  0  0  0
    5.2087   12.3178    0.0000 H   0  0  0  0  0  0  0  0  0  0  0  0
    4.8101   13.0081    0.0000 H   0  0  0  0  0  0  0  0  0  0  0  0
    9.3236  -13.1173    0.0000 H   0  0  0  0  0  0  0  0  0  0  0  0
    9.4069  -12.3246    0.0000 H   0  0  0  0  0  0  0  0  0  0  0  0
   16.5104   13.0081    0.0000 H   0  0  0  0  0  0  0  0  0  0  0  0
   16.1119   12.3178    0.0000 H   0  0  0  0  0  0  0  0  0  0  0  0
    3.1215   13.0331    0.0000 H   0  0  0  0  0  0  0  0  0  0  0  0
    3.5200   12.3429    0.0000 H   0  0  0  0  0  0  0  0  0  0  0  0
    7.8744  -13.0343    0.0000 H   0  0  0  0  0  0  0  0  0  0  0  0
    7.7911  -13.8270    0.0000 H   0  0  0  0  0  0  0  0  0  0  0  0
   17.8005   12.3429    0.0000 H   0  0  0  0  0  0  0  0  0  0  0  0
   18.1990   13.0331    0.0000 H   0  0  0  0  0  0  0  0  0  0  0  0
    4.3426   13.8178    0.0000 H   0  0  0  0  0  0  0  0  0  0  0  0
    3.9441   14.5081    0.0000 H   0  0  0  0  0  0  0  0  0  0  0  0
    9.1426  -14.8399    0.0000 H   0  0  0  0  0  0  0  0  0  0  0  0
    9.2259  -14.0472    0.0000 H   0  0  0  0  0  0  0  0  0  0  0  0
   17.3764   14.5081    0.0000 H   0  0  0  0  0  0  0  0  0  0  0  0
   16.9779   13.8178    0.0000 H   0  0  0  0  0  0  0  0  0  0  0  0
    2.2554   14.5331    0.0000 H   0  0  0  0  0  0  0  0  0  0  0  0
    2.6540   13.8429    0.0000 H   0  0  0  0  0  0  0  0  0  0  0  0
    7.6934  -14.7569    0.0000 H   0  0  0  0  0  0  0  0  0  0  0  0
    7.6101  -15.5496    0.0000 H   0  0  0  0  0  0  0  0  0  0  0  0
   18.6665   13.8429    0.0000 H   0  0  0  0  0  0  0  0  0  0  0  0
   19.0651   14.5331    0.0000 H   0  0  0  0  0  0  0  0  0  0  0  0
    3.4766   15.3178    0.0000 H   0  0  0  0  0  0  0  0  0  0  0  0
    3.0781   16.0081    0.0000 H   0  0  0  0  0  0  0  0  0  0  0  0
    8.9615  -16.5624    0.0000 H   0  0  0  0  0  0  0  0  0  0  0  0
    9.0448  -15.7697    0.0000 H   0  0  0  0  0  0  0  0  0  0  0  0
   18.2424   16.0081    0.0000 H   0  0  0  0  0  0  0  0  0  0  0  0
   17.8439   15.3178    0.0000 H   0  0  0  0  0  0  0  0  0  0  0  0
    1.3894   16.0331    0.0000 H   0  0  0  0  0  0  0  0  0  0  0  0
    1.7880   15.3429    0.0000 H   0  0  0  0  0  0  0  0  0  0  0  0
    7.4414  -16.5610    0.0000 H   0  0  0  0  0  0  0  0  0  0  0  0
    7.5786  -17.4271    0.0000 H   0  0  0  0  0  0  0  0  0  0  0  0
    8.4446  -17.2899    0.0000 H   0  0  0  0  0  0  0  0  0  0  0  0
   19.6305   15.3885    0.0000 H   0  0  0  0  0  0  0  0  0  0  0  0
   19.8574   16.2355    0.0000 H   0  0  0  0  0  0  0  0  0  0  0  0
   19.0105   16.4624    0.0000 H   0  0  0  0  0  0  0  0  0  0  0  0
    2.6200   16.9255    0.0000 H   0  0  0  0  0  0  0  0  0  0  0  0
    2.0000   17.5455    0.0000 H   0  0  0  0  0  0  0  0  0  0  0  0
    1.3800   16.9255    0.0000 H   0  0  0  0  0  0  0  0  0  0  0  0
  1  9  1  0  0  0  0
  1 13  1  0  0  0  0
  2 11  1  0  0  0  0
  2 15  1  0  0  0  0
  3 10  1  0  0  0  0
  3 77  1  0  0  0  0
  4 12  1  0  0  0  0
  4 17  1  0  0  0  0
  5 14  1  0  0  0  0
  5 26  1  0  0  0  0
  6 15  2  0  0  0  0
  7 17  2  0  0  0  0
  8 26  2  0  0  0  0
  9 10  1  0  0  0  0
  9 12  1  0  0  0  0
  9 69  1  0  0  0  0
 10 11  1  0  0  0  0
 10 70  1  0  0  0  0
 11 13  1  0  0  0  0
 11 71  1  0  0  0  0
 12 14  1  0  0  0  0
 12 72  1  0  0  0  0
 13 73  1  0  0  0  0
 13 74  1  0  0  0  0
 14 75  1  0  0  0  0
 14 76  1  0  0  0  0
 15 16  1  0  0  0  0
 16 18  1  0  0  0  0
 16 78  1  0  0  0  0
 16 79  1  0  0  0  0
 17 19  1  0  0  0  0
 18 20  1  0  0  0  0
 18 80  1  0  0  0  0
 18 81  1  0  0  0  0
 19 21  1  0  0  0  0
 19 82  1  0  0  0  0
 19 83  1  0  0  0  0
 20 22  1  0  0  0  0
 20 84  1  0  0  0  0
 20 85  1  0  0  0  0
 21 23  1  0  0  0  0
 21 86  1  0  0  0  0
 21 87  1  0  0  0  0
 22 24  1  0  0  0  0
 22 88  1  0  0  0  0
 22 89  1  0  0  0  0
 23 25  1  0  0  0  0
 23 90  1  0  0  0  0
 23 91  1  0  0  0  0
 24 28  1  0  0  0  0
 24 92  1  0  0  0  0
 24 93  1  0  0  0  0
 25 27  1  0  0  0  0
 25 94  1  0  0  0  0
 25 95  1  0  0  0  0
 26 29  1  0  0  0  0
 27 30  1  0  0  0  0
 27 96  1  0  0  0  0
 27 97  1  0  0  0  0
 28 31  1  0  0  0  0
 28 98  1  0  0  0  0
 28 99  1  0  0  0  0
 29 32  1  0  0  0  0
 29100  1  0  0  0  0
 29101  1  0  0  0  0
 30 33  1  0  0  0  0
 30102  1  0  0  0  0
 30103  1  0  0  0  0
 31 34  1  0  0  0  0
 31104  1  0  0  0  0
 31105  1  0  0  0  0
 32 35  1  0  0  0  0
 32106  1  0  0  0  0
 32107  1  0  0  0  0
 33 36  1  0  0  0  0
 33108  1  0  0  0  0
 33109  1  0  0  0  0
 34 39  1  0  0  0  0
 34110  1  0  0  0  0
 34111  1  0  0  0  0
 35 37  1  0  0  0  0
 35112  1  0  0  0  0
 35113  1  0  0  0  0
 36 41  1  0  0  0  0
 36114  1  0  0  0  0
 36115  1  0  0  0  0
 37 38  1  0  0  0  0
 37116  1  0  0  0  0
 37117  1  0  0  0  0
 38 40  1  0  0  0  0
 38118  1  0  0  0  0
 38119  1  0  0  0  0
 39 43  1  0  0  0  0
 39120  1  0  0  0  0
 39121  1  0  0  0  0
 40 42  1  0  0  0  0
 40122  1  0  0  0  0
 40123  1  0  0  0  0
 41 45  1  0  0  0  0
 41124  1  0  0  0  0
 41125  1  0  0  0  0
 42 44  1  0  0  0  0
 42126  1  0  0  0  0
 42127  1  0  0  0  0
 43 47  1  0  0  0  0
 43128  1  0  0  0  0
 43129  1  0  0  0  0
 44 46  1  0  0  0  0
 44130  1  0  0  0  0
 44131  1  0  0  0  0
 45 49  1  0  0  0  0
 45132  1  0  0  0  0
 45133  1  0  0  0  0
 46 48  1  0  0  0  0
 46134  1  0  0  0  0
 46135  1  0  0  0  0
 47 51  1  0  0  0  0
 47136  1  0  0  0  0
 47137  1  0  0  0  0
 48 50  1  0  0  0  0
 48138  1  0  0  0  0
 48139  1  0  0  0  0
 49 52  1  0  0  0  0
 49140  1  0  0  0  0
 49141  1  0  0  0  0
 50 53  1  0  0  0  0
 50142  1  0  0  0  0
 50143  1  0  0  0  0
 51 54  1  0  0  0  0
 51144  1  0  0  0  0
 51145  1  0  0  0  0
 52 55  1  0  0  0  0
 52146  1  0  0  0  0
 52147  1  0  0  0  0
 53 56  1  0  0  0  0
 53148  1  0  0  0  0
 53149  1  0  0  0  0
 54 57  1  0  0  0  0
 54150  1  0  0  0  0
 54151  1  0  0  0  0
 55 58  1  0  0  0  0
 55152  1  0  0  0  0
 55153  1  0  0  0  0
 56 59  1  0  0  0  0
 56154  1  0  0  0  0
 56155  1  0  0  0  0
 57 60  1  0  0  0  0
 57156  1  0  0  0  0
 57157  1  0  0  0  0
 58 61  1  0  0  0  0
 58158  1  0  0  0  0
 58159  1  0  0  0  0
 59 62  1  0  0  0  0
 59160  1  0  0  0  0
 59161  1  0  0  0  0
 60 63  1  0  0  0  0
 60162  1  0  0  0  0
 60163  1  0  0  0  0
 61 64  1  0  0  0  0
 61164  1  0  0  0  0
 61165  1  0  0  0  0
 62 65  1  0  0  0  0
 62166  1  0  0  0  0
 62167  1  0  0  0  0
 63 66  1  0  0  0  0
 63168  1  0  0  0  0
 63169  1  0  0  0  0
 64 67  1  0  0  0  0
 64170  1  0  0  0  0
 64171  1  0  0  0  0
 65 68  1  0  0  0  0
 65172  1  0  0  0  0
 65173  1  0  0  0  0
 66174  1  0  0  0  0
 66175  1  0  0  0  0
 66176  1  0  0  0  0
 67177  1  0  0  0  0
 67178  1  0  0  0  0
 67179  1  0  0  0  0
 68180  1  0  0  0  0
 68181  1  0  0  0  0
 68182  1  0  0  0  0
M  END
> <PUBCHEM_COMPOUND_CID>
520280
> <PUBCHEM_COMPOUND_CANONICALIZED>
1
> <PUBCHEM_CACTVS_COMPLEXITY>
1100
> <PUBCHEM_CACTVS_HBOND_ACCEPTOR>
8
> <PUBCHEM_CACTVS_HBOND_DONOR>
1
> <PUBCHEM_CACTVS_ROTATABLE_BOND>
56
> <PUBCHEM_CACTVS_SUBSKEYS>
AAADcfB8PAAAAAAAAAAAAAAAAAAAASAAAAAAAAAAAAAAAAAAAAAAGgAACAAACBSggAICCAAABgAIAACQCAAAAAAAAAAAAAEAAAABEBIAAAACQAAFAAADAAHI6KyAAAAAAAAAAAAAAAAAAAAAAAAAAAAAAA==
> <PUBCHEM_IUPAC_OPENEYE_NAME>
[2-(3-hydroxy-4-octadecanoyloxy-tetrahydrofuran-2-yl)-2-octadecanoyloxy-ethyl] octadecanoate
> <PUBCHEM_IUPAC_CAS_NAME>
octadecanoic acid [2-[3-hydroxy-4-(1-oxooctadecoxy)-2-oxolanyl]-2-(1-oxooctadecoxy)ethyl] ester
> <PUBCHEM_IUPAC_NAME_MARKUP>
[2-(3-hydroxy-4-octadecanoyloxyoxolan-2-yl)-2-octadecanoyloxyethyl] octadecanoate
> <PUBCHEM_IUPAC_NAME>
[2-(3-hydroxy-4-octadecanoyloxyoxolan-2-yl)-2-octadecanoyloxyethyl] octadecanoate
> <PUBCHEM_IUPAC_SYSTEMATIC_NAME>
[2-octadecanoyloxy-2-(4-octadecanoyloxy-3-oxidanyl-oxolan-2-yl)ethyl] octadecanoate
> <PUBCHEM_IUPAC_TRADITIONAL_NAME>
stearic acid [2-(3-hydroxy-4-stearoyloxy-tetrahydrofuran-2-yl)-2-stearoyloxy-ethyl] ester
> <PUBCHEM_IUPAC_INCHI>
InChI=1S/C60H114O8/c1-4-7-10-13-16-19-22-25-28-31-34-37-40-43-46-49-56(61)65-53-55(68-58(63)51-48-45-42-39-36-33-30-27-24-21-18-15-12-9-6-3)60-59(64)54(52-66-60)67-57(62)50-47-44-41-38-35-32-29-26-23-20-17-14-11-8-5-2/h54-55,59-60,64H,4-53H2,1-3H3
> <PUBCHEM_IUPAC_INCHIKEY>
NBIZFEQHLSJRPG-UHFFFAOYSA-N
> <PUBCHEM_XLOGP3_AA>
24.3
> <PUBCHEM_EXACT_MASS>
962.85137059
> <PUBCHEM_MOLECULAR_FORMULA>
C60H114O8
> <PUBCHEM_MOLECULAR_WEIGHT>
963.5
> <PUBCHEM_OPENEYE_CAN_SMILES>
CCCCCCCCCCCCCCCCCC(=O)OCC(C1C(C(CO1)OC(=O)CCCCCCCCCCCCCCCCC)O)OC(=O)CCCCCCCCCCCCCCCCC
> <PUBCHEM_OPENEYE_ISO_SMILES>
CCCCCCCCCCCCCCCCCC(=O)OCC(C1C(C(CO1)OC(=O)CCCCCCCCCCCCCCCCC)O)OC(=O)CCCCCCCCCCCCCCCCC
> <PUBCHEM_CACTVS_TPSA>
108
> <PUBCHEM_MONOISOTOPIC_WEIGHT>
962.85137059
> <PUBCHEM_TOTAL_CHARGE>
0
> <PUBCHEM_HEAVY_ATOM_COUNT>
68
> <PUBCHEM_ATOM_DEF_STEREO_COUNT>
0
> <PUBCHEM_ATOM_UDEF_STEREO_COUNT>
4
> <PUBCHEM_BOND_DEF_STEREO_COUNT>
0
> <PUBCHEM_BOND_UDEF_STEREO_COUNT>
0
> <PUBCHEM_ISOTOPIC_ATOM_COUNT>
0
> <PUBCHEM_COMPONENT_COUNT>
1
> <PUBCHEM_CACTVS_TAUTO_COUNT>
-1
> <PUBCHEM_COORDINATE_TYPE>
1
5
255
> <PUBCHEM_BONDANNOTATIONS>
9  1  3
12  14  3
11  2  3
10  3  3
$$$$
