520231
  -OEChem-10302200292D
 77 80  0     1  0  0  0  0  0999 V2000
    3.7320   -3.6598    0.0000 O   0  0  0  0  0  0  0  0  0  0  0  0
    2.8718   -2.1564    0.0000 O   0  0  0  0  0  0  0  0  0  0  0  0
    9.1251   -0.6074    0.0000 C   0  0  3  0  0  0  0  0  0  0  0  0
    9.1251   -1.6074    0.0000 C   0  0  3  0  0  0  0  0  0  0  0  0
   10.0713   -0.3027    0.0000 C   0  0  3  0  0  0  0  0  0  0  0  0
    6.4831   -2.1143    0.0000 C   0  0  3  0  0  0  0  0  0  0  0  0
    8.2591   -2.1074    0.0000 C   0  0  0  0  0  0  0  0  0  0  0  0
    7.3931   -1.6074    0.0000 C   0  0  0  0  0  0  0  0  0  0  0  0
    8.2591   -0.1074    0.0000 C   0  0  0  0  0  0  0  0  0  0  0  0
   10.0713   -1.9122    0.0000 C   0  0  0  0  0  0  0  0  0  0  0  0
   10.6550   -1.1074    0.0000 C   0  0  0  0  0  0  0  0  0  0  0  0
    6.4750   -3.1559    0.0000 C   0  0  3  0  0  0  0  0  0  0  0  0
    7.3931   -0.6074    0.0000 C   0  0  0  0  0  0  0  0  0  0  0  0
    8.2752   -3.1489    0.0000 C   0  0  0  0  0  0  0  0  0  0  0  0
   10.3820    0.6478    0.0000 C   0  0  3  0  0  0  0  0  0  0  0  0
    7.3771   -3.6767    0.0000 C   0  0  0  0  0  0  0  0  0  0  0  0
    9.1251    0.3926    0.0000 C   0  0  0  0  0  0  0  0  0  0  0  0
    5.5562   -1.5502    0.0000 C   0  0  0  0  0  0  0  0  0  0  0  0
    5.5396   -3.7056    0.0000 C   0  0  0  0  0  0  0  0  0  0  0  0
    6.4908   -1.1143    0.0000 C   0  0  0  0  0  0  0  0  0  0  0  0
    4.6084   -2.0781    0.0000 C   0  0  0  0  0  0  0  0  0  0  0  0
    4.6000   -3.1631    0.0000 C   0  0  3  0  0  0  0  0  0  0  0  0
   11.3605    0.8540    0.0000 C   0  0  0  0  0  0  0  0  0  0  0  0
    9.7142    1.3921    0.0000 C   0  0  0  0  0  0  0  0  0  0  0  0
   11.6712    1.8046    0.0000 C   0  0  0  0  0  0  0  0  0  0  0  0
   12.6497    2.0108    0.0000 C   0  0  0  0  0  0  0  0  0  0  0  0
    2.8680   -3.1564    0.0000 C   0  0  0  0  0  0  0  0  0  0  0  0
   12.9603    2.9613    0.0000 C   0  0  0  0  0  0  0  0  0  0  0  0
    2.0000   -3.6531    0.0000 C   0  0  0  0  0  0  0  0  0  0  0  0
   13.9388    3.1675    0.0000 C   0  0  0  0  0  0  0  0  0  0  0  0
   12.2925    3.7056    0.0000 C   0  0  0  0  0  0  0  0  0  0  0  0
    9.1907   -2.2240    0.0000 H   0  0  0  0  0  0  0  0  0  0  0  0
   10.6838   -0.2065    0.0000 H   0  0  0  0  0  0  0  0  0  0  0  0
    8.6576    0.3675    0.0000 H   0  0  0  0  0  0  0  0  0  0  0  0
    7.8606    0.3675    0.0000 H   0  0  0  0  0  0  0  0  0  0  0  0
    9.8203   -2.4791    0.0000 H   0  0  0  0  0  0  0  0  0  0  0  0
   10.6087   -2.2214    0.0000 H   0  0  0  0  0  0  0  0  0  0  0  0
   11.1158   -1.5222    0.0000 H   0  0  0  0  0  0  0  0  0  0  0  0
   11.1158   -0.6927    0.0000 H   0  0  0  0  0  0  0  0  0  0  0  0
    6.4774   -3.7759    0.0000 H   0  0  0  0  0  0  0  0  0  0  0  0
    7.1810   -0.0248    0.0000 H   0  0  0  0  0  0  0  0  0  0  0  0
    6.7825   -0.7151    0.0000 H   0  0  0  0  0  0  0  0  0  0  0  0
    8.4932   -3.7293    0.0000 H   0  0  0  0  0  0  0  0  0  0  0  0
    8.8843   -3.0334    0.0000 H   0  0  0  0  0  0  0  0  0  0  0  0
   10.5746    1.2371    0.0000 H   0  0  0  0  0  0  0  0  0  0  0  0
    6.9798   -4.1527    0.0000 H   0  0  0  0  0  0  0  0  0  0  0  0
    7.7781   -4.1496    0.0000 H   0  0  0  0  0  0  0  0  0  0  0  0
    9.7451    0.3926    0.0000 H   0  0  0  0  0  0  0  0  0  0  0  0
    9.1251    1.0126    0.0000 H   0  0  0  0  0  0  0  0  0  0  0  0
    8.5051    0.3926    0.0000 H   0  0  0  0  0  0  0  0  0  0  0  0
    5.9644   -1.0835    0.0000 H   0  0  0  0  0  0  0  0  0  0  0  0
    5.1663   -1.0682    0.0000 H   0  0  0  0  0  0  0  0  0  0  0  0
    5.1423   -4.1816    0.0000 H   0  0  0  0  0  0  0  0  0  0  0  0
    5.9406   -4.1785    0.0000 H   0  0  0  0  0  0  0  0  0  0  0  0
    7.1108   -1.1191    0.0000 H   0  0  0  0  0  0  0  0  0  0  0  0
    6.4956   -0.4943    0.0000 H   0  0  0  0  0  0  0  0  0  0  0  0
    5.8708   -1.1095    0.0000 H   0  0  0  0  0  0  0  0  0  0  0  0
    4.4038   -1.4929    0.0000 H   0  0  0  0  0  0  0  0  0  0  0  0
    3.9967   -2.1795    0.0000 H   0  0  0  0  0  0  0  0  0  0  0  0
    4.0648   -2.8500    0.0000 H   0  0  0  0  0  0  0  0  0  0  0  0
   11.3811    0.2344    0.0000 H   0  0  0  0  0  0  0  0  0  0  0  0
   11.9743    0.7667    0.0000 H   0  0  0  0  0  0  0  0  0  0  0  0
   10.1756    1.8062    0.0000 H   0  0  0  0  0  0  0  0  0  0  0  0
    9.3001    1.8536    0.0000 H   0  0  0  0  0  0  0  0  0  0  0  0
    9.2527    0.9781    0.0000 H   0  0  0  0  0  0  0  0  0  0  0  0
   11.6506    2.4242    0.0000 H   0  0  0  0  0  0  0  0  0  0  0  0
   11.0574    1.8919    0.0000 H   0  0  0  0  0  0  0  0  0  0  0  0
   13.0637    1.5493    0.0000 H   0  0  0  0  0  0  0  0  0  0  0  0
    1.6921   -3.1150    0.0000 H   0  0  0  0  0  0  0  0  0  0  0  0
    1.4619   -3.9610    0.0000 H   0  0  0  0  0  0  0  0  0  0  0  0
    2.3079   -4.1912    0.0000 H   0  0  0  0  0  0  0  0  0  0  0  0
   14.0667    2.5608    0.0000 H   0  0  0  0  0  0  0  0  0  0  0  0
   14.5455    3.2954    0.0000 H   0  0  0  0  0  0  0  0  0  0  0  0
   13.8110    3.7742    0.0000 H   0  0  0  0  0  0  0  0  0  0  0  0
   12.7540    4.1197    0.0000 H   0  0  0  0  0  0  0  0  0  0  0  0
   11.8784    4.1671    0.0000 H   0  0  0  0  0  0  0  0  0  0  0  0
   11.8310    3.2915    0.0000 H   0  0  0  0  0  0  0  0  0  0  0  0
  1 22  1  0  0  0  0
  1 27  1  0  0  0  0
  2 27  2  0  0  0  0
  3  4  1  0  0  0  0
  3  5  1  0  0  0  0
  3  9  1  0  0  0  0
  3 17  1  0  0  0  0
  4  7  1  0  0  0  0
  4 10  1  0  0  0  0
  4 32  1  0  0  0  0
  5 11  1  0  0  0  0
  5 15  1  0  0  0  0
  5 33  1  0  0  0  0
  6  8  1  0  0  0  0
  6 12  1  0  0  0  0
  6 18  1  0  0  0  0
  6 20  1  0  0  0  0
  7  8  2  0  0  0  0
  7 14  1  0  0  0  0
  8 13  1  0  0  0  0
  9 13  1  0  0  0  0
  9 34  1  0  0  0  0
  9 35  1  0  0  0  0
 10 11  1  0  0  0  0
 10 36  1  0  0  0  0
 10 37  1  0  0  0  0
 11 38  1  0  0  0  0
 11 39  1  0  0  0  0
 12 16  1  0  0  0  0
 12 19  1  0  0  0  0
 12 40  1  0  0  0  0
 13 41  1  0  0  0  0
 13 42  1  0  0  0  0
 14 16  1  0  0  0  0
 14 43  1  0  0  0  0
 14 44  1  0  0  0  0
 15 23  1  0  0  0  0
 15 24  1  0  0  0  0
 15 45  1  0  0  0  0
 16 46  1  0  0  0  0
 16 47  1  0  0  0  0
 17 48  1  0  0  0  0
 17 49  1  0  0  0  0
 17 50  1  0  0  0  0
 18 21  1  0  0  0  0
 18 51  1  0  0  0  0
 18 52  1  0  0  0  0
 19 22  1  0  0  0  0
 19 53  1  0  0  0  0
 19 54  1  0  0  0  0
 20 55  1  0  0  0  0
 20 56  1  0  0  0  0
 20 57  1  0  0  0  0
 21 22  1  0  0  0  0
 21 58  1  0  0  0  0
 21 59  1  0  0  0  0
 22 60  1  0  0  0  0
 23 25  1  0  0  0  0
 23 61  1  0  0  0  0
 23 62  1  0  0  0  0
 24 63  1  0  0  0  0
 24 64  1  0  0  0  0
 24 65  1  0  0  0  0
 25 26  1  0  0  0  0
 25 66  1  0  0  0  0
 25 67  1  0  0  0  0
 26 28  2  0  0  0  0
 26 68  1  0  0  0  0
 27 29  1  0  0  0  0
 28 30  1  0  0  0  0
 28 31  1  0  0  0  0
 29 69  1  0  0  0  0
 29 70  1  0  0  0  0
 29 71  1  0  0  0  0
 30 72  1  0  0  0  0
 30 73  1  0  0  0  0
 30 74  1  0  0  0  0
 31 75  1  0  0  0  0
 31 76  1  0  0  0  0
 31 77  1  0  0  0  0
M  END
> <PUBCHEM_COMPOUND_CID>
520231
> <PUBCHEM_COMPOUND_CANONICALIZED>
1
> <PUBCHEM_CACTVS_COMPLEXITY>
757
> <PUBCHEM_CACTVS_HBOND_ACCEPTOR>
2
> <PUBCHEM_CACTVS_HBOND_DONOR>
0
> <PUBCHEM_CACTVS_ROTATABLE_BOND>
6
> <PUBCHEM_CACTVS_SUBSKEYS>
AAADcfB4MAAAAAAAAAAAAAAAAAAAAYAAAAAwQIAAAAAAAEDAAAAAGgAAAAAADxSggAICCAAABACIAiDSCAAAAAAgAAAACAAAAAgAAAIAAQACAAAEgAAIAAOAwPAPgAAAAAAAAABAAAIAACAAAQAACAAAAA==
> <PUBCHEM_IUPAC_OPENEYE_NAME>
[17-(1,5-dimethylhex-4-enyl)-10,13-dimethyl-2,3,4,5,6,7,11,12,14,15,16,17-dodecahydro-1H-cyclopenta[a]phenanthren-3-yl] acetate
> <PUBCHEM_IUPAC_CAS_NAME>
acetic acid [10,13-dimethyl-17-(6-methylhept-5-en-2-yl)-2,3,4,5,6,7,11,12,14,15,16,17-dodecahydro-1H-cyclopenta[a]phenanthren-3-yl] ester
> <PUBCHEM_IUPAC_NAME_MARKUP>
[10,13-dimethyl-17-(6-methylhept-5-en-2-yl)-2,3,4,5,6,7,11,12,14,15,16,17-dodecahydro-1<I>H</I>-cyclopenta[a]phenanthren-3-yl] acetate
> <PUBCHEM_IUPAC_NAME>
[10,13-dimethyl-17-(6-methylhept-5-en-2-yl)-2,3,4,5,6,7,11,12,14,15,16,17-dodecahydro-1H-cyclopenta[a]phenanthren-3-yl] acetate
> <PUBCHEM_IUPAC_SYSTEMATIC_NAME>
[10,13-dimethyl-17-(6-methylhept-5-en-2-yl)-2,3,4,5,6,7,11,12,14,15,16,17-dodecahydro-1H-cyclopenta[a]phenanthren-3-yl] ethanoate
> <PUBCHEM_IUPAC_TRADITIONAL_NAME>
acetic acid [17-(1,5-dimethylhex-4-enyl)-10,13-dimethyl-2,3,4,5,6,7,11,12,14,15,16,17-dodecahydro-1H-cyclopenta[a]phenanthren-3-yl] ester
> <PUBCHEM_IUPAC_INCHI>
InChI=1S/C29H46O2/c1-19(2)8-7-9-20(3)25-12-13-26-24-11-10-22-18-23(31-21(4)30)14-16-28(22,5)27(24)15-17-29(25,26)6/h8,20,22-23,25-26H,7,9-18H2,1-6H3
> <PUBCHEM_IUPAC_INCHIKEY>
ICNJVDYAAWEPCH-UHFFFAOYSA-N
> <PUBCHEM_XLOGP3_AA>
8.1
> <PUBCHEM_EXACT_MASS>
426.349780706
> <PUBCHEM_MOLECULAR_FORMULA>
C29H46O2
> <PUBCHEM_MOLECULAR_WEIGHT>
426.7
> <PUBCHEM_OPENEYE_CAN_SMILES>
CC(CCC=C(C)C)C1CCC2C1(CCC3=C2CCC4C3(CCC(C4)OC(=O)C)C)C
> <PUBCHEM_OPENEYE_ISO_SMILES>
CC(CCC=C(C)C)C1CCC2C1(CCC3=C2CCC4C3(CCC(C4)OC(=O)C)C)C
> <PUBCHEM_CACTVS_TPSA>
26.3
> <PUBCHEM_MONOISOTOPIC_WEIGHT>
426.349780706
> <PUBCHEM_TOTAL_CHARGE>
0
> <PUBCHEM_HEAVY_ATOM_COUNT>
31
> <PUBCHEM_ATOM_DEF_STEREO_COUNT>
0
> <PUBCHEM_ATOM_UDEF_STEREO_COUNT>
7
> <PUBCHEM_BOND_DEF_STEREO_COUNT>
0
> <PUBCHEM_BOND_UDEF_STEREO_COUNT>
0
> <PUBCHEM_ISOTOPIC_ATOM_COUNT>
0
> <PUBCHEM_COMPONENT_COUNT>
1
> <PUBCHEM_CACTVS_TAUTO_COUNT>
-1
> <PUBCHEM_COORDINATE_TYPE>
1
5
255
> <PUBCHEM_BONDANNOTATIONS>
22  1  3
12  16  3
15  24  3
3  17  3
4  10  3
5  11  3
6  20  3
$$$$
