520247
  -OEChem-10302200292D
 84 87  0     1  0  0  0  0  0999 V2000
    2.8641   -2.9990    0.0000 Si  0  0  0  0  0  0  0  0  0  0  0  0
    3.7282   -3.5023    0.0000 O   0  0  0  0  0  0  0  0  0  0  0  0
    9.1213   -0.4500    0.0000 C   0  0  3  0  0  0  0  0  0  0  0  0
    9.1213   -1.4500    0.0000 C   0  0  3  0  0  0  0  0  0  0  0  0
   10.0675   -0.1452    0.0000 C   0  0  3  0  0  0  0  0  0  0  0  0
    7.3892   -1.4500    0.0000 C   0  0  3  0  0  0  0  0  0  0  0  0
    8.2552    0.0500    0.0000 C   0  0  0  0  0  0  0  0  0  0  0  0
    8.2552   -1.9500    0.0000 C   0  0  0  0  0  0  0  0  0  0  0  0
   10.0675   -1.7547    0.0000 C   0  0  0  0  0  0  0  0  0  0  0  0
   10.6511   -0.9500    0.0000 C   0  0  0  0  0  0  0  0  0  0  0  0
    6.4792   -1.9568    0.0000 C   0  0  3  0  0  0  0  0  0  0  0  0
    7.3892   -0.4500    0.0000 C   0  0  0  0  0  0  0  0  0  0  0  0
   10.3781    0.8053    0.0000 C   0  0  3  0  0  0  0  0  0  0  0  0
    9.1213    0.5500    0.0000 C   0  0  0  0  0  0  0  0  0  0  0  0
    6.4712   -2.9984    0.0000 C   0  0  0  0  0  0  0  0  0  0  0  0
    5.5524   -1.3927    0.0000 C   0  0  0  0  0  0  0  0  0  0  0  0
    8.2713   -2.9915    0.0000 C   0  0  0  0  0  0  0  0  0  0  0  0
    6.4869   -0.9568    0.0000 C   0  0  0  0  0  0  0  0  0  0  0  0
   11.3567    1.0115    0.0000 C   0  0  0  0  0  0  0  0  0  0  0  0
    5.5358   -3.5481    0.0000 C   0  0  0  0  0  0  0  0  0  0  0  0
    7.3733   -3.5192    0.0000 C   0  0  0  0  0  0  0  0  0  0  0  0
    4.6045   -1.9207    0.0000 C   0  0  0  0  0  0  0  0  0  0  0  0
    9.7103    1.5496    0.0000 C   0  0  0  0  0  0  0  0  0  0  0  0
    4.5961   -3.0056    0.0000 C   0  0  3  0  0  0  0  0  0  0  0  0
   11.6673    1.9620    0.0000 C   0  0  0  0  0  0  0  0  0  0  0  0
   12.6458    2.1682    0.0000 C   0  0  0  0  0  0  0  0  0  0  0  0
   12.9565    3.1188    0.0000 C   0  0  0  0  0  0  0  0  0  0  0  0
    2.0000   -2.4956    0.0000 C   0  0  0  0  0  0  0  0  0  0  0  0
    2.3608   -3.8631    0.0000 C   0  0  0  0  0  0  0  0  0  0  0  0
    3.3674   -2.1349    0.0000 C   0  0  0  0  0  0  0  0  0  0  0  0
   13.9350    3.3250    0.0000 C   0  0  0  0  0  0  0  0  0  0  0  0
   12.2886    3.8631    0.0000 C   0  0  0  0  0  0  0  0  0  0  0  0
    9.1869   -2.0665    0.0000 H   0  0  0  0  0  0  0  0  0  0  0  0
   10.6800   -0.0490    0.0000 H   0  0  0  0  0  0  0  0  0  0  0  0
    7.9262   -1.1400    0.0000 H   0  0  0  0  0  0  0  0  0  0  0  0
    8.6538    0.5250    0.0000 H   0  0  0  0  0  0  0  0  0  0  0  0
    7.8567    0.5250    0.0000 H   0  0  0  0  0  0  0  0  0  0  0  0
    9.8164   -2.3216    0.0000 H   0  0  0  0  0  0  0  0  0  0  0  0
   10.6049   -2.0639    0.0000 H   0  0  0  0  0  0  0  0  0  0  0  0
   11.1120   -1.3647    0.0000 H   0  0  0  0  0  0  0  0  0  0  0  0
   11.1120   -0.5352    0.0000 H   0  0  0  0  0  0  0  0  0  0  0  0
    7.1772    0.1326    0.0000 H   0  0  0  0  0  0  0  0  0  0  0  0
    6.7786   -0.5576    0.0000 H   0  0  0  0  0  0  0  0  0  0  0  0
   10.5708    1.3946    0.0000 H   0  0  0  0  0  0  0  0  0  0  0  0
    9.7413    0.5500    0.0000 H   0  0  0  0  0  0  0  0  0  0  0  0
    9.1213    1.1700    0.0000 H   0  0  0  0  0  0  0  0  0  0  0  0
    8.5013    0.5500    0.0000 H   0  0  0  0  0  0  0  0  0  0  0  0
    5.9606   -0.9261    0.0000 H   0  0  0  0  0  0  0  0  0  0  0  0
    5.1625   -0.9107    0.0000 H   0  0  0  0  0  0  0  0  0  0  0  0
    8.8118   -3.2952    0.0000 H   0  0  0  0  0  0  0  0  0  0  0  0
    7.1069   -0.9616    0.0000 H   0  0  0  0  0  0  0  0  0  0  0  0
    6.4917   -0.3369    0.0000 H   0  0  0  0  0  0  0  0  0  0  0  0
    5.8669   -0.9521    0.0000 H   0  0  0  0  0  0  0  0  0  0  0  0
   11.3772    0.3918    0.0000 H   0  0  0  0  0  0  0  0  0  0  0  0
   11.9705    0.9242    0.0000 H   0  0  0  0  0  0  0  0  0  0  0  0
    5.1385   -4.0241    0.0000 H   0  0  0  0  0  0  0  0  0  0  0  0
    5.9367   -4.0210    0.0000 H   0  0  0  0  0  0  0  0  0  0  0  0
    7.3756   -4.1392    0.0000 H   0  0  0  0  0  0  0  0  0  0  0  0
    4.3999   -1.3354    0.0000 H   0  0  0  0  0  0  0  0  0  0  0  0
    3.9928   -2.0221    0.0000 H   0  0  0  0  0  0  0  0  0  0  0  0
    4.5949   -3.6256    0.0000 H   0  0  0  0  0  0  0  0  0  0  0  0
   10.1718    1.9636    0.0000 H   0  0  0  0  0  0  0  0  0  0  0  0
    9.2962    2.0110    0.0000 H   0  0  0  0  0  0  0  0  0  0  0  0
    9.2488    1.1355    0.0000 H   0  0  0  0  0  0  0  0  0  0  0  0
   11.6468    2.5817    0.0000 H   0  0  0  0  0  0  0  0  0  0  0  0
   11.0535    2.0494    0.0000 H   0  0  0  0  0  0  0  0  0  0  0  0
   12.6664    1.5486    0.0000 H   0  0  0  0  0  0  0  0  0  0  0  0
   13.2596    2.0809    0.0000 H   0  0  0  0  0  0  0  0  0  0  0  0
   13.3705    2.6573    0.0000 H   0  0  0  0  0  0  0  0  0  0  0  0
    2.3121   -1.9599    0.0000 H   0  0  0  0  0  0  0  0  0  0  0  0
    1.4643   -2.1836    0.0000 H   0  0  0  0  0  0  0  0  0  0  0  0
    1.6879   -3.0314    0.0000 H   0  0  0  0  0  0  0  0  0  0  0  0
    1.8250   -3.5510    0.0000 H   0  0  0  0  0  0  0  0  0  0  0  0
    2.0487   -4.3988    0.0000 H   0  0  0  0  0  0  0  0  0  0  0  0
    2.8965   -4.1751    0.0000 H   0  0  0  0  0  0  0  0  0  0  0  0
    3.9032   -2.4469    0.0000 H   0  0  0  0  0  0  0  0  0  0  0  0
    3.6795   -1.5991    0.0000 H   0  0  0  0  0  0  0  0  0  0  0  0
    2.8317   -1.8228    0.0000 H   0  0  0  0  0  0  0  0  0  0  0  0
   14.0628    2.7183    0.0000 H   0  0  0  0  0  0  0  0  0  0  0  0
   14.5417    3.4528    0.0000 H   0  0  0  0  0  0  0  0  0  0  0  0
   13.8071    3.9316    0.0000 H   0  0  0  0  0  0  0  0  0  0  0  0
   12.7501    4.2771    0.0000 H   0  0  0  0  0  0  0  0  0  0  0  0
   11.8746    4.3245    0.0000 H   0  0  0  0  0  0  0  0  0  0  0  0
   11.8272    3.4490    0.0000 H   0  0  0  0  0  0  0  0  0  0  0  0
  1  2  1  0  0  0  0
  1 28  1  0  0  0  0
  1 29  1  0  0  0  0
  1 30  1  0  0  0  0
  2 24  1  0  0  0  0
  3  4  1  0  0  0  0
  3  5  1  0  0  0  0
  3  7  1  0  0  0  0
  3 14  1  0  0  0  0
  4  8  1  0  0  0  0
  4  9  1  0  0  0  0
  4 33  1  0  0  0  0
  5 10  1  0  0  0  0
  5 13  1  0  0  0  0
  5 34  1  0  0  0  0
  6  8  1  0  0  0  0
  6 11  1  0  0  0  0
  6 12  1  0  0  0  0
  6 35  1  0  0  0  0
  7 12  1  0  0  0  0
  7 36  1  0  0  0  0
  7 37  1  0  0  0  0
  8 17  2  0  0  0  0
  9 10  1  0  0  0  0
  9 38  1  0  0  0  0
  9 39  1  0  0  0  0
 10 40  1  0  0  0  0
 10 41  1  0  0  0  0
 11 15  1  0  0  0  0
 11 16  1  0  0  0  0
 11 18  1  0  0  0  0
 12 42  1  0  0  0  0
 12 43  1  0  0  0  0
 13 19  1  0  0  0  0
 13 23  1  0  0  0  0
 13 44  1  0  0  0  0
 14 45  1  0  0  0  0
 14 46  1  0  0  0  0
 14 47  1  0  0  0  0
 15 20  1  0  0  0  0
 15 21  2  0  0  0  0
 16 22  1  0  0  0  0
 16 48  1  0  0  0  0
 16 49  1  0  0  0  0
 17 21  1  0  0  0  0
 17 50  1  0  0  0  0
 18 51  1  0  0  0  0
 18 52  1  0  0  0  0
 18 53  1  0  0  0  0
 19 25  1  0  0  0  0
 19 54  1  0  0  0  0
 19 55  1  0  0  0  0
 20 24  1  0  0  0  0
 20 56  1  0  0  0  0
 20 57  1  0  0  0  0
 21 58  1  0  0  0  0
 22 24  1  0  0  0  0
 22 59  1  0  0  0  0
 22 60  1  0  0  0  0
 23 62  1  0  0  0  0
 23 63  1  0  0  0  0
 23 64  1  0  0  0  0
 24 61  1  0  0  0  0
 25 26  1  0  0  0  0
 25 65  1  0  0  0  0
 25 66  1  0  0  0  0
 26 27  1  0  0  0  0
 26 67  1  0  0  0  0
 26 68  1  0  0  0  0
 27 31  1  0  0  0  0
 27 32  1  0  0  0  0
 27 69  1  0  0  0  0
 28 70  1  0  0  0  0
 28 71  1  0  0  0  0
 28 72  1  0  0  0  0
 29 73  1  0  0  0  0
 29 74  1  0  0  0  0
 29 75  1  0  0  0  0
 30 76  1  0  0  0  0
 30 77  1  0  0  0  0
 30 78  1  0  0  0  0
 31 79  1  0  0  0  0
 31 80  1  0  0  0  0
 31 81  1  0  0  0  0
 32 82  1  0  0  0  0
 32 83  1  0  0  0  0
 32 84  1  0  0  0  0
M  END
> <PUBCHEM_COMPOUND_CID>
520247
> <PUBCHEM_COMPOUND_CANONICALIZED>
1
> <PUBCHEM_CACTVS_COMPLEXITY>
742
> <PUBCHEM_CACTVS_HBOND_ACCEPTOR>
1
> <PUBCHEM_CACTVS_HBOND_DONOR>
0
> <PUBCHEM_CACTVS_ROTATABLE_BOND>
7
> <PUBCHEM_CACTVS_SUBSKEYS>
AAADcfB4IAgAAAAAAAAAAAAAAAAAAYAAAAAwYIAAAAAAAGCAAAAAGhAAAEAADxSggAJCAAAAAAGAAiBCAAAAAAAgAAAACAAAAAgIAAIAAQAAAAAEwAAIgAOAwPAPgAAAAAAAAADAAAQAACAAAQAACAAAAA==
> <PUBCHEM_IUPAC_OPENEYE_NAME>
[17-(1,5-dimethylhexyl)-10,13-dimethyl-2,3,4,9,11,12,14,15,16,17-decahydro-1H-cyclopenta[a]phenanthren-3-yl]oxy-trimethyl-silane
> <PUBCHEM_IUPAC_CAS_NAME>
[10,13-dimethyl-17-(6-methylheptan-2-yl)-2,3,4,9,11,12,14,15,16,17-decahydro-1H-cyclopenta[a]phenanthren-3-yl]oxy-trimethylsilane
> <PUBCHEM_IUPAC_NAME_MARKUP>
[10,13-dimethyl-17-(6-methylheptan-2-yl)-2,3,4,9,11,12,14,15,16,17-decahydro-1<I>H</I>-cyclopenta[a]phenanthren-3-yl]oxy-trimethylsilane
> <PUBCHEM_IUPAC_NAME>
[10,13-dimethyl-17-(6-methylheptan-2-yl)-2,3,4,9,11,12,14,15,16,17-decahydro-1H-cyclopenta[a]phenanthren-3-yl]oxy-trimethylsilane
> <PUBCHEM_IUPAC_SYSTEMATIC_NAME>
[10,13-dimethyl-17-(6-methylheptan-2-yl)-2,3,4,9,11,12,14,15,16,17-decahydro-1H-cyclopenta[a]phenanthren-3-yl]oxy-trimethyl-silane
> <PUBCHEM_IUPAC_TRADITIONAL_NAME>
[17-(1,5-dimethylhexyl)-10,13-dimethyl-2,3,4,9,11,12,14,15,16,17-decahydro-1H-cyclopenta[a]phenanthren-3-yl]oxy-trimethyl-silane
> <PUBCHEM_IUPAC_INCHI>
InChI=1S/C30H52OSi/c1-21(2)10-9-11-22(3)26-14-15-27-25-13-12-23-20-24(31-32(6,7)8)16-18-29(23,4)28(25)17-19-30(26,27)5/h12-13,21-22,24,26-28H,9-11,14-20H2,1-8H3
> <PUBCHEM_IUPAC_INCHIKEY>
MMOYFYVZAFLUGC-UHFFFAOYSA-N
> <PUBCHEM_EXACT_MASS>
456.378742812
> <PUBCHEM_MOLECULAR_FORMULA>
C30H52OSi
> <PUBCHEM_MOLECULAR_WEIGHT>
456.8
> <PUBCHEM_OPENEYE_CAN_SMILES>
CC(C)CCCC(C)C1CCC2C1(CCC3C2=CC=C4C3(CCC(C4)O[Si](C)(C)C)C)C
> <PUBCHEM_OPENEYE_ISO_SMILES>
CC(C)CCCC(C)C1CCC2C1(CCC3C2=CC=C4C3(CCC(C4)O[Si](C)(C)C)C)C
> <PUBCHEM_CACTVS_TPSA>
9.2
> <PUBCHEM_MONOISOTOPIC_WEIGHT>
456.378742812
> <PUBCHEM_TOTAL_CHARGE>
0
> <PUBCHEM_HEAVY_ATOM_COUNT>
32
> <PUBCHEM_ATOM_DEF_STEREO_COUNT>
0
> <PUBCHEM_ATOM_UDEF_STEREO_COUNT>
7
> <PUBCHEM_BOND_DEF_STEREO_COUNT>
0
> <PUBCHEM_BOND_UDEF_STEREO_COUNT>
0
> <PUBCHEM_ISOTOPIC_ATOM_COUNT>
0
> <PUBCHEM_COMPONENT_COUNT>
1
> <PUBCHEM_CACTVS_TAUTO_COUNT>
-1
> <PUBCHEM_COORDINATE_TYPE>
1
5
255
> <PUBCHEM_BONDANNOTATIONS>
11  18  3
13  23  3
24  2  3
3  14  3
4  9  3
5  10  3
6  12  3
$$$$
