520292
  -OEChem-10302200292D
 30 31  0     1  0  0  0  0  0999 V2000
    3.7690    0.5670    0.0000 O   0  0  0  0  0  0  0  0  0  0  0  0
    2.5369   -0.2990    0.0000 O   0  0  0  0  0  0  0  0  0  0  0  0
    4.2690   -0.2990    0.0000 C   0  0  3  0  0  0  0  0  0  0  0  0
    3.4030   -0.7990    0.0000 C   0  0  3  0  0  0  0  0  0  0  0  0
    5.1350   -0.7990    0.0000 C   0  0  0  0  0  0  0  0  0  0  0  0
    3.4030   -1.7990    0.0000 C   0  0  0  0  0  0  0  0  0  0  0  0
    5.1350   -1.7990    0.0000 C   0  0  0  0  0  0  0  0  0  0  0  0
    4.2690   -2.2990    0.0000 C   0  0  0  0  0  0  0  0  0  0  0  0
    4.7690    0.5670    0.0000 C   0  0  0  0  0  0  0  0  0  0  0  0
    5.7690    0.5670    0.0000 C   0  0  0  0  0  0  0  0  0  0  0  0
    4.2690    1.4330    0.0000 C   0  0  0  0  0  0  0  0  0  0  0  0
    6.2690    1.4330    0.0000 C   0  0  0  0  0  0  0  0  0  0  0  0
    4.7690    2.2990    0.0000 C   0  0  0  0  0  0  0  0  0  0  0  0
    5.7690    2.2990    0.0000 C   0  0  0  0  0  0  0  0  0  0  0  0
    3.4030    0.0510    0.0000 H   0  0  0  0  0  0  0  0  0  0  0  0
    5.7456   -0.9067    0.0000 H   0  0  0  0  0  0  0  0  0  0  0  0
    5.3471   -0.2164    0.0000 H   0  0  0  0  0  0  0  0  0  0  0  0
    2.7924   -1.6914    0.0000 H   0  0  0  0  0  0  0  0  0  0  0  0
    3.1909   -2.3816    0.0000 H   0  0  0  0  0  0  0  0  0  0  0  0
    5.3471   -2.3816    0.0000 H   0  0  0  0  0  0  0  0  0  0  0  0
    5.7456   -1.6914    0.0000 H   0  0  0  0  0  0  0  0  0  0  0  0
    3.8705   -2.7740    0.0000 H   0  0  0  0  0  0  0  0  0  0  0  0
    4.6675   -2.7740    0.0000 H   0  0  0  0  0  0  0  0  0  0  0  0
    3.1490    0.5670    0.0000 H   0  0  0  0  0  0  0  0  0  0  0  0
    2.0000   -0.6090    0.0000 H   0  0  0  0  0  0  0  0  0  0  0  0
    6.0790    0.0301    0.0000 H   0  0  0  0  0  0  0  0  0  0  0  0
    3.6490    1.4330    0.0000 H   0  0  0  0  0  0  0  0  0  0  0  0
    6.8890    1.4330    0.0000 H   0  0  0  0  0  0  0  0  0  0  0  0
    4.4590    2.8360    0.0000 H   0  0  0  0  0  0  0  0  0  0  0  0
    6.0790    2.8360    0.0000 H   0  0  0  0  0  0  0  0  0  0  0  0
  1  3  1  0  0  0  0
  1 24  1  0  0  0  0
  2  4  1  0  0  0  0
  2 25  1  0  0  0  0
  3  4  1  0  0  0  0
  3  5  1  0  0  0  0
  3  9  1  0  0  0  0
  4  6  1  0  0  0  0
  4 15  1  0  0  0  0
  5  7  1  0  0  0  0
  5 16  1  0  0  0  0
  5 17  1  0  0  0  0
  6  8  1  0  0  0  0
  6 18  1  0  0  0  0
  6 19  1  0  0  0  0
  7  8  1  0  0  0  0
  7 20  1  0  0  0  0
  7 21  1  0  0  0  0
  8 22  1  0  0  0  0
  8 23  1  0  0  0  0
  9 10  2  0  0  0  0
  9 11  1  0  0  0  0
 10 12  1  0  0  0  0
 10 26  1  0  0  0  0
 11 13  2  0  0  0  0
 11 27  1  0  0  0  0
 12 14  2  0  0  0  0
 12 28  1  0  0  0  0
 13 14  1  0  0  0  0
 13 29  1  0  0  0  0
 14 30  1  0  0  0  0
M  END
> <PUBCHEM_COMPOUND_CID>
520292
> <PUBCHEM_COMPOUND_CANONICALIZED>
1
> <PUBCHEM_CACTVS_COMPLEXITY>
187
> <PUBCHEM_CACTVS_HBOND_ACCEPTOR>
2
> <PUBCHEM_CACTVS_HBOND_DONOR>
2
> <PUBCHEM_CACTVS_ROTATABLE_BOND>
1
> <PUBCHEM_CACTVS_SUBSKEYS>
AAADceBwMAAAAAAAAAAAAAAAAAAAAAAAAAAwYAAAAAAAAAABAAAAGgAACAAADFSgmAIwAIAAAgCAAiBCAAACAAAgAAAIiAAACIgJNiKAERCAcAAkwAEJmAeAwOAOgAAAAAAAAAAAAAAAABCAAAAAAAAAAA==
> <PUBCHEM_IUPAC_OPENEYE_NAME>
1-phenylcyclohexane-1,2-diol
> <PUBCHEM_IUPAC_CAS_NAME>
1-phenylcyclohexane-1,2-diol
> <PUBCHEM_IUPAC_NAME_MARKUP>
1-phenylcyclohexane-1,2-diol
> <PUBCHEM_IUPAC_NAME>
1-phenylcyclohexane-1,2-diol
> <PUBCHEM_IUPAC_SYSTEMATIC_NAME>
1-phenylcyclohexane-1,2-diol
> <PUBCHEM_IUPAC_TRADITIONAL_NAME>
1-phenylcyclohexane-1,2-diol
> <PUBCHEM_IUPAC_INCHI>
InChI=1S/C12H16O2/c13-11-8-4-5-9-12(11,14)10-6-2-1-3-7-10/h1-3,6-7,11,13-14H,4-5,8-9H2
> <PUBCHEM_IUPAC_INCHIKEY>
QHNHEYDAIICUDL-UHFFFAOYSA-N
> <PUBCHEM_XLOGP3_AA>
1.5
> <PUBCHEM_EXACT_MASS>
192.115029749
> <PUBCHEM_MOLECULAR_FORMULA>
C12H16O2
> <PUBCHEM_MOLECULAR_WEIGHT>
192.25
> <PUBCHEM_OPENEYE_CAN_SMILES>
C1CCC(C(C1)O)(C2=CC=CC=C2)O
> <PUBCHEM_OPENEYE_ISO_SMILES>
C1CCC(C(C1)O)(C2=CC=CC=C2)O
> <PUBCHEM_CACTVS_TPSA>
40.5
> <PUBCHEM_MONOISOTOPIC_WEIGHT>
192.115029749
> <PUBCHEM_TOTAL_CHARGE>
0
> <PUBCHEM_HEAVY_ATOM_COUNT>
14
> <PUBCHEM_ATOM_DEF_STEREO_COUNT>
0
> <PUBCHEM_ATOM_UDEF_STEREO_COUNT>
2
> <PUBCHEM_BOND_DEF_STEREO_COUNT>
0
> <PUBCHEM_BOND_UDEF_STEREO_COUNT>
0
> <PUBCHEM_ISOTOPIC_ATOM_COUNT>
0
> <PUBCHEM_COMPONENT_COUNT>
1
> <PUBCHEM_CACTVS_TAUTO_COUNT>
1
> <PUBCHEM_COORDINATE_TYPE>
1
5
255
> <PUBCHEM_BONDANNOTATIONS>
3  1  3
10  12  8
11  13  8
12  14  8
13  14  8
4  15  3
9  10  8
9  11  8
$$$$
