520285
  -OEChem-10302200292D
 29 29  0     1  0  0  0  0  0999 V2000
    5.3424    1.1907    0.0000 O   0  0  0  0  0  0  0  0  0  0  0  0
    2.9511   -0.1016    0.0000 C   0  0  0  0  0  0  0  0  0  0  0  0
    3.7601    0.4862    0.0000 C   0  0  3  0  0  0  0  0  0  0  0  0
    3.2601   -1.0526    0.0000 C   0  0  3  0  0  0  0  0  0  0  0  0
    4.5691   -0.1016    0.0000 C   0  0  0  0  0  0  0  0  0  0  0  0
    4.2601   -1.0526    0.0000 C   0  0  0  0  0  0  0  0  0  0  0  0
    2.0000   -0.4106    0.0000 C   0  0  0  0  0  0  0  0  0  0  0  0
    2.3633    0.7075    0.0000 C   0  0  0  0  0  0  0  0  0  0  0  0
    3.1723    1.2952    0.0000 C   0  0  0  0  0  0  0  0  0  0  0  0
    2.6723   -1.8616    0.0000 C   0  0  0  0  0  0  0  0  0  0  0  0
    4.3479    1.2952    0.0000 C   0  0  0  0  0  0  0  0  0  0  0  0
    2.6477   -0.9556    0.0000 H   0  0  0  0  0  0  0  0  0  0  0  0
    5.1355   -0.3537    0.0000 H   0  0  0  0  0  0  0  0  0  0  0  0
    4.8791    0.4354    0.0000 H   0  0  0  0  0  0  0  0  0  0  0  0
    4.1953   -1.6692    0.0000 H   0  0  0  0  0  0  0  0  0  0  0  0
    4.8665   -1.1815    0.0000 H   0  0  0  0  0  0  0  0  0  0  0  0
    1.8084    0.1791    0.0000 H   0  0  0  0  0  0  0  0  0  0  0  0
    1.4103   -0.6022    0.0000 H   0  0  0  0  0  0  0  0  0  0  0  0
    2.1916   -1.0002    0.0000 H   0  0  0  0  0  0  0  0  0  0  0  0
    2.8649    1.0719    0.0000 H   0  0  0  0  0  0  0  0  0  0  0  0
    1.9988    1.2090    0.0000 H   0  0  0  0  0  0  0  0  0  0  0  0
    1.8617    0.3430    0.0000 H   0  0  0  0  0  0  0  0  0  0  0  0
    3.6739    1.6597    0.0000 H   0  0  0  0  0  0  0  0  0  0  0  0
    2.8079    1.7968    0.0000 H   0  0  0  0  0  0  0  0  0  0  0  0
    2.6707    0.9308    0.0000 H   0  0  0  0  0  0  0  0  0  0  0  0
    2.1707   -1.4972    0.0000 H   0  0  0  0  0  0  0  0  0  0  0  0
    2.3079   -2.3632    0.0000 H   0  0  0  0  0  0  0  0  0  0  0  0
    3.1739   -2.2261    0.0000 H   0  0  0  0  0  0  0  0  0  0  0  0
    4.0957    1.8616    0.0000 H   0  0  0  0  0  0  0  0  0  0  0  0
  1 11  2  0  0  0  0
  2  3  1  0  0  0  0
  2  4  1  0  0  0  0
  2  7  1  0  0  0  0
  2  8  1  0  0  0  0
  3  5  1  0  0  0  0
  3  9  1  0  0  0  0
  3 11  1  0  0  0  0
  4  6  1  0  0  0  0
  4 10  1  0  0  0  0
  4 12  1  0  0  0  0
  5  6  1  0  0  0  0
  5 13  1  0  0  0  0
  5 14  1  0  0  0  0
  6 15  1  0  0  0  0
  6 16  1  0  0  0  0
  7 17  1  0  0  0  0
  7 18  1  0  0  0  0
  7 19  1  0  0  0  0
  8 20  1  0  0  0  0
  8 21  1  0  0  0  0
  8 22  1  0  0  0  0
  9 23  1  0  0  0  0
  9 24  1  0  0  0  0
  9 25  1  0  0  0  0
 10 26  1  0  0  0  0
 10 27  1  0  0  0  0
 10 28  1  0  0  0  0
 11 29  1  0  0  0  0
M  END
> <PUBCHEM_COMPOUND_CID>
520285
> <PUBCHEM_COMPOUND_CANONICALIZED>
1
> <PUBCHEM_CACTVS_COMPLEXITY>
172
> <PUBCHEM_CACTVS_HBOND_ACCEPTOR>
1
> <PUBCHEM_CACTVS_HBOND_DONOR>
0
> <PUBCHEM_CACTVS_ROTATABLE_BOND>
1
> <PUBCHEM_CACTVS_SUBSKEYS>
AAADceBwIAAAAAAAAAAAAAAAAAAAAYAAAAAAAAAAAAAAAAAAAAAAGgAAAAAADwCggAICAAAAAAAIAAgQgAAAAAAAAAAAAAEAAAAAABIAAAAAAAAAAAAAAAEIiECPgAAAAAAAAAAAAAAAAAAAAQAACAAAAA==
> <PUBCHEM_IUPAC_OPENEYE_NAME>
1,2,2,3-tetramethylcyclopentanecarbaldehyde
> <PUBCHEM_IUPAC_CAS_NAME>
1,2,2,3-tetramethyl-1-cyclopentanecarboxaldehyde
> <PUBCHEM_IUPAC_NAME_MARKUP>
1,2,2,3-tetramethylcyclopentane-1-carbaldehyde
> <PUBCHEM_IUPAC_NAME>
1,2,2,3-tetramethylcyclopentane-1-carbaldehyde
> <PUBCHEM_IUPAC_SYSTEMATIC_NAME>
1,2,2,3-tetramethylcyclopentane-1-carbaldehyde
> <PUBCHEM_IUPAC_TRADITIONAL_NAME>
1,2,2,3-tetramethylcyclopentanecarbaldehyde
> <PUBCHEM_IUPAC_INCHI>
InChI=1S/C10H18O/c1-8-5-6-10(4,7-11)9(8,2)3/h7-8H,5-6H2,1-4H3
> <PUBCHEM_IUPAC_INCHIKEY>
XFHJFSKPUCMPGP-UHFFFAOYSA-N
> <PUBCHEM_XLOGP3_AA>
2.7
> <PUBCHEM_EXACT_MASS>
154.135765193
> <PUBCHEM_MOLECULAR_FORMULA>
C10H18O
> <PUBCHEM_MOLECULAR_WEIGHT>
154.25
> <PUBCHEM_OPENEYE_CAN_SMILES>
CC1CCC(C1(C)C)(C)C=O
> <PUBCHEM_OPENEYE_ISO_SMILES>
CC1CCC(C1(C)C)(C)C=O
> <PUBCHEM_CACTVS_TPSA>
17.1
> <PUBCHEM_MONOISOTOPIC_WEIGHT>
154.135765193
> <PUBCHEM_TOTAL_CHARGE>
0
> <PUBCHEM_HEAVY_ATOM_COUNT>
11
> <PUBCHEM_ATOM_DEF_STEREO_COUNT>
0
> <PUBCHEM_ATOM_UDEF_STEREO_COUNT>
2
> <PUBCHEM_BOND_DEF_STEREO_COUNT>
0
> <PUBCHEM_BOND_UDEF_STEREO_COUNT>
0
> <PUBCHEM_ISOTOPIC_ATOM_COUNT>
0
> <PUBCHEM_COMPONENT_COUNT>
1
> <PUBCHEM_CACTVS_TAUTO_COUNT>
-1
> <PUBCHEM_COORDINATE_TYPE>
1
5
255
> <PUBCHEM_BONDANNOTATIONS>
3  9  3
4  10  3
$$$$
