520295
  -OEChem-10302200292D
 37 37  0     1  0  0  0  0  0999 V2000
    5.5981   -2.8100    0.0000 O   0  0  0  0  0  0  0  0  0  0  0  0
    5.5981    2.1900    0.0000 O   0  0  0  0  0  0  0  0  0  0  0  0
    3.0000   -1.3100    0.0000 C   0  0  0  0  0  0  0  0  0  0  0  0
    3.8660   -0.8100    0.0000 C   0  0  0  0  0  0  0  0  0  0  0  0
    3.0000   -2.3100    0.0000 C   0  0  0  0  0  0  0  0  0  0  0  0
    3.8660   -2.8100    0.0000 C   0  0  0  0  0  0  0  0  0  0  0  0
    3.8660    0.1900    0.0000 C   0  0  0  0  0  0  0  0  0  0  0  0
    4.7320   -1.3100    0.0000 C   0  0  0  0  0  0  0  0  0  0  0  0
    2.0000   -1.3100    0.0000 C   0  0  0  0  0  0  0  0  0  0  0  0
    2.5000   -0.4440    0.0000 C   0  0  0  0  0  0  0  0  0  0  0  0
    4.7320   -2.3100    0.0000 C   0  0  0  0  0  0  0  0  0  0  0  0
    4.7320    0.6900    0.0000 C   0  0  0  0  0  0  0  0  0  0  0  0
    4.7320    1.6900    0.0000 C   0  0  3  0  0  0  0  0  0  0  0  0
    5.5981   -0.8100    0.0000 C   0  0  0  0  0  0  0  0  0  0  0  0
    3.8660    2.1900    0.0000 C   0  0  0  0  0  0  0  0  0  0  0  0
    2.3894   -2.2023    0.0000 H   0  0  0  0  0  0  0  0  0  0  0  0
    2.7880   -2.8926    0.0000 H   0  0  0  0  0  0  0  0  0  0  0  0
    3.6540    0.7726    0.0000 H   0  0  0  0  0  0  0  0  0  0  0  0
    3.2554    0.0823    0.0000 H   0  0  0  0  0  0  0  0  0  0  0  0
    3.4675   -3.2850    0.0000 H   0  0  0  0  0  0  0  0  0  0  0  0
    4.2646   -3.2850    0.0000 H   0  0  0  0  0  0  0  0  0  0  0  0
    2.0000   -0.6900    0.0000 H   0  0  0  0  0  0  0  0  0  0  0  0
    1.3800   -1.3100    0.0000 H   0  0  0  0  0  0  0  0  0  0  0  0
    2.0000   -1.9300    0.0000 H   0  0  0  0  0  0  0  0  0  0  0  0
    3.0369   -0.1340    0.0000 H   0  0  0  0  0  0  0  0  0  0  0  0
    2.1900    0.0930    0.0000 H   0  0  0  0  0  0  0  0  0  0  0  0
    1.9631   -0.7540    0.0000 H   0  0  0  0  0  0  0  0  0  0  0  0
    4.9441    0.1074    0.0000 H   0  0  0  0  0  0  0  0  0  0  0  0
    5.3426    0.7977    0.0000 H   0  0  0  0  0  0  0  0  0  0  0  0
    4.7320    2.3100    0.0000 H   0  0  0  0  0  0  0  0  0  0  0  0
    5.9081   -1.3469    0.0000 H   0  0  0  0  0  0  0  0  0  0  0  0
    6.1350   -0.5000    0.0000 H   0  0  0  0  0  0  0  0  0  0  0  0
    5.2881   -0.2731    0.0000 H   0  0  0  0  0  0  0  0  0  0  0  0
    4.1760    2.7269    0.0000 H   0  0  0  0  0  0  0  0  0  0  0  0
    3.3291    2.5000    0.0000 H   0  0  0  0  0  0  0  0  0  0  0  0
    3.5560    1.6531    0.0000 H   0  0  0  0  0  0  0  0  0  0  0  0
    5.5981    2.8100    0.0000 H   0  0  0  0  0  0  0  0  0  0  0  0
  1 11  2  0  0  0  0
  2 13  1  0  0  0  0
  2 37  1  0  0  0  0
  3  4  1  0  0  0  0
  3  5  1  0  0  0  0
  3  9  1  0  0  0  0
  3 10  1  0  0  0  0
  4  7  1  0  0  0  0
  4  8  2  0  0  0  0
  5  6  1  0  0  0  0
  5 16  1  0  0  0  0
  5 17  1  0  0  0  0
  6 11  1  0  0  0  0
  6 20  1  0  0  0  0
  6 21  1  0  0  0  0
  7 12  1  0  0  0  0
  7 18  1  0  0  0  0
  7 19  1  0  0  0  0
  8 11  1  0  0  0  0
  8 14  1  0  0  0  0
  9 22  1  0  0  0  0
  9 23  1  0  0  0  0
  9 24  1  0  0  0  0
 10 25  1  0  0  0  0
 10 26  1  0  0  0  0
 10 27  1  0  0  0  0
 12 13  1  0  0  0  0
 12 28  1  0  0  0  0
 12 29  1  0  0  0  0
 13 15  1  0  0  0  0
 13 30  1  0  0  0  0
 14 31  1  0  0  0  0
 14 32  1  0  0  0  0
 14 33  1  0  0  0  0
 15 34  1  0  0  0  0
 15 35  1  0  0  0  0
 15 36  1  0  0  0  0
M  END
> <PUBCHEM_COMPOUND_CID>
520295
> <PUBCHEM_COMPOUND_CANONICALIZED>
1
> <PUBCHEM_CACTVS_COMPLEXITY>
287
> <PUBCHEM_CACTVS_HBOND_ACCEPTOR>
2
> <PUBCHEM_CACTVS_HBOND_DONOR>
1
> <PUBCHEM_CACTVS_ROTATABLE_BOND>
3
> <PUBCHEM_CACTVS_SUBSKEYS>
AAADceBwMAAAAAAAAAAAAAAAAAAAAAAAAAAgAAAAAAAAAAAAAAAAGgAACAAADhSggAICAAAAAgCIAoBQAAAAAAAgAAAACAEAAEgAEBIAAAAAQAAEgAAIAQOIyPCPAAAAAAAAAAAAAAAAAAAAAAAAAAAAAA==
> <PUBCHEM_IUPAC_OPENEYE_NAME>
3-(3-hydroxybutyl)-2,4,4-trimethyl-cyclohex-2-en-1-one
> <PUBCHEM_IUPAC_CAS_NAME>
3-(3-hydroxybutyl)-2,4,4-trimethyl-1-cyclohex-2-enone
> <PUBCHEM_IUPAC_NAME_MARKUP>
3-(3-hydroxybutyl)-2,4,4-trimethylcyclohex-2-en-1-one
> <PUBCHEM_IUPAC_NAME>
3-(3-hydroxybutyl)-2,4,4-trimethylcyclohex-2-en-1-one
> <PUBCHEM_IUPAC_SYSTEMATIC_NAME>
2,4,4-trimethyl-3-(3-oxidanylbutyl)cyclohex-2-en-1-one
> <PUBCHEM_IUPAC_TRADITIONAL_NAME>
3-(3-hydroxybutyl)-2,4,4-trimethyl-cyclohex-2-en-1-one
> <PUBCHEM_IUPAC_INCHI>
InChI=1S/C13H22O2/c1-9(14)5-6-11-10(2)12(15)7-8-13(11,3)4/h9,14H,5-8H2,1-4H3
> <PUBCHEM_IUPAC_INCHIKEY>
KNHUHSLRIKTCIY-UHFFFAOYSA-N
> <PUBCHEM_XLOGP3_AA>
2.1
> <PUBCHEM_EXACT_MASS>
210.161979940
> <PUBCHEM_MOLECULAR_FORMULA>
C13H22O2
> <PUBCHEM_MOLECULAR_WEIGHT>
210.31
> <PUBCHEM_OPENEYE_CAN_SMILES>
CC1=C(C(CCC1=O)(C)C)CCC(C)O
> <PUBCHEM_OPENEYE_ISO_SMILES>
CC1=C(C(CCC1=O)(C)C)CCC(C)O
> <PUBCHEM_CACTVS_TPSA>
37.3
> <PUBCHEM_MONOISOTOPIC_WEIGHT>
210.161979940
> <PUBCHEM_TOTAL_CHARGE>
0
> <PUBCHEM_HEAVY_ATOM_COUNT>
15
> <PUBCHEM_ATOM_DEF_STEREO_COUNT>
0
> <PUBCHEM_ATOM_UDEF_STEREO_COUNT>
1
> <PUBCHEM_BOND_DEF_STEREO_COUNT>
0
> <PUBCHEM_BOND_UDEF_STEREO_COUNT>
0
> <PUBCHEM_ISOTOPIC_ATOM_COUNT>
0
> <PUBCHEM_COMPONENT_COUNT>
1
> <PUBCHEM_CACTVS_TAUTO_COUNT>
5
> <PUBCHEM_COORDINATE_TYPE>
1
5
255
> <PUBCHEM_BONDANNOTATIONS>
13  2  3
$$$$
