520385
  -OEChem-10302200292D
 28 29  0     1  0  0  0  0  0999 V2000
    3.4397   -1.0962    0.0000 C   0  0  3  0  0  0  0  0  0  0  0  0
    2.5000   -0.7542    0.0000 C   0  0  3  0  0  0  0  0  0  0  0  0
    2.6735   -1.7394    0.0000 C   0  0  0  0  0  0  0  0  0  0  0  0
    4.3794   -0.7542    0.0000 C   0  0  0  0  0  0  0  0  0  0  0  0
    2.0000    0.1119    0.0000 C   0  0  0  0  0  0  0  0  0  0  0  0
    4.8794    0.1119    0.0000 C   0  0  0  0  0  0  0  0  0  0  0  0
    2.1736    1.0967    0.0000 C   0  0  0  0  0  0  0  0  0  0  0  0
    4.7057    1.0967    0.0000 C   0  0  0  0  0  0  0  0  0  0  0  0
    2.9397    1.7394    0.0000 C   0  0  0  0  0  0  0  0  0  0  0  0
    3.9397    1.7394    0.0000 C   0  0  0  0  0  0  0  0  0  0  0  0
    3.7498   -1.6331    0.0000 H   0  0  0  0  0  0  0  0  0  0  0  0
    1.9174   -0.9661    0.0000 H   0  0  0  0  0  0  0  0  0  0  0  0
    2.0908   -1.9515    0.0000 H   0  0  0  0  0  0  0  0  0  0  0  0
    2.9835   -2.2764    0.0000 H   0  0  0  0  0  0  0  0  0  0  0  0
    4.4154   -1.3731    0.0000 H   0  0  0  0  0  0  0  0  0  0  0  0
    4.9827   -0.8971    0.0000 H   0  0  0  0  0  0  0  0  0  0  0  0
    1.4460    0.3901    0.0000 H   0  0  0  0  0  0  0  0  0  0  0  0
    1.5745   -0.3391    0.0000 H   0  0  0  0  0  0  0  0  0  0  0  0
    5.3049   -0.3391    0.0000 H   0  0  0  0  0  0  0  0  0  0  0  0
    5.4334    0.3901    0.0000 H   0  0  0  0  0  0  0  0  0  0  0  0
    1.9281    1.6660    0.0000 H   0  0  0  0  0  0  0  0  0  0  0  0
    1.5578    1.0247    0.0000 H   0  0  0  0  0  0  0  0  0  0  0  0
    5.3216    1.0247    0.0000 H   0  0  0  0  0  0  0  0  0  0  0  0
    4.9513    1.6660    0.0000 H   0  0  0  0  0  0  0  0  0  0  0  0
    3.1175    2.3334    0.0000 H   0  0  0  0  0  0  0  0  0  0  0  0
    2.4217    2.0802    0.0000 H   0  0  0  0  0  0  0  0  0  0  0  0
    4.4577    2.0802    0.0000 H   0  0  0  0  0  0  0  0  0  0  0  0
    3.7619    2.3334    0.0000 H   0  0  0  0  0  0  0  0  0  0  0  0
  1  2  1  0  0  0  0
  1  3  1  0  0  0  0
  1  4  1  0  0  0  0
  1 11  1  0  0  0  0
  2  3  1  0  0  0  0
  2  5  1  0  0  0  0
  2 12  1  0  0  0  0
  3 13  1  0  0  0  0
  3 14  1  0  0  0  0
  4  6  1  0  0  0  0
  4 15  1  0  0  0  0
  4 16  1  0  0  0  0
  5  7  1  0  0  0  0
  5 17  1  0  0  0  0
  5 18  1  0  0  0  0
  6  8  1  0  0  0  0
  6 19  1  0  0  0  0
  6 20  1  0  0  0  0
  7  9  1  0  0  0  0
  7 21  1  0  0  0  0
  7 22  1  0  0  0  0
  8 10  1  0  0  0  0
  8 23  1  0  0  0  0
  8 24  1  0  0  0  0
  9 10  1  0  0  0  0
  9 25  1  0  0  0  0
  9 26  1  0  0  0  0
 10 27  1  0  0  0  0
 10 28  1  0  0  0  0
M  END
> <PUBCHEM_COMPOUND_CID>
520385
> <PUBCHEM_COMPOUND_CANONICALIZED>
1
> <PUBCHEM_CACTVS_COMPLEXITY>
94.6
> <PUBCHEM_CACTVS_HBOND_ACCEPTOR>
0
> <PUBCHEM_CACTVS_HBOND_DONOR>
0
> <PUBCHEM_CACTVS_ROTATABLE_BOND>
0
> <PUBCHEM_CACTVS_SUBSKEYS>
AAADceBwAAAAAAAAAAAAAAAAGAAAAAAAAAAAAAAAAAAAAGDAAAAAGAAAAAAADQCAAAAAAAAAAAAAAAAAAAAAAAAAAAAAAAAAAAAAAAIAAAAAAAAAAAAAAAEAgMAOAAAAAAAAAAAAAAAAAAAAAAAAAAAAAA==
> <PUBCHEM_IUPAC_OPENEYE_NAME>
bicyclo[7.1.0]decane
> <PUBCHEM_IUPAC_CAS_NAME>
bicyclo[7.1.0]decane
> <PUBCHEM_IUPAC_NAME_MARKUP>
bicyclo[7.1.0]decane
> <PUBCHEM_IUPAC_NAME>
bicyclo[7.1.0]decane
> <PUBCHEM_IUPAC_SYSTEMATIC_NAME>
bicyclo[7.1.0]decane
> <PUBCHEM_IUPAC_TRADITIONAL_NAME>
bicyclo[7.1.0]decane
> <PUBCHEM_IUPAC_INCHI>
InChI=1S/C10H18/c1-2-4-6-9-8-10(9)7-5-3-1/h9-10H,1-8H2
> <PUBCHEM_IUPAC_INCHIKEY>
SAXQCCHLVOICGG-UHFFFAOYSA-N
> <PUBCHEM_XLOGP3_AA>
4.6
> <PUBCHEM_EXACT_MASS>
138.140850574
> <PUBCHEM_MOLECULAR_FORMULA>
C10H18
> <PUBCHEM_MOLECULAR_WEIGHT>
138.25
> <PUBCHEM_OPENEYE_CAN_SMILES>
C1CCCC2CC2CCC1
> <PUBCHEM_OPENEYE_ISO_SMILES>
C1CCCC2CC2CCC1
> <PUBCHEM_CACTVS_TPSA>
0
> <PUBCHEM_MONOISOTOPIC_WEIGHT>
138.140850574
> <PUBCHEM_TOTAL_CHARGE>
0
> <PUBCHEM_HEAVY_ATOM_COUNT>
10
> <PUBCHEM_ATOM_DEF_STEREO_COUNT>
0
> <PUBCHEM_ATOM_UDEF_STEREO_COUNT>
2
> <PUBCHEM_BOND_DEF_STEREO_COUNT>
0
> <PUBCHEM_BOND_UDEF_STEREO_COUNT>
0
> <PUBCHEM_ISOTOPIC_ATOM_COUNT>
0
> <PUBCHEM_COMPONENT_COUNT>
1
> <PUBCHEM_CACTVS_TAUTO_COUNT>
-1
> <PUBCHEM_COORDINATE_TYPE>
1
5
255
> <PUBCHEM_BONDANNOTATIONS>
1  4  3
2  5  3
$$$$
