520328
  -OEChem-10302200292D
 34 34  0     1  0  0  0  0  0999 V2000
    3.7320   -2.7500    0.0000 O   0  0  0  0  0  0  0  0  0  0  0  0
    6.3301    2.7500    0.0000 O   0  0  0  0  0  0  0  0  0  0  0  0
    2.0000   -2.7500    0.0000 O   0  0  0  0  0  0  0  0  0  0  0  0
    4.5981    2.7500    0.0000 N   0  0  0  0  0  0  0  0  0  0  0  0
    4.5981    1.7500    0.0000 C   0  0  3  0  0  0  0  0  0  0  0  0
    3.7320    1.2500    0.0000 C   0  0  0  0  0  0  0  0  0  0  0  0
    3.7320    0.2500    0.0000 C   0  0  0  0  0  0  0  0  0  0  0  0
    5.4641    1.2500    0.0000 C   0  0  0  0  0  0  0  0  0  0  0  0
    4.5981   -0.2500    0.0000 C   0  0  0  0  0  0  0  0  0  0  0  0
    2.8660   -0.2500    0.0000 C   0  0  0  0  0  0  0  0  0  0  0  0
    4.5981   -1.2500    0.0000 C   0  0  0  0  0  0  0  0  0  0  0  0
    2.8660   -1.2500    0.0000 C   0  0  0  0  0  0  0  0  0  0  0  0
    5.4641    3.2500    0.0000 C   0  0  0  0  0  0  0  0  0  0  0  0
    3.7320   -1.7500    0.0000 C   0  0  0  0  0  0  0  0  0  0  0  0
    5.4641    4.2500    0.0000 C   0  0  0  0  0  0  0  0  0  0  0  0
    2.8660   -3.2500    0.0000 C   0  0  0  0  0  0  0  0  0  0  0  0
    2.8660   -4.2500    0.0000 C   0  0  0  0  0  0  0  0  0  0  0  0
    5.1350    2.0600    0.0000 H   0  0  0  0  0  0  0  0  0  0  0  0
    3.5200    1.8326    0.0000 H   0  0  0  0  0  0  0  0  0  0  0  0
    3.1215    1.1423    0.0000 H   0  0  0  0  0  0  0  0  0  0  0  0
    5.1541    0.7131    0.0000 H   0  0  0  0  0  0  0  0  0  0  0  0
    6.0010    0.9400    0.0000 H   0  0  0  0  0  0  0  0  0  0  0  0
    5.7741    1.7869    0.0000 H   0  0  0  0  0  0  0  0  0  0  0  0
    4.0611    3.0600    0.0000 H   0  0  0  0  0  0  0  0  0  0  0  0
    5.1350    0.0600    0.0000 H   0  0  0  0  0  0  0  0  0  0  0  0
    2.3291    0.0600    0.0000 H   0  0  0  0  0  0  0  0  0  0  0  0
    5.1350   -1.5600    0.0000 H   0  0  0  0  0  0  0  0  0  0  0  0
    2.3291   -1.5600    0.0000 H   0  0  0  0  0  0  0  0  0  0  0  0
    6.0841    4.2500    0.0000 H   0  0  0  0  0  0  0  0  0  0  0  0
    5.4641    4.8700    0.0000 H   0  0  0  0  0  0  0  0  0  0  0  0
    4.8441    4.2500    0.0000 H   0  0  0  0  0  0  0  0  0  0  0  0
    2.2460   -4.2500    0.0000 H   0  0  0  0  0  0  0  0  0  0  0  0
    2.8660   -4.8700    0.0000 H   0  0  0  0  0  0  0  0  0  0  0  0
    3.4860   -4.2500    0.0000 H   0  0  0  0  0  0  0  0  0  0  0  0
  1 14  1  0  0  0  0
  1 16  1  0  0  0  0
  2 13  2  0  0  0  0
  3 16  2  0  0  0  0
  4  5  1  0  0  0  0
  4 13  1  0  0  0  0
  4 24  1  0  0  0  0
  5  6  1  0  0  0  0
  5  8  1  0  0  0  0
  5 18  1  0  0  0  0
  6  7  1  0  0  0  0
  6 19  1  0  0  0  0
  6 20  1  0  0  0  0
  7  9  2  0  0  0  0
  7 10  1  0  0  0  0
  8 21  1  0  0  0  0
  8 22  1  0  0  0  0
  8 23  1  0  0  0  0
  9 11  1  0  0  0  0
  9 25  1  0  0  0  0
 10 12  2  0  0  0  0
 10 26  1  0  0  0  0
 11 14  2  0  0  0  0
 11 27  1  0  0  0  0
 12 14  1  0  0  0  0
 12 28  1  0  0  0  0
 13 15  1  0  0  0  0
 15 29  1  0  0  0  0
 15 30  1  0  0  0  0
 15 31  1  0  0  0  0
 16 17  1  0  0  0  0
 17 32  1  0  0  0  0
 17 33  1  0  0  0  0
 17 34  1  0  0  0  0
M  END
> <PUBCHEM_COMPOUND_CID>
520328
> <PUBCHEM_COMPOUND_CANONICALIZED>
1
> <PUBCHEM_CACTVS_COMPLEXITY>
270
> <PUBCHEM_CACTVS_HBOND_ACCEPTOR>
3
> <PUBCHEM_CACTVS_HBOND_DONOR>
1
> <PUBCHEM_CACTVS_ROTATABLE_BOND>
5
> <PUBCHEM_CACTVS_SUBSKEYS>
AAADceByMAAAAAAAAAAAAAAAAAAAAAAAAAAwAAAAAAAAAAABAAAAHgAQAAAADCzBmAQyDoLABACIAiHSGAACCAAgIAAIiIAOCIgMJiKEsRuGOiCk1hGIqAeQwKAOIAAAAAAAAABAAAAAAAAAAAAAAAAAAA==
> <PUBCHEM_IUPAC_OPENEYE_NAME>
[4-(2-acetamidopropyl)phenyl] acetate
> <PUBCHEM_IUPAC_CAS_NAME>
acetic acid [4-(2-acetamidopropyl)phenyl] ester
> <PUBCHEM_IUPAC_NAME_MARKUP>
[4-(2-acetamidopropyl)phenyl] acetate
> <PUBCHEM_IUPAC_NAME>
[4-(2-acetamidopropyl)phenyl] acetate
> <PUBCHEM_IUPAC_SYSTEMATIC_NAME>
[4-(2-acetamidopropyl)phenyl] ethanoate
> <PUBCHEM_IUPAC_TRADITIONAL_NAME>
acetic acid [4-(2-acetamidopropyl)phenyl] ester
> <PUBCHEM_IUPAC_INCHI>
InChI=1S/C13H17NO3/c1-9(14-10(2)15)8-12-4-6-13(7-5-12)17-11(3)16/h4-7,9H,8H2,1-3H3,(H,14,15)
> <PUBCHEM_IUPAC_INCHIKEY>
UCJWNCIDYZVGLL-UHFFFAOYSA-N
> <PUBCHEM_XLOGP3_AA>
1.7
> <PUBCHEM_EXACT_MASS>
235.12084340
> <PUBCHEM_MOLECULAR_FORMULA>
C13H17NO3
> <PUBCHEM_MOLECULAR_WEIGHT>
235.28
> <PUBCHEM_OPENEYE_CAN_SMILES>
CC(CC1=CC=C(C=C1)OC(=O)C)NC(=O)C
> <PUBCHEM_OPENEYE_ISO_SMILES>
CC(CC1=CC=C(C=C1)OC(=O)C)NC(=O)C
> <PUBCHEM_CACTVS_TPSA>
55.4
> <PUBCHEM_MONOISOTOPIC_WEIGHT>
235.12084340
> <PUBCHEM_TOTAL_CHARGE>
0
> <PUBCHEM_HEAVY_ATOM_COUNT>
17
> <PUBCHEM_ATOM_DEF_STEREO_COUNT>
0
> <PUBCHEM_ATOM_UDEF_STEREO_COUNT>
1
> <PUBCHEM_BOND_DEF_STEREO_COUNT>
0
> <PUBCHEM_BOND_UDEF_STEREO_COUNT>
0
> <PUBCHEM_ISOTOPIC_ATOM_COUNT>
0
> <PUBCHEM_COMPONENT_COUNT>
1
> <PUBCHEM_CACTVS_TAUTO_COUNT>
-1
> <PUBCHEM_COORDINATE_TYPE>
1
5
255
> <PUBCHEM_BONDANNOTATIONS>
10  12  8
11  14  8
12  14  8
5  8  3
7  10  8
7  9  8
9  11  8
$$$$
