520380
  -OEChem-10302200292D
 50 53  0     1  0  0  0  0  0999 V2000
    9.1857    2.1767    0.0000 O   0  0  0  0  0  0  0  0  0  0  0  0
    4.4323    0.9212    0.0000 O   0  0  0  0  0  0  0  0  0  0  0  0
    2.5357   -2.1309    0.0000 O   0  0  0  0  0  0  0  0  0  0  0  0
    6.1968   -0.0785    0.0000 C   0  0  3  0  0  0  0  0  0  0  0  0
    7.0628   -0.5785    0.0000 C   0  0  3  0  0  0  0  0  0  0  0  0
    7.9288   -0.0785    0.0000 C   0  0  3  0  0  0  0  0  0  0  0  0
    7.9288    0.9215    0.0000 C   0  0  3  0  0  0  0  0  0  0  0  0
    5.2868   -0.5854    0.0000 C   0  0  3  0  0  0  0  0  0  0  0  0
    6.1968    0.9215    0.0000 C   0  0  0  0  0  0  0  0  0  0  0  0
    7.0628    1.4215    0.0000 C   0  0  0  0  0  0  0  0  0  0  0  0
    8.8750   -0.3833    0.0000 C   0  0  0  0  0  0  0  0  0  0  0  0
    7.0789   -1.6200    0.0000 C   0  0  0  0  0  0  0  0  0  0  0  0
    5.2787   -1.6270    0.0000 C   0  0  0  0  0  0  0  0  0  0  0  0
    4.3599   -0.0213    0.0000 C   0  0  0  0  0  0  0  0  0  0  0  0
    8.8750    1.2262    0.0000 C   0  0  0  0  0  0  0  0  0  0  0  0
    9.4586    0.4215    0.0000 C   0  0  0  0  0  0  0  0  0  0  0  0
    6.1808   -2.1478    0.0000 C   0  0  0  0  0  0  0  0  0  0  0  0
    5.2945    0.4146    0.0000 C   0  0  0  0  0  0  0  0  0  0  0  0
    7.9288    1.9215    0.0000 C   0  0  0  0  0  0  0  0  0  0  0  0
    4.3433   -2.1767    0.0000 C   0  0  0  0  0  0  0  0  0  0  0  0
    3.4120   -0.5493    0.0000 C   0  0  0  0  0  0  0  0  0  0  0  0
    3.4037   -1.6342    0.0000 C   0  0  3  0  0  0  0  0  0  0  0  0
    6.7337    0.2315    0.0000 H   0  0  0  0  0  0  0  0  0  0  0  0
    7.6021   -0.8844    0.0000 H   0  0  0  0  0  0  0  0  0  0  0  0
    7.9944   -0.6951    0.0000 H   0  0  0  0  0  0  0  0  0  0  0  0
    5.9847    1.5041    0.0000 H   0  0  0  0  0  0  0  0  0  0  0  0
    5.5862    0.8138    0.0000 H   0  0  0  0  0  0  0  0  0  0  0  0
    7.4613    1.8964    0.0000 H   0  0  0  0  0  0  0  0  0  0  0  0
    6.6643    1.8964    0.0000 H   0  0  0  0  0  0  0  0  0  0  0  0
    8.6240   -0.9502    0.0000 H   0  0  0  0  0  0  0  0  0  0  0  0
    9.4124   -0.6925    0.0000 H   0  0  0  0  0  0  0  0  0  0  0  0
    7.2969   -2.2004    0.0000 H   0  0  0  0  0  0  0  0  0  0  0  0
    7.6880   -1.5046    0.0000 H   0  0  0  0  0  0  0  0  0  0  0  0
    4.7681    0.4454    0.0000 H   0  0  0  0  0  0  0  0  0  0  0  0
    3.9700    0.4607    0.0000 H   0  0  0  0  0  0  0  0  0  0  0  0
    9.9195    0.0067    0.0000 H   0  0  0  0  0  0  0  0  0  0  0  0
    9.9195    0.8362    0.0000 H   0  0  0  0  0  0  0  0  0  0  0  0
    6.1832   -2.7678    0.0000 H   0  0  0  0  0  0  0  0  0  0  0  0
    5.9042    0.3022    0.0000 H   0  0  0  0  0  0  0  0  0  0  0  0
    5.5110    0.9955    0.0000 H   0  0  0  0  0  0  0  0  0  0  0  0
    8.5488    1.9215    0.0000 H   0  0  0  0  0  0  0  0  0  0  0  0
    7.9288    2.5415    0.0000 H   0  0  0  0  0  0  0  0  0  0  0  0
    7.3088    1.9215    0.0000 H   0  0  0  0  0  0  0  0  0  0  0  0
    3.9460   -2.6527    0.0000 H   0  0  0  0  0  0  0  0  0  0  0  0
    4.7443   -2.6496    0.0000 H   0  0  0  0  0  0  0  0  0  0  0  0
    3.2075    0.0360    0.0000 H   0  0  0  0  0  0  0  0  0  0  0  0
    2.8004   -0.6506    0.0000 H   0  0  0  0  0  0  0  0  0  0  0  0
    2.8686   -1.3211    0.0000 H   0  0  0  0  0  0  0  0  0  0  0  0
    4.4371    1.5412    0.0000 H   0  0  0  0  0  0  0  0  0  0  0  0
    2.0000   -1.8188    0.0000 H   0  0  0  0  0  0  0  0  0  0  0  0
  1 15  2  0  0  0  0
  2 18  1  0  0  0  0
  2 49  1  0  0  0  0
  3 22  1  0  0  0  0
  3 50  1  0  0  0  0
  4  5  1  0  0  0  0
  4  8  1  0  0  0  0
  4  9  1  0  0  0  0
  4 23  1  0  0  0  0
  5  6  1  0  0  0  0
  5 12  1  0  0  0  0
  5 24  1  0  0  0  0
  6  7  1  0  0  0  0
  6 11  1  0  0  0  0
  6 25  1  0  0  0  0
  7 10  1  0  0  0  0
  7 15  1  0  0  0  0
  7 19  1  0  0  0  0
  8 13  1  0  0  0  0
  8 14  1  0  0  0  0
  8 18  1  0  0  0  0
  9 10  1  0  0  0  0
  9 26  1  0  0  0  0
  9 27  1  0  0  0  0
 10 28  1  0  0  0  0
 10 29  1  0  0  0  0
 11 16  1  0  0  0  0
 11 30  1  0  0  0  0
 11 31  1  0  0  0  0
 12 17  1  0  0  0  0
 12 32  1  0  0  0  0
 12 33  1  0  0  0  0
 13 17  2  0  0  0  0
 13 20  1  0  0  0  0
 14 21  1  0  0  0  0
 14 34  1  0  0  0  0
 14 35  1  0  0  0  0
 15 16  1  0  0  0  0
 16 36  1  0  0  0  0
 16 37  1  0  0  0  0
 17 38  1  0  0  0  0
 18 39  1  0  0  0  0
 18 40  1  0  0  0  0
 19 41  1  0  0  0  0
 19 42  1  0  0  0  0
 19 43  1  0  0  0  0
 20 22  1  0  0  0  0
 20 44  1  0  0  0  0
 20 45  1  0  0  0  0
 21 22  1  0  0  0  0
 21 46  1  0  0  0  0
 21 47  1  0  0  0  0
 22 48  1  0  0  0  0
M  END
> <PUBCHEM_COMPOUND_CID>
520380
> <PUBCHEM_COMPOUND_CANONICALIZED>
1
> <PUBCHEM_CACTVS_COMPLEXITY>
525
> <PUBCHEM_CACTVS_HBOND_ACCEPTOR>
3
> <PUBCHEM_CACTVS_HBOND_DONOR>
2
> <PUBCHEM_CACTVS_ROTATABLE_BOND>
1
> <PUBCHEM_CACTVS_SUBSKEYS>
AAADceB4MAAAAAAAAAAAAAAAAAAAAYAAAAAwYIAAAAAAAGCAAAAAGgAACAAADxSggAICAAAAAgCIAqBSAAAAAAAgAAAACAEAAAgAEBIAAQAAQAAEwAAIAAOI6PSPgAAAAAAAAADAAAQAACAAAAAACAAAAA==
> <PUBCHEM_IUPAC_OPENEYE_NAME>
3-hydroxy-10-(hydroxymethyl)-13-methyl-1,2,3,4,7,8,9,11,12,14,15,16-dodecahydrocyclopenta[a]phenanthren-17-one
> <PUBCHEM_IUPAC_CAS_NAME>
3-hydroxy-10-(hydroxymethyl)-13-methyl-1,2,3,4,7,8,9,11,12,14,15,16-dodecahydrocyclopenta[a]phenanthren-17-one
> <PUBCHEM_IUPAC_NAME_MARKUP>
3-hydroxy-10-(hydroxymethyl)-13-methyl-1,2,3,4,7,8,9,11,12,14,15,16-dodecahydrocyclopenta[a]phenanthren-17-one
> <PUBCHEM_IUPAC_NAME>
3-hydroxy-10-(hydroxymethyl)-13-methyl-1,2,3,4,7,8,9,11,12,14,15,16-dodecahydrocyclopenta[a]phenanthren-17-one
> <PUBCHEM_IUPAC_SYSTEMATIC_NAME>
10-(hydroxymethyl)-13-methyl-3-oxidanyl-1,2,3,4,7,8,9,11,12,14,15,16-dodecahydrocyclopenta[a]phenanthren-17-one
> <PUBCHEM_IUPAC_TRADITIONAL_NAME>
3-hydroxy-13-methyl-10-methylol-1,2,3,4,7,8,9,11,12,14,15,16-dodecahydrocyclopenta[a]phenanthren-17-one
> <PUBCHEM_IUPAC_INCHI>
InChI=1S/C19H28O3/c1-18-8-7-16-14(15(18)4-5-17(18)22)3-2-12-10-13(21)6-9-19(12,16)11-20/h2,13-16,20-21H,3-11H2,1H3
> <PUBCHEM_IUPAC_INCHIKEY>
SGYCSWPEAHDOHE-UHFFFAOYSA-N
> <PUBCHEM_XLOGP3>
2
> <PUBCHEM_EXACT_MASS>
304.20384475
> <PUBCHEM_MOLECULAR_FORMULA>
C19H28O3
> <PUBCHEM_MOLECULAR_WEIGHT>
304.4
> <PUBCHEM_OPENEYE_CAN_SMILES>
CC12CCC3C(C1CCC2=O)CC=C4C3(CCC(C4)O)CO
> <PUBCHEM_OPENEYE_ISO_SMILES>
CC12CCC3C(C1CCC2=O)CC=C4C3(CCC(C4)O)CO
> <PUBCHEM_CACTVS_TPSA>
57.5
> <PUBCHEM_MONOISOTOPIC_WEIGHT>
304.20384475
> <PUBCHEM_TOTAL_CHARGE>
0
> <PUBCHEM_HEAVY_ATOM_COUNT>
22
> <PUBCHEM_ATOM_DEF_STEREO_COUNT>
0
> <PUBCHEM_ATOM_UDEF_STEREO_COUNT>
6
> <PUBCHEM_BOND_DEF_STEREO_COUNT>
0
> <PUBCHEM_BOND_UDEF_STEREO_COUNT>
0
> <PUBCHEM_ISOTOPIC_ATOM_COUNT>
0
> <PUBCHEM_COMPONENT_COUNT>
1
> <PUBCHEM_CACTVS_TAUTO_COUNT>
-1
> <PUBCHEM_COORDINATE_TYPE>
1
5
255
> <PUBCHEM_BONDANNOTATIONS>
22  3  3
4  9  3
5  12  3
6  11  3
7  19  3
8  18  3
$$$$
