520351
  -OEChem-10302200292D
 44 43  0     1  0  0  0  0  0999 V2000
    3.7320   -1.7500    0.0000 S   0  0  0  0  0  0  0  0  0  0  0  0
    2.8660    0.7500    0.0000 Si  0  0  0  0  0  0  0  0  0  0  0  0
    7.1962    1.2500    0.0000 Si  0  0  0  0  0  0  0  0  0  0  0  0
    6.3301    0.7500    0.0000 O   0  0  0  0  0  0  0  0  0  0  0  0
    5.4641    2.2500    0.0000 O   0  0  0  0  0  0  0  0  0  0  0  0
    3.7320    1.2500    0.0000 N   0  0  0  0  0  0  0  0  0  0  0  0
    4.5981    0.7500    0.0000 C   0  0  3  0  0  0  0  0  0  0  0  0
    4.5981   -0.2500    0.0000 C   0  0  0  0  0  0  0  0  0  0  0  0
    2.0000    0.2500    0.0000 C   0  0  0  0  0  0  0  0  0  0  0  0
    2.3660    1.6160    0.0000 C   0  0  0  0  0  0  0  0  0  0  0  0
    3.3660   -0.1160    0.0000 C   0  0  0  0  0  0  0  0  0  0  0  0
    5.4641    1.2500    0.0000 C   0  0  0  0  0  0  0  0  0  0  0  0
    3.7320   -0.7500    0.0000 C   0  0  0  0  0  0  0  0  0  0  0  0
    8.0622    1.7500    0.0000 C   0  0  0  0  0  0  0  0  0  0  0  0
    7.6962    0.3840    0.0000 C   0  0  0  0  0  0  0  0  0  0  0  0
    6.6962    2.1160    0.0000 C   0  0  0  0  0  0  0  0  0  0  0  0
    2.8660   -2.2500    0.0000 C   0  0  0  0  0  0  0  0  0  0  0  0
    4.5981    1.3700    0.0000 H   0  0  0  0  0  0  0  0  0  0  0  0
    3.7320    1.8700    0.0000 H   0  0  0  0  0  0  0  0  0  0  0  0
    4.8101   -0.8326    0.0000 H   0  0  0  0  0  0  0  0  0  0  0  0
    5.2087   -0.1423    0.0000 H   0  0  0  0  0  0  0  0  0  0  0  0
    1.6900    0.7869    0.0000 H   0  0  0  0  0  0  0  0  0  0  0  0
    1.4631   -0.0600    0.0000 H   0  0  0  0  0  0  0  0  0  0  0  0
    2.3100   -0.2869    0.0000 H   0  0  0  0  0  0  0  0  0  0  0  0
    2.9030    1.9260    0.0000 H   0  0  0  0  0  0  0  0  0  0  0  0
    2.0560    2.1530    0.0000 H   0  0  0  0  0  0  0  0  0  0  0  0
    1.8291    1.3060    0.0000 H   0  0  0  0  0  0  0  0  0  0  0  0
    2.8291   -0.4260    0.0000 H   0  0  0  0  0  0  0  0  0  0  0  0
    3.6760   -0.6530    0.0000 H   0  0  0  0  0  0  0  0  0  0  0  0
    3.9030    0.1940    0.0000 H   0  0  0  0  0  0  0  0  0  0  0  0
    3.5200   -0.1674    0.0000 H   0  0  0  0  0  0  0  0  0  0  0  0
    3.1215   -0.8577    0.0000 H   0  0  0  0  0  0  0  0  0  0  0  0
    8.3722    1.2131    0.0000 H   0  0  0  0  0  0  0  0  0  0  0  0
    8.5991    2.0600    0.0000 H   0  0  0  0  0  0  0  0  0  0  0  0
    7.7522    2.2869    0.0000 H   0  0  0  0  0  0  0  0  0  0  0  0
    7.1592    0.0740    0.0000 H   0  0  0  0  0  0  0  0  0  0  0  0
    8.0062   -0.1530    0.0000 H   0  0  0  0  0  0  0  0  0  0  0  0
    8.2331    0.6940    0.0000 H   0  0  0  0  0  0  0  0  0  0  0  0
    7.2331    2.4260    0.0000 H   0  0  0  0  0  0  0  0  0  0  0  0
    6.3862    2.6530    0.0000 H   0  0  0  0  0  0  0  0  0  0  0  0
    6.1592    1.8060    0.0000 H   0  0  0  0  0  0  0  0  0  0  0  0
    2.5560   -1.7131    0.0000 H   0  0  0  0  0  0  0  0  0  0  0  0
    2.3291   -2.5600    0.0000 H   0  0  0  0  0  0  0  0  0  0  0  0
    3.1760   -2.7869    0.0000 H   0  0  0  0  0  0  0  0  0  0  0  0
  1 13  1  0  0  0  0
  1 17  1  0  0  0  0
  2  6  1  0  0  0  0
  2  9  1  0  0  0  0
  2 10  1  0  0  0  0
  2 11  1  0  0  0  0
  3  4  1  0  0  0  0
  3 14  1  0  0  0  0
  3 15  1  0  0  0  0
  3 16  1  0  0  0  0
  4 12  1  0  0  0  0
  5 12  2  0  0  0  0
  6  7  1  0  0  0  0
  6 19  1  0  0  0  0
  7  8  1  0  0  0  0
  7 12  1  0  0  0  0
  7 18  1  0  0  0  0
  8 13  1  0  0  0  0
  8 20  1  0  0  0  0
  8 21  1  0  0  0  0
  9 22  1  0  0  0  0
  9 23  1  0  0  0  0
  9 24  1  0  0  0  0
 10 25  1  0  0  0  0
 10 26  1  0  0  0  0
 10 27  1  0  0  0  0
 11 28  1  0  0  0  0
 11 29  1  0  0  0  0
 11 30  1  0  0  0  0
 13 31  1  0  0  0  0
 13 32  1  0  0  0  0
 14 33  1  0  0  0  0
 14 34  1  0  0  0  0
 14 35  1  0  0  0  0
 15 36  1  0  0  0  0
 15 37  1  0  0  0  0
 15 38  1  0  0  0  0
 16 39  1  0  0  0  0
 16 40  1  0  0  0  0
 16 41  1  0  0  0  0
 17 42  1  0  0  0  0
 17 43  1  0  0  0  0
 17 44  1  0  0  0  0
M  END
> <PUBCHEM_COMPOUND_CID>
520351
> <PUBCHEM_COMPOUND_CANONICALIZED>
1
> <PUBCHEM_CACTVS_COMPLEXITY>
249
> <PUBCHEM_CACTVS_HBOND_ACCEPTOR>
4
> <PUBCHEM_CACTVS_HBOND_DONOR>
1
> <PUBCHEM_CACTVS_ROTATABLE_BOND>
8
> <PUBCHEM_CACTVS_SUBSKEYS>
AAADceByMAxAAAAAAAAAAAAAAAAAAAAAAAAAAAAAAAAAAAAAAAAAHhQRAEAACCjFwATCCABAAAkIAACQCAAAAAAAABAAAIGAAAACABAgAAAAAAAEEAAAAAAAAAAAAAAAAAAAAAAAAAAAAAAAAAAAAAAAAA==
> <PUBCHEM_IUPAC_OPENEYE_NAME>
trimethylsilyl 4-methylsulfanyl-2-(trimethylsilylamino)butanoate
> <PUBCHEM_IUPAC_CAS_NAME>
4-(methylthio)-2-(trimethylsilylamino)butanoic acid trimethylsilyl ester
> <PUBCHEM_IUPAC_NAME_MARKUP>
trimethylsilyl 4-methylsulfanyl-2-(trimethylsilylamino)butanoate
> <PUBCHEM_IUPAC_NAME>
trimethylsilyl 4-methylsulfanyl-2-(trimethylsilylamino)butanoate
> <PUBCHEM_IUPAC_SYSTEMATIC_NAME>
trimethylsilyl 4-methylsulfanyl-2-(trimethylsilylamino)butanoate
> <PUBCHEM_IUPAC_TRADITIONAL_NAME>
4-(methylthio)-2-(trimethylsilylamino)butyric acid trimethylsilyl ester
> <PUBCHEM_IUPAC_INCHI>
InChI=1S/C11H27NO2SSi2/c1-15-9-8-10(12-16(2,3)4)11(13)14-17(5,6)7/h10,12H,8-9H2,1-7H3
> <PUBCHEM_IUPAC_INCHIKEY>
JATQZWJTOMUJCG-UHFFFAOYSA-N
> <PUBCHEM_EXACT_MASS>
293.13010335
> <PUBCHEM_MOLECULAR_FORMULA>
C11H27NO2SSi2
> <PUBCHEM_MOLECULAR_WEIGHT>
293.58
> <PUBCHEM_OPENEYE_CAN_SMILES>
C[Si](C)(C)NC(CCSC)C(=O)O[Si](C)(C)C
> <PUBCHEM_OPENEYE_ISO_SMILES>
C[Si](C)(C)NC(CCSC)C(=O)O[Si](C)(C)C
> <PUBCHEM_CACTVS_TPSA>
63.6
> <PUBCHEM_MONOISOTOPIC_WEIGHT>
293.13010335
> <PUBCHEM_TOTAL_CHARGE>
0
> <PUBCHEM_HEAVY_ATOM_COUNT>
17
> <PUBCHEM_ATOM_DEF_STEREO_COUNT>
0
> <PUBCHEM_ATOM_UDEF_STEREO_COUNT>
1
> <PUBCHEM_BOND_DEF_STEREO_COUNT>
0
> <PUBCHEM_BOND_UDEF_STEREO_COUNT>
0
> <PUBCHEM_ISOTOPIC_ATOM_COUNT>
0
> <PUBCHEM_COMPONENT_COUNT>
1
> <PUBCHEM_CACTVS_TAUTO_COUNT>
-1
> <PUBCHEM_COORDINATE_TYPE>
1
5
255
> <PUBCHEM_BONDANNOTATIONS>
7  8  3
$$$$
