520323
  -OEChem-10302200292D
 50 49  0     1  0  0  0  0  0999 V2000
    5.4641   -0.4330    0.0000 C   0  0  3  0  0  0  0  0  0  0  0  0
    6.3301    0.0670    0.0000 C   0  0  0  0  0  0  0  0  0  0  0  0
    4.5981   -0.9330    0.0000 C   0  0  0  0  0  0  0  0  0  0  0  0
    4.9641    0.4330    0.0000 C   0  0  0  0  0  0  0  0  0  0  0  0
    5.9641   -1.2990    0.0000 C   0  0  0  0  0  0  0  0  0  0  0  0
    7.1962   -0.4330    0.0000 C   0  0  0  0  0  0  0  0  0  0  0  0
    3.7320   -0.4330    0.0000 C   0  0  0  0  0  0  0  0  0  0  0  0
    5.4641    1.2990    0.0000 C   0  0  0  0  0  0  0  0  0  0  0  0
    8.0622    0.0670    0.0000 C   0  0  0  0  0  0  0  0  0  0  0  0
    5.4641   -2.1651    0.0000 C   0  0  0  0  0  0  0  0  0  0  0  0
    2.8660   -0.9330    0.0000 C   0  0  0  0  0  0  0  0  0  0  0  0
    8.9282   -0.4330    0.0000 C   0  0  0  0  0  0  0  0  0  0  0  0
    4.9641    2.1651    0.0000 C   0  0  0  0  0  0  0  0  0  0  0  0
    2.0000   -0.4330    0.0000 C   0  0  0  0  0  0  0  0  0  0  0  0
    9.7942    0.0670    0.0000 C   0  0  0  0  0  0  0  0  0  0  0  0
   10.6603   -0.4330    0.0000 C   0  0  0  0  0  0  0  0  0  0  0  0
    6.7287    0.5419    0.0000 H   0  0  0  0  0  0  0  0  0  0  0  0
    5.9316    0.5419    0.0000 H   0  0  0  0  0  0  0  0  0  0  0  0
    4.1996   -1.4080    0.0000 H   0  0  0  0  0  0  0  0  0  0  0  0
    4.9966   -1.4080    0.0000 H   0  0  0  0  0  0  0  0  0  0  0  0
    4.4892    0.8315    0.0000 H   0  0  0  0  0  0  0  0  0  0  0  0
    4.4892    0.0345    0.0000 H   0  0  0  0  0  0  0  0  0  0  0  0
    6.4390   -1.6976    0.0000 H   0  0  0  0  0  0  0  0  0  0  0  0
    6.4390   -0.9005    0.0000 H   0  0  0  0  0  0  0  0  0  0  0  0
    6.7976   -0.9080    0.0000 H   0  0  0  0  0  0  0  0  0  0  0  0
    7.5947   -0.9080    0.0000 H   0  0  0  0  0  0  0  0  0  0  0  0
    4.1306    0.0419    0.0000 H   0  0  0  0  0  0  0  0  0  0  0  0
    3.3335    0.0419    0.0000 H   0  0  0  0  0  0  0  0  0  0  0  0
    5.9390    0.9005    0.0000 H   0  0  0  0  0  0  0  0  0  0  0  0
    5.9390    1.6976    0.0000 H   0  0  0  0  0  0  0  0  0  0  0  0
    8.4607    0.5419    0.0000 H   0  0  0  0  0  0  0  0  0  0  0  0
    7.6636    0.5419    0.0000 H   0  0  0  0  0  0  0  0  0  0  0  0
    4.9272   -1.8551    0.0000 H   0  0  0  0  0  0  0  0  0  0  0  0
    5.1541   -2.7020    0.0000 H   0  0  0  0  0  0  0  0  0  0  0  0
    6.0010   -2.4751    0.0000 H   0  0  0  0  0  0  0  0  0  0  0  0
    2.4675   -1.4080    0.0000 H   0  0  0  0  0  0  0  0  0  0  0  0
    3.2646   -1.4080    0.0000 H   0  0  0  0  0  0  0  0  0  0  0  0
    8.5297   -0.9080    0.0000 H   0  0  0  0  0  0  0  0  0  0  0  0
    9.3267   -0.9080    0.0000 H   0  0  0  0  0  0  0  0  0  0  0  0
    5.5010    2.4751    0.0000 H   0  0  0  0  0  0  0  0  0  0  0  0
    4.6541    2.7020    0.0000 H   0  0  0  0  0  0  0  0  0  0  0  0
    4.4272    1.8551    0.0000 H   0  0  0  0  0  0  0  0  0  0  0  0
    2.3100    0.1039    0.0000 H   0  0  0  0  0  0  0  0  0  0  0  0
    1.4631   -0.1230    0.0000 H   0  0  0  0  0  0  0  0  0  0  0  0
    1.6900   -0.9699    0.0000 H   0  0  0  0  0  0  0  0  0  0  0  0
   10.1928    0.5419    0.0000 H   0  0  0  0  0  0  0  0  0  0  0  0
    9.3957    0.5419    0.0000 H   0  0  0  0  0  0  0  0  0  0  0  0
   10.3503   -0.9699    0.0000 H   0  0  0  0  0  0  0  0  0  0  0  0
   11.1972   -0.7430    0.0000 H   0  0  0  0  0  0  0  0  0  0  0  0
   10.9703    0.1039    0.0000 H   0  0  0  0  0  0  0  0  0  0  0  0
  1  2  1  0  0  0  0
  1  3  1  0  0  0  0
  1  4  1  0  0  0  0
  1  5  1  0  0  0  0
  2  6  1  0  0  0  0
  2 17  1  0  0  0  0
  2 18  1  0  0  0  0
  3  7  1  0  0  0  0
  3 19  1  0  0  0  0
  3 20  1  0  0  0  0
  4  8  1  0  0  0  0
  4 21  1  0  0  0  0
  4 22  1  0  0  0  0
  5 10  1  0  0  0  0
  5 23  1  0  0  0  0
  5 24  1  0  0  0  0
  6  9  1  0  0  0  0
  6 25  1  0  0  0  0
  6 26  1  0  0  0  0
  7 11  1  0  0  0  0
  7 27  1  0  0  0  0
  7 28  1  0  0  0  0
  8 13  1  0  0  0  0
  8 29  1  0  0  0  0
  8 30  1  0  0  0  0
  9 12  1  0  0  0  0
  9 31  1  0  0  0  0
  9 32  1  0  0  0  0
 10 33  1  0  0  0  0
 10 34  1  0  0  0  0
 10 35  1  0  0  0  0
 11 14  1  0  0  0  0
 11 36  1  0  0  0  0
 11 37  1  0  0  0  0
 12 15  1  0  0  0  0
 12 38  1  0  0  0  0
 12 39  1  0  0  0  0
 13 40  1  0  0  0  0
 13 41  1  0  0  0  0
 13 42  1  0  0  0  0
 14 43  1  0  0  0  0
 14 44  1  0  0  0  0
 14 45  1  0  0  0  0
 15 16  1  0  0  0  0
 15 46  1  0  0  0  0
 15 47  1  0  0  0  0
 16 48  1  0  0  0  0
 16 49  1  0  0  0  0
 16 50  1  0  0  0  0
M  END
> <PUBCHEM_COMPOUND_CID>
520323
> <PUBCHEM_COMPOUND_CANONICALIZED>
1
> <PUBCHEM_CACTVS_COMPLEXITY>
139
> <PUBCHEM_CACTVS_HBOND_ACCEPTOR>
0
> <PUBCHEM_CACTVS_HBOND_DONOR>
0
> <PUBCHEM_CACTVS_ROTATABLE_BOND>
11
> <PUBCHEM_CACTVS_SUBSKEYS>
AAADcfB4AAAAAAAAAAAAAAAAAAAAAAAAAAAAAAAAAAAAAAAAAAAAGAAAAAAADgCAAAACAAAAAAAAAAAAAAAAAAAAAAAAAAAAAAAAAAIAAAAAAAAAAAAAAAEAgMAPAAAAAAAAAAAAAAAAAAAAAAAAAAAAAA==
> <PUBCHEM_IUPAC_OPENEYE_NAME>
5-ethyl-5-propyl-undecane
> <PUBCHEM_IUPAC_CAS_NAME>
5-ethyl-5-propylundecane
> <PUBCHEM_IUPAC_NAME_MARKUP>
5-ethyl-5-propylundecane
> <PUBCHEM_IUPAC_NAME>
5-ethyl-5-propylundecane
> <PUBCHEM_IUPAC_SYSTEMATIC_NAME>
5-ethyl-5-propyl-undecane
> <PUBCHEM_IUPAC_TRADITIONAL_NAME>
5-ethyl-5-propyl-undecane
> <PUBCHEM_IUPAC_INCHI>
InChI=1S/C16H34/c1-5-9-11-12-15-16(8-4,13-7-3)14-10-6-2/h5-15H2,1-4H3
> <PUBCHEM_IUPAC_INCHIKEY>
MEBZNFSYULDMSV-UHFFFAOYSA-N
> <PUBCHEM_XLOGP3_AA>
8.4
> <PUBCHEM_EXACT_MASS>
226.266051085
> <PUBCHEM_MOLECULAR_FORMULA>
C16H34
> <PUBCHEM_MOLECULAR_WEIGHT>
226.44
> <PUBCHEM_OPENEYE_CAN_SMILES>
CCCCCCC(CC)(CCC)CCCC
> <PUBCHEM_OPENEYE_ISO_SMILES>
CCCCCCC(CC)(CCC)CCCC
> <PUBCHEM_CACTVS_TPSA>
0
> <PUBCHEM_MONOISOTOPIC_WEIGHT>
226.266051085
> <PUBCHEM_TOTAL_CHARGE>
0
> <PUBCHEM_HEAVY_ATOM_COUNT>
16
> <PUBCHEM_ATOM_DEF_STEREO_COUNT>
0
> <PUBCHEM_ATOM_UDEF_STEREO_COUNT>
1
> <PUBCHEM_BOND_DEF_STEREO_COUNT>
0
> <PUBCHEM_BOND_UDEF_STEREO_COUNT>
0
> <PUBCHEM_ISOTOPIC_ATOM_COUNT>
0
> <PUBCHEM_COMPONENT_COUNT>
1
> <PUBCHEM_CACTVS_TAUTO_COUNT>
-1
> <PUBCHEM_COORDINATE_TYPE>
1
5
255
> <PUBCHEM_BONDANNOTATIONS>
1  5  3
$$$$
