520311
  -OEChem-10302200292D
 42 45  0     1  0  0  0  0  0999 V2000
    6.3981    0.2500    0.0000 C   0  0  3  0  0  0  0  0  0  0  0  0
    5.5321   -0.2500    0.0000 C   0  0  3  0  0  0  0  0  0  0  0  0
    6.3981    1.2500    0.0000 C   0  0  0  0  0  0  0  0  0  0  0  0
    5.5321   -1.2500    0.0000 C   0  0  0  0  0  0  0  0  0  0  0  0
    7.2641   -0.2500    0.0000 C   0  0  0  0  0  0  0  0  0  0  0  0
    4.6660    0.2500    0.0000 C   0  0  0  0  0  0  0  0  0  0  0  0
    7.2641    1.7500    0.0000 C   0  0  0  0  0  0  0  0  0  0  0  0
    4.6660   -1.7500    0.0000 C   0  0  0  0  0  0  0  0  0  0  0  0
    8.1301    0.2500    0.0000 C   0  0  0  0  0  0  0  0  0  0  0  0
    3.8000   -0.2500    0.0000 C   0  0  0  0  0  0  0  0  0  0  0  0
    8.1301    1.2500    0.0000 C   0  0  0  0  0  0  0  0  0  0  0  0
    3.8000   -1.2500    0.0000 C   0  0  0  0  0  0  0  0  0  0  0  0
    9.0241   -0.2847    0.0000 C   0  0  0  0  0  0  0  0  0  0  0  0
    2.9061    0.2847    0.0000 C   0  0  0  0  0  0  0  0  0  0  0  0
    9.0241    1.7847    0.0000 C   0  0  0  0  0  0  0  0  0  0  0  0
    2.9061   -1.7847    0.0000 C   0  0  0  0  0  0  0  0  0  0  0  0
    9.9301    0.2292    0.0000 C   0  0  0  0  0  0  0  0  0  0  0  0
    2.0000   -0.2292    0.0000 C   0  0  0  0  0  0  0  0  0  0  0  0
    9.9301    1.2708    0.0000 C   0  0  0  0  0  0  0  0  0  0  0  0
    2.0000   -1.2708    0.0000 C   0  0  0  0  0  0  0  0  0  0  0  0
    6.3981   -0.3700    0.0000 H   0  0  0  0  0  0  0  0  0  0  0  0
    5.5321    0.3700    0.0000 H   0  0  0  0  0  0  0  0  0  0  0  0
    6.1860    1.8326    0.0000 H   0  0  0  0  0  0  0  0  0  0  0  0
    5.7875    1.1423    0.0000 H   0  0  0  0  0  0  0  0  0  0  0  0
    5.7441   -1.8326    0.0000 H   0  0  0  0  0  0  0  0  0  0  0  0
    6.1426   -1.1423    0.0000 H   0  0  0  0  0  0  0  0  0  0  0  0
    6.8656   -0.7249    0.0000 H   0  0  0  0  0  0  0  0  0  0  0  0
    7.6626   -0.7249    0.0000 H   0  0  0  0  0  0  0  0  0  0  0  0
    5.0646    0.7249    0.0000 H   0  0  0  0  0  0  0  0  0  0  0  0
    4.2675    0.7249    0.0000 H   0  0  0  0  0  0  0  0  0  0  0  0
    7.6626    2.2250    0.0000 H   0  0  0  0  0  0  0  0  0  0  0  0
    6.8656    2.2250    0.0000 H   0  0  0  0  0  0  0  0  0  0  0  0
    4.2675   -2.2250    0.0000 H   0  0  0  0  0  0  0  0  0  0  0  0
    5.0646   -2.2250    0.0000 H   0  0  0  0  0  0  0  0  0  0  0  0
    9.0169   -0.9046    0.0000 H   0  0  0  0  0  0  0  0  0  0  0  0
    2.9132    0.9046    0.0000 H   0  0  0  0  0  0  0  0  0  0  0  0
    9.0169    2.4046    0.0000 H   0  0  0  0  0  0  0  0  0  0  0  0
    2.9132   -2.4046    0.0000 H   0  0  0  0  0  0  0  0  0  0  0  0
   10.4659   -0.0829    0.0000 H   0  0  0  0  0  0  0  0  0  0  0  0
    1.4643    0.0829    0.0000 H   0  0  0  0  0  0  0  0  0  0  0  0
   10.4659    1.5829    0.0000 H   0  0  0  0  0  0  0  0  0  0  0  0
    1.4643   -1.5829    0.0000 H   0  0  0  0  0  0  0  0  0  0  0  0
  1  2  1  0  0  0  0
  1  3  1  0  0  0  0
  1  5  1  0  0  0  0
  1 21  1  0  0  0  0
  2  4  1  0  0  0  0
  2  6  1  0  0  0  0
  2 22  1  0  0  0  0
  3  7  1  0  0  0  0
  3 23  1  0  0  0  0
  3 24  1  0  0  0  0
  4  8  1  0  0  0  0
  4 25  1  0  0  0  0
  4 26  1  0  0  0  0
  5  9  1  0  0  0  0
  5 27  1  0  0  0  0
  5 28  1  0  0  0  0
  6 10  1  0  0  0  0
  6 29  1  0  0  0  0
  6 30  1  0  0  0  0
  7 11  1  0  0  0  0
  7 31  1  0  0  0  0
  7 32  1  0  0  0  0
  8 12  1  0  0  0  0
  8 33  1  0  0  0  0
  8 34  1  0  0  0  0
  9 11  1  0  0  0  0
  9 13  2  0  0  0  0
 10 12  1  0  0  0  0
 10 14  2  0  0  0  0
 11 15  2  0  0  0  0
 12 16  2  0  0  0  0
 13 17  1  0  0  0  0
 13 35  1  0  0  0  0
 14 18  1  0  0  0  0
 14 36  1  0  0  0  0
 15 19  1  0  0  0  0
 15 37  1  0  0  0  0
 16 20  1  0  0  0  0
 16 38  1  0  0  0  0
 17 19  2  0  0  0  0
 17 39  1  0  0  0  0
 18 20  2  0  0  0  0
 18 40  1  0  0  0  0
 19 41  1  0  0  0  0
 20 42  1  0  0  0  0
M  END
> <PUBCHEM_COMPOUND_CID>
520311
> <PUBCHEM_COMPOUND_CANONICALIZED>
1
> <PUBCHEM_CACTVS_COMPLEXITY>
288
> <PUBCHEM_CACTVS_HBOND_ACCEPTOR>
0
> <PUBCHEM_CACTVS_HBOND_DONOR>
0
> <PUBCHEM_CACTVS_ROTATABLE_BOND>
1
> <PUBCHEM_CACTVS_SUBSKEYS>
AAADceB4AAAAAAAAAAAAAAAAAAAAAAAAAAAwYMGAAAAAAADBQAAAGAAAAAAADQCAGAAwAIAAAACAAiBCAAACAAAgAAAIiAAAAIgIICKAERCAIAAggAAIiAcAgMAOgAAAAAAQAACAAAQAACAAAAAAAAAAAA==
> <PUBCHEM_IUPAC_OPENEYE_NAME>
2-tetralin-2-yltetralin
> <PUBCHEM_IUPAC_CAS_NAME>
2-(1,2,3,4-tetrahydronaphthalen-2-yl)-1,2,3,4-tetrahydronaphthalene
> <PUBCHEM_IUPAC_NAME_MARKUP>
2-(1,2,3,4-tetrahydronaphthalen-2-yl)-1,2,3,4-tetrahydronaphthalene
> <PUBCHEM_IUPAC_NAME>
2-(1,2,3,4-tetrahydronaphthalen-2-yl)-1,2,3,4-tetrahydronaphthalene
> <PUBCHEM_IUPAC_SYSTEMATIC_NAME>
2-(1,2,3,4-tetrahydronaphthalen-2-yl)-1,2,3,4-tetrahydronaphthalene
> <PUBCHEM_IUPAC_TRADITIONAL_NAME>
2-tetralin-2-yltetralin
> <PUBCHEM_IUPAC_INCHI>
InChI=1S/C20H22/c1-3-7-17-13-19(11-9-15(17)5-1)20-12-10-16-6-2-4-8-18(16)14-20/h1-8,19-20H,9-14H2
> <PUBCHEM_IUPAC_INCHIKEY>
BXELUHKITUQVQG-UHFFFAOYSA-N
> <PUBCHEM_XLOGP3_AA>
5.8
> <PUBCHEM_EXACT_MASS>
262.172150702
> <PUBCHEM_MOLECULAR_FORMULA>
C20H22
> <PUBCHEM_MOLECULAR_WEIGHT>
262.4
> <PUBCHEM_OPENEYE_CAN_SMILES>
C1CC2=CC=CC=C2CC1C3CCC4=CC=CC=C4C3
> <PUBCHEM_OPENEYE_ISO_SMILES>
C1CC2=CC=CC=C2CC1C3CCC4=CC=CC=C4C3
> <PUBCHEM_CACTVS_TPSA>
0
> <PUBCHEM_MONOISOTOPIC_WEIGHT>
262.172150702
> <PUBCHEM_TOTAL_CHARGE>
0
> <PUBCHEM_HEAVY_ATOM_COUNT>
20
> <PUBCHEM_ATOM_DEF_STEREO_COUNT>
0
> <PUBCHEM_ATOM_UDEF_STEREO_COUNT>
2
> <PUBCHEM_BOND_DEF_STEREO_COUNT>
0
> <PUBCHEM_BOND_UDEF_STEREO_COUNT>
0
> <PUBCHEM_ISOTOPIC_ATOM_COUNT>
0
> <PUBCHEM_COMPONENT_COUNT>
1
> <PUBCHEM_CACTVS_TAUTO_COUNT>
-1
> <PUBCHEM_COORDINATE_TYPE>
1
5
255
> <PUBCHEM_BONDANNOTATIONS>
1  3  3
10  12  8
10  14  8
11  15  8
12  16  8
13  17  8
14  18  8
15  19  8
16  20  8
17  19  8
18  20  8
2  4  3
9  11  8
9  13  8
$$$$
