520386
  -OEChem-10302200292D
 26 27  0     1  0  0  0  0  0999 V2000
    4.6660   -1.0670    0.0000 S   0  0  0  0  0  0  0  0  0  0  0  0
    5.1660   -1.9330    0.0000 O   0  0  0  0  0  0  0  0  0  0  0  0
    4.1660   -1.9330    0.0000 O   0  0  0  0  0  0  0  0  0  0  0  0
    4.6660    1.9330    0.0000 O   0  0  0  0  0  0  0  0  0  0  0  0
    5.5321    0.4330    0.0000 N   0  0  0  0  0  0  0  0  0  0  0  0
    5.5321   -0.5670    0.0000 C   0  0  3  0  0  0  0  0  0  0  0  0
    6.3981   -1.0670    0.0000 C   0  0  0  0  0  0  0  0  0  0  0  0
    3.8000   -0.5670    0.0000 C   0  0  0  0  0  0  0  0  0  0  0  0
    3.8000    0.4330    0.0000 C   0  0  0  0  0  0  0  0  0  0  0  0
    4.6660    0.9330    0.0000 C   0  0  0  0  0  0  0  0  0  0  0  0
    7.2641   -0.5670    0.0000 C   0  0  0  0  0  0  0  0  0  0  0  0
    2.9061   -1.1016    0.0000 C   0  0  0  0  0  0  0  0  0  0  0  0
    2.9061    0.9677    0.0000 C   0  0  0  0  0  0  0  0  0  0  0  0
    2.0000   -0.5878    0.0000 C   0  0  0  0  0  0  0  0  0  0  0  0
    2.0000    0.4538    0.0000 C   0  0  0  0  0  0  0  0  0  0  0  0
    5.5321   -1.1870    0.0000 H   0  0  0  0  0  0  0  0  0  0  0  0
    5.9996   -1.5419    0.0000 H   0  0  0  0  0  0  0  0  0  0  0  0
    6.7966   -1.5419    0.0000 H   0  0  0  0  0  0  0  0  0  0  0  0
    6.0690    0.7430    0.0000 H   0  0  0  0  0  0  0  0  0  0  0  0
    7.5741   -1.1039    0.0000 H   0  0  0  0  0  0  0  0  0  0  0  0
    7.8010   -0.2570    0.0000 H   0  0  0  0  0  0  0  0  0  0  0  0
    6.9541   -0.0301    0.0000 H   0  0  0  0  0  0  0  0  0  0  0  0
    2.9132   -1.7216    0.0000 H   0  0  0  0  0  0  0  0  0  0  0  0
    2.9132    1.5876    0.0000 H   0  0  0  0  0  0  0  0  0  0  0  0
    1.4643   -0.8999    0.0000 H   0  0  0  0  0  0  0  0  0  0  0  0
    1.4643    0.7659    0.0000 H   0  0  0  0  0  0  0  0  0  0  0  0
  1  2  2  0  0  0  0
  1  3  2  0  0  0  0
  1  6  1  0  0  0  0
  1  8  1  0  0  0  0
  4 10  2  0  0  0  0
  5  6  1  0  0  0  0
  5 10  1  0  0  0  0
  5 19  1  0  0  0  0
  6  7  1  0  0  0  0
  6 16  1  0  0  0  0
  7 11  1  0  0  0  0
  7 17  1  0  0  0  0
  7 18  1  0  0  0  0
  8  9  1  0  0  0  0
  8 12  2  0  0  0  0
  9 10  1  0  0  0  0
  9 13  2  0  0  0  0
 11 20  1  0  0  0  0
 11 21  1  0  0  0  0
 11 22  1  0  0  0  0
 12 14  1  0  0  0  0
 12 23  1  0  0  0  0
 13 15  1  0  0  0  0
 13 24  1  0  0  0  0
 14 15  2  0  0  0  0
 14 25  1  0  0  0  0
 15 26  1  0  0  0  0
M  END
> <PUBCHEM_COMPOUND_CID>
520386
> <PUBCHEM_COMPOUND_CANONICALIZED>
1
> <PUBCHEM_CACTVS_COMPLEXITY>
357
> <PUBCHEM_CACTVS_HBOND_ACCEPTOR>
3
> <PUBCHEM_CACTVS_HBOND_DONOR>
1
> <PUBCHEM_CACTVS_ROTATABLE_BOND>
1
> <PUBCHEM_CACTVS_SUBSKEYS>
AAADccByMABAAAAAAAAAAAAAAAAAAAAAAAA8QAAAAAAAAACxAAAAHgQQAAAADADF2ASyAYLAAAqIAiFSEHDKAABkCBAIiJkIBMgIIDKglRGEIQhglgCoiYcYiACOAAAAAAAEAAAAAAAAAAgAAAAAAAAAAA==
> <PUBCHEM_IUPAC_OPENEYE_NAME>
2-ethyl-1,1-dioxo-2,3-dihydro-1lambda6,3-benzothiazin-4-one
> <PUBCHEM_IUPAC_CAS_NAME>
2-ethyl-1,1-dioxo-2,3-dihydro-1lambda6,3-benzothiazin-4-one
> <PUBCHEM_IUPAC_NAME_MARKUP>
2-ethyl-1,1-dioxo-2,3-dihydro-1&lambda;<SUP>6</SUP>,3-benzothiazin-4-one
> <PUBCHEM_IUPAC_NAME>
2-ethyl-1,1-dioxo-2,3-dihydro-1lambda6,3-benzothiazin-4-one
> <PUBCHEM_IUPAC_SYSTEMATIC_NAME>
2-ethyl-1,1-bis(oxidanylidene)-2,3-dihydro-1lambda6,3-benzothiazin-4-one
> <PUBCHEM_IUPAC_TRADITIONAL_NAME>
2-ethyl-1,1-diketo-2,3-dihydro-1lambda6,3-benzothiazin-4-one
> <PUBCHEM_IUPAC_INCHI>
InChI=1S/C10H11NO3S/c1-2-9-11-10(12)7-5-3-4-6-8(7)15(9,13)14/h3-6,9H,2H2,1H3,(H,11,12)
> <PUBCHEM_IUPAC_INCHIKEY>
OZYXVMOOZZYTNT-UHFFFAOYSA-N
> <PUBCHEM_XLOGP3_AA>
1.3
> <PUBCHEM_EXACT_MASS>
225.04596439
> <PUBCHEM_MOLECULAR_FORMULA>
C10H11NO3S
> <PUBCHEM_MOLECULAR_WEIGHT>
225.27
> <PUBCHEM_OPENEYE_CAN_SMILES>
CCC1NC(=O)C2=CC=CC=C2S1(=O)=O
> <PUBCHEM_OPENEYE_ISO_SMILES>
CCC1NC(=O)C2=CC=CC=C2S1(=O)=O
> <PUBCHEM_CACTVS_TPSA>
71.6
> <PUBCHEM_MONOISOTOPIC_WEIGHT>
225.04596439
> <PUBCHEM_TOTAL_CHARGE>
0
> <PUBCHEM_HEAVY_ATOM_COUNT>
15
> <PUBCHEM_ATOM_DEF_STEREO_COUNT>
0
> <PUBCHEM_ATOM_UDEF_STEREO_COUNT>
1
> <PUBCHEM_BOND_DEF_STEREO_COUNT>
0
> <PUBCHEM_BOND_UDEF_STEREO_COUNT>
0
> <PUBCHEM_ISOTOPIC_ATOM_COUNT>
0
> <PUBCHEM_COMPONENT_COUNT>
1
> <PUBCHEM_CACTVS_TAUTO_COUNT>
-1
> <PUBCHEM_COORDINATE_TYPE>
1
5
255
> <PUBCHEM_BONDANNOTATIONS>
12  14  8
13  15  8
14  15  8
6  7  3
8  12  8
8  9  8
9  13  8
$$$$
