520471
  -OEChem-10302200292D
 47 50  0     1  0  0  0  0  0999 V2000
    9.6851    1.8120    0.0000 O   0  0  0  0  0  0  0  0  0  0  0  0
    2.5357   -2.1314    0.0000 O   0  0  0  0  0  0  0  0  0  0  0  0
    7.9288    0.9209    0.0000 C   0  0  3  0  0  0  0  0  0  0  0  0
    7.9288   -0.0791    0.0000 C   0  0  3  0  0  0  0  0  0  0  0  0
    7.0628   -0.5791    0.0000 C   0  0  3  0  0  0  0  0  0  0  0  0
    8.8750    1.2257    0.0000 C   0  0  3  0  0  0  0  0  0  0  0  0
    6.1968   -0.0791    0.0000 C   0  0  3  0  0  0  0  0  0  0  0  0
    8.8750   -0.3838    0.0000 C   0  0  0  0  0  0  0  0  0  0  0  0
    7.0628    1.4209    0.0000 C   0  0  0  0  0  0  0  0  0  0  0  0
    9.4586    0.4209    0.0000 C   0  0  0  0  0  0  0  0  0  0  0  0
    6.1968    0.9209    0.0000 C   0  0  0  0  0  0  0  0  0  0  0  0
    7.0789   -1.6206    0.0000 C   0  0  0  0  0  0  0  0  0  0  0  0
    7.9288    1.9209    0.0000 C   0  0  0  0  0  0  0  0  0  0  0  0
    5.2868   -0.5859    0.0000 C   0  0  0  0  0  0  0  0  0  0  0  0
    8.5677    2.1772    0.0000 C   0  0  0  0  0  0  0  0  0  0  0  0
    6.1808   -2.1483    0.0000 C   0  0  0  0  0  0  0  0  0  0  0  0
    5.2787   -1.6275    0.0000 C   0  0  0  0  0  0  0  0  0  0  0  0
    4.3599   -0.0218    0.0000 C   0  0  0  0  0  0  0  0  0  0  0  0
    4.3433   -2.1772    0.0000 C   0  0  0  0  0  0  0  0  0  0  0  0
    3.4120   -0.5498    0.0000 C   0  0  0  0  0  0  0  0  0  0  0  0
    3.4037   -1.6348    0.0000 C   0  0  0  0  0  0  0  0  0  0  0  0
    7.9944   -0.6956    0.0000 H   0  0  0  0  0  0  0  0  0  0  0  0
    7.6021   -0.8849    0.0000 H   0  0  0  0  0  0  0  0  0  0  0  0
    6.7337    0.2309    0.0000 H   0  0  0  0  0  0  0  0  0  0  0  0
    7.4613    1.8959    0.0000 H   0  0  0  0  0  0  0  0  0  0  0  0
    6.6643    1.8959    0.0000 H   0  0  0  0  0  0  0  0  0  0  0  0
    8.6240   -0.9507    0.0000 H   0  0  0  0  0  0  0  0  0  0  0  0
    9.4124   -0.6930    0.0000 H   0  0  0  0  0  0  0  0  0  0  0  0
    9.9195    0.0062    0.0000 H   0  0  0  0  0  0  0  0  0  0  0  0
    9.9195    0.8357    0.0000 H   0  0  0  0  0  0  0  0  0  0  0  0
    5.9847    1.5035    0.0000 H   0  0  0  0  0  0  0  0  0  0  0  0
    5.5862    0.8133    0.0000 H   0  0  0  0  0  0  0  0  0  0  0  0
    7.2969   -2.2010    0.0000 H   0  0  0  0  0  0  0  0  0  0  0  0
    7.6880   -1.5051    0.0000 H   0  0  0  0  0  0  0  0  0  0  0  0
    8.5488    1.9209    0.0000 H   0  0  0  0  0  0  0  0  0  0  0  0
    7.9288    2.5409    0.0000 H   0  0  0  0  0  0  0  0  0  0  0  0
    7.3088    1.9209    0.0000 H   0  0  0  0  0  0  0  0  0  0  0  0
    9.1577    2.3678    0.0000 H   0  0  0  0  0  0  0  0  0  0  0  0
    8.3771    2.7672    0.0000 H   0  0  0  0  0  0  0  0  0  0  0  0
    7.9777    1.9867    0.0000 H   0  0  0  0  0  0  0  0  0  0  0  0
    5.7835   -2.6243    0.0000 H   0  0  0  0  0  0  0  0  0  0  0  0
    6.5818   -2.6212    0.0000 H   0  0  0  0  0  0  0  0  0  0  0  0
   10.2510    1.5589    0.0000 H   0  0  0  0  0  0  0  0  0  0  0  0
    4.3719    0.5980    0.0000 H   0  0  0  0  0  0  0  0  0  0  0  0
    4.3457   -2.7972    0.0000 H   0  0  0  0  0  0  0  0  0  0  0  0
    2.8787   -0.2336    0.0000 H   0  0  0  0  0  0  0  0  0  0  0  0
    2.0000   -1.8193    0.0000 H   0  0  0  0  0  0  0  0  0  0  0  0
  1  6  1  0  0  0  0
  1 43  1  0  0  0  0
  2 21  1  0  0  0  0
  2 47  1  0  0  0  0
  3  4  1  0  0  0  0
  3  6  1  0  0  0  0
  3  9  1  0  0  0  0
  3 13  1  0  0  0  0
  4  5  1  0  0  0  0
  4  8  1  0  0  0  0
  4 22  1  0  0  0  0
  5  7  1  0  0  0  0
  5 12  1  0  0  0  0
  5 23  1  0  0  0  0
  6 10  1  0  0  0  0
  6 15  1  0  0  0  0
  7 11  1  0  0  0  0
  7 14  1  0  0  0  0
  7 24  1  0  0  0  0
  8 10  1  0  0  0  0
  8 27  1  0  0  0  0
  8 28  1  0  0  0  0
  9 11  1  0  0  0  0
  9 25  1  0  0  0  0
  9 26  1  0  0  0  0
 10 29  1  0  0  0  0
 10 30  1  0  0  0  0
 11 31  1  0  0  0  0
 11 32  1  0  0  0  0
 12 16  1  0  0  0  0
 12 33  1  0  0  0  0
 12 34  1  0  0  0  0
 13 35  1  0  0  0  0
 13 36  1  0  0  0  0
 13 37  1  0  0  0  0
 14 17  2  0  0  0  0
 14 18  1  0  0  0  0
 15 38  1  0  0  0  0
 15 39  1  0  0  0  0
 15 40  1  0  0  0  0
 16 17  1  0  0  0  0
 16 41  1  0  0  0  0
 16 42  1  0  0  0  0
 17 19  1  0  0  0  0
 18 20  2  0  0  0  0
 18 44  1  0  0  0  0
 19 21  2  0  0  0  0
 19 45  1  0  0  0  0
 20 21  1  0  0  0  0
 20 46  1  0  0  0  0
M  END
> <PUBCHEM_COMPOUND_CID>
520471
> <PUBCHEM_COMPOUND_CANONICALIZED>
1
> <PUBCHEM_CACTVS_COMPLEXITY>
422
> <PUBCHEM_CACTVS_HBOND_ACCEPTOR>
2
> <PUBCHEM_CACTVS_HBOND_DONOR>
2
> <PUBCHEM_CACTVS_ROTATABLE_BOND>
0
> <PUBCHEM_CACTVS_SUBSKEYS>
AAADceB4MAAAAAAAAAAAAAAAAAAAAYAAAAAwYMAAAAAAAGDBAAAAGgAACAAAD0SAmAAyBoAAAgCAAiBCAAACAAAgIAAIiAAGCIgIJiKCERKAcAAkwBEImAeAwPAPoAABAAAQAADAAAYAACAAAYAADAAAAA==
> <PUBCHEM_IUPAC_OPENEYE_NAME>
13,17-dimethyl-7,8,9,11,12,14,15,16-octahydro-6H-cyclopenta[a]phenanthrene-3,17-diol
> <PUBCHEM_IUPAC_CAS_NAME>
13,17-dimethyl-7,8,9,11,12,14,15,16-octahydro-6H-cyclopenta[a]phenanthrene-3,17-diol
> <PUBCHEM_IUPAC_NAME_MARKUP>
13,17-dimethyl-7,8,9,11,12,14,15,16-octahydro-6<I>H</I>-cyclopenta[a]phenanthrene-3,17-diol
> <PUBCHEM_IUPAC_NAME>
13,17-dimethyl-7,8,9,11,12,14,15,16-octahydro-6H-cyclopenta[a]phenanthrene-3,17-diol
> <PUBCHEM_IUPAC_SYSTEMATIC_NAME>
13,17-dimethyl-7,8,9,11,12,14,15,16-octahydro-6H-cyclopenta[a]phenanthrene-3,17-diol
> <PUBCHEM_IUPAC_TRADITIONAL_NAME>
13,17-dimethyl-7,8,9,11,12,14,15,16-octahydro-6H-cyclopenta[a]phenanthrene-3,17-diol
> <PUBCHEM_IUPAC_INCHI>
InChI=1S/C19H26O2/c1-18-9-7-15-14-6-4-13(20)11-12(14)3-5-16(15)17(18)8-10-19(18,2)21/h4,6,11,15-17,20-21H,3,5,7-10H2,1-2H3
> <PUBCHEM_IUPAC_INCHIKEY>
JXQJDYXWHSVOEF-UHFFFAOYSA-N
> <PUBCHEM_XLOGP3>
4.2
> <PUBCHEM_EXACT_MASS>
286.193280068
> <PUBCHEM_MOLECULAR_FORMULA>
C19H26O2
> <PUBCHEM_MOLECULAR_WEIGHT>
286.4
> <PUBCHEM_OPENEYE_CAN_SMILES>
CC12CCC3C(C1CCC2(C)O)CCC4=C3C=CC(=C4)O
> <PUBCHEM_OPENEYE_ISO_SMILES>
CC12CCC3C(C1CCC2(C)O)CCC4=C3C=CC(=C4)O
> <PUBCHEM_CACTVS_TPSA>
40.5
> <PUBCHEM_MONOISOTOPIC_WEIGHT>
286.193280068
> <PUBCHEM_TOTAL_CHARGE>
0
> <PUBCHEM_HEAVY_ATOM_COUNT>
21
> <PUBCHEM_ATOM_DEF_STEREO_COUNT>
0
> <PUBCHEM_ATOM_UDEF_STEREO_COUNT>
5
> <PUBCHEM_BOND_DEF_STEREO_COUNT>
0
> <PUBCHEM_BOND_UDEF_STEREO_COUNT>
0
> <PUBCHEM_ISOTOPIC_ATOM_COUNT>
0
> <PUBCHEM_COMPONENT_COUNT>
1
> <PUBCHEM_CACTVS_TAUTO_COUNT>
-1
> <PUBCHEM_COORDINATE_TYPE>
1
5
255
> <PUBCHEM_BONDANNOTATIONS>
6  1  3
14  17  8
14  18  8
17  19  8
18  20  8
19  21  8
20  21  8
3  13  3
4  8  3
5  12  3
7  11  3
$$$$
