520486
  -OEChem-10302200292D
 61 62  0     1  0  0  0  0  0999 V2000
    4.5981   -0.7359    0.0000 O   0  0  0  0  0  0  0  0  0  0  0  0
    6.5677    0.9168    0.0000 O   0  0  0  0  0  0  0  0  0  0  0  0
    2.0000    0.7641    0.0000 O   0  0  0  0  0  0  0  0  0  0  0  0
    3.9140    3.1435    0.0000 O   0  0  0  0  0  0  0  0  0  0  0  0
    2.8660   -0.7359    0.0000 N   0  0  0  0  0  0  0  0  0  0  0  0
    6.8685    2.6226    0.0000 N   0  0  0  0  0  0  0  0  0  0  0  0
    2.8660   -1.7359    0.0000 C   0  0  0  0  0  0  0  0  0  0  0  0
    7.8533    2.4489    0.0000 C   0  0  0  0  0  0  0  0  0  0  0  0
    2.0000   -2.2359    0.0000 C   0  0  0  0  0  0  0  0  0  0  0  0
    3.7320   -2.2359    0.0000 C   0  0  0  0  0  0  0  0  0  0  0  0
    8.1953    1.5092    0.0000 C   0  0  0  0  0  0  0  0  0  0  0  0
    8.4960    3.2150    0.0000 C   0  0  0  0  0  0  0  0  0  0  0  0
    2.0000   -3.2359    0.0000 C   0  0  0  0  0  0  0  0  0  0  0  0
    3.7320   -3.2359    0.0000 C   0  0  0  0  0  0  0  0  0  0  0  0
    9.1801    1.3356    0.0000 C   0  0  0  0  0  0  0  0  0  0  0  0
    9.4809    3.0413    0.0000 C   0  0  0  0  0  0  0  0  0  0  0  0
    2.8660   -3.7359    0.0000 C   0  0  0  0  0  0  0  0  0  0  0  0
    9.8229    2.1016    0.0000 C   0  0  0  0  0  0  0  0  0  0  0  0
    3.7320    0.7641    0.0000 C   0  0  3  0  0  0  0  0  0  0  0  0
    5.2409    2.0302    0.0000 C   0  0  3  0  0  0  0  0  0  0  0  0
    4.5981    1.2641    0.0000 C   0  0  0  0  0  0  0  0  0  0  0  0
    3.7320   -0.2359    0.0000 C   0  0  0  0  0  0  0  0  0  0  0  0
    6.2257    1.8565    0.0000 C   0  0  0  0  0  0  0  0  0  0  0  0
    2.8660    1.2641    0.0000 C   0  0  0  0  0  0  0  0  0  0  0  0
    4.8988    2.9698    0.0000 C   0  0  0  0  0  0  0  0  0  0  0  0
    2.2232    2.0302    0.0000 C   0  0  0  0  0  0  0  0  0  0  0  0
    5.5416    3.7359    0.0000 C   0  0  0  0  0  0  0  0  0  0  0  0
    2.3291   -1.4259    0.0000 H   0  0  0  0  0  0  0  0  0  0  0  0
    7.6412    3.0315    0.0000 H   0  0  0  0  0  0  0  0  0  0  0  0
    1.7880   -1.6533    0.0000 H   0  0  0  0  0  0  0  0  0  0  0  0
    1.3894   -2.3436    0.0000 H   0  0  0  0  0  0  0  0  0  0  0  0
    4.3426   -2.3436    0.0000 H   0  0  0  0  0  0  0  0  0  0  0  0
    3.9441   -1.6533    0.0000 H   0  0  0  0  0  0  0  0  0  0  0  0
    7.5847    1.4016    0.0000 H   0  0  0  0  0  0  0  0  0  0  0  0
    8.1953    0.8892    0.0000 H   0  0  0  0  0  0  0  0  0  0  0  0
    8.7081    3.7976    0.0000 H   0  0  0  0  0  0  0  0  0  0  0  0
    7.9591    3.5250    0.0000 H   0  0  0  0  0  0  0  0  0  0  0  0
    1.3894   -3.1282    0.0000 H   0  0  0  0  0  0  0  0  0  0  0  0
    1.7880   -3.8185    0.0000 H   0  0  0  0  0  0  0  0  0  0  0  0
    3.9441   -3.8185    0.0000 H   0  0  0  0  0  0  0  0  0  0  0  0
    4.3426   -3.1282    0.0000 H   0  0  0  0  0  0  0  0  0  0  0  0
    8.9680    0.7530    0.0000 H   0  0  0  0  0  0  0  0  0  0  0  0
    9.7170    1.0256    0.0000 H   0  0  0  0  0  0  0  0  0  0  0  0
   10.0914    3.1490    0.0000 H   0  0  0  0  0  0  0  0  0  0  0  0
    9.4809    3.6613    0.0000 H   0  0  0  0  0  0  0  0  0  0  0  0
    2.4675   -4.2108    0.0000 H   0  0  0  0  0  0  0  0  0  0  0  0
    3.2646   -4.2108    0.0000 H   0  0  0  0  0  0  0  0  0  0  0  0
   10.2214    1.6267    0.0000 H   0  0  0  0  0  0  0  0  0  0  0  0
   10.3598    2.4116    0.0000 H   0  0  0  0  0  0  0  0  0  0  0  0
    2.3291   -0.4259    0.0000 H   0  0  0  0  0  0  0  0  0  0  0  0
    6.6564    3.2052    0.0000 H   0  0  0  0  0  0  0  0  0  0  0  0
    3.7320    1.3841    0.0000 H   0  0  0  0  0  0  0  0  0  0  0  0
    4.6303    2.1378    0.0000 H   0  0  0  0  0  0  0  0  0  0  0  0
    4.6700    0.6483    0.0000 H   0  0  0  0  0  0  0  0  0  0  0  0
    4.1996    1.7391    0.0000 H   0  0  0  0  0  0  0  0  0  0  0  0
    2.6982    2.4287    0.0000 H   0  0  0  0  0  0  0  0  0  0  0  0
    1.8247    2.5051    0.0000 H   0  0  0  0  0  0  0  0  0  0  0  0
    1.7483    1.6316    0.0000 H   0  0  0  0  0  0  0  0  0  0  0  0
    6.0166    3.3374    0.0000 H   0  0  0  0  0  0  0  0  0  0  0  0
    5.9402    4.2108    0.0000 H   0  0  0  0  0  0  0  0  0  0  0  0
    5.0667    4.1344    0.0000 H   0  0  0  0  0  0  0  0  0  0  0  0
  1 22  2  0  0  0  0
  2 23  2  0  0  0  0
  3 24  2  0  0  0  0
  4 25  2  0  0  0  0
  5  7  1  0  0  0  0
  5 22  1  0  0  0  0
  5 50  1  0  0  0  0
  6  8  1  0  0  0  0
  6 23  1  0  0  0  0
  6 51  1  0  0  0  0
  7  9  1  0  0  0  0
  7 10  1  0  0  0  0
  7 28  1  0  0  0  0
  8 11  1  0  0  0  0
  8 12  1  0  0  0  0
  8 29  1  0  0  0  0
  9 13  1  0  0  0  0
  9 30  1  0  0  0  0
  9 31  1  0  0  0  0
 10 14  1  0  0  0  0
 10 32  1  0  0  0  0
 10 33  1  0  0  0  0
 11 15  1  0  0  0  0
 11 34  1  0  0  0  0
 11 35  1  0  0  0  0
 12 16  1  0  0  0  0
 12 36  1  0  0  0  0
 12 37  1  0  0  0  0
 13 17  1  0  0  0  0
 13 38  1  0  0  0  0
 13 39  1  0  0  0  0
 14 17  1  0  0  0  0
 14 40  1  0  0  0  0
 14 41  1  0  0  0  0
 15 18  1  0  0  0  0
 15 42  1  0  0  0  0
 15 43  1  0  0  0  0
 16 18  1  0  0  0  0
 16 44  1  0  0  0  0
 16 45  1  0  0  0  0
 17 46  1  0  0  0  0
 17 47  1  0  0  0  0
 18 48  1  0  0  0  0
 18 49  1  0  0  0  0
 19 21  1  0  0  0  0
 19 22  1  0  0  0  0
 19 24  1  0  0  0  0
 19 52  1  0  0  0  0
 20 21  1  0  0  0  0
 20 23  1  0  0  0  0
 20 25  1  0  0  0  0
 20 53  1  0  0  0  0
 21 54  1  0  0  0  0
 21 55  1  0  0  0  0
 24 26  1  0  0  0  0
 25 27  1  0  0  0  0
 26 56  1  0  0  0  0
 26 57  1  0  0  0  0
 26 58  1  0  0  0  0
 27 59  1  0  0  0  0
 27 60  1  0  0  0  0
 27 61  1  0  0  0  0
M  END
> <PUBCHEM_COMPOUND_CID>
520486
> <PUBCHEM_COMPOUND_CANONICALIZED>
1
> <PUBCHEM_CACTVS_COMPLEXITY>
500
> <PUBCHEM_CACTVS_HBOND_ACCEPTOR>
4
> <PUBCHEM_CACTVS_HBOND_DONOR>
2
> <PUBCHEM_CACTVS_ROTATABLE_BOND>
8
> <PUBCHEM_CACTVS_SUBSKEYS>
AAADcfB7OAAAAAAAAAAAAAAAAAAAAAAAAAAwYAAAAAAAAAAAAAAAHgAQAAAADSzBgAQCAALAAAAIAIEQEAAAAAAAAAAAAIEIAAAAABoIgAAEAAAAFgCAAAEYiwAuAAAAAAAAAAAAAAAAAAAAAAAAAAAAAA==
> <PUBCHEM_IUPAC_OPENEYE_NAME>
2,4-diacetyl-N,N'-dicyclohexyl-pentanediamide
> <PUBCHEM_IUPAC_CAS_NAME>
2,4-diacetyl-N,N'-dicyclohexylpentanediamide
> <PUBCHEM_IUPAC_NAME_MARKUP>
2,4-diacetyl-<I>N</I>,<I>N</I>&apos;-dicyclohexylpentanediamide
> <PUBCHEM_IUPAC_NAME>
2,4-diacetyl-N,N'-dicyclohexylpentanediamide
> <PUBCHEM_IUPAC_SYSTEMATIC_NAME>
N,N'-dicyclohexyl-2,4-diethanoyl-pentanediamide
> <PUBCHEM_IUPAC_TRADITIONAL_NAME>
2,4-diacetyl-N,N'-dicyclohexyl-glutaramide
> <PUBCHEM_IUPAC_INCHI>
InChI=1S/C21H34N2O4/c1-14(24)18(20(26)22-16-9-5-3-6-10-16)13-19(15(2)25)21(27)23-17-11-7-4-8-12-17/h16-19H,3-13H2,1-2H3,(H,22,26)(H,23,27)
> <PUBCHEM_IUPAC_INCHIKEY>
VBQMOKSUEKZSOD-UHFFFAOYSA-N
> <PUBCHEM_XLOGP3_AA>
3.7
> <PUBCHEM_EXACT_MASS>
378.25185757
> <PUBCHEM_MOLECULAR_FORMULA>
C21H34N2O4
> <PUBCHEM_MOLECULAR_WEIGHT>
378.5
> <PUBCHEM_OPENEYE_CAN_SMILES>
CC(=O)C(CC(C(=O)C)C(=O)NC1CCCCC1)C(=O)NC2CCCCC2
> <PUBCHEM_OPENEYE_ISO_SMILES>
CC(=O)C(CC(C(=O)C)C(=O)NC1CCCCC1)C(=O)NC2CCCCC2
> <PUBCHEM_CACTVS_TPSA>
92.3
> <PUBCHEM_MONOISOTOPIC_WEIGHT>
378.25185757
> <PUBCHEM_TOTAL_CHARGE>
0
> <PUBCHEM_HEAVY_ATOM_COUNT>
27
> <PUBCHEM_ATOM_DEF_STEREO_COUNT>
0
> <PUBCHEM_ATOM_UDEF_STEREO_COUNT>
2
> <PUBCHEM_BOND_DEF_STEREO_COUNT>
0
> <PUBCHEM_BOND_UDEF_STEREO_COUNT>
0
> <PUBCHEM_ISOTOPIC_ATOM_COUNT>
0
> <PUBCHEM_COMPONENT_COUNT>
1
> <PUBCHEM_CACTVS_TAUTO_COUNT>
-1
> <PUBCHEM_COORDINATE_TYPE>
1
5
255
> <PUBCHEM_BONDANNOTATIONS>
19  21  3
20  21  3
$$$$
