520468
  -OEChem-10302200292D
 38 38  0     1  0  0  0  0  0999 V2000
    2.5369   -2.7500    0.0000 O   0  0  0  0  0  0  0  0  0  0  0  0
    4.2690    0.2500    0.0000 C   0  0  3  0  0  0  0  0  0  0  0  0
    5.1350    0.7500    0.0000 C   0  0  0  0  0  0  0  0  0  0  0  0
    4.2690   -0.7500    0.0000 C   0  0  0  0  0  0  0  0  0  0  0  0
    5.1350    1.7500    0.0000 C   0  0  0  0  0  0  0  0  0  0  0  0
    3.4030    0.7500    0.0000 C   0  0  0  0  0  0  0  0  0  0  0  0
    3.4030   -1.2500    0.0000 C   0  0  0  0  0  0  0  0  0  0  0  0
    5.1350   -1.2500    0.0000 C   0  0  0  0  0  0  0  0  0  0  0  0
    6.0010    2.2500    0.0000 C   0  0  0  0  0  0  0  0  0  0  0  0
    3.4030   -2.2500    0.0000 C   0  0  0  0  0  0  0  0  0  0  0  0
    4.2690   -2.7500    0.0000 C   0  0  0  0  0  0  0  0  0  0  0  0
    5.1350   -2.2500    0.0000 C   0  0  0  0  0  0  0  0  0  0  0  0
    6.0010    3.2500    0.0000 C   0  0  0  0  0  0  0  0  0  0  0  0
    4.2690   -3.7500    0.0000 C   0  0  0  0  0  0  0  0  0  0  0  0
    6.8671    3.7500    0.0000 C   0  0  0  0  0  0  0  0  0  0  0  0
    5.1350    3.7500    0.0000 C   0  0  0  0  0  0  0  0  0  0  0  0
    4.2690    0.8700    0.0000 H   0  0  0  0  0  0  0  0  0  0  0  0
    5.3471    0.1674    0.0000 H   0  0  0  0  0  0  0  0  0  0  0  0
    5.7456    0.8577    0.0000 H   0  0  0  0  0  0  0  0  0  0  0  0
    4.9230    2.3326    0.0000 H   0  0  0  0  0  0  0  0  0  0  0  0
    4.5244    1.6423    0.0000 H   0  0  0  0  0  0  0  0  0  0  0  0
    3.7130    1.2869    0.0000 H   0  0  0  0  0  0  0  0  0  0  0  0
    2.8660    1.0600    0.0000 H   0  0  0  0  0  0  0  0  0  0  0  0
    3.0930    0.2131    0.0000 H   0  0  0  0  0  0  0  0  0  0  0  0
    2.8660   -0.9400    0.0000 H   0  0  0  0  0  0  0  0  0  0  0  0
    5.6720   -0.9400    0.0000 H   0  0  0  0  0  0  0  0  0  0  0  0
    6.5380    1.9400    0.0000 H   0  0  0  0  0  0  0  0  0  0  0  0
    5.6720   -2.5600    0.0000 H   0  0  0  0  0  0  0  0  0  0  0  0
    3.6490   -3.7500    0.0000 H   0  0  0  0  0  0  0  0  0  0  0  0
    4.2690   -4.3700    0.0000 H   0  0  0  0  0  0  0  0  0  0  0  0
    4.8890   -3.7500    0.0000 H   0  0  0  0  0  0  0  0  0  0  0  0
    7.1771    3.2131    0.0000 H   0  0  0  0  0  0  0  0  0  0  0  0
    7.4040    4.0600    0.0000 H   0  0  0  0  0  0  0  0  0  0  0  0
    6.5571    4.2869    0.0000 H   0  0  0  0  0  0  0  0  0  0  0  0
    5.4450    4.2869    0.0000 H   0  0  0  0  0  0  0  0  0  0  0  0
    4.5981    4.0600    0.0000 H   0  0  0  0  0  0  0  0  0  0  0  0
    4.8250    3.2131    0.0000 H   0  0  0  0  0  0  0  0  0  0  0  0
    2.0000   -2.4400    0.0000 H   0  0  0  0  0  0  0  0  0  0  0  0
  1 10  1  0  0  0  0
  1 38  1  0  0  0  0
  2  3  1  0  0  0  0
  2  4  1  0  0  0  0
  2  6  1  0  0  0  0
  2 17  1  0  0  0  0
  3  5  1  0  0  0  0
  3 18  1  0  0  0  0
  3 19  1  0  0  0  0
  4  7  2  0  0  0  0
  4  8  1  0  0  0  0
  5  9  1  0  0  0  0
  5 20  1  0  0  0  0
  5 21  1  0  0  0  0
  6 22  1  0  0  0  0
  6 23  1  0  0  0  0
  6 24  1  0  0  0  0
  7 10  1  0  0  0  0
  7 25  1  0  0  0  0
  8 12  2  0  0  0  0
  8 26  1  0  0  0  0
  9 13  2  0  0  0  0
  9 27  1  0  0  0  0
 10 11  2  0  0  0  0
 11 12  1  0  0  0  0
 11 14  1  0  0  0  0
 12 28  1  0  0  0  0
 13 15  1  0  0  0  0
 13 16  1  0  0  0  0
 14 29  1  0  0  0  0
 14 30  1  0  0  0  0
 14 31  1  0  0  0  0
 15 32  1  0  0  0  0
 15 33  1  0  0  0  0
 15 34  1  0  0  0  0
 16 35  1  0  0  0  0
 16 36  1  0  0  0  0
 16 37  1  0  0  0  0
M  END
> <PUBCHEM_COMPOUND_CID>
520468
> <PUBCHEM_COMPOUND_CANONICALIZED>
1
> <PUBCHEM_CACTVS_COMPLEXITY>
228
> <PUBCHEM_CACTVS_HBOND_ACCEPTOR>
1
> <PUBCHEM_CACTVS_HBOND_DONOR>
1
> <PUBCHEM_CACTVS_ROTATABLE_BOND>
4
> <PUBCHEM_CACTVS_SUBSKEYS>
AAADceBwIAAAAAAAAAAAAAAAAAAAAAAAAAAwAAAAAAAAAAABAAAAGgAACAAADQSAmAAyBoAAAgCAAiBCAAACAAAgIAAIiAAGCIgIJiKCERKAcAAkwBEImAeAwPAOwAABAAAIAACAAAIAABAAAAAAAAAAAA==
> <PUBCHEM_IUPAC_OPENEYE_NAME>
5-(1,5-dimethylhex-4-enyl)-2-methyl-phenol
> <PUBCHEM_IUPAC_CAS_NAME>
2-methyl-5-(6-methylhept-5-en-2-yl)phenol
> <PUBCHEM_IUPAC_NAME_MARKUP>
2-methyl-5-(6-methylhept-5-en-2-yl)phenol
> <PUBCHEM_IUPAC_NAME>
2-methyl-5-(6-methylhept-5-en-2-yl)phenol
> <PUBCHEM_IUPAC_SYSTEMATIC_NAME>
2-methyl-5-(6-methylhept-5-en-2-yl)phenol
> <PUBCHEM_IUPAC_TRADITIONAL_NAME>
5-(1,5-dimethylhex-4-enyl)-2-methyl-phenol
> <PUBCHEM_IUPAC_INCHI>
InChI=1S/C15H22O/c1-11(2)6-5-7-12(3)14-9-8-13(4)15(16)10-14/h6,8-10,12,16H,5,7H2,1-4H3
> <PUBCHEM_IUPAC_INCHIKEY>
FKWGCEDRLNNZOZ-UHFFFAOYSA-N
> <PUBCHEM_XLOGP3>
5.1
> <PUBCHEM_EXACT_MASS>
218.167065321
> <PUBCHEM_MOLECULAR_FORMULA>
C15H22O
> <PUBCHEM_MOLECULAR_WEIGHT>
218.33
> <PUBCHEM_OPENEYE_CAN_SMILES>
CC1=C(C=C(C=C1)C(C)CCC=C(C)C)O
> <PUBCHEM_OPENEYE_ISO_SMILES>
CC1=C(C=C(C=C1)C(C)CCC=C(C)C)O
> <PUBCHEM_CACTVS_TPSA>
20.2
> <PUBCHEM_MONOISOTOPIC_WEIGHT>
218.167065321
> <PUBCHEM_TOTAL_CHARGE>
0
> <PUBCHEM_HEAVY_ATOM_COUNT>
16
> <PUBCHEM_ATOM_DEF_STEREO_COUNT>
0
> <PUBCHEM_ATOM_UDEF_STEREO_COUNT>
1
> <PUBCHEM_BOND_DEF_STEREO_COUNT>
0
> <PUBCHEM_BOND_UDEF_STEREO_COUNT>
0
> <PUBCHEM_ISOTOPIC_ATOM_COUNT>
0
> <PUBCHEM_COMPONENT_COUNT>
1
> <PUBCHEM_CACTVS_TAUTO_COUNT>
-1
> <PUBCHEM_COORDINATE_TYPE>
1
5
255
> <PUBCHEM_BONDANNOTATIONS>
10  11  8
11  12  8
2  6  3
4  7  8
4  8  8
7  10  8
8  12  8
$$$$
