520442
  -OEChem-10302200292D
 58 58  0     1  0  0  0  0  0999 V2000
    2.8660   -5.5670    0.0000 S   0  0  0  0  0  0  0  0  0  0  0  0
    3.7320   -5.0670    0.0000 O   0  0  0  0  0  0  0  0  0  0  0  0
    2.3660   -6.4330    0.0000 O   0  0  0  0  0  0  0  0  0  0  0  0
    3.3660   -6.4330    0.0000 O   0  0  0  0  0  0  0  0  0  0  0  0
    3.7320   -4.0670    0.0000 C   0  0  3  0  0  0  0  0  0  0  0  0
    4.5981   -3.5670    0.0000 C   0  0  0  0  0  0  0  0  0  0  0  0
    2.8660   -3.5670    0.0000 C   0  0  0  0  0  0  0  0  0  0  0  0
    4.5981   -2.5670    0.0000 C   0  0  0  0  0  0  0  0  0  0  0  0
    2.0000   -4.0670    0.0000 C   0  0  0  0  0  0  0  0  0  0  0  0
    5.4641   -2.0670    0.0000 C   0  0  0  0  0  0  0  0  0  0  0  0
    2.0000   -5.0670    0.0000 C   0  0  0  0  0  0  0  0  0  0  0  0
    5.4641   -1.0670    0.0000 C   0  0  0  0  0  0  0  0  0  0  0  0
    6.3301   -0.5670    0.0000 C   0  0  0  0  0  0  0  0  0  0  0  0
    6.3301    0.4330    0.0000 C   0  0  0  0  0  0  0  0  0  0  0  0
    7.1962    0.9330    0.0000 C   0  0  0  0  0  0  0  0  0  0  0  0
    7.1962    1.9330    0.0000 C   0  0  0  0  0  0  0  0  0  0  0  0
    8.0622    2.4330    0.0000 C   0  0  0  0  0  0  0  0  0  0  0  0
    8.0622    3.4330    0.0000 C   0  0  0  0  0  0  0  0  0  0  0  0
    8.9282    3.9330    0.0000 C   0  0  0  0  0  0  0  0  0  0  0  0
    8.9282    4.9330    0.0000 C   0  0  0  0  0  0  0  0  0  0  0  0
    9.7942    5.4330    0.0000 C   0  0  0  0  0  0  0  0  0  0  0  0
    9.7942    6.4330    0.0000 C   0  0  0  0  0  0  0  0  0  0  0  0
    4.2690   -4.3770    0.0000 H   0  0  0  0  0  0  0  0  0  0  0  0
    4.8101   -4.1496    0.0000 H   0  0  0  0  0  0  0  0  0  0  0  0
    5.2087   -3.4593    0.0000 H   0  0  0  0  0  0  0  0  0  0  0  0
    3.2646   -3.0920    0.0000 H   0  0  0  0  0  0  0  0  0  0  0  0
    2.4675   -3.0920    0.0000 H   0  0  0  0  0  0  0  0  0  0  0  0
    4.3860   -1.9844    0.0000 H   0  0  0  0  0  0  0  0  0  0  0  0
    3.9875   -2.6747    0.0000 H   0  0  0  0  0  0  0  0  0  0  0  0
    1.7880   -3.4844    0.0000 H   0  0  0  0  0  0  0  0  0  0  0  0
    1.3894   -4.1746    0.0000 H   0  0  0  0  0  0  0  0  0  0  0  0
    5.6762   -2.6496    0.0000 H   0  0  0  0  0  0  0  0  0  0  0  0
    6.0747   -1.9593    0.0000 H   0  0  0  0  0  0  0  0  0  0  0  0
    1.3894   -4.9593    0.0000 H   0  0  0  0  0  0  0  0  0  0  0  0
    1.7880   -5.6496    0.0000 H   0  0  0  0  0  0  0  0  0  0  0  0
    5.2520   -0.4844    0.0000 H   0  0  0  0  0  0  0  0  0  0  0  0
    4.8535   -1.1746    0.0000 H   0  0  0  0  0  0  0  0  0  0  0  0
    6.5422   -1.1496    0.0000 H   0  0  0  0  0  0  0  0  0  0  0  0
    6.9407   -0.4593    0.0000 H   0  0  0  0  0  0  0  0  0  0  0  0
    6.1181    1.0156    0.0000 H   0  0  0  0  0  0  0  0  0  0  0  0
    5.7196    0.3254    0.0000 H   0  0  0  0  0  0  0  0  0  0  0  0
    7.4082    0.3504    0.0000 H   0  0  0  0  0  0  0  0  0  0  0  0
    7.8067    1.0407    0.0000 H   0  0  0  0  0  0  0  0  0  0  0  0
    6.9841    2.5156    0.0000 H   0  0  0  0  0  0  0  0  0  0  0  0
    6.5856    1.8254    0.0000 H   0  0  0  0  0  0  0  0  0  0  0  0
    8.2742    1.8504    0.0000 H   0  0  0  0  0  0  0  0  0  0  0  0
    8.6728    2.5407    0.0000 H   0  0  0  0  0  0  0  0  0  0  0  0
    7.8501    4.0156    0.0000 H   0  0  0  0  0  0  0  0  0  0  0  0
    7.4516    3.3254    0.0000 H   0  0  0  0  0  0  0  0  0  0  0  0
    9.1403    3.3504    0.0000 H   0  0  0  0  0  0  0  0  0  0  0  0
    9.5388    4.0407    0.0000 H   0  0  0  0  0  0  0  0  0  0  0  0
    8.7162    5.5156    0.0000 H   0  0  0  0  0  0  0  0  0  0  0  0
    8.3176    4.8254    0.0000 H   0  0  0  0  0  0  0  0  0  0  0  0
   10.0063    4.8504    0.0000 H   0  0  0  0  0  0  0  0  0  0  0  0
   10.4048    5.5407    0.0000 H   0  0  0  0  0  0  0  0  0  0  0  0
   10.4142    6.4330    0.0000 H   0  0  0  0  0  0  0  0  0  0  0  0
    9.7942    7.0530    0.0000 H   0  0  0  0  0  0  0  0  0  0  0  0
    9.1742    6.4330    0.0000 H   0  0  0  0  0  0  0  0  0  0  0  0
  1  2  1  0  0  0  0
  1  3  2  0  0  0  0
  1  4  2  0  0  0  0
  1 11  1  0  0  0  0
  2  5  1  0  0  0  0
  5  6  1  0  0  0  0
  5  7  1  0  0  0  0
  5 23  1  0  0  0  0
  6  8  1  0  0  0  0
  6 24  1  0  0  0  0
  6 25  1  0  0  0  0
  7  9  1  0  0  0  0
  7 26  1  0  0  0  0
  7 27  1  0  0  0  0
  8 10  1  0  0  0  0
  8 28  1  0  0  0  0
  8 29  1  0  0  0  0
  9 11  1  0  0  0  0
  9 30  1  0  0  0  0
  9 31  1  0  0  0  0
 10 12  1  0  0  0  0
 10 32  1  0  0  0  0
 10 33  1  0  0  0  0
 11 34  1  0  0  0  0
 11 35  1  0  0  0  0
 12 13  1  0  0  0  0
 12 36  1  0  0  0  0
 12 37  1  0  0  0  0
 13 14  1  0  0  0  0
 13 38  1  0  0  0  0
 13 39  1  0  0  0  0
 14 15  1  0  0  0  0
 14 40  1  0  0  0  0
 14 41  1  0  0  0  0
 15 16  1  0  0  0  0
 15 42  1  0  0  0  0
 15 43  1  0  0  0  0
 16 17  1  0  0  0  0
 16 44  1  0  0  0  0
 16 45  1  0  0  0  0
 17 18  1  0  0  0  0
 17 46  1  0  0  0  0
 17 47  1  0  0  0  0
 18 19  1  0  0  0  0
 18 48  1  0  0  0  0
 18 49  1  0  0  0  0
 19 20  1  0  0  0  0
 19 50  1  0  0  0  0
 19 51  1  0  0  0  0
 20 21  1  0  0  0  0
 20 52  1  0  0  0  0
 20 53  1  0  0  0  0
 21 22  1  0  0  0  0
 21 54  1  0  0  0  0
 21 55  1  0  0  0  0
 22 56  1  0  0  0  0
 22 57  1  0  0  0  0
 22 58  1  0  0  0  0
M  END
> <PUBCHEM_COMPOUND_CID>
520442
> <PUBCHEM_COMPOUND_CANONICALIZED>
1
> <PUBCHEM_CACTVS_COMPLEXITY>
346
> <PUBCHEM_CACTVS_HBOND_ACCEPTOR>
3
> <PUBCHEM_CACTVS_HBOND_DONOR>
0
> <PUBCHEM_CACTVS_ROTATABLE_BOND>
13
> <PUBCHEM_CACTVS_SUBSKEYS>
AAADcfB4MABAAAAAAAAAAAAAAAAAAAAAAAAkAAAAAAAAAAAAAAAAGgQAAAAACBSkwAKCAAAAAAIAAAAAAHBAAAAAAAAAAAAAAAAAAAIAAAAAAAAEAAAAAAGAwKAAAAAAAAAAAAAAAAAAAAAAAAAAAAAAAA==
> <PUBCHEM_IUPAC_OPENEYE_NAME>
6-tetradecyloxathiane 2,2-dioxide
> <PUBCHEM_IUPAC_CAS_NAME>
6-tetradecyloxathiane 2,2-dioxide
> <PUBCHEM_IUPAC_NAME_MARKUP>
6-tetradecyloxathiane 2,2-dioxide
> <PUBCHEM_IUPAC_NAME>
6-tetradecyloxathiane 2,2-dioxide
> <PUBCHEM_IUPAC_SYSTEMATIC_NAME>
6-tetradecyl-1,2-oxathiane 2,2-dioxide
> <PUBCHEM_IUPAC_TRADITIONAL_NAME>
6-myristyloxathiane 2,2-dioxide
> <PUBCHEM_IUPAC_INCHI>
InChI=1S/C18H36O3S/c1-2-3-4-5-6-7-8-9-10-11-12-13-15-18-16-14-17-22(19,20)21-18/h18H,2-17H2,1H3
> <PUBCHEM_IUPAC_INCHIKEY>
YWXGDDUJIRWXGV-UHFFFAOYSA-N
> <PUBCHEM_XLOGP3_AA>
7.4
> <PUBCHEM_EXACT_MASS>
332.23851618
> <PUBCHEM_MOLECULAR_FORMULA>
C18H36O3S
> <PUBCHEM_MOLECULAR_WEIGHT>
332.5
> <PUBCHEM_OPENEYE_CAN_SMILES>
CCCCCCCCCCCCCCC1CCCS(=O)(=O)O1
> <PUBCHEM_OPENEYE_ISO_SMILES>
CCCCCCCCCCCCCCC1CCCS(=O)(=O)O1
> <PUBCHEM_CACTVS_TPSA>
51.8
> <PUBCHEM_MONOISOTOPIC_WEIGHT>
332.23851618
> <PUBCHEM_TOTAL_CHARGE>
0
> <PUBCHEM_HEAVY_ATOM_COUNT>
22
> <PUBCHEM_ATOM_DEF_STEREO_COUNT>
0
> <PUBCHEM_ATOM_UDEF_STEREO_COUNT>
1
> <PUBCHEM_BOND_DEF_STEREO_COUNT>
0
> <PUBCHEM_BOND_UDEF_STEREO_COUNT>
0
> <PUBCHEM_ISOTOPIC_ATOM_COUNT>
0
> <PUBCHEM_COMPONENT_COUNT>
1
> <PUBCHEM_CACTVS_TAUTO_COUNT>
-1
> <PUBCHEM_COORDINATE_TYPE>
1
5
255
> <PUBCHEM_BONDANNOTATIONS>
5  6  3
$$$$
