520564
  -OEChem-10302200292D
 35 35  0     1  0  0  0  0  0999 V2000
    4.5981   -2.5000    0.0000 O   0  0  0  0  0  0  0  0  0  0  0  0
    4.5981    0.5000    0.0000 C   0  0  3  0  0  0  0  0  0  0  0  0
    4.5981    1.5000    0.0000 C   0  0  0  0  0  0  0  0  0  0  0  0
    3.7320    0.0000    0.0000 C   0  0  0  0  0  0  0  0  0  0  0  0
    5.4641   -0.0000    0.0000 C   0  0  0  0  0  0  0  0  0  0  0  0
    3.7320   -1.0000    0.0000 C   0  0  3  0  0  0  0  0  0  0  0  0
    5.4641   -1.0000    0.0000 C   0  0  0  0  0  0  0  0  0  0  0  0
    4.5981   -1.5000    0.0000 C   0  0  0  0  0  0  0  0  0  0  0  0
    4.5981    2.5000    0.0000 C   0  0  0  0  0  0  0  0  0  0  0  0
    5.5981    1.5000    0.0000 C   0  0  0  0  0  0  0  0  0  0  0  0
    3.5981    1.5000    0.0000 C   0  0  0  0  0  0  0  0  0  0  0  0
    2.8660   -1.5000    0.0000 C   0  0  0  0  0  0  0  0  0  0  0  0
    2.0000   -1.0000    0.0000 C   0  0  0  0  0  0  0  0  0  0  0  0
    5.1350    0.8100    0.0000 H   0  0  0  0  0  0  0  0  0  0  0  0
    3.5200    0.5826    0.0000 H   0  0  0  0  0  0  0  0  0  0  0  0
    3.1215   -0.1077    0.0000 H   0  0  0  0  0  0  0  0  0  0  0  0
    6.0747   -0.1077    0.0000 H   0  0  0  0  0  0  0  0  0  0  0  0
    5.6762    0.5826    0.0000 H   0  0  0  0  0  0  0  0  0  0  0  0
    3.7320   -1.6200    0.0000 H   0  0  0  0  0  0  0  0  0  0  0  0
    5.6762   -1.5826    0.0000 H   0  0  0  0  0  0  0  0  0  0  0  0
    6.0747   -0.8923    0.0000 H   0  0  0  0  0  0  0  0  0  0  0  0
    5.2181    2.5000    0.0000 H   0  0  0  0  0  0  0  0  0  0  0  0
    4.5981    3.1200    0.0000 H   0  0  0  0  0  0  0  0  0  0  0  0
    3.9781    2.5000    0.0000 H   0  0  0  0  0  0  0  0  0  0  0  0
    5.5981    0.8800    0.0000 H   0  0  0  0  0  0  0  0  0  0  0  0
    6.2181    1.5000    0.0000 H   0  0  0  0  0  0  0  0  0  0  0  0
    5.5981    2.1200    0.0000 H   0  0  0  0  0  0  0  0  0  0  0  0
    3.5981    2.1200    0.0000 H   0  0  0  0  0  0  0  0  0  0  0  0
    2.9781    1.5000    0.0000 H   0  0  0  0  0  0  0  0  0  0  0  0
    3.5981    0.8800    0.0000 H   0  0  0  0  0  0  0  0  0  0  0  0
    2.4675   -1.9750    0.0000 H   0  0  0  0  0  0  0  0  0  0  0  0
    3.2646   -1.9750    0.0000 H   0  0  0  0  0  0  0  0  0  0  0  0
    2.3100   -0.4631    0.0000 H   0  0  0  0  0  0  0  0  0  0  0  0
    1.4631   -0.6900    0.0000 H   0  0  0  0  0  0  0  0  0  0  0  0
    1.6900   -1.5369    0.0000 H   0  0  0  0  0  0  0  0  0  0  0  0
  1  8  2  0  0  0  0
  2  3  1  0  0  0  0
  2  4  1  0  0  0  0
  2  5  1  0  0  0  0
  2 14  1  0  0  0  0
  3  9  1  0  0  0  0
  3 10  1  0  0  0  0
  3 11  1  0  0  0  0
  4  6  1  0  0  0  0
  4 15  1  0  0  0  0
  4 16  1  0  0  0  0
  5  7  1  0  0  0  0
  5 17  1  0  0  0  0
  5 18  1  0  0  0  0
  6  8  1  0  0  0  0
  6 12  1  0  0  0  0
  6 19  1  0  0  0  0
  7  8  1  0  0  0  0
  7 20  1  0  0  0  0
  7 21  1  0  0  0  0
  9 22  1  0  0  0  0
  9 23  1  0  0  0  0
  9 24  1  0  0  0  0
 10 25  1  0  0  0  0
 10 26  1  0  0  0  0
 10 27  1  0  0  0  0
 11 28  1  0  0  0  0
 11 29  1  0  0  0  0
 11 30  1  0  0  0  0
 12 13  1  0  0  0  0
 12 31  1  0  0  0  0
 12 32  1  0  0  0  0
 13 33  1  0  0  0  0
 13 34  1  0  0  0  0
 13 35  1  0  0  0  0
M  END
> <PUBCHEM_COMPOUND_CID>
520564
> <PUBCHEM_COMPOUND_CANONICALIZED>
1
> <PUBCHEM_CACTVS_COMPLEXITY>
188
> <PUBCHEM_CACTVS_HBOND_ACCEPTOR>
1
> <PUBCHEM_CACTVS_HBOND_DONOR>
0
> <PUBCHEM_CACTVS_ROTATABLE_BOND>
2
> <PUBCHEM_CACTVS_SUBSKEYS>
AAADceBwIAAAAAAAAAAAAAAAAAAAAAAAAAAwAAAAAAAAAAAAAAAAGgAAAAAADwSAgAACAAAAAAAIAIAQAAAAAAAAAAAAAAEAAAAAABIAAAAAAAAAAAAAAAEIiMCPgAAAAAAAAAAAAAQAAAAAAAAAAAAAAA==
> <PUBCHEM_IUPAC_OPENEYE_NAME>
4-tert-butyl-2-ethyl-cyclohexanone
> <PUBCHEM_IUPAC_CAS_NAME>
4-tert-butyl-2-ethyl-1-cyclohexanone
> <PUBCHEM_IUPAC_NAME_MARKUP>
4-<I>tert</I>-butyl-2-ethylcyclohexan-1-one
> <PUBCHEM_IUPAC_NAME>
4-tert-butyl-2-ethylcyclohexan-1-one
> <PUBCHEM_IUPAC_SYSTEMATIC_NAME>
4-tert-butyl-2-ethyl-cyclohexan-1-one
> <PUBCHEM_IUPAC_TRADITIONAL_NAME>
4-tert-butyl-2-ethyl-cyclohexanone
> <PUBCHEM_IUPAC_INCHI>
InChI=1S/C12H22O/c1-5-9-8-10(12(2,3)4)6-7-11(9)13/h9-10H,5-8H2,1-4H3
> <PUBCHEM_IUPAC_INCHIKEY>
UMEJTHPXAININP-UHFFFAOYSA-N
> <PUBCHEM_XLOGP3_AA>
3.3
> <PUBCHEM_EXACT_MASS>
182.167065321
> <PUBCHEM_MOLECULAR_FORMULA>
C12H22O
> <PUBCHEM_MOLECULAR_WEIGHT>
182.30
> <PUBCHEM_OPENEYE_CAN_SMILES>
CCC1CC(CCC1=O)C(C)(C)C
> <PUBCHEM_OPENEYE_ISO_SMILES>
CCC1CC(CCC1=O)C(C)(C)C
> <PUBCHEM_CACTVS_TPSA>
17.1
> <PUBCHEM_MONOISOTOPIC_WEIGHT>
182.167065321
> <PUBCHEM_TOTAL_CHARGE>
0
> <PUBCHEM_HEAVY_ATOM_COUNT>
13
> <PUBCHEM_ATOM_DEF_STEREO_COUNT>
0
> <PUBCHEM_ATOM_UDEF_STEREO_COUNT>
2
> <PUBCHEM_BOND_DEF_STEREO_COUNT>
0
> <PUBCHEM_BOND_UDEF_STEREO_COUNT>
0
> <PUBCHEM_ISOTOPIC_ATOM_COUNT>
0
> <PUBCHEM_COMPONENT_COUNT>
1
> <PUBCHEM_CACTVS_TAUTO_COUNT>
-1
> <PUBCHEM_COORDINATE_TYPE>
1
5
255
> <PUBCHEM_BONDANNOTATIONS>
2  3  3
6  12  3
$$$$
