520584
  -OEChem-10302200292D
 38 40  0     1  0  0  0  0  0999 V2000
    2.0000   -0.2895    0.0000 O   0  0  0  0  0  0  0  0  0  0  0  0
    5.3217   -0.7776    0.0000 O   0  0  0  0  0  0  0  0  0  0  0  0
    3.6581   -1.4078    0.0000 O   0  0  0  0  0  0  0  0  0  0  0  0
    5.7405    0.7853    0.0000 O   0  0  0  0  0  0  0  0  0  0  0  0
    2.3830   -2.4040    0.0000 O   0  0  0  0  0  0  0  0  0  0  0  0
    3.0723    2.8316    0.0000 O   0  0  0  0  0  0  0  0  0  0  0  0
    2.8290   -0.8487    0.0000 C   0  0  3  0  0  0  0  0  0  0  0  0
    4.0501    0.0170    0.0000 C   0  0  3  0  0  0  0  0  0  0  0  0
    3.5723    1.9655    0.0000 C   0  0  3  0  0  0  0  0  0  0  0  0
    4.3089    0.9829    0.0000 C   0  0  3  0  0  0  0  0  0  0  0  0
    2.0410   -1.4643    0.0000 C   0  0  0  0  0  0  0  0  0  0  0  0
    2.2756    0.6718    0.0000 C   0  0  0  0  0  0  0  0  0  0  0  0
    6.0989   -0.1483    0.0000 C   0  0  0  0  0  0  0  0  0  0  0  0
    3.3824   -2.3691    0.0000 C   0  0  0  0  0  0  0  0  0  0  0  0
    7.0648    0.1105    0.0000 C   0  0  0  0  0  0  0  0  0  0  0  0
    6.8060   -0.8554    0.0000 C   0  0  0  0  0  0  0  0  0  0  0  0
    3.4173   -3.3685    0.0000 C   0  0  0  0  0  0  0  0  0  0  0  0
    4.3437   -2.6448    0.0000 C   0  0  0  0  0  0  0  0  0  0  0  0
    4.5524    0.3805    0.0000 H   0  0  0  0  0  0  0  0  0  0  0  0
    4.0897    2.3071    0.0000 H   0  0  0  0  0  0  0  0  0  0  0  0
    4.3134    0.3629    0.0000 H   0  0  0  0  0  0  0  0  0  0  0  0
    1.7125   -0.9385    0.0000 H   0  0  0  0  0  0  0  0  0  0  0  0
    1.4838   -1.7361    0.0000 H   0  0  0  0  0  0  0  0  0  0  0  0
    2.2706    1.2918    0.0000 H   0  0  0  0  0  0  0  0  0  0  0  0
    1.6613    0.7556    0.0000 H   0  0  0  0  0  0  0  0  0  0  0  0
    7.2253   -0.4884    0.0000 H   0  0  0  0  0  0  0  0  0  0  0  0
    7.6637    0.2710    0.0000 H   0  0  0  0  0  0  0  0  0  0  0  0
    6.9044    0.7094    0.0000 H   0  0  0  0  0  0  0  0  0  0  0  0
    6.3676   -1.2938    0.0000 H   0  0  0  0  0  0  0  0  0  0  0  0
    7.2444   -1.2938    0.0000 H   0  0  0  0  0  0  0  0  0  0  0  0
    7.2444   -0.4170    0.0000 H   0  0  0  0  0  0  0  0  0  0  0  0
    3.3823    3.3685    0.0000 H   0  0  0  0  0  0  0  0  0  0  0  0
    2.7977   -3.3901    0.0000 H   0  0  0  0  0  0  0  0  0  0  0  0
    3.4390   -3.9881    0.0000 H   0  0  0  0  0  0  0  0  0  0  0  0
    4.0370   -3.3469    0.0000 H   0  0  0  0  0  0  0  0  0  0  0  0
    4.1728   -3.2407    0.0000 H   0  0  0  0  0  0  0  0  0  0  0  0
    4.9397   -2.8157    0.0000 H   0  0  0  0  0  0  0  0  0  0  0  0
    4.5146   -2.0488    0.0000 H   0  0  0  0  0  0  0  0  0  0  0  0
  1  7  1  0  0  0  0
  1 12  1  0  0  0  0
  2  8  1  0  0  0  0
  2 13  1  0  0  0  0
  3  7  1  0  0  0  0
  3 14  1  0  0  0  0
  4 10  1  0  0  0  0
  4 13  1  0  0  0  0
  5 11  1  0  0  0  0
  5 14  1  0  0  0  0
  6  9  1  0  0  0  0
  6 32  1  0  0  0  0
  7  8  1  0  0  0  0
  7 11  1  0  0  0  0
  8  9  1  0  0  0  0
  8 19  1  0  0  0  0
  9 10  1  0  0  0  0
  9 20  1  0  0  0  0
 10 12  1  0  0  0  0
 10 21  1  0  0  0  0
 11 22  1  0  0  0  0
 11 23  1  0  0  0  0
 12 24  1  0  0  0  0
 12 25  1  0  0  0  0
 13 15  1  0  0  0  0
 13 16  1  0  0  0  0
 14 17  1  0  0  0  0
 14 18  1  0  0  0  0
 15 26  1  0  0  0  0
 15 27  1  0  0  0  0
 15 28  1  0  0  0  0
 16 29  1  0  0  0  0
 16 30  1  0  0  0  0
 16 31  1  0  0  0  0
 17 33  1  0  0  0  0
 17 34  1  0  0  0  0
 17 35  1  0  0  0  0
 18 36  1  0  0  0  0
 18 37  1  0  0  0  0
 18 38  1  0  0  0  0
M  END
> <PUBCHEM_COMPOUND_CID>
520584
> <PUBCHEM_COMPOUND_CANONICALIZED>
1
> <PUBCHEM_CACTVS_COMPLEXITY>
355
> <PUBCHEM_CACTVS_HBOND_ACCEPTOR>
6
> <PUBCHEM_CACTVS_HBOND_DONOR>
1
> <PUBCHEM_CACTVS_ROTATABLE_BOND>
0
> <PUBCHEM_CACTVS_SUBSKEYS>
AAADceBwOAAAAAAAAAAAAAAAAAAAASAAAAAkSAAAAAASAAAAAAAAGgAACAAACBSggAICCAAABgAAAAAAAAAAAAAAAAAAAAAAAAAREAIAAAAiQAAFAAAHAAHAYAwAAAAAAAAAAAAAAAAAAAAAAAAAAAAAAA==
> <PUBCHEM_IUPAC_OPENEYE_NAME>
2,2,3',3'-tetramethylspiro[1,3-dioxolane-4,6'-2,4,7-trioxabicyclo[3.3.1]nonane]-9'-ol
> <PUBCHEM_IUPAC_CAS_NAME>
2,2,3',3'-tetramethyl-9'-spiro[1,3-dioxolane-4,6'-2,4,7-trioxabicyclo[3.3.1]nonane]ol
> <PUBCHEM_IUPAC_NAME_MARKUP>
2,2,3&apos;,3&apos;-tetramethylspiro[1,3-dioxolane-4,6&apos;-2,4,7-trioxabicyclo[3.3.1]nonane]-9&apos;-ol
> <PUBCHEM_IUPAC_NAME>
2,2,3',3'-tetramethylspiro[1,3-dioxolane-4,6'-2,4,7-trioxabicyclo[3.3.1]nonane]-9'-ol
> <PUBCHEM_IUPAC_SYSTEMATIC_NAME>
2,2,3',3'-tetramethylspiro[1,3-dioxolane-4,6'-2,4,7-trioxabicyclo[3.3.1]nonane]-9'-ol
> <PUBCHEM_IUPAC_TRADITIONAL_NAME>
2,2,3',3'-tetramethylspiro[1,3-dioxolane-4,6'-2,4,7-trioxabicyclo[3.3.1]nonane]-9'-ol
> <PUBCHEM_IUPAC_INCHI>
InChI=1S/C12H20O6/c1-10(2)15-6-12(18-10)9-8(13)7(5-14-12)16-11(3,4)17-9/h7-9,13H,5-6H2,1-4H3
> <PUBCHEM_IUPAC_INCHIKEY>
HIHGMQOBMJOZKO-UHFFFAOYSA-N
> <PUBCHEM_XLOGP3_AA>
-0.3
> <PUBCHEM_EXACT_MASS>
260.12598835
> <PUBCHEM_MOLECULAR_FORMULA>
C12H20O6
> <PUBCHEM_MOLECULAR_WEIGHT>
260.28
> <PUBCHEM_OPENEYE_CAN_SMILES>
CC1(OCC2(O1)C3C(C(CO2)OC(O3)(C)C)O)C
> <PUBCHEM_OPENEYE_ISO_SMILES>
CC1(OCC2(O1)C3C(C(CO2)OC(O3)(C)C)O)C
> <PUBCHEM_CACTVS_TPSA>
66.4
> <PUBCHEM_MONOISOTOPIC_WEIGHT>
260.12598835
> <PUBCHEM_TOTAL_CHARGE>
0
> <PUBCHEM_HEAVY_ATOM_COUNT>
18
> <PUBCHEM_ATOM_DEF_STEREO_COUNT>
0
> <PUBCHEM_ATOM_UDEF_STEREO_COUNT>
4
> <PUBCHEM_BOND_DEF_STEREO_COUNT>
0
> <PUBCHEM_BOND_UDEF_STEREO_COUNT>
0
> <PUBCHEM_ISOTOPIC_ATOM_COUNT>
0
> <PUBCHEM_COMPONENT_COUNT>
1
> <PUBCHEM_CACTVS_TAUTO_COUNT>
-1
> <PUBCHEM_COORDINATE_TYPE>
1
5
255
> <PUBCHEM_BONDANNOTATIONS>
10  12  3
8  2  3
9  6  3
7  11  3
$$$$
