520595
  -OEChem-10302200292D
 17 16  0     1  0  0  0  0  0999 V2000
    2.5369    0.7500    0.0000 O   0  0  0  0  0  0  0  0  0  0  0  0
    3.4030    0.2500    0.0000 C   0  0  3  0  0  0  0  0  0  0  0  0
    3.4030   -0.7500    0.0000 C   0  0  0  0  0  0  0  0  0  0  0  0
    4.2690    0.7500    0.0000 C   0  0  0  0  0  0  0  0  0  0  0  0
    5.1350    0.2500    0.0000 C   0  0  0  0  0  0  0  0  0  0  0  0
    6.0010    0.7500    0.0000 C   0  0  0  0  0  0  0  0  0  0  0  0
    6.8671    0.2500    0.0000 C   0  0  0  0  0  0  0  0  0  0  0  0
    3.4030    0.8700    0.0000 H   0  0  0  0  0  0  0  0  0  0  0  0
    2.7830   -0.7500    0.0000 H   0  0  0  0  0  0  0  0  0  0  0  0
    3.4030   -1.3700    0.0000 H   0  0  0  0  0  0  0  0  0  0  0  0
    4.0230   -0.7500    0.0000 H   0  0  0  0  0  0  0  0  0  0  0  0
    4.2690    1.3700    0.0000 H   0  0  0  0  0  0  0  0  0  0  0  0
    5.1350   -0.3700    0.0000 H   0  0  0  0  0  0  0  0  0  0  0  0
    2.0000    0.4400    0.0000 H   0  0  0  0  0  0  0  0  0  0  0  0
    6.0010    1.3700    0.0000 H   0  0  0  0  0  0  0  0  0  0  0  0
    6.8671   -0.3700    0.0000 H   0  0  0  0  0  0  0  0  0  0  0  0
    7.4040    0.5600    0.0000 H   0  0  0  0  0  0  0  0  0  0  0  0
  1  2  1  0  0  0  0
  1 14  1  0  0  0  0
  2  3  1  0  0  0  0
  2  4  1  0  0  0  0
  2  8  1  0  0  0  0
  3  9  1  0  0  0  0
  3 10  1  0  0  0  0
  3 11  1  0  0  0  0
  4  5  2  3  0  0  0
  4 12  1  0  0  0  0
  5  6  1  0  0  0  0
  5 13  1  0  0  0  0
  6  7  2  0  0  0  0
  6 15  1  0  0  0  0
  7 16  1  0  0  0  0
  7 17  1  0  0  0  0
M  END
> <PUBCHEM_COMPOUND_CID>
520595
> <PUBCHEM_COMPOUND_CANONICALIZED>
1
> <PUBCHEM_CACTVS_COMPLEXITY>
74.2
> <PUBCHEM_CACTVS_HBOND_ACCEPTOR>
1
> <PUBCHEM_CACTVS_HBOND_DONOR>
1
> <PUBCHEM_CACTVS_ROTATABLE_BOND>
2
> <PUBCHEM_CACTVS_SUBSKEYS>
AAADccBgIAAAAAAAAAAAAAAAAAAAAAAAAAAAAAAAAAAAAAAAAAAAGgAACAAACBSggAICAAAAAgCAACBCAAAAAAAgAAAICAAAAAgIFAAAAQAAEAAAAAAIkAIAAAAAAAAAAAAAAAAAAAAAAAAAAAAAAAAAAA==
> <PUBCHEM_IUPAC_OPENEYE_NAME>
hexa-3,5-dien-2-ol
> <PUBCHEM_IUPAC_CAS_NAME>
2-hexa-3,5-dienol
> <PUBCHEM_IUPAC_NAME_MARKUP>
hexa-3,5-dien-2-ol
> <PUBCHEM_IUPAC_NAME>
hexa-3,5-dien-2-ol
> <PUBCHEM_IUPAC_SYSTEMATIC_NAME>
hexa-3,5-dien-2-ol
> <PUBCHEM_IUPAC_TRADITIONAL_NAME>
hexa-3,5-dien-2-ol
> <PUBCHEM_IUPAC_INCHI>
InChI=1S/C6H10O/c1-3-4-5-6(2)7/h3-7H,1H2,2H3
> <PUBCHEM_IUPAC_INCHIKEY>
VAOJQRMYAXTUQI-UHFFFAOYSA-N
> <PUBCHEM_XLOGP3_AA>
1.2
> <PUBCHEM_EXACT_MASS>
98.073164938
> <PUBCHEM_MOLECULAR_FORMULA>
C6H10O
> <PUBCHEM_MOLECULAR_WEIGHT>
98.14
> <PUBCHEM_OPENEYE_CAN_SMILES>
CC(C=CC=C)O
> <PUBCHEM_OPENEYE_ISO_SMILES>
CC(C=CC=C)O
> <PUBCHEM_CACTVS_TPSA>
20.2
> <PUBCHEM_MONOISOTOPIC_WEIGHT>
98.073164938
> <PUBCHEM_TOTAL_CHARGE>
0
> <PUBCHEM_HEAVY_ATOM_COUNT>
7
> <PUBCHEM_ATOM_DEF_STEREO_COUNT>
0
> <PUBCHEM_ATOM_UDEF_STEREO_COUNT>
1
> <PUBCHEM_BOND_DEF_STEREO_COUNT>
0
> <PUBCHEM_BOND_UDEF_STEREO_COUNT>
1
> <PUBCHEM_ISOTOPIC_ATOM_COUNT>
0
> <PUBCHEM_COMPONENT_COUNT>
1
> <PUBCHEM_CACTVS_TAUTO_COUNT>
-1
> <PUBCHEM_COORDINATE_TYPE>
1
5
255
> <PUBCHEM_BONDANNOTATIONS>
2  1  3
4  5  1
$$$$
