520519
  -OEChem-10302200292D
 65 69  0     1  0  0  0  0  0999 V2000
   13.6980    2.6823    0.0000 O   0  0  0  0  0  0  0  0  0  0  0  0
    7.0480   -1.6253    0.0000 O   0  0  0  0  0  0  0  0  0  0  0  0
    6.1878   -0.1219    0.0000 O   0  0  0  0  0  0  0  0  0  0  0  0
   12.4411    1.4271    0.0000 C   0  0  3  0  0  0  0  0  0  0  0  0
   12.4411    0.4271    0.0000 C   0  0  3  0  0  0  0  0  0  0  0  0
   11.5751   -0.0729    0.0000 C   0  0  3  0  0  0  0  0  0  0  0  0
   10.7091    0.4271    0.0000 C   0  0  3  0  0  0  0  0  0  0  0  0
   13.3873    1.7318    0.0000 C   0  0  3  0  0  0  0  0  0  0  0  0
   11.5751    1.9271    0.0000 C   0  0  0  0  0  0  0  0  0  0  0  0
   13.3873    0.1223    0.0000 C   0  0  0  0  0  0  0  0  0  0  0  0
   10.7091    1.4271    0.0000 C   0  0  0  0  0  0  0  0  0  0  0  0
   13.9710    0.9271    0.0000 C   0  0  0  0  0  0  0  0  0  0  0  0
   11.5912   -1.1144    0.0000 C   0  0  0  0  0  0  0  0  0  0  0  0
   12.4411    2.4271    0.0000 C   0  0  0  0  0  0  0  0  0  0  0  0
    9.7991   -0.0798    0.0000 C   0  0  0  0  0  0  0  0  0  0  0  0
   10.6931   -1.6422    0.0000 C   0  0  0  0  0  0  0  0  0  0  0  0
    9.7910   -1.1214    0.0000 C   0  0  0  0  0  0  0  0  0  0  0  0
    8.8722    0.4843    0.0000 C   0  0  0  0  0  0  0  0  0  0  0  0
    8.8556   -1.6711    0.0000 C   0  0  0  0  0  0  0  0  0  0  0  0
    7.9244   -0.0436    0.0000 C   0  0  0  0  0  0  0  0  0  0  0  0
    7.9160   -1.1286    0.0000 C   0  0  0  0  0  0  0  0  0  0  0  0
    3.5840   -1.6119    0.0000 C   0  0  0  0  0  0  0  0  0  0  0  0
    2.6720   -1.2017    0.0000 C   0  0  0  0  0  0  0  0  0  0  0  0
    3.4756   -2.6060    0.0000 C   0  0  0  0  0  0  0  0  0  0  0  0
    2.0000   -1.9422    0.0000 C   0  0  0  0  0  0  0  0  0  0  0  0
    2.4967   -2.8102    0.0000 C   0  0  0  0  0  0  0  0  0  0  0  0
    4.4519   -1.1153    0.0000 C   0  0  0  0  0  0  0  0  0  0  0  0
    5.3160   -1.6186    0.0000 C   0  0  0  0  0  0  0  0  0  0  0  0
    6.1840   -1.1219    0.0000 C   0  0  0  0  0  0  0  0  0  0  0  0
   12.5067   -0.1895    0.0000 H   0  0  0  0  0  0  0  0  0  0  0  0
   12.1144   -0.3788    0.0000 H   0  0  0  0  0  0  0  0  0  0  0  0
   11.2460    0.7371    0.0000 H   0  0  0  0  0  0  0  0  0  0  0  0
   12.9499    2.1712    0.0000 H   0  0  0  0  0  0  0  0  0  0  0  0
   11.9736    2.4020    0.0000 H   0  0  0  0  0  0  0  0  0  0  0  0
   11.1766    2.4020    0.0000 H   0  0  0  0  0  0  0  0  0  0  0  0
   13.1363   -0.4446    0.0000 H   0  0  0  0  0  0  0  0  0  0  0  0
   13.9247   -0.1869    0.0000 H   0  0  0  0  0  0  0  0  0  0  0  0
   10.4970    2.0097    0.0000 H   0  0  0  0  0  0  0  0  0  0  0  0
   10.0985    1.3194    0.0000 H   0  0  0  0  0  0  0  0  0  0  0  0
   14.4318    0.5123    0.0000 H   0  0  0  0  0  0  0  0  0  0  0  0
   14.4318    1.3418    0.0000 H   0  0  0  0  0  0  0  0  0  0  0  0
   11.8092   -1.6948    0.0000 H   0  0  0  0  0  0  0  0  0  0  0  0
   12.2003   -0.9989    0.0000 H   0  0  0  0  0  0  0  0  0  0  0  0
   13.0611    2.4271    0.0000 H   0  0  0  0  0  0  0  0  0  0  0  0
   12.4411    3.0471    0.0000 H   0  0  0  0  0  0  0  0  0  0  0  0
   11.8211    2.4271    0.0000 H   0  0  0  0  0  0  0  0  0  0  0  0
   10.2958   -2.1182    0.0000 H   0  0  0  0  0  0  0  0  0  0  0  0
   11.0941   -2.1151    0.0000 H   0  0  0  0  0  0  0  0  0  0  0  0
   14.3047    2.8102    0.0000 H   0  0  0  0  0  0  0  0  0  0  0  0
    8.8842    1.1042    0.0000 H   0  0  0  0  0  0  0  0  0  0  0  0
    8.8580   -2.2911    0.0000 H   0  0  0  0  0  0  0  0  0  0  0  0
    7.3910    0.2725    0.0000 H   0  0  0  0  0  0  0  0  0  0  0  0
    4.1026   -1.9516    0.0000 H   0  0  0  0  0  0  0  0  0  0  0  0
    2.9841   -0.6659    0.0000 H   0  0  0  0  0  0  0  0  0  0  0  0
    2.1718   -0.8353    0.0000 H   0  0  0  0  0  0  0  0  0  0  0  0
    3.5380   -3.2229    0.0000 H   0  0  0  0  0  0  0  0  0  0  0  0
    4.0956   -2.6084    0.0000 H   0  0  0  0  0  0  0  0  0  0  0  0
    1.5869   -1.4799    0.0000 H   0  0  0  0  0  0  0  0  0  0  0  0
    1.4970   -2.3047    0.0000 H   0  0  0  0  0  0  0  0  0  0  0  0
    1.9293   -3.0602    0.0000 H   0  0  0  0  0  0  0  0  0  0  0  0
    2.6860   -3.4006    0.0000 H   0  0  0  0  0  0  0  0  0  0  0  0
    4.8523   -0.6419    0.0000 H   0  0  0  0  0  0  0  0  0  0  0  0
    4.0552   -0.6388    0.0000 H   0  0  0  0  0  0  0  0  0  0  0  0
    4.9156   -2.0920    0.0000 H   0  0  0  0  0  0  0  0  0  0  0  0
    5.7127   -2.0951    0.0000 H   0  0  0  0  0  0  0  0  0  0  0  0
  1  8  1  0  0  0  0
  1 49  1  0  0  0  0
  2 21  1  0  0  0  0
  2 29  1  0  0  0  0
  3 29  2  0  0  0  0
  4  5  1  0  0  0  0
  4  8  1  0  0  0  0
  4  9  1  0  0  0  0
  4 14  1  0  0  0  0
  5  6  1  0  0  0  0
  5 10  1  0  0  0  0
  5 30  1  0  0  0  0
  6  7  1  0  0  0  0
  6 13  1  0  0  0  0
  6 31  1  0  0  0  0
  7 11  1  0  0  0  0
  7 15  1  0  0  0  0
  7 32  1  0  0  0  0
  8 12  1  0  0  0  0
  8 33  1  0  0  0  0
  9 11  1  0  0  0  0
  9 34  1  0  0  0  0
  9 35  1  0  0  0  0
 10 12  1  0  0  0  0
 10 36  1  0  0  0  0
 10 37  1  0  0  0  0
 11 38  1  0  0  0  0
 11 39  1  0  0  0  0
 12 40  1  0  0  0  0
 12 41  1  0  0  0  0
 13 16  1  0  0  0  0
 13 42  1  0  0  0  0
 13 43  1  0  0  0  0
 14 44  1  0  0  0  0
 14 45  1  0  0  0  0
 14 46  1  0  0  0  0
 15 17  2  0  0  0  0
 15 18  1  0  0  0  0
 16 17  1  0  0  0  0
 16 47  1  0  0  0  0
 16 48  1  0  0  0  0
 17 19  1  0  0  0  0
 18 20  2  0  0  0  0
 18 50  1  0  0  0  0
 19 21  2  0  0  0  0
 19 51  1  0  0  0  0
 20 21  1  0  0  0  0
 20 52  1  0  0  0  0
 22 23  1  0  0  0  0
 22 24  1  0  0  0  0
 22 27  1  0  0  0  0
 22 53  1  0  0  0  0
 23 25  1  0  0  0  0
 23 54  1  0  0  0  0
 23 55  1  0  0  0  0
 24 26  1  0  0  0  0
 24 56  1  0  0  0  0
 24 57  1  0  0  0  0
 25 26  1  0  0  0  0
 25 58  1  0  0  0  0
 25 59  1  0  0  0  0
 26 60  1  0  0  0  0
 26 61  1  0  0  0  0
 27 28  1  0  0  0  0
 27 62  1  0  0  0  0
 27 63  1  0  0  0  0
 28 29  1  0  0  0  0
 28 64  1  0  0  0  0
 28 65  1  0  0  0  0
M  END
> <PUBCHEM_COMPOUND_CID>
520519
> <PUBCHEM_COMPOUND_CANONICALIZED>
1
> <PUBCHEM_CACTVS_COMPLEXITY>
597
> <PUBCHEM_CACTVS_HBOND_ACCEPTOR>
3
> <PUBCHEM_CACTVS_HBOND_DONOR>
1
> <PUBCHEM_CACTVS_ROTATABLE_BOND>
5
> <PUBCHEM_CACTVS_SUBSKEYS>
AAADcfB4MAAAAAAAAAAAAAAAAAAAAYMAAAAwYMAAAAAAAGDBAAAAGgAACAAADxSgmAIyDoAABgCIAiDSCAACCAAgIAAIiAEGCIgMNjKEMRqCeiCkwBEIqAeIyPCPoAABAAAQAADAAAYAACAAAIAADAAAAA==
> <PUBCHEM_IUPAC_OPENEYE_NAME>
(17-hydroxy-13-methyl-6,7,8,9,11,12,14,15,16,17-decahydrocyclopenta[a]phenanthren-3-yl) 3-cyclopentylpropanoate
> <PUBCHEM_IUPAC_CAS_NAME>
3-cyclopentylpropanoic acid (17-hydroxy-13-methyl-6,7,8,9,11,12,14,15,16,17-decahydrocyclopenta[a]phenanthren-3-yl) ester
> <PUBCHEM_IUPAC_NAME_MARKUP>
(17-hydroxy-13-methyl-6,7,8,9,11,12,14,15,16,17-decahydrocyclopenta[a]phenanthren-3-yl) 3-cyclopentylpropanoate
> <PUBCHEM_IUPAC_NAME>
(17-hydroxy-13-methyl-6,7,8,9,11,12,14,15,16,17-decahydrocyclopenta[a]phenanthren-3-yl) 3-cyclopentylpropanoate
> <PUBCHEM_IUPAC_SYSTEMATIC_NAME>
(13-methyl-17-oxidanyl-6,7,8,9,11,12,14,15,16,17-decahydrocyclopenta[a]phenanthren-3-yl) 3-cyclopentylpropanoate
> <PUBCHEM_IUPAC_TRADITIONAL_NAME>
3-cyclopentylpropionic acid (17-hydroxy-13-methyl-6,7,8,9,11,12,14,15,16,17-decahydrocyclopenta[a]phenanthren-3-yl) ester
> <PUBCHEM_IUPAC_INCHI>
InChI=1S/C26H36O3/c1-26-15-14-21-20-10-8-19(29-25(28)13-6-17-4-2-3-5-17)16-18(20)7-9-22(21)23(26)11-12-24(26)27/h8,10,16-17,21-24,27H,2-7,9,11-15H2,1H3
> <PUBCHEM_IUPAC_INCHIKEY>
FKRVEVDSHLGWGC-UHFFFAOYSA-N
> <PUBCHEM_XLOGP3>
5.3
> <PUBCHEM_EXACT_MASS>
396.26644501
> <PUBCHEM_MOLECULAR_FORMULA>
C26H36O3
> <PUBCHEM_MOLECULAR_WEIGHT>
396.6
> <PUBCHEM_OPENEYE_CAN_SMILES>
CC12CCC3C(C1CCC2O)CCC4=C3C=CC(=C4)OC(=O)CCC5CCCC5
> <PUBCHEM_OPENEYE_ISO_SMILES>
CC12CCC3C(C1CCC2O)CCC4=C3C=CC(=C4)OC(=O)CCC5CCCC5
> <PUBCHEM_CACTVS_TPSA>
46.5
> <PUBCHEM_MONOISOTOPIC_WEIGHT>
396.26644501
> <PUBCHEM_TOTAL_CHARGE>
0
> <PUBCHEM_HEAVY_ATOM_COUNT>
29
> <PUBCHEM_ATOM_DEF_STEREO_COUNT>
0
> <PUBCHEM_ATOM_UDEF_STEREO_COUNT>
5
> <PUBCHEM_BOND_DEF_STEREO_COUNT>
0
> <PUBCHEM_BOND_UDEF_STEREO_COUNT>
0
> <PUBCHEM_ISOTOPIC_ATOM_COUNT>
0
> <PUBCHEM_COMPONENT_COUNT>
1
> <PUBCHEM_CACTVS_TAUTO_COUNT>
-1
> <PUBCHEM_COORDINATE_TYPE>
1
5
255
> <PUBCHEM_BONDANNOTATIONS>
8  1  3
15  17  8
15  18  8
17  19  8
18  20  8
19  21  8
20  21  8
4  14  3
5  10  3
6  13  3
7  11  3
$$$$
