520593
  -OEChem-10302200292D
 21 20  0     1  0  0  0  0  0999 V2000
    2.6340   -0.8170    0.0000 O   0  0  0  0  0  0  0  0  0  0  0  0
    5.2320   -0.3170    0.0000 O   0  0  0  0  0  0  0  0  0  0  0  0
    4.3660    1.1830    0.0000 O   0  0  0  0  0  0  0  0  0  0  0  0
    3.5000   -0.3170    0.0000 C   0  0  3  0  0  0  0  0  0  0  0  0
    3.0000    0.5490    0.0000 C   0  0  0  0  0  0  0  0  0  0  0  0
    4.0000   -1.1830    0.0000 C   0  0  0  0  0  0  0  0  0  0  0  0
    4.3660    0.1830    0.0000 C   0  0  0  0  0  0  0  0  0  0  0  0
    2.0000    0.5490    0.0000 C   0  0  0  0  0  0  0  0  0  0  0  0
    6.0981    0.1830    0.0000 C   0  0  0  0  0  0  0  0  0  0  0  0
    3.5826    0.7611    0.0000 H   0  0  0  0  0  0  0  0  0  0  0  0
    2.8923    1.1596    0.0000 H   0  0  0  0  0  0  0  0  0  0  0  0
    3.4631   -1.4930    0.0000 H   0  0  0  0  0  0  0  0  0  0  0  0
    4.3100   -1.7200    0.0000 H   0  0  0  0  0  0  0  0  0  0  0  0
    4.5369   -0.8730    0.0000 H   0  0  0  0  0  0  0  0  0  0  0  0
    2.0000    1.1690    0.0000 H   0  0  0  0  0  0  0  0  0  0  0  0
    1.3800    0.5490    0.0000 H   0  0  0  0  0  0  0  0  0  0  0  0
    2.0000   -0.0710    0.0000 H   0  0  0  0  0  0  0  0  0  0  0  0
    2.0970   -0.5070    0.0000 H   0  0  0  0  0  0  0  0  0  0  0  0
    6.4081   -0.3539    0.0000 H   0  0  0  0  0  0  0  0  0  0  0  0
    6.6350    0.4930    0.0000 H   0  0  0  0  0  0  0  0  0  0  0  0
    5.7881    0.7199    0.0000 H   0  0  0  0  0  0  0  0  0  0  0  0
  1  4  1  0  0  0  0
  1 18  1  0  0  0  0
  2  7  1  0  0  0  0
  2  9  1  0  0  0  0
  3  7  2  0  0  0  0
  4  5  1  0  0  0  0
  4  6  1  0  0  0  0
  4  7  1  0  0  0  0
  5  8  1  0  0  0  0
  5 10  1  0  0  0  0
  5 11  1  0  0  0  0
  6 12  1  0  0  0  0
  6 13  1  0  0  0  0
  6 14  1  0  0  0  0
  8 15  1  0  0  0  0
  8 16  1  0  0  0  0
  8 17  1  0  0  0  0
  9 19  1  0  0  0  0
  9 20  1  0  0  0  0
  9 21  1  0  0  0  0
M  END
> <PUBCHEM_COMPOUND_CID>
520593
> <PUBCHEM_COMPOUND_CANONICALIZED>
1
> <PUBCHEM_CACTVS_COMPLEXITY>
111
> <PUBCHEM_CACTVS_HBOND_ACCEPTOR>
3
> <PUBCHEM_CACTVS_HBOND_DONOR>
1
> <PUBCHEM_CACTVS_ROTATABLE_BOND>
3
> <PUBCHEM_CACTVS_SUBSKEYS>
AAADccBgMAAAAAAAAAAAAAAAAAAAAAAAAAAAAAAAAAAAAAAAAAAAGgAACAAADESAgAICCAAABgAIAACQCAIAAAAAAAAAAAFAAAABABAAAAAAQAAEAAADAAAAAAAIAAAAAAAAAAAAAAAAAAAAAAAAAAAAAA==
> <PUBCHEM_IUPAC_OPENEYE_NAME>
methyl 2-hydroxy-2-methyl-butanoate
> <PUBCHEM_IUPAC_CAS_NAME>
2-hydroxy-2-methylbutanoic acid methyl ester
> <PUBCHEM_IUPAC_NAME_MARKUP>
methyl 2-hydroxy-2-methylbutanoate
> <PUBCHEM_IUPAC_NAME>
methyl 2-hydroxy-2-methylbutanoate
> <PUBCHEM_IUPAC_SYSTEMATIC_NAME>
methyl 2-methyl-2-oxidanyl-butanoate
> <PUBCHEM_IUPAC_TRADITIONAL_NAME>
2-hydroxy-2-methyl-butyric acid methyl ester
> <PUBCHEM_IUPAC_INCHI>
InChI=1S/C6H12O3/c1-4-6(2,8)5(7)9-3/h8H,4H2,1-3H3
> <PUBCHEM_IUPAC_INCHIKEY>
FMXYCZVOMYLMKM-UHFFFAOYSA-N
> <PUBCHEM_XLOGP3_AA>
0.6
> <PUBCHEM_EXACT_MASS>
132.078644241
> <PUBCHEM_MOLECULAR_FORMULA>
C6H12O3
> <PUBCHEM_MOLECULAR_WEIGHT>
132.16
> <PUBCHEM_OPENEYE_CAN_SMILES>
CCC(C)(C(=O)OC)O
> <PUBCHEM_OPENEYE_ISO_SMILES>
CCC(C)(C(=O)OC)O
> <PUBCHEM_CACTVS_TPSA>
46.5
> <PUBCHEM_MONOISOTOPIC_WEIGHT>
132.078644241
> <PUBCHEM_TOTAL_CHARGE>
0
> <PUBCHEM_HEAVY_ATOM_COUNT>
9
> <PUBCHEM_ATOM_DEF_STEREO_COUNT>
0
> <PUBCHEM_ATOM_UDEF_STEREO_COUNT>
1
> <PUBCHEM_BOND_DEF_STEREO_COUNT>
0
> <PUBCHEM_BOND_UDEF_STEREO_COUNT>
0
> <PUBCHEM_ISOTOPIC_ATOM_COUNT>
0
> <PUBCHEM_COMPONENT_COUNT>
1
> <PUBCHEM_CACTVS_TAUTO_COUNT>
-1
> <PUBCHEM_COORDINATE_TYPE>
1
5
255
> <PUBCHEM_BONDANNOTATIONS>
4  6  3
$$$$
