520504
  -OEChem-10302200292D
 42 43  0     1  0  0  0  0  0999 V2000
    2.0000   -1.5000    0.0000 O   0  5  0  0  0  0  0  0  0  0  0  0
    2.8660    0.0000    0.0000 O   0  0  0  0  0  0  0  0  0  0  0  0
    5.4641   -4.5000    0.0000 O   0  5  0  0  0  0  0  0  0  0  0  0
    3.7320   -4.5000    0.0000 O   0  0  0  0  0  0  0  0  0  0  0  0
    5.4641    0.5000    0.0000 N   0  0  0  0  0  0  0  0  0  0  0  0
    4.5981    0.0000    0.0000 N   0  0  0  0  0  0  0  0  0  0  0  0
    2.8660   -1.0000    0.0000 N   0  3  0  0  0  0  0  0  0  0  0  0
    4.5981   -4.0000    0.0000 N   0  3  0  0  0  0  0  0  0  0  0  0
    4.5981    3.0000    0.0000 C   0  0  3  0  0  0  0  0  0  0  0  0
    4.5981    2.0000    0.0000 C   0  0  0  0  0  0  0  0  0  0  0  0
    5.4641    3.5000    0.0000 C   0  0  0  0  0  0  0  0  0  0  0  0
    5.4641    1.5000    0.0000 C   0  0  0  0  0  0  0  0  0  0  0  0
    3.7320    3.5000    0.0000 C   0  0  0  0  0  0  0  0  0  0  0  0
    6.3301    2.0000    0.0000 C   0  0  0  0  0  0  0  0  0  0  0  0
    6.3301    3.0000    0.0000 C   0  0  0  0  0  0  0  0  0  0  0  0
    3.7320    4.5000    0.0000 C   0  0  0  0  0  0  0  0  0  0  0  0
    7.1962    1.5000    0.0000 C   0  0  0  0  0  0  0  0  0  0  0  0
    2.8660    3.0000    0.0000 C   0  0  0  0  0  0  0  0  0  0  0  0
    4.5981   -1.0000    0.0000 C   0  0  0  0  0  0  0  0  0  0  0  0
    3.7320   -1.5000    0.0000 C   0  0  0  0  0  0  0  0  0  0  0  0
    5.4641   -1.5000    0.0000 C   0  0  0  0  0  0  0  0  0  0  0  0
    3.7320   -2.5000    0.0000 C   0  0  0  0  0  0  0  0  0  0  0  0
    4.5981   -3.0000    0.0000 C   0  0  0  0  0  0  0  0  0  0  0  0
    5.4641   -2.5000    0.0000 C   0  0  0  0  0  0  0  0  0  0  0  0
    4.5981    3.6200    0.0000 H   0  0  0  0  0  0  0  0  0  0  0  0
    3.9875    2.1077    0.0000 H   0  0  0  0  0  0  0  0  0  0  0  0
    4.3860    1.4174    0.0000 H   0  0  0  0  0  0  0  0  0  0  0  0
    5.8626    3.9750    0.0000 H   0  0  0  0  0  0  0  0  0  0  0  0
    5.0656    3.9750    0.0000 H   0  0  0  0  0  0  0  0  0  0  0  0
    6.8671    3.3100    0.0000 H   0  0  0  0  0  0  0  0  0  0  0  0
    4.3520    4.5000    0.0000 H   0  0  0  0  0  0  0  0  0  0  0  0
    3.7320    5.1200    0.0000 H   0  0  0  0  0  0  0  0  0  0  0  0
    3.1120    4.5000    0.0000 H   0  0  0  0  0  0  0  0  0  0  0  0
    6.8862    0.9631    0.0000 H   0  0  0  0  0  0  0  0  0  0  0  0
    7.7331    1.1900    0.0000 H   0  0  0  0  0  0  0  0  0  0  0  0
    7.5062    2.0369    0.0000 H   0  0  0  0  0  0  0  0  0  0  0  0
    2.3291    3.3100    0.0000 H   0  0  0  0  0  0  0  0  0  0  0  0
    2.8660    2.3800    0.0000 H   0  0  0  0  0  0  0  0  0  0  0  0
    4.0611    0.3100    0.0000 H   0  0  0  0  0  0  0  0  0  0  0  0
    6.0010   -1.1900    0.0000 H   0  0  0  0  0  0  0  0  0  0  0  0
    3.1951   -2.8100    0.0000 H   0  0  0  0  0  0  0  0  0  0  0  0
    6.0010   -2.8100    0.0000 H   0  0  0  0  0  0  0  0  0  0  0  0
  1  7  1  0  0  0  0
  2  7  2  0  0  0  0
  3  8  1  0  0  0  0
  4  8  2  0  0  0  0
  5  6  1  0  0  0  0
  5 12  2  3  0  0  0
  6 19  1  0  0  0  0
  6 39  1  0  0  0  0
  7 20  1  0  0  0  0
  8 23  1  0  0  0  0
  9 10  1  0  0  0  0
  9 11  1  0  0  0  0
  9 13  1  0  0  0  0
  9 25  1  0  0  0  0
 10 12  1  0  0  0  0
 10 26  1  0  0  0  0
 10 27  1  0  0  0  0
 11 15  1  0  0  0  0
 11 28  1  0  0  0  0
 11 29  1  0  0  0  0
 12 14  1  0  0  0  0
 13 16  1  0  0  0  0
 13 18  2  0  0  0  0
 14 15  2  0  0  0  0
 14 17  1  0  0  0  0
 15 30  1  0  0  0  0
 16 31  1  0  0  0  0
 16 32  1  0  0  0  0
 16 33  1  0  0  0  0
 17 34  1  0  0  0  0
 17 35  1  0  0  0  0
 17 36  1  0  0  0  0
 18 37  1  0  0  0  0
 18 38  1  0  0  0  0
 19 20  2  0  0  0  0
 19 21  1  0  0  0  0
 20 22  1  0  0  0  0
 21 24  2  0  0  0  0
 21 40  1  0  0  0  0
 22 23  2  0  0  0  0
 22 41  1  0  0  0  0
 23 24  1  0  0  0  0
 24 42  1  0  0  0  0
M  CHG  4   1  -1   3  -1   7   1   8   1
M  END
> <PUBCHEM_COMPOUND_CID>
520504
> <PUBCHEM_COMPOUND_CANONICALIZED>
1
> <PUBCHEM_CACTVS_COMPLEXITY>
588
> <PUBCHEM_CACTVS_HBOND_ACCEPTOR>
6
> <PUBCHEM_CACTVS_HBOND_DONOR>
1
> <PUBCHEM_CACTVS_ROTATABLE_BOND>
3
> <PUBCHEM_CACTVS_SUBSKEYS>
AAADceB7uAAAAAAAAAAAAAAAAAAAAAAAAAAwQAAAAAAAAAABAAAAHAAcAAAADQiBEAAywIByQAChAyRiQwCSBAAgAgA4iAAwdJoIYCKA0dGAIABgmIAIyAcQgAAOAACAAAQAACAAAQAACAAAQAAAAAAAAA==
> <PUBCHEM_IUPAC_OPENEYE_NAME>
N-[(5-isopropenyl-2-methyl-cyclohex-2-en-1-ylidene)amino]-2,4-dinitro-aniline
> <PUBCHEM_IUPAC_CAS_NAME>
N-[[2-methyl-5-(1-methylethenyl)-1-cyclohex-2-enylidene]amino]-2,4-dinitroaniline
> <PUBCHEM_IUPAC_NAME_MARKUP>
<I>N</I>-[(2-methyl-5-prop-1-en-2-ylcyclohex-2-en-1-ylidene)amino]-2,4-dinitroaniline
> <PUBCHEM_IUPAC_NAME>
N-[(2-methyl-5-prop-1-en-2-ylcyclohex-2-en-1-ylidene)amino]-2,4-dinitroaniline
> <PUBCHEM_IUPAC_SYSTEMATIC_NAME>
N-[(2-methyl-5-prop-1-en-2-yl-cyclohex-2-en-1-ylidene)amino]-2,4-dinitro-aniline
> <PUBCHEM_IUPAC_TRADITIONAL_NAME>
(2,4-dinitrophenyl)-[(5-isopropenyl-2-methyl-cyclohex-2-en-1-ylidene)amino]amine
> <PUBCHEM_IUPAC_INCHI>
InChI=1S/C16H18N4O4/c1-10(2)12-5-4-11(3)15(8-12)18-17-14-7-6-13(19(21)22)9-16(14)20(23)24/h4,6-7,9,12,17H,1,5,8H2,2-3H3
> <PUBCHEM_IUPAC_INCHIKEY>
ZACXARIVELKBSR-UHFFFAOYSA-N
> <PUBCHEM_XLOGP3_AA>
4.8
> <PUBCHEM_EXACT_MASS>
330.13280507
> <PUBCHEM_MOLECULAR_FORMULA>
C16H18N4O4
> <PUBCHEM_MOLECULAR_WEIGHT>
330.34
> <PUBCHEM_OPENEYE_CAN_SMILES>
CC1=CCC(CC1=NNC2=C(C=C(C=C2)[N+](=O)[O-])[N+](=O)[O-])C(=C)C
> <PUBCHEM_OPENEYE_ISO_SMILES>
CC1=CCC(CC1=NNC2=C(C=C(C=C2)[N+](=O)[O-])[N+](=O)[O-])C(=C)C
> <PUBCHEM_CACTVS_TPSA>
116
> <PUBCHEM_MONOISOTOPIC_WEIGHT>
330.13280507
> <PUBCHEM_TOTAL_CHARGE>
0
> <PUBCHEM_HEAVY_ATOM_COUNT>
24
> <PUBCHEM_ATOM_DEF_STEREO_COUNT>
0
> <PUBCHEM_ATOM_UDEF_STEREO_COUNT>
1
> <PUBCHEM_BOND_DEF_STEREO_COUNT>
0
> <PUBCHEM_BOND_UDEF_STEREO_COUNT>
1
> <PUBCHEM_ISOTOPIC_ATOM_COUNT>
0
> <PUBCHEM_COMPONENT_COUNT>
1
> <PUBCHEM_CACTVS_TAUTO_COUNT>
-1
> <PUBCHEM_COORDINATE_TYPE>
1
5
255
> <PUBCHEM_BONDANNOTATIONS>
19  20  8
19  21  8
20  22  8
21  24  8
22  23  8
23  24  8
5  12  1
9  13  3
$$$$
