520562
  -OEChem-10302200292D
 84 84  0     1  0  0  0  0  0999 V2000
    4.5981   -2.5000    0.0000 Si  0  0  0  0  0  0  0  0  0  0  0  0
    2.8660   -0.5000    0.0000 Si  0  0  0  0  0  0  0  0  0  0  0  0
    8.0622   -0.5000    0.0000 Si  0  0  0  0  0  0  0  0  0  0  0  0
    7.1962    2.0000    0.0000 Si  0  0  0  0  0  0  0  0  0  0  0  0
    2.8660    2.5000    0.0000 Si  0  0  0  0  0  0  0  0  0  0  0  0
    5.4641    1.0000    0.0000 O   0  0  0  0  0  0  0  0  0  0  0  0
    5.4641   -2.0000    0.0000 O   0  0  0  0  0  0  0  0  0  0  0  0
    3.7320   -1.0000    0.0000 O   0  0  0  0  0  0  0  0  0  0  0  0
    7.1962   -1.0000    0.0000 O   0  0  0  0  0  0  0  0  0  0  0  0
    7.1962    1.0000    0.0000 O   0  0  0  0  0  0  0  0  0  0  0  0
    3.7320    2.0000    0.0000 O   0  0  0  0  0  0  0  0  0  0  0  0
    5.4641   -1.0000    0.0000 C   0  0  3  0  0  0  0  0  0  0  0  0
    4.5981   -0.5000    0.0000 C   0  0  3  0  0  0  0  0  0  0  0  0
    6.3301   -0.5000    0.0000 C   0  0  3  0  0  0  0  0  0  0  0  0
    4.5981    0.5000    0.0000 C   0  0  3  0  0  0  0  0  0  0  0  0
    6.3301    0.5000    0.0000 C   0  0  3  0  0  0  0  0  0  0  0  0
    3.7320    1.0000    0.0000 C   0  0  0  0  0  0  0  0  0  0  0  0
    3.7320   -3.0000    0.0000 C   0  0  0  0  0  0  0  0  0  0  0  0
    5.0981   -3.3660    0.0000 C   0  0  0  0  0  0  0  0  0  0  0  0
    4.0981   -1.6340    0.0000 C   0  0  0  0  0  0  0  0  0  0  0  0
    2.0000   -0.0000    0.0000 C   0  0  0  0  0  0  0  0  0  0  0  0
    2.3660   -1.3660    0.0000 C   0  0  0  0  0  0  0  0  0  0  0  0
    3.3660    0.3660    0.0000 C   0  0  0  0  0  0  0  0  0  0  0  0
    8.9282   -0.0000    0.0000 C   0  0  0  0  0  0  0  0  0  0  0  0
    8.5622   -1.3660    0.0000 C   0  0  0  0  0  0  0  0  0  0  0  0
    7.5622    0.3660    0.0000 C   0  0  0  0  0  0  0  0  0  0  0  0
    7.1962    3.0000    0.0000 C   0  0  0  0  0  0  0  0  0  0  0  0
    8.1962    2.0000    0.0000 C   0  0  0  0  0  0  0  0  0  0  0  0
    6.1962    2.0000    0.0000 C   0  0  0  0  0  0  0  0  0  0  0  0
    2.0000    3.0000    0.0000 C   0  0  0  0  0  0  0  0  0  0  0  0
    3.3660    3.3660    0.0000 C   0  0  0  0  0  0  0  0  0  0  0  0
    2.3660    1.6340    0.0000 C   0  0  0  0  0  0  0  0  0  0  0  0
    4.9272   -1.3100    0.0000 H   0  0  0  0  0  0  0  0  0  0  0  0
    4.5981   -1.1200    0.0000 H   0  0  0  0  0  0  0  0  0  0  0  0
    6.3301   -1.1200    0.0000 H   0  0  0  0  0  0  0  0  0  0  0  0
    4.5981    1.1200    0.0000 H   0  0  0  0  0  0  0  0  0  0  0  0
    6.3301    1.1200    0.0000 H   0  0  0  0  0  0  0  0  0  0  0  0
    3.1215    1.1077    0.0000 H   0  0  0  0  0  0  0  0  0  0  0  0
    3.5200    0.4174    0.0000 H   0  0  0  0  0  0  0  0  0  0  0  0
    3.4220   -2.4631    0.0000 H   0  0  0  0  0  0  0  0  0  0  0  0
    3.1951   -3.3100    0.0000 H   0  0  0  0  0  0  0  0  0  0  0  0
    4.0420   -3.5369    0.0000 H   0  0  0  0  0  0  0  0  0  0  0  0
    4.5611   -3.6760    0.0000 H   0  0  0  0  0  0  0  0  0  0  0  0
    5.4081   -3.9030    0.0000 H   0  0  0  0  0  0  0  0  0  0  0  0
    5.6350   -3.0560    0.0000 H   0  0  0  0  0  0  0  0  0  0  0  0
    4.6350   -1.3240    0.0000 H   0  0  0  0  0  0  0  0  0  0  0  0
    3.7881   -1.0970    0.0000 H   0  0  0  0  0  0  0  0  0  0  0  0
    3.5611   -1.9440    0.0000 H   0  0  0  0  0  0  0  0  0  0  0  0
    2.3100    0.5369    0.0000 H   0  0  0  0  0  0  0  0  0  0  0  0
    1.4631    0.3100    0.0000 H   0  0  0  0  0  0  0  0  0  0  0  0
    1.6900   -0.5369    0.0000 H   0  0  0  0  0  0  0  0  0  0  0  0
    1.8291   -1.0560    0.0000 H   0  0  0  0  0  0  0  0  0  0  0  0
    2.0560   -1.9030    0.0000 H   0  0  0  0  0  0  0  0  0  0  0  0
    2.9030   -1.6760    0.0000 H   0  0  0  0  0  0  0  0  0  0  0  0
    3.9030    0.0560    0.0000 H   0  0  0  0  0  0  0  0  0  0  0  0
    3.6760    0.9030    0.0000 H   0  0  0  0  0  0  0  0  0  0  0  0
    2.8291    0.6760    0.0000 H   0  0  0  0  0  0  0  0  0  0  0  0
    9.2382   -0.5369    0.0000 H   0  0  0  0  0  0  0  0  0  0  0  0
    9.4651    0.3100    0.0000 H   0  0  0  0  0  0  0  0  0  0  0  0
    8.6182    0.5369    0.0000 H   0  0  0  0  0  0  0  0  0  0  0  0
    8.0252   -1.6760    0.0000 H   0  0  0  0  0  0  0  0  0  0  0  0
    8.8722   -1.9030    0.0000 H   0  0  0  0  0  0  0  0  0  0  0  0
    9.0991   -1.0560    0.0000 H   0  0  0  0  0  0  0  0  0  0  0  0
    8.0991    0.6760    0.0000 H   0  0  0  0  0  0  0  0  0  0  0  0
    7.2522    0.9030    0.0000 H   0  0  0  0  0  0  0  0  0  0  0  0
    7.0252    0.0560    0.0000 H   0  0  0  0  0  0  0  0  0  0  0  0
    7.8162    3.0000    0.0000 H   0  0  0  0  0  0  0  0  0  0  0  0
    7.1962    3.6200    0.0000 H   0  0  0  0  0  0  0  0  0  0  0  0
    6.5762    3.0000    0.0000 H   0  0  0  0  0  0  0  0  0  0  0  0
    8.1962    1.3800    0.0000 H   0  0  0  0  0  0  0  0  0  0  0  0
    8.8162    2.0000    0.0000 H   0  0  0  0  0  0  0  0  0  0  0  0
    8.1962    2.6200    0.0000 H   0  0  0  0  0  0  0  0  0  0  0  0
    6.1962    2.6200    0.0000 H   0  0  0  0  0  0  0  0  0  0  0  0
    5.5762    2.0000    0.0000 H   0  0  0  0  0  0  0  0  0  0  0  0
    6.1962    1.3800    0.0000 H   0  0  0  0  0  0  0  0  0  0  0  0
    2.3100    3.5369    0.0000 H   0  0  0  0  0  0  0  0  0  0  0  0
    1.4631    3.3100    0.0000 H   0  0  0  0  0  0  0  0  0  0  0  0
    1.6900    2.4631    0.0000 H   0  0  0  0  0  0  0  0  0  0  0  0
    3.9030    3.0560    0.0000 H   0  0  0  0  0  0  0  0  0  0  0  0
    3.6760    3.9030    0.0000 H   0  0  0  0  0  0  0  0  0  0  0  0
    2.8291    3.6760    0.0000 H   0  0  0  0  0  0  0  0  0  0  0  0
    1.8291    1.9440    0.0000 H   0  0  0  0  0  0  0  0  0  0  0  0
    2.0560    1.0970    0.0000 H   0  0  0  0  0  0  0  0  0  0  0  0
    2.9030    1.3240    0.0000 H   0  0  0  0  0  0  0  0  0  0  0  0
  1  7  1  0  0  0  0
  1 18  1  0  0  0  0
  1 19  1  0  0  0  0
  1 20  1  0  0  0  0
  2  8  1  0  0  0  0
  2 21  1  0  0  0  0
  2 22  1  0  0  0  0
  2 23  1  0  0  0  0
  3  9  1  0  0  0  0
  3 24  1  0  0  0  0
  3 25  1  0  0  0  0
  3 26  1  0  0  0  0
  4 10  1  0  0  0  0
  4 27  1  0  0  0  0
  4 28  1  0  0  0  0
  4 29  1  0  0  0  0
  5 11  1  0  0  0  0
  5 30  1  0  0  0  0
  5 31  1  0  0  0  0
  5 32  1  0  0  0  0
  6 15  1  0  0  0  0
  6 16  1  0  0  0  0
  7 12  1  0  0  0  0
  8 13  1  0  0  0  0
  9 14  1  0  0  0  0
 10 16  1  0  0  0  0
 11 17  1  0  0  0  0
 12 13  1  0  0  0  0
 12 14  1  0  0  0  0
 12 33  1  0  0  0  0
 13 15  1  0  0  0  0
 13 34  1  0  0  0  0
 14 16  1  0  0  0  0
 14 35  1  0  0  0  0
 15 17  1  0  0  0  0
 15 36  1  0  0  0  0
 16 37  1  0  0  0  0
 17 38  1  0  0  0  0
 17 39  1  0  0  0  0
 18 40  1  0  0  0  0
 18 41  1  0  0  0  0
 18 42  1  0  0  0  0
 19 43  1  0  0  0  0
 19 44  1  0  0  0  0
 19 45  1  0  0  0  0
 20 46  1  0  0  0  0
 20 47  1  0  0  0  0
 20 48  1  0  0  0  0
 21 49  1  0  0  0  0
 21 50  1  0  0  0  0
 21 51  1  0  0  0  0
 22 52  1  0  0  0  0
 22 53  1  0  0  0  0
 22 54  1  0  0  0  0
 23 55  1  0  0  0  0
 23 56  1  0  0  0  0
 23 57  1  0  0  0  0
 24 58  1  0  0  0  0
 24 59  1  0  0  0  0
 24 60  1  0  0  0  0
 25 61  1  0  0  0  0
 25 62  1  0  0  0  0
 25 63  1  0  0  0  0
 26 64  1  0  0  0  0
 26 65  1  0  0  0  0
 26 66  1  0  0  0  0
 27 67  1  0  0  0  0
 27 68  1  0  0  0  0
 27 69  1  0  0  0  0
 28 70  1  0  0  0  0
 28 71  1  0  0  0  0
 28 72  1  0  0  0  0
 29 73  1  0  0  0  0
 29 74  1  0  0  0  0
 29 75  1  0  0  0  0
 30 76  1  0  0  0  0
 30 77  1  0  0  0  0
 30 78  1  0  0  0  0
 31 79  1  0  0  0  0
 31 80  1  0  0  0  0
 31 81  1  0  0  0  0
 32 82  1  0  0  0  0
 32 83  1  0  0  0  0
 32 84  1  0  0  0  0
M  END
> <PUBCHEM_COMPOUND_CID>
520562
> <PUBCHEM_COMPOUND_CANONICALIZED>
1
> <PUBCHEM_CACTVS_COMPLEXITY>
586
> <PUBCHEM_CACTVS_HBOND_ACCEPTOR>
6
> <PUBCHEM_CACTVS_HBOND_DONOR>
0
> <PUBCHEM_CACTVS_ROTATABLE_BOND>
11
> <PUBCHEM_CACTVS_SUBSKEYS>
AAADcfB4OAwAAAAAAAAAAAAAAAAAAAAAAAAkAAAAAAAAAAAAAAAAGhAAAEAACBSwgANCCAAABAEAAAAAAAAAAAAAAAAAAAAAAAARAAIAAAACAAAFAAAGAAHAYAQAAAAAAAAAAAAAAAAAAAAAAAAAAAAAAA==
> <PUBCHEM_IUPAC_OPENEYE_NAME>
trimethyl-[[3,4,5,6-tetrakis(trimethylsilyloxy)tetrahydropyran-2-yl]methoxy]silane
> <PUBCHEM_IUPAC_CAS_NAME>
trimethyl-[[3,4,5,6-tetrakis(trimethylsilyloxy)-2-oxanyl]methoxy]silane
> <PUBCHEM_IUPAC_NAME_MARKUP>
trimethyl-[[3,4,5,6-tetrakis(trimethylsilyloxy)oxan-2-yl]methoxy]silane
> <PUBCHEM_IUPAC_NAME>
trimethyl-[[3,4,5,6-tetrakis(trimethylsilyloxy)oxan-2-yl]methoxy]silane
> <PUBCHEM_IUPAC_SYSTEMATIC_NAME>
trimethyl-[[3,4,5,6-tetrakis(trimethylsilyloxy)oxan-2-yl]methoxy]silane
> <PUBCHEM_IUPAC_TRADITIONAL_NAME>
trimethyl-[[3,4,5,6-tetrakis(trimethylsilyloxy)tetrahydropyran-2-yl]methoxy]silane
> <PUBCHEM_IUPAC_INCHI>
InChI=1S/C21H52O6Si5/c1-28(2,3)22-16-17-18(24-29(4,5)6)19(25-30(7,8)9)20(26-31(10,11)12)21(23-17)27-32(13,14)15/h17-21H,16H2,1-15H3
> <PUBCHEM_IUPAC_INCHIKEY>
PPFHNIVPOLWPCF-UHFFFAOYSA-N
> <PUBCHEM_EXACT_MASS>
540.26102205
> <PUBCHEM_MOLECULAR_FORMULA>
C21H52O6Si5
> <PUBCHEM_MOLECULAR_WEIGHT>
541.1
> <PUBCHEM_OPENEYE_CAN_SMILES>
C[Si](C)(C)OCC1C(C(C(C(O1)O[Si](C)(C)C)O[Si](C)(C)C)O[Si](C)(C)C)O[Si](C)(C)C
> <PUBCHEM_OPENEYE_ISO_SMILES>
C[Si](C)(C)OCC1C(C(C(C(O1)O[Si](C)(C)C)O[Si](C)(C)C)O[Si](C)(C)C)O[Si](C)(C)C
> <PUBCHEM_CACTVS_TPSA>
55.4
> <PUBCHEM_MONOISOTOPIC_WEIGHT>
540.26102205
> <PUBCHEM_TOTAL_CHARGE>
0
> <PUBCHEM_HEAVY_ATOM_COUNT>
32
> <PUBCHEM_ATOM_DEF_STEREO_COUNT>
0
> <PUBCHEM_ATOM_UDEF_STEREO_COUNT>
5
> <PUBCHEM_BOND_DEF_STEREO_COUNT>
0
> <PUBCHEM_BOND_UDEF_STEREO_COUNT>
0
> <PUBCHEM_ISOTOPIC_ATOM_COUNT>
0
> <PUBCHEM_COMPONENT_COUNT>
1
> <PUBCHEM_CACTVS_TAUTO_COUNT>
-1
> <PUBCHEM_COORDINATE_TYPE>
1
5
255
> <PUBCHEM_BONDANNOTATIONS>
16  10  3
15  17  3
12  7  3
13  8  3
14  9  3
$$$$
