520554
  -OEChem-10302200292D
 16 16  0     1  0  0  0  0  0999 V2000
    4.2320   -0.6830    0.0000 O   0  0  0  0  0  0  0  0  0  0  0  0
    3.7320    0.1830    0.0000 C   0  0  3  0  0  0  0  0  0  0  0  0
    4.7320    0.1830    0.0000 C   0  0  3  0  0  0  0  0  0  0  0  0
    2.8660    0.6830    0.0000 C   0  0  0  0  0  0  0  0  0  0  0  0
    5.5981    0.6830    0.0000 C   0  0  0  0  0  0  0  0  0  0  0  0
    2.0000    0.1830    0.0000 C   0  0  0  0  0  0  0  0  0  0  0  0
    3.1310   -0.4180    0.0000 H   0  0  0  0  0  0  0  0  0  0  0  0
    5.3331   -0.4180    0.0000 H   0  0  0  0  0  0  0  0  0  0  0  0
    3.2646    1.1580    0.0000 H   0  0  0  0  0  0  0  0  0  0  0  0
    2.4675    1.1580    0.0000 H   0  0  0  0  0  0  0  0  0  0  0  0
    5.9081    0.1461    0.0000 H   0  0  0  0  0  0  0  0  0  0  0  0
    6.1350    0.9930    0.0000 H   0  0  0  0  0  0  0  0  0  0  0  0
    5.2881    1.2200    0.0000 H   0  0  0  0  0  0  0  0  0  0  0  0
    1.6900    0.7199    0.0000 H   0  0  0  0  0  0  0  0  0  0  0  0
    1.4631   -0.1270    0.0000 H   0  0  0  0  0  0  0  0  0  0  0  0
    2.3100   -0.3539    0.0000 H   0  0  0  0  0  0  0  0  0  0  0  0
  1  2  1  0  0  0  0
  1  3  1  0  0  0  0
  2  3  1  0  0  0  0
  2  4  1  0  0  0  0
  2  7  1  0  0  0  0
  3  5  1  0  0  0  0
  3  8  1  0  0  0  0
  4  6  1  0  0  0  0
  4  9  1  0  0  0  0
  4 10  1  0  0  0  0
  5 11  1  0  0  0  0
  5 12  1  0  0  0  0
  5 13  1  0  0  0  0
  6 14  1  0  0  0  0
  6 15  1  0  0  0  0
  6 16  1  0  0  0  0
M  END
> <PUBCHEM_COMPOUND_CID>
520554
> <PUBCHEM_COMPOUND_CANONICALIZED>
1
> <PUBCHEM_CACTVS_COMPLEXITY>
51.9
> <PUBCHEM_CACTVS_HBOND_ACCEPTOR>
1
> <PUBCHEM_CACTVS_HBOND_DONOR>
0
> <PUBCHEM_CACTVS_ROTATABLE_BOND>
1
> <PUBCHEM_CACTVS_SUBSKEYS>
AAADccBgIAAAAAAAAAAAAAAAEgAAAAAAAAAAAAAAAAAAAAAAAAAAGgAAAAAACBSggAICAAAABAAAAAAAAAAAAAAAAAAAAAAAAAAAAAIAAAACAAAEAAAAAAAAAAAAAAAAAAAAAAAAAAAAAAAAAAAAAAAAAA==
> <PUBCHEM_IUPAC_OPENEYE_NAME>
2-ethyl-3-methyl-oxirane
> <PUBCHEM_IUPAC_CAS_NAME>
2-ethyl-3-methyloxirane
> <PUBCHEM_IUPAC_NAME_MARKUP>
2-ethyl-3-methyloxirane
> <PUBCHEM_IUPAC_NAME>
2-ethyl-3-methyloxirane
> <PUBCHEM_IUPAC_SYSTEMATIC_NAME>
2-ethyl-3-methyl-oxirane
> <PUBCHEM_IUPAC_TRADITIONAL_NAME>
2-ethyl-3-methyl-oxirane
> <PUBCHEM_IUPAC_INCHI>
InChI=1S/C5H10O/c1-3-5-4(2)6-5/h4-5H,3H2,1-2H3
> <PUBCHEM_IUPAC_INCHIKEY>
BCJPEZMFAKOJPM-UHFFFAOYSA-N
> <PUBCHEM_XLOGP3_AA>
1.2
> <PUBCHEM_EXACT_MASS>
86.073164938
> <PUBCHEM_MOLECULAR_FORMULA>
C5H10O
> <PUBCHEM_MOLECULAR_WEIGHT>
86.13
> <PUBCHEM_OPENEYE_CAN_SMILES>
CCC1C(O1)C
> <PUBCHEM_OPENEYE_ISO_SMILES>
CCC1C(O1)C
> <PUBCHEM_CACTVS_TPSA>
12.5
> <PUBCHEM_MONOISOTOPIC_WEIGHT>
86.073164938
> <PUBCHEM_TOTAL_CHARGE>
0
> <PUBCHEM_HEAVY_ATOM_COUNT>
6
> <PUBCHEM_ATOM_DEF_STEREO_COUNT>
0
> <PUBCHEM_ATOM_UDEF_STEREO_COUNT>
2
> <PUBCHEM_BOND_DEF_STEREO_COUNT>
0
> <PUBCHEM_BOND_UDEF_STEREO_COUNT>
0
> <PUBCHEM_ISOTOPIC_ATOM_COUNT>
0
> <PUBCHEM_COMPONENT_COUNT>
1
> <PUBCHEM_CACTVS_TAUTO_COUNT>
1
> <PUBCHEM_COORDINATE_TYPE>
1
5
255
> <PUBCHEM_BONDANNOTATIONS>
2  7  3
3  8  3
$$$$
