520625
  -OEChem-10302200292D
 23 23  0     1  0  0  0  0  0999 V2000
    2.5369   -1.4050    0.0000 O   0  0  0  0  0  0  0  0  0  0  0  0
    4.2690   -2.4050    0.0000 O   0  0  0  0  0  0  0  0  0  0  0  0
    5.1350    2.0950    0.0000 O   0  0  0  0  0  0  0  0  0  0  0  0
    3.4030    2.0950    0.0000 O   0  0  0  0  0  0  0  0  0  0  0  0
    4.2690    0.5950    0.0000 C   0  0  3  0  0  0  0  0  0  0  0  0
    3.4030   -0.9050    0.0000 C   0  0  3  0  0  0  0  0  0  0  0  0
    3.4030    0.0950    0.0000 C   0  0  0  0  0  0  0  0  0  0  0  0
    4.2690   -1.4050    0.0000 C   0  0  3  0  0  0  0  0  0  0  0  0
    5.1350    0.0950    0.0000 C   0  0  0  0  0  0  0  0  0  0  0  0
    5.1350   -0.9050    0.0000 C   0  0  0  0  0  0  0  0  0  0  0  0
    4.2690    1.5950    0.0000 C   0  0  0  0  0  0  0  0  0  0  0  0
    5.0051    1.0200    0.0000 H   0  0  0  0  0  0  0  0  0  0  0  0
    3.4030   -1.7550    0.0000 H   0  0  0  0  0  0  0  0  0  0  0  0
    3.1909    0.6776    0.0000 H   0  0  0  0  0  0  0  0  0  0  0  0
    2.7924   -0.0127    0.0000 H   0  0  0  0  0  0  0  0  0  0  0  0
    5.0051   -1.8300    0.0000 H   0  0  0  0  0  0  0  0  0  0  0  0
    5.7456   -0.0127    0.0000 H   0  0  0  0  0  0  0  0  0  0  0  0
    5.3471    0.6776    0.0000 H   0  0  0  0  0  0  0  0  0  0  0  0
    5.3471   -1.4876    0.0000 H   0  0  0  0  0  0  0  0  0  0  0  0
    5.7456   -0.7973    0.0000 H   0  0  0  0  0  0  0  0  0  0  0  0
    2.0000   -1.0950    0.0000 H   0  0  0  0  0  0  0  0  0  0  0  0
    4.8059   -2.7150    0.0000 H   0  0  0  0  0  0  0  0  0  0  0  0
    5.1350    2.7150    0.0000 H   0  0  0  0  0  0  0  0  0  0  0  0
  1  6  1  0  0  0  0
  1 21  1  0  0  0  0
  2  8  1  0  0  0  0
  2 22  1  0  0  0  0
  3 11  1  0  0  0  0
  3 23  1  0  0  0  0
  4 11  2  0  0  0  0
  5  7  1  0  0  0  0
  5  9  1  0  0  0  0
  5 11  1  0  0  0  0
  5 12  1  0  0  0  0
  6  7  1  0  0  0  0
  6  8  1  0  0  0  0
  6 13  1  0  0  0  0
  7 14  1  0  0  0  0
  7 15  1  0  0  0  0
  8 10  1  0  0  0  0
  8 16  1  0  0  0  0
  9 10  1  0  0  0  0
  9 17  1  0  0  0  0
  9 18  1  0  0  0  0
 10 19  1  0  0  0  0
 10 20  1  0  0  0  0
M  END
> <PUBCHEM_COMPOUND_CID>
520625
> <PUBCHEM_COMPOUND_CANONICALIZED>
1
> <PUBCHEM_CACTVS_COMPLEXITY>
157
> <PUBCHEM_CACTVS_HBOND_ACCEPTOR>
4
> <PUBCHEM_CACTVS_HBOND_DONOR>
3
> <PUBCHEM_CACTVS_ROTATABLE_BOND>
1
> <PUBCHEM_CACTVS_SUBSKEYS>
AAADccBgOAAAAAAAAAAAAAAAAAAAAAAAAAAwAAAAAAAAAAAAAAAAGgAACAAADRSggAIACAAAAgAIAACQCAAAAAAAAAAAAAEAAAABEBIAAAAAQAAEAAABAAHK7DTOAAAAAAAAAABAAAIAAACAAAAAAAAAAA==
> <PUBCHEM_IUPAC_OPENEYE_NAME>
3,4-dihydroxycyclohexanecarboxylic acid
> <PUBCHEM_IUPAC_CAS_NAME>
3,4-dihydroxy-1-cyclohexanecarboxylic acid
> <PUBCHEM_IUPAC_NAME_MARKUP>
3,4-dihydroxycyclohexane-1-carboxylic acid
> <PUBCHEM_IUPAC_NAME>
3,4-dihydroxycyclohexane-1-carboxylic acid
> <PUBCHEM_IUPAC_SYSTEMATIC_NAME>
3,4-bis(oxidanyl)cyclohexane-1-carboxylic acid
> <PUBCHEM_IUPAC_TRADITIONAL_NAME>
3,4-dihydroxycyclohexanecarboxylic acid
> <PUBCHEM_IUPAC_INCHI>
InChI=1S/C7H12O4/c8-5-2-1-4(7(10)11)3-6(5)9/h4-6,8-9H,1-3H2,(H,10,11)
> <PUBCHEM_IUPAC_INCHIKEY>
PTPROPUVXIZJPL-UHFFFAOYSA-N
> <PUBCHEM_XLOGP3_AA>
-0.6
> <PUBCHEM_EXACT_MASS>
160.07355886
> <PUBCHEM_MOLECULAR_FORMULA>
C7H12O4
> <PUBCHEM_MOLECULAR_WEIGHT>
160.17
> <PUBCHEM_OPENEYE_CAN_SMILES>
C1CC(C(CC1C(=O)O)O)O
> <PUBCHEM_OPENEYE_ISO_SMILES>
C1CC(C(CC1C(=O)O)O)O
> <PUBCHEM_CACTVS_TPSA>
77.8
> <PUBCHEM_MONOISOTOPIC_WEIGHT>
160.07355886
> <PUBCHEM_TOTAL_CHARGE>
0
> <PUBCHEM_HEAVY_ATOM_COUNT>
11
> <PUBCHEM_ATOM_DEF_STEREO_COUNT>
0
> <PUBCHEM_ATOM_UDEF_STEREO_COUNT>
3
> <PUBCHEM_BOND_DEF_STEREO_COUNT>
0
> <PUBCHEM_BOND_UDEF_STEREO_COUNT>
0
> <PUBCHEM_ISOTOPIC_ATOM_COUNT>
0
> <PUBCHEM_COMPONENT_COUNT>
1
> <PUBCHEM_CACTVS_TAUTO_COUNT>
1
> <PUBCHEM_COORDINATE_TYPE>
1
5
255
> <PUBCHEM_BONDANNOTATIONS>
5  12  3
6  13  3
8  16  3
$$$$
