520663
  -OEChem-10302200292D
 31 31  0     1  0  0  0  0  0999 V2000
    5.4543   -0.4197    0.0000 O   0  0  0  0  0  0  0  0  0  0  0  0
    4.6453    0.1681    0.0000 C   0  0  3  0  0  0  0  0  0  0  0  0
    6.2633    0.1681    0.0000 C   0  0  0  0  0  0  0  0  0  0  0  0
    4.9543    1.1191    0.0000 C   0  0  0  0  0  0  0  0  0  0  0  0
    5.9543    1.1191    0.0000 C   0  0  0  0  0  0  0  0  0  0  0  0
    3.6942   -0.1410    0.0000 C   0  0  3  0  0  0  0  0  0  0  0  0
    2.9511    0.5282    0.0000 C   0  0  0  0  0  0  0  0  0  0  0  0
    6.8511   -0.6410    0.0000 C   0  0  0  0  0  0  0  0  0  0  0  0
    7.2144    0.4771    0.0000 C   0  0  0  0  0  0  0  0  0  0  0  0
    3.4863   -1.1191    0.0000 C   0  0  0  0  0  0  0  0  0  0  0  0
    2.0000    0.2192    0.0000 C   0  0  0  0  0  0  0  0  0  0  0  0
    4.5483   -0.4443    0.0000 H   0  0  0  0  0  0  0  0  0  0  0  0
    5.0191    1.7357    0.0000 H   0  0  0  0  0  0  0  0  0  0  0  0
    4.3478    1.2480    0.0000 H   0  0  0  0  0  0  0  0  0  0  0  0
    6.5607    1.2480    0.0000 H   0  0  0  0  0  0  0  0  0  0  0  0
    5.8895    1.7357    0.0000 H   0  0  0  0  0  0  0  0  0  0  0  0
    3.1046   -0.3326    0.0000 H   0  0  0  0  0  0  0  0  0  0  0  0
    3.4396    0.9099    0.0000 H   0  0  0  0  0  0  0  0  0  0  0  0
    2.6600    1.0756    0.0000 H   0  0  0  0  0  0  0  0  0  0  0  0
    6.3495   -1.0054    0.0000 H   0  0  0  0  0  0  0  0  0  0  0  0
    7.2155   -1.1426    0.0000 H   0  0  0  0  0  0  0  0  0  0  0  0
    7.3527   -0.2765    0.0000 H   0  0  0  0  0  0  0  0  0  0  0  0
    7.4059   -0.1126    0.0000 H   0  0  0  0  0  0  0  0  0  0  0  0
    7.8040    0.6687    0.0000 H   0  0  0  0  0  0  0  0  0  0  0  0
    7.0228    1.0667    0.0000 H   0  0  0  0  0  0  0  0  0  0  0  0
    2.8798   -0.9902    0.0000 H   0  0  0  0  0  0  0  0  0  0  0  0
    3.3574   -1.7256    0.0000 H   0  0  0  0  0  0  0  0  0  0  0  0
    4.0927   -1.2480    0.0000 H   0  0  0  0  0  0  0  0  0  0  0  0
    1.8084    0.8088    0.0000 H   0  0  0  0  0  0  0  0  0  0  0  0
    1.4103    0.0276    0.0000 H   0  0  0  0  0  0  0  0  0  0  0  0
    2.1916   -0.3705    0.0000 H   0  0  0  0  0  0  0  0  0  0  0  0
  1  2  1  0  0  0  0
  1  3  1  0  0  0  0
  2  4  1  0  0  0  0
  2  6  1  0  0  0  0
  2 12  1  0  0  0  0
  3  5  1  0  0  0  0
  3  8  1  0  0  0  0
  3  9  1  0  0  0  0
  4  5  1  0  0  0  0
  4 13  1  0  0  0  0
  4 14  1  0  0  0  0
  5 15  1  0  0  0  0
  5 16  1  0  0  0  0
  6  7  1  0  0  0  0
  6 10  1  0  0  0  0
  6 17  1  0  0  0  0
  7 11  1  0  0  0  0
  7 18  1  0  0  0  0
  7 19  1  0  0  0  0
  8 20  1  0  0  0  0
  8 21  1  0  0  0  0
  8 22  1  0  0  0  0
  9 23  1  0  0  0  0
  9 24  1  0  0  0  0
  9 25  1  0  0  0  0
 10 26  1  0  0  0  0
 10 27  1  0  0  0  0
 10 28  1  0  0  0  0
 11 29  1  0  0  0  0
 11 30  1  0  0  0  0
 11 31  1  0  0  0  0
M  END
> <PUBCHEM_COMPOUND_CID>
520663
> <PUBCHEM_COMPOUND_CANONICALIZED>
1
> <PUBCHEM_CACTVS_COMPLEXITY>
129
> <PUBCHEM_CACTVS_HBOND_ACCEPTOR>
1
> <PUBCHEM_CACTVS_HBOND_DONOR>
0
> <PUBCHEM_CACTVS_ROTATABLE_BOND>
2
> <PUBCHEM_CACTVS_SUBSKEYS>
AAADceBwIAAAAAAAAAAAAAAAAAAAASAAAAAAAAAAAAAAAAAAAAAAGgAAAAAADVSggAICAAAABAAAAAAAAAAAAAAAAAAAAAAAAAAAAAIAAAACAAAEAAAAAAGAwPAOAAAAAAAAAAAAAAAAAAAAAAAAAAAAAA==
> <PUBCHEM_IUPAC_OPENEYE_NAME>
2,2-dimethyl-5-sec-butyl-tetrahydrofuran
> <PUBCHEM_IUPAC_CAS_NAME>
5-butan-2-yl-2,2-dimethyloxolane
> <PUBCHEM_IUPAC_NAME_MARKUP>
5-butan-2-yl-2,2-dimethyloxolane
> <PUBCHEM_IUPAC_NAME>
5-butan-2-yl-2,2-dimethyloxolane
> <PUBCHEM_IUPAC_SYSTEMATIC_NAME>
5-butan-2-yl-2,2-dimethyl-oxolane
> <PUBCHEM_IUPAC_TRADITIONAL_NAME>
2,2-dimethyl-5-sec-butyl-tetrahydrofuran
> <PUBCHEM_IUPAC_INCHI>
InChI=1S/C10H20O/c1-5-8(2)9-6-7-10(3,4)11-9/h8-9H,5-7H2,1-4H3
> <PUBCHEM_IUPAC_INCHIKEY>
KGTIVYATFDLQDC-UHFFFAOYSA-N
> <PUBCHEM_XLOGP3_AA>
2.9
> <PUBCHEM_EXACT_MASS>
156.151415257
> <PUBCHEM_MOLECULAR_FORMULA>
C10H20O
> <PUBCHEM_MOLECULAR_WEIGHT>
156.26
> <PUBCHEM_OPENEYE_CAN_SMILES>
CCC(C)C1CCC(O1)(C)C
> <PUBCHEM_OPENEYE_ISO_SMILES>
CCC(C)C1CCC(O1)(C)C
> <PUBCHEM_CACTVS_TPSA>
9.2
> <PUBCHEM_MONOISOTOPIC_WEIGHT>
156.151415257
> <PUBCHEM_TOTAL_CHARGE>
0
> <PUBCHEM_HEAVY_ATOM_COUNT>
11
> <PUBCHEM_ATOM_DEF_STEREO_COUNT>
0
> <PUBCHEM_ATOM_UDEF_STEREO_COUNT>
2
> <PUBCHEM_BOND_DEF_STEREO_COUNT>
0
> <PUBCHEM_BOND_UDEF_STEREO_COUNT>
0
> <PUBCHEM_ISOTOPIC_ATOM_COUNT>
0
> <PUBCHEM_COMPONENT_COUNT>
1
> <PUBCHEM_CACTVS_TAUTO_COUNT>
1
> <PUBCHEM_COORDINATE_TYPE>
1
5
255
> <PUBCHEM_BONDANNOTATIONS>
2  4  3
6  10  3
$$$$
