520694
  -OEChem-10302200292D
 25 25  0     1  0  0  0  0  0999 V2000
    2.0000   -1.5950    0.0000 Cl  0  0  0  0  0  0  0  0  0  0  0  0
    5.4641   -1.5950    0.0000 Cl  0  0  0  0  0  0  0  0  0  0  0  0
    3.7320   -2.5950    0.0000 O   0  0  0  0  0  0  0  0  0  0  0  0
    3.7320    1.4050    0.0000 C   0  0  3  0  0  0  0  0  0  0  0  0
    4.5981    1.9050    0.0000 C   0  0  0  0  0  0  0  0  0  0  0  0
    3.7320    0.4050    0.0000 C   0  0  0  0  0  0  0  0  0  0  0  0
    2.8660    1.9050    0.0000 C   0  0  0  0  0  0  0  0  0  0  0  0
    4.5981    2.9050    0.0000 C   0  0  0  0  0  0  0  0  0  0  0  0
    4.5981   -0.0950    0.0000 C   0  0  0  0  0  0  0  0  0  0  0  0
    2.8660   -0.0950    0.0000 C   0  0  0  0  0  0  0  0  0  0  0  0
    2.8660   -1.0950    0.0000 C   0  0  0  0  0  0  0  0  0  0  0  0
    4.5981   -1.0950    0.0000 C   0  0  0  0  0  0  0  0  0  0  0  0
    3.7320   -1.5950    0.0000 C   0  0  0  0  0  0  0  0  0  0  0  0
    3.7320    2.2550    0.0000 H   0  0  0  0  0  0  0  0  0  0  0  0
    4.8101    1.3224    0.0000 H   0  0  0  0  0  0  0  0  0  0  0  0
    5.2087    2.0127    0.0000 H   0  0  0  0  0  0  0  0  0  0  0  0
    3.1760    2.4419    0.0000 H   0  0  0  0  0  0  0  0  0  0  0  0
    2.3291    2.2150    0.0000 H   0  0  0  0  0  0  0  0  0  0  0  0
    2.5560    1.3681    0.0000 H   0  0  0  0  0  0  0  0  0  0  0  0
    5.2181    2.9050    0.0000 H   0  0  0  0  0  0  0  0  0  0  0  0
    4.5981    3.5250    0.0000 H   0  0  0  0  0  0  0  0  0  0  0  0
    3.9781    2.9050    0.0000 H   0  0  0  0  0  0  0  0  0  0  0  0
    5.1350    0.2150    0.0000 H   0  0  0  0  0  0  0  0  0  0  0  0
    2.3291    0.2150    0.0000 H   0  0  0  0  0  0  0  0  0  0  0  0
    3.1951   -2.9050    0.0000 H   0  0  0  0  0  0  0  0  0  0  0  0
  1 11  1  0  0  0  0
  2 12  1  0  0  0  0
  3 13  1  0  0  0  0
  3 25  1  0  0  0  0
  4  5  1  0  0  0  0
  4  6  1  0  0  0  0
  4  7  1  0  0  0  0
  4 14  1  0  0  0  0
  5  8  1  0  0  0  0
  5 15  1  0  0  0  0
  5 16  1  0  0  0  0
  6  9  2  0  0  0  0
  6 10  1  0  0  0  0
  7 17  1  0  0  0  0
  7 18  1  0  0  0  0
  7 19  1  0  0  0  0
  8 20  1  0  0  0  0
  8 21  1  0  0  0  0
  8 22  1  0  0  0  0
  9 12  1  0  0  0  0
  9 23  1  0  0  0  0
 10 11  2  0  0  0  0
 10 24  1  0  0  0  0
 11 13  1  0  0  0  0
 12 13  2  0  0  0  0
M  END
> <PUBCHEM_COMPOUND_CID>
520694
> <PUBCHEM_COMPOUND_CANONICALIZED>
1
> <PUBCHEM_CACTVS_COMPLEXITY>
151
> <PUBCHEM_CACTVS_HBOND_ACCEPTOR>
1
> <PUBCHEM_CACTVS_HBOND_DONOR>
1
> <PUBCHEM_CACTVS_ROTATABLE_BOND>
2
> <PUBCHEM_CACTVS_SUBSKEYS>
AAADccBwIAAGAAAAAAAAAAAAAAAAAAAAAAAwAAAAAAAAAAABAAAAGgIACAAADQaAmCAyBoAAAgCAAiBCAAACAAAgJUAAiAAEC4gIJiKDExKAcAAkwBEImAeAwPAOoAAAIACACABAAABAAQAQAAAAAAAAAA==
> <PUBCHEM_IUPAC_OPENEYE_NAME>
2,6-dichloro-4-sec-butyl-phenol
> <PUBCHEM_IUPAC_CAS_NAME>
4-butan-2-yl-2,6-dichlorophenol
> <PUBCHEM_IUPAC_NAME_MARKUP>
4-butan-2-yl-2,6-dichlorophenol
> <PUBCHEM_IUPAC_NAME>
4-butan-2-yl-2,6-dichlorophenol
> <PUBCHEM_IUPAC_SYSTEMATIC_NAME>
4-butan-2-yl-2,6-bis(chloranyl)phenol
> <PUBCHEM_IUPAC_TRADITIONAL_NAME>
2,6-dichloro-4-sec-butyl-phenol
> <PUBCHEM_IUPAC_INCHI>
InChI=1S/C10H12Cl2O/c1-3-6(2)7-4-8(11)10(13)9(12)5-7/h4-6,13H,3H2,1-2H3
> <PUBCHEM_IUPAC_INCHIKEY>
DZKJAGRVOGNQGW-UHFFFAOYSA-N
> <PUBCHEM_XLOGP3_AA>
4.5
> <PUBCHEM_EXACT_MASS>
218.0265204
> <PUBCHEM_MOLECULAR_FORMULA>
C10H12Cl2O
> <PUBCHEM_MOLECULAR_WEIGHT>
219.10
> <PUBCHEM_OPENEYE_CAN_SMILES>
CCC(C)C1=CC(=C(C(=C1)Cl)O)Cl
> <PUBCHEM_OPENEYE_ISO_SMILES>
CCC(C)C1=CC(=C(C(=C1)Cl)O)Cl
> <PUBCHEM_CACTVS_TPSA>
20.2
> <PUBCHEM_MONOISOTOPIC_WEIGHT>
218.0265204
> <PUBCHEM_TOTAL_CHARGE>
0
> <PUBCHEM_HEAVY_ATOM_COUNT>
13
> <PUBCHEM_ATOM_DEF_STEREO_COUNT>
0
> <PUBCHEM_ATOM_UDEF_STEREO_COUNT>
1
> <PUBCHEM_BOND_DEF_STEREO_COUNT>
0
> <PUBCHEM_BOND_UDEF_STEREO_COUNT>
0
> <PUBCHEM_ISOTOPIC_ATOM_COUNT>
0
> <PUBCHEM_COMPONENT_COUNT>
1
> <PUBCHEM_CACTVS_TAUTO_COUNT>
2
> <PUBCHEM_COORDINATE_TYPE>
1
5
255
> <PUBCHEM_BONDANNOTATIONS>
10  11  8
11  13  8
12  13  8
4  14  3
6  10  8
6  9  8
9  12  8
$$$$
