520687
  -OEChem-10302200292D
 52 55  0     1  0  0  0  0  0999 V2000
    5.6538    0.1310    0.0000 C   0  0  3  0  0  0  0  0  0  0  0  0
    4.7853    0.6266    0.0000 C   0  0  3  0  0  0  0  0  0  0  0  0
    3.8778    0.1153    0.0000 C   0  0  3  0  0  0  0  0  0  0  0  0
    3.8750   -0.9264    0.0000 C   0  0  3  0  0  0  0  0  0  0  0  0
    5.6751   -0.9104    0.0000 C   0  0  0  0  0  0  0  0  0  0  0  0
    5.6293    1.3123    0.0000 C   0  0  0  0  0  0  0  0  0  0  0  0
    4.7797   -1.4427    0.0000 C   0  0  0  0  0  0  0  0  0  0  0  0
    6.3054    2.2814    0.0000 C   0  0  3  0  0  0  0  0  0  0  0  0
    2.9423   -1.4807    0.0000 C   0  0  0  0  0  0  0  0  0  0  0  0
    4.6313    1.6147    0.0000 C   0  0  0  0  0  0  0  0  0  0  0  0
    6.5828    0.5009    0.0000 C   0  0  0  0  0  0  0  0  0  0  0  0
    2.9482    0.6747    0.0000 C   0  0  0  0  0  0  0  0  0  0  0  0
    5.3078    2.3512    0.0000 C   0  0  0  0  0  0  0  0  0  0  0  0
    6.8728    1.4580    0.0000 C   0  0  0  0  0  0  0  0  0  0  0  0
    3.8806    1.1153    0.0000 C   0  0  0  0  0  0  0  0  0  0  0  0
    2.0000   -0.9429    0.0000 C   0  0  0  0  0  0  0  0  0  0  0  0
    2.0029    0.1421    0.0000 C   0  0  0  0  0  0  0  0  0  0  0  0
    2.4500   -2.3512    0.0000 C   0  0  0  0  0  0  0  0  0  0  0  0
    3.4500   -2.3423    0.0000 C   0  0  0  0  0  0  0  0  0  0  0  0
    7.8609    1.6120    0.0000 C   0  0  0  0  0  0  0  0  0  0  0  0
    5.2958    0.9785    0.0000 H   0  0  0  0  0  0  0  0  0  0  0  0
    3.8805   -1.5463    0.0000 H   0  0  0  0  0  0  0  0  0  0  0  0
    5.8960   -1.4897    0.0000 H   0  0  0  0  0  0  0  0  0  0  0  0
    6.2836   -0.7919    0.0000 H   0  0  0  0  0  0  0  0  0  0  0  0
    5.2551    1.8066    0.0000 H   0  0  0  0  0  0  0  0  0  0  0  0
    5.0436    1.1089    0.0000 H   0  0  0  0  0  0  0  0  0  0  0  0
    4.3847   -1.9206    0.0000 H   0  0  0  0  0  0  0  0  0  0  0  0
    5.1830   -1.9136    0.0000 H   0  0  0  0  0  0  0  0  0  0  0  0
    6.6127    2.8199    0.0000 H   0  0  0  0  0  0  0  0  0  0  0  0
    4.2795    2.1252    0.0000 H   0  0  0  0  0  0  0  0  0  0  0  0
    4.0553    1.3853    0.0000 H   0  0  0  0  0  0  0  0  0  0  0  0
    6.6783   -0.1117    0.0000 H   0  0  0  0  0  0  0  0  0  0  0  0
    7.2013    0.4577    0.0000 H   0  0  0  0  0  0  0  0  0  0  0  0
    3.3541    1.1434    0.0000 H   0  0  0  0  0  0  0  0  0  0  0  0
    2.5559    1.1548    0.0000 H   0  0  0  0  0  0  0  0  0  0  0  0
    5.4876    2.9445    0.0000 H   0  0  0  0  0  0  0  0  0  0  0  0
    4.7694    2.6585    0.0000 H   0  0  0  0  0  0  0  0  0  0  0  0
    4.5005    1.1136    0.0000 H   0  0  0  0  0  0  0  0  0  0  0  0
    3.8822    1.7353    0.0000 H   0  0  0  0  0  0  0  0  0  0  0  0
    3.2606    1.1170    0.0000 H   0  0  0  0  0  0  0  0  0  0  0  0
    1.3894   -0.8352    0.0000 H   0  0  0  0  0  0  0  0  0  0  0  0
    1.7894   -1.5261    0.0000 H   0  0  0  0  0  0  0  0  0  0  0  0
    1.7955    0.7263    0.0000 H   0  0  0  0  0  0  0  0  0  0  0  0
    1.3918    0.0376    0.0000 H   0  0  0  0  0  0  0  0  0  0  0  0
    1.9104   -2.0459    0.0000 H   0  0  0  0  0  0  0  0  0  0  0  0
    2.1448   -2.8908    0.0000 H   0  0  0  0  0  0  0  0  0  0  0  0
    2.9897   -2.6564    0.0000 H   0  0  0  0  0  0  0  0  0  0  0  0
    2.9158   -2.6570    0.0000 H   0  0  0  0  0  0  0  0  0  0  0  0
    3.7647   -2.8765    0.0000 H   0  0  0  0  0  0  0  0  0  0  0  0
    3.9841   -2.0276    0.0000 H   0  0  0  0  0  0  0  0  0  0  0  0
    8.2499    1.1292    0.0000 H   0  0  0  0  0  0  0  0  0  0  0  0
    8.0845    2.1902    0.0000 H   0  0  0  0  0  0  0  0  0  0  0  0
  1  2  1  0  0  0  0
  1  5  1  0  0  0  0
  1  6  1  0  0  0  0
  1 11  1  0  0  0  0
  2  3  1  0  0  0  0
  2 10  1  0  0  0  0
  2 21  1  0  0  0  0
  3  4  1  0  0  0  0
  3 12  1  0  0  0  0
  3 15  1  0  0  0  0
  4  7  1  0  0  0  0
  4  9  1  0  0  0  0
  4 22  1  0  0  0  0
  5  7  1  0  0  0  0
  5 23  1  0  0  0  0
  5 24  1  0  0  0  0
  6  8  1  0  0  0  0
  6 25  1  0  0  0  0
  6 26  1  0  0  0  0
  7 27  1  0  0  0  0
  7 28  1  0  0  0  0
  8 13  1  0  0  0  0
  8 14  1  0  0  0  0
  8 29  1  0  0  0  0
  9 16  1  0  0  0  0
  9 18  1  0  0  0  0
  9 19  1  0  0  0  0
 10 13  1  0  0  0  0
 10 30  1  0  0  0  0
 10 31  1  0  0  0  0
 11 14  1  0  0  0  0
 11 32  1  0  0  0  0
 11 33  1  0  0  0  0
 12 17  1  0  0  0  0
 12 34  1  0  0  0  0
 12 35  1  0  0  0  0
 13 36  1  0  0  0  0
 13 37  1  0  0  0  0
 14 20  2  0  0  0  0
 15 38  1  0  0  0  0
 15 39  1  0  0  0  0
 15 40  1  0  0  0  0
 16 17  1  0  0  0  0
 16 41  1  0  0  0  0
 16 42  1  0  0  0  0
 17 43  1  0  0  0  0
 17 44  1  0  0  0  0
 18 45  1  0  0  0  0
 18 46  1  0  0  0  0
 18 47  1  0  0  0  0
 19 48  1  0  0  0  0
 19 49  1  0  0  0  0
 19 50  1  0  0  0  0
 20 51  1  0  0  0  0
 20 52  1  0  0  0  0
M  END
> <PUBCHEM_COMPOUND_CID>
520687
> <PUBCHEM_COMPOUND_CANONICALIZED>
1
> <PUBCHEM_CACTVS_COMPLEXITY>
445
> <PUBCHEM_CACTVS_HBOND_ACCEPTOR>
0
> <PUBCHEM_CACTVS_HBOND_DONOR>
0
> <PUBCHEM_CACTVS_ROTATABLE_BOND>
0
> <PUBCHEM_CACTVS_SUBSKEYS>
AAADcfB4AAAAAAAAAAAAAAAAAAAAAYAAAAAwYMAABgAAAADAAAAAGAAAAAAADwCAAAACAAAAAACAAgBCAAAAAAAgAAAAAAAAAAgAAAIAAQAAAAAAgAAAAAEAgMAPgAAAAAAAAACAAAQAACAAAQAAAAAAAA==
> <PUBCHEM_IUPAC_OPENEYE_NAME>
5,5,9-trimethyl-14-methylene-tetracyclo[11.2.1.01,10.04,9]hexadecane
> <PUBCHEM_IUPAC_CAS_NAME>
5,5,9-trimethyl-14-methylenetetracyclo[11.2.1.01,10.04,9]hexadecane
> <PUBCHEM_IUPAC_NAME_MARKUP>
5,5,9-trimethyl-14-methylidenetetracyclo[11.2.1.0<SUP>1,10</SUP>.0<SUP>4,9</SUP>]hexadecane
> <PUBCHEM_IUPAC_NAME>
5,5,9-trimethyl-14-methylidenetetracyclo[11.2.1.01,10.04,9]hexadecane
> <PUBCHEM_IUPAC_SYSTEMATIC_NAME>
5,5,9-trimethyl-14-methylidene-tetracyclo[11.2.1.01,10.04,9]hexadecane
> <PUBCHEM_IUPAC_TRADITIONAL_NAME>
5,5,9-trimethyl-14-methylene-tetracyclo[11.2.1.01,10.04,9]hexadecane
> <PUBCHEM_IUPAC_INCHI>
InChI=1S/C20H32/c1-14-12-20-11-8-16-18(2,3)9-5-10-19(16,4)17(20)7-6-15(14)13-20/h15-17H,1,5-13H2,2-4H3
> <PUBCHEM_IUPAC_INCHIKEY>
ONVABDHFQKWOSV-UHFFFAOYSA-N
> <PUBCHEM_XLOGP3_AA>
6.9
> <PUBCHEM_EXACT_MASS>
272.250401021
> <PUBCHEM_MOLECULAR_FORMULA>
C20H32
> <PUBCHEM_MOLECULAR_WEIGHT>
272.5
> <PUBCHEM_OPENEYE_CAN_SMILES>
CC1(CCCC2(C1CCC34C2CCC(C3)C(=C)C4)C)C
> <PUBCHEM_OPENEYE_ISO_SMILES>
CC1(CCCC2(C1CCC34C2CCC(C3)C(=C)C4)C)C
> <PUBCHEM_CACTVS_TPSA>
0
> <PUBCHEM_MONOISOTOPIC_WEIGHT>
272.250401021
> <PUBCHEM_TOTAL_CHARGE>
0
> <PUBCHEM_HEAVY_ATOM_COUNT>
20
> <PUBCHEM_ATOM_DEF_STEREO_COUNT>
0
> <PUBCHEM_ATOM_UDEF_STEREO_COUNT>
5
> <PUBCHEM_BOND_DEF_STEREO_COUNT>
0
> <PUBCHEM_BOND_UDEF_STEREO_COUNT>
0
> <PUBCHEM_ISOTOPIC_ATOM_COUNT>
0
> <PUBCHEM_COMPONENT_COUNT>
1
> <PUBCHEM_CACTVS_TAUTO_COUNT>
-1
> <PUBCHEM_COORDINATE_TYPE>
1
5
255
> <PUBCHEM_BONDANNOTATIONS>
1  5  3
2  10  3
3  15  3
4  7  3
8  13  3
$$$$
