520763
  -OEChem-10302200292D
 27 26  0     1  0  0  0  0  0999 V2000
    5.1350    1.3450    0.0000 O   0  0  0  0  0  0  0  0  0  0  0  0
    2.5369   -0.1550    0.0000 O   0  0  0  0  0  0  0  0  0  0  0  0
    3.4030   -1.6550    0.0000 O   0  0  0  0  0  0  0  0  0  0  0  0
    4.2690   -0.1550    0.0000 C   0  0  0  0  0  0  0  0  0  0  0  0
    5.1350    0.3450    0.0000 C   0  0  3  0  0  0  0  0  0  0  0  0
    6.0010   -0.1550    0.0000 C   0  0  0  0  0  0  0  0  0  0  0  0
    3.7690    0.7110    0.0000 C   0  0  0  0  0  0  0  0  0  0  0  0
    4.7690   -1.0210    0.0000 C   0  0  0  0  0  0  0  0  0  0  0  0
    6.8671    0.3450    0.0000 C   0  0  0  0  0  0  0  0  0  0  0  0
    6.0010   -1.1550    0.0000 C   0  0  0  0  0  0  0  0  0  0  0  0
    3.4030   -0.6550    0.0000 C   0  0  0  0  0  0  0  0  0  0  0  0
    5.8711    0.7700    0.0000 H   0  0  0  0  0  0  0  0  0  0  0  0
    6.5380   -0.4650    0.0000 H   0  0  0  0  0  0  0  0  0  0  0  0
    4.3059    1.0210    0.0000 H   0  0  0  0  0  0  0  0  0  0  0  0
    3.4590    1.2480    0.0000 H   0  0  0  0  0  0  0  0  0  0  0  0
    3.2320    0.4010    0.0000 H   0  0  0  0  0  0  0  0  0  0  0  0
    4.2320   -1.3310    0.0000 H   0  0  0  0  0  0  0  0  0  0  0  0
    5.0790   -1.5580    0.0000 H   0  0  0  0  0  0  0  0  0  0  0  0
    5.3059   -0.7110    0.0000 H   0  0  0  0  0  0  0  0  0  0  0  0
    7.1771   -0.1919    0.0000 H   0  0  0  0  0  0  0  0  0  0  0  0
    7.4040    0.6550    0.0000 H   0  0  0  0  0  0  0  0  0  0  0  0
    6.5571    0.8819    0.0000 H   0  0  0  0  0  0  0  0  0  0  0  0
    5.3810   -1.1550    0.0000 H   0  0  0  0  0  0  0  0  0  0  0  0
    6.0010   -1.7750    0.0000 H   0  0  0  0  0  0  0  0  0  0  0  0
    6.6210   -1.1550    0.0000 H   0  0  0  0  0  0  0  0  0  0  0  0
    5.6720    1.6550    0.0000 H   0  0  0  0  0  0  0  0  0  0  0  0
    2.0000   -0.4650    0.0000 H   0  0  0  0  0  0  0  0  0  0  0  0
  1  5  1  0  0  0  0
  1 26  1  0  0  0  0
  2 11  1  0  0  0  0
  2 27  1  0  0  0  0
  3 11  2  0  0  0  0
  4  5  1  0  0  0  0
  4  7  1  0  0  0  0
  4  8  1  0  0  0  0
  4 11  1  0  0  0  0
  5  6  1  0  0  0  0
  5 12  1  0  0  0  0
  6  9  1  0  0  0  0
  6 10  1  0  0  0  0
  6 13  1  0  0  0  0
  7 14  1  0  0  0  0
  7 15  1  0  0  0  0
  7 16  1  0  0  0  0
  8 17  1  0  0  0  0
  8 18  1  0  0  0  0
  8 19  1  0  0  0  0
  9 20  1  0  0  0  0
  9 21  1  0  0  0  0
  9 22  1  0  0  0  0
 10 23  1  0  0  0  0
 10 24  1  0  0  0  0
 10 25  1  0  0  0  0
M  END
> <PUBCHEM_COMPOUND_CID>
520763
> <PUBCHEM_COMPOUND_CANONICALIZED>
1
> <PUBCHEM_CACTVS_COMPLEXITY>
149
> <PUBCHEM_CACTVS_HBOND_ACCEPTOR>
3
> <PUBCHEM_CACTVS_HBOND_DONOR>
2
> <PUBCHEM_CACTVS_ROTATABLE_BOND>
3
> <PUBCHEM_CACTVS_SUBSKEYS>
AAADceBwMAAAAAAAAAAAAAAAAAAAAAAAAAAAAAAAAAAAAAAAAAAAGgAACAAADxSggAICCAAAAgAIAACQCAAAAAAAAAAAAAEAAAAAEBYAAAAAQAAFIAAAAACIAAANAAAAAAAAAAAAAAAAAAAAAAAAAAAAAA==
> <PUBCHEM_IUPAC_OPENEYE_NAME>
3-hydroxy-2,2,4-trimethyl-pentanoic acid
> <PUBCHEM_IUPAC_CAS_NAME>
3-hydroxy-2,2,4-trimethylpentanoic acid
> <PUBCHEM_IUPAC_NAME_MARKUP>
3-hydroxy-2,2,4-trimethylpentanoic acid
> <PUBCHEM_IUPAC_NAME>
3-hydroxy-2,2,4-trimethylpentanoic acid
> <PUBCHEM_IUPAC_SYSTEMATIC_NAME>
2,2,4-trimethyl-3-oxidanyl-pentanoic acid
> <PUBCHEM_IUPAC_TRADITIONAL_NAME>
3-hydroxy-2,2,4-trimethyl-valeric acid
> <PUBCHEM_IUPAC_INCHI>
InChI=1S/C8H16O3/c1-5(2)6(9)8(3,4)7(10)11/h5-6,9H,1-4H3,(H,10,11)
> <PUBCHEM_IUPAC_INCHIKEY>
OJLBQZJKORZRDZ-UHFFFAOYSA-N
> <PUBCHEM_XLOGP3_AA>
1.4
> <PUBCHEM_EXACT_MASS>
160.109944368
> <PUBCHEM_MOLECULAR_FORMULA>
C8H16O3
> <PUBCHEM_MOLECULAR_WEIGHT>
160.21
> <PUBCHEM_OPENEYE_CAN_SMILES>
CC(C)C(C(C)(C)C(=O)O)O
> <PUBCHEM_OPENEYE_ISO_SMILES>
CC(C)C(C(C)(C)C(=O)O)O
> <PUBCHEM_CACTVS_TPSA>
57.5
> <PUBCHEM_MONOISOTOPIC_WEIGHT>
160.109944368
> <PUBCHEM_TOTAL_CHARGE>
0
> <PUBCHEM_HEAVY_ATOM_COUNT>
11
> <PUBCHEM_ATOM_DEF_STEREO_COUNT>
0
> <PUBCHEM_ATOM_UDEF_STEREO_COUNT>
1
> <PUBCHEM_BOND_DEF_STEREO_COUNT>
0
> <PUBCHEM_BOND_UDEF_STEREO_COUNT>
0
> <PUBCHEM_ISOTOPIC_ATOM_COUNT>
0
> <PUBCHEM_COMPONENT_COUNT>
1
> <PUBCHEM_CACTVS_TAUTO_COUNT>
1
> <PUBCHEM_COORDINATE_TYPE>
1
5
255
> <PUBCHEM_BONDANNOTATIONS>
5  12  3
$$$$
