520723
  -OEChem-10302200292D
 21 20  0     1  0  0  0  0  0999 V2000
    2.8660    0.0670    0.0000 P   0  0  3  0  0  0  0  0  0  0  0  0
    2.0000   -0.4330    0.0000 F   0  0  0  0  0  0  0  0  0  0  0  0
    3.7320    0.5670    0.0000 O   0  0  0  0  0  0  0  0  0  0  0  0
    3.3660   -0.7990    0.0000 O   0  0  0  0  0  0  0  0  0  0  0  0
    4.5981    0.0670    0.0000 C   0  0  3  0  0  0  0  0  0  0  0  0
    5.4641    0.5670    0.0000 C   0  0  0  0  0  0  0  0  0  0  0  0
    4.5981   -0.9330    0.0000 C   0  0  0  0  0  0  0  0  0  0  0  0
    6.3301    0.0670    0.0000 C   0  0  0  0  0  0  0  0  0  0  0  0
    2.3660    0.9330    0.0000 C   0  0  0  0  0  0  0  0  0  0  0  0
    4.5981    0.9170    0.0000 H   0  0  0  0  0  0  0  0  0  0  0  0
    5.8626    1.0419    0.0000 H   0  0  0  0  0  0  0  0  0  0  0  0
    5.0656    1.0419    0.0000 H   0  0  0  0  0  0  0  0  0  0  0  0
    3.9781   -0.9330    0.0000 H   0  0  0  0  0  0  0  0  0  0  0  0
    4.5981   -1.5530    0.0000 H   0  0  0  0  0  0  0  0  0  0  0  0
    5.2181   -0.9330    0.0000 H   0  0  0  0  0  0  0  0  0  0  0  0
    6.0201   -0.4699    0.0000 H   0  0  0  0  0  0  0  0  0  0  0  0
    6.8671   -0.2430    0.0000 H   0  0  0  0  0  0  0  0  0  0  0  0
    6.6401    0.6039    0.0000 H   0  0  0  0  0  0  0  0  0  0  0  0
    2.9030    1.2430    0.0000 H   0  0  0  0  0  0  0  0  0  0  0  0
    2.0560    1.4700    0.0000 H   0  0  0  0  0  0  0  0  0  0  0  0
    1.8291    0.6230    0.0000 H   0  0  0  0  0  0  0  0  0  0  0  0
  1  2  1  0  0  0  0
  1  3  1  0  0  0  0
  1  4  2  0  0  0  0
  1  9  1  0  0  0  0
  3  5  1  0  0  0  0
  5  6  1  0  0  0  0
  5  7  1  0  0  0  0
  5 10  1  0  0  0  0
  6  8  1  0  0  0  0
  6 11  1  0  0  0  0
  6 12  1  0  0  0  0
  7 13  1  0  0  0  0
  7 14  1  0  0  0  0
  7 15  1  0  0  0  0
  8 16  1  0  0  0  0
  8 17  1  0  0  0  0
  8 18  1  0  0  0  0
  9 19  1  0  0  0  0
  9 20  1  0  0  0  0
  9 21  1  0  0  0  0
M  END
> <PUBCHEM_COMPOUND_CID>
520723
> <PUBCHEM_COMPOUND_CANONICALIZED>
1
> <PUBCHEM_CACTVS_COMPLEXITY>
126
> <PUBCHEM_CACTVS_HBOND_ACCEPTOR>
3
> <PUBCHEM_CACTVS_HBOND_DONOR>
0
> <PUBCHEM_CACTVS_ROTATABLE_BOND>
3
> <PUBCHEM_CACTVS_SUBSKEYS>
AAADccBgMQIAAAAAAAAAAAAAAAAAAAAAAAAAAAAAAAAAAAAAAAAAGggAACgACBSggAICAAAAARAAQAAAAIAAAAAAAAAAAAAAAAAAAAAAAAAAAAAAAAAAAAAAAAAAAAAAAAAAAAAAAAAAAAAAAAAAAAAAAA==
> <PUBCHEM_IUPAC_OPENEYE_NAME>
2-[fluoro(methyl)phosphoryl]oxybutane
> <PUBCHEM_IUPAC_CAS_NAME>
2-[fluoro(methyl)phosphoryl]oxybutane
> <PUBCHEM_IUPAC_NAME_MARKUP>
2-[fluoro(methyl)phosphoryl]oxybutane
> <PUBCHEM_IUPAC_NAME>
2-[fluoro(methyl)phosphoryl]oxybutane
> <PUBCHEM_IUPAC_SYSTEMATIC_NAME>
2-[fluoranyl(methyl)phosphoryl]oxybutane
> <PUBCHEM_IUPAC_TRADITIONAL_NAME>
2-[fluoro(methyl)phosphoryl]oxybutane
> <PUBCHEM_IUPAC_INCHI>
InChI=1S/C5H12FO2P/c1-4-5(2)8-9(3,6)7/h5H,4H2,1-3H3
> <PUBCHEM_IUPAC_INCHIKEY>
INIUKZAEJHEEFF-UHFFFAOYSA-N
> <PUBCHEM_XLOGP3_AA>
1.3
> <PUBCHEM_EXACT_MASS>
154.05589478
> <PUBCHEM_MOLECULAR_FORMULA>
C5H12FO2P
> <PUBCHEM_MOLECULAR_WEIGHT>
154.12
> <PUBCHEM_OPENEYE_CAN_SMILES>
CCC(C)OP(=O)(C)F
> <PUBCHEM_OPENEYE_ISO_SMILES>
CCC(C)OP(=O)(C)F
> <PUBCHEM_CACTVS_TPSA>
26.3
> <PUBCHEM_MONOISOTOPIC_WEIGHT>
154.05589478
> <PUBCHEM_TOTAL_CHARGE>
0
> <PUBCHEM_HEAVY_ATOM_COUNT>
9
> <PUBCHEM_ATOM_DEF_STEREO_COUNT>
0
> <PUBCHEM_ATOM_UDEF_STEREO_COUNT>
2
> <PUBCHEM_BOND_DEF_STEREO_COUNT>
0
> <PUBCHEM_BOND_UDEF_STEREO_COUNT>
0
> <PUBCHEM_ISOTOPIC_ATOM_COUNT>
0
> <PUBCHEM_COMPONENT_COUNT>
1
> <PUBCHEM_CACTVS_TAUTO_COUNT>
1
> <PUBCHEM_COORDINATE_TYPE>
1
5
255
> <PUBCHEM_BONDANNOTATIONS>
1  2  3
5  10  3
$$$$
