520739
  -OEChem-10302200292D
 39 40  0     1  0  0  0  0  0999 V2000
    6.8474   -0.8249    0.0000 O   0  0  0  0  0  0  0  0  0  0  0  0
    3.3660   -0.0849    0.0000 O   0  0  0  0  0  0  0  0  0  0  0  0
    7.6564   -0.2371    0.0000 C   0  0  3  0  0  0  0  0  0  0  0  0
    6.0384   -0.2371    0.0000 C   0  0  3  0  0  0  0  0  0  0  0  0
    7.3474    0.7140    0.0000 C   0  0  0  0  0  0  0  0  0  0  0  0
    6.3474    0.7140    0.0000 C   0  0  0  0  0  0  0  0  0  0  0  0
    5.0873   -0.5461    0.0000 C   0  0  0  0  0  0  0  0  0  0  0  0
    8.6075    0.0719    0.0000 C   0  0  0  0  0  0  0  0  0  0  0  0
    8.2442   -1.0461    0.0000 C   0  0  0  0  0  0  0  0  0  0  0  0
    4.3442    0.1230    0.0000 C   0  0  0  0  0  0  0  0  0  0  0  0
    2.8660    0.7811    0.0000 C   0  0  0  0  0  0  0  0  0  0  0  0
    4.8794   -1.5243    0.0000 C   0  0  0  0  0  0  0  0  0  0  0  0
    4.4487    1.1175    0.0000 C   0  0  0  0  0  0  0  0  0  0  0  0
    3.5352    1.5243    0.0000 C   0  0  0  0  0  0  0  0  0  0  0  0
    2.1229    1.4502    0.0000 C   0  0  0  0  0  0  0  0  0  0  0  0
    2.0000    0.2811    0.0000 C   0  0  0  0  0  0  0  0  0  0  0  0
    9.2387   -0.9416    0.0000 C   0  0  0  0  0  0  0  0  0  0  0  0
    5.9414   -0.8495    0.0000 H   0  0  0  0  0  0  0  0  0  0  0  0
    7.9538    0.8429    0.0000 H   0  0  0  0  0  0  0  0  0  0  0  0
    7.2826    1.3306    0.0000 H   0  0  0  0  0  0  0  0  0  0  0  0
    6.4122    1.3306    0.0000 H   0  0  0  0  0  0  0  0  0  0  0  0
    5.7409    0.8429    0.0000 H   0  0  0  0  0  0  0  0  0  0  0  0
    8.7991   -0.5177    0.0000 H   0  0  0  0  0  0  0  0  0  0  0  0
    9.1971    0.2635    0.0000 H   0  0  0  0  0  0  0  0  0  0  0  0
    8.4159    0.6616    0.0000 H   0  0  0  0  0  0  0  0  0  0  0  0
    7.9920   -1.6125    0.0000 H   0  0  0  0  0  0  0  0  0  0  0  0
    4.2730   -1.3954    0.0000 H   0  0  0  0  0  0  0  0  0  0  0  0
    4.7505   -2.1307    0.0000 H   0  0  0  0  0  0  0  0  0  0  0  0
    5.4859   -1.6532    0.0000 H   0  0  0  0  0  0  0  0  0  0  0  0
    4.9856    1.4275    0.0000 H   0  0  0  0  0  0  0  0  0  0  0  0
    3.4062    2.1307    0.0000 H   0  0  0  0  0  0  0  0  0  0  0  0
    2.5377    1.9110    0.0000 H   0  0  0  0  0  0  0  0  0  0  0  0
    1.6621    1.8651    0.0000 H   0  0  0  0  0  0  0  0  0  0  0  0
    1.7080    0.9895    0.0000 H   0  0  0  0  0  0  0  0  0  0  0  0
    1.6900    0.8181    0.0000 H   0  0  0  0  0  0  0  0  0  0  0  0
    1.4631   -0.0289    0.0000 H   0  0  0  0  0  0  0  0  0  0  0  0
    2.3100   -0.2558    0.0000 H   0  0  0  0  0  0  0  0  0  0  0  0
    9.6031   -1.4432    0.0000 H   0  0  0  0  0  0  0  0  0  0  0  0
    9.4909   -0.3752    0.0000 H   0  0  0  0  0  0  0  0  0  0  0  0
  1  3  1  0  0  0  0
  1  4  1  0  0  0  0
  2 10  1  0  0  0  0
  2 11  1  0  0  0  0
  3  5  1  0  0  0  0
  3  8  1  0  0  0  0
  3  9  1  0  0  0  0
  4  6  1  0  0  0  0
  4  7  1  0  0  0  0
  4 18  1  0  0  0  0
  5  6  1  0  0  0  0
  5 19  1  0  0  0  0
  5 20  1  0  0  0  0
  6 21  1  0  0  0  0
  6 22  1  0  0  0  0
  7 10  2  3  0  0  0
  7 12  1  0  0  0  0
  8 23  1  0  0  0  0
  8 24  1  0  0  0  0
  8 25  1  0  0  0  0
  9 17  2  0  0  0  0
  9 26  1  0  0  0  0
 10 13  1  0  0  0  0
 11 14  1  0  0  0  0
 11 15  1  0  0  0  0
 11 16  1  0  0  0  0
 12 27  1  0  0  0  0
 12 28  1  0  0  0  0
 12 29  1  0  0  0  0
 13 14  2  0  0  0  0
 13 30  1  0  0  0  0
 14 31  1  0  0  0  0
 15 32  1  0  0  0  0
 15 33  1  0  0  0  0
 15 34  1  0  0  0  0
 16 35  1  0  0  0  0
 16 36  1  0  0  0  0
 16 37  1  0  0  0  0
 17 38  1  0  0  0  0
 17 39  1  0  0  0  0
M  END
> <PUBCHEM_COMPOUND_CID>
520739
> <PUBCHEM_COMPOUND_CANONICALIZED>
1
> <PUBCHEM_CACTVS_COMPLEXITY>
390
> <PUBCHEM_CACTVS_HBOND_ACCEPTOR>
2
> <PUBCHEM_CACTVS_HBOND_DONOR>
0
> <PUBCHEM_CACTVS_ROTATABLE_BOND>
2
> <PUBCHEM_CACTVS_SUBSKEYS>
AAADceBwMAAAAAAAAAAAAAAAAAAAASIAAAAAAAAAAAAAAAAAAAAAGgAAAAAADFSggAICAAAABACAAiBCAAAACAAgIAAICAAAAAgIBAIAIAACEAAEgAAIoAOAwEAMAAAAAAAAAAAAAAAAAAAAAAAAAAAAAA==
> <PUBCHEM_IUPAC_OPENEYE_NAME>
2,2-dimethyl-5-[1-(5-methyl-5-vinyl-tetrahydrofuran-2-yl)ethylidene]furan
> <PUBCHEM_IUPAC_CAS_NAME>
5-[1-(5-ethenyl-5-methyl-2-oxolanyl)ethylidene]-2,2-dimethylfuran
> <PUBCHEM_IUPAC_NAME_MARKUP>
5-[1-(5-ethenyl-5-methyloxolan-2-yl)ethylidene]-2,2-dimethylfuran
> <PUBCHEM_IUPAC_NAME>
5-[1-(5-ethenyl-5-methyloxolan-2-yl)ethylidene]-2,2-dimethylfuran
> <PUBCHEM_IUPAC_SYSTEMATIC_NAME>
5-[1-(5-ethenyl-5-methyl-oxolan-2-yl)ethylidene]-2,2-dimethyl-furan
> <PUBCHEM_IUPAC_TRADITIONAL_NAME>
2,2-dimethyl-5-[1-(5-methyl-5-vinyl-tetrahydrofuran-2-yl)ethylidene]furan
> <PUBCHEM_IUPAC_INCHI>
InChI=1S/C15H22O2/c1-6-15(5)10-8-13(17-15)11(2)12-7-9-14(3,4)16-12/h6-7,9,13H,1,8,10H2,2-5H3
> <PUBCHEM_IUPAC_INCHIKEY>
ZFMNPTVNDZBEHA-UHFFFAOYSA-N
> <PUBCHEM_XLOGP3_AA>
3.3
> <PUBCHEM_EXACT_MASS>
234.161979940
> <PUBCHEM_MOLECULAR_FORMULA>
C15H22O2
> <PUBCHEM_MOLECULAR_WEIGHT>
234.33
> <PUBCHEM_OPENEYE_CAN_SMILES>
CC(=C1C=CC(O1)(C)C)C2CCC(O2)(C)C=C
> <PUBCHEM_OPENEYE_ISO_SMILES>
CC(=C1C=CC(O1)(C)C)C2CCC(O2)(C)C=C
> <PUBCHEM_CACTVS_TPSA>
18.5
> <PUBCHEM_MONOISOTOPIC_WEIGHT>
234.161979940
> <PUBCHEM_TOTAL_CHARGE>
0
> <PUBCHEM_HEAVY_ATOM_COUNT>
17
> <PUBCHEM_ATOM_DEF_STEREO_COUNT>
0
> <PUBCHEM_ATOM_UDEF_STEREO_COUNT>
2
> <PUBCHEM_BOND_DEF_STEREO_COUNT>
0
> <PUBCHEM_BOND_UDEF_STEREO_COUNT>
1
> <PUBCHEM_ISOTOPIC_ATOM_COUNT>
0
> <PUBCHEM_COMPONENT_COUNT>
1
> <PUBCHEM_CACTVS_TAUTO_COUNT>
-1
> <PUBCHEM_COORDINATE_TYPE>
1
5
255
> <PUBCHEM_BONDANNOTATIONS>
3  8  3
4  7  3
7  10  1
$$$$
