520719
  -OEChem-10302200292D
 50 52  0     1  0  0  0  0  0999 V2000
    2.6067   -2.3963    0.0000 O   0  0  0  0  0  0  0  0  0  0  0  0
    7.3816    1.9041    0.0000 O   0  0  0  0  0  0  0  0  0  0  0  0
    8.9954   -0.5290    0.0000 O   0  0  0  0  0  0  0  0  0  0  0  0
    3.8636   -0.1410    0.0000 C   0  0  3  0  0  0  0  0  0  0  0  0
    4.7296    0.3590    0.0000 C   0  0  3  0  0  0  0  0  0  0  0  0
    3.8636   -1.1410    0.0000 C   0  0  3  0  0  0  0  0  0  0  0  0
    5.5956   -0.1410    0.0000 C   0  0  3  0  0  0  0  0  0  0  0  0
    6.5056    0.3658    0.0000 C   0  0  3  0  0  0  0  0  0  0  0  0
    4.7296   -1.6410    0.0000 C   0  0  0  0  0  0  0  0  0  0  0  0
    5.5956   -1.1410    0.0000 C   0  0  0  0  0  0  0  0  0  0  0  0
    2.9173   -1.4457    0.0000 C   0  0  3  0  0  0  0  0  0  0  0  0
    2.9173    0.1637    0.0000 C   0  0  0  0  0  0  0  0  0  0  0  0
    4.7135    1.4005    0.0000 C   0  0  0  0  0  0  0  0  0  0  0  0
    2.3337   -0.6410    0.0000 C   0  0  0  0  0  0  0  0  0  0  0  0
    6.5136    1.4074    0.0000 C   0  0  3  0  0  0  0  0  0  0  0  0
    5.6116    1.9283    0.0000 C   0  0  0  0  0  0  0  0  0  0  0  0
    3.8636   -2.1410    0.0000 C   0  0  0  0  0  0  0  0  0  0  0  0
    7.5055    0.3543    0.0000 C   0  0  0  0  0  0  0  0  0  0  0  0
    6.9956   -0.5059    0.0000 C   0  0  0  0  0  0  0  0  0  0  0  0
    7.9955   -0.5175    0.0000 C   0  0  0  0  0  0  0  0  0  0  0  0
    3.7980    0.4755    0.0000 H   0  0  0  0  0  0  0  0  0  0  0  0
    5.2641    0.6731    0.0000 H   0  0  0  0  0  0  0  0  0  0  0  0
    6.1301   -0.4551    0.0000 H   0  0  0  0  0  0  0  0  0  0  0  0
    4.3310   -2.1159    0.0000 H   0  0  0  0  0  0  0  0  0  0  0  0
    5.1281   -2.1159    0.0000 H   0  0  0  0  0  0  0  0  0  0  0  0
    5.8077   -1.7236    0.0000 H   0  0  0  0  0  0  0  0  0  0  0  0
    6.2062   -1.0333    0.0000 H   0  0  0  0  0  0  0  0  0  0  0  0
    3.3548   -1.8851    0.0000 H   0  0  0  0  0  0  0  0  0  0  0  0
    3.1684    0.7306    0.0000 H   0  0  0  0  0  0  0  0  0  0  0  0
    2.3800    0.4730    0.0000 H   0  0  0  0  0  0  0  0  0  0  0  0
    4.4955    1.9809    0.0000 H   0  0  0  0  0  0  0  0  0  0  0  0
    4.1044    1.2850    0.0000 H   0  0  0  0  0  0  0  0  0  0  0  0
    1.8729   -0.2263    0.0000 H   0  0  0  0  0  0  0  0  0  0  0  0
    1.8729   -1.0557    0.0000 H   0  0  0  0  0  0  0  0  0  0  0  0
    7.0488    1.0944    0.0000 H   0  0  0  0  0  0  0  0  0  0  0  0
    6.0089    2.4042    0.0000 H   0  0  0  0  0  0  0  0  0  0  0  0
    5.2106    2.4012    0.0000 H   0  0  0  0  0  0  0  0  0  0  0  0
    3.2436   -2.1410    0.0000 H   0  0  0  0  0  0  0  0  0  0  0  0
    3.8636   -2.7610    0.0000 H   0  0  0  0  0  0  0  0  0  0  0  0
    4.4836   -2.1410    0.0000 H   0  0  0  0  0  0  0  0  0  0  0  0
    8.0906    0.5596    0.0000 H   0  0  0  0  0  0  0  0  0  0  0  0
    7.4050    0.9661    0.0000 H   0  0  0  0  0  0  0  0  0  0  0  0
    6.4551   -0.8097    0.0000 H   0  0  0  0  0  0  0  0  0  0  0  0
    7.2993   -1.0464    0.0000 H   0  0  0  0  0  0  0  0  0  0  0  0
    7.5360   -0.2021    0.0000 H   0  0  0  0  0  0  0  0  0  0  0  0
    2.0000   -2.5241    0.0000 H   0  0  0  0  0  0  0  0  0  0  0  0
    7.4105   -0.7228    0.0000 H   0  0  0  0  0  0  0  0  0  0  0  0
    8.0961   -1.1292    0.0000 H   0  0  0  0  0  0  0  0  0  0  0  0
    7.3840    2.5241    0.0000 H   0  0  0  0  0  0  0  0  0  0  0  0
    9.2992   -1.0695    0.0000 H   0  0  0  0  0  0  0  0  0  0  0  0
  1 11  1  0  0  0  0
  1 46  1  0  0  0  0
  2 15  1  0  0  0  0
  2 49  1  0  0  0  0
  3 20  1  0  0  0  0
  3 50  1  0  0  0  0
  4  5  1  0  0  0  0
  4  6  1  0  0  0  0
  4 12  1  0  0  0  0
  4 21  1  0  0  0  0
  5  7  1  0  0  0  0
  5 13  1  0  0  0  0
  5 22  1  0  0  0  0
  6  9  1  0  0  0  0
  6 11  1  0  0  0  0
  6 17  1  0  0  0  0
  7  8  1  0  0  0  0
  7 10  1  0  0  0  0
  7 23  1  0  0  0  0
  8 15  1  0  0  0  0
  8 18  1  0  0  0  0
  8 19  1  0  0  0  0
  9 10  1  0  0  0  0
  9 24  1  0  0  0  0
  9 25  1  0  0  0  0
 10 26  1  0  0  0  0
 10 27  1  0  0  0  0
 11 14  1  0  0  0  0
 11 28  1  0  0  0  0
 12 14  1  0  0  0  0
 12 29  1  0  0  0  0
 12 30  1  0  0  0  0
 13 16  1  0  0  0  0
 13 31  1  0  0  0  0
 13 32  1  0  0  0  0
 14 33  1  0  0  0  0
 14 34  1  0  0  0  0
 15 16  1  0  0  0  0
 15 35  1  0  0  0  0
 16 36  1  0  0  0  0
 16 37  1  0  0  0  0
 17 38  1  0  0  0  0
 17 39  1  0  0  0  0
 17 40  1  0  0  0  0
 18 20  1  0  0  0  0
 18 41  1  0  0  0  0
 18 42  1  0  0  0  0
 19 43  1  0  0  0  0
 19 44  1  0  0  0  0
 19 45  1  0  0  0  0
 20 47  1  0  0  0  0
 20 48  1  0  0  0  0
M  END
> <PUBCHEM_COMPOUND_CID>
520719
> <PUBCHEM_COMPOUND_CANONICALIZED>
1
> <PUBCHEM_CACTVS_COMPLEXITY>
371
> <PUBCHEM_CACTVS_HBOND_ACCEPTOR>
3
> <PUBCHEM_CACTVS_HBOND_DONOR>
3
> <PUBCHEM_CACTVS_ROTATABLE_BOND>
2
> <PUBCHEM_CACTVS_SUBSKEYS>
AAADceB4MAAAAAAAAAAAAAAAAAAAAYAAAAAwYAAAAAAAAGDAAAAAGgAACAAADxSggAICAAAAAgAAAAAAAAAAAAAAAAAAAAAAAAAAEAIAAAAAQAAEAAAAAAHAwPAPgAAAAAAAAADAAAYAADAAAIAADAAAAA==
> <PUBCHEM_IUPAC_OPENEYE_NAME>
6-(2-hydroxyethyl)-3a,6-dimethyl-2,3,4,5,5a,7,8,9,9a,9b-decahydro-1H-cyclopenta[a]naphthalene-3,7-diol
> <PUBCHEM_IUPAC_CAS_NAME>
6-(2-hydroxyethyl)-3a,6-dimethyl-2,3,4,5,5a,7,8,9,9a,9b-decahydro-1H-cyclopenta[a]naphthalene-3,7-diol
> <PUBCHEM_IUPAC_NAME_MARKUP>
6-(2-hydroxyethyl)-3<I>a</I>,6-dimethyl-2,3,4,5,5<I>a</I>,7,8,9,9<I>a</I>,9<I>b</I>-decahydro-1<I>H</I>-cyclopenta[a]naphthalene-3,7-diol
> <PUBCHEM_IUPAC_NAME>
6-(2-hydroxyethyl)-3a,6-dimethyl-2,3,4,5,5a,7,8,9,9a,9b-decahydro-1H-cyclopenta[a]naphthalene-3,7-diol
> <PUBCHEM_IUPAC_SYSTEMATIC_NAME>
6-(2-hydroxyethyl)-3a,6-dimethyl-2,3,4,5,5a,7,8,9,9a,9b-decahydro-1H-cyclopenta[a]naphthalene-3,7-diol
> <PUBCHEM_IUPAC_TRADITIONAL_NAME>
6-(2-hydroxyethyl)-3a,6-dimethyl-2,3,4,5,5a,7,8,9,9a,9b-decahydro-1H-benz[e]indene-3,7-diol
> <PUBCHEM_IUPAC_INCHI>
InChI=1S/C17H30O3/c1-16-8-7-13-11(12(16)4-6-15(16)20)3-5-14(19)17(13,2)9-10-18/h11-15,18-20H,3-10H2,1-2H3
> <PUBCHEM_IUPAC_INCHIKEY>
LWALRQNSMBJKQV-UHFFFAOYSA-N
> <PUBCHEM_XLOGP3_AA>
2.4
> <PUBCHEM_EXACT_MASS>
282.21949481
> <PUBCHEM_MOLECULAR_FORMULA>
C17H30O3
> <PUBCHEM_MOLECULAR_WEIGHT>
282.4
> <PUBCHEM_OPENEYE_CAN_SMILES>
CC12CCC3C(C1CCC2O)CCC(C3(C)CCO)O
> <PUBCHEM_OPENEYE_ISO_SMILES>
CC12CCC3C(C1CCC2O)CCC(C3(C)CCO)O
> <PUBCHEM_CACTVS_TPSA>
60.7
> <PUBCHEM_MONOISOTOPIC_WEIGHT>
282.21949481
> <PUBCHEM_TOTAL_CHARGE>
0
> <PUBCHEM_HEAVY_ATOM_COUNT>
20
> <PUBCHEM_ATOM_DEF_STEREO_COUNT>
0
> <PUBCHEM_ATOM_UDEF_STEREO_COUNT>
7
> <PUBCHEM_BOND_DEF_STEREO_COUNT>
0
> <PUBCHEM_BOND_UDEF_STEREO_COUNT>
0
> <PUBCHEM_ISOTOPIC_ATOM_COUNT>
0
> <PUBCHEM_COMPONENT_COUNT>
1
> <PUBCHEM_CACTVS_TAUTO_COUNT>
-1
> <PUBCHEM_COORDINATE_TYPE>
1
5
255
> <PUBCHEM_BONDANNOTATIONS>
11  1  3
15  2  3
4  12  3
5  13  3
6  17  3
7  10  3
8  19  3
$$$$
