520720
  -OEChem-10302200292D
 20 21  0     1  0  0  0  0  0999 V2000
    2.0000   -1.1899    0.0000 Cl  0  0  0  0  0  0  0  0  0  0  0  0
    4.9898   -0.5414    0.0000 C   0  0  3  0  0  0  0  0  0  0  0  0
    5.2486    0.4245    0.0000 C   0  0  3  0  0  0  0  0  0  0  0  0
    4.5120    1.4071    0.0000 C   0  0  0  0  0  0  0  0  0  0  0  0
    6.3887   -1.0503    0.0000 C   0  0  0  0  0  0  0  0  0  0  0  0
    6.6475   -0.0843    0.0000 C   0  0  0  0  0  0  0  0  0  0  0  0
    3.7687   -1.4071    0.0000 C   0  0  0  0  0  0  0  0  0  0  0  0
    3.2153    0.1134    0.0000 C   0  0  0  0  0  0  0  0  0  0  0  0
    2.9397   -0.8479    0.0000 C   0  0  0  0  0  0  0  0  0  0  0  0
    5.1033   -1.3838    0.0000 H   0  0  0  0  0  0  0  0  0  0  0  0
    5.7550    1.1072    0.0000 H   0  0  0  0  0  0  0  0  0  0  0  0
    4.8298    1.9395    0.0000 H   0  0  0  0  0  0  0  0  0  0  0  0
    3.8988    1.4991    0.0000 H   0  0  0  0  0  0  0  0  0  0  0  0
    6.1938   -1.6388    0.0000 H   0  0  0  0  0  0  0  0  0  0  0  0
    6.9827   -1.2280    0.0000 H   0  0  0  0  0  0  0  0  0  0  0  0
    7.2415   -0.2621    0.0000 H   0  0  0  0  0  0  0  0  0  0  0  0
    6.8424    0.5042    0.0000 H   0  0  0  0  0  0  0  0  0  0  0  0
    3.3629   -1.8758    0.0000 H   0  0  0  0  0  0  0  0  0  0  0  0
    4.1854   -1.8662    0.0000 H   0  0  0  0  0  0  0  0  0  0  0  0
    2.8057    0.5788    0.0000 H   0  0  0  0  0  0  0  0  0  0  0  0
  1  9  1  0  0  0  0
  2  4  1  0  0  0  0
  2  5  1  0  0  0  0
  2  7  1  0  0  0  0
  2 10  1  0  0  0  0
  3  4  1  0  0  0  0
  3  6  1  0  0  0  0
  3  8  1  0  0  0  0
  3 11  1  0  0  0  0
  4 12  1  0  0  0  0
  4 13  1  0  0  0  0
  5  6  1  0  0  0  0
  5 14  1  0  0  0  0
  5 15  1  0  0  0  0
  6 16  1  0  0  0  0
  6 17  1  0  0  0  0
  7  9  1  0  0  0  0
  7 18  1  0  0  0  0
  7 19  1  0  0  0  0
  8  9  2  0  0  0  0
  8 20  1  0  0  0  0
M  END
> <PUBCHEM_COMPOUND_CID>
520720
> <PUBCHEM_COMPOUND_CANONICALIZED>
1
> <PUBCHEM_CACTVS_COMPLEXITY>
149
> <PUBCHEM_CACTVS_HBOND_ACCEPTOR>
0
> <PUBCHEM_CACTVS_HBOND_DONOR>
0
> <PUBCHEM_CACTVS_ROTATABLE_BOND>
0
> <PUBCHEM_CACTVS_SUBSKEYS>
AAADccBwAAAEAAAAAAAAAAAAAAAAAYAAAAAgAAAABAAAAAAAAAAAGAIAAAAADQKAAAAAAAAAAACAACBCAAAAAAAgAAAACAAAAggAAAIBAQAAAAAAgAAIAAMAgEAOAAAAAAAAAAAAAAAAAAAAAQAAAAAAAA==
> <PUBCHEM_IUPAC_OPENEYE_NAME>
3-chlorobicyclo[3.2.1]oct-2-ene
> <PUBCHEM_IUPAC_CAS_NAME>
3-chlorobicyclo[3.2.1]oct-2-ene
> <PUBCHEM_IUPAC_NAME_MARKUP>
3-chlorobicyclo[3.2.1]oct-2-ene
> <PUBCHEM_IUPAC_NAME>
3-chlorobicyclo[3.2.1]oct-2-ene
> <PUBCHEM_IUPAC_SYSTEMATIC_NAME>
3-chloranylbicyclo[3.2.1]oct-2-ene
> <PUBCHEM_IUPAC_TRADITIONAL_NAME>
3-chlorobicyclo[3.2.1]oct-2-ene
> <PUBCHEM_IUPAC_INCHI>
InChI=1S/C8H11Cl/c9-8-4-6-1-2-7(3-6)5-8/h4,6-7H,1-3,5H2
> <PUBCHEM_IUPAC_INCHIKEY>
XLVAWKKCOIWHBT-UHFFFAOYSA-N
> <PUBCHEM_XLOGP3_AA>
3.2
> <PUBCHEM_EXACT_MASS>
142.0549280
> <PUBCHEM_MOLECULAR_FORMULA>
C8H11Cl
> <PUBCHEM_MOLECULAR_WEIGHT>
142.62
> <PUBCHEM_OPENEYE_CAN_SMILES>
C1CC2CC1CC(=C2)Cl
> <PUBCHEM_OPENEYE_ISO_SMILES>
C1CC2CC1CC(=C2)Cl
> <PUBCHEM_CACTVS_TPSA>
0
> <PUBCHEM_MONOISOTOPIC_WEIGHT>
142.0549280
> <PUBCHEM_TOTAL_CHARGE>
0
> <PUBCHEM_HEAVY_ATOM_COUNT>
9
> <PUBCHEM_ATOM_DEF_STEREO_COUNT>
0
> <PUBCHEM_ATOM_UDEF_STEREO_COUNT>
2
> <PUBCHEM_BOND_DEF_STEREO_COUNT>
0
> <PUBCHEM_BOND_UDEF_STEREO_COUNT>
0
> <PUBCHEM_ISOTOPIC_ATOM_COUNT>
0
> <PUBCHEM_COMPONENT_COUNT>
1
> <PUBCHEM_CACTVS_TAUTO_COUNT>
1
> <PUBCHEM_COORDINATE_TYPE>
1
5
255
> <PUBCHEM_BONDANNOTATIONS>
2  10  3
3  11  3
$$$$
