520757
  -OEChem-10302200292D
 12 11  0     1  0  0  0  0  0999 V2000
    4.0981    0.9330    0.0000 Cl  0  0  0  0  0  0  0  0  0  0  0  0
    6.3301    1.0670    0.0000 Cl  0  0  0  0  0  0  0  0  0  0  0  0
    4.9641    1.4330    0.0000 Cl  0  0  0  0  0  0  0  0  0  0  0  0
    2.0000   -0.4330    0.0000 Cl  0  0  0  0  0  0  0  0  0  0  0  0
    5.0981   -0.7990    0.0000 F   0  0  0  0  0  0  0  0  0  0  0  0
    5.9641   -0.2990    0.0000 F   0  0  0  0  0  0  0  0  0  0  0  0
    3.7320   -1.4330    0.0000 F   0  0  0  0  0  0  0  0  0  0  0  0
    2.8660    1.0670    0.0000 F   0  0  0  0  0  0  0  0  0  0  0  0
    4.5981    0.0670    0.0000 C   0  0  3  0  0  0  0  0  0  0  0  0
    5.4641    0.5670    0.0000 C   0  0  0  0  0  0  0  0  0  0  0  0
    3.7320   -0.4330    0.0000 C   0  0  0  0  0  0  0  0  0  0  0  0
    2.8660    0.0670    0.0000 C   0  0  0  0  0  0  0  0  0  0  0  0
  1  9  1  0  0  0  0
  2 10  1  0  0  0  0
  3 10  1  0  0  0  0
  4 12  1  0  0  0  0
  5  9  1  0  0  0  0
  6 10  1  0  0  0  0
  7 11  1  0  0  0  0
  8 12  1  0  0  0  0
  9 10  1  0  0  0  0
  9 11  1  0  0  0  0
 11 12  2  3  0  0  0
M  END
> <PUBCHEM_COMPOUND_CID>
520757
> <PUBCHEM_COMPOUND_CANONICALIZED>
1
> <PUBCHEM_CACTVS_COMPLEXITY>
215
> <PUBCHEM_CACTVS_HBOND_ACCEPTOR>
4
> <PUBCHEM_CACTVS_HBOND_DONOR>
0
> <PUBCHEM_CACTVS_ROTATABLE_BOND>
2
> <PUBCHEM_CACTVS_SUBSKEYS>
AAADcQBgAcAHAAAAAAAAAAAAAAAAAAAAAAAAAAAAAAAAAAAAAAAACQIAAAAACAIAAIAAAAAAAACAAABAAAAAAAAgAAAAAEAAAggAAAAAAAAAAAAAAAAAAAAAAAAAAAAAAAAAAAAAAAAAAAAAAAAAAAAAAA==
> <PUBCHEM_IUPAC_OPENEYE_NAME>
1,3,4,4-tetrachloro-1,2,3,4-tetrafluoro-but-1-ene
> <PUBCHEM_IUPAC_CAS_NAME>
1,3,4,4-tetrachloro-1,2,3,4-tetrafluoro-1-butene
> <PUBCHEM_IUPAC_NAME_MARKUP>
1,3,4,4-tetrachloro-1,2,3,4-tetrafluorobut-1-ene
> <PUBCHEM_IUPAC_NAME>
1,3,4,4-tetrachloro-1,2,3,4-tetrafluorobut-1-ene
> <PUBCHEM_IUPAC_SYSTEMATIC_NAME>
1,3,4,4-tetrakis(chloranyl)-1,2,3,4-tetrakis(fluoranyl)but-1-ene
> <PUBCHEM_IUPAC_TRADITIONAL_NAME>
1,3,4,4-tetrachloro-1,2,3,4-tetrafluoro-but-1-ene
> <PUBCHEM_IUPAC_INCHI>
InChI=1S/C4Cl4F4/c5-2(10)1(9)3(6,11)4(7,8)12
> <PUBCHEM_IUPAC_INCHIKEY>
CYLIGQKNBPAGBL-UHFFFAOYSA-N
> <PUBCHEM_XLOGP3_AA>
3.8
> <PUBCHEM_EXACT_MASS>
265.866073
> <PUBCHEM_MOLECULAR_FORMULA>
C4Cl4F4
> <PUBCHEM_MOLECULAR_WEIGHT>
265.8
> <PUBCHEM_OPENEYE_CAN_SMILES>
C(=C(F)Cl)(C(C(F)(Cl)Cl)(F)Cl)F
> <PUBCHEM_OPENEYE_ISO_SMILES>
C(=C(F)Cl)(C(C(F)(Cl)Cl)(F)Cl)F
> <PUBCHEM_CACTVS_TPSA>
0
> <PUBCHEM_MONOISOTOPIC_WEIGHT>
263.869023
> <PUBCHEM_TOTAL_CHARGE>
0
> <PUBCHEM_HEAVY_ATOM_COUNT>
12
> <PUBCHEM_ATOM_DEF_STEREO_COUNT>
0
> <PUBCHEM_ATOM_UDEF_STEREO_COUNT>
1
> <PUBCHEM_BOND_DEF_STEREO_COUNT>
0
> <PUBCHEM_BOND_UDEF_STEREO_COUNT>
1
> <PUBCHEM_ISOTOPIC_ATOM_COUNT>
0
> <PUBCHEM_COMPONENT_COUNT>
1
> <PUBCHEM_CACTVS_TAUTO_COUNT>
-1
> <PUBCHEM_COORDINATE_TYPE>
1
5
255
> <PUBCHEM_BONDANNOTATIONS>
11  12  1
9  5  3
$$$$
