520712
  -OEChem-10302200292D
 31 31  0     1  0  0  0  0  0999 V2000
    6.3301    3.5950    0.0000 O   0  0  0  0  0  0  0  0  0  0  0  0
    2.0000   -0.9050    0.0000 O   0  5  0  0  0  0  0  0  0  0  0  0
    2.8660    0.5950    0.0000 O   0  0  0  0  0  0  0  0  0  0  0  0
    5.4641   -3.9050    0.0000 O   0  5  0  0  0  0  0  0  0  0  0  0
    3.7320   -3.9050    0.0000 O   0  0  0  0  0  0  0  0  0  0  0  0
    4.5981    0.5950    0.0000 N   0  0  0  0  0  0  0  0  0  0  0  0
    5.4641    1.0950    0.0000 N   0  0  0  0  0  0  0  0  0  0  0  0
    2.8660   -0.4050    0.0000 N   0  3  0  0  0  0  0  0  0  0  0  0
    4.5981   -3.4050    0.0000 N   0  3  0  0  0  0  0  0  0  0  0  0
    6.3301    2.5950    0.0000 C   0  0  3  0  0  0  0  0  0  0  0  0
    4.5981   -0.4050    0.0000 C   0  0  0  0  0  0  0  0  0  0  0  0
    5.4641    2.0950    0.0000 C   0  0  0  0  0  0  0  0  0  0  0  0
    3.7320   -0.9050    0.0000 C   0  0  0  0  0  0  0  0  0  0  0  0
    5.4641   -0.9050    0.0000 C   0  0  0  0  0  0  0  0  0  0  0  0
    3.7320   -1.9050    0.0000 C   0  0  0  0  0  0  0  0  0  0  0  0
    4.5981   -2.4050    0.0000 C   0  0  0  0  0  0  0  0  0  0  0  0
    7.1962    2.0950    0.0000 C   0  0  0  0  0  0  0  0  0  0  0  0
    5.4641   -1.9050    0.0000 C   0  0  0  0  0  0  0  0  0  0  0  0
    4.5981    2.5950    0.0000 C   0  0  0  0  0  0  0  0  0  0  0  0
    6.8671    2.9050    0.0000 H   0  0  0  0  0  0  0  0  0  0  0  0
    6.0010   -0.5950    0.0000 H   0  0  0  0  0  0  0  0  0  0  0  0
    3.1951   -2.2150    0.0000 H   0  0  0  0  0  0  0  0  0  0  0  0
    4.0611    0.9050    0.0000 H   0  0  0  0  0  0  0  0  0  0  0  0
    6.8862    1.5581    0.0000 H   0  0  0  0  0  0  0  0  0  0  0  0
    7.7331    1.7850    0.0000 H   0  0  0  0  0  0  0  0  0  0  0  0
    7.5062    2.6319    0.0000 H   0  0  0  0  0  0  0  0  0  0  0  0
    6.0010   -2.2150    0.0000 H   0  0  0  0  0  0  0  0  0  0  0  0
    4.9081    3.1319    0.0000 H   0  0  0  0  0  0  0  0  0  0  0  0
    4.0611    2.9050    0.0000 H   0  0  0  0  0  0  0  0  0  0  0  0
    4.2881    2.0581    0.0000 H   0  0  0  0  0  0  0  0  0  0  0  0
    6.8671    3.9050    0.0000 H   0  0  0  0  0  0  0  0  0  0  0  0
  1 10  1  0  0  0  0
  1 31  1  0  0  0  0
  2  8  1  0  0  0  0
  3  8  2  0  0  0  0
  4  9  1  0  0  0  0
  5  9  2  0  0  0  0
  6  7  1  0  0  0  0
  6 11  1  0  0  0  0
  6 23  1  0  0  0  0
  7 12  2  3  0  0  0
  8 13  1  0  0  0  0
  9 16  1  0  0  0  0
 10 12  1  0  0  0  0
 10 17  1  0  0  0  0
 10 20  1  0  0  0  0
 11 13  2  0  0  0  0
 11 14  1  0  0  0  0
 12 19  1  0  0  0  0
 13 15  1  0  0  0  0
 14 18  2  0  0  0  0
 14 21  1  0  0  0  0
 15 16  2  0  0  0  0
 15 22  1  0  0  0  0
 16 18  1  0  0  0  0
 17 24  1  0  0  0  0
 17 25  1  0  0  0  0
 17 26  1  0  0  0  0
 18 27  1  0  0  0  0
 19 28  1  0  0  0  0
 19 29  1  0  0  0  0
 19 30  1  0  0  0  0
M  CHG  4   2  -1   4  -1   8   1   9   1
M  END
> <PUBCHEM_COMPOUND_CID>
520712
> <PUBCHEM_COMPOUND_CANONICALIZED>
1
> <PUBCHEM_CACTVS_COMPLEXITY>
375
> <PUBCHEM_CACTVS_HBOND_ACCEPTOR>
7
> <PUBCHEM_CACTVS_HBOND_DONOR>
2
> <PUBCHEM_CACTVS_ROTATABLE_BOND>
3
> <PUBCHEM_CACTVS_SUBSKEYS>
AAADccBzuAAAAAAAAAAAAAAAAAAAAAAAAAAwAAAAAAAAAAABAAAAHgAcCAAACByhkAIywIByQgChASRiQwSSBAAgAgA4iAAwdIoIcCKA0dGAYABgmIAIyAcQAAAAAACAAAQAACAAAQAACAAAQAAAAAAAAA==
> <PUBCHEM_IUPAC_OPENEYE_NAME>
3-[(2,4-dinitrophenyl)hydrazono]butan-2-ol
> <PUBCHEM_IUPAC_CAS_NAME>
3-[(2,4-dinitrophenyl)hydrazinylidene]-2-butanol
> <PUBCHEM_IUPAC_NAME_MARKUP>
3-[(2,4-dinitrophenyl)hydrazinylidene]butan-2-ol
> <PUBCHEM_IUPAC_NAME>
3-[(2,4-dinitrophenyl)hydrazinylidene]butan-2-ol
> <PUBCHEM_IUPAC_SYSTEMATIC_NAME>
3-[(2,4-dinitrophenyl)hydrazinylidene]butan-2-ol
> <PUBCHEM_IUPAC_TRADITIONAL_NAME>
3-[(2,4-dinitrophenyl)hydrazono]butan-2-ol
> <PUBCHEM_IUPAC_INCHI>
InChI=1S/C10H12N4O5/c1-6(7(2)15)11-12-9-4-3-8(13(16)17)5-10(9)14(18)19/h3-5,7,12,15H,1-2H3
> <PUBCHEM_IUPAC_INCHIKEY>
CWIVDHFDRDDERB-UHFFFAOYSA-N
> <PUBCHEM_XLOGP3>
2.8
> <PUBCHEM_EXACT_MASS>
268.08076950
> <PUBCHEM_MOLECULAR_FORMULA>
C10H12N4O5
> <PUBCHEM_MOLECULAR_WEIGHT>
268.23
> <PUBCHEM_OPENEYE_CAN_SMILES>
CC(C(=NNC1=C(C=C(C=C1)[N+](=O)[O-])[N+](=O)[O-])C)O
> <PUBCHEM_OPENEYE_ISO_SMILES>
CC(C(=NNC1=C(C=C(C=C1)[N+](=O)[O-])[N+](=O)[O-])C)O
> <PUBCHEM_CACTVS_TPSA>
136
> <PUBCHEM_MONOISOTOPIC_WEIGHT>
268.08076950
> <PUBCHEM_TOTAL_CHARGE>
0
> <PUBCHEM_HEAVY_ATOM_COUNT>
19
> <PUBCHEM_ATOM_DEF_STEREO_COUNT>
0
> <PUBCHEM_ATOM_UDEF_STEREO_COUNT>
1
> <PUBCHEM_BOND_DEF_STEREO_COUNT>
0
> <PUBCHEM_BOND_UDEF_STEREO_COUNT>
1
> <PUBCHEM_ISOTOPIC_ATOM_COUNT>
0
> <PUBCHEM_COMPONENT_COUNT>
1
> <PUBCHEM_CACTVS_TAUTO_COUNT>
-1
> <PUBCHEM_COORDINATE_TYPE>
1
5
255
> <PUBCHEM_BONDANNOTATIONS>
10  1  3
11  13  8
11  14  8
13  15  8
14  18  8
15  16  8
16  18  8
7  12  1
$$$$
