520755
  -OEChem-10302200292D
 25 24  0     1  0  0  0  0  0999 V2000
    2.5369   -0.0950    0.0000 O   0  0  0  0  0  0  0  0  0  0  0  0
    3.4030    1.4050    0.0000 O   0  0  0  0  0  0  0  0  0  0  0  0
    4.2690   -1.0950    0.0000 N   0  0  0  0  0  0  0  0  0  0  0  0
    6.0010   -0.0950    0.0000 C   0  0  3  0  0  0  0  0  0  0  0  0
    5.1350    0.4050    0.0000 C   0  0  0  0  0  0  0  0  0  0  0  0
    6.8671    0.4050    0.0000 C   0  0  0  0  0  0  0  0  0  0  0  0
    4.2690   -0.0950    0.0000 C   0  0  3  0  0  0  0  0  0  0  0  0
    6.0010   -1.0950    0.0000 C   0  0  0  0  0  0  0  0  0  0  0  0
    7.7331   -0.0950    0.0000 C   0  0  0  0  0  0  0  0  0  0  0  0
    3.4030    0.4050    0.0000 C   0  0  0  0  0  0  0  0  0  0  0  0
    6.7372   -0.5200    0.0000 H   0  0  0  0  0  0  0  0  0  0  0  0
    5.5335    0.8799    0.0000 H   0  0  0  0  0  0  0  0  0  0  0  0
    4.7365    0.8799    0.0000 H   0  0  0  0  0  0  0  0  0  0  0  0
    7.2656    0.8799    0.0000 H   0  0  0  0  0  0  0  0  0  0  0  0
    6.4685    0.8799    0.0000 H   0  0  0  0  0  0  0  0  0  0  0  0
    5.0051   -0.5200    0.0000 H   0  0  0  0  0  0  0  0  0  0  0  0
    5.3810   -1.0950    0.0000 H   0  0  0  0  0  0  0  0  0  0  0  0
    6.0010   -1.7150    0.0000 H   0  0  0  0  0  0  0  0  0  0  0  0
    6.6210   -1.0950    0.0000 H   0  0  0  0  0  0  0  0  0  0  0  0
    7.4231   -0.6319    0.0000 H   0  0  0  0  0  0  0  0  0  0  0  0
    8.2700   -0.4050    0.0000 H   0  0  0  0  0  0  0  0  0  0  0  0
    8.0431    0.4419    0.0000 H   0  0  0  0  0  0  0  0  0  0  0  0
    4.8059   -1.4050    0.0000 H   0  0  0  0  0  0  0  0  0  0  0  0
    3.7320   -1.4050    0.0000 H   0  0  0  0  0  0  0  0  0  0  0  0
    2.0000    0.2150    0.0000 H   0  0  0  0  0  0  0  0  0  0  0  0
  1 10  1  0  0  0  0
  1 25  1  0  0  0  0
  2 10  2  0  0  0  0
  3  7  1  0  0  0  0
  3 23  1  0  0  0  0
  3 24  1  0  0  0  0
  4  5  1  0  0  0  0
  4  6  1  0  0  0  0
  4  8  1  0  0  0  0
  4 11  1  0  0  0  0
  5  7  1  0  0  0  0
  5 12  1  0  0  0  0
  5 13  1  0  0  0  0
  6  9  1  0  0  0  0
  6 14  1  0  0  0  0
  6 15  1  0  0  0  0
  7 10  1  0  0  0  0
  7 16  1  0  0  0  0
  8 17  1  0  0  0  0
  8 18  1  0  0  0  0
  8 19  1  0  0  0  0
  9 20  1  0  0  0  0
  9 21  1  0  0  0  0
  9 22  1  0  0  0  0
M  END
> <PUBCHEM_COMPOUND_CID>
520755
> <PUBCHEM_COMPOUND_CANONICALIZED>
1
> <PUBCHEM_CACTVS_COMPLEXITY>
114
> <PUBCHEM_CACTVS_HBOND_ACCEPTOR>
3
> <PUBCHEM_CACTVS_HBOND_DONOR>
2
> <PUBCHEM_CACTVS_ROTATABLE_BOND>
4
> <PUBCHEM_CACTVS_SUBSKEYS>
AAADccBiMAAAAAAAAAAAAAAAAAAAAAAAAAAAAAAAAAAAAAAAAAAAHgAQCAAADSjBgAQCCABAAgAIAACQCAAAAAAAAAAAAIGAAAACABIAgAAAQAAEEAAAAAGYSAAOAAAAAAAAAAAAAAAAAAAAAAAAAAAAAA==
> <PUBCHEM_IUPAC_OPENEYE_NAME>
2-amino-4-methyl-hexanoic acid
> <PUBCHEM_IUPAC_CAS_NAME>
2-amino-4-methylhexanoic acid
> <PUBCHEM_IUPAC_NAME_MARKUP>
2-amino-4-methylhexanoic acid
> <PUBCHEM_IUPAC_NAME>
2-amino-4-methylhexanoic acid
> <PUBCHEM_IUPAC_SYSTEMATIC_NAME>
2-azanyl-4-methyl-hexanoic acid
> <PUBCHEM_IUPAC_TRADITIONAL_NAME>
2-amino-4-methyl-hexanoic acid
> <PUBCHEM_IUPAC_INCHI>
InChI=1S/C7H15NO2/c1-3-5(2)4-6(8)7(9)10/h5-6H,3-4,8H2,1-2H3,(H,9,10)
> <PUBCHEM_IUPAC_INCHIKEY>
MBZXSJWDBIIBLL-UHFFFAOYSA-N
> <PUBCHEM_XLOGP3>
-1
> <PUBCHEM_EXACT_MASS>
145.110278721
> <PUBCHEM_MOLECULAR_FORMULA>
C7H15NO2
> <PUBCHEM_MOLECULAR_WEIGHT>
145.20
> <PUBCHEM_OPENEYE_CAN_SMILES>
CCC(C)CC(C(=O)O)N
> <PUBCHEM_OPENEYE_ISO_SMILES>
CCC(C)CC(C(=O)O)N
> <PUBCHEM_CACTVS_TPSA>
63.3
> <PUBCHEM_MONOISOTOPIC_WEIGHT>
145.110278721
> <PUBCHEM_TOTAL_CHARGE>
0
> <PUBCHEM_HEAVY_ATOM_COUNT>
10
> <PUBCHEM_ATOM_DEF_STEREO_COUNT>
0
> <PUBCHEM_ATOM_UDEF_STEREO_COUNT>
2
> <PUBCHEM_BOND_DEF_STEREO_COUNT>
0
> <PUBCHEM_BOND_UDEF_STEREO_COUNT>
0
> <PUBCHEM_ISOTOPIC_ATOM_COUNT>
0
> <PUBCHEM_COMPONENT_COUNT>
1
> <PUBCHEM_CACTVS_TAUTO_COUNT>
1
> <PUBCHEM_COORDINATE_TYPE>
1
5
255
> <PUBCHEM_BONDANNOTATIONS>
4  11  3
7  16  3
$$$$
