520738
  -OEChem-10302200292D
 28 28  0     1  0  0  0  0  0999 V2000
    2.8090   -1.8784    0.0000 S   0  0  0  0  0  0  0  0  0  0  0  0
    3.3090   -0.3396    0.0000 C   0  0  3  0  0  0  0  0  0  0  0  0
    3.8968    0.4694    0.0000 C   0  0  0  0  0  0  0  0  0  0  0  0
    2.3090   -0.3396    0.0000 C   0  0  0  0  0  0  0  0  0  0  0  0
    3.6180   -1.2906    0.0000 C   0  0  0  0  0  0  0  0  0  0  0  0
    4.8913    0.3649    0.0000 C   0  0  0  0  0  0  0  0  0  0  0  0
    2.0000   -1.2906    0.0000 C   0  0  0  0  0  0  0  0  0  0  0  0
    5.4791    1.1739    0.0000 C   0  0  0  0  0  0  0  0  0  0  0  0
    6.4736    1.0694    0.0000 C   0  0  0  0  0  0  0  0  0  0  0  0
    7.0614    1.8784    0.0000 C   0  0  0  0  0  0  0  0  0  0  0  0
    3.9214   -0.4366    0.0000 H   0  0  0  0  0  0  0  0  0  0  0  0
    4.0677    1.0654    0.0000 H   0  0  0  0  0  0  0  0  0  0  0  0
    3.3396    0.7412    0.0000 H   0  0  0  0  0  0  0  0  0  0  0  0
    2.3738    0.2770    0.0000 H   0  0  0  0  0  0  0  0  0  0  0  0
    1.7026   -0.2107    0.0000 H   0  0  0  0  0  0  0  0  0  0  0  0
    3.9280   -1.8276    0.0000 H   0  0  0  0  0  0  0  0  0  0  0  0
    4.1844   -1.0385    0.0000 H   0  0  0  0  0  0  0  0  0  0  0  0
    4.7204   -0.2311    0.0000 H   0  0  0  0  0  0  0  0  0  0  0  0
    5.4486    0.0931    0.0000 H   0  0  0  0  0  0  0  0  0  0  0  0
    1.4336   -1.0385    0.0000 H   0  0  0  0  0  0  0  0  0  0  0  0
    1.6900   -1.8276    0.0000 H   0  0  0  0  0  0  0  0  0  0  0  0
    5.6500    1.7699    0.0000 H   0  0  0  0  0  0  0  0  0  0  0  0
    4.9219    1.4457    0.0000 H   0  0  0  0  0  0  0  0  0  0  0  0
    6.3027    0.4734    0.0000 H   0  0  0  0  0  0  0  0  0  0  0  0
    7.0309    0.7976    0.0000 H   0  0  0  0  0  0  0  0  0  0  0  0
    7.5630    1.5140    0.0000 H   0  0  0  0  0  0  0  0  0  0  0  0
    7.4258    2.3800    0.0000 H   0  0  0  0  0  0  0  0  0  0  0  0
    6.5598    2.2428    0.0000 H   0  0  0  0  0  0  0  0  0  0  0  0
  1  5  1  0  0  0  0
  1  7  1  0  0  0  0
  2  3  1  0  0  0  0
  2  4  1  0  0  0  0
  2  5  1  0  0  0  0
  2 11  1  0  0  0  0
  3  6  1  0  0  0  0
  3 12  1  0  0  0  0
  3 13  1  0  0  0  0
  4  7  1  0  0  0  0
  4 14  1  0  0  0  0
  4 15  1  0  0  0  0
  5 16  1  0  0  0  0
  5 17  1  0  0  0  0
  6  8  1  0  0  0  0
  6 18  1  0  0  0  0
  6 19  1  0  0  0  0
  7 20  1  0  0  0  0
  7 21  1  0  0  0  0
  8  9  1  0  0  0  0
  8 22  1  0  0  0  0
  8 23  1  0  0  0  0
  9 10  1  0  0  0  0
  9 24  1  0  0  0  0
  9 25  1  0  0  0  0
 10 26  1  0  0  0  0
 10 27  1  0  0  0  0
 10 28  1  0  0  0  0
M  END
> <PUBCHEM_COMPOUND_CID>
520738
> <PUBCHEM_COMPOUND_CANONICALIZED>
1
> <PUBCHEM_CACTVS_COMPLEXITY>
80.8
> <PUBCHEM_CACTVS_HBOND_ACCEPTOR>
1
> <PUBCHEM_CACTVS_HBOND_DONOR>
0
> <PUBCHEM_CACTVS_ROTATABLE_BOND>
4
> <PUBCHEM_CACTVS_SUBSKEYS>
AAADceBwAABAAAAAAAAAAAAAAAAAASAAAAAAAAAAAAAAAAAAAAAAGAQAAAAADQCEQACCAAAAAAgAAAAAAAAAAAAAABAAAAAAAAAAAAIgAAAAAAAAAAAgAAEAgMAOAAAAAAAAAAAAAAAAAAAAAAAAAAAAAA==
> <PUBCHEM_IUPAC_OPENEYE_NAME>
3-pentyltetrahydrothiophene
> <PUBCHEM_IUPAC_CAS_NAME>
3-pentylthiolane
> <PUBCHEM_IUPAC_NAME_MARKUP>
3-pentylthiolane
> <PUBCHEM_IUPAC_NAME>
3-pentylthiolane
> <PUBCHEM_IUPAC_SYSTEMATIC_NAME>
3-pentylthiolane
> <PUBCHEM_IUPAC_TRADITIONAL_NAME>
3-amyltetrahydrothiophene
> <PUBCHEM_IUPAC_INCHI>
InChI=1S/C9H18S/c1-2-3-4-5-9-6-7-10-8-9/h9H,2-8H2,1H3
> <PUBCHEM_IUPAC_INCHIKEY>
PTJARFWPUNOHQM-UHFFFAOYSA-N
> <PUBCHEM_XLOGP3_AA>
3.8
> <PUBCHEM_EXACT_MASS>
158.11292175
> <PUBCHEM_MOLECULAR_FORMULA>
C9H18S
> <PUBCHEM_MOLECULAR_WEIGHT>
158.31
> <PUBCHEM_OPENEYE_CAN_SMILES>
CCCCCC1CCSC1
> <PUBCHEM_OPENEYE_ISO_SMILES>
CCCCCC1CCSC1
> <PUBCHEM_CACTVS_TPSA>
25.3
> <PUBCHEM_MONOISOTOPIC_WEIGHT>
158.11292175
> <PUBCHEM_TOTAL_CHARGE>
0
> <PUBCHEM_HEAVY_ATOM_COUNT>
10
> <PUBCHEM_ATOM_DEF_STEREO_COUNT>
0
> <PUBCHEM_ATOM_UDEF_STEREO_COUNT>
1
> <PUBCHEM_BOND_DEF_STEREO_COUNT>
0
> <PUBCHEM_BOND_UDEF_STEREO_COUNT>
0
> <PUBCHEM_ISOTOPIC_ATOM_COUNT>
0
> <PUBCHEM_COMPONENT_COUNT>
1
> <PUBCHEM_CACTVS_TAUTO_COUNT>
-1
> <PUBCHEM_COORDINATE_TYPE>
1
5
255
> <PUBCHEM_BONDANNOTATIONS>
2  3  3
$$$$
