520813
  -OEChem-10302200292D
 26 26  0     1  0  0  0  0  0999 V2000
    4.5032   -0.9197    0.0000 N   0  0  0  0  0  0  0  0  0  0  0  0
    5.3122   -0.3319    0.0000 N   0  0  0  0  0  0  0  0  0  0  0  0
    3.6942   -0.3319    0.0000 C   0  0  3  0  0  0  0  0  0  0  0  0
    4.0032    0.6191    0.0000 C   0  0  0  0  0  0  0  0  0  0  0  0
    2.7431   -0.6410    0.0000 C   0  0  0  0  0  0  0  0  0  0  0  0
    5.0032    0.6191    0.0000 C   0  0  0  0  0  0  0  0  0  0  0  0
    4.0032    1.6191    0.0000 C   0  0  0  0  0  0  0  0  0  0  0  0
    3.0522    0.9281    0.0000 C   0  0  0  0  0  0  0  0  0  0  0  0
    2.5352   -1.6191    0.0000 C   0  0  0  0  0  0  0  0  0  0  0  0
    2.0000    0.0282    0.0000 C   0  0  0  0  0  0  0  0  0  0  0  0
    4.2839   -0.1404    0.0000 H   0  0  0  0  0  0  0  0  0  0  0  0
    3.2039   -1.0558    0.0000 H   0  0  0  0  0  0  0  0  0  0  0  0
    4.5032   -1.5397    0.0000 H   0  0  0  0  0  0  0  0  0  0  0  0
    5.3676    1.1207    0.0000 H   0  0  0  0  0  0  0  0  0  0  0  0
    4.6232    1.6191    0.0000 H   0  0  0  0  0  0  0  0  0  0  0  0
    4.0032    2.2391    0.0000 H   0  0  0  0  0  0  0  0  0  0  0  0
    3.3832    1.6191    0.0000 H   0  0  0  0  0  0  0  0  0  0  0  0
    3.2438    1.5178    0.0000 H   0  0  0  0  0  0  0  0  0  0  0  0
    2.4625    1.1197    0.0000 H   0  0  0  0  0  0  0  0  0  0  0  0
    2.8606    0.3385    0.0000 H   0  0  0  0  0  0  0  0  0  0  0  0
    1.9288   -1.4902    0.0000 H   0  0  0  0  0  0  0  0  0  0  0  0
    2.4063   -2.2256    0.0000 H   0  0  0  0  0  0  0  0  0  0  0  0
    3.1417   -1.7480    0.0000 H   0  0  0  0  0  0  0  0  0  0  0  0
    2.4149    0.4889    0.0000 H   0  0  0  0  0  0  0  0  0  0  0  0
    1.5392    0.4430    0.0000 H   0  0  0  0  0  0  0  0  0  0  0  0
    1.5851   -0.4326    0.0000 H   0  0  0  0  0  0  0  0  0  0  0  0
  1  2  1  0  0  0  0
  1  3  1  0  0  0  0
  1 13  1  0  0  0  0
  2  6  2  0  0  0  0
  3  4  1  0  0  0  0
  3  5  1  0  0  0  0
  3 11  1  0  0  0  0
  4  6  1  0  0  0  0
  4  7  1  0  0  0  0
  4  8  1  0  0  0  0
  5  9  1  0  0  0  0
  5 10  1  0  0  0  0
  5 12  1  0  0  0  0
  6 14  1  0  0  0  0
  7 15  1  0  0  0  0
  7 16  1  0  0  0  0
  7 17  1  0  0  0  0
  8 18  1  0  0  0  0
  8 19  1  0  0  0  0
  8 20  1  0  0  0  0
  9 21  1  0  0  0  0
  9 22  1  0  0  0  0
  9 23  1  0  0  0  0
 10 24  1  0  0  0  0
 10 25  1  0  0  0  0
 10 26  1  0  0  0  0
M  END
> <PUBCHEM_COMPOUND_CID>
520813
> <PUBCHEM_COMPOUND_CANONICALIZED>
1
> <PUBCHEM_CACTVS_COMPLEXITY>
147
> <PUBCHEM_CACTVS_HBOND_ACCEPTOR>
2
> <PUBCHEM_CACTVS_HBOND_DONOR>
1
> <PUBCHEM_CACTVS_ROTATABLE_BOND>
1
> <PUBCHEM_CACTVS_SUBSKEYS>
AAADceBzAAAAAAAAAAAAAAAAAAAAAQAAAAAAAAAAAAAAAAAAAAAAHAAYAAAADyjBAAQCAABiAAAgABAhAAAQAAAAAAAQAIAgAAAAAAIAAAAAAAAAGAAAAAAAAAANAAAAAAAAAAAAAAAAAAAAAAAAAAAAAA==
> <PUBCHEM_IUPAC_OPENEYE_NAME>
5-isopropyl-4,4-dimethyl-1,5-dihydropyrazole
> <PUBCHEM_IUPAC_CAS_NAME>
4,4-dimethyl-5-propan-2-yl-1,5-dihydropyrazole
> <PUBCHEM_IUPAC_NAME_MARKUP>
4,4-dimethyl-5-propan-2-yl-1,5-dihydropyrazole
> <PUBCHEM_IUPAC_NAME>
4,4-dimethyl-5-propan-2-yl-1,5-dihydropyrazole
> <PUBCHEM_IUPAC_SYSTEMATIC_NAME>
4,4-dimethyl-5-propan-2-yl-1,5-dihydropyrazole
> <PUBCHEM_IUPAC_TRADITIONAL_NAME>
3-isopropyl-4,4-dimethyl-2-pyrazoline
> <PUBCHEM_IUPAC_INCHI>
InChI=1S/C8H16N2/c1-6(2)7-8(3,4)5-9-10-7/h5-7,10H,1-4H3
> <PUBCHEM_IUPAC_INCHIKEY>
IDMTYGJPXGRQIL-UHFFFAOYSA-N
> <PUBCHEM_XLOGP3_AA>
2.2
> <PUBCHEM_EXACT_MASS>
140.131348519
> <PUBCHEM_MOLECULAR_FORMULA>
C8H16N2
> <PUBCHEM_MOLECULAR_WEIGHT>
140.23
> <PUBCHEM_OPENEYE_CAN_SMILES>
CC(C)C1C(C=NN1)(C)C
> <PUBCHEM_OPENEYE_ISO_SMILES>
CC(C)C1C(C=NN1)(C)C
> <PUBCHEM_CACTVS_TPSA>
24.4
> <PUBCHEM_MONOISOTOPIC_WEIGHT>
140.131348519
> <PUBCHEM_TOTAL_CHARGE>
0
> <PUBCHEM_HEAVY_ATOM_COUNT>
10
> <PUBCHEM_ATOM_DEF_STEREO_COUNT>
0
> <PUBCHEM_ATOM_UDEF_STEREO_COUNT>
1
> <PUBCHEM_BOND_DEF_STEREO_COUNT>
0
> <PUBCHEM_BOND_UDEF_STEREO_COUNT>
0
> <PUBCHEM_ISOTOPIC_ATOM_COUNT>
0
> <PUBCHEM_COMPONENT_COUNT>
1
> <PUBCHEM_CACTVS_TAUTO_COUNT>
-1
> <PUBCHEM_COORDINATE_TYPE>
1
5
255
> <PUBCHEM_BONDANNOTATIONS>
3  5  3
$$$$
