520809
  -OEChem-10302200292D
 35 37  0     1  0  0  0  0  0999 V2000
    2.8660   -0.4330    0.0000 O   0  0  0  0  0  0  0  0  0  0  0  0
    3.7320    1.0670    0.0000 O   0  0  0  0  0  0  0  0  0  0  0  0
    4.5981   -0.4330    0.0000 C   0  0  3  0  0  0  0  0  0  0  0  0
    5.0981    0.4330    0.0000 C   0  0  3  0  0  0  0  0  0  0  0  0
    5.5981   -0.4330    0.0000 C   0  0  0  0  0  0  0  0  0  0  0  0
    4.5981   -1.4330    0.0000 C   0  0  0  0  0  0  0  0  0  0  0  0
    5.0981    1.4330    0.0000 C   0  0  0  0  0  0  0  0  0  0  0  0
    3.7320    0.0670    0.0000 C   0  0  0  0  0  0  0  0  0  0  0  0
    3.7320   -1.9330    0.0000 C   0  0  0  0  0  0  0  0  0  0  0  0
    5.4641   -1.9330    0.0000 C   0  0  0  0  0  0  0  0  0  0  0  0
    5.9641    1.9330    0.0000 C   0  0  0  0  0  0  0  0  0  0  0  0
    4.2320    1.9330    0.0000 C   0  0  0  0  0  0  0  0  0  0  0  0
    3.7320   -2.9330    0.0000 C   0  0  0  0  0  0  0  0  0  0  0  0
    5.4641   -2.9330    0.0000 C   0  0  0  0  0  0  0  0  0  0  0  0
    5.9641    2.9330    0.0000 C   0  0  0  0  0  0  0  0  0  0  0  0
    4.2320    2.9330    0.0000 C   0  0  0  0  0  0  0  0  0  0  0  0
    4.5981   -3.4330    0.0000 C   0  0  0  0  0  0  0  0  0  0  0  0
    5.0981    3.4330    0.0000 C   0  0  0  0  0  0  0  0  0  0  0  0
    2.0000    0.0670    0.0000 C   0  0  0  0  0  0  0  0  0  0  0  0
    5.6970    0.5935    0.0000 H   0  0  0  0  0  0  0  0  0  0  0  0
    5.7057   -1.0436    0.0000 H   0  0  0  0  0  0  0  0  0  0  0  0
    6.1807   -0.2210    0.0000 H   0  0  0  0  0  0  0  0  0  0  0  0
    3.1951   -1.6230    0.0000 H   0  0  0  0  0  0  0  0  0  0  0  0
    6.0010   -1.6230    0.0000 H   0  0  0  0  0  0  0  0  0  0  0  0
    6.5010    1.6230    0.0000 H   0  0  0  0  0  0  0  0  0  0  0  0
    3.6951    1.6230    0.0000 H   0  0  0  0  0  0  0  0  0  0  0  0
    3.1951   -3.2430    0.0000 H   0  0  0  0  0  0  0  0  0  0  0  0
    6.0010   -3.2430    0.0000 H   0  0  0  0  0  0  0  0  0  0  0  0
    6.5010    3.2430    0.0000 H   0  0  0  0  0  0  0  0  0  0  0  0
    3.6951    3.2430    0.0000 H   0  0  0  0  0  0  0  0  0  0  0  0
    4.5981   -4.0530    0.0000 H   0  0  0  0  0  0  0  0  0  0  0  0
    5.0981    4.0530    0.0000 H   0  0  0  0  0  0  0  0  0  0  0  0
    2.3100    0.6039    0.0000 H   0  0  0  0  0  0  0  0  0  0  0  0
    1.4631    0.3770    0.0000 H   0  0  0  0  0  0  0  0  0  0  0  0
    1.6900   -0.4699    0.0000 H   0  0  0  0  0  0  0  0  0  0  0  0
  1  8  1  0  0  0  0
  1 19  1  0  0  0  0
  2  8  2  0  0  0  0
  3  4  1  0  0  0  0
  3  5  1  0  0  0  0
  3  6  1  0  0  0  0
  3  8  1  0  0  0  0
  4  5  1  0  0  0  0
  4  7  1  0  0  0  0
  4 20  1  0  0  0  0
  5 21  1  0  0  0  0
  5 22  1  0  0  0  0
  6  9  2  0  0  0  0
  6 10  1  0  0  0  0
  7 11  2  0  0  0  0
  7 12  1  0  0  0  0
  9 13  1  0  0  0  0
  9 23  1  0  0  0  0
 10 14  2  0  0  0  0
 10 24  1  0  0  0  0
 11 15  1  0  0  0  0
 11 25  1  0  0  0  0
 12 16  2  0  0  0  0
 12 26  1  0  0  0  0
 13 17  2  0  0  0  0
 13 27  1  0  0  0  0
 14 17  1  0  0  0  0
 14 28  1  0  0  0  0
 15 18  2  0  0  0  0
 15 29  1  0  0  0  0
 16 18  1  0  0  0  0
 16 30  1  0  0  0  0
 17 31  1  0  0  0  0
 18 32  1  0  0  0  0
 19 33  1  0  0  0  0
 19 34  1  0  0  0  0
 19 35  1  0  0  0  0
M  END
> <PUBCHEM_COMPOUND_CID>
520809
> <PUBCHEM_COMPOUND_CANONICALIZED>
1
> <PUBCHEM_CACTVS_COMPLEXITY>
326
> <PUBCHEM_CACTVS_HBOND_ACCEPTOR>
2
> <PUBCHEM_CACTVS_HBOND_DONOR>
0
> <PUBCHEM_CACTVS_ROTATABLE_BOND>
4
> <PUBCHEM_CACTVS_SUBSKEYS>
AAADceB4MAAAAAAAAAAAAAAAGAAAAAAAAAAwYAAAAAAAAAABQAAAGgAAAAAADwCAmAIyCIAABACIAiDSCAACAAAgAAAIiAEAAIgIIDKAFRCAIAAkwAEIiAeIyPCPgAAAAAAAAAAAAAAAAAAAAAAAAAAAAA==
> <PUBCHEM_IUPAC_OPENEYE_NAME>
methyl 1,2-diphenylcyclopropanecarboxylate
> <PUBCHEM_IUPAC_CAS_NAME>
1,2-diphenyl-1-cyclopropanecarboxylic acid methyl ester
> <PUBCHEM_IUPAC_NAME_MARKUP>
methyl 1,2-diphenylcyclopropane-1-carboxylate
> <PUBCHEM_IUPAC_NAME>
methyl 1,2-diphenylcyclopropane-1-carboxylate
> <PUBCHEM_IUPAC_SYSTEMATIC_NAME>
methyl 1,2-diphenylcyclopropane-1-carboxylate
> <PUBCHEM_IUPAC_TRADITIONAL_NAME>
1,2-diphenylcyclopropanecarboxylic acid methyl ester
> <PUBCHEM_IUPAC_INCHI>
InChI=1S/C17H16O2/c1-19-16(18)17(14-10-6-3-7-11-14)12-15(17)13-8-4-2-5-9-13/h2-11,15H,12H2,1H3
> <PUBCHEM_IUPAC_INCHIKEY>
YAOZVDIKXMRFBG-UHFFFAOYSA-N
> <PUBCHEM_XLOGP3_AA>
3.4
> <PUBCHEM_EXACT_MASS>
252.115029749
> <PUBCHEM_MOLECULAR_FORMULA>
C17H16O2
> <PUBCHEM_MOLECULAR_WEIGHT>
252.31
> <PUBCHEM_OPENEYE_CAN_SMILES>
COC(=O)C1(CC1C2=CC=CC=C2)C3=CC=CC=C3
> <PUBCHEM_OPENEYE_ISO_SMILES>
COC(=O)C1(CC1C2=CC=CC=C2)C3=CC=CC=C3
> <PUBCHEM_CACTVS_TPSA>
26.3
> <PUBCHEM_MONOISOTOPIC_WEIGHT>
252.115029749
> <PUBCHEM_TOTAL_CHARGE>
0
> <PUBCHEM_HEAVY_ATOM_COUNT>
19
> <PUBCHEM_ATOM_DEF_STEREO_COUNT>
0
> <PUBCHEM_ATOM_UDEF_STEREO_COUNT>
2
> <PUBCHEM_BOND_DEF_STEREO_COUNT>
0
> <PUBCHEM_BOND_UDEF_STEREO_COUNT>
0
> <PUBCHEM_ISOTOPIC_ATOM_COUNT>
0
> <PUBCHEM_COMPONENT_COUNT>
1
> <PUBCHEM_CACTVS_TAUTO_COUNT>
-1
> <PUBCHEM_COORDINATE_TYPE>
1
5
255
> <PUBCHEM_BONDANNOTATIONS>
10  14  8
11  15  8
12  16  8
13  17  8
14  17  8
15  18  8
16  18  8
3  6  3
4  7  3
6  10  8
6  9  8
7  11  8
7  12  8
9  13  8
$$$$
