520850
  -OEChem-10302200292D
 14 13  0     1  0  0  0  0  0999 V2000
    3.2320    0.5490    0.0000 Cl  0  0  0  0  0  0  0  0  0  0  0  0
    2.0000   -1.3170    0.0000 Cl  0  0  0  0  0  0  0  0  0  0  0  0
    4.2320   -1.1830    0.0000 F   0  0  0  0  0  0  0  0  0  0  0  0
    4.0981    1.0490    0.0000 F   0  0  0  0  0  0  0  0  0  0  0  0
    5.0981   -0.6830    0.0000 F   0  0  0  0  0  0  0  0  0  0  0  0
    2.3660    0.0490    0.0000 F   0  0  0  0  0  0  0  0  0  0  0  0
    3.3660   -1.6830    0.0000 F   0  0  0  0  0  0  0  0  0  0  0  0
    6.3301    0.1830    0.0000 O   0  0  0  0  0  0  0  0  0  0  0  0
    5.4641    1.6830    0.0000 O   0  0  0  0  0  0  0  0  0  0  0  0
    3.7320   -0.3170    0.0000 C   0  0  3  0  0  0  0  0  0  0  0  0
    4.5981    0.1830    0.0000 C   0  0  0  0  0  0  0  0  0  0  0  0
    2.8660   -0.8170    0.0000 C   0  0  0  0  0  0  0  0  0  0  0  0
    5.4641    0.6830    0.0000 C   0  0  0  0  0  0  0  0  0  0  0  0
    6.8671    0.4930    0.0000 H   0  0  0  0  0  0  0  0  0  0  0  0
  1 10  1  0  0  0  0
  2 12  1  0  0  0  0
  3 10  1  0  0  0  0
  4 11  1  0  0  0  0
  5 11  1  0  0  0  0
  6 12  1  0  0  0  0
  7 12  1  0  0  0  0
  8 13  1  0  0  0  0
  8 14  1  0  0  0  0
  9 13  2  0  0  0  0
 10 11  1  0  0  0  0
 10 12  1  0  0  0  0
 11 13  1  0  0  0  0
M  END
> <PUBCHEM_COMPOUND_CID>
520850
> <PUBCHEM_COMPOUND_CANONICALIZED>
1
> <PUBCHEM_CACTVS_COMPLEXITY>
233
> <PUBCHEM_CACTVS_HBOND_ACCEPTOR>
7
> <PUBCHEM_CACTVS_HBOND_DONOR>
1
> <PUBCHEM_CACTVS_ROTATABLE_BOND>
3
> <PUBCHEM_CACTVS_SUBSKEYS>
AAADcQBgMcAGAAAAAAAAAAAAAAAAAAAAAAAAAAAAAAAAAAAAAAAACwIACAAACAIAgBAACAAAAgAIAACQCAAAAAAAAAAAAEEAAgAAABABAAAAQAAEAAAAAAAAAAAAAAAAAAAAAAAAAAAAAAAAAAAAAAAAAA==
> <PUBCHEM_IUPAC_OPENEYE_NAME>
3,4-dichloro-2,2,3,4,4-pentafluoro-butanoic acid
> <PUBCHEM_IUPAC_CAS_NAME>
3,4-dichloro-2,2,3,4,4-pentafluorobutanoic acid
> <PUBCHEM_IUPAC_NAME_MARKUP>
3,4-dichloro-2,2,3,4,4-pentafluorobutanoic acid
> <PUBCHEM_IUPAC_NAME>
3,4-dichloro-2,2,3,4,4-pentafluorobutanoic acid
> <PUBCHEM_IUPAC_SYSTEMATIC_NAME>
3,4-bis(chloranyl)-2,2,3,4,4-pentakis(fluoranyl)butanoic acid
> <PUBCHEM_IUPAC_TRADITIONAL_NAME>
3,4-dichloro-2,2,3,4,4-pentafluoro-butyric acid
> <PUBCHEM_IUPAC_INCHI>
InChI=1S/C4HCl2F5O2/c5-3(9,4(6,10)11)2(7,8)1(12)13/h(H,12,13)
> <PUBCHEM_IUPAC_INCHIKEY>
WVWCLNDERHVFSB-UHFFFAOYSA-N
> <PUBCHEM_XLOGP3_AA>
2.7
> <PUBCHEM_EXACT_MASS>
245.9273755
> <PUBCHEM_MOLECULAR_FORMULA>
C4HCl2F5O2
> <PUBCHEM_MOLECULAR_WEIGHT>
246.94
> <PUBCHEM_OPENEYE_CAN_SMILES>
C(=O)(C(C(C(F)(F)Cl)(F)Cl)(F)F)O
> <PUBCHEM_OPENEYE_ISO_SMILES>
C(=O)(C(C(C(F)(F)Cl)(F)Cl)(F)F)O
> <PUBCHEM_CACTVS_TPSA>
37.3
> <PUBCHEM_MONOISOTOPIC_WEIGHT>
245.9273755
> <PUBCHEM_TOTAL_CHARGE>
0
> <PUBCHEM_HEAVY_ATOM_COUNT>
13
> <PUBCHEM_ATOM_DEF_STEREO_COUNT>
0
> <PUBCHEM_ATOM_UDEF_STEREO_COUNT>
1
> <PUBCHEM_BOND_DEF_STEREO_COUNT>
0
> <PUBCHEM_BOND_UDEF_STEREO_COUNT>
0
> <PUBCHEM_ISOTOPIC_ATOM_COUNT>
0
> <PUBCHEM_COMPONENT_COUNT>
1
> <PUBCHEM_CACTVS_TAUTO_COUNT>
-1
> <PUBCHEM_COORDINATE_TYPE>
1
5
255
> <PUBCHEM_BONDANNOTATIONS>
10  3  3
$$$$
