520825
  -OEChem-10302200292D
 54 59  0     1  0  0  0  0  0999 V2000
    4.8294    1.0528    0.0000 O   0  0  0  0  0  0  0  0  0  0  0  0
    4.5981   -1.4022    0.0000 O   0  0  0  0  0  0  0  0  0  0  0  0
    4.5981    3.4022    0.0000 O   0  0  0  0  0  0  0  0  0  0  0  0
    5.4641   -2.9021    0.0000 O   0  0  0  0  0  0  0  0  0  0  0  0
    8.7587    0.0489    0.0000 N   0  0  3  0  0  0  0  0  0  0  0  0
    2.0000   -2.9021    0.0000 N   0  0  0  0  0  0  0  0  0  0  0  0
    6.2878    0.5245    0.0000 C   0  0  3  0  0  0  0  0  0  0  0  0
    7.1114    0.0489    0.0000 C   0  0  3  0  0  0  0  0  0  0  0  0
    7.9351    0.5245    0.0000 C   0  0  3  0  0  0  0  0  0  0  0  0
    5.4641    0.0489    0.0000 C   0  0  3  0  0  0  0  0  0  0  0  0
    6.8373    1.2219    0.0000 C   0  0  0  0  0  0  0  0  0  0  0  0
    6.2878    1.4755    0.0000 C   0  0  0  0  0  0  0  0  0  0  0  0
    7.9351    1.4755    0.0000 C   0  0  0  0  0  0  0  0  0  0  0  0
    8.1899    1.2219    0.0000 C   0  0  0  0  0  0  0  0  0  0  0  0
    7.1114    1.9511    0.0000 C   0  0  0  0  0  0  0  0  0  0  0  0
    5.4641   -0.9022    0.0000 C   0  0  3  0  0  0  0  0  0  0  0  0
    7.1114   -0.9022    0.0000 C   0  0  0  0  0  0  0  0  0  0  0  0
    5.4641    1.9511    0.0000 C   0  0  0  0  0  0  0  0  0  0  0  0
    6.2878   -1.3777    0.0000 C   0  0  0  0  0  0  0  0  0  0  0  0
    9.4399   -0.6832    0.0000 C   0  0  0  0  0  0  0  0  0  0  0  0
    7.1114    2.9021    0.0000 C   0  0  0  0  0  0  0  0  0  0  0  0
    5.4641    2.9021    0.0000 C   0  0  0  0  0  0  0  0  0  0  0  0
    6.2878    3.3777    0.0000 C   0  0  0  0  0  0  0  0  0  0  0  0
    4.5981   -2.4021    0.0000 C   0  0  0  0  0  0  0  0  0  0  0  0
    4.5981    4.4022    0.0000 C   0  0  0  0  0  0  0  0  0  0  0  0
    3.7320   -2.9021    0.0000 C   0  0  0  0  0  0  0  0  0  0  0  0
    3.7320   -3.9022    0.0000 C   0  0  0  0  0  0  0  0  0  0  0  0
    2.8660   -2.4021    0.0000 C   0  0  0  0  0  0  0  0  0  0  0  0
    2.8660   -4.4022    0.0000 C   0  0  0  0  0  0  0  0  0  0  0  0
    2.0000   -3.9022    0.0000 C   0  0  0  0  0  0  0  0  0  0  0  0
    7.6484   -0.2611    0.0000 H   0  0  0  0  0  0  0  0  0  0  0  0
    8.4720    0.8345    0.0000 H   0  0  0  0  0  0  0  0  0  0  0  0
    4.8686   -0.1235    0.0000 H   0  0  0  0  0  0  0  0  0  0  0  0
    6.9740    1.8266    0.0000 H   0  0  0  0  0  0  0  0  0  0  0  0
    6.2776    1.4887    0.0000 H   0  0  0  0  0  0  0  0  0  0  0  0
    8.5457    1.3679    0.0000 H   0  0  0  0  0  0  0  0  0  0  0  0
    8.1471    2.0581    0.0000 H   0  0  0  0  0  0  0  0  0  0  0  0
    8.7820    1.4057    0.0000 H   0  0  0  0  0  0  0  0  0  0  0  0
    8.0970    1.8349    0.0000 H   0  0  0  0  0  0  0  0  0  0  0  0
    5.4641   -1.5221    0.0000 H   0  0  0  0  0  0  0  0  0  0  0  0
    7.6484   -1.2122    0.0000 H   0  0  0  0  0  0  0  0  0  0  0  0
    6.2878   -1.9977    0.0000 H   0  0  0  0  0  0  0  0  0  0  0  0
    8.9860   -1.1055    0.0000 H   0  0  0  0  0  0  0  0  0  0  0  0
    9.8622   -1.1371    0.0000 H   0  0  0  0  0  0  0  0  0  0  0  0
    9.8938   -0.2609    0.0000 H   0  0  0  0  0  0  0  0  0  0  0  0
    7.6484    3.2122    0.0000 H   0  0  0  0  0  0  0  0  0  0  0  0
    6.2878    3.9977    0.0000 H   0  0  0  0  0  0  0  0  0  0  0  0
    5.2181    4.4022    0.0000 H   0  0  0  0  0  0  0  0  0  0  0  0
    4.5981    5.0222    0.0000 H   0  0  0  0  0  0  0  0  0  0  0  0
    3.9781    4.4022    0.0000 H   0  0  0  0  0  0  0  0  0  0  0  0
    4.2690   -4.2122    0.0000 H   0  0  0  0  0  0  0  0  0  0  0  0
    2.8660   -1.7822    0.0000 H   0  0  0  0  0  0  0  0  0  0  0  0
    2.8660   -5.0222    0.0000 H   0  0  0  0  0  0  0  0  0  0  0  0
    1.4631   -4.2122    0.0000 H   0  0  0  0  0  0  0  0  0  0  0  0
  1 10  1  0  0  0  0
  1 18  1  0  0  0  0
  2 16  1  0  0  0  0
  2 24  1  0  0  0  0
  3 22  1  0  0  0  0
  3 25  1  0  0  0  0
  4 24  2  0  0  0  0
  5  9  1  0  0  0  0
  5 14  1  0  0  0  0
  5 20  1  0  0  0  0
  6 28  1  0  0  0  0
  6 30  2  0  0  0  0
  7  8  1  0  0  0  0
  7 10  1  0  0  0  0
  7 11  1  0  0  0  0
  7 12  1  0  0  0  0
  8  9  1  0  0  0  0
  8 17  1  0  0  0  0
  8 31  1  0  0  0  0
  9 13  1  0  0  0  0
  9 32  1  0  0  0  0
 10 16  1  0  0  0  0
 10 33  1  0  0  0  0
 11 14  1  0  0  0  0
 11 34  1  0  0  0  0
 11 35  1  0  0  0  0
 12 15  2  0  0  0  0
 12 18  1  0  0  0  0
 13 15  1  0  0  0  0
 13 36  1  0  0  0  0
 13 37  1  0  0  0  0
 14 38  1  0  0  0  0
 14 39  1  0  0  0  0
 15 21  1  0  0  0  0
 16 19  1  0  0  0  0
 16 40  1  0  0  0  0
 17 19  2  0  0  0  0
 17 41  1  0  0  0  0
 18 22  2  0  0  0  0
 19 42  1  0  0  0  0
 20 43  1  0  0  0  0
 20 44  1  0  0  0  0
 20 45  1  0  0  0  0
 21 23  2  0  0  0  0
 21 46  1  0  0  0  0
 22 23  1  0  0  0  0
 23 47  1  0  0  0  0
 24 26  1  0  0  0  0
 25 48  1  0  0  0  0
 25 49  1  0  0  0  0
 25 50  1  0  0  0  0
 26 27  1  0  0  0  0
 26 28  2  0  0  0  0
 27 29  2  0  0  0  0
 27 51  1  0  0  0  0
 28 52  1  0  0  0  0
 29 30  1  0  0  0  0
 29 53  1  0  0  0  0
 30 54  1  0  0  0  0
M  END
> <PUBCHEM_COMPOUND_CID>
520825
> <PUBCHEM_COMPOUND_CANONICALIZED>
1
> <PUBCHEM_CACTVS_COMPLEXITY>
728
> <PUBCHEM_CACTVS_HBOND_ACCEPTOR>
6
> <PUBCHEM_CACTVS_HBOND_DONOR>
0
> <PUBCHEM_CACTVS_ROTATABLE_BOND>
4
> <PUBCHEM_CACTVS_SUBSKEYS>
AAADceB7OAAAAAAAAAAAAAAAAAAAASAAAAA8eIECAAAWAEjBwAAAHgAAAAAADzzhmgY+jpMIFACoAjD3TACCiCA1IiAI2CE+7NgNJvrEtZuGOarmwBHK6ce48f8PoAABAAAYQADQAAaAADSAAAAAAAAAAA==
> <PUBCHEM_IUPAC_OPENEYE_NAME>
(9-methoxy-3-methyl-2,4,4a,7,7a,13-hexahydro-1H-4,12-methanobenzofuro[3,2-e]isoquinolin-7-yl) pyridine-3-carboxylate
> <PUBCHEM_IUPAC_CAS_NAME>
3-pyridinecarboxylic acid (9-methoxy-3-methyl-2,4,4a,7,7a,13-hexahydro-1H-4,12-methanobenzofuro[3,2-e]isoquinolin-7-yl) ester
> <PUBCHEM_IUPAC_NAME_MARKUP>
(9-methoxy-3-methyl-2,4,4<I>a</I>,7,7<I>a</I>,13-hexahydro-1<I>H</I>-4,12-methanobenzofuro[3,2-e]isoquinolin-7-yl) pyridine-3-carboxylate
> <PUBCHEM_IUPAC_NAME>
(9-methoxy-3-methyl-2,4,4a,7,7a,13-hexahydro-1H-4,12-methanobenzofuro[3,2-e]isoquinolin-7-yl) pyridine-3-carboxylate
> <PUBCHEM_IUPAC_SYSTEMATIC_NAME>
(9-methoxy-3-methyl-2,4,4a,7,7a,13-hexahydro-1H-4,12-methanobenzofuro[3,2-e]isoquinolin-7-yl) pyridine-3-carboxylate
> <PUBCHEM_IUPAC_TRADITIONAL_NAME>
nicotinic acid (9-methoxy-3-methyl-2,4,4a,7,7a,13-hexahydro-1H-4,12-methanobenzofuro[3,2-e]isoquinolin-7-yl) ester
> <PUBCHEM_IUPAC_INCHI>
InChI=1S/C24H24N2O4/c1-26-11-9-24-16-6-8-19(29-23(27)15-4-3-10-25-13-15)22(24)30-21-18(28-2)7-5-14(20(21)24)12-17(16)26/h3-8,10,13,16-17,19,22H,9,11-12H2,1-2H3
> <PUBCHEM_IUPAC_INCHIKEY>
RYBGRHAWFUVMST-UHFFFAOYSA-N
> <PUBCHEM_XLOGP3>
2.3
> <PUBCHEM_EXACT_MASS>
404.17360725
> <PUBCHEM_MOLECULAR_FORMULA>
C24H24N2O4
> <PUBCHEM_MOLECULAR_WEIGHT>
404.5
> <PUBCHEM_OPENEYE_CAN_SMILES>
CN1CCC23C4C1CC5=C2C(=C(C=C5)OC)OC3C(C=C4)OC(=O)C6=CN=CC=C6
> <PUBCHEM_OPENEYE_ISO_SMILES>
CN1CCC23C4C1CC5=C2C(=C(C=C5)OC)OC3C(C=C4)OC(=O)C6=CN=CC=C6
> <PUBCHEM_CACTVS_TPSA>
60.9
> <PUBCHEM_MONOISOTOPIC_WEIGHT>
404.17360725
> <PUBCHEM_TOTAL_CHARGE>
0
> <PUBCHEM_HEAVY_ATOM_COUNT>
30
> <PUBCHEM_ATOM_DEF_STEREO_COUNT>
0
> <PUBCHEM_ATOM_UDEF_STEREO_COUNT>
5
> <PUBCHEM_BOND_DEF_STEREO_COUNT>
0
> <PUBCHEM_BOND_UDEF_STEREO_COUNT>
0
> <PUBCHEM_ISOTOPIC_ATOM_COUNT>
0
> <PUBCHEM_COMPONENT_COUNT>
1
> <PUBCHEM_CACTVS_TAUTO_COUNT>
-1
> <PUBCHEM_COORDINATE_TYPE>
1
5
255
> <PUBCHEM_BONDANNOTATIONS>
10  1  3
12  15  8
12  18  8
15  21  8
18  22  8
16  2  3
21  23  8
22  23  8
26  27  8
26  28  8
27  29  8
29  30  8
6  28  8
6  30  8
7  11  3
8  17  3
9  13  3
$$$$
