520876
  -OEChem-10302200292D
 29 28  0     1  0  0  0  0  0999 V2000
    6.3301   -0.3170    0.0000 O   0  0  0  0  0  0  0  0  0  0  0  0
    5.4641    1.1830    0.0000 O   0  0  0  0  0  0  0  0  0  0  0  0
    4.5981   -0.3170    0.0000 C   0  0  3  0  0  0  0  0  0  0  0  0
    3.7320   -0.8170    0.0000 C   0  0  0  0  0  0  0  0  0  0  0  0
    4.0981    0.5490    0.0000 C   0  0  0  0  0  0  0  0  0  0  0  0
    5.0981   -1.1830    0.0000 C   0  0  0  0  0  0  0  0  0  0  0  0
    2.8660   -0.3170    0.0000 C   0  0  0  0  0  0  0  0  0  0  0  0
    5.4641    0.1830    0.0000 C   0  0  0  0  0  0  0  0  0  0  0  0
    3.0981    0.5490    0.0000 C   0  0  0  0  0  0  0  0  0  0  0  0
    2.0000   -0.8170    0.0000 C   0  0  0  0  0  0  0  0  0  0  0  0
    7.1962    0.1830    0.0000 C   0  0  0  0  0  0  0  0  0  0  0  0
    3.3335   -1.2919    0.0000 H   0  0  0  0  0  0  0  0  0  0  0  0
    4.1306   -1.2919    0.0000 H   0  0  0  0  0  0  0  0  0  0  0  0
    4.6807    0.7611    0.0000 H   0  0  0  0  0  0  0  0  0  0  0  0
    3.9904    1.1596    0.0000 H   0  0  0  0  0  0  0  0  0  0  0  0
    4.5611   -1.4930    0.0000 H   0  0  0  0  0  0  0  0  0  0  0  0
    5.4081   -1.7200    0.0000 H   0  0  0  0  0  0  0  0  0  0  0  0
    5.6350   -0.8730    0.0000 H   0  0  0  0  0  0  0  0  0  0  0  0
    3.2646    0.1580    0.0000 H   0  0  0  0  0  0  0  0  0  0  0  0
    2.4675    0.1580    0.0000 H   0  0  0  0  0  0  0  0  0  0  0  0
    3.0981    1.1690    0.0000 H   0  0  0  0  0  0  0  0  0  0  0  0
    2.4781    0.5490    0.0000 H   0  0  0  0  0  0  0  0  0  0  0  0
    3.0981   -0.0710    0.0000 H   0  0  0  0  0  0  0  0  0  0  0  0
    1.6900   -0.2801    0.0000 H   0  0  0  0  0  0  0  0  0  0  0  0
    1.4631   -1.1270    0.0000 H   0  0  0  0  0  0  0  0  0  0  0  0
    2.3100   -1.3539    0.0000 H   0  0  0  0  0  0  0  0  0  0  0  0
    7.5062   -0.3539    0.0000 H   0  0  0  0  0  0  0  0  0  0  0  0
    7.7331    0.4930    0.0000 H   0  0  0  0  0  0  0  0  0  0  0  0
    6.8862    0.7199    0.0000 H   0  0  0  0  0  0  0  0  0  0  0  0
  1  8  1  0  0  0  0
  1 11  1  0  0  0  0
  2  8  2  0  0  0  0
  3  4  1  0  0  0  0
  3  5  1  0  0  0  0
  3  6  1  0  0  0  0
  3  8  1  0  0  0  0
  4  7  1  0  0  0  0
  4 12  1  0  0  0  0
  4 13  1  0  0  0  0
  5  9  1  0  0  0  0
  5 14  1  0  0  0  0
  5 15  1  0  0  0  0
  6 16  1  0  0  0  0
  6 17  1  0  0  0  0
  6 18  1  0  0  0  0
  7 10  1  0  0  0  0
  7 19  1  0  0  0  0
  7 20  1  0  0  0  0
  9 21  1  0  0  0  0
  9 22  1  0  0  0  0
  9 23  1  0  0  0  0
 10 24  1  0  0  0  0
 10 25  1  0  0  0  0
 10 26  1  0  0  0  0
 11 27  1  0  0  0  0
 11 28  1  0  0  0  0
 11 29  1  0  0  0  0
M  END
> <PUBCHEM_COMPOUND_CID>
520876
> <PUBCHEM_COMPOUND_CANONICALIZED>
1
> <PUBCHEM_CACTVS_COMPLEXITY>
132
> <PUBCHEM_CACTVS_HBOND_ACCEPTOR>
2
> <PUBCHEM_CACTVS_HBOND_DONOR>
0
> <PUBCHEM_CACTVS_ROTATABLE_BOND>
5
> <PUBCHEM_CACTVS_SUBSKEYS>
AAADceBwMAAAAAAAAAAAAAAAAAAAAAAAAAAAAAAAAAAAAAAAAAAAGgAAAAAADgCAgAICCAAABAAIAACQCAAAAAAAAAAAAAEAAAAAABIAAAAAAAAEAAAAAAGIAAAPAAAAAAAAAAAAAAAAAAAAAAAAAAAAAA==
> <PUBCHEM_IUPAC_OPENEYE_NAME>
methyl 2-ethyl-2-methyl-pentanoate
> <PUBCHEM_IUPAC_CAS_NAME>
2-ethyl-2-methylpentanoic acid methyl ester
> <PUBCHEM_IUPAC_NAME_MARKUP>
methyl 2-ethyl-2-methylpentanoate
> <PUBCHEM_IUPAC_NAME>
methyl 2-ethyl-2-methylpentanoate
> <PUBCHEM_IUPAC_SYSTEMATIC_NAME>
methyl 2-ethyl-2-methyl-pentanoate
> <PUBCHEM_IUPAC_TRADITIONAL_NAME>
2-ethyl-2-methyl-valeric acid methyl ester
> <PUBCHEM_IUPAC_INCHI>
InChI=1S/C9H18O2/c1-5-7-9(3,6-2)8(10)11-4/h5-7H2,1-4H3
> <PUBCHEM_IUPAC_INCHIKEY>
JVBYMEHKMMCQBG-UHFFFAOYSA-N
> <PUBCHEM_XLOGP3_AA>
2.8
> <PUBCHEM_EXACT_MASS>
158.130679813
> <PUBCHEM_MOLECULAR_FORMULA>
C9H18O2
> <PUBCHEM_MOLECULAR_WEIGHT>
158.24
> <PUBCHEM_OPENEYE_CAN_SMILES>
CCCC(C)(CC)C(=O)OC
> <PUBCHEM_OPENEYE_ISO_SMILES>
CCCC(C)(CC)C(=O)OC
> <PUBCHEM_CACTVS_TPSA>
26.3
> <PUBCHEM_MONOISOTOPIC_WEIGHT>
158.130679813
> <PUBCHEM_TOTAL_CHARGE>
0
> <PUBCHEM_HEAVY_ATOM_COUNT>
11
> <PUBCHEM_ATOM_DEF_STEREO_COUNT>
0
> <PUBCHEM_ATOM_UDEF_STEREO_COUNT>
1
> <PUBCHEM_BOND_DEF_STEREO_COUNT>
0
> <PUBCHEM_BOND_UDEF_STEREO_COUNT>
0
> <PUBCHEM_ISOTOPIC_ATOM_COUNT>
0
> <PUBCHEM_COMPONENT_COUNT>
1
> <PUBCHEM_CACTVS_TAUTO_COUNT>
1
> <PUBCHEM_COORDINATE_TYPE>
1
5
255
> <PUBCHEM_BONDANNOTATIONS>
3  6  3
$$$$
