520975
  -OEChem-10302200292D
 31 33  0     1  0  0  0  0  0999 V2000
    3.1028    1.1774    0.0000 O   0  0  0  0  0  0  0  0  0  0  0  0
    2.4608   -0.0826    0.0000 O   0  0  0  0  0  0  0  0  0  0  0  0
    3.9118    2.7652    0.0000 O   0  0  0  0  0  0  0  0  0  0  0  0
    3.4118    0.2264    0.0000 C   0  0  3  0  0  0  0  0  0  0  0  0
    4.4118    0.2264    0.0000 C   0  0  0  0  0  0  0  0  0  0  0  0
    3.4118   -0.7736    0.0000 C   0  0  0  0  0  0  0  0  0  0  0  0
    4.7208    1.1774    0.0000 C   0  0  0  0  0  0  0  0  0  0  0  0
    3.9118    1.7652    0.0000 C   0  0  0  0  0  0  0  0  0  0  0  0
    5.6719    1.4864    0.0000 C   0  0  0  0  0  0  0  0  0  0  0  0
    2.5458   -1.2736    0.0000 C   0  0  0  0  0  0  0  0  0  0  0  0
    4.2778   -1.2736    0.0000 C   0  0  0  0  0  0  0  0  0  0  0  0
    6.4150    0.8173    0.0000 C   0  0  0  0  0  0  0  0  0  0  0  0
    5.8798    2.4646    0.0000 C   0  0  0  0  0  0  0  0  0  0  0  0
    2.5458   -2.2736    0.0000 C   0  0  0  0  0  0  0  0  0  0  0  0
    4.2778   -2.2736    0.0000 C   0  0  0  0  0  0  0  0  0  0  0  0
    3.4118   -2.7736    0.0000 C   0  0  0  0  0  0  0  0  0  0  0  0
    7.3661    1.1263    0.0000 C   0  0  0  0  0  0  0  0  0  0  0  0
    6.8308    2.7736    0.0000 C   0  0  0  0  0  0  0  0  0  0  0  0
    7.5740    2.1045    0.0000 C   0  0  0  0  0  0  0  0  0  0  0  0
    4.7762   -0.2752    0.0000 H   0  0  0  0  0  0  0  0  0  0  0  0
    2.0088   -0.9636    0.0000 H   0  0  0  0  0  0  0  0  0  0  0  0
    4.8148   -0.9636    0.0000 H   0  0  0  0  0  0  0  0  0  0  0  0
    2.0000    0.3322    0.0000 H   0  0  0  0  0  0  0  0  0  0  0  0
    6.2861    0.2109    0.0000 H   0  0  0  0  0  0  0  0  0  0  0  0
    5.4190    2.8795    0.0000 H   0  0  0  0  0  0  0  0  0  0  0  0
    2.0088   -2.5836    0.0000 H   0  0  0  0  0  0  0  0  0  0  0  0
    4.8148   -2.5836    0.0000 H   0  0  0  0  0  0  0  0  0  0  0  0
    3.4118   -3.3936    0.0000 H   0  0  0  0  0  0  0  0  0  0  0  0
    7.8268    0.7115    0.0000 H   0  0  0  0  0  0  0  0  0  0  0  0
    6.9598    3.3801    0.0000 H   0  0  0  0  0  0  0  0  0  0  0  0
    8.1636    2.2961    0.0000 H   0  0  0  0  0  0  0  0  0  0  0  0
  1  4  1  0  0  0  0
  1  8  1  0  0  0  0
  2  4  1  0  0  0  0
  2 23  1  0  0  0  0
  3  8  2  0  0  0  0
  4  5  1  0  0  0  0
  4  6  1  0  0  0  0
  5  7  2  0  0  0  0
  5 20  1  0  0  0  0
  6 10  2  0  0  0  0
  6 11  1  0  0  0  0
  7  8  1  0  0  0  0
  7  9  1  0  0  0  0
  9 12  2  0  0  0  0
  9 13  1  0  0  0  0
 10 14  1  0  0  0  0
 10 21  1  0  0  0  0
 11 15  2  0  0  0  0
 11 22  1  0  0  0  0
 12 17  1  0  0  0  0
 12 24  1  0  0  0  0
 13 18  2  0  0  0  0
 13 25  1  0  0  0  0
 14 16  2  0  0  0  0
 14 26  1  0  0  0  0
 15 16  1  0  0  0  0
 15 27  1  0  0  0  0
 16 28  1  0  0  0  0
 17 19  2  0  0  0  0
 17 29  1  0  0  0  0
 18 19  1  0  0  0  0
 18 30  1  0  0  0  0
 19 31  1  0  0  0  0
M  END
> <PUBCHEM_COMPOUND_CID>
520975
> <PUBCHEM_COMPOUND_CANONICALIZED>
1
> <PUBCHEM_CACTVS_COMPLEXITY>
376
> <PUBCHEM_CACTVS_HBOND_ACCEPTOR>
3
> <PUBCHEM_CACTVS_HBOND_DONOR>
1
> <PUBCHEM_CACTVS_ROTATABLE_BOND>
2
> <PUBCHEM_CACTVS_SUBSKEYS>
AAADccB4MAAAAAAAAAAAAAAAAAAAAQAAAAAwYAAAAAAAAAABQAAAGgAACAAADASAmAAwCIAABgCIAiDSCAACAAAgAAAIiAEACMgYJjKANRiCcAAkwAEMuYeIyKCOAAAAAAAAAAAAAAAAAAAAAAAAAAAAAA==
> <PUBCHEM_IUPAC_OPENEYE_NAME>
5-hydroxy-3,5-diphenyl-furan-2-one
> <PUBCHEM_IUPAC_CAS_NAME>
5-hydroxy-3,5-diphenyl-2-furanone
> <PUBCHEM_IUPAC_NAME_MARKUP>
5-hydroxy-3,5-diphenylfuran-2-one
> <PUBCHEM_IUPAC_NAME>
5-hydroxy-3,5-diphenylfuran-2-one
> <PUBCHEM_IUPAC_SYSTEMATIC_NAME>
5-oxidanyl-3,5-diphenyl-furan-2-one
> <PUBCHEM_IUPAC_TRADITIONAL_NAME>
5-hydroxy-3,5-diphenyl-furan-2-one
> <PUBCHEM_IUPAC_INCHI>
InChI=1S/C16H12O3/c17-15-14(12-7-3-1-4-8-12)11-16(18,19-15)13-9-5-2-6-10-13/h1-11,18H
> <PUBCHEM_IUPAC_INCHIKEY>
VYIYKOAKBRGNBW-UHFFFAOYSA-N
> <PUBCHEM_XLOGP3_AA>
2.8
> <PUBCHEM_EXACT_MASS>
252.078644241
> <PUBCHEM_MOLECULAR_FORMULA>
C16H12O3
> <PUBCHEM_MOLECULAR_WEIGHT>
252.26
> <PUBCHEM_OPENEYE_CAN_SMILES>
C1=CC=C(C=C1)C2=CC(OC2=O)(C3=CC=CC=C3)O
> <PUBCHEM_OPENEYE_ISO_SMILES>
C1=CC=C(C=C1)C2=CC(OC2=O)(C3=CC=CC=C3)O
> <PUBCHEM_CACTVS_TPSA>
46.5
> <PUBCHEM_MONOISOTOPIC_WEIGHT>
252.078644241
> <PUBCHEM_TOTAL_CHARGE>
0
> <PUBCHEM_HEAVY_ATOM_COUNT>
19
> <PUBCHEM_ATOM_DEF_STEREO_COUNT>
0
> <PUBCHEM_ATOM_UDEF_STEREO_COUNT>
1
> <PUBCHEM_BOND_DEF_STEREO_COUNT>
0
> <PUBCHEM_BOND_UDEF_STEREO_COUNT>
0
> <PUBCHEM_ISOTOPIC_ATOM_COUNT>
0
> <PUBCHEM_COMPONENT_COUNT>
1
> <PUBCHEM_CACTVS_TAUTO_COUNT>
-1
> <PUBCHEM_COORDINATE_TYPE>
1
5
255
> <PUBCHEM_BONDANNOTATIONS>
10  14  8
11  15  8
12  17  8
13  18  8
14  16  8
15  16  8
17  19  8
18  19  8
4  2  3
6  10  8
6  11  8
9  12  8
9  13  8
$$$$
