520937
  -OEChem-10302200292D
 19 18  0     1  0  0  0  0  0999 V2000
    2.0000   -0.2500    0.0000 Cl  0  0  0  0  0  0  0  0  0  0  0  0
    7.1962   -0.2500    0.0000 Cl  0  0  0  0  0  0  0  0  0  0  0  0
    4.5981    0.2500    0.0000 O   0  0  0  0  0  0  0  0  0  0  0  0
    3.7320   -1.2500    0.0000 O   0  0  0  0  0  0  0  0  0  0  0  0
    5.4641   -1.2500    0.0000 O   0  0  0  0  0  0  0  0  0  0  0  0
    2.8660    0.2500    0.0000 C   0  0  3  0  0  0  0  0  0  0  0  0
    6.3301    0.2500    0.0000 C   0  0  3  0  0  0  0  0  0  0  0  0
    3.7320   -0.2500    0.0000 C   0  0  0  0  0  0  0  0  0  0  0  0
    5.4641   -0.2500    0.0000 C   0  0  0  0  0  0  0  0  0  0  0  0
    2.8660    1.2500    0.0000 C   0  0  0  0  0  0  0  0  0  0  0  0
    6.3301    1.2500    0.0000 C   0  0  0  0  0  0  0  0  0  0  0  0
    2.8660   -0.3700    0.0000 H   0  0  0  0  0  0  0  0  0  0  0  0
    6.8671    0.5600    0.0000 H   0  0  0  0  0  0  0  0  0  0  0  0
    3.4860    1.2500    0.0000 H   0  0  0  0  0  0  0  0  0  0  0  0
    2.8660    1.8700    0.0000 H   0  0  0  0  0  0  0  0  0  0  0  0
    2.2460    1.2500    0.0000 H   0  0  0  0  0  0  0  0  0  0  0  0
    6.9501    1.2500    0.0000 H   0  0  0  0  0  0  0  0  0  0  0  0
    6.3301    1.8700    0.0000 H   0  0  0  0  0  0  0  0  0  0  0  0
    5.7101    1.2500    0.0000 H   0  0  0  0  0  0  0  0  0  0  0  0
  1  6  1  0  0  0  0
  2  7  1  0  0  0  0
  3  8  1  0  0  0  0
  3  9  1  0  0  0  0
  4  8  2  0  0  0  0
  5  9  2  0  0  0  0
  6  8  1  0  0  0  0
  6 10  1  0  0  0  0
  6 12  1  0  0  0  0
  7  9  1  0  0  0  0
  7 11  1  0  0  0  0
  7 13  1  0  0  0  0
 10 14  1  0  0  0  0
 10 15  1  0  0  0  0
 10 16  1  0  0  0  0
 11 17  1  0  0  0  0
 11 18  1  0  0  0  0
 11 19  1  0  0  0  0
M  END
> <PUBCHEM_COMPOUND_CID>
520937
> <PUBCHEM_COMPOUND_CANONICALIZED>
1
> <PUBCHEM_CACTVS_COMPLEXITY>
151
> <PUBCHEM_CACTVS_HBOND_ACCEPTOR>
3
> <PUBCHEM_CACTVS_HBOND_DONOR>
0
> <PUBCHEM_CACTVS_ROTATABLE_BOND>
4
> <PUBCHEM_CACTVS_SUBSKEYS>
AAADccBgMAAGAAAAAAAAAAAAAAAAAAAAAAAAAAAAAAAAAAAAAAAAGgIAAAAACAOAgEACCAAABAAIAACQCAAAAAAAAAAAAAEAAQBAAAAAAAACAAAAAAAAAAAAAAAAAAAAAAAAAAAAAAAAAAAAAAAAAAAAAA==
> <PUBCHEM_IUPAC_OPENEYE_NAME>
2-chloropropanoyl 2-chloropropanoate
> <PUBCHEM_IUPAC_CAS_NAME>
2-chloropropanoic acid (2-chloro-1-oxopropyl) ester
> <PUBCHEM_IUPAC_NAME_MARKUP>
2-chloropropanoyl 2-chloropropanoate
> <PUBCHEM_IUPAC_NAME>
2-chloropropanoyl 2-chloropropanoate
> <PUBCHEM_IUPAC_SYSTEMATIC_NAME>
2-chloranylpropanoyl 2-chloranylpropanoate
> <PUBCHEM_IUPAC_TRADITIONAL_NAME>
2-chloropropionic acid 2-chloropropanoyl ester
> <PUBCHEM_IUPAC_INCHI>
InChI=1S/C6H8Cl2O3/c1-3(7)5(9)11-6(10)4(2)8/h3-4H,1-2H3
> <PUBCHEM_IUPAC_INCHIKEY>
OAVBKHDCXXETQR-UHFFFAOYSA-N
> <PUBCHEM_XLOGP3_AA>
1.9
> <PUBCHEM_EXACT_MASS>
197.9850495
> <PUBCHEM_MOLECULAR_FORMULA>
C6H8Cl2O3
> <PUBCHEM_MOLECULAR_WEIGHT>
199.03
> <PUBCHEM_OPENEYE_CAN_SMILES>
CC(C(=O)OC(=O)C(C)Cl)Cl
> <PUBCHEM_OPENEYE_ISO_SMILES>
CC(C(=O)OC(=O)C(C)Cl)Cl
> <PUBCHEM_CACTVS_TPSA>
43.4
> <PUBCHEM_MONOISOTOPIC_WEIGHT>
197.9850495
> <PUBCHEM_TOTAL_CHARGE>
0
> <PUBCHEM_HEAVY_ATOM_COUNT>
11
> <PUBCHEM_ATOM_DEF_STEREO_COUNT>
0
> <PUBCHEM_ATOM_UDEF_STEREO_COUNT>
2
> <PUBCHEM_BOND_DEF_STEREO_COUNT>
0
> <PUBCHEM_BOND_UDEF_STEREO_COUNT>
0
> <PUBCHEM_ISOTOPIC_ATOM_COUNT>
0
> <PUBCHEM_COMPONENT_COUNT>
1
> <PUBCHEM_CACTVS_TAUTO_COUNT>
-1
> <PUBCHEM_COORDINATE_TYPE>
1
5
255
> <PUBCHEM_BONDANNOTATIONS>
6  1  3
7  2  3
$$$$
