520920
  -OEChem-10302200292D
 55 56  0     1  0  0  0  0  0999 V2000
    2.3660   -2.4369    0.0000 F   0  0  0  0  0  0  0  0  0  0  0  0
    2.0000   -3.8029    0.0000 F   0  0  0  0  0  0  0  0  0  0  0  0
    3.3660   -4.1689    0.0000 F   0  0  0  0  0  0  0  0  0  0  0  0
   11.5962   -0.1108    0.0000 F   0  0  0  0  0  0  0  0  0  0  0  0
   12.1939    1.1709    0.0000 F   0  0  0  0  0  0  0  0  0  0  0  0
   10.3145    0.4869    0.0000 F   0  0  0  0  0  0  0  0  0  0  0  0
    6.3301   -0.3029    0.0000 O   0  0  0  0  0  0  0  0  0  0  0  0
    8.2997    1.3498    0.0000 O   0  0  0  0  0  0  0  0  0  0  0  0
    3.7320    1.1971    0.0000 O   0  0  0  0  0  0  0  0  0  0  0  0
    5.6461    3.5765    0.0000 O   0  0  0  0  0  0  0  0  0  0  0  0
    4.5981   -0.3029    0.0000 N   0  0  0  0  0  0  0  0  0  0  0  0
    8.6005    3.0556    0.0000 N   0  0  0  0  0  0  0  0  0  0  0  0
    6.3301    1.6971    0.0000 C   0  0  0  0  0  0  0  0  0  0  0  0
    5.4641    1.1971    0.0000 C   0  0  3  0  0  0  0  0  0  0  0  0
    6.9729    2.4632    0.0000 C   0  0  3  0  0  0  0  0  0  0  0  0
    5.4641    0.1971    0.0000 C   0  0  0  0  0  0  0  0  0  0  0  0
    7.9577    2.2895    0.0000 C   0  0  0  0  0  0  0  0  0  0  0  0
    4.5981    1.6971    0.0000 C   0  0  0  0  0  0  0  0  0  0  0  0
    6.6309    3.4029    0.0000 C   0  0  0  0  0  0  0  0  0  0  0  0
    3.9553    2.4632    0.0000 C   0  0  0  0  0  0  0  0  0  0  0  0
    7.2737    4.1689    0.0000 C   0  0  0  0  0  0  0  0  0  0  0  0
    4.5981   -1.3029    0.0000 C   0  0  0  0  0  0  0  0  0  0  0  0
    9.5853    2.8819    0.0000 C   0  0  0  0  0  0  0  0  0  0  0  0
    3.7320   -1.8029    0.0000 C   0  0  0  0  0  0  0  0  0  0  0  0
    9.9273    1.9422    0.0000 C   0  0  0  0  0  0  0  0  0  0  0  0
    5.4641   -1.8029    0.0000 C   0  0  0  0  0  0  0  0  0  0  0  0
   10.2281    3.6480    0.0000 C   0  0  0  0  0  0  0  0  0  0  0  0
    3.7320   -2.8029    0.0000 C   0  0  0  0  0  0  0  0  0  0  0  0
   10.9121    1.7686    0.0000 C   0  0  0  0  0  0  0  0  0  0  0  0
    5.4641   -2.8029    0.0000 C   0  0  0  0  0  0  0  0  0  0  0  0
   11.2129    3.4743    0.0000 C   0  0  0  0  0  0  0  0  0  0  0  0
    4.5981   -3.3029    0.0000 C   0  0  0  0  0  0  0  0  0  0  0  0
   11.5549    2.5346    0.0000 C   0  0  0  0  0  0  0  0  0  0  0  0
    2.8660   -3.3029    0.0000 C   0  0  0  0  0  0  0  0  0  0  0  0
   11.2542    0.8289    0.0000 C   0  0  0  0  0  0  0  0  0  0  0  0
    6.4021    1.0813    0.0000 H   0  0  0  0  0  0  0  0  0  0  0  0
    5.9316    2.1721    0.0000 H   0  0  0  0  0  0  0  0  0  0  0  0
    5.4641    1.8171    0.0000 H   0  0  0  0  0  0  0  0  0  0  0  0
    6.3623    2.5708    0.0000 H   0  0  0  0  0  0  0  0  0  0  0  0
    4.0611    0.0071    0.0000 H   0  0  0  0  0  0  0  0  0  0  0  0
    8.3885    3.6382    0.0000 H   0  0  0  0  0  0  0  0  0  0  0  0
    4.4302    2.8617    0.0000 H   0  0  0  0  0  0  0  0  0  0  0  0
    3.5568    2.9381    0.0000 H   0  0  0  0  0  0  0  0  0  0  0  0
    3.4803    2.0646    0.0000 H   0  0  0  0  0  0  0  0  0  0  0  0
    7.7486    3.7704    0.0000 H   0  0  0  0  0  0  0  0  0  0  0  0
    7.6722    4.6438    0.0000 H   0  0  0  0  0  0  0  0  0  0  0  0
    6.7987    4.5674    0.0000 H   0  0  0  0  0  0  0  0  0  0  0  0
    3.1951   -1.4929    0.0000 H   0  0  0  0  0  0  0  0  0  0  0  0
    9.5288    1.4673    0.0000 H   0  0  0  0  0  0  0  0  0  0  0  0
    6.0010   -1.4929    0.0000 H   0  0  0  0  0  0  0  0  0  0  0  0
   10.0161    4.2306    0.0000 H   0  0  0  0  0  0  0  0  0  0  0  0
    6.0010   -3.1129    0.0000 H   0  0  0  0  0  0  0  0  0  0  0  0
   11.6114    3.9493    0.0000 H   0  0  0  0  0  0  0  0  0  0  0  0
    4.5981   -3.9229    0.0000 H   0  0  0  0  0  0  0  0  0  0  0  0
   12.1655    2.4270    0.0000 H   0  0  0  0  0  0  0  0  0  0  0  0
  1 34  1  0  0  0  0
  2 34  1  0  0  0  0
  3 34  1  0  0  0  0
  4 35  1  0  0  0  0
  5 35  1  0  0  0  0
  6 35  1  0  0  0  0
  7 16  2  0  0  0  0
  8 17  2  0  0  0  0
  9 18  2  0  0  0  0
 10 19  2  0  0  0  0
 11 16  1  0  0  0  0
 11 22  1  0  0  0  0
 11 40  1  0  0  0  0
 12 17  1  0  0  0  0
 12 23  1  0  0  0  0
 12 41  1  0  0  0  0
 13 14  1  0  0  0  0
 13 15  1  0  0  0  0
 13 36  1  0  0  0  0
 13 37  1  0  0  0  0
 14 16  1  0  0  0  0
 14 18  1  0  0  0  0
 14 38  1  0  0  0  0
 15 17  1  0  0  0  0
 15 19  1  0  0  0  0
 15 39  1  0  0  0  0
 18 20  1  0  0  0  0
 19 21  1  0  0  0  0
 20 42  1  0  0  0  0
 20 43  1  0  0  0  0
 20 44  1  0  0  0  0
 21 45  1  0  0  0  0
 21 46  1  0  0  0  0
 21 47  1  0  0  0  0
 22 24  1  0  0  0  0
 22 26  2  0  0  0  0
 23 25  1  0  0  0  0
 23 27  2  0  0  0  0
 24 28  2  0  0  0  0
 24 48  1  0  0  0  0
 25 29  2  0  0  0  0
 25 49  1  0  0  0  0
 26 30  1  0  0  0  0
 26 50  1  0  0  0  0
 27 31  1  0  0  0  0
 27 51  1  0  0  0  0
 28 32  1  0  0  0  0
 28 34  1  0  0  0  0
 29 33  1  0  0  0  0
 29 35  1  0  0  0  0
 30 32  2  0  0  0  0
 30 52  1  0  0  0  0
 31 33  2  0  0  0  0
 31 53  1  0  0  0  0
 32 54  1  0  0  0  0
 33 55  1  0  0  0  0
M  END
> <PUBCHEM_COMPOUND_CID>
520920
> <PUBCHEM_COMPOUND_CANONICALIZED>
1
> <PUBCHEM_CACTVS_COMPLEXITY>
734
> <PUBCHEM_CACTVS_HBOND_ACCEPTOR>
10
> <PUBCHEM_CACTVS_HBOND_DONOR>
2
> <PUBCHEM_CACTVS_ROTATABLE_BOND>
8
> <PUBCHEM_CACTVS_SUBSKEYS>
AAADceB7OcAAAAAAAAAAAAAAAAAAAAAAAAAwYAAAAAAAAAABQAAAHwAQAAAADQyBmBAywILAAACIAqVSUACCAAAhAgAIiAEAZIgIIDrIkZGEIAhglADIyAcYiwAuAAAAQAAAAAAAAACAAAAAAAAAAAAAAA==
> <PUBCHEM_IUPAC_OPENEYE_NAME>
2,4-diacetyl-N,N'-bis[3-(trifluoromethyl)phenyl]pentanediamide
> <PUBCHEM_IUPAC_CAS_NAME>
2,4-diacetyl-N,N'-bis[3-(trifluoromethyl)phenyl]pentanediamide
> <PUBCHEM_IUPAC_NAME_MARKUP>
2,4-diacetyl-<I>N</I>,<I>N</I>&apos;-bis[3-(trifluoromethyl)phenyl]pentanediamide
> <PUBCHEM_IUPAC_NAME>
2,4-diacetyl-N,N'-bis[3-(trifluoromethyl)phenyl]pentanediamide
> <PUBCHEM_IUPAC_SYSTEMATIC_NAME>
2,4-diethanoyl-N,N'-bis[3-(trifluoromethyl)phenyl]pentanediamide
> <PUBCHEM_IUPAC_TRADITIONAL_NAME>
2,4-diacetyl-N,N'-bis[3-(trifluoromethyl)phenyl]glutaramide
> <PUBCHEM_IUPAC_INCHI>
InChI=1S/C23H20F6N2O4/c1-12(32)18(20(34)30-16-7-3-5-14(9-16)22(24,25)26)11-19(13(2)33)21(35)31-17-8-4-6-15(10-17)23(27,28)29/h3-10,18-19H,11H2,1-2H3,(H,30,34)(H,31,35)
> <PUBCHEM_IUPAC_INCHIKEY>
HSTHVXVQGIFWNK-UHFFFAOYSA-N
> <PUBCHEM_XLOGP3_AA>
5
> <PUBCHEM_EXACT_MASS>
502.13272610
> <PUBCHEM_MOLECULAR_FORMULA>
C23H20F6N2O4
> <PUBCHEM_MOLECULAR_WEIGHT>
502.4
> <PUBCHEM_OPENEYE_CAN_SMILES>
CC(=O)C(CC(C(=O)C)C(=O)NC1=CC=CC(=C1)C(F)(F)F)C(=O)NC2=CC=CC(=C2)C(F)(F)F
> <PUBCHEM_OPENEYE_ISO_SMILES>
CC(=O)C(CC(C(=O)C)C(=O)NC1=CC=CC(=C1)C(F)(F)F)C(=O)NC2=CC=CC(=C2)C(F)(F)F
> <PUBCHEM_CACTVS_TPSA>
92.3
> <PUBCHEM_MONOISOTOPIC_WEIGHT>
502.13272610
> <PUBCHEM_TOTAL_CHARGE>
0
> <PUBCHEM_HEAVY_ATOM_COUNT>
35
> <PUBCHEM_ATOM_DEF_STEREO_COUNT>
0
> <PUBCHEM_ATOM_UDEF_STEREO_COUNT>
2
> <PUBCHEM_BOND_DEF_STEREO_COUNT>
0
> <PUBCHEM_BOND_UDEF_STEREO_COUNT>
0
> <PUBCHEM_ISOTOPIC_ATOM_COUNT>
0
> <PUBCHEM_COMPONENT_COUNT>
1
> <PUBCHEM_CACTVS_TAUTO_COUNT>
-1
> <PUBCHEM_COORDINATE_TYPE>
1
5
255
> <PUBCHEM_BONDANNOTATIONS>
14  13  3
15  13  3
22  24  8
22  26  8
23  25  8
23  27  8
24  28  8
25  29  8
26  30  8
27  31  8
28  32  8
29  33  8
30  32  8
31  33  8
$$$$
