520959
  -OEChem-10302200292D
 34 34  0     1  0  0  0  0  0999 V2000
    4.5981    1.3170    0.0000 Si  0  0  0  0  0  0  0  0  0  0  0  0
    3.7320    0.8170    0.0000 O   0  0  0  0  0  0  0  0  0  0  0  0
    2.8660   -0.6830    0.0000 C   0  0  3  0  0  0  0  0  0  0  0  0
    3.7320   -0.1830    0.0000 C   0  0  3  0  0  0  0  0  0  0  0  0
    4.5981   -0.6830    0.0000 C   0  0  0  0  0  0  0  0  0  0  0  0
    2.8660   -1.6830    0.0000 C   0  0  0  0  0  0  0  0  0  0  0  0
    4.5981   -1.6830    0.0000 C   0  0  0  0  0  0  0  0  0  0  0  0
    3.7320   -2.1830    0.0000 C   0  0  0  0  0  0  0  0  0  0  0  0
    2.0000   -0.1830    0.0000 C   0  0  0  0  0  0  0  0  0  0  0  0
    5.4641    1.8170    0.0000 C   0  0  0  0  0  0  0  0  0  0  0  0
    4.0981    2.1830    0.0000 C   0  0  0  0  0  0  0  0  0  0  0  0
    5.0981    0.4510    0.0000 C   0  0  0  0  0  0  0  0  0  0  0  0
    2.8660   -0.0630    0.0000 H   0  0  0  0  0  0  0  0  0  0  0  0
    4.2690    0.1270    0.0000 H   0  0  0  0  0  0  0  0  0  0  0  0
    5.2087   -0.7907    0.0000 H   0  0  0  0  0  0  0  0  0  0  0  0
    4.8101   -0.1004    0.0000 H   0  0  0  0  0  0  0  0  0  0  0  0
    2.2554   -1.5754    0.0000 H   0  0  0  0  0  0  0  0  0  0  0  0
    2.6540   -2.2656    0.0000 H   0  0  0  0  0  0  0  0  0  0  0  0
    4.8101   -2.2656    0.0000 H   0  0  0  0  0  0  0  0  0  0  0  0
    5.2087   -1.5754    0.0000 H   0  0  0  0  0  0  0  0  0  0  0  0
    3.3335   -2.6580    0.0000 H   0  0  0  0  0  0  0  0  0  0  0  0
    4.1306   -2.6580    0.0000 H   0  0  0  0  0  0  0  0  0  0  0  0
    2.3100    0.3539    0.0000 H   0  0  0  0  0  0  0  0  0  0  0  0
    1.4631    0.1270    0.0000 H   0  0  0  0  0  0  0  0  0  0  0  0
    1.6900   -0.7199    0.0000 H   0  0  0  0  0  0  0  0  0  0  0  0
    5.7741    1.2800    0.0000 H   0  0  0  0  0  0  0  0  0  0  0  0
    6.0010    2.1270    0.0000 H   0  0  0  0  0  0  0  0  0  0  0  0
    5.1541    2.3539    0.0000 H   0  0  0  0  0  0  0  0  0  0  0  0
    4.6350    2.4930    0.0000 H   0  0  0  0  0  0  0  0  0  0  0  0
    3.7881    2.7200    0.0000 H   0  0  0  0  0  0  0  0  0  0  0  0
    3.5611    1.8730    0.0000 H   0  0  0  0  0  0  0  0  0  0  0  0
    4.5611    0.1410    0.0000 H   0  0  0  0  0  0  0  0  0  0  0  0
    5.4081   -0.0860    0.0000 H   0  0  0  0  0  0  0  0  0  0  0  0
    5.6350    0.7610    0.0000 H   0  0  0  0  0  0  0  0  0  0  0  0
  1  2  1  0  0  0  0
  1 10  1  0  0  0  0
  1 11  1  0  0  0  0
  1 12  1  0  0  0  0
  2  4  1  0  0  0  0
  3  4  1  0  0  0  0
  3  6  1  0  0  0  0
  3  9  1  0  0  0  0
  3 13  1  0  0  0  0
  4  5  1  0  0  0  0
  4 14  1  0  0  0  0
  5  7  1  0  0  0  0
  5 15  1  0  0  0  0
  5 16  1  0  0  0  0
  6  8  1  0  0  0  0
  6 17  1  0  0  0  0
  6 18  1  0  0  0  0
  7  8  1  0  0  0  0
  7 19  1  0  0  0  0
  7 20  1  0  0  0  0
  8 21  1  0  0  0  0
  8 22  1  0  0  0  0
  9 23  1  0  0  0  0
  9 24  1  0  0  0  0
  9 25  1  0  0  0  0
 10 26  1  0  0  0  0
 10 27  1  0  0  0  0
 10 28  1  0  0  0  0
 11 29  1  0  0  0  0
 11 30  1  0  0  0  0
 11 31  1  0  0  0  0
 12 32  1  0  0  0  0
 12 33  1  0  0  0  0
 12 34  1  0  0  0  0
M  END
> <PUBCHEM_COMPOUND_CID>
520959
> <PUBCHEM_COMPOUND_CANONICALIZED>
1
> <PUBCHEM_CACTVS_COMPLEXITY>
139
> <PUBCHEM_CACTVS_HBOND_ACCEPTOR>
1
> <PUBCHEM_CACTVS_HBOND_DONOR>
0
> <PUBCHEM_CACTVS_ROTATABLE_BOND>
2
> <PUBCHEM_CACTVS_SUBSKEYS>
AAADceBwIAgAAAAAAAAAAAAAAAAAAAAAAAAwAAAAAAAAAAAAAAAAGhAAAEAADRSggAJCAAAAAAEAAAAAAAAAAAAAAAAAAAAAAAAAAAIAAAAAAAAEAAAAAAGAwCAOAAAAAAAAAAAAAAAAABAAAAAAAAAAAA==
> <PUBCHEM_IUPAC_OPENEYE_NAME>
trimethyl-(2-methylcyclohexoxy)silane
> <PUBCHEM_IUPAC_CAS_NAME>
trimethyl-(2-methylcyclohexyl)oxysilane
> <PUBCHEM_IUPAC_NAME_MARKUP>
trimethyl-(2-methylcyclohexyl)oxysilane
> <PUBCHEM_IUPAC_NAME>
trimethyl-(2-methylcyclohexyl)oxysilane
> <PUBCHEM_IUPAC_SYSTEMATIC_NAME>
trimethyl-(2-methylcyclohexyl)oxy-silane
> <PUBCHEM_IUPAC_TRADITIONAL_NAME>
trimethyl-(2-methylcyclohexoxy)silane
> <PUBCHEM_IUPAC_INCHI>
InChI=1S/C10H22OSi/c1-9-7-5-6-8-10(9)11-12(2,3)4/h9-10H,5-8H2,1-4H3
> <PUBCHEM_IUPAC_INCHIKEY>
JQAKEQPKWYLGTN-UHFFFAOYSA-N
> <PUBCHEM_EXACT_MASS>
186.143991855
> <PUBCHEM_MOLECULAR_FORMULA>
C10H22OSi
> <PUBCHEM_MOLECULAR_WEIGHT>
186.37
> <PUBCHEM_OPENEYE_CAN_SMILES>
CC1CCCCC1O[Si](C)(C)C
> <PUBCHEM_OPENEYE_ISO_SMILES>
CC1CCCCC1O[Si](C)(C)C
> <PUBCHEM_CACTVS_TPSA>
9.2
> <PUBCHEM_MONOISOTOPIC_WEIGHT>
186.143991855
> <PUBCHEM_TOTAL_CHARGE>
0
> <PUBCHEM_HEAVY_ATOM_COUNT>
12
> <PUBCHEM_ATOM_DEF_STEREO_COUNT>
0
> <PUBCHEM_ATOM_UDEF_STEREO_COUNT>
2
> <PUBCHEM_BOND_DEF_STEREO_COUNT>
0
> <PUBCHEM_BOND_UDEF_STEREO_COUNT>
0
> <PUBCHEM_ISOTOPIC_ATOM_COUNT>
0
> <PUBCHEM_COMPONENT_COUNT>
1
> <PUBCHEM_CACTVS_TAUTO_COUNT>
-1
> <PUBCHEM_COORDINATE_TYPE>
1
5
255
> <PUBCHEM_BONDANNOTATIONS>
4  2  3
3  9  3
$$$$
