520982
  -OEChem-10302200292D
 46 46  0     1  0  0  0  0  0999 V2000
    2.8660   -4.0670    0.0000 S   0  0  0  0  0  0  0  0  0  0  0  0
    3.7320   -3.5670    0.0000 O   0  0  0  0  0  0  0  0  0  0  0  0
    2.3660   -4.9330    0.0000 O   0  0  0  0  0  0  0  0  0  0  0  0
    3.3660   -4.9330    0.0000 O   0  0  0  0  0  0  0  0  0  0  0  0
    3.7320   -2.5670    0.0000 C   0  0  3  0  0  0  0  0  0  0  0  0
    4.5981   -2.0670    0.0000 C   0  0  0  0  0  0  0  0  0  0  0  0
    2.8660   -2.0670    0.0000 C   0  0  0  0  0  0  0  0  0  0  0  0
    4.5981   -1.0670    0.0000 C   0  0  0  0  0  0  0  0  0  0  0  0
    2.0000   -2.5670    0.0000 C   0  0  0  0  0  0  0  0  0  0  0  0
    5.4641   -0.5670    0.0000 C   0  0  0  0  0  0  0  0  0  0  0  0
    2.0000   -3.5670    0.0000 C   0  0  0  0  0  0  0  0  0  0  0  0
    5.4641    0.4330    0.0000 C   0  0  0  0  0  0  0  0  0  0  0  0
    6.3301    0.9330    0.0000 C   0  0  0  0  0  0  0  0  0  0  0  0
    6.3301    1.9330    0.0000 C   0  0  0  0  0  0  0  0  0  0  0  0
    7.1962    2.4330    0.0000 C   0  0  0  0  0  0  0  0  0  0  0  0
    7.1962    3.4330    0.0000 C   0  0  0  0  0  0  0  0  0  0  0  0
    8.0622    3.9330    0.0000 C   0  0  0  0  0  0  0  0  0  0  0  0
    8.0622    4.9330    0.0000 C   0  0  0  0  0  0  0  0  0  0  0  0
    4.2690   -2.8770    0.0000 H   0  0  0  0  0  0  0  0  0  0  0  0
    4.8101   -2.6496    0.0000 H   0  0  0  0  0  0  0  0  0  0  0  0
    5.2087   -1.9593    0.0000 H   0  0  0  0  0  0  0  0  0  0  0  0
    3.2646   -1.5920    0.0000 H   0  0  0  0  0  0  0  0  0  0  0  0
    2.4675   -1.5920    0.0000 H   0  0  0  0  0  0  0  0  0  0  0  0
    4.3860   -0.4844    0.0000 H   0  0  0  0  0  0  0  0  0  0  0  0
    3.9875   -1.1746    0.0000 H   0  0  0  0  0  0  0  0  0  0  0  0
    1.7880   -1.9844    0.0000 H   0  0  0  0  0  0  0  0  0  0  0  0
    1.3894   -2.6747    0.0000 H   0  0  0  0  0  0  0  0  0  0  0  0
    5.6762   -1.1496    0.0000 H   0  0  0  0  0  0  0  0  0  0  0  0
    6.0747   -0.4593    0.0000 H   0  0  0  0  0  0  0  0  0  0  0  0
    1.3894   -3.4593    0.0000 H   0  0  0  0  0  0  0  0  0  0  0  0
    1.7880   -4.1496    0.0000 H   0  0  0  0  0  0  0  0  0  0  0  0
    5.2520    1.0156    0.0000 H   0  0  0  0  0  0  0  0  0  0  0  0
    4.8535    0.3254    0.0000 H   0  0  0  0  0  0  0  0  0  0  0  0
    6.5422    0.3504    0.0000 H   0  0  0  0  0  0  0  0  0  0  0  0
    6.9407    1.0407    0.0000 H   0  0  0  0  0  0  0  0  0  0  0  0
    6.1181    2.5156    0.0000 H   0  0  0  0  0  0  0  0  0  0  0  0
    5.7196    1.8254    0.0000 H   0  0  0  0  0  0  0  0  0  0  0  0
    7.4082    1.8504    0.0000 H   0  0  0  0  0  0  0  0  0  0  0  0
    7.8067    2.5407    0.0000 H   0  0  0  0  0  0  0  0  0  0  0  0
    6.9841    4.0156    0.0000 H   0  0  0  0  0  0  0  0  0  0  0  0
    6.5856    3.3254    0.0000 H   0  0  0  0  0  0  0  0  0  0  0  0
    8.2742    3.3504    0.0000 H   0  0  0  0  0  0  0  0  0  0  0  0
    8.6728    4.0407    0.0000 H   0  0  0  0  0  0  0  0  0  0  0  0
    8.6822    4.9330    0.0000 H   0  0  0  0  0  0  0  0  0  0  0  0
    8.0622    5.5530    0.0000 H   0  0  0  0  0  0  0  0  0  0  0  0
    7.4422    4.9330    0.0000 H   0  0  0  0  0  0  0  0  0  0  0  0
  1  2  1  0  0  0  0
  1  3  2  0  0  0  0
  1  4  2  0  0  0  0
  1 11  1  0  0  0  0
  2  5  1  0  0  0  0
  5  6  1  0  0  0  0
  5  7  1  0  0  0  0
  5 19  1  0  0  0  0
  6  8  1  0  0  0  0
  6 20  1  0  0  0  0
  6 21  1  0  0  0  0
  7  9  1  0  0  0  0
  7 22  1  0  0  0  0
  7 23  1  0  0  0  0
  8 10  1  0  0  0  0
  8 24  1  0  0  0  0
  8 25  1  0  0  0  0
  9 11  1  0  0  0  0
  9 26  1  0  0  0  0
  9 27  1  0  0  0  0
 10 12  1  0  0  0  0
 10 28  1  0  0  0  0
 10 29  1  0  0  0  0
 11 30  1  0  0  0  0
 11 31  1  0  0  0  0
 12 13  1  0  0  0  0
 12 32  1  0  0  0  0
 12 33  1  0  0  0  0
 13 14  1  0  0  0  0
 13 34  1  0  0  0  0
 13 35  1  0  0  0  0
 14 15  1  0  0  0  0
 14 36  1  0  0  0  0
 14 37  1  0  0  0  0
 15 16  1  0  0  0  0
 15 38  1  0  0  0  0
 15 39  1  0  0  0  0
 16 17  1  0  0  0  0
 16 40  1  0  0  0  0
 16 41  1  0  0  0  0
 17 18  1  0  0  0  0
 17 42  1  0  0  0  0
 17 43  1  0  0  0  0
 18 44  1  0  0  0  0
 18 45  1  0  0  0  0
 18 46  1  0  0  0  0
M  END
> <PUBCHEM_COMPOUND_CID>
520982
> <PUBCHEM_COMPOUND_CANONICALIZED>
1
> <PUBCHEM_CACTVS_COMPLEXITY>
293
> <PUBCHEM_CACTVS_HBOND_ACCEPTOR>
3
> <PUBCHEM_CACTVS_HBOND_DONOR>
0
> <PUBCHEM_CACTVS_ROTATABLE_BOND>
9
> <PUBCHEM_CACTVS_SUBSKEYS>
AAADceBwMABAAAAAAAAAAAAAAAAAAAAAAAAkAAAAAAAAAAAAAAAAGgQAAAAACBSkwAKCAAAAAAIAAAAAAHBAAAAAAAAAAAAAAAAAAAIAAAAAAAAEAAAAAAGAwKAAAAAAAAAAAAAAAAAAAAAAAAAAAAAAAA==
> <PUBCHEM_IUPAC_OPENEYE_NAME>
6-decyloxathiane 2,2-dioxide
> <PUBCHEM_IUPAC_CAS_NAME>
6-decyloxathiane 2,2-dioxide
> <PUBCHEM_IUPAC_NAME_MARKUP>
6-decyloxathiane 2,2-dioxide
> <PUBCHEM_IUPAC_NAME>
6-decyloxathiane 2,2-dioxide
> <PUBCHEM_IUPAC_SYSTEMATIC_NAME>
6-decyl-1,2-oxathiane 2,2-dioxide
> <PUBCHEM_IUPAC_TRADITIONAL_NAME>
6-decyloxathiane 2,2-dioxide
> <PUBCHEM_IUPAC_INCHI>
InChI=1S/C14H28O3S/c1-2-3-4-5-6-7-8-9-11-14-12-10-13-18(15,16)17-14/h14H,2-13H2,1H3
> <PUBCHEM_IUPAC_INCHIKEY>
FPGWFFVPBMXANA-UHFFFAOYSA-N
> <PUBCHEM_XLOGP3_AA>
5.2
> <PUBCHEM_EXACT_MASS>
276.17591592
> <PUBCHEM_MOLECULAR_FORMULA>
C14H28O3S
> <PUBCHEM_MOLECULAR_WEIGHT>
276.44
> <PUBCHEM_OPENEYE_CAN_SMILES>
CCCCCCCCCCC1CCCS(=O)(=O)O1
> <PUBCHEM_OPENEYE_ISO_SMILES>
CCCCCCCCCCC1CCCS(=O)(=O)O1
> <PUBCHEM_CACTVS_TPSA>
51.8
> <PUBCHEM_MONOISOTOPIC_WEIGHT>
276.17591592
> <PUBCHEM_TOTAL_CHARGE>
0
> <PUBCHEM_HEAVY_ATOM_COUNT>
18
> <PUBCHEM_ATOM_DEF_STEREO_COUNT>
0
> <PUBCHEM_ATOM_UDEF_STEREO_COUNT>
1
> <PUBCHEM_BOND_DEF_STEREO_COUNT>
0
> <PUBCHEM_BOND_UDEF_STEREO_COUNT>
0
> <PUBCHEM_ISOTOPIC_ATOM_COUNT>
0
> <PUBCHEM_COMPONENT_COUNT>
1
> <PUBCHEM_CACTVS_TAUTO_COUNT>
-1
> <PUBCHEM_COORDINATE_TYPE>
1
5
255
> <PUBCHEM_BONDANNOTATIONS>
5  6  3
$$$$
