520900
  -OEChem-10302200292D
 23 23  0     1  0  0  0  0  0999 V2000
    4.2601    1.3368    0.0000 S   0  0  0  0  0  0  0  0  0  0  0  0
    3.7601   -0.2020    0.0000 O   0  0  0  0  0  0  0  0  0  0  0  0
    4.5691    0.3858    0.0000 C   0  0  3  0  0  0  0  0  0  0  0  0
    2.9511    0.3858    0.0000 C   0  0  3  0  0  0  0  0  0  0  0  0
    3.2601    1.3368    0.0000 C   0  0  0  0  0  0  0  0  0  0  0  0
    5.1569   -0.4233    0.0000 C   0  0  0  0  0  0  0  0  0  0  0  0
    5.5202    0.6948    0.0000 C   0  0  0  0  0  0  0  0  0  0  0  0
    2.0000    0.0767    0.0000 C   0  0  0  0  0  0  0  0  0  0  0  0
    4.7501   -1.3368    0.0000 C   0  0  0  0  0  0  0  0  0  0  0  0
    2.8541   -0.2266    0.0000 H   0  0  0  0  0  0  0  0  0  0  0  0
    3.3249    1.9534    0.0000 H   0  0  0  0  0  0  0  0  0  0  0  0
    2.6536    1.4657    0.0000 H   0  0  0  0  0  0  0  0  0  0  0  0
    5.6709   -0.7700    0.0000 H   0  0  0  0  0  0  0  0  0  0  0  0
    5.5876    0.0227    0.0000 H   0  0  0  0  0  0  0  0  0  0  0  0
    5.7117    0.1051    0.0000 H   0  0  0  0  0  0  0  0  0  0  0  0
    6.1098    0.8864    0.0000 H   0  0  0  0  0  0  0  0  0  0  0  0
    5.3286    1.2844    0.0000 H   0  0  0  0  0  0  0  0  0  0  0  0
    1.8084    0.6664    0.0000 H   0  0  0  0  0  0  0  0  0  0  0  0
    1.4103   -0.1149    0.0000 H   0  0  0  0  0  0  0  0  0  0  0  0
    2.1916   -0.5129    0.0000 H   0  0  0  0  0  0  0  0  0  0  0  0
    4.1837   -1.0846    0.0000 H   0  0  0  0  0  0  0  0  0  0  0  0
    4.4980   -1.9032    0.0000 H   0  0  0  0  0  0  0  0  0  0  0  0
    5.3165   -1.5890    0.0000 H   0  0  0  0  0  0  0  0  0  0  0  0
  1  3  1  0  0  0  0
  1  5  1  0  0  0  0
  2  3  1  0  0  0  0
  2  4  1  0  0  0  0
  3  6  1  0  0  0  0
  3  7  1  0  0  0  0
  4  5  1  0  0  0  0
  4  8  1  0  0  0  0
  4 10  1  0  0  0  0
  5 11  1  0  0  0  0
  5 12  1  0  0  0  0
  6  9  1  0  0  0  0
  6 13  1  0  0  0  0
  6 14  1  0  0  0  0
  7 15  1  0  0  0  0
  7 16  1  0  0  0  0
  7 17  1  0  0  0  0
  8 18  1  0  0  0  0
  8 19  1  0  0  0  0
  8 20  1  0  0  0  0
  9 21  1  0  0  0  0
  9 22  1  0  0  0  0
  9 23  1  0  0  0  0
M  END
> <PUBCHEM_COMPOUND_CID>
520900
> <PUBCHEM_COMPOUND_CANONICALIZED>
1
> <PUBCHEM_CACTVS_COMPLEXITY>
105
> <PUBCHEM_CACTVS_HBOND_ACCEPTOR>
2
> <PUBCHEM_CACTVS_HBOND_DONOR>
0
> <PUBCHEM_CACTVS_ROTATABLE_BOND>
1
> <PUBCHEM_CACTVS_SUBSKEYS>
AAADccBgIABAAAAAAAAAAAAAAAAAASAAAAAAAAAAAAAAAAAAAAAAGgQAAAAACBSkwAKCAAAABAgAAAAAAAAAAAAAABAAAAAAAAAAAAAgAAACAAAAAAAgAAAAAAAAAAAAAAAAAAAAAAAAAAAAAAAAAAAAAA==
> <PUBCHEM_IUPAC_OPENEYE_NAME>
2-ethyl-2,5-dimethyl-1,3-oxathiolane
> <PUBCHEM_IUPAC_CAS_NAME>
2-ethyl-2,5-dimethyl-1,3-oxathiolane
> <PUBCHEM_IUPAC_NAME_MARKUP>
2-ethyl-2,5-dimethyl-1,3-oxathiolane
> <PUBCHEM_IUPAC_NAME>
2-ethyl-2,5-dimethyl-1,3-oxathiolane
> <PUBCHEM_IUPAC_SYSTEMATIC_NAME>
2-ethyl-2,5-dimethyl-1,3-oxathiolane
> <PUBCHEM_IUPAC_TRADITIONAL_NAME>
2-ethyl-2,5-dimethyl-1,3-oxathiolane
> <PUBCHEM_IUPAC_INCHI>
InChI=1S/C7H14OS/c1-4-7(3)8-6(2)5-9-7/h6H,4-5H2,1-3H3
> <PUBCHEM_IUPAC_INCHIKEY>
JMORGBZMPQAHJW-UHFFFAOYSA-N
> <PUBCHEM_XLOGP3_AA>
2.2
> <PUBCHEM_EXACT_MASS>
146.07653624
> <PUBCHEM_MOLECULAR_FORMULA>
C7H14OS
> <PUBCHEM_MOLECULAR_WEIGHT>
146.25
> <PUBCHEM_OPENEYE_CAN_SMILES>
CCC1(OC(CS1)C)C
> <PUBCHEM_OPENEYE_ISO_SMILES>
CCC1(OC(CS1)C)C
> <PUBCHEM_CACTVS_TPSA>
34.5
> <PUBCHEM_MONOISOTOPIC_WEIGHT>
146.07653624
> <PUBCHEM_TOTAL_CHARGE>
0
> <PUBCHEM_HEAVY_ATOM_COUNT>
9
> <PUBCHEM_ATOM_DEF_STEREO_COUNT>
0
> <PUBCHEM_ATOM_UDEF_STEREO_COUNT>
2
> <PUBCHEM_BOND_DEF_STEREO_COUNT>
0
> <PUBCHEM_BOND_UDEF_STEREO_COUNT>
0
> <PUBCHEM_ISOTOPIC_ATOM_COUNT>
0
> <PUBCHEM_COMPONENT_COUNT>
1
> <PUBCHEM_CACTVS_TAUTO_COUNT>
-1
> <PUBCHEM_COORDINATE_TYPE>
1
5
255
> <PUBCHEM_BONDANNOTATIONS>
3  7  3
4  8  3
$$$$
