520912
  -OEChem-10302200292D
 86 89  0     1  0  0  0  0  0999 V2000
    6.3282   -3.6598    0.0000 O   0  0  0  0  0  0  0  0  0  0  0  0
    4.5961   -3.6531    0.0000 O   0  0  0  0  0  0  0  0  0  0  0  0
    5.4679   -2.1564    0.0000 O   0  0  0  0  0  0  0  0  0  0  0  0
   11.7213   -0.6074    0.0000 C   0  0  3  0  0  0  0  0  0  0  0  0
   11.7213   -1.6074    0.0000 C   0  0  3  0  0  0  0  0  0  0  0  0
   10.8552   -2.1074    0.0000 C   0  0  3  0  0  0  0  0  0  0  0  0
    9.9892   -1.6074    0.0000 C   0  0  3  0  0  0  0  0  0  0  0  0
   12.6675   -0.3027    0.0000 C   0  0  3  0  0  0  0  0  0  0  0  0
   10.8552   -0.1074    0.0000 C   0  0  0  0  0  0  0  0  0  0  0  0
    9.0792   -2.1143    0.0000 C   0  0  3  0  0  0  0  0  0  0  0  0
   12.6675   -1.9122    0.0000 C   0  0  0  0  0  0  0  0  0  0  0  0
    9.9892   -0.6074    0.0000 C   0  0  0  0  0  0  0  0  0  0  0  0
   13.2511   -1.1074    0.0000 C   0  0  0  0  0  0  0  0  0  0  0  0
   10.8713   -3.1489    0.0000 C   0  0  0  0  0  0  0  0  0  0  0  0
   12.9781    0.6478    0.0000 C   0  0  3  0  0  0  0  0  0  0  0  0
   11.7213    0.3926    0.0000 C   0  0  0  0  0  0  0  0  0  0  0  0
    9.0712   -3.1559    0.0000 C   0  0  0  0  0  0  0  0  0  0  0  0
    8.1524   -1.5502    0.0000 C   0  0  0  0  0  0  0  0  0  0  0  0
    9.9732   -3.6767    0.0000 C   0  0  0  0  0  0  0  0  0  0  0  0
    9.0869   -1.1143    0.0000 C   0  0  0  0  0  0  0  0  0  0  0  0
    8.1358   -3.7056    0.0000 C   0  0  0  0  0  0  0  0  0  0  0  0
    7.2045   -2.0781    0.0000 C   0  0  0  0  0  0  0  0  0  0  0  0
   13.9566    0.8540    0.0000 C   0  0  0  0  0  0  0  0  0  0  0  0
    7.1961   -3.1631    0.0000 C   0  0  3  0  0  0  0  0  0  0  0  0
   12.3103    1.3921    0.0000 C   0  0  0  0  0  0  0  0  0  0  0  0
   14.2673    1.8046    0.0000 C   0  0  0  0  0  0  0  0  0  0  0  0
   15.2458    2.0108    0.0000 C   0  0  0  0  0  0  0  0  0  0  0  0
   15.5565    2.9613    0.0000 C   0  0  0  0  0  0  0  0  0  0  0  0
    5.4641   -3.1564    0.0000 C   0  0  0  0  0  0  0  0  0  0  0  0
   16.5350    3.1675    0.0000 C   0  0  0  0  0  0  0  0  0  0  0  0
   14.8886    3.7056    0.0000 C   0  0  0  0  0  0  0  0  0  0  0  0
    3.7320   -3.1498    0.0000 C   0  0  0  0  0  0  0  0  0  0  0  0
    2.8641   -3.6464    0.0000 C   0  0  0  0  0  0  0  0  0  0  0  0
    2.0000   -3.1431    0.0000 C   0  0  0  0  0  0  0  0  0  0  0  0
   11.7869   -2.2240    0.0000 H   0  0  0  0  0  0  0  0  0  0  0  0
   11.3945   -2.4133    0.0000 H   0  0  0  0  0  0  0  0  0  0  0  0
   10.5261   -1.2974    0.0000 H   0  0  0  0  0  0  0  0  0  0  0  0
   13.2800   -0.2065    0.0000 H   0  0  0  0  0  0  0  0  0  0  0  0
   11.2538    0.3675    0.0000 H   0  0  0  0  0  0  0  0  0  0  0  0
   10.4567    0.3675    0.0000 H   0  0  0  0  0  0  0  0  0  0  0  0
   12.4164   -2.4791    0.0000 H   0  0  0  0  0  0  0  0  0  0  0  0
   13.2049   -2.2214    0.0000 H   0  0  0  0  0  0  0  0  0  0  0  0
    9.7772   -0.0248    0.0000 H   0  0  0  0  0  0  0  0  0  0  0  0
    9.3786   -0.7151    0.0000 H   0  0  0  0  0  0  0  0  0  0  0  0
   13.7120   -1.5222    0.0000 H   0  0  0  0  0  0  0  0  0  0  0  0
   13.7120   -0.6927    0.0000 H   0  0  0  0  0  0  0  0  0  0  0  0
   11.0893   -3.7293    0.0000 H   0  0  0  0  0  0  0  0  0  0  0  0
   11.4804   -3.0334    0.0000 H   0  0  0  0  0  0  0  0  0  0  0  0
   13.1707    1.2371    0.0000 H   0  0  0  0  0  0  0  0  0  0  0  0
   12.3413    0.3926    0.0000 H   0  0  0  0  0  0  0  0  0  0  0  0
   11.7213    1.0126    0.0000 H   0  0  0  0  0  0  0  0  0  0  0  0
   11.1013    0.3926    0.0000 H   0  0  0  0  0  0  0  0  0  0  0  0
    8.5606   -1.0835    0.0000 H   0  0  0  0  0  0  0  0  0  0  0  0
    7.7624   -1.0682    0.0000 H   0  0  0  0  0  0  0  0  0  0  0  0
    9.9756   -4.2967    0.0000 H   0  0  0  0  0  0  0  0  0  0  0  0
    9.7069   -1.1191    0.0000 H   0  0  0  0  0  0  0  0  0  0  0  0
    9.0917   -0.4943    0.0000 H   0  0  0  0  0  0  0  0  0  0  0  0
    8.4669   -1.1095    0.0000 H   0  0  0  0  0  0  0  0  0  0  0  0
    7.7384   -4.1816    0.0000 H   0  0  0  0  0  0  0  0  0  0  0  0
    8.5367   -4.1785    0.0000 H   0  0  0  0  0  0  0  0  0  0  0  0
    6.9999   -1.4929    0.0000 H   0  0  0  0  0  0  0  0  0  0  0  0
    6.5928   -2.1795    0.0000 H   0  0  0  0  0  0  0  0  0  0  0  0
   13.9772    0.2344    0.0000 H   0  0  0  0  0  0  0  0  0  0  0  0
   14.5705    0.7667    0.0000 H   0  0  0  0  0  0  0  0  0  0  0  0
    7.1949   -3.7831    0.0000 H   0  0  0  0  0  0  0  0  0  0  0  0
   12.7718    1.8062    0.0000 H   0  0  0  0  0  0  0  0  0  0  0  0
   11.8962    1.8536    0.0000 H   0  0  0  0  0  0  0  0  0  0  0  0
   11.8488    0.9781    0.0000 H   0  0  0  0  0  0  0  0  0  0  0  0
   14.2467    2.4242    0.0000 H   0  0  0  0  0  0  0  0  0  0  0  0
   13.6535    1.8919    0.0000 H   0  0  0  0  0  0  0  0  0  0  0  0
   15.2664    1.3911    0.0000 H   0  0  0  0  0  0  0  0  0  0  0  0
   15.8596    1.9234    0.0000 H   0  0  0  0  0  0  0  0  0  0  0  0
   15.9705    2.4998    0.0000 H   0  0  0  0  0  0  0  0  0  0  0  0
   16.6628    2.5608    0.0000 H   0  0  0  0  0  0  0  0  0  0  0  0
   17.1417    3.2954    0.0000 H   0  0  0  0  0  0  0  0  0  0  0  0
   16.4071    3.7742    0.0000 H   0  0  0  0  0  0  0  0  0  0  0  0
   15.3501    4.1197    0.0000 H   0  0  0  0  0  0  0  0  0  0  0  0
   14.4746    4.1671    0.0000 H   0  0  0  0  0  0  0  0  0  0  0  0
   14.4272    3.2915    0.0000 H   0  0  0  0  0  0  0  0  0  0  0  0
    4.1324   -2.6763    0.0000 H   0  0  0  0  0  0  0  0  0  0  0  0
    3.3353   -2.6733    0.0000 H   0  0  0  0  0  0  0  0  0  0  0  0
    2.4637   -4.1198    0.0000 H   0  0  0  0  0  0  0  0  0  0  0  0
    3.2608   -4.1229    0.0000 H   0  0  0  0  0  0  0  0  0  0  0  0
    2.3121   -2.6073    0.0000 H   0  0  0  0  0  0  0  0  0  0  0  0
    1.4643   -2.8310    0.0000 H   0  0  0  0  0  0  0  0  0  0  0  0
    1.6879   -3.6788    0.0000 H   0  0  0  0  0  0  0  0  0  0  0  0
  1 24  1  0  0  0  0
  1 29  1  0  0  0  0
  2 29  1  0  0  0  0
  2 32  1  0  0  0  0
  3 29  2  0  0  0  0
  4  5  1  0  0  0  0
  4  8  1  0  0  0  0
  4  9  1  0  0  0  0
  4 16  1  0  0  0  0
  5  6  1  0  0  0  0
  5 11  1  0  0  0  0
  5 35  1  0  0  0  0
  6  7  1  0  0  0  0
  6 14  1  0  0  0  0
  6 36  1  0  0  0  0
  7 10  1  0  0  0  0
  7 12  1  0  0  0  0
  7 37  1  0  0  0  0
  8 13  1  0  0  0  0
  8 15  1  0  0  0  0
  8 38  1  0  0  0  0
  9 12  1  0  0  0  0
  9 39  1  0  0  0  0
  9 40  1  0  0  0  0
 10 17  1  0  0  0  0
 10 18  1  0  0  0  0
 10 20  1  0  0  0  0
 11 13  1  0  0  0  0
 11 41  1  0  0  0  0
 11 42  1  0  0  0  0
 12 43  1  0  0  0  0
 12 44  1  0  0  0  0
 13 45  1  0  0  0  0
 13 46  1  0  0  0  0
 14 19  1  0  0  0  0
 14 47  1  0  0  0  0
 14 48  1  0  0  0  0
 15 23  1  0  0  0  0
 15 25  1  0  0  0  0
 15 49  1  0  0  0  0
 16 50  1  0  0  0  0
 16 51  1  0  0  0  0
 16 52  1  0  0  0  0
 17 19  2  0  0  0  0
 17 21  1  0  0  0  0
 18 22  1  0  0  0  0
 18 53  1  0  0  0  0
 18 54  1  0  0  0  0
 19 55  1  0  0  0  0
 20 56  1  0  0  0  0
 20 57  1  0  0  0  0
 20 58  1  0  0  0  0
 21 24  1  0  0  0  0
 21 59  1  0  0  0  0
 21 60  1  0  0  0  0
 22 24  1  0  0  0  0
 22 61  1  0  0  0  0
 22 62  1  0  0  0  0
 23 26  1  0  0  0  0
 23 63  1  0  0  0  0
 23 64  1  0  0  0  0
 24 65  1  0  0  0  0
 25 66  1  0  0  0  0
 25 67  1  0  0  0  0
 25 68  1  0  0  0  0
 26 27  1  0  0  0  0
 26 69  1  0  0  0  0
 26 70  1  0  0  0  0
 27 28  1  0  0  0  0
 27 71  1  0  0  0  0
 27 72  1  0  0  0  0
 28 30  1  0  0  0  0
 28 31  1  0  0  0  0
 28 73  1  0  0  0  0
 30 74  1  0  0  0  0
 30 75  1  0  0  0  0
 30 76  1  0  0  0  0
 31 77  1  0  0  0  0
 31 78  1  0  0  0  0
 31 79  1  0  0  0  0
 32 33  1  0  0  0  0
 32 80  1  0  0  0  0
 32 81  1  0  0  0  0
 33 34  1  0  0  0  0
 33 82  1  0  0  0  0
 33 83  1  0  0  0  0
 34 84  1  0  0  0  0
 34 85  1  0  0  0  0
 34 86  1  0  0  0  0
M  END
> <PUBCHEM_COMPOUND_CID>
520912
> <PUBCHEM_COMPOUND_CANONICALIZED>
1
> <PUBCHEM_CACTVS_COMPLEXITY>
741
> <PUBCHEM_CACTVS_HBOND_ACCEPTOR>
3
> <PUBCHEM_CACTVS_HBOND_DONOR>
0
> <PUBCHEM_CACTVS_ROTATABLE_BOND>
10
> <PUBCHEM_CACTVS_SUBSKEYS>
AAADcfB4MAAAAAAAAAAAAAAAAAAAAYAAAAAwYIAAAAAAAGCAAAAAGgAAAAAADxSggAICCAAABACIAiBCCAAAAAAgAAAACAAAAAgQAAIAAQAgAAAEwAAMAAOAwPAPgAAAAAAAAADAAAQAACAAAQAACAAAAA==
> <PUBCHEM_IUPAC_OPENEYE_NAME>
[17-(1,5-dimethylhexyl)-10,13-dimethyl-2,3,4,7,8,9,11,12,14,15,16,17-dodecahydro-1H-cyclopenta[a]phenanthren-3-yl] propyl carbonate
> <PUBCHEM_IUPAC_CAS_NAME>
carbonic acid [10,13-dimethyl-17-(6-methylheptan-2-yl)-2,3,4,7,8,9,11,12,14,15,16,17-dodecahydro-1H-cyclopenta[a]phenanthren-3-yl] propyl ester
> <PUBCHEM_IUPAC_NAME_MARKUP>
[10,13-dimethyl-17-(6-methylheptan-2-yl)-2,3,4,7,8,9,11,12,14,15,16,17-dodecahydro-1<I>H</I>-cyclopenta[a]phenanthren-3-yl] propyl carbonate
> <PUBCHEM_IUPAC_NAME>
[10,13-dimethyl-17-(6-methylheptan-2-yl)-2,3,4,7,8,9,11,12,14,15,16,17-dodecahydro-1H-cyclopenta[a]phenanthren-3-yl] propyl carbonate
> <PUBCHEM_IUPAC_SYSTEMATIC_NAME>
[10,13-dimethyl-17-(6-methylheptan-2-yl)-2,3,4,7,8,9,11,12,14,15,16,17-dodecahydro-1H-cyclopenta[a]phenanthren-3-yl] propyl carbonate
> <PUBCHEM_IUPAC_TRADITIONAL_NAME>
carbonic acid [17-(1,5-dimethylhexyl)-10,13-dimethyl-2,3,4,7,8,9,11,12,14,15,16,17-dodecahydro-1H-cyclopenta[a]phenanthren-3-yl] propyl ester
> <PUBCHEM_IUPAC_INCHI>
InChI=1S/C31H52O3/c1-7-19-33-29(32)34-24-15-17-30(5)23(20-24)11-12-25-27-14-13-26(22(4)10-8-9-21(2)3)31(27,6)18-16-28(25)30/h11,21-22,24-28H,7-10,12-20H2,1-6H3
> <PUBCHEM_IUPAC_INCHIKEY>
HDCRAXGDAFODLS-UHFFFAOYSA-N
> <PUBCHEM_XLOGP3_AA>
10.4
> <PUBCHEM_EXACT_MASS>
472.39164552
> <PUBCHEM_MOLECULAR_FORMULA>
C31H52O3
> <PUBCHEM_MOLECULAR_WEIGHT>
472.7
> <PUBCHEM_OPENEYE_CAN_SMILES>
CCCOC(=O)OC1CCC2(C3CCC4(C(C3CC=C2C1)CCC4C(C)CCCC(C)C)C)C
> <PUBCHEM_OPENEYE_ISO_SMILES>
CCCOC(=O)OC1CCC2(C3CCC4(C(C3CC=C2C1)CCC4C(C)CCCC(C)C)C)C
> <PUBCHEM_CACTVS_TPSA>
35.5
> <PUBCHEM_MONOISOTOPIC_WEIGHT>
472.39164552
> <PUBCHEM_TOTAL_CHARGE>
0
> <PUBCHEM_HEAVY_ATOM_COUNT>
34
> <PUBCHEM_ATOM_DEF_STEREO_COUNT>
0
> <PUBCHEM_ATOM_UDEF_STEREO_COUNT>
8
> <PUBCHEM_BOND_DEF_STEREO_COUNT>
0
> <PUBCHEM_BOND_UDEF_STEREO_COUNT>
0
> <PUBCHEM_ISOTOPIC_ATOM_COUNT>
0
> <PUBCHEM_COMPONENT_COUNT>
1
> <PUBCHEM_CACTVS_TAUTO_COUNT>
-1
> <PUBCHEM_COORDINATE_TYPE>
1
5
255
> <PUBCHEM_BONDANNOTATIONS>
24  1  3
10  20  3
15  25  3
4  16  3
5  11  3
6  14  3
7  12  3
8  13  3
$$$$
