520907
  -OEChem-10302200292D
 22 21  0     1  0  0  0  0  0999 V2000
    4.5981   -0.3170    0.0000 N   0  0  0  0  0  0  0  0  0  0  0  0
    2.8660   -0.3170    0.0000 C   0  0  0  0  0  0  0  0  0  0  0  0
    3.7320    0.1830    0.0000 C   0  0  3  0  0  0  0  0  0  0  0  0
    2.0000   -0.8170    0.0000 C   0  0  0  0  0  0  0  0  0  0  0  0
    2.3660    0.5490    0.0000 C   0  0  0  0  0  0  0  0  0  0  0  0
    3.3660   -1.1830    0.0000 C   0  0  0  0  0  0  0  0  0  0  0  0
    3.7320    1.1830    0.0000 C   0  0  0  0  0  0  0  0  0  0  0  0
    3.7320   -0.6670    0.0000 H   0  0  0  0  0  0  0  0  0  0  0  0
    1.6900   -0.2801    0.0000 H   0  0  0  0  0  0  0  0  0  0  0  0
    1.4631   -1.1270    0.0000 H   0  0  0  0  0  0  0  0  0  0  0  0
    2.3100   -1.3539    0.0000 H   0  0  0  0  0  0  0  0  0  0  0  0
    2.9030    0.8590    0.0000 H   0  0  0  0  0  0  0  0  0  0  0  0
    2.0560    1.0860    0.0000 H   0  0  0  0  0  0  0  0  0  0  0  0
    1.8291    0.2390    0.0000 H   0  0  0  0  0  0  0  0  0  0  0  0
    2.8291   -1.4930    0.0000 H   0  0  0  0  0  0  0  0  0  0  0  0
    3.6760   -1.7200    0.0000 H   0  0  0  0  0  0  0  0  0  0  0  0
    3.9030   -0.8730    0.0000 H   0  0  0  0  0  0  0  0  0  0  0  0
    4.3520    1.1830    0.0000 H   0  0  0  0  0  0  0  0  0  0  0  0
    3.7320    1.8030    0.0000 H   0  0  0  0  0  0  0  0  0  0  0  0
    3.1120    1.1830    0.0000 H   0  0  0  0  0  0  0  0  0  0  0  0
    5.1350   -0.0070    0.0000 H   0  0  0  0  0  0  0  0  0  0  0  0
    4.5981   -0.9370    0.0000 H   0  0  0  0  0  0  0  0  0  0  0  0
  1  3  1  0  0  0  0
  1 21  1  0  0  0  0
  1 22  1  0  0  0  0
  2  3  1  0  0  0  0
  2  4  1  0  0  0  0
  2  5  1  0  0  0  0
  2  6  1  0  0  0  0
  3  7  1  0  0  0  0
  3  8  1  0  0  0  0
  4  9  1  0  0  0  0
  4 10  1  0  0  0  0
  4 11  1  0  0  0  0
  5 12  1  0  0  0  0
  5 13  1  0  0  0  0
  5 14  1  0  0  0  0
  6 15  1  0  0  0  0
  6 16  1  0  0  0  0
  6 17  1  0  0  0  0
  7 18  1  0  0  0  0
  7 19  1  0  0  0  0
  7 20  1  0  0  0  0
M  END
> <PUBCHEM_COMPOUND_CID>
520907
> <PUBCHEM_COMPOUND_CANONICALIZED>
1
> <PUBCHEM_CACTVS_COMPLEXITY>
51.7
> <PUBCHEM_CACTVS_HBOND_ACCEPTOR>
1
> <PUBCHEM_CACTVS_HBOND_DONOR>
1
> <PUBCHEM_CACTVS_ROTATABLE_BOND>
1
> <PUBCHEM_CACTVS_SUBSKEYS>
AAADccBiAAAAAAAAAAAAAAAAAAAAAAAAAAAAAAAAAAAAAAAAAAAAHAAQAAAADijBAAQCAABAAAAAAAAAAAAAAAAAAAAAAIAAAAAAAAAAAAAAAAAAEAAAAAAAAAAJAAAAAAAAAAAAAAAAAAAAAAAAAAAAAA==
> <PUBCHEM_IUPAC_OPENEYE_NAME>
3,3-dimethylbutan-2-amine
> <PUBCHEM_IUPAC_CAS_NAME>
3,3-dimethyl-2-butanamine
> <PUBCHEM_IUPAC_NAME_MARKUP>
3,3-dimethylbutan-2-amine
> <PUBCHEM_IUPAC_NAME>
3,3-dimethylbutan-2-amine
> <PUBCHEM_IUPAC_SYSTEMATIC_NAME>
3,3-dimethylbutan-2-amine
> <PUBCHEM_IUPAC_TRADITIONAL_NAME>
1,2,2-trimethylpropylamine
> <PUBCHEM_IUPAC_INCHI>
InChI=1S/C6H15N/c1-5(7)6(2,3)4/h5H,7H2,1-4H3
> <PUBCHEM_IUPAC_INCHIKEY>
DXSUORGKJZADET-UHFFFAOYSA-N
> <PUBCHEM_XLOGP3_AA>
1.4
> <PUBCHEM_EXACT_MASS>
101.120449483
> <PUBCHEM_MOLECULAR_FORMULA>
C6H15N
> <PUBCHEM_MOLECULAR_WEIGHT>
101.19
> <PUBCHEM_OPENEYE_CAN_SMILES>
CC(C(C)(C)C)N
> <PUBCHEM_OPENEYE_ISO_SMILES>
CC(C(C)(C)C)N
> <PUBCHEM_CACTVS_TPSA>
26
> <PUBCHEM_MONOISOTOPIC_WEIGHT>
101.120449483
> <PUBCHEM_TOTAL_CHARGE>
0
> <PUBCHEM_HEAVY_ATOM_COUNT>
7
> <PUBCHEM_ATOM_DEF_STEREO_COUNT>
0
> <PUBCHEM_ATOM_UDEF_STEREO_COUNT>
1
> <PUBCHEM_BOND_DEF_STEREO_COUNT>
0
> <PUBCHEM_BOND_UDEF_STEREO_COUNT>
0
> <PUBCHEM_ISOTOPIC_ATOM_COUNT>
0
> <PUBCHEM_COMPONENT_COUNT>
1
> <PUBCHEM_CACTVS_TAUTO_COUNT>
1
> <PUBCHEM_COORDINATE_TYPE>
1
5
255
> <PUBCHEM_BONDANNOTATIONS>
3  8  3
$$$$
