520942
  -OEChem-10302200292D
 19 19  0     1  0  0  0  0  0999 V2000
    3.0878   -1.1739    0.0000 O   0  0  0  0  0  0  0  0  0  0  0  0
    2.5878    0.3649    0.0000 C   0  0  3  0  0  0  0  0  0  0  0  0
    3.5878    0.3649    0.0000 C   0  0  0  0  0  0  0  0  0  0  0  0
    3.8968   -0.5861    0.0000 C   0  0  3  0  0  0  0  0  0  0  0  0
    2.2788   -0.5861    0.0000 C   0  0  0  0  0  0  0  0  0  0  0  0
    2.0000    1.1739    0.0000 C   0  0  0  0  0  0  0  0  0  0  0  0
    4.8479   -0.8952    0.0000 C   0  0  0  0  0  0  0  0  0  0  0  0
    1.9754    0.2679    0.0000 H   0  0  0  0  0  0  0  0  0  0  0  0
    4.1942    0.4938    0.0000 H   0  0  0  0  0  0  0  0  0  0  0  0
    3.5230    0.9815    0.0000 H   0  0  0  0  0  0  0  0  0  0  0  0
    3.9938   -1.1985    0.0000 H   0  0  0  0  0  0  0  0  0  0  0  0
    1.7124   -0.3340    0.0000 H   0  0  0  0  0  0  0  0  0  0  0  0
    1.9688   -1.1231    0.0000 H   0  0  0  0  0  0  0  0  0  0  0  0
    2.5016    1.5384    0.0000 H   0  0  0  0  0  0  0  0  0  0  0  0
    1.6356    1.6755    0.0000 H   0  0  0  0  0  0  0  0  0  0  0  0
    1.4984    0.8095    0.0000 H   0  0  0  0  0  0  0  0  0  0  0  0
    4.6563   -1.4848    0.0000 H   0  0  0  0  0  0  0  0  0  0  0  0
    5.4375   -1.0868    0.0000 H   0  0  0  0  0  0  0  0  0  0  0  0
    5.0395   -0.3055    0.0000 H   0  0  0  0  0  0  0  0  0  0  0  0
  1  4  1  0  0  0  0
  1  5  1  0  0  0  0
  2  3  1  0  0  0  0
  2  5  1  0  0  0  0
  2  6  1  0  0  0  0
  2  8  1  0  0  0  0
  3  4  1  0  0  0  0
  3  9  1  0  0  0  0
  3 10  1  0  0  0  0
  4  7  1  0  0  0  0
  4 11  1  0  0  0  0
  5 12  1  0  0  0  0
  5 13  1  0  0  0  0
  6 14  1  0  0  0  0
  6 15  1  0  0  0  0
  6 16  1  0  0  0  0
  7 17  1  0  0  0  0
  7 18  1  0  0  0  0
  7 19  1  0  0  0  0
M  END
> <PUBCHEM_COMPOUND_CID>
520942
> <PUBCHEM_COMPOUND_CANONICALIZED>
1
> <PUBCHEM_CACTVS_COMPLEXITY>
61.2
> <PUBCHEM_CACTVS_HBOND_ACCEPTOR>
1
> <PUBCHEM_CACTVS_HBOND_DONOR>
0
> <PUBCHEM_CACTVS_ROTATABLE_BOND>
0
> <PUBCHEM_CACTVS_SUBSKEYS>
AAADccBgIAAAAAAAAAAAAAAAAAAAASAAAAAAAAAAAAAAAAAAAAAAGgAAAAAADRSggAICAAAABAAAAAAAAAAAAAAAAAAAAAAAAAAAAAIAAAACAAAEAAAAAACAAAAMAAAAAAAAAAAAAAAAAAAAAAAAAAAAAA==
> <PUBCHEM_IUPAC_OPENEYE_NAME>
2,4-dimethyltetrahydrofuran
> <PUBCHEM_IUPAC_CAS_NAME>
2,4-dimethyloxolane
> <PUBCHEM_IUPAC_NAME_MARKUP>
2,4-dimethyloxolane
> <PUBCHEM_IUPAC_NAME>
2,4-dimethyloxolane
> <PUBCHEM_IUPAC_SYSTEMATIC_NAME>
2,4-dimethyloxolane
> <PUBCHEM_IUPAC_TRADITIONAL_NAME>
2,4-dimethyltetrahydrofuran
> <PUBCHEM_IUPAC_INCHI>
InChI=1S/C6H12O/c1-5-3-6(2)7-4-5/h5-6H,3-4H2,1-2H3
> <PUBCHEM_IUPAC_INCHIKEY>
QMGLMRPHOITLSN-UHFFFAOYSA-N
> <PUBCHEM_XLOGP3_AA>
1.4
> <PUBCHEM_EXACT_MASS>
100.088815002
> <PUBCHEM_MOLECULAR_FORMULA>
C6H12O
> <PUBCHEM_MOLECULAR_WEIGHT>
100.16
> <PUBCHEM_OPENEYE_CAN_SMILES>
CC1CC(OC1)C
> <PUBCHEM_OPENEYE_ISO_SMILES>
CC1CC(OC1)C
> <PUBCHEM_CACTVS_TPSA>
9.2
> <PUBCHEM_MONOISOTOPIC_WEIGHT>
100.088815002
> <PUBCHEM_TOTAL_CHARGE>
0
> <PUBCHEM_HEAVY_ATOM_COUNT>
7
> <PUBCHEM_ATOM_DEF_STEREO_COUNT>
0
> <PUBCHEM_ATOM_UDEF_STEREO_COUNT>
2
> <PUBCHEM_BOND_DEF_STEREO_COUNT>
0
> <PUBCHEM_BOND_UDEF_STEREO_COUNT>
0
> <PUBCHEM_ISOTOPIC_ATOM_COUNT>
0
> <PUBCHEM_COMPONENT_COUNT>
1
> <PUBCHEM_CACTVS_TAUTO_COUNT>
-1
> <PUBCHEM_COORDINATE_TYPE>
1
5
255
> <PUBCHEM_BONDANNOTATIONS>
2  6  3
4  7  3
$$$$
