520970
  -OEChem-10302200292D
 31 31  0     1  0  0  0  0  0999 V2000
    5.4641    0.5000    0.0000 Br  0  0  0  0  0  0  0  0  0  0  0  0
    3.7320   -0.5000    0.0000 O   0  0  0  0  0  0  0  0  0  0  0  0
    5.4641    2.5000    0.0000 O   0  0  0  0  0  0  0  0  0  0  0  0
    3.7320    2.5000    0.0000 O   0  0  0  0  0  0  0  0  0  0  0  0
    3.7320    0.5000    0.0000 C   0  0  0  0  0  0  0  0  0  0  0  0
    4.5981    1.0000    0.0000 C   0  0  3  0  0  0  0  0  0  0  0  0
    2.8660   -1.0000    0.0000 C   0  0  0  0  0  0  0  0  0  0  0  0
    2.8660   -2.0000    0.0000 C   0  0  0  0  0  0  0  0  0  0  0  0
    4.5981    2.0000    0.0000 C   0  0  0  0  0  0  0  0  0  0  0  0
    2.0000   -2.5000    0.0000 C   0  0  0  0  0  0  0  0  0  0  0  0
    3.7320   -2.5000    0.0000 C   0  0  0  0  0  0  0  0  0  0  0  0
    2.0000   -3.5000    0.0000 C   0  0  0  0  0  0  0  0  0  0  0  0
    3.7320   -3.5000    0.0000 C   0  0  0  0  0  0  0  0  0  0  0  0
    5.4641    3.5000    0.0000 C   0  0  0  0  0  0  0  0  0  0  0  0
    2.8660   -4.0000    0.0000 C   0  0  0  0  0  0  0  0  0  0  0  0
    6.3301    4.0000    0.0000 C   0  0  0  0  0  0  0  0  0  0  0  0
    3.5200    1.0826    0.0000 H   0  0  0  0  0  0  0  0  0  0  0  0
    3.1215    0.3923    0.0000 H   0  0  0  0  0  0  0  0  0  0  0  0
    4.5981    0.3800    0.0000 H   0  0  0  0  0  0  0  0  0  0  0  0
    2.6540   -0.4174    0.0000 H   0  0  0  0  0  0  0  0  0  0  0  0
    2.2554   -1.1077    0.0000 H   0  0  0  0  0  0  0  0  0  0  0  0
    1.4631   -2.1900    0.0000 H   0  0  0  0  0  0  0  0  0  0  0  0
    4.2690   -2.1900    0.0000 H   0  0  0  0  0  0  0  0  0  0  0  0
    1.4631   -3.8100    0.0000 H   0  0  0  0  0  0  0  0  0  0  0  0
    4.2690   -3.8100    0.0000 H   0  0  0  0  0  0  0  0  0  0  0  0
    5.2520    4.0826    0.0000 H   0  0  0  0  0  0  0  0  0  0  0  0
    4.8535    3.3923    0.0000 H   0  0  0  0  0  0  0  0  0  0  0  0
    2.8660   -4.6200    0.0000 H   0  0  0  0  0  0  0  0  0  0  0  0
    6.6401    3.4631    0.0000 H   0  0  0  0  0  0  0  0  0  0  0  0
    6.8671    4.3100    0.0000 H   0  0  0  0  0  0  0  0  0  0  0  0
    6.0201    4.5369    0.0000 H   0  0  0  0  0  0  0  0  0  0  0  0
  1  6  1  0  0  0  0
  2  5  1  0  0  0  0
  2  7  1  0  0  0  0
  3  9  1  0  0  0  0
  3 14  1  0  0  0  0
  4  9  2  0  0  0  0
  5  6  1  0  0  0  0
  5 17  1  0  0  0  0
  5 18  1  0  0  0  0
  6  9  1  0  0  0  0
  6 19  1  0  0  0  0
  7  8  1  0  0  0  0
  7 20  1  0  0  0  0
  7 21  1  0  0  0  0
  8 10  2  0  0  0  0
  8 11  1  0  0  0  0
 10 12  1  0  0  0  0
 10 22  1  0  0  0  0
 11 13  2  0  0  0  0
 11 23  1  0  0  0  0
 12 15  2  0  0  0  0
 12 24  1  0  0  0  0
 13 15  1  0  0  0  0
 13 25  1  0  0  0  0
 14 16  1  0  0  0  0
 14 26  1  0  0  0  0
 14 27  1  0  0  0  0
 15 28  1  0  0  0  0
 16 29  1  0  0  0  0
 16 30  1  0  0  0  0
 16 31  1  0  0  0  0
M  END
> <PUBCHEM_COMPOUND_CID>
520970
> <PUBCHEM_COMPOUND_CANONICALIZED>
1
> <PUBCHEM_CACTVS_COMPLEXITY>
202
> <PUBCHEM_CACTVS_HBOND_ACCEPTOR>
3
> <PUBCHEM_CACTVS_HBOND_DONOR>
0
> <PUBCHEM_CACTVS_ROTATABLE_BOND>
7
> <PUBCHEM_CACTVS_SUBSKEYS>
AAADccBwMAAAEAAAAAAAAAAAAAAAAAAAAAAwAAAAAAAAAAABAAAAGgBAAAABzACgmAIyCIAABACIAiDSCAACAAAgAAAIiAEACIgoJiaAMRiCMAAl4AEIqAeAwCAOAAAAAAAAAAAAAAAAAAAAAAAAAAAAAA==
> <PUBCHEM_IUPAC_OPENEYE_NAME>
ethyl 3-benzyloxy-2-bromo-propanoate
> <PUBCHEM_IUPAC_CAS_NAME>
2-bromo-3-phenylmethoxypropanoic acid ethyl ester
> <PUBCHEM_IUPAC_NAME_MARKUP>
ethyl 2-bromo-3-phenylmethoxypropanoate
> <PUBCHEM_IUPAC_NAME>
ethyl 2-bromo-3-phenylmethoxypropanoate
> <PUBCHEM_IUPAC_SYSTEMATIC_NAME>
ethyl 2-bromanyl-3-phenylmethoxy-propanoate
> <PUBCHEM_IUPAC_TRADITIONAL_NAME>
3-benzoxy-2-bromo-propionic acid ethyl ester
> <PUBCHEM_IUPAC_INCHI>
InChI=1S/C12H15BrO3/c1-2-16-12(14)11(13)9-15-8-10-6-4-3-5-7-10/h3-7,11H,2,8-9H2,1H3
> <PUBCHEM_IUPAC_INCHIKEY>
FPEMNHDCFKTXBC-UHFFFAOYSA-N
> <PUBCHEM_XLOGP3_AA>
2.7
> <PUBCHEM_EXACT_MASS>
286.02046
> <PUBCHEM_MOLECULAR_FORMULA>
C12H15BrO3
> <PUBCHEM_MOLECULAR_WEIGHT>
287.15
> <PUBCHEM_OPENEYE_CAN_SMILES>
CCOC(=O)C(COCC1=CC=CC=C1)Br
> <PUBCHEM_OPENEYE_ISO_SMILES>
CCOC(=O)C(COCC1=CC=CC=C1)Br
> <PUBCHEM_CACTVS_TPSA>
35.5
> <PUBCHEM_MONOISOTOPIC_WEIGHT>
286.02046
> <PUBCHEM_TOTAL_CHARGE>
0
> <PUBCHEM_HEAVY_ATOM_COUNT>
16
> <PUBCHEM_ATOM_DEF_STEREO_COUNT>
0
> <PUBCHEM_ATOM_UDEF_STEREO_COUNT>
1
> <PUBCHEM_BOND_DEF_STEREO_COUNT>
0
> <PUBCHEM_BOND_UDEF_STEREO_COUNT>
0
> <PUBCHEM_ISOTOPIC_ATOM_COUNT>
0
> <PUBCHEM_COMPONENT_COUNT>
1
> <PUBCHEM_CACTVS_TAUTO_COUNT>
-1
> <PUBCHEM_COORDINATE_TYPE>
1
5
255
> <PUBCHEM_BONDANNOTATIONS>
6  1  3
10  12  8
11  13  8
12  15  8
13  15  8
8  10  8
8  11  8
$$$$
