520916
  -OEChem-10302200292D
 21 21  0     1  0  0  0  0  0999 V2000
    4.5981   -1.2500    0.0000 O   0  0  0  0  0  0  0  0  0  0  0  0
    5.4641    0.2500    0.0000 O   0  0  0  0  0  0  0  0  0  0  0  0
    3.7320   -2.7500    0.0000 O   0  0  0  0  0  0  0  0  0  0  0  0
    2.0000    1.2500    0.0000 O   0  0  0  0  0  0  0  0  0  0  0  0
    3.7320    1.2500    0.0000 N   0  0  0  0  0  0  0  0  0  0  0  0
    3.7320    0.2500    0.0000 C   0  0  3  0  0  0  0  0  0  0  0  0
    2.8660   -0.2500    0.0000 C   0  0  0  0  0  0  0  0  0  0  0  0
    2.8660   -1.2500    0.0000 C   0  0  0  0  0  0  0  0  0  0  0  0
    4.5981   -0.2500    0.0000 C   0  0  0  0  0  0  0  0  0  0  0  0
    3.7320   -1.7500    0.0000 C   0  0  0  0  0  0  0  0  0  0  0  0
    2.8660    1.7500    0.0000 C   0  0  0  0  0  0  0  0  0  0  0  0
    2.8660    2.7500    0.0000 C   0  0  0  0  0  0  0  0  0  0  0  0
    4.2690    0.5600    0.0000 H   0  0  0  0  0  0  0  0  0  0  0  0
    2.6540    0.3326    0.0000 H   0  0  0  0  0  0  0  0  0  0  0  0
    2.2554   -0.3577    0.0000 H   0  0  0  0  0  0  0  0  0  0  0  0
    2.2554   -1.1423    0.0000 H   0  0  0  0  0  0  0  0  0  0  0  0
    2.6540   -1.8326    0.0000 H   0  0  0  0  0  0  0  0  0  0  0  0
    4.2690    1.5600    0.0000 H   0  0  0  0  0  0  0  0  0  0  0  0
    3.4860    2.7500    0.0000 H   0  0  0  0  0  0  0  0  0  0  0  0
    2.8660    3.3700    0.0000 H   0  0  0  0  0  0  0  0  0  0  0  0
    2.2460    2.7500    0.0000 H   0  0  0  0  0  0  0  0  0  0  0  0
  1  9  1  0  0  0  0
  1 10  1  0  0  0  0
  2  9  2  0  0  0  0
  3 10  2  0  0  0  0
  4 11  2  0  0  0  0
  5  6  1  0  0  0  0
  5 11  1  0  0  0  0
  5 18  1  0  0  0  0
  6  7  1  0  0  0  0
  6  9  1  0  0  0  0
  6 13  1  0  0  0  0
  7  8  1  0  0  0  0
  7 14  1  0  0  0  0
  7 15  1  0  0  0  0
  8 10  1  0  0  0  0
  8 16  1  0  0  0  0
  8 17  1  0  0  0  0
 11 12  1  0  0  0  0
 12 19  1  0  0  0  0
 12 20  1  0  0  0  0
 12 21  1  0  0  0  0
M  END
> <PUBCHEM_COMPOUND_CID>
520916
> <PUBCHEM_COMPOUND_CANONICALIZED>
1
> <PUBCHEM_CACTVS_COMPLEXITY>
236
> <PUBCHEM_CACTVS_HBOND_ACCEPTOR>
4
> <PUBCHEM_CACTVS_HBOND_DONOR>
1
> <PUBCHEM_CACTVS_ROTATABLE_BOND>
1
> <PUBCHEM_CACTVS_SUBSKEYS>
AAADccBiOAAAAAAAAAAAAAAAAAAAAAAAAAAkAAAAAAAAAAAAAAAAHgAQAAAACCjBgAQCCALABAAIAAGQGAAAAAAAAAAAAIGIAAACABIAgCAHAAAEFgCQAACsBgAAAAAAAAAAAAAAAAAAAAAAAAAAAAAAAA==
> <PUBCHEM_IUPAC_OPENEYE_NAME>
N-(2,6-dioxotetrahydropyran-3-yl)acetamide
> <PUBCHEM_IUPAC_CAS_NAME>
N-(2,6-dioxo-3-oxanyl)acetamide
> <PUBCHEM_IUPAC_NAME_MARKUP>
<I>N</I>-(2,6-dioxooxan-3-yl)acetamide
> <PUBCHEM_IUPAC_NAME>
N-(2,6-dioxooxan-3-yl)acetamide
> <PUBCHEM_IUPAC_SYSTEMATIC_NAME>
N-[2,6-bis(oxidanylidene)oxan-3-yl]ethanamide
> <PUBCHEM_IUPAC_TRADITIONAL_NAME>
N-(2,6-diketotetrahydropyran-3-yl)acetamide
> <PUBCHEM_IUPAC_INCHI>
InChI=1S/C7H9NO4/c1-4(9)8-5-2-3-6(10)12-7(5)11/h5H,2-3H2,1H3,(H,8,9)
> <PUBCHEM_IUPAC_INCHIKEY>
OWOHWGNSBBGHTI-UHFFFAOYSA-N
> <PUBCHEM_XLOGP3_AA>
-0.7
> <PUBCHEM_EXACT_MASS>
171.05315777
> <PUBCHEM_MOLECULAR_FORMULA>
C7H9NO4
> <PUBCHEM_MOLECULAR_WEIGHT>
171.15
> <PUBCHEM_OPENEYE_CAN_SMILES>
CC(=O)NC1CCC(=O)OC1=O
> <PUBCHEM_OPENEYE_ISO_SMILES>
CC(=O)NC1CCC(=O)OC1=O
> <PUBCHEM_CACTVS_TPSA>
72.5
> <PUBCHEM_MONOISOTOPIC_WEIGHT>
171.05315777
> <PUBCHEM_TOTAL_CHARGE>
0
> <PUBCHEM_HEAVY_ATOM_COUNT>
12
> <PUBCHEM_ATOM_DEF_STEREO_COUNT>
0
> <PUBCHEM_ATOM_UDEF_STEREO_COUNT>
1
> <PUBCHEM_BOND_DEF_STEREO_COUNT>
0
> <PUBCHEM_BOND_UDEF_STEREO_COUNT>
0
> <PUBCHEM_ISOTOPIC_ATOM_COUNT>
0
> <PUBCHEM_COMPONENT_COUNT>
1
> <PUBCHEM_CACTVS_TAUTO_COUNT>
-1
> <PUBCHEM_COORDINATE_TYPE>
1
5
255
> <PUBCHEM_BONDANNOTATIONS>
6  5  3
$$$$
