521054
  -OEChem-10302200292D
 22 22  0     1  0  0  0  0  0999 V2000
    5.9543    0.7694    0.0000 S   0  0  0  0  0  0  0  0  0  0  0  0
    5.4543   -0.7694    0.0000 N   0  0  0  0  0  0  0  0  0  0  0  0
    4.6453   -0.1816    0.0000 C   0  0  3  0  0  0  0  0  0  0  0  0
    3.6942   -0.4907    0.0000 C   0  0  0  0  0  0  0  0  0  0  0  0
    4.9543    0.7694    0.0000 C   0  0  0  0  0  0  0  0  0  0  0  0
    2.9511    0.1785    0.0000 C   0  0  0  0  0  0  0  0  0  0  0  0
    6.2633   -0.1816    0.0000 C   0  0  0  0  0  0  0  0  0  0  0  0
    2.0000   -0.1305    0.0000 C   0  0  0  0  0  0  0  0  0  0  0  0
    7.2144   -0.4907    0.0000 C   0  0  0  0  0  0  0  0  0  0  0  0
    4.5483   -0.7940    0.0000 H   0  0  0  0  0  0  0  0  0  0  0  0
    3.2056   -0.8724    0.0000 H   0  0  0  0  0  0  0  0  0  0  0  0
    3.9853   -1.0381    0.0000 H   0  0  0  0  0  0  0  0  0  0  0  0
    5.0191    1.3860    0.0000 H   0  0  0  0  0  0  0  0  0  0  0  0
    4.3478    0.8983    0.0000 H   0  0  0  0  0  0  0  0  0  0  0  0
    3.4396    0.5602    0.0000 H   0  0  0  0  0  0  0  0  0  0  0  0
    2.6600    0.7259    0.0000 H   0  0  0  0  0  0  0  0  0  0  0  0
    1.8084    0.4591    0.0000 H   0  0  0  0  0  0  0  0  0  0  0  0
    1.4103   -0.3221    0.0000 H   0  0  0  0  0  0  0  0  0  0  0  0
    2.1916   -0.7202    0.0000 H   0  0  0  0  0  0  0  0  0  0  0  0
    7.0228   -1.0803    0.0000 H   0  0  0  0  0  0  0  0  0  0  0  0
    7.8040   -0.6822    0.0000 H   0  0  0  0  0  0  0  0  0  0  0  0
    7.4059    0.0990    0.0000 H   0  0  0  0  0  0  0  0  0  0  0  0
  1  5  1  0  0  0  0
  1  7  1  0  0  0  0
  2  3  1  0  0  0  0
  2  7  2  0  0  0  0
  3  4  1  0  0  0  0
  3  5  1  0  0  0  0
  3 10  1  0  0  0  0
  4  6  1  0  0  0  0
  4 11  1  0  0  0  0
  4 12  1  0  0  0  0
  5 13  1  0  0  0  0
  5 14  1  0  0  0  0
  6  8  1  0  0  0  0
  6 15  1  0  0  0  0
  6 16  1  0  0  0  0
  7  9  1  0  0  0  0
  8 17  1  0  0  0  0
  8 18  1  0  0  0  0
  8 19  1  0  0  0  0
  9 20  1  0  0  0  0
  9 21  1  0  0  0  0
  9 22  1  0  0  0  0
M  END
> <PUBCHEM_COMPOUND_CID>
521054
> <PUBCHEM_COMPOUND_CANONICALIZED>
1
> <PUBCHEM_CACTVS_COMPLEXITY>
120
> <PUBCHEM_CACTVS_HBOND_ACCEPTOR>
2
> <PUBCHEM_CACTVS_HBOND_DONOR>
0
> <PUBCHEM_CACTVS_ROTATABLE_BOND>
2
> <PUBCHEM_CACTVS_SUBSKEYS>
AAADccBiAABAAAAAAAAAAAAAAAAAAQAAAAAAAAAAAAAAAAAAAAAAHAQAAAAACCjFQASCAAIAAAggAAAgBAAAEAAAABAAAAAQAAAAAAIggAAAAAAAAAAgAAAAAAAAAAAAAAAAAAAAAAAAAAAAAAAAAAAAAA==
> <PUBCHEM_IUPAC_OPENEYE_NAME>
2-methyl-4-propyl-4,5-dihydrothiazole
> <PUBCHEM_IUPAC_CAS_NAME>
2-methyl-4-propyl-4,5-dihydrothiazole
> <PUBCHEM_IUPAC_NAME_MARKUP>
2-methyl-4-propyl-4,5-dihydro-1,3-thiazole
> <PUBCHEM_IUPAC_NAME>
2-methyl-4-propyl-4,5-dihydro-1,3-thiazole
> <PUBCHEM_IUPAC_SYSTEMATIC_NAME>
2-methyl-4-propyl-4,5-dihydro-1,3-thiazole
> <PUBCHEM_IUPAC_TRADITIONAL_NAME>
2-methyl-4-propyl-2-thiazoline
> <PUBCHEM_IUPAC_INCHI>
InChI=1S/C7H13NS/c1-3-4-7-5-9-6(2)8-7/h7H,3-5H2,1-2H3
> <PUBCHEM_IUPAC_INCHIKEY>
MLGJXLTTXXFOAD-UHFFFAOYSA-N
> <PUBCHEM_XLOGP3_AA>
1.6
> <PUBCHEM_EXACT_MASS>
143.07687059
> <PUBCHEM_MOLECULAR_FORMULA>
C7H13NS
> <PUBCHEM_MOLECULAR_WEIGHT>
143.25
> <PUBCHEM_OPENEYE_CAN_SMILES>
CCCC1CSC(=N1)C
> <PUBCHEM_OPENEYE_ISO_SMILES>
CCCC1CSC(=N1)C
> <PUBCHEM_CACTVS_TPSA>
37.7
> <PUBCHEM_MONOISOTOPIC_WEIGHT>
143.07687059
> <PUBCHEM_TOTAL_CHARGE>
0
> <PUBCHEM_HEAVY_ATOM_COUNT>
9
> <PUBCHEM_ATOM_DEF_STEREO_COUNT>
0
> <PUBCHEM_ATOM_UDEF_STEREO_COUNT>
1
> <PUBCHEM_BOND_DEF_STEREO_COUNT>
0
> <PUBCHEM_BOND_UDEF_STEREO_COUNT>
0
> <PUBCHEM_ISOTOPIC_ATOM_COUNT>
0
> <PUBCHEM_COMPONENT_COUNT>
1
> <PUBCHEM_CACTVS_TAUTO_COUNT>
-1
> <PUBCHEM_COORDINATE_TYPE>
1
5
255
> <PUBCHEM_BONDANNOTATIONS>
3  4  3
$$$$
