521030
  -OEChem-10302200292D
 40 42  0     1  0  0  0  0  0999 V2000
    6.7220   -2.4406    0.0000 O   0  0  0  0  0  0  0  0  0  0  0  0
    2.9986   -0.1670    0.0000 C   0  0  3  0  0  0  0  0  0  0  0  0
    5.8153   -0.0818    0.0000 C   0  0  3  0  0  0  0  0  0  0  0  0
    4.6752    0.8753    0.0000 C   0  0  3  0  0  0  0  0  0  0  0  0
    4.4164   -0.0907    0.0000 C   0  0  3  0  0  0  0  0  0  0  0  0
    5.3659   -0.9706    0.0000 C   0  0  3  0  0  0  0  0  0  0  0  0
    3.5009   -1.0270    0.0000 C   0  0  0  0  0  0  0  0  0  0  0  0
    4.4439   -1.3470    0.0000 C   0  0  0  0  0  0  0  0  0  0  0  0
    4.5967    2.3360    0.0000 C   0  0  0  0  0  0  0  0  0  0  0  0
    3.1954    1.5270    0.0000 C   0  0  0  0  0  0  0  0  0  0  0  0
    2.0000   -0.2208    0.0000 C   0  0  0  0  0  0  0  0  0  0  0  0
    6.0440   -1.7056    0.0000 C   0  0  0  0  0  0  0  0  0  0  0  0
    3.6022    2.4406    0.0000 C   0  0  0  0  0  0  0  0  0  0  0  0
    2.2173    1.3191    0.0000 C   0  0  0  0  0  0  0  0  0  0  0  0
    6.7790   -1.0275    0.0000 C   0  0  0  0  0  0  0  0  0  0  0  0
    5.3090   -2.3836    0.0000 C   0  0  0  0  0  0  0  0  0  0  0  0
    6.4227    0.0426    0.0000 H   0  0  0  0  0  0  0  0  0  0  0  0
    5.2299    1.1522    0.0000 H   0  0  0  0  0  0  0  0  0  0  0  0
    3.8542    0.1707    0.0000 H   0  0  0  0  0  0  0  0  0  0  0  0
    5.2312   -1.5758    0.0000 H   0  0  0  0  0  0  0  0  0  0  0  0
    2.8991   -1.1764    0.0000 H   0  0  0  0  0  0  0  0  0  0  0  0
    3.4749   -1.6464    0.0000 H   0  0  0  0  0  0  0  0  0  0  0  0
    4.0874   -1.8543    0.0000 H   0  0  0  0  0  0  0  0  0  0  0  0
    4.8304   -1.8319    0.0000 H   0  0  0  0  0  0  0  0  0  0  0  0
    5.2167    2.3366    0.0000 H   0  0  0  0  0  0  0  0  0  0  0  0
    4.6289    2.9552    0.0000 H   0  0  0  0  0  0  0  0  0  0  0  0
    1.9667    0.3983    0.0000 H   0  0  0  0  0  0  0  0  0  0  0  0
    1.3809   -0.2541    0.0000 H   0  0  0  0  0  0  0  0  0  0  0  0
    2.0333   -0.8399    0.0000 H   0  0  0  0  0  0  0  0  0  0  0  0
    3.2922    2.9775    0.0000 H   0  0  0  0  0  0  0  0  0  0  0  0
    2.0884    1.9255    0.0000 H   0  0  0  0  0  0  0  0  0  0  0  0
    1.6108    1.1902    0.0000 H   0  0  0  0  0  0  0  0  0  0  0  0
    2.3462    0.7126    0.0000 H   0  0  0  0  0  0  0  0  0  0  0  0
    7.1994   -1.4832    0.0000 H   0  0  0  0  0  0  0  0  0  0  0  0
    7.2346   -0.6071    0.0000 H   0  0  0  0  0  0  0  0  0  0  0  0
    6.3585   -0.5718    0.0000 H   0  0  0  0  0  0  0  0  0  0  0  0
    4.8886   -1.9279    0.0000 H   0  0  0  0  0  0  0  0  0  0  0  0
    4.8533   -2.8040    0.0000 H   0  0  0  0  0  0  0  0  0  0  0  0
    5.7294   -2.8393    0.0000 H   0  0  0  0  0  0  0  0  0  0  0  0
    7.3269   -2.3043    0.0000 H   0  0  0  0  0  0  0  0  0  0  0  0
  1 12  1  0  0  0  0
  1 40  1  0  0  0  0
  2  4  1  0  0  0  0
  2  5  1  0  0  0  0
  2  7  1  0  0  0  0
  2 11  1  0  0  0  0
  3  4  1  0  0  0  0
  3  5  1  0  0  0  0
  3  6  1  0  0  0  0
  3 17  1  0  0  0  0
  4  9  1  0  0  0  0
  4 18  1  0  0  0  0
  5 10  1  0  0  0  0
  5 19  1  0  0  0  0
  6  8  1  0  0  0  0
  6 12  1  0  0  0  0
  6 20  1  0  0  0  0
  7  8  1  0  0  0  0
  7 21  1  0  0  0  0
  7 22  1  0  0  0  0
  8 23  1  0  0  0  0
  8 24  1  0  0  0  0
  9 13  1  0  0  0  0
  9 25  1  0  0  0  0
  9 26  1  0  0  0  0
 10 13  2  0  0  0  0
 10 14  1  0  0  0  0
 11 27  1  0  0  0  0
 11 28  1  0  0  0  0
 11 29  1  0  0  0  0
 12 15  1  0  0  0  0
 12 16  1  0  0  0  0
 13 30  1  0  0  0  0
 14 31  1  0  0  0  0
 14 32  1  0  0  0  0
 14 33  1  0  0  0  0
 15 34  1  0  0  0  0
 15 35  1  0  0  0  0
 15 36  1  0  0  0  0
 16 37  1  0  0  0  0
 16 38  1  0  0  0  0
 16 39  1  0  0  0  0
M  END
> <PUBCHEM_COMPOUND_CID>
521030
> <PUBCHEM_COMPOUND_CANONICALIZED>
1
> <PUBCHEM_CACTVS_COMPLEXITY>
354
> <PUBCHEM_CACTVS_HBOND_ACCEPTOR>
1
> <PUBCHEM_CACTVS_HBOND_DONOR>
1
> <PUBCHEM_CACTVS_ROTATABLE_BOND>
1
> <PUBCHEM_CACTVS_SUBSKEYS>
AAADceBwIAAAAAAAAAAAAAAAAABgAAAAAAAwYIEAAAAAAAAAAAAAGgAACAAAD0SAgAACAAAAAgCAAiBCAAAAAAAgAAAACAAAAAgAAAIAAQAAQAAEgAAIAAOAwPAPgAAAAAAAAACAAAQAACAAAAAAAAAAAA==
> <PUBCHEM_IUPAC_OPENEYE_NAME>
2-(6,8-dimethyl-3-tricyclo[4.4.0.02,7]dec-8-enyl)propan-2-ol
> <PUBCHEM_IUPAC_CAS_NAME>
2-(6,8-dimethyl-3-tricyclo[4.4.0.02,7]dec-8-enyl)-2-propanol
> <PUBCHEM_IUPAC_NAME_MARKUP>
2-(6,8-dimethyl-3-tricyclo[4.4.0.0<SUP>2,7</SUP>]dec-8-enyl)propan-2-ol
> <PUBCHEM_IUPAC_NAME>
2-(6,8-dimethyl-3-tricyclo[4.4.0.02,7]dec-8-enyl)propan-2-ol
> <PUBCHEM_IUPAC_SYSTEMATIC_NAME>
2-(6,8-dimethyl-3-tricyclo[4.4.0.02,7]dec-8-enyl)propan-2-ol
> <PUBCHEM_IUPAC_TRADITIONAL_NAME>
2-(6,8-dimethyl-3-tricyclo[4.4.0.02,7]dec-8-enyl)propan-2-ol
> <PUBCHEM_IUPAC_INCHI>
InChI=1S/C15H24O/c1-9-5-6-11-12-10(14(2,3)16)7-8-15(11,4)13(9)12/h5,10-13,16H,6-8H2,1-4H3
> <PUBCHEM_IUPAC_INCHIKEY>
IKIHFZGZEWTHEQ-UHFFFAOYSA-N
> <PUBCHEM_XLOGP3_AA>
2.9
> <PUBCHEM_EXACT_MASS>
220.182715385
> <PUBCHEM_MOLECULAR_FORMULA>
C15H24O
> <PUBCHEM_MOLECULAR_WEIGHT>
220.35
> <PUBCHEM_OPENEYE_CAN_SMILES>
CC1=CCC2C3C1C2(CCC3C(C)(C)O)C
> <PUBCHEM_OPENEYE_ISO_SMILES>
CC1=CCC2C3C1C2(CCC3C(C)(C)O)C
> <PUBCHEM_CACTVS_TPSA>
20.2
> <PUBCHEM_MONOISOTOPIC_WEIGHT>
220.182715385
> <PUBCHEM_TOTAL_CHARGE>
0
> <PUBCHEM_HEAVY_ATOM_COUNT>
16
> <PUBCHEM_ATOM_DEF_STEREO_COUNT>
0
> <PUBCHEM_ATOM_UDEF_STEREO_COUNT>
5
> <PUBCHEM_BOND_DEF_STEREO_COUNT>
0
> <PUBCHEM_BOND_UDEF_STEREO_COUNT>
0
> <PUBCHEM_ISOTOPIC_ATOM_COUNT>
0
> <PUBCHEM_COMPONENT_COUNT>
1
> <PUBCHEM_CACTVS_TAUTO_COUNT>
-1
> <PUBCHEM_COORDINATE_TYPE>
1
5
255
> <PUBCHEM_BONDANNOTATIONS>
2  11  3
3  6  3
4  9  3
5  10  3
6  12  3
$$$$
