521043
  -OEChem-10302200292D
 19 17  0     1  0  0  0  0  0999 V2000
    1.3360    0.0000    0.0000 Cl  0  0  0  0  0  0  0  0  0  0  0  0
    0.5369    5.0369    0.0000 S   0  0  0  0  0  0  0  0  0  0  0  0
    3.1350    4.5369    0.0000 N   0  0  0  0  0  0  0  0  0  0  0  0
    1.4030    4.5369    0.0000 C   0  0  3  0  0  0  0  0  0  0  0  0
    1.4030    3.5369    0.0000 C   0  0  0  0  0  0  0  0  0  0  0  0
    2.2690    5.0369    0.0000 C   0  0  0  0  0  0  0  0  0  0  0  0
    0.5369    3.0369    0.0000 C   0  0  0  0  0  0  0  0  0  0  0  0
    1.4030    5.1569    0.0000 H   0  0  0  0  0  0  0  0  0  0  0  0
    1.6150    2.9543    0.0000 H   0  0  0  0  0  0  0  0  0  0  0  0
    2.0135    3.6446    0.0000 H   0  0  0  0  0  0  0  0  0  0  0  0
    2.6675    5.5119    0.0000 H   0  0  0  0  0  0  0  0  0  0  0  0
    1.8705    5.5119    0.0000 H   0  0  0  0  0  0  0  0  0  0  0  0
    0.2269    3.5739    0.0000 H   0  0  0  0  0  0  0  0  0  0  0  0
    0.0000    2.7269    0.0000 H   0  0  0  0  0  0  0  0  0  0  0  0
    0.8469    2.5000    0.0000 H   0  0  0  0  0  0  0  0  0  0  0  0
    0.0000    4.7269    0.0000 H   0  0  0  0  0  0  0  0  0  0  0  0
    3.6720    4.8469    0.0000 H   0  0  0  0  0  0  0  0  0  0  0  0
    3.1350    3.9169    0.0000 H   0  0  0  0  0  0  0  0  0  0  0  0
    2.3360    0.0000    0.0000 H   0  0  0  0  0  0  0  0  0  0  0  0
  1 19  1  0  0  0  0
  2  4  1  0  0  0  0
  2 16  1  0  0  0  0
  3  6  1  0  0  0  0
  3 17  1  0  0  0  0
  3 18  1  0  0  0  0
  4  5  1  0  0  0  0
  4  6  1  0  0  0  0
  4  8  1  0  0  0  0
  5  7  1  0  0  0  0
  5  9  1  0  0  0  0
  5 10  1  0  0  0  0
  6 11  1  0  0  0  0
  6 12  1  0  0  0  0
  7 13  1  0  0  0  0
  7 14  1  0  0  0  0
  7 15  1  0  0  0  0
M  END
> <PUBCHEM_COMPOUND_CID>
521043
> <PUBCHEM_COMPOUND_CANONICALIZED>
1
> <PUBCHEM_CACTVS_COMPLEXITY>
30.7
> <PUBCHEM_CACTVS_HBOND_ACCEPTOR>
2
> <PUBCHEM_CACTVS_HBOND_DONOR>
3
> <PUBCHEM_CACTVS_ROTATABLE_BOND>
2
> <PUBCHEM_CACTVS_SUBSKEYS>
AAADccBiAABEAAAAAAAAAAAAAAAAAAAAAAAAAAAAAAAAAAAAAAAAHAQQAAAACADFQASCAABAAAQAAAAAAAAAAAAAAAAAAIAAAAAAAAAAgAAAAAAAEAAAAAAAAAAAAAAAAAAAAAAAAAAAAAAAAAAAAAAAAA==
> <PUBCHEM_IUPAC_OPENEYE_NAME>
1-aminobutane-2-thiol;hydrochloride
> <PUBCHEM_IUPAC_CAS_NAME>
1-amino-2-butanethiol;hydrochloride
> <PUBCHEM_IUPAC_NAME_MARKUP>
1-aminobutane-2-thiol;hydrochloride
> <PUBCHEM_IUPAC_NAME>
1-aminobutane-2-thiol;hydrochloride
> <PUBCHEM_IUPAC_SYSTEMATIC_NAME>
1-azanylbutane-2-thiol;hydrochloride
> <PUBCHEM_IUPAC_TRADITIONAL_NAME>
1-aminobutane-2-thiol;hydrochloride
> <PUBCHEM_IUPAC_INCHI>
InChI=1S/C4H11NS.ClH/c1-2-4(6)3-5;/h4,6H,2-3,5H2,1H3;1H
> <PUBCHEM_IUPAC_INCHIKEY>
XQFGLYPFDHPYGZ-UHFFFAOYSA-N
> <PUBCHEM_EXACT_MASS>
141.0378983
> <PUBCHEM_MOLECULAR_FORMULA>
C4H12ClNS
> <PUBCHEM_MOLECULAR_WEIGHT>
141.66
> <PUBCHEM_OPENEYE_CAN_SMILES>
CCC(CN)S.Cl
> <PUBCHEM_OPENEYE_ISO_SMILES>
CCC(CN)S.Cl
> <PUBCHEM_CACTVS_TPSA>
27
> <PUBCHEM_MONOISOTOPIC_WEIGHT>
141.0378983
> <PUBCHEM_TOTAL_CHARGE>
0
> <PUBCHEM_HEAVY_ATOM_COUNT>
7
> <PUBCHEM_ATOM_DEF_STEREO_COUNT>
0
> <PUBCHEM_ATOM_UDEF_STEREO_COUNT>
1
> <PUBCHEM_BOND_DEF_STEREO_COUNT>
0
> <PUBCHEM_BOND_UDEF_STEREO_COUNT>
0
> <PUBCHEM_ISOTOPIC_ATOM_COUNT>
0
> <PUBCHEM_COMPONENT_COUNT>
2
> <PUBCHEM_CACTVS_TAUTO_COUNT>
-1
> <PUBCHEM_COORDINATE_TYPE>
1
5
255
> <PUBCHEM_BONDANNOTATIONS>
4  2  3
$$$$
