521087
  -OEChem-10302200292D
  8  7  0     1  0  0  0  0  0999 V2000
    4.5981    0.7500    0.0000 Br  0  0  0  0  0  0  0  0  0  0  0  0
    2.0000   -0.7500    0.0000 Br  0  0  0  0  0  0  0  0  0  0  0  0
    4.2320   -0.6160    0.0000 Cl  0  0  0  0  0  0  0  0  0  0  0  0
    2.3660    0.6160    0.0000 Cl  0  0  0  0  0  0  0  0  0  0  0  0
    3.2320    1.1160    0.0000 F   0  0  0  0  0  0  0  0  0  0  0  0
    3.3660   -1.1160    0.0000 F   0  0  0  0  0  0  0  0  0  0  0  0
    3.7320    0.2500    0.0000 C   0  0  3  0  0  0  0  0  0  0  0  0
    2.8660   -0.2500    0.0000 C   0  0  3  0  0  0  0  0  0  0  0  0
  1  7  1  0  0  0  0
  2  8  1  0  0  0  0
  3  7  1  0  0  0  0
  4  8  1  0  0  0  0
  5  7  1  0  0  0  0
  6  8  1  0  0  0  0
  7  8  1  0  0  0  0
M  END
> <PUBCHEM_COMPOUND_CID>
521087
> <PUBCHEM_COMPOUND_CANONICALIZED>
1
> <PUBCHEM_CACTVS_COMPLEXITY>
90
> <PUBCHEM_CACTVS_HBOND_ACCEPTOR>
2
> <PUBCHEM_CACTVS_HBOND_DONOR>
0
> <PUBCHEM_CACTVS_ROTATABLE_BOND>
1
> <PUBCHEM_CACTVS_SUBSKEYS>
AAADcQBAAYAGGAAAAAAAAAAAAAAAAAAAAAAAAAAAAAAAAAAAAAAACQJAAAABAAIAAAAAAAAAAAAAAAAAAAAAAAAAAAAAAEAAAAAAAAAAAAAAAAAAAAAAAAAAAAAAAAAAAAAAAAAAAAAAAAAAAAAAAAAAAA==
> <PUBCHEM_IUPAC_OPENEYE_NAME>
1,2-dibromo-1,2-dichloro-1,2-difluoro-ethane
> <PUBCHEM_IUPAC_CAS_NAME>
1,2-dibromo-1,2-dichloro-1,2-difluoroethane
> <PUBCHEM_IUPAC_NAME_MARKUP>
1,2-dibromo-1,2-dichloro-1,2-difluoroethane
> <PUBCHEM_IUPAC_NAME>
1,2-dibromo-1,2-dichloro-1,2-difluoroethane
> <PUBCHEM_IUPAC_SYSTEMATIC_NAME>
1,2-bis(bromanyl)-1,2-bis(chloranyl)-1,2-bis(fluoranyl)ethane
> <PUBCHEM_IUPAC_TRADITIONAL_NAME>
1,2-dibromo-1,2-dichloro-1,2-difluoro-ethane
> <PUBCHEM_IUPAC_INCHI>
InChI=1S/C2Br2Cl2F2/c3-1(5,7)2(4,6)8
> <PUBCHEM_IUPAC_INCHIKEY>
RPMZQJWSCXMMBE-UHFFFAOYSA-N
> <PUBCHEM_XLOGP3_AA>
3.8
> <PUBCHEM_EXACT_MASS>
291.76914
> <PUBCHEM_MOLECULAR_FORMULA>
C2Br2Cl2F2
> <PUBCHEM_MOLECULAR_WEIGHT>
292.73
> <PUBCHEM_OPENEYE_CAN_SMILES>
C(C(F)(Cl)Br)(F)(Cl)Br
> <PUBCHEM_OPENEYE_ISO_SMILES>
C(C(F)(Cl)Br)(F)(Cl)Br
> <PUBCHEM_CACTVS_TPSA>
0
> <PUBCHEM_MONOISOTOPIC_WEIGHT>
289.77119
> <PUBCHEM_TOTAL_CHARGE>
0
> <PUBCHEM_HEAVY_ATOM_COUNT>
8
> <PUBCHEM_ATOM_DEF_STEREO_COUNT>
0
> <PUBCHEM_ATOM_UDEF_STEREO_COUNT>
2
> <PUBCHEM_BOND_DEF_STEREO_COUNT>
0
> <PUBCHEM_BOND_UDEF_STEREO_COUNT>
0
> <PUBCHEM_ISOTOPIC_ATOM_COUNT>
0
> <PUBCHEM_COMPONENT_COUNT>
1
> <PUBCHEM_CACTVS_TAUTO_COUNT>
-1
> <PUBCHEM_COORDINATE_TYPE>
1
5
255
> <PUBCHEM_BONDANNOTATIONS>
7  5  3
8  7  3
$$$$
