521056
  -OEChem-10302200292D
 42 45  0     1  0  0  0  0  0999 V2000
    9.5141    2.1767    0.0000 O   0  0  0  0  0  0  0  0  0  0  0  0
    2.8641   -2.1309    0.0000 O   0  0  0  0  0  0  0  0  0  0  0  0
    8.2572   -0.0785    0.0000 C   0  0  3  0  0  0  0  0  0  0  0  0
    7.3912   -0.5785    0.0000 C   0  0  3  0  0  0  0  0  0  0  0  0
    8.2572    0.9215    0.0000 C   0  0  3  0  0  0  0  0  0  0  0  0
    6.5251   -0.0785    0.0000 C   0  0  3  0  0  0  0  0  0  0  0  0
    7.3912    1.4215    0.0000 C   0  0  0  0  0  0  0  0  0  0  0  0
    6.5251    0.9215    0.0000 C   0  0  0  0  0  0  0  0  0  0  0  0
    9.2034   -0.3833    0.0000 C   0  0  0  0  0  0  0  0  0  0  0  0
    7.4072   -1.6200    0.0000 C   0  0  0  0  0  0  0  0  0  0  0  0
    9.7870    0.4215    0.0000 C   0  0  0  0  0  0  0  0  0  0  0  0
    9.2034    1.2262    0.0000 C   0  0  0  0  0  0  0  0  0  0  0  0
    5.6151   -0.5854    0.0000 C   0  0  0  0  0  0  0  0  0  0  0  0
    6.5092   -2.1478    0.0000 C   0  0  0  0  0  0  0  0  0  0  0  0
    5.6071   -1.6270    0.0000 C   0  0  0  0  0  0  0  0  0  0  0  0
    4.6883   -0.0213    0.0000 C   0  0  0  0  0  0  0  0  0  0  0  0
    4.6717   -2.1767    0.0000 C   0  0  0  0  0  0  0  0  0  0  0  0
    3.7404   -0.5493    0.0000 C   0  0  0  0  0  0  0  0  0  0  0  0
    3.7320   -1.6342    0.0000 C   0  0  0  0  0  0  0  0  0  0  0  0
    2.0000   -1.6275    0.0000 C   0  0  0  0  0  0  0  0  0  0  0  0
    8.3228   -0.6951    0.0000 H   0  0  0  0  0  0  0  0  0  0  0  0
    7.9305   -0.8844    0.0000 H   0  0  0  0  0  0  0  0  0  0  0  0
    8.3228    1.5380    0.0000 H   0  0  0  0  0  0  0  0  0  0  0  0
    7.0621    0.2315    0.0000 H   0  0  0  0  0  0  0  0  0  0  0  0
    7.7897    1.8964    0.0000 H   0  0  0  0  0  0  0  0  0  0  0  0
    6.9926    1.8964    0.0000 H   0  0  0  0  0  0  0  0  0  0  0  0
    6.3131    1.5041    0.0000 H   0  0  0  0  0  0  0  0  0  0  0  0
    5.9145    0.8138    0.0000 H   0  0  0  0  0  0  0  0  0  0  0  0
    8.9524   -0.9502    0.0000 H   0  0  0  0  0  0  0  0  0  0  0  0
    9.7408   -0.6925    0.0000 H   0  0  0  0  0  0  0  0  0  0  0  0
    7.6252   -2.2004    0.0000 H   0  0  0  0  0  0  0  0  0  0  0  0
    8.0164   -1.5046    0.0000 H   0  0  0  0  0  0  0  0  0  0  0  0
   10.2479    0.0067    0.0000 H   0  0  0  0  0  0  0  0  0  0  0  0
   10.2479    0.8362    0.0000 H   0  0  0  0  0  0  0  0  0  0  0  0
    6.1119   -2.6238    0.0000 H   0  0  0  0  0  0  0  0  0  0  0  0
    6.9101   -2.6207    0.0000 H   0  0  0  0  0  0  0  0  0  0  0  0
    4.7002    0.5986    0.0000 H   0  0  0  0  0  0  0  0  0  0  0  0
    4.6741   -2.7967    0.0000 H   0  0  0  0  0  0  0  0  0  0  0  0
    3.2071   -0.2331    0.0000 H   0  0  0  0  0  0  0  0  0  0  0  0
    2.3121   -1.0918    0.0000 H   0  0  0  0  0  0  0  0  0  0  0  0
    1.4643   -1.3155    0.0000 H   0  0  0  0  0  0  0  0  0  0  0  0
    1.6879   -2.1633    0.0000 H   0  0  0  0  0  0  0  0  0  0  0  0
  1 12  2  0  0  0  0
  2 19  1  0  0  0  0
  2 20  1  0  0  0  0
  3  4  1  0  0  0  0
  3  5  1  0  0  0  0
  3  9  1  0  0  0  0
  3 21  1  0  0  0  0
  4  6  1  0  0  0  0
  4 10  1  0  0  0  0
  4 22  1  0  0  0  0
  5  7  1  0  0  0  0
  5 12  1  0  0  0  0
  5 23  1  0  0  0  0
  6  8  1  0  0  0  0
  6 13  1  0  0  0  0
  6 24  1  0  0  0  0
  7  8  1  0  0  0  0
  7 25  1  0  0  0  0
  7 26  1  0  0  0  0
  8 27  1  0  0  0  0
  8 28  1  0  0  0  0
  9 11  1  0  0  0  0
  9 29  1  0  0  0  0
  9 30  1  0  0  0  0
 10 14  1  0  0  0  0
 10 31  1  0  0  0  0
 10 32  1  0  0  0  0
 11 12  1  0  0  0  0
 11 33  1  0  0  0  0
 11 34  1  0  0  0  0
 13 15  2  0  0  0  0
 13 16  1  0  0  0  0
 14 15  1  0  0  0  0
 14 35  1  0  0  0  0
 14 36  1  0  0  0  0
 15 17  1  0  0  0  0
 16 18  2  0  0  0  0
 16 37  1  0  0  0  0
 17 19  2  0  0  0  0
 17 38  1  0  0  0  0
 18 19  1  0  0  0  0
 18 39  1  0  0  0  0
 20 40  1  0  0  0  0
 20 41  1  0  0  0  0
 20 42  1  0  0  0  0
M  END
> <PUBCHEM_COMPOUND_CID>
521056
> <PUBCHEM_COMPOUND_CANONICALIZED>
1
> <PUBCHEM_CACTVS_COMPLEXITY>
391
> <PUBCHEM_CACTVS_HBOND_ACCEPTOR>
2
> <PUBCHEM_CACTVS_HBOND_DONOR>
0
> <PUBCHEM_CACTVS_ROTATABLE_BOND>
1
> <PUBCHEM_CACTVS_SUBSKEYS>
AAADceB4MAAAAAAAAAAAAAAAAAAAAYAAAAAwYMAAAAAAAGDBAAAAGgAAAAAADQSAmAIyBoAABACIAqBSAAACCAAgIAAIiAEGCIgMJjKEMRqAMCAkwBEIqAeIyPCOoAABAAAQAADAAAYAACAAAAAACAAAAA==
> <PUBCHEM_IUPAC_OPENEYE_NAME>
3-methoxy-6,7,8,9,11,12,13,14,15,16-decahydrocyclopenta[a]phenanthren-17-one
> <PUBCHEM_IUPAC_CAS_NAME>
3-methoxy-6,7,8,9,11,12,13,14,15,16-decahydrocyclopenta[a]phenanthren-17-one
> <PUBCHEM_IUPAC_NAME_MARKUP>
3-methoxy-6,7,8,9,11,12,13,14,15,16-decahydrocyclopenta[a]phenanthren-17-one
> <PUBCHEM_IUPAC_NAME>
3-methoxy-6,7,8,9,11,12,13,14,15,16-decahydrocyclopenta[a]phenanthren-17-one
> <PUBCHEM_IUPAC_SYSTEMATIC_NAME>
3-methoxy-6,7,8,9,11,12,13,14,15,16-decahydrocyclopenta[a]phenanthren-17-one
> <PUBCHEM_IUPAC_TRADITIONAL_NAME>
3-methoxy-6,7,8,9,11,12,13,14,15,16-decahydrocyclopenta[a]phenanthren-17-one
> <PUBCHEM_IUPAC_INCHI>
InChI=1S/C18H22O2/c1-20-12-3-5-13-11(10-12)2-4-15-14(13)6-7-17-16(15)8-9-18(17)19/h3,5,10,14-17H,2,4,6-9H2,1H3
> <PUBCHEM_IUPAC_INCHIKEY>
GDDDQTOBTQTTJD-UHFFFAOYSA-N
> <PUBCHEM_XLOGP3_AA>
3.6
> <PUBCHEM_EXACT_MASS>
270.161979940
> <PUBCHEM_MOLECULAR_FORMULA>
C18H22O2
> <PUBCHEM_MOLECULAR_WEIGHT>
270.4
> <PUBCHEM_OPENEYE_CAN_SMILES>
COC1=CC2=C(C=C1)C3CCC4C(C3CC2)CCC4=O
> <PUBCHEM_OPENEYE_ISO_SMILES>
COC1=CC2=C(C=C1)C3CCC4C(C3CC2)CCC4=O
> <PUBCHEM_CACTVS_TPSA>
26.3
> <PUBCHEM_MONOISOTOPIC_WEIGHT>
270.161979940
> <PUBCHEM_TOTAL_CHARGE>
0
> <PUBCHEM_HEAVY_ATOM_COUNT>
20
> <PUBCHEM_ATOM_DEF_STEREO_COUNT>
0
> <PUBCHEM_ATOM_UDEF_STEREO_COUNT>
4
> <PUBCHEM_BOND_DEF_STEREO_COUNT>
0
> <PUBCHEM_BOND_UDEF_STEREO_COUNT>
0
> <PUBCHEM_ISOTOPIC_ATOM_COUNT>
0
> <PUBCHEM_COMPONENT_COUNT>
1
> <PUBCHEM_CACTVS_TAUTO_COUNT>
-1
> <PUBCHEM_COORDINATE_TYPE>
1
5
255
> <PUBCHEM_BONDANNOTATIONS>
13  15  8
13  16  8
15  17  8
16  18  8
17  19  8
18  19  8
3  9  3
4  10  3
5  7  3
6  8  3
$$$$
