521052
  -OEChem-10302200292D
 19 17  0     1  0  0  0  0  0999 V2000
    1.3360    0.0000    0.0000 Cl  0  0  0  0  0  0  0  0  0  0  0  0
    0.5369    4.6200    0.0000 S   0  0  0  0  0  0  0  0  0  0  0  0
    3.1350    4.1200    0.0000 N   0  0  0  0  0  0  0  0  0  0  0  0
    2.2690    4.6200    0.0000 C   0  0  3  0  0  0  0  0  0  0  0  0
    1.4030    4.1200    0.0000 C   0  0  3  0  0  0  0  0  0  0  0  0
    2.2690    5.6200    0.0000 C   0  0  0  0  0  0  0  0  0  0  0  0
    1.4030    3.1200    0.0000 C   0  0  0  0  0  0  0  0  0  0  0  0
    2.8059    4.9300    0.0000 H   0  0  0  0  0  0  0  0  0  0  0  0
    0.8660    3.8100    0.0000 H   0  0  0  0  0  0  0  0  0  0  0  0
    2.8890    5.6200    0.0000 H   0  0  0  0  0  0  0  0  0  0  0  0
    2.2690    6.2400    0.0000 H   0  0  0  0  0  0  0  0  0  0  0  0
    1.6490    5.6200    0.0000 H   0  0  0  0  0  0  0  0  0  0  0  0
    0.7830    3.1200    0.0000 H   0  0  0  0  0  0  0  0  0  0  0  0
    1.4030    2.5000    0.0000 H   0  0  0  0  0  0  0  0  0  0  0  0
    2.0230    3.1200    0.0000 H   0  0  0  0  0  0  0  0  0  0  0  0
    3.6720    4.4300    0.0000 H   0  0  0  0  0  0  0  0  0  0  0  0
    3.1350    3.5000    0.0000 H   0  0  0  0  0  0  0  0  0  0  0  0
    0.0000    4.3100    0.0000 H   0  0  0  0  0  0  0  0  0  0  0  0
    2.3360    0.0000    0.0000 H   0  0  0  0  0  0  0  0  0  0  0  0
  1 19  1  0  0  0  0
  2  5  1  0  0  0  0
  2 18  1  0  0  0  0
  3  4  1  0  0  0  0
  3 16  1  0  0  0  0
  3 17  1  0  0  0  0
  4  5  1  0  0  0  0
  4  6  1  0  0  0  0
  4  8  1  0  0  0  0
  5  7  1  0  0  0  0
  5  9  1  0  0  0  0
  6 10  1  0  0  0  0
  6 11  1  0  0  0  0
  6 12  1  0  0  0  0
  7 13  1  0  0  0  0
  7 14  1  0  0  0  0
  7 15  1  0  0  0  0
M  END
> <PUBCHEM_COMPOUND_CID>
521052
> <PUBCHEM_COMPOUND_CANONICALIZED>
1
> <PUBCHEM_CACTVS_COMPLEXITY>
38.5
> <PUBCHEM_CACTVS_HBOND_ACCEPTOR>
2
> <PUBCHEM_CACTVS_HBOND_DONOR>
3
> <PUBCHEM_CACTVS_ROTATABLE_BOND>
1
> <PUBCHEM_CACTVS_SUBSKEYS>
AAADccBiAABEAAAAAAAAAAAAAAAAAAAAAAAAAAAAAAAAAAAAAAAAHAQQAAAACCjFQASCAABAAAQAAAAAAAAAAAAAAAAAAIAAAAAAAAAAAAAAAAAAEAAAAAAAAAAAAAAAAAAAAAAAAAAAAAAAAAAAAAAAAA==
> <PUBCHEM_IUPAC_OPENEYE_NAME>
3-aminobutane-2-thiol;hydrochloride
> <PUBCHEM_IUPAC_CAS_NAME>
3-amino-2-butanethiol;hydrochloride
> <PUBCHEM_IUPAC_NAME_MARKUP>
3-aminobutane-2-thiol;hydrochloride
> <PUBCHEM_IUPAC_NAME>
3-aminobutane-2-thiol;hydrochloride
> <PUBCHEM_IUPAC_SYSTEMATIC_NAME>
3-azanylbutane-2-thiol;hydrochloride
> <PUBCHEM_IUPAC_TRADITIONAL_NAME>
3-aminobutane-2-thiol;hydrochloride
> <PUBCHEM_IUPAC_INCHI>
InChI=1S/C4H11NS.ClH/c1-3(5)4(2)6;/h3-4,6H,5H2,1-2H3;1H
> <PUBCHEM_IUPAC_INCHIKEY>
FYECVZUEIXYVRJ-UHFFFAOYSA-N
> <PUBCHEM_EXACT_MASS>
141.0378983
> <PUBCHEM_MOLECULAR_FORMULA>
C4H12ClNS
> <PUBCHEM_MOLECULAR_WEIGHT>
141.66
> <PUBCHEM_OPENEYE_CAN_SMILES>
CC(C(C)S)N.Cl
> <PUBCHEM_OPENEYE_ISO_SMILES>
CC(C(C)S)N.Cl
> <PUBCHEM_CACTVS_TPSA>
27
> <PUBCHEM_MONOISOTOPIC_WEIGHT>
141.0378983
> <PUBCHEM_TOTAL_CHARGE>
0
> <PUBCHEM_HEAVY_ATOM_COUNT>
7
> <PUBCHEM_ATOM_DEF_STEREO_COUNT>
0
> <PUBCHEM_ATOM_UDEF_STEREO_COUNT>
2
> <PUBCHEM_BOND_DEF_STEREO_COUNT>
0
> <PUBCHEM_BOND_UDEF_STEREO_COUNT>
0
> <PUBCHEM_ISOTOPIC_ATOM_COUNT>
0
> <PUBCHEM_COMPONENT_COUNT>
2
> <PUBCHEM_CACTVS_TAUTO_COUNT>
-1
> <PUBCHEM_COORDINATE_TYPE>
1
5
255
> <PUBCHEM_BONDANNOTATIONS>
5  2  3
4  3  3
$$$$
