521097
  -OEChem-10302200292D
 31 31  0     1  0  0  0  0  0999 V2000
    7.8916   -0.8341    0.0000 S   0  0  0  0  0  0  0  0  0  0  0  0
    8.3916    0.7048    0.0000 N   0  0  0  0  0  0  0  0  0  0  0  0
    6.1316   -0.5553    0.0000 C   0  0  0  0  0  0  0  0  0  0  0  0
    7.0826   -0.2463    0.0000 C   0  0  3  0  0  0  0  0  0  0  0  0
    5.3884    0.1138    0.0000 C   0  0  0  0  0  0  0  0  0  0  0  0
    4.4374   -0.1952    0.0000 C   0  0  0  0  0  0  0  0  0  0  0  0
    3.6942    0.4739    0.0000 C   0  0  0  0  0  0  0  0  0  0  0  0
    7.3916    0.7048    0.0000 C   0  0  0  0  0  0  0  0  0  0  0  0
    2.7431    0.1649    0.0000 C   0  0  0  0  0  0  0  0  0  0  0  0
    8.7006   -0.2463    0.0000 C   0  0  0  0  0  0  0  0  0  0  0  0
    2.0000    0.8341    0.0000 C   0  0  0  0  0  0  0  0  0  0  0  0
    9.6517   -0.5553    0.0000 C   0  0  0  0  0  0  0  0  0  0  0  0
    5.6430   -0.9370    0.0000 H   0  0  0  0  0  0  0  0  0  0  0  0
    6.4226   -1.1027    0.0000 H   0  0  0  0  0  0  0  0  0  0  0  0
    6.9856   -0.8586    0.0000 H   0  0  0  0  0  0  0  0  0  0  0  0
    5.8770    0.4955    0.0000 H   0  0  0  0  0  0  0  0  0  0  0  0
    5.0973    0.6613    0.0000 H   0  0  0  0  0  0  0  0  0  0  0  0
    3.9488   -0.5769    0.0000 H   0  0  0  0  0  0  0  0  0  0  0  0
    4.7284   -0.7426    0.0000 H   0  0  0  0  0  0  0  0  0  0  0  0
    4.1828    0.8557    0.0000 H   0  0  0  0  0  0  0  0  0  0  0  0
    3.4031    1.0214    0.0000 H   0  0  0  0  0  0  0  0  0  0  0  0
    7.4564    1.3214    0.0000 H   0  0  0  0  0  0  0  0  0  0  0  0
    6.7852    0.8337    0.0000 H   0  0  0  0  0  0  0  0  0  0  0  0
    2.2546   -0.2168    0.0000 H   0  0  0  0  0  0  0  0  0  0  0  0
    3.0342   -0.3825    0.0000 H   0  0  0  0  0  0  0  0  0  0  0  0
    2.4149    1.2948    0.0000 H   0  0  0  0  0  0  0  0  0  0  0  0
    1.5392    1.2489    0.0000 H   0  0  0  0  0  0  0  0  0  0  0  0
    1.5851    0.3733    0.0000 H   0  0  0  0  0  0  0  0  0  0  0  0
    9.4601   -1.1450    0.0000 H   0  0  0  0  0  0  0  0  0  0  0  0
   10.2413   -0.7469    0.0000 H   0  0  0  0  0  0  0  0  0  0  0  0
    9.8433    0.0344    0.0000 H   0  0  0  0  0  0  0  0  0  0  0  0
  1  4  1  0  0  0  0
  1 10  1  0  0  0  0
  2  8  1  0  0  0  0
  2 10  2  0  0  0  0
  3  4  1  0  0  0  0
  3  5  1  0  0  0  0
  3 13  1  0  0  0  0
  3 14  1  0  0  0  0
  4  8  1  0  0  0  0
  4 15  1  0  0  0  0
  5  6  1  0  0  0  0
  5 16  1  0  0  0  0
  5 17  1  0  0  0  0
  6  7  1  0  0  0  0
  6 18  1  0  0  0  0
  6 19  1  0  0  0  0
  7  9  1  0  0  0  0
  7 20  1  0  0  0  0
  7 21  1  0  0  0  0
  8 22  1  0  0  0  0
  8 23  1  0  0  0  0
  9 11  1  0  0  0  0
  9 24  1  0  0  0  0
  9 25  1  0  0  0  0
 10 12  1  0  0  0  0
 11 26  1  0  0  0  0
 11 27  1  0  0  0  0
 11 28  1  0  0  0  0
 12 29  1  0  0  0  0
 12 30  1  0  0  0  0
 12 31  1  0  0  0  0
M  END
> <PUBCHEM_COMPOUND_CID>
521097
> <PUBCHEM_COMPOUND_CANONICALIZED>
1
> <PUBCHEM_CACTVS_COMPLEXITY>
154
> <PUBCHEM_CACTVS_HBOND_ACCEPTOR>
2
> <PUBCHEM_CACTVS_HBOND_DONOR>
0
> <PUBCHEM_CACTVS_ROTATABLE_BOND>
5
> <PUBCHEM_CACTVS_SUBSKEYS>
AAADceByAABAAAAAAAAAAAAAAAAAAQAAAAAAAAAAAAAAAAAAAAAAHAQAAAAACADFQASCAAIAAAggAAAgBAAAEAAAABAAAAAQAAAAAAIggAAAAAAAAAAgAAEQgIAAAAAAAAAAAAAAAAAAAAAAAAAAAAAAAA==
> <PUBCHEM_IUPAC_OPENEYE_NAME>
5-hexyl-2-methyl-4,5-dihydrothiazole
> <PUBCHEM_IUPAC_CAS_NAME>
5-hexyl-2-methyl-4,5-dihydrothiazole
> <PUBCHEM_IUPAC_NAME_MARKUP>
5-hexyl-2-methyl-4,5-dihydro-1,3-thiazole
> <PUBCHEM_IUPAC_NAME>
5-hexyl-2-methyl-4,5-dihydro-1,3-thiazole
> <PUBCHEM_IUPAC_SYSTEMATIC_NAME>
5-hexyl-2-methyl-4,5-dihydro-1,3-thiazole
> <PUBCHEM_IUPAC_TRADITIONAL_NAME>
5-hexyl-2-methyl-2-thiazoline
> <PUBCHEM_IUPAC_INCHI>
InChI=1S/C10H19NS/c1-3-4-5-6-7-10-8-11-9(2)12-10/h10H,3-8H2,1-2H3
> <PUBCHEM_IUPAC_INCHIKEY>
BUBSYCCYAVDAIT-UHFFFAOYSA-N
> <PUBCHEM_XLOGP3_AA>
3.3
> <PUBCHEM_EXACT_MASS>
185.12382078
> <PUBCHEM_MOLECULAR_FORMULA>
C10H19NS
> <PUBCHEM_MOLECULAR_WEIGHT>
185.33
> <PUBCHEM_OPENEYE_CAN_SMILES>
CCCCCCC1CN=C(S1)C
> <PUBCHEM_OPENEYE_ISO_SMILES>
CCCCCCC1CN=C(S1)C
> <PUBCHEM_CACTVS_TPSA>
37.7
> <PUBCHEM_MONOISOTOPIC_WEIGHT>
185.12382078
> <PUBCHEM_TOTAL_CHARGE>
0
> <PUBCHEM_HEAVY_ATOM_COUNT>
12
> <PUBCHEM_ATOM_DEF_STEREO_COUNT>
0
> <PUBCHEM_ATOM_UDEF_STEREO_COUNT>
1
> <PUBCHEM_BOND_DEF_STEREO_COUNT>
0
> <PUBCHEM_BOND_UDEF_STEREO_COUNT>
0
> <PUBCHEM_ISOTOPIC_ATOM_COUNT>
0
> <PUBCHEM_COMPONENT_COUNT>
1
> <PUBCHEM_CACTVS_TAUTO_COUNT>
-1
> <PUBCHEM_COORDINATE_TYPE>
1
5
255
> <PUBCHEM_BONDANNOTATIONS>
4  3  3
$$$$
