521066
  -OEChem-10302200292D
 34 35  0     1  0  0  0  0  0999 V2000
    4.6260   -1.2177    0.0000 O   0  0  0  0  0  0  0  0  0  0  0  0
    2.8660    0.8170    0.0000 C   0  0  0  0  0  0  0  0  0  0  0  0
    3.7320   -0.6830    0.0000 C   0  0  3  0  0  0  0  0  0  0  0  0
    3.7320    0.3170    0.0000 C   0  0  0  0  0  0  0  0  0  0  0  0
    2.0000    0.3170    0.0000 C   0  0  0  0  0  0  0  0  0  0  0  0
    5.5321   -0.7038    0.0000 C   0  0  3  0  0  0  0  0  0  0  0  0
    4.6260    0.8516    0.0000 C   0  0  0  0  0  0  0  0  0  0  0  0
    2.8660   -1.1830    0.0000 C   0  0  0  0  0  0  0  0  0  0  0  0
    5.5321    0.3378    0.0000 C   0  0  0  0  0  0  0  0  0  0  0  0
    2.3660    1.6830    0.0000 C   0  0  0  0  0  0  0  0  0  0  0  0
    3.3660    1.6830    0.0000 C   0  0  0  0  0  0  0  0  0  0  0  0
    2.0000   -0.6830    0.0000 C   0  0  0  0  0  0  0  0  0  0  0  0
    3.7320   -1.6830    0.0000 C   0  0  0  0  0  0  0  0  0  0  0  0
    6.3961   -1.2072    0.0000 C   0  0  0  0  0  0  0  0  0  0  0  0
    1.7880    0.8996    0.0000 H   0  0  0  0  0  0  0  0  0  0  0  0
    1.3894    0.2093    0.0000 H   0  0  0  0  0  0  0  0  0  0  0  0
    5.5285   -1.3238    0.0000 H   0  0  0  0  0  0  0  0  0  0  0  0
    4.6188    1.4716    0.0000 H   0  0  0  0  0  0  0  0  0  0  0  0
    2.8660   -1.8030    0.0000 H   0  0  0  0  0  0  0  0  0  0  0  0
    6.1429    0.2317    0.0000 H   0  0  0  0  0  0  0  0  0  0  0  0
    5.7411    0.9215    0.0000 H   0  0  0  0  0  0  0  0  0  0  0  0
    2.9030    1.9930    0.0000 H   0  0  0  0  0  0  0  0  0  0  0  0
    2.0560    2.2200    0.0000 H   0  0  0  0  0  0  0  0  0  0  0  0
    1.8291    1.3730    0.0000 H   0  0  0  0  0  0  0  0  0  0  0  0
    3.9030    1.3730    0.0000 H   0  0  0  0  0  0  0  0  0  0  0  0
    3.6760    2.2200    0.0000 H   0  0  0  0  0  0  0  0  0  0  0  0
    2.8291    1.9930    0.0000 H   0  0  0  0  0  0  0  0  0  0  0  0
    1.4631   -0.9930    0.0000 H   0  0  0  0  0  0  0  0  0  0  0  0
    3.1120   -1.6830    0.0000 H   0  0  0  0  0  0  0  0  0  0  0  0
    3.7320   -2.3030    0.0000 H   0  0  0  0  0  0  0  0  0  0  0  0
    4.3520   -1.6830    0.0000 H   0  0  0  0  0  0  0  0  0  0  0  0
    6.0841   -1.7429    0.0000 H   0  0  0  0  0  0  0  0  0  0  0  0
    6.9319   -1.5192    0.0000 H   0  0  0  0  0  0  0  0  0  0  0  0
    6.7082   -0.6714    0.0000 H   0  0  0  0  0  0  0  0  0  0  0  0
  1  3  1  0  0  0  0
  1  6  1  0  0  0  0
  2  4  1  0  0  0  0
  2  5  1  0  0  0  0
  2 10  1  0  0  0  0
  2 11  1  0  0  0  0
  3  4  1  0  0  0  0
  3  8  1  0  0  0  0
  3 13  1  0  0  0  0
  4  7  2  0  0  0  0
  5 12  1  0  0  0  0
  5 15  1  0  0  0  0
  5 16  1  0  0  0  0
  6  9  1  0  0  0  0
  6 14  1  0  0  0  0
  6 17  1  0  0  0  0
  7  9  1  0  0  0  0
  7 18  1  0  0  0  0
  8 12  2  0  0  0  0
  8 19  1  0  0  0  0
  9 20  1  0  0  0  0
  9 21  1  0  0  0  0
 10 22  1  0  0  0  0
 10 23  1  0  0  0  0
 10 24  1  0  0  0  0
 11 25  1  0  0  0  0
 11 26  1  0  0  0  0
 11 27  1  0  0  0  0
 12 28  1  0  0  0  0
 13 29  1  0  0  0  0
 13 30  1  0  0  0  0
 13 31  1  0  0  0  0
 14 32  1  0  0  0  0
 14 33  1  0  0  0  0
 14 34  1  0  0  0  0
M  END
> <PUBCHEM_COMPOUND_CID>
521066
> <PUBCHEM_COMPOUND_CANONICALIZED>
1
> <PUBCHEM_CACTVS_COMPLEXITY>
298
> <PUBCHEM_CACTVS_HBOND_ACCEPTOR>
1
> <PUBCHEM_CACTVS_HBOND_DONOR>
0
> <PUBCHEM_CACTVS_ROTATABLE_BOND>
0
> <PUBCHEM_CACTVS_SUBSKEYS>
AAADceBwIAAAAAAAAAAAAAAAAAAAAAAAAAAgQAAAAAAAAACAAAAAGgAAAAAADlSggAICAAAABACAAiBCAAAAAAAgAAAICAAAAAgABAIAIQACEAAEwAAIIAOAAAAPAAAAAAAAAAAAAAAAAAAAAAAAAAAAAA==
> <PUBCHEM_IUPAC_OPENEYE_NAME>
2,5,5,8a-tetramethyl-3,6-dihydro-2H-chromene
> <PUBCHEM_IUPAC_CAS_NAME>
2,5,5,8a-tetramethyl-3,6-dihydro-2H-1-benzopyran
> <PUBCHEM_IUPAC_NAME_MARKUP>
2,5,5,8<I>a</I>-tetramethyl-3,6-dihydro-2<I>H</I>-chromene
> <PUBCHEM_IUPAC_NAME>
2,5,5,8a-tetramethyl-3,6-dihydro-2H-chromene
> <PUBCHEM_IUPAC_SYSTEMATIC_NAME>
2,5,5,8a-tetramethyl-3,6-dihydro-2H-chromene
> <PUBCHEM_IUPAC_TRADITIONAL_NAME>
2,5,5,8a-tetramethyl-3,6-dihydro-2H-chromene
> <PUBCHEM_IUPAC_INCHI>
InChI=1S/C13H20O/c1-10-6-7-11-12(2,3)8-5-9-13(11,4)14-10/h5,7,9-10H,6,8H2,1-4H3
> <PUBCHEM_IUPAC_INCHIKEY>
HUXGOQHTDHIKSS-UHFFFAOYSA-N
> <PUBCHEM_XLOGP3_AA>
3
> <PUBCHEM_EXACT_MASS>
192.151415257
> <PUBCHEM_MOLECULAR_FORMULA>
C13H20O
> <PUBCHEM_MOLECULAR_WEIGHT>
192.30
> <PUBCHEM_OPENEYE_CAN_SMILES>
CC1CC=C2C(CC=CC2(O1)C)(C)C
> <PUBCHEM_OPENEYE_ISO_SMILES>
CC1CC=C2C(CC=CC2(O1)C)(C)C
> <PUBCHEM_CACTVS_TPSA>
9.2
> <PUBCHEM_MONOISOTOPIC_WEIGHT>
192.151415257
> <PUBCHEM_TOTAL_CHARGE>
0
> <PUBCHEM_HEAVY_ATOM_COUNT>
14
> <PUBCHEM_ATOM_DEF_STEREO_COUNT>
0
> <PUBCHEM_ATOM_UDEF_STEREO_COUNT>
2
> <PUBCHEM_BOND_DEF_STEREO_COUNT>
0
> <PUBCHEM_BOND_UDEF_STEREO_COUNT>
0
> <PUBCHEM_ISOTOPIC_ATOM_COUNT>
0
> <PUBCHEM_COMPONENT_COUNT>
1
> <PUBCHEM_CACTVS_TAUTO_COUNT>
-1
> <PUBCHEM_COORDINATE_TYPE>
1
5
255
> <PUBCHEM_BONDANNOTATIONS>
3  13  3
6  14  3
$$$$
