521021
  -OEChem-10302200292D
 30 30  0     1  0  0  0  0  0999 V2000
    3.5000   -1.1160    0.0000 O   0  0  0  0  0  0  0  0  0  0  0  0
    7.3660    1.1160    0.0000 O   0  0  0  0  0  0  0  0  0  0  0  0
    5.0000   -1.9820    0.0000 O   0  0  0  0  0  0  0  0  0  0  0  0
    7.3660   -0.6160    0.0000 O   0  0  0  0  0  0  0  0  0  0  0  0
    5.0000    0.7500    0.0000 C   0  0  0  0  0  0  0  0  0  0  0  0
    5.0000   -0.2500    0.0000 C   0  0  3  0  0  0  0  0  0  0  0  0
    5.8660    0.2500    0.0000 C   0  0  3  0  0  0  0  0  0  0  0  0
    4.5000    1.6160    0.0000 C   0  0  0  0  0  0  0  0  0  0  0  0
    4.5000   -1.1160    0.0000 C   0  0  0  0  0  0  0  0  0  0  0  0
    6.8660    0.2500    0.0000 C   0  0  0  0  0  0  0  0  0  0  0  0
    3.0000   -1.9820    0.0000 C   0  0  0  0  0  0  0  0  0  0  0  0
    8.3660    1.1160    0.0000 C   0  0  0  0  0  0  0  0  0  0  0  0
    2.0000   -1.9820    0.0000 C   0  0  0  0  0  0  0  0  0  0  0  0
    8.8660    1.9820    0.0000 C   0  0  0  0  0  0  0  0  0  0  0  0
    4.4011    0.5895    0.0000 H   0  0  0  0  0  0  0  0  0  0  0  0
    4.4011   -0.0895    0.0000 H   0  0  0  0  0  0  0  0  0  0  0  0
    6.0265   -0.3489    0.0000 H   0  0  0  0  0  0  0  0  0  0  0  0
    5.0369    1.9260    0.0000 H   0  0  0  0  0  0  0  0  0  0  0  0
    4.1900    2.1530    0.0000 H   0  0  0  0  0  0  0  0  0  0  0  0
    3.9631    1.3060    0.0000 H   0  0  0  0  0  0  0  0  0  0  0  0
    2.8923   -2.5926    0.0000 H   0  0  0  0  0  0  0  0  0  0  0  0
    3.5826   -2.1941    0.0000 H   0  0  0  0  0  0  0  0  0  0  0  0
    8.2584    0.5054    0.0000 H   0  0  0  0  0  0  0  0  0  0  0  0
    8.9486    0.9040    0.0000 H   0  0  0  0  0  0  0  0  0  0  0  0
    2.0000   -1.3620    0.0000 H   0  0  0  0  0  0  0  0  0  0  0  0
    1.3800   -1.9820    0.0000 H   0  0  0  0  0  0  0  0  0  0  0  0
    2.0000   -2.6021    0.0000 H   0  0  0  0  0  0  0  0  0  0  0  0
    9.4030    1.6720    0.0000 H   0  0  0  0  0  0  0  0  0  0  0  0
    9.1760    2.5190    0.0000 H   0  0  0  0  0  0  0  0  0  0  0  0
    8.3291    2.2920    0.0000 H   0  0  0  0  0  0  0  0  0  0  0  0
  1  9  1  0  0  0  0
  1 11  1  0  0  0  0
  2 10  1  0  0  0  0
  2 12  1  0  0  0  0
  3  9  2  0  0  0  0
  4 10  2  0  0  0  0
  5  6  1  0  0  0  0
  5  7  1  0  0  0  0
  5  8  1  0  0  0  0
  5 15  1  0  0  0  0
  6  7  1  0  0  0  0
  6  9  1  0  0  0  0
  6 16  1  0  0  0  0
  7 10  1  0  0  0  0
  7 17  1  0  0  0  0
  8 18  1  0  0  0  0
  8 19  1  0  0  0  0
  8 20  1  0  0  0  0
 11 13  1  0  0  0  0
 11 21  1  0  0  0  0
 11 22  1  0  0  0  0
 12 14  1  0  0  0  0
 12 23  1  0  0  0  0
 12 24  1  0  0  0  0
 13 25  1  0  0  0  0
 13 26  1  0  0  0  0
 13 27  1  0  0  0  0
 14 28  1  0  0  0  0
 14 29  1  0  0  0  0
 14 30  1  0  0  0  0
M  END
> <PUBCHEM_COMPOUND_CID>
521021
> <PUBCHEM_COMPOUND_CANONICALIZED>
1
> <PUBCHEM_CACTVS_COMPLEXITY>
212
> <PUBCHEM_CACTVS_HBOND_ACCEPTOR>
4
> <PUBCHEM_CACTVS_HBOND_DONOR>
0
> <PUBCHEM_CACTVS_ROTATABLE_BOND>
6
> <PUBCHEM_CACTVS_SUBSKEYS>
AAADceBwOAAAAAAAAAAAAAAAGAAAAAAAAAAAAAAAAAAAAAAAAAAAGgAAAAAADQCggAICCAAABAAIAACQCAAAAAAAAAAAAAEAAAAAABIAAAACAAAEAAAAAADLJggKAAAAAAAAAAAAAAAAAAAAAAAAAAAAAA==
> <PUBCHEM_IUPAC_OPENEYE_NAME>
diethyl 3-methylcyclopropane-1,2-dicarboxylate
> <PUBCHEM_IUPAC_CAS_NAME>
3-methylcyclopropane-1,2-dicarboxylic acid diethyl ester
> <PUBCHEM_IUPAC_NAME_MARKUP>
diethyl 3-methylcyclopropane-1,2-dicarboxylate
> <PUBCHEM_IUPAC_NAME>
diethyl 3-methylcyclopropane-1,2-dicarboxylate
> <PUBCHEM_IUPAC_SYSTEMATIC_NAME>
diethyl 3-methylcyclopropane-1,2-dicarboxylate
> <PUBCHEM_IUPAC_TRADITIONAL_NAME>
3-methylcyclopropane-1,2-dicarboxylic acid diethyl ester
> <PUBCHEM_IUPAC_INCHI>
InChI=1S/C10H16O4/c1-4-13-9(11)7-6(3)8(7)10(12)14-5-2/h6-8H,4-5H2,1-3H3
> <PUBCHEM_IUPAC_INCHIKEY>
IRISXSVBOADFLC-UHFFFAOYSA-N
> <PUBCHEM_XLOGP3_AA>
1.2
> <PUBCHEM_EXACT_MASS>
200.10485899
> <PUBCHEM_MOLECULAR_FORMULA>
C10H16O4
> <PUBCHEM_MOLECULAR_WEIGHT>
200.23
> <PUBCHEM_OPENEYE_CAN_SMILES>
CCOC(=O)C1C(C1C(=O)OCC)C
> <PUBCHEM_OPENEYE_ISO_SMILES>
CCOC(=O)C1C(C1C(=O)OCC)C
> <PUBCHEM_CACTVS_TPSA>
52.6
> <PUBCHEM_MONOISOTOPIC_WEIGHT>
200.10485899
> <PUBCHEM_TOTAL_CHARGE>
0
> <PUBCHEM_HEAVY_ATOM_COUNT>
14
> <PUBCHEM_ATOM_DEF_STEREO_COUNT>
0
> <PUBCHEM_ATOM_UDEF_STEREO_COUNT>
2
> <PUBCHEM_BOND_DEF_STEREO_COUNT>
0
> <PUBCHEM_BOND_UDEF_STEREO_COUNT>
0
> <PUBCHEM_ISOTOPIC_ATOM_COUNT>
0
> <PUBCHEM_COMPONENT_COUNT>
1
> <PUBCHEM_CACTVS_TAUTO_COUNT>
-1
> <PUBCHEM_COORDINATE_TYPE>
1
5
255
> <PUBCHEM_BONDANNOTATIONS>
6  9  3
7  10  3
$$$$
