521126
  -OEChem-10302200292D
 19 19  0     1  0  0  0  0  0999 V2000
    4.5032   -0.7694    0.0000 S   0  0  0  0  0  0  0  0  0  0  0  0
    5.0032    0.7694    0.0000 N   0  0  0  0  0  0  0  0  0  0  0  0
    3.6942   -0.1816    0.0000 C   0  0  3  0  0  0  0  0  0  0  0  0
    2.7431   -0.4907    0.0000 C   0  0  0  0  0  0  0  0  0  0  0  0
    4.0032    0.7694    0.0000 C   0  0  0  0  0  0  0  0  0  0  0  0
    5.3122   -0.1816    0.0000 C   0  0  0  0  0  0  0  0  0  0  0  0
    2.0000    0.1785    0.0000 C   0  0  0  0  0  0  0  0  0  0  0  0
    6.2633   -0.4907    0.0000 C   0  0  0  0  0  0  0  0  0  0  0  0
    3.5972   -0.7940    0.0000 H   0  0  0  0  0  0  0  0  0  0  0  0
    2.2546   -0.8724    0.0000 H   0  0  0  0  0  0  0  0  0  0  0  0
    3.0342   -1.0381    0.0000 H   0  0  0  0  0  0  0  0  0  0  0  0
    4.0680    1.3860    0.0000 H   0  0  0  0  0  0  0  0  0  0  0  0
    3.3968    0.8983    0.0000 H   0  0  0  0  0  0  0  0  0  0  0  0
    2.4149    0.6392    0.0000 H   0  0  0  0  0  0  0  0  0  0  0  0
    1.5392    0.5933    0.0000 H   0  0  0  0  0  0  0  0  0  0  0  0
    1.5851   -0.2823    0.0000 H   0  0  0  0  0  0  0  0  0  0  0  0
    6.0717   -1.0803    0.0000 H   0  0  0  0  0  0  0  0  0  0  0  0
    6.8530   -0.6822    0.0000 H   0  0  0  0  0  0  0  0  0  0  0  0
    6.4549    0.0990    0.0000 H   0  0  0  0  0  0  0  0  0  0  0  0
  1  3  1  0  0  0  0
  1  6  1  0  0  0  0
  2  5  1  0  0  0  0
  2  6  2  0  0  0  0
  3  4  1  0  0  0  0
  3  5  1  0  0  0  0
  3  9  1  0  0  0  0
  4  7  1  0  0  0  0
  4 10  1  0  0  0  0
  4 11  1  0  0  0  0
  5 12  1  0  0  0  0
  5 13  1  0  0  0  0
  6  8  1  0  0  0  0
  7 14  1  0  0  0  0
  7 15  1  0  0  0  0
  7 16  1  0  0  0  0
  8 17  1  0  0  0  0
  8 18  1  0  0  0  0
  8 19  1  0  0  0  0
M  END
> <PUBCHEM_COMPOUND_CID>
521126
> <PUBCHEM_COMPOUND_CANONICALIZED>
1
> <PUBCHEM_CACTVS_COMPLEXITY>
109
> <PUBCHEM_CACTVS_HBOND_ACCEPTOR>
2
> <PUBCHEM_CACTVS_HBOND_DONOR>
0
> <PUBCHEM_CACTVS_ROTATABLE_BOND>
1
> <PUBCHEM_CACTVS_SUBSKEYS>
AAADccBiAABAAAAAAAAAAAAAAAAAAQAAAAAAAAAAAAAAAAAAAAAAHAQAAAAACADFQASCAAIAAAggAAAgBAAAEAAAABAAAAAQAAAAAAAggAAAAAAAAAAgAAAAAAAAAAAAAAAAAAAAAAAAAAAAAAAAAAAAAA==
> <PUBCHEM_IUPAC_OPENEYE_NAME>
5-ethyl-2-methyl-4,5-dihydrothiazole
> <PUBCHEM_IUPAC_CAS_NAME>
5-ethyl-2-methyl-4,5-dihydrothiazole
> <PUBCHEM_IUPAC_NAME_MARKUP>
5-ethyl-2-methyl-4,5-dihydro-1,3-thiazole
> <PUBCHEM_IUPAC_NAME>
5-ethyl-2-methyl-4,5-dihydro-1,3-thiazole
> <PUBCHEM_IUPAC_SYSTEMATIC_NAME>
5-ethyl-2-methyl-4,5-dihydro-1,3-thiazole
> <PUBCHEM_IUPAC_TRADITIONAL_NAME>
5-ethyl-2-methyl-2-thiazoline
> <PUBCHEM_IUPAC_INCHI>
InChI=1S/C6H11NS/c1-3-6-4-7-5(2)8-6/h6H,3-4H2,1-2H3
> <PUBCHEM_IUPAC_INCHIKEY>
WZHHQLRZEQZVSD-UHFFFAOYSA-N
> <PUBCHEM_XLOGP3_AA>
1.3
> <PUBCHEM_EXACT_MASS>
129.06122053
> <PUBCHEM_MOLECULAR_FORMULA>
C6H11NS
> <PUBCHEM_MOLECULAR_WEIGHT>
129.23
> <PUBCHEM_OPENEYE_CAN_SMILES>
CCC1CN=C(S1)C
> <PUBCHEM_OPENEYE_ISO_SMILES>
CCC1CN=C(S1)C
> <PUBCHEM_CACTVS_TPSA>
37.7
> <PUBCHEM_MONOISOTOPIC_WEIGHT>
129.06122053
> <PUBCHEM_TOTAL_CHARGE>
0
> <PUBCHEM_HEAVY_ATOM_COUNT>
8
> <PUBCHEM_ATOM_DEF_STEREO_COUNT>
0
> <PUBCHEM_ATOM_UDEF_STEREO_COUNT>
1
> <PUBCHEM_BOND_DEF_STEREO_COUNT>
0
> <PUBCHEM_BOND_UDEF_STEREO_COUNT>
0
> <PUBCHEM_ISOTOPIC_ATOM_COUNT>
0
> <PUBCHEM_COMPONENT_COUNT>
1
> <PUBCHEM_CACTVS_TAUTO_COUNT>
-1
> <PUBCHEM_COORDINATE_TYPE>
1
5
255
> <PUBCHEM_BONDANNOTATIONS>
3  4  3
$$$$
