521130
  -OEChem-10302200292D
 29 31  0     1  0  0  0  0  0999 V2000
    3.8089   -0.3048    0.0000 C   0  0  3  0  0  0  0  0  0  0  0  0
    2.9428    0.1952    0.0000 C   0  0  3  0  0  0  0  0  0  0  0  0
    3.2863   -1.6952    0.0000 C   0  0  0  0  0  0  0  0  0  0  0  0
    2.0000   -0.9525    0.0000 C   0  0  0  0  0  0  0  0  0  0  0  0
    3.5997   -1.2766    0.0000 C   0  0  0  0  0  0  0  0  0  0  0  0
    2.2058   -0.4719    0.0000 C   0  0  0  0  0  0  0  0  0  0  0  0
    4.6749    0.1952    0.0000 C   0  0  0  0  0  0  0  0  0  0  0  0
    2.9428    1.1952    0.0000 C   0  0  0  0  0  0  0  0  0  0  0  0
    2.6109   -1.3797    0.0000 C   0  0  0  0  0  0  0  0  0  0  0  0
    4.6749    1.1952    0.0000 C   0  0  0  0  0  0  0  0  0  0  0  0
    3.8089    1.6952    0.0000 C   0  0  0  0  0  0  0  0  0  0  0  0
    3.0062   -2.2483    0.0000 H   0  0  0  0  0  0  0  0  0  0  0  0
    3.8539   -1.9447    0.0000 H   0  0  0  0  0  0  0  0  0  0  0  0
    1.5001   -0.5858    0.0000 H   0  0  0  0  0  0  0  0  0  0  0  0
    1.6611   -1.4717    0.0000 H   0  0  0  0  0  0  0  0  0  0  0  0
    3.5988   -1.8966    0.0000 H   0  0  0  0  0  0  0  0  0  0  0  0
    4.2161   -1.3427    0.0000 H   0  0  0  0  0  0  0  0  0  0  0  0
    1.8404    0.0290    0.0000 H   0  0  0  0  0  0  0  0  0  0  0  0
    1.6693   -0.7827    0.0000 H   0  0  0  0  0  0  0  0  0  0  0  0
    4.8869   -0.3874    0.0000 H   0  0  0  0  0  0  0  0  0  0  0  0
    5.2855    0.3029    0.0000 H   0  0  0  0  0  0  0  0  0  0  0  0
    2.7308    1.7778    0.0000 H   0  0  0  0  0  0  0  0  0  0  0  0
    2.3323    1.0875    0.0000 H   0  0  0  0  0  0  0  0  0  0  0  0
    2.0213   -1.5714    0.0000 H   0  0  0  0  0  0  0  0  0  0  0  0
    2.7397   -1.9862    0.0000 H   0  0  0  0  0  0  0  0  0  0  0  0
    5.2855    1.0875    0.0000 H   0  0  0  0  0  0  0  0  0  0  0  0
    4.8869    1.7778    0.0000 H   0  0  0  0  0  0  0  0  0  0  0  0
    4.2074    2.1701    0.0000 H   0  0  0  0  0  0  0  0  0  0  0  0
    3.4103    2.1701    0.0000 H   0  0  0  0  0  0  0  0  0  0  0  0
  1  2  1  0  0  0  0
  1  3  1  0  0  0  0
  1  5  1  0  0  0  0
  1  7  1  0  0  0  0
  2  4  1  0  0  0  0
  2  6  1  0  0  0  0
  2  8  1  0  0  0  0
  3  4  1  0  0  0  0
  3 12  1  0  0  0  0
  3 13  1  0  0  0  0
  4 14  1  0  0  0  0
  4 15  1  0  0  0  0
  5  9  1  0  0  0  0
  5 16  1  0  0  0  0
  5 17  1  0  0  0  0
  6  9  1  0  0  0  0
  6 18  1  0  0  0  0
  6 19  1  0  0  0  0
  7 10  1  0  0  0  0
  7 20  1  0  0  0  0
  7 21  1  0  0  0  0
  8 11  1  0  0  0  0
  8 22  1  0  0  0  0
  8 23  1  0  0  0  0
  9 24  1  0  0  0  0
  9 25  1  0  0  0  0
 10 11  1  0  0  0  0
 10 26  1  0  0  0  0
 10 27  1  0  0  0  0
 11 28  1  0  0  0  0
 11 29  1  0  0  0  0
M  END
> <PUBCHEM_COMPOUND_CID>
521130
> <PUBCHEM_COMPOUND_CANONICALIZED>
1
> <PUBCHEM_CACTVS_COMPLEXITY>
165
> <PUBCHEM_CACTVS_HBOND_ACCEPTOR>
0
> <PUBCHEM_CACTVS_HBOND_DONOR>
0
> <PUBCHEM_CACTVS_ROTATABLE_BOND>
0
> <PUBCHEM_CACTVS_SUBSKEYS>
AAADceBwAAAAAAAAAAAAAAAAAABgAYAAAAAwAAAABgAYAGAAAAAAGAAAAAAADgCAAAAAAAAAAAAAAAAAAAAAAAAAAAAAAAAAAAAAAAIAAAAAAAAAAAAAAAEAgMAPgAAAAAAAAAAAAAAAACAAAAAACAAAAA==
> <PUBCHEM_IUPAC_OPENEYE_NAME>
tricyclo[4.3.2.01,6]undecane
> <PUBCHEM_IUPAC_CAS_NAME>
tricyclo[4.3.2.01,6]undecane
> <PUBCHEM_IUPAC_NAME_MARKUP>
tricyclo[4.3.2.0<SUP>1,6</SUP>]undecane
> <PUBCHEM_IUPAC_NAME>
tricyclo[4.3.2.01,6]undecane
> <PUBCHEM_IUPAC_SYSTEMATIC_NAME>
tricyclo[4.3.2.01,6]undecane
> <PUBCHEM_IUPAC_TRADITIONAL_NAME>
tricyclo[4.3.2.01,6]undecane
> <PUBCHEM_IUPAC_INCHI>
InChI=1S/C11H18/c1-2-5-11-7-3-6-10(11,4-1)8-9-11/h1-9H2
> <PUBCHEM_IUPAC_INCHIKEY>
FVWMSEVAVPABAY-UHFFFAOYSA-N
> <PUBCHEM_XLOGP3_AA>
4.7
> <PUBCHEM_EXACT_MASS>
150.140850574
> <PUBCHEM_MOLECULAR_FORMULA>
C11H18
> <PUBCHEM_MOLECULAR_WEIGHT>
150.26
> <PUBCHEM_OPENEYE_CAN_SMILES>
C1CCC23CCCC2(C1)CC3
> <PUBCHEM_OPENEYE_ISO_SMILES>
C1CCC23CCCC2(C1)CC3
> <PUBCHEM_CACTVS_TPSA>
0
> <PUBCHEM_MONOISOTOPIC_WEIGHT>
150.140850574
> <PUBCHEM_TOTAL_CHARGE>
0
> <PUBCHEM_HEAVY_ATOM_COUNT>
11
> <PUBCHEM_ATOM_DEF_STEREO_COUNT>
0
> <PUBCHEM_ATOM_UDEF_STEREO_COUNT>
2
> <PUBCHEM_BOND_DEF_STEREO_COUNT>
0
> <PUBCHEM_BOND_UDEF_STEREO_COUNT>
0
> <PUBCHEM_ISOTOPIC_ATOM_COUNT>
0
> <PUBCHEM_COMPONENT_COUNT>
1
> <PUBCHEM_CACTVS_TAUTO_COUNT>
-1
> <PUBCHEM_COORDINATE_TYPE>
1
5
255
> <PUBCHEM_BONDANNOTATIONS>
1  7  3
2  8  3
$$$$
