521197
  -OEChem-10302200292D
 21 22  0     1  0  0  0  0  0999 V2000
    6.2619   -0.4416    0.0000 O   0  0  0  0  0  0  0  0  0  0  0  0
    4.9889    1.3137    0.0000 O   0  0  0  0  0  0  0  0  0  0  0  0
    5.2619   -0.4416    0.0000 C   0  0  3  0  0  0  0  0  0  0  0  0
    4.6783    0.3632    0.0000 C   0  0  3  0  0  0  0  0  0  0  0  0
    4.6783   -1.2463    0.0000 C   0  0  0  0  0  0  0  0  0  0  0  0
    3.7320    0.0584    0.0000 C   0  0  0  0  0  0  0  0  0  0  0  0
    3.7320   -0.9416    0.0000 C   0  0  0  0  0  0  0  0  0  0  0  0
    2.8660    0.5584    0.0000 C   0  0  0  0  0  0  0  0  0  0  0  0
    2.8660   -1.4416    0.0000 C   0  0  0  0  0  0  0  0  0  0  0  0
    2.0000    0.0584    0.0000 C   0  0  0  0  0  0  0  0  0  0  0  0
    2.0000   -0.9416    0.0000 C   0  0  0  0  0  0  0  0  0  0  0  0
    5.5436   -0.9939    0.0000 H   0  0  0  0  0  0  0  0  0  0  0  0
    5.2908    0.4594    0.0000 H   0  0  0  0  0  0  0  0  0  0  0  0
    4.4272   -1.8132    0.0000 H   0  0  0  0  0  0  0  0  0  0  0  0
    5.2156   -1.5555    0.0000 H   0  0  0  0  0  0  0  0  0  0  0  0
    2.8660    1.1784    0.0000 H   0  0  0  0  0  0  0  0  0  0  0  0
    2.8660   -2.0616    0.0000 H   0  0  0  0  0  0  0  0  0  0  0  0
    6.5719   -0.9785    0.0000 H   0  0  0  0  0  0  0  0  0  0  0  0
    5.5956    1.4416    0.0000 H   0  0  0  0  0  0  0  0  0  0  0  0
    1.4631    0.3684    0.0000 H   0  0  0  0  0  0  0  0  0  0  0  0
    1.4631   -1.2516    0.0000 H   0  0  0  0  0  0  0  0  0  0  0  0
  1  3  1  0  0  0  0
  1 18  1  0  0  0  0
  2  4  1  0  0  0  0
  2 19  1  0  0  0  0
  3  4  1  0  0  0  0
  3  5  1  0  0  0  0
  3 12  1  0  0  0  0
  4  6  1  0  0  0  0
  4 13  1  0  0  0  0
  5  7  1  0  0  0  0
  5 14  1  0  0  0  0
  5 15  1  0  0  0  0
  6  7  1  0  0  0  0
  6  8  2  0  0  0  0
  7  9  2  0  0  0  0
  8 10  1  0  0  0  0
  8 16  1  0  0  0  0
  9 11  1  0  0  0  0
  9 17  1  0  0  0  0
 10 11  2  0  0  0  0
 10 20  1  0  0  0  0
 11 21  1  0  0  0  0
M  END
> <PUBCHEM_COMPOUND_CID>
521197
> <PUBCHEM_COMPOUND_CANONICALIZED>
1
> <PUBCHEM_CACTVS_COMPLEXITY>
147
> <PUBCHEM_CACTVS_HBOND_ACCEPTOR>
2
> <PUBCHEM_CACTVS_HBOND_DONOR>
2
> <PUBCHEM_CACTVS_ROTATABLE_BOND>
0
> <PUBCHEM_CACTVS_SUBSKEYS>
AAADccBwMAAAAAAAAAAAAAAAAAAAAYAAAAAwAAAAAAAAAGABAAAAGgAACAAADBSgmAIwAIAAAgCAAiBCAAACAAAgAAAIiAAACIgJNiKAERCAcAAkwAEJmAeA4KAOgAAAAAAQAAAAAAAAACAAAIAADCAAAA==
> <PUBCHEM_IUPAC_OPENEYE_NAME>
indane-1,2-diol
> <PUBCHEM_IUPAC_CAS_NAME>
2,3-dihydro-1H-indene-1,2-diol
> <PUBCHEM_IUPAC_NAME_MARKUP>
2,3-dihydro-1<I>H</I>-indene-1,2-diol
> <PUBCHEM_IUPAC_NAME>
2,3-dihydro-1H-indene-1,2-diol
> <PUBCHEM_IUPAC_SYSTEMATIC_NAME>
2,3-dihydro-1H-indene-1,2-diol
> <PUBCHEM_IUPAC_TRADITIONAL_NAME>
indane-1,2-diol
> <PUBCHEM_IUPAC_INCHI>
InChI=1S/C9H10O2/c10-8-5-6-3-1-2-4-7(6)9(8)11/h1-4,8-11H,5H2
> <PUBCHEM_IUPAC_INCHIKEY>
YKXXBEOXRPZVCC-UHFFFAOYSA-N
> <PUBCHEM_XLOGP3_AA>
0.5
> <PUBCHEM_EXACT_MASS>
150.068079557
> <PUBCHEM_MOLECULAR_FORMULA>
C9H10O2
> <PUBCHEM_MOLECULAR_WEIGHT>
150.17
> <PUBCHEM_OPENEYE_CAN_SMILES>
C1C(C(C2=CC=CC=C21)O)O
> <PUBCHEM_OPENEYE_ISO_SMILES>
C1C(C(C2=CC=CC=C21)O)O
> <PUBCHEM_CACTVS_TPSA>
40.5
> <PUBCHEM_MONOISOTOPIC_WEIGHT>
150.068079557
> <PUBCHEM_TOTAL_CHARGE>
0
> <PUBCHEM_HEAVY_ATOM_COUNT>
11
> <PUBCHEM_ATOM_DEF_STEREO_COUNT>
0
> <PUBCHEM_ATOM_UDEF_STEREO_COUNT>
2
> <PUBCHEM_BOND_DEF_STEREO_COUNT>
0
> <PUBCHEM_BOND_UDEF_STEREO_COUNT>
0
> <PUBCHEM_ISOTOPIC_ATOM_COUNT>
0
> <PUBCHEM_COMPONENT_COUNT>
1
> <PUBCHEM_CACTVS_TAUTO_COUNT>
1
> <PUBCHEM_COORDINATE_TYPE>
1
5
255
> <PUBCHEM_BONDANNOTATIONS>
3  1  3
10  11  8
4  2  3
6  7  8
6  8  8
7  9  8
8  10  8
9  11  8
$$$$
