521166
  -OEChem-10302200292D
 49 48  0     1  0  0  0  0  0999 V2000
    7.1962   -0.0000    0.0000 O   0  0  0  0  0  0  0  0  0  0  0  0
    9.7942    1.5000    0.0000 O   0  0  0  0  0  0  0  0  0  0  0  0
    8.0622   -1.5000    0.0000 O   0  0  0  0  0  0  0  0  0  0  0  0
    5.4641   -0.0000    0.0000 C   0  0  3  0  0  0  0  0  0  0  0  0
    4.5981   -0.5000    0.0000 C   0  0  0  0  0  0  0  0  0  0  0  0
    6.3301   -0.5000    0.0000 C   0  0  0  0  0  0  0  0  0  0  0  0
    5.4641    1.0000    0.0000 C   0  0  0  0  0  0  0  0  0  0  0  0
    8.9282    0.0000    0.0000 C   0  0  0  0  0  0  0  0  0  0  0  0
    3.7320   -0.0000    0.0000 C   0  0  0  0  0  0  0  0  0  0  0  0
    9.7942    0.5000    0.0000 C   0  0  0  0  0  0  0  0  0  0  0  0
    2.8660   -0.5000    0.0000 C   0  0  0  0  0  0  0  0  0  0  0  0
    8.0622   -0.5000    0.0000 C   0  0  0  0  0  0  0  0  0  0  0  0
   10.6603    0.0000    0.0000 C   0  0  0  0  0  0  0  0  0  0  0  0
    4.5981    1.5000    0.0000 C   0  0  0  0  0  0  0  0  0  0  0  0
    8.4282    0.8660    0.0000 C   0  0  0  0  0  0  0  0  0  0  0  0
    9.4282   -0.8660    0.0000 C   0  0  0  0  0  0  0  0  0  0  0  0
    2.0000   -0.0000    0.0000 C   0  0  0  0  0  0  0  0  0  0  0  0
   11.5263    0.5000    0.0000 C   0  0  0  0  0  0  0  0  0  0  0  0
   10.6603   -1.0000    0.0000 C   0  0  0  0  0  0  0  0  0  0  0  0
    5.4641   -0.6200    0.0000 H   0  0  0  0  0  0  0  0  0  0  0  0
    4.1996   -0.9749    0.0000 H   0  0  0  0  0  0  0  0  0  0  0  0
    4.9966   -0.9749    0.0000 H   0  0  0  0  0  0  0  0  0  0  0  0
    5.9316   -0.9749    0.0000 H   0  0  0  0  0  0  0  0  0  0  0  0
    6.7287   -0.9749    0.0000 H   0  0  0  0  0  0  0  0  0  0  0  0
    6.0747    0.8923    0.0000 H   0  0  0  0  0  0  0  0  0  0  0  0
    5.6762    1.5826    0.0000 H   0  0  0  0  0  0  0  0  0  0  0  0
    4.1306    0.4749    0.0000 H   0  0  0  0  0  0  0  0  0  0  0  0
    3.3335    0.4749    0.0000 H   0  0  0  0  0  0  0  0  0  0  0  0
    2.4675   -0.9749    0.0000 H   0  0  0  0  0  0  0  0  0  0  0  0
    3.2646   -0.9749    0.0000 H   0  0  0  0  0  0  0  0  0  0  0  0
   11.1972   -0.3100    0.0000 H   0  0  0  0  0  0  0  0  0  0  0  0
    4.9081    2.0369    0.0000 H   0  0  0  0  0  0  0  0  0  0  0  0
    4.0611    1.8100    0.0000 H   0  0  0  0  0  0  0  0  0  0  0  0
    4.2881    0.9631    0.0000 H   0  0  0  0  0  0  0  0  0  0  0  0
    8.9651    1.1760    0.0000 H   0  0  0  0  0  0  0  0  0  0  0  0
    8.1182    1.4030    0.0000 H   0  0  0  0  0  0  0  0  0  0  0  0
    7.8913    0.5560    0.0000 H   0  0  0  0  0  0  0  0  0  0  0  0
    8.8913   -1.1760    0.0000 H   0  0  0  0  0  0  0  0  0  0  0  0
    9.7382   -1.4030    0.0000 H   0  0  0  0  0  0  0  0  0  0  0  0
    9.9651   -0.5560    0.0000 H   0  0  0  0  0  0  0  0  0  0  0  0
    2.3100    0.5369    0.0000 H   0  0  0  0  0  0  0  0  0  0  0  0
    1.4631    0.3100    0.0000 H   0  0  0  0  0  0  0  0  0  0  0  0
    1.6900   -0.5369    0.0000 H   0  0  0  0  0  0  0  0  0  0  0  0
   11.8363   -0.0369    0.0000 H   0  0  0  0  0  0  0  0  0  0  0  0
   12.0632    0.8100    0.0000 H   0  0  0  0  0  0  0  0  0  0  0  0
   11.2163    1.0369    0.0000 H   0  0  0  0  0  0  0  0  0  0  0  0
   10.0403   -1.0000    0.0000 H   0  0  0  0  0  0  0  0  0  0  0  0
   10.6603   -1.6200    0.0000 H   0  0  0  0  0  0  0  0  0  0  0  0
   11.2803   -1.0000    0.0000 H   0  0  0  0  0  0  0  0  0  0  0  0
  1  6  1  0  0  0  0
  1 12  1  0  0  0  0
  2 10  2  0  0  0  0
  3 12  2  0  0  0  0
  4  5  1  0  0  0  0
  4  6  1  0  0  0  0
  4  7  1  0  0  0  0
  4 20  1  0  0  0  0
  5  9  1  0  0  0  0
  5 21  1  0  0  0  0
  5 22  1  0  0  0  0
  6 23  1  0  0  0  0
  6 24  1  0  0  0  0
  7 14  1  0  0  0  0
  7 25  1  0  0  0  0
  7 26  1  0  0  0  0
  8 10  1  0  0  0  0
  8 12  1  0  0  0  0
  8 15  1  0  0  0  0
  8 16  1  0  0  0  0
  9 11  1  0  0  0  0
  9 27  1  0  0  0  0
  9 28  1  0  0  0  0
 10 13  1  0  0  0  0
 11 17  1  0  0  0  0
 11 29  1  0  0  0  0
 11 30  1  0  0  0  0
 13 18  1  0  0  0  0
 13 19  1  0  0  0  0
 13 31  1  0  0  0  0
 14 32  1  0  0  0  0
 14 33  1  0  0  0  0
 14 34  1  0  0  0  0
 15 35  1  0  0  0  0
 15 36  1  0  0  0  0
 15 37  1  0  0  0  0
 16 38  1  0  0  0  0
 16 39  1  0  0  0  0
 16 40  1  0  0  0  0
 17 41  1  0  0  0  0
 17 42  1  0  0  0  0
 17 43  1  0  0  0  0
 18 44  1  0  0  0  0
 18 45  1  0  0  0  0
 18 46  1  0  0  0  0
 19 47  1  0  0  0  0
 19 48  1  0  0  0  0
 19 49  1  0  0  0  0
M  END
> <PUBCHEM_COMPOUND_CID>
521166
> <PUBCHEM_COMPOUND_CANONICALIZED>
1
> <PUBCHEM_CACTVS_COMPLEXITY>
292
> <PUBCHEM_CACTVS_HBOND_ACCEPTOR>
3
> <PUBCHEM_CACTVS_HBOND_DONOR>
0
> <PUBCHEM_CACTVS_ROTATABLE_BOND>
10
> <PUBCHEM_CACTVS_SUBSKEYS>
AAADceB4MAAAAAAAAAAAAAAAAAAAAAAAAAAAAAAAAAAAAAAAAAAAGgAAAAAADwSggAICCAAABAAIAICQCAAAAAAAAAAAAAEAAAAAABYIAAACAAAEIAAAAAGIwAAPAAAAAAAAAAAAAAAAAAAAAAAAAAAAAA==
> <PUBCHEM_IUPAC_OPENEYE_NAME>
2-ethylhexyl 2,2,4-trimethyl-3-oxo-pentanoate
> <PUBCHEM_IUPAC_CAS_NAME>
2,2,4-trimethyl-3-oxopentanoic acid 2-ethylhexyl ester
> <PUBCHEM_IUPAC_NAME_MARKUP>
2-ethylhexyl 2,2,4-trimethyl-3-oxopentanoate
> <PUBCHEM_IUPAC_NAME>
2-ethylhexyl 2,2,4-trimethyl-3-oxopentanoate
> <PUBCHEM_IUPAC_SYSTEMATIC_NAME>
2-ethylhexyl 2,2,4-trimethyl-3-oxidanylidene-pentanoate
> <PUBCHEM_IUPAC_TRADITIONAL_NAME>
3-keto-2,2,4-trimethyl-valeric acid 2-ethylhexyl ester
> <PUBCHEM_IUPAC_INCHI>
InChI=1S/C16H30O3/c1-7-9-10-13(8-2)11-19-15(18)16(5,6)14(17)12(3)4/h12-13H,7-11H2,1-6H3
> <PUBCHEM_IUPAC_INCHIKEY>
ZNMKKKLXWORYSF-UHFFFAOYSA-N
> <PUBCHEM_XLOGP3_AA>
5.1
> <PUBCHEM_EXACT_MASS>
270.21949481
> <PUBCHEM_MOLECULAR_FORMULA>
C16H30O3
> <PUBCHEM_MOLECULAR_WEIGHT>
270.41
> <PUBCHEM_OPENEYE_CAN_SMILES>
CCCCC(CC)COC(=O)C(C)(C)C(=O)C(C)C
> <PUBCHEM_OPENEYE_ISO_SMILES>
CCCCC(CC)COC(=O)C(C)(C)C(=O)C(C)C
> <PUBCHEM_CACTVS_TPSA>
43.4
> <PUBCHEM_MONOISOTOPIC_WEIGHT>
270.21949481
> <PUBCHEM_TOTAL_CHARGE>
0
> <PUBCHEM_HEAVY_ATOM_COUNT>
19
> <PUBCHEM_ATOM_DEF_STEREO_COUNT>
0
> <PUBCHEM_ATOM_UDEF_STEREO_COUNT>
1
> <PUBCHEM_BOND_DEF_STEREO_COUNT>
0
> <PUBCHEM_BOND_UDEF_STEREO_COUNT>
0
> <PUBCHEM_ISOTOPIC_ATOM_COUNT>
0
> <PUBCHEM_COMPONENT_COUNT>
1
> <PUBCHEM_CACTVS_TAUTO_COUNT>
-1
> <PUBCHEM_COORDINATE_TYPE>
1
5
255
> <PUBCHEM_BONDANNOTATIONS>
4  7  3
$$$$
