521143
  -OEChem-10302200292D
 76 79  0     1  0  0  0  0  0999 V2000
    3.7320   -3.6598    0.0000 O   0  0  0  0  0  0  0  0  0  0  0  0
    2.0000   -3.6531    0.0000 O   0  0  0  0  0  0  0  0  0  0  0  0
    9.1251   -0.6074    0.0000 C   0  0  3  0  0  0  0  0  0  0  0  0
    9.1251   -1.6074    0.0000 C   0  0  3  0  0  0  0  0  0  0  0  0
    8.2591   -2.1074    0.0000 C   0  0  3  0  0  0  0  0  0  0  0  0
    7.3931   -1.6074    0.0000 C   0  0  3  0  0  0  0  0  0  0  0  0
   10.0713   -0.3027    0.0000 C   0  0  3  0  0  0  0  0  0  0  0  0
    8.2591   -0.1074    0.0000 C   0  0  0  0  0  0  0  0  0  0  0  0
    6.4831   -2.1143    0.0000 C   0  0  3  0  0  0  0  0  0  0  0  0
   10.0713   -1.9122    0.0000 C   0  0  0  0  0  0  0  0  0  0  0  0
    7.3931   -0.6074    0.0000 C   0  0  0  0  0  0  0  0  0  0  0  0
   10.6550   -1.1074    0.0000 C   0  0  0  0  0  0  0  0  0  0  0  0
    8.2752   -3.1489    0.0000 C   0  0  0  0  0  0  0  0  0  0  0  0
   10.3820    0.6478    0.0000 C   0  0  3  0  0  0  0  0  0  0  0  0
    9.1251    0.3926    0.0000 C   0  0  0  0  0  0  0  0  0  0  0  0
    6.4750   -3.1559    0.0000 C   0  0  0  0  0  0  0  0  0  0  0  0
    5.5562   -1.5502    0.0000 C   0  0  0  0  0  0  0  0  0  0  0  0
    7.3771   -3.6767    0.0000 C   0  0  0  0  0  0  0  0  0  0  0  0
    6.4908   -1.1143    0.0000 C   0  0  0  0  0  0  0  0  0  0  0  0
    5.5396   -3.7056    0.0000 C   0  0  0  0  0  0  0  0  0  0  0  0
    4.6084   -2.0781    0.0000 C   0  0  0  0  0  0  0  0  0  0  0  0
   11.3605    0.8540    0.0000 C   0  0  0  0  0  0  0  0  0  0  0  0
    4.6000   -3.1631    0.0000 C   0  0  3  0  0  0  0  0  0  0  0  0
    9.7142    1.3921    0.0000 C   0  0  0  0  0  0  0  0  0  0  0  0
   11.6712    1.8046    0.0000 C   0  0  0  0  0  0  0  0  0  0  0  0
   12.6497    2.0108    0.0000 C   0  0  0  0  0  0  0  0  0  0  0  0
   12.9603    2.9613    0.0000 C   0  0  0  0  0  0  0  0  0  0  0  0
    2.8680   -3.1564    0.0000 C   0  0  0  0  0  0  0  0  0  0  0  0
   13.9388    3.1675    0.0000 C   0  0  0  0  0  0  0  0  0  0  0  0
   12.2925    3.7056    0.0000 C   0  0  0  0  0  0  0  0  0  0  0  0
    9.1907   -2.2240    0.0000 H   0  0  0  0  0  0  0  0  0  0  0  0
    8.7984   -2.4133    0.0000 H   0  0  0  0  0  0  0  0  0  0  0  0
    7.9300   -1.2974    0.0000 H   0  0  0  0  0  0  0  0  0  0  0  0
   10.6838   -0.2065    0.0000 H   0  0  0  0  0  0  0  0  0  0  0  0
    8.6576    0.3675    0.0000 H   0  0  0  0  0  0  0  0  0  0  0  0
    7.8606    0.3675    0.0000 H   0  0  0  0  0  0  0  0  0  0  0  0
    9.8203   -2.4791    0.0000 H   0  0  0  0  0  0  0  0  0  0  0  0
   10.6087   -2.2214    0.0000 H   0  0  0  0  0  0  0  0  0  0  0  0
    7.1810   -0.0248    0.0000 H   0  0  0  0  0  0  0  0  0  0  0  0
    6.7825   -0.7151    0.0000 H   0  0  0  0  0  0  0  0  0  0  0  0
   11.1158   -1.5222    0.0000 H   0  0  0  0  0  0  0  0  0  0  0  0
   11.1158   -0.6927    0.0000 H   0  0  0  0  0  0  0  0  0  0  0  0
    8.4932   -3.7293    0.0000 H   0  0  0  0  0  0  0  0  0  0  0  0
    8.8843   -3.0334    0.0000 H   0  0  0  0  0  0  0  0  0  0  0  0
   10.5746    1.2371    0.0000 H   0  0  0  0  0  0  0  0  0  0  0  0
    9.7451    0.3926    0.0000 H   0  0  0  0  0  0  0  0  0  0  0  0
    9.1251    1.0126    0.0000 H   0  0  0  0  0  0  0  0  0  0  0  0
    8.5051    0.3926    0.0000 H   0  0  0  0  0  0  0  0  0  0  0  0
    5.9644   -1.0835    0.0000 H   0  0  0  0  0  0  0  0  0  0  0  0
    5.1663   -1.0682    0.0000 H   0  0  0  0  0  0  0  0  0  0  0  0
    7.3795   -4.2967    0.0000 H   0  0  0  0  0  0  0  0  0  0  0  0
    7.1108   -1.1191    0.0000 H   0  0  0  0  0  0  0  0  0  0  0  0
    6.4956   -0.4943    0.0000 H   0  0  0  0  0  0  0  0  0  0  0  0
    5.8708   -1.1095    0.0000 H   0  0  0  0  0  0  0  0  0  0  0  0
    5.1423   -4.1816    0.0000 H   0  0  0  0  0  0  0  0  0  0  0  0
    5.9406   -4.1785    0.0000 H   0  0  0  0  0  0  0  0  0  0  0  0
    4.4038   -1.4929    0.0000 H   0  0  0  0  0  0  0  0  0  0  0  0
    3.9967   -2.1795    0.0000 H   0  0  0  0  0  0  0  0  0  0  0  0
   11.3811    0.2344    0.0000 H   0  0  0  0  0  0  0  0  0  0  0  0
   11.9743    0.7667    0.0000 H   0  0  0  0  0  0  0  0  0  0  0  0
    4.0648   -2.8500    0.0000 H   0  0  0  0  0  0  0  0  0  0  0  0
   10.1756    1.8062    0.0000 H   0  0  0  0  0  0  0  0  0  0  0  0
    9.3001    1.8536    0.0000 H   0  0  0  0  0  0  0  0  0  0  0  0
    9.2527    0.9781    0.0000 H   0  0  0  0  0  0  0  0  0  0  0  0
   11.6506    2.4242    0.0000 H   0  0  0  0  0  0  0  0  0  0  0  0
   11.0574    1.8919    0.0000 H   0  0  0  0  0  0  0  0  0  0  0  0
   12.6702    1.3911    0.0000 H   0  0  0  0  0  0  0  0  0  0  0  0
   13.2635    1.9234    0.0000 H   0  0  0  0  0  0  0  0  0  0  0  0
   13.1530    3.5506    0.0000 H   0  0  0  0  0  0  0  0  0  0  0  0
    2.8703   -2.5364    0.0000 H   0  0  0  0  0  0  0  0  0  0  0  0
   14.0667    2.5608    0.0000 H   0  0  0  0  0  0  0  0  0  0  0  0
   14.5455    3.2954    0.0000 H   0  0  0  0  0  0  0  0  0  0  0  0
   13.8110    3.7742    0.0000 H   0  0  0  0  0  0  0  0  0  0  0  0
   12.7540    4.1197    0.0000 H   0  0  0  0  0  0  0  0  0  0  0  0
   11.8784    4.1671    0.0000 H   0  0  0  0  0  0  0  0  0  0  0  0
   11.8310    3.2915    0.0000 H   0  0  0  0  0  0  0  0  0  0  0  0
  1 23  1  0  0  0  0
  1 28  1  0  0  0  0
  2 28  2  0  0  0  0
  3  4  1  0  0  0  0
  3  7  1  0  0  0  0
  3  8  1  0  0  0  0
  3 15  1  0  0  0  0
  4  5  1  0  0  0  0
  4 10  1  0  0  0  0
  4 31  1  0  0  0  0
  5  6  1  0  0  0  0
  5 13  1  0  0  0  0
  5 32  1  0  0  0  0
  6  9  1  0  0  0  0
  6 11  1  0  0  0  0
  6 33  1  0  0  0  0
  7 12  1  0  0  0  0
  7 14  1  0  0  0  0
  7 34  1  0  0  0  0
  8 11  1  0  0  0  0
  8 35  1  0  0  0  0
  8 36  1  0  0  0  0
  9 16  1  0  0  0  0
  9 17  1  0  0  0  0
  9 19  1  0  0  0  0
 10 12  1  0  0  0  0
 10 37  1  0  0  0  0
 10 38  1  0  0  0  0
 11 39  1  0  0  0  0
 11 40  1  0  0  0  0
 12 41  1  0  0  0  0
 12 42  1  0  0  0  0
 13 18  1  0  0  0  0
 13 43  1  0  0  0  0
 13 44  1  0  0  0  0
 14 22  1  0  0  0  0
 14 24  1  0  0  0  0
 14 45  1  0  0  0  0
 15 46  1  0  0  0  0
 15 47  1  0  0  0  0
 15 48  1  0  0  0  0
 16 18  2  0  0  0  0
 16 20  1  0  0  0  0
 17 21  1  0  0  0  0
 17 49  1  0  0  0  0
 17 50  1  0  0  0  0
 18 51  1  0  0  0  0
 19 52  1  0  0  0  0
 19 53  1  0  0  0  0
 19 54  1  0  0  0  0
 20 23  1  0  0  0  0
 20 55  1  0  0  0  0
 20 56  1  0  0  0  0
 21 23  1  0  0  0  0
 21 57  1  0  0  0  0
 21 58  1  0  0  0  0
 22 25  1  0  0  0  0
 22 59  1  0  0  0  0
 22 60  1  0  0  0  0
 23 61  1  0  0  0  0
 24 62  1  0  0  0  0
 24 63  1  0  0  0  0
 24 64  1  0  0  0  0
 25 26  1  0  0  0  0
 25 65  1  0  0  0  0
 25 66  1  0  0  0  0
 26 27  1  0  0  0  0
 26 67  1  0  0  0  0
 26 68  1  0  0  0  0
 27 29  1  0  0  0  0
 27 30  1  0  0  0  0
 27 69  1  0  0  0  0
 28 70  1  0  0  0  0
 29 71  1  0  0  0  0
 29 72  1  0  0  0  0
 29 73  1  0  0  0  0
 30 74  1  0  0  0  0
 30 75  1  0  0  0  0
 30 76  1  0  0  0  0
M  END
> <PUBCHEM_COMPOUND_CID>
521143
> <PUBCHEM_COMPOUND_CANONICALIZED>
1
> <PUBCHEM_CACTVS_COMPLEXITY>
651
> <PUBCHEM_CACTVS_HBOND_ACCEPTOR>
2
> <PUBCHEM_CACTVS_HBOND_DONOR>
0
> <PUBCHEM_CACTVS_ROTATABLE_BOND>
7
> <PUBCHEM_CACTVS_SUBSKEYS>
AAADcfB4MAAAAAAAAAAAAAAAAAAAAYAAAAAwYIAAAAAAAGCAAAAAGgAAAAAADxSggAMCCAAABACIAiBCiAAAAAAgAAAACAAAAAgAAAIAAQAAAAAEwAAIAAOAwPAPgAAAAAAAAADAAAQAACAAAQAACAAAAA==
> <PUBCHEM_IUPAC_OPENEYE_NAME>
[17-(1,5-dimethylhexyl)-10,13-dimethyl-2,3,4,7,8,9,11,12,14,15,16,17-dodecahydro-1H-cyclopenta[a]phenanthren-3-yl] formate
> <PUBCHEM_IUPAC_CAS_NAME>
formic acid [10,13-dimethyl-17-(6-methylheptan-2-yl)-2,3,4,7,8,9,11,12,14,15,16,17-dodecahydro-1H-cyclopenta[a]phenanthren-3-yl] ester
> <PUBCHEM_IUPAC_NAME_MARKUP>
[10,13-dimethyl-17-(6-methylheptan-2-yl)-2,3,4,7,8,9,11,12,14,15,16,17-dodecahydro-1<I>H</I>-cyclopenta[a]phenanthren-3-yl] formate
> <PUBCHEM_IUPAC_NAME>
[10,13-dimethyl-17-(6-methylheptan-2-yl)-2,3,4,7,8,9,11,12,14,15,16,17-dodecahydro-1H-cyclopenta[a]phenanthren-3-yl] formate
> <PUBCHEM_IUPAC_SYSTEMATIC_NAME>
[10,13-dimethyl-17-(6-methylheptan-2-yl)-2,3,4,7,8,9,11,12,14,15,16,17-dodecahydro-1H-cyclopenta[a]phenanthren-3-yl] methanoate
> <PUBCHEM_IUPAC_TRADITIONAL_NAME>
formic acid [17-(1,5-dimethylhexyl)-10,13-dimethyl-2,3,4,7,8,9,11,12,14,15,16,17-dodecahydro-1H-cyclopenta[a]phenanthren-3-yl] ester
> <PUBCHEM_IUPAC_INCHI>
InChI=1S/C28H46O2/c1-19(2)7-6-8-20(3)24-11-12-25-23-10-9-21-17-22(30-18-29)13-15-27(21,4)26(23)14-16-28(24,25)5/h9,18-20,22-26H,6-8,10-17H2,1-5H3
> <PUBCHEM_IUPAC_INCHIKEY>
YEYCQJVCAMFWCO-UHFFFAOYSA-N
> <PUBCHEM_XLOGP3_AA>
9.1
> <PUBCHEM_EXACT_MASS>
414.349780706
> <PUBCHEM_MOLECULAR_FORMULA>
C28H46O2
> <PUBCHEM_MOLECULAR_WEIGHT>
414.7
> <PUBCHEM_OPENEYE_CAN_SMILES>
CC(C)CCCC(C)C1CCC2C1(CCC3C2CC=C4C3(CCC(C4)OC=O)C)C
> <PUBCHEM_OPENEYE_ISO_SMILES>
CC(C)CCCC(C)C1CCC2C1(CCC3C2CC=C4C3(CCC(C4)OC=O)C)C
> <PUBCHEM_CACTVS_TPSA>
26.3
> <PUBCHEM_MONOISOTOPIC_WEIGHT>
414.349780706
> <PUBCHEM_TOTAL_CHARGE>
0
> <PUBCHEM_HEAVY_ATOM_COUNT>
30
> <PUBCHEM_ATOM_DEF_STEREO_COUNT>
0
> <PUBCHEM_ATOM_UDEF_STEREO_COUNT>
8
> <PUBCHEM_BOND_DEF_STEREO_COUNT>
0
> <PUBCHEM_BOND_UDEF_STEREO_COUNT>
0
> <PUBCHEM_ISOTOPIC_ATOM_COUNT>
0
> <PUBCHEM_COMPONENT_COUNT>
1
> <PUBCHEM_CACTVS_TAUTO_COUNT>
1
> <PUBCHEM_COORDINATE_TYPE>
1
5
255
> <PUBCHEM_BONDANNOTATIONS>
23  1  3
14  24  3
3  15  3
4  10  3
5  13  3
6  11  3
7  12  3
9  19  3
$$$$
