521113
  -OEChem-10302200292D
107110  0     1  0  0  0  0  0999 V2000
    9.0181    1.4025    0.0000 Si  0  0  0  0  0  0  0  0  0  0  0  0
    2.8641   -3.0733    0.0000 Si  0  0  0  0  0  0  0  0  0  0  0  0
   12.6004    0.5449    0.0000 Si  0  0  0  0  0  0  0  0  0  0  0  0
   11.4819    2.9426    0.0000 Si  0  0  0  0  0  0  0  0  0  0  0  0
    9.7601    0.7321    0.0000 O   0  0  0  0  0  0  0  0  0  0  0  0
    3.7282   -3.5766    0.0000 O   0  0  0  0  0  0  0  0  0  0  0  0
   11.7904   -0.0415    0.0000 O   0  0  0  0  0  0  0  0  0  0  0  0
   11.5847    1.9479    0.0000 O   0  0  0  0  0  0  0  0  0  0  0  0
    8.2552   -2.0243    0.0000 C   0  0  3  0  0  0  0  0  0  0  0  0
    9.1213   -1.5243    0.0000 C   0  0  3  0  0  0  0  0  0  0  0  0
    7.3892   -1.5243    0.0000 C   0  0  3  0  0  0  0  0  0  0  0  0
    9.1213   -0.5243    0.0000 C   0  0  3  0  0  0  0  0  0  0  0  0
    6.4792   -2.0311    0.0000 C   0  0  3  0  0  0  0  0  0  0  0  0
    6.4712   -3.0727    0.0000 C   0  0  3  0  0  0  0  0  0  0  0  0
   10.0675   -0.2195    0.0000 C   0  0  3  0  0  0  0  0  0  0  0  0
    7.3892   -0.5243    0.0000 C   0  0  0  0  0  0  0  0  0  0  0  0
    8.2552   -0.0243    0.0000 C   0  0  0  0  0  0  0  0  0  0  0  0
    8.2713   -3.0658    0.0000 C   0  0  0  0  0  0  0  0  0  0  0  0
   10.0675   -1.8290    0.0000 C   0  0  0  0  0  0  0  0  0  0  0  0
    7.3733   -3.5935    0.0000 C   0  0  0  0  0  0  0  0  0  0  0  0
   10.6511   -1.0243    0.0000 C   0  0  0  0  0  0  0  0  0  0  0  0
    5.5524   -1.4670    0.0000 C   0  0  0  0  0  0  0  0  0  0  0  0
    5.5358   -3.6224    0.0000 C   0  0  0  0  0  0  0  0  0  0  0  0
    9.1213    0.4757    0.0000 C   0  0  0  0  0  0  0  0  0  0  0  0
    6.4869   -1.0311    0.0000 C   0  0  0  0  0  0  0  0  0  0  0  0
    4.6045   -1.9950    0.0000 C   0  0  0  0  0  0  0  0  0  0  0  0
    4.5961   -3.0799    0.0000 C   0  0  3  0  0  0  0  0  0  0  0  0
   10.8775    0.3669    0.0000 C   0  0  0  0  0  0  0  0  0  0  0  0
   10.7747    1.3616    0.0000 C   0  0  0  0  0  0  0  0  0  0  0  0
    9.6886    2.1445    0.0000 C   0  0  0  0  0  0  0  0  0  0  0  0
    8.2761    2.0729    0.0000 C   0  0  0  0  0  0  0  0  0  0  0  0
    8.3477    0.6605    0.0000 C   0  0  0  0  0  0  0  0  0  0  0  0
    2.0000   -2.5699    0.0000 C   0  0  0  0  0  0  0  0  0  0  0  0
    2.3608   -3.9374    0.0000 C   0  0  0  0  0  0  0  0  0  0  0  0
    3.3674   -2.2092    0.0000 C   0  0  0  0  0  0  0  0  0  0  0  0
   13.4104    1.1313    0.0000 C   0  0  0  0  0  0  0  0  0  0  0  0
   13.1868   -0.2651    0.0000 C   0  0  0  0  0  0  0  0  0  0  0  0
   12.0140    1.3550    0.0000 C   0  0  0  0  0  0  0  0  0  0  0  0
   11.3791    3.9374    0.0000 C   0  0  0  0  0  0  0  0  0  0  0  0
   12.4766    3.0455    0.0000 C   0  0  0  0  0  0  0  0  0  0  0  0
   10.4872    2.8398    0.0000 C   0  0  0  0  0  0  0  0  0  0  0  0
    8.7945   -2.3301    0.0000 H   0  0  0  0  0  0  0  0  0  0  0  0
    9.1869   -2.1408    0.0000 H   0  0  0  0  0  0  0  0  0  0  0  0
    7.9262   -1.2143    0.0000 H   0  0  0  0  0  0  0  0  0  0  0  0
    6.4736   -3.6927    0.0000 H   0  0  0  0  0  0  0  0  0  0  0  0
    7.1772    0.0584    0.0000 H   0  0  0  0  0  0  0  0  0  0  0  0
    6.7786   -0.6319    0.0000 H   0  0  0  0  0  0  0  0  0  0  0  0
    8.6538    0.4507    0.0000 H   0  0  0  0  0  0  0  0  0  0  0  0
    7.8567    0.4507    0.0000 H   0  0  0  0  0  0  0  0  0  0  0  0
    8.4893   -3.6462    0.0000 H   0  0  0  0  0  0  0  0  0  0  0  0
    8.8804   -2.9503    0.0000 H   0  0  0  0  0  0  0  0  0  0  0  0
    9.8164   -2.3959    0.0000 H   0  0  0  0  0  0  0  0  0  0  0  0
   10.6049   -2.1382    0.0000 H   0  0  0  0  0  0  0  0  0  0  0  0
    6.9760   -4.0695    0.0000 H   0  0  0  0  0  0  0  0  0  0  0  0
    7.7742   -4.0664    0.0000 H   0  0  0  0  0  0  0  0  0  0  0  0
   11.1120   -1.4390    0.0000 H   0  0  0  0  0  0  0  0  0  0  0  0
   11.1120   -0.6095    0.0000 H   0  0  0  0  0  0  0  0  0  0  0  0
    5.9606   -1.0004    0.0000 H   0  0  0  0  0  0  0  0  0  0  0  0
    5.1625   -0.9850    0.0000 H   0  0  0  0  0  0  0  0  0  0  0  0
    5.1385   -4.0984    0.0000 H   0  0  0  0  0  0  0  0  0  0  0  0
    5.9367   -4.0953    0.0000 H   0  0  0  0  0  0  0  0  0  0  0  0
    9.7413    0.4757    0.0000 H   0  0  0  0  0  0  0  0  0  0  0  0
    9.1213    1.0957    0.0000 H   0  0  0  0  0  0  0  0  0  0  0  0
    8.5013    0.4757    0.0000 H   0  0  0  0  0  0  0  0  0  0  0  0
    7.1069   -1.0359    0.0000 H   0  0  0  0  0  0  0  0  0  0  0  0
    6.4917   -0.4112    0.0000 H   0  0  0  0  0  0  0  0  0  0  0  0
    5.8669   -1.0264    0.0000 H   0  0  0  0  0  0  0  0  0  0  0  0
    4.3999   -1.4097    0.0000 H   0  0  0  0  0  0  0  0  0  0  0  0
    3.9928   -2.0964    0.0000 H   0  0  0  0  0  0  0  0  0  0  0  0
    4.5949   -3.6999    0.0000 H   0  0  0  0  0  0  0  0  0  0  0  0
   10.2088    1.6147    0.0000 H   0  0  0  0  0  0  0  0  0  0  0  0
   10.1486    1.7288    0.0000 H   0  0  0  0  0  0  0  0  0  0  0  0
   10.1042    2.6045    0.0000 H   0  0  0  0  0  0  0  0  0  0  0  0
    9.2285    2.5601    0.0000 H   0  0  0  0  0  0  0  0  0  0  0  0
    8.6918    2.5329    0.0000 H   0  0  0  0  0  0  0  0  0  0  0  0
    7.8161    2.4886    0.0000 H   0  0  0  0  0  0  0  0  0  0  0  0
    7.8605    1.6129    0.0000 H   0  0  0  0  0  0  0  0  0  0  0  0
    7.8877    1.0762    0.0000 H   0  0  0  0  0  0  0  0  0  0  0  0
    7.9320    0.2005    0.0000 H   0  0  0  0  0  0  0  0  0  0  0  0
    8.8077    0.2449    0.0000 H   0  0  0  0  0  0  0  0  0  0  0  0
    2.3121   -2.0342    0.0000 H   0  0  0  0  0  0  0  0  0  0  0  0
    1.4643   -2.2578    0.0000 H   0  0  0  0  0  0  0  0  0  0  0  0
    1.6879   -3.1057    0.0000 H   0  0  0  0  0  0  0  0  0  0  0  0
    1.8250   -3.6253    0.0000 H   0  0  0  0  0  0  0  0  0  0  0  0
    2.0487   -4.4731    0.0000 H   0  0  0  0  0  0  0  0  0  0  0  0
    2.8965   -4.2494    0.0000 H   0  0  0  0  0  0  0  0  0  0  0  0
    3.9032   -2.5212    0.0000 H   0  0  0  0  0  0  0  0  0  0  0  0
    3.6795   -1.6734    0.0000 H   0  0  0  0  0  0  0  0  0  0  0  0
    2.8317   -1.8971    0.0000 H   0  0  0  0  0  0  0  0  0  0  0  0
   13.7740    0.6291    0.0000 H   0  0  0  0  0  0  0  0  0  0  0  0
   13.9126    1.4949    0.0000 H   0  0  0  0  0  0  0  0  0  0  0  0
   13.0469    1.6335    0.0000 H   0  0  0  0  0  0  0  0  0  0  0  0
   12.6846   -0.6287    0.0000 H   0  0  0  0  0  0  0  0  0  0  0  0
   13.5503   -0.7673    0.0000 H   0  0  0  0  0  0  0  0  0  0  0  0
   13.6890    0.0985    0.0000 H   0  0  0  0  0  0  0  0  0  0  0  0
   12.5162    1.7185    0.0000 H   0  0  0  0  0  0  0  0  0  0  0  0
   11.6505    1.8572    0.0000 H   0  0  0  0  0  0  0  0  0  0  0  0
   11.5118    0.9914    0.0000 H   0  0  0  0  0  0  0  0  0  0  0  0
   11.9958    4.0011    0.0000 H   0  0  0  0  0  0  0  0  0  0  0  0
   11.3154    4.5541    0.0000 H   0  0  0  0  0  0  0  0  0  0  0  0
   10.7624    3.8736    0.0000 H   0  0  0  0  0  0  0  0  0  0  0  0
   12.5404    2.4287    0.0000 H   0  0  0  0  0  0  0  0  0  0  0  0
   13.0934    3.1092    0.0000 H   0  0  0  0  0  0  0  0  0  0  0  0
   12.4129    3.6622    0.0000 H   0  0  0  0  0  0  0  0  0  0  0  0
   10.4235    3.4566    0.0000 H   0  0  0  0  0  0  0  0  0  0  0  0
    9.8705    2.7761    0.0000 H   0  0  0  0  0  0  0  0  0  0  0  0
   10.5510    2.2231    0.0000 H   0  0  0  0  0  0  0  0  0  0  0  0
  1  5  1  0  0  0  0
  1 30  1  0  0  0  0
  1 31  1  0  0  0  0
  1 32  1  0  0  0  0
  2  6  1  0  0  0  0
  2 33  1  0  0  0  0
  2 34  1  0  0  0  0
  2 35  1  0  0  0  0
  3  7  1  0  0  0  0
  3 36  1  0  0  0  0
  3 37  1  0  0  0  0
  3 38  1  0  0  0  0
  4  8  1  0  0  0  0
  4 39  1  0  0  0  0
  4 40  1  0  0  0  0
  4 41  1  0  0  0  0
  5 15  1  0  0  0  0
  6 27  1  0  0  0  0
  7 28  1  0  0  0  0
  8 29  1  0  0  0  0
  9 10  1  0  0  0  0
  9 11  1  0  0  0  0
  9 18  1  0  0  0  0
  9 42  1  0  0  0  0
 10 12  1  0  0  0  0
 10 19  1  0  0  0  0
 10 43  1  0  0  0  0
 11 13  1  0  0  0  0
 11 16  1  0  0  0  0
 11 44  1  0  0  0  0
 12 15  1  0  0  0  0
 12 17  1  0  0  0  0
 12 24  1  0  0  0  0
 13 14  1  0  0  0  0
 13 22  1  0  0  0  0
 13 25  1  0  0  0  0
 14 20  1  0  0  0  0
 14 23  1  0  0  0  0
 14 45  1  0  0  0  0
 15 21  1  0  0  0  0
 15 28  1  0  0  0  0
 16 17  1  0  0  0  0
 16 46  1  0  0  0  0
 16 47  1  0  0  0  0
 17 48  1  0  0  0  0
 17 49  1  0  0  0  0
 18 20  1  0  0  0  0
 18 50  1  0  0  0  0
 18 51  1  0  0  0  0
 19 21  1  0  0  0  0
 19 52  1  0  0  0  0
 19 53  1  0  0  0  0
 20 54  1  0  0  0  0
 20 55  1  0  0  0  0
 21 56  1  0  0  0  0
 21 57  1  0  0  0  0
 22 26  1  0  0  0  0
 22 58  1  0  0  0  0
 22 59  1  0  0  0  0
 23 27  1  0  0  0  0
 23 60  1  0  0  0  0
 23 61  1  0  0  0  0
 24 62  1  0  0  0  0
 24 63  1  0  0  0  0
 24 64  1  0  0  0  0
 25 65  1  0  0  0  0
 25 66  1  0  0  0  0
 25 67  1  0  0  0  0
 26 27  1  0  0  0  0
 26 68  1  0  0  0  0
 26 69  1  0  0  0  0
 27 70  1  0  0  0  0
 28 29  2  3  0  0  0
 29 71  1  0  0  0  0
 30 72  1  0  0  0  0
 30 73  1  0  0  0  0
 30 74  1  0  0  0  0
 31 75  1  0  0  0  0
 31 76  1  0  0  0  0
 31 77  1  0  0  0  0
 32 78  1  0  0  0  0
 32 79  1  0  0  0  0
 32 80  1  0  0  0  0
 33 81  1  0  0  0  0
 33 82  1  0  0  0  0
 33 83  1  0  0  0  0
 34 84  1  0  0  0  0
 34 85  1  0  0  0  0
 34 86  1  0  0  0  0
 35 87  1  0  0  0  0
 35 88  1  0  0  0  0
 35 89  1  0  0  0  0
 36 90  1  0  0  0  0
 36 91  1  0  0  0  0
 36 92  1  0  0  0  0
 37 93  1  0  0  0  0
 37 94  1  0  0  0  0
 37 95  1  0  0  0  0
 38 96  1  0  0  0  0
 38 97  1  0  0  0  0
 38 98  1  0  0  0  0
 39 99  1  0  0  0  0
 39100  1  0  0  0  0
 39101  1  0  0  0  0
 40102  1  0  0  0  0
 40103  1  0  0  0  0
 40104  1  0  0  0  0
 41105  1  0  0  0  0
 41106  1  0  0  0  0
 41107  1  0  0  0  0
M  END
> <PUBCHEM_COMPOUND_CID>
521113
> <PUBCHEM_COMPOUND_CANONICALIZED>
1
> <PUBCHEM_CACTVS_COMPLEXITY>
974
> <PUBCHEM_CACTVS_HBOND_ACCEPTOR>
4
> <PUBCHEM_CACTVS_HBOND_DONOR>
0
> <PUBCHEM_CACTVS_ROTATABLE_BOND>
9
> <PUBCHEM_CACTVS_SUBSKEYS>
AAADcfB8OAwAAAAAAAAAAAAAAAAAAYAAAAAwYMAAAAAAAGDAAAAAGhAAAEAAD1SggAJCAAAAAAGAAABCAAAAAAAgIAAAAAAAAAgBBAIAAAAAAAAEgAAAAAGAwPAPgAAAAAAAAADAAAYAACAAAYAADAAAAA==
> <PUBCHEM_IUPAC_OPENEYE_NAME>
[17-[1,2-bis(trimethylsilyloxy)vinyl]-10,13-dimethyl-3-trimethylsilyloxy-1,2,3,4,5,6,7,8,9,11,12,14,15,16-tetradecahydrocyclopenta[a]phenanthren-17-yl]oxy-trimethyl-silane
> <PUBCHEM_IUPAC_CAS_NAME>
[17-[1,2-bis(trimethylsilyloxy)ethenyl]-10,13-dimethyl-3-trimethylsilyloxy-1,2,3,4,5,6,7,8,9,11,12,14,15,16-tetradecahydrocyclopenta[a]phenanthren-17-yl]oxy-trimethylsilane
> <PUBCHEM_IUPAC_NAME_MARKUP>
[17-[1,2-bis(trimethylsilyloxy)ethenyl]-10,13-dimethyl-3-trimethylsilyloxy-1,2,3,4,5,6,7,8,9,11,12,14,15,16-tetradecahydrocyclopenta[a]phenanthren-17-yl]oxy-trimethylsilane
> <PUBCHEM_IUPAC_NAME>
[17-[1,2-bis(trimethylsilyloxy)ethenyl]-10,13-dimethyl-3-trimethylsilyloxy-1,2,3,4,5,6,7,8,9,11,12,14,15,16-tetradecahydrocyclopenta[a]phenanthren-17-yl]oxy-trimethylsilane
> <PUBCHEM_IUPAC_SYSTEMATIC_NAME>
[17-[1,2-bis(trimethylsilyloxy)ethenyl]-10,13-dimethyl-3-trimethylsilyloxy-1,2,3,4,5,6,7,8,9,11,12,14,15,16-tetradecahydrocyclopenta[a]phenanthren-17-yl]oxy-trimethyl-silane
> <PUBCHEM_IUPAC_TRADITIONAL_NAME>
[17-[1,2-bis(trimethylsilyloxy)vinyl]-10,13-dimethyl-3-trimethylsilyloxy-1,2,3,4,5,6,7,8,9,11,12,14,15,16-tetradecahydrocyclopenta[a]phenanthren-17-yl]oxy-trimethyl-silane
> <PUBCHEM_IUPAC_INCHI>
InChI=1S/C33H66O4Si4/c1-31-20-17-26(35-39(6,7)8)23-25(31)15-16-27-28(31)18-21-32(2)29(27)19-22-33(32,37-41(12,13)14)30(36-40(9,10)11)24-34-38(3,4)5/h24-29H,15-23H2,1-14H3
> <PUBCHEM_IUPAC_INCHIKEY>
YCSSNBJCYDGPCA-UHFFFAOYSA-N
> <PUBCHEM_EXACT_MASS>
638.40381672
> <PUBCHEM_MOLECULAR_FORMULA>
C33H66O4Si4
> <PUBCHEM_MOLECULAR_WEIGHT>
639.2
> <PUBCHEM_OPENEYE_CAN_SMILES>
CC12CCC(CC1CCC3C2CCC4(C3CCC4(C(=CO[Si](C)(C)C)O[Si](C)(C)C)O[Si](C)(C)C)C)O[Si](C)(C)C
> <PUBCHEM_OPENEYE_ISO_SMILES>
CC12CCC(CC1CCC3C2CCC4(C3CCC4(C(=CO[Si](C)(C)C)O[Si](C)(C)C)O[Si](C)(C)C)C)O[Si](C)(C)C
> <PUBCHEM_CACTVS_TPSA>
36.9
> <PUBCHEM_MONOISOTOPIC_WEIGHT>
638.40381672
> <PUBCHEM_TOTAL_CHARGE>
0
> <PUBCHEM_HEAVY_ATOM_COUNT>
41
> <PUBCHEM_ATOM_DEF_STEREO_COUNT>
0
> <PUBCHEM_ATOM_UDEF_STEREO_COUNT>
8
> <PUBCHEM_BOND_DEF_STEREO_COUNT>
0
> <PUBCHEM_BOND_UDEF_STEREO_COUNT>
1
> <PUBCHEM_ISOTOPIC_ATOM_COUNT>
0
> <PUBCHEM_COMPONENT_COUNT>
1
> <PUBCHEM_CACTVS_TAUTO_COUNT>
-1
> <PUBCHEM_COORDINATE_TYPE>
1
5
255
> <PUBCHEM_BONDANNOTATIONS>
10  19  3
11  16  3
12  24  3
13  25  3
14  20  3
15  28  3
28  29  1
27  6  3
9  18  3
$$$$
