521125
  -OEChem-10302200292D
 22 21  0     1  0  0  0  0  0999 V2000
    2.5369    0.5000    0.0000 O   0  0  0  0  0  0  0  0  0  0  0  0
    6.0010    1.5000    0.0000 O   0  0  0  0  0  0  0  0  0  0  0  0
    5.1350    0.0000    0.0000 N   0  0  0  0  0  0  0  0  0  0  0  0
    3.4030    0.0000    0.0000 C   0  0  3  0  0  0  0  0  0  0  0  0
    3.4030   -1.0000    0.0000 C   0  0  0  0  0  0  0  0  0  0  0  0
    4.2690    0.5000    0.0000 C   0  0  0  0  0  0  0  0  0  0  0  0
    2.5369   -1.5000    0.0000 C   0  0  0  0  0  0  0  0  0  0  0  0
    6.0010    0.5000    0.0000 C   0  0  0  0  0  0  0  0  0  0  0  0
    6.8671   -0.0000    0.0000 C   0  0  0  0  0  0  0  0  0  0  0  0
    3.4030    0.6200    0.0000 H   0  0  0  0  0  0  0  0  0  0  0  0
    3.6150   -1.5826    0.0000 H   0  0  0  0  0  0  0  0  0  0  0  0
    4.0135   -0.8923    0.0000 H   0  0  0  0  0  0  0  0  0  0  0  0
    4.6675    0.9749    0.0000 H   0  0  0  0  0  0  0  0  0  0  0  0
    3.8705    0.9749    0.0000 H   0  0  0  0  0  0  0  0  0  0  0  0
    2.2269   -0.9631    0.0000 H   0  0  0  0  0  0  0  0  0  0  0  0
    2.0000   -1.8100    0.0000 H   0  0  0  0  0  0  0  0  0  0  0  0
    2.8469   -2.0369    0.0000 H   0  0  0  0  0  0  0  0  0  0  0  0
    5.1350   -0.6200    0.0000 H   0  0  0  0  0  0  0  0  0  0  0  0
    2.0000    0.1900    0.0000 H   0  0  0  0  0  0  0  0  0  0  0  0
    6.5571   -0.5369    0.0000 H   0  0  0  0  0  0  0  0  0  0  0  0
    7.4040   -0.3100    0.0000 H   0  0  0  0  0  0  0  0  0  0  0  0
    7.1771    0.5369    0.0000 H   0  0  0  0  0  0  0  0  0  0  0  0
  1  4  1  0  0  0  0
  1 19  1  0  0  0  0
  2  8  2  0  0  0  0
  3  6  1  0  0  0  0
  3  8  1  0  0  0  0
  3 18  1  0  0  0  0
  4  5  1  0  0  0  0
  4  6  1  0  0  0  0
  4 10  1  0  0  0  0
  5  7  1  0  0  0  0
  5 11  1  0  0  0  0
  5 12  1  0  0  0  0
  6 13  1  0  0  0  0
  6 14  1  0  0  0  0
  7 15  1  0  0  0  0
  7 16  1  0  0  0  0
  7 17  1  0  0  0  0
  8  9  1  0  0  0  0
  9 20  1  0  0  0  0
  9 21  1  0  0  0  0
  9 22  1  0  0  0  0
M  END
> <PUBCHEM_COMPOUND_CID>
521125
> <PUBCHEM_COMPOUND_CANONICALIZED>
1
> <PUBCHEM_CACTVS_COMPLEXITY>
93.1
> <PUBCHEM_CACTVS_HBOND_ACCEPTOR>
2
> <PUBCHEM_CACTVS_HBOND_DONOR>
2
> <PUBCHEM_CACTVS_ROTATABLE_BOND>
3
> <PUBCHEM_CACTVS_SUBSKEYS>
AAADccBiMAAAAAAAAAAAAAAAAAAAAAAAAAAAAAAAAAAAAAAAAAAAHgAQCAAACBThgAYCAALAAgAIAAEQEAAAAAAAAAAAAIAIAAACEAAAgAAEQAAAFgCQAAAAAAAAAAAAAAAAAAAAAAAAAAAAAAAAAAAAAA==
> <PUBCHEM_IUPAC_OPENEYE_NAME>
N-(2-hydroxybutyl)acetamide
> <PUBCHEM_IUPAC_CAS_NAME>
N-(2-hydroxybutyl)acetamide
> <PUBCHEM_IUPAC_NAME_MARKUP>
<I>N</I>-(2-hydroxybutyl)acetamide
> <PUBCHEM_IUPAC_NAME>
N-(2-hydroxybutyl)acetamide
> <PUBCHEM_IUPAC_SYSTEMATIC_NAME>
N-(2-oxidanylbutyl)ethanamide
> <PUBCHEM_IUPAC_TRADITIONAL_NAME>
N-(2-hydroxybutyl)acetamide
> <PUBCHEM_IUPAC_INCHI>
InChI=1S/C6H13NO2/c1-3-6(9)4-7-5(2)8/h6,9H,3-4H2,1-2H3,(H,7,8)
> <PUBCHEM_IUPAC_INCHIKEY>
LTKKVHOQYLMJFD-UHFFFAOYSA-N
> <PUBCHEM_XLOGP3_AA>
-0.2
> <PUBCHEM_EXACT_MASS>
131.094628657
> <PUBCHEM_MOLECULAR_FORMULA>
C6H13NO2
> <PUBCHEM_MOLECULAR_WEIGHT>
131.17
> <PUBCHEM_OPENEYE_CAN_SMILES>
CCC(CNC(=O)C)O
> <PUBCHEM_OPENEYE_ISO_SMILES>
CCC(CNC(=O)C)O
> <PUBCHEM_CACTVS_TPSA>
49.3
> <PUBCHEM_MONOISOTOPIC_WEIGHT>
131.094628657
> <PUBCHEM_TOTAL_CHARGE>
0
> <PUBCHEM_HEAVY_ATOM_COUNT>
9
> <PUBCHEM_ATOM_DEF_STEREO_COUNT>
0
> <PUBCHEM_ATOM_UDEF_STEREO_COUNT>
1
> <PUBCHEM_BOND_DEF_STEREO_COUNT>
0
> <PUBCHEM_BOND_UDEF_STEREO_COUNT>
0
> <PUBCHEM_ISOTOPIC_ATOM_COUNT>
0
> <PUBCHEM_COMPONENT_COUNT>
1
> <PUBCHEM_CACTVS_TAUTO_COUNT>
-1
> <PUBCHEM_COORDINATE_TYPE>
1
5
255
> <PUBCHEM_BONDANNOTATIONS>
4  1  3
$$$$
