521237
  -OEChem-10302200292D
 32 33  0     1  0  0  0  0  0999 V2000
    4.7320   -2.3660    0.0000 O   0  0  0  0  0  0  0  0  0  0  0  0
    2.0000    2.3660    0.0000 O   0  0  0  0  0  0  0  0  0  0  0  0
    3.3660    0.0000    0.0000 N   0  0  0  0  0  0  0  0  0  0  0  0
    4.2320   -1.5000    0.0000 C   0  0  3  0  0  0  0  0  0  0  0  0
    2.5000    1.5000    0.0000 C   0  0  3  0  0  0  0  0  0  0  0  0
    3.3660   -1.0000    0.0000 C   0  0  0  0  0  0  0  0  0  0  0  0
    2.5000    0.5000    0.0000 C   0  0  0  0  0  0  0  0  0  0  0  0
    5.2320   -1.5000    0.0000 C   0  0  0  0  0  0  0  0  0  0  0  0
    3.0000    2.3660    0.0000 C   0  0  0  0  0  0  0  0  0  0  0  0
    4.2320    0.5000    0.0000 C   0  0  0  0  0  0  0  0  0  0  0  0
    5.0981    0.0000    0.0000 C   0  0  0  0  0  0  0  0  0  0  0  0
    5.9641    0.5000    0.0000 C   0  0  0  0  0  0  0  0  0  0  0  0
    6.8301    0.0000    0.0000 C   0  0  0  0  0  0  0  0  0  0  0  0
    3.7936   -1.9384    0.0000 H   0  0  0  0  0  0  0  0  0  0  0  0
    1.9011    1.3395    0.0000 H   0  0  0  0  0  0  0  0  0  0  0  0
    2.7554   -0.8923    0.0000 H   0  0  0  0  0  0  0  0  0  0  0  0
    3.1540   -1.5826    0.0000 H   0  0  0  0  0  0  0  0  0  0  0  0
    1.8894    0.6077    0.0000 H   0  0  0  0  0  0  0  0  0  0  0  0
    2.2880   -0.0826    0.0000 H   0  0  0  0  0  0  0  0  0  0  0  0
    5.8147   -1.7120    0.0000 H   0  0  0  0  0  0  0  0  0  0  0  0
    5.3397   -0.8894    0.0000 H   0  0  0  0  0  0  0  0  0  0  0  0
    3.5826    2.1540    0.0000 H   0  0  0  0  0  0  0  0  0  0  0  0
    3.1077    2.9766    0.0000 H   0  0  0  0  0  0  0  0  0  0  0  0
    4.6306    0.9749    0.0000 H   0  0  0  0  0  0  0  0  0  0  0  0
    3.8335    0.9749    0.0000 H   0  0  0  0  0  0  0  0  0  0  0  0
    4.6996   -0.4749    0.0000 H   0  0  0  0  0  0  0  0  0  0  0  0
    5.4966   -0.4749    0.0000 H   0  0  0  0  0  0  0  0  0  0  0  0
    6.3626    0.9749    0.0000 H   0  0  0  0  0  0  0  0  0  0  0  0
    5.5656    0.9749    0.0000 H   0  0  0  0  0  0  0  0  0  0  0  0
    6.5201   -0.5369    0.0000 H   0  0  0  0  0  0  0  0  0  0  0  0
    7.3671   -0.3100    0.0000 H   0  0  0  0  0  0  0  0  0  0  0  0
    7.1401    0.5369    0.0000 H   0  0  0  0  0  0  0  0  0  0  0  0
  1  4  1  0  0  0  0
  1  8  1  0  0  0  0
  2  5  1  0  0  0  0
  2  9  1  0  0  0  0
  3  6  1  0  0  0  0
  3  7  1  0  0  0  0
  3 10  1  0  0  0  0
  4  6  1  0  0  0  0
  4  8  1  0  0  0  0
  4 14  1  0  0  0  0
  5  7  1  0  0  0  0
  5  9  1  0  0  0  0
  5 15  1  0  0  0  0
  6 16  1  0  0  0  0
  6 17  1  0  0  0  0
  7 18  1  0  0  0  0
  7 19  1  0  0  0  0
  8 20  1  0  0  0  0
  8 21  1  0  0  0  0
  9 22  1  0  0  0  0
  9 23  1  0  0  0  0
 10 11  1  0  0  0  0
 10 24  1  0  0  0  0
 10 25  1  0  0  0  0
 11 12  1  0  0  0  0
 11 26  1  0  0  0  0
 11 27  1  0  0  0  0
 12 13  1  0  0  0  0
 12 28  1  0  0  0  0
 12 29  1  0  0  0  0
 13 30  1  0  0  0  0
 13 31  1  0  0  0  0
 13 32  1  0  0  0  0
M  END
> <PUBCHEM_COMPOUND_CID>
521237
> <PUBCHEM_COMPOUND_CANONICALIZED>
1
> <PUBCHEM_CACTVS_COMPLEXITY>
149
> <PUBCHEM_CACTVS_HBOND_ACCEPTOR>
3
> <PUBCHEM_CACTVS_HBOND_DONOR>
0
> <PUBCHEM_CACTVS_ROTATABLE_BOND>
7
> <PUBCHEM_CACTVS_SUBSKEYS>
AAADceByMAAAAAAAAAAAAAAAEiQAAAAAAAAAAAAAAAAAAAAAAAAAHgAAAAAACBThgAYCAAMABAAAAAAAAAAAAAAAAAAAAAAIAAACAAAAgAAFAAACAACQAAAAAAAAAAAAAAAAAAAAAAAAAAAAAAAAAAAAAA==
> <PUBCHEM_IUPAC_OPENEYE_NAME>
N,N-bis(oxiran-2-ylmethyl)butan-1-amine
> <PUBCHEM_IUPAC_CAS_NAME>
N,N-bis(2-oxiranylmethyl)-1-butanamine
> <PUBCHEM_IUPAC_NAME_MARKUP>
<I>N</I>,<I>N</I>-bis(oxiran-2-ylmethyl)butan-1-amine
> <PUBCHEM_IUPAC_NAME>
N,N-bis(oxiran-2-ylmethyl)butan-1-amine
> <PUBCHEM_IUPAC_SYSTEMATIC_NAME>
N,N-bis(oxiran-2-ylmethyl)butan-1-amine
> <PUBCHEM_IUPAC_TRADITIONAL_NAME>
butyl(diglycidyl)amine
> <PUBCHEM_IUPAC_INCHI>
InChI=1S/C10H19NO2/c1-2-3-4-11(5-9-7-12-9)6-10-8-13-10/h9-10H,2-8H2,1H3
> <PUBCHEM_IUPAC_INCHIKEY>
LJDKIFXJERTLMR-UHFFFAOYSA-N
> <PUBCHEM_XLOGP3_AA>
0.9
> <PUBCHEM_EXACT_MASS>
185.141578849
> <PUBCHEM_MOLECULAR_FORMULA>
C10H19NO2
> <PUBCHEM_MOLECULAR_WEIGHT>
185.26
> <PUBCHEM_OPENEYE_CAN_SMILES>
CCCCN(CC1CO1)CC2CO2
> <PUBCHEM_OPENEYE_ISO_SMILES>
CCCCN(CC1CO1)CC2CO2
> <PUBCHEM_CACTVS_TPSA>
28.3
> <PUBCHEM_MONOISOTOPIC_WEIGHT>
185.141578849
> <PUBCHEM_TOTAL_CHARGE>
0
> <PUBCHEM_HEAVY_ATOM_COUNT>
13
> <PUBCHEM_ATOM_DEF_STEREO_COUNT>
0
> <PUBCHEM_ATOM_UDEF_STEREO_COUNT>
2
> <PUBCHEM_BOND_DEF_STEREO_COUNT>
0
> <PUBCHEM_BOND_UDEF_STEREO_COUNT>
0
> <PUBCHEM_ISOTOPIC_ATOM_COUNT>
0
> <PUBCHEM_COMPONENT_COUNT>
1
> <PUBCHEM_CACTVS_TAUTO_COUNT>
-1
> <PUBCHEM_COORDINATE_TYPE>
1
5
255
> <PUBCHEM_BONDANNOTATIONS>
4  6  3
5  7  3
$$$$
