521264
  -OEChem-10302200292D
 20 20  0     1  0  0  0  0  0999 V2000
    3.4013   -2.4407    0.0000 O   0  5  0  0  0  0  0  0  0  0  0  0
    2.0000   -1.4226    0.0000 O   0  0  0  0  0  0  0  0  0  0  0  0
    4.0823    1.8207    0.0000 N   0  3  0  0  0  0  0  0  0  0  0  0
    4.0823    0.8207    0.0000 C   0  0  3  0  0  0  0  0  0  0  0  0
    3.5823   -0.7181    0.0000 C   0  0  3  0  0  0  0  0  0  0  0  0
    3.2733    0.2329    0.0000 C   0  0  0  0  0  0  0  0  0  0  0  0
    4.8913    0.2329    0.0000 C   0  0  0  0  0  0  0  0  0  0  0  0
    4.5823   -0.7181    0.0000 C   0  0  0  0  0  0  0  0  0  0  0  0
    2.9945   -1.5272    0.0000 C   0  0  0  0  0  0  0  0  0  0  0  0
    4.6347    1.1022    0.0000 H   0  0  0  0  0  0  0  0  0  0  0  0
    2.9699   -0.6212    0.0000 H   0  0  0  0  0  0  0  0  0  0  0  0
    2.9633    0.7699    0.0000 H   0  0  0  0  0  0  0  0  0  0  0  0
    2.7069   -0.0193    0.0000 H   0  0  0  0  0  0  0  0  0  0  0  0
    5.4577   -0.0193    0.0000 H   0  0  0  0  0  0  0  0  0  0  0  0
    5.2013    0.7699    0.0000 H   0  0  0  0  0  0  0  0  0  0  0  0
    4.5175   -1.3347    0.0000 H   0  0  0  0  0  0  0  0  0  0  0  0
    5.1888   -0.8470    0.0000 H   0  0  0  0  0  0  0  0  0  0  0  0
    4.0823    2.4407    0.0000 H   0  0  0  0  0  0  0  0  0  0  0  0
    4.7023    1.8207    0.0000 H   0  0  0  0  0  0  0  0  0  0  0  0
    3.4623    1.8207    0.0000 H   0  0  0  0  0  0  0  0  0  0  0  0
  1  9  1  0  0  0  0
  2  9  2  0  0  0  0
  3  4  1  0  0  0  0
  3 18  1  0  0  0  0
  3 19  1  0  0  0  0
  3 20  1  0  0  0  0
  4  6  1  0  0  0  0
  4  7  1  0  0  0  0
  4 10  1  0  0  0  0
  5  6  1  0  0  0  0
  5  8  1  0  0  0  0
  5  9  1  0  0  0  0
  5 11  1  0  0  0  0
  6 12  1  0  0  0  0
  6 13  1  0  0  0  0
  7  8  1  0  0  0  0
  7 14  1  0  0  0  0
  7 15  1  0  0  0  0
  8 16  1  0  0  0  0
  8 17  1  0  0  0  0
M  CHG  2   1  -1   3   1
M  END
> <PUBCHEM_COMPOUND_CID>
521264
> <PUBCHEM_COMPOUND_CANONICALIZED>
1
> <PUBCHEM_CACTVS_COMPLEXITY>
119
> <PUBCHEM_CACTVS_HBOND_ACCEPTOR>
2
> <PUBCHEM_CACTVS_HBOND_DONOR>
1
> <PUBCHEM_CACTVS_ROTATABLE_BOND>
0
> <PUBCHEM_CACTVS_SUBSKEYS>
AAADccBiMAAAAAAAAAAAAAAAAAAAAYAAAAAAAAAAAAAAAAAAAAAAHgAQAAAADSjBgAQACABAAAAIAACQCAAAAAAAAAAAAIEAAAAAABIAgAAAAAAEEAAAAAG8WQEeAAAAAAAAAAAAAAAAAAAAACAAAAAAAA==
> <PUBCHEM_IUPAC_OPENEYE_NAME>
3-azaniumylcyclopentanecarboxylate
> <PUBCHEM_IUPAC_CAS_NAME>
3-ammonio-1-cyclopentanecarboxylate
> <PUBCHEM_IUPAC_NAME_MARKUP>
3-azaniumylcyclopentane-1-carboxylate
> <PUBCHEM_IUPAC_NAME>
3-azaniumylcyclopentane-1-carboxylate
> <PUBCHEM_IUPAC_SYSTEMATIC_NAME>
3-azaniumylcyclopentane-1-carboxylate
> <PUBCHEM_IUPAC_TRADITIONAL_NAME>
3-ammoniocyclopentanecarboxylate
> <PUBCHEM_IUPAC_INCHI>
InChI=1S/C6H11NO2/c7-5-2-1-4(3-5)6(8)9/h4-5H,1-3,7H2,(H,8,9)
> <PUBCHEM_IUPAC_INCHIKEY>
MLLSSTJTARJLHK-UHFFFAOYSA-N
> <PUBCHEM_XLOGP3_AA>
-1.9
> <PUBCHEM_EXACT_MASS>
129.078978594
> <PUBCHEM_MOLECULAR_FORMULA>
C6H11NO2
> <PUBCHEM_MOLECULAR_WEIGHT>
129.16
> <PUBCHEM_OPENEYE_CAN_SMILES>
C1CC(CC1C(=O)[O-])[NH3+]
> <PUBCHEM_OPENEYE_ISO_SMILES>
C1CC(CC1C(=O)[O-])[NH3+]
> <PUBCHEM_CACTVS_TPSA>
67.8
> <PUBCHEM_MONOISOTOPIC_WEIGHT>
129.078978594
> <PUBCHEM_TOTAL_CHARGE>
0
> <PUBCHEM_HEAVY_ATOM_COUNT>
9
> <PUBCHEM_ATOM_DEF_STEREO_COUNT>
0
> <PUBCHEM_ATOM_UDEF_STEREO_COUNT>
2
> <PUBCHEM_BOND_DEF_STEREO_COUNT>
0
> <PUBCHEM_BOND_UDEF_STEREO_COUNT>
0
> <PUBCHEM_ISOTOPIC_ATOM_COUNT>
0
> <PUBCHEM_COMPONENT_COUNT>
1
> <PUBCHEM_CACTVS_TAUTO_COUNT>
-1
> <PUBCHEM_COORDINATE_TYPE>
1
5
255
> <PUBCHEM_BONDANNOTATIONS>
4  3  3
5  9  3
$$$$
