521208
  -OEChem-10302200292D
 41 44  0     1  0  0  0  0  0999 V2000
    4.6000   -1.7360    0.0000 O   0  0  0  0  0  0  0  0  0  0  0  0
    9.5828    0.2437    0.0000 O   0  0  0  0  0  0  0  0  0  0  0  0
    3.7360   -0.1774    0.0000 N   0  0  0  0  0  0  0  0  0  0  0  0
    7.8349   -0.0363    0.0000 N   0  0  0  0  0  0  0  0  0  0  0  0
    6.0449    1.0950    0.0000 C   0  0  3  0  0  0  0  0  0  0  0  0
    5.7861    0.1290    0.0000 C   0  0  3  0  0  0  0  0  0  0  0  0
    4.0117    0.7838    0.0000 C   0  0  3  0  0  0  0  0  0  0  0  0
    7.0578   -0.6656    0.0000 C   0  0  3  0  0  0  0  0  0  0  0  0
    5.3083    2.0776    0.0000 C   0  0  0  0  0  0  0  0  0  0  0  0
    7.4765    0.8973    0.0000 C   0  0  0  0  0  0  0  0  0  0  0  0
    4.5650   -0.7366    0.0000 C   0  0  0  0  0  0  0  0  0  0  0  0
    3.2997    1.5442    0.0000 C   0  0  0  0  0  0  0  0  0  0  0  0
    7.2048   -1.6968    0.0000 C   0  0  0  0  0  0  0  0  0  0  0  0
    2.7293   -0.4450    0.0000 C   0  0  0  0  0  0  0  0  0  0  0  0
    2.2871    1.3000    0.0000 C   0  0  0  0  0  0  0  0  0  0  0  0
    2.0000    0.2987    0.0000 C   0  0  0  0  0  0  0  0  0  0  0  0
    8.1744   -2.0776    0.0000 C   0  0  0  0  0  0  0  0  0  0  0  0
    8.8130   -0.3945    0.0000 C   0  0  0  0  0  0  0  0  0  0  0  0
    8.9839   -1.4220    0.0000 C   0  0  0  0  0  0  0  0  0  0  0  0
    6.0494    0.4750    0.0000 H   0  0  0  0  0  0  0  0  0  0  0  0
    6.2884    0.4925    0.0000 H   0  0  0  0  0  0  0  0  0  0  0  0
    4.2144    1.3697    0.0000 H   0  0  0  0  0  0  0  0  0  0  0  0
    6.5381   -1.0038    0.0000 H   0  0  0  0  0  0  0  0  0  0  0  0
    5.6261    2.6099    0.0000 H   0  0  0  0  0  0  0  0  0  0  0  0
    4.6951    2.1695    0.0000 H   0  0  0  0  0  0  0  0  0  0  0  0
    8.0844    1.0196    0.0000 H   0  0  0  0  0  0  0  0  0  0  0  0
    7.4575    1.5170    0.0000 H   0  0  0  0  0  0  0  0  0  0  0  0
    3.8181    1.8842    0.0000 H   0  0  0  0  0  0  0  0  0  0  0  0
    3.0534    2.1131    0.0000 H   0  0  0  0  0  0  0  0  0  0  0  0
    6.5851   -1.6780    0.0000 H   0  0  0  0  0  0  0  0  0  0  0  0
    7.0803   -2.3042    0.0000 H   0  0  0  0  0  0  0  0  0  0  0  0
    2.2189   -0.7969    0.0000 H   0  0  0  0  0  0  0  0  0  0  0  0
    2.9888   -1.0081    0.0000 H   0  0  0  0  0  0  0  0  0  0  0  0
    2.2470    1.9187    0.0000 H   0  0  0  0  0  0  0  0  0  0  0  0
    1.6707    1.3664    0.0000 H   0  0  0  0  0  0  0  0  0  0  0  0
    1.4420    0.5691    0.0000 H   0  0  0  0  0  0  0  0  0  0  0  0
    1.6382   -0.2048    0.0000 H   0  0  0  0  0  0  0  0  0  0  0  0
    7.8523   -2.6074    0.0000 H   0  0  0  0  0  0  0  0  0  0  0  0
    8.6412   -2.4855    0.0000 H   0  0  0  0  0  0  0  0  0  0  0  0
    9.2858   -1.9635    0.0000 H   0  0  0  0  0  0  0  0  0  0  0  0
    9.5690   -1.2172    0.0000 H   0  0  0  0  0  0  0  0  0  0  0  0
  1 11  2  0  0  0  0
  2 18  2  0  0  0  0
  3  7  1  0  0  0  0
  3 11  1  0  0  0  0
  3 14  1  0  0  0  0
  4  8  1  0  0  0  0
  4 10  1  0  0  0  0
  4 18  1  0  0  0  0
  5  7  1  0  0  0  0
  5  9  1  0  0  0  0
  5 10  1  0  0  0  0
  5 20  1  0  0  0  0
  6  8  1  0  0  0  0
  6  9  1  0  0  0  0
  6 11  1  0  0  0  0
  6 21  1  0  0  0  0
  7 12  1  0  0  0  0
  7 22  1  0  0  0  0
  8 13  1  0  0  0  0
  8 23  1  0  0  0  0
  9 24  1  0  0  0  0
  9 25  1  0  0  0  0
 10 26  1  0  0  0  0
 10 27  1  0  0  0  0
 12 15  1  0  0  0  0
 12 28  1  0  0  0  0
 12 29  1  0  0  0  0
 13 17  1  0  0  0  0
 13 30  1  0  0  0  0
 13 31  1  0  0  0  0
 14 16  1  0  0  0  0
 14 32  1  0  0  0  0
 14 33  1  0  0  0  0
 15 16  1  0  0  0  0
 15 34  1  0  0  0  0
 15 35  1  0  0  0  0
 16 36  1  0  0  0  0
 16 37  1  0  0  0  0
 17 19  1  0  0  0  0
 17 38  1  0  0  0  0
 17 39  1  0  0  0  0
 18 19  1  0  0  0  0
 19 40  1  0  0  0  0
 19 41  1  0  0  0  0
M  END
> <PUBCHEM_COMPOUND_CID>
521208
> <PUBCHEM_COMPOUND_CANONICALIZED>
1
> <PUBCHEM_CACTVS_COMPLEXITY>
422
> <PUBCHEM_CACTVS_HBOND_ACCEPTOR>
2
> <PUBCHEM_CACTVS_HBOND_DONOR>
0
> <PUBCHEM_CACTVS_ROTATABLE_BOND>
0
> <PUBCHEM_CACTVS_SUBSKEYS>
AAADceBzMAAAAAAAAAAAAAAAAAAAAAAAAAAsWLFgAAAWAACwAAAAHgAAAAAADSjBgAQAAAMAAAAIAAEQEAAAAAAAAAAAAAEIAAAAABoAwAAEAAAABgCAAAEYicCeAAAAAAAAAAAAAAAAAAAAAAAAAAAAAA==
> <PUBCHEM_IUPAC_OPENEYE_NAME>
7,15-diazatetracyclo[7.7.1.02,7.010,15]heptadecane-6,16-dione
> <PUBCHEM_IUPAC_CAS_NAME>
7,15-diazatetracyclo[7.7.1.02,7.010,15]heptadecane-6,16-dione
> <PUBCHEM_IUPAC_NAME_MARKUP>
7,15-diazatetracyclo[7.7.1.0<SUP>2,7</SUP>.0<SUP>10,15</SUP>]heptadecane-6,16-dione
> <PUBCHEM_IUPAC_NAME>
7,15-diazatetracyclo[7.7.1.02,7.010,15]heptadecane-6,16-dione
> <PUBCHEM_IUPAC_SYSTEMATIC_NAME>
7,15-diazatetracyclo[7.7.1.02,7.010,15]heptadecane-6,16-dione
> <PUBCHEM_IUPAC_TRADITIONAL_NAME>
7,15-diazatetracyclo[7.7.1.02,7.010,15]heptadecane-6,16-quinone
> <PUBCHEM_IUPAC_INCHI>
InChI=1S/C15H22N2O2/c18-14-6-3-5-13-11-8-10(9-17(13)14)12-4-1-2-7-16(12)15(11)19/h10-13H,1-9H2
> <PUBCHEM_IUPAC_INCHIKEY>
HBYSMHYHSFSCED-UHFFFAOYSA-N
> <PUBCHEM_XLOGP3_AA>
0.8
> <PUBCHEM_EXACT_MASS>
262.168127949
> <PUBCHEM_MOLECULAR_FORMULA>
C15H22N2O2
> <PUBCHEM_MOLECULAR_WEIGHT>
262.35
> <PUBCHEM_OPENEYE_CAN_SMILES>
C1CCN2C(C1)C3CC(C2=O)C4CCCC(=O)N4C3
> <PUBCHEM_OPENEYE_ISO_SMILES>
C1CCN2C(C1)C3CC(C2=O)C4CCCC(=O)N4C3
> <PUBCHEM_CACTVS_TPSA>
40.6
> <PUBCHEM_MONOISOTOPIC_WEIGHT>
262.168127949
> <PUBCHEM_TOTAL_CHARGE>
0
> <PUBCHEM_HEAVY_ATOM_COUNT>
19
> <PUBCHEM_ATOM_DEF_STEREO_COUNT>
0
> <PUBCHEM_ATOM_UDEF_STEREO_COUNT>
4
> <PUBCHEM_BOND_DEF_STEREO_COUNT>
0
> <PUBCHEM_BOND_UDEF_STEREO_COUNT>
0
> <PUBCHEM_ISOTOPIC_ATOM_COUNT>
0
> <PUBCHEM_COMPONENT_COUNT>
1
> <PUBCHEM_CACTVS_TAUTO_COUNT>
-1
> <PUBCHEM_COORDINATE_TYPE>
1
5
255
> <PUBCHEM_BONDANNOTATIONS>
5  9  3
6  9  3
7  12  3
8  13  3
$$$$
