521210
  -OEChem-10302200292D
 39 41  0     1  0  0  0  0  0999 V2000
    4.4192   -1.1955    0.0000 C   0  0  3  0  0  0  0  0  0  0  0  0
    3.4954   -0.8129    0.0000 C   0  0  3  0  0  0  0  0  0  0  0  0
    4.4192    1.4176    0.0000 C   0  0  3  0  0  0  0  0  0  0  0  0
    4.0532    0.1110    0.0000 C   0  0  0  0  0  0  0  0  0  0  0  0
    2.8517   -1.5704    0.0000 C   0  0  0  0  0  0  0  0  0  0  0  0
    3.1127    0.1110    0.0000 C   0  0  0  0  0  0  0  0  0  0  0  0
    5.3431   -0.8129    0.0000 C   0  0  0  0  0  0  0  0  0  0  0  0
    3.4954    1.0349    0.0000 C   0  0  0  0  0  0  0  0  0  0  0  0
    5.3431    1.0349    0.0000 C   0  0  0  0  0  0  0  0  0  0  0  0
    5.7258    0.1110    0.0000 C   0  0  0  0  0  0  0  0  0  0  0  0
    4.3387   -2.1864    0.0000 C   0  0  0  0  0  0  0  0  0  0  0  0
    3.3719   -2.4176    0.0000 C   0  0  0  0  0  0  0  0  0  0  0  0
    4.4192    2.4176    0.0000 C   0  0  0  0  0  0  0  0  0  0  0  0
    2.0000   -2.0944    0.0000 C   0  0  0  0  0  0  0  0  0  0  0  0
    2.0902   -0.9223    0.0000 C   0  0  0  0  0  0  0  0  0  0  0  0
    3.9338   -0.3745    0.0000 H   0  0  0  0  0  0  0  0  0  0  0  0
    3.5467    0.4686    0.0000 H   0  0  0  0  0  0  0  0  0  0  0  0
    4.6732    0.1110    0.0000 H   0  0  0  0  0  0  0  0  0  0  0  0
    2.6208    0.4884    0.0000 H   0  0  0  0  0  0  0  0  0  0  0  0
    2.6208   -0.2664    0.0000 H   0  0  0  0  0  0  0  0  0  0  0  0
    5.4241   -1.4276    0.0000 H   0  0  0  0  0  0  0  0  0  0  0  0
    5.9578   -0.8938    0.0000 H   0  0  0  0  0  0  0  0  0  0  0  0
    3.4144    1.6496    0.0000 H   0  0  0  0  0  0  0  0  0  0  0  0
    2.8807    1.1158    0.0000 H   0  0  0  0  0  0  0  0  0  0  0  0
    5.9578    1.1158    0.0000 H   0  0  0  0  0  0  0  0  0  0  0  0
    5.4241    1.6496    0.0000 H   0  0  0  0  0  0  0  0  0  0  0  0
    6.2177   -0.2664    0.0000 H   0  0  0  0  0  0  0  0  0  0  0  0
    6.2177    0.4884    0.0000 H   0  0  0  0  0  0  0  0  0  0  0  0
    4.8094   -2.5898    0.0000 H   0  0  0  0  0  0  0  0  0  0  0  0
    3.1346   -2.9904    0.0000 H   0  0  0  0  0  0  0  0  0  0  0  0
    5.0392    2.4176    0.0000 H   0  0  0  0  0  0  0  0  0  0  0  0
    4.4192    3.0376    0.0000 H   0  0  0  0  0  0  0  0  0  0  0  0
    3.7992    2.4176    0.0000 H   0  0  0  0  0  0  0  0  0  0  0  0
    1.6751   -1.5663    0.0000 H   0  0  0  0  0  0  0  0  0  0  0  0
    1.4719   -2.4193    0.0000 H   0  0  0  0  0  0  0  0  0  0  0  0
    2.3249   -2.6225    0.0000 H   0  0  0  0  0  0  0  0  0  0  0  0
    2.4920   -0.4502    0.0000 H   0  0  0  0  0  0  0  0  0  0  0  0
    1.6181   -0.5205    0.0000 H   0  0  0  0  0  0  0  0  0  0  0  0
    1.6884   -1.3945    0.0000 H   0  0  0  0  0  0  0  0  0  0  0  0
  1  2  1  0  0  0  0
  1  4  1  0  0  0  0
  1  7  1  0  0  0  0
  1 11  1  0  0  0  0
  2  5  1  0  0  0  0
  2  6  1  0  0  0  0
  2 16  1  0  0  0  0
  3  4  1  0  0  0  0
  3  8  1  0  0  0  0
  3  9  1  0  0  0  0
  3 13  1  0  0  0  0
  4 17  1  0  0  0  0
  4 18  1  0  0  0  0
  5 12  1  0  0  0  0
  5 14  1  0  0  0  0
  5 15  1  0  0  0  0
  6  8  1  0  0  0  0
  6 19  1  0  0  0  0
  6 20  1  0  0  0  0
  7 10  1  0  0  0  0
  7 21  1  0  0  0  0
  7 22  1  0  0  0  0
  8 23  1  0  0  0  0
  8 24  1  0  0  0  0
  9 10  1  0  0  0  0
  9 25  1  0  0  0  0
  9 26  1  0  0  0  0
 10 27  1  0  0  0  0
 10 28  1  0  0  0  0
 11 12  2  0  0  0  0
 11 29  1  0  0  0  0
 12 30  1  0  0  0  0
 13 31  1  0  0  0  0
 13 32  1  0  0  0  0
 13 33  1  0  0  0  0
 14 34  1  0  0  0  0
 14 35  1  0  0  0  0
 14 36  1  0  0  0  0
 15 37  1  0  0  0  0
 15 38  1  0  0  0  0
 15 39  1  0  0  0  0
M  END
> <PUBCHEM_COMPOUND_CID>
521210
> <PUBCHEM_COMPOUND_CANONICALIZED>
1
> <PUBCHEM_CACTVS_COMPLEXITY>
312
> <PUBCHEM_CACTVS_HBOND_ACCEPTOR>
0
> <PUBCHEM_CACTVS_HBOND_DONOR>
0
> <PUBCHEM_CACTVS_ROTATABLE_BOND>
0
> <PUBCHEM_CACTVS_SUBSKEYS>
AAADceBwAAAAAAAAAAAAAAAAAAAAAQAAAAAwYAAAAAAYAEAAAAAAGAAAAAAADwCAAAACAAAAAACAACBCAAAAAAAgAAAICAAAAAgAAAIAAAAAAAAAgAAIAAMAgMAPgAAAAAAAAACAAAQAACAAAAAAAAAAAA==
> <PUBCHEM_IUPAC_OPENEYE_NAME>
4,4,8-trimethyltricyclo[6.3.1.01,5]dodec-2-ene
> <PUBCHEM_IUPAC_CAS_NAME>
4,4,8-trimethyltricyclo[6.3.1.01,5]dodec-2-ene
> <PUBCHEM_IUPAC_NAME_MARKUP>
4,4,8-trimethyltricyclo[6.3.1.0<SUP>1,5</SUP>]dodec-2-ene
> <PUBCHEM_IUPAC_NAME>
4,4,8-trimethyltricyclo[6.3.1.01,5]dodec-2-ene
> <PUBCHEM_IUPAC_SYSTEMATIC_NAME>
4,4,8-trimethyltricyclo[6.3.1.01,5]dodec-2-ene
> <PUBCHEM_IUPAC_TRADITIONAL_NAME>
4,4,8-trimethyltricyclo[6.3.1.01,5]dodec-2-ene
> <PUBCHEM_IUPAC_INCHI>
InChI=1S/C15H24/c1-13(2)9-10-15-7-4-6-14(3,11-15)8-5-12(13)15/h9-10,12H,4-8,11H2,1-3H3
> <PUBCHEM_IUPAC_INCHIKEY>
MKZIRHIVARSBHI-UHFFFAOYSA-N
> <PUBCHEM_XLOGP3_AA>
5.8
> <PUBCHEM_EXACT_MASS>
204.187800766
> <PUBCHEM_MOLECULAR_FORMULA>
C15H24
> <PUBCHEM_MOLECULAR_WEIGHT>
204.35
> <PUBCHEM_OPENEYE_CAN_SMILES>
CC1(C=CC23C1CCC(C2)(CCC3)C)C
> <PUBCHEM_OPENEYE_ISO_SMILES>
CC1(C=CC23C1CCC(C2)(CCC3)C)C
> <PUBCHEM_CACTVS_TPSA>
0
> <PUBCHEM_MONOISOTOPIC_WEIGHT>
204.187800766
> <PUBCHEM_TOTAL_CHARGE>
0
> <PUBCHEM_HEAVY_ATOM_COUNT>
15
> <PUBCHEM_ATOM_DEF_STEREO_COUNT>
0
> <PUBCHEM_ATOM_UDEF_STEREO_COUNT>
3
> <PUBCHEM_BOND_DEF_STEREO_COUNT>
0
> <PUBCHEM_BOND_UDEF_STEREO_COUNT>
0
> <PUBCHEM_ISOTOPIC_ATOM_COUNT>
0
> <PUBCHEM_COMPONENT_COUNT>
1
> <PUBCHEM_CACTVS_TAUTO_COUNT>
-1
> <PUBCHEM_COORDINATE_TYPE>
1
5
255
> <PUBCHEM_BONDANNOTATIONS>
1  7  3
2  6  3
3  13  3
$$$$
