521242
  -OEChem-10302200292D
 39 41  0     1  0  0  0  0  0999 V2000
    4.6660   -0.5668    0.0000 C   0  0  3  0  0  0  0  0  0  0  0  0
    5.5321   -0.0668    0.0000 C   0  0  3  0  0  0  0  0  0  0  0  0
    5.5323   -1.0672    0.0000 C   0  0  0  0  0  0  0  0  0  0  0  0
    3.8000   -0.0668    0.0000 C   0  0  0  0  0  0  0  0  0  0  0  0
    3.8000    0.9332    0.0000 C   0  0  3  0  0  0  0  0  0  0  0  0
    5.5321    0.9332    0.0000 C   0  0  0  0  0  0  0  0  0  0  0  0
    4.6660    1.4332    0.0000 C   0  0  0  0  0  0  0  0  0  0  0  0
    6.5323   -1.0672    0.0000 C   0  0  0  0  0  0  0  0  0  0  0  0
    5.0323   -1.9332    0.0000 C   0  0  0  0  0  0  0  0  0  0  0  0
    2.9061    1.4679    0.0000 C   0  0  0  0  0  0  0  0  0  0  0  0
    2.9061   -0.6014    0.0000 C   0  0  0  0  0  0  0  0  0  0  0  0
    3.8000    1.9332    0.0000 C   0  0  0  0  0  0  0  0  0  0  0  0
    2.0000    0.9540    0.0000 C   0  0  0  0  0  0  0  0  0  0  0  0
    2.0000   -0.0876    0.0000 C   0  0  0  0  0  0  0  0  0  0  0  0
    2.9176   -1.6014    0.0000 C   0  0  0  0  0  0  0  0  0  0  0  0
    4.3560   -1.1037    0.0000 H   0  0  0  0  0  0  0  0  0  0  0  0
    6.1521   -0.0667    0.0000 H   0  0  0  0  0  0  0  0  0  0  0  0
    6.1426    0.8256    0.0000 H   0  0  0  0  0  0  0  0  0  0  0  0
    5.7441    1.5158    0.0000 H   0  0  0  0  0  0  0  0  0  0  0  0
    5.0646    1.9082    0.0000 H   0  0  0  0  0  0  0  0  0  0  0  0
    4.2675    1.9082    0.0000 H   0  0  0  0  0  0  0  0  0  0  0  0
    6.5323   -1.6872    0.0000 H   0  0  0  0  0  0  0  0  0  0  0  0
    7.1523   -1.0672    0.0000 H   0  0  0  0  0  0  0  0  0  0  0  0
    6.5323   -0.4472    0.0000 H   0  0  0  0  0  0  0  0  0  0  0  0
    4.4954   -1.6232    0.0000 H   0  0  0  0  0  0  0  0  0  0  0  0
    4.7223   -2.4702    0.0000 H   0  0  0  0  0  0  0  0  0  0  0  0
    5.5692   -2.2432    0.0000 H   0  0  0  0  0  0  0  0  0  0  0  0
    3.3107    1.9377    0.0000 H   0  0  0  0  0  0  0  0  0  0  0  0
    2.5124    1.9469    0.0000 H   0  0  0  0  0  0  0  0  0  0  0  0
    4.4200    1.9332    0.0000 H   0  0  0  0  0  0  0  0  0  0  0  0
    3.8000    2.5532    0.0000 H   0  0  0  0  0  0  0  0  0  0  0  0
    3.1800    1.9332    0.0000 H   0  0  0  0  0  0  0  0  0  0  0  0
    1.7909    1.5377    0.0000 H   0  0  0  0  0  0  0  0  0  0  0  0
    1.3891    0.8480    0.0000 H   0  0  0  0  0  0  0  0  0  0  0  0
    1.3891    0.0185    0.0000 H   0  0  0  0  0  0  0  0  0  0  0  0
    1.7909   -0.6713    0.0000 H   0  0  0  0  0  0  0  0  0  0  0  0
    2.2977   -1.6085    0.0000 H   0  0  0  0  0  0  0  0  0  0  0  0
    2.9248   -2.2213    0.0000 H   0  0  0  0  0  0  0  0  0  0  0  0
    3.5376   -1.5942    0.0000 H   0  0  0  0  0  0  0  0  0  0  0  0
  1  2  1  0  0  0  0
  1  3  1  0  0  0  0
  1  4  1  0  0  0  0
  1 16  1  0  0  0  0
  2  3  1  0  0  0  0
  2  6  1  0  0  0  0
  2 17  1  0  0  0  0
  3  8  1  0  0  0  0
  3  9  1  0  0  0  0
  4  5  1  0  0  0  0
  4 11  2  0  0  0  0
  5  7  1  0  0  0  0
  5 10  1  0  0  0  0
  5 12  1  0  0  0  0
  6  7  1  0  0  0  0
  6 18  1  0  0  0  0
  6 19  1  0  0  0  0
  7 20  1  0  0  0  0
  7 21  1  0  0  0  0
  8 22  1  0  0  0  0
  8 23  1  0  0  0  0
  8 24  1  0  0  0  0
  9 25  1  0  0  0  0
  9 26  1  0  0  0  0
  9 27  1  0  0  0  0
 10 13  1  0  0  0  0
 10 28  1  0  0  0  0
 10 29  1  0  0  0  0
 11 14  1  0  0  0  0
 11 15  1  0  0  0  0
 12 30  1  0  0  0  0
 12 31  1  0  0  0  0
 12 32  1  0  0  0  0
 13 14  1  0  0  0  0
 13 33  1  0  0  0  0
 13 34  1  0  0  0  0
 14 35  1  0  0  0  0
 14 36  1  0  0  0  0
 15 37  1  0  0  0  0
 15 38  1  0  0  0  0
 15 39  1  0  0  0  0
M  END
> <PUBCHEM_COMPOUND_CID>
521242
> <PUBCHEM_COMPOUND_CANONICALIZED>
1
> <PUBCHEM_CACTVS_COMPLEXITY>
334
> <PUBCHEM_CACTVS_HBOND_ACCEPTOR>
0
> <PUBCHEM_CACTVS_HBOND_DONOR>
0
> <PUBCHEM_CACTVS_ROTATABLE_BOND>
0
> <PUBCHEM_CACTVS_SUBSKEYS>
AAADceBwAAAAAAAAAAAAAAAAGAAAAAAAAAAwQAAABgAAAACAAAAAGAAAAAAADwCAAAACAAAAAACAAgBAAAAAAAAgAAAACAAAAAgAAAIAAAAAAAAAgAAIAAMAgMAPgAAAAAAAAACAAAQAAAAAAAAAAAAAAA==
> <PUBCHEM_IUPAC_OPENEYE_NAME>
1,1,3a,7-tetramethyl-2,3,4,5,6,7b-hexahydro-1aH-cyclopropa[a]naphthalene
> <PUBCHEM_IUPAC_CAS_NAME>
1,1,3a,7-tetramethyl-2,3,4,5,6,7b-hexahydro-1aH-cyclopropa[a]naphthalene
> <PUBCHEM_IUPAC_NAME_MARKUP>
1,1,3<I>a</I>,7-tetramethyl-2,3,4,5,6,7<I>b</I>-hexahydro-1<I>a</I><I>H</I>-cyclopropa[a]naphthalene
> <PUBCHEM_IUPAC_NAME>
1,1,3a,7-tetramethyl-2,3,4,5,6,7b-hexahydro-1aH-cyclopropa[a]naphthalene
> <PUBCHEM_IUPAC_SYSTEMATIC_NAME>
1,1,3a,7-tetramethyl-2,3,4,5,6,7b-hexahydro-1aH-cyclopropa[a]naphthalene
> <PUBCHEM_IUPAC_TRADITIONAL_NAME>
1,1,3a,7-tetramethyl-2,3,4,5,6,7b-hexahydro-1aH-cyclopropa[a]naphthalene
> <PUBCHEM_IUPAC_INCHI>
InChI=1S/C15H24/c1-10-6-5-8-15(4)9-7-11-13(12(10)15)14(11,2)3/h11,13H,5-9H2,1-4H3
> <PUBCHEM_IUPAC_INCHIKEY>
UPGLJTCDRBIZKP-UHFFFAOYSA-N
> <PUBCHEM_XLOGP3_AA>
4.4
> <PUBCHEM_EXACT_MASS>
204.187800766
> <PUBCHEM_MOLECULAR_FORMULA>
C15H24
> <PUBCHEM_MOLECULAR_WEIGHT>
204.35
> <PUBCHEM_OPENEYE_CAN_SMILES>
CC1=C2C3C(C3(C)C)CCC2(CCC1)C
> <PUBCHEM_OPENEYE_ISO_SMILES>
CC1=C2C3C(C3(C)C)CCC2(CCC1)C
> <PUBCHEM_CACTVS_TPSA>
0
> <PUBCHEM_MONOISOTOPIC_WEIGHT>
204.187800766
> <PUBCHEM_TOTAL_CHARGE>
0
> <PUBCHEM_HEAVY_ATOM_COUNT>
15
> <PUBCHEM_ATOM_DEF_STEREO_COUNT>
0
> <PUBCHEM_ATOM_UDEF_STEREO_COUNT>
3
> <PUBCHEM_BOND_DEF_STEREO_COUNT>
0
> <PUBCHEM_BOND_UDEF_STEREO_COUNT>
0
> <PUBCHEM_ISOTOPIC_ATOM_COUNT>
0
> <PUBCHEM_COMPONENT_COUNT>
1
> <PUBCHEM_CACTVS_TAUTO_COUNT>
-1
> <PUBCHEM_COORDINATE_TYPE>
1
5
255
> <PUBCHEM_BONDANNOTATIONS>
1  3  3
2  6  3
5  12  3
$$$$
