521227
  -OEChem-10302200292D
 47 49  0     1  0  0  0  0  0999 V2000
    3.7127    0.1857    0.0000 O   0  0  0  0  0  0  0  0  0  0  0  0
    6.2527   -0.3031    0.0000 O   0  0  0  0  0  0  0  0  0  0  0  0
    2.0000    0.1969    0.0000 O   0  0  0  0  0  0  0  0  0  0  0  0
    5.6649   -2.7355    0.0000 O   0  0  0  0  0  0  0  0  0  0  0  0
    7.1188   -1.7808    0.0000 O   0  0  0  0  0  0  0  0  0  0  0  0
    4.5594    2.6299    0.0000 N   0  0  3  0  0  0  0  0  0  0  0  0
    4.5594    1.6522    0.0000 C   0  0  3  0  0  0  0  0  0  0  0  0
    3.7127    1.1634    0.0000 C   0  0  3  0  0  0  0  0  0  0  0  0
    3.0181    2.0922    0.0000 C   0  0  0  0  0  0  0  0  0  0  0  0
    3.5395    2.8743    0.0000 C   0  0  0  0  0  0  0  0  0  0  0  0
    5.4061    1.1634    0.0000 C   0  0  0  0  0  0  0  0  0  0  0  0
    5.4949    2.8960    0.0000 C   0  0  0  0  0  0  0  0  0  0  0  0
    6.1032    2.0922    0.0000 C   0  0  0  0  0  0  0  0  0  0  0  0
    5.4061    0.1857    0.0000 C   0  0  0  0  0  0  0  0  0  0  0  0
    2.8660   -0.3031    0.0000 C   0  0  0  0  0  0  0  0  0  0  0  0
    5.4061   -1.7696    0.0000 C   0  0  3  0  0  0  0  0  0  0  0  0
    2.8660   -1.2808    0.0000 C   0  0  0  0  0  0  0  0  0  0  0  0
    6.2527   -1.2808    0.0000 C   0  0  0  0  0  0  0  0  0  0  0  0
    3.7127   -1.7696    0.0000 C   0  0  0  0  0  0  0  0  0  0  0  0
    4.5594   -1.2808    0.0000 C   0  0  0  0  0  0  0  0  0  0  0  0
    4.6990   -2.4768    0.0000 C   0  0  0  0  0  0  0  0  0  0  0  0
    2.0000   -1.7808    0.0000 C   0  0  0  0  0  0  0  0  0  0  0  0
    4.5594   -0.2808    0.0000 C   0  0  0  0  0  0  0  0  0  0  0  0
    2.0000   -2.7808    0.0000 C   0  0  0  0  0  0  0  0  0  0  0  0
    4.5594    1.0322    0.0000 H   0  0  0  0  0  0  0  0  0  0  0  0
    3.1244    0.9677    0.0000 H   0  0  0  0  0  0  0  0  0  0  0  0
    2.5446    2.4923    0.0000 H   0  0  0  0  0  0  0  0  0  0  0  0
    2.5669    1.6670    0.0000 H   0  0  0  0  0  0  0  0  0  0  0  0
    3.7538    3.4561    0.0000 H   0  0  0  0  0  0  0  0  0  0  0  0
    2.9869    3.1553    0.0000 H   0  0  0  0  0  0  0  0  0  0  0  0
    6.0316    3.2064    0.0000 H   0  0  0  0  0  0  0  0  0  0  0  0
    5.2530    3.4669    0.0000 H   0  0  0  0  0  0  0  0  0  0  0  0
    6.7232    2.0934    0.0000 H   0  0  0  0  0  0  0  0  0  0  0  0
    4.7955    0.2934    0.0000 H   0  0  0  0  0  0  0  0  0  0  0  0
    5.1940   -0.3969    0.0000 H   0  0  0  0  0  0  0  0  0  0  0  0
    3.3141   -2.2445    0.0000 H   0  0  0  0  0  0  0  0  0  0  0  0
    4.1112   -2.2446    0.0000 H   0  0  0  0  0  0  0  0  0  0  0  0
    4.2606   -2.0384    0.0000 H   0  0  0  0  0  0  0  0  0  0  0  0
    4.2607   -2.9152    0.0000 H   0  0  0  0  0  0  0  0  0  0  0  0
    5.1375   -2.9151    0.0000 H   0  0  0  0  0  0  0  0  0  0  0  0
    1.4631   -1.4708    0.0000 H   0  0  0  0  0  0  0  0  0  0  0  0
    6.2638   -2.8960    0.0000 H   0  0  0  0  0  0  0  0  0  0  0  0
    5.0964    0.0292    0.0000 H   0  0  0  0  0  0  0  0  0  0  0  0
    4.0225    0.0292    0.0000 H   0  0  0  0  0  0  0  0  0  0  0  0
    1.3800   -2.7808    0.0000 H   0  0  0  0  0  0  0  0  0  0  0  0
    2.0000   -3.4008    0.0000 H   0  0  0  0  0  0  0  0  0  0  0  0
    2.6200   -2.7808    0.0000 H   0  0  0  0  0  0  0  0  0  0  0  0
  1  8  1  0  0  0  0
  1 15  1  0  0  0  0
  2 14  1  0  0  0  0
  2 18  1  0  0  0  0
  3 15  2  0  0  0  0
  4 16  1  0  0  0  0
  4 42  1  0  0  0  0
  5 18  2  0  0  0  0
  6  7  1  0  0  0  0
  6 10  1  0  0  0  0
  6 12  1  0  0  0  0
  7  8  1  0  0  0  0
  7 11  1  0  0  0  0
  7 25  1  0  0  0  0
  8  9  1  0  0  0  0
  8 26  1  0  0  0  0
  9 10  1  0  0  0  0
  9 27  1  0  0  0  0
  9 28  1  0  0  0  0
 10 29  1  0  0  0  0
 10 30  1  0  0  0  0
 11 13  2  0  0  0  0
 11 14  1  0  0  0  0
 12 13  1  0  0  0  0
 12 31  1  0  0  0  0
 12 32  1  0  0  0  0
 13 33  1  0  0  0  0
 14 34  1  0  0  0  0
 14 35  1  0  0  0  0
 15 17  1  0  0  0  0
 16 18  1  0  0  0  0
 16 20  1  0  0  0  0
 16 21  1  0  0  0  0
 17 19  1  0  0  0  0
 17 22  2  3  0  0  0
 19 20  1  0  0  0  0
 19 36  1  0  0  0  0
 19 37  1  0  0  0  0
 20 23  2  0  0  0  0
 21 38  1  0  0  0  0
 21 39  1  0  0  0  0
 21 40  1  0  0  0  0
 22 24  1  0  0  0  0
 22 41  1  0  0  0  0
 23 43  1  0  0  0  0
 23 44  1  0  0  0  0
 24 45  1  0  0  0  0
 24 46  1  0  0  0  0
 24 47  1  0  0  0  0
M  END
> <PUBCHEM_COMPOUND_CID>
521227
> <PUBCHEM_COMPOUND_CANONICALIZED>
1
> <PUBCHEM_CACTVS_COMPLEXITY>
650
> <PUBCHEM_CACTVS_HBOND_ACCEPTOR>
6
> <PUBCHEM_CACTVS_HBOND_DONOR>
1
> <PUBCHEM_CACTVS_ROTATABLE_BOND>
0
> <PUBCHEM_CACTVS_SUBSKEYS>
AAADceB6OAAAAAAAAAAAAAAAAAAAAWIAAAAAAAAAAAAQAAAAAAAAHgAACAAADHzhgAYCCAMABgCIAiDSCAKAAAAgAAAACAFIAEgDBBIAoQAHUAAGwACbMYPYbBxMAAAAAAAAAAAAAAAAAAAAAAAAAAAAAA==
> <PUBCHEM_IUPAC_OPENEYE_NAME>
4-ethylidene-7-hydroxy-7-methyl-6-methylene-2,9-dioxa-14-azatricyclo[9.5.1.014,17]heptadec-11-ene-3,8-dione
> <PUBCHEM_IUPAC_CAS_NAME>
4-ethylidene-7-hydroxy-7-methyl-6-methylene-2,9-dioxa-14-azatricyclo[9.5.1.014,17]heptadec-11-ene-3,8-dione
> <PUBCHEM_IUPAC_NAME_MARKUP>
4-ethylidene-7-hydroxy-7-methyl-6-methylidene-2,9-dioxa-14-azatricyclo[9.5.1.0<SUP>14,17</SUP>]heptadec-11-ene-3,8-dione
> <PUBCHEM_IUPAC_NAME>
4-ethylidene-7-hydroxy-7-methyl-6-methylidene-2,9-dioxa-14-azatricyclo[9.5.1.014,17]heptadec-11-ene-3,8-dione
> <PUBCHEM_IUPAC_SYSTEMATIC_NAME>
4-ethylidene-7-methyl-6-methylidene-7-oxidanyl-2,9-dioxa-14-azatricyclo[9.5.1.014,17]heptadec-11-ene-3,8-dione
> <PUBCHEM_IUPAC_TRADITIONAL_NAME>
4-ethylidene-7-hydroxy-7-methyl-6-methylene-2,9-dioxa-14-azatricyclo[9.5.1.014,17]heptadec-11-ene-3,8-quinone
> <PUBCHEM_IUPAC_INCHI>
InChI=1S/C18H23NO5/c1-4-12-9-11(2)18(3,22)17(21)23-10-13-5-7-19-8-6-14(15(13)19)24-16(12)20/h4-5,14-15,22H,2,6-10H2,1,3H3
> <PUBCHEM_IUPAC_INCHIKEY>
FCEVNJIUIMLVML-UHFFFAOYSA-N
> <PUBCHEM_XLOGP3_AA>
0.7
> <PUBCHEM_EXACT_MASS>
333.15762283
> <PUBCHEM_MOLECULAR_FORMULA>
C18H23NO5
> <PUBCHEM_MOLECULAR_WEIGHT>
333.4
> <PUBCHEM_OPENEYE_CAN_SMILES>
CC=C1CC(=C)C(C(=O)OCC2=CCN3C2C(CC3)OC1=O)(C)O
> <PUBCHEM_OPENEYE_ISO_SMILES>
CC=C1CC(=C)C(C(=O)OCC2=CCN3C2C(CC3)OC1=O)(C)O
> <PUBCHEM_CACTVS_TPSA>
76.1
> <PUBCHEM_MONOISOTOPIC_WEIGHT>
333.15762283
> <PUBCHEM_TOTAL_CHARGE>
0
> <PUBCHEM_HEAVY_ATOM_COUNT>
24
> <PUBCHEM_ATOM_DEF_STEREO_COUNT>
0
> <PUBCHEM_ATOM_UDEF_STEREO_COUNT>
3
> <PUBCHEM_BOND_DEF_STEREO_COUNT>
0
> <PUBCHEM_BOND_UDEF_STEREO_COUNT>
1
> <PUBCHEM_ISOTOPIC_ATOM_COUNT>
0
> <PUBCHEM_COMPONENT_COUNT>
1
> <PUBCHEM_CACTVS_TAUTO_COUNT>
-1
> <PUBCHEM_COORDINATE_TYPE>
1
5
255
> <PUBCHEM_BONDANNOTATIONS>
17  22  1
16  4  3
7  11  3
8  9  3
$$$$
