521355
  -OEChem-10302200292D
 17 16  0     1  0  0  0  0  0999 V2000
    2.0000   -0.0600    0.0000 O   0  0  0  0  0  0  0  0  0  0  0  0
    3.7320   -0.0600    0.0000 C   0  0  3  0  0  0  0  0  0  0  0  0
    4.5981    0.4400    0.0000 C   0  0  0  0  0  0  0  0  0  0  0  0
    3.7320   -1.0600    0.0000 C   0  0  0  0  0  0  0  0  0  0  0  0
    2.8660    0.4400    0.0000 C   0  0  0  0  0  0  0  0  0  0  0  0
    5.4641   -0.0600    0.0000 C   0  0  0  0  0  0  0  0  0  0  0  0
    6.3301    0.4400    0.0000 C   0  0  0  0  0  0  0  0  0  0  0  0
    3.7320    0.7900    0.0000 H   0  0  0  0  0  0  0  0  0  0  0  0
    4.9966    0.9149    0.0000 H   0  0  0  0  0  0  0  0  0  0  0  0
    4.1996    0.9149    0.0000 H   0  0  0  0  0  0  0  0  0  0  0  0
    3.1120   -1.0600    0.0000 H   0  0  0  0  0  0  0  0  0  0  0  0
    3.7320   -1.6800    0.0000 H   0  0  0  0  0  0  0  0  0  0  0  0
    4.3520   -1.0600    0.0000 H   0  0  0  0  0  0  0  0  0  0  0  0
    2.8660    1.0600    0.0000 H   0  0  0  0  0  0  0  0  0  0  0  0
    5.4641   -0.6800    0.0000 H   0  0  0  0  0  0  0  0  0  0  0  0
    6.8671    0.1300    0.0000 H   0  0  0  0  0  0  0  0  0  0  0  0
    6.3301    1.0600    0.0000 H   0  0  0  0  0  0  0  0  0  0  0  0
  1  5  2  0  0  0  0
  2  3  1  0  0  0  0
  2  4  1  0  0  0  0
  2  5  1  0  0  0  0
  2  8  1  0  0  0  0
  3  6  1  0  0  0  0
  3  9  1  0  0  0  0
  3 10  1  0  0  0  0
  4 11  1  0  0  0  0
  4 12  1  0  0  0  0
  4 13  1  0  0  0  0
  5 14  1  0  0  0  0
  6  7  2  0  0  0  0
  6 15  1  0  0  0  0
  7 16  1  0  0  0  0
  7 17  1  0  0  0  0
M  END
> <PUBCHEM_COMPOUND_CID>
521355
> <PUBCHEM_COMPOUND_CANONICALIZED>
1
> <PUBCHEM_CACTVS_COMPLEXITY>
66.6
> <PUBCHEM_CACTVS_HBOND_ACCEPTOR>
1
> <PUBCHEM_CACTVS_HBOND_DONOR>
0
> <PUBCHEM_CACTVS_ROTATABLE_BOND>
3
> <PUBCHEM_CACTVS_SUBSKEYS>
AAADccBgIAAAAAAAAAAAAAAAAAAAAAAAAAAAAAAAAAAAAAAAAAAAGgAAAAAADQCggAICAAAAAACIAChSgAAAAAAgAAAIAAEAAAgAABAAAQAAAAAAgAAAAAAAAAAIAAAAAAAAAAAAAAAAAAAAAAAAAAAAAA==
> <PUBCHEM_IUPAC_OPENEYE_NAME>
2-methylpent-4-enal
> <PUBCHEM_IUPAC_CAS_NAME>
2-methyl-4-pentenal
> <PUBCHEM_IUPAC_NAME_MARKUP>
2-methylpent-4-enal
> <PUBCHEM_IUPAC_NAME>
2-methylpent-4-enal
> <PUBCHEM_IUPAC_SYSTEMATIC_NAME>
2-methylpent-4-enal
> <PUBCHEM_IUPAC_TRADITIONAL_NAME>
2-methylpent-4-enal
> <PUBCHEM_IUPAC_INCHI>
InChI=1S/C6H10O/c1-3-4-6(2)5-7/h3,5-6H,1,4H2,2H3
> <PUBCHEM_IUPAC_INCHIKEY>
RCQKLWAPRHHRNN-UHFFFAOYSA-N
> <PUBCHEM_XLOGP3_AA>
1.3
> <PUBCHEM_EXACT_MASS>
98.073164938
> <PUBCHEM_MOLECULAR_FORMULA>
C6H10O
> <PUBCHEM_MOLECULAR_WEIGHT>
98.14
> <PUBCHEM_OPENEYE_CAN_SMILES>
CC(CC=C)C=O
> <PUBCHEM_OPENEYE_ISO_SMILES>
CC(CC=C)C=O
> <PUBCHEM_CACTVS_TPSA>
17.1
> <PUBCHEM_MONOISOTOPIC_WEIGHT>
98.073164938
> <PUBCHEM_TOTAL_CHARGE>
0
> <PUBCHEM_HEAVY_ATOM_COUNT>
7
> <PUBCHEM_ATOM_DEF_STEREO_COUNT>
0
> <PUBCHEM_ATOM_UDEF_STEREO_COUNT>
1
> <PUBCHEM_BOND_DEF_STEREO_COUNT>
0
> <PUBCHEM_BOND_UDEF_STEREO_COUNT>
0
> <PUBCHEM_ISOTOPIC_ATOM_COUNT>
0
> <PUBCHEM_COMPONENT_COUNT>
1
> <PUBCHEM_CACTVS_TAUTO_COUNT>
2
> <PUBCHEM_COORDINATE_TYPE>
1
5
255
> <PUBCHEM_BONDANNOTATIONS>
2  8  3
$$$$
