521308
  -OEChem-10302200292D
 59 64  0     1  0  0  0  0  0999 V2000
    3.9634   -1.8872    0.0000 O   0  0  0  0  0  0  0  0  0  0  0  0
    3.7320   -4.3422    0.0000 O   0  0  0  0  0  0  0  0  0  0  0  0
    3.7320    0.4621    0.0000 O   0  0  0  0  0  0  0  0  0  0  0  0
    2.8660    4.9622    0.0000 O   0  0  0  0  0  0  0  0  0  0  0  0
    7.8927   -2.8911    0.0000 N   0  0  3  0  0  0  0  0  0  0  0  0
    2.8660    2.9622    0.0000 N   0  0  0  0  0  0  0  0  0  0  0  0
    5.4217   -2.4155    0.0000 C   0  0  3  0  0  0  0  0  0  0  0  0
    6.2454   -2.8911    0.0000 C   0  0  3  0  0  0  0  0  0  0  0  0
    7.0690   -2.4155    0.0000 C   0  0  3  0  0  0  0  0  0  0  0  0
    4.5981   -2.8911    0.0000 C   0  0  3  0  0  0  0  0  0  0  0  0
    5.9712   -1.7181    0.0000 C   0  0  0  0  0  0  0  0  0  0  0  0
    5.4217   -1.4645    0.0000 C   0  0  0  0  0  0  0  0  0  0  0  0
    7.0690   -1.4645    0.0000 C   0  0  0  0  0  0  0  0  0  0  0  0
    7.3239   -1.7181    0.0000 C   0  0  0  0  0  0  0  0  0  0  0  0
    6.2454   -0.9889    0.0000 C   0  0  0  0  0  0  0  0  0  0  0  0
    4.5981   -3.8422    0.0000 C   0  0  3  0  0  0  0  0  0  0  0  0
    6.2454   -3.8422    0.0000 C   0  0  0  0  0  0  0  0  0  0  0  0
    4.5981   -0.9889    0.0000 C   0  0  0  0  0  0  0  0  0  0  0  0
    5.4217   -4.3177    0.0000 C   0  0  0  0  0  0  0  0  0  0  0  0
    6.2454   -0.0379    0.0000 C   0  0  0  0  0  0  0  0  0  0  0  0
    8.5738   -3.6232    0.0000 C   0  0  0  0  0  0  0  0  0  0  0  0
    4.5981   -0.0379    0.0000 C   0  0  0  0  0  0  0  0  0  0  0  0
    5.4217    0.4377    0.0000 C   0  0  0  0  0  0  0  0  0  0  0  0
    3.7320    1.4622    0.0000 C   0  0  0  0  0  0  0  0  0  0  0  0
    2.8660    1.9622    0.0000 C   0  0  0  0  0  0  0  0  0  0  0  0
    2.0000    3.4622    0.0000 C   0  0  0  0  0  0  0  0  0  0  0  0
    3.7320    3.4622    0.0000 C   0  0  0  0  0  0  0  0  0  0  0  0
    2.0000    4.4622    0.0000 C   0  0  0  0  0  0  0  0  0  0  0  0
    3.7320    4.4622    0.0000 C   0  0  0  0  0  0  0  0  0  0  0  0
    6.7823   -3.2011    0.0000 H   0  0  0  0  0  0  0  0  0  0  0  0
    7.6060   -2.1056    0.0000 H   0  0  0  0  0  0  0  0  0  0  0  0
    4.0025   -3.0635    0.0000 H   0  0  0  0  0  0  0  0  0  0  0  0
    6.1080   -1.1134    0.0000 H   0  0  0  0  0  0  0  0  0  0  0  0
    5.4116   -1.4513    0.0000 H   0  0  0  0  0  0  0  0  0  0  0  0
    7.6796   -1.5721    0.0000 H   0  0  0  0  0  0  0  0  0  0  0  0
    7.2811   -0.8819    0.0000 H   0  0  0  0  0  0  0  0  0  0  0  0
    7.9160   -1.5343    0.0000 H   0  0  0  0  0  0  0  0  0  0  0  0
    7.2309   -1.1051    0.0000 H   0  0  0  0  0  0  0  0  0  0  0  0
    4.5981   -4.4622    0.0000 H   0  0  0  0  0  0  0  0  0  0  0  0
    6.7823   -4.1522    0.0000 H   0  0  0  0  0  0  0  0  0  0  0  0
    5.4217   -4.9377    0.0000 H   0  0  0  0  0  0  0  0  0  0  0  0
    6.7823    0.2721    0.0000 H   0  0  0  0  0  0  0  0  0  0  0  0
    8.1199   -4.0455    0.0000 H   0  0  0  0  0  0  0  0  0  0  0  0
    8.9962   -4.0771    0.0000 H   0  0  0  0  0  0  0  0  0  0  0  0
    9.0278   -3.2009    0.0000 H   0  0  0  0  0  0  0  0  0  0  0  0
    5.4217    1.0577    0.0000 H   0  0  0  0  0  0  0  0  0  0  0  0
    3.7320   -4.9622    0.0000 H   0  0  0  0  0  0  0  0  0  0  0  0
    4.3426    1.3545    0.0000 H   0  0  0  0  0  0  0  0  0  0  0  0
    3.9441    2.0448    0.0000 H   0  0  0  0  0  0  0  0  0  0  0  0
    2.2554    2.0698    0.0000 H   0  0  0  0  0  0  0  0  0  0  0  0
    2.6540    1.3795    0.0000 H   0  0  0  0  0  0  0  0  0  0  0  0
    1.3894    3.5698    0.0000 H   0  0  0  0  0  0  0  0  0  0  0  0
    1.7880    2.8796    0.0000 H   0  0  0  0  0  0  0  0  0  0  0  0
    3.9441    2.8795    0.0000 H   0  0  0  0  0  0  0  0  0  0  0  0
    4.3426    3.5698    0.0000 H   0  0  0  0  0  0  0  0  0  0  0  0
    1.7880    5.0448    0.0000 H   0  0  0  0  0  0  0  0  0  0  0  0
    1.3894    4.3545    0.0000 H   0  0  0  0  0  0  0  0  0  0  0  0
    4.3426    4.3545    0.0000 H   0  0  0  0  0  0  0  0  0  0  0  0
    3.9441    5.0448    0.0000 H   0  0  0  0  0  0  0  0  0  0  0  0
  1 10  1  0  0  0  0
  1 18  1  0  0  0  0
  2 16  1  0  0  0  0
  2 47  1  0  0  0  0
  3 22  1  0  0  0  0
  3 24  1  0  0  0  0
  4 28  1  0  0  0  0
  4 29  1  0  0  0  0
  5  9  1  0  0  0  0
  5 14  1  0  0  0  0
  5 21  1  0  0  0  0
  6 25  1  0  0  0  0
  6 26  1  0  0  0  0
  6 27  1  0  0  0  0
  7  8  1  0  0  0  0
  7 10  1  0  0  0  0
  7 11  1  0  0  0  0
  7 12  1  0  0  0  0
  8  9  1  0  0  0  0
  8 17  1  0  0  0  0
  8 30  1  0  0  0  0
  9 13  1  0  0  0  0
  9 31  1  0  0  0  0
 10 16  1  0  0  0  0
 10 32  1  0  0  0  0
 11 14  1  0  0  0  0
 11 33  1  0  0  0  0
 11 34  1  0  0  0  0
 12 15  2  0  0  0  0
 12 18  1  0  0  0  0
 13 15  1  0  0  0  0
 13 35  1  0  0  0  0
 13 36  1  0  0  0  0
 14 37  1  0  0  0  0
 14 38  1  0  0  0  0
 15 20  1  0  0  0  0
 16 19  1  0  0  0  0
 16 39  1  0  0  0  0
 17 19  2  0  0  0  0
 17 40  1  0  0  0  0
 18 22  2  0  0  0  0
 19 41  1  0  0  0  0
 20 23  2  0  0  0  0
 20 42  1  0  0  0  0
 21 43  1  0  0  0  0
 21 44  1  0  0  0  0
 21 45  1  0  0  0  0
 22 23  1  0  0  0  0
 23 46  1  0  0  0  0
 24 25  1  0  0  0  0
 24 48  1  0  0  0  0
 24 49  1  0  0  0  0
 25 50  1  0  0  0  0
 25 51  1  0  0  0  0
 26 28  1  0  0  0  0
 26 52  1  0  0  0  0
 26 53  1  0  0  0  0
 27 29  1  0  0  0  0
 27 54  1  0  0  0  0
 27 55  1  0  0  0  0
 28 56  1  0  0  0  0
 28 57  1  0  0  0  0
 29 58  1  0  0  0  0
 29 59  1  0  0  0  0
M  END
> <PUBCHEM_COMPOUND_CID>
521308
> <PUBCHEM_COMPOUND_CANONICALIZED>
1
> <PUBCHEM_CACTVS_COMPLEXITY>
653
> <PUBCHEM_CACTVS_HBOND_ACCEPTOR>
6
> <PUBCHEM_CACTVS_HBOND_DONOR>
1
> <PUBCHEM_CACTVS_ROTATABLE_BOND>
4
> <PUBCHEM_CACTVS_SUBSKEYS>
AAADceB7OAAAAAAAAAAAAAAAAAAAASAAAAA8eIECAAAWAEjBAAAAHgAACAAADzzhmAYyBoMABgCAAiBCAAACCAAgIAAIiAAOiIgPNiKEsRuHeCKkwBGbuAew8P8PoAABAAAYQADQAAaAADSAAAAAAAAAAA==
> <PUBCHEM_IUPAC_OPENEYE_NAME>
3-methyl-9-(2-morpholinoethoxy)-2,4,4a,7,7a,13-hexahydro-1H-4,12-methanobenzofuro[3,2-e]isoquinolin-7-ol
> <PUBCHEM_IUPAC_CAS_NAME>
3-methyl-9-[2-(4-morpholinyl)ethoxy]-2,4,4a,7,7a,13-hexahydro-1H-4,12-methanobenzofuro[3,2-e]isoquinolin-7-ol
> <PUBCHEM_IUPAC_NAME_MARKUP>
3-methyl-9-(2-morpholin-4-ylethoxy)-2,4,4<I>a</I>,7,7<I>a</I>,13-hexahydro-1<I>H</I>-4,12-methanobenzofuro[3,2-e]isoquinolin-7-ol
> <PUBCHEM_IUPAC_NAME>
3-methyl-9-(2-morpholin-4-ylethoxy)-2,4,4a,7,7a,13-hexahydro-1H-4,12-methanobenzofuro[3,2-e]isoquinolin-7-ol
> <PUBCHEM_IUPAC_SYSTEMATIC_NAME>
3-methyl-9-(2-morpholin-4-ylethoxy)-2,4,4a,7,7a,13-hexahydro-1H-4,12-methanobenzofuro[3,2-e]isoquinolin-7-ol
> <PUBCHEM_IUPAC_TRADITIONAL_NAME>
3-methyl-9-(2-morpholinoethoxy)-2,4,4a,7,7a,13-hexahydro-1H-4,12-methanobenzofuro[3,2-e]isoquinolin-7-ol
> <PUBCHEM_IUPAC_INCHI>
InChI=1S/C23H30N2O4/c1-24-7-6-23-16-3-4-18(26)22(23)29-21-19(5-2-15(20(21)23)14-17(16)24)28-13-10-25-8-11-27-12-9-25/h2-5,16-18,22,26H,6-14H2,1H3
> <PUBCHEM_IUPAC_INCHIKEY>
GPFAJKDEDBRFOS-UHFFFAOYSA-N
> <PUBCHEM_XLOGP3>
0.8
> <PUBCHEM_EXACT_MASS>
398.22055744
> <PUBCHEM_MOLECULAR_FORMULA>
C23H30N2O4
> <PUBCHEM_MOLECULAR_WEIGHT>
398.5
> <PUBCHEM_OPENEYE_CAN_SMILES>
CN1CCC23C4C1CC5=C2C(=C(C=C5)OCCN6CCOCC6)OC3C(C=C4)O
> <PUBCHEM_OPENEYE_ISO_SMILES>
CN1CCC23C4C1CC5=C2C(=C(C=C5)OCCN6CCOCC6)OC3C(C=C4)O
> <PUBCHEM_CACTVS_TPSA>
54.4
> <PUBCHEM_MONOISOTOPIC_WEIGHT>
398.22055744
> <PUBCHEM_TOTAL_CHARGE>
0
> <PUBCHEM_HEAVY_ATOM_COUNT>
29
> <PUBCHEM_ATOM_DEF_STEREO_COUNT>
0
> <PUBCHEM_ATOM_UDEF_STEREO_COUNT>
5
> <PUBCHEM_BOND_DEF_STEREO_COUNT>
0
> <PUBCHEM_BOND_UDEF_STEREO_COUNT>
0
> <PUBCHEM_ISOTOPIC_ATOM_COUNT>
0
> <PUBCHEM_COMPONENT_COUNT>
1
> <PUBCHEM_CACTVS_TAUTO_COUNT>
-1
> <PUBCHEM_COORDINATE_TYPE>
1
5
255
> <PUBCHEM_BONDANNOTATIONS>
10  1  3
12  15  8
12  18  8
15  20  8
18  22  8
16  2  3
20  23  8
22  23  8
7  11  3
8  17  3
9  13  3
$$$$
