521310
  -OEChem-10302200292D
 48 51  0     1  0  0  0  0  0999 V2000
    8.6500    2.1767    0.0000 O   0  0  0  0  0  0  0  0  0  0  0  0
    3.8966    0.9212    0.0000 O   0  0  0  0  0  0  0  0  0  0  0  0
    2.0000   -2.1309    0.0000 O   0  0  0  0  0  0  0  0  0  0  0  0
    6.5271   -0.5785    0.0000 C   0  0  3  0  0  0  0  0  0  0  0  0
    5.6610   -0.0785    0.0000 C   0  0  3  0  0  0  0  0  0  0  0  0
    7.3931   -0.0785    0.0000 C   0  0  3  0  0  0  0  0  0  0  0  0
    7.3931    0.9215    0.0000 C   0  0  3  0  0  0  0  0  0  0  0  0
    4.7510   -0.5854    0.0000 C   0  0  3  0  0  0  0  0  0  0  0  0
    5.6610    0.9215    0.0000 C   0  0  0  0  0  0  0  0  0  0  0  0
    6.5271    1.4215    0.0000 C   0  0  0  0  0  0  0  0  0  0  0  0
    6.5431   -1.6200    0.0000 C   0  0  0  0  0  0  0  0  0  0  0  0
    8.3393   -0.3833    0.0000 C   0  0  0  0  0  0  0  0  0  0  0  0
    4.7430   -1.6270    0.0000 C   0  0  0  0  0  0  0  0  0  0  0  0
    5.6451   -2.1478    0.0000 C   0  0  0  0  0  0  0  0  0  0  0  0
    8.3393    1.2262    0.0000 C   0  0  0  0  0  0  0  0  0  0  0  0
    8.9229    0.4215    0.0000 C   0  0  0  0  0  0  0  0  0  0  0  0
    3.8242   -0.0213    0.0000 C   0  0  0  0  0  0  0  0  0  0  0  0
    7.3931    1.9215    0.0000 C   0  0  0  0  0  0  0  0  0  0  0  0
    4.7587    0.4146    0.0000 C   0  0  0  0  0  0  0  0  0  0  0  0
    2.8763   -0.5493    0.0000 C   0  0  0  0  0  0  0  0  0  0  0  0
    3.8076   -2.1767    0.0000 C   0  0  0  0  0  0  0  0  0  0  0  0
    2.8680   -1.6342    0.0000 C   0  0  0  0  0  0  0  0  0  0  0  0
    7.0664   -0.8844    0.0000 H   0  0  0  0  0  0  0  0  0  0  0  0
    6.1980    0.2315    0.0000 H   0  0  0  0  0  0  0  0  0  0  0  0
    7.4587   -0.6951    0.0000 H   0  0  0  0  0  0  0  0  0  0  0  0
    5.4490    1.5041    0.0000 H   0  0  0  0  0  0  0  0  0  0  0  0
    5.0504    0.8138    0.0000 H   0  0  0  0  0  0  0  0  0  0  0  0
    6.9256    1.8964    0.0000 H   0  0  0  0  0  0  0  0  0  0  0  0
    6.1285    1.8964    0.0000 H   0  0  0  0  0  0  0  0  0  0  0  0
    6.7612   -2.2004    0.0000 H   0  0  0  0  0  0  0  0  0  0  0  0
    7.1523   -1.5046    0.0000 H   0  0  0  0  0  0  0  0  0  0  0  0
    8.0883   -0.9502    0.0000 H   0  0  0  0  0  0  0  0  0  0  0  0
    8.8767   -0.6925    0.0000 H   0  0  0  0  0  0  0  0  0  0  0  0
    5.2478   -2.6238    0.0000 H   0  0  0  0  0  0  0  0  0  0  0  0
    6.0460   -2.6207    0.0000 H   0  0  0  0  0  0  0  0  0  0  0  0
    9.3838    0.0067    0.0000 H   0  0  0  0  0  0  0  0  0  0  0  0
    9.3838    0.8362    0.0000 H   0  0  0  0  0  0  0  0  0  0  0  0
    4.2324    0.4454    0.0000 H   0  0  0  0  0  0  0  0  0  0  0  0
    3.4343    0.4607    0.0000 H   0  0  0  0  0  0  0  0  0  0  0  0
    8.0131    1.9215    0.0000 H   0  0  0  0  0  0  0  0  0  0  0  0
    7.3931    2.5415    0.0000 H   0  0  0  0  0  0  0  0  0  0  0  0
    6.7731    1.9215    0.0000 H   0  0  0  0  0  0  0  0  0  0  0  0
    5.3685    0.3022    0.0000 H   0  0  0  0  0  0  0  0  0  0  0  0
    4.9753    0.9955    0.0000 H   0  0  0  0  0  0  0  0  0  0  0  0
    2.6718    0.0360    0.0000 H   0  0  0  0  0  0  0  0  0  0  0  0
    2.2647   -0.6506    0.0000 H   0  0  0  0  0  0  0  0  0  0  0  0
    3.8100   -2.7967    0.0000 H   0  0  0  0  0  0  0  0  0  0  0  0
    3.9014    1.5412    0.0000 H   0  0  0  0  0  0  0  0  0  0  0  0
  1 15  2  0  0  0  0
  2 19  1  0  0  0  0
  2 48  1  0  0  0  0
  3 22  2  0  0  0  0
  4  5  1  0  0  0  0
  4  6  1  0  0  0  0
  4 11  1  0  0  0  0
  4 23  1  0  0  0  0
  5  8  1  0  0  0  0
  5  9  1  0  0  0  0
  5 24  1  0  0  0  0
  6  7  1  0  0  0  0
  6 12  1  0  0  0  0
  6 25  1  0  0  0  0
  7 10  1  0  0  0  0
  7 15  1  0  0  0  0
  7 18  1  0  0  0  0
  8 13  1  0  0  0  0
  8 17  1  0  0  0  0
  8 19  1  0  0  0  0
  9 10  1  0  0  0  0
  9 26  1  0  0  0  0
  9 27  1  0  0  0  0
 10 28  1  0  0  0  0
 10 29  1  0  0  0  0
 11 14  1  0  0  0  0
 11 30  1  0  0  0  0
 11 31  1  0  0  0  0
 12 16  1  0  0  0  0
 12 32  1  0  0  0  0
 12 33  1  0  0  0  0
 13 14  1  0  0  0  0
 13 21  2  0  0  0  0
 14 34  1  0  0  0  0
 14 35  1  0  0  0  0
 15 16  1  0  0  0  0
 16 36  1  0  0  0  0
 16 37  1  0  0  0  0
 17 20  1  0  0  0  0
 17 38  1  0  0  0  0
 17 39  1  0  0  0  0
 18 40  1  0  0  0  0
 18 41  1  0  0  0  0
 18 42  1  0  0  0  0
 19 43  1  0  0  0  0
 19 44  1  0  0  0  0
 20 22  1  0  0  0  0
 20 45  1  0  0  0  0
 20 46  1  0  0  0  0
 21 22  1  0  0  0  0
 21 47  1  0  0  0  0
M  END
> <PUBCHEM_COMPOUND_CID>
521310
> <PUBCHEM_COMPOUND_CANONICALIZED>
1
> <PUBCHEM_CACTVS_COMPLEXITY>
563
> <PUBCHEM_CACTVS_HBOND_ACCEPTOR>
3
> <PUBCHEM_CACTVS_HBOND_DONOR>
1
> <PUBCHEM_CACTVS_ROTATABLE_BOND>
1
> <PUBCHEM_CACTVS_SUBSKEYS>
AAADceB4MAAAAAAAAAAAAAAAAAAAAYAAAAAwYIAAAAAAAGDAAAAAGgAACAAADwSggAICAAAAAgCIAqBSAAAAAAAgAAAACAEAAEgAEBIAAQAAQAAEwAAIAQOIzPCPgAAAAAAAAACAAAQAACAAAAAACAAAAA==
> <PUBCHEM_IUPAC_OPENEYE_NAME>
10-(hydroxymethyl)-13-methyl-2,6,7,8,9,11,12,14,15,16-decahydro-1H-cyclopenta[a]phenanthrene-3,17-dione
> <PUBCHEM_IUPAC_CAS_NAME>
10-(hydroxymethyl)-13-methyl-2,6,7,8,9,11,12,14,15,16-decahydro-1H-cyclopenta[a]phenanthrene-3,17-dione
> <PUBCHEM_IUPAC_NAME_MARKUP>
10-(hydroxymethyl)-13-methyl-2,6,7,8,9,11,12,14,15,16-decahydro-1<I>H</I>-cyclopenta[a]phenanthrene-3,17-dione
> <PUBCHEM_IUPAC_NAME>
10-(hydroxymethyl)-13-methyl-2,6,7,8,9,11,12,14,15,16-decahydro-1H-cyclopenta[a]phenanthrene-3,17-dione
> <PUBCHEM_IUPAC_SYSTEMATIC_NAME>
10-(hydroxymethyl)-13-methyl-2,6,7,8,9,11,12,14,15,16-decahydro-1H-cyclopenta[a]phenanthrene-3,17-dione
> <PUBCHEM_IUPAC_TRADITIONAL_NAME>
13-methyl-10-methylol-2,6,7,8,9,11,12,14,15,16-decahydro-1H-cyclopenta[a]phenanthrene-3,17-quinone
> <PUBCHEM_IUPAC_INCHI>
InChI=1S/C19H26O3/c1-18-8-7-16-14(15(18)4-5-17(18)22)3-2-12-10-13(21)6-9-19(12,16)11-20/h10,14-16,20H,2-9,11H2,1H3
> <PUBCHEM_IUPAC_INCHIKEY>
XGUHPTGEXRHMQQ-UHFFFAOYSA-N
> <PUBCHEM_XLOGP3>
1.5
> <PUBCHEM_EXACT_MASS>
302.18819469
> <PUBCHEM_MOLECULAR_FORMULA>
C19H26O3
> <PUBCHEM_MOLECULAR_WEIGHT>
302.4
> <PUBCHEM_OPENEYE_CAN_SMILES>
CC12CCC3C(C1CCC2=O)CCC4=CC(=O)CCC34CO
> <PUBCHEM_OPENEYE_ISO_SMILES>
CC12CCC3C(C1CCC2=O)CCC4=CC(=O)CCC34CO
> <PUBCHEM_CACTVS_TPSA>
54.4
> <PUBCHEM_MONOISOTOPIC_WEIGHT>
302.18819469
> <PUBCHEM_TOTAL_CHARGE>
0
> <PUBCHEM_HEAVY_ATOM_COUNT>
22
> <PUBCHEM_ATOM_DEF_STEREO_COUNT>
0
> <PUBCHEM_ATOM_UDEF_STEREO_COUNT>
5
> <PUBCHEM_BOND_DEF_STEREO_COUNT>
0
> <PUBCHEM_BOND_UDEF_STEREO_COUNT>
0
> <PUBCHEM_ISOTOPIC_ATOM_COUNT>
0
> <PUBCHEM_COMPONENT_COUNT>
1
> <PUBCHEM_CACTVS_TAUTO_COUNT>
-1
> <PUBCHEM_COORDINATE_TYPE>
1
5
255
> <PUBCHEM_BONDANNOTATIONS>
4  11  3
5  9  3
6  12  3
7  18  3
8  19  3
$$$$
