521352
  -OEChem-10302200292D
 38 39  0     1  0  0  0  0  0999 V2000
    5.0310   -1.2092    0.0000 F   0  0  0  0  0  0  0  0  0  0  0  0
    3.8839    0.4291    0.0000 F   0  0  0  0  0  0  0  0  0  0  0  0
    3.0647   -0.1444    0.0000 F   0  0  0  0  0  0  0  0  0  0  0  0
    4.2119   -1.7828    0.0000 F   0  0  0  0  0  0  0  0  0  0  0  0
    2.0000   -2.1108    0.0000 F   0  0  0  0  0  0  0  0  0  0  0  0
    2.2456   -0.7180    0.0000 F   0  0  0  0  0  0  0  0  0  0  0  0
    3.3927   -2.3563    0.0000 F   0  0  0  0  0  0  0  0  0  0  0  0
    6.1023   -2.0851    0.0000 O   0  0  0  0  0  0  0  0  0  0  0  0
    5.1894    1.1798    0.0000 O   0  0  0  0  0  0  0  0  0  0  0  0
    7.4198    1.3618    0.0000 C   0  0  0  0  0  0  0  0  0  0  0  0
    7.8976   -0.5867    0.0000 C   0  0  3  0  0  0  0  0  0  0  0  0
    8.1565    0.3792    0.0000 C   0  0  3  0  0  0  0  0  0  0  0  0
    6.1829   -0.2391    0.0000 C   0  0  3  0  0  0  0  0  0  0  0  0
    9.2966   -1.0956    0.0000 C   0  0  0  0  0  0  0  0  0  0  0  0
    9.5554   -0.1296    0.0000 C   0  0  0  0  0  0  0  0  0  0  0  0
    6.5249   -1.1788    0.0000 C   0  0  0  0  0  0  0  0  0  0  0  0
    7.5244    2.3563    0.0000 C   0  0  0  0  0  0  0  0  0  0  0  0
    6.5063    1.7685    0.0000 C   0  0  0  0  0  0  0  0  0  0  0  0
    7.6388   -1.5527    0.0000 C   0  0  0  0  0  0  0  0  0  0  0  0
    5.2766    0.1836    0.0000 C   0  0  0  0  0  0  0  0  0  0  0  0
    4.4575   -0.3900    0.0000 C   0  0  0  0  0  0  0  0  0  0  0  0
    3.6383   -0.9636    0.0000 C   0  0  0  0  0  0  0  0  0  0  0  0
    2.8192   -1.5372    0.0000 C   0  0  0  0  0  0  0  0  0  0  0  0
    8.1424   -0.2407    0.0000 H   0  0  0  0  0  0  0  0  0  0  0  0
    6.2240    0.3796    0.0000 H   0  0  0  0  0  0  0  0  0  0  0  0
    9.1016   -1.6841    0.0000 H   0  0  0  0  0  0  0  0  0  0  0  0
    9.8906   -1.2733    0.0000 H   0  0  0  0  0  0  0  0  0  0  0  0
   10.1494   -0.3074    0.0000 H   0  0  0  0  0  0  0  0  0  0  0  0
    9.7503    0.4589    0.0000 H   0  0  0  0  0  0  0  0  0  0  0  0
    8.1410    2.2915    0.0000 H   0  0  0  0  0  0  0  0  0  0  0  0
    7.5892    2.9729    0.0000 H   0  0  0  0  0  0  0  0  0  0  0  0
    6.9078    2.4211    0.0000 H   0  0  0  0  0  0  0  0  0  0  0  0
    6.7585    2.3349    0.0000 H   0  0  0  0  0  0  0  0  0  0  0  0
    5.9399    2.0207    0.0000 H   0  0  0  0  0  0  0  0  0  0  0  0
    6.2541    1.2021    0.0000 H   0  0  0  0  0  0  0  0  0  0  0  0
    7.0400   -1.3922    0.0000 H   0  0  0  0  0  0  0  0  0  0  0  0
    7.4784   -2.1515    0.0000 H   0  0  0  0  0  0  0  0  0  0  0  0
    8.2377   -1.7131    0.0000 H   0  0  0  0  0  0  0  0  0  0  0  0
  1 21  1  0  0  0  0
  2 21  1  0  0  0  0
  3 22  1  0  0  0  0
  4 22  1  0  0  0  0
  5 23  1  0  0  0  0
  6 23  1  0  0  0  0
  7 23  1  0  0  0  0
  8 16  2  0  0  0  0
  9 20  2  0  0  0  0
 10 11  1  0  0  0  0
 10 12  1  0  0  0  0
 10 17  1  0  0  0  0
 10 18  1  0  0  0  0
 11 14  1  0  0  0  0
 11 16  1  0  0  0  0
 11 19  1  0  0  0  0
 12 13  1  0  0  0  0
 12 15  1  0  0  0  0
 12 24  1  0  0  0  0
 13 16  1  0  0  0  0
 13 20  1  0  0  0  0
 13 25  1  0  0  0  0
 14 15  1  0  0  0  0
 14 26  1  0  0  0  0
 14 27  1  0  0  0  0
 15 28  1  0  0  0  0
 15 29  1  0  0  0  0
 17 30  1  0  0  0  0
 17 31  1  0  0  0  0
 17 32  1  0  0  0  0
 18 33  1  0  0  0  0
 18 34  1  0  0  0  0
 18 35  1  0  0  0  0
 19 36  1  0  0  0  0
 19 37  1  0  0  0  0
 19 38  1  0  0  0  0
 20 21  1  0  0  0  0
 21 22  1  0  0  0  0
 22 23  1  0  0  0  0
M  END
> <PUBCHEM_COMPOUND_CID>
521352
> <PUBCHEM_COMPOUND_CANONICALIZED>
1
> <PUBCHEM_CACTVS_COMPLEXITY>
564
> <PUBCHEM_CACTVS_HBOND_ACCEPTOR>
9
> <PUBCHEM_CACTVS_HBOND_DONOR>
0
> <PUBCHEM_CACTVS_ROTATABLE_BOND>
3
> <PUBCHEM_CACTVS_SUBSKEYS>
AAADccBwMcAAAAAAAAAAAAAAAAAAAYMAAAAwAAAAAAAAAAAAAAAAGwAAAAAADwSAgBACAAAAAAAIAIAQAAAAAAAAAAAAAAEAAAAAABIIAAAAAAAAAAAAAAEIiMCPgAAAAAAAAACAAAQAACAAAQAACAAAAA==
> <PUBCHEM_IUPAC_OPENEYE_NAME>
3-(2,2,3,3,4,4,4-heptafluorobutanoyl)-1,7,7-trimethyl-norbornan-2-one
> <PUBCHEM_IUPAC_CAS_NAME>
3-(2,2,3,3,4,4,4-heptafluoro-1-oxobutyl)-1,7,7-trimethyl-2-bicyclo[2.2.1]heptanone
> <PUBCHEM_IUPAC_NAME_MARKUP>
3-(2,2,3,3,4,4,4-heptafluorobutanoyl)-1,7,7-trimethylbicyclo[2.2.1]heptan-2-one
> <PUBCHEM_IUPAC_NAME>
3-(2,2,3,3,4,4,4-heptafluorobutanoyl)-1,7,7-trimethylbicyclo[2.2.1]heptan-2-one
> <PUBCHEM_IUPAC_SYSTEMATIC_NAME>
3-[2,2,3,3,4,4,4-heptakis(fluoranyl)butanoyl]-1,7,7-trimethyl-bicyclo[2.2.1]heptan-2-one
> <PUBCHEM_IUPAC_TRADITIONAL_NAME>
3-(2,2,3,3,4,4,4-heptafluorobutanoyl)-1,7,7-trimethyl-norbornan-2-one
> <PUBCHEM_IUPAC_INCHI>
InChI=1S/C14H15F7O2/c1-10(2)6-4-5-11(10,3)8(22)7(6)9(23)12(15,16)13(17,18)14(19,20)21/h6-7H,4-5H2,1-3H3
> <PUBCHEM_IUPAC_INCHIKEY>
PEWOESYEGLBLNR-UHFFFAOYSA-N
> <PUBCHEM_XLOGP3_AA>
4.6
> <PUBCHEM_EXACT_MASS>
348.09602685
> <PUBCHEM_MOLECULAR_FORMULA>
C14H15F7O2
> <PUBCHEM_MOLECULAR_WEIGHT>
348.26
> <PUBCHEM_OPENEYE_CAN_SMILES>
CC1(C2CCC1(C(=O)C2C(=O)C(C(C(F)(F)F)(F)F)(F)F)C)C
> <PUBCHEM_OPENEYE_ISO_SMILES>
CC1(C2CCC1(C(=O)C2C(=O)C(C(C(F)(F)F)(F)F)(F)F)C)C
> <PUBCHEM_CACTVS_TPSA>
34.1
> <PUBCHEM_MONOISOTOPIC_WEIGHT>
348.09602685
> <PUBCHEM_TOTAL_CHARGE>
0
> <PUBCHEM_HEAVY_ATOM_COUNT>
23
> <PUBCHEM_ATOM_DEF_STEREO_COUNT>
0
> <PUBCHEM_ATOM_UDEF_STEREO_COUNT>
3
> <PUBCHEM_BOND_DEF_STEREO_COUNT>
0
> <PUBCHEM_BOND_UDEF_STEREO_COUNT>
0
> <PUBCHEM_ISOTOPIC_ATOM_COUNT>
0
> <PUBCHEM_COMPONENT_COUNT>
1
> <PUBCHEM_CACTVS_TAUTO_COUNT>
-1
> <PUBCHEM_COORDINATE_TYPE>
1
5
255
> <PUBCHEM_BONDANNOTATIONS>
11  19  3
12  15  3
13  20  3
$$$$
