521406
  -OEChem-10302200292D
 46 46  0     1  0  0  0  0  0999 V2000
    5.5981    5.2500    0.0000 F   0  0  0  0  0  0  0  0  0  0  0  0
    6.5981    4.2500    0.0000 F   0  0  0  0  0  0  0  0  0  0  0  0
    4.5981    4.2500    0.0000 F   0  0  0  0  0  0  0  0  0  0  0  0
    3.0000   -5.2500    0.0000 F   0  0  0  0  0  0  0  0  0  0  0  0
    2.0000   -4.2500    0.0000 F   0  0  0  0  0  0  0  0  0  0  0  0
    4.0000   -4.2500    0.0000 F   0  0  0  0  0  0  0  0  0  0  0  0
    6.4641    1.7500    0.0000 O   0  0  0  0  0  0  0  0  0  0  0  0
    5.5981    0.2500    0.0000 O   0  0  0  0  0  0  0  0  0  0  0  0
    3.8660   -2.7500    0.0000 O   0  0  0  0  0  0  0  0  0  0  0  0
    6.4641    2.7500    0.0000 O   0  0  0  0  0  0  0  0  0  0  0  0
    2.1340   -2.7500    0.0000 O   0  0  0  0  0  0  0  0  0  0  0  0
    4.7320    2.7500    0.0000 N   0  0  0  0  0  0  0  0  0  0  0  0
    4.7320    1.7500    0.0000 C   0  0  3  0  0  0  0  0  0  0  0  0
    3.8660    1.2500    0.0000 C   0  0  0  0  0  0  0  0  0  0  0  0
    3.8660    0.2500    0.0000 C   0  0  0  0  0  0  0  0  0  0  0  0
    5.5981    1.2500    0.0000 C   0  0  0  0  0  0  0  0  0  0  0  0
    8.1962    1.7500    0.0000 C   0  0  0  0  0  0  0  0  0  0  0  0
    7.3301    1.2500    0.0000 C   0  0  0  0  0  0  0  0  0  0  0  0
    4.7320   -0.2500    0.0000 C   0  0  0  0  0  0  0  0  0  0  0  0
    3.0000   -0.2500    0.0000 C   0  0  0  0  0  0  0  0  0  0  0  0
    9.0622    1.2500    0.0000 C   0  0  0  0  0  0  0  0  0  0  0  0
    4.7320   -1.2500    0.0000 C   0  0  0  0  0  0  0  0  0  0  0  0
    3.0000   -1.2500    0.0000 C   0  0  0  0  0  0  0  0  0  0  0  0
    5.5981    3.2500    0.0000 C   0  0  0  0  0  0  0  0  0  0  0  0
    3.8660   -1.7500    0.0000 C   0  0  0  0  0  0  0  0  0  0  0  0
    9.9282    1.7500    0.0000 C   0  0  0  0  0  0  0  0  0  0  0  0
    5.5981    4.2500    0.0000 C   0  0  0  0  0  0  0  0  0  0  0  0
    3.0000   -3.2500    0.0000 C   0  0  0  0  0  0  0  0  0  0  0  0
    3.0000   -4.2500    0.0000 C   0  0  0  0  0  0  0  0  0  0  0  0
    5.2690    2.0600    0.0000 H   0  0  0  0  0  0  0  0  0  0  0  0
    3.6540    1.8326    0.0000 H   0  0  0  0  0  0  0  0  0  0  0  0
    3.2554    1.1423    0.0000 H   0  0  0  0  0  0  0  0  0  0  0  0
    4.1951    3.0600    0.0000 H   0  0  0  0  0  0  0  0  0  0  0  0
    8.5947    2.2250    0.0000 H   0  0  0  0  0  0  0  0  0  0  0  0
    7.7976    2.2250    0.0000 H   0  0  0  0  0  0  0  0  0  0  0  0
    6.9316    0.7751    0.0000 H   0  0  0  0  0  0  0  0  0  0  0  0
    7.7287    0.7751    0.0000 H   0  0  0  0  0  0  0  0  0  0  0  0
    8.6636    0.7751    0.0000 H   0  0  0  0  0  0  0  0  0  0  0  0
    9.4607    0.7751    0.0000 H   0  0  0  0  0  0  0  0  0  0  0  0
    5.2690    0.0600    0.0000 H   0  0  0  0  0  0  0  0  0  0  0  0
    2.4631    0.0600    0.0000 H   0  0  0  0  0  0  0  0  0  0  0  0
    5.2690   -1.5600    0.0000 H   0  0  0  0  0  0  0  0  0  0  0  0
    2.4631   -1.5600    0.0000 H   0  0  0  0  0  0  0  0  0  0  0  0
   10.2382    1.2131    0.0000 H   0  0  0  0  0  0  0  0  0  0  0  0
   10.4651    2.0600    0.0000 H   0  0  0  0  0  0  0  0  0  0  0  0
    9.6182    2.2869    0.0000 H   0  0  0  0  0  0  0  0  0  0  0  0
  1 27  1  0  0  0  0
  2 27  1  0  0  0  0
  3 27  1  0  0  0  0
  4 29  1  0  0  0  0
  5 29  1  0  0  0  0
  6 29  1  0  0  0  0
  7 16  1  0  0  0  0
  7 18  1  0  0  0  0
  8 16  2  0  0  0  0
  9 25  1  0  0  0  0
  9 28  1  0  0  0  0
 10 24  2  0  0  0  0
 11 28  2  0  0  0  0
 12 13  1  0  0  0  0
 12 24  1  0  0  0  0
 12 33  1  0  0  0  0
 13 14  1  0  0  0  0
 13 16  1  0  0  0  0
 13 30  1  0  0  0  0
 14 15  1  0  0  0  0
 14 31  1  0  0  0  0
 14 32  1  0  0  0  0
 15 19  2  0  0  0  0
 15 20  1  0  0  0  0
 17 18  1  0  0  0  0
 17 21  1  0  0  0  0
 17 34  1  0  0  0  0
 17 35  1  0  0  0  0
 18 36  1  0  0  0  0
 18 37  1  0  0  0  0
 19 22  1  0  0  0  0
 19 40  1  0  0  0  0
 20 23  2  0  0  0  0
 20 41  1  0  0  0  0
 21 26  1  0  0  0  0
 21 38  1  0  0  0  0
 21 39  1  0  0  0  0
 22 25  2  0  0  0  0
 22 42  1  0  0  0  0
 23 25  1  0  0  0  0
 23 43  1  0  0  0  0
 24 27  1  0  0  0  0
 26 44  1  0  0  0  0
 26 45  1  0  0  0  0
 26 46  1  0  0  0  0
 28 29  1  0  0  0  0
M  END
> <PUBCHEM_COMPOUND_CID>
521406
> <PUBCHEM_COMPOUND_CANONICALIZED>
1
> <PUBCHEM_CACTVS_COMPLEXITY>
570
> <PUBCHEM_CACTVS_HBOND_ACCEPTOR>
11
> <PUBCHEM_CACTVS_HBOND_DONOR>
1
> <PUBCHEM_CACTVS_ROTATABLE_BOND>
10
> <PUBCHEM_CACTVS_SUBSKEYS>
AAADceB6OcAAAAAAAAAAAAAAAAAAAAAAAAAwAAAAAAAAAAABAAAAHwAQAAAADCzhmBYyDoLABACIAiHSGAACCAAgIAAIiIGOCIgOJjKEsTuHOiCk1hGYqAeYyKCOIAAAAAAAAABAAAAAAAAAAAAAAAAAAA==
> <PUBCHEM_IUPAC_OPENEYE_NAME>
butyl 2-[(2,2,2-trifluoroacetyl)amino]-3-[4-(2,2,2-trifluoroacetyl)oxyphenyl]propanoate
> <PUBCHEM_IUPAC_CAS_NAME>
3-[4-(2,2,2-trifluoro-1-oxoethoxy)phenyl]-2-[(2,2,2-trifluoro-1-oxoethyl)amino]propanoic acid butyl ester
> <PUBCHEM_IUPAC_NAME_MARKUP>
butyl 2-[(2,2,2-trifluoroacetyl)amino]-3-[4-(2,2,2-trifluoroacetyl)oxyphenyl]propanoate
> <PUBCHEM_IUPAC_NAME>
butyl 2-[(2,2,2-trifluoroacetyl)amino]-3-[4-(2,2,2-trifluoroacetyl)oxyphenyl]propanoate
> <PUBCHEM_IUPAC_SYSTEMATIC_NAME>
butyl 2-[2,2,2-tris(fluoranyl)ethanoylamino]-3-[4-[2,2,2-tris(fluoranyl)ethanoyloxy]phenyl]propanoate
> <PUBCHEM_IUPAC_TRADITIONAL_NAME>
2-[(2,2,2-trifluoroacetyl)amino]-3-[4-(2,2,2-trifluoroacetyl)oxyphenyl]propionic acid butyl ester
> <PUBCHEM_IUPAC_INCHI>
InChI=1S/C17H17F6NO5/c1-2-3-8-28-13(25)12(24-14(26)16(18,19)20)9-10-4-6-11(7-5-10)29-15(27)17(21,22)23/h4-7,12H,2-3,8-9H2,1H3,(H,24,26)
> <PUBCHEM_IUPAC_INCHIKEY>
BFQHENRWMAGCOB-UHFFFAOYSA-N
> <PUBCHEM_XLOGP3_AA>
4.7
> <PUBCHEM_EXACT_MASS>
429.10109162
> <PUBCHEM_MOLECULAR_FORMULA>
C17H17F6NO5
> <PUBCHEM_MOLECULAR_WEIGHT>
429.31
> <PUBCHEM_OPENEYE_CAN_SMILES>
CCCCOC(=O)C(CC1=CC=C(C=C1)OC(=O)C(F)(F)F)NC(=O)C(F)(F)F
> <PUBCHEM_OPENEYE_ISO_SMILES>
CCCCOC(=O)C(CC1=CC=C(C=C1)OC(=O)C(F)(F)F)NC(=O)C(F)(F)F
> <PUBCHEM_CACTVS_TPSA>
81.7
> <PUBCHEM_MONOISOTOPIC_WEIGHT>
429.10109162
> <PUBCHEM_TOTAL_CHARGE>
0
> <PUBCHEM_HEAVY_ATOM_COUNT>
29
> <PUBCHEM_ATOM_DEF_STEREO_COUNT>
0
> <PUBCHEM_ATOM_UDEF_STEREO_COUNT>
1
> <PUBCHEM_BOND_DEF_STEREO_COUNT>
0
> <PUBCHEM_BOND_UDEF_STEREO_COUNT>
0
> <PUBCHEM_ISOTOPIC_ATOM_COUNT>
0
> <PUBCHEM_COMPONENT_COUNT>
1
> <PUBCHEM_CACTVS_TAUTO_COUNT>
-1
> <PUBCHEM_COORDINATE_TYPE>
1
5
255
> <PUBCHEM_BONDANNOTATIONS>
13  14  3
15  19  8
15  20  8
19  22  8
20  23  8
22  25  8
23  25  8
$$$$
