521461
  -OEChem-10302200292D
 13 13  0     1  0  0  0  0  0999 V2000
    5.8660   -0.6160    0.0000 Cl  0  0  0  0  0  0  0  0  0  0  0  0
    5.8660    1.1160    0.0000 Cl  0  0  0  0  0  0  0  0  0  0  0  0
    2.0000   -1.1160    0.0000 N   0  0  0  0  0  0  0  0  0  0  0  0
    4.5000   -0.2500    0.0000 C   0  0  3  0  0  0  0  0  0  0  0  0
    5.3660    0.2500    0.0000 C   0  0  0  0  0  0  0  0  0  0  0  0
    4.5000    0.7500    0.0000 C   0  0  0  0  0  0  0  0  0  0  0  0
    4.0000   -1.1160    0.0000 C   0  0  0  0  0  0  0  0  0  0  0  0
    3.0000   -1.1160    0.0000 C   0  0  0  0  0  0  0  0  0  0  0  0
    3.9011   -0.0895    0.0000 H   0  0  0  0  0  0  0  0  0  0  0  0
    4.7120    1.3326    0.0000 H   0  0  0  0  0  0  0  0  0  0  0  0
    3.8894    0.8577    0.0000 H   0  0  0  0  0  0  0  0  0  0  0  0
    3.8923   -1.7266    0.0000 H   0  0  0  0  0  0  0  0  0  0  0  0
    4.5826   -1.3281    0.0000 H   0  0  0  0  0  0  0  0  0  0  0  0
  1  5  1  0  0  0  0
  2  5  1  0  0  0  0
  3  8  3  0  0  0  0
  4  5  1  0  0  0  0
  4  6  1  0  0  0  0
  4  7  1  0  0  0  0
  4  9  1  0  0  0  0
  5  6  1  0  0  0  0
  6 10  1  0  0  0  0
  6 11  1  0  0  0  0
  7  8  1  0  0  0  0
  7 12  1  0  0  0  0
  7 13  1  0  0  0  0
M  END
> <PUBCHEM_COMPOUND_CID>
521461
> <PUBCHEM_COMPOUND_CANONICALIZED>
1
> <PUBCHEM_CACTVS_COMPLEXITY>
144
> <PUBCHEM_CACTVS_HBOND_ACCEPTOR>
1
> <PUBCHEM_CACTVS_HBOND_DONOR>
0
> <PUBCHEM_CACTVS_ROTATABLE_BOND>
1
> <PUBCHEM_CACTVS_SUBSKEYS>
AAADcYBiAAAGAAAAAAAAAAAAGAAAAAAAAAAAAAAAAAAAAAAAAAAAHAIAAAAADQKBAIAAAAAAAAAQBAAAAAAAAAAAAAAAAAAAAgAAgAIBAAAAAAAAAAAAAAgAAAAIAAAAAAAAAAAAAAAAAAAAAAAAAAAAAA==
> <PUBCHEM_IUPAC_OPENEYE_NAME>
2-(2,2-dichlorocyclopropyl)acetonitrile
> <PUBCHEM_IUPAC_CAS_NAME>
2-(2,2-dichlorocyclopropyl)acetonitrile
> <PUBCHEM_IUPAC_NAME_MARKUP>
2-(2,2-dichlorocyclopropyl)acetonitrile
> <PUBCHEM_IUPAC_NAME>
2-(2,2-dichlorocyclopropyl)acetonitrile
> <PUBCHEM_IUPAC_SYSTEMATIC_NAME>
2-[2,2-bis(chloranyl)cyclopropyl]ethanenitrile
> <PUBCHEM_IUPAC_TRADITIONAL_NAME>
2-(2,2-dichlorocyclopropyl)acetonitrile
> <PUBCHEM_IUPAC_INCHI>
InChI=1S/C5H5Cl2N/c6-5(7)3-4(5)1-2-8/h4H,1,3H2
> <PUBCHEM_IUPAC_INCHIKEY>
METYSMJJRFRDPP-UHFFFAOYSA-N
> <PUBCHEM_XLOGP3_AA>
1.5
> <PUBCHEM_EXACT_MASS>
148.9799046
> <PUBCHEM_MOLECULAR_FORMULA>
C5H5Cl2N
> <PUBCHEM_MOLECULAR_WEIGHT>
150.00
> <PUBCHEM_OPENEYE_CAN_SMILES>
C1C(C1(Cl)Cl)CC#N
> <PUBCHEM_OPENEYE_ISO_SMILES>
C1C(C1(Cl)Cl)CC#N
> <PUBCHEM_CACTVS_TPSA>
23.8
> <PUBCHEM_MONOISOTOPIC_WEIGHT>
148.9799046
> <PUBCHEM_TOTAL_CHARGE>
0
> <PUBCHEM_HEAVY_ATOM_COUNT>
8
> <PUBCHEM_ATOM_DEF_STEREO_COUNT>
0
> <PUBCHEM_ATOM_UDEF_STEREO_COUNT>
1
> <PUBCHEM_BOND_DEF_STEREO_COUNT>
0
> <PUBCHEM_BOND_UDEF_STEREO_COUNT>
0
> <PUBCHEM_ISOTOPIC_ATOM_COUNT>
0
> <PUBCHEM_COMPONENT_COUNT>
1
> <PUBCHEM_CACTVS_TAUTO_COUNT>
-1
> <PUBCHEM_COORDINATE_TYPE>
1
5
255
> <PUBCHEM_BONDANNOTATIONS>
4  7  3
$$$$
