521452
  -OEChem-10302200292D
 28 28  0     1  0  0  0  0  0999 V2000
    2.8090   -0.7306    0.0000 C   0  0  0  0  0  0  0  0  0  0  0  0
    2.0000   -1.3184    0.0000 C   0  0  0  0  0  0  0  0  0  0  0  0
    3.6180   -1.3184    0.0000 C   0  0  0  0  0  0  0  0  0  0  0  0
    2.3090   -2.2694    0.0000 C   0  0  0  0  0  0  0  0  0  0  0  0
    3.3090   -2.2694    0.0000 C   0  0  0  0  0  0  0  0  0  0  0  0
    3.6750    0.7694    0.0000 C   0  0  3  0  0  0  0  0  0  0  0  0
    2.8090    0.2694    0.0000 C   0  0  0  0  0  0  0  0  0  0  0  0
    3.6750    1.7694    0.0000 C   0  0  0  0  0  0  0  0  0  0  0  0
    4.5411    0.2694    0.0000 C   0  0  0  0  0  0  0  0  0  0  0  0
    4.5411    2.2694    0.0000 C   0  0  0  0  0  0  0  0  0  0  0  0
    1.6900   -0.7814    0.0000 H   0  0  0  0  0  0  0  0  0  0  0  0
    1.4336   -1.5705    0.0000 H   0  0  0  0  0  0  0  0  0  0  0  0
    4.1844   -1.5705    0.0000 H   0  0  0  0  0  0  0  0  0  0  0  0
    3.9280   -0.7814    0.0000 H   0  0  0  0  0  0  0  0  0  0  0  0
    1.7026   -2.3983    0.0000 H   0  0  0  0  0  0  0  0  0  0  0  0
    2.3738   -2.8860    0.0000 H   0  0  0  0  0  0  0  0  0  0  0  0
    3.2442   -2.8860    0.0000 H   0  0  0  0  0  0  0  0  0  0  0  0
    3.9155   -2.3983    0.0000 H   0  0  0  0  0  0  0  0  0  0  0  0
    4.2120    1.0794    0.0000 H   0  0  0  0  0  0  0  0  0  0  0  0
    2.2721    0.5794    0.0000 H   0  0  0  0  0  0  0  0  0  0  0  0
    3.4630    2.3520    0.0000 H   0  0  0  0  0  0  0  0  0  0  0  0
    3.0645    1.6618    0.0000 H   0  0  0  0  0  0  0  0  0  0  0  0
    4.2311   -0.2675    0.0000 H   0  0  0  0  0  0  0  0  0  0  0  0
    5.0780   -0.0406    0.0000 H   0  0  0  0  0  0  0  0  0  0  0  0
    4.8511    0.8064    0.0000 H   0  0  0  0  0  0  0  0  0  0  0  0
    4.8511    1.7325    0.0000 H   0  0  0  0  0  0  0  0  0  0  0  0
    5.0780    2.5794    0.0000 H   0  0  0  0  0  0  0  0  0  0  0  0
    4.2311    2.8064    0.0000 H   0  0  0  0  0  0  0  0  0  0  0  0
  1  2  1  0  0  0  0
  1  3  1  0  0  0  0
  1  7  2  0  0  0  0
  2  4  1  0  0  0  0
  2 11  1  0  0  0  0
  2 12  1  0  0  0  0
  3  5  1  0  0  0  0
  3 13  1  0  0  0  0
  3 14  1  0  0  0  0
  4  5  1  0  0  0  0
  4 15  1  0  0  0  0
  4 16  1  0  0  0  0
  5 17  1  0  0  0  0
  5 18  1  0  0  0  0
  6  7  1  0  0  0  0
  6  8  1  0  0  0  0
  6  9  1  0  0  0  0
  6 19  1  0  0  0  0
  7 20  1  0  0  0  0
  8 10  1  0  0  0  0
  8 21  1  0  0  0  0
  8 22  1  0  0  0  0
  9 23  1  0  0  0  0
  9 24  1  0  0  0  0
  9 25  1  0  0  0  0
 10 26  1  0  0  0  0
 10 27  1  0  0  0  0
 10 28  1  0  0  0  0
M  END
> <PUBCHEM_COMPOUND_CID>
521452
> <PUBCHEM_COMPOUND_CANONICALIZED>
1
> <PUBCHEM_CACTVS_COMPLEXITY>
114
> <PUBCHEM_CACTVS_HBOND_ACCEPTOR>
0
> <PUBCHEM_CACTVS_HBOND_DONOR>
0
> <PUBCHEM_CACTVS_ROTATABLE_BOND>
2
> <PUBCHEM_CACTVS_SUBSKEYS>
AAADceBwAAAAAAAAAAAAAAAAAAAAAYAAAAAAAAAAAAAAAAAAAAAAGAAAAAAADQCAAAACAAAAAACAAiBCAAAAAAAgAAAACAAAAAgAAAIAAQAAAAAAgAAIAAIAAAAIAAAAAAAAAAAAAAAAAAAAAAAAAAAAAA==
> <PUBCHEM_IUPAC_OPENEYE_NAME>
2-methylbutylidenecyclopentane
> <PUBCHEM_IUPAC_CAS_NAME>
2-methylbutylidenecyclopentane
> <PUBCHEM_IUPAC_NAME_MARKUP>
2-methylbutylidenecyclopentane
> <PUBCHEM_IUPAC_NAME>
2-methylbutylidenecyclopentane
> <PUBCHEM_IUPAC_SYSTEMATIC_NAME>
2-methylbutylidenecyclopentane
> <PUBCHEM_IUPAC_TRADITIONAL_NAME>
2-methylbutylidenecyclopentane
> <PUBCHEM_IUPAC_INCHI>
InChI=1S/C10H18/c1-3-9(2)8-10-6-4-5-7-10/h8-9H,3-7H2,1-2H3
> <PUBCHEM_IUPAC_INCHIKEY>
WEDHOVYBLBZKQA-UHFFFAOYSA-N
> <PUBCHEM_XLOGP3_AA>
3.6
> <PUBCHEM_EXACT_MASS>
138.140850574
> <PUBCHEM_MOLECULAR_FORMULA>
C10H18
> <PUBCHEM_MOLECULAR_WEIGHT>
138.25
> <PUBCHEM_OPENEYE_CAN_SMILES>
CCC(C)C=C1CCCC1
> <PUBCHEM_OPENEYE_ISO_SMILES>
CCC(C)C=C1CCCC1
> <PUBCHEM_CACTVS_TPSA>
0
> <PUBCHEM_MONOISOTOPIC_WEIGHT>
138.140850574
> <PUBCHEM_TOTAL_CHARGE>
0
> <PUBCHEM_HEAVY_ATOM_COUNT>
10
> <PUBCHEM_ATOM_DEF_STEREO_COUNT>
0
> <PUBCHEM_ATOM_UDEF_STEREO_COUNT>
1
> <PUBCHEM_BOND_DEF_STEREO_COUNT>
0
> <PUBCHEM_BOND_UDEF_STEREO_COUNT>
0
> <PUBCHEM_ISOTOPIC_ATOM_COUNT>
0
> <PUBCHEM_COMPONENT_COUNT>
1
> <PUBCHEM_CACTVS_TAUTO_COUNT>
1
> <PUBCHEM_COORDINATE_TYPE>
1
5
255
> <PUBCHEM_BONDANNOTATIONS>
6  9  3
$$$$
