521486
  -OEChem-10302200292D
 20 19  0     1  0  0  0  0  0999 V2000
    6.3301   -0.2500    0.0000 O   0  0  0  0  0  0  0  0  0  0  0  0
    4.5981   -1.2500    0.0000 O   0  0  0  0  0  0  0  0  0  0  0  0
    3.7320    0.2500    0.0000 C   0  0  0  0  0  0  0  0  0  0  0  0
    2.8660   -0.2500    0.0000 C   0  0  0  0  0  0  0  0  0  0  0  0
    5.4641    0.2500    0.0000 C   0  0  3  0  0  0  0  0  0  0  0  0
    4.5981   -0.2500    0.0000 C   0  0  0  0  0  0  0  0  0  0  0  0
    5.4641    1.2500    0.0000 C   0  0  0  0  0  0  0  0  0  0  0  0
    2.0000    0.2500    0.0000 C   0  0  0  0  0  0  0  0  0  0  0  0
    4.1306    0.7249    0.0000 H   0  0  0  0  0  0  0  0  0  0  0  0
    3.3335    0.7249    0.0000 H   0  0  0  0  0  0  0  0  0  0  0  0
    2.4675   -0.7249    0.0000 H   0  0  0  0  0  0  0  0  0  0  0  0
    3.2646   -0.7249    0.0000 H   0  0  0  0  0  0  0  0  0  0  0  0
    5.4641   -0.3700    0.0000 H   0  0  0  0  0  0  0  0  0  0  0  0
    6.0841    1.2500    0.0000 H   0  0  0  0  0  0  0  0  0  0  0  0
    5.4641    1.8700    0.0000 H   0  0  0  0  0  0  0  0  0  0  0  0
    4.8441    1.2500    0.0000 H   0  0  0  0  0  0  0  0  0  0  0  0
    2.3100    0.7869    0.0000 H   0  0  0  0  0  0  0  0  0  0  0  0
    1.4631    0.5600    0.0000 H   0  0  0  0  0  0  0  0  0  0  0  0
    1.6900   -0.2869    0.0000 H   0  0  0  0  0  0  0  0  0  0  0  0
    6.8671    0.0600    0.0000 H   0  0  0  0  0  0  0  0  0  0  0  0
  1  5  1  0  0  0  0
  1 20  1  0  0  0  0
  2  6  2  0  0  0  0
  3  4  1  0  0  0  0
  3  6  1  0  0  0  0
  3  9  1  0  0  0  0
  3 10  1  0  0  0  0
  4  8  1  0  0  0  0
  4 11  1  0  0  0  0
  4 12  1  0  0  0  0
  5  6  1  0  0  0  0
  5  7  1  0  0  0  0
  5 13  1  0  0  0  0
  7 14  1  0  0  0  0
  7 15  1  0  0  0  0
  7 16  1  0  0  0  0
  8 17  1  0  0  0  0
  8 18  1  0  0  0  0
  8 19  1  0  0  0  0
M  END
> <PUBCHEM_COMPOUND_CID>
521486
> <PUBCHEM_COMPOUND_CANONICALIZED>
1
> <PUBCHEM_CACTVS_COMPLEXITY>
78.6
> <PUBCHEM_CACTVS_HBOND_ACCEPTOR>
2
> <PUBCHEM_CACTVS_HBOND_DONOR>
1
> <PUBCHEM_CACTVS_ROTATABLE_BOND>
3
> <PUBCHEM_CACTVS_SUBSKEYS>
AAADccBgMAAAAAAAAAAAAAAAAAAAAAAAAAAAAAAAAAAAAAAAAAAAGgAACAAACBSggAICAAAAAgAIAIAQAAIAAAAAAAAAAAFAAAAAEBIAAAAAQAAEAAAAAAGAAAAAAAAAAAAAAAAAAAAAAAAAAAAAAAAAAA==
> <PUBCHEM_IUPAC_OPENEYE_NAME>
2-hydroxyhexan-3-one
> <PUBCHEM_IUPAC_CAS_NAME>
2-hydroxy-3-hexanone
> <PUBCHEM_IUPAC_NAME_MARKUP>
2-hydroxyhexan-3-one
> <PUBCHEM_IUPAC_NAME>
2-hydroxyhexan-3-one
> <PUBCHEM_IUPAC_SYSTEMATIC_NAME>
2-oxidanylhexan-3-one
> <PUBCHEM_IUPAC_TRADITIONAL_NAME>
2-hydroxyhexan-3-one
> <PUBCHEM_IUPAC_INCHI>
InChI=1S/C6H12O2/c1-3-4-6(8)5(2)7/h5,7H,3-4H2,1-2H3
> <PUBCHEM_IUPAC_INCHIKEY>
ZWBUSAWJHMPOEJ-UHFFFAOYSA-N
> <PUBCHEM_XLOGP3_AA>
0.5
> <PUBCHEM_EXACT_MASS>
116.083729621
> <PUBCHEM_MOLECULAR_FORMULA>
C6H12O2
> <PUBCHEM_MOLECULAR_WEIGHT>
116.16
> <PUBCHEM_OPENEYE_CAN_SMILES>
CCCC(=O)C(C)O
> <PUBCHEM_OPENEYE_ISO_SMILES>
CCCC(=O)C(C)O
> <PUBCHEM_CACTVS_TPSA>
37.3
> <PUBCHEM_MONOISOTOPIC_WEIGHT>
116.083729621
> <PUBCHEM_TOTAL_CHARGE>
0
> <PUBCHEM_HEAVY_ATOM_COUNT>
8
> <PUBCHEM_ATOM_DEF_STEREO_COUNT>
0
> <PUBCHEM_ATOM_UDEF_STEREO_COUNT>
1
> <PUBCHEM_BOND_DEF_STEREO_COUNT>
0
> <PUBCHEM_BOND_UDEF_STEREO_COUNT>
0
> <PUBCHEM_ISOTOPIC_ATOM_COUNT>
0
> <PUBCHEM_COMPONENT_COUNT>
1
> <PUBCHEM_CACTVS_TAUTO_COUNT>
-1
> <PUBCHEM_COORDINATE_TYPE>
1
5
255
> <PUBCHEM_BONDANNOTATIONS>
5  1  3
$$$$
