521405
  -OEChem-10302200292D
 52 56  0     1  0  0  0  0  0999 V2000
    4.2841   -2.2870    0.0000 C   0  0  3  0  0  0  0  0  0  0  0  0
    3.2841   -2.2870    0.0000 C   0  0  3  0  0  0  0  0  0  0  0  0
    3.7841   -3.1535    0.0000 C   0  0  3  0  0  0  0  0  0  0  0  0
    3.7841   -0.7482    0.0000 C   0  0  3  0  0  0  0  0  0  0  0  0
    2.9180   -0.2482    0.0000 C   0  0  3  0  0  0  0  0  0  0  0  0
    4.5931   -1.3359    0.0000 C   0  0  0  0  0  0  0  0  0  0  0  0
    2.9750   -1.3359    0.0000 C   0  0  0  0  0  0  0  0  0  0  0  0
    2.5123   -1.9508    0.0000 C   0  0  0  0  0  0  0  0  0  0  0  0
    2.9180    0.7518    0.0000 C   0  0  3  0  0  0  0  0  0  0  0  0
    4.6501   -0.2482    0.0000 C   0  0  0  0  0  0  0  0  0  0  0  0
    3.7841    1.2518    0.0000 C   0  0  3  0  0  0  0  0  0  0  0  0
    5.2841   -2.2870    0.0000 C   0  0  0  0  0  0  0  0  0  0  0  0
    4.6501    0.7518    0.0000 C   0  0  0  0  0  0  0  0  0  0  0  0
    2.0080    1.2587    0.0000 C   0  0  0  0  0  0  0  0  0  0  0  0
    3.8001    2.2934    0.0000 C   0  0  0  0  0  0  0  0  0  0  0  0
    2.0520    0.2518    0.0000 C   0  0  0  0  0  0  0  0  0  0  0  0
    2.0000    2.3003    0.0000 C   0  0  0  0  0  0  0  0  0  0  0  0
    2.9021    2.8211    0.0000 C   0  0  0  0  0  0  0  0  0  0  0  0
    4.3101    3.1535    0.0000 C   0  0  0  0  0  0  0  0  0  0  0  0
    4.8000    2.2818    0.0000 C   0  0  0  0  0  0  0  0  0  0  0  0
    2.7176   -2.5391    0.0000 H   0  0  0  0  0  0  0  0  0  0  0  0
    3.8736   -3.7670    0.0000 H   0  0  0  0  0  0  0  0  0  0  0  0
    2.3023   -0.1758    0.0000 H   0  0  0  0  0  0  0  0  0  0  0  0
    5.1595   -1.5881    0.0000 H   0  0  0  0  0  0  0  0  0  0  0  0
    4.9031   -0.7990    0.0000 H   0  0  0  0  0  0  0  0  0  0  0  0
    2.6650   -0.7990    0.0000 H   0  0  0  0  0  0  0  0  0  0  0  0
    2.4086   -1.5881    0.0000 H   0  0  0  0  0  0  0  0  0  0  0  0
    1.9433   -1.7046    0.0000 H   0  0  0  0  0  0  0  0  0  0  0  0
    2.1710   -2.4684    0.0000 H   0  0  0  0  0  0  0  0  0  0  0  0
    4.8621   -0.8308    0.0000 H   0  0  0  0  0  0  0  0  0  0  0  0
    5.2607   -0.1405    0.0000 H   0  0  0  0  0  0  0  0  0  0  0  0
    4.3234    1.5577    0.0000 H   0  0  0  0  0  0  0  0  0  0  0  0
    5.2841   -2.9070    0.0000 H   0  0  0  0  0  0  0  0  0  0  0  0
    5.9041   -2.2870    0.0000 H   0  0  0  0  0  0  0  0  0  0  0  0
    5.2841   -1.6670    0.0000 H   0  0  0  0  0  0  0  0  0  0  0  0
    5.2607    0.6442    0.0000 H   0  0  0  0  0  0  0  0  0  0  0  0
    4.8621    1.3344    0.0000 H   0  0  0  0  0  0  0  0  0  0  0  0
    1.3964    1.3601    0.0000 H   0  0  0  0  0  0  0  0  0  0  0  0
    1.8035    0.6734    0.0000 H   0  0  0  0  0  0  0  0  0  0  0  0
    1.7420    0.7888    0.0000 H   0  0  0  0  0  0  0  0  0  0  0  0
    1.5151   -0.0582    0.0000 H   0  0  0  0  0  0  0  0  0  0  0  0
    2.3620   -0.2851    0.0000 H   0  0  0  0  0  0  0  0  0  0  0  0
    1.7864    2.8824    0.0000 H   0  0  0  0  0  0  0  0  0  0  0  0
    1.3900    2.1895    0.0000 H   0  0  0  0  0  0  0  0  0  0  0  0
    3.3030    3.2940    0.0000 H   0  0  0  0  0  0  0  0  0  0  0  0
    2.5048    3.2971    0.0000 H   0  0  0  0  0  0  0  0  0  0  0  0
    4.8434    2.8373    0.0000 H   0  0  0  0  0  0  0  0  0  0  0  0
    4.6263    3.6868    0.0000 H   0  0  0  0  0  0  0  0  0  0  0  0
    3.7768    3.4697    0.0000 H   0  0  0  0  0  0  0  0  0  0  0  0
    4.7929    1.6618    0.0000 H   0  0  0  0  0  0  0  0  0  0  0  0
    5.4200    2.2746    0.0000 H   0  0  0  0  0  0  0  0  0  0  0  0
    4.8072    2.9018    0.0000 H   0  0  0  0  0  0  0  0  0  0  0  0
  1  2  1  0  0  0  0
  1  3  1  0  0  0  0
  1  6  1  0  0  0  0
  1 12  1  0  0  0  0
  2  3  1  0  0  0  0
  2  7  1  0  0  0  0
  2 21  1  0  0  0  0
  3  8  1  0  0  0  0
  3 22  1  0  0  0  0
  4  5  1  0  0  0  0
  4  6  1  0  0  0  0
  4  7  1  0  0  0  0
  4 10  1  0  0  0  0
  5  8  1  0  0  0  0
  5  9  1  0  0  0  0
  5 23  1  0  0  0  0
  6 24  1  0  0  0  0
  6 25  1  0  0  0  0
  7 26  1  0  0  0  0
  7 27  1  0  0  0  0
  8 28  1  0  0  0  0
  8 29  1  0  0  0  0
  9 11  1  0  0  0  0
  9 14  1  0  0  0  0
  9 16  1  0  0  0  0
 10 13  1  0  0  0  0
 10 30  1  0  0  0  0
 10 31  1  0  0  0  0
 11 13  1  0  0  0  0
 11 15  1  0  0  0  0
 11 32  1  0  0  0  0
 12 33  1  0  0  0  0
 12 34  1  0  0  0  0
 12 35  1  0  0  0  0
 13 36  1  0  0  0  0
 13 37  1  0  0  0  0
 14 17  1  0  0  0  0
 14 38  1  0  0  0  0
 14 39  1  0  0  0  0
 15 18  1  0  0  0  0
 15 19  1  0  0  0  0
 15 20  1  0  0  0  0
 16 40  1  0  0  0  0
 16 41  1  0  0  0  0
 16 42  1  0  0  0  0
 17 18  1  0  0  0  0
 17 43  1  0  0  0  0
 17 44  1  0  0  0  0
 18 45  1  0  0  0  0
 18 46  1  0  0  0  0
 19 47  1  0  0  0  0
 19 48  1  0  0  0  0
 19 49  1  0  0  0  0
 20 50  1  0  0  0  0
 20 51  1  0  0  0  0
 20 52  1  0  0  0  0
M  END
> <PUBCHEM_COMPOUND_CID>
521405
> <PUBCHEM_COMPOUND_CANONICALIZED>
1
> <PUBCHEM_CACTVS_COMPLEXITY>
476
> <PUBCHEM_CACTVS_HBOND_ACCEPTOR>
0
> <PUBCHEM_CACTVS_HBOND_DONOR>
0
> <PUBCHEM_CACTVS_ROTATABLE_BOND>
0
> <PUBCHEM_CACTVS_SUBSKEYS>
AAADcfB4AAAAAAAAAAAAAAAAGAAAAYAAAAAwYMGAAAAAAADAAAAAGAAAAAAADwCAAAACAAAAAAAAAAAAAAAAAAAAAAAAAAAAAAAAAAIAAAAAAAAAAAAAAAEAgMAPgAAAAAAAAACAAAQAACAAAQAACAAAAA==
> <PUBCHEM_IUPAC_OPENEYE_NAME>
5,5,9,13-tetramethylpentacyclo[11.2.1.01,10.04,9.012,14]hexadecane
> <PUBCHEM_IUPAC_CAS_NAME>
5,5,9,13-tetramethylpentacyclo[11.2.1.01,10.04,9.012,14]hexadecane
> <PUBCHEM_IUPAC_NAME_MARKUP>
5,5,9,13-tetramethylpentacyclo[11.2.1.0<SUP>1,10</SUP>.0<SUP>4,9</SUP>.0<SUP>12,14</SUP>]hexadecane
> <PUBCHEM_IUPAC_NAME>
5,5,9,13-tetramethylpentacyclo[11.2.1.01,10.04,9.012,14]hexadecane
> <PUBCHEM_IUPAC_SYSTEMATIC_NAME>
5,5,9,13-tetramethylpentacyclo[11.2.1.01,10.04,9.012,14]hexadecane
> <PUBCHEM_IUPAC_TRADITIONAL_NAME>
5,5,9,13-tetramethylpentacyclo[11.2.1.01,10.04,9.012,14]hexadecane
> <PUBCHEM_IUPAC_INCHI>
InChI=1S/C20H32/c1-17(2)7-5-8-18(3)15(17)6-9-20-11-14-13(10-16(18)20)19(14,4)12-20/h13-16H,5-12H2,1-4H3
> <PUBCHEM_IUPAC_INCHIKEY>
JTJZAWZRQPNBLR-UHFFFAOYSA-N
> <PUBCHEM_XLOGP3_AA>
7.1
> <PUBCHEM_EXACT_MASS>
272.250401021
> <PUBCHEM_MOLECULAR_FORMULA>
C20H32
> <PUBCHEM_MOLECULAR_WEIGHT>
272.5
> <PUBCHEM_OPENEYE_CAN_SMILES>
CC1(CCCC2(C1CCC34C2CC5C(C3)C5(C4)C)C)C
> <PUBCHEM_OPENEYE_ISO_SMILES>
CC1(CCCC2(C1CCC34C2CC5C(C3)C5(C4)C)C)C
> <PUBCHEM_CACTVS_TPSA>
0
> <PUBCHEM_MONOISOTOPIC_WEIGHT>
272.250401021
> <PUBCHEM_TOTAL_CHARGE>
0
> <PUBCHEM_HEAVY_ATOM_COUNT>
20
> <PUBCHEM_ATOM_DEF_STEREO_COUNT>
0
> <PUBCHEM_ATOM_UDEF_STEREO_COUNT>
7
> <PUBCHEM_BOND_DEF_STEREO_COUNT>
0
> <PUBCHEM_BOND_UDEF_STEREO_COUNT>
0
> <PUBCHEM_ISOTOPIC_ATOM_COUNT>
0
> <PUBCHEM_COMPONENT_COUNT>
1
> <PUBCHEM_CACTVS_TAUTO_COUNT>
-1
> <PUBCHEM_COORDINATE_TYPE>
1
5
255
> <PUBCHEM_BONDANNOTATIONS>
1  12  3
11  13  3
2  7  3
3  8  3
4  10  3
5  8  3
9  16  3
$$$$
