521517
  -OEChem-10302200292D
 32 31  0     1  0  0  0  0  0999 V2000
    5.4641   -0.0600    0.0000 N   0  0  0  0  0  0  0  0  0  0  0  0
    3.7320   -0.0600    0.0000 C   0  0  3  0  0  0  0  0  0  0  0  0
    2.8660    0.4400    0.0000 C   0  0  0  0  0  0  0  0  0  0  0  0
    4.5981    0.4400    0.0000 C   0  0  0  0  0  0  0  0  0  0  0  0
    7.1962   -0.0600    0.0000 C   0  0  3  0  0  0  0  0  0  0  0  0
    3.7320   -1.0600    0.0000 C   0  0  0  0  0  0  0  0  0  0  0  0
    8.0622    0.4400    0.0000 C   0  0  0  0  0  0  0  0  0  0  0  0
    6.3301    0.4400    0.0000 C   0  0  0  0  0  0  0  0  0  0  0  0
    2.0000   -0.0600    0.0000 C   0  0  0  0  0  0  0  0  0  0  0  0
    7.1962   -1.0600    0.0000 C   0  0  0  0  0  0  0  0  0  0  0  0
    8.9282   -0.0600    0.0000 C   0  0  0  0  0  0  0  0  0  0  0  0
    4.4682   -0.4850    0.0000 H   0  0  0  0  0  0  0  0  0  0  0  0
    3.2646    0.9149    0.0000 H   0  0  0  0  0  0  0  0  0  0  0  0
    2.4675    0.9149    0.0000 H   0  0  0  0  0  0  0  0  0  0  0  0
    4.9966    0.9149    0.0000 H   0  0  0  0  0  0  0  0  0  0  0  0
    4.1996    0.9149    0.0000 H   0  0  0  0  0  0  0  0  0  0  0  0
    6.4600   -0.4850    0.0000 H   0  0  0  0  0  0  0  0  0  0  0  0
    3.1120   -1.0600    0.0000 H   0  0  0  0  0  0  0  0  0  0  0  0
    3.7320   -1.6800    0.0000 H   0  0  0  0  0  0  0  0  0  0  0  0
    4.3520   -1.0600    0.0000 H   0  0  0  0  0  0  0  0  0  0  0  0
    8.4607    0.9149    0.0000 H   0  0  0  0  0  0  0  0  0  0  0  0
    7.6636    0.9149    0.0000 H   0  0  0  0  0  0  0  0  0  0  0  0
    6.3301    1.0600    0.0000 H   0  0  0  0  0  0  0  0  0  0  0  0
    1.6900    0.4769    0.0000 H   0  0  0  0  0  0  0  0  0  0  0  0
    1.4631   -0.3700    0.0000 H   0  0  0  0  0  0  0  0  0  0  0  0
    2.3100   -0.5969    0.0000 H   0  0  0  0  0  0  0  0  0  0  0  0
    6.5762   -1.0600    0.0000 H   0  0  0  0  0  0  0  0  0  0  0  0
    7.1962   -1.6800    0.0000 H   0  0  0  0  0  0  0  0  0  0  0  0
    7.8162   -1.0600    0.0000 H   0  0  0  0  0  0  0  0  0  0  0  0
    8.6182   -0.5969    0.0000 H   0  0  0  0  0  0  0  0  0  0  0  0
    9.4651   -0.3700    0.0000 H   0  0  0  0  0  0  0  0  0  0  0  0
    9.2382    0.4769    0.0000 H   0  0  0  0  0  0  0  0  0  0  0  0
  1  4  1  0  0  0  0
  1  8  2  0  0  0  0
  2  3  1  0  0  0  0
  2  4  1  0  0  0  0
  2  6  1  0  0  0  0
  2 12  1  0  0  0  0
  3  9  1  0  0  0  0
  3 13  1  0  0  0  0
  3 14  1  0  0  0  0
  4 15  1  0  0  0  0
  4 16  1  0  0  0  0
  5  7  1  0  0  0  0
  5  8  1  0  0  0  0
  5 10  1  0  0  0  0
  5 17  1  0  0  0  0
  6 18  1  0  0  0  0
  6 19  1  0  0  0  0
  6 20  1  0  0  0  0
  7 11  1  0  0  0  0
  7 21  1  0  0  0  0
  7 22  1  0  0  0  0
  8 23  1  0  0  0  0
  9 24  1  0  0  0  0
  9 25  1  0  0  0  0
  9 26  1  0  0  0  0
 10 27  1  0  0  0  0
 10 28  1  0  0  0  0
 10 29  1  0  0  0  0
 11 30  1  0  0  0  0
 11 31  1  0  0  0  0
 11 32  1  0  0  0  0
M  END
> <PUBCHEM_COMPOUND_CID>
521517
> <PUBCHEM_COMPOUND_CANONICALIZED>
1
> <PUBCHEM_CACTVS_COMPLEXITY>
107
> <PUBCHEM_CACTVS_HBOND_ACCEPTOR>
1
> <PUBCHEM_CACTVS_HBOND_DONOR>
0
> <PUBCHEM_CACTVS_ROTATABLE_BOND>
5
> <PUBCHEM_CACTVS_SUBSKEYS>
AAADceByAAAAAAAAAAAAAAAAAAAAAAAAAAAAAAAAAAAAAAAAAAAAHAAAAAAADQDBAAQCAAIAAAAgABAhBAAAAAAAAAAAAAAwAAAAAAAAgAAAAAAAAAAAAAAAAAAIAAAAAAAAAAAAAAAAAAAAAAAAAAAAAA==
> <PUBCHEM_IUPAC_OPENEYE_NAME>
2-methyl-N-(2-methylbutyl)butan-1-imine
> <PUBCHEM_IUPAC_CAS_NAME>
2-methyl-N-(2-methylbutyl)-1-butanimine
> <PUBCHEM_IUPAC_NAME_MARKUP>
2-methyl-<I>N</I>-(2-methylbutyl)butan-1-imine
> <PUBCHEM_IUPAC_NAME>
2-methyl-N-(2-methylbutyl)butan-1-imine
> <PUBCHEM_IUPAC_SYSTEMATIC_NAME>
2-methyl-N-(2-methylbutyl)butan-1-imine
> <PUBCHEM_IUPAC_TRADITIONAL_NAME>
2-methylbutyl(2-methylbutylidene)amine
> <PUBCHEM_IUPAC_INCHI>
InChI=1S/C10H21N/c1-5-9(3)7-11-8-10(4)6-2/h7,9-10H,5-6,8H2,1-4H3
> <PUBCHEM_IUPAC_INCHIKEY>
XHGDBHQTAMAGRU-UHFFFAOYSA-N
> <PUBCHEM_XLOGP3_AA>
2.9
> <PUBCHEM_EXACT_MASS>
155.167399674
> <PUBCHEM_MOLECULAR_FORMULA>
C10H21N
> <PUBCHEM_MOLECULAR_WEIGHT>
155.28
> <PUBCHEM_OPENEYE_CAN_SMILES>
CCC(C)CN=CC(C)CC
> <PUBCHEM_OPENEYE_ISO_SMILES>
CCC(C)CN=CC(C)CC
> <PUBCHEM_CACTVS_TPSA>
12.4
> <PUBCHEM_MONOISOTOPIC_WEIGHT>
155.167399674
> <PUBCHEM_TOTAL_CHARGE>
0
> <PUBCHEM_HEAVY_ATOM_COUNT>
11
> <PUBCHEM_ATOM_DEF_STEREO_COUNT>
0
> <PUBCHEM_ATOM_UDEF_STEREO_COUNT>
2
> <PUBCHEM_BOND_DEF_STEREO_COUNT>
0
> <PUBCHEM_BOND_UDEF_STEREO_COUNT>
0
> <PUBCHEM_ISOTOPIC_ATOM_COUNT>
0
> <PUBCHEM_COMPONENT_COUNT>
1
> <PUBCHEM_CACTVS_TAUTO_COUNT>
1
> <PUBCHEM_COORDINATE_TYPE>
1
5
255
> <PUBCHEM_BONDANNOTATIONS>
2  12  3
5  17  3
$$$$
