521526
  -OEChem-10302200292D
 30 32  0     1  0  0  0  0  0999 V2000
    2.8660   -2.8282    0.0000 Cl  0  0  0  0  0  0  0  0  0  0  0  0
    6.6353    0.3890    0.0000 O   0  0  0  0  0  0  0  0  0  0  0  0
    4.6783   -0.0234    0.0000 N   0  0  0  0  0  0  0  0  0  0  0  0
    4.6783   -1.6329    0.0000 N   0  0  0  0  0  0  0  0  0  0  0  0
    2.8660    0.1719    0.0000 N   0  0  0  0  0  0  0  0  0  0  0  0
    2.0000   -1.3282    0.0000 N   0  0  0  0  0  0  0  0  0  0  0  0
    4.9889    0.9271    0.0000 C   0  0  3  0  0  0  0  0  0  0  0  0
    5.9674    1.1333    0.0000 C   0  0  3  0  0  0  0  0  0  0  0  0
    4.3211    1.6714    0.0000 C   0  0  0  0  0  0  0  0  0  0  0  0
    6.2781    2.0838    0.0000 C   0  0  0  0  0  0  0  0  0  0  0  0
    4.6318    2.6219    0.0000 C   0  0  0  0  0  0  0  0  0  0  0  0
    5.6103    2.8282    0.0000 C   0  0  0  0  0  0  0  0  0  0  0  0
    3.7320   -0.3281    0.0000 C   0  0  0  0  0  0  0  0  0  0  0  0
    5.2619   -0.8281    0.0000 C   0  0  0  0  0  0  0  0  0  0  0  0
    3.7320   -1.3282    0.0000 C   0  0  0  0  0  0  0  0  0  0  0  0
    2.8660   -1.8282    0.0000 C   0  0  0  0  0  0  0  0  0  0  0  0
    2.0000   -0.3281    0.0000 C   0  0  0  0  0  0  0  0  0  0  0  0
    4.3823    0.7992    0.0000 H   0  0  0  0  0  0  0  0  0  0  0  0
    5.7748    0.5440    0.0000 H   0  0  0  0  0  0  0  0  0  0  0  0
    3.7742    1.9634    0.0000 H   0  0  0  0  0  0  0  0  0  0  0  0
    3.9385    1.1835    0.0000 H   0  0  0  0  0  0  0  0  0  0  0  0
    6.8250    1.7918    0.0000 H   0  0  0  0  0  0  0  0  0  0  0  0
    6.6607    2.5718    0.0000 H   0  0  0  0  0  0  0  0  0  0  0  0
    4.6112    3.2416    0.0000 H   0  0  0  0  0  0  0  0  0  0  0  0
    4.0179    2.7093    0.0000 H   0  0  0  0  0  0  0  0  0  0  0  0
    6.1366    3.1558    0.0000 H   0  0  0  0  0  0  0  0  0  0  0  0
    5.3790    3.4034    0.0000 H   0  0  0  0  0  0  0  0  0  0  0  0
    5.8819   -0.8281    0.0000 H   0  0  0  0  0  0  0  0  0  0  0  0
    7.2420    0.5169    0.0000 H   0  0  0  0  0  0  0  0  0  0  0  0
    1.4631   -0.0181    0.0000 H   0  0  0  0  0  0  0  0  0  0  0  0
  1 16  1  0  0  0  0
  2  8  1  0  0  0  0
  2 29  1  0  0  0  0
  3  7  1  0  0  0  0
  3 13  1  0  0  0  0
  3 14  1  0  0  0  0
  4 14  2  0  0  0  0
  4 15  1  0  0  0  0
  5 13  1  0  0  0  0
  5 17  2  0  0  0  0
  6 16  2  0  0  0  0
  6 17  1  0  0  0  0
  7  8  1  0  0  0  0
  7  9  1  0  0  0  0
  7 18  1  0  0  0  0
  8 10  1  0  0  0  0
  8 19  1  0  0  0  0
  9 11  1  0  0  0  0
  9 20  1  0  0  0  0
  9 21  1  0  0  0  0
 10 12  1  0  0  0  0
 10 22  1  0  0  0  0
 10 23  1  0  0  0  0
 11 12  1  0  0  0  0
 11 24  1  0  0  0  0
 11 25  1  0  0  0  0
 12 26  1  0  0  0  0
 12 27  1  0  0  0  0
 13 15  2  0  0  0  0
 14 28  1  0  0  0  0
 15 16  1  0  0  0  0
 17 30  1  0  0  0  0
M  END
> <PUBCHEM_COMPOUND_CID>
521526
> <PUBCHEM_COMPOUND_CANONICALIZED>
1
> <PUBCHEM_CACTVS_COMPLEXITY>
280
> <PUBCHEM_CACTVS_HBOND_ACCEPTOR>
4
> <PUBCHEM_CACTVS_HBOND_DONOR>
1
> <PUBCHEM_CACTVS_ROTATABLE_BOND>
1
> <PUBCHEM_CACTVS_SUBSKEYS>
AAADccBzoAAEAAAAAAAAAAAAAAAAAWAAAAA8QAAAAAAAAFgB+AAAHgIACAAACD7hlyYF8L8MEgCgAQZhZACAgC0RFKABUCAoVhCCWAJAyEBURAgMAALQACGQQAAAAAAAAAAAAAAAAAAAAAAgAAAAAAAAAA==
> <PUBCHEM_IUPAC_OPENEYE_NAME>
2-(6-chloropurin-9-yl)cyclohexanol
> <PUBCHEM_IUPAC_CAS_NAME>
2-(6-chloro-9-purinyl)-1-cyclohexanol
> <PUBCHEM_IUPAC_NAME_MARKUP>
2-(6-chloropurin-9-yl)cyclohexan-1-ol
> <PUBCHEM_IUPAC_NAME>
2-(6-chloropurin-9-yl)cyclohexan-1-ol
> <PUBCHEM_IUPAC_SYSTEMATIC_NAME>
2-(6-chloranylpurin-9-yl)cyclohexan-1-ol
> <PUBCHEM_IUPAC_TRADITIONAL_NAME>
2-(6-chloropurin-9-yl)cyclohexanol
> <PUBCHEM_IUPAC_INCHI>
InChI=1S/C11H13ClN4O/c12-10-9-11(14-5-13-10)16(6-15-9)7-3-1-2-4-8(7)17/h5-8,17H,1-4H2
> <PUBCHEM_IUPAC_INCHIKEY>
CKTCXOLCNXSTKZ-UHFFFAOYSA-N
> <PUBCHEM_XLOGP3_AA>
1.6
> <PUBCHEM_EXACT_MASS>
252.0777887
> <PUBCHEM_MOLECULAR_FORMULA>
C11H13ClN4O
> <PUBCHEM_MOLECULAR_WEIGHT>
252.70
> <PUBCHEM_OPENEYE_CAN_SMILES>
C1CCC(C(C1)N2C=NC3=C2N=CN=C3Cl)O
> <PUBCHEM_OPENEYE_ISO_SMILES>
C1CCC(C(C1)N2C=NC3=C2N=CN=C3Cl)O
> <PUBCHEM_CACTVS_TPSA>
63.8
> <PUBCHEM_MONOISOTOPIC_WEIGHT>
252.0777887
> <PUBCHEM_TOTAL_CHARGE>
0
> <PUBCHEM_HEAVY_ATOM_COUNT>
17
> <PUBCHEM_ATOM_DEF_STEREO_COUNT>
0
> <PUBCHEM_ATOM_UDEF_STEREO_COUNT>
2
> <PUBCHEM_BOND_DEF_STEREO_COUNT>
0
> <PUBCHEM_BOND_UDEF_STEREO_COUNT>
0
> <PUBCHEM_ISOTOPIC_ATOM_COUNT>
0
> <PUBCHEM_COMPONENT_COUNT>
1
> <PUBCHEM_CACTVS_TAUTO_COUNT>
-1
> <PUBCHEM_COORDINATE_TYPE>
1
5
255
> <PUBCHEM_BONDANNOTATIONS>
13  15  8
15  16  8
8  2  3
3  13  8
3  14  8
7  3  3
4  14  8
4  15  8
5  13  8
5  17  8
6  16  8
6  17  8
$$$$
