521539
  -OEChem-10302200292D
 21 21  0     1  0  0  0  0  0999 V2000
    3.7320    2.5000    0.0000 Cl  0  0  0  0  0  0  0  0  0  0  0  0
    2.0000   -2.5000    0.0000 Cl  0  0  0  0  0  0  0  0  0  0  0  0
    2.8660    1.0000    0.0000 C   0  0  0  0  0  0  0  0  0  0  0  0
    2.8660    2.0000    0.0000 C   0  0  3  0  0  0  0  0  0  0  0  0
    2.8660   -1.0000    0.0000 C   0  0  0  0  0  0  0  0  0  0  0  0
    2.0000    0.5000    0.0000 C   0  0  0  0  0  0  0  0  0  0  0  0
    3.7320    0.5000    0.0000 C   0  0  0  0  0  0  0  0  0  0  0  0
    2.0000   -0.5000    0.0000 C   0  0  0  0  0  0  0  0  0  0  0  0
    3.7320   -0.5000    0.0000 C   0  0  0  0  0  0  0  0  0  0  0  0
    2.0000    2.5000    0.0000 C   0  0  0  0  0  0  0  0  0  0  0  0
    2.8660   -2.0000    0.0000 C   0  0  0  0  0  0  0  0  0  0  0  0
    2.8660    2.8500    0.0000 H   0  0  0  0  0  0  0  0  0  0  0  0
    1.4631    0.8100    0.0000 H   0  0  0  0  0  0  0  0  0  0  0  0
    4.2690    0.8100    0.0000 H   0  0  0  0  0  0  0  0  0  0  0  0
    1.4631   -0.8100    0.0000 H   0  0  0  0  0  0  0  0  0  0  0  0
    4.2690   -0.8100    0.0000 H   0  0  0  0  0  0  0  0  0  0  0  0
    2.3100    3.0369    0.0000 H   0  0  0  0  0  0  0  0  0  0  0  0
    1.4631    2.8100    0.0000 H   0  0  0  0  0  0  0  0  0  0  0  0
    1.6900    1.9631    0.0000 H   0  0  0  0  0  0  0  0  0  0  0  0
    3.0781   -2.5826    0.0000 H   0  0  0  0  0  0  0  0  0  0  0  0
    3.4766   -1.8923    0.0000 H   0  0  0  0  0  0  0  0  0  0  0  0
  1  4  1  0  0  0  0
  2 11  1  0  0  0  0
  3  4  1  0  0  0  0
  3  6  2  0  0  0  0
  3  7  1  0  0  0  0
  4 10  1  0  0  0  0
  4 12  1  0  0  0  0
  5  8  2  0  0  0  0
  5  9  1  0  0  0  0
  5 11  1  0  0  0  0
  6  8  1  0  0  0  0
  6 13  1  0  0  0  0
  7  9  2  0  0  0  0
  7 14  1  0  0  0  0
  8 15  1  0  0  0  0
  9 16  1  0  0  0  0
 10 17  1  0  0  0  0
 10 18  1  0  0  0  0
 10 19  1  0  0  0  0
 11 20  1  0  0  0  0
 11 21  1  0  0  0  0
M  END
> <PUBCHEM_COMPOUND_CID>
521539
> <PUBCHEM_COMPOUND_CANONICALIZED>
1
> <PUBCHEM_CACTVS_COMPLEXITY>
106
> <PUBCHEM_CACTVS_HBOND_ACCEPTOR>
0
> <PUBCHEM_CACTVS_HBOND_DONOR>
0
> <PUBCHEM_CACTVS_ROTATABLE_BOND>
2
> <PUBCHEM_CACTVS_SUBSKEYS>
AAADccBwAAAGAAAAAAAAAAAAAAAAAAAAAAAwAAAAAAAAAAABAAAAGAIAAAAADAOAGEAyAIAAAACAAiBCAAACAAAgAAAIiAAAAogIICKBERCAIAAggAAIiAcAgMAOQAAAAAAAAACAAAAAAAAAAAAAAAAAAA==
> <PUBCHEM_IUPAC_OPENEYE_NAME>
1-(1-chloroethyl)-4-(chloromethyl)benzene
> <PUBCHEM_IUPAC_CAS_NAME>
1-(1-chloroethyl)-4-(chloromethyl)benzene
> <PUBCHEM_IUPAC_NAME_MARKUP>
1-(1-chloroethyl)-4-(chloromethyl)benzene
> <PUBCHEM_IUPAC_NAME>
1-(1-chloroethyl)-4-(chloromethyl)benzene
> <PUBCHEM_IUPAC_SYSTEMATIC_NAME>
1-(1-chloroethyl)-4-(chloromethyl)benzene
> <PUBCHEM_IUPAC_TRADITIONAL_NAME>
1-(1-chloroethyl)-4-(chloromethyl)benzene
> <PUBCHEM_IUPAC_INCHI>
InChI=1S/C9H10Cl2/c1-7(11)9-4-2-8(6-10)3-5-9/h2-5,7H,6H2,1H3
> <PUBCHEM_IUPAC_INCHIKEY>
OPVAKHQEJWPSQB-UHFFFAOYSA-N
> <PUBCHEM_XLOGP3_AA>
3.1
> <PUBCHEM_EXACT_MASS>
188.0159557
> <PUBCHEM_MOLECULAR_FORMULA>
C9H10Cl2
> <PUBCHEM_MOLECULAR_WEIGHT>
189.08
> <PUBCHEM_OPENEYE_CAN_SMILES>
CC(C1=CC=C(C=C1)CCl)Cl
> <PUBCHEM_OPENEYE_ISO_SMILES>
CC(C1=CC=C(C=C1)CCl)Cl
> <PUBCHEM_CACTVS_TPSA>
0
> <PUBCHEM_MONOISOTOPIC_WEIGHT>
188.0159557
> <PUBCHEM_TOTAL_CHARGE>
0
> <PUBCHEM_HEAVY_ATOM_COUNT>
11
> <PUBCHEM_ATOM_DEF_STEREO_COUNT>
0
> <PUBCHEM_ATOM_UDEF_STEREO_COUNT>
1
> <PUBCHEM_BOND_DEF_STEREO_COUNT>
0
> <PUBCHEM_BOND_UDEF_STEREO_COUNT>
0
> <PUBCHEM_ISOTOPIC_ATOM_COUNT>
0
> <PUBCHEM_COMPONENT_COUNT>
1
> <PUBCHEM_CACTVS_TAUTO_COUNT>
1
> <PUBCHEM_COORDINATE_TYPE>
1
5
255
> <PUBCHEM_BONDANNOTATIONS>
3  6  8
3  7  8
4  12  3
5  8  8
5  9  8
6  8  8
7  9  8
$$$$
