521582
  -OEChem-10302200292D
 24 24  0     1  0  0  0  0  0999 V2000
    2.0000   -0.5600    0.0000 Cl  0  0  0  0  0  0  0  0  0  0  0  0
    4.5981   -0.0600    0.0000 O   0  0  0  0  0  0  0  0  0  0  0  0
    3.7320   -1.5600    0.0000 O   0  0  0  0  0  0  0  0  0  0  0  0
    7.1962    1.4400    0.0000 O   0  0  0  0  0  0  0  0  0  0  0  0
    5.4641    1.4400    0.0000 O   0  0  0  0  0  0  0  0  0  0  0  0
    5.4641   -0.5600    0.0000 C   0  0  0  0  0  0  0  0  0  0  0  0
    6.3301   -0.0600    0.0000 C   0  0  0  0  0  0  0  0  0  0  0  0
    2.8660   -0.0600    0.0000 C   0  0  3  0  0  0  0  0  0  0  0  0
    5.4641   -1.5600    0.0000 C   0  0  0  0  0  0  0  0  0  0  0  0
    7.1962   -0.5600    0.0000 C   0  0  0  0  0  0  0  0  0  0  0  0
    3.7320   -0.5600    0.0000 C   0  0  0  0  0  0  0  0  0  0  0  0
    6.3301   -2.0600    0.0000 C   0  0  0  0  0  0  0  0  0  0  0  0
    7.1962   -1.5600    0.0000 C   0  0  0  0  0  0  0  0  0  0  0  0
    2.8660    0.9400    0.0000 C   0  0  0  0  0  0  0  0  0  0  0  0
    6.3301    0.9400    0.0000 C   0  0  0  0  0  0  0  0  0  0  0  0
    2.8660   -0.6800    0.0000 H   0  0  0  0  0  0  0  0  0  0  0  0
    4.9272   -1.8700    0.0000 H   0  0  0  0  0  0  0  0  0  0  0  0
    7.7331   -0.2500    0.0000 H   0  0  0  0  0  0  0  0  0  0  0  0
    3.4860    0.9400    0.0000 H   0  0  0  0  0  0  0  0  0  0  0  0
    2.8660    1.5600    0.0000 H   0  0  0  0  0  0  0  0  0  0  0  0
    2.2460    0.9400    0.0000 H   0  0  0  0  0  0  0  0  0  0  0  0
    6.3301   -2.6800    0.0000 H   0  0  0  0  0  0  0  0  0  0  0  0
    7.7331   -1.8700    0.0000 H   0  0  0  0  0  0  0  0  0  0  0  0
    7.1962    2.0600    0.0000 H   0  0  0  0  0  0  0  0  0  0  0  0
  1  8  1  0  0  0  0
  2  6  1  0  0  0  0
  2 11  1  0  0  0  0
  3 11  2  0  0  0  0
  4 15  1  0  0  0  0
  4 24  1  0  0  0  0
  5 15  2  0  0  0  0
  6  7  1  0  0  0  0
  6  9  2  0  0  0  0
  7 10  2  0  0  0  0
  7 15  1  0  0  0  0
  8 11  1  0  0  0  0
  8 14  1  0  0  0  0
  8 16  1  0  0  0  0
  9 12  1  0  0  0  0
  9 17  1  0  0  0  0
 10 13  1  0  0  0  0
 10 18  1  0  0  0  0
 12 13  2  0  0  0  0
 12 22  1  0  0  0  0
 13 23  1  0  0  0  0
 14 19  1  0  0  0  0
 14 20  1  0  0  0  0
 14 21  1  0  0  0  0
M  END
> <PUBCHEM_COMPOUND_CID>
521582
> <PUBCHEM_COMPOUND_CANONICALIZED>
1
> <PUBCHEM_CACTVS_COMPLEXITY>
254
> <PUBCHEM_CACTVS_HBOND_ACCEPTOR>
4
> <PUBCHEM_CACTVS_HBOND_DONOR>
1
> <PUBCHEM_CACTVS_ROTATABLE_BOND>
4
> <PUBCHEM_CACTVS_SUBSKEYS>
AAADccBwOAAEAAAAAAAAAAAAAAAAAAAAAAAwAAAAAAAAAAABAAAAGgIACAAADAeAmEAyDoAABgCIAiDSCAACCAAkIAAIiAEGCchMJzaENRqCe2Cl4BEIuYeIyCCOAAAAAAAIAAAAAAAAABAAAAAAAAAAAA==
> <PUBCHEM_IUPAC_OPENEYE_NAME>
2-(2-chloropropanoyloxy)benzoic acid
> <PUBCHEM_IUPAC_CAS_NAME>
2-(2-chloro-1-oxopropoxy)benzoic acid
> <PUBCHEM_IUPAC_NAME_MARKUP>
2-(2-chloropropanoyloxy)benzoic acid
> <PUBCHEM_IUPAC_NAME>
2-(2-chloropropanoyloxy)benzoic acid
> <PUBCHEM_IUPAC_SYSTEMATIC_NAME>
2-(2-chloranylpropanoyloxy)benzoic acid
> <PUBCHEM_IUPAC_TRADITIONAL_NAME>
2-(2-chloropropanoyloxy)benzoic acid
> <PUBCHEM_IUPAC_INCHI>
InChI=1S/C10H9ClO4/c1-6(11)10(14)15-8-5-3-2-4-7(8)9(12)13/h2-6H,1H3,(H,12,13)
> <PUBCHEM_IUPAC_INCHIKEY>
RPYJPJMBMJMCRR-UHFFFAOYSA-N
> <PUBCHEM_XLOGP3>
2.2
> <PUBCHEM_EXACT_MASS>
228.0189365
> <PUBCHEM_MOLECULAR_FORMULA>
C10H9ClO4
> <PUBCHEM_MOLECULAR_WEIGHT>
228.63
> <PUBCHEM_OPENEYE_CAN_SMILES>
CC(C(=O)OC1=CC=CC=C1C(=O)O)Cl
> <PUBCHEM_OPENEYE_ISO_SMILES>
CC(C(=O)OC1=CC=CC=C1C(=O)O)Cl
> <PUBCHEM_CACTVS_TPSA>
63.6
> <PUBCHEM_MONOISOTOPIC_WEIGHT>
228.0189365
> <PUBCHEM_TOTAL_CHARGE>
0
> <PUBCHEM_HEAVY_ATOM_COUNT>
15
> <PUBCHEM_ATOM_DEF_STEREO_COUNT>
0
> <PUBCHEM_ATOM_UDEF_STEREO_COUNT>
1
> <PUBCHEM_BOND_DEF_STEREO_COUNT>
0
> <PUBCHEM_BOND_UDEF_STEREO_COUNT>
0
> <PUBCHEM_ISOTOPIC_ATOM_COUNT>
0
> <PUBCHEM_COMPONENT_COUNT>
1
> <PUBCHEM_CACTVS_TAUTO_COUNT>
-1
> <PUBCHEM_COORDINATE_TYPE>
1
5
255
> <PUBCHEM_BONDANNOTATIONS>
8  1  3
10  13  8
12  13  8
6  7  8
6  9  8
7  10  8
9  12  8
$$$$
