521515
  -OEChem-10302200292D
 38 38  0     1  0  0  0  0  0999 V2000
    4.5981   -2.5000    0.0000 O   0  0  0  0  0  0  0  0  0  0  0  0
    4.5981    0.5000    0.0000 C   0  0  3  0  0  0  0  0  0  0  0  0
    4.5981    1.5000    0.0000 C   0  0  0  0  0  0  0  0  0  0  0  0
    3.7320    0.0000    0.0000 C   0  0  0  0  0  0  0  0  0  0  0  0
    3.7320   -1.0000    0.0000 C   0  0  3  0  0  0  0  0  0  0  0  0
    5.4641   -0.0000    0.0000 C   0  0  0  0  0  0  0  0  0  0  0  0
    5.4641   -1.0000    0.0000 C   0  0  0  0  0  0  0  0  0  0  0  0
    2.8660   -1.5000    0.0000 C   0  0  0  0  0  0  0  0  0  0  0  0
    4.5981   -1.5000    0.0000 C   0  0  0  0  0  0  0  0  0  0  0  0
    4.5981    2.5000    0.0000 C   0  0  0  0  0  0  0  0  0  0  0  0
    5.5981    1.5000    0.0000 C   0  0  0  0  0  0  0  0  0  0  0  0
    3.5981    1.5000    0.0000 C   0  0  0  0  0  0  0  0  0  0  0  0
    2.0000   -1.0000    0.0000 C   0  0  0  0  0  0  0  0  0  0  0  0
    2.8660   -2.5000    0.0000 C   0  0  0  0  0  0  0  0  0  0  0  0
    5.1350    0.8100    0.0000 H   0  0  0  0  0  0  0  0  0  0  0  0
    3.5200    0.5826    0.0000 H   0  0  0  0  0  0  0  0  0  0  0  0
    3.1215   -0.1077    0.0000 H   0  0  0  0  0  0  0  0  0  0  0  0
    3.7320   -1.6200    0.0000 H   0  0  0  0  0  0  0  0  0  0  0  0
    6.0747   -0.1077    0.0000 H   0  0  0  0  0  0  0  0  0  0  0  0
    5.6762    0.5826    0.0000 H   0  0  0  0  0  0  0  0  0  0  0  0
    5.6762   -1.5826    0.0000 H   0  0  0  0  0  0  0  0  0  0  0  0
    6.0747   -0.8923    0.0000 H   0  0  0  0  0  0  0  0  0  0  0  0
    2.8660   -0.8800    0.0000 H   0  0  0  0  0  0  0  0  0  0  0  0
    5.2181    2.5000    0.0000 H   0  0  0  0  0  0  0  0  0  0  0  0
    4.5981    3.1200    0.0000 H   0  0  0  0  0  0  0  0  0  0  0  0
    3.9781    2.5000    0.0000 H   0  0  0  0  0  0  0  0  0  0  0  0
    5.5981    0.8800    0.0000 H   0  0  0  0  0  0  0  0  0  0  0  0
    6.2181    1.5000    0.0000 H   0  0  0  0  0  0  0  0  0  0  0  0
    5.5981    2.1200    0.0000 H   0  0  0  0  0  0  0  0  0  0  0  0
    3.5981    2.1200    0.0000 H   0  0  0  0  0  0  0  0  0  0  0  0
    2.9781    1.5000    0.0000 H   0  0  0  0  0  0  0  0  0  0  0  0
    3.5981    0.8800    0.0000 H   0  0  0  0  0  0  0  0  0  0  0  0
    2.3100   -0.4631    0.0000 H   0  0  0  0  0  0  0  0  0  0  0  0
    1.4631   -0.6900    0.0000 H   0  0  0  0  0  0  0  0  0  0  0  0
    1.6900   -1.5369    0.0000 H   0  0  0  0  0  0  0  0  0  0  0  0
    2.2460   -2.5000    0.0000 H   0  0  0  0  0  0  0  0  0  0  0  0
    2.8660   -3.1200    0.0000 H   0  0  0  0  0  0  0  0  0  0  0  0
    3.4860   -2.5000    0.0000 H   0  0  0  0  0  0  0  0  0  0  0  0
  1  9  2  0  0  0  0
  2  3  1  0  0  0  0
  2  4  1  0  0  0  0
  2  6  1  0  0  0  0
  2 15  1  0  0  0  0
  3 10  1  0  0  0  0
  3 11  1  0  0  0  0
  3 12  1  0  0  0  0
  4  5  1  0  0  0  0
  4 16  1  0  0  0  0
  4 17  1  0  0  0  0
  5  8  1  0  0  0  0
  5  9  1  0  0  0  0
  5 18  1  0  0  0  0
  6  7  1  0  0  0  0
  6 19  1  0  0  0  0
  6 20  1  0  0  0  0
  7  9  1  0  0  0  0
  7 21  1  0  0  0  0
  7 22  1  0  0  0  0
  8 13  1  0  0  0  0
  8 14  1  0  0  0  0
  8 23  1  0  0  0  0
 10 24  1  0  0  0  0
 10 25  1  0  0  0  0
 10 26  1  0  0  0  0
 11 27  1  0  0  0  0
 11 28  1  0  0  0  0
 11 29  1  0  0  0  0
 12 30  1  0  0  0  0
 12 31  1  0  0  0  0
 12 32  1  0  0  0  0
 13 33  1  0  0  0  0
 13 34  1  0  0  0  0
 13 35  1  0  0  0  0
 14 36  1  0  0  0  0
 14 37  1  0  0  0  0
 14 38  1  0  0  0  0
M  END
> <PUBCHEM_COMPOUND_CID>
521515
> <PUBCHEM_COMPOUND_CANONICALIZED>
1
> <PUBCHEM_CACTVS_COMPLEXITY>
210
> <PUBCHEM_CACTVS_HBOND_ACCEPTOR>
1
> <PUBCHEM_CACTVS_HBOND_DONOR>
0
> <PUBCHEM_CACTVS_ROTATABLE_BOND>
2
> <PUBCHEM_CACTVS_SUBSKEYS>
AAADceBwIAAAAAAAAAAAAAAAAAAAAAAAAAAwAAAAAAAAAAAAAAAAGgAAAAAADwSAgAACAAAAAAAIAIAQAAAAAAAAAAAAAAEAAAAAABIAAAAAAAAAAAAAAAEIiMCPgAAAAAAAAAAAAAQAAAAAAAAAAAAAAA==
> <PUBCHEM_IUPAC_OPENEYE_NAME>
4-tert-butyl-2-isopropyl-cyclohexanone
> <PUBCHEM_IUPAC_CAS_NAME>
4-tert-butyl-2-propan-2-yl-1-cyclohexanone
> <PUBCHEM_IUPAC_NAME_MARKUP>
4-<I>tert</I>-butyl-2-propan-2-ylcyclohexan-1-one
> <PUBCHEM_IUPAC_NAME>
4-tert-butyl-2-propan-2-ylcyclohexan-1-one
> <PUBCHEM_IUPAC_SYSTEMATIC_NAME>
4-tert-butyl-2-propan-2-yl-cyclohexan-1-one
> <PUBCHEM_IUPAC_TRADITIONAL_NAME>
4-tert-butyl-2-isopropyl-cyclohexanone
> <PUBCHEM_IUPAC_INCHI>
InChI=1S/C13H24O/c1-9(2)11-8-10(13(3,4)5)6-7-12(11)14/h9-11H,6-8H2,1-5H3
> <PUBCHEM_IUPAC_INCHIKEY>
INDSELFFLOGICC-UHFFFAOYSA-N
> <PUBCHEM_XLOGP3_AA>
3.7
> <PUBCHEM_EXACT_MASS>
196.182715385
> <PUBCHEM_MOLECULAR_FORMULA>
C13H24O
> <PUBCHEM_MOLECULAR_WEIGHT>
196.33
> <PUBCHEM_OPENEYE_CAN_SMILES>
CC(C)C1CC(CCC1=O)C(C)(C)C
> <PUBCHEM_OPENEYE_ISO_SMILES>
CC(C)C1CC(CCC1=O)C(C)(C)C
> <PUBCHEM_CACTVS_TPSA>
17.1
> <PUBCHEM_MONOISOTOPIC_WEIGHT>
196.182715385
> <PUBCHEM_TOTAL_CHARGE>
0
> <PUBCHEM_HEAVY_ATOM_COUNT>
14
> <PUBCHEM_ATOM_DEF_STEREO_COUNT>
0
> <PUBCHEM_ATOM_UDEF_STEREO_COUNT>
2
> <PUBCHEM_BOND_DEF_STEREO_COUNT>
0
> <PUBCHEM_BOND_UDEF_STEREO_COUNT>
0
> <PUBCHEM_ISOTOPIC_ATOM_COUNT>
0
> <PUBCHEM_COMPONENT_COUNT>
1
> <PUBCHEM_CACTVS_TAUTO_COUNT>
-1
> <PUBCHEM_COORDINATE_TYPE>
1
5
255
> <PUBCHEM_BONDANNOTATIONS>
2  3  3
5  8  3
$$$$
