521538
  -OEChem-10302200292D
 26 26  0     1  0  0  0  0  0999 V2000
    3.7320    0.6900    0.0000 O   0  0  0  0  0  0  0  0  0  0  0  0
    4.5981   -0.8100    0.0000 O   0  0  0  0  0  0  0  0  0  0  0  0
    2.8660   -0.8100    0.0000 C   0  0  0  0  0  0  0  0  0  0  0  0
    2.8660   -1.8100    0.0000 C   0  0  0  0  0  0  0  0  0  0  0  0
    2.0000   -2.3100    0.0000 C   0  0  0  0  0  0  0  0  0  0  0  0
    3.7320   -2.3100    0.0000 C   0  0  0  0  0  0  0  0  0  0  0  0
    3.7320   -0.3100    0.0000 C   0  0  0  0  0  0  0  0  0  0  0  0
    4.5981    1.1900    0.0000 C   0  0  3  0  0  0  0  0  0  0  0  0
    2.0000   -3.3100    0.0000 C   0  0  0  0  0  0  0  0  0  0  0  0
    3.7320   -3.3100    0.0000 C   0  0  0  0  0  0  0  0  0  0  0  0
    2.8660   -3.8100    0.0000 C   0  0  0  0  0  0  0  0  0  0  0  0
    5.4641    0.6900    0.0000 C   0  0  0  0  0  0  0  0  0  0  0  0
    4.5981    2.1900    0.0000 C   0  0  0  0  0  0  0  0  0  0  0  0
    4.5981    3.1900    0.0000 C   0  0  0  0  0  0  0  0  0  0  0  0
    2.6540   -0.2274    0.0000 H   0  0  0  0  0  0  0  0  0  0  0  0
    2.2554   -0.9177    0.0000 H   0  0  0  0  0  0  0  0  0  0  0  0
    1.4631   -2.0000    0.0000 H   0  0  0  0  0  0  0  0  0  0  0  0
    4.2690   -2.0000    0.0000 H   0  0  0  0  0  0  0  0  0  0  0  0
    3.8620    1.6150    0.0000 H   0  0  0  0  0  0  0  0  0  0  0  0
    1.4631   -3.6200    0.0000 H   0  0  0  0  0  0  0  0  0  0  0  0
    4.2690   -3.6200    0.0000 H   0  0  0  0  0  0  0  0  0  0  0  0
    2.8660   -4.4300    0.0000 H   0  0  0  0  0  0  0  0  0  0  0  0
    5.1541    0.1531    0.0000 H   0  0  0  0  0  0  0  0  0  0  0  0
    6.0010    0.3800    0.0000 H   0  0  0  0  0  0  0  0  0  0  0  0
    5.7741    1.2269    0.0000 H   0  0  0  0  0  0  0  0  0  0  0  0
    4.5981    3.8100    0.0000 H   0  0  0  0  0  0  0  0  0  0  0  0
  1  7  1  0  0  0  0
  1  8  1  0  0  0  0
  2  7  2  0  0  0  0
  3  4  1  0  0  0  0
  3  7  1  0  0  0  0
  3 15  1  0  0  0  0
  3 16  1  0  0  0  0
  4  5  2  0  0  0  0
  4  6  1  0  0  0  0
  5  9  1  0  0  0  0
  5 17  1  0  0  0  0
  6 10  2  0  0  0  0
  6 18  1  0  0  0  0
  8 12  1  0  0  0  0
  8 13  1  0  0  0  0
  8 19  1  0  0  0  0
  9 11  2  0  0  0  0
  9 20  1  0  0  0  0
 10 11  1  0  0  0  0
 10 21  1  0  0  0  0
 11 22  1  0  0  0  0
 12 23  1  0  0  0  0
 12 24  1  0  0  0  0
 12 25  1  0  0  0  0
 13 14  3  0  0  0  0
 14 26  1  0  0  0  0
M  END
> <PUBCHEM_COMPOUND_CID>
521538
> <PUBCHEM_COMPOUND_CANONICALIZED>
1
> <PUBCHEM_CACTVS_COMPLEXITY>
230
> <PUBCHEM_CACTVS_HBOND_ACCEPTOR>
2
> <PUBCHEM_CACTVS_HBOND_DONOR>
0
> <PUBCHEM_CACTVS_ROTATABLE_BOND>
4
> <PUBCHEM_CACTVS_SUBSKEYS>
AAADccBwMAAAAAAAAAAAAAAAAAAAAAAAAAAwAAAAAAAAAAABAAAAGgAAAAAADBSgmAIyCIAABADIGiDSCAgCAAAgAAAIiAEAAIgIIDKAFRCCIAAkwAEIiAeIyKCOAAAAAAAAAAAAAAAAAAAAAAAAAAAAAA==
> <PUBCHEM_IUPAC_OPENEYE_NAME>
1-methylprop-2-ynyl 2-phenylacetate
> <PUBCHEM_IUPAC_CAS_NAME>
2-phenylacetic acid but-3-yn-2-yl ester
> <PUBCHEM_IUPAC_NAME_MARKUP>
but-3-yn-2-yl 2-phenylacetate
> <PUBCHEM_IUPAC_NAME>
but-3-yn-2-yl 2-phenylacetate
> <PUBCHEM_IUPAC_SYSTEMATIC_NAME>
but-3-yn-2-yl 2-phenylethanoate
> <PUBCHEM_IUPAC_TRADITIONAL_NAME>
2-phenylacetic acid 1-methylprop-2-ynyl ester
> <PUBCHEM_IUPAC_INCHI>
InChI=1S/C12H12O2/c1-3-10(2)14-12(13)9-11-7-5-4-6-8-11/h1,4-8,10H,9H2,2H3
> <PUBCHEM_IUPAC_INCHIKEY>
VXNDJPDQNAXPHL-UHFFFAOYSA-N
> <PUBCHEM_XLOGP3_AA>
2.2
> <PUBCHEM_EXACT_MASS>
188.083729621
> <PUBCHEM_MOLECULAR_FORMULA>
C12H12O2
> <PUBCHEM_MOLECULAR_WEIGHT>
188.22
> <PUBCHEM_OPENEYE_CAN_SMILES>
CC(C#C)OC(=O)CC1=CC=CC=C1
> <PUBCHEM_OPENEYE_ISO_SMILES>
CC(C#C)OC(=O)CC1=CC=CC=C1
> <PUBCHEM_CACTVS_TPSA>
26.3
> <PUBCHEM_MONOISOTOPIC_WEIGHT>
188.083729621
> <PUBCHEM_TOTAL_CHARGE>
0
> <PUBCHEM_HEAVY_ATOM_COUNT>
14
> <PUBCHEM_ATOM_DEF_STEREO_COUNT>
0
> <PUBCHEM_ATOM_UDEF_STEREO_COUNT>
1
> <PUBCHEM_BOND_DEF_STEREO_COUNT>
0
> <PUBCHEM_BOND_UDEF_STEREO_COUNT>
0
> <PUBCHEM_ISOTOPIC_ATOM_COUNT>
0
> <PUBCHEM_COMPONENT_COUNT>
1
> <PUBCHEM_CACTVS_TAUTO_COUNT>
1
> <PUBCHEM_COORDINATE_TYPE>
1
5
255
> <PUBCHEM_BONDANNOTATIONS>
10  11  8
4  5  8
4  6  8
5  9  8
6  10  8
8  19  3
9  11  8
$$$$
