521551
  -OEChem-10302200292D
 46 47  0     1  0  0  0  0  0999 V2000
    6.3301   -0.5000    0.0000 C   0  0  3  0  0  0  0  0  0  0  0  0
    6.3301    0.5000    0.0000 C   0  0  0  0  0  0  0  0  0  0  0  0
    5.4641   -1.0000    0.0000 C   0  0  3  0  0  0  0  0  0  0  0  0
    7.1962   -1.0000    0.0000 C   0  0  0  0  0  0  0  0  0  0  0  0
    5.4641   -2.0000    0.0000 C   0  0  0  0  0  0  0  0  0  0  0  0
    7.1962    1.0000    0.0000 C   0  0  0  0  0  0  0  0  0  0  0  0
    5.4641    1.0000    0.0000 C   0  0  0  0  0  0  0  0  0  0  0  0
    7.1962   -2.0000    0.0000 C   0  0  0  0  0  0  0  0  0  0  0  0
    6.3301   -2.5000    0.0000 C   0  0  0  0  0  0  0  0  0  0  0  0
    4.5981   -0.5000    0.0000 C   0  0  0  0  0  0  0  0  0  0  0  0
    7.1962    2.0000    0.0000 C   0  0  0  0  0  0  0  0  0  0  0  0
    5.4641    2.0000    0.0000 C   0  0  0  0  0  0  0  0  0  0  0  0
    6.3301    2.5000    0.0000 C   0  0  0  0  0  0  0  0  0  0  0  0
    3.7320   -1.0000    0.0000 C   0  0  0  0  0  0  0  0  0  0  0  0
    2.8660   -0.5000    0.0000 C   0  0  0  0  0  0  0  0  0  0  0  0
    2.0000   -1.0000    0.0000 C   0  0  0  0  0  0  0  0  0  0  0  0
    6.8671   -0.1900    0.0000 H   0  0  0  0  0  0  0  0  0  0  0  0
    5.7932    0.1900    0.0000 H   0  0  0  0  0  0  0  0  0  0  0  0
    5.4641   -0.3800    0.0000 H   0  0  0  0  0  0  0  0  0  0  0  0
    7.8067   -1.1077    0.0000 H   0  0  0  0  0  0  0  0  0  0  0  0
    7.4082   -0.4174    0.0000 H   0  0  0  0  0  0  0  0  0  0  0  0
    4.8535   -1.8923    0.0000 H   0  0  0  0  0  0  0  0  0  0  0  0
    5.2520   -2.5826    0.0000 H   0  0  0  0  0  0  0  0  0  0  0  0
    7.4082    0.4174    0.0000 H   0  0  0  0  0  0  0  0  0  0  0  0
    7.8067    1.1077    0.0000 H   0  0  0  0  0  0  0  0  0  0  0  0
    4.8535    1.1077    0.0000 H   0  0  0  0  0  0  0  0  0  0  0  0
    5.2520    0.4174    0.0000 H   0  0  0  0  0  0  0  0  0  0  0  0
    7.4082   -2.5826    0.0000 H   0  0  0  0  0  0  0  0  0  0  0  0
    7.8067   -1.8923    0.0000 H   0  0  0  0  0  0  0  0  0  0  0  0
    5.9316   -2.9750    0.0000 H   0  0  0  0  0  0  0  0  0  0  0  0
    6.7287   -2.9750    0.0000 H   0  0  0  0  0  0  0  0  0  0  0  0
    4.9966   -0.0251    0.0000 H   0  0  0  0  0  0  0  0  0  0  0  0
    4.1996   -0.0251    0.0000 H   0  0  0  0  0  0  0  0  0  0  0  0
    7.8067    1.8923    0.0000 H   0  0  0  0  0  0  0  0  0  0  0  0
    7.4082    2.5826    0.0000 H   0  0  0  0  0  0  0  0  0  0  0  0
    5.2520    2.5826    0.0000 H   0  0  0  0  0  0  0  0  0  0  0  0
    4.8535    1.8923    0.0000 H   0  0  0  0  0  0  0  0  0  0  0  0
    6.7287    2.9750    0.0000 H   0  0  0  0  0  0  0  0  0  0  0  0
    5.9316    2.9750    0.0000 H   0  0  0  0  0  0  0  0  0  0  0  0
    3.3335   -1.4750    0.0000 H   0  0  0  0  0  0  0  0  0  0  0  0
    4.1306   -1.4750    0.0000 H   0  0  0  0  0  0  0  0  0  0  0  0
    3.2646   -0.0251    0.0000 H   0  0  0  0  0  0  0  0  0  0  0  0
    2.4675   -0.0251    0.0000 H   0  0  0  0  0  0  0  0  0  0  0  0
    1.6900   -0.4631    0.0000 H   0  0  0  0  0  0  0  0  0  0  0  0
    1.4631   -1.3100    0.0000 H   0  0  0  0  0  0  0  0  0  0  0  0
    2.3100   -1.5369    0.0000 H   0  0  0  0  0  0  0  0  0  0  0  0
  1  2  1  0  0  0  0
  1  3  1  0  0  0  0
  1  4  1  0  0  0  0
  1 17  1  0  0  0  0
  2  6  1  0  0  0  0
  2  7  1  0  0  0  0
  2 18  1  0  0  0  0
  3  5  1  0  0  0  0
  3 10  1  0  0  0  0
  3 19  1  0  0  0  0
  4  8  1  0  0  0  0
  4 20  1  0  0  0  0
  4 21  1  0  0  0  0
  5  9  1  0  0  0  0
  5 22  1  0  0  0  0
  5 23  1  0  0  0  0
  6 11  1  0  0  0  0
  6 24  1  0  0  0  0
  6 25  1  0  0  0  0
  7 12  1  0  0  0  0
  7 26  1  0  0  0  0
  7 27  1  0  0  0  0
  8  9  1  0  0  0  0
  8 28  1  0  0  0  0
  8 29  1  0  0  0  0
  9 30  1  0  0  0  0
  9 31  1  0  0  0  0
 10 14  1  0  0  0  0
 10 32  1  0  0  0  0
 10 33  1  0  0  0  0
 11 13  1  0  0  0  0
 11 34  1  0  0  0  0
 11 35  1  0  0  0  0
 12 13  1  0  0  0  0
 12 36  1  0  0  0  0
 12 37  1  0  0  0  0
 13 38  1  0  0  0  0
 13 39  1  0  0  0  0
 14 15  1  0  0  0  0
 14 40  1  0  0  0  0
 14 41  1  0  0  0  0
 15 16  1  0  0  0  0
 15 42  1  0  0  0  0
 15 43  1  0  0  0  0
 16 44  1  0  0  0  0
 16 45  1  0  0  0  0
 16 46  1  0  0  0  0
M  END
> <PUBCHEM_COMPOUND_CID>
521551
> <PUBCHEM_COMPOUND_CANONICALIZED>
1
> <PUBCHEM_CACTVS_COMPLEXITY>
179
> <PUBCHEM_CACTVS_HBOND_ACCEPTOR>
0
> <PUBCHEM_CACTVS_HBOND_DONOR>
0
> <PUBCHEM_CACTVS_ROTATABLE_BOND>
4
> <PUBCHEM_CACTVS_SUBSKEYS>
AAADceB4AAAAAAAAAAAAAAAAAAAAAAAAAAAwYAAAAAAAAAAAAAAAGAAAAAAADQCAAAACAAAAAAAAAAAAAAAAAAAAAAAAAAAAAAAAAAIAAAAAAAAAAAAAAAEAgMAOgAAAAAAAAAAAAAAAACAAAAAAAAAAAA==
> <PUBCHEM_IUPAC_OPENEYE_NAME>
1-butyl-2-cyclohexyl-cyclohexane
> <PUBCHEM_IUPAC_CAS_NAME>
1-butyl-2-cyclohexylcyclohexane
> <PUBCHEM_IUPAC_NAME_MARKUP>
1-butyl-2-cyclohexylcyclohexane
> <PUBCHEM_IUPAC_NAME>
1-butyl-2-cyclohexylcyclohexane
> <PUBCHEM_IUPAC_SYSTEMATIC_NAME>
1-butyl-2-cyclohexyl-cyclohexane
> <PUBCHEM_IUPAC_TRADITIONAL_NAME>
1-butyl-2-cyclohexyl-cyclohexane
> <PUBCHEM_IUPAC_INCHI>
InChI=1S/C16H30/c1-2-3-9-14-12-7-8-13-16(14)15-10-5-4-6-11-15/h14-16H,2-13H2,1H3
> <PUBCHEM_IUPAC_INCHIKEY>
NUHOLGQIGHXQAE-UHFFFAOYSA-N
> <PUBCHEM_XLOGP3_AA>
7.6
> <PUBCHEM_EXACT_MASS>
222.234750957
> <PUBCHEM_MOLECULAR_FORMULA>
C16H30
> <PUBCHEM_MOLECULAR_WEIGHT>
222.41
> <PUBCHEM_OPENEYE_CAN_SMILES>
CCCCC1CCCCC1C2CCCCC2
> <PUBCHEM_OPENEYE_ISO_SMILES>
CCCCC1CCCCC1C2CCCCC2
> <PUBCHEM_CACTVS_TPSA>
0
> <PUBCHEM_MONOISOTOPIC_WEIGHT>
222.234750957
> <PUBCHEM_TOTAL_CHARGE>
0
> <PUBCHEM_HEAVY_ATOM_COUNT>
16
> <PUBCHEM_ATOM_DEF_STEREO_COUNT>
0
> <PUBCHEM_ATOM_UDEF_STEREO_COUNT>
2
> <PUBCHEM_BOND_DEF_STEREO_COUNT>
0
> <PUBCHEM_BOND_UDEF_STEREO_COUNT>
0
> <PUBCHEM_ISOTOPIC_ATOM_COUNT>
0
> <PUBCHEM_COMPONENT_COUNT>
1
> <PUBCHEM_CACTVS_TAUTO_COUNT>
1
> <PUBCHEM_COORDINATE_TYPE>
1
5
255
> <PUBCHEM_BONDANNOTATIONS>
1  2  3
3  10  3
$$$$
