521589
  -OEChem-10302200292D
 38 37  0     1  0  0  0  0  0999 V2000
   10.6603    0.0000    0.0000 O   0  0  0  0  0  0  0  0  0  0  0  0
    9.7942    1.5000    0.0000 O   0  0  0  0  0  0  0  0  0  0  0  0
    2.8660    0.5000    0.0000 O   0  0  0  0  0  0  0  0  0  0  0  0
    3.7320   -1.0000    0.0000 O   0  0  0  0  0  0  0  0  0  0  0  0
    8.0622    0.5000    0.0000 C   0  0  0  0  0  0  0  0  0  0  0  0
    8.9282    0.0000    0.0000 C   0  0  3  0  0  0  0  0  0  0  0  0
    7.1962   -0.0000    0.0000 C   0  0  0  0  0  0  0  0  0  0  0  0
    6.3301    0.5000    0.0000 C   0  0  0  0  0  0  0  0  0  0  0  0
    8.9282   -1.0000    0.0000 C   0  0  0  0  0  0  0  0  0  0  0  0
    5.4641   -0.0000    0.0000 C   0  0  0  0  0  0  0  0  0  0  0  0
    9.7942    0.5000    0.0000 C   0  0  0  0  0  0  0  0  0  0  0  0
    4.5981    0.5000    0.0000 C   0  0  0  0  0  0  0  0  0  0  0  0
    8.0622   -1.5000    0.0000 C   0  0  0  0  0  0  0  0  0  0  0  0
    3.7320   -0.0000    0.0000 C   0  0  0  0  0  0  0  0  0  0  0  0
   11.5263    0.5000    0.0000 C   0  0  0  0  0  0  0  0  0  0  0  0
    2.0000   -0.0000    0.0000 C   0  0  0  0  0  0  0  0  0  0  0  0
    8.4607    0.9749    0.0000 H   0  0  0  0  0  0  0  0  0  0  0  0
    7.6636    0.9749    0.0000 H   0  0  0  0  0  0  0  0  0  0  0  0
    9.4651   -0.3100    0.0000 H   0  0  0  0  0  0  0  0  0  0  0  0
    6.7976   -0.4749    0.0000 H   0  0  0  0  0  0  0  0  0  0  0  0
    7.5947   -0.4749    0.0000 H   0  0  0  0  0  0  0  0  0  0  0  0
    6.7287    0.9749    0.0000 H   0  0  0  0  0  0  0  0  0  0  0  0
    5.9316    0.9749    0.0000 H   0  0  0  0  0  0  0  0  0  0  0  0
    9.1403   -1.5826    0.0000 H   0  0  0  0  0  0  0  0  0  0  0  0
    9.5388   -0.8923    0.0000 H   0  0  0  0  0  0  0  0  0  0  0  0
    5.0656   -0.4749    0.0000 H   0  0  0  0  0  0  0  0  0  0  0  0
    5.8626   -0.4749    0.0000 H   0  0  0  0  0  0  0  0  0  0  0  0
    4.9966    0.9749    0.0000 H   0  0  0  0  0  0  0  0  0  0  0  0
    4.1996    0.9749    0.0000 H   0  0  0  0  0  0  0  0  0  0  0  0
    7.7522   -0.9631    0.0000 H   0  0  0  0  0  0  0  0  0  0  0  0
    7.5252   -1.8100    0.0000 H   0  0  0  0  0  0  0  0  0  0  0  0
    8.3722   -2.0369    0.0000 H   0  0  0  0  0  0  0  0  0  0  0  0
   11.8363   -0.0369    0.0000 H   0  0  0  0  0  0  0  0  0  0  0  0
   12.0632    0.8100    0.0000 H   0  0  0  0  0  0  0  0  0  0  0  0
   11.2163    1.0369    0.0000 H   0  0  0  0  0  0  0  0  0  0  0  0
    1.6900    0.5369    0.0000 H   0  0  0  0  0  0  0  0  0  0  0  0
    1.4631   -0.3100    0.0000 H   0  0  0  0  0  0  0  0  0  0  0  0
    2.3100   -0.5369    0.0000 H   0  0  0  0  0  0  0  0  0  0  0  0
  1 11  1  0  0  0  0
  1 15  1  0  0  0  0
  2 11  2  0  0  0  0
  3 14  1  0  0  0  0
  3 16  1  0  0  0  0
  4 14  2  0  0  0  0
  5  6  1  0  0  0  0
  5  7  1  0  0  0  0
  5 17  1  0  0  0  0
  5 18  1  0  0  0  0
  6  9  1  0  0  0  0
  6 11  1  0  0  0  0
  6 19  1  0  0  0  0
  7  8  1  0  0  0  0
  7 20  1  0  0  0  0
  7 21  1  0  0  0  0
  8 10  1  0  0  0  0
  8 22  1  0  0  0  0
  8 23  1  0  0  0  0
  9 13  1  0  0  0  0
  9 24  1  0  0  0  0
  9 25  1  0  0  0  0
 10 12  1  0  0  0  0
 10 26  1  0  0  0  0
 10 27  1  0  0  0  0
 12 14  1  0  0  0  0
 12 28  1  0  0  0  0
 12 29  1  0  0  0  0
 13 30  1  0  0  0  0
 13 31  1  0  0  0  0
 13 32  1  0  0  0  0
 15 33  1  0  0  0  0
 15 34  1  0  0  0  0
 15 35  1  0  0  0  0
 16 36  1  0  0  0  0
 16 37  1  0  0  0  0
 16 38  1  0  0  0  0
M  END
> <PUBCHEM_COMPOUND_CID>
521589
> <PUBCHEM_COMPOUND_CANONICALIZED>
1
> <PUBCHEM_CACTVS_COMPLEXITY>
213
> <PUBCHEM_CACTVS_HBOND_ACCEPTOR>
4
> <PUBCHEM_CACTVS_HBOND_DONOR>
0
> <PUBCHEM_CACTVS_ROTATABLE_BOND>
10
> <PUBCHEM_CACTVS_SUBSKEYS>
AAADceBwOAAAAAAAAAAAAAAAAAAAAAAAAAAAAAAAAAAAAAAAAAAAGgAAAAAADQCAgAICCAAABAAIAACQCAAAAAAAAAAAAAEAAAAAABIAAAAAAAAEAAAAAAGIyOCOAAAAAAAAAAAAAAAAAAAAAAAAAAAAAA==
> <PUBCHEM_IUPAC_OPENEYE_NAME>
dimethyl 2-ethyloctanedioate
> <PUBCHEM_IUPAC_CAS_NAME>
2-ethyloctanedioic acid dimethyl ester
> <PUBCHEM_IUPAC_NAME_MARKUP>
dimethyl 2-ethyloctanedioate
> <PUBCHEM_IUPAC_NAME>
dimethyl 2-ethyloctanedioate
> <PUBCHEM_IUPAC_SYSTEMATIC_NAME>
dimethyl 2-ethyloctanedioate
> <PUBCHEM_IUPAC_TRADITIONAL_NAME>
2-ethylsuberic acid dimethyl ester
> <PUBCHEM_IUPAC_INCHI>
InChI=1S/C12H22O4/c1-4-10(12(14)16-3)8-6-5-7-9-11(13)15-2/h10H,4-9H2,1-3H3
> <PUBCHEM_IUPAC_INCHIKEY>
CWQKDKHZVKZZKC-UHFFFAOYSA-N
> <PUBCHEM_XLOGP3_AA>
2.6
> <PUBCHEM_EXACT_MASS>
230.15180918
> <PUBCHEM_MOLECULAR_FORMULA>
C12H22O4
> <PUBCHEM_MOLECULAR_WEIGHT>
230.30
> <PUBCHEM_OPENEYE_CAN_SMILES>
CCC(CCCCCC(=O)OC)C(=O)OC
> <PUBCHEM_OPENEYE_ISO_SMILES>
CCC(CCCCCC(=O)OC)C(=O)OC
> <PUBCHEM_CACTVS_TPSA>
52.6
> <PUBCHEM_MONOISOTOPIC_WEIGHT>
230.15180918
> <PUBCHEM_TOTAL_CHARGE>
0
> <PUBCHEM_HEAVY_ATOM_COUNT>
16
> <PUBCHEM_ATOM_DEF_STEREO_COUNT>
0
> <PUBCHEM_ATOM_UDEF_STEREO_COUNT>
1
> <PUBCHEM_BOND_DEF_STEREO_COUNT>
0
> <PUBCHEM_BOND_UDEF_STEREO_COUNT>
0
> <PUBCHEM_ISOTOPIC_ATOM_COUNT>
0
> <PUBCHEM_COMPONENT_COUNT>
1
> <PUBCHEM_CACTVS_TAUTO_COUNT>
1
> <PUBCHEM_COORDINATE_TYPE>
1
5
255
> <PUBCHEM_BONDANNOTATIONS>
6  9  3
$$$$
