521577
  -OEChem-10302200292D
 39 38  0     1  0  0  0  0  0999 V2000
    2.8660    0.0670    0.0000 Si  0  0  0  0  0  0  0  0  0  0  0  0
    8.0622    0.0670    0.0000 Si  0  0  0  0  0  0  0  0  0  0  0  0
    3.7320    0.5670    0.0000 O   0  0  0  0  0  0  0  0  0  0  0  0
    7.1962    0.5670    0.0000 O   0  0  0  0  0  0  0  0  0  0  0  0
    6.3301   -0.9330    0.0000 O   0  0  0  0  0  0  0  0  0  0  0  0
    4.5981    0.0670    0.0000 C   0  0  3  0  0  0  0  0  0  0  0  0
    5.4641    0.5670    0.0000 C   0  0  0  0  0  0  0  0  0  0  0  0
    2.0000   -0.4330    0.0000 C   0  0  0  0  0  0  0  0  0  0  0  0
    2.3660    0.9330    0.0000 C   0  0  0  0  0  0  0  0  0  0  0  0
    3.3660   -0.7990    0.0000 C   0  0  0  0  0  0  0  0  0  0  0  0
    4.5981   -0.9330    0.0000 C   0  0  0  0  0  0  0  0  0  0  0  0
    6.3301    0.0670    0.0000 C   0  0  0  0  0  0  0  0  0  0  0  0
    8.9282   -0.4330    0.0000 C   0  0  0  0  0  0  0  0  0  0  0  0
    8.5622    0.9330    0.0000 C   0  0  0  0  0  0  0  0  0  0  0  0
    7.5622   -0.7990    0.0000 C   0  0  0  0  0  0  0  0  0  0  0  0
    4.5981    0.6870    0.0000 H   0  0  0  0  0  0  0  0  0  0  0  0
    5.8626    1.0419    0.0000 H   0  0  0  0  0  0  0  0  0  0  0  0
    5.0656    1.0419    0.0000 H   0  0  0  0  0  0  0  0  0  0  0  0
    1.6900    0.1039    0.0000 H   0  0  0  0  0  0  0  0  0  0  0  0
    1.4631   -0.7430    0.0000 H   0  0  0  0  0  0  0  0  0  0  0  0
    2.3100   -0.9699    0.0000 H   0  0  0  0  0  0  0  0  0  0  0  0
    2.9030    1.2430    0.0000 H   0  0  0  0  0  0  0  0  0  0  0  0
    2.0560    1.4700    0.0000 H   0  0  0  0  0  0  0  0  0  0  0  0
    1.8291    0.6230    0.0000 H   0  0  0  0  0  0  0  0  0  0  0  0
    2.8291   -1.1090    0.0000 H   0  0  0  0  0  0  0  0  0  0  0  0
    3.6760   -1.3360    0.0000 H   0  0  0  0  0  0  0  0  0  0  0  0
    3.9030   -0.4890    0.0000 H   0  0  0  0  0  0  0  0  0  0  0  0
    3.9781   -0.9330    0.0000 H   0  0  0  0  0  0  0  0  0  0  0  0
    4.5981   -1.5530    0.0000 H   0  0  0  0  0  0  0  0  0  0  0  0
    5.2181   -0.9330    0.0000 H   0  0  0  0  0  0  0  0  0  0  0  0
    8.6182   -0.9699    0.0000 H   0  0  0  0  0  0  0  0  0  0  0  0
    9.4651   -0.7430    0.0000 H   0  0  0  0  0  0  0  0  0  0  0  0
    9.2382    0.1039    0.0000 H   0  0  0  0  0  0  0  0  0  0  0  0
    9.0991    0.6230    0.0000 H   0  0  0  0  0  0  0  0  0  0  0  0
    8.8722    1.4700    0.0000 H   0  0  0  0  0  0  0  0  0  0  0  0
    8.0252    1.2430    0.0000 H   0  0  0  0  0  0  0  0  0  0  0  0
    7.0252   -0.4890    0.0000 H   0  0  0  0  0  0  0  0  0  0  0  0
    7.2522   -1.3360    0.0000 H   0  0  0  0  0  0  0  0  0  0  0  0
    8.0991   -1.1090    0.0000 H   0  0  0  0  0  0  0  0  0  0  0  0
  1  3  1  0  0  0  0
  1  8  1  0  0  0  0
  1  9  1  0  0  0  0
  1 10  1  0  0  0  0
  2  4  1  0  0  0  0
  2 13  1  0  0  0  0
  2 14  1  0  0  0  0
  2 15  1  0  0  0  0
  3  6  1  0  0  0  0
  4 12  1  0  0  0  0
  5 12  2  0  0  0  0
  6  7  1  0  0  0  0
  6 11  1  0  0  0  0
  6 16  1  0  0  0  0
  7 12  1  0  0  0  0
  7 17  1  0  0  0  0
  7 18  1  0  0  0  0
  8 19  1  0  0  0  0
  8 20  1  0  0  0  0
  8 21  1  0  0  0  0
  9 22  1  0  0  0  0
  9 23  1  0  0  0  0
  9 24  1  0  0  0  0
 10 25  1  0  0  0  0
 10 26  1  0  0  0  0
 10 27  1  0  0  0  0
 11 28  1  0  0  0  0
 11 29  1  0  0  0  0
 11 30  1  0  0  0  0
 13 31  1  0  0  0  0
 13 32  1  0  0  0  0
 13 33  1  0  0  0  0
 14 34  1  0  0  0  0
 14 35  1  0  0  0  0
 14 36  1  0  0  0  0
 15 37  1  0  0  0  0
 15 38  1  0  0  0  0
 15 39  1  0  0  0  0
M  END
> <PUBCHEM_COMPOUND_CID>
521577
> <PUBCHEM_COMPOUND_CANONICALIZED>
1
> <PUBCHEM_CACTVS_COMPLEXITY>
216
> <PUBCHEM_CACTVS_HBOND_ACCEPTOR>
3
> <PUBCHEM_CACTVS_HBOND_DONOR>
0
> <PUBCHEM_CACTVS_ROTATABLE_BOND>
6
> <PUBCHEM_CACTVS_SUBSKEYS>
AAADceBwMAwAAAAAAAAAAAAAAAAAAAAAAAAAAAAAAAAAAAAAAAAAGhAAAEAACBSggAJCCAAAAAEIAACQCAAAAAAAAAAAAAEAAAAAABQAAAAAAAAFIAAAAAAAAAAAAAAAAAAAAAAAAAAAAAAAAAAAAAAAAA==
> <PUBCHEM_IUPAC_OPENEYE_NAME>
trimethylsilyl 3-trimethylsilyloxybutanoate
> <PUBCHEM_IUPAC_CAS_NAME>
3-trimethylsilyloxybutanoic acid trimethylsilyl ester
> <PUBCHEM_IUPAC_NAME_MARKUP>
trimethylsilyl 3-trimethylsilyloxybutanoate
> <PUBCHEM_IUPAC_NAME>
trimethylsilyl 3-trimethylsilyloxybutanoate
> <PUBCHEM_IUPAC_SYSTEMATIC_NAME>
trimethylsilyl 3-trimethylsilyloxybutanoate
> <PUBCHEM_IUPAC_TRADITIONAL_NAME>
3-trimethylsilyloxybutyric acid trimethylsilyl ester
> <PUBCHEM_IUPAC_INCHI>
InChI=1S/C10H24O3Si2/c1-9(12-14(2,3)4)8-10(11)13-15(5,6)7/h9H,8H2,1-7H3
> <PUBCHEM_IUPAC_INCHIKEY>
YWRIHOYCAHATJN-UHFFFAOYSA-N
> <PUBCHEM_EXACT_MASS>
248.12639769
> <PUBCHEM_MOLECULAR_FORMULA>
C10H24O3Si2
> <PUBCHEM_MOLECULAR_WEIGHT>
248.47
> <PUBCHEM_OPENEYE_CAN_SMILES>
CC(CC(=O)O[Si](C)(C)C)O[Si](C)(C)C
> <PUBCHEM_OPENEYE_ISO_SMILES>
CC(CC(=O)O[Si](C)(C)C)O[Si](C)(C)C
> <PUBCHEM_CACTVS_TPSA>
35.5
> <PUBCHEM_MONOISOTOPIC_WEIGHT>
248.12639769
> <PUBCHEM_TOTAL_CHARGE>
0
> <PUBCHEM_HEAVY_ATOM_COUNT>
15
> <PUBCHEM_ATOM_DEF_STEREO_COUNT>
0
> <PUBCHEM_ATOM_UDEF_STEREO_COUNT>
1
> <PUBCHEM_BOND_DEF_STEREO_COUNT>
0
> <PUBCHEM_BOND_UDEF_STEREO_COUNT>
0
> <PUBCHEM_ISOTOPIC_ATOM_COUNT>
0
> <PUBCHEM_COMPONENT_COUNT>
1
> <PUBCHEM_CACTVS_TAUTO_COUNT>
1
> <PUBCHEM_COORDINATE_TYPE>
1
5
255
> <PUBCHEM_BONDANNOTATIONS>
6  11  3
$$$$
