521530
  -OEChem-10302200292D
 52 55  0     1  0  0  0  0  0999 V2000
    8.6500    2.1767    0.0000 O   0  0  0  0  0  0  0  0  0  0  0  0
    2.0000   -2.1309    0.0000 O   0  0  0  0  0  0  0  0  0  0  0  0
    5.6610   -0.0785    0.0000 C   0  0  3  0  0  0  0  0  0  0  0  0
    6.5271   -0.5785    0.0000 C   0  0  3  0  0  0  0  0  0  0  0  0
    4.7510   -0.5854    0.0000 C   0  0  3  0  0  0  0  0  0  0  0  0
    7.3931   -0.0785    0.0000 C   0  0  3  0  0  0  0  0  0  0  0  0
    7.3931    0.9215    0.0000 C   0  0  3  0  0  0  0  0  0  0  0  0
    4.7430   -1.6270    0.0000 C   0  0  3  0  0  0  0  0  0  0  0  0
    5.6610    0.9215    0.0000 C   0  0  0  0  0  0  0  0  0  0  0  0
    6.5431   -1.6200    0.0000 C   0  0  0  0  0  0  0  0  0  0  0  0
    6.5271    1.4215    0.0000 C   0  0  0  0  0  0  0  0  0  0  0  0
    5.6451   -2.1478    0.0000 C   0  0  0  0  0  0  0  0  0  0  0  0
    3.8242   -0.0213    0.0000 C   0  0  0  0  0  0  0  0  0  0  0  0
    8.3393   -0.3833    0.0000 C   0  0  0  0  0  0  0  0  0  0  0  0
    3.8076   -2.1767    0.0000 C   0  0  0  0  0  0  0  0  0  0  0  0
    4.7587    0.4146    0.0000 C   0  0  0  0  0  0  0  0  0  0  0  0
    8.3393    1.2262    0.0000 C   0  0  0  0  0  0  0  0  0  0  0  0
    8.9229    0.4215    0.0000 C   0  0  0  0  0  0  0  0  0  0  0  0
    2.8763   -0.5493    0.0000 C   0  0  3  0  0  0  0  0  0  0  0  0
    7.3931    1.9215    0.0000 C   0  0  0  0  0  0  0  0  0  0  0  0
    2.8680   -1.6342    0.0000 C   0  0  0  0  0  0  0  0  0  0  0  0
    2.0161   -0.0393    0.0000 C   0  0  0  0  0  0  0  0  0  0  0  0
    6.1980    0.2315    0.0000 H   0  0  0  0  0  0  0  0  0  0  0  0
    7.0664   -0.8844    0.0000 H   0  0  0  0  0  0  0  0  0  0  0  0
    7.4587   -0.6951    0.0000 H   0  0  0  0  0  0  0  0  0  0  0  0
    4.7454   -2.2470    0.0000 H   0  0  0  0  0  0  0  0  0  0  0  0
    5.4490    1.5041    0.0000 H   0  0  0  0  0  0  0  0  0  0  0  0
    5.0504    0.8138    0.0000 H   0  0  0  0  0  0  0  0  0  0  0  0
    6.7612   -2.2004    0.0000 H   0  0  0  0  0  0  0  0  0  0  0  0
    7.1523   -1.5046    0.0000 H   0  0  0  0  0  0  0  0  0  0  0  0
    6.9256    1.8964    0.0000 H   0  0  0  0  0  0  0  0  0  0  0  0
    6.1285    1.8964    0.0000 H   0  0  0  0  0  0  0  0  0  0  0  0
    5.2478   -2.6238    0.0000 H   0  0  0  0  0  0  0  0  0  0  0  0
    6.0460   -2.6207    0.0000 H   0  0  0  0  0  0  0  0  0  0  0  0
    4.2324    0.4454    0.0000 H   0  0  0  0  0  0  0  0  0  0  0  0
    3.4343    0.4607    0.0000 H   0  0  0  0  0  0  0  0  0  0  0  0
    8.0883   -0.9502    0.0000 H   0  0  0  0  0  0  0  0  0  0  0  0
    8.8767   -0.6925    0.0000 H   0  0  0  0  0  0  0  0  0  0  0  0
    3.4103   -2.6527    0.0000 H   0  0  0  0  0  0  0  0  0  0  0  0
    4.2085   -2.6496    0.0000 H   0  0  0  0  0  0  0  0  0  0  0  0
    5.3787    0.4098    0.0000 H   0  0  0  0  0  0  0  0  0  0  0  0
    4.7635    1.0346    0.0000 H   0  0  0  0  0  0  0  0  0  0  0  0
    4.1388    0.4194    0.0000 H   0  0  0  0  0  0  0  0  0  0  0  0
    9.3838    0.0067    0.0000 H   0  0  0  0  0  0  0  0  0  0  0  0
    9.3838    0.8362    0.0000 H   0  0  0  0  0  0  0  0  0  0  0  0
    2.8847    0.0707    0.0000 H   0  0  0  0  0  0  0  0  0  0  0  0
    8.0131    1.9215    0.0000 H   0  0  0  0  0  0  0  0  0  0  0  0
    7.3931    2.5415    0.0000 H   0  0  0  0  0  0  0  0  0  0  0  0
    6.7731    1.9215    0.0000 H   0  0  0  0  0  0  0  0  0  0  0  0
    2.3323    0.4940    0.0000 H   0  0  0  0  0  0  0  0  0  0  0  0
    1.4828    0.2769    0.0000 H   0  0  0  0  0  0  0  0  0  0  0  0
    1.6999   -0.5726    0.0000 H   0  0  0  0  0  0  0  0  0  0  0  0
  1 17  2  0  0  0  0
  2 21  2  0  0  0  0
  3  4  1  0  0  0  0
  3  5  1  0  0  0  0
  3  9  1  0  0  0  0
  3 23  1  0  0  0  0
  4  6  1  0  0  0  0
  4 10  1  0  0  0  0
  4 24  1  0  0  0  0
  5  8  1  0  0  0  0
  5 13  1  0  0  0  0
  5 16  1  0  0  0  0
  6  7  1  0  0  0  0
  6 14  1  0  0  0  0
  6 25  1  0  0  0  0
  7 11  1  0  0  0  0
  7 17  1  0  0  0  0
  7 20  1  0  0  0  0
  8 12  1  0  0  0  0
  8 15  1  0  0  0  0
  8 26  1  0  0  0  0
  9 11  1  0  0  0  0
  9 27  1  0  0  0  0
  9 28  1  0  0  0  0
 10 12  1  0  0  0  0
 10 29  1  0  0  0  0
 10 30  1  0  0  0  0
 11 31  1  0  0  0  0
 11 32  1  0  0  0  0
 12 33  1  0  0  0  0
 12 34  1  0  0  0  0
 13 19  1  0  0  0  0
 13 35  1  0  0  0  0
 13 36  1  0  0  0  0
 14 18  1  0  0  0  0
 14 37  1  0  0  0  0
 14 38  1  0  0  0  0
 15 21  1  0  0  0  0
 15 39  1  0  0  0  0
 15 40  1  0  0  0  0
 16 41  1  0  0  0  0
 16 42  1  0  0  0  0
 16 43  1  0  0  0  0
 17 18  1  0  0  0  0
 18 44  1  0  0  0  0
 18 45  1  0  0  0  0
 19 21  1  0  0  0  0
 19 22  1  0  0  0  0
 19 46  1  0  0  0  0
 20 47  1  0  0  0  0
 20 48  1  0  0  0  0
 20 49  1  0  0  0  0
 22 50  1  0  0  0  0
 22 51  1  0  0  0  0
 22 52  1  0  0  0  0
M  END
> <PUBCHEM_COMPOUND_CID>
521530
> <PUBCHEM_COMPOUND_CANONICALIZED>
1
> <PUBCHEM_CACTVS_COMPLEXITY>
524
> <PUBCHEM_CACTVS_HBOND_ACCEPTOR>
2
> <PUBCHEM_CACTVS_HBOND_DONOR>
0
> <PUBCHEM_CACTVS_ROTATABLE_BOND>
0
> <PUBCHEM_CACTVS_SUBSKEYS>
AAADceB4MAAAAAAAAAAAAAAAAAAAAYAAAAAwYMAAAAAAAGDAAAAAGgAAAAAADwSAgAACAAAAAAAIAIAQAAAAAAAAAAAAAAEAAAAAABIAAAAAAAAAAAAAAAEIiMCPgAAAAAAAAACAAAQAACAAAAAACAAAAA==
> <PUBCHEM_IUPAC_OPENEYE_NAME>
2,10,13-trimethyl-2,4,5,6,7,8,9,11,12,14,15,16-dodecahydro-1H-cyclopenta[a]phenanthrene-3,17-dione
> <PUBCHEM_IUPAC_CAS_NAME>
2,10,13-trimethyl-2,4,5,6,7,8,9,11,12,14,15,16-dodecahydro-1H-cyclopenta[a]phenanthrene-3,17-dione
> <PUBCHEM_IUPAC_NAME_MARKUP>
2,10,13-trimethyl-2,4,5,6,7,8,9,11,12,14,15,16-dodecahydro-1<I>H</I>-cyclopenta[a]phenanthrene-3,17-dione
> <PUBCHEM_IUPAC_NAME>
2,10,13-trimethyl-2,4,5,6,7,8,9,11,12,14,15,16-dodecahydro-1H-cyclopenta[a]phenanthrene-3,17-dione
> <PUBCHEM_IUPAC_SYSTEMATIC_NAME>
2,10,13-trimethyl-2,4,5,6,7,8,9,11,12,14,15,16-dodecahydro-1H-cyclopenta[a]phenanthrene-3,17-dione
> <PUBCHEM_IUPAC_TRADITIONAL_NAME>
2,10,13-trimethyl-2,4,5,6,7,8,9,11,12,14,15,16-dodecahydro-1H-cyclopenta[a]phenanthrene-3,17-quinone
> <PUBCHEM_IUPAC_INCHI>
InChI=1S/C20H30O2/c1-12-11-20(3)13(10-17(12)21)4-5-14-15-6-7-18(22)19(15,2)9-8-16(14)20/h12-16H,4-11H2,1-3H3
> <PUBCHEM_IUPAC_INCHIKEY>
RVSSFXUENQNQJK-UHFFFAOYSA-N
> <PUBCHEM_XLOGP3>
4.2
> <PUBCHEM_EXACT_MASS>
302.224580195
> <PUBCHEM_MOLECULAR_FORMULA>
C20H30O2
> <PUBCHEM_MOLECULAR_WEIGHT>
302.5
> <PUBCHEM_OPENEYE_CAN_SMILES>
CC1CC2(C(CCC3C2CCC4(C3CCC4=O)C)CC1=O)C
> <PUBCHEM_OPENEYE_ISO_SMILES>
CC1CC2(C(CCC3C2CCC4(C3CCC4=O)C)CC1=O)C
> <PUBCHEM_CACTVS_TPSA>
34.1
> <PUBCHEM_MONOISOTOPIC_WEIGHT>
302.224580195
> <PUBCHEM_TOTAL_CHARGE>
0
> <PUBCHEM_HEAVY_ATOM_COUNT>
22
> <PUBCHEM_ATOM_DEF_STEREO_COUNT>
0
> <PUBCHEM_ATOM_UDEF_STEREO_COUNT>
7
> <PUBCHEM_BOND_DEF_STEREO_COUNT>
0
> <PUBCHEM_BOND_UDEF_STEREO_COUNT>
0
> <PUBCHEM_ISOTOPIC_ATOM_COUNT>
0
> <PUBCHEM_COMPONENT_COUNT>
1
> <PUBCHEM_CACTVS_TAUTO_COUNT>
-1
> <PUBCHEM_COORDINATE_TYPE>
1
5
255
> <PUBCHEM_BONDANNOTATIONS>
19  22  3
3  9  3
4  10  3
5  16  3
6  14  3
7  20  3
8  12  3
$$$$
