521518
  -OEChem-10302200292D
 81 85  0     1  0  0  0  0  0999 V2000
    2.5357   -2.6896    0.0000 O   0  0  0  0  0  0  0  0  0  0  0  0
    7.0628   -1.1372    0.0000 C   0  0  3  0  0  0  0  0  0  0  0  0
    7.9288   -0.6372    0.0000 C   0  0  3  0  0  0  0  0  0  0  0  0
    6.1968   -0.6372    0.0000 C   0  0  3  0  0  0  0  0  0  0  0  0
    7.9288    0.3628    0.0000 C   0  0  3  0  0  0  0  0  0  0  0  0
    5.2868   -1.1441    0.0000 C   0  0  3  0  0  0  0  0  0  0  0  0
    8.8228    0.8974    0.0000 C   0  0  3  0  0  0  0  0  0  0  0  0
    9.7288    0.3836    0.0000 C   0  0  3  0  0  0  0  0  0  0  0  0
    5.2787   -2.1857    0.0000 C   0  0  3  0  0  0  0  0  0  0  0  0
    8.8228   -1.1719    0.0000 C   0  0  0  0  0  0  0  0  0  0  0  0
    7.0789   -2.1788    0.0000 C   0  0  0  0  0  0  0  0  0  0  0  0
    6.1968    0.3628    0.0000 C   0  0  0  0  0  0  0  0  0  0  0  0
    7.0628    0.8628    0.0000 C   0  0  0  0  0  0  0  0  0  0  0  0
    9.7288   -0.6581    0.0000 C   0  0  0  0  0  0  0  0  0  0  0  0
    6.1808   -2.7065    0.0000 C   0  0  0  0  0  0  0  0  0  0  0  0
    9.0329    1.9113    0.0000 C   0  0  3  0  0  0  0  0  0  0  0  0
    4.3433   -2.7354    0.0000 C   0  0  0  0  0  0  0  0  0  0  0  0
    4.3599   -0.5800    0.0000 C   0  0  0  0  0  0  0  0  0  0  0  0
    7.7056   -1.9033    0.0000 C   0  0  0  0  0  0  0  0  0  0  0  0
    8.2709   -1.5769    0.0000 C   0  0  0  0  0  0  0  0  0  0  0  0
   10.4911    1.0843    0.0000 C   0  0  0  0  0  0  0  0  0  0  0  0
   10.0619    2.0266    0.0000 C   0  0  0  0  0  0  0  0  0  0  0  0
    5.2945   -0.1441    0.0000 C   0  0  0  0  0  0  0  0  0  0  0  0
    3.4037   -2.1929    0.0000 C   0  0  3  0  0  0  0  0  0  0  0  0
    3.4120   -1.1080    0.0000 C   0  0  0  0  0  0  0  0  0  0  0  0
   10.5987   -0.1097    0.0000 C   0  0  0  0  0  0  0  0  0  0  0  0
    8.3593    2.6505    0.0000 C   0  0  0  0  0  0  0  0  0  0  0  0
    3.8467   -3.6034    0.0000 C   0  0  0  0  0  0  0  0  0  0  0  0
    4.8466   -3.5995    0.0000 C   0  0  0  0  0  0  0  0  0  0  0  0
    8.6626    3.6034    0.0000 C   0  0  0  0  0  0  0  0  0  0  0  0
    7.3824    2.4367    0.0000 C   0  0  0  0  0  0  0  0  0  0  0  0
    6.7337   -0.3272    0.0000 H   0  0  0  0  0  0  0  0  0  0  0  0
    7.9240    0.9827    0.0000 H   0  0  0  0  0  0  0  0  0  0  0  0
    8.3175    1.2567    0.0000 H   0  0  0  0  0  0  0  0  0  0  0  0
    5.2811   -2.8057    0.0000 H   0  0  0  0  0  0  0  0  0  0  0  0
    8.4182   -1.6417    0.0000 H   0  0  0  0  0  0  0  0  0  0  0  0
    9.2164   -1.6509    0.0000 H   0  0  0  0  0  0  0  0  0  0  0  0
    7.2969   -2.7592    0.0000 H   0  0  0  0  0  0  0  0  0  0  0  0
    7.6880   -2.0632    0.0000 H   0  0  0  0  0  0  0  0  0  0  0  0
    5.9847    0.9454    0.0000 H   0  0  0  0  0  0  0  0  0  0  0  0
    5.5862    0.2551    0.0000 H   0  0  0  0  0  0  0  0  0  0  0  0
    7.4613    1.3377    0.0000 H   0  0  0  0  0  0  0  0  0  0  0  0
    6.6643    1.3377    0.0000 H   0  0  0  0  0  0  0  0  0  0  0  0
    9.9379   -1.2418    0.0000 H   0  0  0  0  0  0  0  0  0  0  0  0
   10.3397   -0.5520    0.0000 H   0  0  0  0  0  0  0  0  0  0  0  0
    5.7835   -3.1825    0.0000 H   0  0  0  0  0  0  0  0  0  0  0  0
    6.5818   -3.1794    0.0000 H   0  0  0  0  0  0  0  0  0  0  0  0
    9.2513    2.4916    0.0000 H   0  0  0  0  0  0  0  0  0  0  0  0
    4.7681   -0.1134    0.0000 H   0  0  0  0  0  0  0  0  0  0  0  0
    3.9700   -0.0980    0.0000 H   0  0  0  0  0  0  0  0  0  0  0  0
    7.2306   -2.3018    0.0000 H   0  0  0  0  0  0  0  0  0  0  0  0
    8.1041   -2.3782    0.0000 H   0  0  0  0  0  0  0  0  0  0  0  0
    8.1805   -1.5048    0.0000 H   0  0  0  0  0  0  0  0  0  0  0  0
    7.6884   -1.7890    0.0000 H   0  0  0  0  0  0  0  0  0  0  0  0
    8.4830   -2.1595    0.0000 H   0  0  0  0  0  0  0  0  0  0  0  0
    8.8535   -1.3648    0.0000 H   0  0  0  0  0  0  0  0  0  0  0  0
   10.8604    0.5863    0.0000 H   0  0  0  0  0  0  0  0  0  0  0  0
   11.0252    1.3992    0.0000 H   0  0  0  0  0  0  0  0  0  0  0  0
   10.6500    2.2229    0.0000 H   0  0  0  0  0  0  0  0  0  0  0  0
    9.9285    2.6321    0.0000 H   0  0  0  0  0  0  0  0  0  0  0  0
    5.9145   -0.1489    0.0000 H   0  0  0  0  0  0  0  0  0  0  0  0
    5.2993    0.4759    0.0000 H   0  0  0  0  0  0  0  0  0  0  0  0
    4.6745   -0.1393    0.0000 H   0  0  0  0  0  0  0  0  0  0  0  0
    3.4025   -2.8129    0.0000 H   0  0  0  0  0  0  0  0  0  0  0  0
    3.2075   -0.5227    0.0000 H   0  0  0  0  0  0  0  0  0  0  0  0
    2.8004   -1.2093    0.0000 H   0  0  0  0  0  0  0  0  0  0  0  0
   10.2928   -0.6490    0.0000 H   0  0  0  0  0  0  0  0  0  0  0  0
   11.1380   -0.4156    0.0000 H   0  0  0  0  0  0  0  0  0  0  0  0
   10.9045    0.4296    0.0000 H   0  0  0  0  0  0  0  0  0  0  0  0
    3.3085   -3.2954    0.0000 H   0  0  0  0  0  0  0  0  0  0  0  0
    3.5387   -4.1415    0.0000 H   0  0  0  0  0  0  0  0  0  0  0  0
    4.3848   -3.9113    0.0000 H   0  0  0  0  0  0  0  0  0  0  0  0
    4.3109   -3.9116    0.0000 H   0  0  0  0  0  0  0  0  0  0  0  0
    5.1587   -4.1352    0.0000 H   0  0  0  0  0  0  0  0  0  0  0  0
    5.3824   -3.2874    0.0000 H   0  0  0  0  0  0  0  0  0  0  0  0
    2.0000   -2.3775    0.0000 H   0  0  0  0  0  0  0  0  0  0  0  0
    9.2534    3.4153    0.0000 H   0  0  0  0  0  0  0  0  0  0  0  0
    8.8507    4.1941    0.0000 H   0  0  0  0  0  0  0  0  0  0  0  0
    8.0718    3.7914    0.0000 H   0  0  0  0  0  0  0  0  0  0  0  0
    6.9648    2.8950    0.0000 H   0  0  0  0  0  0  0  0  0  0  0  0
    7.1944    1.8459    0.0000 H   0  0  0  0  0  0  0  0  0  0  0  0
  1 24  1  0  0  0  0
  1 76  1  0  0  0  0
  2  3  1  0  0  0  0
  2  4  1  0  0  0  0
  2 11  1  0  0  0  0
  2 19  1  0  0  0  0
  3  5  1  0  0  0  0
  3 10  1  0  0  0  0
  3 20  1  0  0  0  0
  4  6  1  0  0  0  0
  4 12  1  0  0  0  0
  4 32  1  0  0  0  0
  5  7  1  0  0  0  0
  5 13  1  0  0  0  0
  5 33  1  0  0  0  0
  6  9  1  0  0  0  0
  6 18  1  0  0  0  0
  6 23  1  0  0  0  0
  7  8  1  0  0  0  0
  7 16  1  0  0  0  0
  7 34  1  0  0  0  0
  8 14  1  0  0  0  0
  8 21  1  0  0  0  0
  8 26  1  0  0  0  0
  9 15  1  0  0  0  0
  9 17  1  0  0  0  0
  9 35  1  0  0  0  0
 10 14  1  0  0  0  0
 10 36  1  0  0  0  0
 10 37  1  0  0  0  0
 11 15  1  0  0  0  0
 11 38  1  0  0  0  0
 11 39  1  0  0  0  0
 12 13  1  0  0  0  0
 12 40  1  0  0  0  0
 12 41  1  0  0  0  0
 13 42  1  0  0  0  0
 13 43  1  0  0  0  0
 14 44  1  0  0  0  0
 14 45  1  0  0  0  0
 15 46  1  0  0  0  0
 15 47  1  0  0  0  0
 16 22  1  0  0  0  0
 16 27  1  0  0  0  0
 16 48  1  0  0  0  0
 17 24  1  0  0  0  0
 17 28  1  0  0  0  0
 17 29  1  0  0  0  0
 18 25  1  0  0  0  0
 18 49  1  0  0  0  0
 18 50  1  0  0  0  0
 19 51  1  0  0  0  0
 19 52  1  0  0  0  0
 19 53  1  0  0  0  0
 20 54  1  0  0  0  0
 20 55  1  0  0  0  0
 20 56  1  0  0  0  0
 21 22  1  0  0  0  0
 21 57  1  0  0  0  0
 21 58  1  0  0  0  0
 22 59  1  0  0  0  0
 22 60  1  0  0  0  0
 23 61  1  0  0  0  0
 23 62  1  0  0  0  0
 23 63  1  0  0  0  0
 24 25  1  0  0  0  0
 24 64  1  0  0  0  0
 25 65  1  0  0  0  0
 25 66  1  0  0  0  0
 26 67  1  0  0  0  0
 26 68  1  0  0  0  0
 26 69  1  0  0  0  0
 27 30  1  0  0  0  0
 27 31  2  0  0  0  0
 28 70  1  0  0  0  0
 28 71  1  0  0  0  0
 28 72  1  0  0  0  0
 29 73  1  0  0  0  0
 29 74  1  0  0  0  0
 29 75  1  0  0  0  0
 30 77  1  0  0  0  0
 30 78  1  0  0  0  0
 30 79  1  0  0  0  0
 31 80  1  0  0  0  0
 31 81  1  0  0  0  0
M  END
> <PUBCHEM_COMPOUND_CID>
521518
> <PUBCHEM_COMPOUND_CANONICALIZED>
1
> <PUBCHEM_CACTVS_COMPLEXITY>
766
> <PUBCHEM_CACTVS_HBOND_ACCEPTOR>
1
> <PUBCHEM_CACTVS_HBOND_DONOR>
1
> <PUBCHEM_CACTVS_ROTATABLE_BOND>
1
> <PUBCHEM_CACTVS_SUBSKEYS>
AAADcfB4IAAAAAAAAAAAAAAAAAAAAYAAAAAwYMGAAAAAAGDAAAAAGgAACAAADxSggAICAAAAAgCAAgBCAAAAAAAgAAAAAAAAAAgAEAIAAQAAQAAEgAAAAAGAwPAPgAAAAAAAAADAAAYAADAAAQAACAAAAA==
> <PUBCHEM_IUPAC_OPENEYE_NAME>
1-isopropenyl-3a,5a,5b,8,8,11a-hexamethyl-1,2,3,4,5,6,7,7a,9,10,11,11b,12,13,13a,13b-hexadecahydrocyclopenta[a]chrysen-9-ol
> <PUBCHEM_IUPAC_CAS_NAME>
3a,5a,5b,8,8,11a-hexamethyl-1-(1-methylethenyl)-1,2,3,4,5,6,7,7a,9,10,11,11b,12,13,13a,13b-hexadecahydrocyclopenta[a]chrysen-9-ol
> <PUBCHEM_IUPAC_NAME_MARKUP>
3<I>a</I>,5<I>a</I>,5<I>b</I>,8,8,11<I>a</I>-hexamethyl-1-prop-1-en-2-yl-1,2,3,4,5,6,7,7<I>a</I>,9,10,11,11<I>b</I>,12,13,13<I>a</I>,13<I>b</I>-hexadecahydrocyclopenta[a]chrysen-9-ol
> <PUBCHEM_IUPAC_NAME>
3a,5a,5b,8,8,11a-hexamethyl-1-prop-1-en-2-yl-1,2,3,4,5,6,7,7a,9,10,11,11b,12,13,13a,13b-hexadecahydrocyclopenta[a]chrysen-9-ol
> <PUBCHEM_IUPAC_SYSTEMATIC_NAME>
3a,5a,5b,8,8,11a-hexamethyl-1-prop-1-en-2-yl-1,2,3,4,5,6,7,7a,9,10,11,11b,12,13,13a,13b-hexadecahydrocyclopenta[a]chrysen-9-ol
> <PUBCHEM_IUPAC_TRADITIONAL_NAME>
1-isopropenyl-3a,5a,5b,8,8,11a-hexamethyl-1,2,3,4,5,6,7,7a,9,10,11,11b,12,13,13a,13b-hexadecahydrocyclopenta[a]chrysen-9-ol
> <PUBCHEM_IUPAC_INCHI>
InChI=1S/C30H50O/c1-19(2)20-11-14-27(5)17-18-29(7)21(25(20)27)9-10-23-28(6)15-13-24(31)26(3,4)22(28)12-16-30(23,29)8/h20-25,31H,1,9-18H2,2-8H3
> <PUBCHEM_IUPAC_INCHIKEY>
MQYXUWHLBZFQQO-UHFFFAOYSA-N
> <PUBCHEM_XLOGP3_AA>
9.9
> <PUBCHEM_EXACT_MASS>
426.386166214
> <PUBCHEM_MOLECULAR_FORMULA>
C30H50O
> <PUBCHEM_MOLECULAR_WEIGHT>
426.7
> <PUBCHEM_OPENEYE_CAN_SMILES>
CC(=C)C1CCC2(C1C3CCC4C5(CCC(C(C5CCC4(C3(CC2)C)C)(C)C)O)C)C
> <PUBCHEM_OPENEYE_ISO_SMILES>
CC(=C)C1CCC2(C1C3CCC4C5(CCC(C(C5CCC4(C3(CC2)C)C)(C)C)O)C)C
> <PUBCHEM_CACTVS_TPSA>
20.2
> <PUBCHEM_MONOISOTOPIC_WEIGHT>
426.386166214
> <PUBCHEM_TOTAL_CHARGE>
0
> <PUBCHEM_HEAVY_ATOM_COUNT>
31
> <PUBCHEM_ATOM_DEF_STEREO_COUNT>
0
> <PUBCHEM_ATOM_UDEF_STEREO_COUNT>
10
> <PUBCHEM_BOND_DEF_STEREO_COUNT>
0
> <PUBCHEM_BOND_UDEF_STEREO_COUNT>
0
> <PUBCHEM_ISOTOPIC_ATOM_COUNT>
0
> <PUBCHEM_COMPONENT_COUNT>
1
> <PUBCHEM_CACTVS_TAUTO_COUNT>
1
> <PUBCHEM_COORDINATE_TYPE>
1
5
255
> <PUBCHEM_BONDANNOTATIONS>
24  1  3
16  27  3
2  19  3
3  20  3
4  12  3
5  13  3
6  23  3
7  16  3
8  26  3
9  15  3
$$$$
