521533
  -OEChem-10302200292D
 29 29  0     1  0  0  0  0  0999 V2000
    3.7320    1.3170    0.0000 Si  0  0  0  0  0  0  0  0  0  0  0  0
    2.8660    0.8170    0.0000 O   0  0  0  0  0  0  0  0  0  0  0  0
    2.8660   -0.1830    0.0000 C   0  0  3  0  0  0  0  0  0  0  0  0
    2.0000   -0.6830    0.0000 C   0  0  0  0  0  0  0  0  0  0  0  0
    2.0000   -1.6830    0.0000 C   0  0  0  0  0  0  0  0  0  0  0  0
    2.8660   -2.1830    0.0000 C   0  0  0  0  0  0  0  0  0  0  0  0
    3.7320   -0.6830    0.0000 C   0  0  0  0  0  0  0  0  0  0  0  0
    3.7320   -1.6830    0.0000 C   0  0  0  0  0  0  0  0  0  0  0  0
    4.5981    1.8170    0.0000 C   0  0  0  0  0  0  0  0  0  0  0  0
    3.2320    2.1830    0.0000 C   0  0  0  0  0  0  0  0  0  0  0  0
    4.2320    0.4510    0.0000 C   0  0  0  0  0  0  0  0  0  0  0  0
    3.4030    0.1270    0.0000 H   0  0  0  0  0  0  0  0  0  0  0  0
    1.7880   -0.1004    0.0000 H   0  0  0  0  0  0  0  0  0  0  0  0
    1.3894   -0.7907    0.0000 H   0  0  0  0  0  0  0  0  0  0  0  0
    1.3894   -1.5754    0.0000 H   0  0  0  0  0  0  0  0  0  0  0  0
    1.7880   -2.2656    0.0000 H   0  0  0  0  0  0  0  0  0  0  0  0
    2.4675   -2.6580    0.0000 H   0  0  0  0  0  0  0  0  0  0  0  0
    3.2646   -2.6580    0.0000 H   0  0  0  0  0  0  0  0  0  0  0  0
    4.2690   -0.3730    0.0000 H   0  0  0  0  0  0  0  0  0  0  0  0
    4.2690   -1.9930    0.0000 H   0  0  0  0  0  0  0  0  0  0  0  0
    4.9081    1.2800    0.0000 H   0  0  0  0  0  0  0  0  0  0  0  0
    5.1350    2.1270    0.0000 H   0  0  0  0  0  0  0  0  0  0  0  0
    4.2881    2.3539    0.0000 H   0  0  0  0  0  0  0  0  0  0  0  0
    3.7690    2.4930    0.0000 H   0  0  0  0  0  0  0  0  0  0  0  0
    2.9220    2.7200    0.0000 H   0  0  0  0  0  0  0  0  0  0  0  0
    2.6951    1.8730    0.0000 H   0  0  0  0  0  0  0  0  0  0  0  0
    3.6951    0.1410    0.0000 H   0  0  0  0  0  0  0  0  0  0  0  0
    4.5420   -0.0860    0.0000 H   0  0  0  0  0  0  0  0  0  0  0  0
    4.7690    0.7610    0.0000 H   0  0  0  0  0  0  0  0  0  0  0  0
  1  2  1  0  0  0  0
  1  9  1  0  0  0  0
  1 10  1  0  0  0  0
  1 11  1  0  0  0  0
  2  3  1  0  0  0  0
  3  4  1  0  0  0  0
  3  7  1  0  0  0  0
  3 12  1  0  0  0  0
  4  5  1  0  0  0  0
  4 13  1  0  0  0  0
  4 14  1  0  0  0  0
  5  6  1  0  0  0  0
  5 15  1  0  0  0  0
  5 16  1  0  0  0  0
  6  8  1  0  0  0  0
  6 17  1  0  0  0  0
  6 18  1  0  0  0  0
  7  8  2  0  0  0  0
  7 19  1  0  0  0  0
  8 20  1  0  0  0  0
  9 21  1  0  0  0  0
  9 22  1  0  0  0  0
  9 23  1  0  0  0  0
 10 24  1  0  0  0  0
 10 25  1  0  0  0  0
 10 26  1  0  0  0  0
 11 27  1  0  0  0  0
 11 28  1  0  0  0  0
 11 29  1  0  0  0  0
M  END
> <PUBCHEM_COMPOUND_CID>
521533
> <PUBCHEM_COMPOUND_CANONICALIZED>
1
> <PUBCHEM_CACTVS_COMPLEXITY>
146
> <PUBCHEM_CACTVS_HBOND_ACCEPTOR>
1
> <PUBCHEM_CACTVS_HBOND_DONOR>
0
> <PUBCHEM_CACTVS_ROTATABLE_BOND>
2
> <PUBCHEM_CACTVS_SUBSKEYS>
AAADceBwIAgAAAAAAAAAAAAAAAAAAAAAAAAgAAAAAAAAAAAAAAAAGhAAAEAACBSggAJCAAAAAAGAACBCAAAAAAAgAAAICAAAAAgABAIAAQAAEAAEgAAIAAOAAAAAAAAAAAAAAAAAAAAAAAAAAAAAAAAAAA==
> <PUBCHEM_IUPAC_OPENEYE_NAME>
cyclohex-2-en-1-yloxy(trimethyl)silane
> <PUBCHEM_IUPAC_CAS_NAME>
1-cyclohex-2-enyloxy(trimethyl)silane
> <PUBCHEM_IUPAC_NAME_MARKUP>
cyclohex-2-en-1-yloxy(trimethyl)silane
> <PUBCHEM_IUPAC_NAME>
cyclohex-2-en-1-yloxy(trimethyl)silane
> <PUBCHEM_IUPAC_SYSTEMATIC_NAME>
cyclohex-2-en-1-yloxy(trimethyl)silane
> <PUBCHEM_IUPAC_TRADITIONAL_NAME>
cyclohex-2-en-1-yloxy(trimethyl)silane
> <PUBCHEM_IUPAC_INCHI>
InChI=1S/C9H18OSi/c1-11(2,3)10-9-7-5-4-6-8-9/h5,7,9H,4,6,8H2,1-3H3
> <PUBCHEM_IUPAC_INCHIKEY>
FKFGNRAGIVMYRD-UHFFFAOYSA-N
> <PUBCHEM_EXACT_MASS>
170.112691728
> <PUBCHEM_MOLECULAR_FORMULA>
C9H18OSi
> <PUBCHEM_MOLECULAR_WEIGHT>
170.32
> <PUBCHEM_OPENEYE_CAN_SMILES>
C[Si](C)(C)OC1CCCC=C1
> <PUBCHEM_OPENEYE_ISO_SMILES>
C[Si](C)(C)OC1CCCC=C1
> <PUBCHEM_CACTVS_TPSA>
9.2
> <PUBCHEM_MONOISOTOPIC_WEIGHT>
170.112691728
> <PUBCHEM_TOTAL_CHARGE>
0
> <PUBCHEM_HEAVY_ATOM_COUNT>
11
> <PUBCHEM_ATOM_DEF_STEREO_COUNT>
0
> <PUBCHEM_ATOM_UDEF_STEREO_COUNT>
1
> <PUBCHEM_BOND_DEF_STEREO_COUNT>
0
> <PUBCHEM_BOND_UDEF_STEREO_COUNT>
0
> <PUBCHEM_ISOTOPIC_ATOM_COUNT>
0
> <PUBCHEM_COMPONENT_COUNT>
1
> <PUBCHEM_CACTVS_TAUTO_COUNT>
1
> <PUBCHEM_COORDINATE_TYPE>
1
5
255
> <PUBCHEM_BONDANNOTATIONS>
3  2  3
$$$$
