521610
  -OEChem-10302200292D
 48 51  0     1  0  0  0  0  0999 V2000
    5.8324   -1.8079    0.0000 O   0  0  0  0  0  0  0  0  0  0  0  0
    5.2229    0.7151    0.0000 O   0  0  0  0  0  0  0  0  0  0  0  0
    2.6248    0.2151    0.0000 O   0  0  0  0  0  0  0  0  0  0  0  0
    3.7806   -0.2081    0.0000 O   0  0  0  0  0  0  0  0  0  0  0  0
    2.0000   -2.1169    0.0000 O   0  0  0  0  0  0  0  0  0  0  0  0
    4.0487   -1.0336    0.0000 O   0  0  0  0  0  0  0  0  0  0  0  0
    4.5661    3.1869    0.0000 N   0  0  3  0  0  0  0  0  0  0  0  0
    4.3569    2.2151    0.0000 C   0  0  3  0  0  0  0  0  0  0  0  0
    5.0391   -1.1992    0.0000 C   0  0  3  0  0  0  0  0  0  0  0  0
    5.2229    1.7151    0.0000 C   0  0  3  0  0  0  0  0  0  0  0  0
    5.9629   -0.8165    0.0000 C   0  0  3  0  0  0  0  0  0  0  0  0
    5.9599    2.3821    0.0000 C   0  0  0  0  0  0  0  0  0  0  0  0
    5.5548    3.2899    0.0000 C   0  0  0  0  0  0  0  0  0  0  0  0
    3.4909    1.7151    0.0000 C   0  0  0  0  0  0  0  0  0  0  0  0
    4.5391   -2.0652    0.0000 C   0  0  0  0  0  0  0  0  0  0  0  0
    5.0705    2.3140    0.0000 C   0  0  0  0  0  0  0  0  0  0  0  0
    4.7802   -0.2332    0.0000 C   0  0  0  0  0  0  0  0  0  0  0  0
    4.4758    1.4999    0.0000 C   0  0  0  0  0  0  0  0  0  0  0  0
    6.5717   -0.0231    0.0000 C   0  0  0  0  0  0  0  0  0  0  0  0
    3.5731   -2.3240    0.0000 C   0  0  0  0  0  0  0  0  0  0  0  0
    3.4909    0.7151    0.0000 C   0  0  0  0  0  0  0  0  0  0  0  0
    2.8660   -1.6169    0.0000 C   0  0  3  0  0  0  0  0  0  0  0  0
    3.1248   -0.6510    0.0000 C   0  0  0  0  0  0  0  0  0  0  0  0
    2.0000   -1.1168    0.0000 C   0  0  0  0  0  0  0  0  0  0  0  0
    3.3143   -3.2899    0.0000 C   0  0  0  0  0  0  0  0  0  0  0  0
    3.6699    2.7156    0.0000 H   0  0  0  0  0  0  0  0  0  0  0  0
    5.9999    1.3703    0.0000 H   0  0  0  0  0  0  0  0  0  0  0  0
    6.7482   -1.1418    0.0000 H   0  0  0  0  0  0  0  0  0  0  0  0
    6.3254    1.8813    0.0000 H   0  0  0  0  0  0  0  0  0  0  0  0
    6.4964    2.6929    0.0000 H   0  0  0  0  0  0  0  0  0  0  0  0
    6.1444    3.4817    0.0000 H   0  0  0  0  0  0  0  0  0  0  0  0
    5.4261    3.8964    0.0000 H   0  0  0  0  0  0  0  0  0  0  0  0
    4.5391   -2.6852    0.0000 H   0  0  0  0  0  0  0  0  0  0  0  0
    5.1379   -2.2256    0.0000 H   0  0  0  0  0  0  0  0  0  0  0  0
    5.5158    1.8826    0.0000 H   0  0  0  0  0  0  0  0  0  0  0  0
    5.5593    2.6954    0.0000 H   0  0  0  0  0  0  0  0  0  0  0  0
    4.6956    0.9202    0.0000 H   0  0  0  0  0  0  0  0  0  0  0  0
    7.0636   -0.4006    0.0000 H   0  0  0  0  0  0  0  0  0  0  0  0
    6.9491    0.4688    0.0000 H   0  0  0  0  0  0  0  0  0  0  0  0
    6.0798    0.3543    0.0000 H   0  0  0  0  0  0  0  0  0  0  0  0
    3.7029    0.1324    0.0000 H   0  0  0  0  0  0  0  0  0  0  0  0
    4.1014    0.8227    0.0000 H   0  0  0  0  0  0  0  0  0  0  0  0
    2.3101   -0.5799    0.0000 H   0  0  0  0  0  0  0  0  0  0  0  0
    1.4632   -0.8068    0.0000 H   0  0  0  0  0  0  0  0  0  0  0  0
    1.6900   -1.6537    0.0000 H   0  0  0  0  0  0  0  0  0  0  0  0
    2.7154   -3.4504    0.0000 H   0  0  0  0  0  0  0  0  0  0  0  0
    3.7527   -3.7283    0.0000 H   0  0  0  0  0  0  0  0  0  0  0  0
    2.0000   -2.7369    0.0000 H   0  0  0  0  0  0  0  0  0  0  0  0
  1  9  1  0  0  0  0
  1 11  1  0  0  0  0
  2 10  1  0  0  0  0
  2 17  1  0  0  0  0
  3 21  1  0  0  0  0
  3 23  1  0  0  0  0
  4 17  2  0  0  0  0
  5 22  1  0  0  0  0
  5 48  1  0  0  0  0
  6 23  2  0  0  0  0
  7  8  1  0  0  0  0
  7 13  1  0  0  0  0
  7 16  1  0  0  0  0
  8 10  1  0  0  0  0
  8 14  1  0  0  0  0
  8 26  1  0  0  0  0
  9 11  1  0  0  0  0
  9 15  1  0  0  0  0
  9 17  1  0  0  0  0
 10 12  1  0  0  0  0
 10 27  1  0  0  0  0
 11 19  1  0  0  0  0
 11 28  1  0  0  0  0
 12 13  1  0  0  0  0
 12 29  1  0  0  0  0
 12 30  1  0  0  0  0
 13 31  1  0  0  0  0
 13 32  1  0  0  0  0
 14 18  2  0  0  0  0
 14 21  1  0  0  0  0
 15 20  1  0  0  0  0
 15 33  1  0  0  0  0
 15 34  1  0  0  0  0
 16 18  1  0  0  0  0
 16 35  1  0  0  0  0
 16 36  1  0  0  0  0
 18 37  1  0  0  0  0
 19 38  1  0  0  0  0
 19 39  1  0  0  0  0
 19 40  1  0  0  0  0
 20 22  1  0  0  0  0
 20 25  2  0  0  0  0
 21 41  1  0  0  0  0
 21 42  1  0  0  0  0
 22 23  1  0  0  0  0
 22 24  1  0  0  0  0
 24 43  1  0  0  0  0
 24 44  1  0  0  0  0
 24 45  1  0  0  0  0
 25 46  1  0  0  0  0
 25 47  1  0  0  0  0
M  END
> <PUBCHEM_COMPOUND_CID>
521610
> <PUBCHEM_COMPOUND_CANONICALIZED>
1
> <PUBCHEM_CACTVS_COMPLEXITY>
687
> <PUBCHEM_CACTVS_HBOND_ACCEPTOR>
7
> <PUBCHEM_CACTVS_HBOND_DONOR>
1
> <PUBCHEM_CACTVS_ROTATABLE_BOND>
0
> <PUBCHEM_CACTVS_SUBSKEYS>
AAADceB6OAAAAAAAAAAAAAAAEgAAAWIAAAAAAAAAAAAQAAAAAAAAHgAACAAADHzhgAYCCAMABgCIAiDSCAKAAAAgAAAACAFIAAgDBBYAoQQHUAAH4ACbMAPY7HzOAAAAAAAAAAAAAAAAAAAAAAAAAAAAAA==
> <PUBCHEM_IUPAC_OPENEYE_NAME>
7-hydroxy-3',7-dimethyl-6-methylene-spiro[2,9-dioxa-14-azatricyclo[9.5.1.014,17]heptadec-11-ene-4,2'-oxirane]-3,8-dione
> <PUBCHEM_IUPAC_CAS_NAME>
7-hydroxy-3',7-dimethyl-6-methylenespiro[2,9-dioxa-14-azatricyclo[9.5.1.014,17]heptadec-11-ene-4,2'-oxirane]-3,8-dione
> <PUBCHEM_IUPAC_NAME_MARKUP>
7-hydroxy-3&apos;,7-dimethyl-6-methylidenespiro[2,9-dioxa-14-azatricyclo[9.5.1.0<SUP>14,17</SUP>]heptadec-11-ene-4,2&apos;-oxirane]-3,8-dione
> <PUBCHEM_IUPAC_NAME>
7-hydroxy-3',7-dimethyl-6-methylidenespiro[2,9-dioxa-14-azatricyclo[9.5.1.014,17]heptadec-11-ene-4,2'-oxirane]-3,8-dione
> <PUBCHEM_IUPAC_SYSTEMATIC_NAME>
3',7-dimethyl-6-methylidene-7-oxidanyl-spiro[2,9-dioxa-14-azatricyclo[9.5.1.014,17]heptadec-11-ene-4,2'-oxirane]-3,8-dione
> <PUBCHEM_IUPAC_TRADITIONAL_NAME>
7-hydroxy-3',7-dimethyl-6-methylene-spiro[2,9-dioxa-14-azatricyclo[9.5.1.014,17]heptadec-11-ene-4,2'-oxirane]-3,8-quinone
> <PUBCHEM_IUPAC_INCHI>
InChI=1S/C18H23NO6/c1-10-8-18(11(2)25-18)16(21)24-13-5-7-19-6-4-12(14(13)19)9-23-15(20)17(10,3)22/h4,11,13-14,22H,1,5-9H2,2-3H3
> <PUBCHEM_IUPAC_INCHIKEY>
XCEPKQNOWNOSFH-UHFFFAOYSA-N
> <PUBCHEM_XLOGP3_AA>
-0.2
> <PUBCHEM_EXACT_MASS>
349.15253745
> <PUBCHEM_MOLECULAR_FORMULA>
C18H23NO6
> <PUBCHEM_MOLECULAR_WEIGHT>
349.4
> <PUBCHEM_OPENEYE_CAN_SMILES>
CC1C2(O1)CC(=C)C(C(=O)OCC3=CCN4C3C(CC4)OC2=O)(C)O
> <PUBCHEM_OPENEYE_ISO_SMILES>
CC1C2(O1)CC(=C)C(C(=O)OCC3=CCN4C3C(CC4)OC2=O)(C)O
> <PUBCHEM_CACTVS_TPSA>
88.6
> <PUBCHEM_MONOISOTOPIC_WEIGHT>
349.15253745
> <PUBCHEM_TOTAL_CHARGE>
0
> <PUBCHEM_HEAVY_ATOM_COUNT>
25
> <PUBCHEM_ATOM_DEF_STEREO_COUNT>
0
> <PUBCHEM_ATOM_UDEF_STEREO_COUNT>
5
> <PUBCHEM_BOND_DEF_STEREO_COUNT>
0
> <PUBCHEM_BOND_UDEF_STEREO_COUNT>
0
> <PUBCHEM_ISOTOPIC_ATOM_COUNT>
0
> <PUBCHEM_COMPONENT_COUNT>
1
> <PUBCHEM_CACTVS_TAUTO_COUNT>
1
> <PUBCHEM_COORDINATE_TYPE>
1
5
255
> <PUBCHEM_BONDANNOTATIONS>
10  27  3
11  28  3
22  5  3
8  26  3
9  15  3
$$$$
