521614
  -OEChem-10302200292D
 16 15  0     1  0  0  0  0  0999 V2000
    7.7331   -0.2500    0.0000 Cl  0  0  0  0  0  0  0  0  0  0  0  0
    5.1350    0.2500    0.0000 O   0  0  0  0  0  0  0  0  0  0  0  0
    6.0010   -1.2500    0.0000 O   0  0  0  0  0  0  0  0  0  0  0  0
    6.8671    0.2500    0.0000 C   0  0  3  0  0  0  0  0  0  0  0  0
    6.8671    1.2500    0.0000 C   0  0  0  0  0  0  0  0  0  0  0  0
    6.0010   -0.2500    0.0000 C   0  0  0  0  0  0  0  0  0  0  0  0
    4.2690   -0.2500    0.0000 C   0  0  0  0  0  0  0  0  0  0  0  0
    3.4030    0.2500    0.0000 C   0  0  0  0  0  0  0  0  0  0  0  0
    2.5369    0.7500    0.0000 C   0  0  0  0  0  0  0  0  0  0  0  0
    7.6032    0.6750    0.0000 H   0  0  0  0  0  0  0  0  0  0  0  0
    7.4871    1.2500    0.0000 H   0  0  0  0  0  0  0  0  0  0  0  0
    6.8671    1.8700    0.0000 H   0  0  0  0  0  0  0  0  0  0  0  0
    6.2471    1.2500    0.0000 H   0  0  0  0  0  0  0  0  0  0  0  0
    3.8705   -0.7249    0.0000 H   0  0  0  0  0  0  0  0  0  0  0  0
    4.6675   -0.7249    0.0000 H   0  0  0  0  0  0  0  0  0  0  0  0
    2.0000    1.0600    0.0000 H   0  0  0  0  0  0  0  0  0  0  0  0
  1  4  1  0  0  0  0
  2  6  1  0  0  0  0
  2  7  1  0  0  0  0
  3  6  2  0  0  0  0
  4  5  1  0  0  0  0
  4  6  1  0  0  0  0
  4 10  1  0  0  0  0
  5 11  1  0  0  0  0
  5 12  1  0  0  0  0
  5 13  1  0  0  0  0
  7  8  1  0  0  0  0
  7 14  1  0  0  0  0
  7 15  1  0  0  0  0
  8  9  3  0  0  0  0
  9 16  1  0  0  0  0
M  END
> <PUBCHEM_COMPOUND_CID>
521614
> <PUBCHEM_COMPOUND_CANONICALIZED>
1
> <PUBCHEM_CACTVS_COMPLEXITY>
144
> <PUBCHEM_CACTVS_HBOND_ACCEPTOR>
2
> <PUBCHEM_CACTVS_HBOND_DONOR>
0
> <PUBCHEM_CACTVS_ROTATABLE_BOND>
3
> <PUBCHEM_CACTVS_SUBSKEYS>
AAADcYBgMAAEAAAAAAAAAAAAAAAAAAAAAAAAAAAAAAAAAAAAAAAAGgIAAAAACAOggEICCAAABABIGACQCAAAAAAAAAAAAAEAAQBAAAAAAAACAAAAAAAAAAAAAAAAAAAAAAAAAAAAAAAAAAAAAAAAAAAAAA==
> <PUBCHEM_IUPAC_OPENEYE_NAME>
prop-2-ynyl 2-chloropropanoate
> <PUBCHEM_IUPAC_CAS_NAME>
2-chloropropanoic acid prop-2-ynyl ester
> <PUBCHEM_IUPAC_NAME_MARKUP>
prop-2-ynyl 2-chloropropanoate
> <PUBCHEM_IUPAC_NAME>
prop-2-ynyl 2-chloropropanoate
> <PUBCHEM_IUPAC_SYSTEMATIC_NAME>
prop-2-ynyl 2-chloranylpropanoate
> <PUBCHEM_IUPAC_TRADITIONAL_NAME>
2-chloropropionic acid propargyl ester
> <PUBCHEM_IUPAC_INCHI>
InChI=1S/C6H7ClO2/c1-3-4-9-6(8)5(2)7/h1,5H,4H2,2H3
> <PUBCHEM_IUPAC_INCHIKEY>
IOJGKOMZXQERIZ-UHFFFAOYSA-N
> <PUBCHEM_XLOGP3_AA>
1.3
> <PUBCHEM_EXACT_MASS>
146.0134572
> <PUBCHEM_MOLECULAR_FORMULA>
C6H7ClO2
> <PUBCHEM_MOLECULAR_WEIGHT>
146.57
> <PUBCHEM_OPENEYE_CAN_SMILES>
CC(C(=O)OCC#C)Cl
> <PUBCHEM_OPENEYE_ISO_SMILES>
CC(C(=O)OCC#C)Cl
> <PUBCHEM_CACTVS_TPSA>
26.3
> <PUBCHEM_MONOISOTOPIC_WEIGHT>
146.0134572
> <PUBCHEM_TOTAL_CHARGE>
0
> <PUBCHEM_HEAVY_ATOM_COUNT>
9
> <PUBCHEM_ATOM_DEF_STEREO_COUNT>
0
> <PUBCHEM_ATOM_UDEF_STEREO_COUNT>
1
> <PUBCHEM_BOND_DEF_STEREO_COUNT>
0
> <PUBCHEM_BOND_UDEF_STEREO_COUNT>
0
> <PUBCHEM_ISOTOPIC_ATOM_COUNT>
0
> <PUBCHEM_COMPONENT_COUNT>
1
> <PUBCHEM_CACTVS_TAUTO_COUNT>
1
> <PUBCHEM_COORDINATE_TYPE>
1
5
255
> <PUBCHEM_BONDANNOTATIONS>
4  10  3
$$$$
