521651
  -OEChem-10302200292D
 47 48  0     1  0  0  0  0  0999 V2000
    2.5369   -0.0670    0.0000 O   0  0  0  0  0  0  0  0  0  0  0  0
    4.2690   -0.0670    0.0000 C   0  0  3  0  0  0  0  0  0  0  0  0
    5.1350   -1.5670    0.0000 C   0  0  3  0  0  0  0  0  0  0  0  0
    4.2690    0.9330    0.0000 C   0  0  0  0  0  0  0  0  0  0  0  0
    5.1350   -0.5670    0.0000 C   0  0  0  0  0  0  0  0  0  0  0  0
    3.4030   -0.5670    0.0000 C   0  0  3  0  0  0  0  0  0  0  0  0
    4.2690   -2.0670    0.0000 C   0  0  0  0  0  0  0  0  0  0  0  0
    6.0010   -2.0670    0.0000 C   0  0  0  0  0  0  0  0  0  0  0  0
    3.4030   -1.5670    0.0000 C   0  0  0  0  0  0  0  0  0  0  0  0
    5.1350    1.4330    0.0000 C   0  0  0  0  0  0  0  0  0  0  0  0
    3.4030    1.4330    0.0000 C   0  0  0  0  0  0  0  0  0  0  0  0
    5.1350    2.4330    0.0000 C   0  0  0  0  0  0  0  0  0  0  0  0
    3.4030    2.4330    0.0000 C   0  0  0  0  0  0  0  0  0  0  0  0
    4.2690    2.9330    0.0000 C   0  0  0  0  0  0  0  0  0  0  0  0
    6.8671   -2.5670    0.0000 C   0  0  0  0  0  0  0  0  0  0  0  0
    5.5010   -2.9330    0.0000 C   0  0  0  0  0  0  0  0  0  0  0  0
    6.5010   -1.2010    0.0000 C   0  0  0  0  0  0  0  0  0  0  0  0
    4.8059    0.2430    0.0000 H   0  0  0  0  0  0  0  0  0  0  0  0
    5.1350   -2.1870    0.0000 H   0  0  0  0  0  0  0  0  0  0  0  0
    3.7320    0.6230    0.0000 H   0  0  0  0  0  0  0  0  0  0  0  0
    5.7456   -0.6746    0.0000 H   0  0  0  0  0  0  0  0  0  0  0  0
    5.3471    0.0156    0.0000 H   0  0  0  0  0  0  0  0  0  0  0  0
    3.4030    0.0530    0.0000 H   0  0  0  0  0  0  0  0  0  0  0  0
    3.8705   -2.5419    0.0000 H   0  0  0  0  0  0  0  0  0  0  0  0
    4.6675   -2.5419    0.0000 H   0  0  0  0  0  0  0  0  0  0  0  0
    2.7924   -1.4593    0.0000 H   0  0  0  0  0  0  0  0  0  0  0  0
    3.1909   -2.1496    0.0000 H   0  0  0  0  0  0  0  0  0  0  0  0
    5.3471    0.8504    0.0000 H   0  0  0  0  0  0  0  0  0  0  0  0
    5.7456    1.5407    0.0000 H   0  0  0  0  0  0  0  0  0  0  0  0
    2.7924    1.5407    0.0000 H   0  0  0  0  0  0  0  0  0  0  0  0
    3.1909    0.8504    0.0000 H   0  0  0  0  0  0  0  0  0  0  0  0
    5.7456    2.3253    0.0000 H   0  0  0  0  0  0  0  0  0  0  0  0
    5.3471    3.0156    0.0000 H   0  0  0  0  0  0  0  0  0  0  0  0
    3.1909    3.0156    0.0000 H   0  0  0  0  0  0  0  0  0  0  0  0
    2.7924    2.3253    0.0000 H   0  0  0  0  0  0  0  0  0  0  0  0
    4.6675    3.4080    0.0000 H   0  0  0  0  0  0  0  0  0  0  0  0
    3.8705    3.4080    0.0000 H   0  0  0  0  0  0  0  0  0  0  0  0
    6.5571   -3.1039    0.0000 H   0  0  0  0  0  0  0  0  0  0  0  0
    7.4040   -2.8770    0.0000 H   0  0  0  0  0  0  0  0  0  0  0  0
    7.1771   -2.0300    0.0000 H   0  0  0  0  0  0  0  0  0  0  0  0
    4.9641   -2.6230    0.0000 H   0  0  0  0  0  0  0  0  0  0  0  0
    5.1910   -3.4700    0.0000 H   0  0  0  0  0  0  0  0  0  0  0  0
    6.0380   -3.2430    0.0000 H   0  0  0  0  0  0  0  0  0  0  0  0
    7.0380   -1.5110    0.0000 H   0  0  0  0  0  0  0  0  0  0  0  0
    6.8110   -0.6640    0.0000 H   0  0  0  0  0  0  0  0  0  0  0  0
    5.9641   -0.8910    0.0000 H   0  0  0  0  0  0  0  0  0  0  0  0
    2.0000   -0.3770    0.0000 H   0  0  0  0  0  0  0  0  0  0  0  0
  1  6  1  0  0  0  0
  1 47  1  0  0  0  0
  2  4  1  0  0  0  0
  2  5  1  0  0  0  0
  2  6  1  0  0  0  0
  2 18  1  0  0  0  0
  3  5  1  0  0  0  0
  3  7  1  0  0  0  0
  3  8  1  0  0  0  0
  3 19  1  0  0  0  0
  4 10  1  0  0  0  0
  4 11  1  0  0  0  0
  4 20  1  0  0  0  0
  5 21  1  0  0  0  0
  5 22  1  0  0  0  0
  6  9  1  0  0  0  0
  6 23  1  0  0  0  0
  7  9  1  0  0  0  0
  7 24  1  0  0  0  0
  7 25  1  0  0  0  0
  8 15  1  0  0  0  0
  8 16  1  0  0  0  0
  8 17  1  0  0  0  0
  9 26  1  0  0  0  0
  9 27  1  0  0  0  0
 10 12  1  0  0  0  0
 10 28  1  0  0  0  0
 10 29  1  0  0  0  0
 11 13  1  0  0  0  0
 11 30  1  0  0  0  0
 11 31  1  0  0  0  0
 12 14  1  0  0  0  0
 12 32  1  0  0  0  0
 12 33  1  0  0  0  0
 13 14  1  0  0  0  0
 13 34  1  0  0  0  0
 13 35  1  0  0  0  0
 14 36  1  0  0  0  0
 14 37  1  0  0  0  0
 15 38  1  0  0  0  0
 15 39  1  0  0  0  0
 15 40  1  0  0  0  0
 16 41  1  0  0  0  0
 16 42  1  0  0  0  0
 16 43  1  0  0  0  0
 17 44  1  0  0  0  0
 17 45  1  0  0  0  0
 17 46  1  0  0  0  0
M  END
> <PUBCHEM_COMPOUND_CID>
521651
> <PUBCHEM_COMPOUND_CANONICALIZED>
1
> <PUBCHEM_CACTVS_COMPLEXITY>
234
> <PUBCHEM_CACTVS_HBOND_ACCEPTOR>
1
> <PUBCHEM_CACTVS_HBOND_DONOR>
1
> <PUBCHEM_CACTVS_ROTATABLE_BOND>
2
> <PUBCHEM_CACTVS_SUBSKEYS>
AAADceB4IAAAAAAAAAAAAAAAAAAAAAAAAAAwYAAAAAAAAAAAAAAAGgAACAAADxSggAICAAAAAgAAAAAAAAAAAAAAAAAAAAAAAAAAEAIAAAAAQAAEAAAAAAGAwPAPgAAAAAAAAABAAAQAABAAAAAAAAAAAA==
> <PUBCHEM_IUPAC_OPENEYE_NAME>
4-tert-butyl-2-cyclohexyl-cyclohexanol
> <PUBCHEM_IUPAC_CAS_NAME>
4-tert-butyl-2-cyclohexyl-1-cyclohexanol
> <PUBCHEM_IUPAC_NAME_MARKUP>
4-<I>tert</I>-butyl-2-cyclohexylcyclohexan-1-ol
> <PUBCHEM_IUPAC_NAME>
4-tert-butyl-2-cyclohexylcyclohexan-1-ol
> <PUBCHEM_IUPAC_SYSTEMATIC_NAME>
4-tert-butyl-2-cyclohexyl-cyclohexan-1-ol
> <PUBCHEM_IUPAC_TRADITIONAL_NAME>
4-tert-butyl-2-cyclohexyl-cyclohexanol
> <PUBCHEM_IUPAC_INCHI>
InChI=1S/C16H30O/c1-16(2,3)13-9-10-15(17)14(11-13)12-7-5-4-6-8-12/h12-15,17H,4-11H2,1-3H3
> <PUBCHEM_IUPAC_INCHIKEY>
MWLJRXJLIWTESD-UHFFFAOYSA-N
> <PUBCHEM_XLOGP3_AA>
5.4
> <PUBCHEM_EXACT_MASS>
238.229665576
> <PUBCHEM_MOLECULAR_FORMULA>
C16H30O
> <PUBCHEM_MOLECULAR_WEIGHT>
238.41
> <PUBCHEM_OPENEYE_CAN_SMILES>
CC(C)(C)C1CCC(C(C1)C2CCCCC2)O
> <PUBCHEM_OPENEYE_ISO_SMILES>
CC(C)(C)C1CCC(C(C1)C2CCCCC2)O
> <PUBCHEM_CACTVS_TPSA>
20.2
> <PUBCHEM_MONOISOTOPIC_WEIGHT>
238.229665576
> <PUBCHEM_TOTAL_CHARGE>
0
> <PUBCHEM_HEAVY_ATOM_COUNT>
17
> <PUBCHEM_ATOM_DEF_STEREO_COUNT>
0
> <PUBCHEM_ATOM_UDEF_STEREO_COUNT>
3
> <PUBCHEM_BOND_DEF_STEREO_COUNT>
0
> <PUBCHEM_BOND_UDEF_STEREO_COUNT>
0
> <PUBCHEM_ISOTOPIC_ATOM_COUNT>
0
> <PUBCHEM_COMPONENT_COUNT>
1
> <PUBCHEM_CACTVS_TAUTO_COUNT>
1
> <PUBCHEM_COORDINATE_TYPE>
1
5
255
> <PUBCHEM_BONDANNOTATIONS>
6  1  3
2  4  3
3  8  3
$$$$
