521646
  -OEChem-10302200292D
 54 53  0     1  0  0  0  0  0999 V2000
    3.0000    1.7500    0.0000 Si  0  0  0  0  0  0  0  0  0  0  0  0
    7.3301    2.2500    0.0000 Si  0  0  0  0  0  0  0  0  0  0  0  0
    3.0000   -2.2500    0.0000 Si  0  0  0  0  0  0  0  0  0  0  0  0
    3.8660    2.2500    0.0000 O   0  0  0  0  0  0  0  0  0  0  0  0
    6.4641    1.7500    0.0000 O   0  0  0  0  0  0  0  0  0  0  0  0
    3.0000   -1.2500    0.0000 O   0  0  0  0  0  0  0  0  0  0  0  0
    5.5981    3.2500    0.0000 O   0  0  0  0  0  0  0  0  0  0  0  0
    4.7320   -1.2500    0.0000 O   0  0  0  0  0  0  0  0  0  0  0  0
    4.7320    1.7500    0.0000 C   0  0  3  0  0  0  0  0  0  0  0  0
    4.7320    0.7500    0.0000 C   0  0  0  0  0  0  0  0  0  0  0  0
    3.8660    0.2500    0.0000 C   0  0  0  0  0  0  0  0  0  0  0  0
    5.5981    2.2500    0.0000 C   0  0  0  0  0  0  0  0  0  0  0  0
    2.1340    1.2500    0.0000 C   0  0  0  0  0  0  0  0  0  0  0  0
    2.5000    2.6160    0.0000 C   0  0  0  0  0  0  0  0  0  0  0  0
    3.5000    0.8840    0.0000 C   0  0  0  0  0  0  0  0  0  0  0  0
    3.8660   -0.7500    0.0000 C   0  0  0  0  0  0  0  0  0  0  0  0
    8.1962    2.7500    0.0000 C   0  0  0  0  0  0  0  0  0  0  0  0
    7.8301    1.3840    0.0000 C   0  0  0  0  0  0  0  0  0  0  0  0
    6.8301    3.1160    0.0000 C   0  0  0  0  0  0  0  0  0  0  0  0
    3.0000   -3.2500    0.0000 C   0  0  0  0  0  0  0  0  0  0  0  0
    2.0000   -2.2500    0.0000 C   0  0  0  0  0  0  0  0  0  0  0  0
    4.0000   -2.2500    0.0000 C   0  0  0  0  0  0  0  0  0  0  0  0
    4.7320    2.3700    0.0000 H   0  0  0  0  0  0  0  0  0  0  0  0
    4.9441    0.1674    0.0000 H   0  0  0  0  0  0  0  0  0  0  0  0
    5.3426    0.8577    0.0000 H   0  0  0  0  0  0  0  0  0  0  0  0
    3.6540    0.8326    0.0000 H   0  0  0  0  0  0  0  0  0  0  0  0
    3.2554    0.1423    0.0000 H   0  0  0  0  0  0  0  0  0  0  0  0
    1.8240    1.7869    0.0000 H   0  0  0  0  0  0  0  0  0  0  0  0
    1.5970    0.9400    0.0000 H   0  0  0  0  0  0  0  0  0  0  0  0
    2.4440    0.7131    0.0000 H   0  0  0  0  0  0  0  0  0  0  0  0
    3.0369    2.9260    0.0000 H   0  0  0  0  0  0  0  0  0  0  0  0
    2.1900    3.1530    0.0000 H   0  0  0  0  0  0  0  0  0  0  0  0
    1.9631    2.3060    0.0000 H   0  0  0  0  0  0  0  0  0  0  0  0
    2.9631    0.5740    0.0000 H   0  0  0  0  0  0  0  0  0  0  0  0
    3.8100    0.3470    0.0000 H   0  0  0  0  0  0  0  0  0  0  0  0
    4.0369    1.1940    0.0000 H   0  0  0  0  0  0  0  0  0  0  0  0
    8.5062    2.2131    0.0000 H   0  0  0  0  0  0  0  0  0  0  0  0
    8.7331    3.0600    0.0000 H   0  0  0  0  0  0  0  0  0  0  0  0
    7.8862    3.2869    0.0000 H   0  0  0  0  0  0  0  0  0  0  0  0
    7.2932    1.0740    0.0000 H   0  0  0  0  0  0  0  0  0  0  0  0
    8.1401    0.8470    0.0000 H   0  0  0  0  0  0  0  0  0  0  0  0
    8.3671    1.6940    0.0000 H   0  0  0  0  0  0  0  0  0  0  0  0
    7.3671    3.4260    0.0000 H   0  0  0  0  0  0  0  0  0  0  0  0
    6.5201    3.6530    0.0000 H   0  0  0  0  0  0  0  0  0  0  0  0
    6.2932    2.8060    0.0000 H   0  0  0  0  0  0  0  0  0  0  0  0
    2.3800   -3.2500    0.0000 H   0  0  0  0  0  0  0  0  0  0  0  0
    3.0000   -3.8700    0.0000 H   0  0  0  0  0  0  0  0  0  0  0  0
    3.6200   -3.2500    0.0000 H   0  0  0  0  0  0  0  0  0  0  0  0
    2.0000   -1.6300    0.0000 H   0  0  0  0  0  0  0  0  0  0  0  0
    1.3800   -2.2500    0.0000 H   0  0  0  0  0  0  0  0  0  0  0  0
    2.0000   -2.8700    0.0000 H   0  0  0  0  0  0  0  0  0  0  0  0
    4.0000   -2.8700    0.0000 H   0  0  0  0  0  0  0  0  0  0  0  0
    4.6200   -2.2500    0.0000 H   0  0  0  0  0  0  0  0  0  0  0  0
    4.0000   -1.6300    0.0000 H   0  0  0  0  0  0  0  0  0  0  0  0
  1  4  1  0  0  0  0
  1 13  1  0  0  0  0
  1 14  1  0  0  0  0
  1 15  1  0  0  0  0
  2  5  1  0  0  0  0
  2 17  1  0  0  0  0
  2 18  1  0  0  0  0
  2 19  1  0  0  0  0
  3  6  1  0  0  0  0
  3 20  1  0  0  0  0
  3 21  1  0  0  0  0
  3 22  1  0  0  0  0
  4  9  1  0  0  0  0
  5 12  1  0  0  0  0
  6 16  1  0  0  0  0
  7 12  2  0  0  0  0
  8 16  2  0  0  0  0
  9 10  1  0  0  0  0
  9 12  1  0  0  0  0
  9 23  1  0  0  0  0
 10 11  1  0  0  0  0
 10 24  1  0  0  0  0
 10 25  1  0  0  0  0
 11 16  1  0  0  0  0
 11 26  1  0  0  0  0
 11 27  1  0  0  0  0
 13 28  1  0  0  0  0
 13 29  1  0  0  0  0
 13 30  1  0  0  0  0
 14 31  1  0  0  0  0
 14 32  1  0  0  0  0
 14 33  1  0  0  0  0
 15 34  1  0  0  0  0
 15 35  1  0  0  0  0
 15 36  1  0  0  0  0
 17 37  1  0  0  0  0
 17 38  1  0  0  0  0
 17 39  1  0  0  0  0
 18 40  1  0  0  0  0
 18 41  1  0  0  0  0
 18 42  1  0  0  0  0
 19 43  1  0  0  0  0
 19 44  1  0  0  0  0
 19 45  1  0  0  0  0
 20 46  1  0  0  0  0
 20 47  1  0  0  0  0
 20 48  1  0  0  0  0
 21 49  1  0  0  0  0
 21 50  1  0  0  0  0
 21 51  1  0  0  0  0
 22 52  1  0  0  0  0
 22 53  1  0  0  0  0
 22 54  1  0  0  0  0
M  END
> <PUBCHEM_COMPOUND_CID>
521646
> <PUBCHEM_COMPOUND_CANONICALIZED>
1
> <PUBCHEM_CACTVS_COMPLEXITY>
391
> <PUBCHEM_CACTVS_HBOND_ACCEPTOR>
5
> <PUBCHEM_CACTVS_HBOND_DONOR>
0
> <PUBCHEM_CACTVS_ROTATABLE_BOND>
10
> <PUBCHEM_CACTVS_SUBSKEYS>
AAADcfBwOAwAAAAAAAAAAAAAAAAAAAAAAAAAAAAAAAAAAAAAAAAAGhAAAEAACBSggAJCCAAAAAEIAACQCAIAAAAAAAAAAAFAAAABABIAAAAAAAAEAAAAAADKJgAAAAAAAAAAAAAAAAAAAAAAAAAAAAAAAA==
> <PUBCHEM_IUPAC_OPENEYE_NAME>
bis(trimethylsilyl) 2-trimethylsilyloxypentanedioate
> <PUBCHEM_IUPAC_CAS_NAME>
2-trimethylsilyloxypentanedioic acid bis(trimethylsilyl) ester
> <PUBCHEM_IUPAC_NAME_MARKUP>
bis(trimethylsilyl) 2-trimethylsilyloxypentanedioate
> <PUBCHEM_IUPAC_NAME>
bis(trimethylsilyl) 2-trimethylsilyloxypentanedioate
> <PUBCHEM_IUPAC_SYSTEMATIC_NAME>
bis(trimethylsilyl) 2-trimethylsilyloxypentanedioate
> <PUBCHEM_IUPAC_TRADITIONAL_NAME>
2-trimethylsilyloxyglutaric acid bis(trimethylsilyl) ester
> <PUBCHEM_IUPAC_INCHI>
InChI=1S/C14H32O5Si3/c1-20(2,3)17-12(14(16)19-22(7,8)9)10-11-13(15)18-21(4,5)6/h12H,10-11H2,1-9H3
> <PUBCHEM_IUPAC_INCHIKEY>
GFDIGKRHNMDEJF-UHFFFAOYSA-N
> <PUBCHEM_EXACT_MASS>
364.15575372
> <PUBCHEM_MOLECULAR_FORMULA>
C14H32O5Si3
> <PUBCHEM_MOLECULAR_WEIGHT>
364.66
> <PUBCHEM_OPENEYE_CAN_SMILES>
C[Si](C)(C)OC(CCC(=O)O[Si](C)(C)C)C(=O)O[Si](C)(C)C
> <PUBCHEM_OPENEYE_ISO_SMILES>
C[Si](C)(C)OC(CCC(=O)O[Si](C)(C)C)C(=O)O[Si](C)(C)C
> <PUBCHEM_CACTVS_TPSA>
61.8
> <PUBCHEM_MONOISOTOPIC_WEIGHT>
364.15575372
> <PUBCHEM_TOTAL_CHARGE>
0
> <PUBCHEM_HEAVY_ATOM_COUNT>
22
> <PUBCHEM_ATOM_DEF_STEREO_COUNT>
0
> <PUBCHEM_ATOM_UDEF_STEREO_COUNT>
1
> <PUBCHEM_BOND_DEF_STEREO_COUNT>
0
> <PUBCHEM_BOND_UDEF_STEREO_COUNT>
0
> <PUBCHEM_ISOTOPIC_ATOM_COUNT>
0
> <PUBCHEM_COMPONENT_COUNT>
1
> <PUBCHEM_CACTVS_TAUTO_COUNT>
1
> <PUBCHEM_COORDINATE_TYPE>
1
5
255
> <PUBCHEM_BONDANNOTATIONS>
9  10  3
$$$$
