521690
  -OEChem-10302200292D
 20 20  0     1  0  0  0  0  0999 V2000
    2.0000   -1.9507    0.0000 O   0  0  0  0  0  0  0  0  0  0  0  0
    2.2218    1.8971    0.0000 O   0  0  0  0  0  0  0  0  0  0  0  0
    3.9538    1.8971    0.0000 N   0  0  0  0  0  0  0  0  0  0  0  0
    3.0878    0.3971    0.0000 C   0  0  3  0  0  0  0  0  0  0  0  0
    2.2788   -0.1907    0.0000 C   0  0  0  0  0  0  0  0  0  0  0  0
    3.8968   -0.1907    0.0000 C   0  0  0  0  0  0  0  0  0  0  0  0
    2.5878   -1.1417    0.0000 C   0  0  3  0  0  0  0  0  0  0  0  0
    3.5878   -1.1417    0.0000 C   0  0  0  0  0  0  0  0  0  0  0  0
    3.0878    1.3971    0.0000 C   0  0  0  0  0  0  0  0  0  0  0  0
    3.6402    0.6786    0.0000 H   0  0  0  0  0  0  0  0  0  0  0  0
    1.9688    0.3463    0.0000 H   0  0  0  0  0  0  0  0  0  0  0  0
    1.7124   -0.4428    0.0000 H   0  0  0  0  0  0  0  0  0  0  0  0
    4.4632   -0.4428    0.0000 H   0  0  0  0  0  0  0  0  0  0  0  0
    4.2068    0.3463    0.0000 H   0  0  0  0  0  0  0  0  0  0  0  0
    1.9754   -1.0447    0.0000 H   0  0  0  0  0  0  0  0  0  0  0  0
    3.5230   -1.7583    0.0000 H   0  0  0  0  0  0  0  0  0  0  0  0
    4.1942   -1.2706    0.0000 H   0  0  0  0  0  0  0  0  0  0  0  0
    2.2522   -2.5171    0.0000 H   0  0  0  0  0  0  0  0  0  0  0  0
    3.9538    2.5171    0.0000 H   0  0  0  0  0  0  0  0  0  0  0  0
    4.4908    1.5871    0.0000 H   0  0  0  0  0  0  0  0  0  0  0  0
  1  7  1  0  0  0  0
  1 18  1  0  0  0  0
  2  9  2  0  0  0  0
  3  9  1  0  0  0  0
  3 19  1  0  0  0  0
  3 20  1  0  0  0  0
  4  5  1  0  0  0  0
  4  6  1  0  0  0  0
  4  9  1  0  0  0  0
  4 10  1  0  0  0  0
  5  7  1  0  0  0  0
  5 11  1  0  0  0  0
  5 12  1  0  0  0  0
  6  8  1  0  0  0  0
  6 13  1  0  0  0  0
  6 14  1  0  0  0  0
  7  8  1  0  0  0  0
  7 15  1  0  0  0  0
  8 16  1  0  0  0  0
  8 17  1  0  0  0  0
M  END
> <PUBCHEM_COMPOUND_CID>
521690
> <PUBCHEM_COMPOUND_CANONICALIZED>
1
> <PUBCHEM_CACTVS_COMPLEXITY>
124
> <PUBCHEM_CACTVS_HBOND_ACCEPTOR>
2
> <PUBCHEM_CACTVS_HBOND_DONOR>
2
> <PUBCHEM_CACTVS_ROTATABLE_BOND>
1
> <PUBCHEM_CACTVS_SUBSKEYS>
AAADccBiMAAAAAAAAAAAAAAAAAAAAYAAAAAAAAAAAAAAAAAAAAAAHgAQCAAADRShgAIAAABAAgAIAAEQEAAAAAAAAAAAAAEAAAAAEBIAgAAAQAAEEAAAAAG6HABOAAAAAAAAAAAAAAAAAAAAAIAAAAAAAA==
> <PUBCHEM_IUPAC_OPENEYE_NAME>
3-hydroxycyclopentanecarboxamide
> <PUBCHEM_IUPAC_CAS_NAME>
3-hydroxy-1-cyclopentanecarboxamide
> <PUBCHEM_IUPAC_NAME_MARKUP>
3-hydroxycyclopentane-1-carboxamide
> <PUBCHEM_IUPAC_NAME>
3-hydroxycyclopentane-1-carboxamide
> <PUBCHEM_IUPAC_SYSTEMATIC_NAME>
3-oxidanylcyclopentane-1-carboxamide
> <PUBCHEM_IUPAC_TRADITIONAL_NAME>
3-hydroxycyclopentanecarboxamide
> <PUBCHEM_IUPAC_INCHI>
InChI=1S/C6H11NO2/c7-6(9)4-1-2-5(8)3-4/h4-5,8H,1-3H2,(H2,7,9)
> <PUBCHEM_IUPAC_INCHIKEY>
RKTBKLNPNMZSEB-UHFFFAOYSA-N
> <PUBCHEM_XLOGP3_AA>
-0.7
> <PUBCHEM_EXACT_MASS>
129.078978594
> <PUBCHEM_MOLECULAR_FORMULA>
C6H11NO2
> <PUBCHEM_MOLECULAR_WEIGHT>
129.16
> <PUBCHEM_OPENEYE_CAN_SMILES>
C1CC(CC1C(=O)N)O
> <PUBCHEM_OPENEYE_ISO_SMILES>
C1CC(CC1C(=O)N)O
> <PUBCHEM_CACTVS_TPSA>
63.3
> <PUBCHEM_MONOISOTOPIC_WEIGHT>
129.078978594
> <PUBCHEM_TOTAL_CHARGE>
0
> <PUBCHEM_HEAVY_ATOM_COUNT>
9
> <PUBCHEM_ATOM_DEF_STEREO_COUNT>
0
> <PUBCHEM_ATOM_UDEF_STEREO_COUNT>
2
> <PUBCHEM_BOND_DEF_STEREO_COUNT>
0
> <PUBCHEM_BOND_UDEF_STEREO_COUNT>
0
> <PUBCHEM_ISOTOPIC_ATOM_COUNT>
0
> <PUBCHEM_COMPONENT_COUNT>
1
> <PUBCHEM_CACTVS_TAUTO_COUNT>
-1
> <PUBCHEM_COORDINATE_TYPE>
1
5
255
> <PUBCHEM_BONDANNOTATIONS>
7  1  3
4  9  3
$$$$
