521674
  -OEChem-10302200292D
 47 49  0     1  0  0  0  0  0999 V2000
    4.1596    0.0000    0.0000 Br  0  0  0  0  0  0  0  0  0  0  0  0
    6.4036    7.3732    0.0000 O   0  0  0  0  0  0  0  0  0  0  0  0
    8.7496    6.2814    0.0000 O   0  0  0  0  0  0  0  0  0  0  0  0
    8.7533    8.4570    0.0000 O   0  0  0  0  0  0  0  0  0  0  0  0
    7.3558    9.8748    0.0000 O   0  0  0  0  0  0  0  0  0  0  0  0
    6.6793    5.6127    0.0000 N   0  0  0  0  0  0  0  0  0  0  0  0
    6.6793    4.0032    0.0000 N   0  0  0  0  0  0  0  0  0  0  0  0
    4.8671    5.8080    0.0000 N   0  0  0  0  0  0  0  0  0  0  0  0
    4.0010    4.3080    0.0000 N   0  0  0  0  0  0  0  0  0  0  0  0
    4.8671    2.8080    0.0000 N   0  0  0  0  0  0  0  0  0  0  0  0
    7.9416    6.8706    0.0000 C   0  0  3  0  0  0  0  0  0  0  0  0
    6.9900    6.5632    0.0000 C   0  0  3  0  0  0  0  0  0  0  0  0
    7.9433    7.8706    0.0000 C   0  0  3  0  0  0  0  0  0  0  0  0
    6.9928    8.1812    0.0000 C   0  0  3  0  0  0  0  0  0  0  0  0
    6.6854    9.1328    0.0000 C   0  0  0  0  0  0  0  0  0  0  0  0
    5.7331    5.3080    0.0000 C   0  0  0  0  0  0  0  0  0  0  0  0
    7.2629    4.8080    0.0000 C   0  0  0  0  0  0  0  0  0  0  0  0
    5.7331    4.3080    0.0000 C   0  0  0  0  0  0  0  0  0  0  0  0
    4.8671    3.8080    0.0000 C   0  0  0  0  0  0  0  0  0  0  0  0
    4.0010    5.3080    0.0000 C   0  0  0  0  0  0  0  0  0  0  0  0
    3.1350    3.8080    0.0000 C   0  0  0  0  0  0  0  0  0  0  0  0
    2.2690    4.3080    0.0000 C   0  0  0  0  0  0  0  0  0  0  0  0
    1.4030    3.8080    0.0000 C   0  0  0  0  0  0  0  0  0  0  0  0
    2.2690    5.3080    0.0000 C   0  0  0  0  0  0  0  0  0  0  0  0
    0.5369    4.3080    0.0000 C   0  0  0  0  0  0  0  0  0  0  0  0
    1.4030    5.8080    0.0000 C   0  0  0  0  0  0  0  0  0  0  0  0
    0.5369    5.3080    0.0000 C   0  0  0  0  0  0  0  0  0  0  0  0
    7.8435    6.2584    0.0000 H   0  0  0  0  0  0  0  0  0  0  0  0
    6.3774    6.4673    0.0000 H   0  0  0  0  0  0  0  0  0  0  0  0
    8.4952    7.5882    0.0000 H   0  0  0  0  0  0  0  0  0  0  0  0
    6.3806    8.2793    0.0000 H   0  0  0  0  0  0  0  0  0  0  0  0
    6.3045    9.6221    0.0000 H   0  0  0  0  0  0  0  0  0  0  0  0
    6.1375    8.8427    0.0000 H   0  0  0  0  0  0  0  0  0  0  0  0
    9.3164    6.5326    0.0000 H   0  0  0  0  0  0  0  0  0  0  0  0
    9.3193    8.2038    0.0000 H   0  0  0  0  0  0  0  0  0  0  0  0
    7.8829    4.8080    0.0000 H   0  0  0  0  0  0  0  0  0  0  0  0
    7.1652   10.4648    0.0000 H   0  0  0  0  0  0  0  0  0  0  0  0
    3.4641    5.6180    0.0000 H   0  0  0  0  0  0  0  0  0  0  0  0
    2.7365    3.3330    0.0000 H   0  0  0  0  0  0  0  0  0  0  0  0
    3.5335    3.3330    0.0000 H   0  0  0  0  0  0  0  0  0  0  0  0
    5.4040    2.4980    0.0000 H   0  0  0  0  0  0  0  0  0  0  0  0
    1.4030    3.1880    0.0000 H   0  0  0  0  0  0  0  0  0  0  0  0
    2.8059    5.6180    0.0000 H   0  0  0  0  0  0  0  0  0  0  0  0
    0.0000    3.9980    0.0000 H   0  0  0  0  0  0  0  0  0  0  0  0
    1.4030    6.4280    0.0000 H   0  0  0  0  0  0  0  0  0  0  0  0
    0.0000    5.6180    0.0000 H   0  0  0  0  0  0  0  0  0  0  0  0
    5.1596    0.0000    0.0000 H   0  0  0  0  0  0  0  0  0  0  0  0
  1 47  1  0  0  0  0
  2 12  1  0  0  0  0
  2 14  1  0  0  0  0
  3 11  1  0  0  0  0
  3 34  1  0  0  0  0
  4 13  1  0  0  0  0
  4 35  1  0  0  0  0
  5 15  1  0  0  0  0
  5 37  1  0  0  0  0
  6 12  1  0  0  0  0
  6 16  1  0  0  0  0
  6 17  1  0  0  0  0
  7 17  2  0  0  0  0
  7 18  1  0  0  0  0
  8 16  1  0  0  0  0
  8 20  2  0  0  0  0
  9 19  1  0  0  0  0
  9 20  1  0  0  0  0
  9 21  1  0  0  0  0
 10 19  2  0  0  0  0
 10 41  1  0  0  0  0
 11 12  1  0  0  0  0
 11 13  1  0  0  0  0
 11 28  1  0  0  0  0
 12 29  1  0  0  0  0
 13 14  1  0  0  0  0
 13 30  1  0  0  0  0
 14 15  1  0  0  0  0
 14 31  1  0  0  0  0
 15 32  1  0  0  0  0
 15 33  1  0  0  0  0
 16 18  2  0  0  0  0
 17 36  1  0  0  0  0
 18 19  1  0  0  0  0
 20 38  1  0  0  0  0
 21 22  1  0  0  0  0
 21 39  1  0  0  0  0
 21 40  1  0  0  0  0
 22 23  2  0  0  0  0
 22 24  1  0  0  0  0
 23 25  1  0  0  0  0
 23 42  1  0  0  0  0
 24 26  2  0  0  0  0
 24 43  1  0  0  0  0
 25 27  2  0  0  0  0
 25 44  1  0  0  0  0
 26 27  1  0  0  0  0
 26 45  1  0  0  0  0
 27 46  1  0  0  0  0
M  END
> <PUBCHEM_COMPOUND_CID>
521674
> <PUBCHEM_COMPOUND_CANONICALIZED>
1
> <PUBCHEM_CACTVS_COMPLEXITY>
555
> <PUBCHEM_CACTVS_HBOND_ACCEPTOR>
7
> <PUBCHEM_CACTVS_HBOND_DONOR>
5
> <PUBCHEM_CACTVS_ROTATABLE_BOND>
4
> <PUBCHEM_CACTVS_SUBSKEYS>
AAADceB7uAAAEAAAAAAAAAAAAAAAAWJAAAAwQAAAAAAAAEABwAAAHgAQCAAADBzhngY1sJdMFgCgAyZjZACCgC2xEKAJ2AAoVJiLeCLA2RGeYAhvgALbiCfwsAIOAAAAAAAAAAAAAAAAAAAAAAAAAAAAAA==
> <PUBCHEM_IUPAC_OPENEYE_NAME>
2-(1-benzyl-6-imino-purin-9-yl)-5-(hydroxymethyl)tetrahydrofuran-3,4-diol;hydrobromide
> <PUBCHEM_IUPAC_CAS_NAME>
2-(hydroxymethyl)-5-[6-imino-1-(phenylmethyl)-9-purinyl]oxolane-3,4-diol;hydrobromide
> <PUBCHEM_IUPAC_NAME_MARKUP>
2-(1-benzyl-6-iminopurin-9-yl)-5-(hydroxymethyl)oxolane-3,4-diol;hydrobromide
> <PUBCHEM_IUPAC_NAME>
2-(1-benzyl-6-iminopurin-9-yl)-5-(hydroxymethyl)oxolane-3,4-diol;hydrobromide
> <PUBCHEM_IUPAC_SYSTEMATIC_NAME>
2-[6-azanylidene-1-(phenylmethyl)purin-9-yl]-5-(hydroxymethyl)oxolane-3,4-diol;hydrobromide
> <PUBCHEM_IUPAC_TRADITIONAL_NAME>
2-(1-benzyl-6-imino-purin-9-yl)-5-methylol-tetrahydrofuran-3,4-diol;hydrobromide
> <PUBCHEM_IUPAC_INCHI>
InChI=1S/C17H19N5O4.BrH/c18-15-12-16(20-8-21(15)6-10-4-2-1-3-5-10)22(9-19-12)17-14(25)13(24)11(7-23)26-17;/h1-5,8-9,11,13-14,17-18,23-25H,6-7H2;1H
> <PUBCHEM_IUPAC_INCHIKEY>
BBIZCMRYVPBVPK-UHFFFAOYSA-N
> <PUBCHEM_EXACT_MASS>
437.06987
> <PUBCHEM_MOLECULAR_FORMULA>
C17H20BrN5O4
> <PUBCHEM_MOLECULAR_WEIGHT>
438.3
> <PUBCHEM_OPENEYE_CAN_SMILES>
C1=CC=C(C=C1)CN2C=NC3=C(C2=N)N=CN3C4C(C(C(O4)CO)O)O.Br
> <PUBCHEM_OPENEYE_ISO_SMILES>
C1=CC=C(C=C1)CN2C=NC3=C(C2=N)N=CN3C4C(C(C(O4)CO)O)O.Br
> <PUBCHEM_CACTVS_TPSA>
127
> <PUBCHEM_MONOISOTOPIC_WEIGHT>
437.06987
> <PUBCHEM_TOTAL_CHARGE>
0
> <PUBCHEM_HEAVY_ATOM_COUNT>
27
> <PUBCHEM_ATOM_DEF_STEREO_COUNT>
0
> <PUBCHEM_ATOM_UDEF_STEREO_COUNT>
4
> <PUBCHEM_BOND_DEF_STEREO_COUNT>
0
> <PUBCHEM_BOND_UDEF_STEREO_COUNT>
0
> <PUBCHEM_ISOTOPIC_ATOM_COUNT>
0
> <PUBCHEM_COMPONENT_COUNT>
2
> <PUBCHEM_CACTVS_TAUTO_COUNT>
-1
> <PUBCHEM_COORDINATE_TYPE>
1
5
255
> <PUBCHEM_BONDANNOTATIONS>
14  15  3
16  18  8
18  19  8
22  23  8
22  24  8
23  25  8
24  26  8
25  27  8
26  27  8
11  3  3
13  4  3
12  6  3
6  16  8
6  17  8
7  17  8
7  18  8
8  16  8
8  20  8
9  19  8
9  20  8
$$$$
