521636
  -OEChem-10302200292D
 99102  0     1  0  0  0  0  0999 V2000
    2.8641   -3.2192    0.0000 Si  0  0  0  0  0  0  0  0  0  0  0  0
   13.9350    3.1048    0.0000 Si  0  0  0  0  0  0  0  0  0  0  0  0
    3.7282   -3.7225    0.0000 O   0  0  0  0  0  0  0  0  0  0  0  0
   12.9565    2.8986    0.0000 O   0  0  0  0  0  0  0  0  0  0  0  0
    9.1213   -0.6702    0.0000 C   0  0  3  0  0  0  0  0  0  0  0  0
    9.1213   -1.6702    0.0000 C   0  0  3  0  0  0  0  0  0  0  0  0
    8.2552   -2.1702    0.0000 C   0  0  3  0  0  0  0  0  0  0  0  0
    7.3892   -1.6702    0.0000 C   0  0  3  0  0  0  0  0  0  0  0  0
   10.0675   -0.3655    0.0000 C   0  0  3  0  0  0  0  0  0  0  0  0
    8.2552   -0.1702    0.0000 C   0  0  0  0  0  0  0  0  0  0  0  0
    6.4792   -2.1770    0.0000 C   0  0  3  0  0  0  0  0  0  0  0  0
   10.0675   -1.9749    0.0000 C   0  0  0  0  0  0  0  0  0  0  0  0
    7.3892   -0.6702    0.0000 C   0  0  0  0  0  0  0  0  0  0  0  0
   10.6511   -1.1702    0.0000 C   0  0  0  0  0  0  0  0  0  0  0  0
    8.2713   -3.2117    0.0000 C   0  0  0  0  0  0  0  0  0  0  0  0
   10.3781    0.5851    0.0000 C   0  0  3  0  0  0  0  0  0  0  0  0
    9.1213    0.3298    0.0000 C   0  0  0  0  0  0  0  0  0  0  0  0
    6.4712   -3.2186    0.0000 C   0  0  0  0  0  0  0  0  0  0  0  0
    5.5524   -1.6130    0.0000 C   0  0  0  0  0  0  0  0  0  0  0  0
    7.3733   -3.7394    0.0000 C   0  0  0  0  0  0  0  0  0  0  0  0
    6.4869   -1.1771    0.0000 C   0  0  0  0  0  0  0  0  0  0  0  0
    5.5358   -3.7684    0.0000 C   0  0  0  0  0  0  0  0  0  0  0  0
    4.6045   -2.1409    0.0000 C   0  0  0  0  0  0  0  0  0  0  0  0
   11.3567    0.7913    0.0000 C   0  0  0  0  0  0  0  0  0  0  0  0
    4.5961   -3.2259    0.0000 C   0  0  3  0  0  0  0  0  0  0  0  0
    9.7103    1.3294    0.0000 C   0  0  0  0  0  0  0  0  0  0  0  0
   11.6673    1.7418    0.0000 C   0  0  0  0  0  0  0  0  0  0  0  0
   12.6458    1.9480    0.0000 C   0  0  3  0  0  0  0  0  0  0  0  0
   13.3137    1.2037    0.0000 C   0  0  0  0  0  0  0  0  0  0  0  0
    2.0000   -2.7158    0.0000 C   0  0  0  0  0  0  0  0  0  0  0  0
    2.3608   -4.0833    0.0000 C   0  0  0  0  0  0  0  0  0  0  0  0
    3.3674   -2.3551    0.0000 C   0  0  0  0  0  0  0  0  0  0  0  0
   14.2922    1.4099    0.0000 C   0  0  0  0  0  0  0  0  0  0  0  0
   13.0030    0.2532    0.0000 C   0  0  0  0  0  0  0  0  0  0  0  0
   14.9135    3.3110    0.0000 C   0  0  0  0  0  0  0  0  0  0  0  0
   13.7288    4.0833    0.0000 C   0  0  0  0  0  0  0  0  0  0  0  0
   14.1412    2.1263    0.0000 C   0  0  0  0  0  0  0  0  0  0  0  0
    9.1869   -2.2867    0.0000 H   0  0  0  0  0  0  0  0  0  0  0  0
    8.7945   -2.4760    0.0000 H   0  0  0  0  0  0  0  0  0  0  0  0
    7.9262   -1.3602    0.0000 H   0  0  0  0  0  0  0  0  0  0  0  0
   10.6800   -0.2693    0.0000 H   0  0  0  0  0  0  0  0  0  0  0  0
    8.6538    0.3048    0.0000 H   0  0  0  0  0  0  0  0  0  0  0  0
    7.8567    0.3048    0.0000 H   0  0  0  0  0  0  0  0  0  0  0  0
    9.8164   -2.5418    0.0000 H   0  0  0  0  0  0  0  0  0  0  0  0
   10.6049   -2.2841    0.0000 H   0  0  0  0  0  0  0  0  0  0  0  0
    7.1772   -0.0876    0.0000 H   0  0  0  0  0  0  0  0  0  0  0  0
    6.7786   -0.7778    0.0000 H   0  0  0  0  0  0  0  0  0  0  0  0
   11.1120   -1.5849    0.0000 H   0  0  0  0  0  0  0  0  0  0  0  0
   11.1120   -0.7555    0.0000 H   0  0  0  0  0  0  0  0  0  0  0  0
    8.4893   -3.7921    0.0000 H   0  0  0  0  0  0  0  0  0  0  0  0
    8.8804   -3.0962    0.0000 H   0  0  0  0  0  0  0  0  0  0  0  0
   10.5708    1.1744    0.0000 H   0  0  0  0  0  0  0  0  0  0  0  0
    9.7413    0.3298    0.0000 H   0  0  0  0  0  0  0  0  0  0  0  0
    9.1213    0.9498    0.0000 H   0  0  0  0  0  0  0  0  0  0  0  0
    8.5013    0.3298    0.0000 H   0  0  0  0  0  0  0  0  0  0  0  0
    5.9606   -1.1463    0.0000 H   0  0  0  0  0  0  0  0  0  0  0  0
    5.1625   -1.1309    0.0000 H   0  0  0  0  0  0  0  0  0  0  0  0
    7.3756   -4.3594    0.0000 H   0  0  0  0  0  0  0  0  0  0  0  0
    7.1069   -1.1818    0.0000 H   0  0  0  0  0  0  0  0  0  0  0  0
    6.4917   -0.5571    0.0000 H   0  0  0  0  0  0  0  0  0  0  0  0
    5.8669   -1.1723    0.0000 H   0  0  0  0  0  0  0  0  0  0  0  0
    5.1385   -4.2443    0.0000 H   0  0  0  0  0  0  0  0  0  0  0  0
    5.9367   -4.2412    0.0000 H   0  0  0  0  0  0  0  0  0  0  0  0
    4.3999   -1.5556    0.0000 H   0  0  0  0  0  0  0  0  0  0  0  0
    3.9928   -2.2423    0.0000 H   0  0  0  0  0  0  0  0  0  0  0  0
   11.3772    0.1716    0.0000 H   0  0  0  0  0  0  0  0  0  0  0  0
   11.9705    0.7039    0.0000 H   0  0  0  0  0  0  0  0  0  0  0  0
    4.5949   -3.8459    0.0000 H   0  0  0  0  0  0  0  0  0  0  0  0
   10.1718    1.7434    0.0000 H   0  0  0  0  0  0  0  0  0  0  0  0
    9.2962    1.7908    0.0000 H   0  0  0  0  0  0  0  0  0  0  0  0
    9.2488    0.9153    0.0000 H   0  0  0  0  0  0  0  0  0  0  0  0
   11.6468    2.3615    0.0000 H   0  0  0  0  0  0  0  0  0  0  0  0
   11.0535    1.8292    0.0000 H   0  0  0  0  0  0  0  0  0  0  0  0
   12.2318    2.4095    0.0000 H   0  0  0  0  0  0  0  0  0  0  0  0
   13.5063    1.7930    0.0000 H   0  0  0  0  0  0  0  0  0  0  0  0
    2.3121   -2.1801    0.0000 H   0  0  0  0  0  0  0  0  0  0  0  0
    1.4643   -2.4038    0.0000 H   0  0  0  0  0  0  0  0  0  0  0  0
    1.6879   -3.2516    0.0000 H   0  0  0  0  0  0  0  0  0  0  0  0
    1.8250   -3.7712    0.0000 H   0  0  0  0  0  0  0  0  0  0  0  0
    2.0487   -4.6190    0.0000 H   0  0  0  0  0  0  0  0  0  0  0  0
    2.8965   -4.3953    0.0000 H   0  0  0  0  0  0  0  0  0  0  0  0
    3.9032   -2.6672    0.0000 H   0  0  0  0  0  0  0  0  0  0  0  0
    3.6795   -1.8194    0.0000 H   0  0  0  0  0  0  0  0  0  0  0  0
    2.8317   -2.0430    0.0000 H   0  0  0  0  0  0  0  0  0  0  0  0
   14.4200    0.8033    0.0000 H   0  0  0  0  0  0  0  0  0  0  0  0
   14.8988    1.5378    0.0000 H   0  0  0  0  0  0  0  0  0  0  0  0
   14.1643    2.0166    0.0000 H   0  0  0  0  0  0  0  0  0  0  0  0
   12.4137    0.4458    0.0000 H   0  0  0  0  0  0  0  0  0  0  0  0
   12.8104   -0.3361    0.0000 H   0  0  0  0  0  0  0  0  0  0  0  0
   13.5923    0.0606    0.0000 H   0  0  0  0  0  0  0  0  0  0  0  0
   15.0414    2.7043    0.0000 H   0  0  0  0  0  0  0  0  0  0  0  0
   15.5202    3.4388    0.0000 H   0  0  0  0  0  0  0  0  0  0  0  0
   14.7856    3.9177    0.0000 H   0  0  0  0  0  0  0  0  0  0  0  0
   14.3354    4.2111    0.0000 H   0  0  0  0  0  0  0  0  0  0  0  0
   13.6009    4.6899    0.0000 H   0  0  0  0  0  0  0  0  0  0  0  0
   13.1221    3.9554    0.0000 H   0  0  0  0  0  0  0  0  0  0  0  0
   13.5345    1.9984    0.0000 H   0  0  0  0  0  0  0  0  0  0  0  0
   14.2691    1.5196    0.0000 H   0  0  0  0  0  0  0  0  0  0  0  0
   14.7479    2.2541    0.0000 H   0  0  0  0  0  0  0  0  0  0  0  0
  1  3  1  0  0  0  0
  1 30  1  0  0  0  0
  1 31  1  0  0  0  0
  1 32  1  0  0  0  0
  2  4  1  0  0  0  0
  2 35  1  0  0  0  0
  2 36  1  0  0  0  0
  2 37  1  0  0  0  0
  3 25  1  0  0  0  0
  4 28  1  0  0  0  0
  5  6  1  0  0  0  0
  5  9  1  0  0  0  0
  5 10  1  0  0  0  0
  5 17  1  0  0  0  0
  6  7  1  0  0  0  0
  6 12  1  0  0  0  0
  6 38  1  0  0  0  0
  7  8  1  0  0  0  0
  7 15  1  0  0  0  0
  7 39  1  0  0  0  0
  8 11  1  0  0  0  0
  8 13  1  0  0  0  0
  8 40  1  0  0  0  0
  9 14  1  0  0  0  0
  9 16  1  0  0  0  0
  9 41  1  0  0  0  0
 10 13  1  0  0  0  0
 10 42  1  0  0  0  0
 10 43  1  0  0  0  0
 11 18  1  0  0  0  0
 11 19  1  0  0  0  0
 11 21  1  0  0  0  0
 12 14  1  0  0  0  0
 12 44  1  0  0  0  0
 12 45  1  0  0  0  0
 13 46  1  0  0  0  0
 13 47  1  0  0  0  0
 14 48  1  0  0  0  0
 14 49  1  0  0  0  0
 15 20  1  0  0  0  0
 15 50  1  0  0  0  0
 15 51  1  0  0  0  0
 16 24  1  0  0  0  0
 16 26  1  0  0  0  0
 16 52  1  0  0  0  0
 17 53  1  0  0  0  0
 17 54  1  0  0  0  0
 17 55  1  0  0  0  0
 18 20  2  0  0  0  0
 18 22  1  0  0  0  0
 19 23  1  0  0  0  0
 19 56  1  0  0  0  0
 19 57  1  0  0  0  0
 20 58  1  0  0  0  0
 21 59  1  0  0  0  0
 21 60  1  0  0  0  0
 21 61  1  0  0  0  0
 22 25  1  0  0  0  0
 22 62  1  0  0  0  0
 22 63  1  0  0  0  0
 23 25  1  0  0  0  0
 23 64  1  0  0  0  0
 23 65  1  0  0  0  0
 24 27  1  0  0  0  0
 24 66  1  0  0  0  0
 24 67  1  0  0  0  0
 25 68  1  0  0  0  0
 26 69  1  0  0  0  0
 26 70  1  0  0  0  0
 26 71  1  0  0  0  0
 27 28  1  0  0  0  0
 27 72  1  0  0  0  0
 27 73  1  0  0  0  0
 28 29  1  0  0  0  0
 28 74  1  0  0  0  0
 29 33  1  0  0  0  0
 29 34  1  0  0  0  0
 29 75  1  0  0  0  0
 30 76  1  0  0  0  0
 30 77  1  0  0  0  0
 30 78  1  0  0  0  0
 31 79  1  0  0  0  0
 31 80  1  0  0  0  0
 31 81  1  0  0  0  0
 32 82  1  0  0  0  0
 32 83  1  0  0  0  0
 32 84  1  0  0  0  0
 33 85  1  0  0  0  0
 33 86  1  0  0  0  0
 33 87  1  0  0  0  0
 34 88  1  0  0  0  0
 34 89  1  0  0  0  0
 34 90  1  0  0  0  0
 35 91  1  0  0  0  0
 35 92  1  0  0  0  0
 35 93  1  0  0  0  0
 36 94  1  0  0  0  0
 36 95  1  0  0  0  0
 36 96  1  0  0  0  0
 37 97  1  0  0  0  0
 37 98  1  0  0  0  0
 37 99  1  0  0  0  0
M  END
> <PUBCHEM_COMPOUND_CID>
521636
> <PUBCHEM_COMPOUND_CANONICALIZED>
1
> <PUBCHEM_CACTVS_COMPLEXITY>
823
> <PUBCHEM_CACTVS_HBOND_ACCEPTOR>
2
> <PUBCHEM_CACTVS_HBOND_DONOR>
0
> <PUBCHEM_CACTVS_ROTATABLE_BOND>
9
> <PUBCHEM_CACTVS_SUBSKEYS>
AAADcfB8MAwAAAAAAAAAAAAAAAAAAYAAAAAwYIAAAAAAAGCAAAAAGhAAAEAADxSggAJCAAAAAAGAAiBCAAAAAAAgAAAACAAAAAgAAAIAAQAAAAAEwAAIAAOAwPAPgAAAAAAAAADAAAQAACAAAQAACAAAAA==
> <PUBCHEM_IUPAC_OPENEYE_NAME>
[4-(10,13-dimethyl-3-trimethylsilyloxy-2,3,4,7,8,9,11,12,14,15,16,17-dodecahydro-1H-cyclopenta[a]phenanthren-17-yl)-1-isopropyl-pentoxy]-trimethyl-silane
> <PUBCHEM_IUPAC_CAS_NAME>
[10,13-dimethyl-17-(6-methyl-5-trimethylsilyloxyheptan-2-yl)-2,3,4,7,8,9,11,12,14,15,16,17-dodecahydro-1H-cyclopenta[a]phenanthren-3-yl]oxy-trimethylsilane
> <PUBCHEM_IUPAC_NAME_MARKUP>
[10,13-dimethyl-17-(6-methyl-5-trimethylsilyloxyheptan-2-yl)-2,3,4,7,8,9,11,12,14,15,16,17-dodecahydro-1<I>H</I>-cyclopenta[a]phenanthren-3-yl]oxy-trimethylsilane
> <PUBCHEM_IUPAC_NAME>
[10,13-dimethyl-17-(6-methyl-5-trimethylsilyloxyheptan-2-yl)-2,3,4,7,8,9,11,12,14,15,16,17-dodecahydro-1H-cyclopenta[a]phenanthren-3-yl]oxy-trimethylsilane
> <PUBCHEM_IUPAC_SYSTEMATIC_NAME>
[10,13-dimethyl-17-(6-methyl-5-trimethylsilyloxy-heptan-2-yl)-2,3,4,7,8,9,11,12,14,15,16,17-dodecahydro-1H-cyclopenta[a]phenanthren-3-yl]oxy-trimethyl-silane
> <PUBCHEM_IUPAC_TRADITIONAL_NAME>
[4-(10,13-dimethyl-3-trimethylsilyloxy-2,3,4,7,8,9,11,12,14,15,16,17-dodecahydro-1H-cyclopenta[a]phenanthren-17-yl)-1-isopropyl-pentoxy]-trimethyl-silane
> <PUBCHEM_IUPAC_INCHI>
InChI=1S/C33H62O2Si2/c1-23(2)31(35-37(9,10)11)17-12-24(3)28-15-16-29-27-14-13-25-22-26(34-36(6,7)8)18-20-32(25,4)30(27)19-21-33(28,29)5/h13,23-24,26-31H,12,14-22H2,1-11H3
> <PUBCHEM_IUPAC_INCHIKEY>
IDFZCXSXIWKWOC-UHFFFAOYSA-N
> <PUBCHEM_EXACT_MASS>
546.42883429
> <PUBCHEM_MOLECULAR_FORMULA>
C33H62O2Si2
> <PUBCHEM_MOLECULAR_WEIGHT>
547.0
> <PUBCHEM_OPENEYE_CAN_SMILES>
CC(C)C(CCC(C)C1CCC2C1(CCC3C2CC=C4C3(CCC(C4)O[Si](C)(C)C)C)C)O[Si](C)(C)C
> <PUBCHEM_OPENEYE_ISO_SMILES>
CC(C)C(CCC(C)C1CCC2C1(CCC3C2CC=C4C3(CCC(C4)O[Si](C)(C)C)C)C)O[Si](C)(C)C
> <PUBCHEM_CACTVS_TPSA>
18.5
> <PUBCHEM_MONOISOTOPIC_WEIGHT>
546.42883429
> <PUBCHEM_TOTAL_CHARGE>
0
> <PUBCHEM_HEAVY_ATOM_COUNT>
37
> <PUBCHEM_ATOM_DEF_STEREO_COUNT>
0
> <PUBCHEM_ATOM_UDEF_STEREO_COUNT>
9
> <PUBCHEM_BOND_DEF_STEREO_COUNT>
0
> <PUBCHEM_BOND_UDEF_STEREO_COUNT>
0
> <PUBCHEM_ISOTOPIC_ATOM_COUNT>
0
> <PUBCHEM_COMPONENT_COUNT>
1
> <PUBCHEM_CACTVS_TAUTO_COUNT>
-1
> <PUBCHEM_COORDINATE_TYPE>
1
5
255
> <PUBCHEM_BONDANNOTATIONS>
11  21  3
16  26  3
28  27  3
25  3  3
5  17  3
6  12  3
7  15  3
8  13  3
9  14  3
$$$$
