521642
  -OEChem-10302200292D
 64 65  0     1  0  0  0  0  0999 V2000
    5.2904    0.9848    0.0000 Si  0  0  0  0  0  0  0  0  0  0  0  0
    4.5981    1.5000    0.0000 Si  0  0  0  0  0  0  0  0  0  0  0  0
    7.1546    0.9726    0.0000 Si  0  0  0  0  0  0  0  0  0  0  0  0
    2.8660   -1.5000    0.0000 Si  0  0  0  0  0  0  0  0  0  0  0  0
    2.8660    0.5000    0.0000 O   0  0  0  0  0  0  0  0  0  0  0  0
    7.9939   -0.5000    0.0000 O   0  0  0  0  0  0  0  0  0  0  0  0
    4.5981   -2.5000    0.0000 O   0  0  0  0  0  0  0  0  0  0  0  0
    4.5981    0.5000    0.0000 N   0  0  0  0  0  0  0  0  0  0  0  0
    6.4103    0.3047    0.0000 N   0  0  0  0  0  0  0  0  0  0  0  0
    3.7320   -1.0000    0.0000 N   0  0  0  0  0  0  0  0  0  0  0  0
    6.4103   -1.3047    0.0000 N   0  0  0  0  0  0  0  0  0  0  0  0
    5.4641    0.0000    0.0000 C   0  0  3  0  0  0  0  0  0  0  0  0
    5.4641   -1.0000    0.0000 C   0  0  0  0  0  0  0  0  0  0  0  0
    3.7320   -0.0000    0.0000 C   0  0  0  0  0  0  0  0  0  0  0  0
    5.1168    1.9696    0.0000 C   0  0  0  0  0  0  0  0  0  0  0  0
    4.1405    0.9849    0.0000 C   0  0  0  0  0  0  0  0  0  0  0  0
    6.2753    1.1585    0.0000 C   0  0  0  0  0  0  0  0  0  0  0  0
    6.9939   -0.5000    0.0000 C   0  0  0  0  0  0  0  0  0  0  0  0
    4.5981   -1.5000    0.0000 C   0  0  0  0  0  0  0  0  0  0  0  0
    4.5981    2.5000    0.0000 C   0  0  0  0  0  0  0  0  0  0  0  0
    3.5981    1.5000    0.0000 C   0  0  0  0  0  0  0  0  0  0  0  0
    5.5981    1.5000    0.0000 C   0  0  0  0  0  0  0  0  0  0  0  0
    7.8989    1.6404    0.0000 C   0  0  0  0  0  0  0  0  0  0  0  0
    7.8225    0.2283    0.0000 C   0  0  0  0  0  0  0  0  0  0  0  0
    6.9484    1.9511    0.0000 C   0  0  0  0  0  0  0  0  0  0  0  0
    2.0000   -2.0000    0.0000 C   0  0  0  0  0  0  0  0  0  0  0  0
    3.3660   -2.3660    0.0000 C   0  0  0  0  0  0  0  0  0  0  0  0
    2.3660   -0.6340    0.0000 C   0  0  0  0  0  0  0  0  0  0  0  0
    5.7274    2.0773    0.0000 H   0  0  0  0  0  0  0  0  0  0  0  0
    5.0091    2.5802    0.0000 H   0  0  0  0  0  0  0  0  0  0  0  0
    4.5062    1.8620    0.0000 H   0  0  0  0  0  0  0  0  0  0  0  0
    4.1405    1.6049    0.0000 H   0  0  0  0  0  0  0  0  0  0  0  0
    3.5204    0.9850    0.0000 H   0  0  0  0  0  0  0  0  0  0  0  0
    4.1404    0.3649    0.0000 H   0  0  0  0  0  0  0  0  0  0  0  0
    6.3829    0.5479    0.0000 H   0  0  0  0  0  0  0  0  0  0  0  0
    6.8858    1.2661    0.0000 H   0  0  0  0  0  0  0  0  0  0  0  0
    6.1676    1.7690    0.0000 H   0  0  0  0  0  0  0  0  0  0  0  0
    5.2181    2.5000    0.0000 H   0  0  0  0  0  0  0  0  0  0  0  0
    4.5981    3.1200    0.0000 H   0  0  0  0  0  0  0  0  0  0  0  0
    3.9781    2.5000    0.0000 H   0  0  0  0  0  0  0  0  0  0  0  0
    3.5981    2.1200    0.0000 H   0  0  0  0  0  0  0  0  0  0  0  0
    2.9781    1.5000    0.0000 H   0  0  0  0  0  0  0  0  0  0  0  0
    3.5981    0.8800    0.0000 H   0  0  0  0  0  0  0  0  0  0  0  0
    5.5981    0.8800    0.0000 H   0  0  0  0  0  0  0  0  0  0  0  0
    6.2181    1.5000    0.0000 H   0  0  0  0  0  0  0  0  0  0  0  0
    5.5981    2.1200    0.0000 H   0  0  0  0  0  0  0  0  0  0  0  0
    8.3130    1.1790    0.0000 H   0  0  0  0  0  0  0  0  0  0  0  0
    8.3604    2.0545    0.0000 H   0  0  0  0  0  0  0  0  0  0  0  0
    7.4849    2.1019    0.0000 H   0  0  0  0  0  0  0  0  0  0  0  0
    7.3610   -0.1858    0.0000 H   0  0  0  0  0  0  0  0  0  0  0  0
    8.2365   -0.2332    0.0000 H   0  0  0  0  0  0  0  0  0  0  0  0
    8.2839    0.6423    0.0000 H   0  0  0  0  0  0  0  0  0  0  0  0
    7.5551    2.0789    0.0000 H   0  0  0  0  0  0  0  0  0  0  0  0
    6.8206    2.5578    0.0000 H   0  0  0  0  0  0  0  0  0  0  0  0
    6.3417    1.8232    0.0000 H   0  0  0  0  0  0  0  0  0  0  0  0
    1.6900   -1.4631    0.0000 H   0  0  0  0  0  0  0  0  0  0  0  0
    1.4631   -2.3100    0.0000 H   0  0  0  0  0  0  0  0  0  0  0  0
    2.3100   -2.5369    0.0000 H   0  0  0  0  0  0  0  0  0  0  0  0
    2.8291   -2.6760    0.0000 H   0  0  0  0  0  0  0  0  0  0  0  0
    3.6760   -2.9030    0.0000 H   0  0  0  0  0  0  0  0  0  0  0  0
    3.9030   -2.0560    0.0000 H   0  0  0  0  0  0  0  0  0  0  0  0
    2.9030   -0.3240    0.0000 H   0  0  0  0  0  0  0  0  0  0  0  0
    2.0560   -0.0970    0.0000 H   0  0  0  0  0  0  0  0  0  0  0  0
    1.8291   -0.9440    0.0000 H   0  0  0  0  0  0  0  0  0  0  0  0
  1 12  1  0  0  0  0
  1 15  1  0  0  0  0
  1 16  1  0  0  0  0
  1 17  1  0  0  0  0
  2  8  1  0  0  0  0
  2 20  1  0  0  0  0
  2 21  1  0  0  0  0
  2 22  1  0  0  0  0
  3  9  1  0  0  0  0
  3 23  1  0  0  0  0
  3 24  1  0  0  0  0
  3 25  1  0  0  0  0
  4 10  1  0  0  0  0
  4 26  1  0  0  0  0
  4 27  1  0  0  0  0
  4 28  1  0  0  0  0
  5 14  2  0  0  0  0
  6 18  2  0  0  0  0
  7 19  2  0  0  0  0
  8 12  1  0  0  0  0
  8 14  1  0  0  0  0
  9 12  1  0  0  0  0
  9 18  1  0  0  0  0
 10 14  1  0  0  0  0
 10 19  1  0  0  0  0
 11 13  2  0  0  0  0
 11 18  1  0  0  0  0
 12 13  1  0  0  0  0
 13 19  1  0  0  0  0
 15 29  1  0  0  0  0
 15 30  1  0  0  0  0
 15 31  1  0  0  0  0
 16 32  1  0  0  0  0
 16 33  1  0  0  0  0
 16 34  1  0  0  0  0
 17 35  1  0  0  0  0
 17 36  1  0  0  0  0
 17 37  1  0  0  0  0
 20 38  1  0  0  0  0
 20 39  1  0  0  0  0
 20 40  1  0  0  0  0
 21 41  1  0  0  0  0
 21 42  1  0  0  0  0
 21 43  1  0  0  0  0
 22 44  1  0  0  0  0
 22 45  1  0  0  0  0
 22 46  1  0  0  0  0
 23 47  1  0  0  0  0
 23 48  1  0  0  0  0
 23 49  1  0  0  0  0
 24 50  1  0  0  0  0
 24 51  1  0  0  0  0
 24 52  1  0  0  0  0
 25 53  1  0  0  0  0
 25 54  1  0  0  0  0
 25 55  1  0  0  0  0
 26 56  1  0  0  0  0
 26 57  1  0  0  0  0
 26 58  1  0  0  0  0
 27 59  1  0  0  0  0
 27 60  1  0  0  0  0
 27 61  1  0  0  0  0
 28 62  1  0  0  0  0
 28 63  1  0  0  0  0
 28 64  1  0  0  0  0
M  END
> <PUBCHEM_COMPOUND_CID>
521642
> <PUBCHEM_COMPOUND_CANONICALIZED>
1
> <PUBCHEM_CACTVS_COMPLEXITY>
771
> <PUBCHEM_CACTVS_HBOND_ACCEPTOR>
3
> <PUBCHEM_CACTVS_HBOND_DONOR>
0
> <PUBCHEM_CACTVS_ROTATABLE_BOND>
4
> <PUBCHEM_CACTVS_SUBSKEYS>
AAADcfB7sAwAAAAAAAAAAAAAAAAAAQAAAAAsAAAAAAAAAEAAAAAAHhABAAAACAgBoABDAAIAAAEoAQEwFAAAAAAAAAAAAAEAAACAAAgAQAAEAAAIBSIAAAAAAAAAAAAAAAAAAAAAAAAAAAAAAAAAAAAAAA==
> <PUBCHEM_IUPAC_OPENEYE_NAME>
1,3,4,9-tetrakis(trimethylsilyl)purine-2,6,8-trione
> <PUBCHEM_IUPAC_CAS_NAME>
1,3,4,9-tetrakis(trimethylsilyl)purine-2,6,8-trione
> <PUBCHEM_IUPAC_NAME_MARKUP>
1,3,4,9-tetrakis(trimethylsilyl)purine-2,6,8-trione
> <PUBCHEM_IUPAC_NAME>
1,3,4,9-tetrakis(trimethylsilyl)purine-2,6,8-trione
> <PUBCHEM_IUPAC_SYSTEMATIC_NAME>
1,3,4,9-tetrakis(trimethylsilyl)purine-2,6,8-trione
> <PUBCHEM_IUPAC_TRADITIONAL_NAME>
1,3,4,9-tetrakis(trimethylsilyl)uric acid
> <PUBCHEM_IUPAC_INCHI>
InChI=1S/C17H36N4O3Si4/c1-25(2,3)17-13(18-15(23)20(17)27(7,8)9)14(22)19(26(4,5)6)16(24)21(17)28(10,11)12/h1-12H3
> <PUBCHEM_IUPAC_INCHIKEY>
ZLRODCMJWNXARV-UHFFFAOYSA-N
> <PUBCHEM_EXACT_MASS>
456.18644716
> <PUBCHEM_MOLECULAR_FORMULA>
C17H36N4O3Si4
> <PUBCHEM_MOLECULAR_WEIGHT>
456.8
> <PUBCHEM_OPENEYE_CAN_SMILES>
C[Si](C)(C)C12C(=NC(=O)N1[Si](C)(C)C)C(=O)N(C(=O)N2[Si](C)(C)C)[Si](C)(C)C
> <PUBCHEM_OPENEYE_ISO_SMILES>
C[Si](C)(C)C12C(=NC(=O)N1[Si](C)(C)C)C(=O)N(C(=O)N2[Si](C)(C)C)[Si](C)(C)C
> <PUBCHEM_CACTVS_TPSA>
73.3
> <PUBCHEM_MONOISOTOPIC_WEIGHT>
456.18644716
> <PUBCHEM_TOTAL_CHARGE>
0
> <PUBCHEM_HEAVY_ATOM_COUNT>
28
> <PUBCHEM_ATOM_DEF_STEREO_COUNT>
0
> <PUBCHEM_ATOM_UDEF_STEREO_COUNT>
1
> <PUBCHEM_BOND_DEF_STEREO_COUNT>
0
> <PUBCHEM_BOND_UDEF_STEREO_COUNT>
0
> <PUBCHEM_ISOTOPIC_ATOM_COUNT>
0
> <PUBCHEM_COMPONENT_COUNT>
1
> <PUBCHEM_CACTVS_TAUTO_COUNT>
1
> <PUBCHEM_COORDINATE_TYPE>
1
5
255
> <PUBCHEM_BONDANNOTATIONS>
12  1  3
$$$$
