521604
  -OEChem-10302200292D
 83 82  0     1  0  0  0  0  0999 V2000
    9.7942   -0.4330    0.0000 C   0  0  3  0  0  0  0  0  0  0  0  0
   10.6603    0.0670    0.0000 C   0  0  0  0  0  0  0  0  0  0  0  0
    8.9282   -0.9330    0.0000 C   0  0  0  0  0  0  0  0  0  0  0  0
    9.2942    0.4330    0.0000 C   0  0  0  0  0  0  0  0  0  0  0  0
   10.2942   -1.2990    0.0000 C   0  0  0  0  0  0  0  0  0  0  0  0
   11.5263   -0.4330    0.0000 C   0  0  0  0  0  0  0  0  0  0  0  0
    8.0622   -0.4330    0.0000 C   0  0  0  0  0  0  0  0  0  0  0  0
    9.7942    1.2990    0.0000 C   0  0  0  0  0  0  0  0  0  0  0  0
   12.3923    0.0670    0.0000 C   0  0  0  0  0  0  0  0  0  0  0  0
    7.1962   -0.9330    0.0000 C   0  0  0  0  0  0  0  0  0  0  0  0
    9.7942   -2.1651    0.0000 C   0  0  0  0  0  0  0  0  0  0  0  0
   13.2583   -0.4330    0.0000 C   0  0  0  0  0  0  0  0  0  0  0  0
    6.3301   -0.4330    0.0000 C   0  0  0  0  0  0  0  0  0  0  0  0
    9.2942    2.1651    0.0000 C   0  0  0  0  0  0  0  0  0  0  0  0
   14.1244    0.0670    0.0000 C   0  0  0  0  0  0  0  0  0  0  0  0
    5.4641   -0.9330    0.0000 C   0  0  0  0  0  0  0  0  0  0  0  0
   14.9904   -0.4330    0.0000 C   0  0  0  0  0  0  0  0  0  0  0  0
    4.5981   -0.4330    0.0000 C   0  0  0  0  0  0  0  0  0  0  0  0
   15.8564    0.0670    0.0000 C   0  0  0  0  0  0  0  0  0  0  0  0
    3.7320   -0.9330    0.0000 C   0  0  0  0  0  0  0  0  0  0  0  0
   16.7224   -0.4330    0.0000 C   0  0  0  0  0  0  0  0  0  0  0  0
   17.5885    0.0670    0.0000 C   0  0  0  0  0  0  0  0  0  0  0  0
    2.8660   -0.4330    0.0000 C   0  0  0  0  0  0  0  0  0  0  0  0
   18.4545   -0.4330    0.0000 C   0  0  0  0  0  0  0  0  0  0  0  0
   19.3205    0.0670    0.0000 C   0  0  0  0  0  0  0  0  0  0  0  0
    2.0000   -0.9330    0.0000 C   0  0  0  0  0  0  0  0  0  0  0  0
   20.1865   -0.4330    0.0000 C   0  0  0  0  0  0  0  0  0  0  0  0
   11.0588    0.5419    0.0000 H   0  0  0  0  0  0  0  0  0  0  0  0
   10.2617    0.5419    0.0000 H   0  0  0  0  0  0  0  0  0  0  0  0
    8.5297   -1.4080    0.0000 H   0  0  0  0  0  0  0  0  0  0  0  0
    9.3267   -1.4080    0.0000 H   0  0  0  0  0  0  0  0  0  0  0  0
    8.8193    0.8315    0.0000 H   0  0  0  0  0  0  0  0  0  0  0  0
    8.8193    0.0345    0.0000 H   0  0  0  0  0  0  0  0  0  0  0  0
   10.7692   -1.6976    0.0000 H   0  0  0  0  0  0  0  0  0  0  0  0
   10.7692   -0.9005    0.0000 H   0  0  0  0  0  0  0  0  0  0  0  0
   11.1278   -0.9080    0.0000 H   0  0  0  0  0  0  0  0  0  0  0  0
   11.9248   -0.9080    0.0000 H   0  0  0  0  0  0  0  0  0  0  0  0
    8.4607    0.0419    0.0000 H   0  0  0  0  0  0  0  0  0  0  0  0
    7.6636    0.0419    0.0000 H   0  0  0  0  0  0  0  0  0  0  0  0
   10.2692    0.9005    0.0000 H   0  0  0  0  0  0  0  0  0  0  0  0
   10.2692    1.6976    0.0000 H   0  0  0  0  0  0  0  0  0  0  0  0
   12.7908    0.5419    0.0000 H   0  0  0  0  0  0  0  0  0  0  0  0
   11.9938    0.5419    0.0000 H   0  0  0  0  0  0  0  0  0  0  0  0
    6.7976   -1.4080    0.0000 H   0  0  0  0  0  0  0  0  0  0  0  0
    7.5947   -1.4080    0.0000 H   0  0  0  0  0  0  0  0  0  0  0  0
    9.2573   -1.8551    0.0000 H   0  0  0  0  0  0  0  0  0  0  0  0
    9.4842   -2.7020    0.0000 H   0  0  0  0  0  0  0  0  0  0  0  0
   10.3312   -2.4751    0.0000 H   0  0  0  0  0  0  0  0  0  0  0  0
   12.8598   -0.9080    0.0000 H   0  0  0  0  0  0  0  0  0  0  0  0
   13.6569   -0.9080    0.0000 H   0  0  0  0  0  0  0  0  0  0  0  0
    6.7287    0.0419    0.0000 H   0  0  0  0  0  0  0  0  0  0  0  0
    5.9316    0.0419    0.0000 H   0  0  0  0  0  0  0  0  0  0  0  0
    9.8312    2.4751    0.0000 H   0  0  0  0  0  0  0  0  0  0  0  0
    8.9842    2.7020    0.0000 H   0  0  0  0  0  0  0  0  0  0  0  0
    8.7573    1.8551    0.0000 H   0  0  0  0  0  0  0  0  0  0  0  0
   14.5229    0.5419    0.0000 H   0  0  0  0  0  0  0  0  0  0  0  0
   13.7258    0.5419    0.0000 H   0  0  0  0  0  0  0  0  0  0  0  0
    5.0656   -1.4080    0.0000 H   0  0  0  0  0  0  0  0  0  0  0  0
    5.8626   -1.4080    0.0000 H   0  0  0  0  0  0  0  0  0  0  0  0
   14.5919   -0.9080    0.0000 H   0  0  0  0  0  0  0  0  0  0  0  0
   15.3889   -0.9080    0.0000 H   0  0  0  0  0  0  0  0  0  0  0  0
    4.9966    0.0419    0.0000 H   0  0  0  0  0  0  0  0  0  0  0  0
    4.1996    0.0419    0.0000 H   0  0  0  0  0  0  0  0  0  0  0  0
   16.2549    0.5419    0.0000 H   0  0  0  0  0  0  0  0  0  0  0  0
   15.4579    0.5419    0.0000 H   0  0  0  0  0  0  0  0  0  0  0  0
    3.3335   -1.4080    0.0000 H   0  0  0  0  0  0  0  0  0  0  0  0
    4.1306   -1.4080    0.0000 H   0  0  0  0  0  0  0  0  0  0  0  0
   16.3239   -0.9080    0.0000 H   0  0  0  0  0  0  0  0  0  0  0  0
   17.1210   -0.9080    0.0000 H   0  0  0  0  0  0  0  0  0  0  0  0
   17.9870    0.5419    0.0000 H   0  0  0  0  0  0  0  0  0  0  0  0
   17.1899    0.5419    0.0000 H   0  0  0  0  0  0  0  0  0  0  0  0
    3.2646    0.0419    0.0000 H   0  0  0  0  0  0  0  0  0  0  0  0
    2.4675    0.0419    0.0000 H   0  0  0  0  0  0  0  0  0  0  0  0
   18.0560   -0.9080    0.0000 H   0  0  0  0  0  0  0  0  0  0  0  0
   18.8530   -0.9080    0.0000 H   0  0  0  0  0  0  0  0  0  0  0  0
   19.7190    0.5419    0.0000 H   0  0  0  0  0  0  0  0  0  0  0  0
   18.9220    0.5419    0.0000 H   0  0  0  0  0  0  0  0  0  0  0  0
    1.6900   -0.3961    0.0000 H   0  0  0  0  0  0  0  0  0  0  0  0
    1.4631   -1.2430    0.0000 H   0  0  0  0  0  0  0  0  0  0  0  0
    2.3100   -1.4700    0.0000 H   0  0  0  0  0  0  0  0  0  0  0  0
   19.8765   -0.9699    0.0000 H   0  0  0  0  0  0  0  0  0  0  0  0
   20.7235   -0.7430    0.0000 H   0  0  0  0  0  0  0  0  0  0  0  0
   20.4965    0.1039    0.0000 H   0  0  0  0  0  0  0  0  0  0  0  0
  1  2  1  0  0  0  0
  1  3  1  0  0  0  0
  1  4  1  0  0  0  0
  1  5  1  0  0  0  0
  2  6  1  0  0  0  0
  2 28  1  0  0  0  0
  2 29  1  0  0  0  0
  3  7  1  0  0  0  0
  3 30  1  0  0  0  0
  3 31  1  0  0  0  0
  4  8  1  0  0  0  0
  4 32  1  0  0  0  0
  4 33  1  0  0  0  0
  5 11  1  0  0  0  0
  5 34  1  0  0  0  0
  5 35  1  0  0  0  0
  6  9  1  0  0  0  0
  6 36  1  0  0  0  0
  6 37  1  0  0  0  0
  7 10  1  0  0  0  0
  7 38  1  0  0  0  0
  7 39  1  0  0  0  0
  8 14  1  0  0  0  0
  8 40  1  0  0  0  0
  8 41  1  0  0  0  0
  9 12  1  0  0  0  0
  9 42  1  0  0  0  0
  9 43  1  0  0  0  0
 10 13  1  0  0  0  0
 10 44  1  0  0  0  0
 10 45  1  0  0  0  0
 11 46  1  0  0  0  0
 11 47  1  0  0  0  0
 11 48  1  0  0  0  0
 12 15  1  0  0  0  0
 12 49  1  0  0  0  0
 12 50  1  0  0  0  0
 13 16  1  0  0  0  0
 13 51  1  0  0  0  0
 13 52  1  0  0  0  0
 14 53  1  0  0  0  0
 14 54  1  0  0  0  0
 14 55  1  0  0  0  0
 15 17  1  0  0  0  0
 15 56  1  0  0  0  0
 15 57  1  0  0  0  0
 16 18  1  0  0  0  0
 16 58  1  0  0  0  0
 16 59  1  0  0  0  0
 17 19  1  0  0  0  0
 17 60  1  0  0  0  0
 17 61  1  0  0  0  0
 18 20  1  0  0  0  0
 18 62  1  0  0  0  0
 18 63  1  0  0  0  0
 19 21  1  0  0  0  0
 19 64  1  0  0  0  0
 19 65  1  0  0  0  0
 20 23  1  0  0  0  0
 20 66  1  0  0  0  0
 20 67  1  0  0  0  0
 21 22  1  0  0  0  0
 21 68  1  0  0  0  0
 21 69  1  0  0  0  0
 22 24  1  0  0  0  0
 22 70  1  0  0  0  0
 22 71  1  0  0  0  0
 23 26  1  0  0  0  0
 23 72  1  0  0  0  0
 23 73  1  0  0  0  0
 24 25  1  0  0  0  0
 24 74  1  0  0  0  0
 24 75  1  0  0  0  0
 25 27  1  0  0  0  0
 25 76  1  0  0  0  0
 25 77  1  0  0  0  0
 26 78  1  0  0  0  0
 26 79  1  0  0  0  0
 26 80  1  0  0  0  0
 27 81  1  0  0  0  0
 27 82  1  0  0  0  0
 27 83  1  0  0  0  0
M  END
> <PUBCHEM_COMPOUND_CID>
521604
> <PUBCHEM_COMPOUND_CANONICALIZED>
1
> <PUBCHEM_CACTVS_COMPLEXITY>
269
> <PUBCHEM_CACTVS_HBOND_ACCEPTOR>
0
> <PUBCHEM_CACTVS_HBOND_DONOR>
0
> <PUBCHEM_CACTVS_ROTATABLE_BOND>
22
> <PUBCHEM_CACTVS_SUBSKEYS>
AAADcfB4AAAAAAAAAAAAAAAAAAAAAAAAAAAAAAAAAAAAAAAAAAAAGAAAAAAADgCAAAACAAAAAAAAAAAAAAAAAAAAAAAAAAAAAAAAAAIAAAAAAAAAAAAAAAEAgMAPAAAAAAAAAAAAAAAAAAAAAAAAAAAAAA==
> <PUBCHEM_IUPAC_OPENEYE_NAME>
10-ethyl-10-propyl-docosane
> <PUBCHEM_IUPAC_CAS_NAME>
10-ethyl-10-propyldocosane
> <PUBCHEM_IUPAC_NAME_MARKUP>
10-ethyl-10-propyldocosane
> <PUBCHEM_IUPAC_NAME>
10-ethyl-10-propyldocosane
> <PUBCHEM_IUPAC_SYSTEMATIC_NAME>
10-ethyl-10-propyl-docosane
> <PUBCHEM_IUPAC_TRADITIONAL_NAME>
10-ethyl-10-propyl-docosane
> <PUBCHEM_IUPAC_INCHI>
InChI=1S/C27H56/c1-5-9-11-13-15-16-17-19-21-23-26-27(8-4,24-7-3)25-22-20-18-14-12-10-6-2/h5-26H2,1-4H3
> <PUBCHEM_IUPAC_INCHIKEY>
SAGFXTHPTPNQPD-UHFFFAOYSA-N
> <PUBCHEM_XLOGP3_AA>
14.4
> <PUBCHEM_EXACT_MASS>
380.438201786
> <PUBCHEM_MOLECULAR_FORMULA>
C27H56
> <PUBCHEM_MOLECULAR_WEIGHT>
380.7
> <PUBCHEM_OPENEYE_CAN_SMILES>
CCCCCCCCCCCCC(CC)(CCC)CCCCCCCCC
> <PUBCHEM_OPENEYE_ISO_SMILES>
CCCCCCCCCCCCC(CC)(CCC)CCCCCCCCC
> <PUBCHEM_CACTVS_TPSA>
0
> <PUBCHEM_MONOISOTOPIC_WEIGHT>
380.438201786
> <PUBCHEM_TOTAL_CHARGE>
0
> <PUBCHEM_HEAVY_ATOM_COUNT>
27
> <PUBCHEM_ATOM_DEF_STEREO_COUNT>
0
> <PUBCHEM_ATOM_UDEF_STEREO_COUNT>
1
> <PUBCHEM_BOND_DEF_STEREO_COUNT>
0
> <PUBCHEM_BOND_UDEF_STEREO_COUNT>
0
> <PUBCHEM_ISOTOPIC_ATOM_COUNT>
0
> <PUBCHEM_COMPONENT_COUNT>
1
> <PUBCHEM_CACTVS_TAUTO_COUNT>
1
> <PUBCHEM_COORDINATE_TYPE>
1
5
255
> <PUBCHEM_BONDANNOTATIONS>
1  5  3
$$$$
