521729
  -OEChem-10302200292D
 64 69  0     1  0  0  0  0  0999 V2000
    8.6202    2.0320    0.0000 O   0  0  0  0  0  0  0  0  0  0  0  0
    2.0000   -2.2985    0.0000 O   0  0  0  0  0  0  0  0  0  0  0  0
    5.5301   -2.2743    0.0000 C   0  0  0  0  0  0  0  0  0  0  0  0
    6.3961   -0.7743    0.0000 C   0  0  3  0  0  0  0  0  0  0  0  0
    5.5301   -0.2743    0.0000 C   0  0  3  0  0  0  0  0  0  0  0  0
    7.3062   -0.2675    0.0000 C   0  0  3  0  0  0  0  0  0  0  0  0
    4.6641   -0.7743    0.0000 C   0  0  3  0  0  0  0  0  0  0  0  0
    6.3961   -1.7743    0.0000 C   0  0  0  0  0  0  0  0  0  0  0  0
    7.3142    0.7741    0.0000 C   0  0  3  0  0  0  0  0  0  0  0  0
    6.0301   -3.1404    0.0000 C   0  0  0  0  0  0  0  0  0  0  0  0
    5.0301   -3.1404    0.0000 C   0  0  0  0  0  0  0  0  0  0  0  0
    4.6641   -1.7743    0.0000 C   0  0  0  0  0  0  0  0  0  0  0  0
    5.5141    0.7672    0.0000 C   0  0  0  0  0  0  0  0  0  0  0  0
    6.4121    1.2949    0.0000 C   0  0  0  0  0  0  0  0  0  0  0  0
    8.2893   -0.5925    0.0000 C   0  0  0  0  0  0  0  0  0  0  0  0
    8.3022    1.0839    0.0000 C   0  0  3  0  0  0  0  0  0  0  0  0
    8.9036    0.2410    0.0000 C   0  0  0  0  0  0  0  0  0  0  0  0
    3.7702   -0.2397    0.0000 C   0  0  0  0  0  0  0  0  0  0  0  0
    4.6641    0.2257    0.0000 C   0  0  0  0  0  0  0  0  0  0  0  0
    7.3219    1.7741    0.0000 C   0  0  0  0  0  0  0  0  0  0  0  0
    3.7702   -2.3090    0.0000 C   0  0  0  0  0  0  0  0  0  0  0  0
    2.8641   -0.7535    0.0000 C   0  0  0  0  0  0  0  0  0  0  0  0
    2.8641   -1.7952    0.0000 C   0  0  0  0  0  0  0  0  0  0  0  0
    9.6003    2.2307    0.0000 C   0  0  0  0  0  0  0  0  0  0  0  0
   10.0156    3.1404    0.0000 C   0  0  0  0  0  0  0  0  0  0  0  0
   10.3371    1.5546    0.0000 C   0  0  0  0  0  0  0  0  0  0  0  0
   11.0091    3.0264    0.0000 C   0  0  0  0  0  0  0  0  0  0  0  0
   11.2078    2.0464    0.0000 C   0  0  0  0  0  0  0  0  0  0  0  0
    6.9307   -1.0885    0.0000 H   0  0  0  0  0  0  0  0  0  0  0  0
    6.0647    0.0398    0.0000 H   0  0  0  0  0  0  0  0  0  0  0  0
    7.3646   -0.8847    0.0000 H   0  0  0  0  0  0  0  0  0  0  0  0
    6.6082   -2.3569    0.0000 H   0  0  0  0  0  0  0  0  0  0  0  0
    7.0067   -1.6667    0.0000 H   0  0  0  0  0  0  0  0  0  0  0  0
    6.1378   -3.7509    0.0000 H   0  0  0  0  0  0  0  0  0  0  0  0
    6.6127   -2.9283    0.0000 H   0  0  0  0  0  0  0  0  0  0  0  0
    4.4475   -2.9283    0.0000 H   0  0  0  0  0  0  0  0  0  0  0  0
    4.9225   -3.7509    0.0000 H   0  0  0  0  0  0  0  0  0  0  0  0
    5.2960    1.3476    0.0000 H   0  0  0  0  0  0  0  0  0  0  0  0
    4.9049    0.6517    0.0000 H   0  0  0  0  0  0  0  0  0  0  0  0
    6.8094    1.7709    0.0000 H   0  0  0  0  0  0  0  0  0  0  0  0
    6.0111    1.7678    0.0000 H   0  0  0  0  0  0  0  0  0  0  0  0
    8.0339   -1.1574    0.0000 H   0  0  0  0  0  0  0  0  0  0  0  0
    8.8243   -0.9059    0.0000 H   0  0  0  0  0  0  0  0  0  0  0  0
    7.8682    1.5266    0.0000 H   0  0  0  0  0  0  0  0  0  0  0  0
    9.3613   -0.1772    0.0000 H   0  0  0  0  0  0  0  0  0  0  0  0
    9.3677    0.6522    0.0000 H   0  0  0  0  0  0  0  0  0  0  0  0
    4.1748    0.2301    0.0000 H   0  0  0  0  0  0  0  0  0  0  0  0
    3.3765    0.2393    0.0000 H   0  0  0  0  0  0  0  0  0  0  0  0
    5.2841    0.2257    0.0000 H   0  0  0  0  0  0  0  0  0  0  0  0
    4.6641    0.8457    0.0000 H   0  0  0  0  0  0  0  0  0  0  0  0
    4.0441    0.2257    0.0000 H   0  0  0  0  0  0  0  0  0  0  0  0
    7.9419    1.7693    0.0000 H   0  0  0  0  0  0  0  0  0  0  0  0
    7.3267    2.3941    0.0000 H   0  0  0  0  0  0  0  0  0  0  0  0
    6.7019    1.7789    0.0000 H   0  0  0  0  0  0  0  0  0  0  0  0
    3.7773   -2.9290    0.0000 H   0  0  0  0  0  0  0  0  0  0  0  0
    2.6550   -0.1698    0.0000 H   0  0  0  0  0  0  0  0  0  0  0  0
    2.2532   -0.8596    0.0000 H   0  0  0  0  0  0  0  0  0  0  0  0
   10.1502    3.7456    0.0000 H   0  0  0  0  0  0  0  0  0  0  0  0
    9.4278    3.3375    0.0000 H   0  0  0  0  0  0  0  0  0  0  0  0
   10.2664    0.9386    0.0000 H   0  0  0  0  0  0  0  0  0  0  0  0
   11.6263    3.0854    0.0000 H   0  0  0  0  0  0  0  0  0  0  0  0
   11.0149    3.6464    0.0000 H   0  0  0  0  0  0  0  0  0  0  0  0
   11.4546    1.4776    0.0000 H   0  0  0  0  0  0  0  0  0  0  0  0
   11.7992    2.2324    0.0000 H   0  0  0  0  0  0  0  0  0  0  0  0
  1 16  1  0  0  0  0
  1 24  1  0  0  0  0
  2 23  2  0  0  0  0
  3  8  1  0  0  0  0
  3 10  1  0  0  0  0
  3 11  1  0  0  0  0
  3 12  1  0  0  0  0
  4  5  1  0  0  0  0
  4  6  1  0  0  0  0
  4  8  1  0  0  0  0
  4 29  1  0  0  0  0
  5  7  1  0  0  0  0
  5 13  1  0  0  0  0
  5 30  1  0  0  0  0
  6  9  1  0  0  0  0
  6 15  1  0  0  0  0
  6 31  1  0  0  0  0
  7 12  1  0  0  0  0
  7 18  1  0  0  0  0
  7 19  1  0  0  0  0
  8 32  1  0  0  0  0
  8 33  1  0  0  0  0
  9 14  1  0  0  0  0
  9 16  1  0  0  0  0
  9 20  1  0  0  0  0
 10 11  1  0  0  0  0
 10 34  1  0  0  0  0
 10 35  1  0  0  0  0
 11 36  1  0  0  0  0
 11 37  1  0  0  0  0
 12 21  2  0  0  0  0
 13 14  1  0  0  0  0
 13 38  1  0  0  0  0
 13 39  1  0  0  0  0
 14 40  1  0  0  0  0
 14 41  1  0  0  0  0
 15 17  1  0  0  0  0
 15 42  1  0  0  0  0
 15 43  1  0  0  0  0
 16 17  1  0  0  0  0
 16 44  1  0  0  0  0
 17 45  1  0  0  0  0
 17 46  1  0  0  0  0
 18 22  1  0  0  0  0
 18 47  1  0  0  0  0
 18 48  1  0  0  0  0
 19 49  1  0  0  0  0
 19 50  1  0  0  0  0
 19 51  1  0  0  0  0
 20 52  1  0  0  0  0
 20 53  1  0  0  0  0
 20 54  1  0  0  0  0
 21 23  1  0  0  0  0
 21 55  1  0  0  0  0
 22 23  1  0  0  0  0
 22 56  1  0  0  0  0
 22 57  1  0  0  0  0
 24 25  1  0  0  0  0
 24 26  2  0  0  0  0
 25 27  1  0  0  0  0
 25 58  1  0  0  0  0
 25 59  1  0  0  0  0
 26 28  1  0  0  0  0
 26 60  1  0  0  0  0
 27 28  1  0  0  0  0
 27 61  1  0  0  0  0
 27 62  1  0  0  0  0
 28 63  1  0  0  0  0
 28 64  1  0  0  0  0
M  END
> <PUBCHEM_COMPOUND_CID>
521729
> <PUBCHEM_COMPOUND_CANONICALIZED>
1
> <PUBCHEM_CACTVS_COMPLEXITY>
771
> <PUBCHEM_CACTVS_HBOND_ACCEPTOR>
2
> <PUBCHEM_CACTVS_HBOND_DONOR>
0
> <PUBCHEM_CACTVS_ROTATABLE_BOND>
2
> <PUBCHEM_CACTVS_SUBSKEYS>
AAADcfB4MAAAAAAAAAAAAAAAGAAAAYIAAAAwYIAAAAAAAGDAAAAAGgAAAAAADxSggAICAAAABACIAqBSAAAACAAgIAAACAEAAEgAABIAAQACAAAEgAAIAQOIyPCPgAAAAAAAAACAAAQAACAAAIAADAAAAA==
> <PUBCHEM_IUPAC_OPENEYE_NAME>
17-(cyclopenten-1-yloxy)-10,13-dimethyl-spiro[2,7,8,9,11,12,14,15,16,17-decahydro-1H-cyclopenta[a]phenanthrene-6,1'-cyclopropane]-3-one
> <PUBCHEM_IUPAC_CAS_NAME>
17-(1-cyclopentenyloxy)-10,13-dimethyl-3-spiro[2,7,8,9,11,12,14,15,16,17-decahydro-1H-cyclopenta[a]phenanthrene-6,1'-cyclopropane]one
> <PUBCHEM_IUPAC_NAME_MARKUP>
17-(cyclopenten-1-yloxy)-10,13-dimethylspiro[2,7,8,9,11,12,14,15,16,17-decahydro-1<I>H</I>-cyclopenta[a]phenanthrene-6,1&apos;-cyclopropane]-3-one
> <PUBCHEM_IUPAC_NAME>
17-(cyclopenten-1-yloxy)-10,13-dimethylspiro[2,7,8,9,11,12,14,15,16,17-decahydro-1H-cyclopenta[a]phenanthrene-6,1'-cyclopropane]-3-one
> <PUBCHEM_IUPAC_SYSTEMATIC_NAME>
17-(cyclopenten-1-yloxy)-10,13-dimethyl-spiro[2,7,8,9,11,12,14,15,16,17-decahydro-1H-cyclopenta[a]phenanthrene-6,1'-cyclopropane]-3-one
> <PUBCHEM_IUPAC_TRADITIONAL_NAME>
17-(cyclopenten-1-yloxy)-10,13-dimethyl-spiro[2,7,8,9,11,12,14,15,16,17-decahydro-1H-cyclopenta[a]phenanthrene-6,1'-cyclopropane]-3-one
> <PUBCHEM_IUPAC_INCHI>
InChI=1S/C26H36O2/c1-24-11-9-17(27)15-22(24)26(13-14-26)16-19-20-7-8-23(28-18-5-3-4-6-18)25(20,2)12-10-21(19)24/h5,15,19-21,23H,3-4,6-14,16H2,1-2H3
> <PUBCHEM_IUPAC_INCHIKEY>
HRGXQPKZXILWSB-UHFFFAOYSA-N
> <PUBCHEM_XLOGP3>
5.9
> <PUBCHEM_EXACT_MASS>
380.271530387
> <PUBCHEM_MOLECULAR_FORMULA>
C26H36O2
> <PUBCHEM_MOLECULAR_WEIGHT>
380.6
> <PUBCHEM_OPENEYE_CAN_SMILES>
CC12CCC3C(C1CCC2OC4=CCCC4)CC5(CC5)C6=CC(=O)CCC36C
> <PUBCHEM_OPENEYE_ISO_SMILES>
CC12CCC3C(C1CCC2OC4=CCCC4)CC5(CC5)C6=CC(=O)CCC36C
> <PUBCHEM_CACTVS_TPSA>
26.3
> <PUBCHEM_MONOISOTOPIC_WEIGHT>
380.271530387
> <PUBCHEM_TOTAL_CHARGE>
0
> <PUBCHEM_HEAVY_ATOM_COUNT>
28
> <PUBCHEM_ATOM_DEF_STEREO_COUNT>
0
> <PUBCHEM_ATOM_UDEF_STEREO_COUNT>
6
> <PUBCHEM_BOND_DEF_STEREO_COUNT>
0
> <PUBCHEM_BOND_UDEF_STEREO_COUNT>
0
> <PUBCHEM_ISOTOPIC_ATOM_COUNT>
0
> <PUBCHEM_COMPONENT_COUNT>
1
> <PUBCHEM_CACTVS_TAUTO_COUNT>
-1
> <PUBCHEM_COORDINATE_TYPE>
1
5
255
> <PUBCHEM_BONDANNOTATIONS>
16  1  3
4  8  3
5  13  3
6  15  3
7  19  3
9  20  3
$$$$
