521781
  -OEChem-10302200292D
113112  0     1  0  0  0  0  0999 V2000
   15.8564    0.2500    0.0000 C   0  0  3  0  0  0  0  0  0  0  0  0
   19.3205    0.2500    0.0000 C   0  0  3  0  0  0  0  0  0  0  0  0
   16.7224    0.7500    0.0000 C   0  0  0  0  0  0  0  0  0  0  0  0
   18.4545    0.7500    0.0000 C   0  0  0  0  0  0  0  0  0  0  0  0
   17.5885    0.2500    0.0000 C   0  0  0  0  0  0  0  0  0  0  0  0
   14.9904    0.7500    0.0000 C   0  0  0  0  0  0  0  0  0  0  0  0
   20.1865    0.7500    0.0000 C   0  0  0  0  0  0  0  0  0  0  0  0
   14.1244    0.2500    0.0000 C   0  0  0  0  0  0  0  0  0  0  0  0
   21.0526    0.2500    0.0000 C   0  0  0  0  0  0  0  0  0  0  0  0
   13.2583    0.7500    0.0000 C   0  0  0  0  0  0  0  0  0  0  0  0
   21.9186    0.7500    0.0000 C   0  0  0  0  0  0  0  0  0  0  0  0
   15.8564   -0.7500    0.0000 C   0  0  0  0  0  0  0  0  0  0  0  0
   19.3205   -0.7500    0.0000 C   0  0  0  0  0  0  0  0  0  0  0  0
   12.3923    0.2500    0.0000 C   0  0  0  0  0  0  0  0  0  0  0  0
   22.7846    0.2500    0.0000 C   0  0  0  0  0  0  0  0  0  0  0  0
   11.5263    0.7500    0.0000 C   0  0  0  0  0  0  0  0  0  0  0  0
   23.6506    0.7500    0.0000 C   0  0  0  0  0  0  0  0  0  0  0  0
   10.6603    0.2500    0.0000 C   0  0  0  0  0  0  0  0  0  0  0  0
   24.5167    0.2500    0.0000 C   0  0  0  0  0  0  0  0  0  0  0  0
    9.7942    0.7500    0.0000 C   0  0  0  0  0  0  0  0  0  0  0  0
   25.3827    0.7500    0.0000 C   0  0  0  0  0  0  0  0  0  0  0  0
    8.9282    0.2500    0.0000 C   0  0  0  0  0  0  0  0  0  0  0  0
   26.2487    0.2500    0.0000 C   0  0  0  0  0  0  0  0  0  0  0  0
    8.0622    0.7500    0.0000 C   0  0  0  0  0  0  0  0  0  0  0  0
    7.1962    0.2500    0.0000 C   0  0  0  0  0  0  0  0  0  0  0  0
   27.1147    0.7500    0.0000 C   0  0  0  0  0  0  0  0  0  0  0  0
    6.3301    0.7500    0.0000 C   0  0  0  0  0  0  0  0  0  0  0  0
   27.9808    0.2500    0.0000 C   0  0  0  0  0  0  0  0  0  0  0  0
    5.4641    0.2500    0.0000 C   0  0  0  0  0  0  0  0  0  0  0  0
   28.8468    0.7500    0.0000 C   0  0  0  0  0  0  0  0  0  0  0  0
    4.5981    0.7500    0.0000 C   0  0  0  0  0  0  0  0  0  0  0  0
   29.7128    0.2500    0.0000 C   0  0  0  0  0  0  0  0  0  0  0  0
    3.7320    0.2500    0.0000 C   0  0  0  0  0  0  0  0  0  0  0  0
   30.5788    0.7500    0.0000 C   0  0  0  0  0  0  0  0  0  0  0  0
    2.8660    0.7500    0.0000 C   0  0  0  0  0  0  0  0  0  0  0  0
   31.4449    0.2500    0.0000 C   0  0  0  0  0  0  0  0  0  0  0  0
    2.0000    0.2500    0.0000 C   0  0  0  0  0  0  0  0  0  0  0  0
   16.3933   -0.0600    0.0000 H   0  0  0  0  0  0  0  0  0  0  0  0
   19.8574   -0.0600    0.0000 H   0  0  0  0  0  0  0  0  0  0  0  0
   17.1210    1.2250    0.0000 H   0  0  0  0  0  0  0  0  0  0  0  0
   16.3239    1.2250    0.0000 H   0  0  0  0  0  0  0  0  0  0  0  0
   18.8530    1.2250    0.0000 H   0  0  0  0  0  0  0  0  0  0  0  0
   18.0560    1.2250    0.0000 H   0  0  0  0  0  0  0  0  0  0  0  0
   17.1899   -0.2249    0.0000 H   0  0  0  0  0  0  0  0  0  0  0  0
   17.9870   -0.2249    0.0000 H   0  0  0  0  0  0  0  0  0  0  0  0
   15.3889    1.2250    0.0000 H   0  0  0  0  0  0  0  0  0  0  0  0
   14.5919    1.2250    0.0000 H   0  0  0  0  0  0  0  0  0  0  0  0
   20.5851    1.2250    0.0000 H   0  0  0  0  0  0  0  0  0  0  0  0
   19.7880    1.2250    0.0000 H   0  0  0  0  0  0  0  0  0  0  0  0
   13.7258   -0.2249    0.0000 H   0  0  0  0  0  0  0  0  0  0  0  0
   14.5229   -0.2249    0.0000 H   0  0  0  0  0  0  0  0  0  0  0  0
   20.6540   -0.2249    0.0000 H   0  0  0  0  0  0  0  0  0  0  0  0
   21.4511   -0.2249    0.0000 H   0  0  0  0  0  0  0  0  0  0  0  0
   13.6569    1.2250    0.0000 H   0  0  0  0  0  0  0  0  0  0  0  0
   12.8598    1.2250    0.0000 H   0  0  0  0  0  0  0  0  0  0  0  0
   22.3171    1.2250    0.0000 H   0  0  0  0  0  0  0  0  0  0  0  0
   21.5201    1.2250    0.0000 H   0  0  0  0  0  0  0  0  0  0  0  0
   15.2364   -0.7500    0.0000 H   0  0  0  0  0  0  0  0  0  0  0  0
   15.8564   -1.3700    0.0000 H   0  0  0  0  0  0  0  0  0  0  0  0
   16.4764   -0.7500    0.0000 H   0  0  0  0  0  0  0  0  0  0  0  0
   18.7005   -0.7500    0.0000 H   0  0  0  0  0  0  0  0  0  0  0  0
   19.3205   -1.3700    0.0000 H   0  0  0  0  0  0  0  0  0  0  0  0
   19.9405   -0.7500    0.0000 H   0  0  0  0  0  0  0  0  0  0  0  0
   11.9938   -0.2249    0.0000 H   0  0  0  0  0  0  0  0  0  0  0  0
   12.7908   -0.2249    0.0000 H   0  0  0  0  0  0  0  0  0  0  0  0
   22.3861   -0.2249    0.0000 H   0  0  0  0  0  0  0  0  0  0  0  0
   23.1831   -0.2249    0.0000 H   0  0  0  0  0  0  0  0  0  0  0  0
   11.9248    1.2250    0.0000 H   0  0  0  0  0  0  0  0  0  0  0  0
   11.1278    1.2250    0.0000 H   0  0  0  0  0  0  0  0  0  0  0  0
   24.0492    1.2250    0.0000 H   0  0  0  0  0  0  0  0  0  0  0  0
   23.2521    1.2250    0.0000 H   0  0  0  0  0  0  0  0  0  0  0  0
   10.2617   -0.2249    0.0000 H   0  0  0  0  0  0  0  0  0  0  0  0
   11.0588   -0.2249    0.0000 H   0  0  0  0  0  0  0  0  0  0  0  0
   24.1181   -0.2249    0.0000 H   0  0  0  0  0  0  0  0  0  0  0  0
   24.9152   -0.2249    0.0000 H   0  0  0  0  0  0  0  0  0  0  0  0
   10.1928    1.2250    0.0000 H   0  0  0  0  0  0  0  0  0  0  0  0
    9.3957    1.2250    0.0000 H   0  0  0  0  0  0  0  0  0  0  0  0
   25.7812    1.2250    0.0000 H   0  0  0  0  0  0  0  0  0  0  0  0
   24.9842    1.2250    0.0000 H   0  0  0  0  0  0  0  0  0  0  0  0
    8.5297   -0.2249    0.0000 H   0  0  0  0  0  0  0  0  0  0  0  0
    9.3267   -0.2249    0.0000 H   0  0  0  0  0  0  0  0  0  0  0  0
   25.8502   -0.2249    0.0000 H   0  0  0  0  0  0  0  0  0  0  0  0
   26.6472   -0.2249    0.0000 H   0  0  0  0  0  0  0  0  0  0  0  0
    8.4607    1.2250    0.0000 H   0  0  0  0  0  0  0  0  0  0  0  0
    7.6636    1.2250    0.0000 H   0  0  0  0  0  0  0  0  0  0  0  0
    6.7976   -0.2249    0.0000 H   0  0  0  0  0  0  0  0  0  0  0  0
    7.5947   -0.2249    0.0000 H   0  0  0  0  0  0  0  0  0  0  0  0
   27.5133    1.2250    0.0000 H   0  0  0  0  0  0  0  0  0  0  0  0
   26.7162    1.2250    0.0000 H   0  0  0  0  0  0  0  0  0  0  0  0
    6.7287    1.2250    0.0000 H   0  0  0  0  0  0  0  0  0  0  0  0
    5.9316    1.2250    0.0000 H   0  0  0  0  0  0  0  0  0  0  0  0
   27.5822   -0.2249    0.0000 H   0  0  0  0  0  0  0  0  0  0  0  0
   28.3793   -0.2249    0.0000 H   0  0  0  0  0  0  0  0  0  0  0  0
    5.0656   -0.2249    0.0000 H   0  0  0  0  0  0  0  0  0  0  0  0
    5.8626   -0.2249    0.0000 H   0  0  0  0  0  0  0  0  0  0  0  0
   29.2453    1.2250    0.0000 H   0  0  0  0  0  0  0  0  0  0  0  0
   28.4483    1.2250    0.0000 H   0  0  0  0  0  0  0  0  0  0  0  0
    4.9966    1.2250    0.0000 H   0  0  0  0  0  0  0  0  0  0  0  0
    4.1996    1.2250    0.0000 H   0  0  0  0  0  0  0  0  0  0  0  0
   29.3143   -0.2249    0.0000 H   0  0  0  0  0  0  0  0  0  0  0  0
   30.1113   -0.2249    0.0000 H   0  0  0  0  0  0  0  0  0  0  0  0
    3.3335   -0.2249    0.0000 H   0  0  0  0  0  0  0  0  0  0  0  0
    4.1306   -0.2249    0.0000 H   0  0  0  0  0  0  0  0  0  0  0  0
   30.9774    1.2250    0.0000 H   0  0  0  0  0  0  0  0  0  0  0  0
   30.1803    1.2250    0.0000 H   0  0  0  0  0  0  0  0  0  0  0  0
    3.2646    1.2250    0.0000 H   0  0  0  0  0  0  0  0  0  0  0  0
    2.4675    1.2250    0.0000 H   0  0  0  0  0  0  0  0  0  0  0  0
   31.1349   -0.2869    0.0000 H   0  0  0  0  0  0  0  0  0  0  0  0
   31.9818   -0.0600    0.0000 H   0  0  0  0  0  0  0  0  0  0  0  0
   31.7549    0.7869    0.0000 H   0  0  0  0  0  0  0  0  0  0  0  0
    1.6900    0.7869    0.0000 H   0  0  0  0  0  0  0  0  0  0  0  0
    1.4631   -0.0600    0.0000 H   0  0  0  0  0  0  0  0  0  0  0  0
    2.3100   -0.2869    0.0000 H   0  0  0  0  0  0  0  0  0  0  0  0
  1  3  1  0  0  0  0
  1  6  1  0  0  0  0
  1 12  1  0  0  0  0
  1 38  1  0  0  0  0
  2  4  1  0  0  0  0
  2  7  1  0  0  0  0
  2 13  1  0  0  0  0
  2 39  1  0  0  0  0
  3  5  1  0  0  0  0
  3 40  1  0  0  0  0
  3 41  1  0  0  0  0
  4  5  1  0  0  0  0
  4 42  1  0  0  0  0
  4 43  1  0  0  0  0
  5 44  1  0  0  0  0
  5 45  1  0  0  0  0
  6  8  1  0  0  0  0
  6 46  1  0  0  0  0
  6 47  1  0  0  0  0
  7  9  1  0  0  0  0
  7 48  1  0  0  0  0
  7 49  1  0  0  0  0
  8 10  1  0  0  0  0
  8 50  1  0  0  0  0
  8 51  1  0  0  0  0
  9 11  1  0  0  0  0
  9 52  1  0  0  0  0
  9 53  1  0  0  0  0
 10 14  1  0  0  0  0
 10 54  1  0  0  0  0
 10 55  1  0  0  0  0
 11 15  1  0  0  0  0
 11 56  1  0  0  0  0
 11 57  1  0  0  0  0
 12 58  1  0  0  0  0
 12 59  1  0  0  0  0
 12 60  1  0  0  0  0
 13 61  1  0  0  0  0
 13 62  1  0  0  0  0
 13 63  1  0  0  0  0
 14 16  1  0  0  0  0
 14 64  1  0  0  0  0
 14 65  1  0  0  0  0
 15 17  1  0  0  0  0
 15 66  1  0  0  0  0
 15 67  1  0  0  0  0
 16 18  1  0  0  0  0
 16 68  1  0  0  0  0
 16 69  1  0  0  0  0
 17 19  1  0  0  0  0
 17 70  1  0  0  0  0
 17 71  1  0  0  0  0
 18 20  1  0  0  0  0
 18 72  1  0  0  0  0
 18 73  1  0  0  0  0
 19 21  1  0  0  0  0
 19 74  1  0  0  0  0
 19 75  1  0  0  0  0
 20 22  1  0  0  0  0
 20 76  1  0  0  0  0
 20 77  1  0  0  0  0
 21 23  1  0  0  0  0
 21 78  1  0  0  0  0
 21 79  1  0  0  0  0
 22 24  1  0  0  0  0
 22 80  1  0  0  0  0
 22 81  1  0  0  0  0
 23 26  1  0  0  0  0
 23 82  1  0  0  0  0
 23 83  1  0  0  0  0
 24 25  1  0  0  0  0
 24 84  1  0  0  0  0
 24 85  1  0  0  0  0
 25 27  1  0  0  0  0
 25 86  1  0  0  0  0
 25 87  1  0  0  0  0
 26 28  1  0  0  0  0
 26 88  1  0  0  0  0
 26 89  1  0  0  0  0
 27 29  1  0  0  0  0
 27 90  1  0  0  0  0
 27 91  1  0  0  0  0
 28 30  1  0  0  0  0
 28 92  1  0  0  0  0
 28 93  1  0  0  0  0
 29 31  1  0  0  0  0
 29 94  1  0  0  0  0
 29 95  1  0  0  0  0
 30 32  1  0  0  0  0
 30 96  1  0  0  0  0
 30 97  1  0  0  0  0
 31 33  1  0  0  0  0
 31 98  1  0  0  0  0
 31 99  1  0  0  0  0
 32 34  1  0  0  0  0
 32100  1  0  0  0  0
 32101  1  0  0  0  0
 33 35  1  0  0  0  0
 33102  1  0  0  0  0
 33103  1  0  0  0  0
 34 36  1  0  0  0  0
 34104  1  0  0  0  0
 34105  1  0  0  0  0
 35 37  1  0  0  0  0
 35106  1  0  0  0  0
 35107  1  0  0  0  0
 36108  1  0  0  0  0
 36109  1  0  0  0  0
 36110  1  0  0  0  0
 37111  1  0  0  0  0
 37112  1  0  0  0  0
 37113  1  0  0  0  0
M  END
> <PUBCHEM_COMPOUND_CID>
521781
> <PUBCHEM_COMPOUND_CANONICALIZED>
1
> <PUBCHEM_CACTVS_COMPLEXITY>
386
> <PUBCHEM_CACTVS_HBOND_ACCEPTOR>
0
> <PUBCHEM_CACTVS_HBOND_DONOR>
0
> <PUBCHEM_CACTVS_ROTATABLE_BOND>
32
> <PUBCHEM_CACTVS_SUBSKEYS>
AAADcfB8AAAAAAAAAAAAAAAAAAAAAAAAAAAAAAAAAAAAAAAAAAAAGAAAAAAADQCAAAACAAAAAAAAAAAAAAAAAAAAAAAAAAAAAAAAAAIAAAAAAAAAAAAAAAEAgMAOAAAAAAAAAAAAAAAAAAAAAAAAAAAAAA==
> <PUBCHEM_IUPAC_OPENEYE_NAME>
15,19-dimethylpentatriacontane
> <PUBCHEM_IUPAC_CAS_NAME>
15,19-dimethylpentatriacontane
> <PUBCHEM_IUPAC_NAME_MARKUP>
15,19-dimethylpentatriacontane
> <PUBCHEM_IUPAC_NAME>
15,19-dimethylpentatriacontane
> <PUBCHEM_IUPAC_SYSTEMATIC_NAME>
15,19-dimethylpentatriacontane
> <PUBCHEM_IUPAC_TRADITIONAL_NAME>
15,19-dimethylpentatriacontane
> <PUBCHEM_IUPAC_INCHI>
InChI=1S/C37H76/c1-5-7-9-11-13-15-17-19-20-22-24-26-28-30-33-37(4)35-31-34-36(3)32-29-27-25-23-21-18-16-14-12-10-8-6-2/h36-37H,5-35H2,1-4H3
> <PUBCHEM_IUPAC_INCHIKEY>
XDMQCULQPXRKOB-UHFFFAOYSA-N
> <PUBCHEM_XLOGP3_AA>
19.7
> <PUBCHEM_EXACT_MASS>
520.59470242
> <PUBCHEM_MOLECULAR_FORMULA>
C37H76
> <PUBCHEM_MOLECULAR_WEIGHT>
521.0
> <PUBCHEM_OPENEYE_CAN_SMILES>
CCCCCCCCCCCCCCCCC(C)CCCC(C)CCCCCCCCCCCCCC
> <PUBCHEM_OPENEYE_ISO_SMILES>
CCCCCCCCCCCCCCCCC(C)CCCC(C)CCCCCCCCCCCCCC
> <PUBCHEM_CACTVS_TPSA>
0
> <PUBCHEM_MONOISOTOPIC_WEIGHT>
520.59470242
> <PUBCHEM_TOTAL_CHARGE>
0
> <PUBCHEM_HEAVY_ATOM_COUNT>
37
> <PUBCHEM_ATOM_DEF_STEREO_COUNT>
0
> <PUBCHEM_ATOM_UDEF_STEREO_COUNT>
2
> <PUBCHEM_BOND_DEF_STEREO_COUNT>
0
> <PUBCHEM_BOND_UDEF_STEREO_COUNT>
0
> <PUBCHEM_ISOTOPIC_ATOM_COUNT>
0
> <PUBCHEM_COMPONENT_COUNT>
1
> <PUBCHEM_CACTVS_TAUTO_COUNT>
-1
> <PUBCHEM_COORDINATE_TYPE>
1
5
255
> <PUBCHEM_BONDANNOTATIONS>
1  12  3
2  13  3
$$$$
