521750
  -OEChem-10302200292D
 22 24  0     1  0  0  0  0  0999 V2000
    6.3723   -0.1215    0.0000 Cl  0  0  0  0  0  0  0  0  0  0  0  0
    2.0000   -0.3929    0.0000 Cl  0  0  0  0  0  0  0  0  0  0  0  0
    3.4755    1.6462    0.0000 Cl  0  0  0  0  0  0  0  0  0  0  0  0
    5.6511    1.6462    0.0000 Cl  0  0  0  0  0  0  0  0  0  0  0  0
    2.7529   -0.1069    0.0000 Cl  0  0  0  0  0  0  0  0  0  0  0  0
    3.5269    0.4274    0.0000 Cl  0  0  0  0  0  0  0  0  0  0  0  0
    4.5633   -0.7016    0.0000 C   0  0  3  0  0  0  0  0  0  0  0  0
    3.7543   -0.1138    0.0000 C   0  0  3  0  0  0  0  0  0  0  0  0
    3.2596   -1.6454    0.0000 C   0  0  3  0  0  0  0  0  0  0  0  0
    4.2537   -1.6462    0.0000 C   0  0  0  0  0  0  0  0  0  0  0  0
    5.3723   -0.1138    0.0000 C   0  0  3  0  0  0  0  0  0  0  0  0
    2.9516   -0.7002    0.0000 C   0  0  3  0  0  0  0  0  0  0  0  0
    4.0633    0.8372    0.0000 C   0  0  0  0  0  0  0  0  0  0  0  0
    5.0633    0.8372    0.0000 C   0  0  0  0  0  0  0  0  0  0  0  0
    3.5633   -0.6929    0.0000 C   0  0  0  0  0  0  0  0  0  0  0  0
    4.3727   -0.1062    0.0000 C   0  0  0  0  0  0  0  0  0  0  0  0
    5.2503   -1.2021    0.0000 H   0  0  0  0  0  0  0  0  0  0  0  0
    3.0660    0.3849    0.0000 H   0  0  0  0  0  0  0  0  0  0  0  0
    2.7600   -2.3330    0.0000 H   0  0  0  0  0  0  0  0  0  0  0  0
    4.1880   -2.2628    0.0000 H   0  0  0  0  0  0  0  0  0  0  0  0
    4.8599   -1.7764    0.0000 H   0  0  0  0  0  0  0  0  0  0  0  0
    2.8168    0.1390    0.0000 H   0  0  0  0  0  0  0  0  0  0  0  0
  1 11  1  0  0  0  0
  2 12  1  0  0  0  0
  3 13  1  0  0  0  0
  4 14  1  0  0  0  0
  5 15  1  0  0  0  0
  6 16  1  0  0  0  0
  7  8  1  0  0  0  0
  7 10  1  0  0  0  0
  7 11  1  0  0  0  0
  7 17  1  0  0  0  0
  8 12  1  0  0  0  0
  8 13  1  0  0  0  0
  8 18  1  0  0  0  0
  9 10  1  0  0  0  0
  9 12  1  0  0  0  0
  9 15  1  0  0  0  0
  9 19  1  0  0  0  0
 10 20  1  0  0  0  0
 10 21  1  0  0  0  0
 11 14  1  0  0  0  0
 11 16  1  0  0  0  0
 12 22  1  0  0  0  0
 13 14  2  0  0  0  0
 15 16  2  0  0  0  0
M  END
> <PUBCHEM_COMPOUND_CID>
521750
> <PUBCHEM_COMPOUND_CANONICALIZED>
1
> <PUBCHEM_CACTVS_COMPLEXITY>
439
> <PUBCHEM_CACTVS_HBOND_ACCEPTOR>
0
> <PUBCHEM_CACTVS_HBOND_DONOR>
0
> <PUBCHEM_CACTVS_ROTATABLE_BOND>
0
> <PUBCHEM_CACTVS_SUBSKEYS>
AAADcYBwAAAHAAAAAAAAAAAAAAAAAYIAAAAgAAAAAAAQAAAAAAAAGAIAAAAADQOAAEAAAAAAAACAAABAAAAAAAAgAAAACEAAAggAAAIBAAAAAAAAgAAIAAMAgMAOgAAAAAAAAAAAAAAAAAAAARAACIAAAA==
> <PUBCHEM_IUPAC_OPENEYE_NAME>
2,3,4,5,6,10-hexachlorotricyclo[5.2.1.04,8]deca-2,5-diene
> <PUBCHEM_IUPAC_CAS_NAME>
2,3,4,5,6,10-hexachlorotricyclo[5.2.1.04,8]deca-2,5-diene
> <PUBCHEM_IUPAC_NAME_MARKUP>
2,3,4,5,6,10-hexachlorotricyclo[5.2.1.0<SUP>4,8</SUP>]deca-2,5-diene
> <PUBCHEM_IUPAC_NAME>
2,3,4,5,6,10-hexachlorotricyclo[5.2.1.04,8]deca-2,5-diene
> <PUBCHEM_IUPAC_SYSTEMATIC_NAME>
2,3,4,5,6,10-hexakis(chloranyl)tricyclo[5.2.1.04,8]deca-2,5-diene
> <PUBCHEM_IUPAC_TRADITIONAL_NAME>
2,3,4,5,6,10-hexachlorotricyclo[5.2.1.04,8]deca-2,5-diene
> <PUBCHEM_IUPAC_INCHI>
InChI=1S/C10H6Cl6/c11-5-2-1-3-4(5)7(13)9(15)10(3,16)8(14)6(2)12/h2-5H,1H2
> <PUBCHEM_IUPAC_INCHIKEY>
SVGYVZYRIHEIML-UHFFFAOYSA-N
> <PUBCHEM_XLOGP3_AA>
4.2
> <PUBCHEM_EXACT_MASS>
337.857116
> <PUBCHEM_MOLECULAR_FORMULA>
C10H6Cl6
> <PUBCHEM_MOLECULAR_WEIGHT>
338.9
> <PUBCHEM_OPENEYE_CAN_SMILES>
C1C2C(C3C1C(C(=C2Cl)Cl)(C(=C3Cl)Cl)Cl)Cl
> <PUBCHEM_OPENEYE_ISO_SMILES>
C1C2C(C3C1C(C(=C2Cl)Cl)(C(=C3Cl)Cl)Cl)Cl
> <PUBCHEM_CACTVS_TPSA>
0
> <PUBCHEM_MONOISOTOPIC_WEIGHT>
335.860066
> <PUBCHEM_TOTAL_CHARGE>
0
> <PUBCHEM_HEAVY_ATOM_COUNT>
16
> <PUBCHEM_ATOM_DEF_STEREO_COUNT>
0
> <PUBCHEM_ATOM_UDEF_STEREO_COUNT>
5
> <PUBCHEM_BOND_DEF_STEREO_COUNT>
0
> <PUBCHEM_BOND_UDEF_STEREO_COUNT>
0
> <PUBCHEM_ISOTOPIC_ATOM_COUNT>
0
> <PUBCHEM_COMPONENT_COUNT>
1
> <PUBCHEM_CACTVS_TAUTO_COUNT>
1
> <PUBCHEM_COORDINATE_TYPE>
1
5
255
> <PUBCHEM_BONDANNOTATIONS>
11  16  3
12  22  3
7  17  3
8  18  3
9  19  3
$$$$
