521751
  -OEChem-10302200292D
 27 26  0     1  0  0  0  0  0999 V2000
    5.4641    1.0950    0.0000 O   0  0  0  0  0  0  0  0  0  0  0  0
    2.8660   -0.4050    0.0000 O   0  0  0  0  0  0  0  0  0  0  0  0
    8.0622   -0.4050    0.0000 O   0  0  0  0  0  0  0  0  0  0  0  0
    3.7320    1.0950    0.0000 O   0  0  0  0  0  0  0  0  0  0  0  0
    7.1962    1.0950    0.0000 O   0  0  0  0  0  0  0  0  0  0  0  0
    4.5981   -0.4050    0.0000 C   0  0  3  0  0  0  0  0  0  0  0  0
    5.4641    0.0950    0.0000 C   0  0  3  0  0  0  0  0  0  0  0  0
    6.3301   -0.4050    0.0000 C   0  0  0  0  0  0  0  0  0  0  0  0
    4.5981   -1.4050    0.0000 C   0  0  0  0  0  0  0  0  0  0  0  0
    3.7320    0.0950    0.0000 C   0  0  0  0  0  0  0  0  0  0  0  0
    7.1962    0.0950    0.0000 C   0  0  0  0  0  0  0  0  0  0  0  0
    2.0000    0.0950    0.0000 C   0  0  0  0  0  0  0  0  0  0  0  0
    8.9282    0.0950    0.0000 C   0  0  0  0  0  0  0  0  0  0  0  0
    5.1350   -0.7150    0.0000 H   0  0  0  0  0  0  0  0  0  0  0  0
    6.0010    0.4050    0.0000 H   0  0  0  0  0  0  0  0  0  0  0  0
    5.9316   -0.8799    0.0000 H   0  0  0  0  0  0  0  0  0  0  0  0
    6.7287   -0.8799    0.0000 H   0  0  0  0  0  0  0  0  0  0  0  0
    3.9781   -1.4050    0.0000 H   0  0  0  0  0  0  0  0  0  0  0  0
    4.5981   -2.0250    0.0000 H   0  0  0  0  0  0  0  0  0  0  0  0
    5.2181   -1.4050    0.0000 H   0  0  0  0  0  0  0  0  0  0  0  0
    6.0010    1.4050    0.0000 H   0  0  0  0  0  0  0  0  0  0  0  0
    2.3100    0.6319    0.0000 H   0  0  0  0  0  0  0  0  0  0  0  0
    1.4631    0.4050    0.0000 H   0  0  0  0  0  0  0  0  0  0  0  0
    1.6900   -0.4419    0.0000 H   0  0  0  0  0  0  0  0  0  0  0  0
    9.2382   -0.4419    0.0000 H   0  0  0  0  0  0  0  0  0  0  0  0
    9.4651    0.4050    0.0000 H   0  0  0  0  0  0  0  0  0  0  0  0
    8.6182    0.6319    0.0000 H   0  0  0  0  0  0  0  0  0  0  0  0
  1  7  1  0  0  0  0
  1 21  1  0  0  0  0
  2 10  1  0  0  0  0
  2 12  1  0  0  0  0
  3 11  1  0  0  0  0
  3 13  1  0  0  0  0
  4 10  2  0  0  0  0
  5 11  2  0  0  0  0
  6  7  1  0  0  0  0
  6  9  1  0  0  0  0
  6 10  1  0  0  0  0
  6 14  1  0  0  0  0
  7  8  1  0  0  0  0
  7 15  1  0  0  0  0
  8 11  1  0  0  0  0
  8 16  1  0  0  0  0
  8 17  1  0  0  0  0
  9 18  1  0  0  0  0
  9 19  1  0  0  0  0
  9 20  1  0  0  0  0
 12 22  1  0  0  0  0
 12 23  1  0  0  0  0
 12 24  1  0  0  0  0
 13 25  1  0  0  0  0
 13 26  1  0  0  0  0
 13 27  1  0  0  0  0
M  END
> <PUBCHEM_COMPOUND_CID>
521751
> <PUBCHEM_COMPOUND_CANONICALIZED>
1
> <PUBCHEM_CACTVS_COMPLEXITY>
189
> <PUBCHEM_CACTVS_HBOND_ACCEPTOR>
5
> <PUBCHEM_CACTVS_HBOND_DONOR>
1
> <PUBCHEM_CACTVS_ROTATABLE_BOND>
6
> <PUBCHEM_CACTVS_SUBSKEYS>
AAADccBwOAAAAAAAAAAAAAAAAAAAAAAAAAAAAAAAAAAAAAAAAAAAGgAACAAADRSggAICCAAABgAIAACQCAAAAAAAAAAAAAEAAAAAEBYAAAAAQAAFIAAAAACIJggMAAAAAAAAAAAAAAAAAAAAAAAAAAAAAA==
> <PUBCHEM_IUPAC_OPENEYE_NAME>
dimethyl 3-hydroxy-2-methyl-pentanedioate
> <PUBCHEM_IUPAC_CAS_NAME>
3-hydroxy-2-methylpentanedioic acid dimethyl ester
> <PUBCHEM_IUPAC_NAME_MARKUP>
dimethyl 3-hydroxy-2-methylpentanedioate
> <PUBCHEM_IUPAC_NAME>
dimethyl 3-hydroxy-2-methylpentanedioate
> <PUBCHEM_IUPAC_SYSTEMATIC_NAME>
dimethyl 2-methyl-3-oxidanyl-pentanedioate
> <PUBCHEM_IUPAC_TRADITIONAL_NAME>
3-hydroxy-2-methyl-glutaric acid dimethyl ester
> <PUBCHEM_IUPAC_INCHI>
InChI=1S/C8H14O5/c1-5(8(11)13-3)6(9)4-7(10)12-2/h5-6,9H,4H2,1-3H3
> <PUBCHEM_IUPAC_INCHIKEY>
DHANSUDTKPPSJZ-UHFFFAOYSA-N
> <PUBCHEM_XLOGP3_AA>
-0.2
> <PUBCHEM_EXACT_MASS>
190.08412354
> <PUBCHEM_MOLECULAR_FORMULA>
C8H14O5
> <PUBCHEM_MOLECULAR_WEIGHT>
190.19
> <PUBCHEM_OPENEYE_CAN_SMILES>
CC(C(CC(=O)OC)O)C(=O)OC
> <PUBCHEM_OPENEYE_ISO_SMILES>
CC(C(CC(=O)OC)O)C(=O)OC
> <PUBCHEM_CACTVS_TPSA>
72.8
> <PUBCHEM_MONOISOTOPIC_WEIGHT>
190.08412354
> <PUBCHEM_TOTAL_CHARGE>
0
> <PUBCHEM_HEAVY_ATOM_COUNT>
13
> <PUBCHEM_ATOM_DEF_STEREO_COUNT>
0
> <PUBCHEM_ATOM_UDEF_STEREO_COUNT>
2
> <PUBCHEM_BOND_DEF_STEREO_COUNT>
0
> <PUBCHEM_BOND_UDEF_STEREO_COUNT>
0
> <PUBCHEM_ISOTOPIC_ATOM_COUNT>
0
> <PUBCHEM_COMPONENT_COUNT>
1
> <PUBCHEM_CACTVS_TAUTO_COUNT>
-1
> <PUBCHEM_COORDINATE_TYPE>
1
5
255
> <PUBCHEM_BONDANNOTATIONS>
7  1  3
6  9  3
$$$$
