521721
  -OEChem-10302200292D
 35 34  0     1  0  0  0  0  0999 V2000
    8.0622    0.5000    0.0000 O   0  0  0  0  0  0  0  0  0  0  0  0
    7.1962    2.0000    0.0000 O   0  0  0  0  0  0  0  0  0  0  0  0
    6.3301    0.5000    0.0000 C   0  0  3  0  0  0  0  0  0  0  0  0
    5.4641    1.0000    0.0000 C   0  0  0  0  0  0  0  0  0  0  0  0
    4.5981    0.5000    0.0000 C   0  0  0  0  0  0  0  0  0  0  0  0
    6.3301   -0.5000    0.0000 C   0  0  0  0  0  0  0  0  0  0  0  0
    3.7320    1.0000    0.0000 C   0  0  0  0  0  0  0  0  0  0  0  0
    5.4641   -1.0000    0.0000 C   0  0  0  0  0  0  0  0  0  0  0  0
    7.1962    1.0000    0.0000 C   0  0  0  0  0  0  0  0  0  0  0  0
    2.8660    0.5000    0.0000 C   0  0  0  0  0  0  0  0  0  0  0  0
    5.4641   -2.0000    0.0000 C   0  0  0  0  0  0  0  0  0  0  0  0
    2.0000    1.0000    0.0000 C   0  0  0  0  0  0  0  0  0  0  0  0
    8.9282    1.0000    0.0000 C   0  0  0  0  0  0  0  0  0  0  0  0
    6.8671    0.1900    0.0000 H   0  0  0  0  0  0  0  0  0  0  0  0
    5.8626    1.4750    0.0000 H   0  0  0  0  0  0  0  0  0  0  0  0
    5.0656    1.4750    0.0000 H   0  0  0  0  0  0  0  0  0  0  0  0
    4.1996    0.0251    0.0000 H   0  0  0  0  0  0  0  0  0  0  0  0
    4.9966    0.0251    0.0000 H   0  0  0  0  0  0  0  0  0  0  0  0
    6.5422   -1.0826    0.0000 H   0  0  0  0  0  0  0  0  0  0  0  0
    6.9407   -0.3923    0.0000 H   0  0  0  0  0  0  0  0  0  0  0  0
    4.1306    1.4750    0.0000 H   0  0  0  0  0  0  0  0  0  0  0  0
    3.3335    1.4750    0.0000 H   0  0  0  0  0  0  0  0  0  0  0  0
    5.2520   -0.4174    0.0000 H   0  0  0  0  0  0  0  0  0  0  0  0
    4.8535   -1.1077    0.0000 H   0  0  0  0  0  0  0  0  0  0  0  0
    2.4675    0.0251    0.0000 H   0  0  0  0  0  0  0  0  0  0  0  0
    3.2646    0.0251    0.0000 H   0  0  0  0  0  0  0  0  0  0  0  0
    4.8441   -2.0000    0.0000 H   0  0  0  0  0  0  0  0  0  0  0  0
    5.4641   -2.6200    0.0000 H   0  0  0  0  0  0  0  0  0  0  0  0
    6.0841   -2.0000    0.0000 H   0  0  0  0  0  0  0  0  0  0  0  0
    2.3100    1.5369    0.0000 H   0  0  0  0  0  0  0  0  0  0  0  0
    1.4631    1.3100    0.0000 H   0  0  0  0  0  0  0  0  0  0  0  0
    1.6900    0.4631    0.0000 H   0  0  0  0  0  0  0  0  0  0  0  0
    9.2382    0.4631    0.0000 H   0  0  0  0  0  0  0  0  0  0  0  0
    9.4651    1.3100    0.0000 H   0  0  0  0  0  0  0  0  0  0  0  0
    8.6182    1.5369    0.0000 H   0  0  0  0  0  0  0  0  0  0  0  0
  1  9  1  0  0  0  0
  1 13  1  0  0  0  0
  2  9  2  0  0  0  0
  3  4  1  0  0  0  0
  3  6  1  0  0  0  0
  3  9  1  0  0  0  0
  3 14  1  0  0  0  0
  4  5  1  0  0  0  0
  4 15  1  0  0  0  0
  4 16  1  0  0  0  0
  5  7  1  0  0  0  0
  5 17  1  0  0  0  0
  5 18  1  0  0  0  0
  6  8  1  0  0  0  0
  6 19  1  0  0  0  0
  6 20  1  0  0  0  0
  7 10  1  0  0  0  0
  7 21  1  0  0  0  0
  7 22  1  0  0  0  0
  8 11  1  0  0  0  0
  8 23  1  0  0  0  0
  8 24  1  0  0  0  0
 10 12  1  0  0  0  0
 10 25  1  0  0  0  0
 10 26  1  0  0  0  0
 11 27  1  0  0  0  0
 11 28  1  0  0  0  0
 11 29  1  0  0  0  0
 12 30  1  0  0  0  0
 12 31  1  0  0  0  0
 12 32  1  0  0  0  0
 13 33  1  0  0  0  0
 13 34  1  0  0  0  0
 13 35  1  0  0  0  0
M  END
> <PUBCHEM_COMPOUND_CID>
521721
> <PUBCHEM_COMPOUND_CANONICALIZED>
1
> <PUBCHEM_CACTVS_COMPLEXITY>
132
> <PUBCHEM_CACTVS_HBOND_ACCEPTOR>
2
> <PUBCHEM_CACTVS_HBOND_DONOR>
0
> <PUBCHEM_CACTVS_ROTATABLE_BOND>
8
> <PUBCHEM_CACTVS_SUBSKEYS>
AAADceBwMAAAAAAAAAAAAAAAAAAAAAAAAAAAAAAAAAAAAAAAAAAAGgAAAAAADQCAgAICCAAABAAIAACQCAAAAAAAAAAAAAEAAAAAABIAAAAAAAAEAAAAAAGIyOCOAAAAAAAAAAAAAAAAAAAAAAAAAAAAAA==
> <PUBCHEM_IUPAC_OPENEYE_NAME>
methyl 2-propylheptanoate
> <PUBCHEM_IUPAC_CAS_NAME>
2-propylheptanoic acid methyl ester
> <PUBCHEM_IUPAC_NAME_MARKUP>
methyl 2-propylheptanoate
> <PUBCHEM_IUPAC_NAME>
methyl 2-propylheptanoate
> <PUBCHEM_IUPAC_SYSTEMATIC_NAME>
methyl 2-propylheptanoate
> <PUBCHEM_IUPAC_TRADITIONAL_NAME>
2-propylenanthic acid methyl ester
> <PUBCHEM_IUPAC_INCHI>
InChI=1S/C11H22O2/c1-4-6-7-9-10(8-5-2)11(12)13-3/h10H,4-9H2,1-3H3
> <PUBCHEM_IUPAC_INCHIKEY>
IWCYIKHCWOSDAM-UHFFFAOYSA-N
> <PUBCHEM_XLOGP3>
3.5
> <PUBCHEM_EXACT_MASS>
186.161979940
> <PUBCHEM_MOLECULAR_FORMULA>
C11H22O2
> <PUBCHEM_MOLECULAR_WEIGHT>
186.29
> <PUBCHEM_OPENEYE_CAN_SMILES>
CCCCCC(CCC)C(=O)OC
> <PUBCHEM_OPENEYE_ISO_SMILES>
CCCCCC(CCC)C(=O)OC
> <PUBCHEM_CACTVS_TPSA>
26.3
> <PUBCHEM_MONOISOTOPIC_WEIGHT>
186.161979940
> <PUBCHEM_TOTAL_CHARGE>
0
> <PUBCHEM_HEAVY_ATOM_COUNT>
13
> <PUBCHEM_ATOM_DEF_STEREO_COUNT>
0
> <PUBCHEM_ATOM_UDEF_STEREO_COUNT>
1
> <PUBCHEM_BOND_DEF_STEREO_COUNT>
0
> <PUBCHEM_BOND_UDEF_STEREO_COUNT>
0
> <PUBCHEM_ISOTOPIC_ATOM_COUNT>
0
> <PUBCHEM_COMPONENT_COUNT>
1
> <PUBCHEM_CACTVS_TAUTO_COUNT>
1
> <PUBCHEM_COORDINATE_TYPE>
1
5
255
> <PUBCHEM_BONDANNOTATIONS>
3  6  3
$$$$
