521739
  -OEChem-10302200292D
 22 24  0     1  0  0  0  0  0999 V2000
    2.0000    0.0122    0.0000 Cl  0  0  0  0  0  0  0  0  0  0  0  0
    5.6511    2.0513    0.0000 Cl  0  0  0  0  0  0  0  0  0  0  0  0
    4.8401   -2.0513    0.0000 Cl  0  0  0  0  0  0  0  0  0  0  0  0
    5.3764   -1.3599    0.0000 Cl  0  0  0  0  0  0  0  0  0  0  0  0
    2.6718   -2.0494    0.0000 Cl  0  0  0  0  0  0  0  0  0  0  0  0
    3.7035   -1.7651    0.0000 Cl  0  0  0  0  0  0  0  0  0  0  0  0
    3.7543    0.2912    0.0000 C   0  0  3  0  0  0  0  0  0  0  0  0
    4.5633   -0.2966    0.0000 C   0  0  3  0  0  0  0  0  0  0  0  0
    5.3723    0.2912    0.0000 C   0  0  3  0  0  0  0  0  0  0  0  0
    2.9516   -0.2952    0.0000 C   0  0  3  0  0  0  0  0  0  0  0  0
    4.0633    1.2422    0.0000 C   0  0  0  0  0  0  0  0  0  0  0  0
    5.0633    1.2422    0.0000 C   0  0  3  0  0  0  0  0  0  0  0  0
    4.2537   -1.2412    0.0000 C   0  0  0  0  0  0  0  0  0  0  0  0
    4.8076   -0.5375    0.0000 C   0  0  0  0  0  0  0  0  0  0  0  0
    3.2596   -1.2404    0.0000 C   0  0  0  0  0  0  0  0  0  0  0  0
    3.8330   -0.7736    0.0000 C   0  0  0  0  0  0  0  0  0  0  0  0
    3.2522    0.6550    0.0000 H   0  0  0  0  0  0  0  0  0  0  0  0
    5.0644   -0.6617    0.0000 H   0  0  0  0  0  0  0  0  0  0  0  0
    5.9861    0.2034    0.0000 H   0  0  0  0  0  0  0  0  0  0  0  0
    4.1281    1.8588    0.0000 H   0  0  0  0  0  0  0  0  0  0  0  0
    3.4569    1.3712    0.0000 H   0  0  0  0  0  0  0  0  0  0  0  0
    4.7818    1.7947    0.0000 H   0  0  0  0  0  0  0  0  0  0  0  0
  1 10  1  0  0  0  0
  2 12  1  0  0  0  0
  3 13  1  0  0  0  0
  4 14  1  0  0  0  0
  5 15  1  0  0  0  0
  6 16  1  0  0  0  0
  7  8  1  0  0  0  0
  7 10  1  0  0  0  0
  7 11  1  0  0  0  0
  7 17  1  0  0  0  0
  8  9  1  0  0  0  0
  8 13  1  0  0  0  0
  8 18  1  0  0  0  0
  9 12  1  0  0  0  0
  9 14  1  0  0  0  0
  9 19  1  0  0  0  0
 10 15  1  0  0  0  0
 10 16  1  0  0  0  0
 11 12  1  0  0  0  0
 11 20  1  0  0  0  0
 11 21  1  0  0  0  0
 12 22  1  0  0  0  0
 13 15  2  0  0  0  0
 14 16  2  0  0  0  0
M  END
> <PUBCHEM_COMPOUND_CID>
521739
> <PUBCHEM_COMPOUND_CANONICALIZED>
1
> <PUBCHEM_CACTVS_COMPLEXITY>
439
> <PUBCHEM_CACTVS_HBOND_ACCEPTOR>
0
> <PUBCHEM_CACTVS_HBOND_DONOR>
0
> <PUBCHEM_CACTVS_ROTATABLE_BOND>
0
> <PUBCHEM_CACTVS_SUBSKEYS>
AAADcYBwAAAHAAAAAAAAAAAAAAAAAYIAAAAgAAAABAgAAAAAAAAAGAIAAAAADQOAAEAAAAAAAACAAABAAAAAAAAgAAAACEAAAggAAAIBAAAAAAAAgAAIAAMAgMAOgAAAAAAAAAAAAAAAAAAAARAACIAAAA==
> <PUBCHEM_IUPAC_OPENEYE_NAME>
2,3,4,5,6,10-hexachlorotricyclo[5.3.0.04,8]deca-2,5-diene
> <PUBCHEM_IUPAC_CAS_NAME>
2,3,4,5,6,10-hexachlorotricyclo[5.3.0.04,8]deca-2,5-diene
> <PUBCHEM_IUPAC_NAME_MARKUP>
2,3,4,5,6,10-hexachlorotricyclo[5.3.0.0<SUP>4,8</SUP>]deca-2,5-diene
> <PUBCHEM_IUPAC_NAME>
2,3,4,5,6,10-hexachlorotricyclo[5.3.0.04,8]deca-2,5-diene
> <PUBCHEM_IUPAC_SYSTEMATIC_NAME>
2,3,4,5,6,10-hexakis(chloranyl)tricyclo[5.3.0.04,8]deca-2,5-diene
> <PUBCHEM_IUPAC_TRADITIONAL_NAME>
2,3,4,5,6,10-hexachlorotricyclo[5.3.0.04,8]deca-2,5-diene
> <PUBCHEM_IUPAC_INCHI>
InChI=1S/C10H6Cl6/c11-3-1-2-4-5(3)7(13)9(15)10(2,16)8(14)6(4)12/h2-5H,1H2
> <PUBCHEM_IUPAC_INCHIKEY>
GSNLXLNDMLYEEK-UHFFFAOYSA-N
> <PUBCHEM_XLOGP3_AA>
4.2
> <PUBCHEM_EXACT_MASS>
337.857116
> <PUBCHEM_MOLECULAR_FORMULA>
C10H6Cl6
> <PUBCHEM_MOLECULAR_WEIGHT>
338.9
> <PUBCHEM_OPENEYE_CAN_SMILES>
C1C2C3C(C1Cl)C(=C(C2(C(=C3Cl)Cl)Cl)Cl)Cl
> <PUBCHEM_OPENEYE_ISO_SMILES>
C1C2C3C(C1Cl)C(=C(C2(C(=C3Cl)Cl)Cl)Cl)Cl
> <PUBCHEM_CACTVS_TPSA>
0
> <PUBCHEM_MONOISOTOPIC_WEIGHT>
335.860066
> <PUBCHEM_TOTAL_CHARGE>
0
> <PUBCHEM_HEAVY_ATOM_COUNT>
16
> <PUBCHEM_ATOM_DEF_STEREO_COUNT>
0
> <PUBCHEM_ATOM_UDEF_STEREO_COUNT>
5
> <PUBCHEM_BOND_DEF_STEREO_COUNT>
0
> <PUBCHEM_BOND_UDEF_STEREO_COUNT>
0
> <PUBCHEM_ISOTOPIC_ATOM_COUNT>
0
> <PUBCHEM_COMPONENT_COUNT>
1
> <PUBCHEM_CACTVS_TAUTO_COUNT>
1
> <PUBCHEM_COORDINATE_TYPE>
1
5
255
> <PUBCHEM_BONDANNOTATIONS>
12  2  3
10  7  3
7  11  3
8  13  3
9  14  3
$$$$
