521859
  -OEChem-10302200292D
 31 31  0     1  0  0  0  0  0999 V2000
    3.7320    1.8450    0.0000 O   0  0  0  0  0  0  0  0  0  0  0  0
    3.7320   -0.1550    0.0000 C   0  0  3  0  0  0  0  0  0  0  0  0
    2.8660   -0.6550    0.0000 C   0  0  0  0  0  0  0  0  0  0  0  0
    2.8660   -1.6550    0.0000 C   0  0  3  0  0  0  0  0  0  0  0  0
    4.5981   -0.6550    0.0000 C   0  0  0  0  0  0  0  0  0  0  0  0
    3.7320    0.8450    0.0000 C   0  0  0  0  0  0  0  0  0  0  0  0
    3.7320   -2.1550    0.0000 C   0  0  0  0  0  0  0  0  0  0  0  0
    4.5981   -1.6550    0.0000 C   0  0  0  0  0  0  0  0  0  0  0  0
    2.0000   -2.1550    0.0000 C   0  0  0  0  0  0  0  0  0  0  0  0
    4.7320    0.8450    0.0000 C   0  0  0  0  0  0  0  0  0  0  0  0
    2.7320    0.8450    0.0000 C   0  0  0  0  0  0  0  0  0  0  0  0
    4.2690    0.1550    0.0000 H   0  0  0  0  0  0  0  0  0  0  0  0
    2.6540   -0.0724    0.0000 H   0  0  0  0  0  0  0  0  0  0  0  0
    2.2554   -0.7627    0.0000 H   0  0  0  0  0  0  0  0  0  0  0  0
    2.8660   -2.2750    0.0000 H   0  0  0  0  0  0  0  0  0  0  0  0
    5.2087   -0.7627    0.0000 H   0  0  0  0  0  0  0  0  0  0  0  0
    4.8101   -0.0724    0.0000 H   0  0  0  0  0  0  0  0  0  0  0  0
    3.3335   -2.6300    0.0000 H   0  0  0  0  0  0  0  0  0  0  0  0
    4.1306   -2.6300    0.0000 H   0  0  0  0  0  0  0  0  0  0  0  0
    4.8101   -2.2376    0.0000 H   0  0  0  0  0  0  0  0  0  0  0  0
    5.2087   -1.5473    0.0000 H   0  0  0  0  0  0  0  0  0  0  0  0
    1.6900   -1.6181    0.0000 H   0  0  0  0  0  0  0  0  0  0  0  0
    1.4631   -2.4650    0.0000 H   0  0  0  0  0  0  0  0  0  0  0  0
    2.3100   -2.6919    0.0000 H   0  0  0  0  0  0  0  0  0  0  0  0
    4.7320    0.2250    0.0000 H   0  0  0  0  0  0  0  0  0  0  0  0
    5.3520    0.8450    0.0000 H   0  0  0  0  0  0  0  0  0  0  0  0
    4.7320    1.4650    0.0000 H   0  0  0  0  0  0  0  0  0  0  0  0
    2.7320    1.4650    0.0000 H   0  0  0  0  0  0  0  0  0  0  0  0
    2.1120    0.8450    0.0000 H   0  0  0  0  0  0  0  0  0  0  0  0
    2.7320    0.2250    0.0000 H   0  0  0  0  0  0  0  0  0  0  0  0
    4.2690    2.1550    0.0000 H   0  0  0  0  0  0  0  0  0  0  0  0
  1  6  1  0  0  0  0
  1 31  1  0  0  0  0
  2  3  1  0  0  0  0
  2  5  1  0  0  0  0
  2  6  1  0  0  0  0
  2 12  1  0  0  0  0
  3  4  1  0  0  0  0
  3 13  1  0  0  0  0
  3 14  1  0  0  0  0
  4  7  1  0  0  0  0
  4  9  1  0  0  0  0
  4 15  1  0  0  0  0
  5  8  1  0  0  0  0
  5 16  1  0  0  0  0
  5 17  1  0  0  0  0
  6 10  1  0  0  0  0
  6 11  1  0  0  0  0
  7  8  1  0  0  0  0
  7 18  1  0  0  0  0
  7 19  1  0  0  0  0
  8 20  1  0  0  0  0
  8 21  1  0  0  0  0
  9 22  1  0  0  0  0
  9 23  1  0  0  0  0
  9 24  1  0  0  0  0
 10 25  1  0  0  0  0
 10 26  1  0  0  0  0
 10 27  1  0  0  0  0
 11 28  1  0  0  0  0
 11 29  1  0  0  0  0
 11 30  1  0  0  0  0
M  END
> <PUBCHEM_COMPOUND_CID>
521859
> <PUBCHEM_COMPOUND_CANONICALIZED>
1
> <PUBCHEM_CACTVS_COMPLEXITY>
129
> <PUBCHEM_CACTVS_HBOND_ACCEPTOR>
1
> <PUBCHEM_CACTVS_HBOND_DONOR>
1
> <PUBCHEM_CACTVS_ROTATABLE_BOND>
1
> <PUBCHEM_CACTVS_SUBSKEYS>
AAADceBwIAAAAAAAAAAAAAAAAAAAAAAAAAAwAAAAAAAAAAAAAAAAGgAACAAADUSAgAACAAAAAgAAAAAAAAAAAAAAAAAAAAAAAAAAAAIAAAAAQAAEAAAAAAGAwOAOgAAAAAAAAAAAAAQAAAAAAAAAAAAAAA==
> <PUBCHEM_IUPAC_OPENEYE_NAME>
2-(3-methylcyclohexyl)propan-2-ol
> <PUBCHEM_IUPAC_CAS_NAME>
2-(3-methylcyclohexyl)-2-propanol
> <PUBCHEM_IUPAC_NAME_MARKUP>
2-(3-methylcyclohexyl)propan-2-ol
> <PUBCHEM_IUPAC_NAME>
2-(3-methylcyclohexyl)propan-2-ol
> <PUBCHEM_IUPAC_SYSTEMATIC_NAME>
2-(3-methylcyclohexyl)propan-2-ol
> <PUBCHEM_IUPAC_TRADITIONAL_NAME>
2-(3-methylcyclohexyl)propan-2-ol
> <PUBCHEM_IUPAC_INCHI>
InChI=1S/C10H20O/c1-8-5-4-6-9(7-8)10(2,3)11/h8-9,11H,4-7H2,1-3H3
> <PUBCHEM_IUPAC_INCHIKEY>
PCSHFBZGUQNFPA-UHFFFAOYSA-N
> <PUBCHEM_XLOGP3_AA>
2.8
> <PUBCHEM_EXACT_MASS>
156.151415257
> <PUBCHEM_MOLECULAR_FORMULA>
C10H20O
> <PUBCHEM_MOLECULAR_WEIGHT>
156.26
> <PUBCHEM_OPENEYE_CAN_SMILES>
CC1CCCC(C1)C(C)(C)O
> <PUBCHEM_OPENEYE_ISO_SMILES>
CC1CCCC(C1)C(C)(C)O
> <PUBCHEM_CACTVS_TPSA>
20.2
> <PUBCHEM_MONOISOTOPIC_WEIGHT>
156.151415257
> <PUBCHEM_TOTAL_CHARGE>
0
> <PUBCHEM_HEAVY_ATOM_COUNT>
11
> <PUBCHEM_ATOM_DEF_STEREO_COUNT>
0
> <PUBCHEM_ATOM_UDEF_STEREO_COUNT>
2
> <PUBCHEM_BOND_DEF_STEREO_COUNT>
0
> <PUBCHEM_BOND_UDEF_STEREO_COUNT>
0
> <PUBCHEM_ISOTOPIC_ATOM_COUNT>
0
> <PUBCHEM_COMPONENT_COUNT>
1
> <PUBCHEM_CACTVS_TAUTO_COUNT>
-1
> <PUBCHEM_COORDINATE_TYPE>
1
5
255
> <PUBCHEM_BONDANNOTATIONS>
2  6  3
4  9  3
$$$$
