521851
  -OEChem-10302200292D
 26 26  0     1  0  0  0  0  0999 V2000
    2.8660   -1.2500    0.0000 C   0  0  3  0  0  0  0  0  0  0  0  0
    3.7320   -0.7500    0.0000 C   0  0  0  0  0  0  0  0  0  0  0  0
    2.0000   -0.7500    0.0000 C   0  0  0  0  0  0  0  0  0  0  0  0
    3.7320    0.2500    0.0000 C   0  0  0  0  0  0  0  0  0  0  0  0
    2.8660    0.7500    0.0000 C   0  0  0  0  0  0  0  0  0  0  0  0
    2.0000    0.2500    0.0000 C   0  0  0  0  0  0  0  0  0  0  0  0
    2.8660   -2.2500    0.0000 C   0  0  0  0  0  0  0  0  0  0  0  0
    2.8660    1.7500    0.0000 C   0  0  0  0  0  0  0  0  0  0  0  0
    3.7320    2.2500    0.0000 C   0  0  0  0  0  0  0  0  0  0  0  0
    2.0000    2.2500    0.0000 C   0  0  0  0  0  0  0  0  0  0  0  0
    3.4030   -1.5600    0.0000 H   0  0  0  0  0  0  0  0  0  0  0  0
    3.9441   -1.3326    0.0000 H   0  0  0  0  0  0  0  0  0  0  0  0
    4.3426   -0.6423    0.0000 H   0  0  0  0  0  0  0  0  0  0  0  0
    1.3894   -0.6423    0.0000 H   0  0  0  0  0  0  0  0  0  0  0  0
    1.7880   -1.3326    0.0000 H   0  0  0  0  0  0  0  0  0  0  0  0
    4.3426    0.1423    0.0000 H   0  0  0  0  0  0  0  0  0  0  0  0
    3.9441    0.8326    0.0000 H   0  0  0  0  0  0  0  0  0  0  0  0
    1.4631    0.5600    0.0000 H   0  0  0  0  0  0  0  0  0  0  0  0
    2.2460   -2.2500    0.0000 H   0  0  0  0  0  0  0  0  0  0  0  0
    2.8660   -2.8700    0.0000 H   0  0  0  0  0  0  0  0  0  0  0  0
    3.4860   -2.2500    0.0000 H   0  0  0  0  0  0  0  0  0  0  0  0
    4.0420    1.7131    0.0000 H   0  0  0  0  0  0  0  0  0  0  0  0
    4.2690    2.5600    0.0000 H   0  0  0  0  0  0  0  0  0  0  0  0
    3.4220    2.7869    0.0000 H   0  0  0  0  0  0  0  0  0  0  0  0
    2.0000    2.8700    0.0000 H   0  0  0  0  0  0  0  0  0  0  0  0
    1.4631    1.9400    0.0000 H   0  0  0  0  0  0  0  0  0  0  0  0
  1  2  1  0  0  0  0
  1  3  1  0  0  0  0
  1  7  1  0  0  0  0
  1 11  1  0  0  0  0
  2  4  1  0  0  0  0
  2 12  1  0  0  0  0
  2 13  1  0  0  0  0
  3  6  1  0  0  0  0
  3 14  1  0  0  0  0
  3 15  1  0  0  0  0
  4  5  1  0  0  0  0
  4 16  1  0  0  0  0
  4 17  1  0  0  0  0
  5  6  2  0  0  0  0
  5  8  1  0  0  0  0
  6 18  1  0  0  0  0
  7 19  1  0  0  0  0
  7 20  1  0  0  0  0
  7 21  1  0  0  0  0
  8  9  1  0  0  0  0
  8 10  2  0  0  0  0
  9 22  1  0  0  0  0
  9 23  1  0  0  0  0
  9 24  1  0  0  0  0
 10 25  1  0  0  0  0
 10 26  1  0  0  0  0
M  END
> <PUBCHEM_COMPOUND_CID>
521851
> <PUBCHEM_COMPOUND_CANONICALIZED>
1
> <PUBCHEM_CACTVS_COMPLEXITY>
163
> <PUBCHEM_CACTVS_HBOND_ACCEPTOR>
0
> <PUBCHEM_CACTVS_HBOND_DONOR>
0
> <PUBCHEM_CACTVS_ROTATABLE_BOND>
1
> <PUBCHEM_CACTVS_SUBSKEYS>
AAADceBwAAAAAAAAAAAAAAAAAAAAAAAAAAAgAAAAAAAAAAAAAAAAGAAAAAAADQCAAAACAAAAAACAAiBCAAAAAAAgAAAACAAAAAgIAAIAAQAAAAAAgAAIgAMAgMAOAAAAAAAAAAAAAAAAAAAAAAAAAAAAAA==
> <PUBCHEM_IUPAC_OPENEYE_NAME>
1-isopropenyl-4-methyl-cyclohexene
> <PUBCHEM_IUPAC_CAS_NAME>
4-methyl-1-(1-methylethenyl)cyclohexene
> <PUBCHEM_IUPAC_NAME_MARKUP>
4-methyl-1-prop-1-en-2-ylcyclohexene
> <PUBCHEM_IUPAC_NAME>
4-methyl-1-prop-1-en-2-ylcyclohexene
> <PUBCHEM_IUPAC_SYSTEMATIC_NAME>
4-methyl-1-prop-1-en-2-yl-cyclohexene
> <PUBCHEM_IUPAC_TRADITIONAL_NAME>
1-isopropenyl-4-methyl-cyclohexene
> <PUBCHEM_IUPAC_INCHI>
InChI=1S/C10H16/c1-8(2)10-6-4-9(3)5-7-10/h6,9H,1,4-5,7H2,2-3H3
> <PUBCHEM_IUPAC_INCHIKEY>
AJSJXSBFZDIRIS-UHFFFAOYSA-N
> <PUBCHEM_XLOGP3_AA>
3.7
> <PUBCHEM_EXACT_MASS>
136.125200510
> <PUBCHEM_MOLECULAR_FORMULA>
C10H16
> <PUBCHEM_MOLECULAR_WEIGHT>
136.23
> <PUBCHEM_OPENEYE_CAN_SMILES>
CC1CCC(=CC1)C(=C)C
> <PUBCHEM_OPENEYE_ISO_SMILES>
CC1CCC(=CC1)C(=C)C
> <PUBCHEM_CACTVS_TPSA>
0
> <PUBCHEM_MONOISOTOPIC_WEIGHT>
136.125200510
> <PUBCHEM_TOTAL_CHARGE>
0
> <PUBCHEM_HEAVY_ATOM_COUNT>
10
> <PUBCHEM_ATOM_DEF_STEREO_COUNT>
0
> <PUBCHEM_ATOM_UDEF_STEREO_COUNT>
1
> <PUBCHEM_BOND_DEF_STEREO_COUNT>
0
> <PUBCHEM_BOND_UDEF_STEREO_COUNT>
0
> <PUBCHEM_ISOTOPIC_ATOM_COUNT>
0
> <PUBCHEM_COMPONENT_COUNT>
1
> <PUBCHEM_CACTVS_TAUTO_COUNT>
-1
> <PUBCHEM_COORDINATE_TYPE>
1
5
255
> <PUBCHEM_BONDANNOTATIONS>
1  7  3
$$$$
