521868
  -OEChem-10302200292D
 12 11  0     1  0  0  0  0  0999 V2000
    5.1350    0.0000    0.0000 Br  0  0  0  0  0  0  0  0  0  0  0  0
    4.2690    1.5000    0.0000 Br  0  0  0  0  0  0  0  0  0  0  0  0
    2.5369   -1.5000    0.0000 Br  0  0  0  0  0  0  0  0  0  0  0  0
    2.5369    0.5000    0.0000 O   0  0  0  0  0  0  0  0  0  0  0  0
    3.4030    0.0000    0.0000 C   0  0  3  0  0  0  0  0  0  0  0  0
    4.2690    0.5000    0.0000 C   0  0  0  0  0  0  0  0  0  0  0  0
    3.4030   -1.0000    0.0000 C   0  0  0  0  0  0  0  0  0  0  0  0
    3.4030    0.6200    0.0000 H   0  0  0  0  0  0  0  0  0  0  0  0
    4.2690   -0.1200    0.0000 H   0  0  0  0  0  0  0  0  0  0  0  0
    3.6150   -1.5826    0.0000 H   0  0  0  0  0  0  0  0  0  0  0  0
    4.0135   -0.8923    0.0000 H   0  0  0  0  0  0  0  0  0  0  0  0
    2.0000    0.1900    0.0000 H   0  0  0  0  0  0  0  0  0  0  0  0
  1  6  1  0  0  0  0
  2  6  1  0  0  0  0
  3  7  1  0  0  0  0
  4  5  1  0  0  0  0
  4 12  1  0  0  0  0
  5  6  1  0  0  0  0
  5  7  1  0  0  0  0
  5  8  1  0  0  0  0
  6  9  1  0  0  0  0
  7 10  1  0  0  0  0
  7 11  1  0  0  0  0
M  END
> <PUBCHEM_COMPOUND_CID>
521868
> <PUBCHEM_COMPOUND_CANONICALIZED>
1
> <PUBCHEM_CACTVS_COMPLEXITY>
47.4
> <PUBCHEM_CACTVS_HBOND_ACCEPTOR>
1
> <PUBCHEM_CACTVS_HBOND_DONOR>
1
> <PUBCHEM_CACTVS_ROTATABLE_BOND>
2
> <PUBCHEM_CACTVS_SUBSKEYS>
AAADcYBAIAAAGAAAAAAAAAAAAAAAAAAAAAAAAAAAAAAAAAAAAAAAGgBACAABSBSggAIAAAAAAgAAAAAAAAAAAAAAAAAAAAAAACAAEAAAAAAAAAAAAAAAAAAAAAAAAAAAAAAAAAAAAAAAAAAAAAAAAAAAAA==
> <PUBCHEM_IUPAC_OPENEYE_NAME>
1,1,3-tribromopropan-2-ol
> <PUBCHEM_IUPAC_CAS_NAME>
1,1,3-tribromo-2-propanol
> <PUBCHEM_IUPAC_NAME_MARKUP>
1,1,3-tribromopropan-2-ol
> <PUBCHEM_IUPAC_NAME>
1,1,3-tribromopropan-2-ol
> <PUBCHEM_IUPAC_SYSTEMATIC_NAME>
1,1,3-tris(bromanyl)propan-2-ol
> <PUBCHEM_IUPAC_TRADITIONAL_NAME>
1,1,3-tribromopropan-2-ol
> <PUBCHEM_IUPAC_INCHI>
InChI=1S/C3H5Br3O/c4-1-2(7)3(5)6/h2-3,7H,1H2
> <PUBCHEM_IUPAC_INCHIKEY>
QDJVPMNYRGTTFU-UHFFFAOYSA-N
> <PUBCHEM_XLOGP3_AA>
2.1
> <PUBCHEM_EXACT_MASS>
295.78700
> <PUBCHEM_MOLECULAR_FORMULA>
C3H5Br3O
> <PUBCHEM_MOLECULAR_WEIGHT>
296.78
> <PUBCHEM_OPENEYE_CAN_SMILES>
C(C(C(Br)Br)O)Br
> <PUBCHEM_OPENEYE_ISO_SMILES>
C(C(C(Br)Br)O)Br
> <PUBCHEM_CACTVS_TPSA>
20.2
> <PUBCHEM_MONOISOTOPIC_WEIGHT>
293.78905
> <PUBCHEM_TOTAL_CHARGE>
0
> <PUBCHEM_HEAVY_ATOM_COUNT>
7
> <PUBCHEM_ATOM_DEF_STEREO_COUNT>
0
> <PUBCHEM_ATOM_UDEF_STEREO_COUNT>
1
> <PUBCHEM_BOND_DEF_STEREO_COUNT>
0
> <PUBCHEM_BOND_UDEF_STEREO_COUNT>
0
> <PUBCHEM_ISOTOPIC_ATOM_COUNT>
0
> <PUBCHEM_COMPONENT_COUNT>
1
> <PUBCHEM_CACTVS_TAUTO_COUNT>
-1
> <PUBCHEM_COORDINATE_TYPE>
1
5
255
> <PUBCHEM_BONDANNOTATIONS>
5  4  3
$$$$
