521829
  -OEChem-10302200292D
 23 23  0     1  0  0  0  0  0999 V2000
    2.0000   -1.9804    0.0000 I   0  0  0  0  0  0  0  0  0  0  0  0
    3.2869    1.9804    0.0000 I   0  0  0  0  0  0  0  0  0  0  0  0
    3.9680   -1.2810    0.0000 O   0  0  0  0  0  0  0  0  0  0  0  0
    4.4680    0.2578    0.0000 O   0  0  0  0  0  0  0  0  0  0  0  0
    3.1590   -0.6932    0.0000 C   0  0  3  0  0  0  0  0  0  0  0  0
    3.4680    0.2578    0.0000 C   0  0  3  0  0  0  0  0  0  0  0  0
    4.7770   -0.6932    0.0000 C   0  0  0  0  0  0  0  0  0  0  0  0
    2.2079   -1.0022    0.0000 C   0  0  0  0  0  0  0  0  0  0  0  0
    2.8802    1.0668    0.0000 C   0  0  0  0  0  0  0  0  0  0  0  0
    5.3648   -1.5022    0.0000 C   0  0  0  0  0  0  0  0  0  0  0  0
    5.7281   -0.3842    0.0000 C   0  0  0  0  0  0  0  0  0  0  0  0
    3.0620   -1.3056    0.0000 H   0  0  0  0  0  0  0  0  0  0  0  0
    3.7495    0.8103    0.0000 H   0  0  0  0  0  0  0  0  0  0  0  0
    2.1216   -0.3883    0.0000 H   0  0  0  0  0  0  0  0  0  0  0  0
    1.5883   -0.9806    0.0000 H   0  0  0  0  0  0  0  0  0  0  0  0
    2.3662    1.4136    0.0000 H   0  0  0  0  0  0  0  0  0  0  0  0
    2.4495    0.6209    0.0000 H   0  0  0  0  0  0  0  0  0  0  0  0
    4.8632   -1.8667    0.0000 H   0  0  0  0  0  0  0  0  0  0  0  0
    5.7292   -2.0038    0.0000 H   0  0  0  0  0  0  0  0  0  0  0  0
    5.8664   -1.1378    0.0000 H   0  0  0  0  0  0  0  0  0  0  0  0
    5.9196   -0.9739    0.0000 H   0  0  0  0  0  0  0  0  0  0  0  0
    6.3177   -0.1926    0.0000 H   0  0  0  0  0  0  0  0  0  0  0  0
    5.5365    0.2054    0.0000 H   0  0  0  0  0  0  0  0  0  0  0  0
  1  8  1  0  0  0  0
  2  9  1  0  0  0  0
  3  5  1  0  0  0  0
  3  7  1  0  0  0  0
  4  6  1  0  0  0  0
  4  7  1  0  0  0  0
  5  6  1  0  0  0  0
  5  8  1  0  0  0  0
  5 12  1  0  0  0  0
  6  9  1  0  0  0  0
  6 13  1  0  0  0  0
  7 10  1  0  0  0  0
  7 11  1  0  0  0  0
  8 14  1  0  0  0  0
  8 15  1  0  0  0  0
  9 16  1  0  0  0  0
  9 17  1  0  0  0  0
 10 18  1  0  0  0  0
 10 19  1  0  0  0  0
 10 20  1  0  0  0  0
 11 21  1  0  0  0  0
 11 22  1  0  0  0  0
 11 23  1  0  0  0  0
M  END
> <PUBCHEM_COMPOUND_CID>
521829
> <PUBCHEM_COMPOUND_CANONICALIZED>
1
> <PUBCHEM_CACTVS_COMPLEXITY>
124
> <PUBCHEM_CACTVS_HBOND_ACCEPTOR>
2
> <PUBCHEM_CACTVS_HBOND_DONOR>
0
> <PUBCHEM_CACTVS_ROTATABLE_BOND>
2
> <PUBCHEM_CACTVS_SUBSKEYS>
AAADccBgMAAAAwAAAAAAAAAAAAAAASAAAAAAAAAAAAAAAAAAAAAAGgAgAAAACBSigAICCAAABAAAAAAAAAAAAAAAAAAAAAAAAAARAAAAAAAiAAAAAAAGAAAAAAAAAAAAAAAAAAAAAAAAAAAAAAAAAAAAAA==
> <PUBCHEM_IUPAC_OPENEYE_NAME>
4,5-bis(iodomethyl)-2,2-dimethyl-1,3-dioxolane
> <PUBCHEM_IUPAC_CAS_NAME>
4,5-bis(iodomethyl)-2,2-dimethyl-1,3-dioxolane
> <PUBCHEM_IUPAC_NAME_MARKUP>
4,5-bis(iodomethyl)-2,2-dimethyl-1,3-dioxolane
> <PUBCHEM_IUPAC_NAME>
4,5-bis(iodomethyl)-2,2-dimethyl-1,3-dioxolane
> <PUBCHEM_IUPAC_SYSTEMATIC_NAME>
4,5-bis(iodanylmethyl)-2,2-dimethyl-1,3-dioxolane
> <PUBCHEM_IUPAC_TRADITIONAL_NAME>
4,5-bis(iodomethyl)-2,2-dimethyl-1,3-dioxolane
> <PUBCHEM_IUPAC_INCHI>
InChI=1S/C7H12I2O2/c1-7(2)10-5(3-8)6(4-9)11-7/h5-6H,3-4H2,1-2H3
> <PUBCHEM_IUPAC_INCHIKEY>
WHRBZHCFRKKRJE-UHFFFAOYSA-N
> <PUBCHEM_XLOGP3_AA>
2.8
> <PUBCHEM_EXACT_MASS>
381.89267
> <PUBCHEM_MOLECULAR_FORMULA>
C7H12I2O2
> <PUBCHEM_MOLECULAR_WEIGHT>
381.98
> <PUBCHEM_OPENEYE_CAN_SMILES>
CC1(OC(C(O1)CI)CI)C
> <PUBCHEM_OPENEYE_ISO_SMILES>
CC1(OC(C(O1)CI)CI)C
> <PUBCHEM_CACTVS_TPSA>
18.5
> <PUBCHEM_MONOISOTOPIC_WEIGHT>
381.89267
> <PUBCHEM_TOTAL_CHARGE>
0
> <PUBCHEM_HEAVY_ATOM_COUNT>
11
> <PUBCHEM_ATOM_DEF_STEREO_COUNT>
0
> <PUBCHEM_ATOM_UDEF_STEREO_COUNT>
2
> <PUBCHEM_BOND_DEF_STEREO_COUNT>
0
> <PUBCHEM_BOND_UDEF_STEREO_COUNT>
0
> <PUBCHEM_ISOTOPIC_ATOM_COUNT>
0
> <PUBCHEM_COMPONENT_COUNT>
1
> <PUBCHEM_CACTVS_TAUTO_COUNT>
-1
> <PUBCHEM_COORDINATE_TYPE>
1
5
255
> <PUBCHEM_BONDANNOTATIONS>
5  8  3
6  9  3
$$$$
