521856
  -OEChem-10302200292D
 26 24  0     1  0  0  0  0  0999 V2000
    2.6350    0.0000    0.0000 Cl  0  0  0  0  0  0  0  0  0  0  0  0
    0.5369    4.6200    0.0000 O   0  0  0  0  0  0  0  0  0  0  0  0
    5.7331    4.6200    0.0000 O   0  0  0  0  0  0  0  0  0  0  0  0
    3.1350    4.1200    0.0000 N   0  0  0  0  0  0  0  0  0  0  0  0
    2.2690    4.6200    0.0000 C   0  0  0  0  0  0  0  0  0  0  0  0
    4.0010    4.6200    0.0000 C   0  0  0  0  0  0  0  0  0  0  0  0
    1.4030    4.1200    0.0000 C   0  0  3  0  0  0  0  0  0  0  0  0
    4.8671    4.1200    0.0000 C   0  0  3  0  0  0  0  0  0  0  0  0
    1.4030    3.1200    0.0000 C   0  0  0  0  0  0  0  0  0  0  0  0
    4.8671    3.1200    0.0000 C   0  0  0  0  0  0  0  0  0  0  0  0
    2.6675    5.0950    0.0000 H   0  0  0  0  0  0  0  0  0  0  0  0
    1.8705    5.0950    0.0000 H   0  0  0  0  0  0  0  0  0  0  0  0
    4.3996    5.0950    0.0000 H   0  0  0  0  0  0  0  0  0  0  0  0
    3.6025    5.0950    0.0000 H   0  0  0  0  0  0  0  0  0  0  0  0
    1.4030    4.7400    0.0000 H   0  0  0  0  0  0  0  0  0  0  0  0
    4.8671    4.7400    0.0000 H   0  0  0  0  0  0  0  0  0  0  0  0
    3.1350    3.5000    0.0000 H   0  0  0  0  0  0  0  0  0  0  0  0
    0.7830    3.1200    0.0000 H   0  0  0  0  0  0  0  0  0  0  0  0
    1.4030    2.5000    0.0000 H   0  0  0  0  0  0  0  0  0  0  0  0
    2.0230    3.1200    0.0000 H   0  0  0  0  0  0  0  0  0  0  0  0
    4.2471    3.1200    0.0000 H   0  0  0  0  0  0  0  0  0  0  0  0
    4.8671    2.5000    0.0000 H   0  0  0  0  0  0  0  0  0  0  0  0
    5.4871    3.1200    0.0000 H   0  0  0  0  0  0  0  0  0  0  0  0
    0.0000    4.3100    0.0000 H   0  0  0  0  0  0  0  0  0  0  0  0
    6.2700    4.3100    0.0000 H   0  0  0  0  0  0  0  0  0  0  0  0
    3.6350    0.0000    0.0000 H   0  0  0  0  0  0  0  0  0  0  0  0
  1 26  1  0  0  0  0
  2  7  1  0  0  0  0
  2 24  1  0  0  0  0
  3  8  1  0  0  0  0
  3 25  1  0  0  0  0
  4  5  1  0  0  0  0
  4  6  1  0  0  0  0
  4 17  1  0  0  0  0
  5  7  1  0  0  0  0
  5 11  1  0  0  0  0
  5 12  1  0  0  0  0
  6  8  1  0  0  0  0
  6 13  1  0  0  0  0
  6 14  1  0  0  0  0
  7  9  1  0  0  0  0
  7 15  1  0  0  0  0
  8 10  1  0  0  0  0
  8 16  1  0  0  0  0
  9 18  1  0  0  0  0
  9 19  1  0  0  0  0
  9 20  1  0  0  0  0
 10 21  1  0  0  0  0
 10 22  1  0  0  0  0
 10 23  1  0  0  0  0
M  END
> <PUBCHEM_COMPOUND_CID>
521856
> <PUBCHEM_COMPOUND_CANONICALIZED>
1
> <PUBCHEM_CACTVS_COMPLEXITY>
60.1
> <PUBCHEM_CACTVS_HBOND_ACCEPTOR>
3
> <PUBCHEM_CACTVS_HBOND_DONOR>
4
> <PUBCHEM_CACTVS_ROTATABLE_BOND>
4
> <PUBCHEM_CACTVS_SUBSKEYS>
AAADceBiMAAEAAAAAAAAAAAAAAAAAAAAAAAAAAAAAAAAAAAAAAAAHgAQCAAACBThgAYCAALAAgAAAAAAAAAAAAAAAAAAAIAIAAACEAAAAAAEAAAAEACQAAAAAAAAAAAAAAAAAAAAAAAAAAAAAAAAAAAAAA==
> <PUBCHEM_IUPAC_OPENEYE_NAME>
1-(2-hydroxypropylamino)propan-2-ol;hydrochloride
> <PUBCHEM_IUPAC_CAS_NAME>
1-(2-hydroxypropylamino)-2-propanol;hydrochloride
> <PUBCHEM_IUPAC_NAME_MARKUP>
1-(2-hydroxypropylamino)propan-2-ol;hydrochloride
> <PUBCHEM_IUPAC_NAME>
1-(2-hydroxypropylamino)propan-2-ol;hydrochloride
> <PUBCHEM_IUPAC_SYSTEMATIC_NAME>
1-(2-oxidanylpropylamino)propan-2-ol;hydrochloride
> <PUBCHEM_IUPAC_TRADITIONAL_NAME>
1-(2-hydroxypropylamino)propan-2-ol;hydrochloride
> <PUBCHEM_IUPAC_INCHI>
InChI=1S/C6H15NO2.ClH/c1-5(8)3-7-4-6(2)9;/h5-9H,3-4H2,1-2H3;1H
> <PUBCHEM_IUPAC_INCHIKEY>
ZFVKEONPJIVMOY-UHFFFAOYSA-N
> <PUBCHEM_EXACT_MASS>
169.0869564
> <PUBCHEM_MOLECULAR_FORMULA>
C6H16ClNO2
> <PUBCHEM_MOLECULAR_WEIGHT>
169.65
> <PUBCHEM_OPENEYE_CAN_SMILES>
CC(CNCC(C)O)O.Cl
> <PUBCHEM_OPENEYE_ISO_SMILES>
CC(CNCC(C)O)O.Cl
> <PUBCHEM_CACTVS_TPSA>
52.5
> <PUBCHEM_MONOISOTOPIC_WEIGHT>
169.0869564
> <PUBCHEM_TOTAL_CHARGE>
0
> <PUBCHEM_HEAVY_ATOM_COUNT>
10
> <PUBCHEM_ATOM_DEF_STEREO_COUNT>
0
> <PUBCHEM_ATOM_UDEF_STEREO_COUNT>
2
> <PUBCHEM_BOND_DEF_STEREO_COUNT>
0
> <PUBCHEM_BOND_UDEF_STEREO_COUNT>
0
> <PUBCHEM_ISOTOPIC_ATOM_COUNT>
0
> <PUBCHEM_COMPONENT_COUNT>
2
> <PUBCHEM_CACTVS_TAUTO_COUNT>
-1
> <PUBCHEM_COORDINATE_TYPE>
1
5
255
> <PUBCHEM_BONDANNOTATIONS>
7  2  3
8  3  3
$$$$
