521844
  -OEChem-10302200292D
 22 21  0     1  0  0  0  0  0999 V2000
    1.3728    0.0000    0.0000 Cl  0  0  0  0  0  0  0  0  0  0  0  0
    2.2690    3.1200    0.0000 N   0  0  0  0  0  0  0  0  0  0  0  0
    1.4030    4.6200    0.0000 C   0  0  3  0  0  0  0  0  0  0  0  0
    2.2690    5.1200    0.0000 C   0  0  0  0  0  0  0  0  0  0  0  0
    1.4030    3.6200    0.0000 C   0  0  0  0  0  0  0  0  0  0  0  0
    3.1350    4.6200    0.0000 C   0  0  0  0  0  0  0  0  0  0  0  0
    3.1350    3.6200    0.0000 C   0  0  0  0  0  0  0  0  0  0  0  0
    0.5369    5.1200    0.0000 C   0  0  0  0  0  0  0  0  0  0  0  0
    1.4030    5.2400    0.0000 H   0  0  0  0  0  0  0  0  0  0  0  0
    2.6675    5.5950    0.0000 H   0  0  0  0  0  0  0  0  0  0  0  0
    1.8705    5.5950    0.0000 H   0  0  0  0  0  0  0  0  0  0  0  0
    0.7924    3.7277    0.0000 H   0  0  0  0  0  0  0  0  0  0  0  0
    1.1909    3.0374    0.0000 H   0  0  0  0  0  0  0  0  0  0  0  0
    3.7456    4.5123    0.0000 H   0  0  0  0  0  0  0  0  0  0  0  0
    3.3471    5.2026    0.0000 H   0  0  0  0  0  0  0  0  0  0  0  0
    3.3471    3.0374    0.0000 H   0  0  0  0  0  0  0  0  0  0  0  0
    3.7456    3.7277    0.0000 H   0  0  0  0  0  0  0  0  0  0  0  0
    2.2690    2.5000    0.0000 H   0  0  0  0  0  0  0  0  0  0  0  0
    0.8469    5.6569    0.0000 H   0  0  0  0  0  0  0  0  0  0  0  0
    0.0000    5.4300    0.0000 H   0  0  0  0  0  0  0  0  0  0  0  0
    0.2269    4.5831    0.0000 H   0  0  0  0  0  0  0  0  0  0  0  0
    2.3728    0.0000    0.0000 H   0  0  0  0  0  0  0  0  0  0  0  0
  1 22  1  0  0  0  0
  2  5  1  0  0  0  0
  2  7  1  0  0  0  0
  2 18  1  0  0  0  0
  3  4  1  0  0  0  0
  3  5  1  0  0  0  0
  3  8  1  0  0  0  0
  3  9  1  0  0  0  0
  4  6  1  0  0  0  0
  4 10  1  0  0  0  0
  4 11  1  0  0  0  0
  5 12  1  0  0  0  0
  5 13  1  0  0  0  0
  6  7  1  0  0  0  0
  6 14  1  0  0  0  0
  6 15  1  0  0  0  0
  7 16  1  0  0  0  0
  7 17  1  0  0  0  0
  8 19  1  0  0  0  0
  8 20  1  0  0  0  0
  8 21  1  0  0  0  0
M  END
> <PUBCHEM_COMPOUND_CID>
521844
> <PUBCHEM_COMPOUND_CANONICALIZED>
1
> <PUBCHEM_CACTVS_COMPLEXITY>
52.1
> <PUBCHEM_CACTVS_HBOND_ACCEPTOR>
1
> <PUBCHEM_CACTVS_HBOND_DONOR>
2
> <PUBCHEM_CACTVS_ROTATABLE_BOND>
0
> <PUBCHEM_CACTVS_SUBSKEYS>
AAADccBiAAAEAAAAAAAAAAAAAAAAAAAAAAAsAAAAAAAAAAAAAAAAHAAQAAAADQDBAAQCAALAAAAAAAAAAAAAAAAAAAAAAIAIAAAAAAIAgAAEAAAAEACAAAAQAAAMAAAAAAAAAAAAAAAAAAAAAAAAAAAAAA==
> <PUBCHEM_IUPAC_OPENEYE_NAME>
3-methylpiperidine;hydrochloride
> <PUBCHEM_IUPAC_CAS_NAME>
3-methylpiperidine;hydrochloride
> <PUBCHEM_IUPAC_NAME_MARKUP>
3-methylpiperidine;hydrochloride
> <PUBCHEM_IUPAC_NAME>
3-methylpiperidine;hydrochloride
> <PUBCHEM_IUPAC_SYSTEMATIC_NAME>
3-methylpiperidine;hydrochloride
> <PUBCHEM_IUPAC_TRADITIONAL_NAME>
3-pipecoline;hydrochloride
> <PUBCHEM_IUPAC_INCHI>
InChI=1S/C6H13N.ClH/c1-6-3-2-4-7-5-6;/h6-7H,2-5H2,1H3;1H
> <PUBCHEM_IUPAC_INCHIKEY>
DIJAKMCTWBGMNQ-UHFFFAOYSA-N
> <PUBCHEM_EXACT_MASS>
135.0814771
> <PUBCHEM_MOLECULAR_FORMULA>
C6H14ClN
> <PUBCHEM_MOLECULAR_WEIGHT>
135.63
> <PUBCHEM_OPENEYE_CAN_SMILES>
CC1CCCNC1.Cl
> <PUBCHEM_OPENEYE_ISO_SMILES>
CC1CCCNC1.Cl
> <PUBCHEM_CACTVS_TPSA>
12
> <PUBCHEM_MONOISOTOPIC_WEIGHT>
135.0814771
> <PUBCHEM_TOTAL_CHARGE>
0
> <PUBCHEM_HEAVY_ATOM_COUNT>
8
> <PUBCHEM_ATOM_DEF_STEREO_COUNT>
0
> <PUBCHEM_ATOM_UDEF_STEREO_COUNT>
1
> <PUBCHEM_BOND_DEF_STEREO_COUNT>
0
> <PUBCHEM_BOND_UDEF_STEREO_COUNT>
0
> <PUBCHEM_ISOTOPIC_ATOM_COUNT>
0
> <PUBCHEM_COMPONENT_COUNT>
2
> <PUBCHEM_CACTVS_TAUTO_COUNT>
-1
> <PUBCHEM_COORDINATE_TYPE>
1
5
255
> <PUBCHEM_BONDANNOTATIONS>
3  8  3
$$$$
