521888
  -OEChem-10302200292D
 13 13  0     1  0  0  0  0  0999 V2000
    3.3660   -0.6830    0.0000 S   0  0  0  0  0  0  0  0  0  0  0  0
    2.8660    0.1830    0.0000 C   0  0  3  0  0  0  0  0  0  0  0  0
    3.8660    0.1830    0.0000 C   0  0  3  0  0  0  0  0  0  0  0  0
    2.0000    0.6830    0.0000 C   0  0  0  0  0  0  0  0  0  0  0  0
    4.7320    0.6830    0.0000 C   0  0  0  0  0  0  0  0  0  0  0  0
    2.2650   -0.4180    0.0000 H   0  0  0  0  0  0  0  0  0  0  0  0
    4.4671   -0.4180    0.0000 H   0  0  0  0  0  0  0  0  0  0  0  0
    2.3100    1.2200    0.0000 H   0  0  0  0  0  0  0  0  0  0  0  0
    1.4631    0.9930    0.0000 H   0  0  0  0  0  0  0  0  0  0  0  0
    1.6900    0.1461    0.0000 H   0  0  0  0  0  0  0  0  0  0  0  0
    5.0420    0.1461    0.0000 H   0  0  0  0  0  0  0  0  0  0  0  0
    5.2690    0.9930    0.0000 H   0  0  0  0  0  0  0  0  0  0  0  0
    4.4220    1.2200    0.0000 H   0  0  0  0  0  0  0  0  0  0  0  0
  1  2  1  0  0  0  0
  1  3  1  0  0  0  0
  2  3  1  0  0  0  0
  2  4  1  0  0  0  0
  2  6  1  0  0  0  0
  3  5  1  0  0  0  0
  3  7  1  0  0  0  0
  4  8  1  0  0  0  0
  4  9  1  0  0  0  0
  4 10  1  0  0  0  0
  5 11  1  0  0  0  0
  5 12  1  0  0  0  0
  5 13  1  0  0  0  0
M  END
> <PUBCHEM_COMPOUND_CID>
521888
> <PUBCHEM_COMPOUND_CANONICALIZED>
1
> <PUBCHEM_CACTVS_COMPLEXITY>
36.9
> <PUBCHEM_CACTVS_HBOND_ACCEPTOR>
1
> <PUBCHEM_CACTVS_HBOND_DONOR>
0
> <PUBCHEM_CACTVS_ROTATABLE_BOND>
0
> <PUBCHEM_CACTVS_SUBSKEYS>
AAADccBgAABAAAAAAAAAAAAAEgAAAAAAAAAAAAAAAAAAAAAAAAAAGAQAAAAACACEQACCAAAAAAgAAAAAAAAAAAAAABAAAAAAAAAAAAAAAAAAAAAAAAAgAAAAAAAAAAAAAAAAAAAAAAAAAAAAAAAAAAAAAA==
> <PUBCHEM_IUPAC_OPENEYE_NAME>
2,3-dimethylthiirane
> <PUBCHEM_IUPAC_CAS_NAME>
2,3-dimethylthiirane
> <PUBCHEM_IUPAC_NAME_MARKUP>
2,3-dimethylthiirane
> <PUBCHEM_IUPAC_NAME>
2,3-dimethylthiirane
> <PUBCHEM_IUPAC_SYSTEMATIC_NAME>
2,3-dimethylthiirane
> <PUBCHEM_IUPAC_TRADITIONAL_NAME>
2,3-dimethylthiirane
> <PUBCHEM_IUPAC_INCHI>
InChI=1S/C4H8S/c1-3-4(2)5-3/h3-4H,1-2H3
> <PUBCHEM_IUPAC_INCHIKEY>
ZMJBHCIEMIVIFZ-UHFFFAOYSA-N
> <PUBCHEM_XLOGP3_AA>
1.5
> <PUBCHEM_EXACT_MASS>
88.03467143
> <PUBCHEM_MOLECULAR_FORMULA>
C4H8S
> <PUBCHEM_MOLECULAR_WEIGHT>
88.17
> <PUBCHEM_OPENEYE_CAN_SMILES>
CC1C(S1)C
> <PUBCHEM_OPENEYE_ISO_SMILES>
CC1C(S1)C
> <PUBCHEM_CACTVS_TPSA>
25.3
> <PUBCHEM_MONOISOTOPIC_WEIGHT>
88.03467143
> <PUBCHEM_TOTAL_CHARGE>
0
> <PUBCHEM_HEAVY_ATOM_COUNT>
5
> <PUBCHEM_ATOM_DEF_STEREO_COUNT>
0
> <PUBCHEM_ATOM_UDEF_STEREO_COUNT>
2
> <PUBCHEM_BOND_DEF_STEREO_COUNT>
0
> <PUBCHEM_BOND_UDEF_STEREO_COUNT>
0
> <PUBCHEM_ISOTOPIC_ATOM_COUNT>
0
> <PUBCHEM_COMPONENT_COUNT>
1
> <PUBCHEM_CACTVS_TAUTO_COUNT>
1
> <PUBCHEM_COORDINATE_TYPE>
1
5
255
> <PUBCHEM_BONDANNOTATIONS>
2  6  3
3  7  3
$$$$
