521912
  -OEChem-10302200292D
 48 48  0     1  0  0  0  0  0999 V2000
    2.3426    3.3100    0.0000 O   0  0  0  0  0  0  0  0  0  0  0  0
    4.9407    5.8100    0.0000 O   0  0  0  0  0  0  0  0  0  0  0  0
    4.0747    3.3100    0.0000 O   0  0  0  0  0  0  0  0  0  0  0  0
    5.8067    3.3100    0.0000 O   0  0  0  0  0  0  0  0  0  0  0  0
    4.0747    1.3100    0.0000 O   0  0  0  0  0  0  0  0  0  0  0  0
    2.3426    0.3100    0.0000 O   0  0  0  0  0  0  0  0  0  0  0  0
    0.6106    1.3100    0.0000 O   0  0  0  0  0  0  0  0  0  0  0  0
    7.5388    4.3100    0.0000 O   0  0  0  0  0  0  0  0  0  0  0  0
    7.5388    6.3100    0.0000 O   0  0  0  0  0  0  0  0  0  0  0  0
    5.8067    7.3100    0.0000 O   0  0  0  0  0  0  0  0  0  0  0  0
    0.6106    4.3100    0.0000 O   0  0  0  0  0  0  0  0  0  0  0  0
    4.0379    9.6200    0.0000 O   0  0  0  0  0  0  0  0  0  0  0  0
    4.9407    4.8100    0.0000 C   0  0  3  0  0  0  0  0  0  0  0  0
    5.8067    4.3100    0.0000 C   0  0  3  0  0  0  0  0  0  0  0  0
    3.2087    1.8100    0.0000 C   0  0  3  0  0  0  0  0  0  0  0  0
    2.3426    1.3100    0.0000 C   0  0  3  0  0  0  0  0  0  0  0  0
    3.2087    2.8100    0.0000 C   0  0  3  0  0  0  0  0  0  0  0  0
    1.4766    1.8100    0.0000 C   0  0  3  0  0  0  0  0  0  0  0  0
    6.6728    4.8100    0.0000 C   0  0  3  0  0  0  0  0  0  0  0  0
    1.4766    2.8100    0.0000 C   0  0  3  0  0  0  0  0  0  0  0  0
    6.6728    5.8100    0.0000 C   0  0  3  0  0  0  0  0  0  0  0  0
    4.0747    4.3100    0.0000 C   0  0  0  0  0  0  0  0  0  0  0  0
    5.8067    6.3100    0.0000 C   0  0  3  0  0  0  0  0  0  0  0  0
    0.6106    3.3100    0.0000 C   0  0  0  0  0  0  0  0  0  0  0  0
    4.4038    5.1200    0.0000 H   0  0  0  0  0  0  0  0  0  0  0  0
    6.3437    4.0000    0.0000 H   0  0  0  0  0  0  0  0  0  0  0  0
    3.2087    1.1900    0.0000 H   0  0  0  0  0  0  0  0  0  0  0  0
    1.8057    1.0000    0.0000 H   0  0  0  0  0  0  0  0  0  0  0  0
    3.2087    3.4300    0.0000 H   0  0  0  0  0  0  0  0  0  0  0  0
    1.4766    1.1900    0.0000 H   0  0  0  0  0  0  0  0  0  0  0  0
    7.2097    5.1200    0.0000 H   0  0  0  0  0  0  0  0  0  0  0  0
    1.4766    3.4300    0.0000 H   0  0  0  0  0  0  0  0  0  0  0  0
    6.6728    6.4300    0.0000 H   0  0  0  0  0  0  0  0  0  0  0  0
    3.8626    4.8926    0.0000 H   0  0  0  0  0  0  0  0  0  0  0  0
    3.4641    4.2023    0.0000 H   0  0  0  0  0  0  0  0  0  0  0  0
    5.2698    6.6200    0.0000 H   0  0  0  0  0  0  0  0  0  0  0  0
    0.0000    3.4177    0.0000 H   0  0  0  0  0  0  0  0  0  0  0  0
    0.3985    2.7274    0.0000 H   0  0  0  0  0  0  0  0  0  0  0  0
    6.3437    3.0000    0.0000 H   0  0  0  0  0  0  0  0  0  0  0  0
    4.6116    1.6200    0.0000 H   0  0  0  0  0  0  0  0  0  0  0  0
    1.8057    0.0000    0.0000 H   0  0  0  0  0  0  0  0  0  0  0  0
    0.0736    1.6200    0.0000 H   0  0  0  0  0  0  0  0  0  0  0  0
    8.0757    4.6200    0.0000 H   0  0  0  0  0  0  0  0  0  0  0  0
    7.5388    6.9300    0.0000 H   0  0  0  0  0  0  0  0  0  0  0  0
    5.2698    7.6200    0.0000 H   0  0  0  0  0  0  0  0  0  0  0  0
    0.0736    4.6200    0.0000 H   0  0  0  0  0  0  0  0  0  0  0  0
    4.5748    9.9300    0.0000 H   0  0  0  0  0  0  0  0  0  0  0  0
    3.5009    9.9300    0.0000 H   0  0  0  0  0  0  0  0  0  0  0  0
  1 17  1  0  0  0  0
  1 20  1  0  0  0  0
  2 13  1  0  0  0  0
  2 23  1  0  0  0  0
  3 17  1  0  0  0  0
  3 22  1  0  0  0  0
  4 14  1  0  0  0  0
  4 39  1  0  0  0  0
  5 15  1  0  0  0  0
  5 40  1  0  0  0  0
  6 16  1  0  0  0  0
  6 41  1  0  0  0  0
  7 18  1  0  0  0  0
  7 42  1  0  0  0  0
  8 19  1  0  0  0  0
  8 43  1  0  0  0  0
  9 21  1  0  0  0  0
  9 44  1  0  0  0  0
 10 23  1  0  0  0  0
 10 45  1  0  0  0  0
 11 24  1  0  0  0  0
 11 46  1  0  0  0  0
 12 47  1  0  0  0  0
 12 48  1  0  0  0  0
 13 14  1  0  0  0  0
 13 22  1  0  0  0  0
 13 25  1  0  0  0  0
 14 19  1  0  0  0  0
 14 26  1  0  0  0  0
 15 16  1  0  0  0  0
 15 17  1  0  0  0  0
 15 27  1  0  0  0  0
 16 18  1  0  0  0  0
 16 28  1  0  0  0  0
 17 29  1  0  0  0  0
 18 20  1  0  0  0  0
 18 30  1  0  0  0  0
 19 21  1  0  0  0  0
 19 31  1  0  0  0  0
 20 24  1  0  0  0  0
 20 32  1  0  0  0  0
 21 23  1  0  0  0  0
 21 33  1  0  0  0  0
 22 34  1  0  0  0  0
 22 35  1  0  0  0  0
 23 36  1  0  0  0  0
 24 37  1  0  0  0  0
 24 38  1  0  0  0  0
M  END
> <PUBCHEM_COMPOUND_CID>
521912
> <PUBCHEM_COMPOUND_CANONICALIZED>
1
> <PUBCHEM_CACTVS_COMPLEXITY>
382
> <PUBCHEM_CACTVS_HBOND_ACCEPTOR>
12
> <PUBCHEM_CACTVS_HBOND_DONOR>
9
> <PUBCHEM_CACTVS_ROTATABLE_BOND>
4
> <PUBCHEM_CACTVS_SUBSKEYS>
AAADceBwPAAAAAAAAAAAAAAAAAAAAAAAAAAkSAAAAAAAAAAAAAAAGgAACAAACBSwgAMACAAABgAAAAAAAAAAAAAAAAAAAAAAAAAREAIAAAAiQAAFAAAHAAHAYAwAAAAAAAAAAAAAAAAAAAAAAAAAAAAAAA==
> <PUBCHEM_IUPAC_OPENEYE_NAME>
6-[[3,4,5-trihydroxy-6-(hydroxymethyl)tetrahydropyran-2-yl]oxymethyl]tetrahydropyran-2,3,4,5-tetrol;hydrate
> <PUBCHEM_IUPAC_CAS_NAME>
6-[[3,4,5-trihydroxy-6-(hydroxymethyl)-2-oxanyl]oxymethyl]oxane-2,3,4,5-tetrol;hydrate
> <PUBCHEM_IUPAC_NAME_MARKUP>
6-[[3,4,5-trihydroxy-6-(hydroxymethyl)oxan-2-yl]oxymethyl]oxane-2,3,4,5-tetrol;hydrate
> <PUBCHEM_IUPAC_NAME>
6-[[3,4,5-trihydroxy-6-(hydroxymethyl)oxan-2-yl]oxymethyl]oxane-2,3,4,5-tetrol;hydrate
> <PUBCHEM_IUPAC_SYSTEMATIC_NAME>
6-[[6-(hydroxymethyl)-3,4,5-tris(oxidanyl)oxan-2-yl]oxymethyl]oxane-2,3,4,5-tetrol;hydrate
> <PUBCHEM_IUPAC_TRADITIONAL_NAME>
6-[(3,4,5-trihydroxy-6-methylol-tetrahydropyran-2-yl)oxymethyl]tetrahydropyran-2,3,4,5-tetrol;hydrate
> <PUBCHEM_IUPAC_INCHI>
InChI=1S/C12H22O11.H2O/c13-1-3-5(14)8(17)10(19)12(23-3)21-2-4-6(15)7(16)9(18)11(20)22-4;/h3-20H,1-2H2;1H2
> <PUBCHEM_IUPAC_INCHIKEY>
RGFAEJSLSYUKCO-UHFFFAOYSA-N
> <PUBCHEM_EXACT_MASS>
360.12677620
> <PUBCHEM_MOLECULAR_FORMULA>
C12H24O12
> <PUBCHEM_MOLECULAR_WEIGHT>
360.31
> <PUBCHEM_OPENEYE_CAN_SMILES>
C(C1C(C(C(C(O1)OCC2C(C(C(C(O2)O)O)O)O)O)O)O)O.O
> <PUBCHEM_OPENEYE_ISO_SMILES>
C(C1C(C(C(C(O1)OCC2C(C(C(C(O2)O)O)O)O)O)O)O)O.O
> <PUBCHEM_CACTVS_TPSA>
191
> <PUBCHEM_MONOISOTOPIC_WEIGHT>
360.12677620
> <PUBCHEM_TOTAL_CHARGE>
0
> <PUBCHEM_HEAVY_ATOM_COUNT>
24
> <PUBCHEM_ATOM_DEF_STEREO_COUNT>
0
> <PUBCHEM_ATOM_UDEF_STEREO_COUNT>
10
> <PUBCHEM_BOND_DEF_STEREO_COUNT>
0
> <PUBCHEM_BOND_UDEF_STEREO_COUNT>
0
> <PUBCHEM_ISOTOPIC_ATOM_COUNT>
0
> <PUBCHEM_COMPONENT_COUNT>
2
> <PUBCHEM_CACTVS_TAUTO_COUNT>
-1
> <PUBCHEM_COORDINATE_TYPE>
1
5
255
> <PUBCHEM_BONDANNOTATIONS>
23  10  3
13  22  3
20  24  3
17  3  3
14  4  3
15  5  3
16  6  3
18  7  3
19  8  3
21  9  3
$$$$
