521932
  -OEChem-10302200292D
 26 29  0     1  0  0  0  0  0999 V2000
    4.0855   -0.2949    0.0000 C   0  0  0  0  0  0  0  0  0  0  0  0
    3.2765    0.2929    0.0000 C   0  0  0  0  0  0  0  0  0  0  0  0
    4.8945    0.2929    0.0000 C   0  0  3  0  0  0  0  0  0  0  0  0
    3.7759   -1.2395    0.0000 C   0  0  3  0  0  0  0  0  0  0  0  0
    3.5855    1.2440    0.0000 C   0  0  3  0  0  0  0  0  0  0  0  0
    2.4738   -0.2935    0.0000 C   0  0  3  0  0  0  0  0  0  0  0  0
    4.5855    1.2440    0.0000 C   0  0  0  0  0  0  0  0  0  0  0  0
    2.7818   -1.2386    0.0000 C   0  0  0  0  0  0  0  0  0  0  0  0
    5.3643   -0.6000    0.0000 C   0  0  0  0  0  0  0  0  0  0  0  0
    4.7694   -1.4148    0.0000 C   0  0  0  0  0  0  0  0  0  0  0  0
    2.5912    1.4148    0.0000 C   0  0  0  0  0  0  0  0  0  0  0  0
    2.0000    0.5973    0.0000 C   0  0  0  0  0  0  0  0  0  0  0  0
    4.5866   -0.6599    0.0000 H   0  0  0  0  0  0  0  0  0  0  0  0
    2.7744    0.6567    0.0000 H   0  0  0  0  0  0  0  0  0  0  0  0
    5.4658    0.5339    0.0000 H   0  0  0  0  0  0  0  0  0  0  0  0
    3.7215   -1.8571    0.0000 H   0  0  0  0  0  0  0  0  0  0  0  0
    3.6382    1.8617    0.0000 H   0  0  0  0  0  0  0  0  0  0  0  0
    1.9032   -0.5360    0.0000 H   0  0  0  0  0  0  0  0  0  0  0  0
    5.1920    1.3729    0.0000 H   0  0  0  0  0  0  0  0  0  0  0  0
    4.5207    1.8606    0.0000 H   0  0  0  0  0  0  0  0  0  0  0  0
    2.1754   -1.3677    0.0000 H   0  0  0  0  0  0  0  0  0  0  0  0
    2.8464   -1.8552    0.0000 H   0  0  0  0  0  0  0  0  0  0  0  0
    5.9826   -0.6452    0.0000 H   0  0  0  0  0  0  0  0  0  0  0  0
    5.0010   -1.9900    0.0000 H   0  0  0  0  0  0  0  0  0  0  0  0
    2.3570    1.9889    0.0000 H   0  0  0  0  0  0  0  0  0  0  0  0
    1.3815    0.6398    0.0000 H   0  0  0  0  0  0  0  0  0  0  0  0
  1  2  1  0  0  0  0
  1  3  1  0  0  0  0
  1  4  1  0  0  0  0
  1 13  1  0  0  0  0
  2  5  1  0  0  0  0
  2  6  1  0  0  0  0
  2 14  1  0  0  0  0
  3  7  1  0  0  0  0
  3  9  1  0  0  0  0
  3 15  1  0  0  0  0
  4  8  1  0  0  0  0
  4 10  1  0  0  0  0
  4 16  1  0  0  0  0
  5  7  1  0  0  0  0
  5 11  1  0  0  0  0
  5 17  1  0  0  0  0
  6  8  1  0  0  0  0
  6 12  1  0  0  0  0
  6 18  1  0  0  0  0
  7 19  1  0  0  0  0
  7 20  1  0  0  0  0
  8 21  1  0  0  0  0
  8 22  1  0  0  0  0
  9 10  2  0  0  0  0
  9 23  1  0  0  0  0
 10 24  1  0  0  0  0
 11 12  2  0  0  0  0
 11 25  1  0  0  0  0
 12 26  1  0  0  0  0
M  END
> <PUBCHEM_COMPOUND_CID>
521932
> <PUBCHEM_COMPOUND_CANONICALIZED>
1
> <PUBCHEM_CACTVS_COMPLEXITY>
232
> <PUBCHEM_CACTVS_HBOND_ACCEPTOR>
0
> <PUBCHEM_CACTVS_HBOND_DONOR>
0
> <PUBCHEM_CACTVS_ROTATABLE_BOND>
0
> <PUBCHEM_CACTVS_SUBSKEYS>
AAADccBwAAAAAAAAAAAAAAAAAAAAAYMECAAAAAAAAAAQIAAAAAAAGAAAAAAADQCAAAAAAAAAAACAACBCAAAAAAAgAAAICAAAAAgAAAIAAQAAAAAAgAAIAAMAgMAOgAAAAAAAAAAAAAAAAAAAAQAACAAAAA==
> <PUBCHEM_IUPAC_OPENEYE_NAME>
tetracyclo[7.2.1.04,11.06,10]dodeca-2,7-diene
> <PUBCHEM_IUPAC_CAS_NAME>
tetracyclo[7.2.1.04,11.06,10]dodeca-2,7-diene
> <PUBCHEM_IUPAC_NAME_MARKUP>
tetracyclo[7.2.1.0<SUP>4,11</SUP>.0<SUP>6,10</SUP>]dodeca-2,7-diene
> <PUBCHEM_IUPAC_NAME>
tetracyclo[7.2.1.04,11.06,10]dodeca-2,7-diene
> <PUBCHEM_IUPAC_SYSTEMATIC_NAME>
tetracyclo[7.2.1.04,11.06,10]dodeca-2,7-diene
> <PUBCHEM_IUPAC_TRADITIONAL_NAME>
tetracyclo[7.2.1.04,11.06,10]dodeca-2,7-diene
> <PUBCHEM_IUPAC_INCHI>
InChI=1S/C12H14/c1-2-8-6-10-4-3-9-5-7(1)11(8)12(9)10/h1-4,7-12H,5-6H2
> <PUBCHEM_IUPAC_INCHIKEY>
FGZALOGDPFYZQX-UHFFFAOYSA-N
> <PUBCHEM_XLOGP3_AA>
2.8
> <PUBCHEM_EXACT_MASS>
158.109550447
> <PUBCHEM_MOLECULAR_FORMULA>
C12H14
> <PUBCHEM_MOLECULAR_WEIGHT>
158.24
> <PUBCHEM_OPENEYE_CAN_SMILES>
C1C2C=CC3C2C4C1C=CC4C3
> <PUBCHEM_OPENEYE_ISO_SMILES>
C1C2C=CC3C2C4C1C=CC4C3
> <PUBCHEM_CACTVS_TPSA>
0
> <PUBCHEM_MONOISOTOPIC_WEIGHT>
158.109550447
> <PUBCHEM_TOTAL_CHARGE>
0
> <PUBCHEM_HEAVY_ATOM_COUNT>
12
> <PUBCHEM_ATOM_DEF_STEREO_COUNT>
0
> <PUBCHEM_ATOM_UDEF_STEREO_COUNT>
4
> <PUBCHEM_BOND_DEF_STEREO_COUNT>
0
> <PUBCHEM_BOND_UDEF_STEREO_COUNT>
0
> <PUBCHEM_ISOTOPIC_ATOM_COUNT>
0
> <PUBCHEM_COMPONENT_COUNT>
1
> <PUBCHEM_CACTVS_TAUTO_COUNT>
-1
> <PUBCHEM_COORDINATE_TYPE>
1
5
255
> <PUBCHEM_BONDANNOTATIONS>
3  7  3
4  8  3
5  7  3
6  8  3
$$$$
