521905
  -OEChem-10302200292D
 27 27  0     1  0  0  0  0  0999 V2000
    2.5369    1.0000    0.0000 O   0  0  0  0  0  0  0  0  0  0  0  0
    5.1350    2.5000    0.0000 O   0  0  0  0  0  0  0  0  0  0  0  0
    6.0010   -1.0000    0.0000 C   0  0  3  0  0  0  0  0  0  0  0  0
    6.0010   -2.0000    0.0000 C   0  0  0  0  0  0  0  0  0  0  0  0
    5.1350   -0.5000    0.0000 C   0  0  0  0  0  0  0  0  0  0  0  0
    6.8671   -0.5000    0.0000 C   0  0  0  0  0  0  0  0  0  0  0  0
    5.1350    0.5000    0.0000 C   0  0  0  0  0  0  0  0  0  0  0  0
    6.8671   -2.5000    0.0000 C   0  0  0  0  0  0  0  0  0  0  0  0
    4.2690   -1.0000    0.0000 C   0  0  0  0  0  0  0  0  0  0  0  0
    4.2690    1.0000    0.0000 C   0  0  0  0  0  0  0  0  0  0  0  0
    3.4030   -0.5000    0.0000 C   0  0  0  0  0  0  0  0  0  0  0  0
    3.4030    0.5000    0.0000 C   0  0  0  0  0  0  0  0  0  0  0  0
    4.2690    2.0000    0.0000 C   0  0  0  0  0  0  0  0  0  0  0  0
    6.5380   -1.3100    0.0000 H   0  0  0  0  0  0  0  0  0  0  0  0
    5.3905   -1.8923    0.0000 H   0  0  0  0  0  0  0  0  0  0  0  0
    5.7890   -2.5826    0.0000 H   0  0  0  0  0  0  0  0  0  0  0  0
    7.1771   -1.0369    0.0000 H   0  0  0  0  0  0  0  0  0  0  0  0
    7.4040   -0.1900    0.0000 H   0  0  0  0  0  0  0  0  0  0  0  0
    6.5571    0.0369    0.0000 H   0  0  0  0  0  0  0  0  0  0  0  0
    5.6720    0.8100    0.0000 H   0  0  0  0  0  0  0  0  0  0  0  0
    6.5571   -3.0369    0.0000 H   0  0  0  0  0  0  0  0  0  0  0  0
    7.4040   -2.8100    0.0000 H   0  0  0  0  0  0  0  0  0  0  0  0
    7.1771   -1.9631    0.0000 H   0  0  0  0  0  0  0  0  0  0  0  0
    4.2690   -1.6200    0.0000 H   0  0  0  0  0  0  0  0  0  0  0  0
    2.8660   -0.8100    0.0000 H   0  0  0  0  0  0  0  0  0  0  0  0
    3.7320    2.3100    0.0000 H   0  0  0  0  0  0  0  0  0  0  0  0
    2.0000    0.6900    0.0000 H   0  0  0  0  0  0  0  0  0  0  0  0
  1 12  1  0  0  0  0
  1 27  1  0  0  0  0
  2 13  2  0  0  0  0
  3  4  1  0  0  0  0
  3  5  1  0  0  0  0
  3  6  1  0  0  0  0
  3 14  1  0  0  0  0
  4  8  1  0  0  0  0
  4 15  1  0  0  0  0
  4 16  1  0  0  0  0
  5  7  2  0  0  0  0
  5  9  1  0  0  0  0
  6 17  1  0  0  0  0
  6 18  1  0  0  0  0
  6 19  1  0  0  0  0
  7 10  1  0  0  0  0
  7 20  1  0  0  0  0
  8 21  1  0  0  0  0
  8 22  1  0  0  0  0
  8 23  1  0  0  0  0
  9 11  2  0  0  0  0
  9 24  1  0  0  0  0
 10 12  2  0  0  0  0
 10 13  1  0  0  0  0
 11 12  1  0  0  0  0
 11 25  1  0  0  0  0
 13 26  1  0  0  0  0
M  END
> <PUBCHEM_COMPOUND_CID>
521905
> <PUBCHEM_COMPOUND_CANONICALIZED>
1
> <PUBCHEM_CACTVS_COMPLEXITY>
168
> <PUBCHEM_CACTVS_HBOND_ACCEPTOR>
2
> <PUBCHEM_CACTVS_HBOND_DONOR>
1
> <PUBCHEM_CACTVS_ROTATABLE_BOND>
3
> <PUBCHEM_CACTVS_SUBSKEYS>
AAADccBwMAAAAAAAAAAAAAAAAAAAAAAAAAAwAAAAAAAAAAABAAAAGgAACAAADQSgmAIyBoAAAgCIAihSgAACAAAkIAAIiAEGCMgIJjaCFRKAcUAk4BEImYeIyPCOoAACAAAIAABAAAQAABAAAAAAAAAAAA==
> <PUBCHEM_IUPAC_OPENEYE_NAME>
2-hydroxy-5-sec-butyl-benzaldehyde
> <PUBCHEM_IUPAC_CAS_NAME>
5-butan-2-yl-2-hydroxybenzaldehyde
> <PUBCHEM_IUPAC_NAME_MARKUP>
5-butan-2-yl-2-hydroxybenzaldehyde
> <PUBCHEM_IUPAC_NAME>
5-butan-2-yl-2-hydroxybenzaldehyde
> <PUBCHEM_IUPAC_SYSTEMATIC_NAME>
5-butan-2-yl-2-oxidanyl-benzaldehyde
> <PUBCHEM_IUPAC_TRADITIONAL_NAME>
2-hydroxy-5-sec-butyl-benzaldehyde
> <PUBCHEM_IUPAC_INCHI>
InChI=1S/C11H14O2/c1-3-8(2)9-4-5-11(13)10(6-9)7-12/h4-8,13H,3H2,1-2H3
> <PUBCHEM_IUPAC_INCHIKEY>
KKECZRYVNIFRRC-UHFFFAOYSA-N
> <PUBCHEM_XLOGP3>
3.5
> <PUBCHEM_EXACT_MASS>
178.099379685
> <PUBCHEM_MOLECULAR_FORMULA>
C11H14O2
> <PUBCHEM_MOLECULAR_WEIGHT>
178.23
> <PUBCHEM_OPENEYE_CAN_SMILES>
CCC(C)C1=CC(=C(C=C1)O)C=O
> <PUBCHEM_OPENEYE_ISO_SMILES>
CCC(C)C1=CC(=C(C=C1)O)C=O
> <PUBCHEM_CACTVS_TPSA>
37.3
> <PUBCHEM_MONOISOTOPIC_WEIGHT>
178.099379685
> <PUBCHEM_TOTAL_CHARGE>
0
> <PUBCHEM_HEAVY_ATOM_COUNT>
13
> <PUBCHEM_ATOM_DEF_STEREO_COUNT>
0
> <PUBCHEM_ATOM_UDEF_STEREO_COUNT>
1
> <PUBCHEM_BOND_DEF_STEREO_COUNT>
0
> <PUBCHEM_BOND_UDEF_STEREO_COUNT>
0
> <PUBCHEM_ISOTOPIC_ATOM_COUNT>
0
> <PUBCHEM_COMPONENT_COUNT>
1
> <PUBCHEM_CACTVS_TAUTO_COUNT>
-1
> <PUBCHEM_COORDINATE_TYPE>
1
5
255
> <PUBCHEM_BONDANNOTATIONS>
10  12  8
11  12  8
3  6  3
5  7  8
5  9  8
7  10  8
9  11  8
$$$$
