522086
  -OEChem-10302200292D
 20 19  0     1  0  0  0  0  0999 V2000
    2.5369   -0.9330    0.0000 O   0  0  0  0  0  0  0  0  0  0  0  0
    3.4030   -0.4330    0.0000 C   0  0  3  0  0  0  0  0  0  0  0  0
    2.9030    0.4330    0.0000 C   0  0  0  0  0  0  0  0  0  0  0  0
    3.9030   -1.2990    0.0000 C   0  0  0  0  0  0  0  0  0  0  0  0
    3.4030    1.2990    0.0000 C   0  0  0  0  0  0  0  0  0  0  0  0
    4.2690    0.0670    0.0000 C   0  0  0  0  0  0  0  0  0  0  0  0
    5.1350    0.5670    0.0000 C   0  0  0  0  0  0  0  0  0  0  0  0
    6.0010    1.0670    0.0000 C   0  0  0  0  0  0  0  0  0  0  0  0
    2.4280    0.8315    0.0000 H   0  0  0  0  0  0  0  0  0  0  0  0
    2.4280    0.0345    0.0000 H   0  0  0  0  0  0  0  0  0  0  0  0
    3.3660   -1.6090    0.0000 H   0  0  0  0  0  0  0  0  0  0  0  0
    4.2130   -1.8360    0.0000 H   0  0  0  0  0  0  0  0  0  0  0  0
    4.4399   -0.9890    0.0000 H   0  0  0  0  0  0  0  0  0  0  0  0
    3.9399    0.9890    0.0000 H   0  0  0  0  0  0  0  0  0  0  0  0
    3.7130    1.8360    0.0000 H   0  0  0  0  0  0  0  0  0  0  0  0
    2.8660    1.6090    0.0000 H   0  0  0  0  0  0  0  0  0  0  0  0
    2.0000   -0.6230    0.0000 H   0  0  0  0  0  0  0  0  0  0  0  0
    6.3110    0.5301    0.0000 H   0  0  0  0  0  0  0  0  0  0  0  0
    6.5380    1.3770    0.0000 H   0  0  0  0  0  0  0  0  0  0  0  0
    5.6910    1.6039    0.0000 H   0  0  0  0  0  0  0  0  0  0  0  0
  1  2  1  0  0  0  0
  1 17  1  0  0  0  0
  2  3  1  0  0  0  0
  2  4  1  0  0  0  0
  2  6  1  0  0  0  0
  3  5  1  0  0  0  0
  3  9  1  0  0  0  0
  3 10  1  0  0  0  0
  4 11  1  0  0  0  0
  4 12  1  0  0  0  0
  4 13  1  0  0  0  0
  5 14  1  0  0  0  0
  5 15  1  0  0  0  0
  5 16  1  0  0  0  0
  6  7  3  0  0  0  0
  7  8  1  0  0  0  0
  8 18  1  0  0  0  0
  8 19  1  0  0  0  0
  8 20  1  0  0  0  0
M  END
> <PUBCHEM_COMPOUND_CID>
522086
> <PUBCHEM_COMPOUND_CANONICALIZED>
1
> <PUBCHEM_CACTVS_COMPLEXITY>
126
> <PUBCHEM_CACTVS_HBOND_ACCEPTOR>
1
> <PUBCHEM_CACTVS_HBOND_DONOR>
1
> <PUBCHEM_CACTVS_ROTATABLE_BOND>
2
> <PUBCHEM_CACTVS_SUBSKEYS>
AAADccBgIAAAAAAAAAAAAAAAAAAAAAAAAAAAAAAAAAAAAAAAAAAAGgAACAAADESAgAACAAAAAgBAEAAAAAgAAAAAAAAAAAAAAAAAAAAAAAAAQAAAAAAAAAAAAAAIAAAAAAAAAAAAAAAAAAAAAAAAAAAAAA==
> <PUBCHEM_IUPAC_OPENEYE_NAME>
3-methylhex-4-yn-3-ol
> <PUBCHEM_IUPAC_CAS_NAME>
3-methyl-4-hexyn-3-ol
> <PUBCHEM_IUPAC_NAME_MARKUP>
3-methylhex-4-yn-3-ol
> <PUBCHEM_IUPAC_NAME>
3-methylhex-4-yn-3-ol
> <PUBCHEM_IUPAC_SYSTEMATIC_NAME>
3-methylhex-4-yn-3-ol
> <PUBCHEM_IUPAC_TRADITIONAL_NAME>
3-methylhex-4-yn-3-ol
> <PUBCHEM_IUPAC_INCHI>
InChI=1S/C7H12O/c1-4-6-7(3,8)5-2/h8H,5H2,1-3H3
> <PUBCHEM_IUPAC_INCHIKEY>
VLRDHNINMBNPDK-UHFFFAOYSA-N
> <PUBCHEM_XLOGP3_AA>
1.3
> <PUBCHEM_EXACT_MASS>
112.088815002
> <PUBCHEM_MOLECULAR_FORMULA>
C7H12O
> <PUBCHEM_MOLECULAR_WEIGHT>
112.17
> <PUBCHEM_OPENEYE_CAN_SMILES>
CCC(C)(C#CC)O
> <PUBCHEM_OPENEYE_ISO_SMILES>
CCC(C)(C#CC)O
> <PUBCHEM_CACTVS_TPSA>
20.2
> <PUBCHEM_MONOISOTOPIC_WEIGHT>
112.088815002
> <PUBCHEM_TOTAL_CHARGE>
0
> <PUBCHEM_HEAVY_ATOM_COUNT>
8
> <PUBCHEM_ATOM_DEF_STEREO_COUNT>
0
> <PUBCHEM_ATOM_UDEF_STEREO_COUNT>
1
> <PUBCHEM_BOND_DEF_STEREO_COUNT>
0
> <PUBCHEM_BOND_UDEF_STEREO_COUNT>
0
> <PUBCHEM_ISOTOPIC_ATOM_COUNT>
0
> <PUBCHEM_COMPONENT_COUNT>
1
> <PUBCHEM_CACTVS_TAUTO_COUNT>
-1
> <PUBCHEM_COORDINATE_TYPE>
1
5
255
> <PUBCHEM_BONDANNOTATIONS>
2  1  3
$$$$
