522009
  -OEChem-10302200292D
 27 27  0     1  0  0  0  0  0999 V2000
    3.0878    1.2262    0.0000 C   0  0  0  0  0  0  0  0  0  0  0  0
    2.5878   -0.3126    0.0000 C   0  0  3  0  0  0  0  0  0  0  0  0
    2.2788    0.6384    0.0000 C   0  0  0  0  0  0  0  0  0  0  0  0
    3.8968    0.6384    0.0000 C   0  0  0  0  0  0  0  0  0  0  0  0
    3.5878   -0.3126    0.0000 C   0  0  0  0  0  0  0  0  0  0  0  0
    2.0000   -1.1217    0.0000 C   0  0  0  0  0  0  0  0  0  0  0  0
    3.6756    2.0352    0.0000 C   0  0  0  0  0  0  0  0  0  0  0  0
    2.5000    2.0352    0.0000 C   0  0  0  0  0  0  0  0  0  0  0  0
    2.4067   -2.0352    0.0000 C   0  0  0  0  0  0  0  0  0  0  0  0
    2.9737   -1.0700    0.0000 H   0  0  0  0  0  0  0  0  0  0  0  0
    1.9688    1.1753    0.0000 H   0  0  0  0  0  0  0  0  0  0  0  0
    1.7124    0.3862    0.0000 H   0  0  0  0  0  0  0  0  0  0  0  0
    4.4632    0.3862    0.0000 H   0  0  0  0  0  0  0  0  0  0  0  0
    4.2068    1.1753    0.0000 H   0  0  0  0  0  0  0  0  0  0  0  0
    3.5230   -0.9293    0.0000 H   0  0  0  0  0  0  0  0  0  0  0  0
    4.1942   -0.4416    0.0000 H   0  0  0  0  0  0  0  0  0  0  0  0
    1.5693   -0.6757    0.0000 H   0  0  0  0  0  0  0  0  0  0  0  0
    1.4860   -1.4684    0.0000 H   0  0  0  0  0  0  0  0  0  0  0  0
    4.1772    1.6708    0.0000 H   0  0  0  0  0  0  0  0  0  0  0  0
    4.0400    2.5368    0.0000 H   0  0  0  0  0  0  0  0  0  0  0  0
    3.1740    2.3996    0.0000 H   0  0  0  0  0  0  0  0  0  0  0  0
    3.0016    2.3996    0.0000 H   0  0  0  0  0  0  0  0  0  0  0  0
    2.1356    2.5368    0.0000 H   0  0  0  0  0  0  0  0  0  0  0  0
    1.9984    1.6708    0.0000 H   0  0  0  0  0  0  0  0  0  0  0  0
    1.8403   -2.2874    0.0000 H   0  0  0  0  0  0  0  0  0  0  0  0
    2.6589   -2.6016    0.0000 H   0  0  0  0  0  0  0  0  0  0  0  0
    2.9731   -1.7830    0.0000 H   0  0  0  0  0  0  0  0  0  0  0  0
  1  3  1  0  0  0  0
  1  4  1  0  0  0  0
  1  7  1  0  0  0  0
  1  8  1  0  0  0  0
  2  3  1  0  0  0  0
  2  5  1  0  0  0  0
  2  6  1  0  0  0  0
  2 10  1  0  0  0  0
  3 11  1  0  0  0  0
  3 12  1  0  0  0  0
  4  5  1  0  0  0  0
  4 13  1  0  0  0  0
  4 14  1  0  0  0  0
  5 15  1  0  0  0  0
  5 16  1  0  0  0  0
  6  9  1  0  0  0  0
  6 17  1  0  0  0  0
  6 18  1  0  0  0  0
  7 19  1  0  0  0  0
  7 20  1  0  0  0  0
  7 21  1  0  0  0  0
  8 22  1  0  0  0  0
  8 23  1  0  0  0  0
  8 24  1  0  0  0  0
  9 25  1  0  0  0  0
  9 26  1  0  0  0  0
  9 27  1  0  0  0  0
M  END
> <PUBCHEM_COMPOUND_CID>
522009
> <PUBCHEM_COMPOUND_CANONICALIZED>
1
> <PUBCHEM_CACTVS_COMPLEXITY>
92.2
> <PUBCHEM_CACTVS_HBOND_ACCEPTOR>
0
> <PUBCHEM_CACTVS_HBOND_DONOR>
0
> <PUBCHEM_CACTVS_ROTATABLE_BOND>
1
> <PUBCHEM_CACTVS_SUBSKEYS>
AAADceBwAAAAAAAAAAAAAAAAAAAAAYAAAAAAAAAAAAAAAAAAAAAAGAAAAAAADwCAAAACAAAAAAAAAAAAAAAAAAAAAAAAAAAAAAAAAAIAAAAAAAAAAAAAAAEAgEAPAAAAAAAAAAAAAAAAAAAAAQAAAAAAAA==
> <PUBCHEM_IUPAC_OPENEYE_NAME>
3-ethyl-1,1-dimethyl-cyclopentane
> <PUBCHEM_IUPAC_CAS_NAME>
3-ethyl-1,1-dimethylcyclopentane
> <PUBCHEM_IUPAC_NAME_MARKUP>
3-ethyl-1,1-dimethylcyclopentane
> <PUBCHEM_IUPAC_NAME>
3-ethyl-1,1-dimethylcyclopentane
> <PUBCHEM_IUPAC_SYSTEMATIC_NAME>
3-ethyl-1,1-dimethyl-cyclopentane
> <PUBCHEM_IUPAC_TRADITIONAL_NAME>
3-ethyl-1,1-dimethyl-cyclopentane
> <PUBCHEM_IUPAC_INCHI>
InChI=1S/C9H18/c1-4-8-5-6-9(2,3)7-8/h8H,4-7H2,1-3H3
> <PUBCHEM_IUPAC_INCHIKEY>
WXHYOGXBESCULU-UHFFFAOYSA-N
> <PUBCHEM_XLOGP3_AA>
4.1
> <PUBCHEM_EXACT_MASS>
126.140850574
> <PUBCHEM_MOLECULAR_FORMULA>
C9H18
> <PUBCHEM_MOLECULAR_WEIGHT>
126.24
> <PUBCHEM_OPENEYE_CAN_SMILES>
CCC1CCC(C1)(C)C
> <PUBCHEM_OPENEYE_ISO_SMILES>
CCC1CCC(C1)(C)C
> <PUBCHEM_CACTVS_TPSA>
0
> <PUBCHEM_MONOISOTOPIC_WEIGHT>
126.140850574
> <PUBCHEM_TOTAL_CHARGE>
0
> <PUBCHEM_HEAVY_ATOM_COUNT>
9
> <PUBCHEM_ATOM_DEF_STEREO_COUNT>
0
> <PUBCHEM_ATOM_UDEF_STEREO_COUNT>
1
> <PUBCHEM_BOND_DEF_STEREO_COUNT>
0
> <PUBCHEM_BOND_UDEF_STEREO_COUNT>
0
> <PUBCHEM_ISOTOPIC_ATOM_COUNT>
0
> <PUBCHEM_COMPONENT_COUNT>
1
> <PUBCHEM_CACTVS_TAUTO_COUNT>
1
> <PUBCHEM_COORDINATE_TYPE>
1
5
255
> <PUBCHEM_BONDANNOTATIONS>
2  10  3
$$$$
