522010
  -OEChem-10302200292D
 27 27  0     1  0  0  0  0  0999 V2000
    3.7601    0.7694    0.0000 C   0  0  0  0  0  0  0  0  0  0  0  0
    2.9511    0.1816    0.0000 C   0  0  3  0  0  0  0  0  0  0  0  0
    4.5691    0.1816    0.0000 C   0  0  0  0  0  0  0  0  0  0  0  0
    4.2601   -0.7694    0.0000 C   0  0  3  0  0  0  0  0  0  0  0  0
    3.2601   -0.7694    0.0000 C   0  0  0  0  0  0  0  0  0  0  0  0
    4.3479    1.5784    0.0000 C   0  0  0  0  0  0  0  0  0  0  0  0
    3.1723    1.5784    0.0000 C   0  0  0  0  0  0  0  0  0  0  0  0
    2.0000    0.4907    0.0000 C   0  0  0  0  0  0  0  0  0  0  0  0
    4.8479   -1.5784    0.0000 C   0  0  0  0  0  0  0  0  0  0  0  0
    2.5126   -0.2568    0.0000 H   0  0  0  0  0  0  0  0  0  0  0  0
    5.1355   -0.0705    0.0000 H   0  0  0  0  0  0  0  0  0  0  0  0
    4.8791    0.7186    0.0000 H   0  0  0  0  0  0  0  0  0  0  0  0
    4.8724   -0.6724    0.0000 H   0  0  0  0  0  0  0  0  0  0  0  0
    2.6536   -0.8983    0.0000 H   0  0  0  0  0  0  0  0  0  0  0  0
    3.3249   -1.3860    0.0000 H   0  0  0  0  0  0  0  0  0  0  0  0
    4.8494    1.2140    0.0000 H   0  0  0  0  0  0  0  0  0  0  0  0
    4.7123    2.0800    0.0000 H   0  0  0  0  0  0  0  0  0  0  0  0
    3.8463    1.9429    0.0000 H   0  0  0  0  0  0  0  0  0  0  0  0
    3.6739    1.9429    0.0000 H   0  0  0  0  0  0  0  0  0  0  0  0
    2.8079    2.0800    0.0000 H   0  0  0  0  0  0  0  0  0  0  0  0
    2.6707    1.2140    0.0000 H   0  0  0  0  0  0  0  0  0  0  0  0
    2.1916    1.0803    0.0000 H   0  0  0  0  0  0  0  0  0  0  0  0
    1.4103    0.6822    0.0000 H   0  0  0  0  0  0  0  0  0  0  0  0
    1.8084   -0.0990    0.0000 H   0  0  0  0  0  0  0  0  0  0  0  0
    4.3463   -1.9429    0.0000 H   0  0  0  0  0  0  0  0  0  0  0  0
    5.2123   -2.0800    0.0000 H   0  0  0  0  0  0  0  0  0  0  0  0
    5.3494   -1.2140    0.0000 H   0  0  0  0  0  0  0  0  0  0  0  0
  1  2  1  0  0  0  0
  1  3  1  0  0  0  0
  1  6  1  0  0  0  0
  1  7  1  0  0  0  0
  2  5  1  0  0  0  0
  2  8  1  0  0  0  0
  2 10  1  0  0  0  0
  3  4  1  0  0  0  0
  3 11  1  0  0  0  0
  3 12  1  0  0  0  0
  4  5  1  0  0  0  0
  4  9  1  0  0  0  0
  4 13  1  0  0  0  0
  5 14  1  0  0  0  0
  5 15  1  0  0  0  0
  6 16  1  0  0  0  0
  6 17  1  0  0  0  0
  6 18  1  0  0  0  0
  7 19  1  0  0  0  0
  7 20  1  0  0  0  0
  7 21  1  0  0  0  0
  8 22  1  0  0  0  0
  8 23  1  0  0  0  0
  8 24  1  0  0  0  0
  9 25  1  0  0  0  0
  9 26  1  0  0  0  0
  9 27  1  0  0  0  0
M  END
> <PUBCHEM_COMPOUND_CID>
522010
> <PUBCHEM_COMPOUND_CANONICALIZED>
1
> <PUBCHEM_CACTVS_COMPLEXITY>
103
> <PUBCHEM_CACTVS_HBOND_ACCEPTOR>
0
> <PUBCHEM_CACTVS_HBOND_DONOR>
0
> <PUBCHEM_CACTVS_ROTATABLE_BOND>
0
> <PUBCHEM_CACTVS_SUBSKEYS>
AAADceBwAAAAAAAAAAAAAAAAAAAAAYAAAAAAAAAAAAAAAAAAAAAAGAAAAAAADwCAAAACAAAAAAAAAAAAAAAAAAAAAAAAAAAAAAAAAAIAAAAAAAAAAAAAAAEAgEAPgAAAAAAAAAAAAAAAAAAAAQAACAAAAA==
> <PUBCHEM_IUPAC_OPENEYE_NAME>
1,1,2,4-tetramethylcyclopentane
> <PUBCHEM_IUPAC_CAS_NAME>
1,1,2,4-tetramethylcyclopentane
> <PUBCHEM_IUPAC_NAME_MARKUP>
1,1,2,4-tetramethylcyclopentane
> <PUBCHEM_IUPAC_NAME>
1,1,2,4-tetramethylcyclopentane
> <PUBCHEM_IUPAC_SYSTEMATIC_NAME>
1,1,2,4-tetramethylcyclopentane
> <PUBCHEM_IUPAC_TRADITIONAL_NAME>
1,1,2,4-tetramethylcyclopentane
> <PUBCHEM_IUPAC_INCHI>
InChI=1S/C9H18/c1-7-5-8(2)9(3,4)6-7/h7-8H,5-6H2,1-4H3
> <PUBCHEM_IUPAC_INCHIKEY>
AVBGIJNNMIBMQG-UHFFFAOYSA-N
> <PUBCHEM_XLOGP3_AA>
3.9
> <PUBCHEM_EXACT_MASS>
126.140850574
> <PUBCHEM_MOLECULAR_FORMULA>
C9H18
> <PUBCHEM_MOLECULAR_WEIGHT>
126.24
> <PUBCHEM_OPENEYE_CAN_SMILES>
CC1CC(C(C1)(C)C)C
> <PUBCHEM_OPENEYE_ISO_SMILES>
CC1CC(C(C1)(C)C)C
> <PUBCHEM_CACTVS_TPSA>
0
> <PUBCHEM_MONOISOTOPIC_WEIGHT>
126.140850574
> <PUBCHEM_TOTAL_CHARGE>
0
> <PUBCHEM_HEAVY_ATOM_COUNT>
9
> <PUBCHEM_ATOM_DEF_STEREO_COUNT>
0
> <PUBCHEM_ATOM_UDEF_STEREO_COUNT>
2
> <PUBCHEM_BOND_DEF_STEREO_COUNT>
0
> <PUBCHEM_BOND_UDEF_STEREO_COUNT>
0
> <PUBCHEM_ISOTOPIC_ATOM_COUNT>
0
> <PUBCHEM_COMPONENT_COUNT>
1
> <PUBCHEM_CACTVS_TAUTO_COUNT>
-1
> <PUBCHEM_COORDINATE_TYPE>
1
5
255
> <PUBCHEM_BONDANNOTATIONS>
2  8  3
4  9  3
$$$$
