522090
  -OEChem-10302200292D
 48 49  0     1  0  0  0  0  0999 V2000
    8.9282   -1.0000    0.0000 Cl  0  0  0  0  0  0  0  0  0  0  0  0
    3.7320   -2.0000    0.0000 O   0  0  0  0  0  0  0  0  0  0  0  0
    6.3301   -0.5000    0.0000 O   0  0  0  0  0  0  0  0  0  0  0  0
    5.4641    2.0000    0.0000 O   0  0  0  0  0  0  0  0  0  0  0  0
    2.8660   -0.5000    0.0000 O   0  0  0  0  0  0  0  0  0  0  0  0
    6.3301    0.5000    0.0000 O   0  0  0  0  0  0  0  0  0  0  0  0
    7.1962   -2.0000    0.0000 O   0  0  0  0  0  0  0  0  0  0  0  0
    4.5981    0.5000    0.0000 N   0  0  0  0  0  0  0  0  0  0  0  0
    4.5981   -0.5000    0.0000 C   0  0  3  0  0  0  0  0  0  0  0  0
    5.4641   -1.0000    0.0000 C   0  0  0  0  0  0  0  0  0  0  0  0
    3.7320   -1.0000    0.0000 C   0  0  0  0  0  0  0  0  0  0  0  0
    2.8660   -2.5000    0.0000 C   0  0  0  0  0  0  0  0  0  0  0  0
    2.8660   -3.5000    0.0000 C   0  0  0  0  0  0  0  0  0  0  0  0
    5.4641    1.0000    0.0000 C   0  0  0  0  0  0  0  0  0  0  0  0
    6.3301    2.5000    0.0000 C   0  0  0  0  0  0  0  0  0  0  0  0
    6.3301    3.5000    0.0000 C   0  0  0  0  0  0  0  0  0  0  0  0
    3.7320   -4.0000    0.0000 C   0  0  0  0  0  0  0  0  0  0  0  0
    2.0000   -4.0000    0.0000 C   0  0  0  0  0  0  0  0  0  0  0  0
    7.1962    4.0000    0.0000 C   0  0  0  0  0  0  0  0  0  0  0  0
    5.4641    4.0000    0.0000 C   0  0  0  0  0  0  0  0  0  0  0  0
    3.7320   -5.0000    0.0000 C   0  0  0  0  0  0  0  0  0  0  0  0
    2.0000   -5.0000    0.0000 C   0  0  0  0  0  0  0  0  0  0  0  0
    7.1962   -1.0000    0.0000 C   0  0  0  0  0  0  0  0  0  0  0  0
    2.8660   -5.5000    0.0000 C   0  0  0  0  0  0  0  0  0  0  0  0
    7.1962    5.0000    0.0000 C   0  0  0  0  0  0  0  0  0  0  0  0
    5.4641    5.0000    0.0000 C   0  0  0  0  0  0  0  0  0  0  0  0
    6.3301    5.5000    0.0000 C   0  0  0  0  0  0  0  0  0  0  0  0
    8.0622   -0.5000    0.0000 C   0  0  0  0  0  0  0  0  0  0  0  0
    5.1350   -0.1900    0.0000 H   0  0  0  0  0  0  0  0  0  0  0  0
    5.0656   -1.4750    0.0000 H   0  0  0  0  0  0  0  0  0  0  0  0
    5.8626   -1.4750    0.0000 H   0  0  0  0  0  0  0  0  0  0  0  0
    4.0611    0.8100    0.0000 H   0  0  0  0  0  0  0  0  0  0  0  0
    2.6540   -1.9174    0.0000 H   0  0  0  0  0  0  0  0  0  0  0  0
    2.2554   -2.6077    0.0000 H   0  0  0  0  0  0  0  0  0  0  0  0
    6.5422    1.9174    0.0000 H   0  0  0  0  0  0  0  0  0  0  0  0
    6.9407    2.6077    0.0000 H   0  0  0  0  0  0  0  0  0  0  0  0
    4.2690   -3.6900    0.0000 H   0  0  0  0  0  0  0  0  0  0  0  0
    1.4631   -3.6900    0.0000 H   0  0  0  0  0  0  0  0  0  0  0  0
    7.7331    3.6900    0.0000 H   0  0  0  0  0  0  0  0  0  0  0  0
    4.9272    3.6900    0.0000 H   0  0  0  0  0  0  0  0  0  0  0  0
    4.2690   -5.3100    0.0000 H   0  0  0  0  0  0  0  0  0  0  0  0
    1.4631   -5.3100    0.0000 H   0  0  0  0  0  0  0  0  0  0  0  0
    2.8660   -6.1200    0.0000 H   0  0  0  0  0  0  0  0  0  0  0  0
    7.7331    5.3100    0.0000 H   0  0  0  0  0  0  0  0  0  0  0  0
    4.9272    5.3100    0.0000 H   0  0  0  0  0  0  0  0  0  0  0  0
    6.3301    6.1200    0.0000 H   0  0  0  0  0  0  0  0  0  0  0  0
    8.4607   -0.0251    0.0000 H   0  0  0  0  0  0  0  0  0  0  0  0
    7.6636   -0.0251    0.0000 H   0  0  0  0  0  0  0  0  0  0  0  0
  1 28  1  0  0  0  0
  2 11  1  0  0  0  0
  2 12  1  0  0  0  0
  3 10  1  0  0  0  0
  3 23  1  0  0  0  0
  4 14  1  0  0  0  0
  4 15  1  0  0  0  0
  5 11  2  0  0  0  0
  6 14  2  0  0  0  0
  7 23  2  0  0  0  0
  8  9  1  0  0  0  0
  8 14  1  0  0  0  0
  8 32  1  0  0  0  0
  9 10  1  0  0  0  0
  9 11  1  0  0  0  0
  9 29  1  0  0  0  0
 10 30  1  0  0  0  0
 10 31  1  0  0  0  0
 12 13  1  0  0  0  0
 12 33  1  0  0  0  0
 12 34  1  0  0  0  0
 13 17  2  0  0  0  0
 13 18  1  0  0  0  0
 15 16  1  0  0  0  0
 15 35  1  0  0  0  0
 15 36  1  0  0  0  0
 16 19  2  0  0  0  0
 16 20  1  0  0  0  0
 17 21  1  0  0  0  0
 17 37  1  0  0  0  0
 18 22  2  0  0  0  0
 18 38  1  0  0  0  0
 19 25  1  0  0  0  0
 19 39  1  0  0  0  0
 20 26  2  0  0  0  0
 20 40  1  0  0  0  0
 21 24  2  0  0  0  0
 21 41  1  0  0  0  0
 22 24  1  0  0  0  0
 22 42  1  0  0  0  0
 23 28  1  0  0  0  0
 24 43  1  0  0  0  0
 25 27  2  0  0  0  0
 25 44  1  0  0  0  0
 26 27  1  0  0  0  0
 26 45  1  0  0  0  0
 27 46  1  0  0  0  0
 28 47  1  0  0  0  0
 28 48  1  0  0  0  0
M  END
> <PUBCHEM_COMPOUND_CID>
522090
> <PUBCHEM_COMPOUND_CANONICALIZED>
1
> <PUBCHEM_CACTVS_COMPLEXITY>
503
> <PUBCHEM_CACTVS_HBOND_ACCEPTOR>
6
> <PUBCHEM_CACTVS_HBOND_DONOR>
1
> <PUBCHEM_CACTVS_ROTATABLE_BOND>
12
> <PUBCHEM_CACTVS_SUBSKEYS>
AAADceB6OAAEAAAAAAAAAAAAAAAAAAAAAAAwYAAAAAAAAAABQAAAHgIQAAAADCvhmEYwCILABACIAiDSGAACAAAgAAAIiIGICYlKJiaAMTiLMAAl9gEYqAeAwCAOAAAAAAAAAAAAAAAAAAAAAAAAAAAAAA==
> <PUBCHEM_IUPAC_OPENEYE_NAME>
benzyl 2-(benzyloxycarbonylamino)-3-(2-chloroacetyl)oxy-propanoate
> <PUBCHEM_IUPAC_CAS_NAME>
3-(2-chloro-1-oxoethoxy)-2-(phenylmethoxycarbonylamino)propanoic acid (phenylmethyl) ester
> <PUBCHEM_IUPAC_NAME_MARKUP>
benzyl 3-(2-chloroacetyl)oxy-2-(phenylmethoxycarbonylamino)propanoate
> <PUBCHEM_IUPAC_NAME>
benzyl 3-(2-chloroacetyl)oxy-2-(phenylmethoxycarbonylamino)propanoate
> <PUBCHEM_IUPAC_SYSTEMATIC_NAME>
(phenylmethyl) 3-(2-chloranylethanoyloxy)-2-(phenylmethoxycarbonylamino)propanoate
> <PUBCHEM_IUPAC_TRADITIONAL_NAME>
2-(benzyloxycarbonylamino)-3-(2-chloroacetyl)oxy-propionic acid benzyl ester
> <PUBCHEM_IUPAC_INCHI>
InChI=1S/C20H20ClNO6/c21-11-18(23)26-14-17(19(24)27-12-15-7-3-1-4-8-15)22-20(25)28-13-16-9-5-2-6-10-16/h1-10,17H,11-14H2,(H,22,25)
> <PUBCHEM_IUPAC_INCHIKEY>
FFGNBQLGIGNAMP-UHFFFAOYSA-N
> <PUBCHEM_XLOGP3_AA>
3.4
> <PUBCHEM_EXACT_MASS>
405.0979151
> <PUBCHEM_MOLECULAR_FORMULA>
C20H20ClNO6
> <PUBCHEM_MOLECULAR_WEIGHT>
405.8
> <PUBCHEM_OPENEYE_CAN_SMILES>
C1=CC=C(C=C1)COC(=O)C(COC(=O)CCl)NC(=O)OCC2=CC=CC=C2
> <PUBCHEM_OPENEYE_ISO_SMILES>
C1=CC=C(C=C1)COC(=O)C(COC(=O)CCl)NC(=O)OCC2=CC=CC=C2
> <PUBCHEM_CACTVS_TPSA>
90.9
> <PUBCHEM_MONOISOTOPIC_WEIGHT>
405.0979151
> <PUBCHEM_TOTAL_CHARGE>
0
> <PUBCHEM_HEAVY_ATOM_COUNT>
28
> <PUBCHEM_ATOM_DEF_STEREO_COUNT>
0
> <PUBCHEM_ATOM_UDEF_STEREO_COUNT>
1
> <PUBCHEM_BOND_DEF_STEREO_COUNT>
0
> <PUBCHEM_BOND_UDEF_STEREO_COUNT>
0
> <PUBCHEM_ISOTOPIC_ATOM_COUNT>
0
> <PUBCHEM_COMPONENT_COUNT>
1
> <PUBCHEM_CACTVS_TAUTO_COUNT>
-1
> <PUBCHEM_COORDINATE_TYPE>
1
5
255
> <PUBCHEM_BONDANNOTATIONS>
13  17  8
13  18  8
16  19  8
16  20  8
17  21  8
18  22  8
19  25  8
20  26  8
21  24  8
22  24  8
25  27  8
26  27  8
9  10  3
$$$$
