522184
  -OEChem-10302200292D
 26 26  0     1  0  0  0  0  0999 V2000
    6.3301   -1.0000    0.0000 O   0  0  0  0  0  0  0  0  0  0  0  0
    4.5981   -1.0000    0.0000 O   0  0  0  0  0  0  0  0  0  0  0  0
    5.4641    0.5000    0.0000 C   0  0  0  0  0  0  0  0  0  0  0  0
    6.3301    1.0000    0.0000 C   0  0  0  0  0  0  0  0  0  0  0  0
    5.4641   -0.5000    0.0000 C   0  0  3  0  0  0  0  0  0  0  0  0
    7.1962    0.5000    0.0000 C   0  0  0  0  0  0  0  0  0  0  0  0
    7.1962   -0.5000    0.0000 C   0  0  0  0  0  0  0  0  0  0  0  0
    3.7320   -0.5000    0.0000 C   0  0  0  0  0  0  0  0  0  0  0  0
    2.8660   -1.0000    0.0000 C   0  0  0  0  0  0  0  0  0  0  0  0
    2.0000   -0.5000    0.0000 C   0  0  0  0  0  0  0  0  0  0  0  0
    5.2520    1.0826    0.0000 H   0  0  0  0  0  0  0  0  0  0  0  0
    4.8535    0.3923    0.0000 H   0  0  0  0  0  0  0  0  0  0  0  0
    6.7287    1.4750    0.0000 H   0  0  0  0  0  0  0  0  0  0  0  0
    5.9316    1.4750    0.0000 H   0  0  0  0  0  0  0  0  0  0  0  0
    5.4641   -1.1200    0.0000 H   0  0  0  0  0  0  0  0  0  0  0  0
    7.8067    0.3923    0.0000 H   0  0  0  0  0  0  0  0  0  0  0  0
    7.4082    1.0826    0.0000 H   0  0  0  0  0  0  0  0  0  0  0  0
    7.4082   -1.0826    0.0000 H   0  0  0  0  0  0  0  0  0  0  0  0
    7.8067   -0.3923    0.0000 H   0  0  0  0  0  0  0  0  0  0  0  0
    4.1306   -0.0251    0.0000 H   0  0  0  0  0  0  0  0  0  0  0  0
    3.3335   -0.0251    0.0000 H   0  0  0  0  0  0  0  0  0  0  0  0
    2.4675   -1.4750    0.0000 H   0  0  0  0  0  0  0  0  0  0  0  0
    3.2646   -1.4750    0.0000 H   0  0  0  0  0  0  0  0  0  0  0  0
    2.3100    0.0369    0.0000 H   0  0  0  0  0  0  0  0  0  0  0  0
    1.4631   -0.1900    0.0000 H   0  0  0  0  0  0  0  0  0  0  0  0
    1.6900   -1.0369    0.0000 H   0  0  0  0  0  0  0  0  0  0  0  0
  1  5  1  0  0  0  0
  1  7  1  0  0  0  0
  2  5  1  0  0  0  0
  2  8  1  0  0  0  0
  3  4  1  0  0  0  0
  3  5  1  0  0  0  0
  3 11  1  0  0  0  0
  3 12  1  0  0  0  0
  4  6  1  0  0  0  0
  4 13  1  0  0  0  0
  4 14  1  0  0  0  0
  5 15  1  0  0  0  0
  6  7  1  0  0  0  0
  6 16  1  0  0  0  0
  6 17  1  0  0  0  0
  7 18  1  0  0  0  0
  7 19  1  0  0  0  0
  8  9  1  0  0  0  0
  8 20  1  0  0  0  0
  8 21  1  0  0  0  0
  9 10  1  0  0  0  0
  9 22  1  0  0  0  0
  9 23  1  0  0  0  0
 10 24  1  0  0  0  0
 10 25  1  0  0  0  0
 10 26  1  0  0  0  0
M  END
> <PUBCHEM_COMPOUND_CID>
522184
> <PUBCHEM_COMPOUND_CANONICALIZED>
1
> <PUBCHEM_CACTVS_COMPLEXITY>
83.3
> <PUBCHEM_CACTVS_HBOND_ACCEPTOR>
2
> <PUBCHEM_CACTVS_HBOND_DONOR>
0
> <PUBCHEM_CACTVS_ROTATABLE_BOND>
3
> <PUBCHEM_CACTVS_SUBSKEYS>
AAADceBwMAAAAAAAAAAAAAAAAAAAAAAAAAAkAAAAAAAAAAAAAAAAGgAAAAAACACwgAMCCAAABAAAAAAAAAAAAAAAAAAAAAAAAAAQAAIAAAAiAAAEAAAEAACAIAgAAAAAAAAAAAAAAAAAAAAAAAAAAAAAAA==
> <PUBCHEM_IUPAC_OPENEYE_NAME>
2-propoxytetrahydropyran
> <PUBCHEM_IUPAC_CAS_NAME>
2-propoxyoxane
> <PUBCHEM_IUPAC_NAME_MARKUP>
2-propoxyoxane
> <PUBCHEM_IUPAC_NAME>
2-propoxyoxane
> <PUBCHEM_IUPAC_SYSTEMATIC_NAME>
2-propoxyoxane
> <PUBCHEM_IUPAC_TRADITIONAL_NAME>
2-propoxytetrahydropyran
> <PUBCHEM_IUPAC_INCHI>
InChI=1S/C8H16O2/c1-2-6-9-8-5-3-4-7-10-8/h8H,2-7H2,1H3
> <PUBCHEM_IUPAC_INCHIKEY>
FSQXTURTITWAAE-UHFFFAOYSA-N
> <PUBCHEM_XLOGP3_AA>
1.8
> <PUBCHEM_EXACT_MASS>
144.115029749
> <PUBCHEM_MOLECULAR_FORMULA>
C8H16O2
> <PUBCHEM_MOLECULAR_WEIGHT>
144.21
> <PUBCHEM_OPENEYE_CAN_SMILES>
CCCOC1CCCCO1
> <PUBCHEM_OPENEYE_ISO_SMILES>
CCCOC1CCCCO1
> <PUBCHEM_CACTVS_TPSA>
18.5
> <PUBCHEM_MONOISOTOPIC_WEIGHT>
144.115029749
> <PUBCHEM_TOTAL_CHARGE>
0
> <PUBCHEM_HEAVY_ATOM_COUNT>
10
> <PUBCHEM_ATOM_DEF_STEREO_COUNT>
0
> <PUBCHEM_ATOM_UDEF_STEREO_COUNT>
1
> <PUBCHEM_BOND_DEF_STEREO_COUNT>
0
> <PUBCHEM_BOND_UDEF_STEREO_COUNT>
0
> <PUBCHEM_ISOTOPIC_ATOM_COUNT>
0
> <PUBCHEM_COMPONENT_COUNT>
1
> <PUBCHEM_CACTVS_TAUTO_COUNT>
-1
> <PUBCHEM_COORDINATE_TYPE>
1
5
255
> <PUBCHEM_BONDANNOTATIONS>
5  2  3
$$$$
