522115
  -OEChem-10302200292D
 37 37  0     1  0  0  0  0  0999 V2000
    5.4641   -2.1550    0.0000 Br  0  0  0  0  0  0  0  0  0  0  0  0
    5.4641    1.8450    0.0000 O   0  0  0  0  0  0  0  0  0  0  0  0
    3.7320    0.8450    0.0000 C   0  0  3  0  0  0  0  0  0  0  0  0
    7.1962    0.8450    0.0000 C   0  0  3  0  0  0  0  0  0  0  0  0
    4.5981    0.3450    0.0000 C   0  0  0  0  0  0  0  0  0  0  0  0
    6.3301    0.3450    0.0000 C   0  0  0  0  0  0  0  0  0  0  0  0
    5.4641    0.8450    0.0000 C   0  0  0  0  0  0  0  0  0  0  0  0
    2.8660    0.3450    0.0000 C   0  0  0  0  0  0  0  0  0  0  0  0
    8.0622    0.3450    0.0000 C   0  0  0  0  0  0  0  0  0  0  0  0
    3.7320    1.8450    0.0000 C   0  0  0  0  0  0  0  0  0  0  0  0
    7.1962    1.8450    0.0000 C   0  0  0  0  0  0  0  0  0  0  0  0
    4.5981   -0.6550    0.0000 C   0  0  0  0  0  0  0  0  0  0  0  0
    6.3301   -0.6550    0.0000 C   0  0  0  0  0  0  0  0  0  0  0  0
    5.4641   -1.1550    0.0000 C   0  0  0  0  0  0  0  0  0  0  0  0
    2.0000    0.8450    0.0000 C   0  0  0  0  0  0  0  0  0  0  0  0
    8.9282    0.8450    0.0000 C   0  0  0  0  0  0  0  0  0  0  0  0
    4.2690    1.1550    0.0000 H   0  0  0  0  0  0  0  0  0  0  0  0
    6.6592    1.1550    0.0000 H   0  0  0  0  0  0  0  0  0  0  0  0
    2.4675   -0.1299    0.0000 H   0  0  0  0  0  0  0  0  0  0  0  0
    3.2646   -0.1299    0.0000 H   0  0  0  0  0  0  0  0  0  0  0  0
    7.6636   -0.1299    0.0000 H   0  0  0  0  0  0  0  0  0  0  0  0
    8.4607   -0.1299    0.0000 H   0  0  0  0  0  0  0  0  0  0  0  0
    4.3520    1.8450    0.0000 H   0  0  0  0  0  0  0  0  0  0  0  0
    3.7320    2.4650    0.0000 H   0  0  0  0  0  0  0  0  0  0  0  0
    3.1120    1.8450    0.0000 H   0  0  0  0  0  0  0  0  0  0  0  0
    7.8162    1.8450    0.0000 H   0  0  0  0  0  0  0  0  0  0  0  0
    7.1962    2.4650    0.0000 H   0  0  0  0  0  0  0  0  0  0  0  0
    6.5762    1.8450    0.0000 H   0  0  0  0  0  0  0  0  0  0  0  0
    4.0611   -0.9650    0.0000 H   0  0  0  0  0  0  0  0  0  0  0  0
    6.8671   -0.9650    0.0000 H   0  0  0  0  0  0  0  0  0  0  0  0
    2.3100    1.3819    0.0000 H   0  0  0  0  0  0  0  0  0  0  0  0
    1.4631    1.1550    0.0000 H   0  0  0  0  0  0  0  0  0  0  0  0
    1.6900    0.3081    0.0000 H   0  0  0  0  0  0  0  0  0  0  0  0
    9.2382    0.3081    0.0000 H   0  0  0  0  0  0  0  0  0  0  0  0
    9.4651    1.1550    0.0000 H   0  0  0  0  0  0  0  0  0  0  0  0
    8.6182    1.3819    0.0000 H   0  0  0  0  0  0  0  0  0  0  0  0
    6.0010    2.1550    0.0000 H   0  0  0  0  0  0  0  0  0  0  0  0
  1 14  1  0  0  0  0
  2  7  1  0  0  0  0
  2 37  1  0  0  0  0
  3  5  1  0  0  0  0
  3  8  1  0  0  0  0
  3 10  1  0  0  0  0
  3 17  1  0  0  0  0
  4  6  1  0  0  0  0
  4  9  1  0  0  0  0
  4 11  1  0  0  0  0
  4 18  1  0  0  0  0
  5  7  2  0  0  0  0
  5 12  1  0  0  0  0
  6  7  1  0  0  0  0
  6 13  2  0  0  0  0
  8 15  1  0  0  0  0
  8 19  1  0  0  0  0
  8 20  1  0  0  0  0
  9 16  1  0  0  0  0
  9 21  1  0  0  0  0
  9 22  1  0  0  0  0
 10 23  1  0  0  0  0
 10 24  1  0  0  0  0
 10 25  1  0  0  0  0
 11 26  1  0  0  0  0
 11 27  1  0  0  0  0
 11 28  1  0  0  0  0
 12 14  2  0  0  0  0
 12 29  1  0  0  0  0
 13 14  1  0  0  0  0
 13 30  1  0  0  0  0
 15 31  1  0  0  0  0
 15 32  1  0  0  0  0
 15 33  1  0  0  0  0
 16 34  1  0  0  0  0
 16 35  1  0  0  0  0
 16 36  1  0  0  0  0
M  END
> <PUBCHEM_COMPOUND_CID>
522115
> <PUBCHEM_COMPOUND_CANONICALIZED>
1
> <PUBCHEM_CACTVS_COMPLEXITY>
187
> <PUBCHEM_CACTVS_HBOND_ACCEPTOR>
1
> <PUBCHEM_CACTVS_HBOND_DONOR>
1
> <PUBCHEM_CACTVS_ROTATABLE_BOND>
4
> <PUBCHEM_CACTVS_SUBSKEYS>
AAADceBwIAAAEAAAAAAAAAAAAAAAAAAAAAAwAAAAAAAAAAABAAAAGgBACAABrQSAmAAyBoAAAgCAAiBCAAACAAAgIAQAiAAECKgIJiKCERKAcAAkwBEImheAwOAOgBACEAAIAAAAIAQgABAAAAAAAAAAAA==
> <PUBCHEM_IUPAC_OPENEYE_NAME>
4-bromo-2,6-disec-butyl-phenol
> <PUBCHEM_IUPAC_CAS_NAME>
4-bromo-2,6-di(butan-2-yl)phenol
> <PUBCHEM_IUPAC_NAME_MARKUP>
4-bromo-2,6-di(butan-2-yl)phenol
> <PUBCHEM_IUPAC_NAME>
4-bromo-2,6-di(butan-2-yl)phenol
> <PUBCHEM_IUPAC_SYSTEMATIC_NAME>
4-bromanyl-2,6-di(butan-2-yl)phenol
> <PUBCHEM_IUPAC_TRADITIONAL_NAME>
4-bromo-2,6-disec-butyl-phenol
> <PUBCHEM_IUPAC_INCHI>
InChI=1S/C14H21BrO/c1-5-9(3)12-7-11(15)8-13(14(12)16)10(4)6-2/h7-10,16H,5-6H2,1-4H3
> <PUBCHEM_IUPAC_INCHIKEY>
JUVSQNQHCSZDIF-UHFFFAOYSA-N
> <PUBCHEM_XLOGP3>
5.7
> <PUBCHEM_EXACT_MASS>
284.07758
> <PUBCHEM_MOLECULAR_FORMULA>
C14H21BrO
> <PUBCHEM_MOLECULAR_WEIGHT>
285.22
> <PUBCHEM_OPENEYE_CAN_SMILES>
CCC(C)C1=CC(=CC(=C1O)C(C)CC)Br
> <PUBCHEM_OPENEYE_ISO_SMILES>
CCC(C)C1=CC(=CC(=C1O)C(C)CC)Br
> <PUBCHEM_CACTVS_TPSA>
20.2
> <PUBCHEM_MONOISOTOPIC_WEIGHT>
284.07758
> <PUBCHEM_TOTAL_CHARGE>
0
> <PUBCHEM_HEAVY_ATOM_COUNT>
16
> <PUBCHEM_ATOM_DEF_STEREO_COUNT>
0
> <PUBCHEM_ATOM_UDEF_STEREO_COUNT>
2
> <PUBCHEM_BOND_DEF_STEREO_COUNT>
0
> <PUBCHEM_BOND_UDEF_STEREO_COUNT>
0
> <PUBCHEM_ISOTOPIC_ATOM_COUNT>
0
> <PUBCHEM_COMPONENT_COUNT>
1
> <PUBCHEM_CACTVS_TAUTO_COUNT>
-1
> <PUBCHEM_COORDINATE_TYPE>
1
5
255
> <PUBCHEM_BONDANNOTATIONS>
12  14  8
13  14  8
3  10  3
4  11  3
5  12  8
5  7  8
6  13  8
6  7  8
$$$$
