522147
  -OEChem-10302200292D
 59 62  0     1  0  0  0  0  0999 V2000
    4.7684    1.5490    0.0000 S   0  0  0  0  0  0  0  0  0  0  0  0
    4.7607    0.5490    0.0000 O   0  0  0  0  0  0  0  0  0  0  0  0
    9.5141    1.8045    0.0000 O   0  0  0  0  0  0  0  0  0  0  0  0
    2.8641   -2.5031    0.0000 O   0  0  0  0  0  0  0  0  0  0  0  0
    3.7684    1.5567    0.0000 O   0  0  0  0  0  0  0  0  0  0  0  0
    5.7684    1.5413    0.0000 O   0  0  0  0  0  0  0  0  0  0  0  0
    6.5251   -0.4508    0.0000 C   0  0  3  0  0  0  0  0  0  0  0  0
    7.3912   -0.9508    0.0000 C   0  0  3  0  0  0  0  0  0  0  0  0
    8.2572   -0.4508    0.0000 C   0  0  3  0  0  0  0  0  0  0  0  0
    8.2572    0.5492    0.0000 C   0  0  3  0  0  0  0  0  0  0  0  0
    5.6151   -0.9576    0.0000 C   0  0  3  0  0  0  0  0  0  0  0  0
    6.5251    0.5492    0.0000 C   0  0  0  0  0  0  0  0  0  0  0  0
    7.3912    1.0492    0.0000 C   0  0  0  0  0  0  0  0  0  0  0  0
    9.2034   -0.7555    0.0000 C   0  0  0  0  0  0  0  0  0  0  0  0
    7.4072   -1.9923    0.0000 C   0  0  0  0  0  0  0  0  0  0  0  0
    5.6071   -1.9992    0.0000 C   0  0  0  0  0  0  0  0  0  0  0  0
    4.6883   -0.3935    0.0000 C   0  0  0  0  0  0  0  0  0  0  0  0
    9.2034    0.8540    0.0000 C   0  0  0  0  0  0  0  0  0  0  0  0
    9.7870    0.0492    0.0000 C   0  0  0  0  0  0  0  0  0  0  0  0
    5.6228    0.0423    0.0000 C   0  0  0  0  0  0  0  0  0  0  0  0
    6.5092   -2.5200    0.0000 C   0  0  0  0  0  0  0  0  0  0  0  0
    8.2572    1.5492    0.0000 C   0  0  0  0  0  0  0  0  0  0  0  0
    4.6717   -2.5490    0.0000 C   0  0  0  0  0  0  0  0  0  0  0  0
    3.7404   -0.9215    0.0000 C   0  0  0  0  0  0  0  0  0  0  0  0
    3.7320   -2.0064    0.0000 C   0  0  3  0  0  0  0  0  0  0  0  0
    2.0000   -1.9998    0.0000 C   0  0  0  0  0  0  0  0  0  0  0  0
    4.7761    2.5490    0.0000 C   0  0  0  0  0  0  0  0  0  0  0  0
    7.0621   -0.1408    0.0000 H   0  0  0  0  0  0  0  0  0  0  0  0
    7.9305   -1.2566    0.0000 H   0  0  0  0  0  0  0  0  0  0  0  0
    8.3228   -1.0673    0.0000 H   0  0  0  0  0  0  0  0  0  0  0  0
    6.3131    1.1318    0.0000 H   0  0  0  0  0  0  0  0  0  0  0  0
    5.9145    0.4416    0.0000 H   0  0  0  0  0  0  0  0  0  0  0  0
    7.7897    1.5242    0.0000 H   0  0  0  0  0  0  0  0  0  0  0  0
    6.9926    1.5242    0.0000 H   0  0  0  0  0  0  0  0  0  0  0  0
    8.9524   -1.3224    0.0000 H   0  0  0  0  0  0  0  0  0  0  0  0
    9.7408   -1.0647    0.0000 H   0  0  0  0  0  0  0  0  0  0  0  0
    7.6252   -2.5727    0.0000 H   0  0  0  0  0  0  0  0  0  0  0  0
    8.0164   -1.8768    0.0000 H   0  0  0  0  0  0  0  0  0  0  0  0
    5.0965    0.0731    0.0000 H   0  0  0  0  0  0  0  0  0  0  0  0
    4.2984    0.0885    0.0000 H   0  0  0  0  0  0  0  0  0  0  0  0
   10.2479   -0.3655    0.0000 H   0  0  0  0  0  0  0  0  0  0  0  0
   10.2479    0.4640    0.0000 H   0  0  0  0  0  0  0  0  0  0  0  0
    6.2326   -0.0700    0.0000 H   0  0  0  0  0  0  0  0  0  0  0  0
    5.8394    0.6233    0.0000 H   0  0  0  0  0  0  0  0  0  0  0  0
    6.5116   -3.1400    0.0000 H   0  0  0  0  0  0  0  0  0  0  0  0
    8.8772    1.5492    0.0000 H   0  0  0  0  0  0  0  0  0  0  0  0
    8.2572    2.1692    0.0000 H   0  0  0  0  0  0  0  0  0  0  0  0
    7.6372    1.5492    0.0000 H   0  0  0  0  0  0  0  0  0  0  0  0
    4.2744   -3.0249    0.0000 H   0  0  0  0  0  0  0  0  0  0  0  0
    5.0726   -3.0218    0.0000 H   0  0  0  0  0  0  0  0  0  0  0  0
    3.5358   -0.3362    0.0000 H   0  0  0  0  0  0  0  0  0  0  0  0
    3.1288   -1.0229    0.0000 H   0  0  0  0  0  0  0  0  0  0  0  0
    3.7308   -2.6264    0.0000 H   0  0  0  0  0  0  0  0  0  0  0  0
    2.3121   -1.4640    0.0000 H   0  0  0  0  0  0  0  0  0  0  0  0
    1.4643   -1.6877    0.0000 H   0  0  0  0  0  0  0  0  0  0  0  0
    1.6879   -2.5355    0.0000 H   0  0  0  0  0  0  0  0  0  0  0  0
    5.3961    2.5442    0.0000 H   0  0  0  0  0  0  0  0  0  0  0  0
    4.7809    3.1689    0.0000 H   0  0  0  0  0  0  0  0  0  0  0  0
    4.1561    2.5537    0.0000 H   0  0  0  0  0  0  0  0  0  0  0  0
  1  2  1  0  0  0  0
  1  5  2  0  0  0  0
  1  6  2  0  0  0  0
  1 27  1  0  0  0  0
  2 20  1  0  0  0  0
  3 18  2  0  0  0  0
  4 25  1  0  0  0  0
  4 26  1  0  0  0  0
  7  8  1  0  0  0  0
  7 11  1  0  0  0  0
  7 12  1  0  0  0  0
  7 28  1  0  0  0  0
  8  9  1  0  0  0  0
  8 15  1  0  0  0  0
  8 29  1  0  0  0  0
  9 10  1  0  0  0  0
  9 14  1  0  0  0  0
  9 30  1  0  0  0  0
 10 13  1  0  0  0  0
 10 18  1  0  0  0  0
 10 22  1  0  0  0  0
 11 16  1  0  0  0  0
 11 17  1  0  0  0  0
 11 20  1  0  0  0  0
 12 13  1  0  0  0  0
 12 31  1  0  0  0  0
 12 32  1  0  0  0  0
 13 33  1  0  0  0  0
 13 34  1  0  0  0  0
 14 19  1  0  0  0  0
 14 35  1  0  0  0  0
 14 36  1  0  0  0  0
 15 21  1  0  0  0  0
 15 37  1  0  0  0  0
 15 38  1  0  0  0  0
 16 21  2  0  0  0  0
 16 23  1  0  0  0  0
 17 24  1  0  0  0  0
 17 39  1  0  0  0  0
 17 40  1  0  0  0  0
 18 19  1  0  0  0  0
 19 41  1  0  0  0  0
 19 42  1  0  0  0  0
 20 43  1  0  0  0  0
 20 44  1  0  0  0  0
 21 45  1  0  0  0  0
 22 46  1  0  0  0  0
 22 47  1  0  0  0  0
 22 48  1  0  0  0  0
 23 25  1  0  0  0  0
 23 49  1  0  0  0  0
 23 50  1  0  0  0  0
 24 25  1  0  0  0  0
 24 51  1  0  0  0  0
 24 52  1  0  0  0  0
 25 53  1  0  0  0  0
 26 54  1  0  0  0  0
 26 55  1  0  0  0  0
 26 56  1  0  0  0  0
 27 57  1  0  0  0  0
 27 58  1  0  0  0  0
 27 59  1  0  0  0  0
M  END
> <PUBCHEM_COMPOUND_CID>
522147
> <PUBCHEM_COMPOUND_CANONICALIZED>
1
> <PUBCHEM_CACTVS_COMPLEXITY>
751
> <PUBCHEM_CACTVS_HBOND_ACCEPTOR>
5
> <PUBCHEM_CACTVS_HBOND_DONOR>
0
> <PUBCHEM_CACTVS_ROTATABLE_BOND>
4
> <PUBCHEM_CACTVS_SUBSKEYS>
AAADcfB4OABAAAAAAAAAAAAAAAAAAYAAAAAwYIAAAAAAAGCAAAAAGgQAAAAADxSggAKCAAAABAKIAqBSAHAAAAAgAAAACAEAAAgAABIAAQAAAAAEwAAIAAOI6PyPgAAAAAAAAADAAAQAACAAAAAACAAAAA==
> <PUBCHEM_IUPAC_OPENEYE_NAME>
(3-methoxy-13-methyl-17-oxo-1,2,3,4,7,8,9,11,12,14,15,16-dodecahydrocyclopenta[a]phenanthren-10-yl)methyl methanesulfonate
> <PUBCHEM_IUPAC_CAS_NAME>
methanesulfonic acid (3-methoxy-13-methyl-17-oxo-1,2,3,4,7,8,9,11,12,14,15,16-dodecahydrocyclopenta[a]phenanthren-10-yl)methyl ester
> <PUBCHEM_IUPAC_NAME_MARKUP>
(3-methoxy-13-methyl-17-oxo-1,2,3,4,7,8,9,11,12,14,15,16-dodecahydrocyclopenta[a]phenanthren-10-yl)methyl methanesulfonate
> <PUBCHEM_IUPAC_NAME>
(3-methoxy-13-methyl-17-oxo-1,2,3,4,7,8,9,11,12,14,15,16-dodecahydrocyclopenta[a]phenanthren-10-yl)methyl methanesulfonate
> <PUBCHEM_IUPAC_SYSTEMATIC_NAME>
(3-methoxy-13-methyl-17-oxidanylidene-1,2,3,4,7,8,9,11,12,14,15,16-dodecahydrocyclopenta[a]phenanthren-10-yl)methyl methanesulfonate
> <PUBCHEM_IUPAC_TRADITIONAL_NAME>
methanesulfonic acid (17-keto-3-methoxy-13-methyl-1,2,3,4,7,8,9,11,12,14,15,16-dodecahydrocyclopenta[a]phenanthren-10-yl)methyl ester
> <PUBCHEM_IUPAC_INCHI>
InChI=1S/C21H32O5S/c1-20-10-9-18-16(17(20)6-7-19(20)22)5-4-14-12-15(25-2)8-11-21(14,18)13-26-27(3,23)24/h4,15-18H,5-13H2,1-3H3
> <PUBCHEM_IUPAC_INCHIKEY>
YECDAUWXRFWPSS-UHFFFAOYSA-N
> <PUBCHEM_XLOGP3>
2.7
> <PUBCHEM_EXACT_MASS>
396.19704529
> <PUBCHEM_MOLECULAR_FORMULA>
C21H32O5S
> <PUBCHEM_MOLECULAR_WEIGHT>
396.5
> <PUBCHEM_OPENEYE_CAN_SMILES>
CC12CCC3C(C1CCC2=O)CC=C4C3(CCC(C4)OC)COS(=O)(=O)C
> <PUBCHEM_OPENEYE_ISO_SMILES>
CC12CCC3C(C1CCC2=O)CC=C4C3(CCC(C4)OC)COS(=O)(=O)C
> <PUBCHEM_CACTVS_TPSA>
78
> <PUBCHEM_MONOISOTOPIC_WEIGHT>
396.19704529
> <PUBCHEM_TOTAL_CHARGE>
0
> <PUBCHEM_HEAVY_ATOM_COUNT>
27
> <PUBCHEM_ATOM_DEF_STEREO_COUNT>
0
> <PUBCHEM_ATOM_UDEF_STEREO_COUNT>
6
> <PUBCHEM_BOND_DEF_STEREO_COUNT>
0
> <PUBCHEM_BOND_UDEF_STEREO_COUNT>
0
> <PUBCHEM_ISOTOPIC_ATOM_COUNT>
0
> <PUBCHEM_COMPONENT_COUNT>
1
> <PUBCHEM_CACTVS_TAUTO_COUNT>
-1
> <PUBCHEM_COORDINATE_TYPE>
1
5
255
> <PUBCHEM_BONDANNOTATIONS>
10  22  3
11  20  3
25  4  3
7  12  3
8  15  3
9  14  3
$$$$
