522136
  -OEChem-10302200292D
 50 49  0     1  0  0  0  0  0999 V2000
    2.8660    1.0000    0.0000 Si  0  0  0  0  0  0  0  0  0  0  0  0
    5.4641   -1.5000    0.0000 Si  0  0  0  0  0  0  0  0  0  0  0  0
    7.1962    1.5000    0.0000 Si  0  0  0  0  0  0  0  0  0  0  0  0
    5.4641   -0.5000    0.0000 O   0  0  0  0  0  0  0  0  0  0  0  0
    6.3301    1.0000    0.0000 O   0  0  0  0  0  0  0  0  0  0  0  0
    5.4641    2.5000    0.0000 O   0  0  0  0  0  0  0  0  0  0  0  0
    3.7320    1.5000    0.0000 N   0  0  0  0  0  0  0  0  0  0  0  0
    4.5981    1.0000    0.0000 C   0  0  3  0  0  0  0  0  0  0  0  0
    4.5981    0.0000    0.0000 C   0  0  0  0  0  0  0  0  0  0  0  0
    2.0000    0.5000    0.0000 C   0  0  0  0  0  0  0  0  0  0  0  0
    2.3660    1.8660    0.0000 C   0  0  0  0  0  0  0  0  0  0  0  0
    3.3660    0.1340    0.0000 C   0  0  0  0  0  0  0  0  0  0  0  0
    5.4641    1.5000    0.0000 C   0  0  0  0  0  0  0  0  0  0  0  0
    5.4641   -2.5000    0.0000 C   0  0  0  0  0  0  0  0  0  0  0  0
    6.4641   -1.5000    0.0000 C   0  0  0  0  0  0  0  0  0  0  0  0
    4.4641   -1.5000    0.0000 C   0  0  0  0  0  0  0  0  0  0  0  0
    8.0622    2.0000    0.0000 C   0  0  0  0  0  0  0  0  0  0  0  0
    7.6962    0.6340    0.0000 C   0  0  0  0  0  0  0  0  0  0  0  0
    6.6962    2.3660    0.0000 C   0  0  0  0  0  0  0  0  0  0  0  0
    4.5981    1.6200    0.0000 H   0  0  0  0  0  0  0  0  0  0  0  0
    3.7320    2.1200    0.0000 H   0  0  0  0  0  0  0  0  0  0  0  0
    3.9875    0.1077    0.0000 H   0  0  0  0  0  0  0  0  0  0  0  0
    4.3860   -0.5826    0.0000 H   0  0  0  0  0  0  0  0  0  0  0  0
    1.6900    1.0369    0.0000 H   0  0  0  0  0  0  0  0  0  0  0  0
    1.4631    0.1900    0.0000 H   0  0  0  0  0  0  0  0  0  0  0  0
    2.3100   -0.0369    0.0000 H   0  0  0  0  0  0  0  0  0  0  0  0
    2.9030    2.1760    0.0000 H   0  0  0  0  0  0  0  0  0  0  0  0
    2.0560    2.4030    0.0000 H   0  0  0  0  0  0  0  0  0  0  0  0
    1.8291    1.5560    0.0000 H   0  0  0  0  0  0  0  0  0  0  0  0
    2.8291   -0.1760    0.0000 H   0  0  0  0  0  0  0  0  0  0  0  0
    3.6760   -0.4030    0.0000 H   0  0  0  0  0  0  0  0  0  0  0  0
    3.9030    0.4440    0.0000 H   0  0  0  0  0  0  0  0  0  0  0  0
    4.8441   -2.5000    0.0000 H   0  0  0  0  0  0  0  0  0  0  0  0
    5.4641   -3.1200    0.0000 H   0  0  0  0  0  0  0  0  0  0  0  0
    6.0841   -2.5000    0.0000 H   0  0  0  0  0  0  0  0  0  0  0  0
    6.4641   -2.1200    0.0000 H   0  0  0  0  0  0  0  0  0  0  0  0
    7.0841   -1.5000    0.0000 H   0  0  0  0  0  0  0  0  0  0  0  0
    6.4641   -0.8800    0.0000 H   0  0  0  0  0  0  0  0  0  0  0  0
    4.4641   -0.8800    0.0000 H   0  0  0  0  0  0  0  0  0  0  0  0
    3.8441   -1.5000    0.0000 H   0  0  0  0  0  0  0  0  0  0  0  0
    4.4641   -2.1200    0.0000 H   0  0  0  0  0  0  0  0  0  0  0  0
    8.3722    1.4631    0.0000 H   0  0  0  0  0  0  0  0  0  0  0  0
    8.5991    2.3100    0.0000 H   0  0  0  0  0  0  0  0  0  0  0  0
    7.7522    2.5369    0.0000 H   0  0  0  0  0  0  0  0  0  0  0  0
    7.1592    0.3240    0.0000 H   0  0  0  0  0  0  0  0  0  0  0  0
    8.0062    0.0970    0.0000 H   0  0  0  0  0  0  0  0  0  0  0  0
    8.2331    0.9440    0.0000 H   0  0  0  0  0  0  0  0  0  0  0  0
    7.2331    2.6760    0.0000 H   0  0  0  0  0  0  0  0  0  0  0  0
    6.3862    2.9030    0.0000 H   0  0  0  0  0  0  0  0  0  0  0  0
    6.1592    2.0560    0.0000 H   0  0  0  0  0  0  0  0  0  0  0  0
  1  7  1  0  0  0  0
  1 10  1  0  0  0  0
  1 11  1  0  0  0  0
  1 12  1  0  0  0  0
  2  4  1  0  0  0  0
  2 14  1  0  0  0  0
  2 15  1  0  0  0  0
  2 16  1  0  0  0  0
  3  5  1  0  0  0  0
  3 17  1  0  0  0  0
  3 18  1  0  0  0  0
  3 19  1  0  0  0  0
  4  9  1  0  0  0  0
  5 13  1  0  0  0  0
  6 13  2  0  0  0  0
  7  8  1  0  0  0  0
  7 21  1  0  0  0  0
  8  9  1  0  0  0  0
  8 13  1  0  0  0  0
  8 20  1  0  0  0  0
  9 22  1  0  0  0  0
  9 23  1  0  0  0  0
 10 24  1  0  0  0  0
 10 25  1  0  0  0  0
 10 26  1  0  0  0  0
 11 27  1  0  0  0  0
 11 28  1  0  0  0  0
 11 29  1  0  0  0  0
 12 30  1  0  0  0  0
 12 31  1  0  0  0  0
 12 32  1  0  0  0  0
 14 33  1  0  0  0  0
 14 34  1  0  0  0  0
 14 35  1  0  0  0  0
 15 36  1  0  0  0  0
 15 37  1  0  0  0  0
 15 38  1  0  0  0  0
 16 39  1  0  0  0  0
 16 40  1  0  0  0  0
 16 41  1  0  0  0  0
 17 42  1  0  0  0  0
 17 43  1  0  0  0  0
 17 44  1  0  0  0  0
 18 45  1  0  0  0  0
 18 46  1  0  0  0  0
 18 47  1  0  0  0  0
 19 48  1  0  0  0  0
 19 49  1  0  0  0  0
 19 50  1  0  0  0  0
M  END
> <PUBCHEM_COMPOUND_CID>
522136
> <PUBCHEM_COMPOUND_CANONICALIZED>
1
> <PUBCHEM_CACTVS_COMPLEXITY>
303
> <PUBCHEM_CACTVS_HBOND_ACCEPTOR>
4
> <PUBCHEM_CACTVS_HBOND_DONOR>
1
> <PUBCHEM_CACTVS_ROTATABLE_BOND>
8
> <PUBCHEM_CACTVS_SUBSKEYS>
AAADceByMAwAAAAAAAAAAAAAAAAAAAAAAAAAAAAAAAAAAAAAAAAAHhARAEAACCjhgAZCCABAAAEIAACQCAAAAAAAAAAAAIGAAAACAAQAAAAAAAABMAAAAAAAAAAAAAAAAAAAAAAAAAAAAAAAAAAAAAAAAA==
> <PUBCHEM_IUPAC_OPENEYE_NAME>
trimethylsilyl 2-(trimethylsilylamino)-3-trimethylsilyloxy-propanoate
> <PUBCHEM_IUPAC_CAS_NAME>
2-(trimethylsilylamino)-3-trimethylsilyloxypropanoic acid trimethylsilyl ester
> <PUBCHEM_IUPAC_NAME_MARKUP>
trimethylsilyl 2-(trimethylsilylamino)-3-trimethylsilyloxypropanoate
> <PUBCHEM_IUPAC_NAME>
trimethylsilyl 2-(trimethylsilylamino)-3-trimethylsilyloxypropanoate
> <PUBCHEM_IUPAC_SYSTEMATIC_NAME>
trimethylsilyl 2-(trimethylsilylamino)-3-trimethylsilyloxy-propanoate
> <PUBCHEM_IUPAC_TRADITIONAL_NAME>
2-(trimethylsilylamino)-3-trimethylsilyloxy-propionic acid trimethylsilyl ester
> <PUBCHEM_IUPAC_INCHI>
InChI=1S/C12H31NO3Si3/c1-17(2,3)13-11(10-15-18(4,5)6)12(14)16-19(7,8)9/h11,13H,10H2,1-9H3
> <PUBCHEM_IUPAC_INCHIKEY>
MBEDINMZZORSJN-UHFFFAOYSA-N
> <PUBCHEM_EXACT_MASS>
321.16117345
> <PUBCHEM_MOLECULAR_FORMULA>
C12H31NO3Si3
> <PUBCHEM_MOLECULAR_WEIGHT>
321.63
> <PUBCHEM_OPENEYE_CAN_SMILES>
C[Si](C)(C)NC(CO[Si](C)(C)C)C(=O)O[Si](C)(C)C
> <PUBCHEM_OPENEYE_ISO_SMILES>
C[Si](C)(C)NC(CO[Si](C)(C)C)C(=O)O[Si](C)(C)C
> <PUBCHEM_CACTVS_TPSA>
47.6
> <PUBCHEM_MONOISOTOPIC_WEIGHT>
321.16117345
> <PUBCHEM_TOTAL_CHARGE>
0
> <PUBCHEM_HEAVY_ATOM_COUNT>
19
> <PUBCHEM_ATOM_DEF_STEREO_COUNT>
0
> <PUBCHEM_ATOM_UDEF_STEREO_COUNT>
1
> <PUBCHEM_BOND_DEF_STEREO_COUNT>
0
> <PUBCHEM_BOND_UDEF_STEREO_COUNT>
0
> <PUBCHEM_ISOTOPIC_ATOM_COUNT>
0
> <PUBCHEM_COMPONENT_COUNT>
1
> <PUBCHEM_CACTVS_TAUTO_COUNT>
-1
> <PUBCHEM_COORDINATE_TYPE>
1
5
255
> <PUBCHEM_BONDANNOTATIONS>
8  9  3
$$$$
