522113
  -OEChem-10302200292D
 48 48  0     1  0  0  0  0  0999 V2000
    4.8671    3.3100    0.0000 O   0  0  0  0  0  0  0  0  0  0  0  0
    3.1350    3.3100    0.0000 O   0  0  0  0  0  0  0  0  0  0  0  0
    4.0010    5.8100    0.0000 O   0  0  0  0  0  0  0  0  0  0  0  0
    6.5991    4.3100    0.0000 O   0  0  0  0  0  0  0  0  0  0  0  0
    4.8671    1.3100    0.0000 O   0  0  0  0  0  0  0  0  0  0  0  0
    3.1350    0.3100    0.0000 O   0  0  0  0  0  0  0  0  0  0  0  0
    1.4030    1.3100    0.0000 O   0  0  0  0  0  0  0  0  0  0  0  0
    6.5991    6.3100    0.0000 O   0  0  0  0  0  0  0  0  0  0  0  0
    4.8671    7.3100    0.0000 O   0  0  0  0  0  0  0  0  0  0  0  0
    2.2690    4.8100    0.0000 O   0  0  0  0  0  0  0  0  0  0  0  0
    0.5369    2.8100    0.0000 O   0  0  0  0  0  0  0  0  0  0  0  0
    3.5680    9.6200    0.0000 O   0  0  0  0  0  0  0  0  0  0  0  0
    4.8671    4.3100    0.0000 C   0  0  3  0  0  0  0  0  0  0  0  0
    5.7331    4.8100    0.0000 C   0  0  3  0  0  0  0  0  0  0  0  0
    4.0010    2.8100    0.0000 C   0  0  3  0  0  0  0  0  0  0  0  0
    4.0010    4.8100    0.0000 C   0  0  3  0  0  0  0  0  0  0  0  0
    4.0010    1.8100    0.0000 C   0  0  3  0  0  0  0  0  0  0  0  0
    3.1350    1.3100    0.0000 C   0  0  3  0  0  0  0  0  0  0  0  0
    2.2690    1.8100    0.0000 C   0  0  3  0  0  0  0  0  0  0  0  0
    5.7331    5.8100    0.0000 C   0  0  3  0  0  0  0  0  0  0  0  0
    2.2690    2.8100    0.0000 C   0  0  3  0  0  0  0  0  0  0  0  0
    4.8671    6.3100    0.0000 C   0  0  3  0  0  0  0  0  0  0  0  0
    3.1350    4.3100    0.0000 C   0  0  0  0  0  0  0  0  0  0  0  0
    1.4030    3.3100    0.0000 C   0  0  0  0  0  0  0  0  0  0  0  0
    5.4040    4.0000    0.0000 H   0  0  0  0  0  0  0  0  0  0  0  0
    5.7331    4.1900    0.0000 H   0  0  0  0  0  0  0  0  0  0  0  0
    4.0010    3.4300    0.0000 H   0  0  0  0  0  0  0  0  0  0  0  0
    3.4641    5.1200    0.0000 H   0  0  0  0  0  0  0  0  0  0  0  0
    4.0010    1.1900    0.0000 H   0  0  0  0  0  0  0  0  0  0  0  0
    2.5981    1.0000    0.0000 H   0  0  0  0  0  0  0  0  0  0  0  0
    2.2690    1.1900    0.0000 H   0  0  0  0  0  0  0  0  0  0  0  0
    6.2700    5.5000    0.0000 H   0  0  0  0  0  0  0  0  0  0  0  0
    2.2690    3.4300    0.0000 H   0  0  0  0  0  0  0  0  0  0  0  0
    5.4040    6.6200    0.0000 H   0  0  0  0  0  0  0  0  0  0  0  0
    2.7365    3.8350    0.0000 H   0  0  0  0  0  0  0  0  0  0  0  0
    3.5335    3.8350    0.0000 H   0  0  0  0  0  0  0  0  0  0  0  0
    1.8015    3.7850    0.0000 H   0  0  0  0  0  0  0  0  0  0  0  0
    1.0044    3.7850    0.0000 H   0  0  0  0  0  0  0  0  0  0  0  0
    7.1360    4.6200    0.0000 H   0  0  0  0  0  0  0  0  0  0  0  0
    4.8671    0.6900    0.0000 H   0  0  0  0  0  0  0  0  0  0  0  0
    2.5981    0.0000    0.0000 H   0  0  0  0  0  0  0  0  0  0  0  0
    1.4030    0.6900    0.0000 H   0  0  0  0  0  0  0  0  0  0  0  0
    6.5991    6.9300    0.0000 H   0  0  0  0  0  0  0  0  0  0  0  0
    4.3301    7.6200    0.0000 H   0  0  0  0  0  0  0  0  0  0  0  0
    2.2690    5.4300    0.0000 H   0  0  0  0  0  0  0  0  0  0  0  0
    0.0000    3.1200    0.0000 H   0  0  0  0  0  0  0  0  0  0  0  0
    4.1050    9.9300    0.0000 H   0  0  0  0  0  0  0  0  0  0  0  0
    3.0311    9.9300    0.0000 H   0  0  0  0  0  0  0  0  0  0  0  0
  1 13  1  0  0  0  0
  1 15  1  0  0  0  0
  2 15  1  0  0  0  0
  2 21  1  0  0  0  0
  3 16  1  0  0  0  0
  3 22  1  0  0  0  0
  4 14  1  0  0  0  0
  4 39  1  0  0  0  0
  5 17  1  0  0  0  0
  5 40  1  0  0  0  0
  6 18  1  0  0  0  0
  6 41  1  0  0  0  0
  7 19  1  0  0  0  0
  7 42  1  0  0  0  0
  8 20  1  0  0  0  0
  8 43  1  0  0  0  0
  9 22  1  0  0  0  0
  9 44  1  0  0  0  0
 10 23  1  0  0  0  0
 10 45  1  0  0  0  0
 11 24  1  0  0  0  0
 11 46  1  0  0  0  0
 12 47  1  0  0  0  0
 12 48  1  0  0  0  0
 13 14  1  0  0  0  0
 13 16  1  0  0  0  0
 13 25  1  0  0  0  0
 14 20  1  0  0  0  0
 14 26  1  0  0  0  0
 15 17  1  0  0  0  0
 15 27  1  0  0  0  0
 16 23  1  0  0  0  0
 16 28  1  0  0  0  0
 17 18  1  0  0  0  0
 17 29  1  0  0  0  0
 18 19  1  0  0  0  0
 18 30  1  0  0  0  0
 19 21  1  0  0  0  0
 19 31  1  0  0  0  0
 20 22  1  0  0  0  0
 20 32  1  0  0  0  0
 21 24  1  0  0  0  0
 21 33  1  0  0  0  0
 22 34  1  0  0  0  0
 23 35  1  0  0  0  0
 23 36  1  0  0  0  0
 24 37  1  0  0  0  0
 24 38  1  0  0  0  0
M  END
> <PUBCHEM_COMPOUND_CID>
522113
> <PUBCHEM_COMPOUND_CANONICALIZED>
1
> <PUBCHEM_CACTVS_COMPLEXITY>
382
> <PUBCHEM_CACTVS_HBOND_ACCEPTOR>
12
> <PUBCHEM_CACTVS_HBOND_DONOR>
9
> <PUBCHEM_CACTVS_ROTATABLE_BOND>
4
> <PUBCHEM_CACTVS_SUBSKEYS>
AAADceBwPAAAAAAAAAAAAAAAAAAAAAAAAAAkSAAAAAAAAAAAAAAAGgAACAAACBSwgAMACAAABgAAAAAAAAAAAAAAAAAAAAAAAAAREAIAAAAiQAAFAAAHAAHAYAwAAAAAAAAAAAAAAAAAAAAAAAAAAAAAAA==
> <PUBCHEM_IUPAC_OPENEYE_NAME>
2-(hydroxymethyl)-6-[4,5,6-trihydroxy-2-(hydroxymethyl)tetrahydropyran-3-yl]oxy-tetrahydropyran-3,4,5-triol;hydrate
> <PUBCHEM_IUPAC_CAS_NAME>
2-(hydroxymethyl)-6-[[4,5,6-trihydroxy-2-(hydroxymethyl)-3-oxanyl]oxy]oxane-3,4,5-triol;hydrate
> <PUBCHEM_IUPAC_NAME_MARKUP>
2-(hydroxymethyl)-6-[4,5,6-trihydroxy-2-(hydroxymethyl)oxan-3-yl]oxyoxane-3,4,5-triol;hydrate
> <PUBCHEM_IUPAC_NAME>
2-(hydroxymethyl)-6-[4,5,6-trihydroxy-2-(hydroxymethyl)oxan-3-yl]oxyoxane-3,4,5-triol;hydrate
> <PUBCHEM_IUPAC_SYSTEMATIC_NAME>
2-(hydroxymethyl)-6-[2-(hydroxymethyl)-4,5,6-tris(oxidanyl)oxan-3-yl]oxy-oxane-3,4,5-triol;hydrate
> <PUBCHEM_IUPAC_TRADITIONAL_NAME>
2-methylol-6-(4,5,6-trihydroxy-2-methylol-tetrahydropyran-3-yl)oxy-tetrahydropyran-3,4,5-triol;hydrate
> <PUBCHEM_IUPAC_INCHI>
InChI=1S/C12H22O11.H2O/c13-1-3-5(15)6(16)9(19)12(22-3)23-10-4(2-14)21-11(20)8(18)7(10)17;/h3-20H,1-2H2;1H2
> <PUBCHEM_IUPAC_INCHIKEY>
WSVLPVUVIUVCRA-UHFFFAOYSA-N
> <PUBCHEM_EXACT_MASS>
360.12677620
> <PUBCHEM_MOLECULAR_FORMULA>
C12H24O12
> <PUBCHEM_MOLECULAR_WEIGHT>
360.31
> <PUBCHEM_OPENEYE_CAN_SMILES>
C(C1C(C(C(C(O1)OC2C(OC(C(C2O)O)O)CO)O)O)O)O.O
> <PUBCHEM_OPENEYE_ISO_SMILES>
C(C1C(C(C(C(O1)OC2C(OC(C(C2O)O)O)CO)O)O)O)O.O
> <PUBCHEM_CACTVS_TPSA>
191
> <PUBCHEM_MONOISOTOPIC_WEIGHT>
360.12677620
> <PUBCHEM_TOTAL_CHARGE>
0
> <PUBCHEM_HEAVY_ATOM_COUNT>
24
> <PUBCHEM_ATOM_DEF_STEREO_COUNT>
0
> <PUBCHEM_ATOM_UDEF_STEREO_COUNT>
10
> <PUBCHEM_BOND_DEF_STEREO_COUNT>
0
> <PUBCHEM_BOND_UDEF_STEREO_COUNT>
0
> <PUBCHEM_ISOTOPIC_ATOM_COUNT>
0
> <PUBCHEM_COMPONENT_COUNT>
2
> <PUBCHEM_CACTVS_TAUTO_COUNT>
-1
> <PUBCHEM_COORDINATE_TYPE>
1
5
255
> <PUBCHEM_BONDANNOTATIONS>
13  1  3
15  1  3
16  23  3
21  24  3
14  4  3
17  5  3
18  6  3
19  7  3
20  8  3
22  9  3
$$$$
