522228
  -OEChem-10302200292D
 33 34  0     1  0  0  0  0  0999 V2000
    2.8660   -3.7500    0.0000 Cl  0  0  0  0  0  0  0  0  0  0  0  0
    7.1962    3.7500    0.0000 Cl  0  0  0  0  0  0  0  0  0  0  0  0
    2.8660    2.2500    0.0000 O   0  0  0  0  0  0  0  0  0  0  0  0
    2.8660    0.2500    0.0000 C   0  0  3  0  0  0  0  0  0  0  0  0
    3.7320    0.7500    0.0000 C   0  0  0  0  0  0  0  0  0  0  0  0
    2.8660   -0.7500    0.0000 C   0  0  0  0  0  0  0  0  0  0  0  0
    2.0000    0.7500    0.0000 C   0  0  0  0  0  0  0  0  0  0  0  0
    3.7320    1.7500    0.0000 C   0  0  0  0  0  0  0  0  0  0  0  0
    2.0000   -1.2500    0.0000 C   0  0  0  0  0  0  0  0  0  0  0  0
    3.7320   -1.2500    0.0000 C   0  0  0  0  0  0  0  0  0  0  0  0
    4.5981    2.2500    0.0000 C   0  0  0  0  0  0  0  0  0  0  0  0
    2.0000   -2.2500    0.0000 C   0  0  0  0  0  0  0  0  0  0  0  0
    3.7320   -2.2500    0.0000 C   0  0  0  0  0  0  0  0  0  0  0  0
    2.8660   -2.7500    0.0000 C   0  0  0  0  0  0  0  0  0  0  0  0
    5.4641    1.7500    0.0000 C   0  0  0  0  0  0  0  0  0  0  0  0
    4.5981    3.2500    0.0000 C   0  0  0  0  0  0  0  0  0  0  0  0
    6.3301    2.2500    0.0000 C   0  0  0  0  0  0  0  0  0  0  0  0
    5.4641    3.7500    0.0000 C   0  0  0  0  0  0  0  0  0  0  0  0
    6.3301    3.2500    0.0000 C   0  0  0  0  0  0  0  0  0  0  0  0
    2.8660    0.8700    0.0000 H   0  0  0  0  0  0  0  0  0  0  0  0
    3.9441    0.1674    0.0000 H   0  0  0  0  0  0  0  0  0  0  0  0
    4.3426    0.8577    0.0000 H   0  0  0  0  0  0  0  0  0  0  0  0
    2.3100    1.2869    0.0000 H   0  0  0  0  0  0  0  0  0  0  0  0
    1.4631    1.0600    0.0000 H   0  0  0  0  0  0  0  0  0  0  0  0
    1.6900    0.2131    0.0000 H   0  0  0  0  0  0  0  0  0  0  0  0
    1.4631   -0.9400    0.0000 H   0  0  0  0  0  0  0  0  0  0  0  0
    4.2690   -0.9400    0.0000 H   0  0  0  0  0  0  0  0  0  0  0  0
    1.4631   -2.5600    0.0000 H   0  0  0  0  0  0  0  0  0  0  0  0
    4.2690   -2.5600    0.0000 H   0  0  0  0  0  0  0  0  0  0  0  0
    5.4641    1.1300    0.0000 H   0  0  0  0  0  0  0  0  0  0  0  0
    4.0611    3.5600    0.0000 H   0  0  0  0  0  0  0  0  0  0  0  0
    6.8671    1.9400    0.0000 H   0  0  0  0  0  0  0  0  0  0  0  0
    5.4641    4.3700    0.0000 H   0  0  0  0  0  0  0  0  0  0  0  0
  1 14  1  0  0  0  0
  2 19  1  0  0  0  0
  3  8  2  0  0  0  0
  4  5  1  0  0  0  0
  4  6  1  0  0  0  0
  4  7  1  0  0  0  0
  4 20  1  0  0  0  0
  5  8  1  0  0  0  0
  5 21  1  0  0  0  0
  5 22  1  0  0  0  0
  6  9  2  0  0  0  0
  6 10  1  0  0  0  0
  7 23  1  0  0  0  0
  7 24  1  0  0  0  0
  7 25  1  0  0  0  0
  8 11  1  0  0  0  0
  9 12  1  0  0  0  0
  9 26  1  0  0  0  0
 10 13  2  0  0  0  0
 10 27  1  0  0  0  0
 11 15  2  0  0  0  0
 11 16  1  0  0  0  0
 12 14  2  0  0  0  0
 12 28  1  0  0  0  0
 13 14  1  0  0  0  0
 13 29  1  0  0  0  0
 15 17  1  0  0  0  0
 15 30  1  0  0  0  0
 16 18  2  0  0  0  0
 16 31  1  0  0  0  0
 17 19  2  0  0  0  0
 17 32  1  0  0  0  0
 18 19  1  0  0  0  0
 18 33  1  0  0  0  0
M  END
> <PUBCHEM_COMPOUND_CID>
522228
> <PUBCHEM_COMPOUND_CANONICALIZED>
1
> <PUBCHEM_CACTVS_COMPLEXITY>
289
> <PUBCHEM_CACTVS_HBOND_ACCEPTOR>
1
> <PUBCHEM_CACTVS_HBOND_DONOR>
0
> <PUBCHEM_CACTVS_ROTATABLE_BOND>
4
> <PUBCHEM_CACTVS_SUBSKEYS>
AAADccB4IAAGAAAAAAAAAAAAAAAAAAAAAAAwYAAAAAAAAAABQAAAGgIAAAAADQaAmCAyAIAAAACIAqBSAAACAAAkBQAIiAEAAsgIIDKBFxCAIQAggAAIiYcIiMCOhAAAAAAAAAAIAAAAAAAAAAAAAAAAAA==
> <PUBCHEM_IUPAC_OPENEYE_NAME>
1,3-bis(4-chlorophenyl)butan-1-one
> <PUBCHEM_IUPAC_CAS_NAME>
1,3-bis(4-chlorophenyl)-1-butanone
> <PUBCHEM_IUPAC_NAME_MARKUP>
1,3-bis(4-chlorophenyl)butan-1-one
> <PUBCHEM_IUPAC_NAME>
1,3-bis(4-chlorophenyl)butan-1-one
> <PUBCHEM_IUPAC_SYSTEMATIC_NAME>
1,3-bis(4-chlorophenyl)butan-1-one
> <PUBCHEM_IUPAC_TRADITIONAL_NAME>
1,3-bis(4-chlorophenyl)butan-1-one
> <PUBCHEM_IUPAC_INCHI>
InChI=1S/C16H14Cl2O/c1-11(12-2-6-14(17)7-3-12)10-16(19)13-4-8-15(18)9-5-13/h2-9,11H,10H2,1H3
> <PUBCHEM_IUPAC_INCHIKEY>
UORMYKLQVWZZHA-UHFFFAOYSA-N
> <PUBCHEM_XLOGP3_AA>
5.1
> <PUBCHEM_EXACT_MASS>
292.0421705
> <PUBCHEM_MOLECULAR_FORMULA>
C16H14Cl2O
> <PUBCHEM_MOLECULAR_WEIGHT>
293.2
> <PUBCHEM_OPENEYE_CAN_SMILES>
CC(CC(=O)C1=CC=C(C=C1)Cl)C2=CC=C(C=C2)Cl
> <PUBCHEM_OPENEYE_ISO_SMILES>
CC(CC(=O)C1=CC=C(C=C1)Cl)C2=CC=C(C=C2)Cl
> <PUBCHEM_CACTVS_TPSA>
17.1
> <PUBCHEM_MONOISOTOPIC_WEIGHT>
292.0421705
> <PUBCHEM_TOTAL_CHARGE>
0
> <PUBCHEM_HEAVY_ATOM_COUNT>
19
> <PUBCHEM_ATOM_DEF_STEREO_COUNT>
0
> <PUBCHEM_ATOM_UDEF_STEREO_COUNT>
1
> <PUBCHEM_BOND_DEF_STEREO_COUNT>
0
> <PUBCHEM_BOND_UDEF_STEREO_COUNT>
0
> <PUBCHEM_ISOTOPIC_ATOM_COUNT>
0
> <PUBCHEM_COMPONENT_COUNT>
1
> <PUBCHEM_CACTVS_TAUTO_COUNT>
-1
> <PUBCHEM_COORDINATE_TYPE>
1
5
255
> <PUBCHEM_BONDANNOTATIONS>
10  13  8
11  15  8
11  16  8
12  14  8
13  14  8
15  17  8
16  18  8
17  19  8
18  19  8
4  7  3
6  10  8
6  9  8
9  12  8
$$$$
