522279
  -OEChem-10302200292D
 23 22  0     1  0  0  0  0  0999 V2000
    2.0000   -0.1900    0.0000 O   0  0  0  0  0  0  0  0  0  0  0  0
    3.7320   -0.1900    0.0000 C   0  0  0  0  0  0  0  0  0  0  0  0
    4.5981    0.3100    0.0000 C   0  0  3  0  0  0  0  0  0  0  0  0
    3.2320    0.6760    0.0000 C   0  0  0  0  0  0  0  0  0  0  0  0
    4.2320   -1.0560    0.0000 C   0  0  0  0  0  0  0  0  0  0  0  0
    4.5981    1.3100    0.0000 C   0  0  0  0  0  0  0  0  0  0  0  0
    2.8660   -0.6900    0.0000 C   0  0  0  0  0  0  0  0  0  0  0  0
    5.4641   -0.1900    0.0000 C   0  0  0  0  0  0  0  0  0  0  0  0
    6.3301    0.3100    0.0000 C   0  0  0  0  0  0  0  0  0  0  0  0
    5.1350    0.6200    0.0000 H   0  0  0  0  0  0  0  0  0  0  0  0
    3.7690    0.9860    0.0000 H   0  0  0  0  0  0  0  0  0  0  0  0
    2.9220    1.2130    0.0000 H   0  0  0  0  0  0  0  0  0  0  0  0
    2.6951    0.3660    0.0000 H   0  0  0  0  0  0  0  0  0  0  0  0
    3.6951   -1.3660    0.0000 H   0  0  0  0  0  0  0  0  0  0  0  0
    4.5420   -1.5930    0.0000 H   0  0  0  0  0  0  0  0  0  0  0  0
    4.7690   -0.7460    0.0000 H   0  0  0  0  0  0  0  0  0  0  0  0
    5.2181    1.3100    0.0000 H   0  0  0  0  0  0  0  0  0  0  0  0
    4.5981    1.9300    0.0000 H   0  0  0  0  0  0  0  0  0  0  0  0
    3.9781    1.3100    0.0000 H   0  0  0  0  0  0  0  0  0  0  0  0
    2.8660   -1.3100    0.0000 H   0  0  0  0  0  0  0  0  0  0  0  0
    5.4641   -0.8100    0.0000 H   0  0  0  0  0  0  0  0  0  0  0  0
    6.8671   -0.0000    0.0000 H   0  0  0  0  0  0  0  0  0  0  0  0
    6.3301    0.9300    0.0000 H   0  0  0  0  0  0  0  0  0  0  0  0
  1  7  2  0  0  0  0
  2  3  1  0  0  0  0
  2  4  1  0  0  0  0
  2  5  1  0  0  0  0
  2  7  1  0  0  0  0
  3  6  1  0  0  0  0
  3  8  1  0  0  0  0
  3 10  1  0  0  0  0
  4 11  1  0  0  0  0
  4 12  1  0  0  0  0
  4 13  1  0  0  0  0
  5 14  1  0  0  0  0
  5 15  1  0  0  0  0
  5 16  1  0  0  0  0
  6 17  1  0  0  0  0
  6 18  1  0  0  0  0
  6 19  1  0  0  0  0
  7 20  1  0  0  0  0
  8  9  2  0  0  0  0
  8 21  1  0  0  0  0
  9 22  1  0  0  0  0
  9 23  1  0  0  0  0
M  END
> <PUBCHEM_COMPOUND_CID>
522279
> <PUBCHEM_COMPOUND_CANONICALIZED>
1
> <PUBCHEM_CACTVS_COMPLEXITY>
114
> <PUBCHEM_CACTVS_HBOND_ACCEPTOR>
1
> <PUBCHEM_CACTVS_HBOND_DONOR>
0
> <PUBCHEM_CACTVS_ROTATABLE_BOND>
3
> <PUBCHEM_CACTVS_SUBSKEYS>
AAADccBwIAAAAAAAAAAAAAAAAAAAAAAAAAAAAAAAAAAAAAAAAAAAGgAAAAAADwCggAICAAAAAACIAChSgAAAAAAgAAAIAAEAAAgAABAAAQAAAAAAgAAAAAAAAAAJgAAAAAAAAAAAAAAAAAAAAAAAAAAAAA==
> <PUBCHEM_IUPAC_OPENEYE_NAME>
2,2,3-trimethylpent-4-enal
> <PUBCHEM_IUPAC_CAS_NAME>
2,2,3-trimethyl-4-pentenal
> <PUBCHEM_IUPAC_NAME_MARKUP>
2,2,3-trimethylpent-4-enal
> <PUBCHEM_IUPAC_NAME>
2,2,3-trimethylpent-4-enal
> <PUBCHEM_IUPAC_SYSTEMATIC_NAME>
2,2,3-trimethylpent-4-enal
> <PUBCHEM_IUPAC_TRADITIONAL_NAME>
2,2,3-trimethylpent-4-enal
> <PUBCHEM_IUPAC_INCHI>
InChI=1S/C8H14O/c1-5-7(2)8(3,4)6-9/h5-7H,1H2,2-4H3
> <PUBCHEM_IUPAC_INCHIKEY>
CGJMHDFLIGBWTA-UHFFFAOYSA-N
> <PUBCHEM_XLOGP3_AA>
2
> <PUBCHEM_EXACT_MASS>
126.104465066
> <PUBCHEM_MOLECULAR_FORMULA>
C8H14O
> <PUBCHEM_MOLECULAR_WEIGHT>
126.20
> <PUBCHEM_OPENEYE_CAN_SMILES>
CC(C=C)C(C)(C)C=O
> <PUBCHEM_OPENEYE_ISO_SMILES>
CC(C=C)C(C)(C)C=O
> <PUBCHEM_CACTVS_TPSA>
17.1
> <PUBCHEM_MONOISOTOPIC_WEIGHT>
126.104465066
> <PUBCHEM_TOTAL_CHARGE>
0
> <PUBCHEM_HEAVY_ATOM_COUNT>
9
> <PUBCHEM_ATOM_DEF_STEREO_COUNT>
0
> <PUBCHEM_ATOM_UDEF_STEREO_COUNT>
1
> <PUBCHEM_BOND_DEF_STEREO_COUNT>
0
> <PUBCHEM_BOND_UDEF_STEREO_COUNT>
0
> <PUBCHEM_ISOTOPIC_ATOM_COUNT>
0
> <PUBCHEM_COMPONENT_COUNT>
1
> <PUBCHEM_CACTVS_TAUTO_COUNT>
-1
> <PUBCHEM_COORDINATE_TYPE>
1
5
255
> <PUBCHEM_BONDANNOTATIONS>
3  6  3
$$$$
