522226
  -OEChem-10302200292D
 30 29  0     1  0  0  0  0  0999 V2000
    4.5981    1.0950    0.0000 O   0  0  0  0  0  0  0  0  0  0  0  0
    3.7320   -0.4050    0.0000 C   0  0  0  0  0  0  0  0  0  0  0  0
    4.5981    0.0950    0.0000 C   0  0  3  0  0  0  0  0  0  0  0  0
    5.4641   -0.4050    0.0000 C   0  0  0  0  0  0  0  0  0  0  0  0
    2.8660   -0.9050    0.0000 C   0  0  0  0  0  0  0  0  0  0  0  0
    3.2320    0.4610    0.0000 C   0  0  0  0  0  0  0  0  0  0  0  0
    4.2320   -1.2710    0.0000 C   0  0  0  0  0  0  0  0  0  0  0  0
    6.3301    0.0950    0.0000 C   0  0  0  0  0  0  0  0  0  0  0  0
    5.4641   -1.4050    0.0000 C   0  0  0  0  0  0  0  0  0  0  0  0
    2.0000   -0.4050    0.0000 C   0  0  0  0  0  0  0  0  0  0  0  0
    5.3342    0.5200    0.0000 H   0  0  0  0  0  0  0  0  0  0  0  0
    6.0010   -0.7150    0.0000 H   0  0  0  0  0  0  0  0  0  0  0  0
    2.4675   -1.3800    0.0000 H   0  0  0  0  0  0  0  0  0  0  0  0
    3.2646   -1.3800    0.0000 H   0  0  0  0  0  0  0  0  0  0  0  0
    3.7690    0.7710    0.0000 H   0  0  0  0  0  0  0  0  0  0  0  0
    2.9220    0.9980    0.0000 H   0  0  0  0  0  0  0  0  0  0  0  0
    2.6951    0.1510    0.0000 H   0  0  0  0  0  0  0  0  0  0  0  0
    3.6951   -1.5810    0.0000 H   0  0  0  0  0  0  0  0  0  0  0  0
    4.5420   -1.8080    0.0000 H   0  0  0  0  0  0  0  0  0  0  0  0
    4.7690   -0.9610    0.0000 H   0  0  0  0  0  0  0  0  0  0  0  0
    6.6401   -0.4419    0.0000 H   0  0  0  0  0  0  0  0  0  0  0  0
    6.8671    0.4050    0.0000 H   0  0  0  0  0  0  0  0  0  0  0  0
    6.0201    0.6319    0.0000 H   0  0  0  0  0  0  0  0  0  0  0  0
    4.8441   -1.4050    0.0000 H   0  0  0  0  0  0  0  0  0  0  0  0
    5.4641   -2.0250    0.0000 H   0  0  0  0  0  0  0  0  0  0  0  0
    6.0841   -1.4050    0.0000 H   0  0  0  0  0  0  0  0  0  0  0  0
    2.3100    0.1319    0.0000 H   0  0  0  0  0  0  0  0  0  0  0  0
    1.4631   -0.0950    0.0000 H   0  0  0  0  0  0  0  0  0  0  0  0
    1.6900   -0.9419    0.0000 H   0  0  0  0  0  0  0  0  0  0  0  0
    5.1350    1.4050    0.0000 H   0  0  0  0  0  0  0  0  0  0  0  0
  1  3  1  0  0  0  0
  1 30  1  0  0  0  0
  2  3  1  0  0  0  0
  2  5  1  0  0  0  0
  2  6  1  0  0  0  0
  2  7  1  0  0  0  0
  3  4  1  0  0  0  0
  3 11  1  0  0  0  0
  4  8  1  0  0  0  0
  4  9  1  0  0  0  0
  4 12  1  0  0  0  0
  5 10  1  0  0  0  0
  5 13  1  0  0  0  0
  5 14  1  0  0  0  0
  6 15  1  0  0  0  0
  6 16  1  0  0  0  0
  6 17  1  0  0  0  0
  7 18  1  0  0  0  0
  7 19  1  0  0  0  0
  7 20  1  0  0  0  0
  8 21  1  0  0  0  0
  8 22  1  0  0  0  0
  8 23  1  0  0  0  0
  9 24  1  0  0  0  0
  9 25  1  0  0  0  0
  9 26  1  0  0  0  0
 10 27  1  0  0  0  0
 10 28  1  0  0  0  0
 10 29  1  0  0  0  0
M  END
> <PUBCHEM_COMPOUND_CID>
522226
> <PUBCHEM_COMPOUND_CANONICALIZED>
1
> <PUBCHEM_CACTVS_COMPLEXITY>
94.9
> <PUBCHEM_CACTVS_HBOND_ACCEPTOR>
1
> <PUBCHEM_CACTVS_HBOND_DONOR>
1
> <PUBCHEM_CACTVS_ROTATABLE_BOND>
3
> <PUBCHEM_CACTVS_SUBSKEYS>
AAADceBwIAAAAAAAAAAAAAAAAAAAAAAAAAAAAAAAAAAAAAAAAAAAGgAACAAADxSggAICAAAAAgAAAAAAAAAAAAAAAAAAAAAAAAAAEAIAAAAAQAAEAAAAAAEAAAAPAAAAAAAAAAAAAAAAAAAAAAAAAAAAAA==
> <PUBCHEM_IUPAC_OPENEYE_NAME>
2,4,4-trimethylhexan-3-ol
> <PUBCHEM_IUPAC_CAS_NAME>
2,4,4-trimethyl-3-hexanol
> <PUBCHEM_IUPAC_NAME_MARKUP>
2,4,4-trimethylhexan-3-ol
> <PUBCHEM_IUPAC_NAME>
2,4,4-trimethylhexan-3-ol
> <PUBCHEM_IUPAC_SYSTEMATIC_NAME>
2,4,4-trimethylhexan-3-ol
> <PUBCHEM_IUPAC_TRADITIONAL_NAME>
2,4,4-trimethylhexan-3-ol
> <PUBCHEM_IUPAC_INCHI>
InChI=1S/C9H20O/c1-6-9(4,5)8(10)7(2)3/h7-8,10H,6H2,1-5H3
> <PUBCHEM_IUPAC_INCHIKEY>
PDIVDRVTPZNRDZ-UHFFFAOYSA-N
> <PUBCHEM_XLOGP3_AA>
3
> <PUBCHEM_EXACT_MASS>
144.151415257
> <PUBCHEM_MOLECULAR_FORMULA>
C9H20O
> <PUBCHEM_MOLECULAR_WEIGHT>
144.25
> <PUBCHEM_OPENEYE_CAN_SMILES>
CCC(C)(C)C(C(C)C)O
> <PUBCHEM_OPENEYE_ISO_SMILES>
CCC(C)(C)C(C(C)C)O
> <PUBCHEM_CACTVS_TPSA>
20.2
> <PUBCHEM_MONOISOTOPIC_WEIGHT>
144.151415257
> <PUBCHEM_TOTAL_CHARGE>
0
> <PUBCHEM_HEAVY_ATOM_COUNT>
10
> <PUBCHEM_ATOM_DEF_STEREO_COUNT>
0
> <PUBCHEM_ATOM_UDEF_STEREO_COUNT>
1
> <PUBCHEM_BOND_DEF_STEREO_COUNT>
0
> <PUBCHEM_BOND_UDEF_STEREO_COUNT>
0
> <PUBCHEM_ISOTOPIC_ATOM_COUNT>
0
> <PUBCHEM_COMPONENT_COUNT>
1
> <PUBCHEM_CACTVS_TAUTO_COUNT>
1
> <PUBCHEM_COORDINATE_TYPE>
1
5
255
> <PUBCHEM_BONDANNOTATIONS>
3  11  3
$$$$
