522200
  -OEChem-10302200292D
 34 34  0     1  0  0  0  0  0999 V2000
    5.4641    2.1900    0.0000 O   0  0  0  0  0  0  0  0  0  0  0  0
    3.7320    0.1900    0.0000 C   0  0  0  0  0  0  0  0  0  0  0  0
    3.7320   -0.8100    0.0000 C   0  0  0  0  0  0  0  0  0  0  0  0
    4.5981    0.6900    0.0000 C   0  0  0  0  0  0  0  0  0  0  0  0
    2.8660   -1.3100    0.0000 C   0  0  0  0  0  0  0  0  0  0  0  0
    4.5981    1.6900    0.0000 C   0  0  3  0  0  0  0  0  0  0  0  0
    4.5981   -1.3100    0.0000 C   0  0  0  0  0  0  0  0  0  0  0  0
    2.8660   -2.3100    0.0000 C   0  0  0  0  0  0  0  0  0  0  0  0
    4.5981   -2.3100    0.0000 C   0  0  0  0  0  0  0  0  0  0  0  0
    3.7320   -2.8100    0.0000 C   0  0  0  0  0  0  0  0  0  0  0  0
    2.0000   -0.8100    0.0000 C   0  0  0  0  0  0  0  0  0  0  0  0
    3.7320    2.1900    0.0000 C   0  0  0  0  0  0  0  0  0  0  0  0
    5.4641   -0.8100    0.0000 C   0  0  0  0  0  0  0  0  0  0  0  0
    2.0000   -2.8100    0.0000 C   0  0  0  0  0  0  0  0  0  0  0  0
    3.5200    0.7726    0.0000 H   0  0  0  0  0  0  0  0  0  0  0  0
    3.1215    0.0823    0.0000 H   0  0  0  0  0  0  0  0  0  0  0  0
    4.8101    0.1074    0.0000 H   0  0  0  0  0  0  0  0  0  0  0  0
    5.2087    0.7977    0.0000 H   0  0  0  0  0  0  0  0  0  0  0  0
    4.5981    2.3100    0.0000 H   0  0  0  0  0  0  0  0  0  0  0  0
    5.1350   -2.6200    0.0000 H   0  0  0  0  0  0  0  0  0  0  0  0
    3.7320   -3.4300    0.0000 H   0  0  0  0  0  0  0  0  0  0  0  0
    2.3100   -0.2731    0.0000 H   0  0  0  0  0  0  0  0  0  0  0  0
    1.4631   -0.5000    0.0000 H   0  0  0  0  0  0  0  0  0  0  0  0
    1.6900   -1.3469    0.0000 H   0  0  0  0  0  0  0  0  0  0  0  0
    4.0420    2.7269    0.0000 H   0  0  0  0  0  0  0  0  0  0  0  0
    3.1951    2.5000    0.0000 H   0  0  0  0  0  0  0  0  0  0  0  0
    3.4220    1.6531    0.0000 H   0  0  0  0  0  0  0  0  0  0  0  0
    5.7741   -1.3469    0.0000 H   0  0  0  0  0  0  0  0  0  0  0  0
    6.0010   -0.5000    0.0000 H   0  0  0  0  0  0  0  0  0  0  0  0
    5.1541   -0.2731    0.0000 H   0  0  0  0  0  0  0  0  0  0  0  0
    1.6900   -2.2731    0.0000 H   0  0  0  0  0  0  0  0  0  0  0  0
    1.4631   -3.1200    0.0000 H   0  0  0  0  0  0  0  0  0  0  0  0
    2.3100   -3.3469    0.0000 H   0  0  0  0  0  0  0  0  0  0  0  0
    5.4641    2.8100    0.0000 H   0  0  0  0  0  0  0  0  0  0  0  0
  1  6  1  0  0  0  0
  1 34  1  0  0  0  0
  2  3  1  0  0  0  0
  2  4  1  0  0  0  0
  2 15  1  0  0  0  0
  2 16  1  0  0  0  0
  3  5  1  0  0  0  0
  3  7  2  0  0  0  0
  4  6  1  0  0  0  0
  4 17  1  0  0  0  0
  4 18  1  0  0  0  0
  5  8  2  0  0  0  0
  5 11  1  0  0  0  0
  6 12  1  0  0  0  0
  6 19  1  0  0  0  0
  7  9  1  0  0  0  0
  7 13  1  0  0  0  0
  8 10  1  0  0  0  0
  8 14  1  0  0  0  0
  9 10  2  0  0  0  0
  9 20  1  0  0  0  0
 10 21  1  0  0  0  0
 11 22  1  0  0  0  0
 11 23  1  0  0  0  0
 11 24  1  0  0  0  0
 12 25  1  0  0  0  0
 12 26  1  0  0  0  0
 12 27  1  0  0  0  0
 13 28  1  0  0  0  0
 13 29  1  0  0  0  0
 13 30  1  0  0  0  0
 14 31  1  0  0  0  0
 14 32  1  0  0  0  0
 14 33  1  0  0  0  0
M  END
> <PUBCHEM_COMPOUND_CID>
522200
> <PUBCHEM_COMPOUND_CANONICALIZED>
1
> <PUBCHEM_CACTVS_COMPLEXITY>
167
> <PUBCHEM_CACTVS_HBOND_ACCEPTOR>
1
> <PUBCHEM_CACTVS_HBOND_DONOR>
1
> <PUBCHEM_CACTVS_ROTATABLE_BOND>
3
> <PUBCHEM_CACTVS_SUBSKEYS>
AAADceBwIAAAAAAAAAAAAAAAAAAAAAAAAAAwAAAAAAAAAAABAAAAGgAACAAADBSgmAIyAIAAAgCAAiBCAAACAAAgAAAIiAAAAIgIMCKAERCAYAAkgAAIiAeAwPAOwAACAAAQAACAAAQAACAAAAAAAAAAAA==
> <PUBCHEM_IUPAC_OPENEYE_NAME>
4-(2,3,6-trimethylphenyl)butan-2-ol
> <PUBCHEM_IUPAC_CAS_NAME>
4-(2,3,6-trimethylphenyl)-2-butanol
> <PUBCHEM_IUPAC_NAME_MARKUP>
4-(2,3,6-trimethylphenyl)butan-2-ol
> <PUBCHEM_IUPAC_NAME>
4-(2,3,6-trimethylphenyl)butan-2-ol
> <PUBCHEM_IUPAC_SYSTEMATIC_NAME>
4-(2,3,6-trimethylphenyl)butan-2-ol
> <PUBCHEM_IUPAC_TRADITIONAL_NAME>
4-(2,3,6-trimethylphenyl)butan-2-ol
> <PUBCHEM_IUPAC_INCHI>
InChI=1S/C13H20O/c1-9-5-6-10(2)13(12(9)4)8-7-11(3)14/h5-6,11,14H,7-8H2,1-4H3
> <PUBCHEM_IUPAC_INCHIKEY>
IMXWSBUOJQZJJZ-UHFFFAOYSA-N
> <PUBCHEM_XLOGP3_AA>
3.4
> <PUBCHEM_EXACT_MASS>
192.151415257
> <PUBCHEM_MOLECULAR_FORMULA>
C13H20O
> <PUBCHEM_MOLECULAR_WEIGHT>
192.30
> <PUBCHEM_OPENEYE_CAN_SMILES>
CC1=C(C(=C(C=C1)C)CCC(C)O)C
> <PUBCHEM_OPENEYE_ISO_SMILES>
CC1=C(C(=C(C=C1)C)CCC(C)O)C
> <PUBCHEM_CACTVS_TPSA>
20.2
> <PUBCHEM_MONOISOTOPIC_WEIGHT>
192.151415257
> <PUBCHEM_TOTAL_CHARGE>
0
> <PUBCHEM_HEAVY_ATOM_COUNT>
14
> <PUBCHEM_ATOM_DEF_STEREO_COUNT>
0
> <PUBCHEM_ATOM_UDEF_STEREO_COUNT>
1
> <PUBCHEM_BOND_DEF_STEREO_COUNT>
0
> <PUBCHEM_BOND_UDEF_STEREO_COUNT>
0
> <PUBCHEM_ISOTOPIC_ATOM_COUNT>
0
> <PUBCHEM_COMPONENT_COUNT>
1
> <PUBCHEM_CACTVS_TAUTO_COUNT>
1
> <PUBCHEM_COORDINATE_TYPE>
1
5
255
> <PUBCHEM_BONDANNOTATIONS>
6  1  3
3  5  8
3  7  8
5  8  8
7  9  8
8  10  8
9  10  8
$$$$
