522336
  -OEChem-10302200292D
 28 28  0     1  0  0  0  0  0999 V2000
    3.7601    0.4239    0.0000 C   0  0  3  0  0  0  0  0  0  0  0  0
    2.9511   -0.1639    0.0000 C   0  0  3  0  0  0  0  0  0  0  0  0
    3.7601    1.4239    0.0000 C   0  0  0  0  0  0  0  0  0  0  0  0
    4.5691   -0.1639    0.0000 C   0  0  0  0  0  0  0  0  0  0  0  0
    3.2601   -1.1149    0.0000 C   0  0  0  0  0  0  0  0  0  0  0  0
    4.2601   -1.1149    0.0000 C   0  0  0  0  0  0  0  0  0  0  0  0
    2.0000    0.1452    0.0000 C   0  0  0  0  0  0  0  0  0  0  0  0
    4.6261    1.9239    0.0000 C   0  0  0  0  0  0  0  0  0  0  0  0
    2.8940    1.9239    0.0000 C   0  0  0  0  0  0  0  0  0  0  0  0
    2.6723   -1.9239    0.0000 C   0  0  0  0  0  0  0  0  0  0  0  0
    4.3125    0.7054    0.0000 H   0  0  0  0  0  0  0  0  0  0  0  0
    2.5126   -0.6023    0.0000 H   0  0  0  0  0  0  0  0  0  0  0  0
    3.2231    1.1139    0.0000 H   0  0  0  0  0  0  0  0  0  0  0  0
    5.1355   -0.4160    0.0000 H   0  0  0  0  0  0  0  0  0  0  0  0
    4.8791    0.3731    0.0000 H   0  0  0  0  0  0  0  0  0  0  0  0
    4.6245   -1.6165    0.0000 H   0  0  0  0  0  0  0  0  0  0  0  0
    2.1916    0.7348    0.0000 H   0  0  0  0  0  0  0  0  0  0  0  0
    1.4103    0.3368    0.0000 H   0  0  0  0  0  0  0  0  0  0  0  0
    1.8084   -0.4445    0.0000 H   0  0  0  0  0  0  0  0  0  0  0  0
    4.9361    1.3870    0.0000 H   0  0  0  0  0  0  0  0  0  0  0  0
    5.1630    2.2339    0.0000 H   0  0  0  0  0  0  0  0  0  0  0  0
    4.3161    2.4609    0.0000 H   0  0  0  0  0  0  0  0  0  0  0  0
    3.2040    2.4609    0.0000 H   0  0  0  0  0  0  0  0  0  0  0  0
    2.3571    2.2339    0.0000 H   0  0  0  0  0  0  0  0  0  0  0  0
    2.5840    1.3870    0.0000 H   0  0  0  0  0  0  0  0  0  0  0  0
    2.1707   -1.5595    0.0000 H   0  0  0  0  0  0  0  0  0  0  0  0
    2.3079   -2.4255    0.0000 H   0  0  0  0  0  0  0  0  0  0  0  0
    3.1739   -2.2884    0.0000 H   0  0  0  0  0  0  0  0  0  0  0  0
  1  2  1  0  0  0  0
  1  3  1  0  0  0  0
  1  4  1  0  0  0  0
  1 11  1  0  0  0  0
  2  5  1  0  0  0  0
  2  7  1  0  0  0  0
  2 12  1  0  0  0  0
  3  8  1  0  0  0  0
  3  9  1  0  0  0  0
  3 13  1  0  0  0  0
  4  6  1  0  0  0  0
  4 14  1  0  0  0  0
  4 15  1  0  0  0  0
  5  6  2  0  0  0  0
  5 10  1  0  0  0  0
  6 16  1  0  0  0  0
  7 17  1  0  0  0  0
  7 18  1  0  0  0  0
  7 19  1  0  0  0  0
  8 20  1  0  0  0  0
  8 21  1  0  0  0  0
  8 22  1  0  0  0  0
  9 23  1  0  0  0  0
  9 24  1  0  0  0  0
  9 25  1  0  0  0  0
 10 26  1  0  0  0  0
 10 27  1  0  0  0  0
 10 28  1  0  0  0  0
M  END
> <PUBCHEM_COMPOUND_CID>
522336
> <PUBCHEM_COMPOUND_CANONICALIZED>
1
> <PUBCHEM_CACTVS_COMPLEXITY>
142
> <PUBCHEM_CACTVS_HBOND_ACCEPTOR>
0
> <PUBCHEM_CACTVS_HBOND_DONOR>
0
> <PUBCHEM_CACTVS_ROTATABLE_BOND>
1
> <PUBCHEM_CACTVS_SUBSKEYS>
AAADceBwAAAAAAAAAAAAAAAAAAAAAQAAAAAAAAAAAAAAAAAAAAAAGAAAAAAADQCAAAACAAAAAACAAiBCAAAAAAAgAAAACAAAAAgAAAIAAQAAAAAAgAAIAAMAAAAOgAAAAAAAAAAAAAAAAAAAAAAAAAAAAA==
> <PUBCHEM_IUPAC_OPENEYE_NAME>
4-isopropyl-1,5-dimethyl-cyclopentene
> <PUBCHEM_IUPAC_CAS_NAME>
1,5-dimethyl-4-propan-2-ylcyclopentene
> <PUBCHEM_IUPAC_NAME_MARKUP>
1,5-dimethyl-4-propan-2-ylcyclopentene
> <PUBCHEM_IUPAC_NAME>
1,5-dimethyl-4-propan-2-ylcyclopentene
> <PUBCHEM_IUPAC_SYSTEMATIC_NAME>
1,5-dimethyl-4-propan-2-yl-cyclopentene
> <PUBCHEM_IUPAC_TRADITIONAL_NAME>
4-isopropyl-1,5-dimethyl-cyclopentene
> <PUBCHEM_IUPAC_INCHI>
InChI=1S/C10H18/c1-7(2)10-6-5-8(3)9(10)4/h5,7,9-10H,6H2,1-4H3
> <PUBCHEM_IUPAC_INCHIKEY>
MAQKCOQCCJXUIL-UHFFFAOYSA-N
> <PUBCHEM_XLOGP3_AA>
3.2
> <PUBCHEM_EXACT_MASS>
138.140850574
> <PUBCHEM_MOLECULAR_FORMULA>
C10H18
> <PUBCHEM_MOLECULAR_WEIGHT>
138.25
> <PUBCHEM_OPENEYE_CAN_SMILES>
CC1C(CC=C1C)C(C)C
> <PUBCHEM_OPENEYE_ISO_SMILES>
CC1C(CC=C1C)C(C)C
> <PUBCHEM_CACTVS_TPSA>
0
> <PUBCHEM_MONOISOTOPIC_WEIGHT>
138.140850574
> <PUBCHEM_TOTAL_CHARGE>
0
> <PUBCHEM_HEAVY_ATOM_COUNT>
10
> <PUBCHEM_ATOM_DEF_STEREO_COUNT>
0
> <PUBCHEM_ATOM_UDEF_STEREO_COUNT>
2
> <PUBCHEM_BOND_DEF_STEREO_COUNT>
0
> <PUBCHEM_BOND_UDEF_STEREO_COUNT>
0
> <PUBCHEM_ISOTOPIC_ATOM_COUNT>
0
> <PUBCHEM_COMPONENT_COUNT>
1
> <PUBCHEM_CACTVS_TAUTO_COUNT>
-1
> <PUBCHEM_COORDINATE_TYPE>
1
5
255
> <PUBCHEM_BONDANNOTATIONS>
1  3  3
2  7  3
$$$$
