522304
  -OEChem-10302200292D
 56 56  0     1  0  0  0  0  0999 V2000
    3.8660    2.5670    0.0000 Si  0  0  0  0  0  0  0  0  0  0  0  0
    6.4641    3.0670    0.0000 Si  0  0  0  0  0  0  0  0  0  0  0  0
    3.0000   -2.9330    0.0000 Si  0  0  0  0  0  0  0  0  0  0  0  0
    3.8660    1.5670    0.0000 O   0  0  0  0  0  0  0  0  0  0  0  0
    5.5981    2.5670    0.0000 O   0  0  0  0  0  0  0  0  0  0  0  0
    3.0000   -1.9330    0.0000 O   0  0  0  0  0  0  0  0  0  0  0  0
    6.4641    1.0670    0.0000 O   0  0  0  0  0  0  0  0  0  0  0  0
    4.7320    1.0670    0.0000 C   0  0  3  0  0  0  0  0  0  0  0  0
    4.7320    0.0670    0.0000 C   0  0  0  0  0  0  0  0  0  0  0  0
    3.8660    3.5670    0.0000 C   0  0  0  0  0  0  0  0  0  0  0  0
    2.8660    2.5670    0.0000 C   0  0  0  0  0  0  0  0  0  0  0  0
    4.8660    2.5670    0.0000 C   0  0  0  0  0  0  0  0  0  0  0  0
    5.5981    1.5670    0.0000 C   0  0  0  0  0  0  0  0  0  0  0  0
    3.8660   -0.4330    0.0000 C   0  0  0  0  0  0  0  0  0  0  0  0
    3.8660   -1.4330    0.0000 C   0  0  0  0  0  0  0  0  0  0  0  0
    7.3301    3.5670    0.0000 C   0  0  0  0  0  0  0  0  0  0  0  0
    5.9641    3.9330    0.0000 C   0  0  0  0  0  0  0  0  0  0  0  0
    6.9641    2.2010    0.0000 C   0  0  0  0  0  0  0  0  0  0  0  0
    5.5981   -0.4330    0.0000 C   0  0  0  0  0  0  0  0  0  0  0  0
    3.0000   -3.9330    0.0000 C   0  0  0  0  0  0  0  0  0  0  0  0
    2.0000   -2.9330    0.0000 C   0  0  0  0  0  0  0  0  0  0  0  0
    4.0000   -2.9330    0.0000 C   0  0  0  0  0  0  0  0  0  0  0  0
    4.7320   -1.9330    0.0000 C   0  0  0  0  0  0  0  0  0  0  0  0
    5.5981   -1.4330    0.0000 C   0  0  0  0  0  0  0  0  0  0  0  0
    4.7320    1.6870    0.0000 H   0  0  0  0  0  0  0  0  0  0  0  0
    4.4860    3.5670    0.0000 H   0  0  0  0  0  0  0  0  0  0  0  0
    3.8660    4.1870    0.0000 H   0  0  0  0  0  0  0  0  0  0  0  0
    3.2460    3.5670    0.0000 H   0  0  0  0  0  0  0  0  0  0  0  0
    2.8660    3.1870    0.0000 H   0  0  0  0  0  0  0  0  0  0  0  0
    2.2460    2.5670    0.0000 H   0  0  0  0  0  0  0  0  0  0  0  0
    2.8660    1.9470    0.0000 H   0  0  0  0  0  0  0  0  0  0  0  0
    4.8660    1.9470    0.0000 H   0  0  0  0  0  0  0  0  0  0  0  0
    5.4860    2.5670    0.0000 H   0  0  0  0  0  0  0  0  0  0  0  0
    4.8660    3.1870    0.0000 H   0  0  0  0  0  0  0  0  0  0  0  0
    3.3291   -0.1230    0.0000 H   0  0  0  0  0  0  0  0  0  0  0  0
    7.6401    3.0300    0.0000 H   0  0  0  0  0  0  0  0  0  0  0  0
    7.8671    3.8770    0.0000 H   0  0  0  0  0  0  0  0  0  0  0  0
    7.0201    4.1039    0.0000 H   0  0  0  0  0  0  0  0  0  0  0  0
    6.5010    4.2430    0.0000 H   0  0  0  0  0  0  0  0  0  0  0  0
    5.6541    4.4700    0.0000 H   0  0  0  0  0  0  0  0  0  0  0  0
    5.4272    3.6230    0.0000 H   0  0  0  0  0  0  0  0  0  0  0  0
    6.4272    1.8910    0.0000 H   0  0  0  0  0  0  0  0  0  0  0  0
    7.2741    1.6640    0.0000 H   0  0  0  0  0  0  0  0  0  0  0  0
    7.5010    2.5110    0.0000 H   0  0  0  0  0  0  0  0  0  0  0  0
    6.1350   -0.1230    0.0000 H   0  0  0  0  0  0  0  0  0  0  0  0
    2.3800   -3.9330    0.0000 H   0  0  0  0  0  0  0  0  0  0  0  0
    3.0000   -4.5530    0.0000 H   0  0  0  0  0  0  0  0  0  0  0  0
    3.6200   -3.9330    0.0000 H   0  0  0  0  0  0  0  0  0  0  0  0
    2.0000   -2.3130    0.0000 H   0  0  0  0  0  0  0  0  0  0  0  0
    1.3800   -2.9330    0.0000 H   0  0  0  0  0  0  0  0  0  0  0  0
    2.0000   -3.5530    0.0000 H   0  0  0  0  0  0  0  0  0  0  0  0
    4.0000   -3.5530    0.0000 H   0  0  0  0  0  0  0  0  0  0  0  0
    4.6200   -2.9330    0.0000 H   0  0  0  0  0  0  0  0  0  0  0  0
    4.0000   -2.3130    0.0000 H   0  0  0  0  0  0  0  0  0  0  0  0
    4.7320   -2.5530    0.0000 H   0  0  0  0  0  0  0  0  0  0  0  0
    6.1350   -1.7430    0.0000 H   0  0  0  0  0  0  0  0  0  0  0  0
  1  4  1  0  0  0  0
  1 10  1  0  0  0  0
  1 11  1  0  0  0  0
  1 12  1  0  0  0  0
  2  5  1  0  0  0  0
  2 16  1  0  0  0  0
  2 17  1  0  0  0  0
  2 18  1  0  0  0  0
  3  6  1  0  0  0  0
  3 20  1  0  0  0  0
  3 21  1  0  0  0  0
  3 22  1  0  0  0  0
  4  8  1  0  0  0  0
  5 13  1  0  0  0  0
  6 15  1  0  0  0  0
  7 13  2  0  0  0  0
  8  9  1  0  0  0  0
  8 13  1  0  0  0  0
  8 25  1  0  0  0  0
  9 14  2  0  0  0  0
  9 19  1  0  0  0  0
 10 26  1  0  0  0  0
 10 27  1  0  0  0  0
 10 28  1  0  0  0  0
 11 29  1  0  0  0  0
 11 30  1  0  0  0  0
 11 31  1  0  0  0  0
 12 32  1  0  0  0  0
 12 33  1  0  0  0  0
 12 34  1  0  0  0  0
 14 15  1  0  0  0  0
 14 35  1  0  0  0  0
 15 23  2  0  0  0  0
 16 36  1  0  0  0  0
 16 37  1  0  0  0  0
 16 38  1  0  0  0  0
 17 39  1  0  0  0  0
 17 40  1  0  0  0  0
 17 41  1  0  0  0  0
 18 42  1  0  0  0  0
 18 43  1  0  0  0  0
 18 44  1  0  0  0  0
 19 24  2  0  0  0  0
 19 45  1  0  0  0  0
 20 46  1  0  0  0  0
 20 47  1  0  0  0  0
 20 48  1  0  0  0  0
 21 49  1  0  0  0  0
 21 50  1  0  0  0  0
 21 51  1  0  0  0  0
 22 52  1  0  0  0  0
 22 53  1  0  0  0  0
 22 54  1  0  0  0  0
 23 24  1  0  0  0  0
 23 55  1  0  0  0  0
 24 56  1  0  0  0  0
M  END
> <PUBCHEM_COMPOUND_CID>
522304
> <PUBCHEM_COMPOUND_CANONICALIZED>
1
> <PUBCHEM_CACTVS_COMPLEXITY>
421
> <PUBCHEM_CACTVS_HBOND_ACCEPTOR>
4
> <PUBCHEM_CACTVS_HBOND_DONOR>
0
> <PUBCHEM_CACTVS_ROTATABLE_BOND>
8
> <PUBCHEM_CACTVS_SUBSKEYS>
AAADcfB4OAwAAAAAAAAAAAAAAAAAAAAAAAAwAAAAAAAAAAABAAAAGhAAAEAADBSgmAJyDoAAAAGIAiDSCAICAAAgIAAIiAFGCIgJJjKAFRKAMAAkwBEIiAfI7LTOAAABAAAAAAAAAAIAAAAAAAAAAAAAAA==
> <PUBCHEM_IUPAC_OPENEYE_NAME>
trimethylsilyl 2-trimethylsilyloxy-2-(3-trimethylsilyloxyphenyl)acetate
> <PUBCHEM_IUPAC_CAS_NAME>
2-trimethylsilyloxy-2-(3-trimethylsilyloxyphenyl)acetic acid trimethylsilyl ester
> <PUBCHEM_IUPAC_NAME_MARKUP>
trimethylsilyl 2-trimethylsilyloxy-2-(3-trimethylsilyloxyphenyl)acetate
> <PUBCHEM_IUPAC_NAME>
trimethylsilyl 2-trimethylsilyloxy-2-(3-trimethylsilyloxyphenyl)acetate
> <PUBCHEM_IUPAC_SYSTEMATIC_NAME>
trimethylsilyl 2-trimethylsilyloxy-2-(3-trimethylsilyloxyphenyl)ethanoate
> <PUBCHEM_IUPAC_TRADITIONAL_NAME>
2-trimethylsilyloxy-2-(3-trimethylsilyloxyphenyl)acetic acid trimethylsilyl ester
> <PUBCHEM_IUPAC_INCHI>
InChI=1S/C17H32O4Si3/c1-22(2,3)19-15-12-10-11-14(13-15)16(20-23(4,5)6)17(18)21-24(7,8)9/h10-13,16H,1-9H3
> <PUBCHEM_IUPAC_INCHIKEY>
GDUFOGAWAWCHTM-UHFFFAOYSA-N
> <PUBCHEM_EXACT_MASS>
384.16083910
> <PUBCHEM_MOLECULAR_FORMULA>
C17H32O4Si3
> <PUBCHEM_MOLECULAR_WEIGHT>
384.7
> <PUBCHEM_OPENEYE_CAN_SMILES>
C[Si](C)(C)OC1=CC=CC(=C1)C(C(=O)O[Si](C)(C)C)O[Si](C)(C)C
> <PUBCHEM_OPENEYE_ISO_SMILES>
C[Si](C)(C)OC1=CC=CC(=C1)C(C(=O)O[Si](C)(C)C)O[Si](C)(C)C
> <PUBCHEM_CACTVS_TPSA>
44.8
> <PUBCHEM_MONOISOTOPIC_WEIGHT>
384.16083910
> <PUBCHEM_TOTAL_CHARGE>
0
> <PUBCHEM_HEAVY_ATOM_COUNT>
24
> <PUBCHEM_ATOM_DEF_STEREO_COUNT>
0
> <PUBCHEM_ATOM_UDEF_STEREO_COUNT>
1
> <PUBCHEM_BOND_DEF_STEREO_COUNT>
0
> <PUBCHEM_BOND_UDEF_STEREO_COUNT>
0
> <PUBCHEM_ISOTOPIC_ATOM_COUNT>
0
> <PUBCHEM_COMPONENT_COUNT>
1
> <PUBCHEM_CACTVS_TAUTO_COUNT>
-1
> <PUBCHEM_COORDINATE_TYPE>
1
5
255
> <PUBCHEM_BONDANNOTATIONS>
14  15  8
15  23  8
19  24  8
23  24  8
8  13  3
9  14  8
9  19  8
$$$$
