522380
  -OEChem-10302200292D
 31 30  0     1  0  0  0  0  0999 V2000
    3.7320   -0.1830    0.0000 P   0  0  3  0  0  0  0  0  0  0  0  0
    4.5981    0.3170    0.0000 O   0  0  0  0  0  0  0  0  0  0  0  0
    2.8660   -0.6830    0.0000 O   0  0  0  0  0  0  0  0  0  0  0  0
    4.2320   -1.0490    0.0000 O   0  0  0  0  0  0  0  0  0  0  0  0
    6.3301    0.3170    0.0000 C   0  0  0  0  0  0  0  0  0  0  0  0
    5.4641   -0.1830    0.0000 C   0  0  3  0  0  0  0  0  0  0  0  0
    7.1962    0.8170    0.0000 C   0  0  0  0  0  0  0  0  0  0  0  0
    6.8301   -0.5490    0.0000 C   0  0  0  0  0  0  0  0  0  0  0  0
    5.8301    1.1830    0.0000 C   0  0  0  0  0  0  0  0  0  0  0  0
    5.4641   -1.1830    0.0000 C   0  0  0  0  0  0  0  0  0  0  0  0
    3.2320    0.6830    0.0000 C   0  0  0  0  0  0  0  0  0  0  0  0
    2.0000   -0.1830    0.0000 C   0  0  0  0  0  0  0  0  0  0  0  0
    5.4641    0.4370    0.0000 H   0  0  0  0  0  0  0  0  0  0  0  0
    7.5062    0.2801    0.0000 H   0  0  0  0  0  0  0  0  0  0  0  0
    7.7331    1.1270    0.0000 H   0  0  0  0  0  0  0  0  0  0  0  0
    6.8862    1.3539    0.0000 H   0  0  0  0  0  0  0  0  0  0  0  0
    6.2932   -0.8590    0.0000 H   0  0  0  0  0  0  0  0  0  0  0  0
    7.1401   -1.0860    0.0000 H   0  0  0  0  0  0  0  0  0  0  0  0
    7.3671   -0.2390    0.0000 H   0  0  0  0  0  0  0  0  0  0  0  0
    6.3671    1.4930    0.0000 H   0  0  0  0  0  0  0  0  0  0  0  0
    5.5201    1.7200    0.0000 H   0  0  0  0  0  0  0  0  0  0  0  0
    5.2932    0.8730    0.0000 H   0  0  0  0  0  0  0  0  0  0  0  0
    4.8441   -1.1830    0.0000 H   0  0  0  0  0  0  0  0  0  0  0  0
    5.4641   -1.8030    0.0000 H   0  0  0  0  0  0  0  0  0  0  0  0
    6.0841   -1.1830    0.0000 H   0  0  0  0  0  0  0  0  0  0  0  0
    3.7690    0.9930    0.0000 H   0  0  0  0  0  0  0  0  0  0  0  0
    2.9220    1.2200    0.0000 H   0  0  0  0  0  0  0  0  0  0  0  0
    2.6951    0.3730    0.0000 H   0  0  0  0  0  0  0  0  0  0  0  0
    2.3100    0.3539    0.0000 H   0  0  0  0  0  0  0  0  0  0  0  0
    1.4631    0.1270    0.0000 H   0  0  0  0  0  0  0  0  0  0  0  0
    1.6900   -0.7199    0.0000 H   0  0  0  0  0  0  0  0  0  0  0  0
  1  2  1  0  0  0  0
  1  3  1  0  0  0  0
  1  4  2  0  0  0  0
  1 11  1  0  0  0  0
  2  6  1  0  0  0  0
  3 12  1  0  0  0  0
  5  6  1  0  0  0  0
  5  7  1  0  0  0  0
  5  8  1  0  0  0  0
  5  9  1  0  0  0  0
  6 10  1  0  0  0  0
  6 13  1  0  0  0  0
  7 14  1  0  0  0  0
  7 15  1  0  0  0  0
  7 16  1  0  0  0  0
  8 17  1  0  0  0  0
  8 18  1  0  0  0  0
  8 19  1  0  0  0  0
  9 20  1  0  0  0  0
  9 21  1  0  0  0  0
  9 22  1  0  0  0  0
 10 23  1  0  0  0  0
 10 24  1  0  0  0  0
 10 25  1  0  0  0  0
 11 26  1  0  0  0  0
 11 27  1  0  0  0  0
 11 28  1  0  0  0  0
 12 29  1  0  0  0  0
 12 30  1  0  0  0  0
 12 31  1  0  0  0  0
M  END
> <PUBCHEM_COMPOUND_CID>
522380
> <PUBCHEM_COMPOUND_CANONICALIZED>
1
> <PUBCHEM_CACTVS_COMPLEXITY>
183
> <PUBCHEM_CACTVS_HBOND_ACCEPTOR>
3
> <PUBCHEM_CACTVS_HBOND_DONOR>
0
> <PUBCHEM_CACTVS_ROTATABLE_BOND>
4
> <PUBCHEM_CACTVS_SUBSKEYS>
AAADceBwMAIAAAAAAAAAAAAAAAAAAAAAAAAAAAAAAAAAAAAAAAAAGggAACAADhSggAICAAAAARAAQAAAAIAAAAAAAAAAAAAAAAAAAAAAAAAAAAAAAAAAAAAAAAAJAAAAAAAAAAAAAAAAAAAAAAAAAAAAAA==
> <PUBCHEM_IUPAC_OPENEYE_NAME>
3-[methoxy(methyl)phosphoryl]oxy-2,2-dimethyl-butane
> <PUBCHEM_IUPAC_CAS_NAME>
3-[methoxy(methyl)phosphoryl]oxy-2,2-dimethylbutane
> <PUBCHEM_IUPAC_NAME_MARKUP>
3-[methoxy(methyl)phosphoryl]oxy-2,2-dimethylbutane
> <PUBCHEM_IUPAC_NAME>
3-[methoxy(methyl)phosphoryl]oxy-2,2-dimethylbutane
> <PUBCHEM_IUPAC_SYSTEMATIC_NAME>
3-[methoxy(methyl)phosphoryl]oxy-2,2-dimethyl-butane
> <PUBCHEM_IUPAC_TRADITIONAL_NAME>
3-[methoxy(methyl)phosphoryl]oxy-2,2-dimethyl-butane
> <PUBCHEM_IUPAC_INCHI>
InChI=1S/C8H19O3P/c1-7(8(2,3)4)11-12(6,9)10-5/h7H,1-6H3
> <PUBCHEM_IUPAC_INCHIKEY>
IVTOWMZAZSBKOT-UHFFFAOYSA-N
> <PUBCHEM_XLOGP3_AA>
1.6
> <PUBCHEM_EXACT_MASS>
194.10718146
> <PUBCHEM_MOLECULAR_FORMULA>
C8H19O3P
> <PUBCHEM_MOLECULAR_WEIGHT>
194.21
> <PUBCHEM_OPENEYE_CAN_SMILES>
CC(C(C)(C)C)OP(=O)(C)OC
> <PUBCHEM_OPENEYE_ISO_SMILES>
CC(C(C)(C)C)OP(=O)(C)OC
> <PUBCHEM_CACTVS_TPSA>
35.5
> <PUBCHEM_MONOISOTOPIC_WEIGHT>
194.10718146
> <PUBCHEM_TOTAL_CHARGE>
0
> <PUBCHEM_HEAVY_ATOM_COUNT>
12
> <PUBCHEM_ATOM_DEF_STEREO_COUNT>
0
> <PUBCHEM_ATOM_UDEF_STEREO_COUNT>
2
> <PUBCHEM_BOND_DEF_STEREO_COUNT>
0
> <PUBCHEM_BOND_UDEF_STEREO_COUNT>
0
> <PUBCHEM_ISOTOPIC_ATOM_COUNT>
0
> <PUBCHEM_COMPONENT_COUNT>
1
> <PUBCHEM_CACTVS_TAUTO_COUNT>
-1
> <PUBCHEM_COORDINATE_TYPE>
1
5
255
> <PUBCHEM_BONDANNOTATIONS>
1  11  3
6  10  3
$$$$
