522317
  -OEChem-10302200292D
 21 20  0     1  0  0  0  0  0999 V2000
    6.0010   -1.0950    0.0000 S   0  0  0  0  0  0  0  0  0  0  0  0
    6.8671    1.4050    0.0000 O   0  0  0  0  0  0  0  0  0  0  0  0
    4.2690   -1.0950    0.0000 O   0  0  0  0  0  0  0  0  0  0  0  0
    7.7331   -0.0950    0.0000 N   0  0  0  0  0  0  0  0  0  0  0  0
    3.4030    0.4050    0.0000 N   0  0  0  0  0  0  0  0  0  0  0  0
    8.5991    0.4050    0.0000 N   0  0  0  0  0  0  0  0  0  0  0  0
    2.5369   -0.0950    0.0000 N   0  0  0  0  0  0  0  0  0  0  0  0
    6.0010   -0.0950    0.0000 C   0  0  3  0  0  0  0  0  0  0  0  0
    5.1350    0.4050    0.0000 C   0  0  0  0  0  0  0  0  0  0  0  0
    6.8671    0.4050    0.0000 C   0  0  0  0  0  0  0  0  0  0  0  0
    4.2690   -0.0950    0.0000 C   0  0  0  0  0  0  0  0  0  0  0  0
    6.5380   -0.4050    0.0000 H   0  0  0  0  0  0  0  0  0  0  0  0
    5.5335    0.8799    0.0000 H   0  0  0  0  0  0  0  0  0  0  0  0
    4.7365    0.8799    0.0000 H   0  0  0  0  0  0  0  0  0  0  0  0
    5.4641   -1.4050    0.0000 H   0  0  0  0  0  0  0  0  0  0  0  0
    7.7331   -0.7150    0.0000 H   0  0  0  0  0  0  0  0  0  0  0  0
    3.4030    1.0250    0.0000 H   0  0  0  0  0  0  0  0  0  0  0  0
    9.1360    0.0950    0.0000 H   0  0  0  0  0  0  0  0  0  0  0  0
    8.5991    1.0250    0.0000 H   0  0  0  0  0  0  0  0  0  0  0  0
    2.0000    0.2150    0.0000 H   0  0  0  0  0  0  0  0  0  0  0  0
    2.5369   -0.7150    0.0000 H   0  0  0  0  0  0  0  0  0  0  0  0
  1  8  1  0  0  0  0
  1 15  1  0  0  0  0
  2 10  2  0  0  0  0
  3 11  2  0  0  0  0
  4  6  1  0  0  0  0
  4 10  1  0  0  0  0
  4 16  1  0  0  0  0
  5  7  1  0  0  0  0
  5 11  1  0  0  0  0
  5 17  1  0  0  0  0
  6 18  1  0  0  0  0
  6 19  1  0  0  0  0
  7 20  1  0  0  0  0
  7 21  1  0  0  0  0
  8  9  1  0  0  0  0
  8 10  1  0  0  0  0
  8 12  1  0  0  0  0
  9 11  1  0  0  0  0
  9 13  1  0  0  0  0
  9 14  1  0  0  0  0
M  END
> <PUBCHEM_COMPOUND_CID>
522317
> <PUBCHEM_COMPOUND_CANONICALIZED>
1
> <PUBCHEM_CACTVS_COMPLEXITY>
162
> <PUBCHEM_CACTVS_HBOND_ACCEPTOR>
5
> <PUBCHEM_CACTVS_HBOND_DONOR>
5
> <PUBCHEM_CACTVS_ROTATABLE_BOND>
3
> <PUBCHEM_CACTVS_SUBSKEYS>
AAADccBjsABAAAAAAAAAAAAAAAAAAAAAAAAAAAAAAAAAAAAAAAAAHgQYAAAACACFwACAAABiAAQIAAEQEAAAAAAAAAISIAEAAAAAABAAgAAAAAAAEAAAAAAFAAAAAAAAAAAAAAAAAAAAAAAAAAAAAAAAAA==
> <PUBCHEM_IUPAC_OPENEYE_NAME>
2-sulfanylbutanedihydrazide
> <PUBCHEM_IUPAC_CAS_NAME>
2-mercaptobutanedihydrazide
> <PUBCHEM_IUPAC_NAME_MARKUP>
2-sulfanylbutanedihydrazide
> <PUBCHEM_IUPAC_NAME>
2-sulfanylbutanedihydrazide
> <PUBCHEM_IUPAC_SYSTEMATIC_NAME>
2-sulfanylbutanedihydrazide
> <PUBCHEM_IUPAC_TRADITIONAL_NAME>
2-mercaptosuccinohydrazide
> <PUBCHEM_IUPAC_INCHI>
InChI=1S/C4H10N4O2S/c5-7-3(9)1-2(11)4(10)8-6/h2,11H,1,5-6H2,(H,7,9)(H,8,10)
> <PUBCHEM_IUPAC_INCHIKEY>
RRRPKRWDEPHRSD-UHFFFAOYSA-N
> <PUBCHEM_XLOGP3_AA>
-2.3
> <PUBCHEM_EXACT_MASS>
178.05244675
> <PUBCHEM_MOLECULAR_FORMULA>
C4H10N4O2S
> <PUBCHEM_MOLECULAR_WEIGHT>
178.22
> <PUBCHEM_OPENEYE_CAN_SMILES>
C(C(C(=O)NN)S)C(=O)NN
> <PUBCHEM_OPENEYE_ISO_SMILES>
C(C(C(=O)NN)S)C(=O)NN
> <PUBCHEM_CACTVS_TPSA>
111
> <PUBCHEM_MONOISOTOPIC_WEIGHT>
178.05244675
> <PUBCHEM_TOTAL_CHARGE>
0
> <PUBCHEM_HEAVY_ATOM_COUNT>
11
> <PUBCHEM_ATOM_DEF_STEREO_COUNT>
0
> <PUBCHEM_ATOM_UDEF_STEREO_COUNT>
1
> <PUBCHEM_BOND_DEF_STEREO_COUNT>
0
> <PUBCHEM_BOND_UDEF_STEREO_COUNT>
0
> <PUBCHEM_ISOTOPIC_ATOM_COUNT>
0
> <PUBCHEM_COMPONENT_COUNT>
1
> <PUBCHEM_CACTVS_TAUTO_COUNT>
-1
> <PUBCHEM_COORDINATE_TYPE>
1
5
255
> <PUBCHEM_BONDANNOTATIONS>
8  1  3
$$$$
