522373
  -OEChem-10302200292D
 38 37  0     1  0  0  0  0  0999 V2000
    8.0622   -0.4050    0.0000 Si  0  0  0  0  0  0  0  0  0  0  0  0
    2.8660   -0.4050    0.0000 Si  0  0  0  0  0  0  0  0  0  0  0  0
    7.1962    0.0950    0.0000 O   0  0  0  0  0  0  0  0  0  0  0  0
    3.7320    0.0950    0.0000 O   0  0  0  0  0  0  0  0  0  0  0  0
    4.5981   -1.4050    0.0000 O   0  0  0  0  0  0  0  0  0  0  0  0
    5.4641    1.0950    0.0000 N   0  0  0  0  0  0  0  0  0  0  0  0
    5.4641    0.0950    0.0000 C   0  0  3  0  0  0  0  0  0  0  0  0
    6.3301   -0.4050    0.0000 C   0  0  0  0  0  0  0  0  0  0  0  0
    8.9282   -0.9050    0.0000 C   0  0  0  0  0  0  0  0  0  0  0  0
    8.5622    0.4610    0.0000 C   0  0  0  0  0  0  0  0  0  0  0  0
    7.5622   -1.2710    0.0000 C   0  0  0  0  0  0  0  0  0  0  0  0
    4.5981   -0.4050    0.0000 C   0  0  0  0  0  0  0  0  0  0  0  0
    2.0000   -0.9050    0.0000 C   0  0  0  0  0  0  0  0  0  0  0  0
    2.3660    0.4610    0.0000 C   0  0  0  0  0  0  0  0  0  0  0  0
    3.3660   -1.2710    0.0000 C   0  0  0  0  0  0  0  0  0  0  0  0
    6.0010    0.4050    0.0000 H   0  0  0  0  0  0  0  0  0  0  0  0
    5.9316   -0.8799    0.0000 H   0  0  0  0  0  0  0  0  0  0  0  0
    6.7287   -0.8799    0.0000 H   0  0  0  0  0  0  0  0  0  0  0  0
    8.6182   -1.4419    0.0000 H   0  0  0  0  0  0  0  0  0  0  0  0
    9.4651   -1.2150    0.0000 H   0  0  0  0  0  0  0  0  0  0  0  0
    9.2382   -0.3681    0.0000 H   0  0  0  0  0  0  0  0  0  0  0  0
    9.0991    0.1510    0.0000 H   0  0  0  0  0  0  0  0  0  0  0  0
    8.8722    0.9980    0.0000 H   0  0  0  0  0  0  0  0  0  0  0  0
    8.0252    0.7710    0.0000 H   0  0  0  0  0  0  0  0  0  0  0  0
    7.0252   -0.9610    0.0000 H   0  0  0  0  0  0  0  0  0  0  0  0
    7.2522   -1.8080    0.0000 H   0  0  0  0  0  0  0  0  0  0  0  0
    8.0991   -1.5810    0.0000 H   0  0  0  0  0  0  0  0  0  0  0  0
    1.6900   -0.3681    0.0000 H   0  0  0  0  0  0  0  0  0  0  0  0
    1.4631   -1.2150    0.0000 H   0  0  0  0  0  0  0  0  0  0  0  0
    2.3100   -1.4419    0.0000 H   0  0  0  0  0  0  0  0  0  0  0  0
    2.9030    0.7710    0.0000 H   0  0  0  0  0  0  0  0  0  0  0  0
    2.0560    0.9980    0.0000 H   0  0  0  0  0  0  0  0  0  0  0  0
    1.8291    0.1510    0.0000 H   0  0  0  0  0  0  0  0  0  0  0  0
    2.8291   -1.5810    0.0000 H   0  0  0  0  0  0  0  0  0  0  0  0
    3.6760   -1.8080    0.0000 H   0  0  0  0  0  0  0  0  0  0  0  0
    3.9030   -0.9610    0.0000 H   0  0  0  0  0  0  0  0  0  0  0  0
    6.0010    1.4050    0.0000 H   0  0  0  0  0  0  0  0  0  0  0  0
    4.9272    1.4050    0.0000 H   0  0  0  0  0  0  0  0  0  0  0  0
  1  3  1  0  0  0  0
  1  9  1  0  0  0  0
  1 10  1  0  0  0  0
  1 11  1  0  0  0  0
  2  4  1  0  0  0  0
  2 13  1  0  0  0  0
  2 14  1  0  0  0  0
  2 15  1  0  0  0  0
  3  8  1  0  0  0  0
  4 12  1  0  0  0  0
  5 12  2  0  0  0  0
  6  7  1  0  0  0  0
  6 37  1  0  0  0  0
  6 38  1  0  0  0  0
  7  8  1  0  0  0  0
  7 12  1  0  0  0  0
  7 16  1  0  0  0  0
  8 17  1  0  0  0  0
  8 18  1  0  0  0  0
  9 19  1  0  0  0  0
  9 20  1  0  0  0  0
  9 21  1  0  0  0  0
 10 22  1  0  0  0  0
 10 23  1  0  0  0  0
 10 24  1  0  0  0  0
 11 25  1  0  0  0  0
 11 26  1  0  0  0  0
 11 27  1  0  0  0  0
 13 28  1  0  0  0  0
 13 29  1  0  0  0  0
 13 30  1  0  0  0  0
 14 31  1  0  0  0  0
 14 32  1  0  0  0  0
 14 33  1  0  0  0  0
 15 34  1  0  0  0  0
 15 35  1  0  0  0  0
 15 36  1  0  0  0  0
M  END
> <PUBCHEM_COMPOUND_CID>
522373
> <PUBCHEM_COMPOUND_CANONICALIZED>
1
> <PUBCHEM_CACTVS_COMPLEXITY>
220
> <PUBCHEM_CACTVS_HBOND_ACCEPTOR>
4
> <PUBCHEM_CACTVS_HBOND_DONOR>
1
> <PUBCHEM_CACTVS_ROTATABLE_BOND>
6
> <PUBCHEM_CACTVS_SUBSKEYS>
AAADceByMAwAAAAAAAAAAAAAAAAAAAAAAAAAAAAAAAAAAAAAAAAAHhAQAEAACCjhgAZCCABAAAEIAACQCAAAAAAAAAAAAIGAAAACAAQAAAAAAAABMAAAAAAAAAAAAAAAAAAAAAAAAAAAAAAAAAAAAAAAAA==
> <PUBCHEM_IUPAC_OPENEYE_NAME>
trimethylsilyl 2-amino-3-trimethylsilyloxy-propanoate
> <PUBCHEM_IUPAC_CAS_NAME>
2-amino-3-trimethylsilyloxypropanoic acid trimethylsilyl ester
> <PUBCHEM_IUPAC_NAME_MARKUP>
trimethylsilyl 2-amino-3-trimethylsilyloxypropanoate
> <PUBCHEM_IUPAC_NAME>
trimethylsilyl 2-amino-3-trimethylsilyloxypropanoate
> <PUBCHEM_IUPAC_SYSTEMATIC_NAME>
trimethylsilyl 2-azanyl-3-trimethylsilyloxy-propanoate
> <PUBCHEM_IUPAC_TRADITIONAL_NAME>
2-amino-3-trimethylsilyloxy-propionic acid trimethylsilyl ester
> <PUBCHEM_IUPAC_INCHI>
InChI=1S/C9H23NO3Si2/c1-14(2,3)12-7-8(10)9(11)13-15(4,5)6/h8H,7,10H2,1-6H3
> <PUBCHEM_IUPAC_INCHIKEY>
MWERNBWITQOYEZ-UHFFFAOYSA-N
> <PUBCHEM_EXACT_MASS>
249.12164666
> <PUBCHEM_MOLECULAR_FORMULA>
C9H23NO3Si2
> <PUBCHEM_MOLECULAR_WEIGHT>
249.45
> <PUBCHEM_OPENEYE_CAN_SMILES>
C[Si](C)(C)OCC(C(=O)O[Si](C)(C)C)N
> <PUBCHEM_OPENEYE_ISO_SMILES>
C[Si](C)(C)OCC(C(=O)O[Si](C)(C)C)N
> <PUBCHEM_CACTVS_TPSA>
61.6
> <PUBCHEM_MONOISOTOPIC_WEIGHT>
249.12164666
> <PUBCHEM_TOTAL_CHARGE>
0
> <PUBCHEM_HEAVY_ATOM_COUNT>
15
> <PUBCHEM_ATOM_DEF_STEREO_COUNT>
0
> <PUBCHEM_ATOM_UDEF_STEREO_COUNT>
1
> <PUBCHEM_BOND_DEF_STEREO_COUNT>
0
> <PUBCHEM_BOND_UDEF_STEREO_COUNT>
0
> <PUBCHEM_ISOTOPIC_ATOM_COUNT>
0
> <PUBCHEM_COMPONENT_COUNT>
1
> <PUBCHEM_CACTVS_TAUTO_COUNT>
-1
> <PUBCHEM_COORDINATE_TYPE>
1
5
255
> <PUBCHEM_BONDANNOTATIONS>
7  6  3
$$$$
