522416
  -OEChem-10302200292D
 51 54  0     1  0  0  0  0  0999 V2000
    3.9271    1.4215    0.0000 O   0  0  0  0  0  0  0  0  0  0  0  0
    7.7820    2.1767    0.0000 O   0  0  0  0  0  0  0  0  0  0  0  0
    4.7931   -0.0785    0.0000 C   0  0  3  0  0  0  0  0  0  0  0  0
    5.6591   -0.5785    0.0000 C   0  0  3  0  0  0  0  0  0  0  0  0
    3.8831   -0.5854    0.0000 C   0  0  3  0  0  0  0  0  0  0  0  0
    6.5251   -0.0785    0.0000 C   0  0  3  0  0  0  0  0  0  0  0  0
    6.5251    0.9215    0.0000 C   0  0  3  0  0  0  0  0  0  0  0  0
    3.8751   -1.6270    0.0000 C   0  0  3  0  0  0  0  0  0  0  0  0
    4.7931    0.9215    0.0000 C   0  0  3  0  0  0  0  0  0  0  0  0
    5.6752   -1.6200    0.0000 C   0  0  0  0  0  0  0  0  0  0  0  0
    5.6591    1.4215    0.0000 C   0  0  0  0  0  0  0  0  0  0  0  0
    4.7771   -2.1478    0.0000 C   0  0  0  0  0  0  0  0  0  0  0  0
    2.9562   -0.0213    0.0000 C   0  0  0  0  0  0  0  0  0  0  0  0
    7.4714   -0.3833    0.0000 C   0  0  0  0  0  0  0  0  0  0  0  0
    2.9396   -2.1767    0.0000 C   0  0  0  0  0  0  0  0  0  0  0  0
    3.8908    0.4146    0.0000 C   0  0  0  0  0  0  0  0  0  0  0  0
    7.4714    1.2262    0.0000 C   0  0  0  0  0  0  0  0  0  0  0  0
    8.0550    0.4215    0.0000 C   0  0  0  0  0  0  0  0  0  0  0  0
    2.0084   -0.5493    0.0000 C   0  0  0  0  0  0  0  0  0  0  0  0
    2.0000   -1.6342    0.0000 C   0  0  0  0  0  0  0  0  0  0  0  0
    6.5251    1.9215    0.0000 C   0  0  0  0  0  0  0  0  0  0  0  0
    5.3300    0.2315    0.0000 H   0  0  0  0  0  0  0  0  0  0  0  0
    6.1984   -0.8844    0.0000 H   0  0  0  0  0  0  0  0  0  0  0  0
    6.5908   -0.6951    0.0000 H   0  0  0  0  0  0  0  0  0  0  0  0
    3.8774   -2.2470    0.0000 H   0  0  0  0  0  0  0  0  0  0  0  0
    4.2562    0.6115    0.0000 H   0  0  0  0  0  0  0  0  0  0  0  0
    5.8932   -2.2004    0.0000 H   0  0  0  0  0  0  0  0  0  0  0  0
    6.2843   -1.5046    0.0000 H   0  0  0  0  0  0  0  0  0  0  0  0
    6.0576    1.8964    0.0000 H   0  0  0  0  0  0  0  0  0  0  0  0
    5.2606    1.8964    0.0000 H   0  0  0  0  0  0  0  0  0  0  0  0
    4.3798   -2.6238    0.0000 H   0  0  0  0  0  0  0  0  0  0  0  0
    5.1781   -2.6207    0.0000 H   0  0  0  0  0  0  0  0  0  0  0  0
    3.3645    0.4454    0.0000 H   0  0  0  0  0  0  0  0  0  0  0  0
    2.5663    0.4607    0.0000 H   0  0  0  0  0  0  0  0  0  0  0  0
    7.2203   -0.9502    0.0000 H   0  0  0  0  0  0  0  0  0  0  0  0
    8.0087   -0.6925    0.0000 H   0  0  0  0  0  0  0  0  0  0  0  0
    2.5423   -2.6527    0.0000 H   0  0  0  0  0  0  0  0  0  0  0  0
    3.3406   -2.6496    0.0000 H   0  0  0  0  0  0  0  0  0  0  0  0
    4.5108    0.4098    0.0000 H   0  0  0  0  0  0  0  0  0  0  0  0
    3.8956    1.0346    0.0000 H   0  0  0  0  0  0  0  0  0  0  0  0
    3.2708    0.4194    0.0000 H   0  0  0  0  0  0  0  0  0  0  0  0
    8.5158    0.0067    0.0000 H   0  0  0  0  0  0  0  0  0  0  0  0
    8.5158    0.8362    0.0000 H   0  0  0  0  0  0  0  0  0  0  0  0
    1.8038    0.0360    0.0000 H   0  0  0  0  0  0  0  0  0  0  0  0
    1.3967   -0.6506    0.0000 H   0  0  0  0  0  0  0  0  0  0  0  0
    1.3900   -1.5234    0.0000 H   0  0  0  0  0  0  0  0  0  0  0  0
    1.7864   -2.2163    0.0000 H   0  0  0  0  0  0  0  0  0  0  0  0
    7.1451    1.9215    0.0000 H   0  0  0  0  0  0  0  0  0  0  0  0
    6.5251    2.5415    0.0000 H   0  0  0  0  0  0  0  0  0  0  0  0
    5.9051    1.9215    0.0000 H   0  0  0  0  0  0  0  0  0  0  0  0
    3.9271    2.0415    0.0000 H   0  0  0  0  0  0  0  0  0  0  0  0
  1  9  1  0  0  0  0
  1 51  1  0  0  0  0
  2 17  2  0  0  0  0
  3  4  1  0  0  0  0
  3  5  1  0  0  0  0
  3  9  1  0  0  0  0
  3 22  1  0  0  0  0
  4  6  1  0  0  0  0
  4 10  1  0  0  0  0
  4 23  1  0  0  0  0
  5  8  1  0  0  0  0
  5 13  1  0  0  0  0
  5 16  1  0  0  0  0
  6  7  1  0  0  0  0
  6 14  1  0  0  0  0
  6 24  1  0  0  0  0
  7 11  1  0  0  0  0
  7 17  1  0  0  0  0
  7 21  1  0  0  0  0
  8 12  1  0  0  0  0
  8 15  1  0  0  0  0
  8 25  1  0  0  0  0
  9 11  1  0  0  0  0
  9 26  1  0  0  0  0
 10 12  1  0  0  0  0
 10 27  1  0  0  0  0
 10 28  1  0  0  0  0
 11 29  1  0  0  0  0
 11 30  1  0  0  0  0
 12 31  1  0  0  0  0
 12 32  1  0  0  0  0
 13 19  1  0  0  0  0
 13 33  1  0  0  0  0
 13 34  1  0  0  0  0
 14 18  1  0  0  0  0
 14 35  1  0  0  0  0
 14 36  1  0  0  0  0
 15 20  1  0  0  0  0
 15 37  1  0  0  0  0
 15 38  1  0  0  0  0
 16 39  1  0  0  0  0
 16 40  1  0  0  0  0
 16 41  1  0  0  0  0
 17 18  1  0  0  0  0
 18 42  1  0  0  0  0
 18 43  1  0  0  0  0
 19 20  1  0  0  0  0
 19 44  1  0  0  0  0
 19 45  1  0  0  0  0
 20 46  1  0  0  0  0
 20 47  1  0  0  0  0
 21 48  1  0  0  0  0
 21 49  1  0  0  0  0
 21 50  1  0  0  0  0
M  END
> <PUBCHEM_COMPOUND_CID>
522416
> <PUBCHEM_COMPOUND_CANONICALIZED>
1
> <PUBCHEM_CACTVS_COMPLEXITY>
459
> <PUBCHEM_CACTVS_HBOND_ACCEPTOR>
2
> <PUBCHEM_CACTVS_HBOND_DONOR>
1
> <PUBCHEM_CACTVS_ROTATABLE_BOND>
0
> <PUBCHEM_CACTVS_SUBSKEYS>
AAADceB4MAAAAAAAAAAAAAAAAAAAAYAAAAAwYMAAAAAAAGDAAAAAGgAACAAADxSggAICAAAAAgAIAIAQAAAAAAAAAAAAAAEAAAAAEBIAAAAAQAAEAAAAAAGKyPCPgAAAAAAAAADAAAYAADAAAAAACAAAAA==
> <PUBCHEM_IUPAC_OPENEYE_NAME>
11-hydroxy-10,13-dimethyl-1,2,3,4,5,6,7,8,9,11,12,14,15,16-tetradecahydrocyclopenta[a]phenanthren-17-one
> <PUBCHEM_IUPAC_CAS_NAME>
11-hydroxy-10,13-dimethyl-1,2,3,4,5,6,7,8,9,11,12,14,15,16-tetradecahydrocyclopenta[a]phenanthren-17-one
> <PUBCHEM_IUPAC_NAME_MARKUP>
11-hydroxy-10,13-dimethyl-1,2,3,4,5,6,7,8,9,11,12,14,15,16-tetradecahydrocyclopenta[a]phenanthren-17-one
> <PUBCHEM_IUPAC_NAME>
11-hydroxy-10,13-dimethyl-1,2,3,4,5,6,7,8,9,11,12,14,15,16-tetradecahydrocyclopenta[a]phenanthren-17-one
> <PUBCHEM_IUPAC_SYSTEMATIC_NAME>
10,13-dimethyl-11-oxidanyl-1,2,3,4,5,6,7,8,9,11,12,14,15,16-tetradecahydrocyclopenta[a]phenanthren-17-one
> <PUBCHEM_IUPAC_TRADITIONAL_NAME>
11-hydroxy-10,13-dimethyl-1,2,3,4,5,6,7,8,9,11,12,14,15,16-tetradecahydrocyclopenta[a]phenanthren-17-one
> <PUBCHEM_IUPAC_INCHI>
InChI=1S/C19H30O2/c1-18-10-4-3-5-12(18)6-7-13-14-8-9-16(21)19(14,2)11-15(20)17(13)18/h12-15,17,20H,3-11H2,1-2H3
> <PUBCHEM_IUPAC_INCHIKEY>
GATQSSNSIBFJTG-UHFFFAOYSA-N
> <PUBCHEM_XLOGP3_AA>
4.4
> <PUBCHEM_EXACT_MASS>
290.224580195
> <PUBCHEM_MOLECULAR_FORMULA>
C19H30O2
> <PUBCHEM_MOLECULAR_WEIGHT>
290.4
> <PUBCHEM_OPENEYE_CAN_SMILES>
CC12CCCCC1CCC3C2C(CC4(C3CCC4=O)C)O
> <PUBCHEM_OPENEYE_ISO_SMILES>
CC12CCCCC1CCC3C2C(CC4(C3CCC4=O)C)O
> <PUBCHEM_CACTVS_TPSA>
37.3
> <PUBCHEM_MONOISOTOPIC_WEIGHT>
290.224580195
> <PUBCHEM_TOTAL_CHARGE>
0
> <PUBCHEM_HEAVY_ATOM_COUNT>
21
> <PUBCHEM_ATOM_DEF_STEREO_COUNT>
0
> <PUBCHEM_ATOM_UDEF_STEREO_COUNT>
7
> <PUBCHEM_BOND_DEF_STEREO_COUNT>
0
> <PUBCHEM_BOND_UDEF_STEREO_COUNT>
0
> <PUBCHEM_ISOTOPIC_ATOM_COUNT>
0
> <PUBCHEM_COMPONENT_COUNT>
1
> <PUBCHEM_CACTVS_TAUTO_COUNT>
-1
> <PUBCHEM_COORDINATE_TYPE>
1
5
255
> <PUBCHEM_BONDANNOTATIONS>
9  1  3
3  9  3
4  10  3
5  16  3
6  14  3
7  21  3
8  15  3
$$$$
