522493
  -OEChem-10302200292D
 30 31  0     1  0  0  0  0  0999 V2000
    3.0000    0.0000    0.0000 O   0  0  0  0  0  0  0  0  0  0  0  0
    4.0000    3.0000    0.0000 N   0  0  0  0  0  0  0  0  0  0  0  0
    2.0000    1.0000    0.0000 N   0  0  0  0  0  0  0  0  0  0  0  0
    7.0000    1.0000    0.0000 N   0  0  0  0  0  0  0  0  0  0  0  0
    5.0000    3.0000    0.0000 N   0  0  0  0  0  0  0  0  0  0  0  0
    4.0000   -0.0000    0.0000 C   0  0  3  0  0  0  0  0  0  0  0  0
    4.0000    1.0000    0.0000 C   0  0  0  0  0  0  0  0  0  0  0  0
    5.0000    1.0000    0.0000 C   0  0  0  0  0  0  0  0  0  0  0  0
    5.0000    0.0000    0.0000 C   0  0  0  0  0  0  0  0  0  0  0  0
    4.0000   -1.0000    0.0000 C   0  0  0  0  0  0  0  0  0  0  0  0
    4.0000    2.0000    0.0000 C   0  0  0  0  0  0  0  0  0  0  0  0
    3.0000    1.0000    0.0000 C   0  0  0  0  0  0  0  0  0  0  0  0
    6.0000    1.0000    0.0000 C   0  0  0  0  0  0  0  0  0  0  0  0
    5.0000    2.0000    0.0000 C   0  0  0  0  0  0  0  0  0  0  0  0
    3.1340   -1.5000    0.0000 C   0  0  0  0  0  0  0  0  0  0  0  0
    4.8660   -1.5000    0.0000 C   0  0  0  0  0  0  0  0  0  0  0  0
    2.5000   -0.8660    0.0000 C   0  0  0  0  0  0  0  0  0  0  0  0
    3.1340   -2.5000    0.0000 C   0  0  0  0  0  0  0  0  0  0  0  0
    4.8660   -2.5000    0.0000 C   0  0  0  0  0  0  0  0  0  0  0  0
    4.0000   -3.0000    0.0000 C   0  0  0  0  0  0  0  0  0  0  0  0
    5.0000   -0.6200    0.0000 H   0  0  0  0  0  0  0  0  0  0  0  0
    5.6200    0.0000    0.0000 H   0  0  0  0  0  0  0  0  0  0  0  0
    2.5970   -1.1900    0.0000 H   0  0  0  0  0  0  0  0  0  0  0  0
    5.4030   -1.1900    0.0000 H   0  0  0  0  0  0  0  0  0  0  0  0
    1.9631   -0.5560    0.0000 H   0  0  0  0  0  0  0  0  0  0  0  0
    2.1900   -1.4030    0.0000 H   0  0  0  0  0  0  0  0  0  0  0  0
    3.0369   -1.1760    0.0000 H   0  0  0  0  0  0  0  0  0  0  0  0
    2.5970   -2.8100    0.0000 H   0  0  0  0  0  0  0  0  0  0  0  0
    5.4030   -2.8100    0.0000 H   0  0  0  0  0  0  0  0  0  0  0  0
    4.0000   -3.6200    0.0000 H   0  0  0  0  0  0  0  0  0  0  0  0
  1  6  1  0  0  0  0
  1 17  1  0  0  0  0
  2 11  3  0  0  0  0
  3 12  3  0  0  0  0
  4 13  3  0  0  0  0
  5 14  3  0  0  0  0
  6  7  1  0  0  0  0
  6  9  1  0  0  0  0
  6 10  1  0  0  0  0
  7  8  1  0  0  0  0
  7 11  1  0  0  0  0
  7 12  1  0  0  0  0
  8  9  1  0  0  0  0
  8 13  1  0  0  0  0
  8 14  1  0  0  0  0
  9 21  1  0  0  0  0
  9 22  1  0  0  0  0
 10 15  2  0  0  0  0
 10 16  1  0  0  0  0
 15 18  1  0  0  0  0
 15 23  1  0  0  0  0
 16 19  2  0  0  0  0
 16 24  1  0  0  0  0
 17 25  1  0  0  0  0
 17 26  1  0  0  0  0
 17 27  1  0  0  0  0
 18 20  2  0  0  0  0
 18 28  1  0  0  0  0
 19 20  1  0  0  0  0
 19 29  1  0  0  0  0
 20 30  1  0  0  0  0
M  END
> <PUBCHEM_COMPOUND_CID>
522493
> <PUBCHEM_COMPOUND_CANONICALIZED>
1
> <PUBCHEM_CACTVS_COMPLEXITY>
577
> <PUBCHEM_CACTVS_HBOND_ACCEPTOR>
5
> <PUBCHEM_CACTVS_HBOND_DONOR>
0
> <PUBCHEM_CACTVS_ROTATABLE_BOND>
2
> <PUBCHEM_CACTVS_SUBSKEYS>
AAADccBzoAAAAAAAAAAAAAAAAABgAAAAAAAwAAAAAAAAAAABAAAAHgAAAAAADkSBmAIyAIAABACQBiBCAAACAAAgAAAIiAAACIgIpiKAMRiAMAAkwAEIqA+AwOAPgAAAAAAAAAAAAAAAAAAAAAAAAAAAAA==
> <PUBCHEM_IUPAC_OPENEYE_NAME>
3-methoxy-3-phenyl-cyclobutane-1,1,2,2-tetracarbonitrile
> <PUBCHEM_IUPAC_CAS_NAME>
3-methoxy-3-phenylcyclobutane-1,1,2,2-tetracarbonitrile
> <PUBCHEM_IUPAC_NAME_MARKUP>
3-methoxy-3-phenylcyclobutane-1,1,2,2-tetracarbonitrile
> <PUBCHEM_IUPAC_NAME>
3-methoxy-3-phenylcyclobutane-1,1,2,2-tetracarbonitrile
> <PUBCHEM_IUPAC_SYSTEMATIC_NAME>
3-methoxy-3-phenyl-cyclobutane-1,1,2,2-tetracarbonitrile
> <PUBCHEM_IUPAC_TRADITIONAL_NAME>
3-methoxy-3-phenyl-cyclobutane-1,1,2,2-tetracarbonitrile
> <PUBCHEM_IUPAC_INCHI>
InChI=1S/C15H10N4O/c1-20-15(12-5-3-2-4-6-12)7-13(8-16,9-17)14(15,10-18)11-19/h2-6H,7H2,1H3
> <PUBCHEM_IUPAC_INCHIKEY>
NFNVEVHERDVBKE-UHFFFAOYSA-N
> <PUBCHEM_XLOGP3_AA>
0.6
> <PUBCHEM_EXACT_MASS>
262.08546096
> <PUBCHEM_MOLECULAR_FORMULA>
C15H10N4O
> <PUBCHEM_MOLECULAR_WEIGHT>
262.27
> <PUBCHEM_OPENEYE_CAN_SMILES>
COC1(CC(C1(C#N)C#N)(C#N)C#N)C2=CC=CC=C2
> <PUBCHEM_OPENEYE_ISO_SMILES>
COC1(CC(C1(C#N)C#N)(C#N)C#N)C2=CC=CC=C2
> <PUBCHEM_CACTVS_TPSA>
104
> <PUBCHEM_MONOISOTOPIC_WEIGHT>
262.08546096
> <PUBCHEM_TOTAL_CHARGE>
0
> <PUBCHEM_HEAVY_ATOM_COUNT>
20
> <PUBCHEM_ATOM_DEF_STEREO_COUNT>
0
> <PUBCHEM_ATOM_UDEF_STEREO_COUNT>
1
> <PUBCHEM_BOND_DEF_STEREO_COUNT>
0
> <PUBCHEM_BOND_UDEF_STEREO_COUNT>
0
> <PUBCHEM_ISOTOPIC_ATOM_COUNT>
0
> <PUBCHEM_COMPONENT_COUNT>
1
> <PUBCHEM_CACTVS_TAUTO_COUNT>
-1
> <PUBCHEM_COORDINATE_TYPE>
1
5
255
> <PUBCHEM_BONDANNOTATIONS>
6  1  3
10  15  8
10  16  8
15  18  8
16  19  8
18  20  8
19  20  8
$$$$
