522448
  -OEChem-10302200292D
 19 19  0     1  0  0  0  0  0999 V2000
    2.0000   -0.9330    0.0000 O   0  0  0  0  0  0  0  0  0  0  0  0
    2.8660   -0.4330    0.0000 C   0  0  3  0  0  0  0  0  0  0  0  0
    3.3660    0.4330    0.0000 C   0  0  0  0  0  0  0  0  0  0  0  0
    2.0000    0.0670    0.0000 C   0  0  0  0  0  0  0  0  0  0  0  0
    3.3660   -1.2990    0.0000 C   0  0  0  0  0  0  0  0  0  0  0  0
    4.3660    0.4330    0.0000 C   0  0  0  0  0  0  0  0  0  0  0  0
    2.8660    1.2990    0.0000 C   0  0  0  0  0  0  0  0  0  0  0  0
    3.6760    0.9699    0.0000 H   0  0  0  0  0  0  0  0  0  0  0  0
    2.2120    0.6496    0.0000 H   0  0  0  0  0  0  0  0  0  0  0  0
    1.3894    0.1746    0.0000 H   0  0  0  0  0  0  0  0  0  0  0  0
    2.8291   -1.6090    0.0000 H   0  0  0  0  0  0  0  0  0  0  0  0
    3.6760   -1.8360    0.0000 H   0  0  0  0  0  0  0  0  0  0  0  0
    3.9030   -0.9890    0.0000 H   0  0  0  0  0  0  0  0  0  0  0  0
    4.3660   -0.1870    0.0000 H   0  0  0  0  0  0  0  0  0  0  0  0
    4.9860    0.4330    0.0000 H   0  0  0  0  0  0  0  0  0  0  0  0
    4.3660    1.0530    0.0000 H   0  0  0  0  0  0  0  0  0  0  0  0
    3.4030    1.6090    0.0000 H   0  0  0  0  0  0  0  0  0  0  0  0
    2.5560    1.8360    0.0000 H   0  0  0  0  0  0  0  0  0  0  0  0
    2.3291    0.9890    0.0000 H   0  0  0  0  0  0  0  0  0  0  0  0
  1  2  1  0  0  0  0
  1  4  1  0  0  0  0
  2  3  1  0  0  0  0
  2  4  1  0  0  0  0
  2  5  1  0  0  0  0
  3  6  1  0  0  0  0
  3  7  1  0  0  0  0
  3  8  1  0  0  0  0
  4  9  1  0  0  0  0
  4 10  1  0  0  0  0
  5 11  1  0  0  0  0
  5 12  1  0  0  0  0
  5 13  1  0  0  0  0
  6 14  1  0  0  0  0
  6 15  1  0  0  0  0
  6 16  1  0  0  0  0
  7 17  1  0  0  0  0
  7 18  1  0  0  0  0
  7 19  1  0  0  0  0
M  END
> <PUBCHEM_COMPOUND_CID>
522448
> <PUBCHEM_COMPOUND_CANONICALIZED>
1
> <PUBCHEM_CACTVS_COMPLEXITY>
78.2
> <PUBCHEM_CACTVS_HBOND_ACCEPTOR>
1
> <PUBCHEM_CACTVS_HBOND_DONOR>
0
> <PUBCHEM_CACTVS_ROTATABLE_BOND>
1
> <PUBCHEM_CACTVS_SUBSKEYS>
AAADccBgIAAAAAAAAAAAAAAAEgAAAAAAAAAAAAAAAAAAAAAAAAAAGgAAAAAADUSggAICAAAABAAAAAAAAAAAAAAAAAAAAAAAAAAAAAAAAAAAAAAEAAAAAAAAAAAIgAAAAAAAAAAAAAAAAAAAAAAAAAAAAA==
> <PUBCHEM_IUPAC_OPENEYE_NAME>
2-isopropyl-2-methyl-oxirane
> <PUBCHEM_IUPAC_CAS_NAME>
2-methyl-2-propan-2-yloxirane
> <PUBCHEM_IUPAC_NAME_MARKUP>
2-methyl-2-propan-2-yloxirane
> <PUBCHEM_IUPAC_NAME>
2-methyl-2-propan-2-yloxirane
> <PUBCHEM_IUPAC_SYSTEMATIC_NAME>
2-methyl-2-propan-2-yl-oxirane
> <PUBCHEM_IUPAC_TRADITIONAL_NAME>
2-isopropyl-2-methyl-oxirane
> <PUBCHEM_IUPAC_INCHI>
InChI=1S/C6H12O/c1-5(2)6(3)4-7-6/h5H,4H2,1-3H3
> <PUBCHEM_IUPAC_INCHIKEY>
JATXAMXFNMUGBL-UHFFFAOYSA-N
> <PUBCHEM_XLOGP3_AA>
1.4
> <PUBCHEM_EXACT_MASS>
100.088815002
> <PUBCHEM_MOLECULAR_FORMULA>
C6H12O
> <PUBCHEM_MOLECULAR_WEIGHT>
100.16
> <PUBCHEM_OPENEYE_CAN_SMILES>
CC(C)C1(CO1)C
> <PUBCHEM_OPENEYE_ISO_SMILES>
CC(C)C1(CO1)C
> <PUBCHEM_CACTVS_TPSA>
12.5
> <PUBCHEM_MONOISOTOPIC_WEIGHT>
100.088815002
> <PUBCHEM_TOTAL_CHARGE>
0
> <PUBCHEM_HEAVY_ATOM_COUNT>
7
> <PUBCHEM_ATOM_DEF_STEREO_COUNT>
0
> <PUBCHEM_ATOM_UDEF_STEREO_COUNT>
1
> <PUBCHEM_BOND_DEF_STEREO_COUNT>
0
> <PUBCHEM_BOND_UDEF_STEREO_COUNT>
0
> <PUBCHEM_ISOTOPIC_ATOM_COUNT>
0
> <PUBCHEM_COMPONENT_COUNT>
1
> <PUBCHEM_CACTVS_TAUTO_COUNT>
1
> <PUBCHEM_COORDINATE_TYPE>
1
5
255
> <PUBCHEM_BONDANNOTATIONS>
2  5  3
$$$$
