522417
  -OEChem-10302200292D
 30 29  0     1  0  0  0  0  0999 V2000
    2.5369   -0.8660    0.0000 O   0  0  0  0  0  0  0  0  0  0  0  0
    5.1350   -1.3660    0.0000 O   0  0  0  0  0  0  0  0  0  0  0  0
    6.8671   -0.3660    0.0000 C   0  0  0  0  0  0  0  0  0  0  0  0
    3.4030   -0.3660    0.0000 C   0  0  3  0  0  0  0  0  0  0  0  0
    6.0010    0.1340    0.0000 C   0  0  0  0  0  0  0  0  0  0  0  0
    4.2690    0.1340    0.0000 C   0  0  0  0  0  0  0  0  0  0  0  0
    5.1350   -0.3660    0.0000 C   0  0  0  0  0  0  0  0  0  0  0  0
    7.7331    0.1340    0.0000 C   0  0  0  0  0  0  0  0  0  0  0  0
    6.8671   -1.3660    0.0000 C   0  0  0  0  0  0  0  0  0  0  0  0
    3.9030   -1.2320    0.0000 C   0  0  0  0  0  0  0  0  0  0  0  0
    2.9030    0.5000    0.0000 C   0  0  0  0  0  0  0  0  0  0  0  0
    3.4030    1.3660    0.0000 C   0  0  0  0  0  0  0  0  0  0  0  0
    6.3301   -0.6760    0.0000 H   0  0  0  0  0  0  0  0  0  0  0  0
    6.3996    0.6089    0.0000 H   0  0  0  0  0  0  0  0  0  0  0  0
    5.6025    0.6089    0.0000 H   0  0  0  0  0  0  0  0  0  0  0  0
    4.6675    0.6089    0.0000 H   0  0  0  0  0  0  0  0  0  0  0  0
    3.8705    0.6089    0.0000 H   0  0  0  0  0  0  0  0  0  0  0  0
    8.0431   -0.4030    0.0000 H   0  0  0  0  0  0  0  0  0  0  0  0
    8.2700    0.4440    0.0000 H   0  0  0  0  0  0  0  0  0  0  0  0
    7.4231    0.6709    0.0000 H   0  0  0  0  0  0  0  0  0  0  0  0
    6.2471   -1.3660    0.0000 H   0  0  0  0  0  0  0  0  0  0  0  0
    6.8671   -1.9860    0.0000 H   0  0  0  0  0  0  0  0  0  0  0  0
    7.4871   -1.3660    0.0000 H   0  0  0  0  0  0  0  0  0  0  0  0
    3.3660   -1.5420    0.0000 H   0  0  0  0  0  0  0  0  0  0  0  0
    4.2130   -1.7690    0.0000 H   0  0  0  0  0  0  0  0  0  0  0  0
    4.4399   -0.9221    0.0000 H   0  0  0  0  0  0  0  0  0  0  0  0
    2.2830    0.5000    0.0000 H   0  0  0  0  0  0  0  0  0  0  0  0
    2.0000   -0.5560    0.0000 H   0  0  0  0  0  0  0  0  0  0  0  0
    4.0230    1.3660    0.0000 H   0  0  0  0  0  0  0  0  0  0  0  0
    3.0930    1.9030    0.0000 H   0  0  0  0  0  0  0  0  0  0  0  0
  1  4  1  0  0  0  0
  1 28  1  0  0  0  0
  2  7  2  0  0  0  0
  3  5  1  0  0  0  0
  3  8  1  0  0  0  0
  3  9  1  0  0  0  0
  3 13  1  0  0  0  0
  4  6  1  0  0  0  0
  4 10  1  0  0  0  0
  4 11  1  0  0  0  0
  5  7  1  0  0  0  0
  5 14  1  0  0  0  0
  5 15  1  0  0  0  0
  6  7  1  0  0  0  0
  6 16  1  0  0  0  0
  6 17  1  0  0  0  0
  8 18  1  0  0  0  0
  8 19  1  0  0  0  0
  8 20  1  0  0  0  0
  9 21  1  0  0  0  0
  9 22  1  0  0  0  0
  9 23  1  0  0  0  0
 10 24  1  0  0  0  0
 10 25  1  0  0  0  0
 10 26  1  0  0  0  0
 11 12  2  0  0  0  0
 11 27  1  0  0  0  0
 12 29  1  0  0  0  0
 12 30  1  0  0  0  0
M  END
> <PUBCHEM_COMPOUND_CID>
522417
> <PUBCHEM_COMPOUND_CANONICALIZED>
1
> <PUBCHEM_CACTVS_COMPLEXITY>
173
> <PUBCHEM_CACTVS_HBOND_ACCEPTOR>
2
> <PUBCHEM_CACTVS_HBOND_DONOR>
1
> <PUBCHEM_CACTVS_ROTATABLE_BOND>
5
> <PUBCHEM_CACTVS_SUBSKEYS>
AAADceBwMAAAAAAAAAAAAAAAAAAAAAAAAAAAAAAAAAAAAAAAAAAAGgAACAAADUSAgAACAAAAAgCIAKBSAAAAAAAgAAAIAAEAAAgABBYAAAAAQAAEoAAAEAGAwFAMAAAAAAAAAAAAAAAAAAAAAAAAAAAAAA==
> <PUBCHEM_IUPAC_OPENEYE_NAME>
6-hydroxy-2,6-dimethyl-oct-7-en-4-one
> <PUBCHEM_IUPAC_CAS_NAME>
6-hydroxy-2,6-dimethyl-7-octen-4-one
> <PUBCHEM_IUPAC_NAME_MARKUP>
6-hydroxy-2,6-dimethyloct-7-en-4-one
> <PUBCHEM_IUPAC_NAME>
6-hydroxy-2,6-dimethyloct-7-en-4-one
> <PUBCHEM_IUPAC_SYSTEMATIC_NAME>
2,6-dimethyl-6-oxidanyl-oct-7-en-4-one
> <PUBCHEM_IUPAC_TRADITIONAL_NAME>
6-hydroxy-2,6-dimethyl-oct-7-en-4-one
> <PUBCHEM_IUPAC_INCHI>
InChI=1S/C10H18O2/c1-5-10(4,12)7-9(11)6-8(2)3/h5,8,12H,1,6-7H2,2-4H3
> <PUBCHEM_IUPAC_INCHIKEY>
HPKAJXIDKBSLHJ-UHFFFAOYSA-N
> <PUBCHEM_XLOGP3_AA>
1.3
> <PUBCHEM_EXACT_MASS>
170.130679813
> <PUBCHEM_MOLECULAR_FORMULA>
C10H18O2
> <PUBCHEM_MOLECULAR_WEIGHT>
170.25
> <PUBCHEM_OPENEYE_CAN_SMILES>
CC(C)CC(=O)CC(C)(C=C)O
> <PUBCHEM_OPENEYE_ISO_SMILES>
CC(C)CC(=O)CC(C)(C=C)O
> <PUBCHEM_CACTVS_TPSA>
37.3
> <PUBCHEM_MONOISOTOPIC_WEIGHT>
170.130679813
> <PUBCHEM_TOTAL_CHARGE>
0
> <PUBCHEM_HEAVY_ATOM_COUNT>
12
> <PUBCHEM_ATOM_DEF_STEREO_COUNT>
0
> <PUBCHEM_ATOM_UDEF_STEREO_COUNT>
1
> <PUBCHEM_BOND_DEF_STEREO_COUNT>
0
> <PUBCHEM_BOND_UDEF_STEREO_COUNT>
0
> <PUBCHEM_ISOTOPIC_ATOM_COUNT>
0
> <PUBCHEM_COMPONENT_COUNT>
1
> <PUBCHEM_CACTVS_TAUTO_COUNT>
-1
> <PUBCHEM_COORDINATE_TYPE>
1
5
255
> <PUBCHEM_BONDANNOTATIONS>
4  1  3
$$$$
