522450
  -OEChem-10302200292D
 21 21  0     1  0  0  0  0  0999 V2000
    4.8660   -0.8660    0.0000 O   0  0  0  0  0  0  0  0  0  0  0  0
    4.8660    0.8660    0.0000 O   0  0  0  0  0  0  0  0  0  0  0  0
    2.5000   -0.5000    0.0000 C   0  0  3  0  0  0  0  0  0  0  0  0
    2.5000    0.5000    0.0000 C   0  0  3  0  0  0  0  0  0  0  0  0
    3.3660    0.0000    0.0000 C   0  0  0  0  0  0  0  0  0  0  0  0
    2.0000   -1.3660    0.0000 C   0  0  0  0  0  0  0  0  0  0  0  0
    2.0000    1.3660    0.0000 C   0  0  0  0  0  0  0  0  0  0  0  0
    4.3660    0.0000    0.0000 C   0  0  0  0  0  0  0  0  0  0  0  0
    5.8660   -0.8660    0.0000 C   0  0  0  0  0  0  0  0  0  0  0  0
    1.9011   -0.3395    0.0000 H   0  0  0  0  0  0  0  0  0  0  0  0
    1.9011    0.3395    0.0000 H   0  0  0  0  0  0  0  0  0  0  0  0
    3.5265    0.5989    0.0000 H   0  0  0  0  0  0  0  0  0  0  0  0
    1.4631   -1.0560    0.0000 H   0  0  0  0  0  0  0  0  0  0  0  0
    1.6900   -1.9030    0.0000 H   0  0  0  0  0  0  0  0  0  0  0  0
    2.5369   -1.6760    0.0000 H   0  0  0  0  0  0  0  0  0  0  0  0
    2.5369    1.6760    0.0000 H   0  0  0  0  0  0  0  0  0  0  0  0
    1.6900    1.9030    0.0000 H   0  0  0  0  0  0  0  0  0  0  0  0
    1.4631    1.0560    0.0000 H   0  0  0  0  0  0  0  0  0  0  0  0
    5.8660   -1.4860    0.0000 H   0  0  0  0  0  0  0  0  0  0  0  0
    6.4860   -0.8660    0.0000 H   0  0  0  0  0  0  0  0  0  0  0  0
    5.8660   -0.2460    0.0000 H   0  0  0  0  0  0  0  0  0  0  0  0
  1  8  1  0  0  0  0
  1  9  1  0  0  0  0
  2  8  2  0  0  0  0
  3  4  1  0  0  0  0
  3  5  1  0  0  0  0
  3  6  1  0  0  0  0
  3 10  1  0  0  0  0
  4  5  1  0  0  0  0
  4  7  1  0  0  0  0
  4 11  1  0  0  0  0
  5  8  1  0  0  0  0
  5 12  1  0  0  0  0
  6 13  1  0  0  0  0
  6 14  1  0  0  0  0
  6 15  1  0  0  0  0
  7 16  1  0  0  0  0
  7 17  1  0  0  0  0
  7 18  1  0  0  0  0
  9 19  1  0  0  0  0
  9 20  1  0  0  0  0
  9 21  1  0  0  0  0
M  END
> <PUBCHEM_COMPOUND_CID>
522450
> <PUBCHEM_COMPOUND_CANONICALIZED>
1
> <PUBCHEM_CACTVS_COMPLEXITY>
123
> <PUBCHEM_CACTVS_HBOND_ACCEPTOR>
2
> <PUBCHEM_CACTVS_HBOND_DONOR>
0
> <PUBCHEM_CACTVS_ROTATABLE_BOND>
2
> <PUBCHEM_CACTVS_SUBSKEYS>
AAADccBgMAAAAAAAAAAAAAAAGAAAAAAAAAAAAAAAAAAAAAAAAAAAGgAAAAAADQCAgAICCAAABAAIAACQCAAAAAAAAAAAAAEAAAAAABIAAAAAAAAEAAAAAACIAAAKAAAAAAAAAAAAAAAAAAAAAAAAAAAAAA==
> <PUBCHEM_IUPAC_OPENEYE_NAME>
methyl 2,3-dimethylcyclopropanecarboxylate
> <PUBCHEM_IUPAC_CAS_NAME>
2,3-dimethyl-1-cyclopropanecarboxylic acid methyl ester
> <PUBCHEM_IUPAC_NAME_MARKUP>
methyl 2,3-dimethylcyclopropane-1-carboxylate
> <PUBCHEM_IUPAC_NAME>
methyl 2,3-dimethylcyclopropane-1-carboxylate
> <PUBCHEM_IUPAC_SYSTEMATIC_NAME>
methyl 2,3-dimethylcyclopropane-1-carboxylate
> <PUBCHEM_IUPAC_TRADITIONAL_NAME>
2,3-dimethylcyclopropanecarboxylic acid methyl ester
> <PUBCHEM_IUPAC_INCHI>
InChI=1S/C7H12O2/c1-4-5(2)6(4)7(8)9-3/h4-6H,1-3H3
> <PUBCHEM_IUPAC_INCHIKEY>
KQVXZDVLCHFJMZ-UHFFFAOYSA-N
> <PUBCHEM_XLOGP3_AA>
1.4
> <PUBCHEM_EXACT_MASS>
128.083729621
> <PUBCHEM_MOLECULAR_FORMULA>
C7H12O2
> <PUBCHEM_MOLECULAR_WEIGHT>
128.17
> <PUBCHEM_OPENEYE_CAN_SMILES>
CC1C(C1C(=O)OC)C
> <PUBCHEM_OPENEYE_ISO_SMILES>
CC1C(C1C(=O)OC)C
> <PUBCHEM_CACTVS_TPSA>
26.3
> <PUBCHEM_MONOISOTOPIC_WEIGHT>
128.083729621
> <PUBCHEM_TOTAL_CHARGE>
0
> <PUBCHEM_HEAVY_ATOM_COUNT>
9
> <PUBCHEM_ATOM_DEF_STEREO_COUNT>
0
> <PUBCHEM_ATOM_UDEF_STEREO_COUNT>
2
> <PUBCHEM_BOND_DEF_STEREO_COUNT>
0
> <PUBCHEM_BOND_UDEF_STEREO_COUNT>
0
> <PUBCHEM_ISOTOPIC_ATOM_COUNT>
0
> <PUBCHEM_COMPONENT_COUNT>
1
> <PUBCHEM_CACTVS_TAUTO_COUNT>
-1
> <PUBCHEM_COORDINATE_TYPE>
1
5
255
> <PUBCHEM_BONDANNOTATIONS>
3  6  3
4  7  3
$$$$
