522523
  -OEChem-10302200292D
 49 51  0     1  0  0  0  0  0999 V2000
    3.6594    0.7945    0.0000 O   0  0  0  0  0  0  0  0  0  0  0  0
    5.9006   -0.0374    0.0000 O   0  0  0  0  0  0  0  0  0  0  0  0
    6.1077   -2.6106    0.0000 O   0  0  0  0  0  0  0  0  0  0  0  0
    4.4346   -0.6446    0.0000 O   0  0  0  0  0  0  0  0  0  0  0  0
    2.0000    0.9033    0.0000 O   0  0  0  0  0  0  0  0  0  0  0  0
    4.5254    2.2945    0.0000 N   0  0  3  0  0  0  0  0  0  0  0  0
    4.3162    3.2663    0.0000 C   0  0  3  0  0  0  0  0  0  0  0  0
    3.3275    3.3694    0.0000 C   0  0  0  0  0  0  0  0  0  0  0  0
    3.6594    1.7945    0.0000 C   0  0  3  0  0  0  0  0  0  0  0  0
    2.9224    2.4616    0.0000 C   0  0  0  0  0  0  0  0  0  0  0  0
    3.8118    2.3934    0.0000 C   0  0  0  0  0  0  0  0  0  0  0  0
    5.3914    1.7945    0.0000 C   0  0  0  0  0  0  0  0  0  0  0  0
    4.4065    1.5794    0.0000 C   0  0  0  0  0  0  0  0  0  0  0  0
    5.3914    0.7945    0.0000 C   0  0  0  0  0  0  0  0  0  0  0  0
    4.5345   -2.4035    0.0000 C   0  0  3  0  0  0  0  0  0  0  0  0
    5.4006   -1.9035    0.0000 C   0  0  3  0  0  0  0  0  0  0  0  0
    4.0345   -1.5374    0.0000 C   0  0  0  0  0  0  0  0  0  0  0  0
    5.4006   -0.9035    0.0000 C   0  0  0  0  0  0  0  0  0  0  0  0
    2.7934    0.2945    0.0000 C   0  0  0  0  0  0  0  0  0  0  0  0
    3.0345   -1.5374    0.0000 C   0  0  0  0  0  0  0  0  0  0  0  0
    4.2757   -3.3694    0.0000 C   0  0  0  0  0  0  0  0  0  0  0  0
    6.3665   -1.6446    0.0000 C   0  0  0  0  0  0  0  0  0  0  0  0
    2.5345   -0.6714    0.0000 C   0  0  0  0  0  0  0  0  0  0  0  0
    2.5345   -2.4035    0.0000 C   0  0  0  0  0  0  0  0  0  0  0  0
    4.7303    3.7278    0.0000 H   0  0  0  0  0  0  0  0  0  0  0  0
    3.4562    3.9759    0.0000 H   0  0  0  0  0  0  0  0  0  0  0  0
    2.7379    3.5612    0.0000 H   0  0  0  0  0  0  0  0  0  0  0  0
    3.0926    1.5431    0.0000 H   0  0  0  0  0  0  0  0  0  0  0  0
    2.3859    2.7724    0.0000 H   0  0  0  0  0  0  0  0  0  0  0  0
    2.5569    1.9608    0.0000 H   0  0  0  0  0  0  0  0  0  0  0  0
    3.3230    2.7748    0.0000 H   0  0  0  0  0  0  0  0  0  0  0  0
    3.3665    1.9620    0.0000 H   0  0  0  0  0  0  0  0  0  0  0  0
    4.1867    0.9997    0.0000 H   0  0  0  0  0  0  0  0  0  0  0  0
    4.8070    1.0016    0.0000 H   0  0  0  0  0  0  0  0  0  0  0  0
    5.9882    0.9626    0.0000 H   0  0  0  0  0  0  0  0  0  0  0  0
    5.0264   -2.7809    0.0000 H   0  0  0  0  0  0  0  0  0  0  0  0
    4.6171   -1.3254    0.0000 H   0  0  0  0  0  0  0  0  0  0  0  0
    3.9269   -0.9269    0.0000 H   0  0  0  0  0  0  0  0  0  0  0  0
    3.6768   -3.2089    0.0000 H   0  0  0  0  0  0  0  0  0  0  0  0
    4.1152   -3.9683    0.0000 H   0  0  0  0  0  0  0  0  0  0  0  0
    4.8746   -3.5298    0.0000 H   0  0  0  0  0  0  0  0  0  0  0  0
    6.5270   -2.2435    0.0000 H   0  0  0  0  0  0  0  0  0  0  0  0
    6.9654   -1.4842    0.0000 H   0  0  0  0  0  0  0  0  0  0  0  0
    6.2060   -1.0458    0.0000 H   0  0  0  0  0  0  0  0  0  0  0  0
    1.9198   -0.7523    0.0000 H   0  0  0  0  0  0  0  0  0  0  0  0
    5.9472   -3.2094    0.0000 H   0  0  0  0  0  0  0  0  0  0  0  0
    1.9976   -2.0935    0.0000 H   0  0  0  0  0  0  0  0  0  0  0  0
    2.2245   -2.9404    0.0000 H   0  0  0  0  0  0  0  0  0  0  0  0
    3.0715   -2.7135    0.0000 H   0  0  0  0  0  0  0  0  0  0  0  0
  1  9  1  0  0  0  0
  1 19  1  0  0  0  0
  2 14  1  0  0  0  0
  2 18  1  0  0  0  0
  3 16  1  0  0  0  0
  3 46  1  0  0  0  0
  4 18  2  0  0  0  0
  5 19  2  0  0  0  0
  6  7  1  0  0  0  0
  6  9  1  0  0  0  0
  6 12  1  0  0  0  0
  7  8  1  0  0  0  0
  7 11  1  0  0  0  0
  7 25  1  0  0  0  0
  8 10  1  0  0  0  0
  8 26  1  0  0  0  0
  8 27  1  0  0  0  0
  9 10  1  0  0  0  0
  9 28  1  0  0  0  0
 10 29  1  0  0  0  0
 10 30  1  0  0  0  0
 11 13  1  0  0  0  0
 11 31  1  0  0  0  0
 11 32  1  0  0  0  0
 12 13  2  0  0  0  0
 12 14  1  0  0  0  0
 13 33  1  0  0  0  0
 14 34  1  0  0  0  0
 14 35  1  0  0  0  0
 15 16  1  0  0  0  0
 15 17  1  0  0  0  0
 15 21  1  0  0  0  0
 15 36  1  0  0  0  0
 16 18  1  0  0  0  0
 16 22  1  0  0  0  0
 17 20  1  0  0  0  0
 17 37  1  0  0  0  0
 17 38  1  0  0  0  0
 19 23  1  0  0  0  0
 20 23  2  3  0  0  0
 20 24  1  0  0  0  0
 21 39  1  0  0  0  0
 21 40  1  0  0  0  0
 21 41  1  0  0  0  0
 22 42  1  0  0  0  0
 22 43  1  0  0  0  0
 22 44  1  0  0  0  0
 23 45  1  0  0  0  0
 24 47  1  0  0  0  0
 24 48  1  0  0  0  0
 24 49  1  0  0  0  0
M  END
> <PUBCHEM_COMPOUND_CID>
522523
> <PUBCHEM_COMPOUND_CANONICALIZED>
1
> <PUBCHEM_CACTVS_COMPLEXITY>
611
> <PUBCHEM_CACTVS_HBOND_ACCEPTOR>
6
> <PUBCHEM_CACTVS_HBOND_DONOR>
1
> <PUBCHEM_CACTVS_ROTATABLE_BOND>
0
> <PUBCHEM_CACTVS_SUBSKEYS>
AAADceB6OAAAAAAAAAAAAAAAAAAAAWIAAAAAAAAAAAAQAAAAAAAAHgAACAAADWzhgAYCCAMABgCIAiTSSAIAAAAgAgAACAFIAEgDBBIAoQAPUAAEgACbIQO4SAAOgAAAAAAAAAAAAAAAAAAAAAAAAAAAAA==
> <PUBCHEM_IUPAC_OPENEYE_NAME>
8-hydroxy-5,7,8-trimethyl-2,10-dioxa-18-azatricyclo[10.5.1.015,18]octadeca-4,12-diene-3,9-dione
> <PUBCHEM_IUPAC_CAS_NAME>
8-hydroxy-5,7,8-trimethyl-2,10-dioxa-18-azatricyclo[10.5.1.015,18]octadeca-4,12-diene-3,9-dione
> <PUBCHEM_IUPAC_NAME_MARKUP>
8-hydroxy-5,7,8-trimethyl-2,10-dioxa-18-azatricyclo[10.5.1.0<SUP>15,18</SUP>]octadeca-4,12-diene-3,9-dione
> <PUBCHEM_IUPAC_NAME>
8-hydroxy-5,7,8-trimethyl-2,10-dioxa-18-azatricyclo[10.5.1.015,18]octadeca-4,12-diene-3,9-dione
> <PUBCHEM_IUPAC_SYSTEMATIC_NAME>
5,7,8-trimethyl-8-oxidanyl-2,10-dioxa-18-azatricyclo[10.5.1.015,18]octadeca-4,12-diene-3,9-dione
> <PUBCHEM_IUPAC_TRADITIONAL_NAME>
8-hydroxy-5,7,8-trimethyl-2,10-dioxa-18-azatricyclo[10.5.1.015,18]octadeca-4,12-diene-3,9-quinone
> <PUBCHEM_IUPAC_INCHI>
InChI=1S/C18H25NO5/c1-11-8-12(2)18(3,22)17(21)23-10-14-5-4-13-6-7-15(19(13)14)24-16(20)9-11/h5,9,12-13,15,22H,4,6-8,10H2,1-3H3
> <PUBCHEM_IUPAC_INCHIKEY>
SBROHHBIDHUOIN-UHFFFAOYSA-N
> <PUBCHEM_XLOGP3_AA>
2.1
> <PUBCHEM_EXACT_MASS>
335.17327290
> <PUBCHEM_MOLECULAR_FORMULA>
C18H25NO5
> <PUBCHEM_MOLECULAR_WEIGHT>
335.4
> <PUBCHEM_OPENEYE_CAN_SMILES>
CC1CC(=CC(=O)OC2CCC3N2C(=CC3)COC(=O)C1(C)O)C
> <PUBCHEM_OPENEYE_ISO_SMILES>
CC1CC(=CC(=O)OC2CCC3N2C(=CC3)COC(=O)C1(C)O)C
> <PUBCHEM_CACTVS_TPSA>
76.1
> <PUBCHEM_MONOISOTOPIC_WEIGHT>
335.17327290
> <PUBCHEM_TOTAL_CHARGE>
0
> <PUBCHEM_HEAVY_ATOM_COUNT>
24
> <PUBCHEM_ATOM_DEF_STEREO_COUNT>
0
> <PUBCHEM_ATOM_UDEF_STEREO_COUNT>
4
> <PUBCHEM_BOND_DEF_STEREO_COUNT>
0
> <PUBCHEM_BOND_UDEF_STEREO_COUNT>
1
> <PUBCHEM_ISOTOPIC_ATOM_COUNT>
0
> <PUBCHEM_COMPONENT_COUNT>
1
> <PUBCHEM_CACTVS_TAUTO_COUNT>
-1
> <PUBCHEM_COORDINATE_TYPE>
1
5
255
> <PUBCHEM_BONDANNOTATIONS>
15  21  3
20  23  1
16  3  3
7  8  3
9  10  3
$$$$
