522541
  -OEChem-10302200292D
 33 34  0     1  0  0  0  0  0999 V2000
    4.6660   -1.0000    0.0000 O   0  0  0  0  0  0  0  0  0  0  0  0
    4.6660    1.0000    0.0000 O   0  0  0  0  0  0  0  0  0  0  0  0
   10.7282   -0.5000    0.0000 O   0  0  0  0  0  0  0  0  0  0  0  0
    7.2641   -0.5000    0.0000 N   0  0  0  0  0  0  0  0  0  0  0  0
    5.5321   -0.5000    0.0000 C   0  0  3  0  0  0  0  0  0  0  0  0
    6.3981   -1.0000    0.0000 C   0  0  0  0  0  0  0  0  0  0  0  0
    5.5321    0.5000    0.0000 C   0  0  0  0  0  0  0  0  0  0  0  0
    8.1301   -1.0000    0.0000 C   0  0  0  0  0  0  0  0  0  0  0  0
    3.8000   -0.5000    0.0000 C   0  0  0  0  0  0  0  0  0  0  0  0
    8.9962   -0.5000    0.0000 C   0  0  0  0  0  0  0  0  0  0  0  0
    3.8000    0.5000    0.0000 C   0  0  0  0  0  0  0  0  0  0  0  0
    2.9061   -1.0347    0.0000 C   0  0  0  0  0  0  0  0  0  0  0  0
    9.8622   -1.0000    0.0000 C   0  0  0  0  0  0  0  0  0  0  0  0
    2.9061    1.0347    0.0000 C   0  0  0  0  0  0  0  0  0  0  0  0
    2.0000   -0.5208    0.0000 C   0  0  0  0  0  0  0  0  0  0  0  0
    2.0000    0.5208    0.0000 C   0  0  0  0  0  0  0  0  0  0  0  0
    5.5321   -1.1200    0.0000 H   0  0  0  0  0  0  0  0  0  0  0  0
    5.9996   -1.4750    0.0000 H   0  0  0  0  0  0  0  0  0  0  0  0
    6.7966   -1.4750    0.0000 H   0  0  0  0  0  0  0  0  0  0  0  0
    6.1426    0.3923    0.0000 H   0  0  0  0  0  0  0  0  0  0  0  0
    5.7441    1.0826    0.0000 H   0  0  0  0  0  0  0  0  0  0  0  0
    7.2641    0.1200    0.0000 H   0  0  0  0  0  0  0  0  0  0  0  0
    7.7316   -1.4750    0.0000 H   0  0  0  0  0  0  0  0  0  0  0  0
    8.5287   -1.4750    0.0000 H   0  0  0  0  0  0  0  0  0  0  0  0
    9.3947   -0.0251    0.0000 H   0  0  0  0  0  0  0  0  0  0  0  0
    8.5976   -0.0251    0.0000 H   0  0  0  0  0  0  0  0  0  0  0  0
    9.4637   -1.4750    0.0000 H   0  0  0  0  0  0  0  0  0  0  0  0
   10.2607   -1.4750    0.0000 H   0  0  0  0  0  0  0  0  0  0  0  0
    2.9132   -1.6546    0.0000 H   0  0  0  0  0  0  0  0  0  0  0  0
    2.9132    1.6546    0.0000 H   0  0  0  0  0  0  0  0  0  0  0  0
    1.4643   -0.8329    0.0000 H   0  0  0  0  0  0  0  0  0  0  0  0
    1.4643    0.8329    0.0000 H   0  0  0  0  0  0  0  0  0  0  0  0
   11.2651   -0.8100    0.0000 H   0  0  0  0  0  0  0  0  0  0  0  0
  1  5  1  0  0  0  0
  1  9  1  0  0  0  0
  2  7  1  0  0  0  0
  2 11  1  0  0  0  0
  3 13  1  0  0  0  0
  3 33  1  0  0  0  0
  4  6  1  0  0  0  0
  4  8  1  0  0  0  0
  4 22  1  0  0  0  0
  5  6  1  0  0  0  0
  5  7  1  0  0  0  0
  5 17  1  0  0  0  0
  6 18  1  0  0  0  0
  6 19  1  0  0  0  0
  7 20  1  0  0  0  0
  7 21  1  0  0  0  0
  8 10  1  0  0  0  0
  8 23  1  0  0  0  0
  8 24  1  0  0  0  0
  9 11  1  0  0  0  0
  9 12  2  0  0  0  0
 10 13  1  0  0  0  0
 10 25  1  0  0  0  0
 10 26  1  0  0  0  0
 11 14  2  0  0  0  0
 12 15  1  0  0  0  0
 12 29  1  0  0  0  0
 13 27  1  0  0  0  0
 13 28  1  0  0  0  0
 14 16  1  0  0  0  0
 14 30  1  0  0  0  0
 15 16  2  0  0  0  0
 15 31  1  0  0  0  0
 16 32  1  0  0  0  0
M  END
> <PUBCHEM_COMPOUND_CID>
522541
> <PUBCHEM_COMPOUND_CANONICALIZED>
1
> <PUBCHEM_CACTVS_COMPLEXITY>
201
> <PUBCHEM_CACTVS_HBOND_ACCEPTOR>
4
> <PUBCHEM_CACTVS_HBOND_DONOR>
2
> <PUBCHEM_CACTVS_ROTATABLE_BOND>
5
> <PUBCHEM_CACTVS_SUBSKEYS>
AAADceByMAAAAAAAAAAAAAAAAAAAAAAAAAA0QAAAAAAAAACRAAAAHgAQCAAACBThkAYwBoLABgCAACBCAAACCAAgIAAIiIAOiIgPNiKEMRqHeCKm0BGaqAeAQAAAAAAAAAAAQAAAAAAAAACAAAAAAAAAAA==
> <PUBCHEM_IUPAC_OPENEYE_NAME>
3-(2,3-dihydro-1,4-benzodioxin-3-ylmethylamino)propan-1-ol
> <PUBCHEM_IUPAC_CAS_NAME>
3-(2,3-dihydro-1,4-benzodioxin-3-ylmethylamino)-1-propanol
> <PUBCHEM_IUPAC_NAME_MARKUP>
3-(2,3-dihydro-1,4-benzodioxin-3-ylmethylamino)propan-1-ol
> <PUBCHEM_IUPAC_NAME>
3-(2,3-dihydro-1,4-benzodioxin-3-ylmethylamino)propan-1-ol
> <PUBCHEM_IUPAC_SYSTEMATIC_NAME>
3-(2,3-dihydro-1,4-benzodioxin-3-ylmethylamino)propan-1-ol
> <PUBCHEM_IUPAC_TRADITIONAL_NAME>
3-(2,3-dihydro-1,4-benzodioxin-3-ylmethylamino)propan-1-ol
> <PUBCHEM_IUPAC_INCHI>
InChI=1S/C12H17NO3/c14-7-3-6-13-8-10-9-15-11-4-1-2-5-12(11)16-10/h1-2,4-5,10,13-14H,3,6-9H2
> <PUBCHEM_IUPAC_INCHIKEY>
HCSGAGXOCHYBLF-UHFFFAOYSA-N
> <PUBCHEM_XLOGP3_AA>
0.9
> <PUBCHEM_EXACT_MASS>
223.12084340
> <PUBCHEM_MOLECULAR_FORMULA>
C12H17NO3
> <PUBCHEM_MOLECULAR_WEIGHT>
223.27
> <PUBCHEM_OPENEYE_CAN_SMILES>
C1C(OC2=CC=CC=C2O1)CNCCCO
> <PUBCHEM_OPENEYE_ISO_SMILES>
C1C(OC2=CC=CC=C2O1)CNCCCO
> <PUBCHEM_CACTVS_TPSA>
50.7
> <PUBCHEM_MONOISOTOPIC_WEIGHT>
223.12084340
> <PUBCHEM_TOTAL_CHARGE>
0
> <PUBCHEM_HEAVY_ATOM_COUNT>
16
> <PUBCHEM_ATOM_DEF_STEREO_COUNT>
0
> <PUBCHEM_ATOM_UDEF_STEREO_COUNT>
1
> <PUBCHEM_BOND_DEF_STEREO_COUNT>
0
> <PUBCHEM_BOND_UDEF_STEREO_COUNT>
0
> <PUBCHEM_ISOTOPIC_ATOM_COUNT>
0
> <PUBCHEM_COMPONENT_COUNT>
1
> <PUBCHEM_CACTVS_TAUTO_COUNT>
-1
> <PUBCHEM_COORDINATE_TYPE>
1
5
255
> <PUBCHEM_BONDANNOTATIONS>
11  14  8
12  15  8
14  16  8
15  16  8
5  6  3
9  11  8
9  12  8
$$$$
