522501
  -OEChem-10302200292D
 41 41  0     1  0  0  0  0  0999 V2000
    6.4053   -0.7950    0.0000 Si  0  0  0  0  0  0  0  0  0  0  0  0
    2.9511    0.8439    0.0000 Si  0  0  0  0  0  0  0  0  0  0  0  0
    3.9021    1.1529    0.0000 O   0  0  0  0  0  0  0  0  0  0  0  0
    4.4374   -0.4943    0.0000 O   0  0  0  0  0  0  0  0  0  0  0  0
    6.4053    0.2050    0.0000 N   0  0  3  0  0  0  0  0  0  0  0  0
    5.5963    0.7928    0.0000 C   0  0  3  0  0  0  0  0  0  0  0  0
    7.2144    0.7928    0.0000 C   0  0  0  0  0  0  0  0  0  0  0  0
    5.9053    1.7439    0.0000 C   0  0  0  0  0  0  0  0  0  0  0  0
    6.9053    1.7439    0.0000 C   0  0  0  0  0  0  0  0  0  0  0  0
    6.4053   -1.7950    0.0000 C   0  0  0  0  0  0  0  0  0  0  0  0
    7.4053   -0.7950    0.0000 C   0  0  0  0  0  0  0  0  0  0  0  0
    5.4053   -0.7950    0.0000 C   0  0  0  0  0  0  0  0  0  0  0  0
    4.6453    0.4838    0.0000 C   0  0  0  0  0  0  0  0  0  0  0  0
    2.0000    0.5349    0.0000 C   0  0  0  0  0  0  0  0  0  0  0  0
    2.6420    1.7950    0.0000 C   0  0  0  0  0  0  0  0  0  0  0  0
    3.2601   -0.1071    0.0000 C   0  0  0  0  0  0  0  0  0  0  0  0
    5.4993    0.1804    0.0000 H   0  0  0  0  0  0  0  0  0  0  0  0
    7.5244    0.2559    0.0000 H   0  0  0  0  0  0  0  0  0  0  0  0
    7.7808    1.0450    0.0000 H   0  0  0  0  0  0  0  0  0  0  0  0
    5.9701    2.3605    0.0000 H   0  0  0  0  0  0  0  0  0  0  0  0
    5.2989    1.8728    0.0000 H   0  0  0  0  0  0  0  0  0  0  0  0
    7.5118    1.8728    0.0000 H   0  0  0  0  0  0  0  0  0  0  0  0
    6.8405    2.3605    0.0000 H   0  0  0  0  0  0  0  0  0  0  0  0
    5.7853   -1.7950    0.0000 H   0  0  0  0  0  0  0  0  0  0  0  0
    6.4053   -2.4150    0.0000 H   0  0  0  0  0  0  0  0  0  0  0  0
    7.0253   -1.7950    0.0000 H   0  0  0  0  0  0  0  0  0  0  0  0
    7.4053   -1.4150    0.0000 H   0  0  0  0  0  0  0  0  0  0  0  0
    8.0253   -0.7950    0.0000 H   0  0  0  0  0  0  0  0  0  0  0  0
    7.4053   -0.1750    0.0000 H   0  0  0  0  0  0  0  0  0  0  0  0
    5.4053   -0.1750    0.0000 H   0  0  0  0  0  0  0  0  0  0  0  0
    4.7853   -0.7950    0.0000 H   0  0  0  0  0  0  0  0  0  0  0  0
    5.4053   -1.4150    0.0000 H   0  0  0  0  0  0  0  0  0  0  0  0
    1.8084    1.1246    0.0000 H   0  0  0  0  0  0  0  0  0  0  0  0
    1.4103    0.3433    0.0000 H   0  0  0  0  0  0  0  0  0  0  0  0
    2.1916   -0.0548    0.0000 H   0  0  0  0  0  0  0  0  0  0  0  0
    3.2317    1.9866    0.0000 H   0  0  0  0  0  0  0  0  0  0  0  0
    2.4504    2.3846    0.0000 H   0  0  0  0  0  0  0  0  0  0  0  0
    2.0524    1.6034    0.0000 H   0  0  0  0  0  0  0  0  0  0  0  0
    2.6704   -0.2987    0.0000 H   0  0  0  0  0  0  0  0  0  0  0  0
    3.4517   -0.6968    0.0000 H   0  0  0  0  0  0  0  0  0  0  0  0
    3.8497    0.0844    0.0000 H   0  0  0  0  0  0  0  0  0  0  0  0
  1  5  1  0  0  0  0
  1 10  1  0  0  0  0
  1 11  1  0  0  0  0
  1 12  1  0  0  0  0
  2  3  1  0  0  0  0
  2 14  1  0  0  0  0
  2 15  1  0  0  0  0
  2 16  1  0  0  0  0
  3 13  1  0  0  0  0
  4 13  2  0  0  0  0
  5  6  1  0  0  0  0
  5  7  1  0  0  0  0
  6  8  1  0  0  0  0
  6 13  1  0  0  0  0
  6 17  1  0  0  0  0
  7  9  1  0  0  0  0
  7 18  1  0  0  0  0
  7 19  1  0  0  0  0
  8  9  1  0  0  0  0
  8 20  1  0  0  0  0
  8 21  1  0  0  0  0
  9 22  1  0  0  0  0
  9 23  1  0  0  0  0
 10 24  1  0  0  0  0
 10 25  1  0  0  0  0
 10 26  1  0  0  0  0
 11 27  1  0  0  0  0
 11 28  1  0  0  0  0
 11 29  1  0  0  0  0
 12 30  1  0  0  0  0
 12 31  1  0  0  0  0
 12 32  1  0  0  0  0
 14 33  1  0  0  0  0
 14 34  1  0  0  0  0
 14 35  1  0  0  0  0
 15 36  1  0  0  0  0
 15 37  1  0  0  0  0
 15 38  1  0  0  0  0
 16 39  1  0  0  0  0
 16 40  1  0  0  0  0
 16 41  1  0  0  0  0
M  END
> <PUBCHEM_COMPOUND_CID>
522501
> <PUBCHEM_COMPOUND_CANONICALIZED>
1
> <PUBCHEM_CACTVS_COMPLEXITY>
268
> <PUBCHEM_CACTVS_HBOND_ACCEPTOR>
3
> <PUBCHEM_CACTVS_HBOND_DONOR>
0
> <PUBCHEM_CACTVS_ROTATABLE_BOND>
4
> <PUBCHEM_CACTVS_SUBSKEYS>
AAADceByMAwAAAAAAAAAAAAAAAAAAWAAAAAAAAAAAAAAAAAAAAAAHhABAEAACCjBgARCCAIAAAEIAACQCAAAAAAAAAAAAAGIAAACABIAgCAEAAAEAACQAACYEQAAAAAAAAAAAAAAAAAAAAAAAAAAAAAAAA==
> <PUBCHEM_IUPAC_OPENEYE_NAME>
trimethylsilyl 1-trimethylsilylpyrrolidine-2-carboxylate
> <PUBCHEM_IUPAC_CAS_NAME>
1-trimethylsilyl-2-pyrrolidinecarboxylic acid trimethylsilyl ester
> <PUBCHEM_IUPAC_NAME_MARKUP>
trimethylsilyl 1-trimethylsilylpyrrolidine-2-carboxylate
> <PUBCHEM_IUPAC_NAME>
trimethylsilyl 1-trimethylsilylpyrrolidine-2-carboxylate
> <PUBCHEM_IUPAC_SYSTEMATIC_NAME>
trimethylsilyl 1-trimethylsilylpyrrolidine-2-carboxylate
> <PUBCHEM_IUPAC_TRADITIONAL_NAME>
1-trimethylsilylpyrrolidine-2-carboxylic acid trimethylsilyl ester
> <PUBCHEM_IUPAC_INCHI>
InChI=1S/C11H25NO2Si2/c1-15(2,3)12-9-7-8-10(12)11(13)14-16(4,5)6/h10H,7-9H2,1-6H3
> <PUBCHEM_IUPAC_INCHIKEY>
DKGIXVJPGFXLRM-UHFFFAOYSA-N
> <PUBCHEM_EXACT_MASS>
259.14238211
> <PUBCHEM_MOLECULAR_FORMULA>
C11H25NO2Si2
> <PUBCHEM_MOLECULAR_WEIGHT>
259.49
> <PUBCHEM_OPENEYE_CAN_SMILES>
C[Si](C)(C)N1CCCC1C(=O)O[Si](C)(C)C
> <PUBCHEM_OPENEYE_ISO_SMILES>
C[Si](C)(C)N1CCCC1C(=O)O[Si](C)(C)C
> <PUBCHEM_CACTVS_TPSA>
29.5
> <PUBCHEM_MONOISOTOPIC_WEIGHT>
259.14238211
> <PUBCHEM_TOTAL_CHARGE>
0
> <PUBCHEM_HEAVY_ATOM_COUNT>
16
> <PUBCHEM_ATOM_DEF_STEREO_COUNT>
0
> <PUBCHEM_ATOM_UDEF_STEREO_COUNT>
1
> <PUBCHEM_BOND_DEF_STEREO_COUNT>
0
> <PUBCHEM_BOND_UDEF_STEREO_COUNT>
0
> <PUBCHEM_ISOTOPIC_ATOM_COUNT>
0
> <PUBCHEM_COMPONENT_COUNT>
1
> <PUBCHEM_CACTVS_TAUTO_COUNT>
-1
> <PUBCHEM_COORDINATE_TYPE>
1
5
255
> <PUBCHEM_BONDANNOTATIONS>
6  13  3
$$$$
