522502
  -OEChem-10302200292D
 47 47  0     1  0  0  0  0  0999 V2000
    4.5981    2.0670    0.0000 Si  0  0  0  0  0  0  0  0  0  0  0  0
    6.3301    0.0670    0.0000 Si  0  0  0  0  0  0  0  0  0  0  0  0
    5.4641    0.5670    0.0000 O   0  0  0  0  0  0  0  0  0  0  0  0
    4.5981   -0.9330    0.0000 O   0  0  0  0  0  0  0  0  0  0  0  0
    3.7320    1.5670    0.0000 N   0  0  0  0  0  0  0  0  0  0  0  0
    3.7320    0.5670    0.0000 C   0  0  3  0  0  0  0  0  0  0  0  0
    2.8660    0.0670    0.0000 C   0  0  0  0  0  0  0  0  0  0  0  0
    5.4641    2.5670    0.0000 C   0  0  0  0  0  0  0  0  0  0  0  0
    4.0981    2.9330    0.0000 C   0  0  0  0  0  0  0  0  0  0  0  0
    5.0981    1.2010    0.0000 C   0  0  0  0  0  0  0  0  0  0  0  0
    4.5981    0.0670    0.0000 C   0  0  0  0  0  0  0  0  0  0  0  0
    2.8660   -0.9330    0.0000 C   0  0  0  0  0  0  0  0  0  0  0  0
    7.1962   -0.4330    0.0000 C   0  0  0  0  0  0  0  0  0  0  0  0
    6.8301    0.9330    0.0000 C   0  0  0  0  0  0  0  0  0  0  0  0
    5.8301   -0.7990    0.0000 C   0  0  0  0  0  0  0  0  0  0  0  0
    3.7320   -1.4330    0.0000 C   0  0  0  0  0  0  0  0  0  0  0  0
    2.0000   -1.4330    0.0000 C   0  0  0  0  0  0  0  0  0  0  0  0
    3.7320   -2.4330    0.0000 C   0  0  0  0  0  0  0  0  0  0  0  0
    2.0000   -2.4330    0.0000 C   0  0  0  0  0  0  0  0  0  0  0  0
    2.8660   -2.9330    0.0000 C   0  0  0  0  0  0  0  0  0  0  0  0
    4.2690    0.8770    0.0000 H   0  0  0  0  0  0  0  0  0  0  0  0
    3.1951    1.8770    0.0000 H   0  0  0  0  0  0  0  0  0  0  0  0
    2.6540    0.6496    0.0000 H   0  0  0  0  0  0  0  0  0  0  0  0
    2.2554   -0.0407    0.0000 H   0  0  0  0  0  0  0  0  0  0  0  0
    5.7741    2.0300    0.0000 H   0  0  0  0  0  0  0  0  0  0  0  0
    6.0010    2.8770    0.0000 H   0  0  0  0  0  0  0  0  0  0  0  0
    5.1541    3.1039    0.0000 H   0  0  0  0  0  0  0  0  0  0  0  0
    4.6350    3.2430    0.0000 H   0  0  0  0  0  0  0  0  0  0  0  0
    3.7881    3.4700    0.0000 H   0  0  0  0  0  0  0  0  0  0  0  0
    3.5611    2.6230    0.0000 H   0  0  0  0  0  0  0  0  0  0  0  0
    4.5611    0.8910    0.0000 H   0  0  0  0  0  0  0  0  0  0  0  0
    5.4081    0.6640    0.0000 H   0  0  0  0  0  0  0  0  0  0  0  0
    5.6350    1.5110    0.0000 H   0  0  0  0  0  0  0  0  0  0  0  0
    6.8862   -0.9699    0.0000 H   0  0  0  0  0  0  0  0  0  0  0  0
    7.7331   -0.7430    0.0000 H   0  0  0  0  0  0  0  0  0  0  0  0
    7.5062    0.1039    0.0000 H   0  0  0  0  0  0  0  0  0  0  0  0
    7.3671    0.6230    0.0000 H   0  0  0  0  0  0  0  0  0  0  0  0
    7.1401    1.4700    0.0000 H   0  0  0  0  0  0  0  0  0  0  0  0
    6.2932    1.2430    0.0000 H   0  0  0  0  0  0  0  0  0  0  0  0
    5.2932   -0.4890    0.0000 H   0  0  0  0  0  0  0  0  0  0  0  0
    5.5201   -1.3360    0.0000 H   0  0  0  0  0  0  0  0  0  0  0  0
    6.3671   -1.1090    0.0000 H   0  0  0  0  0  0  0  0  0  0  0  0
    4.2690   -1.1230    0.0000 H   0  0  0  0  0  0  0  0  0  0  0  0
    1.4631   -1.1230    0.0000 H   0  0  0  0  0  0  0  0  0  0  0  0
    4.2690   -2.7430    0.0000 H   0  0  0  0  0  0  0  0  0  0  0  0
    1.4631   -2.7430    0.0000 H   0  0  0  0  0  0  0  0  0  0  0  0
    2.8660   -3.5530    0.0000 H   0  0  0  0  0  0  0  0  0  0  0  0
  1  5  1  0  0  0  0
  1  8  1  0  0  0  0
  1  9  1  0  0  0  0
  1 10  1  0  0  0  0
  2  3  1  0  0  0  0
  2 13  1  0  0  0  0
  2 14  1  0  0  0  0
  2 15  1  0  0  0  0
  3 11  1  0  0  0  0
  4 11  2  0  0  0  0
  5  6  1  0  0  0  0
  5 22  1  0  0  0  0
  6  7  1  0  0  0  0
  6 11  1  0  0  0  0
  6 21  1  0  0  0  0
  7 12  1  0  0  0  0
  7 23  1  0  0  0  0
  7 24  1  0  0  0  0
  8 25  1  0  0  0  0
  8 26  1  0  0  0  0
  8 27  1  0  0  0  0
  9 28  1  0  0  0  0
  9 29  1  0  0  0  0
  9 30  1  0  0  0  0
 10 31  1  0  0  0  0
 10 32  1  0  0  0  0
 10 33  1  0  0  0  0
 12 16  2  0  0  0  0
 12 17  1  0  0  0  0
 13 34  1  0  0  0  0
 13 35  1  0  0  0  0
 13 36  1  0  0  0  0
 14 37  1  0  0  0  0
 14 38  1  0  0  0  0
 14 39  1  0  0  0  0
 15 40  1  0  0  0  0
 15 41  1  0  0  0  0
 15 42  1  0  0  0  0
 16 18  1  0  0  0  0
 16 43  1  0  0  0  0
 17 19  2  0  0  0  0
 17 44  1  0  0  0  0
 18 20  2  0  0  0  0
 18 45  1  0  0  0  0
 19 20  1  0  0  0  0
 19 46  1  0  0  0  0
 20 47  1  0  0  0  0
M  END
> <PUBCHEM_COMPOUND_CID>
522502
> <PUBCHEM_COMPOUND_CANONICALIZED>
1
> <PUBCHEM_CACTVS_COMPLEXITY>
315
> <PUBCHEM_CACTVS_HBOND_ACCEPTOR>
3
> <PUBCHEM_CACTVS_HBOND_DONOR>
1
> <PUBCHEM_CACTVS_ROTATABLE_BOND>
7
> <PUBCHEM_CACTVS_SUBSKEYS>
AAADceByMAwAAAAAAAAAAAAAAAAAAAAAAAAwAAAAAAAAAAABAAAAHhARAEAADCjBmARyCIBAAAGIAiDSCAACAAAgAAAIiIGAAIgKIDKAkRGAIAAkkAAIiAeYyKCOAAAAAAAAAAAAAAAAAAAAAAAAAAAAAA==
> <PUBCHEM_IUPAC_OPENEYE_NAME>
trimethylsilyl 3-phenyl-2-(trimethylsilylamino)propanoate
> <PUBCHEM_IUPAC_CAS_NAME>
3-phenyl-2-(trimethylsilylamino)propanoic acid trimethylsilyl ester
> <PUBCHEM_IUPAC_NAME_MARKUP>
trimethylsilyl 3-phenyl-2-(trimethylsilylamino)propanoate
> <PUBCHEM_IUPAC_NAME>
trimethylsilyl 3-phenyl-2-(trimethylsilylamino)propanoate
> <PUBCHEM_IUPAC_SYSTEMATIC_NAME>
trimethylsilyl 3-phenyl-2-(trimethylsilylamino)propanoate
> <PUBCHEM_IUPAC_TRADITIONAL_NAME>
3-phenyl-2-(trimethylsilylamino)propionic acid trimethylsilyl ester
> <PUBCHEM_IUPAC_INCHI>
InChI=1S/C15H27NO2Si2/c1-19(2,3)16-14(15(17)18-20(4,5)6)12-13-10-8-7-9-11-13/h7-11,14,16H,12H2,1-6H3
> <PUBCHEM_IUPAC_INCHIKEY>
DWNFNBPPSFIIBG-UHFFFAOYSA-N
> <PUBCHEM_EXACT_MASS>
309.15803217
> <PUBCHEM_MOLECULAR_FORMULA>
C15H27NO2Si2
> <PUBCHEM_MOLECULAR_WEIGHT>
309.55
> <PUBCHEM_OPENEYE_CAN_SMILES>
C[Si](C)(C)NC(CC1=CC=CC=C1)C(=O)O[Si](C)(C)C
> <PUBCHEM_OPENEYE_ISO_SMILES>
C[Si](C)(C)NC(CC1=CC=CC=C1)C(=O)O[Si](C)(C)C
> <PUBCHEM_CACTVS_TPSA>
38.3
> <PUBCHEM_MONOISOTOPIC_WEIGHT>
309.15803217
> <PUBCHEM_TOTAL_CHARGE>
0
> <PUBCHEM_HEAVY_ATOM_COUNT>
20
> <PUBCHEM_ATOM_DEF_STEREO_COUNT>
0
> <PUBCHEM_ATOM_UDEF_STEREO_COUNT>
1
> <PUBCHEM_BOND_DEF_STEREO_COUNT>
0
> <PUBCHEM_BOND_UDEF_STEREO_COUNT>
0
> <PUBCHEM_ISOTOPIC_ATOM_COUNT>
0
> <PUBCHEM_COMPONENT_COUNT>
1
> <PUBCHEM_CACTVS_TAUTO_COUNT>
-1
> <PUBCHEM_COORDINATE_TYPE>
1
5
255
> <PUBCHEM_BONDANNOTATIONS>
12  16  8
12  17  8
16  18  8
17  19  8
18  20  8
19  20  8
6  7  3
$$$$
