522563
  -OEChem-10302200292D
 31 30  0     1  0  0  0  0  0999 V2000
    2.8660   -0.5000    0.0000 Si  0  0  0  0  0  0  0  0  0  0  0  0
    3.7320   -0.0000    0.0000 O   0  0  0  0  0  0  0  0  0  0  0  0
    4.5981   -1.5000    0.0000 O   0  0  0  0  0  0  0  0  0  0  0  0
    6.3301   -0.5000    0.0000 N   0  0  0  0  0  0  0  0  0  0  0  0
    5.4641    1.0000    0.0000 C   0  0  0  0  0  0  0  0  0  0  0  0
    5.4641   -0.0000    0.0000 C   0  0  3  0  0  0  0  0  0  0  0  0
    4.5981   -0.5000    0.0000 C   0  0  0  0  0  0  0  0  0  0  0  0
    6.3301    1.5000    0.0000 C   0  0  0  0  0  0  0  0  0  0  0  0
    4.5981    1.5000    0.0000 C   0  0  0  0  0  0  0  0  0  0  0  0
    2.0000   -1.0000    0.0000 C   0  0  0  0  0  0  0  0  0  0  0  0
    2.3660    0.3660    0.0000 C   0  0  0  0  0  0  0  0  0  0  0  0
    3.3660   -1.3660    0.0000 C   0  0  0  0  0  0  0  0  0  0  0  0
    5.4641    1.6200    0.0000 H   0  0  0  0  0  0  0  0  0  0  0  0
    5.4641   -0.6200    0.0000 H   0  0  0  0  0  0  0  0  0  0  0  0
    6.6401    0.9631    0.0000 H   0  0  0  0  0  0  0  0  0  0  0  0
    6.8671    1.8100    0.0000 H   0  0  0  0  0  0  0  0  0  0  0  0
    6.0201    2.0369    0.0000 H   0  0  0  0  0  0  0  0  0  0  0  0
    4.9081    2.0369    0.0000 H   0  0  0  0  0  0  0  0  0  0  0  0
    4.0611    1.8100    0.0000 H   0  0  0  0  0  0  0  0  0  0  0  0
    4.2881    0.9631    0.0000 H   0  0  0  0  0  0  0  0  0  0  0  0
    1.6900   -0.4631    0.0000 H   0  0  0  0  0  0  0  0  0  0  0  0
    1.4631   -1.3100    0.0000 H   0  0  0  0  0  0  0  0  0  0  0  0
    2.3100   -1.5369    0.0000 H   0  0  0  0  0  0  0  0  0  0  0  0
    2.9030    0.6760    0.0000 H   0  0  0  0  0  0  0  0  0  0  0  0
    2.0560    0.9030    0.0000 H   0  0  0  0  0  0  0  0  0  0  0  0
    1.8291    0.0560    0.0000 H   0  0  0  0  0  0  0  0  0  0  0  0
    2.8291   -1.6760    0.0000 H   0  0  0  0  0  0  0  0  0  0  0  0
    3.6760   -1.9030    0.0000 H   0  0  0  0  0  0  0  0  0  0  0  0
    3.9030   -1.0560    0.0000 H   0  0  0  0  0  0  0  0  0  0  0  0
    6.8671   -0.1900    0.0000 H   0  0  0  0  0  0  0  0  0  0  0  0
    6.3301   -1.1200    0.0000 H   0  0  0  0  0  0  0  0  0  0  0  0
  1  2  1  0  0  0  0
  1 10  1  0  0  0  0
  1 11  1  0  0  0  0
  1 12  1  0  0  0  0
  2  7  1  0  0  0  0
  3  7  2  0  0  0  0
  4  6  1  0  0  0  0
  4 30  1  0  0  0  0
  4 31  1  0  0  0  0
  5  6  1  0  0  0  0
  5  8  1  0  0  0  0
  5  9  1  0  0  0  0
  5 13  1  0  0  0  0
  6  7  1  0  0  0  0
  6 14  1  0  0  0  0
  8 15  1  0  0  0  0
  8 16  1  0  0  0  0
  8 17  1  0  0  0  0
  9 18  1  0  0  0  0
  9 19  1  0  0  0  0
  9 20  1  0  0  0  0
 10 21  1  0  0  0  0
 10 22  1  0  0  0  0
 10 23  1  0  0  0  0
 11 24  1  0  0  0  0
 11 25  1  0  0  0  0
 11 26  1  0  0  0  0
 12 27  1  0  0  0  0
 12 28  1  0  0  0  0
 12 29  1  0  0  0  0
M  END
> <PUBCHEM_COMPOUND_CID>
522563
> <PUBCHEM_COMPOUND_CANONICALIZED>
1
> <PUBCHEM_CACTVS_COMPLEXITY>
163
> <PUBCHEM_CACTVS_HBOND_ACCEPTOR>
3
> <PUBCHEM_CACTVS_HBOND_DONOR>
1
> <PUBCHEM_CACTVS_ROTATABLE_BOND>
4
> <PUBCHEM_CACTVS_SUBSKEYS>
AAADceByMAgAAAAAAAAAAAAAAAAAAAAAAAAAAAAAAAAAAAAAAAAAHhAQAEAADSjBgARCCABAAAEIAACQCAAAAAAAAAAAAIGAAAACABAAAAAAAAAEEAAAAAAAAAAIAAAAAAAAAAAAAAAAAAAAAAAAAAAAAA==
> <PUBCHEM_IUPAC_OPENEYE_NAME>
trimethylsilyl 2-amino-3-methyl-butanoate
> <PUBCHEM_IUPAC_CAS_NAME>
2-amino-3-methylbutanoic acid trimethylsilyl ester
> <PUBCHEM_IUPAC_NAME_MARKUP>
trimethylsilyl 2-amino-3-methylbutanoate
> <PUBCHEM_IUPAC_NAME>
trimethylsilyl 2-amino-3-methylbutanoate
> <PUBCHEM_IUPAC_SYSTEMATIC_NAME>
trimethylsilyl 2-azanyl-3-methyl-butanoate
> <PUBCHEM_IUPAC_TRADITIONAL_NAME>
2-amino-3-methyl-butyric acid trimethylsilyl ester
> <PUBCHEM_IUPAC_INCHI>
InChI=1S/C8H19NO2Si/c1-6(2)7(9)8(10)11-12(3,4)5/h6-7H,9H2,1-5H3
> <PUBCHEM_IUPAC_INCHIKEY>
IJGIMCZHMYSSHY-UHFFFAOYSA-N
> <PUBCHEM_EXACT_MASS>
189.118505383
> <PUBCHEM_MOLECULAR_FORMULA>
C8H19NO2Si
> <PUBCHEM_MOLECULAR_WEIGHT>
189.33
> <PUBCHEM_OPENEYE_CAN_SMILES>
CC(C)C(C(=O)O[Si](C)(C)C)N
> <PUBCHEM_OPENEYE_ISO_SMILES>
CC(C)C(C(=O)O[Si](C)(C)C)N
> <PUBCHEM_CACTVS_TPSA>
52.3
> <PUBCHEM_MONOISOTOPIC_WEIGHT>
189.118505383
> <PUBCHEM_TOTAL_CHARGE>
0
> <PUBCHEM_HEAVY_ATOM_COUNT>
12
> <PUBCHEM_ATOM_DEF_STEREO_COUNT>
0
> <PUBCHEM_ATOM_UDEF_STEREO_COUNT>
1
> <PUBCHEM_BOND_DEF_STEREO_COUNT>
0
> <PUBCHEM_BOND_UDEF_STEREO_COUNT>
0
> <PUBCHEM_ISOTOPIC_ATOM_COUNT>
0
> <PUBCHEM_COMPONENT_COUNT>
1
> <PUBCHEM_CACTVS_TAUTO_COUNT>
-1
> <PUBCHEM_COORDINATE_TYPE>
1
5
255
> <PUBCHEM_BONDANNOTATIONS>
6  4  3
$$$$
