522555
  -OEChem-10302200292D
 46 47  0     1  0  0  0  0  0999 V2000
    2.8660   -0.2500    0.0000 C   0  0  3  0  0  0  0  0  0  0  0  0
    3.7320    0.2500    0.0000 C   0  0  3  0  0  0  0  0  0  0  0  0
    2.8660   -1.2500    0.0000 C   0  0  0  0  0  0  0  0  0  0  0  0
    3.7320    1.2500    0.0000 C   0  0  0  0  0  0  0  0  0  0  0  0
    2.0000   -1.7500    0.0000 C   0  0  0  0  0  0  0  0  0  0  0  0
    3.7320   -1.7500    0.0000 C   0  0  0  0  0  0  0  0  0  0  0  0
    4.5981    1.7500    0.0000 C   0  0  0  0  0  0  0  0  0  0  0  0
    2.8660    1.7500    0.0000 C   0  0  0  0  0  0  0  0  0  0  0  0
    2.0000   -2.7500    0.0000 C   0  0  0  0  0  0  0  0  0  0  0  0
    3.7320   -2.7500    0.0000 C   0  0  0  0  0  0  0  0  0  0  0  0
    4.5981    2.7500    0.0000 C   0  0  0  0  0  0  0  0  0  0  0  0
    2.8660    2.7500    0.0000 C   0  0  0  0  0  0  0  0  0  0  0  0
    2.0000    0.2500    0.0000 C   0  0  0  0  0  0  0  0  0  0  0  0
    4.5981   -0.2500    0.0000 C   0  0  0  0  0  0  0  0  0  0  0  0
    2.8660   -3.2500    0.0000 C   0  0  0  0  0  0  0  0  0  0  0  0
    3.7320    3.2500    0.0000 C   0  0  0  0  0  0  0  0  0  0  0  0
    2.8660    0.3700    0.0000 H   0  0  0  0  0  0  0  0  0  0  0  0
    3.7320   -0.3700    0.0000 H   0  0  0  0  0  0  0  0  0  0  0  0
    3.4030   -0.9400    0.0000 H   0  0  0  0  0  0  0  0  0  0  0  0
    4.2690    0.9400    0.0000 H   0  0  0  0  0  0  0  0  0  0  0  0
    1.7880   -1.1674    0.0000 H   0  0  0  0  0  0  0  0  0  0  0  0
    1.3894   -1.8577    0.0000 H   0  0  0  0  0  0  0  0  0  0  0  0
    4.3426   -1.8577    0.0000 H   0  0  0  0  0  0  0  0  0  0  0  0
    3.9441   -1.1674    0.0000 H   0  0  0  0  0  0  0  0  0  0  0  0
    4.8101    1.1674    0.0000 H   0  0  0  0  0  0  0  0  0  0  0  0
    5.2087    1.8577    0.0000 H   0  0  0  0  0  0  0  0  0  0  0  0
    2.2554    1.8577    0.0000 H   0  0  0  0  0  0  0  0  0  0  0  0
    2.6540    1.1674    0.0000 H   0  0  0  0  0  0  0  0  0  0  0  0
    1.3894   -2.6423    0.0000 H   0  0  0  0  0  0  0  0  0  0  0  0
    1.7880   -3.3326    0.0000 H   0  0  0  0  0  0  0  0  0  0  0  0
    3.9441   -3.3326    0.0000 H   0  0  0  0  0  0  0  0  0  0  0  0
    4.3426   -2.6423    0.0000 H   0  0  0  0  0  0  0  0  0  0  0  0
    5.2087    2.6423    0.0000 H   0  0  0  0  0  0  0  0  0  0  0  0
    4.8101    3.3326    0.0000 H   0  0  0  0  0  0  0  0  0  0  0  0
    2.6540    3.3326    0.0000 H   0  0  0  0  0  0  0  0  0  0  0  0
    2.2554    2.6423    0.0000 H   0  0  0  0  0  0  0  0  0  0  0  0
    2.3100    0.7869    0.0000 H   0  0  0  0  0  0  0  0  0  0  0  0
    1.4631    0.5600    0.0000 H   0  0  0  0  0  0  0  0  0  0  0  0
    1.6900   -0.2869    0.0000 H   0  0  0  0  0  0  0  0  0  0  0  0
    4.2881   -0.7869    0.0000 H   0  0  0  0  0  0  0  0  0  0  0  0
    5.1350   -0.5600    0.0000 H   0  0  0  0  0  0  0  0  0  0  0  0
    4.9081    0.2869    0.0000 H   0  0  0  0  0  0  0  0  0  0  0  0
    2.4675   -3.7250    0.0000 H   0  0  0  0  0  0  0  0  0  0  0  0
    3.2646   -3.7250    0.0000 H   0  0  0  0  0  0  0  0  0  0  0  0
    4.1306    3.7250    0.0000 H   0  0  0  0  0  0  0  0  0  0  0  0
    3.3335    3.7250    0.0000 H   0  0  0  0  0  0  0  0  0  0  0  0
  1  2  1  0  0  0  0
  1  3  1  0  0  0  0
  1 13  1  0  0  0  0
  1 17  1  0  0  0  0
  2  4  1  0  0  0  0
  2 14  1  0  0  0  0
  2 18  1  0  0  0  0
  3  5  1  0  0  0  0
  3  6  1  0  0  0  0
  3 19  1  0  0  0  0
  4  7  1  0  0  0  0
  4  8  1  0  0  0  0
  4 20  1  0  0  0  0
  5  9  1  0  0  0  0
  5 21  1  0  0  0  0
  5 22  1  0  0  0  0
  6 10  1  0  0  0  0
  6 23  1  0  0  0  0
  6 24  1  0  0  0  0
  7 11  1  0  0  0  0
  7 25  1  0  0  0  0
  7 26  1  0  0  0  0
  8 12  1  0  0  0  0
  8 27  1  0  0  0  0
  8 28  1  0  0  0  0
  9 15  1  0  0  0  0
  9 29  1  0  0  0  0
  9 30  1  0  0  0  0
 10 15  1  0  0  0  0
 10 31  1  0  0  0  0
 10 32  1  0  0  0  0
 11 16  1  0  0  0  0
 11 33  1  0  0  0  0
 11 34  1  0  0  0  0
 12 16  1  0  0  0  0
 12 35  1  0  0  0  0
 12 36  1  0  0  0  0
 13 37  1  0  0  0  0
 13 38  1  0  0  0  0
 13 39  1  0  0  0  0
 14 40  1  0  0  0  0
 14 41  1  0  0  0  0
 14 42  1  0  0  0  0
 15 43  1  0  0  0  0
 15 44  1  0  0  0  0
 16 45  1  0  0  0  0
 16 46  1  0  0  0  0
M  END
> <PUBCHEM_COMPOUND_CID>
522555
> <PUBCHEM_COMPOUND_CANONICALIZED>
1
> <PUBCHEM_CACTVS_COMPLEXITY>
162
> <PUBCHEM_CACTVS_HBOND_ACCEPTOR>
0
> <PUBCHEM_CACTVS_HBOND_DONOR>
0
> <PUBCHEM_CACTVS_ROTATABLE_BOND>
3
> <PUBCHEM_CACTVS_SUBSKEYS>
AAADceB4AAAAAAAAAAAAAAAAAAAAAAAAAAAwYAAAAAAAAAAAAAAAGAAAAAAADQCAAAACAAAAAAAAAAAAAAAAAAAAAAAAAAAAAAAAAAIAAAAAAAAAAAAAAAEAgMAOgAAAAAAAAAAAAAAAAAAAAAAAAAAAAA==
> <PUBCHEM_IUPAC_OPENEYE_NAME>
(2-cyclohexyl-1-methyl-propyl)cyclohexane
> <PUBCHEM_IUPAC_CAS_NAME>
3-cyclohexylbutan-2-ylcyclohexane
> <PUBCHEM_IUPAC_NAME_MARKUP>
3-cyclohexylbutan-2-ylcyclohexane
> <PUBCHEM_IUPAC_NAME>
3-cyclohexylbutan-2-ylcyclohexane
> <PUBCHEM_IUPAC_SYSTEMATIC_NAME>
3-cyclohexylbutan-2-ylcyclohexane
> <PUBCHEM_IUPAC_TRADITIONAL_NAME>
(2-cyclohexyl-1-methyl-propyl)cyclohexane
> <PUBCHEM_IUPAC_INCHI>
InChI=1S/C16H30/c1-13(15-9-5-3-6-10-15)14(2)16-11-7-4-8-12-16/h13-16H,3-12H2,1-2H3
> <PUBCHEM_IUPAC_INCHIKEY>
CKYRHDXTXMYCMX-UHFFFAOYSA-N
> <PUBCHEM_XLOGP3_AA>
7.3
> <PUBCHEM_EXACT_MASS>
222.234750957
> <PUBCHEM_MOLECULAR_FORMULA>
C16H30
> <PUBCHEM_MOLECULAR_WEIGHT>
222.41
> <PUBCHEM_OPENEYE_CAN_SMILES>
CC(C1CCCCC1)C(C)C2CCCCC2
> <PUBCHEM_OPENEYE_ISO_SMILES>
CC(C1CCCCC1)C(C)C2CCCCC2
> <PUBCHEM_CACTVS_TPSA>
0
> <PUBCHEM_MONOISOTOPIC_WEIGHT>
222.234750957
> <PUBCHEM_TOTAL_CHARGE>
0
> <PUBCHEM_HEAVY_ATOM_COUNT>
16
> <PUBCHEM_ATOM_DEF_STEREO_COUNT>
0
> <PUBCHEM_ATOM_UDEF_STEREO_COUNT>
2
> <PUBCHEM_BOND_DEF_STEREO_COUNT>
0
> <PUBCHEM_BOND_UDEF_STEREO_COUNT>
0
> <PUBCHEM_ISOTOPIC_ATOM_COUNT>
0
> <PUBCHEM_COMPONENT_COUNT>
1
> <PUBCHEM_CACTVS_TAUTO_COUNT>
1
> <PUBCHEM_COORDINATE_TYPE>
1
5
255
> <PUBCHEM_BONDANNOTATIONS>
1  13  3
2  14  3
$$$$
