522632
  -OEChem-10302200292D
 63 66  0     1  0  0  0  0  0999 V2000
    5.6591    1.2991    0.0000 N   0  0  0  0  0  0  0  0  0  0  0  0
    5.6591    3.2991    0.0000 N   0  0  0  0  0  0  0  0  0  0  0  0
    6.5251   -0.2009    0.0000 C   0  0  3  0  0  0  0  0  0  0  0  0
    6.5251   -1.2009    0.0000 C   0  0  3  0  0  0  0  0  0  0  0  0
    5.6591   -1.7009    0.0000 C   0  0  3  0  0  0  0  0  0  0  0  0
    4.7931   -1.2009    0.0000 C   0  0  3  0  0  0  0  0  0  0  0  0
    3.8831   -1.7078    0.0000 C   0  0  3  0  0  0  0  0  0  0  0  0
    7.4714    0.1038    0.0000 C   0  0  3  0  0  0  0  0  0  0  0  0
    5.6591    0.2991    0.0000 C   0  0  0  0  0  0  0  0  0  0  0  0
    3.8751   -2.7494    0.0000 C   0  0  3  0  0  0  0  0  0  0  0  0
    4.7931   -0.2009    0.0000 C   0  0  0  0  0  0  0  0  0  0  0  0
    7.4714   -1.5056    0.0000 C   0  0  0  0  0  0  0  0  0  0  0  0
    5.6752   -2.7424    0.0000 C   0  0  0  0  0  0  0  0  0  0  0  0
    8.0550   -0.7009    0.0000 C   0  0  0  0  0  0  0  0  0  0  0  0
    4.7771   -3.2702    0.0000 C   0  0  0  0  0  0  0  0  0  0  0  0
    2.9562   -1.1437    0.0000 C   0  0  0  0  0  0  0  0  0  0  0  0
    6.5251    0.7991    0.0000 C   0  0  0  0  0  0  0  0  0  0  0  0
    2.9396   -3.2991    0.0000 C   0  0  0  0  0  0  0  0  0  0  0  0
    3.8908   -0.7078    0.0000 C   0  0  0  0  0  0  0  0  0  0  0  0
    7.7820    1.0543    0.0000 C   0  0  0  0  0  0  0  0  0  0  0  0
    2.0084   -1.6716    0.0000 C   0  0  0  0  0  0  0  0  0  0  0  0
    2.0000   -2.7566    0.0000 C   0  0  0  0  0  0  0  0  0  0  0  0
    8.7605    1.2606    0.0000 C   0  0  0  0  0  0  0  0  0  0  0  0
    4.7931    0.7991    0.0000 C   0  0  0  0  0  0  0  0  0  0  0  0
    5.6591    2.2991    0.0000 C   0  0  0  0  0  0  0  0  0  0  0  0
    6.5908   -1.8174    0.0000 H   0  0  0  0  0  0  0  0  0  0  0  0
    6.1984   -2.0068    0.0000 H   0  0  0  0  0  0  0  0  0  0  0  0
    5.3300   -0.8909    0.0000 H   0  0  0  0  0  0  0  0  0  0  0  0
    8.0838    0.2000    0.0000 H   0  0  0  0  0  0  0  0  0  0  0  0
    6.0576    0.7740    0.0000 H   0  0  0  0  0  0  0  0  0  0  0  0
    5.2606    0.7740    0.0000 H   0  0  0  0  0  0  0  0  0  0  0  0
    3.8774   -3.3694    0.0000 H   0  0  0  0  0  0  0  0  0  0  0  0
    4.5810    0.3817    0.0000 H   0  0  0  0  0  0  0  0  0  0  0  0
    4.1825   -0.3086    0.0000 H   0  0  0  0  0  0  0  0  0  0  0  0
    7.2203   -2.0726    0.0000 H   0  0  0  0  0  0  0  0  0  0  0  0
    8.0087   -1.8149    0.0000 H   0  0  0  0  0  0  0  0  0  0  0  0
    5.8932   -3.3228    0.0000 H   0  0  0  0  0  0  0  0  0  0  0  0
    6.2843   -2.6269    0.0000 H   0  0  0  0  0  0  0  0  0  0  0  0
    8.5158   -1.1156    0.0000 H   0  0  0  0  0  0  0  0  0  0  0  0
    8.5158   -0.2862    0.0000 H   0  0  0  0  0  0  0  0  0  0  0  0
    4.3798   -3.7462    0.0000 H   0  0  0  0  0  0  0  0  0  0  0  0
    5.1781   -3.7431    0.0000 H   0  0  0  0  0  0  0  0  0  0  0  0
    3.3645   -0.6770    0.0000 H   0  0  0  0  0  0  0  0  0  0  0  0
    2.5663   -0.6616    0.0000 H   0  0  0  0  0  0  0  0  0  0  0  0
    7.1357    0.6914    0.0000 H   0  0  0  0  0  0  0  0  0  0  0  0
    6.7372    1.3817    0.0000 H   0  0  0  0  0  0  0  0  0  0  0  0
    2.5423   -3.7751    0.0000 H   0  0  0  0  0  0  0  0  0  0  0  0
    3.3406   -3.7720    0.0000 H   0  0  0  0  0  0  0  0  0  0  0  0
    4.5108   -0.7126    0.0000 H   0  0  0  0  0  0  0  0  0  0  0  0
    3.8956   -0.0878    0.0000 H   0  0  0  0  0  0  0  0  0  0  0  0
    3.2708   -0.7030    0.0000 H   0  0  0  0  0  0  0  0  0  0  0  0
    7.7614    1.6740    0.0000 H   0  0  0  0  0  0  0  0  0  0  0  0
    7.1682    1.1417    0.0000 H   0  0  0  0  0  0  0  0  0  0  0  0
    1.8038   -1.0863    0.0000 H   0  0  0  0  0  0  0  0  0  0  0  0
    1.3967   -1.7730    0.0000 H   0  0  0  0  0  0  0  0  0  0  0  0
    1.3900   -2.6458    0.0000 H   0  0  0  0  0  0  0  0  0  0  0  0
    1.7864   -3.3386    0.0000 H   0  0  0  0  0  0  0  0  0  0  0  0
    8.8884    0.6539    0.0000 H   0  0  0  0  0  0  0  0  0  0  0  0
    9.3672    1.3884    0.0000 H   0  0  0  0  0  0  0  0  0  0  0  0
    8.6327    1.8672    0.0000 H   0  0  0  0  0  0  0  0  0  0  0  0
    4.4831    1.3360    0.0000 H   0  0  0  0  0  0  0  0  0  0  0  0
    4.2562    0.4891    0.0000 H   0  0  0  0  0  0  0  0  0  0  0  0
    5.1031    0.2622    0.0000 H   0  0  0  0  0  0  0  0  0  0  0  0
  1 17  1  0  0  0  0
  1 24  1  0  0  0  0
  1 25  1  0  0  0  0
  2 25  3  0  0  0  0
  3  4  1  0  0  0  0
  3  8  1  0  0  0  0
  3  9  1  0  0  0  0
  3 17  1  0  0  0  0
  4  5  1  0  0  0  0
  4 12  1  0  0  0  0
  4 26  1  0  0  0  0
  5  6  1  0  0  0  0
  5 13  1  0  0  0  0
  5 27  1  0  0  0  0
  6  7  1  0  0  0  0
  6 11  1  0  0  0  0
  6 28  1  0  0  0  0
  7 10  1  0  0  0  0
  7 16  1  0  0  0  0
  7 19  1  0  0  0  0
  8 14  1  0  0  0  0
  8 20  1  0  0  0  0
  8 29  1  0  0  0  0
  9 11  1  0  0  0  0
  9 30  1  0  0  0  0
  9 31  1  0  0  0  0
 10 15  1  0  0  0  0
 10 18  1  0  0  0  0
 10 32  1  0  0  0  0
 11 33  1  0  0  0  0
 11 34  1  0  0  0  0
 12 14  1  0  0  0  0
 12 35  1  0  0  0  0
 12 36  1  0  0  0  0
 13 15  1  0  0  0  0
 13 37  1  0  0  0  0
 13 38  1  0  0  0  0
 14 39  1  0  0  0  0
 14 40  1  0  0  0  0
 15 41  1  0  0  0  0
 15 42  1  0  0  0  0
 16 21  1  0  0  0  0
 16 43  1  0  0  0  0
 16 44  1  0  0  0  0
 17 45  1  0  0  0  0
 17 46  1  0  0  0  0
 18 22  1  0  0  0  0
 18 47  1  0  0  0  0
 18 48  1  0  0  0  0
 19 49  1  0  0  0  0
 19 50  1  0  0  0  0
 19 51  1  0  0  0  0
 20 23  1  0  0  0  0
 20 52  1  0  0  0  0
 20 53  1  0  0  0  0
 21 22  1  0  0  0  0
 21 54  1  0  0  0  0
 21 55  1  0  0  0  0
 22 56  1  0  0  0  0
 22 57  1  0  0  0  0
 23 58  1  0  0  0  0
 23 59  1  0  0  0  0
 23 60  1  0  0  0  0
 24 61  1  0  0  0  0
 24 62  1  0  0  0  0
 24 63  1  0  0  0  0
M  END
> <PUBCHEM_COMPOUND_CID>
522632
> <PUBCHEM_COMPOUND_CANONICALIZED>
1
> <PUBCHEM_CACTVS_COMPLEXITY>
548
> <PUBCHEM_CACTVS_HBOND_ACCEPTOR>
2
> <PUBCHEM_CACTVS_HBOND_DONOR>
0
> <PUBCHEM_CACTVS_ROTATABLE_BOND>
3
> <PUBCHEM_CACTVS_SUBSKEYS>
AAADcfB7AAAAAAAAAAAAAAAAAAAAAYAAAAAwYMAAAAAAAGDAAAAAHAAAAAAADwDBAAQDAAMAAAAQAAAAAAAAAAAAAAAAAAAIAAAAAAIAgAAEAAAAAAAAAAEQgMAPgAAAAAAAAACAAAQAACAAAQAACAAAAA==
> <PUBCHEM_IUPAC_OPENEYE_NAME>
(17-ethyl-10-methyl-2,3,4,5,6,7,8,9,11,12,14,15,16,17-tetradecahydro-1H-cyclopenta[a]phenanthren-13-yl)methyl-methyl-cyanamide
> <PUBCHEM_IUPAC_CAS_NAME>
(17-ethyl-10-methyl-2,3,4,5,6,7,8,9,11,12,14,15,16,17-tetradecahydro-1H-cyclopenta[a]phenanthren-13-yl)methyl-methylcyanamide
> <PUBCHEM_IUPAC_NAME_MARKUP>
(17-ethyl-10-methyl-2,3,4,5,6,7,8,9,11,12,14,15,16,17-tetradecahydro-1<I>H</I>-cyclopenta[a]phenanthren-13-yl)methyl-methylcyanamide
> <PUBCHEM_IUPAC_NAME>
(17-ethyl-10-methyl-2,3,4,5,6,7,8,9,11,12,14,15,16,17-tetradecahydro-1H-cyclopenta[a]phenanthren-13-yl)methyl-methylcyanamide
> <PUBCHEM_IUPAC_SYSTEMATIC_NAME>
(17-ethyl-10-methyl-2,3,4,5,6,7,8,9,11,12,14,15,16,17-tetradecahydro-1H-cyclopenta[a]phenanthren-13-yl)methyl-methyl-cyanamide
> <PUBCHEM_IUPAC_TRADITIONAL_NAME>
(17-ethyl-10-methyl-2,3,4,5,6,7,8,9,11,12,14,15,16,17-tetradecahydro-1H-cyclopenta[a]phenanthren-13-yl)methyl-methyl-cyanamide
> <PUBCHEM_IUPAC_INCHI>
InChI=1S/C23H38N2/c1-4-17-9-11-21-19-10-8-18-7-5-6-13-22(18,2)20(19)12-14-23(17,21)15-25(3)16-24/h17-21H,4-15H2,1-3H3
> <PUBCHEM_IUPAC_INCHIKEY>
LFUCSBAKSOGICG-UHFFFAOYSA-N
> <PUBCHEM_XLOGP3_AA>
8
> <PUBCHEM_EXACT_MASS>
342.303499221
> <PUBCHEM_MOLECULAR_FORMULA>
C23H38N2
> <PUBCHEM_MOLECULAR_WEIGHT>
342.6
> <PUBCHEM_OPENEYE_CAN_SMILES>
CCC1CCC2C1(CCC3C2CCC4C3(CCCC4)C)CN(C)C#N
> <PUBCHEM_OPENEYE_ISO_SMILES>
CCC1CCC2C1(CCC3C2CCC4C3(CCCC4)C)CN(C)C#N
> <PUBCHEM_CACTVS_TPSA>
27
> <PUBCHEM_MONOISOTOPIC_WEIGHT>
342.303499221
> <PUBCHEM_TOTAL_CHARGE>
0
> <PUBCHEM_HEAVY_ATOM_COUNT>
25
> <PUBCHEM_ATOM_DEF_STEREO_COUNT>
0
> <PUBCHEM_ATOM_UDEF_STEREO_COUNT>
7
> <PUBCHEM_BOND_DEF_STEREO_COUNT>
0
> <PUBCHEM_BOND_UDEF_STEREO_COUNT>
0
> <PUBCHEM_ISOTOPIC_ATOM_COUNT>
0
> <PUBCHEM_COMPONENT_COUNT>
1
> <PUBCHEM_CACTVS_TAUTO_COUNT>
-1
> <PUBCHEM_COORDINATE_TYPE>
1
5
255
> <PUBCHEM_BONDANNOTATIONS>
10  18  3
3  17  3
4  12  3
5  13  3
6  11  3
7  19  3
8  20  3
$$$$
