522693
  -OEChem-10302200292D
 22 21  0     1  0  0  0  0  0999 V2000
    2.5369   -1.0670    0.0000 O   0  0  0  0  0  0  0  0  0  0  0  0
    5.1350   -0.5670    0.0000 O   0  0  0  0  0  0  0  0  0  0  0  0
    3.4030   -0.5670    0.0000 C   0  0  0  0  0  0  0  0  0  0  0  0
    4.2690   -0.0670    0.0000 C   0  0  3  0  0  0  0  0  0  0  0  0
    4.2690    0.9330    0.0000 C   0  0  0  0  0  0  0  0  0  0  0  0
    2.9030    0.2990    0.0000 C   0  0  0  0  0  0  0  0  0  0  0  0
    3.9030   -1.4330    0.0000 C   0  0  0  0  0  0  0  0  0  0  0  0
    5.1350    1.4330    0.0000 C   0  0  0  0  0  0  0  0  0  0  0  0
    4.2690   -0.9170    0.0000 H   0  0  0  0  0  0  0  0  0  0  0  0
    4.0569    1.5156    0.0000 H   0  0  0  0  0  0  0  0  0  0  0  0
    3.6584    0.8254    0.0000 H   0  0  0  0  0  0  0  0  0  0  0  0
    3.4399    0.6090    0.0000 H   0  0  0  0  0  0  0  0  0  0  0  0
    2.5930    0.8360    0.0000 H   0  0  0  0  0  0  0  0  0  0  0  0
    2.3660   -0.0110    0.0000 H   0  0  0  0  0  0  0  0  0  0  0  0
    3.3660   -1.7430    0.0000 H   0  0  0  0  0  0  0  0  0  0  0  0
    4.2130   -1.9700    0.0000 H   0  0  0  0  0  0  0  0  0  0  0  0
    4.4399   -1.1230    0.0000 H   0  0  0  0  0  0  0  0  0  0  0  0
    5.4450    0.8961    0.0000 H   0  0  0  0  0  0  0  0  0  0  0  0
    5.6720    1.7430    0.0000 H   0  0  0  0  0  0  0  0  0  0  0  0
    4.8250    1.9700    0.0000 H   0  0  0  0  0  0  0  0  0  0  0  0
    2.0000   -0.7570    0.0000 H   0  0  0  0  0  0  0  0  0  0  0  0
    5.6720   -0.2570    0.0000 H   0  0  0  0  0  0  0  0  0  0  0  0
  1  3  1  0  0  0  0
  1 21  1  0  0  0  0
  2  4  1  0  0  0  0
  2 22  1  0  0  0  0
  3  4  1  0  0  0  0
  3  6  1  0  0  0  0
  3  7  1  0  0  0  0
  4  5  1  0  0  0  0
  4  9  1  0  0  0  0
  5  8  1  0  0  0  0
  5 10  1  0  0  0  0
  5 11  1  0  0  0  0
  6 12  1  0  0  0  0
  6 13  1  0  0  0  0
  6 14  1  0  0  0  0
  7 15  1  0  0  0  0
  7 16  1  0  0  0  0
  7 17  1  0  0  0  0
  8 18  1  0  0  0  0
  8 19  1  0  0  0  0
  8 20  1  0  0  0  0
M  END
> <PUBCHEM_COMPOUND_CID>
522693
> <PUBCHEM_COMPOUND_CANONICALIZED>
1
> <PUBCHEM_CACTVS_COMPLEXITY>
68.9
> <PUBCHEM_CACTVS_HBOND_ACCEPTOR>
2
> <PUBCHEM_CACTVS_HBOND_DONOR>
2
> <PUBCHEM_CACTVS_ROTATABLE_BOND>
2
> <PUBCHEM_CACTVS_SUBSKEYS>
AAADccBgMAAAAAAAAAAAAAAAAAAAAAAAAAAAAAAAAAAAAAAAAAAAGgAACAAADFSggAICAAAAAgAAAAAAAAAAAAAAAAAAAAAAAAABEAIAAAAAQAAEAAABAAAAAAAMAAAAAAAAAAAAAAAAAAAAAAAAAAAAAA==
> <PUBCHEM_IUPAC_OPENEYE_NAME>
2-methylpentane-2,3-diol
> <PUBCHEM_IUPAC_CAS_NAME>
2-methylpentane-2,3-diol
> <PUBCHEM_IUPAC_NAME_MARKUP>
2-methylpentane-2,3-diol
> <PUBCHEM_IUPAC_NAME>
2-methylpentane-2,3-diol
> <PUBCHEM_IUPAC_SYSTEMATIC_NAME>
2-methylpentane-2,3-diol
> <PUBCHEM_IUPAC_TRADITIONAL_NAME>
2-methylpentane-2,3-diol
> <PUBCHEM_IUPAC_INCHI>
InChI=1S/C6H14O2/c1-4-5(7)6(2,3)8/h5,7-8H,4H2,1-3H3
> <PUBCHEM_IUPAC_INCHIKEY>
GSQFUEPQVUSAPE-UHFFFAOYSA-N
> <PUBCHEM_XLOGP3_AA>
0.4
> <PUBCHEM_EXACT_MASS>
118.099379685
> <PUBCHEM_MOLECULAR_FORMULA>
C6H14O2
> <PUBCHEM_MOLECULAR_WEIGHT>
118.17
> <PUBCHEM_OPENEYE_CAN_SMILES>
CCC(C(C)(C)O)O
> <PUBCHEM_OPENEYE_ISO_SMILES>
CCC(C(C)(C)O)O
> <PUBCHEM_CACTVS_TPSA>
40.5
> <PUBCHEM_MONOISOTOPIC_WEIGHT>
118.099379685
> <PUBCHEM_TOTAL_CHARGE>
0
> <PUBCHEM_HEAVY_ATOM_COUNT>
8
> <PUBCHEM_ATOM_DEF_STEREO_COUNT>
0
> <PUBCHEM_ATOM_UDEF_STEREO_COUNT>
1
> <PUBCHEM_BOND_DEF_STEREO_COUNT>
0
> <PUBCHEM_BOND_UDEF_STEREO_COUNT>
0
> <PUBCHEM_ISOTOPIC_ATOM_COUNT>
0
> <PUBCHEM_COMPONENT_COUNT>
1
> <PUBCHEM_CACTVS_TAUTO_COUNT>
1
> <PUBCHEM_COORDINATE_TYPE>
1
5
255
> <PUBCHEM_BONDANNOTATIONS>
4  9  3
$$$$
