522622
  -OEChem-10302200292D
 26 26  0     1  0  0  0  0  0999 V2000
    3.0000    0.3100    0.0000 S   0  0  0  0  0  0  0  0  0  0  0  0
    4.7320   -0.6900    0.0000 N   0  0  3  0  0  0  0  0  0  0  0  0
    3.8660   -1.1900    0.0000 N   0  0  0  0  0  0  0  0  0  0  0  0
    3.0000   -0.6900    0.0000 C   0  0  0  0  0  0  0  0  0  0  0  0
    3.8660    0.8100    0.0000 C   0  0  3  0  0  0  0  0  0  0  0  0
    4.7320    0.3100    0.0000 C   0  0  0  0  0  0  0  0  0  0  0  0
    2.0000   -0.6900    0.0000 C   0  0  0  0  0  0  0  0  0  0  0  0
    2.5000   -1.5560    0.0000 C   0  0  0  0  0  0  0  0  0  0  0  0
    3.8660    1.8100    0.0000 C   0  0  0  0  0  0  0  0  0  0  0  0
    5.5981   -1.1900    0.0000 C   0  0  0  0  0  0  0  0  0  0  0  0
    3.3291    1.1200    0.0000 H   0  0  0  0  0  0  0  0  0  0  0  0
    5.3426    0.2023    0.0000 H   0  0  0  0  0  0  0  0  0  0  0  0
    4.9441    0.8926    0.0000 H   0  0  0  0  0  0  0  0  0  0  0  0
    3.8660   -1.8100    0.0000 H   0  0  0  0  0  0  0  0  0  0  0  0
    2.0000   -0.0700    0.0000 H   0  0  0  0  0  0  0  0  0  0  0  0
    1.3800   -0.6900    0.0000 H   0  0  0  0  0  0  0  0  0  0  0  0
    2.0000   -1.3100    0.0000 H   0  0  0  0  0  0  0  0  0  0  0  0
    1.9631   -1.2460    0.0000 H   0  0  0  0  0  0  0  0  0  0  0  0
    2.1900   -2.0930    0.0000 H   0  0  0  0  0  0  0  0  0  0  0  0
    3.0369   -1.8660    0.0000 H   0  0  0  0  0  0  0  0  0  0  0  0
    4.4860    1.8100    0.0000 H   0  0  0  0  0  0  0  0  0  0  0  0
    3.8660    2.4300    0.0000 H   0  0  0  0  0  0  0  0  0  0  0  0
    3.2460    1.8100    0.0000 H   0  0  0  0  0  0  0  0  0  0  0  0
    5.2881   -1.7269    0.0000 H   0  0  0  0  0  0  0  0  0  0  0  0
    6.1350   -1.5000    0.0000 H   0  0  0  0  0  0  0  0  0  0  0  0
    5.9081   -0.6531    0.0000 H   0  0  0  0  0  0  0  0  0  0  0  0
  1  4  1  0  0  0  0
  1  5  1  0  0  0  0
  2  3  1  0  0  0  0
  2  6  1  0  0  0  0
  2 10  1  0  0  0  0
  3  4  1  0  0  0  0
  3 14  1  0  0  0  0
  4  7  1  0  0  0  0
  4  8  1  0  0  0  0
  5  6  1  0  0  0  0
  5  9  1  0  0  0  0
  5 11  1  0  0  0  0
  6 12  1  0  0  0  0
  6 13  1  0  0  0  0
  7 15  1  0  0  0  0
  7 16  1  0  0  0  0
  7 17  1  0  0  0  0
  8 18  1  0  0  0  0
  8 19  1  0  0  0  0
  8 20  1  0  0  0  0
  9 21  1  0  0  0  0
  9 22  1  0  0  0  0
  9 23  1  0  0  0  0
 10 24  1  0  0  0  0
 10 25  1  0  0  0  0
 10 26  1  0  0  0  0
M  END
> <PUBCHEM_COMPOUND_CID>
522622
> <PUBCHEM_COMPOUND_CANONICALIZED>
1
> <PUBCHEM_CACTVS_COMPLEXITY>
125
> <PUBCHEM_CACTVS_HBOND_ACCEPTOR>
3
> <PUBCHEM_CACTVS_HBOND_DONOR>
1
> <PUBCHEM_CACTVS_ROTATABLE_BOND>
0
> <PUBCHEM_CACTVS_SUBSKEYS>
AAADceBjAABAAAAAAAAAAAAAAAAAAAAAAAAsAAAAAAAAAAAAAAAAHAQYAAAACAjFQASCAAJiAAgAAAAAAAAAAABAABAQIAAIAAAAAAAAAAAEAAAAEAAgAAAAAAAAAAAAAAAAAAAAAAAAAAAAAAAAAAAAAA==
> <PUBCHEM_IUPAC_OPENEYE_NAME>
2,2,4,6-tetramethyl-1,3,4-thiadiazinane
> <PUBCHEM_IUPAC_CAS_NAME>
2,2,4,6-tetramethyl-1,3,4-thiadiazinane
> <PUBCHEM_IUPAC_NAME_MARKUP>
2,2,4,6-tetramethyl-1,3,4-thiadiazinane
> <PUBCHEM_IUPAC_NAME>
2,2,4,6-tetramethyl-1,3,4-thiadiazinane
> <PUBCHEM_IUPAC_SYSTEMATIC_NAME>
2,2,4,6-tetramethyl-1,3,4-thiadiazinane
> <PUBCHEM_IUPAC_TRADITIONAL_NAME>
2,2,4,6-tetramethyl-1,3,4-thiadiazinane
> <PUBCHEM_IUPAC_INCHI>
InChI=1S/C7H16N2S/c1-6-5-9(4)8-7(2,3)10-6/h6,8H,5H2,1-4H3
> <PUBCHEM_IUPAC_INCHIKEY>
FJEZTOQWNSNCLR-UHFFFAOYSA-N
> <PUBCHEM_XLOGP3_AA>
1.6
> <PUBCHEM_EXACT_MASS>
160.10341969
> <PUBCHEM_MOLECULAR_FORMULA>
C7H16N2S
> <PUBCHEM_MOLECULAR_WEIGHT>
160.28
> <PUBCHEM_OPENEYE_CAN_SMILES>
CC1CN(NC(S1)(C)C)C
> <PUBCHEM_OPENEYE_ISO_SMILES>
CC1CN(NC(S1)(C)C)C
> <PUBCHEM_CACTVS_TPSA>
40.6
> <PUBCHEM_MONOISOTOPIC_WEIGHT>
160.10341969
> <PUBCHEM_TOTAL_CHARGE>
0
> <PUBCHEM_HEAVY_ATOM_COUNT>
10
> <PUBCHEM_ATOM_DEF_STEREO_COUNT>
0
> <PUBCHEM_ATOM_UDEF_STEREO_COUNT>
1
> <PUBCHEM_BOND_DEF_STEREO_COUNT>
0
> <PUBCHEM_BOND_UDEF_STEREO_COUNT>
0
> <PUBCHEM_ISOTOPIC_ATOM_COUNT>
0
> <PUBCHEM_COMPONENT_COUNT>
1
> <PUBCHEM_CACTVS_TAUTO_COUNT>
-1
> <PUBCHEM_COORDINATE_TYPE>
1
5
255
> <PUBCHEM_BONDANNOTATIONS>
5  9  3
$$$$
