522603
  -OEChem-10302200292D
 15 14  0     1  0  0  0  0  0999 V2000
    6.0010   -0.2500    0.0000 S   0  0  0  0  0  0  0  0  0  0  0  0
    4.2690   -1.2500    0.0000 O   0  0  0  0  0  0  0  0  0  0  0  0
    3.4030    0.2500    0.0000 N   0  0  0  0  0  0  0  0  0  0  0  0
    2.5369   -0.2500    0.0000 N   0  0  0  0  0  0  0  0  0  0  0  0
    5.1350    0.2500    0.0000 C   0  0  3  0  0  0  0  0  0  0  0  0
    5.1350    1.2500    0.0000 C   0  0  0  0  0  0  0  0  0  0  0  0
    4.2690   -0.2500    0.0000 C   0  0  0  0  0  0  0  0  0  0  0  0
    5.6720    0.5600    0.0000 H   0  0  0  0  0  0  0  0  0  0  0  0
    5.7550    1.2500    0.0000 H   0  0  0  0  0  0  0  0  0  0  0  0
    5.1350    1.8700    0.0000 H   0  0  0  0  0  0  0  0  0  0  0  0
    4.5150    1.2500    0.0000 H   0  0  0  0  0  0  0  0  0  0  0  0
    3.4030    0.8700    0.0000 H   0  0  0  0  0  0  0  0  0  0  0  0
    6.5380    0.0600    0.0000 H   0  0  0  0  0  0  0  0  0  0  0  0
    2.0000    0.0600    0.0000 H   0  0  0  0  0  0  0  0  0  0  0  0
    2.5369   -0.8700    0.0000 H   0  0  0  0  0  0  0  0  0  0  0  0
  1  5  1  0  0  0  0
  1 13  1  0  0  0  0
  2  7  2  0  0  0  0
  3  4  1  0  0  0  0
  3  7  1  0  0  0  0
  3 12  1  0  0  0  0
  4 14  1  0  0  0  0
  4 15  1  0  0  0  0
  5  6  1  0  0  0  0
  5  7  1  0  0  0  0
  5  8  1  0  0  0  0
  6  9  1  0  0  0  0
  6 10  1  0  0  0  0
  6 11  1  0  0  0  0
M  END
> <PUBCHEM_COMPOUND_CID>
522603
> <PUBCHEM_COMPOUND_CANONICALIZED>
1
> <PUBCHEM_CACTVS_COMPLEXITY>
75.3
> <PUBCHEM_CACTVS_HBOND_ACCEPTOR>
3
> <PUBCHEM_CACTVS_HBOND_DONOR>
3
> <PUBCHEM_CACTVS_ROTATABLE_BOND>
1
> <PUBCHEM_CACTVS_SUBSKEYS>
AAADccBDIABAAAAAAAAAAAAAAAAAAAAAAAAAAAAAAAAAAAAAAAAAHgQYAAAACACFwACCAABiAAQIAAEQEAAAAAAAAAISIAEAAAAAAAAAAAAAAAAAEAAAAAAAAAAAAAAAAAAAAAAAAAAAAAAAAAAAAAAAAA==
> <PUBCHEM_IUPAC_OPENEYE_NAME>
2-sulfanylpropanehydrazide
> <PUBCHEM_IUPAC_CAS_NAME>
2-mercaptopropanehydrazide
> <PUBCHEM_IUPAC_NAME_MARKUP>
2-sulfanylpropanehydrazide
> <PUBCHEM_IUPAC_NAME>
2-sulfanylpropanehydrazide
> <PUBCHEM_IUPAC_SYSTEMATIC_NAME>
2-sulfanylpropanehydrazide
> <PUBCHEM_IUPAC_TRADITIONAL_NAME>
2-mercaptopropionohydrazide
> <PUBCHEM_IUPAC_INCHI>
InChI=1S/C3H8N2OS/c1-2(7)3(6)5-4/h2,7H,4H2,1H3,(H,5,6)
> <PUBCHEM_IUPAC_INCHIKEY>
QFRGFCPPDRVHER-UHFFFAOYSA-N
> <PUBCHEM_XLOGP3_AA>
-0.5
> <PUBCHEM_EXACT_MASS>
120.03573406
> <PUBCHEM_MOLECULAR_FORMULA>
C3H8N2OS
> <PUBCHEM_MOLECULAR_WEIGHT>
120.18
> <PUBCHEM_OPENEYE_CAN_SMILES>
CC(C(=O)NN)S
> <PUBCHEM_OPENEYE_ISO_SMILES>
CC(C(=O)NN)S
> <PUBCHEM_CACTVS_TPSA>
56.1
> <PUBCHEM_MONOISOTOPIC_WEIGHT>
120.03573406
> <PUBCHEM_TOTAL_CHARGE>
0
> <PUBCHEM_HEAVY_ATOM_COUNT>
7
> <PUBCHEM_ATOM_DEF_STEREO_COUNT>
0
> <PUBCHEM_ATOM_UDEF_STEREO_COUNT>
1
> <PUBCHEM_BOND_DEF_STEREO_COUNT>
0
> <PUBCHEM_BOND_UDEF_STEREO_COUNT>
0
> <PUBCHEM_ISOTOPIC_ATOM_COUNT>
0
> <PUBCHEM_COMPONENT_COUNT>
1
> <PUBCHEM_CACTVS_TAUTO_COUNT>
-1
> <PUBCHEM_COORDINATE_TYPE>
1
5
255
> <PUBCHEM_BONDANNOTATIONS>
5  1  3
$$$$
