522770
  -OEChem-10302200292D
 39 42  0     1  0  0  0  0  0999 V2000
    4.6783    1.2933    0.0000 O   0  0  0  0  0  0  0  0  0  0  0  0
    6.7619    2.9641    0.0000 O   0  0  0  0  0  0  0  0  0  0  0  0
    6.2619    2.0981    0.0000 C   0  0  3  0  0  0  0  0  0  0  0  0
    5.2619    2.0981    0.0000 C   0  0  0  0  0  0  0  0  0  0  0  0
    6.7619    1.2320    0.0000 C   0  0  0  0  0  0  0  0  0  0  0  0
    3.7320    2.5981    0.0000 C   0  0  0  0  0  0  0  0  0  0  0  0
    4.6783    2.9028    0.0000 C   0  0  0  0  0  0  0  0  0  0  0  0
    3.7320    1.5981    0.0000 C   0  0  0  0  0  0  0  0  0  0  0  0
    7.7619   -0.5000    0.0000 C   0  0  0  0  0  0  0  0  0  0  0  0
    7.7619    1.2320    0.0000 C   0  0  0  0  0  0  0  0  0  0  0  0
    6.2619    0.3660    0.0000 C   0  0  0  0  0  0  0  0  0  0  0  0
    8.2619    0.3660    0.0000 C   0  0  0  0  0  0  0  0  0  0  0  0
    6.7619   -0.5000    0.0000 C   0  0  0  0  0  0  0  0  0  0  0  0
    8.2619   -1.3660    0.0000 C   0  0  0  0  0  0  0  0  0  0  0  0
    2.8660    3.0981    0.0000 C   0  0  0  0  0  0  0  0  0  0  0  0
    2.8660    1.0981    0.0000 C   0  0  0  0  0  0  0  0  0  0  0  0
    2.0000    2.5981    0.0000 C   0  0  0  0  0  0  0  0  0  0  0  0
    2.0000    1.5981    0.0000 C   0  0  0  0  0  0  0  0  0  0  0  0
    7.7619   -2.2320    0.0000 C   0  0  0  0  0  0  0  0  0  0  0  0
    9.2619   -1.3660    0.0000 C   0  0  0  0  0  0  0  0  0  0  0  0
    8.2619   -3.0981    0.0000 C   0  0  0  0  0  0  0  0  0  0  0  0
    9.7619   -2.2320    0.0000 C   0  0  0  0  0  0  0  0  0  0  0  0
    9.2619   -3.0981    0.0000 C   0  0  0  0  0  0  0  0  0  0  0  0
    6.8819    2.0981    0.0000 H   0  0  0  0  0  0  0  0  0  0  0  0
    4.8709    3.4921    0.0000 H   0  0  0  0  0  0  0  0  0  0  0  0
    8.0719    1.7690    0.0000 H   0  0  0  0  0  0  0  0  0  0  0  0
    5.6419    0.3660    0.0000 H   0  0  0  0  0  0  0  0  0  0  0  0
    8.8819    0.3660    0.0000 H   0  0  0  0  0  0  0  0  0  0  0  0
    6.4519   -1.0369    0.0000 H   0  0  0  0  0  0  0  0  0  0  0  0
    2.8660    3.7181    0.0000 H   0  0  0  0  0  0  0  0  0  0  0  0
    2.8660    0.4781    0.0000 H   0  0  0  0  0  0  0  0  0  0  0  0
    7.3819    2.9641    0.0000 H   0  0  0  0  0  0  0  0  0  0  0  0
    1.4631    2.9081    0.0000 H   0  0  0  0  0  0  0  0  0  0  0  0
    1.4631    1.2881    0.0000 H   0  0  0  0  0  0  0  0  0  0  0  0
    7.1419   -2.2320    0.0000 H   0  0  0  0  0  0  0  0  0  0  0  0
    9.5719   -0.8291    0.0000 H   0  0  0  0  0  0  0  0  0  0  0  0
    7.9519   -3.6350    0.0000 H   0  0  0  0  0  0  0  0  0  0  0  0
   10.3819   -2.2320    0.0000 H   0  0  0  0  0  0  0  0  0  0  0  0
    9.5719   -3.6350    0.0000 H   0  0  0  0  0  0  0  0  0  0  0  0
  1  4  1  0  0  0  0
  1  8  1  0  0  0  0
  2  3  1  0  0  0  0
  2 32  1  0  0  0  0
  3  4  1  0  0  0  0
  3  5  1  0  0  0  0
  3 24  1  0  0  0  0
  4  7  2  0  0  0  0
  5 10  2  0  0  0  0
  5 11  1  0  0  0  0
  6  7  1  0  0  0  0
  6  8  1  0  0  0  0
  6 15  2  0  0  0  0
  7 25  1  0  0  0  0
  8 16  2  0  0  0  0
  9 12  2  0  0  0  0
  9 13  1  0  0  0  0
  9 14  1  0  0  0  0
 10 12  1  0  0  0  0
 10 26  1  0  0  0  0
 11 13  2  0  0  0  0
 11 27  1  0  0  0  0
 12 28  1  0  0  0  0
 13 29  1  0  0  0  0
 14 19  2  0  0  0  0
 14 20  1  0  0  0  0
 15 17  1  0  0  0  0
 15 30  1  0  0  0  0
 16 18  1  0  0  0  0
 16 31  1  0  0  0  0
 17 18  2  0  0  0  0
 17 33  1  0  0  0  0
 18 34  1  0  0  0  0
 19 21  1  0  0  0  0
 19 35  1  0  0  0  0
 20 22  2  0  0  0  0
 20 36  1  0  0  0  0
 21 23  2  0  0  0  0
 21 37  1  0  0  0  0
 22 23  1  0  0  0  0
 22 38  1  0  0  0  0
 23 39  1  0  0  0  0
M  END
> <PUBCHEM_COMPOUND_CID>
522770
> <PUBCHEM_COMPOUND_CANONICALIZED>
1
> <PUBCHEM_CACTVS_COMPLEXITY>
368
> <PUBCHEM_CACTVS_HBOND_ACCEPTOR>
2
> <PUBCHEM_CACTVS_HBOND_DONOR>
1
> <PUBCHEM_CACTVS_ROTATABLE_BOND>
3
> <PUBCHEM_CACTVS_SUBSKEYS>
AAADceB4MAAAAAAAAAAAAAAAAAAAASAAAAAwYMAAAAAAAEgB9AAAGgAACAAADBSgmAIwBsAABkCIAqBSAAICCAAkIAAIiAFGCMgNNjKENRqCeSCkwBELuYeI7PTOwAAAAAAIAACAAAAAABAAAAAAAAAAAA==
> <PUBCHEM_IUPAC_OPENEYE_NAME>
benzofuran-2-yl-(4-phenylphenyl)methanol
> <PUBCHEM_IUPAC_CAS_NAME>
2-benzofuranyl-(4-phenylphenyl)methanol
> <PUBCHEM_IUPAC_NAME_MARKUP>
1-benzofuran-2-yl-(4-phenylphenyl)methanol
> <PUBCHEM_IUPAC_NAME>
1-benzofuran-2-yl-(4-phenylphenyl)methanol
> <PUBCHEM_IUPAC_SYSTEMATIC_NAME>
1-benzofuran-2-yl-(4-phenylphenyl)methanol
> <PUBCHEM_IUPAC_TRADITIONAL_NAME>
benzofuran-2-yl-(4-phenylphenyl)methanol
> <PUBCHEM_IUPAC_INCHI>
InChI=1S/C21H16O2/c22-21(20-14-18-8-4-5-9-19(18)23-20)17-12-10-16(11-13-17)15-6-2-1-3-7-15/h1-14,21-22H
> <PUBCHEM_IUPAC_INCHIKEY>
ARCUPWRDHBYITA-UHFFFAOYSA-N
> <PUBCHEM_XLOGP3_AA>
4.8
> <PUBCHEM_EXACT_MASS>
300.115029749
> <PUBCHEM_MOLECULAR_FORMULA>
C21H16O2
> <PUBCHEM_MOLECULAR_WEIGHT>
300.3
> <PUBCHEM_OPENEYE_CAN_SMILES>
C1=CC=C(C=C1)C2=CC=C(C=C2)C(C3=CC4=CC=CC=C4O3)O
> <PUBCHEM_OPENEYE_ISO_SMILES>
C1=CC=C(C=C1)C2=CC=C(C=C2)C(C3=CC4=CC=CC=C4O3)O
> <PUBCHEM_CACTVS_TPSA>
33.4
> <PUBCHEM_MONOISOTOPIC_WEIGHT>
300.115029749
> <PUBCHEM_TOTAL_CHARGE>
0
> <PUBCHEM_HEAVY_ATOM_COUNT>
23
> <PUBCHEM_ATOM_DEF_STEREO_COUNT>
0
> <PUBCHEM_ATOM_UDEF_STEREO_COUNT>
1
> <PUBCHEM_BOND_DEF_STEREO_COUNT>
0
> <PUBCHEM_BOND_UDEF_STEREO_COUNT>
0
> <PUBCHEM_ISOTOPIC_ATOM_COUNT>
0
> <PUBCHEM_COMPONENT_COUNT>
1
> <PUBCHEM_CACTVS_TAUTO_COUNT>
1
> <PUBCHEM_COORDINATE_TYPE>
1
5
255
> <PUBCHEM_BONDANNOTATIONS>
1  4  8
1  8  8
10  12  8
11  13  8
14  19  8
14  20  8
15  17  8
16  18  8
17  18  8
19  21  8
3  2  3
20  22  8
21  23  8
22  23  8
4  7  8
5  10  8
5  11  8
6  15  8
6  7  8
6  8  8
8  16  8
9  12  8
9  13  8
$$$$
