522700
  -OEChem-10302200292D
 21 20  0     1  0  0  0  0  0999 V2000
    4.2690   -0.3770    0.0000 S   0  0  0  0  0  0  0  0  0  0  0  0
    3.4030   -0.8770    0.0000 P   0  0  0  0  0  0  0  0  0  0  0  0
    2.5369   -1.3770    0.0000 O   0  0  0  0  0  0  0  0  0  0  0  0
    2.9030   -0.0110    0.0000 O   0  0  0  0  0  0  0  0  0  0  0  0
    3.9030   -1.7430    0.0000 O   0  0  0  0  0  0  0  0  0  0  0  0
    6.8671   -0.8770    0.0000 N   0  0  0  0  0  0  0  0  0  0  0  0
    6.8671    1.1230    0.0000 N   0  0  0  0  0  0  0  0  0  0  0  0
    6.0010   -0.3770    0.0000 C   0  0  3  0  0  0  0  0  0  0  0  0
    5.1350   -0.8770    0.0000 C   0  0  0  0  0  0  0  0  0  0  0  0
    6.0010    0.6230    0.0000 C   0  0  0  0  0  0  0  0  0  0  0  0
    6.7372    0.0480    0.0000 H   0  0  0  0  0  0  0  0  0  0  0  0
    4.7365   -1.3519    0.0000 H   0  0  0  0  0  0  0  0  0  0  0  0
    5.5335   -1.3519    0.0000 H   0  0  0  0  0  0  0  0  0  0  0  0
    5.7890    1.2056    0.0000 H   0  0  0  0  0  0  0  0  0  0  0  0
    5.3905    0.5154    0.0000 H   0  0  0  0  0  0  0  0  0  0  0  0
    7.4040   -0.5670    0.0000 H   0  0  0  0  0  0  0  0  0  0  0  0
    6.8671   -1.4970    0.0000 H   0  0  0  0  0  0  0  0  0  0  0  0
    6.8671    1.7430    0.0000 H   0  0  0  0  0  0  0  0  0  0  0  0
    7.4040    0.8130    0.0000 H   0  0  0  0  0  0  0  0  0  0  0  0
    2.0000   -1.0670    0.0000 H   0  0  0  0  0  0  0  0  0  0  0  0
    3.2130    0.5260    0.0000 H   0  0  0  0  0  0  0  0  0  0  0  0
  1  2  1  0  0  0  0
  1  9  1  0  0  0  0
  2  3  1  0  0  0  0
  2  4  1  0  0  0  0
  2  5  2  0  0  0  0
  3 20  1  0  0  0  0
  4 21  1  0  0  0  0
  6  8  1  0  0  0  0
  6 16  1  0  0  0  0
  6 17  1  0  0  0  0
  7 10  1  0  0  0  0
  7 18  1  0  0  0  0
  7 19  1  0  0  0  0
  8  9  1  0  0  0  0
  8 10  1  0  0  0  0
  8 11  1  0  0  0  0
  9 12  1  0  0  0  0
  9 13  1  0  0  0  0
 10 14  1  0  0  0  0
 10 15  1  0  0  0  0
M  END
> <PUBCHEM_COMPOUND_CID>
522700
> <PUBCHEM_COMPOUND_CANONICALIZED>
1
> <PUBCHEM_CACTVS_COMPLEXITY>
138
> <PUBCHEM_CACTVS_HBOND_ACCEPTOR>
6
> <PUBCHEM_CACTVS_HBOND_DONOR>
4
> <PUBCHEM_CACTVS_ROTATABLE_BOND>
4
> <PUBCHEM_CACTVS_SUBSKEYS>
AAADccBDMAJAAAAAAAAAAAAAAAAAAAAAAAAAAAAAAAAAAAAAAAAAHAQQCCAACCjFQASAAABAABAAQAAAAIAAAAAAAAAAAIAAAAAAQAAAAAAAAAAAEAAAAAAAAAAAAAAAAAAAAAAAAAAAAAAAAAAAAAAAAA==
> <PUBCHEM_IUPAC_OPENEYE_NAME>
2,3-diaminopropylsulfanylphosphonic acid
> <PUBCHEM_IUPAC_CAS_NAME>
(2,3-diaminopropylthio)phosphonic acid
> <PUBCHEM_IUPAC_NAME_MARKUP>
2,3-diaminopropylsulfanylphosphonic acid
> <PUBCHEM_IUPAC_NAME>
2,3-diaminopropylsulfanylphosphonic acid
> <PUBCHEM_IUPAC_SYSTEMATIC_NAME>
2,3-bis(azanyl)propylsulfanylphosphonic acid
> <PUBCHEM_IUPAC_TRADITIONAL_NAME>
(2,3-diaminopropylthio)phosphonic acid
> <PUBCHEM_IUPAC_INCHI>
InChI=1S/C3H11N2O3PS/c4-1-3(5)2-10-9(6,7)8/h3H,1-2,4-5H2,(H2,6,7,8)
> <PUBCHEM_IUPAC_INCHIKEY>
TXLJMOJYKYDULH-UHFFFAOYSA-N
> <PUBCHEM_XLOGP3_AA>
-5.3
> <PUBCHEM_EXACT_MASS>
186.02280039
> <PUBCHEM_MOLECULAR_FORMULA>
C3H11N2O3PS
> <PUBCHEM_MOLECULAR_WEIGHT>
186.17
> <PUBCHEM_OPENEYE_CAN_SMILES>
C(C(CSP(=O)(O)O)N)N
> <PUBCHEM_OPENEYE_ISO_SMILES>
C(C(CSP(=O)(O)O)N)N
> <PUBCHEM_CACTVS_TPSA>
135
> <PUBCHEM_MONOISOTOPIC_WEIGHT>
186.02280039
> <PUBCHEM_TOTAL_CHARGE>
0
> <PUBCHEM_HEAVY_ATOM_COUNT>
10
> <PUBCHEM_ATOM_DEF_STEREO_COUNT>
0
> <PUBCHEM_ATOM_UDEF_STEREO_COUNT>
1
> <PUBCHEM_BOND_DEF_STEREO_COUNT>
0
> <PUBCHEM_BOND_UDEF_STEREO_COUNT>
0
> <PUBCHEM_ISOTOPIC_ATOM_COUNT>
0
> <PUBCHEM_COMPONENT_COUNT>
1
> <PUBCHEM_CACTVS_TAUTO_COUNT>
1
> <PUBCHEM_COORDINATE_TYPE>
1
5
255
> <PUBCHEM_BONDANNOTATIONS>
8  11  3
$$$$
