522715
  -OEChem-10302200292D
 21 21  0     1  0  0  0  0  0999 V2000
    4.0179    1.6407    0.0000 O   0  0  0  0  0  0  0  0  0  0  0  0
    3.7044   -1.7252    0.0000 N   0  0  0  0  0  0  0  0  0  0  0  0
    2.6166    0.6226    0.0000 N   0  0  0  0  0  0  0  0  0  0  0  0
    3.2044   -0.1864    0.0000 C   0  0  3  0  0  0  0  0  0  0  0  0
    4.2044   -0.1864    0.0000 C   0  0  0  0  0  0  0  0  0  0  0  0
    2.8954   -1.1374    0.0000 C   0  0  0  0  0  0  0  0  0  0  0  0
    4.5134   -1.1374    0.0000 C   0  0  0  0  0  0  0  0  0  0  0  0
    3.0233    1.5362    0.0000 C   0  0  0  0  0  0  0  0  0  0  0  0
    2.4356    2.3452    0.0000 C   0  0  0  0  0  0  0  0  0  0  0  0
    2.5920   -0.2834    0.0000 H   0  0  0  0  0  0  0  0  0  0  0  0
    4.8108   -0.0575    0.0000 H   0  0  0  0  0  0  0  0  0  0  0  0
    4.1396    0.4302    0.0000 H   0  0  0  0  0  0  0  0  0  0  0  0
    2.3290   -0.8852    0.0000 H   0  0  0  0  0  0  0  0  0  0  0  0
    2.5854   -1.6744    0.0000 H   0  0  0  0  0  0  0  0  0  0  0  0
    4.8234   -1.6744    0.0000 H   0  0  0  0  0  0  0  0  0  0  0  0
    5.0798   -0.8852    0.0000 H   0  0  0  0  0  0  0  0  0  0  0  0
    3.7044   -2.3452    0.0000 H   0  0  0  0  0  0  0  0  0  0  0  0
    2.0000    0.5578    0.0000 H   0  0  0  0  0  0  0  0  0  0  0  0
    2.9372    2.7096    0.0000 H   0  0  0  0  0  0  0  0  0  0  0  0
    2.0711    2.8468    0.0000 H   0  0  0  0  0  0  0  0  0  0  0  0
    1.9340    1.9808    0.0000 H   0  0  0  0  0  0  0  0  0  0  0  0
  1  8  2  0  0  0  0
  2  6  1  0  0  0  0
  2  7  1  0  0  0  0
  2 17  1  0  0  0  0
  3  4  1  0  0  0  0
  3  8  1  0  0  0  0
  3 18  1  0  0  0  0
  4  5  1  0  0  0  0
  4  6  1  0  0  0  0
  4 10  1  0  0  0  0
  5  7  1  0  0  0  0
  5 11  1  0  0  0  0
  5 12  1  0  0  0  0
  6 13  1  0  0  0  0
  6 14  1  0  0  0  0
  7 15  1  0  0  0  0
  7 16  1  0  0  0  0
  8  9  1  0  0  0  0
  9 19  1  0  0  0  0
  9 20  1  0  0  0  0
  9 21  1  0  0  0  0
M  END
> <PUBCHEM_COMPOUND_CID>
522715
> <PUBCHEM_COMPOUND_CANONICALIZED>
1
> <PUBCHEM_CACTVS_COMPLEXITY>
114
> <PUBCHEM_CACTVS_HBOND_ACCEPTOR>
2
> <PUBCHEM_CACTVS_HBOND_DONOR>
2
> <PUBCHEM_CACTVS_ROTATABLE_BOND>
1
> <PUBCHEM_CACTVS_SUBSKEYS>
AAADccBjIAAAAAAAAAAAAAAAAAAAAWAAAAAAAAAAAAAAAAAAAAAAHgAQAAAACCjBgAQCAALAAAAIAAEQEAAAAAAAAAAAAIAIAAAAQAAAwAAUAAAAFgCAAAAAAAAAAAAAAAAAAAAAAAAAAAAAAAAAAAAAAA==
> <PUBCHEM_IUPAC_OPENEYE_NAME>
N-pyrrolidin-3-ylacetamide
> <PUBCHEM_IUPAC_CAS_NAME>
N-(3-pyrrolidinyl)acetamide
> <PUBCHEM_IUPAC_NAME_MARKUP>
<I>N</I>-pyrrolidin-3-ylacetamide
> <PUBCHEM_IUPAC_NAME>
N-pyrrolidin-3-ylacetamide
> <PUBCHEM_IUPAC_SYSTEMATIC_NAME>
N-pyrrolidin-3-ylethanamide
> <PUBCHEM_IUPAC_TRADITIONAL_NAME>
N-pyrrolidin-3-ylacetamide
> <PUBCHEM_IUPAC_INCHI>
InChI=1S/C6H12N2O/c1-5(9)8-6-2-3-7-4-6/h6-7H,2-4H2,1H3,(H,8,9)
> <PUBCHEM_IUPAC_INCHIKEY>
HDCCJUCOIKLZNM-UHFFFAOYSA-N
> <PUBCHEM_XLOGP3_AA>
-0.7
> <PUBCHEM_EXACT_MASS>
128.094963011
> <PUBCHEM_MOLECULAR_FORMULA>
C6H12N2O
> <PUBCHEM_MOLECULAR_WEIGHT>
128.17
> <PUBCHEM_OPENEYE_CAN_SMILES>
CC(=O)NC1CCNC1
> <PUBCHEM_OPENEYE_ISO_SMILES>
CC(=O)NC1CCNC1
> <PUBCHEM_CACTVS_TPSA>
41.1
> <PUBCHEM_MONOISOTOPIC_WEIGHT>
128.094963011
> <PUBCHEM_TOTAL_CHARGE>
0
> <PUBCHEM_HEAVY_ATOM_COUNT>
9
> <PUBCHEM_ATOM_DEF_STEREO_COUNT>
0
> <PUBCHEM_ATOM_UDEF_STEREO_COUNT>
1
> <PUBCHEM_BOND_DEF_STEREO_COUNT>
0
> <PUBCHEM_BOND_UDEF_STEREO_COUNT>
0
> <PUBCHEM_ISOTOPIC_ATOM_COUNT>
0
> <PUBCHEM_COMPONENT_COUNT>
1
> <PUBCHEM_CACTVS_TAUTO_COUNT>
-1
> <PUBCHEM_COORDINATE_TYPE>
1
5
255
> <PUBCHEM_BONDANNOTATIONS>
4  3  3
$$$$
