522739
  -OEChem-10302200292D
 49 50  0     1  0  0  0  0  0999 V2000
    2.8660   -4.2359    0.0000 F   0  0  0  0  0  0  0  0  0  0  0  0
   10.8077    2.4280    0.0000 F   0  0  0  0  0  0  0  0  0  0  0  0
    4.5981   -0.2359    0.0000 O   0  0  0  0  0  0  0  0  0  0  0  0
    6.5677    1.4168    0.0000 O   0  0  0  0  0  0  0  0  0  0  0  0
    2.0000    1.2641    0.0000 O   0  0  0  0  0  0  0  0  0  0  0  0
    3.9140    3.6435    0.0000 O   0  0  0  0  0  0  0  0  0  0  0  0
    2.8660   -0.2359    0.0000 N   0  0  0  0  0  0  0  0  0  0  0  0
    6.8685    3.1226    0.0000 N   0  0  0  0  0  0  0  0  0  0  0  0
    4.5981    1.7641    0.0000 C   0  0  0  0  0  0  0  0  0  0  0  0
    3.7320    1.2641    0.0000 C   0  0  3  0  0  0  0  0  0  0  0  0
    5.2409    2.5302    0.0000 C   0  0  3  0  0  0  0  0  0  0  0  0
    3.7320    0.2641    0.0000 C   0  0  0  0  0  0  0  0  0  0  0  0
    6.2257    2.3565    0.0000 C   0  0  0  0  0  0  0  0  0  0  0  0
    2.8660    1.7641    0.0000 C   0  0  0  0  0  0  0  0  0  0  0  0
    4.8988    3.4698    0.0000 C   0  0  0  0  0  0  0  0  0  0  0  0
    2.2232    2.5302    0.0000 C   0  0  0  0  0  0  0  0  0  0  0  0
    5.5416    4.2359    0.0000 C   0  0  0  0  0  0  0  0  0  0  0  0
    2.8660   -1.2359    0.0000 C   0  0  0  0  0  0  0  0  0  0  0  0
    7.8533    2.9489    0.0000 C   0  0  0  0  0  0  0  0  0  0  0  0
    2.0000   -1.7359    0.0000 C   0  0  0  0  0  0  0  0  0  0  0  0
    8.1953    2.0092    0.0000 C   0  0  0  0  0  0  0  0  0  0  0  0
    3.7320   -1.7359    0.0000 C   0  0  0  0  0  0  0  0  0  0  0  0
    8.4960    3.7150    0.0000 C   0  0  0  0  0  0  0  0  0  0  0  0
    2.0000   -2.7359    0.0000 C   0  0  0  0  0  0  0  0  0  0  0  0
    9.1801    1.8356    0.0000 C   0  0  0  0  0  0  0  0  0  0  0  0
    3.7320   -2.7359    0.0000 C   0  0  0  0  0  0  0  0  0  0  0  0
    9.4809    3.5413    0.0000 C   0  0  0  0  0  0  0  0  0  0  0  0
    2.8660   -3.2359    0.0000 C   0  0  0  0  0  0  0  0  0  0  0  0
    9.8229    2.6016    0.0000 C   0  0  0  0  0  0  0  0  0  0  0  0
    4.6700    1.1483    0.0000 H   0  0  0  0  0  0  0  0  0  0  0  0
    4.1996    2.2391    0.0000 H   0  0  0  0  0  0  0  0  0  0  0  0
    3.7320    1.8841    0.0000 H   0  0  0  0  0  0  0  0  0  0  0  0
    4.6303    2.6378    0.0000 H   0  0  0  0  0  0  0  0  0  0  0  0
    2.3291    0.0741    0.0000 H   0  0  0  0  0  0  0  0  0  0  0  0
    6.6564    3.7052    0.0000 H   0  0  0  0  0  0  0  0  0  0  0  0
    2.6982    2.9287    0.0000 H   0  0  0  0  0  0  0  0  0  0  0  0
    1.8247    3.0051    0.0000 H   0  0  0  0  0  0  0  0  0  0  0  0
    1.7483    2.1316    0.0000 H   0  0  0  0  0  0  0  0  0  0  0  0
    6.0166    3.8374    0.0000 H   0  0  0  0  0  0  0  0  0  0  0  0
    5.9402    4.7108    0.0000 H   0  0  0  0  0  0  0  0  0  0  0  0
    5.0667    4.6344    0.0000 H   0  0  0  0  0  0  0  0  0  0  0  0
    1.4631   -1.4259    0.0000 H   0  0  0  0  0  0  0  0  0  0  0  0
    7.7968    1.5343    0.0000 H   0  0  0  0  0  0  0  0  0  0  0  0
    4.2690   -1.4259    0.0000 H   0  0  0  0  0  0  0  0  0  0  0  0
    8.2840    4.2976    0.0000 H   0  0  0  0  0  0  0  0  0  0  0  0
    1.4631   -3.0459    0.0000 H   0  0  0  0  0  0  0  0  0  0  0  0
    9.3922    1.2530    0.0000 H   0  0  0  0  0  0  0  0  0  0  0  0
    4.2690   -3.0459    0.0000 H   0  0  0  0  0  0  0  0  0  0  0  0
    9.8794    4.0162    0.0000 H   0  0  0  0  0  0  0  0  0  0  0  0
  1 28  1  0  0  0  0
  2 29  1  0  0  0  0
  3 12  2  0  0  0  0
  4 13  2  0  0  0  0
  5 14  2  0  0  0  0
  6 15  2  0  0  0  0
  7 12  1  0  0  0  0
  7 18  1  0  0  0  0
  7 34  1  0  0  0  0
  8 13  1  0  0  0  0
  8 19  1  0  0  0  0
  8 35  1  0  0  0  0
  9 10  1  0  0  0  0
  9 11  1  0  0  0  0
  9 30  1  0  0  0  0
  9 31  1  0  0  0  0
 10 12  1  0  0  0  0
 10 14  1  0  0  0  0
 10 32  1  0  0  0  0
 11 13  1  0  0  0  0
 11 15  1  0  0  0  0
 11 33  1  0  0  0  0
 14 16  1  0  0  0  0
 15 17  1  0  0  0  0
 16 36  1  0  0  0  0
 16 37  1  0  0  0  0
 16 38  1  0  0  0  0
 17 39  1  0  0  0  0
 17 40  1  0  0  0  0
 17 41  1  0  0  0  0
 18 20  2  0  0  0  0
 18 22  1  0  0  0  0
 19 21  2  0  0  0  0
 19 23  1  0  0  0  0
 20 24  1  0  0  0  0
 20 42  1  0  0  0  0
 21 25  1  0  0  0  0
 21 43  1  0  0  0  0
 22 26  2  0  0  0  0
 22 44  1  0  0  0  0
 23 27  2  0  0  0  0
 23 45  1  0  0  0  0
 24 28  2  0  0  0  0
 24 46  1  0  0  0  0
 25 29  2  0  0  0  0
 25 47  1  0  0  0  0
 26 28  1  0  0  0  0
 26 48  1  0  0  0  0
 27 29  1  0  0  0  0
 27 49  1  0  0  0  0
M  END
> <PUBCHEM_COMPOUND_CID>
522739
> <PUBCHEM_COMPOUND_CANONICALIZED>
1
> <PUBCHEM_CACTVS_COMPLEXITY>
560
> <PUBCHEM_CACTVS_HBOND_ACCEPTOR>
6
> <PUBCHEM_CACTVS_HBOND_DONOR>
2
> <PUBCHEM_CACTVS_ROTATABLE_BOND>
8
> <PUBCHEM_CACTVS_SUBSKEYS>
AAADceB7OYAAAAAAAAAAAAAAAAAAAAAAAAAwYAAAAAAAAAABQAAAHwAQAAAADQyBkAgywILAAACIAKVSUACCAAAhAgAIiAEAZIgIIDrIkZGEIAhglADIyAcYiwAuAAAAAAAAAAAAAAAAAAAAAAAAAAAAAA==
> <PUBCHEM_IUPAC_OPENEYE_NAME>
2,4-diacetyl-N,N'-bis(4-fluorophenyl)pentanediamide
> <PUBCHEM_IUPAC_CAS_NAME>
2,4-diacetyl-N,N'-bis(4-fluorophenyl)pentanediamide
> <PUBCHEM_IUPAC_NAME_MARKUP>
2,4-diacetyl-<I>N</I>,<I>N</I>&apos;-bis(4-fluorophenyl)pentanediamide
> <PUBCHEM_IUPAC_NAME>
2,4-diacetyl-N,N'-bis(4-fluorophenyl)pentanediamide
> <PUBCHEM_IUPAC_SYSTEMATIC_NAME>
2,4-diethanoyl-N,N'-bis(4-fluorophenyl)pentanediamide
> <PUBCHEM_IUPAC_TRADITIONAL_NAME>
2,4-diacetyl-N,N'-bis(4-fluorophenyl)glutaramide
> <PUBCHEM_IUPAC_INCHI>
InChI=1S/C21H20F2N2O4/c1-12(26)18(20(28)24-16-7-3-14(22)4-8-16)11-19(13(2)27)21(29)25-17-9-5-15(23)6-10-17/h3-10,18-19H,11H2,1-2H3,(H,24,28)(H,25,29)
> <PUBCHEM_IUPAC_INCHIKEY>
NGEIWFJRFMSXKY-UHFFFAOYSA-N
> <PUBCHEM_XLOGP3_AA>
3.4
> <PUBCHEM_EXACT_MASS>
402.13911345
> <PUBCHEM_MOLECULAR_FORMULA>
C21H20F2N2O4
> <PUBCHEM_MOLECULAR_WEIGHT>
402.4
> <PUBCHEM_OPENEYE_CAN_SMILES>
CC(=O)C(CC(C(=O)C)C(=O)NC1=CC=C(C=C1)F)C(=O)NC2=CC=C(C=C2)F
> <PUBCHEM_OPENEYE_ISO_SMILES>
CC(=O)C(CC(C(=O)C)C(=O)NC1=CC=C(C=C1)F)C(=O)NC2=CC=C(C=C2)F
> <PUBCHEM_CACTVS_TPSA>
92.3
> <PUBCHEM_MONOISOTOPIC_WEIGHT>
402.13911345
> <PUBCHEM_TOTAL_CHARGE>
0
> <PUBCHEM_HEAVY_ATOM_COUNT>
29
> <PUBCHEM_ATOM_DEF_STEREO_COUNT>
0
> <PUBCHEM_ATOM_UDEF_STEREO_COUNT>
2
> <PUBCHEM_BOND_DEF_STEREO_COUNT>
0
> <PUBCHEM_BOND_UDEF_STEREO_COUNT>
0
> <PUBCHEM_ISOTOPIC_ATOM_COUNT>
0
> <PUBCHEM_COMPONENT_COUNT>
1
> <PUBCHEM_CACTVS_TAUTO_COUNT>
-1
> <PUBCHEM_COORDINATE_TYPE>
1
5
255
> <PUBCHEM_BONDANNOTATIONS>
18  20  8
18  22  8
19  21  8
19  23  8
20  24  8
21  25  8
22  26  8
23  27  8
24  28  8
25  29  8
26  28  8
27  29  8
10  9  3
11  9  3
$$$$
