522737
  -OEChem-10302200292D
 35 37  0     1  0  0  0  0  0999 V2000
    5.8055    0.7369    0.0000 O   0  0  0  0  0  0  0  0  0  0  0  0
    8.1515   -0.3550    0.0000 O   0  0  0  0  0  0  0  0  0  0  0  0
    8.1552    1.8206    0.0000 O   0  0  0  0  0  0  0  0  0  0  0  0
    6.7577    3.2384    0.0000 O   0  0  0  0  0  0  0  0  0  0  0  0
    6.0812   -1.0237    0.0000 N   0  0  0  0  0  0  0  0  0  0  0  0
    6.0812   -2.6332    0.0000 N   0  0  0  0  0  0  0  0  0  0  0  0
    4.2690   -0.8284    0.0000 N   0  0  0  0  0  0  0  0  0  0  0  0
    3.4030   -2.3284    0.0000 N   0  0  0  0  0  0  0  0  0  0  0  0
    2.5369   -0.8284    0.0000 N   0  0  0  0  0  0  0  0  0  0  0  0
    7.3435    0.2342    0.0000 C   0  0  3  0  0  0  0  0  0  0  0  0
    6.3919   -0.0732    0.0000 C   0  0  3  0  0  0  0  0  0  0  0  0
    7.3452    1.2342    0.0000 C   0  0  3  0  0  0  0  0  0  0  0  0
    6.3947    1.5449    0.0000 C   0  0  3  0  0  0  0  0  0  0  0  0
    6.0873    2.4964    0.0000 C   0  0  0  0  0  0  0  0  0  0  0  0
    5.1350   -1.3284    0.0000 C   0  0  0  0  0  0  0  0  0  0  0  0
    6.6648   -1.8284    0.0000 C   0  0  0  0  0  0  0  0  0  0  0  0
    5.1350   -2.3284    0.0000 C   0  0  0  0  0  0  0  0  0  0  0  0
    4.2690   -2.8284    0.0000 C   0  0  0  0  0  0  0  0  0  0  0  0
    3.4030   -1.3284    0.0000 C   0  0  0  0  0  0  0  0  0  0  0  0
    4.2690   -3.8284    0.0000 C   0  0  0  0  0  0  0  0  0  0  0  0
    7.2454   -0.3780    0.0000 H   0  0  0  0  0  0  0  0  0  0  0  0
    5.7794   -0.1691    0.0000 H   0  0  0  0  0  0  0  0  0  0  0  0
    7.2493    1.8467    0.0000 H   0  0  0  0  0  0  0  0  0  0  0  0
    5.7825    1.6429    0.0000 H   0  0  0  0  0  0  0  0  0  0  0  0
    5.7065    2.9857    0.0000 H   0  0  0  0  0  0  0  0  0  0  0  0
    5.5394    2.2063    0.0000 H   0  0  0  0  0  0  0  0  0  0  0  0
    8.7183   -0.1038    0.0000 H   0  0  0  0  0  0  0  0  0  0  0  0
    8.7212    1.5674    0.0000 H   0  0  0  0  0  0  0  0  0  0  0  0
    7.2848   -1.8284    0.0000 H   0  0  0  0  0  0  0  0  0  0  0  0
    6.5672    3.8284    0.0000 H   0  0  0  0  0  0  0  0  0  0  0  0
    3.6490   -3.8284    0.0000 H   0  0  0  0  0  0  0  0  0  0  0  0
    4.2690   -4.4484    0.0000 H   0  0  0  0  0  0  0  0  0  0  0  0
    4.8890   -3.8284    0.0000 H   0  0  0  0  0  0  0  0  0  0  0  0
    2.0000   -1.1384    0.0000 H   0  0  0  0  0  0  0  0  0  0  0  0
    2.5369   -0.2084    0.0000 H   0  0  0  0  0  0  0  0  0  0  0  0
  1 11  1  0  0  0  0
  1 13  1  0  0  0  0
  2 10  1  0  0  0  0
  2 27  1  0  0  0  0
  3 12  1  0  0  0  0
  3 28  1  0  0  0  0
  4 14  1  0  0  0  0
  4 30  1  0  0  0  0
  5 11  1  0  0  0  0
  5 15  1  0  0  0  0
  5 16  1  0  0  0  0
  6 16  2  0  0  0  0
  6 17  1  0  0  0  0
  7 15  2  0  0  0  0
  7 19  1  0  0  0  0
  8 18  1  0  0  0  0
  8 19  2  0  0  0  0
  9 19  1  0  0  0  0
  9 34  1  0  0  0  0
  9 35  1  0  0  0  0
 10 11  1  0  0  0  0
 10 12  1  0  0  0  0
 10 21  1  0  0  0  0
 11 22  1  0  0  0  0
 12 13  1  0  0  0  0
 12 23  1  0  0  0  0
 13 14  1  0  0  0  0
 13 24  1  0  0  0  0
 14 25  1  0  0  0  0
 14 26  1  0  0  0  0
 15 17  1  0  0  0  0
 16 29  1  0  0  0  0
 17 18  2  0  0  0  0
 18 20  1  0  0  0  0
 20 31  1  0  0  0  0
 20 32  1  0  0  0  0
 20 33  1  0  0  0  0
M  END
> <PUBCHEM_COMPOUND_CID>
522737
> <PUBCHEM_COMPOUND_CANONICALIZED>
1
> <PUBCHEM_CACTVS_COMPLEXITY>
362
> <PUBCHEM_CACTVS_HBOND_ACCEPTOR>
8
> <PUBCHEM_CACTVS_HBOND_DONOR>
4
> <PUBCHEM_CACTVS_ROTATABLE_BOND>
2
> <PUBCHEM_CACTVS_SUBSKEYS>
AAADccBzuAAAAAAAAAAAAAAAAAAAAWJAAAAsAAAAAAAAAFgB+AAAHgAQCAAACBzhlwYH8L9MFgCgAQZhZACAgC0xEKABWCA4VBiDeAJAyMAeRAhPAALTQCDwMAIAAAAAAAAAAAAAAAAAAAAAAAAAAAAAAA==
> <PUBCHEM_IUPAC_OPENEYE_NAME>
2-(2-amino-6-methyl-purin-9-yl)-5-(hydroxymethyl)tetrahydrofuran-3,4-diol
> <PUBCHEM_IUPAC_CAS_NAME>
2-(2-amino-6-methyl-9-purinyl)-5-(hydroxymethyl)oxolane-3,4-diol
> <PUBCHEM_IUPAC_NAME_MARKUP>
2-(2-amino-6-methylpurin-9-yl)-5-(hydroxymethyl)oxolane-3,4-diol
> <PUBCHEM_IUPAC_NAME>
2-(2-amino-6-methylpurin-9-yl)-5-(hydroxymethyl)oxolane-3,4-diol
> <PUBCHEM_IUPAC_SYSTEMATIC_NAME>
2-(2-azanyl-6-methyl-purin-9-yl)-5-(hydroxymethyl)oxolane-3,4-diol
> <PUBCHEM_IUPAC_TRADITIONAL_NAME>
2-(2-amino-6-methyl-purin-9-yl)-5-methylol-tetrahydrofuran-3,4-diol
> <PUBCHEM_IUPAC_INCHI>
InChI=1S/C11H15N5O4/c1-4-6-9(15-11(12)14-4)16(3-13-6)10-8(19)7(18)5(2-17)20-10/h3,5,7-8,10,17-19H,2H2,1H3,(H2,12,14,15)
> <PUBCHEM_IUPAC_INCHIKEY>
JHXGWEHJKJZKOJ-UHFFFAOYSA-N
> <PUBCHEM_XLOGP3>
-0.6
> <PUBCHEM_EXACT_MASS>
281.11240398
> <PUBCHEM_MOLECULAR_FORMULA>
C11H15N5O4
> <PUBCHEM_MOLECULAR_WEIGHT>
281.27
> <PUBCHEM_OPENEYE_CAN_SMILES>
CC1=C2C(=NC(=N1)N)N(C=N2)C3C(C(C(O3)CO)O)O
> <PUBCHEM_OPENEYE_ISO_SMILES>
CC1=C2C(=NC(=N1)N)N(C=N2)C3C(C(C(O3)CO)O)O
> <PUBCHEM_CACTVS_TPSA>
140
> <PUBCHEM_MONOISOTOPIC_WEIGHT>
281.11240398
> <PUBCHEM_TOTAL_CHARGE>
0
> <PUBCHEM_HEAVY_ATOM_COUNT>
20
> <PUBCHEM_ATOM_DEF_STEREO_COUNT>
0
> <PUBCHEM_ATOM_UDEF_STEREO_COUNT>
4
> <PUBCHEM_BOND_DEF_STEREO_COUNT>
0
> <PUBCHEM_BOND_UDEF_STEREO_COUNT>
0
> <PUBCHEM_ISOTOPIC_ATOM_COUNT>
0
> <PUBCHEM_COMPONENT_COUNT>
1
> <PUBCHEM_CACTVS_TAUTO_COUNT>
-1
> <PUBCHEM_COORDINATE_TYPE>
1
5
255
> <PUBCHEM_BONDANNOTATIONS>
13  14  3
15  17  8
17  18  8
10  2  3
12  3  3
11  5  3
5  15  8
5  16  8
6  16  8
6  17  8
7  15  8
7  19  8
8  18  8
8  19  8
$$$$
