522886
  -OEChem-10302200292D
 43 42  0     1  0  0  0  0  0999 V2000
    4.0000   -0.7500    0.0000 P   0  0  0  0  0  0  0  0  0  0  0  0
    3.1340   -1.2500    0.0000 O   0  0  0  0  0  0  0  0  0  0  0  0
    3.5000    0.1160    0.0000 O   0  0  0  0  0  0  0  0  0  0  0  0
    4.5000   -1.6160    0.0000 O   0  0  0  0  0  0  0  0  0  0  0  0
    6.5981   -0.2500    0.0000 O   0  0  0  0  0  0  0  0  0  0  0  0
    5.7320   -1.7500    0.0000 O   0  0  0  0  0  0  0  0  0  0  0  0
    5.7320    2.2500    0.0000 O   0  0  0  0  0  0  0  0  0  0  0  0
    6.5981    0.7500    0.0000 O   0  0  0  0  0  0  0  0  0  0  0  0
    4.8660   -0.2500    0.0000 C   0  0  3  0  0  0  0  0  0  0  0  0
    4.8660    0.7500    0.0000 C   0  0  0  0  0  0  0  0  0  0  0  0
    3.1340   -2.2500    0.0000 C   0  0  0  0  0  0  0  0  0  0  0  0
    2.5000    0.1160    0.0000 C   0  0  0  0  0  0  0  0  0  0  0  0
    5.7320   -0.7500    0.0000 C   0  0  0  0  0  0  0  0  0  0  0  0
    5.7320    1.2500    0.0000 C   0  0  0  0  0  0  0  0  0  0  0  0
    2.2680   -2.7500    0.0000 C   0  0  0  0  0  0  0  0  0  0  0  0
    4.0000   -2.7500    0.0000 C   0  0  0  0  0  0  0  0  0  0  0  0
    2.0000    0.9821    0.0000 C   0  0  0  0  0  0  0  0  0  0  0  0
    2.0000   -0.7500    0.0000 C   0  0  0  0  0  0  0  0  0  0  0  0
    7.4641   -0.7500    0.0000 C   0  0  0  0  0  0  0  0  0  0  0  0
    6.5981    2.7500    0.0000 C   0  0  0  0  0  0  0  0  0  0  0  0
    4.3291    0.0600    0.0000 H   0  0  0  0  0  0  0  0  0  0  0  0
    4.6540    1.3326    0.0000 H   0  0  0  0  0  0  0  0  0  0  0  0
    4.2554    0.6423    0.0000 H   0  0  0  0  0  0  0  0  0  0  0  0
    3.6709   -1.9400    0.0000 H   0  0  0  0  0  0  0  0  0  0  0  0
    2.8100   -0.4209    0.0000 H   0  0  0  0  0  0  0  0  0  0  0  0
    1.9580   -2.2131    0.0000 H   0  0  0  0  0  0  0  0  0  0  0  0
    1.7310   -3.0600    0.0000 H   0  0  0  0  0  0  0  0  0  0  0  0
    2.5780   -3.2869    0.0000 H   0  0  0  0  0  0  0  0  0  0  0  0
    3.6900   -3.2869    0.0000 H   0  0  0  0  0  0  0  0  0  0  0  0
    4.5369   -3.0600    0.0000 H   0  0  0  0  0  0  0  0  0  0  0  0
    4.3100   -2.2131    0.0000 H   0  0  0  0  0  0  0  0  0  0  0  0
    2.5369    1.2920    0.0000 H   0  0  0  0  0  0  0  0  0  0  0  0
    1.6900    1.5190    0.0000 H   0  0  0  0  0  0  0  0  0  0  0  0
    1.4631    0.6721    0.0000 H   0  0  0  0  0  0  0  0  0  0  0  0
    1.4631   -0.4400    0.0000 H   0  0  0  0  0  0  0  0  0  0  0  0
    1.6900   -1.2869    0.0000 H   0  0  0  0  0  0  0  0  0  0  0  0
    2.5369   -1.0600    0.0000 H   0  0  0  0  0  0  0  0  0  0  0  0
    7.1541   -1.2869    0.0000 H   0  0  0  0  0  0  0  0  0  0  0  0
    8.0010   -1.0600    0.0000 H   0  0  0  0  0  0  0  0  0  0  0  0
    7.7741   -0.2131    0.0000 H   0  0  0  0  0  0  0  0  0  0  0  0
    6.9081    2.2131    0.0000 H   0  0  0  0  0  0  0  0  0  0  0  0
    7.1350    3.0600    0.0000 H   0  0  0  0  0  0  0  0  0  0  0  0
    6.2881    3.2869    0.0000 H   0  0  0  0  0  0  0  0  0  0  0  0
  1  2  1  0  0  0  0
  1  3  1  0  0  0  0
  1  4  2  0  0  0  0
  1  9  1  0  0  0  0
  2 11  1  0  0  0  0
  3 12  1  0  0  0  0
  5 13  1  0  0  0  0
  5 19  1  0  0  0  0
  6 13  2  0  0  0  0
  7 14  1  0  0  0  0
  7 20  1  0  0  0  0
  8 14  2  0  0  0  0
  9 10  1  0  0  0  0
  9 13  1  0  0  0  0
  9 21  1  0  0  0  0
 10 14  1  0  0  0  0
 10 22  1  0  0  0  0
 10 23  1  0  0  0  0
 11 15  1  0  0  0  0
 11 16  1  0  0  0  0
 11 24  1  0  0  0  0
 12 17  1  0  0  0  0
 12 18  1  0  0  0  0
 12 25  1  0  0  0  0
 15 26  1  0  0  0  0
 15 27  1  0  0  0  0
 15 28  1  0  0  0  0
 16 29  1  0  0  0  0
 16 30  1  0  0  0  0
 16 31  1  0  0  0  0
 17 32  1  0  0  0  0
 17 33  1  0  0  0  0
 17 34  1  0  0  0  0
 18 35  1  0  0  0  0
 18 36  1  0  0  0  0
 18 37  1  0  0  0  0
 19 38  1  0  0  0  0
 19 39  1  0  0  0  0
 19 40  1  0  0  0  0
 20 41  1  0  0  0  0
 20 42  1  0  0  0  0
 20 43  1  0  0  0  0
M  END
> <PUBCHEM_COMPOUND_CID>
522886
> <PUBCHEM_COMPOUND_CANONICALIZED>
1
> <PUBCHEM_CACTVS_COMPLEXITY>
364
> <PUBCHEM_CACTVS_HBOND_ACCEPTOR>
7
> <PUBCHEM_CACTVS_HBOND_DONOR>
0
> <PUBCHEM_CACTVS_ROTATABLE_BOND>
10
> <PUBCHEM_CACTVS_SUBSKEYS>
AAADceBwOAIAAAAAAAAAAAAAAAAAAAAAAAAAAAAAAAAAAAAAAAAAGggAACAACBSogAICCAAABRAIQACQCIAAAAAAAAAAAAEAAAAAABAAAAAAAAAEAAAAAABDAAAAAAAAAAAAAAAAAAAAAAAAAAAAAAAAAA==
> <PUBCHEM_IUPAC_OPENEYE_NAME>
dimethyl 2-diisopropoxyphosphorylbutanedioate
> <PUBCHEM_IUPAC_CAS_NAME>
2-di(propan-2-yloxy)phosphorylbutanedioic acid dimethyl ester
> <PUBCHEM_IUPAC_NAME_MARKUP>
dimethyl 2-di(propan-2-yloxy)phosphorylbutanedioate
> <PUBCHEM_IUPAC_NAME>
dimethyl 2-di(propan-2-yloxy)phosphorylbutanedioate
> <PUBCHEM_IUPAC_SYSTEMATIC_NAME>
dimethyl 2-di(propan-2-yloxy)phosphorylbutanedioate
> <PUBCHEM_IUPAC_TRADITIONAL_NAME>
2-diisopropoxyphosphorylsuccinic acid dimethyl ester
> <PUBCHEM_IUPAC_INCHI>
InChI=1S/C12H23O7P/c1-8(2)18-20(15,19-9(3)4)10(12(14)17-6)7-11(13)16-5/h8-10H,7H2,1-6H3
> <PUBCHEM_IUPAC_INCHIKEY>
UXQNPXAWLLGRMI-UHFFFAOYSA-N
> <PUBCHEM_XLOGP3_AA>
0.9
> <PUBCHEM_EXACT_MASS>
310.11814007
> <PUBCHEM_MOLECULAR_FORMULA>
C12H23O7P
> <PUBCHEM_MOLECULAR_WEIGHT>
310.28
> <PUBCHEM_OPENEYE_CAN_SMILES>
CC(C)OP(=O)(C(CC(=O)OC)C(=O)OC)OC(C)C
> <PUBCHEM_OPENEYE_ISO_SMILES>
CC(C)OP(=O)(C(CC(=O)OC)C(=O)OC)OC(C)C
> <PUBCHEM_CACTVS_TPSA>
88.1
> <PUBCHEM_MONOISOTOPIC_WEIGHT>
310.11814007
> <PUBCHEM_TOTAL_CHARGE>
0
> <PUBCHEM_HEAVY_ATOM_COUNT>
20
> <PUBCHEM_ATOM_DEF_STEREO_COUNT>
0
> <PUBCHEM_ATOM_UDEF_STEREO_COUNT>
1
> <PUBCHEM_BOND_DEF_STEREO_COUNT>
0
> <PUBCHEM_BOND_UDEF_STEREO_COUNT>
0
> <PUBCHEM_ISOTOPIC_ATOM_COUNT>
0
> <PUBCHEM_COMPONENT_COUNT>
1
> <PUBCHEM_CACTVS_TAUTO_COUNT>
-1
> <PUBCHEM_COORDINATE_TYPE>
1
5
255
> <PUBCHEM_BONDANNOTATIONS>
9  10  3
$$$$
