522894
  -OEChem-10302200292D
 40 42  0     1  0  0  0  0  0999 V2000
    8.4279   -0.2503    0.0000 O   0  0  0  0  0  0  0  0  0  0  0  0
    8.4279   -1.8597    0.0000 O   0  0  0  0  0  0  0  0  0  0  0  0
    5.9428   -1.0550    0.0000 O   0  0  0  0  0  0  0  0  0  0  0  0
    5.2435    0.9130    0.0000 O   0  0  0  0  0  0  0  0  0  0  0  0
    5.6036    2.6072    0.0000 O   0  0  0  0  0  0  0  0  0  0  0  0
    6.2216   -2.8151    0.0000 N   0  0  0  0  0  0  0  0  0  0  0  0
    5.2435   -3.0230    0.0000 N   0  3  0  0  0  0  0  0  0  0  0  0
    4.2653   -3.2309    0.0000 N   0  5  0  0  0  0  0  0  0  0  0  0
    7.4817   -0.5550    0.0000 C   0  0  3  0  0  0  0  0  0  0  0  0
    7.4817   -1.5550    0.0000 C   0  0  3  0  0  0  0  0  0  0  0  0
    6.5306   -0.2460    0.0000 C   0  0  3  0  0  0  0  0  0  0  0  0
    6.5306   -1.8640    0.0000 C   0  0  3  0  0  0  0  0  0  0  0  0
    9.0115   -1.0550    0.0000 C   0  0  0  0  0  0  0  0  0  0  0  0
    6.2216    0.7051    0.0000 C   0  0  0  0  0  0  0  0  0  0  0  0
    9.8205   -1.6428    0.0000 C   0  0  0  0  0  0  0  0  0  0  0  0
    9.8205   -0.4672    0.0000 C   0  0  0  0  0  0  0  0  0  0  0  0
    4.9344    1.8640    0.0000 C   0  0  0  0  0  0  0  0  0  0  0  0
    3.9563    2.0719    0.0000 C   0  0  0  0  0  0  0  0  0  0  0  0
    3.6473    3.0230    0.0000 C   0  0  0  0  0  0  0  0  0  0  0  0
    3.2872    1.3288    0.0000 C   0  0  0  0  0  0  0  0  0  0  0  0
    2.6691    3.2309    0.0000 C   0  0  0  0  0  0  0  0  0  0  0  0
    2.3090    1.5367    0.0000 C   0  0  0  0  0  0  0  0  0  0  0  0
    2.0000    2.4878    0.0000 C   0  0  0  0  0  0  0  0  0  0  0  0
    7.4825    0.0650    0.0000 H   0  0  0  0  0  0  0  0  0  0  0  0
    7.4825   -2.1750    0.0000 H   0  0  0  0  0  0  0  0  0  0  0  0
    5.9183   -0.1490    0.0000 H   0  0  0  0  0  0  0  0  0  0  0  0
    6.9690   -2.3024    0.0000 H   0  0  0  0  0  0  0  0  0  0  0  0
    6.8356    0.7913    0.0000 H   0  0  0  0  0  0  0  0  0  0  0  0
    6.2432    1.3247    0.0000 H   0  0  0  0  0  0  0  0  0  0  0  0
    9.4561   -2.1444    0.0000 H   0  0  0  0  0  0  0  0  0  0  0  0
   10.3221   -2.0072    0.0000 H   0  0  0  0  0  0  0  0  0  0  0  0
   10.1850   -1.1412    0.0000 H   0  0  0  0  0  0  0  0  0  0  0  0
   10.1850   -0.9688    0.0000 H   0  0  0  0  0  0  0  0  0  0  0  0
   10.3221   -0.1028    0.0000 H   0  0  0  0  0  0  0  0  0  0  0  0
    9.4561    0.0344    0.0000 H   0  0  0  0  0  0  0  0  0  0  0  0
    4.0621    3.4838    0.0000 H   0  0  0  0  0  0  0  0  0  0  0  0
    3.4788    0.7391    0.0000 H   0  0  0  0  0  0  0  0  0  0  0  0
    2.4775    3.8206    0.0000 H   0  0  0  0  0  0  0  0  0  0  0  0
    1.8942    1.0760    0.0000 H   0  0  0  0  0  0  0  0  0  0  0  0
    1.3936    2.6167    0.0000 H   0  0  0  0  0  0  0  0  0  0  0  0
  1  9  1  0  0  0  0
  1 13  1  0  0  0  0
  2 10  1  0  0  0  0
  2 13  1  0  0  0  0
  3 11  1  0  0  0  0
  3 12  1  0  0  0  0
  4 14  1  0  0  0  0
  4 17  1  0  0  0  0
  5 17  2  0  0  0  0
  6  7  2  0  0  0  0
  6 12  1  0  0  0  0
  7  8  2  0  0  0  0
  9 10  1  0  0  0  0
  9 11  1  0  0  0  0
  9 24  1  0  0  0  0
 10 12  1  0  0  0  0
 10 25  1  0  0  0  0
 11 14  1  0  0  0  0
 11 26  1  0  0  0  0
 12 27  1  0  0  0  0
 13 15  1  0  0  0  0
 13 16  1  0  0  0  0
 14 28  1  0  0  0  0
 14 29  1  0  0  0  0
 15 30  1  0  0  0  0
 15 31  1  0  0  0  0
 15 32  1  0  0  0  0
 16 33  1  0  0  0  0
 16 34  1  0  0  0  0
 16 35  1  0  0  0  0
 17 18  1  0  0  0  0
 18 19  2  0  0  0  0
 18 20  1  0  0  0  0
 19 21  1  0  0  0  0
 19 36  1  0  0  0  0
 20 22  2  0  0  0  0
 20 37  1  0  0  0  0
 21 23  2  0  0  0  0
 21 38  1  0  0  0  0
 22 23  1  0  0  0  0
 22 39  1  0  0  0  0
 23 40  1  0  0  0  0
M  CHG  2   7   1   8  -1
M  END
> <PUBCHEM_COMPOUND_CID>
522894
> <PUBCHEM_COMPOUND_CANONICALIZED>
1
> <PUBCHEM_CACTVS_COMPLEXITY>
499
> <PUBCHEM_CACTVS_HBOND_ACCEPTOR>
7
> <PUBCHEM_CACTVS_HBOND_DONOR>
0
> <PUBCHEM_CACTVS_ROTATABLE_BOND>
5
> <PUBCHEM_CACTVS_SUBSKEYS>
AAADceBzOAAAAAAAAAAAAAAAAAAAASJAAAAwAAAAAAASAAABAAAAHgAIAAAADBThmAYyCIAABACKAiDSCAACAAAkAAAIiAEACMgbJjKAtRirMQAnwAEOqYf4+CiOAAAAAAAAAAAAAAAAAAAAAAAAAAAAAA==
> <PUBCHEM_IUPAC_OPENEYE_NAME>
(4-azido-2,2-dimethyl-3a,4,6,6a-tetrahydrofuro[3,4-d][1,3]dioxol-6-yl)methyl benzoate
> <PUBCHEM_IUPAC_CAS_NAME>
benzoic acid (4-azido-2,2-dimethyl-3a,4,6,6a-tetrahydrofuro[3,4-d][1,3]dioxol-6-yl)methyl ester
> <PUBCHEM_IUPAC_NAME_MARKUP>
(4-azido-2,2-dimethyl-3<I>a</I>,4,6,6<I>a</I>-tetrahydrofuro[3,4-d][1,3]dioxol-6-yl)methyl benzoate
> <PUBCHEM_IUPAC_NAME>
(4-azido-2,2-dimethyl-3a,4,6,6a-tetrahydrofuro[3,4-d][1,3]dioxol-6-yl)methyl benzoate
> <PUBCHEM_IUPAC_SYSTEMATIC_NAME>
(4-azido-2,2-dimethyl-3a,4,6,6a-tetrahydrofuro[3,4-d][1,3]dioxol-6-yl)methyl benzoate
> <PUBCHEM_IUPAC_TRADITIONAL_NAME>
benzoic acid (4-azido-2,2-dimethyl-3a,4,6,6a-tetrahydrofuro[3,4-d][1,3]dioxol-6-yl)methyl ester
> <PUBCHEM_IUPAC_INCHI>
InChI=1S/C15H17N3O5/c1-15(2)22-11-10(21-13(17-18-16)12(11)23-15)8-20-14(19)9-6-4-3-5-7-9/h3-7,10-13H,8H2,1-2H3
> <PUBCHEM_IUPAC_INCHIKEY>
MPHOYAKNKKOVOI-UHFFFAOYSA-N
> <PUBCHEM_XLOGP3_AA>
2.8
> <PUBCHEM_EXACT_MASS>
319.11682065
> <PUBCHEM_MOLECULAR_FORMULA>
C15H17N3O5
> <PUBCHEM_MOLECULAR_WEIGHT>
319.31
> <PUBCHEM_OPENEYE_CAN_SMILES>
CC1(OC2C(OC(C2O1)N=[N+]=[N-])COC(=O)C3=CC=CC=C3)C
> <PUBCHEM_OPENEYE_ISO_SMILES>
CC1(OC2C(OC(C2O1)N=[N+]=[N-])COC(=O)C3=CC=CC=C3)C
> <PUBCHEM_CACTVS_TPSA>
68.4
> <PUBCHEM_MONOISOTOPIC_WEIGHT>
319.11682065
> <PUBCHEM_TOTAL_CHARGE>
0
> <PUBCHEM_HEAVY_ATOM_COUNT>
23
> <PUBCHEM_ATOM_DEF_STEREO_COUNT>
0
> <PUBCHEM_ATOM_UDEF_STEREO_COUNT>
4
> <PUBCHEM_BOND_DEF_STEREO_COUNT>
0
> <PUBCHEM_BOND_UDEF_STEREO_COUNT>
1
> <PUBCHEM_ISOTOPIC_ATOM_COUNT>
0
> <PUBCHEM_COMPONENT_COUNT>
1
> <PUBCHEM_CACTVS_TAUTO_COUNT>
-1
> <PUBCHEM_COORDINATE_TYPE>
1
5
255
> <PUBCHEM_BONDANNOTATIONS>
9  1  3
11  14  3
18  19  8
18  20  8
19  21  8
10  2  3
20  22  8
21  23  8
22  23  8
12  6  3
6  7  1
$$$$
