522849
  -OEChem-10302200292D
141142  0     1  0  0  0  0  0999 V2000
    6.3301   -2.0000    0.0000 Si  0  0  0  0  0  0  0  0  0  0  0  0
    8.0622   -4.0000    0.0000 Si  0  0  0  0  0  0  0  0  0  0  0  0
    4.5981    4.0000    0.0000 Si  0  0  0  0  0  0  0  0  0  0  0  0
    7.1962    3.5000    0.0000 Si  0  0  0  0  0  0  0  0  0  0  0  0
   11.5263   -2.0000    0.0000 Si  0  0  0  0  0  0  0  0  0  0  0  0
    2.8660    2.0000    0.0000 Si  0  0  0  0  0  0  0  0  0  0  0  0
   10.6603    0.5000    0.0000 Si  0  0  0  0  0  0  0  0  0  0  0  0
    2.8660   -1.0000    0.0000 Si  0  0  0  0  0  0  0  0  0  0  0  0
    8.9282   -0.5000    0.0000 O   0  0  0  0  0  0  0  0  0  0  0  0
    5.4641    0.5000    0.0000 O   0  0  0  0  0  0  0  0  0  0  0  0
    7.1962    0.5000    0.0000 O   0  0  0  0  0  0  0  0  0  0  0  0
    7.1962   -2.5000    0.0000 O   0  0  0  0  0  0  0  0  0  0  0  0
    8.9282   -3.5000    0.0000 O   0  0  0  0  0  0  0  0  0  0  0  0
    5.4641    3.5000    0.0000 O   0  0  0  0  0  0  0  0  0  0  0  0
    7.1962    2.5000    0.0000 O   0  0  0  0  0  0  0  0  0  0  0  0
   10.6603   -2.5000    0.0000 O   0  0  0  0  0  0  0  0  0  0  0  0
    3.7320    2.5000    0.0000 O   0  0  0  0  0  0  0  0  0  0  0  0
   10.6603   -0.5000    0.0000 O   0  0  0  0  0  0  0  0  0  0  0  0
    3.7320   -0.5000    0.0000 O   0  0  0  0  0  0  0  0  0  0  0  0
    8.0622   -2.0000    0.0000 C   0  0  3  0  0  0  0  0  0  0  0  0
    8.9282   -2.5000    0.0000 C   0  0  3  0  0  0  0  0  0  0  0  0
    5.4641    2.5000    0.0000 C   0  0  3  0  0  0  0  0  0  0  0  0
    8.0622   -1.0000    0.0000 C   0  0  3  0  0  0  0  0  0  0  0  0
    6.3301    2.0000    0.0000 C   0  0  3  0  0  0  0  0  0  0  0  0
    9.7942   -2.0000    0.0000 C   0  0  3  0  0  0  0  0  0  0  0  0
    4.5981    2.0000    0.0000 C   0  0  3  0  0  0  0  0  0  0  0  0
    6.3301    1.0000    0.0000 C   0  0  3  0  0  0  0  0  0  0  0  0
    4.5981    1.0000    0.0000 C   0  0  3  0  0  0  0  0  0  0  0  0
    9.7942   -1.0000    0.0000 C   0  0  3  0  0  0  0  0  0  0  0  0
    7.1962   -0.5000    0.0000 C   0  0  0  0  0  0  0  0  0  0  0  0
    3.7320    0.5000    0.0000 C   0  0  0  0  0  0  0  0  0  0  0  0
    5.4641   -1.5000    0.0000 C   0  0  0  0  0  0  0  0  0  0  0  0
    5.8301   -2.8660    0.0000 C   0  0  0  0  0  0  0  0  0  0  0  0
    6.8301   -1.1340    0.0000 C   0  0  0  0  0  0  0  0  0  0  0  0
    7.1962   -4.5000    0.0000 C   0  0  0  0  0  0  0  0  0  0  0  0
    8.5622   -4.8660    0.0000 C   0  0  0  0  0  0  0  0  0  0  0  0
    7.5622   -3.1340    0.0000 C   0  0  0  0  0  0  0  0  0  0  0  0
    3.7320    4.5000    0.0000 C   0  0  0  0  0  0  0  0  0  0  0  0
    5.0981    4.8660    0.0000 C   0  0  0  0  0  0  0  0  0  0  0  0
    4.0981    3.1340    0.0000 C   0  0  0  0  0  0  0  0  0  0  0  0
    7.1962    4.5000    0.0000 C   0  0  0  0  0  0  0  0  0  0  0  0
    8.1962    3.5000    0.0000 C   0  0  0  0  0  0  0  0  0  0  0  0
    6.1962    3.5000    0.0000 C   0  0  0  0  0  0  0  0  0  0  0  0
   12.3923   -1.5000    0.0000 C   0  0  0  0  0  0  0  0  0  0  0  0
   12.0263   -2.8660    0.0000 C   0  0  0  0  0  0  0  0  0  0  0  0
   11.0263   -1.1340    0.0000 C   0  0  0  0  0  0  0  0  0  0  0  0
    2.0000    1.5000    0.0000 C   0  0  0  0  0  0  0  0  0  0  0  0
    2.3660    2.8660    0.0000 C   0  0  0  0  0  0  0  0  0  0  0  0
    3.3660    1.1340    0.0000 C   0  0  0  0  0  0  0  0  0  0  0  0
   10.6603    1.5000    0.0000 C   0  0  0  0  0  0  0  0  0  0  0  0
   11.6603    0.5000    0.0000 C   0  0  0  0  0  0  0  0  0  0  0  0
    9.6602    0.5000    0.0000 C   0  0  0  0  0  0  0  0  0  0  0  0
    2.0000   -1.5000    0.0000 C   0  0  0  0  0  0  0  0  0  0  0  0
    3.3660   -1.8660    0.0000 C   0  0  0  0  0  0  0  0  0  0  0  0
    2.3660   -0.1340    0.0000 C   0  0  0  0  0  0  0  0  0  0  0  0
    8.0622   -2.6200    0.0000 H   0  0  0  0  0  0  0  0  0  0  0  0
    8.3913   -2.8100    0.0000 H   0  0  0  0  0  0  0  0  0  0  0  0
    4.9272    2.8100    0.0000 H   0  0  0  0  0  0  0  0  0  0  0  0
    8.0622   -0.3800    0.0000 H   0  0  0  0  0  0  0  0  0  0  0  0
    6.3301    2.6200    0.0000 H   0  0  0  0  0  0  0  0  0  0  0  0
    9.7942   -2.6200    0.0000 H   0  0  0  0  0  0  0  0  0  0  0  0
    4.5981    2.6200    0.0000 H   0  0  0  0  0  0  0  0  0  0  0  0
    6.3301    0.3800    0.0000 H   0  0  0  0  0  0  0  0  0  0  0  0
    4.5981    0.3800    0.0000 H   0  0  0  0  0  0  0  0  0  0  0  0
    9.7942   -0.3800    0.0000 H   0  0  0  0  0  0  0  0  0  0  0  0
    6.5856   -0.3923    0.0000 H   0  0  0  0  0  0  0  0  0  0  0  0
    6.9841   -1.0826    0.0000 H   0  0  0  0  0  0  0  0  0  0  0  0
    3.5200    1.0826    0.0000 H   0  0  0  0  0  0  0  0  0  0  0  0
    3.1215    0.3923    0.0000 H   0  0  0  0  0  0  0  0  0  0  0  0
    5.7741   -0.9631    0.0000 H   0  0  0  0  0  0  0  0  0  0  0  0
    4.9272   -1.1900    0.0000 H   0  0  0  0  0  0  0  0  0  0  0  0
    5.1541   -2.0369    0.0000 H   0  0  0  0  0  0  0  0  0  0  0  0
    5.2932   -2.5560    0.0000 H   0  0  0  0  0  0  0  0  0  0  0  0
    5.5201   -3.4030    0.0000 H   0  0  0  0  0  0  0  0  0  0  0  0
    6.3671   -3.1760    0.0000 H   0  0  0  0  0  0  0  0  0  0  0  0
    7.3671   -1.4440    0.0000 H   0  0  0  0  0  0  0  0  0  0  0  0
    7.1401   -0.5970    0.0000 H   0  0  0  0  0  0  0  0  0  0  0  0
    6.2932   -0.8240    0.0000 H   0  0  0  0  0  0  0  0  0  0  0  0
    6.8862   -3.9631    0.0000 H   0  0  0  0  0  0  0  0  0  0  0  0
    6.6592   -4.8100    0.0000 H   0  0  0  0  0  0  0  0  0  0  0  0
    7.5062   -5.0369    0.0000 H   0  0  0  0  0  0  0  0  0  0  0  0
    8.0252   -5.1760    0.0000 H   0  0  0  0  0  0  0  0  0  0  0  0
    8.8722   -5.4030    0.0000 H   0  0  0  0  0  0  0  0  0  0  0  0
    9.0991   -4.5560    0.0000 H   0  0  0  0  0  0  0  0  0  0  0  0
    8.0991   -2.8240    0.0000 H   0  0  0  0  0  0  0  0  0  0  0  0
    7.2522   -2.5970    0.0000 H   0  0  0  0  0  0  0  0  0  0  0  0
    7.0252   -3.4440    0.0000 H   0  0  0  0  0  0  0  0  0  0  0  0
    4.0420    5.0369    0.0000 H   0  0  0  0  0  0  0  0  0  0  0  0
    3.1951    4.8100    0.0000 H   0  0  0  0  0  0  0  0  0  0  0  0
    3.4220    3.9631    0.0000 H   0  0  0  0  0  0  0  0  0  0  0  0
    5.6350    4.5560    0.0000 H   0  0  0  0  0  0  0  0  0  0  0  0
    5.4081    5.4030    0.0000 H   0  0  0  0  0  0  0  0  0  0  0  0
    4.5611    5.1760    0.0000 H   0  0  0  0  0  0  0  0  0  0  0  0
    3.5611    3.4440    0.0000 H   0  0  0  0  0  0  0  0  0  0  0  0
    3.7881    2.5970    0.0000 H   0  0  0  0  0  0  0  0  0  0  0  0
    4.6350    2.8240    0.0000 H   0  0  0  0  0  0  0  0  0  0  0  0
    7.8162    4.5000    0.0000 H   0  0  0  0  0  0  0  0  0  0  0  0
    7.1962    5.1200    0.0000 H   0  0  0  0  0  0  0  0  0  0  0  0
    6.5762    4.5000    0.0000 H   0  0  0  0  0  0  0  0  0  0  0  0
    8.1962    2.8800    0.0000 H   0  0  0  0  0  0  0  0  0  0  0  0
    8.8162    3.5000    0.0000 H   0  0  0  0  0  0  0  0  0  0  0  0
    8.1962    4.1200    0.0000 H   0  0  0  0  0  0  0  0  0  0  0  0
    6.1962    4.1200    0.0000 H   0  0  0  0  0  0  0  0  0  0  0  0
    5.5762    3.5000    0.0000 H   0  0  0  0  0  0  0  0  0  0  0  0
    6.1962    2.8800    0.0000 H   0  0  0  0  0  0  0  0  0  0  0  0
   12.7023   -2.0369    0.0000 H   0  0  0  0  0  0  0  0  0  0  0  0
   12.9292   -1.1900    0.0000 H   0  0  0  0  0  0  0  0  0  0  0  0
   12.0823   -0.9631    0.0000 H   0  0  0  0  0  0  0  0  0  0  0  0
   11.4893   -3.1760    0.0000 H   0  0  0  0  0  0  0  0  0  0  0  0
   12.3363   -3.4030    0.0000 H   0  0  0  0  0  0  0  0  0  0  0  0
   12.5632   -2.5560    0.0000 H   0  0  0  0  0  0  0  0  0  0  0  0
   11.5632   -0.8240    0.0000 H   0  0  0  0  0  0  0  0  0  0  0  0
   10.7163   -0.5970    0.0000 H   0  0  0  0  0  0  0  0  0  0  0  0
   10.4893   -1.4440    0.0000 H   0  0  0  0  0  0  0  0  0  0  0  0
    1.6900    2.0369    0.0000 H   0  0  0  0  0  0  0  0  0  0  0  0
    1.4631    1.1900    0.0000 H   0  0  0  0  0  0  0  0  0  0  0  0
    2.3100    0.9631    0.0000 H   0  0  0  0  0  0  0  0  0  0  0  0
    2.9030    3.1760    0.0000 H   0  0  0  0  0  0  0  0  0  0  0  0
    2.0560    3.4030    0.0000 H   0  0  0  0  0  0  0  0  0  0  0  0
    1.8291    2.5560    0.0000 H   0  0  0  0  0  0  0  0  0  0  0  0
    2.8291    0.8240    0.0000 H   0  0  0  0  0  0  0  0  0  0  0  0
    3.6760    0.5970    0.0000 H   0  0  0  0  0  0  0  0  0  0  0  0
    3.9030    1.4440    0.0000 H   0  0  0  0  0  0  0  0  0  0  0  0
   11.2803    1.5000    0.0000 H   0  0  0  0  0  0  0  0  0  0  0  0
   10.6603    2.1200    0.0000 H   0  0  0  0  0  0  0  0  0  0  0  0
   10.0403    1.5000    0.0000 H   0  0  0  0  0  0  0  0  0  0  0  0
   11.6603   -0.1200    0.0000 H   0  0  0  0  0  0  0  0  0  0  0  0
   12.2803    0.5000    0.0000 H   0  0  0  0  0  0  0  0  0  0  0  0
   11.6603    1.1200    0.0000 H   0  0  0  0  0  0  0  0  0  0  0  0
    9.6602    1.1200    0.0000 H   0  0  0  0  0  0  0  0  0  0  0  0
    9.0402    0.5000    0.0000 H   0  0  0  0  0  0  0  0  0  0  0  0
    9.6602   -0.1200    0.0000 H   0  0  0  0  0  0  0  0  0  0  0  0
    1.6900   -0.9631    0.0000 H   0  0  0  0  0  0  0  0  0  0  0  0
    1.4631   -1.8100    0.0000 H   0  0  0  0  0  0  0  0  0  0  0  0
    2.3100   -2.0369    0.0000 H   0  0  0  0  0  0  0  0  0  0  0  0
    2.8291   -2.1760    0.0000 H   0  0  0  0  0  0  0  0  0  0  0  0
    3.6760   -2.4030    0.0000 H   0  0  0  0  0  0  0  0  0  0  0  0
    3.9030   -1.5560    0.0000 H   0  0  0  0  0  0  0  0  0  0  0  0
    2.9030    0.1760    0.0000 H   0  0  0  0  0  0  0  0  0  0  0  0
    2.0560    0.4030    0.0000 H   0  0  0  0  0  0  0  0  0  0  0  0
    1.8291   -0.4440    0.0000 H   0  0  0  0  0  0  0  0  0  0  0  0
  1 12  1  0  0  0  0
  1 32  1  0  0  0  0
  1 33  1  0  0  0  0
  1 34  1  0  0  0  0
  2 13  1  0  0  0  0
  2 35  1  0  0  0  0
  2 36  1  0  0  0  0
  2 37  1  0  0  0  0
  3 14  1  0  0  0  0
  3 38  1  0  0  0  0
  3 39  1  0  0  0  0
  3 40  1  0  0  0  0
  4 15  1  0  0  0  0
  4 41  1  0  0  0  0
  4 42  1  0  0  0  0
  4 43  1  0  0  0  0
  5 16  1  0  0  0  0
  5 44  1  0  0  0  0
  5 45  1  0  0  0  0
  5 46  1  0  0  0  0
  6 17  1  0  0  0  0
  6 47  1  0  0  0  0
  6 48  1  0  0  0  0
  6 49  1  0  0  0  0
  7 18  1  0  0  0  0
  7 50  1  0  0  0  0
  7 51  1  0  0  0  0
  7 52  1  0  0  0  0
  8 19  1  0  0  0  0
  8 53  1  0  0  0  0
  8 54  1  0  0  0  0
  8 55  1  0  0  0  0
  9 23  1  0  0  0  0
  9 29  1  0  0  0  0
 10 27  1  0  0  0  0
 10 28  1  0  0  0  0
 11 27  1  0  0  0  0
 11 30  1  0  0  0  0
 12 20  1  0  0  0  0
 13 21  1  0  0  0  0
 14 22  1  0  0  0  0
 15 24  1  0  0  0  0
 16 25  1  0  0  0  0
 17 26  1  0  0  0  0
 18 29  1  0  0  0  0
 19 31  1  0  0  0  0
 20 21  1  0  0  0  0
 20 23  1  0  0  0  0
 20 56  1  0  0  0  0
 21 25  1  0  0  0  0
 21 57  1  0  0  0  0
 22 24  1  0  0  0  0
 22 26  1  0  0  0  0
 22 58  1  0  0  0  0
 23 30  1  0  0  0  0
 23 59  1  0  0  0  0
 24 27  1  0  0  0  0
 24 60  1  0  0  0  0
 25 29  1  0  0  0  0
 25 61  1  0  0  0  0
 26 28  1  0  0  0  0
 26 62  1  0  0  0  0
 27 63  1  0  0  0  0
 28 31  1  0  0  0  0
 28 64  1  0  0  0  0
 29 65  1  0  0  0  0
 30 66  1  0  0  0  0
 30 67  1  0  0  0  0
 31 68  1  0  0  0  0
 31 69  1  0  0  0  0
 32 70  1  0  0  0  0
 32 71  1  0  0  0  0
 32 72  1  0  0  0  0
 33 73  1  0  0  0  0
 33 74  1  0  0  0  0
 33 75  1  0  0  0  0
 34 76  1  0  0  0  0
 34 77  1  0  0  0  0
 34 78  1  0  0  0  0
 35 79  1  0  0  0  0
 35 80  1  0  0  0  0
 35 81  1  0  0  0  0
 36 82  1  0  0  0  0
 36 83  1  0  0  0  0
 36 84  1  0  0  0  0
 37 85  1  0  0  0  0
 37 86  1  0  0  0  0
 37 87  1  0  0  0  0
 38 88  1  0  0  0  0
 38 89  1  0  0  0  0
 38 90  1  0  0  0  0
 39 91  1  0  0  0  0
 39 92  1  0  0  0  0
 39 93  1  0  0  0  0
 40 94  1  0  0  0  0
 40 95  1  0  0  0  0
 40 96  1  0  0  0  0
 41 97  1  0  0  0  0
 41 98  1  0  0  0  0
 41 99  1  0  0  0  0
 42100  1  0  0  0  0
 42101  1  0  0  0  0
 42102  1  0  0  0  0
 43103  1  0  0  0  0
 43104  1  0  0  0  0
 43105  1  0  0  0  0
 44106  1  0  0  0  0
 44107  1  0  0  0  0
 44108  1  0  0  0  0
 45109  1  0  0  0  0
 45110  1  0  0  0  0
 45111  1  0  0  0  0
 46112  1  0  0  0  0
 46113  1  0  0  0  0
 46114  1  0  0  0  0
 47115  1  0  0  0  0
 47116  1  0  0  0  0
 47117  1  0  0  0  0
 48118  1  0  0  0  0
 48119  1  0  0  0  0
 48120  1  0  0  0  0
 49121  1  0  0  0  0
 49122  1  0  0  0  0
 49123  1  0  0  0  0
 50124  1  0  0  0  0
 50125  1  0  0  0  0
 50126  1  0  0  0  0
 51127  1  0  0  0  0
 51128  1  0  0  0  0
 51129  1  0  0  0  0
 52130  1  0  0  0  0
 52131  1  0  0  0  0
 52132  1  0  0  0  0
 53133  1  0  0  0  0
 53134  1  0  0  0  0
 53135  1  0  0  0  0
 54136  1  0  0  0  0
 54137  1  0  0  0  0
 54138  1  0  0  0  0
 55139  1  0  0  0  0
 55140  1  0  0  0  0
 55141  1  0  0  0  0
M  END
> <PUBCHEM_COMPOUND_CID>
522849
> <PUBCHEM_COMPOUND_CANONICALIZED>
1
> <PUBCHEM_CACTVS_COMPLEXITY>
1180
> <PUBCHEM_CACTVS_HBOND_ACCEPTOR>
11
> <PUBCHEM_CACTVS_HBOND_DONOR>
0
> <PUBCHEM_CACTVS_ROTATABLE_BOND>
20
> <PUBCHEM_CACTVS_SUBSKEYS>
AAADcfB8PAwAAAAAAAAAAAAAAAAAAAAAAAAkSAAAAAAAAAAAAAAAGhAAAEAACBSwgANCCAAABAEAAAAAAAAAAAAAAAAAAAAAAAARAAIAAAAiAAAFAAAGAAHAYAwAAAAAAAAAAAAAAAAAAAAAAAAAAAAAAA==
> <PUBCHEM_IUPAC_OPENEYE_NAME>
trimethyl-[2-[[3,4,5,6-tetrakis(trimethylsilyloxy)tetrahydropyran-2-yl]methoxy]-3,5-bis(trimethylsilyloxy)-6-(trimethylsilyloxymethyl)tetrahydropyran-4-yl]oxy-silane
> <PUBCHEM_IUPAC_CAS_NAME>
trimethyl-[[2-[[3,4,5,6-tetrakis(trimethylsilyloxy)-2-oxanyl]methoxy]-3,5-bis(trimethylsilyloxy)-6-(trimethylsilyloxymethyl)-4-oxanyl]oxy]silane
> <PUBCHEM_IUPAC_NAME_MARKUP>
trimethyl-[2-[[3,4,5,6-tetrakis(trimethylsilyloxy)oxan-2-yl]methoxy]-3,5-bis(trimethylsilyloxy)-6-(trimethylsilyloxymethyl)oxan-4-yl]oxysilane
> <PUBCHEM_IUPAC_NAME>
trimethyl-[2-[[3,4,5,6-tetrakis(trimethylsilyloxy)oxan-2-yl]methoxy]-3,5-bis(trimethylsilyloxy)-6-(trimethylsilyloxymethyl)oxan-4-yl]oxysilane
> <PUBCHEM_IUPAC_SYSTEMATIC_NAME>
trimethyl-[2-[[3,4,5,6-tetrakis(trimethylsilyloxy)oxan-2-yl]methoxy]-3,5-bis(trimethylsilyloxy)-6-(trimethylsilyloxymethyl)oxan-4-yl]oxy-silane
> <PUBCHEM_IUPAC_TRADITIONAL_NAME>
trimethyl-[2-[[3,4,5,6-tetrakis(trimethylsilyloxy)tetrahydropyran-2-yl]methoxy]-3,5-bis(trimethylsilyloxy)-6-(trimethylsilyloxymethyl)tetrahydropyran-4-yl]oxy-silane
> <PUBCHEM_IUPAC_INCHI>
InChI=1S/C36H86O11Si8/c1-48(2,3)38-26-28-30(42-50(7,8)9)31(43-51(10,11)12)33(45-53(16,17)18)35(39-28)37-25-27-29(41-49(4,5)6)32(44-52(13,14)15)34(46-54(19,20)21)36(40-27)47-55(22,23)24/h27-36H,25-26H2,1-24H3
> <PUBCHEM_IUPAC_INCHIKEY>
SWPQHIFGBMZXPV-UHFFFAOYSA-N
> <PUBCHEM_EXACT_MASS>
918.43242583
> <PUBCHEM_MOLECULAR_FORMULA>
C36H86O11Si8
> <PUBCHEM_MOLECULAR_WEIGHT>
919.7
> <PUBCHEM_OPENEYE_CAN_SMILES>
C[Si](C)(C)OCC1C(C(C(C(O1)OCC2C(C(C(C(O2)O[Si](C)(C)C)O[Si](C)(C)C)O[Si](C)(C)C)O[Si](C)(C)C)O[Si](C)(C)C)O[Si](C)(C)C)O[Si](C)(C)C
> <PUBCHEM_OPENEYE_ISO_SMILES>
C[Si](C)(C)OCC1C(C(C(C(O1)OCC2C(C(C(C(O2)O[Si](C)(C)C)O[Si](C)(C)C)O[Si](C)(C)C)O[Si](C)(C)C)O[Si](C)(C)C)O[Si](C)(C)C)O[Si](C)(C)C
> <PUBCHEM_CACTVS_TPSA>
102
> <PUBCHEM_MONOISOTOPIC_WEIGHT>
918.43242583
> <PUBCHEM_TOTAL_CHARGE>
0
> <PUBCHEM_HEAVY_ATOM_COUNT>
55
> <PUBCHEM_ATOM_DEF_STEREO_COUNT>
0
> <PUBCHEM_ATOM_UDEF_STEREO_COUNT>
10
> <PUBCHEM_BOND_DEF_STEREO_COUNT>
0
> <PUBCHEM_BOND_UDEF_STEREO_COUNT>
0
> <PUBCHEM_ISOTOPIC_ATOM_COUNT>
0
> <PUBCHEM_COMPONENT_COUNT>
1
> <PUBCHEM_CACTVS_TAUTO_COUNT>
-1
> <PUBCHEM_COORDINATE_TYPE>
1
5
255
> <PUBCHEM_BONDANNOTATIONS>
27  11  3
20  12  3
21  13  3
22  14  3
24  15  3
25  16  3
26  17  3
29  18  3
23  30  3
28  31  3
$$$$
