522868
  -OEChem-10302200292D
 10 10  0     1  0  0  0  0  0999 V2000
    4.3660    0.4330    0.0000 F   0  0  0  0  0  0  0  0  0  0  0  0
    3.3660    0.4330    0.0000 C   0  0  3  0  0  0  0  0  0  0  0  0
    2.5000    0.9330    0.0000 C   0  0  0  0  0  0  0  0  0  0  0  0
    2.5000   -0.0670    0.0000 C   0  0  0  0  0  0  0  0  0  0  0  0
    2.0000   -0.9330    0.0000 C   0  0  0  0  0  0  0  0  0  0  0  0
    3.5265   -0.1659    0.0000 H   0  0  0  0  0  0  0  0  0  0  0  0
    2.7120    1.5156    0.0000 H   0  0  0  0  0  0  0  0  0  0  0  0
    1.8894    1.0407    0.0000 H   0  0  0  0  0  0  0  0  0  0  0  0
    1.3800   -0.9330    0.0000 H   0  0  0  0  0  0  0  0  0  0  0  0
    2.3100   -1.4700    0.0000 H   0  0  0  0  0  0  0  0  0  0  0  0
  1  2  1  0  0  0  0
  2  3  1  0  0  0  0
  2  4  1  0  0  0  0
  2  6  1  0  0  0  0
  3  4  1  0  0  0  0
  3  7  1  0  0  0  0
  3  8  1  0  0  0  0
  4  5  2  0  0  0  0
  5  9  1  0  0  0  0
  5 10  1  0  0  0  0
M  END
> <PUBCHEM_COMPOUND_CID>
522868
> <PUBCHEM_COMPOUND_CANONICALIZED>
1
> <PUBCHEM_CACTVS_COMPLEXITY>
66
> <PUBCHEM_CACTVS_HBOND_ACCEPTOR>
1
> <PUBCHEM_CACTVS_HBOND_DONOR>
0
> <PUBCHEM_CACTVS_ROTATABLE_BOND>
0
> <PUBCHEM_CACTVS_SUBSKEYS>
AAADcYBgAQAAAAAAAAAAAAAAGAAAAAAAAAAAAAAAAAAAAAAAAAAAGQAAAAAADACAAAAAAAAAAACAAgBCAAAAAAAgAAAAAAAAAAgAAAAAAQAAAAAAAAAAAAAAAAAAAAAAAAAAAAAAAAAAAAAAAAAAAAAAAA==
> <PUBCHEM_IUPAC_OPENEYE_NAME>
1-fluoro-2-methylene-cyclopropane
> <PUBCHEM_IUPAC_CAS_NAME>
1-fluoro-2-methylenecyclopropane
> <PUBCHEM_IUPAC_NAME_MARKUP>
1-fluoro-2-methylidenecyclopropane
> <PUBCHEM_IUPAC_NAME>
1-fluoro-2-methylidenecyclopropane
> <PUBCHEM_IUPAC_SYSTEMATIC_NAME>
1-fluoranyl-2-methylidene-cyclopropane
> <PUBCHEM_IUPAC_TRADITIONAL_NAME>
1-fluoro-2-methylene-cyclopropane
> <PUBCHEM_IUPAC_INCHI>
InChI=1S/C4H5F/c1-3-2-4(3)5/h4H,1-2H2
> <PUBCHEM_IUPAC_INCHIKEY>
OTTGHXUYGRDJAF-UHFFFAOYSA-N
> <PUBCHEM_XLOGP3_AA>
0.9
> <PUBCHEM_EXACT_MASS>
72.037528322
> <PUBCHEM_MOLECULAR_FORMULA>
C4H5F
> <PUBCHEM_MOLECULAR_WEIGHT>
72.08
> <PUBCHEM_OPENEYE_CAN_SMILES>
C=C1CC1F
> <PUBCHEM_OPENEYE_ISO_SMILES>
C=C1CC1F
> <PUBCHEM_CACTVS_TPSA>
0
> <PUBCHEM_MONOISOTOPIC_WEIGHT>
72.037528322
> <PUBCHEM_TOTAL_CHARGE>
0
> <PUBCHEM_HEAVY_ATOM_COUNT>
5
> <PUBCHEM_ATOM_DEF_STEREO_COUNT>
0
> <PUBCHEM_ATOM_UDEF_STEREO_COUNT>
1
> <PUBCHEM_BOND_DEF_STEREO_COUNT>
0
> <PUBCHEM_BOND_UDEF_STEREO_COUNT>
0
> <PUBCHEM_ISOTOPIC_ATOM_COUNT>
0
> <PUBCHEM_COMPONENT_COUNT>
1
> <PUBCHEM_CACTVS_TAUTO_COUNT>
-1
> <PUBCHEM_COORDINATE_TYPE>
1
5
255
> <PUBCHEM_BONDANNOTATIONS>
2  1  3
$$$$
