522944
  -OEChem-10302200292D
 30 29  0     1  0  0  0  0  0999 V2000
    2.8660   -0.0600    0.0000 O   0  0  0  0  0  0  0  0  0  0  0  0
    8.0622   -0.0600    0.0000 O   0  0  0  0  0  0  0  0  0  0  0  0
    5.4641    0.4400    0.0000 N   0  0  0  0  0  0  0  0  0  0  0  0
    4.5981   -0.0600    0.0000 C   0  0  3  0  0  0  0  0  0  0  0  0
    6.3301   -0.0600    0.0000 C   0  0  3  0  0  0  0  0  0  0  0  0
    3.7320    0.4400    0.0000 C   0  0  0  0  0  0  0  0  0  0  0  0
    7.1962    0.4400    0.0000 C   0  0  0  0  0  0  0  0  0  0  0  0
    4.5981   -1.0600    0.0000 C   0  0  0  0  0  0  0  0  0  0  0  0
    6.3301   -1.0600    0.0000 C   0  0  0  0  0  0  0  0  0  0  0  0
    2.0000    0.4400    0.0000 C   0  0  0  0  0  0  0  0  0  0  0  0
    8.9282    0.4400    0.0000 C   0  0  0  0  0  0  0  0  0  0  0  0
    4.5981    0.5600    0.0000 H   0  0  0  0  0  0  0  0  0  0  0  0
    5.7932   -0.3700    0.0000 H   0  0  0  0  0  0  0  0  0  0  0  0
    5.4641    1.0600    0.0000 H   0  0  0  0  0  0  0  0  0  0  0  0
    4.1306    0.9149    0.0000 H   0  0  0  0  0  0  0  0  0  0  0  0
    3.3335    0.9149    0.0000 H   0  0  0  0  0  0  0  0  0  0  0  0
    7.5947    0.9149    0.0000 H   0  0  0  0  0  0  0  0  0  0  0  0
    6.7976    0.9149    0.0000 H   0  0  0  0  0  0  0  0  0  0  0  0
    3.9781   -1.0600    0.0000 H   0  0  0  0  0  0  0  0  0  0  0  0
    4.5981   -1.6800    0.0000 H   0  0  0  0  0  0  0  0  0  0  0  0
    5.2181   -1.0600    0.0000 H   0  0  0  0  0  0  0  0  0  0  0  0
    5.7101   -1.0600    0.0000 H   0  0  0  0  0  0  0  0  0  0  0  0
    6.3301   -1.6800    0.0000 H   0  0  0  0  0  0  0  0  0  0  0  0
    6.9501   -1.0600    0.0000 H   0  0  0  0  0  0  0  0  0  0  0  0
    2.3100    0.9769    0.0000 H   0  0  0  0  0  0  0  0  0  0  0  0
    1.4631    0.7500    0.0000 H   0  0  0  0  0  0  0  0  0  0  0  0
    1.6900   -0.0969    0.0000 H   0  0  0  0  0  0  0  0  0  0  0  0
    9.2382   -0.0969    0.0000 H   0  0  0  0  0  0  0  0  0  0  0  0
    9.4651    0.7500    0.0000 H   0  0  0  0  0  0  0  0  0  0  0  0
    8.6182    0.9769    0.0000 H   0  0  0  0  0  0  0  0  0  0  0  0
  1  6  1  0  0  0  0
  1 10  1  0  0  0  0
  2  7  1  0  0  0  0
  2 11  1  0  0  0  0
  3  4  1  0  0  0  0
  3  5  1  0  0  0  0
  3 14  1  0  0  0  0
  4  6  1  0  0  0  0
  4  8  1  0  0  0  0
  4 12  1  0  0  0  0
  5  7  1  0  0  0  0
  5  9  1  0  0  0  0
  5 13  1  0  0  0  0
  6 15  1  0  0  0  0
  6 16  1  0  0  0  0
  7 17  1  0  0  0  0
  7 18  1  0  0  0  0
  8 19  1  0  0  0  0
  8 20  1  0  0  0  0
  8 21  1  0  0  0  0
  9 22  1  0  0  0  0
  9 23  1  0  0  0  0
  9 24  1  0  0  0  0
 10 25  1  0  0  0  0
 10 26  1  0  0  0  0
 10 27  1  0  0  0  0
 11 28  1  0  0  0  0
 11 29  1  0  0  0  0
 11 30  1  0  0  0  0
M  END
> <PUBCHEM_COMPOUND_CID>
522944
> <PUBCHEM_COMPOUND_CANONICALIZED>
1
> <PUBCHEM_CACTVS_COMPLEXITY>
78.2
> <PUBCHEM_CACTVS_HBOND_ACCEPTOR>
3
> <PUBCHEM_CACTVS_HBOND_DONOR>
1
> <PUBCHEM_CACTVS_ROTATABLE_BOND>
6
> <PUBCHEM_CACTVS_SUBSKEYS>
AAADceByMAAAAAAAAAAAAAAAAAAAAAAAAAAAAAAAAAAAAAAAAAAAHgAQAAAACCjhgAYCAALABAAAAAAAAAAAAAAAAAAAAIAIAAACAAAAAAABAAAAEACQAAAAAAAAAAAAAAAAAAAAAAAAAAAAAAAAAAAAAA==
> <PUBCHEM_IUPAC_OPENEYE_NAME>
1-methoxy-N-(2-methoxy-1-methyl-ethyl)propan-2-amine
> <PUBCHEM_IUPAC_CAS_NAME>
1-methoxy-N-(1-methoxypropan-2-yl)-2-propanamine
> <PUBCHEM_IUPAC_NAME_MARKUP>
1-methoxy-<I>N</I>-(1-methoxypropan-2-yl)propan-2-amine
> <PUBCHEM_IUPAC_NAME>
1-methoxy-N-(1-methoxypropan-2-yl)propan-2-amine
> <PUBCHEM_IUPAC_SYSTEMATIC_NAME>
1-methoxy-N-(1-methoxypropan-2-yl)propan-2-amine
> <PUBCHEM_IUPAC_TRADITIONAL_NAME>
bis(2-methoxy-1-methyl-ethyl)amine
> <PUBCHEM_IUPAC_INCHI>
InChI=1S/C8H19NO2/c1-7(5-10-3)9-8(2)6-11-4/h7-9H,5-6H2,1-4H3
> <PUBCHEM_IUPAC_INCHIKEY>
YQLOJDAYYHBIKS-UHFFFAOYSA-N
> <PUBCHEM_XLOGP3_AA>
0.4
> <PUBCHEM_EXACT_MASS>
161.141578849
> <PUBCHEM_MOLECULAR_FORMULA>
C8H19NO2
> <PUBCHEM_MOLECULAR_WEIGHT>
161.24
> <PUBCHEM_OPENEYE_CAN_SMILES>
CC(COC)NC(C)COC
> <PUBCHEM_OPENEYE_ISO_SMILES>
CC(COC)NC(C)COC
> <PUBCHEM_CACTVS_TPSA>
30.5
> <PUBCHEM_MONOISOTOPIC_WEIGHT>
161.141578849
> <PUBCHEM_TOTAL_CHARGE>
0
> <PUBCHEM_HEAVY_ATOM_COUNT>
11
> <PUBCHEM_ATOM_DEF_STEREO_COUNT>
0
> <PUBCHEM_ATOM_UDEF_STEREO_COUNT>
2
> <PUBCHEM_BOND_DEF_STEREO_COUNT>
0
> <PUBCHEM_BOND_UDEF_STEREO_COUNT>
0
> <PUBCHEM_ISOTOPIC_ATOM_COUNT>
0
> <PUBCHEM_COMPONENT_COUNT>
1
> <PUBCHEM_CACTVS_TAUTO_COUNT>
-1
> <PUBCHEM_COORDINATE_TYPE>
1
5
255
> <PUBCHEM_BONDANNOTATIONS>
4  8  3
5  9  3
$$$$
