522935
  -OEChem-10302200292D
 27 26  0     1  0  0  0  0  0999 V2000
    5.4641    0.2500    0.0000 O   0  0  0  0  0  0  0  0  0  0  0  0
    2.8660   -0.2500    0.0000 O   0  0  0  0  0  0  0  0  0  0  0  0
    8.0622   -0.2500    0.0000 N   0  0  0  0  0  0  0  0  0  0  0  0
    4.5981   -0.2500    0.0000 C   0  0  3  0  0  0  0  0  0  0  0  0
    7.1962    0.2500    0.0000 C   0  0  3  0  0  0  0  0  0  0  0  0
    6.3301   -0.2500    0.0000 C   0  0  0  0  0  0  0  0  0  0  0  0
    3.7320    0.2500    0.0000 C   0  0  0  0  0  0  0  0  0  0  0  0
    4.5981   -1.2500    0.0000 C   0  0  0  0  0  0  0  0  0  0  0  0
    7.1962    1.2500    0.0000 C   0  0  0  0  0  0  0  0  0  0  0  0
    2.0000    0.2500    0.0000 C   0  0  0  0  0  0  0  0  0  0  0  0
    4.5981    0.3700    0.0000 H   0  0  0  0  0  0  0  0  0  0  0  0
    7.7331    0.5600    0.0000 H   0  0  0  0  0  0  0  0  0  0  0  0
    5.9316   -0.7249    0.0000 H   0  0  0  0  0  0  0  0  0  0  0  0
    6.7287   -0.7249    0.0000 H   0  0  0  0  0  0  0  0  0  0  0  0
    4.1306    0.7249    0.0000 H   0  0  0  0  0  0  0  0  0  0  0  0
    3.3335    0.7249    0.0000 H   0  0  0  0  0  0  0  0  0  0  0  0
    3.9781   -1.2500    0.0000 H   0  0  0  0  0  0  0  0  0  0  0  0
    4.5981   -1.8700    0.0000 H   0  0  0  0  0  0  0  0  0  0  0  0
    5.2181   -1.2500    0.0000 H   0  0  0  0  0  0  0  0  0  0  0  0
    7.8162    1.2500    0.0000 H   0  0  0  0  0  0  0  0  0  0  0  0
    7.1962    1.8700    0.0000 H   0  0  0  0  0  0  0  0  0  0  0  0
    6.5762    1.2500    0.0000 H   0  0  0  0  0  0  0  0  0  0  0  0
    8.5991    0.0600    0.0000 H   0  0  0  0  0  0  0  0  0  0  0  0
    8.0622   -0.8700    0.0000 H   0  0  0  0  0  0  0  0  0  0  0  0
    2.3100    0.7869    0.0000 H   0  0  0  0  0  0  0  0  0  0  0  0
    1.4631    0.5600    0.0000 H   0  0  0  0  0  0  0  0  0  0  0  0
    1.6900   -0.2869    0.0000 H   0  0  0  0  0  0  0  0  0  0  0  0
  1  4  1  0  0  0  0
  1  6  1  0  0  0  0
  2  7  1  0  0  0  0
  2 10  1  0  0  0  0
  3  5  1  0  0  0  0
  3 23  1  0  0  0  0
  3 24  1  0  0  0  0
  4  7  1  0  0  0  0
  4  8  1  0  0  0  0
  4 11  1  0  0  0  0
  5  6  1  0  0  0  0
  5  9  1  0  0  0  0
  5 12  1  0  0  0  0
  6 13  1  0  0  0  0
  6 14  1  0  0  0  0
  7 15  1  0  0  0  0
  7 16  1  0  0  0  0
  8 17  1  0  0  0  0
  8 18  1  0  0  0  0
  8 19  1  0  0  0  0
  9 20  1  0  0  0  0
  9 21  1  0  0  0  0
  9 22  1  0  0  0  0
 10 25  1  0  0  0  0
 10 26  1  0  0  0  0
 10 27  1  0  0  0  0
M  END
> <PUBCHEM_COMPOUND_CID>
522935
> <PUBCHEM_COMPOUND_CANONICALIZED>
1
> <PUBCHEM_CACTVS_COMPLEXITY>
78
> <PUBCHEM_CACTVS_HBOND_ACCEPTOR>
3
> <PUBCHEM_CACTVS_HBOND_DONOR>
1
> <PUBCHEM_CACTVS_ROTATABLE_BOND>
5
> <PUBCHEM_CACTVS_SUBSKEYS>
AAADceBiMAAAAAAAAAAAAAAAAAAAAAAAAAAAAAAAAAAAAAAAAAAAHgAQAAAACDzhgAYCAABABAAAAAAAAAAAAAAAAAAAAIAAAAADAAAAAAADAAAAEAACAAAAAAAAAAAAAAAAAAAAAAAAAAAAAAAAAAAAAA==
> <PUBCHEM_IUPAC_OPENEYE_NAME>
1-(2-methoxy-1-methyl-ethoxy)propan-2-amine
> <PUBCHEM_IUPAC_CAS_NAME>
1-(1-methoxypropan-2-yloxy)-2-propanamine
> <PUBCHEM_IUPAC_NAME_MARKUP>
1-(1-methoxypropan-2-yloxy)propan-2-amine
> <PUBCHEM_IUPAC_NAME>
1-(1-methoxypropan-2-yloxy)propan-2-amine
> <PUBCHEM_IUPAC_SYSTEMATIC_NAME>
1-(1-methoxypropan-2-yloxy)propan-2-amine
> <PUBCHEM_IUPAC_TRADITIONAL_NAME>
[2-(2-methoxy-1-methyl-ethoxy)-1-methyl-ethyl]amine
> <PUBCHEM_IUPAC_INCHI>
InChI=1S/C7H17NO2/c1-6(8)4-10-7(2)5-9-3/h6-7H,4-5,8H2,1-3H3
> <PUBCHEM_IUPAC_INCHIKEY>
QADXVXGIHZYVQI-UHFFFAOYSA-N
> <PUBCHEM_XLOGP3_AA>
-0.1
> <PUBCHEM_EXACT_MASS>
147.125928785
> <PUBCHEM_MOLECULAR_FORMULA>
C7H17NO2
> <PUBCHEM_MOLECULAR_WEIGHT>
147.22
> <PUBCHEM_OPENEYE_CAN_SMILES>
CC(COC(C)COC)N
> <PUBCHEM_OPENEYE_ISO_SMILES>
CC(COC(C)COC)N
> <PUBCHEM_CACTVS_TPSA>
44.5
> <PUBCHEM_MONOISOTOPIC_WEIGHT>
147.125928785
> <PUBCHEM_TOTAL_CHARGE>
0
> <PUBCHEM_HEAVY_ATOM_COUNT>
10
> <PUBCHEM_ATOM_DEF_STEREO_COUNT>
0
> <PUBCHEM_ATOM_UDEF_STEREO_COUNT>
2
> <PUBCHEM_BOND_DEF_STEREO_COUNT>
0
> <PUBCHEM_BOND_UDEF_STEREO_COUNT>
0
> <PUBCHEM_ISOTOPIC_ATOM_COUNT>
0
> <PUBCHEM_COMPONENT_COUNT>
1
> <PUBCHEM_CACTVS_TAUTO_COUNT>
-1
> <PUBCHEM_COORDINATE_TYPE>
1
5
255
> <PUBCHEM_BONDANNOTATIONS>
5  3  3
4  8  3
$$$$
