522918
  -OEChem-10302200292D
 15 15  0     1  0  0  0  0  0999 V2000
    3.7044   -1.4571    0.0000 S   0  0  0  0  0  0  0  0  0  0  0  0
    2.6166    0.8907    0.0000 N   0  0  0  0  0  0  0  0  0  0  0  0
    3.2044    0.0817    0.0000 C   0  0  3  0  0  0  0  0  0  0  0  0
    4.2044    0.0817    0.0000 C   0  0  0  0  0  0  0  0  0  0  0  0
    2.8954   -0.8693    0.0000 C   0  0  0  0  0  0  0  0  0  0  0  0
    4.5134   -0.8693    0.0000 C   0  0  0  0  0  0  0  0  0  0  0  0
    2.3648   -0.0513    0.0000 H   0  0  0  0  0  0  0  0  0  0  0  0
    4.8108    0.2106    0.0000 H   0  0  0  0  0  0  0  0  0  0  0  0
    4.1396    0.6983    0.0000 H   0  0  0  0  0  0  0  0  0  0  0  0
    2.3290   -0.6172    0.0000 H   0  0  0  0  0  0  0  0  0  0  0  0
    2.5854   -1.4063    0.0000 H   0  0  0  0  0  0  0  0  0  0  0  0
    4.8234   -1.4063    0.0000 H   0  0  0  0  0  0  0  0  0  0  0  0
    5.0798   -0.6172    0.0000 H   0  0  0  0  0  0  0  0  0  0  0  0
    2.8688    1.4571    0.0000 H   0  0  0  0  0  0  0  0  0  0  0  0
    2.0000    0.8259    0.0000 H   0  0  0  0  0  0  0  0  0  0  0  0
  1  5  1  0  0  0  0
  1  6  1  0  0  0  0
  2  3  1  0  0  0  0
  2 14  1  0  0  0  0
  2 15  1  0  0  0  0
  3  4  1  0  0  0  0
  3  5  1  0  0  0  0
  3  7  1  0  0  0  0
  4  6  1  0  0  0  0
  4  8  1  0  0  0  0
  4  9  1  0  0  0  0
  5 10  1  0  0  0  0
  5 11  1  0  0  0  0
  6 12  1  0  0  0  0
  6 13  1  0  0  0  0
M  END
> <PUBCHEM_COMPOUND_CID>
522918
> <PUBCHEM_COMPOUND_CANONICALIZED>
1
> <PUBCHEM_CACTVS_COMPLEXITY>
46.8
> <PUBCHEM_CACTVS_HBOND_ACCEPTOR>
2
> <PUBCHEM_CACTVS_HBOND_DONOR>
1
> <PUBCHEM_CACTVS_ROTATABLE_BOND>
0
> <PUBCHEM_CACTVS_SUBSKEYS>
AAADccBiAABAAAAAAAAAAAAAAAAAASAAAAAAAAAAAAAAAAAAAAAAHAQQAAAACCjFQASAAABAAAgAAAAAAAAAAAAAABAAAIAAAAAAAAAgAAAAAAAAEAAgAAAAAAAAAAAAAAAAAAAAAAAAAAAAAAAAAAAAAA==
> <PUBCHEM_IUPAC_OPENEYE_NAME>
tetrahydrothiophen-3-amine
> <PUBCHEM_IUPAC_CAS_NAME>
3-thiolanamine
> <PUBCHEM_IUPAC_NAME_MARKUP>
thiolan-3-amine
> <PUBCHEM_IUPAC_NAME>
thiolan-3-amine
> <PUBCHEM_IUPAC_SYSTEMATIC_NAME>
thiolan-3-amine
> <PUBCHEM_IUPAC_TRADITIONAL_NAME>
tetrahydrothiophen-3-ylamine
> <PUBCHEM_IUPAC_INCHI>
InChI=1S/C4H9NS/c5-4-1-2-6-3-4/h4H,1-3,5H2
> <PUBCHEM_IUPAC_INCHIKEY>
GBNRIMMKLMTDLW-UHFFFAOYSA-N
> <PUBCHEM_XLOGP3_AA>
0.1
> <PUBCHEM_EXACT_MASS>
103.04557046
> <PUBCHEM_MOLECULAR_FORMULA>
C4H9NS
> <PUBCHEM_MOLECULAR_WEIGHT>
103.19
> <PUBCHEM_OPENEYE_CAN_SMILES>
C1CSCC1N
> <PUBCHEM_OPENEYE_ISO_SMILES>
C1CSCC1N
> <PUBCHEM_CACTVS_TPSA>
51.3
> <PUBCHEM_MONOISOTOPIC_WEIGHT>
103.04557046
> <PUBCHEM_TOTAL_CHARGE>
0
> <PUBCHEM_HEAVY_ATOM_COUNT>
6
> <PUBCHEM_ATOM_DEF_STEREO_COUNT>
0
> <PUBCHEM_ATOM_UDEF_STEREO_COUNT>
1
> <PUBCHEM_BOND_DEF_STEREO_COUNT>
0
> <PUBCHEM_BOND_UDEF_STEREO_COUNT>
0
> <PUBCHEM_ISOTOPIC_ATOM_COUNT>
0
> <PUBCHEM_COMPONENT_COUNT>
1
> <PUBCHEM_CACTVS_TAUTO_COUNT>
1
> <PUBCHEM_COORDINATE_TYPE>
1
5
255
> <PUBCHEM_BONDANNOTATIONS>
3  7  3
$$$$
