522917
  -OEChem-10302200292D
 17 16  0     1  0  0  0  0  0999 V2000
    1.0399    0.0000    0.0000 Cl  0  0  0  0  0  0  0  0  0  0  0  0
    1.7044    2.5000    0.0000 S   0  0  0  0  0  0  0  0  0  0  0  0
    0.6166    4.8479    0.0000 N   0  0  0  0  0  0  0  0  0  0  0  0
    1.2044    4.0388    0.0000 C   0  0  3  0  0  0  0  0  0  0  0  0
    2.2044    4.0388    0.0000 C   0  0  0  0  0  0  0  0  0  0  0  0
    0.8954    3.0878    0.0000 C   0  0  0  0  0  0  0  0  0  0  0  0
    2.5134    3.0878    0.0000 C   0  0  0  0  0  0  0  0  0  0  0  0
    0.5920    3.9418    0.0000 H   0  0  0  0  0  0  0  0  0  0  0  0
    2.8108    4.1678    0.0000 H   0  0  0  0  0  0  0  0  0  0  0  0
    2.1396    4.6554    0.0000 H   0  0  0  0  0  0  0  0  0  0  0  0
    0.3290    3.3400    0.0000 H   0  0  0  0  0  0  0  0  0  0  0  0
    0.5854    2.5508    0.0000 H   0  0  0  0  0  0  0  0  0  0  0  0
    2.8234    2.5508    0.0000 H   0  0  0  0  0  0  0  0  0  0  0  0
    3.0798    3.3400    0.0000 H   0  0  0  0  0  0  0  0  0  0  0  0
    0.8688    5.4143    0.0000 H   0  0  0  0  0  0  0  0  0  0  0  0
    0.0000    4.7830    0.0000 H   0  0  0  0  0  0  0  0  0  0  0  0
    2.0399    0.0000    0.0000 H   0  0  0  0  0  0  0  0  0  0  0  0
  1 17  1  0  0  0  0
  2  6  1  0  0  0  0
  2  7  1  0  0  0  0
  3  4  1  0  0  0  0
  3 15  1  0  0  0  0
  3 16  1  0  0  0  0
  4  5  1  0  0  0  0
  4  6  1  0  0  0  0
  4  8  1  0  0  0  0
  5  7  1  0  0  0  0
  5  9  1  0  0  0  0
  5 10  1  0  0  0  0
  6 11  1  0  0  0  0
  6 12  1  0  0  0  0
  7 13  1  0  0  0  0
  7 14  1  0  0  0  0
M  END
> <PUBCHEM_COMPOUND_CID>
522917
> <PUBCHEM_COMPOUND_CANONICALIZED>
1
> <PUBCHEM_CACTVS_COMPLEXITY>
46.8
> <PUBCHEM_CACTVS_HBOND_ACCEPTOR>
2
> <PUBCHEM_CACTVS_HBOND_DONOR>
2
> <PUBCHEM_CACTVS_ROTATABLE_BOND>
0
> <PUBCHEM_CACTVS_SUBSKEYS>
AAADccBiAABEAAAAAAAAAAAAAAAAASAAAAAAAAAAAAAAAAAAAAAAHAQQAAAACCjFQASAAABAAAgAAAAAAAAAAAAAABAAAIAAAAAAAAAgAAAAAAAAEAAgAAAAAAAAAAAAAAAAAAAAAAAAAAAAAAAAAAAAAA==
> <PUBCHEM_IUPAC_OPENEYE_NAME>
tetrahydrothiophen-3-amine;hydrochloride
> <PUBCHEM_IUPAC_CAS_NAME>
3-thiolanamine;hydrochloride
> <PUBCHEM_IUPAC_NAME_MARKUP>
thiolan-3-amine;hydrochloride
> <PUBCHEM_IUPAC_NAME>
thiolan-3-amine;hydrochloride
> <PUBCHEM_IUPAC_SYSTEMATIC_NAME>
thiolan-3-amine;hydrochloride
> <PUBCHEM_IUPAC_TRADITIONAL_NAME>
tetrahydrothiophen-3-ylamine;hydrochloride
> <PUBCHEM_IUPAC_INCHI>
InChI=1S/C4H9NS.ClH/c5-4-1-2-6-3-4;/h4H,1-3,5H2;1H
> <PUBCHEM_IUPAC_INCHIKEY>
GYVSFOHSVVNCKC-UHFFFAOYSA-N
> <PUBCHEM_EXACT_MASS>
139.0222482
> <PUBCHEM_MOLECULAR_FORMULA>
C4H10ClNS
> <PUBCHEM_MOLECULAR_WEIGHT>
139.65
> <PUBCHEM_OPENEYE_CAN_SMILES>
C1CSCC1N.Cl
> <PUBCHEM_OPENEYE_ISO_SMILES>
C1CSCC1N.Cl
> <PUBCHEM_CACTVS_TPSA>
51.3
> <PUBCHEM_MONOISOTOPIC_WEIGHT>
139.0222482
> <PUBCHEM_TOTAL_CHARGE>
0
> <PUBCHEM_HEAVY_ATOM_COUNT>
7
> <PUBCHEM_ATOM_DEF_STEREO_COUNT>
0
> <PUBCHEM_ATOM_UDEF_STEREO_COUNT>
1
> <PUBCHEM_BOND_DEF_STEREO_COUNT>
0
> <PUBCHEM_BOND_UDEF_STEREO_COUNT>
0
> <PUBCHEM_ISOTOPIC_ATOM_COUNT>
0
> <PUBCHEM_COMPONENT_COUNT>
2
> <PUBCHEM_CACTVS_TAUTO_COUNT>
-1
> <PUBCHEM_COORDINATE_TYPE>
1
5
255
> <PUBCHEM_BONDANNOTATIONS>
4  3  3
$$$$
