522938
  -OEChem-10302200292D
 24 24  0     1  0  0  0  0  0999 V2000
    4.1554    0.1901    0.0000 O   0  0  0  0  0  0  0  0  0  0  0  0
    4.8625    1.8972    0.0000 O   0  0  0  0  0  0  0  0  0  0  0  0
    3.1554    1.1901    0.0000 C   0  0  0  0  0  0  0  0  0  0  0  0
    3.1554    0.1901    0.0000 C   0  0  3  0  0  0  0  0  0  0  0  0
    2.4483   -0.5170    0.0000 C   0  0  0  0  0  0  0  0  0  0  0  0
    4.1554    1.1901    0.0000 C   0  0  0  0  0  0  0  0  0  0  0  0
    3.1554    2.1901    0.0000 C   0  0  0  0  0  0  0  0  0  0  0  0
    2.1554    1.1901    0.0000 C   0  0  0  0  0  0  0  0  0  0  0  0
    2.7071   -1.4830    0.0000 C   0  0  0  0  0  0  0  0  0  0  0  0
    2.0000   -2.1901    0.0000 C   0  0  0  0  0  0  0  0  0  0  0  0
    3.3927   -0.3827    0.0000 H   0  0  0  0  0  0  0  0  0  0  0  0
    2.0927   -0.0092    0.0000 H   0  0  0  0  0  0  0  0  0  0  0  0
    1.8864   -0.7791    0.0000 H   0  0  0  0  0  0  0  0  0  0  0  0
    3.7754    2.1901    0.0000 H   0  0  0  0  0  0  0  0  0  0  0  0
    3.1554    2.8101    0.0000 H   0  0  0  0  0  0  0  0  0  0  0  0
    2.5354    2.1901    0.0000 H   0  0  0  0  0  0  0  0  0  0  0  0
    2.1554    1.8101    0.0000 H   0  0  0  0  0  0  0  0  0  0  0  0
    1.5354    1.1901    0.0000 H   0  0  0  0  0  0  0  0  0  0  0  0
    2.1554    0.5701    0.0000 H   0  0  0  0  0  0  0  0  0  0  0  0
    3.0627   -1.9908    0.0000 H   0  0  0  0  0  0  0  0  0  0  0  0
    3.2690   -1.2209    0.0000 H   0  0  0  0  0  0  0  0  0  0  0  0
    1.5616   -1.7517    0.0000 H   0  0  0  0  0  0  0  0  0  0  0  0
    1.5616   -2.6285    0.0000 H   0  0  0  0  0  0  0  0  0  0  0  0
    2.4384   -2.6285    0.0000 H   0  0  0  0  0  0  0  0  0  0  0  0
  1  4  1  0  0  0  0
  1  6  1  0  0  0  0
  2  6  2  0  0  0  0
  3  4  1  0  0  0  0
  3  6  1  0  0  0  0
  3  7  1  0  0  0  0
  3  8  1  0  0  0  0
  4  5  1  0  0  0  0
  4 11  1  0  0  0  0
  5  9  1  0  0  0  0
  5 12  1  0  0  0  0
  5 13  1  0  0  0  0
  7 14  1  0  0  0  0
  7 15  1  0  0  0  0
  7 16  1  0  0  0  0
  8 17  1  0  0  0  0
  8 18  1  0  0  0  0
  8 19  1  0  0  0  0
  9 10  1  0  0  0  0
  9 20  1  0  0  0  0
  9 21  1  0  0  0  0
 10 22  1  0  0  0  0
 10 23  1  0  0  0  0
 10 24  1  0  0  0  0
M  END
> <PUBCHEM_COMPOUND_CID>
522938
> <PUBCHEM_COMPOUND_CANONICALIZED>
1
> <PUBCHEM_CACTVS_COMPLEXITY>
149
> <PUBCHEM_CACTVS_HBOND_ACCEPTOR>
2
> <PUBCHEM_CACTVS_HBOND_DONOR>
0
> <PUBCHEM_CACTVS_ROTATABLE_BOND>
2
> <PUBCHEM_CACTVS_SUBSKEYS>
AAADccBwMAAAAAAAAAAAAAAAAABIAAAAAAAAAAAAAAAAAAAAAAAAGgAAAAAADhSggAICCAAABAAIAACQCAAAAAAAAAAAAAEAAAAAABYAAAACAAAEIAAAAAGISAANAAAAAAAAAAAAAAAAAAAAAAAAAAAAAA==
> <PUBCHEM_IUPAC_OPENEYE_NAME>
3,3-dimethyl-4-propyl-oxetan-2-one
> <PUBCHEM_IUPAC_CAS_NAME>
3,3-dimethyl-4-propyl-2-oxetanone
> <PUBCHEM_IUPAC_NAME_MARKUP>
3,3-dimethyl-4-propyloxetan-2-one
> <PUBCHEM_IUPAC_NAME>
3,3-dimethyl-4-propyloxetan-2-one
> <PUBCHEM_IUPAC_SYSTEMATIC_NAME>
3,3-dimethyl-4-propyl-oxetan-2-one
> <PUBCHEM_IUPAC_TRADITIONAL_NAME>
3,3-dimethyl-4-propyl-oxetan-2-one
> <PUBCHEM_IUPAC_INCHI>
InChI=1S/C8H14O2/c1-4-5-6-8(2,3)7(9)10-6/h6H,4-5H2,1-3H3
> <PUBCHEM_IUPAC_INCHIKEY>
HTONSGUIJYZFOJ-UHFFFAOYSA-N
> <PUBCHEM_XLOGP3_AA>
2.1
> <PUBCHEM_EXACT_MASS>
142.099379685
> <PUBCHEM_MOLECULAR_FORMULA>
C8H14O2
> <PUBCHEM_MOLECULAR_WEIGHT>
142.20
> <PUBCHEM_OPENEYE_CAN_SMILES>
CCCC1C(C(=O)O1)(C)C
> <PUBCHEM_OPENEYE_ISO_SMILES>
CCCC1C(C(=O)O1)(C)C
> <PUBCHEM_CACTVS_TPSA>
26.3
> <PUBCHEM_MONOISOTOPIC_WEIGHT>
142.099379685
> <PUBCHEM_TOTAL_CHARGE>
0
> <PUBCHEM_HEAVY_ATOM_COUNT>
10
> <PUBCHEM_ATOM_DEF_STEREO_COUNT>
0
> <PUBCHEM_ATOM_UDEF_STEREO_COUNT>
1
> <PUBCHEM_BOND_DEF_STEREO_COUNT>
0
> <PUBCHEM_BOND_UDEF_STEREO_COUNT>
0
> <PUBCHEM_ISOTOPIC_ATOM_COUNT>
0
> <PUBCHEM_COMPONENT_COUNT>
1
> <PUBCHEM_CACTVS_TAUTO_COUNT>
-1
> <PUBCHEM_COORDINATE_TYPE>
1
5
255
> <PUBCHEM_BONDANNOTATIONS>
4  5  3
$$$$
