522979
  -OEChem-10302200292D
 34 33  0     1  0  0  0  0  0999 V2000
    5.7456    2.7559    0.0000 Cl  0  0  0  0  0  0  0  0  0  0  0  0
    1.4766    3.4750    0.0000 N   0  0  0  0  0  0  0  0  0  0  0  0
    1.4766    2.4750    0.0000 C   0  0  0  0  0  0  0  0  0  0  0  0
    0.6106    1.9750    0.0000 C   0  0  0  0  0  0  0  0  0  0  0  0
    2.3426    1.9750    0.0000 C   0  0  0  0  0  0  0  0  0  0  0  0
    0.6106    0.9749    0.0000 C   0  0  0  0  0  0  0  0  0  0  0  0
    2.3426    0.9749    0.0000 C   0  0  0  0  0  0  0  0  0  0  0  0
    1.4766    0.4749    0.0000 C   0  0  0  0  0  0  0  0  0  0  0  0
    2.3426    3.9750    0.0000 C   0  0  3  0  0  0  0  0  0  0  0  0
    2.3426    4.9750    0.0000 C   0  0  0  0  0  0  0  0  0  0  0  0
    3.2087    3.4750    0.0000 C   0  0  0  0  0  0  0  0  0  0  0  0
    3.2087    5.4750    0.0000 C   0  0  0  0  0  0  0  0  0  0  0  0
    2.0135    2.7849    0.0000 H   0  0  0  0  0  0  0  0  0  0  0  0
    0.3985    2.5576    0.0000 H   0  0  0  0  0  0  0  0  0  0  0  0
    0.0000    1.8673    0.0000 H   0  0  0  0  0  0  0  0  0  0  0  0
    2.9532    1.8673    0.0000 H   0  0  0  0  0  0  0  0  0  0  0  0
    2.5547    2.5576    0.0000 H   0  0  0  0  0  0  0  0  0  0  0  0
    0.0000    1.0826    0.0000 H   0  0  0  0  0  0  0  0  0  0  0  0
    0.3985    0.3923    0.0000 H   0  0  0  0  0  0  0  0  0  0  0  0
    2.5547    0.3923    0.0000 H   0  0  0  0  0  0  0  0  0  0  0  0
    2.9532    1.0826    0.0000 H   0  0  0  0  0  0  0  0  0  0  0  0
    1.0781    0.0000    0.0000 H   0  0  0  0  0  0  0  0  0  0  0  0
    1.8751    0.0000    0.0000 H   0  0  0  0  0  0  0  0  0  0  0  0
    0.9397    3.7850    0.0000 H   0  0  0  0  0  0  0  0  0  0  0  0
    2.3426    3.3550    0.0000 H   0  0  0  0  0  0  0  0  0  0  0  0
    2.1306    5.5576    0.0000 H   0  0  0  0  0  0  0  0  0  0  0  0
    1.7320    4.8673    0.0000 H   0  0  0  0  0  0  0  0  0  0  0  0
    2.8987    2.9380    0.0000 H   0  0  0  0  0  0  0  0  0  0  0  0
    3.7456    3.1650    0.0000 H   0  0  0  0  0  0  0  0  0  0  0  0
    3.5187    4.0119    0.0000 H   0  0  0  0  0  0  0  0  0  0  0  0
    3.5187    4.9380    0.0000 H   0  0  0  0  0  0  0  0  0  0  0  0
    3.7456    5.7850    0.0000 H   0  0  0  0  0  0  0  0  0  0  0  0
    2.8987    6.0119    0.0000 H   0  0  0  0  0  0  0  0  0  0  0  0
    6.7456    2.7559    0.0000 H   0  0  0  0  0  0  0  0  0  0  0  0
  1 34  1  0  0  0  0
  2  3  1  0  0  0  0
  2  9  1  0  0  0  0
  2 24  1  0  0  0  0
  3  4  1  0  0  0  0
  3  5  1  0  0  0  0
  3 13  1  0  0  0  0
  4  6  1  0  0  0  0
  4 14  1  0  0  0  0
  4 15  1  0  0  0  0
  5  7  1  0  0  0  0
  5 16  1  0  0  0  0
  5 17  1  0  0  0  0
  6  8  1  0  0  0  0
  6 18  1  0  0  0  0
  6 19  1  0  0  0  0
  7  8  1  0  0  0  0
  7 20  1  0  0  0  0
  7 21  1  0  0  0  0
  8 22  1  0  0  0  0
  8 23  1  0  0  0  0
  9 10  1  0  0  0  0
  9 11  1  0  0  0  0
  9 25  1  0  0  0  0
 10 12  1  0  0  0  0
 10 26  1  0  0  0  0
 10 27  1  0  0  0  0
 11 28  1  0  0  0  0
 11 29  1  0  0  0  0
 11 30  1  0  0  0  0
 12 31  1  0  0  0  0
 12 32  1  0  0  0  0
 12 33  1  0  0  0  0
M  END
> <PUBCHEM_COMPOUND_CID>
522979
> <PUBCHEM_COMPOUND_CANONICALIZED>
1
> <PUBCHEM_CACTVS_COMPLEXITY>
95
> <PUBCHEM_CACTVS_HBOND_ACCEPTOR>
1
> <PUBCHEM_CACTVS_HBOND_DONOR>
2
> <PUBCHEM_CACTVS_ROTATABLE_BOND>
3
> <PUBCHEM_CACTVS_SUBSKEYS>
AAADceByAAAEAAAAAAAAAAAAAAAAAAAAAAAwAAAAAAAAAAAAAAAAHAAQAAAACCjBAAQCAALAAAAAAAAAAAAAAAAAAAAAAIAIAAAAAAIAgAAEAAAAEACAAAEQAAAAAAAAAAAAAAAAAAAAAAAAAAAAAAAAAA==
> <PUBCHEM_IUPAC_OPENEYE_NAME>
N-sec-butylcyclohexanamine;hydrochloride
> <PUBCHEM_IUPAC_CAS_NAME>
N-butan-2-ylcyclohexanamine;hydrochloride
> <PUBCHEM_IUPAC_NAME_MARKUP>
<I>N</I>-butan-2-ylcyclohexanamine;hydrochloride
> <PUBCHEM_IUPAC_NAME>
N-butan-2-ylcyclohexanamine;hydrochloride
> <PUBCHEM_IUPAC_SYSTEMATIC_NAME>
N-butan-2-ylcyclohexanamine;hydrochloride
> <PUBCHEM_IUPAC_TRADITIONAL_NAME>
cyclohexyl(sec-butyl)amine;hydrochloride
> <PUBCHEM_IUPAC_INCHI>
InChI=1S/C10H21N.ClH/c1-3-9(2)11-10-7-5-4-6-8-10;/h9-11H,3-8H2,1-2H3;1H
> <PUBCHEM_IUPAC_INCHIKEY>
IYTFUZYJOGFIJN-UHFFFAOYSA-N
> <PUBCHEM_EXACT_MASS>
191.1440774
> <PUBCHEM_MOLECULAR_FORMULA>
C10H22ClN
> <PUBCHEM_MOLECULAR_WEIGHT>
191.74
> <PUBCHEM_OPENEYE_CAN_SMILES>
CCC(C)NC1CCCCC1.Cl
> <PUBCHEM_OPENEYE_ISO_SMILES>
CCC(C)NC1CCCCC1.Cl
> <PUBCHEM_CACTVS_TPSA>
12
> <PUBCHEM_MONOISOTOPIC_WEIGHT>
191.1440774
> <PUBCHEM_TOTAL_CHARGE>
0
> <PUBCHEM_HEAVY_ATOM_COUNT>
12
> <PUBCHEM_ATOM_DEF_STEREO_COUNT>
0
> <PUBCHEM_ATOM_UDEF_STEREO_COUNT>
1
> <PUBCHEM_BOND_DEF_STEREO_COUNT>
0
> <PUBCHEM_BOND_UDEF_STEREO_COUNT>
0
> <PUBCHEM_ISOTOPIC_ATOM_COUNT>
0
> <PUBCHEM_COMPONENT_COUNT>
2
> <PUBCHEM_CACTVS_TAUTO_COUNT>
-1
> <PUBCHEM_COORDINATE_TYPE>
1
5
255
> <PUBCHEM_BONDANNOTATIONS>
9  11  3
$$$$
