522913
  -OEChem-10302200292D
 16 16  0     1  0  0  0  0  0999 V2000
    4.7071   -0.5000    0.0000 F   0  0  0  0  0  0  0  0  0  0  0  0
    4.7071    0.5000    0.0000 F   0  0  0  0  0  0  0  0  0  0  0  0
    2.0000   -1.2071    0.0000 F   0  0  0  0  0  0  0  0  0  0  0  0
    2.0000    1.2071    0.0000 F   0  0  0  0  0  0  0  0  0  0  0  0
    3.7071   -2.5000    0.0000 F   0  0  0  0  0  0  0  0  0  0  0  0
    4.7071   -1.5000    0.0000 F   0  0  0  0  0  0  0  0  0  0  0  0
    2.7071   -1.5000    0.0000 F   0  0  0  0  0  0  0  0  0  0  0  0
    3.7071    2.5000    0.0000 F   0  0  0  0  0  0  0  0  0  0  0  0
    4.7071    1.5000    0.0000 F   0  0  0  0  0  0  0  0  0  0  0  0
    2.7071    1.5000    0.0000 F   0  0  0  0  0  0  0  0  0  0  0  0
    3.7071   -0.5000    0.0000 C   0  0  3  0  0  0  0  0  0  0  0  0
    3.7071    0.5000    0.0000 C   0  0  3  0  0  0  0  0  0  0  0  0
    2.7071   -0.5000    0.0000 C   0  0  0  0  0  0  0  0  0  0  0  0
    2.7071    0.5000    0.0000 C   0  0  0  0  0  0  0  0  0  0  0  0
    3.7071   -1.5000    0.0000 C   0  0  0  0  0  0  0  0  0  0  0  0
    3.7071    1.5000    0.0000 C   0  0  0  0  0  0  0  0  0  0  0  0
  1 11  1  0  0  0  0
  2 12  1  0  0  0  0
  3 13  1  0  0  0  0
  4 14  1  0  0  0  0
  5 15  1  0  0  0  0
  6 15  1  0  0  0  0
  7 15  1  0  0  0  0
  8 16  1  0  0  0  0
  9 16  1  0  0  0  0
 10 16  1  0  0  0  0
 11 12  1  0  0  0  0
 11 13  1  0  0  0  0
 11 15  1  0  0  0  0
 12 14  1  0  0  0  0
 12 16  1  0  0  0  0
 13 14  2  0  0  0  0
M  END
> <PUBCHEM_COMPOUND_CID>
522913
> <PUBCHEM_COMPOUND_CANONICALIZED>
1
> <PUBCHEM_CACTVS_COMPLEXITY>
313
> <PUBCHEM_CACTVS_HBOND_ACCEPTOR>
10
> <PUBCHEM_CACTVS_HBOND_DONOR>
0
> <PUBCHEM_CACTVS_ROTATABLE_BOND>
0
> <PUBCHEM_CACTVS_SUBSKEYS>
AAADcQBgAcAAAAAAAAAAAAAAAABAAAAAAAAAAAAAAAAAAAAAAAAACQAAAAAADAAAABAAAAAAAACAAABAAAAAAAAgAAAACAAAAAgAAAAAAAAAAAAAgAAIAAIAAAAIgAAAAAAAAAAAAAAAAAAAAAAAAAAAAA==
> <PUBCHEM_IUPAC_OPENEYE_NAME>
1,2,3,4-tetrafluoro-3,4-bis(trifluoromethyl)cyclobutene
> <PUBCHEM_IUPAC_CAS_NAME>
1,2,3,4-tetrafluoro-3,4-bis(trifluoromethyl)cyclobutene
> <PUBCHEM_IUPAC_NAME_MARKUP>
1,2,3,4-tetrafluoro-3,4-bis(trifluoromethyl)cyclobutene
> <PUBCHEM_IUPAC_NAME>
1,2,3,4-tetrafluoro-3,4-bis(trifluoromethyl)cyclobutene
> <PUBCHEM_IUPAC_SYSTEMATIC_NAME>
1,2,3,4-tetrakis(fluoranyl)-3,4-bis(trifluoromethyl)cyclobutene
> <PUBCHEM_IUPAC_TRADITIONAL_NAME>
1,2,3,4-tetrafluoro-3,4-bis(trifluoromethyl)cyclobutene
> <PUBCHEM_IUPAC_INCHI>
InChI=1S/C6F10/c7-1-2(8)4(10,6(14,15)16)3(1,9)5(11,12)13
> <PUBCHEM_IUPAC_INCHIKEY>
KPDHRMLTIGDRFC-UHFFFAOYSA-N
> <PUBCHEM_XLOGP3_AA>
2.7
> <PUBCHEM_EXACT_MASS>
261.98403162
> <PUBCHEM_MOLECULAR_FORMULA>
C6F10
> <PUBCHEM_MOLECULAR_WEIGHT>
262.05
> <PUBCHEM_OPENEYE_CAN_SMILES>
C1(=C(C(C1(C(F)(F)F)F)(C(F)(F)F)F)F)F
> <PUBCHEM_OPENEYE_ISO_SMILES>
C1(=C(C(C1(C(F)(F)F)F)(C(F)(F)F)F)F)F
> <PUBCHEM_CACTVS_TPSA>
0
> <PUBCHEM_MONOISOTOPIC_WEIGHT>
261.98403162
> <PUBCHEM_TOTAL_CHARGE>
0
> <PUBCHEM_HEAVY_ATOM_COUNT>
16
> <PUBCHEM_ATOM_DEF_STEREO_COUNT>
0
> <PUBCHEM_ATOM_UDEF_STEREO_COUNT>
2
> <PUBCHEM_BOND_DEF_STEREO_COUNT>
0
> <PUBCHEM_BOND_UDEF_STEREO_COUNT>
0
> <PUBCHEM_ISOTOPIC_ATOM_COUNT>
0
> <PUBCHEM_COMPONENT_COUNT>
1
> <PUBCHEM_CACTVS_TAUTO_COUNT>
-1
> <PUBCHEM_COORDINATE_TYPE>
1
5
255
> <PUBCHEM_BONDANNOTATIONS>
11  15  3
12  2  3
$$$$
