522952
  -OEChem-10302200292D
 29 28  0     1  0  0  0  0  0999 V2000
    4.6110   -2.1595    0.0000 O   0  0  0  0  0  0  0  0  0  0  0  0
    6.4207   -1.2519    0.0000 O   0  0  0  0  0  0  0  0  0  0  0  0
    3.4030    1.2801    0.0000 O   0  0  0  0  0  0  0  0  0  0  0  0
    5.8190    2.1595    0.0000 O   0  0  0  0  0  0  0  0  0  0  0  0
    2.5369   -0.2198    0.0000 N   0  0  0  0  0  0  0  0  0  0  0  0
    7.4466    1.5671    0.0000 N   0  0  0  0  0  0  0  0  0  0  0  0
    5.1350    0.2802    0.0000 C   0  0  0  0  0  0  0  0  0  0  0  0
    4.2690   -0.2198    0.0000 C   0  0  3  0  0  0  0  0  0  0  0  0
    6.1198    0.4538    0.0000 C   0  0  3  0  0  0  0  0  0  0  0  0
    4.2690   -1.2199    0.0000 C   0  0  0  0  0  0  0  0  0  0  0  0
    6.7626   -0.3122    0.0000 C   0  0  0  0  0  0  0  0  0  0  0  0
    3.4030    0.2802    0.0000 C   0  0  0  0  0  0  0  0  0  0  0  0
    6.4618    1.3935    0.0000 C   0  0  0  0  0  0  0  0  0  0  0  0
    3.4030   -1.7198    0.0000 C   0  0  0  0  0  0  0  0  0  0  0  0
    7.7474   -0.1386    0.0000 C   0  0  0  0  0  0  0  0  0  0  0  0
    5.2780    0.8834    0.0000 H   0  0  0  0  0  0  0  0  0  0  0  0
    5.3471   -0.3025    0.0000 H   0  0  0  0  0  0  0  0  0  0  0  0
    4.2690    0.4002    0.0000 H   0  0  0  0  0  0  0  0  0  0  0  0
    6.7304    0.5615    0.0000 H   0  0  0  0  0  0  0  0  0  0  0  0
    3.0930   -1.1829    0.0000 H   0  0  0  0  0  0  0  0  0  0  0  0
    2.8660   -2.0298    0.0000 H   0  0  0  0  0  0  0  0  0  0  0  0
    3.7130   -2.2568    0.0000 H   0  0  0  0  0  0  0  0  0  0  0  0
    7.8551   -0.7492    0.0000 H   0  0  0  0  0  0  0  0  0  0  0  0
    8.3580   -0.0309    0.0000 H   0  0  0  0  0  0  0  0  0  0  0  0
    7.6398    0.4720    0.0000 H   0  0  0  0  0  0  0  0  0  0  0  0
    2.0000    0.0902    0.0000 H   0  0  0  0  0  0  0  0  0  0  0  0
    2.5369   -0.8398    0.0000 H   0  0  0  0  0  0  0  0  0  0  0  0
    7.6587    2.1498    0.0000 H   0  0  0  0  0  0  0  0  0  0  0  0
    7.8452    1.0922    0.0000 H   0  0  0  0  0  0  0  0  0  0  0  0
  1 10  2  0  0  0  0
  2 11  2  0  0  0  0
  3 12  2  0  0  0  0
  4 13  2  0  0  0  0
  5 12  1  0  0  0  0
  5 26  1  0  0  0  0
  5 27  1  0  0  0  0
  6 13  1  0  0  0  0
  6 28  1  0  0  0  0
  6 29  1  0  0  0  0
  7  8  1  0  0  0  0
  7  9  1  0  0  0  0
  7 16  1  0  0  0  0
  7 17  1  0  0  0  0
  8 10  1  0  0  0  0
  8 12  1  0  0  0  0
  8 18  1  0  0  0  0
  9 11  1  0  0  0  0
  9 13  1  0  0  0  0
  9 19  1  0  0  0  0
 10 14  1  0  0  0  0
 11 15  1  0  0  0  0
 14 20  1  0  0  0  0
 14 21  1  0  0  0  0
 14 22  1  0  0  0  0
 15 23  1  0  0  0  0
 15 24  1  0  0  0  0
 15 25  1  0  0  0  0
M  END
> <PUBCHEM_COMPOUND_CID>
522952
> <PUBCHEM_COMPOUND_CANONICALIZED>
1
> <PUBCHEM_CACTVS_COMPLEXITY>
281
> <PUBCHEM_CACTVS_HBOND_ACCEPTOR>
4
> <PUBCHEM_CACTVS_HBOND_DONOR>
2
> <PUBCHEM_CACTVS_ROTATABLE_BOND>
6
> <PUBCHEM_CACTVS_SUBSKEYS>
AAADccBzOAAAAAAAAAAAAAAAAAAAAAAAAAAAAAAAAAAAAAAAAAAAHgAQAAAADQSBgAACAABAAAAIAIEQEAAAAAAAAAAAAAEAAAAAABoIgAAAAAAAEAAAAAEYiwAuAAAAAAAAAAAAAAAAAAAAAAAAAAAAAA==
> <PUBCHEM_IUPAC_OPENEYE_NAME>
2,4-diacetylpentanediamide
> <PUBCHEM_IUPAC_CAS_NAME>
2,4-diacetylpentanediamide
> <PUBCHEM_IUPAC_NAME_MARKUP>
2,4-diacetylpentanediamide
> <PUBCHEM_IUPAC_NAME>
2,4-diacetylpentanediamide
> <PUBCHEM_IUPAC_SYSTEMATIC_NAME>
2,4-diethanoylpentanediamide
> <PUBCHEM_IUPAC_TRADITIONAL_NAME>
2,4-diacetylglutaramide
> <PUBCHEM_IUPAC_INCHI>
InChI=1S/C9H14N2O4/c1-4(12)6(8(10)14)3-7(5(2)13)9(11)15/h6-7H,3H2,1-2H3,(H2,10,14)(H2,11,15)
> <PUBCHEM_IUPAC_INCHIKEY>
JYWFWVICVDCUDP-UHFFFAOYSA-N
> <PUBCHEM_XLOGP3_AA>
-1.8
> <PUBCHEM_EXACT_MASS>
214.09535693
> <PUBCHEM_MOLECULAR_FORMULA>
C9H14N2O4
> <PUBCHEM_MOLECULAR_WEIGHT>
214.22
> <PUBCHEM_OPENEYE_CAN_SMILES>
CC(=O)C(CC(C(=O)C)C(=O)N)C(=O)N
> <PUBCHEM_OPENEYE_ISO_SMILES>
CC(=O)C(CC(C(=O)C)C(=O)N)C(=O)N
> <PUBCHEM_CACTVS_TPSA>
120
> <PUBCHEM_MONOISOTOPIC_WEIGHT>
214.09535693
> <PUBCHEM_TOTAL_CHARGE>
0
> <PUBCHEM_HEAVY_ATOM_COUNT>
15
> <PUBCHEM_ATOM_DEF_STEREO_COUNT>
0
> <PUBCHEM_ATOM_UDEF_STEREO_COUNT>
2
> <PUBCHEM_BOND_DEF_STEREO_COUNT>
0
> <PUBCHEM_BOND_UDEF_STEREO_COUNT>
0
> <PUBCHEM_ISOTOPIC_ATOM_COUNT>
0
> <PUBCHEM_COMPONENT_COUNT>
1
> <PUBCHEM_CACTVS_TAUTO_COUNT>
-1
> <PUBCHEM_COORDINATE_TYPE>
1
5
255
> <PUBCHEM_BONDANNOTATIONS>
8  7  3
9  7  3
$$$$
