523054
  -OEChem-10302200292D
 27 27  0     1  0  0  0  0  0999 V2000
    3.6942   -0.5684    0.0000 C   0  0  3  0  0  0  0  0  0  0  0  0
    4.5032    0.0194    0.0000 C   0  0  3  0  0  0  0  0  0  0  0  0
    4.0032   -1.5194    0.0000 C   0  0  0  0  0  0  0  0  0  0  0  0
    5.3122   -0.5684    0.0000 C   0  0  0  0  0  0  0  0  0  0  0  0
    5.0032   -1.5194    0.0000 C   0  0  0  0  0  0  0  0  0  0  0  0
    2.7431   -0.2593    0.0000 C   0  0  0  0  0  0  0  0  0  0  0  0
    4.5032    1.0194    0.0000 C   0  0  0  0  0  0  0  0  0  0  0  0
    2.0000   -0.9285    0.0000 C   0  0  0  0  0  0  0  0  0  0  0  0
    5.3692    1.5194    0.0000 C   0  0  0  0  0  0  0  0  0  0  0  0
    3.2558   -1.0068    0.0000 H   0  0  0  0  0  0  0  0  0  0  0  0
    3.9508    0.3009    0.0000 H   0  0  0  0  0  0  0  0  0  0  0  0
    3.3968   -1.6483    0.0000 H   0  0  0  0  0  0  0  0  0  0  0  0
    4.0680   -2.1360    0.0000 H   0  0  0  0  0  0  0  0  0  0  0  0
    5.8786   -0.8205    0.0000 H   0  0  0  0  0  0  0  0  0  0  0  0
    5.6222   -0.0314    0.0000 H   0  0  0  0  0  0  0  0  0  0  0  0
    4.9384   -2.1360    0.0000 H   0  0  0  0  0  0  0  0  0  0  0  0
    5.6097   -1.6483    0.0000 H   0  0  0  0  0  0  0  0  0  0  0  0
    3.0342    0.2881    0.0000 H   0  0  0  0  0  0  0  0  0  0  0  0
    2.2546    0.1224    0.0000 H   0  0  0  0  0  0  0  0  0  0  0  0
    4.2912    1.6020    0.0000 H   0  0  0  0  0  0  0  0  0  0  0  0
    3.8926    0.9118    0.0000 H   0  0  0  0  0  0  0  0  0  0  0  0
    1.5851   -0.4677    0.0000 H   0  0  0  0  0  0  0  0  0  0  0  0
    1.5392   -1.3433    0.0000 H   0  0  0  0  0  0  0  0  0  0  0  0
    2.4149   -1.3892    0.0000 H   0  0  0  0  0  0  0  0  0  0  0  0
    5.6792    0.9825    0.0000 H   0  0  0  0  0  0  0  0  0  0  0  0
    5.9062    1.8294    0.0000 H   0  0  0  0  0  0  0  0  0  0  0  0
    5.0592    2.0564    0.0000 H   0  0  0  0  0  0  0  0  0  0  0  0
  1  2  1  0  0  0  0
  1  3  1  0  0  0  0
  1  6  1  0  0  0  0
  1 10  1  0  0  0  0
  2  4  1  0  0  0  0
  2  7  1  0  0  0  0
  2 11  1  0  0  0  0
  3  5  1  0  0  0  0
  3 12  1  0  0  0  0
  3 13  1  0  0  0  0
  4  5  1  0  0  0  0
  4 14  1  0  0  0  0
  4 15  1  0  0  0  0
  5 16  1  0  0  0  0
  5 17  1  0  0  0  0
  6  8  1  0  0  0  0
  6 18  1  0  0  0  0
  6 19  1  0  0  0  0
  7  9  1  0  0  0  0
  7 20  1  0  0  0  0
  7 21  1  0  0  0  0
  8 22  1  0  0  0  0
  8 23  1  0  0  0  0
  8 24  1  0  0  0  0
  9 25  1  0  0  0  0
  9 26  1  0  0  0  0
  9 27  1  0  0  0  0
M  END
> <PUBCHEM_COMPOUND_CID>
523054
> <PUBCHEM_COMPOUND_CANONICALIZED>
1
> <PUBCHEM_CACTVS_COMPLEXITY>
66.1
> <PUBCHEM_CACTVS_HBOND_ACCEPTOR>
0
> <PUBCHEM_CACTVS_HBOND_DONOR>
0
> <PUBCHEM_CACTVS_ROTATABLE_BOND>
2
> <PUBCHEM_CACTVS_SUBSKEYS>
AAADceBwAAAAAAAAAAAAAAAAAAAAAYAAAAAAAAAAAAAAAAAAAAAAGAAAAAAADQCAAAACAAAAAAAAAAAAAAAAAAAAAAAAAAAAAAAAAAIAAAAAAAAAAAAAAAEAgIAOgAAAAAAAAAAAAAAAAAAAAAAACAAAAA==
> <PUBCHEM_IUPAC_OPENEYE_NAME>
1,2-diethylcyclopentane
> <PUBCHEM_IUPAC_CAS_NAME>
1,2-diethylcyclopentane
> <PUBCHEM_IUPAC_NAME_MARKUP>
1,2-diethylcyclopentane
> <PUBCHEM_IUPAC_NAME>
1,2-diethylcyclopentane
> <PUBCHEM_IUPAC_SYSTEMATIC_NAME>
1,2-diethylcyclopentane
> <PUBCHEM_IUPAC_TRADITIONAL_NAME>
1,2-diethylcyclopentane
> <PUBCHEM_IUPAC_INCHI>
InChI=1S/C9H18/c1-3-8-6-5-7-9(8)4-2/h8-9H,3-7H2,1-2H3
> <PUBCHEM_IUPAC_INCHIKEY>
JKMYLSLBFNMSFP-UHFFFAOYSA-N
> <PUBCHEM_XLOGP3_AA>
4.3
> <PUBCHEM_EXACT_MASS>
126.140850574
> <PUBCHEM_MOLECULAR_FORMULA>
C9H18
> <PUBCHEM_MOLECULAR_WEIGHT>
126.24
> <PUBCHEM_OPENEYE_CAN_SMILES>
CCC1CCCC1CC
> <PUBCHEM_OPENEYE_ISO_SMILES>
CCC1CCCC1CC
> <PUBCHEM_CACTVS_TPSA>
0
> <PUBCHEM_MONOISOTOPIC_WEIGHT>
126.140850574
> <PUBCHEM_TOTAL_CHARGE>
0
> <PUBCHEM_HEAVY_ATOM_COUNT>
9
> <PUBCHEM_ATOM_DEF_STEREO_COUNT>
0
> <PUBCHEM_ATOM_UDEF_STEREO_COUNT>
2
> <PUBCHEM_BOND_DEF_STEREO_COUNT>
0
> <PUBCHEM_BOND_UDEF_STEREO_COUNT>
0
> <PUBCHEM_ISOTOPIC_ATOM_COUNT>
0
> <PUBCHEM_COMPONENT_COUNT>
1
> <PUBCHEM_CACTVS_TAUTO_COUNT>
-1
> <PUBCHEM_COORDINATE_TYPE>
1
5
255
> <PUBCHEM_BONDANNOTATIONS>
1  6  3
2  7  3
$$$$
