523013
  -OEChem-10302200292D
 32 33  0     1  0  0  0  0  0999 V2000
    5.4641   -0.8543    0.0000 O   0  0  0  0  0  0  0  0  0  0  0  0
    8.0441    1.3584    0.0000 O   0  0  0  0  0  0  0  0  0  0  0  0
    3.7320   -0.8543    0.0000 O   0  0  0  0  0  0  0  0  0  0  0  0
    6.3301   -0.3543    0.0000 C   0  0  3  0  0  0  0  0  0  0  0  0
    7.3384   -0.3584    0.0000 C   0  0  0  0  0  0  0  0  0  0  0  0
    6.3301    0.6457    0.0000 C   0  0  3  0  0  0  0  0  0  0  0  0
    7.3384    0.6499    0.0000 C   0  0  0  0  0  0  0  0  0  0  0  0
    5.4641    1.1457    0.0000 C   0  0  0  0  0  0  0  0  0  0  0  0
    4.5981    0.6457    0.0000 C   0  0  0  0  0  0  0  0  0  0  0  0
    8.3384   -0.3605    0.0000 C   0  0  0  0  0  0  0  0  0  0  0  0
    7.3364   -1.3584    0.0000 C   0  0  0  0  0  0  0  0  0  0  0  0
    4.5981   -0.3543    0.0000 C   0  0  3  0  0  0  0  0  0  0  0  0
    2.8660   -0.3543    0.0000 C   0  0  0  0  0  0  0  0  0  0  0  0
    2.0000   -0.8543    0.0000 C   0  0  0  0  0  0  0  0  0  0  0  0
    6.4894   -0.9535    0.0000 H   0  0  0  0  0  0  0  0  0  0  0  0
    6.4894    1.2449    0.0000 H   0  0  0  0  0  0  0  0  0  0  0  0
    5.8626    1.6207    0.0000 H   0  0  0  0  0  0  0  0  0  0  0  0
    5.0656    1.6207    0.0000 H   0  0  0  0  0  0  0  0  0  0  0  0
    4.3860    1.2283    0.0000 H   0  0  0  0  0  0  0  0  0  0  0  0
    3.9875    0.5381    0.0000 H   0  0  0  0  0  0  0  0  0  0  0  0
    8.3371   -0.9805    0.0000 H   0  0  0  0  0  0  0  0  0  0  0  0
    8.9584   -0.3618    0.0000 H   0  0  0  0  0  0  0  0  0  0  0  0
    8.3397    0.2595    0.0000 H   0  0  0  0  0  0  0  0  0  0  0  0
    6.7164   -1.3572    0.0000 H   0  0  0  0  0  0  0  0  0  0  0  0
    7.3351   -1.9784    0.0000 H   0  0  0  0  0  0  0  0  0  0  0  0
    7.9564   -1.3597    0.0000 H   0  0  0  0  0  0  0  0  0  0  0  0
    4.5981   -0.9743    0.0000 H   0  0  0  0  0  0  0  0  0  0  0  0
    3.2646    0.1207    0.0000 H   0  0  0  0  0  0  0  0  0  0  0  0
    2.4675    0.1207    0.0000 H   0  0  0  0  0  0  0  0  0  0  0  0
    1.6900   -0.3173    0.0000 H   0  0  0  0  0  0  0  0  0  0  0  0
    1.4631   -1.1643    0.0000 H   0  0  0  0  0  0  0  0  0  0  0  0
    2.3100   -1.3912    0.0000 H   0  0  0  0  0  0  0  0  0  0  0  0
  1  4  1  0  0  0  0
  1 12  1  0  0  0  0
  2  7  2  0  0  0  0
  3 12  1  0  0  0  0
  3 13  1  0  0  0  0
  4  5  1  0  0  0  0
  4  6  1  0  0  0  0
  4 15  1  0  0  0  0
  5  7  1  0  0  0  0
  5 10  1  0  0  0  0
  5 11  1  0  0  0  0
  6  7  1  0  0  0  0
  6  8  1  0  0  0  0
  6 16  1  0  0  0  0
  8  9  1  0  0  0  0
  8 17  1  0  0  0  0
  8 18  1  0  0  0  0
  9 12  1  0  0  0  0
  9 19  1  0  0  0  0
  9 20  1  0  0  0  0
 10 21  1  0  0  0  0
 10 22  1  0  0  0  0
 10 23  1  0  0  0  0
 11 24  1  0  0  0  0
 11 25  1  0  0  0  0
 11 26  1  0  0  0  0
 12 27  1  0  0  0  0
 13 14  1  0  0  0  0
 13 28  1  0  0  0  0
 13 29  1  0  0  0  0
 14 30  1  0  0  0  0
 14 31  1  0  0  0  0
 14 32  1  0  0  0  0
M  END
> <PUBCHEM_COMPOUND_CID>
523013
> <PUBCHEM_COMPOUND_CANONICALIZED>
1
> <PUBCHEM_CACTVS_COMPLEXITY>
247
> <PUBCHEM_CACTVS_HBOND_ACCEPTOR>
3
> <PUBCHEM_CACTVS_HBOND_DONOR>
0
> <PUBCHEM_CACTVS_ROTATABLE_BOND>
2
> <PUBCHEM_CACTVS_SUBSKEYS>
AAADceBwMAAAAAAAAAAAAAAAAABgAAAAAAAkAAAAAAASAAAAAAAAGgAAAAAADxSwgAMCCAAABAAIAIAQAAAAAAAAAAAAAAEAAAAQABYAAAAiAAAEIAAEAAGI7GyPAAAAAAAAAAAAAAAAAAAAAAAAAAAAAA==
> <PUBCHEM_IUPAC_OPENEYE_NAME>
3-ethoxy-8,8-dimethyl-2-oxabicyclo[4.2.0]octan-7-one
> <PUBCHEM_IUPAC_CAS_NAME>
3-ethoxy-8,8-dimethyl-2-oxabicyclo[4.2.0]octan-7-one
> <PUBCHEM_IUPAC_NAME_MARKUP>
3-ethoxy-8,8-dimethyl-2-oxabicyclo[4.2.0]octan-7-one
> <PUBCHEM_IUPAC_NAME>
3-ethoxy-8,8-dimethyl-2-oxabicyclo[4.2.0]octan-7-one
> <PUBCHEM_IUPAC_SYSTEMATIC_NAME>
3-ethoxy-8,8-dimethyl-2-oxabicyclo[4.2.0]octan-7-one
> <PUBCHEM_IUPAC_TRADITIONAL_NAME>
3-ethoxy-8,8-dimethyl-2-oxabicyclo[4.2.0]octan-7-one
> <PUBCHEM_IUPAC_INCHI>
InChI=1S/C11H18O3/c1-4-13-8-6-5-7-9(12)11(2,3)10(7)14-8/h7-8,10H,4-6H2,1-3H3
> <PUBCHEM_IUPAC_INCHIKEY>
CAGOHOMLBFMCCX-UHFFFAOYSA-N
> <PUBCHEM_XLOGP3_AA>
1.4
> <PUBCHEM_EXACT_MASS>
198.125594432
> <PUBCHEM_MOLECULAR_FORMULA>
C11H18O3
> <PUBCHEM_MOLECULAR_WEIGHT>
198.26
> <PUBCHEM_OPENEYE_CAN_SMILES>
CCOC1CCC2C(O1)C(C2=O)(C)C
> <PUBCHEM_OPENEYE_ISO_SMILES>
CCOC1CCC2C(O1)C(C2=O)(C)C
> <PUBCHEM_CACTVS_TPSA>
35.5
> <PUBCHEM_MONOISOTOPIC_WEIGHT>
198.125594432
> <PUBCHEM_TOTAL_CHARGE>
0
> <PUBCHEM_HEAVY_ATOM_COUNT>
14
> <PUBCHEM_ATOM_DEF_STEREO_COUNT>
0
> <PUBCHEM_ATOM_UDEF_STEREO_COUNT>
3
> <PUBCHEM_BOND_DEF_STEREO_COUNT>
0
> <PUBCHEM_BOND_UDEF_STEREO_COUNT>
0
> <PUBCHEM_ISOTOPIC_ATOM_COUNT>
0
> <PUBCHEM_COMPONENT_COUNT>
1
> <PUBCHEM_CACTVS_TAUTO_COUNT>
-1
> <PUBCHEM_COORDINATE_TYPE>
1
5
255
> <PUBCHEM_BONDANNOTATIONS>
12  3  3
4  5  3
6  8  3
$$$$
