523072
  -OEChem-10302200292D
 45 47  0     1  0  0  0  0  0999 V2000
    6.4074   -0.3645    0.0000 O   0  0  0  0  0  0  0  0  0  0  0  0
    4.8376    0.3675    0.0000 O   0  0  0  0  0  0  0  0  0  0  0  0
    3.7207   -4.0769    0.0000 O   0  5  0  0  0  0  0  0  0  0  0  0
    5.1395   -3.0834    0.0000 O   0  0  0  0  0  0  0  0  0  0  0  0
    4.9886   -1.3580    0.0000 N   0  0  0  0  0  0  0  0  0  0  0  0
    4.1434   -3.1706    0.0000 N   0  3  0  0  0  0  0  0  0  0  0  0
    8.2027    1.1338    0.0000 C   0  0  3  0  0  0  0  0  0  0  0  0
    7.7249    3.0824    0.0000 C   0  0  0  0  0  0  0  0  0  0  0  0
    8.4615    2.0997    0.0000 C   0  0  3  0  0  0  0  0  0  0  0  0
    6.8300    0.5418    0.0000 C   0  0  3  0  0  0  0  0  0  0  0  0
    9.6017    0.6250    0.0000 C   0  0  0  0  0  0  0  0  0  0  0  0
    6.4880    1.4815    0.0000 C   0  0  0  0  0  0  0  0  0  0  0  0
    9.8605    1.5909    0.0000 C   0  0  0  0  0  0  0  0  0  0  0  0
    7.9439    0.1679    0.0000 C   0  0  0  0  0  0  0  0  0  0  0  0
    7.8294    4.0769    0.0000 C   0  0  0  0  0  0  0  0  0  0  0  0
    6.8114    3.4891    0.0000 C   0  0  0  0  0  0  0  0  0  0  0  0
    5.4112   -0.4517    0.0000 C   0  0  0  0  0  0  0  0  0  0  0  0
    3.9924   -1.4451    0.0000 C   0  0  0  0  0  0  0  0  0  0  0  0
    3.5698   -2.3514    0.0000 C   0  0  0  0  0  0  0  0  0  0  0  0
    3.4188   -0.6260    0.0000 C   0  0  0  0  0  0  0  0  0  0  0  0
    2.5736   -2.4386    0.0000 C   0  0  0  0  0  0  0  0  0  0  0  0
    2.4226   -0.7131    0.0000 C   0  0  0  0  0  0  0  0  0  0  0  0
    2.0000   -1.6194    0.0000 C   0  0  0  0  0  0  0  0  0  0  0  0
    8.4475    1.4799    0.0000 H   0  0  0  0  0  0  0  0  0  0  0  0
    7.2620    0.0971    0.0000 H   0  0  0  0  0  0  0  0  0  0  0  0
    9.4067    0.0364    0.0000 H   0  0  0  0  0  0  0  0  0  0  0  0
   10.1956    0.4472    0.0000 H   0  0  0  0  0  0  0  0  0  0  0  0
    6.2937    2.0703    0.0000 H   0  0  0  0  0  0  0  0  0  0  0  0
    5.9022    1.2783    0.0000 H   0  0  0  0  0  0  0  0  0  0  0  0
   10.4544    1.4132    0.0000 H   0  0  0  0  0  0  0  0  0  0  0  0
   10.0554    2.1795    0.0000 H   0  0  0  0  0  0  0  0  0  0  0  0
    7.3450    0.3284    0.0000 H   0  0  0  0  0  0  0  0  0  0  0  0
    7.7834   -0.4310    0.0000 H   0  0  0  0  0  0  0  0  0  0  0  0
    8.5428    0.0074    0.0000 H   0  0  0  0  0  0  0  0  0  0  0  0
    8.4461    4.0121    0.0000 H   0  0  0  0  0  0  0  0  0  0  0  0
    7.8943    4.6935    0.0000 H   0  0  0  0  0  0  0  0  0  0  0  0
    7.2128    4.1417    0.0000 H   0  0  0  0  0  0  0  0  0  0  0  0
    7.0636    4.0555    0.0000 H   0  0  0  0  0  0  0  0  0  0  0  0
    6.2450    3.7413    0.0000 H   0  0  0  0  0  0  0  0  0  0  0  0
    6.5592    2.9227    0.0000 H   0  0  0  0  0  0  0  0  0  0  0  0
    5.3442   -1.8658    0.0000 H   0  0  0  0  0  0  0  0  0  0  0  0
    3.6808   -0.0641    0.0000 H   0  0  0  0  0  0  0  0  0  0  0  0
    2.3116   -3.0005    0.0000 H   0  0  0  0  0  0  0  0  0  0  0  0
    2.0670   -0.2052    0.0000 H   0  0  0  0  0  0  0  0  0  0  0  0
    1.3824   -1.6735    0.0000 H   0  0  0  0  0  0  0  0  0  0  0  0
  1 10  1  0  0  0  0
  1 17  1  0  0  0  0
  2 17  2  0  0  0  0
  3  6  1  0  0  0  0
  4  6  2  0  0  0  0
  5 17  1  0  0  0  0
  5 18  1  0  0  0  0
  5 41  1  0  0  0  0
  6 19  1  0  0  0  0
  7  8  1  0  0  0  0
  7 10  1  0  0  0  0
  7 11  1  0  0  0  0
  7 14  1  0  0  0  0
  8  9  1  0  0  0  0
  8 15  1  0  0  0  0
  8 16  1  0  0  0  0
  9 12  1  0  0  0  0
  9 13  1  0  0  0  0
  9 24  1  0  0  0  0
 10 12  1  0  0  0  0
 10 25  1  0  0  0  0
 11 13  1  0  0  0  0
 11 26  1  0  0  0  0
 11 27  1  0  0  0  0
 12 28  1  0  0  0  0
 12 29  1  0  0  0  0
 13 30  1  0  0  0  0
 13 31  1  0  0  0  0
 14 32  1  0  0  0  0
 14 33  1  0  0  0  0
 14 34  1  0  0  0  0
 15 35  1  0  0  0  0
 15 36  1  0  0  0  0
 15 37  1  0  0  0  0
 16 38  1  0  0  0  0
 16 39  1  0  0  0  0
 16 40  1  0  0  0  0
 18 19  1  0  0  0  0
 18 20  2  0  0  0  0
 19 21  2  0  0  0  0
 20 22  1  0  0  0  0
 20 42  1  0  0  0  0
 21 23  1  0  0  0  0
 21 43  1  0  0  0  0
 22 23  2  0  0  0  0
 22 44  1  0  0  0  0
 23 45  1  0  0  0  0
M  CHG  2   3  -1   6   1
M  END
> <PUBCHEM_COMPOUND_CID>
523072
> <PUBCHEM_COMPOUND_CANONICALIZED>
1
> <PUBCHEM_CACTVS_COMPLEXITY>
501
> <PUBCHEM_CACTVS_HBOND_ACCEPTOR>
4
> <PUBCHEM_CACTVS_HBOND_DONOR>
1
> <PUBCHEM_CACTVS_ROTATABLE_BOND>
3
> <PUBCHEM_CACTVS_SUBSKEYS>
AAADceB7OAAAAAAAAAAAAAAAAAAAAYMAAAAwYAAAAAAAAAABAAAAHgAUAAAADxyhkAIyyILQRACJACRCWwCCAAAhAgAoiAAAdIsIYCLAkZGcIAhklIBIyAeQwPAPgAAAAAAAACCAAAIAABAAQYAADAAAAA==
> <PUBCHEM_IUPAC_OPENEYE_NAME>
(1,7,7-trimethylnorbornan-2-yl) N-(2-nitrophenyl)carbamate
> <PUBCHEM_IUPAC_CAS_NAME>
N-(2-nitrophenyl)carbamic acid (1,7,7-trimethyl-2-bicyclo[2.2.1]heptanyl) ester
> <PUBCHEM_IUPAC_NAME_MARKUP>
(1,7,7-trimethyl-2-bicyclo[2.2.1]heptanyl) <I>N</I>-(2-nitrophenyl)carbamate
> <PUBCHEM_IUPAC_NAME>
(1,7,7-trimethyl-2-bicyclo[2.2.1]heptanyl) N-(2-nitrophenyl)carbamate
> <PUBCHEM_IUPAC_SYSTEMATIC_NAME>
(1,7,7-trimethyl-2-bicyclo[2.2.1]heptanyl) N-(2-nitrophenyl)carbamate
> <PUBCHEM_IUPAC_TRADITIONAL_NAME>
N-(2-nitrophenyl)carbamic acid 2-bornyl ester
> <PUBCHEM_IUPAC_INCHI>
InChI=1S/C17H22N2O4/c1-16(2)11-8-9-17(16,3)14(10-11)23-15(20)18-12-6-4-5-7-13(12)19(21)22/h4-7,11,14H,8-10H2,1-3H3,(H,18,20)
> <PUBCHEM_IUPAC_INCHIKEY>
VBVDYKQSBWRJID-UHFFFAOYSA-N
> <PUBCHEM_XLOGP3_AA>
4.9
> <PUBCHEM_EXACT_MASS>
318.15795719
> <PUBCHEM_MOLECULAR_FORMULA>
C17H22N2O4
> <PUBCHEM_MOLECULAR_WEIGHT>
318.4
> <PUBCHEM_OPENEYE_CAN_SMILES>
CC1(C2CCC1(C(C2)OC(=O)NC3=CC=CC=C3[N+](=O)[O-])C)C
> <PUBCHEM_OPENEYE_ISO_SMILES>
CC1(C2CCC1(C(C2)OC(=O)NC3=CC=CC=C3[N+](=O)[O-])C)C
> <PUBCHEM_CACTVS_TPSA>
84.2
> <PUBCHEM_MONOISOTOPIC_WEIGHT>
318.15795719
> <PUBCHEM_TOTAL_CHARGE>
0
> <PUBCHEM_HEAVY_ATOM_COUNT>
23
> <PUBCHEM_ATOM_DEF_STEREO_COUNT>
0
> <PUBCHEM_ATOM_UDEF_STEREO_COUNT>
3
> <PUBCHEM_BOND_DEF_STEREO_COUNT>
0
> <PUBCHEM_BOND_UDEF_STEREO_COUNT>
0
> <PUBCHEM_ISOTOPIC_ATOM_COUNT>
0
> <PUBCHEM_COMPONENT_COUNT>
1
> <PUBCHEM_CACTVS_TAUTO_COUNT>
-1
> <PUBCHEM_COORDINATE_TYPE>
1
5
255
> <PUBCHEM_BONDANNOTATIONS>
10  1  3
18  19  8
18  20  8
19  21  8
20  22  8
21  23  8
22  23  8
7  14  3
9  13  3
$$$$
