523007
  -OEChem-10302200292D
 33 33  0     1  0  0  0  0  0999 V2000
    3.7320   -1.0000    0.0000 N   0  0  3  0  0  0  0  0  0  0  0  0
    3.7320    1.0000    0.0000 N   0  0  3  0  0  0  0  0  0  0  0  0
    5.4641   -3.0000    0.0000 N   0  0  0  0  0  0  0  0  0  0  0  0
    5.4641    3.0000    0.0000 N   0  0  0  0  0  0  0  0  0  0  0  0
    2.8660   -0.5000    0.0000 C   0  0  3  0  0  0  0  0  0  0  0  0
    2.8660    0.5000    0.0000 C   0  0  0  0  0  0  0  0  0  0  0  0
    4.5981   -0.5000    0.0000 C   0  0  0  0  0  0  0  0  0  0  0  0
    4.5981    0.5000    0.0000 C   0  0  0  0  0  0  0  0  0  0  0  0
    3.7320   -2.0000    0.0000 C   0  0  3  0  0  0  0  0  0  0  0  0
    3.7320    2.0000    0.0000 C   0  0  3  0  0  0  0  0  0  0  0  0
    2.0000   -1.0000    0.0000 C   0  0  0  0  0  0  0  0  0  0  0  0
    2.8660   -2.5000    0.0000 C   0  0  0  0  0  0  0  0  0  0  0  0
    2.8660    2.5000    0.0000 C   0  0  0  0  0  0  0  0  0  0  0  0
    4.5981   -2.5000    0.0000 C   0  0  0  0  0  0  0  0  0  0  0  0
    4.5981    2.5000    0.0000 C   0  0  0  0  0  0  0  0  0  0  0  0
    2.8660   -1.1200    0.0000 H   0  0  0  0  0  0  0  0  0  0  0  0
    2.6540    1.0826    0.0000 H   0  0  0  0  0  0  0  0  0  0  0  0
    2.2554    0.3923    0.0000 H   0  0  0  0  0  0  0  0  0  0  0  0
    4.8101   -1.0826    0.0000 H   0  0  0  0  0  0  0  0  0  0  0  0
    5.2087   -0.3923    0.0000 H   0  0  0  0  0  0  0  0  0  0  0  0
    5.2087    0.3923    0.0000 H   0  0  0  0  0  0  0  0  0  0  0  0
    4.8101    1.0826    0.0000 H   0  0  0  0  0  0  0  0  0  0  0  0
    4.2690   -1.6900    0.0000 H   0  0  0  0  0  0  0  0  0  0  0  0
    4.2690    1.6900    0.0000 H   0  0  0  0  0  0  0  0  0  0  0  0
    1.6900   -0.4631    0.0000 H   0  0  0  0  0  0  0  0  0  0  0  0
    1.4631   -1.3100    0.0000 H   0  0  0  0  0  0  0  0  0  0  0  0
    2.3100   -1.5369    0.0000 H   0  0  0  0  0  0  0  0  0  0  0  0
    2.5560   -1.9631    0.0000 H   0  0  0  0  0  0  0  0  0  0  0  0
    2.3291   -2.8100    0.0000 H   0  0  0  0  0  0  0  0  0  0  0  0
    3.1760   -3.0369    0.0000 H   0  0  0  0  0  0  0  0  0  0  0  0
    3.1760    3.0369    0.0000 H   0  0  0  0  0  0  0  0  0  0  0  0
    2.3291    2.8100    0.0000 H   0  0  0  0  0  0  0  0  0  0  0  0
    2.5560    1.9631    0.0000 H   0  0  0  0  0  0  0  0  0  0  0  0
  1  5  1  0  0  0  0
  1  7  1  0  0  0  0
  1  9  1  0  0  0  0
  2  6  1  0  0  0  0
  2  8  1  0  0  0  0
  2 10  1  0  0  0  0
  3 14  3  0  0  0  0
  4 15  3  0  0  0  0
  5  6  1  0  0  0  0
  5 11  1  0  0  0  0
  5 16  1  0  0  0  0
  6 17  1  0  0  0  0
  6 18  1  0  0  0  0
  7  8  1  0  0  0  0
  7 19  1  0  0  0  0
  7 20  1  0  0  0  0
  8 21  1  0  0  0  0
  8 22  1  0  0  0  0
  9 12  1  0  0  0  0
  9 14  1  0  0  0  0
  9 23  1  0  0  0  0
 10 13  1  0  0  0  0
 10 15  1  0  0  0  0
 10 24  1  0  0  0  0
 11 25  1  0  0  0  0
 11 26  1  0  0  0  0
 11 27  1  0  0  0  0
 12 28  1  0  0  0  0
 12 29  1  0  0  0  0
 12 30  1  0  0  0  0
 13 31  1  0  0  0  0
 13 32  1  0  0  0  0
 13 33  1  0  0  0  0
M  END
> <PUBCHEM_COMPOUND_CID>
523007
> <PUBCHEM_COMPOUND_CANONICALIZED>
1
> <PUBCHEM_CACTVS_COMPLEXITY>
307
> <PUBCHEM_CACTVS_HBOND_ACCEPTOR>
4
> <PUBCHEM_CACTVS_HBOND_DONOR>
0
> <PUBCHEM_CACTVS_ROTATABLE_BOND>
2
> <PUBCHEM_CACTVS_SUBSKEYS>
AAADceBzgAAAAAAAAAAAAAAAAAAAAAAAAAAsAAAAAAAAAAAAAAAAHAAAAAAACCjBAAQCAAMAAAAQBAAAAAAAAAAAAAAAAAAIAAAAwAAAAAAUAAAAAACAAAAAAAAAAAAAAAAAAAAAAAAAAAAAAAAAAAAAAA==
> <PUBCHEM_IUPAC_OPENEYE_NAME>
2-[4-(1-cyanoethyl)-3-methyl-piperazin-1-yl]propanenitrile
> <PUBCHEM_IUPAC_CAS_NAME>
2-[4-(1-cyanoethyl)-3-methyl-1-piperazinyl]propanenitrile
> <PUBCHEM_IUPAC_NAME_MARKUP>
2-[4-(1-cyanoethyl)-3-methylpiperazin-1-yl]propanenitrile
> <PUBCHEM_IUPAC_NAME>
2-[4-(1-cyanoethyl)-3-methylpiperazin-1-yl]propanenitrile
> <PUBCHEM_IUPAC_SYSTEMATIC_NAME>
2-[4-(1-cyanoethyl)-3-methyl-piperazin-1-yl]propanenitrile
> <PUBCHEM_IUPAC_TRADITIONAL_NAME>
2-[4-(1-cyanoethyl)-3-methyl-piperazino]propionitrile
> <PUBCHEM_IUPAC_INCHI>
InChI=1S/C11H18N4/c1-9(6-12)14-4-5-15(10(2)7-13)11(3)8-14/h9-11H,4-5,8H2,1-3H3
> <PUBCHEM_IUPAC_INCHIKEY>
ACWGKNMPTHRMGE-UHFFFAOYSA-N
> <PUBCHEM_XLOGP3_AA>
0.9
> <PUBCHEM_EXACT_MASS>
206.153146591
> <PUBCHEM_MOLECULAR_FORMULA>
C11H18N4
> <PUBCHEM_MOLECULAR_WEIGHT>
206.29
> <PUBCHEM_OPENEYE_CAN_SMILES>
CC1CN(CCN1C(C)C#N)C(C)C#N
> <PUBCHEM_OPENEYE_ISO_SMILES>
CC1CN(CCN1C(C)C#N)C(C)C#N
> <PUBCHEM_CACTVS_TPSA>
54.1
> <PUBCHEM_MONOISOTOPIC_WEIGHT>
206.153146591
> <PUBCHEM_TOTAL_CHARGE>
0
> <PUBCHEM_HEAVY_ATOM_COUNT>
15
> <PUBCHEM_ATOM_DEF_STEREO_COUNT>
0
> <PUBCHEM_ATOM_UDEF_STEREO_COUNT>
3
> <PUBCHEM_BOND_DEF_STEREO_COUNT>
0
> <PUBCHEM_BOND_UDEF_STEREO_COUNT>
0
> <PUBCHEM_ISOTOPIC_ATOM_COUNT>
0
> <PUBCHEM_COMPONENT_COUNT>
1
> <PUBCHEM_CACTVS_TAUTO_COUNT>
-1
> <PUBCHEM_COORDINATE_TYPE>
1
5
255
> <PUBCHEM_BONDANNOTATIONS>
10  13  3
5  11  3
9  12  3
$$$$
