523043
  -OEChem-10302200292D
 34 36  0     1  0  0  0  0  0999 V2000
    4.6660   -2.1074    0.0000 O   0  0  0  0  0  0  0  0  0  0  0  0
    3.1660    0.7587    0.0000 O   0  0  0  0  0  0  0  0  0  0  0  0
    3.9924    1.7435    0.0000 N   0  0  0  0  0  0  0  0  0  0  0  0
    4.6660   -0.1074    0.0000 C   0  0  3  0  0  0  0  0  0  0  0  0
    5.5321   -0.6073    0.0000 C   0  0  0  0  0  0  0  0  0  0  0  0
    3.8000   -0.6073    0.0000 C   0  0  0  0  0  0  0  0  0  0  0  0
    5.6057    0.2347    0.0000 C   0  0  0  0  0  0  0  0  0  0  0  0
    5.5321   -1.6074    0.0000 C   0  0  0  0  0  0  0  0  0  0  0  0
    3.8000   -1.6074    0.0000 C   0  0  0  0  0  0  0  0  0  0  0  0
    4.1660    0.7587    0.0000 C   0  0  0  0  0  0  0  0  0  0  0  0
    2.9061   -0.0727    0.0000 C   0  0  0  0  0  0  0  0  0  0  0  0
    6.3718   -0.4081    0.0000 C   0  0  0  0  0  0  0  0  0  0  0  0
    5.7794    1.2195    0.0000 C   0  0  0  0  0  0  0  0  0  0  0  0
    2.9061   -2.1420    0.0000 C   0  0  0  0  0  0  0  0  0  0  0  0
    2.0000   -0.5865    0.0000 C   0  0  0  0  0  0  0  0  0  0  0  0
    2.0000   -1.6282    0.0000 C   0  0  0  0  0  0  0  0  0  0  0  0
    7.3115   -0.0661    0.0000 C   0  0  0  0  0  0  0  0  0  0  0  0
    6.7191    1.5615    0.0000 C   0  0  0  0  0  0  0  0  0  0  0  0
    7.4851    0.9187    0.0000 C   0  0  0  0  0  0  0  0  0  0  0  0
    6.1426   -0.7150    0.0000 H   0  0  0  0  0  0  0  0  0  0  0  0
    5.7441   -0.0247    0.0000 H   0  0  0  0  0  0  0  0  0  0  0  0
    5.7441   -2.1900    0.0000 H   0  0  0  0  0  0  0  0  0  0  0  0
    6.1426   -1.4997    0.0000 H   0  0  0  0  0  0  0  0  0  0  0  0
    2.9132    0.5473    0.0000 H   0  0  0  0  0  0  0  0  0  0  0  0
    6.2641   -1.0187    0.0000 H   0  0  0  0  0  0  0  0  0  0  0  0
    5.3044    1.6180    0.0000 H   0  0  0  0  0  0  0  0  0  0  0  0
    2.9132   -2.7620    0.0000 H   0  0  0  0  0  0  0  0  0  0  0  0
    1.4643   -0.2745    0.0000 H   0  0  0  0  0  0  0  0  0  0  0  0
    1.4643   -1.9402    0.0000 H   0  0  0  0  0  0  0  0  0  0  0  0
    3.4098    1.9555    0.0000 H   0  0  0  0  0  0  0  0  0  0  0  0
    4.4673    2.1420    0.0000 H   0  0  0  0  0  0  0  0  0  0  0  0
    7.7864   -0.4646    0.0000 H   0  0  0  0  0  0  0  0  0  0  0  0
    6.8267    2.1721    0.0000 H   0  0  0  0  0  0  0  0  0  0  0  0
    8.0677    1.1308    0.0000 H   0  0  0  0  0  0  0  0  0  0  0  0
  1  8  1  0  0  0  0
  1  9  1  0  0  0  0
  2 10  2  0  0  0  0
  3 10  1  0  0  0  0
  3 30  1  0  0  0  0
  3 31  1  0  0  0  0
  4  5  1  0  0  0  0
  4  6  1  0  0  0  0
  4  7  1  0  0  0  0
  4 10  1  0  0  0  0
  5  8  1  0  0  0  0
  5 20  1  0  0  0  0
  5 21  1  0  0  0  0
  6  9  1  0  0  0  0
  6 11  2  0  0  0  0
  7 12  2  0  0  0  0
  7 13  1  0  0  0  0
  8 22  1  0  0  0  0
  8 23  1  0  0  0  0
  9 14  2  0  0  0  0
 11 15  1  0  0  0  0
 11 24  1  0  0  0  0
 12 17  1  0  0  0  0
 12 25  1  0  0  0  0
 13 18  2  0  0  0  0
 13 26  1  0  0  0  0
 14 16  1  0  0  0  0
 14 27  1  0  0  0  0
 15 16  2  0  0  0  0
 15 28  1  0  0  0  0
 16 29  1  0  0  0  0
 17 19  2  0  0  0  0
 17 32  1  0  0  0  0
 18 19  1  0  0  0  0
 18 33  1  0  0  0  0
 19 34  1  0  0  0  0
M  END
> <PUBCHEM_COMPOUND_CID>
523043
> <PUBCHEM_COMPOUND_CANONICALIZED>
1
> <PUBCHEM_CACTVS_COMPLEXITY>
338
> <PUBCHEM_CACTVS_HBOND_ACCEPTOR>
2
> <PUBCHEM_CACTVS_HBOND_DONOR>
1
> <PUBCHEM_CACTVS_ROTATABLE_BOND>
2
> <PUBCHEM_CACTVS_SUBSKEYS>
AAADccB6MAAAAAAAAAAAAAAAAAAAAAAAAAA0YIAAAAAAAACRQAAAHgAQAAAADgShmAIwBoBABACIAiFSEAACCAAgIAAIiAEGCIgMJjKEtRuCOCCkwBEIqAe6yOCPgAAAAAAIAAAAAAAAABAAAAAAAAAAAA==
> <PUBCHEM_IUPAC_OPENEYE_NAME>
4-phenylchromane-4-carboxamide
> <PUBCHEM_IUPAC_CAS_NAME>
4-phenyl-3,4-dihydro-2H-1-benzopyran-4-carboxamide
> <PUBCHEM_IUPAC_NAME_MARKUP>
4-phenyl-2,3-dihydrochromene-4-carboxamide
> <PUBCHEM_IUPAC_NAME>
4-phenyl-2,3-dihydrochromene-4-carboxamide
> <PUBCHEM_IUPAC_SYSTEMATIC_NAME>
4-phenyl-2,3-dihydrochromene-4-carboxamide
> <PUBCHEM_IUPAC_TRADITIONAL_NAME>
4-phenylchroman-4-carboxamide
> <PUBCHEM_IUPAC_INCHI>
InChI=1S/C16H15NO2/c17-15(18)16(12-6-2-1-3-7-12)10-11-19-14-9-5-4-8-13(14)16/h1-9H,10-11H2,(H2,17,18)
> <PUBCHEM_IUPAC_INCHIKEY>
GJFSBFVZMHGUAV-UHFFFAOYSA-N
> <PUBCHEM_XLOGP3_AA>
2.4
> <PUBCHEM_EXACT_MASS>
253.110278721
> <PUBCHEM_MOLECULAR_FORMULA>
C16H15NO2
> <PUBCHEM_MOLECULAR_WEIGHT>
253.29
> <PUBCHEM_OPENEYE_CAN_SMILES>
C1COC2=CC=CC=C2C1(C3=CC=CC=C3)C(=O)N
> <PUBCHEM_OPENEYE_ISO_SMILES>
C1COC2=CC=CC=C2C1(C3=CC=CC=C3)C(=O)N
> <PUBCHEM_CACTVS_TPSA>
52.3
> <PUBCHEM_MONOISOTOPIC_WEIGHT>
253.110278721
> <PUBCHEM_TOTAL_CHARGE>
0
> <PUBCHEM_HEAVY_ATOM_COUNT>
19
> <PUBCHEM_ATOM_DEF_STEREO_COUNT>
0
> <PUBCHEM_ATOM_UDEF_STEREO_COUNT>
1
> <PUBCHEM_BOND_DEF_STEREO_COUNT>
0
> <PUBCHEM_BOND_UDEF_STEREO_COUNT>
0
> <PUBCHEM_ISOTOPIC_ATOM_COUNT>
0
> <PUBCHEM_COMPONENT_COUNT>
1
> <PUBCHEM_CACTVS_TAUTO_COUNT>
-1
> <PUBCHEM_COORDINATE_TYPE>
1
5
255
> <PUBCHEM_BONDANNOTATIONS>
11  15  8
12  17  8
13  18  8
14  16  8
15  16  8
17  19  8
18  19  8
4  10  3
6  11  8
6  9  8
7  12  8
7  13  8
9  14  8
$$$$
