523084
  -OEChem-10302200292D
 53 52  0     1  0  0  0  0  0999 V2000
    6.3301    0.4630    0.0000 O   0  0  0  0  0  0  0  0  0  0  0  0
    8.7462    1.3424    0.0000 O   0  0  0  0  0  0  0  0  0  0  0  0
    7.5382   -2.9767    0.0000 O   0  0  0  0  0  0  0  0  0  0  0  0
    9.3478   -2.0690    0.0000 O   0  0  0  0  0  0  0  0  0  0  0  0
    5.4641   -1.0370    0.0000 N   0  0  0  0  0  0  0  0  0  0  0  0
   10.3738    0.7500    0.0000 N   0  0  0  0  0  0  0  0  0  0  0  0
    8.0622   -0.5370    0.0000 C   0  0  0  0  0  0  0  0  0  0  0  0
    7.1962   -1.0370    0.0000 C   0  0  3  0  0  0  0  0  0  0  0  0
    9.0470   -0.3633    0.0000 C   0  0  3  0  0  0  0  0  0  0  0  0
    6.3301   -0.5370    0.0000 C   0  0  0  0  0  0  0  0  0  0  0  0
    9.3890    0.5764    0.0000 C   0  0  0  0  0  0  0  0  0  0  0  0
    7.1962   -2.0370    0.0000 C   0  0  0  0  0  0  0  0  0  0  0  0
    9.6898   -1.1294    0.0000 C   0  0  0  0  0  0  0  0  0  0  0  0
    4.5981   -0.5370    0.0000 C   0  0  0  0  0  0  0  0  0  0  0  0
   10.7158    1.6897    0.0000 C   0  0  0  0  0  0  0  0  0  0  0  0
    3.7320   -1.0370    0.0000 C   0  0  0  0  0  0  0  0  0  0  0  0
   11.7006    1.8633    0.0000 C   0  0  0  0  0  0  0  0  0  0  0  0
    6.3301   -2.5370    0.0000 C   0  0  0  0  0  0  0  0  0  0  0  0
   10.6746   -0.9557    0.0000 C   0  0  0  0  0  0  0  0  0  0  0  0
    2.8660   -0.5370    0.0000 C   0  0  0  0  0  0  0  0  0  0  0  0
   12.0427    2.8030    0.0000 C   0  0  0  0  0  0  0  0  0  0  0  0
    2.0000   -1.0370    0.0000 C   0  0  0  0  0  0  0  0  0  0  0  0
   13.0275    2.9767    0.0000 C   0  0  0  0  0  0  0  0  0  0  0  0
    8.2052    0.0663    0.0000 H   0  0  0  0  0  0  0  0  0  0  0  0
    8.2742   -1.1196    0.0000 H   0  0  0  0  0  0  0  0  0  0  0  0
    6.6592   -1.3470    0.0000 H   0  0  0  0  0  0  0  0  0  0  0  0
    8.8349   -0.9460    0.0000 H   0  0  0  0  0  0  0  0  0  0  0  0
    4.9966   -0.0620    0.0000 H   0  0  0  0  0  0  0  0  0  0  0  0
    4.1996   -0.0620    0.0000 H   0  0  0  0  0  0  0  0  0  0  0  0
   10.7158    2.3097    0.0000 H   0  0  0  0  0  0  0  0  0  0  0  0
   10.1053    1.7974    0.0000 H   0  0  0  0  0  0  0  0  0  0  0  0
    5.4641   -1.6570    0.0000 H   0  0  0  0  0  0  0  0  0  0  0  0
   10.7723    0.2751    0.0000 H   0  0  0  0  0  0  0  0  0  0  0  0
    3.3335   -1.5119    0.0000 H   0  0  0  0  0  0  0  0  0  0  0  0
    4.1306   -1.5119    0.0000 H   0  0  0  0  0  0  0  0  0  0  0  0
   11.7006    1.2433    0.0000 H   0  0  0  0  0  0  0  0  0  0  0  0
   12.3112    1.7557    0.0000 H   0  0  0  0  0  0  0  0  0  0  0  0
    6.0201   -2.0000    0.0000 H   0  0  0  0  0  0  0  0  0  0  0  0
    5.7932   -2.8470    0.0000 H   0  0  0  0  0  0  0  0  0  0  0  0
    6.6401   -3.0739    0.0000 H   0  0  0  0  0  0  0  0  0  0  0  0
   10.7822   -1.5663    0.0000 H   0  0  0  0  0  0  0  0  0  0  0  0
   11.2852   -0.8481    0.0000 H   0  0  0  0  0  0  0  0  0  0  0  0
   10.5669   -0.3452    0.0000 H   0  0  0  0  0  0  0  0  0  0  0  0
    3.2646   -0.0620    0.0000 H   0  0  0  0  0  0  0  0  0  0  0  0
    2.4675   -0.0620    0.0000 H   0  0  0  0  0  0  0  0  0  0  0  0
   12.0427    3.4230    0.0000 H   0  0  0  0  0  0  0  0  0  0  0  0
   11.4321    2.9107    0.0000 H   0  0  0  0  0  0  0  0  0  0  0  0
    1.6900   -0.5001    0.0000 H   0  0  0  0  0  0  0  0  0  0  0  0
    1.4631   -1.3470    0.0000 H   0  0  0  0  0  0  0  0  0  0  0  0
    2.3100   -1.5739    0.0000 H   0  0  0  0  0  0  0  0  0  0  0  0
   13.1351    2.3661    0.0000 H   0  0  0  0  0  0  0  0  0  0  0  0
   13.6381    3.0843    0.0000 H   0  0  0  0  0  0  0  0  0  0  0  0
   12.9198    3.5873    0.0000 H   0  0  0  0  0  0  0  0  0  0  0  0
  1 10  2  0  0  0  0
  2 11  2  0  0  0  0
  3 12  2  0  0  0  0
  4 13  2  0  0  0  0
  5 10  1  0  0  0  0
  5 14  1  0  0  0  0
  5 32  1  0  0  0  0
  6 11  1  0  0  0  0
  6 15  1  0  0  0  0
  6 33  1  0  0  0  0
  7  8  1  0  0  0  0
  7  9  1  0  0  0  0
  7 24  1  0  0  0  0
  7 25  1  0  0  0  0
  8 10  1  0  0  0  0
  8 12  1  0  0  0  0
  8 26  1  0  0  0  0
  9 11  1  0  0  0  0
  9 13  1  0  0  0  0
  9 27  1  0  0  0  0
 12 18  1  0  0  0  0
 13 19  1  0  0  0  0
 14 16  1  0  0  0  0
 14 28  1  0  0  0  0
 14 29  1  0  0  0  0
 15 17  1  0  0  0  0
 15 30  1  0  0  0  0
 15 31  1  0  0  0  0
 16 20  1  0  0  0  0
 16 34  1  0  0  0  0
 16 35  1  0  0  0  0
 17 21  1  0  0  0  0
 17 36  1  0  0  0  0
 17 37  1  0  0  0  0
 18 38  1  0  0  0  0
 18 39  1  0  0  0  0
 18 40  1  0  0  0  0
 19 41  1  0  0  0  0
 19 42  1  0  0  0  0
 19 43  1  0  0  0  0
 20 22  1  0  0  0  0
 20 44  1  0  0  0  0
 20 45  1  0  0  0  0
 21 23  1  0  0  0  0
 21 46  1  0  0  0  0
 21 47  1  0  0  0  0
 22 48  1  0  0  0  0
 22 49  1  0  0  0  0
 22 50  1  0  0  0  0
 23 51  1  0  0  0  0
 23 52  1  0  0  0  0
 23 53  1  0  0  0  0
M  END
> <PUBCHEM_COMPOUND_CID>
523084
> <PUBCHEM_COMPOUND_CANONICALIZED>
1
> <PUBCHEM_CACTVS_COMPLEXITY>
383
> <PUBCHEM_CACTVS_HBOND_ACCEPTOR>
4
> <PUBCHEM_CACTVS_HBOND_DONOR>
2
> <PUBCHEM_CACTVS_ROTATABLE_BOND>
12
> <PUBCHEM_CACTVS_SUBSKEYS>
AAADceB7OAAAAAAAAAAAAAAAAAAAAAAAAAAAAAAAAAAAAAAAAAAAHgAQAAAADQTBgAQCAALAAAAIAIEQEAAAAAAAAAAAAIEIAAAAABoIgAAEAAAAFgCAAAEYiwAuAAAAAAAAAAAAAAAAAAAAAAAAAAAAAA==
> <PUBCHEM_IUPAC_OPENEYE_NAME>
2,4-diacetyl-N,N'-dibutyl-pentanediamide
> <PUBCHEM_IUPAC_CAS_NAME>
2,4-diacetyl-N,N'-dibutylpentanediamide
> <PUBCHEM_IUPAC_NAME_MARKUP>
2,4-diacetyl-<I>N</I>,<I>N</I>&apos;-dibutylpentanediamide
> <PUBCHEM_IUPAC_NAME>
2,4-diacetyl-N,N'-dibutylpentanediamide
> <PUBCHEM_IUPAC_SYSTEMATIC_NAME>
N,N'-dibutyl-2,4-diethanoyl-pentanediamide
> <PUBCHEM_IUPAC_TRADITIONAL_NAME>
2,4-diacetyl-N,N'-dibutyl-glutaramide
> <PUBCHEM_IUPAC_INCHI>
InChI=1S/C17H30N2O4/c1-5-7-9-18-16(22)14(12(3)20)11-15(13(4)21)17(23)19-10-8-6-2/h14-15H,5-11H2,1-4H3,(H,18,22)(H,19,23)
> <PUBCHEM_IUPAC_INCHIKEY>
VIBQIXMERGDODB-UHFFFAOYSA-N
> <PUBCHEM_XLOGP3_AA>
1.5
> <PUBCHEM_EXACT_MASS>
326.22055744
> <PUBCHEM_MOLECULAR_FORMULA>
C17H30N2O4
> <PUBCHEM_MOLECULAR_WEIGHT>
326.4
> <PUBCHEM_OPENEYE_CAN_SMILES>
CCCCNC(=O)C(CC(C(=O)C)C(=O)NCCCC)C(=O)C
> <PUBCHEM_OPENEYE_ISO_SMILES>
CCCCNC(=O)C(CC(C(=O)C)C(=O)NCCCC)C(=O)C
> <PUBCHEM_CACTVS_TPSA>
92.3
> <PUBCHEM_MONOISOTOPIC_WEIGHT>
326.22055744
> <PUBCHEM_TOTAL_CHARGE>
0
> <PUBCHEM_HEAVY_ATOM_COUNT>
23
> <PUBCHEM_ATOM_DEF_STEREO_COUNT>
0
> <PUBCHEM_ATOM_UDEF_STEREO_COUNT>
2
> <PUBCHEM_BOND_DEF_STEREO_COUNT>
0
> <PUBCHEM_BOND_UDEF_STEREO_COUNT>
0
> <PUBCHEM_ISOTOPIC_ATOM_COUNT>
0
> <PUBCHEM_COMPONENT_COUNT>
1
> <PUBCHEM_CACTVS_TAUTO_COUNT>
-1
> <PUBCHEM_COORDINATE_TYPE>
1
5
255
> <PUBCHEM_BONDANNOTATIONS>
8  7  3
9  7  3
$$$$
