523049
  -OEChem-10302200292D
 45 45  0     1  0  0  0  0  0999 V2000
    5.4641    3.0000    0.0000 O   0  0  0  0  0  0  0  0  0  0  0  0
    6.3301    1.5000    0.0000 O   0  0  0  0  0  0  0  0  0  0  0  0
    2.8660    0.5000    0.0000 O   0  0  0  0  0  0  0  0  0  0  0  0
    4.5981    0.5000    0.0000 N   0  0  0  0  0  0  0  0  0  0  0  0
    3.7320   -1.0000    0.0000 N   0  0  0  0  0  0  0  0  0  0  0  0
    3.7320    3.0000    0.0000 C   0  0  0  0  0  0  0  0  0  0  0  0
    3.7320    2.0000    0.0000 C   0  0  0  0  0  0  0  0  0  0  0  0
    4.5981    1.5000    0.0000 C   0  0  3  0  0  0  0  0  0  0  0  0
    2.8660    3.5000    0.0000 C   0  0  0  0  0  0  0  0  0  0  0  0
    4.5981    3.5000    0.0000 C   0  0  0  0  0  0  0  0  0  0  0  0
    5.4641    2.0000    0.0000 C   0  0  0  0  0  0  0  0  0  0  0  0
    3.7320    0.0000    0.0000 C   0  0  0  0  0  0  0  0  0  0  0  0
    2.8660   -1.5000    0.0000 C   0  0  0  0  0  0  0  0  0  0  0  0
    6.3301    3.5000    0.0000 C   0  0  0  0  0  0  0  0  0  0  0  0
    2.8660   -2.5000    0.0000 C   0  0  0  0  0  0  0  0  0  0  0  0
    3.7320   -3.0000    0.0000 C   0  0  0  0  0  0  0  0  0  0  0  0
    2.0000   -3.0000    0.0000 C   0  0  0  0  0  0  0  0  0  0  0  0
    6.3301    4.5000    0.0000 C   0  0  0  0  0  0  0  0  0  0  0  0
    3.7320   -4.0000    0.0000 C   0  0  0  0  0  0  0  0  0  0  0  0
    2.0000   -4.0000    0.0000 C   0  0  0  0  0  0  0  0  0  0  0  0
    2.8660   -4.5000    0.0000 C   0  0  0  0  0  0  0  0  0  0  0  0
    3.1215    2.1077    0.0000 H   0  0  0  0  0  0  0  0  0  0  0  0
    3.5200    1.4174    0.0000 H   0  0  0  0  0  0  0  0  0  0  0  0
    3.7320    3.6200    0.0000 H   0  0  0  0  0  0  0  0  0  0  0  0
    5.1350    1.1900    0.0000 H   0  0  0  0  0  0  0  0  0  0  0  0
    3.1760    4.0369    0.0000 H   0  0  0  0  0  0  0  0  0  0  0  0
    2.3291    3.8100    0.0000 H   0  0  0  0  0  0  0  0  0  0  0  0
    2.5560    2.9631    0.0000 H   0  0  0  0  0  0  0  0  0  0  0  0
    4.9081    2.9631    0.0000 H   0  0  0  0  0  0  0  0  0  0  0  0
    5.1350    3.8100    0.0000 H   0  0  0  0  0  0  0  0  0  0  0  0
    4.2881    4.0369    0.0000 H   0  0  0  0  0  0  0  0  0  0  0  0
    5.1350    0.1900    0.0000 H   0  0  0  0  0  0  0  0  0  0  0  0
    4.2690   -1.3100    0.0000 H   0  0  0  0  0  0  0  0  0  0  0  0
    2.6540   -0.9174    0.0000 H   0  0  0  0  0  0  0  0  0  0  0  0
    2.2554   -1.6077    0.0000 H   0  0  0  0  0  0  0  0  0  0  0  0
    6.5422    2.9174    0.0000 H   0  0  0  0  0  0  0  0  0  0  0  0
    6.9407    3.6077    0.0000 H   0  0  0  0  0  0  0  0  0  0  0  0
    4.2690   -2.6900    0.0000 H   0  0  0  0  0  0  0  0  0  0  0  0
    1.4631   -2.6900    0.0000 H   0  0  0  0  0  0  0  0  0  0  0  0
    6.9501    4.5000    0.0000 H   0  0  0  0  0  0  0  0  0  0  0  0
    6.3301    5.1200    0.0000 H   0  0  0  0  0  0  0  0  0  0  0  0
    5.7101    4.5000    0.0000 H   0  0  0  0  0  0  0  0  0  0  0  0
    4.2690   -4.3100    0.0000 H   0  0  0  0  0  0  0  0  0  0  0  0
    1.4631   -4.3100    0.0000 H   0  0  0  0  0  0  0  0  0  0  0  0
    2.8660   -5.1200    0.0000 H   0  0  0  0  0  0  0  0  0  0  0  0
  1 11  1  0  0  0  0
  1 14  1  0  0  0  0
  2 11  2  0  0  0  0
  3 12  2  0  0  0  0
  4  8  1  0  0  0  0
  4 12  1  0  0  0  0
  4 32  1  0  0  0  0
  5 12  1  0  0  0  0
  5 13  1  0  0  0  0
  5 33  1  0  0  0  0
  6  7  1  0  0  0  0
  6  9  1  0  0  0  0
  6 10  1  0  0  0  0
  6 24  1  0  0  0  0
  7  8  1  0  0  0  0
  7 22  1  0  0  0  0
  7 23  1  0  0  0  0
  8 11  1  0  0  0  0
  8 25  1  0  0  0  0
  9 26  1  0  0  0  0
  9 27  1  0  0  0  0
  9 28  1  0  0  0  0
 10 29  1  0  0  0  0
 10 30  1  0  0  0  0
 10 31  1  0  0  0  0
 13 15  1  0  0  0  0
 13 34  1  0  0  0  0
 13 35  1  0  0  0  0
 14 18  1  0  0  0  0
 14 36  1  0  0  0  0
 14 37  1  0  0  0  0
 15 16  2  0  0  0  0
 15 17  1  0  0  0  0
 16 19  1  0  0  0  0
 16 38  1  0  0  0  0
 17 20  2  0  0  0  0
 17 39  1  0  0  0  0
 18 40  1  0  0  0  0
 18 41  1  0  0  0  0
 18 42  1  0  0  0  0
 19 21  2  0  0  0  0
 19 43  1  0  0  0  0
 20 21  1  0  0  0  0
 20 44  1  0  0  0  0
 21 45  1  0  0  0  0
M  END
> <PUBCHEM_COMPOUND_CID>
523049
> <PUBCHEM_COMPOUND_CANONICALIZED>
1
> <PUBCHEM_CACTVS_COMPLEXITY>
326
> <PUBCHEM_CACTVS_HBOND_ACCEPTOR>
3
> <PUBCHEM_CACTVS_HBOND_DONOR>
2
> <PUBCHEM_CACTVS_ROTATABLE_BOND>
8
> <PUBCHEM_CACTVS_SUBSKEYS>
AAADceB7MAAAAAAAAAAAAAAAAAAAAAAAAAAwAAAAAAAAAAABAAAAHgAQAAAADSjhmAYzCILABACIAiDSGACCAAAgAAAIiIGIBIiKIDKAkTGHIAhslgIYiAeYgAAOAAAAAAAAAAAAAAAAAAAAAAAAAAAAAA==
> <PUBCHEM_IUPAC_OPENEYE_NAME>
ethyl 2-(benzylcarbamoylamino)-4-methyl-pentanoate
> <PUBCHEM_IUPAC_CAS_NAME>
4-methyl-2-[[oxo-[(phenylmethyl)amino]methyl]amino]pentanoic acid ethyl ester
> <PUBCHEM_IUPAC_NAME_MARKUP>
ethyl 2-(benzylcarbamoylamino)-4-methylpentanoate
> <PUBCHEM_IUPAC_NAME>
ethyl 2-(benzylcarbamoylamino)-4-methylpentanoate
> <PUBCHEM_IUPAC_SYSTEMATIC_NAME>
ethyl 4-methyl-2-[(phenylmethyl)carbamoylamino]pentanoate
> <PUBCHEM_IUPAC_TRADITIONAL_NAME>
2-(benzylcarbamoylamino)-4-methyl-valeric acid ethyl ester
> <PUBCHEM_IUPAC_INCHI>
InChI=1S/C16H24N2O3/c1-4-21-15(19)14(10-12(2)3)18-16(20)17-11-13-8-6-5-7-9-13/h5-9,12,14H,4,10-11H2,1-3H3,(H2,17,18,20)
> <PUBCHEM_IUPAC_INCHIKEY>
WMHZYIFTZXFFRZ-UHFFFAOYSA-N
> <PUBCHEM_XLOGP3_AA>
2.9
> <PUBCHEM_EXACT_MASS>
292.17869263
> <PUBCHEM_MOLECULAR_FORMULA>
C16H24N2O3
> <PUBCHEM_MOLECULAR_WEIGHT>
292.37
> <PUBCHEM_OPENEYE_CAN_SMILES>
CCOC(=O)C(CC(C)C)NC(=O)NCC1=CC=CC=C1
> <PUBCHEM_OPENEYE_ISO_SMILES>
CCOC(=O)C(CC(C)C)NC(=O)NCC1=CC=CC=C1
> <PUBCHEM_CACTVS_TPSA>
67.4
> <PUBCHEM_MONOISOTOPIC_WEIGHT>
292.17869263
> <PUBCHEM_TOTAL_CHARGE>
0
> <PUBCHEM_HEAVY_ATOM_COUNT>
21
> <PUBCHEM_ATOM_DEF_STEREO_COUNT>
0
> <PUBCHEM_ATOM_UDEF_STEREO_COUNT>
1
> <PUBCHEM_BOND_DEF_STEREO_COUNT>
0
> <PUBCHEM_BOND_UDEF_STEREO_COUNT>
0
> <PUBCHEM_ISOTOPIC_ATOM_COUNT>
0
> <PUBCHEM_COMPONENT_COUNT>
1
> <PUBCHEM_CACTVS_TAUTO_COUNT>
-1
> <PUBCHEM_COORDINATE_TYPE>
1
5
255
> <PUBCHEM_BONDANNOTATIONS>
15  16  8
15  17  8
16  19  8
17  20  8
19  21  8
20  21  8
8  7  3
$$$$
