523055
  -OEChem-10302200292D
 23 23  0     1  0  0  0  0  0999 V2000
    3.7320    1.5000    0.0000 O   0  0  0  0  0  0  0  0  0  0  0  0
    4.5981   -1.0000    0.0000 C   0  0  3  0  0  0  0  0  0  0  0  0
    3.7320   -1.5000    0.0000 C   0  0  0  0  0  0  0  0  0  0  0  0
    2.8660    0.0000    0.0000 C   0  0  3  0  0  0  0  0  0  0  0  0
    2.8660   -1.0000    0.0000 C   0  0  0  0  0  0  0  0  0  0  0  0
    4.5981    0.0000    0.0000 C   0  0  0  0  0  0  0  0  0  0  0  0
    3.7320    0.5000    0.0000 C   0  0  0  0  0  0  0  0  0  0  0  0
    5.4641   -1.5000    0.0000 C   0  0  0  0  0  0  0  0  0  0  0  0
    2.0000    0.5000    0.0000 C   0  0  0  0  0  0  0  0  0  0  0  0
    4.5981   -1.6200    0.0000 H   0  0  0  0  0  0  0  0  0  0  0  0
    3.3335   -1.9750    0.0000 H   0  0  0  0  0  0  0  0  0  0  0  0
    4.1306   -1.9750    0.0000 H   0  0  0  0  0  0  0  0  0  0  0  0
    2.8660    0.6200    0.0000 H   0  0  0  0  0  0  0  0  0  0  0  0
    2.2554   -0.8923    0.0000 H   0  0  0  0  0  0  0  0  0  0  0  0
    2.6540   -1.5826    0.0000 H   0  0  0  0  0  0  0  0  0  0  0  0
    5.2087   -0.1077    0.0000 H   0  0  0  0  0  0  0  0  0  0  0  0
    4.8101    0.5826    0.0000 H   0  0  0  0  0  0  0  0  0  0  0  0
    5.1541   -2.0369    0.0000 H   0  0  0  0  0  0  0  0  0  0  0  0
    6.0010   -1.8100    0.0000 H   0  0  0  0  0  0  0  0  0  0  0  0
    5.7741   -0.9631    0.0000 H   0  0  0  0  0  0  0  0  0  0  0  0
    2.3100    1.0369    0.0000 H   0  0  0  0  0  0  0  0  0  0  0  0
    1.4631    0.8100    0.0000 H   0  0  0  0  0  0  0  0  0  0  0  0
    1.6900   -0.0369    0.0000 H   0  0  0  0  0  0  0  0  0  0  0  0
  1  7  2  0  0  0  0
  2  3  1  0  0  0  0
  2  6  1  0  0  0  0
  2  8  1  0  0  0  0
  2 10  1  0  0  0  0
  3  5  1  0  0  0  0
  3 11  1  0  0  0  0
  3 12  1  0  0  0  0
  4  5  1  0  0  0  0
  4  7  1  0  0  0  0
  4  9  1  0  0  0  0
  4 13  1  0  0  0  0
  5 14  1  0  0  0  0
  5 15  1  0  0  0  0
  6  7  1  0  0  0  0
  6 16  1  0  0  0  0
  6 17  1  0  0  0  0
  8 18  1  0  0  0  0
  8 19  1  0  0  0  0
  8 20  1  0  0  0  0
  9 21  1  0  0  0  0
  9 22  1  0  0  0  0
  9 23  1  0  0  0  0
M  END
> <PUBCHEM_COMPOUND_CID>
523055
> <PUBCHEM_COMPOUND_CANONICALIZED>
1
> <PUBCHEM_CACTVS_COMPLEXITY>
118
> <PUBCHEM_CACTVS_HBOND_ACCEPTOR>
1
> <PUBCHEM_CACTVS_HBOND_DONOR>
0
> <PUBCHEM_CACTVS_ROTATABLE_BOND>
0
> <PUBCHEM_CACTVS_SUBSKEYS>
AAADccBwIAAAAAAAAAAAAAAAAAAAAAAAAAAwAAAAAAAAAAAAAAAAGgAAAAAADQSAgAACAAAAAAAIAIAQAAAAAAAAAAAAAAEAAAAAABIAAAAAAAAAAAAAAAEIiACOAAAAAAAAAACAAAAAAAAAAAAAAAAAAA==
> <PUBCHEM_IUPAC_OPENEYE_NAME>
2,5-dimethylcyclohexanone
> <PUBCHEM_IUPAC_CAS_NAME>
2,5-dimethyl-1-cyclohexanone
> <PUBCHEM_IUPAC_NAME_MARKUP>
2,5-dimethylcyclohexan-1-one
> <PUBCHEM_IUPAC_NAME>
2,5-dimethylcyclohexan-1-one
> <PUBCHEM_IUPAC_SYSTEMATIC_NAME>
2,5-dimethylcyclohexan-1-one
> <PUBCHEM_IUPAC_TRADITIONAL_NAME>
2,5-dimethylcyclohexanone
> <PUBCHEM_IUPAC_INCHI>
InChI=1S/C8H14O/c1-6-3-4-7(2)8(9)5-6/h6-7H,3-5H2,1-2H3
> <PUBCHEM_IUPAC_INCHIKEY>
LUGFNAYTNQMMMY-UHFFFAOYSA-N
> <PUBCHEM_XLOGP3_AA>
1.9
> <PUBCHEM_EXACT_MASS>
126.104465066
> <PUBCHEM_MOLECULAR_FORMULA>
C8H14O
> <PUBCHEM_MOLECULAR_WEIGHT>
126.20
> <PUBCHEM_OPENEYE_CAN_SMILES>
CC1CCC(C(=O)C1)C
> <PUBCHEM_OPENEYE_ISO_SMILES>
CC1CCC(C(=O)C1)C
> <PUBCHEM_CACTVS_TPSA>
17.1
> <PUBCHEM_MONOISOTOPIC_WEIGHT>
126.104465066
> <PUBCHEM_TOTAL_CHARGE>
0
> <PUBCHEM_HEAVY_ATOM_COUNT>
9
> <PUBCHEM_ATOM_DEF_STEREO_COUNT>
0
> <PUBCHEM_ATOM_UDEF_STEREO_COUNT>
2
> <PUBCHEM_BOND_DEF_STEREO_COUNT>
0
> <PUBCHEM_BOND_UDEF_STEREO_COUNT>
0
> <PUBCHEM_ISOTOPIC_ATOM_COUNT>
0
> <PUBCHEM_COMPONENT_COUNT>
1
> <PUBCHEM_CACTVS_TAUTO_COUNT>
-1
> <PUBCHEM_COORDINATE_TYPE>
1
5
255
> <PUBCHEM_BONDANNOTATIONS>
2  8  3
4  9  3
$$$$
