523026
  -OEChem-10302200292D
 31 33  0     1  0  0  0  0  0999 V2000
    4.6783   -1.8212    0.0000 O   0  0  0  0  0  0  0  0  0  0  0  0
    4.7471    1.6664    0.0000 O   0  0  0  0  0  0  0  0  0  0  0  0
    3.6289    1.4103    0.0000 N   0  0  0  0  0  0  0  0  0  0  0  0
    4.6783   -0.2118    0.0000 C   0  0  3  0  0  0  0  0  0  0  0  0
    3.7320   -0.5165    0.0000 C   0  0  0  0  0  0  0  0  0  0  0  0
    5.2619   -1.0165    0.0000 C   0  0  0  0  0  0  0  0  0  0  0  0
    5.6400    0.0622    0.0000 C   0  0  0  0  0  0  0  0  0  0  0  0
    3.7320   -1.5165    0.0000 C   0  0  0  0  0  0  0  0  0  0  0  0
    4.3709    0.7398    0.0000 C   0  0  0  0  0  0  0  0  0  0  0  0
    2.8660   -0.0165    0.0000 C   0  0  0  0  0  0  0  0  0  0  0  0
    6.3581   -0.6337    0.0000 C   0  0  0  0  0  0  0  0  0  0  0  0
    5.8836    1.0321    0.0000 C   0  0  0  0  0  0  0  0  0  0  0  0
    2.8660   -2.0165    0.0000 C   0  0  0  0  0  0  0  0  0  0  0  0
    2.0000   -0.5165    0.0000 C   0  0  0  0  0  0  0  0  0  0  0  0
    2.0000   -1.5165    0.0000 C   0  0  0  0  0  0  0  0  0  0  0  0
    7.3199   -0.3597    0.0000 C   0  0  0  0  0  0  0  0  0  0  0  0
    6.8454    1.3061    0.0000 C   0  0  0  0  0  0  0  0  0  0  0  0
    7.5635    0.6102    0.0000 C   0  0  0  0  0  0  0  0  0  0  0  0
    5.7227   -1.4312    0.0000 H   0  0  0  0  0  0  0  0  0  0  0  0
    5.7227   -0.6018    0.0000 H   0  0  0  0  0  0  0  0  0  0  0  0
    2.8660    0.6035    0.0000 H   0  0  0  0  0  0  0  0  0  0  0  0
    6.2071   -1.2350    0.0000 H   0  0  0  0  0  0  0  0  0  0  0  0
    5.4384    1.4636    0.0000 H   0  0  0  0  0  0  0  0  0  0  0  0
    2.8660   -2.6365    0.0000 H   0  0  0  0  0  0  0  0  0  0  0  0
    1.4631   -0.2065    0.0000 H   0  0  0  0  0  0  0  0  0  0  0  0
    1.4631   -1.8265    0.0000 H   0  0  0  0  0  0  0  0  0  0  0  0
    3.7589    2.0165    0.0000 H   0  0  0  0  0  0  0  0  0  0  0  0
    3.0390    1.2198    0.0000 H   0  0  0  0  0  0  0  0  0  0  0  0
    7.7651   -0.7912    0.0000 H   0  0  0  0  0  0  0  0  0  0  0  0
    6.9964    1.9074    0.0000 H   0  0  0  0  0  0  0  0  0  0  0  0
    8.1598    0.7800    0.0000 H   0  0  0  0  0  0  0  0  0  0  0  0
  1  6  1  0  0  0  0
  1  8  1  0  0  0  0
  2  9  2  0  0  0  0
  3  9  1  0  0  0  0
  3 27  1  0  0  0  0
  3 28  1  0  0  0  0
  4  5  1  0  0  0  0
  4  6  1  0  0  0  0
  4  7  1  0  0  0  0
  4  9  1  0  0  0  0
  5  8  1  0  0  0  0
  5 10  2  0  0  0  0
  6 19  1  0  0  0  0
  6 20  1  0  0  0  0
  7 11  2  0  0  0  0
  7 12  1  0  0  0  0
  8 13  2  0  0  0  0
 10 14  1  0  0  0  0
 10 21  1  0  0  0  0
 11 16  1  0  0  0  0
 11 22  1  0  0  0  0
 12 17  2  0  0  0  0
 12 23  1  0  0  0  0
 13 15  1  0  0  0  0
 13 24  1  0  0  0  0
 14 15  2  0  0  0  0
 14 25  1  0  0  0  0
 15 26  1  0  0  0  0
 16 18  2  0  0  0  0
 16 29  1  0  0  0  0
 17 18  1  0  0  0  0
 17 30  1  0  0  0  0
 18 31  1  0  0  0  0
M  END
> <PUBCHEM_COMPOUND_CID>
523026
> <PUBCHEM_COMPOUND_CANONICALIZED>
1
> <PUBCHEM_CACTVS_COMPLEXITY>
325
> <PUBCHEM_CACTVS_HBOND_ACCEPTOR>
2
> <PUBCHEM_CACTVS_HBOND_DONOR>
1
> <PUBCHEM_CACTVS_ROTATABLE_BOND>
2
> <PUBCHEM_CACTVS_SUBSKEYS>
AAADccByMAAAAAAAAAAAAAAAAAAAASAAAAAwYAAAAAAAAEgBQAAAHgAQAAAADgShmAIwBoBABACIAiFSEAACCAAgIAAIiAEGCIgMJjaEtRuCOCCm4BEIqAe6yOCPgAAAAAAIAAAAAAAAABAAAAAAAAAAAA==
> <PUBCHEM_IUPAC_OPENEYE_NAME>
3-phenyl-2H-benzofuran-3-carboxamide
> <PUBCHEM_IUPAC_CAS_NAME>
3-phenyl-2H-benzofuran-3-carboxamide
> <PUBCHEM_IUPAC_NAME_MARKUP>
3-phenyl-2<I>H</I>-1-benzofuran-3-carboxamide
> <PUBCHEM_IUPAC_NAME>
3-phenyl-2H-1-benzofuran-3-carboxamide
> <PUBCHEM_IUPAC_SYSTEMATIC_NAME>
3-phenyl-2H-1-benzofuran-3-carboxamide
> <PUBCHEM_IUPAC_TRADITIONAL_NAME>
3-phenylcoumaran-3-carboxamide
> <PUBCHEM_IUPAC_INCHI>
InChI=1S/C15H13NO2/c16-14(17)15(11-6-2-1-3-7-11)10-18-13-9-5-4-8-12(13)15/h1-9H,10H2,(H2,16,17)
> <PUBCHEM_IUPAC_INCHIKEY>
HVAWGLXOKPVJDA-UHFFFAOYSA-N
> <PUBCHEM_XLOGP3_AA>
2
> <PUBCHEM_EXACT_MASS>
239.094628657
> <PUBCHEM_MOLECULAR_FORMULA>
C15H13NO2
> <PUBCHEM_MOLECULAR_WEIGHT>
239.27
> <PUBCHEM_OPENEYE_CAN_SMILES>
C1C(C2=CC=CC=C2O1)(C3=CC=CC=C3)C(=O)N
> <PUBCHEM_OPENEYE_ISO_SMILES>
C1C(C2=CC=CC=C2O1)(C3=CC=CC=C3)C(=O)N
> <PUBCHEM_CACTVS_TPSA>
52.3
> <PUBCHEM_MONOISOTOPIC_WEIGHT>
239.094628657
> <PUBCHEM_TOTAL_CHARGE>
0
> <PUBCHEM_HEAVY_ATOM_COUNT>
18
> <PUBCHEM_ATOM_DEF_STEREO_COUNT>
0
> <PUBCHEM_ATOM_UDEF_STEREO_COUNT>
1
> <PUBCHEM_BOND_DEF_STEREO_COUNT>
0
> <PUBCHEM_BOND_UDEF_STEREO_COUNT>
0
> <PUBCHEM_ISOTOPIC_ATOM_COUNT>
0
> <PUBCHEM_COMPONENT_COUNT>
1
> <PUBCHEM_CACTVS_TAUTO_COUNT>
-1
> <PUBCHEM_COORDINATE_TYPE>
1
5
255
> <PUBCHEM_BONDANNOTATIONS>
10  14  8
11  16  8
12  17  8
13  15  8
14  15  8
16  18  8
17  18  8
4  9  3
5  10  8
5  8  8
7  11  8
7  12  8
8  13  8
$$$$
