523097
  -OEChem-10302200292D
 39 41  0     1  0  0  0  0  0999 V2000
    2.0570   -1.6700    0.0000 S   0  0  0  0  0  0  0  0  0  0  0  0
    4.1349    1.8126    0.0000 O   0  0  0  0  0  0  0  0  0  0  0  0
    2.7336    2.8307    0.0000 O   0  0  0  0  0  0  0  0  0  0  0  0
    3.6750   -1.6700    0.0000 N   0  0  0  0  0  0  0  0  0  0  0  0
    3.3660   -0.7189    0.0000 C   0  0  3  0  0  0  0  0  0  0  0  0
    3.9538    0.0901    0.0000 C   0  0  0  0  0  0  0  0  0  0  0  0
    2.3660   -0.7189    0.0000 C   0  0  0  0  0  0  0  0  0  0  0  0
    3.5471    1.0036    0.0000 C   0  0  0  0  0  0  0  0  0  0  0  0
    2.8660   -2.2578    0.0000 C   0  0  0  0  0  0  0  0  0  0  0  0
    2.8660   -3.2578    0.0000 C   0  0  0  0  0  0  0  0  0  0  0  0
    2.0000   -3.7578    0.0000 C   0  0  0  0  0  0  0  0  0  0  0  0
    3.7320   -3.7578    0.0000 C   0  0  0  0  0  0  0  0  0  0  0  0
    3.7281    2.7262    0.0000 C   0  0  0  0  0  0  0  0  0  0  0  0
    2.0000   -4.7578    0.0000 C   0  0  0  0  0  0  0  0  0  0  0  0
    3.7320   -4.7578    0.0000 C   0  0  0  0  0  0  0  0  0  0  0  0
    4.3159    3.5352    0.0000 C   0  0  0  0  0  0  0  0  0  0  0  0
    2.8660   -5.2578    0.0000 C   0  0  0  0  0  0  0  0  0  0  0  0
    3.9092    4.4488    0.0000 C   0  0  0  0  0  0  0  0  0  0  0  0
    5.3104    3.4307    0.0000 C   0  0  0  0  0  0  0  0  0  0  0  0
    4.4970    5.2578    0.0000 C   0  0  0  0  0  0  0  0  0  0  0  0
    5.8982    4.2397    0.0000 C   0  0  0  0  0  0  0  0  0  0  0  0
    5.4915    5.1532    0.0000 C   0  0  0  0  0  0  0  0  0  0  0  0
    3.9784   -0.8159    0.0000 H   0  0  0  0  0  0  0  0  0  0  0  0
    4.3845   -0.3559    0.0000 H   0  0  0  0  0  0  0  0  0  0  0  0
    4.4678    0.4368    0.0000 H   0  0  0  0  0  0  0  0  0  0  0  0
    2.4308   -0.1023    0.0000 H   0  0  0  0  0  0  0  0  0  0  0  0
    1.7596   -0.5900    0.0000 H   0  0  0  0  0  0  0  0  0  0  0  0
    3.1164    1.4496    0.0000 H   0  0  0  0  0  0  0  0  0  0  0  0
    3.0331    0.6569    0.0000 H   0  0  0  0  0  0  0  0  0  0  0  0
    1.4631   -3.4478    0.0000 H   0  0  0  0  0  0  0  0  0  0  0  0
    4.2690   -3.4478    0.0000 H   0  0  0  0  0  0  0  0  0  0  0  0
    1.4631   -5.0678    0.0000 H   0  0  0  0  0  0  0  0  0  0  0  0
    4.2690   -5.0678    0.0000 H   0  0  0  0  0  0  0  0  0  0  0  0
    2.8660   -5.8778    0.0000 H   0  0  0  0  0  0  0  0  0  0  0  0
    3.2926    4.5136    0.0000 H   0  0  0  0  0  0  0  0  0  0  0  0
    5.5626    2.8643    0.0000 H   0  0  0  0  0  0  0  0  0  0  0  0
    4.2448    5.8242    0.0000 H   0  0  0  0  0  0  0  0  0  0  0  0
    6.5148    4.1749    0.0000 H   0  0  0  0  0  0  0  0  0  0  0  0
    5.8559    5.6548    0.0000 H   0  0  0  0  0  0  0  0  0  0  0  0
  1  7  1  0  0  0  0
  1  9  1  0  0  0  0
  2  8  1  0  0  0  0
  2 13  1  0  0  0  0
  3 13  2  0  0  0  0
  4  5  1  0  0  0  0
  4  9  2  0  0  0  0
  5  6  1  0  0  0  0
  5  7  1  0  0  0  0
  5 23  1  0  0  0  0
  6  8  1  0  0  0  0
  6 24  1  0  0  0  0
  6 25  1  0  0  0  0
  7 26  1  0  0  0  0
  7 27  1  0  0  0  0
  8 28  1  0  0  0  0
  8 29  1  0  0  0  0
  9 10  1  0  0  0  0
 10 11  2  0  0  0  0
 10 12  1  0  0  0  0
 11 14  1  0  0  0  0
 11 30  1  0  0  0  0
 12 15  2  0  0  0  0
 12 31  1  0  0  0  0
 13 16  1  0  0  0  0
 14 17  2  0  0  0  0
 14 32  1  0  0  0  0
 15 17  1  0  0  0  0
 15 33  1  0  0  0  0
 16 18  2  0  0  0  0
 16 19  1  0  0  0  0
 17 34  1  0  0  0  0
 18 20  1  0  0  0  0
 18 35  1  0  0  0  0
 19 21  2  0  0  0  0
 19 36  1  0  0  0  0
 20 22  2  0  0  0  0
 20 37  1  0  0  0  0
 21 22  1  0  0  0  0
 21 38  1  0  0  0  0
 22 39  1  0  0  0  0
M  END
> <PUBCHEM_COMPOUND_CID>
523097
> <PUBCHEM_COMPOUND_CANONICALIZED>
1
> <PUBCHEM_CACTVS_COMPLEXITY>
398
> <PUBCHEM_CACTVS_HBOND_ACCEPTOR>
4
> <PUBCHEM_CACTVS_HBOND_DONOR>
0
> <PUBCHEM_CACTVS_ROTATABLE_BOND>
6
> <PUBCHEM_CACTVS_SUBSKEYS>
AAADceB6MABAAAAAAAAAAAAAAAAAAQAAAAAwYAAAAAAAAAABQAAAHgQAAAAADCjl2AawCIIABAioAiDyDAACEAAkABAIiAEgCNgIJrKgNRiCMQAmwAEoqYeIyCCOAAAAAAAAAAAAAAAAAAAAAAAAAAAAAA==
> <PUBCHEM_IUPAC_OPENEYE_NAME>
2-(2-phenyl-4,5-dihydrothiazol-4-yl)ethyl benzoate
> <PUBCHEM_IUPAC_CAS_NAME>
benzoic acid 2-(2-phenyl-4,5-dihydrothiazol-4-yl)ethyl ester
> <PUBCHEM_IUPAC_NAME_MARKUP>
2-(2-phenyl-4,5-dihydro-1,3-thiazol-4-yl)ethyl benzoate
> <PUBCHEM_IUPAC_NAME>
2-(2-phenyl-4,5-dihydro-1,3-thiazol-4-yl)ethyl benzoate
> <PUBCHEM_IUPAC_SYSTEMATIC_NAME>
2-(2-phenyl-4,5-dihydro-1,3-thiazol-4-yl)ethyl benzoate
> <PUBCHEM_IUPAC_TRADITIONAL_NAME>
benzoic acid 2-(2-phenyl-2-thiazolin-4-yl)ethyl ester
> <PUBCHEM_IUPAC_INCHI>
InChI=1S/C18H17NO2S/c20-18(15-9-5-2-6-10-15)21-12-11-16-13-22-17(19-16)14-7-3-1-4-8-14/h1-10,16H,11-13H2
> <PUBCHEM_IUPAC_INCHIKEY>
FNQNEBUSCQXHGX-UHFFFAOYSA-N
> <PUBCHEM_XLOGP3_AA>
3.9
> <PUBCHEM_EXACT_MASS>
311.09799996
> <PUBCHEM_MOLECULAR_FORMULA>
C18H17NO2S
> <PUBCHEM_MOLECULAR_WEIGHT>
311.4
> <PUBCHEM_OPENEYE_CAN_SMILES>
C1C(N=C(S1)C2=CC=CC=C2)CCOC(=O)C3=CC=CC=C3
> <PUBCHEM_OPENEYE_ISO_SMILES>
C1C(N=C(S1)C2=CC=CC=C2)CCOC(=O)C3=CC=CC=C3
> <PUBCHEM_CACTVS_TPSA>
64
> <PUBCHEM_MONOISOTOPIC_WEIGHT>
311.09799996
> <PUBCHEM_TOTAL_CHARGE>
0
> <PUBCHEM_HEAVY_ATOM_COUNT>
22
> <PUBCHEM_ATOM_DEF_STEREO_COUNT>
0
> <PUBCHEM_ATOM_UDEF_STEREO_COUNT>
1
> <PUBCHEM_BOND_DEF_STEREO_COUNT>
0
> <PUBCHEM_BOND_UDEF_STEREO_COUNT>
0
> <PUBCHEM_ISOTOPIC_ATOM_COUNT>
0
> <PUBCHEM_COMPONENT_COUNT>
1
> <PUBCHEM_CACTVS_TAUTO_COUNT>
-1
> <PUBCHEM_COORDINATE_TYPE>
1
5
255
> <PUBCHEM_BONDANNOTATIONS>
10  11  8
10  12  8
11  14  8
12  15  8
14  17  8
15  17  8
16  18  8
16  19  8
18  20  8
19  21  8
20  22  8
21  22  8
5  6  3
$$$$
