523019
  -OEChem-10302200292D
 27 28  0     1  0  0  0  0  0999 V2000
    3.2320    3.0194    0.0000 S   0  0  0  0  0  0  0  0  0  0  0  0
    2.0000    0.4806    0.0000 O   0  0  0  0  0  0  0  0  0  0  0  0
    3.7320    0.4806    0.0000 N   0  0  0  0  0  0  0  0  0  0  0  0
    3.7320    1.4806    0.0000 C   0  0  3  0  0  0  0  0  0  0  0  0
    4.5411    2.0684    0.0000 C   0  0  0  0  0  0  0  0  0  0  0  0
    2.9230    2.0684    0.0000 C   0  0  0  0  0  0  0  0  0  0  0  0
    4.2320    3.0194    0.0000 C   0  0  0  0  0  0  0  0  0  0  0  0
    2.8660   -0.0194    0.0000 C   0  0  0  0  0  0  0  0  0  0  0  0
    2.8660   -1.0194    0.0000 C   0  0  0  0  0  0  0  0  0  0  0  0
    2.0000   -1.5194    0.0000 C   0  0  0  0  0  0  0  0  0  0  0  0
    3.7320   -1.5194    0.0000 C   0  0  0  0  0  0  0  0  0  0  0  0
    2.0000   -2.5194    0.0000 C   0  0  0  0  0  0  0  0  0  0  0  0
    3.7320   -2.5194    0.0000 C   0  0  0  0  0  0  0  0  0  0  0  0
    2.8660   -3.0194    0.0000 C   0  0  0  0  0  0  0  0  0  0  0  0
    4.2845    1.1991    0.0000 H   0  0  0  0  0  0  0  0  0  0  0  0
    4.8511    1.5314    0.0000 H   0  0  0  0  0  0  0  0  0  0  0  0
    5.1075    2.3205    0.0000 H   0  0  0  0  0  0  0  0  0  0  0  0
    2.3566    2.3205    0.0000 H   0  0  0  0  0  0  0  0  0  0  0  0
    2.6130    1.5314    0.0000 H   0  0  0  0  0  0  0  0  0  0  0  0
    4.8385    3.1483    0.0000 H   0  0  0  0  0  0  0  0  0  0  0  0
    4.1672    3.6360    0.0000 H   0  0  0  0  0  0  0  0  0  0  0  0
    4.2690    0.1706    0.0000 H   0  0  0  0  0  0  0  0  0  0  0  0
    1.4631   -1.2094    0.0000 H   0  0  0  0  0  0  0  0  0  0  0  0
    4.2690   -1.2094    0.0000 H   0  0  0  0  0  0  0  0  0  0  0  0
    1.4631   -2.8294    0.0000 H   0  0  0  0  0  0  0  0  0  0  0  0
    4.2690   -2.8294    0.0000 H   0  0  0  0  0  0  0  0  0  0  0  0
    2.8660   -3.6394    0.0000 H   0  0  0  0  0  0  0  0  0  0  0  0
  1  6  1  0  0  0  0
  1  7  1  0  0  0  0
  2  8  2  0  0  0  0
  3  4  1  0  0  0  0
  3  8  1  0  0  0  0
  3 22  1  0  0  0  0
  4  5  1  0  0  0  0
  4  6  1  0  0  0  0
  4 15  1  0  0  0  0
  5  7  1  0  0  0  0
  5 16  1  0  0  0  0
  5 17  1  0  0  0  0
  6 18  1  0  0  0  0
  6 19  1  0  0  0  0
  7 20  1  0  0  0  0
  7 21  1  0  0  0  0
  8  9  1  0  0  0  0
  9 10  2  0  0  0  0
  9 11  1  0  0  0  0
 10 12  1  0  0  0  0
 10 23  1  0  0  0  0
 11 13  2  0  0  0  0
 11 24  1  0  0  0  0
 12 14  2  0  0  0  0
 12 25  1  0  0  0  0
 13 14  1  0  0  0  0
 13 26  1  0  0  0  0
 14 27  1  0  0  0  0
M  END
> <PUBCHEM_COMPOUND_CID>
523019
> <PUBCHEM_COMPOUND_CANONICALIZED>
1
> <PUBCHEM_CACTVS_COMPLEXITY>
202
> <PUBCHEM_CACTVS_HBOND_ACCEPTOR>
2
> <PUBCHEM_CACTVS_HBOND_DONOR>
1
> <PUBCHEM_CACTVS_ROTATABLE_BOND>
2
> <PUBCHEM_CACTVS_SUBSKEYS>
AAADccByIABAAAAAAAAAAAAAAAAAASAAAAAwAAAAAAAAAAABAAAAHgQQAAAADCjF2ASwAILAAAiIAiFSEACCAAAkABAIiIEIBMgIIDKglRGEIQhglgCoiYcYiACOAAAAAAAAAAAAAAAAAAAAAAAAAAAAAA==
> <PUBCHEM_IUPAC_OPENEYE_NAME>
N-tetrahydrothiophen-3-ylbenzamide
> <PUBCHEM_IUPAC_CAS_NAME>
N-(3-thiolanyl)benzamide
> <PUBCHEM_IUPAC_NAME_MARKUP>
<I>N</I>-(thiolan-3-yl)benzamide
> <PUBCHEM_IUPAC_NAME>
N-(thiolan-3-yl)benzamide
> <PUBCHEM_IUPAC_SYSTEMATIC_NAME>
N-(thiolan-3-yl)benzamide
> <PUBCHEM_IUPAC_TRADITIONAL_NAME>
N-tetrahydrothiophen-3-ylbenzamide
> <PUBCHEM_IUPAC_INCHI>
InChI=1S/C11H13NOS/c13-11(9-4-2-1-3-5-9)12-10-6-7-14-8-10/h1-5,10H,6-8H2,(H,12,13)
> <PUBCHEM_IUPAC_INCHIKEY>
DONJDQMILBHKEB-UHFFFAOYSA-N
> <PUBCHEM_XLOGP3_AA>
2
> <PUBCHEM_EXACT_MASS>
207.07178521
> <PUBCHEM_MOLECULAR_FORMULA>
C11H13NOS
> <PUBCHEM_MOLECULAR_WEIGHT>
207.29
> <PUBCHEM_OPENEYE_CAN_SMILES>
C1CSCC1NC(=O)C2=CC=CC=C2
> <PUBCHEM_OPENEYE_ISO_SMILES>
C1CSCC1NC(=O)C2=CC=CC=C2
> <PUBCHEM_CACTVS_TPSA>
54.4
> <PUBCHEM_MONOISOTOPIC_WEIGHT>
207.07178521
> <PUBCHEM_TOTAL_CHARGE>
0
> <PUBCHEM_HEAVY_ATOM_COUNT>
14
> <PUBCHEM_ATOM_DEF_STEREO_COUNT>
0
> <PUBCHEM_ATOM_UDEF_STEREO_COUNT>
1
> <PUBCHEM_BOND_DEF_STEREO_COUNT>
0
> <PUBCHEM_BOND_UDEF_STEREO_COUNT>
0
> <PUBCHEM_ISOTOPIC_ATOM_COUNT>
0
> <PUBCHEM_COMPONENT_COUNT>
1
> <PUBCHEM_CACTVS_TAUTO_COUNT>
-1
> <PUBCHEM_COORDINATE_TYPE>
1
5
255
> <PUBCHEM_BONDANNOTATIONS>
10  12  8
11  13  8
12  14  8
13  14  8
4  3  3
9  10  8
9  11  8
$$$$
