523159
  -OEChem-10302200292D
 66 67  0     1  0  0  0  0  0999 V2000
    5.2619   -3.3896    0.0000 O   0  0  0  0  0  0  0  0  0  0  0  0
    4.9889   -5.1449    0.0000 O   0  0  0  0  0  0  0  0  0  0  0  0
    4.9889   -1.6344    0.0000 N   0  0  0  0  0  0  0  0  0  0  0  0
    4.6783   -2.5849    0.0000 C   0  0  3  0  0  0  0  0  0  0  0  0
    5.9674   -1.4282    0.0000 C   0  0  0  0  0  0  0  0  0  0  0  0
    4.3211   -0.8901    0.0000 C   0  0  0  0  0  0  0  0  0  0  0  0
    6.2781   -0.4777    0.0000 C   0  0  0  0  0  0  0  0  0  0  0  0
    4.6318    0.0604    0.0000 C   0  0  0  0  0  0  0  0  0  0  0  0
    7.2566   -0.2714    0.0000 C   0  0  0  0  0  0  0  0  0  0  0  0
    3.9639    0.8047    0.0000 C   0  0  0  0  0  0  0  0  0  0  0  0
    3.7320   -2.8896    0.0000 C   0  0  0  0  0  0  0  0  0  0  0  0
    7.5673    0.6791    0.0000 C   0  0  0  0  0  0  0  0  0  0  0  0
    4.2746    1.7552    0.0000 C   0  0  0  0  0  0  0  0  0  0  0  0
    8.5458    0.8853    0.0000 C   0  0  0  0  0  0  0  0  0  0  0  0
    3.6067    2.4996    0.0000 C   0  0  0  0  0  0  0  0  0  0  0  0
    3.7320   -3.8896    0.0000 C   0  0  0  0  0  0  0  0  0  0  0  0
    4.6783   -4.1944    0.0000 C   0  0  0  0  0  0  0  0  0  0  0  0
    8.8564    1.8358    0.0000 C   0  0  0  0  0  0  0  0  0  0  0  0
    3.9174    3.4501    0.0000 C   0  0  0  0  0  0  0  0  0  0  0  0
    2.8660   -2.3896    0.0000 C   0  0  0  0  0  0  0  0  0  0  0  0
    2.8660   -4.3896    0.0000 C   0  0  0  0  0  0  0  0  0  0  0  0
    9.8349    2.0420    0.0000 C   0  0  0  0  0  0  0  0  0  0  0  0
    3.2496    4.1944    0.0000 C   0  0  0  0  0  0  0  0  0  0  0  0
    2.0000   -2.8896    0.0000 C   0  0  0  0  0  0  0  0  0  0  0  0
    2.0000   -3.8896    0.0000 C   0  0  0  0  0  0  0  0  0  0  0  0
   10.1456    2.9926    0.0000 C   0  0  0  0  0  0  0  0  0  0  0  0
    3.5602    5.1449    0.0000 C   0  0  0  0  0  0  0  0  0  0  0  0
    4.2408   -2.1456    0.0000 H   0  0  0  0  0  0  0  0  0  0  0  0
    5.9880   -2.0478    0.0000 H   0  0  0  0  0  0  0  0  0  0  0  0
    6.5812   -1.5155    0.0000 H   0  0  0  0  0  0  0  0  0  0  0  0
    3.7742   -0.5981    0.0000 H   0  0  0  0  0  0  0  0  0  0  0  0
    3.9385   -1.3780    0.0000 H   0  0  0  0  0  0  0  0  0  0  0  0
    6.2575    0.1420    0.0000 H   0  0  0  0  0  0  0  0  0  0  0  0
    5.6643   -0.3903    0.0000 H   0  0  0  0  0  0  0  0  0  0  0  0
    5.1787   -0.2316    0.0000 H   0  0  0  0  0  0  0  0  0  0  0  0
    5.0143    0.5483    0.0000 H   0  0  0  0  0  0  0  0  0  0  0  0
    7.2772   -0.8911    0.0000 H   0  0  0  0  0  0  0  0  0  0  0  0
    7.8704   -0.3588    0.0000 H   0  0  0  0  0  0  0  0  0  0  0  0
    3.4170    1.0967    0.0000 H   0  0  0  0  0  0  0  0  0  0  0  0
    3.5814    0.3168    0.0000 H   0  0  0  0  0  0  0  0  0  0  0  0
    7.5467    1.2988    0.0000 H   0  0  0  0  0  0  0  0  0  0  0  0
    6.9534    0.7664    0.0000 H   0  0  0  0  0  0  0  0  0  0  0  0
    4.8215    1.4632    0.0000 H   0  0  0  0  0  0  0  0  0  0  0  0
    4.6571    2.2432    0.0000 H   0  0  0  0  0  0  0  0  0  0  0  0
    8.5663    0.2656    0.0000 H   0  0  0  0  0  0  0  0  0  0  0  0
    9.1596    0.7980    0.0000 H   0  0  0  0  0  0  0  0  0  0  0  0
    3.0598    2.7916    0.0000 H   0  0  0  0  0  0  0  0  0  0  0  0
    3.2242    2.0116    0.0000 H   0  0  0  0  0  0  0  0  0  0  0  0
    8.8359    2.4555    0.0000 H   0  0  0  0  0  0  0  0  0  0  0  0
    8.2426    1.9232    0.0000 H   0  0  0  0  0  0  0  0  0  0  0  0
    4.4643    3.1581    0.0000 H   0  0  0  0  0  0  0  0  0  0  0  0
    4.2999    3.9380    0.0000 H   0  0  0  0  0  0  0  0  0  0  0  0
    2.8660   -1.7696    0.0000 H   0  0  0  0  0  0  0  0  0  0  0  0
    2.8660   -5.0096    0.0000 H   0  0  0  0  0  0  0  0  0  0  0  0
    9.8555    1.4224    0.0000 H   0  0  0  0  0  0  0  0  0  0  0  0
   10.4488    1.9547    0.0000 H   0  0  0  0  0  0  0  0  0  0  0  0
    2.7026    4.4864    0.0000 H   0  0  0  0  0  0  0  0  0  0  0  0
    2.8670    3.7065    0.0000 H   0  0  0  0  0  0  0  0  0  0  0  0
    1.4631   -2.5796    0.0000 H   0  0  0  0  0  0  0  0  0  0  0  0
    1.4631   -4.1996    0.0000 H   0  0  0  0  0  0  0  0  0  0  0  0
   10.7349    2.8000    0.0000 H   0  0  0  0  0  0  0  0  0  0  0  0
   10.3382    3.5819    0.0000 H   0  0  0  0  0  0  0  0  0  0  0  0
    9.5563    3.1852    0.0000 H   0  0  0  0  0  0  0  0  0  0  0  0
    4.1495    4.9523    0.0000 H   0  0  0  0  0  0  0  0  0  0  0  0
    3.7528    5.7342    0.0000 H   0  0  0  0  0  0  0  0  0  0  0  0
    2.9709    5.3375    0.0000 H   0  0  0  0  0  0  0  0  0  0  0  0
  1  4  1  0  0  0  0
  1 17  1  0  0  0  0
  2 17  2  0  0  0  0
  3  4  1  0  0  0  0
  3  5  1  0  0  0  0
  3  6  1  0  0  0  0
  4 11  1  0  0  0  0
  4 28  1  0  0  0  0
  5  7  1  0  0  0  0
  5 29  1  0  0  0  0
  5 30  1  0  0  0  0
  6  8  1  0  0  0  0
  6 31  1  0  0  0  0
  6 32  1  0  0  0  0
  7  9  1  0  0  0  0
  7 33  1  0  0  0  0
  7 34  1  0  0  0  0
  8 10  1  0  0  0  0
  8 35  1  0  0  0  0
  8 36  1  0  0  0  0
  9 12  1  0  0  0  0
  9 37  1  0  0  0  0
  9 38  1  0  0  0  0
 10 13  1  0  0  0  0
 10 39  1  0  0  0  0
 10 40  1  0  0  0  0
 11 16  1  0  0  0  0
 11 20  2  0  0  0  0
 12 14  1  0  0  0  0
 12 41  1  0  0  0  0
 12 42  1  0  0  0  0
 13 15  1  0  0  0  0
 13 43  1  0  0  0  0
 13 44  1  0  0  0  0
 14 18  1  0  0  0  0
 14 45  1  0  0  0  0
 14 46  1  0  0  0  0
 15 19  1  0  0  0  0
 15 47  1  0  0  0  0
 15 48  1  0  0  0  0
 16 17  1  0  0  0  0
 16 21  2  0  0  0  0
 18 22  1  0  0  0  0
 18 49  1  0  0  0  0
 18 50  1  0  0  0  0
 19 23  1  0  0  0  0
 19 51  1  0  0  0  0
 19 52  1  0  0  0  0
 20 24  1  0  0  0  0
 20 53  1  0  0  0  0
 21 25  1  0  0  0  0
 21 54  1  0  0  0  0
 22 26  1  0  0  0  0
 22 55  1  0  0  0  0
 22 56  1  0  0  0  0
 23 27  1  0  0  0  0
 23 57  1  0  0  0  0
 23 58  1  0  0  0  0
 24 25  2  0  0  0  0
 24 59  1  0  0  0  0
 25 60  1  0  0  0  0
 26 61  1  0  0  0  0
 26 62  1  0  0  0  0
 26 63  1  0  0  0  0
 27 64  1  0  0  0  0
 27 65  1  0  0  0  0
 27 66  1  0  0  0  0
M  END
> <PUBCHEM_COMPOUND_CID>
523159
> <PUBCHEM_COMPOUND_CANONICALIZED>
1
> <PUBCHEM_CACTVS_COMPLEXITY>
382
> <PUBCHEM_CACTVS_HBOND_ACCEPTOR>
3
> <PUBCHEM_CACTVS_HBOND_DONOR>
0
> <PUBCHEM_CACTVS_ROTATABLE_BOND>
15
> <PUBCHEM_CACTVS_SUBSKEYS>
AAADcfB6MAAAAAAAAAAAAAAAAAAAASAAAAAwAAAAAAAAAEgBAAAAHgAAAAAADADhmAYyCIMABACIAiDSCACCAAAkAAAIiAEIDMgIJjKAtRmOMQhkwAGIqYe+yKCOgAAAAAAQAAAAAAAAACAAAAAAAAAAAA==
> <PUBCHEM_IUPAC_OPENEYE_NAME>
3-(dioctylamino)-3H-isobenzofuran-1-one
> <PUBCHEM_IUPAC_CAS_NAME>
3-(dioctylamino)-3H-isobenzofuran-1-one
> <PUBCHEM_IUPAC_NAME_MARKUP>
3-(dioctylamino)-3<I>H</I>-2-benzofuran-1-one
> <PUBCHEM_IUPAC_NAME>
3-(dioctylamino)-3H-2-benzofuran-1-one
> <PUBCHEM_IUPAC_SYSTEMATIC_NAME>
3-(dioctylamino)-3H-2-benzofuran-1-one
> <PUBCHEM_IUPAC_TRADITIONAL_NAME>
3-(dioctylamino)phthalide
> <PUBCHEM_IUPAC_INCHI>
InChI=1S/C24H39NO2/c1-3-5-7-9-11-15-19-25(20-16-12-10-8-6-4-2)23-21-17-13-14-18-22(21)24(26)27-23/h13-14,17-18,23H,3-12,15-16,19-20H2,1-2H3
> <PUBCHEM_IUPAC_INCHIKEY>
WYPQQWBTOKVAQN-UHFFFAOYSA-N
> <PUBCHEM_XLOGP3>
8
> <PUBCHEM_EXACT_MASS>
373.298079487
> <PUBCHEM_MOLECULAR_FORMULA>
C24H39NO2
> <PUBCHEM_MOLECULAR_WEIGHT>
373.6
> <PUBCHEM_OPENEYE_CAN_SMILES>
CCCCCCCCN(CCCCCCCC)C1C2=CC=CC=C2C(=O)O1
> <PUBCHEM_OPENEYE_ISO_SMILES>
CCCCCCCCN(CCCCCCCC)C1C2=CC=CC=C2C(=O)O1
> <PUBCHEM_CACTVS_TPSA>
29.5
> <PUBCHEM_MONOISOTOPIC_WEIGHT>
373.298079487
> <PUBCHEM_TOTAL_CHARGE>
0
> <PUBCHEM_HEAVY_ATOM_COUNT>
27
> <PUBCHEM_ATOM_DEF_STEREO_COUNT>
0
> <PUBCHEM_ATOM_UDEF_STEREO_COUNT>
1
> <PUBCHEM_BOND_DEF_STEREO_COUNT>
0
> <PUBCHEM_BOND_UDEF_STEREO_COUNT>
0
> <PUBCHEM_ISOTOPIC_ATOM_COUNT>
0
> <PUBCHEM_COMPONENT_COUNT>
1
> <PUBCHEM_CACTVS_TAUTO_COUNT>
-1
> <PUBCHEM_COORDINATE_TYPE>
1
5
255
> <PUBCHEM_BONDANNOTATIONS>
11  16  8
11  20  8
16  21  8
20  24  8
21  25  8
24  25  8
4  3  3
$$$$
