523127
  -OEChem-10302200292D
 37 39  0     1  0  0  0  0  0999 V2000
    4.5157   -2.2234    0.0000 O   0  0  0  0  0  0  0  0  0  0  0  0
    6.1281    0.6564    0.0000 O   0  0  0  0  0  0  0  0  0  0  0  0
    5.4577    1.7533    0.0000 N   0  0  0  0  0  0  0  0  0  0  0  0
    4.5157    0.0236    0.0000 C   0  0  3  0  0  0  0  0  0  0  0  0
    3.5408   -0.1990    0.0000 C   0  0  0  0  0  0  0  0  0  0  0  0
    5.2976   -0.5999    0.0000 C   0  0  0  0  0  0  0  0  0  0  0  0
    3.1069   -1.0999    0.0000 C   0  0  0  0  0  0  0  0  0  0  0  0
    3.7186    0.6274    0.0000 C   0  0  0  0  0  0  0  0  0  0  0  0
    3.5408   -2.0009    0.0000 C   0  0  0  0  0  0  0  0  0  0  0  0
    5.1392    0.8054    0.0000 C   0  0  0  0  0  0  0  0  0  0  0  0
    5.2976   -1.5999    0.0000 C   0  0  0  0  0  0  0  0  0  0  0  0
    6.1915   -0.0653    0.0000 C   0  0  0  0  0  0  0  0  0  0  0  0
    2.7971    0.2389    0.0000 C   0  0  0  0  0  0  0  0  0  0  0  0
    3.8430    1.6196    0.0000 C   0  0  0  0  0  0  0  0  0  0  0  0
    6.1915   -2.1346    0.0000 C   0  0  0  0  0  0  0  0  0  0  0  0
    7.0976   -0.5791    0.0000 C   0  0  0  0  0  0  0  0  0  0  0  0
    7.0976   -1.6207    0.0000 C   0  0  0  0  0  0  0  0  0  0  0  0
    2.0000    0.8427    0.0000 C   0  0  0  0  0  0  0  0  0  0  0  0
    3.0458    2.2234    0.0000 C   0  0  0  0  0  0  0  0  0  0  0  0
    2.1243    1.8350    0.0000 C   0  0  0  0  0  0  0  0  0  0  0  0
    3.5408    0.4210    0.0000 H   0  0  0  0  0  0  0  0  0  0  0  0
    2.9364   -0.0610    0.0000 H   0  0  0  0  0  0  0  0  0  0  0  0
    2.6222   -0.7134    0.0000 H   0  0  0  0  0  0  0  0  0  0  0  0
    2.6222   -1.4865    0.0000 H   0  0  0  0  0  0  0  0  0  0  0  0
    2.9364   -2.1389    0.0000 H   0  0  0  0  0  0  0  0  0  0  0  0
    3.5408   -2.6209    0.0000 H   0  0  0  0  0  0  0  0  0  0  0  0
    6.1844    0.5547    0.0000 H   0  0  0  0  0  0  0  0  0  0  0  0
    2.7200   -0.3763    0.0000 H   0  0  0  0  0  0  0  0  0  0  0  0
    4.4143    1.8604    0.0000 H   0  0  0  0  0  0  0  0  0  0  0  0
    6.1844   -2.7545    0.0000 H   0  0  0  0  0  0  0  0  0  0  0  0
    7.6333   -0.2670    0.0000 H   0  0  0  0  0  0  0  0  0  0  0  0
    6.0654    1.8762    0.0000 H   0  0  0  0  0  0  0  0  0  0  0  0
    5.0475    2.2182    0.0000 H   0  0  0  0  0  0  0  0  0  0  0  0
    7.6333   -1.9328    0.0000 H   0  0  0  0  0  0  0  0  0  0  0  0
    1.4287    0.6019    0.0000 H   0  0  0  0  0  0  0  0  0  0  0  0
    3.1229    2.8386    0.0000 H   0  0  0  0  0  0  0  0  0  0  0  0
    1.6301    2.2093    0.0000 H   0  0  0  0  0  0  0  0  0  0  0  0
  1  9  1  0  0  0  0
  1 11  1  0  0  0  0
  2 10  2  0  0  0  0
  3 10  1  0  0  0  0
  3 32  1  0  0  0  0
  3 33  1  0  0  0  0
  4  5  1  0  0  0  0
  4  6  1  0  0  0  0
  4  8  1  0  0  0  0
  4 10  1  0  0  0  0
  5  7  1  0  0  0  0
  5 21  1  0  0  0  0
  5 22  1  0  0  0  0
  6 11  1  0  0  0  0
  6 12  2  0  0  0  0
  7  9  1  0  0  0  0
  7 23  1  0  0  0  0
  7 24  1  0  0  0  0
  8 13  2  0  0  0  0
  8 14  1  0  0  0  0
  9 25  1  0  0  0  0
  9 26  1  0  0  0  0
 11 15  2  0  0  0  0
 12 16  1  0  0  0  0
 12 27  1  0  0  0  0
 13 18  1  0  0  0  0
 13 28  1  0  0  0  0
 14 19  2  0  0  0  0
 14 29  1  0  0  0  0
 15 17  1  0  0  0  0
 15 30  1  0  0  0  0
 16 17  2  0  0  0  0
 16 31  1  0  0  0  0
 17 34  1  0  0  0  0
 18 20  2  0  0  0  0
 18 35  1  0  0  0  0
 19 20  1  0  0  0  0
 19 36  1  0  0  0  0
 20 37  1  0  0  0  0
M  END
> <PUBCHEM_COMPOUND_CID>
523127
> <PUBCHEM_COMPOUND_CANONICALIZED>
1
> <PUBCHEM_CACTVS_COMPLEXITY>
351
> <PUBCHEM_CACTVS_HBOND_ACCEPTOR>
2
> <PUBCHEM_CACTVS_HBOND_DONOR>
1
> <PUBCHEM_CACTVS_ROTATABLE_BOND>
2
> <PUBCHEM_CACTVS_SUBSKEYS>
AAADceB6MAAAAAAAAAAAAAAAAAAAAAAAAAAwYAAABIAAAAABQAAAHgAQAAAADgShmAIwBoBABACIAiFSEAACCAAgIAAIiAEGCIgMJjKEtRuCOCCkwBEIqAe63PCPgAAAAAAIAAAAAAAAABAAAAAAAAAAAA==
> <PUBCHEM_IUPAC_OPENEYE_NAME>
5-phenyl-3,4-dihydro-2H-1-benzoxepine-5-carboxamide
> <PUBCHEM_IUPAC_CAS_NAME>
5-phenyl-3,4-dihydro-2H-1-benzoxepin-5-carboxamide
> <PUBCHEM_IUPAC_NAME_MARKUP>
5-phenyl-3,4-dihydro-2<I>H</I>-1-benzoxepine-5-carboxamide
> <PUBCHEM_IUPAC_NAME>
5-phenyl-3,4-dihydro-2H-1-benzoxepine-5-carboxamide
> <PUBCHEM_IUPAC_SYSTEMATIC_NAME>
5-phenyl-3,4-dihydro-2H-1-benzoxepine-5-carboxamide
> <PUBCHEM_IUPAC_TRADITIONAL_NAME>
5-phenyl-3,4-dihydro-2H-1-benzoxepin-5-carboxamide
> <PUBCHEM_IUPAC_INCHI>
InChI=1S/C17H17NO2/c18-16(19)17(13-7-2-1-3-8-13)11-6-12-20-15-10-5-4-9-14(15)17/h1-5,7-10H,6,11-12H2,(H2,18,19)
> <PUBCHEM_IUPAC_INCHIKEY>
PKIZNLKQWLSCFP-UHFFFAOYSA-N
> <PUBCHEM_XLOGP3_AA>
2.7
> <PUBCHEM_EXACT_MASS>
267.125928785
> <PUBCHEM_MOLECULAR_FORMULA>
C17H17NO2
> <PUBCHEM_MOLECULAR_WEIGHT>
267.32
> <PUBCHEM_OPENEYE_CAN_SMILES>
C1CC(C2=CC=CC=C2OC1)(C3=CC=CC=C3)C(=O)N
> <PUBCHEM_OPENEYE_ISO_SMILES>
C1CC(C2=CC=CC=C2OC1)(C3=CC=CC=C3)C(=O)N
> <PUBCHEM_CACTVS_TPSA>
52.3
> <PUBCHEM_MONOISOTOPIC_WEIGHT>
267.125928785
> <PUBCHEM_TOTAL_CHARGE>
0
> <PUBCHEM_HEAVY_ATOM_COUNT>
20
> <PUBCHEM_ATOM_DEF_STEREO_COUNT>
0
> <PUBCHEM_ATOM_UDEF_STEREO_COUNT>
1
> <PUBCHEM_BOND_DEF_STEREO_COUNT>
0
> <PUBCHEM_BOND_UDEF_STEREO_COUNT>
0
> <PUBCHEM_ISOTOPIC_ATOM_COUNT>
0
> <PUBCHEM_COMPONENT_COUNT>
1
> <PUBCHEM_CACTVS_TAUTO_COUNT>
-1
> <PUBCHEM_COORDINATE_TYPE>
1
5
255
> <PUBCHEM_BONDANNOTATIONS>
11  15  8
12  16  8
13  18  8
14  19  8
15  17  8
16  17  8
18  20  8
19  20  8
4  8  3
6  11  8
6  12  8
8  13  8
8  14  8
$$$$
