523196
  -OEChem-10302200292D
 53 56  0     1  0  0  0  0  0999 V2000
   10.3820    2.1767    0.0000 O   0  0  0  0  0  0  0  0  0  0  0  0
    3.7320   -2.1309    0.0000 O   0  0  0  0  0  0  0  0  0  0  0  0
    8.2591   -0.5785    0.0000 C   0  0  3  0  0  0  0  0  0  0  0  0
    9.1251   -0.0785    0.0000 C   0  0  3  0  0  0  0  0  0  0  0  0
    7.3931   -0.0785    0.0000 C   0  0  3  0  0  0  0  0  0  0  0  0
    9.1251    0.9215    0.0000 C   0  0  3  0  0  0  0  0  0  0  0  0
    6.4831   -0.5854    0.0000 C   0  0  3  0  0  0  0  0  0  0  0  0
    7.3931    0.9215    0.0000 C   0  0  0  0  0  0  0  0  0  0  0  0
    8.2591    1.4215    0.0000 C   0  0  0  0  0  0  0  0  0  0  0  0
   10.0713   -0.3833    0.0000 C   0  0  0  0  0  0  0  0  0  0  0  0
    8.2752   -1.6200    0.0000 C   0  0  0  0  0  0  0  0  0  0  0  0
   10.0713    1.2262    0.0000 C   0  0  0  0  0  0  0  0  0  0  0  0
   10.6550    0.4215    0.0000 C   0  0  0  0  0  0  0  0  0  0  0  0
    6.4750   -1.6270    0.0000 C   0  0  0  0  0  0  0  0  0  0  0  0
    5.5562   -0.0213    0.0000 C   0  0  0  0  0  0  0  0  0  0  0  0
    9.1251    1.9215    0.0000 C   0  0  0  0  0  0  0  0  0  0  0  0
    7.3771   -2.1478    0.0000 C   0  0  0  0  0  0  0  0  0  0  0  0
    6.4908    0.4146    0.0000 C   0  0  0  0  0  0  0  0  0  0  0  0
    4.6084   -0.5493    0.0000 C   0  0  0  0  0  0  0  0  0  0  0  0
    5.5396   -2.1767    0.0000 C   0  0  0  0  0  0  0  0  0  0  0  0
    4.6000   -1.6342    0.0000 C   0  0  0  0  0  0  0  0  0  0  0  0
    2.8680   -1.6275    0.0000 C   0  0  0  0  0  0  0  0  0  0  0  0
    2.0000   -2.1242    0.0000 C   0  0  0  0  0  0  0  0  0  0  0  0
    8.7984   -0.8844    0.0000 H   0  0  0  0  0  0  0  0  0  0  0  0
    9.1907   -0.6951    0.0000 H   0  0  0  0  0  0  0  0  0  0  0  0
    7.9300    0.2315    0.0000 H   0  0  0  0  0  0  0  0  0  0  0  0
    7.1810    1.5041    0.0000 H   0  0  0  0  0  0  0  0  0  0  0  0
    6.7825    0.8138    0.0000 H   0  0  0  0  0  0  0  0  0  0  0  0
    8.6576    1.8964    0.0000 H   0  0  0  0  0  0  0  0  0  0  0  0
    7.8606    1.8964    0.0000 H   0  0  0  0  0  0  0  0  0  0  0  0
    9.8203   -0.9502    0.0000 H   0  0  0  0  0  0  0  0  0  0  0  0
   10.6087   -0.6925    0.0000 H   0  0  0  0  0  0  0  0  0  0  0  0
    8.4932   -2.2004    0.0000 H   0  0  0  0  0  0  0  0  0  0  0  0
    8.8843   -1.5046    0.0000 H   0  0  0  0  0  0  0  0  0  0  0  0
   11.1158    0.0067    0.0000 H   0  0  0  0  0  0  0  0  0  0  0  0
   11.1158    0.8362    0.0000 H   0  0  0  0  0  0  0  0  0  0  0  0
    5.9644    0.4454    0.0000 H   0  0  0  0  0  0  0  0  0  0  0  0
    5.1663    0.4607    0.0000 H   0  0  0  0  0  0  0  0  0  0  0  0
    9.7451    1.9215    0.0000 H   0  0  0  0  0  0  0  0  0  0  0  0
    9.1251    2.5415    0.0000 H   0  0  0  0  0  0  0  0  0  0  0  0
    8.5051    1.9215    0.0000 H   0  0  0  0  0  0  0  0  0  0  0  0
    7.3795   -2.7678    0.0000 H   0  0  0  0  0  0  0  0  0  0  0  0
    7.1108    0.4098    0.0000 H   0  0  0  0  0  0  0  0  0  0  0  0
    6.4956    1.0346    0.0000 H   0  0  0  0  0  0  0  0  0  0  0  0
    5.8708    0.4194    0.0000 H   0  0  0  0  0  0  0  0  0  0  0  0
    4.4038    0.0360    0.0000 H   0  0  0  0  0  0  0  0  0  0  0  0
    3.9967   -0.6506    0.0000 H   0  0  0  0  0  0  0  0  0  0  0  0
    5.5420   -2.7967    0.0000 H   0  0  0  0  0  0  0  0  0  0  0  0
    3.2683   -1.1541    0.0000 H   0  0  0  0  0  0  0  0  0  0  0  0
    2.4712   -1.1511    0.0000 H   0  0  0  0  0  0  0  0  0  0  0  0
    1.6921   -1.5861    0.0000 H   0  0  0  0  0  0  0  0  0  0  0  0
    1.4619   -2.4321    0.0000 H   0  0  0  0  0  0  0  0  0  0  0  0
    2.3079   -2.6623    0.0000 H   0  0  0  0  0  0  0  0  0  0  0  0
  1 12  2  0  0  0  0
  2 21  1  0  0  0  0
  2 22  1  0  0  0  0
  3  4  1  0  0  0  0
  3  5  1  0  0  0  0
  3 11  1  0  0  0  0
  3 24  1  0  0  0  0
  4  6  1  0  0  0  0
  4 10  1  0  0  0  0
  4 25  1  0  0  0  0
  5  7  1  0  0  0  0
  5  8  1  0  0  0  0
  5 26  1  0  0  0  0
  6  9  1  0  0  0  0
  6 12  1  0  0  0  0
  6 16  1  0  0  0  0
  7 14  1  0  0  0  0
  7 15  1  0  0  0  0
  7 18  1  0  0  0  0
  8  9  1  0  0  0  0
  8 27  1  0  0  0  0
  8 28  1  0  0  0  0
  9 29  1  0  0  0  0
  9 30  1  0  0  0  0
 10 13  1  0  0  0  0
 10 31  1  0  0  0  0
 10 32  1  0  0  0  0
 11 17  1  0  0  0  0
 11 33  1  0  0  0  0
 11 34  1  0  0  0  0
 12 13  1  0  0  0  0
 13 35  1  0  0  0  0
 13 36  1  0  0  0  0
 14 17  2  0  0  0  0
 14 20  1  0  0  0  0
 15 19  1  0  0  0  0
 15 37  1  0  0  0  0
 15 38  1  0  0  0  0
 16 39  1  0  0  0  0
 16 40  1  0  0  0  0
 16 41  1  0  0  0  0
 17 42  1  0  0  0  0
 18 43  1  0  0  0  0
 18 44  1  0  0  0  0
 18 45  1  0  0  0  0
 19 21  1  0  0  0  0
 19 46  1  0  0  0  0
 19 47  1  0  0  0  0
 20 21  2  0  0  0  0
 20 48  1  0  0  0  0
 22 23  1  0  0  0  0
 22 49  1  0  0  0  0
 22 50  1  0  0  0  0
 23 51  1  0  0  0  0
 23 52  1  0  0  0  0
 23 53  1  0  0  0  0
M  END
> <PUBCHEM_COMPOUND_CID>
523196
> <PUBCHEM_COMPOUND_CANONICALIZED>
1
> <PUBCHEM_CACTVS_COMPLEXITY>
587
> <PUBCHEM_CACTVS_HBOND_ACCEPTOR>
2
> <PUBCHEM_CACTVS_HBOND_DONOR>
0
> <PUBCHEM_CACTVS_ROTATABLE_BOND>
2
> <PUBCHEM_CACTVS_SUBSKEYS>
AAADceB4MAAAAAAAAAAAAAAAAAAAAYAAAAAwQIAAAAAAAGCAAAAAGgAAAAAADwSggAICAAAABACIAqBSAAAACAAgIAAACAEAAAgIABIAAQACAAAEgAAIgAOIyPCPgAAAAAAAAACAAAQAACAAAAAACAAAAA==
> <PUBCHEM_IUPAC_OPENEYE_NAME>
3-ethoxy-10,13-dimethyl-1,2,7,8,9,11,12,14,15,16-decahydrocyclopenta[a]phenanthren-17-one
> <PUBCHEM_IUPAC_CAS_NAME>
3-ethoxy-10,13-dimethyl-1,2,7,8,9,11,12,14,15,16-decahydrocyclopenta[a]phenanthren-17-one
> <PUBCHEM_IUPAC_NAME_MARKUP>
3-ethoxy-10,13-dimethyl-1,2,7,8,9,11,12,14,15,16-decahydrocyclopenta[a]phenanthren-17-one
> <PUBCHEM_IUPAC_NAME>
3-ethoxy-10,13-dimethyl-1,2,7,8,9,11,12,14,15,16-decahydrocyclopenta[a]phenanthren-17-one
> <PUBCHEM_IUPAC_SYSTEMATIC_NAME>
3-ethoxy-10,13-dimethyl-1,2,7,8,9,11,12,14,15,16-decahydrocyclopenta[a]phenanthren-17-one
> <PUBCHEM_IUPAC_TRADITIONAL_NAME>
3-ethoxy-10,13-dimethyl-1,2,7,8,9,11,12,14,15,16-decahydrocyclopenta[a]phenanthren-17-one
> <PUBCHEM_IUPAC_INCHI>
InChI=1S/C21H30O2/c1-4-23-15-9-11-20(2)14(13-15)5-6-16-17-7-8-19(22)21(17,3)12-10-18(16)20/h5,13,16-18H,4,6-12H2,1-3H3
> <PUBCHEM_IUPAC_INCHIKEY>
PAOWPNQOTVTCAF-UHFFFAOYSA-N
> <PUBCHEM_XLOGP3>
4.3
> <PUBCHEM_EXACT_MASS>
314.224580195
> <PUBCHEM_MOLECULAR_FORMULA>
C21H30O2
> <PUBCHEM_MOLECULAR_WEIGHT>
314.5
> <PUBCHEM_OPENEYE_CAN_SMILES>
CCOC1=CC2=CCC3C4CCC(=O)C4(CCC3C2(CC1)C)C
> <PUBCHEM_OPENEYE_ISO_SMILES>
CCOC1=CC2=CCC3C4CCC(=O)C4(CCC3C2(CC1)C)C
> <PUBCHEM_CACTVS_TPSA>
26.3
> <PUBCHEM_MONOISOTOPIC_WEIGHT>
314.224580195
> <PUBCHEM_TOTAL_CHARGE>
0
> <PUBCHEM_HEAVY_ATOM_COUNT>
23
> <PUBCHEM_ATOM_DEF_STEREO_COUNT>
0
> <PUBCHEM_ATOM_UDEF_STEREO_COUNT>
5
> <PUBCHEM_BOND_DEF_STEREO_COUNT>
0
> <PUBCHEM_BOND_UDEF_STEREO_COUNT>
0
> <PUBCHEM_ISOTOPIC_ATOM_COUNT>
0
> <PUBCHEM_COMPONENT_COUNT>
1
> <PUBCHEM_CACTVS_TAUTO_COUNT>
-1
> <PUBCHEM_COORDINATE_TYPE>
1
5
255
> <PUBCHEM_BONDANNOTATIONS>
3  11  3
4  10  3
5  8  3
6  16  3
7  18  3
$$$$
