523170
  -OEChem-10302200292D
 31 32  0     1  0  0  0  0  0999 V2000
    4.7208    1.1816    0.0000 S   0  0  0  0  0  0  0  0  0  0  0  0
    3.9118    2.7694    0.0000 S   0  0  0  0  0  0  0  0  0  0  0  0
    2.4608   -0.0784    0.0000 O   0  0  0  0  0  0  0  0  0  0  0  0
    3.1028    1.1816    0.0000 N   0  0  0  0  0  0  0  0  0  0  0  0
    4.4118    0.2306    0.0000 C   0  0  0  0  0  0  0  0  0  0  0  0
    3.4118    0.2306    0.0000 C   0  0  3  0  0  0  0  0  0  0  0  0
    3.4118   -0.7694    0.0000 C   0  0  0  0  0  0  0  0  0  0  0  0
    5.3629   -0.0784    0.0000 C   0  0  0  0  0  0  0  0  0  0  0  0
    4.9119   -0.6354    0.0000 C   0  0  0  0  0  0  0  0  0  0  0  0
    3.9118    1.7694    0.0000 C   0  0  0  0  0  0  0  0  0  0  0  0
    2.1517    1.4906    0.0000 C   0  0  0  0  0  0  0  0  0  0  0  0
    4.2778   -1.2694    0.0000 C   0  0  0  0  0  0  0  0  0  0  0  0
    2.5458   -1.2694    0.0000 C   0  0  0  0  0  0  0  0  0  0  0  0
    4.2778   -2.2694    0.0000 C   0  0  0  0  0  0  0  0  0  0  0  0
    2.5458   -2.2694    0.0000 C   0  0  0  0  0  0  0  0  0  0  0  0
    3.4118   -2.7694    0.0000 C   0  0  0  0  0  0  0  0  0  0  0  0
    5.1713   -0.6681    0.0000 H   0  0  0  0  0  0  0  0  0  0  0  0
    5.9525   -0.2700    0.0000 H   0  0  0  0  0  0  0  0  0  0  0  0
    5.5544    0.5112    0.0000 H   0  0  0  0  0  0  0  0  0  0  0  0
    4.3750   -0.9454    0.0000 H   0  0  0  0  0  0  0  0  0  0  0  0
    5.2220   -1.1723    0.0000 H   0  0  0  0  0  0  0  0  0  0  0  0
    5.4488   -0.3253    0.0000 H   0  0  0  0  0  0  0  0  0  0  0  0
    2.3433    2.0803    0.0000 H   0  0  0  0  0  0  0  0  0  0  0  0
    1.5621    1.6822    0.0000 H   0  0  0  0  0  0  0  0  0  0  0  0
    1.9601    0.9010    0.0000 H   0  0  0  0  0  0  0  0  0  0  0  0
    2.0000    0.3364    0.0000 H   0  0  0  0  0  0  0  0  0  0  0  0
    4.8148   -0.9594    0.0000 H   0  0  0  0  0  0  0  0  0  0  0  0
    2.0088   -0.9594    0.0000 H   0  0  0  0  0  0  0  0  0  0  0  0
    4.8148   -2.5794    0.0000 H   0  0  0  0  0  0  0  0  0  0  0  0
    2.0088   -2.5794    0.0000 H   0  0  0  0  0  0  0  0  0  0  0  0
    3.4118   -3.3894    0.0000 H   0  0  0  0  0  0  0  0  0  0  0  0
  1  5  1  0  0  0  0
  1 10  1  0  0  0  0
  2 10  2  0  0  0  0
  3  6  1  0  0  0  0
  3 26  1  0  0  0  0
  4  6  1  0  0  0  0
  4 10  1  0  0  0  0
  4 11  1  0  0  0  0
  5  6  1  0  0  0  0
  5  8  1  0  0  0  0
  5  9  1  0  0  0  0
  6  7  1  0  0  0  0
  7 12  2  0  0  0  0
  7 13  1  0  0  0  0
  8 17  1  0  0  0  0
  8 18  1  0  0  0  0
  8 19  1  0  0  0  0
  9 20  1  0  0  0  0
  9 21  1  0  0  0  0
  9 22  1  0  0  0  0
 11 23  1  0  0  0  0
 11 24  1  0  0  0  0
 11 25  1  0  0  0  0
 12 14  1  0  0  0  0
 12 27  1  0  0  0  0
 13 15  2  0  0  0  0
 13 28  1  0  0  0  0
 14 16  2  0  0  0  0
 14 29  1  0  0  0  0
 15 16  1  0  0  0  0
 15 30  1  0  0  0  0
 16 31  1  0  0  0  0
M  END
> <PUBCHEM_COMPOUND_CID>
523170
> <PUBCHEM_COMPOUND_CANONICALIZED>
1
> <PUBCHEM_CACTVS_COMPLEXITY>
299
> <PUBCHEM_CACTVS_HBOND_ACCEPTOR>
3
> <PUBCHEM_CACTVS_HBOND_DONOR>
1
> <PUBCHEM_CACTVS_ROTATABLE_BOND>
1
> <PUBCHEM_CACTVS_SUBSKEYS>
AAADccByIABgAAAAAAAAAAAAAAAAAWAAAAAwAAAAAAAAAAABAAAAHgQACAAADAyB2AQyAIMAAgiEAiBCAACCAABgABgIiAAIDIgIJiKgkRGEcAhkwAEImAeQwOAOAAAAAAAAAAAAAAAAAAAAAAAAAAAAAA==
> <PUBCHEM_IUPAC_OPENEYE_NAME>
4-hydroxy-3,5,5-trimethyl-4-phenyl-thiazolidine-2-thione
> <PUBCHEM_IUPAC_CAS_NAME>
4-hydroxy-3,5,5-trimethyl-4-phenyl-2-thiazolidinethione
> <PUBCHEM_IUPAC_NAME_MARKUP>
4-hydroxy-3,5,5-trimethyl-4-phenyl-1,3-thiazolidine-2-thione
> <PUBCHEM_IUPAC_NAME>
4-hydroxy-3,5,5-trimethyl-4-phenyl-1,3-thiazolidine-2-thione
> <PUBCHEM_IUPAC_SYSTEMATIC_NAME>
3,5,5-trimethyl-4-oxidanyl-4-phenyl-1,3-thiazolidine-2-thione
> <PUBCHEM_IUPAC_TRADITIONAL_NAME>
4-hydroxy-3,5,5-trimethyl-4-phenyl-thiazolidine-2-thione
> <PUBCHEM_IUPAC_INCHI>
InChI=1S/C12H15NOS2/c1-11(2)12(14,13(3)10(15)16-11)9-7-5-4-6-8-9/h4-8,14H,1-3H3
> <PUBCHEM_IUPAC_INCHIKEY>
SDCNDOSDKGZCOM-UHFFFAOYSA-N
> <PUBCHEM_XLOGP3_AA>
2.4
> <PUBCHEM_EXACT_MASS>
253.05950645
> <PUBCHEM_MOLECULAR_FORMULA>
C12H15NOS2
> <PUBCHEM_MOLECULAR_WEIGHT>
253.4
> <PUBCHEM_OPENEYE_CAN_SMILES>
CC1(C(N(C(=S)S1)C)(C2=CC=CC=C2)O)C
> <PUBCHEM_OPENEYE_ISO_SMILES>
CC1(C(N(C(=S)S1)C)(C2=CC=CC=C2)O)C
> <PUBCHEM_CACTVS_TPSA>
80.9
> <PUBCHEM_MONOISOTOPIC_WEIGHT>
253.05950645
> <PUBCHEM_TOTAL_CHARGE>
0
> <PUBCHEM_HEAVY_ATOM_COUNT>
16
> <PUBCHEM_ATOM_DEF_STEREO_COUNT>
0
> <PUBCHEM_ATOM_UDEF_STEREO_COUNT>
1
> <PUBCHEM_BOND_DEF_STEREO_COUNT>
0
> <PUBCHEM_BOND_UDEF_STEREO_COUNT>
0
> <PUBCHEM_ISOTOPIC_ATOM_COUNT>
0
> <PUBCHEM_COMPONENT_COUNT>
1
> <PUBCHEM_CACTVS_TAUTO_COUNT>
-1
> <PUBCHEM_COORDINATE_TYPE>
1
5
255
> <PUBCHEM_BONDANNOTATIONS>
12  14  8
13  15  8
14  16  8
15  16  8
6  3  3
7  12  8
7  13  8
$$$$
