523186
  -OEChem-10302200292D
 43 43  0     1  0  0  0  0  0999 V2000
    2.5369    0.7500    0.0000 O   0  0  0  0  0  0  0  0  0  0  0  0
    4.2690    1.7500    0.0000 C   0  0  3  0  0  0  0  0  0  0  0  0
    6.0010   -1.2500    0.0000 C   0  0  3  0  0  0  0  0  0  0  0  0
    4.2690    0.7500    0.0000 C   0  0  0  0  0  0  0  0  0  0  0  0
    5.1350   -0.7500    0.0000 C   0  0  0  0  0  0  0  0  0  0  0  0
    5.1350    2.2500    0.0000 C   0  0  0  0  0  0  0  0  0  0  0  0
    6.0010   -2.2500    0.0000 C   0  0  0  0  0  0  0  0  0  0  0  0
    5.1350    0.2500    0.0000 C   0  0  0  0  0  0  0  0  0  0  0  0
    3.4030    2.2500    0.0000 C   0  0  0  0  0  0  0  0  0  0  0  0
    5.1350    3.2500    0.0000 C   0  0  0  0  0  0  0  0  0  0  0  0
    6.8671   -0.7500    0.0000 C   0  0  0  0  0  0  0  0  0  0  0  0
    6.8671   -2.7500    0.0000 C   0  0  0  0  0  0  0  0  0  0  0  0
    3.4030    0.2500    0.0000 C   0  0  0  0  0  0  0  0  0  0  0  0
    4.2690   -1.2500    0.0000 C   0  0  0  0  0  0  0  0  0  0  0  0
    3.4030   -0.7500    0.0000 C   0  0  0  0  0  0  0  0  0  0  0  0
    6.0010    3.7500    0.0000 C   0  0  0  0  0  0  0  0  0  0  0  0
    6.8671   -3.7500    0.0000 C   0  0  0  0  0  0  0  0  0  0  0  0
    4.2690    2.3700    0.0000 H   0  0  0  0  0  0  0  0  0  0  0  0
    6.5380   -1.5600    0.0000 H   0  0  0  0  0  0  0  0  0  0  0  0
    5.3471    1.6674    0.0000 H   0  0  0  0  0  0  0  0  0  0  0  0
    5.7456    2.3577    0.0000 H   0  0  0  0  0  0  0  0  0  0  0  0
    5.3905   -2.1423    0.0000 H   0  0  0  0  0  0  0  0  0  0  0  0
    5.7890   -2.8326    0.0000 H   0  0  0  0  0  0  0  0  0  0  0  0
    5.6720    0.5600    0.0000 H   0  0  0  0  0  0  0  0  0  0  0  0
    3.7130    2.7869    0.0000 H   0  0  0  0  0  0  0  0  0  0  0  0
    2.8660    2.5600    0.0000 H   0  0  0  0  0  0  0  0  0  0  0  0
    3.0930    1.7131    0.0000 H   0  0  0  0  0  0  0  0  0  0  0  0
    4.9230    3.8326    0.0000 H   0  0  0  0  0  0  0  0  0  0  0  0
    4.5244    3.1423    0.0000 H   0  0  0  0  0  0  0  0  0  0  0  0
    7.1771   -1.2869    0.0000 H   0  0  0  0  0  0  0  0  0  0  0  0
    7.4040   -0.4400    0.0000 H   0  0  0  0  0  0  0  0  0  0  0  0
    6.5571   -0.2131    0.0000 H   0  0  0  0  0  0  0  0  0  0  0  0
    7.4776   -2.8577    0.0000 H   0  0  0  0  0  0  0  0  0  0  0  0
    7.0791   -2.1674    0.0000 H   0  0  0  0  0  0  0  0  0  0  0  0
    4.2690   -1.8700    0.0000 H   0  0  0  0  0  0  0  0  0  0  0  0
    2.8660   -1.0600    0.0000 H   0  0  0  0  0  0  0  0  0  0  0  0
    6.3110    3.2131    0.0000 H   0  0  0  0  0  0  0  0  0  0  0  0
    6.5380    4.0600    0.0000 H   0  0  0  0  0  0  0  0  0  0  0  0
    5.6910    4.2869    0.0000 H   0  0  0  0  0  0  0  0  0  0  0  0
    6.2471   -3.7500    0.0000 H   0  0  0  0  0  0  0  0  0  0  0  0
    6.8671   -4.3700    0.0000 H   0  0  0  0  0  0  0  0  0  0  0  0
    7.4871   -3.7500    0.0000 H   0  0  0  0  0  0  0  0  0  0  0  0
    2.0000    0.4400    0.0000 H   0  0  0  0  0  0  0  0  0  0  0  0
  1 13  1  0  0  0  0
  1 43  1  0  0  0  0
  2  4  1  0  0  0  0
  2  6  1  0  0  0  0
  2  9  1  0  0  0  0
  2 18  1  0  0  0  0
  3  5  1  0  0  0  0
  3  7  1  0  0  0  0
  3 11  1  0  0  0  0
  3 19  1  0  0  0  0
  4  8  1  0  0  0  0
  4 13  2  0  0  0  0
  5  8  2  0  0  0  0
  5 14  1  0  0  0  0
  6 10  1  0  0  0  0
  6 20  1  0  0  0  0
  6 21  1  0  0  0  0
  7 12  1  0  0  0  0
  7 22  1  0  0  0  0
  7 23  1  0  0  0  0
  8 24  1  0  0  0  0
  9 25  1  0  0  0  0
  9 26  1  0  0  0  0
  9 27  1  0  0  0  0
 10 16  1  0  0  0  0
 10 28  1  0  0  0  0
 10 29  1  0  0  0  0
 11 30  1  0  0  0  0
 11 31  1  0  0  0  0
 11 32  1  0  0  0  0
 12 17  1  0  0  0  0
 12 33  1  0  0  0  0
 12 34  1  0  0  0  0
 13 15  1  0  0  0  0
 14 15  2  0  0  0  0
 14 35  1  0  0  0  0
 15 36  1  0  0  0  0
 16 37  1  0  0  0  0
 16 38  1  0  0  0  0
 16 39  1  0  0  0  0
 17 40  1  0  0  0  0
 17 41  1  0  0  0  0
 17 42  1  0  0  0  0
M  END
> <PUBCHEM_COMPOUND_CID>
523186
> <PUBCHEM_COMPOUND_CANONICALIZED>
1
> <PUBCHEM_CACTVS_COMPLEXITY>
202
> <PUBCHEM_CACTVS_HBOND_ACCEPTOR>
1
> <PUBCHEM_CACTVS_HBOND_DONOR>
1
> <PUBCHEM_CACTVS_ROTATABLE_BOND>
6
> <PUBCHEM_CACTVS_SUBSKEYS>
AAADceB4IAAAAAAAAAAAAAAAAAAAAAAAAAAwAAAAAAAAAAABAAAAGgAACAAADQSAmAAyBoAAAgCAAiBCAAACAAAgIAAIiAAGCIgIJiKCERKAcAAkwBEImAeAwPAOoAACAAAIAABAAAQAABAAAAAAAAAAAA==
> <PUBCHEM_IUPAC_OPENEYE_NAME>
2,4-bis(1-methylbutyl)phenol
> <PUBCHEM_IUPAC_CAS_NAME>
2,4-di(pentan-2-yl)phenol
> <PUBCHEM_IUPAC_NAME_MARKUP>
2,4-di(pentan-2-yl)phenol
> <PUBCHEM_IUPAC_NAME>
2,4-di(pentan-2-yl)phenol
> <PUBCHEM_IUPAC_SYSTEMATIC_NAME>
2,4-di(pentan-2-yl)phenol
> <PUBCHEM_IUPAC_TRADITIONAL_NAME>
2,4-bis(1-methylbutyl)phenol
> <PUBCHEM_IUPAC_INCHI>
InChI=1S/C16H26O/c1-5-7-12(3)14-9-10-16(17)15(11-14)13(4)8-6-2/h9-13,17H,5-8H2,1-4H3
> <PUBCHEM_IUPAC_INCHIKEY>
QEVQVYGCTVKSER-UHFFFAOYSA-N
> <PUBCHEM_XLOGP3_AA>
6
> <PUBCHEM_EXACT_MASS>
234.198365449
> <PUBCHEM_MOLECULAR_FORMULA>
C16H26O
> <PUBCHEM_MOLECULAR_WEIGHT>
234.38
> <PUBCHEM_OPENEYE_CAN_SMILES>
CCCC(C)C1=CC(=C(C=C1)O)C(C)CCC
> <PUBCHEM_OPENEYE_ISO_SMILES>
CCCC(C)C1=CC(=C(C=C1)O)C(C)CCC
> <PUBCHEM_CACTVS_TPSA>
20.2
> <PUBCHEM_MONOISOTOPIC_WEIGHT>
234.198365449
> <PUBCHEM_TOTAL_CHARGE>
0
> <PUBCHEM_HEAVY_ATOM_COUNT>
17
> <PUBCHEM_ATOM_DEF_STEREO_COUNT>
0
> <PUBCHEM_ATOM_UDEF_STEREO_COUNT>
2
> <PUBCHEM_BOND_DEF_STEREO_COUNT>
0
> <PUBCHEM_BOND_UDEF_STEREO_COUNT>
0
> <PUBCHEM_ISOTOPIC_ATOM_COUNT>
0
> <PUBCHEM_COMPONENT_COUNT>
1
> <PUBCHEM_CACTVS_TAUTO_COUNT>
3
> <PUBCHEM_COORDINATE_TYPE>
1
5
255
> <PUBCHEM_BONDANNOTATIONS>
13  15  8
14  15  8
2  9  3
3  11  3
4  13  8
4  8  8
5  14  8
5  8  8
$$$$
