523147
  -OEChem-10302200292D
 46 49  0     1  0  0  0  0  0999 V2000
    6.1628   -3.2957    0.0000 O   0  0  0  0  0  0  0  0  0  0  0  0
    4.5703    0.4266    0.0000 O   0  0  0  0  0  0  0  0  0  0  0  0
    7.7464   -2.4909    0.0000 O   0  0  0  0  0  0  0  0  0  0  0  0
    6.1628   -1.6862    0.0000 C   0  0  3  0  0  0  0  0  0  0  0  0
    5.8555   -0.7346    0.0000 C   0  0  0  0  0  0  0  0  0  0  0  0
    5.2166   -1.9909    0.0000 C   0  0  0  0  0  0  0  0  0  0  0  0
    6.9729   -1.0998    0.0000 C   0  0  0  0  0  0  0  0  0  0  0  0
    6.7464   -2.4909    0.0000 C   0  0  0  0  0  0  0  0  0  0  0  0
    5.2166   -2.9909    0.0000 C   0  0  0  0  0  0  0  0  0  0  0  0
    4.8777   -0.5250    0.0000 C   0  0  0  0  0  0  0  0  0  0  0  0
    4.3506   -1.4909    0.0000 C   0  0  0  0  0  0  0  0  0  0  0  0
    6.8701   -0.1051    0.0000 C   0  0  0  0  0  0  0  0  0  0  0  0
    7.8857   -1.5081    0.0000 C   0  0  0  0  0  0  0  0  0  0  0  0
    4.3506   -3.4909    0.0000 C   0  0  0  0  0  0  0  0  0  0  0  0
    3.4846   -1.9909    0.0000 C   0  0  0  0  0  0  0  0  0  0  0  0
    3.4846   -2.9909    0.0000 C   0  0  0  0  0  0  0  0  0  0  0  0
    7.6801    0.4813    0.0000 C   0  0  0  0  0  0  0  0  0  0  0  0
    8.6958   -0.9218    0.0000 C   0  0  0  0  0  0  0  0  0  0  0  0
    3.5925    0.6362    0.0000 C   0  0  0  0  0  0  0  0  0  0  0  0
    8.5929    0.0729    0.0000 C   0  0  0  0  0  0  0  0  0  0  0  0
    3.2852    1.5878    0.0000 C   0  0  0  0  0  0  0  0  0  0  0  0
    2.3074    1.7974    0.0000 C   0  0  0  0  0  0  0  0  0  0  0  0
    3.9556    2.3298    0.0000 C   0  0  0  0  0  0  0  0  0  0  0  0
    2.0000    2.7490    0.0000 C   0  0  0  0  0  0  0  0  0  0  0  0
    3.6482    3.2813    0.0000 C   0  0  0  0  0  0  0  0  0  0  0  0
    2.6704    3.4909    0.0000 C   0  0  0  0  0  0  0  0  0  0  0  0
    6.4696   -0.6494    0.0000 H   0  0  0  0  0  0  0  0  0  0  0  0
    5.8782   -0.1150    0.0000 H   0  0  0  0  0  0  0  0  0  0  0  0
    4.2636   -0.6102    0.0000 H   0  0  0  0  0  0  0  0  0  0  0  0
    4.8550   -1.1446    0.0000 H   0  0  0  0  0  0  0  0  0  0  0  0
    4.3506   -0.8709    0.0000 H   0  0  0  0  0  0  0  0  0  0  0  0
    6.3041    0.1480    0.0000 H   0  0  0  0  0  0  0  0  0  0  0  0
    7.9495   -2.1249    0.0000 H   0  0  0  0  0  0  0  0  0  0  0  0
    4.3506   -4.1109    0.0000 H   0  0  0  0  0  0  0  0  0  0  0  0
    2.9476   -1.6809    0.0000 H   0  0  0  0  0  0  0  0  0  0  0  0
    2.9476   -3.3009    0.0000 H   0  0  0  0  0  0  0  0  0  0  0  0
    7.6164    1.0980    0.0000 H   0  0  0  0  0  0  0  0  0  0  0  0
    9.2617   -1.1749    0.0000 H   0  0  0  0  0  0  0  0  0  0  0  0
    2.9784    0.5510    0.0000 H   0  0  0  0  0  0  0  0  0  0  0  0
    3.5698    0.0166    0.0000 H   0  0  0  0  0  0  0  0  0  0  0  0
    9.0952    0.4365    0.0000 H   0  0  0  0  0  0  0  0  0  0  0  0
    1.8917    1.3373    0.0000 H   0  0  0  0  0  0  0  0  0  0  0  0
    4.5618    2.1998    0.0000 H   0  0  0  0  0  0  0  0  0  0  0  0
    1.3938    2.8789    0.0000 H   0  0  0  0  0  0  0  0  0  0  0  0
    4.0639    3.7414    0.0000 H   0  0  0  0  0  0  0  0  0  0  0  0
    2.4798    4.0809    0.0000 H   0  0  0  0  0  0  0  0  0  0  0  0
  1  8  1  0  0  0  0
  1  9  1  0  0  0  0
  2 10  1  0  0  0  0
  2 19  1  0  0  0  0
  3  8  2  0  0  0  0
  4  5  1  0  0  0  0
  4  6  1  0  0  0  0
  4  7  1  0  0  0  0
  4  8  1  0  0  0  0
  5 10  1  0  0  0  0
  5 27  1  0  0  0  0
  5 28  1  0  0  0  0
  6  9  1  0  0  0  0
  6 11  2  0  0  0  0
  7 12  2  0  0  0  0
  7 13  1  0  0  0  0
  9 14  2  0  0  0  0
 10 29  1  0  0  0  0
 10 30  1  0  0  0  0
 11 15  1  0  0  0  0
 11 31  1  0  0  0  0
 12 17  1  0  0  0  0
 12 32  1  0  0  0  0
 13 18  2  0  0  0  0
 13 33  1  0  0  0  0
 14 16  1  0  0  0  0
 14 34  1  0  0  0  0
 15 16  2  0  0  0  0
 15 35  1  0  0  0  0
 16 36  1  0  0  0  0
 17 20  2  0  0  0  0
 17 37  1  0  0  0  0
 18 20  1  0  0  0  0
 18 38  1  0  0  0  0
 19 21  1  0  0  0  0
 19 39  1  0  0  0  0
 19 40  1  0  0  0  0
 20 41  1  0  0  0  0
 21 22  2  0  0  0  0
 21 23  1  0  0  0  0
 22 24  1  0  0  0  0
 22 42  1  0  0  0  0
 23 25  2  0  0  0  0
 23 43  1  0  0  0  0
 24 26  2  0  0  0  0
 24 44  1  0  0  0  0
 25 26  1  0  0  0  0
 25 45  1  0  0  0  0
 26 46  1  0  0  0  0
M  END
> <PUBCHEM_COMPOUND_CID>
523147
> <PUBCHEM_COMPOUND_CANONICALIZED>
1
> <PUBCHEM_CACTVS_COMPLEXITY>
464
> <PUBCHEM_CACTVS_HBOND_ACCEPTOR>
3
> <PUBCHEM_CACTVS_HBOND_DONOR>
0
> <PUBCHEM_CACTVS_ROTATABLE_BOND>
6
> <PUBCHEM_CACTVS_SUBSKEYS>
AAADceB4MAAAAAAAAAAAAAAAAAAAASAAAAAwYMAAAAAAAEgBUAAAGgAAAAAADgSgmAIwDoAABACIAiDSCAACCAAgIAAIiAEGCIgMJjKENRqCOiCkwBEIqAfK6OyPgAAAAAAIAAAAAAAAABAAAAAAAAAAAA==
> <PUBCHEM_IUPAC_OPENEYE_NAME>
3-(2-benzyloxyethyl)-3-phenyl-benzofuran-2-one
> <PUBCHEM_IUPAC_CAS_NAME>
3-phenyl-3-(2-phenylmethoxyethyl)-2-benzofuranone
> <PUBCHEM_IUPAC_NAME_MARKUP>
3-phenyl-3-(2-phenylmethoxyethyl)-1-benzofuran-2-one
> <PUBCHEM_IUPAC_NAME>
3-phenyl-3-(2-phenylmethoxyethyl)-1-benzofuran-2-one
> <PUBCHEM_IUPAC_SYSTEMATIC_NAME>
3-phenyl-3-(2-phenylmethoxyethyl)-1-benzofuran-2-one
> <PUBCHEM_IUPAC_TRADITIONAL_NAME>
3-(2-benzoxyethyl)-3-phenyl-coumaran-2-one
> <PUBCHEM_IUPAC_INCHI>
InChI=1S/C23H20O3/c24-22-23(19-11-5-2-6-12-19,20-13-7-8-14-21(20)26-22)15-16-25-17-18-9-3-1-4-10-18/h1-14H,15-17H2
> <PUBCHEM_IUPAC_INCHIKEY>
HKFUMYMRIDLVFH-UHFFFAOYSA-N
> <PUBCHEM_XLOGP3_AA>
4.6
> <PUBCHEM_EXACT_MASS>
344.14124450
> <PUBCHEM_MOLECULAR_FORMULA>
C23H20O3
> <PUBCHEM_MOLECULAR_WEIGHT>
344.4
> <PUBCHEM_OPENEYE_CAN_SMILES>
C1=CC=C(C=C1)COCCC2(C3=CC=CC=C3OC2=O)C4=CC=CC=C4
> <PUBCHEM_OPENEYE_ISO_SMILES>
C1=CC=C(C=C1)COCCC2(C3=CC=CC=C3OC2=O)C4=CC=CC=C4
> <PUBCHEM_CACTVS_TPSA>
35.5
> <PUBCHEM_MONOISOTOPIC_WEIGHT>
344.14124450
> <PUBCHEM_TOTAL_CHARGE>
0
> <PUBCHEM_HEAVY_ATOM_COUNT>
26
> <PUBCHEM_ATOM_DEF_STEREO_COUNT>
0
> <PUBCHEM_ATOM_UDEF_STEREO_COUNT>
1
> <PUBCHEM_BOND_DEF_STEREO_COUNT>
0
> <PUBCHEM_BOND_UDEF_STEREO_COUNT>
0
> <PUBCHEM_ISOTOPIC_ATOM_COUNT>
0
> <PUBCHEM_COMPONENT_COUNT>
1
> <PUBCHEM_CACTVS_TAUTO_COUNT>
-1
> <PUBCHEM_COORDINATE_TYPE>
1
5
255
> <PUBCHEM_BONDANNOTATIONS>
11  15  8
12  17  8
13  18  8
14  16  8
15  16  8
17  20  8
18  20  8
21  22  8
21  23  8
22  24  8
23  25  8
24  26  8
25  26  8
4  5  3
6  11  8
6  9  8
7  12  8
7  13  8
9  14  8
$$$$
