523120
  -OEChem-10302200292D
 45 45  0     1  0  0  0  0  0999 V2000
    5.4641    0.2500    0.0000 O   0  0  0  0  0  0  0  0  0  0  0  0
    6.3301   -1.2500    0.0000 O   0  0  0  0  0  0  0  0  0  0  0  0
    2.0000   -2.7500    0.0000 O   0  5  0  0  0  0  0  0  0  0  0  0
    2.8660   -1.2500    0.0000 O   0  0  0  0  0  0  0  0  0  0  0  0
    4.5981   -1.2500    0.0000 N   0  0  0  0  0  0  0  0  0  0  0  0
    2.8660   -2.2500    0.0000 N   0  3  0  0  0  0  0  0  0  0  0  0
    6.3301    0.7500    0.0000 C   0  0  3  0  0  0  0  0  0  0  0  0
    7.1962    1.2500    0.0000 C   0  0  0  0  0  0  0  0  0  0  0  0
    7.1962    2.2500    0.0000 C   0  0  0  0  0  0  0  0  0  0  0  0
    6.8301   -0.1160    0.0000 C   0  0  0  0  0  0  0  0  0  0  0  0
    5.8301    1.6160    0.0000 C   0  0  0  0  0  0  0  0  0  0  0  0
    8.0622    2.7500    0.0000 C   0  0  0  0  0  0  0  0  0  0  0  0
    8.0622    3.7500    0.0000 C   0  0  0  0  0  0  0  0  0  0  0  0
    5.4641   -0.7500    0.0000 C   0  0  0  0  0  0  0  0  0  0  0  0
    4.8301    1.6160    0.0000 C   0  0  0  0  0  0  0  0  0  0  0  0
    8.9282    4.2500    0.0000 C   0  0  0  0  0  0  0  0  0  0  0  0
    7.1962    4.2500    0.0000 C   0  0  0  0  0  0  0  0  0  0  0  0
    4.5981   -2.2500    0.0000 C   0  0  0  0  0  0  0  0  0  0  0  0
    3.7320   -2.7500    0.0000 C   0  0  0  0  0  0  0  0  0  0  0  0
    5.4641   -2.7500    0.0000 C   0  0  0  0  0  0  0  0  0  0  0  0
    3.7320   -3.7500    0.0000 C   0  0  0  0  0  0  0  0  0  0  0  0
    5.4641   -3.7500    0.0000 C   0  0  0  0  0  0  0  0  0  0  0  0
    4.5981   -4.2500    0.0000 C   0  0  0  0  0  0  0  0  0  0  0  0
    7.4082    0.6674    0.0000 H   0  0  0  0  0  0  0  0  0  0  0  0
    7.8067    1.3577    0.0000 H   0  0  0  0  0  0  0  0  0  0  0  0
    6.9841    2.8326    0.0000 H   0  0  0  0  0  0  0  0  0  0  0  0
    6.5856    2.1423    0.0000 H   0  0  0  0  0  0  0  0  0  0  0  0
    6.2932   -0.4260    0.0000 H   0  0  0  0  0  0  0  0  0  0  0  0
    7.1401   -0.6530    0.0000 H   0  0  0  0  0  0  0  0  0  0  0  0
    7.3671    0.1940    0.0000 H   0  0  0  0  0  0  0  0  0  0  0  0
    6.1401    2.1530    0.0000 H   0  0  0  0  0  0  0  0  0  0  0  0
    8.5991    2.4400    0.0000 H   0  0  0  0  0  0  0  0  0  0  0  0
    4.5201    2.1530    0.0000 H   0  0  0  0  0  0  0  0  0  0  0  0
    4.5201    1.0791    0.0000 H   0  0  0  0  0  0  0  0  0  0  0  0
    4.0611   -0.9400    0.0000 H   0  0  0  0  0  0  0  0  0  0  0  0
    9.2382    3.7131    0.0000 H   0  0  0  0  0  0  0  0  0  0  0  0
    9.4651    4.5600    0.0000 H   0  0  0  0  0  0  0  0  0  0  0  0
    8.6182    4.7869    0.0000 H   0  0  0  0  0  0  0  0  0  0  0  0
    7.5062    4.7869    0.0000 H   0  0  0  0  0  0  0  0  0  0  0  0
    6.6592    4.5600    0.0000 H   0  0  0  0  0  0  0  0  0  0  0  0
    6.8862    3.7131    0.0000 H   0  0  0  0  0  0  0  0  0  0  0  0
    6.0010   -2.4400    0.0000 H   0  0  0  0  0  0  0  0  0  0  0  0
    3.1951   -4.0600    0.0000 H   0  0  0  0  0  0  0  0  0  0  0  0
    6.0010   -4.0600    0.0000 H   0  0  0  0  0  0  0  0  0  0  0  0
    4.5981   -4.8700    0.0000 H   0  0  0  0  0  0  0  0  0  0  0  0
  1  7  1  0  0  0  0
  1 14  1  0  0  0  0
  2 14  2  0  0  0  0
  3  6  1  0  0  0  0
  4  6  2  0  0  0  0
  5 14  1  0  0  0  0
  5 18  1  0  0  0  0
  5 35  1  0  0  0  0
  6 19  1  0  0  0  0
  7  8  1  0  0  0  0
  7 10  1  0  0  0  0
  7 11  1  0  0  0  0
  8  9  1  0  0  0  0
  8 24  1  0  0  0  0
  8 25  1  0  0  0  0
  9 12  1  0  0  0  0
  9 26  1  0  0  0  0
  9 27  1  0  0  0  0
 10 28  1  0  0  0  0
 10 29  1  0  0  0  0
 10 30  1  0  0  0  0
 11 15  2  0  0  0  0
 11 31  1  0  0  0  0
 12 13  2  0  0  0  0
 12 32  1  0  0  0  0
 13 16  1  0  0  0  0
 13 17  1  0  0  0  0
 15 33  1  0  0  0  0
 15 34  1  0  0  0  0
 16 36  1  0  0  0  0
 16 37  1  0  0  0  0
 16 38  1  0  0  0  0
 17 39  1  0  0  0  0
 17 40  1  0  0  0  0
 17 41  1  0  0  0  0
 18 19  1  0  0  0  0
 18 20  2  0  0  0  0
 19 21  2  0  0  0  0
 20 22  1  0  0  0  0
 20 42  1  0  0  0  0
 21 23  1  0  0  0  0
 21 43  1  0  0  0  0
 22 23  2  0  0  0  0
 22 44  1  0  0  0  0
 23 45  1  0  0  0  0
M  CHG  2   3  -1   6   1
M  END
> <PUBCHEM_COMPOUND_CID>
523120
> <PUBCHEM_COMPOUND_CANONICALIZED>
1
> <PUBCHEM_CACTVS_COMPLEXITY>
466
> <PUBCHEM_CACTVS_HBOND_ACCEPTOR>
4
> <PUBCHEM_CACTVS_HBOND_DONOR>
1
> <PUBCHEM_CACTVS_ROTATABLE_BOND>
7
> <PUBCHEM_CACTVS_SUBSKEYS>
AAADceB7OAAAAAAAAAAAAAAAAAAAAAAAAAAwAAAAAAAAAAABAAAAHgAUAAAADEyBkAAyyILQRACJAiRCWwCCAAAhAgAoiAAAdIsIZCLAsZGcIAhklIBI6AcQAAAMAAAAAAAAACAAAAAAAAAAQAAAAAAAAA==
> <PUBCHEM_IUPAC_OPENEYE_NAME>
(1,5-dimethyl-1-vinyl-hex-4-enyl) N-(2-nitrophenyl)carbamate
> <PUBCHEM_IUPAC_CAS_NAME>
N-(2-nitrophenyl)carbamic acid 3,7-dimethylocta-1,6-dien-3-yl ester
> <PUBCHEM_IUPAC_NAME_MARKUP>
3,7-dimethylocta-1,6-dien-3-yl <I>N</I>-(2-nitrophenyl)carbamate
> <PUBCHEM_IUPAC_NAME>
3,7-dimethylocta-1,6-dien-3-yl N-(2-nitrophenyl)carbamate
> <PUBCHEM_IUPAC_SYSTEMATIC_NAME>
3,7-dimethylocta-1,6-dien-3-yl N-(2-nitrophenyl)carbamate
> <PUBCHEM_IUPAC_TRADITIONAL_NAME>
N-(2-nitrophenyl)carbamic acid (1,5-dimethyl-1-vinyl-hex-4-enyl) ester
> <PUBCHEM_IUPAC_INCHI>
InChI=1S/C17H22N2O4/c1-5-17(4,12-8-9-13(2)3)23-16(20)18-14-10-6-7-11-15(14)19(21)22/h5-7,9-11H,1,8,12H2,2-4H3,(H,18,20)
> <PUBCHEM_IUPAC_INCHIKEY>
CULRFNNDFRVPHV-UHFFFAOYSA-N
> <PUBCHEM_XLOGP3_AA>
5.1
> <PUBCHEM_EXACT_MASS>
318.15795719
> <PUBCHEM_MOLECULAR_FORMULA>
C17H22N2O4
> <PUBCHEM_MOLECULAR_WEIGHT>
318.4
> <PUBCHEM_OPENEYE_CAN_SMILES>
CC(=CCCC(C)(C=C)OC(=O)NC1=CC=CC=C1[N+](=O)[O-])C
> <PUBCHEM_OPENEYE_ISO_SMILES>
CC(=CCCC(C)(C=C)OC(=O)NC1=CC=CC=C1[N+](=O)[O-])C
> <PUBCHEM_CACTVS_TPSA>
84.2
> <PUBCHEM_MONOISOTOPIC_WEIGHT>
318.15795719
> <PUBCHEM_TOTAL_CHARGE>
0
> <PUBCHEM_HEAVY_ATOM_COUNT>
23
> <PUBCHEM_ATOM_DEF_STEREO_COUNT>
0
> <PUBCHEM_ATOM_UDEF_STEREO_COUNT>
1
> <PUBCHEM_BOND_DEF_STEREO_COUNT>
0
> <PUBCHEM_BOND_UDEF_STEREO_COUNT>
0
> <PUBCHEM_ISOTOPIC_ATOM_COUNT>
0
> <PUBCHEM_COMPONENT_COUNT>
1
> <PUBCHEM_CACTVS_TAUTO_COUNT>
-1
> <PUBCHEM_COORDINATE_TYPE>
1
5
255
> <PUBCHEM_BONDANNOTATIONS>
18  19  8
18  20  8
19  21  8
20  22  8
21  23  8
22  23  8
7  10  3
$$$$
