523222
  -OEChem-10302200292D
 50 53  0     1  0  0  0  0  0999 V2000
   10.3820    2.1767    0.0000 O   0  0  0  0  0  0  0  0  0  0  0  0
    3.7320   -2.1309    0.0000 O   0  0  0  0  0  0  0  0  0  0  0  0
    2.0000   -2.1242    0.0000 O   0  0  0  0  0  0  0  0  0  0  0  0
    2.8680   -1.6275    0.0000 N   0  0  0  0  0  0  0  0  0  0  0  0
    7.3931   -0.0785    0.0000 C   0  0  3  0  0  0  0  0  0  0  0  0
    8.2591   -0.5785    0.0000 C   0  0  3  0  0  0  0  0  0  0  0  0
    9.1251   -0.0785    0.0000 C   0  0  3  0  0  0  0  0  0  0  0  0
    9.1251    0.9215    0.0000 C   0  0  3  0  0  0  0  0  0  0  0  0
    6.4831   -0.5854    0.0000 C   0  0  3  0  0  0  0  0  0  0  0  0
    7.3931    0.9215    0.0000 C   0  0  0  0  0  0  0  0  0  0  0  0
    8.2591    1.4215    0.0000 C   0  0  0  0  0  0  0  0  0  0  0  0
   10.0713   -0.3833    0.0000 C   0  0  0  0  0  0  0  0  0  0  0  0
    8.2752   -1.6200    0.0000 C   0  0  0  0  0  0  0  0  0  0  0  0
    6.4750   -1.6270    0.0000 C   0  0  0  0  0  0  0  0  0  0  0  0
    5.5562   -0.0213    0.0000 C   0  0  0  0  0  0  0  0  0  0  0  0
   10.0713    1.2262    0.0000 C   0  0  0  0  0  0  0  0  0  0  0  0
   10.6550    0.4215    0.0000 C   0  0  0  0  0  0  0  0  0  0  0  0
    7.3771   -2.1478    0.0000 C   0  0  0  0  0  0  0  0  0  0  0  0
    9.1251    1.9215    0.0000 C   0  0  0  0  0  0  0  0  0  0  0  0
    6.4908    0.4146    0.0000 C   0  0  0  0  0  0  0  0  0  0  0  0
    5.5396   -2.1767    0.0000 C   0  0  0  0  0  0  0  0  0  0  0  0
    4.6084   -0.5493    0.0000 C   0  0  0  0  0  0  0  0  0  0  0  0
    4.6000   -1.6342    0.0000 C   0  0  3  0  0  0  0  0  0  0  0  0
    7.9300    0.2315    0.0000 H   0  0  0  0  0  0  0  0  0  0  0  0
    8.7984   -0.8844    0.0000 H   0  0  0  0  0  0  0  0  0  0  0  0
    9.1907   -0.6951    0.0000 H   0  0  0  0  0  0  0  0  0  0  0  0
    7.1810    1.5041    0.0000 H   0  0  0  0  0  0  0  0  0  0  0  0
    6.7825    0.8138    0.0000 H   0  0  0  0  0  0  0  0  0  0  0  0
    8.6576    1.8964    0.0000 H   0  0  0  0  0  0  0  0  0  0  0  0
    7.8606    1.8964    0.0000 H   0  0  0  0  0  0  0  0  0  0  0  0
    9.8203   -0.9502    0.0000 H   0  0  0  0  0  0  0  0  0  0  0  0
   10.6087   -0.6925    0.0000 H   0  0  0  0  0  0  0  0  0  0  0  0
    8.4932   -2.2004    0.0000 H   0  0  0  0  0  0  0  0  0  0  0  0
    8.8843   -1.5046    0.0000 H   0  0  0  0  0  0  0  0  0  0  0  0
    5.9644    0.4454    0.0000 H   0  0  0  0  0  0  0  0  0  0  0  0
    5.1663    0.4607    0.0000 H   0  0  0  0  0  0  0  0  0  0  0  0
   11.1158    0.0067    0.0000 H   0  0  0  0  0  0  0  0  0  0  0  0
   11.1158    0.8362    0.0000 H   0  0  0  0  0  0  0  0  0  0  0  0
    7.3795   -2.7678    0.0000 H   0  0  0  0  0  0  0  0  0  0  0  0
    9.7451    1.9215    0.0000 H   0  0  0  0  0  0  0  0  0  0  0  0
    9.1251    2.5415    0.0000 H   0  0  0  0  0  0  0  0  0  0  0  0
    8.5051    1.9215    0.0000 H   0  0  0  0  0  0  0  0  0  0  0  0
    7.1108    0.4098    0.0000 H   0  0  0  0  0  0  0  0  0  0  0  0
    6.4956    1.0346    0.0000 H   0  0  0  0  0  0  0  0  0  0  0  0
    5.8708    0.4194    0.0000 H   0  0  0  0  0  0  0  0  0  0  0  0
    5.1423   -2.6527    0.0000 H   0  0  0  0  0  0  0  0  0  0  0  0
    5.9406   -2.6496    0.0000 H   0  0  0  0  0  0  0  0  0  0  0  0
    4.4038    0.0360    0.0000 H   0  0  0  0  0  0  0  0  0  0  0  0
    3.9967   -0.6506    0.0000 H   0  0  0  0  0  0  0  0  0  0  0  0
    4.0648   -1.3211    0.0000 H   0  0  0  0  0  0  0  0  0  0  0  0
  1 16  2  0  0  0  0
  2  4  1  0  0  0  0
  2 23  1  0  0  0  0
  3  4  2  0  0  0  0
  5  6  1  0  0  0  0
  5  9  1  0  0  0  0
  5 10  1  0  0  0  0
  5 24  1  0  0  0  0
  6  7  1  0  0  0  0
  6 13  1  0  0  0  0
  6 25  1  0  0  0  0
  7  8  1  0  0  0  0
  7 12  1  0  0  0  0
  7 26  1  0  0  0  0
  8 11  1  0  0  0  0
  8 16  1  0  0  0  0
  8 19  1  0  0  0  0
  9 14  1  0  0  0  0
  9 15  1  0  0  0  0
  9 20  1  0  0  0  0
 10 11  1  0  0  0  0
 10 27  1  0  0  0  0
 10 28  1  0  0  0  0
 11 29  1  0  0  0  0
 11 30  1  0  0  0  0
 12 17  1  0  0  0  0
 12 31  1  0  0  0  0
 12 32  1  0  0  0  0
 13 18  1  0  0  0  0
 13 33  1  0  0  0  0
 13 34  1  0  0  0  0
 14 18  2  0  0  0  0
 14 21  1  0  0  0  0
 15 22  1  0  0  0  0
 15 35  1  0  0  0  0
 15 36  1  0  0  0  0
 16 17  1  0  0  0  0
 17 37  1  0  0  0  0
 17 38  1  0  0  0  0
 18 39  1  0  0  0  0
 19 40  1  0  0  0  0
 19 41  1  0  0  0  0
 19 42  1  0  0  0  0
 20 43  1  0  0  0  0
 20 44  1  0  0  0  0
 20 45  1  0  0  0  0
 21 23  1  0  0  0  0
 21 46  1  0  0  0  0
 21 47  1  0  0  0  0
 22 23  1  0  0  0  0
 22 48  1  0  0  0  0
 22 49  1  0  0  0  0
 23 50  1  0  0  0  0
M  END
> <PUBCHEM_COMPOUND_CID>
523222
> <PUBCHEM_COMPOUND_CANONICALIZED>
1
> <PUBCHEM_CACTVS_COMPLEXITY>
571
> <PUBCHEM_CACTVS_HBOND_ACCEPTOR>
4
> <PUBCHEM_CACTVS_HBOND_DONOR>
0
> <PUBCHEM_CACTVS_ROTATABLE_BOND>
1
> <PUBCHEM_CACTVS_SUBSKEYS>
AAADceB6MAAAAAAAAAAAAAAAAAAAAYAAAAAwYIAAAAAAAGCAAAAAGgAEAAAADxSggAICAAAAQACJAqBSAQAAAAAgAAAACAEAAAgAABIAAQAAAAAEwAAIAAOIyPCPgAAAAAAAAADAAAQAACAAAAAACAAAAA==
> <PUBCHEM_IUPAC_OPENEYE_NAME>
(10,13-dimethyl-17-oxo-1,2,3,4,7,8,9,11,12,14,15,16-dodecahydrocyclopenta[a]phenanthren-3-yl) nitrite
> <PUBCHEM_IUPAC_CAS_NAME>
nitrous acid (10,13-dimethyl-17-oxo-1,2,3,4,7,8,9,11,12,14,15,16-dodecahydrocyclopenta[a]phenanthren-3-yl) ester
> <PUBCHEM_IUPAC_NAME_MARKUP>
(10,13-dimethyl-17-oxo-1,2,3,4,7,8,9,11,12,14,15,16-dodecahydrocyclopenta[a]phenanthren-3-yl) nitrite
> <PUBCHEM_IUPAC_NAME>
(10,13-dimethyl-17-oxo-1,2,3,4,7,8,9,11,12,14,15,16-dodecahydrocyclopenta[a]phenanthren-3-yl) nitrite
> <PUBCHEM_IUPAC_SYSTEMATIC_NAME>
(10,13-dimethyl-17-oxidanylidene-1,2,3,4,7,8,9,11,12,14,15,16-dodecahydrocyclopenta[a]phenanthren-3-yl) nitrite
> <PUBCHEM_IUPAC_TRADITIONAL_NAME>
nitrous acid (17-keto-10,13-dimethyl-1,2,3,4,7,8,9,11,12,14,15,16-dodecahydrocyclopenta[a]phenanthren-3-yl) ester
> <PUBCHEM_IUPAC_INCHI>
InChI=1S/C19H27NO3/c1-18-9-7-13(23-20-22)11-12(18)3-4-14-15-5-6-17(21)19(15,2)10-8-16(14)18/h3,13-16H,4-11H2,1-2H3
> <PUBCHEM_IUPAC_INCHIKEY>
HXNFSAGZLTWCLH-UHFFFAOYSA-N
> <PUBCHEM_XLOGP3>
3.7
> <PUBCHEM_EXACT_MASS>
317.19909372
> <PUBCHEM_MOLECULAR_FORMULA>
C19H27NO3
> <PUBCHEM_MOLECULAR_WEIGHT>
317.4
> <PUBCHEM_OPENEYE_CAN_SMILES>
CC12CCC3C(C1CCC2=O)CC=C4C3(CCC(C4)ON=O)C
> <PUBCHEM_OPENEYE_ISO_SMILES>
CC12CCC3C(C1CCC2=O)CC=C4C3(CCC(C4)ON=O)C
> <PUBCHEM_CACTVS_TPSA>
55.7
> <PUBCHEM_MONOISOTOPIC_WEIGHT>
317.19909372
> <PUBCHEM_TOTAL_CHARGE>
0
> <PUBCHEM_HEAVY_ATOM_COUNT>
23
> <PUBCHEM_ATOM_DEF_STEREO_COUNT>
0
> <PUBCHEM_ATOM_UDEF_STEREO_COUNT>
6
> <PUBCHEM_BOND_DEF_STEREO_COUNT>
0
> <PUBCHEM_BOND_UDEF_STEREO_COUNT>
0
> <PUBCHEM_ISOTOPIC_ATOM_COUNT>
0
> <PUBCHEM_COMPONENT_COUNT>
1
> <PUBCHEM_CACTVS_TAUTO_COUNT>
-1
> <PUBCHEM_COORDINATE_TYPE>
1
5
255
> <PUBCHEM_BONDANNOTATIONS>
23  2  3
5  10  3
6  13  3
7  12  3
8  19  3
9  20  3
$$$$
