523234
  -OEChem-10302200292D
 43 47  0     1  0  0  0  0  0999 V2000
    3.2994    1.1748    0.0000 O   0  0  0  0  0  0  0  0  0  0  0  0
    7.1227    0.3547    0.0000 N   0  0  3  0  0  0  0  0  0  0  0  0
    8.0886    0.0959    0.0000 C   0  0  0  0  0  0  0  0  0  0  0  0
    5.0739    0.5200    0.0000 C   0  0  3  0  0  0  0  0  0  0  0  0
    8.7957   -0.6112    0.0000 C   0  0  0  0  0  0  0  0  0  0  0  0
    9.0546    0.3547    0.0000 C   0  0  0  0  0  0  0  0  0  0  0  0
    6.3456   -0.2746    0.0000 C   0  0  0  0  0  0  0  0  0  0  0  0
    4.5961    2.4686    0.0000 C   0  0  0  0  0  0  0  0  0  0  0  0
    5.3327    1.4859    0.0000 C   0  0  3  0  0  0  0  0  0  0  0  0
    6.7643    1.2883    0.0000 C   0  0  0  0  0  0  0  0  0  0  0  0
    3.8528   -0.3456    0.0000 C   0  0  0  0  0  0  0  0  0  0  0  0
    5.1611   -0.4762    0.0000 C   0  0  0  0  0  0  0  0  0  0  0  0
    3.0238    0.2136    0.0000 C   0  0  0  0  0  0  0  0  0  0  0  0
    3.7962   -1.3857    0.0000 C   0  0  0  0  0  0  0  0  0  0  0  0
    4.3419   -1.0498    0.0000 C   0  0  0  0  0  0  0  0  0  0  0  0
    6.0673   -0.8988    0.0000 C   0  0  0  0  0  0  0  0  0  0  0  0
    2.0807   -0.2286    0.0000 C   0  0  0  0  0  0  0  0  0  0  0  0
    2.8636   -1.8496    0.0000 C   0  0  0  0  0  0  0  0  0  0  0  0
    2.0000   -1.2671    0.0000 C   0  0  0  0  0  0  0  0  0  0  0  0
    4.4291   -2.0460    0.0000 C   0  0  0  0  0  0  0  0  0  0  0  0
    6.1545   -1.8950    0.0000 C   0  0  0  0  0  0  0  0  0  0  0  0
    5.3354   -2.4686    0.0000 C   0  0  0  0  0  0  0  0  0  0  0  0
    8.6875   -0.0646    0.0000 H   0  0  0  0  0  0  0  0  0  0  0  0
    8.4401   -1.1191    0.0000 H   0  0  0  0  0  0  0  0  0  0  0  0
    9.3576   -0.8732    0.0000 H   0  0  0  0  0  0  0  0  0  0  0  0
    9.6722    0.3007    0.0000 H   0  0  0  0  0  0  0  0  0  0  0  0
    9.0005    0.9723    0.0000 H   0  0  0  0  0  0  0  0  0  0  0  0
    5.9610   -0.7610    0.0000 H   0  0  0  0  0  0  0  0  0  0  0  0
    6.7865   -0.7105    0.0000 H   0  0  0  0  0  0  0  0  0  0  0  0
    4.9139    3.0009    0.0000 H   0  0  0  0  0  0  0  0  0  0  0  0
    3.9829    2.5605    0.0000 H   0  0  0  0  0  0  0  0  0  0  0  0
    5.3372    0.8660    0.0000 H   0  0  0  0  0  0  0  0  0  0  0  0
    7.3721    1.4106    0.0000 H   0  0  0  0  0  0  0  0  0  0  0  0
    6.7453    1.9080    0.0000 H   0  0  0  0  0  0  0  0  0  0  0  0
    4.3142   -1.7265    0.0000 H   0  0  0  0  0  0  0  0  0  0  0  0
    3.7800   -0.7877    0.0000 H   0  0  0  0  0  0  0  0  0  0  0  0
    6.5752   -0.5432    0.0000 H   0  0  0  0  0  0  0  0  0  0  0  0
    1.5707    0.1240    0.0000 H   0  0  0  0  0  0  0  0  0  0  0  0
    2.8227   -2.4682    0.0000 H   0  0  0  0  0  0  0  0  0  0  0  0
    1.4417   -1.5367    0.0000 H   0  0  0  0  0  0  0  0  0  0  0  0
    3.9212   -2.4016    0.0000 H   0  0  0  0  0  0  0  0  0  0  0  0
    6.7164   -2.1570    0.0000 H   0  0  0  0  0  0  0  0  0  0  0  0
    5.3895   -3.0862    0.0000 H   0  0  0  0  0  0  0  0  0  0  0  0
  1  9  1  0  0  0  0
  1 13  1  0  0  0  0
  2  3  1  0  0  0  0
  2  7  1  0  0  0  0
  2 10  1  0  0  0  0
  3  5  1  0  0  0  0
  3  6  1  0  0  0  0
  3 23  1  0  0  0  0
  4  7  1  0  0  0  0
  4  8  1  0  0  0  0
  4 11  1  0  0  0  0
  4 12  1  0  0  0  0
  5  6  1  0  0  0  0
  5 24  1  0  0  0  0
  5 25  1  0  0  0  0
  6 26  1  0  0  0  0
  6 27  1  0  0  0  0
  7 28  1  0  0  0  0
  7 29  1  0  0  0  0
  8  9  1  0  0  0  0
  8 30  1  0  0  0  0
  8 31  1  0  0  0  0
  9 10  1  0  0  0  0
  9 32  1  0  0  0  0
 10 33  1  0  0  0  0
 10 34  1  0  0  0  0
 11 13  1  0  0  0  0
 11 14  2  0  0  0  0
 12 15  2  0  0  0  0
 12 16  1  0  0  0  0
 13 17  2  0  0  0  0
 14 18  1  0  0  0  0
 14 35  1  0  0  0  0
 15 20  1  0  0  0  0
 15 36  1  0  0  0  0
 16 21  2  0  0  0  0
 16 37  1  0  0  0  0
 17 19  1  0  0  0  0
 17 38  1  0  0  0  0
 18 19  2  0  0  0  0
 18 39  1  0  0  0  0
 19 40  1  0  0  0  0
 20 22  2  0  0  0  0
 20 41  1  0  0  0  0
 21 22  1  0  0  0  0
 21 42  1  0  0  0  0
 22 43  1  0  0  0  0
M  END
> <PUBCHEM_COMPOUND_CID>
523234
> <PUBCHEM_COMPOUND_CANONICALIZED>
1
> <PUBCHEM_CACTVS_COMPLEXITY>
414
> <PUBCHEM_CACTVS_HBOND_ACCEPTOR>
2
> <PUBCHEM_CACTVS_HBOND_DONOR>
0
> <PUBCHEM_CACTVS_ROTATABLE_BOND>
2
> <PUBCHEM_CACTVS_SUBSKEYS>
AAADceB6IAAAAAAAAAAAAAAAGAAAAAAAAAA8aIEAAAAWAACRQAAAHgAAAAAADjzhmAYwBoMABACAAiBCAAACCAAgIAAIiAAOCIgOJiKEsRuHOCCkwBGYqAewwOAPgAAAAAAIAAAAAAAAABAAAAAAAAAAAA==
> <PUBCHEM_IUPAC_OPENEYE_NAME>
11-cyclopropyl-1-phenyl-8-oxa-11-azatricyclo[7.3.1.02,7]trideca-2,4,6-triene
> <PUBCHEM_IUPAC_CAS_NAME>
11-cyclopropyl-1-phenyl-8-oxa-11-azatricyclo[7.3.1.02,7]trideca-2,4,6-triene
> <PUBCHEM_IUPAC_NAME_MARKUP>
11-cyclopropyl-1-phenyl-8-oxa-11-azatricyclo[7.3.1.0<SUP>2,7</SUP>]trideca-2,4,6-triene
> <PUBCHEM_IUPAC_NAME>
11-cyclopropyl-1-phenyl-8-oxa-11-azatricyclo[7.3.1.02,7]trideca-2,4,6-triene
> <PUBCHEM_IUPAC_SYSTEMATIC_NAME>
11-cyclopropyl-1-phenyl-8-oxa-11-azatricyclo[7.3.1.02,7]trideca-2,4,6-triene
> <PUBCHEM_IUPAC_TRADITIONAL_NAME>
11-cyclopropyl-1-phenyl-8-oxa-11-azatricyclo[7.3.1.02,7]trideca-2,4,6-triene
> <PUBCHEM_IUPAC_INCHI>
InChI=1S/C20H21NO/c1-2-6-15(7-3-1)20-12-17(13-21(14-20)16-10-11-16)22-19-9-5-4-8-18(19)20/h1-9,16-17H,10-14H2
> <PUBCHEM_IUPAC_INCHIKEY>
DSCZWDVVGJVPOP-UHFFFAOYSA-N
> <PUBCHEM_XLOGP3_AA>
4.2
> <PUBCHEM_EXACT_MASS>
291.162314293
> <PUBCHEM_MOLECULAR_FORMULA>
C20H21NO
> <PUBCHEM_MOLECULAR_WEIGHT>
291.4
> <PUBCHEM_OPENEYE_CAN_SMILES>
C1CC1N2CC3CC(C2)(C4=CC=CC=C4O3)C5=CC=CC=C5
> <PUBCHEM_OPENEYE_ISO_SMILES>
C1CC1N2CC3CC(C2)(C4=CC=CC=C4O3)C5=CC=CC=C5
> <PUBCHEM_CACTVS_TPSA>
12.5
> <PUBCHEM_MONOISOTOPIC_WEIGHT>
291.162314293
> <PUBCHEM_TOTAL_CHARGE>
0
> <PUBCHEM_HEAVY_ATOM_COUNT>
22
> <PUBCHEM_ATOM_DEF_STEREO_COUNT>
0
> <PUBCHEM_ATOM_UDEF_STEREO_COUNT>
2
> <PUBCHEM_BOND_DEF_STEREO_COUNT>
0
> <PUBCHEM_BOND_UDEF_STEREO_COUNT>
0
> <PUBCHEM_ISOTOPIC_ATOM_COUNT>
0
> <PUBCHEM_COMPONENT_COUNT>
1
> <PUBCHEM_CACTVS_TAUTO_COUNT>
-1
> <PUBCHEM_COORDINATE_TYPE>
1
5
255
> <PUBCHEM_BONDANNOTATIONS>
11  13  8
11  14  8
12  15  8
12  16  8
13  17  8
14  18  8
15  20  8
16  21  8
17  19  8
18  19  8
20  22  8
21  22  8
4  12  3
9  8  3
$$$$
