523270
  -OEChem-10302200292D
 66 66  0     1  0  0  0  0  0999 V2000
    4.5981   -3.5000    0.0000 Si  0  0  0  0  0  0  0  0  0  0  0  0
    7.1962   -4.0000    0.0000 Si  0  0  0  0  0  0  0  0  0  0  0  0
    5.4641    4.0000    0.0000 Si  0  0  0  0  0  0  0  0  0  0  0  0
    4.5981   -2.5000    0.0000 O   0  0  0  0  0  0  0  0  0  0  0  0
    6.3301   -3.5000    0.0000 O   0  0  0  0  0  0  0  0  0  0  0  0
    4.5981    3.5000    0.0000 O   0  0  0  0  0  0  0  0  0  0  0  0
    7.1962   -2.0000    0.0000 O   0  0  0  0  0  0  0  0  0  0  0  0
    2.8660    2.5000    0.0000 O   0  0  0  0  0  0  0  0  0  0  0  0
    5.4641   -2.0000    0.0000 C   0  0  3  0  0  0  0  0  0  0  0  0
    5.4641   -1.0000    0.0000 C   0  0  0  0  0  0  0  0  0  0  0  0
    4.5981   -0.5000    0.0000 C   0  0  0  0  0  0  0  0  0  0  0  0
    6.3301   -2.5000    0.0000 C   0  0  0  0  0  0  0  0  0  0  0  0
    4.5981    0.5000    0.0000 C   0  0  0  0  0  0  0  0  0  0  0  0
    4.5981   -4.5000    0.0000 C   0  0  0  0  0  0  0  0  0  0  0  0
    3.5981   -3.5000    0.0000 C   0  0  0  0  0  0  0  0  0  0  0  0
    5.5981   -3.5000    0.0000 C   0  0  0  0  0  0  0  0  0  0  0  0
    3.7320    1.0000    0.0000 C   0  0  0  0  0  0  0  0  0  0  0  0
    5.4641    1.0000    0.0000 C   0  0  0  0  0  0  0  0  0  0  0  0
    8.0622   -4.5000    0.0000 C   0  0  0  0  0  0  0  0  0  0  0  0
    6.6962   -4.8660    0.0000 C   0  0  0  0  0  0  0  0  0  0  0  0
    7.6962   -3.1340    0.0000 C   0  0  0  0  0  0  0  0  0  0  0  0
    4.5981    2.5000    0.0000 C   0  0  0  0  0  0  0  0  0  0  0  0
    3.7320    2.0000    0.0000 C   0  0  0  0  0  0  0  0  0  0  0  0
    5.4641    2.0000    0.0000 C   0  0  0  0  0  0  0  0  0  0  0  0
    6.3301    4.5000    0.0000 C   0  0  0  0  0  0  0  0  0  0  0  0
    4.9641    4.8660    0.0000 C   0  0  0  0  0  0  0  0  0  0  0  0
    5.9641    3.1340    0.0000 C   0  0  0  0  0  0  0  0  0  0  0  0
    2.0000    2.0000    0.0000 C   0  0  0  0  0  0  0  0  0  0  0  0
    5.4641   -2.6200    0.0000 H   0  0  0  0  0  0  0  0  0  0  0  0
    6.0747   -1.1077    0.0000 H   0  0  0  0  0  0  0  0  0  0  0  0
    5.6762   -0.4174    0.0000 H   0  0  0  0  0  0  0  0  0  0  0  0
    3.9875   -0.3923    0.0000 H   0  0  0  0  0  0  0  0  0  0  0  0
    4.3860   -1.0826    0.0000 H   0  0  0  0  0  0  0  0  0  0  0  0
    3.9781   -4.5000    0.0000 H   0  0  0  0  0  0  0  0  0  0  0  0
    4.5981   -5.1200    0.0000 H   0  0  0  0  0  0  0  0  0  0  0  0
    5.2181   -4.5000    0.0000 H   0  0  0  0  0  0  0  0  0  0  0  0
    3.5981   -2.8800    0.0000 H   0  0  0  0  0  0  0  0  0  0  0  0
    2.9781   -3.5000    0.0000 H   0  0  0  0  0  0  0  0  0  0  0  0
    3.5981   -4.1200    0.0000 H   0  0  0  0  0  0  0  0  0  0  0  0
    5.5981   -4.1200    0.0000 H   0  0  0  0  0  0  0  0  0  0  0  0
    6.2181   -3.5000    0.0000 H   0  0  0  0  0  0  0  0  0  0  0  0
    5.5981   -2.8800    0.0000 H   0  0  0  0  0  0  0  0  0  0  0  0
    3.1951    0.6900    0.0000 H   0  0  0  0  0  0  0  0  0  0  0  0
    6.0010    0.6900    0.0000 H   0  0  0  0  0  0  0  0  0  0  0  0
    7.7522   -5.0369    0.0000 H   0  0  0  0  0  0  0  0  0  0  0  0
    8.5991   -4.8100    0.0000 H   0  0  0  0  0  0  0  0  0  0  0  0
    8.3722   -3.9631    0.0000 H   0  0  0  0  0  0  0  0  0  0  0  0
    6.1592   -4.5560    0.0000 H   0  0  0  0  0  0  0  0  0  0  0  0
    6.3862   -5.4030    0.0000 H   0  0  0  0  0  0  0  0  0  0  0  0
    7.2331   -5.1760    0.0000 H   0  0  0  0  0  0  0  0  0  0  0  0
    8.2331   -3.4440    0.0000 H   0  0  0  0  0  0  0  0  0  0  0  0
    8.0062   -2.5970    0.0000 H   0  0  0  0  0  0  0  0  0  0  0  0
    7.1592   -2.8240    0.0000 H   0  0  0  0  0  0  0  0  0  0  0  0
    6.0010    2.3100    0.0000 H   0  0  0  0  0  0  0  0  0  0  0  0
    6.6401    3.9631    0.0000 H   0  0  0  0  0  0  0  0  0  0  0  0
    6.8671    4.8100    0.0000 H   0  0  0  0  0  0  0  0  0  0  0  0
    6.0201    5.0369    0.0000 H   0  0  0  0  0  0  0  0  0  0  0  0
    5.5010    5.1760    0.0000 H   0  0  0  0  0  0  0  0  0  0  0  0
    4.6541    5.4030    0.0000 H   0  0  0  0  0  0  0  0  0  0  0  0
    4.4272    4.5560    0.0000 H   0  0  0  0  0  0  0  0  0  0  0  0
    5.4272    2.8240    0.0000 H   0  0  0  0  0  0  0  0  0  0  0  0
    6.2741    2.5970    0.0000 H   0  0  0  0  0  0  0  0  0  0  0  0
    6.5010    3.4440    0.0000 H   0  0  0  0  0  0  0  0  0  0  0  0
    1.6900    2.5369    0.0000 H   0  0  0  0  0  0  0  0  0  0  0  0
    1.4631    1.6900    0.0000 H   0  0  0  0  0  0  0  0  0  0  0  0
    2.3100    1.4631    0.0000 H   0  0  0  0  0  0  0  0  0  0  0  0
  1  4  1  0  0  0  0
  1 14  1  0  0  0  0
  1 15  1  0  0  0  0
  1 16  1  0  0  0  0
  2  5  1  0  0  0  0
  2 19  1  0  0  0  0
  2 20  1  0  0  0  0
  2 21  1  0  0  0  0
  3  6  1  0  0  0  0
  3 25  1  0  0  0  0
  3 26  1  0  0  0  0
  3 27  1  0  0  0  0
  4  9  1  0  0  0  0
  5 12  1  0  0  0  0
  6 22  1  0  0  0  0
  7 12  2  0  0  0  0
  8 23  1  0  0  0  0
  8 28  1  0  0  0  0
  9 10  1  0  0  0  0
  9 12  1  0  0  0  0
  9 29  1  0  0  0  0
 10 11  1  0  0  0  0
 10 30  1  0  0  0  0
 10 31  1  0  0  0  0
 11 13  1  0  0  0  0
 11 32  1  0  0  0  0
 11 33  1  0  0  0  0
 13 17  2  0  0  0  0
 13 18  1  0  0  0  0
 14 34  1  0  0  0  0
 14 35  1  0  0  0  0
 14 36  1  0  0  0  0
 15 37  1  0  0  0  0
 15 38  1  0  0  0  0
 15 39  1  0  0  0  0
 16 40  1  0  0  0  0
 16 41  1  0  0  0  0
 16 42  1  0  0  0  0
 17 23  1  0  0  0  0
 17 43  1  0  0  0  0
 18 24  2  0  0  0  0
 18 44  1  0  0  0  0
 19 45  1  0  0  0  0
 19 46  1  0  0  0  0
 19 47  1  0  0  0  0
 20 48  1  0  0  0  0
 20 49  1  0  0  0  0
 20 50  1  0  0  0  0
 21 51  1  0  0  0  0
 21 52  1  0  0  0  0
 21 53  1  0  0  0  0
 22 23  2  0  0  0  0
 22 24  1  0  0  0  0
 24 54  1  0  0  0  0
 25 55  1  0  0  0  0
 25 56  1  0  0  0  0
 25 57  1  0  0  0  0
 26 58  1  0  0  0  0
 26 59  1  0  0  0  0
 26 60  1  0  0  0  0
 27 61  1  0  0  0  0
 27 62  1  0  0  0  0
 27 63  1  0  0  0  0
 28 64  1  0  0  0  0
 28 65  1  0  0  0  0
 28 66  1  0  0  0  0
M  END
> <PUBCHEM_COMPOUND_CID>
523270
> <PUBCHEM_COMPOUND_CANONICALIZED>
1
> <PUBCHEM_CACTVS_COMPLEXITY>
494
> <PUBCHEM_CACTVS_HBOND_ACCEPTOR>
5
> <PUBCHEM_CACTVS_HBOND_DONOR>
0
> <PUBCHEM_CACTVS_ROTATABLE_BOND>
11
> <PUBCHEM_CACTVS_SUBSKEYS>
AAADcfB4OAwAAAAAAAAAAAAAAAAAAAAAAAAwAAAAAAAAAAABAAAAGhAAAEAADBSgmAJyDoAABAGIAiDSCAICCAAgIAAIiAFGiIgNJjKEMRqAMCIkwBEKqAeIyLCOIAABAAAAQABAAAIAAACAAAAAAAAAAA==
> <PUBCHEM_IUPAC_OPENEYE_NAME>
trimethylsilyl 4-(3-methoxy-4-trimethylsilyloxy-phenyl)-2-trimethylsilyloxy-butanoate
> <PUBCHEM_IUPAC_CAS_NAME>
4-(3-methoxy-4-trimethylsilyloxyphenyl)-2-trimethylsilyloxybutanoic acid trimethylsilyl ester
> <PUBCHEM_IUPAC_NAME_MARKUP>
trimethylsilyl 4-(3-methoxy-4-trimethylsilyloxyphenyl)-2-trimethylsilyloxybutanoate
> <PUBCHEM_IUPAC_NAME>
trimethylsilyl 4-(3-methoxy-4-trimethylsilyloxyphenyl)-2-trimethylsilyloxybutanoate
> <PUBCHEM_IUPAC_SYSTEMATIC_NAME>
trimethylsilyl 4-(3-methoxy-4-trimethylsilyloxy-phenyl)-2-trimethylsilyloxy-butanoate
> <PUBCHEM_IUPAC_TRADITIONAL_NAME>
4-(3-methoxy-4-trimethylsilyloxy-phenyl)-2-trimethylsilyloxy-butyric acid trimethylsilyl ester
> <PUBCHEM_IUPAC_INCHI>
InChI=1S/C20H38O5Si3/c1-22-19-15-16(11-13-17(19)23-26(2,3)4)12-14-18(24-27(5,6)7)20(21)25-28(8,9)10/h11,13,15,18H,12,14H2,1-10H3
> <PUBCHEM_IUPAC_INCHIKEY>
HJRCFCJKFFOCLL-UHFFFAOYSA-N
> <PUBCHEM_EXACT_MASS>
442.20270391
> <PUBCHEM_MOLECULAR_FORMULA>
C20H38O5Si3
> <PUBCHEM_MOLECULAR_WEIGHT>
442.8
> <PUBCHEM_OPENEYE_CAN_SMILES>
COC1=C(C=CC(=C1)CCC(C(=O)O[Si](C)(C)C)O[Si](C)(C)C)O[Si](C)(C)C
> <PUBCHEM_OPENEYE_ISO_SMILES>
COC1=C(C=CC(=C1)CCC(C(=O)O[Si](C)(C)C)O[Si](C)(C)C)O[Si](C)(C)C
> <PUBCHEM_CACTVS_TPSA>
54
> <PUBCHEM_MONOISOTOPIC_WEIGHT>
442.20270391
> <PUBCHEM_TOTAL_CHARGE>
0
> <PUBCHEM_HEAVY_ATOM_COUNT>
28
> <PUBCHEM_ATOM_DEF_STEREO_COUNT>
0
> <PUBCHEM_ATOM_UDEF_STEREO_COUNT>
1
> <PUBCHEM_BOND_DEF_STEREO_COUNT>
0
> <PUBCHEM_BOND_UDEF_STEREO_COUNT>
0
> <PUBCHEM_ISOTOPIC_ATOM_COUNT>
0
> <PUBCHEM_COMPONENT_COUNT>
1
> <PUBCHEM_CACTVS_TAUTO_COUNT>
-1
> <PUBCHEM_COORDINATE_TYPE>
1
5
255
> <PUBCHEM_BONDANNOTATIONS>
13  17  8
13  18  8
17  23  8
18  24  8
22  23  8
22  24  8
9  10  3
$$$$
