523329
  -OEChem-10302200292D
 54 53  0     1  0  0  0  0  0999 V2000
    3.5000   -1.9820    0.0000 Si  0  0  0  0  0  0  0  0  0  0  0  0
    6.9641    0.0179    0.0000 Si  0  0  0  0  0  0  0  0  0  0  0  0
    2.8660    2.1160    0.0000 Si  0  0  0  0  0  0  0  0  0  0  0  0
    3.5000   -0.9821    0.0000 O   0  0  0  0  0  0  0  0  0  0  0  0
    6.0981   -0.4821    0.0000 O   0  0  0  0  0  0  0  0  0  0  0  0
    2.3660    1.2500    0.0000 O   0  0  0  0  0  0  0  0  0  0  0  0
    5.2320    1.0180    0.0000 O   0  0  0  0  0  0  0  0  0  0  0  0
    2.3660   -0.4821    0.0000 O   0  0  0  0  0  0  0  0  0  0  0  0
    4.3660   -0.4821    0.0000 C   0  0  1  0  0  0  0  0  0  0  0  0
    3.8660    0.3840    0.0000 C   0  0  0  0  0  0  0  0  0  0  0  0
    4.8660   -1.3481    0.0000 C   0  0  0  0  0  0  0  0  0  0  0  0
    5.2320    0.0179    0.0000 C   0  0  0  0  0  0  0  0  0  0  0  0
    2.5000   -1.9820    0.0000 C   0  0  0  0  0  0  0  0  0  0  0  0
    3.5000   -2.9820    0.0000 C   0  0  0  0  0  0  0  0  0  0  0  0
    4.5000   -1.9820    0.0000 C   0  0  0  0  0  0  0  0  0  0  0  0
    2.8660    0.3840    0.0000 C   0  0  0  0  0  0  0  0  0  0  0  0
    7.8301    0.5179    0.0000 C   0  0  0  0  0  0  0  0  0  0  0  0
    7.4641   -0.8481    0.0000 C   0  0  0  0  0  0  0  0  0  0  0  0
    6.4641    0.8840    0.0000 C   0  0  0  0  0  0  0  0  0  0  0  0
    3.3660    2.9820    0.0000 C   0  0  0  0  0  0  0  0  0  0  0  0
    2.0000    2.6160    0.0000 C   0  0  0  0  0  0  0  0  0  0  0  0
    3.7320    1.6160    0.0000 C   0  0  0  0  0  0  0  0  0  0  0  0
    4.4486    0.5960    0.0000 H   0  0  0  0  0  0  0  0  0  0  0  0
    3.7584    0.9946    0.0000 H   0  0  0  0  0  0  0  0  0  0  0  0
    4.3291   -1.6581    0.0000 H   0  0  0  0  0  0  0  0  0  0  0  0
    5.1760   -1.8850    0.0000 H   0  0  0  0  0  0  0  0  0  0  0  0
    5.4030   -1.0381    0.0000 H   0  0  0  0  0  0  0  0  0  0  0  0
    2.5000   -1.3620    0.0000 H   0  0  0  0  0  0  0  0  0  0  0  0
    1.8800   -1.9820    0.0000 H   0  0  0  0  0  0  0  0  0  0  0  0
    2.5000   -2.6021    0.0000 H   0  0  0  0  0  0  0  0  0  0  0  0
    2.8800   -2.9820    0.0000 H   0  0  0  0  0  0  0  0  0  0  0  0
    3.5000   -3.6020    0.0000 H   0  0  0  0  0  0  0  0  0  0  0  0
    4.1200   -2.9820    0.0000 H   0  0  0  0  0  0  0  0  0  0  0  0
    4.5000   -2.6021    0.0000 H   0  0  0  0  0  0  0  0  0  0  0  0
    5.1200   -1.9820    0.0000 H   0  0  0  0  0  0  0  0  0  0  0  0
    4.5000   -1.3620    0.0000 H   0  0  0  0  0  0  0  0  0  0  0  0
    8.1401   -0.0190    0.0000 H   0  0  0  0  0  0  0  0  0  0  0  0
    8.3671    0.8279    0.0000 H   0  0  0  0  0  0  0  0  0  0  0  0
    7.5201    1.0549    0.0000 H   0  0  0  0  0  0  0  0  0  0  0  0
    6.9272   -1.1581    0.0000 H   0  0  0  0  0  0  0  0  0  0  0  0
    7.7741   -1.3850    0.0000 H   0  0  0  0  0  0  0  0  0  0  0  0
    8.0010   -0.5381    0.0000 H   0  0  0  0  0  0  0  0  0  0  0  0
    7.0010    1.1940    0.0000 H   0  0  0  0  0  0  0  0  0  0  0  0
    6.1541    1.4209    0.0000 H   0  0  0  0  0  0  0  0  0  0  0  0
    5.9272    0.5740    0.0000 H   0  0  0  0  0  0  0  0  0  0  0  0
    3.9030    2.6720    0.0000 H   0  0  0  0  0  0  0  0  0  0  0  0
    3.6760    3.5190    0.0000 H   0  0  0  0  0  0  0  0  0  0  0  0
    2.8291    3.2920    0.0000 H   0  0  0  0  0  0  0  0  0  0  0  0
    2.3100    3.1530    0.0000 H   0  0  0  0  0  0  0  0  0  0  0  0
    1.4631    2.9260    0.0000 H   0  0  0  0  0  0  0  0  0  0  0  0
    1.6900    2.0791    0.0000 H   0  0  0  0  0  0  0  0  0  0  0  0
    3.4220    1.0791    0.0000 H   0  0  0  0  0  0  0  0  0  0  0  0
    4.2690    1.3060    0.0000 H   0  0  0  0  0  0  0  0  0  0  0  0
    4.0420    2.1530    0.0000 H   0  0  0  0  0  0  0  0  0  0  0  0
  1  4  1  0  0  0  0
  1 13  1  0  0  0  0
  1 14  1  0  0  0  0
  1 15  1  0  0  0  0
  2  5  1  0  0  0  0
  2 17  1  0  0  0  0
  2 18  1  0  0  0  0
  2 19  1  0  0  0  0
  3  6  1  0  0  0  0
  3 20  1  0  0  0  0
  3 21  1  0  0  0  0
  3 22  1  0  0  0  0
  9  4  1  6  0  0  0
  5 12  1  0  0  0  0
  6 16  1  0  0  0  0
  7 12  2  0  0  0  0
  8 16  2  0  0  0  0
  9 10  1  0  0  0  0
  9 11  1  0  0  0  0
  9 12  1  0  0  0  0
 10 16  1  0  0  0  0
 10 23  1  0  0  0  0
 10 24  1  0  0  0  0
 11 25  1  0  0  0  0
 11 26  1  0  0  0  0
 11 27  1  0  0  0  0
 13 28  1  0  0  0  0
 13 29  1  0  0  0  0
 13 30  1  0  0  0  0
 14 31  1  0  0  0  0
 14 32  1  0  0  0  0
 14 33  1  0  0  0  0
 15 34  1  0  0  0  0
 15 35  1  0  0  0  0
 15 36  1  0  0  0  0
 17 37  1  0  0  0  0
 17 38  1  0  0  0  0
 17 39  1  0  0  0  0
 18 40  1  0  0  0  0
 18 41  1  0  0  0  0
 18 42  1  0  0  0  0
 19 43  1  0  0  0  0
 19 44  1  0  0  0  0
 19 45  1  0  0  0  0
 20 46  1  0  0  0  0
 20 47  1  0  0  0  0
 20 48  1  0  0  0  0
 21 49  1  0  0  0  0
 21 50  1  0  0  0  0
 21 51  1  0  0  0  0
 22 52  1  0  0  0  0
 22 53  1  0  0  0  0
 22 54  1  0  0  0  0
M  END
> <PUBCHEM_COMPOUND_CID>
523329
> <PUBCHEM_COMPOUND_CANONICALIZED>
1
> <PUBCHEM_CACTVS_COMPLEXITY>
418
> <PUBCHEM_CACTVS_HBOND_ACCEPTOR>
5
> <PUBCHEM_CACTVS_HBOND_DONOR>
0
> <PUBCHEM_CACTVS_ROTATABLE_BOND>
9
> <PUBCHEM_CACTVS_SUBSKEYS>
AAADcfBwOAwAAAAAAAAAAAAAAAAAAAAAAAAAAAAAAAAAAAAAAAAAGhAAAEAADESAgABCCAAAAAEIAACQCAIAAAAAAAAAAAFAAAABABQAAAAAAAAFIAAAAABDAAAIAAAAAAAAAAAAAAAAAAAAAAAAAAAAAA==
> <PUBCHEM_IUPAC_OPENEYE_NAME>
bis(trimethylsilyl) (2R)-2-methyl-2-trimethylsilyloxy-butanedioate
> <PUBCHEM_IUPAC_CAS_NAME>
(2R)-2-methyl-2-trimethylsilyloxybutanedioic acid bis(trimethylsilyl) ester
> <PUBCHEM_IUPAC_NAME_MARKUP>
bis(trimethylsilyl) (2<I>R</I>)-2-methyl-2-trimethylsilyloxybutanedioate
> <PUBCHEM_IUPAC_NAME>
bis(trimethylsilyl) (2R)-2-methyl-2-trimethylsilyloxybutanedioate
> <PUBCHEM_IUPAC_SYSTEMATIC_NAME>
bis(trimethylsilyl) (2R)-2-methyl-2-trimethylsilyloxy-butanedioate
> <PUBCHEM_IUPAC_TRADITIONAL_NAME>
(2R)-2-methyl-2-trimethylsilyloxy-succinic acid bis(trimethylsilyl) ester
> <PUBCHEM_IUPAC_INCHI>
InChI=1S/C14H32O5Si3/c1-14(19-22(8,9)10,13(16)18-21(5,6)7)11-12(15)17-20(2,3)4/h11H2,1-10H3/t14-/m1/s1
> <PUBCHEM_IUPAC_INCHIKEY>
PQUDIQABDWAPQW-CQSZACIVSA-N
> <PUBCHEM_EXACT_MASS>
364.15575372
> <PUBCHEM_MOLECULAR_FORMULA>
C14H32O5Si3
> <PUBCHEM_MOLECULAR_WEIGHT>
364.66
> <PUBCHEM_OPENEYE_CAN_SMILES>
CC(CC(=O)O[Si](C)(C)C)(C(=O)O[Si](C)(C)C)O[Si](C)(C)C
> <PUBCHEM_OPENEYE_ISO_SMILES>
C[C@@](CC(=O)O[Si](C)(C)C)(C(=O)O[Si](C)(C)C)O[Si](C)(C)C
> <PUBCHEM_CACTVS_TPSA>
61.8
> <PUBCHEM_MONOISOTOPIC_WEIGHT>
364.15575372
> <PUBCHEM_TOTAL_CHARGE>
0
> <PUBCHEM_HEAVY_ATOM_COUNT>
22
> <PUBCHEM_ATOM_DEF_STEREO_COUNT>
1
> <PUBCHEM_ATOM_UDEF_STEREO_COUNT>
0
> <PUBCHEM_BOND_DEF_STEREO_COUNT>
0
> <PUBCHEM_BOND_UDEF_STEREO_COUNT>
0
> <PUBCHEM_ISOTOPIC_ATOM_COUNT>
0
> <PUBCHEM_COMPONENT_COUNT>
1
> <PUBCHEM_CACTVS_TAUTO_COUNT>
-1
> <PUBCHEM_COORDINATE_TYPE>
1
5
255
> <PUBCHEM_BONDANNOTATIONS>
9  4  6
$$$$
