523375
  -OEChem-10302200292D
 52 51  0     1  0  0  0  0  0999 V2000
    4.5981   -1.0670    0.0000 Si  0  0  0  0  0  0  0  0  0  0  0  0
    8.0622    0.9330    0.0000 Si  0  0  0  0  0  0  0  0  0  0  0  0
    2.8660    0.9330    0.0000 Si  0  0  0  0  0  0  0  0  0  0  0  0
    5.4641   -0.5670    0.0000 O   0  0  0  0  0  0  0  0  0  0  0  0
    7.1962    0.4330    0.0000 O   0  0  0  0  0  0  0  0  0  0  0  0
    3.7320    0.4330    0.0000 O   0  0  0  0  0  0  0  0  0  0  0  0
    4.5981    1.9330    0.0000 O   0  0  0  0  0  0  0  0  0  0  0  0
    5.4641    0.4330    0.0000 C   0  0  1  0  0  0  0  0  0  0  0  0
    6.3301    0.9330    0.0000 C   0  0  2  0  0  0  0  0  0  0  0  0
    6.3301    1.9330    0.0000 C   0  0  0  0  0  0  0  0  0  0  0  0
    4.5981    0.9330    0.0000 C   0  0  0  0  0  0  0  0  0  0  0  0
    3.7320   -1.5670    0.0000 C   0  0  0  0  0  0  0  0  0  0  0  0
    5.0981   -1.9330    0.0000 C   0  0  0  0  0  0  0  0  0  0  0  0
    4.0981   -0.2010    0.0000 C   0  0  0  0  0  0  0  0  0  0  0  0
    8.9282    1.4330    0.0000 C   0  0  0  0  0  0  0  0  0  0  0  0
    8.5622    0.0670    0.0000 C   0  0  0  0  0  0  0  0  0  0  0  0
    7.5622    1.7990    0.0000 C   0  0  0  0  0  0  0  0  0  0  0  0
    2.0000    1.4330    0.0000 C   0  0  0  0  0  0  0  0  0  0  0  0
    2.3660    0.0670    0.0000 C   0  0  0  0  0  0  0  0  0  0  0  0
    3.3660    1.7990    0.0000 C   0  0  0  0  0  0  0  0  0  0  0  0
    6.0010    0.1230    0.0000 H   0  0  0  0  0  0  0  0  0  0  0  0
    6.8671    1.2430    0.0000 H   0  0  0  0  0  0  0  0  0  0  0  0
    6.9501    1.9330    0.0000 H   0  0  0  0  0  0  0  0  0  0  0  0
    6.3301    2.5530    0.0000 H   0  0  0  0  0  0  0  0  0  0  0  0
    5.7101    1.9330    0.0000 H   0  0  0  0  0  0  0  0  0  0  0  0
    3.4220   -1.0300    0.0000 H   0  0  0  0  0  0  0  0  0  0  0  0
    3.1951   -1.8770    0.0000 H   0  0  0  0  0  0  0  0  0  0  0  0
    4.0420   -2.1039    0.0000 H   0  0  0  0  0  0  0  0  0  0  0  0
    4.5611   -2.2430    0.0000 H   0  0  0  0  0  0  0  0  0  0  0  0
    5.4081   -2.4700    0.0000 H   0  0  0  0  0  0  0  0  0  0  0  0
    5.6350   -1.6230    0.0000 H   0  0  0  0  0  0  0  0  0  0  0  0
    4.6350    0.1090    0.0000 H   0  0  0  0  0  0  0  0  0  0  0  0
    3.7881    0.3360    0.0000 H   0  0  0  0  0  0  0  0  0  0  0  0
    3.5611   -0.5110    0.0000 H   0  0  0  0  0  0  0  0  0  0  0  0
    9.2382    0.8961    0.0000 H   0  0  0  0  0  0  0  0  0  0  0  0
    9.4651    1.7430    0.0000 H   0  0  0  0  0  0  0  0  0  0  0  0
    8.6182    1.9700    0.0000 H   0  0  0  0  0  0  0  0  0  0  0  0
    8.0252   -0.2430    0.0000 H   0  0  0  0  0  0  0  0  0  0  0  0
    8.8722   -0.4699    0.0000 H   0  0  0  0  0  0  0  0  0  0  0  0
    9.0991    0.3770    0.0000 H   0  0  0  0  0  0  0  0  0  0  0  0
    8.0991    2.1090    0.0000 H   0  0  0  0  0  0  0  0  0  0  0  0
    7.2522    2.3360    0.0000 H   0  0  0  0  0  0  0  0  0  0  0  0
    7.0252    1.4890    0.0000 H   0  0  0  0  0  0  0  0  0  0  0  0
    2.3100    1.9700    0.0000 H   0  0  0  0  0  0  0  0  0  0  0  0
    1.4631    1.7430    0.0000 H   0  0  0  0  0  0  0  0  0  0  0  0
    1.6900    0.8961    0.0000 H   0  0  0  0  0  0  0  0  0  0  0  0
    1.8291    0.3770    0.0000 H   0  0  0  0  0  0  0  0  0  0  0  0
    2.0560   -0.4699    0.0000 H   0  0  0  0  0  0  0  0  0  0  0  0
    2.9030   -0.2430    0.0000 H   0  0  0  0  0  0  0  0  0  0  0  0
    3.9030    1.4890    0.0000 H   0  0  0  0  0  0  0  0  0  0  0  0
    3.6760    2.3360    0.0000 H   0  0  0  0  0  0  0  0  0  0  0  0
    2.8291    2.1090    0.0000 H   0  0  0  0  0  0  0  0  0  0  0  0
  1  4  1  0  0  0  0
  1 12  1  0  0  0  0
  1 13  1  0  0  0  0
  1 14  1  0  0  0  0
  2  5  1  0  0  0  0
  2 15  1  0  0  0  0
  2 16  1  0  0  0  0
  2 17  1  0  0  0  0
  3  6  1  0  0  0  0
  3 18  1  0  0  0  0
  3 19  1  0  0  0  0
  3 20  1  0  0  0  0
  8  4  1  6  0  0  0
  9  5  1  6  0  0  0
  6 11  1  0  0  0  0
  7 11  2  0  0  0  0
  8  9  1  0  0  0  0
  8 11  1  0  0  0  0
  8 21  1  0  0  0  0
  9 10  1  0  0  0  0
  9 22  1  0  0  0  0
 10 23  1  0  0  0  0
 10 24  1  0  0  0  0
 10 25  1  0  0  0  0
 12 26  1  0  0  0  0
 12 27  1  0  0  0  0
 12 28  1  0  0  0  0
 13 29  1  0  0  0  0
 13 30  1  0  0  0  0
 13 31  1  0  0  0  0
 14 32  1  0  0  0  0
 14 33  1  0  0  0  0
 14 34  1  0  0  0  0
 15 35  1  0  0  0  0
 15 36  1  0  0  0  0
 15 37  1  0  0  0  0
 16 38  1  0  0  0  0
 16 39  1  0  0  0  0
 16 40  1  0  0  0  0
 17 41  1  0  0  0  0
 17 42  1  0  0  0  0
 17 43  1  0  0  0  0
 18 44  1  0  0  0  0
 18 45  1  0  0  0  0
 18 46  1  0  0  0  0
 19 47  1  0  0  0  0
 19 48  1  0  0  0  0
 19 49  1  0  0  0  0
 20 50  1  0  0  0  0
 20 51  1  0  0  0  0
 20 52  1  0  0  0  0
M  END
> <PUBCHEM_COMPOUND_CID>
523375
> <PUBCHEM_COMPOUND_CANONICALIZED>
1
> <PUBCHEM_CACTVS_COMPLEXITY>
326
> <PUBCHEM_CACTVS_HBOND_ACCEPTOR>
4
> <PUBCHEM_CACTVS_HBOND_DONOR>
0
> <PUBCHEM_CACTVS_ROTATABLE_BOND>
8
> <PUBCHEM_CACTVS_SUBSKEYS>
AAADcfBwOAwAAAAAAAAAAAAAAAAAAAAAAAAAAAAAAAAAAAAAAAAAGhAAAEAACBSggAJCCAAAAAEIAACQCAIAAAAAAAAAAAFAAAABABQAAAAAAAAFIAAAAAAAAAAAAAAAAAAAAAAAAAAAAAAAAAAAAAAAAA==
> <PUBCHEM_IUPAC_OPENEYE_NAME>
trimethylsilyl (2S,3S)-2,3-bis(trimethylsilyloxy)butanoate
> <PUBCHEM_IUPAC_CAS_NAME>
(2S,3S)-2,3-bis(trimethylsilyloxy)butanoic acid trimethylsilyl ester
> <PUBCHEM_IUPAC_NAME_MARKUP>
trimethylsilyl (2<I>S</I>,3<I>S</I>)-2,3-bis(trimethylsilyloxy)butanoate
> <PUBCHEM_IUPAC_NAME>
trimethylsilyl (2S,3S)-2,3-bis(trimethylsilyloxy)butanoate
> <PUBCHEM_IUPAC_SYSTEMATIC_NAME>
trimethylsilyl (2S,3S)-2,3-bis(trimethylsilyloxy)butanoate
> <PUBCHEM_IUPAC_TRADITIONAL_NAME>
(2S,3S)-2,3-bis(trimethylsilyloxy)butyric acid trimethylsilyl ester
> <PUBCHEM_IUPAC_INCHI>
InChI=1S/C13H32O4Si3/c1-11(15-18(2,3)4)12(16-19(5,6)7)13(14)17-20(8,9)10/h11-12H,1-10H3/t11-,12-/m0/s1
> <PUBCHEM_IUPAC_INCHIKEY>
UFQZVEYAONLNKN-RYUDHWBXSA-N
> <PUBCHEM_EXACT_MASS>
336.16083910
> <PUBCHEM_MOLECULAR_FORMULA>
C13H32O4Si3
> <PUBCHEM_MOLECULAR_WEIGHT>
336.65
> <PUBCHEM_OPENEYE_CAN_SMILES>
CC(C(C(=O)O[Si](C)(C)C)O[Si](C)(C)C)O[Si](C)(C)C
> <PUBCHEM_OPENEYE_ISO_SMILES>
C[C@@H]([C@@H](C(=O)O[Si](C)(C)C)O[Si](C)(C)C)O[Si](C)(C)C
> <PUBCHEM_CACTVS_TPSA>
44.8
> <PUBCHEM_MONOISOTOPIC_WEIGHT>
336.16083910
> <PUBCHEM_TOTAL_CHARGE>
0
> <PUBCHEM_HEAVY_ATOM_COUNT>
20
> <PUBCHEM_ATOM_DEF_STEREO_COUNT>
2
> <PUBCHEM_ATOM_UDEF_STEREO_COUNT>
0
> <PUBCHEM_BOND_DEF_STEREO_COUNT>
0
> <PUBCHEM_BOND_UDEF_STEREO_COUNT>
0
> <PUBCHEM_ISOTOPIC_ATOM_COUNT>
0
> <PUBCHEM_COMPONENT_COUNT>
1
> <PUBCHEM_CACTVS_TAUTO_COUNT>
-1
> <PUBCHEM_COORDINATE_TYPE>
1
5
255
> <PUBCHEM_BONDANNOTATIONS>
8  4  6
9  5  6
$$$$
