523312
  -OEChem-10302200292D
 44 44  0     1  0  0  0  0  0999 V2000
    8.3982   -1.9594    0.0000 Si  0  0  0  0  0  0  0  0  0  0  0  0
    2.8090    2.1014    0.0000 Si  0  0  0  0  0  0  0  0  0  0  0  0
    5.4791   -0.9510    0.0000 O   0  0  0  0  0  0  0  0  0  0  0  0
    7.4471   -1.6503    0.0000 O   0  0  0  0  0  0  0  0  0  0  0  0
    3.3968    1.2924    0.0000 O   0  0  0  0  0  0  0  0  0  0  0  0
    4.7981    2.3104    0.0000 O   0  0  0  0  0  0  0  0  0  0  0  0
    4.9791    0.5879    0.0000 C   0  0  3  0  0  0  0  0  0  0  0  0
    6.2881   -0.3632    0.0000 C   0  0  3  0  0  0  0  0  0  0  0  0
    5.9791    0.5879    0.0000 C   0  0  0  0  0  0  0  0  0  0  0  0
    4.6701   -0.3632    0.0000 C   0  0  0  0  0  0  0  0  0  0  0  0
    7.2392   -0.6722    0.0000 C   0  0  0  0  0  0  0  0  0  0  0  0
    4.3913    1.3969    0.0000 C   0  0  0  0  0  0  0  0  0  0  0  0
    9.3492   -2.2684    0.0000 C   0  0  0  0  0  0  0  0  0  0  0  0
    8.0891   -2.9104    0.0000 C   0  0  0  0  0  0  0  0  0  0  0  0
    8.7072   -1.0083    0.0000 C   0  0  0  0  0  0  0  0  0  0  0  0
    2.2212    2.9104    0.0000 C   0  0  0  0  0  0  0  0  0  0  0  0
    2.0000    1.5136    0.0000 C   0  0  0  0  0  0  0  0  0  0  0  0
    3.6180    2.6892    0.0000 C   0  0  0  0  0  0  0  0  0  0  0  0
    4.3667    0.4909    0.0000 H   0  0  0  0  0  0  0  0  0  0  0  0
    6.3851   -0.9755    0.0000 H   0  0  0  0  0  0  0  0  0  0  0  0
    6.5856    0.7168    0.0000 H   0  0  0  0  0  0  0  0  0  0  0  0
    5.9143    1.2045    0.0000 H   0  0  0  0  0  0  0  0  0  0  0  0
    4.1037   -0.1110    0.0000 H   0  0  0  0  0  0  0  0  0  0  0  0
    4.3601   -0.9001    0.0000 H   0  0  0  0  0  0  0  0  0  0  0  0
    7.8588   -0.6506    0.0000 H   0  0  0  0  0  0  0  0  0  0  0  0
    7.3255   -0.0582    0.0000 H   0  0  0  0  0  0  0  0  0  0  0  0
    9.1576   -2.8580    0.0000 H   0  0  0  0  0  0  0  0  0  0  0  0
    9.9389   -2.4600    0.0000 H   0  0  0  0  0  0  0  0  0  0  0  0
    9.5408   -1.6787    0.0000 H   0  0  0  0  0  0  0  0  0  0  0  0
    7.4995   -2.7188    0.0000 H   0  0  0  0  0  0  0  0  0  0  0  0
    7.8975   -3.5001    0.0000 H   0  0  0  0  0  0  0  0  0  0  0  0
    8.6788   -3.1020    0.0000 H   0  0  0  0  0  0  0  0  0  0  0  0
    9.2968   -1.1999    0.0000 H   0  0  0  0  0  0  0  0  0  0  0  0
    8.8988   -0.4186    0.0000 H   0  0  0  0  0  0  0  0  0  0  0  0
    8.1175   -0.8167    0.0000 H   0  0  0  0  0  0  0  0  0  0  0  0
    2.7228    3.2748    0.0000 H   0  0  0  0  0  0  0  0  0  0  0  0
    1.8568    3.4120    0.0000 H   0  0  0  0  0  0  0  0  0  0  0  0
    1.7196    2.5460    0.0000 H   0  0  0  0  0  0  0  0  0  0  0  0
    1.6356    2.0152    0.0000 H   0  0  0  0  0  0  0  0  0  0  0  0
    1.4984    1.1492    0.0000 H   0  0  0  0  0  0  0  0  0  0  0  0
    2.3644    1.0120    0.0000 H   0  0  0  0  0  0  0  0  0  0  0  0
    3.9825    2.1876    0.0000 H   0  0  0  0  0  0  0  0  0  0  0  0
    4.1196    3.0536    0.0000 H   0  0  0  0  0  0  0  0  0  0  0  0
    3.2536    3.1908    0.0000 H   0  0  0  0  0  0  0  0  0  0  0  0
  1  4  1  0  0  0  0
  1 13  1  0  0  0  0
  1 14  1  0  0  0  0
  1 15  1  0  0  0  0
  2  5  1  0  0  0  0
  2 16  1  0  0  0  0
  2 17  1  0  0  0  0
  2 18  1  0  0  0  0
  3  8  1  0  0  0  0
  3 10  1  0  0  0  0
  4 11  1  0  0  0  0
  5 12  1  0  0  0  0
  6 12  2  0  0  0  0
  7  9  1  0  0  0  0
  7 10  1  0  0  0  0
  7 12  1  0  0  0  0
  7 19  1  0  0  0  0
  8  9  1  0  0  0  0
  8 11  1  0  0  0  0
  8 20  1  0  0  0  0
  9 21  1  0  0  0  0
  9 22  1  0  0  0  0
 10 23  1  0  0  0  0
 10 24  1  0  0  0  0
 11 25  1  0  0  0  0
 11 26  1  0  0  0  0
 13 27  1  0  0  0  0
 13 28  1  0  0  0  0
 13 29  1  0  0  0  0
 14 30  1  0  0  0  0
 14 31  1  0  0  0  0
 14 32  1  0  0  0  0
 15 33  1  0  0  0  0
 15 34  1  0  0  0  0
 15 35  1  0  0  0  0
 16 36  1  0  0  0  0
 16 37  1  0  0  0  0
 16 38  1  0  0  0  0
 17 39  1  0  0  0  0
 17 40  1  0  0  0  0
 17 41  1  0  0  0  0
 18 42  1  0  0  0  0
 18 43  1  0  0  0  0
 18 44  1  0  0  0  0
M  END
> <PUBCHEM_COMPOUND_CID>
523312
> <PUBCHEM_COMPOUND_CANONICALIZED>
1
> <PUBCHEM_CACTVS_COMPLEXITY>
293
> <PUBCHEM_CACTVS_HBOND_ACCEPTOR>
4
> <PUBCHEM_CACTVS_HBOND_DONOR>
0
> <PUBCHEM_CACTVS_ROTATABLE_BOND>
6
> <PUBCHEM_CACTVS_SUBSKEYS>
AAADceBwOAwAAAAAAAAAAAAAAAAAASAAAAAAAAAAAAAAAAAAAAAAGhAAAEAADRSggAJCCAAABAEIAACQCAAAAAAAAAAAAAEAAAABABYAAAACAAAFIAACAADKJAAMAAAAAAAAAAAAAAAAAAAAAAAAAAAAAA==
> <PUBCHEM_IUPAC_OPENEYE_NAME>
trimethylsilyl 5-(trimethylsilyloxymethyl)tetrahydrofuran-3-carboxylate
> <PUBCHEM_IUPAC_CAS_NAME>
5-(trimethylsilyloxymethyl)-3-oxolanecarboxylic acid trimethylsilyl ester
> <PUBCHEM_IUPAC_NAME_MARKUP>
trimethylsilyl 5-(trimethylsilyloxymethyl)oxolane-3-carboxylate
> <PUBCHEM_IUPAC_NAME>
trimethylsilyl 5-(trimethylsilyloxymethyl)oxolane-3-carboxylate
> <PUBCHEM_IUPAC_SYSTEMATIC_NAME>
trimethylsilyl 5-(trimethylsilyloxymethyl)oxolane-3-carboxylate
> <PUBCHEM_IUPAC_TRADITIONAL_NAME>
5-(trimethylsilyloxymethyl)tetrahydrofuran-3-carboxylic acid trimethylsilyl ester
> <PUBCHEM_IUPAC_INCHI>
InChI=1S/C12H26O4Si2/c1-17(2,3)15-9-11-7-10(8-14-11)12(13)16-18(4,5)6/h10-11H,7-9H2,1-6H3
> <PUBCHEM_IUPAC_INCHIKEY>
IEVXRVGHUBGOBQ-UHFFFAOYSA-N
> <PUBCHEM_EXACT_MASS>
290.13696238
> <PUBCHEM_MOLECULAR_FORMULA>
C12H26O4Si2
> <PUBCHEM_MOLECULAR_WEIGHT>
290.50
> <PUBCHEM_OPENEYE_CAN_SMILES>
C[Si](C)(C)OCC1CC(CO1)C(=O)O[Si](C)(C)C
> <PUBCHEM_OPENEYE_ISO_SMILES>
C[Si](C)(C)OCC1CC(CO1)C(=O)O[Si](C)(C)C
> <PUBCHEM_CACTVS_TPSA>
44.8
> <PUBCHEM_MONOISOTOPIC_WEIGHT>
290.13696238
> <PUBCHEM_TOTAL_CHARGE>
0
> <PUBCHEM_HEAVY_ATOM_COUNT>
18
> <PUBCHEM_ATOM_DEF_STEREO_COUNT>
0
> <PUBCHEM_ATOM_UDEF_STEREO_COUNT>
2
> <PUBCHEM_BOND_DEF_STEREO_COUNT>
0
> <PUBCHEM_BOND_UDEF_STEREO_COUNT>
0
> <PUBCHEM_ISOTOPIC_ATOM_COUNT>
0
> <PUBCHEM_COMPONENT_COUNT>
1
> <PUBCHEM_CACTVS_TAUTO_COUNT>
-1
> <PUBCHEM_COORDINATE_TYPE>
1
5
255
> <PUBCHEM_BONDANNOTATIONS>
7  12  3
8  11  3
$$$$
