523383
  -OEChem-10302200292D
 97 96  0     1  0  0  0  0  0999 V2000
    7.1962    1.7500    0.0000 Si  0  0  0  0  0  0  0  0  0  0  0  0
    4.5981   -1.7500    0.0000 Si  0  0  0  0  0  0  0  0  0  0  0  0
    8.9282   -0.2500    0.0000 Si  0  0  0  0  0  0  0  0  0  0  0  0
    2.8660    0.2500    0.0000 Si  0  0  0  0  0  0  0  0  0  0  0  0
    8.0622   -2.7500    0.0000 Si  0  0  0  0  0  0  0  0  0  0  0  0
    3.7320    2.7500    0.0000 Si  0  0  0  0  0  0  0  0  0  0  0  0
    6.3301    1.2500    0.0000 O   0  0  0  0  0  0  0  0  0  0  0  0
    5.4641   -1.2500    0.0000 O   0  0  0  0  0  0  0  0  0  0  0  0
    8.0622    0.2500    0.0000 O   0  0  0  0  0  0  0  0  0  0  0  0
    3.7320   -0.2500    0.0000 O   0  0  0  0  0  0  0  0  0  0  0  0
    8.0622   -1.7500    0.0000 O   0  0  0  0  0  0  0  0  0  0  0  0
    3.7320    1.7500    0.0000 O   0  0  0  0  0  0  0  0  0  0  0  0
    5.4641    1.7500    0.0000 O   0  0  0  0  0  0  0  0  0  0  0  0
    6.3301    0.2500    0.0000 C   0  0  2  0  0  0  0  0  0  0  0  0
    5.4641   -0.2500    0.0000 C   0  0  1  0  0  0  0  0  0  0  0  0
    7.1962   -0.2500    0.0000 C   0  0  2  0  0  0  0  0  0  0  0  0
    4.5981    0.2500    0.0000 C   0  0  1  0  0  0  0  0  0  0  0  0
    7.1962   -1.2500    0.0000 C   0  0  0  0  0  0  0  0  0  0  0  0
    4.5981    1.2500    0.0000 C   0  0  0  0  0  0  0  0  0  0  0  0
    8.0622    2.2500    0.0000 C   0  0  0  0  0  0  0  0  0  0  0  0
    6.6962    2.6160    0.0000 C   0  0  0  0  0  0  0  0  0  0  0  0
    7.6962    0.8840    0.0000 C   0  0  0  0  0  0  0  0  0  0  0  0
    5.0981   -2.6160    0.0000 C   0  0  0  0  0  0  0  0  0  0  0  0
    3.7320   -2.2500    0.0000 C   0  0  0  0  0  0  0  0  0  0  0  0
    4.0981   -0.8840    0.0000 C   0  0  0  0  0  0  0  0  0  0  0  0
    9.7942   -0.7500    0.0000 C   0  0  0  0  0  0  0  0  0  0  0  0
    9.4282    0.6160    0.0000 C   0  0  0  0  0  0  0  0  0  0  0  0
    8.4282   -1.1160    0.0000 C   0  0  0  0  0  0  0  0  0  0  0  0
    2.0000    0.7500    0.0000 C   0  0  0  0  0  0  0  0  0  0  0  0
    2.3660   -0.6160    0.0000 C   0  0  0  0  0  0  0  0  0  0  0  0
    3.3660    1.1160    0.0000 C   0  0  0  0  0  0  0  0  0  0  0  0
    8.0622   -3.7500    0.0000 C   0  0  0  0  0  0  0  0  0  0  0  0
    9.0622   -2.7500    0.0000 C   0  0  0  0  0  0  0  0  0  0  0  0
    7.0622   -2.7500    0.0000 C   0  0  0  0  0  0  0  0  0  0  0  0
    3.7320    3.7500    0.0000 C   0  0  0  0  0  0  0  0  0  0  0  0
    2.7320    2.7500    0.0000 C   0  0  0  0  0  0  0  0  0  0  0  0
    4.7320    2.7500    0.0000 C   0  0  0  0  0  0  0  0  0  0  0  0
    6.8671    0.5600    0.0000 H   0  0  0  0  0  0  0  0  0  0  0  0
    6.0010   -0.5600    0.0000 H   0  0  0  0  0  0  0  0  0  0  0  0
    7.7331   -0.5600    0.0000 H   0  0  0  0  0  0  0  0  0  0  0  0
    4.5981   -0.3700    0.0000 H   0  0  0  0  0  0  0  0  0  0  0  0
    6.5856   -1.1423    0.0000 H   0  0  0  0  0  0  0  0  0  0  0  0
    6.9841   -1.8326    0.0000 H   0  0  0  0  0  0  0  0  0  0  0  0
    8.3722    1.7131    0.0000 H   0  0  0  0  0  0  0  0  0  0  0  0
    8.5991    2.5600    0.0000 H   0  0  0  0  0  0  0  0  0  0  0  0
    7.7522    2.7869    0.0000 H   0  0  0  0  0  0  0  0  0  0  0  0
    7.2331    2.9260    0.0000 H   0  0  0  0  0  0  0  0  0  0  0  0
    6.3862    3.1530    0.0000 H   0  0  0  0  0  0  0  0  0  0  0  0
    6.1592    2.3060    0.0000 H   0  0  0  0  0  0  0  0  0  0  0  0
    7.1592    0.5740    0.0000 H   0  0  0  0  0  0  0  0  0  0  0  0
    8.0062    0.3470    0.0000 H   0  0  0  0  0  0  0  0  0  0  0  0
    8.2331    1.1940    0.0000 H   0  0  0  0  0  0  0  0  0  0  0  0
    4.5611   -2.9260    0.0000 H   0  0  0  0  0  0  0  0  0  0  0  0
    5.4081   -3.1530    0.0000 H   0  0  0  0  0  0  0  0  0  0  0  0
    5.6350   -2.3060    0.0000 H   0  0  0  0  0  0  0  0  0  0  0  0
    3.4220   -1.7131    0.0000 H   0  0  0  0  0  0  0  0  0  0  0  0
    3.1951   -2.5600    0.0000 H   0  0  0  0  0  0  0  0  0  0  0  0
    4.0420   -2.7869    0.0000 H   0  0  0  0  0  0  0  0  0  0  0  0
    4.6350   -0.5740    0.0000 H   0  0  0  0  0  0  0  0  0  0  0  0
    3.7881   -0.3470    0.0000 H   0  0  0  0  0  0  0  0  0  0  0  0
    3.5611   -1.1940    0.0000 H   0  0  0  0  0  0  0  0  0  0  0  0
    9.4842   -1.2869    0.0000 H   0  0  0  0  0  0  0  0  0  0  0  0
   10.3312   -1.0600    0.0000 H   0  0  0  0  0  0  0  0  0  0  0  0
   10.1042   -0.2131    0.0000 H   0  0  0  0  0  0  0  0  0  0  0  0
    9.9651    0.3060    0.0000 H   0  0  0  0  0  0  0  0  0  0  0  0
    9.7382    1.1530    0.0000 H   0  0  0  0  0  0  0  0  0  0  0  0
    8.8913    0.9260    0.0000 H   0  0  0  0  0  0  0  0  0  0  0  0
    7.8913   -0.8060    0.0000 H   0  0  0  0  0  0  0  0  0  0  0  0
    8.1182   -1.6530    0.0000 H   0  0  0  0  0  0  0  0  0  0  0  0
    8.9651   -1.4260    0.0000 H   0  0  0  0  0  0  0  0  0  0  0  0
    2.3100    1.2869    0.0000 H   0  0  0  0  0  0  0  0  0  0  0  0
    1.4631    1.0600    0.0000 H   0  0  0  0  0  0  0  0  0  0  0  0
    1.6900    0.2131    0.0000 H   0  0  0  0  0  0  0  0  0  0  0  0
    1.8291   -0.3060    0.0000 H   0  0  0  0  0  0  0  0  0  0  0  0
    2.0560   -1.1530    0.0000 H   0  0  0  0  0  0  0  0  0  0  0  0
    2.9030   -0.9260    0.0000 H   0  0  0  0  0  0  0  0  0  0  0  0
    3.9030    0.8060    0.0000 H   0  0  0  0  0  0  0  0  0  0  0  0
    3.6760    1.6530    0.0000 H   0  0  0  0  0  0  0  0  0  0  0  0
    2.8291    1.4260    0.0000 H   0  0  0  0  0  0  0  0  0  0  0  0
    7.4422   -3.7500    0.0000 H   0  0  0  0  0  0  0  0  0  0  0  0
    8.0622   -4.3700    0.0000 H   0  0  0  0  0  0  0  0  0  0  0  0
    8.6822   -3.7500    0.0000 H   0  0  0  0  0  0  0  0  0  0  0  0
    9.0622   -3.3700    0.0000 H   0  0  0  0  0  0  0  0  0  0  0  0
    9.6822   -2.7500    0.0000 H   0  0  0  0  0  0  0  0  0  0  0  0
    9.0622   -2.1300    0.0000 H   0  0  0  0  0  0  0  0  0  0  0  0
    7.0622   -2.1300    0.0000 H   0  0  0  0  0  0  0  0  0  0  0  0
    6.4422   -2.7500    0.0000 H   0  0  0  0  0  0  0  0  0  0  0  0
    7.0622   -3.3700    0.0000 H   0  0  0  0  0  0  0  0  0  0  0  0
    4.3520    3.7500    0.0000 H   0  0  0  0  0  0  0  0  0  0  0  0
    3.7320    4.3700    0.0000 H   0  0  0  0  0  0  0  0  0  0  0  0
    3.1120    3.7500    0.0000 H   0  0  0  0  0  0  0  0  0  0  0  0
    2.7320    3.3700    0.0000 H   0  0  0  0  0  0  0  0  0  0  0  0
    2.1120    2.7500    0.0000 H   0  0  0  0  0  0  0  0  0  0  0  0
    2.7320    2.1300    0.0000 H   0  0  0  0  0  0  0  0  0  0  0  0
    4.7320    2.1300    0.0000 H   0  0  0  0  0  0  0  0  0  0  0  0
    5.3520    2.7500    0.0000 H   0  0  0  0  0  0  0  0  0  0  0  0
    4.7320    3.3700    0.0000 H   0  0  0  0  0  0  0  0  0  0  0  0
  1  7  1  0  0  0  0
  1 20  1  0  0  0  0
  1 21  1  0  0  0  0
  1 22  1  0  0  0  0
  2  8  1  0  0  0  0
  2 23  1  0  0  0  0
  2 24  1  0  0  0  0
  2 25  1  0  0  0  0
  3  9  1  0  0  0  0
  3 26  1  0  0  0  0
  3 27  1  0  0  0  0
  3 28  1  0  0  0  0
  4 10  1  0  0  0  0
  4 29  1  0  0  0  0
  4 30  1  0  0  0  0
  4 31  1  0  0  0  0
  5 11  1  0  0  0  0
  5 32  1  0  0  0  0
  5 33  1  0  0  0  0
  5 34  1  0  0  0  0
  6 12  1  0  0  0  0
  6 35  1  0  0  0  0
  6 36  1  0  0  0  0
  6 37  1  0  0  0  0
 14  7  1  1  0  0  0
 15  8  1  6  0  0  0
 16  9  1  1  0  0  0
 17 10  1  6  0  0  0
 11 18  1  0  0  0  0
 12 19  1  0  0  0  0
 13 19  2  0  0  0  0
 14 15  1  0  0  0  0
 14 16  1  0  0  0  0
 14 38  1  0  0  0  0
 15 17  1  0  0  0  0
 15 39  1  0  0  0  0
 16 18  1  0  0  0  0
 16 40  1  0  0  0  0
 17 19  1  0  0  0  0
 17 41  1  0  0  0  0
 18 42  1  0  0  0  0
 18 43  1  0  0  0  0
 20 44  1  0  0  0  0
 20 45  1  0  0  0  0
 20 46  1  0  0  0  0
 21 47  1  0  0  0  0
 21 48  1  0  0  0  0
 21 49  1  0  0  0  0
 22 50  1  0  0  0  0
 22 51  1  0  0  0  0
 22 52  1  0  0  0  0
 23 53  1  0  0  0  0
 23 54  1  0  0  0  0
 23 55  1  0  0  0  0
 24 56  1  0  0  0  0
 24 57  1  0  0  0  0
 24 58  1  0  0  0  0
 25 59  1  0  0  0  0
 25 60  1  0  0  0  0
 25 61  1  0  0  0  0
 26 62  1  0  0  0  0
 26 63  1  0  0  0  0
 26 64  1  0  0  0  0
 27 65  1  0  0  0  0
 27 66  1  0  0  0  0
 27 67  1  0  0  0  0
 28 68  1  0  0  0  0
 28 69  1  0  0  0  0
 28 70  1  0  0  0  0
 29 71  1  0  0  0  0
 29 72  1  0  0  0  0
 29 73  1  0  0  0  0
 30 74  1  0  0  0  0
 30 75  1  0  0  0  0
 30 76  1  0  0  0  0
 31 77  1  0  0  0  0
 31 78  1  0  0  0  0
 31 79  1  0  0  0  0
 32 80  1  0  0  0  0
 32 81  1  0  0  0  0
 32 82  1  0  0  0  0
 33 83  1  0  0  0  0
 33 84  1  0  0  0  0
 33 85  1  0  0  0  0
 34 86  1  0  0  0  0
 34 87  1  0  0  0  0
 34 88  1  0  0  0  0
 35 89  1  0  0  0  0
 35 90  1  0  0  0  0
 35 91  1  0  0  0  0
 36 92  1  0  0  0  0
 36 93  1  0  0  0  0
 36 94  1  0  0  0  0
 37 95  1  0  0  0  0
 37 96  1  0  0  0  0
 37 97  1  0  0  0  0
M  END
> <PUBCHEM_COMPOUND_CID>
523383
> <PUBCHEM_COMPOUND_CANONICALIZED>
1
> <PUBCHEM_CACTVS_COMPLEXITY>
710
> <PUBCHEM_CACTVS_HBOND_ACCEPTOR>
7
> <PUBCHEM_CACTVS_HBOND_DONOR>
0
> <PUBCHEM_CACTVS_ROTATABLE_BOND>
17
> <PUBCHEM_CACTVS_SUBSKEYS>
AAADcfB4OAwAAAAAAAAAAAAAAAAAAAAAAAAAAAAAAAAAAAAAAAAAGhAAAEAACBSggAJCCAAAAAEIAACQCAIAAAAAAAAAAAFAAAABABYAAAAAAAAFIAAAAAHKbARAAAAAAAAAAAAAAAAAAAAAAAAAAAAAAA==
> <PUBCHEM_IUPAC_OPENEYE_NAME>
trimethylsilyl (2S,3S,4S,5S)-2,3,4,5,6-pentakis(trimethylsilyloxy)hexanoate
> <PUBCHEM_IUPAC_CAS_NAME>
(2S,3S,4S,5S)-2,3,4,5,6-pentakis(trimethylsilyloxy)hexanoic acid trimethylsilyl ester
> <PUBCHEM_IUPAC_NAME_MARKUP>
trimethylsilyl (2<I>S</I>,3<I>S</I>,4<I>S</I>,5<I>S</I>)-2,3,4,5,6-pentakis(trimethylsilyloxy)hexanoate
> <PUBCHEM_IUPAC_NAME>
trimethylsilyl (2S,3S,4S,5S)-2,3,4,5,6-pentakis(trimethylsilyloxy)hexanoate
> <PUBCHEM_IUPAC_SYSTEMATIC_NAME>
trimethylsilyl (2S,3S,4S,5S)-2,3,4,5,6-pentakis(trimethylsilyloxy)hexanoate
> <PUBCHEM_IUPAC_TRADITIONAL_NAME>
(2S,3S,4S,5S)-2,3,4,5,6-pentakis(trimethylsilyloxy)hexanoic acid trimethylsilyl ester
> <PUBCHEM_IUPAC_INCHI>
InChI=1S/C24H60O7Si6/c1-32(2,3)26-19-20(27-33(4,5)6)21(28-34(7,8)9)22(29-35(10,11)12)23(30-36(13,14)15)24(25)31-37(16,17)18/h20-23H,19H2,1-18H3/t20-,21-,22-,23-/m0/s1
> <PUBCHEM_IUPAC_INCHIKEY>
IVIMVRAMMWQMHJ-MLCQCVOFSA-N
> <PUBCHEM_EXACT_MASS>
628.29546346
> <PUBCHEM_MOLECULAR_FORMULA>
C24H60O7Si6
> <PUBCHEM_MOLECULAR_WEIGHT>
629.2
> <PUBCHEM_OPENEYE_CAN_SMILES>
C[Si](C)(C)OCC(C(C(C(C(=O)O[Si](C)(C)C)O[Si](C)(C)C)O[Si](C)(C)C)O[Si](C)(C)C)O[Si](C)(C)C
> <PUBCHEM_OPENEYE_ISO_SMILES>
C[Si](C)(C)OC[C@@H]([C@@H]([C@@H]([C@@H](C(=O)O[Si](C)(C)C)O[Si](C)(C)C)O[Si](C)(C)C)O[Si](C)(C)C)O[Si](C)(C)C
> <PUBCHEM_CACTVS_TPSA>
72.4
> <PUBCHEM_MONOISOTOPIC_WEIGHT>
628.29546346
> <PUBCHEM_TOTAL_CHARGE>
0
> <PUBCHEM_HEAVY_ATOM_COUNT>
37
> <PUBCHEM_ATOM_DEF_STEREO_COUNT>
4
> <PUBCHEM_ATOM_UDEF_STEREO_COUNT>
0
> <PUBCHEM_BOND_DEF_STEREO_COUNT>
0
> <PUBCHEM_BOND_UDEF_STEREO_COUNT>
0
> <PUBCHEM_ISOTOPIC_ATOM_COUNT>
0
> <PUBCHEM_COMPONENT_COUNT>
1
> <PUBCHEM_CACTVS_TAUTO_COUNT>
-1
> <PUBCHEM_COORDINATE_TYPE>
1
5
255
> <PUBCHEM_BONDANNOTATIONS>
17  10  6
14  7  5
15  8  6
16  9  5
$$$$
