523388
  -OEChem-10302200292D
 83 82  0     1  0  0  0  0  0999 V2000
    6.3401   -2.6646    0.0000 Si  0  0  0  0  0  0  0  0  0  0  0  0
    5.5851    2.6646    0.0000 Si  0  0  0  0  0  0  0  0  0  0  0  0
    2.9397    2.7059    0.0000 Si  0  0  0  0  0  0  0  0  0  0  0  0
    8.2644   -0.3138    0.0000 Si  0  0  0  0  0  0  0  0  0  0  0  0
    3.0683   -1.3138    0.0000 Si  0  0  0  0  0  0  0  0  0  0  0  0
    6.1664   -1.6798    0.0000 O   0  0  0  0  0  0  0  0  0  0  0  0
    5.7588    1.6798    0.0000 O   0  0  0  0  0  0  0  0  0  0  0  0
    3.8794    2.3639    0.0000 O   0  0  0  0  0  0  0  0  0  0  0  0
    7.3984   -0.8138    0.0000 O   0  0  0  0  0  0  0  0  0  0  0  0
    3.9343   -0.8138    0.0000 O   0  0  0  0  0  0  0  0  0  0  0  0
    6.5324    0.6862    0.0000 O   0  0  0  0  0  0  0  0  0  0  0  0
    4.8004   -2.3138    0.0000 O   0  0  0  0  0  0  0  0  0  0  0  0
    5.6664   -0.8138    0.0000 C   0  0  0  0  0  0  0  0  0  0  0  0
    5.1664    0.0522    0.0000 C   0  0  0  0  0  0  0  0  0  0  0  0
    4.9927    1.0370    0.0000 C   0  0  3  0  0  0  0  0  0  0  0  0
    4.0530    1.3791    0.0000 C   0  0  0  0  0  0  0  0  0  0  0  0
    6.5324   -0.3138    0.0000 C   0  0  0  0  0  0  0  0  0  0  0  0
    4.8004   -1.3138    0.0000 C   0  0  0  0  0  0  0  0  0  0  0  0
    6.5137   -3.6494    0.0000 C   0  0  0  0  0  0  0  0  0  0  0  0
    7.3248   -2.4910    0.0000 C   0  0  0  0  0  0  0  0  0  0  0  0
    5.3552   -2.8382    0.0000 C   0  0  0  0  0  0  0  0  0  0  0  0
    5.4115    3.6494    0.0000 C   0  0  0  0  0  0  0  0  0  0  0  0
    6.5699    2.8383    0.0000 C   0  0  0  0  0  0  0  0  0  0  0  0
    4.6003    2.4910    0.0000 C   0  0  0  0  0  0  0  0  0  0  0  0
    2.0000    3.0479    0.0000 C   0  0  0  0  0  0  0  0  0  0  0  0
    3.2817    3.6456    0.0000 C   0  0  0  0  0  0  0  0  0  0  0  0
    2.5977    1.7662    0.0000 C   0  0  0  0  0  0  0  0  0  0  0  0
    9.1305    0.1862    0.0000 C   0  0  0  0  0  0  0  0  0  0  0  0
    8.7644   -1.1798    0.0000 C   0  0  0  0  0  0  0  0  0  0  0  0
    7.7644    0.5522    0.0000 C   0  0  0  0  0  0  0  0  0  0  0  0
    2.2023   -1.8138    0.0000 C   0  0  0  0  0  0  0  0  0  0  0  0
    2.5683   -0.4478    0.0000 C   0  0  0  0  0  0  0  0  0  0  0  0
    3.5683   -2.1798    0.0000 C   0  0  0  0  0  0  0  0  0  0  0  0
    4.5631    0.1952    0.0000 H   0  0  0  0  0  0  0  0  0  0  0  0
    5.7490    0.2643    0.0000 H   0  0  0  0  0  0  0  0  0  0  0  0
    4.8851    1.6476    0.0000 H   0  0  0  0  0  0  0  0  0  0  0  0
    3.4330    1.3791    0.0000 H   0  0  0  0  0  0  0  0  0  0  0  0
    3.9454    0.7685    0.0000 H   0  0  0  0  0  0  0  0  0  0  0  0
    5.9031   -3.7571    0.0000 H   0  0  0  0  0  0  0  0  0  0  0  0
    6.6214   -4.2600    0.0000 H   0  0  0  0  0  0  0  0  0  0  0  0
    7.1243   -3.5418    0.0000 H   0  0  0  0  0  0  0  0  0  0  0  0
    7.4325   -3.1016    0.0000 H   0  0  0  0  0  0  0  0  0  0  0  0
    7.9354   -2.3833    0.0000 H   0  0  0  0  0  0  0  0  0  0  0  0
    7.2172   -1.8804    0.0000 H   0  0  0  0  0  0  0  0  0  0  0  0
    5.2475   -2.2277    0.0000 H   0  0  0  0  0  0  0  0  0  0  0  0
    4.7446   -2.9459    0.0000 H   0  0  0  0  0  0  0  0  0  0  0  0
    5.4628   -3.4488    0.0000 H   0  0  0  0  0  0  0  0  0  0  0  0
    6.0221    3.7571    0.0000 H   0  0  0  0  0  0  0  0  0  0  0  0
    5.3038    4.2600    0.0000 H   0  0  0  0  0  0  0  0  0  0  0  0
    4.8009    3.5418    0.0000 H   0  0  0  0  0  0  0  0  0  0  0  0
    6.6776    2.2277    0.0000 H   0  0  0  0  0  0  0  0  0  0  0  0
    7.1805    2.9459    0.0000 H   0  0  0  0  0  0  0  0  0  0  0  0
    6.4623    3.4489    0.0000 H   0  0  0  0  0  0  0  0  0  0  0  0
    4.4926    3.1016    0.0000 H   0  0  0  0  0  0  0  0  0  0  0  0
    3.9897    2.3833    0.0000 H   0  0  0  0  0  0  0  0  0  0  0  0
    4.7080    1.8804    0.0000 H   0  0  0  0  0  0  0  0  0  0  0  0
    2.2120    3.6305    0.0000 H   0  0  0  0  0  0  0  0  0  0  0  0
    1.4174    3.2600    0.0000 H   0  0  0  0  0  0  0  0  0  0  0  0
    1.7880    2.4653    0.0000 H   0  0  0  0  0  0  0  0  0  0  0  0
    3.8643    3.4335    0.0000 H   0  0  0  0  0  0  0  0  0  0  0  0
    3.4938    4.2282    0.0000 H   0  0  0  0  0  0  0  0  0  0  0  0
    2.6991    3.8576    0.0000 H   0  0  0  0  0  0  0  0  0  0  0  0
    2.0151    1.9782    0.0000 H   0  0  0  0  0  0  0  0  0  0  0  0
    2.3856    1.1836    0.0000 H   0  0  0  0  0  0  0  0  0  0  0  0
    3.1803    1.5541    0.0000 H   0  0  0  0  0  0  0  0  0  0  0  0
    9.4405   -0.3507    0.0000 H   0  0  0  0  0  0  0  0  0  0  0  0
    9.6674    0.4962    0.0000 H   0  0  0  0  0  0  0  0  0  0  0  0
    8.8205    0.7231    0.0000 H   0  0  0  0  0  0  0  0  0  0  0  0
    8.2275   -1.4898    0.0000 H   0  0  0  0  0  0  0  0  0  0  0  0
    9.0744   -1.7168    0.0000 H   0  0  0  0  0  0  0  0  0  0  0  0
    9.3014   -0.8698    0.0000 H   0  0  0  0  0  0  0  0  0  0  0  0
    8.3014    0.8622    0.0000 H   0  0  0  0  0  0  0  0  0  0  0  0
    7.4544    1.0892    0.0000 H   0  0  0  0  0  0  0  0  0  0  0  0
    7.2275    0.2422    0.0000 H   0  0  0  0  0  0  0  0  0  0  0  0
    1.8923   -1.2769    0.0000 H   0  0  0  0  0  0  0  0  0  0  0  0
    1.6653   -2.1238    0.0000 H   0  0  0  0  0  0  0  0  0  0  0  0
    2.5123   -2.3507    0.0000 H   0  0  0  0  0  0  0  0  0  0  0  0
    3.1052   -0.1378    0.0000 H   0  0  0  0  0  0  0  0  0  0  0  0
    2.2583    0.0892    0.0000 H   0  0  0  0  0  0  0  0  0  0  0  0
    2.0314   -0.7578    0.0000 H   0  0  0  0  0  0  0  0  0  0  0  0
    3.0314   -2.4898    0.0000 H   0  0  0  0  0  0  0  0  0  0  0  0
    3.8783   -2.7168    0.0000 H   0  0  0  0  0  0  0  0  0  0  0  0
    4.1052   -1.8698    0.0000 H   0  0  0  0  0  0  0  0  0  0  0  0
  1  6  1  0  0  0  0
  1 19  1  0  0  0  0
  1 20  1  0  0  0  0
  1 21  1  0  0  0  0
  2  7  1  0  0  0  0
  2 22  1  0  0  0  0
  2 23  1  0  0  0  0
  2 24  1  0  0  0  0
  3  8  1  0  0  0  0
  3 25  1  0  0  0  0
  3 26  1  0  0  0  0
  3 27  1  0  0  0  0
  4  9  1  0  0  0  0
  4 28  1  0  0  0  0
  4 29  1  0  0  0  0
  4 30  1  0  0  0  0
  5 10  1  0  0  0  0
  5 31  1  0  0  0  0
  5 32  1  0  0  0  0
  5 33  1  0  0  0  0
  6 13  1  0  0  0  0
  7 15  1  0  0  0  0
  8 16  1  0  0  0  0
  9 17  1  0  0  0  0
 10 18  1  0  0  0  0
 11 17  2  0  0  0  0
 12 18  2  0  0  0  0
 13 14  1  0  0  0  0
 13 17  1  0  0  0  0
 13 18  1  0  0  0  0
 14 15  1  0  0  0  0
 14 34  1  0  0  0  0
 14 35  1  0  0  0  0
 15 16  1  0  0  0  0
 15 36  1  0  0  0  0
 16 37  1  0  0  0  0
 16 38  1  0  0  0  0
 19 39  1  0  0  0  0
 19 40  1  0  0  0  0
 19 41  1  0  0  0  0
 20 42  1  0  0  0  0
 20 43  1  0  0  0  0
 20 44  1  0  0  0  0
 21 45  1  0  0  0  0
 21 46  1  0  0  0  0
 21 47  1  0  0  0  0
 22 48  1  0  0  0  0
 22 49  1  0  0  0  0
 22 50  1  0  0  0  0
 23 51  1  0  0  0  0
 23 52  1  0  0  0  0
 23 53  1  0  0  0  0
 24 54  1  0  0  0  0
 24 55  1  0  0  0  0
 24 56  1  0  0  0  0
 25 57  1  0  0  0  0
 25 58  1  0  0  0  0
 25 59  1  0  0  0  0
 26 60  1  0  0  0  0
 26 61  1  0  0  0  0
 26 62  1  0  0  0  0
 27 63  1  0  0  0  0
 27 64  1  0  0  0  0
 27 65  1  0  0  0  0
 28 66  1  0  0  0  0
 28 67  1  0  0  0  0
 28 68  1  0  0  0  0
 29 69  1  0  0  0  0
 29 70  1  0  0  0  0
 29 71  1  0  0  0  0
 30 72  1  0  0  0  0
 30 73  1  0  0  0  0
 30 74  1  0  0  0  0
 31 75  1  0  0  0  0
 31 76  1  0  0  0  0
 31 77  1  0  0  0  0
 32 78  1  0  0  0  0
 32 79  1  0  0  0  0
 32 80  1  0  0  0  0
 33 81  1  0  0  0  0
 33 82  1  0  0  0  0
 33 83  1  0  0  0  0
M  END
> <PUBCHEM_COMPOUND_CID>
523388
> <PUBCHEM_COMPOUND_CANONICALIZED>
1
> <PUBCHEM_CACTVS_COMPLEXITY>
637
> <PUBCHEM_CACTVS_HBOND_ACCEPTOR>
7
> <PUBCHEM_CACTVS_HBOND_DONOR>
0
> <PUBCHEM_CACTVS_ROTATABLE_BOND>
15
> <PUBCHEM_CACTVS_SUBSKEYS>
AAADcfB4OAwAAAAAAAAAAAAAAAAAAAAAAAAAAAAAAAAAAAAAAAAAGhAAAEAADFSggAJCCAAAAAEIAACQCAIAAAAAAAAAAAFAAAABABYIAAAAAAAFIAAAAADKJAAMAAAAAAAAAAAAAAAAAAAAAAAAAAAAAA==
> <PUBCHEM_IUPAC_OPENEYE_NAME>
bis(trimethylsilyl) 2-[2,3-bis(trimethylsilyloxy)propyl]-2-trimethylsilyloxy-propanedioate
> <PUBCHEM_IUPAC_CAS_NAME>
2-[2,3-bis(trimethylsilyloxy)propyl]-2-trimethylsilyloxypropanedioic acid bis(trimethylsilyl) ester
> <PUBCHEM_IUPAC_NAME_MARKUP>
bis(trimethylsilyl) 2-[2,3-bis(trimethylsilyloxy)propyl]-2-trimethylsilyloxypropanedioate
> <PUBCHEM_IUPAC_NAME>
bis(trimethylsilyl) 2-[2,3-bis(trimethylsilyloxy)propyl]-2-trimethylsilyloxypropanedioate
> <PUBCHEM_IUPAC_SYSTEMATIC_NAME>
bis(trimethylsilyl) 2-[2,3-bis(trimethylsilyloxy)propyl]-2-trimethylsilyloxy-propanedioate
> <PUBCHEM_IUPAC_TRADITIONAL_NAME>
2-[2,3-bis(trimethylsilyloxy)propyl]-2-trimethylsilyloxy-malonic acid bis(trimethylsilyl) ester
> <PUBCHEM_IUPAC_INCHI>
InChI=1S/C21H50O7Si5/c1-29(2,3)24-17-18(25-30(4,5)6)16-21(28-33(13,14)15,19(22)26-31(7,8)9)20(23)27-32(10,11)12/h18H,16-17H2,1-15H3
> <PUBCHEM_IUPAC_INCHIKEY>
ZCSYALQZRWXVJO-UHFFFAOYSA-N
> <PUBCHEM_EXACT_MASS>
554.24028660
> <PUBCHEM_MOLECULAR_FORMULA>
C21H50O7Si5
> <PUBCHEM_MOLECULAR_WEIGHT>
555.0
> <PUBCHEM_OPENEYE_CAN_SMILES>
C[Si](C)(C)OCC(CC(C(=O)O[Si](C)(C)C)(C(=O)O[Si](C)(C)C)O[Si](C)(C)C)O[Si](C)(C)C
> <PUBCHEM_OPENEYE_ISO_SMILES>
C[Si](C)(C)OCC(CC(C(=O)O[Si](C)(C)C)(C(=O)O[Si](C)(C)C)O[Si](C)(C)C)O[Si](C)(C)C
> <PUBCHEM_CACTVS_TPSA>
80.3
> <PUBCHEM_MONOISOTOPIC_WEIGHT>
554.24028660
> <PUBCHEM_TOTAL_CHARGE>
0
> <PUBCHEM_HEAVY_ATOM_COUNT>
33
> <PUBCHEM_ATOM_DEF_STEREO_COUNT>
0
> <PUBCHEM_ATOM_UDEF_STEREO_COUNT>
1
> <PUBCHEM_BOND_DEF_STEREO_COUNT>
0
> <PUBCHEM_BOND_UDEF_STEREO_COUNT>
0
> <PUBCHEM_ISOTOPIC_ATOM_COUNT>
0
> <PUBCHEM_COMPONENT_COUNT>
1
> <PUBCHEM_CACTVS_TAUTO_COUNT>
-1
> <PUBCHEM_COORDINATE_TYPE>
1
5
255
> <PUBCHEM_BONDANNOTATIONS>
15  14  3
$$$$
