523391
  -OEChem-10302200292D
 96 95  0     1  0  0  0  0  0999 V2000
    7.4641    2.0180    0.0000 Si  0  0  0  0  0  0  0  0  0  0  0  0
    5.7320   -1.7141    0.0000 Si  0  0  0  0  0  0  0  0  0  0  0  0
    9.1962    0.0179    0.0000 Si  0  0  0  0  0  0  0  0  0  0  0  0
    8.3301   -2.4820    0.0000 Si  0  0  0  0  0  0  0  0  0  0  0  0
    3.0000    0.0180    0.0000 Si  0  0  0  0  0  0  0  0  0  0  0  0
    5.2320    2.6160    0.0000 Si  0  0  0  0  0  0  0  0  0  0  0  0
    6.5981    1.5180    0.0000 O   0  0  0  0  0  0  0  0  0  0  0  0
    6.2320   -0.8481    0.0000 O   0  0  0  0  0  0  0  0  0  0  0  0
    8.3301    0.5179    0.0000 O   0  0  0  0  0  0  0  0  0  0  0  0
    8.3301   -1.4820    0.0000 O   0  0  0  0  0  0  0  0  0  0  0  0
    4.0000    0.0179    0.0000 O   0  0  0  0  0  0  0  0  0  0  0  0
    5.7320    1.7500    0.0000 O   0  0  0  0  0  0  0  0  0  0  0  0
    4.2233   -1.2482    0.0000 O   0  0  0  0  0  0  0  0  0  0  0  0
    4.2320    0.8840    0.0000 O   0  0  0  0  0  0  0  0  0  0  0  0
    6.5981    0.5179    0.0000 C   0  0  3  0  0  0  0  0  0  0  0  0
    5.7320    0.0179    0.0000 C   0  0  0  0  0  0  0  0  0  0  0  0
    7.4641    0.0179    0.0000 C   0  0  3  0  0  0  0  0  0  0  0  0
    7.4641   -0.9821    0.0000 C   0  0  0  0  0  0  0  0  0  0  0  0
    4.8660   -0.4821    0.0000 C   0  0  0  0  0  0  0  0  0  0  0  0
    5.2320    0.8840    0.0000 C   0  0  0  0  0  0  0  0  0  0  0  0
    8.3301    2.5180    0.0000 C   0  0  0  0  0  0  0  0  0  0  0  0
    6.9641    2.8840    0.0000 C   0  0  0  0  0  0  0  0  0  0  0  0
    7.9641    1.1519    0.0000 C   0  0  0  0  0  0  0  0  0  0  0  0
    5.2320   -2.5801    0.0000 C   0  0  0  0  0  0  0  0  0  0  0  0
    6.5981   -2.2141    0.0000 C   0  0  0  0  0  0  0  0  0  0  0  0
    4.7472   -1.8878    0.0000 C   0  0  0  0  0  0  0  0  0  0  0  0
   10.0622   -0.4821    0.0000 C   0  0  0  0  0  0  0  0  0  0  0  0
    9.6962    0.8840    0.0000 C   0  0  0  0  0  0  0  0  0  0  0  0
    8.6962   -0.8481    0.0000 C   0  0  0  0  0  0  0  0  0  0  0  0
    8.3301   -3.4820    0.0000 C   0  0  0  0  0  0  0  0  0  0  0  0
    9.3301   -2.4820    0.0000 C   0  0  0  0  0  0  0  0  0  0  0  0
    7.3301   -2.4820    0.0000 C   0  0  0  0  0  0  0  0  0  0  0  0
    2.0000    0.0180    0.0000 C   0  0  0  0  0  0  0  0  0  0  0  0
    3.0000    1.0180    0.0000 C   0  0  0  0  0  0  0  0  0  0  0  0
    3.0000   -0.9821    0.0000 C   0  0  0  0  0  0  0  0  0  0  0  0
    4.7320    3.4820    0.0000 C   0  0  0  0  0  0  0  0  0  0  0  0
    4.3660    2.1160    0.0000 C   0  0  0  0  0  0  0  0  0  0  0  0
    6.0981    3.1160    0.0000 C   0  0  0  0  0  0  0  0  0  0  0  0
    7.1350    0.8279    0.0000 H   0  0  0  0  0  0  0  0  0  0  0  0
    8.0010   -0.2921    0.0000 H   0  0  0  0  0  0  0  0  0  0  0  0
    6.8535   -0.8744    0.0000 H   0  0  0  0  0  0  0  0  0  0  0  0
    7.2520   -1.5647    0.0000 H   0  0  0  0  0  0  0  0  0  0  0  0
    8.6401    1.9810    0.0000 H   0  0  0  0  0  0  0  0  0  0  0  0
    8.8671    2.8280    0.0000 H   0  0  0  0  0  0  0  0  0  0  0  0
    8.0201    3.0549    0.0000 H   0  0  0  0  0  0  0  0  0  0  0  0
    7.5010    3.1940    0.0000 H   0  0  0  0  0  0  0  0  0  0  0  0
    6.6541    3.4209    0.0000 H   0  0  0  0  0  0  0  0  0  0  0  0
    6.4272    2.5740    0.0000 H   0  0  0  0  0  0  0  0  0  0  0  0
    7.4272    0.8419    0.0000 H   0  0  0  0  0  0  0  0  0  0  0  0
    8.2741    0.6150    0.0000 H   0  0  0  0  0  0  0  0  0  0  0  0
    8.5010    1.4619    0.0000 H   0  0  0  0  0  0  0  0  0  0  0  0
    4.6951   -2.2701    0.0000 H   0  0  0  0  0  0  0  0  0  0  0  0
    4.9220   -3.1171    0.0000 H   0  0  0  0  0  0  0  0  0  0  0  0
    5.7690   -2.8901    0.0000 H   0  0  0  0  0  0  0  0  0  0  0  0
    6.2881   -2.7510    0.0000 H   0  0  0  0  0  0  0  0  0  0  0  0
    7.1350   -2.5241    0.0000 H   0  0  0  0  0  0  0  0  0  0  0  0
    6.9081   -1.6772    0.0000 H   0  0  0  0  0  0  0  0  0  0  0  0
    4.6396   -1.2772    0.0000 H   0  0  0  0  0  0  0  0  0  0  0  0
    4.1367   -1.9954    0.0000 H   0  0  0  0  0  0  0  0  0  0  0  0
    4.8549   -2.4983    0.0000 H   0  0  0  0  0  0  0  0  0  0  0  0
    9.7522   -1.0190    0.0000 H   0  0  0  0  0  0  0  0  0  0  0  0
   10.5991   -0.7921    0.0000 H   0  0  0  0  0  0  0  0  0  0  0  0
   10.3722    0.0549    0.0000 H   0  0  0  0  0  0  0  0  0  0  0  0
   10.2331    0.5740    0.0000 H   0  0  0  0  0  0  0  0  0  0  0  0
   10.0062    1.4209    0.0000 H   0  0  0  0  0  0  0  0  0  0  0  0
    9.1592    1.1940    0.0000 H   0  0  0  0  0  0  0  0  0  0  0  0
    8.1592   -0.5381    0.0000 H   0  0  0  0  0  0  0  0  0  0  0  0
    8.3862   -1.3850    0.0000 H   0  0  0  0  0  0  0  0  0  0  0  0
    9.2331   -1.1581    0.0000 H   0  0  0  0  0  0  0  0  0  0  0  0
    7.7101   -3.4820    0.0000 H   0  0  0  0  0  0  0  0  0  0  0  0
    8.3301   -4.1020    0.0000 H   0  0  0  0  0  0  0  0  0  0  0  0
    8.9501   -3.4820    0.0000 H   0  0  0  0  0  0  0  0  0  0  0  0
    9.3301   -3.1021    0.0000 H   0  0  0  0  0  0  0  0  0  0  0  0
    9.9501   -2.4820    0.0000 H   0  0  0  0  0  0  0  0  0  0  0  0
    9.3301   -1.8620    0.0000 H   0  0  0  0  0  0  0  0  0  0  0  0
    7.3301   -1.8620    0.0000 H   0  0  0  0  0  0  0  0  0  0  0  0
    6.7101   -2.4820    0.0000 H   0  0  0  0  0  0  0  0  0  0  0  0
    7.3301   -3.1021    0.0000 H   0  0  0  0  0  0  0  0  0  0  0  0
    2.0000    0.6380    0.0000 H   0  0  0  0  0  0  0  0  0  0  0  0
    1.3800    0.0180    0.0000 H   0  0  0  0  0  0  0  0  0  0  0  0
    2.0000   -0.6020    0.0000 H   0  0  0  0  0  0  0  0  0  0  0  0
    3.6200    1.0180    0.0000 H   0  0  0  0  0  0  0  0  0  0  0  0
    3.0000    1.6380    0.0000 H   0  0  0  0  0  0  0  0  0  0  0  0
    2.3800    1.0180    0.0000 H   0  0  0  0  0  0  0  0  0  0  0  0
    2.3801   -0.9821    0.0000 H   0  0  0  0  0  0  0  0  0  0  0  0
    3.0001   -1.6021    0.0000 H   0  0  0  0  0  0  0  0  0  0  0  0
    3.6200   -0.9821    0.0000 H   0  0  0  0  0  0  0  0  0  0  0  0
    5.2690    3.7920    0.0000 H   0  0  0  0  0  0  0  0  0  0  0  0
    4.4220    4.0190    0.0000 H   0  0  0  0  0  0  0  0  0  0  0  0
    4.1951    3.1720    0.0000 H   0  0  0  0  0  0  0  0  0  0  0  0
    4.0560    2.6530    0.0000 H   0  0  0  0  0  0  0  0  0  0  0  0
    3.8291    1.8060    0.0000 H   0  0  0  0  0  0  0  0  0  0  0  0
    4.6760    1.5791    0.0000 H   0  0  0  0  0  0  0  0  0  0  0  0
    6.4081    2.5791    0.0000 H   0  0  0  0  0  0  0  0  0  0  0  0
    6.6350    3.4260    0.0000 H   0  0  0  0  0  0  0  0  0  0  0  0
    5.7881    3.6530    0.0000 H   0  0  0  0  0  0  0  0  0  0  0  0
  1  7  1  0  0  0  0
  1 21  1  0  0  0  0
  1 22  1  0  0  0  0
  1 23  1  0  0  0  0
  2  8  1  0  0  0  0
  2 24  1  0  0  0  0
  2 25  1  0  0  0  0
  2 26  1  0  0  0  0
  3  9  1  0  0  0  0
  3 27  1  0  0  0  0
  3 28  1  0  0  0  0
  3 29  1  0  0  0  0
  4 10  1  0  0  0  0
  4 30  1  0  0  0  0
  4 31  1  0  0  0  0
  4 32  1  0  0  0  0
  5 11  1  0  0  0  0
  5 33  1  0  0  0  0
  5 34  1  0  0  0  0
  5 35  1  0  0  0  0
  6 12  1  0  0  0  0
  6 36  1  0  0  0  0
  6 37  1  0  0  0  0
  6 38  1  0  0  0  0
  7 15  1  0  0  0  0
  8 16  1  0  0  0  0
  9 17  1  0  0  0  0
 10 18  1  0  0  0  0
 11 19  1  0  0  0  0
 12 20  1  0  0  0  0
 13 19  2  0  0  0  0
 14 20  2  0  0  0  0
 15 16  1  0  0  0  0
 15 17  1  0  0  0  0
 15 39  1  0  0  0  0
 16 19  1  0  0  0  0
 16 20  1  0  0  0  0
 17 18  1  0  0  0  0
 17 40  1  0  0  0  0
 18 41  1  0  0  0  0
 18 42  1  0  0  0  0
 21 43  1  0  0  0  0
 21 44  1  0  0  0  0
 21 45  1  0  0  0  0
 22 46  1  0  0  0  0
 22 47  1  0  0  0  0
 22 48  1  0  0  0  0
 23 49  1  0  0  0  0
 23 50  1  0  0  0  0
 23 51  1  0  0  0  0
 24 52  1  0  0  0  0
 24 53  1  0  0  0  0
 24 54  1  0  0  0  0
 25 55  1  0  0  0  0
 25 56  1  0  0  0  0
 25 57  1  0  0  0  0
 26 58  1  0  0  0  0
 26 59  1  0  0  0  0
 26 60  1  0  0  0  0
 27 61  1  0  0  0  0
 27 62  1  0  0  0  0
 27 63  1  0  0  0  0
 28 64  1  0  0  0  0
 28 65  1  0  0  0  0
 28 66  1  0  0  0  0
 29 67  1  0  0  0  0
 29 68  1  0  0  0  0
 29 69  1  0  0  0  0
 30 70  1  0  0  0  0
 30 71  1  0  0  0  0
 30 72  1  0  0  0  0
 31 73  1  0  0  0  0
 31 74  1  0  0  0  0
 31 75  1  0  0  0  0
 32 76  1  0  0  0  0
 32 77  1  0  0  0  0
 32 78  1  0  0  0  0
 33 79  1  0  0  0  0
 33 80  1  0  0  0  0
 33 81  1  0  0  0  0
 34 82  1  0  0  0  0
 34 83  1  0  0  0  0
 34 84  1  0  0  0  0
 35 85  1  0  0  0  0
 35 86  1  0  0  0  0
 35 87  1  0  0  0  0
 36 88  1  0  0  0  0
 36 89  1  0  0  0  0
 36 90  1  0  0  0  0
 37 91  1  0  0  0  0
 37 92  1  0  0  0  0
 37 93  1  0  0  0  0
 38 94  1  0  0  0  0
 38 95  1  0  0  0  0
 38 96  1  0  0  0  0
M  END
> <PUBCHEM_COMPOUND_CID>
523391
> <PUBCHEM_COMPOUND_CANONICALIZED>
1
> <PUBCHEM_CACTVS_COMPLEXITY>
768
> <PUBCHEM_CACTVS_HBOND_ACCEPTOR>
8
> <PUBCHEM_CACTVS_HBOND_DONOR>
0
> <PUBCHEM_CACTVS_ROTATABLE_BOND>
17
> <PUBCHEM_CACTVS_SUBSKEYS>
AAADcfB4PAwAAAAAAAAAAAAAAAAAAAAAAAAAAAAAAAAAAAAAAAAAGhAAAEAADFSggAJCCAAAAAEIAACQCAIAAAAAAAAAAAFAAAABABYIAAAAAAAFIAAAAADKJAAMAAAAAAAAAAAAAAAAAAAAAAAAAAAAAA==
> <PUBCHEM_IUPAC_OPENEYE_NAME>
bis(trimethylsilyl) 2-trimethylsilyloxy-2-[1,2,3-tris(trimethylsilyloxy)propyl]propanedioate
> <PUBCHEM_IUPAC_CAS_NAME>
2-trimethylsilyloxy-2-[1,2,3-tris(trimethylsilyloxy)propyl]propanedioic acid bis(trimethylsilyl) ester
> <PUBCHEM_IUPAC_NAME_MARKUP>
bis(trimethylsilyl) 2-trimethylsilyloxy-2-[1,2,3-tris(trimethylsilyloxy)propyl]propanedioate
> <PUBCHEM_IUPAC_NAME>
bis(trimethylsilyl) 2-trimethylsilyloxy-2-[1,2,3-tris(trimethylsilyloxy)propyl]propanedioate
> <PUBCHEM_IUPAC_SYSTEMATIC_NAME>
bis(trimethylsilyl) 2-trimethylsilyloxy-2-[1,2,3-tris(trimethylsilyloxy)propyl]propanedioate
> <PUBCHEM_IUPAC_TRADITIONAL_NAME>
2-trimethylsilyloxy-2-[1,2,3-tris(trimethylsilyloxy)propyl]malonic acid bis(trimethylsilyl) ester
> <PUBCHEM_IUPAC_INCHI>
InChI=1S/C24H58O8Si6/c1-33(2,3)27-19-20(28-34(4,5)6)21(29-35(7,8)9)24(32-38(16,17)18,22(25)30-36(10,11)12)23(26)31-37(13,14)15/h20-21H,19H2,1-18H3
> <PUBCHEM_IUPAC_INCHIKEY>
PEUWEFJXHJKYKW-UHFFFAOYSA-N
> <PUBCHEM_EXACT_MASS>
642.27472801
> <PUBCHEM_MOLECULAR_FORMULA>
C24H58O8Si6
> <PUBCHEM_MOLECULAR_WEIGHT>
643.2
> <PUBCHEM_OPENEYE_CAN_SMILES>
C[Si](C)(C)OCC(C(C(C(=O)O[Si](C)(C)C)(C(=O)O[Si](C)(C)C)O[Si](C)(C)C)O[Si](C)(C)C)O[Si](C)(C)C
> <PUBCHEM_OPENEYE_ISO_SMILES>
C[Si](C)(C)OCC(C(C(C(=O)O[Si](C)(C)C)(C(=O)O[Si](C)(C)C)O[Si](C)(C)C)O[Si](C)(C)C)O[Si](C)(C)C
> <PUBCHEM_CACTVS_TPSA>
89.5
> <PUBCHEM_MONOISOTOPIC_WEIGHT>
642.27472801
> <PUBCHEM_TOTAL_CHARGE>
0
> <PUBCHEM_HEAVY_ATOM_COUNT>
38
> <PUBCHEM_ATOM_DEF_STEREO_COUNT>
0
> <PUBCHEM_ATOM_UDEF_STEREO_COUNT>
2
> <PUBCHEM_BOND_DEF_STEREO_COUNT>
0
> <PUBCHEM_BOND_UDEF_STEREO_COUNT>
0
> <PUBCHEM_ISOTOPIC_ATOM_COUNT>
0
> <PUBCHEM_COMPONENT_COUNT>
1
> <PUBCHEM_CACTVS_TAUTO_COUNT>
-1
> <PUBCHEM_COORDINATE_TYPE>
1
5
255
> <PUBCHEM_BONDANNOTATIONS>
15  16  3
17  18  3
$$$$
