523345
  -OEChem-10302200292D
 71 70  0     1  0  0  0  0  0999 V2000
    3.0000   -2.0670    0.0000 Si  0  0  0  0  0  0  0  0  0  0  0  0
    3.0000    1.9330    0.0000 Si  0  0  0  0  0  0  0  0  0  0  0  0
    5.5981   -2.5670    0.0000 Si  0  0  0  0  0  0  0  0  0  0  0  0
    7.3301    2.4330    0.0000 Si  0  0  0  0  0  0  0  0  0  0  0  0
    3.0000   -1.0670    0.0000 O   0  0  0  0  0  0  0  0  0  0  0  0
    3.8660    2.4330    0.0000 O   0  0  0  0  0  0  0  0  0  0  0  0
    4.7320   -2.0670    0.0000 O   0  0  0  0  0  0  0  0  0  0  0  0
    6.4641    1.9330    0.0000 O   0  0  0  0  0  0  0  0  0  0  0  0
    5.5981    3.4330    0.0000 O   0  0  0  0  0  0  0  0  0  0  0  0
    3.8660   -0.5670    0.0000 C   0  0  3  0  0  0  0  0  0  0  0  0
    3.8660    0.4330    0.0000 C   0  0  0  0  0  0  0  0  0  0  0  0
    4.7320    0.9330    0.0000 C   0  0  0  0  0  0  0  0  0  0  0  0
    4.7320    1.9330    0.0000 C   0  0  3  0  0  0  0  0  0  0  0  0
    4.7320   -1.0670    0.0000 C   0  0  0  0  0  0  0  0  0  0  0  0
    5.5981    2.4330    0.0000 C   0  0  0  0  0  0  0  0  0  0  0  0
    3.0000   -3.0670    0.0000 C   0  0  0  0  0  0  0  0  0  0  0  0
    2.0000   -2.0670    0.0000 C   0  0  0  0  0  0  0  0  0  0  0  0
    4.0000   -2.0670    0.0000 C   0  0  0  0  0  0  0  0  0  0  0  0
    2.1340    1.4330    0.0000 C   0  0  0  0  0  0  0  0  0  0  0  0
    2.5000    2.7990    0.0000 C   0  0  0  0  0  0  0  0  0  0  0  0
    3.5000    1.0670    0.0000 C   0  0  0  0  0  0  0  0  0  0  0  0
    6.4641   -3.0670    0.0000 C   0  0  0  0  0  0  0  0  0  0  0  0
    5.0981   -3.4330    0.0000 C   0  0  0  0  0  0  0  0  0  0  0  0
    6.0981   -1.7010    0.0000 C   0  0  0  0  0  0  0  0  0  0  0  0
    8.1962    2.9330    0.0000 C   0  0  0  0  0  0  0  0  0  0  0  0
    7.8301    1.5670    0.0000 C   0  0  0  0  0  0  0  0  0  0  0  0
    6.8301    3.2990    0.0000 C   0  0  0  0  0  0  0  0  0  0  0  0
    3.8660   -1.1870    0.0000 H   0  0  0  0  0  0  0  0  0  0  0  0
    3.6540    1.0156    0.0000 H   0  0  0  0  0  0  0  0  0  0  0  0
    3.2554    0.3254    0.0000 H   0  0  0  0  0  0  0  0  0  0  0  0
    4.9441    0.3504    0.0000 H   0  0  0  0  0  0  0  0  0  0  0  0
    5.3426    1.0407    0.0000 H   0  0  0  0  0  0  0  0  0  0  0  0
    4.7320    2.5530    0.0000 H   0  0  0  0  0  0  0  0  0  0  0  0
    5.3426   -1.1746    0.0000 H   0  0  0  0  0  0  0  0  0  0  0  0
    4.9441   -0.4844    0.0000 H   0  0  0  0  0  0  0  0  0  0  0  0
    2.3800   -3.0670    0.0000 H   0  0  0  0  0  0  0  0  0  0  0  0
    3.0000   -3.6870    0.0000 H   0  0  0  0  0  0  0  0  0  0  0  0
    3.6200   -3.0670    0.0000 H   0  0  0  0  0  0  0  0  0  0  0  0
    2.0000   -1.4470    0.0000 H   0  0  0  0  0  0  0  0  0  0  0  0
    1.3800   -2.0670    0.0000 H   0  0  0  0  0  0  0  0  0  0  0  0
    2.0000   -2.6870    0.0000 H   0  0  0  0  0  0  0  0  0  0  0  0
    4.0000   -2.6870    0.0000 H   0  0  0  0  0  0  0  0  0  0  0  0
    4.6200   -2.0670    0.0000 H   0  0  0  0  0  0  0  0  0  0  0  0
    4.0000   -1.4470    0.0000 H   0  0  0  0  0  0  0  0  0  0  0  0
    1.8240    1.9700    0.0000 H   0  0  0  0  0  0  0  0  0  0  0  0
    1.5970    1.1230    0.0000 H   0  0  0  0  0  0  0  0  0  0  0  0
    2.4440    0.8961    0.0000 H   0  0  0  0  0  0  0  0  0  0  0  0
    3.0369    3.1090    0.0000 H   0  0  0  0  0  0  0  0  0  0  0  0
    2.1900    3.3360    0.0000 H   0  0  0  0  0  0  0  0  0  0  0  0
    1.9631    2.4890    0.0000 H   0  0  0  0  0  0  0  0  0  0  0  0
    2.9631    0.7570    0.0000 H   0  0  0  0  0  0  0  0  0  0  0  0
    3.8100    0.5301    0.0000 H   0  0  0  0  0  0  0  0  0  0  0  0
    4.0369    1.3770    0.0000 H   0  0  0  0  0  0  0  0  0  0  0  0
    6.1541   -3.6039    0.0000 H   0  0  0  0  0  0  0  0  0  0  0  0
    7.0010   -3.3770    0.0000 H   0  0  0  0  0  0  0  0  0  0  0  0
    6.7741   -2.5300    0.0000 H   0  0  0  0  0  0  0  0  0  0  0  0
    4.5611   -3.1230    0.0000 H   0  0  0  0  0  0  0  0  0  0  0  0
    4.7881   -3.9700    0.0000 H   0  0  0  0  0  0  0  0  0  0  0  0
    5.6350   -3.7430    0.0000 H   0  0  0  0  0  0  0  0  0  0  0  0
    6.6350   -2.0110    0.0000 H   0  0  0  0  0  0  0  0  0  0  0  0
    6.4081   -1.1640    0.0000 H   0  0  0  0  0  0  0  0  0  0  0  0
    5.5611   -1.3910    0.0000 H   0  0  0  0  0  0  0  0  0  0  0  0
    8.5062    2.3961    0.0000 H   0  0  0  0  0  0  0  0  0  0  0  0
    8.7331    3.2430    0.0000 H   0  0  0  0  0  0  0  0  0  0  0  0
    7.8862    3.4700    0.0000 H   0  0  0  0  0  0  0  0  0  0  0  0
    7.2932    1.2570    0.0000 H   0  0  0  0  0  0  0  0  0  0  0  0
    8.1401    1.0300    0.0000 H   0  0  0  0  0  0  0  0  0  0  0  0
    8.3671    1.8770    0.0000 H   0  0  0  0  0  0  0  0  0  0  0  0
    7.3671    3.6090    0.0000 H   0  0  0  0  0  0  0  0  0  0  0  0
    6.5201    3.8360    0.0000 H   0  0  0  0  0  0  0  0  0  0  0  0
    6.2932    2.9890    0.0000 H   0  0  0  0  0  0  0  0  0  0  0  0
  1  5  1  0  0  0  0
  1 16  1  0  0  0  0
  1 17  1  0  0  0  0
  1 18  1  0  0  0  0
  2  6  1  0  0  0  0
  2 19  1  0  0  0  0
  2 20  1  0  0  0  0
  2 21  1  0  0  0  0
  3  7  1  0  0  0  0
  3 22  1  0  0  0  0
  3 23  1  0  0  0  0
  3 24  1  0  0  0  0
  4  8  1  0  0  0  0
  4 25  1  0  0  0  0
  4 26  1  0  0  0  0
  4 27  1  0  0  0  0
  5 10  1  0  0  0  0
  6 13  1  0  0  0  0
  7 14  1  0  0  0  0
  8 15  1  0  0  0  0
  9 15  2  0  0  0  0
 10 11  1  0  0  0  0
 10 14  1  0  0  0  0
 10 28  1  0  0  0  0
 11 12  1  0  0  0  0
 11 29  1  0  0  0  0
 11 30  1  0  0  0  0
 12 13  1  0  0  0  0
 12 31  1  0  0  0  0
 12 32  1  0  0  0  0
 13 15  1  0  0  0  0
 13 33  1  0  0  0  0
 14 34  1  0  0  0  0
 14 35  1  0  0  0  0
 16 36  1  0  0  0  0
 16 37  1  0  0  0  0
 16 38  1  0  0  0  0
 17 39  1  0  0  0  0
 17 40  1  0  0  0  0
 17 41  1  0  0  0  0
 18 42  1  0  0  0  0
 18 43  1  0  0  0  0
 18 44  1  0  0  0  0
 19 45  1  0  0  0  0
 19 46  1  0  0  0  0
 19 47  1  0  0  0  0
 20 48  1  0  0  0  0
 20 49  1  0  0  0  0
 20 50  1  0  0  0  0
 21 51  1  0  0  0  0
 21 52  1  0  0  0  0
 21 53  1  0  0  0  0
 22 54  1  0  0  0  0
 22 55  1  0  0  0  0
 22 56  1  0  0  0  0
 23 57  1  0  0  0  0
 23 58  1  0  0  0  0
 23 59  1  0  0  0  0
 24 60  1  0  0  0  0
 24 61  1  0  0  0  0
 24 62  1  0  0  0  0
 25 63  1  0  0  0  0
 25 64  1  0  0  0  0
 25 65  1  0  0  0  0
 26 66  1  0  0  0  0
 26 67  1  0  0  0  0
 26 68  1  0  0  0  0
 27 69  1  0  0  0  0
 27 70  1  0  0  0  0
 27 71  1  0  0  0  0
M  END
> <PUBCHEM_COMPOUND_CID>
523345
> <PUBCHEM_COMPOUND_CANONICALIZED>
1
> <PUBCHEM_CACTVS_COMPLEXITY>
458
> <PUBCHEM_CACTVS_HBOND_ACCEPTOR>
5
> <PUBCHEM_CACTVS_HBOND_DONOR>
0
> <PUBCHEM_CACTVS_ROTATABLE_BOND>
13
> <PUBCHEM_CACTVS_SUBSKEYS>
AAADcfB4OAwAAAAAAAAAAAAAAAAAAAAAAAAAAAAAAAAAAAAAAAAAGhAAAEAACBSggAJCCAAAAAEIAACQCAIAAAAAAAAAAAFAAAABABIAAAAAAAAEAAAAAAHIbARAAAAAAAAAAAAAAAAAAAAAAAAAAAAAAA==
> <PUBCHEM_IUPAC_OPENEYE_NAME>
trimethylsilyl 2,5,6-tris(trimethylsilyloxy)hexanoate
> <PUBCHEM_IUPAC_CAS_NAME>
2,5,6-tris(trimethylsilyloxy)hexanoic acid trimethylsilyl ester
> <PUBCHEM_IUPAC_NAME_MARKUP>
trimethylsilyl 2,5,6-tris(trimethylsilyloxy)hexanoate
> <PUBCHEM_IUPAC_NAME>
trimethylsilyl 2,5,6-tris(trimethylsilyloxy)hexanoate
> <PUBCHEM_IUPAC_SYSTEMATIC_NAME>
trimethylsilyl 2,5,6-tris(trimethylsilyloxy)hexanoate
> <PUBCHEM_IUPAC_TRADITIONAL_NAME>
2,5,6-tris(trimethylsilyloxy)hexanoic acid trimethylsilyl ester
> <PUBCHEM_IUPAC_INCHI>
InChI=1S/C18H44O5Si4/c1-24(2,3)20-15-16(21-25(4,5)6)13-14-17(22-26(7,8)9)18(19)23-27(10,11)12/h16-17H,13-15H2,1-12H3
> <PUBCHEM_IUPAC_INCHIKEY>
RTVJXDVRXIFDGR-UHFFFAOYSA-N
> <PUBCHEM_EXACT_MASS>
452.22658064
> <PUBCHEM_MOLECULAR_FORMULA>
C18H44O5Si4
> <PUBCHEM_MOLECULAR_WEIGHT>
452.9
> <PUBCHEM_OPENEYE_CAN_SMILES>
C[Si](C)(C)OCC(CCC(C(=O)O[Si](C)(C)C)O[Si](C)(C)C)O[Si](C)(C)C
> <PUBCHEM_OPENEYE_ISO_SMILES>
C[Si](C)(C)OCC(CCC(C(=O)O[Si](C)(C)C)O[Si](C)(C)C)O[Si](C)(C)C
> <PUBCHEM_CACTVS_TPSA>
54
> <PUBCHEM_MONOISOTOPIC_WEIGHT>
452.22658064
> <PUBCHEM_TOTAL_CHARGE>
0
> <PUBCHEM_HEAVY_ATOM_COUNT>
27
> <PUBCHEM_ATOM_DEF_STEREO_COUNT>
0
> <PUBCHEM_ATOM_UDEF_STEREO_COUNT>
2
> <PUBCHEM_BOND_DEF_STEREO_COUNT>
0
> <PUBCHEM_BOND_UDEF_STEREO_COUNT>
0
> <PUBCHEM_ISOTOPIC_ATOM_COUNT>
0
> <PUBCHEM_COMPONENT_COUNT>
1
> <PUBCHEM_CACTVS_TAUTO_COUNT>
-1
> <PUBCHEM_COORDINATE_TYPE>
1
5
255
> <PUBCHEM_BONDANNOTATIONS>
10  11  3
13  12  3
$$$$
