523341
  -OEChem-10302200292D
 51 50  0     1  0  0  0  0  0999 V2000
    2.8660   -0.2500    0.0000 Si  0  0  0  0  0  0  0  0  0  0  0  0
    9.7942   -0.2500    0.0000 Si  0  0  0  0  0  0  0  0  0  0  0  0
    3.7320    0.2500    0.0000 O   0  0  0  0  0  0  0  0  0  0  0  0
    6.3301   -0.2500    0.0000 O   0  0  0  0  0  0  0  0  0  0  0  0
    8.9282    0.2500    0.0000 O   0  0  0  0  0  0  0  0  0  0  0  0
    5.4641    1.2500    0.0000 O   0  0  0  0  0  0  0  0  0  0  0  0
    8.0622   -1.2500    0.0000 O   0  0  0  0  0  0  0  0  0  0  0  0
    4.5981   -0.2500    0.0000 C   0  0  3  0  0  0  0  0  0  0  0  0
    4.5981   -1.2500    0.0000 C   0  0  0  0  0  0  0  0  0  0  0  0
    7.1962    0.2500    0.0000 C   0  0  3  0  0  0  0  0  0  0  0  0
    2.0000   -0.7500    0.0000 C   0  0  0  0  0  0  0  0  0  0  0  0
    2.3660    0.6160    0.0000 C   0  0  0  0  0  0  0  0  0  0  0  0
    3.3660   -1.1160    0.0000 C   0  0  0  0  0  0  0  0  0  0  0  0
    5.4641    0.2500    0.0000 C   0  0  0  0  0  0  0  0  0  0  0  0
    7.1962    1.2500    0.0000 C   0  0  0  0  0  0  0  0  0  0  0  0
    8.0622   -0.2500    0.0000 C   0  0  0  0  0  0  0  0  0  0  0  0
   10.6603   -0.7500    0.0000 C   0  0  0  0  0  0  0  0  0  0  0  0
   10.2942    0.6160    0.0000 C   0  0  0  0  0  0  0  0  0  0  0  0
    9.2942   -1.1160    0.0000 C   0  0  0  0  0  0  0  0  0  0  0  0
    3.7320   -1.7500    0.0000 C   0  0  0  0  0  0  0  0  0  0  0  0
    8.0622    1.7500    0.0000 C   0  0  0  0  0  0  0  0  0  0  0  0
    4.5981    0.3700    0.0000 H   0  0  0  0  0  0  0  0  0  0  0  0
    4.8101   -1.8326    0.0000 H   0  0  0  0  0  0  0  0  0  0  0  0
    5.2087   -1.1423    0.0000 H   0  0  0  0  0  0  0  0  0  0  0  0
    6.6592    0.5600    0.0000 H   0  0  0  0  0  0  0  0  0  0  0  0
    1.6900   -0.2131    0.0000 H   0  0  0  0  0  0  0  0  0  0  0  0
    1.4631   -1.0600    0.0000 H   0  0  0  0  0  0  0  0  0  0  0  0
    2.3100   -1.2869    0.0000 H   0  0  0  0  0  0  0  0  0  0  0  0
    2.9030    0.9260    0.0000 H   0  0  0  0  0  0  0  0  0  0  0  0
    2.0560    1.1530    0.0000 H   0  0  0  0  0  0  0  0  0  0  0  0
    1.8291    0.3060    0.0000 H   0  0  0  0  0  0  0  0  0  0  0  0
    2.8291   -1.4260    0.0000 H   0  0  0  0  0  0  0  0  0  0  0  0
    3.6760   -1.6530    0.0000 H   0  0  0  0  0  0  0  0  0  0  0  0
    3.9030   -0.8060    0.0000 H   0  0  0  0  0  0  0  0  0  0  0  0
    6.9841    1.8326    0.0000 H   0  0  0  0  0  0  0  0  0  0  0  0
    6.5856    1.1423    0.0000 H   0  0  0  0  0  0  0  0  0  0  0  0
   10.3503   -1.2869    0.0000 H   0  0  0  0  0  0  0  0  0  0  0  0
   11.1972   -1.0600    0.0000 H   0  0  0  0  0  0  0  0  0  0  0  0
   10.9703   -0.2131    0.0000 H   0  0  0  0  0  0  0  0  0  0  0  0
   10.8312    0.3060    0.0000 H   0  0  0  0  0  0  0  0  0  0  0  0
   10.6042    1.1530    0.0000 H   0  0  0  0  0  0  0  0  0  0  0  0
    9.7573    0.9260    0.0000 H   0  0  0  0  0  0  0  0  0  0  0  0
    8.7573   -0.8060    0.0000 H   0  0  0  0  0  0  0  0  0  0  0  0
    8.9842   -1.6530    0.0000 H   0  0  0  0  0  0  0  0  0  0  0  0
    9.8312   -1.4260    0.0000 H   0  0  0  0  0  0  0  0  0  0  0  0
    3.4220   -1.2131    0.0000 H   0  0  0  0  0  0  0  0  0  0  0  0
    3.1951   -2.0600    0.0000 H   0  0  0  0  0  0  0  0  0  0  0  0
    4.0420   -2.2869    0.0000 H   0  0  0  0  0  0  0  0  0  0  0  0
    8.3722    1.2131    0.0000 H   0  0  0  0  0  0  0  0  0  0  0  0
    8.5991    2.0600    0.0000 H   0  0  0  0  0  0  0  0  0  0  0  0
    7.7522    2.2869    0.0000 H   0  0  0  0  0  0  0  0  0  0  0  0
  1  3  1  0  0  0  0
  1 11  1  0  0  0  0
  1 12  1  0  0  0  0
  1 13  1  0  0  0  0
  2  5  1  0  0  0  0
  2 17  1  0  0  0  0
  2 18  1  0  0  0  0
  2 19  1  0  0  0  0
  3  8  1  0  0  0  0
  4 10  1  0  0  0  0
  4 14  1  0  0  0  0
  5 16  1  0  0  0  0
  6 14  2  0  0  0  0
  7 16  2  0  0  0  0
  8  9  1  0  0  0  0
  8 14  1  0  0  0  0
  8 22  1  0  0  0  0
  9 20  1  0  0  0  0
  9 23  1  0  0  0  0
  9 24  1  0  0  0  0
 10 15  1  0  0  0  0
 10 16  1  0  0  0  0
 10 25  1  0  0  0  0
 11 26  1  0  0  0  0
 11 27  1  0  0  0  0
 11 28  1  0  0  0  0
 12 29  1  0  0  0  0
 12 30  1  0  0  0  0
 12 31  1  0  0  0  0
 13 32  1  0  0  0  0
 13 33  1  0  0  0  0
 13 34  1  0  0  0  0
 15 21  1  0  0  0  0
 15 35  1  0  0  0  0
 15 36  1  0  0  0  0
 17 37  1  0  0  0  0
 17 38  1  0  0  0  0
 17 39  1  0  0  0  0
 18 40  1  0  0  0  0
 18 41  1  0  0  0  0
 18 42  1  0  0  0  0
 19 43  1  0  0  0  0
 19 44  1  0  0  0  0
 19 45  1  0  0  0  0
 20 46  1  0  0  0  0
 20 47  1  0  0  0  0
 20 48  1  0  0  0  0
 21 49  1  0  0  0  0
 21 50  1  0  0  0  0
 21 51  1  0  0  0  0
M  END
> <PUBCHEM_COMPOUND_CID>
523341
> <PUBCHEM_COMPOUND_CANONICALIZED>
1
> <PUBCHEM_CACTVS_COMPLEXITY>
357
> <PUBCHEM_CACTVS_HBOND_ACCEPTOR>
5
> <PUBCHEM_CACTVS_HBOND_DONOR>
0
> <PUBCHEM_CACTVS_ROTATABLE_BOND>
10
> <PUBCHEM_CACTVS_SUBSKEYS>
AAADceBwOAwAAAAAAAAAAAAAAAAAAAAAAAAAAAAAAAAAAAAAAAAAGhAAAEAACBSggAJCCAAABAEIAACQCAIAAAAAAAAAAAFAAAABABAAAAQCAAAEAAACAAAAAAAAAAAAAAAAAAAAAAAAAAAAAAAAAAAAAA==
> <PUBCHEM_IUPAC_OPENEYE_NAME>
trimethylsilyl 2-(2-trimethylsilyloxybutanoyloxy)butanoate
> <PUBCHEM_IUPAC_CAS_NAME>
2-(1-oxo-2-trimethylsilyloxybutoxy)butanoic acid trimethylsilyl ester
> <PUBCHEM_IUPAC_NAME_MARKUP>
trimethylsilyl 2-(2-trimethylsilyloxybutanoyloxy)butanoate
> <PUBCHEM_IUPAC_NAME>
trimethylsilyl 2-(2-trimethylsilyloxybutanoyloxy)butanoate
> <PUBCHEM_IUPAC_SYSTEMATIC_NAME>
trimethylsilyl 2-(2-trimethylsilyloxybutanoyloxy)butanoate
> <PUBCHEM_IUPAC_TRADITIONAL_NAME>
2-(2-trimethylsilyloxybutanoyloxy)butyric acid trimethylsilyl ester
> <PUBCHEM_IUPAC_INCHI>
InChI=1S/C14H30O5Si2/c1-9-11(14(16)19-21(6,7)8)17-13(15)12(10-2)18-20(3,4)5/h11-12H,9-10H2,1-8H3
> <PUBCHEM_IUPAC_INCHIKEY>
TVLNIAIDKWBAEY-UHFFFAOYSA-N
> <PUBCHEM_EXACT_MASS>
334.16317712
> <PUBCHEM_MOLECULAR_FORMULA>
C14H30O5Si2
> <PUBCHEM_MOLECULAR_WEIGHT>
334.55
> <PUBCHEM_OPENEYE_CAN_SMILES>
CCC(C(=O)O[Si](C)(C)C)OC(=O)C(CC)O[Si](C)(C)C
> <PUBCHEM_OPENEYE_ISO_SMILES>
CCC(C(=O)O[Si](C)(C)C)OC(=O)C(CC)O[Si](C)(C)C
> <PUBCHEM_CACTVS_TPSA>
61.8
> <PUBCHEM_MONOISOTOPIC_WEIGHT>
334.16317712
> <PUBCHEM_TOTAL_CHARGE>
0
> <PUBCHEM_HEAVY_ATOM_COUNT>
21
> <PUBCHEM_ATOM_DEF_STEREO_COUNT>
0
> <PUBCHEM_ATOM_UDEF_STEREO_COUNT>
2
> <PUBCHEM_BOND_DEF_STEREO_COUNT>
0
> <PUBCHEM_BOND_UDEF_STEREO_COUNT>
0
> <PUBCHEM_ISOTOPIC_ATOM_COUNT>
0
> <PUBCHEM_COMPONENT_COUNT>
1
> <PUBCHEM_CACTVS_TAUTO_COUNT>
-1
> <PUBCHEM_COORDINATE_TYPE>
1
5
255
> <PUBCHEM_BONDANNOTATIONS>
10  15  3
8  9  3
$$$$
