523394
  -OEChem-10302200292D
 67 66  0     1  0  0  0  0  0999 V2000
    2.9397    1.3940    0.0000 Si  0  0  0  0  0  0  0  0  0  0  0  0
    6.1114    2.1859    0.0000 Si  0  0  0  0  0  0  0  0  0  0  0  0
    3.4358   -2.2859    0.0000 Si  0  0  0  0  0  0  0  0  0  0  0  0
    7.8434    0.1859    0.0000 Si  0  0  0  0  0  0  0  0  0  0  0  0
    3.8794    1.0519    0.0000 O   0  0  0  0  0  0  0  0  0  0  0  0
    5.2454    1.6859    0.0000 O   0  0  0  0  0  0  0  0  0  0  0  0
    4.0786   -1.5198    0.0000 O   0  0  0  0  0  0  0  0  0  0  0  0
    6.9774    0.6859    0.0000 O   0  0  0  0  0  0  0  0  0  0  0  0
    2.7517   -0.4064    0.0000 O   0  0  0  0  0  0  0  0  0  0  0  0
    6.1114   -0.8141    0.0000 O   0  0  0  0  0  0  0  0  0  0  0  0
    4.3793    0.1859    0.0000 C   0  0  2  0  0  0  0  0  0  0  0  0
    5.2454    0.6859    0.0000 C   0  0  1  0  0  0  0  0  0  0  0  0
    4.8793   -0.6801    0.0000 C   0  0  0  0  0  0  0  0  0  0  0  0
    3.7365   -0.5801    0.0000 C   0  0  0  0  0  0  0  0  0  0  0  0
    6.1114    0.1859    0.0000 C   0  0  0  0  0  0  0  0  0  0  0  0
    2.0000    1.7361    0.0000 C   0  0  0  0  0  0  0  0  0  0  0  0
    3.2817    2.3336    0.0000 C   0  0  0  0  0  0  0  0  0  0  0  0
    2.5976    0.4543    0.0000 C   0  0  0  0  0  0  0  0  0  0  0  0
    6.9774    2.6859    0.0000 C   0  0  0  0  0  0  0  0  0  0  0  0
    5.6114    3.0519    0.0000 C   0  0  0  0  0  0  0  0  0  0  0  0
    6.6114    1.3199    0.0000 C   0  0  0  0  0  0  0  0  0  0  0  0
    2.7930   -3.0519    0.0000 C   0  0  0  0  0  0  0  0  0  0  0  0
    2.6697   -1.6431    0.0000 C   0  0  0  0  0  0  0  0  0  0  0  0
    4.2019   -2.9287    0.0000 C   0  0  0  0  0  0  0  0  0  0  0  0
    8.7095   -0.3141    0.0000 C   0  0  0  0  0  0  0  0  0  0  0  0
    8.3434    1.0519    0.0000 C   0  0  0  0  0  0  0  0  0  0  0  0
    7.3434   -0.6801    0.0000 C   0  0  0  0  0  0  0  0  0  0  0  0
    5.7823    0.9959    0.0000 H   0  0  0  0  0  0  0  0  0  0  0  0
    4.3424   -0.9901    0.0000 H   0  0  0  0  0  0  0  0  0  0  0  0
    5.1894   -1.2171    0.0000 H   0  0  0  0  0  0  0  0  0  0  0  0
    5.4163   -0.3701    0.0000 H   0  0  0  0  0  0  0  0  0  0  0  0
    2.2120    2.3187    0.0000 H   0  0  0  0  0  0  0  0  0  0  0  0
    1.4174    1.9481    0.0000 H   0  0  0  0  0  0  0  0  0  0  0  0
    1.7880    1.1534    0.0000 H   0  0  0  0  0  0  0  0  0  0  0  0
    3.8643    2.1216    0.0000 H   0  0  0  0  0  0  0  0  0  0  0  0
    3.4937    2.9162    0.0000 H   0  0  0  0  0  0  0  0  0  0  0  0
    2.6991    2.5457    0.0000 H   0  0  0  0  0  0  0  0  0  0  0  0
    2.0150    0.6663    0.0000 H   0  0  0  0  0  0  0  0  0  0  0  0
    2.3856   -0.1284    0.0000 H   0  0  0  0  0  0  0  0  0  0  0  0
    3.1802    0.2422    0.0000 H   0  0  0  0  0  0  0  0  0  0  0  0
    7.2874    2.1490    0.0000 H   0  0  0  0  0  0  0  0  0  0  0  0
    7.5144    2.9959    0.0000 H   0  0  0  0  0  0  0  0  0  0  0  0
    6.6674    3.2228    0.0000 H   0  0  0  0  0  0  0  0  0  0  0  0
    6.1483    3.3619    0.0000 H   0  0  0  0  0  0  0  0  0  0  0  0
    5.3014    3.5889    0.0000 H   0  0  0  0  0  0  0  0  0  0  0  0
    5.0745    2.7419    0.0000 H   0  0  0  0  0  0  0  0  0  0  0  0
    6.0745    1.0099    0.0000 H   0  0  0  0  0  0  0  0  0  0  0  0
    6.9214    0.7829    0.0000 H   0  0  0  0  0  0  0  0  0  0  0  0
    7.1483    1.6299    0.0000 H   0  0  0  0  0  0  0  0  0  0  0  0
    2.3181   -2.6534    0.0000 H   0  0  0  0  0  0  0  0  0  0  0  0
    2.3945   -3.5269    0.0000 H   0  0  0  0  0  0  0  0  0  0  0  0
    3.2680   -3.4505    0.0000 H   0  0  0  0  0  0  0  0  0  0  0  0
    3.0682   -1.1681    0.0000 H   0  0  0  0  0  0  0  0  0  0  0  0
    2.1948   -1.2445    0.0000 H   0  0  0  0  0  0  0  0  0  0  0  0
    2.2712   -2.1180    0.0000 H   0  0  0  0  0  0  0  0  0  0  0  0
    3.8034   -3.4036    0.0000 H   0  0  0  0  0  0  0  0  0  0  0  0
    4.6768   -3.3272    0.0000 H   0  0  0  0  0  0  0  0  0  0  0  0
    4.6004   -2.4537    0.0000 H   0  0  0  0  0  0  0  0  0  0  0  0
    8.3995   -0.8510    0.0000 H   0  0  0  0  0  0  0  0  0  0  0  0
    9.2464   -0.6241    0.0000 H   0  0  0  0  0  0  0  0  0  0  0  0
    9.0195    0.2228    0.0000 H   0  0  0  0  0  0  0  0  0  0  0  0
    8.8804    0.7419    0.0000 H   0  0  0  0  0  0  0  0  0  0  0  0
    8.6534    1.5889    0.0000 H   0  0  0  0  0  0  0  0  0  0  0  0
    7.8065    1.3619    0.0000 H   0  0  0  0  0  0  0  0  0  0  0  0
    6.8065   -0.3701    0.0000 H   0  0  0  0  0  0  0  0  0  0  0  0
    7.0334   -1.2171    0.0000 H   0  0  0  0  0  0  0  0  0  0  0  0
    7.8804   -0.9901    0.0000 H   0  0  0  0  0  0  0  0  0  0  0  0
  1  5  1  0  0  0  0
  1 16  1  0  0  0  0
  1 17  1  0  0  0  0
  1 18  1  0  0  0  0
  2  6  1  0  0  0  0
  2 19  1  0  0  0  0
  2 20  1  0  0  0  0
  2 21  1  0  0  0  0
  3  7  1  0  0  0  0
  3 22  1  0  0  0  0
  3 23  1  0  0  0  0
  3 24  1  0  0  0  0
  4  8  1  0  0  0  0
  4 25  1  0  0  0  0
  4 26  1  0  0  0  0
  4 27  1  0  0  0  0
 11  5  1  6  0  0  0
 12  6  1  6  0  0  0
  7 14  1  0  0  0  0
  8 15  1  0  0  0  0
  9 14  2  0  0  0  0
 10 15  2  0  0  0  0
 11 12  1  0  0  0  0
 11 13  1  0  0  0  0
 11 14  1  0  0  0  0
 12 15  1  0  0  0  0
 12 28  1  0  0  0  0
 13 29  1  0  0  0  0
 13 30  1  0  0  0  0
 13 31  1  0  0  0  0
 16 32  1  0  0  0  0
 16 33  1  0  0  0  0
 16 34  1  0  0  0  0
 17 35  1  0  0  0  0
 17 36  1  0  0  0  0
 17 37  1  0  0  0  0
 18 38  1  0  0  0  0
 18 39  1  0  0  0  0
 18 40  1  0  0  0  0
 19 41  1  0  0  0  0
 19 42  1  0  0  0  0
 19 43  1  0  0  0  0
 20 44  1  0  0  0  0
 20 45  1  0  0  0  0
 20 46  1  0  0  0  0
 21 47  1  0  0  0  0
 21 48  1  0  0  0  0
 21 49  1  0  0  0  0
 22 50  1  0  0  0  0
 22 51  1  0  0  0  0
 22 52  1  0  0  0  0
 23 53  1  0  0  0  0
 23 54  1  0  0  0  0
 23 55  1  0  0  0  0
 24 56  1  0  0  0  0
 24 57  1  0  0  0  0
 24 58  1  0  0  0  0
 25 59  1  0  0  0  0
 25 60  1  0  0  0  0
 25 61  1  0  0  0  0
 26 62  1  0  0  0  0
 26 63  1  0  0  0  0
 26 64  1  0  0  0  0
 27 65  1  0  0  0  0
 27 66  1  0  0  0  0
 27 67  1  0  0  0  0
M  END
> <PUBCHEM_COMPOUND_CID>
523394
> <PUBCHEM_COMPOUND_CANONICALIZED>
1
> <PUBCHEM_CACTVS_COMPLEXITY>
540
> <PUBCHEM_CACTVS_HBOND_ACCEPTOR>
6
> <PUBCHEM_CACTVS_HBOND_DONOR>
0
> <PUBCHEM_CACTVS_ROTATABLE_BOND>
11
> <PUBCHEM_CACTVS_SUBSKEYS>
AAADcfB4OAwAAAAAAAAAAAAAAAAAAAAAAAAAAAAAAAAAAAAAAAAAGhAAAEAADFSggAJCCAAAAAEIAACQCAIAAAAAAAAAAAFAAAABABQAAAAAAAAFIAAAAABDAAAIAAAAAAAAAAAAAAAAAAAAAAAAAAAAAA==
> <PUBCHEM_IUPAC_OPENEYE_NAME>
bis(trimethylsilyl) (2S,3S)-2-methyl-2,3-bis(trimethylsilyloxy)butanedioate
> <PUBCHEM_IUPAC_CAS_NAME>
(2S,3S)-2-methyl-2,3-bis(trimethylsilyloxy)butanedioic acid bis(trimethylsilyl) ester
> <PUBCHEM_IUPAC_NAME_MARKUP>
bis(trimethylsilyl) (2<I>S</I>,3<I>S</I>)-2-methyl-2,3-bis(trimethylsilyloxy)butanedioate
> <PUBCHEM_IUPAC_NAME>
bis(trimethylsilyl) (2S,3S)-2-methyl-2,3-bis(trimethylsilyloxy)butanedioate
> <PUBCHEM_IUPAC_SYSTEMATIC_NAME>
bis(trimethylsilyl) (2S,3S)-2-methyl-2,3-bis(trimethylsilyloxy)butanedioate
> <PUBCHEM_IUPAC_TRADITIONAL_NAME>
(2S,3S)-2-methyl-2,3-bis(trimethylsilyloxy)succinic acid bis(trimethylsilyl) ester
> <PUBCHEM_IUPAC_INCHI>
InChI=1S/C17H40O6Si4/c1-17(23-27(11,12)13,16(19)22-26(8,9)10)14(20-24(2,3)4)15(18)21-25(5,6)7/h14H,1-13H3/t14-,17+/m1/s1
> <PUBCHEM_IUPAC_INCHIKEY>
JCFLZSFDCXYOFI-PBHICJAKSA-N
> <PUBCHEM_EXACT_MASS>
452.19019513
> <PUBCHEM_MOLECULAR_FORMULA>
C17H40O6Si4
> <PUBCHEM_MOLECULAR_WEIGHT>
452.8
> <PUBCHEM_OPENEYE_CAN_SMILES>
CC(C(C(=O)O[Si](C)(C)C)O[Si](C)(C)C)(C(=O)O[Si](C)(C)C)O[Si](C)(C)C
> <PUBCHEM_OPENEYE_ISO_SMILES>
C[C@]([C@@H](C(=O)O[Si](C)(C)C)O[Si](C)(C)C)(C(=O)O[Si](C)(C)C)O[Si](C)(C)C
> <PUBCHEM_CACTVS_TPSA>
71.1
> <PUBCHEM_MONOISOTOPIC_WEIGHT>
452.19019513
> <PUBCHEM_TOTAL_CHARGE>
0
> <PUBCHEM_HEAVY_ATOM_COUNT>
27
> <PUBCHEM_ATOM_DEF_STEREO_COUNT>
2
> <PUBCHEM_ATOM_UDEF_STEREO_COUNT>
0
> <PUBCHEM_BOND_DEF_STEREO_COUNT>
0
> <PUBCHEM_BOND_UDEF_STEREO_COUNT>
0
> <PUBCHEM_ISOTOPIC_ATOM_COUNT>
0
> <PUBCHEM_COMPONENT_COUNT>
1
> <PUBCHEM_CACTVS_TAUTO_COUNT>
-1
> <PUBCHEM_COORDINATE_TYPE>
1
5
255
> <PUBCHEM_BONDANNOTATIONS>
11  5  6
12  6  6
$$$$
