523356
  -OEChem-10302200292D
 83 82  0     1  0  0  0  0  0999 V2000
    6.0038    2.1651    0.0000 Si  0  0  0  0  0  0  0  0  0  0  0  0
    3.7320    1.8142    0.0000 Si  0  0  0  0  0  0  0  0  0  0  0  0
    6.8301   -2.2838    0.0000 Si  0  0  0  0  0  0  0  0  0  0  0  0
    8.9425   -0.1045    0.0000 Si  0  0  0  0  0  0  0  0  0  0  0  0
    2.8660   -1.6858    0.0000 Si  0  0  0  0  0  0  0  0  0  0  0  0
    5.8301    1.1803    0.0000 O   0  0  0  0  0  0  0  0  0  0  0  0
    4.5981    1.3142    0.0000 O   0  0  0  0  0  0  0  0  0  0  0  0
    6.3301   -1.4178    0.0000 O   0  0  0  0  0  0  0  0  0  0  0  0
    7.9577   -0.2782    0.0000 O   0  0  0  0  0  0  0  0  0  0  0  0
    3.7320   -1.1858    0.0000 O   0  0  0  0  0  0  0  0  0  0  0  0
    7.6570    1.4276    0.0000 O   0  0  0  0  0  0  0  0  0  0  0  0
    2.8660    0.3142    0.0000 O   0  0  0  0  0  0  0  0  0  0  0  0
    6.3301    0.3142    0.0000 C   0  0  2  0  0  0  0  0  0  0  0  0
    5.4641   -0.1858    0.0000 C   0  0  0  0  0  0  0  0  0  0  0  0
    4.5981    0.3142    0.0000 C   0  0  2  0  0  0  0  0  0  0  0  0
    6.8301   -0.5518    0.0000 C   0  0  0  0  0  0  0  0  0  0  0  0
    7.3149    0.4879    0.0000 C   0  0  0  0  0  0  0  0  0  0  0  0
    3.7320   -0.1858    0.0000 C   0  0  0  0  0  0  0  0  0  0  0  0
    5.0190    2.3387    0.0000 C   0  0  0  0  0  0  0  0  0  0  0  0
    6.1774    3.1499    0.0000 C   0  0  0  0  0  0  0  0  0  0  0  0
    6.9886    1.9914    0.0000 C   0  0  0  0  0  0  0  0  0  0  0  0
    2.8660    2.3142    0.0000 C   0  0  0  0  0  0  0  0  0  0  0  0
    4.2320    2.6803    0.0000 C   0  0  0  0  0  0  0  0  0  0  0  0
    3.2320    0.9482    0.0000 C   0  0  0  0  0  0  0  0  0  0  0  0
    7.3301   -3.1499    0.0000 C   0  0  0  0  0  0  0  0  0  0  0  0
    5.9641   -2.7838    0.0000 C   0  0  0  0  0  0  0  0  0  0  0  0
    7.6962   -1.7838    0.0000 C   0  0  0  0  0  0  0  0  0  0  0  0
    9.9273    0.0691    0.0000 C   0  0  0  0  0  0  0  0  0  0  0  0
    9.1162   -1.0893    0.0000 C   0  0  0  0  0  0  0  0  0  0  0  0
    8.7689    0.8803    0.0000 C   0  0  0  0  0  0  0  0  0  0  0  0
    2.0000   -2.1858    0.0000 C   0  0  0  0  0  0  0  0  0  0  0  0
    3.3660   -2.5518    0.0000 C   0  0  0  0  0  0  0  0  0  0  0  0
    2.3660   -0.8197    0.0000 C   0  0  0  0  0  0  0  0  0  0  0  0
    5.0656   -0.6607    0.0000 H   0  0  0  0  0  0  0  0  0  0  0  0
    5.8626   -0.6607    0.0000 H   0  0  0  0  0  0  0  0  0  0  0  0
    5.1350    0.6242    0.0000 H   0  0  0  0  0  0  0  0  0  0  0  0
    7.3051   -0.9503    0.0000 H   0  0  0  0  0  0  0  0  0  0  0  0
    7.3051   -0.1533    0.0000 H   0  0  0  0  0  0  0  0  0  0  0  0
    5.1266    2.9493    0.0000 H   0  0  0  0  0  0  0  0  0  0  0  0
    4.4084    2.4464    0.0000 H   0  0  0  0  0  0  0  0  0  0  0  0
    4.9113    1.7281    0.0000 H   0  0  0  0  0  0  0  0  0  0  0  0
    6.7880    3.0422    0.0000 H   0  0  0  0  0  0  0  0  0  0  0  0
    6.2851    3.7604    0.0000 H   0  0  0  0  0  0  0  0  0  0  0  0
    5.5668    3.2575    0.0000 H   0  0  0  0  0  0  0  0  0  0  0  0
    6.8809    1.3808    0.0000 H   0  0  0  0  0  0  0  0  0  0  0  0
    7.5992    1.8838    0.0000 H   0  0  0  0  0  0  0  0  0  0  0  0
    7.0962    2.6020    0.0000 H   0  0  0  0  0  0  0  0  0  0  0  0
    3.1760    2.8512    0.0000 H   0  0  0  0  0  0  0  0  0  0  0  0
    2.3291    2.6242    0.0000 H   0  0  0  0  0  0  0  0  0  0  0  0
    2.5560    1.7773    0.0000 H   0  0  0  0  0  0  0  0  0  0  0  0
    4.7690    2.3703    0.0000 H   0  0  0  0  0  0  0  0  0  0  0  0
    4.5420    3.2172    0.0000 H   0  0  0  0  0  0  0  0  0  0  0  0
    3.6951    2.9903    0.0000 H   0  0  0  0  0  0  0  0  0  0  0  0
    2.6951    1.2582    0.0000 H   0  0  0  0  0  0  0  0  0  0  0  0
    2.9220    0.4113    0.0000 H   0  0  0  0  0  0  0  0  0  0  0  0
    3.7690    0.6382    0.0000 H   0  0  0  0  0  0  0  0  0  0  0  0
    6.7932   -3.4599    0.0000 H   0  0  0  0  0  0  0  0  0  0  0  0
    7.6401   -3.6868    0.0000 H   0  0  0  0  0  0  0  0  0  0  0  0
    7.8671   -2.8399    0.0000 H   0  0  0  0  0  0  0  0  0  0  0  0
    5.6541   -2.2469    0.0000 H   0  0  0  0  0  0  0  0  0  0  0  0
    5.4272   -3.0939    0.0000 H   0  0  0  0  0  0  0  0  0  0  0  0
    6.2741   -3.3208    0.0000 H   0  0  0  0  0  0  0  0  0  0  0  0
    8.0062   -2.3208    0.0000 H   0  0  0  0  0  0  0  0  0  0  0  0
    8.2331   -1.4739    0.0000 H   0  0  0  0  0  0  0  0  0  0  0  0
    7.3862   -1.2469    0.0000 H   0  0  0  0  0  0  0  0  0  0  0  0
   10.0350   -0.5414    0.0000 H   0  0  0  0  0  0  0  0  0  0  0  0
   10.5379    0.1768    0.0000 H   0  0  0  0  0  0  0  0  0  0  0  0
    9.8197    0.6797    0.0000 H   0  0  0  0  0  0  0  0  0  0  0  0
    8.5056   -1.1970    0.0000 H   0  0  0  0  0  0  0  0  0  0  0  0
    9.2238   -1.6999    0.0000 H   0  0  0  0  0  0  0  0  0  0  0  0
    9.7268   -0.9817    0.0000 H   0  0  0  0  0  0  0  0  0  0  0  0
    9.3795    0.9880    0.0000 H   0  0  0  0  0  0  0  0  0  0  0  0
    8.6612    1.4909    0.0000 H   0  0  0  0  0  0  0  0  0  0  0  0
    8.1583    0.7726    0.0000 H   0  0  0  0  0  0  0  0  0  0  0  0
    1.6900   -1.6488    0.0000 H   0  0  0  0  0  0  0  0  0  0  0  0
    1.4631   -2.4958    0.0000 H   0  0  0  0  0  0  0  0  0  0  0  0
    2.3100   -2.7227    0.0000 H   0  0  0  0  0  0  0  0  0  0  0  0
    2.8291   -2.8618    0.0000 H   0  0  0  0  0  0  0  0  0  0  0  0
    3.6760   -3.0887    0.0000 H   0  0  0  0  0  0  0  0  0  0  0  0
    3.9030   -2.2418    0.0000 H   0  0  0  0  0  0  0  0  0  0  0  0
    2.9030   -0.5097    0.0000 H   0  0  0  0  0  0  0  0  0  0  0  0
    2.0560   -0.2828    0.0000 H   0  0  0  0  0  0  0  0  0  0  0  0
    1.8291   -1.1297    0.0000 H   0  0  0  0  0  0  0  0  0  0  0  0
  1  6  1  0  0  0  0
  1 19  1  0  0  0  0
  1 20  1  0  0  0  0
  1 21  1  0  0  0  0
  2  7  1  0  0  0  0
  2 22  1  0  0  0  0
  2 23  1  0  0  0  0
  2 24  1  0  0  0  0
  3  8  1  0  0  0  0
  3 25  1  0  0  0  0
  3 26  1  0  0  0  0
  3 27  1  0  0  0  0
  4  9  1  0  0  0  0
  4 28  1  0  0  0  0
  4 29  1  0  0  0  0
  4 30  1  0  0  0  0
  5 10  1  0  0  0  0
  5 31  1  0  0  0  0
  5 32  1  0  0  0  0
  5 33  1  0  0  0  0
 13  6  1  1  0  0  0
 15  7  1  6  0  0  0
  8 16  1  0  0  0  0
  9 17  1  0  0  0  0
 10 18  1  0  0  0  0
 11 17  2  0  0  0  0
 12 18  2  0  0  0  0
 13 14  1  0  0  0  0
 13 16  1  0  0  0  0
 13 17  1  0  0  0  0
 14 15  1  0  0  0  0
 14 34  1  0  0  0  0
 14 35  1  0  0  0  0
 15 18  1  0  0  0  0
 15 36  1  0  0  0  0
 16 37  1  0  0  0  0
 16 38  1  0  0  0  0
 19 39  1  0  0  0  0
 19 40  1  0  0  0  0
 19 41  1  0  0  0  0
 20 42  1  0  0  0  0
 20 43  1  0  0  0  0
 20 44  1  0  0  0  0
 21 45  1  0  0  0  0
 21 46  1  0  0  0  0
 21 47  1  0  0  0  0
 22 48  1  0  0  0  0
 22 49  1  0  0  0  0
 22 50  1  0  0  0  0
 23 51  1  0  0  0  0
 23 52  1  0  0  0  0
 23 53  1  0  0  0  0
 24 54  1  0  0  0  0
 24 55  1  0  0  0  0
 24 56  1  0  0  0  0
 25 57  1  0  0  0  0
 25 58  1  0  0  0  0
 25 59  1  0  0  0  0
 26 60  1  0  0  0  0
 26 61  1  0  0  0  0
 26 62  1  0  0  0  0
 27 63  1  0  0  0  0
 27 64  1  0  0  0  0
 27 65  1  0  0  0  0
 28 66  1  0  0  0  0
 28 67  1  0  0  0  0
 28 68  1  0  0  0  0
 29 69  1  0  0  0  0
 29 70  1  0  0  0  0
 29 71  1  0  0  0  0
 30 72  1  0  0  0  0
 30 73  1  0  0  0  0
 30 74  1  0  0  0  0
 31 75  1  0  0  0  0
 31 76  1  0  0  0  0
 31 77  1  0  0  0  0
 32 78  1  0  0  0  0
 32 79  1  0  0  0  0
 32 80  1  0  0  0  0
 33 81  1  0  0  0  0
 33 82  1  0  0  0  0
 33 83  1  0  0  0  0
M  END
> <PUBCHEM_COMPOUND_CID>
523356
> <PUBCHEM_COMPOUND_CANONICALIZED>
1
> <PUBCHEM_CACTVS_COMPLEXITY>
667
> <PUBCHEM_CACTVS_HBOND_ACCEPTOR>
7
> <PUBCHEM_CACTVS_HBOND_DONOR>
0
> <PUBCHEM_CACTVS_ROTATABLE_BOND>
15
> <PUBCHEM_CACTVS_SUBSKEYS>
AAADcfB4OAwAAAAAAAAAAAAAAAAAAAAAAAAAAAAAAAAAAAAAAAAAGhAAAEAADFSggAJCCAAAAAEIAACQCAIAAAAAAAAAAAFAAAABABYAAAAAAAAFIAAAAADKJgAMAAAAAAAAAAAAAAAAAAAAAAAAAAAAAA==
> <PUBCHEM_IUPAC_OPENEYE_NAME>
bis(trimethylsilyl) (2R,4R)-2,4-bis(trimethylsilyloxy)-2-(trimethylsilyloxymethyl)pentanedioate
> <PUBCHEM_IUPAC_CAS_NAME>
(2R,4R)-2,4-bis(trimethylsilyloxy)-2-(trimethylsilyloxymethyl)pentanedioic acid bis(trimethylsilyl) ester
> <PUBCHEM_IUPAC_NAME_MARKUP>
bis(trimethylsilyl) (2<I>R</I>,4<I>R</I>)-2,4-bis(trimethylsilyloxy)-2-(trimethylsilyloxymethyl)pentanedioate
> <PUBCHEM_IUPAC_NAME>
bis(trimethylsilyl) (2R,4R)-2,4-bis(trimethylsilyloxy)-2-(trimethylsilyloxymethyl)pentanedioate
> <PUBCHEM_IUPAC_SYSTEMATIC_NAME>
bis(trimethylsilyl) (2R,4R)-2,4-bis(trimethylsilyloxy)-2-(trimethylsilyloxymethyl)pentanedioate
> <PUBCHEM_IUPAC_TRADITIONAL_NAME>
(2R,4R)-2,4-bis(trimethylsilyloxy)-2-(trimethylsilyloxymethyl)glutaric acid bis(trimethylsilyl) ester
> <PUBCHEM_IUPAC_INCHI>
InChI=1S/C21H50O7Si5/c1-29(2,3)24-17-21(28-33(13,14)15,20(23)27-32(10,11)12)16-18(25-30(4,5)6)19(22)26-31(7,8)9/h18H,16-17H2,1-15H3/t18-,21-/m1/s1
> <PUBCHEM_IUPAC_INCHIKEY>
WNEDAUVACAQDIF-WIYYLYMNSA-N
> <PUBCHEM_EXACT_MASS>
554.24028660
> <PUBCHEM_MOLECULAR_FORMULA>
C21H50O7Si5
> <PUBCHEM_MOLECULAR_WEIGHT>
555.0
> <PUBCHEM_OPENEYE_CAN_SMILES>
C[Si](C)(C)OCC(CC(C(=O)O[Si](C)(C)C)O[Si](C)(C)C)(C(=O)O[Si](C)(C)C)O[Si](C)(C)C
> <PUBCHEM_OPENEYE_ISO_SMILES>
C[Si](C)(C)OC[C@](C[C@H](C(=O)O[Si](C)(C)C)O[Si](C)(C)C)(C(=O)O[Si](C)(C)C)O[Si](C)(C)C
> <PUBCHEM_CACTVS_TPSA>
80.3
> <PUBCHEM_MONOISOTOPIC_WEIGHT>
554.24028660
> <PUBCHEM_TOTAL_CHARGE>
0
> <PUBCHEM_HEAVY_ATOM_COUNT>
33
> <PUBCHEM_ATOM_DEF_STEREO_COUNT>
2
> <PUBCHEM_ATOM_UDEF_STEREO_COUNT>
0
> <PUBCHEM_BOND_DEF_STEREO_COUNT>
0
> <PUBCHEM_BOND_UDEF_STEREO_COUNT>
0
> <PUBCHEM_ISOTOPIC_ATOM_COUNT>
0
> <PUBCHEM_COMPONENT_COUNT>
1
> <PUBCHEM_CACTVS_TAUTO_COUNT>
-1
> <PUBCHEM_COORDINATE_TYPE>
1
5
255
> <PUBCHEM_BONDANNOTATIONS>
13  6  5
15  7  6
$$$$
