523387
  -OEChem-10302200292D
 54 54  0     1  0  0  0  0  0999 V2000
    6.1124    1.4909    0.0000 Si  0  0  0  0  0  0  0  0  0  0  0  0
    2.7431   -0.9570    0.0000 Si  0  0  0  0  0  0  0  0  0  0  0  0
    8.7006   -0.6480    0.0000 Si  0  0  0  0  0  0  0  0  0  0  0  0
    5.2464    0.9909    0.0000 O   0  0  0  0  0  0  0  0  0  0  0  0
    5.7464   -1.5479    0.0000 O   0  0  0  0  0  0  0  0  0  0  0  0
    3.4863   -0.2879    0.0000 O   0  0  0  0  0  0  0  0  0  0  0  0
    7.7496   -0.9570    0.0000 O   0  0  0  0  0  0  0  0  0  0  0  0
    4.1586   -2.3569    0.0000 O   0  0  0  0  0  0  0  0  0  0  0  0
    5.2464   -0.0091    0.0000 C   0  0  3  0  0  0  0  0  0  0  0  0
    6.0554   -0.5969    0.0000 C   0  0  3  0  0  0  0  0  0  0  0  0
    4.4374   -0.5969    0.0000 C   0  0  3  0  0  0  0  0  0  0  0  0
    7.0064   -0.2879    0.0000 C   0  0  0  0  0  0  0  0  0  0  0  0
    4.7464   -1.5479    0.0000 C   0  0  0  0  0  0  0  0  0  0  0  0
    6.9784    1.9909    0.0000 C   0  0  0  0  0  0  0  0  0  0  0  0
    5.6124    2.3569    0.0000 C   0  0  0  0  0  0  0  0  0  0  0  0
    6.6124    0.6249    0.0000 C   0  0  0  0  0  0  0  0  0  0  0  0
    2.0000   -1.6261    0.0000 C   0  0  0  0  0  0  0  0  0  0  0  0
    2.0740   -0.2138    0.0000 C   0  0  0  0  0  0  0  0  0  0  0  0
    3.4123   -1.7001    0.0000 C   0  0  0  0  0  0  0  0  0  0  0  0
    9.6517   -0.3389    0.0000 C   0  0  0  0  0  0  0  0  0  0  0  0
    9.0096   -1.5990    0.0000 C   0  0  0  0  0  0  0  0  0  0  0  0
    8.3916    0.3031    0.0000 C   0  0  0  0  0  0  0  0  0  0  0  0
    5.7988    0.2724    0.0000 H   0  0  0  0  0  0  0  0  0  0  0  0
    6.4938   -1.0353    0.0000 H   0  0  0  0  0  0  0  0  0  0  0  0
    3.9989   -1.0353    0.0000 H   0  0  0  0  0  0  0  0  0  0  0  0
    7.4950    0.0939    0.0000 H   0  0  0  0  0  0  0  0  0  0  0  0
    6.7154    0.2596    0.0000 H   0  0  0  0  0  0  0  0  0  0  0  0
    7.2884    1.4540    0.0000 H   0  0  0  0  0  0  0  0  0  0  0  0
    7.5154    2.3009    0.0000 H   0  0  0  0  0  0  0  0  0  0  0  0
    6.6684    2.5278    0.0000 H   0  0  0  0  0  0  0  0  0  0  0  0
    6.1493    2.6669    0.0000 H   0  0  0  0  0  0  0  0  0  0  0  0
    5.3024    2.8939    0.0000 H   0  0  0  0  0  0  0  0  0  0  0  0
    5.0754    2.0469    0.0000 H   0  0  0  0  0  0  0  0  0  0  0  0
    6.0754    0.3149    0.0000 H   0  0  0  0  0  0  0  0  0  0  0  0
    6.9224    0.0880    0.0000 H   0  0  0  0  0  0  0  0  0  0  0  0
    7.1493    0.9349    0.0000 H   0  0  0  0  0  0  0  0  0  0  0  0
    1.5851   -1.1654    0.0000 H   0  0  0  0  0  0  0  0  0  0  0  0
    1.5392   -2.0410    0.0000 H   0  0  0  0  0  0  0  0  0  0  0  0
    2.4149   -2.0869    0.0000 H   0  0  0  0  0  0  0  0  0  0  0  0
    2.5348    0.2010    0.0000 H   0  0  0  0  0  0  0  0  0  0  0  0
    1.6592    0.2469    0.0000 H   0  0  0  0  0  0  0  0  0  0  0  0
    1.6133   -0.6287    0.0000 H   0  0  0  0  0  0  0  0  0  0  0  0
    2.9515   -2.1150    0.0000 H   0  0  0  0  0  0  0  0  0  0  0  0
    3.8271   -2.1609    0.0000 H   0  0  0  0  0  0  0  0  0  0  0  0
    3.8730   -1.2853    0.0000 H   0  0  0  0  0  0  0  0  0  0  0  0
    9.8433   -0.9286    0.0000 H   0  0  0  0  0  0  0  0  0  0  0  0
   10.2413   -0.1474    0.0000 H   0  0  0  0  0  0  0  0  0  0  0  0
    9.4601    0.2507    0.0000 H   0  0  0  0  0  0  0  0  0  0  0  0
    8.4200   -1.7906    0.0000 H   0  0  0  0  0  0  0  0  0  0  0  0
    9.2012   -2.1887    0.0000 H   0  0  0  0  0  0  0  0  0  0  0  0
    9.5993   -1.4074    0.0000 H   0  0  0  0  0  0  0  0  0  0  0  0
    8.9813    0.4947    0.0000 H   0  0  0  0  0  0  0  0  0  0  0  0
    8.2000    0.8927    0.0000 H   0  0  0  0  0  0  0  0  0  0  0  0
    7.8020    0.1115    0.0000 H   0  0  0  0  0  0  0  0  0  0  0  0
  1  4  1  0  0  0  0
  1 14  1  0  0  0  0
  1 15  1  0  0  0  0
  1 16  1  0  0  0  0
  2  6  1  0  0  0  0
  2 17  1  0  0  0  0
  2 18  1  0  0  0  0
  2 19  1  0  0  0  0
  3  7  1  0  0  0  0
  3 20  1  0  0  0  0
  3 21  1  0  0  0  0
  3 22  1  0  0  0  0
  4  9  1  0  0  0  0
  5 10  1  0  0  0  0
  5 13  1  0  0  0  0
  6 11  1  0  0  0  0
  7 12  1  0  0  0  0
  8 13  2  0  0  0  0
  9 10  1  0  0  0  0
  9 11  1  0  0  0  0
  9 23  1  0  0  0  0
 10 12  1  0  0  0  0
 10 24  1  0  0  0  0
 11 13  1  0  0  0  0
 11 25  1  0  0  0  0
 12 26  1  0  0  0  0
 12 27  1  0  0  0  0
 14 28  1  0  0  0  0
 14 29  1  0  0  0  0
 14 30  1  0  0  0  0
 15 31  1  0  0  0  0
 15 32  1  0  0  0  0
 15 33  1  0  0  0  0
 16 34  1  0  0  0  0
 16 35  1  0  0  0  0
 16 36  1  0  0  0  0
 17 37  1  0  0  0  0
 17 38  1  0  0  0  0
 17 39  1  0  0  0  0
 18 40  1  0  0  0  0
 18 41  1  0  0  0  0
 18 42  1  0  0  0  0
 19 43  1  0  0  0  0
 19 44  1  0  0  0  0
 19 45  1  0  0  0  0
 20 46  1  0  0  0  0
 20 47  1  0  0  0  0
 20 48  1  0  0  0  0
 21 49  1  0  0  0  0
 21 50  1  0  0  0  0
 21 51  1  0  0  0  0
 22 52  1  0  0  0  0
 22 53  1  0  0  0  0
 22 54  1  0  0  0  0
M  END
> <PUBCHEM_COMPOUND_CID>
523387
> <PUBCHEM_COMPOUND_CANONICALIZED>
1
> <PUBCHEM_CACTVS_COMPLEXITY>
395
> <PUBCHEM_CACTVS_HBOND_ACCEPTOR>
5
> <PUBCHEM_CACTVS_HBOND_DONOR>
0
> <PUBCHEM_CACTVS_ROTATABLE_BOND>
7
> <PUBCHEM_CACTVS_SUBSKEYS>
AAADcfBwOAwAAAAAAAAAAAAAAAAAASAAAAAAAAAAAAAAAAAAAAAAGhAAAEAACBSggAJCCAAABAEIAACQCAIAAAAAAAAAAAFAAAABABYAAAACAAAFIAACAADKJAAAAAAAAAAAAAAAAAAAAAAAAAAAAAAAAA==
> <PUBCHEM_IUPAC_OPENEYE_NAME>
3,4-bis(trimethylsilyloxy)-5-(trimethylsilyloxymethyl)tetrahydrofuran-2-one
> <PUBCHEM_IUPAC_CAS_NAME>
3,4-bis(trimethylsilyloxy)-5-(trimethylsilyloxymethyl)-2-oxolanone
> <PUBCHEM_IUPAC_NAME_MARKUP>
3,4-bis(trimethylsilyloxy)-5-(trimethylsilyloxymethyl)oxolan-2-one
> <PUBCHEM_IUPAC_NAME>
3,4-bis(trimethylsilyloxy)-5-(trimethylsilyloxymethyl)oxolan-2-one
> <PUBCHEM_IUPAC_SYSTEMATIC_NAME>
3,4-bis(trimethylsilyloxy)-5-(trimethylsilyloxymethyl)oxolan-2-one
> <PUBCHEM_IUPAC_TRADITIONAL_NAME>
3,4-bis(trimethylsilyloxy)-5-(trimethylsilyloxymethyl)tetrahydrofuran-2-one
> <PUBCHEM_IUPAC_INCHI>
InChI=1S/C14H32O5Si3/c1-20(2,3)16-10-11-12(18-21(4,5)6)13(14(15)17-11)19-22(7,8)9/h11-13H,10H2,1-9H3
> <PUBCHEM_IUPAC_INCHIKEY>
RJMKTJPGOIYTQZ-UHFFFAOYSA-N
> <PUBCHEM_EXACT_MASS>
364.15575372
> <PUBCHEM_MOLECULAR_FORMULA>
C14H32O5Si3
> <PUBCHEM_MOLECULAR_WEIGHT>
364.66
> <PUBCHEM_OPENEYE_CAN_SMILES>
C[Si](C)(C)OCC1C(C(C(=O)O1)O[Si](C)(C)C)O[Si](C)(C)C
> <PUBCHEM_OPENEYE_ISO_SMILES>
C[Si](C)(C)OCC1C(C(C(=O)O1)O[Si](C)(C)C)O[Si](C)(C)C
> <PUBCHEM_CACTVS_TPSA>
54
> <PUBCHEM_MONOISOTOPIC_WEIGHT>
364.15575372
> <PUBCHEM_TOTAL_CHARGE>
0
> <PUBCHEM_HEAVY_ATOM_COUNT>
22
> <PUBCHEM_ATOM_DEF_STEREO_COUNT>
0
> <PUBCHEM_ATOM_UDEF_STEREO_COUNT>
3
> <PUBCHEM_BOND_DEF_STEREO_COUNT>
0
> <PUBCHEM_BOND_UDEF_STEREO_COUNT>
0
> <PUBCHEM_ISOTOPIC_ATOM_COUNT>
0
> <PUBCHEM_COMPONENT_COUNT>
1
> <PUBCHEM_CACTVS_TAUTO_COUNT>
-1
> <PUBCHEM_COORDINATE_TYPE>
1
5
255
> <PUBCHEM_BONDANNOTATIONS>
10  12  3
9  4  3
11  6  3
$$$$
