523349
  -OEChem-10302200292D
 44 44  0     1  0  0  0  0  0999 V2000
    6.5512    2.1537    0.0000 Si  0  0  0  0  0  0  0  0  0  0  0  0
    2.9511   -2.1161    0.0000 Si  0  0  0  0  0  0  0  0  0  0  0  0
    5.8701   -1.1078    0.0000 O   0  0  0  0  0  0  0  0  0  0  0  0
    6.9579    1.2401    0.0000 O   0  0  0  0  0  0  0  0  0  0  0  0
    3.9021   -1.8071    0.0000 O   0  0  0  0  0  0  0  0  0  0  0  0
    7.6302   -0.8290    0.0000 O   0  0  0  0  0  0  0  0  0  0  0  0
    5.0611   -0.5200    0.0000 C   0  0  3  0  0  0  0  0  0  0  0  0
    5.3701    0.4311    0.0000 C   0  0  0  0  0  0  0  0  0  0  0  0
    6.3701    0.4311    0.0000 C   0  0  3  0  0  0  0  0  0  0  0  0
    4.1100   -0.8290    0.0000 C   0  0  3  0  0  0  0  0  0  0  0  0
    6.6791   -0.5200    0.0000 C   0  0  0  0  0  0  0  0  0  0  0  0
    3.3669   -0.1598    0.0000 C   0  0  0  0  0  0  0  0  0  0  0  0
    6.1444    3.0672    0.0000 C   0  0  0  0  0  0  0  0  0  0  0  0
    7.4647    2.5604    0.0000 C   0  0  0  0  0  0  0  0  0  0  0  0
    5.6376    1.7469    0.0000 C   0  0  0  0  0  0  0  0  0  0  0  0
    2.0000   -2.4252    0.0000 C   0  0  0  0  0  0  0  0  0  0  0  0
    3.2601   -3.0672    0.0000 C   0  0  0  0  0  0  0  0  0  0  0  0
    2.6420   -1.1651    0.0000 C   0  0  0  0  0  0  0  0  0  0  0  0
    5.6507   -0.3284    0.0000 H   0  0  0  0  0  0  0  0  0  0  0  0
    5.4349    1.0477    0.0000 H   0  0  0  0  0  0  0  0  0  0  0  0
    4.7636    0.5600    0.0000 H   0  0  0  0  0  0  0  0  0  0  0  0
    6.0886    0.9835    0.0000 H   0  0  0  0  0  0  0  0  0  0  0  0
    4.5708   -1.2438    0.0000 H   0  0  0  0  0  0  0  0  0  0  0  0
    3.7817    0.3009    0.0000 H   0  0  0  0  0  0  0  0  0  0  0  0
    2.9061    0.2550    0.0000 H   0  0  0  0  0  0  0  0  0  0  0  0
    2.9520   -0.6206    0.0000 H   0  0  0  0  0  0  0  0  0  0  0  0
    6.7108    3.3194    0.0000 H   0  0  0  0  0  0  0  0  0  0  0  0
    5.8922    3.6336    0.0000 H   0  0  0  0  0  0  0  0  0  0  0  0
    5.5780    2.8150    0.0000 H   0  0  0  0  0  0  0  0  0  0  0  0
    7.7169    1.9940    0.0000 H   0  0  0  0  0  0  0  0  0  0  0  0
    8.0311    2.8126    0.0000 H   0  0  0  0  0  0  0  0  0  0  0  0
    7.2125    3.1268    0.0000 H   0  0  0  0  0  0  0  0  0  0  0  0
    5.3854    2.3133    0.0000 H   0  0  0  0  0  0  0  0  0  0  0  0
    5.0712    1.4947    0.0000 H   0  0  0  0  0  0  0  0  0  0  0  0
    5.8898    1.1805    0.0000 H   0  0  0  0  0  0  0  0  0  0  0  0
    1.8084   -1.8355    0.0000 H   0  0  0  0  0  0  0  0  0  0  0  0
    1.4103   -2.6168    0.0000 H   0  0  0  0  0  0  0  0  0  0  0  0
    2.1916   -3.0148    0.0000 H   0  0  0  0  0  0  0  0  0  0  0  0
    2.6704   -3.2588    0.0000 H   0  0  0  0  0  0  0  0  0  0  0  0
    3.4517   -3.6569    0.0000 H   0  0  0  0  0  0  0  0  0  0  0  0
    3.8497   -2.8756    0.0000 H   0  0  0  0  0  0  0  0  0  0  0  0
    3.2317   -0.9735    0.0000 H   0  0  0  0  0  0  0  0  0  0  0  0
    2.4504   -0.5754    0.0000 H   0  0  0  0  0  0  0  0  0  0  0  0
    2.0524   -1.3567    0.0000 H   0  0  0  0  0  0  0  0  0  0  0  0
  1  4  1  0  0  0  0
  1 13  1  0  0  0  0
  1 14  1  0  0  0  0
  1 15  1  0  0  0  0
  2  5  1  0  0  0  0
  2 16  1  0  0  0  0
  2 17  1  0  0  0  0
  2 18  1  0  0  0  0
  3  7  1  0  0  0  0
  3 11  1  0  0  0  0
  4  9  1  0  0  0  0
  5 10  1  0  0  0  0
  6 11  2  0  0  0  0
  7  8  1  0  0  0  0
  7 10  1  0  0  0  0
  7 19  1  0  0  0  0
  8  9  1  0  0  0  0
  8 20  1  0  0  0  0
  8 21  1  0  0  0  0
  9 11  1  0  0  0  0
  9 22  1  0  0  0  0
 10 12  1  0  0  0  0
 10 23  1  0  0  0  0
 12 24  1  0  0  0  0
 12 25  1  0  0  0  0
 12 26  1  0  0  0  0
 13 27  1  0  0  0  0
 13 28  1  0  0  0  0
 13 29  1  0  0  0  0
 14 30  1  0  0  0  0
 14 31  1  0  0  0  0
 14 32  1  0  0  0  0
 15 33  1  0  0  0  0
 15 34  1  0  0  0  0
 15 35  1  0  0  0  0
 16 36  1  0  0  0  0
 16 37  1  0  0  0  0
 16 38  1  0  0  0  0
 17 39  1  0  0  0  0
 17 40  1  0  0  0  0
 17 41  1  0  0  0  0
 18 42  1  0  0  0  0
 18 43  1  0  0  0  0
 18 44  1  0  0  0  0
M  END
> <PUBCHEM_COMPOUND_CID>
523349
> <PUBCHEM_COMPOUND_CANONICALIZED>
1
> <PUBCHEM_CACTVS_COMPLEXITY>
306
> <PUBCHEM_CACTVS_HBOND_ACCEPTOR>
4
> <PUBCHEM_CACTVS_HBOND_DONOR>
0
> <PUBCHEM_CACTVS_ROTATABLE_BOND>
5
> <PUBCHEM_CACTVS_SUBSKEYS>
AAADceBwOAwAAAAAAAAAAAAAAAAAASAAAAAAAAAAAAAAAAAAAAAAGhAAAEAACBSggAJCCAAABAEIAACQCAIAAAAAAAAAAAFAAAABABIAAAACAAAFAAACAAHKbARAAAAAAAAAAAAAAAAAAAAAAAAAAAAAAA==
> <PUBCHEM_IUPAC_OPENEYE_NAME>
3-trimethylsilyloxy-5-(1-trimethylsilyloxyethyl)tetrahydrofuran-2-one
> <PUBCHEM_IUPAC_CAS_NAME>
3-trimethylsilyloxy-5-(1-trimethylsilyloxyethyl)-2-oxolanone
> <PUBCHEM_IUPAC_NAME_MARKUP>
3-trimethylsilyloxy-5-(1-trimethylsilyloxyethyl)oxolan-2-one
> <PUBCHEM_IUPAC_NAME>
3-trimethylsilyloxy-5-(1-trimethylsilyloxyethyl)oxolan-2-one
> <PUBCHEM_IUPAC_SYSTEMATIC_NAME>
3-trimethylsilyloxy-5-(1-trimethylsilyloxyethyl)oxolan-2-one
> <PUBCHEM_IUPAC_TRADITIONAL_NAME>
3-trimethylsilyloxy-5-(1-trimethylsilyloxyethyl)tetrahydrofuran-2-one
> <PUBCHEM_IUPAC_INCHI>
InChI=1S/C12H26O4Si2/c1-9(15-17(2,3)4)10-8-11(12(13)14-10)16-18(5,6)7/h9-11H,8H2,1-7H3
> <PUBCHEM_IUPAC_INCHIKEY>
SMFMESPJTFCMTH-UHFFFAOYSA-N
> <PUBCHEM_EXACT_MASS>
290.13696238
> <PUBCHEM_MOLECULAR_FORMULA>
C12H26O4Si2
> <PUBCHEM_MOLECULAR_WEIGHT>
290.50
> <PUBCHEM_OPENEYE_CAN_SMILES>
CC(C1CC(C(=O)O1)O[Si](C)(C)C)O[Si](C)(C)C
> <PUBCHEM_OPENEYE_ISO_SMILES>
CC(C1CC(C(=O)O1)O[Si](C)(C)C)O[Si](C)(C)C
> <PUBCHEM_CACTVS_TPSA>
44.8
> <PUBCHEM_MONOISOTOPIC_WEIGHT>
290.13696238
> <PUBCHEM_TOTAL_CHARGE>
0
> <PUBCHEM_HEAVY_ATOM_COUNT>
18
> <PUBCHEM_ATOM_DEF_STEREO_COUNT>
0
> <PUBCHEM_ATOM_UDEF_STEREO_COUNT>
3
> <PUBCHEM_BOND_DEF_STEREO_COUNT>
0
> <PUBCHEM_BOND_UDEF_STEREO_COUNT>
0
> <PUBCHEM_ISOTOPIC_ATOM_COUNT>
0
> <PUBCHEM_COMPONENT_COUNT>
1
> <PUBCHEM_CACTVS_TAUTO_COUNT>
-1
> <PUBCHEM_COORDINATE_TYPE>
1
5
255
> <PUBCHEM_BONDANNOTATIONS>
10  12  3
9  4  3
7  8  3
$$$$
