523370
  -OEChem-10302200292D
 68 67  0     1  0  0  0  0  0999 V2000
    2.8660    1.0000    0.0000 Si  0  0  0  0  0  0  0  0  0  0  0  0
    7.1962   -0.5000    0.0000 Si  0  0  0  0  0  0  0  0  0  0  0  0
    3.7320   -1.5000    0.0000 Si  0  0  0  0  0  0  0  0  0  0  0  0
    8.9282    1.5000    0.0000 Si  0  0  0  0  0  0  0  0  0  0  0  0
    3.7320    1.5000    0.0000 O   0  0  0  0  0  0  0  0  0  0  0  0
    6.3301    0.0000    0.0000 O   0  0  0  0  0  0  0  0  0  0  0  0
    3.7320   -0.5000    0.0000 O   0  0  0  0  0  0  0  0  0  0  0  0
    8.0622    1.0000    0.0000 O   0  0  0  0  0  0  0  0  0  0  0  0
    7.1962    2.5000    0.0000 O   0  0  0  0  0  0  0  0  0  0  0  0
    4.5981    1.0000    0.0000 C   0  0  2  0  0  0  0  0  0  0  0  0
    5.4641    1.5000    0.0000 C   0  0  0  0  0  0  0  0  0  0  0  0
    6.3301    1.0000    0.0000 C   0  0  2  0  0  0  0  0  0  0  0  0
    4.5981   -0.0000    0.0000 C   0  0  0  0  0  0  0  0  0  0  0  0
    7.1962    1.5000    0.0000 C   0  0  0  0  0  0  0  0  0  0  0  0
    2.0000    0.5000    0.0000 C   0  0  0  0  0  0  0  0  0  0  0  0
    2.3660    1.8660    0.0000 C   0  0  0  0  0  0  0  0  0  0  0  0
    3.3660    0.1340    0.0000 C   0  0  0  0  0  0  0  0  0  0  0  0
    6.6962   -1.3660    0.0000 C   0  0  0  0  0  0  0  0  0  0  0  0
    8.0622   -1.0000    0.0000 C   0  0  0  0  0  0  0  0  0  0  0  0
    7.6962    0.3660    0.0000 C   0  0  0  0  0  0  0  0  0  0  0  0
    3.7320   -2.5000    0.0000 C   0  0  0  0  0  0  0  0  0  0  0  0
    2.7320   -1.5000    0.0000 C   0  0  0  0  0  0  0  0  0  0  0  0
    4.7320   -1.5000    0.0000 C   0  0  0  0  0  0  0  0  0  0  0  0
    9.7942    2.0000    0.0000 C   0  0  0  0  0  0  0  0  0  0  0  0
    9.4282    0.6340    0.0000 C   0  0  0  0  0  0  0  0  0  0  0  0
    8.4282    2.3660    0.0000 C   0  0  0  0  0  0  0  0  0  0  0  0
    4.5981    1.6200    0.0000 H   0  0  0  0  0  0  0  0  0  0  0  0
    5.8626    1.9750    0.0000 H   0  0  0  0  0  0  0  0  0  0  0  0
    5.0656    1.9750    0.0000 H   0  0  0  0  0  0  0  0  0  0  0  0
    6.8671    0.6900    0.0000 H   0  0  0  0  0  0  0  0  0  0  0  0
    4.8101   -0.5826    0.0000 H   0  0  0  0  0  0  0  0  0  0  0  0
    5.2087    0.1077    0.0000 H   0  0  0  0  0  0  0  0  0  0  0  0
    1.6900    1.0369    0.0000 H   0  0  0  0  0  0  0  0  0  0  0  0
    1.4631    0.1900    0.0000 H   0  0  0  0  0  0  0  0  0  0  0  0
    2.3100   -0.0369    0.0000 H   0  0  0  0  0  0  0  0  0  0  0  0
    2.9030    2.1760    0.0000 H   0  0  0  0  0  0  0  0  0  0  0  0
    2.0560    2.4030    0.0000 H   0  0  0  0  0  0  0  0  0  0  0  0
    1.8291    1.5560    0.0000 H   0  0  0  0  0  0  0  0  0  0  0  0
    2.8291   -0.1760    0.0000 H   0  0  0  0  0  0  0  0  0  0  0  0
    3.6760   -0.4030    0.0000 H   0  0  0  0  0  0  0  0  0  0  0  0
    3.9030    0.4440    0.0000 H   0  0  0  0  0  0  0  0  0  0  0  0
    6.1592   -1.0560    0.0000 H   0  0  0  0  0  0  0  0  0  0  0  0
    6.3862   -1.9030    0.0000 H   0  0  0  0  0  0  0  0  0  0  0  0
    7.2331   -1.6760    0.0000 H   0  0  0  0  0  0  0  0  0  0  0  0
    7.7522   -1.5369    0.0000 H   0  0  0  0  0  0  0  0  0  0  0  0
    8.5991   -1.3100    0.0000 H   0  0  0  0  0  0  0  0  0  0  0  0
    8.3722   -0.4631    0.0000 H   0  0  0  0  0  0  0  0  0  0  0  0
    8.2331    0.0560    0.0000 H   0  0  0  0  0  0  0  0  0  0  0  0
    8.0062    0.9030    0.0000 H   0  0  0  0  0  0  0  0  0  0  0  0
    7.1592    0.6760    0.0000 H   0  0  0  0  0  0  0  0  0  0  0  0
    3.1120   -2.5000    0.0000 H   0  0  0  0  0  0  0  0  0  0  0  0
    3.7320   -3.1200    0.0000 H   0  0  0  0  0  0  0  0  0  0  0  0
    4.3520   -2.5000    0.0000 H   0  0  0  0  0  0  0  0  0  0  0  0
    2.7320   -0.8800    0.0000 H   0  0  0  0  0  0  0  0  0  0  0  0
    2.1120   -1.5000    0.0000 H   0  0  0  0  0  0  0  0  0  0  0  0
    2.7320   -2.1200    0.0000 H   0  0  0  0  0  0  0  0  0  0  0  0
    4.7320   -2.1200    0.0000 H   0  0  0  0  0  0  0  0  0  0  0  0
    5.3520   -1.5000    0.0000 H   0  0  0  0  0  0  0  0  0  0  0  0
    4.7320   -0.8800    0.0000 H   0  0  0  0  0  0  0  0  0  0  0  0
   10.1042    1.4631    0.0000 H   0  0  0  0  0  0  0  0  0  0  0  0
   10.3312    2.3100    0.0000 H   0  0  0  0  0  0  0  0  0  0  0  0
    9.4842    2.5369    0.0000 H   0  0  0  0  0  0  0  0  0  0  0  0
    8.8913    0.3240    0.0000 H   0  0  0  0  0  0  0  0  0  0  0  0
    9.7382    0.0970    0.0000 H   0  0  0  0  0  0  0  0  0  0  0  0
    9.9651    0.9440    0.0000 H   0  0  0  0  0  0  0  0  0  0  0  0
    8.9651    2.6760    0.0000 H   0  0  0  0  0  0  0  0  0  0  0  0
    8.1182    2.9030    0.0000 H   0  0  0  0  0  0  0  0  0  0  0  0
    7.8913    2.0560    0.0000 H   0  0  0  0  0  0  0  0  0  0  0  0
  1  5  1  0  0  0  0
  1 15  1  0  0  0  0
  1 16  1  0  0  0  0
  1 17  1  0  0  0  0
  2  6  1  0  0  0  0
  2 18  1  0  0  0  0
  2 19  1  0  0  0  0
  2 20  1  0  0  0  0
  3  7  1  0  0  0  0
  3 21  1  0  0  0  0
  3 22  1  0  0  0  0
  3 23  1  0  0  0  0
  4  8  1  0  0  0  0
  4 24  1  0  0  0  0
  4 25  1  0  0  0  0
  4 26  1  0  0  0  0
 10  5  1  6  0  0  0
 12  6  1  6  0  0  0
  7 13  1  0  0  0  0
  8 14  1  0  0  0  0
  9 14  2  0  0  0  0
 10 11  1  0  0  0  0
 10 13  1  0  0  0  0
 10 27  1  0  0  0  0
 11 12  1  0  0  0  0
 11 28  1  0  0  0  0
 11 29  1  0  0  0  0
 12 14  1  0  0  0  0
 12 30  1  0  0  0  0
 13 31  1  0  0  0  0
 13 32  1  0  0  0  0
 15 33  1  0  0  0  0
 15 34  1  0  0  0  0
 15 35  1  0  0  0  0
 16 36  1  0  0  0  0
 16 37  1  0  0  0  0
 16 38  1  0  0  0  0
 17 39  1  0  0  0  0
 17 40  1  0  0  0  0
 17 41  1  0  0  0  0
 18 42  1  0  0  0  0
 18 43  1  0  0  0  0
 18 44  1  0  0  0  0
 19 45  1  0  0  0  0
 19 46  1  0  0  0  0
 19 47  1  0  0  0  0
 20 48  1  0  0  0  0
 20 49  1  0  0  0  0
 20 50  1  0  0  0  0
 21 51  1  0  0  0  0
 21 52  1  0  0  0  0
 21 53  1  0  0  0  0
 22 54  1  0  0  0  0
 22 55  1  0  0  0  0
 22 56  1  0  0  0  0
 23 57  1  0  0  0  0
 23 58  1  0  0  0  0
 23 59  1  0  0  0  0
 24 60  1  0  0  0  0
 24 61  1  0  0  0  0
 24 62  1  0  0  0  0
 25 63  1  0  0  0  0
 25 64  1  0  0  0  0
 25 65  1  0  0  0  0
 26 66  1  0  0  0  0
 26 67  1  0  0  0  0
 26 68  1  0  0  0  0
M  END
> <PUBCHEM_COMPOUND_CID>
523370
> <PUBCHEM_COMPOUND_CANONICALIZED>
1
> <PUBCHEM_CACTVS_COMPLEXITY>
444
> <PUBCHEM_CACTVS_HBOND_ACCEPTOR>
5
> <PUBCHEM_CACTVS_HBOND_DONOR>
0
> <PUBCHEM_CACTVS_ROTATABLE_BOND>
12
> <PUBCHEM_CACTVS_SUBSKEYS>
AAADcfB4OAwAAAAAAAAAAAAAAAAAAAAAAAAAAAAAAAAAAAAAAAAAGhAAAEAACBSggAJCCAAAAAEIAACQCAIAAAAAAAAAAAFAAAABABIAAAAAAAAFAAAAAADKJAAAAAAAAAAAAAAAAAAAAAAAAAAAAAAAAA==
> <PUBCHEM_IUPAC_OPENEYE_NAME>
trimethylsilyl (2R,4R)-2,4,5-tris(trimethylsilyloxy)pentanoate
> <PUBCHEM_IUPAC_CAS_NAME>
(2R,4R)-2,4,5-tris(trimethylsilyloxy)pentanoic acid trimethylsilyl ester
> <PUBCHEM_IUPAC_NAME_MARKUP>
trimethylsilyl (2<I>R</I>,4<I>R</I>)-2,4,5-tris(trimethylsilyloxy)pentanoate
> <PUBCHEM_IUPAC_NAME>
trimethylsilyl (2R,4R)-2,4,5-tris(trimethylsilyloxy)pentanoate
> <PUBCHEM_IUPAC_SYSTEMATIC_NAME>
trimethylsilyl (2R,4R)-2,4,5-tris(trimethylsilyloxy)pentanoate
> <PUBCHEM_IUPAC_TRADITIONAL_NAME>
(2R,4R)-2,4,5-tris(trimethylsilyloxy)valeric acid trimethylsilyl ester
> <PUBCHEM_IUPAC_INCHI>
InChI=1S/C17H42O5Si4/c1-23(2,3)19-14-15(20-24(4,5)6)13-16(21-25(7,8)9)17(18)22-26(10,11)12/h15-16H,13-14H2,1-12H3/t15-,16-/m1/s1
> <PUBCHEM_IUPAC_INCHIKEY>
OQHUZALRVKVUOV-HZPDHXFCSA-N
> <PUBCHEM_EXACT_MASS>
438.21093057
> <PUBCHEM_MOLECULAR_FORMULA>
C17H42O5Si4
> <PUBCHEM_MOLECULAR_WEIGHT>
438.9
> <PUBCHEM_OPENEYE_CAN_SMILES>
C[Si](C)(C)OCC(CC(C(=O)O[Si](C)(C)C)O[Si](C)(C)C)O[Si](C)(C)C
> <PUBCHEM_OPENEYE_ISO_SMILES>
C[Si](C)(C)OC[C@@H](C[C@H](C(=O)O[Si](C)(C)C)O[Si](C)(C)C)O[Si](C)(C)C
> <PUBCHEM_CACTVS_TPSA>
54
> <PUBCHEM_MONOISOTOPIC_WEIGHT>
438.21093057
> <PUBCHEM_TOTAL_CHARGE>
0
> <PUBCHEM_HEAVY_ATOM_COUNT>
26
> <PUBCHEM_ATOM_DEF_STEREO_COUNT>
2
> <PUBCHEM_ATOM_UDEF_STEREO_COUNT>
0
> <PUBCHEM_BOND_DEF_STEREO_COUNT>
0
> <PUBCHEM_BOND_UDEF_STEREO_COUNT>
0
> <PUBCHEM_ISOTOPIC_ATOM_COUNT>
0
> <PUBCHEM_COMPONENT_COUNT>
1
> <PUBCHEM_CACTVS_TAUTO_COUNT>
-1
> <PUBCHEM_COORDINATE_TYPE>
1
5
255
> <PUBCHEM_BONDANNOTATIONS>
10  5  6
12  6  6
$$$$
