523333
  -OEChem-10302200292D
 67 66  0     1  0  0  0  0  0999 V2000
    7.1962   -2.0000    0.0000 Si  0  0  0  0  0  0  0  0  0  0  0  0
    4.5981   -2.5000    0.0000 Si  0  0  0  0  0  0  0  0  0  0  0  0
    2.8660   -0.5000    0.0000 Si  0  0  0  0  0  0  0  0  0  0  0  0
    8.0622    2.5000    0.0000 Si  0  0  0  0  0  0  0  0  0  0  0  0
    7.1962   -1.0000    0.0000 O   0  0  0  0  0  0  0  0  0  0  0  0
    5.4641   -2.0000    0.0000 O   0  0  0  0  0  0  0  0  0  0  0  0
    3.7320   -1.0000    0.0000 O   0  0  0  0  0  0  0  0  0  0  0  0
    7.1962    2.0000    0.0000 O   0  0  0  0  0  0  0  0  0  0  0  0
    4.5981    0.5000    0.0000 O   0  0  0  0  0  0  0  0  0  0  0  0
    8.0622    0.5000    0.0000 O   0  0  0  0  0  0  0  0  0  0  0  0
    6.3301   -0.5000    0.0000 C   0  0  1  0  0  0  0  0  0  0  0  0
    5.4641   -1.0000    0.0000 C   0  0  1  0  0  0  0  0  0  0  0  0
    6.3301    0.5000    0.0000 C   0  0  0  0  0  0  0  0  0  0  0  0
    4.5981   -0.5000    0.0000 C   0  0  0  0  0  0  0  0  0  0  0  0
    7.1962   -3.0000    0.0000 C   0  0  0  0  0  0  0  0  0  0  0  0
    8.1962   -2.0000    0.0000 C   0  0  0  0  0  0  0  0  0  0  0  0
    6.1962   -2.0000    0.0000 C   0  0  0  0  0  0  0  0  0  0  0  0
    3.7320   -3.0000    0.0000 C   0  0  0  0  0  0  0  0  0  0  0  0
    5.0981   -3.3660    0.0000 C   0  0  0  0  0  0  0  0  0  0  0  0
    4.0981   -1.6340    0.0000 C   0  0  0  0  0  0  0  0  0  0  0  0
    7.1962    1.0000    0.0000 C   0  0  0  0  0  0  0  0  0  0  0  0
    2.0000   -0.0000    0.0000 C   0  0  0  0  0  0  0  0  0  0  0  0
    2.3660   -1.3660    0.0000 C   0  0  0  0  0  0  0  0  0  0  0  0
    3.3660    0.3660    0.0000 C   0  0  0  0  0  0  0  0  0  0  0  0
    8.9282    3.0000    0.0000 C   0  0  0  0  0  0  0  0  0  0  0  0
    7.5622    3.3660    0.0000 C   0  0  0  0  0  0  0  0  0  0  0  0
    8.5622    1.6340    0.0000 C   0  0  0  0  0  0  0  0  0  0  0  0
    6.8671   -0.1900    0.0000 H   0  0  0  0  0  0  0  0  0  0  0  0
    6.0010   -1.3100    0.0000 H   0  0  0  0  0  0  0  0  0  0  0  0
    6.1181    1.0826    0.0000 H   0  0  0  0  0  0  0  0  0  0  0  0
    5.7196    0.3923    0.0000 H   0  0  0  0  0  0  0  0  0  0  0  0
    6.5762   -3.0000    0.0000 H   0  0  0  0  0  0  0  0  0  0  0  0
    7.1962   -3.6200    0.0000 H   0  0  0  0  0  0  0  0  0  0  0  0
    7.8162   -3.0000    0.0000 H   0  0  0  0  0  0  0  0  0  0  0  0
    8.1962   -2.6200    0.0000 H   0  0  0  0  0  0  0  0  0  0  0  0
    8.8162   -2.0000    0.0000 H   0  0  0  0  0  0  0  0  0  0  0  0
    8.1962   -1.3800    0.0000 H   0  0  0  0  0  0  0  0  0  0  0  0
    6.1962   -1.3800    0.0000 H   0  0  0  0  0  0  0  0  0  0  0  0
    5.5762   -2.0000    0.0000 H   0  0  0  0  0  0  0  0  0  0  0  0
    6.1962   -2.6200    0.0000 H   0  0  0  0  0  0  0  0  0  0  0  0
    3.4220   -2.4631    0.0000 H   0  0  0  0  0  0  0  0  0  0  0  0
    3.1951   -3.3100    0.0000 H   0  0  0  0  0  0  0  0  0  0  0  0
    4.0420   -3.5369    0.0000 H   0  0  0  0  0  0  0  0  0  0  0  0
    4.5611   -3.6760    0.0000 H   0  0  0  0  0  0  0  0  0  0  0  0
    5.4081   -3.9030    0.0000 H   0  0  0  0  0  0  0  0  0  0  0  0
    5.6350   -3.0560    0.0000 H   0  0  0  0  0  0  0  0  0  0  0  0
    4.6350   -1.3240    0.0000 H   0  0  0  0  0  0  0  0  0  0  0  0
    3.7881   -1.0970    0.0000 H   0  0  0  0  0  0  0  0  0  0  0  0
    3.5611   -1.9440    0.0000 H   0  0  0  0  0  0  0  0  0  0  0  0
    2.3100    0.5369    0.0000 H   0  0  0  0  0  0  0  0  0  0  0  0
    1.4631    0.3100    0.0000 H   0  0  0  0  0  0  0  0  0  0  0  0
    1.6900   -0.5369    0.0000 H   0  0  0  0  0  0  0  0  0  0  0  0
    1.8291   -1.0560    0.0000 H   0  0  0  0  0  0  0  0  0  0  0  0
    2.0560   -1.9030    0.0000 H   0  0  0  0  0  0  0  0  0  0  0  0
    2.9030   -1.6760    0.0000 H   0  0  0  0  0  0  0  0  0  0  0  0
    3.9030    0.0560    0.0000 H   0  0  0  0  0  0  0  0  0  0  0  0
    3.6760    0.9030    0.0000 H   0  0  0  0  0  0  0  0  0  0  0  0
    2.8291    0.6760    0.0000 H   0  0  0  0  0  0  0  0  0  0  0  0
    9.2382    2.4631    0.0000 H   0  0  0  0  0  0  0  0  0  0  0  0
    9.4651    3.3100    0.0000 H   0  0  0  0  0  0  0  0  0  0  0  0
    8.6182    3.5369    0.0000 H   0  0  0  0  0  0  0  0  0  0  0  0
    8.0991    3.6760    0.0000 H   0  0  0  0  0  0  0  0  0  0  0  0
    7.2522    3.9030    0.0000 H   0  0  0  0  0  0  0  0  0  0  0  0
    7.0252    3.0560    0.0000 H   0  0  0  0  0  0  0  0  0  0  0  0
    8.0252    1.3240    0.0000 H   0  0  0  0  0  0  0  0  0  0  0  0
    8.8722    1.0970    0.0000 H   0  0  0  0  0  0  0  0  0  0  0  0
    9.0991    1.9440    0.0000 H   0  0  0  0  0  0  0  0  0  0  0  0
  1  5  1  0  0  0  0
  1 15  1  0  0  0  0
  1 16  1  0  0  0  0
  1 17  1  0  0  0  0
  2  6  1  0  0  0  0
  2 18  1  0  0  0  0
  2 19  1  0  0  0  0
  2 20  1  0  0  0  0
  3  7  1  0  0  0  0
  3 22  1  0  0  0  0
  3 23  1  0  0  0  0
  3 24  1  0  0  0  0
  4  8  1  0  0  0  0
  4 25  1  0  0  0  0
  4 26  1  0  0  0  0
  4 27  1  0  0  0  0
 11  5  1  1  0  0  0
 12  6  1  6  0  0  0
  7 14  1  0  0  0  0
  8 21  1  0  0  0  0
  9 14  2  0  0  0  0
 10 21  2  0  0  0  0
 11 12  1  0  0  0  0
 11 13  1  0  0  0  0
 11 28  1  0  0  0  0
 12 14  1  0  0  0  0
 12 29  1  0  0  0  0
 13 21  1  0  0  0  0
 13 30  1  0  0  0  0
 13 31  1  0  0  0  0
 15 32  1  0  0  0  0
 15 33  1  0  0  0  0
 15 34  1  0  0  0  0
 16 35  1  0  0  0  0
 16 36  1  0  0  0  0
 16 37  1  0  0  0  0
 17 38  1  0  0  0  0
 17 39  1  0  0  0  0
 17 40  1  0  0  0  0
 18 41  1  0  0  0  0
 18 42  1  0  0  0  0
 18 43  1  0  0  0  0
 19 44  1  0  0  0  0
 19 45  1  0  0  0  0
 19 46  1  0  0  0  0
 20 47  1  0  0  0  0
 20 48  1  0  0  0  0
 20 49  1  0  0  0  0
 22 50  1  0  0  0  0
 22 51  1  0  0  0  0
 22 52  1  0  0  0  0
 23 53  1  0  0  0  0
 23 54  1  0  0  0  0
 23 55  1  0  0  0  0
 24 56  1  0  0  0  0
 24 57  1  0  0  0  0
 24 58  1  0  0  0  0
 25 59  1  0  0  0  0
 25 60  1  0  0  0  0
 25 61  1  0  0  0  0
 26 62  1  0  0  0  0
 26 63  1  0  0  0  0
 26 64  1  0  0  0  0
 27 65  1  0  0  0  0
 27 66  1  0  0  0  0
 27 67  1  0  0  0  0
M  END
> <PUBCHEM_COMPOUND_CID>
523333
> <PUBCHEM_COMPOUND_CANONICALIZED>
1
> <PUBCHEM_CACTVS_COMPLEXITY>
512
> <PUBCHEM_CACTVS_HBOND_ACCEPTOR>
6
> <PUBCHEM_CACTVS_HBOND_DONOR>
0
> <PUBCHEM_CACTVS_ROTATABLE_BOND>
12
> <PUBCHEM_CACTVS_SUBSKEYS>
AAADcfB4OAwAAAAAAAAAAAAAAAAAAAAAAAAAAAAAAAAAAAAAAAAAGhAAAEAACBSggAJCCAAAAAEIAACQCAIAAAAAAAAAAAFAAAABABYAAAAAAAAFIAAAAADKJgAAAAAAAAAAAAAAAAAAAAAAAAAAAAAAAA==
> <PUBCHEM_IUPAC_OPENEYE_NAME>
bis(trimethylsilyl) (2S,3R)-2,3-bis(trimethylsilyloxy)pentanedioate
> <PUBCHEM_IUPAC_CAS_NAME>
(2S,3R)-2,3-bis(trimethylsilyloxy)pentanedioic acid bis(trimethylsilyl) ester
> <PUBCHEM_IUPAC_NAME_MARKUP>
bis(trimethylsilyl) (2<I>S</I>,3<I>R</I>)-2,3-bis(trimethylsilyloxy)pentanedioate
> <PUBCHEM_IUPAC_NAME>
bis(trimethylsilyl) (2S,3R)-2,3-bis(trimethylsilyloxy)pentanedioate
> <PUBCHEM_IUPAC_SYSTEMATIC_NAME>
bis(trimethylsilyl) (2S,3R)-2,3-bis(trimethylsilyloxy)pentanedioate
> <PUBCHEM_IUPAC_TRADITIONAL_NAME>
(2S,3R)-2,3-bis(trimethylsilyloxy)glutaric acid bis(trimethylsilyl) ester
> <PUBCHEM_IUPAC_INCHI>
InChI=1S/C17H40O6Si4/c1-24(2,3)20-14(13-15(18)21-25(4,5)6)16(22-26(7,8)9)17(19)23-27(10,11)12/h14,16H,13H2,1-12H3/t14-,16+/m1/s1
> <PUBCHEM_IUPAC_INCHIKEY>
UMLJBUXQWLWNFR-ZBFHGGJFSA-N
> <PUBCHEM_EXACT_MASS>
452.19019513
> <PUBCHEM_MOLECULAR_FORMULA>
C17H40O6Si4
> <PUBCHEM_MOLECULAR_WEIGHT>
452.8
> <PUBCHEM_OPENEYE_CAN_SMILES>
C[Si](C)(C)OC(CC(=O)O[Si](C)(C)C)C(C(=O)O[Si](C)(C)C)O[Si](C)(C)C
> <PUBCHEM_OPENEYE_ISO_SMILES>
C[Si](C)(C)O[C@H](CC(=O)O[Si](C)(C)C)[C@@H](C(=O)O[Si](C)(C)C)O[Si](C)(C)C
> <PUBCHEM_CACTVS_TPSA>
71.1
> <PUBCHEM_MONOISOTOPIC_WEIGHT>
452.19019513
> <PUBCHEM_TOTAL_CHARGE>
0
> <PUBCHEM_HEAVY_ATOM_COUNT>
27
> <PUBCHEM_ATOM_DEF_STEREO_COUNT>
2
> <PUBCHEM_ATOM_UDEF_STEREO_COUNT>
0
> <PUBCHEM_BOND_DEF_STEREO_COUNT>
0
> <PUBCHEM_BOND_UDEF_STEREO_COUNT>
0
> <PUBCHEM_ISOTOPIC_ATOM_COUNT>
0
> <PUBCHEM_COMPONENT_COUNT>
1
> <PUBCHEM_CACTVS_TAUTO_COUNT>
-1
> <PUBCHEM_COORDINATE_TYPE>
1
5
255
> <PUBCHEM_BONDANNOTATIONS>
11  5  5
12  6  6
$$$$
