523331
  -OEChem-10302200292D
 57 57  0     1  0  0  0  0  0999 V2000
    2.7431   -1.7070    0.0000 Si  0  0  0  0  0  0  0  0  0  0  0  0
    6.1124    1.7409    0.0000 Si  0  0  0  0  0  0  0  0  0  0  0  0
    3.5143    2.2409    0.0000 Si  0  0  0  0  0  0  0  0  0  0  0  0
    6.0554   -1.3469    0.0000 O   0  0  0  0  0  0  0  0  0  0  0  0
    3.4863   -1.0378    0.0000 O   0  0  0  0  0  0  0  0  0  0  0  0
    6.1124    0.7409    0.0000 O   0  0  0  0  0  0  0  0  0  0  0  0
    4.3803    1.7409    0.0000 O   0  0  0  0  0  0  0  0  0  0  0  0
    6.3342   -3.1069    0.0000 O   0  0  0  0  0  0  0  0  0  0  0  0
    5.2464   -0.7591    0.0000 C   0  0  3  0  0  0  0  0  0  0  0  0
    4.4374   -1.3469    0.0000 C   0  0  3  0  0  0  0  0  0  0  0  0
    5.2464    0.2409    0.0000 C   0  0  3  0  0  0  0  0  0  0  0  0
    4.7464   -2.2979    0.0000 C   0  0  0  0  0  0  0  0  0  0  0  0
    4.3803    0.7409    0.0000 C   0  0  0  0  0  0  0  0  0  0  0  0
    5.7464   -2.2979    0.0000 C   0  0  0  0  0  0  0  0  0  0  0  0
    2.0000   -2.3761    0.0000 C   0  0  0  0  0  0  0  0  0  0  0  0
    2.0740   -0.9638    0.0000 C   0  0  0  0  0  0  0  0  0  0  0  0
    3.4123   -2.4501    0.0000 C   0  0  0  0  0  0  0  0  0  0  0  0
    6.1124    2.7409    0.0000 C   0  0  0  0  0  0  0  0  0  0  0  0
    7.1124    1.7409    0.0000 C   0  0  0  0  0  0  0  0  0  0  0  0
    5.1124    1.7409    0.0000 C   0  0  0  0  0  0  0  0  0  0  0  0
    2.6483    2.7409    0.0000 C   0  0  0  0  0  0  0  0  0  0  0  0
    4.0143    3.1069    0.0000 C   0  0  0  0  0  0  0  0  0  0  0  0
    3.0143    1.3749    0.0000 C   0  0  0  0  0  0  0  0  0  0  0  0
    5.7988   -0.4776    0.0000 H   0  0  0  0  0  0  0  0  0  0  0  0
    3.9989   -1.7853    0.0000 H   0  0  0  0  0  0  0  0  0  0  0  0
    5.2464    0.8609    0.0000 H   0  0  0  0  0  0  0  0  0  0  0  0
    4.1399   -2.4268    0.0000 H   0  0  0  0  0  0  0  0  0  0  0  0
    4.8112   -2.9145    0.0000 H   0  0  0  0  0  0  0  0  0  0  0  0
    3.7698    0.8486    0.0000 H   0  0  0  0  0  0  0  0  0  0  0  0
    4.1683    0.1583    0.0000 H   0  0  0  0  0  0  0  0  0  0  0  0
    1.5851   -1.9154    0.0000 H   0  0  0  0  0  0  0  0  0  0  0  0
    1.5392   -2.7910    0.0000 H   0  0  0  0  0  0  0  0  0  0  0  0
    2.4149   -2.8369    0.0000 H   0  0  0  0  0  0  0  0  0  0  0  0
    2.5348   -0.5490    0.0000 H   0  0  0  0  0  0  0  0  0  0  0  0
    1.6592   -0.5031    0.0000 H   0  0  0  0  0  0  0  0  0  0  0  0
    1.6133   -1.3787    0.0000 H   0  0  0  0  0  0  0  0  0  0  0  0
    2.9515   -2.8650    0.0000 H   0  0  0  0  0  0  0  0  0  0  0  0
    3.8271   -2.9109    0.0000 H   0  0  0  0  0  0  0  0  0  0  0  0
    3.8730   -2.0353    0.0000 H   0  0  0  0  0  0  0  0  0  0  0  0
    6.7324    2.7409    0.0000 H   0  0  0  0  0  0  0  0  0  0  0  0
    6.1124    3.3609    0.0000 H   0  0  0  0  0  0  0  0  0  0  0  0
    5.4924    2.7409    0.0000 H   0  0  0  0  0  0  0  0  0  0  0  0
    7.1124    1.1209    0.0000 H   0  0  0  0  0  0  0  0  0  0  0  0
    7.7324    1.7409    0.0000 H   0  0  0  0  0  0  0  0  0  0  0  0
    7.1124    2.3609    0.0000 H   0  0  0  0  0  0  0  0  0  0  0  0
    5.1124    2.3609    0.0000 H   0  0  0  0  0  0  0  0  0  0  0  0
    4.4924    1.7409    0.0000 H   0  0  0  0  0  0  0  0  0  0  0  0
    5.1124    1.1209    0.0000 H   0  0  0  0  0  0  0  0  0  0  0  0
    2.9583    3.2778    0.0000 H   0  0  0  0  0  0  0  0  0  0  0  0
    2.1114    3.0509    0.0000 H   0  0  0  0  0  0  0  0  0  0  0  0
    2.3383    2.2040    0.0000 H   0  0  0  0  0  0  0  0  0  0  0  0
    4.5512    2.7969    0.0000 H   0  0  0  0  0  0  0  0  0  0  0  0
    4.3243    3.6439    0.0000 H   0  0  0  0  0  0  0  0  0  0  0  0
    3.4774    3.4169    0.0000 H   0  0  0  0  0  0  0  0  0  0  0  0
    2.4774    1.6849    0.0000 H   0  0  0  0  0  0  0  0  0  0  0  0
    2.7043    0.8380    0.0000 H   0  0  0  0  0  0  0  0  0  0  0  0
    3.5512    1.0649    0.0000 H   0  0  0  0  0  0  0  0  0  0  0  0
  1  5  1  0  0  0  0
  1 15  1  0  0  0  0
  1 16  1  0  0  0  0
  1 17  1  0  0  0  0
  2  6  1  0  0  0  0
  2 18  1  0  0  0  0
  2 19  1  0  0  0  0
  2 20  1  0  0  0  0
  3  7  1  0  0  0  0
  3 21  1  0  0  0  0
  3 22  1  0  0  0  0
  3 23  1  0  0  0  0
  4  9  1  0  0  0  0
  4 14  1  0  0  0  0
  5 10  1  0  0  0  0
  6 11  1  0  0  0  0
  7 13  1  0  0  0  0
  8 14  2  0  0  0  0
  9 10  1  0  0  0  0
  9 11  1  0  0  0  0
  9 24  1  0  0  0  0
 10 12  1  0  0  0  0
 10 25  1  0  0  0  0
 11 13  1  0  0  0  0
 11 26  1  0  0  0  0
 12 14  1  0  0  0  0
 12 27  1  0  0  0  0
 12 28  1  0  0  0  0
 13 29  1  0  0  0  0
 13 30  1  0  0  0  0
 15 31  1  0  0  0  0
 15 32  1  0  0  0  0
 15 33  1  0  0  0  0
 16 34  1  0  0  0  0
 16 35  1  0  0  0  0
 16 36  1  0  0  0  0
 17 37  1  0  0  0  0
 17 38  1  0  0  0  0
 17 39  1  0  0  0  0
 18 40  1  0  0  0  0
 18 41  1  0  0  0  0
 18 42  1  0  0  0  0
 19 43  1  0  0  0  0
 19 44  1  0  0  0  0
 19 45  1  0  0  0  0
 20 46  1  0  0  0  0
 20 47  1  0  0  0  0
 20 48  1  0  0  0  0
 21 49  1  0  0  0  0
 21 50  1  0  0  0  0
 21 51  1  0  0  0  0
 22 52  1  0  0  0  0
 22 53  1  0  0  0  0
 22 54  1  0  0  0  0
 23 55  1  0  0  0  0
 23 56  1  0  0  0  0
 23 57  1  0  0  0  0
M  END
> <PUBCHEM_COMPOUND_CID>
523331
> <PUBCHEM_COMPOUND_CANONICALIZED>
1
> <PUBCHEM_CACTVS_COMPLEXITY>
409
> <PUBCHEM_CACTVS_HBOND_ACCEPTOR>
5
> <PUBCHEM_CACTVS_HBOND_DONOR>
0
> <PUBCHEM_CACTVS_ROTATABLE_BOND>
8
> <PUBCHEM_CACTVS_SUBSKEYS>
AAADcfBwOAwAAAAAAAAAAAAAAAAAASAAAAAAAAAAAAAAAAAAAAAAGhAAAEAACBSggAJCCAAABAEIAACQCAAAAAAAAAAAAAEAAAABABYAAAACAAAFIAACAAHKbARAAAAAAAAAAAAAAAAAAAAAAAAAAAAAAA==
> <PUBCHEM_IUPAC_OPENEYE_NAME>
5-[1,2-bis(trimethylsilyloxy)ethyl]-4-trimethylsilyloxy-tetrahydrofuran-2-one
> <PUBCHEM_IUPAC_CAS_NAME>
5-[1,2-bis(trimethylsilyloxy)ethyl]-4-trimethylsilyloxy-2-oxolanone
> <PUBCHEM_IUPAC_NAME_MARKUP>
5-[1,2-bis(trimethylsilyloxy)ethyl]-4-trimethylsilyloxyoxolan-2-one
> <PUBCHEM_IUPAC_NAME>
5-[1,2-bis(trimethylsilyloxy)ethyl]-4-trimethylsilyloxyoxolan-2-one
> <PUBCHEM_IUPAC_SYSTEMATIC_NAME>
5-[1,2-bis(trimethylsilyloxy)ethyl]-4-trimethylsilyloxy-oxolan-2-one
> <PUBCHEM_IUPAC_TRADITIONAL_NAME>
5-[1,2-bis(trimethylsilyloxy)ethyl]-4-trimethylsilyloxy-tetrahydrofuran-2-one
> <PUBCHEM_IUPAC_INCHI>
InChI=1S/C15H34O5Si3/c1-21(2,3)17-11-13(20-23(7,8)9)15-12(10-14(16)18-15)19-22(4,5)6/h12-13,15H,10-11H2,1-9H3
> <PUBCHEM_IUPAC_INCHIKEY>
RAZXAENPWHOWLE-UHFFFAOYSA-N
> <PUBCHEM_EXACT_MASS>
378.17140378
> <PUBCHEM_MOLECULAR_FORMULA>
C15H34O5Si3
> <PUBCHEM_MOLECULAR_WEIGHT>
378.68
> <PUBCHEM_OPENEYE_CAN_SMILES>
C[Si](C)(C)OCC(C1C(CC(=O)O1)O[Si](C)(C)C)O[Si](C)(C)C
> <PUBCHEM_OPENEYE_ISO_SMILES>
C[Si](C)(C)OCC(C1C(CC(=O)O1)O[Si](C)(C)C)O[Si](C)(C)C
> <PUBCHEM_CACTVS_TPSA>
54
> <PUBCHEM_MONOISOTOPIC_WEIGHT>
378.17140378
> <PUBCHEM_TOTAL_CHARGE>
0
> <PUBCHEM_HEAVY_ATOM_COUNT>
23
> <PUBCHEM_ATOM_DEF_STEREO_COUNT>
0
> <PUBCHEM_ATOM_UDEF_STEREO_COUNT>
3
> <PUBCHEM_BOND_DEF_STEREO_COUNT>
0
> <PUBCHEM_BOND_UDEF_STEREO_COUNT>
0
> <PUBCHEM_ISOTOPIC_ATOM_COUNT>
0
> <PUBCHEM_COMPONENT_COUNT>
1
> <PUBCHEM_CACTVS_TAUTO_COUNT>
-1
> <PUBCHEM_COORDINATE_TYPE>
1
5
255
> <PUBCHEM_BONDANNOTATIONS>
11  13  3
9  4  3
10  5  3
$$$$
