523426
  -OEChem-10302200292D
 34 34  0     1  0  0  0  0  0999 V2000
    3.7320    0.5000    0.0000 Si  0  0  0  0  0  0  0  0  0  0  0  0
    5.4641   -0.5000    0.0000 F   0  0  0  0  0  0  0  0  0  0  0  0
    2.0000   -0.5000    0.0000 F   0  0  0  0  0  0  0  0  0  0  0  0
    2.0000   -2.5000    0.0000 F   0  0  0  0  0  0  0  0  0  0  0  0
    5.4641   -2.5000    0.0000 F   0  0  0  0  0  0  0  0  0  0  0  0
    3.7320   -3.5000    0.0000 F   0  0  0  0  0  0  0  0  0  0  0  0
    3.7320    1.5000    0.0000 O   0  0  0  0  0  0  0  0  0  0  0  0
    4.5981    2.0000    0.0000 C   0  0  3  0  0  0  0  0  0  0  0  0
    3.7320   -0.5000    0.0000 C   0  0  0  0  0  0  0  0  0  0  0  0
    4.7320    0.5000    0.0000 C   0  0  0  0  0  0  0  0  0  0  0  0
    2.7320    0.5000    0.0000 C   0  0  0  0  0  0  0  0  0  0  0  0
    4.5981    3.0000    0.0000 C   0  0  0  0  0  0  0  0  0  0  0  0
    5.4641    1.5000    0.0000 C   0  0  0  0  0  0  0  0  0  0  0  0
    4.5981   -1.0000    0.0000 C   0  0  0  0  0  0  0  0  0  0  0  0
    2.8660   -1.0000    0.0000 C   0  0  0  0  0  0  0  0  0  0  0  0
    5.4641    3.5000    0.0000 C   0  0  0  0  0  0  0  0  0  0  0  0
    2.8660   -2.0000    0.0000 C   0  0  0  0  0  0  0  0  0  0  0  0
    4.5981   -2.0000    0.0000 C   0  0  0  0  0  0  0  0  0  0  0  0
    3.7320   -2.5000    0.0000 C   0  0  0  0  0  0  0  0  0  0  0  0
    4.5981    1.3800    0.0000 H   0  0  0  0  0  0  0  0  0  0  0  0
    4.7320   -0.1200    0.0000 H   0  0  0  0  0  0  0  0  0  0  0  0
    5.3520    0.5000    0.0000 H   0  0  0  0  0  0  0  0  0  0  0  0
    4.7320    1.1200    0.0000 H   0  0  0  0  0  0  0  0  0  0  0  0
    2.7320    1.1200    0.0000 H   0  0  0  0  0  0  0  0  0  0  0  0
    2.1120    0.5000    0.0000 H   0  0  0  0  0  0  0  0  0  0  0  0
    2.7320   -0.1200    0.0000 H   0  0  0  0  0  0  0  0  0  0  0  0
    4.3860    3.5826    0.0000 H   0  0  0  0  0  0  0  0  0  0  0  0
    3.9875    2.8923    0.0000 H   0  0  0  0  0  0  0  0  0  0  0  0
    5.1541    0.9631    0.0000 H   0  0  0  0  0  0  0  0  0  0  0  0
    6.0010    1.1900    0.0000 H   0  0  0  0  0  0  0  0  0  0  0  0
    5.7741    2.0369    0.0000 H   0  0  0  0  0  0  0  0  0  0  0  0
    5.7741    2.9631    0.0000 H   0  0  0  0  0  0  0  0  0  0  0  0
    6.0010    3.8100    0.0000 H   0  0  0  0  0  0  0  0  0  0  0  0
    5.1541    4.0369    0.0000 H   0  0  0  0  0  0  0  0  0  0  0  0
  1  7  1  0  0  0  0
  1  9  1  0  0  0  0
  1 10  1  0  0  0  0
  1 11  1  0  0  0  0
  2 14  1  0  0  0  0
  3 15  1  0  0  0  0
  4 17  1  0  0  0  0
  5 18  1  0  0  0  0
  6 19  1  0  0  0  0
  7  8  1  0  0  0  0
  8 12  1  0  0  0  0
  8 13  1  0  0  0  0
  8 20  1  0  0  0  0
  9 14  2  0  0  0  0
  9 15  1  0  0  0  0
 10 21  1  0  0  0  0
 10 22  1  0  0  0  0
 10 23  1  0  0  0  0
 11 24  1  0  0  0  0
 11 25  1  0  0  0  0
 11 26  1  0  0  0  0
 12 16  1  0  0  0  0
 12 27  1  0  0  0  0
 12 28  1  0  0  0  0
 13 29  1  0  0  0  0
 13 30  1  0  0  0  0
 13 31  1  0  0  0  0
 14 18  1  0  0  0  0
 15 17  2  0  0  0  0
 16 32  1  0  0  0  0
 16 33  1  0  0  0  0
 16 34  1  0  0  0  0
 17 19  1  0  0  0  0
 18 19  2  0  0  0  0
M  END
> <PUBCHEM_COMPOUND_CID>
523426
> <PUBCHEM_COMPOUND_CANONICALIZED>
1
> <PUBCHEM_CACTVS_COMPLEXITY>
288
> <PUBCHEM_CACTVS_HBOND_ACCEPTOR>
6
> <PUBCHEM_CACTVS_HBOND_DONOR>
0
> <PUBCHEM_CACTVS_ROTATABLE_BOND>
4
> <PUBCHEM_CACTVS_SUBSKEYS>
AAADccBwIcgAAAAAAAAAAAAAAAAAAAAAAAAwAAAAAAAAAAABAAAAGxAAAEAACBSgsApCAIAAAAGAAABAAAACAAAgAAAAiAAAAIgIICKAEBCAIAAggAAIiAcAAAAAAAAAAAAAAAAAAAAAAAAAAAAAAAAAAA==
> <PUBCHEM_IUPAC_OPENEYE_NAME>
dimethyl-(2,3,4,5,6-pentafluorophenyl)-sec-butoxy-silane
> <PUBCHEM_IUPAC_CAS_NAME>
butan-2-yloxy-dimethyl-(2,3,4,5,6-pentafluorophenyl)silane
> <PUBCHEM_IUPAC_NAME_MARKUP>
butan-2-yloxy-dimethyl-(2,3,4,5,6-pentafluorophenyl)silane
> <PUBCHEM_IUPAC_NAME>
butan-2-yloxy-dimethyl-(2,3,4,5,6-pentafluorophenyl)silane
> <PUBCHEM_IUPAC_SYSTEMATIC_NAME>
butan-2-yloxy-dimethyl-[2,3,4,5,6-pentakis(fluoranyl)phenyl]silane
> <PUBCHEM_IUPAC_TRADITIONAL_NAME>
dimethyl-(2,3,4,5,6-pentafluorophenyl)-sec-butoxy-silane
> <PUBCHEM_IUPAC_INCHI>
InChI=1S/C12H15F5OSi/c1-5-6(2)18-19(3,4)12-10(16)8(14)7(13)9(15)11(12)17/h6H,5H2,1-4H3
> <PUBCHEM_IUPAC_INCHIKEY>
CIZYHNJYZDXRSO-UHFFFAOYSA-N
> <PUBCHEM_EXACT_MASS>
298.08123244
> <PUBCHEM_MOLECULAR_FORMULA>
C12H15F5OSi
> <PUBCHEM_MOLECULAR_WEIGHT>
298.32
> <PUBCHEM_OPENEYE_CAN_SMILES>
CCC(C)O[Si](C)(C)C1=C(C(=C(C(=C1F)F)F)F)F
> <PUBCHEM_OPENEYE_ISO_SMILES>
CCC(C)O[Si](C)(C)C1=C(C(=C(C(=C1F)F)F)F)F
> <PUBCHEM_CACTVS_TPSA>
9.2
> <PUBCHEM_MONOISOTOPIC_WEIGHT>
298.08123244
> <PUBCHEM_TOTAL_CHARGE>
0
> <PUBCHEM_HEAVY_ATOM_COUNT>
19
> <PUBCHEM_ATOM_DEF_STEREO_COUNT>
0
> <PUBCHEM_ATOM_UDEF_STEREO_COUNT>
1
> <PUBCHEM_BOND_DEF_STEREO_COUNT>
0
> <PUBCHEM_BOND_UDEF_STEREO_COUNT>
0
> <PUBCHEM_ISOTOPIC_ATOM_COUNT>
0
> <PUBCHEM_COMPONENT_COUNT>
1
> <PUBCHEM_CACTVS_TAUTO_COUNT>
-1
> <PUBCHEM_COORDINATE_TYPE>
1
5
255
> <PUBCHEM_BONDANNOTATIONS>
14  18  8
15  17  8
17  19  8
18  19  8
8  13  3
9  14  8
9  15  8
$$$$
