523492
  -OEChem-10302200292D
 33 32  0     1  0  0  0  0  0999 V2000
    5.0981   -2.2811    0.0000 O   0  0  0  0  0  0  0  0  0  0  0  0
    6.3301   -1.4151    0.0000 O   0  0  0  0  0  0  0  0  0  0  0  0
    2.0000   -1.9151    0.0000 O   0  0  0  0  0  0  0  0  0  0  0  0
    5.4641    0.0849    0.0000 O   0  0  0  0  0  0  0  0  0  0  0  0
    4.5981    2.0490    0.0000 O   0  0  0  0  0  0  0  0  0  0  0  0
    2.8660   -0.4151    0.0000 O   0  0  0  0  0  0  0  0  0  0  0  0
    3.0981    1.1830    0.0000 O   0  0  0  0  0  0  0  0  0  0  0  0
    4.5981   -1.4151    0.0000 C   0  0  3  0  0  0  0  0  0  0  0  0
    4.0981   -0.5490    0.0000 C   0  0  0  0  0  0  0  0  0  0  0  0
    3.7320   -1.9151    0.0000 C   0  0  0  0  0  0  0  0  0  0  0  0
    4.5981    0.3170    0.0000 C   0  0  0  0  0  0  0  0  0  0  0  0
    5.4641   -0.9151    0.0000 C   0  0  0  0  0  0  0  0  0  0  0  0
    2.8660   -1.4151    0.0000 C   0  0  0  0  0  0  0  0  0  0  0  0
    4.0981    1.1830    0.0000 C   0  0  0  0  0  0  0  0  0  0  0  0
    7.1962   -0.9151    0.0000 C   0  0  0  0  0  0  0  0  0  0  0  0
    2.0000   -2.9151    0.0000 C   0  0  0  0  0  0  0  0  0  0  0  0
    4.0981    2.9151    0.0000 C   0  0  0  0  0  0  0  0  0  0  0  0
    3.6231   -0.1505    0.0000 H   0  0  0  0  0  0  0  0  0  0  0  0
    3.6231   -0.9476    0.0000 H   0  0  0  0  0  0  0  0  0  0  0  0
    3.3335   -2.3900    0.0000 H   0  0  0  0  0  0  0  0  0  0  0  0
    4.1306   -2.3900    0.0000 H   0  0  0  0  0  0  0  0  0  0  0  0
    5.0730   -0.0815    0.0000 H   0  0  0  0  0  0  0  0  0  0  0  0
    5.0730    0.7155    0.0000 H   0  0  0  0  0  0  0  0  0  0  0  0
    4.7881   -2.8180    0.0000 H   0  0  0  0  0  0  0  0  0  0  0  0
    7.5062   -1.4520    0.0000 H   0  0  0  0  0  0  0  0  0  0  0  0
    7.7331   -0.6051    0.0000 H   0  0  0  0  0  0  0  0  0  0  0  0
    6.8862   -0.3781    0.0000 H   0  0  0  0  0  0  0  0  0  0  0  0
    1.3800   -2.9151    0.0000 H   0  0  0  0  0  0  0  0  0  0  0  0
    2.0000   -3.5351    0.0000 H   0  0  0  0  0  0  0  0  0  0  0  0
    2.6200   -2.9151    0.0000 H   0  0  0  0  0  0  0  0  0  0  0  0
    4.6350    3.2251    0.0000 H   0  0  0  0  0  0  0  0  0  0  0  0
    3.7881    3.4520    0.0000 H   0  0  0  0  0  0  0  0  0  0  0  0
    3.5611    2.6051    0.0000 H   0  0  0  0  0  0  0  0  0  0  0  0
  1  8  1  0  0  0  0
  1 24  1  0  0  0  0
  2 12  1  0  0  0  0
  2 15  1  0  0  0  0
  3 13  1  0  0  0  0
  3 16  1  0  0  0  0
  4 12  2  0  0  0  0
  5 14  1  0  0  0  0
  5 17  1  0  0  0  0
  6 13  2  0  0  0  0
  7 14  2  0  0  0  0
  8  9  1  0  0  0  0
  8 10  1  0  0  0  0
  8 12  1  0  0  0  0
  9 11  1  0  0  0  0
  9 18  1  0  0  0  0
  9 19  1  0  0  0  0
 10 13  1  0  0  0  0
 10 20  1  0  0  0  0
 10 21  1  0  0  0  0
 11 14  1  0  0  0  0
 11 22  1  0  0  0  0
 11 23  1  0  0  0  0
 15 25  1  0  0  0  0
 15 26  1  0  0  0  0
 15 27  1  0  0  0  0
 16 28  1  0  0  0  0
 16 29  1  0  0  0  0
 16 30  1  0  0  0  0
 17 31  1  0  0  0  0
 17 32  1  0  0  0  0
 17 33  1  0  0  0  0
M  END
> <PUBCHEM_COMPOUND_CID>
523492
> <PUBCHEM_COMPOUND_CANONICALIZED>
1
> <PUBCHEM_CACTVS_COMPLEXITY>
299
> <PUBCHEM_CACTVS_HBOND_ACCEPTOR>
7
> <PUBCHEM_CACTVS_HBOND_DONOR>
1
> <PUBCHEM_CACTVS_ROTATABLE_BOND>
9
> <PUBCHEM_CACTVS_SUBSKEYS>
AAADceBwOAAAAAAAAAAAAAAAAAAAAAAAAAAAAAAAAAAAAAAAAAAAGgAACAAADESAgAICCAAABgAIAACQCAIAAAAAAAAAAAFAAAABABYAAAAAQAAFIAADAAHLbggOAAAAAAAAAAAAAAAAAAAAAAAAAAAAAA==
> <PUBCHEM_IUPAC_OPENEYE_NAME>
trimethyl 2-hydroxybutane-1,2,4-tricarboxylate
> <PUBCHEM_IUPAC_CAS_NAME>
2-hydroxybutane-1,2,4-tricarboxylic acid trimethyl ester
> <PUBCHEM_IUPAC_NAME_MARKUP>
trimethyl 2-hydroxybutane-1,2,4-tricarboxylate
> <PUBCHEM_IUPAC_NAME>
trimethyl 2-hydroxybutane-1,2,4-tricarboxylate
> <PUBCHEM_IUPAC_SYSTEMATIC_NAME>
trimethyl 2-oxidanylbutane-1,2,4-tricarboxylate
> <PUBCHEM_IUPAC_TRADITIONAL_NAME>
2-hydroxybutane-1,2,4-tricarboxylic acid trimethyl ester
> <PUBCHEM_IUPAC_INCHI>
InChI=1S/C10H16O7/c1-15-7(11)4-5-10(14,9(13)17-3)6-8(12)16-2/h14H,4-6H2,1-3H3
> <PUBCHEM_IUPAC_INCHIKEY>
AACBJIFTOUPSAT-UHFFFAOYSA-N
> <PUBCHEM_XLOGP3_AA>
-0.7
> <PUBCHEM_EXACT_MASS>
248.08960285
> <PUBCHEM_MOLECULAR_FORMULA>
C10H16O7
> <PUBCHEM_MOLECULAR_WEIGHT>
248.23
> <PUBCHEM_OPENEYE_CAN_SMILES>
COC(=O)CCC(CC(=O)OC)(C(=O)OC)O
> <PUBCHEM_OPENEYE_ISO_SMILES>
COC(=O)CCC(CC(=O)OC)(C(=O)OC)O
> <PUBCHEM_CACTVS_TPSA>
99.1
> <PUBCHEM_MONOISOTOPIC_WEIGHT>
248.08960285
> <PUBCHEM_TOTAL_CHARGE>
0
> <PUBCHEM_HEAVY_ATOM_COUNT>
17
> <PUBCHEM_ATOM_DEF_STEREO_COUNT>
0
> <PUBCHEM_ATOM_UDEF_STEREO_COUNT>
1
> <PUBCHEM_BOND_DEF_STEREO_COUNT>
0
> <PUBCHEM_BOND_UDEF_STEREO_COUNT>
0
> <PUBCHEM_ISOTOPIC_ATOM_COUNT>
0
> <PUBCHEM_COMPONENT_COUNT>
1
> <PUBCHEM_CACTVS_TAUTO_COUNT>
-1
> <PUBCHEM_COORDINATE_TYPE>
1
5
255
> <PUBCHEM_BONDANNOTATIONS>
8  12  3
$$$$
