523430
  -OEChem-10302200292D
 46 46  0     1  0  0  0  0  0999 V2000
    3.7320   -0.7500    0.0000 Si  0  0  0  0  0  0  0  0  0  0  0  0
    5.4641   -1.7500    0.0000 F   0  0  0  0  0  0  0  0  0  0  0  0
    2.0000   -1.7500    0.0000 F   0  0  0  0  0  0  0  0  0  0  0  0
    2.0000   -3.7500    0.0000 F   0  0  0  0  0  0  0  0  0  0  0  0
    5.4641   -3.7500    0.0000 F   0  0  0  0  0  0  0  0  0  0  0  0
    3.7320   -4.7500    0.0000 F   0  0  0  0  0  0  0  0  0  0  0  0
    3.7320    0.2500    0.0000 O   0  0  0  0  0  0  0  0  0  0  0  0
    4.5981    0.7500    0.0000 C   0  0  3  0  0  0  0  0  0  0  0  0
    4.5981    1.7500    0.0000 C   0  0  0  0  0  0  0  0  0  0  0  0
    5.4641    2.2500    0.0000 C   0  0  0  0  0  0  0  0  0  0  0  0
    5.4641    0.2500    0.0000 C   0  0  0  0  0  0  0  0  0  0  0  0
    5.4641    3.2500    0.0000 C   0  0  0  0  0  0  0  0  0  0  0  0
    3.7320   -1.7500    0.0000 C   0  0  0  0  0  0  0  0  0  0  0  0
    4.7320   -0.7500    0.0000 C   0  0  0  0  0  0  0  0  0  0  0  0
    2.7320   -0.7500    0.0000 C   0  0  0  0  0  0  0  0  0  0  0  0
    6.3301    3.7500    0.0000 C   0  0  0  0  0  0  0  0  0  0  0  0
    6.3301    0.7500    0.0000 C   0  0  0  0  0  0  0  0  0  0  0  0
    4.5981   -2.2500    0.0000 C   0  0  0  0  0  0  0  0  0  0  0  0
    2.8660   -2.2500    0.0000 C   0  0  0  0  0  0  0  0  0  0  0  0
    6.3301    4.7500    0.0000 C   0  0  0  0  0  0  0  0  0  0  0  0
    2.8660   -3.2500    0.0000 C   0  0  0  0  0  0  0  0  0  0  0  0
    4.5981   -3.2500    0.0000 C   0  0  0  0  0  0  0  0  0  0  0  0
    3.7320   -3.7500    0.0000 C   0  0  0  0  0  0  0  0  0  0  0  0
    4.5981    0.1300    0.0000 H   0  0  0  0  0  0  0  0  0  0  0  0
    4.3860    2.3326    0.0000 H   0  0  0  0  0  0  0  0  0  0  0  0
    3.9875    1.6423    0.0000 H   0  0  0  0  0  0  0  0  0  0  0  0
    5.6762    1.6674    0.0000 H   0  0  0  0  0  0  0  0  0  0  0  0
    6.0747    2.3577    0.0000 H   0  0  0  0  0  0  0  0  0  0  0  0
    5.0656   -0.2249    0.0000 H   0  0  0  0  0  0  0  0  0  0  0  0
    5.8626   -0.2249    0.0000 H   0  0  0  0  0  0  0  0  0  0  0  0
    5.2520    3.8326    0.0000 H   0  0  0  0  0  0  0  0  0  0  0  0
    4.8535    3.1423    0.0000 H   0  0  0  0  0  0  0  0  0  0  0  0
    4.7320   -1.3700    0.0000 H   0  0  0  0  0  0  0  0  0  0  0  0
    5.3520   -0.7500    0.0000 H   0  0  0  0  0  0  0  0  0  0  0  0
    4.7320   -0.1300    0.0000 H   0  0  0  0  0  0  0  0  0  0  0  0
    2.7320   -0.1300    0.0000 H   0  0  0  0  0  0  0  0  0  0  0  0
    2.1120   -0.7500    0.0000 H   0  0  0  0  0  0  0  0  0  0  0  0
    2.7320   -1.3700    0.0000 H   0  0  0  0  0  0  0  0  0  0  0  0
    6.5422    3.1674    0.0000 H   0  0  0  0  0  0  0  0  0  0  0  0
    6.9407    3.8577    0.0000 H   0  0  0  0  0  0  0  0  0  0  0  0
    6.6401    0.2131    0.0000 H   0  0  0  0  0  0  0  0  0  0  0  0
    6.8671    1.0600    0.0000 H   0  0  0  0  0  0  0  0  0  0  0  0
    6.0201    1.2869    0.0000 H   0  0  0  0  0  0  0  0  0  0  0  0
    6.9501    4.7500    0.0000 H   0  0  0  0  0  0  0  0  0  0  0  0
    6.3301    5.3700    0.0000 H   0  0  0  0  0  0  0  0  0  0  0  0
    5.7101    4.7500    0.0000 H   0  0  0  0  0  0  0  0  0  0  0  0
  1  7  1  0  0  0  0
  1 13  1  0  0  0  0
  1 14  1  0  0  0  0
  1 15  1  0  0  0  0
  2 18  1  0  0  0  0
  3 19  1  0  0  0  0
  4 21  1  0  0  0  0
  5 22  1  0  0  0  0
  6 23  1  0  0  0  0
  7  8  1  0  0  0  0
  8  9  1  0  0  0  0
  8 11  1  0  0  0  0
  8 24  1  0  0  0  0
  9 10  1  0  0  0  0
  9 25  1  0  0  0  0
  9 26  1  0  0  0  0
 10 12  1  0  0  0  0
 10 27  1  0  0  0  0
 10 28  1  0  0  0  0
 11 17  1  0  0  0  0
 11 29  1  0  0  0  0
 11 30  1  0  0  0  0
 12 16  1  0  0  0  0
 12 31  1  0  0  0  0
 12 32  1  0  0  0  0
 13 18  2  0  0  0  0
 13 19  1  0  0  0  0
 14 33  1  0  0  0  0
 14 34  1  0  0  0  0
 14 35  1  0  0  0  0
 15 36  1  0  0  0  0
 15 37  1  0  0  0  0
 15 38  1  0  0  0  0
 16 20  1  0  0  0  0
 16 39  1  0  0  0  0
 16 40  1  0  0  0  0
 17 41  1  0  0  0  0
 17 42  1  0  0  0  0
 17 43  1  0  0  0  0
 18 22  1  0  0  0  0
 19 21  2  0  0  0  0
 20 44  1  0  0  0  0
 20 45  1  0  0  0  0
 20 46  1  0  0  0  0
 21 23  1  0  0  0  0
 22 23  2  0  0  0  0
M  END
> <PUBCHEM_COMPOUND_CID>
523430
> <PUBCHEM_COMPOUND_CANONICALIZED>
1
> <PUBCHEM_CACTVS_COMPLEXITY>
341
> <PUBCHEM_CACTVS_HBOND_ACCEPTOR>
6
> <PUBCHEM_CACTVS_HBOND_DONOR>
0
> <PUBCHEM_CACTVS_ROTATABLE_BOND>
8
> <PUBCHEM_CACTVS_SUBSKEYS>
AAADceB4IcgAAAAAAAAAAAAAAAAAAAAAAAAwAAAAAAAAAAABAAAAGxAAAEAACBSgsApCAIAAAAGAAABAAAACAAAgAAAAiAAAAIgIICKAEBCAIAAkgAAIiAeAwIAAAAAAAAAAAAAAAAAAAAAAAAAAAAAAAA==
> <PUBCHEM_IUPAC_OPENEYE_NAME>
1-ethylhexoxy-dimethyl-(2,3,4,5,6-pentafluorophenyl)silane
> <PUBCHEM_IUPAC_CAS_NAME>
dimethyl-octan-3-yloxy-(2,3,4,5,6-pentafluorophenyl)silane
> <PUBCHEM_IUPAC_NAME_MARKUP>
dimethyl-octan-3-yloxy-(2,3,4,5,6-pentafluorophenyl)silane
> <PUBCHEM_IUPAC_NAME>
dimethyl-octan-3-yloxy-(2,3,4,5,6-pentafluorophenyl)silane
> <PUBCHEM_IUPAC_SYSTEMATIC_NAME>
dimethyl-octan-3-yloxy-[2,3,4,5,6-pentakis(fluoranyl)phenyl]silane
> <PUBCHEM_IUPAC_TRADITIONAL_NAME>
1-ethylhexoxy-dimethyl-(2,3,4,5,6-pentafluorophenyl)silane
> <PUBCHEM_IUPAC_INCHI>
InChI=1S/C16H23F5OSi/c1-5-7-8-9-10(6-2)22-23(3,4)16-14(20)12(18)11(17)13(19)15(16)21/h10H,5-9H2,1-4H3
> <PUBCHEM_IUPAC_INCHIKEY>
MOVMRSPQMIPIEH-UHFFFAOYSA-N
> <PUBCHEM_EXACT_MASS>
354.14383270
> <PUBCHEM_MOLECULAR_FORMULA>
C16H23F5OSi
> <PUBCHEM_MOLECULAR_WEIGHT>
354.43
> <PUBCHEM_OPENEYE_CAN_SMILES>
CCCCCC(CC)O[Si](C)(C)C1=C(C(=C(C(=C1F)F)F)F)F
> <PUBCHEM_OPENEYE_ISO_SMILES>
CCCCCC(CC)O[Si](C)(C)C1=C(C(=C(C(=C1F)F)F)F)F
> <PUBCHEM_CACTVS_TPSA>
9.2
> <PUBCHEM_MONOISOTOPIC_WEIGHT>
354.14383270
> <PUBCHEM_TOTAL_CHARGE>
0
> <PUBCHEM_HEAVY_ATOM_COUNT>
23
> <PUBCHEM_ATOM_DEF_STEREO_COUNT>
0
> <PUBCHEM_ATOM_UDEF_STEREO_COUNT>
1
> <PUBCHEM_BOND_DEF_STEREO_COUNT>
0
> <PUBCHEM_BOND_UDEF_STEREO_COUNT>
0
> <PUBCHEM_ISOTOPIC_ATOM_COUNT>
0
> <PUBCHEM_COMPONENT_COUNT>
1
> <PUBCHEM_CACTVS_TAUTO_COUNT>
-1
> <PUBCHEM_COORDINATE_TYPE>
1
5
255
> <PUBCHEM_BONDANNOTATIONS>
13  18  8
13  19  8
18  22  8
19  21  8
21  23  8
22  23  8
8  11  3
$$$$
