523450
  -OEChem-10302200292D
100103  0     1  0  0  0  0  0999 V2000
    6.5232    1.3594    0.0000 Si  0  0  0  0  0  0  0  0  0  0  0  0
    2.8641   -2.6896    0.0000 Si  0  0  0  0  0  0  0  0  0  0  0  0
   12.6458    2.4776    0.0000 Si  0  0  0  0  0  0  0  0  0  0  0  0
    6.5232    0.3594    0.0000 O   0  0  0  0  0  0  0  0  0  0  0  0
    3.7282   -3.1930    0.0000 O   0  0  0  0  0  0  0  0  0  0  0  0
   11.6673    2.2714    0.0000 O   0  0  0  0  0  0  0  0  0  0  0  0
   10.0210    2.8094    0.0000 O   0  0  0  0  0  0  0  0  0  0  0  0
    9.7103    1.8589    0.0000 N   0  0  0  0  0  0  0  0  0  0  0  0
    7.3892   -1.1406    0.0000 C   0  0  3  0  0  0  0  0  0  0  0  0
    8.2552   -1.6406    0.0000 C   0  0  3  0  0  0  0  0  0  0  0  0
    9.1213   -1.1406    0.0000 C   0  0  3  0  0  0  0  0  0  0  0  0
    9.1213   -0.1406    0.0000 C   0  0  3  0  0  0  0  0  0  0  0  0
    6.4792   -1.6475    0.0000 C   0  0  3  0  0  0  0  0  0  0  0  0
    7.3892   -0.1406    0.0000 C   0  0  3  0  0  0  0  0  0  0  0  0
    6.4712   -2.6891    0.0000 C   0  0  3  0  0  0  0  0  0  0  0  0
    8.2552    0.3594    0.0000 C   0  0  0  0  0  0  0  0  0  0  0  0
   10.0675    0.1641    0.0000 C   0  0  3  0  0  0  0  0  0  0  0  0
    8.2713   -2.6822    0.0000 C   0  0  0  0  0  0  0  0  0  0  0  0
   10.0675   -1.4454    0.0000 C   0  0  0  0  0  0  0  0  0  0  0  0
    7.3733   -3.2099    0.0000 C   0  0  0  0  0  0  0  0  0  0  0  0
   10.6511   -0.6406    0.0000 C   0  0  0  0  0  0  0  0  0  0  0  0
    5.5524   -1.0834    0.0000 C   0  0  0  0  0  0  0  0  0  0  0  0
    5.5358   -3.2388    0.0000 C   0  0  0  0  0  0  0  0  0  0  0  0
    9.1213    0.8594    0.0000 C   0  0  0  0  0  0  0  0  0  0  0  0
    6.4869   -0.6475    0.0000 C   0  0  0  0  0  0  0  0  0  0  0  0
    4.6045   -1.6114    0.0000 C   0  0  0  0  0  0  0  0  0  0  0  0
    4.5961   -2.6963    0.0000 C   0  0  3  0  0  0  0  0  0  0  0  0
   10.3781    1.1146    0.0000 C   0  0  0  0  0  0  0  0  0  0  0  0
   11.3567    1.3208    0.0000 C   0  0  0  0  0  0  0  0  0  0  0  0
    6.5232    2.3594    0.0000 C   0  0  0  0  0  0  0  0  0  0  0  0
    5.5232    1.3594    0.0000 C   0  0  0  0  0  0  0  0  0  0  0  0
    7.5232    1.3594    0.0000 C   0  0  0  0  0  0  0  0  0  0  0  0
    2.0000   -2.1863    0.0000 C   0  0  0  0  0  0  0  0  0  0  0  0
    2.3608   -3.5537    0.0000 C   0  0  0  0  0  0  0  0  0  0  0  0
    3.3674   -1.8256    0.0000 C   0  0  0  0  0  0  0  0  0  0  0  0
    9.3531    3.5537    0.0000 C   0  0  0  0  0  0  0  0  0  0  0  0
   13.6243    2.6838    0.0000 C   0  0  0  0  0  0  0  0  0  0  0  0
   12.4396    3.4561    0.0000 C   0  0  0  0  0  0  0  0  0  0  0  0
   12.8520    1.4991    0.0000 C   0  0  0  0  0  0  0  0  0  0  0  0
    7.9262   -0.8306    0.0000 H   0  0  0  0  0  0  0  0  0  0  0  0
    8.7945   -1.9465    0.0000 H   0  0  0  0  0  0  0  0  0  0  0  0
    9.1869   -1.7572    0.0000 H   0  0  0  0  0  0  0  0  0  0  0  0
    7.3892    0.4794    0.0000 H   0  0  0  0  0  0  0  0  0  0  0  0
    6.4736   -3.3091    0.0000 H   0  0  0  0  0  0  0  0  0  0  0  0
    8.6538    0.8343    0.0000 H   0  0  0  0  0  0  0  0  0  0  0  0
    7.8567    0.8343    0.0000 H   0  0  0  0  0  0  0  0  0  0  0  0
   10.6800    0.2603    0.0000 H   0  0  0  0  0  0  0  0  0  0  0  0
    8.4893   -3.2626    0.0000 H   0  0  0  0  0  0  0  0  0  0  0  0
    8.8804   -2.5666    0.0000 H   0  0  0  0  0  0  0  0  0  0  0  0
    9.8164   -2.0123    0.0000 H   0  0  0  0  0  0  0  0  0  0  0  0
   10.6049   -1.7546    0.0000 H   0  0  0  0  0  0  0  0  0  0  0  0
    6.9760   -3.6859    0.0000 H   0  0  0  0  0  0  0  0  0  0  0  0
    7.7742   -3.6828    0.0000 H   0  0  0  0  0  0  0  0  0  0  0  0
   11.1120   -1.0554    0.0000 H   0  0  0  0  0  0  0  0  0  0  0  0
   11.1120   -0.2259    0.0000 H   0  0  0  0  0  0  0  0  0  0  0  0
    5.9606   -0.6168    0.0000 H   0  0  0  0  0  0  0  0  0  0  0  0
    5.1625   -0.6014    0.0000 H   0  0  0  0  0  0  0  0  0  0  0  0
    5.1385   -3.7148    0.0000 H   0  0  0  0  0  0  0  0  0  0  0  0
    5.9367   -3.7117    0.0000 H   0  0  0  0  0  0  0  0  0  0  0  0
    9.7413    0.8594    0.0000 H   0  0  0  0  0  0  0  0  0  0  0  0
    9.1213    1.4794    0.0000 H   0  0  0  0  0  0  0  0  0  0  0  0
    8.5013    0.8594    0.0000 H   0  0  0  0  0  0  0  0  0  0  0  0
    7.1069   -0.6523    0.0000 H   0  0  0  0  0  0  0  0  0  0  0  0
    6.4917   -0.0275    0.0000 H   0  0  0  0  0  0  0  0  0  0  0  0
    5.8669   -0.6427    0.0000 H   0  0  0  0  0  0  0  0  0  0  0  0
    4.3999   -1.0261    0.0000 H   0  0  0  0  0  0  0  0  0  0  0  0
    3.9928   -1.7127    0.0000 H   0  0  0  0  0  0  0  0  0  0  0  0
    4.5949   -3.3163    0.0000 H   0  0  0  0  0  0  0  0  0  0  0  0
   11.3772    0.7012    0.0000 H   0  0  0  0  0  0  0  0  0  0  0  0
   11.9705    1.2335    0.0000 H   0  0  0  0  0  0  0  0  0  0  0  0
    7.1432    2.3594    0.0000 H   0  0  0  0  0  0  0  0  0  0  0  0
    6.5232    2.9794    0.0000 H   0  0  0  0  0  0  0  0  0  0  0  0
    5.9032    2.3594    0.0000 H   0  0  0  0  0  0  0  0  0  0  0  0
    5.5232    1.9794    0.0000 H   0  0  0  0  0  0  0  0  0  0  0  0
    4.9032    1.3594    0.0000 H   0  0  0  0  0  0  0  0  0  0  0  0
    5.5232    0.7394    0.0000 H   0  0  0  0  0  0  0  0  0  0  0  0
    7.5232    0.7394    0.0000 H   0  0  0  0  0  0  0  0  0  0  0  0
    8.1432    1.3594    0.0000 H   0  0  0  0  0  0  0  0  0  0  0  0
    7.5232    1.9794    0.0000 H   0  0  0  0  0  0  0  0  0  0  0  0
    2.3121   -1.6506    0.0000 H   0  0  0  0  0  0  0  0  0  0  0  0
    1.4643   -1.8742    0.0000 H   0  0  0  0  0  0  0  0  0  0  0  0
    1.6879   -2.7220    0.0000 H   0  0  0  0  0  0  0  0  0  0  0  0
    1.8250   -3.2417    0.0000 H   0  0  0  0  0  0  0  0  0  0  0  0
    2.0487   -4.0895    0.0000 H   0  0  0  0  0  0  0  0  0  0  0  0
    2.8965   -3.8658    0.0000 H   0  0  0  0  0  0  0  0  0  0  0  0
    3.9032   -2.1376    0.0000 H   0  0  0  0  0  0  0  0  0  0  0  0
    3.6795   -1.2898    0.0000 H   0  0  0  0  0  0  0  0  0  0  0  0
    2.8317   -1.5135    0.0000 H   0  0  0  0  0  0  0  0  0  0  0  0
    9.8146    3.9678    0.0000 H   0  0  0  0  0  0  0  0  0  0  0  0
    8.9391    4.0152    0.0000 H   0  0  0  0  0  0  0  0  0  0  0  0
    8.8917    3.1397    0.0000 H   0  0  0  0  0  0  0  0  0  0  0  0
   13.7522    2.0771    0.0000 H   0  0  0  0  0  0  0  0  0  0  0  0
   14.2310    2.8116    0.0000 H   0  0  0  0  0  0  0  0  0  0  0  0
   13.4965    3.2905    0.0000 H   0  0  0  0  0  0  0  0  0  0  0  0
   13.0463    3.5839    0.0000 H   0  0  0  0  0  0  0  0  0  0  0  0
   12.3117    4.0628    0.0000 H   0  0  0  0  0  0  0  0  0  0  0  0
   11.8329    3.3282    0.0000 H   0  0  0  0  0  0  0  0  0  0  0  0
   12.2454    1.3712    0.0000 H   0  0  0  0  0  0  0  0  0  0  0  0
   12.9799    0.8924    0.0000 H   0  0  0  0  0  0  0  0  0  0  0  0
   13.4587    1.6269    0.0000 H   0  0  0  0  0  0  0  0  0  0  0  0
  1  4  1  0  0  0  0
  1 30  1  0  0  0  0
  1 31  1  0  0  0  0
  1 32  1  0  0  0  0
  2  5  1  0  0  0  0
  2 33  1  0  0  0  0
  2 34  1  0  0  0  0
  2 35  1  0  0  0  0
  3  6  1  0  0  0  0
  3 37  1  0  0  0  0
  3 38  1  0  0  0  0
  3 39  1  0  0  0  0
  4 14  1  0  0  0  0
  5 27  1  0  0  0  0
  6 29  1  0  0  0  0
  7  8  1  0  0  0  0
  7 36  1  0  0  0  0
  8 28  2  3  0  0  0
  9 10  1  0  0  0  0
  9 13  1  0  0  0  0
  9 14  1  0  0  0  0
  9 40  1  0  0  0  0
 10 11  1  0  0  0  0
 10 18  1  0  0  0  0
 10 41  1  0  0  0  0
 11 12  1  0  0  0  0
 11 19  1  0  0  0  0
 11 42  1  0  0  0  0
 12 16  1  0  0  0  0
 12 17  1  0  0  0  0
 12 24  1  0  0  0  0
 13 15  1  0  0  0  0
 13 22  1  0  0  0  0
 13 25  1  0  0  0  0
 14 16  1  0  0  0  0
 14 43  1  0  0  0  0
 15 20  1  0  0  0  0
 15 23  1  0  0  0  0
 15 44  1  0  0  0  0
 16 45  1  0  0  0  0
 16 46  1  0  0  0  0
 17 21  1  0  0  0  0
 17 28  1  0  0  0  0
 17 47  1  0  0  0  0
 18 20  1  0  0  0  0
 18 48  1  0  0  0  0
 18 49  1  0  0  0  0
 19 21  1  0  0  0  0
 19 50  1  0  0  0  0
 19 51  1  0  0  0  0
 20 52  1  0  0  0  0
 20 53  1  0  0  0  0
 21 54  1  0  0  0  0
 21 55  1  0  0  0  0
 22 26  1  0  0  0  0
 22 56  1  0  0  0  0
 22 57  1  0  0  0  0
 23 27  1  0  0  0  0
 23 58  1  0  0  0  0
 23 59  1  0  0  0  0
 24 60  1  0  0  0  0
 24 61  1  0  0  0  0
 24 62  1  0  0  0  0
 25 63  1  0  0  0  0
 25 64  1  0  0  0  0
 25 65  1  0  0  0  0
 26 27  1  0  0  0  0
 26 66  1  0  0  0  0
 26 67  1  0  0  0  0
 27 68  1  0  0  0  0
 28 29  1  0  0  0  0
 29 69  1  0  0  0  0
 29 70  1  0  0  0  0
 30 71  1  0  0  0  0
 30 72  1  0  0  0  0
 30 73  1  0  0  0  0
 31 74  1  0  0  0  0
 31 75  1  0  0  0  0
 31 76  1  0  0  0  0
 32 77  1  0  0  0  0
 32 78  1  0  0  0  0
 32 79  1  0  0  0  0
 33 80  1  0  0  0  0
 33 81  1  0  0  0  0
 33 82  1  0  0  0  0
 34 83  1  0  0  0  0
 34 84  1  0  0  0  0
 34 85  1  0  0  0  0
 35 86  1  0  0  0  0
 35 87  1  0  0  0  0
 35 88  1  0  0  0  0
 36 89  1  0  0  0  0
 36 90  1  0  0  0  0
 36 91  1  0  0  0  0
 37 92  1  0  0  0  0
 37 93  1  0  0  0  0
 37 94  1  0  0  0  0
 38 95  1  0  0  0  0
 38 96  1  0  0  0  0
 38 97  1  0  0  0  0
 39 98  1  0  0  0  0
 39 99  1  0  0  0  0
 39100  1  0  0  0  0
M  END
> <PUBCHEM_COMPOUND_CID>
523450
> <PUBCHEM_COMPOUND_CANONICALIZED>
1
> <PUBCHEM_CACTVS_COMPLEXITY>
894
> <PUBCHEM_CACTVS_HBOND_ACCEPTOR>
5
> <PUBCHEM_CACTVS_HBOND_DONOR>
0
> <PUBCHEM_CACTVS_ROTATABLE_BOND>
9
> <PUBCHEM_CACTVS_SUBSKEYS>
AAADcfB6OAwAAAAAAAAAAAAAAAAAAYAAAAAwYMAAAAAAAGDAAAAAHhAEAEAADxyhgAJCAAAQAAEgAQAgAAQAAAAAAAAAAAAwAAAAAAIAAAAAAAAEAAAAAAGAwPAPgAAAAAAAAADAAAYAADAAAQAACAAAAA==
> <PUBCHEM_IUPAC_OPENEYE_NAME>
1-[10,13-dimethyl-3,11-bis(trimethylsilyloxy)-2,3,4,5,6,7,8,9,11,12,14,15,16,17-tetradecahydro-1H-cyclopenta[a]phenanthren-17-yl]-N-methoxy-2-trimethylsilyloxy-ethanimine
> <PUBCHEM_IUPAC_CAS_NAME>
1-[10,13-dimethyl-3,11-bis(trimethylsilyloxy)-2,3,4,5,6,7,8,9,11,12,14,15,16,17-tetradecahydro-1H-cyclopenta[a]phenanthren-17-yl]-N-methoxy-2-trimethylsilyloxyethanimine
> <PUBCHEM_IUPAC_NAME_MARKUP>
1-[10,13-dimethyl-3,11-bis(trimethylsilyloxy)-2,3,4,5,6,7,8,9,11,12,14,15,16,17-tetradecahydro-1<I>H</I>-cyclopenta[a]phenanthren-17-yl]-<I>N</I>-methoxy-2-trimethylsilyloxyethanimine
> <PUBCHEM_IUPAC_NAME>
1-[10,13-dimethyl-3,11-bis(trimethylsilyloxy)-2,3,4,5,6,7,8,9,11,12,14,15,16,17-tetradecahydro-1H-cyclopenta[a]phenanthren-17-yl]-N-methoxy-2-trimethylsilyloxyethanimine
> <PUBCHEM_IUPAC_SYSTEMATIC_NAME>
1-[10,13-dimethyl-3,11-bis(trimethylsilyloxy)-2,3,4,5,6,7,8,9,11,12,14,15,16,17-tetradecahydro-1H-cyclopenta[a]phenanthren-17-yl]-N-methoxy-2-trimethylsilyloxy-ethanimine
> <PUBCHEM_IUPAC_TRADITIONAL_NAME>
[1-[10,13-dimethyl-3,11-bis(trimethylsilyloxy)-2,3,4,5,6,7,8,9,11,12,14,15,16,17-tetradecahydro-1H-cyclopenta[a]phenanthren-17-yl]-2-trimethylsilyloxy-ethylidene]-methoxy-amine
> <PUBCHEM_IUPAC_INCHI>
InChI=1S/C31H61NO4Si3/c1-30-18-17-23(35-38(7,8)9)19-22(30)13-14-24-25-15-16-26(27(32-33-3)21-34-37(4,5)6)31(25,2)20-28(29(24)30)36-39(10,11)12/h22-26,28-29H,13-21H2,1-12H3
> <PUBCHEM_IUPAC_INCHIKEY>
LTUTXXUPIPZWMI-UHFFFAOYSA-N
> <PUBCHEM_EXACT_MASS>
595.39083903
> <PUBCHEM_MOLECULAR_FORMULA>
C31H61NO4Si3
> <PUBCHEM_MOLECULAR_WEIGHT>
596.1
> <PUBCHEM_OPENEYE_CAN_SMILES>
CC12CCC(CC1CCC3C2C(CC4(C3CCC4C(=NOC)CO[Si](C)(C)C)C)O[Si](C)(C)C)O[Si](C)(C)C
> <PUBCHEM_OPENEYE_ISO_SMILES>
CC12CCC(CC1CCC3C2C(CC4(C3CCC4C(=NOC)CO[Si](C)(C)C)C)O[Si](C)(C)C)O[Si](C)(C)C
> <PUBCHEM_CACTVS_TPSA>
49.3
> <PUBCHEM_MONOISOTOPIC_WEIGHT>
595.39083903
> <PUBCHEM_TOTAL_CHARGE>
0
> <PUBCHEM_HEAVY_ATOM_COUNT>
39
> <PUBCHEM_ATOM_DEF_STEREO_COUNT>
0
> <PUBCHEM_ATOM_UDEF_STEREO_COUNT>
9
> <PUBCHEM_BOND_DEF_STEREO_COUNT>
0
> <PUBCHEM_BOND_UDEF_STEREO_COUNT>
1
> <PUBCHEM_ISOTOPIC_ATOM_COUNT>
0
> <PUBCHEM_COMPONENT_COUNT>
1
> <PUBCHEM_CACTVS_TAUTO_COUNT>
-1
> <PUBCHEM_COORDINATE_TYPE>
1
5
255
> <PUBCHEM_BONDANNOTATIONS>
10  18  3
11  19  3
12  24  3
13  25  3
15  20  3
17  28  3
14  4  3
27  5  3
8  28  1
9  14  3
$$$$
