523409
  -OEChem-10302200292D
 80 79  0     1  0  0  0  0  0999 V2000
    4.5981   -2.3170    0.0000 Si  0  0  0  0  0  0  0  0  0  0  0  0
    7.1962    1.1830    0.0000 Si  0  0  0  0  0  0  0  0  0  0  0  0
    2.8660   -0.3170    0.0000 Si  0  0  0  0  0  0  0  0  0  0  0  0
    8.9282   -0.8170    0.0000 Si  0  0  0  0  0  0  0  0  0  0  0  0
    3.7320    2.1830    0.0000 Si  0  0  0  0  0  0  0  0  0  0  0  0
    5.4641   -1.8170    0.0000 O   0  0  0  0  0  0  0  0  0  0  0  0
    6.3301    0.6830    0.0000 O   0  0  0  0  0  0  0  0  0  0  0  0
    3.7320   -0.8170    0.0000 O   0  0  0  0  0  0  0  0  0  0  0  0
    8.0622   -0.3170    0.0000 O   0  0  0  0  0  0  0  0  0  0  0  0
    3.7320    1.1830    0.0000 O   0  0  0  0  0  0  0  0  0  0  0  0
    7.1962   -1.8170    0.0000 O   0  0  0  0  0  0  0  0  0  0  0  0
    5.4641    1.1830    0.0000 O   0  0  0  0  0  0  0  0  0  0  0  0
    5.4641   -0.8170    0.0000 C   0  0  0  0  0  0  0  0  0  0  0  0
    6.3301   -0.3170    0.0000 C   0  0  2  0  0  0  0  0  0  0  0  0
    4.5981   -0.3170    0.0000 C   0  0  1  0  0  0  0  0  0  0  0  0
    7.1962   -0.8170    0.0000 C   0  0  0  0  0  0  0  0  0  0  0  0
    4.5981    0.6830    0.0000 C   0  0  0  0  0  0  0  0  0  0  0  0
    5.0981   -3.1830    0.0000 C   0  0  0  0  0  0  0  0  0  0  0  0
    3.7320   -2.8170    0.0000 C   0  0  0  0  0  0  0  0  0  0  0  0
    4.0981   -1.4510    0.0000 C   0  0  0  0  0  0  0  0  0  0  0  0
    8.0622    1.6830    0.0000 C   0  0  0  0  0  0  0  0  0  0  0  0
    6.6962    2.0490    0.0000 C   0  0  0  0  0  0  0  0  0  0  0  0
    7.6962    0.3170    0.0000 C   0  0  0  0  0  0  0  0  0  0  0  0
    2.0000    0.1830    0.0000 C   0  0  0  0  0  0  0  0  0  0  0  0
    2.3660   -1.1830    0.0000 C   0  0  0  0  0  0  0  0  0  0  0  0
    3.3660    0.5490    0.0000 C   0  0  0  0  0  0  0  0  0  0  0  0
    9.7942   -1.3170    0.0000 C   0  0  0  0  0  0  0  0  0  0  0  0
    9.4282    0.0490    0.0000 C   0  0  0  0  0  0  0  0  0  0  0  0
    8.4282   -1.6830    0.0000 C   0  0  0  0  0  0  0  0  0  0  0  0
    3.7320    3.1830    0.0000 C   0  0  0  0  0  0  0  0  0  0  0  0
    2.7320    2.1830    0.0000 C   0  0  0  0  0  0  0  0  0  0  0  0
    4.7320    2.1830    0.0000 C   0  0  0  0  0  0  0  0  0  0  0  0
    6.0010   -1.1270    0.0000 H   0  0  0  0  0  0  0  0  0  0  0  0
    6.8671   -0.0070    0.0000 H   0  0  0  0  0  0  0  0  0  0  0  0
    4.5981   -0.9370    0.0000 H   0  0  0  0  0  0  0  0  0  0  0  0
    4.5611   -3.4930    0.0000 H   0  0  0  0  0  0  0  0  0  0  0  0
    5.4081   -3.7200    0.0000 H   0  0  0  0  0  0  0  0  0  0  0  0
    5.6350   -2.8730    0.0000 H   0  0  0  0  0  0  0  0  0  0  0  0
    3.4220   -2.2800    0.0000 H   0  0  0  0  0  0  0  0  0  0  0  0
    3.1951   -3.1270    0.0000 H   0  0  0  0  0  0  0  0  0  0  0  0
    4.0420   -3.3539    0.0000 H   0  0  0  0  0  0  0  0  0  0  0  0
    4.6350   -1.1410    0.0000 H   0  0  0  0  0  0  0  0  0  0  0  0
    3.7881   -0.9140    0.0000 H   0  0  0  0  0  0  0  0  0  0  0  0
    3.5611   -1.7610    0.0000 H   0  0  0  0  0  0  0  0  0  0  0  0
    8.3722    1.1461    0.0000 H   0  0  0  0  0  0  0  0  0  0  0  0
    8.5991    1.9930    0.0000 H   0  0  0  0  0  0  0  0  0  0  0  0
    7.7522    2.2200    0.0000 H   0  0  0  0  0  0  0  0  0  0  0  0
    7.2331    2.3590    0.0000 H   0  0  0  0  0  0  0  0  0  0  0  0
    6.3862    2.5860    0.0000 H   0  0  0  0  0  0  0  0  0  0  0  0
    6.1592    1.7390    0.0000 H   0  0  0  0  0  0  0  0  0  0  0  0
    7.1592    0.0070    0.0000 H   0  0  0  0  0  0  0  0  0  0  0  0
    8.0062   -0.2199    0.0000 H   0  0  0  0  0  0  0  0  0  0  0  0
    8.2331    0.6270    0.0000 H   0  0  0  0  0  0  0  0  0  0  0  0
    2.3100    0.7199    0.0000 H   0  0  0  0  0  0  0  0  0  0  0  0
    1.4631    0.4930    0.0000 H   0  0  0  0  0  0  0  0  0  0  0  0
    1.6900   -0.3539    0.0000 H   0  0  0  0  0  0  0  0  0  0  0  0
    1.8291   -0.8730    0.0000 H   0  0  0  0  0  0  0  0  0  0  0  0
    2.0560   -1.7200    0.0000 H   0  0  0  0  0  0  0  0  0  0  0  0
    2.9030   -1.4930    0.0000 H   0  0  0  0  0  0  0  0  0  0  0  0
    3.9030    0.2390    0.0000 H   0  0  0  0  0  0  0  0  0  0  0  0
    3.6760    1.0860    0.0000 H   0  0  0  0  0  0  0  0  0  0  0  0
    2.8291    0.8590    0.0000 H   0  0  0  0  0  0  0  0  0  0  0  0
    9.4842   -1.8539    0.0000 H   0  0  0  0  0  0  0  0  0  0  0  0
   10.3312   -1.6270    0.0000 H   0  0  0  0  0  0  0  0  0  0  0  0
   10.1042   -0.7801    0.0000 H   0  0  0  0  0  0  0  0  0  0  0  0
    9.9651   -0.2610    0.0000 H   0  0  0  0  0  0  0  0  0  0  0  0
    9.7382    0.5860    0.0000 H   0  0  0  0  0  0  0  0  0  0  0  0
    8.8913    0.3590    0.0000 H   0  0  0  0  0  0  0  0  0  0  0  0
    7.8913   -1.3730    0.0000 H   0  0  0  0  0  0  0  0  0  0  0  0
    8.1182   -2.2200    0.0000 H   0  0  0  0  0  0  0  0  0  0  0  0
    8.9651   -1.9930    0.0000 H   0  0  0  0  0  0  0  0  0  0  0  0
    4.3520    3.1830    0.0000 H   0  0  0  0  0  0  0  0  0  0  0  0
    3.7320    3.8030    0.0000 H   0  0  0  0  0  0  0  0  0  0  0  0
    3.1120    3.1830    0.0000 H   0  0  0  0  0  0  0  0  0  0  0  0
    2.7320    2.8030    0.0000 H   0  0  0  0  0  0  0  0  0  0  0  0
    2.1120    2.1830    0.0000 H   0  0  0  0  0  0  0  0  0  0  0  0
    2.7320    1.5630    0.0000 H   0  0  0  0  0  0  0  0  0  0  0  0
    4.7320    1.5630    0.0000 H   0  0  0  0  0  0  0  0  0  0  0  0
    5.3520    2.1830    0.0000 H   0  0  0  0  0  0  0  0  0  0  0  0
    4.7320    2.8030    0.0000 H   0  0  0  0  0  0  0  0  0  0  0  0
  1  6  1  0  0  0  0
  1 18  1  0  0  0  0
  1 19  1  0  0  0  0
  1 20  1  0  0  0  0
  2  7  1  0  0  0  0
  2 21  1  0  0  0  0
  2 22  1  0  0  0  0
  2 23  1  0  0  0  0
  3  8  1  0  0  0  0
  3 24  1  0  0  0  0
  3 25  1  0  0  0  0
  3 26  1  0  0  0  0
  4  9  1  0  0  0  0
  4 27  1  0  0  0  0
  4 28  1  0  0  0  0
  4 29  1  0  0  0  0
  5 10  1  0  0  0  0
  5 30  1  0  0  0  0
  5 31  1  0  0  0  0
  5 32  1  0  0  0  0
  6 13  1  0  0  0  0
 14  7  1  1  0  0  0
 15  8  1  6  0  0  0
  9 16  1  0  0  0  0
 10 17  1  0  0  0  0
 11 16  2  0  0  0  0
 12 17  2  0  0  0  0
 13 14  1  0  0  0  0
 13 15  1  0  0  0  0
 13 33  1  0  0  0  0
 14 16  1  0  0  0  0
 14 34  1  0  0  0  0
 15 17  1  0  0  0  0
 15 35  1  0  0  0  0
 18 36  1  0  0  0  0
 18 37  1  0  0  0  0
 18 38  1  0  0  0  0
 19 39  1  0  0  0  0
 19 40  1  0  0  0  0
 19 41  1  0  0  0  0
 20 42  1  0  0  0  0
 20 43  1  0  0  0  0
 20 44  1  0  0  0  0
 21 45  1  0  0  0  0
 21 46  1  0  0  0  0
 21 47  1  0  0  0  0
 22 48  1  0  0  0  0
 22 49  1  0  0  0  0
 22 50  1  0  0  0  0
 23 51  1  0  0  0  0
 23 52  1  0  0  0  0
 23 53  1  0  0  0  0
 24 54  1  0  0  0  0
 24 55  1  0  0  0  0
 24 56  1  0  0  0  0
 25 57  1  0  0  0  0
 25 58  1  0  0  0  0
 25 59  1  0  0  0  0
 26 60  1  0  0  0  0
 26 61  1  0  0  0  0
 26 62  1  0  0  0  0
 27 63  1  0  0  0  0
 27 64  1  0  0  0  0
 27 65  1  0  0  0  0
 28 66  1  0  0  0  0
 28 67  1  0  0  0  0
 28 68  1  0  0  0  0
 29 69  1  0  0  0  0
 29 70  1  0  0  0  0
 29 71  1  0  0  0  0
 30 72  1  0  0  0  0
 30 73  1  0  0  0  0
 30 74  1  0  0  0  0
 31 75  1  0  0  0  0
 31 76  1  0  0  0  0
 31 77  1  0  0  0  0
 32 78  1  0  0  0  0
 32 79  1  0  0  0  0
 32 80  1  0  0  0  0
M  END
> <PUBCHEM_COMPOUND_CID>
523409
> <PUBCHEM_COMPOUND_CANONICALIZED>
1
> <PUBCHEM_CACTVS_COMPLEXITY>
589
> <PUBCHEM_CACTVS_HBOND_ACCEPTOR>
7
> <PUBCHEM_CACTVS_HBOND_DONOR>
0
> <PUBCHEM_CACTVS_ROTATABLE_BOND>
14
> <PUBCHEM_CACTVS_SUBSKEYS>
AAADcfB4OAwAAAAAAAAAAAAAAAAAAAAAAAAAAAAAAAAAAAAAAAAAGhAAAEAACBSggAJCCAAAAAEIAACQCAIAAAAAAAAAAAFAAAABABYAAAAAAAAFIAAAAADKJgAAAAAAAAAAAAAAAAAAAAAAAAAAAAAAAA==
> <PUBCHEM_IUPAC_OPENEYE_NAME>
bis(trimethylsilyl) (2R,4S)-2,3,4-tris(trimethylsilyloxy)pentanedioate
> <PUBCHEM_IUPAC_CAS_NAME>
(2R,4S)-2,3,4-tris(trimethylsilyloxy)pentanedioic acid bis(trimethylsilyl) ester
> <PUBCHEM_IUPAC_NAME_MARKUP>
bis(trimethylsilyl) (2<I>R</I>,4<I>S</I>)-2,3,4-tris(trimethylsilyloxy)pentanedioate
> <PUBCHEM_IUPAC_NAME>
bis(trimethylsilyl) (2R,4S)-2,3,4-tris(trimethylsilyloxy)pentanedioate
> <PUBCHEM_IUPAC_SYSTEMATIC_NAME>
bis(trimethylsilyl) (2R,4S)-2,3,4-tris(trimethylsilyloxy)pentanedioate
> <PUBCHEM_IUPAC_TRADITIONAL_NAME>
(2R,4S)-2,3,4-tris(trimethylsilyloxy)glutaric acid bis(trimethylsilyl) ester
> <PUBCHEM_IUPAC_INCHI>
InChI=1S/C20H48O7Si5/c1-28(2,3)23-16(17(24-29(4,5)6)19(21)26-31(10,11)12)18(25-30(7,8)9)20(22)27-32(13,14)15/h16-18H,1-15H3/t16?,17-,18+
> <PUBCHEM_IUPAC_INCHIKEY>
QGJKSEWJPVGCIU-AYHJJNSGSA-N
> <PUBCHEM_EXACT_MASS>
540.22463654
> <PUBCHEM_MOLECULAR_FORMULA>
C20H48O7Si5
> <PUBCHEM_MOLECULAR_WEIGHT>
541.0
> <PUBCHEM_OPENEYE_CAN_SMILES>
C[Si](C)(C)OC(C(C(=O)O[Si](C)(C)C)O[Si](C)(C)C)C(C(=O)O[Si](C)(C)C)O[Si](C)(C)C
> <PUBCHEM_OPENEYE_ISO_SMILES>
C[Si](C)(C)O[C@H](C([C@@H](C(=O)O[Si](C)(C)C)O[Si](C)(C)C)O[Si](C)(C)C)C(=O)O[Si](C)(C)C
> <PUBCHEM_CACTVS_TPSA>
80.3
> <PUBCHEM_MONOISOTOPIC_WEIGHT>
540.22463654
> <PUBCHEM_TOTAL_CHARGE>
0
> <PUBCHEM_HEAVY_ATOM_COUNT>
32
> <PUBCHEM_ATOM_DEF_STEREO_COUNT>
2
> <PUBCHEM_ATOM_UDEF_STEREO_COUNT>
0
> <PUBCHEM_BOND_DEF_STEREO_COUNT>
0
> <PUBCHEM_BOND_UDEF_STEREO_COUNT>
0
> <PUBCHEM_ISOTOPIC_ATOM_COUNT>
0
> <PUBCHEM_COMPONENT_COUNT>
1
> <PUBCHEM_CACTVS_TAUTO_COUNT>
1
> <PUBCHEM_COORDINATE_TYPE>
1
5
255
> <PUBCHEM_BONDANNOTATIONS>
14  7  5
15  8  6
$$$$
