523489
  -OEChem-10302200292D
 30 30  0     1  0  0  0  0  0999 V2000
    3.0878   -0.3261    0.0000 C   0  0  3  0  0  0  0  0  0  0  0  0
    2.5878   -1.8649    0.0000 C   0  0  3  0  0  0  0  0  0  0  0  0
    2.2788   -0.9139    0.0000 C   0  0  0  0  0  0  0  0  0  0  0  0
    3.8968   -0.9139    0.0000 C   0  0  0  0  0  0  0  0  0  0  0  0
    3.5878   -1.8649    0.0000 C   0  0  0  0  0  0  0  0  0  0  0  0
    3.0878    0.6739    0.0000 C   0  0  0  0  0  0  0  0  0  0  0  0
    2.0000   -2.6739    0.0000 C   0  0  0  0  0  0  0  0  0  0  0  0
    3.9538    1.1739    0.0000 C   0  0  0  0  0  0  0  0  0  0  0  0
    3.9538    2.1739    0.0000 C   0  0  0  0  0  0  0  0  0  0  0  0
    4.8198    2.6739    0.0000 C   0  0  0  0  0  0  0  0  0  0  0  0
    3.6402   -0.0446    0.0000 H   0  0  0  0  0  0  0  0  0  0  0  0
    1.9754   -1.7679    0.0000 H   0  0  0  0  0  0  0  0  0  0  0  0
    1.9688   -0.3769    0.0000 H   0  0  0  0  0  0  0  0  0  0  0  0
    1.7124   -1.1660    0.0000 H   0  0  0  0  0  0  0  0  0  0  0  0
    4.4632   -1.1660    0.0000 H   0  0  0  0  0  0  0  0  0  0  0  0
    4.2068   -0.3769    0.0000 H   0  0  0  0  0  0  0  0  0  0  0  0
    3.5230   -2.4815    0.0000 H   0  0  0  0  0  0  0  0  0  0  0  0
    4.1942   -1.9938    0.0000 H   0  0  0  0  0  0  0  0  0  0  0  0
    2.8757    1.2565    0.0000 H   0  0  0  0  0  0  0  0  0  0  0  0
    2.4772    0.5663    0.0000 H   0  0  0  0  0  0  0  0  0  0  0  0
    1.4984   -2.3095    0.0000 H   0  0  0  0  0  0  0  0  0  0  0  0
    1.6356   -3.1755    0.0000 H   0  0  0  0  0  0  0  0  0  0  0  0
    2.5016   -3.0384    0.0000 H   0  0  0  0  0  0  0  0  0  0  0  0
    4.1659    0.5913    0.0000 H   0  0  0  0  0  0  0  0  0  0  0  0
    4.5644    1.2816    0.0000 H   0  0  0  0  0  0  0  0  0  0  0  0
    3.7418    2.7565    0.0000 H   0  0  0  0  0  0  0  0  0  0  0  0
    3.3432    2.0663    0.0000 H   0  0  0  0  0  0  0  0  0  0  0  0
    5.1298    2.1370    0.0000 H   0  0  0  0  0  0  0  0  0  0  0  0
    5.3568    2.9839    0.0000 H   0  0  0  0  0  0  0  0  0  0  0  0
    4.5098    3.2109    0.0000 H   0  0  0  0  0  0  0  0  0  0  0  0
  1  3  1  0  0  0  0
  1  4  1  0  0  0  0
  1  6  1  0  0  0  0
  1 11  1  0  0  0  0
  2  3  1  0  0  0  0
  2  5  1  0  0  0  0
  2  7  1  0  0  0  0
  2 12  1  0  0  0  0
  3 13  1  0  0  0  0
  3 14  1  0  0  0  0
  4  5  1  0  0  0  0
  4 15  1  0  0  0  0
  4 16  1  0  0  0  0
  5 17  1  0  0  0  0
  5 18  1  0  0  0  0
  6  8  1  0  0  0  0
  6 19  1  0  0  0  0
  6 20  1  0  0  0  0
  7 21  1  0  0  0  0
  7 22  1  0  0  0  0
  7 23  1  0  0  0  0
  8  9  1  0  0  0  0
  8 24  1  0  0  0  0
  8 25  1  0  0  0  0
  9 10  1  0  0  0  0
  9 26  1  0  0  0  0
  9 27  1  0  0  0  0
 10 28  1  0  0  0  0
 10 29  1  0  0  0  0
 10 30  1  0  0  0  0
M  END
> <PUBCHEM_COMPOUND_CID>
523489
> <PUBCHEM_COMPOUND_CANONICALIZED>
1
> <PUBCHEM_CACTVS_COMPLEXITY>
86
> <PUBCHEM_CACTVS_HBOND_ACCEPTOR>
0
> <PUBCHEM_CACTVS_HBOND_DONOR>
0
> <PUBCHEM_CACTVS_ROTATABLE_BOND>
3
> <PUBCHEM_CACTVS_SUBSKEYS>
AAADceBwAAAAAAAAAAAAAAAAAAAAAYAAAAAAAAAAAAAAAAAAAAAAGAAAAAAADQCAAAACAAAAAAAAAAAAAAAAAAAAAAAAAAAAAAAAAAIAAAAAAAAAAAAAAAEAgMAOAAAAAAAAAAAAAAAAAAAAAQAAAAAAAA==
> <PUBCHEM_IUPAC_OPENEYE_NAME>
1-butyl-3-methyl-cyclopentane
> <PUBCHEM_IUPAC_CAS_NAME>
1-butyl-3-methylcyclopentane
> <PUBCHEM_IUPAC_NAME_MARKUP>
1-butyl-3-methylcyclopentane
> <PUBCHEM_IUPAC_NAME>
1-butyl-3-methylcyclopentane
> <PUBCHEM_IUPAC_SYSTEMATIC_NAME>
1-butyl-3-methyl-cyclopentane
> <PUBCHEM_IUPAC_TRADITIONAL_NAME>
1-butyl-3-methyl-cyclopentane
> <PUBCHEM_IUPAC_INCHI>
InChI=1S/C10H20/c1-3-4-5-10-7-6-9(2)8-10/h9-10H,3-8H2,1-2H3
> <PUBCHEM_IUPAC_INCHIKEY>
AZIMTRHQTPSRKY-UHFFFAOYSA-N
> <PUBCHEM_XLOGP3_AA>
4.8
> <PUBCHEM_EXACT_MASS>
140.156500638
> <PUBCHEM_MOLECULAR_FORMULA>
C10H20
> <PUBCHEM_MOLECULAR_WEIGHT>
140.27
> <PUBCHEM_OPENEYE_CAN_SMILES>
CCCCC1CCC(C1)C
> <PUBCHEM_OPENEYE_ISO_SMILES>
CCCCC1CCC(C1)C
> <PUBCHEM_CACTVS_TPSA>
0
> <PUBCHEM_MONOISOTOPIC_WEIGHT>
140.156500638
> <PUBCHEM_TOTAL_CHARGE>
0
> <PUBCHEM_HEAVY_ATOM_COUNT>
10
> <PUBCHEM_ATOM_DEF_STEREO_COUNT>
0
> <PUBCHEM_ATOM_UDEF_STEREO_COUNT>
2
> <PUBCHEM_BOND_DEF_STEREO_COUNT>
0
> <PUBCHEM_BOND_UDEF_STEREO_COUNT>
0
> <PUBCHEM_ISOTOPIC_ATOM_COUNT>
0
> <PUBCHEM_COMPONENT_COUNT>
1
> <PUBCHEM_CACTVS_TAUTO_COUNT>
-1
> <PUBCHEM_COORDINATE_TYPE>
1
5
255
> <PUBCHEM_BONDANNOTATIONS>
1  6  3
2  7  3
$$$$
