523413
  -OEChem-10302200292D
 54 54  0     1  0  0  0  0  0999 V2000
    6.3301    1.3170    0.0000 Si  0  0  0  0  0  0  0  0  0  0  0  0
    8.0622   -0.6830    0.0000 Si  0  0  0  0  0  0  0  0  0  0  0  0
    2.8660   -0.6830    0.0000 Si  0  0  0  0  0  0  0  0  0  0  0  0
    5.4641    0.8170    0.0000 O   0  0  0  0  0  0  0  0  0  0  0  0
    7.1962   -0.1830    0.0000 O   0  0  0  0  0  0  0  0  0  0  0  0
    3.7320   -0.1830    0.0000 O   0  0  0  0  0  0  0  0  0  0  0  0
    5.4641   -2.1830    0.0000 O   0  0  0  0  0  0  0  0  0  0  0  0
    3.7320   -2.1830    0.0000 O   0  0  0  0  0  0  0  0  0  0  0  0
    5.4641   -0.1830    0.0000 C   0  0  3  0  0  0  0  0  0  0  0  0
    6.3301   -0.6830    0.0000 C   0  0  3  0  0  0  0  0  0  0  0  0
    4.5981   -0.6830    0.0000 C   0  0  3  0  0  0  0  0  0  0  0  0
    6.3301   -1.6830    0.0000 C   0  0  0  0  0  0  0  0  0  0  0  0
    4.5981   -1.6830    0.0000 C   0  0  0  0  0  0  0  0  0  0  0  0
    7.1962    1.8170    0.0000 C   0  0  0  0  0  0  0  0  0  0  0  0
    5.8301    2.1830    0.0000 C   0  0  0  0  0  0  0  0  0  0  0  0
    6.8301    0.4510    0.0000 C   0  0  0  0  0  0  0  0  0  0  0  0
    8.9282   -1.1830    0.0000 C   0  0  0  0  0  0  0  0  0  0  0  0
    8.5622    0.1830    0.0000 C   0  0  0  0  0  0  0  0  0  0  0  0
    7.5622   -1.5490    0.0000 C   0  0  0  0  0  0  0  0  0  0  0  0
    2.0000   -1.1830    0.0000 C   0  0  0  0  0  0  0  0  0  0  0  0
    2.3660    0.1830    0.0000 C   0  0  0  0  0  0  0  0  0  0  0  0
    3.3660   -1.5490    0.0000 C   0  0  0  0  0  0  0  0  0  0  0  0
    6.0010    0.1270    0.0000 H   0  0  0  0  0  0  0  0  0  0  0  0
    6.8671   -0.9930    0.0000 H   0  0  0  0  0  0  0  0  0  0  0  0
    4.5981   -0.0630    0.0000 H   0  0  0  0  0  0  0  0  0  0  0  0
    6.5422   -2.2656    0.0000 H   0  0  0  0  0  0  0  0  0  0  0  0
    6.9407   -1.5754    0.0000 H   0  0  0  0  0  0  0  0  0  0  0  0
    7.5062    1.2800    0.0000 H   0  0  0  0  0  0  0  0  0  0  0  0
    7.7331    2.1270    0.0000 H   0  0  0  0  0  0  0  0  0  0  0  0
    6.8862    2.3539    0.0000 H   0  0  0  0  0  0  0  0  0  0  0  0
    6.3671    2.4930    0.0000 H   0  0  0  0  0  0  0  0  0  0  0  0
    5.5201    2.7200    0.0000 H   0  0  0  0  0  0  0  0  0  0  0  0
    5.2932    1.8730    0.0000 H   0  0  0  0  0  0  0  0  0  0  0  0
    6.2932    0.1410    0.0000 H   0  0  0  0  0  0  0  0  0  0  0  0
    7.1401   -0.0860    0.0000 H   0  0  0  0  0  0  0  0  0  0  0  0
    7.3671    0.7610    0.0000 H   0  0  0  0  0  0  0  0  0  0  0  0
    8.6182   -1.7200    0.0000 H   0  0  0  0  0  0  0  0  0  0  0  0
    9.4651   -1.4930    0.0000 H   0  0  0  0  0  0  0  0  0  0  0  0
    9.2382   -0.6461    0.0000 H   0  0  0  0  0  0  0  0  0  0  0  0
    9.0991   -0.1270    0.0000 H   0  0  0  0  0  0  0  0  0  0  0  0
    8.8722    0.7199    0.0000 H   0  0  0  0  0  0  0  0  0  0  0  0
    8.0252    0.4930    0.0000 H   0  0  0  0  0  0  0  0  0  0  0  0
    7.0252   -1.2390    0.0000 H   0  0  0  0  0  0  0  0  0  0  0  0
    7.2522   -2.0860    0.0000 H   0  0  0  0  0  0  0  0  0  0  0  0
    8.0991   -1.8590    0.0000 H   0  0  0  0  0  0  0  0  0  0  0  0
    1.6900   -0.6461    0.0000 H   0  0  0  0  0  0  0  0  0  0  0  0
    1.4631   -1.4930    0.0000 H   0  0  0  0  0  0  0  0  0  0  0  0
    2.3100   -1.7200    0.0000 H   0  0  0  0  0  0  0  0  0  0  0  0
    2.9030    0.4930    0.0000 H   0  0  0  0  0  0  0  0  0  0  0  0
    2.0560    0.7199    0.0000 H   0  0  0  0  0  0  0  0  0  0  0  0
    1.8291   -0.1270    0.0000 H   0  0  0  0  0  0  0  0  0  0  0  0
    2.8291   -1.8590    0.0000 H   0  0  0  0  0  0  0  0  0  0  0  0
    3.6760   -2.0860    0.0000 H   0  0  0  0  0  0  0  0  0  0  0  0
    3.9030   -1.2390    0.0000 H   0  0  0  0  0  0  0  0  0  0  0  0
  1  4  1  0  0  0  0
  1 14  1  0  0  0  0
  1 15  1  0  0  0  0
  1 16  1  0  0  0  0
  2  5  1  0  0  0  0
  2 17  1  0  0  0  0
  2 18  1  0  0  0  0
  2 19  1  0  0  0  0
  3  6  1  0  0  0  0
  3 20  1  0  0  0  0
  3 21  1  0  0  0  0
  3 22  1  0  0  0  0
  4  9  1  0  0  0  0
  5 10  1  0  0  0  0
  6 11  1  0  0  0  0
  7 12  1  0  0  0  0
  7 13  1  0  0  0  0
  8 13  2  0  0  0  0
  9 10  1  0  0  0  0
  9 11  1  0  0  0  0
  9 23  1  0  0  0  0
 10 12  1  0  0  0  0
 10 24  1  0  0  0  0
 11 13  1  0  0  0  0
 11 25  1  0  0  0  0
 12 26  1  0  0  0  0
 12 27  1  0  0  0  0
 14 28  1  0  0  0  0
 14 29  1  0  0  0  0
 14 30  1  0  0  0  0
 15 31  1  0  0  0  0
 15 32  1  0  0  0  0
 15 33  1  0  0  0  0
 16 34  1  0  0  0  0
 16 35  1  0  0  0  0
 16 36  1  0  0  0  0
 17 37  1  0  0  0  0
 17 38  1  0  0  0  0
 17 39  1  0  0  0  0
 18 40  1  0  0  0  0
 18 41  1  0  0  0  0
 18 42  1  0  0  0  0
 19 43  1  0  0  0  0
 19 44  1  0  0  0  0
 19 45  1  0  0  0  0
 20 46  1  0  0  0  0
 20 47  1  0  0  0  0
 20 48  1  0  0  0  0
 21 49  1  0  0  0  0
 21 50  1  0  0  0  0
 21 51  1  0  0  0  0
 22 52  1  0  0  0  0
 22 53  1  0  0  0  0
 22 54  1  0  0  0  0
M  END
> <PUBCHEM_COMPOUND_CID>
523413
> <PUBCHEM_COMPOUND_CANONICALIZED>
1
> <PUBCHEM_CACTVS_COMPLEXITY>
395
> <PUBCHEM_CACTVS_HBOND_ACCEPTOR>
5
> <PUBCHEM_CACTVS_HBOND_DONOR>
0
> <PUBCHEM_CACTVS_ROTATABLE_BOND>
6
> <PUBCHEM_CACTVS_SUBSKEYS>
AAADcfBwOAwAAAAAAAAAAAAAAAAAAAAAAAAkAAAAAAAAAAAAAAAAGhAAAEAACBSggAJCCAAABAEIAACQCAIAAAAAAAAAAAFAAAABABYAAAACAAAFIAACAADKBAAAAAAAAAAAAAAAAAAAAAAAAAAAAAAAAA==
> <PUBCHEM_IUPAC_OPENEYE_NAME>
3,4,5-tris(trimethylsilyloxy)tetrahydropyran-2-one
> <PUBCHEM_IUPAC_CAS_NAME>
3,4,5-tris(trimethylsilyloxy)-2-oxanone
> <PUBCHEM_IUPAC_NAME_MARKUP>
3,4,5-tris(trimethylsilyloxy)oxan-2-one
> <PUBCHEM_IUPAC_NAME>
3,4,5-tris(trimethylsilyloxy)oxan-2-one
> <PUBCHEM_IUPAC_SYSTEMATIC_NAME>
3,4,5-tris(trimethylsilyloxy)oxan-2-one
> <PUBCHEM_IUPAC_TRADITIONAL_NAME>
3,4,5-tris(trimethylsilyloxy)tetrahydropyran-2-one
> <PUBCHEM_IUPAC_INCHI>
InChI=1S/C14H32O5Si3/c1-20(2,3)17-11-10-16-14(15)13(19-22(7,8)9)12(11)18-21(4,5)6/h11-13H,10H2,1-9H3
> <PUBCHEM_IUPAC_INCHIKEY>
RWGTVHCZLUFFAU-UHFFFAOYSA-N
> <PUBCHEM_EXACT_MASS>
364.15575372
> <PUBCHEM_MOLECULAR_FORMULA>
C14H32O5Si3
> <PUBCHEM_MOLECULAR_WEIGHT>
364.66
> <PUBCHEM_OPENEYE_CAN_SMILES>
C[Si](C)(C)OC1COC(=O)C(C1O[Si](C)(C)C)O[Si](C)(C)C
> <PUBCHEM_OPENEYE_ISO_SMILES>
C[Si](C)(C)OC1COC(=O)C(C1O[Si](C)(C)C)O[Si](C)(C)C
> <PUBCHEM_CACTVS_TPSA>
54
> <PUBCHEM_MONOISOTOPIC_WEIGHT>
364.15575372
> <PUBCHEM_TOTAL_CHARGE>
0
> <PUBCHEM_HEAVY_ATOM_COUNT>
22
> <PUBCHEM_ATOM_DEF_STEREO_COUNT>
0
> <PUBCHEM_ATOM_UDEF_STEREO_COUNT>
3
> <PUBCHEM_BOND_DEF_STEREO_COUNT>
0
> <PUBCHEM_BOND_UDEF_STEREO_COUNT>
0
> <PUBCHEM_ISOTOPIC_ATOM_COUNT>
0
> <PUBCHEM_COMPONENT_COUNT>
1
> <PUBCHEM_CACTVS_TAUTO_COUNT>
-1
> <PUBCHEM_COORDINATE_TYPE>
1
5
255
> <PUBCHEM_BONDANNOTATIONS>
9  4  3
10  5  3
11  6  3
$$$$
