523407
  -OEChem-10302200292D
 70 70  0     1  0  0  0  0  0999 V2000
    2.8660    0.5000    0.0000 Si  0  0  0  0  0  0  0  0  0  0  0  0
    6.3301    2.5000    0.0000 Si  0  0  0  0  0  0  0  0  0  0  0  0
    8.0622    0.5000    0.0000 Si  0  0  0  0  0  0  0  0  0  0  0  0
    2.8660   -2.5000    0.0000 Si  0  0  0  0  0  0  0  0  0  0  0  0
    3.7320    1.0000    0.0000 O   0  0  0  0  0  0  0  0  0  0  0  0
    5.4641    2.0000    0.0000 O   0  0  0  0  0  0  0  0  0  0  0  0
    5.4641   -1.0000    0.0000 O   0  0  0  0  0  0  0  0  0  0  0  0
    7.1962    1.0000    0.0000 O   0  0  0  0  0  0  0  0  0  0  0  0
    3.7320   -2.0000    0.0000 O   0  0  0  0  0  0  0  0  0  0  0  0
    7.1962   -1.0000    0.0000 O   0  0  0  0  0  0  0  0  0  0  0  0
    4.5981    0.5000    0.0000 C   0  0  3  0  0  0  0  0  0  0  0  0
    5.4641    1.0000    0.0000 C   0  0  3  0  0  0  0  0  0  0  0  0
    4.5981   -0.5000    0.0000 C   0  0  3  0  0  0  0  0  0  0  0  0
    6.3301    0.5000    0.0000 C   0  0  3  0  0  0  0  0  0  0  0  0
    3.7320   -1.0000    0.0000 C   0  0  0  0  0  0  0  0  0  0  0  0
    6.3301   -0.5000    0.0000 C   0  0  0  0  0  0  0  0  0  0  0  0
    2.0000    0.0000    0.0000 C   0  0  0  0  0  0  0  0  0  0  0  0
    2.3660    1.3660    0.0000 C   0  0  0  0  0  0  0  0  0  0  0  0
    3.3660   -0.3660    0.0000 C   0  0  0  0  0  0  0  0  0  0  0  0
    7.1962    3.0000    0.0000 C   0  0  0  0  0  0  0  0  0  0  0  0
    5.8301    3.3660    0.0000 C   0  0  0  0  0  0  0  0  0  0  0  0
    6.8301    1.6340    0.0000 C   0  0  0  0  0  0  0  0  0  0  0  0
    8.9282   -0.0000    0.0000 C   0  0  0  0  0  0  0  0  0  0  0  0
    8.5622    1.3660    0.0000 C   0  0  0  0  0  0  0  0  0  0  0  0
    7.5622   -0.3660    0.0000 C   0  0  0  0  0  0  0  0  0  0  0  0
    2.0000   -3.0000    0.0000 C   0  0  0  0  0  0  0  0  0  0  0  0
    3.3660   -3.3660    0.0000 C   0  0  0  0  0  0  0  0  0  0  0  0
    2.3660   -1.6340    0.0000 C   0  0  0  0  0  0  0  0  0  0  0  0
    4.5981    1.1200    0.0000 H   0  0  0  0  0  0  0  0  0  0  0  0
    6.0010    1.3100    0.0000 H   0  0  0  0  0  0  0  0  0  0  0  0
    4.5981   -1.1200    0.0000 H   0  0  0  0  0  0  0  0  0  0  0  0
    6.8671    0.1900    0.0000 H   0  0  0  0  0  0  0  0  0  0  0  0
    3.5200   -0.4174    0.0000 H   0  0  0  0  0  0  0  0  0  0  0  0
    3.1215   -1.1077    0.0000 H   0  0  0  0  0  0  0  0  0  0  0  0
    1.6900    0.5369    0.0000 H   0  0  0  0  0  0  0  0  0  0  0  0
    1.4631   -0.3100    0.0000 H   0  0  0  0  0  0  0  0  0  0  0  0
    2.3100   -0.5369    0.0000 H   0  0  0  0  0  0  0  0  0  0  0  0
    2.9030    1.6760    0.0000 H   0  0  0  0  0  0  0  0  0  0  0  0
    2.0560    1.9030    0.0000 H   0  0  0  0  0  0  0  0  0  0  0  0
    1.8291    1.0560    0.0000 H   0  0  0  0  0  0  0  0  0  0  0  0
    2.8291   -0.6760    0.0000 H   0  0  0  0  0  0  0  0  0  0  0  0
    3.6760   -0.9030    0.0000 H   0  0  0  0  0  0  0  0  0  0  0  0
    3.9030   -0.0560    0.0000 H   0  0  0  0  0  0  0  0  0  0  0  0
    7.5062    2.4631    0.0000 H   0  0  0  0  0  0  0  0  0  0  0  0
    7.7331    3.3100    0.0000 H   0  0  0  0  0  0  0  0  0  0  0  0
    6.8862    3.5369    0.0000 H   0  0  0  0  0  0  0  0  0  0  0  0
    6.3671    3.6760    0.0000 H   0  0  0  0  0  0  0  0  0  0  0  0
    5.5201    3.9030    0.0000 H   0  0  0  0  0  0  0  0  0  0  0  0
    5.2932    3.0560    0.0000 H   0  0  0  0  0  0  0  0  0  0  0  0
    6.2932    1.3240    0.0000 H   0  0  0  0  0  0  0  0  0  0  0  0
    7.1401    1.0970    0.0000 H   0  0  0  0  0  0  0  0  0  0  0  0
    7.3671    1.9440    0.0000 H   0  0  0  0  0  0  0  0  0  0  0  0
    8.6182   -0.5369    0.0000 H   0  0  0  0  0  0  0  0  0  0  0  0
    9.4651   -0.3100    0.0000 H   0  0  0  0  0  0  0  0  0  0  0  0
    9.2382    0.5369    0.0000 H   0  0  0  0  0  0  0  0  0  0  0  0
    9.0991    1.0560    0.0000 H   0  0  0  0  0  0  0  0  0  0  0  0
    8.8722    1.9030    0.0000 H   0  0  0  0  0  0  0  0  0  0  0  0
    8.0252    1.6760    0.0000 H   0  0  0  0  0  0  0  0  0  0  0  0
    7.0252   -0.0560    0.0000 H   0  0  0  0  0  0  0  0  0  0  0  0
    7.2522   -0.9030    0.0000 H   0  0  0  0  0  0  0  0  0  0  0  0
    8.0991   -0.6760    0.0000 H   0  0  0  0  0  0  0  0  0  0  0  0
    1.6900   -2.4631    0.0000 H   0  0  0  0  0  0  0  0  0  0  0  0
    1.4631   -3.3100    0.0000 H   0  0  0  0  0  0  0  0  0  0  0  0
    2.3100   -3.5369    0.0000 H   0  0  0  0  0  0  0  0  0  0  0  0
    2.8291   -3.6760    0.0000 H   0  0  0  0  0  0  0  0  0  0  0  0
    3.6760   -3.9030    0.0000 H   0  0  0  0  0  0  0  0  0  0  0  0
    3.9030   -3.0560    0.0000 H   0  0  0  0  0  0  0  0  0  0  0  0
    2.9030   -1.3240    0.0000 H   0  0  0  0  0  0  0  0  0  0  0  0
    2.0560   -1.0970    0.0000 H   0  0  0  0  0  0  0  0  0  0  0  0
    1.8291   -1.9440    0.0000 H   0  0  0  0  0  0  0  0  0  0  0  0
  1  5  1  0  0  0  0
  1 17  1  0  0  0  0
  1 18  1  0  0  0  0
  1 19  1  0  0  0  0
  2  6  1  0  0  0  0
  2 20  1  0  0  0  0
  2 21  1  0  0  0  0
  2 22  1  0  0  0  0
  3  8  1  0  0  0  0
  3 23  1  0  0  0  0
  3 24  1  0  0  0  0
  3 25  1  0  0  0  0
  4  9  1  0  0  0  0
  4 26  1  0  0  0  0
  4 27  1  0  0  0  0
  4 28  1  0  0  0  0
  5 11  1  0  0  0  0
  6 12  1  0  0  0  0
  7 13  1  0  0  0  0
  7 16  1  0  0  0  0
  8 14  1  0  0  0  0
  9 15  1  0  0  0  0
 10 16  2  0  0  0  0
 11 12  1  0  0  0  0
 11 13  1  0  0  0  0
 11 29  1  0  0  0  0
 12 14  1  0  0  0  0
 12 30  1  0  0  0  0
 13 15  1  0  0  0  0
 13 31  1  0  0  0  0
 14 16  1  0  0  0  0
 14 32  1  0  0  0  0
 15 33  1  0  0  0  0
 15 34  1  0  0  0  0
 17 35  1  0  0  0  0
 17 36  1  0  0  0  0
 17 37  1  0  0  0  0
 18 38  1  0  0  0  0
 18 39  1  0  0  0  0
 18 40  1  0  0  0  0
 19 41  1  0  0  0  0
 19 42  1  0  0  0  0
 19 43  1  0  0  0  0
 20 44  1  0  0  0  0
 20 45  1  0  0  0  0
 20 46  1  0  0  0  0
 21 47  1  0  0  0  0
 21 48  1  0  0  0  0
 21 49  1  0  0  0  0
 22 50  1  0  0  0  0
 22 51  1  0  0  0  0
 22 52  1  0  0  0  0
 23 53  1  0  0  0  0
 23 54  1  0  0  0  0
 23 55  1  0  0  0  0
 24 56  1  0  0  0  0
 24 57  1  0  0  0  0
 24 58  1  0  0  0  0
 25 59  1  0  0  0  0
 25 60  1  0  0  0  0
 25 61  1  0  0  0  0
 26 62  1  0  0  0  0
 26 63  1  0  0  0  0
 26 64  1  0  0  0  0
 27 65  1  0  0  0  0
 27 66  1  0  0  0  0
 27 67  1  0  0  0  0
 28 68  1  0  0  0  0
 28 69  1  0  0  0  0
 28 70  1  0  0  0  0
M  END
> <PUBCHEM_COMPOUND_CID>
523407
> <PUBCHEM_COMPOUND_CANONICALIZED>
1
> <PUBCHEM_CACTVS_COMPLEXITY>
530
> <PUBCHEM_CACTVS_HBOND_ACCEPTOR>
6
> <PUBCHEM_CACTVS_HBOND_DONOR>
0
> <PUBCHEM_CACTVS_ROTATABLE_BOND>
9
> <PUBCHEM_CACTVS_SUBSKEYS>
AAADcfB4OAwAAAAAAAAAAAAAAAAAAAAAAAAkAAAAAAAAAAAAAAAAGhAAAEAACBSggAJCCAAABAEIAACQCAIAAAAAAAAAAAFAAAABABYAAAACAAAFIAACAAHKbARAAAAAAAAAAAAAAAAAAAAAAAAAAAAAAA==
> <PUBCHEM_IUPAC_OPENEYE_NAME>
3,4,5-tris(trimethylsilyloxy)-6-(trimethylsilyloxymethyl)tetrahydropyran-2-one
> <PUBCHEM_IUPAC_CAS_NAME>
3,4,5-tris(trimethylsilyloxy)-6-(trimethylsilyloxymethyl)-2-oxanone
> <PUBCHEM_IUPAC_NAME_MARKUP>
3,4,5-tris(trimethylsilyloxy)-6-(trimethylsilyloxymethyl)oxan-2-one
> <PUBCHEM_IUPAC_NAME>
3,4,5-tris(trimethylsilyloxy)-6-(trimethylsilyloxymethyl)oxan-2-one
> <PUBCHEM_IUPAC_SYSTEMATIC_NAME>
3,4,5-tris(trimethylsilyloxy)-6-(trimethylsilyloxymethyl)oxan-2-one
> <PUBCHEM_IUPAC_TRADITIONAL_NAME>
3,4,5-tris(trimethylsilyloxy)-6-(trimethylsilyloxymethyl)tetrahydropyran-2-one
> <PUBCHEM_IUPAC_INCHI>
InChI=1S/C18H42O6Si4/c1-25(2,3)20-13-14-15(22-26(4,5)6)16(23-27(7,8)9)17(18(19)21-14)24-28(10,11)12/h14-17H,13H2,1-12H3
> <PUBCHEM_IUPAC_INCHIKEY>
VNGTZLYNGGLPIZ-UHFFFAOYSA-N
> <PUBCHEM_EXACT_MASS>
466.20584519
> <PUBCHEM_MOLECULAR_FORMULA>
C18H42O6Si4
> <PUBCHEM_MOLECULAR_WEIGHT>
466.9
> <PUBCHEM_OPENEYE_CAN_SMILES>
C[Si](C)(C)OCC1C(C(C(C(=O)O1)O[Si](C)(C)C)O[Si](C)(C)C)O[Si](C)(C)C
> <PUBCHEM_OPENEYE_ISO_SMILES>
C[Si](C)(C)OCC1C(C(C(C(=O)O1)O[Si](C)(C)C)O[Si](C)(C)C)O[Si](C)(C)C
> <PUBCHEM_CACTVS_TPSA>
63.2
> <PUBCHEM_MONOISOTOPIC_WEIGHT>
466.20584519
> <PUBCHEM_TOTAL_CHARGE>
0
> <PUBCHEM_HEAVY_ATOM_COUNT>
28
> <PUBCHEM_ATOM_DEF_STEREO_COUNT>
0
> <PUBCHEM_ATOM_UDEF_STEREO_COUNT>
4
> <PUBCHEM_BOND_DEF_STEREO_COUNT>
0
> <PUBCHEM_BOND_UDEF_STEREO_COUNT>
0
> <PUBCHEM_ISOTOPIC_ATOM_COUNT>
0
> <PUBCHEM_COMPONENT_COUNT>
1
> <PUBCHEM_CACTVS_TAUTO_COUNT>
-1
> <PUBCHEM_COORDINATE_TYPE>
1
5
255
> <PUBCHEM_BONDANNOTATIONS>
13  15  3
11  5  3
12  6  3
14  8  3
$$$$
