523502
  -OEChem-10302200292D
 27 26  0     1  0  0  0  0  0999 V2000
    4.9641    0.9821    0.0000 O   0  0  0  0  0  0  0  0  0  0  0  0
    7.1962    0.1160    0.0000 O   0  0  0  0  0  0  0  0  0  0  0  0
    2.8660   -0.3840    0.0000 O   0  0  0  0  0  0  0  0  0  0  0  0
    6.3301    1.6160    0.0000 O   0  0  0  0  0  0  0  0  0  0  0  0
    3.7320    1.1160    0.0000 O   0  0  0  0  0  0  0  0  0  0  0  0
    5.4641    0.1160    0.0000 C   0  0  3  0  0  0  0  0  0  0  0  0
    5.9641   -0.7500    0.0000 C   0  0  0  0  0  0  0  0  0  0  0  0
    4.5981   -0.3840    0.0000 C   0  0  0  0  0  0  0  0  0  0  0  0
    6.3301    0.6160    0.0000 C   0  0  0  0  0  0  0  0  0  0  0  0
    5.4641   -1.6160    0.0000 C   0  0  0  0  0  0  0  0  0  0  0  0
    3.7320    0.1160    0.0000 C   0  0  0  0  0  0  0  0  0  0  0  0
    8.0622    0.6160    0.0000 C   0  0  0  0  0  0  0  0  0  0  0  0
    2.0000    0.1160    0.0000 C   0  0  0  0  0  0  0  0  0  0  0  0
    6.4390   -1.1485    0.0000 H   0  0  0  0  0  0  0  0  0  0  0  0
    6.4390   -0.3515    0.0000 H   0  0  0  0  0  0  0  0  0  0  0  0
    4.1996   -0.8589    0.0000 H   0  0  0  0  0  0  0  0  0  0  0  0
    4.9966   -0.8589    0.0000 H   0  0  0  0  0  0  0  0  0  0  0  0
    4.9272   -1.3060    0.0000 H   0  0  0  0  0  0  0  0  0  0  0  0
    5.1541   -2.1530    0.0000 H   0  0  0  0  0  0  0  0  0  0  0  0
    6.0010   -1.9260    0.0000 H   0  0  0  0  0  0  0  0  0  0  0  0
    4.3441    0.9821    0.0000 H   0  0  0  0  0  0  0  0  0  0  0  0
    8.3722    0.0791    0.0000 H   0  0  0  0  0  0  0  0  0  0  0  0
    8.5991    0.9260    0.0000 H   0  0  0  0  0  0  0  0  0  0  0  0
    7.7522    1.1530    0.0000 H   0  0  0  0  0  0  0  0  0  0  0  0
    2.3100    0.6530    0.0000 H   0  0  0  0  0  0  0  0  0  0  0  0
    1.4631    0.4260    0.0000 H   0  0  0  0  0  0  0  0  0  0  0  0
    1.6900   -0.4209    0.0000 H   0  0  0  0  0  0  0  0  0  0  0  0
  1  6  1  0  0  0  0
  1 21  1  0  0  0  0
  2  9  1  0  0  0  0
  2 12  1  0  0  0  0
  3 11  1  0  0  0  0
  3 13  1  0  0  0  0
  4  9  2  0  0  0  0
  5 11  2  0  0  0  0
  6  7  1  0  0  0  0
  6  8  1  0  0  0  0
  6  9  1  0  0  0  0
  7 10  1  0  0  0  0
  7 14  1  0  0  0  0
  7 15  1  0  0  0  0
  8 11  1  0  0  0  0
  8 16  1  0  0  0  0
  8 17  1  0  0  0  0
 10 18  1  0  0  0  0
 10 19  1  0  0  0  0
 10 20  1  0  0  0  0
 12 22  1  0  0  0  0
 12 23  1  0  0  0  0
 12 24  1  0  0  0  0
 13 25  1  0  0  0  0
 13 26  1  0  0  0  0
 13 27  1  0  0  0  0
M  END
> <PUBCHEM_COMPOUND_CID>
523502
> <PUBCHEM_COMPOUND_CANONICALIZED>
1
> <PUBCHEM_CACTVS_COMPLEXITY>
201
> <PUBCHEM_CACTVS_HBOND_ACCEPTOR>
5
> <PUBCHEM_CACTVS_HBOND_DONOR>
1
> <PUBCHEM_CACTVS_ROTATABLE_BOND>
6
> <PUBCHEM_CACTVS_SUBSKEYS>
AAADccBwOAAAAAAAAAAAAAAAAAAAAAAAAAAAAAAAAAAAAAAAAAAAGgAACAAADESAgAICCAAABgAIAACQCAIAAAAAAAAAAAFAAAABABYAAAAAQAAFIAADAADLAAAKAAAAAAAAAAAAAAAAAAAAAAAAAAAAAA==
> <PUBCHEM_IUPAC_OPENEYE_NAME>
dimethyl 2-ethyl-2-hydroxy-butanedioate
> <PUBCHEM_IUPAC_CAS_NAME>
2-ethyl-2-hydroxybutanedioic acid dimethyl ester
> <PUBCHEM_IUPAC_NAME_MARKUP>
dimethyl 2-ethyl-2-hydroxybutanedioate
> <PUBCHEM_IUPAC_NAME>
dimethyl 2-ethyl-2-hydroxybutanedioate
> <PUBCHEM_IUPAC_SYSTEMATIC_NAME>
dimethyl 2-ethyl-2-oxidanyl-butanedioate
> <PUBCHEM_IUPAC_TRADITIONAL_NAME>
2-ethyl-2-hydroxy-succinic acid dimethyl ester
> <PUBCHEM_IUPAC_INCHI>
InChI=1S/C8H14O5/c1-4-8(11,7(10)13-3)5-6(9)12-2/h11H,4-5H2,1-3H3
> <PUBCHEM_IUPAC_INCHIKEY>
AHVQMKGBZAIWQZ-UHFFFAOYSA-N
> <PUBCHEM_XLOGP3_AA>
0
> <PUBCHEM_EXACT_MASS>
190.08412354
> <PUBCHEM_MOLECULAR_FORMULA>
C8H14O5
> <PUBCHEM_MOLECULAR_WEIGHT>
190.19
> <PUBCHEM_OPENEYE_CAN_SMILES>
CCC(CC(=O)OC)(C(=O)OC)O
> <PUBCHEM_OPENEYE_ISO_SMILES>
CCC(CC(=O)OC)(C(=O)OC)O
> <PUBCHEM_CACTVS_TPSA>
72.8
> <PUBCHEM_MONOISOTOPIC_WEIGHT>
190.08412354
> <PUBCHEM_TOTAL_CHARGE>
0
> <PUBCHEM_HEAVY_ATOM_COUNT>
13
> <PUBCHEM_ATOM_DEF_STEREO_COUNT>
0
> <PUBCHEM_ATOM_UDEF_STEREO_COUNT>
1
> <PUBCHEM_BOND_DEF_STEREO_COUNT>
0
> <PUBCHEM_BOND_UDEF_STEREO_COUNT>
0
> <PUBCHEM_ISOTOPIC_ATOM_COUNT>
0
> <PUBCHEM_COMPONENT_COUNT>
1
> <PUBCHEM_CACTVS_TAUTO_COUNT>
-1
> <PUBCHEM_COORDINATE_TYPE>
1
5
255
> <PUBCHEM_BONDANNOTATIONS>
6  1  3
$$$$
