523582
  -OEChem-10302200292D
 34 36  0     1  0  0  0  0  0999 V2000
    8.1962    1.0241    0.0000 O   0  0  0  0  0  0  0  0  0  0  0  0
    9.0680   -0.4725    0.0000 O   0  0  0  0  0  0  0  0  0  0  0  0
    7.3321    0.5208    0.0000 C   0  0  3  0  0  0  0  0  0  0  0  0
    7.3321   -0.5208    0.0000 C   0  0  0  0  0  0  0  0  0  0  0  0
    6.4260    1.0347    0.0000 C   0  0  0  0  0  0  0  0  0  0  0  0
    6.4260   -1.0347    0.0000 C   0  0  0  0  0  0  0  0  0  0  0  0
    5.5321    0.5000    0.0000 C   0  0  0  0  0  0  0  0  0  0  0  0
    5.5321   -0.5000    0.0000 C   0  0  0  0  0  0  0  0  0  0  0  0
    4.6660    1.0000    0.0000 C   0  0  0  0  0  0  0  0  0  0  0  0
    4.6660   -1.0000    0.0000 C   0  0  0  0  0  0  0  0  0  0  0  0
    3.8000    0.5000    0.0000 C   0  0  0  0  0  0  0  0  0  0  0  0
    3.8000   -0.5000    0.0000 C   0  0  0  0  0  0  0  0  0  0  0  0
    2.9061    1.0347    0.0000 C   0  0  0  0  0  0  0  0  0  0  0  0
    2.9061   -1.0347    0.0000 C   0  0  0  0  0  0  0  0  0  0  0  0
    9.0641    0.5275    0.0000 C   0  0  0  0  0  0  0  0  0  0  0  0
    2.0000    0.5208    0.0000 C   0  0  0  0  0  0  0  0  0  0  0  0
    2.0000   -0.5208    0.0000 C   0  0  0  0  0  0  0  0  0  0  0  0
    9.9282    1.0308    0.0000 C   0  0  0  0  0  0  0  0  0  0  0  0
    7.3285    1.1408    0.0000 H   0  0  0  0  0  0  0  0  0  0  0  0
    7.5411   -1.1045    0.0000 H   0  0  0  0  0  0  0  0  0  0  0  0
    7.9429   -0.4147    0.0000 H   0  0  0  0  0  0  0  0  0  0  0  0
    6.8196    1.5137    0.0000 H   0  0  0  0  0  0  0  0  0  0  0  0
    6.0214    1.5044    0.0000 H   0  0  0  0  0  0  0  0  0  0  0  0
    6.0214   -1.5044    0.0000 H   0  0  0  0  0  0  0  0  0  0  0  0
    6.8196   -1.5137    0.0000 H   0  0  0  0  0  0  0  0  0  0  0  0
    4.6660    1.6200    0.0000 H   0  0  0  0  0  0  0  0  0  0  0  0
    4.6660   -1.6200    0.0000 H   0  0  0  0  0  0  0  0  0  0  0  0
    2.9132    1.6546    0.0000 H   0  0  0  0  0  0  0  0  0  0  0  0
    2.9132   -1.6546    0.0000 H   0  0  0  0  0  0  0  0  0  0  0  0
    1.4643    0.8329    0.0000 H   0  0  0  0  0  0  0  0  0  0  0  0
    1.4643   -0.8329    0.0000 H   0  0  0  0  0  0  0  0  0  0  0  0
   10.2403    0.4951    0.0000 H   0  0  0  0  0  0  0  0  0  0  0  0
   10.4639    1.3429    0.0000 H   0  0  0  0  0  0  0  0  0  0  0  0
    9.6161    1.5666    0.0000 H   0  0  0  0  0  0  0  0  0  0  0  0
  1  3  1  0  0  0  0
  1 15  1  0  0  0  0
  2 15  2  0  0  0  0
  3  4  1  0  0  0  0
  3  5  1  0  0  0  0
  3 19  1  0  0  0  0
  4  6  1  0  0  0  0
  4 20  1  0  0  0  0
  4 21  1  0  0  0  0
  5  7  1  0  0  0  0
  5 22  1  0  0  0  0
  5 23  1  0  0  0  0
  6  8  1  0  0  0  0
  6 24  1  0  0  0  0
  6 25  1  0  0  0  0
  7  8  1  0  0  0  0
  7  9  2  0  0  0  0
  8 10  2  0  0  0  0
  9 11  1  0  0  0  0
  9 26  1  0  0  0  0
 10 12  1  0  0  0  0
 10 27  1  0  0  0  0
 11 12  1  0  0  0  0
 11 13  2  0  0  0  0
 12 14  2  0  0  0  0
 13 16  1  0  0  0  0
 13 28  1  0  0  0  0
 14 17  1  0  0  0  0
 14 29  1  0  0  0  0
 15 18  1  0  0  0  0
 16 17  2  0  0  0  0
 16 30  1  0  0  0  0
 17 31  1  0  0  0  0
 18 32  1  0  0  0  0
 18 33  1  0  0  0  0
 18 34  1  0  0  0  0
M  END
> <PUBCHEM_COMPOUND_CID>
523582
> <PUBCHEM_COMPOUND_CANONICALIZED>
1
> <PUBCHEM_CACTVS_COMPLEXITY>
312
> <PUBCHEM_CACTVS_HBOND_ACCEPTOR>
2
> <PUBCHEM_CACTVS_HBOND_DONOR>
0
> <PUBCHEM_CACTVS_ROTATABLE_BOND>
2
> <PUBCHEM_CACTVS_SUBSKEYS>
AAADceB4MAAAAAAAAAAAAAAAAAAAAAAAAAAwYMAAAAAAAADBUAAAGgAAAAAADBSgmAIyCMAABACIAiDSCAACAAAgAAAIiAAAAIgIICKAERCCIAAkwAEIiAeAwPAOwAACAAAQAADAAAYAACAAAAAAAAAAAA==
> <PUBCHEM_IUPAC_OPENEYE_NAME>
1,2,3,4-tetrahydroanthracen-2-yl acetate
> <PUBCHEM_IUPAC_CAS_NAME>
acetic acid 1,2,3,4-tetrahydroanthracen-2-yl ester
> <PUBCHEM_IUPAC_NAME_MARKUP>
1,2,3,4-tetrahydroanthracen-2-yl acetate
> <PUBCHEM_IUPAC_NAME>
1,2,3,4-tetrahydroanthracen-2-yl acetate
> <PUBCHEM_IUPAC_SYSTEMATIC_NAME>
1,2,3,4-tetrahydroanthracen-2-yl ethanoate
> <PUBCHEM_IUPAC_TRADITIONAL_NAME>
acetic acid 1,2,3,4-tetrahydroanthracen-2-yl ester
> <PUBCHEM_IUPAC_INCHI>
InChI=1S/C16H16O2/c1-11(17)18-16-7-6-14-8-12-4-2-3-5-13(12)9-15(14)10-16/h2-5,8-9,16H,6-7,10H2,1H3
> <PUBCHEM_IUPAC_INCHIKEY>
RNEGEEQZZDNBKA-UHFFFAOYSA-N
> <PUBCHEM_XLOGP3_AA>
3.8
> <PUBCHEM_EXACT_MASS>
240.115029749
> <PUBCHEM_MOLECULAR_FORMULA>
C16H16O2
> <PUBCHEM_MOLECULAR_WEIGHT>
240.30
> <PUBCHEM_OPENEYE_CAN_SMILES>
CC(=O)OC1CCC2=CC3=CC=CC=C3C=C2C1
> <PUBCHEM_OPENEYE_ISO_SMILES>
CC(=O)OC1CCC2=CC3=CC=CC=C3C=C2C1
> <PUBCHEM_CACTVS_TPSA>
26.3
> <PUBCHEM_MONOISOTOPIC_WEIGHT>
240.115029749
> <PUBCHEM_TOTAL_CHARGE>
0
> <PUBCHEM_HEAVY_ATOM_COUNT>
18
> <PUBCHEM_ATOM_DEF_STEREO_COUNT>
0
> <PUBCHEM_ATOM_UDEF_STEREO_COUNT>
1
> <PUBCHEM_BOND_DEF_STEREO_COUNT>
0
> <PUBCHEM_BOND_UDEF_STEREO_COUNT>
0
> <PUBCHEM_ISOTOPIC_ATOM_COUNT>
0
> <PUBCHEM_COMPONENT_COUNT>
1
> <PUBCHEM_CACTVS_TAUTO_COUNT>
-1
> <PUBCHEM_COORDINATE_TYPE>
1
5
255
> <PUBCHEM_BONDANNOTATIONS>
3  1  3
10  12  8
11  12  8
11  13  8
12  14  8
13  16  8
14  17  8
16  17  8
7  8  8
7  9  8
8  10  8
9  11  8
$$$$
