523568
  -OEChem-10302200292D
 87 90  0     1  0  0  0  0  0999 V2000
   11.3567    1.9480    0.0000 Si  0  0  0  0  0  0  0  0  0  0  0  0
   12.1511   -0.8795    0.0000 Si  0  0  0  0  0  0  0  0  0  0  0  0
    2.8641   -2.0624    0.0000 Si  0  0  0  0  0  0  0  0  0  0  0  0
   10.3781    1.7418    0.0000 O   0  0  0  0  0  0  0  0  0  0  0  0
   11.6511   -0.0134    0.0000 O   0  0  0  0  0  0  0  0  0  0  0  0
    6.5232    0.9866    0.0000 O   0  0  0  0  0  0  0  0  0  0  0  0
    3.7282   -2.5658    0.0000 O   0  0  0  0  0  0  0  0  0  0  0  0
    9.1213   -0.5134    0.0000 C   0  0  3  0  0  0  0  0  0  0  0  0
    9.1213    0.4866    0.0000 C   0  0  3  0  0  0  0  0  0  0  0  0
    8.2552   -1.0134    0.0000 C   0  0  3  0  0  0  0  0  0  0  0  0
    7.3892   -0.5134    0.0000 C   0  0  3  0  0  0  0  0  0  0  0  0
   10.0675    0.7913    0.0000 C   0  0  3  0  0  0  0  0  0  0  0  0
    6.4792   -1.0203    0.0000 C   0  0  3  0  0  0  0  0  0  0  0  0
   10.0675   -0.8182    0.0000 C   0  0  0  0  0  0  0  0  0  0  0  0
    8.2552    0.9866    0.0000 C   0  0  0  0  0  0  0  0  0  0  0  0
   10.6511   -0.0134    0.0000 C   0  0  3  0  0  0  0  0  0  0  0  0
    7.3892    0.4866    0.0000 C   0  0  0  0  0  0  0  0  0  0  0  0
    8.2713   -2.0550    0.0000 C   0  0  0  0  0  0  0  0  0  0  0  0
    6.4712   -2.0619    0.0000 C   0  0  0  0  0  0  0  0  0  0  0  0
    9.1213    1.4866    0.0000 C   0  0  0  0  0  0  0  0  0  0  0  0
    5.5524   -0.4562    0.0000 C   0  0  0  0  0  0  0  0  0  0  0  0
    7.3733   -2.5827    0.0000 C   0  0  0  0  0  0  0  0  0  0  0  0
    6.4869   -0.0203    0.0000 C   0  0  0  0  0  0  0  0  0  0  0  0
    5.5358   -2.6116    0.0000 C   0  0  0  0  0  0  0  0  0  0  0  0
    4.6045   -0.9842    0.0000 C   0  0  0  0  0  0  0  0  0  0  0  0
    4.5961   -2.0691    0.0000 C   0  0  3  0  0  0  0  0  0  0  0  0
   12.3352    2.1543    0.0000 C   0  0  0  0  0  0  0  0  0  0  0  0
   11.1504    2.9265    0.0000 C   0  0  0  0  0  0  0  0  0  0  0  0
   11.5629    0.9695    0.0000 C   0  0  0  0  0  0  0  0  0  0  0  0
   12.6511   -1.7455    0.0000 C   0  0  0  0  0  0  0  0  0  0  0  0
   13.0171   -0.3795    0.0000 C   0  0  0  0  0  0  0  0  0  0  0  0
   11.2851   -1.3795    0.0000 C   0  0  0  0  0  0  0  0  0  0  0  0
    2.0000   -1.5591    0.0000 C   0  0  0  0  0  0  0  0  0  0  0  0
    2.3608   -2.9265    0.0000 C   0  0  0  0  0  0  0  0  0  0  0  0
    3.3674   -1.1984    0.0000 C   0  0  0  0  0  0  0  0  0  0  0  0
    9.1869   -1.1300    0.0000 H   0  0  0  0  0  0  0  0  0  0  0  0
    8.7945   -1.3193    0.0000 H   0  0  0  0  0  0  0  0  0  0  0  0
    7.9262   -0.2034    0.0000 H   0  0  0  0  0  0  0  0  0  0  0  0
   10.6800    0.8875    0.0000 H   0  0  0  0  0  0  0  0  0  0  0  0
    9.8164   -1.3851    0.0000 H   0  0  0  0  0  0  0  0  0  0  0  0
   10.6049   -1.1274    0.0000 H   0  0  0  0  0  0  0  0  0  0  0  0
    8.6538    1.4615    0.0000 H   0  0  0  0  0  0  0  0  0  0  0  0
    7.8567    1.4615    0.0000 H   0  0  0  0  0  0  0  0  0  0  0  0
   10.9328    0.5389    0.0000 H   0  0  0  0  0  0  0  0  0  0  0  0
    8.4893   -2.6354    0.0000 H   0  0  0  0  0  0  0  0  0  0  0  0
    8.8804   -1.9394    0.0000 H   0  0  0  0  0  0  0  0  0  0  0  0
    9.7413    1.4866    0.0000 H   0  0  0  0  0  0  0  0  0  0  0  0
    9.1213    2.1066    0.0000 H   0  0  0  0  0  0  0  0  0  0  0  0
    8.5013    1.4866    0.0000 H   0  0  0  0  0  0  0  0  0  0  0  0
    5.9606    0.0104    0.0000 H   0  0  0  0  0  0  0  0  0  0  0  0
    5.1625    0.0258    0.0000 H   0  0  0  0  0  0  0  0  0  0  0  0
    7.3756   -3.2027    0.0000 H   0  0  0  0  0  0  0  0  0  0  0  0
    7.1069   -0.0251    0.0000 H   0  0  0  0  0  0  0  0  0  0  0  0
    6.4917    0.5997    0.0000 H   0  0  0  0  0  0  0  0  0  0  0  0
    5.8669   -0.0155    0.0000 H   0  0  0  0  0  0  0  0  0  0  0  0
    5.1385   -3.0876    0.0000 H   0  0  0  0  0  0  0  0  0  0  0  0
    5.9367   -3.0845    0.0000 H   0  0  0  0  0  0  0  0  0  0  0  0
    4.3999   -0.3989    0.0000 H   0  0  0  0  0  0  0  0  0  0  0  0
    3.9928   -1.0855    0.0000 H   0  0  0  0  0  0  0  0  0  0  0  0
    4.5949   -2.6891    0.0000 H   0  0  0  0  0  0  0  0  0  0  0  0
   12.4630    1.5476    0.0000 H   0  0  0  0  0  0  0  0  0  0  0  0
   12.9418    2.2821    0.0000 H   0  0  0  0  0  0  0  0  0  0  0  0
   12.2073    2.7609    0.0000 H   0  0  0  0  0  0  0  0  0  0  0  0
   11.7571    3.0544    0.0000 H   0  0  0  0  0  0  0  0  0  0  0  0
   11.0226    3.5332    0.0000 H   0  0  0  0  0  0  0  0  0  0  0  0
   10.5438    2.7987    0.0000 H   0  0  0  0  0  0  0  0  0  0  0  0
   10.9562    0.8417    0.0000 H   0  0  0  0  0  0  0  0  0  0  0  0
   11.6907    0.3628    0.0000 H   0  0  0  0  0  0  0  0  0  0  0  0
   12.1695    1.0974    0.0000 H   0  0  0  0  0  0  0  0  0  0  0  0
   12.1142   -2.0555    0.0000 H   0  0  0  0  0  0  0  0  0  0  0  0
   12.9611   -2.2824    0.0000 H   0  0  0  0  0  0  0  0  0  0  0  0
   13.1880   -1.4355    0.0000 H   0  0  0  0  0  0  0  0  0  0  0  0
   13.3271   -0.9164    0.0000 H   0  0  0  0  0  0  0  0  0  0  0  0
   13.5541   -0.0695    0.0000 H   0  0  0  0  0  0  0  0  0  0  0  0
   12.7071    0.1575    0.0000 H   0  0  0  0  0  0  0  0  0  0  0  0
   10.9751   -0.8425    0.0000 H   0  0  0  0  0  0  0  0  0  0  0  0
   10.7481   -1.6895    0.0000 H   0  0  0  0  0  0  0  0  0  0  0  0
   11.5951   -1.9164    0.0000 H   0  0  0  0  0  0  0  0  0  0  0  0
    2.3121   -1.0234    0.0000 H   0  0  0  0  0  0  0  0  0  0  0  0
    1.4643   -1.2470    0.0000 H   0  0  0  0  0  0  0  0  0  0  0  0
    1.6879   -2.0948    0.0000 H   0  0  0  0  0  0  0  0  0  0  0  0
    1.8250   -2.6145    0.0000 H   0  0  0  0  0  0  0  0  0  0  0  0
    2.0487   -3.4623    0.0000 H   0  0  0  0  0  0  0  0  0  0  0  0
    2.8965   -3.2386    0.0000 H   0  0  0  0  0  0  0  0  0  0  0  0
    3.9032   -1.5104    0.0000 H   0  0  0  0  0  0  0  0  0  0  0  0
    3.6795   -0.6626    0.0000 H   0  0  0  0  0  0  0  0  0  0  0  0
    2.8317   -0.8863    0.0000 H   0  0  0  0  0  0  0  0  0  0  0  0
  1  4  1  0  0  0  0
  1 27  1  0  0  0  0
  1 28  1  0  0  0  0
  1 29  1  0  0  0  0
  2  5  1  0  0  0  0
  2 30  1  0  0  0  0
  2 31  1  0  0  0  0
  2 32  1  0  0  0  0
  3  7  1  0  0  0  0
  3 33  1  0  0  0  0
  3 34  1  0  0  0  0
  3 35  1  0  0  0  0
  4 12  1  0  0  0  0
  5 16  1  0  0  0  0
  6 17  2  0  0  0  0
  7 26  1  0  0  0  0
  8  9  1  0  0  0  0
  8 10  1  0  0  0  0
  8 14  1  0  0  0  0
  8 36  1  0  0  0  0
  9 12  1  0  0  0  0
  9 15  1  0  0  0  0
  9 20  1  0  0  0  0
 10 11  1  0  0  0  0
 10 18  1  0  0  0  0
 10 37  1  0  0  0  0
 11 13  1  0  0  0  0
 11 17  1  0  0  0  0
 11 38  1  0  0  0  0
 12 16  1  0  0  0  0
 12 39  1  0  0  0  0
 13 19  1  0  0  0  0
 13 21  1  0  0  0  0
 13 23  1  0  0  0  0
 14 16  1  0  0  0  0
 14 40  1  0  0  0  0
 14 41  1  0  0  0  0
 15 17  1  0  0  0  0
 15 42  1  0  0  0  0
 15 43  1  0  0  0  0
 16 44  1  0  0  0  0
 18 22  1  0  0  0  0
 18 45  1  0  0  0  0
 18 46  1  0  0  0  0
 19 22  2  0  0  0  0
 19 24  1  0  0  0  0
 20 47  1  0  0  0  0
 20 48  1  0  0  0  0
 20 49  1  0  0  0  0
 21 25  1  0  0  0  0
 21 50  1  0  0  0  0
 21 51  1  0  0  0  0
 22 52  1  0  0  0  0
 23 53  1  0  0  0  0
 23 54  1  0  0  0  0
 23 55  1  0  0  0  0
 24 26  1  0  0  0  0
 24 56  1  0  0  0  0
 24 57  1  0  0  0  0
 25 26  1  0  0  0  0
 25 58  1  0  0  0  0
 25 59  1  0  0  0  0
 26 60  1  0  0  0  0
 27 61  1  0  0  0  0
 27 62  1  0  0  0  0
 27 63  1  0  0  0  0
 28 64  1  0  0  0  0
 28 65  1  0  0  0  0
 28 66  1  0  0  0  0
 29 67  1  0  0  0  0
 29 68  1  0  0  0  0
 29 69  1  0  0  0  0
 30 70  1  0  0  0  0
 30 71  1  0  0  0  0
 30 72  1  0  0  0  0
 31 73  1  0  0  0  0
 31 74  1  0  0  0  0
 31 75  1  0  0  0  0
 32 76  1  0  0  0  0
 32 77  1  0  0  0  0
 32 78  1  0  0  0  0
 33 79  1  0  0  0  0
 33 80  1  0  0  0  0
 33 81  1  0  0  0  0
 34 82  1  0  0  0  0
 34 83  1  0  0  0  0
 34 84  1  0  0  0  0
 35 85  1  0  0  0  0
 35 86  1  0  0  0  0
 35 87  1  0  0  0  0
M  END
> <PUBCHEM_COMPOUND_CID>
523568
> <PUBCHEM_COMPOUND_CANONICALIZED>
1
> <PUBCHEM_CACTVS_COMPLEXITY>
867
> <PUBCHEM_CACTVS_HBOND_ACCEPTOR>
4
> <PUBCHEM_CACTVS_HBOND_DONOR>
0
> <PUBCHEM_CACTVS_ROTATABLE_BOND>
6
> <PUBCHEM_CACTVS_SUBSKEYS>
AAADcfB4OAwAAAAAAAAAAAAAAAAAAYAAAAAwYIAAAAAAAGCAAAAAGhAAAEAADxSggAJCAAAAAAGIAqBSAAAAAAAgAAAACAEAAAgBABIAAQAAAAAEwAAIAAOK7PDPgAAAAAAAAADAAAQAACAAAIAADCAAAA==
> <PUBCHEM_IUPAC_OPENEYE_NAME>
10,13-dimethyl-3,16,17-tris(trimethylsilyloxy)-1,2,3,4,7,8,9,12,14,15,16,17-dodecahydrocyclopenta[a]phenanthren-11-one
> <PUBCHEM_IUPAC_CAS_NAME>
10,13-dimethyl-3,16,17-tris(trimethylsilyloxy)-1,2,3,4,7,8,9,12,14,15,16,17-dodecahydrocyclopenta[a]phenanthren-11-one
> <PUBCHEM_IUPAC_NAME_MARKUP>
10,13-dimethyl-3,16,17-tris(trimethylsilyloxy)-1,2,3,4,7,8,9,12,14,15,16,17-dodecahydrocyclopenta[a]phenanthren-11-one
> <PUBCHEM_IUPAC_NAME>
10,13-dimethyl-3,16,17-tris(trimethylsilyloxy)-1,2,3,4,7,8,9,12,14,15,16,17-dodecahydrocyclopenta[a]phenanthren-11-one
> <PUBCHEM_IUPAC_SYSTEMATIC_NAME>
10,13-dimethyl-3,16,17-tris(trimethylsilyloxy)-1,2,3,4,7,8,9,12,14,15,16,17-dodecahydrocyclopenta[a]phenanthren-11-one
> <PUBCHEM_IUPAC_TRADITIONAL_NAME>
10,13-dimethyl-3,16,17-tris(trimethylsilyloxy)-1,2,3,4,7,8,9,12,14,15,16,17-dodecahydrocyclopenta[a]phenanthren-11-one
> <PUBCHEM_IUPAC_INCHI>
InChI=1S/C28H52O4Si3/c1-27-15-14-20(30-33(3,4)5)16-19(27)12-13-21-22-17-24(31-34(6,7)8)26(32-35(9,10)11)28(22,2)18-23(29)25(21)27/h12,20-22,24-26H,13-18H2,1-11H3
> <PUBCHEM_IUPAC_INCHIKEY>
BYQWGZSZKMWGHT-UHFFFAOYSA-N
> <PUBCHEM_EXACT_MASS>
536.31733974
> <PUBCHEM_MOLECULAR_FORMULA>
C28H52O4Si3
> <PUBCHEM_MOLECULAR_WEIGHT>
537.0
> <PUBCHEM_OPENEYE_CAN_SMILES>
CC12CCC(CC1=CCC3C2C(=O)CC4(C3CC(C4O[Si](C)(C)C)O[Si](C)(C)C)C)O[Si](C)(C)C
> <PUBCHEM_OPENEYE_ISO_SMILES>
CC12CCC(CC1=CCC3C2C(=O)CC4(C3CC(C4O[Si](C)(C)C)O[Si](C)(C)C)C)O[Si](C)(C)C
> <PUBCHEM_CACTVS_TPSA>
44.8
> <PUBCHEM_MONOISOTOPIC_WEIGHT>
536.31733974
> <PUBCHEM_TOTAL_CHARGE>
0
> <PUBCHEM_HEAVY_ATOM_COUNT>
35
> <PUBCHEM_ATOM_DEF_STEREO_COUNT>
0
> <PUBCHEM_ATOM_UDEF_STEREO_COUNT>
8
> <PUBCHEM_BOND_DEF_STEREO_COUNT>
0
> <PUBCHEM_BOND_UDEF_STEREO_COUNT>
0
> <PUBCHEM_ISOTOPIC_ATOM_COUNT>
0
> <PUBCHEM_COMPONENT_COUNT>
1
> <PUBCHEM_CACTVS_TAUTO_COUNT>
-1
> <PUBCHEM_COORDINATE_TYPE>
1
5
255
> <PUBCHEM_BONDANNOTATIONS>
10  18  3
11  17  3
13  23  3
12  4  3
16  5  3
26  7  3
8  14  3
9  20  3
$$$$
