523586
  -OEChem-10302200292D
 34 36  0     1  0  0  0  0  0999 V2000
    2.7696    1.0456    0.0000 O   0  0  0  0  0  0  0  0  0  0  0  0
    4.8714    1.0042    0.0000 O   0  0  0  0  0  0  0  0  0  0  0  0
    4.2298    1.9770    0.0000 O   0  0  0  0  0  0  0  0  0  0  0  0
    6.2939    0.0161    0.0000 O   0  0  0  0  0  0  0  0  0  0  0  0
    3.3073    0.2025    0.0000 C   0  0  3  0  0  0  0  0  0  0  0  0
    4.3009    0.1830    0.0000 C   0  0  3  0  0  0  0  0  0  0  0  0
    3.8000   -1.2414    0.0000 C   0  0  0  0  0  0  0  0  0  0  0  0
    2.9061   -0.7067    0.0000 C   0  0  0  0  0  0  0  0  0  0  0  0
    4.6660   -0.7413    0.0000 C   0  0  0  0  0  0  0  0  0  0  0  0
    3.8000   -2.2414    0.0000 C   0  0  0  0  0  0  0  0  0  0  0  0
    2.0000   -1.2205    0.0000 C   0  0  0  0  0  0  0  0  0  0  0  0
    5.5321   -1.2414    0.0000 C   0  0  0  0  0  0  0  0  0  0  0  0
    2.9061   -2.7760    0.0000 C   0  0  0  0  0  0  0  0  0  0  0  0
    4.6660   -2.7414    0.0000 C   0  0  0  0  0  0  0  0  0  0  0  0
    2.0000   -2.2622    0.0000 C   0  0  0  0  0  0  0  0  0  0  0  0
    5.5321   -2.2414    0.0000 C   0  0  0  0  0  0  0  0  0  0  0  0
    3.2308    1.9329    0.0000 C   0  0  0  0  0  0  0  0  0  0  0  0
    5.8680    0.9208    0.0000 C   0  0  0  0  0  0  0  0  0  0  0  0
    2.6931    2.7760    0.0000 C   0  0  0  0  0  0  0  0  0  0  0  0
    6.4385    1.7421    0.0000 C   0  0  0  0  0  0  0  0  0  0  0  0
    3.6107    0.7432    0.0000 H   0  0  0  0  0  0  0  0  0  0  0  0
    4.9168    0.1115    0.0000 H   0  0  0  0  0  0  0  0  0  0  0  0
    1.4643   -0.9085    0.0000 H   0  0  0  0  0  0  0  0  0  0  0  0
    6.0690   -0.9313    0.0000 H   0  0  0  0  0  0  0  0  0  0  0  0
    2.9132   -3.3960    0.0000 H   0  0  0  0  0  0  0  0  0  0  0  0
    4.6660   -3.3614    0.0000 H   0  0  0  0  0  0  0  0  0  0  0  0
    1.4643   -2.5742    0.0000 H   0  0  0  0  0  0  0  0  0  0  0  0
    6.0690   -2.5513    0.0000 H   0  0  0  0  0  0  0  0  0  0  0  0
    3.2158    3.1094    0.0000 H   0  0  0  0  0  0  0  0  0  0  0  0
    2.3597    3.2987    0.0000 H   0  0  0  0  0  0  0  0  0  0  0  0
    2.1704    2.4426    0.0000 H   0  0  0  0  0  0  0  0  0  0  0  0
    6.9477    1.3884    0.0000 H   0  0  0  0  0  0  0  0  0  0  0  0
    6.7922    2.2513    0.0000 H   0  0  0  0  0  0  0  0  0  0  0  0
    5.9293    2.0958    0.0000 H   0  0  0  0  0  0  0  0  0  0  0  0
  1  5  1  0  0  0  0
  1 17  1  0  0  0  0
  2  6  1  0  0  0  0
  2 18  1  0  0  0  0
  3 17  2  0  0  0  0
  4 18  2  0  0  0  0
  5  6  1  0  0  0  0
  5  8  1  0  0  0  0
  5 21  1  0  0  0  0
  6  9  1  0  0  0  0
  6 22  1  0  0  0  0
  7  8  1  0  0  0  0
  7  9  1  0  0  0  0
  7 10  2  0  0  0  0
  8 11  2  0  0  0  0
  9 12  2  0  0  0  0
 10 13  1  0  0  0  0
 10 14  1  0  0  0  0
 11 15  1  0  0  0  0
 11 23  1  0  0  0  0
 12 16  1  0  0  0  0
 12 24  1  0  0  0  0
 13 15  2  0  0  0  0
 13 25  1  0  0  0  0
 14 16  2  0  0  0  0
 14 26  1  0  0  0  0
 15 27  1  0  0  0  0
 16 28  1  0  0  0  0
 17 19  1  0  0  0  0
 18 20  1  0  0  0  0
 19 29  1  0  0  0  0
 19 30  1  0  0  0  0
 19 31  1  0  0  0  0
 20 32  1  0  0  0  0
 20 33  1  0  0  0  0
 20 34  1  0  0  0  0
M  END
> <PUBCHEM_COMPOUND_CID>
523586
> <PUBCHEM_COMPOUND_CANONICALIZED>
1
> <PUBCHEM_CACTVS_COMPLEXITY>
369
> <PUBCHEM_CACTVS_HBOND_ACCEPTOR>
4
> <PUBCHEM_CACTVS_HBOND_DONOR>
0
> <PUBCHEM_CACTVS_ROTATABLE_BOND>
4
> <PUBCHEM_CACTVS_SUBSKEYS>
AAADccB4OAAAAAAAAAAAAAAAAAAAAYAAAAAwYAAAAAAAAGDBUAAAGgAAAAAADBSgmAIyCMAABACIAiDSCAACAAAgAAAIiAAACIgJJiKAMRiCMAAkwAEKqAeA4PgOgAACAAAQAAAAAAQAACAAAYAADCAAAA==
> <PUBCHEM_IUPAC_OPENEYE_NAME>
(2-acetoxy-1,2-dihydroacenaphthylen-1-yl) acetate
> <PUBCHEM_IUPAC_CAS_NAME>
acetic acid (2-acetyloxy-1,2-dihydroacenaphthylen-1-yl) ester
> <PUBCHEM_IUPAC_NAME_MARKUP>
(2-acetyloxy-1,2-dihydroacenaphthylen-1-yl) acetate
> <PUBCHEM_IUPAC_NAME>
(2-acetyloxy-1,2-dihydroacenaphthylen-1-yl) acetate
> <PUBCHEM_IUPAC_SYSTEMATIC_NAME>
(2-acetyloxy-1,2-dihydroacenaphthylen-1-yl) ethanoate
> <PUBCHEM_IUPAC_TRADITIONAL_NAME>
acetic acid (2-acetoxyacenaphthen-1-yl) ester
> <PUBCHEM_IUPAC_INCHI>
InChI=1S/C16H14O4/c1-9(17)19-15-12-7-3-5-11-6-4-8-13(14(11)12)16(15)20-10(2)18/h3-8,15-16H,1-2H3
> <PUBCHEM_IUPAC_INCHIKEY>
AFKBNGVZYDAUNA-UHFFFAOYSA-N
> <PUBCHEM_XLOGP3_AA>
2.4
> <PUBCHEM_EXACT_MASS>
270.08920892
> <PUBCHEM_MOLECULAR_FORMULA>
C16H14O4
> <PUBCHEM_MOLECULAR_WEIGHT>
270.28
> <PUBCHEM_OPENEYE_CAN_SMILES>
CC(=O)OC1C(C2=CC=CC3=C2C1=CC=C3)OC(=O)C
> <PUBCHEM_OPENEYE_ISO_SMILES>
CC(=O)OC1C(C2=CC=CC3=C2C1=CC=C3)OC(=O)C
> <PUBCHEM_CACTVS_TPSA>
52.6
> <PUBCHEM_MONOISOTOPIC_WEIGHT>
270.08920892
> <PUBCHEM_TOTAL_CHARGE>
0
> <PUBCHEM_HEAVY_ATOM_COUNT>
20
> <PUBCHEM_ATOM_DEF_STEREO_COUNT>
0
> <PUBCHEM_ATOM_UDEF_STEREO_COUNT>
2
> <PUBCHEM_BOND_DEF_STEREO_COUNT>
0
> <PUBCHEM_BOND_UDEF_STEREO_COUNT>
0
> <PUBCHEM_ISOTOPIC_ATOM_COUNT>
0
> <PUBCHEM_COMPONENT_COUNT>
1
> <PUBCHEM_CACTVS_TAUTO_COUNT>
-1
> <PUBCHEM_COORDINATE_TYPE>
1
5
255
> <PUBCHEM_BONDANNOTATIONS>
5  1  3
10  13  8
10  14  8
11  15  8
12  16  8
13  15  8
14  16  8
6  2  3
7  10  8
7  8  8
7  9  8
8  11  8
9  12  8
$$$$
