523529
  -OEChem-10302200292D
 33 33  0     1  0  0  0  0  0999 V2000
    2.8090   -1.2306    0.0000 C   0  0  0  0  0  0  0  0  0  0  0  0
    2.0000   -1.8184    0.0000 C   0  0  0  0  0  0  0  0  0  0  0  0
    3.6180   -1.8184    0.0000 C   0  0  0  0  0  0  0  0  0  0  0  0
    2.8090   -0.2306    0.0000 C   0  0  0  0  0  0  0  0  0  0  0  0
    2.3090   -2.7694    0.0000 C   0  0  0  0  0  0  0  0  0  0  0  0
    3.3090   -2.7694    0.0000 C   0  0  0  0  0  0  0  0  0  0  0  0
    3.6750    0.2694    0.0000 C   0  0  0  0  0  0  0  0  0  0  0  0
    3.6750    1.2694    0.0000 C   0  0  3  0  0  0  0  0  0  0  0  0
    4.5411    1.7694    0.0000 C   0  0  0  0  0  0  0  0  0  0  0  0
    2.8090    1.7694    0.0000 C   0  0  0  0  0  0  0  0  0  0  0  0
    4.5411    2.7694    0.0000 C   0  0  0  0  0  0  0  0  0  0  0  0
    3.3614   -0.9491    0.0000 H   0  0  0  0  0  0  0  0  0  0  0  0
    1.6900   -1.2814    0.0000 H   0  0  0  0  0  0  0  0  0  0  0  0
    1.4336   -2.0705    0.0000 H   0  0  0  0  0  0  0  0  0  0  0  0
    4.1844   -2.0705    0.0000 H   0  0  0  0  0  0  0  0  0  0  0  0
    3.9280   -1.2814    0.0000 H   0  0  0  0  0  0  0  0  0  0  0  0
    2.5970    0.3520    0.0000 H   0  0  0  0  0  0  0  0  0  0  0  0
    2.1984   -0.3382    0.0000 H   0  0  0  0  0  0  0  0  0  0  0  0
    1.7026   -2.8983    0.0000 H   0  0  0  0  0  0  0  0  0  0  0  0
    2.3738   -3.3860    0.0000 H   0  0  0  0  0  0  0  0  0  0  0  0
    3.2442   -3.3860    0.0000 H   0  0  0  0  0  0  0  0  0  0  0  0
    3.9155   -2.8983    0.0000 H   0  0  0  0  0  0  0  0  0  0  0  0
    3.8871   -0.3132    0.0000 H   0  0  0  0  0  0  0  0  0  0  0  0
    4.2856    0.3771    0.0000 H   0  0  0  0  0  0  0  0  0  0  0  0
    3.1381    0.9594    0.0000 H   0  0  0  0  0  0  0  0  0  0  0  0
    4.7531    1.1868    0.0000 H   0  0  0  0  0  0  0  0  0  0  0  0
    5.1516    1.8771    0.0000 H   0  0  0  0  0  0  0  0  0  0  0  0
    3.1190    2.3064    0.0000 H   0  0  0  0  0  0  0  0  0  0  0  0
    2.2721    2.0794    0.0000 H   0  0  0  0  0  0  0  0  0  0  0  0
    2.4990    1.2325    0.0000 H   0  0  0  0  0  0  0  0  0  0  0  0
    5.1611    2.7694    0.0000 H   0  0  0  0  0  0  0  0  0  0  0  0
    4.5411    3.3894    0.0000 H   0  0  0  0  0  0  0  0  0  0  0  0
    3.9211    2.7694    0.0000 H   0  0  0  0  0  0  0  0  0  0  0  0
  1  2  1  0  0  0  0
  1  3  1  0  0  0  0
  1  4  1  0  0  0  0
  1 12  1  0  0  0  0
  2  5  1  0  0  0  0
  2 13  1  0  0  0  0
  2 14  1  0  0  0  0
  3  6  1  0  0  0  0
  3 15  1  0  0  0  0
  3 16  1  0  0  0  0
  4  7  1  0  0  0  0
  4 17  1  0  0  0  0
  4 18  1  0  0  0  0
  5  6  1  0  0  0  0
  5 19  1  0  0  0  0
  5 20  1  0  0  0  0
  6 21  1  0  0  0  0
  6 22  1  0  0  0  0
  7  8  1  0  0  0  0
  7 23  1  0  0  0  0
  7 24  1  0  0  0  0
  8  9  1  0  0  0  0
  8 10  1  0  0  0  0
  8 25  1  0  0  0  0
  9 11  1  0  0  0  0
  9 26  1  0  0  0  0
  9 27  1  0  0  0  0
 10 28  1  0  0  0  0
 10 29  1  0  0  0  0
 10 30  1  0  0  0  0
 11 31  1  0  0  0  0
 11 32  1  0  0  0  0
 11 33  1  0  0  0  0
M  END
> <PUBCHEM_COMPOUND_CID>
523529
> <PUBCHEM_COMPOUND_CANONICALIZED>
1
> <PUBCHEM_CACTVS_COMPLEXITY>
90.2
> <PUBCHEM_CACTVS_HBOND_ACCEPTOR>
0
> <PUBCHEM_CACTVS_HBOND_DONOR>
0
> <PUBCHEM_CACTVS_ROTATABLE_BOND>
4
> <PUBCHEM_CACTVS_SUBSKEYS>
AAADceBwAAAAAAAAAAAAAAAAAAAAAYAAAAAAAAAAAAAAAAAAAAAAGAAAAAAADQCAAAACAAAAAAAAAAAAAAAAAAAAAAAAAAAAAAAAAAIAAAAAAAAAAAAAAAEAgMAOAAAAAAAAAAAAAAAAAAAAAAAAAAAAAA==
> <PUBCHEM_IUPAC_OPENEYE_NAME>
3-methylpentylcyclopentane
> <PUBCHEM_IUPAC_CAS_NAME>
3-methylpentylcyclopentane
> <PUBCHEM_IUPAC_NAME_MARKUP>
3-methylpentylcyclopentane
> <PUBCHEM_IUPAC_NAME>
3-methylpentylcyclopentane
> <PUBCHEM_IUPAC_SYSTEMATIC_NAME>
3-methylpentylcyclopentane
> <PUBCHEM_IUPAC_TRADITIONAL_NAME>
3-methylpentylcyclopentane
> <PUBCHEM_IUPAC_INCHI>
InChI=1S/C11H22/c1-3-10(2)8-9-11-6-4-5-7-11/h10-11H,3-9H2,1-2H3
> <PUBCHEM_IUPAC_INCHIKEY>
UQLMTCSMCCSRGW-UHFFFAOYSA-N
> <PUBCHEM_XLOGP3_AA>
5.4
> <PUBCHEM_EXACT_MASS>
154.172150702
> <PUBCHEM_MOLECULAR_FORMULA>
C11H22
> <PUBCHEM_MOLECULAR_WEIGHT>
154.29
> <PUBCHEM_OPENEYE_CAN_SMILES>
CCC(C)CCC1CCCC1
> <PUBCHEM_OPENEYE_ISO_SMILES>
CCC(C)CCC1CCCC1
> <PUBCHEM_CACTVS_TPSA>
0
> <PUBCHEM_MONOISOTOPIC_WEIGHT>
154.172150702
> <PUBCHEM_TOTAL_CHARGE>
0
> <PUBCHEM_HEAVY_ATOM_COUNT>
11
> <PUBCHEM_ATOM_DEF_STEREO_COUNT>
0
> <PUBCHEM_ATOM_UDEF_STEREO_COUNT>
1
> <PUBCHEM_BOND_DEF_STEREO_COUNT>
0
> <PUBCHEM_BOND_UDEF_STEREO_COUNT>
0
> <PUBCHEM_ISOTOPIC_ATOM_COUNT>
0
> <PUBCHEM_COMPONENT_COUNT>
1
> <PUBCHEM_CACTVS_TAUTO_COUNT>
-1
> <PUBCHEM_COORDINATE_TYPE>
1
5
255
> <PUBCHEM_BONDANNOTATIONS>
8  10  3
$$$$
