523527
  -OEChem-10302200292D
 33 33  0     1  0  0  0  0  0999 V2000
    2.8660   -1.2306    0.0000 C   0  0  0  0  0  0  0  0  0  0  0  0
    2.8660   -0.2306    0.0000 C   0  0  3  0  0  0  0  0  0  0  0  0
    2.0570   -1.8184    0.0000 C   0  0  0  0  0  0  0  0  0  0  0  0
    3.6750   -1.8184    0.0000 C   0  0  0  0  0  0  0  0  0  0  0  0
    2.3660   -2.7694    0.0000 C   0  0  0  0  0  0  0  0  0  0  0  0
    3.3660   -2.7694    0.0000 C   0  0  0  0  0  0  0  0  0  0  0  0
    3.7320    0.2694    0.0000 C   0  0  0  0  0  0  0  0  0  0  0  0
    2.0000    0.2694    0.0000 C   0  0  0  0  0  0  0  0  0  0  0  0
    3.7320    1.2694    0.0000 C   0  0  0  0  0  0  0  0  0  0  0  0
    4.5981    1.7694    0.0000 C   0  0  0  0  0  0  0  0  0  0  0  0
    4.5981    2.7694    0.0000 C   0  0  0  0  0  0  0  0  0  0  0  0
    3.4184   -0.9491    0.0000 H   0  0  0  0  0  0  0  0  0  0  0  0
    2.8660    0.3894    0.0000 H   0  0  0  0  0  0  0  0  0  0  0  0
    1.7470   -1.2814    0.0000 H   0  0  0  0  0  0  0  0  0  0  0  0
    1.4906   -2.0705    0.0000 H   0  0  0  0  0  0  0  0  0  0  0  0
    4.2414   -2.0705    0.0000 H   0  0  0  0  0  0  0  0  0  0  0  0
    3.9850   -1.2814    0.0000 H   0  0  0  0  0  0  0  0  0  0  0  0
    1.7596   -2.8983    0.0000 H   0  0  0  0  0  0  0  0  0  0  0  0
    2.4308   -3.3860    0.0000 H   0  0  0  0  0  0  0  0  0  0  0  0
    3.3012   -3.3860    0.0000 H   0  0  0  0  0  0  0  0  0  0  0  0
    3.9725   -2.8983    0.0000 H   0  0  0  0  0  0  0  0  0  0  0  0
    3.9441   -0.3132    0.0000 H   0  0  0  0  0  0  0  0  0  0  0  0
    4.3426    0.3771    0.0000 H   0  0  0  0  0  0  0  0  0  0  0  0
    2.3100    0.8064    0.0000 H   0  0  0  0  0  0  0  0  0  0  0  0
    1.4631    0.5794    0.0000 H   0  0  0  0  0  0  0  0  0  0  0  0
    1.6900   -0.2675    0.0000 H   0  0  0  0  0  0  0  0  0  0  0  0
    3.5200    1.8520    0.0000 H   0  0  0  0  0  0  0  0  0  0  0  0
    3.1215    1.1618    0.0000 H   0  0  0  0  0  0  0  0  0  0  0  0
    4.8101    1.1868    0.0000 H   0  0  0  0  0  0  0  0  0  0  0  0
    5.2087    1.8771    0.0000 H   0  0  0  0  0  0  0  0  0  0  0  0
    5.2181    2.7694    0.0000 H   0  0  0  0  0  0  0  0  0  0  0  0
    4.5981    3.3894    0.0000 H   0  0  0  0  0  0  0  0  0  0  0  0
    3.9781    2.7694    0.0000 H   0  0  0  0  0  0  0  0  0  0  0  0
  1  2  1  0  0  0  0
  1  3  1  0  0  0  0
  1  4  1  0  0  0  0
  1 12  1  0  0  0  0
  2  7  1  0  0  0  0
  2  8  1  0  0  0  0
  2 13  1  0  0  0  0
  3  5  1  0  0  0  0
  3 14  1  0  0  0  0
  3 15  1  0  0  0  0
  4  6  1  0  0  0  0
  4 16  1  0  0  0  0
  4 17  1  0  0  0  0
  5  6  1  0  0  0  0
  5 18  1  0  0  0  0
  5 19  1  0  0  0  0
  6 20  1  0  0  0  0
  6 21  1  0  0  0  0
  7  9  1  0  0  0  0
  7 22  1  0  0  0  0
  7 23  1  0  0  0  0
  8 24  1  0  0  0  0
  8 25  1  0  0  0  0
  8 26  1  0  0  0  0
  9 10  1  0  0  0  0
  9 27  1  0  0  0  0
  9 28  1  0  0  0  0
 10 11  1  0  0  0  0
 10 29  1  0  0  0  0
 10 30  1  0  0  0  0
 11 31  1  0  0  0  0
 11 32  1  0  0  0  0
 11 33  1  0  0  0  0
M  END
> <PUBCHEM_COMPOUND_CID>
523527
> <PUBCHEM_COMPOUND_CANONICALIZED>
1
> <PUBCHEM_CACTVS_COMPLEXITY>
90.2
> <PUBCHEM_CACTVS_HBOND_ACCEPTOR>
0
> <PUBCHEM_CACTVS_HBOND_DONOR>
0
> <PUBCHEM_CACTVS_ROTATABLE_BOND>
4
> <PUBCHEM_CACTVS_SUBSKEYS>
AAADceBwAAAAAAAAAAAAAAAAAAAAAYAAAAAAAAAAAAAAAAAAAAAAGAAAAAAADQCAAAACAAAAAAAAAAAAAAAAAAAAAAAAAAAAAAAAAAIAAAAAAAAAAAAAAAEAgMAOgAAAAAAAAAAAAAAAAAAAAAAAAAAAAA==
> <PUBCHEM_IUPAC_OPENEYE_NAME>
1-methylpentylcyclopentane
> <PUBCHEM_IUPAC_CAS_NAME>
hexan-2-ylcyclopentane
> <PUBCHEM_IUPAC_NAME_MARKUP>
hexan-2-ylcyclopentane
> <PUBCHEM_IUPAC_NAME>
hexan-2-ylcyclopentane
> <PUBCHEM_IUPAC_SYSTEMATIC_NAME>
hexan-2-ylcyclopentane
> <PUBCHEM_IUPAC_TRADITIONAL_NAME>
1-methylpentylcyclopentane
> <PUBCHEM_IUPAC_INCHI>
InChI=1S/C11H22/c1-3-4-7-10(2)11-8-5-6-9-11/h10-11H,3-9H2,1-2H3
> <PUBCHEM_IUPAC_INCHIKEY>
RKOYTPIPMHFCTD-UHFFFAOYSA-N
> <PUBCHEM_XLOGP3_AA>
5.4
> <PUBCHEM_EXACT_MASS>
154.172150702
> <PUBCHEM_MOLECULAR_FORMULA>
C11H22
> <PUBCHEM_MOLECULAR_WEIGHT>
154.29
> <PUBCHEM_OPENEYE_CAN_SMILES>
CCCCC(C)C1CCCC1
> <PUBCHEM_OPENEYE_ISO_SMILES>
CCCCC(C)C1CCCC1
> <PUBCHEM_CACTVS_TPSA>
0
> <PUBCHEM_MONOISOTOPIC_WEIGHT>
154.172150702
> <PUBCHEM_TOTAL_CHARGE>
0
> <PUBCHEM_HEAVY_ATOM_COUNT>
11
> <PUBCHEM_ATOM_DEF_STEREO_COUNT>
0
> <PUBCHEM_ATOM_UDEF_STEREO_COUNT>
1
> <PUBCHEM_BOND_DEF_STEREO_COUNT>
0
> <PUBCHEM_BOND_UDEF_STEREO_COUNT>
0
> <PUBCHEM_ISOTOPIC_ATOM_COUNT>
0
> <PUBCHEM_COMPONENT_COUNT>
1
> <PUBCHEM_CACTVS_TAUTO_COUNT>
-1
> <PUBCHEM_COORDINATE_TYPE>
1
5
255
> <PUBCHEM_BONDANNOTATIONS>
2  8  3
$$$$
