523540
  -OEChem-10302200292D
 25 25  0     1  0  0  0  0  0999 V2000
    2.9511   -1.0684    0.0000 C   0  0  3  0  0  0  0  0  0  0  0  0
    3.2601   -2.0194    0.0000 C   0  0  0  0  0  0  0  0  0  0  0  0
    3.7601   -0.4806    0.0000 C   0  0  0  0  0  0  0  0  0  0  0  0
    4.2601   -2.0194    0.0000 C   0  0  0  0  0  0  0  0  0  0  0  0
    4.5691   -1.0684    0.0000 C   0  0  0  0  0  0  0  0  0  0  0  0
    3.7601    0.5194    0.0000 C   0  0  0  0  0  0  0  0  0  0  0  0
    2.0000   -0.7593    0.0000 C   0  0  0  0  0  0  0  0  0  0  0  0
    4.6261    1.0194    0.0000 C   0  0  0  0  0  0  0  0  0  0  0  0
    4.6261    2.0194    0.0000 C   0  0  0  0  0  0  0  0  0  0  0  0
    2.5126   -1.5068    0.0000 H   0  0  0  0  0  0  0  0  0  0  0  0
    2.6536   -2.1483    0.0000 H   0  0  0  0  0  0  0  0  0  0  0  0
    3.3249   -2.6360    0.0000 H   0  0  0  0  0  0  0  0  0  0  0  0
    4.1953   -2.6360    0.0000 H   0  0  0  0  0  0  0  0  0  0  0  0
    4.8665   -2.1483    0.0000 H   0  0  0  0  0  0  0  0  0  0  0  0
    5.1588   -0.8768    0.0000 H   0  0  0  0  0  0  0  0  0  0  0  0
    3.5480    1.1020    0.0000 H   0  0  0  0  0  0  0  0  0  0  0  0
    3.1495    0.4118    0.0000 H   0  0  0  0  0  0  0  0  0  0  0  0
    2.1916   -0.1697    0.0000 H   0  0  0  0  0  0  0  0  0  0  0  0
    1.4103   -0.5678    0.0000 H   0  0  0  0  0  0  0  0  0  0  0  0
    1.8084   -1.3490    0.0000 H   0  0  0  0  0  0  0  0  0  0  0  0
    4.8382    0.4368    0.0000 H   0  0  0  0  0  0  0  0  0  0  0  0
    5.2367    1.1271    0.0000 H   0  0  0  0  0  0  0  0  0  0  0  0
    5.2461    2.0194    0.0000 H   0  0  0  0  0  0  0  0  0  0  0  0
    4.6261    2.6394    0.0000 H   0  0  0  0  0  0  0  0  0  0  0  0
    4.0061    2.0194    0.0000 H   0  0  0  0  0  0  0  0  0  0  0  0
  1  2  1  0  0  0  0
  1  3  1  0  0  0  0
  1  7  1  0  0  0  0
  1 10  1  0  0  0  0
  2  4  1  0  0  0  0
  2 11  1  0  0  0  0
  2 12  1  0  0  0  0
  3  5  2  0  0  0  0
  3  6  1  0  0  0  0
  4  5  1  0  0  0  0
  4 13  1  0  0  0  0
  4 14  1  0  0  0  0
  5 15  1  0  0  0  0
  6  8  1  0  0  0  0
  6 16  1  0  0  0  0
  6 17  1  0  0  0  0
  7 18  1  0  0  0  0
  7 19  1  0  0  0  0
  7 20  1  0  0  0  0
  8  9  1  0  0  0  0
  8 21  1  0  0  0  0
  8 22  1  0  0  0  0
  9 23  1  0  0  0  0
  9 24  1  0  0  0  0
  9 25  1  0  0  0  0
M  END
> <PUBCHEM_COMPOUND_CID>
523540
> <PUBCHEM_COMPOUND_CANONICALIZED>
1
> <PUBCHEM_CACTVS_COMPLEXITY>
111
> <PUBCHEM_CACTVS_HBOND_ACCEPTOR>
0
> <PUBCHEM_CACTVS_HBOND_DONOR>
0
> <PUBCHEM_CACTVS_ROTATABLE_BOND>
2
> <PUBCHEM_CACTVS_SUBSKEYS>
AAADceBwAAAAAAAAAAAAAAAAAAAAAQAAAAAAAAAAAAAAAAAAAAAAGAAAAAAADQCAAAACAAAAAACAAiBCAAAAAAAgAAAACAAAAAgAAAIAAQAAAAAAgAAIAAMAgIAOAAAAAAAAAAAAAAAAAAAAAAAAAAAAAA==
> <PUBCHEM_IUPAC_OPENEYE_NAME>
5-methyl-1-propyl-cyclopentene
> <PUBCHEM_IUPAC_CAS_NAME>
5-methyl-1-propylcyclopentene
> <PUBCHEM_IUPAC_NAME_MARKUP>
5-methyl-1-propylcyclopentene
> <PUBCHEM_IUPAC_NAME>
5-methyl-1-propylcyclopentene
> <PUBCHEM_IUPAC_SYSTEMATIC_NAME>
5-methyl-1-propyl-cyclopentene
> <PUBCHEM_IUPAC_TRADITIONAL_NAME>
5-methyl-1-propyl-cyclopentene
> <PUBCHEM_IUPAC_INCHI>
InChI=1S/C9H16/c1-3-5-9-7-4-6-8(9)2/h7-8H,3-6H2,1-2H3
> <PUBCHEM_IUPAC_INCHIKEY>
AELVTZRADLGLSW-UHFFFAOYSA-N
> <PUBCHEM_XLOGP3_AA>
3.1
> <PUBCHEM_EXACT_MASS>
124.125200510
> <PUBCHEM_MOLECULAR_FORMULA>
C9H16
> <PUBCHEM_MOLECULAR_WEIGHT>
124.22
> <PUBCHEM_OPENEYE_CAN_SMILES>
CCCC1=CCCC1C
> <PUBCHEM_OPENEYE_ISO_SMILES>
CCCC1=CCCC1C
> <PUBCHEM_CACTVS_TPSA>
0
> <PUBCHEM_MONOISOTOPIC_WEIGHT>
124.125200510
> <PUBCHEM_TOTAL_CHARGE>
0
> <PUBCHEM_HEAVY_ATOM_COUNT>
9
> <PUBCHEM_ATOM_DEF_STEREO_COUNT>
0
> <PUBCHEM_ATOM_UDEF_STEREO_COUNT>
1
> <PUBCHEM_BOND_DEF_STEREO_COUNT>
0
> <PUBCHEM_BOND_UDEF_STEREO_COUNT>
0
> <PUBCHEM_ISOTOPIC_ATOM_COUNT>
0
> <PUBCHEM_COMPONENT_COUNT>
1
> <PUBCHEM_CACTVS_TAUTO_COUNT>
-1
> <PUBCHEM_COORDINATE_TYPE>
1
5
255
> <PUBCHEM_BONDANNOTATIONS>
1  7  3
$$$$
