523512
  -OEChem-10302200292D
 37 37  0     1  0  0  0  0  0999 V2000
    5.4641    2.0000    0.0000 O   0  0  0  0  0  0  0  0  0  0  0  0
    2.8660    3.5000    0.0000 O   0  0  0  0  0  0  0  0  0  0  0  0
    6.3301    0.5000    0.0000 O   0  0  0  0  0  0  0  0  0  0  0  0
    2.8660   -0.5000    0.0000 O   0  0  0  0  0  0  0  0  0  0  0  0
    2.0000    2.0000    0.0000 O   0  0  0  0  0  0  0  0  0  0  0  0
    4.5981   -0.5000    0.0000 N   0  0  0  0  0  0  0  0  0  0  0  0
    4.5981    0.5000    0.0000 C   0  0  3  0  0  0  0  0  0  0  0  0
    3.7320    1.0000    0.0000 C   0  0  0  0  0  0  0  0  0  0  0  0
    3.7320    2.0000    0.0000 C   0  0  0  0  0  0  0  0  0  0  0  0
    5.4641    1.0000    0.0000 C   0  0  0  0  0  0  0  0  0  0  0  0
    3.7320   -1.0000    0.0000 C   0  0  0  0  0  0  0  0  0  0  0  0
    2.8660    2.5000    0.0000 C   0  0  0  0  0  0  0  0  0  0  0  0
    3.7320   -2.0000    0.0000 C   0  0  0  0  0  0  0  0  0  0  0  0
    4.5981   -2.5000    0.0000 C   0  0  0  0  0  0  0  0  0  0  0  0
    2.8660   -2.5000    0.0000 C   0  0  0  0  0  0  0  0  0  0  0  0
    4.5981   -3.5000    0.0000 C   0  0  0  0  0  0  0  0  0  0  0  0
    2.8660   -3.5000    0.0000 C   0  0  0  0  0  0  0  0  0  0  0  0
    6.3301    2.5000    0.0000 C   0  0  0  0  0  0  0  0  0  0  0  0
    3.7320   -4.0000    0.0000 C   0  0  0  0  0  0  0  0  0  0  0  0
    2.0000    4.0000    0.0000 C   0  0  0  0  0  0  0  0  0  0  0  0
    5.1350    0.1900    0.0000 H   0  0  0  0  0  0  0  0  0  0  0  0
    3.1215    1.1077    0.0000 H   0  0  0  0  0  0  0  0  0  0  0  0
    3.5200    0.4174    0.0000 H   0  0  0  0  0  0  0  0  0  0  0  0
    4.3426    1.8923    0.0000 H   0  0  0  0  0  0  0  0  0  0  0  0
    3.9441    2.5826    0.0000 H   0  0  0  0  0  0  0  0  0  0  0  0
    5.1350   -0.8100    0.0000 H   0  0  0  0  0  0  0  0  0  0  0  0
    5.1350   -2.1900    0.0000 H   0  0  0  0  0  0  0  0  0  0  0  0
    2.3291   -2.1900    0.0000 H   0  0  0  0  0  0  0  0  0  0  0  0
    5.1350   -3.8100    0.0000 H   0  0  0  0  0  0  0  0  0  0  0  0
    2.3291   -3.8100    0.0000 H   0  0  0  0  0  0  0  0  0  0  0  0
    6.6401    1.9631    0.0000 H   0  0  0  0  0  0  0  0  0  0  0  0
    6.8671    2.8100    0.0000 H   0  0  0  0  0  0  0  0  0  0  0  0
    6.0201    3.0369    0.0000 H   0  0  0  0  0  0  0  0  0  0  0  0
    3.7320   -4.6200    0.0000 H   0  0  0  0  0  0  0  0  0  0  0  0
    2.3100    4.5369    0.0000 H   0  0  0  0  0  0  0  0  0  0  0  0
    1.4631    4.3100    0.0000 H   0  0  0  0  0  0  0  0  0  0  0  0
    1.6900    3.4631    0.0000 H   0  0  0  0  0  0  0  0  0  0  0  0
  1 10  1  0  0  0  0
  1 18  1  0  0  0  0
  2 12  1  0  0  0  0
  2 20  1  0  0  0  0
  3 10  2  0  0  0  0
  4 11  2  0  0  0  0
  5 12  2  0  0  0  0
  6  7  1  0  0  0  0
  6 11  1  0  0  0  0
  6 26  1  0  0  0  0
  7  8  1  0  0  0  0
  7 10  1  0  0  0  0
  7 21  1  0  0  0  0
  8  9  1  0  0  0  0
  8 22  1  0  0  0  0
  8 23  1  0  0  0  0
  9 12  1  0  0  0  0
  9 24  1  0  0  0  0
  9 25  1  0  0  0  0
 11 13  1  0  0  0  0
 13 14  2  0  0  0  0
 13 15  1  0  0  0  0
 14 16  1  0  0  0  0
 14 27  1  0  0  0  0
 15 17  2  0  0  0  0
 15 28  1  0  0  0  0
 16 19  2  0  0  0  0
 16 29  1  0  0  0  0
 17 19  1  0  0  0  0
 17 30  1  0  0  0  0
 18 31  1  0  0  0  0
 18 32  1  0  0  0  0
 18 33  1  0  0  0  0
 19 34  1  0  0  0  0
 20 35  1  0  0  0  0
 20 36  1  0  0  0  0
 20 37  1  0  0  0  0
M  END
> <PUBCHEM_COMPOUND_CID>
523512
> <PUBCHEM_COMPOUND_CANONICALIZED>
1
> <PUBCHEM_CACTVS_COMPLEXITY>
350
> <PUBCHEM_CACTVS_HBOND_ACCEPTOR>
5
> <PUBCHEM_CACTVS_HBOND_DONOR>
1
> <PUBCHEM_CACTVS_ROTATABLE_BOND>
8
> <PUBCHEM_CACTVS_SUBSKEYS>
AAADceByOAAAAAAAAAAAAAAAAAAAAAAAAAAwAAAAAAAAAAABAAAAHgAQAAAADCjBmAYyCILABACIAiHSGACCAAAkAAAIiIGIBMgKIDKAlTGFIQhklgCYiYe8rgiOAAAAAAAAAAAAAAAAAAAAAAAAAAAAAA==
> <PUBCHEM_IUPAC_OPENEYE_NAME>
dimethyl 2-benzamidopentanedioate
> <PUBCHEM_IUPAC_CAS_NAME>
2-benzamidopentanedioic acid dimethyl ester
> <PUBCHEM_IUPAC_NAME_MARKUP>
dimethyl 2-benzamidopentanedioate
> <PUBCHEM_IUPAC_NAME>
dimethyl 2-benzamidopentanedioate
> <PUBCHEM_IUPAC_SYSTEMATIC_NAME>
dimethyl 2-benzamidopentanedioate
> <PUBCHEM_IUPAC_TRADITIONAL_NAME>
2-benzamidoglutaric acid dimethyl ester
> <PUBCHEM_IUPAC_INCHI>
InChI=1S/C14H17NO5/c1-19-12(16)9-8-11(14(18)20-2)15-13(17)10-6-4-3-5-7-10/h3-7,11H,8-9H2,1-2H3,(H,15,17)
> <PUBCHEM_IUPAC_INCHIKEY>
JOTSRQZZNLVBKG-UHFFFAOYSA-N
> <PUBCHEM_XLOGP3_AA>
1.3
> <PUBCHEM_EXACT_MASS>
279.11067264
> <PUBCHEM_MOLECULAR_FORMULA>
C14H17NO5
> <PUBCHEM_MOLECULAR_WEIGHT>
279.29
> <PUBCHEM_OPENEYE_CAN_SMILES>
COC(=O)CCC(C(=O)OC)NC(=O)C1=CC=CC=C1
> <PUBCHEM_OPENEYE_ISO_SMILES>
COC(=O)CCC(C(=O)OC)NC(=O)C1=CC=CC=C1
> <PUBCHEM_CACTVS_TPSA>
81.7
> <PUBCHEM_MONOISOTOPIC_WEIGHT>
279.11067264
> <PUBCHEM_TOTAL_CHARGE>
0
> <PUBCHEM_HEAVY_ATOM_COUNT>
20
> <PUBCHEM_ATOM_DEF_STEREO_COUNT>
0
> <PUBCHEM_ATOM_UDEF_STEREO_COUNT>
1
> <PUBCHEM_BOND_DEF_STEREO_COUNT>
0
> <PUBCHEM_BOND_UDEF_STEREO_COUNT>
0
> <PUBCHEM_ISOTOPIC_ATOM_COUNT>
0
> <PUBCHEM_COMPONENT_COUNT>
1
> <PUBCHEM_CACTVS_TAUTO_COUNT>
-1
> <PUBCHEM_COORDINATE_TYPE>
1
5
255
> <PUBCHEM_BONDANNOTATIONS>
13  14  8
13  15  8
14  16  8
15  17  8
16  19  8
17  19  8
7  8  3
$$$$
