523535
  -OEChem-10302200292D
 24 24  0     1  0  0  0  0  0999 V2000
    5.8424   -0.6807    0.0000 O   0  0  0  0  0  0  0  0  0  0  0  0
    2.3222   -0.6807    0.0000 O   0  0  0  0  0  0  0  0  0  0  0  0
    4.0823   -0.9594    0.0000 N   0  0  0  0  0  0  0  0  0  0  0  0
    4.5823    0.5794    0.0000 C   0  0  0  0  0  0  0  0  0  0  0  0
    3.5823    0.5794    0.0000 C   0  0  3  0  0  0  0  0  0  0  0  0
    2.9945    1.3884    0.0000 C   0  0  0  0  0  0  0  0  0  0  0  0
    4.8913   -0.3716    0.0000 C   0  0  0  0  0  0  0  0  0  0  0  0
    3.2733   -0.3716    0.0000 C   0  0  0  0  0  0  0  0  0  0  0  0
    5.5334    0.8884    0.0000 C   0  0  0  0  0  0  0  0  0  0  0  0
    4.5823    1.5794    0.0000 C   0  0  0  0  0  0  0  0  0  0  0  0
    2.0000    1.2839    0.0000 C   0  0  0  0  0  0  0  0  0  0  0  0
    2.9699    0.4824    0.0000 H   0  0  0  0  0  0  0  0  0  0  0  0
    3.5518    1.6602    0.0000 H   0  0  0  0  0  0  0  0  0  0  0  0
    2.8236    1.9844    0.0000 H   0  0  0  0  0  0  0  0  0  0  0  0
    5.7250    0.2988    0.0000 H   0  0  0  0  0  0  0  0  0  0  0  0
    6.1230    1.0800    0.0000 H   0  0  0  0  0  0  0  0  0  0  0  0
    5.3418    1.4781    0.0000 H   0  0  0  0  0  0  0  0  0  0  0  0
    5.2023    1.5794    0.0000 H   0  0  0  0  0  0  0  0  0  0  0  0
    4.5823    2.1994    0.0000 H   0  0  0  0  0  0  0  0  0  0  0  0
    3.9623    1.5794    0.0000 H   0  0  0  0  0  0  0  0  0  0  0  0
    4.0823   -1.5794    0.0000 H   0  0  0  0  0  0  0  0  0  0  0  0
    1.9352    1.9005    0.0000 H   0  0  0  0  0  0  0  0  0  0  0  0
    1.3834    1.2191    0.0000 H   0  0  0  0  0  0  0  0  0  0  0  0
    2.0648    0.6673    0.0000 H   0  0  0  0  0  0  0  0  0  0  0  0
  1  7  2  0  0  0  0
  2  8  2  0  0  0  0
  3  7  1  0  0  0  0
  3  8  1  0  0  0  0
  3 21  1  0  0  0  0
  4  5  1  0  0  0  0
  4  7  1  0  0  0  0
  4  9  1  0  0  0  0
  4 10  1  0  0  0  0
  5  6  1  0  0  0  0
  5  8  1  0  0  0  0
  5 12  1  0  0  0  0
  6 11  1  0  0  0  0
  6 13  1  0  0  0  0
  6 14  1  0  0  0  0
  9 15  1  0  0  0  0
  9 16  1  0  0  0  0
  9 17  1  0  0  0  0
 10 18  1  0  0  0  0
 10 19  1  0  0  0  0
 10 20  1  0  0  0  0
 11 22  1  0  0  0  0
 11 23  1  0  0  0  0
 11 24  1  0  0  0  0
M  END
> <PUBCHEM_COMPOUND_CID>
523535
> <PUBCHEM_COMPOUND_CANONICALIZED>
1
> <PUBCHEM_CACTVS_COMPLEXITY>
208
> <PUBCHEM_CACTVS_HBOND_ACCEPTOR>
2
> <PUBCHEM_CACTVS_HBOND_DONOR>
1
> <PUBCHEM_CACTVS_ROTATABLE_BOND>
1
> <PUBCHEM_CACTVS_SUBSKEYS>
AAADccByMAAAAAAAAAAAAAAAAAAAAWAAAAAAAAAAAAAAAAAAAAAAHgAQAAAADwCBgAACAALAAAAIAAEQEAAAAAAAAAAAAAEAAAAAABIAgAAEAAAAFCCAAAAdAAAPgAAAAAAAAAAAAAAAAAAAAAAAAAAAAA==
> <PUBCHEM_IUPAC_OPENEYE_NAME>
4-ethyl-3,3-dimethyl-pyrrolidine-2,5-dione
> <PUBCHEM_IUPAC_CAS_NAME>
4-ethyl-3,3-dimethylpyrrolidine-2,5-dione
> <PUBCHEM_IUPAC_NAME_MARKUP>
4-ethyl-3,3-dimethylpyrrolidine-2,5-dione
> <PUBCHEM_IUPAC_NAME>
4-ethyl-3,3-dimethylpyrrolidine-2,5-dione
> <PUBCHEM_IUPAC_SYSTEMATIC_NAME>
4-ethyl-3,3-dimethyl-pyrrolidine-2,5-dione
> <PUBCHEM_IUPAC_TRADITIONAL_NAME>
4-ethyl-3,3-dimethyl-pyrrolidine-2,5-quinone
> <PUBCHEM_IUPAC_INCHI>
InChI=1S/C8H13NO2/c1-4-5-6(10)9-7(11)8(5,2)3/h5H,4H2,1-3H3,(H,9,10,11)
> <PUBCHEM_IUPAC_INCHIKEY>
JUYYOZHFPKRYCN-UHFFFAOYSA-N
> <PUBCHEM_XLOGP3_AA>
0.8
> <PUBCHEM_EXACT_MASS>
155.094628657
> <PUBCHEM_MOLECULAR_FORMULA>
C8H13NO2
> <PUBCHEM_MOLECULAR_WEIGHT>
155.19
> <PUBCHEM_OPENEYE_CAN_SMILES>
CCC1C(=O)NC(=O)C1(C)C
> <PUBCHEM_OPENEYE_ISO_SMILES>
CCC1C(=O)NC(=O)C1(C)C
> <PUBCHEM_CACTVS_TPSA>
46.2
> <PUBCHEM_MONOISOTOPIC_WEIGHT>
155.094628657
> <PUBCHEM_TOTAL_CHARGE>
0
> <PUBCHEM_HEAVY_ATOM_COUNT>
11
> <PUBCHEM_ATOM_DEF_STEREO_COUNT>
0
> <PUBCHEM_ATOM_UDEF_STEREO_COUNT>
1
> <PUBCHEM_BOND_DEF_STEREO_COUNT>
0
> <PUBCHEM_BOND_UDEF_STEREO_COUNT>
0
> <PUBCHEM_ISOTOPIC_ATOM_COUNT>
0
> <PUBCHEM_COMPONENT_COUNT>
1
> <PUBCHEM_CACTVS_TAUTO_COUNT>
-1
> <PUBCHEM_COORDINATE_TYPE>
1
5
255
> <PUBCHEM_BONDANNOTATIONS>
5  6  3
$$$$
