523503
  -OEChem-10302200292D
 25 24  0     1  0  0  0  0  0999 V2000
    4.5981   -1.1550    0.0000 O   0  0  0  0  0  0  0  0  0  0  0  0
    5.4641    1.3450    0.0000 O   0  0  0  0  0  0  0  0  0  0  0  0
    2.8660   -0.1550    0.0000 O   0  0  0  0  0  0  0  0  0  0  0  0
    7.1962    0.3450    0.0000 O   0  0  0  0  0  0  0  0  0  0  0  0
    3.7320    1.3450    0.0000 O   0  0  0  0  0  0  0  0  0  0  0  0
    6.3301   -1.1550    0.0000 O   0  0  0  0  0  0  0  0  0  0  0  0
    4.5981   -0.1550    0.0000 C   0  0  3  0  0  0  0  0  0  0  0  0
    5.4641    0.3450    0.0000 C   0  0  3  0  0  0  0  0  0  0  0  0
    3.7320    0.3450    0.0000 C   0  0  0  0  0  0  0  0  0  0  0  0
    6.3301   -0.1550    0.0000 C   0  0  0  0  0  0  0  0  0  0  0  0
    3.7320   -1.6550    0.0000 C   0  0  0  0  0  0  0  0  0  0  0  0
    2.0000    0.3450    0.0000 C   0  0  0  0  0  0  0  0  0  0  0  0
    8.0622   -0.1550    0.0000 C   0  0  0  0  0  0  0  0  0  0  0  0
    5.1350   -0.4650    0.0000 H   0  0  0  0  0  0  0  0  0  0  0  0
    6.0010    0.6550    0.0000 H   0  0  0  0  0  0  0  0  0  0  0  0
    6.0010    1.6550    0.0000 H   0  0  0  0  0  0  0  0  0  0  0  0
    3.4220   -1.1181    0.0000 H   0  0  0  0  0  0  0  0  0  0  0  0
    3.1951   -1.9650    0.0000 H   0  0  0  0  0  0  0  0  0  0  0  0
    4.0420   -2.1919    0.0000 H   0  0  0  0  0  0  0  0  0  0  0  0
    2.3100    0.8819    0.0000 H   0  0  0  0  0  0  0  0  0  0  0  0
    1.4631    0.6550    0.0000 H   0  0  0  0  0  0  0  0  0  0  0  0
    1.6900   -0.1919    0.0000 H   0  0  0  0  0  0  0  0  0  0  0  0
    7.7522   -0.6919    0.0000 H   0  0  0  0  0  0  0  0  0  0  0  0
    8.5991   -0.4650    0.0000 H   0  0  0  0  0  0  0  0  0  0  0  0
    8.3722    0.3819    0.0000 H   0  0  0  0  0  0  0  0  0  0  0  0
  1  7  1  0  0  0  0
  1 11  1  0  0  0  0
  2  8  1  0  0  0  0
  2 16  1  0  0  0  0
  3  9  1  0  0  0  0
  3 12  1  0  0  0  0
  4 10  1  0  0  0  0
  4 13  1  0  0  0  0
  5  9  2  0  0  0  0
  6 10  2  0  0  0  0
  7  8  1  0  0  0  0
  7  9  1  0  0  0  0
  7 14  1  0  0  0  0
  8 10  1  0  0  0  0
  8 15  1  0  0  0  0
 11 17  1  0  0  0  0
 11 18  1  0  0  0  0
 11 19  1  0  0  0  0
 12 20  1  0  0  0  0
 12 21  1  0  0  0  0
 12 22  1  0  0  0  0
 13 23  1  0  0  0  0
 13 24  1  0  0  0  0
 13 25  1  0  0  0  0
M  END
> <PUBCHEM_COMPOUND_CID>
523503
> <PUBCHEM_COMPOUND_CANONICALIZED>
1
> <PUBCHEM_CACTVS_COMPLEXITY>
189
> <PUBCHEM_CACTVS_HBOND_ACCEPTOR>
6
> <PUBCHEM_CACTVS_HBOND_DONOR>
1
> <PUBCHEM_CACTVS_ROTATABLE_BOND>
6
> <PUBCHEM_CACTVS_SUBSKEYS>
AAADccBgOAAAAAAAAAAAAAAAAAAAAAAAAAAAAAAAAAAAAAAAAAAAGgAACAAACBSggAICCAAABgAIAACQCAIAAAAAAAAAAAFAAAABEBQAAAQAQAAFIAADAABDAAAAAAAAAAAAAAAAAAAAAAAAAAAAAAAAAA==
> <PUBCHEM_IUPAC_OPENEYE_NAME>
dimethyl 2-hydroxy-3-methoxy-butanedioate
> <PUBCHEM_IUPAC_CAS_NAME>
2-hydroxy-3-methoxybutanedioic acid dimethyl ester
> <PUBCHEM_IUPAC_NAME_MARKUP>
dimethyl 2-hydroxy-3-methoxybutanedioate
> <PUBCHEM_IUPAC_NAME>
dimethyl 2-hydroxy-3-methoxybutanedioate
> <PUBCHEM_IUPAC_SYSTEMATIC_NAME>
dimethyl 2-methoxy-3-oxidanyl-butanedioate
> <PUBCHEM_IUPAC_TRADITIONAL_NAME>
2-hydroxy-3-methoxy-succinic acid dimethyl ester
> <PUBCHEM_IUPAC_INCHI>
InChI=1S/C7H12O6/c1-11-5(7(10)13-3)4(8)6(9)12-2/h4-5,8H,1-3H3
> <PUBCHEM_IUPAC_INCHIKEY>
VOMRHYJWSOQMJR-UHFFFAOYSA-N
> <PUBCHEM_XLOGP3_AA>
-0.7
> <PUBCHEM_EXACT_MASS>
192.06338810
> <PUBCHEM_MOLECULAR_FORMULA>
C7H12O6
> <PUBCHEM_MOLECULAR_WEIGHT>
192.17
> <PUBCHEM_OPENEYE_CAN_SMILES>
COC(C(C(=O)OC)O)C(=O)OC
> <PUBCHEM_OPENEYE_ISO_SMILES>
COC(C(C(=O)OC)O)C(=O)OC
> <PUBCHEM_CACTVS_TPSA>
82.1
> <PUBCHEM_MONOISOTOPIC_WEIGHT>
192.06338810
> <PUBCHEM_TOTAL_CHARGE>
0
> <PUBCHEM_HEAVY_ATOM_COUNT>
13
> <PUBCHEM_ATOM_DEF_STEREO_COUNT>
0
> <PUBCHEM_ATOM_UDEF_STEREO_COUNT>
2
> <PUBCHEM_BOND_DEF_STEREO_COUNT>
0
> <PUBCHEM_BOND_UDEF_STEREO_COUNT>
0
> <PUBCHEM_ISOTOPIC_ATOM_COUNT>
0
> <PUBCHEM_COMPONENT_COUNT>
1
> <PUBCHEM_CACTVS_TAUTO_COUNT>
-1
> <PUBCHEM_COORDINATE_TYPE>
1
5
255
> <PUBCHEM_BONDANNOTATIONS>
8  2  3
7  9  3
$$$$
