523598
  -OEChem-10302200292D
 38 40  0     1  0  0  0  0  0999 V2000
    4.6660   -1.5346    0.0000 O   0  0  0  0  0  0  0  0  0  0  0  0
    6.3981   -0.5346    0.0000 O   0  0  0  0  0  0  0  0  0  0  0  0
    2.9340   -1.5346    0.0000 O   0  0  0  0  0  0  0  0  0  0  0  0
    7.2641    0.9654    0.0000 O   0  0  0  0  0  0  0  0  0  0  0  0
    4.6660   -0.5346    0.0000 C   0  0  3  0  0  0  0  0  0  0  0  0
    5.5321   -0.0346    0.0000 C   0  0  3  0  0  0  0  0  0  0  0  0
    3.8000   -0.0346    0.0000 C   0  0  0  0  0  0  0  0  0  0  0  0
    5.5321    0.9654    0.0000 C   0  0  0  0  0  0  0  0  0  0  0  0
    3.8000    0.9654    0.0000 C   0  0  0  0  0  0  0  0  0  0  0  0
    4.6660    1.4654    0.0000 C   0  0  0  0  0  0  0  0  0  0  0  0
    2.9061   -0.5693    0.0000 C   0  0  0  0  0  0  0  0  0  0  0  0
    6.4421    1.4722    0.0000 C   0  0  0  0  0  0  0  0  0  0  0  0
    2.9061    1.5000    0.0000 C   0  0  0  0  0  0  0  0  0  0  0  0
    4.6500    2.5069    0.0000 C   0  0  0  0  0  0  0  0  0  0  0  0
    2.0000   -0.0554    0.0000 C   0  0  0  0  0  0  0  0  0  0  0  0
    6.4501    2.5138    0.0000 C   0  0  0  0  0  0  0  0  0  0  0  0
    2.0000    0.9862    0.0000 C   0  0  0  0  0  0  0  0  0  0  0  0
    5.5480    3.0346    0.0000 C   0  0  0  0  0  0  0  0  0  0  0  0
    3.8000   -2.0346    0.0000 C   0  0  0  0  0  0  0  0  0  0  0  0
    7.2641   -0.0346    0.0000 C   0  0  0  0  0  0  0  0  0  0  0  0
    3.8000   -3.0346    0.0000 C   0  0  0  0  0  0  0  0  0  0  0  0
    8.1301   -0.5346    0.0000 C   0  0  0  0  0  0  0  0  0  0  0  0
    4.1291   -0.8446    0.0000 H   0  0  0  0  0  0  0  0  0  0  0  0
    5.5321   -0.6546    0.0000 H   0  0  0  0  0  0  0  0  0  0  0  0
    2.9132   -1.1892    0.0000 H   0  0  0  0  0  0  0  0  0  0  0  0
    6.9754    1.1560    0.0000 H   0  0  0  0  0  0  0  0  0  0  0  0
    2.9132    2.1200    0.0000 H   0  0  0  0  0  0  0  0  0  0  0  0
    4.1095    2.8106    0.0000 H   0  0  0  0  0  0  0  0  0  0  0  0
    1.4643   -0.3675    0.0000 H   0  0  0  0  0  0  0  0  0  0  0  0
    6.9882    2.8217    0.0000 H   0  0  0  0  0  0  0  0  0  0  0  0
    1.4643    1.2982    0.0000 H   0  0  0  0  0  0  0  0  0  0  0  0
    5.5456    3.6546    0.0000 H   0  0  0  0  0  0  0  0  0  0  0  0
    3.1800   -3.0346    0.0000 H   0  0  0  0  0  0  0  0  0  0  0  0
    3.8000   -3.6546    0.0000 H   0  0  0  0  0  0  0  0  0  0  0  0
    4.4200   -3.0346    0.0000 H   0  0  0  0  0  0  0  0  0  0  0  0
    7.8201   -1.0716    0.0000 H   0  0  0  0  0  0  0  0  0  0  0  0
    8.6671   -0.8446    0.0000 H   0  0  0  0  0  0  0  0  0  0  0  0
    8.4401    0.0023    0.0000 H   0  0  0  0  0  0  0  0  0  0  0  0
  1  5  1  0  0  0  0
  1 19  1  0  0  0  0
  2  6  1  0  0  0  0
  2 20  1  0  0  0  0
  3 19  2  0  0  0  0
  4 20  2  0  0  0  0
  5  6  1  0  0  0  0
  5  7  1  0  0  0  0
  5 23  1  0  0  0  0
  6  8  1  0  0  0  0
  6 24  1  0  0  0  0
  7  9  1  0  0  0  0
  7 11  2  0  0  0  0
  8 10  1  0  0  0  0
  8 12  2  0  0  0  0
  9 10  1  0  0  0  0
  9 13  2  0  0  0  0
 10 14  2  0  0  0  0
 11 15  1  0  0  0  0
 11 25  1  0  0  0  0
 12 16  1  0  0  0  0
 12 26  1  0  0  0  0
 13 17  1  0  0  0  0
 13 27  1  0  0  0  0
 14 18  1  0  0  0  0
 14 28  1  0  0  0  0
 15 17  2  0  0  0  0
 15 29  1  0  0  0  0
 16 18  2  0  0  0  0
 16 30  1  0  0  0  0
 17 31  1  0  0  0  0
 18 32  1  0  0  0  0
 19 21  1  0  0  0  0
 20 22  1  0  0  0  0
 21 33  1  0  0  0  0
 21 34  1  0  0  0  0
 21 35  1  0  0  0  0
 22 36  1  0  0  0  0
 22 37  1  0  0  0  0
 22 38  1  0  0  0  0
M  END
> <PUBCHEM_COMPOUND_CID>
523598
> <PUBCHEM_COMPOUND_CANONICALIZED>
1
> <PUBCHEM_CACTVS_COMPLEXITY>
393
> <PUBCHEM_CACTVS_HBOND_ACCEPTOR>
4
> <PUBCHEM_CACTVS_HBOND_DONOR>
0
> <PUBCHEM_CACTVS_ROTATABLE_BOND>
4
> <PUBCHEM_CACTVS_SUBSKEYS>
AAADceB4OAAAAAAAAAAAAAAAAAAAAAAAAAAwYMAAAAAAAADBQAAAGgAAAAAADBSgmAIyCIAABACIAiDSCAACAAAgAAAIiAAACIgJJiKAMRiCMAAkwAEKqAeAwPAOgAAAAAAQAADAAAYAADCAAAAAAAAAAA==
> <PUBCHEM_IUPAC_OPENEYE_NAME>
(10-acetoxy-9,10-dihydrophenanthren-9-yl) acetate
> <PUBCHEM_IUPAC_CAS_NAME>
acetic acid (10-acetyloxy-9,10-dihydrophenanthren-9-yl) ester
> <PUBCHEM_IUPAC_NAME_MARKUP>
(10-acetyloxy-9,10-dihydrophenanthren-9-yl) acetate
> <PUBCHEM_IUPAC_NAME>
(10-acetyloxy-9,10-dihydrophenanthren-9-yl) acetate
> <PUBCHEM_IUPAC_SYSTEMATIC_NAME>
(10-acetyloxy-9,10-dihydrophenanthren-9-yl) ethanoate
> <PUBCHEM_IUPAC_TRADITIONAL_NAME>
acetic acid (10-acetoxy-9,10-dihydrophenanthren-9-yl) ester
> <PUBCHEM_IUPAC_INCHI>
InChI=1S/C18H16O4/c1-11(19)21-17-15-9-5-3-7-13(15)14-8-4-6-10-16(14)18(17)22-12(2)20/h3-10,17-18H,1-2H3
> <PUBCHEM_IUPAC_INCHIKEY>
AFGAFKSFAIFLNO-UHFFFAOYSA-N
> <PUBCHEM_XLOGP3_AA>
2.8
> <PUBCHEM_EXACT_MASS>
296.10485899
> <PUBCHEM_MOLECULAR_FORMULA>
C18H16O4
> <PUBCHEM_MOLECULAR_WEIGHT>
296.3
> <PUBCHEM_OPENEYE_CAN_SMILES>
CC(=O)OC1C(C2=CC=CC=C2C3=CC=CC=C13)OC(=O)C
> <PUBCHEM_OPENEYE_ISO_SMILES>
CC(=O)OC1C(C2=CC=CC=C2C3=CC=CC=C13)OC(=O)C
> <PUBCHEM_CACTVS_TPSA>
52.6
> <PUBCHEM_MONOISOTOPIC_WEIGHT>
296.10485899
> <PUBCHEM_TOTAL_CHARGE>
0
> <PUBCHEM_HEAVY_ATOM_COUNT>
22
> <PUBCHEM_ATOM_DEF_STEREO_COUNT>
0
> <PUBCHEM_ATOM_UDEF_STEREO_COUNT>
2
> <PUBCHEM_BOND_DEF_STEREO_COUNT>
0
> <PUBCHEM_BOND_UDEF_STEREO_COUNT>
0
> <PUBCHEM_ISOTOPIC_ATOM_COUNT>
0
> <PUBCHEM_COMPONENT_COUNT>
1
> <PUBCHEM_CACTVS_TAUTO_COUNT>
-1
> <PUBCHEM_COORDINATE_TYPE>
1
5
255
> <PUBCHEM_BONDANNOTATIONS>
5  1  3
10  14  8
11  15  8
12  16  8
13  17  8
14  18  8
15  17  8
16  18  8
6  2  3
7  11  8
7  9  8
8  10  8
8  12  8
9  13  8
$$$$
