523545
  -OEChem-10302200292D
 38 37  0     1  0  0  0  0  0999 V2000
    3.7320   -0.1830    0.0000 O   0  0  0  0  0  0  0  0  0  0  0  0
    4.5981   -1.6830    0.0000 O   0  0  0  0  0  0  0  0  0  0  0  0
    5.4641   -0.1830    0.0000 C   0  0  3  0  0  0  0  0  0  0  0  0
    6.3301    0.3170    0.0000 C   0  0  0  0  0  0  0  0  0  0  0  0
    4.9641    0.6830    0.0000 C   0  0  0  0  0  0  0  0  0  0  0  0
    5.9641   -1.0490    0.0000 C   0  0  0  0  0  0  0  0  0  0  0  0
    7.1962    0.8170    0.0000 C   0  0  0  0  0  0  0  0  0  0  0  0
    6.3301    1.3170    0.0000 C   0  0  0  0  0  0  0  0  0  0  0  0
    6.8301   -0.5490    0.0000 C   0  0  0  0  0  0  0  0  0  0  0  0
    4.5981   -0.6830    0.0000 C   0  0  0  0  0  0  0  0  0  0  0  0
    3.9641    0.6830    0.0000 C   0  0  0  0  0  0  0  0  0  0  0  0
    4.9641    1.6830    0.0000 C   0  0  0  0  0  0  0  0  0  0  0  0
    2.8660   -0.6830    0.0000 C   0  0  0  0  0  0  0  0  0  0  0  0
    2.0000   -0.1830    0.0000 C   0  0  0  0  0  0  0  0  0  0  0  0
    5.5630    0.8435    0.0000 H   0  0  0  0  0  0  0  0  0  0  0  0
    5.4272   -1.3590    0.0000 H   0  0  0  0  0  0  0  0  0  0  0  0
    6.2741   -1.5860    0.0000 H   0  0  0  0  0  0  0  0  0  0  0  0
    6.5010   -0.7390    0.0000 H   0  0  0  0  0  0  0  0  0  0  0  0
    7.5062    0.2801    0.0000 H   0  0  0  0  0  0  0  0  0  0  0  0
    7.7331    1.1270    0.0000 H   0  0  0  0  0  0  0  0  0  0  0  0
    6.8862    1.3539    0.0000 H   0  0  0  0  0  0  0  0  0  0  0  0
    6.9501    1.3170    0.0000 H   0  0  0  0  0  0  0  0  0  0  0  0
    6.3301    1.9370    0.0000 H   0  0  0  0  0  0  0  0  0  0  0  0
    5.7101    1.3170    0.0000 H   0  0  0  0  0  0  0  0  0  0  0  0
    6.2932   -0.8590    0.0000 H   0  0  0  0  0  0  0  0  0  0  0  0
    7.1401   -1.0860    0.0000 H   0  0  0  0  0  0  0  0  0  0  0  0
    7.3671   -0.2390    0.0000 H   0  0  0  0  0  0  0  0  0  0  0  0
    3.9641    1.3030    0.0000 H   0  0  0  0  0  0  0  0  0  0  0  0
    3.3441    0.6830    0.0000 H   0  0  0  0  0  0  0  0  0  0  0  0
    3.9641    0.0630    0.0000 H   0  0  0  0  0  0  0  0  0  0  0  0
    5.5841    1.6830    0.0000 H   0  0  0  0  0  0  0  0  0  0  0  0
    4.9641    2.3030    0.0000 H   0  0  0  0  0  0  0  0  0  0  0  0
    4.3441    1.6830    0.0000 H   0  0  0  0  0  0  0  0  0  0  0  0
    2.4675   -1.1580    0.0000 H   0  0  0  0  0  0  0  0  0  0  0  0
    3.2646   -1.1580    0.0000 H   0  0  0  0  0  0  0  0  0  0  0  0
    2.3100    0.3539    0.0000 H   0  0  0  0  0  0  0  0  0  0  0  0
    1.4631    0.1270    0.0000 H   0  0  0  0  0  0  0  0  0  0  0  0
    1.6900   -0.7199    0.0000 H   0  0  0  0  0  0  0  0  0  0  0  0
  1 10  1  0  0  0  0
  1 13  1  0  0  0  0
  2 10  2  0  0  0  0
  3  4  1  0  0  0  0
  3  5  1  0  0  0  0
  3  6  1  0  0  0  0
  3 10  1  0  0  0  0
  4  7  1  0  0  0  0
  4  8  1  0  0  0  0
  4  9  1  0  0  0  0
  5 11  1  0  0  0  0
  5 12  1  0  0  0  0
  5 15  1  0  0  0  0
  6 16  1  0  0  0  0
  6 17  1  0  0  0  0
  6 18  1  0  0  0  0
  7 19  1  0  0  0  0
  7 20  1  0  0  0  0
  7 21  1  0  0  0  0
  8 22  1  0  0  0  0
  8 23  1  0  0  0  0
  8 24  1  0  0  0  0
  9 25  1  0  0  0  0
  9 26  1  0  0  0  0
  9 27  1  0  0  0  0
 11 28  1  0  0  0  0
 11 29  1  0  0  0  0
 11 30  1  0  0  0  0
 12 31  1  0  0  0  0
 12 32  1  0  0  0  0
 12 33  1  0  0  0  0
 13 14  1  0  0  0  0
 13 34  1  0  0  0  0
 13 35  1  0  0  0  0
 14 36  1  0  0  0  0
 14 37  1  0  0  0  0
 14 38  1  0  0  0  0
M  END
> <PUBCHEM_COMPOUND_CID>
523545
> <PUBCHEM_COMPOUND_CANONICALIZED>
1
> <PUBCHEM_CACTVS_COMPLEXITY>
201
> <PUBCHEM_CACTVS_HBOND_ACCEPTOR>
2
> <PUBCHEM_CACTVS_HBOND_DONOR>
0
> <PUBCHEM_CACTVS_ROTATABLE_BOND>
5
> <PUBCHEM_CACTVS_SUBSKEYS>
AAADceBwMAAAAAAAAAAAAAAAAAAAAAAAAAAAAAAAAAAAAAAAAAAAGgAAAAAADwCggAICCAAABAAIAACQCAAAAAAAAAAAAAEAAAAAABIAAAACAAAEAAAAAAAAAAAPgAAAAAAAAAAAAAAAAAAAAAAAAAAAAA==
> <PUBCHEM_IUPAC_OPENEYE_NAME>
ethyl 2-isopropyl-2,3,3-trimethyl-butanoate
> <PUBCHEM_IUPAC_CAS_NAME>
2,3,3-trimethyl-2-propan-2-ylbutanoic acid ethyl ester
> <PUBCHEM_IUPAC_NAME_MARKUP>
ethyl 2,3,3-trimethyl-2-propan-2-ylbutanoate
> <PUBCHEM_IUPAC_NAME>
ethyl 2,3,3-trimethyl-2-propan-2-ylbutanoate
> <PUBCHEM_IUPAC_SYSTEMATIC_NAME>
ethyl 2,3,3-trimethyl-2-propan-2-yl-butanoate
> <PUBCHEM_IUPAC_TRADITIONAL_NAME>
2-isopropyl-2,3,3-trimethyl-butyric acid ethyl ester
> <PUBCHEM_IUPAC_INCHI>
InChI=1S/C12H24O2/c1-8-14-10(13)12(7,9(2)3)11(4,5)6/h9H,8H2,1-7H3
> <PUBCHEM_IUPAC_INCHIKEY>
AYKXSKJFLXRXGM-UHFFFAOYSA-N
> <PUBCHEM_XLOGP3_AA>
3.9
> <PUBCHEM_EXACT_MASS>
200.177630004
> <PUBCHEM_MOLECULAR_FORMULA>
C12H24O2
> <PUBCHEM_MOLECULAR_WEIGHT>
200.32
> <PUBCHEM_OPENEYE_CAN_SMILES>
CCOC(=O)C(C)(C(C)C)C(C)(C)C
> <PUBCHEM_OPENEYE_ISO_SMILES>
CCOC(=O)C(C)(C(C)C)C(C)(C)C
> <PUBCHEM_CACTVS_TPSA>
26.3
> <PUBCHEM_MONOISOTOPIC_WEIGHT>
200.177630004
> <PUBCHEM_TOTAL_CHARGE>
0
> <PUBCHEM_HEAVY_ATOM_COUNT>
14
> <PUBCHEM_ATOM_DEF_STEREO_COUNT>
0
> <PUBCHEM_ATOM_UDEF_STEREO_COUNT>
1
> <PUBCHEM_BOND_DEF_STEREO_COUNT>
0
> <PUBCHEM_BOND_UDEF_STEREO_COUNT>
0
> <PUBCHEM_ISOTOPIC_ATOM_COUNT>
0
> <PUBCHEM_COMPONENT_COUNT>
1
> <PUBCHEM_CACTVS_TAUTO_COUNT>
-1
> <PUBCHEM_COORDINATE_TYPE>
1
5
255
> <PUBCHEM_BONDANNOTATIONS>
3  6  3
$$$$
