523639
  -OEChem-10302200292D
 77 80  0     1  0  0  0  0  0999 V2000
    3.7320   -3.3907    0.0000 O   0  0  0  0  0  0  0  0  0  0  0  0
    2.8718   -1.8874    0.0000 O   0  0  0  0  0  0  0  0  0  0  0  0
    9.1251   -0.3384    0.0000 C   0  0  3  0  0  0  0  0  0  0  0  0
    9.1251   -1.3384    0.0000 C   0  0  3  0  0  0  0  0  0  0  0  0
    8.2591   -1.8384    0.0000 C   0  0  3  0  0  0  0  0  0  0  0  0
    7.3931   -1.3384    0.0000 C   0  0  3  0  0  0  0  0  0  0  0  0
   10.0713   -0.0337    0.0000 C   0  0  3  0  0  0  0  0  0  0  0  0
    8.2591    0.1616    0.0000 C   0  0  0  0  0  0  0  0  0  0  0  0
    6.4831   -1.8452    0.0000 C   0  0  3  0  0  0  0  0  0  0  0  0
   10.0713   -1.6431    0.0000 C   0  0  0  0  0  0  0  0  0  0  0  0
    7.3931   -0.3384    0.0000 C   0  0  0  0  0  0  0  0  0  0  0  0
   10.6550   -0.8384    0.0000 C   0  0  0  0  0  0  0  0  0  0  0  0
    8.2752   -2.8799    0.0000 C   0  0  0  0  0  0  0  0  0  0  0  0
    9.1251    0.6616    0.0000 C   0  0  0  0  0  0  0  0  0  0  0  0
    6.4750   -2.8868    0.0000 C   0  0  0  0  0  0  0  0  0  0  0  0
   10.3820    0.9169    0.0000 C   0  0  3  0  0  0  0  0  0  0  0  0
    5.5562   -1.2812    0.0000 C   0  0  0  0  0  0  0  0  0  0  0  0
    7.3771   -3.4076    0.0000 C   0  0  0  0  0  0  0  0  0  0  0  0
    6.4908   -0.8453    0.0000 C   0  0  0  0  0  0  0  0  0  0  0  0
    5.5396   -3.4366    0.0000 C   0  0  0  0  0  0  0  0  0  0  0  0
    4.6084   -1.8091    0.0000 C   0  0  0  0  0  0  0  0  0  0  0  0
    4.6000   -2.8941    0.0000 C   0  0  3  0  0  0  0  0  0  0  0  0
    9.7142    1.6612    0.0000 C   0  0  0  0  0  0  0  0  0  0  0  0
   11.3605    1.1231    0.0000 C   0  0  0  0  0  0  0  0  0  0  0  0
   11.6712    2.0736    0.0000 C   0  0  0  0  0  0  0  0  0  0  0  0
   12.6497    2.2798    0.0000 C   0  0  3  0  0  0  0  0  0  0  0  0
    2.8680   -2.8874    0.0000 C   0  0  0  0  0  0  0  0  0  0  0  0
   12.9603    3.2303    0.0000 C   0  0  0  0  0  0  0  0  0  0  0  0
   13.3175    1.5355    0.0000 C   0  0  0  0  0  0  0  0  0  0  0  0
    2.0000   -3.3840    0.0000 C   0  0  0  0  0  0  0  0  0  0  0  0
   13.9388    3.4366    0.0000 C   0  0  0  0  0  0  0  0  0  0  0  0
    9.1907   -1.9549    0.0000 H   0  0  0  0  0  0  0  0  0  0  0  0
    8.7984   -2.1442    0.0000 H   0  0  0  0  0  0  0  0  0  0  0  0
    7.9300   -1.0284    0.0000 H   0  0  0  0  0  0  0  0  0  0  0  0
   10.6838    0.0625    0.0000 H   0  0  0  0  0  0  0  0  0  0  0  0
    8.6576    0.6366    0.0000 H   0  0  0  0  0  0  0  0  0  0  0  0
    7.8606    0.6366    0.0000 H   0  0  0  0  0  0  0  0  0  0  0  0
    9.8203   -2.2100    0.0000 H   0  0  0  0  0  0  0  0  0  0  0  0
   10.6087   -1.9524    0.0000 H   0  0  0  0  0  0  0  0  0  0  0  0
    7.1810    0.2442    0.0000 H   0  0  0  0  0  0  0  0  0  0  0  0
    6.7825   -0.4461    0.0000 H   0  0  0  0  0  0  0  0  0  0  0  0
   11.1158   -1.2531    0.0000 H   0  0  0  0  0  0  0  0  0  0  0  0
   11.1158   -0.4237    0.0000 H   0  0  0  0  0  0  0  0  0  0  0  0
    8.4932   -3.4603    0.0000 H   0  0  0  0  0  0  0  0  0  0  0  0
    8.8843   -2.7644    0.0000 H   0  0  0  0  0  0  0  0  0  0  0  0
    9.7451    0.6616    0.0000 H   0  0  0  0  0  0  0  0  0  0  0  0
    9.1251    1.2816    0.0000 H   0  0  0  0  0  0  0  0  0  0  0  0
    8.5051    0.6616    0.0000 H   0  0  0  0  0  0  0  0  0  0  0  0
   10.5746    1.5062    0.0000 H   0  0  0  0  0  0  0  0  0  0  0  0
    5.9644   -0.8145    0.0000 H   0  0  0  0  0  0  0  0  0  0  0  0
    5.1663   -0.7991    0.0000 H   0  0  0  0  0  0  0  0  0  0  0  0
    7.3795   -4.0277    0.0000 H   0  0  0  0  0  0  0  0  0  0  0  0
    7.1108   -0.8500    0.0000 H   0  0  0  0  0  0  0  0  0  0  0  0
    6.4956   -0.2253    0.0000 H   0  0  0  0  0  0  0  0  0  0  0  0
    5.8708   -0.8405    0.0000 H   0  0  0  0  0  0  0  0  0  0  0  0
    5.1423   -3.9125    0.0000 H   0  0  0  0  0  0  0  0  0  0  0  0
    5.9406   -3.9094    0.0000 H   0  0  0  0  0  0  0  0  0  0  0  0
    4.4038   -1.2238    0.0000 H   0  0  0  0  0  0  0  0  0  0  0  0
    3.9967   -1.9105    0.0000 H   0  0  0  0  0  0  0  0  0  0  0  0
    4.0648   -2.5810    0.0000 H   0  0  0  0  0  0  0  0  0  0  0  0
   10.1756    2.0752    0.0000 H   0  0  0  0  0  0  0  0  0  0  0  0
    9.3001    2.1226    0.0000 H   0  0  0  0  0  0  0  0  0  0  0  0
    9.2527    1.2471    0.0000 H   0  0  0  0  0  0  0  0  0  0  0  0
   11.7746    0.6616    0.0000 H   0  0  0  0  0  0  0  0  0  0  0  0
   11.2571    2.5351    0.0000 H   0  0  0  0  0  0  0  0  0  0  0  0
   12.4571    1.6905    0.0000 H   0  0  0  0  0  0  0  0  0  0  0  0
   12.9398    3.8500    0.0000 H   0  0  0  0  0  0  0  0  0  0  0  0
   12.3465    3.3177    0.0000 H   0  0  0  0  0  0  0  0  0  0  0  0
   12.8561    1.1215    0.0000 H   0  0  0  0  0  0  0  0  0  0  0  0
   13.7316    1.0740    0.0000 H   0  0  0  0  0  0  0  0  0  0  0  0
   13.7790    1.9496    0.0000 H   0  0  0  0  0  0  0  0  0  0  0  0
    1.6921   -2.8459    0.0000 H   0  0  0  0  0  0  0  0  0  0  0  0
    1.4619   -3.6920    0.0000 H   0  0  0  0  0  0  0  0  0  0  0  0
    2.3079   -3.9222    0.0000 H   0  0  0  0  0  0  0  0  0  0  0  0
   14.0667    2.8299    0.0000 H   0  0  0  0  0  0  0  0  0  0  0  0
   14.5455    3.5644    0.0000 H   0  0  0  0  0  0  0  0  0  0  0  0
   13.8110    4.0432    0.0000 H   0  0  0  0  0  0  0  0  0  0  0  0
  1 22  1  0  0  0  0
  1 27  1  0  0  0  0
  2 27  2  0  0  0  0
  3  4  1  0  0  0  0
  3  7  1  0  0  0  0
  3  8  1  0  0  0  0
  3 14  1  0  0  0  0
  4  5  1  0  0  0  0
  4 10  1  0  0  0  0
  4 32  1  0  0  0  0
  5  6  1  0  0  0  0
  5 13  1  0  0  0  0
  5 33  1  0  0  0  0
  6  9  1  0  0  0  0
  6 11  1  0  0  0  0
  6 34  1  0  0  0  0
  7 12  1  0  0  0  0
  7 16  1  0  0  0  0
  7 35  1  0  0  0  0
  8 11  1  0  0  0  0
  8 36  1  0  0  0  0
  8 37  1  0  0  0  0
  9 15  1  0  0  0  0
  9 17  1  0  0  0  0
  9 19  1  0  0  0  0
 10 12  1  0  0  0  0
 10 38  1  0  0  0  0
 10 39  1  0  0  0  0
 11 40  1  0  0  0  0
 11 41  1  0  0  0  0
 12 42  1  0  0  0  0
 12 43  1  0  0  0  0
 13 18  1  0  0  0  0
 13 44  1  0  0  0  0
 13 45  1  0  0  0  0
 14 46  1  0  0  0  0
 14 47  1  0  0  0  0
 14 48  1  0  0  0  0
 15 18  2  0  0  0  0
 15 20  1  0  0  0  0
 16 23  1  0  0  0  0
 16 24  1  0  0  0  0
 16 49  1  0  0  0  0
 17 21  1  0  0  0  0
 17 50  1  0  0  0  0
 17 51  1  0  0  0  0
 18 52  1  0  0  0  0
 19 53  1  0  0  0  0
 19 54  1  0  0  0  0
 19 55  1  0  0  0  0
 20 22  1  0  0  0  0
 20 56  1  0  0  0  0
 20 57  1  0  0  0  0
 21 22  1  0  0  0  0
 21 58  1  0  0  0  0
 21 59  1  0  0  0  0
 22 60  1  0  0  0  0
 23 61  1  0  0  0  0
 23 62  1  0  0  0  0
 23 63  1  0  0  0  0
 24 25  2  3  0  0  0
 24 64  1  0  0  0  0
 25 26  1  0  0  0  0
 25 65  1  0  0  0  0
 26 28  1  0  0  0  0
 26 29  1  0  0  0  0
 26 66  1  0  0  0  0
 27 30  1  0  0  0  0
 28 31  1  0  0  0  0
 28 67  1  0  0  0  0
 28 68  1  0  0  0  0
 29 69  1  0  0  0  0
 29 70  1  0  0  0  0
 29 71  1  0  0  0  0
 30 72  1  0  0  0  0
 30 73  1  0  0  0  0
 30 74  1  0  0  0  0
 31 75  1  0  0  0  0
 31 76  1  0  0  0  0
 31 77  1  0  0  0  0
M  END
> <PUBCHEM_COMPOUND_CID>
523639
> <PUBCHEM_COMPOUND_CANONICALIZED>
1
> <PUBCHEM_CACTVS_COMPLEXITY>
735
> <PUBCHEM_CACTVS_HBOND_ACCEPTOR>
2
> <PUBCHEM_CACTVS_HBOND_DONOR>
0
> <PUBCHEM_CACTVS_ROTATABLE_BOND>
6
> <PUBCHEM_CACTVS_SUBSKEYS>
AAADcfB4MAAAAAAAAAAAAAAAAAAAAYAAAAAwYIAAAAAAAGCAAAAAGgAAAAAADxSggAICCAAABACIAiDSCAAAAAAgAAAICAAAAAgAAAIAAQACAAAEwAAIAAOAwPAPgAAAAAAAAADAAAQAACAAAQAACAAAAA==
> <PUBCHEM_IUPAC_OPENEYE_NAME>
[17-(1,4-dimethylhex-2-enyl)-10,13-dimethyl-2,3,4,7,8,9,11,12,14,15,16,17-dodecahydro-1H-cyclopenta[a]phenanthren-3-yl] acetate
> <PUBCHEM_IUPAC_CAS_NAME>
acetic acid [10,13-dimethyl-17-(5-methylhept-3-en-2-yl)-2,3,4,7,8,9,11,12,14,15,16,17-dodecahydro-1H-cyclopenta[a]phenanthren-3-yl] ester
> <PUBCHEM_IUPAC_NAME_MARKUP>
[10,13-dimethyl-17-(5-methylhept-3-en-2-yl)-2,3,4,7,8,9,11,12,14,15,16,17-dodecahydro-1<I>H</I>-cyclopenta[a]phenanthren-3-yl] acetate
> <PUBCHEM_IUPAC_NAME>
[10,13-dimethyl-17-(5-methylhept-3-en-2-yl)-2,3,4,7,8,9,11,12,14,15,16,17-dodecahydro-1H-cyclopenta[a]phenanthren-3-yl] acetate
> <PUBCHEM_IUPAC_SYSTEMATIC_NAME>
[10,13-dimethyl-17-(5-methylhept-3-en-2-yl)-2,3,4,7,8,9,11,12,14,15,16,17-dodecahydro-1H-cyclopenta[a]phenanthren-3-yl] ethanoate
> <PUBCHEM_IUPAC_TRADITIONAL_NAME>
acetic acid [17-(1,4-dimethylhex-2-enyl)-10,13-dimethyl-2,3,4,7,8,9,11,12,14,15,16,17-dodecahydro-1H-cyclopenta[a]phenanthren-3-yl] ester
> <PUBCHEM_IUPAC_INCHI>
InChI=1S/C29H46O2/c1-7-19(2)8-9-20(3)25-12-13-26-24-11-10-22-18-23(31-21(4)30)14-16-28(22,5)27(24)15-17-29(25,26)6/h8-10,19-20,23-27H,7,11-18H2,1-6H3
> <PUBCHEM_IUPAC_INCHIKEY>
WCDVLDYKHQSQHS-UHFFFAOYSA-N
> <PUBCHEM_XLOGP3_AA>
8.3
> <PUBCHEM_EXACT_MASS>
426.349780706
> <PUBCHEM_MOLECULAR_FORMULA>
C29H46O2
> <PUBCHEM_MOLECULAR_WEIGHT>
426.7
> <PUBCHEM_OPENEYE_CAN_SMILES>
CCC(C)C=CC(C)C1CCC2C1(CCC3C2CC=C4C3(CCC(C4)OC(=O)C)C)C
> <PUBCHEM_OPENEYE_ISO_SMILES>
CCC(C)C=CC(C)C1CCC2C1(CCC3C2CC=C4C3(CCC(C4)OC(=O)C)C)C
> <PUBCHEM_CACTVS_TPSA>
26.3
> <PUBCHEM_MONOISOTOPIC_WEIGHT>
426.349780706
> <PUBCHEM_TOTAL_CHARGE>
0
> <PUBCHEM_HEAVY_ATOM_COUNT>
31
> <PUBCHEM_ATOM_DEF_STEREO_COUNT>
0
> <PUBCHEM_ATOM_UDEF_STEREO_COUNT>
9
> <PUBCHEM_BOND_DEF_STEREO_COUNT>
0
> <PUBCHEM_BOND_UDEF_STEREO_COUNT>
1
> <PUBCHEM_ISOTOPIC_ATOM_COUNT>
0
> <PUBCHEM_COMPONENT_COUNT>
1
> <PUBCHEM_CACTVS_TAUTO_COUNT>
-1
> <PUBCHEM_COORDINATE_TYPE>
1
5
255
> <PUBCHEM_BONDANNOTATIONS>
22  1  3
16  23  3
24  25  1
26  29  3
3  14  3
4  10  3
5  13  3
6  11  3
7  12  3
9  19  3
$$$$
