523618
  -OEChem-10302200292D
 34 35  0     1  0  0  0  0  0999 V2000
    2.8660   -1.0000    0.0000 O   0  0  0  0  0  0  0  0  0  0  0  0
    2.8660    1.0000    0.0000 O   0  0  0  0  0  0  0  0  0  0  0  0
    3.7320   -2.5000    0.0000 O   0  0  0  0  0  0  0  0  0  0  0  0
    3.7320    2.5000    0.0000 O   0  0  0  0  0  0  0  0  0  0  0  0
    3.7320   -0.5000    0.0000 C   0  0  3  0  0  0  0  0  0  0  0  0
    3.7320    0.5000    0.0000 C   0  0  3  0  0  0  0  0  0  0  0  0
    4.5981   -1.0000    0.0000 C   0  0  0  0  0  0  0  0  0  0  0  0
    4.5981    1.0000    0.0000 C   0  0  0  0  0  0  0  0  0  0  0  0
    5.4641   -0.5000    0.0000 C   0  0  0  0  0  0  0  0  0  0  0  0
    5.4641    0.5000    0.0000 C   0  0  0  0  0  0  0  0  0  0  0  0
    6.3580   -1.0347    0.0000 C   0  0  0  0  0  0  0  0  0  0  0  0
    6.3580    1.0347    0.0000 C   0  0  0  0  0  0  0  0  0  0  0  0
    7.2641   -0.5208    0.0000 C   0  0  0  0  0  0  0  0  0  0  0  0
    7.2641    0.5208    0.0000 C   0  0  0  0  0  0  0  0  0  0  0  0
    2.8660   -2.0000    0.0000 C   0  0  0  0  0  0  0  0  0  0  0  0
    2.8660    2.0000    0.0000 C   0  0  0  0  0  0  0  0  0  0  0  0
    2.0000   -2.5000    0.0000 C   0  0  0  0  0  0  0  0  0  0  0  0
    2.0000    2.5000    0.0000 C   0  0  0  0  0  0  0  0  0  0  0  0
    3.7320   -1.1200    0.0000 H   0  0  0  0  0  0  0  0  0  0  0  0
    3.7320    1.1200    0.0000 H   0  0  0  0  0  0  0  0  0  0  0  0
    4.1996   -1.4750    0.0000 H   0  0  0  0  0  0  0  0  0  0  0  0
    4.9966   -1.4750    0.0000 H   0  0  0  0  0  0  0  0  0  0  0  0
    4.9966    1.4750    0.0000 H   0  0  0  0  0  0  0  0  0  0  0  0
    4.1996    1.4750    0.0000 H   0  0  0  0  0  0  0  0  0  0  0  0
    6.3509   -1.6546    0.0000 H   0  0  0  0  0  0  0  0  0  0  0  0
    6.3509    1.6546    0.0000 H   0  0  0  0  0  0  0  0  0  0  0  0
    7.7998   -0.8329    0.0000 H   0  0  0  0  0  0  0  0  0  0  0  0
    7.7998    0.8329    0.0000 H   0  0  0  0  0  0  0  0  0  0  0  0
    1.6900   -1.9631    0.0000 H   0  0  0  0  0  0  0  0  0  0  0  0
    1.4631   -2.8100    0.0000 H   0  0  0  0  0  0  0  0  0  0  0  0
    2.3100   -3.0369    0.0000 H   0  0  0  0  0  0  0  0  0  0  0  0
    2.3100    3.0369    0.0000 H   0  0  0  0  0  0  0  0  0  0  0  0
    1.4631    2.8100    0.0000 H   0  0  0  0  0  0  0  0  0  0  0  0
    1.6900    1.9631    0.0000 H   0  0  0  0  0  0  0  0  0  0  0  0
  1  5  1  0  0  0  0
  1 15  1  0  0  0  0
  2  6  1  0  0  0  0
  2 16  1  0  0  0  0
  3 15  2  0  0  0  0
  4 16  2  0  0  0  0
  5  6  1  0  0  0  0
  5  7  1  0  0  0  0
  5 19  1  0  0  0  0
  6  8  1  0  0  0  0
  6 20  1  0  0  0  0
  7  9  1  0  0  0  0
  7 21  1  0  0  0  0
  7 22  1  0  0  0  0
  8 10  1  0  0  0  0
  8 23  1  0  0  0  0
  8 24  1  0  0  0  0
  9 10  1  0  0  0  0
  9 11  2  0  0  0  0
 10 12  2  0  0  0  0
 11 13  1  0  0  0  0
 11 25  1  0  0  0  0
 12 14  1  0  0  0  0
 12 26  1  0  0  0  0
 13 14  2  0  0  0  0
 13 27  1  0  0  0  0
 14 28  1  0  0  0  0
 15 17  1  0  0  0  0
 16 18  1  0  0  0  0
 17 29  1  0  0  0  0
 17 30  1  0  0  0  0
 17 31  1  0  0  0  0
 18 32  1  0  0  0  0
 18 33  1  0  0  0  0
 18 34  1  0  0  0  0
M  END
> <PUBCHEM_COMPOUND_CID>
523618
> <PUBCHEM_COMPOUND_CANONICALIZED>
1
> <PUBCHEM_CACTVS_COMPLEXITY>
294
> <PUBCHEM_CACTVS_HBOND_ACCEPTOR>
4
> <PUBCHEM_CACTVS_HBOND_DONOR>
0
> <PUBCHEM_CACTVS_ROTATABLE_BOND>
4
> <PUBCHEM_CACTVS_SUBSKEYS>
AAADceBwOAAAAAAAAAAAAAAAAAAAAAAAAAAwYAAAAAAAAADBAAAAGgAAAAAADBSgmAIyCIAABACIAiDSCAACAAAgAAAIiAAAAIgJICKAERCCIAAkwAEKiAeAwLAOgAAAAAAQAABAAAIAACCAAAAAAAAAAA==
> <PUBCHEM_IUPAC_OPENEYE_NAME>
(3-acetoxytetralin-2-yl) acetate
> <PUBCHEM_IUPAC_CAS_NAME>
acetic acid (3-acetyloxy-1,2,3,4-tetrahydronaphthalen-2-yl) ester
> <PUBCHEM_IUPAC_NAME_MARKUP>
(3-acetyloxy-1,2,3,4-tetrahydronaphthalen-2-yl) acetate
> <PUBCHEM_IUPAC_NAME>
(3-acetyloxy-1,2,3,4-tetrahydronaphthalen-2-yl) acetate
> <PUBCHEM_IUPAC_SYSTEMATIC_NAME>
(3-acetyloxy-1,2,3,4-tetrahydronaphthalen-2-yl) ethanoate
> <PUBCHEM_IUPAC_TRADITIONAL_NAME>
acetic acid (3-acetoxytetralin-2-yl) ester
> <PUBCHEM_IUPAC_INCHI>
InChI=1S/C14H16O4/c1-9(15)17-13-7-11-5-3-4-6-12(11)8-14(13)18-10(2)16/h3-6,13-14H,7-8H2,1-2H3
> <PUBCHEM_IUPAC_INCHIKEY>
LNIOFEGBUCXRQW-UHFFFAOYSA-N
> <PUBCHEM_XLOGP3_AA>
2.1
> <PUBCHEM_EXACT_MASS>
248.10485899
> <PUBCHEM_MOLECULAR_FORMULA>
C14H16O4
> <PUBCHEM_MOLECULAR_WEIGHT>
248.27
> <PUBCHEM_OPENEYE_CAN_SMILES>
CC(=O)OC1CC2=CC=CC=C2CC1OC(=O)C
> <PUBCHEM_OPENEYE_ISO_SMILES>
CC(=O)OC1CC2=CC=CC=C2CC1OC(=O)C
> <PUBCHEM_CACTVS_TPSA>
52.6
> <PUBCHEM_MONOISOTOPIC_WEIGHT>
248.10485899
> <PUBCHEM_TOTAL_CHARGE>
0
> <PUBCHEM_HEAVY_ATOM_COUNT>
18
> <PUBCHEM_ATOM_DEF_STEREO_COUNT>
0
> <PUBCHEM_ATOM_UDEF_STEREO_COUNT>
2
> <PUBCHEM_BOND_DEF_STEREO_COUNT>
0
> <PUBCHEM_BOND_UDEF_STEREO_COUNT>
0
> <PUBCHEM_ISOTOPIC_ATOM_COUNT>
0
> <PUBCHEM_COMPONENT_COUNT>
1
> <PUBCHEM_CACTVS_TAUTO_COUNT>
-1
> <PUBCHEM_COORDINATE_TYPE>
1
5
255
> <PUBCHEM_BONDANNOTATIONS>
5  1  3
10  12  8
11  13  8
12  14  8
13  14  8
6  2  3
9  10  8
9  11  8
$$$$
