523741
  -OEChem-10302200292D
 50 52  0     1  0  0  0  0  0999 V2000
    7.0619   -0.2618    0.0000 Si  0  0  0  0  0  0  0  0  0  0  0  0
    6.4783    0.5429    0.0000 O   0  0  0  0  0  0  0  0  0  0  0  0
    6.4783   -1.0666    0.0000 O   0  0  0  0  0  0  0  0  0  0  0  0
    2.9176    1.7728    0.0000 O   0  0  0  0  0  0  0  0  0  0  0  0
    7.4686   -1.1754    0.0000 C   0  0  0  0  0  0  0  0  0  0  0  0
    7.8709    0.3259    0.0000 C   0  0  0  0  0  0  0  0  0  0  0  0
    5.5321    0.2382    0.0000 C   0  0  3  0  0  0  0  0  0  0  0  0
    5.5321   -0.7618    0.0000 C   0  0  3  0  0  0  0  0  0  0  0  0
    4.6660    0.7382    0.0000 C   0  0  0  0  0  0  0  0  0  0  0  0
    4.6660   -1.2618    0.0000 C   0  0  0  0  0  0  0  0  0  0  0  0
    7.8754   -2.0889    0.0000 C   0  0  0  0  0  0  0  0  0  0  0  0
    6.8808   -1.9844    0.0000 C   0  0  0  0  0  0  0  0  0  0  0  0
    8.3822   -0.7687    0.0000 C   0  0  0  0  0  0  0  0  0  0  0  0
    8.6799    0.9137    0.0000 C   0  0  0  0  0  0  0  0  0  0  0  0
    7.2831    1.1350    0.0000 C   0  0  0  0  0  0  0  0  0  0  0  0
    8.7844   -0.0808    0.0000 C   0  0  0  0  0  0  0  0  0  0  0  0
    3.8000    0.2382    0.0000 C   0  0  0  0  0  0  0  0  0  0  0  0
    3.8000   -0.7618    0.0000 C   0  0  0  0  0  0  0  0  0  0  0  0
    2.9061    0.7728    0.0000 C   0  0  0  0  0  0  0  0  0  0  0  0
    2.9061   -1.2965    0.0000 C   0  0  0  0  0  0  0  0  0  0  0  0
    2.0000    0.2590    0.0000 C   0  0  0  0  0  0  0  0  0  0  0  0
    2.0000   -0.7827    0.0000 C   0  0  0  0  0  0  0  0  0  0  0  0
    5.5977    0.8547    0.0000 H   0  0  0  0  0  0  0  0  0  0  0  0
    5.5977   -1.3784    0.0000 H   0  0  0  0  0  0  0  0  0  0  0  0
    5.0646    1.2131    0.0000 H   0  0  0  0  0  0  0  0  0  0  0  0
    4.2675    1.2131    0.0000 H   0  0  0  0  0  0  0  0  0  0  0  0
    4.2675   -1.7368    0.0000 H   0  0  0  0  0  0  0  0  0  0  0  0
    5.0646   -1.7368    0.0000 H   0  0  0  0  0  0  0  0  0  0  0  0
    7.3090   -2.3411    0.0000 H   0  0  0  0  0  0  0  0  0  0  0  0
    8.1275   -2.6553    0.0000 H   0  0  0  0  0  0  0  0  0  0  0  0
    8.4418   -1.8368    0.0000 H   0  0  0  0  0  0  0  0  0  0  0  0
    6.3792   -1.6199    0.0000 H   0  0  0  0  0  0  0  0  0  0  0  0
    6.5164   -2.4860    0.0000 H   0  0  0  0  0  0  0  0  0  0  0  0
    7.3824   -2.3488    0.0000 H   0  0  0  0  0  0  0  0  0  0  0  0
    8.6344   -1.3350    0.0000 H   0  0  0  0  0  0  0  0  0  0  0  0
    8.9486   -0.5165    0.0000 H   0  0  0  0  0  0  0  0  0  0  0  0
    8.1300   -0.2023    0.0000 H   0  0  0  0  0  0  0  0  0  0  0  0
    9.0444    0.4121    0.0000 H   0  0  0  0  0  0  0  0  0  0  0  0
    9.1815    1.2781    0.0000 H   0  0  0  0  0  0  0  0  0  0  0  0
    8.3155    1.4153    0.0000 H   0  0  0  0  0  0  0  0  0  0  0  0
    7.7847    1.4994    0.0000 H   0  0  0  0  0  0  0  0  0  0  0  0
    6.9187    1.6366    0.0000 H   0  0  0  0  0  0  0  0  0  0  0  0
    6.7815    0.7705    0.0000 H   0  0  0  0  0  0  0  0  0  0  0  0
    8.5323   -0.6472    0.0000 H   0  0  0  0  0  0  0  0  0  0  0  0
    9.3508   -0.3330    0.0000 H   0  0  0  0  0  0  0  0  0  0  0  0
    9.0366    0.4856    0.0000 H   0  0  0  0  0  0  0  0  0  0  0  0
    2.9132   -1.9165    0.0000 H   0  0  0  0  0  0  0  0  0  0  0  0
    1.4643    0.5710    0.0000 H   0  0  0  0  0  0  0  0  0  0  0  0
    1.4643   -1.0947    0.0000 H   0  0  0  0  0  0  0  0  0  0  0  0
    2.3843    2.0889    0.0000 H   0  0  0  0  0  0  0  0  0  0  0  0
  1  2  1  0  0  0  0
  1  3  1  0  0  0  0
  1  5  1  0  0  0  0
  1  6  1  0  0  0  0
  2  7  1  0  0  0  0
  3  8  1  0  0  0  0
  4 19  1  0  0  0  0
  4 50  1  0  0  0  0
  5 11  1  0  0  0  0
  5 12  1  0  0  0  0
  5 13  1  0  0  0  0
  6 14  1  0  0  0  0
  6 15  1  0  0  0  0
  6 16  1  0  0  0  0
  7  8  1  0  0  0  0
  7  9  1  0  0  0  0
  7 23  1  0  0  0  0
  8 10  1  0  0  0  0
  8 24  1  0  0  0  0
  9 17  1  0  0  0  0
  9 25  1  0  0  0  0
  9 26  1  0  0  0  0
 10 18  1  0  0  0  0
 10 27  1  0  0  0  0
 10 28  1  0  0  0  0
 11 29  1  0  0  0  0
 11 30  1  0  0  0  0
 11 31  1  0  0  0  0
 12 32  1  0  0  0  0
 12 33  1  0  0  0  0
 12 34  1  0  0  0  0
 13 35  1  0  0  0  0
 13 36  1  0  0  0  0
 13 37  1  0  0  0  0
 14 38  1  0  0  0  0
 14 39  1  0  0  0  0
 14 40  1  0  0  0  0
 15 41  1  0  0  0  0
 15 42  1  0  0  0  0
 15 43  1  0  0  0  0
 16 44  1  0  0  0  0
 16 45  1  0  0  0  0
 16 46  1  0  0  0  0
 17 18  2  0  0  0  0
 17 19  1  0  0  0  0
 18 20  1  0  0  0  0
 19 21  2  0  0  0  0
 20 22  2  0  0  0  0
 20 47  1  0  0  0  0
 21 22  1  0  0  0  0
 21 48  1  0  0  0  0
 22 49  1  0  0  0  0
M  END
> <PUBCHEM_COMPOUND_CID>
523741
> <PUBCHEM_COMPOUND_CANONICALIZED>
1
> <PUBCHEM_CACTVS_COMPLEXITY>
409
> <PUBCHEM_CACTVS_HBOND_ACCEPTOR>
3
> <PUBCHEM_CACTVS_HBOND_DONOR>
1
> <PUBCHEM_CACTVS_ROTATABLE_BOND>
2
> <PUBCHEM_CACTVS_SUBSKEYS>
AAADceB4MAgAAAAAAAAAAAAAAAAAASAAAAAwYAAAAAAAAEjBAAAAGhAACEAADBSguAIyBoAAAgGAAiBCAAACAAAgIAAIiAAGCIgJJiKCERKAcAAkwBEImAfA4LQOgAABAAAYAABAAAIAADCAAAAAAAAAAA==
> <PUBCHEM_IUPAC_OPENEYE_NAME>
2,2-ditert-butyl-3a,4,9,9a-tetrahydrobenzo[f][1,3,2]benzodioxasilol-5-ol
> <PUBCHEM_IUPAC_CAS_NAME>
2,2-ditert-butyl-3a,4,9,9a-tetrahydrobenzo[f][1,3,2]benzodioxasilol-5-ol
> <PUBCHEM_IUPAC_NAME_MARKUP>
2,2-di<I>tert</I>-butyl-3<I>a</I>,4,9,9<I>a</I>-tetrahydrobenzo[f][1,3,2]benzodioxasilol-5-ol
> <PUBCHEM_IUPAC_NAME>
2,2-ditert-butyl-3a,4,9,9a-tetrahydrobenzo[f][1,3,2]benzodioxasilol-5-ol
> <PUBCHEM_IUPAC_SYSTEMATIC_NAME>
2,2-ditert-butyl-3a,4,9,9a-tetrahydrobenzo[f][1,3,2]benzodioxasilol-5-ol
> <PUBCHEM_IUPAC_TRADITIONAL_NAME>
2,2-ditert-butyl-3a,4,9,9a-tetrahydrobenzo[f][1,3,2]benzodioxasilol-5-ol
> <PUBCHEM_IUPAC_INCHI>
InChI=1S/C18H28O3Si/c1-17(2,3)22(18(4,5)6)20-15-10-12-8-7-9-14(19)13(12)11-16(15)21-22/h7-9,15-16,19H,10-11H2,1-6H3
> <PUBCHEM_IUPAC_INCHIKEY>
STDRGROWMFMIQN-UHFFFAOYSA-N
> <PUBCHEM_EXACT_MASS>
320.18077129
> <PUBCHEM_MOLECULAR_FORMULA>
C18H28O3Si
> <PUBCHEM_MOLECULAR_WEIGHT>
320.5
> <PUBCHEM_OPENEYE_CAN_SMILES>
CC(C)(C)[Si]1(OC2CC3=C(CC2O1)C(=CC=C3)O)C(C)(C)C
> <PUBCHEM_OPENEYE_ISO_SMILES>
CC(C)(C)[Si]1(OC2CC3=C(CC2O1)C(=CC=C3)O)C(C)(C)C
> <PUBCHEM_CACTVS_TPSA>
38.7
> <PUBCHEM_MONOISOTOPIC_WEIGHT>
320.18077129
> <PUBCHEM_TOTAL_CHARGE>
0
> <PUBCHEM_HEAVY_ATOM_COUNT>
22
> <PUBCHEM_ATOM_DEF_STEREO_COUNT>
0
> <PUBCHEM_ATOM_UDEF_STEREO_COUNT>
2
> <PUBCHEM_BOND_DEF_STEREO_COUNT>
0
> <PUBCHEM_BOND_UDEF_STEREO_COUNT>
0
> <PUBCHEM_ISOTOPIC_ATOM_COUNT>
0
> <PUBCHEM_COMPONENT_COUNT>
1
> <PUBCHEM_CACTVS_TAUTO_COUNT>
-1
> <PUBCHEM_COORDINATE_TYPE>
1
5
255
> <PUBCHEM_BONDANNOTATIONS>
17  18  8
17  19  8
18  20  8
19  21  8
20  22  8
21  22  8
7  9  3
8  10  3
$$$$
