523740
  -OEChem-10302200292D
 71 71  0     1  0  0  0  0  0999 V2000
    3.8271   -5.0758    0.0000 Si  0  0  0  0  0  0  0  0  0  0  0  0
    4.6361   -4.4880    0.0000 O   0  0  0  0  0  0  0  0  0  0  0  0
    3.0181   -4.4880    0.0000 O   0  0  0  0  0  0  0  0  0  0  0  0
    2.9136   -5.4826    0.0000 C   0  0  0  0  0  0  0  0  0  0  0  0
    4.4149   -5.8848    0.0000 C   0  0  0  0  0  0  0  0  0  0  0  0
    4.3271   -3.5370    0.0000 C   0  0  3  0  0  0  0  0  0  0  0  0
    3.3271   -3.5370    0.0000 C   0  0  0  0  0  0  0  0  0  0  0  0
    2.0000   -5.8893    0.0000 C   0  0  0  0  0  0  0  0  0  0  0  0
    2.1045   -4.8947    0.0000 C   0  0  0  0  0  0  0  0  0  0  0  0
    3.3203   -6.3961    0.0000 C   0  0  0  0  0  0  0  0  0  0  0  0
    5.0026   -6.6939    0.0000 C   0  0  0  0  0  0  0  0  0  0  0  0
    5.2239   -5.2971    0.0000 C   0  0  0  0  0  0  0  0  0  0  0  0
    4.0081   -6.7984    0.0000 C   0  0  0  0  0  0  0  0  0  0  0  0
    4.9149   -2.7280    0.0000 C   0  0  0  0  0  0  0  0  0  0  0  0
    4.5081   -1.8144    0.0000 C   0  0  0  0  0  0  0  0  0  0  0  0
    5.0959   -1.0054    0.0000 C   0  0  0  0  0  0  0  0  0  0  0  0
    4.6892   -0.0919    0.0000 C   0  0  0  0  0  0  0  0  0  0  0  0
    5.2770    0.7172    0.0000 C   0  0  0  0  0  0  0  0  0  0  0  0
    4.8702    1.6307    0.0000 C   0  0  0  0  0  0  0  0  0  0  0  0
    5.4580    2.4397    0.0000 C   0  0  0  0  0  0  0  0  0  0  0  0
    5.0513    3.3533    0.0000 C   0  0  0  0  0  0  0  0  0  0  0  0
    5.6391    4.1623    0.0000 C   0  0  0  0  0  0  0  0  0  0  0  0
    5.2323    5.0758    0.0000 C   0  0  0  0  0  0  0  0  0  0  0  0
    5.8201    5.8848    0.0000 C   0  0  0  0  0  0  0  0  0  0  0  0
    5.4134    6.7984    0.0000 C   0  0  0  0  0  0  0  0  0  0  0  0
    4.9394   -3.6340    0.0000 H   0  0  0  0  0  0  0  0  0  0  0  0
    3.3919   -2.9204    0.0000 H   0  0  0  0  0  0  0  0  0  0  0  0
    2.7206   -3.4081    0.0000 H   0  0  0  0  0  0  0  0  0  0  0  0
    1.7478   -5.3229    0.0000 H   0  0  0  0  0  0  0  0  0  0  0  0
    1.4336   -6.1415    0.0000 H   0  0  0  0  0  0  0  0  0  0  0  0
    2.2522   -6.4557    0.0000 H   0  0  0  0  0  0  0  0  0  0  0  0
    2.4690   -4.3931    0.0000 H   0  0  0  0  0  0  0  0  0  0  0  0
    1.6029   -4.5302    0.0000 H   0  0  0  0  0  0  0  0  0  0  0  0
    1.7400   -5.3963    0.0000 H   0  0  0  0  0  0  0  0  0  0  0  0
    2.7539   -6.6483    0.0000 H   0  0  0  0  0  0  0  0  0  0  0  0
    3.5724   -6.9625    0.0000 H   0  0  0  0  0  0  0  0  0  0  0  0
    3.8867   -6.1439    0.0000 H   0  0  0  0  0  0  0  0  0  0  0  0
    4.5011   -7.0583    0.0000 H   0  0  0  0  0  0  0  0  0  0  0  0
    5.3671   -7.1955    0.0000 H   0  0  0  0  0  0  0  0  0  0  0  0
    5.5042   -6.3294    0.0000 H   0  0  0  0  0  0  0  0  0  0  0  0
    5.5883   -5.7986    0.0000 H   0  0  0  0  0  0  0  0  0  0  0  0
    5.7255   -4.9326    0.0000 H   0  0  0  0  0  0  0  0  0  0  0  0
    4.8595   -4.7955    0.0000 H   0  0  0  0  0  0  0  0  0  0  0  0
    3.4417   -6.5462    0.0000 H   0  0  0  0  0  0  0  0  0  0  0  0
    3.7559   -7.3648    0.0000 H   0  0  0  0  0  0  0  0  0  0  0  0
    4.5745   -7.0506    0.0000 H   0  0  0  0  0  0  0  0  0  0  0  0
    5.3456   -3.1740    0.0000 H   0  0  0  0  0  0  0  0  0  0  0  0
    5.4289   -2.3813    0.0000 H   0  0  0  0  0  0  0  0  0  0  0  0
    4.0774   -1.3684    0.0000 H   0  0  0  0  0  0  0  0  0  0  0  0
    3.9941   -2.1611    0.0000 H   0  0  0  0  0  0  0  0  0  0  0  0
    5.5266   -1.4514    0.0000 H   0  0  0  0  0  0  0  0  0  0  0  0
    5.6099   -0.6587    0.0000 H   0  0  0  0  0  0  0  0  0  0  0  0
    4.2585    0.3541    0.0000 H   0  0  0  0  0  0  0  0  0  0  0  0
    4.1752   -0.4386    0.0000 H   0  0  0  0  0  0  0  0  0  0  0  0
    5.7076    0.2712    0.0000 H   0  0  0  0  0  0  0  0  0  0  0  0
    5.7910    1.0638    0.0000 H   0  0  0  0  0  0  0  0  0  0  0  0
    4.4395    2.0767    0.0000 H   0  0  0  0  0  0  0  0  0  0  0  0
    4.3562    1.2840    0.0000 H   0  0  0  0  0  0  0  0  0  0  0  0
    5.8887    1.9937    0.0000 H   0  0  0  0  0  0  0  0  0  0  0  0
    5.9720    2.7864    0.0000 H   0  0  0  0  0  0  0  0  0  0  0  0
    4.6206    3.7992    0.0000 H   0  0  0  0  0  0  0  0  0  0  0  0
    4.5373    3.0066    0.0000 H   0  0  0  0  0  0  0  0  0  0  0  0
    6.0698    3.7163    0.0000 H   0  0  0  0  0  0  0  0  0  0  0  0
    6.1531    4.5090    0.0000 H   0  0  0  0  0  0  0  0  0  0  0  0
    4.8016    5.5218    0.0000 H   0  0  0  0  0  0  0  0  0  0  0  0
    4.7183    4.7291    0.0000 H   0  0  0  0  0  0  0  0  0  0  0  0
    6.2508    5.4389    0.0000 H   0  0  0  0  0  0  0  0  0  0  0  0
    6.3341    6.2315    0.0000 H   0  0  0  0  0  0  0  0  0  0  0  0
    5.9798    7.0506    0.0000 H   0  0  0  0  0  0  0  0  0  0  0  0
    5.1612    7.3648    0.0000 H   0  0  0  0  0  0  0  0  0  0  0  0
    4.8470    6.5462    0.0000 H   0  0  0  0  0  0  0  0  0  0  0  0
  1  2  1  0  0  0  0
  1  3  1  0  0  0  0
  1  4  1  0  0  0  0
  1  5  1  0  0  0  0
  2  6  1  0  0  0  0
  3  7  1  0  0  0  0
  4  8  1  0  0  0  0
  4  9  1  0  0  0  0
  4 10  1  0  0  0  0
  5 11  1  0  0  0  0
  5 12  1  0  0  0  0
  5 13  1  0  0  0  0
  6  7  1  0  0  0  0
  6 14  1  0  0  0  0
  6 26  1  0  0  0  0
  7 27  1  0  0  0  0
  7 28  1  0  0  0  0
  8 29  1  0  0  0  0
  8 30  1  0  0  0  0
  8 31  1  0  0  0  0
  9 32  1  0  0  0  0
  9 33  1  0  0  0  0
  9 34  1  0  0  0  0
 10 35  1  0  0  0  0
 10 36  1  0  0  0  0
 10 37  1  0  0  0  0
 11 38  1  0  0  0  0
 11 39  1  0  0  0  0
 11 40  1  0  0  0  0
 12 41  1  0  0  0  0
 12 42  1  0  0  0  0
 12 43  1  0  0  0  0
 13 44  1  0  0  0  0
 13 45  1  0  0  0  0
 13 46  1  0  0  0  0
 14 15  1  0  0  0  0
 14 47  1  0  0  0  0
 14 48  1  0  0  0  0
 15 16  1  0  0  0  0
 15 49  1  0  0  0  0
 15 50  1  0  0  0  0
 16 17  1  0  0  0  0
 16 51  1  0  0  0  0
 16 52  1  0  0  0  0
 17 18  1  0  0  0  0
 17 53  1  0  0  0  0
 17 54  1  0  0  0  0
 18 19  1  0  0  0  0
 18 55  1  0  0  0  0
 18 56  1  0  0  0  0
 19 20  1  0  0  0  0
 19 57  1  0  0  0  0
 19 58  1  0  0  0  0
 20 21  1  0  0  0  0
 20 59  1  0  0  0  0
 20 60  1  0  0  0  0
 21 22  1  0  0  0  0
 21 61  1  0  0  0  0
 21 62  1  0  0  0  0
 22 23  1  0  0  0  0
 22 63  1  0  0  0  0
 22 64  1  0  0  0  0
 23 24  1  0  0  0  0
 23 65  1  0  0  0  0
 23 66  1  0  0  0  0
 24 25  1  0  0  0  0
 24 67  1  0  0  0  0
 24 68  1  0  0  0  0
 25 69  1  0  0  0  0
 25 70  1  0  0  0  0
 25 71  1  0  0  0  0
M  END
> <PUBCHEM_COMPOUND_CID>
523740
> <PUBCHEM_COMPOUND_CANONICALIZED>
1
> <PUBCHEM_CACTVS_COMPLEXITY>
340
> <PUBCHEM_CACTVS_HBOND_ACCEPTOR>
2
> <PUBCHEM_CACTVS_HBOND_DONOR>
0
> <PUBCHEM_CACTVS_ROTATABLE_BOND>
13
> <PUBCHEM_CACTVS_SUBSKEYS>
AAADcfB4MAgAAAAAAAAAAAAAAAAAASAAAAAAAAAAAAAAAAAAAAAAGhAAAEAADBSgoAICAAAAAAEAAAAAAAAAAAAAAAAAAAAAAAABAAIAAAAAAAAEAAAAAAGAwKAAAAAAAAAAAAAAAAAAAAAAAAAAAAAAAA==
> <PUBCHEM_IUPAC_OPENEYE_NAME>
2,2-ditert-butyl-4-dodecyl-1,3,2-dioxasilolane
> <PUBCHEM_IUPAC_CAS_NAME>
2,2-ditert-butyl-4-dodecyl-1,3,2-dioxasilolane
> <PUBCHEM_IUPAC_NAME_MARKUP>
2,2-di<I>tert</I>-butyl-4-dodecyl-1,3,2-dioxasilolane
> <PUBCHEM_IUPAC_NAME>
2,2-ditert-butyl-4-dodecyl-1,3,2-dioxasilolane
> <PUBCHEM_IUPAC_SYSTEMATIC_NAME>
2,2-ditert-butyl-4-dodecyl-1,3,2-dioxasilolane
> <PUBCHEM_IUPAC_TRADITIONAL_NAME>
2,2-ditert-butyl-4-lauryl-1,3,2-dioxasilolane
> <PUBCHEM_IUPAC_INCHI>
InChI=1S/C22H46O2Si/c1-8-9-10-11-12-13-14-15-16-17-18-20-19-23-25(24-20,21(2,3)4)22(5,6)7/h20H,8-19H2,1-7H3
> <PUBCHEM_IUPAC_INCHIKEY>
IODDGNJZXPADLS-UHFFFAOYSA-N
> <PUBCHEM_EXACT_MASS>
370.32670724
> <PUBCHEM_MOLECULAR_FORMULA>
C22H46O2Si
> <PUBCHEM_MOLECULAR_WEIGHT>
370.7
> <PUBCHEM_OPENEYE_CAN_SMILES>
CCCCCCCCCCCCC1CO[Si](O1)(C(C)(C)C)C(C)(C)C
> <PUBCHEM_OPENEYE_ISO_SMILES>
CCCCCCCCCCCCC1CO[Si](O1)(C(C)(C)C)C(C)(C)C
> <PUBCHEM_CACTVS_TPSA>
18.5
> <PUBCHEM_MONOISOTOPIC_WEIGHT>
370.32670724
> <PUBCHEM_TOTAL_CHARGE>
0
> <PUBCHEM_HEAVY_ATOM_COUNT>
25
> <PUBCHEM_ATOM_DEF_STEREO_COUNT>
0
> <PUBCHEM_ATOM_UDEF_STEREO_COUNT>
1
> <PUBCHEM_BOND_DEF_STEREO_COUNT>
0
> <PUBCHEM_BOND_UDEF_STEREO_COUNT>
0
> <PUBCHEM_ISOTOPIC_ATOM_COUNT>
0
> <PUBCHEM_COMPONENT_COUNT>
1
> <PUBCHEM_CACTVS_TAUTO_COUNT>
-1
> <PUBCHEM_COORDINATE_TYPE>
1
5
255
> <PUBCHEM_BONDANNOTATIONS>
6  14  3
$$$$
