523737
  -OEChem-10302200292D
 63 64  0     1  0  0  0  0  0999 V2000
    5.5640    1.5250    0.0000 Si  0  0  0  0  0  0  0  0  0  0  0  0
    4.5752    1.4219    0.0000 O   0  0  0  0  0  0  0  0  0  0  0  0
    5.9691    0.6172    0.0000 O   0  0  0  0  0  0  0  0  0  0  0  0
    6.5585    1.4204    0.0000 C   0  0  0  0  0  0  0  0  0  0  0  0
    5.4594    2.5195    0.0000 C   0  0  0  0  0  0  0  0  0  0  0  0
    4.3660    0.4501    0.0000 C   0  0  3  0  0  0  0  0  0  0  0  0
    5.2320   -0.0499    0.0000 C   0  0  3  0  0  0  0  0  0  0  0  0
    3.5000   -0.0499    0.0000 C   0  0  0  0  0  0  0  0  0  0  0  0
    5.2320   -1.0499    0.0000 C   0  0  0  0  0  0  0  0  0  0  0  0
    7.5530    1.3159    0.0000 C   0  0  0  0  0  0  0  0  0  0  0  0
    6.9653    0.5069    0.0000 C   0  0  0  0  0  0  0  0  0  0  0  0
    6.6630    2.4150    0.0000 C   0  0  0  0  0  0  0  0  0  0  0  0
    5.3549    3.5140    0.0000 C   0  0  0  0  0  0  0  0  0  0  0  0
    4.4649    2.4150    0.0000 C   0  0  0  0  0  0  0  0  0  0  0  0
    6.2684    3.1073    0.0000 C   0  0  0  0  0  0  0  0  0  0  0  0
    2.5000   -0.0499    0.0000 C   0  0  0  0  0  0  0  0  0  0  0  0
    4.8660   -2.1480    0.0000 C   0  0  0  0  0  0  0  0  0  0  0  0
    2.0000   -0.9159    0.0000 C   0  0  0  0  0  0  0  0  0  0  0  0
    4.0000   -2.6480    0.0000 C   0  0  0  0  0  0  0  0  0  0  0  0
    2.5000   -1.7820    0.0000 C   0  0  0  0  0  0  0  0  0  0  0  0
    3.5000   -3.5140    0.0000 C   0  0  0  0  0  0  0  0  0  0  0  0
    2.0000   -2.6480    0.0000 C   0  0  0  0  0  0  0  0  0  0  0  0
    2.5000   -3.5140    0.0000 C   0  0  0  0  0  0  0  0  0  0  0  0
    3.8649    0.8152    0.0000 H   0  0  0  0  0  0  0  0  0  0  0  0
    5.7988   -0.3013    0.0000 H   0  0  0  0  0  0  0  0  0  0  0  0
    3.2880   -0.6325    0.0000 H   0  0  0  0  0  0  0  0  0  0  0  0
    3.3395    0.5490    0.0000 H   0  0  0  0  0  0  0  0  0  0  0  0
    5.6907   -1.4671    0.0000 H   0  0  0  0  0  0  0  0  0  0  0  0
    4.6201   -0.9506    0.0000 H   0  0  0  0  0  0  0  0  0  0  0  0
    7.4882    0.6993    0.0000 H   0  0  0  0  0  0  0  0  0  0  0  0
    8.1696    1.2511    0.0000 H   0  0  0  0  0  0  0  0  0  0  0  0
    7.6178    1.9325    0.0000 H   0  0  0  0  0  0  0  0  0  0  0  0
    6.3989    0.2547    0.0000 H   0  0  0  0  0  0  0  0  0  0  0  0
    7.2175   -0.0594    0.0000 H   0  0  0  0  0  0  0  0  0  0  0  0
    7.5317    0.7592    0.0000 H   0  0  0  0  0  0  0  0  0  0  0  0
    7.2796    2.3502    0.0000 H   0  0  0  0  0  0  0  0  0  0  0  0
    6.7278    3.0316    0.0000 H   0  0  0  0  0  0  0  0  0  0  0  0
    6.0464    2.4798    0.0000 H   0  0  0  0  0  0  0  0  0  0  0  0
    5.9715    3.5788    0.0000 H   0  0  0  0  0  0  0  0  0  0  0  0
    5.2901    4.1306    0.0000 H   0  0  0  0  0  0  0  0  0  0  0  0
    4.7383    3.4492    0.0000 H   0  0  0  0  0  0  0  0  0  0  0  0
    4.4001    3.0316    0.0000 H   0  0  0  0  0  0  0  0  0  0  0  0
    3.8483    2.3502    0.0000 H   0  0  0  0  0  0  0  0  0  0  0  0
    4.5297    1.7984    0.0000 H   0  0  0  0  0  0  0  0  0  0  0  0
    6.6329    2.6057    0.0000 H   0  0  0  0  0  0  0  0  0  0  0  0
    6.7700    3.4717    0.0000 H   0  0  0  0  0  0  0  0  0  0  0  0
    5.9040    3.6089    0.0000 H   0  0  0  0  0  0  0  0  0  0  0  0
    2.6077    0.5607    0.0000 H   0  0  0  0  0  0  0  0  0  0  0  0
    1.9174    0.1621    0.0000 H   0  0  0  0  0  0  0  0  0  0  0  0
    5.0145   -2.7499    0.0000 H   0  0  0  0  0  0  0  0  0  0  0  0
    5.4855   -2.1728    0.0000 H   0  0  0  0  0  0  0  0  0  0  0  0
    1.5250   -0.5174    0.0000 H   0  0  0  0  0  0  0  0  0  0  0  0
    1.5250   -1.3145    0.0000 H   0  0  0  0  0  0  0  0  0  0  0  0
    3.8923   -2.0374    0.0000 H   0  0  0  0  0  0  0  0  0  0  0  0
    4.4384   -3.0864    0.0000 H   0  0  0  0  0  0  0  0  0  0  0  0
    2.9750   -2.1805    0.0000 H   0  0  0  0  0  0  0  0  0  0  0  0
    2.9750   -1.3834    0.0000 H   0  0  0  0  0  0  0  0  0  0  0  0
    3.3923   -4.1246    0.0000 H   0  0  0  0  0  0  0  0  0  0  0  0
    4.0826   -3.7261    0.0000 H   0  0  0  0  0  0  0  0  0  0  0  0
    1.5250   -2.2494    0.0000 H   0  0  0  0  0  0  0  0  0  0  0  0
    1.5250   -3.0465    0.0000 H   0  0  0  0  0  0  0  0  0  0  0  0
    1.9174   -3.7261    0.0000 H   0  0  0  0  0  0  0  0  0  0  0  0
    2.6077   -4.1246    0.0000 H   0  0  0  0  0  0  0  0  0  0  0  0
  1  2  1  0  0  0  0
  1  3  1  0  0  0  0
  1  4  1  0  0  0  0
  1  5  1  0  0  0  0
  2  6  1  0  0  0  0
  3  7  1  0  0  0  0
  4 10  1  0  0  0  0
  4 11  1  0  0  0  0
  4 12  1  0  0  0  0
  5 13  1  0  0  0  0
  5 14  1  0  0  0  0
  5 15  1  0  0  0  0
  6  7  1  0  0  0  0
  6  8  1  0  0  0  0
  6 24  1  0  0  0  0
  7  9  1  0  0  0  0
  7 25  1  0  0  0  0
  8 16  1  0  0  0  0
  8 26  1  0  0  0  0
  8 27  1  0  0  0  0
  9 17  1  0  0  0  0
  9 28  1  0  0  0  0
  9 29  1  0  0  0  0
 10 30  1  0  0  0  0
 10 31  1  0  0  0  0
 10 32  1  0  0  0  0
 11 33  1  0  0  0  0
 11 34  1  0  0  0  0
 11 35  1  0  0  0  0
 12 36  1  0  0  0  0
 12 37  1  0  0  0  0
 12 38  1  0  0  0  0
 13 39  1  0  0  0  0
 13 40  1  0  0  0  0
 13 41  1  0  0  0  0
 14 42  1  0  0  0  0
 14 43  1  0  0  0  0
 14 44  1  0  0  0  0
 15 45  1  0  0  0  0
 15 46  1  0  0  0  0
 15 47  1  0  0  0  0
 16 18  1  0  0  0  0
 16 48  1  0  0  0  0
 16 49  1  0  0  0  0
 17 19  1  0  0  0  0
 17 50  1  0  0  0  0
 17 51  1  0  0  0  0
 18 20  1  0  0  0  0
 18 52  1  0  0  0  0
 18 53  1  0  0  0  0
 19 21  1  0  0  0  0
 19 54  1  0  0  0  0
 19 55  1  0  0  0  0
 20 22  1  0  0  0  0
 20 56  1  0  0  0  0
 20 57  1  0  0  0  0
 21 23  1  0  0  0  0
 21 58  1  0  0  0  0
 21 59  1  0  0  0  0
 22 23  1  0  0  0  0
 22 60  1  0  0  0  0
 22 61  1  0  0  0  0
 23 62  1  0  0  0  0
 23 63  1  0  0  0  0
M  END
> <PUBCHEM_COMPOUND_CID>
523737
> <PUBCHEM_COMPOUND_CANONICALIZED>
1
> <PUBCHEM_CACTVS_COMPLEXITY>
331
> <PUBCHEM_CACTVS_HBOND_ACCEPTOR>
2
> <PUBCHEM_CACTVS_HBOND_DONOR>
0
> <PUBCHEM_CACTVS_ROTATABLE_BOND>
2
> <PUBCHEM_CACTVS_SUBSKEYS>
AAADcfB4MAgAAAAAAAAAAAAAAAAAASAAAAAAAAAAAAAAAAAAAAAAGhAAAEAADBSgoAICAAAAAAEAAAAAAAAAAAAAAAAAAAAAAAABAAIAAAAAAAAEAAAAAAGAwKAAAAAAAAAAAAAAAAAAAAAAAAAAAAAAAA==
> <PUBCHEM_IUPAC_OPENEYE_NAME>
2,2-ditert-butyl-3a,4,5,6,7,8,9,10,11,12,13,13a-dodecahydrocyclododeca[d][1,3,2]dioxasilole
> <PUBCHEM_IUPAC_CAS_NAME>
2,2-ditert-butyl-3a,4,5,6,7,8,9,10,11,12,13,13a-dodecahydrocyclododeca[d][1,3,2]dioxasilole
> <PUBCHEM_IUPAC_NAME_MARKUP>
2,2-di<I>tert</I>-butyl-3<I>a</I>,4,5,6,7,8,9,10,11,12,13,13<I>a</I>-dodecahydrocyclododeca[d][1,3,2]dioxasilole
> <PUBCHEM_IUPAC_NAME>
2,2-ditert-butyl-3a,4,5,6,7,8,9,10,11,12,13,13a-dodecahydrocyclododeca[d][1,3,2]dioxasilole
> <PUBCHEM_IUPAC_SYSTEMATIC_NAME>
2,2-ditert-butyl-3a,4,5,6,7,8,9,10,11,12,13,13a-dodecahydrocyclododeca[d][1,3,2]dioxasilole
> <PUBCHEM_IUPAC_TRADITIONAL_NAME>
2,2-ditert-butyl-3a,4,5,6,7,8,9,10,11,12,13,13a-dodecahydrocyclododeca[d][1,3,2]dioxasilole
> <PUBCHEM_IUPAC_INCHI>
InChI=1S/C20H40O2Si/c1-19(2,3)23(20(4,5)6)21-17-15-13-11-9-7-8-10-12-14-16-18(17)22-23/h17-18H,7-16H2,1-6H3
> <PUBCHEM_IUPAC_INCHIKEY>
RLPUWUWWCZGDJU-UHFFFAOYSA-N
> <PUBCHEM_EXACT_MASS>
340.27975705
> <PUBCHEM_MOLECULAR_FORMULA>
C20H40O2Si
> <PUBCHEM_MOLECULAR_WEIGHT>
340.6
> <PUBCHEM_OPENEYE_CAN_SMILES>
CC(C)(C)[Si]1(OC2CCCCCCCCCCC2O1)C(C)(C)C
> <PUBCHEM_OPENEYE_ISO_SMILES>
CC(C)(C)[Si]1(OC2CCCCCCCCCCC2O1)C(C)(C)C
> <PUBCHEM_CACTVS_TPSA>
18.5
> <PUBCHEM_MONOISOTOPIC_WEIGHT>
340.27975705
> <PUBCHEM_TOTAL_CHARGE>
0
> <PUBCHEM_HEAVY_ATOM_COUNT>
23
> <PUBCHEM_ATOM_DEF_STEREO_COUNT>
0
> <PUBCHEM_ATOM_UDEF_STEREO_COUNT>
2
> <PUBCHEM_BOND_DEF_STEREO_COUNT>
0
> <PUBCHEM_BOND_UDEF_STEREO_COUNT>
0
> <PUBCHEM_ISOTOPIC_ATOM_COUNT>
0
> <PUBCHEM_COMPONENT_COUNT>
1
> <PUBCHEM_CACTVS_TAUTO_COUNT>
-1
> <PUBCHEM_COORDINATE_TYPE>
1
5
255
> <PUBCHEM_BONDANNOTATIONS>
6  8  3
7  9  3
$$$$
