523702
  -OEChem-10302200292D
 50 49  0     1  0  0  0  0  0999 V2000
    9.7942    1.0000    0.0000 Si  0  0  0  0  0  0  0  0  0  0  0  0
    2.8660    1.0000    0.0000 Si  0  0  0  0  0  0  0  0  0  0  0  0
    8.9282    0.5000    0.0000 O   0  0  0  0  0  0  0  0  0  0  0  0
    3.7320    0.5000    0.0000 O   0  0  0  0  0  0  0  0  0  0  0  0
    8.0622    2.0000    0.0000 O   0  0  0  0  0  0  0  0  0  0  0  0
    4.5981    2.0000    0.0000 O   0  0  0  0  0  0  0  0  0  0  0  0
    7.1962    0.5000    0.0000 C   0  0  3  0  0  0  0  0  0  0  0  0
    6.3301    1.0000    0.0000 C   0  0  0  0  0  0  0  0  0  0  0  0
    7.1962   -0.5000    0.0000 C   0  0  0  0  0  0  0  0  0  0  0  0
    5.4641    0.5000    0.0000 C   0  0  0  0  0  0  0  0  0  0  0  0
    8.0622    1.0000    0.0000 C   0  0  0  0  0  0  0  0  0  0  0  0
    6.3301   -1.0000    0.0000 C   0  0  0  0  0  0  0  0  0  0  0  0
    4.5981    1.0000    0.0000 C   0  0  0  0  0  0  0  0  0  0  0  0
   10.6603    1.5000    0.0000 C   0  0  0  0  0  0  0  0  0  0  0  0
   10.2942    0.1340    0.0000 C   0  0  0  0  0  0  0  0  0  0  0  0
    9.2942    1.8660    0.0000 C   0  0  0  0  0  0  0  0  0  0  0  0
    6.3301   -2.0000    0.0000 C   0  0  0  0  0  0  0  0  0  0  0  0
    2.0000    1.5000    0.0000 C   0  0  0  0  0  0  0  0  0  0  0  0
    2.3660    0.1340    0.0000 C   0  0  0  0  0  0  0  0  0  0  0  0
    3.3660    1.8660    0.0000 C   0  0  0  0  0  0  0  0  0  0  0  0
    6.6592    0.1900    0.0000 H   0  0  0  0  0  0  0  0  0  0  0  0
    6.7287    1.4750    0.0000 H   0  0  0  0  0  0  0  0  0  0  0  0
    5.9316    1.4750    0.0000 H   0  0  0  0  0  0  0  0  0  0  0  0
    7.4082   -1.0826    0.0000 H   0  0  0  0  0  0  0  0  0  0  0  0
    7.8067   -0.3923    0.0000 H   0  0  0  0  0  0  0  0  0  0  0  0
    5.0656    0.0251    0.0000 H   0  0  0  0  0  0  0  0  0  0  0  0
    5.8626    0.0251    0.0000 H   0  0  0  0  0  0  0  0  0  0  0  0
    6.1181   -0.4174    0.0000 H   0  0  0  0  0  0  0  0  0  0  0  0
    5.7196   -1.1077    0.0000 H   0  0  0  0  0  0  0  0  0  0  0  0
   10.9703    0.9631    0.0000 H   0  0  0  0  0  0  0  0  0  0  0  0
   11.1972    1.8100    0.0000 H   0  0  0  0  0  0  0  0  0  0  0  0
   10.3503    2.0369    0.0000 H   0  0  0  0  0  0  0  0  0  0  0  0
    9.7573   -0.1760    0.0000 H   0  0  0  0  0  0  0  0  0  0  0  0
   10.6042   -0.4030    0.0000 H   0  0  0  0  0  0  0  0  0  0  0  0
   10.8312    0.4440    0.0000 H   0  0  0  0  0  0  0  0  0  0  0  0
    9.8312    2.1760    0.0000 H   0  0  0  0  0  0  0  0  0  0  0  0
    8.9842    2.4030    0.0000 H   0  0  0  0  0  0  0  0  0  0  0  0
    8.7573    1.5560    0.0000 H   0  0  0  0  0  0  0  0  0  0  0  0
    5.7101   -2.0000    0.0000 H   0  0  0  0  0  0  0  0  0  0  0  0
    6.3301   -2.6200    0.0000 H   0  0  0  0  0  0  0  0  0  0  0  0
    6.9501   -2.0000    0.0000 H   0  0  0  0  0  0  0  0  0  0  0  0
    2.3100    2.0369    0.0000 H   0  0  0  0  0  0  0  0  0  0  0  0
    1.4631    1.8100    0.0000 H   0  0  0  0  0  0  0  0  0  0  0  0
    1.6900    0.9631    0.0000 H   0  0  0  0  0  0  0  0  0  0  0  0
    1.8291    0.4440    0.0000 H   0  0  0  0  0  0  0  0  0  0  0  0
    2.0560   -0.4030    0.0000 H   0  0  0  0  0  0  0  0  0  0  0  0
    2.9030   -0.1760    0.0000 H   0  0  0  0  0  0  0  0  0  0  0  0
    3.9030    1.5560    0.0000 H   0  0  0  0  0  0  0  0  0  0  0  0
    3.6760    2.4030    0.0000 H   0  0  0  0  0  0  0  0  0  0  0  0
    2.8291    2.1760    0.0000 H   0  0  0  0  0  0  0  0  0  0  0  0
  1  3  1  0  0  0  0
  1 14  1  0  0  0  0
  1 15  1  0  0  0  0
  1 16  1  0  0  0  0
  2  4  1  0  0  0  0
  2 18  1  0  0  0  0
  2 19  1  0  0  0  0
  2 20  1  0  0  0  0
  3 11  1  0  0  0  0
  4 13  1  0  0  0  0
  5 11  2  0  0  0  0
  6 13  2  0  0  0  0
  7  8  1  0  0  0  0
  7  9  1  0  0  0  0
  7 11  1  0  0  0  0
  7 21  1  0  0  0  0
  8 10  1  0  0  0  0
  8 22  1  0  0  0  0
  8 23  1  0  0  0  0
  9 12  1  0  0  0  0
  9 24  1  0  0  0  0
  9 25  1  0  0  0  0
 10 13  1  0  0  0  0
 10 26  1  0  0  0  0
 10 27  1  0  0  0  0
 12 17  1  0  0  0  0
 12 28  1  0  0  0  0
 12 29  1  0  0  0  0
 14 30  1  0  0  0  0
 14 31  1  0  0  0  0
 14 32  1  0  0  0  0
 15 33  1  0  0  0  0
 15 34  1  0  0  0  0
 15 35  1  0  0  0  0
 16 36  1  0  0  0  0
 16 37  1  0  0  0  0
 16 38  1  0  0  0  0
 17 39  1  0  0  0  0
 17 40  1  0  0  0  0
 17 41  1  0  0  0  0
 18 42  1  0  0  0  0
 18 43  1  0  0  0  0
 18 44  1  0  0  0  0
 19 45  1  0  0  0  0
 19 46  1  0  0  0  0
 19 47  1  0  0  0  0
 20 48  1  0  0  0  0
 20 49  1  0  0  0  0
 20 50  1  0  0  0  0
M  END
> <PUBCHEM_COMPOUND_CID>
523702
> <PUBCHEM_COMPOUND_CANONICALIZED>
1
> <PUBCHEM_CACTVS_COMPLEXITY>
329
> <PUBCHEM_CACTVS_HBOND_ACCEPTOR>
4
> <PUBCHEM_CACTVS_HBOND_DONOR>
0
> <PUBCHEM_CACTVS_ROTATABLE_BOND>
10
> <PUBCHEM_CACTVS_SUBSKEYS>
AAADceBwOAwAAAAAAAAAAAAAAAAAAAAAAAAAAAAAAAAAAAAAAAAAGhAAAEAADQCAgABCCAAAAAEIAACQCAAAAAAAAAAAAAEAAAAAABIAAAAAAAAEAAAAAAGI7iCOAAAAAAAAAAAAAAAAAAAAAAAAAAAAAA==
> <PUBCHEM_IUPAC_OPENEYE_NAME>
bis(trimethylsilyl) 2-propylpentanedioate
> <PUBCHEM_IUPAC_CAS_NAME>
2-propylpentanedioic acid bis(trimethylsilyl) ester
> <PUBCHEM_IUPAC_NAME_MARKUP>
bis(trimethylsilyl) 2-propylpentanedioate
> <PUBCHEM_IUPAC_NAME>
bis(trimethylsilyl) 2-propylpentanedioate
> <PUBCHEM_IUPAC_SYSTEMATIC_NAME>
bis(trimethylsilyl) 2-propylpentanedioate
> <PUBCHEM_IUPAC_TRADITIONAL_NAME>
2-propylglutaric acid bis(trimethylsilyl) ester
> <PUBCHEM_IUPAC_INCHI>
InChI=1S/C14H30O4Si2/c1-8-9-12(14(16)18-20(5,6)7)10-11-13(15)17-19(2,3)4/h12H,8-11H2,1-7H3
> <PUBCHEM_IUPAC_INCHIKEY>
MTIYPCGPTBSGLS-UHFFFAOYSA-N
> <PUBCHEM_EXACT_MASS>
318.16826250
> <PUBCHEM_MOLECULAR_FORMULA>
C14H30O4Si2
> <PUBCHEM_MOLECULAR_WEIGHT>
318.56
> <PUBCHEM_OPENEYE_CAN_SMILES>
CCCC(CCC(=O)O[Si](C)(C)C)C(=O)O[Si](C)(C)C
> <PUBCHEM_OPENEYE_ISO_SMILES>
CCCC(CCC(=O)O[Si](C)(C)C)C(=O)O[Si](C)(C)C
> <PUBCHEM_CACTVS_TPSA>
52.6
> <PUBCHEM_MONOISOTOPIC_WEIGHT>
318.16826250
> <PUBCHEM_TOTAL_CHARGE>
0
> <PUBCHEM_HEAVY_ATOM_COUNT>
20
> <PUBCHEM_ATOM_DEF_STEREO_COUNT>
0
> <PUBCHEM_ATOM_UDEF_STEREO_COUNT>
1
> <PUBCHEM_BOND_DEF_STEREO_COUNT>
0
> <PUBCHEM_BOND_UDEF_STEREO_COUNT>
0
> <PUBCHEM_ISOTOPIC_ATOM_COUNT>
0
> <PUBCHEM_COMPONENT_COUNT>
1
> <PUBCHEM_CACTVS_TAUTO_COUNT>
-1
> <PUBCHEM_COORDINATE_TYPE>
1
5
255
> <PUBCHEM_BONDANNOTATIONS>
7  9  3
$$$$
