523759
  -OEChem-10302200292D
 82 82  0     1  0  0  0  0  0999 V2000
    9.7942   -5.3840    0.0000 Si  0  0  0  0  0  0  0  0  0  0  0  0
    8.9282   -4.8840    0.0000 O   0  0  0  0  0  0  0  0  0  0  0  0
   10.6603   -4.8840    0.0000 O   0  0  0  0  0  0  0  0  0  0  0  0
   11.5263   -3.3840    0.0000 O   0  0  0  0  0  0  0  0  0  0  0  0
    8.9282   -5.8840    0.0000 C   0  0  0  0  0  0  0  0  0  0  0  0
   10.2942   -6.2500    0.0000 C   0  0  0  0  0  0  0  0  0  0  0  0
    8.9282   -3.8840    0.0000 C   0  0  3  0  0  0  0  0  0  0  0  0
    8.0622   -6.3840    0.0000 C   0  0  0  0  0  0  0  0  0  0  0  0
    8.0622   -5.3839    0.0000 C   0  0  0  0  0  0  0  0  0  0  0  0
    8.9282   -6.8840    0.0000 C   0  0  0  0  0  0  0  0  0  0  0  0
   10.7942   -7.1160    0.0000 C   0  0  0  0  0  0  0  0  0  0  0  0
   11.1603   -5.7500    0.0000 C   0  0  0  0  0  0  0  0  0  0  0  0
    9.7942   -7.1160    0.0000 C   0  0  0  0  0  0  0  0  0  0  0  0
    9.7942   -3.3840    0.0000 C   0  0  0  0  0  0  0  0  0  0  0  0
    8.0622   -3.3840    0.0000 C   0  0  0  0  0  0  0  0  0  0  0  0
   10.6603   -3.8840    0.0000 C   0  0  0  0  0  0  0  0  0  0  0  0
    8.0622   -2.3840    0.0000 C   0  0  0  0  0  0  0  0  0  0  0  0
    7.1962   -1.8840    0.0000 C   0  0  0  0  0  0  0  0  0  0  0  0
    7.1962   -0.8840    0.0000 C   0  0  0  0  0  0  0  0  0  0  0  0
    6.3301   -0.3840    0.0000 C   0  0  0  0  0  0  0  0  0  0  0  0
    6.3301    0.6160    0.0000 C   0  0  0  0  0  0  0  0  0  0  0  0
    5.4641    1.1160    0.0000 C   0  0  0  0  0  0  0  0  0  0  0  0
    5.4641    2.1160    0.0000 C   0  0  0  0  0  0  0  0  0  0  0  0
    4.5981    2.6160    0.0000 C   0  0  0  0  0  0  0  0  0  0  0  0
    4.5981    3.6160    0.0000 C   0  0  0  0  0  0  0  0  0  0  0  0
    3.7320    4.1160    0.0000 C   0  0  0  0  0  0  0  0  0  0  0  0
    3.7320    5.1160    0.0000 C   0  0  0  0  0  0  0  0  0  0  0  0
    2.8660    5.6160    0.0000 C   0  0  0  0  0  0  0  0  0  0  0  0
    2.8660    6.6160    0.0000 C   0  0  0  0  0  0  0  0  0  0  0  0
    2.0000    7.1160    0.0000 C   0  0  0  0  0  0  0  0  0  0  0  0
    8.3913   -4.1940    0.0000 H   0  0  0  0  0  0  0  0  0  0  0  0
    7.7522   -5.8471    0.0000 H   0  0  0  0  0  0  0  0  0  0  0  0
    7.5253   -6.6940    0.0000 H   0  0  0  0  0  0  0  0  0  0  0  0
    8.3722   -6.9209    0.0000 H   0  0  0  0  0  0  0  0  0  0  0  0
    8.3722   -4.8470    0.0000 H   0  0  0  0  0  0  0  0  0  0  0  0
    7.5252   -5.0739    0.0000 H   0  0  0  0  0  0  0  0  0  0  0  0
    7.7521   -5.9208    0.0000 H   0  0  0  0  0  0  0  0  0  0  0  0
    8.3082   -6.8840    0.0000 H   0  0  0  0  0  0  0  0  0  0  0  0
    8.9282   -7.5040    0.0000 H   0  0  0  0  0  0  0  0  0  0  0  0
    9.5482   -6.8840    0.0000 H   0  0  0  0  0  0  0  0  0  0  0  0
   10.2573   -7.4260    0.0000 H   0  0  0  0  0  0  0  0  0  0  0  0
   11.1042   -7.6530    0.0000 H   0  0  0  0  0  0  0  0  0  0  0  0
   11.3312   -6.8060    0.0000 H   0  0  0  0  0  0  0  0  0  0  0  0
   11.4703   -6.2869    0.0000 H   0  0  0  0  0  0  0  0  0  0  0  0
   11.6972   -5.4400    0.0000 H   0  0  0  0  0  0  0  0  0  0  0  0
   10.8503   -5.2131    0.0000 H   0  0  0  0  0  0  0  0  0  0  0  0
    9.2573   -6.8060    0.0000 H   0  0  0  0  0  0  0  0  0  0  0  0
    9.4842   -7.6529    0.0000 H   0  0  0  0  0  0  0  0  0  0  0  0
   10.3311   -7.4260    0.0000 H   0  0  0  0  0  0  0  0  0  0  0  0
   10.1928   -2.9090    0.0000 H   0  0  0  0  0  0  0  0  0  0  0  0
    9.3957   -2.9090    0.0000 H   0  0  0  0  0  0  0  0  0  0  0  0
    7.4516   -3.2763    0.0000 H   0  0  0  0  0  0  0  0  0  0  0  0
    7.8501   -3.9666    0.0000 H   0  0  0  0  0  0  0  0  0  0  0  0
    8.6728   -2.4916    0.0000 H   0  0  0  0  0  0  0  0  0  0  0  0
    8.2742   -1.8014    0.0000 H   0  0  0  0  0  0  0  0  0  0  0  0
    6.5856   -1.7763    0.0000 H   0  0  0  0  0  0  0  0  0  0  0  0
    6.9841   -2.4666    0.0000 H   0  0  0  0  0  0  0  0  0  0  0  0
    7.8067   -0.9916    0.0000 H   0  0  0  0  0  0  0  0  0  0  0  0
    7.4082   -0.3014    0.0000 H   0  0  0  0  0  0  0  0  0  0  0  0
    5.7196   -0.2763    0.0000 H   0  0  0  0  0  0  0  0  0  0  0  0
    6.1181   -0.9666    0.0000 H   0  0  0  0  0  0  0  0  0  0  0  0
    6.9407    0.5084    0.0000 H   0  0  0  0  0  0  0  0  0  0  0  0
    6.5422    1.1986    0.0000 H   0  0  0  0  0  0  0  0  0  0  0  0
    4.8535    1.2237    0.0000 H   0  0  0  0  0  0  0  0  0  0  0  0
    5.2520    0.5334    0.0000 H   0  0  0  0  0  0  0  0  0  0  0  0
    6.0747    2.0084    0.0000 H   0  0  0  0  0  0  0  0  0  0  0  0
    5.6762    2.6986    0.0000 H   0  0  0  0  0  0  0  0  0  0  0  0
    3.9875    2.7237    0.0000 H   0  0  0  0  0  0  0  0  0  0  0  0
    4.3860    2.0334    0.0000 H   0  0  0  0  0  0  0  0  0  0  0  0
    5.2087    3.5084    0.0000 H   0  0  0  0  0  0  0  0  0  0  0  0
    4.8101    4.1986    0.0000 H   0  0  0  0  0  0  0  0  0  0  0  0
    3.1215    4.2237    0.0000 H   0  0  0  0  0  0  0  0  0  0  0  0
    3.5200    3.5334    0.0000 H   0  0  0  0  0  0  0  0  0  0  0  0
    4.3426    5.0084    0.0000 H   0  0  0  0  0  0  0  0  0  0  0  0
    3.9441    5.6986    0.0000 H   0  0  0  0  0  0  0  0  0  0  0  0
    2.2554    5.7237    0.0000 H   0  0  0  0  0  0  0  0  0  0  0  0
    2.6540    5.0334    0.0000 H   0  0  0  0  0  0  0  0  0  0  0  0
    3.4766    6.5084    0.0000 H   0  0  0  0  0  0  0  0  0  0  0  0
    3.0781    7.1986    0.0000 H   0  0  0  0  0  0  0  0  0  0  0  0
    2.3100    7.6530    0.0000 H   0  0  0  0  0  0  0  0  0  0  0  0
    1.4631    7.4260    0.0000 H   0  0  0  0  0  0  0  0  0  0  0  0
    1.6900    6.5791    0.0000 H   0  0  0  0  0  0  0  0  0  0  0  0
  1  2  1  0  0  0  0
  1  3  1  0  0  0  0
  1  5  1  0  0  0  0
  1  6  1  0  0  0  0
  2  7  1  0  0  0  0
  3 16  1  0  0  0  0
  4 16  2  0  0  0  0
  5  8  1  0  0  0  0
  5  9  1  0  0  0  0
  5 10  1  0  0  0  0
  6 11  1  0  0  0  0
  6 12  1  0  0  0  0
  6 13  1  0  0  0  0
  7 14  1  0  0  0  0
  7 15  1  0  0  0  0
  7 31  1  0  0  0  0
  8 32  1  0  0  0  0
  8 33  1  0  0  0  0
  8 34  1  0  0  0  0
  9 35  1  0  0  0  0
  9 36  1  0  0  0  0
  9 37  1  0  0  0  0
 10 38  1  0  0  0  0
 10 39  1  0  0  0  0
 10 40  1  0  0  0  0
 11 41  1  0  0  0  0
 11 42  1  0  0  0  0
 11 43  1  0  0  0  0
 12 44  1  0  0  0  0
 12 45  1  0  0  0  0
 12 46  1  0  0  0  0
 13 47  1  0  0  0  0
 13 48  1  0  0  0  0
 13 49  1  0  0  0  0
 14 16  1  0  0  0  0
 14 50  1  0  0  0  0
 14 51  1  0  0  0  0
 15 17  1  0  0  0  0
 15 52  1  0  0  0  0
 15 53  1  0  0  0  0
 17 18  1  0  0  0  0
 17 54  1  0  0  0  0
 17 55  1  0  0  0  0
 18 19  1  0  0  0  0
 18 56  1  0  0  0  0
 18 57  1  0  0  0  0
 19 20  1  0  0  0  0
 19 58  1  0  0  0  0
 19 59  1  0  0  0  0
 20 21  1  0  0  0  0
 20 60  1  0  0  0  0
 20 61  1  0  0  0  0
 21 22  1  0  0  0  0
 21 62  1  0  0  0  0
 21 63  1  0  0  0  0
 22 23  1  0  0  0  0
 22 64  1  0  0  0  0
 22 65  1  0  0  0  0
 23 24  1  0  0  0  0
 23 66  1  0  0  0  0
 23 67  1  0  0  0  0
 24 25  1  0  0  0  0
 24 68  1  0  0  0  0
 24 69  1  0  0  0  0
 25 26  1  0  0  0  0
 25 70  1  0  0  0  0
 25 71  1  0  0  0  0
 26 27  1  0  0  0  0
 26 72  1  0  0  0  0
 26 73  1  0  0  0  0
 27 28  1  0  0  0  0
 27 74  1  0  0  0  0
 27 75  1  0  0  0  0
 28 29  1  0  0  0  0
 28 76  1  0  0  0  0
 28 77  1  0  0  0  0
 29 30  1  0  0  0  0
 29 78  1  0  0  0  0
 29 79  1  0  0  0  0
 30 80  1  0  0  0  0
 30 81  1  0  0  0  0
 30 82  1  0  0  0  0
M  END
> <PUBCHEM_COMPOUND_CID>
523759
> <PUBCHEM_COMPOUND_CANONICALIZED>
1
> <PUBCHEM_CACTVS_COMPLEXITY>
462
> <PUBCHEM_CACTVS_HBOND_ACCEPTOR>
3
> <PUBCHEM_CACTVS_HBOND_DONOR>
0
> <PUBCHEM_CACTVS_ROTATABLE_BOND>
16
> <PUBCHEM_CACTVS_SUBSKEYS>
AAADcfB4MAgAAAAAAAAAAAAAAAAAAAAAAAAkAAAAAAAAAAAAAAAAGhAAAEAADBSgoAICCAAAAAEIAACQCAAAAAAAAAAAAAEAAAAAABYAAAAAAAAFIAAAAAGIyKCAAAAAAAAAAAAAAAAAAAAAAAAAAAAAAA==
> <PUBCHEM_IUPAC_OPENEYE_NAME>
2,2-ditert-butyl-6-pentadecyl-1,3,2-dioxasilinan-4-one
> <PUBCHEM_IUPAC_CAS_NAME>
2,2-ditert-butyl-6-pentadecyl-1,3,2-dioxasilinan-4-one
> <PUBCHEM_IUPAC_NAME_MARKUP>
2,2-di<I>tert</I>-butyl-6-pentadecyl-1,3,2-dioxasilinan-4-one
> <PUBCHEM_IUPAC_NAME>
2,2-ditert-butyl-6-pentadecyl-1,3,2-dioxasilinan-4-one
> <PUBCHEM_IUPAC_SYSTEMATIC_NAME>
2,2-ditert-butyl-6-pentadecyl-1,3,2-dioxasilinan-4-one
> <PUBCHEM_IUPAC_TRADITIONAL_NAME>
2,2-ditert-butyl-6-pentadecyl-1,3,2-dioxasilinan-4-one
> <PUBCHEM_IUPAC_INCHI>
InChI=1S/C26H52O3Si/c1-8-9-10-11-12-13-14-15-16-17-18-19-20-21-23-22-24(27)29-30(28-23,25(2,3)4)26(5,6)7/h23H,8-22H2,1-7H3
> <PUBCHEM_IUPAC_INCHIKEY>
FJLNFPMJLDDQKD-UHFFFAOYSA-N
> <PUBCHEM_EXACT_MASS>
440.36857205
> <PUBCHEM_MOLECULAR_FORMULA>
C26H52O3Si
> <PUBCHEM_MOLECULAR_WEIGHT>
440.8
> <PUBCHEM_OPENEYE_CAN_SMILES>
CCCCCCCCCCCCCCCC1CC(=O)O[Si](O1)(C(C)(C)C)C(C)(C)C
> <PUBCHEM_OPENEYE_ISO_SMILES>
CCCCCCCCCCCCCCCC1CC(=O)O[Si](O1)(C(C)(C)C)C(C)(C)C
> <PUBCHEM_CACTVS_TPSA>
35.5
> <PUBCHEM_MONOISOTOPIC_WEIGHT>
440.36857205
> <PUBCHEM_TOTAL_CHARGE>
0
> <PUBCHEM_HEAVY_ATOM_COUNT>
30
> <PUBCHEM_ATOM_DEF_STEREO_COUNT>
0
> <PUBCHEM_ATOM_UDEF_STEREO_COUNT>
1
> <PUBCHEM_BOND_DEF_STEREO_COUNT>
0
> <PUBCHEM_BOND_UDEF_STEREO_COUNT>
0
> <PUBCHEM_ISOTOPIC_ATOM_COUNT>
0
> <PUBCHEM_COMPONENT_COUNT>
1
> <PUBCHEM_CACTVS_TAUTO_COUNT>
-1
> <PUBCHEM_COORDINATE_TYPE>
1
5
255
> <PUBCHEM_BONDANNOTATIONS>
7  15  3
$$$$
