523751
  -OEChem-10302200292D
 64 64  0     1  0  0  0  0  0999 V2000
    3.8271   -4.2146    0.0000 Si  0  0  0  0  0  0  0  0  0  0  0  0
    4.6361   -3.6268    0.0000 O   0  0  0  0  0  0  0  0  0  0  0  0
    3.0181   -3.6268    0.0000 O   0  0  0  0  0  0  0  0  0  0  0  0
    2.7393   -1.8667    0.0000 O   0  0  0  0  0  0  0  0  0  0  0  0
    2.9136   -4.6213    0.0000 C   0  0  0  0  0  0  0  0  0  0  0  0
    4.4149   -5.0236    0.0000 C   0  0  0  0  0  0  0  0  0  0  0  0
    4.3271   -2.6757    0.0000 C   0  0  3  0  0  0  0  0  0  0  0  0
    2.0000   -5.0280    0.0000 C   0  0  0  0  0  0  0  0  0  0  0  0
    2.1045   -4.0334    0.0000 C   0  0  0  0  0  0  0  0  0  0  0  0
    3.3203   -5.5348    0.0000 C   0  0  0  0  0  0  0  0  0  0  0  0
    5.0026   -5.8326    0.0000 C   0  0  0  0  0  0  0  0  0  0  0  0
    5.2239   -4.4358    0.0000 C   0  0  0  0  0  0  0  0  0  0  0  0
    4.0081   -5.9371    0.0000 C   0  0  0  0  0  0  0  0  0  0  0  0
    3.3271   -2.6757    0.0000 C   0  0  0  0  0  0  0  0  0  0  0  0
    4.9149   -1.8667    0.0000 C   0  0  0  0  0  0  0  0  0  0  0  0
    4.5081   -0.9531    0.0000 C   0  0  0  0  0  0  0  0  0  0  0  0
    5.0959   -0.1441    0.0000 C   0  0  0  0  0  0  0  0  0  0  0  0
    4.6892    0.7694    0.0000 C   0  0  0  0  0  0  0  0  0  0  0  0
    5.2770    1.5784    0.0000 C   0  0  0  0  0  0  0  0  0  0  0  0
    4.8702    2.4920    0.0000 C   0  0  0  0  0  0  0  0  0  0  0  0
    5.4580    3.3010    0.0000 C   0  0  0  0  0  0  0  0  0  0  0  0
    5.0513    4.2145    0.0000 C   0  0  0  0  0  0  0  0  0  0  0  0
    5.6391    5.0236    0.0000 C   0  0  0  0  0  0  0  0  0  0  0  0
    5.2323    5.9371    0.0000 C   0  0  0  0  0  0  0  0  0  0  0  0
    4.9394   -2.7727    0.0000 H   0  0  0  0  0  0  0  0  0  0  0  0
    1.7478   -4.4616    0.0000 H   0  0  0  0  0  0  0  0  0  0  0  0
    1.4336   -5.2802    0.0000 H   0  0  0  0  0  0  0  0  0  0  0  0
    2.2522   -5.5944    0.0000 H   0  0  0  0  0  0  0  0  0  0  0  0
    2.4690   -3.5319    0.0000 H   0  0  0  0  0  0  0  0  0  0  0  0
    1.6029   -3.6690    0.0000 H   0  0  0  0  0  0  0  0  0  0  0  0
    1.7400   -4.5350    0.0000 H   0  0  0  0  0  0  0  0  0  0  0  0
    2.7539   -5.7870    0.0000 H   0  0  0  0  0  0  0  0  0  0  0  0
    3.5724   -6.1012    0.0000 H   0  0  0  0  0  0  0  0  0  0  0  0
    3.8867   -5.2827    0.0000 H   0  0  0  0  0  0  0  0  0  0  0  0
    4.5011   -6.1970    0.0000 H   0  0  0  0  0  0  0  0  0  0  0  0
    5.3671   -6.3342    0.0000 H   0  0  0  0  0  0  0  0  0  0  0  0
    5.5042   -5.4682    0.0000 H   0  0  0  0  0  0  0  0  0  0  0  0
    5.5883   -4.9374    0.0000 H   0  0  0  0  0  0  0  0  0  0  0  0
    5.7255   -4.0714    0.0000 H   0  0  0  0  0  0  0  0  0  0  0  0
    4.8595   -3.9342    0.0000 H   0  0  0  0  0  0  0  0  0  0  0  0
    3.4417   -5.6849    0.0000 H   0  0  0  0  0  0  0  0  0  0  0  0
    3.7559   -6.5035    0.0000 H   0  0  0  0  0  0  0  0  0  0  0  0
    4.5745   -6.1893    0.0000 H   0  0  0  0  0  0  0  0  0  0  0  0
    5.3456   -2.3127    0.0000 H   0  0  0  0  0  0  0  0  0  0  0  0
    5.4289   -1.5200    0.0000 H   0  0  0  0  0  0  0  0  0  0  0  0
    4.0774   -0.5072    0.0000 H   0  0  0  0  0  0  0  0  0  0  0  0
    3.9941   -1.2998    0.0000 H   0  0  0  0  0  0  0  0  0  0  0  0
    5.5266   -0.5901    0.0000 H   0  0  0  0  0  0  0  0  0  0  0  0
    5.6099    0.2026    0.0000 H   0  0  0  0  0  0  0  0  0  0  0  0
    4.2585    1.2154    0.0000 H   0  0  0  0  0  0  0  0  0  0  0  0
    4.1752    0.4227    0.0000 H   0  0  0  0  0  0  0  0  0  0  0  0
    5.7076    1.1324    0.0000 H   0  0  0  0  0  0  0  0  0  0  0  0
    5.7910    1.9251    0.0000 H   0  0  0  0  0  0  0  0  0  0  0  0
    4.4395    2.9380    0.0000 H   0  0  0  0  0  0  0  0  0  0  0  0
    4.3562    2.1453    0.0000 H   0  0  0  0  0  0  0  0  0  0  0  0
    5.8887    2.8550    0.0000 H   0  0  0  0  0  0  0  0  0  0  0  0
    5.9720    3.6477    0.0000 H   0  0  0  0  0  0  0  0  0  0  0  0
    4.6206    4.6605    0.0000 H   0  0  0  0  0  0  0  0  0  0  0  0
    4.5373    3.8678    0.0000 H   0  0  0  0  0  0  0  0  0  0  0  0
    6.0698    4.5776    0.0000 H   0  0  0  0  0  0  0  0  0  0  0  0
    6.1531    5.3703    0.0000 H   0  0  0  0  0  0  0  0  0  0  0  0
    5.7987    6.1893    0.0000 H   0  0  0  0  0  0  0  0  0  0  0  0
    4.9802    6.5035    0.0000 H   0  0  0  0  0  0  0  0  0  0  0  0
    4.6659    5.6849    0.0000 H   0  0  0  0  0  0  0  0  0  0  0  0
  1  2  1  0  0  0  0
  1  3  1  0  0  0  0
  1  5  1  0  0  0  0
  1  6  1  0  0  0  0
  2  7  1  0  0  0  0
  3 14  1  0  0  0  0
  4 14  2  0  0  0  0
  5  8  1  0  0  0  0
  5  9  1  0  0  0  0
  5 10  1  0  0  0  0
  6 11  1  0  0  0  0
  6 12  1  0  0  0  0
  6 13  1  0  0  0  0
  7 14  1  0  0  0  0
  7 15  1  0  0  0  0
  7 25  1  0  0  0  0
  8 26  1  0  0  0  0
  8 27  1  0  0  0  0
  8 28  1  0  0  0  0
  9 29  1  0  0  0  0
  9 30  1  0  0  0  0
  9 31  1  0  0  0  0
 10 32  1  0  0  0  0
 10 33  1  0  0  0  0
 10 34  1  0  0  0  0
 11 35  1  0  0  0  0
 11 36  1  0  0  0  0
 11 37  1  0  0  0  0
 12 38  1  0  0  0  0
 12 39  1  0  0  0  0
 12 40  1  0  0  0  0
 13 41  1  0  0  0  0
 13 42  1  0  0  0  0
 13 43  1  0  0  0  0
 15 16  1  0  0  0  0
 15 44  1  0  0  0  0
 15 45  1  0  0  0  0
 16 17  1  0  0  0  0
 16 46  1  0  0  0  0
 16 47  1  0  0  0  0
 17 18  1  0  0  0  0
 17 48  1  0  0  0  0
 17 49  1  0  0  0  0
 18 19  1  0  0  0  0
 18 50  1  0  0  0  0
 18 51  1  0  0  0  0
 19 20  1  0  0  0  0
 19 52  1  0  0  0  0
 19 53  1  0  0  0  0
 20 21  1  0  0  0  0
 20 54  1  0  0  0  0
 20 55  1  0  0  0  0
 21 22  1  0  0  0  0
 21 56  1  0  0  0  0
 21 57  1  0  0  0  0
 22 23  1  0  0  0  0
 22 58  1  0  0  0  0
 22 59  1  0  0  0  0
 23 24  1  0  0  0  0
 23 60  1  0  0  0  0
 23 61  1  0  0  0  0
 24 62  1  0  0  0  0
 24 63  1  0  0  0  0
 24 64  1  0  0  0  0
M  END
> <PUBCHEM_COMPOUND_CID>
523751
> <PUBCHEM_COMPOUND_CANONICALIZED>
1
> <PUBCHEM_CACTVS_COMPLEXITY>
379
> <PUBCHEM_CACTVS_HBOND_ACCEPTOR>
3
> <PUBCHEM_CACTVS_HBOND_DONOR>
0
> <PUBCHEM_CACTVS_ROTATABLE_BOND>
11
> <PUBCHEM_CACTVS_SUBSKEYS>
AAADcfB4MAgAAAAAAAAAAAAAAAAAASAAAAAAAAAAAAAAAAAAAAAAGhAAAEAADBSgoAICCAAAAAEIAACQCAIAAAAAAAAAAAFAAAABABIAAAAAAAAEAAAAAAGIyKCAAAAAAAAAAAAAAAAAAAAAAAAAAAAAAA==
> <PUBCHEM_IUPAC_OPENEYE_NAME>
2,2-ditert-butyl-5-decyl-1,3,2-dioxasilolan-4-one
> <PUBCHEM_IUPAC_CAS_NAME>
2,2-ditert-butyl-5-decyl-1,3,2-dioxasilolan-4-one
> <PUBCHEM_IUPAC_NAME_MARKUP>
2,2-di<I>tert</I>-butyl-5-decyl-1,3,2-dioxasilolan-4-one
> <PUBCHEM_IUPAC_NAME>
2,2-ditert-butyl-5-decyl-1,3,2-dioxasilolan-4-one
> <PUBCHEM_IUPAC_SYSTEMATIC_NAME>
2,2-ditert-butyl-5-decyl-1,3,2-dioxasilolan-4-one
> <PUBCHEM_IUPAC_TRADITIONAL_NAME>
2,2-ditert-butyl-5-decyl-1,3,2-dioxasilolan-4-one
> <PUBCHEM_IUPAC_INCHI>
InChI=1S/C20H40O3Si/c1-8-9-10-11-12-13-14-15-16-17-18(21)23-24(22-17,19(2,3)4)20(5,6)7/h17H,8-16H2,1-7H3
> <PUBCHEM_IUPAC_INCHIKEY>
XMCYXEHALCBNOE-UHFFFAOYSA-N
> <PUBCHEM_EXACT_MASS>
356.27467167
> <PUBCHEM_MOLECULAR_FORMULA>
C20H40O3Si
> <PUBCHEM_MOLECULAR_WEIGHT>
356.6
> <PUBCHEM_OPENEYE_CAN_SMILES>
CCCCCCCCCCC1C(=O)O[Si](O1)(C(C)(C)C)C(C)(C)C
> <PUBCHEM_OPENEYE_ISO_SMILES>
CCCCCCCCCCC1C(=O)O[Si](O1)(C(C)(C)C)C(C)(C)C
> <PUBCHEM_CACTVS_TPSA>
35.5
> <PUBCHEM_MONOISOTOPIC_WEIGHT>
356.27467167
> <PUBCHEM_TOTAL_CHARGE>
0
> <PUBCHEM_HEAVY_ATOM_COUNT>
24
> <PUBCHEM_ATOM_DEF_STEREO_COUNT>
0
> <PUBCHEM_ATOM_UDEF_STEREO_COUNT>
1
> <PUBCHEM_BOND_DEF_STEREO_COUNT>
0
> <PUBCHEM_BOND_UDEF_STEREO_COUNT>
0
> <PUBCHEM_ISOTOPIC_ATOM_COUNT>
0
> <PUBCHEM_COMPONENT_COUNT>
1
> <PUBCHEM_CACTVS_TAUTO_COUNT>
-1
> <PUBCHEM_COORDINATE_TYPE>
1
5
255
> <PUBCHEM_BONDANNOTATIONS>
7  15  3
$$$$
