523784
  -OEChem-10302200292D
 46 46  0     1  0  0  0  0  0999 V2000
    2.8660    2.0670    0.0000 Si  0  0  0  0  0  0  0  0  0  0  0  0
    6.3301    2.0670    0.0000 Si  0  0  0  0  0  0  0  0  0  0  0  0
    3.7320    1.5670    0.0000 O   0  0  0  0  0  0  0  0  0  0  0  0
    5.4641    1.5670    0.0000 O   0  0  0  0  0  0  0  0  0  0  0  0
    6.3301    0.0670    0.0000 O   0  0  0  0  0  0  0  0  0  0  0  0
    4.5981    0.0670    0.0000 C   0  0  3  0  0  0  0  0  0  0  0  0
    3.7320    0.5670    0.0000 C   0  0  0  0  0  0  0  0  0  0  0  0
    4.5981   -0.9330    0.0000 C   0  0  0  0  0  0  0  0  0  0  0  0
    5.4641    0.5670    0.0000 C   0  0  0  0  0  0  0  0  0  0  0  0
    2.0000    2.5670    0.0000 C   0  0  0  0  0  0  0  0  0  0  0  0
    3.3660    2.9330    0.0000 C   0  0  0  0  0  0  0  0  0  0  0  0
    2.3660    1.2010    0.0000 C   0  0  0  0  0  0  0  0  0  0  0  0
    7.1962    2.5670    0.0000 C   0  0  0  0  0  0  0  0  0  0  0  0
    5.8301    2.9330    0.0000 C   0  0  0  0  0  0  0  0  0  0  0  0
    6.8301    1.2010    0.0000 C   0  0  0  0  0  0  0  0  0  0  0  0
    3.7320   -1.4330    0.0000 C   0  0  0  0  0  0  0  0  0  0  0  0
    5.4641   -1.4330    0.0000 C   0  0  0  0  0  0  0  0  0  0  0  0
    3.7320   -2.4330    0.0000 C   0  0  0  0  0  0  0  0  0  0  0  0
    5.4641   -2.4330    0.0000 C   0  0  0  0  0  0  0  0  0  0  0  0
    4.5981   -2.9330    0.0000 C   0  0  0  0  0  0  0  0  0  0  0  0
    4.5981    0.6870    0.0000 H   0  0  0  0  0  0  0  0  0  0  0  0
    3.1215    0.6746    0.0000 H   0  0  0  0  0  0  0  0  0  0  0  0
    3.5200   -0.0156    0.0000 H   0  0  0  0  0  0  0  0  0  0  0  0
    2.3100    3.1039    0.0000 H   0  0  0  0  0  0  0  0  0  0  0  0
    1.4631    2.8770    0.0000 H   0  0  0  0  0  0  0  0  0  0  0  0
    1.6900    2.0300    0.0000 H   0  0  0  0  0  0  0  0  0  0  0  0
    3.9030    2.6230    0.0000 H   0  0  0  0  0  0  0  0  0  0  0  0
    3.6760    3.4700    0.0000 H   0  0  0  0  0  0  0  0  0  0  0  0
    2.8291    3.2430    0.0000 H   0  0  0  0  0  0  0  0  0  0  0  0
    1.8291    1.5110    0.0000 H   0  0  0  0  0  0  0  0  0  0  0  0
    2.0560    0.6640    0.0000 H   0  0  0  0  0  0  0  0  0  0  0  0
    2.9030    0.8910    0.0000 H   0  0  0  0  0  0  0  0  0  0  0  0
    7.5062    2.0300    0.0000 H   0  0  0  0  0  0  0  0  0  0  0  0
    7.7331    2.8770    0.0000 H   0  0  0  0  0  0  0  0  0  0  0  0
    6.8862    3.1039    0.0000 H   0  0  0  0  0  0  0  0  0  0  0  0
    6.3671    3.2430    0.0000 H   0  0  0  0  0  0  0  0  0  0  0  0
    5.5201    3.4700    0.0000 H   0  0  0  0  0  0  0  0  0  0  0  0
    5.2932    2.6230    0.0000 H   0  0  0  0  0  0  0  0  0  0  0  0
    6.2932    0.8910    0.0000 H   0  0  0  0  0  0  0  0  0  0  0  0
    7.1401    0.6640    0.0000 H   0  0  0  0  0  0  0  0  0  0  0  0
    7.3671    1.5110    0.0000 H   0  0  0  0  0  0  0  0  0  0  0  0
    3.1951   -1.1230    0.0000 H   0  0  0  0  0  0  0  0  0  0  0  0
    6.0010   -1.1230    0.0000 H   0  0  0  0  0  0  0  0  0  0  0  0
    3.1951   -2.7430    0.0000 H   0  0  0  0  0  0  0  0  0  0  0  0
    6.0010   -2.7430    0.0000 H   0  0  0  0  0  0  0  0  0  0  0  0
    4.5981   -3.5530    0.0000 H   0  0  0  0  0  0  0  0  0  0  0  0
  1  3  1  0  0  0  0
  1 10  1  0  0  0  0
  1 11  1  0  0  0  0
  1 12  1  0  0  0  0
  2  4  1  0  0  0  0
  2 13  1  0  0  0  0
  2 14  1  0  0  0  0
  2 15  1  0  0  0  0
  3  7  1  0  0  0  0
  4  9  1  0  0  0  0
  5  9  2  0  0  0  0
  6  7  1  0  0  0  0
  6  8  1  0  0  0  0
  6  9  1  0  0  0  0
  6 21  1  0  0  0  0
  7 22  1  0  0  0  0
  7 23  1  0  0  0  0
  8 16  2  0  0  0  0
  8 17  1  0  0  0  0
 10 24  1  0  0  0  0
 10 25  1  0  0  0  0
 10 26  1  0  0  0  0
 11 27  1  0  0  0  0
 11 28  1  0  0  0  0
 11 29  1  0  0  0  0
 12 30  1  0  0  0  0
 12 31  1  0  0  0  0
 12 32  1  0  0  0  0
 13 33  1  0  0  0  0
 13 34  1  0  0  0  0
 13 35  1  0  0  0  0
 14 36  1  0  0  0  0
 14 37  1  0  0  0  0
 14 38  1  0  0  0  0
 15 39  1  0  0  0  0
 15 40  1  0  0  0  0
 15 41  1  0  0  0  0
 16 18  1  0  0  0  0
 16 42  1  0  0  0  0
 17 19  2  0  0  0  0
 17 43  1  0  0  0  0
 18 20  2  0  0  0  0
 18 44  1  0  0  0  0
 19 20  1  0  0  0  0
 19 45  1  0  0  0  0
 20 46  1  0  0  0  0
M  END
> <PUBCHEM_COMPOUND_CID>
523784
> <PUBCHEM_COMPOUND_CANONICALIZED>
1
> <PUBCHEM_CACTVS_COMPLEXITY>
312
> <PUBCHEM_CACTVS_HBOND_ACCEPTOR>
3
> <PUBCHEM_CACTVS_HBOND_DONOR>
0
> <PUBCHEM_CACTVS_ROTATABLE_BOND>
7
> <PUBCHEM_CACTVS_SUBSKEYS>
AAADceBwMAwAAAAAAAAAAAAAAAAAAAAAAAAwAAAAAAAAAAABAAAAGhAAAEAADQCgmAJyCIAAAAGIAiDSCAACAAAgAAAIiAEAAIgIIDaAFRCAIAAl4AEIiAeIyOCOgAAAAAAAAAAAAAAAAAAAAAAAAAAAAA==
> <PUBCHEM_IUPAC_OPENEYE_NAME>
trimethylsilyl 2-phenyl-3-trimethylsilyloxy-propanoate
> <PUBCHEM_IUPAC_CAS_NAME>
2-phenyl-3-trimethylsilyloxypropanoic acid trimethylsilyl ester
> <PUBCHEM_IUPAC_NAME_MARKUP>
trimethylsilyl 2-phenyl-3-trimethylsilyloxypropanoate
> <PUBCHEM_IUPAC_NAME>
trimethylsilyl 2-phenyl-3-trimethylsilyloxypropanoate
> <PUBCHEM_IUPAC_SYSTEMATIC_NAME>
trimethylsilyl 2-phenyl-3-trimethylsilyloxy-propanoate
> <PUBCHEM_IUPAC_TRADITIONAL_NAME>
2-phenyl-3-trimethylsilyloxy-propionic acid trimethylsilyl ester
> <PUBCHEM_IUPAC_INCHI>
InChI=1S/C15H26O3Si2/c1-19(2,3)17-12-14(13-10-8-7-9-11-13)15(16)18-20(4,5)6/h7-11,14H,12H2,1-6H3
> <PUBCHEM_IUPAC_INCHIKEY>
PASLIDCFUAELRD-UHFFFAOYSA-N
> <PUBCHEM_EXACT_MASS>
310.14204776
> <PUBCHEM_MOLECULAR_FORMULA>
C15H26O3Si2
> <PUBCHEM_MOLECULAR_WEIGHT>
310.53
> <PUBCHEM_OPENEYE_CAN_SMILES>
C[Si](C)(C)OCC(C1=CC=CC=C1)C(=O)O[Si](C)(C)C
> <PUBCHEM_OPENEYE_ISO_SMILES>
C[Si](C)(C)OCC(C1=CC=CC=C1)C(=O)O[Si](C)(C)C
> <PUBCHEM_CACTVS_TPSA>
35.5
> <PUBCHEM_MONOISOTOPIC_WEIGHT>
310.14204776
> <PUBCHEM_TOTAL_CHARGE>
0
> <PUBCHEM_HEAVY_ATOM_COUNT>
20
> <PUBCHEM_ATOM_DEF_STEREO_COUNT>
0
> <PUBCHEM_ATOM_UDEF_STEREO_COUNT>
1
> <PUBCHEM_BOND_DEF_STEREO_COUNT>
0
> <PUBCHEM_BOND_UDEF_STEREO_COUNT>
0
> <PUBCHEM_ISOTOPIC_ATOM_COUNT>
0
> <PUBCHEM_COMPONENT_COUNT>
1
> <PUBCHEM_CACTVS_TAUTO_COUNT>
-1
> <PUBCHEM_COORDINATE_TYPE>
1
5
255
> <PUBCHEM_BONDANNOTATIONS>
16  18  8
17  19  8
18  20  8
19  20  8
6  7  3
8  16  8
8  17  8
$$$$
