523708
  -OEChem-10302200292D
 95 95  0     1  0  0  0  0  0999 V2000
    4.5981   -3.3170    0.0000 Si  0  0  0  0  0  0  0  0  0  0  0  0
    2.8660   -1.3170    0.0000 Si  0  0  0  0  0  0  0  0  0  0  0  0
    8.0622   -1.3170    0.0000 Si  0  0  0  0  0  0  0  0  0  0  0  0
    2.8660    1.6830    0.0000 Si  0  0  0  0  0  0  0  0  0  0  0  0
    5.4641    0.1830    0.0000 O   0  0  0  0  0  0  0  0  0  0  0  0
    5.4641   -2.8170    0.0000 O   0  0  0  0  0  0  0  0  0  0  0  0
    3.7320   -1.8170    0.0000 O   0  0  0  0  0  0  0  0  0  0  0  0
    7.1962   -1.8170    0.0000 O   0  0  0  0  0  0  0  0  0  0  0  0
    7.1962    0.1830    0.0000 O   0  0  0  0  0  0  0  0  0  0  0  0
    3.7320    1.1830    0.0000 O   0  0  0  0  0  0  0  0  0  0  0  0
    6.3301    1.6830    0.0000 O   0  0  0  0  0  0  0  0  0  0  0  0
    5.4641   -1.8170    0.0000 C   0  0  3  0  0  0  0  0  0  0  0  0
    4.5981   -1.3170    0.0000 C   0  0  3  0  0  0  0  0  0  0  0  0
    6.3301   -1.3170    0.0000 C   0  0  3  0  0  0  0  0  0  0  0  0
    4.5981   -0.3170    0.0000 C   0  0  3  0  0  0  0  0  0  0  0  0
    6.3301   -0.3170    0.0000 C   0  0  3  0  0  0  0  0  0  0  0  0
    3.7320    0.1830    0.0000 C   0  0  0  0  0  0  0  0  0  0  0  0
    3.7320   -3.8170    0.0000 C   0  0  0  0  0  0  0  0  0  0  0  0
    5.0981   -4.1830    0.0000 C   0  0  0  0  0  0  0  0  0  0  0  0
    4.0981   -2.4510    0.0000 C   0  0  0  0  0  0  0  0  0  0  0  0
    2.0000   -0.8170    0.0000 C   0  0  0  0  0  0  0  0  0  0  0  0
    2.3660   -2.1830    0.0000 C   0  0  0  0  0  0  0  0  0  0  0  0
    3.3660   -0.4510    0.0000 C   0  0  0  0  0  0  0  0  0  0  0  0
    8.9282   -0.8170    0.0000 C   0  0  0  0  0  0  0  0  0  0  0  0
    8.5622   -2.1830    0.0000 C   0  0  0  0  0  0  0  0  0  0  0  0
    7.5622   -0.4510    0.0000 C   0  0  0  0  0  0  0  0  0  0  0  0
    7.1962    1.1830    0.0000 C   0  0  0  0  0  0  0  0  0  0  0  0
    8.0622    1.6830    0.0000 C   0  0  0  0  0  0  0  0  0  0  0  0
    8.0622    2.6830    0.0000 C   0  0  0  0  0  0  0  0  0  0  0  0
    8.9282    1.1830    0.0000 C   0  0  0  0  0  0  0  0  0  0  0  0
    2.0000    2.1830    0.0000 C   0  0  0  0  0  0  0  0  0  0  0  0
    3.3660    2.5490    0.0000 C   0  0  0  0  0  0  0  0  0  0  0  0
    2.3660    0.8170    0.0000 C   0  0  0  0  0  0  0  0  0  0  0  0
    8.9282    3.1830    0.0000 C   0  0  0  0  0  0  0  0  0  0  0  0
    9.7942    1.6830    0.0000 C   0  0  0  0  0  0  0  0  0  0  0  0
    8.9282    4.1830    0.0000 C   0  0  0  0  0  0  0  0  0  0  0  0
   10.6603    1.1830    0.0000 C   0  0  0  0  0  0  0  0  0  0  0  0
    4.9272   -2.1270    0.0000 H   0  0  0  0  0  0  0  0  0  0  0  0
    4.5981   -1.9370    0.0000 H   0  0  0  0  0  0  0  0  0  0  0  0
    6.3301   -1.9370    0.0000 H   0  0  0  0  0  0  0  0  0  0  0  0
    4.5981    0.3030    0.0000 H   0  0  0  0  0  0  0  0  0  0  0  0
    6.3301    0.3030    0.0000 H   0  0  0  0  0  0  0  0  0  0  0  0
    3.1215    0.2907    0.0000 H   0  0  0  0  0  0  0  0  0  0  0  0
    3.5200   -0.3996    0.0000 H   0  0  0  0  0  0  0  0  0  0  0  0
    3.4220   -3.2800    0.0000 H   0  0  0  0  0  0  0  0  0  0  0  0
    3.1951   -4.1270    0.0000 H   0  0  0  0  0  0  0  0  0  0  0  0
    4.0420   -4.3539    0.0000 H   0  0  0  0  0  0  0  0  0  0  0  0
    4.5611   -4.4930    0.0000 H   0  0  0  0  0  0  0  0  0  0  0  0
    5.4081   -4.7200    0.0000 H   0  0  0  0  0  0  0  0  0  0  0  0
    5.6350   -3.8730    0.0000 H   0  0  0  0  0  0  0  0  0  0  0  0
    4.6350   -2.1410    0.0000 H   0  0  0  0  0  0  0  0  0  0  0  0
    3.7881   -1.9140    0.0000 H   0  0  0  0  0  0  0  0  0  0  0  0
    3.5611   -2.7610    0.0000 H   0  0  0  0  0  0  0  0  0  0  0  0
    2.3100   -0.2801    0.0000 H   0  0  0  0  0  0  0  0  0  0  0  0
    1.4631   -0.5070    0.0000 H   0  0  0  0  0  0  0  0  0  0  0  0
    1.6900   -1.3539    0.0000 H   0  0  0  0  0  0  0  0  0  0  0  0
    1.8291   -1.8730    0.0000 H   0  0  0  0  0  0  0  0  0  0  0  0
    2.0560   -2.7200    0.0000 H   0  0  0  0  0  0  0  0  0  0  0  0
    2.9030   -2.4930    0.0000 H   0  0  0  0  0  0  0  0  0  0  0  0
    3.9030   -0.7610    0.0000 H   0  0  0  0  0  0  0  0  0  0  0  0
    3.6760    0.0860    0.0000 H   0  0  0  0  0  0  0  0  0  0  0  0
    2.8291   -0.1410    0.0000 H   0  0  0  0  0  0  0  0  0  0  0  0
    9.2382   -1.3539    0.0000 H   0  0  0  0  0  0  0  0  0  0  0  0
    9.4651   -0.5070    0.0000 H   0  0  0  0  0  0  0  0  0  0  0  0
    8.6182   -0.2801    0.0000 H   0  0  0  0  0  0  0  0  0  0  0  0
    8.0252   -2.4930    0.0000 H   0  0  0  0  0  0  0  0  0  0  0  0
    8.8722   -2.7200    0.0000 H   0  0  0  0  0  0  0  0  0  0  0  0
    9.0991   -1.8730    0.0000 H   0  0  0  0  0  0  0  0  0  0  0  0
    8.0991   -0.1410    0.0000 H   0  0  0  0  0  0  0  0  0  0  0  0
    7.2522    0.0860    0.0000 H   0  0  0  0  0  0  0  0  0  0  0  0
    7.0252   -0.7610    0.0000 H   0  0  0  0  0  0  0  0  0  0  0  0
    7.5252    1.9930    0.0000 H   0  0  0  0  0  0  0  0  0  0  0  0
    7.8501    3.2656    0.0000 H   0  0  0  0  0  0  0  0  0  0  0  0
    7.4516    2.5753    0.0000 H   0  0  0  0  0  0  0  0  0  0  0  0
    8.5297    0.7081    0.0000 H   0  0  0  0  0  0  0  0  0  0  0  0
    9.3267    0.7081    0.0000 H   0  0  0  0  0  0  0  0  0  0  0  0
    2.3100    2.7200    0.0000 H   0  0  0  0  0  0  0  0  0  0  0  0
    1.4631    2.4930    0.0000 H   0  0  0  0  0  0  0  0  0  0  0  0
    1.6900    1.6461    0.0000 H   0  0  0  0  0  0  0  0  0  0  0  0
    3.9030    2.2390    0.0000 H   0  0  0  0  0  0  0  0  0  0  0  0
    3.6760    3.0860    0.0000 H   0  0  0  0  0  0  0  0  0  0  0  0
    2.8291    2.8590    0.0000 H   0  0  0  0  0  0  0  0  0  0  0  0
    1.8291    1.1270    0.0000 H   0  0  0  0  0  0  0  0  0  0  0  0
    2.0560    0.2801    0.0000 H   0  0  0  0  0  0  0  0  0  0  0  0
    2.9030    0.5070    0.0000 H   0  0  0  0  0  0  0  0  0  0  0  0
    9.1403    2.6004    0.0000 H   0  0  0  0  0  0  0  0  0  0  0  0
    9.5388    3.2907    0.0000 H   0  0  0  0  0  0  0  0  0  0  0  0
   10.1928    2.1580    0.0000 H   0  0  0  0  0  0  0  0  0  0  0  0
    9.3957    2.1580    0.0000 H   0  0  0  0  0  0  0  0  0  0  0  0
    9.5482    4.1830    0.0000 H   0  0  0  0  0  0  0  0  0  0  0  0
    8.9282    4.8030    0.0000 H   0  0  0  0  0  0  0  0  0  0  0  0
    8.3082    4.1830    0.0000 H   0  0  0  0  0  0  0  0  0  0  0  0
   10.3503    0.6461    0.0000 H   0  0  0  0  0  0  0  0  0  0  0  0
   11.1972    0.8730    0.0000 H   0  0  0  0  0  0  0  0  0  0  0  0
   10.9703    1.7200    0.0000 H   0  0  0  0  0  0  0  0  0  0  0  0
  1  6  1  0  0  0  0
  1 18  1  0  0  0  0
  1 19  1  0  0  0  0
  1 20  1  0  0  0  0
  2  7  1  0  0  0  0
  2 21  1  0  0  0  0
  2 22  1  0  0  0  0
  2 23  1  0  0  0  0
  3  8  1  0  0  0  0
  3 24  1  0  0  0  0
  3 25  1  0  0  0  0
  3 26  1  0  0  0  0
  4 10  1  0  0  0  0
  4 31  1  0  0  0  0
  4 32  1  0  0  0  0
  4 33  1  0  0  0  0
  5 15  1  0  0  0  0
  5 16  1  0  0  0  0
  6 12  1  0  0  0  0
  7 13  1  0  0  0  0
  8 14  1  0  0  0  0
  9 16  1  0  0  0  0
  9 27  1  0  0  0  0
 10 17  1  0  0  0  0
 11 27  2  0  0  0  0
 12 13  1  0  0  0  0
 12 14  1  0  0  0  0
 12 38  1  0  0  0  0
 13 15  1  0  0  0  0
 13 39  1  0  0  0  0
 14 16  1  0  0  0  0
 14 40  1  0  0  0  0
 15 17  1  0  0  0  0
 15 41  1  0  0  0  0
 16 42  1  0  0  0  0
 17 43  1  0  0  0  0
 17 44  1  0  0  0  0
 18 45  1  0  0  0  0
 18 46  1  0  0  0  0
 18 47  1  0  0  0  0
 19 48  1  0  0  0  0
 19 49  1  0  0  0  0
 19 50  1  0  0  0  0
 20 51  1  0  0  0  0
 20 52  1  0  0  0  0
 20 53  1  0  0  0  0
 21 54  1  0  0  0  0
 21 55  1  0  0  0  0
 21 56  1  0  0  0  0
 22 57  1  0  0  0  0
 22 58  1  0  0  0  0
 22 59  1  0  0  0  0
 23 60  1  0  0  0  0
 23 61  1  0  0  0  0
 23 62  1  0  0  0  0
 24 63  1  0  0  0  0
 24 64  1  0  0  0  0
 24 65  1  0  0  0  0
 25 66  1  0  0  0  0
 25 67  1  0  0  0  0
 25 68  1  0  0  0  0
 26 69  1  0  0  0  0
 26 70  1  0  0  0  0
 26 71  1  0  0  0  0
 27 28  1  0  0  0  0
 28 29  1  0  0  0  0
 28 30  1  0  0  0  0
 28 72  1  0  0  0  0
 29 34  1  0  0  0  0
 29 73  1  0  0  0  0
 29 74  1  0  0  0  0
 30 35  1  0  0  0  0
 30 75  1  0  0  0  0
 30 76  1  0  0  0  0
 31 77  1  0  0  0  0
 31 78  1  0  0  0  0
 31 79  1  0  0  0  0
 32 80  1  0  0  0  0
 32 81  1  0  0  0  0
 32 82  1  0  0  0  0
 33 83  1  0  0  0  0
 33 84  1  0  0  0  0
 33 85  1  0  0  0  0
 34 36  1  0  0  0  0
 34 86  1  0  0  0  0
 34 87  1  0  0  0  0
 35 37  1  0  0  0  0
 35 88  1  0  0  0  0
 35 89  1  0  0  0  0
 36 90  1  0  0  0  0
 36 91  1  0  0  0  0
 36 92  1  0  0  0  0
 37 93  1  0  0  0  0
 37 94  1  0  0  0  0
 37 95  1  0  0  0  0
M  END
> <PUBCHEM_COMPOUND_CID>
523708
> <PUBCHEM_COMPOUND_CANONICALIZED>
1
> <PUBCHEM_CACTVS_COMPLEXITY>
689
> <PUBCHEM_CACTVS_HBOND_ACCEPTOR>
7
> <PUBCHEM_CACTVS_HBOND_DONOR>
0
> <PUBCHEM_CACTVS_ROTATABLE_BOND>
16
> <PUBCHEM_CACTVS_SUBSKEYS>
AAADcfB4OAwAAAAAAAAAAAAAAAAAAAAAAAAkAAAAAAAAAAAAAAAAGhAAAEAADRSwgANCCAAABAEIAACQCAAAAAAAAAAAAAEAAAARABIAAAAiAAAFAAAGAAHI4AwOAAAAAAAAAAAAAAAAAAAAAAAAAAAAAA==
> <PUBCHEM_IUPAC_OPENEYE_NAME>
[3,4,5-tris(trimethylsilyloxy)-6-(trimethylsilyloxymethyl)tetrahydropyran-2-yl] 2-propylpentanoate
> <PUBCHEM_IUPAC_CAS_NAME>
2-propylpentanoic acid [3,4,5-tris(trimethylsilyloxy)-6-(trimethylsilyloxymethyl)-2-oxanyl] ester
> <PUBCHEM_IUPAC_NAME_MARKUP>
[3,4,5-tris(trimethylsilyloxy)-6-(trimethylsilyloxymethyl)oxan-2-yl] 2-propylpentanoate
> <PUBCHEM_IUPAC_NAME>
[3,4,5-tris(trimethylsilyloxy)-6-(trimethylsilyloxymethyl)oxan-2-yl] 2-propylpentanoate
> <PUBCHEM_IUPAC_SYSTEMATIC_NAME>
[3,4,5-tris(trimethylsilyloxy)-6-(trimethylsilyloxymethyl)oxan-2-yl] 2-propylpentanoate
> <PUBCHEM_IUPAC_TRADITIONAL_NAME>
2-propylvaleric acid [3,4,5-tris(trimethylsilyloxy)-6-(trimethylsilyloxymethyl)tetrahydropyran-2-yl] ester
> <PUBCHEM_IUPAC_INCHI>
InChI=1S/C26H58O7Si4/c1-15-17-20(18-16-2)25(27)30-26-24(33-37(12,13)14)23(32-36(9,10)11)22(31-35(6,7)8)21(29-26)19-28-34(3,4)5/h20-24,26H,15-19H2,1-14H3
> <PUBCHEM_IUPAC_INCHIKEY>
OVXMRISJDUWFKB-UHFFFAOYSA-N
> <PUBCHEM_EXACT_MASS>
594.32596032
> <PUBCHEM_MOLECULAR_FORMULA>
C26H58O7Si4
> <PUBCHEM_MOLECULAR_WEIGHT>
595.1
> <PUBCHEM_OPENEYE_CAN_SMILES>
CCCC(CCC)C(=O)OC1C(C(C(C(O1)CO[Si](C)(C)C)O[Si](C)(C)C)O[Si](C)(C)C)O[Si](C)(C)C
> <PUBCHEM_OPENEYE_ISO_SMILES>
CCCC(CCC)C(=O)OC1C(C(C(C(O1)CO[Si](C)(C)C)O[Si](C)(C)C)O[Si](C)(C)C)O[Si](C)(C)C
> <PUBCHEM_CACTVS_TPSA>
72.4
> <PUBCHEM_MONOISOTOPIC_WEIGHT>
594.32596032
> <PUBCHEM_TOTAL_CHARGE>
0
> <PUBCHEM_HEAVY_ATOM_COUNT>
37
> <PUBCHEM_ATOM_DEF_STEREO_COUNT>
0
> <PUBCHEM_ATOM_UDEF_STEREO_COUNT>
5
> <PUBCHEM_BOND_DEF_STEREO_COUNT>
0
> <PUBCHEM_BOND_UDEF_STEREO_COUNT>
0
> <PUBCHEM_ISOTOPIC_ATOM_COUNT>
0
> <PUBCHEM_COMPONENT_COUNT>
1
> <PUBCHEM_CACTVS_TAUTO_COUNT>
-1
> <PUBCHEM_COORDINATE_TYPE>
1
5
255
> <PUBCHEM_BONDANNOTATIONS>
15  17  3
12  6  3
13  7  3
14  8  3
16  9  3
$$$$
