523827
  -OEChem-10302200292D
 44 44  0     1  0  0  0  0  0999 V2000
    5.4641    1.5670    0.0000 Si  0  0  0  0  0  0  0  0  0  0  0  0
    2.8660    2.0670    0.0000 Si  0  0  0  0  0  0  0  0  0  0  0  0
    3.7320    1.5670    0.0000 O   0  0  0  0  0  0  0  0  0  0  0  0
    2.8660    0.0670    0.0000 O   0  0  0  0  0  0  0  0  0  0  0  0
    5.4641    0.5670    0.0000 N   0  0  0  0  0  0  0  0  0  0  0  0
    4.5981    0.0670    0.0000 C   0  0  3  0  0  0  0  0  0  0  0  0
    5.4641    2.5670    0.0000 C   0  0  0  0  0  0  0  0  0  0  0  0
    6.4641    1.5670    0.0000 C   0  0  0  0  0  0  0  0  0  0  0  0
    4.4641    1.5670    0.0000 C   0  0  0  0  0  0  0  0  0  0  0  0
    4.5981   -0.9330    0.0000 C   0  0  0  0  0  0  0  0  0  0  0  0
    3.7320    0.5670    0.0000 C   0  0  0  0  0  0  0  0  0  0  0  0
    2.0000    2.5670    0.0000 C   0  0  0  0  0  0  0  0  0  0  0  0
    3.3660    2.9330    0.0000 C   0  0  0  0  0  0  0  0  0  0  0  0
    2.3660    1.2010    0.0000 C   0  0  0  0  0  0  0  0  0  0  0  0
    5.4641   -1.4330    0.0000 C   0  0  0  0  0  0  0  0  0  0  0  0
    3.7320   -1.4330    0.0000 C   0  0  0  0  0  0  0  0  0  0  0  0
    5.4641   -2.4330    0.0000 C   0  0  0  0  0  0  0  0  0  0  0  0
    3.7320   -2.4330    0.0000 C   0  0  0  0  0  0  0  0  0  0  0  0
    4.5981   -2.9330    0.0000 C   0  0  0  0  0  0  0  0  0  0  0  0
    4.5981    0.6870    0.0000 H   0  0  0  0  0  0  0  0  0  0  0  0
    6.0010    0.2570    0.0000 H   0  0  0  0  0  0  0  0  0  0  0  0
    6.0841    2.5670    0.0000 H   0  0  0  0  0  0  0  0  0  0  0  0
    5.4641    3.1870    0.0000 H   0  0  0  0  0  0  0  0  0  0  0  0
    4.8441    2.5670    0.0000 H   0  0  0  0  0  0  0  0  0  0  0  0
    6.4641    0.9470    0.0000 H   0  0  0  0  0  0  0  0  0  0  0  0
    7.0841    1.5670    0.0000 H   0  0  0  0  0  0  0  0  0  0  0  0
    6.4641    2.1870    0.0000 H   0  0  0  0  0  0  0  0  0  0  0  0
    4.4641    2.1870    0.0000 H   0  0  0  0  0  0  0  0  0  0  0  0
    3.8441    1.5670    0.0000 H   0  0  0  0  0  0  0  0  0  0  0  0
    4.4641    0.9470    0.0000 H   0  0  0  0  0  0  0  0  0  0  0  0
    2.3100    3.1039    0.0000 H   0  0  0  0  0  0  0  0  0  0  0  0
    1.4631    2.8770    0.0000 H   0  0  0  0  0  0  0  0  0  0  0  0
    1.6900    2.0300    0.0000 H   0  0  0  0  0  0  0  0  0  0  0  0
    3.9030    2.6230    0.0000 H   0  0  0  0  0  0  0  0  0  0  0  0
    3.6760    3.4700    0.0000 H   0  0  0  0  0  0  0  0  0  0  0  0
    2.8291    3.2430    0.0000 H   0  0  0  0  0  0  0  0  0  0  0  0
    1.8291    1.5110    0.0000 H   0  0  0  0  0  0  0  0  0  0  0  0
    2.0560    0.6640    0.0000 H   0  0  0  0  0  0  0  0  0  0  0  0
    2.9030    0.8910    0.0000 H   0  0  0  0  0  0  0  0  0  0  0  0
    6.0010   -1.1230    0.0000 H   0  0  0  0  0  0  0  0  0  0  0  0
    3.1951   -1.1230    0.0000 H   0  0  0  0  0  0  0  0  0  0  0  0
    6.0010   -2.7430    0.0000 H   0  0  0  0  0  0  0  0  0  0  0  0
    3.1951   -2.7430    0.0000 H   0  0  0  0  0  0  0  0  0  0  0  0
    4.5981   -3.5530    0.0000 H   0  0  0  0  0  0  0  0  0  0  0  0
  1  5  1  0  0  0  0
  1  7  1  0  0  0  0
  1  8  1  0  0  0  0
  1  9  1  0  0  0  0
  2  3  1  0  0  0  0
  2 12  1  0  0  0  0
  2 13  1  0  0  0  0
  2 14  1  0  0  0  0
  3 11  1  0  0  0  0
  4 11  2  0  0  0  0
  5  6  1  0  0  0  0
  5 21  1  0  0  0  0
  6 10  1  0  0  0  0
  6 11  1  0  0  0  0
  6 20  1  0  0  0  0
  7 22  1  0  0  0  0
  7 23  1  0  0  0  0
  7 24  1  0  0  0  0
  8 25  1  0  0  0  0
  8 26  1  0  0  0  0
  8 27  1  0  0  0  0
  9 28  1  0  0  0  0
  9 29  1  0  0  0  0
  9 30  1  0  0  0  0
 10 15  2  0  0  0  0
 10 16  1  0  0  0  0
 12 31  1  0  0  0  0
 12 32  1  0  0  0  0
 12 33  1  0  0  0  0
 13 34  1  0  0  0  0
 13 35  1  0  0  0  0
 13 36  1  0  0  0  0
 14 37  1  0  0  0  0
 14 38  1  0  0  0  0
 14 39  1  0  0  0  0
 15 17  1  0  0  0  0
 15 40  1  0  0  0  0
 16 18  2  0  0  0  0
 16 41  1  0  0  0  0
 17 19  2  0  0  0  0
 17 42  1  0  0  0  0
 18 19  1  0  0  0  0
 18 43  1  0  0  0  0
 19 44  1  0  0  0  0
M  END
> <PUBCHEM_COMPOUND_CID>
523827
> <PUBCHEM_COMPOUND_CANONICALIZED>
1
> <PUBCHEM_CACTVS_COMPLEXITY>
302
> <PUBCHEM_CACTVS_HBOND_ACCEPTOR>
3
> <PUBCHEM_CACTVS_HBOND_DONOR>
1
> <PUBCHEM_CACTVS_ROTATABLE_BOND>
6
> <PUBCHEM_CACTVS_SUBSKEYS>
AAADceByMAwAAAAAAAAAAAAAAAAAAAAAAAAwAAAAAAAAAAABAAAAHhARAEAADCjBmARyCIBAAAGIAiDSCACCAAAgAAAIiIGABIgKIDKAlRGAIABkwAEIiAeYyKCOAAAAAAAAAAAAAAAAAAAAAAAAAAAAAA==
> <PUBCHEM_IUPAC_OPENEYE_NAME>
trimethylsilyl 2-phenyl-2-(trimethylsilylamino)acetate
> <PUBCHEM_IUPAC_CAS_NAME>
2-phenyl-2-(trimethylsilylamino)acetic acid trimethylsilyl ester
> <PUBCHEM_IUPAC_NAME_MARKUP>
trimethylsilyl 2-phenyl-2-(trimethylsilylamino)acetate
> <PUBCHEM_IUPAC_NAME>
trimethylsilyl 2-phenyl-2-(trimethylsilylamino)acetate
> <PUBCHEM_IUPAC_SYSTEMATIC_NAME>
trimethylsilyl 2-phenyl-2-(trimethylsilylamino)ethanoate
> <PUBCHEM_IUPAC_TRADITIONAL_NAME>
2-phenyl-2-(trimethylsilylamino)acetic acid trimethylsilyl ester
> <PUBCHEM_IUPAC_INCHI>
InChI=1S/C14H25NO2Si2/c1-18(2,3)15-13(12-10-8-7-9-11-12)14(16)17-19(4,5)6/h7-11,13,15H,1-6H3
> <PUBCHEM_IUPAC_INCHIKEY>
FVFAFOSNQSGNPR-UHFFFAOYSA-N
> <PUBCHEM_EXACT_MASS>
295.14238211
> <PUBCHEM_MOLECULAR_FORMULA>
C14H25NO2Si2
> <PUBCHEM_MOLECULAR_WEIGHT>
295.52
> <PUBCHEM_OPENEYE_CAN_SMILES>
C[Si](C)(C)NC(C1=CC=CC=C1)C(=O)O[Si](C)(C)C
> <PUBCHEM_OPENEYE_ISO_SMILES>
C[Si](C)(C)NC(C1=CC=CC=C1)C(=O)O[Si](C)(C)C
> <PUBCHEM_CACTVS_TPSA>
38.3
> <PUBCHEM_MONOISOTOPIC_WEIGHT>
295.14238211
> <PUBCHEM_TOTAL_CHARGE>
0
> <PUBCHEM_HEAVY_ATOM_COUNT>
19
> <PUBCHEM_ATOM_DEF_STEREO_COUNT>
0
> <PUBCHEM_ATOM_UDEF_STEREO_COUNT>
1
> <PUBCHEM_BOND_DEF_STEREO_COUNT>
0
> <PUBCHEM_BOND_UDEF_STEREO_COUNT>
0
> <PUBCHEM_ISOTOPIC_ATOM_COUNT>
0
> <PUBCHEM_COMPONENT_COUNT>
1
> <PUBCHEM_CACTVS_TAUTO_COUNT>
-1
> <PUBCHEM_COORDINATE_TYPE>
1
5
255
> <PUBCHEM_BONDANNOTATIONS>
10  15  8
10  16  8
15  17  8
16  18  8
17  19  8
18  19  8
6  11  3
$$$$
