523809
  -OEChem-10302200292D
 29 29  0     1  0  0  0  0  0999 V2000
    3.5878    1.6149    0.0000 O   0  0  0  0  0  0  0  0  0  0  0  0
    3.9538   -1.4239    0.0000 O   0  0  0  0  0  0  0  0  0  0  0  0
    3.0878    0.0761    0.0000 N   0  0  0  0  0  0  0  0  0  0  0  0
    2.2788    0.6639    0.0000 N   0  0  0  0  0  0  0  0  0  0  0  0
    3.8968    0.6639    0.0000 C   0  0  3  0  0  0  0  0  0  0  0  0
    4.4846   -0.1452    0.0000 C   0  0  0  0  0  0  0  0  0  0  0  0
    4.8479    0.9729    0.0000 C   0  0  0  0  0  0  0  0  0  0  0  0
    2.5878    1.6149    0.0000 C   0  0  0  0  0  0  0  0  0  0  0  0
    5.4791   -0.0406    0.0000 C   0  0  0  0  0  0  0  0  0  0  0  0
    3.0878   -0.9239    0.0000 C   0  0  0  0  0  0  0  0  0  0  0  0
    2.2218   -1.4239    0.0000 C   0  0  0  0  0  0  0  0  0  0  0  0
    2.0000    2.4239    0.0000 C   0  0  0  0  0  0  0  0  0  0  0  0
    2.2218   -2.4239    0.0000 C   0  0  0  0  0  0  0  0  0  0  0  0
    3.9273   -0.4170    0.0000 H   0  0  0  0  0  0  0  0  0  0  0  0
    4.6555   -0.7411    0.0000 H   0  0  0  0  0  0  0  0  0  0  0  0
    5.0395    0.3832    0.0000 H   0  0  0  0  0  0  0  0  0  0  0  0
    5.4375    1.1645    0.0000 H   0  0  0  0  0  0  0  0  0  0  0  0
    4.6563    1.5625    0.0000 H   0  0  0  0  0  0  0  0  0  0  0  0
    5.5439   -0.6572    0.0000 H   0  0  0  0  0  0  0  0  0  0  0  0
    6.0957    0.0242    0.0000 H   0  0  0  0  0  0  0  0  0  0  0  0
    5.4143    0.5760    0.0000 H   0  0  0  0  0  0  0  0  0  0  0  0
    2.0097   -0.8413    0.0000 H   0  0  0  0  0  0  0  0  0  0  0  0
    1.6112   -1.5316    0.0000 H   0  0  0  0  0  0  0  0  0  0  0  0
    2.5016    2.7884    0.0000 H   0  0  0  0  0  0  0  0  0  0  0  0
    1.6356    2.9255    0.0000 H   0  0  0  0  0  0  0  0  0  0  0  0
    1.4984    2.0595    0.0000 H   0  0  0  0  0  0  0  0  0  0  0  0
    1.6018   -2.4239    0.0000 H   0  0  0  0  0  0  0  0  0  0  0  0
    2.2218   -3.0439    0.0000 H   0  0  0  0  0  0  0  0  0  0  0  0
    2.8418   -2.4239    0.0000 H   0  0  0  0  0  0  0  0  0  0  0  0
  1  5  1  0  0  0  0
  1  8  1  0  0  0  0
  2 10  2  0  0  0  0
  3  4  1  0  0  0  0
  3  5  1  0  0  0  0
  3 10  1  0  0  0  0
  4  8  2  0  0  0  0
  5  6  1  0  0  0  0
  5  7  1  0  0  0  0
  6  9  1  0  0  0  0
  6 14  1  0  0  0  0
  6 15  1  0  0  0  0
  7 16  1  0  0  0  0
  7 17  1  0  0  0  0
  7 18  1  0  0  0  0
  8 12  1  0  0  0  0
  9 19  1  0  0  0  0
  9 20  1  0  0  0  0
  9 21  1  0  0  0  0
 10 11  1  0  0  0  0
 11 13  1  0  0  0  0
 11 22  1  0  0  0  0
 11 23  1  0  0  0  0
 12 24  1  0  0  0  0
 12 25  1  0  0  0  0
 12 26  1  0  0  0  0
 13 27  1  0  0  0  0
 13 28  1  0  0  0  0
 13 29  1  0  0  0  0
M  END
> <PUBCHEM_COMPOUND_CID>
523809
> <PUBCHEM_COMPOUND_CANONICALIZED>
1
> <PUBCHEM_CACTVS_COMPLEXITY>
250
> <PUBCHEM_CACTVS_HBOND_ACCEPTOR>
3
> <PUBCHEM_CACTVS_HBOND_DONOR>
0
> <PUBCHEM_CACTVS_ROTATABLE_BOND>
2
> <PUBCHEM_CACTVS_SUBSKEYS>
AAADceBzMAAAAAAAAAAAAAAAAAAAAQAAAAAAAAAAAAAAAAAAAAAAHgAIAAAACAyBgAACAAIABAAoAAEwEAAQAAAAAAASAAEQAAAAAAAAAAAOAAAADACAAAAAAAAAAAAAAAAAAAAAAAAAAAAAAAAAAAAAAA==
> <PUBCHEM_IUPAC_OPENEYE_NAME>
1-(2-ethyl-2,5-dimethyl-1,3,4-oxadiazol-3-yl)propan-1-one
> <PUBCHEM_IUPAC_CAS_NAME>
1-(2-ethyl-2,5-dimethyl-1,3,4-oxadiazol-3-yl)-1-propanone
> <PUBCHEM_IUPAC_NAME_MARKUP>
1-(2-ethyl-2,5-dimethyl-1,3,4-oxadiazol-3-yl)propan-1-one
> <PUBCHEM_IUPAC_NAME>
1-(2-ethyl-2,5-dimethyl-1,3,4-oxadiazol-3-yl)propan-1-one
> <PUBCHEM_IUPAC_SYSTEMATIC_NAME>
1-(2-ethyl-2,5-dimethyl-1,3,4-oxadiazol-3-yl)propan-1-one
> <PUBCHEM_IUPAC_TRADITIONAL_NAME>
1-(2-ethyl-2,5-dimethyl-1,3,4-oxadiazol-3-yl)propan-1-one
> <PUBCHEM_IUPAC_INCHI>
InChI=1S/C9H16N2O2/c1-5-8(12)11-9(4,6-2)13-7(3)10-11/h5-6H2,1-4H3
> <PUBCHEM_IUPAC_INCHIKEY>
OQLBSLNOBVIKLD-UHFFFAOYSA-N
> <PUBCHEM_XLOGP3_AA>
1.4
> <PUBCHEM_EXACT_MASS>
184.121177757
> <PUBCHEM_MOLECULAR_FORMULA>
C9H16N2O2
> <PUBCHEM_MOLECULAR_WEIGHT>
184.24
> <PUBCHEM_OPENEYE_CAN_SMILES>
CCC(=O)N1C(OC(=N1)C)(C)CC
> <PUBCHEM_OPENEYE_ISO_SMILES>
CCC(=O)N1C(OC(=N1)C)(C)CC
> <PUBCHEM_CACTVS_TPSA>
41.9
> <PUBCHEM_MONOISOTOPIC_WEIGHT>
184.121177757
> <PUBCHEM_TOTAL_CHARGE>
0
> <PUBCHEM_HEAVY_ATOM_COUNT>
13
> <PUBCHEM_ATOM_DEF_STEREO_COUNT>
0
> <PUBCHEM_ATOM_UDEF_STEREO_COUNT>
1
> <PUBCHEM_BOND_DEF_STEREO_COUNT>
0
> <PUBCHEM_BOND_UDEF_STEREO_COUNT>
0
> <PUBCHEM_ISOTOPIC_ATOM_COUNT>
0
> <PUBCHEM_COMPONENT_COUNT>
1
> <PUBCHEM_CACTVS_TAUTO_COUNT>
-1
> <PUBCHEM_COORDINATE_TYPE>
1
5
255
> <PUBCHEM_BONDANNOTATIONS>
5  7  3
$$$$
