523859
  -OEChem-10302200292D
 14 13  0     1  0  0  0  0  0999 V2000
    3.7320    1.2500    0.0000 Cl  0  0  0  0  0  0  0  0  0  0  0  0
    2.0000   -0.7500    0.0000 Cl  0  0  0  0  0  0  0  0  0  0  0  0
    2.3660    0.6160    0.0000 Cl  0  0  0  0  0  0  0  0  0  0  0  0
    3.3660   -1.1160    0.0000 Cl  0  0  0  0  0  0  0  0  0  0  0  0
    5.4641    0.2500    0.0000 O   0  0  0  0  0  0  0  0  0  0  0  0
    4.5981   -1.2500    0.0000 O   0  0  0  0  0  0  0  0  0  0  0  0
    3.7320    0.2500    0.0000 C   0  0  3  0  0  0  0  0  0  0  0  0
    2.8660   -0.2500    0.0000 C   0  0  0  0  0  0  0  0  0  0  0  0
    4.5981   -0.2500    0.0000 C   0  0  0  0  0  0  0  0  0  0  0  0
    6.3301   -0.2500    0.0000 C   0  0  0  0  0  0  0  0  0  0  0  0
    4.4682    0.6750    0.0000 H   0  0  0  0  0  0  0  0  0  0  0  0
    6.0201   -0.7869    0.0000 H   0  0  0  0  0  0  0  0  0  0  0  0
    6.8671   -0.5600    0.0000 H   0  0  0  0  0  0  0  0  0  0  0  0
    6.6401    0.2869    0.0000 H   0  0  0  0  0  0  0  0  0  0  0  0
  1  7  1  0  0  0  0
  2  8  1  0  0  0  0
  3  8  1  0  0  0  0
  4  8  1  0  0  0  0
  5  9  1  0  0  0  0
  5 10  1  0  0  0  0
  6  9  2  0  0  0  0
  7  8  1  0  0  0  0
  7  9  1  0  0  0  0
  7 11  1  0  0  0  0
 10 12  1  0  0  0  0
 10 13  1  0  0  0  0
 10 14  1  0  0  0  0
M  END
> <PUBCHEM_COMPOUND_CID>
523859
> <PUBCHEM_COMPOUND_CANONICALIZED>
1
> <PUBCHEM_CACTVS_COMPLEXITY>
130
> <PUBCHEM_CACTVS_HBOND_ACCEPTOR>
2
> <PUBCHEM_CACTVS_HBOND_DONOR>
0
> <PUBCHEM_CACTVS_ROTATABLE_BOND>
2
> <PUBCHEM_CACTVS_SUBSKEYS>
AAADcYBgMAAHAAAAAAAAAAAAAAAAAAAAAAAAAAAAAAAAAAAAAAAAGgIAAAAACAOAgMICCAAABAAIAACQCAAAAAAAAAAAAEEAAwBAAAAAAAAAAAAAAAAAAAAAAAAAAAAAAAAAAAAAAAAAAAAAAAAAAAAAAA==
> <PUBCHEM_IUPAC_OPENEYE_NAME>
methyl 2,3,3,3-tetrachloropropanoate
> <PUBCHEM_IUPAC_CAS_NAME>
2,3,3,3-tetrachloropropanoic acid methyl ester
> <PUBCHEM_IUPAC_NAME_MARKUP>
methyl 2,3,3,3-tetrachloropropanoate
> <PUBCHEM_IUPAC_NAME>
methyl 2,3,3,3-tetrachloropropanoate
> <PUBCHEM_IUPAC_SYSTEMATIC_NAME>
methyl 2,3,3,3-tetrakis(chloranyl)propanoate
> <PUBCHEM_IUPAC_TRADITIONAL_NAME>
2,3,3,3-tetrachloropropionic acid methyl ester
> <PUBCHEM_IUPAC_INCHI>
InChI=1S/C4H4Cl4O2/c1-10-3(9)2(5)4(6,7)8/h2H,1H3
> <PUBCHEM_IUPAC_INCHIKEY>
LFHGTEYJIKRWFF-UHFFFAOYSA-N
> <PUBCHEM_XLOGP3_AA>
2.6
> <PUBCHEM_EXACT_MASS>
225.893590
> <PUBCHEM_MOLECULAR_FORMULA>
C4H4Cl4O2
> <PUBCHEM_MOLECULAR_WEIGHT>
225.9
> <PUBCHEM_OPENEYE_CAN_SMILES>
COC(=O)C(C(Cl)(Cl)Cl)Cl
> <PUBCHEM_OPENEYE_ISO_SMILES>
COC(=O)C(C(Cl)(Cl)Cl)Cl
> <PUBCHEM_CACTVS_TPSA>
26.3
> <PUBCHEM_MONOISOTOPIC_WEIGHT>
223.896540
> <PUBCHEM_TOTAL_CHARGE>
0
> <PUBCHEM_HEAVY_ATOM_COUNT>
10
> <PUBCHEM_ATOM_DEF_STEREO_COUNT>
0
> <PUBCHEM_ATOM_UDEF_STEREO_COUNT>
1
> <PUBCHEM_BOND_DEF_STEREO_COUNT>
0
> <PUBCHEM_BOND_UDEF_STEREO_COUNT>
0
> <PUBCHEM_ISOTOPIC_ATOM_COUNT>
0
> <PUBCHEM_COMPONENT_COUNT>
1
> <PUBCHEM_CACTVS_TAUTO_COUNT>
1
> <PUBCHEM_COORDINATE_TYPE>
1
5
255
> <PUBCHEM_BONDANNOTATIONS>
7  11  3
$$$$
