523812
  -OEChem-10302200292D
 26 26  0     1  0  0  0  0  0999 V2000
    3.3660    2.0194    0.0000 O   0  0  0  0  0  0  0  0  0  0  0  0
    3.7320   -1.0194    0.0000 O   0  0  0  0  0  0  0  0  0  0  0  0
    2.8660    0.4806    0.0000 N   0  0  0  0  0  0  0  0  0  0  0  0
    2.0570    1.0684    0.0000 N   0  0  0  0  0  0  0  0  0  0  0  0
    3.6750    1.0684    0.0000 C   0  0  3  0  0  0  0  0  0  0  0  0
    4.2628    0.2593    0.0000 C   0  0  0  0  0  0  0  0  0  0  0  0
    4.6261    1.3774    0.0000 C   0  0  0  0  0  0  0  0  0  0  0  0
    5.2574    0.3639    0.0000 C   0  0  0  0  0  0  0  0  0  0  0  0
    2.8660   -0.5194    0.0000 C   0  0  0  0  0  0  0  0  0  0  0  0
    2.3660    2.0194    0.0000 C   0  0  0  0  0  0  0  0  0  0  0  0
    2.0000   -1.0194    0.0000 C   0  0  0  0  0  0  0  0  0  0  0  0
    2.0000   -2.0194    0.0000 C   0  0  0  0  0  0  0  0  0  0  0  0
    3.7056   -0.0124    0.0000 H   0  0  0  0  0  0  0  0  0  0  0  0
    4.4337   -0.3366    0.0000 H   0  0  0  0  0  0  0  0  0  0  0  0
    4.8177    0.7877    0.0000 H   0  0  0  0  0  0  0  0  0  0  0  0
    5.2158    1.5690    0.0000 H   0  0  0  0  0  0  0  0  0  0  0  0
    4.4345    1.9670    0.0000 H   0  0  0  0  0  0  0  0  0  0  0  0
    5.3222   -0.2527    0.0000 H   0  0  0  0  0  0  0  0  0  0  0  0
    5.8740    0.4287    0.0000 H   0  0  0  0  0  0  0  0  0  0  0  0
    5.1925    0.9805    0.0000 H   0  0  0  0  0  0  0  0  0  0  0  0
    2.0016    2.5210    0.0000 H   0  0  0  0  0  0  0  0  0  0  0  0
    1.7880   -0.4368    0.0000 H   0  0  0  0  0  0  0  0  0  0  0  0
    1.3894   -1.1271    0.0000 H   0  0  0  0  0  0  0  0  0  0  0  0
    1.3800   -2.0194    0.0000 H   0  0  0  0  0  0  0  0  0  0  0  0
    2.0000   -2.6394    0.0000 H   0  0  0  0  0  0  0  0  0  0  0  0
    2.6200   -2.0194    0.0000 H   0  0  0  0  0  0  0  0  0  0  0  0
  1  5  1  0  0  0  0
  1 10  1  0  0  0  0
  2  9  2  0  0  0  0
  3  4  1  0  0  0  0
  3  5  1  0  0  0  0
  3  9  1  0  0  0  0
  4 10  2  0  0  0  0
  5  6  1  0  0  0  0
  5  7  1  0  0  0  0
  6  8  1  0  0  0  0
  6 13  1  0  0  0  0
  6 14  1  0  0  0  0
  7 15  1  0  0  0  0
  7 16  1  0  0  0  0
  7 17  1  0  0  0  0
  8 18  1  0  0  0  0
  8 19  1  0  0  0  0
  8 20  1  0  0  0  0
  9 11  1  0  0  0  0
 10 21  1  0  0  0  0
 11 12  1  0  0  0  0
 11 22  1  0  0  0  0
 11 23  1  0  0  0  0
 12 24  1  0  0  0  0
 12 25  1  0  0  0  0
 12 26  1  0  0  0  0
M  END
> <PUBCHEM_COMPOUND_CID>
523812
> <PUBCHEM_COMPOUND_CANONICALIZED>
1
> <PUBCHEM_CACTVS_COMPLEXITY>
215
> <PUBCHEM_CACTVS_HBOND_ACCEPTOR>
3
> <PUBCHEM_CACTVS_HBOND_DONOR>
0
> <PUBCHEM_CACTVS_ROTATABLE_BOND>
2
> <PUBCHEM_CACTVS_SUBSKEYS>
AAADccBzMAAAAAAAAAAAAAAAAAAAAQAAAAAAAAAAAAAAAAAAAAAAHgAIAAAACAyBgAYCAAIABAAoAAEREAAQAAAAAAASAAEAAAAAAAAAAAAEAAAABACAAAAAAAAAAAAAAAAAAAAAAAAAAAAAAAAAAAAAAA==
> <PUBCHEM_IUPAC_OPENEYE_NAME>
1-(2-ethyl-2-methyl-1,3,4-oxadiazol-3-yl)propan-1-one
> <PUBCHEM_IUPAC_CAS_NAME>
1-(2-ethyl-2-methyl-1,3,4-oxadiazol-3-yl)-1-propanone
> <PUBCHEM_IUPAC_NAME_MARKUP>
1-(2-ethyl-2-methyl-1,3,4-oxadiazol-3-yl)propan-1-one
> <PUBCHEM_IUPAC_NAME>
1-(2-ethyl-2-methyl-1,3,4-oxadiazol-3-yl)propan-1-one
> <PUBCHEM_IUPAC_SYSTEMATIC_NAME>
1-(2-ethyl-2-methyl-1,3,4-oxadiazol-3-yl)propan-1-one
> <PUBCHEM_IUPAC_TRADITIONAL_NAME>
1-(2-ethyl-2-methyl-1,3,4-oxadiazol-3-yl)propan-1-one
> <PUBCHEM_IUPAC_INCHI>
InChI=1S/C8H14N2O2/c1-4-7(11)10-8(3,5-2)12-6-9-10/h6H,4-5H2,1-3H3
> <PUBCHEM_IUPAC_INCHIKEY>
MZEUPXHNPADRNY-UHFFFAOYSA-N
> <PUBCHEM_XLOGP3_AA>
1.4
> <PUBCHEM_EXACT_MASS>
170.105527694
> <PUBCHEM_MOLECULAR_FORMULA>
C8H14N2O2
> <PUBCHEM_MOLECULAR_WEIGHT>
170.21
> <PUBCHEM_OPENEYE_CAN_SMILES>
CCC(=O)N1C(OC=N1)(C)CC
> <PUBCHEM_OPENEYE_ISO_SMILES>
CCC(=O)N1C(OC=N1)(C)CC
> <PUBCHEM_CACTVS_TPSA>
41.9
> <PUBCHEM_MONOISOTOPIC_WEIGHT>
170.105527694
> <PUBCHEM_TOTAL_CHARGE>
0
> <PUBCHEM_HEAVY_ATOM_COUNT>
12
> <PUBCHEM_ATOM_DEF_STEREO_COUNT>
0
> <PUBCHEM_ATOM_UDEF_STEREO_COUNT>
1
> <PUBCHEM_BOND_DEF_STEREO_COUNT>
0
> <PUBCHEM_BOND_UDEF_STEREO_COUNT>
0
> <PUBCHEM_ISOTOPIC_ATOM_COUNT>
0
> <PUBCHEM_COMPONENT_COUNT>
1
> <PUBCHEM_CACTVS_TAUTO_COUNT>
-1
> <PUBCHEM_COORDINATE_TYPE>
1
5
255
> <PUBCHEM_BONDANNOTATIONS>
5  7  3
$$$$
