523959
  -OEChem-10302200292D
 36 35  0     1  0  0  0  0  0999 V2000
    2.8660    0.0670    0.0000 Si  0  0  0  0  0  0  0  0  0  0  0  0
    3.7320    0.5670    0.0000 O   0  0  0  0  0  0  0  0  0  0  0  0
    6.3301    0.0670    0.0000 C   0  0  3  0  0  0  0  0  0  0  0  0
    5.4641    0.5670    0.0000 C   0  0  0  0  0  0  0  0  0  0  0  0
    7.1962    0.5670    0.0000 C   0  0  0  0  0  0  0  0  0  0  0  0
    4.5981    0.0670    0.0000 C   0  0  0  0  0  0  0  0  0  0  0  0
    6.3301   -0.9330    0.0000 C   0  0  0  0  0  0  0  0  0  0  0  0
    8.0622    0.0670    0.0000 C   0  0  0  0  0  0  0  0  0  0  0  0
    2.0000   -0.4330    0.0000 C   0  0  0  0  0  0  0  0  0  0  0  0
    2.3660    0.9330    0.0000 C   0  0  0  0  0  0  0  0  0  0  0  0
    3.3660   -0.7990    0.0000 C   0  0  0  0  0  0  0  0  0  0  0  0
    8.9282    0.5670    0.0000 C   0  0  0  0  0  0  0  0  0  0  0  0
    6.8671   -0.2430    0.0000 H   0  0  0  0  0  0  0  0  0  0  0  0
    5.8626    1.0419    0.0000 H   0  0  0  0  0  0  0  0  0  0  0  0
    5.0656    1.0419    0.0000 H   0  0  0  0  0  0  0  0  0  0  0  0
    7.5947    1.0419    0.0000 H   0  0  0  0  0  0  0  0  0  0  0  0
    6.7976    1.0419    0.0000 H   0  0  0  0  0  0  0  0  0  0  0  0
    4.1996   -0.4080    0.0000 H   0  0  0  0  0  0  0  0  0  0  0  0
    4.9966   -0.4080    0.0000 H   0  0  0  0  0  0  0  0  0  0  0  0
    5.7101   -0.9330    0.0000 H   0  0  0  0  0  0  0  0  0  0  0  0
    6.3301   -1.5530    0.0000 H   0  0  0  0  0  0  0  0  0  0  0  0
    6.9501   -0.9330    0.0000 H   0  0  0  0  0  0  0  0  0  0  0  0
    7.6636   -0.4080    0.0000 H   0  0  0  0  0  0  0  0  0  0  0  0
    8.4607   -0.4080    0.0000 H   0  0  0  0  0  0  0  0  0  0  0  0
    1.6900    0.1039    0.0000 H   0  0  0  0  0  0  0  0  0  0  0  0
    1.4631   -0.7430    0.0000 H   0  0  0  0  0  0  0  0  0  0  0  0
    2.3100   -0.9699    0.0000 H   0  0  0  0  0  0  0  0  0  0  0  0
    2.9030    1.2430    0.0000 H   0  0  0  0  0  0  0  0  0  0  0  0
    2.0560    1.4700    0.0000 H   0  0  0  0  0  0  0  0  0  0  0  0
    1.8291    0.6230    0.0000 H   0  0  0  0  0  0  0  0  0  0  0  0
    2.8291   -1.1090    0.0000 H   0  0  0  0  0  0  0  0  0  0  0  0
    3.6760   -1.3360    0.0000 H   0  0  0  0  0  0  0  0  0  0  0  0
    3.9030   -0.4890    0.0000 H   0  0  0  0  0  0  0  0  0  0  0  0
    9.2382    0.0301    0.0000 H   0  0  0  0  0  0  0  0  0  0  0  0
    9.4651    0.8770    0.0000 H   0  0  0  0  0  0  0  0  0  0  0  0
    8.6182    1.1039    0.0000 H   0  0  0  0  0  0  0  0  0  0  0  0
  1  2  1  0  0  0  0
  1  9  1  0  0  0  0
  1 10  1  0  0  0  0
  1 11  1  0  0  0  0
  2  6  1  0  0  0  0
  3  4  1  0  0  0  0
  3  5  1  0  0  0  0
  3  7  1  0  0  0  0
  3 13  1  0  0  0  0
  4  6  1  0  0  0  0
  4 14  1  0  0  0  0
  4 15  1  0  0  0  0
  5  8  1  0  0  0  0
  5 16  1  0  0  0  0
  5 17  1  0  0  0  0
  6 18  1  0  0  0  0
  6 19  1  0  0  0  0
  7 20  1  0  0  0  0
  7 21  1  0  0  0  0
  7 22  1  0  0  0  0
  8 12  1  0  0  0  0
  8 23  1  0  0  0  0
  8 24  1  0  0  0  0
  9 25  1  0  0  0  0
  9 26  1  0  0  0  0
  9 27  1  0  0  0  0
 10 28  1  0  0  0  0
 10 29  1  0  0  0  0
 10 30  1  0  0  0  0
 11 31  1  0  0  0  0
 11 32  1  0  0  0  0
 11 33  1  0  0  0  0
 12 34  1  0  0  0  0
 12 35  1  0  0  0  0
 12 36  1  0  0  0  0
M  END
> <PUBCHEM_COMPOUND_CID>
523959
> <PUBCHEM_COMPOUND_CANONICALIZED>
1
> <PUBCHEM_CACTVS_COMPLEXITY>
107
> <PUBCHEM_CACTVS_HBOND_ACCEPTOR>
1
> <PUBCHEM_CACTVS_HBOND_DONOR>
0
> <PUBCHEM_CACTVS_ROTATABLE_BOND>
6
> <PUBCHEM_CACTVS_SUBSKEYS>
AAADceBwIAgAAAAAAAAAAAAAAAAAAAAAAAAAAAAAAAAAAAAAAAAAGhAAAEAADQCggAJCAAAAAAEAAAAAAAAAAAAAAAAAAAAAAAAAAAIAAAAAAAAEAAAAAAGAQAAOAAAAAAAAAAAAAAAAAAAAAAAAAAAAAA==
> <PUBCHEM_IUPAC_OPENEYE_NAME>
trimethyl(3-methylhexoxy)silane
> <PUBCHEM_IUPAC_CAS_NAME>
trimethyl(3-methylhexoxy)silane
> <PUBCHEM_IUPAC_NAME_MARKUP>
trimethyl(3-methylhexoxy)silane
> <PUBCHEM_IUPAC_NAME>
trimethyl(3-methylhexoxy)silane
> <PUBCHEM_IUPAC_SYSTEMATIC_NAME>
trimethyl(3-methylhexoxy)silane
> <PUBCHEM_IUPAC_TRADITIONAL_NAME>
trimethyl(3-methylhexoxy)silane
> <PUBCHEM_IUPAC_INCHI>
InChI=1S/C10H24OSi/c1-6-7-10(2)8-9-11-12(3,4)5/h10H,6-9H2,1-5H3
> <PUBCHEM_IUPAC_INCHIKEY>
KTDIVLXDTYZULU-UHFFFAOYSA-N
> <PUBCHEM_EXACT_MASS>
188.159641919
> <PUBCHEM_MOLECULAR_FORMULA>
C10H24OSi
> <PUBCHEM_MOLECULAR_WEIGHT>
188.38
> <PUBCHEM_OPENEYE_CAN_SMILES>
CCCC(C)CCO[Si](C)(C)C
> <PUBCHEM_OPENEYE_ISO_SMILES>
CCCC(C)CCO[Si](C)(C)C
> <PUBCHEM_CACTVS_TPSA>
9.2
> <PUBCHEM_MONOISOTOPIC_WEIGHT>
188.159641919
> <PUBCHEM_TOTAL_CHARGE>
0
> <PUBCHEM_HEAVY_ATOM_COUNT>
12
> <PUBCHEM_ATOM_DEF_STEREO_COUNT>
0
> <PUBCHEM_ATOM_UDEF_STEREO_COUNT>
1
> <PUBCHEM_BOND_DEF_STEREO_COUNT>
0
> <PUBCHEM_BOND_UDEF_STEREO_COUNT>
0
> <PUBCHEM_ISOTOPIC_ATOM_COUNT>
0
> <PUBCHEM_COMPONENT_COUNT>
1
> <PUBCHEM_CACTVS_TAUTO_COUNT>
-1
> <PUBCHEM_COORDINATE_TYPE>
1
5
255
> <PUBCHEM_BONDANNOTATIONS>
3  7  3
$$$$
