523970
  -OEChem-10302200292D
 68 68  0     1  0  0  0  0  0999 V2000
    3.7878   -1.6041    0.0000 Si  0  0  0  0  0  0  0  0  0  0  0  0
    7.9524   -1.6041    0.0000 Si  0  0  0  0  0  0  0  0  0  0  0  0
    7.8381    1.3386    0.0000 Si  0  0  0  0  0  0  0  0  0  0  0  0
    2.9511    1.6476    0.0000 Si  0  0  0  0  0  0  0  0  0  0  0  0
    5.8701    0.6392    0.0000 O   0  0  0  0  0  0  0  0  0  0  0  0
    4.7823   -1.7087    0.0000 O   0  0  0  0  0  0  0  0  0  0  0  0
    6.9579   -1.7087    0.0000 O   0  0  0  0  0  0  0  0  0  0  0  0
    7.6302    0.3604    0.0000 O   0  0  0  0  0  0  0  0  0  0  0  0
    3.9021    1.3386    0.0000 O   0  0  0  0  0  0  0  0  0  0  0  0
    5.3701   -0.8996    0.0000 C   0  0  3  0  0  0  0  0  0  0  0  0
    6.3701   -0.8996    0.0000 C   0  0  3  0  0  0  0  0  0  0  0  0
    5.0611    0.0514    0.0000 C   0  0  3  0  0  0  0  0  0  0  0  0
    6.6791    0.0514    0.0000 C   0  0  3  0  0  0  0  0  0  0  0  0
    4.1100    0.3604    0.0000 C   0  0  0  0  0  0  0  0  0  0  0  0
    2.7933   -1.4996    0.0000 C   0  0  0  0  0  0  0  0  0  0  0  0
    3.6833   -2.5986    0.0000 C   0  0  0  0  0  0  0  0  0  0  0  0
    3.8923   -0.6096    0.0000 C   0  0  0  0  0  0  0  0  0  0  0  0
    8.9469   -1.4996    0.0000 C   0  0  0  0  0  0  0  0  0  0  0  0
    8.0569   -2.5986    0.0000 C   0  0  0  0  0  0  0  0  0  0  0  0
    7.8479   -0.6096    0.0000 C   0  0  0  0  0  0  0  0  0  0  0  0
    8.0460    2.3167    0.0000 C   0  0  0  0  0  0  0  0  0  0  0  0
    8.8162    1.1307    0.0000 C   0  0  0  0  0  0  0  0  0  0  0  0
    6.8599    1.5465    0.0000 C   0  0  0  0  0  0  0  0  0  0  0  0
    2.0000    1.9566    0.0000 C   0  0  0  0  0  0  0  0  0  0  0  0
    3.2601    2.5986    0.0000 C   0  0  0  0  0  0  0  0  0  0  0  0
    2.6420    0.6965    0.0000 C   0  0  0  0  0  0  0  0  0  0  0  0
    4.7577   -0.8027    0.0000 H   0  0  0  0  0  0  0  0  0  0  0  0
    6.9825   -0.8027    0.0000 H   0  0  0  0  0  0  0  0  0  0  0  0
    4.9641    0.6638    0.0000 H   0  0  0  0  0  0  0  0  0  0  0  0
    6.7761    0.6638    0.0000 H   0  0  0  0  0  0  0  0  0  0  0  0
    3.4904    0.3388    0.0000 H   0  0  0  0  0  0  0  0  0  0  0  0
    4.0237   -0.2535    0.0000 H   0  0  0  0  0  0  0  0  0  0  0  0
    2.8581   -0.8830    0.0000 H   0  0  0  0  0  0  0  0  0  0  0  0
    2.1767   -1.4348    0.0000 H   0  0  0  0  0  0  0  0  0  0  0  0
    2.7285   -2.1162    0.0000 H   0  0  0  0  0  0  0  0  0  0  0  0
    3.0667   -2.5338    0.0000 H   0  0  0  0  0  0  0  0  0  0  0  0
    3.6184   -3.2153    0.0000 H   0  0  0  0  0  0  0  0  0  0  0  0
    4.2999   -2.6635    0.0000 H   0  0  0  0  0  0  0  0  0  0  0  0
    4.5089   -0.6744    0.0000 H   0  0  0  0  0  0  0  0  0  0  0  0
    3.9571    0.0070    0.0000 H   0  0  0  0  0  0  0  0  0  0  0  0
    3.2757   -0.5448    0.0000 H   0  0  0  0  0  0  0  0  0  0  0  0
    9.0117   -2.1162    0.0000 H   0  0  0  0  0  0  0  0  0  0  0  0
    9.5635   -1.4348    0.0000 H   0  0  0  0  0  0  0  0  0  0  0  0
    8.8821   -0.8830    0.0000 H   0  0  0  0  0  0  0  0  0  0  0  0
    7.4403   -2.6635    0.0000 H   0  0  0  0  0  0  0  0  0  0  0  0
    8.1217   -3.2153    0.0000 H   0  0  0  0  0  0  0  0  0  0  0  0
    8.6735   -2.5338    0.0000 H   0  0  0  0  0  0  0  0  0  0  0  0
    8.4645   -0.5448    0.0000 H   0  0  0  0  0  0  0  0  0  0  0  0
    7.7831    0.0070    0.0000 H   0  0  0  0  0  0  0  0  0  0  0  0
    7.2313   -0.6744    0.0000 H   0  0  0  0  0  0  0  0  0  0  0  0
    8.6524    2.1878    0.0000 H   0  0  0  0  0  0  0  0  0  0  0  0
    8.1749    2.9232    0.0000 H   0  0  0  0  0  0  0  0  0  0  0  0
    7.4395    2.4456    0.0000 H   0  0  0  0  0  0  0  0  0  0  0  0
    8.6873    0.5242    0.0000 H   0  0  0  0  0  0  0  0  0  0  0  0
    9.4227    1.0018    0.0000 H   0  0  0  0  0  0  0  0  0  0  0  0
    8.9451    1.7371    0.0000 H   0  0  0  0  0  0  0  0  0  0  0  0
    6.9888    2.1529    0.0000 H   0  0  0  0  0  0  0  0  0  0  0  0
    6.2535    1.6754    0.0000 H   0  0  0  0  0  0  0  0  0  0  0  0
    6.7310    0.9400    0.0000 H   0  0  0  0  0  0  0  0  0  0  0  0
    2.1916    2.5463    0.0000 H   0  0  0  0  0  0  0  0  0  0  0  0
    1.4103    2.1482    0.0000 H   0  0  0  0  0  0  0  0  0  0  0  0
    1.8084    1.3670    0.0000 H   0  0  0  0  0  0  0  0  0  0  0  0
    3.8497    2.4071    0.0000 H   0  0  0  0  0  0  0  0  0  0  0  0
    3.4517    3.1883    0.0000 H   0  0  0  0  0  0  0  0  0  0  0  0
    2.6704    2.7902    0.0000 H   0  0  0  0  0  0  0  0  0  0  0  0
    2.0524    0.8881    0.0000 H   0  0  0  0  0  0  0  0  0  0  0  0
    2.4504    0.1069    0.0000 H   0  0  0  0  0  0  0  0  0  0  0  0
    3.2317    0.5049    0.0000 H   0  0  0  0  0  0  0  0  0  0  0  0
  1  6  1  0  0  0  0
  1 15  1  0  0  0  0
  1 16  1  0  0  0  0
  1 17  1  0  0  0  0
  2  7  1  0  0  0  0
  2 18  1  0  0  0  0
  2 19  1  0  0  0  0
  2 20  1  0  0  0  0
  3  8  1  0  0  0  0
  3 21  1  0  0  0  0
  3 22  1  0  0  0  0
  3 23  1  0  0  0  0
  4  9  1  0  0  0  0
  4 24  1  0  0  0  0
  4 25  1  0  0  0  0
  4 26  1  0  0  0  0
  5 12  1  0  0  0  0
  5 13  1  0  0  0  0
  6 10  1  0  0  0  0
  7 11  1  0  0  0  0
  8 13  1  0  0  0  0
  9 14  1  0  0  0  0
 10 11  1  0  0  0  0
 10 12  1  0  0  0  0
 10 27  1  0  0  0  0
 11 13  1  0  0  0  0
 11 28  1  0  0  0  0
 12 14  1  0  0  0  0
 12 29  1  0  0  0  0
 13 30  1  0  0  0  0
 14 31  1  0  0  0  0
 14 32  1  0  0  0  0
 15 33  1  0  0  0  0
 15 34  1  0  0  0  0
 15 35  1  0  0  0  0
 16 36  1  0  0  0  0
 16 37  1  0  0  0  0
 16 38  1  0  0  0  0
 17 39  1  0  0  0  0
 17 40  1  0  0  0  0
 17 41  1  0  0  0  0
 18 42  1  0  0  0  0
 18 43  1  0  0  0  0
 18 44  1  0  0  0  0
 19 45  1  0  0  0  0
 19 46  1  0  0  0  0
 19 47  1  0  0  0  0
 20 48  1  0  0  0  0
 20 49  1  0  0  0  0
 20 50  1  0  0  0  0
 21 51  1  0  0  0  0
 21 52  1  0  0  0  0
 21 53  1  0  0  0  0
 22 54  1  0  0  0  0
 22 55  1  0  0  0  0
 22 56  1  0  0  0  0
 23 57  1  0  0  0  0
 23 58  1  0  0  0  0
 23 59  1  0  0  0  0
 24 60  1  0  0  0  0
 24 61  1  0  0  0  0
 24 62  1  0  0  0  0
 25 63  1  0  0  0  0
 25 64  1  0  0  0  0
 25 65  1  0  0  0  0
 26 66  1  0  0  0  0
 26 67  1  0  0  0  0
 26 68  1  0  0  0  0
M  END
> <PUBCHEM_COMPOUND_CID>
523970
> <PUBCHEM_COMPOUND_CANONICALIZED>
1
> <PUBCHEM_CACTVS_COMPLEXITY>
448
> <PUBCHEM_CACTVS_HBOND_ACCEPTOR>
5
> <PUBCHEM_CACTVS_HBOND_DONOR>
0
> <PUBCHEM_CACTVS_ROTATABLE_BOND>
9
> <PUBCHEM_CACTVS_SUBSKEYS>
AAADcfB4OAwAAAAAAAAAAAAAAAAAASAAAAAAAAAAAAAAAAAAAAAAGhAAAEAACBSwgANCCAAABAEAAAAAAAAAAAAAAAAAAAAAAAARAAIAAAACAAAFAAAGAADAIAAAAAAAAAAAAAAAAAAAAAAAAAAAAAAAAA==
> <PUBCHEM_IUPAC_OPENEYE_NAME>
trimethyl-[[3,4,5-tris(trimethylsilyloxy)tetrahydrofuran-2-yl]methoxy]silane
> <PUBCHEM_IUPAC_CAS_NAME>
trimethyl-[[3,4,5-tris(trimethylsilyloxy)-2-oxolanyl]methoxy]silane
> <PUBCHEM_IUPAC_NAME_MARKUP>
trimethyl-[[3,4,5-tris(trimethylsilyloxy)oxolan-2-yl]methoxy]silane
> <PUBCHEM_IUPAC_NAME>
trimethyl-[[3,4,5-tris(trimethylsilyloxy)oxolan-2-yl]methoxy]silane
> <PUBCHEM_IUPAC_SYSTEMATIC_NAME>
trimethyl-[[3,4,5-tris(trimethylsilyloxy)oxolan-2-yl]methoxy]silane
> <PUBCHEM_IUPAC_TRADITIONAL_NAME>
trimethyl-[[3,4,5-tris(trimethylsilyloxy)tetrahydrofuran-2-yl]methoxy]silane
> <PUBCHEM_IUPAC_INCHI>
InChI=1S/C17H42O5Si4/c1-23(2,3)18-13-14-15(20-24(4,5)6)16(21-25(7,8)9)17(19-14)22-26(10,11)12/h14-17H,13H2,1-12H3
> <PUBCHEM_IUPAC_INCHIKEY>
LDFPXMNJVPETIY-UHFFFAOYSA-N
> <PUBCHEM_EXACT_MASS>
438.21093057
> <PUBCHEM_MOLECULAR_FORMULA>
C17H42O5Si4
> <PUBCHEM_MOLECULAR_WEIGHT>
438.9
> <PUBCHEM_OPENEYE_CAN_SMILES>
C[Si](C)(C)OCC1C(C(C(O1)O[Si](C)(C)C)O[Si](C)(C)C)O[Si](C)(C)C
> <PUBCHEM_OPENEYE_ISO_SMILES>
C[Si](C)(C)OCC1C(C(C(O1)O[Si](C)(C)C)O[Si](C)(C)C)O[Si](C)(C)C
> <PUBCHEM_CACTVS_TPSA>
46.2
> <PUBCHEM_MONOISOTOPIC_WEIGHT>
438.21093057
> <PUBCHEM_TOTAL_CHARGE>
0
> <PUBCHEM_HEAVY_ATOM_COUNT>
26
> <PUBCHEM_ATOM_DEF_STEREO_COUNT>
0
> <PUBCHEM_ATOM_UDEF_STEREO_COUNT>
4
> <PUBCHEM_BOND_DEF_STEREO_COUNT>
0
> <PUBCHEM_BOND_UDEF_STEREO_COUNT>
0
> <PUBCHEM_ISOTOPIC_ATOM_COUNT>
0
> <PUBCHEM_COMPONENT_COUNT>
1
> <PUBCHEM_CACTVS_TAUTO_COUNT>
-1
> <PUBCHEM_COORDINATE_TYPE>
1
5
255
> <PUBCHEM_BONDANNOTATIONS>
12  14  3
10  6  3
11  7  3
13  8  3
$$$$
