523972
  -OEChem-10302200292D
 84 84  0     1  0  0  0  0  0999 V2000
    2.7431   -0.5307    0.0000 Si  0  0  0  0  0  0  0  0  0  0  0  0
    6.8287    1.1217    0.0000 Si  0  0  0  0  0  0  0  0  0  0  0  0
    4.5653   -2.8442    0.0000 Si  0  0  0  0  0  0  0  0  0  0  0  0
    4.4775    2.9488    0.0000 Si  0  0  0  0  0  0  0  0  0  0  0  0
    7.9165   -2.6352    0.0000 Si  0  0  0  0  0  0  0  0  0  0  0  0
    6.0554   -0.1706    0.0000 O   0  0  0  0  0  0  0  0  0  0  0  0
    3.4863    0.1384    0.0000 O   0  0  0  0  0  0  0  0  0  0  0  0
    5.8342    1.2262    0.0000 O   0  0  0  0  0  0  0  0  0  0  0  0
    4.1586   -1.9307    0.0000 O   0  0  0  0  0  0  0  0  0  0  0  0
    5.0653    2.1397    0.0000 O   0  0  0  0  0  0  0  0  0  0  0  0
    7.3287   -1.8262    0.0000 O   0  0  0  0  0  0  0  0  0  0  0  0
    4.4374   -0.1706    0.0000 C   0  0  3  0  0  0  0  0  0  0  0  0
    5.2464    0.4172    0.0000 C   0  0  3  0  0  0  0  0  0  0  0  0
    4.7464   -1.1217    0.0000 C   0  0  3  0  0  0  0  0  0  0  0  0
    5.7464   -1.1217    0.0000 C   0  0  3  0  0  0  0  0  0  0  0  0
    4.6586    1.2262    0.0000 C   0  0  0  0  0  0  0  0  0  0  0  0
    6.3342   -1.9307    0.0000 C   0  0  0  0  0  0  0  0  0  0  0  0
    2.0000   -1.1998    0.0000 C   0  0  0  0  0  0  0  0  0  0  0  0
    2.0740    0.2124    0.0000 C   0  0  0  0  0  0  0  0  0  0  0  0
    3.4123   -1.2739    0.0000 C   0  0  0  0  0  0  0  0  0  0  0  0
    7.8232    1.0171    0.0000 C   0  0  0  0  0  0  0  0  0  0  0  0
    6.9332    2.1162    0.0000 C   0  0  0  0  0  0  0  0  0  0  0  0
    6.7241    0.1271    0.0000 C   0  0  0  0  0  0  0  0  0  0  0  0
    4.9720   -3.7578    0.0000 C   0  0  0  0  0  0  0  0  0  0  0  0
    3.6518   -3.2510    0.0000 C   0  0  0  0  0  0  0  0  0  0  0  0
    5.4789   -2.4375    0.0000 C   0  0  0  0  0  0  0  0  0  0  0  0
    3.8897    3.7578    0.0000 C   0  0  0  0  0  0  0  0  0  0  0  0
    5.2866    3.5365    0.0000 C   0  0  0  0  0  0  0  0  0  0  0  0
    3.6685    2.3610    0.0000 C   0  0  0  0  0  0  0  0  0  0  0  0
    8.5042   -3.4442    0.0000 C   0  0  0  0  0  0  0  0  0  0  0  0
    8.7255   -2.0474    0.0000 C   0  0  0  0  0  0  0  0  0  0  0  0
    7.1074   -3.2230    0.0000 C   0  0  0  0  0  0  0  0  0  0  0  0
    3.9989   -0.6090    0.0000 H   0  0  0  0  0  0  0  0  0  0  0  0
    5.0278   -1.6741    0.0000 H   0  0  0  0  0  0  0  0  0  0  0  0
    6.3587   -1.0247    0.0000 H   0  0  0  0  0  0  0  0  0  0  0  0
    4.1446    1.5729    0.0000 H   0  0  0  0  0  0  0  0  0  0  0  0
    4.2279    0.7802    0.0000 H   0  0  0  0  0  0  0  0  0  0  0  0
    5.7769   -2.2025    0.0000 H   0  0  0  0  0  0  0  0  0  0  0  0
    6.5050   -2.5267    0.0000 H   0  0  0  0  0  0  0  0  0  0  0  0
    1.5851   -0.7391    0.0000 H   0  0  0  0  0  0  0  0  0  0  0  0
    1.5392   -1.6147    0.0000 H   0  0  0  0  0  0  0  0  0  0  0  0
    2.4149   -1.6606    0.0000 H   0  0  0  0  0  0  0  0  0  0  0  0
    2.5348    0.6273    0.0000 H   0  0  0  0  0  0  0  0  0  0  0  0
    1.6592    0.6732    0.0000 H   0  0  0  0  0  0  0  0  0  0  0  0
    1.6133   -0.2024    0.0000 H   0  0  0  0  0  0  0  0  0  0  0  0
    2.9515   -1.6887    0.0000 H   0  0  0  0  0  0  0  0  0  0  0  0
    3.8271   -1.7346    0.0000 H   0  0  0  0  0  0  0  0  0  0  0  0
    3.8730   -0.8590    0.0000 H   0  0  0  0  0  0  0  0  0  0  0  0
    7.7584    0.4005    0.0000 H   0  0  0  0  0  0  0  0  0  0  0  0
    8.4398    0.9523    0.0000 H   0  0  0  0  0  0  0  0  0  0  0  0
    7.8880    1.6337    0.0000 H   0  0  0  0  0  0  0  0  0  0  0  0
    7.5498    2.0514    0.0000 H   0  0  0  0  0  0  0  0  0  0  0  0
    6.9980    2.7328    0.0000 H   0  0  0  0  0  0  0  0  0  0  0  0
    6.3166    2.1810    0.0000 H   0  0  0  0  0  0  0  0  0  0  0  0
    6.1075    0.1920    0.0000 H   0  0  0  0  0  0  0  0  0  0  0  0
    6.6593   -0.4895    0.0000 H   0  0  0  0  0  0  0  0  0  0  0  0
    7.3408    0.0623    0.0000 H   0  0  0  0  0  0  0  0  0  0  0  0
    4.4056   -4.0100    0.0000 H   0  0  0  0  0  0  0  0  0  0  0  0
    5.2242   -4.3242    0.0000 H   0  0  0  0  0  0  0  0  0  0  0  0
    5.5384   -3.5056    0.0000 H   0  0  0  0  0  0  0  0  0  0  0  0
    3.3996   -2.6846    0.0000 H   0  0  0  0  0  0  0  0  0  0  0  0
    3.0854   -3.5031    0.0000 H   0  0  0  0  0  0  0  0  0  0  0  0
    3.9040   -3.8174    0.0000 H   0  0  0  0  0  0  0  0  0  0  0  0
    5.7310   -3.0039    0.0000 H   0  0  0  0  0  0  0  0  0  0  0  0
    6.0453   -2.1853    0.0000 H   0  0  0  0  0  0  0  0  0  0  0  0
    5.2267   -1.8711    0.0000 H   0  0  0  0  0  0  0  0  0  0  0  0
    4.3913    4.1222    0.0000 H   0  0  0  0  0  0  0  0  0  0  0  0
    3.5253    4.2594    0.0000 H   0  0  0  0  0  0  0  0  0  0  0  0
    3.3882    3.3934    0.0000 H   0  0  0  0  0  0  0  0  0  0  0  0
    5.6510    3.0349    0.0000 H   0  0  0  0  0  0  0  0  0  0  0  0
    5.7881    3.9010    0.0000 H   0  0  0  0  0  0  0  0  0  0  0  0
    4.9221    4.0381    0.0000 H   0  0  0  0  0  0  0  0  0  0  0  0
    3.3041    2.8626    0.0000 H   0  0  0  0  0  0  0  0  0  0  0  0
    3.1669    1.9965    0.0000 H   0  0  0  0  0  0  0  0  0  0  0  0
    4.0329    1.8594    0.0000 H   0  0  0  0  0  0  0  0  0  0  0  0
    8.0026   -3.8086    0.0000 H   0  0  0  0  0  0  0  0  0  0  0  0
    8.8687   -3.9458    0.0000 H   0  0  0  0  0  0  0  0  0  0  0  0
    9.0058   -3.0798    0.0000 H   0  0  0  0  0  0  0  0  0  0  0  0
    9.0899   -2.5490    0.0000 H   0  0  0  0  0  0  0  0  0  0  0  0
    9.2271   -1.6830    0.0000 H   0  0  0  0  0  0  0  0  0  0  0  0
    8.3610   -1.5458    0.0000 H   0  0  0  0  0  0  0  0  0  0  0  0
    6.7430   -2.7214    0.0000 H   0  0  0  0  0  0  0  0  0  0  0  0
    6.6058   -3.5874    0.0000 H   0  0  0  0  0  0  0  0  0  0  0  0
    7.4719   -3.7246    0.0000 H   0  0  0  0  0  0  0  0  0  0  0  0
  1  7  1  0  0  0  0
  1 18  1  0  0  0  0
  1 19  1  0  0  0  0
  1 20  1  0  0  0  0
  2  8  1  0  0  0  0
  2 21  1  0  0  0  0
  2 22  1  0  0  0  0
  2 23  1  0  0  0  0
  3  9  1  0  0  0  0
  3 24  1  0  0  0  0
  3 25  1  0  0  0  0
  3 26  1  0  0  0  0
  4 10  1  0  0  0  0
  4 27  1  0  0  0  0
  4 28  1  0  0  0  0
  4 29  1  0  0  0  0
  5 11  1  0  0  0  0
  5 30  1  0  0  0  0
  5 31  1  0  0  0  0
  5 32  1  0  0  0  0
  6 13  1  0  0  0  0
  6 15  1  0  0  0  0
  7 12  1  0  0  0  0
  8 13  1  0  0  0  0
  9 14  1  0  0  0  0
 10 16  1  0  0  0  0
 11 17  1  0  0  0  0
 12 13  1  0  0  0  0
 12 14  1  0  0  0  0
 12 33  1  0  0  0  0
 13 16  1  0  0  0  0
 14 15  1  0  0  0  0
 14 34  1  0  0  0  0
 15 17  1  0  0  0  0
 15 35  1  0  0  0  0
 16 36  1  0  0  0  0
 16 37  1  0  0  0  0
 17 38  1  0  0  0  0
 17 39  1  0  0  0  0
 18 40  1  0  0  0  0
 18 41  1  0  0  0  0
 18 42  1  0  0  0  0
 19 43  1  0  0  0  0
 19 44  1  0  0  0  0
 19 45  1  0  0  0  0
 20 46  1  0  0  0  0
 20 47  1  0  0  0  0
 20 48  1  0  0  0  0
 21 49  1  0  0  0  0
 21 50  1  0  0  0  0
 21 51  1  0  0  0  0
 22 52  1  0  0  0  0
 22 53  1  0  0  0  0
 22 54  1  0  0  0  0
 23 55  1  0  0  0  0
 23 56  1  0  0  0  0
 23 57  1  0  0  0  0
 24 58  1  0  0  0  0
 24 59  1  0  0  0  0
 24 60  1  0  0  0  0
 25 61  1  0  0  0  0
 25 62  1  0  0  0  0
 25 63  1  0  0  0  0
 26 64  1  0  0  0  0
 26 65  1  0  0  0  0
 26 66  1  0  0  0  0
 27 67  1  0  0  0  0
 27 68  1  0  0  0  0
 27 69  1  0  0  0  0
 28 70  1  0  0  0  0
 28 71  1  0  0  0  0
 28 72  1  0  0  0  0
 29 73  1  0  0  0  0
 29 74  1  0  0  0  0
 29 75  1  0  0  0  0
 30 76  1  0  0  0  0
 30 77  1  0  0  0  0
 30 78  1  0  0  0  0
 31 79  1  0  0  0  0
 31 80  1  0  0  0  0
 31 81  1  0  0  0  0
 32 82  1  0  0  0  0
 32 83  1  0  0  0  0
 32 84  1  0  0  0  0
M  END
> <PUBCHEM_COMPOUND_CID>
523972
> <PUBCHEM_COMPOUND_CANONICALIZED>
1
> <PUBCHEM_CACTVS_COMPLEXITY>
600
> <PUBCHEM_CACTVS_HBOND_ACCEPTOR>
6
> <PUBCHEM_CACTVS_HBOND_DONOR>
0
> <PUBCHEM_CACTVS_ROTATABLE_BOND>
12
> <PUBCHEM_CACTVS_SUBSKEYS>
AAADcfB4OAwAAAAAAAAAAAAAAAAAASAAAAAAAAAAAAAAAAAAAAAAGhAAAEAACBSggAJCCAAABAEAAAAAAAAAAAAAAAAAAAAAAAARAAIAAAACAAAFAAAGAAHAYAQAAAAAAAAAAAAAAAAAAAAAAAAAAAAAAA==
> <PUBCHEM_IUPAC_OPENEYE_NAME>
trimethyl-[[2,3,4-tris(trimethylsilyloxy)-5-(trimethylsilyloxymethyl)tetrahydrofuran-2-yl]methoxy]silane
> <PUBCHEM_IUPAC_CAS_NAME>
trimethyl-[[2,3,4-tris(trimethylsilyloxy)-5-(trimethylsilyloxymethyl)-2-oxolanyl]methoxy]silane
> <PUBCHEM_IUPAC_NAME_MARKUP>
trimethyl-[[2,3,4-tris(trimethylsilyloxy)-5-(trimethylsilyloxymethyl)oxolan-2-yl]methoxy]silane
> <PUBCHEM_IUPAC_NAME>
trimethyl-[[2,3,4-tris(trimethylsilyloxy)-5-(trimethylsilyloxymethyl)oxolan-2-yl]methoxy]silane
> <PUBCHEM_IUPAC_SYSTEMATIC_NAME>
trimethyl-[[2,3,4-tris(trimethylsilyloxy)-5-(trimethylsilyloxymethyl)oxolan-2-yl]methoxy]silane
> <PUBCHEM_IUPAC_TRADITIONAL_NAME>
trimethyl-[[2,3,4-tris(trimethylsilyloxy)-5-(trimethylsilyloxymethyl)tetrahydrofuran-2-yl]methoxy]silane
> <PUBCHEM_IUPAC_INCHI>
InChI=1S/C21H52O6Si5/c1-28(2,3)22-16-18-19(25-30(7,8)9)20(26-31(10,11)12)21(24-18,27-32(13,14)15)17-23-29(4,5)6/h18-20H,16-17H2,1-15H3
> <PUBCHEM_IUPAC_INCHIKEY>
PLNWQGWZBNJIQM-UHFFFAOYSA-N
> <PUBCHEM_EXACT_MASS>
540.26102205
> <PUBCHEM_MOLECULAR_FORMULA>
C21H52O6Si5
> <PUBCHEM_MOLECULAR_WEIGHT>
541.1
> <PUBCHEM_OPENEYE_CAN_SMILES>
C[Si](C)(C)OCC1C(C(C(O1)(CO[Si](C)(C)C)O[Si](C)(C)C)O[Si](C)(C)C)O[Si](C)(C)C
> <PUBCHEM_OPENEYE_ISO_SMILES>
C[Si](C)(C)OCC1C(C(C(O1)(CO[Si](C)(C)C)O[Si](C)(C)C)O[Si](C)(C)C)O[Si](C)(C)C
> <PUBCHEM_CACTVS_TPSA>
55.4
> <PUBCHEM_MONOISOTOPIC_WEIGHT>
540.26102205
> <PUBCHEM_TOTAL_CHARGE>
0
> <PUBCHEM_HEAVY_ATOM_COUNT>
32
> <PUBCHEM_ATOM_DEF_STEREO_COUNT>
0
> <PUBCHEM_ATOM_UDEF_STEREO_COUNT>
4
> <PUBCHEM_BOND_DEF_STEREO_COUNT>
0
> <PUBCHEM_BOND_UDEF_STEREO_COUNT>
0
> <PUBCHEM_ISOTOPIC_ATOM_COUNT>
0
> <PUBCHEM_COMPONENT_COUNT>
1
> <PUBCHEM_CACTVS_TAUTO_COUNT>
-1
> <PUBCHEM_COORDINATE_TYPE>
1
5
255
> <PUBCHEM_BONDANNOTATIONS>
13  16  3
15  17  3
12  7  3
14  9  3
$$$$
