523963
  -OEChem-10302200292D
 36 35  0     1  0  0  0  0  0999 V2000
    2.8660   -0.5670    0.0000 Si  0  0  0  0  0  0  0  0  0  0  0  0
    3.7320   -0.0670    0.0000 O   0  0  0  0  0  0  0  0  0  0  0  0
    5.4641   -0.0670    0.0000 C   0  0  3  0  0  0  0  0  0  0  0  0
    6.3301   -0.5670    0.0000 C   0  0  0  0  0  0  0  0  0  0  0  0
    4.5981   -0.5670    0.0000 C   0  0  0  0  0  0  0  0  0  0  0  0
    5.4641    0.9330    0.0000 C   0  0  0  0  0  0  0  0  0  0  0  0
    7.1962   -0.0670    0.0000 C   0  0  0  0  0  0  0  0  0  0  0  0
    6.3301    1.4330    0.0000 C   0  0  0  0  0  0  0  0  0  0  0  0
    2.0000   -1.0670    0.0000 C   0  0  0  0  0  0  0  0  0  0  0  0
    2.3660    0.2990    0.0000 C   0  0  0  0  0  0  0  0  0  0  0  0
    3.3660   -1.4330    0.0000 C   0  0  0  0  0  0  0  0  0  0  0  0
    8.0622   -0.5670    0.0000 C   0  0  0  0  0  0  0  0  0  0  0  0
    5.4641   -0.6870    0.0000 H   0  0  0  0  0  0  0  0  0  0  0  0
    5.9316   -1.0419    0.0000 H   0  0  0  0  0  0  0  0  0  0  0  0
    6.7287   -1.0419    0.0000 H   0  0  0  0  0  0  0  0  0  0  0  0
    4.1996   -1.0419    0.0000 H   0  0  0  0  0  0  0  0  0  0  0  0
    4.9966   -1.0419    0.0000 H   0  0  0  0  0  0  0  0  0  0  0  0
    5.2520    1.5156    0.0000 H   0  0  0  0  0  0  0  0  0  0  0  0
    4.8535    0.8254    0.0000 H   0  0  0  0  0  0  0  0  0  0  0  0
    7.5947    0.4080    0.0000 H   0  0  0  0  0  0  0  0  0  0  0  0
    6.7976    0.4080    0.0000 H   0  0  0  0  0  0  0  0  0  0  0  0
    6.6401    0.8961    0.0000 H   0  0  0  0  0  0  0  0  0  0  0  0
    6.8671    1.7430    0.0000 H   0  0  0  0  0  0  0  0  0  0  0  0
    6.0201    1.9700    0.0000 H   0  0  0  0  0  0  0  0  0  0  0  0
    1.6900   -0.5301    0.0000 H   0  0  0  0  0  0  0  0  0  0  0  0
    1.4631   -1.3770    0.0000 H   0  0  0  0  0  0  0  0  0  0  0  0
    2.3100   -1.6039    0.0000 H   0  0  0  0  0  0  0  0  0  0  0  0
    2.9030    0.6090    0.0000 H   0  0  0  0  0  0  0  0  0  0  0  0
    2.0560    0.8360    0.0000 H   0  0  0  0  0  0  0  0  0  0  0  0
    1.8291   -0.0110    0.0000 H   0  0  0  0  0  0  0  0  0  0  0  0
    2.8291   -1.7430    0.0000 H   0  0  0  0  0  0  0  0  0  0  0  0
    3.6760   -1.9700    0.0000 H   0  0  0  0  0  0  0  0  0  0  0  0
    3.9030   -1.1230    0.0000 H   0  0  0  0  0  0  0  0  0  0  0  0
    7.7522   -1.1039    0.0000 H   0  0  0  0  0  0  0  0  0  0  0  0
    8.5991   -0.8770    0.0000 H   0  0  0  0  0  0  0  0  0  0  0  0
    8.3722   -0.0301    0.0000 H   0  0  0  0  0  0  0  0  0  0  0  0
  1  2  1  0  0  0  0
  1  9  1  0  0  0  0
  1 10  1  0  0  0  0
  1 11  1  0  0  0  0
  2  5  1  0  0  0  0
  3  4  1  0  0  0  0
  3  5  1  0  0  0  0
  3  6  1  0  0  0  0
  3 13  1  0  0  0  0
  4  7  1  0  0  0  0
  4 14  1  0  0  0  0
  4 15  1  0  0  0  0
  5 16  1  0  0  0  0
  5 17  1  0  0  0  0
  6  8  1  0  0  0  0
  6 18  1  0  0  0  0
  6 19  1  0  0  0  0
  7 12  1  0  0  0  0
  7 20  1  0  0  0  0
  7 21  1  0  0  0  0
  8 22  1  0  0  0  0
  8 23  1  0  0  0  0
  8 24  1  0  0  0  0
  9 25  1  0  0  0  0
  9 26  1  0  0  0  0
  9 27  1  0  0  0  0
 10 28  1  0  0  0  0
 10 29  1  0  0  0  0
 10 30  1  0  0  0  0
 11 31  1  0  0  0  0
 11 32  1  0  0  0  0
 11 33  1  0  0  0  0
 12 34  1  0  0  0  0
 12 35  1  0  0  0  0
 12 36  1  0  0  0  0
M  END
> <PUBCHEM_COMPOUND_CID>
523963
> <PUBCHEM_COMPOUND_CANONICALIZED>
1
> <PUBCHEM_CACTVS_COMPLEXITY>
107
> <PUBCHEM_CACTVS_HBOND_ACCEPTOR>
1
> <PUBCHEM_CACTVS_HBOND_DONOR>
0
> <PUBCHEM_CACTVS_ROTATABLE_BOND>
6
> <PUBCHEM_CACTVS_SUBSKEYS>
AAADceBwIAgAAAAAAAAAAAAAAAAAAAAAAAAAAAAAAAAAAAAAAAAAGhAAAEAADQCggAJCAAAAAAEAAAAAAAAAAAAAAAAAAAAAAAAAAAIAAAAAAAAEAAAAAAGAAAAOAAAAAAAAAAAAAAAAAAAAAAAAAAAAAA==
> <PUBCHEM_IUPAC_OPENEYE_NAME>
2-ethylpentoxy(trimethyl)silane
> <PUBCHEM_IUPAC_CAS_NAME>
2-ethylpentoxy(trimethyl)silane
> <PUBCHEM_IUPAC_NAME_MARKUP>
2-ethylpentoxy(trimethyl)silane
> <PUBCHEM_IUPAC_NAME>
2-ethylpentoxy(trimethyl)silane
> <PUBCHEM_IUPAC_SYSTEMATIC_NAME>
2-ethylpentoxy(trimethyl)silane
> <PUBCHEM_IUPAC_TRADITIONAL_NAME>
2-ethylpentoxy(trimethyl)silane
> <PUBCHEM_IUPAC_INCHI>
InChI=1S/C10H24OSi/c1-6-8-10(7-2)9-11-12(3,4)5/h10H,6-9H2,1-5H3
> <PUBCHEM_IUPAC_INCHIKEY>
BGPQNHPFKXILRT-UHFFFAOYSA-N
> <PUBCHEM_EXACT_MASS>
188.159641919
> <PUBCHEM_MOLECULAR_FORMULA>
C10H24OSi
> <PUBCHEM_MOLECULAR_WEIGHT>
188.38
> <PUBCHEM_OPENEYE_CAN_SMILES>
CCCC(CC)CO[Si](C)(C)C
> <PUBCHEM_OPENEYE_ISO_SMILES>
CCCC(CC)CO[Si](C)(C)C
> <PUBCHEM_CACTVS_TPSA>
9.2
> <PUBCHEM_MONOISOTOPIC_WEIGHT>
188.159641919
> <PUBCHEM_TOTAL_CHARGE>
0
> <PUBCHEM_HEAVY_ATOM_COUNT>
12
> <PUBCHEM_ATOM_DEF_STEREO_COUNT>
0
> <PUBCHEM_ATOM_UDEF_STEREO_COUNT>
1
> <PUBCHEM_BOND_DEF_STEREO_COUNT>
0
> <PUBCHEM_BOND_UDEF_STEREO_COUNT>
0
> <PUBCHEM_ISOTOPIC_ATOM_COUNT>
0
> <PUBCHEM_COMPONENT_COUNT>
1
> <PUBCHEM_CACTVS_TAUTO_COUNT>
-1
> <PUBCHEM_COORDINATE_TYPE>
1
5
255
> <PUBCHEM_BONDANNOTATIONS>
3  6  3
$$$$
