523956
  -OEChem-10302200292D
 18 17  0     1  0  0  0  0  0999 V2000
    5.4641   -0.2500    0.0000 Br  0  0  0  0  0  0  0  0  0  0  0  0
    2.8660    0.2500    0.0000 O   0  0  0  0  0  0  0  0  0  0  0  0
    3.7320   -0.2500    0.0000 C   0  0  3  0  0  0  0  0  0  0  0  0
    4.5981    0.2500    0.0000 C   0  0  3  0  0  0  0  0  0  0  0  0
    3.7320   -1.2500    0.0000 C   0  0  0  0  0  0  0  0  0  0  0  0
    4.5981    1.2500    0.0000 C   0  0  0  0  0  0  0  0  0  0  0  0
    2.0000   -0.2500    0.0000 C   0  0  0  0  0  0  0  0  0  0  0  0
    3.7320    0.3700    0.0000 H   0  0  0  0  0  0  0  0  0  0  0  0
    4.5981   -0.3700    0.0000 H   0  0  0  0  0  0  0  0  0  0  0  0
    3.1120   -1.2500    0.0000 H   0  0  0  0  0  0  0  0  0  0  0  0
    3.7320   -1.8700    0.0000 H   0  0  0  0  0  0  0  0  0  0  0  0
    4.3520   -1.2500    0.0000 H   0  0  0  0  0  0  0  0  0  0  0  0
    5.2181    1.2500    0.0000 H   0  0  0  0  0  0  0  0  0  0  0  0
    4.5981    1.8700    0.0000 H   0  0  0  0  0  0  0  0  0  0  0  0
    3.9781    1.2500    0.0000 H   0  0  0  0  0  0  0  0  0  0  0  0
    1.6900    0.2869    0.0000 H   0  0  0  0  0  0  0  0  0  0  0  0
    1.4631   -0.5600    0.0000 H   0  0  0  0  0  0  0  0  0  0  0  0
    2.3100   -0.7869    0.0000 H   0  0  0  0  0  0  0  0  0  0  0  0
  1  4  1  0  0  0  0
  2  3  1  0  0  0  0
  2  7  1  0  0  0  0
  3  4  1  0  0  0  0
  3  5  1  0  0  0  0
  3  8  1  0  0  0  0
  4  6  1  0  0  0  0
  4  9  1  0  0  0  0
  5 10  1  0  0  0  0
  5 11  1  0  0  0  0
  5 12  1  0  0  0  0
  6 13  1  0  0  0  0
  6 14  1  0  0  0  0
  6 15  1  0  0  0  0
  7 16  1  0  0  0  0
  7 17  1  0  0  0  0
  7 18  1  0  0  0  0
M  END
> <PUBCHEM_COMPOUND_CID>
523956
> <PUBCHEM_COMPOUND_CANONICALIZED>
1
> <PUBCHEM_CACTVS_COMPLEXITY>
47.3
> <PUBCHEM_CACTVS_HBOND_ACCEPTOR>
1
> <PUBCHEM_CACTVS_HBOND_DONOR>
0
> <PUBCHEM_CACTVS_ROTATABLE_BOND>
2
> <PUBCHEM_CACTVS_SUBSKEYS>
AAADccBgIAAAEAAAAAAAAAAAAAAAAAAAAAAAAAAAAAAAAAAAAAAAGgBAAAAByBSggAICAAAABAAAAAAAAAAAAAAAAAAAAAAAACAAAAAAAAAAAAAAAAAAAAAAAAAAAAAAAAAAAAAAAAAAAAAAAAAAAAAAAA==
> <PUBCHEM_IUPAC_OPENEYE_NAME>
2-bromo-3-methoxy-butane
> <PUBCHEM_IUPAC_CAS_NAME>
2-bromo-3-methoxybutane
> <PUBCHEM_IUPAC_NAME_MARKUP>
2-bromo-3-methoxybutane
> <PUBCHEM_IUPAC_NAME>
2-bromo-3-methoxybutane
> <PUBCHEM_IUPAC_SYSTEMATIC_NAME>
2-bromanyl-3-methoxy-butane
> <PUBCHEM_IUPAC_TRADITIONAL_NAME>
2-bromo-3-methoxy-butane
> <PUBCHEM_IUPAC_INCHI>
InChI=1S/C5H11BrO/c1-4(6)5(2)7-3/h4-5H,1-3H3
> <PUBCHEM_IUPAC_INCHIKEY>
MNFFVQPIBJUTHA-UHFFFAOYSA-N
> <PUBCHEM_XLOGP3_AA>
1.7
> <PUBCHEM_EXACT_MASS>
165.99933
> <PUBCHEM_MOLECULAR_FORMULA>
C5H11BrO
> <PUBCHEM_MOLECULAR_WEIGHT>
167.04
> <PUBCHEM_OPENEYE_CAN_SMILES>
CC(C(C)Br)OC
> <PUBCHEM_OPENEYE_ISO_SMILES>
CC(C(C)Br)OC
> <PUBCHEM_CACTVS_TPSA>
9.2
> <PUBCHEM_MONOISOTOPIC_WEIGHT>
165.99933
> <PUBCHEM_TOTAL_CHARGE>
0
> <PUBCHEM_HEAVY_ATOM_COUNT>
7
> <PUBCHEM_ATOM_DEF_STEREO_COUNT>
0
> <PUBCHEM_ATOM_UDEF_STEREO_COUNT>
2
> <PUBCHEM_BOND_DEF_STEREO_COUNT>
0
> <PUBCHEM_BOND_UDEF_STEREO_COUNT>
0
> <PUBCHEM_ISOTOPIC_ATOM_COUNT>
0
> <PUBCHEM_COMPONENT_COUNT>
1
> <PUBCHEM_CACTVS_TAUTO_COUNT>
-1
> <PUBCHEM_COORDINATE_TYPE>
1
5
255
> <PUBCHEM_BONDANNOTATIONS>
4  1  3
3  5  3
$$$$
