524068
  -OEChem-10302200292D
 33 35  0     1  0  0  0  0  0999 V2000
    2.8660   -3.5194    0.0000 Cl  0  0  0  0  0  0  0  0  0  0  0  0
    2.9230    2.5684    0.0000 O   0  0  0  0  0  0  0  0  0  0  0  0
    5.5686    1.9751    0.0000 O   0  0  0  0  0  0  0  0  0  0  0  0
    4.5981   -0.5194    0.0000 O   0  0  0  0  0  0  0  0  0  0  0  0
    2.8660    0.4806    0.0000 N   0  0  0  0  0  0  0  0  0  0  0  0
    3.7320    0.9806    0.0000 C   0  0  3  0  0  0  0  0  0  0  0  0
    3.7320    1.9806    0.0000 C   0  0  0  0  0  0  0  0  0  0  0  0
    4.5981    0.4806    0.0000 C   0  0  0  0  0  0  0  0  0  0  0  0
    2.8660   -0.5194    0.0000 C   0  0  0  0  0  0  0  0  0  0  0  0
    5.4641    0.9806    0.0000 C   0  0  0  0  0  0  0  0  0  0  0  0
    4.5411    2.5684    0.0000 C   0  0  0  0  0  0  0  0  0  0  0  0
    3.7320   -1.0194    0.0000 C   0  0  0  0  0  0  0  0  0  0  0  0
    2.0000   -1.0194    0.0000 C   0  0  0  0  0  0  0  0  0  0  0  0
    4.2320    3.5194    0.0000 C   0  0  0  0  0  0  0  0  0  0  0  0
    6.3776    0.5738    0.0000 C   0  0  0  0  0  0  0  0  0  0  0  0
    3.2320    3.5194    0.0000 C   0  0  0  0  0  0  0  0  0  0  0  0
    3.7320   -2.0194    0.0000 C   0  0  0  0  0  0  0  0  0  0  0  0
    2.0000   -2.0194    0.0000 C   0  0  0  0  0  0  0  0  0  0  0  0
    2.8660   -2.5194    0.0000 C   0  0  0  0  0  0  0  0  0  0  0  0
    7.0468    1.3170    0.0000 C   0  0  0  0  0  0  0  0  0  0  0  0
    6.5468    2.1830    0.0000 C   0  0  0  0  0  0  0  0  0  0  0  0
    3.7320    0.3606    0.0000 H   0  0  0  0  0  0  0  0  0  0  0  0
    2.3291    0.7906    0.0000 H   0  0  0  0  0  0  0  0  0  0  0  0
    5.1307    2.3768    0.0000 H   0  0  0  0  0  0  0  0  0  0  0  0
    4.2690   -0.7094    0.0000 H   0  0  0  0  0  0  0  0  0  0  0  0
    1.4631   -0.7094    0.0000 H   0  0  0  0  0  0  0  0  0  0  0  0
    4.5965    4.0210    0.0000 H   0  0  0  0  0  0  0  0  0  0  0  0
    6.5066   -0.0326    0.0000 H   0  0  0  0  0  0  0  0  0  0  0  0
    2.8676    4.0210    0.0000 H   0  0  0  0  0  0  0  0  0  0  0  0
    4.2690   -2.3294    0.0000 H   0  0  0  0  0  0  0  0  0  0  0  0
    1.4631   -2.3294    0.0000 H   0  0  0  0  0  0  0  0  0  0  0  0
    7.6634    1.2522    0.0000 H   0  0  0  0  0  0  0  0  0  0  0  0
    6.7990    2.7494    0.0000 H   0  0  0  0  0  0  0  0  0  0  0  0
  1 19  1  0  0  0  0
  2  7  1  0  0  0  0
  2 16  1  0  0  0  0
  3 10  1  0  0  0  0
  3 21  1  0  0  0  0
  4  8  2  0  0  0  0
  5  6  1  0  0  0  0
  5  9  1  0  0  0  0
  5 23  1  0  0  0  0
  6  7  1  0  0  0  0
  6  8  1  0  0  0  0
  6 22  1  0  0  0  0
  7 11  2  0  0  0  0
  8 10  1  0  0  0  0
  9 12  2  0  0  0  0
  9 13  1  0  0  0  0
 10 15  2  0  0  0  0
 11 14  1  0  0  0  0
 11 24  1  0  0  0  0
 12 17  1  0  0  0  0
 12 25  1  0  0  0  0
 13 18  2  0  0  0  0
 13 26  1  0  0  0  0
 14 16  2  0  0  0  0
 14 27  1  0  0  0  0
 15 20  1  0  0  0  0
 15 28  1  0  0  0  0
 16 29  1  0  0  0  0
 17 19  2  0  0  0  0
 17 30  1  0  0  0  0
 18 19  1  0  0  0  0
 18 31  1  0  0  0  0
 20 21  2  0  0  0  0
 20 32  1  0  0  0  0
 21 33  1  0  0  0  0
M  END
> <PUBCHEM_COMPOUND_CID>
524068
> <PUBCHEM_COMPOUND_CANONICALIZED>
1
> <PUBCHEM_CACTVS_COMPLEXITY>
357
> <PUBCHEM_CACTVS_HBOND_ACCEPTOR>
4
> <PUBCHEM_CACTVS_HBOND_DONOR>
1
> <PUBCHEM_CACTVS_ROTATABLE_BOND>
5
> <PUBCHEM_CACTVS_SUBSKEYS>
AAADccB6MAAEAAAAAAAAAAAAAAAAASJAAAAwAAAAAAAAAAAB8AAAHgIQAAAACC7hkCYwxILABECIAKxSwAKCCAAlJwAIiIHObsgOJj7Nt7+HOSjm8BHY6Yfb36OwAABAAAAAAAAAAIAAAAAAAAAAAAAAAA==
> <PUBCHEM_IUPAC_OPENEYE_NAME>
2-(4-chloroanilino)-1,2-bis(2-furyl)ethanone
> <PUBCHEM_IUPAC_CAS_NAME>
2-(4-chloroanilino)-1,2-bis(2-furanyl)ethanone
> <PUBCHEM_IUPAC_NAME_MARKUP>
2-(4-chloroanilino)-1,2-bis(furan-2-yl)ethanone
> <PUBCHEM_IUPAC_NAME>
2-(4-chloroanilino)-1,2-bis(furan-2-yl)ethanone
> <PUBCHEM_IUPAC_SYSTEMATIC_NAME>
2-[(4-chlorophenyl)amino]-1,2-bis(furan-2-yl)ethanone
> <PUBCHEM_IUPAC_TRADITIONAL_NAME>
2-(4-chloroanilino)-1,2-bis(2-furyl)ethanone
> <PUBCHEM_IUPAC_INCHI>
InChI=1S/C16H12ClNO3/c17-11-5-7-12(8-6-11)18-15(13-3-1-9-20-13)16(19)14-4-2-10-21-14/h1-10,15,18H
> <PUBCHEM_IUPAC_INCHIKEY>
LGYDLBCDQLSDFR-UHFFFAOYSA-N
> <PUBCHEM_XLOGP3>
3.5
> <PUBCHEM_EXACT_MASS>
301.0505709
> <PUBCHEM_MOLECULAR_FORMULA>
C16H12ClNO3
> <PUBCHEM_MOLECULAR_WEIGHT>
301.72
> <PUBCHEM_OPENEYE_CAN_SMILES>
C1=COC(=C1)C(C(=O)C2=CC=CO2)NC3=CC=C(C=C3)Cl
> <PUBCHEM_OPENEYE_ISO_SMILES>
C1=COC(=C1)C(C(=O)C2=CC=CO2)NC3=CC=C(C=C3)Cl
> <PUBCHEM_CACTVS_TPSA>
55.4
> <PUBCHEM_MONOISOTOPIC_WEIGHT>
301.0505709
> <PUBCHEM_TOTAL_CHARGE>
0
> <PUBCHEM_HEAVY_ATOM_COUNT>
21
> <PUBCHEM_ATOM_DEF_STEREO_COUNT>
0
> <PUBCHEM_ATOM_UDEF_STEREO_COUNT>
1
> <PUBCHEM_BOND_DEF_STEREO_COUNT>
0
> <PUBCHEM_BOND_UDEF_STEREO_COUNT>
0
> <PUBCHEM_ISOTOPIC_ATOM_COUNT>
0
> <PUBCHEM_COMPONENT_COUNT>
1
> <PUBCHEM_CACTVS_TAUTO_COUNT>
-1
> <PUBCHEM_COORDINATE_TYPE>
1
5
255
> <PUBCHEM_BONDANNOTATIONS>
10  15  8
11  14  8
12  17  8
13  18  8
14  16  8
15  20  8
17  19  8
18  19  8
2  16  8
2  7  8
20  21  8
3  10  8
3  21  8
6  8  3
7  11  8
9  12  8
9  13  8
$$$$
