524058
  -OEChem-10302200292D
 48 49  0     1  0  0  0  0  0999 V2000
    6.0000    0.5000    0.0000 O   0  0  0  0  0  0  0  0  0  0  0  0
    7.1133    1.8268    0.0000 O   0  0  0  0  0  0  0  0  0  0  0  0
    2.5000    1.3660    0.0000 N   0  0  0  0  0  0  0  0  0  0  0  0
    5.0000    0.5000    0.0000 C   0  0  3  0  0  0  0  0  0  0  0  0
    4.0000    0.5000    0.0000 C   0  0  0  0  0  0  0  0  0  0  0  0
    5.0000   -0.5000    0.0000 C   0  0  0  0  0  0  0  0  0  0  0  0
    3.5000    1.3660    0.0000 C   0  0  0  0  0  0  0  0  0  0  0  0
    5.0000    1.5000    0.0000 C   0  0  0  0  0  0  0  0  0  0  0  0
    4.1340   -1.0000    0.0000 C   0  0  0  0  0  0  0  0  0  0  0  0
    5.8660   -1.0000    0.0000 C   0  0  0  0  0  0  0  0  0  0  0  0
    4.1340    2.0000    0.0000 C   0  0  0  0  0  0  0  0  0  0  0  0
    5.8660    2.0000    0.0000 C   0  0  0  0  0  0  0  0  0  0  0  0
    4.1340   -2.0000    0.0000 C   0  0  0  0  0  0  0  0  0  0  0  0
    5.8660   -2.0000    0.0000 C   0  0  0  0  0  0  0  0  0  0  0  0
    5.0000   -2.5000    0.0000 C   0  0  0  0  0  0  0  0  0  0  0  0
    2.0000    2.2320    0.0000 C   0  0  0  0  0  0  0  0  0  0  0  0
    2.0000    0.5000    0.0000 C   0  0  0  0  0  0  0  0  0  0  0  0
    6.9397    0.8420    0.0000 C   0  0  0  0  0  0  0  0  0  0  0  0
    4.1340    3.0000    0.0000 C   0  0  0  0  0  0  0  0  0  0  0  0
    5.8660    3.0000    0.0000 C   0  0  0  0  0  0  0  0  0  0  0  0
    5.0000    3.5000    0.0000 C   0  0  0  0  0  0  0  0  0  0  0  0
    5.0000   -3.5000    0.0000 C   0  0  0  0  0  0  0  0  0  0  0  0
    7.7057    0.1992    0.0000 C   0  0  0  0  0  0  0  0  0  0  0  0
    3.4174    0.2879    0.0000 H   0  0  0  0  0  0  0  0  0  0  0  0
    4.1077   -0.1106    0.0000 H   0  0  0  0  0  0  0  0  0  0  0  0
    4.0826    1.5781    0.0000 H   0  0  0  0  0  0  0  0  0  0  0  0
    3.3923    1.9766    0.0000 H   0  0  0  0  0  0  0  0  0  0  0  0
    3.5970   -0.6900    0.0000 H   0  0  0  0  0  0  0  0  0  0  0  0
    6.4030   -0.6900    0.0000 H   0  0  0  0  0  0  0  0  0  0  0  0
    3.5970    1.6900    0.0000 H   0  0  0  0  0  0  0  0  0  0  0  0
    6.4030    1.6900    0.0000 H   0  0  0  0  0  0  0  0  0  0  0  0
    3.5970   -2.3100    0.0000 H   0  0  0  0  0  0  0  0  0  0  0  0
    6.4030   -2.3100    0.0000 H   0  0  0  0  0  0  0  0  0  0  0  0
    2.5369    2.5420    0.0000 H   0  0  0  0  0  0  0  0  0  0  0  0
    1.6900    2.7690    0.0000 H   0  0  0  0  0  0  0  0  0  0  0  0
    1.4631    1.9220    0.0000 H   0  0  0  0  0  0  0  0  0  0  0  0
    1.4631    0.8100    0.0000 H   0  0  0  0  0  0  0  0  0  0  0  0
    1.6900   -0.0369    0.0000 H   0  0  0  0  0  0  0  0  0  0  0  0
    2.5369    0.1900    0.0000 H   0  0  0  0  0  0  0  0  0  0  0  0
    3.5970    3.3100    0.0000 H   0  0  0  0  0  0  0  0  0  0  0  0
    6.4030    3.3100    0.0000 H   0  0  0  0  0  0  0  0  0  0  0  0
    5.0000    4.1200    0.0000 H   0  0  0  0  0  0  0  0  0  0  0  0
    4.3800   -3.5000    0.0000 H   0  0  0  0  0  0  0  0  0  0  0  0
    5.0000   -4.1200    0.0000 H   0  0  0  0  0  0  0  0  0  0  0  0
    5.6200   -3.5000    0.0000 H   0  0  0  0  0  0  0  0  0  0  0  0
    7.3072   -0.2757    0.0000 H   0  0  0  0  0  0  0  0  0  0  0  0
    8.1807   -0.1993    0.0000 H   0  0  0  0  0  0  0  0  0  0  0  0
    8.1043    0.6742    0.0000 H   0  0  0  0  0  0  0  0  0  0  0  0
  1  4  1  0  0  0  0
  1 18  1  0  0  0  0
  2 18  2  0  0  0  0
  3  7  1  0  0  0  0
  3 16  1  0  0  0  0
  3 17  1  0  0  0  0
  4  5  1  0  0  0  0
  4  6  1  0  0  0  0
  4  8  1  0  0  0  0
  5  7  1  0  0  0  0
  5 24  1  0  0  0  0
  5 25  1  0  0  0  0
  6  9  2  0  0  0  0
  6 10  1  0  0  0  0
  7 26  1  0  0  0  0
  7 27  1  0  0  0  0
  8 11  2  0  0  0  0
  8 12  1  0  0  0  0
  9 13  1  0  0  0  0
  9 28  1  0  0  0  0
 10 14  2  0  0  0  0
 10 29  1  0  0  0  0
 11 19  1  0  0  0  0
 11 30  1  0  0  0  0
 12 20  2  0  0  0  0
 12 31  1  0  0  0  0
 13 15  2  0  0  0  0
 13 32  1  0  0  0  0
 14 15  1  0  0  0  0
 14 33  1  0  0  0  0
 15 22  1  0  0  0  0
 16 34  1  0  0  0  0
 16 35  1  0  0  0  0
 16 36  1  0  0  0  0
 17 37  1  0  0  0  0
 17 38  1  0  0  0  0
 17 39  1  0  0  0  0
 18 23  1  0  0  0  0
 19 21  2  0  0  0  0
 19 40  1  0  0  0  0
 20 21  1  0  0  0  0
 20 41  1  0  0  0  0
 21 42  1  0  0  0  0
 22 43  1  0  0  0  0
 22 44  1  0  0  0  0
 22 45  1  0  0  0  0
 23 46  1  0  0  0  0
 23 47  1  0  0  0  0
 23 48  1  0  0  0  0
M  END
> <PUBCHEM_COMPOUND_CID>
524058
> <PUBCHEM_COMPOUND_CANONICALIZED>
1
> <PUBCHEM_CACTVS_COMPLEXITY>
368
> <PUBCHEM_CACTVS_HBOND_ACCEPTOR>
3
> <PUBCHEM_CACTVS_HBOND_DONOR>
0
> <PUBCHEM_CACTVS_ROTATABLE_BOND>
7
> <PUBCHEM_CACTVS_SUBSKEYS>
AAADceB6MAAAAAAAAAAAAAAAAAAAAAAAAAAwYAAAAAAAAAABQAAAHgAAAAAADETBmAQyCIMABACIAiDSCAACAAAgAAAIiAAICIgIJiKAsRiGMAAmwAEIqAeQwPAOwAAAAAAAAACAAAAAAAAAAAAAAAAAAA==
> <PUBCHEM_IUPAC_OPENEYE_NAME>
[3-(dimethylamino)-1-phenyl-1-(p-tolyl)propyl] acetate
> <PUBCHEM_IUPAC_CAS_NAME>
acetic acid [3-(dimethylamino)-1-(4-methylphenyl)-1-phenylpropyl] ester
> <PUBCHEM_IUPAC_NAME_MARKUP>
[3-(dimethylamino)-1-(4-methylphenyl)-1-phenylpropyl] acetate
> <PUBCHEM_IUPAC_NAME>
[3-(dimethylamino)-1-(4-methylphenyl)-1-phenylpropyl] acetate
> <PUBCHEM_IUPAC_SYSTEMATIC_NAME>
[3-(dimethylamino)-1-(4-methylphenyl)-1-phenyl-propyl] ethanoate
> <PUBCHEM_IUPAC_TRADITIONAL_NAME>
acetic acid [3-(dimethylamino)-1-phenyl-1-(p-tolyl)propyl] ester
> <PUBCHEM_IUPAC_INCHI>
InChI=1S/C20H25NO2/c1-16-10-12-19(13-11-16)20(23-17(2)22,14-15-21(3)4)18-8-6-5-7-9-18/h5-13H,14-15H2,1-4H3
> <PUBCHEM_IUPAC_INCHIKEY>
WRGYCGKOOWZHJR-UHFFFAOYSA-N
> <PUBCHEM_XLOGP3_AA>
3.9
> <PUBCHEM_EXACT_MASS>
311.188529040
> <PUBCHEM_MOLECULAR_FORMULA>
C20H25NO2
> <PUBCHEM_MOLECULAR_WEIGHT>
311.4
> <PUBCHEM_OPENEYE_CAN_SMILES>
CC1=CC=C(C=C1)C(CCN(C)C)(C2=CC=CC=C2)OC(=O)C
> <PUBCHEM_OPENEYE_ISO_SMILES>
CC1=CC=C(C=C1)C(CCN(C)C)(C2=CC=CC=C2)OC(=O)C
> <PUBCHEM_CACTVS_TPSA>
29.5
> <PUBCHEM_MONOISOTOPIC_WEIGHT>
311.188529040
> <PUBCHEM_TOTAL_CHARGE>
0
> <PUBCHEM_HEAVY_ATOM_COUNT>
23
> <PUBCHEM_ATOM_DEF_STEREO_COUNT>
0
> <PUBCHEM_ATOM_UDEF_STEREO_COUNT>
1
> <PUBCHEM_BOND_DEF_STEREO_COUNT>
0
> <PUBCHEM_BOND_UDEF_STEREO_COUNT>
0
> <PUBCHEM_ISOTOPIC_ATOM_COUNT>
0
> <PUBCHEM_COMPONENT_COUNT>
1
> <PUBCHEM_CACTVS_TAUTO_COUNT>
-1
> <PUBCHEM_COORDINATE_TYPE>
1
5
255
> <PUBCHEM_BONDANNOTATIONS>
10  14  8
11  19  8
12  20  8
13  15  8
14  15  8
19  21  8
20  21  8
4  5  3
6  10  8
6  9  8
8  11  8
8  12  8
9  13  8
$$$$
