524027
  -OEChem-10302200292D
 60 62  0     1  0  0  0  0  0999 V2000
    3.7282    0.7516    0.0000 O   0  0  0  0  0  0  0  0  0  0  0  0
    2.8602   -0.8001    0.0000 O   0  0  0  0  0  0  0  0  0  0  0  0
    8.1364    3.2967    0.0000 O   0  0  0  0  0  0  0  0  0  0  0  0
    9.9103    2.2725    0.0000 O   0  0  0  0  0  0  0  0  0  0  0  0
    4.6000    2.2482    0.0000 O   0  0  0  0  0  0  0  0  0  0  0  0
    2.0000   -2.3034    0.0000 O   0  0  0  0  0  0  0  0  0  0  0  0
    6.3923   -0.7726    0.0000 N   0  0  3  0  0  0  0  0  0  0  0  0
    3.7320   -2.2967    0.0000 N   0  0  0  0  0  0  0  0  0  0  0  0
    6.3923    0.2274    0.0000 C   0  0  3  0  0  0  0  0  0  0  0  0
    5.4983    0.7621    0.0000 C   0  0  0  0  0  0  0  0  0  0  0  0
    4.5923   -0.7934    0.0000 C   0  0  3  0  0  0  0  0  0  0  0  0
    4.5923    0.2483    0.0000 C   0  0  3  0  0  0  0  0  0  0  0  0
    5.4983   -1.3072    0.0000 C   0  0  0  0  0  0  0  0  0  0  0  0
    7.2583   -1.2726    0.0000 C   0  0  0  0  0  0  0  0  0  0  0  0
    7.2583    0.7274    0.0000 C   0  0  0  0  0  0  0  0  0  0  0  0
    8.1243   -0.7726    0.0000 C   0  0  0  0  0  0  0  0  0  0  0  0
    8.1243    0.2274    0.0000 C   0  0  0  0  0  0  0  0  0  0  0  0
    3.7282   -1.2967    0.0000 C   0  0  0  0  0  0  0  0  0  0  0  0
    7.2422    1.7690    0.0000 C   0  0  0  0  0  0  0  0  0  0  0  0
    9.0343    0.7343    0.0000 C   0  0  0  0  0  0  0  0  0  0  0  0
    8.1403    2.2967    0.0000 C   0  0  0  0  0  0  0  0  0  0  0  0
    9.0424    1.7759    0.0000 C   0  0  0  0  0  0  0  0  0  0  0  0
    3.7320    1.7516    0.0000 C   0  0  0  0  0  0  0  0  0  0  0  0
    4.6000   -2.7934    0.0000 C   0  0  0  0  0  0  0  0  0  0  0  0
    2.8680   -2.8000    0.0000 C   0  0  0  0  0  0  0  0  0  0  0  0
    2.8680    2.2549    0.0000 C   0  0  0  0  0  0  0  0  0  0  0  0
    4.6038   -3.7934    0.0000 C   0  0  0  0  0  0  0  0  0  0  0  0
    2.8718   -3.8000    0.0000 C   0  0  0  0  0  0  0  0  0  0  0  0
    9.0005    3.8000    0.0000 C   0  0  0  0  0  0  0  0  0  0  0  0
   10.7744    1.7692    0.0000 C   0  0  0  0  0  0  0  0  0  0  0  0
    6.3971    0.8474    0.0000 H   0  0  0  0  0  0  0  0  0  0  0  0
    5.9029    1.2319    0.0000 H   0  0  0  0  0  0  0  0  0  0  0  0
    5.1047    1.2411    0.0000 H   0  0  0  0  0  0  0  0  0  0  0  0
    4.0547   -0.4844    0.0000 H   0  0  0  0  0  0  0  0  0  0  0  0
    4.0547   -0.0607    0.0000 H   0  0  0  0  0  0  0  0  0  0  0  0
    5.1047   -1.7862    0.0000 H   0  0  0  0  0  0  0  0  0  0  0  0
    5.9029   -1.7770    0.0000 H   0  0  0  0  0  0  0  0  0  0  0  0
    6.8598   -1.7475    0.0000 H   0  0  0  0  0  0  0  0  0  0  0  0
    7.6568   -1.7475    0.0000 H   0  0  0  0  0  0  0  0  0  0  0  0
    8.3364   -1.3552    0.0000 H   0  0  0  0  0  0  0  0  0  0  0  0
    8.7349   -0.6649    0.0000 H   0  0  0  0  0  0  0  0  0  0  0  0
    6.7018    2.0727    0.0000 H   0  0  0  0  0  0  0  0  0  0  0  0
    9.5676    0.4181    0.0000 H   0  0  0  0  0  0  0  0  0  0  0  0
    5.2110   -2.8987    0.0000 H   0  0  0  0  0  0  0  0  0  0  0  0
    4.8098   -2.2099    0.0000 H   0  0  0  0  0  0  0  0  0  0  0  0
    3.1800    2.7906    0.0000 H   0  0  0  0  0  0  0  0  0  0  0  0
    2.3322    2.5670    0.0000 H   0  0  0  0  0  0  0  0  0  0  0  0
    2.5559    1.7192    0.0000 H   0  0  0  0  0  0  0  0  0  0  0  0
    3.9838   -3.7957    0.0000 H   0  0  0  0  0  0  0  0  0  0  0  0
    4.6062   -4.4134    0.0000 H   0  0  0  0  0  0  0  0  0  0  0  0
    5.2238   -3.7910    0.0000 H   0  0  0  0  0  0  0  0  0  0  0  0
    2.2518   -3.8024    0.0000 H   0  0  0  0  0  0  0  0  0  0  0  0
    2.8742   -4.4200    0.0000 H   0  0  0  0  0  0  0  0  0  0  0  0
    3.4918   -3.7976    0.0000 H   0  0  0  0  0  0  0  0  0  0  0  0
    9.3126    3.2643    0.0000 H   0  0  0  0  0  0  0  0  0  0  0  0
    9.5363    4.1121    0.0000 H   0  0  0  0  0  0  0  0  0  0  0  0
    8.6885    4.3358    0.0000 H   0  0  0  0  0  0  0  0  0  0  0  0
   10.4623    1.2335    0.0000 H   0  0  0  0  0  0  0  0  0  0  0  0
   11.3101    1.4571    0.0000 H   0  0  0  0  0  0  0  0  0  0  0  0
   11.0865    2.3050    0.0000 H   0  0  0  0  0  0  0  0  0  0  0  0
  1 12  1  0  0  0  0
  1 23  1  0  0  0  0
  2 18  2  0  0  0  0
  3 21  1  0  0  0  0
  3 29  1  0  0  0  0
  4 22  1  0  0  0  0
  4 30  1  0  0  0  0
  5 23  2  0  0  0  0
  6 25  2  0  0  0  0
  7  9  1  0  0  0  0
  7 13  1  0  0  0  0
  7 14  1  0  0  0  0
  8 18  1  0  0  0  0
  8 24  1  0  0  0  0
  8 25  1  0  0  0  0
  9 10  1  0  0  0  0
  9 15  1  0  0  0  0
  9 31  1  0  0  0  0
 10 12  1  0  0  0  0
 10 32  1  0  0  0  0
 10 33  1  0  0  0  0
 11 12  1  0  0  0  0
 11 13  1  0  0  0  0
 11 18  1  0  0  0  0
 11 34  1  0  0  0  0
 12 35  1  0  0  0  0
 13 36  1  0  0  0  0
 13 37  1  0  0  0  0
 14 16  1  0  0  0  0
 14 38  1  0  0  0  0
 14 39  1  0  0  0  0
 15 17  1  0  0  0  0
 15 19  2  0  0  0  0
 16 17  1  0  0  0  0
 16 40  1  0  0  0  0
 16 41  1  0  0  0  0
 17 20  2  0  0  0  0
 19 21  1  0  0  0  0
 19 42  1  0  0  0  0
 20 22  1  0  0  0  0
 20 43  1  0  0  0  0
 21 22  2  0  0  0  0
 23 26  1  0  0  0  0
 24 27  1  0  0  0  0
 24 44  1  0  0  0  0
 24 45  1  0  0  0  0
 25 28  1  0  0  0  0
 26 46  1  0  0  0  0
 26 47  1  0  0  0  0
 26 48  1  0  0  0  0
 27 49  1  0  0  0  0
 27 50  1  0  0  0  0
 27 51  1  0  0  0  0
 28 52  1  0  0  0  0
 28 53  1  0  0  0  0
 28 54  1  0  0  0  0
 29 55  1  0  0  0  0
 29 56  1  0  0  0  0
 29 57  1  0  0  0  0
 30 58  1  0  0  0  0
 30 59  1  0  0  0  0
 30 60  1  0  0  0  0
M  END
> <PUBCHEM_COMPOUND_CID>
524027
> <PUBCHEM_COMPOUND_CANONICALIZED>
1
> <PUBCHEM_CACTVS_COMPLEXITY>
656
> <PUBCHEM_CACTVS_HBOND_ACCEPTOR>
7
> <PUBCHEM_CACTVS_HBOND_DONOR>
0
> <PUBCHEM_CACTVS_ROTATABLE_BOND>
6
> <PUBCHEM_CACTVS_SUBSKEYS>
AAADceB7OAAAAAAAAAAAAAAAAAAAAAAAAAA8WIAAAAAAAACxAAAAHgAAAAAADTzhmAYyDoMABACIAiHSGACCCAAgIAAAiAEOjIgNJj6E8RuGMCpm5jGKqAe42fOeoAABAAAQQABAAAIAACCAAAAAAAAAAA==
> <PUBCHEM_IUPAC_OPENEYE_NAME>
[3-[acetyl(ethyl)carbamoyl]-9,10-dimethoxy-2,3,4,6,7,11b-hexahydro-1H-benzo[a]quinolizin-2-yl] acetate
> <PUBCHEM_IUPAC_CAS_NAME>
acetic acid [3-[[acetyl(ethyl)amino]-oxomethyl]-9,10-dimethoxy-2,3,4,6,7,11b-hexahydro-1H-benzo[a]quinolizin-2-yl] ester
> <PUBCHEM_IUPAC_NAME_MARKUP>
[3-[acetyl(ethyl)carbamoyl]-9,10-dimethoxy-2,3,4,6,7,11<I>b</I>-hexahydro-1<I>H</I>-benzo[a]quinolizin-2-yl] acetate
> <PUBCHEM_IUPAC_NAME>
[3-[acetyl(ethyl)carbamoyl]-9,10-dimethoxy-2,3,4,6,7,11b-hexahydro-1H-benzo[a]quinolizin-2-yl] acetate
> <PUBCHEM_IUPAC_SYSTEMATIC_NAME>
[3-[ethanoyl(ethyl)carbamoyl]-9,10-dimethoxy-2,3,4,6,7,11b-hexahydro-1H-benzo[a]quinolizin-2-yl] ethanoate
> <PUBCHEM_IUPAC_TRADITIONAL_NAME>
acetic acid [3-[acetyl(ethyl)carbamoyl]-9,10-dimethoxy-2,3,4,6,7,11b-hexahydro-1H-benzo[a]quinolizin-2-yl] ester
> <PUBCHEM_IUPAC_INCHI>
InChI=1S/C22H30N2O6/c1-6-24(13(2)25)22(27)17-12-23-8-7-15-9-20(28-4)21(29-5)10-16(15)18(23)11-19(17)30-14(3)26/h9-10,17-19H,6-8,11-12H2,1-5H3
> <PUBCHEM_IUPAC_INCHIKEY>
KYXZHWVPMPALKB-UHFFFAOYSA-N
> <PUBCHEM_XLOGP3_AA>
1.5
> <PUBCHEM_EXACT_MASS>
418.21038668
> <PUBCHEM_MOLECULAR_FORMULA>
C22H30N2O6
> <PUBCHEM_MOLECULAR_WEIGHT>
418.5
> <PUBCHEM_OPENEYE_CAN_SMILES>
CCN(C(=O)C)C(=O)C1CN2CCC3=CC(=C(C=C3C2CC1OC(=O)C)OC)OC
> <PUBCHEM_OPENEYE_ISO_SMILES>
CCN(C(=O)C)C(=O)C1CN2CCC3=CC(=C(C=C3C2CC1OC(=O)C)OC)OC
> <PUBCHEM_CACTVS_TPSA>
85.4
> <PUBCHEM_MONOISOTOPIC_WEIGHT>
418.21038668
> <PUBCHEM_TOTAL_CHARGE>
0
> <PUBCHEM_HEAVY_ATOM_COUNT>
30
> <PUBCHEM_ATOM_DEF_STEREO_COUNT>
0
> <PUBCHEM_ATOM_UDEF_STEREO_COUNT>
3
> <PUBCHEM_BOND_DEF_STEREO_COUNT>
0
> <PUBCHEM_BOND_UDEF_STEREO_COUNT>
0
> <PUBCHEM_ISOTOPIC_ATOM_COUNT>
0
> <PUBCHEM_COMPONENT_COUNT>
1
> <PUBCHEM_CACTVS_TAUTO_COUNT>
-1
> <PUBCHEM_COORDINATE_TYPE>
1
5
255
> <PUBCHEM_BONDANNOTATIONS>
12  1  3
11  18  3
15  17  8
15  19  8
17  20  8
19  21  8
20  22  8
21  22  8
9  10  3
$$$$
