524055
  -OEChem-10302200292D
 41 42  0     1  0  0  0  0  0999 V2000
    3.7320    3.7500    0.0000 O   0  0  0  0  0  0  0  0  0  0  0  0
    2.8660    2.2500    0.0000 N   0  0  0  0  0  0  0  0  0  0  0  0
    4.5981    0.2500    0.0000 C   0  0  3  0  0  0  0  0  0  0  0  0
    3.7320    0.7500    0.0000 C   0  0  0  0  0  0  0  0  0  0  0  0
    4.5981   -0.7500    0.0000 C   0  0  0  0  0  0  0  0  0  0  0  0
    5.4641    0.7500    0.0000 C   0  0  0  0  0  0  0  0  0  0  0  0
    3.7320    1.7500    0.0000 C   0  0  0  0  0  0  0  0  0  0  0  0
    5.4641   -1.2500    0.0000 C   0  0  0  0  0  0  0  0  0  0  0  0
    3.7320   -1.2500    0.0000 C   0  0  0  0  0  0  0  0  0  0  0  0
    5.4641    1.7500    0.0000 C   0  0  0  0  0  0  0  0  0  0  0  0
    6.3301    0.2500    0.0000 C   0  0  0  0  0  0  0  0  0  0  0  0
    5.4641   -2.2500    0.0000 C   0  0  0  0  0  0  0  0  0  0  0  0
    3.7320   -2.2500    0.0000 C   0  0  0  0  0  0  0  0  0  0  0  0
    4.5981   -2.7500    0.0000 C   0  0  0  0  0  0  0  0  0  0  0  0
    6.3301    2.2500    0.0000 C   0  0  0  0  0  0  0  0  0  0  0  0
    7.1962    0.7500    0.0000 C   0  0  0  0  0  0  0  0  0  0  0  0
    7.1962    1.7500    0.0000 C   0  0  0  0  0  0  0  0  0  0  0  0
    4.5981   -3.7500    0.0000 C   0  0  0  0  0  0  0  0  0  0  0  0
    2.8660    3.2500    0.0000 C   0  0  0  0  0  0  0  0  0  0  0  0
    2.0000    3.7500    0.0000 C   0  0  0  0  0  0  0  0  0  0  0  0
    4.5981    0.8700    0.0000 H   0  0  0  0  0  0  0  0  0  0  0  0
    3.1215    0.8577    0.0000 H   0  0  0  0  0  0  0  0  0  0  0  0
    3.5200    0.1674    0.0000 H   0  0  0  0  0  0  0  0  0  0  0  0
    4.3426    1.6423    0.0000 H   0  0  0  0  0  0  0  0  0  0  0  0
    3.9441    2.3326    0.0000 H   0  0  0  0  0  0  0  0  0  0  0  0
    6.0010   -0.9400    0.0000 H   0  0  0  0  0  0  0  0  0  0  0  0
    3.1951   -0.9400    0.0000 H   0  0  0  0  0  0  0  0  0  0  0  0
    4.9272    2.0600    0.0000 H   0  0  0  0  0  0  0  0  0  0  0  0
    6.3301   -0.3700    0.0000 H   0  0  0  0  0  0  0  0  0  0  0  0
    2.3291    1.9400    0.0000 H   0  0  0  0  0  0  0  0  0  0  0  0
    6.0010   -2.5600    0.0000 H   0  0  0  0  0  0  0  0  0  0  0  0
    3.1951   -2.5600    0.0000 H   0  0  0  0  0  0  0  0  0  0  0  0
    6.3301    2.8700    0.0000 H   0  0  0  0  0  0  0  0  0  0  0  0
    7.7331    0.4400    0.0000 H   0  0  0  0  0  0  0  0  0  0  0  0
    7.7331    2.0600    0.0000 H   0  0  0  0  0  0  0  0  0  0  0  0
    3.9781   -3.7500    0.0000 H   0  0  0  0  0  0  0  0  0  0  0  0
    4.5981   -4.3700    0.0000 H   0  0  0  0  0  0  0  0  0  0  0  0
    5.2181   -3.7500    0.0000 H   0  0  0  0  0  0  0  0  0  0  0  0
    2.3100    4.2869    0.0000 H   0  0  0  0  0  0  0  0  0  0  0  0
    1.4631    4.0600    0.0000 H   0  0  0  0  0  0  0  0  0  0  0  0
    1.6900    3.2131    0.0000 H   0  0  0  0  0  0  0  0  0  0  0  0
  1 19  2  0  0  0  0
  2  7  1  0  0  0  0
  2 19  1  0  0  0  0
  2 30  1  0  0  0  0
  3  4  1  0  0  0  0
  3  5  1  0  0  0  0
  3  6  1  0  0  0  0
  3 21  1  0  0  0  0
  4  7  1  0  0  0  0
  4 22  1  0  0  0  0
  4 23  1  0  0  0  0
  5  8  2  0  0  0  0
  5  9  1  0  0  0  0
  6 10  2  0  0  0  0
  6 11  1  0  0  0  0
  7 24  1  0  0  0  0
  7 25  1  0  0  0  0
  8 12  1  0  0  0  0
  8 26  1  0  0  0  0
  9 13  2  0  0  0  0
  9 27  1  0  0  0  0
 10 15  1  0  0  0  0
 10 28  1  0  0  0  0
 11 16  2  0  0  0  0
 11 29  1  0  0  0  0
 12 14  2  0  0  0  0
 12 31  1  0  0  0  0
 13 14  1  0  0  0  0
 13 32  1  0  0  0  0
 14 18  1  0  0  0  0
 15 17  2  0  0  0  0
 15 33  1  0  0  0  0
 16 17  1  0  0  0  0
 16 34  1  0  0  0  0
 17 35  1  0  0  0  0
 18 36  1  0  0  0  0
 18 37  1  0  0  0  0
 18 38  1  0  0  0  0
 19 20  1  0  0  0  0
 20 39  1  0  0  0  0
 20 40  1  0  0  0  0
 20 41  1  0  0  0  0
M  END
> <PUBCHEM_COMPOUND_CID>
524055
> <PUBCHEM_COMPOUND_CANONICALIZED>
1
> <PUBCHEM_CACTVS_COMPLEXITY>
288
> <PUBCHEM_CACTVS_HBOND_ACCEPTOR>
1
> <PUBCHEM_CACTVS_HBOND_DONOR>
1
> <PUBCHEM_CACTVS_ROTATABLE_BOND>
5
> <PUBCHEM_CACTVS_SUBSKEYS>
AAADceB6IAAAAAAAAAAAAAAAAAAAAAAAAAAwYAAAAAAAAAABQAAAHgAQAAAADQDBmAQyAILAAACIAiFSEAACAAAgAAAIiIAIAIgIICKAkRCEIAAglgCIiAcQgMAOwAAAAAAAAACAAAAAAAAAAAAAAAAAAA==
> <PUBCHEM_IUPAC_OPENEYE_NAME>
N-[3-phenyl-3-(p-tolyl)propyl]acetamide
> <PUBCHEM_IUPAC_CAS_NAME>
N-[3-(4-methylphenyl)-3-phenylpropyl]acetamide
> <PUBCHEM_IUPAC_NAME_MARKUP>
<I>N</I>-[3-(4-methylphenyl)-3-phenylpropyl]acetamide
> <PUBCHEM_IUPAC_NAME>
N-[3-(4-methylphenyl)-3-phenylpropyl]acetamide
> <PUBCHEM_IUPAC_SYSTEMATIC_NAME>
N-[3-(4-methylphenyl)-3-phenyl-propyl]ethanamide
> <PUBCHEM_IUPAC_TRADITIONAL_NAME>
N-[3-phenyl-3-(p-tolyl)propyl]acetamide
> <PUBCHEM_IUPAC_INCHI>
InChI=1S/C18H21NO/c1-14-8-10-17(11-9-14)18(12-13-19-15(2)20)16-6-4-3-5-7-16/h3-11,18H,12-13H2,1-2H3,(H,19,20)
> <PUBCHEM_IUPAC_INCHIKEY>
OETWYHPMGLYEQG-UHFFFAOYSA-N
> <PUBCHEM_XLOGP3_AA>
3.7
> <PUBCHEM_EXACT_MASS>
267.162314293
> <PUBCHEM_MOLECULAR_FORMULA>
C18H21NO
> <PUBCHEM_MOLECULAR_WEIGHT>
267.4
> <PUBCHEM_OPENEYE_CAN_SMILES>
CC1=CC=C(C=C1)C(CCNC(=O)C)C2=CC=CC=C2
> <PUBCHEM_OPENEYE_ISO_SMILES>
CC1=CC=C(C=C1)C(CCNC(=O)C)C2=CC=CC=C2
> <PUBCHEM_CACTVS_TPSA>
29.1
> <PUBCHEM_MONOISOTOPIC_WEIGHT>
267.162314293
> <PUBCHEM_TOTAL_CHARGE>
0
> <PUBCHEM_HEAVY_ATOM_COUNT>
20
> <PUBCHEM_ATOM_DEF_STEREO_COUNT>
0
> <PUBCHEM_ATOM_UDEF_STEREO_COUNT>
1
> <PUBCHEM_BOND_DEF_STEREO_COUNT>
0
> <PUBCHEM_BOND_UDEF_STEREO_COUNT>
0
> <PUBCHEM_ISOTOPIC_ATOM_COUNT>
0
> <PUBCHEM_COMPONENT_COUNT>
1
> <PUBCHEM_CACTVS_TAUTO_COUNT>
-1
> <PUBCHEM_COORDINATE_TYPE>
1
5
255
> <PUBCHEM_BONDANNOTATIONS>
10  15  8
11  16  8
12  14  8
13  14  8
15  17  8
16  17  8
3  4  3
5  8  8
5  9  8
6  10  8
6  11  8
8  12  8
9  13  8
$$$$
