524071
  -OEChem-10302200292D
 39 41  0     1  0  0  0  0  0999 V2000
    5.5686    1.7445    0.0000 O   0  0  0  0  0  0  0  0  0  0  0  0
    4.5981   -0.7500    0.0000 O   0  0  0  0  0  0  0  0  0  0  0  0
    2.8660    0.2500    0.0000 N   0  0  0  0  0  0  0  0  0  0  0  0
    3.7320    0.7500    0.0000 C   0  0  3  0  0  0  0  0  0  0  0  0
    3.7320    1.7500    0.0000 C   0  0  0  0  0  0  0  0  0  0  0  0
    4.5981    0.2500    0.0000 C   0  0  0  0  0  0  0  0  0  0  0  0
    2.8660   -0.7500    0.0000 C   0  0  0  0  0  0  0  0  0  0  0  0
    2.8660    2.2500    0.0000 C   0  0  0  0  0  0  0  0  0  0  0  0
    4.5981    2.2500    0.0000 C   0  0  0  0  0  0  0  0  0  0  0  0
    5.4641    0.7500    0.0000 C   0  0  0  0  0  0  0  0  0  0  0  0
    3.7320   -1.2500    0.0000 C   0  0  0  0  0  0  0  0  0  0  0  0
    2.0000   -1.2500    0.0000 C   0  0  0  0  0  0  0  0  0  0  0  0
    2.8660   -2.7500    0.0000 C   0  0  0  0  0  0  0  0  0  0  0  0
    3.7320   -2.2500    0.0000 C   0  0  0  0  0  0  0  0  0  0  0  0
    2.0000   -2.2500    0.0000 C   0  0  0  0  0  0  0  0  0  0  0  0
    2.8660    3.2500    0.0000 C   0  0  0  0  0  0  0  0  0  0  0  0
    4.5981    3.2500    0.0000 C   0  0  0  0  0  0  0  0  0  0  0  0
    3.7320    3.7500    0.0000 C   0  0  0  0  0  0  0  0  0  0  0  0
    6.3776    0.3433    0.0000 C   0  0  0  0  0  0  0  0  0  0  0  0
    2.8660   -3.7500    0.0000 C   0  0  0  0  0  0  0  0  0  0  0  0
    7.0468    1.0864    0.0000 C   0  0  0  0  0  0  0  0  0  0  0  0
    6.5468    1.9524    0.0000 C   0  0  0  0  0  0  0  0  0  0  0  0
    3.7320    0.1300    0.0000 H   0  0  0  0  0  0  0  0  0  0  0  0
    2.3291    0.5600    0.0000 H   0  0  0  0  0  0  0  0  0  0  0  0
    2.3291    1.9400    0.0000 H   0  0  0  0  0  0  0  0  0  0  0  0
    5.1350    1.9400    0.0000 H   0  0  0  0  0  0  0  0  0  0  0  0
    4.2690   -0.9400    0.0000 H   0  0  0  0  0  0  0  0  0  0  0  0
    1.4631   -0.9400    0.0000 H   0  0  0  0  0  0  0  0  0  0  0  0
    4.2690   -2.5600    0.0000 H   0  0  0  0  0  0  0  0  0  0  0  0
    1.4631   -2.5600    0.0000 H   0  0  0  0  0  0  0  0  0  0  0  0
    2.3291    3.5600    0.0000 H   0  0  0  0  0  0  0  0  0  0  0  0
    5.1350    3.5600    0.0000 H   0  0  0  0  0  0  0  0  0  0  0  0
    3.7320    4.3700    0.0000 H   0  0  0  0  0  0  0  0  0  0  0  0
    6.5066   -0.2632    0.0000 H   0  0  0  0  0  0  0  0  0  0  0  0
    2.2460   -3.7500    0.0000 H   0  0  0  0  0  0  0  0  0  0  0  0
    2.8660   -4.3700    0.0000 H   0  0  0  0  0  0  0  0  0  0  0  0
    3.4860   -3.7500    0.0000 H   0  0  0  0  0  0  0  0  0  0  0  0
    7.6634    1.0216    0.0000 H   0  0  0  0  0  0  0  0  0  0  0  0
    6.7990    2.5188    0.0000 H   0  0  0  0  0  0  0  0  0  0  0  0
  1 10  1  0  0  0  0
  1 22  1  0  0  0  0
  2  6  2  0  0  0  0
  3  4  1  0  0  0  0
  3  7  1  0  0  0  0
  3 24  1  0  0  0  0
  4  5  1  0  0  0  0
  4  6  1  0  0  0  0
  4 23  1  0  0  0  0
  5  8  2  0  0  0  0
  5  9  1  0  0  0  0
  6 10  1  0  0  0  0
  7 11  2  0  0  0  0
  7 12  1  0  0  0  0
  8 16  1  0  0  0  0
  8 25  1  0  0  0  0
  9 17  2  0  0  0  0
  9 26  1  0  0  0  0
 10 19  2  0  0  0  0
 11 14  1  0  0  0  0
 11 27  1  0  0  0  0
 12 15  2  0  0  0  0
 12 28  1  0  0  0  0
 13 14  2  0  0  0  0
 13 15  1  0  0  0  0
 13 20  1  0  0  0  0
 14 29  1  0  0  0  0
 15 30  1  0  0  0  0
 16 18  2  0  0  0  0
 16 31  1  0  0  0  0
 17 18  1  0  0  0  0
 17 32  1  0  0  0  0
 18 33  1  0  0  0  0
 19 21  1  0  0  0  0
 19 34  1  0  0  0  0
 20 35  1  0  0  0  0
 20 36  1  0  0  0  0
 20 37  1  0  0  0  0
 21 22  2  0  0  0  0
 21 38  1  0  0  0  0
 22 39  1  0  0  0  0
M  END
> <PUBCHEM_COMPOUND_CID>
524071
> <PUBCHEM_COMPOUND_CANONICALIZED>
1
> <PUBCHEM_CACTVS_COMPLEXITY>
356
> <PUBCHEM_CACTVS_HBOND_ACCEPTOR>
3
> <PUBCHEM_CACTVS_HBOND_DONOR>
1
> <PUBCHEM_CACTVS_ROTATABLE_BOND>
5
> <PUBCHEM_CACTVS_SUBSKEYS>
AAADceB6MAAAAAAAAAAAAAAAAAAAASAAAAAwYAAAAAAAAAAB0AAAHgAQAAAADCzhmAYyxILABECIAqxSwAKCCAAlIgAIiIHObMgMJjrEtb+GOSjm0BHI6YeYzuCuCAAAAAAAAAAQAAAAAAAAAAAAAAAAAA==
> <PUBCHEM_IUPAC_OPENEYE_NAME>
1-(2-furyl)-2-(4-methylanilino)-2-phenyl-ethanone
> <PUBCHEM_IUPAC_CAS_NAME>
1-(2-furanyl)-2-(4-methylanilino)-2-phenylethanone
> <PUBCHEM_IUPAC_NAME_MARKUP>
1-(furan-2-yl)-2-(4-methylanilino)-2-phenylethanone
> <PUBCHEM_IUPAC_NAME>
1-(furan-2-yl)-2-(4-methylanilino)-2-phenylethanone
> <PUBCHEM_IUPAC_SYSTEMATIC_NAME>
1-(furan-2-yl)-2-[(4-methylphenyl)amino]-2-phenyl-ethanone
> <PUBCHEM_IUPAC_TRADITIONAL_NAME>
1-(2-furyl)-2-phenyl-2-(p-toluidino)ethanone
> <PUBCHEM_IUPAC_INCHI>
InChI=1S/C19H17NO2/c1-14-9-11-16(12-10-14)20-18(15-6-3-2-4-7-15)19(21)17-8-5-13-22-17/h2-13,18,20H,1H3
> <PUBCHEM_IUPAC_INCHIKEY>
KMJZSGNJCIXJTL-UHFFFAOYSA-N
> <PUBCHEM_XLOGP3_AA>
4.8
> <PUBCHEM_EXACT_MASS>
291.125928785
> <PUBCHEM_MOLECULAR_FORMULA>
C19H17NO2
> <PUBCHEM_MOLECULAR_WEIGHT>
291.3
> <PUBCHEM_OPENEYE_CAN_SMILES>
CC1=CC=C(C=C1)NC(C2=CC=CC=C2)C(=O)C3=CC=CO3
> <PUBCHEM_OPENEYE_ISO_SMILES>
CC1=CC=C(C=C1)NC(C2=CC=CC=C2)C(=O)C3=CC=CO3
> <PUBCHEM_CACTVS_TPSA>
42.2
> <PUBCHEM_MONOISOTOPIC_WEIGHT>
291.125928785
> <PUBCHEM_TOTAL_CHARGE>
0
> <PUBCHEM_HEAVY_ATOM_COUNT>
22
> <PUBCHEM_ATOM_DEF_STEREO_COUNT>
0
> <PUBCHEM_ATOM_UDEF_STEREO_COUNT>
1
> <PUBCHEM_BOND_DEF_STEREO_COUNT>
0
> <PUBCHEM_BOND_UDEF_STEREO_COUNT>
0
> <PUBCHEM_ISOTOPIC_ATOM_COUNT>
0
> <PUBCHEM_COMPONENT_COUNT>
1
> <PUBCHEM_CACTVS_TAUTO_COUNT>
-1
> <PUBCHEM_COORDINATE_TYPE>
1
5
255
> <PUBCHEM_BONDANNOTATIONS>
1  10  8
1  22  8
10  19  8
11  14  8
12  15  8
13  14  8
13  15  8
16  18  8
17  18  8
19  21  8
21  22  8
4  6  3
5  8  8
5  9  8
7  11  8
7  12  8
8  16  8
9  17  8
$$$$
