524023
  -OEChem-10302200292D
 52 55  0     1  0  0  0  0  0999 V2000
    3.9491    2.9322    0.0000 O   0  0  0  0  0  0  0  0  0  0  0  0
    5.7490   -4.6594    0.0000 O   0  0  0  0  0  0  0  0  0  0  0  0
    5.5097    3.6837    0.0000 O   0  0  0  0  0  0  0  0  0  0  0  0
    4.8830   -3.1594    0.0000 N   0  0  0  0  0  0  0  0  0  0  0  0
    3.2295   -0.4457    0.0000 N   0  0  0  0  0  0  0  0  0  0  0  0
    4.8830   -1.1594    0.0000 C   0  0  0  0  0  0  0  0  0  0  0  0
    5.7490   -1.6594    0.0000 C   0  0  0  0  0  0  0  0  0  0  0  0
    4.0170   -1.6594    0.0000 C   0  0  0  0  0  0  0  0  0  0  0  0
    4.8830   -0.1594    0.0000 C   0  0  0  0  0  0  0  0  0  0  0  0
    5.7490   -2.6594    0.0000 C   0  0  0  0  0  0  0  0  0  0  0  0
    4.0169   -2.6594    0.0000 C   0  0  0  0  0  0  0  0  0  0  0  0
    5.7840    0.2745    0.0000 C   0  0  0  0  0  0  0  0  0  0  0  0
    4.3830    2.0312    0.0000 C   0  0  3  0  0  0  0  0  0  0  0  0
    5.3830    2.0312    0.0000 C   0  0  0  0  0  0  0  0  0  0  0  0
    3.9820    0.2745    0.0000 C   0  0  0  0  0  0  0  0  0  0  0  0
    6.0065    1.2494    0.0000 C   0  0  0  0  0  0  0  0  0  0  0  0
    3.7595    1.2494    0.0000 C   0  0  0  0  0  0  0  0  0  0  0  0
    6.5365   -0.4457    0.0000 C   0  0  0  0  0  0  0  0  0  0  0  0
    4.8830   -4.1594    0.0000 C   0  0  0  0  0  0  0  0  0  0  0  0
    6.9970    1.5717    0.0000 C   0  0  0  0  0  0  0  0  0  0  0  0
    2.7690    1.5718    0.0000 C   0  0  0  0  0  0  0  0  0  0  0  0
    7.5342   -0.1464    0.0000 C   0  0  0  0  0  0  0  0  0  0  0  0
    7.7660    0.8691    0.0000 C   0  0  0  0  0  0  0  0  0  0  0  0
    2.0000    0.8692    0.0000 C   0  0  0  0  0  0  0  0  0  0  0  0
    2.2318   -0.1463    0.0000 C   0  0  0  0  0  0  0  0  0  0  0  0
    4.0169   -4.6594    0.0000 C   0  0  0  0  0  0  0  0  0  0  0  0
    4.5125    3.7584    0.0000 C   0  0  0  0  0  0  0  0  0  0  0  0
    4.0786    4.6594    0.0000 C   0  0  0  0  0  0  0  0  0  0  0  0
    6.3596   -1.7671    0.0000 H   0  0  0  0  0  0  0  0  0  0  0  0
    5.9611   -1.0768    0.0000 H   0  0  0  0  0  0  0  0  0  0  0  0
    3.8049   -1.0768    0.0000 H   0  0  0  0  0  0  0  0  0  0  0  0
    3.4064   -1.7671    0.0000 H   0  0  0  0  0  0  0  0  0  0  0  0
    5.9610   -3.2420    0.0000 H   0  0  0  0  0  0  0  0  0  0  0  0
    6.3596   -2.5518    0.0000 H   0  0  0  0  0  0  0  0  0  0  0  0
    3.4064   -2.5517    0.0000 H   0  0  0  0  0  0  0  0  0  0  0  0
    3.8049   -3.2420    0.0000 H   0  0  0  0  0  0  0  0  0  0  0  0
    4.7129    2.5562    0.0000 H   0  0  0  0  0  0  0  0  0  0  0  0
    5.9416    2.3002    0.0000 H   0  0  0  0  0  0  0  0  0  0  0  0
    5.2450    2.6357    0.0000 H   0  0  0  0  0  0  0  0  0  0  0  0
    6.3916   -1.0485    0.0000 H   0  0  0  0  0  0  0  0  0  0  0  0
    7.1280    2.1777    0.0000 H   0  0  0  0  0  0  0  0  0  0  0  0
    2.6380    2.1778    0.0000 H   0  0  0  0  0  0  0  0  0  0  0  0
    7.9871   -0.5698    0.0000 H   0  0  0  0  0  0  0  0  0  0  0  0
    8.3578    1.0542    0.0000 H   0  0  0  0  0  0  0  0  0  0  0  0
    1.4083    1.0542    0.0000 H   0  0  0  0  0  0  0  0  0  0  0  0
    1.7789   -0.5698    0.0000 H   0  0  0  0  0  0  0  0  0  0  0  0
    3.7069   -4.1225    0.0000 H   0  0  0  0  0  0  0  0  0  0  0  0
    3.4800   -4.9694    0.0000 H   0  0  0  0  0  0  0  0  0  0  0  0
    4.3269   -5.1963    0.0000 H   0  0  0  0  0  0  0  0  0  0  0  0
    4.6372    4.9284    0.0000 H   0  0  0  0  0  0  0  0  0  0  0  0
    3.8096    5.2180    0.0000 H   0  0  0  0  0  0  0  0  0  0  0  0
    3.5200    4.3904    0.0000 H   0  0  0  0  0  0  0  0  0  0  0  0
  1 13  1  0  0  0  0
  1 27  1  0  0  0  0
  2 19  2  0  0  0  0
  3 27  2  0  0  0  0
  4 10  1  0  0  0  0
  4 11  1  0  0  0  0
  4 19  1  0  0  0  0
  5 15  1  0  0  0  0
  5 25  2  0  0  0  0
  6  7  1  0  0  0  0
  6  8  1  0  0  0  0
  6  9  2  0  0  0  0
  7 10  1  0  0  0  0
  7 29  1  0  0  0  0
  7 30  1  0  0  0  0
  8 11  1  0  0  0  0
  8 31  1  0  0  0  0
  8 32  1  0  0  0  0
  9 12  1  0  0  0  0
  9 15  1  0  0  0  0
 10 33  1  0  0  0  0
 10 34  1  0  0  0  0
 11 35  1  0  0  0  0
 11 36  1  0  0  0  0
 12 16  1  0  0  0  0
 12 18  2  0  0  0  0
 13 14  1  0  0  0  0
 13 17  1  0  0  0  0
 13 37  1  0  0  0  0
 14 16  1  0  0  0  0
 14 38  1  0  0  0  0
 14 39  1  0  0  0  0
 15 17  2  0  0  0  0
 16 20  2  0  0  0  0
 17 21  1  0  0  0  0
 18 22  1  0  0  0  0
 18 40  1  0  0  0  0
 19 26  1  0  0  0  0
 20 23  1  0  0  0  0
 20 41  1  0  0  0  0
 21 24  2  0  0  0  0
 21 42  1  0  0  0  0
 22 23  2  0  0  0  0
 22 43  1  0  0  0  0
 23 44  1  0  0  0  0
 24 25  1  0  0  0  0
 24 45  1  0  0  0  0
 25 46  1  0  0  0  0
 26 47  1  0  0  0  0
 26 48  1  0  0  0  0
 26 49  1  0  0  0  0
 27 28  1  0  0  0  0
 28 50  1  0  0  0  0
 28 51  1  0  0  0  0
 28 52  1  0  0  0  0
M  END
> <PUBCHEM_COMPOUND_CID>
524023
> <PUBCHEM_COMPOUND_CANONICALIZED>
1
> <PUBCHEM_CACTVS_COMPLEXITY>
634
> <PUBCHEM_CACTVS_HBOND_ACCEPTOR>
4
> <PUBCHEM_CACTVS_HBOND_DONOR>
0
> <PUBCHEM_CACTVS_ROTATABLE_BOND>
2
> <PUBCHEM_CACTVS_SUBSKEYS>
AAADceB7MAAAAAAAAAAAAAAAAAAAAAAAAAA8WIAABgAAAAABwAAAHgAAAAAADBzhngY+iJMIFACoAzX3XACCgCAxAiAI2CA4bJgIJuLAsZmGMAhmxgHI6AeQ0PIOgAAAAAAQAAAAAAAAACAAAAAAAAAAAA==
> <PUBCHEM_IUPAC_OPENEYE_NAME>
[2-(1-acetyl-4-piperidylidene)-4-azatricyclo[9.4.0.03,8]pentadeca-1(15),3(8),4,6,11,13-hexaen-9-yl] acetate
> <PUBCHEM_IUPAC_CAS_NAME>
acetic acid [2-(1-acetyl-4-piperidinylidene)-4-azatricyclo[9.4.0.03,8]pentadeca-1(15),3(8),4,6,11,13-hexaen-9-yl] ester
> <PUBCHEM_IUPAC_NAME_MARKUP>
[2-(1-acetylpiperidin-4-ylidene)-4-azatricyclo[9.4.0.0<SUP>3,8</SUP>]pentadeca-1(15),3(8),4,6,11,13-hexaen-9-yl] acetate
> <PUBCHEM_IUPAC_NAME>
[2-(1-acetylpiperidin-4-ylidene)-4-azatricyclo[9.4.0.03,8]pentadeca-1(15),3(8),4,6,11,13-hexaen-9-yl] acetate
> <PUBCHEM_IUPAC_SYSTEMATIC_NAME>
[2-(1-ethanoylpiperidin-4-ylidene)-4-azatricyclo[9.4.0.03,8]pentadeca-1(15),3(8),4,6,11,13-hexaen-9-yl] ethanoate
> <PUBCHEM_IUPAC_TRADITIONAL_NAME>
acetic acid [2-(1-acetyl-4-piperidylidene)-4-azatricyclo[9.4.0.03,8]pentadeca-1(15),3(8),4,6,11,13-hexaen-9-yl] ester
> <PUBCHEM_IUPAC_INCHI>
InChI=1S/C23H24N2O3/c1-15(26)25-12-9-17(10-13-25)22-19-7-4-3-6-18(19)14-21(28-16(2)27)20-8-5-11-24-23(20)22/h3-8,11,21H,9-10,12-14H2,1-2H3
> <PUBCHEM_IUPAC_INCHIKEY>
GQJLCIGGVSTYRD-UHFFFAOYSA-N
> <PUBCHEM_XLOGP3_AA>
2
> <PUBCHEM_EXACT_MASS>
376.17869263
> <PUBCHEM_MOLECULAR_FORMULA>
C23H24N2O3
> <PUBCHEM_MOLECULAR_WEIGHT>
376.4
> <PUBCHEM_OPENEYE_CAN_SMILES>
CC(=O)N1CCC(=C2C3=CC=CC=C3CC(C4=C2N=CC=C4)OC(=O)C)CC1
> <PUBCHEM_OPENEYE_ISO_SMILES>
CC(=O)N1CCC(=C2C3=CC=CC=C3CC(C4=C2N=CC=C4)OC(=O)C)CC1
> <PUBCHEM_CACTVS_TPSA>
59.5
> <PUBCHEM_MONOISOTOPIC_WEIGHT>
376.17869263
> <PUBCHEM_TOTAL_CHARGE>
0
> <PUBCHEM_HEAVY_ATOM_COUNT>
28
> <PUBCHEM_ATOM_DEF_STEREO_COUNT>
0
> <PUBCHEM_ATOM_UDEF_STEREO_COUNT>
1
> <PUBCHEM_BOND_DEF_STEREO_COUNT>
0
> <PUBCHEM_BOND_UDEF_STEREO_COUNT>
0
> <PUBCHEM_ISOTOPIC_ATOM_COUNT>
0
> <PUBCHEM_COMPONENT_COUNT>
1
> <PUBCHEM_CACTVS_TAUTO_COUNT>
-1
> <PUBCHEM_COORDINATE_TYPE>
1
5
255
> <PUBCHEM_BONDANNOTATIONS>
13  1  3
12  16  8
12  18  8
15  17  8
16  20  8
17  21  8
18  22  8
20  23  8
21  24  8
22  23  8
24  25  8
5  15  8
5  25  8
$$$$
