524018
  -OEChem-10302200292D
 23 23  0     1  0  0  0  0  0999 V2000
    3.7320   -0.6900    0.0000 N   0  0  0  0  0  0  0  0  0  0  0  0
    4.5981    0.8100    0.0000 C   0  0  3  0  0  0  0  0  0  0  0  0
    3.7320    1.3100    0.0000 C   0  0  0  0  0  0  0  0  0  0  0  0
    2.8660   -0.1900    0.0000 C   0  0  3  0  0  0  0  0  0  0  0  0
    2.8660    0.8100    0.0000 C   0  0  0  0  0  0  0  0  0  0  0  0
    4.5981   -0.1900    0.0000 C   0  0  0  0  0  0  0  0  0  0  0  0
    5.4641    1.3100    0.0000 C   0  0  0  0  0  0  0  0  0  0  0  0
    2.0000   -0.6900    0.0000 C   0  0  0  0  0  0  0  0  0  0  0  0
    4.5981    1.6600    0.0000 H   0  0  0  0  0  0  0  0  0  0  0  0
    4.1306    1.7850    0.0000 H   0  0  0  0  0  0  0  0  0  0  0  0
    3.3335    1.7850    0.0000 H   0  0  0  0  0  0  0  0  0  0  0  0
    2.8660   -1.0400    0.0000 H   0  0  0  0  0  0  0  0  0  0  0  0
    2.6540    1.3926    0.0000 H   0  0  0  0  0  0  0  0  0  0  0  0
    2.2554    0.7023    0.0000 H   0  0  0  0  0  0  0  0  0  0  0  0
    4.8101   -0.7726    0.0000 H   0  0  0  0  0  0  0  0  0  0  0  0
    5.2087   -0.0823    0.0000 H   0  0  0  0  0  0  0  0  0  0  0  0
    3.7320   -1.3100    0.0000 H   0  0  0  0  0  0  0  0  0  0  0  0
    5.7741    0.7731    0.0000 H   0  0  0  0  0  0  0  0  0  0  0  0
    6.0010    1.6200    0.0000 H   0  0  0  0  0  0  0  0  0  0  0  0
    5.1541    1.8469    0.0000 H   0  0  0  0  0  0  0  0  0  0  0  0
    1.6900   -0.1531    0.0000 H   0  0  0  0  0  0  0  0  0  0  0  0
    1.4631   -1.0000    0.0000 H   0  0  0  0  0  0  0  0  0  0  0  0
    2.3100   -1.2269    0.0000 H   0  0  0  0  0  0  0  0  0  0  0  0
  1  4  1  0  0  0  0
  1  6  1  0  0  0  0
  1 17  1  0  0  0  0
  2  3  1  0  0  0  0
  2  6  1  0  0  0  0
  2  7  1  0  0  0  0
  2  9  1  0  0  0  0
  3  5  1  0  0  0  0
  3 10  1  0  0  0  0
  3 11  1  0  0  0  0
  4  5  1  0  0  0  0
  4  8  1  0  0  0  0
  4 12  1  0  0  0  0
  5 13  1  0  0  0  0
  5 14  1  0  0  0  0
  6 15  1  0  0  0  0
  6 16  1  0  0  0  0
  7 18  1  0  0  0  0
  7 19  1  0  0  0  0
  7 20  1  0  0  0  0
  8 21  1  0  0  0  0
  8 22  1  0  0  0  0
  8 23  1  0  0  0  0
M  END
> <PUBCHEM_COMPOUND_CID>
524018
> <PUBCHEM_COMPOUND_CANONICALIZED>
1
> <PUBCHEM_CACTVS_COMPLEXITY>
70.8
> <PUBCHEM_CACTVS_HBOND_ACCEPTOR>
1
> <PUBCHEM_CACTVS_HBOND_DONOR>
1
> <PUBCHEM_CACTVS_ROTATABLE_BOND>
0
> <PUBCHEM_CACTVS_SUBSKEYS>
AAADccBiAAAAAAAAAAAAAAAAAAAAAAAAAAAsAAAAAAAAAAAAAAAAHAAQAAAADSjBAAQCAALAAAAAAAAAAAAAAAAAAAAAAIAIAAAAAAIAgAAEAAAAEACAAAEQAAAMAAAAAAAAAAAAAAAAAAAAAAAAAAAAAA==
> <PUBCHEM_IUPAC_OPENEYE_NAME>
2,5-dimethylpiperidine
> <PUBCHEM_IUPAC_CAS_NAME>
2,5-dimethylpiperidine
> <PUBCHEM_IUPAC_NAME_MARKUP>
2,5-dimethylpiperidine
> <PUBCHEM_IUPAC_NAME>
2,5-dimethylpiperidine
> <PUBCHEM_IUPAC_SYSTEMATIC_NAME>
2,5-dimethylpiperidine
> <PUBCHEM_IUPAC_TRADITIONAL_NAME>
2,5-lupetidine
> <PUBCHEM_IUPAC_INCHI>
InChI=1S/C7H15N/c1-6-3-4-7(2)8-5-6/h6-8H,3-5H2,1-2H3
> <PUBCHEM_IUPAC_INCHIKEY>
ICBFNPPCXPMCBP-UHFFFAOYSA-N
> <PUBCHEM_XLOGP3_AA>
1.5
> <PUBCHEM_EXACT_MASS>
113.120449483
> <PUBCHEM_MOLECULAR_FORMULA>
C7H15N
> <PUBCHEM_MOLECULAR_WEIGHT>
113.20
> <PUBCHEM_OPENEYE_CAN_SMILES>
CC1CCC(NC1)C
> <PUBCHEM_OPENEYE_ISO_SMILES>
CC1CCC(NC1)C
> <PUBCHEM_CACTVS_TPSA>
12
> <PUBCHEM_MONOISOTOPIC_WEIGHT>
113.120449483
> <PUBCHEM_TOTAL_CHARGE>
0
> <PUBCHEM_HEAVY_ATOM_COUNT>
8
> <PUBCHEM_ATOM_DEF_STEREO_COUNT>
0
> <PUBCHEM_ATOM_UDEF_STEREO_COUNT>
2
> <PUBCHEM_BOND_DEF_STEREO_COUNT>
0
> <PUBCHEM_BOND_UDEF_STEREO_COUNT>
0
> <PUBCHEM_ISOTOPIC_ATOM_COUNT>
0
> <PUBCHEM_COMPONENT_COUNT>
1
> <PUBCHEM_CACTVS_TAUTO_COUNT>
1
> <PUBCHEM_COORDINATE_TYPE>
1
5
255
> <PUBCHEM_BONDANNOTATIONS>
2  9  3
4  12  3
$$$$
