524134
  -OEChem-10302200292D
 28 29  0     1  0  0  0  0  0999 V2000
    2.0000    0.6830    0.0000 Cl  0  0  0  0  0  0  0  0  0  0  0  0
    2.8660    2.1830    0.0000 Cl  0  0  0  0  0  0  0  0  0  0  0  0
    3.8660    1.1830    0.0000 C   0  0  3  0  0  0  0  0  0  0  0  0
    3.3660    0.3170    0.0000 C   0  0  3  0  0  0  0  0  0  0  0  0
    2.8660    1.1830    0.0000 C   0  0  0  0  0  0  0  0  0  0  0  0
    4.7320    1.6830    0.0000 C   0  0  0  0  0  0  0  0  0  0  0  0
    3.3660   -0.6830    0.0000 C   0  0  0  0  0  0  0  0  0  0  0  0
    5.5981    1.1830    0.0000 C   0  0  0  0  0  0  0  0  0  0  0  0
    4.7320    2.6830    0.0000 C   0  0  0  0  0  0  0  0  0  0  0  0
    2.5000   -1.1830    0.0000 C   0  0  0  0  0  0  0  0  0  0  0  0
    4.2320   -1.1830    0.0000 C   0  0  0  0  0  0  0  0  0  0  0  0
    2.5000   -2.1830    0.0000 C   0  0  0  0  0  0  0  0  0  0  0  0
    4.2320   -2.1830    0.0000 C   0  0  0  0  0  0  0  0  0  0  0  0
    3.3660   -2.6830    0.0000 C   0  0  0  0  0  0  0  0  0  0  0  0
    3.7056    1.7819    0.0000 H   0  0  0  0  0  0  0  0  0  0  0  0
    3.9649    0.1565    0.0000 H   0  0  0  0  0  0  0  0  0  0  0  0
    4.7320    1.0630    0.0000 H   0  0  0  0  0  0  0  0  0  0  0  0
    5.2881    0.6461    0.0000 H   0  0  0  0  0  0  0  0  0  0  0  0
    6.1350    0.8730    0.0000 H   0  0  0  0  0  0  0  0  0  0  0  0
    5.9081    1.7200    0.0000 H   0  0  0  0  0  0  0  0  0  0  0  0
    5.3520    2.6830    0.0000 H   0  0  0  0  0  0  0  0  0  0  0  0
    4.7320    3.3030    0.0000 H   0  0  0  0  0  0  0  0  0  0  0  0
    4.1120    2.6830    0.0000 H   0  0  0  0  0  0  0  0  0  0  0  0
    1.9631   -0.8730    0.0000 H   0  0  0  0  0  0  0  0  0  0  0  0
    4.7690   -0.8730    0.0000 H   0  0  0  0  0  0  0  0  0  0  0  0
    1.9631   -2.4930    0.0000 H   0  0  0  0  0  0  0  0  0  0  0  0
    4.7690   -2.4930    0.0000 H   0  0  0  0  0  0  0  0  0  0  0  0
    3.3660   -3.3030    0.0000 H   0  0  0  0  0  0  0  0  0  0  0  0
  1  5  1  0  0  0  0
  2  5  1  0  0  0  0
  3  4  1  0  0  0  0
  3  5  1  0  0  0  0
  3  6  1  0  0  0  0
  3 15  1  0  0  0  0
  4  5  1  0  0  0  0
  4  7  1  0  0  0  0
  4 16  1  0  0  0  0
  6  8  1  0  0  0  0
  6  9  1  0  0  0  0
  6 17  1  0  0  0  0
  7 10  2  0  0  0  0
  7 11  1  0  0  0  0
  8 18  1  0  0  0  0
  8 19  1  0  0  0  0
  8 20  1  0  0  0  0
  9 21  1  0  0  0  0
  9 22  1  0  0  0  0
  9 23  1  0  0  0  0
 10 12  1  0  0  0  0
 10 24  1  0  0  0  0
 11 13  2  0  0  0  0
 11 25  1  0  0  0  0
 12 14  2  0  0  0  0
 12 26  1  0  0  0  0
 13 14  1  0  0  0  0
 13 27  1  0  0  0  0
 14 28  1  0  0  0  0
M  END
> <PUBCHEM_COMPOUND_CID>
524134
> <PUBCHEM_COMPOUND_CANONICALIZED>
1
> <PUBCHEM_CACTVS_COMPLEXITY>
204
> <PUBCHEM_CACTVS_HBOND_ACCEPTOR>
0
> <PUBCHEM_CACTVS_HBOND_DONOR>
0
> <PUBCHEM_CACTVS_ROTATABLE_BOND>
2
> <PUBCHEM_CACTVS_SUBSKEYS>
AAADccBwAAAGAAAAAAAAAAAAGAAAAAAAAAAwAAAAAAAAAAABAAAAGAIAAAAADQKAGIAyAIAAAACAAiBCAAACAAAgAAAIiAAAAogIICKBERCAIAAggAAIiAcAgMAOgAAAAAAAAAAAAAAAAAAAAAAAAAAAAA==
> <PUBCHEM_IUPAC_OPENEYE_NAME>
(2,2-dichloro-3-isopropyl-cyclopropyl)benzene
> <PUBCHEM_IUPAC_CAS_NAME>
(2,2-dichloro-3-propan-2-ylcyclopropyl)benzene
> <PUBCHEM_IUPAC_NAME_MARKUP>
(2,2-dichloro-3-propan-2-ylcyclopropyl)benzene
> <PUBCHEM_IUPAC_NAME>
(2,2-dichloro-3-propan-2-ylcyclopropyl)benzene
> <PUBCHEM_IUPAC_SYSTEMATIC_NAME>
[2,2-bis(chloranyl)-3-propan-2-yl-cyclopropyl]benzene
> <PUBCHEM_IUPAC_TRADITIONAL_NAME>
(2,2-dichloro-3-isopropyl-cyclopropyl)benzene
> <PUBCHEM_IUPAC_INCHI>
InChI=1S/C12H14Cl2/c1-8(2)10-11(12(10,13)14)9-6-4-3-5-7-9/h3-8,10-11H,1-2H3
> <PUBCHEM_IUPAC_INCHIKEY>
MGGFOQYPEYIEJD-UHFFFAOYSA-N
> <PUBCHEM_XLOGP3_AA>
4.5
> <PUBCHEM_EXACT_MASS>
228.0472558
> <PUBCHEM_MOLECULAR_FORMULA>
C12H14Cl2
> <PUBCHEM_MOLECULAR_WEIGHT>
229.14
> <PUBCHEM_OPENEYE_CAN_SMILES>
CC(C)C1C(C1(Cl)Cl)C2=CC=CC=C2
> <PUBCHEM_OPENEYE_ISO_SMILES>
CC(C)C1C(C1(Cl)Cl)C2=CC=CC=C2
> <PUBCHEM_CACTVS_TPSA>
0
> <PUBCHEM_MONOISOTOPIC_WEIGHT>
228.0472558
> <PUBCHEM_TOTAL_CHARGE>
0
> <PUBCHEM_HEAVY_ATOM_COUNT>
14
> <PUBCHEM_ATOM_DEF_STEREO_COUNT>
0
> <PUBCHEM_ATOM_UDEF_STEREO_COUNT>
2
> <PUBCHEM_BOND_DEF_STEREO_COUNT>
0
> <PUBCHEM_BOND_UDEF_STEREO_COUNT>
0
> <PUBCHEM_ISOTOPIC_ATOM_COUNT>
0
> <PUBCHEM_COMPONENT_COUNT>
1
> <PUBCHEM_CACTVS_TAUTO_COUNT>
-1
> <PUBCHEM_COORDINATE_TYPE>
1
5
255
> <PUBCHEM_BONDANNOTATIONS>
10  12  8
11  13  8
12  14  8
13  14  8
3  6  3
4  7  3
7  10  8
7  11  8
$$$$
