524169
  -OEChem-10302200292D
 36 36  0     1  0  0  0  0  0999 V2000
    3.7320    2.2500    0.0000 C   0  0  3  0  0  0  0  0  0  0  0  0
    3.7320    1.2500    0.0000 C   0  0  0  0  0  0  0  0  0  0  0  0
    4.5981    2.7500    0.0000 C   0  0  0  0  0  0  0  0  0  0  0  0
    3.7320   -1.7500    0.0000 C   0  0  0  0  0  0  0  0  0  0  0  0
    3.7320   -0.7500    0.0000 C   0  0  0  0  0  0  0  0  0  0  0  0
    2.8660   -2.2500    0.0000 C   0  0  0  0  0  0  0  0  0  0  0  0
    2.8660    2.7500    0.0000 C   0  0  0  0  0  0  0  0  0  0  0  0
    4.5981    0.7500    0.0000 C   0  0  0  0  0  0  0  0  0  0  0  0
    2.8660    0.7500    0.0000 C   0  0  0  0  0  0  0  0  0  0  0  0
    4.5981   -0.2500    0.0000 C   0  0  0  0  0  0  0  0  0  0  0  0
    2.8660   -0.2500    0.0000 C   0  0  0  0  0  0  0  0  0  0  0  0
    2.8660   -3.2500    0.0000 C   0  0  0  0  0  0  0  0  0  0  0  0
    4.5981    3.7500    0.0000 C   0  0  0  0  0  0  0  0  0  0  0  0
    2.0000   -3.7500    0.0000 C   0  0  0  0  0  0  0  0  0  0  0  0
    3.7320    2.8700    0.0000 H   0  0  0  0  0  0  0  0  0  0  0  0
    4.8101    2.1674    0.0000 H   0  0  0  0  0  0  0  0  0  0  0  0
    5.2087    2.8577    0.0000 H   0  0  0  0  0  0  0  0  0  0  0  0
    3.9441   -2.3326    0.0000 H   0  0  0  0  0  0  0  0  0  0  0  0
    4.3426   -1.6423    0.0000 H   0  0  0  0  0  0  0  0  0  0  0  0
    2.6540   -1.6674    0.0000 H   0  0  0  0  0  0  0  0  0  0  0  0
    2.2554   -2.3577    0.0000 H   0  0  0  0  0  0  0  0  0  0  0  0
    3.1760    3.2869    0.0000 H   0  0  0  0  0  0  0  0  0  0  0  0
    2.3291    3.0600    0.0000 H   0  0  0  0  0  0  0  0  0  0  0  0
    2.5560    2.2131    0.0000 H   0  0  0  0  0  0  0  0  0  0  0  0
    5.1350    1.0600    0.0000 H   0  0  0  0  0  0  0  0  0  0  0  0
    2.3291    1.0600    0.0000 H   0  0  0  0  0  0  0  0  0  0  0  0
    5.1350   -0.5600    0.0000 H   0  0  0  0  0  0  0  0  0  0  0  0
    2.3291   -0.5600    0.0000 H   0  0  0  0  0  0  0  0  0  0  0  0
    3.0781   -3.8326    0.0000 H   0  0  0  0  0  0  0  0  0  0  0  0
    3.4766   -3.1423    0.0000 H   0  0  0  0  0  0  0  0  0  0  0  0
    5.2181    3.7500    0.0000 H   0  0  0  0  0  0  0  0  0  0  0  0
    4.5981    4.3700    0.0000 H   0  0  0  0  0  0  0  0  0  0  0  0
    3.9781    3.7500    0.0000 H   0  0  0  0  0  0  0  0  0  0  0  0
    1.6900   -3.2131    0.0000 H   0  0  0  0  0  0  0  0  0  0  0  0
    1.4631   -4.0600    0.0000 H   0  0  0  0  0  0  0  0  0  0  0  0
    2.3100   -4.2869    0.0000 H   0  0  0  0  0  0  0  0  0  0  0  0
  1  2  1  0  0  0  0
  1  3  1  0  0  0  0
  1  7  1  0  0  0  0
  1 15  1  0  0  0  0
  2  8  2  0  0  0  0
  2  9  1  0  0  0  0
  3 13  1  0  0  0  0
  3 16  1  0  0  0  0
  3 17  1  0  0  0  0
  4  5  1  0  0  0  0
  4  6  1  0  0  0  0
  4 18  1  0  0  0  0
  4 19  1  0  0  0  0
  5 10  2  0  0  0  0
  5 11  1  0  0  0  0
  6 12  1  0  0  0  0
  6 20  1  0  0  0  0
  6 21  1  0  0  0  0
  7 22  1  0  0  0  0
  7 23  1  0  0  0  0
  7 24  1  0  0  0  0
  8 10  1  0  0  0  0
  8 25  1  0  0  0  0
  9 11  2  0  0  0  0
  9 26  1  0  0  0  0
 10 27  1  0  0  0  0
 11 28  1  0  0  0  0
 12 14  1  0  0  0  0
 12 29  1  0  0  0  0
 12 30  1  0  0  0  0
 13 31  1  0  0  0  0
 13 32  1  0  0  0  0
 13 33  1  0  0  0  0
 14 34  1  0  0  0  0
 14 35  1  0  0  0  0
 14 36  1  0  0  0  0
M  END
> <PUBCHEM_COMPOUND_CID>
524169
> <PUBCHEM_COMPOUND_CANONICALIZED>
1
> <PUBCHEM_CACTVS_COMPLEXITY>
131
> <PUBCHEM_CACTVS_HBOND_ACCEPTOR>
0
> <PUBCHEM_CACTVS_HBOND_DONOR>
0
> <PUBCHEM_CACTVS_ROTATABLE_BOND>
5
> <PUBCHEM_CACTVS_SUBSKEYS>
AAADceBwAAAAAAAAAAAAAAAAAAAAAAAAAAAwAAAAAAAAAAABAAAAGAAAAAAADQCAGAAyAIAAAACAAiBCAAACAAAgAAAIiAAAAIgIICKAERCAIAAggAAIiAcAgMAOwAAAAAAAAACAAAAAAAAAAAAAAAAAAA==
> <PUBCHEM_IUPAC_OPENEYE_NAME>
1-butyl-4-sec-butyl-benzene
> <PUBCHEM_IUPAC_CAS_NAME>
1-butan-2-yl-4-butylbenzene
> <PUBCHEM_IUPAC_NAME_MARKUP>
1-butan-2-yl-4-butylbenzene
> <PUBCHEM_IUPAC_NAME>
1-butan-2-yl-4-butylbenzene
> <PUBCHEM_IUPAC_SYSTEMATIC_NAME>
1-butan-2-yl-4-butyl-benzene
> <PUBCHEM_IUPAC_TRADITIONAL_NAME>
1-butyl-4-sec-butyl-benzene
> <PUBCHEM_IUPAC_INCHI>
InChI=1S/C14H22/c1-4-6-7-13-8-10-14(11-9-13)12(3)5-2/h8-12H,4-7H2,1-3H3
> <PUBCHEM_IUPAC_INCHIKEY>
JGTLOORHOKXNHM-UHFFFAOYSA-N
> <PUBCHEM_XLOGP3_AA>
5.5
> <PUBCHEM_EXACT_MASS>
190.172150702
> <PUBCHEM_MOLECULAR_FORMULA>
C14H22
> <PUBCHEM_MOLECULAR_WEIGHT>
190.32
> <PUBCHEM_OPENEYE_CAN_SMILES>
CCCCC1=CC=C(C=C1)C(C)CC
> <PUBCHEM_OPENEYE_ISO_SMILES>
CCCCC1=CC=C(C=C1)C(C)CC
> <PUBCHEM_CACTVS_TPSA>
0
> <PUBCHEM_MONOISOTOPIC_WEIGHT>
190.172150702
> <PUBCHEM_TOTAL_CHARGE>
0
> <PUBCHEM_HEAVY_ATOM_COUNT>
14
> <PUBCHEM_ATOM_DEF_STEREO_COUNT>
0
> <PUBCHEM_ATOM_UDEF_STEREO_COUNT>
1
> <PUBCHEM_BOND_DEF_STEREO_COUNT>
0
> <PUBCHEM_BOND_UDEF_STEREO_COUNT>
0
> <PUBCHEM_ISOTOPIC_ATOM_COUNT>
0
> <PUBCHEM_COMPONENT_COUNT>
1
> <PUBCHEM_CACTVS_TAUTO_COUNT>
-1
> <PUBCHEM_COORDINATE_TYPE>
1
5
255
> <PUBCHEM_BONDANNOTATIONS>
1  7  3
2  8  8
2  9  8
5  10  8
5  11  8
8  10  8
9  11  8
$$$$
