524147
  -OEChem-10302200292D
 27 27  0     1  0  0  0  0  0999 V2000
    2.0000    0.3660    0.0000 Cl  0  0  0  0  0  0  0  0  0  0  0  0
    3.5000   -0.5000    0.0000 Cl  0  0  0  0  0  0  0  0  0  0  0  0
    3.8660    0.8660    0.0000 C   0  0  3  0  0  0  0  0  0  0  0  0
    3.0000    0.3660    0.0000 C   0  0  0  0  0  0  0  0  0  0  0  0
    3.0000    1.3660    0.0000 C   0  0  0  0  0  0  0  0  0  0  0  0
    4.3660    0.0000    0.0000 C   0  0  0  0  0  0  0  0  0  0  0  0
    4.3660    1.7320    0.0000 C   0  0  0  0  0  0  0  0  0  0  0  0
    5.3660    0.0000    0.0000 C   0  0  0  0  0  0  0  0  0  0  0  0
    5.8660   -0.8660    0.0000 C   0  0  0  0  0  0  0  0  0  0  0  0
    6.8660   -0.8660    0.0000 C   0  0  0  0  0  0  0  0  0  0  0  0
    5.3660   -1.7320    0.0000 C   0  0  0  0  0  0  0  0  0  0  0  0
    3.2120    1.9486    0.0000 H   0  0  0  0  0  0  0  0  0  0  0  0
    2.3894    1.4737    0.0000 H   0  0  0  0  0  0  0  0  0  0  0  0
    3.7834   -0.2121    0.0000 H   0  0  0  0  0  0  0  0  0  0  0  0
    4.4737   -0.6106    0.0000 H   0  0  0  0  0  0  0  0  0  0  0  0
    4.9030    1.4220    0.0000 H   0  0  0  0  0  0  0  0  0  0  0  0
    4.6760    2.2690    0.0000 H   0  0  0  0  0  0  0  0  0  0  0  0
    3.8291    2.0420    0.0000 H   0  0  0  0  0  0  0  0  0  0  0  0
    5.9486    0.2121    0.0000 H   0  0  0  0  0  0  0  0  0  0  0  0
    5.2584    0.6106    0.0000 H   0  0  0  0  0  0  0  0  0  0  0  0
    6.1760   -1.4030    0.0000 H   0  0  0  0  0  0  0  0  0  0  0  0
    6.8660   -1.4860    0.0000 H   0  0  0  0  0  0  0  0  0  0  0  0
    7.4860   -0.8660    0.0000 H   0  0  0  0  0  0  0  0  0  0  0  0
    6.8660   -0.2460    0.0000 H   0  0  0  0  0  0  0  0  0  0  0  0
    4.8291   -1.4220    0.0000 H   0  0  0  0  0  0  0  0  0  0  0  0
    5.0560   -2.2690    0.0000 H   0  0  0  0  0  0  0  0  0  0  0  0
    5.9030   -2.0420    0.0000 H   0  0  0  0  0  0  0  0  0  0  0  0
  1  4  1  0  0  0  0
  2  4  1  0  0  0  0
  3  4  1  0  0  0  0
  3  5  1  0  0  0  0
  3  6  1  0  0  0  0
  3  7  1  0  0  0  0
  4  5  1  0  0  0  0
  5 12  1  0  0  0  0
  5 13  1  0  0  0  0
  6  8  1  0  0  0  0
  6 14  1  0  0  0  0
  6 15  1  0  0  0  0
  7 16  1  0  0  0  0
  7 17  1  0  0  0  0
  7 18  1  0  0  0  0
  8  9  1  0  0  0  0
  8 19  1  0  0  0  0
  8 20  1  0  0  0  0
  9 10  1  0  0  0  0
  9 11  1  0  0  0  0
  9 21  1  0  0  0  0
 10 22  1  0  0  0  0
 10 23  1  0  0  0  0
 10 24  1  0  0  0  0
 11 25  1  0  0  0  0
 11 26  1  0  0  0  0
 11 27  1  0  0  0  0
M  END
> <PUBCHEM_COMPOUND_CID>
524147
> <PUBCHEM_COMPOUND_CANONICALIZED>
1
> <PUBCHEM_CACTVS_COMPLEXITY>
152
> <PUBCHEM_CACTVS_HBOND_ACCEPTOR>
0
> <PUBCHEM_CACTVS_HBOND_DONOR>
0
> <PUBCHEM_CACTVS_ROTATABLE_BOND>
3
> <PUBCHEM_CACTVS_SUBSKEYS>
AAADceBwAAAGAAAAAAAAAAAAGAAAAAAAAAAAAAAAAAAAAAAAAAAAGAIAAAAADwKAAIACAAAAAAAAAAAAAAAAAAAAAAAAAAAAAgAAAAIBAAAAAAAAAAAAAAEAgEAPAAAAAAAAAAAAAAAAAAAAAAAAAAAAAA==
> <PUBCHEM_IUPAC_OPENEYE_NAME>
1,1-dichloro-2-isopentyl-2-methyl-cyclopropane
> <PUBCHEM_IUPAC_CAS_NAME>
1,1-dichloro-2-methyl-2-(3-methylbutyl)cyclopropane
> <PUBCHEM_IUPAC_NAME_MARKUP>
1,1-dichloro-2-methyl-2-(3-methylbutyl)cyclopropane
> <PUBCHEM_IUPAC_NAME>
1,1-dichloro-2-methyl-2-(3-methylbutyl)cyclopropane
> <PUBCHEM_IUPAC_SYSTEMATIC_NAME>
1,1-bis(chloranyl)-2-methyl-2-(3-methylbutyl)cyclopropane
> <PUBCHEM_IUPAC_TRADITIONAL_NAME>
1,1-dichloro-2-isoamyl-2-methyl-cyclopropane
> <PUBCHEM_IUPAC_INCHI>
InChI=1S/C9H16Cl2/c1-7(2)4-5-8(3)6-9(8,10)11/h7H,4-6H2,1-3H3
> <PUBCHEM_IUPAC_INCHIKEY>
SZDCIZLZSRDCSY-UHFFFAOYSA-N
> <PUBCHEM_XLOGP3_AA>
4.4
> <PUBCHEM_EXACT_MASS>
194.0629059
> <PUBCHEM_MOLECULAR_FORMULA>
C9H16Cl2
> <PUBCHEM_MOLECULAR_WEIGHT>
195.13
> <PUBCHEM_OPENEYE_CAN_SMILES>
CC(C)CCC1(CC1(Cl)Cl)C
> <PUBCHEM_OPENEYE_ISO_SMILES>
CC(C)CCC1(CC1(Cl)Cl)C
> <PUBCHEM_CACTVS_TPSA>
0
> <PUBCHEM_MONOISOTOPIC_WEIGHT>
194.0629059
> <PUBCHEM_TOTAL_CHARGE>
0
> <PUBCHEM_HEAVY_ATOM_COUNT>
11
> <PUBCHEM_ATOM_DEF_STEREO_COUNT>
0
> <PUBCHEM_ATOM_UDEF_STEREO_COUNT>
1
> <PUBCHEM_BOND_DEF_STEREO_COUNT>
0
> <PUBCHEM_BOND_UDEF_STEREO_COUNT>
0
> <PUBCHEM_ISOTOPIC_ATOM_COUNT>
0
> <PUBCHEM_COMPONENT_COUNT>
1
> <PUBCHEM_CACTVS_TAUTO_COUNT>
1
> <PUBCHEM_COORDINATE_TYPE>
1
5
255
> <PUBCHEM_BONDANNOTATIONS>
3  7  3
$$$$
