524141
  -OEChem-10302200292D
 31 32  0     1  0  0  0  0  0999 V2000
    2.0000    0.9330    0.0000 Cl  0  0  0  0  0  0  0  0  0  0  0  0
    2.8660    2.4330    0.0000 Cl  0  0  0  0  0  0  0  0  0  0  0  0
    3.8660    1.4330    0.0000 C   0  0  3  0  0  0  0  0  0  0  0  0
    3.3660    0.5670    0.0000 C   0  0  3  0  0  0  0  0  0  0  0  0
    2.8660    1.4330    0.0000 C   0  0  0  0  0  0  0  0  0  0  0  0
    4.7320    1.9330    0.0000 C   0  0  0  0  0  0  0  0  0  0  0  0
    3.3660   -0.4330    0.0000 C   0  0  0  0  0  0  0  0  0  0  0  0
    5.5981    1.4330    0.0000 C   0  0  0  0  0  0  0  0  0  0  0  0
    2.5000   -0.9330    0.0000 C   0  0  0  0  0  0  0  0  0  0  0  0
    4.2320   -0.9330    0.0000 C   0  0  0  0  0  0  0  0  0  0  0  0
    6.4641    1.9330    0.0000 C   0  0  0  0  0  0  0  0  0  0  0  0
    2.5000   -1.9330    0.0000 C   0  0  0  0  0  0  0  0  0  0  0  0
    4.2320   -1.9330    0.0000 C   0  0  0  0  0  0  0  0  0  0  0  0
    7.3301    1.4330    0.0000 C   0  0  0  0  0  0  0  0  0  0  0  0
    3.3660   -2.4330    0.0000 C   0  0  0  0  0  0  0  0  0  0  0  0
    3.7056    2.0319    0.0000 H   0  0  0  0  0  0  0  0  0  0  0  0
    3.9649    0.4065    0.0000 H   0  0  0  0  0  0  0  0  0  0  0  0
    5.1306    2.4080    0.0000 H   0  0  0  0  0  0  0  0  0  0  0  0
    4.3335    2.4080    0.0000 H   0  0  0  0  0  0  0  0  0  0  0  0
    5.1996    0.9581    0.0000 H   0  0  0  0  0  0  0  0  0  0  0  0
    5.9966    0.9581    0.0000 H   0  0  0  0  0  0  0  0  0  0  0  0
    6.8626    2.4080    0.0000 H   0  0  0  0  0  0  0  0  0  0  0  0
    6.0656    2.4080    0.0000 H   0  0  0  0  0  0  0  0  0  0  0  0
    1.9631   -0.6230    0.0000 H   0  0  0  0  0  0  0  0  0  0  0  0
    4.7690   -0.6230    0.0000 H   0  0  0  0  0  0  0  0  0  0  0  0
    1.9631   -2.2430    0.0000 H   0  0  0  0  0  0  0  0  0  0  0  0
    4.7690   -2.2430    0.0000 H   0  0  0  0  0  0  0  0  0  0  0  0
    7.0201    0.8961    0.0000 H   0  0  0  0  0  0  0  0  0  0  0  0
    7.8671    1.1230    0.0000 H   0  0  0  0  0  0  0  0  0  0  0  0
    7.6401    1.9700    0.0000 H   0  0  0  0  0  0  0  0  0  0  0  0
    3.3660   -3.0530    0.0000 H   0  0  0  0  0  0  0  0  0  0  0  0
  1  5  1  0  0  0  0
  2  5  1  0  0  0  0
  3  4  1  0  0  0  0
  3  5  1  0  0  0  0
  3  6  1  0  0  0  0
  3 16  1  0  0  0  0
  4  5  1  0  0  0  0
  4  7  1  0  0  0  0
  4 17  1  0  0  0  0
  6  8  1  0  0  0  0
  6 18  1  0  0  0  0
  6 19  1  0  0  0  0
  7  9  2  0  0  0  0
  7 10  1  0  0  0  0
  8 11  1  0  0  0  0
  8 20  1  0  0  0  0
  8 21  1  0  0  0  0
  9 12  1  0  0  0  0
  9 24  1  0  0  0  0
 10 13  2  0  0  0  0
 10 25  1  0  0  0  0
 11 14  1  0  0  0  0
 11 22  1  0  0  0  0
 11 23  1  0  0  0  0
 12 15  2  0  0  0  0
 12 26  1  0  0  0  0
 13 15  1  0  0  0  0
 13 27  1  0  0  0  0
 14 28  1  0  0  0  0
 14 29  1  0  0  0  0
 14 30  1  0  0  0  0
 15 31  1  0  0  0  0
M  END
> <PUBCHEM_COMPOUND_CID>
524141
> <PUBCHEM_COMPOUND_CANONICALIZED>
1
> <PUBCHEM_CACTVS_COMPLEXITY>
207
> <PUBCHEM_CACTVS_HBOND_ACCEPTOR>
0
> <PUBCHEM_CACTVS_HBOND_DONOR>
0
> <PUBCHEM_CACTVS_ROTATABLE_BOND>
4
> <PUBCHEM_CACTVS_SUBSKEYS>
AAADceBwAAAGAAAAAAAAAAAAGAAAAAAAAAAwAAAAAAAAAAABAAAAGAIAAAAADQKAGIAyAIAAAACAAiBCAAACAAAgAAAIiAAAAogIICKBERCAIAAggAAIiAcAgMAOgAAAAAAAAAAAAAAAAAAAAAAAAAAAAA==
> <PUBCHEM_IUPAC_OPENEYE_NAME>
(3-butyl-2,2-dichloro-cyclopropyl)benzene
> <PUBCHEM_IUPAC_CAS_NAME>
(3-butyl-2,2-dichlorocyclopropyl)benzene
> <PUBCHEM_IUPAC_NAME_MARKUP>
(3-butyl-2,2-dichlorocyclopropyl)benzene
> <PUBCHEM_IUPAC_NAME>
(3-butyl-2,2-dichlorocyclopropyl)benzene
> <PUBCHEM_IUPAC_SYSTEMATIC_NAME>
[3-butyl-2,2-bis(chloranyl)cyclopropyl]benzene
> <PUBCHEM_IUPAC_TRADITIONAL_NAME>
(3-butyl-2,2-dichloro-cyclopropyl)benzene
> <PUBCHEM_IUPAC_INCHI>
InChI=1S/C13H16Cl2/c1-2-3-9-11-12(13(11,14)15)10-7-5-4-6-8-10/h4-8,11-12H,2-3,9H2,1H3
> <PUBCHEM_IUPAC_INCHIKEY>
QGEAMIYGNOJAQK-UHFFFAOYSA-N
> <PUBCHEM_XLOGP3_AA>
5.1
> <PUBCHEM_EXACT_MASS>
242.0629059
> <PUBCHEM_MOLECULAR_FORMULA>
C13H16Cl2
> <PUBCHEM_MOLECULAR_WEIGHT>
243.17
> <PUBCHEM_OPENEYE_CAN_SMILES>
CCCCC1C(C1(Cl)Cl)C2=CC=CC=C2
> <PUBCHEM_OPENEYE_ISO_SMILES>
CCCCC1C(C1(Cl)Cl)C2=CC=CC=C2
> <PUBCHEM_CACTVS_TPSA>
0
> <PUBCHEM_MONOISOTOPIC_WEIGHT>
242.0629059
> <PUBCHEM_TOTAL_CHARGE>
0
> <PUBCHEM_HEAVY_ATOM_COUNT>
15
> <PUBCHEM_ATOM_DEF_STEREO_COUNT>
0
> <PUBCHEM_ATOM_UDEF_STEREO_COUNT>
2
> <PUBCHEM_BOND_DEF_STEREO_COUNT>
0
> <PUBCHEM_BOND_UDEF_STEREO_COUNT>
0
> <PUBCHEM_ISOTOPIC_ATOM_COUNT>
0
> <PUBCHEM_COMPONENT_COUNT>
1
> <PUBCHEM_CACTVS_TAUTO_COUNT>
-1
> <PUBCHEM_COORDINATE_TYPE>
1
5
255
> <PUBCHEM_BONDANNOTATIONS>
10  13  8
12  15  8
13  15  8
3  6  3
4  7  3
7  10  8
7  9  8
9  12  8
$$$$
