524129
  -OEChem-10302200292D
 40 41  0     1  0  0  0  0  0999 V2000
    6.3633    1.7244    0.0000 O   0  0  0  0  0  0  0  0  0  0  0  0
    6.3630    0.7239    0.0000 C   0  0  3  0  0  0  0  0  0  0  0  0
    5.4970    1.2239    0.0000 C   0  0  3  0  0  0  0  0  0  0  0  0
    4.6310    0.7239    0.0000 C   0  0  0  0  0  0  0  0  0  0  0  0
    6.3630   -0.2761    0.0000 C   0  0  0  0  0  0  0  0  0  0  0  0
    7.2291    0.2239    0.0000 C   0  0  0  0  0  0  0  0  0  0  0  0
    3.6310    0.7239    0.0000 C   0  0  0  0  0  0  0  0  0  0  0  0
    6.4879   -1.2244    0.0000 C   0  0  0  0  0  0  0  0  0  0  0  0
    4.7558   -1.2244    0.0000 C   0  0  0  0  0  0  0  0  0  0  0  0
    2.9239    0.0168    0.0000 C   0  0  0  0  0  0  0  0  0  0  0  0
    5.6219   -1.7244    0.0000 C   0  0  0  0  0  0  0  0  0  0  0  0
    3.7899   -1.4832    0.0000 C   0  0  0  0  0  0  0  0  0  0  0  0
    2.9239   -0.9832    0.0000 C   0  0  0  0  0  0  0  0  0  0  0  0
    4.1284   -0.4457    0.0000 C   0  0  0  0  0  0  0  0  0  0  0  0
    5.1604   -0.3099    0.0000 C   0  0  0  0  0  0  0  0  0  0  0  0
    2.0000    0.3995    0.0000 C   0  0  0  0  0  0  0  0  0  0  0  0
    5.1869    1.7608    0.0000 H   0  0  0  0  0  0  0  0  0  0  0  0
    4.4189    0.1413    0.0000 H   0  0  0  0  0  0  0  0  0  0  0  0
    4.4705    1.3228    0.0000 H   0  0  0  0  0  0  0  0  0  0  0  0
    5.8131    0.0102    0.0000 H   0  0  0  0  0  0  0  0  0  0  0  0
    6.9817   -0.2355    0.0000 H   0  0  0  0  0  0  0  0  0  0  0  0
    6.9191   -0.3130    0.0000 H   0  0  0  0  0  0  0  0  0  0  0  0
    7.7660   -0.0861    0.0000 H   0  0  0  0  0  0  0  0  0  0  0  0
    7.5391    0.7609    0.0000 H   0  0  0  0  0  0  0  0  0  0  0  0
    3.7914    1.3228    0.0000 H   0  0  0  0  0  0  0  0  0  0  0  0
    3.0941    1.0339    0.0000 H   0  0  0  0  0  0  0  0  0  0  0  0
    7.0439   -1.4986    0.0000 H   0  0  0  0  0  0  0  0  0  0  0  0
    5.6219   -2.3444    0.0000 H   0  0  0  0  0  0  0  0  0  0  0  0
    3.3515   -1.9216    0.0000 H   0  0  0  0  0  0  0  0  0  0  0  0
    4.0999   -2.0201    0.0000 H   0  0  0  0  0  0  0  0  0  0  0  0
    2.3869   -1.2932    0.0000 H   0  0  0  0  0  0  0  0  0  0  0  0
    4.6111   -0.0567    0.0000 H   0  0  0  0  0  0  0  0  0  0  0  0
    3.7393    0.0370    0.0000 H   0  0  0  0  0  0  0  0  0  0  0  0
    3.6456   -0.8348    0.0000 H   0  0  0  0  0  0  0  0  0  0  0  0
    5.7274   -0.5607    0.0000 H   0  0  0  0  0  0  0  0  0  0  0  0
    5.4112    0.2571    0.0000 H   0  0  0  0  0  0  0  0  0  0  0  0
    4.5934   -0.0590    0.0000 H   0  0  0  0  0  0  0  0  0  0  0  0
    2.2373    0.9723    0.0000 H   0  0  0  0  0  0  0  0  0  0  0  0
    1.4272    0.6368    0.0000 H   0  0  0  0  0  0  0  0  0  0  0  0
    1.7627   -0.1733    0.0000 H   0  0  0  0  0  0  0  0  0  0  0  0
  1  2  1  0  0  0  0
  1  3  1  0  0  0  0
  2  3  1  0  0  0  0
  2  5  1  0  0  0  0
  2  6  1  0  0  0  0
  3  4  1  0  0  0  0
  3 17  1  0  0  0  0
  4  7  1  0  0  0  0
  4 18  1  0  0  0  0
  4 19  1  0  0  0  0
  5  8  1  0  0  0  0
  5 20  1  0  0  0  0
  5 21  1  0  0  0  0
  6 22  1  0  0  0  0
  6 23  1  0  0  0  0
  6 24  1  0  0  0  0
  7 10  1  0  0  0  0
  7 25  1  0  0  0  0
  7 26  1  0  0  0  0
  8 11  2  3  0  0  0
  8 27  1  0  0  0  0
  9 11  1  0  0  0  0
  9 12  1  0  0  0  0
  9 14  1  0  0  0  0
  9 15  1  0  0  0  0
 10 13  2  3  0  0  0
 10 16  1  0  0  0  0
 11 28  1  0  0  0  0
 12 13  1  0  0  0  0
 12 29  1  0  0  0  0
 12 30  1  0  0  0  0
 13 31  1  0  0  0  0
 14 32  1  0  0  0  0
 14 33  1  0  0  0  0
 14 34  1  0  0  0  0
 15 35  1  0  0  0  0
 15 36  1  0  0  0  0
 15 37  1  0  0  0  0
 16 38  1  0  0  0  0
 16 39  1  0  0  0  0
 16 40  1  0  0  0  0
M  END
> <PUBCHEM_COMPOUND_CID>
524129
> <PUBCHEM_COMPOUND_CANONICALIZED>
1
> <PUBCHEM_CACTVS_COMPLEXITY>
324
> <PUBCHEM_CACTVS_HBOND_ACCEPTOR>
1
> <PUBCHEM_CACTVS_HBOND_DONOR>
0
> <PUBCHEM_CACTVS_ROTATABLE_BOND>
0
> <PUBCHEM_CACTVS_SUBSKEYS>
AAADceBwIAAAAAAAAAAAAAAAEgAAAAAAAAAAAAAAAAAAAAAAAAAAGgAAAAAADlSggAICAAAABACAAiBCAAAAAAAgAAAICAAAAAgAAAIAAQACAAAEwAAIAAOAwMAPAAAAAAAAAAAAAAAAAAAAAAAAAAAAAA==
> <PUBCHEM_IUPAC_OPENEYE_NAME>
1,5,5,8-tetramethyl-12-oxabicyclo[9.1.0]dodeca-3,7-diene
> <PUBCHEM_IUPAC_CAS_NAME>
1,5,5,8-tetramethyl-12-oxabicyclo[9.1.0]dodeca-3,7-diene
> <PUBCHEM_IUPAC_NAME_MARKUP>
1,5,5,8-tetramethyl-12-oxabicyclo[9.1.0]dodeca-3,7-diene
> <PUBCHEM_IUPAC_NAME>
1,5,5,8-tetramethyl-12-oxabicyclo[9.1.0]dodeca-3,7-diene
> <PUBCHEM_IUPAC_SYSTEMATIC_NAME>
1,5,5,8-tetramethyl-12-oxabicyclo[9.1.0]dodeca-3,7-diene
> <PUBCHEM_IUPAC_TRADITIONAL_NAME>
1,5,5,8-tetramethyl-12-oxabicyclo[9.1.0]dodeca-3,7-diene
> <PUBCHEM_IUPAC_INCHI>
InChI=1S/C15H24O/c1-12-6-7-13-15(4,16-13)10-5-9-14(2,3)11-8-12/h5,8-9,13H,6-7,10-11H2,1-4H3
> <PUBCHEM_IUPAC_INCHIKEY>
QTGAEXCCAPTGLB-UHFFFAOYSA-N
> <PUBCHEM_XLOGP3_AA>
3.8
> <PUBCHEM_EXACT_MASS>
220.182715385
> <PUBCHEM_MOLECULAR_FORMULA>
C15H24O
> <PUBCHEM_MOLECULAR_WEIGHT>
220.35
> <PUBCHEM_OPENEYE_CAN_SMILES>
CC1=CCC(C=CCC2(C(O2)CC1)C)(C)C
> <PUBCHEM_OPENEYE_ISO_SMILES>
CC1=CCC(C=CCC2(C(O2)CC1)C)(C)C
> <PUBCHEM_CACTVS_TPSA>
12.5
> <PUBCHEM_MONOISOTOPIC_WEIGHT>
220.182715385
> <PUBCHEM_TOTAL_CHARGE>
0
> <PUBCHEM_HEAVY_ATOM_COUNT>
16
> <PUBCHEM_ATOM_DEF_STEREO_COUNT>
0
> <PUBCHEM_ATOM_UDEF_STEREO_COUNT>
2
> <PUBCHEM_BOND_DEF_STEREO_COUNT>
0
> <PUBCHEM_BOND_UDEF_STEREO_COUNT>
2
> <PUBCHEM_ISOTOPIC_ATOM_COUNT>
0
> <PUBCHEM_COMPONENT_COUNT>
1
> <PUBCHEM_CACTVS_TAUTO_COUNT>
-1
> <PUBCHEM_COORDINATE_TYPE>
1
5
255
> <PUBCHEM_BONDANNOTATIONS>
10  13  1
2  6  3
3  4  3
8  11  1
$$$$
