524145
  -OEChem-10302200292D
 30 30  0     1  0  0  0  0  0999 V2000
    8.3660    0.6830    0.0000 Cl  0  0  0  0  0  0  0  0  0  0  0  0
    8.3660    2.4151    0.0000 Cl  0  0  0  0  0  0  0  0  0  0  0  0
    7.0000    1.0490    0.0000 C   0  0  3  0  0  0  0  0  0  0  0  0
    7.8660    1.5490    0.0000 C   0  0  0  0  0  0  0  0  0  0  0  0
    7.0000    2.0490    0.0000 C   0  0  0  0  0  0  0  0  0  0  0  0
    6.5000    0.1830    0.0000 C   0  0  0  0  0  0  0  0  0  0  0  0
    5.5000    0.1830    0.0000 C   0  0  0  0  0  0  0  0  0  0  0  0
    5.0000   -0.6830    0.0000 C   0  0  0  0  0  0  0  0  0  0  0  0
    4.0000   -0.6830    0.0000 C   0  0  0  0  0  0  0  0  0  0  0  0
    3.5000   -1.5490    0.0000 C   0  0  0  0  0  0  0  0  0  0  0  0
    2.5000   -1.5490    0.0000 C   0  0  0  0  0  0  0  0  0  0  0  0
    2.0000   -2.4151    0.0000 C   0  0  0  0  0  0  0  0  0  0  0  0
    7.4384    0.6106    0.0000 H   0  0  0  0  0  0  0  0  0  0  0  0
    7.2120    2.6316    0.0000 H   0  0  0  0  0  0  0  0  0  0  0  0
    6.3894    2.1567    0.0000 H   0  0  0  0  0  0  0  0  0  0  0  0
    6.3923   -0.4276    0.0000 H   0  0  0  0  0  0  0  0  0  0  0  0
    7.0826   -0.0290    0.0000 H   0  0  0  0  0  0  0  0  0  0  0  0
    5.6077    0.7936    0.0000 H   0  0  0  0  0  0  0  0  0  0  0  0
    4.9174    0.3951    0.0000 H   0  0  0  0  0  0  0  0  0  0  0  0
    4.8923   -1.2936    0.0000 H   0  0  0  0  0  0  0  0  0  0  0  0
    5.5826   -0.8951    0.0000 H   0  0  0  0  0  0  0  0  0  0  0  0
    4.1077   -0.0724    0.0000 H   0  0  0  0  0  0  0  0  0  0  0  0
    3.4174   -0.4710    0.0000 H   0  0  0  0  0  0  0  0  0  0  0  0
    3.3923   -2.1596    0.0000 H   0  0  0  0  0  0  0  0  0  0  0  0
    4.0826   -1.7611    0.0000 H   0  0  0  0  0  0  0  0  0  0  0  0
    2.6077   -0.9385    0.0000 H   0  0  0  0  0  0  0  0  0  0  0  0
    1.9174   -1.3370    0.0000 H   0  0  0  0  0  0  0  0  0  0  0  0
    1.4631   -2.1051    0.0000 H   0  0  0  0  0  0  0  0  0  0  0  0
    1.6900   -2.9520    0.0000 H   0  0  0  0  0  0  0  0  0  0  0  0
    2.5369   -2.7251    0.0000 H   0  0  0  0  0  0  0  0  0  0  0  0
  1  4  1  0  0  0  0
  2  4  1  0  0  0  0
  3  4  1  0  0  0  0
  3  5  1  0  0  0  0
  3  6  1  0  0  0  0
  3 13  1  0  0  0  0
  4  5  1  0  0  0  0
  5 14  1  0  0  0  0
  5 15  1  0  0  0  0
  6  7  1  0  0  0  0
  6 16  1  0  0  0  0
  6 17  1  0  0  0  0
  7  8  1  0  0  0  0
  7 18  1  0  0  0  0
  7 19  1  0  0  0  0
  8  9  1  0  0  0  0
  8 20  1  0  0  0  0
  8 21  1  0  0  0  0
  9 10  1  0  0  0  0
  9 22  1  0  0  0  0
  9 23  1  0  0  0  0
 10 11  1  0  0  0  0
 10 24  1  0  0  0  0
 10 25  1  0  0  0  0
 11 12  1  0  0  0  0
 11 26  1  0  0  0  0
 11 27  1  0  0  0  0
 12 28  1  0  0  0  0
 12 29  1  0  0  0  0
 12 30  1  0  0  0  0
M  END
> <PUBCHEM_COMPOUND_CID>
524145
> <PUBCHEM_COMPOUND_CANONICALIZED>
1
> <PUBCHEM_CACTVS_COMPLEXITY>
132
> <PUBCHEM_CACTVS_HBOND_ACCEPTOR>
0
> <PUBCHEM_CACTVS_HBOND_DONOR>
0
> <PUBCHEM_CACTVS_ROTATABLE_BOND>
6
> <PUBCHEM_CACTVS_SUBSKEYS>
AAADceBwAAAGAAAAAAAAAAAAGAAAAAAAAAAAAAAAAAAAAAAAAAAAGAIAAAAADQKAAIACAAAAAAAAAAAAAAAAAAAAAAAAAAAAAgAAAAIBAAAAAAAAAAAAAAEAgMAMAAAAAAAAAAAAAAAAAAAAAAAAAAAAAA==
> <PUBCHEM_IUPAC_OPENEYE_NAME>
1,1-dichloro-2-heptyl-cyclopropane
> <PUBCHEM_IUPAC_CAS_NAME>
1,1-dichloro-2-heptylcyclopropane
> <PUBCHEM_IUPAC_NAME_MARKUP>
1,1-dichloro-2-heptylcyclopropane
> <PUBCHEM_IUPAC_NAME>
1,1-dichloro-2-heptylcyclopropane
> <PUBCHEM_IUPAC_SYSTEMATIC_NAME>
1,1-bis(chloranyl)-2-heptyl-cyclopropane
> <PUBCHEM_IUPAC_TRADITIONAL_NAME>
1,1-dichloro-2-heptyl-cyclopropane
> <PUBCHEM_IUPAC_INCHI>
InChI=1S/C10H18Cl2/c1-2-3-4-5-6-7-9-8-10(9,11)12/h9H,2-8H2,1H3
> <PUBCHEM_IUPAC_INCHIKEY>
WKGGLQPFYJHATD-UHFFFAOYSA-N
> <PUBCHEM_XLOGP3_AA>
5.4
> <PUBCHEM_EXACT_MASS>
208.0785560
> <PUBCHEM_MOLECULAR_FORMULA>
C10H18Cl2
> <PUBCHEM_MOLECULAR_WEIGHT>
209.15
> <PUBCHEM_OPENEYE_CAN_SMILES>
CCCCCCCC1CC1(Cl)Cl
> <PUBCHEM_OPENEYE_ISO_SMILES>
CCCCCCCC1CC1(Cl)Cl
> <PUBCHEM_CACTVS_TPSA>
0
> <PUBCHEM_MONOISOTOPIC_WEIGHT>
208.0785560
> <PUBCHEM_TOTAL_CHARGE>
0
> <PUBCHEM_HEAVY_ATOM_COUNT>
12
> <PUBCHEM_ATOM_DEF_STEREO_COUNT>
0
> <PUBCHEM_ATOM_UDEF_STEREO_COUNT>
1
> <PUBCHEM_BOND_DEF_STEREO_COUNT>
0
> <PUBCHEM_BOND_UDEF_STEREO_COUNT>
0
> <PUBCHEM_ISOTOPIC_ATOM_COUNT>
0
> <PUBCHEM_COMPONENT_COUNT>
1
> <PUBCHEM_CACTVS_TAUTO_COUNT>
-1
> <PUBCHEM_COORDINATE_TYPE>
1
5
255
> <PUBCHEM_BONDANNOTATIONS>
3  6  3
$$$$
