524171
  -OEChem-10302200292D
 16 16  0     1  0  0  0  0  0999 V2000
    4.5032   -0.4197    0.0000 S   0  0  0  0  0  0  0  0  0  0  0  0
    5.3122    0.1681    0.0000 S   0  0  0  0  0  0  0  0  0  0  0  0
    2.5352   -1.1191    0.0000 O   0  0  0  0  0  0  0  0  0  0  0  0
    3.6942    0.1681    0.0000 C   0  0  3  0  0  0  0  0  0  0  0  0
    4.0032    1.1191    0.0000 C   0  0  0  0  0  0  0  0  0  0  0  0
    5.0032    1.1191    0.0000 C   0  0  0  0  0  0  0  0  0  0  0  0
    2.7431   -0.1410    0.0000 C   0  0  0  0  0  0  0  0  0  0  0  0
    2.0000    0.5282    0.0000 C   0  0  0  0  0  0  0  0  0  0  0  0
    3.5972   -0.4443    0.0000 H   0  0  0  0  0  0  0  0  0  0  0  0
    4.0680    1.7357    0.0000 H   0  0  0  0  0  0  0  0  0  0  0  0
    3.3968    1.2480    0.0000 H   0  0  0  0  0  0  0  0  0  0  0  0
    5.6097    1.2480    0.0000 H   0  0  0  0  0  0  0  0  0  0  0  0
    4.9384    1.7357    0.0000 H   0  0  0  0  0  0  0  0  0  0  0  0
    2.4149    0.9889    0.0000 H   0  0  0  0  0  0  0  0  0  0  0  0
    1.5392    0.9430    0.0000 H   0  0  0  0  0  0  0  0  0  0  0  0
    1.5851    0.0674    0.0000 H   0  0  0  0  0  0  0  0  0  0  0  0
  1  2  1  0  0  0  0
  1  4  1  0  0  0  0
  2  6  1  0  0  0  0
  3  7  2  0  0  0  0
  4  5  1  0  0  0  0
  4  7  1  0  0  0  0
  4  9  1  0  0  0  0
  5  6  1  0  0  0  0
  5 10  1  0  0  0  0
  5 11  1  0  0  0  0
  6 12  1  0  0  0  0
  6 13  1  0  0  0  0
  7  8  1  0  0  0  0
  8 14  1  0  0  0  0
  8 15  1  0  0  0  0
  8 16  1  0  0  0  0
M  END
> <PUBCHEM_COMPOUND_CID>
524171
> <PUBCHEM_COMPOUND_CANONICALIZED>
1
> <PUBCHEM_CACTVS_COMPLEXITY>
103
> <PUBCHEM_CACTVS_HBOND_ACCEPTOR>
3
> <PUBCHEM_CACTVS_HBOND_DONOR>
0
> <PUBCHEM_CACTVS_ROTATABLE_BOND>
1
> <PUBCHEM_CACTVS_SUBSKEYS>
AAADccBgIABgAAAAAAAAAAAAAAAAASAAAAAAAAAAAAAAAAAAAAAAGgQAAAAACASEwACCAAAAAAAIAIAQAAAAAAAAAAAAAAEAAAAAABIAAAAAAAAAAAAAAAAAAAAAAAAAAAAAAAAAAAAAAAAAAAAAAAAAAA==
> <PUBCHEM_IUPAC_OPENEYE_NAME>
1-(dithiolan-3-yl)ethanone
> <PUBCHEM_IUPAC_CAS_NAME>
1-(3-dithiolanyl)ethanone
> <PUBCHEM_IUPAC_NAME_MARKUP>
1-(dithiolan-3-yl)ethanone
> <PUBCHEM_IUPAC_NAME>
1-(dithiolan-3-yl)ethanone
> <PUBCHEM_IUPAC_SYSTEMATIC_NAME>
1-(1,2-dithiolan-3-yl)ethanone
> <PUBCHEM_IUPAC_TRADITIONAL_NAME>
1-(dithiolan-3-yl)ethanone
> <PUBCHEM_IUPAC_INCHI>
InChI=1S/C5H8OS2/c1-4(6)5-2-3-7-8-5/h5H,2-3H2,1H3
> <PUBCHEM_IUPAC_INCHIKEY>
OEBJHVCWENCTLE-UHFFFAOYSA-N
> <PUBCHEM_XLOGP3_AA>
0.8
> <PUBCHEM_EXACT_MASS>
148.00165722
> <PUBCHEM_MOLECULAR_FORMULA>
C5H8OS2
> <PUBCHEM_MOLECULAR_WEIGHT>
148.3
> <PUBCHEM_OPENEYE_CAN_SMILES>
CC(=O)C1CCSS1
> <PUBCHEM_OPENEYE_ISO_SMILES>
CC(=O)C1CCSS1
> <PUBCHEM_CACTVS_TPSA>
67.7
> <PUBCHEM_MONOISOTOPIC_WEIGHT>
148.00165722
> <PUBCHEM_TOTAL_CHARGE>
0
> <PUBCHEM_HEAVY_ATOM_COUNT>
8
> <PUBCHEM_ATOM_DEF_STEREO_COUNT>
0
> <PUBCHEM_ATOM_UDEF_STEREO_COUNT>
1
> <PUBCHEM_BOND_DEF_STEREO_COUNT>
0
> <PUBCHEM_BOND_UDEF_STEREO_COUNT>
0
> <PUBCHEM_ISOTOPIC_ATOM_COUNT>
0
> <PUBCHEM_COMPONENT_COUNT>
1
> <PUBCHEM_CACTVS_TAUTO_COUNT>
-1
> <PUBCHEM_COORDINATE_TYPE>
1
5
255
> <PUBCHEM_BONDANNOTATIONS>
4  7  3
$$$$
