524189
  -OEChem-10302200292D
 25 25  0     1  0  0  0  0  0999 V2000
    3.0878    0.4239    0.0000 C   0  0  3  0  0  0  0  0  0  0  0  0
    3.0878    1.4239    0.0000 C   0  0  0  0  0  0  0  0  0  0  0  0
    2.2788   -0.1639    0.0000 C   0  0  0  0  0  0  0  0  0  0  0  0
    3.8968   -0.1639    0.0000 C   0  0  0  0  0  0  0  0  0  0  0  0
    2.5878   -1.1149    0.0000 C   0  0  0  0  0  0  0  0  0  0  0  0
    3.5878   -1.1149    0.0000 C   0  0  0  0  0  0  0  0  0  0  0  0
    3.9538    1.9239    0.0000 C   0  0  0  0  0  0  0  0  0  0  0  0
    2.2218    1.9239    0.0000 C   0  0  0  0  0  0  0  0  0  0  0  0
    2.0000   -1.9239    0.0000 C   0  0  0  0  0  0  0  0  0  0  0  0
    3.6402    0.7054    0.0000 H   0  0  0  0  0  0  0  0  0  0  0  0
    3.0878    2.0439    0.0000 H   0  0  0  0  0  0  0  0  0  0  0  0
    1.9688    0.3731    0.0000 H   0  0  0  0  0  0  0  0  0  0  0  0
    1.7124   -0.4160    0.0000 H   0  0  0  0  0  0  0  0  0  0  0  0
    4.4632   -0.4160    0.0000 H   0  0  0  0  0  0  0  0  0  0  0  0
    4.2068    0.3731    0.0000 H   0  0  0  0  0  0  0  0  0  0  0  0
    3.9522   -1.6165    0.0000 H   0  0  0  0  0  0  0  0  0  0  0  0
    4.2638    1.3870    0.0000 H   0  0  0  0  0  0  0  0  0  0  0  0
    4.4908    2.2339    0.0000 H   0  0  0  0  0  0  0  0  0  0  0  0
    3.6438    2.4609    0.0000 H   0  0  0  0  0  0  0  0  0  0  0  0
    2.5318    2.4609    0.0000 H   0  0  0  0  0  0  0  0  0  0  0  0
    1.6848    2.2339    0.0000 H   0  0  0  0  0  0  0  0  0  0  0  0
    1.9118    1.3870    0.0000 H   0  0  0  0  0  0  0  0  0  0  0  0
    1.4984   -1.5595    0.0000 H   0  0  0  0  0  0  0  0  0  0  0  0
    1.6356   -2.4255    0.0000 H   0  0  0  0  0  0  0  0  0  0  0  0
    2.5016   -2.2884    0.0000 H   0  0  0  0  0  0  0  0  0  0  0  0
  1  2  1  0  0  0  0
  1  3  1  0  0  0  0
  1  4  1  0  0  0  0
  1 10  1  0  0  0  0
  2  7  1  0  0  0  0
  2  8  1  0  0  0  0
  2 11  1  0  0  0  0
  3  5  1  0  0  0  0
  3 12  1  0  0  0  0
  3 13  1  0  0  0  0
  4  6  1  0  0  0  0
  4 14  1  0  0  0  0
  4 15  1  0  0  0  0
  5  6  2  0  0  0  0
  5  9  1  0  0  0  0
  6 16  1  0  0  0  0
  7 17  1  0  0  0  0
  7 18  1  0  0  0  0
  7 19  1  0  0  0  0
  8 20  1  0  0  0  0
  8 21  1  0  0  0  0
  8 22  1  0  0  0  0
  9 23  1  0  0  0  0
  9 24  1  0  0  0  0
  9 25  1  0  0  0  0
M  END
> <PUBCHEM_COMPOUND_CID>
524189
> <PUBCHEM_COMPOUND_CANONICALIZED>
1
> <PUBCHEM_CACTVS_COMPLEXITY>
120
> <PUBCHEM_CACTVS_HBOND_ACCEPTOR>
0
> <PUBCHEM_CACTVS_HBOND_DONOR>
0
> <PUBCHEM_CACTVS_ROTATABLE_BOND>
1
> <PUBCHEM_CACTVS_SUBSKEYS>
AAADceBwAAAAAAAAAAAAAAAAAAAAAQAAAAAAAAAAAAAAAAAAAAAAGAAAAAAADQCAAAACAAAAAACAAiBCAAAAAAAgAAAACAAAAAgAAAIAAQAAAAAAgAAIAAMAAAAOgAAAAAAAAAAAAAAAAAAAAAAAAAAAAA==
> <PUBCHEM_IUPAC_OPENEYE_NAME>
4-isopropyl-1-methyl-cyclopentene
> <PUBCHEM_IUPAC_CAS_NAME>
1-methyl-4-propan-2-ylcyclopentene
> <PUBCHEM_IUPAC_NAME_MARKUP>
1-methyl-4-propan-2-ylcyclopentene
> <PUBCHEM_IUPAC_NAME>
1-methyl-4-propan-2-ylcyclopentene
> <PUBCHEM_IUPAC_SYSTEMATIC_NAME>
1-methyl-4-propan-2-yl-cyclopentene
> <PUBCHEM_IUPAC_TRADITIONAL_NAME>
4-isopropyl-1-methyl-cyclopentene
> <PUBCHEM_IUPAC_INCHI>
InChI=1S/C9H16/c1-7(2)9-5-4-8(3)6-9/h4,7,9H,5-6H2,1-3H3
> <PUBCHEM_IUPAC_INCHIKEY>
KBKZDZOQXUMEJU-UHFFFAOYSA-N
> <PUBCHEM_XLOGP3_AA>
2.9
> <PUBCHEM_EXACT_MASS>
124.125200510
> <PUBCHEM_MOLECULAR_FORMULA>
C9H16
> <PUBCHEM_MOLECULAR_WEIGHT>
124.22
> <PUBCHEM_OPENEYE_CAN_SMILES>
CC1=CCC(C1)C(C)C
> <PUBCHEM_OPENEYE_ISO_SMILES>
CC1=CCC(C1)C(C)C
> <PUBCHEM_CACTVS_TPSA>
0
> <PUBCHEM_MONOISOTOPIC_WEIGHT>
124.125200510
> <PUBCHEM_TOTAL_CHARGE>
0
> <PUBCHEM_HEAVY_ATOM_COUNT>
9
> <PUBCHEM_ATOM_DEF_STEREO_COUNT>
0
> <PUBCHEM_ATOM_UDEF_STEREO_COUNT>
1
> <PUBCHEM_BOND_DEF_STEREO_COUNT>
0
> <PUBCHEM_BOND_UDEF_STEREO_COUNT>
0
> <PUBCHEM_ISOTOPIC_ATOM_COUNT>
0
> <PUBCHEM_COMPONENT_COUNT>
1
> <PUBCHEM_CACTVS_TAUTO_COUNT>
-1
> <PUBCHEM_COORDINATE_TYPE>
1
5
255
> <PUBCHEM_BONDANNOTATIONS>
1  2  3
$$$$
