524197
  -OEChem-10302200292D
 24 25  0     1  0  0  0  0  0999 V2000
    5.4646   -0.0000    0.0000 C   0  0  0  0  0  0  0  0  0  0  0  0
    4.5981    0.5000    0.0000 C   0  0  3  0  0  0  0  0  0  0  0  0
    4.5981   -0.5000    0.0000 C   0  0  3  0  0  0  0  0  0  0  0  0
    3.7320    1.0000    0.0000 C   0  0  0  0  0  0  0  0  0  0  0  0
    5.9646   -0.8660    0.0000 C   0  0  0  0  0  0  0  0  0  0  0  0
    5.9646    0.8660    0.0000 C   0  0  0  0  0  0  0  0  0  0  0  0
    3.7320   -1.0000    0.0000 C   0  0  0  0  0  0  0  0  0  0  0  0
    2.8660    0.5000    0.0000 C   0  0  0  0  0  0  0  0  0  0  0  0
    2.8660   -0.5000    0.0000 C   0  0  0  0  0  0  0  0  0  0  0  0
    2.0000    1.0000    0.0000 C   0  0  0  0  0  0  0  0  0  0  0  0
    4.9080    1.0370    0.0000 H   0  0  0  0  0  0  0  0  0  0  0  0
    4.9080   -1.0370    0.0000 H   0  0  0  0  0  0  0  0  0  0  0  0
    4.1306    1.4750    0.0000 H   0  0  0  0  0  0  0  0  0  0  0  0
    3.3335    1.4750    0.0000 H   0  0  0  0  0  0  0  0  0  0  0  0
    5.4277   -1.1760    0.0000 H   0  0  0  0  0  0  0  0  0  0  0  0
    6.2746   -1.4030    0.0000 H   0  0  0  0  0  0  0  0  0  0  0  0
    6.5016   -0.5560    0.0000 H   0  0  0  0  0  0  0  0  0  0  0  0
    6.5016    0.5560    0.0000 H   0  0  0  0  0  0  0  0  0  0  0  0
    6.2746    1.4030    0.0000 H   0  0  0  0  0  0  0  0  0  0  0  0
    5.4277    1.1760    0.0000 H   0  0  0  0  0  0  0  0  0  0  0  0
    3.7320   -1.6200    0.0000 H   0  0  0  0  0  0  0  0  0  0  0  0
    2.3291   -0.8100    0.0000 H   0  0  0  0  0  0  0  0  0  0  0  0
    2.0000    1.6200    0.0000 H   0  0  0  0  0  0  0  0  0  0  0  0
    1.4631    0.6900    0.0000 H   0  0  0  0  0  0  0  0  0  0  0  0
  1  2  1  0  0  0  0
  1  3  1  0  0  0  0
  1  5  1  0  0  0  0
  1  6  1  0  0  0  0
  2  3  1  0  0  0  0
  2  4  1  0  0  0  0
  2 11  1  0  0  0  0
  3  7  1  0  0  0  0
  3 12  1  0  0  0  0
  4  8  1  0  0  0  0
  4 13  1  0  0  0  0
  4 14  1  0  0  0  0
  5 15  1  0  0  0  0
  5 16  1  0  0  0  0
  5 17  1  0  0  0  0
  6 18  1  0  0  0  0
  6 19  1  0  0  0  0
  6 20  1  0  0  0  0
  7  9  2  0  0  0  0
  7 21  1  0  0  0  0
  8  9  1  0  0  0  0
  8 10  2  0  0  0  0
  9 22  1  0  0  0  0
 10 23  1  0  0  0  0
 10 24  1  0  0  0  0
M  END
> <PUBCHEM_COMPOUND_CID>
524197
> <PUBCHEM_COMPOUND_CANONICALIZED>
1
> <PUBCHEM_CACTVS_COMPLEXITY>
208
> <PUBCHEM_CACTVS_HBOND_ACCEPTOR>
0
> <PUBCHEM_CACTVS_HBOND_DONOR>
0
> <PUBCHEM_CACTVS_ROTATABLE_BOND>
0
> <PUBCHEM_CACTVS_SUBSKEYS>
AAADccBwAAAAAAAAAAAAAAAAGAAAAAAAAAAgAAAABAAAAAAAAAAAGAAAAAAADwCAAAACAAAAAACAAiBCAAAAAAAgAAAICAAAAAgIAAIAAQAAAAAAgAAIgAMAgEAPgAAAAAAAAAAAAAAAAAAAAAAAAAAAAA==
> <PUBCHEM_IUPAC_OPENEYE_NAME>
7,7-dimethyl-4-methylene-bicyclo[4.1.0]hept-2-ene
> <PUBCHEM_IUPAC_CAS_NAME>
7,7-dimethyl-4-methylenebicyclo[4.1.0]hept-2-ene
> <PUBCHEM_IUPAC_NAME_MARKUP>
7,7-dimethyl-4-methylidenebicyclo[4.1.0]hept-2-ene
> <PUBCHEM_IUPAC_NAME>
7,7-dimethyl-4-methylidenebicyclo[4.1.0]hept-2-ene
> <PUBCHEM_IUPAC_SYSTEMATIC_NAME>
7,7-dimethyl-4-methylidene-bicyclo[4.1.0]hept-2-ene
> <PUBCHEM_IUPAC_TRADITIONAL_NAME>
7,7-dimethyl-4-methylene-bicyclo[4.1.0]hept-2-ene
> <PUBCHEM_IUPAC_INCHI>
InChI=1S/C10H14/c1-7-4-5-8-9(6-7)10(8,2)3/h4-5,8-9H,1,6H2,2-3H3
> <PUBCHEM_IUPAC_INCHIKEY>
DZRRJUYNXUPJFU-UHFFFAOYSA-N
> <PUBCHEM_XLOGP3_AA>
2.8
> <PUBCHEM_EXACT_MASS>
134.109550447
> <PUBCHEM_MOLECULAR_FORMULA>
C10H14
> <PUBCHEM_MOLECULAR_WEIGHT>
134.22
> <PUBCHEM_OPENEYE_CAN_SMILES>
CC1(C2C1C=CC(=C)C2)C
> <PUBCHEM_OPENEYE_ISO_SMILES>
CC1(C2C1C=CC(=C)C2)C
> <PUBCHEM_CACTVS_TPSA>
0
> <PUBCHEM_MONOISOTOPIC_WEIGHT>
134.109550447
> <PUBCHEM_TOTAL_CHARGE>
0
> <PUBCHEM_HEAVY_ATOM_COUNT>
10
> <PUBCHEM_ATOM_DEF_STEREO_COUNT>
0
> <PUBCHEM_ATOM_UDEF_STEREO_COUNT>
2
> <PUBCHEM_BOND_DEF_STEREO_COUNT>
0
> <PUBCHEM_BOND_UDEF_STEREO_COUNT>
0
> <PUBCHEM_ISOTOPIC_ATOM_COUNT>
0
> <PUBCHEM_COMPONENT_COUNT>
1
> <PUBCHEM_CACTVS_TAUTO_COUNT>
-1
> <PUBCHEM_COORDINATE_TYPE>
1
5
255
> <PUBCHEM_BONDANNOTATIONS>
2  4  3
3  7  3
$$$$
