524135
  -OEChem-10302200292D
 30 30  0     1  0  0  0  0  0999 V2000
    4.8660   -0.4330    0.0000 Cl  0  0  0  0  0  0  0  0  0  0  0  0
    4.8660   -2.1651    0.0000 Cl  0  0  0  0  0  0  0  0  0  0  0  0
    3.5000   -1.7990    0.0000 C   0  0  0  0  0  0  0  0  0  0  0  0
    3.5000   -0.7990    0.0000 C   0  0  3  0  0  0  0  0  0  0  0  0
    4.3660   -1.2990    0.0000 C   0  0  0  0  0  0  0  0  0  0  0  0
    3.0000    0.0670    0.0000 C   0  0  0  0  0  0  0  0  0  0  0  0
    2.5000   -1.7990    0.0000 C   0  0  0  0  0  0  0  0  0  0  0  0
    4.0000   -2.6651    0.0000 C   0  0  0  0  0  0  0  0  0  0  0  0
    3.5000    0.9330    0.0000 C   0  0  0  0  0  0  0  0  0  0  0  0
    3.0000    1.7990    0.0000 C   0  0  0  0  0  0  0  0  0  0  0  0
    3.5000    2.6651    0.0000 C   0  0  0  0  0  0  0  0  0  0  0  0
    2.0000    1.7990    0.0000 C   0  0  0  0  0  0  0  0  0  0  0  0
    2.9011   -0.9595    0.0000 H   0  0  0  0  0  0  0  0  0  0  0  0
    2.5250    0.4655    0.0000 H   0  0  0  0  0  0  0  0  0  0  0  0
    2.5250   -0.3315    0.0000 H   0  0  0  0  0  0  0  0  0  0  0  0
    2.5000   -1.1790    0.0000 H   0  0  0  0  0  0  0  0  0  0  0  0
    1.8800   -1.7990    0.0000 H   0  0  0  0  0  0  0  0  0  0  0  0
    2.5000   -2.4190    0.0000 H   0  0  0  0  0  0  0  0  0  0  0  0
    3.4631   -2.9751    0.0000 H   0  0  0  0  0  0  0  0  0  0  0  0
    4.3100   -3.2020    0.0000 H   0  0  0  0  0  0  0  0  0  0  0  0
    4.5369   -2.3551    0.0000 H   0  0  0  0  0  0  0  0  0  0  0  0
    3.9750    0.5345    0.0000 H   0  0  0  0  0  0  0  0  0  0  0  0
    3.9750    1.3315    0.0000 H   0  0  0  0  0  0  0  0  0  0  0  0
    3.6200    1.7990    0.0000 H   0  0  0  0  0  0  0  0  0  0  0  0
    4.0369    2.3551    0.0000 H   0  0  0  0  0  0  0  0  0  0  0  0
    3.8100    3.2020    0.0000 H   0  0  0  0  0  0  0  0  0  0  0  0
    2.9631    2.9751    0.0000 H   0  0  0  0  0  0  0  0  0  0  0  0
    2.0000    2.4190    0.0000 H   0  0  0  0  0  0  0  0  0  0  0  0
    1.3800    1.7990    0.0000 H   0  0  0  0  0  0  0  0  0  0  0  0
    2.0000    1.1790    0.0000 H   0  0  0  0  0  0  0  0  0  0  0  0
  1  5  1  0  0  0  0
  2  5  1  0  0  0  0
  3  4  1  0  0  0  0
  3  5  1  0  0  0  0
  3  7  1  0  0  0  0
  3  8  1  0  0  0  0
  4  5  1  0  0  0  0
  4  6  1  0  0  0  0
  4 13  1  0  0  0  0
  6  9  1  0  0  0  0
  6 14  1  0  0  0  0
  6 15  1  0  0  0  0
  7 16  1  0  0  0  0
  7 17  1  0  0  0  0
  7 18  1  0  0  0  0
  8 19  1  0  0  0  0
  8 20  1  0  0  0  0
  8 21  1  0  0  0  0
  9 10  1  0  0  0  0
  9 22  1  0  0  0  0
  9 23  1  0  0  0  0
 10 11  1  0  0  0  0
 10 12  1  0  0  0  0
 10 24  1  0  0  0  0
 11 25  1  0  0  0  0
 11 26  1  0  0  0  0
 11 27  1  0  0  0  0
 12 28  1  0  0  0  0
 12 29  1  0  0  0  0
 12 30  1  0  0  0  0
M  END
> <PUBCHEM_COMPOUND_CID>
524135
> <PUBCHEM_COMPOUND_CANONICALIZED>
1
> <PUBCHEM_CACTVS_COMPLEXITY>
171
> <PUBCHEM_CACTVS_HBOND_ACCEPTOR>
0
> <PUBCHEM_CACTVS_HBOND_DONOR>
0
> <PUBCHEM_CACTVS_ROTATABLE_BOND>
3
> <PUBCHEM_CACTVS_SUBSKEYS>
AAADceBwAAAGAAAAAAAAAAAAGAAAAAAAAAAAAAAAAAAAAAAAAAAAGAIAAAAADwKAAIACAAAAAAAAAAAAAAAAAAAAAAAAAAAAAgAAAAIBAAAAAAAAAAAAAAEAgMAPgAAAAAAAAAAAAAAAAAAAAAAAAAAAAA==
> <PUBCHEM_IUPAC_OPENEYE_NAME>
1,1-dichloro-3-isopentyl-2,2-dimethyl-cyclopropane
> <PUBCHEM_IUPAC_CAS_NAME>
1,1-dichloro-2,2-dimethyl-3-(3-methylbutyl)cyclopropane
> <PUBCHEM_IUPAC_NAME_MARKUP>
1,1-dichloro-2,2-dimethyl-3-(3-methylbutyl)cyclopropane
> <PUBCHEM_IUPAC_NAME>
1,1-dichloro-2,2-dimethyl-3-(3-methylbutyl)cyclopropane
> <PUBCHEM_IUPAC_SYSTEMATIC_NAME>
1,1-bis(chloranyl)-2,2-dimethyl-3-(3-methylbutyl)cyclopropane
> <PUBCHEM_IUPAC_TRADITIONAL_NAME>
1,1-dichloro-3-isoamyl-2,2-dimethyl-cyclopropane
> <PUBCHEM_IUPAC_INCHI>
InChI=1S/C10H18Cl2/c1-7(2)5-6-8-9(3,4)10(8,11)12/h7-8H,5-6H2,1-4H3
> <PUBCHEM_IUPAC_INCHIKEY>
LVFWMFWUQVZRLS-UHFFFAOYSA-N
> <PUBCHEM_XLOGP3_AA>
4.8
> <PUBCHEM_EXACT_MASS>
208.0785560
> <PUBCHEM_MOLECULAR_FORMULA>
C10H18Cl2
> <PUBCHEM_MOLECULAR_WEIGHT>
209.15
> <PUBCHEM_OPENEYE_CAN_SMILES>
CC(C)CCC1C(C1(Cl)Cl)(C)C
> <PUBCHEM_OPENEYE_ISO_SMILES>
CC(C)CCC1C(C1(Cl)Cl)(C)C
> <PUBCHEM_CACTVS_TPSA>
0
> <PUBCHEM_MONOISOTOPIC_WEIGHT>
208.0785560
> <PUBCHEM_TOTAL_CHARGE>
0
> <PUBCHEM_HEAVY_ATOM_COUNT>
12
> <PUBCHEM_ATOM_DEF_STEREO_COUNT>
0
> <PUBCHEM_ATOM_UDEF_STEREO_COUNT>
1
> <PUBCHEM_BOND_DEF_STEREO_COUNT>
0
> <PUBCHEM_BOND_UDEF_STEREO_COUNT>
0
> <PUBCHEM_ISOTOPIC_ATOM_COUNT>
0
> <PUBCHEM_COMPONENT_COUNT>
1
> <PUBCHEM_CACTVS_TAUTO_COUNT>
-1
> <PUBCHEM_COORDINATE_TYPE>
1
5
255
> <PUBCHEM_BONDANNOTATIONS>
4  6  3
$$$$
