524170
  -OEChem-10302200292D
 17 17  0     1  0  0  0  0  0999 V2000
    3.7601   -1.4571    0.0000 S   0  0  0  0  0  0  0  0  0  0  0  0
    2.6723    0.8907    0.0000 S   0  0  0  0  0  0  0  0  0  0  0  0
    3.2601    0.0817    0.0000 C   0  0  3  0  0  0  0  0  0  0  0  0
    2.9511   -0.8693    0.0000 C   0  0  3  0  0  0  0  0  0  0  0  0
    4.2601    0.0817    0.0000 C   0  0  0  0  0  0  0  0  0  0  0  0
    4.5691   -0.8693    0.0000 C   0  0  0  0  0  0  0  0  0  0  0  0
    2.0000   -1.1784    0.0000 C   0  0  0  0  0  0  0  0  0  0  0  0
    2.6477   -0.0153    0.0000 H   0  0  0  0  0  0  0  0  0  0  0  0
    2.8541   -1.4817    0.0000 H   0  0  0  0  0  0  0  0  0  0  0  0
    4.8665    0.2106    0.0000 H   0  0  0  0  0  0  0  0  0  0  0  0
    4.1953    0.6983    0.0000 H   0  0  0  0  0  0  0  0  0  0  0  0
    4.8791   -1.4063    0.0000 H   0  0  0  0  0  0  0  0  0  0  0  0
    5.1355   -0.6172    0.0000 H   0  0  0  0  0  0  0  0  0  0  0  0
    1.8084   -0.5887    0.0000 H   0  0  0  0  0  0  0  0  0  0  0  0
    1.4103   -1.3700    0.0000 H   0  0  0  0  0  0  0  0  0  0  0  0
    2.1916   -1.7680    0.0000 H   0  0  0  0  0  0  0  0  0  0  0  0
    2.9245    1.4571    0.0000 H   0  0  0  0  0  0  0  0  0  0  0  0
  1  4  1  0  0  0  0
  1  6  1  0  0  0  0
  2  3  1  0  0  0  0
  2 17  1  0  0  0  0
  3  4  1  0  0  0  0
  3  5  1  0  0  0  0
  3  8  1  0  0  0  0
  4  7  1  0  0  0  0
  4  9  1  0  0  0  0
  5  6  1  0  0  0  0
  5 10  1  0  0  0  0
  5 11  1  0  0  0  0
  6 12  1  0  0  0  0
  6 13  1  0  0  0  0
  7 14  1  0  0  0  0
  7 15  1  0  0  0  0
  7 16  1  0  0  0  0
M  END
> <PUBCHEM_COMPOUND_CID>
524170
> <PUBCHEM_COMPOUND_CANONICALIZED>
1
> <PUBCHEM_CACTVS_COMPLEXITY>
63.1
> <PUBCHEM_CACTVS_HBOND_ACCEPTOR>
2
> <PUBCHEM_CACTVS_HBOND_DONOR>
1
> <PUBCHEM_CACTVS_ROTATABLE_BOND>
0
> <PUBCHEM_CACTVS_SUBSKEYS>
AAADccBgAABgAAAAAAAAAAAAAAAAASAAAAAAAAAAAAAAAAAAAAAAGAQAAAAACACEQACCAAAAAAwAAAAAAAAAAAAAABAAAAAAAAAAAAIgAAAAAAAAAAAgAAAAAAAAAAAAAAAAAAAAAAAAAAAAAAAAAAAAAA==
> <PUBCHEM_IUPAC_OPENEYE_NAME>
2-methyltetrahydrothiophene-3-thiol
> <PUBCHEM_IUPAC_CAS_NAME>
2-methyl-3-thiolanethiol
> <PUBCHEM_IUPAC_NAME_MARKUP>
2-methylthiolane-3-thiol
> <PUBCHEM_IUPAC_NAME>
2-methylthiolane-3-thiol
> <PUBCHEM_IUPAC_SYSTEMATIC_NAME>
2-methylthiolane-3-thiol
> <PUBCHEM_IUPAC_TRADITIONAL_NAME>
2-methyltetrahydrothiophene-3-thiol
> <PUBCHEM_IUPAC_INCHI>
InChI=1S/C5H10S2/c1-4-5(6)2-3-7-4/h4-6H,2-3H2,1H3
> <PUBCHEM_IUPAC_INCHIKEY>
DPEXPKGKIRGPKJ-UHFFFAOYSA-N
> <PUBCHEM_XLOGP3_AA>
1.8
> <PUBCHEM_EXACT_MASS>
134.02239267
> <PUBCHEM_MOLECULAR_FORMULA>
C5H10S2
> <PUBCHEM_MOLECULAR_WEIGHT>
134.3
> <PUBCHEM_OPENEYE_CAN_SMILES>
CC1C(CCS1)S
> <PUBCHEM_OPENEYE_ISO_SMILES>
CC1C(CCS1)S
> <PUBCHEM_CACTVS_TPSA>
26.3
> <PUBCHEM_MONOISOTOPIC_WEIGHT>
134.02239267
> <PUBCHEM_TOTAL_CHARGE>
0
> <PUBCHEM_HEAVY_ATOM_COUNT>
7
> <PUBCHEM_ATOM_DEF_STEREO_COUNT>
0
> <PUBCHEM_ATOM_UDEF_STEREO_COUNT>
2
> <PUBCHEM_BOND_DEF_STEREO_COUNT>
0
> <PUBCHEM_BOND_UDEF_STEREO_COUNT>
0
> <PUBCHEM_ISOTOPIC_ATOM_COUNT>
0
> <PUBCHEM_COMPONENT_COUNT>
1
> <PUBCHEM_CACTVS_TAUTO_COUNT>
-1
> <PUBCHEM_COORDINATE_TYPE>
1
5
255
> <PUBCHEM_BONDANNOTATIONS>
3  2  3
4  7  3
$$$$
