524138
  -OEChem-10302200292D
 25 26  0     1  0  0  0  0  0999 V2000
    4.3661   -0.2990    0.0000 Cl  0  0  0  0  0  0  0  0  0  0  0  0
    4.7320    1.0670    0.0000 Cl  0  0  0  0  0  0  0  0  0  0  0  0
    2.8660    0.5670    0.0000 C   0  0  3  0  0  0  0  0  0  0  0  0
    3.3660    1.4330    0.0000 C   0  0  3  0  0  0  0  0  0  0  0  0
    3.8660    0.5670    0.0000 C   0  0  0  0  0  0  0  0  0  0  0  0
    2.0000    1.0670    0.0000 C   0  0  0  0  0  0  0  0  0  0  0  0
    2.8660   -0.4330    0.0000 C   0  0  0  0  0  0  0  0  0  0  0  0
    3.3660    2.4330    0.0000 C   0  0  0  0  0  0  0  0  0  0  0  0
    2.0000   -0.9330    0.0000 C   0  0  0  0  0  0  0  0  0  0  0  0
    3.7320   -0.9330    0.0000 C   0  0  0  0  0  0  0  0  0  0  0  0
    2.0000   -1.9330    0.0000 C   0  0  0  0  0  0  0  0  0  0  0  0
    3.7320   -1.9330    0.0000 C   0  0  0  0  0  0  0  0  0  0  0  0
    2.8660   -2.4330    0.0000 C   0  0  0  0  0  0  0  0  0  0  0  0
    3.9649    1.5935    0.0000 H   0  0  0  0  0  0  0  0  0  0  0  0
    2.3100    1.6039    0.0000 H   0  0  0  0  0  0  0  0  0  0  0  0
    1.4631    1.3770    0.0000 H   0  0  0  0  0  0  0  0  0  0  0  0
    1.6900    0.5301    0.0000 H   0  0  0  0  0  0  0  0  0  0  0  0
    3.9860    2.4330    0.0000 H   0  0  0  0  0  0  0  0  0  0  0  0
    3.3660    3.0530    0.0000 H   0  0  0  0  0  0  0  0  0  0  0  0
    2.7460    2.4330    0.0000 H   0  0  0  0  0  0  0  0  0  0  0  0
    1.4631   -0.6230    0.0000 H   0  0  0  0  0  0  0  0  0  0  0  0
    4.2690   -0.6230    0.0000 H   0  0  0  0  0  0  0  0  0  0  0  0
    1.4631   -2.2430    0.0000 H   0  0  0  0  0  0  0  0  0  0  0  0
    4.2690   -2.2430    0.0000 H   0  0  0  0  0  0  0  0  0  0  0  0
    2.8660   -3.0530    0.0000 H   0  0  0  0  0  0  0  0  0  0  0  0
  1  5  1  0  0  0  0
  2  5  1  0  0  0  0
  3  4  1  0  0  0  0
  3  5  1  0  0  0  0
  3  6  1  0  0  0  0
  3  7  1  0  0  0  0
  4  5  1  0  0  0  0
  4  8  1  0  0  0  0
  4 14  1  0  0  0  0
  6 15  1  0  0  0  0
  6 16  1  0  0  0  0
  6 17  1  0  0  0  0
  7  9  2  0  0  0  0
  7 10  1  0  0  0  0
  8 18  1  0  0  0  0
  8 19  1  0  0  0  0
  8 20  1  0  0  0  0
  9 11  1  0  0  0  0
  9 21  1  0  0  0  0
 10 12  2  0  0  0  0
 10 22  1  0  0  0  0
 11 13  2  0  0  0  0
 11 23  1  0  0  0  0
 12 13  1  0  0  0  0
 12 24  1  0  0  0  0
 13 25  1  0  0  0  0
M  END
> <PUBCHEM_COMPOUND_CID>
524138
> <PUBCHEM_COMPOUND_CANONICALIZED>
1
> <PUBCHEM_CACTVS_COMPLEXITY>
206
> <PUBCHEM_CACTVS_HBOND_ACCEPTOR>
0
> <PUBCHEM_CACTVS_HBOND_DONOR>
0
> <PUBCHEM_CACTVS_ROTATABLE_BOND>
1
> <PUBCHEM_CACTVS_SUBSKEYS>
AAADccBwAAAGAAAAAAAAAAAAGAAAAAAAAAAwAAAAAAAAAAABAAAAGAIAAAAADwKAGIAyAIAAAACAAiBCAAACAAAgAAAIiAAAAogIICKBERCAIAAggAAIiAcAgMAPgAAAAAAAAAAAAAAAAAAAAAAAAAAAAA==
> <PUBCHEM_IUPAC_OPENEYE_NAME>
(2,2-dichloro-1,3-dimethyl-cyclopropyl)benzene
> <PUBCHEM_IUPAC_CAS_NAME>
(2,2-dichloro-1,3-dimethylcyclopropyl)benzene
> <PUBCHEM_IUPAC_NAME_MARKUP>
(2,2-dichloro-1,3-dimethylcyclopropyl)benzene
> <PUBCHEM_IUPAC_NAME>
(2,2-dichloro-1,3-dimethylcyclopropyl)benzene
> <PUBCHEM_IUPAC_SYSTEMATIC_NAME>
[2,2-bis(chloranyl)-1,3-dimethyl-cyclopropyl]benzene
> <PUBCHEM_IUPAC_TRADITIONAL_NAME>
(2,2-dichloro-1,3-dimethyl-cyclopropyl)benzene
> <PUBCHEM_IUPAC_INCHI>
InChI=1S/C11H12Cl2/c1-8-10(2,11(8,12)13)9-6-4-3-5-7-9/h3-8H,1-2H3
> <PUBCHEM_IUPAC_INCHIKEY>
IOWCOFRMWOFEPS-UHFFFAOYSA-N
> <PUBCHEM_XLOGP3_AA>
4.3
> <PUBCHEM_EXACT_MASS>
214.0316058
> <PUBCHEM_MOLECULAR_FORMULA>
C11H12Cl2
> <PUBCHEM_MOLECULAR_WEIGHT>
215.12
> <PUBCHEM_OPENEYE_CAN_SMILES>
CC1C(C1(Cl)Cl)(C)C2=CC=CC=C2
> <PUBCHEM_OPENEYE_ISO_SMILES>
CC1C(C1(Cl)Cl)(C)C2=CC=CC=C2
> <PUBCHEM_CACTVS_TPSA>
0
> <PUBCHEM_MONOISOTOPIC_WEIGHT>
214.0316058
> <PUBCHEM_TOTAL_CHARGE>
0
> <PUBCHEM_HEAVY_ATOM_COUNT>
13
> <PUBCHEM_ATOM_DEF_STEREO_COUNT>
0
> <PUBCHEM_ATOM_UDEF_STEREO_COUNT>
2
> <PUBCHEM_BOND_DEF_STEREO_COUNT>
0
> <PUBCHEM_BOND_UDEF_STEREO_COUNT>
0
> <PUBCHEM_ISOTOPIC_ATOM_COUNT>
0
> <PUBCHEM_COMPONENT_COUNT>
1
> <PUBCHEM_CACTVS_TAUTO_COUNT>
-1
> <PUBCHEM_COORDINATE_TYPE>
1
5
255
> <PUBCHEM_BONDANNOTATIONS>
10  12  8
11  13  8
12  13  8
3  6  3
4  8  3
7  10  8
7  9  8
9  11  8
$$$$
