524132
  -OEChem-10302200292D
 31 32  0     1  0  0  0  0  0999 V2000
    5.2321   -0.0490    0.0000 Cl  0  0  0  0  0  0  0  0  0  0  0  0
    5.5981    1.3170    0.0000 Cl  0  0  0  0  0  0  0  0  0  0  0  0
    3.7320    0.8170    0.0000 C   0  0  3  0  0  0  0  0  0  0  0  0
    4.7320    0.8170    0.0000 C   0  0  0  0  0  0  0  0  0  0  0  0
    4.2320    1.6830    0.0000 C   0  0  0  0  0  0  0  0  0  0  0  0
    2.8660    1.3170    0.0000 C   0  0  0  0  0  0  0  0  0  0  0  0
    3.7320   -0.1830    0.0000 C   0  0  0  0  0  0  0  0  0  0  0  0
    2.0000    1.8170    0.0000 C   0  0  0  0  0  0  0  0  0  0  0  0
    3.3660    2.1830    0.0000 C   0  0  0  0  0  0  0  0  0  0  0  0
    2.3660    0.4510    0.0000 C   0  0  0  0  0  0  0  0  0  0  0  0
    4.5981   -0.6830    0.0000 C   0  0  0  0  0  0  0  0  0  0  0  0
    2.8660   -0.6830    0.0000 C   0  0  0  0  0  0  0  0  0  0  0  0
    4.5981   -1.6830    0.0000 C   0  0  0  0  0  0  0  0  0  0  0  0
    2.8660   -1.6830    0.0000 C   0  0  0  0  0  0  0  0  0  0  0  0
    3.7320   -2.1830    0.0000 C   0  0  0  0  0  0  0  0  0  0  0  0
    4.7070    2.0815    0.0000 H   0  0  0  0  0  0  0  0  0  0  0  0
    3.7571    2.0815    0.0000 H   0  0  0  0  0  0  0  0  0  0  0  0
    2.3100    2.3539    0.0000 H   0  0  0  0  0  0  0  0  0  0  0  0
    1.4631    2.1270    0.0000 H   0  0  0  0  0  0  0  0  0  0  0  0
    1.6900    1.2800    0.0000 H   0  0  0  0  0  0  0  0  0  0  0  0
    3.9030    1.8730    0.0000 H   0  0  0  0  0  0  0  0  0  0  0  0
    3.6760    2.7200    0.0000 H   0  0  0  0  0  0  0  0  0  0  0  0
    2.8291    2.4930    0.0000 H   0  0  0  0  0  0  0  0  0  0  0  0
    1.8291    0.7610    0.0000 H   0  0  0  0  0  0  0  0  0  0  0  0
    2.0560   -0.0860    0.0000 H   0  0  0  0  0  0  0  0  0  0  0  0
    2.9030    0.1410    0.0000 H   0  0  0  0  0  0  0  0  0  0  0  0
    5.1350   -0.3730    0.0000 H   0  0  0  0  0  0  0  0  0  0  0  0
    2.3291   -0.3730    0.0000 H   0  0  0  0  0  0  0  0  0  0  0  0
    5.1350   -1.9930    0.0000 H   0  0  0  0  0  0  0  0  0  0  0  0
    2.3291   -1.9930    0.0000 H   0  0  0  0  0  0  0  0  0  0  0  0
    3.7320   -2.8030    0.0000 H   0  0  0  0  0  0  0  0  0  0  0  0
  1  4  1  0  0  0  0
  2  4  1  0  0  0  0
  3  4  1  0  0  0  0
  3  5  1  0  0  0  0
  3  6  1  0  0  0  0
  3  7  1  0  0  0  0
  4  5  1  0  0  0  0
  5 16  1  0  0  0  0
  5 17  1  0  0  0  0
  6  8  1  0  0  0  0
  6  9  1  0  0  0  0
  6 10  1  0  0  0  0
  7 11  2  0  0  0  0
  7 12  1  0  0  0  0
  8 18  1  0  0  0  0
  8 19  1  0  0  0  0
  8 20  1  0  0  0  0
  9 21  1  0  0  0  0
  9 22  1  0  0  0  0
  9 23  1  0  0  0  0
 10 24  1  0  0  0  0
 10 25  1  0  0  0  0
 10 26  1  0  0  0  0
 11 13  1  0  0  0  0
 11 27  1  0  0  0  0
 12 14  2  0  0  0  0
 12 28  1  0  0  0  0
 13 15  2  0  0  0  0
 13 29  1  0  0  0  0
 14 15  1  0  0  0  0
 14 30  1  0  0  0  0
 15 31  1  0  0  0  0
M  END
> <PUBCHEM_COMPOUND_CID>
524132
> <PUBCHEM_COMPOUND_CANONICALIZED>
1
> <PUBCHEM_CACTVS_COMPLEXITY>
246
> <PUBCHEM_CACTVS_HBOND_ACCEPTOR>
0
> <PUBCHEM_CACTVS_HBOND_DONOR>
0
> <PUBCHEM_CACTVS_ROTATABLE_BOND>
2
> <PUBCHEM_CACTVS_SUBSKEYS>
AAADceBwAAAGAAAAAAAAAAAAGAAAAAAAAAAwAAAAAAAAAAABAAAAGAIAAAAADgKAGIAyAIAAAACAAiBCAAACAAAgAAAIiAAAAogIICKBERCAIAAggAAIiAcAgMAPgAAAAAAAAAAAAAAAAAAAAAAAAAAAAA==
> <PUBCHEM_IUPAC_OPENEYE_NAME>
(1-tert-butyl-2,2-dichloro-cyclopropyl)benzene
> <PUBCHEM_IUPAC_CAS_NAME>
(1-tert-butyl-2,2-dichlorocyclopropyl)benzene
> <PUBCHEM_IUPAC_NAME_MARKUP>
(1-<I>tert</I>-butyl-2,2-dichlorocyclopropyl)benzene
> <PUBCHEM_IUPAC_NAME>
(1-tert-butyl-2,2-dichlorocyclopropyl)benzene
> <PUBCHEM_IUPAC_SYSTEMATIC_NAME>
[1-tert-butyl-2,2-bis(chloranyl)cyclopropyl]benzene
> <PUBCHEM_IUPAC_TRADITIONAL_NAME>
(1-tert-butyl-2,2-dichloro-cyclopropyl)benzene
> <PUBCHEM_IUPAC_INCHI>
InChI=1S/C13H16Cl2/c1-11(2,3)12(9-13(12,14)15)10-7-5-4-6-8-10/h4-8H,9H2,1-3H3
> <PUBCHEM_IUPAC_INCHIKEY>
SMJHMZZCWZEYDY-UHFFFAOYSA-N
> <PUBCHEM_XLOGP3_AA>
5
> <PUBCHEM_EXACT_MASS>
242.0629059
> <PUBCHEM_MOLECULAR_FORMULA>
C13H16Cl2
> <PUBCHEM_MOLECULAR_WEIGHT>
243.17
> <PUBCHEM_OPENEYE_CAN_SMILES>
CC(C)(C)C1(CC1(Cl)Cl)C2=CC=CC=C2
> <PUBCHEM_OPENEYE_ISO_SMILES>
CC(C)(C)C1(CC1(Cl)Cl)C2=CC=CC=C2
> <PUBCHEM_CACTVS_TPSA>
0
> <PUBCHEM_MONOISOTOPIC_WEIGHT>
242.0629059
> <PUBCHEM_TOTAL_CHARGE>
0
> <PUBCHEM_HEAVY_ATOM_COUNT>
15
> <PUBCHEM_ATOM_DEF_STEREO_COUNT>
0
> <PUBCHEM_ATOM_UDEF_STEREO_COUNT>
1
> <PUBCHEM_BOND_DEF_STEREO_COUNT>
0
> <PUBCHEM_BOND_UDEF_STEREO_COUNT>
0
> <PUBCHEM_ISOTOPIC_ATOM_COUNT>
0
> <PUBCHEM_COMPONENT_COUNT>
1
> <PUBCHEM_CACTVS_TAUTO_COUNT>
-1
> <PUBCHEM_COORDINATE_TYPE>
1
5
255
> <PUBCHEM_BONDANNOTATIONS>
11  13  8
12  14  8
13  15  8
14  15  8
3  6  3
7  11  8
7  12  8
$$$$
