524118
  -OEChem-10302200292D
 38 38  0     1  0  0  0  0  0999 V2000
    5.0981    2.1830    0.0000 S   0  0  0  0  0  0  0  0  0  0  0  0
    2.8660    1.3170    0.0000 S   0  0  0  0  0  0  0  0  0  0  0  0
    4.5981   -0.6830    0.0000 C   0  0  3  0  0  0  0  0  0  0  0  0
    4.5981    1.3170    0.0000 C   0  0  3  0  0  0  0  0  0  0  0  0
    3.7320    0.8170    0.0000 C   0  0  3  0  0  0  0  0  0  0  0  0
    3.7320   -0.1830    0.0000 C   0  0  0  0  0  0  0  0  0  0  0  0
    5.4641   -0.1830    0.0000 C   0  0  0  0  0  0  0  0  0  0  0  0
    5.4641    0.8170    0.0000 C   0  0  0  0  0  0  0  0  0  0  0  0
    4.5981   -1.6830    0.0000 C   0  0  0  0  0  0  0  0  0  0  0  0
    4.0981    2.1830    0.0000 C   0  0  0  0  0  0  0  0  0  0  0  0
    5.4641   -2.1830    0.0000 C   0  0  0  0  0  0  0  0  0  0  0  0
    3.7320   -2.1830    0.0000 C   0  0  0  0  0  0  0  0  0  0  0  0
    6.0981    2.1830    0.0000 C   0  0  0  0  0  0  0  0  0  0  0  0
    2.0000    0.8170    0.0000 C   0  0  0  0  0  0  0  0  0  0  0  0
    5.1350   -0.9930    0.0000 H   0  0  0  0  0  0  0  0  0  0  0  0
    3.7320    1.4370    0.0000 H   0  0  0  0  0  0  0  0  0  0  0  0
    3.1215   -0.0754    0.0000 H   0  0  0  0  0  0  0  0  0  0  0  0
    3.5200   -0.7656    0.0000 H   0  0  0  0  0  0  0  0  0  0  0  0
    5.6762   -0.7656    0.0000 H   0  0  0  0  0  0  0  0  0  0  0  0
    6.0747   -0.0754    0.0000 H   0  0  0  0  0  0  0  0  0  0  0  0
    6.0747    0.7093    0.0000 H   0  0  0  0  0  0  0  0  0  0  0  0
    5.6762    1.3996    0.0000 H   0  0  0  0  0  0  0  0  0  0  0  0
    4.5981   -2.3030    0.0000 H   0  0  0  0  0  0  0  0  0  0  0  0
    4.6350    2.4930    0.0000 H   0  0  0  0  0  0  0  0  0  0  0  0
    3.7881    2.7200    0.0000 H   0  0  0  0  0  0  0  0  0  0  0  0
    3.5611    1.8730    0.0000 H   0  0  0  0  0  0  0  0  0  0  0  0
    5.1541   -2.7200    0.0000 H   0  0  0  0  0  0  0  0  0  0  0  0
    6.0010   -2.4930    0.0000 H   0  0  0  0  0  0  0  0  0  0  0  0
    5.7741   -1.6461    0.0000 H   0  0  0  0  0  0  0  0  0  0  0  0
    3.4220   -1.6461    0.0000 H   0  0  0  0  0  0  0  0  0  0  0  0
    3.1951   -2.4930    0.0000 H   0  0  0  0  0  0  0  0  0  0  0  0
    4.0420   -2.7200    0.0000 H   0  0  0  0  0  0  0  0  0  0  0  0
    6.0981    1.5630    0.0000 H   0  0  0  0  0  0  0  0  0  0  0  0
    6.7181    2.1830    0.0000 H   0  0  0  0  0  0  0  0  0  0  0  0
    6.0981    2.8030    0.0000 H   0  0  0  0  0  0  0  0  0  0  0  0
    1.6900    1.3539    0.0000 H   0  0  0  0  0  0  0  0  0  0  0  0
    1.4631    0.5070    0.0000 H   0  0  0  0  0  0  0  0  0  0  0  0
    2.3100    0.2801    0.0000 H   0  0  0  0  0  0  0  0  0  0  0  0
  1  4  1  0  0  0  0
  1 13  1  0  0  0  0
  2  5  1  0  0  0  0
  2 14  1  0  0  0  0
  3  6  1  0  0  0  0
  3  7  1  0  0  0  0
  3  9  1  0  0  0  0
  3 15  1  0  0  0  0
  4  5  1  0  0  0  0
  4  8  1  0  0  0  0
  4 10  1  0  0  0  0
  5  6  1  0  0  0  0
  5 16  1  0  0  0  0
  6 17  1  0  0  0  0
  6 18  1  0  0  0  0
  7  8  1  0  0  0  0
  7 19  1  0  0  0  0
  7 20  1  0  0  0  0
  8 21  1  0  0  0  0
  8 22  1  0  0  0  0
  9 11  1  0  0  0  0
  9 12  1  0  0  0  0
  9 23  1  0  0  0  0
 10 24  1  0  0  0  0
 10 25  1  0  0  0  0
 10 26  1  0  0  0  0
 11 27  1  0  0  0  0
 11 28  1  0  0  0  0
 11 29  1  0  0  0  0
 12 30  1  0  0  0  0
 12 31  1  0  0  0  0
 12 32  1  0  0  0  0
 13 33  1  0  0  0  0
 13 34  1  0  0  0  0
 13 35  1  0  0  0  0
 14 36  1  0  0  0  0
 14 37  1  0  0  0  0
 14 38  1  0  0  0  0
M  END
> <PUBCHEM_COMPOUND_CID>
524118
> <PUBCHEM_COMPOUND_CANONICALIZED>
1
> <PUBCHEM_CACTVS_COMPLEXITY>
179
> <PUBCHEM_CACTVS_HBOND_ACCEPTOR>
2
> <PUBCHEM_CACTVS_HBOND_DONOR>
0
> <PUBCHEM_CACTVS_ROTATABLE_BOND>
3
> <PUBCHEM_CACTVS_SUBSKEYS>
AAADceBwAABgAAAAAAAAAAAAAAAAAAAAAAAwAAAAAAAAAAAAAAAAGAQAAAAADQCEQACCAAAAAAgAAAAAAAAAAAAAABAAAAAAAAAAAAIgAAAAAAAAAAAAAAEAgMAOgAAAAAAAAACgAAEAAAgEAAAAAAAAAA==
> <PUBCHEM_IUPAC_OPENEYE_NAME>
4-isopropyl-1-methyl-1,2-bis(methylsulfanyl)cyclohexane
> <PUBCHEM_IUPAC_CAS_NAME>
1-methyl-1,2-bis(methylthio)-4-propan-2-ylcyclohexane
> <PUBCHEM_IUPAC_NAME_MARKUP>
1-methyl-1,2-bis(methylsulfanyl)-4-propan-2-ylcyclohexane
> <PUBCHEM_IUPAC_NAME>
1-methyl-1,2-bis(methylsulfanyl)-4-propan-2-ylcyclohexane
> <PUBCHEM_IUPAC_SYSTEMATIC_NAME>
1-methyl-1,2-bis(methylsulfanyl)-4-propan-2-yl-cyclohexane
> <PUBCHEM_IUPAC_TRADITIONAL_NAME>
4-isopropyl-1-methyl-1,2-bis(methylthio)cyclohexane
> <PUBCHEM_IUPAC_INCHI>
InChI=1S/C12H24S2/c1-9(2)10-6-7-12(3,14-5)11(8-10)13-4/h9-11H,6-8H2,1-5H3
> <PUBCHEM_IUPAC_INCHIKEY>
QZBLXHCJEOLPQK-UHFFFAOYSA-N
> <PUBCHEM_XLOGP3_AA>
4.3
> <PUBCHEM_EXACT_MASS>
232.13194311
> <PUBCHEM_MOLECULAR_FORMULA>
C12H24S2
> <PUBCHEM_MOLECULAR_WEIGHT>
232.5
> <PUBCHEM_OPENEYE_CAN_SMILES>
CC(C)C1CCC(C(C1)SC)(C)SC
> <PUBCHEM_OPENEYE_ISO_SMILES>
CC(C)C1CCC(C(C1)SC)(C)SC
> <PUBCHEM_CACTVS_TPSA>
50.6
> <PUBCHEM_MONOISOTOPIC_WEIGHT>
232.13194311
> <PUBCHEM_TOTAL_CHARGE>
0
> <PUBCHEM_HEAVY_ATOM_COUNT>
14
> <PUBCHEM_ATOM_DEF_STEREO_COUNT>
0
> <PUBCHEM_ATOM_UDEF_STEREO_COUNT>
3
> <PUBCHEM_BOND_DEF_STEREO_COUNT>
0
> <PUBCHEM_BOND_UDEF_STEREO_COUNT>
0
> <PUBCHEM_ISOTOPIC_ATOM_COUNT>
0
> <PUBCHEM_COMPONENT_COUNT>
1
> <PUBCHEM_CACTVS_TAUTO_COUNT>
-1
> <PUBCHEM_COORDINATE_TYPE>
1
5
255
> <PUBCHEM_BONDANNOTATIONS>
5  2  3
3  9  3
4  10  3
$$$$
