524176
  -OEChem-10302200292D
 26 27  0     1  0  0  0  0  0999 V2000
    3.4901   -0.4568    0.0000 S   0  0  0  0  0  0  0  0  0  0  0  0
    3.8968    0.4568    0.0000 S   0  0  0  0  0  0  0  0  0  0  0  0
    4.5778   -2.8046    0.0000 O   0  0  0  0  0  0  0  0  0  0  0  0
    2.8090    2.8046    0.0000 O   0  0  0  0  0  0  0  0  0  0  0  0
    3.7688   -2.2168    0.0000 C   0  0  3  0  0  0  0  0  0  0  0  0
    4.0778   -1.2658    0.0000 C   0  0  3  0  0  0  0  0  0  0  0  0
    5.0778   -1.2658    0.0000 C   0  0  0  0  0  0  0  0  0  0  0  0
    2.8178   -2.5259    0.0000 C   0  0  0  0  0  0  0  0  0  0  0  0
    5.3869   -2.2168    0.0000 C   0  0  0  0  0  0  0  0  0  0  0  0
    3.3090    1.2658    0.0000 C   0  0  0  0  0  0  0  0  0  0  0  0
    3.6180    2.2168    0.0000 C   0  0  0  0  0  0  0  0  0  0  0  0
    2.3090    1.2658    0.0000 C   0  0  0  0  0  0  0  0  0  0  0  0
    4.5691    2.5259    0.0000 C   0  0  0  0  0  0  0  0  0  0  0  0
    2.0000    2.2168    0.0000 C   0  0  0  0  0  0  0  0  0  0  0  0
    3.6718   -2.8292    0.0000 H   0  0  0  0  0  0  0  0  0  0  0  0
    3.4655   -1.3628    0.0000 H   0  0  0  0  0  0  0  0  0  0  0  0
    5.4423   -0.7642    0.0000 H   0  0  0  0  0  0  0  0  0  0  0  0
    2.6262   -1.9362    0.0000 H   0  0  0  0  0  0  0  0  0  0  0  0
    2.2281   -2.7174    0.0000 H   0  0  0  0  0  0  0  0  0  0  0  0
    3.0094   -3.1155    0.0000 H   0  0  0  0  0  0  0  0  0  0  0  0
    5.9765   -2.4084    0.0000 H   0  0  0  0  0  0  0  0  0  0  0  0
    1.9446    0.7642    0.0000 H   0  0  0  0  0  0  0  0  0  0  0  0
    4.7607    1.9362    0.0000 H   0  0  0  0  0  0  0  0  0  0  0  0
    5.1588    2.7174    0.0000 H   0  0  0  0  0  0  0  0  0  0  0  0
    4.3775    3.1155    0.0000 H   0  0  0  0  0  0  0  0  0  0  0  0
    1.4103    2.4084    0.0000 H   0  0  0  0  0  0  0  0  0  0  0  0
  1  2  1  0  0  0  0
  1  6  1  0  0  0  0
  2 10  1  0  0  0  0
  3  5  1  0  0  0  0
  3  9  1  0  0  0  0
  4 11  1  0  0  0  0
  4 14  1  0  0  0  0
  5  6  1  0  0  0  0
  5  8  1  0  0  0  0
  5 15  1  0  0  0  0
  6  7  1  0  0  0  0
  6 16  1  0  0  0  0
  7  9  2  0  0  0  0
  7 17  1  0  0  0  0
  8 18  1  0  0  0  0
  8 19  1  0  0  0  0
  8 20  1  0  0  0  0
  9 21  1  0  0  0  0
 10 11  2  0  0  0  0
 10 12  1  0  0  0  0
 11 13  1  0  0  0  0
 12 14  2  0  0  0  0
 12 22  1  0  0  0  0
 13 23  1  0  0  0  0
 13 24  1  0  0  0  0
 13 25  1  0  0  0  0
 14 26  1  0  0  0  0
M  END
> <PUBCHEM_COMPOUND_CID>
524176
> <PUBCHEM_COMPOUND_CANONICALIZED>
1
> <PUBCHEM_CACTVS_COMPLEXITY>
220
> <PUBCHEM_CACTVS_HBOND_ACCEPTOR>
4
> <PUBCHEM_CACTVS_HBOND_DONOR>
0
> <PUBCHEM_CACTVS_ROTATABLE_BOND>
3
> <PUBCHEM_CACTVS_SUBSKEYS>
AAADccBwMABgAAAAAAAAAAAAAAAAASIAAAAAAAAAAAAAAAABgAAAGgQAAAAACBSk0AKyBYAABECIAKhSgAAGCAAkIAAIiBsGCMgMJjKENRqCGSCkwBEIqYaIAAAAAAAAAAAAAAAAAAAAAAAAAAAAAAAAAA==
> <PUBCHEM_IUPAC_OPENEYE_NAME>
2-methyl-3-[(2-methyl-2,3-dihydrofuran-3-yl)disulfanyl]furan
> <PUBCHEM_IUPAC_CAS_NAME>
2-methyl-3-[(2-methyl-2,3-dihydrofuran-3-yl)disulfanyl]furan
> <PUBCHEM_IUPAC_NAME_MARKUP>
2-methyl-3-[(2-methyl-2,3-dihydrofuran-3-yl)disulfanyl]furan
> <PUBCHEM_IUPAC_NAME>
2-methyl-3-[(2-methyl-2,3-dihydrofuran-3-yl)disulfanyl]furan
> <PUBCHEM_IUPAC_SYSTEMATIC_NAME>
2-methyl-3-[(2-methyl-2,3-dihydrofuran-3-yl)disulfanyl]furan
> <PUBCHEM_IUPAC_TRADITIONAL_NAME>
2-methyl-3-[(2-methyl-2,3-dihydrofuran-3-yl)disulfanyl]furan
> <PUBCHEM_IUPAC_INCHI>
InChI=1S/C10H12O2S2/c1-7-9(3-5-11-7)13-14-10-4-6-12-8(10)2/h3-7,9H,1-2H3
> <PUBCHEM_IUPAC_INCHIKEY>
PLRVTMPWGHRQMF-UHFFFAOYSA-N
> <PUBCHEM_XLOGP3_AA>
2.5
> <PUBCHEM_EXACT_MASS>
228.02787197
> <PUBCHEM_MOLECULAR_FORMULA>
C10H12O2S2
> <PUBCHEM_MOLECULAR_WEIGHT>
228.3
> <PUBCHEM_OPENEYE_CAN_SMILES>
CC1C(C=CO1)SSC2=C(OC=C2)C
> <PUBCHEM_OPENEYE_ISO_SMILES>
CC1C(C=CO1)SSC2=C(OC=C2)C
> <PUBCHEM_CACTVS_TPSA>
73
> <PUBCHEM_MONOISOTOPIC_WEIGHT>
228.02787197
> <PUBCHEM_TOTAL_CHARGE>
0
> <PUBCHEM_HEAVY_ATOM_COUNT>
14
> <PUBCHEM_ATOM_DEF_STEREO_COUNT>
0
> <PUBCHEM_ATOM_UDEF_STEREO_COUNT>
2
> <PUBCHEM_BOND_DEF_STEREO_COUNT>
0
> <PUBCHEM_BOND_UDEF_STEREO_COUNT>
0
> <PUBCHEM_ISOTOPIC_ATOM_COUNT>
0
> <PUBCHEM_COMPONENT_COUNT>
1
> <PUBCHEM_CACTVS_TAUTO_COUNT>
-1
> <PUBCHEM_COORDINATE_TYPE>
1
5
255
> <PUBCHEM_BONDANNOTATIONS>
6  1  3
10  11  8
10  12  8
12  14  8
4  11  8
4  14  8
5  8  3
$$$$
