524106
  -OEChem-10302200292D
 35 35  0     1  0  0  0  0  0999 V2000
    4.7320    0.7500    0.0000 S   0  0  0  0  0  0  0  0  0  0  0  0
    4.5981    2.2500    0.0000 S   0  0  0  0  0  0  0  0  0  0  0  0
    2.0000   -2.2500    0.0000 O   0  0  0  0  0  0  0  0  0  0  0  0
    3.7320   -0.2500    0.0000 C   0  0  3  0  0  0  0  0  0  0  0  0
    3.7320    0.7500    0.0000 C   0  0  3  0  0  0  0  0  0  0  0  0
    2.8660   -0.7500    0.0000 C   0  0  0  0  0  0  0  0  0  0  0  0
    4.5981   -0.7500    0.0000 C   0  0  0  0  0  0  0  0  0  0  0  0
    3.7320    1.7500    0.0000 C   0  0  0  0  0  0  0  0  0  0  0  0
    2.7320    0.7500    0.0000 C   0  0  0  0  0  0  0  0  0  0  0  0
    2.8660   -1.7500    0.0000 C   0  0  0  0  0  0  0  0  0  0  0  0
    4.5981   -1.7500    0.0000 C   0  0  0  0  0  0  0  0  0  0  0  0
    3.7320   -2.2500    0.0000 C   0  0  0  0  0  0  0  0  0  0  0  0
    3.7320   -3.2500    0.0000 C   0  0  0  0  0  0  0  0  0  0  0  0
    5.2320    1.6160    0.0000 C   0  0  0  0  0  0  0  0  0  0  0  0
    4.5981    3.2500    0.0000 C   0  0  0  0  0  0  0  0  0  0  0  0
    4.2690    0.0600    0.0000 H   0  0  0  0  0  0  0  0  0  0  0  0
    2.6540   -0.1674    0.0000 H   0  0  0  0  0  0  0  0  0  0  0  0
    2.2554   -0.8577    0.0000 H   0  0  0  0  0  0  0  0  0  0  0  0
    5.2087   -0.8577    0.0000 H   0  0  0  0  0  0  0  0  0  0  0  0
    4.8101   -0.1674    0.0000 H   0  0  0  0  0  0  0  0  0  0  0  0
    3.5200    2.3326    0.0000 H   0  0  0  0  0  0  0  0  0  0  0  0
    3.1215    1.6423    0.0000 H   0  0  0  0  0  0  0  0  0  0  0  0
    2.7320    1.3700    0.0000 H   0  0  0  0  0  0  0  0  0  0  0  0
    2.1120    0.7500    0.0000 H   0  0  0  0  0  0  0  0  0  0  0  0
    2.7320    0.1300    0.0000 H   0  0  0  0  0  0  0  0  0  0  0  0
    5.1350   -2.0600    0.0000 H   0  0  0  0  0  0  0  0  0  0  0  0
    3.1120   -3.2500    0.0000 H   0  0  0  0  0  0  0  0  0  0  0  0
    3.7320   -3.8700    0.0000 H   0  0  0  0  0  0  0  0  0  0  0  0
    4.3520   -3.2500    0.0000 H   0  0  0  0  0  0  0  0  0  0  0  0
    5.7690    1.3060    0.0000 H   0  0  0  0  0  0  0  0  0  0  0  0
    5.5420    2.1530    0.0000 H   0  0  0  0  0  0  0  0  0  0  0  0
    4.6951    1.9260    0.0000 H   0  0  0  0  0  0  0  0  0  0  0  0
    5.2181    3.2500    0.0000 H   0  0  0  0  0  0  0  0  0  0  0  0
    4.5981    3.8700    0.0000 H   0  0  0  0  0  0  0  0  0  0  0  0
    3.9781    3.2500    0.0000 H   0  0  0  0  0  0  0  0  0  0  0  0
  1  5  1  0  0  0  0
  1 14  1  0  0  0  0
  2  8  1  0  0  0  0
  2 15  1  0  0  0  0
  3 10  2  0  0  0  0
  4  5  1  0  0  0  0
  4  6  1  0  0  0  0
  4  7  1  0  0  0  0
  4 16  1  0  0  0  0
  5  8  1  0  0  0  0
  5  9  1  0  0  0  0
  6 10  1  0  0  0  0
  6 17  1  0  0  0  0
  6 18  1  0  0  0  0
  7 11  1  0  0  0  0
  7 19  1  0  0  0  0
  7 20  1  0  0  0  0
  8 21  1  0  0  0  0
  8 22  1  0  0  0  0
  9 23  1  0  0  0  0
  9 24  1  0  0  0  0
  9 25  1  0  0  0  0
 10 12  1  0  0  0  0
 11 12  2  0  0  0  0
 11 26  1  0  0  0  0
 12 13  1  0  0  0  0
 13 27  1  0  0  0  0
 13 28  1  0  0  0  0
 13 29  1  0  0  0  0
 14 30  1  0  0  0  0
 14 31  1  0  0  0  0
 14 32  1  0  0  0  0
 15 33  1  0  0  0  0
 15 34  1  0  0  0  0
 15 35  1  0  0  0  0
M  END
> <PUBCHEM_COMPOUND_CID>
524106
> <PUBCHEM_COMPOUND_CANONICALIZED>
1
> <PUBCHEM_CACTVS_COMPLEXITY>
273
> <PUBCHEM_CACTVS_HBOND_ACCEPTOR>
3
> <PUBCHEM_CACTVS_HBOND_DONOR>
0
> <PUBCHEM_CACTVS_ROTATABLE_BOND>
4
> <PUBCHEM_CACTVS_SUBSKEYS>
AAADceBwIABgAAAAAAAAAAAAAAAAAAAAAAAgAAAAAAAAAAAAAAAAGgQAAAAADQSEwACCAAAAAAiIAqBSAAAAAAAgABAACAEAAEgAABIgAQAAAAAAgAAIAYMIgEAOgAAAAAAAAAAAAAAAAAAAAAAAAAAAAA==
> <PUBCHEM_IUPAC_OPENEYE_NAME>
2-methyl-5-[1-methyl-1,2-bis(methylsulfanyl)ethyl]cyclohex-2-en-1-one
> <PUBCHEM_IUPAC_CAS_NAME>
5-[1,2-bis(methylthio)propan-2-yl]-2-methyl-1-cyclohex-2-enone
> <PUBCHEM_IUPAC_NAME_MARKUP>
5-[1,2-bis(methylsulfanyl)propan-2-yl]-2-methylcyclohex-2-en-1-one
> <PUBCHEM_IUPAC_NAME>
5-[1,2-bis(methylsulfanyl)propan-2-yl]-2-methylcyclohex-2-en-1-one
> <PUBCHEM_IUPAC_SYSTEMATIC_NAME>
5-[1,2-bis(methylsulfanyl)propan-2-yl]-2-methyl-cyclohex-2-en-1-one
> <PUBCHEM_IUPAC_TRADITIONAL_NAME>
2-methyl-5-[1-methyl-1,2-bis(methylthio)ethyl]cyclohex-2-en-1-one
> <PUBCHEM_IUPAC_INCHI>
InChI=1S/C12H20OS2/c1-9-5-6-10(7-11(9)13)12(2,15-4)8-14-3/h5,10H,6-8H2,1-4H3
> <PUBCHEM_IUPAC_INCHIKEY>
NIJLSQHJXDHVEC-UHFFFAOYSA-N
> <PUBCHEM_XLOGP3_AA>
2.7
> <PUBCHEM_EXACT_MASS>
244.09555760
> <PUBCHEM_MOLECULAR_FORMULA>
C12H20OS2
> <PUBCHEM_MOLECULAR_WEIGHT>
244.4
> <PUBCHEM_OPENEYE_CAN_SMILES>
CC1=CCC(CC1=O)C(C)(CSC)SC
> <PUBCHEM_OPENEYE_ISO_SMILES>
CC1=CCC(CC1=O)C(C)(CSC)SC
> <PUBCHEM_CACTVS_TPSA>
67.7
> <PUBCHEM_MONOISOTOPIC_WEIGHT>
244.09555760
> <PUBCHEM_TOTAL_CHARGE>
0
> <PUBCHEM_HEAVY_ATOM_COUNT>
15
> <PUBCHEM_ATOM_DEF_STEREO_COUNT>
0
> <PUBCHEM_ATOM_UDEF_STEREO_COUNT>
2
> <PUBCHEM_BOND_DEF_STEREO_COUNT>
0
> <PUBCHEM_BOND_UDEF_STEREO_COUNT>
0
> <PUBCHEM_ISOTOPIC_ATOM_COUNT>
0
> <PUBCHEM_COMPONENT_COUNT>
1
> <PUBCHEM_CACTVS_TAUTO_COUNT>
-1
> <PUBCHEM_COORDINATE_TYPE>
1
5
255
> <PUBCHEM_BONDANNOTATIONS>
4  7  3
5  9  3
$$$$
