524196
  -OEChem-10302200292D
 44 45  0     1  0  0  0  0  0999 V2000
    4.3695    2.4392    0.0000 C   0  0  0  0  0  0  0  0  0  0  0  0
    4.8473    0.4906    0.0000 C   0  0  3  0  0  0  0  0  0  0  0  0
    5.1061    1.4565    0.0000 C   0  0  3  0  0  0  0  0  0  0  0  0
    6.2463   -0.0182    0.0000 C   0  0  0  0  0  0  0  0  0  0  0  0
    6.5051    0.9477    0.0000 C   0  0  0  0  0  0  0  0  0  0  0  0
    3.6263   -0.3751    0.0000 C   0  0  0  0  0  0  0  0  0  0  0  0
    3.0729    1.1454    0.0000 C   0  0  0  0  0  0  0  0  0  0  0  0
    4.4740    3.4337    0.0000 C   0  0  0  0  0  0  0  0  0  0  0  0
    3.4560    2.8459    0.0000 C   0  0  0  0  0  0  0  0  0  0  0  0
    4.5885   -0.4753    0.0000 C   0  0  0  0  0  0  0  0  0  0  0  0
    2.7973    0.1841    0.0000 C   0  0  0  0  0  0  0  0  0  0  0  0
    3.6612   -1.3744    0.0000 C   0  0  0  0  0  0  0  0  0  0  0  0
    2.8131   -1.9044    0.0000 C   0  0  0  0  0  0  0  0  0  0  0  0
    2.8481   -2.9038    0.0000 C   0  0  0  0  0  0  0  0  0  0  0  0
    2.0000   -3.4337    0.0000 C   0  0  0  0  0  0  0  0  0  0  0  0
    3.7310   -3.3732    0.0000 C   0  0  0  0  0  0  0  0  0  0  0  0
    5.4755    1.9545    0.0000 H   0  0  0  0  0  0  0  0  0  0  0  0
    6.0513   -0.6068    0.0000 H   0  0  0  0  0  0  0  0  0  0  0  0
    6.8402   -0.1960    0.0000 H   0  0  0  0  0  0  0  0  0  0  0  0
    7.0990    0.7699    0.0000 H   0  0  0  0  0  0  0  0  0  0  0  0
    6.7000    1.5363    0.0000 H   0  0  0  0  0  0  0  0  0  0  0  0
    3.0678    1.7654    0.0000 H   0  0  0  0  0  0  0  0  0  0  0  0
    2.4586    1.2292    0.0000 H   0  0  0  0  0  0  0  0  0  0  0  0
    5.0907    3.3689    0.0000 H   0  0  0  0  0  0  0  0  0  0  0  0
    4.5389    4.0503    0.0000 H   0  0  0  0  0  0  0  0  0  0  0  0
    3.8574    3.4985    0.0000 H   0  0  0  0  0  0  0  0  0  0  0  0
    3.7082    3.4123    0.0000 H   0  0  0  0  0  0  0  0  0  0  0  0
    2.8896    3.0981    0.0000 H   0  0  0  0  0  0  0  0  0  0  0  0
    3.2038    2.2795    0.0000 H   0  0  0  0  0  0  0  0  0  0  0  0
    3.9896   -0.3148    0.0000 H   0  0  0  0  0  0  0  0  0  0  0  0
    4.4280   -1.0742    0.0000 H   0  0  0  0  0  0  0  0  0  0  0  0
    5.1874   -0.6358    0.0000 H   0  0  0  0  0  0  0  0  0  0  0  0
    2.2146   -0.0279    0.0000 H   0  0  0  0  0  0  0  0  0  0  0  0
    3.8934   -1.9493    0.0000 H   0  0  0  0  0  0  0  0  0  0  0  0
    4.2676   -1.2455    0.0000 H   0  0  0  0  0  0  0  0  0  0  0  0
    2.5809   -1.3295    0.0000 H   0  0  0  0  0  0  0  0  0  0  0  0
    2.2067   -2.0333    0.0000 H   0  0  0  0  0  0  0  0  0  0  0  0
    3.3738   -2.5752    0.0000 H   0  0  0  0  0  0  0  0  0  0  0  0
    1.6714   -2.9079    0.0000 H   0  0  0  0  0  0  0  0  0  0  0  0
    1.4742   -3.7622    0.0000 H   0  0  0  0  0  0  0  0  0  0  0  0
    2.3286   -3.9595    0.0000 H   0  0  0  0  0  0  0  0  0  0  0  0
    3.4399   -3.9206    0.0000 H   0  0  0  0  0  0  0  0  0  0  0  0
    4.2784   -3.6643    0.0000 H   0  0  0  0  0  0  0  0  0  0  0  0
    4.0221   -2.8258    0.0000 H   0  0  0  0  0  0  0  0  0  0  0  0
  1  2  1  0  0  0  0
  1  3  1  0  0  0  0
  1  8  1  0  0  0  0
  1  9  1  0  0  0  0
  2  4  1  0  0  0  0
  2  6  1  0  0  0  0
  2 10  1  0  0  0  0
  3  5  1  0  0  0  0
  3  7  1  0  0  0  0
  3 17  1  0  0  0  0
  4  5  1  0  0  0  0
  4 18  1  0  0  0  0
  4 19  1  0  0  0  0
  5 20  1  0  0  0  0
  5 21  1  0  0  0  0
  6 11  2  0  0  0  0
  6 12  1  0  0  0  0
  7 11  1  0  0  0  0
  7 22  1  0  0  0  0
  7 23  1  0  0  0  0
  8 24  1  0  0  0  0
  8 25  1  0  0  0  0
  8 26  1  0  0  0  0
  9 27  1  0  0  0  0
  9 28  1  0  0  0  0
  9 29  1  0  0  0  0
 10 30  1  0  0  0  0
 10 31  1  0  0  0  0
 10 32  1  0  0  0  0
 11 33  1  0  0  0  0
 12 13  1  0  0  0  0
 12 34  1  0  0  0  0
 12 35  1  0  0  0  0
 13 14  1  0  0  0  0
 13 36  1  0  0  0  0
 13 37  1  0  0  0  0
 14 15  1  0  0  0  0
 14 16  1  0  0  0  0
 14 38  1  0  0  0  0
 15 39  1  0  0  0  0
 15 40  1  0  0  0  0
 15 41  1  0  0  0  0
 16 42  1  0  0  0  0
 16 43  1  0  0  0  0
 16 44  1  0  0  0  0
M  END
> <PUBCHEM_COMPOUND_CID>
524196
> <PUBCHEM_COMPOUND_CANONICALIZED>
1
> <PUBCHEM_CACTVS_COMPLEXITY>
295
> <PUBCHEM_CACTVS_HBOND_ACCEPTOR>
0
> <PUBCHEM_CACTVS_HBOND_DONOR>
0
> <PUBCHEM_CACTVS_ROTATABLE_BOND>
3
> <PUBCHEM_CACTVS_SUBSKEYS>
AAADceB4AAAAAAAAAAAAAAAAAAAAAYAAAAAgAAAABAAAAAAAAAAAGAAAAAAADwCAAAACAAAAAACAAiBCAAAAAAAgAAAACAAAAAgAAAIAAQAAAAAAgAAIAAMAgMAPgAAAAAAAAAAAAAAAAAAAAQAACAAAAA==
> <PUBCHEM_IUPAC_OPENEYE_NAME>
2-isopentyl-1,8,8-trimethyl-bicyclo[3.2.1]oct-2-ene
> <PUBCHEM_IUPAC_CAS_NAME>
1,8,8-trimethyl-2-(3-methylbutyl)bicyclo[3.2.1]oct-2-ene
> <PUBCHEM_IUPAC_NAME_MARKUP>
1,8,8-trimethyl-2-(3-methylbutyl)bicyclo[3.2.1]oct-2-ene
> <PUBCHEM_IUPAC_NAME>
1,8,8-trimethyl-2-(3-methylbutyl)bicyclo[3.2.1]oct-2-ene
> <PUBCHEM_IUPAC_SYSTEMATIC_NAME>
1,8,8-trimethyl-2-(3-methylbutyl)bicyclo[3.2.1]oct-2-ene
> <PUBCHEM_IUPAC_TRADITIONAL_NAME>
2-isoamyl-1,8,8-trimethyl-bicyclo[3.2.1]oct-2-ene
> <PUBCHEM_IUPAC_INCHI>
InChI=1S/C16H28/c1-12(2)6-7-14-9-8-13-10-11-16(14,5)15(13,3)4/h9,12-13H,6-8,10-11H2,1-5H3
> <PUBCHEM_IUPAC_INCHIKEY>
BLLLUIMYYWMBGY-UHFFFAOYSA-N
> <PUBCHEM_XLOGP3_AA>
5.7
> <PUBCHEM_EXACT_MASS>
220.219100893
> <PUBCHEM_MOLECULAR_FORMULA>
C16H28
> <PUBCHEM_MOLECULAR_WEIGHT>
220.39
> <PUBCHEM_OPENEYE_CAN_SMILES>
CC(C)CCC1=CCC2CCC1(C2(C)C)C
> <PUBCHEM_OPENEYE_ISO_SMILES>
CC(C)CCC1=CCC2CCC1(C2(C)C)C
> <PUBCHEM_CACTVS_TPSA>
0
> <PUBCHEM_MONOISOTOPIC_WEIGHT>
220.219100893
> <PUBCHEM_TOTAL_CHARGE>
0
> <PUBCHEM_HEAVY_ATOM_COUNT>
16
> <PUBCHEM_ATOM_DEF_STEREO_COUNT>
0
> <PUBCHEM_ATOM_UDEF_STEREO_COUNT>
2
> <PUBCHEM_BOND_DEF_STEREO_COUNT>
0
> <PUBCHEM_BOND_UDEF_STEREO_COUNT>
0
> <PUBCHEM_ISOTOPIC_ATOM_COUNT>
0
> <PUBCHEM_COMPONENT_COUNT>
1
> <PUBCHEM_CACTVS_TAUTO_COUNT>
-1
> <PUBCHEM_COORDINATE_TYPE>
1
5
255
> <PUBCHEM_BONDANNOTATIONS>
2  10  3
3  5  3
$$$$
