524163
  -OEChem-10302200292D
 36 36  0     1  0  0  0  0  0999 V2000
    3.0000    2.2500    0.0000 C   0  0  0  0  0  0  0  0  0  0  0  0
    3.0000    1.2500    0.0000 C   0  0  0  0  0  0  0  0  0  0  0  0
    3.0000   -1.7500    0.0000 C   0  0  3  0  0  0  0  0  0  0  0  0
    3.0000   -0.7500    0.0000 C   0  0  0  0  0  0  0  0  0  0  0  0
    3.0000    3.2500    0.0000 C   0  0  0  0  0  0  0  0  0  0  0  0
    4.0000    2.2500    0.0000 C   0  0  0  0  0  0  0  0  0  0  0  0
    2.0000    2.2500    0.0000 C   0  0  0  0  0  0  0  0  0  0  0  0
    2.1340   -2.2500    0.0000 C   0  0  0  0  0  0  0  0  0  0  0  0
    3.8660    0.7500    0.0000 C   0  0  0  0  0  0  0  0  0  0  0  0
    2.1340    0.7500    0.0000 C   0  0  0  0  0  0  0  0  0  0  0  0
    3.8660   -0.2500    0.0000 C   0  0  0  0  0  0  0  0  0  0  0  0
    2.1340   -0.2500    0.0000 C   0  0  0  0  0  0  0  0  0  0  0  0
    3.8660   -2.2500    0.0000 C   0  0  0  0  0  0  0  0  0  0  0  0
    2.1340   -3.2500    0.0000 C   0  0  0  0  0  0  0  0  0  0  0  0
    3.0000   -2.3700    0.0000 H   0  0  0  0  0  0  0  0  0  0  0  0
    3.6200    3.2500    0.0000 H   0  0  0  0  0  0  0  0  0  0  0  0
    3.0000    3.8700    0.0000 H   0  0  0  0  0  0  0  0  0  0  0  0
    2.3800    3.2500    0.0000 H   0  0  0  0  0  0  0  0  0  0  0  0
    4.0000    1.6300    0.0000 H   0  0  0  0  0  0  0  0  0  0  0  0
    4.6200    2.2500    0.0000 H   0  0  0  0  0  0  0  0  0  0  0  0
    4.0000    2.8700    0.0000 H   0  0  0  0  0  0  0  0  0  0  0  0
    2.0000    2.8700    0.0000 H   0  0  0  0  0  0  0  0  0  0  0  0
    1.3800    2.2500    0.0000 H   0  0  0  0  0  0  0  0  0  0  0  0
    2.0000    1.6300    0.0000 H   0  0  0  0  0  0  0  0  0  0  0  0
    1.9219   -1.6674    0.0000 H   0  0  0  0  0  0  0  0  0  0  0  0
    1.5234   -2.3577    0.0000 H   0  0  0  0  0  0  0  0  0  0  0  0
    4.4030    1.0600    0.0000 H   0  0  0  0  0  0  0  0  0  0  0  0
    1.5970    1.0600    0.0000 H   0  0  0  0  0  0  0  0  0  0  0  0
    4.4030   -0.5600    0.0000 H   0  0  0  0  0  0  0  0  0  0  0  0
    1.5970   -0.5600    0.0000 H   0  0  0  0  0  0  0  0  0  0  0  0
    3.5560   -2.7869    0.0000 H   0  0  0  0  0  0  0  0  0  0  0  0
    4.4030   -2.5600    0.0000 H   0  0  0  0  0  0  0  0  0  0  0  0
    4.1760   -1.7131    0.0000 H   0  0  0  0  0  0  0  0  0  0  0  0
    1.5140   -3.2500    0.0000 H   0  0  0  0  0  0  0  0  0  0  0  0
    2.1340   -3.8700    0.0000 H   0  0  0  0  0  0  0  0  0  0  0  0
    2.7540   -3.2500    0.0000 H   0  0  0  0  0  0  0  0  0  0  0  0
  1  2  1  0  0  0  0
  1  5  1  0  0  0  0
  1  6  1  0  0  0  0
  1  7  1  0  0  0  0
  2  9  2  0  0  0  0
  2 10  1  0  0  0  0
  3  4  1  0  0  0  0
  3  8  1  0  0  0  0
  3 13  1  0  0  0  0
  3 15  1  0  0  0  0
  4 11  2  0  0  0  0
  4 12  1  0  0  0  0
  5 16  1  0  0  0  0
  5 17  1  0  0  0  0
  5 18  1  0  0  0  0
  6 19  1  0  0  0  0
  6 20  1  0  0  0  0
  6 21  1  0  0  0  0
  7 22  1  0  0  0  0
  7 23  1  0  0  0  0
  7 24  1  0  0  0  0
  8 14  1  0  0  0  0
  8 25  1  0  0  0  0
  8 26  1  0  0  0  0
  9 11  1  0  0  0  0
  9 27  1  0  0  0  0
 10 12  2  0  0  0  0
 10 28  1  0  0  0  0
 11 29  1  0  0  0  0
 12 30  1  0  0  0  0
 13 31  1  0  0  0  0
 13 32  1  0  0  0  0
 13 33  1  0  0  0  0
 14 34  1  0  0  0  0
 14 35  1  0  0  0  0
 14 36  1  0  0  0  0
M  END
> <PUBCHEM_COMPOUND_CID>
524163
> <PUBCHEM_COMPOUND_CANONICALIZED>
1
> <PUBCHEM_CACTVS_COMPLEXITY>
155
> <PUBCHEM_CACTVS_HBOND_ACCEPTOR>
0
> <PUBCHEM_CACTVS_HBOND_DONOR>
0
> <PUBCHEM_CACTVS_ROTATABLE_BOND>
3
> <PUBCHEM_CACTVS_SUBSKEYS>
AAADceBwAAAAAAAAAAAAAAAAAAAAAAAAAAAwAAAAAAAAAAABAAAAGAAAAAAADwCAGAAyAIAAAACAAiBCAAACAAAgAAAIiAAAAIgIICKAERCAIAAggAAIiAcAgMAPwAAAAAAAAACAAAAAAAAAAAAAAAAAAA==
> <PUBCHEM_IUPAC_OPENEYE_NAME>
1-tert-butyl-4-sec-butyl-benzene
> <PUBCHEM_IUPAC_CAS_NAME>
1-butan-2-yl-4-tert-butylbenzene
> <PUBCHEM_IUPAC_NAME_MARKUP>
1-butan-2-yl-4-<I>tert</I>-butylbenzene
> <PUBCHEM_IUPAC_NAME>
1-butan-2-yl-4-tert-butylbenzene
> <PUBCHEM_IUPAC_SYSTEMATIC_NAME>
1-butan-2-yl-4-tert-butyl-benzene
> <PUBCHEM_IUPAC_TRADITIONAL_NAME>
1-tert-butyl-4-sec-butyl-benzene
> <PUBCHEM_IUPAC_INCHI>
InChI=1S/C14H22/c1-6-11(2)12-7-9-13(10-8-12)14(3,4)5/h7-11H,6H2,1-5H3
> <PUBCHEM_IUPAC_INCHIKEY>
BQOBURPKVKFNKD-UHFFFAOYSA-N
> <PUBCHEM_XLOGP3_AA>
5.3
> <PUBCHEM_EXACT_MASS>
190.172150702
> <PUBCHEM_MOLECULAR_FORMULA>
C14H22
> <PUBCHEM_MOLECULAR_WEIGHT>
190.32
> <PUBCHEM_OPENEYE_CAN_SMILES>
CCC(C)C1=CC=C(C=C1)C(C)(C)C
> <PUBCHEM_OPENEYE_ISO_SMILES>
CCC(C)C1=CC=C(C=C1)C(C)(C)C
> <PUBCHEM_CACTVS_TPSA>
0
> <PUBCHEM_MONOISOTOPIC_WEIGHT>
190.172150702
> <PUBCHEM_TOTAL_CHARGE>
0
> <PUBCHEM_HEAVY_ATOM_COUNT>
14
> <PUBCHEM_ATOM_DEF_STEREO_COUNT>
0
> <PUBCHEM_ATOM_UDEF_STEREO_COUNT>
1
> <PUBCHEM_BOND_DEF_STEREO_COUNT>
0
> <PUBCHEM_BOND_UDEF_STEREO_COUNT>
0
> <PUBCHEM_ISOTOPIC_ATOM_COUNT>
0
> <PUBCHEM_COMPONENT_COUNT>
1
> <PUBCHEM_CACTVS_TAUTO_COUNT>
-1
> <PUBCHEM_COORDINATE_TYPE>
1
5
255
> <PUBCHEM_BONDANNOTATIONS>
10  12  8
2  10  8
2  9  8
3  13  3
4  11  8
4  12  8
9  11  8
$$$$
