524272
  -OEChem-10302200292D
 29 30  0     1  0  0  0  0  0999 V2000
    3.0654   -2.1574    0.0000 O   0  0  0  0  0  0  0  0  0  0  0  0
    3.7695    1.3648    0.0000 C   0  0  0  0  0  0  0  0  0  0  0  0
    4.2473   -0.5838    0.0000 C   0  0  3  0  0  0  0  0  0  0  0  0
    4.5061    0.3821    0.0000 C   0  0  3  0  0  0  0  0  0  0  0  0
    2.8746   -1.1758    0.0000 C   0  0  3  0  0  0  0  0  0  0  0  0
    2.5326   -0.2361    0.0000 C   0  0  0  0  0  0  0  0  0  0  0  0
    5.6463   -1.0926    0.0000 C   0  0  0  0  0  0  0  0  0  0  0  0
    5.9051   -0.1267    0.0000 C   0  0  0  0  0  0  0  0  0  0  0  0
    3.8741    2.3593    0.0000 C   0  0  0  0  0  0  0  0  0  0  0  0
    2.8560    1.7715    0.0000 C   0  0  0  0  0  0  0  0  0  0  0  0
    2.0000   -1.6606    0.0000 C   0  0  0  0  0  0  0  0  0  0  0  0
    4.2654   -1.2035    0.0000 H   0  0  0  0  0  0  0  0  0  0  0  0
    4.4921   -0.2377    0.0000 H   0  0  0  0  0  0  0  0  0  0  0  0
    2.3383    0.3527    0.0000 H   0  0  0  0  0  0  0  0  0  0  0  0
    1.9468   -0.4393    0.0000 H   0  0  0  0  0  0  0  0  0  0  0  0
    5.4513   -1.6812    0.0000 H   0  0  0  0  0  0  0  0  0  0  0  0
    6.2402   -1.2704    0.0000 H   0  0  0  0  0  0  0  0  0  0  0  0
    6.4991   -0.3044    0.0000 H   0  0  0  0  0  0  0  0  0  0  0  0
    6.1000    0.4619    0.0000 H   0  0  0  0  0  0  0  0  0  0  0  0
    4.4907    2.2945    0.0000 H   0  0  0  0  0  0  0  0  0  0  0  0
    3.9389    2.9759    0.0000 H   0  0  0  0  0  0  0  0  0  0  0  0
    3.2574    2.4241    0.0000 H   0  0  0  0  0  0  0  0  0  0  0  0
    3.1082    2.3379    0.0000 H   0  0  0  0  0  0  0  0  0  0  0  0
    2.2896    2.0237    0.0000 H   0  0  0  0  0  0  0  0  0  0  0  0
    2.6038    1.2051    0.0000 H   0  0  0  0  0  0  0  0  0  0  0  0
    1.6994   -1.1184    0.0000 H   0  0  0  0  0  0  0  0  0  0  0  0
    1.4577   -1.9612    0.0000 H   0  0  0  0  0  0  0  0  0  0  0  0
    2.3006   -2.2029    0.0000 H   0  0  0  0  0  0  0  0  0  0  0  0
    3.6516   -2.3593    0.0000 H   0  0  0  0  0  0  0  0  0  0  0  0
  1  5  1  0  0  0  0
  1 29  1  0  0  0  0
  2  3  1  0  0  0  0
  2  4  1  0  0  0  0
  2  9  1  0  0  0  0
  2 10  1  0  0  0  0
  3  5  1  0  0  0  0
  3  7  1  0  0  0  0
  3 12  1  0  0  0  0
  4  6  1  0  0  0  0
  4  8  1  0  0  0  0
  4 13  1  0  0  0  0
  5  6  1  0  0  0  0
  5 11  1  0  0  0  0
  6 14  1  0  0  0  0
  6 15  1  0  0  0  0
  7  8  1  0  0  0  0
  7 16  1  0  0  0  0
  7 17  1  0  0  0  0
  8 18  1  0  0  0  0
  8 19  1  0  0  0  0
  9 20  1  0  0  0  0
  9 21  1  0  0  0  0
  9 22  1  0  0  0  0
 10 23  1  0  0  0  0
 10 24  1  0  0  0  0
 10 25  1  0  0  0  0
 11 26  1  0  0  0  0
 11 27  1  0  0  0  0
 11 28  1  0  0  0  0
M  END
> <PUBCHEM_COMPOUND_CID>
524272
> <PUBCHEM_COMPOUND_CANONICALIZED>
1
> <PUBCHEM_CACTVS_COMPLEXITY>
185
> <PUBCHEM_CACTVS_HBOND_ACCEPTOR>
1
> <PUBCHEM_CACTVS_HBOND_DONOR>
1
> <PUBCHEM_CACTVS_ROTATABLE_BOND>
0
> <PUBCHEM_CACTVS_SUBSKEYS>
AAADceBwIAAAAAAAAAAAAAAAAAAAAYMAAAAwAAAAAAAAAAAAAAAAGgAACAAAD0SAgAACAAAAAgAAAAAAAAAAAAAAAAAAAAAAAAAAAAIAAAAAQAAEAAAAAAGAwPAPgAAAAAAAAAAAAAYAADAAAYAADAAAAA==
> <PUBCHEM_IUPAC_OPENEYE_NAME>
2,7,7-trimethylnorbornan-2-ol
> <PUBCHEM_IUPAC_CAS_NAME>
2,7,7-trimethyl-2-bicyclo[2.2.1]heptanol
> <PUBCHEM_IUPAC_NAME_MARKUP>
2,7,7-trimethylbicyclo[2.2.1]heptan-2-ol
> <PUBCHEM_IUPAC_NAME>
2,7,7-trimethylbicyclo[2.2.1]heptan-2-ol
> <PUBCHEM_IUPAC_SYSTEMATIC_NAME>
2,7,7-trimethylbicyclo[2.2.1]heptan-2-ol
> <PUBCHEM_IUPAC_TRADITIONAL_NAME>
2,7,7-trimethylnorbornan-2-ol
> <PUBCHEM_IUPAC_INCHI>
InChI=1S/C10H18O/c1-9(2)7-4-5-8(9)10(3,11)6-7/h7-8,11H,4-6H2,1-3H3
> <PUBCHEM_IUPAC_INCHIKEY>
YXIIIGJOEDNXOJ-UHFFFAOYSA-N
> <PUBCHEM_XLOGP3_AA>
2.3
> <PUBCHEM_EXACT_MASS>
154.135765193
> <PUBCHEM_MOLECULAR_FORMULA>
C10H18O
> <PUBCHEM_MOLECULAR_WEIGHT>
154.25
> <PUBCHEM_OPENEYE_CAN_SMILES>
CC1(C2CCC1C(C2)(C)O)C
> <PUBCHEM_OPENEYE_ISO_SMILES>
CC1(C2CCC1C(C2)(C)O)C
> <PUBCHEM_CACTVS_TPSA>
20.2
> <PUBCHEM_MONOISOTOPIC_WEIGHT>
154.135765193
> <PUBCHEM_TOTAL_CHARGE>
0
> <PUBCHEM_HEAVY_ATOM_COUNT>
11
> <PUBCHEM_ATOM_DEF_STEREO_COUNT>
0
> <PUBCHEM_ATOM_UDEF_STEREO_COUNT>
3
> <PUBCHEM_BOND_DEF_STEREO_COUNT>
0
> <PUBCHEM_BOND_UDEF_STEREO_COUNT>
0
> <PUBCHEM_ISOTOPIC_ATOM_COUNT>
0
> <PUBCHEM_COMPONENT_COUNT>
1
> <PUBCHEM_CACTVS_TAUTO_COUNT>
-1
> <PUBCHEM_COORDINATE_TYPE>
1
5
255
> <PUBCHEM_BONDANNOTATIONS>
5  1  3
3  7  3
4  8  3
$$$$
