524213
  -OEChem-10302200292D
 18 19  0     1  0  0  0  0  0999 V2000
    3.7953   -0.2251    0.0000 C   0  0  3  0  0  0  0  0  0  0  0  0
    4.0541    0.7408    0.0000 C   0  0  3  0  0  0  0  0  0  0  0  0
    3.3175    1.7234    0.0000 C   0  0  0  0  0  0  0  0  0  0  0  0
    2.4226   -0.8171    0.0000 C   0  0  0  0  0  0  0  0  0  0  0  0
    2.0806    0.1226    0.0000 C   0  0  0  0  0  0  0  0  0  0  0  0
    5.1943   -0.7339    0.0000 C   0  0  0  0  0  0  0  0  0  0  0  0
    5.4531    0.2320    0.0000 C   0  0  0  0  0  0  0  0  0  0  0  0
    2.0000   -1.7234    0.0000 C   0  0  0  0  0  0  0  0  0  0  0  0
    3.8134   -0.8448    0.0000 H   0  0  0  0  0  0  0  0  0  0  0  0
    4.0401    0.1210    0.0000 H   0  0  0  0  0  0  0  0  0  0  0  0
    3.6353    2.2558    0.0000 H   0  0  0  0  0  0  0  0  0  0  0  0
    2.7044    1.8154    0.0000 H   0  0  0  0  0  0  0  0  0  0  0  0
    1.5248    0.3973    0.0000 H   0  0  0  0  0  0  0  0  0  0  0  0
    5.4806   -1.2838    0.0000 H   0  0  0  0  0  0  0  0  0  0  0  0
    6.0030    0.5183    0.0000 H   0  0  0  0  0  0  0  0  0  0  0  0
    1.4381   -1.4614    0.0000 H   0  0  0  0  0  0  0  0  0  0  0  0
    1.7380   -2.2853    0.0000 H   0  0  0  0  0  0  0  0  0  0  0  0
    2.5619   -1.9855    0.0000 H   0  0  0  0  0  0  0  0  0  0  0  0
  1  3  1  0  0  0  0
  1  4  1  0  0  0  0
  1  6  1  0  0  0  0
  1  9  1  0  0  0  0
  2  3  1  0  0  0  0
  2  5  1  0  0  0  0
  2  7  1  0  0  0  0
  2 10  1  0  0  0  0
  3 11  1  0  0  0  0
  3 12  1  0  0  0  0
  4  5  2  0  0  0  0
  4  8  1  0  0  0  0
  5 13  1  0  0  0  0
  6  7  2  0  0  0  0
  6 14  1  0  0  0  0
  7 15  1  0  0  0  0
  8 16  1  0  0  0  0
  8 17  1  0  0  0  0
  8 18  1  0  0  0  0
M  END
> <PUBCHEM_COMPOUND_CID>
524213
> <PUBCHEM_COMPOUND_CANONICALIZED>
1
> <PUBCHEM_CACTVS_COMPLEXITY>
163
> <PUBCHEM_CACTVS_HBOND_ACCEPTOR>
0
> <PUBCHEM_CACTVS_HBOND_DONOR>
0
> <PUBCHEM_CACTVS_ROTATABLE_BOND>
0
> <PUBCHEM_CACTVS_SUBSKEYS>
AAADccBwAAAAAAAAAAAAAAAAAAAAAQIAAAAgAAAAAAAAAAAAAAAAGAAAAAAADQCAAAACAAAAAACAAiBCAAAAAAAgAAAICAAAAAgAAAIAAQAAAAAAgAAIAAMAAAAOAAAAAAAAAAAAAAAAAAAAAAAAAAAAAA==
> <PUBCHEM_IUPAC_OPENEYE_NAME>
2-methylbicyclo[2.2.1]hepta-2,5-diene
> <PUBCHEM_IUPAC_CAS_NAME>
2-methylbicyclo[2.2.1]hepta-2,5-diene
> <PUBCHEM_IUPAC_NAME_MARKUP>
2-methylbicyclo[2.2.1]hepta-2,5-diene
> <PUBCHEM_IUPAC_NAME>
2-methylbicyclo[2.2.1]hepta-2,5-diene
> <PUBCHEM_IUPAC_SYSTEMATIC_NAME>
2-methylbicyclo[2.2.1]hepta-2,5-diene
> <PUBCHEM_IUPAC_TRADITIONAL_NAME>
2-methylbicyclo[2.2.1]hepta-2,5-diene
> <PUBCHEM_IUPAC_INCHI>
InChI=1S/C8H10/c1-6-4-7-2-3-8(6)5-7/h2-4,7-8H,5H2,1H3
> <PUBCHEM_IUPAC_INCHIKEY>
OGJJVYFQXFXJKU-UHFFFAOYSA-N
> <PUBCHEM_XLOGP3_AA>
2
> <PUBCHEM_EXACT_MASS>
106.078250319
> <PUBCHEM_MOLECULAR_FORMULA>
C8H10
> <PUBCHEM_MOLECULAR_WEIGHT>
106.16
> <PUBCHEM_OPENEYE_CAN_SMILES>
CC1=CC2CC1C=C2
> <PUBCHEM_OPENEYE_ISO_SMILES>
CC1=CC2CC1C=C2
> <PUBCHEM_CACTVS_TPSA>
0
> <PUBCHEM_MONOISOTOPIC_WEIGHT>
106.078250319
> <PUBCHEM_TOTAL_CHARGE>
0
> <PUBCHEM_HEAVY_ATOM_COUNT>
8
> <PUBCHEM_ATOM_DEF_STEREO_COUNT>
0
> <PUBCHEM_ATOM_UDEF_STEREO_COUNT>
2
> <PUBCHEM_BOND_DEF_STEREO_COUNT>
0
> <PUBCHEM_BOND_UDEF_STEREO_COUNT>
0
> <PUBCHEM_ISOTOPIC_ATOM_COUNT>
0
> <PUBCHEM_COMPONENT_COUNT>
1
> <PUBCHEM_CACTVS_TAUTO_COUNT>
-1
> <PUBCHEM_COORDINATE_TYPE>
1
5
255
> <PUBCHEM_BONDANNOTATIONS>
1  3  3
2  3  3
$$$$
