524206
  -OEChem-10302200292D
 25 27  0     1  0  0  0  0  0999 V2000
    3.2666   -0.2086    0.0000 C   0  0  3  0  0  0  0  0  0  0  0  0
    3.6086   -1.1483    0.0000 C   0  0  3  0  0  0  0  0  0  0  0  0
    5.2401    0.4096    0.0000 C   0  0  3  0  0  0  0  0  0  0  0  0
    4.9813   -0.5563    0.0000 C   0  0  3  0  0  0  0  0  0  0  0  0
    4.8695    1.7583    0.0000 C   0  0  0  0  0  0  0  0  0  0  0  0
    4.0035    1.2583    0.0000 C   0  0  0  0  0  0  0  0  0  0  0  0
    2.2732   -0.2459    0.0000 C   0  0  0  0  0  0  0  0  0  0  0  0
    6.6390   -0.0992    0.0000 C   0  0  0  0  0  0  0  0  0  0  0  0
    6.3802   -1.0651    0.0000 C   0  0  0  0  0  0  0  0  0  0  0  0
    2.8237   -1.7583    0.0000 C   0  0  0  0  0  0  0  0  0  0  0  0
    2.0000   -1.2017    0.0000 C   0  0  0  0  0  0  0  0  0  0  0  0
    3.1613    0.4024    0.0000 H   0  0  0  0  0  0  0  0  0  0  0  0
    3.9241   -1.6820    0.0000 H   0  0  0  0  0  0  0  0  0  0  0  0
    5.6958    0.8300    0.0000 H   0  0  0  0  0  0  0  0  0  0  0  0
    5.3867   -0.0872    0.0000 H   0  0  0  0  0  0  0  0  0  0  0  0
    5.4512    1.9728    0.0000 H   0  0  0  0  0  0  0  0  0  0  0  0
    4.6063    2.3196    0.0000 H   0  0  0  0  0  0  0  0  0  0  0  0
    3.6988    1.7982    0.0000 H   0  0  0  0  0  0  0  0  0  0  0  0
    3.4606    0.9588    0.0000 H   0  0  0  0  0  0  0  0  0  0  0  0
    2.3152    0.3727    0.0000 H   0  0  0  0  0  0  0  0  0  0  0  0
    1.6624   -0.1391    0.0000 H   0  0  0  0  0  0  0  0  0  0  0  0
    7.1890    0.1872    0.0000 H   0  0  0  0  0  0  0  0  0  0  0  0
    6.6666   -1.6150    0.0000 H   0  0  0  0  0  0  0  0  0  0  0  0
    2.8442   -2.3779    0.0000 H   0  0  0  0  0  0  0  0  0  0  0  0
    1.4174   -1.4137    0.0000 H   0  0  0  0  0  0  0  0  0  0  0  0
  1  2  1  0  0  0  0
  1  3  1  0  0  0  0
  1  7  1  0  0  0  0
  1 12  1  0  0  0  0
  2  4  1  0  0  0  0
  2 10  1  0  0  0  0
  2 13  1  0  0  0  0
  3  5  1  0  0  0  0
  3  8  1  0  0  0  0
  3 14  1  0  0  0  0
  4  6  1  0  0  0  0
  4  9  1  0  0  0  0
  4 15  1  0  0  0  0
  5  6  1  0  0  0  0
  5 16  1  0  0  0  0
  5 17  1  0  0  0  0
  6 18  1  0  0  0  0
  6 19  1  0  0  0  0
  7 11  1  0  0  0  0
  7 20  1  0  0  0  0
  7 21  1  0  0  0  0
  8  9  2  0  0  0  0
  8 22  1  0  0  0  0
  9 23  1  0  0  0  0
 10 11  2  0  0  0  0
 10 24  1  0  0  0  0
 11 25  1  0  0  0  0
M  END
> <PUBCHEM_COMPOUND_CID>
524206
> <PUBCHEM_COMPOUND_CANONICALIZED>
1
> <PUBCHEM_CACTVS_COMPLEXITY>
224
> <PUBCHEM_CACTVS_HBOND_ACCEPTOR>
0
> <PUBCHEM_CACTVS_HBOND_DONOR>
0
> <PUBCHEM_CACTVS_ROTATABLE_BOND>
0
> <PUBCHEM_CACTVS_SUBSKEYS>
AAADccBwAAAAAAAAAAAAAAAAAAAAAQAAAAAwQIAAAAAAAEAAAAAAGAAAAAAADQCAAAAAAAAAAACAACBCAAAAAAAgAAAICAAAAAgAAAIAAQAAAAAAgAAIAAMAgMAOgAAAAAAAAACAAAQAACAAAAAAAAAAAA==
> <PUBCHEM_IUPAC_OPENEYE_NAME>
tricyclo[5.2.2.02,6]undeca-3,8-diene
> <PUBCHEM_IUPAC_CAS_NAME>
tricyclo[5.2.2.02,6]undeca-3,8-diene
> <PUBCHEM_IUPAC_NAME_MARKUP>
tricyclo[5.2.2.0<SUP>2,6</SUP>]undeca-3,8-diene
> <PUBCHEM_IUPAC_NAME>
tricyclo[5.2.2.02,6]undeca-3,8-diene
> <PUBCHEM_IUPAC_SYSTEMATIC_NAME>
tricyclo[5.2.2.02,6]undeca-3,8-diene
> <PUBCHEM_IUPAC_TRADITIONAL_NAME>
tricyclo[5.2.2.02,6]undeca-3,8-diene
> <PUBCHEM_IUPAC_INCHI>
InChI=1S/C11H14/c1-2-10-8-4-6-9(7-5-8)11(10)3-1/h1-2,4,6,8-11H,3,5,7H2
> <PUBCHEM_IUPAC_INCHIKEY>
MOKDIRQGOJTXJX-UHFFFAOYSA-N
> <PUBCHEM_XLOGP3_AA>
3
> <PUBCHEM_EXACT_MASS>
146.109550447
> <PUBCHEM_MOLECULAR_FORMULA>
C11H14
> <PUBCHEM_MOLECULAR_WEIGHT>
146.23
> <PUBCHEM_OPENEYE_CAN_SMILES>
C1CC2C=CC1C3C2C=CC3
> <PUBCHEM_OPENEYE_ISO_SMILES>
C1CC2C=CC1C3C2C=CC3
> <PUBCHEM_CACTVS_TPSA>
0
> <PUBCHEM_MONOISOTOPIC_WEIGHT>
146.109550447
> <PUBCHEM_TOTAL_CHARGE>
0
> <PUBCHEM_HEAVY_ATOM_COUNT>
11
> <PUBCHEM_ATOM_DEF_STEREO_COUNT>
0
> <PUBCHEM_ATOM_UDEF_STEREO_COUNT>
4
> <PUBCHEM_BOND_DEF_STEREO_COUNT>
0
> <PUBCHEM_BOND_UDEF_STEREO_COUNT>
0
> <PUBCHEM_ISOTOPIC_ATOM_COUNT>
0
> <PUBCHEM_COMPONENT_COUNT>
1
> <PUBCHEM_CACTVS_TAUTO_COUNT>
-1
> <PUBCHEM_COORDINATE_TYPE>
1
5
255
> <PUBCHEM_BONDANNOTATIONS>
1  7  3
2  10  3
3  5  3
4  6  3
$$$$
