524270
  -OEChem-10302200292D
 20 20  0     1  0  0  0  0  0999 V2000
    2.8090   -0.2020    0.0000 O   0  0  0  0  0  0  0  0  0  0  0  0
    4.2058   -0.4233    0.0000 O   0  0  0  0  0  0  0  0  0  0  0  0
    3.6180    0.3858    0.0000 C   0  0  3  0  0  0  0  0  0  0  0  0
    3.3090    1.3368    0.0000 C   0  0  0  0  0  0  0  0  0  0  0  0
    2.3090    1.3368    0.0000 C   0  0  0  0  0  0  0  0  0  0  0  0
    2.0000    0.3858    0.0000 C   0  0  0  0  0  0  0  0  0  0  0  0
    4.5691    0.6948    0.0000 C   0  0  0  0  0  0  0  0  0  0  0  0
    3.7991   -1.3368    0.0000 C   0  0  0  0  0  0  0  0  0  0  0  0
    3.9155    1.4657    0.0000 H   0  0  0  0  0  0  0  0  0  0  0  0
    3.2442    1.9534    0.0000 H   0  0  0  0  0  0  0  0  0  0  0  0
    2.3738    1.9534    0.0000 H   0  0  0  0  0  0  0  0  0  0  0  0
    1.7026    1.4657    0.0000 H   0  0  0  0  0  0  0  0  0  0  0  0
    1.4336    0.6379    0.0000 H   0  0  0  0  0  0  0  0  0  0  0  0
    1.6900   -0.1512    0.0000 H   0  0  0  0  0  0  0  0  0  0  0  0
    4.7607    0.1051    0.0000 H   0  0  0  0  0  0  0  0  0  0  0  0
    5.1588    0.8864    0.0000 H   0  0  0  0  0  0  0  0  0  0  0  0
    4.3775    1.2844    0.0000 H   0  0  0  0  0  0  0  0  0  0  0  0
    3.2327   -1.0846    0.0000 H   0  0  0  0  0  0  0  0  0  0  0  0
    3.5469   -1.9032    0.0000 H   0  0  0  0  0  0  0  0  0  0  0  0
    4.3655   -1.5890    0.0000 H   0  0  0  0  0  0  0  0  0  0  0  0
  1  3  1  0  0  0  0
  1  6  1  0  0  0  0
  2  3  1  0  0  0  0
  2  8  1  0  0  0  0
  3  4  1  0  0  0  0
  3  7  1  0  0  0  0
  4  5  1  0  0  0  0
  4  9  1  0  0  0  0
  4 10  1  0  0  0  0
  5  6  1  0  0  0  0
  5 11  1  0  0  0  0
  5 12  1  0  0  0  0
  6 13  1  0  0  0  0
  6 14  1  0  0  0  0
  7 15  1  0  0  0  0
  7 16  1  0  0  0  0
  7 17  1  0  0  0  0
  8 18  1  0  0  0  0
  8 19  1  0  0  0  0
  8 20  1  0  0  0  0
M  END
> <PUBCHEM_COMPOUND_CID>
524270
> <PUBCHEM_COMPOUND_CANONICALIZED>
1
> <PUBCHEM_CACTVS_COMPLEXITY>
82.6
> <PUBCHEM_CACTVS_HBOND_ACCEPTOR>
2
> <PUBCHEM_CACTVS_HBOND_DONOR>
0
> <PUBCHEM_CACTVS_ROTATABLE_BOND>
1
> <PUBCHEM_CACTVS_SUBSKEYS>
AAADccBgMAAAAAAAAAAAAAAAAAAAASAAAAAAAAAAAAAAAAAAAAAAGgAAAAAACASggAICCAAABAAAAAAAAAAAAAAAAAAAAAAAAAAQAAIAAAAiAAAEAAAEAADAAAAAAAAAAAAAAAAAAAAAAAAAAAAAAAAAAA==
> <PUBCHEM_IUPAC_OPENEYE_NAME>
2-methoxy-2-methyl-tetrahydrofuran
> <PUBCHEM_IUPAC_CAS_NAME>
2-methoxy-2-methyloxolane
> <PUBCHEM_IUPAC_NAME_MARKUP>
2-methoxy-2-methyloxolane
> <PUBCHEM_IUPAC_NAME>
2-methoxy-2-methyloxolane
> <PUBCHEM_IUPAC_SYSTEMATIC_NAME>
2-methoxy-2-methyl-oxolane
> <PUBCHEM_IUPAC_TRADITIONAL_NAME>
2-methoxy-2-methyl-tetrahydrofuran
> <PUBCHEM_IUPAC_INCHI>
InChI=1S/C6H12O2/c1-6(7-2)4-3-5-8-6/h3-5H2,1-2H3
> <PUBCHEM_IUPAC_INCHIKEY>
PZGCEXNABJBCDY-UHFFFAOYSA-N
> <PUBCHEM_XLOGP3_AA>
0.8
> <PUBCHEM_EXACT_MASS>
116.083729621
> <PUBCHEM_MOLECULAR_FORMULA>
C6H12O2
> <PUBCHEM_MOLECULAR_WEIGHT>
116.16
> <PUBCHEM_OPENEYE_CAN_SMILES>
CC1(CCCO1)OC
> <PUBCHEM_OPENEYE_ISO_SMILES>
CC1(CCCO1)OC
> <PUBCHEM_CACTVS_TPSA>
18.5
> <PUBCHEM_MONOISOTOPIC_WEIGHT>
116.083729621
> <PUBCHEM_TOTAL_CHARGE>
0
> <PUBCHEM_HEAVY_ATOM_COUNT>
8
> <PUBCHEM_ATOM_DEF_STEREO_COUNT>
0
> <PUBCHEM_ATOM_UDEF_STEREO_COUNT>
1
> <PUBCHEM_BOND_DEF_STEREO_COUNT>
0
> <PUBCHEM_BOND_UDEF_STEREO_COUNT>
0
> <PUBCHEM_ISOTOPIC_ATOM_COUNT>
0
> <PUBCHEM_COMPONENT_COUNT>
1
> <PUBCHEM_CACTVS_TAUTO_COUNT>
-1
> <PUBCHEM_COORDINATE_TYPE>
1
5
255
> <PUBCHEM_BONDANNOTATIONS>
3  7  3
$$$$
