524265
  -OEChem-10302200292D
 33 35  0     1  0  0  0  0  0999 V2000
    3.6730    1.5251    0.0000 O   0  0  0  0  0  0  0  0  0  0  0  0
    3.6730    0.5251    0.0000 C   0  0  0  0  0  0  0  0  0  0  0  0
    4.5092    0.0423    0.0000 C   0  0  0  0  0  0  0  0  0  0  0  0
    4.5092   -0.9232    0.0000 C   0  0  0  0  0  0  0  0  0  0  0  0
    2.8368   -0.9232    0.0000 C   0  0  3  0  0  0  0  0  0  0  0  0
    2.9819   -1.3583    0.0000 C   0  0  3  0  0  0  0  0  0  0  0  0
    2.8368    0.0423    0.0000 C   0  0  0  0  0  0  0  0  0  0  0  0
    2.9819   -0.3130    0.0000 C   0  0  0  0  0  0  0  0  0  0  0  0
    3.6730   -1.2260    0.0000 C   0  0  0  0  0  0  0  0  0  0  0  0
    3.8876   -1.8351    0.0000 C   0  0  0  0  0  0  0  0  0  0  0  0
    2.0000   -1.4060    0.0000 C   0  0  0  0  0  0  0  0  0  0  0  0
    5.4751    0.3012    0.0000 C   0  0  0  0  0  0  0  0  0  0  0  0
    4.7680    1.0083    0.0000 C   0  0  0  0  0  0  0  0  0  0  0  0
    5.1016   -1.1059    0.0000 H   0  0  0  0  0  0  0  0  0  0  0  0
    3.3444   -0.5672    0.0000 H   0  0  0  0  0  0  0  0  0  0  0  0
    2.8478   -1.9636    0.0000 H   0  0  0  0  0  0  0  0  0  0  0  0
    2.6247    0.6249    0.0000 H   0  0  0  0  0  0  0  0  0  0  0  0
    2.2262   -0.0653    0.0000 H   0  0  0  0  0  0  0  0  0  0  0  0
    2.6383    0.2030    0.0000 H   0  0  0  0  0  0  0  0  0  0  0  0
    2.3885   -0.4925    0.0000 H   0  0  0  0  0  0  0  0  0  0  0  0
    3.3030   -1.7235    0.0000 H   0  0  0  0  0  0  0  0  0  0  0  0
    4.0430   -1.7235    0.0000 H   0  0  0  0  0  0  0  0  0  0  0  0
    3.5782   -2.3724    0.0000 H   0  0  0  0  0  0  0  0  0  0  0  0
    4.4127   -2.1647    0.0000 H   0  0  0  0  0  0  0  0  0  0  0  0
    1.5188   -1.0151    0.0000 H   0  0  0  0  0  0  0  0  0  0  0  0
    1.8068   -1.9951    0.0000 H   0  0  0  0  0  0  0  0  0  0  0  0
    5.6356   -0.2977    0.0000 H   0  0  0  0  0  0  0  0  0  0  0  0
    6.0740    0.4616    0.0000 H   0  0  0  0  0  0  0  0  0  0  0  0
    5.3146    0.9000    0.0000 H   0  0  0  0  0  0  0  0  0  0  0  0
    5.3669    0.8478    0.0000 H   0  0  0  0  0  0  0  0  0  0  0  0
    4.9285    1.6071    0.0000 H   0  0  0  0  0  0  0  0  0  0  0  0
    4.1691    1.1687    0.0000 H   0  0  0  0  0  0  0  0  0  0  0  0
    3.1361    1.8351    0.0000 H   0  0  0  0  0  0  0  0  0  0  0  0
  1  2  1  0  0  0  0
  1 33  1  0  0  0  0
  2  3  1  0  0  0  0
  2  7  1  0  0  0  0
  2  8  1  0  0  0  0
  3  4  1  0  0  0  0
  3 12  1  0  0  0  0
  3 13  1  0  0  0  0
  4  9  1  0  0  0  0
  4 10  1  0  0  0  0
  4 14  1  0  0  0  0
  5  7  1  0  0  0  0
  5  9  1  0  0  0  0
  5 11  1  0  0  0  0
  5 15  1  0  0  0  0
  6  8  1  0  0  0  0
  6 10  1  0  0  0  0
  6 11  1  0  0  0  0
  6 16  1  0  0  0  0
  7 17  1  0  0  0  0
  7 18  1  0  0  0  0
  8 19  1  0  0  0  0
  8 20  1  0  0  0  0
  9 21  1  0  0  0  0
  9 22  1  0  0  0  0
 10 23  1  0  0  0  0
 10 24  1  0  0  0  0
 11 25  1  0  0  0  0
 11 26  1  0  0  0  0
 12 27  1  0  0  0  0
 12 28  1  0  0  0  0
 12 29  1  0  0  0  0
 13 30  1  0  0  0  0
 13 31  1  0  0  0  0
 13 32  1  0  0  0  0
M  END
> <PUBCHEM_COMPOUND_CID>
524265
> <PUBCHEM_COMPOUND_CANONICALIZED>
1
> <PUBCHEM_CACTVS_COMPLEXITY>
230
> <PUBCHEM_CACTVS_HBOND_ACCEPTOR>
1
> <PUBCHEM_CACTVS_HBOND_DONOR>
1
> <PUBCHEM_CACTVS_ROTATABLE_BOND>
0
> <PUBCHEM_CACTVS_SUBSKEYS>
AAADceBwIAAAAAAAAAAAAAAAAAAAAAAAAAAwYMGAAAAAAAAAAAAAGgAACAAAD0SAgAACAAAAAgAAAAAAAAAAAAAAAAAAAAAAAAAAAAIAAAAAQAAEAAAAAAGAwPAPgAAAAAAAAACAAAYAADAAAAAAAAAAAA==
> <PUBCHEM_IUPAC_OPENEYE_NAME>
2,2-dimethyladamantan-1-ol
> <PUBCHEM_IUPAC_CAS_NAME>
2,2-dimethyl-1-adamantanol
> <PUBCHEM_IUPAC_NAME_MARKUP>
2,2-dimethyladamantan-1-ol
> <PUBCHEM_IUPAC_NAME>
2,2-dimethyladamantan-1-ol
> <PUBCHEM_IUPAC_SYSTEMATIC_NAME>
2,2-dimethyladamantan-1-ol
> <PUBCHEM_IUPAC_TRADITIONAL_NAME>
2,2-dimethyladamantan-1-ol
> <PUBCHEM_IUPAC_INCHI>
InChI=1S/C12H20O/c1-11(2)10-4-8-3-9(5-10)7-12(11,13)6-8/h8-10,13H,3-7H2,1-2H3
> <PUBCHEM_IUPAC_INCHIKEY>
UPEAISCZLTUNGL-UHFFFAOYSA-N
> <PUBCHEM_XLOGP3_AA>
3
> <PUBCHEM_EXACT_MASS>
180.151415257
> <PUBCHEM_MOLECULAR_FORMULA>
C12H20O
> <PUBCHEM_MOLECULAR_WEIGHT>
180.29
> <PUBCHEM_OPENEYE_CAN_SMILES>
CC1(C2CC3CC(C2)CC1(C3)O)C
> <PUBCHEM_OPENEYE_ISO_SMILES>
CC1(C2CC3CC(C2)CC1(C3)O)C
> <PUBCHEM_CACTVS_TPSA>
20.2
> <PUBCHEM_MONOISOTOPIC_WEIGHT>
180.151415257
> <PUBCHEM_TOTAL_CHARGE>
0
> <PUBCHEM_HEAVY_ATOM_COUNT>
13
> <PUBCHEM_ATOM_DEF_STEREO_COUNT>
0
> <PUBCHEM_ATOM_UDEF_STEREO_COUNT>
2
> <PUBCHEM_BOND_DEF_STEREO_COUNT>
0
> <PUBCHEM_BOND_UDEF_STEREO_COUNT>
0
> <PUBCHEM_ISOTOPIC_ATOM_COUNT>
0
> <PUBCHEM_COMPONENT_COUNT>
1
> <PUBCHEM_CACTVS_TAUTO_COUNT>
-1
> <PUBCHEM_COORDINATE_TYPE>
1
5
255
> <PUBCHEM_BONDANNOTATIONS>
5  11  3
6  11  3
$$$$
