524298
  -OEChem-10302200292D
 28 29  0     1  0  0  0  0  0999 V2000
    2.8746   -0.4977    0.0000 O   0  0  0  0  0  0  0  0  0  0  0  0
    3.7143   -2.0126    0.0000 O   0  0  0  0  0  0  0  0  0  0  0  0
    5.9791    0.0641    0.0000 C   0  0  3  0  0  0  0  0  0  0  0  0
    6.2379    1.0300    0.0000 C   0  0  3  0  0  0  0  0  0  0  0  0
    4.6064   -0.5280    0.0000 C   0  0  3  0  0  0  0  0  0  0  0  0
    5.5013    2.0126    0.0000 C   0  0  0  0  0  0  0  0  0  0  0  0
    4.2644    0.4117    0.0000 C   0  0  0  0  0  0  0  0  0  0  0  0
    7.3780   -0.4448    0.0000 C   0  0  0  0  0  0  0  0  0  0  0  0
    7.6369    0.5212    0.0000 C   0  0  0  0  0  0  0  0  0  0  0  0
    4.7972   -1.5096    0.0000 C   0  0  0  0  0  0  0  0  0  0  0  0
    3.7318   -1.0128    0.0000 C   0  0  0  0  0  0  0  0  0  0  0  0
    2.0000   -0.9825    0.0000 C   0  0  0  0  0  0  0  0  0  0  0  0
    5.9972   -0.5557    0.0000 H   0  0  0  0  0  0  0  0  0  0  0  0
    6.2239    0.4102    0.0000 H   0  0  0  0  0  0  0  0  0  0  0  0
    5.8191    2.5450    0.0000 H   0  0  0  0  0  0  0  0  0  0  0  0
    4.8882    2.1046    0.0000 H   0  0  0  0  0  0  0  0  0  0  0  0
    4.0701    1.0005    0.0000 H   0  0  0  0  0  0  0  0  0  0  0  0
    3.6786    0.2085    0.0000 H   0  0  0  0  0  0  0  0  0  0  0  0
    7.1831   -1.0333    0.0000 H   0  0  0  0  0  0  0  0  0  0  0  0
    7.9720   -0.6225    0.0000 H   0  0  0  0  0  0  0  0  0  0  0  0
    8.2308    0.3434    0.0000 H   0  0  0  0  0  0  0  0  0  0  0  0
    7.8318    1.1097    0.0000 H   0  0  0  0  0  0  0  0  0  0  0  0
    4.1886   -1.6279    0.0000 H   0  0  0  0  0  0  0  0  0  0  0  0
    4.9155   -2.1182    0.0000 H   0  0  0  0  0  0  0  0  0  0  0  0
    5.4058   -1.3913    0.0000 H   0  0  0  0  0  0  0  0  0  0  0  0
    1.6994   -0.4403    0.0000 H   0  0  0  0  0  0  0  0  0  0  0  0
    1.4577   -1.2831    0.0000 H   0  0  0  0  0  0  0  0  0  0  0  0
    2.3006   -1.5248    0.0000 H   0  0  0  0  0  0  0  0  0  0  0  0
  1 11  1  0  0  0  0
  1 12  1  0  0  0  0
  2 11  2  0  0  0  0
  3  5  1  0  0  0  0
  3  6  1  0  0  0  0
  3  8  1  0  0  0  0
  3 13  1  0  0  0  0
  4  6  1  0  0  0  0
  4  7  1  0  0  0  0
  4  9  1  0  0  0  0
  4 14  1  0  0  0  0
  5  7  1  0  0  0  0
  5 10  1  0  0  0  0
  5 11  1  0  0  0  0
  6 15  1  0  0  0  0
  6 16  1  0  0  0  0
  7 17  1  0  0  0  0
  7 18  1  0  0  0  0
  8  9  1  0  0  0  0
  8 19  1  0  0  0  0
  8 20  1  0  0  0  0
  9 21  1  0  0  0  0
  9 22  1  0  0  0  0
 10 23  1  0  0  0  0
 10 24  1  0  0  0  0
 10 25  1  0  0  0  0
 12 26  1  0  0  0  0
 12 27  1  0  0  0  0
 12 28  1  0  0  0  0
M  END
> <PUBCHEM_COMPOUND_CID>
524298
> <PUBCHEM_COMPOUND_CANONICALIZED>
1
> <PUBCHEM_CACTVS_COMPLEXITY>
212
> <PUBCHEM_CACTVS_HBOND_ACCEPTOR>
2
> <PUBCHEM_CACTVS_HBOND_DONOR>
0
> <PUBCHEM_CACTVS_ROTATABLE_BOND>
2
> <PUBCHEM_CACTVS_SUBSKEYS>
AAADceBwMAAAAAAAAAAAAAAAAAAAAYMAAAAwAAAAAAAAAAAAAAAAGgAAAAAADwCAgAICCAAABAAIAACQCAAAAAAAAAAAAAEAAAAAABIAAAAAAAAEAAAAAAGIyPCPgAAAAAAAAAAAAAQAACAAAQAACAAAAA==
> <PUBCHEM_IUPAC_OPENEYE_NAME>
methyl 2-methylnorbornane-2-carboxylate
> <PUBCHEM_IUPAC_CAS_NAME>
2-methyl-2-bicyclo[2.2.1]heptanecarboxylic acid methyl ester
> <PUBCHEM_IUPAC_NAME_MARKUP>
methyl 2-methylbicyclo[2.2.1]heptane-2-carboxylate
> <PUBCHEM_IUPAC_NAME>
methyl 2-methylbicyclo[2.2.1]heptane-2-carboxylate
> <PUBCHEM_IUPAC_SYSTEMATIC_NAME>
methyl 2-methylbicyclo[2.2.1]heptane-2-carboxylate
> <PUBCHEM_IUPAC_TRADITIONAL_NAME>
2-methylnorbornane-2-carboxylic acid methyl ester
> <PUBCHEM_IUPAC_INCHI>
InChI=1S/C10H16O2/c1-10(9(11)12-2)6-7-3-4-8(10)5-7/h7-8H,3-6H2,1-2H3
> <PUBCHEM_IUPAC_INCHIKEY>
AINYFZUYWPYGJW-UHFFFAOYSA-N
> <PUBCHEM_XLOGP3_AA>
2.5
> <PUBCHEM_EXACT_MASS>
168.115029749
> <PUBCHEM_MOLECULAR_FORMULA>
C10H16O2
> <PUBCHEM_MOLECULAR_WEIGHT>
168.23
> <PUBCHEM_OPENEYE_CAN_SMILES>
CC1(CC2CCC1C2)C(=O)OC
> <PUBCHEM_OPENEYE_ISO_SMILES>
CC1(CC2CCC1C2)C(=O)OC
> <PUBCHEM_CACTVS_TPSA>
26.3
> <PUBCHEM_MONOISOTOPIC_WEIGHT>
168.115029749
> <PUBCHEM_TOTAL_CHARGE>
0
> <PUBCHEM_HEAVY_ATOM_COUNT>
12
> <PUBCHEM_ATOM_DEF_STEREO_COUNT>
0
> <PUBCHEM_ATOM_UDEF_STEREO_COUNT>
3
> <PUBCHEM_BOND_DEF_STEREO_COUNT>
0
> <PUBCHEM_BOND_UDEF_STEREO_COUNT>
0
> <PUBCHEM_ISOTOPIC_ATOM_COUNT>
0
> <PUBCHEM_COMPONENT_COUNT>
1
> <PUBCHEM_CACTVS_TAUTO_COUNT>
-1
> <PUBCHEM_COORDINATE_TYPE>
1
5
255
> <PUBCHEM_BONDANNOTATIONS>
3  8  3
4  9  3
5  10  3
$$$$
