524278
  -OEChem-10302200292D
 29 30  0     1  0  0  0  0  0999 V2000
    3.5365   -1.6883    0.0000 O   0  0  0  0  0  0  0  0  0  0  0  0
    3.3175    1.2262    0.0000 C   0  0  0  0  0  0  0  0  0  0  0  0
    3.7953   -0.7224    0.0000 C   0  0  3  0  0  0  0  0  0  0  0  0
    4.0541    0.2436    0.0000 C   0  0  3  0  0  0  0  0  0  0  0  0
    2.4226   -1.3144    0.0000 C   0  0  3  0  0  0  0  0  0  0  0  0
    2.0806   -0.3747    0.0000 C   0  0  0  0  0  0  0  0  0  0  0  0
    5.1943   -1.2312    0.0000 C   0  0  0  0  0  0  0  0  0  0  0  0
    5.4531   -0.2653    0.0000 C   0  0  0  0  0  0  0  0  0  0  0  0
    3.4221    2.2207    0.0000 C   0  0  0  0  0  0  0  0  0  0  0  0
    2.4040    1.6329    0.0000 C   0  0  0  0  0  0  0  0  0  0  0  0
    2.0000   -2.2207    0.0000 C   0  0  0  0  0  0  0  0  0  0  0  0
    4.0401   -0.3763    0.0000 H   0  0  0  0  0  0  0  0  0  0  0  0
    2.8546   -1.7591    0.0000 H   0  0  0  0  0  0  0  0  0  0  0  0
    1.8863    0.2141    0.0000 H   0  0  0  0  0  0  0  0  0  0  0  0
    1.4948   -0.5779    0.0000 H   0  0  0  0  0  0  0  0  0  0  0  0
    4.9993   -1.8198    0.0000 H   0  0  0  0  0  0  0  0  0  0  0  0
    5.7882   -1.4090    0.0000 H   0  0  0  0  0  0  0  0  0  0  0  0
    6.0470   -0.4430    0.0000 H   0  0  0  0  0  0  0  0  0  0  0  0
    5.6480    0.3233    0.0000 H   0  0  0  0  0  0  0  0  0  0  0  0
    4.0387    2.1559    0.0000 H   0  0  0  0  0  0  0  0  0  0  0  0
    3.4869    2.8373    0.0000 H   0  0  0  0  0  0  0  0  0  0  0  0
    2.8054    2.2855    0.0000 H   0  0  0  0  0  0  0  0  0  0  0  0
    2.6562    2.1993    0.0000 H   0  0  0  0  0  0  0  0  0  0  0  0
    1.8376    1.8851    0.0000 H   0  0  0  0  0  0  0  0  0  0  0  0
    2.1518    1.0665    0.0000 H   0  0  0  0  0  0  0  0  0  0  0  0
    1.4381   -1.9587    0.0000 H   0  0  0  0  0  0  0  0  0  0  0  0
    1.7380   -2.7826    0.0000 H   0  0  0  0  0  0  0  0  0  0  0  0
    2.5619   -2.4827    0.0000 H   0  0  0  0  0  0  0  0  0  0  0  0
    3.9749   -2.1267    0.0000 H   0  0  0  0  0  0  0  0  0  0  0  0
  1  3  1  0  0  0  0
  1 29  1  0  0  0  0
  2  3  1  0  0  0  0
  2  4  1  0  0  0  0
  2  9  1  0  0  0  0
  2 10  1  0  0  0  0
  3  5  1  0  0  0  0
  3  7  1  0  0  0  0
  4  6  1  0  0  0  0
  4  8  1  0  0  0  0
  4 12  1  0  0  0  0
  5  6  1  0  0  0  0
  5 11  1  0  0  0  0
  5 13  1  0  0  0  0
  6 14  1  0  0  0  0
  6 15  1  0  0  0  0
  7  8  1  0  0  0  0
  7 16  1  0  0  0  0
  7 17  1  0  0  0  0
  8 18  1  0  0  0  0
  8 19  1  0  0  0  0
  9 20  1  0  0  0  0
  9 21  1  0  0  0  0
  9 22  1  0  0  0  0
 10 23  1  0  0  0  0
 10 24  1  0  0  0  0
 10 25  1  0  0  0  0
 11 26  1  0  0  0  0
 11 27  1  0  0  0  0
 11 28  1  0  0  0  0
M  END
> <PUBCHEM_COMPOUND_CID>
524278
> <PUBCHEM_COMPOUND_CANONICALIZED>
1
> <PUBCHEM_CACTVS_COMPLEXITY>
185
> <PUBCHEM_CACTVS_HBOND_ACCEPTOR>
1
> <PUBCHEM_CACTVS_HBOND_DONOR>
1
> <PUBCHEM_CACTVS_ROTATABLE_BOND>
0
> <PUBCHEM_CACTVS_SUBSKEYS>
AAADceBwIAAAAAAAAAAAAAAAAAAAAYMAAAAwAAAAAAAAAAAAAAAAGgAACAAAD0SAgAACAAAAAgAAAAAAAAAAAAAAAAAAAAAAAAAAAAIAAAAAQAAEAAAAAAGAwPAPgAAAAAAAAABAAAQAADAAAYAADAAAAA==
> <PUBCHEM_IUPAC_OPENEYE_NAME>
2,7,7-trimethylnorbornan-1-ol
> <PUBCHEM_IUPAC_CAS_NAME>
2,7,7-trimethyl-1-bicyclo[2.2.1]heptanol
> <PUBCHEM_IUPAC_NAME_MARKUP>
2,7,7-trimethylbicyclo[2.2.1]heptan-1-ol
> <PUBCHEM_IUPAC_NAME>
2,7,7-trimethylbicyclo[2.2.1]heptan-1-ol
> <PUBCHEM_IUPAC_SYSTEMATIC_NAME>
2,7,7-trimethylbicyclo[2.2.1]heptan-1-ol
> <PUBCHEM_IUPAC_TRADITIONAL_NAME>
2,7,7-trimethylnorbornan-1-ol
> <PUBCHEM_IUPAC_INCHI>
InChI=1S/C10H18O/c1-7-6-8-4-5-10(7,11)9(8,2)3/h7-8,11H,4-6H2,1-3H3
> <PUBCHEM_IUPAC_INCHIKEY>
IIOVZGCCFDHRLE-UHFFFAOYSA-N
> <PUBCHEM_XLOGP3_AA>
2.3
> <PUBCHEM_EXACT_MASS>
154.135765193
> <PUBCHEM_MOLECULAR_FORMULA>
C10H18O
> <PUBCHEM_MOLECULAR_WEIGHT>
154.25
> <PUBCHEM_OPENEYE_CAN_SMILES>
CC1CC2CCC1(C2(C)C)O
> <PUBCHEM_OPENEYE_ISO_SMILES>
CC1CC2CCC1(C2(C)C)O
> <PUBCHEM_CACTVS_TPSA>
20.2
> <PUBCHEM_MONOISOTOPIC_WEIGHT>
154.135765193
> <PUBCHEM_TOTAL_CHARGE>
0
> <PUBCHEM_HEAVY_ATOM_COUNT>
11
> <PUBCHEM_ATOM_DEF_STEREO_COUNT>
0
> <PUBCHEM_ATOM_UDEF_STEREO_COUNT>
3
> <PUBCHEM_BOND_DEF_STEREO_COUNT>
0
> <PUBCHEM_BOND_UDEF_STEREO_COUNT>
0
> <PUBCHEM_ISOTOPIC_ATOM_COUNT>
0
> <PUBCHEM_COMPONENT_COUNT>
1
> <PUBCHEM_CACTVS_TAUTO_COUNT>
-1
> <PUBCHEM_COORDINATE_TYPE>
1
5
255
> <PUBCHEM_BONDANNOTATIONS>
3  2  3
4  8  3
5  11  3
$$$$
