524207
  -OEChem-10302200292D
 24 25  0     1  0  0  0  0  0999 V2000
    4.7915    0.1845    0.0000 C   0  0  3  0  0  0  0  0  0  0  0  0
    5.0503    1.1504    0.0000 C   0  0  3  0  0  0  0  0  0  0  0  0
    3.4188   -0.4076    0.0000 C   0  0  3  0  0  0  0  0  0  0  0  0
    4.3137    2.1330    0.0000 C   0  0  0  0  0  0  0  0  0  0  0  0
    3.0768    0.5321    0.0000 C   0  0  0  0  0  0  0  0  0  0  0  0
    6.1905   -0.3243    0.0000 C   0  0  0  0  0  0  0  0  0  0  0  0
    6.4493    0.6416    0.0000 C   0  0  0  0  0  0  0  0  0  0  0  0
    2.9962   -1.3139    0.0000 C   0  0  0  0  0  0  0  0  0  0  0  0
    2.0000   -1.4010    0.0000 C   0  0  0  0  0  0  0  0  0  0  0  0
    3.5698   -2.1330    0.0000 C   0  0  0  0  0  0  0  0  0  0  0  0
    4.8096   -0.4353    0.0000 H   0  0  0  0  0  0  0  0  0  0  0  0
    5.0363    0.5306    0.0000 H   0  0  0  0  0  0  0  0  0  0  0  0
    3.8508   -0.8523    0.0000 H   0  0  0  0  0  0  0  0  0  0  0  0
    4.6315    2.6654    0.0000 H   0  0  0  0  0  0  0  0  0  0  0  0
    3.7006    2.2250    0.0000 H   0  0  0  0  0  0  0  0  0  0  0  0
    2.8825    1.1209    0.0000 H   0  0  0  0  0  0  0  0  0  0  0  0
    2.4910    0.3289    0.0000 H   0  0  0  0  0  0  0  0  0  0  0  0
    6.4768   -0.8743    0.0000 H   0  0  0  0  0  0  0  0  0  0  0  0
    6.9992    0.9279    0.0000 H   0  0  0  0  0  0  0  0  0  0  0  0
    1.9460   -0.7834    0.0000 H   0  0  0  0  0  0  0  0  0  0  0  0
    1.3824   -1.4550    0.0000 H   0  0  0  0  0  0  0  0  0  0  0  0
    2.0540   -2.0186    0.0000 H   0  0  0  0  0  0  0  0  0  0  0  0
    3.3078   -2.6949    0.0000 H   0  0  0  0  0  0  0  0  0  0  0  0
    4.1874   -2.0790    0.0000 H   0  0  0  0  0  0  0  0  0  0  0  0
  1  3  1  0  0  0  0
  1  4  1  0  0  0  0
  1  6  1  0  0  0  0
  1 11  1  0  0  0  0
  2  4  1  0  0  0  0
  2  5  1  0  0  0  0
  2  7  1  0  0  0  0
  2 12  1  0  0  0  0
  3  5  1  0  0  0  0
  3  8  1  0  0  0  0
  3 13  1  0  0  0  0
  4 14  1  0  0  0  0
  4 15  1  0  0  0  0
  5 16  1  0  0  0  0
  5 17  1  0  0  0  0
  6  7  2  0  0  0  0
  6 18  1  0  0  0  0
  7 19  1  0  0  0  0
  8  9  1  0  0  0  0
  8 10  2  0  0  0  0
  9 20  1  0  0  0  0
  9 21  1  0  0  0  0
  9 22  1  0  0  0  0
 10 23  1  0  0  0  0
 10 24  1  0  0  0  0
M  END
> <PUBCHEM_COMPOUND_CID>
524207
> <PUBCHEM_COMPOUND_CANONICALIZED>
1
> <PUBCHEM_CACTVS_COMPLEXITY>
188
> <PUBCHEM_CACTVS_HBOND_ACCEPTOR>
0
> <PUBCHEM_CACTVS_HBOND_DONOR>
0
> <PUBCHEM_CACTVS_ROTATABLE_BOND>
1
> <PUBCHEM_CACTVS_SUBSKEYS>
AAADccBwAAAAAAAAAAAAAAAAAAAAAYIAAAAgAAAAAAAAAAAAAAAAGAAAAAAADQCAAAACAAAAAACAAiBCAAAAAAAgAAAICAAAAAgAAAIAAQAAAAAAgAAIAAMAgMAOgAAAAAAAAAAAAAAAAAAAAQAACAAAAA==
> <PUBCHEM_IUPAC_OPENEYE_NAME>
5-isopropenylbicyclo[2.2.1]hept-2-ene
> <PUBCHEM_IUPAC_CAS_NAME>
5-(1-methylethenyl)bicyclo[2.2.1]hept-2-ene
> <PUBCHEM_IUPAC_NAME_MARKUP>
5-prop-1-en-2-ylbicyclo[2.2.1]hept-2-ene
> <PUBCHEM_IUPAC_NAME>
5-prop-1-en-2-ylbicyclo[2.2.1]hept-2-ene
> <PUBCHEM_IUPAC_SYSTEMATIC_NAME>
5-prop-1-en-2-ylbicyclo[2.2.1]hept-2-ene
> <PUBCHEM_IUPAC_TRADITIONAL_NAME>
5-isopropenylbicyclo[2.2.1]hept-2-ene
> <PUBCHEM_IUPAC_INCHI>
InChI=1S/C10H14/c1-7(2)10-6-8-3-4-9(10)5-8/h3-4,8-10H,1,5-6H2,2H3
> <PUBCHEM_IUPAC_INCHIKEY>
DMGCMUYMJFRQSK-UHFFFAOYSA-N
> <PUBCHEM_XLOGP3_AA>
3.3
> <PUBCHEM_EXACT_MASS>
134.109550447
> <PUBCHEM_MOLECULAR_FORMULA>
C10H14
> <PUBCHEM_MOLECULAR_WEIGHT>
134.22
> <PUBCHEM_OPENEYE_CAN_SMILES>
CC(=C)C1CC2CC1C=C2
> <PUBCHEM_OPENEYE_ISO_SMILES>
CC(=C)C1CC2CC1C=C2
> <PUBCHEM_CACTVS_TPSA>
0
> <PUBCHEM_MONOISOTOPIC_WEIGHT>
134.109550447
> <PUBCHEM_TOTAL_CHARGE>
0
> <PUBCHEM_HEAVY_ATOM_COUNT>
10
> <PUBCHEM_ATOM_DEF_STEREO_COUNT>
0
> <PUBCHEM_ATOM_UDEF_STEREO_COUNT>
3
> <PUBCHEM_BOND_DEF_STEREO_COUNT>
0
> <PUBCHEM_BOND_UDEF_STEREO_COUNT>
0
> <PUBCHEM_ISOTOPIC_ATOM_COUNT>
0
> <PUBCHEM_COMPONENT_COUNT>
1
> <PUBCHEM_CACTVS_TAUTO_COUNT>
1
> <PUBCHEM_COORDINATE_TYPE>
1
5
255
> <PUBCHEM_BONDANNOTATIONS>
1  4  3
2  4  3
3  8  3
$$$$
