524251
  -OEChem-10302200292D
 34 35  0     1  0  0  0  0  0999 V2000
    3.5000   -0.1200    0.0000 O   0  0  0  0  0  0  0  0  0  0  0  0
    3.5000   -1.8520    0.0000 O   0  0  0  0  0  0  0  0  0  0  0  0
    6.0388    0.3800    0.0000 C   0  0  3  0  0  0  0  0  0  0  0  0
    6.0388   -0.6200    0.0000 C   0  0  3  0  0  0  0  0  0  0  0  0
    6.9054   -0.1200    0.0000 C   0  0  0  0  0  0  0  0  0  0  0  0
    5.0878   -0.9290    0.0000 C   0  0  3  0  0  0  0  0  0  0  0  0
    5.0878    0.6891    0.0000 C   0  0  0  0  0  0  0  0  0  0  0  0
    4.5000   -0.1200    0.0000 C   0  0  3  0  0  0  0  0  0  0  0  0
    6.0388    1.3800    0.0000 C   0  0  0  0  0  0  0  0  0  0  0  0
    4.7788   -1.8800    0.0000 C   0  0  0  0  0  0  0  0  0  0  0  0
    6.9049    1.8800    0.0000 C   0  0  0  0  0  0  0  0  0  0  0  0
    5.1728    1.8800    0.0000 C   0  0  0  0  0  0  0  0  0  0  0  0
    3.0000   -0.9860    0.0000 C   0  0  0  0  0  0  0  0  0  0  0  0
    2.0000   -0.9860    0.0000 C   0  0  0  0  0  0  0  0  0  0  0  0
    6.2909   -1.1864    0.0000 H   0  0  0  0  0  0  0  0  0  0  0  0
    7.3039   -0.5949    0.0000 H   0  0  0  0  0  0  0  0  0  0  0  0
    7.3039    0.3550    0.0000 H   0  0  0  0  0  0  0  0  0  0  0  0
    5.5262   -1.3674    0.0000 H   0  0  0  0  0  0  0  0  0  0  0  0
    5.3400    1.2554    0.0000 H   0  0  0  0  0  0  0  0  0  0  0  0
    4.5508    0.9991    0.0000 H   0  0  0  0  0  0  0  0  0  0  0  0
    4.2185    0.4325    0.0000 H   0  0  0  0  0  0  0  0  0  0  0  0
    6.0388    2.0000    0.0000 H   0  0  0  0  0  0  0  0  0  0  0  0
    4.1891   -1.6884    0.0000 H   0  0  0  0  0  0  0  0  0  0  0  0
    4.5872   -2.4697    0.0000 H   0  0  0  0  0  0  0  0  0  0  0  0
    5.3684   -2.0716    0.0000 H   0  0  0  0  0  0  0  0  0  0  0  0
    7.2149    1.3431    0.0000 H   0  0  0  0  0  0  0  0  0  0  0  0
    7.4418    2.1900    0.0000 H   0  0  0  0  0  0  0  0  0  0  0  0
    6.5949    2.4170    0.0000 H   0  0  0  0  0  0  0  0  0  0  0  0
    5.4828    2.4170    0.0000 H   0  0  0  0  0  0  0  0  0  0  0  0
    4.6359    2.1900    0.0000 H   0  0  0  0  0  0  0  0  0  0  0  0
    4.8628    1.3431    0.0000 H   0  0  0  0  0  0  0  0  0  0  0  0
    2.0000   -0.3660    0.0000 H   0  0  0  0  0  0  0  0  0  0  0  0
    1.3800   -0.9860    0.0000 H   0  0  0  0  0  0  0  0  0  0  0  0
    2.0000   -1.6060    0.0000 H   0  0  0  0  0  0  0  0  0  0  0  0
  1  8  1  0  0  0  0
  1 13  1  0  0  0  0
  2 13  2  0  0  0  0
  3  4  1  0  0  0  0
  3  5  1  0  0  0  0
  3  7  1  0  0  0  0
  3  9  1  0  0  0  0
  4  5  1  0  0  0  0
  4  6  1  0  0  0  0
  4 15  1  0  0  0  0
  5 16  1  0  0  0  0
  5 17  1  0  0  0  0
  6  8  1  0  0  0  0
  6 10  1  0  0  0  0
  6 18  1  0  0  0  0
  7  8  1  0  0  0  0
  7 19  1  0  0  0  0
  7 20  1  0  0  0  0
  8 21  1  0  0  0  0
  9 11  1  0  0  0  0
  9 12  1  0  0  0  0
  9 22  1  0  0  0  0
 10 23  1  0  0  0  0
 10 24  1  0  0  0  0
 10 25  1  0  0  0  0
 11 26  1  0  0  0  0
 11 27  1  0  0  0  0
 11 28  1  0  0  0  0
 12 29  1  0  0  0  0
 12 30  1  0  0  0  0
 12 31  1  0  0  0  0
 13 14  1  0  0  0  0
 14 32  1  0  0  0  0
 14 33  1  0  0  0  0
 14 34  1  0  0  0  0
M  END
> <PUBCHEM_COMPOUND_CID>
524251
> <PUBCHEM_COMPOUND_CANONICALIZED>
1
> <PUBCHEM_CACTVS_COMPLEXITY>
259
> <PUBCHEM_CACTVS_HBOND_ACCEPTOR>
2
> <PUBCHEM_CACTVS_HBOND_DONOR>
0
> <PUBCHEM_CACTVS_ROTATABLE_BOND>
3
> <PUBCHEM_CACTVS_SUBSKEYS>
AAADceBwMAAAAAAAAAAAAAAAGAAAAYAAAAAwAAAAAAAAAAAAAAAAGgAAAAAADxSggAICCAAABAAIAACQCAAAAAAAAAAAAAAAAAAAAAIAAAACAAAEAAAAAAGAwPAPgAAAAAAAAACAAAIAABAAAYAADAAAAA==
> <PUBCHEM_IUPAC_OPENEYE_NAME>
(1-isopropyl-4-methyl-3-bicyclo[3.1.0]hexanyl) acetate
> <PUBCHEM_IUPAC_CAS_NAME>
acetic acid (4-methyl-1-propan-2-yl-3-bicyclo[3.1.0]hexanyl) ester
> <PUBCHEM_IUPAC_NAME_MARKUP>
(4-methyl-1-propan-2-yl-3-bicyclo[3.1.0]hexanyl) acetate
> <PUBCHEM_IUPAC_NAME>
(4-methyl-1-propan-2-yl-3-bicyclo[3.1.0]hexanyl) acetate
> <PUBCHEM_IUPAC_SYSTEMATIC_NAME>
(4-methyl-1-propan-2-yl-3-bicyclo[3.1.0]hexanyl) ethanoate
> <PUBCHEM_IUPAC_TRADITIONAL_NAME>
acetic acid (1-isopropyl-4-methyl-3-bicyclo[3.1.0]hexanyl) ester
> <PUBCHEM_IUPAC_INCHI>
InChI=1S/C12H20O2/c1-7(2)12-5-10(12)8(3)11(6-12)14-9(4)13/h7-8,10-11H,5-6H2,1-4H3
> <PUBCHEM_IUPAC_INCHIKEY>
RYMWIDNPMDLHRP-UHFFFAOYSA-N
> <PUBCHEM_XLOGP3_AA>
3.1
> <PUBCHEM_EXACT_MASS>
196.146329876
> <PUBCHEM_MOLECULAR_FORMULA>
C12H20O2
> <PUBCHEM_MOLECULAR_WEIGHT>
196.29
> <PUBCHEM_OPENEYE_CAN_SMILES>
CC1C2CC2(CC1OC(=O)C)C(C)C
> <PUBCHEM_OPENEYE_ISO_SMILES>
CC1C2CC2(CC1OC(=O)C)C(C)C
> <PUBCHEM_CACTVS_TPSA>
26.3
> <PUBCHEM_MONOISOTOPIC_WEIGHT>
196.146329876
> <PUBCHEM_TOTAL_CHARGE>
0
> <PUBCHEM_HEAVY_ATOM_COUNT>
14
> <PUBCHEM_ATOM_DEF_STEREO_COUNT>
0
> <PUBCHEM_ATOM_UDEF_STEREO_COUNT>
4
> <PUBCHEM_BOND_DEF_STEREO_COUNT>
0
> <PUBCHEM_BOND_UDEF_STEREO_COUNT>
0
> <PUBCHEM_ISOTOPIC_ATOM_COUNT>
0
> <PUBCHEM_COMPONENT_COUNT>
1
> <PUBCHEM_CACTVS_TAUTO_COUNT>
-1
> <PUBCHEM_COORDINATE_TYPE>
1
5
255
> <PUBCHEM_BONDANNOTATIONS>
8  1  3
3  4  3
4  5  3
6  10  3
$$$$
