524259
  -OEChem-10302200292D
 34 35  0     1  0  0  0  0  0999 V2000
    6.5953   -1.2287    0.0000 O   0  0  0  0  0  0  0  0  0  0  0  0
    8.0953   -0.3627    0.0000 O   0  0  0  0  0  0  0  0  0  0  0  0
    4.6964    0.1462    0.0000 C   0  0  3  0  0  0  0  0  0  0  0  0
    4.9552    1.1121    0.0000 C   0  0  3  0  0  0  0  0  0  0  0  0
    2.9816    0.4938    0.0000 C   0  0  0  0  0  0  0  0  0  0  0  0
    4.2186    2.0947    0.0000 C   0  0  0  0  0  0  0  0  0  0  0  0
    3.3236   -0.4459    0.0000 C   0  0  0  0  0  0  0  0  0  0  0  0
    6.0953   -0.3627    0.0000 C   0  0  3  0  0  0  0  0  0  0  0  0
    6.3541    0.6033    0.0000 C   0  0  0  0  0  0  0  0  0  0  0  0
    4.4375   -0.8198    0.0000 C   0  0  0  0  0  0  0  0  0  0  0  0
    2.0000    0.3030    0.0000 C   0  0  0  0  0  0  0  0  0  0  0  0
    2.4968    1.3685    0.0000 C   0  0  0  0  0  0  0  0  0  0  0  0
    7.5953   -1.2287    0.0000 C   0  0  0  0  0  0  0  0  0  0  0  0
    8.0953   -2.0947    0.0000 C   0  0  0  0  0  0  0  0  0  0  0  0
    4.9411    0.4922    0.0000 H   0  0  0  0  0  0  0  0  0  0  0  0
    4.5364    2.6271    0.0000 H   0  0  0  0  0  0  0  0  0  0  0  0
    3.6054    2.1867    0.0000 H   0  0  0  0  0  0  0  0  0  0  0  0
    2.7452   -0.6692    0.0000 H   0  0  0  0  0  0  0  0  0  0  0  0
    3.5581   -1.0198    0.0000 H   0  0  0  0  0  0  0  0  0  0  0  0
    5.6968   -0.8376    0.0000 H   0  0  0  0  0  0  0  0  0  0  0  0
    6.9481    0.4255    0.0000 H   0  0  0  0  0  0  0  0  0  0  0  0
    6.5490    1.1918    0.0000 H   0  0  0  0  0  0  0  0  0  0  0  0
    3.8387   -0.6593    0.0000 H   0  0  0  0  0  0  0  0  0  0  0  0
    4.2771   -1.4186    0.0000 H   0  0  0  0  0  0  0  0  0  0  0  0
    5.0364   -0.9802    0.0000 H   0  0  0  0  0  0  0  0  0  0  0  0
    1.8817    0.9116    0.0000 H   0  0  0  0  0  0  0  0  0  0  0  0
    1.3914    0.1847    0.0000 H   0  0  0  0  0  0  0  0  0  0  0  0
    2.1183   -0.3056    0.0000 H   0  0  0  0  0  0  0  0  0  0  0  0
    3.0391    1.6690    0.0000 H   0  0  0  0  0  0  0  0  0  0  0  0
    2.1962    1.9107    0.0000 H   0  0  0  0  0  0  0  0  0  0  0  0
    1.9546    1.0679    0.0000 H   0  0  0  0  0  0  0  0  0  0  0  0
    7.5584   -2.4047    0.0000 H   0  0  0  0  0  0  0  0  0  0  0  0
    8.4053   -2.6316    0.0000 H   0  0  0  0  0  0  0  0  0  0  0  0
    8.6322   -1.7847    0.0000 H   0  0  0  0  0  0  0  0  0  0  0  0
  1  8  1  0  0  0  0
  1 13  1  0  0  0  0
  2 13  2  0  0  0  0
  3  6  1  0  0  0  0
  3  7  1  0  0  0  0
  3  8  1  0  0  0  0
  3 10  1  0  0  0  0
  4  5  1  0  0  0  0
  4  6  1  0  0  0  0
  4  9  1  0  0  0  0
  4 15  1  0  0  0  0
  5  7  1  0  0  0  0
  5 11  1  0  0  0  0
  5 12  1  0  0  0  0
  6 16  1  0  0  0  0
  6 17  1  0  0  0  0
  7 18  1  0  0  0  0
  7 19  1  0  0  0  0
  8  9  1  0  0  0  0
  8 20  1  0  0  0  0
  9 21  1  0  0  0  0
  9 22  1  0  0  0  0
 10 23  1  0  0  0  0
 10 24  1  0  0  0  0
 10 25  1  0  0  0  0
 11 26  1  0  0  0  0
 11 27  1  0  0  0  0
 11 28  1  0  0  0  0
 12 29  1  0  0  0  0
 12 30  1  0  0  0  0
 12 31  1  0  0  0  0
 13 14  1  0  0  0  0
 14 32  1  0  0  0  0
 14 33  1  0  0  0  0
 14 34  1  0  0  0  0
M  END
> <PUBCHEM_COMPOUND_CID>
524259
> <PUBCHEM_COMPOUND_CANONICALIZED>
1
> <PUBCHEM_CACTVS_COMPLEXITY>
270
> <PUBCHEM_CACTVS_HBOND_ACCEPTOR>
2
> <PUBCHEM_CACTVS_HBOND_DONOR>
0
> <PUBCHEM_CACTVS_ROTATABLE_BOND>
2
> <PUBCHEM_CACTVS_SUBSKEYS>
AAADceBwMAAAAAAAAAAAAAAAAAAAAYMAAAAwAAAAAAAAAAAAAAAAGgAAAAAADxSggAICCAAABAAIAACQCAAAAAAAAAAAAAAAAAAAAAIAAAACAAAEAAAAAAGAwPAPgAAAAAAAAADAAAYAADAAAYAADAAAAA==
> <PUBCHEM_IUPAC_OPENEYE_NAME>
(1,5,5-trimethylnorbornan-2-yl) acetate
> <PUBCHEM_IUPAC_CAS_NAME>
acetic acid (1,5,5-trimethyl-2-bicyclo[2.2.1]heptanyl) ester
> <PUBCHEM_IUPAC_NAME_MARKUP>
(1,5,5-trimethyl-2-bicyclo[2.2.1]heptanyl) acetate
> <PUBCHEM_IUPAC_NAME>
(1,5,5-trimethyl-2-bicyclo[2.2.1]heptanyl) acetate
> <PUBCHEM_IUPAC_SYSTEMATIC_NAME>
(1,5,5-trimethyl-2-bicyclo[2.2.1]heptanyl) ethanoate
> <PUBCHEM_IUPAC_TRADITIONAL_NAME>
acetic acid (1,5,5-trimethylnorbornan-2-yl) ester
> <PUBCHEM_IUPAC_INCHI>
InChI=1S/C12H20O2/c1-8(13)14-10-5-9-6-12(10,4)7-11(9,2)3/h9-10H,5-7H2,1-4H3
> <PUBCHEM_IUPAC_INCHIKEY>
LHDGZUJXYWVZNA-UHFFFAOYSA-N
> <PUBCHEM_XLOGP3_AA>
2.9
> <PUBCHEM_EXACT_MASS>
196.146329876
> <PUBCHEM_MOLECULAR_FORMULA>
C12H20O2
> <PUBCHEM_MOLECULAR_WEIGHT>
196.29
> <PUBCHEM_OPENEYE_CAN_SMILES>
CC(=O)OC1CC2CC1(CC2(C)C)C
> <PUBCHEM_OPENEYE_ISO_SMILES>
CC(=O)OC1CC2CC1(CC2(C)C)C
> <PUBCHEM_CACTVS_TPSA>
26.3
> <PUBCHEM_MONOISOTOPIC_WEIGHT>
196.146329876
> <PUBCHEM_TOTAL_CHARGE>
0
> <PUBCHEM_HEAVY_ATOM_COUNT>
14
> <PUBCHEM_ATOM_DEF_STEREO_COUNT>
0
> <PUBCHEM_ATOM_UDEF_STEREO_COUNT>
3
> <PUBCHEM_BOND_DEF_STEREO_COUNT>
0
> <PUBCHEM_BOND_UDEF_STEREO_COUNT>
0
> <PUBCHEM_ISOTOPIC_ATOM_COUNT>
0
> <PUBCHEM_COMPONENT_COUNT>
1
> <PUBCHEM_CACTVS_TAUTO_COUNT>
1
> <PUBCHEM_COORDINATE_TYPE>
1
5
255
> <PUBCHEM_BONDANNOTATIONS>
8  1  3
3  10  3
4  9  3
$$$$
