524295
  -OEChem-10302200292D
 40 39  0     1  0  0  0  0  0999 V2000
    4.5981   -0.1830    0.0000 P   0  0  3  0  0  0  0  0  0  0  0  0
    2.8660   -0.1830    0.0000 Si  0  0  0  0  0  0  0  0  0  0  0  0
    5.4641    0.3170    0.0000 O   0  0  0  0  0  0  0  0  0  0  0  0
    3.7320   -0.6830    0.0000 O   0  0  0  0  0  0  0  0  0  0  0  0
    5.0981   -1.0490    0.0000 O   0  0  0  0  0  0  0  0  0  0  0  0
    7.1962    0.3170    0.0000 C   0  0  0  0  0  0  0  0  0  0  0  0
    6.3301   -0.1830    0.0000 C   0  0  3  0  0  0  0  0  0  0  0  0
    8.0622    0.8170    0.0000 C   0  0  0  0  0  0  0  0  0  0  0  0
    7.6962   -0.5490    0.0000 C   0  0  0  0  0  0  0  0  0  0  0  0
    6.6962    1.1830    0.0000 C   0  0  0  0  0  0  0  0  0  0  0  0
    6.3301   -1.1830    0.0000 C   0  0  0  0  0  0  0  0  0  0  0  0
    4.0981    0.6830    0.0000 C   0  0  0  0  0  0  0  0  0  0  0  0
    2.0000    0.3170    0.0000 C   0  0  0  0  0  0  0  0  0  0  0  0
    2.3660   -1.0490    0.0000 C   0  0  0  0  0  0  0  0  0  0  0  0
    3.3660    0.6830    0.0000 C   0  0  0  0  0  0  0  0  0  0  0  0
    5.7932   -0.4930    0.0000 H   0  0  0  0  0  0  0  0  0  0  0  0
    8.3722    0.2801    0.0000 H   0  0  0  0  0  0  0  0  0  0  0  0
    8.5991    1.1270    0.0000 H   0  0  0  0  0  0  0  0  0  0  0  0
    7.7522    1.3539    0.0000 H   0  0  0  0  0  0  0  0  0  0  0  0
    7.1592   -0.8590    0.0000 H   0  0  0  0  0  0  0  0  0  0  0  0
    8.0062   -1.0860    0.0000 H   0  0  0  0  0  0  0  0  0  0  0  0
    8.2331   -0.2390    0.0000 H   0  0  0  0  0  0  0  0  0  0  0  0
    7.2331    1.4930    0.0000 H   0  0  0  0  0  0  0  0  0  0  0  0
    6.3862    1.7200    0.0000 H   0  0  0  0  0  0  0  0  0  0  0  0
    6.1592    0.8730    0.0000 H   0  0  0  0  0  0  0  0  0  0  0  0
    5.7101   -1.1830    0.0000 H   0  0  0  0  0  0  0  0  0  0  0  0
    6.3301   -1.8030    0.0000 H   0  0  0  0  0  0  0  0  0  0  0  0
    6.9501   -1.1830    0.0000 H   0  0  0  0  0  0  0  0  0  0  0  0
    2.3100    0.8539    0.0000 H   0  0  0  0  0  0  0  0  0  0  0  0
    1.4631    0.6270    0.0000 H   0  0  0  0  0  0  0  0  0  0  0  0
    1.6900   -0.2199    0.0000 H   0  0  0  0  0  0  0  0  0  0  0  0
    1.8291   -0.7390    0.0000 H   0  0  0  0  0  0  0  0  0  0  0  0
    2.0560   -1.5860    0.0000 H   0  0  0  0  0  0  0  0  0  0  0  0
    2.9030   -1.3590    0.0000 H   0  0  0  0  0  0  0  0  0  0  0  0
    3.9030    0.3730    0.0000 H   0  0  0  0  0  0  0  0  0  0  0  0
    3.6760    1.2200    0.0000 H   0  0  0  0  0  0  0  0  0  0  0  0
    2.8291    0.9930    0.0000 H   0  0  0  0  0  0  0  0  0  0  0  0
    4.6350    0.9930    0.0000 H   0  0  0  0  0  0  0  0  0  0  0  0
    3.7881    1.2200    0.0000 H   0  0  0  0  0  0  0  0  0  0  0  0
    3.5611    0.3730    0.0000 H   0  0  0  0  0  0  0  0  0  0  0  0
  1  3  1  0  0  0  0
  1  4  1  0  0  0  0
  1  5  2  0  0  0  0
  1 12  1  0  0  0  0
  2  4  1  0  0  0  0
  2 13  1  0  0  0  0
  2 14  1  0  0  0  0
  2 15  1  0  0  0  0
  3  7  1  0  0  0  0
  6  7  1  0  0  0  0
  6  8  1  0  0  0  0
  6  9  1  0  0  0  0
  6 10  1  0  0  0  0
  7 11  1  0  0  0  0
  7 16  1  0  0  0  0
  8 17  1  0  0  0  0
  8 18  1  0  0  0  0
  8 19  1  0  0  0  0
  9 20  1  0  0  0  0
  9 21  1  0  0  0  0
  9 22  1  0  0  0  0
 10 23  1  0  0  0  0
 10 24  1  0  0  0  0
 10 25  1  0  0  0  0
 11 26  1  0  0  0  0
 11 27  1  0  0  0  0
 11 28  1  0  0  0  0
 12 38  1  0  0  0  0
 12 39  1  0  0  0  0
 12 40  1  0  0  0  0
 13 29  1  0  0  0  0
 13 30  1  0  0  0  0
 13 31  1  0  0  0  0
 14 32  1  0  0  0  0
 14 33  1  0  0  0  0
 14 34  1  0  0  0  0
 15 35  1  0  0  0  0
 15 36  1  0  0  0  0
 15 37  1  0  0  0  0
M  END
> <PUBCHEM_COMPOUND_CID>
524295
> <PUBCHEM_COMPOUND_CANONICALIZED>
1
> <PUBCHEM_CACTVS_COMPLEXITY>
252
> <PUBCHEM_CACTVS_HBOND_ACCEPTOR>
3
> <PUBCHEM_CACTVS_HBOND_DONOR>
0
> <PUBCHEM_CACTVS_ROTATABLE_BOND>
5
> <PUBCHEM_CACTVS_SUBSKEYS>
AAADceBwMAoAAAAAAAAAAAAAAAAAAAAAAAAAAAAAAAAAAAAAAAAAGhgAAGAADhSggAJCAAAAAREAQAAAAIAAAAAAAAAAAAAAAAAAAAAAAAAAAAAAAAAAAAAAAAAJAAAAAAAAAAAAAAAAAAAAAAAAAAAAAA==
> <PUBCHEM_IUPAC_OPENEYE_NAME>
trimethyl-[methyl(1,2,2-trimethylpropoxy)phosphoryl]oxy-silane
> <PUBCHEM_IUPAC_CAS_NAME>
[3,3-dimethylbutan-2-yloxy(methyl)phosphoryl]oxy-trimethylsilane
> <PUBCHEM_IUPAC_NAME_MARKUP>
[3,3-dimethylbutan-2-yloxy(methyl)phosphoryl]oxy-trimethylsilane
> <PUBCHEM_IUPAC_NAME>
[3,3-dimethylbutan-2-yloxy(methyl)phosphoryl]oxy-trimethylsilane
> <PUBCHEM_IUPAC_SYSTEMATIC_NAME>
[3,3-dimethylbutan-2-yloxy(methyl)phosphoryl]oxy-trimethyl-silane
> <PUBCHEM_IUPAC_TRADITIONAL_NAME>
trimethyl-[methyl(1,2,2-trimethylpropoxy)phosphoryl]oxy-silane
> <PUBCHEM_IUPAC_INCHI>
InChI=1S/C10H25O3PSi/c1-9(10(2,3)4)12-14(5,11)13-15(6,7)8/h9H,1-8H3
> <PUBCHEM_IUPAC_INCHIKEY>
MJEDXKPLTDGGAW-UHFFFAOYSA-N
> <PUBCHEM_EXACT_MASS>
252.13105819
> <PUBCHEM_MOLECULAR_FORMULA>
C10H25O3PSi
> <PUBCHEM_MOLECULAR_WEIGHT>
252.36
> <PUBCHEM_OPENEYE_CAN_SMILES>
CC(C(C)(C)C)OP(=O)(C)O[Si](C)(C)C
> <PUBCHEM_OPENEYE_ISO_SMILES>
CC(C(C)(C)C)OP(=O)(C)O[Si](C)(C)C
> <PUBCHEM_CACTVS_TPSA>
35.5
> <PUBCHEM_MONOISOTOPIC_WEIGHT>
252.13105819
> <PUBCHEM_TOTAL_CHARGE>
0
> <PUBCHEM_HEAVY_ATOM_COUNT>
15
> <PUBCHEM_ATOM_DEF_STEREO_COUNT>
0
> <PUBCHEM_ATOM_UDEF_STEREO_COUNT>
2
> <PUBCHEM_BOND_DEF_STEREO_COUNT>
0
> <PUBCHEM_BOND_UDEF_STEREO_COUNT>
0
> <PUBCHEM_ISOTOPIC_ATOM_COUNT>
0
> <PUBCHEM_COMPONENT_COUNT>
1
> <PUBCHEM_CACTVS_TAUTO_COUNT>
-1
> <PUBCHEM_COORDINATE_TYPE>
1
5
255
> <PUBCHEM_BONDANNOTATIONS>
1  12  3
7  11  3
$$$$
