524296
  -OEChem-10302200292D
 24 23  0     1  0  0  0  0  0999 V2000
    3.7320    0.0670    0.0000 P   0  0  3  0  0  0  0  0  0  0  0  0
    3.2320    0.9330    0.0000 F   0  0  0  0  0  0  0  0  0  0  0  0
    4.5981    0.5670    0.0000 O   0  0  0  0  0  0  0  0  0  0  0  0
    4.2320   -0.7990    0.0000 O   0  0  0  0  0  0  0  0  0  0  0  0
    5.4641    0.0670    0.0000 C   0  0  3  0  0  0  0  0  0  0  0  0
    6.3301    0.5670    0.0000 C   0  0  0  0  0  0  0  0  0  0  0  0
    5.4641   -0.9330    0.0000 C   0  0  0  0  0  0  0  0  0  0  0  0
    2.8660   -0.4330    0.0000 C   0  0  0  0  0  0  0  0  0  0  0  0
    7.1962    0.0670    0.0000 C   0  0  0  0  0  0  0  0  0  0  0  0
    2.0000    0.0670    0.0000 C   0  0  0  0  0  0  0  0  0  0  0  0
    5.4641    0.6870    0.0000 H   0  0  0  0  0  0  0  0  0  0  0  0
    6.7287    1.0419    0.0000 H   0  0  0  0  0  0  0  0  0  0  0  0
    5.9316    1.0419    0.0000 H   0  0  0  0  0  0  0  0  0  0  0  0
    2.4675   -0.9080    0.0000 H   0  0  0  0  0  0  0  0  0  0  0  0
    3.2646   -0.9080    0.0000 H   0  0  0  0  0  0  0  0  0  0  0  0
    4.8441   -0.9330    0.0000 H   0  0  0  0  0  0  0  0  0  0  0  0
    5.4641   -1.5530    0.0000 H   0  0  0  0  0  0  0  0  0  0  0  0
    6.0841   -0.9330    0.0000 H   0  0  0  0  0  0  0  0  0  0  0  0
    6.8862   -0.4699    0.0000 H   0  0  0  0  0  0  0  0  0  0  0  0
    7.7331   -0.2430    0.0000 H   0  0  0  0  0  0  0  0  0  0  0  0
    7.5062    0.6039    0.0000 H   0  0  0  0  0  0  0  0  0  0  0  0
    2.3100    0.6039    0.0000 H   0  0  0  0  0  0  0  0  0  0  0  0
    1.4631    0.3770    0.0000 H   0  0  0  0  0  0  0  0  0  0  0  0
    1.6900   -0.4699    0.0000 H   0  0  0  0  0  0  0  0  0  0  0  0
  1  2  1  0  0  0  0
  1  3  1  0  0  0  0
  1  4  2  0  0  0  0
  1  8  1  0  0  0  0
  3  5  1  0  0  0  0
  5  6  1  0  0  0  0
  5  7  1  0  0  0  0
  5 11  1  0  0  0  0
  6  9  1  0  0  0  0
  6 12  1  0  0  0  0
  6 13  1  0  0  0  0
  7 16  1  0  0  0  0
  7 17  1  0  0  0  0
  7 18  1  0  0  0  0
  8 10  1  0  0  0  0
  8 14  1  0  0  0  0
  8 15  1  0  0  0  0
  9 19  1  0  0  0  0
  9 20  1  0  0  0  0
  9 21  1  0  0  0  0
 10 22  1  0  0  0  0
 10 23  1  0  0  0  0
 10 24  1  0  0  0  0
M  END
> <PUBCHEM_COMPOUND_CID>
524296
> <PUBCHEM_COMPOUND_CANONICALIZED>
1
> <PUBCHEM_CACTVS_COMPLEXITY>
138
> <PUBCHEM_CACTVS_HBOND_ACCEPTOR>
3
> <PUBCHEM_CACTVS_HBOND_DONOR>
0
> <PUBCHEM_CACTVS_ROTATABLE_BOND>
4
> <PUBCHEM_CACTVS_SUBSKEYS>
AAADccBgMQIAAAAAAAAAAAAAAAAAAAAAAAAAAAAAAAAAAAAAAAAAGggAACgACBSogAICAAAAARAAQAAAAIAAAAAAAAAAAAAAAAAAAAAAAAAAAAAAAAAAAAAAAAAAAAAAAAAAAAAAAAAAAAAAAAAAAAAAAA==
> <PUBCHEM_IUPAC_OPENEYE_NAME>
2-[ethyl(fluoro)phosphoryl]oxybutane
> <PUBCHEM_IUPAC_CAS_NAME>
2-[ethyl(fluoro)phosphoryl]oxybutane
> <PUBCHEM_IUPAC_NAME_MARKUP>
2-[ethyl(fluoro)phosphoryl]oxybutane
> <PUBCHEM_IUPAC_NAME>
2-[ethyl(fluoro)phosphoryl]oxybutane
> <PUBCHEM_IUPAC_SYSTEMATIC_NAME>
2-[ethyl(fluoranyl)phosphoryl]oxybutane
> <PUBCHEM_IUPAC_TRADITIONAL_NAME>
2-[ethyl(fluoro)phosphoryl]oxybutane
> <PUBCHEM_IUPAC_INCHI>
InChI=1S/C6H14FO2P/c1-4-6(3)9-10(7,8)5-2/h6H,4-5H2,1-3H3
> <PUBCHEM_IUPAC_INCHIKEY>
XUDFVXLCFULGLL-UHFFFAOYSA-N
> <PUBCHEM_XLOGP3_AA>
1.7
> <PUBCHEM_EXACT_MASS>
168.07154484
> <PUBCHEM_MOLECULAR_FORMULA>
C6H14FO2P
> <PUBCHEM_MOLECULAR_WEIGHT>
168.15
> <PUBCHEM_OPENEYE_CAN_SMILES>
CCC(C)OP(=O)(CC)F
> <PUBCHEM_OPENEYE_ISO_SMILES>
CCC(C)OP(=O)(CC)F
> <PUBCHEM_CACTVS_TPSA>
26.3
> <PUBCHEM_MONOISOTOPIC_WEIGHT>
168.07154484
> <PUBCHEM_TOTAL_CHARGE>
0
> <PUBCHEM_HEAVY_ATOM_COUNT>
10
> <PUBCHEM_ATOM_DEF_STEREO_COUNT>
0
> <PUBCHEM_ATOM_UDEF_STEREO_COUNT>
2
> <PUBCHEM_BOND_DEF_STEREO_COUNT>
0
> <PUBCHEM_BOND_UDEF_STEREO_COUNT>
0
> <PUBCHEM_ISOTOPIC_ATOM_COUNT>
0
> <PUBCHEM_COMPONENT_COUNT>
1
> <PUBCHEM_CACTVS_TAUTO_COUNT>
-1
> <PUBCHEM_COORDINATE_TYPE>
1
5
255
> <PUBCHEM_BONDANNOTATIONS>
1  2  3
5  7  3
$$$$
