524246
  -OEChem-10302200292D
 47 47  0     1  0  0  0  0  0999 V2000
    3.7320    1.7010    0.0000 O   0  0  0  0  0  0  0  0  0  0  0  0
    2.0000    1.7010    0.0000 O   0  0  0  0  0  0  0  0  0  0  0  0
    3.7320   -0.2990    0.0000 C   0  0  3  0  0  0  0  0  0  0  0  0
    3.7320    0.7010    0.0000 C   0  0  3  0  0  0  0  0  0  0  0  0
    2.8660   -0.7990    0.0000 C   0  0  0  0  0  0  0  0  0  0  0  0
    4.5981   -0.7990    0.0000 C   0  0  0  0  0  0  0  0  0  0  0  0
    4.7320    0.7010    0.0000 C   0  0  0  0  0  0  0  0  0  0  0  0
    2.8660   -1.7990    0.0000 C   0  0  0  0  0  0  0  0  0  0  0  0
    2.7320    0.7010    0.0000 C   0  0  0  0  0  0  0  0  0  0  0  0
    3.7320   -2.2990    0.0000 C   0  0  0  0  0  0  0  0  0  0  0  0
    4.5981   -1.7990    0.0000 C   0  0  0  0  0  0  0  0  0  0  0  0
    5.2320    1.5670    0.0000 C   0  0  0  0  0  0  0  0  0  0  0  0
    3.7320   -3.2990    0.0000 C   0  0  0  0  0  0  0  0  0  0  0  0
    6.2320    1.5670    0.0000 C   0  0  0  0  0  0  0  0  0  0  0  0
    2.8660    2.2010    0.0000 C   0  0  0  0  0  0  0  0  0  0  0  0
    6.7320    2.4330    0.0000 C   0  0  0  0  0  0  0  0  0  0  0  0
    2.8660    3.2010    0.0000 C   0  0  0  0  0  0  0  0  0  0  0  0
    7.7320    2.4330    0.0000 C   0  0  0  0  0  0  0  0  0  0  0  0
    6.2320    3.2990    0.0000 C   0  0  0  0  0  0  0  0  0  0  0  0
    4.2690    0.0110    0.0000 H   0  0  0  0  0  0  0  0  0  0  0  0
    2.6540   -0.2164    0.0000 H   0  0  0  0  0  0  0  0  0  0  0  0
    2.2554   -0.9067    0.0000 H   0  0  0  0  0  0  0  0  0  0  0  0
    5.2087   -0.9067    0.0000 H   0  0  0  0  0  0  0  0  0  0  0  0
    4.8101   -0.2164    0.0000 H   0  0  0  0  0  0  0  0  0  0  0  0
    4.6244    0.0904    0.0000 H   0  0  0  0  0  0  0  0  0  0  0  0
    5.3147    0.4889    0.0000 H   0  0  0  0  0  0  0  0  0  0  0  0
    2.2554   -1.6914    0.0000 H   0  0  0  0  0  0  0  0  0  0  0  0
    2.6540   -2.3816    0.0000 H   0  0  0  0  0  0  0  0  0  0  0  0
    2.7320    1.3210    0.0000 H   0  0  0  0  0  0  0  0  0  0  0  0
    2.1120    0.7010    0.0000 H   0  0  0  0  0  0  0  0  0  0  0  0
    2.7320    0.0810    0.0000 H   0  0  0  0  0  0  0  0  0  0  0  0
    5.1350   -2.1090    0.0000 H   0  0  0  0  0  0  0  0  0  0  0  0
    5.3397    2.1776    0.0000 H   0  0  0  0  0  0  0  0  0  0  0  0
    4.6494    1.7790    0.0000 H   0  0  0  0  0  0  0  0  0  0  0  0
    3.1120   -3.2990    0.0000 H   0  0  0  0  0  0  0  0  0  0  0  0
    3.7320   -3.9190    0.0000 H   0  0  0  0  0  0  0  0  0  0  0  0
    4.3520   -3.2990    0.0000 H   0  0  0  0  0  0  0  0  0  0  0  0
    6.5420    1.0300    0.0000 H   0  0  0  0  0  0  0  0  0  0  0  0
    3.4860    3.2010    0.0000 H   0  0  0  0  0  0  0  0  0  0  0  0
    2.8660    3.8210    0.0000 H   0  0  0  0  0  0  0  0  0  0  0  0
    2.2460    3.2010    0.0000 H   0  0  0  0  0  0  0  0  0  0  0  0
    7.7320    1.8130    0.0000 H   0  0  0  0  0  0  0  0  0  0  0  0
    8.3520    2.4330    0.0000 H   0  0  0  0  0  0  0  0  0  0  0  0
    7.7320    3.0530    0.0000 H   0  0  0  0  0  0  0  0  0  0  0  0
    6.7690    3.6090    0.0000 H   0  0  0  0  0  0  0  0  0  0  0  0
    5.9220    3.8360    0.0000 H   0  0  0  0  0  0  0  0  0  0  0  0
    5.6951    2.9890    0.0000 H   0  0  0  0  0  0  0  0  0  0  0  0
  1  4  1  0  0  0  0
  1 15  1  0  0  0  0
  2 15  2  0  0  0  0
  3  4  1  0  0  0  0
  3  5  1  0  0  0  0
  3  6  1  0  0  0  0
  3 20  1  0  0  0  0
  4  7  1  0  0  0  0
  4  9  1  0  0  0  0
  5  8  1  0  0  0  0
  5 21  1  0  0  0  0
  5 22  1  0  0  0  0
  6 11  1  0  0  0  0
  6 23  1  0  0  0  0
  6 24  1  0  0  0  0
  7 12  1  0  0  0  0
  7 25  1  0  0  0  0
  7 26  1  0  0  0  0
  8 10  1  0  0  0  0
  8 27  1  0  0  0  0
  8 28  1  0  0  0  0
  9 29  1  0  0  0  0
  9 30  1  0  0  0  0
  9 31  1  0  0  0  0
 10 11  2  0  0  0  0
 10 13  1  0  0  0  0
 11 32  1  0  0  0  0
 12 14  1  0  0  0  0
 12 33  1  0  0  0  0
 12 34  1  0  0  0  0
 13 35  1  0  0  0  0
 13 36  1  0  0  0  0
 13 37  1  0  0  0  0
 14 16  2  0  0  0  0
 14 38  1  0  0  0  0
 15 17  1  0  0  0  0
 16 18  1  0  0  0  0
 16 19  1  0  0  0  0
 17 39  1  0  0  0  0
 17 40  1  0  0  0  0
 17 41  1  0  0  0  0
 18 42  1  0  0  0  0
 18 43  1  0  0  0  0
 18 44  1  0  0  0  0
 19 45  1  0  0  0  0
 19 46  1  0  0  0  0
 19 47  1  0  0  0  0
M  END
> <PUBCHEM_COMPOUND_CID>
524246
> <PUBCHEM_COMPOUND_CANONICALIZED>
1
> <PUBCHEM_CACTVS_COMPLEXITY>
375
> <PUBCHEM_CACTVS_HBOND_ACCEPTOR>
2
> <PUBCHEM_CACTVS_HBOND_DONOR>
0
> <PUBCHEM_CACTVS_ROTATABLE_BOND>
6
> <PUBCHEM_CACTVS_SUBSKEYS>
AAADceB4MAAAAAAAAAAAAAAAAAAAAAAAAAAgAAAAAAAAAAAAAAAAGgAAAAAADUSAgAACCAAABACIAiDSCAAAAAAgAAAACAAAAAgAAAIAAQACAAAEgAAIAAOAwMAOgAAAAAAAAAAAAAAAAAAAAAAAAAAAAA==
> <PUBCHEM_IUPAC_OPENEYE_NAME>
[1,5-dimethyl-1-(4-methylcyclohex-3-en-1-yl)hex-4-enyl] acetate
> <PUBCHEM_IUPAC_CAS_NAME>
acetic acid [6-methyl-2-(4-methyl-1-cyclohex-3-enyl)hept-5-en-2-yl] ester
> <PUBCHEM_IUPAC_NAME_MARKUP>
[6-methyl-2-(4-methylcyclohex-3-en-1-yl)hept-5-en-2-yl] acetate
> <PUBCHEM_IUPAC_NAME>
[6-methyl-2-(4-methylcyclohex-3-en-1-yl)hept-5-en-2-yl] acetate
> <PUBCHEM_IUPAC_SYSTEMATIC_NAME>
[6-methyl-2-(4-methylcyclohex-3-en-1-yl)hept-5-en-2-yl] ethanoate
> <PUBCHEM_IUPAC_TRADITIONAL_NAME>
acetic acid [1,5-dimethyl-1-(4-methylcyclohex-3-en-1-yl)hex-4-enyl] ester
> <PUBCHEM_IUPAC_INCHI>
InChI=1S/C17H28O2/c1-13(2)7-6-12-17(5,19-15(4)18)16-10-8-14(3)9-11-16/h7-8,16H,6,9-12H2,1-5H3
> <PUBCHEM_IUPAC_INCHIKEY>
RQYNNIWGGJJGDH-UHFFFAOYSA-N
> <PUBCHEM_XLOGP3_AA>
4.4
> <PUBCHEM_EXACT_MASS>
264.208930132
> <PUBCHEM_MOLECULAR_FORMULA>
C17H28O2
> <PUBCHEM_MOLECULAR_WEIGHT>
264.4
> <PUBCHEM_OPENEYE_CAN_SMILES>
CC1=CCC(CC1)C(C)(CCC=C(C)C)OC(=O)C
> <PUBCHEM_OPENEYE_ISO_SMILES>
CC1=CCC(CC1)C(C)(CCC=C(C)C)OC(=O)C
> <PUBCHEM_CACTVS_TPSA>
26.3
> <PUBCHEM_MONOISOTOPIC_WEIGHT>
264.208930132
> <PUBCHEM_TOTAL_CHARGE>
0
> <PUBCHEM_HEAVY_ATOM_COUNT>
19
> <PUBCHEM_ATOM_DEF_STEREO_COUNT>
0
> <PUBCHEM_ATOM_UDEF_STEREO_COUNT>
2
> <PUBCHEM_BOND_DEF_STEREO_COUNT>
0
> <PUBCHEM_BOND_UDEF_STEREO_COUNT>
0
> <PUBCHEM_ISOTOPIC_ATOM_COUNT>
0
> <PUBCHEM_COMPONENT_COUNT>
1
> <PUBCHEM_CACTVS_TAUTO_COUNT>
-1
> <PUBCHEM_COORDINATE_TYPE>
1
5
255
> <PUBCHEM_BONDANNOTATIONS>
3  5  3
4  9  3
$$$$
