524205
  -OEChem-10302200292D
 29 29  0     1  0  0  0  0  0999 V2000
    3.7320    1.0670    0.0000 C   0  0  3  0  0  0  0  0  0  0  0  0
    4.5981    0.5670    0.0000 C   0  0  0  0  0  0  0  0  0  0  0  0
    2.8660    0.5670    0.0000 C   0  0  0  0  0  0  0  0  0  0  0  0
    4.5981   -0.4330    0.0000 C   0  0  0  0  0  0  0  0  0  0  0  0
    2.8660   -0.4330    0.0000 C   0  0  0  0  0  0  0  0  0  0  0  0
    3.7320   -0.9330    0.0000 C   0  0  0  0  0  0  0  0  0  0  0  0
    3.2320    1.9330    0.0000 C   0  0  0  0  0  0  0  0  0  0  0  0
    4.2320    1.9330    0.0000 C   0  0  0  0  0  0  0  0  0  0  0  0
    2.0000   -0.9330    0.0000 C   0  0  0  0  0  0  0  0  0  0  0  0
    3.7320   -1.9330    0.0000 C   0  0  0  0  0  0  0  0  0  0  0  0
    5.2320    1.9330    0.0000 C   0  0  0  0  0  0  0  0  0  0  0  0
    5.2087    0.4593    0.0000 H   0  0  0  0  0  0  0  0  0  0  0  0
    4.8101    1.1496    0.0000 H   0  0  0  0  0  0  0  0  0  0  0  0
    2.6540    1.1496    0.0000 H   0  0  0  0  0  0  0  0  0  0  0  0
    2.2554    0.4593    0.0000 H   0  0  0  0  0  0  0  0  0  0  0  0
    4.8101   -1.0156    0.0000 H   0  0  0  0  0  0  0  0  0  0  0  0
    5.2087   -0.3254    0.0000 H   0  0  0  0  0  0  0  0  0  0  0  0
    3.7690    2.2430    0.0000 H   0  0  0  0  0  0  0  0  0  0  0  0
    2.9220    2.4700    0.0000 H   0  0  0  0  0  0  0  0  0  0  0  0
    2.6951    1.6230    0.0000 H   0  0  0  0  0  0  0  0  0  0  0  0
    3.9220    2.4700    0.0000 H   0  0  0  0  0  0  0  0  0  0  0  0
    1.6900   -0.3961    0.0000 H   0  0  0  0  0  0  0  0  0  0  0  0
    1.4631   -1.2430    0.0000 H   0  0  0  0  0  0  0  0  0  0  0  0
    2.3100   -1.4700    0.0000 H   0  0  0  0  0  0  0  0  0  0  0  0
    3.1120   -1.9330    0.0000 H   0  0  0  0  0  0  0  0  0  0  0  0
    3.7320   -2.5530    0.0000 H   0  0  0  0  0  0  0  0  0  0  0  0
    4.3520   -1.9330    0.0000 H   0  0  0  0  0  0  0  0  0  0  0  0
    5.5420    1.3961    0.0000 H   0  0  0  0  0  0  0  0  0  0  0  0
    5.5420    2.4700    0.0000 H   0  0  0  0  0  0  0  0  0  0  0  0
  1  2  1  0  0  0  0
  1  3  1  0  0  0  0
  1  7  1  0  0  0  0
  1  8  1  0  0  0  0
  2  4  1  0  0  0  0
  2 12  1  0  0  0  0
  2 13  1  0  0  0  0
  3  5  1  0  0  0  0
  3 14  1  0  0  0  0
  3 15  1  0  0  0  0
  4  6  1  0  0  0  0
  4 16  1  0  0  0  0
  4 17  1  0  0  0  0
  5  6  2  0  0  0  0
  5  9  1  0  0  0  0
  6 10  1  0  0  0  0
  7 18  1  0  0  0  0
  7 19  1  0  0  0  0
  7 20  1  0  0  0  0
  8 11  2  0  0  0  0
  8 21  1  0  0  0  0
  9 22  1  0  0  0  0
  9 23  1  0  0  0  0
  9 24  1  0  0  0  0
 10 25  1  0  0  0  0
 10 26  1  0  0  0  0
 10 27  1  0  0  0  0
 11 28  1  0  0  0  0
 11 29  1  0  0  0  0
M  END
> <PUBCHEM_COMPOUND_CID>
524205
> <PUBCHEM_COMPOUND_CANONICALIZED>
1
> <PUBCHEM_CACTVS_COMPLEXITY>
198
> <PUBCHEM_CACTVS_HBOND_ACCEPTOR>
0
> <PUBCHEM_CACTVS_HBOND_DONOR>
0
> <PUBCHEM_CACTVS_ROTATABLE_BOND>
1
> <PUBCHEM_CACTVS_SUBSKEYS>
AAADceBwAAAAAAAAAAAAAAAAAAAAAAAAAAAgAAAAAAAAAAAAAAAAGAAAAAAADgCAAAACAAAAAACAAiBCAAAAAAAgAAAICAAAAAgAAAIAAAAAAAAAgAAIAAMAgIAPAAAAAAAAAAAAAAAAAAAAAAAAAAAAAA==
> <PUBCHEM_IUPAC_OPENEYE_NAME>
1,2,4-trimethyl-4-vinyl-cyclohexene
> <PUBCHEM_IUPAC_CAS_NAME>
4-ethenyl-1,2,4-trimethylcyclohexene
> <PUBCHEM_IUPAC_NAME_MARKUP>
4-ethenyl-1,2,4-trimethylcyclohexene
> <PUBCHEM_IUPAC_NAME>
4-ethenyl-1,2,4-trimethylcyclohexene
> <PUBCHEM_IUPAC_SYSTEMATIC_NAME>
4-ethenyl-1,2,4-trimethyl-cyclohexene
> <PUBCHEM_IUPAC_TRADITIONAL_NAME>
1,2,4-trimethyl-4-vinyl-cyclohexene
> <PUBCHEM_IUPAC_INCHI>
InChI=1S/C11H18/c1-5-11(4)7-6-9(2)10(3)8-11/h5H,1,6-8H2,2-4H3
> <PUBCHEM_IUPAC_INCHIKEY>
IVYYYULHFGBRLJ-UHFFFAOYSA-N
> <PUBCHEM_XLOGP3_AA>
3.2
> <PUBCHEM_EXACT_MASS>
150.140850574
> <PUBCHEM_MOLECULAR_FORMULA>
C11H18
> <PUBCHEM_MOLECULAR_WEIGHT>
150.26
> <PUBCHEM_OPENEYE_CAN_SMILES>
CC1=C(CC(CC1)(C)C=C)C
> <PUBCHEM_OPENEYE_ISO_SMILES>
CC1=C(CC(CC1)(C)C=C)C
> <PUBCHEM_CACTVS_TPSA>
0
> <PUBCHEM_MONOISOTOPIC_WEIGHT>
150.140850574
> <PUBCHEM_TOTAL_CHARGE>
0
> <PUBCHEM_HEAVY_ATOM_COUNT>
11
> <PUBCHEM_ATOM_DEF_STEREO_COUNT>
0
> <PUBCHEM_ATOM_UDEF_STEREO_COUNT>
1
> <PUBCHEM_BOND_DEF_STEREO_COUNT>
0
> <PUBCHEM_BOND_UDEF_STEREO_COUNT>
0
> <PUBCHEM_ISOTOPIC_ATOM_COUNT>
0
> <PUBCHEM_COMPONENT_COUNT>
1
> <PUBCHEM_CACTVS_TAUTO_COUNT>
-1
> <PUBCHEM_COORDINATE_TYPE>
1
5
255
> <PUBCHEM_BONDANNOTATIONS>
1  7  3
$$$$
