524398
  -OEChem-10302200292D
 36 36  0     1  0  0  0  0  0999 V2000
    6.3301   -1.0000    0.0000 O   0  0  0  0  0  0  0  0  0  0  0  0
    4.5981   -1.0000    0.0000 O   0  0  0  0  0  0  0  0  0  0  0  0
    8.0622   -1.0000    0.0000 O   0  0  0  0  0  0  0  0  0  0  0  0
    6.3301    1.0000    0.0000 C   0  0  0  0  0  0  0  0  0  0  0  0
    5.4641    0.5000    0.0000 C   0  0  0  0  0  0  0  0  0  0  0  0
    7.1962    0.5000    0.0000 C   0  0  0  0  0  0  0  0  0  0  0  0
    5.4641   -0.5000    0.0000 C   0  0  3  0  0  0  0  0  0  0  0  0
    7.1962   -0.5000    0.0000 C   0  0  3  0  0  0  0  0  0  0  0  0
    3.7320   -0.5000    0.0000 C   0  0  0  0  0  0  0  0  0  0  0  0
    8.9282   -0.5000    0.0000 C   0  0  0  0  0  0  0  0  0  0  0  0
    2.8660   -1.0000    0.0000 C   0  0  0  0  0  0  0  0  0  0  0  0
    9.7942   -1.0000    0.0000 C   0  0  0  0  0  0  0  0  0  0  0  0
    2.0000   -0.5000    0.0000 C   0  0  0  0  0  0  0  0  0  0  0  0
   10.6603   -0.5000    0.0000 C   0  0  0  0  0  0  0  0  0  0  0  0
    6.7287    1.4750    0.0000 H   0  0  0  0  0  0  0  0  0  0  0  0
    5.9316    1.4750    0.0000 H   0  0  0  0  0  0  0  0  0  0  0  0
    5.2520    1.0826    0.0000 H   0  0  0  0  0  0  0  0  0  0  0  0
    4.8535    0.3923    0.0000 H   0  0  0  0  0  0  0  0  0  0  0  0
    7.8067    0.3923    0.0000 H   0  0  0  0  0  0  0  0  0  0  0  0
    7.4082    1.0826    0.0000 H   0  0  0  0  0  0  0  0  0  0  0  0
    5.4641   -1.1200    0.0000 H   0  0  0  0  0  0  0  0  0  0  0  0
    7.7331   -0.1900    0.0000 H   0  0  0  0  0  0  0  0  0  0  0  0
    4.1306   -0.0251    0.0000 H   0  0  0  0  0  0  0  0  0  0  0  0
    3.3335   -0.0251    0.0000 H   0  0  0  0  0  0  0  0  0  0  0  0
    9.3267   -0.0251    0.0000 H   0  0  0  0  0  0  0  0  0  0  0  0
    8.5297   -0.0251    0.0000 H   0  0  0  0  0  0  0  0  0  0  0  0
    2.4675   -1.4750    0.0000 H   0  0  0  0  0  0  0  0  0  0  0  0
    3.2646   -1.4750    0.0000 H   0  0  0  0  0  0  0  0  0  0  0  0
    9.3957   -1.4750    0.0000 H   0  0  0  0  0  0  0  0  0  0  0  0
   10.1928   -1.4750    0.0000 H   0  0  0  0  0  0  0  0  0  0  0  0
    2.3100    0.0369    0.0000 H   0  0  0  0  0  0  0  0  0  0  0  0
    1.4631   -0.1900    0.0000 H   0  0  0  0  0  0  0  0  0  0  0  0
    1.6900   -1.0369    0.0000 H   0  0  0  0  0  0  0  0  0  0  0  0
   10.9703   -1.0369    0.0000 H   0  0  0  0  0  0  0  0  0  0  0  0
   11.1972   -0.1900    0.0000 H   0  0  0  0  0  0  0  0  0  0  0  0
   10.3503    0.0369    0.0000 H   0  0  0  0  0  0  0  0  0  0  0  0
  1  7  1  0  0  0  0
  1  8  1  0  0  0  0
  2  7  1  0  0  0  0
  2  9  1  0  0  0  0
  3  8  1  0  0  0  0
  3 10  1  0  0  0  0
  4  5  1  0  0  0  0
  4  6  1  0  0  0  0
  4 15  1  0  0  0  0
  4 16  1  0  0  0  0
  5  7  1  0  0  0  0
  5 17  1  0  0  0  0
  5 18  1  0  0  0  0
  6  8  1  0  0  0  0
  6 19  1  0  0  0  0
  6 20  1  0  0  0  0
  7 21  1  0  0  0  0
  8 22  1  0  0  0  0
  9 11  1  0  0  0  0
  9 23  1  0  0  0  0
  9 24  1  0  0  0  0
 10 12  1  0  0  0  0
 10 25  1  0  0  0  0
 10 26  1  0  0  0  0
 11 13  1  0  0  0  0
 11 27  1  0  0  0  0
 11 28  1  0  0  0  0
 12 14  1  0  0  0  0
 12 29  1  0  0  0  0
 12 30  1  0  0  0  0
 13 31  1  0  0  0  0
 13 32  1  0  0  0  0
 13 33  1  0  0  0  0
 14 34  1  0  0  0  0
 14 35  1  0  0  0  0
 14 36  1  0  0  0  0
M  END
> <PUBCHEM_COMPOUND_CID>
524398
> <PUBCHEM_COMPOUND_CANONICALIZED>
1
> <PUBCHEM_CACTVS_COMPLEXITY>
125
> <PUBCHEM_CACTVS_HBOND_ACCEPTOR>
3
> <PUBCHEM_CACTVS_HBOND_DONOR>
0
> <PUBCHEM_CACTVS_ROTATABLE_BOND>
6
> <PUBCHEM_CACTVS_SUBSKEYS>
AAADceBwMAAAAAAAAAAAAAAAAAAAAAAAAAAkAAAAAAAAAAAAAAAAGgAAAAAACACwgAMCCAAABAAAAAAAAAAAAAAAAAAAAAAAAAAQAAIAAAAiAAAEAAAEAACAIAgAAAAAAAAAAAAAAAAAAAAAAAAAAAAAAA==
> <PUBCHEM_IUPAC_OPENEYE_NAME>
2,6-dipropoxytetrahydropyran
> <PUBCHEM_IUPAC_CAS_NAME>
2,6-dipropoxyoxane
> <PUBCHEM_IUPAC_NAME_MARKUP>
2,6-dipropoxyoxane
> <PUBCHEM_IUPAC_NAME>
2,6-dipropoxyoxane
> <PUBCHEM_IUPAC_SYSTEMATIC_NAME>
2,6-dipropoxyoxane
> <PUBCHEM_IUPAC_TRADITIONAL_NAME>
2,6-dipropoxytetrahydropyran
> <PUBCHEM_IUPAC_INCHI>
InChI=1S/C11H22O3/c1-3-8-12-10-6-5-7-11(14-10)13-9-4-2/h10-11H,3-9H2,1-2H3
> <PUBCHEM_IUPAC_INCHIKEY>
VFFAGSFTJRWPGJ-UHFFFAOYSA-N
> <PUBCHEM_XLOGP3_AA>
2.7
> <PUBCHEM_EXACT_MASS>
202.15689456
> <PUBCHEM_MOLECULAR_FORMULA>
C11H22O3
> <PUBCHEM_MOLECULAR_WEIGHT>
202.29
> <PUBCHEM_OPENEYE_CAN_SMILES>
CCCOC1CCCC(O1)OCCC
> <PUBCHEM_OPENEYE_ISO_SMILES>
CCCOC1CCCC(O1)OCCC
> <PUBCHEM_CACTVS_TPSA>
27.7
> <PUBCHEM_MONOISOTOPIC_WEIGHT>
202.15689456
> <PUBCHEM_TOTAL_CHARGE>
0
> <PUBCHEM_HEAVY_ATOM_COUNT>
14
> <PUBCHEM_ATOM_DEF_STEREO_COUNT>
0
> <PUBCHEM_ATOM_UDEF_STEREO_COUNT>
2
> <PUBCHEM_BOND_DEF_STEREO_COUNT>
0
> <PUBCHEM_BOND_UDEF_STEREO_COUNT>
0
> <PUBCHEM_ISOTOPIC_ATOM_COUNT>
0
> <PUBCHEM_COMPONENT_COUNT>
1
> <PUBCHEM_CACTVS_TAUTO_COUNT>
-1
> <PUBCHEM_COORDINATE_TYPE>
1
5
255
> <PUBCHEM_BONDANNOTATIONS>
7  2  3
8  3  3
$$$$
