524395
  -OEChem-10302200292D
 14 14  0     1  0  0  0  0  0999 V2000
    3.6233    1.1890    0.0000 Cl  0  0  0  0  0  0  0  0  0  0  0  0
    4.7111   -1.1588    0.0000 O   0  0  0  0  0  0  0  0  0  0  0  0
    2.0000   -1.1890    0.0000 N   0  0  0  0  0  0  0  0  0  0  0  0
    4.2111    0.3800    0.0000 C   0  0  3  0  0  0  0  0  0  0  0  0
    5.2111    0.3800    0.0000 C   0  0  0  0  0  0  0  0  0  0  0  0
    3.9021   -0.5710    0.0000 C   0  0  3  0  0  0  0  0  0  0  0  0
    5.5202   -0.5710    0.0000 C   0  0  0  0  0  0  0  0  0  0  0  0
    2.9511   -0.8800    0.0000 C   0  0  0  0  0  0  0  0  0  0  0  0
    4.4926    0.9325    0.0000 H   0  0  0  0  0  0  0  0  0  0  0  0
    5.8176    0.5089    0.0000 H   0  0  0  0  0  0  0  0  0  0  0  0
    5.1463    0.9966    0.0000 H   0  0  0  0  0  0  0  0  0  0  0  0
    3.8051   -1.1834    0.0000 H   0  0  0  0  0  0  0  0  0  0  0  0
    5.8302   -1.1080    0.0000 H   0  0  0  0  0  0  0  0  0  0  0  0
    6.0865   -0.3188    0.0000 H   0  0  0  0  0  0  0  0  0  0  0  0
  1  4  1  0  0  0  0
  2  6  1  0  0  0  0
  2  7  1  0  0  0  0
  3  8  3  0  0  0  0
  4  5  1  0  0  0  0
  4  6  1  0  0  0  0
  4  9  1  0  0  0  0
  5  7  1  0  0  0  0
  5 10  1  0  0  0  0
  5 11  1  0  0  0  0
  6  8  1  0  0  0  0
  6 12  1  0  0  0  0
  7 13  1  0  0  0  0
  7 14  1  0  0  0  0
M  END
> <PUBCHEM_COMPOUND_CID>
524395
> <PUBCHEM_COMPOUND_CANONICALIZED>
1
> <PUBCHEM_CACTVS_COMPLEXITY>
128
> <PUBCHEM_CACTVS_HBOND_ACCEPTOR>
2
> <PUBCHEM_CACTVS_HBOND_DONOR>
0
> <PUBCHEM_CACTVS_ROTATABLE_BOND>
0
> <PUBCHEM_CACTVS_SUBSKEYS>
AAADcYBiIAAEAAAAAAAAAAAAAAAAASAAAAAAAAAAAAAAAAAAAAAAHgIAAAAACBehgEIAAAAABAAQBAAAAAAAAAAAAAAAAAAAAwAAgAIAAAACAAAEAAAAAAiAAAAAAAAAAAAAAAAAAAAAAAAAAAAAAAAAAA==
> <PUBCHEM_IUPAC_OPENEYE_NAME>
3-chlorotetrahydrofuran-2-carbonitrile
> <PUBCHEM_IUPAC_CAS_NAME>
3-chloro-2-oxolanecarbonitrile
> <PUBCHEM_IUPAC_NAME_MARKUP>
3-chlorooxolane-2-carbonitrile
> <PUBCHEM_IUPAC_NAME>
3-chlorooxolane-2-carbonitrile
> <PUBCHEM_IUPAC_SYSTEMATIC_NAME>
3-chloranyloxolane-2-carbonitrile
> <PUBCHEM_IUPAC_TRADITIONAL_NAME>
3-chlorotetrahydrofuran-2-carbonitrile
> <PUBCHEM_IUPAC_INCHI>
InChI=1S/C5H6ClNO/c6-4-1-2-8-5(4)3-7/h4-5H,1-2H2
> <PUBCHEM_IUPAC_INCHIKEY>
YTJXXPVBNLXGPI-UHFFFAOYSA-N
> <PUBCHEM_XLOGP3_AA>
0.7
> <PUBCHEM_EXACT_MASS>
131.0137915
> <PUBCHEM_MOLECULAR_FORMULA>
C5H6ClNO
> <PUBCHEM_MOLECULAR_WEIGHT>
131.56
> <PUBCHEM_OPENEYE_CAN_SMILES>
C1COC(C1Cl)C#N
> <PUBCHEM_OPENEYE_ISO_SMILES>
C1COC(C1Cl)C#N
> <PUBCHEM_CACTVS_TPSA>
33
> <PUBCHEM_MONOISOTOPIC_WEIGHT>
131.0137915
> <PUBCHEM_TOTAL_CHARGE>
0
> <PUBCHEM_HEAVY_ATOM_COUNT>
8
> <PUBCHEM_ATOM_DEF_STEREO_COUNT>
0
> <PUBCHEM_ATOM_UDEF_STEREO_COUNT>
2
> <PUBCHEM_BOND_DEF_STEREO_COUNT>
0
> <PUBCHEM_BOND_UDEF_STEREO_COUNT>
0
> <PUBCHEM_ISOTOPIC_ATOM_COUNT>
0
> <PUBCHEM_COMPONENT_COUNT>
1
> <PUBCHEM_CACTVS_TAUTO_COUNT>
-1
> <PUBCHEM_COORDINATE_TYPE>
1
5
255
> <PUBCHEM_BONDANNOTATIONS>
4  1  3
6  8  3
$$$$
