524374
  -OEChem-10302200292D
 23 23  0     1  0  0  0  0  0999 V2000
    4.0392    2.1672    0.0000 Cl  0  0  0  0  0  0  0  0  0  0  0  0
    2.0000   -2.1672    0.0000 Cl  0  0  0  0  0  0  0  0  0  0  0  0
    5.1270   -0.1807    0.0000 O   0  0  0  0  0  0  0  0  0  0  0  0
    3.3669    0.0981    0.0000 O   0  0  0  0  0  0  0  0  0  0  0  0
    4.3179    0.4071    0.0000 C   0  0  3  0  0  0  0  0  0  0  0  0
    4.6270    1.3582    0.0000 C   0  0  3  0  0  0  0  0  0  0  0  0
    5.6270    1.3582    0.0000 C   0  0  0  0  0  0  0  0  0  0  0  0
    5.9360    0.4071    0.0000 C   0  0  0  0  0  0  0  0  0  0  0  0
    3.1590   -0.8800    0.0000 C   0  0  3  0  0  0  0  0  0  0  0  0
    2.2079   -1.1890    0.0000 C   0  0  0  0  0  0  0  0  0  0  0  0
    3.9021   -1.5492    0.0000 C   0  0  0  0  0  0  0  0  0  0  0  0
    3.8795    0.8455    0.0000 H   0  0  0  0  0  0  0  0  0  0  0  0
    4.9084    1.9106    0.0000 H   0  0  0  0  0  0  0  0  0  0  0  0
    6.2334    1.4871    0.0000 H   0  0  0  0  0  0  0  0  0  0  0  0
    5.5622    1.9748    0.0000 H   0  0  0  0  0  0  0  0  0  0  0  0
    6.2460   -0.1298    0.0000 H   0  0  0  0  0  0  0  0  0  0  0  0
    6.5024    0.6593    0.0000 H   0  0  0  0  0  0  0  0  0  0  0  0
    2.6982   -0.4652    0.0000 H   0  0  0  0  0  0  0  0  0  0  0  0
    2.1216   -0.5751    0.0000 H   0  0  0  0  0  0  0  0  0  0  0  0
    1.5883   -1.1674    0.0000 H   0  0  0  0  0  0  0  0  0  0  0  0
    3.4872   -2.0099    0.0000 H   0  0  0  0  0  0  0  0  0  0  0  0
    4.3629   -1.9640    0.0000 H   0  0  0  0  0  0  0  0  0  0  0  0
    4.3170   -1.0884    0.0000 H   0  0  0  0  0  0  0  0  0  0  0  0
  1  6  1  0  0  0  0
  2 10  1  0  0  0  0
  3  5  1  0  0  0  0
  3  8  1  0  0  0  0
  4  5  1  0  0  0  0
  4  9  1  0  0  0  0
  5  6  1  0  0  0  0
  5 12  1  0  0  0  0
  6  7  1  0  0  0  0
  6 13  1  0  0  0  0
  7  8  1  0  0  0  0
  7 14  1  0  0  0  0
  7 15  1  0  0  0  0
  8 16  1  0  0  0  0
  8 17  1  0  0  0  0
  9 10  1  0  0  0  0
  9 11  1  0  0  0  0
  9 18  1  0  0  0  0
 10 19  1  0  0  0  0
 10 20  1  0  0  0  0
 11 21  1  0  0  0  0
 11 22  1  0  0  0  0
 11 23  1  0  0  0  0
M  END
> <PUBCHEM_COMPOUND_CID>
524374
> <PUBCHEM_COMPOUND_CANONICALIZED>
1
> <PUBCHEM_CACTVS_COMPLEXITY>
121
> <PUBCHEM_CACTVS_HBOND_ACCEPTOR>
2
> <PUBCHEM_CACTVS_HBOND_DONOR>
0
> <PUBCHEM_CACTVS_ROTATABLE_BOND>
3
> <PUBCHEM_CACTVS_SUBSKEYS>
AAADccBgMAAGAAAAAAAAAAAAAAAAASAAAAAAAAAAAAAAAAAAAAAAGgIAAAAACBewgEMCCAAABAAAAAAAAAAAAAAAAAAAAAAAAwAQAAAAAAAiAAAEAAAEAABAAAAAAAAAAAAAAAAAAAAAAAAAAAAAAAAAAA==
> <PUBCHEM_IUPAC_OPENEYE_NAME>
3-chloro-2-(2-chloro-1-methyl-ethoxy)tetrahydrofuran
> <PUBCHEM_IUPAC_CAS_NAME>
3-chloro-2-(1-chloropropan-2-yloxy)oxolane
> <PUBCHEM_IUPAC_NAME_MARKUP>
3-chloro-2-(1-chloropropan-2-yloxy)oxolane
> <PUBCHEM_IUPAC_NAME>
3-chloro-2-(1-chloropropan-2-yloxy)oxolane
> <PUBCHEM_IUPAC_SYSTEMATIC_NAME>
3-chloranyl-2-(1-chloranylpropan-2-yloxy)oxolane
> <PUBCHEM_IUPAC_TRADITIONAL_NAME>
3-chloro-2-(2-chloro-1-methyl-ethoxy)tetrahydrofuran
> <PUBCHEM_IUPAC_INCHI>
InChI=1S/C7H12Cl2O2/c1-5(4-8)11-7-6(9)2-3-10-7/h5-7H,2-4H2,1H3
> <PUBCHEM_IUPAC_INCHIKEY>
NSFXETNRVMXJQT-UHFFFAOYSA-N
> <PUBCHEM_XLOGP3_AA>
1.9
> <PUBCHEM_EXACT_MASS>
198.0214350
> <PUBCHEM_MOLECULAR_FORMULA>
C7H12Cl2O2
> <PUBCHEM_MOLECULAR_WEIGHT>
199.07
> <PUBCHEM_OPENEYE_CAN_SMILES>
CC(CCl)OC1C(CCO1)Cl
> <PUBCHEM_OPENEYE_ISO_SMILES>
CC(CCl)OC1C(CCO1)Cl
> <PUBCHEM_CACTVS_TPSA>
18.5
> <PUBCHEM_MONOISOTOPIC_WEIGHT>
198.0214350
> <PUBCHEM_TOTAL_CHARGE>
0
> <PUBCHEM_HEAVY_ATOM_COUNT>
11
> <PUBCHEM_ATOM_DEF_STEREO_COUNT>
0
> <PUBCHEM_ATOM_UDEF_STEREO_COUNT>
3
> <PUBCHEM_BOND_DEF_STEREO_COUNT>
0
> <PUBCHEM_BOND_UDEF_STEREO_COUNT>
0
> <PUBCHEM_ISOTOPIC_ATOM_COUNT>
0
> <PUBCHEM_COMPONENT_COUNT>
1
> <PUBCHEM_CACTVS_TAUTO_COUNT>
-1
> <PUBCHEM_COORDINATE_TYPE>
1
5
255
> <PUBCHEM_BONDANNOTATIONS>
6  1  3
5  4  3
9  11  3
$$$$
