524373
  -OEChem-10302200292D
 23 23  0     1  0  0  0  0  0999 V2000
    5.9360   -1.5826    0.0000 Cl  0  0  0  0  0  0  0  0  0  0  0  0
    4.2418   -1.9428    0.0000 Cl  0  0  0  0  0  0  0  0  0  0  0  0
    2.8090    0.4039    0.0000 O   0  0  0  0  0  0  0  0  0  0  0  0
    4.5691    0.6827    0.0000 O   0  0  0  0  0  0  0  0  0  0  0  0
    3.6180    0.9917    0.0000 C   0  0  3  0  0  0  0  0  0  0  0  0
    3.3090    1.9428    0.0000 C   0  0  0  0  0  0  0  0  0  0  0  0
    2.3090    1.9428    0.0000 C   0  0  0  0  0  0  0  0  0  0  0  0
    2.0000    0.9917    0.0000 C   0  0  0  0  0  0  0  0  0  0  0  0
    4.7770   -0.2955    0.0000 C   0  0  0  0  0  0  0  0  0  0  0  0
    5.7281   -0.6045    0.0000 C   0  0  0  0  0  0  0  0  0  0  0  0
    4.0339   -0.9646    0.0000 C   0  0  0  0  0  0  0  0  0  0  0  0
    4.0564    1.4301    0.0000 H   0  0  0  0  0  0  0  0  0  0  0  0
    3.9155    2.0716    0.0000 H   0  0  0  0  0  0  0  0  0  0  0  0
    3.2442    2.5593    0.0000 H   0  0  0  0  0  0  0  0  0  0  0  0
    2.3738    2.5593    0.0000 H   0  0  0  0  0  0  0  0  0  0  0  0
    1.7026    2.0716    0.0000 H   0  0  0  0  0  0  0  0  0  0  0  0
    1.4336    1.2439    0.0000 H   0  0  0  0  0  0  0  0  0  0  0  0
    1.6900    0.4548    0.0000 H   0  0  0  0  0  0  0  0  0  0  0  0
    5.2378    0.1194    0.0000 H   0  0  0  0  0  0  0  0  0  0  0  0
    6.3477   -0.5829    0.0000 H   0  0  0  0  0  0  0  0  0  0  0  0
    5.8144    0.0095    0.0000 H   0  0  0  0  0  0  0  0  0  0  0  0
    3.7053   -0.4388    0.0000 H   0  0  0  0  0  0  0  0  0  0  0  0
    3.4590   -1.1969    0.0000 H   0  0  0  0  0  0  0  0  0  0  0  0
  1 10  1  0  0  0  0
  2 11  1  0  0  0  0
  3  5  1  0  0  0  0
  3  8  1  0  0  0  0
  4  5  1  0  0  0  0
  4  9  1  0  0  0  0
  5  6  1  0  0  0  0
  5 12  1  0  0  0  0
  6  7  1  0  0  0  0
  6 13  1  0  0  0  0
  6 14  1  0  0  0  0
  7  8  1  0  0  0  0
  7 15  1  0  0  0  0
  7 16  1  0  0  0  0
  8 17  1  0  0  0  0
  8 18  1  0  0  0  0
  9 10  1  0  0  0  0
  9 11  1  0  0  0  0
  9 19  1  0  0  0  0
 10 20  1  0  0  0  0
 10 21  1  0  0  0  0
 11 22  1  0  0  0  0
 11 23  1  0  0  0  0
M  END
> <PUBCHEM_COMPOUND_CID>
524373
> <PUBCHEM_COMPOUND_CANONICALIZED>
1
> <PUBCHEM_CACTVS_COMPLEXITY>
107
> <PUBCHEM_CACTVS_HBOND_ACCEPTOR>
2
> <PUBCHEM_CACTVS_HBOND_DONOR>
0
> <PUBCHEM_CACTVS_ROTATABLE_BOND>
4
> <PUBCHEM_CACTVS_SUBSKEYS>
AAADccBgMAAGAAAAAAAAAAAAAAAAASAAAAAAAAAAAAAAAAAAAAAAGgIAAAAACBewgEMACAAABAAAAAAAAAAAAAAAAAAAAAAAAwAQAAAAAAAiAAAEAAAEAABAAAAAAAAAAAAAAAAAAAAAAAAAAAAAAAAAAA==
> <PUBCHEM_IUPAC_OPENEYE_NAME>
2-[2-chloro-1-(chloromethyl)ethoxy]tetrahydrofuran
> <PUBCHEM_IUPAC_CAS_NAME>
2-(1,3-dichloropropan-2-yloxy)oxolane
> <PUBCHEM_IUPAC_NAME_MARKUP>
2-(1,3-dichloropropan-2-yloxy)oxolane
> <PUBCHEM_IUPAC_NAME>
2-(1,3-dichloropropan-2-yloxy)oxolane
> <PUBCHEM_IUPAC_SYSTEMATIC_NAME>
2-[1,3-bis(chloranyl)propan-2-yloxy]oxolane
> <PUBCHEM_IUPAC_TRADITIONAL_NAME>
2-[2-chloro-1-(chloromethyl)ethoxy]tetrahydrofuran
> <PUBCHEM_IUPAC_INCHI>
InChI=1S/C7H12Cl2O2/c8-4-6(5-9)11-7-2-1-3-10-7/h6-7H,1-5H2
> <PUBCHEM_IUPAC_INCHIKEY>
URMBWULTRXBFGL-UHFFFAOYSA-N
> <PUBCHEM_XLOGP3_AA>
1.8
> <PUBCHEM_EXACT_MASS>
198.0214350
> <PUBCHEM_MOLECULAR_FORMULA>
C7H12Cl2O2
> <PUBCHEM_MOLECULAR_WEIGHT>
199.07
> <PUBCHEM_OPENEYE_CAN_SMILES>
C1CC(OC1)OC(CCl)CCl
> <PUBCHEM_OPENEYE_ISO_SMILES>
C1CC(OC1)OC(CCl)CCl
> <PUBCHEM_CACTVS_TPSA>
18.5
> <PUBCHEM_MONOISOTOPIC_WEIGHT>
198.0214350
> <PUBCHEM_TOTAL_CHARGE>
0
> <PUBCHEM_HEAVY_ATOM_COUNT>
11
> <PUBCHEM_ATOM_DEF_STEREO_COUNT>
0
> <PUBCHEM_ATOM_UDEF_STEREO_COUNT>
1
> <PUBCHEM_BOND_DEF_STEREO_COUNT>
0
> <PUBCHEM_BOND_UDEF_STEREO_COUNT>
0
> <PUBCHEM_ISOTOPIC_ATOM_COUNT>
0
> <PUBCHEM_COMPONENT_COUNT>
1
> <PUBCHEM_CACTVS_TAUTO_COUNT>
-1
> <PUBCHEM_COORDINATE_TYPE>
1
5
255
> <PUBCHEM_BONDANNOTATIONS>
5  4  3
$$$$
