524385
  -OEChem-10302200292D
 17 17  0     1  0  0  0  0  0999 V2000
    3.8313    1.6781    0.0000 Cl  0  0  0  0  0  0  0  0  0  0  0  0
    2.0000   -1.6781    0.0000 Cl  0  0  0  0  0  0  0  0  0  0  0  0
    4.9190   -0.6697    0.0000 O   0  0  0  0  0  0  0  0  0  0  0  0
    3.1590   -0.3910    0.0000 O   0  0  0  0  0  0  0  0  0  0  0  0
    4.4190    0.8691    0.0000 C   0  0  3  0  0  0  0  0  0  0  0  0
    5.4190    0.8691    0.0000 C   0  0  0  0  0  0  0  0  0  0  0  0
    4.1100   -0.0819    0.0000 C   0  0  3  0  0  0  0  0  0  0  0  0
    5.7281   -0.0819    0.0000 C   0  0  0  0  0  0  0  0  0  0  0  0
    2.9511   -1.3691    0.0000 C   0  0  0  0  0  0  0  0  0  0  0  0
    3.8067    0.7721    0.0000 H   0  0  0  0  0  0  0  0  0  0  0  0
    6.0255    0.9980    0.0000 H   0  0  0  0  0  0  0  0  0  0  0  0
    5.3542    1.4857    0.0000 H   0  0  0  0  0  0  0  0  0  0  0  0
    4.0130   -0.6943    0.0000 H   0  0  0  0  0  0  0  0  0  0  0  0
    6.0381   -0.6189    0.0000 H   0  0  0  0  0  0  0  0  0  0  0  0
    6.2945    0.1702    0.0000 H   0  0  0  0  0  0  0  0  0  0  0  0
    3.0373   -1.9831    0.0000 H   0  0  0  0  0  0  0  0  0  0  0  0
    3.5707   -1.3908    0.0000 H   0  0  0  0  0  0  0  0  0  0  0  0
  1  5  1  0  0  0  0
  2  9  1  0  0  0  0
  3  7  1  0  0  0  0
  3  8  1  0  0  0  0
  4  7  1  0  0  0  0
  4  9  1  0  0  0  0
  5  6  1  0  0  0  0
  5  7  1  0  0  0  0
  5 10  1  0  0  0  0
  6  8  1  0  0  0  0
  6 11  1  0  0  0  0
  6 12  1  0  0  0  0
  7 13  1  0  0  0  0
  8 14  1  0  0  0  0
  8 15  1  0  0  0  0
  9 16  1  0  0  0  0
  9 17  1  0  0  0  0
M  END
> <PUBCHEM_COMPOUND_CID>
524385
> <PUBCHEM_COMPOUND_CANONICALIZED>
1
> <PUBCHEM_CACTVS_COMPLEXITY>
89
> <PUBCHEM_CACTVS_HBOND_ACCEPTOR>
2
> <PUBCHEM_CACTVS_HBOND_DONOR>
0
> <PUBCHEM_CACTVS_ROTATABLE_BOND>
2
> <PUBCHEM_CACTVS_SUBSKEYS>
AAADccBgMAAGAAAAAAAAAAAAAAAAASAAAAAAAAAAAAAAAAAAAAAAGgIAAAAACAOwgEMACAAABAAAAAAAAAAAAAAAAAAAAAAAAwAQAAAAAAAiAAAEAAAEAABAAAAAAAAAAAAAAAAAAAAAAAAAAAAAAAAAAA==
> <PUBCHEM_IUPAC_OPENEYE_NAME>
3-chloro-2-(chloromethoxy)tetrahydrofuran
> <PUBCHEM_IUPAC_CAS_NAME>
3-chloro-2-(chloromethoxy)oxolane
> <PUBCHEM_IUPAC_NAME_MARKUP>
3-chloro-2-(chloromethoxy)oxolane
> <PUBCHEM_IUPAC_NAME>
3-chloro-2-(chloromethoxy)oxolane
> <PUBCHEM_IUPAC_SYSTEMATIC_NAME>
3-chloranyl-2-(chloromethyloxy)oxolane
> <PUBCHEM_IUPAC_TRADITIONAL_NAME>
3-chloro-2-(chloromethoxy)tetrahydrofuran
> <PUBCHEM_IUPAC_INCHI>
InChI=1S/C5H8Cl2O2/c6-3-9-5-4(7)1-2-8-5/h4-5H,1-3H2
> <PUBCHEM_IUPAC_INCHIKEY>
KXPHIXYZKVEVPV-UHFFFAOYSA-N
> <PUBCHEM_XLOGP3_AA>
1.6
> <PUBCHEM_EXACT_MASS>
169.9901349
> <PUBCHEM_MOLECULAR_FORMULA>
C5H8Cl2O2
> <PUBCHEM_MOLECULAR_WEIGHT>
171.02
> <PUBCHEM_OPENEYE_CAN_SMILES>
C1COC(C1Cl)OCCl
> <PUBCHEM_OPENEYE_ISO_SMILES>
C1COC(C1Cl)OCCl
> <PUBCHEM_CACTVS_TPSA>
18.5
> <PUBCHEM_MONOISOTOPIC_WEIGHT>
169.9901349
> <PUBCHEM_TOTAL_CHARGE>
0
> <PUBCHEM_HEAVY_ATOM_COUNT>
9
> <PUBCHEM_ATOM_DEF_STEREO_COUNT>
0
> <PUBCHEM_ATOM_UDEF_STEREO_COUNT>
2
> <PUBCHEM_BOND_DEF_STEREO_COUNT>
0
> <PUBCHEM_BOND_UDEF_STEREO_COUNT>
0
> <PUBCHEM_ISOTOPIC_ATOM_COUNT>
0
> <PUBCHEM_COMPONENT_COUNT>
1
> <PUBCHEM_CACTVS_TAUTO_COUNT>
-1
> <PUBCHEM_COORDINATE_TYPE>
1
5
255
> <PUBCHEM_BONDANNOTATIONS>
5  1  3
7  4  3
$$$$
