524303
  -OEChem-10302200292D
 22 24  0     1  0  0  0  0  0999 V2000
    4.8714    1.8901    0.0000 Cl  0  0  0  0  0  0  0  0  0  0  0  0
    3.8000   -0.3555    0.0000 C   0  0  0  0  0  0  0  0  0  0  0  0
    4.3009    1.0688    0.0000 C   0  0  3  0  0  0  0  0  0  0  0  0
    3.3073    1.0884    0.0000 C   0  0  0  0  0  0  0  0  0  0  0  0
    4.6660    0.1445    0.0000 C   0  0  0  0  0  0  0  0  0  0  0  0
    2.9061    0.1792    0.0000 C   0  0  0  0  0  0  0  0  0  0  0  0
    3.8000   -1.3555    0.0000 C   0  0  0  0  0  0  0  0  0  0  0  0
    5.5321   -0.3555    0.0000 C   0  0  0  0  0  0  0  0  0  0  0  0
    2.0000   -0.3347    0.0000 C   0  0  0  0  0  0  0  0  0  0  0  0
    4.6660   -1.8555    0.0000 C   0  0  0  0  0  0  0  0  0  0  0  0
    2.9061   -1.8901    0.0000 C   0  0  0  0  0  0  0  0  0  0  0  0
    5.5321   -1.3555    0.0000 C   0  0  0  0  0  0  0  0  0  0  0  0
    2.0000   -1.3763    0.0000 C   0  0  0  0  0  0  0  0  0  0  0  0
    4.9168    0.9974    0.0000 H   0  0  0  0  0  0  0  0  0  0  0  0
    3.4010    1.7013    0.0000 H   0  0  0  0  0  0  0  0  0  0  0  0
    2.7121    1.2619    0.0000 H   0  0  0  0  0  0  0  0  0  0  0  0
    6.0690   -0.0455    0.0000 H   0  0  0  0  0  0  0  0  0  0  0  0
    1.4643   -0.0226    0.0000 H   0  0  0  0  0  0  0  0  0  0  0  0
    4.6660   -2.4755    0.0000 H   0  0  0  0  0  0  0  0  0  0  0  0
    2.9132   -2.5101    0.0000 H   0  0  0  0  0  0  0  0  0  0  0  0
    6.0690   -1.6655    0.0000 H   0  0  0  0  0  0  0  0  0  0  0  0
    1.4643   -1.6884    0.0000 H   0  0  0  0  0  0  0  0  0  0  0  0
  1  3  1  0  0  0  0
  2  5  1  0  0  0  0
  2  6  1  0  0  0  0
  2  7  2  0  0  0  0
  3  4  1  0  0  0  0
  3  5  1  0  0  0  0
  3 14  1  0  0  0  0
  4  6  1  0  0  0  0
  4 15  1  0  0  0  0
  4 16  1  0  0  0  0
  5  8  2  0  0  0  0
  6  9  2  0  0  0  0
  7 10  1  0  0  0  0
  7 11  1  0  0  0  0
  8 12  1  0  0  0  0
  8 17  1  0  0  0  0
  9 13  1  0  0  0  0
  9 18  1  0  0  0  0
 10 12  2  0  0  0  0
 10 19  1  0  0  0  0
 11 13  2  0  0  0  0
 11 20  1  0  0  0  0
 12 21  1  0  0  0  0
 13 22  1  0  0  0  0
M  END
> <PUBCHEM_COMPOUND_CID>
524303
> <PUBCHEM_COMPOUND_CANONICALIZED>
1
> <PUBCHEM_CACTVS_COMPLEXITY>
201
> <PUBCHEM_CACTVS_HBOND_ACCEPTOR>
0
> <PUBCHEM_CACTVS_HBOND_DONOR>
0
> <PUBCHEM_CACTVS_ROTATABLE_BOND>
0
> <PUBCHEM_CACTVS_SUBSKEYS>
AAADccBwAAAEAAAAAAAAAAAAAAAAAYAAAAAwYAAAAAAAAGDBUAAAGAIAAAAADAOAGEAwAMAAAACAAiBCAAACAAAgAAAIiAAAAogIICKBERCAIAAggAAIiAcAgMAOgAACAAAQAAAAAAQAACAAARAACIAAAA==
> <PUBCHEM_IUPAC_OPENEYE_NAME>
1-chloro-1,2-dihydroacenaphthylene
> <PUBCHEM_IUPAC_CAS_NAME>
1-chloro-1,2-dihydroacenaphthylene
> <PUBCHEM_IUPAC_NAME_MARKUP>
1-chloro-1,2-dihydroacenaphthylene
> <PUBCHEM_IUPAC_NAME>
1-chloro-1,2-dihydroacenaphthylene
> <PUBCHEM_IUPAC_SYSTEMATIC_NAME>
1-chloranyl-1,2-dihydroacenaphthylene
> <PUBCHEM_IUPAC_TRADITIONAL_NAME>
1-chloroacenaphthene
> <PUBCHEM_IUPAC_INCHI>
InChI=1S/C12H9Cl/c13-11-7-9-5-1-3-8-4-2-6-10(11)12(8)9/h1-6,11H,7H2
> <PUBCHEM_IUPAC_INCHIKEY>
ANIXIIYQBGBGRI-UHFFFAOYSA-N
> <PUBCHEM_XLOGP3_AA>
3.6
> <PUBCHEM_EXACT_MASS>
188.0392780
> <PUBCHEM_MOLECULAR_FORMULA>
C12H9Cl
> <PUBCHEM_MOLECULAR_WEIGHT>
188.65
> <PUBCHEM_OPENEYE_CAN_SMILES>
C1C(C2=CC=CC3=C2C1=CC=C3)Cl
> <PUBCHEM_OPENEYE_ISO_SMILES>
C1C(C2=CC=CC3=C2C1=CC=C3)Cl
> <PUBCHEM_CACTVS_TPSA>
0
> <PUBCHEM_MONOISOTOPIC_WEIGHT>
188.0392780
> <PUBCHEM_TOTAL_CHARGE>
0
> <PUBCHEM_HEAVY_ATOM_COUNT>
13
> <PUBCHEM_ATOM_DEF_STEREO_COUNT>
0
> <PUBCHEM_ATOM_UDEF_STEREO_COUNT>
1
> <PUBCHEM_BOND_DEF_STEREO_COUNT>
0
> <PUBCHEM_BOND_UDEF_STEREO_COUNT>
0
> <PUBCHEM_ISOTOPIC_ATOM_COUNT>
0
> <PUBCHEM_COMPONENT_COUNT>
1
> <PUBCHEM_CACTVS_TAUTO_COUNT>
1
> <PUBCHEM_COORDINATE_TYPE>
1
5
255
> <PUBCHEM_BONDANNOTATIONS>
3  1  3
10  12  8
11  13  8
2  5  8
2  6  8
2  7  8
5  8  8
6  9  8
7  10  8
7  11  8
8  12  8
9  13  8
$$$$
