524381
  -OEChem-10302200292D
 21 21  0     1  0  0  0  0  0999 V2000
    2.8090    0.2239    0.0000 O   0  0  0  0  0  0  0  0  0  0  0  0
    4.5691    0.5026    0.0000 O   0  0  0  0  0  0  0  0  0  0  0  0
    3.3090    1.7627    0.0000 C   0  0  0  0  0  0  0  0  0  0  0  0
    2.3090    1.7627    0.0000 C   0  0  0  0  0  0  0  0  0  0  0  0
    3.6180    0.8116    0.0000 C   0  0  3  0  0  0  0  0  0  0  0  0
    2.0000    0.8116    0.0000 C   0  0  0  0  0  0  0  0  0  0  0  0
    4.7770   -0.4755    0.0000 C   0  0  0  0  0  0  0  0  0  0  0  0
    5.7281   -0.7845    0.0000 C   0  0  0  0  0  0  0  0  0  0  0  0
    5.9360   -1.7627    0.0000 C   0  0  0  0  0  0  0  0  0  0  0  0
    3.9155    1.8916    0.0000 H   0  0  0  0  0  0  0  0  0  0  0  0
    3.2442    2.3793    0.0000 H   0  0  0  0  0  0  0  0  0  0  0  0
    4.0564    1.2500    0.0000 H   0  0  0  0  0  0  0  0  0  0  0  0
    2.3738    2.3793    0.0000 H   0  0  0  0  0  0  0  0  0  0  0  0
    1.7026    1.8916    0.0000 H   0  0  0  0  0  0  0  0  0  0  0  0
    1.4336    1.0638    0.0000 H   0  0  0  0  0  0  0  0  0  0  0  0
    1.6900    0.2747    0.0000 H   0  0  0  0  0  0  0  0  0  0  0  0
    4.1574   -0.4972    0.0000 H   0  0  0  0  0  0  0  0  0  0  0  0
    4.6907   -1.0895    0.0000 H   0  0  0  0  0  0  0  0  0  0  0  0
    6.1888   -0.3697    0.0000 H   0  0  0  0  0  0  0  0  0  0  0  0
    5.4752   -2.1776    0.0000 H   0  0  0  0  0  0  0  0  0  0  0  0
    6.5256   -1.9543    0.0000 H   0  0  0  0  0  0  0  0  0  0  0  0
  1  5  1  0  0  0  0
  1  6  1  0  0  0  0
  2  5  1  0  0  0  0
  2  7  1  0  0  0  0
  3  4  1  0  0  0  0
  3  5  1  0  0  0  0
  3 10  1  0  0  0  0
  3 11  1  0  0  0  0
  4  6  1  0  0  0  0
  4 13  1  0  0  0  0
  4 14  1  0  0  0  0
  5 12  1  0  0  0  0
  6 15  1  0  0  0  0
  6 16  1  0  0  0  0
  7  8  1  0  0  0  0
  7 17  1  0  0  0  0
  7 18  1  0  0  0  0
  8  9  2  0  0  0  0
  8 19  1  0  0  0  0
  9 20  1  0  0  0  0
  9 21  1  0  0  0  0
M  END
> <PUBCHEM_COMPOUND_CID>
524381
> <PUBCHEM_COMPOUND_CANONICALIZED>
1
> <PUBCHEM_CACTVS_COMPLEXITY>
90.9
> <PUBCHEM_CACTVS_HBOND_ACCEPTOR>
2
> <PUBCHEM_CACTVS_HBOND_DONOR>
0
> <PUBCHEM_CACTVS_ROTATABLE_BOND>
3
> <PUBCHEM_CACTVS_SUBSKEYS>
AAADccBgMAAAAAAAAAAAAAAAAAAAASAAAAAAAAAAAAAAAAAAAAAAGgAAAAAACACwgAMACAAABACAACBCAAAAAAAAAAAIAAAAAAAQBAAAIQAiAAAEAAAEIABAAAAAAAAAAAAAAAAAAAAAAAAAAAAAAAAAAA==
> <PUBCHEM_IUPAC_OPENEYE_NAME>
2-allyloxytetrahydrofuran
> <PUBCHEM_IUPAC_CAS_NAME>
2-prop-2-enoxyoxolane
> <PUBCHEM_IUPAC_NAME_MARKUP>
2-prop-2-enoxyoxolane
> <PUBCHEM_IUPAC_NAME>
2-prop-2-enoxyoxolane
> <PUBCHEM_IUPAC_SYSTEMATIC_NAME>
2-prop-2-enoxyoxolane
> <PUBCHEM_IUPAC_TRADITIONAL_NAME>
2-allyloxytetrahydrofuran
> <PUBCHEM_IUPAC_INCHI>
InChI=1S/C7H12O2/c1-2-5-8-7-4-3-6-9-7/h2,7H,1,3-6H2
> <PUBCHEM_IUPAC_INCHIKEY>
AZHZKKLTFVPMMB-UHFFFAOYSA-N
> <PUBCHEM_XLOGP3_AA>
1.2
> <PUBCHEM_EXACT_MASS>
128.083729621
> <PUBCHEM_MOLECULAR_FORMULA>
C7H12O2
> <PUBCHEM_MOLECULAR_WEIGHT>
128.17
> <PUBCHEM_OPENEYE_CAN_SMILES>
C=CCOC1CCCO1
> <PUBCHEM_OPENEYE_ISO_SMILES>
C=CCOC1CCCO1
> <PUBCHEM_CACTVS_TPSA>
18.5
> <PUBCHEM_MONOISOTOPIC_WEIGHT>
128.083729621
> <PUBCHEM_TOTAL_CHARGE>
0
> <PUBCHEM_HEAVY_ATOM_COUNT>
9
> <PUBCHEM_ATOM_DEF_STEREO_COUNT>
0
> <PUBCHEM_ATOM_UDEF_STEREO_COUNT>
1
> <PUBCHEM_BOND_DEF_STEREO_COUNT>
0
> <PUBCHEM_BOND_UDEF_STEREO_COUNT>
0
> <PUBCHEM_ISOTOPIC_ATOM_COUNT>
0
> <PUBCHEM_COMPONENT_COUNT>
1
> <PUBCHEM_CACTVS_TAUTO_COUNT>
-1
> <PUBCHEM_COORDINATE_TYPE>
1
5
255
> <PUBCHEM_BONDANNOTATIONS>
5  2  3
$$$$
