524383
  -OEChem-10302200292D
 24 24  0     1  0  0  0  0  0999 V2000
    5.1191    2.6249    0.0000 Cl  0  0  0  0  0  0  0  0  0  0  0  0
    2.5447   -0.0622    0.0000 Cl  0  0  0  0  0  0  0  0  0  0  0  0
    6.2069    0.2771    0.0000 O   0  0  0  0  0  0  0  0  0  0  0  0
    4.4468    0.5558    0.0000 O   0  0  0  0  0  0  0  0  0  0  0  0
    2.1289   -2.0185    0.0000 O   0  0  0  0  0  0  0  0  0  0  0  0
    5.7069    1.8159    0.0000 C   0  0  3  0  0  0  0  0  0  0  0  0
    5.3979    0.8649    0.0000 C   0  0  3  0  0  0  0  0  0  0  0  0
    6.7069    1.8159    0.0000 C   0  0  0  0  0  0  0  0  0  0  0  0
    7.0159    0.8649    0.0000 C   0  0  0  0  0  0  0  0  0  0  0  0
    4.2389   -0.4223    0.0000 C   0  0  0  0  0  0  0  0  0  0  0  0
    3.2879   -0.7313    0.0000 C   0  0  3  0  0  0  0  0  0  0  0  0
    3.0800   -1.7095    0.0000 C   0  0  0  0  0  0  0  0  0  0  0  0
    5.9884    2.3683    0.0000 H   0  0  0  0  0  0  0  0  0  0  0  0
    4.9595    1.3033    0.0000 H   0  0  0  0  0  0  0  0  0  0  0  0
    7.3134    1.9448    0.0000 H   0  0  0  0  0  0  0  0  0  0  0  0
    6.6421    2.4325    0.0000 H   0  0  0  0  0  0  0  0  0  0  0  0
    7.3259    0.3279    0.0000 H   0  0  0  0  0  0  0  0  0  0  0  0
    7.5823    1.1170    0.0000 H   0  0  0  0  0  0  0  0  0  0  0  0
    4.3252   -1.0363    0.0000 H   0  0  0  0  0  0  0  0  0  0  0  0
    4.8586   -0.4439    0.0000 H   0  0  0  0  0  0  0  0  0  0  0  0
    3.4168   -0.1249    0.0000 H   0  0  0  0  0  0  0  0  0  0  0  0
    3.1662   -2.3234    0.0000 H   0  0  0  0  0  0  0  0  0  0  0  0
    3.6996   -1.7311    0.0000 H   0  0  0  0  0  0  0  0  0  0  0  0
    2.0000   -2.6249    0.0000 H   0  0  0  0  0  0  0  0  0  0  0  0
  1  6  1  0  0  0  0
  2 11  1  0  0  0  0
  3  7  1  0  0  0  0
  3  9  1  0  0  0  0
  4  7  1  0  0  0  0
  4 10  1  0  0  0  0
  5 12  1  0  0  0  0
  5 24  1  0  0  0  0
  6  7  1  0  0  0  0
  6  8  1  0  0  0  0
  6 13  1  0  0  0  0
  7 14  1  0  0  0  0
  8  9  1  0  0  0  0
  8 15  1  0  0  0  0
  8 16  1  0  0  0  0
  9 17  1  0  0  0  0
  9 18  1  0  0  0  0
 10 11  1  0  0  0  0
 10 19  1  0  0  0  0
 10 20  1  0  0  0  0
 11 12  1  0  0  0  0
 11 21  1  0  0  0  0
 12 22  1  0  0  0  0
 12 23  1  0  0  0  0
M  END
> <PUBCHEM_COMPOUND_CID>
524383
> <PUBCHEM_COMPOUND_CANONICALIZED>
1
> <PUBCHEM_CACTVS_COMPLEXITY>
134
> <PUBCHEM_CACTVS_HBOND_ACCEPTOR>
3
> <PUBCHEM_CACTVS_HBOND_DONOR>
1
> <PUBCHEM_CACTVS_ROTATABLE_BOND>
4
> <PUBCHEM_CACTVS_SUBSKEYS>
AAADccBgMAAGAAAAAAAAAAAAAAAAASAAAAAAAAAAAAAAAAAAAAAAGgIACAAACAOwgEMACAAABgAAAAAAAAAAAAAAAAAAAAAAAwAQEAAAAAAiQAAFAAAEAABAAAAAAAAAAAAAAAAAAAAAAAAAAAAAAAAAAA==
> <PUBCHEM_IUPAC_OPENEYE_NAME>
2-chloro-3-(3-chlorotetrahydrofuran-2-yl)oxy-propan-1-ol
> <PUBCHEM_IUPAC_CAS_NAME>
2-chloro-3-[(3-chloro-2-oxolanyl)oxy]-1-propanol
> <PUBCHEM_IUPAC_NAME_MARKUP>
2-chloro-3-(3-chlorooxolan-2-yl)oxypropan-1-ol
> <PUBCHEM_IUPAC_NAME>
2-chloro-3-(3-chlorooxolan-2-yl)oxypropan-1-ol
> <PUBCHEM_IUPAC_SYSTEMATIC_NAME>
2-chloranyl-3-(3-chloranyloxolan-2-yl)oxy-propan-1-ol
> <PUBCHEM_IUPAC_TRADITIONAL_NAME>
2-chloro-3-(3-chlorotetrahydrofuran-2-yl)oxy-propan-1-ol
> <PUBCHEM_IUPAC_INCHI>
InChI=1S/C7H12Cl2O3/c8-5(3-10)4-12-7-6(9)1-2-11-7/h5-7,10H,1-4H2
> <PUBCHEM_IUPAC_INCHIKEY>
SGTFJCLUKSQHEP-UHFFFAOYSA-N
> <PUBCHEM_XLOGP3_AA>
0.9
> <PUBCHEM_EXACT_MASS>
214.0163496
> <PUBCHEM_MOLECULAR_FORMULA>
C7H12Cl2O3
> <PUBCHEM_MOLECULAR_WEIGHT>
215.07
> <PUBCHEM_OPENEYE_CAN_SMILES>
C1COC(C1Cl)OCC(CO)Cl
> <PUBCHEM_OPENEYE_ISO_SMILES>
C1COC(C1Cl)OCC(CO)Cl
> <PUBCHEM_CACTVS_TPSA>
38.7
> <PUBCHEM_MONOISOTOPIC_WEIGHT>
214.0163496
> <PUBCHEM_TOTAL_CHARGE>
0
> <PUBCHEM_HEAVY_ATOM_COUNT>
12
> <PUBCHEM_ATOM_DEF_STEREO_COUNT>
0
> <PUBCHEM_ATOM_UDEF_STEREO_COUNT>
3
> <PUBCHEM_BOND_DEF_STEREO_COUNT>
0
> <PUBCHEM_BOND_UDEF_STEREO_COUNT>
0
> <PUBCHEM_ISOTOPIC_ATOM_COUNT>
0
> <PUBCHEM_COMPONENT_COUNT>
1
> <PUBCHEM_CACTVS_TAUTO_COUNT>
-1
> <PUBCHEM_COORDINATE_TYPE>
1
5
255
> <PUBCHEM_BONDANNOTATIONS>
6  1  3
11  2  3
7  4  3
$$$$
