524478
  -OEChem-10302200292D
 71 70  0     1  0  0  0  0  0999 V2000
    5.0981   -6.1830    0.0000 F   0  0  0  0  0  0  0  0  0  0  0  0
    4.0981   -4.4510    0.0000 F   0  0  0  0  0  0  0  0  0  0  0  0
    3.2320   -4.9510    0.0000 F   0  0  0  0  0  0  0  0  0  0  0  0
    4.2320   -6.6830    0.0000 F   0  0  0  0  0  0  0  0  0  0  0  0
    2.0000   -6.8170    0.0000 F   0  0  0  0  0  0  0  0  0  0  0  0
    2.3660   -5.4510    0.0000 F   0  0  0  0  0  0  0  0  0  0  0  0
    3.3660   -7.1830    0.0000 F   0  0  0  0  0  0  0  0  0  0  0  0
    6.3301   -5.3170    0.0000 O   0  0  0  0  0  0  0  0  0  0  0  0
    8.9282   -4.8170    0.0000 O   0  0  0  0  0  0  0  0  0  0  0  0
    8.0622   -6.3170    0.0000 O   0  0  0  0  0  0  0  0  0  0  0  0
    5.4641   -3.8170    0.0000 O   0  0  0  0  0  0  0  0  0  0  0  0
    9.7942    0.6830    0.0000 C   0  0  0  0  0  0  0  0  0  0  0  0
    9.7942   -0.3170    0.0000 C   0  0  0  0  0  0  0  0  0  0  0  0
   10.6603    1.1830    0.0000 C   0  0  0  0  0  0  0  0  0  0  0  0
    8.9282   -0.8170    0.0000 C   0  0  0  0  0  0  0  0  0  0  0  0
   10.6603    2.1830    0.0000 C   0  0  0  0  0  0  0  0  0  0  0  0
    8.9282   -1.8170    0.0000 C   0  0  0  0  0  0  0  0  0  0  0  0
   11.5263    2.6830    0.0000 C   0  0  0  0  0  0  0  0  0  0  0  0
   11.5263    3.6830    0.0000 C   0  0  0  0  0  0  0  0  0  0  0  0
    8.0622   -2.3170    0.0000 C   0  0  0  0  0  0  0  0  0  0  0  0
   12.3923    4.1830    0.0000 C   0  0  0  0  0  0  0  0  0  0  0  0
    8.0622   -3.3170    0.0000 C   0  0  0  0  0  0  0  0  0  0  0  0
   12.3923    5.1830    0.0000 C   0  0  0  0  0  0  0  0  0  0  0  0
    7.1962   -3.8170    0.0000 C   0  0  0  0  0  0  0  0  0  0  0  0
   13.2583    5.6830    0.0000 C   0  0  0  0  0  0  0  0  0  0  0  0
    7.1962   -4.8170    0.0000 C   0  0  3  0  0  0  0  0  0  0  0  0
   13.2583    6.6830    0.0000 C   0  0  0  0  0  0  0  0  0  0  0  0
    8.0622   -5.3170    0.0000 C   0  0  0  0  0  0  0  0  0  0  0  0
   14.1244    7.1830    0.0000 C   0  0  0  0  0  0  0  0  0  0  0  0
    5.4641   -4.8170    0.0000 C   0  0  0  0  0  0  0  0  0  0  0  0
    4.5981   -5.3170    0.0000 C   0  0  0  0  0  0  0  0  0  0  0  0
    3.7320   -5.8170    0.0000 C   0  0  0  0  0  0  0  0  0  0  0  0
    9.7942   -5.3170    0.0000 C   0  0  0  0  0  0  0  0  0  0  0  0
    2.8660   -6.3170    0.0000 C   0  0  0  0  0  0  0  0  0  0  0  0
    9.5822    1.2656    0.0000 H   0  0  0  0  0  0  0  0  0  0  0  0
    9.1836    0.5754    0.0000 H   0  0  0  0  0  0  0  0  0  0  0  0
   10.0063   -0.8996    0.0000 H   0  0  0  0  0  0  0  0  0  0  0  0
   10.4048   -0.2093    0.0000 H   0  0  0  0  0  0  0  0  0  0  0  0
   10.8723    0.6004    0.0000 H   0  0  0  0  0  0  0  0  0  0  0  0
   11.2708    1.2907    0.0000 H   0  0  0  0  0  0  0  0  0  0  0  0
    8.7162   -0.2344    0.0000 H   0  0  0  0  0  0  0  0  0  0  0  0
    8.3176   -0.9246    0.0000 H   0  0  0  0  0  0  0  0  0  0  0  0
   10.4482    2.7656    0.0000 H   0  0  0  0  0  0  0  0  0  0  0  0
   10.0497    2.0753    0.0000 H   0  0  0  0  0  0  0  0  0  0  0  0
    9.1403   -2.3996    0.0000 H   0  0  0  0  0  0  0  0  0  0  0  0
    9.5388   -1.7093    0.0000 H   0  0  0  0  0  0  0  0  0  0  0  0
   11.7383    2.1004    0.0000 H   0  0  0  0  0  0  0  0  0  0  0  0
   12.1369    2.7907    0.0000 H   0  0  0  0  0  0  0  0  0  0  0  0
   11.3142    4.2656    0.0000 H   0  0  0  0  0  0  0  0  0  0  0  0
   10.9157    3.5754    0.0000 H   0  0  0  0  0  0  0  0  0  0  0  0
    7.8501   -1.7344    0.0000 H   0  0  0  0  0  0  0  0  0  0  0  0
    7.4516   -2.4247    0.0000 H   0  0  0  0  0  0  0  0  0  0  0  0
   12.6044    3.6004    0.0000 H   0  0  0  0  0  0  0  0  0  0  0  0
   13.0029    4.2907    0.0000 H   0  0  0  0  0  0  0  0  0  0  0  0
    8.2742   -3.8996    0.0000 H   0  0  0  0  0  0  0  0  0  0  0  0
    8.6728   -3.2093    0.0000 H   0  0  0  0  0  0  0  0  0  0  0  0
   12.1803    5.7656    0.0000 H   0  0  0  0  0  0  0  0  0  0  0  0
   11.7817    5.0754    0.0000 H   0  0  0  0  0  0  0  0  0  0  0  0
    6.9841   -3.2344    0.0000 H   0  0  0  0  0  0  0  0  0  0  0  0
    6.5856   -3.9246    0.0000 H   0  0  0  0  0  0  0  0  0  0  0  0
   13.4704    5.1004    0.0000 H   0  0  0  0  0  0  0  0  0  0  0  0
   13.8689    5.7907    0.0000 H   0  0  0  0  0  0  0  0  0  0  0  0
    6.6592   -4.5070    0.0000 H   0  0  0  0  0  0  0  0  0  0  0  0
   13.0463    7.2656    0.0000 H   0  0  0  0  0  0  0  0  0  0  0  0
   12.6477    6.5754    0.0000 H   0  0  0  0  0  0  0  0  0  0  0  0
   14.4344    6.6461    0.0000 H   0  0  0  0  0  0  0  0  0  0  0  0
   14.6613    7.4930    0.0000 H   0  0  0  0  0  0  0  0  0  0  0  0
   13.8144    7.7200    0.0000 H   0  0  0  0  0  0  0  0  0  0  0  0
    9.4842   -5.8539    0.0000 H   0  0  0  0  0  0  0  0  0  0  0  0
   10.3312   -5.6270    0.0000 H   0  0  0  0  0  0  0  0  0  0  0  0
   10.1042   -4.7800    0.0000 H   0  0  0  0  0  0  0  0  0  0  0  0
  1 31  1  0  0  0  0
  2 31  1  0  0  0  0
  3 32  1  0  0  0  0
  4 32  1  0  0  0  0
  5 34  1  0  0  0  0
  6 34  1  0  0  0  0
  7 34  1  0  0  0  0
  8 26  1  0  0  0  0
  8 30  1  0  0  0  0
  9 28  1  0  0  0  0
  9 33  1  0  0  0  0
 10 28  2  0  0  0  0
 11 30  2  0  0  0  0
 12 13  1  0  0  0  0
 12 14  1  0  0  0  0
 12 35  1  0  0  0  0
 12 36  1  0  0  0  0
 13 15  1  0  0  0  0
 13 37  1  0  0  0  0
 13 38  1  0  0  0  0
 14 16  1  0  0  0  0
 14 39  1  0  0  0  0
 14 40  1  0  0  0  0
 15 17  1  0  0  0  0
 15 41  1  0  0  0  0
 15 42  1  0  0  0  0
 16 18  1  0  0  0  0
 16 43  1  0  0  0  0
 16 44  1  0  0  0  0
 17 20  1  0  0  0  0
 17 45  1  0  0  0  0
 17 46  1  0  0  0  0
 18 19  1  0  0  0  0
 18 47  1  0  0  0  0
 18 48  1  0  0  0  0
 19 21  1  0  0  0  0
 19 49  1  0  0  0  0
 19 50  1  0  0  0  0
 20 22  1  0  0  0  0
 20 51  1  0  0  0  0
 20 52  1  0  0  0  0
 21 23  1  0  0  0  0
 21 53  1  0  0  0  0
 21 54  1  0  0  0  0
 22 24  1  0  0  0  0
 22 55  1  0  0  0  0
 22 56  1  0  0  0  0
 23 25  1  0  0  0  0
 23 57  1  0  0  0  0
 23 58  1  0  0  0  0
 24 26  1  0  0  0  0
 24 59  1  0  0  0  0
 24 60  1  0  0  0  0
 25 27  1  0  0  0  0
 25 61  1  0  0  0  0
 25 62  1  0  0  0  0
 26 28  1  0  0  0  0
 26 63  1  0  0  0  0
 27 29  1  0  0  0  0
 27 64  1  0  0  0  0
 27 65  1  0  0  0  0
 29 66  1  0  0  0  0
 29 67  1  0  0  0  0
 29 68  1  0  0  0  0
 30 31  1  0  0  0  0
 31 32  1  0  0  0  0
 32 34  1  0  0  0  0
 33 69  1  0  0  0  0
 33 70  1  0  0  0  0
 33 71  1  0  0  0  0
M  END
> <PUBCHEM_COMPOUND_CID>
524478
> <PUBCHEM_COMPOUND_CANONICALIZED>
1
> <PUBCHEM_CACTVS_COMPLEXITY>
580
> <PUBCHEM_CACTVS_HBOND_ACCEPTOR>
11
> <PUBCHEM_CACTVS_HBOND_DONOR>
0
> <PUBCHEM_CACTVS_ROTATABLE_BOND>
21
> <PUBCHEM_CACTVS_SUBSKEYS>
AAADcfB4OcAAAAAAAAAAAAAAAAAAAAAAAAAAAAAAAAAAAAAAAAAAGwAAAAAACBSggBICCAAABAAIAACQCAIAAAAAAAAAAAFAAAABABIAAAQCAAAEAAACAAGIyKCAAAAAAAAAAAAAAAAAAAAAAAAAAAAAAA==
> <PUBCHEM_IUPAC_OPENEYE_NAME>
methyl 2-(2,2,3,3,4,4,4-heptafluorobutanoyloxy)octadecanoate
> <PUBCHEM_IUPAC_CAS_NAME>
2-(2,2,3,3,4,4,4-heptafluoro-1-oxobutoxy)octadecanoic acid methyl ester
> <PUBCHEM_IUPAC_NAME_MARKUP>
methyl 2-(2,2,3,3,4,4,4-heptafluorobutanoyloxy)octadecanoate
> <PUBCHEM_IUPAC_NAME>
methyl 2-(2,2,3,3,4,4,4-heptafluorobutanoyloxy)octadecanoate
> <PUBCHEM_IUPAC_SYSTEMATIC_NAME>
methyl 2-[2,2,3,3,4,4,4-heptakis(fluoranyl)butanoyloxy]octadecanoate
> <PUBCHEM_IUPAC_TRADITIONAL_NAME>
2-(2,2,3,3,4,4,4-heptafluorobutanoyloxy)stearic acid methyl ester
> <PUBCHEM_IUPAC_INCHI>
InChI=1S/C23H37F7O4/c1-3-4-5-6-7-8-9-10-11-12-13-14-15-16-17-18(19(31)33-2)34-20(32)21(24,25)22(26,27)23(28,29)30/h18H,3-17H2,1-2H3
> <PUBCHEM_IUPAC_INCHIKEY>
KEYQLGZMFHOTEW-UHFFFAOYSA-N
> <PUBCHEM_XLOGP3_AA>
10.8
> <PUBCHEM_EXACT_MASS>
510.25800679
> <PUBCHEM_MOLECULAR_FORMULA>
C23H37F7O4
> <PUBCHEM_MOLECULAR_WEIGHT>
510.5
> <PUBCHEM_OPENEYE_CAN_SMILES>
CCCCCCCCCCCCCCCCC(C(=O)OC)OC(=O)C(C(C(F)(F)F)(F)F)(F)F
> <PUBCHEM_OPENEYE_ISO_SMILES>
CCCCCCCCCCCCCCCCC(C(=O)OC)OC(=O)C(C(C(F)(F)F)(F)F)(F)F
> <PUBCHEM_CACTVS_TPSA>
52.6
> <PUBCHEM_MONOISOTOPIC_WEIGHT>
510.25800679
> <PUBCHEM_TOTAL_CHARGE>
0
> <PUBCHEM_HEAVY_ATOM_COUNT>
34
> <PUBCHEM_ATOM_DEF_STEREO_COUNT>
0
> <PUBCHEM_ATOM_UDEF_STEREO_COUNT>
1
> <PUBCHEM_BOND_DEF_STEREO_COUNT>
0
> <PUBCHEM_BOND_UDEF_STEREO_COUNT>
0
> <PUBCHEM_ISOTOPIC_ATOM_COUNT>
0
> <PUBCHEM_COMPONENT_COUNT>
1
> <PUBCHEM_CACTVS_TAUTO_COUNT>
-1
> <PUBCHEM_COORDINATE_TYPE>
1
5
255
> <PUBCHEM_BONDANNOTATIONS>
26  24  3
$$$$
