524466
  -OEChem-10302200292D
 95 94  0     1  0  0  0  0  0999 V2000
    5.0981   -9.1830    0.0000 F   0  0  0  0  0  0  0  0  0  0  0  0
    4.0981   -7.4510    0.0000 F   0  0  0  0  0  0  0  0  0  0  0  0
    3.2320   -7.9510    0.0000 F   0  0  0  0  0  0  0  0  0  0  0  0
    4.2320   -9.6830    0.0000 F   0  0  0  0  0  0  0  0  0  0  0  0
    2.0000   -9.8170    0.0000 F   0  0  0  0  0  0  0  0  0  0  0  0
    2.3660   -8.4510    0.0000 F   0  0  0  0  0  0  0  0  0  0  0  0
    3.3660  -10.1830    0.0000 F   0  0  0  0  0  0  0  0  0  0  0  0
    6.3301   -8.3170    0.0000 O   0  0  0  0  0  0  0  0  0  0  0  0
    8.9282   -7.8170    0.0000 O   0  0  0  0  0  0  0  0  0  0  0  0
    8.0622   -9.3170    0.0000 O   0  0  0  0  0  0  0  0  0  0  0  0
    5.4641   -6.8170    0.0000 O   0  0  0  0  0  0  0  0  0  0  0  0
   11.5263    0.6830    0.0000 C   0  0  0  0  0  0  0  0  0  0  0  0
   11.5263   -0.3170    0.0000 C   0  0  0  0  0  0  0  0  0  0  0  0
   12.3923    1.1830    0.0000 C   0  0  0  0  0  0  0  0  0  0  0  0
   10.6603   -0.8170    0.0000 C   0  0  0  0  0  0  0  0  0  0  0  0
   12.3923    2.1830    0.0000 C   0  0  0  0  0  0  0  0  0  0  0  0
   10.6603   -1.8170    0.0000 C   0  0  0  0  0  0  0  0  0  0  0  0
   13.2583    2.6830    0.0000 C   0  0  0  0  0  0  0  0  0  0  0  0
    9.7942   -2.3170    0.0000 C   0  0  0  0  0  0  0  0  0  0  0  0
   13.2583    3.6830    0.0000 C   0  0  0  0  0  0  0  0  0  0  0  0
   14.1244    4.1830    0.0000 C   0  0  0  0  0  0  0  0  0  0  0  0
    9.7942   -3.3170    0.0000 C   0  0  0  0  0  0  0  0  0  0  0  0
   14.1244    5.1830    0.0000 C   0  0  0  0  0  0  0  0  0  0  0  0
    8.9282   -3.8170    0.0000 C   0  0  0  0  0  0  0  0  0  0  0  0
   14.9904    5.6830    0.0000 C   0  0  0  0  0  0  0  0  0  0  0  0
    8.9282   -4.8170    0.0000 C   0  0  0  0  0  0  0  0  0  0  0  0
   14.9904    6.6830    0.0000 C   0  0  0  0  0  0  0  0  0  0  0  0
    8.0622   -5.3170    0.0000 C   0  0  0  0  0  0  0  0  0  0  0  0
   15.8564    7.1830    0.0000 C   0  0  0  0  0  0  0  0  0  0  0  0
    8.0622   -6.3170    0.0000 C   0  0  0  0  0  0  0  0  0  0  0  0
   15.8564    8.1830    0.0000 C   0  0  0  0  0  0  0  0  0  0  0  0
    7.1962   -6.8170    0.0000 C   0  0  0  0  0  0  0  0  0  0  0  0
   16.7224    8.6830    0.0000 C   0  0  0  0  0  0  0  0  0  0  0  0
    7.1962   -7.8170    0.0000 C   0  0  3  0  0  0  0  0  0  0  0  0
   16.7224    9.6830    0.0000 C   0  0  0  0  0  0  0  0  0  0  0  0
    8.0622   -8.3170    0.0000 C   0  0  0  0  0  0  0  0  0  0  0  0
   17.5885   10.1830    0.0000 C   0  0  0  0  0  0  0  0  0  0  0  0
    5.4641   -7.8170    0.0000 C   0  0  0  0  0  0  0  0  0  0  0  0
    4.5981   -8.3170    0.0000 C   0  0  0  0  0  0  0  0  0  0  0  0
    3.7320   -8.8170    0.0000 C   0  0  0  0  0  0  0  0  0  0  0  0
    9.7942   -8.3170    0.0000 C   0  0  0  0  0  0  0  0  0  0  0  0
    2.8660   -9.3170    0.0000 C   0  0  0  0  0  0  0  0  0  0  0  0
   11.3142    1.2656    0.0000 H   0  0  0  0  0  0  0  0  0  0  0  0
   10.9157    0.5754    0.0000 H   0  0  0  0  0  0  0  0  0  0  0  0
   11.7383   -0.8996    0.0000 H   0  0  0  0  0  0  0  0  0  0  0  0
   12.1369   -0.2093    0.0000 H   0  0  0  0  0  0  0  0  0  0  0  0
   12.6044    0.6004    0.0000 H   0  0  0  0  0  0  0  0  0  0  0  0
   13.0029    1.2907    0.0000 H   0  0  0  0  0  0  0  0  0  0  0  0
   10.4482   -0.2344    0.0000 H   0  0  0  0  0  0  0  0  0  0  0  0
   10.0497   -0.9246    0.0000 H   0  0  0  0  0  0  0  0  0  0  0  0
   12.1803    2.7656    0.0000 H   0  0  0  0  0  0  0  0  0  0  0  0
   11.7817    2.0753    0.0000 H   0  0  0  0  0  0  0  0  0  0  0  0
   10.8723   -2.3996    0.0000 H   0  0  0  0  0  0  0  0  0  0  0  0
   11.2708   -1.7093    0.0000 H   0  0  0  0  0  0  0  0  0  0  0  0
   13.4704    2.1004    0.0000 H   0  0  0  0  0  0  0  0  0  0  0  0
   13.8689    2.7907    0.0000 H   0  0  0  0  0  0  0  0  0  0  0  0
    9.5822   -1.7344    0.0000 H   0  0  0  0  0  0  0  0  0  0  0  0
    9.1836   -2.4247    0.0000 H   0  0  0  0  0  0  0  0  0  0  0  0
   13.0463    4.2656    0.0000 H   0  0  0  0  0  0  0  0  0  0  0  0
   12.6477    3.5754    0.0000 H   0  0  0  0  0  0  0  0  0  0  0  0
   14.3364    3.6004    0.0000 H   0  0  0  0  0  0  0  0  0  0  0  0
   14.7349    4.2907    0.0000 H   0  0  0  0  0  0  0  0  0  0  0  0
   10.0063   -3.8996    0.0000 H   0  0  0  0  0  0  0  0  0  0  0  0
   10.4048   -3.2093    0.0000 H   0  0  0  0  0  0  0  0  0  0  0  0
   13.9123    5.7656    0.0000 H   0  0  0  0  0  0  0  0  0  0  0  0
   13.5138    5.0754    0.0000 H   0  0  0  0  0  0  0  0  0  0  0  0
    8.7162   -3.2344    0.0000 H   0  0  0  0  0  0  0  0  0  0  0  0
    8.3176   -3.9246    0.0000 H   0  0  0  0  0  0  0  0  0  0  0  0
   15.2024    5.1004    0.0000 H   0  0  0  0  0  0  0  0  0  0  0  0
   15.6010    5.7907    0.0000 H   0  0  0  0  0  0  0  0  0  0  0  0
    9.1403   -5.3996    0.0000 H   0  0  0  0  0  0  0  0  0  0  0  0
    9.5388   -4.7093    0.0000 H   0  0  0  0  0  0  0  0  0  0  0  0
   14.7783    7.2656    0.0000 H   0  0  0  0  0  0  0  0  0  0  0  0
   14.3798    6.5754    0.0000 H   0  0  0  0  0  0  0  0  0  0  0  0
    7.8501   -4.7344    0.0000 H   0  0  0  0  0  0  0  0  0  0  0  0
    7.4516   -5.4246    0.0000 H   0  0  0  0  0  0  0  0  0  0  0  0
   16.0685    6.6004    0.0000 H   0  0  0  0  0  0  0  0  0  0  0  0
   16.4670    7.2907    0.0000 H   0  0  0  0  0  0  0  0  0  0  0  0
    8.2742   -6.8996    0.0000 H   0  0  0  0  0  0  0  0  0  0  0  0
    8.6728   -6.2093    0.0000 H   0  0  0  0  0  0  0  0  0  0  0  0
   15.6444    8.7656    0.0000 H   0  0  0  0  0  0  0  0  0  0  0  0
   15.2458    8.0754    0.0000 H   0  0  0  0  0  0  0  0  0  0  0  0
    6.9841   -6.2344    0.0000 H   0  0  0  0  0  0  0  0  0  0  0  0
    6.5856   -6.9246    0.0000 H   0  0  0  0  0  0  0  0  0  0  0  0
   16.9345    8.1004    0.0000 H   0  0  0  0  0  0  0  0  0  0  0  0
   17.3330    8.7907    0.0000 H   0  0  0  0  0  0  0  0  0  0  0  0
    7.1962   -8.4370    0.0000 H   0  0  0  0  0  0  0  0  0  0  0  0
   16.5104   10.2656    0.0000 H   0  0  0  0  0  0  0  0  0  0  0  0
   16.1119    9.5754    0.0000 H   0  0  0  0  0  0  0  0  0  0  0  0
   17.8985    9.6461    0.0000 H   0  0  0  0  0  0  0  0  0  0  0  0
   18.1254   10.4930    0.0000 H   0  0  0  0  0  0  0  0  0  0  0  0
   17.2785   10.7199    0.0000 H   0  0  0  0  0  0  0  0  0  0  0  0
    9.4842   -8.8539    0.0000 H   0  0  0  0  0  0  0  0  0  0  0  0
   10.3312   -8.6270    0.0000 H   0  0  0  0  0  0  0  0  0  0  0  0
   10.1042   -7.7800    0.0000 H   0  0  0  0  0  0  0  0  0  0  0  0
  1 39  1  0  0  0  0
  2 39  1  0  0  0  0
  3 40  1  0  0  0  0
  4 40  1  0  0  0  0
  5 42  1  0  0  0  0
  6 42  1  0  0  0  0
  7 42  1  0  0  0  0
  8 34  1  0  0  0  0
  8 38  1  0  0  0  0
  9 36  1  0  0  0  0
  9 41  1  0  0  0  0
 10 36  2  0  0  0  0
 11 38  2  0  0  0  0
 12 13  1  0  0  0  0
 12 14  1  0  0  0  0
 12 43  1  0  0  0  0
 12 44  1  0  0  0  0
 13 15  1  0  0  0  0
 13 45  1  0  0  0  0
 13 46  1  0  0  0  0
 14 16  1  0  0  0  0
 14 47  1  0  0  0  0
 14 48  1  0  0  0  0
 15 17  1  0  0  0  0
 15 49  1  0  0  0  0
 15 50  1  0  0  0  0
 16 18  1  0  0  0  0
 16 51  1  0  0  0  0
 16 52  1  0  0  0  0
 17 19  1  0  0  0  0
 17 53  1  0  0  0  0
 17 54  1  0  0  0  0
 18 20  1  0  0  0  0
 18 55  1  0  0  0  0
 18 56  1  0  0  0  0
 19 22  1  0  0  0  0
 19 57  1  0  0  0  0
 19 58  1  0  0  0  0
 20 21  1  0  0  0  0
 20 59  1  0  0  0  0
 20 60  1  0  0  0  0
 21 23  1  0  0  0  0
 21 61  1  0  0  0  0
 21 62  1  0  0  0  0
 22 24  1  0  0  0  0
 22 63  1  0  0  0  0
 22 64  1  0  0  0  0
 23 25  1  0  0  0  0
 23 65  1  0  0  0  0
 23 66  1  0  0  0  0
 24 26  1  0  0  0  0
 24 67  1  0  0  0  0
 24 68  1  0  0  0  0
 25 27  1  0  0  0  0
 25 69  1  0  0  0  0
 25 70  1  0  0  0  0
 26 28  1  0  0  0  0
 26 71  1  0  0  0  0
 26 72  1  0  0  0  0
 27 29  1  0  0  0  0
 27 73  1  0  0  0  0
 27 74  1  0  0  0  0
 28 30  1  0  0  0  0
 28 75  1  0  0  0  0
 28 76  1  0  0  0  0
 29 31  1  0  0  0  0
 29 77  1  0  0  0  0
 29 78  1  0  0  0  0
 30 32  1  0  0  0  0
 30 79  1  0  0  0  0
 30 80  1  0  0  0  0
 31 33  1  0  0  0  0
 31 81  1  0  0  0  0
 31 82  1  0  0  0  0
 32 34  1  0  0  0  0
 32 83  1  0  0  0  0
 32 84  1  0  0  0  0
 33 35  1  0  0  0  0
 33 85  1  0  0  0  0
 33 86  1  0  0  0  0
 34 36  1  0  0  0  0
 34 87  1  0  0  0  0
 35 37  1  0  0  0  0
 35 88  1  0  0  0  0
 35 89  1  0  0  0  0
 37 90  1  0  0  0  0
 37 91  1  0  0  0  0
 37 92  1  0  0  0  0
 38 39  1  0  0  0  0
 39 40  1  0  0  0  0
 40 42  1  0  0  0  0
 41 93  1  0  0  0  0
 41 94  1  0  0  0  0
 41 95  1  0  0  0  0
M  END
> <PUBCHEM_COMPOUND_CID>
524466
> <PUBCHEM_COMPOUND_CANONICALIZED>
1
> <PUBCHEM_CACTVS_COMPLEXITY>
699
> <PUBCHEM_CACTVS_HBOND_ACCEPTOR>
11
> <PUBCHEM_CACTVS_HBOND_DONOR>
0
> <PUBCHEM_CACTVS_ROTATABLE_BOND>
29
> <PUBCHEM_CACTVS_SUBSKEYS>
AAADcfB4OcAAAAAAAAAAAAAAAAAAAAAAAAAAAAAAAAAAAAAAAAAAGwAAAAAACBSggBICCAAABAAIAACQCAIAAAAAAAAAAAFAAAABABIAAAQCAAAEAAACAAGIyKCAAAAAAAAAAAAAAAAAAAAAAAAAAAAAAA==
> <PUBCHEM_IUPAC_OPENEYE_NAME>
methyl 2-(2,2,3,3,4,4,4-heptafluorobutanoyloxy)hexacosanoate
> <PUBCHEM_IUPAC_CAS_NAME>
2-(2,2,3,3,4,4,4-heptafluoro-1-oxobutoxy)hexacosanoic acid methyl ester
> <PUBCHEM_IUPAC_NAME_MARKUP>
methyl 2-(2,2,3,3,4,4,4-heptafluorobutanoyloxy)hexacosanoate
> <PUBCHEM_IUPAC_NAME>
methyl 2-(2,2,3,3,4,4,4-heptafluorobutanoyloxy)hexacosanoate
> <PUBCHEM_IUPAC_SYSTEMATIC_NAME>
methyl 2-[2,2,3,3,4,4,4-heptakis(fluoranyl)butanoyloxy]hexacosanoate
> <PUBCHEM_IUPAC_TRADITIONAL_NAME>
2-(2,2,3,3,4,4,4-heptafluorobutanoyloxy)cerotic acid methyl ester
> <PUBCHEM_IUPAC_INCHI>
InChI=1S/C31H53F7O4/c1-3-4-5-6-7-8-9-10-11-12-13-14-15-16-17-18-19-20-21-22-23-24-25-26(27(39)41-2)42-28(40)29(32,33)30(34,35)31(36,37)38/h26H,3-25H2,1-2H3
> <PUBCHEM_IUPAC_INCHIKEY>
FBBMARXQNWWHNY-UHFFFAOYSA-N
> <PUBCHEM_XLOGP3_AA>
15.2
> <PUBCHEM_EXACT_MASS>
622.38320730
> <PUBCHEM_MOLECULAR_FORMULA>
C31H53F7O4
> <PUBCHEM_MOLECULAR_WEIGHT>
622.7
> <PUBCHEM_OPENEYE_CAN_SMILES>
CCCCCCCCCCCCCCCCCCCCCCCCC(C(=O)OC)OC(=O)C(C(C(F)(F)F)(F)F)(F)F
> <PUBCHEM_OPENEYE_ISO_SMILES>
CCCCCCCCCCCCCCCCCCCCCCCCC(C(=O)OC)OC(=O)C(C(C(F)(F)F)(F)F)(F)F
> <PUBCHEM_CACTVS_TPSA>
52.6
> <PUBCHEM_MONOISOTOPIC_WEIGHT>
622.38320730
> <PUBCHEM_TOTAL_CHARGE>
0
> <PUBCHEM_HEAVY_ATOM_COUNT>
42
> <PUBCHEM_ATOM_DEF_STEREO_COUNT>
0
> <PUBCHEM_ATOM_UDEF_STEREO_COUNT>
1
> <PUBCHEM_BOND_DEF_STEREO_COUNT>
0
> <PUBCHEM_BOND_UDEF_STEREO_COUNT>
0
> <PUBCHEM_ISOTOPIC_ATOM_COUNT>
0
> <PUBCHEM_COMPONENT_COUNT>
1
> <PUBCHEM_CACTVS_TAUTO_COUNT>
-1
> <PUBCHEM_COORDINATE_TYPE>
1
5
255
> <PUBCHEM_BONDANNOTATIONS>
34  32  3
$$$$
