524481
  -OEChem-10302200292D
 87 86  0     1  0  0  0  0  0999 V2000
   12.3923    7.2500    0.0000 Si  0  0  0  0  0  0  0  0  0  0  0  0
   11.5263    7.7500    0.0000 O   0  0  0  0  0  0  0  0  0  0  0  0
    8.9282    7.2500    0.0000 O   0  0  0  0  0  0  0  0  0  0  0  0
    9.7942    8.7500    0.0000 O   0  0  0  0  0  0  0  0  0  0  0  0
    7.1962    1.2500    0.0000 C   0  0  0  0  0  0  0  0  0  0  0  0
    7.1962    0.2500    0.0000 C   0  0  0  0  0  0  0  0  0  0  0  0
    8.0622    1.7500    0.0000 C   0  0  0  0  0  0  0  0  0  0  0  0
    6.3301   -0.2500    0.0000 C   0  0  0  0  0  0  0  0  0  0  0  0
    8.0622    2.7500    0.0000 C   0  0  0  0  0  0  0  0  0  0  0  0
    6.3301   -1.2500    0.0000 C   0  0  0  0  0  0  0  0  0  0  0  0
    8.9282    3.2500    0.0000 C   0  0  0  0  0  0  0  0  0  0  0  0
    5.4641   -1.7500    0.0000 C   0  0  0  0  0  0  0  0  0  0  0  0
    8.9282    4.2500    0.0000 C   0  0  0  0  0  0  0  0  0  0  0  0
    5.4641   -2.7500    0.0000 C   0  0  0  0  0  0  0  0  0  0  0  0
    9.7942    4.7500    0.0000 C   0  0  0  0  0  0  0  0  0  0  0  0
    4.5981   -3.2500    0.0000 C   0  0  0  0  0  0  0  0  0  0  0  0
    9.7942    5.7500    0.0000 C   0  0  0  0  0  0  0  0  0  0  0  0
    4.5981   -4.2500    0.0000 C   0  0  0  0  0  0  0  0  0  0  0  0
    3.7320   -4.7500    0.0000 C   0  0  0  0  0  0  0  0  0  0  0  0
   10.6603    6.2500    0.0000 C   0  0  0  0  0  0  0  0  0  0  0  0
    3.7320   -5.7500    0.0000 C   0  0  0  0  0  0  0  0  0  0  0  0
   10.6603    7.2500    0.0000 C   0  0  3  0  0  0  0  0  0  0  0  0
    2.8660   -6.2500    0.0000 C   0  0  0  0  0  0  0  0  0  0  0  0
    2.8660   -7.2500    0.0000 C   0  0  0  0  0  0  0  0  0  0  0  0
    9.7942    7.7500    0.0000 C   0  0  0  0  0  0  0  0  0  0  0  0
    2.0000   -7.7500    0.0000 C   0  0  0  0  0  0  0  0  0  0  0  0
   13.2583    6.7500    0.0000 C   0  0  0  0  0  0  0  0  0  0  0  0
   12.8923    8.1160    0.0000 C   0  0  0  0  0  0  0  0  0  0  0  0
   11.8923    6.3840    0.0000 C   0  0  0  0  0  0  0  0  0  0  0  0
    2.0000   -8.7500    0.0000 C   0  0  0  0  0  0  0  0  0  0  0  0
    8.0622    7.7500    0.0000 C   0  0  0  0  0  0  0  0  0  0  0  0
    6.9841    1.8326    0.0000 H   0  0  0  0  0  0  0  0  0  0  0  0
    6.5856    1.1423    0.0000 H   0  0  0  0  0  0  0  0  0  0  0  0
    7.4082   -0.3326    0.0000 H   0  0  0  0  0  0  0  0  0  0  0  0
    7.8067    0.3577    0.0000 H   0  0  0  0  0  0  0  0  0  0  0  0
    8.2742    1.1674    0.0000 H   0  0  0  0  0  0  0  0  0  0  0  0
    8.6728    1.8577    0.0000 H   0  0  0  0  0  0  0  0  0  0  0  0
    6.1181    0.3326    0.0000 H   0  0  0  0  0  0  0  0  0  0  0  0
    5.7196   -0.3577    0.0000 H   0  0  0  0  0  0  0  0  0  0  0  0
    7.8501    3.3326    0.0000 H   0  0  0  0  0  0  0  0  0  0  0  0
    7.4516    2.6423    0.0000 H   0  0  0  0  0  0  0  0  0  0  0  0
    6.5422   -1.8326    0.0000 H   0  0  0  0  0  0  0  0  0  0  0  0
    6.9407   -1.1423    0.0000 H   0  0  0  0  0  0  0  0  0  0  0  0
    9.1403    2.6674    0.0000 H   0  0  0  0  0  0  0  0  0  0  0  0
    9.5388    3.3577    0.0000 H   0  0  0  0  0  0  0  0  0  0  0  0
    5.2520   -1.1674    0.0000 H   0  0  0  0  0  0  0  0  0  0  0  0
    4.8535   -1.8577    0.0000 H   0  0  0  0  0  0  0  0  0  0  0  0
    8.7162    4.8326    0.0000 H   0  0  0  0  0  0  0  0  0  0  0  0
    8.3176    4.1423    0.0000 H   0  0  0  0  0  0  0  0  0  0  0  0
    5.6762   -3.3326    0.0000 H   0  0  0  0  0  0  0  0  0  0  0  0
    6.0747   -2.6423    0.0000 H   0  0  0  0  0  0  0  0  0  0  0  0
   10.0063    4.1674    0.0000 H   0  0  0  0  0  0  0  0  0  0  0  0
   10.4048    4.8577    0.0000 H   0  0  0  0  0  0  0  0  0  0  0  0
    4.3860   -2.6674    0.0000 H   0  0  0  0  0  0  0  0  0  0  0  0
    3.9875   -3.3577    0.0000 H   0  0  0  0  0  0  0  0  0  0  0  0
    9.5822    6.3326    0.0000 H   0  0  0  0  0  0  0  0  0  0  0  0
    9.1836    5.6423    0.0000 H   0  0  0  0  0  0  0  0  0  0  0  0
    4.8101   -4.8326    0.0000 H   0  0  0  0  0  0  0  0  0  0  0  0
    5.2087   -4.1423    0.0000 H   0  0  0  0  0  0  0  0  0  0  0  0
    3.5200   -4.1674    0.0000 H   0  0  0  0  0  0  0  0  0  0  0  0
    3.1215   -4.8577    0.0000 H   0  0  0  0  0  0  0  0  0  0  0  0
   10.8723    5.6674    0.0000 H   0  0  0  0  0  0  0  0  0  0  0  0
   11.2708    6.3577    0.0000 H   0  0  0  0  0  0  0  0  0  0  0  0
    3.9441   -6.3326    0.0000 H   0  0  0  0  0  0  0  0  0  0  0  0
    4.3426   -5.6423    0.0000 H   0  0  0  0  0  0  0  0  0  0  0  0
   11.1972    6.9400    0.0000 H   0  0  0  0  0  0  0  0  0  0  0  0
    2.6540   -5.6674    0.0000 H   0  0  0  0  0  0  0  0  0  0  0  0
    2.2554   -6.3577    0.0000 H   0  0  0  0  0  0  0  0  0  0  0  0
    3.0781   -7.8326    0.0000 H   0  0  0  0  0  0  0  0  0  0  0  0
    3.4766   -7.1423    0.0000 H   0  0  0  0  0  0  0  0  0  0  0  0
    1.7880   -7.1674    0.0000 H   0  0  0  0  0  0  0  0  0  0  0  0
    1.3894   -7.8577    0.0000 H   0  0  0  0  0  0  0  0  0  0  0  0
   12.9483    6.2131    0.0000 H   0  0  0  0  0  0  0  0  0  0  0  0
   13.7953    6.4400    0.0000 H   0  0  0  0  0  0  0  0  0  0  0  0
   13.5683    7.2869    0.0000 H   0  0  0  0  0  0  0  0  0  0  0  0
   13.4292    7.8060    0.0000 H   0  0  0  0  0  0  0  0  0  0  0  0
   13.2023    8.6530    0.0000 H   0  0  0  0  0  0  0  0  0  0  0  0
   12.3554    8.4260    0.0000 H   0  0  0  0  0  0  0  0  0  0  0  0
   11.3554    6.6940    0.0000 H   0  0  0  0  0  0  0  0  0  0  0  0
   11.5823    5.8470    0.0000 H   0  0  0  0  0  0  0  0  0  0  0  0
   12.4292    6.0740    0.0000 H   0  0  0  0  0  0  0  0  0  0  0  0
    1.3800   -8.7500    0.0000 H   0  0  0  0  0  0  0  0  0  0  0  0
    2.0000   -9.3700    0.0000 H   0  0  0  0  0  0  0  0  0  0  0  0
    2.6200   -8.7500    0.0000 H   0  0  0  0  0  0  0  0  0  0  0  0
    8.3722    8.2869    0.0000 H   0  0  0  0  0  0  0  0  0  0  0  0
    7.5252    8.0600    0.0000 H   0  0  0  0  0  0  0  0  0  0  0  0
    7.7522    7.2131    0.0000 H   0  0  0  0  0  0  0  0  0  0  0  0
  1  2  1  0  0  0  0
  1 27  1  0  0  0  0
  1 28  1  0  0  0  0
  1 29  1  0  0  0  0
  2 22  1  0  0  0  0
  3 25  1  0  0  0  0
  3 31  1  0  0  0  0
  4 25  2  0  0  0  0
  5  6  1  0  0  0  0
  5  7  1  0  0  0  0
  5 32  1  0  0  0  0
  5 33  1  0  0  0  0
  6  8  1  0  0  0  0
  6 34  1  0  0  0  0
  6 35  1  0  0  0  0
  7  9  1  0  0  0  0
  7 36  1  0  0  0  0
  7 37  1  0  0  0  0
  8 10  1  0  0  0  0
  8 38  1  0  0  0  0
  8 39  1  0  0  0  0
  9 11  1  0  0  0  0
  9 40  1  0  0  0  0
  9 41  1  0  0  0  0
 10 12  1  0  0  0  0
 10 42  1  0  0  0  0
 10 43  1  0  0  0  0
 11 13  1  0  0  0  0
 11 44  1  0  0  0  0
 11 45  1  0  0  0  0
 12 14  1  0  0  0  0
 12 46  1  0  0  0  0
 12 47  1  0  0  0  0
 13 15  1  0  0  0  0
 13 48  1  0  0  0  0
 13 49  1  0  0  0  0
 14 16  1  0  0  0  0
 14 50  1  0  0  0  0
 14 51  1  0  0  0  0
 15 17  1  0  0  0  0
 15 52  1  0  0  0  0
 15 53  1  0  0  0  0
 16 18  1  0  0  0  0
 16 54  1  0  0  0  0
 16 55  1  0  0  0  0
 17 20  1  0  0  0  0
 17 56  1  0  0  0  0
 17 57  1  0  0  0  0
 18 19  1  0  0  0  0
 18 58  1  0  0  0  0
 18 59  1  0  0  0  0
 19 21  1  0  0  0  0
 19 60  1  0  0  0  0
 19 61  1  0  0  0  0
 20 22  1  0  0  0  0
 20 62  1  0  0  0  0
 20 63  1  0  0  0  0
 21 23  1  0  0  0  0
 21 64  1  0  0  0  0
 21 65  1  0  0  0  0
 22 25  1  0  0  0  0
 22 66  1  0  0  0  0
 23 24  1  0  0  0  0
 23 67  1  0  0  0  0
 23 68  1  0  0  0  0
 24 26  1  0  0  0  0
 24 69  1  0  0  0  0
 24 70  1  0  0  0  0
 26 30  1  0  0  0  0
 26 71  1  0  0  0  0
 26 72  1  0  0  0  0
 27 73  1  0  0  0  0
 27 74  1  0  0  0  0
 27 75  1  0  0  0  0
 28 76  1  0  0  0  0
 28 77  1  0  0  0  0
 28 78  1  0  0  0  0
 29 79  1  0  0  0  0
 29 80  1  0  0  0  0
 29 81  1  0  0  0  0
 30 82  1  0  0  0  0
 30 83  1  0  0  0  0
 30 84  1  0  0  0  0
 31 85  1  0  0  0  0
 31 86  1  0  0  0  0
 31 87  1  0  0  0  0
M  END
> <PUBCHEM_COMPOUND_CID>
524481
> <PUBCHEM_COMPOUND_CANONICALIZED>
1
> <PUBCHEM_CACTVS_COMPLEXITY>
392
> <PUBCHEM_CACTVS_HBOND_ACCEPTOR>
3
> <PUBCHEM_CACTVS_HBOND_DONOR>
0
> <PUBCHEM_CACTVS_ROTATABLE_BOND>
24
> <PUBCHEM_CACTVS_SUBSKEYS>
AAADcfB4MAgAAAAAAAAAAAAAAAAAAAAAAAAAAAAAAAAAAAAAAAAAGhAAAEAACBSggAJCCAAABAEIAACQCAIAAAAAAAAAAAFAAAABABIAAAAAAAAEAAACAAGIyKCAAAAAAAAAAAAAAAAAAAAAAAAAAAAAAA==
> <PUBCHEM_IUPAC_OPENEYE_NAME>
methyl 2-trimethylsilyloxytricosanoate
> <PUBCHEM_IUPAC_CAS_NAME>
2-trimethylsilyloxytricosanoic acid methyl ester
> <PUBCHEM_IUPAC_NAME_MARKUP>
methyl 2-trimethylsilyloxytricosanoate
> <PUBCHEM_IUPAC_NAME>
methyl 2-trimethylsilyloxytricosanoate
> <PUBCHEM_IUPAC_SYSTEMATIC_NAME>
methyl 2-trimethylsilyloxytricosanoate
> <PUBCHEM_IUPAC_TRADITIONAL_NAME>
2-trimethylsilyloxytricosanoic acid methyl ester
> <PUBCHEM_IUPAC_INCHI>
InChI=1S/C27H56O3Si/c1-6-7-8-9-10-11-12-13-14-15-16-17-18-19-20-21-22-23-24-25-26(27(28)29-2)30-31(3,4)5/h26H,6-25H2,1-5H3
> <PUBCHEM_IUPAC_INCHIKEY>
GRADXVJUAVCNHF-UHFFFAOYSA-N
> <PUBCHEM_EXACT_MASS>
456.39987218
> <PUBCHEM_MOLECULAR_FORMULA>
C27H56O3Si
> <PUBCHEM_MOLECULAR_WEIGHT>
456.8
> <PUBCHEM_OPENEYE_CAN_SMILES>
CCCCCCCCCCCCCCCCCCCCCC(C(=O)OC)O[Si](C)(C)C
> <PUBCHEM_OPENEYE_ISO_SMILES>
CCCCCCCCCCCCCCCCCCCCCC(C(=O)OC)O[Si](C)(C)C
> <PUBCHEM_CACTVS_TPSA>
35.5
> <PUBCHEM_MONOISOTOPIC_WEIGHT>
456.39987218
> <PUBCHEM_TOTAL_CHARGE>
0
> <PUBCHEM_HEAVY_ATOM_COUNT>
31
> <PUBCHEM_ATOM_DEF_STEREO_COUNT>
0
> <PUBCHEM_ATOM_UDEF_STEREO_COUNT>
1
> <PUBCHEM_BOND_DEF_STEREO_COUNT>
0
> <PUBCHEM_BOND_UDEF_STEREO_COUNT>
0
> <PUBCHEM_ISOTOPIC_ATOM_COUNT>
0
> <PUBCHEM_COMPONENT_COUNT>
1
> <PUBCHEM_CACTVS_TAUTO_COUNT>
1
> <PUBCHEM_COORDINATE_TYPE>
1
5
255
> <PUBCHEM_BONDANNOTATIONS>
22  20  3
$$$$
