524421
  -OEChem-10302200292D
 57 57  0     1  0  0  0  0  0999 V2000
    3.7320   -2.5000    0.0000 C   0  0  0  0  0  0  0  0  0  0  0  0
    3.7320   -1.5000    0.0000 C   0  0  3  0  0  0  0  0  0  0  0  0
    2.8660   -3.0000    0.0000 C   0  0  0  0  0  0  0  0  0  0  0  0
    4.5981   -3.0000    0.0000 C   0  0  0  0  0  0  0  0  0  0  0  0
    4.5981   -1.0000    0.0000 C   0  0  0  0  0  0  0  0  0  0  0  0
    2.8660   -4.0000    0.0000 C   0  0  0  0  0  0  0  0  0  0  0  0
    4.5981   -4.0000    0.0000 C   0  0  0  0  0  0  0  0  0  0  0  0
    2.8660   -1.0000    0.0000 C   0  0  0  0  0  0  0  0  0  0  0  0
    3.7320   -4.5000    0.0000 C   0  0  0  0  0  0  0  0  0  0  0  0
    4.5981    0.0000    0.0000 C   0  0  0  0  0  0  0  0  0  0  0  0
    2.8660    0.0000    0.0000 C   0  0  0  0  0  0  0  0  0  0  0  0
    5.4641    0.5000    0.0000 C   0  0  0  0  0  0  0  0  0  0  0  0
    2.0000    0.5000    0.0000 C   0  0  0  0  0  0  0  0  0  0  0  0
    5.4641    1.5000    0.0000 C   0  0  0  0  0  0  0  0  0  0  0  0
    6.3301    2.0000    0.0000 C   0  0  0  0  0  0  0  0  0  0  0  0
    2.0000    1.5000    0.0000 C   0  0  0  0  0  0  0  0  0  0  0  0
    6.3301    3.0000    0.0000 C   0  0  0  0  0  0  0  0  0  0  0  0
    7.1962    3.5000    0.0000 C   0  0  0  0  0  0  0  0  0  0  0  0
    7.1962    4.5000    0.0000 C   0  0  0  0  0  0  0  0  0  0  0  0
    4.2690   -2.1900    0.0000 H   0  0  0  0  0  0  0  0  0  0  0  0
    3.7320   -0.8800    0.0000 H   0  0  0  0  0  0  0  0  0  0  0  0
    2.6540   -2.4174    0.0000 H   0  0  0  0  0  0  0  0  0  0  0  0
    2.2554   -3.1077    0.0000 H   0  0  0  0  0  0  0  0  0  0  0  0
    5.2087   -3.1077    0.0000 H   0  0  0  0  0  0  0  0  0  0  0  0
    4.8101   -2.4174    0.0000 H   0  0  0  0  0  0  0  0  0  0  0  0
    4.8101   -1.5826    0.0000 H   0  0  0  0  0  0  0  0  0  0  0  0
    5.2087   -0.8923    0.0000 H   0  0  0  0  0  0  0  0  0  0  0  0
    2.2554   -3.8923    0.0000 H   0  0  0  0  0  0  0  0  0  0  0  0
    2.6540   -4.5826    0.0000 H   0  0  0  0  0  0  0  0  0  0  0  0
    4.8101   -4.5826    0.0000 H   0  0  0  0  0  0  0  0  0  0  0  0
    5.2087   -3.8923    0.0000 H   0  0  0  0  0  0  0  0  0  0  0  0
    2.2554   -0.8923    0.0000 H   0  0  0  0  0  0  0  0  0  0  0  0
    2.6540   -1.5826    0.0000 H   0  0  0  0  0  0  0  0  0  0  0  0
    3.3335   -4.9750    0.0000 H   0  0  0  0  0  0  0  0  0  0  0  0
    4.1306   -4.9750    0.0000 H   0  0  0  0  0  0  0  0  0  0  0  0
    4.3860    0.5826    0.0000 H   0  0  0  0  0  0  0  0  0  0  0  0
    3.9875   -0.1077    0.0000 H   0  0  0  0  0  0  0  0  0  0  0  0
    3.4766   -0.1077    0.0000 H   0  0  0  0  0  0  0  0  0  0  0  0
    3.0781    0.5826    0.0000 H   0  0  0  0  0  0  0  0  0  0  0  0
    5.6762   -0.0826    0.0000 H   0  0  0  0  0  0  0  0  0  0  0  0
    6.0747    0.6077    0.0000 H   0  0  0  0  0  0  0  0  0  0  0  0
    1.3894    0.6077    0.0000 H   0  0  0  0  0  0  0  0  0  0  0  0
    1.7880   -0.0826    0.0000 H   0  0  0  0  0  0  0  0  0  0  0  0
    5.2520    2.0826    0.0000 H   0  0  0  0  0  0  0  0  0  0  0  0
    4.8535    1.3923    0.0000 H   0  0  0  0  0  0  0  0  0  0  0  0
    6.5422    1.4174    0.0000 H   0  0  0  0  0  0  0  0  0  0  0  0
    6.9407    2.1077    0.0000 H   0  0  0  0  0  0  0  0  0  0  0  0
    2.6200    1.5000    0.0000 H   0  0  0  0  0  0  0  0  0  0  0  0
    2.0000    2.1200    0.0000 H   0  0  0  0  0  0  0  0  0  0  0  0
    1.3800    1.5000    0.0000 H   0  0  0  0  0  0  0  0  0  0  0  0
    6.1181    3.5826    0.0000 H   0  0  0  0  0  0  0  0  0  0  0  0
    5.7196    2.8923    0.0000 H   0  0  0  0  0  0  0  0  0  0  0  0
    7.4082    2.9174    0.0000 H   0  0  0  0  0  0  0  0  0  0  0  0
    7.8067    3.6077    0.0000 H   0  0  0  0  0  0  0  0  0  0  0  0
    7.8162    4.5000    0.0000 H   0  0  0  0  0  0  0  0  0  0  0  0
    7.1962    5.1200    0.0000 H   0  0  0  0  0  0  0  0  0  0  0  0
    6.5762    4.5000    0.0000 H   0  0  0  0  0  0  0  0  0  0  0  0
  1  2  1  0  0  0  0
  1  3  1  0  0  0  0
  1  4  1  0  0  0  0
  1 20  1  0  0  0  0
  2  5  1  0  0  0  0
  2  8  1  0  0  0  0
  2 21  1  0  0  0  0
  3  6  1  0  0  0  0
  3 22  1  0  0  0  0
  3 23  1  0  0  0  0
  4  7  1  0  0  0  0
  4 24  1  0  0  0  0
  4 25  1  0  0  0  0
  5 10  1  0  0  0  0
  5 26  1  0  0  0  0
  5 27  1  0  0  0  0
  6  9  1  0  0  0  0
  6 28  1  0  0  0  0
  6 29  1  0  0  0  0
  7  9  1  0  0  0  0
  7 30  1  0  0  0  0
  7 31  1  0  0  0  0
  8 11  1  0  0  0  0
  8 32  1  0  0  0  0
  8 33  1  0  0  0  0
  9 34  1  0  0  0  0
  9 35  1  0  0  0  0
 10 12  1  0  0  0  0
 10 36  1  0  0  0  0
 10 37  1  0  0  0  0
 11 13  1  0  0  0  0
 11 38  1  0  0  0  0
 11 39  1  0  0  0  0
 12 14  1  0  0  0  0
 12 40  1  0  0  0  0
 12 41  1  0  0  0  0
 13 16  1  0  0  0  0
 13 42  1  0  0  0  0
 13 43  1  0  0  0  0
 14 15  1  0  0  0  0
 14 44  1  0  0  0  0
 14 45  1  0  0  0  0
 15 17  1  0  0  0  0
 15 46  1  0  0  0  0
 15 47  1  0  0  0  0
 16 48  1  0  0  0  0
 16 49  1  0  0  0  0
 16 50  1  0  0  0  0
 17 18  1  0  0  0  0
 17 51  1  0  0  0  0
 17 52  1  0  0  0  0
 18 19  1  0  0  0  0
 18 53  1  0  0  0  0
 18 54  1  0  0  0  0
 19 55  1  0  0  0  0
 19 56  1  0  0  0  0
 19 57  1  0  0  0  0
M  END
> <PUBCHEM_COMPOUND_CID>
524421
> <PUBCHEM_COMPOUND_CANONICALIZED>
1
> <PUBCHEM_CACTVS_COMPLEXITY>
179
> <PUBCHEM_CACTVS_HBOND_ACCEPTOR>
0
> <PUBCHEM_CACTVS_HBOND_DONOR>
0
> <PUBCHEM_CACTVS_ROTATABLE_BOND>
11
> <PUBCHEM_CACTVS_SUBSKEYS>
AAADcfB4AAAAAAAAAAAAAAAAAAAAAAAAAAAwAAAAAAAAAAAAAAAAGAAAAAAADQCAAAACAAAAAAAAAAAAAAAAAAAAAAAAAAAAAAAAAAIAAAAAAAAAAAAAAAEAgMAOgAAAAAAAAAAAAAAAAAAAAAAAAAAAAA==
> <PUBCHEM_IUPAC_OPENEYE_NAME>
1-butylnonylcyclohexane
> <PUBCHEM_IUPAC_CAS_NAME>
tridecan-5-ylcyclohexane
> <PUBCHEM_IUPAC_NAME_MARKUP>
tridecan-5-ylcyclohexane
> <PUBCHEM_IUPAC_NAME>
tridecan-5-ylcyclohexane
> <PUBCHEM_IUPAC_SYSTEMATIC_NAME>
tridecan-5-ylcyclohexane
> <PUBCHEM_IUPAC_TRADITIONAL_NAME>
1-butylnonylcyclohexane
> <PUBCHEM_IUPAC_INCHI>
InChI=1S/C19H38/c1-3-5-7-8-9-11-15-18(14-6-4-2)19-16-12-10-13-17-19/h18-19H,3-17H2,1-2H3
> <PUBCHEM_IUPAC_INCHIKEY>
VJBKZHIKOCIOPS-UHFFFAOYSA-N
> <PUBCHEM_XLOGP3_AA>
9.7
> <PUBCHEM_EXACT_MASS>
266.297351212
> <PUBCHEM_MOLECULAR_FORMULA>
C19H38
> <PUBCHEM_MOLECULAR_WEIGHT>
266.5
> <PUBCHEM_OPENEYE_CAN_SMILES>
CCCCCCCCC(CCCC)C1CCCCC1
> <PUBCHEM_OPENEYE_ISO_SMILES>
CCCCCCCCC(CCCC)C1CCCCC1
> <PUBCHEM_CACTVS_TPSA>
0
> <PUBCHEM_MONOISOTOPIC_WEIGHT>
266.297351212
> <PUBCHEM_TOTAL_CHARGE>
0
> <PUBCHEM_HEAVY_ATOM_COUNT>
19
> <PUBCHEM_ATOM_DEF_STEREO_COUNT>
0
> <PUBCHEM_ATOM_UDEF_STEREO_COUNT>
1
> <PUBCHEM_BOND_DEF_STEREO_COUNT>
0
> <PUBCHEM_BOND_UDEF_STEREO_COUNT>
0
> <PUBCHEM_ISOTOPIC_ATOM_COUNT>
0
> <PUBCHEM_COMPONENT_COUNT>
1
> <PUBCHEM_CACTVS_TAUTO_COUNT>
1
> <PUBCHEM_COORDINATE_TYPE>
1
5
255
> <PUBCHEM_BONDANNOTATIONS>
2  8  3
$$$$
