524401
  -OEChem-10302200292D
 29 29  0     1  0  0  0  0  0999 V2000
    3.7320    2.5000    0.0000 Cl  0  0  0  0  0  0  0  0  0  0  0  0
    5.4641    0.5000    0.0000 O   0  0  0  0  0  0  0  0  0  0  0  0
    3.7320    0.5000    0.0000 O   0  0  0  0  0  0  0  0  0  0  0  0
    4.5981    2.0000    0.0000 C   0  0  3  0  0  0  0  0  0  0  0  0
    5.4641    2.5000    0.0000 C   0  0  0  0  0  0  0  0  0  0  0  0
    4.5981    1.0000    0.0000 C   0  0  3  0  0  0  0  0  0  0  0  0
    6.3301    2.0000    0.0000 C   0  0  0  0  0  0  0  0  0  0  0  0
    6.3301    1.0000    0.0000 C   0  0  0  0  0  0  0  0  0  0  0  0
    3.7320   -0.5000    0.0000 C   0  0  0  0  0  0  0  0  0  0  0  0
    2.8660   -1.0000    0.0000 C   0  0  0  0  0  0  0  0  0  0  0  0
    2.8660   -2.0000    0.0000 C   0  0  0  0  0  0  0  0  0  0  0  0
    2.0000   -2.5000    0.0000 C   0  0  0  0  0  0  0  0  0  0  0  0
    4.5981    2.6200    0.0000 H   0  0  0  0  0  0  0  0  0  0  0  0
    5.8626    2.9750    0.0000 H   0  0  0  0  0  0  0  0  0  0  0  0
    5.0656    2.9750    0.0000 H   0  0  0  0  0  0  0  0  0  0  0  0
    4.5981    0.3800    0.0000 H   0  0  0  0  0  0  0  0  0  0  0  0
    6.9407    1.8923    0.0000 H   0  0  0  0  0  0  0  0  0  0  0  0
    6.5422    2.5826    0.0000 H   0  0  0  0  0  0  0  0  0  0  0  0
    6.5422    0.4174    0.0000 H   0  0  0  0  0  0  0  0  0  0  0  0
    6.9407    1.1077    0.0000 H   0  0  0  0  0  0  0  0  0  0  0  0
    3.9441   -1.0826    0.0000 H   0  0  0  0  0  0  0  0  0  0  0  0
    4.3426   -0.3923    0.0000 H   0  0  0  0  0  0  0  0  0  0  0  0
    2.6540   -0.4174    0.0000 H   0  0  0  0  0  0  0  0  0  0  0  0
    2.2554   -1.1077    0.0000 H   0  0  0  0  0  0  0  0  0  0  0  0
    3.0781   -2.5826    0.0000 H   0  0  0  0  0  0  0  0  0  0  0  0
    3.4766   -1.8923    0.0000 H   0  0  0  0  0  0  0  0  0  0  0  0
    1.6900   -1.9631    0.0000 H   0  0  0  0  0  0  0  0  0  0  0  0
    1.4631   -2.8100    0.0000 H   0  0  0  0  0  0  0  0  0  0  0  0
    2.3100   -3.0369    0.0000 H   0  0  0  0  0  0  0  0  0  0  0  0
  1  4  1  0  0  0  0
  2  6  1  0  0  0  0
  2  8  1  0  0  0  0
  3  6  1  0  0  0  0
  3  9  1  0  0  0  0
  4  5  1  0  0  0  0
  4  6  1  0  0  0  0
  4 13  1  0  0  0  0
  5  7  1  0  0  0  0
  5 14  1  0  0  0  0
  5 15  1  0  0  0  0
  6 16  1  0  0  0  0
  7  8  1  0  0  0  0
  7 17  1  0  0  0  0
  7 18  1  0  0  0  0
  8 19  1  0  0  0  0
  8 20  1  0  0  0  0
  9 10  1  0  0  0  0
  9 21  1  0  0  0  0
  9 22  1  0  0  0  0
 10 11  1  0  0  0  0
 10 23  1  0  0  0  0
 10 24  1  0  0  0  0
 11 12  1  0  0  0  0
 11 25  1  0  0  0  0
 11 26  1  0  0  0  0
 12 27  1  0  0  0  0
 12 28  1  0  0  0  0
 12 29  1  0  0  0  0
M  END
> <PUBCHEM_COMPOUND_CID>
524401
> <PUBCHEM_COMPOUND_CANONICALIZED>
1
> <PUBCHEM_CACTVS_COMPLEXITY>
119
> <PUBCHEM_CACTVS_HBOND_ACCEPTOR>
2
> <PUBCHEM_CACTVS_HBOND_DONOR>
0
> <PUBCHEM_CACTVS_ROTATABLE_BOND>
4
> <PUBCHEM_CACTVS_SUBSKEYS>
AAADceBwMAAEAAAAAAAAAAAAAAAAAAAAAAAkAAAAAAAAAAAAAAAAGgIAAAAACAOwgEMCCAAABAAAAAAAAAAAAAAAAAAAAAAAAwAQAAIBAAAiAAAEAAAEAACAIAgAAAAAAAAAAAAAAAAAAAAAAAAAAAAAAA==
> <PUBCHEM_IUPAC_OPENEYE_NAME>
2-butoxy-3-chloro-tetrahydropyran
> <PUBCHEM_IUPAC_CAS_NAME>
2-butoxy-3-chlorooxane
> <PUBCHEM_IUPAC_NAME_MARKUP>
2-butoxy-3-chlorooxane
> <PUBCHEM_IUPAC_NAME>
2-butoxy-3-chlorooxane
> <PUBCHEM_IUPAC_SYSTEMATIC_NAME>
2-butoxy-3-chloranyl-oxane
> <PUBCHEM_IUPAC_TRADITIONAL_NAME>
2-butoxy-3-chloro-tetrahydropyran
> <PUBCHEM_IUPAC_INCHI>
InChI=1S/C9H17ClO2/c1-2-3-6-11-9-8(10)5-4-7-12-9/h8-9H,2-7H2,1H3
> <PUBCHEM_IUPAC_INCHIKEY>
YVJCTCVZSCULEB-UHFFFAOYSA-N
> <PUBCHEM_XLOGP3_AA>
2.5
> <PUBCHEM_EXACT_MASS>
192.0917075
> <PUBCHEM_MOLECULAR_FORMULA>
C9H17ClO2
> <PUBCHEM_MOLECULAR_WEIGHT>
192.68
> <PUBCHEM_OPENEYE_CAN_SMILES>
CCCCOC1C(CCCO1)Cl
> <PUBCHEM_OPENEYE_ISO_SMILES>
CCCCOC1C(CCCO1)Cl
> <PUBCHEM_CACTVS_TPSA>
18.5
> <PUBCHEM_MONOISOTOPIC_WEIGHT>
192.0917075
> <PUBCHEM_TOTAL_CHARGE>
0
> <PUBCHEM_HEAVY_ATOM_COUNT>
12
> <PUBCHEM_ATOM_DEF_STEREO_COUNT>
0
> <PUBCHEM_ATOM_UDEF_STEREO_COUNT>
2
> <PUBCHEM_BOND_DEF_STEREO_COUNT>
0
> <PUBCHEM_BOND_UDEF_STEREO_COUNT>
0
> <PUBCHEM_ISOTOPIC_ATOM_COUNT>
0
> <PUBCHEM_COMPONENT_COUNT>
1
> <PUBCHEM_CACTVS_TAUTO_COUNT>
-1
> <PUBCHEM_COORDINATE_TYPE>
1
5
255
> <PUBCHEM_BONDANNOTATIONS>
4  1  3
6  3  3
$$$$
