524460
  -OEChem-10302200292D
 71 71  0     1  0  0  0  0  0999 V2000
    6.3301   -2.9330    0.0000 Si  0  0  0  0  0  0  0  0  0  0  0  0
    8.9282   -0.4330    0.0000 Si  0  0  0  0  0  0  0  0  0  0  0  0
    6.3301    3.0670    0.0000 Si  0  0  0  0  0  0  0  0  0  0  0  0
    2.8660    1.0670    0.0000 Si  0  0  0  0  0  0  0  0  0  0  0  0
    8.0622    0.0670    0.0000 O   0  0  0  0  0  0  0  0  0  0  0  0
    5.4641    2.5670    0.0000 O   0  0  0  0  0  0  0  0  0  0  0  0
    3.7320    1.5670    0.0000 O   0  0  0  0  0  0  0  0  0  0  0  0
    6.3301   -1.9330    0.0000 N   0  0  0  0  0  0  0  0  0  0  0  0
    7.1962   -0.4330    0.0000 C   0  0  3  0  0  0  0  0  0  0  0  0
    7.1962   -1.4330    0.0000 C   0  0  0  0  0  0  0  0  0  0  0  0
    6.3301    0.0670    0.0000 C   0  0  0  0  0  0  0  0  0  0  0  0
    6.3301   -3.9330    0.0000 C   0  0  0  0  0  0  0  0  0  0  0  0
    5.3301   -2.9330    0.0000 C   0  0  0  0  0  0  0  0  0  0  0  0
    7.3301   -2.9330    0.0000 C   0  0  0  0  0  0  0  0  0  0  0  0
    6.3301    1.0670    0.0000 C   0  0  0  0  0  0  0  0  0  0  0  0
    5.4641    1.5670    0.0000 C   0  0  0  0  0  0  0  0  0  0  0  0
    5.4641   -0.4330    0.0000 C   0  0  0  0  0  0  0  0  0  0  0  0
    9.7942   -0.9330    0.0000 C   0  0  0  0  0  0  0  0  0  0  0  0
    9.4282    0.4330    0.0000 C   0  0  0  0  0  0  0  0  0  0  0  0
    8.4282   -1.2990    0.0000 C   0  0  0  0  0  0  0  0  0  0  0  0
    4.5981    1.0670    0.0000 C   0  0  0  0  0  0  0  0  0  0  0  0
    4.5981    0.0670    0.0000 C   0  0  0  0  0  0  0  0  0  0  0  0
    7.1962    3.5670    0.0000 C   0  0  0  0  0  0  0  0  0  0  0  0
    5.8301    3.9330    0.0000 C   0  0  0  0  0  0  0  0  0  0  0  0
    6.8301    2.2010    0.0000 C   0  0  0  0  0  0  0  0  0  0  0  0
    2.0000    0.5670    0.0000 C   0  0  0  0  0  0  0  0  0  0  0  0
    2.3660    1.9330    0.0000 C   0  0  0  0  0  0  0  0  0  0  0  0
    3.3660    0.2010    0.0000 C   0  0  0  0  0  0  0  0  0  0  0  0
    7.7331   -0.7430    0.0000 H   0  0  0  0  0  0  0  0  0  0  0  0
    7.4082   -2.0156    0.0000 H   0  0  0  0  0  0  0  0  0  0  0  0
    7.8067   -1.3254    0.0000 H   0  0  0  0  0  0  0  0  0  0  0  0
    5.7932   -1.6230    0.0000 H   0  0  0  0  0  0  0  0  0  0  0  0
    5.7101   -3.9330    0.0000 H   0  0  0  0  0  0  0  0  0  0  0  0
    6.3301   -4.5530    0.0000 H   0  0  0  0  0  0  0  0  0  0  0  0
    6.9501   -3.9330    0.0000 H   0  0  0  0  0  0  0  0  0  0  0  0
    5.3301   -2.3130    0.0000 H   0  0  0  0  0  0  0  0  0  0  0  0
    4.7101   -2.9330    0.0000 H   0  0  0  0  0  0  0  0  0  0  0  0
    5.3301   -3.5530    0.0000 H   0  0  0  0  0  0  0  0  0  0  0  0
    7.3301   -3.5530    0.0000 H   0  0  0  0  0  0  0  0  0  0  0  0
    7.9501   -2.9330    0.0000 H   0  0  0  0  0  0  0  0  0  0  0  0
    7.3301   -2.3130    0.0000 H   0  0  0  0  0  0  0  0  0  0  0  0
    6.8671    1.3770    0.0000 H   0  0  0  0  0  0  0  0  0  0  0  0
    5.4641   -1.0530    0.0000 H   0  0  0  0  0  0  0  0  0  0  0  0
    9.4842   -1.4700    0.0000 H   0  0  0  0  0  0  0  0  0  0  0  0
   10.3312   -1.2430    0.0000 H   0  0  0  0  0  0  0  0  0  0  0  0
   10.1042   -0.3961    0.0000 H   0  0  0  0  0  0  0  0  0  0  0  0
    9.9651    0.1230    0.0000 H   0  0  0  0  0  0  0  0  0  0  0  0
    9.7382    0.9699    0.0000 H   0  0  0  0  0  0  0  0  0  0  0  0
    8.8913    0.7430    0.0000 H   0  0  0  0  0  0  0  0  0  0  0  0
    7.8913   -0.9890    0.0000 H   0  0  0  0  0  0  0  0  0  0  0  0
    8.1182   -1.8360    0.0000 H   0  0  0  0  0  0  0  0  0  0  0  0
    8.9651   -1.6090    0.0000 H   0  0  0  0  0  0  0  0  0  0  0  0
    4.0611   -0.2430    0.0000 H   0  0  0  0  0  0  0  0  0  0  0  0
    7.5062    3.0300    0.0000 H   0  0  0  0  0  0  0  0  0  0  0  0
    7.7331    3.8770    0.0000 H   0  0  0  0  0  0  0  0  0  0  0  0
    6.8862    4.1039    0.0000 H   0  0  0  0  0  0  0  0  0  0  0  0
    6.3671    4.2430    0.0000 H   0  0  0  0  0  0  0  0  0  0  0  0
    5.5201    4.4700    0.0000 H   0  0  0  0  0  0  0  0  0  0  0  0
    5.2932    3.6230    0.0000 H   0  0  0  0  0  0  0  0  0  0  0  0
    6.2932    1.8910    0.0000 H   0  0  0  0  0  0  0  0  0  0  0  0
    7.1401    1.6640    0.0000 H   0  0  0  0  0  0  0  0  0  0  0  0
    7.3671    2.5110    0.0000 H   0  0  0  0  0  0  0  0  0  0  0  0
    1.6900    1.1039    0.0000 H   0  0  0  0  0  0  0  0  0  0  0  0
    1.4631    0.2570    0.0000 H   0  0  0  0  0  0  0  0  0  0  0  0
    2.3100    0.0301    0.0000 H   0  0  0  0  0  0  0  0  0  0  0  0
    2.9030    2.2430    0.0000 H   0  0  0  0  0  0  0  0  0  0  0  0
    2.0560    2.4700    0.0000 H   0  0  0  0  0  0  0  0  0  0  0  0
    1.8291    1.6230    0.0000 H   0  0  0  0  0  0  0  0  0  0  0  0
    2.8291   -0.1090    0.0000 H   0  0  0  0  0  0  0  0  0  0  0  0
    3.6760   -0.3360    0.0000 H   0  0  0  0  0  0  0  0  0  0  0  0
    3.9030    0.5110    0.0000 H   0  0  0  0  0  0  0  0  0  0  0  0
  1  8  1  0  0  0  0
  1 12  1  0  0  0  0
  1 13  1  0  0  0  0
  1 14  1  0  0  0  0
  2  5  1  0  0  0  0
  2 18  1  0  0  0  0
  2 19  1  0  0  0  0
  2 20  1  0  0  0  0
  3  6  1  0  0  0  0
  3 23  1  0  0  0  0
  3 24  1  0  0  0  0
  3 25  1  0  0  0  0
  4  7  1  0  0  0  0
  4 26  1  0  0  0  0
  4 27  1  0  0  0  0
  4 28  1  0  0  0  0
  5  9  1  0  0  0  0
  6 16  1  0  0  0  0
  7 21  1  0  0  0  0
  8 10  1  0  0  0  0
  8 32  1  0  0  0  0
  9 10  1  0  0  0  0
  9 11  1  0  0  0  0
  9 29  1  0  0  0  0
 10 30  1  0  0  0  0
 10 31  1  0  0  0  0
 11 15  2  0  0  0  0
 11 17  1  0  0  0  0
 12 33  1  0  0  0  0
 12 34  1  0  0  0  0
 12 35  1  0  0  0  0
 13 36  1  0  0  0  0
 13 37  1  0  0  0  0
 13 38  1  0  0  0  0
 14 39  1  0  0  0  0
 14 40  1  0  0  0  0
 14 41  1  0  0  0  0
 15 16  1  0  0  0  0
 15 42  1  0  0  0  0
 16 21  2  0  0  0  0
 17 22  2  0  0  0  0
 17 43  1  0  0  0  0
 18 44  1  0  0  0  0
 18 45  1  0  0  0  0
 18 46  1  0  0  0  0
 19 47  1  0  0  0  0
 19 48  1  0  0  0  0
 19 49  1  0  0  0  0
 20 50  1  0  0  0  0
 20 51  1  0  0  0  0
 20 52  1  0  0  0  0
 21 22  1  0  0  0  0
 22 53  1  0  0  0  0
 23 54  1  0  0  0  0
 23 55  1  0  0  0  0
 23 56  1  0  0  0  0
 24 57  1  0  0  0  0
 24 58  1  0  0  0  0
 24 59  1  0  0  0  0
 25 60  1  0  0  0  0
 25 61  1  0  0  0  0
 25 62  1  0  0  0  0
 26 63  1  0  0  0  0
 26 64  1  0  0  0  0
 26 65  1  0  0  0  0
 27 66  1  0  0  0  0
 27 67  1  0  0  0  0
 27 68  1  0  0  0  0
 28 69  1  0  0  0  0
 28 70  1  0  0  0  0
 28 71  1  0  0  0  0
M  END
> <PUBCHEM_COMPOUND_CID>
524460
> <PUBCHEM_COMPOUND_CANONICALIZED>
1
> <PUBCHEM_CACTVS_COMPLEXITY>
478
> <PUBCHEM_CACTVS_HBOND_ACCEPTOR>
4
> <PUBCHEM_CACTVS_HBOND_DONOR>
1
> <PUBCHEM_CACTVS_ROTATABLE_BOND>
10
> <PUBCHEM_CACTVS_SUBSKEYS>
AAADcfB6MAwAAAAAAAAAAAAAAAAAAAAAAAAwAAAAAAAAAAABAAAAHhARAEAADBThmAZyBoBAAAGAAiBCAAACAAAgIAAIiIAGiIgLJiKAkROAMAAk0BEIiAfQ8LQOIAABAAAAQABAAAIAAACAAAAAAAAAAA==
> <PUBCHEM_IUPAC_OPENEYE_NAME>
2-[3,4-bis(trimethylsilyloxy)phenyl]-N-trimethylsilyl-2-trimethylsilyloxy-ethanamine
> <PUBCHEM_IUPAC_CAS_NAME>
2-[3,4-bis(trimethylsilyloxy)phenyl]-N-trimethylsilyl-2-trimethylsilyloxyethanamine
> <PUBCHEM_IUPAC_NAME_MARKUP>
2-[3,4-bis(trimethylsilyloxy)phenyl]-<I>N</I>-trimethylsilyl-2-trimethylsilyloxyethanamine
> <PUBCHEM_IUPAC_NAME>
2-[3,4-bis(trimethylsilyloxy)phenyl]-N-trimethylsilyl-2-trimethylsilyloxyethanamine
> <PUBCHEM_IUPAC_SYSTEMATIC_NAME>
2-[3,4-bis(trimethylsilyloxy)phenyl]-N-trimethylsilyl-2-trimethylsilyloxy-ethanamine
> <PUBCHEM_IUPAC_TRADITIONAL_NAME>
[2-[3,4-bis(trimethylsilyloxy)phenyl]-2-trimethylsilyloxy-ethyl]-trimethylsilyl-amine
> <PUBCHEM_IUPAC_INCHI>
InChI=1S/C20H43NO3Si4/c1-25(2,3)21-16-20(24-28(10,11)12)17-13-14-18(22-26(4,5)6)19(15-17)23-27(7,8)9/h13-15,20-21H,16H2,1-12H3
> <PUBCHEM_IUPAC_INCHIKEY>
MLHNBOALOLAGFS-UHFFFAOYSA-N
> <PUBCHEM_EXACT_MASS>
457.23200037
> <PUBCHEM_MOLECULAR_FORMULA>
C20H43NO3Si4
> <PUBCHEM_MOLECULAR_WEIGHT>
457.9
> <PUBCHEM_OPENEYE_CAN_SMILES>
C[Si](C)(C)NCC(C1=CC(=C(C=C1)O[Si](C)(C)C)O[Si](C)(C)C)O[Si](C)(C)C
> <PUBCHEM_OPENEYE_ISO_SMILES>
C[Si](C)(C)NCC(C1=CC(=C(C=C1)O[Si](C)(C)C)O[Si](C)(C)C)O[Si](C)(C)C
> <PUBCHEM_CACTVS_TPSA>
39.7
> <PUBCHEM_MONOISOTOPIC_WEIGHT>
457.23200037
> <PUBCHEM_TOTAL_CHARGE>
0
> <PUBCHEM_HEAVY_ATOM_COUNT>
28
> <PUBCHEM_ATOM_DEF_STEREO_COUNT>
0
> <PUBCHEM_ATOM_UDEF_STEREO_COUNT>
1
> <PUBCHEM_BOND_DEF_STEREO_COUNT>
0
> <PUBCHEM_BOND_UDEF_STEREO_COUNT>
0
> <PUBCHEM_ISOTOPIC_ATOM_COUNT>
0
> <PUBCHEM_COMPONENT_COUNT>
1
> <PUBCHEM_CACTVS_TAUTO_COUNT>
-1
> <PUBCHEM_COORDINATE_TYPE>
1
5
255
> <PUBCHEM_BONDANNOTATIONS>
11  15  8
11  17  8
15  16  8
16  21  8
17  22  8
21  22  8
9  10  3
$$$$
