524431
  -OEChem-10302200292D
 39 39  0     1  0  0  0  0  0999 V2000
    2.8660   -1.2500    0.0000 C   0  0  0  0  0  0  0  0  0  0  0  0
    2.8660   -0.2500    0.0000 C   0  0  3  0  0  0  0  0  0  0  0  0
    2.0000   -1.7500    0.0000 C   0  0  0  0  0  0  0  0  0  0  0  0
    3.7320   -1.7500    0.0000 C   0  0  0  0  0  0  0  0  0  0  0  0
    2.0000   -2.7500    0.0000 C   0  0  0  0  0  0  0  0  0  0  0  0
    3.7320   -2.7500    0.0000 C   0  0  0  0  0  0  0  0  0  0  0  0
    2.8660   -3.2500    0.0000 C   0  0  0  0  0  0  0  0  0  0  0  0
    3.7320    0.2500    0.0000 C   0  0  0  0  0  0  0  0  0  0  0  0
    2.0000    0.2500    0.0000 C   0  0  0  0  0  0  0  0  0  0  0  0
    3.7320    1.2500    0.0000 C   0  0  0  0  0  0  0  0  0  0  0  0
    4.5981    1.7500    0.0000 C   0  0  0  0  0  0  0  0  0  0  0  0
    4.5981    2.7500    0.0000 C   0  0  0  0  0  0  0  0  0  0  0  0
    5.4641    3.2500    0.0000 C   0  0  0  0  0  0  0  0  0  0  0  0
    3.4030   -0.9400    0.0000 H   0  0  0  0  0  0  0  0  0  0  0  0
    2.8660    0.3700    0.0000 H   0  0  0  0  0  0  0  0  0  0  0  0
    1.7880   -1.1674    0.0000 H   0  0  0  0  0  0  0  0  0  0  0  0
    1.3894   -1.8577    0.0000 H   0  0  0  0  0  0  0  0  0  0  0  0
    4.3426   -1.8577    0.0000 H   0  0  0  0  0  0  0  0  0  0  0  0
    3.9441   -1.1674    0.0000 H   0  0  0  0  0  0  0  0  0  0  0  0
    1.3894   -2.6423    0.0000 H   0  0  0  0  0  0  0  0  0  0  0  0
    1.7880   -3.3326    0.0000 H   0  0  0  0  0  0  0  0  0  0  0  0
    3.9441   -3.3326    0.0000 H   0  0  0  0  0  0  0  0  0  0  0  0
    4.3426   -2.6423    0.0000 H   0  0  0  0  0  0  0  0  0  0  0  0
    2.4675   -3.7250    0.0000 H   0  0  0  0  0  0  0  0  0  0  0  0
    3.2646   -3.7250    0.0000 H   0  0  0  0  0  0  0  0  0  0  0  0
    3.9441   -0.3326    0.0000 H   0  0  0  0  0  0  0  0  0  0  0  0
    4.3426    0.3577    0.0000 H   0  0  0  0  0  0  0  0  0  0  0  0
    2.3100    0.7869    0.0000 H   0  0  0  0  0  0  0  0  0  0  0  0
    1.4631    0.5600    0.0000 H   0  0  0  0  0  0  0  0  0  0  0  0
    1.6900   -0.2869    0.0000 H   0  0  0  0  0  0  0  0  0  0  0  0
    3.5200    1.8326    0.0000 H   0  0  0  0  0  0  0  0  0  0  0  0
    3.1215    1.1423    0.0000 H   0  0  0  0  0  0  0  0  0  0  0  0
    4.8101    1.1674    0.0000 H   0  0  0  0  0  0  0  0  0  0  0  0
    5.2087    1.8577    0.0000 H   0  0  0  0  0  0  0  0  0  0  0  0
    4.3860    3.3326    0.0000 H   0  0  0  0  0  0  0  0  0  0  0  0
    3.9875    2.6423    0.0000 H   0  0  0  0  0  0  0  0  0  0  0  0
    5.7741    2.7131    0.0000 H   0  0  0  0  0  0  0  0  0  0  0  0
    6.0010    3.5600    0.0000 H   0  0  0  0  0  0  0  0  0  0  0  0
    5.1541    3.7869    0.0000 H   0  0  0  0  0  0  0  0  0  0  0  0
  1  2  1  0  0  0  0
  1  3  1  0  0  0  0
  1  4  1  0  0  0  0
  1 14  1  0  0  0  0
  2  8  1  0  0  0  0
  2  9  1  0  0  0  0
  2 15  1  0  0  0  0
  3  5  1  0  0  0  0
  3 16  1  0  0  0  0
  3 17  1  0  0  0  0
  4  6  1  0  0  0  0
  4 18  1  0  0  0  0
  4 19  1  0  0  0  0
  5  7  1  0  0  0  0
  5 20  1  0  0  0  0
  5 21  1  0  0  0  0
  6  7  1  0  0  0  0
  6 22  1  0  0  0  0
  6 23  1  0  0  0  0
  7 24  1  0  0  0  0
  7 25  1  0  0  0  0
  8 10  1  0  0  0  0
  8 26  1  0  0  0  0
  8 27  1  0  0  0  0
  9 28  1  0  0  0  0
  9 29  1  0  0  0  0
  9 30  1  0  0  0  0
 10 11  1  0  0  0  0
 10 31  1  0  0  0  0
 10 32  1  0  0  0  0
 11 12  1  0  0  0  0
 11 33  1  0  0  0  0
 11 34  1  0  0  0  0
 12 13  1  0  0  0  0
 12 35  1  0  0  0  0
 12 36  1  0  0  0  0
 13 37  1  0  0  0  0
 13 38  1  0  0  0  0
 13 39  1  0  0  0  0
M  END
> <PUBCHEM_COMPOUND_CID>
524431
> <PUBCHEM_COMPOUND_CANONICALIZED>
1
> <PUBCHEM_CACTVS_COMPLEXITY>
111
> <PUBCHEM_CACTVS_HBOND_ACCEPTOR>
0
> <PUBCHEM_CACTVS_HBOND_DONOR>
0
> <PUBCHEM_CACTVS_ROTATABLE_BOND>
5
> <PUBCHEM_CACTVS_SUBSKEYS>
AAADceBwAAAAAAAAAAAAAAAAAAAAAAAAAAAwAAAAAAAAAAAAAAAAGAAAAAAADQCAAAACAAAAAAAAAAAAAAAAAAAAAAAAAAAAAAAAAAIAAAAAAAAAAAAAAAEAgMAOgAAAAAAAAAAAAAAAAAAAAAAAAAAAAA==
> <PUBCHEM_IUPAC_OPENEYE_NAME>
1-methylhexylcyclohexane
> <PUBCHEM_IUPAC_CAS_NAME>
heptan-2-ylcyclohexane
> <PUBCHEM_IUPAC_NAME_MARKUP>
heptan-2-ylcyclohexane
> <PUBCHEM_IUPAC_NAME>
heptan-2-ylcyclohexane
> <PUBCHEM_IUPAC_SYSTEMATIC_NAME>
heptan-2-ylcyclohexane
> <PUBCHEM_IUPAC_TRADITIONAL_NAME>
1-methylhexylcyclohexane
> <PUBCHEM_IUPAC_INCHI>
InChI=1S/C13H26/c1-3-4-6-9-12(2)13-10-7-5-8-11-13/h12-13H,3-11H2,1-2H3
> <PUBCHEM_IUPAC_INCHIKEY>
AROVDVSKSDBION-UHFFFAOYSA-N
> <PUBCHEM_XLOGP3_AA>
6.5
> <PUBCHEM_EXACT_MASS>
182.203450829
> <PUBCHEM_MOLECULAR_FORMULA>
C13H26
> <PUBCHEM_MOLECULAR_WEIGHT>
182.35
> <PUBCHEM_OPENEYE_CAN_SMILES>
CCCCCC(C)C1CCCCC1
> <PUBCHEM_OPENEYE_ISO_SMILES>
CCCCCC(C)C1CCCCC1
> <PUBCHEM_CACTVS_TPSA>
0
> <PUBCHEM_MONOISOTOPIC_WEIGHT>
182.203450829
> <PUBCHEM_TOTAL_CHARGE>
0
> <PUBCHEM_HEAVY_ATOM_COUNT>
13
> <PUBCHEM_ATOM_DEF_STEREO_COUNT>
0
> <PUBCHEM_ATOM_UDEF_STEREO_COUNT>
1
> <PUBCHEM_BOND_DEF_STEREO_COUNT>
0
> <PUBCHEM_BOND_UDEF_STEREO_COUNT>
0
> <PUBCHEM_ISOTOPIC_ATOM_COUNT>
0
> <PUBCHEM_COMPONENT_COUNT>
1
> <PUBCHEM_CACTVS_TAUTO_COUNT>
-1
> <PUBCHEM_COORDINATE_TYPE>
1
5
255
> <PUBCHEM_BONDANNOTATIONS>
2  9  3
$$$$
