524438
  -OEChem-10302200292D
 57 57  0     1  0  0  0  0  0999 V2000
    3.7320   -2.7500    0.0000 C   0  0  0  0  0  0  0  0  0  0  0  0
    3.7320   -1.7500    0.0000 C   0  0  3  0  0  0  0  0  0  0  0  0
    2.8660   -3.2500    0.0000 C   0  0  0  0  0  0  0  0  0  0  0  0
    4.5981   -3.2500    0.0000 C   0  0  0  0  0  0  0  0  0  0  0  0
    4.5981   -1.2500    0.0000 C   0  0  0  0  0  0  0  0  0  0  0  0
    2.8660   -4.2500    0.0000 C   0  0  0  0  0  0  0  0  0  0  0  0
    4.5981   -4.2500    0.0000 C   0  0  0  0  0  0  0  0  0  0  0  0
    2.8660   -1.2500    0.0000 C   0  0  0  0  0  0  0  0  0  0  0  0
    3.7320   -4.7500    0.0000 C   0  0  0  0  0  0  0  0  0  0  0  0
    4.5981   -0.2500    0.0000 C   0  0  0  0  0  0  0  0  0  0  0  0
    2.8660   -0.2500    0.0000 C   0  0  0  0  0  0  0  0  0  0  0  0
    5.4641    0.2500    0.0000 C   0  0  0  0  0  0  0  0  0  0  0  0
    5.4641    1.2500    0.0000 C   0  0  0  0  0  0  0  0  0  0  0  0
    2.0000    0.2500    0.0000 C   0  0  0  0  0  0  0  0  0  0  0  0
    6.3301    1.7500    0.0000 C   0  0  0  0  0  0  0  0  0  0  0  0
    6.3301    2.7500    0.0000 C   0  0  0  0  0  0  0  0  0  0  0  0
    7.1962    3.2500    0.0000 C   0  0  0  0  0  0  0  0  0  0  0  0
    7.1962    4.2500    0.0000 C   0  0  0  0  0  0  0  0  0  0  0  0
    8.0622    4.7500    0.0000 C   0  0  0  0  0  0  0  0  0  0  0  0
    4.2690   -2.4400    0.0000 H   0  0  0  0  0  0  0  0  0  0  0  0
    3.7320   -1.1300    0.0000 H   0  0  0  0  0  0  0  0  0  0  0  0
    2.6540   -2.6674    0.0000 H   0  0  0  0  0  0  0  0  0  0  0  0
    2.2554   -3.3577    0.0000 H   0  0  0  0  0  0  0  0  0  0  0  0
    5.2087   -3.3577    0.0000 H   0  0  0  0  0  0  0  0  0  0  0  0
    4.8101   -2.6674    0.0000 H   0  0  0  0  0  0  0  0  0  0  0  0
    4.8101   -1.8326    0.0000 H   0  0  0  0  0  0  0  0  0  0  0  0
    5.2087   -1.1423    0.0000 H   0  0  0  0  0  0  0  0  0  0  0  0
    2.2554   -4.1423    0.0000 H   0  0  0  0  0  0  0  0  0  0  0  0
    2.6540   -4.8326    0.0000 H   0  0  0  0  0  0  0  0  0  0  0  0
    4.8101   -4.8326    0.0000 H   0  0  0  0  0  0  0  0  0  0  0  0
    5.2087   -4.1423    0.0000 H   0  0  0  0  0  0  0  0  0  0  0  0
    2.2554   -1.1423    0.0000 H   0  0  0  0  0  0  0  0  0  0  0  0
    2.6540   -1.8326    0.0000 H   0  0  0  0  0  0  0  0  0  0  0  0
    3.3335   -5.2250    0.0000 H   0  0  0  0  0  0  0  0  0  0  0  0
    4.1306   -5.2250    0.0000 H   0  0  0  0  0  0  0  0  0  0  0  0
    4.3860    0.3326    0.0000 H   0  0  0  0  0  0  0  0  0  0  0  0
    3.9875   -0.3577    0.0000 H   0  0  0  0  0  0  0  0  0  0  0  0
    3.4766   -0.3577    0.0000 H   0  0  0  0  0  0  0  0  0  0  0  0
    3.0781    0.3326    0.0000 H   0  0  0  0  0  0  0  0  0  0  0  0
    5.6762   -0.3326    0.0000 H   0  0  0  0  0  0  0  0  0  0  0  0
    6.0747    0.3577    0.0000 H   0  0  0  0  0  0  0  0  0  0  0  0
    5.2520    1.8326    0.0000 H   0  0  0  0  0  0  0  0  0  0  0  0
    4.8535    1.1423    0.0000 H   0  0  0  0  0  0  0  0  0  0  0  0
    2.3100    0.7869    0.0000 H   0  0  0  0  0  0  0  0  0  0  0  0
    1.4631    0.5600    0.0000 H   0  0  0  0  0  0  0  0  0  0  0  0
    1.6900   -0.2869    0.0000 H   0  0  0  0  0  0  0  0  0  0  0  0
    6.5422    1.1674    0.0000 H   0  0  0  0  0  0  0  0  0  0  0  0
    6.9407    1.8577    0.0000 H   0  0  0  0  0  0  0  0  0  0  0  0
    6.1181    3.3326    0.0000 H   0  0  0  0  0  0  0  0  0  0  0  0
    5.7196    2.6423    0.0000 H   0  0  0  0  0  0  0  0  0  0  0  0
    7.4082    2.6674    0.0000 H   0  0  0  0  0  0  0  0  0  0  0  0
    7.8067    3.3577    0.0000 H   0  0  0  0  0  0  0  0  0  0  0  0
    6.9841    4.8326    0.0000 H   0  0  0  0  0  0  0  0  0  0  0  0
    6.5856    4.1423    0.0000 H   0  0  0  0  0  0  0  0  0  0  0  0
    8.3722    4.2131    0.0000 H   0  0  0  0  0  0  0  0  0  0  0  0
    8.5991    5.0600    0.0000 H   0  0  0  0  0  0  0  0  0  0  0  0
    7.7522    5.2869    0.0000 H   0  0  0  0  0  0  0  0  0  0  0  0
  1  2  1  0  0  0  0
  1  3  1  0  0  0  0
  1  4  1  0  0  0  0
  1 20  1  0  0  0  0
  2  5  1  0  0  0  0
  2  8  1  0  0  0  0
  2 21  1  0  0  0  0
  3  6  1  0  0  0  0
  3 22  1  0  0  0  0
  3 23  1  0  0  0  0
  4  7  1  0  0  0  0
  4 24  1  0  0  0  0
  4 25  1  0  0  0  0
  5 10  1  0  0  0  0
  5 26  1  0  0  0  0
  5 27  1  0  0  0  0
  6  9  1  0  0  0  0
  6 28  1  0  0  0  0
  6 29  1  0  0  0  0
  7  9  1  0  0  0  0
  7 30  1  0  0  0  0
  7 31  1  0  0  0  0
  8 11  1  0  0  0  0
  8 32  1  0  0  0  0
  8 33  1  0  0  0  0
  9 34  1  0  0  0  0
  9 35  1  0  0  0  0
 10 12  1  0  0  0  0
 10 36  1  0  0  0  0
 10 37  1  0  0  0  0
 11 14  1  0  0  0  0
 11 38  1  0  0  0  0
 11 39  1  0  0  0  0
 12 13  1  0  0  0  0
 12 40  1  0  0  0  0
 12 41  1  0  0  0  0
 13 15  1  0  0  0  0
 13 42  1  0  0  0  0
 13 43  1  0  0  0  0
 14 44  1  0  0  0  0
 14 45  1  0  0  0  0
 14 46  1  0  0  0  0
 15 16  1  0  0  0  0
 15 47  1  0  0  0  0
 15 48  1  0  0  0  0
 16 17  1  0  0  0  0
 16 49  1  0  0  0  0
 16 50  1  0  0  0  0
 17 18  1  0  0  0  0
 17 51  1  0  0  0  0
 17 52  1  0  0  0  0
 18 19  1  0  0  0  0
 18 53  1  0  0  0  0
 18 54  1  0  0  0  0
 19 55  1  0  0  0  0
 19 56  1  0  0  0  0
 19 57  1  0  0  0  0
M  END
> <PUBCHEM_COMPOUND_CID>
524438
> <PUBCHEM_COMPOUND_CANONICALIZED>
1
> <PUBCHEM_CACTVS_COMPLEXITY>
179
> <PUBCHEM_CACTVS_HBOND_ACCEPTOR>
0
> <PUBCHEM_CACTVS_HBOND_DONOR>
0
> <PUBCHEM_CACTVS_ROTATABLE_BOND>
11
> <PUBCHEM_CACTVS_SUBSKEYS>
AAADcfB4AAAAAAAAAAAAAAAAAAAAAAAAAAAwAAAAAAAAAAAAAAAAGAAAAAAADQCAAAACAAAAAAAAAAAAAAAAAAAAAAAAAAAAAAAAAAIAAAAAAAAAAAAAAAEAgMAOgAAAAAAAAAAAAAAAAAAAAAAAAAAAAA==
> <PUBCHEM_IUPAC_OPENEYE_NAME>
1-propyldecylcyclohexane
> <PUBCHEM_IUPAC_CAS_NAME>
tridecan-4-ylcyclohexane
> <PUBCHEM_IUPAC_NAME_MARKUP>
tridecan-4-ylcyclohexane
> <PUBCHEM_IUPAC_NAME>
tridecan-4-ylcyclohexane
> <PUBCHEM_IUPAC_SYSTEMATIC_NAME>
tridecan-4-ylcyclohexane
> <PUBCHEM_IUPAC_TRADITIONAL_NAME>
1-propyldecylcyclohexane
> <PUBCHEM_IUPAC_INCHI>
InChI=1S/C19H38/c1-3-5-6-7-8-9-11-15-18(14-4-2)19-16-12-10-13-17-19/h18-19H,3-17H2,1-2H3
> <PUBCHEM_IUPAC_INCHIKEY>
IUKSHHIAVABBGM-UHFFFAOYSA-N
> <PUBCHEM_XLOGP3_AA>
9.7
> <PUBCHEM_EXACT_MASS>
266.297351212
> <PUBCHEM_MOLECULAR_FORMULA>
C19H38
> <PUBCHEM_MOLECULAR_WEIGHT>
266.5
> <PUBCHEM_OPENEYE_CAN_SMILES>
CCCCCCCCCC(CCC)C1CCCCC1
> <PUBCHEM_OPENEYE_ISO_SMILES>
CCCCCCCCCC(CCC)C1CCCCC1
> <PUBCHEM_CACTVS_TPSA>
0
> <PUBCHEM_MONOISOTOPIC_WEIGHT>
266.297351212
> <PUBCHEM_TOTAL_CHARGE>
0
> <PUBCHEM_HEAVY_ATOM_COUNT>
19
> <PUBCHEM_ATOM_DEF_STEREO_COUNT>
0
> <PUBCHEM_ATOM_UDEF_STEREO_COUNT>
1
> <PUBCHEM_BOND_DEF_STEREO_COUNT>
0
> <PUBCHEM_BOND_UDEF_STEREO_COUNT>
0
> <PUBCHEM_ISOTOPIC_ATOM_COUNT>
0
> <PUBCHEM_COMPONENT_COUNT>
1
> <PUBCHEM_CACTVS_TAUTO_COUNT>
1
> <PUBCHEM_COORDINATE_TYPE>
1
5
255
> <PUBCHEM_BONDANNOTATIONS>
2  8  3
$$$$
