524474
  -OEChem-10302200292D
 92 91  0     1  0  0  0  0  0999 V2000
    5.0981   -8.9330    0.0000 F   0  0  0  0  0  0  0  0  0  0  0  0
    4.0981   -7.2010    0.0000 F   0  0  0  0  0  0  0  0  0  0  0  0
    3.2320   -7.7010    0.0000 F   0  0  0  0  0  0  0  0  0  0  0  0
    4.2320   -9.4330    0.0000 F   0  0  0  0  0  0  0  0  0  0  0  0
    2.0000   -9.5670    0.0000 F   0  0  0  0  0  0  0  0  0  0  0  0
    2.3660   -8.2010    0.0000 F   0  0  0  0  0  0  0  0  0  0  0  0
    3.3660   -9.9330    0.0000 F   0  0  0  0  0  0  0  0  0  0  0  0
    6.3301   -8.0670    0.0000 O   0  0  0  0  0  0  0  0  0  0  0  0
    8.9282   -7.5670    0.0000 O   0  0  0  0  0  0  0  0  0  0  0  0
    8.0622   -9.0670    0.0000 O   0  0  0  0  0  0  0  0  0  0  0  0
    5.4641   -6.5670    0.0000 O   0  0  0  0  0  0  0  0  0  0  0  0
   11.5263   -0.0670    0.0000 C   0  0  0  0  0  0  0  0  0  0  0  0
   11.5263    0.9330    0.0000 C   0  0  0  0  0  0  0  0  0  0  0  0
   10.6603   -0.5670    0.0000 C   0  0  0  0  0  0  0  0  0  0  0  0
   12.3923    1.4330    0.0000 C   0  0  0  0  0  0  0  0  0  0  0  0
   10.6603   -1.5670    0.0000 C   0  0  0  0  0  0  0  0  0  0  0  0
   12.3923    2.4330    0.0000 C   0  0  0  0  0  0  0  0  0  0  0  0
    9.7942   -2.0670    0.0000 C   0  0  0  0  0  0  0  0  0  0  0  0
   13.2583    2.9330    0.0000 C   0  0  0  0  0  0  0  0  0  0  0  0
   13.2583    3.9330    0.0000 C   0  0  0  0  0  0  0  0  0  0  0  0
    9.7942   -3.0670    0.0000 C   0  0  0  0  0  0  0  0  0  0  0  0
   14.1244    4.4330    0.0000 C   0  0  0  0  0  0  0  0  0  0  0  0
    8.9282   -3.5670    0.0000 C   0  0  0  0  0  0  0  0  0  0  0  0
   14.1244    5.4330    0.0000 C   0  0  0  0  0  0  0  0  0  0  0  0
    8.9282   -4.5670    0.0000 C   0  0  0  0  0  0  0  0  0  0  0  0
   14.9904    5.9330    0.0000 C   0  0  0  0  0  0  0  0  0  0  0  0
    8.0622   -5.0670    0.0000 C   0  0  0  0  0  0  0  0  0  0  0  0
   14.9904    6.9330    0.0000 C   0  0  0  0  0  0  0  0  0  0  0  0
    8.0622   -6.0670    0.0000 C   0  0  0  0  0  0  0  0  0  0  0  0
   15.8564    7.4330    0.0000 C   0  0  0  0  0  0  0  0  0  0  0  0
    7.1962   -6.5670    0.0000 C   0  0  0  0  0  0  0  0  0  0  0  0
   15.8564    8.4330    0.0000 C   0  0  0  0  0  0  0  0  0  0  0  0
    7.1962   -7.5670    0.0000 C   0  0  3  0  0  0  0  0  0  0  0  0
   16.7224    8.9330    0.0000 C   0  0  0  0  0  0  0  0  0  0  0  0
    8.0622   -8.0670    0.0000 C   0  0  0  0  0  0  0  0  0  0  0  0
   16.7224    9.9330    0.0000 C   0  0  0  0  0  0  0  0  0  0  0  0
    5.4641   -7.5670    0.0000 C   0  0  0  0  0  0  0  0  0  0  0  0
    4.5981   -8.0670    0.0000 C   0  0  0  0  0  0  0  0  0  0  0  0
    3.7320   -8.5670    0.0000 C   0  0  0  0  0  0  0  0  0  0  0  0
    9.7942   -8.0670    0.0000 C   0  0  0  0  0  0  0  0  0  0  0  0
    2.8660   -9.0670    0.0000 C   0  0  0  0  0  0  0  0  0  0  0  0
   11.7383   -0.6496    0.0000 H   0  0  0  0  0  0  0  0  0  0  0  0
   12.1369    0.0407    0.0000 H   0  0  0  0  0  0  0  0  0  0  0  0
   11.3142    1.5156    0.0000 H   0  0  0  0  0  0  0  0  0  0  0  0
   10.9157    0.8254    0.0000 H   0  0  0  0  0  0  0  0  0  0  0  0
   10.4482    0.0156    0.0000 H   0  0  0  0  0  0  0  0  0  0  0  0
   10.0497   -0.6746    0.0000 H   0  0  0  0  0  0  0  0  0  0  0  0
   12.6044    0.8504    0.0000 H   0  0  0  0  0  0  0  0  0  0  0  0
   13.0029    1.5407    0.0000 H   0  0  0  0  0  0  0  0  0  0  0  0
   10.8723   -2.1496    0.0000 H   0  0  0  0  0  0  0  0  0  0  0  0
   11.2708   -1.4593    0.0000 H   0  0  0  0  0  0  0  0  0  0  0  0
   12.1803    3.0156    0.0000 H   0  0  0  0  0  0  0  0  0  0  0  0
   11.7817    2.3253    0.0000 H   0  0  0  0  0  0  0  0  0  0  0  0
    9.5822   -1.4844    0.0000 H   0  0  0  0  0  0  0  0  0  0  0  0
    9.1836   -2.1747    0.0000 H   0  0  0  0  0  0  0  0  0  0  0  0
   13.4704    2.3504    0.0000 H   0  0  0  0  0  0  0  0  0  0  0  0
   13.8689    3.0407    0.0000 H   0  0  0  0  0  0  0  0  0  0  0  0
   13.0463    4.5156    0.0000 H   0  0  0  0  0  0  0  0  0  0  0  0
   12.6477    3.8254    0.0000 H   0  0  0  0  0  0  0  0  0  0  0  0
   10.0063   -3.6496    0.0000 H   0  0  0  0  0  0  0  0  0  0  0  0
   10.4048   -2.9593    0.0000 H   0  0  0  0  0  0  0  0  0  0  0  0
   14.3364    3.8504    0.0000 H   0  0  0  0  0  0  0  0  0  0  0  0
   14.7349    4.5407    0.0000 H   0  0  0  0  0  0  0  0  0  0  0  0
    8.7162   -2.9844    0.0000 H   0  0  0  0  0  0  0  0  0  0  0  0
    8.3176   -3.6746    0.0000 H   0  0  0  0  0  0  0  0  0  0  0  0
   13.9123    6.0156    0.0000 H   0  0  0  0  0  0  0  0  0  0  0  0
   13.5138    5.3254    0.0000 H   0  0  0  0  0  0  0  0  0  0  0  0
    9.1403   -5.1496    0.0000 H   0  0  0  0  0  0  0  0  0  0  0  0
    9.5388   -4.4593    0.0000 H   0  0  0  0  0  0  0  0  0  0  0  0
   15.2024    5.3504    0.0000 H   0  0  0  0  0  0  0  0  0  0  0  0
   15.6010    6.0407    0.0000 H   0  0  0  0  0  0  0  0  0  0  0  0
    7.8501   -4.4844    0.0000 H   0  0  0  0  0  0  0  0  0  0  0  0
    7.4516   -5.1746    0.0000 H   0  0  0  0  0  0  0  0  0  0  0  0
   14.7783    7.5156    0.0000 H   0  0  0  0  0  0  0  0  0  0  0  0
   14.3798    6.8254    0.0000 H   0  0  0  0  0  0  0  0  0  0  0  0
    8.2742   -6.6496    0.0000 H   0  0  0  0  0  0  0  0  0  0  0  0
    8.6728   -5.9593    0.0000 H   0  0  0  0  0  0  0  0  0  0  0  0
   16.0685    6.8504    0.0000 H   0  0  0  0  0  0  0  0  0  0  0  0
   16.4670    7.5407    0.0000 H   0  0  0  0  0  0  0  0  0  0  0  0
    6.9841   -5.9844    0.0000 H   0  0  0  0  0  0  0  0  0  0  0  0
    6.5856   -6.6746    0.0000 H   0  0  0  0  0  0  0  0  0  0  0  0
   15.6444    9.0156    0.0000 H   0  0  0  0  0  0  0  0  0  0  0  0
   15.2458    8.3254    0.0000 H   0  0  0  0  0  0  0  0  0  0  0  0
    7.1962   -8.1870    0.0000 H   0  0  0  0  0  0  0  0  0  0  0  0
   16.9345    8.3504    0.0000 H   0  0  0  0  0  0  0  0  0  0  0  0
   17.3330    9.0407    0.0000 H   0  0  0  0  0  0  0  0  0  0  0  0
   17.3424    9.9330    0.0000 H   0  0  0  0  0  0  0  0  0  0  0  0
   16.7224   10.5530    0.0000 H   0  0  0  0  0  0  0  0  0  0  0  0
   16.1024    9.9330    0.0000 H   0  0  0  0  0  0  0  0  0  0  0  0
    9.4842   -8.6039    0.0000 H   0  0  0  0  0  0  0  0  0  0  0  0
   10.3312   -8.3770    0.0000 H   0  0  0  0  0  0  0  0  0  0  0  0
   10.1042   -7.5300    0.0000 H   0  0  0  0  0  0  0  0  0  0  0  0
  1 38  1  0  0  0  0
  2 38  1  0  0  0  0
  3 39  1  0  0  0  0
  4 39  1  0  0  0  0
  5 41  1  0  0  0  0
  6 41  1  0  0  0  0
  7 41  1  0  0  0  0
  8 33  1  0  0  0  0
  8 37  1  0  0  0  0
  9 35  1  0  0  0  0
  9 40  1  0  0  0  0
 10 35  2  0  0  0  0
 11 37  2  0  0  0  0
 12 13  1  0  0  0  0
 12 14  1  0  0  0  0
 12 42  1  0  0  0  0
 12 43  1  0  0  0  0
 13 15  1  0  0  0  0
 13 44  1  0  0  0  0
 13 45  1  0  0  0  0
 14 16  1  0  0  0  0
 14 46  1  0  0  0  0
 14 47  1  0  0  0  0
 15 17  1  0  0  0  0
 15 48  1  0  0  0  0
 15 49  1  0  0  0  0
 16 18  1  0  0  0  0
 16 50  1  0  0  0  0
 16 51  1  0  0  0  0
 17 19  1  0  0  0  0
 17 52  1  0  0  0  0
 17 53  1  0  0  0  0
 18 21  1  0  0  0  0
 18 54  1  0  0  0  0
 18 55  1  0  0  0  0
 19 20  1  0  0  0  0
 19 56  1  0  0  0  0
 19 57  1  0  0  0  0
 20 22  1  0  0  0  0
 20 58  1  0  0  0  0
 20 59  1  0  0  0  0
 21 23  1  0  0  0  0
 21 60  1  0  0  0  0
 21 61  1  0  0  0  0
 22 24  1  0  0  0  0
 22 62  1  0  0  0  0
 22 63  1  0  0  0  0
 23 25  1  0  0  0  0
 23 64  1  0  0  0  0
 23 65  1  0  0  0  0
 24 26  1  0  0  0  0
 24 66  1  0  0  0  0
 24 67  1  0  0  0  0
 25 27  1  0  0  0  0
 25 68  1  0  0  0  0
 25 69  1  0  0  0  0
 26 28  1  0  0  0  0
 26 70  1  0  0  0  0
 26 71  1  0  0  0  0
 27 29  1  0  0  0  0
 27 72  1  0  0  0  0
 27 73  1  0  0  0  0
 28 30  1  0  0  0  0
 28 74  1  0  0  0  0
 28 75  1  0  0  0  0
 29 31  1  0  0  0  0
 29 76  1  0  0  0  0
 29 77  1  0  0  0  0
 30 32  1  0  0  0  0
 30 78  1  0  0  0  0
 30 79  1  0  0  0  0
 31 33  1  0  0  0  0
 31 80  1  0  0  0  0
 31 81  1  0  0  0  0
 32 34  1  0  0  0  0
 32 82  1  0  0  0  0
 32 83  1  0  0  0  0
 33 35  1  0  0  0  0
 33 84  1  0  0  0  0
 34 36  1  0  0  0  0
 34 85  1  0  0  0  0
 34 86  1  0  0  0  0
 36 87  1  0  0  0  0
 36 88  1  0  0  0  0
 36 89  1  0  0  0  0
 37 38  1  0  0  0  0
 38 39  1  0  0  0  0
 39 41  1  0  0  0  0
 40 90  1  0  0  0  0
 40 91  1  0  0  0  0
 40 92  1  0  0  0  0
M  END
> <PUBCHEM_COMPOUND_CID>
524474
> <PUBCHEM_COMPOUND_CANONICALIZED>
1
> <PUBCHEM_CACTVS_COMPLEXITY>
684
> <PUBCHEM_CACTVS_HBOND_ACCEPTOR>
11
> <PUBCHEM_CACTVS_HBOND_DONOR>
0
> <PUBCHEM_CACTVS_ROTATABLE_BOND>
28
> <PUBCHEM_CACTVS_SUBSKEYS>
AAADcfB4OcAAAAAAAAAAAAAAAAAAAAAAAAAAAAAAAAAAAAAAAAAAGwAAAAAACBSggBICCAAABAAIAACQCAIAAAAAAAAAAAFAAAABABIAAAQCAAAEAAACAAGIyKCAAAAAAAAAAAAAAAAAAAAAAAAAAAAAAA==
> <PUBCHEM_IUPAC_OPENEYE_NAME>
methyl 2-(2,2,3,3,4,4,4-heptafluorobutanoyloxy)pentacosanoate
> <PUBCHEM_IUPAC_CAS_NAME>
2-(2,2,3,3,4,4,4-heptafluoro-1-oxobutoxy)pentacosanoic acid methyl ester
> <PUBCHEM_IUPAC_NAME_MARKUP>
methyl 2-(2,2,3,3,4,4,4-heptafluorobutanoyloxy)pentacosanoate
> <PUBCHEM_IUPAC_NAME>
methyl 2-(2,2,3,3,4,4,4-heptafluorobutanoyloxy)pentacosanoate
> <PUBCHEM_IUPAC_SYSTEMATIC_NAME>
methyl 2-[2,2,3,3,4,4,4-heptakis(fluoranyl)butanoyloxy]pentacosanoate
> <PUBCHEM_IUPAC_TRADITIONAL_NAME>
2-(2,2,3,3,4,4,4-heptafluorobutanoyloxy)pentacosanoic acid methyl ester
> <PUBCHEM_IUPAC_INCHI>
InChI=1S/C30H51F7O4/c1-3-4-5-6-7-8-9-10-11-12-13-14-15-16-17-18-19-20-21-22-23-24-25(26(38)40-2)41-27(39)28(31,32)29(33,34)30(35,36)37/h25H,3-24H2,1-2H3
> <PUBCHEM_IUPAC_INCHIKEY>
OUIDBWRLESQWIS-UHFFFAOYSA-N
> <PUBCHEM_XLOGP3_AA>
14.6
> <PUBCHEM_EXACT_MASS>
608.36755724
> <PUBCHEM_MOLECULAR_FORMULA>
C30H51F7O4
> <PUBCHEM_MOLECULAR_WEIGHT>
608.7
> <PUBCHEM_OPENEYE_CAN_SMILES>
CCCCCCCCCCCCCCCCCCCCCCCC(C(=O)OC)OC(=O)C(C(C(F)(F)F)(F)F)(F)F
> <PUBCHEM_OPENEYE_ISO_SMILES>
CCCCCCCCCCCCCCCCCCCCCCCC(C(=O)OC)OC(=O)C(C(C(F)(F)F)(F)F)(F)F
> <PUBCHEM_CACTVS_TPSA>
52.6
> <PUBCHEM_MONOISOTOPIC_WEIGHT>
608.36755724
> <PUBCHEM_TOTAL_CHARGE>
0
> <PUBCHEM_HEAVY_ATOM_COUNT>
41
> <PUBCHEM_ATOM_DEF_STEREO_COUNT>
0
> <PUBCHEM_ATOM_UDEF_STEREO_COUNT>
1
> <PUBCHEM_BOND_DEF_STEREO_COUNT>
0
> <PUBCHEM_BOND_UDEF_STEREO_COUNT>
0
> <PUBCHEM_ISOTOPIC_ATOM_COUNT>
0
> <PUBCHEM_COMPONENT_COUNT>
1
> <PUBCHEM_CACTVS_TAUTO_COUNT>
-1
> <PUBCHEM_COORDINATE_TYPE>
1
5
255
> <PUBCHEM_BONDANNOTATIONS>
33  31  3
$$$$
