524425
  -OEChem-10302200292D
 48 48  0     1  0  0  0  0  0999 V2000
    2.8660   -2.0000    0.0000 C   0  0  0  0  0  0  0  0  0  0  0  0
    2.8660   -1.0000    0.0000 C   0  0  3  0  0  0  0  0  0  0  0  0
    2.0000   -2.5000    0.0000 C   0  0  0  0  0  0  0  0  0  0  0  0
    3.7320   -2.5000    0.0000 C   0  0  0  0  0  0  0  0  0  0  0  0
    2.0000   -3.5000    0.0000 C   0  0  0  0  0  0  0  0  0  0  0  0
    3.7320   -3.5000    0.0000 C   0  0  0  0  0  0  0  0  0  0  0  0
    3.7320   -0.5000    0.0000 C   0  0  0  0  0  0  0  0  0  0  0  0
    2.8660   -4.0000    0.0000 C   0  0  0  0  0  0  0  0  0  0  0  0
    2.0000   -0.5000    0.0000 C   0  0  0  0  0  0  0  0  0  0  0  0
    3.7320    0.5000    0.0000 C   0  0  0  0  0  0  0  0  0  0  0  0
    4.5981    1.0000    0.0000 C   0  0  0  0  0  0  0  0  0  0  0  0
    2.0000    0.5000    0.0000 C   0  0  0  0  0  0  0  0  0  0  0  0
    4.5981    2.0000    0.0000 C   0  0  0  0  0  0  0  0  0  0  0  0
    5.4641    2.5000    0.0000 C   0  0  0  0  0  0  0  0  0  0  0  0
    5.4641    3.5000    0.0000 C   0  0  0  0  0  0  0  0  0  0  0  0
    6.3301    4.0000    0.0000 C   0  0  0  0  0  0  0  0  0  0  0  0
    3.4030   -1.6900    0.0000 H   0  0  0  0  0  0  0  0  0  0  0  0
    2.8660   -0.3800    0.0000 H   0  0  0  0  0  0  0  0  0  0  0  0
    1.7880   -1.9174    0.0000 H   0  0  0  0  0  0  0  0  0  0  0  0
    1.3894   -2.6077    0.0000 H   0  0  0  0  0  0  0  0  0  0  0  0
    4.3426   -2.6077    0.0000 H   0  0  0  0  0  0  0  0  0  0  0  0
    3.9441   -1.9174    0.0000 H   0  0  0  0  0  0  0  0  0  0  0  0
    1.3894   -3.3923    0.0000 H   0  0  0  0  0  0  0  0  0  0  0  0
    1.7880   -4.0826    0.0000 H   0  0  0  0  0  0  0  0  0  0  0  0
    3.9441   -4.0826    0.0000 H   0  0  0  0  0  0  0  0  0  0  0  0
    4.3426   -3.3923    0.0000 H   0  0  0  0  0  0  0  0  0  0  0  0
    3.9441   -1.0826    0.0000 H   0  0  0  0  0  0  0  0  0  0  0  0
    4.3426   -0.3923    0.0000 H   0  0  0  0  0  0  0  0  0  0  0  0
    2.4675   -4.4750    0.0000 H   0  0  0  0  0  0  0  0  0  0  0  0
    3.2646   -4.4750    0.0000 H   0  0  0  0  0  0  0  0  0  0  0  0
    1.3894   -0.3923    0.0000 H   0  0  0  0  0  0  0  0  0  0  0  0
    1.7880   -1.0826    0.0000 H   0  0  0  0  0  0  0  0  0  0  0  0
    3.5200    1.0826    0.0000 H   0  0  0  0  0  0  0  0  0  0  0  0
    3.1215    0.3923    0.0000 H   0  0  0  0  0  0  0  0  0  0  0  0
    4.8101    0.4174    0.0000 H   0  0  0  0  0  0  0  0  0  0  0  0
    5.2087    1.1077    0.0000 H   0  0  0  0  0  0  0  0  0  0  0  0
    2.6200    0.5000    0.0000 H   0  0  0  0  0  0  0  0  0  0  0  0
    2.0000    1.1200    0.0000 H   0  0  0  0  0  0  0  0  0  0  0  0
    1.3800    0.5000    0.0000 H   0  0  0  0  0  0  0  0  0  0  0  0
    4.3860    2.5826    0.0000 H   0  0  0  0  0  0  0  0  0  0  0  0
    3.9875    1.8923    0.0000 H   0  0  0  0  0  0  0  0  0  0  0  0
    5.6762    1.9174    0.0000 H   0  0  0  0  0  0  0  0  0  0  0  0
    6.0747    2.6077    0.0000 H   0  0  0  0  0  0  0  0  0  0  0  0
    5.2520    4.0826    0.0000 H   0  0  0  0  0  0  0  0  0  0  0  0
    4.8535    3.3923    0.0000 H   0  0  0  0  0  0  0  0  0  0  0  0
    6.6401    3.4631    0.0000 H   0  0  0  0  0  0  0  0  0  0  0  0
    6.8671    4.3100    0.0000 H   0  0  0  0  0  0  0  0  0  0  0  0
    6.0201    4.5369    0.0000 H   0  0  0  0  0  0  0  0  0  0  0  0
  1  2  1  0  0  0  0
  1  3  1  0  0  0  0
  1  4  1  0  0  0  0
  1 17  1  0  0  0  0
  2  7  1  0  0  0  0
  2  9  1  0  0  0  0
  2 18  1  0  0  0  0
  3  5  1  0  0  0  0
  3 19  1  0  0  0  0
  3 20  1  0  0  0  0
  4  6  1  0  0  0  0
  4 21  1  0  0  0  0
  4 22  1  0  0  0  0
  5  8  1  0  0  0  0
  5 23  1  0  0  0  0
  5 24  1  0  0  0  0
  6  8  1  0  0  0  0
  6 25  1  0  0  0  0
  6 26  1  0  0  0  0
  7 10  1  0  0  0  0
  7 27  1  0  0  0  0
  7 28  1  0  0  0  0
  8 29  1  0  0  0  0
  8 30  1  0  0  0  0
  9 12  1  0  0  0  0
  9 31  1  0  0  0  0
  9 32  1  0  0  0  0
 10 11  1  0  0  0  0
 10 33  1  0  0  0  0
 10 34  1  0  0  0  0
 11 13  1  0  0  0  0
 11 35  1  0  0  0  0
 11 36  1  0  0  0  0
 12 37  1  0  0  0  0
 12 38  1  0  0  0  0
 12 39  1  0  0  0  0
 13 14  1  0  0  0  0
 13 40  1  0  0  0  0
 13 41  1  0  0  0  0
 14 15  1  0  0  0  0
 14 42  1  0  0  0  0
 14 43  1  0  0  0  0
 15 16  1  0  0  0  0
 15 44  1  0  0  0  0
 15 45  1  0  0  0  0
 16 46  1  0  0  0  0
 16 47  1  0  0  0  0
 16 48  1  0  0  0  0
M  END
> <PUBCHEM_COMPOUND_CID>
524425
> <PUBCHEM_COMPOUND_CANONICALIZED>
1
> <PUBCHEM_CACTVS_COMPLEXITY>
144
> <PUBCHEM_CACTVS_HBOND_ACCEPTOR>
0
> <PUBCHEM_CACTVS_HBOND_DONOR>
0
> <PUBCHEM_CACTVS_ROTATABLE_BOND>
8
> <PUBCHEM_CACTVS_SUBSKEYS>
AAADcfB4AAAAAAAAAAAAAAAAAAAAAAAAAAAwAAAAAAAAAAAAAAAAGAAAAAAADQCAAAACAAAAAAAAAAAAAAAAAAAAAAAAAAAAAAAAAAIAAAAAAAAAAAAAAAEAgMAOgAAAAAAAAAAAAAAAAAAAAAAAAAAAAA==
> <PUBCHEM_IUPAC_OPENEYE_NAME>
1-ethyloctylcyclohexane
> <PUBCHEM_IUPAC_CAS_NAME>
decan-3-ylcyclohexane
> <PUBCHEM_IUPAC_NAME_MARKUP>
decan-3-ylcyclohexane
> <PUBCHEM_IUPAC_NAME>
decan-3-ylcyclohexane
> <PUBCHEM_IUPAC_SYSTEMATIC_NAME>
decan-3-ylcyclohexane
> <PUBCHEM_IUPAC_TRADITIONAL_NAME>
1-ethyloctylcyclohexane
> <PUBCHEM_IUPAC_INCHI>
InChI=1S/C16H32/c1-3-5-6-7-9-12-15(4-2)16-13-10-8-11-14-16/h15-16H,3-14H2,1-2H3
> <PUBCHEM_IUPAC_INCHIKEY>
OUPADZQNAUCFAW-UHFFFAOYSA-N
> <PUBCHEM_XLOGP3_AA>
8.1
> <PUBCHEM_EXACT_MASS>
224.250401021
> <PUBCHEM_MOLECULAR_FORMULA>
C16H32
> <PUBCHEM_MOLECULAR_WEIGHT>
224.42
> <PUBCHEM_OPENEYE_CAN_SMILES>
CCCCCCCC(CC)C1CCCCC1
> <PUBCHEM_OPENEYE_ISO_SMILES>
CCCCCCCC(CC)C1CCCCC1
> <PUBCHEM_CACTVS_TPSA>
0
> <PUBCHEM_MONOISOTOPIC_WEIGHT>
224.250401021
> <PUBCHEM_TOTAL_CHARGE>
0
> <PUBCHEM_HEAVY_ATOM_COUNT>
16
> <PUBCHEM_ATOM_DEF_STEREO_COUNT>
0
> <PUBCHEM_ATOM_UDEF_STEREO_COUNT>
1
> <PUBCHEM_BOND_DEF_STEREO_COUNT>
0
> <PUBCHEM_BOND_UDEF_STEREO_COUNT>
0
> <PUBCHEM_ISOTOPIC_ATOM_COUNT>
0
> <PUBCHEM_COMPONENT_COUNT>
1
> <PUBCHEM_CACTVS_TAUTO_COUNT>
1
> <PUBCHEM_COORDINATE_TYPE>
1
5
255
> <PUBCHEM_BONDANNOTATIONS>
2  9  3
$$$$
