524471
  -OEChem-10302200292D
 90 89  0     1  0  0  0  0  0999 V2000
   13.2583    7.5000    0.0000 Si  0  0  0  0  0  0  0  0  0  0  0  0
   12.3923    8.0000    0.0000 O   0  0  0  0  0  0  0  0  0  0  0  0
    9.7942    7.5000    0.0000 O   0  0  0  0  0  0  0  0  0  0  0  0
   10.6603    9.0000    0.0000 O   0  0  0  0  0  0  0  0  0  0  0  0
    8.0622    0.5000    0.0000 C   0  0  0  0  0  0  0  0  0  0  0  0
    8.0622    1.5000    0.0000 C   0  0  0  0  0  0  0  0  0  0  0  0
    7.1962    0.0000    0.0000 C   0  0  0  0  0  0  0  0  0  0  0  0
    8.9282    2.0000    0.0000 C   0  0  0  0  0  0  0  0  0  0  0  0
    7.1962   -1.0000    0.0000 C   0  0  0  0  0  0  0  0  0  0  0  0
    8.9282    3.0000    0.0000 C   0  0  0  0  0  0  0  0  0  0  0  0
    6.3301   -1.5000    0.0000 C   0  0  0  0  0  0  0  0  0  0  0  0
    9.7942    3.5000    0.0000 C   0  0  0  0  0  0  0  0  0  0  0  0
    6.3301   -2.5000    0.0000 C   0  0  0  0  0  0  0  0  0  0  0  0
    9.7942    4.5000    0.0000 C   0  0  0  0  0  0  0  0  0  0  0  0
    5.4641   -3.0000    0.0000 C   0  0  0  0  0  0  0  0  0  0  0  0
   10.6603    5.0000    0.0000 C   0  0  0  0  0  0  0  0  0  0  0  0
    5.4641   -4.0000    0.0000 C   0  0  0  0  0  0  0  0  0  0  0  0
   10.6603    6.0000    0.0000 C   0  0  0  0  0  0  0  0  0  0  0  0
    4.5981   -4.5000    0.0000 C   0  0  0  0  0  0  0  0  0  0  0  0
    4.5981   -5.5000    0.0000 C   0  0  0  0  0  0  0  0  0  0  0  0
   11.5263    6.5000    0.0000 C   0  0  0  0  0  0  0  0  0  0  0  0
    3.7320   -6.0000    0.0000 C   0  0  0  0  0  0  0  0  0  0  0  0
   11.5263    7.5000    0.0000 C   0  0  3  0  0  0  0  0  0  0  0  0
    3.7320   -7.0000    0.0000 C   0  0  0  0  0  0  0  0  0  0  0  0
    2.8660   -7.5000    0.0000 C   0  0  0  0  0  0  0  0  0  0  0  0
   10.6603    8.0000    0.0000 C   0  0  0  0  0  0  0  0  0  0  0  0
    2.8660   -8.5000    0.0000 C   0  0  0  0  0  0  0  0  0  0  0  0
   14.1244    7.0000    0.0000 C   0  0  0  0  0  0  0  0  0  0  0  0
   13.7583    8.3660    0.0000 C   0  0  0  0  0  0  0  0  0  0  0  0
   12.7583    6.6340    0.0000 C   0  0  0  0  0  0  0  0  0  0  0  0
    2.0000   -9.0000    0.0000 C   0  0  0  0  0  0  0  0  0  0  0  0
    8.9282    8.0000    0.0000 C   0  0  0  0  0  0  0  0  0  0  0  0
    8.2742   -0.0826    0.0000 H   0  0  0  0  0  0  0  0  0  0  0  0
    8.6728    0.6077    0.0000 H   0  0  0  0  0  0  0  0  0  0  0  0
    7.8501    2.0826    0.0000 H   0  0  0  0  0  0  0  0  0  0  0  0
    7.4516    1.3923    0.0000 H   0  0  0  0  0  0  0  0  0  0  0  0
    6.9841    0.5826    0.0000 H   0  0  0  0  0  0  0  0  0  0  0  0
    6.5856   -0.1077    0.0000 H   0  0  0  0  0  0  0  0  0  0  0  0
    9.1403    1.4174    0.0000 H   0  0  0  0  0  0  0  0  0  0  0  0
    9.5388    2.1077    0.0000 H   0  0  0  0  0  0  0  0  0  0  0  0
    7.4082   -1.5826    0.0000 H   0  0  0  0  0  0  0  0  0  0  0  0
    7.8067   -0.8923    0.0000 H   0  0  0  0  0  0  0  0  0  0  0  0
    8.7162    3.5826    0.0000 H   0  0  0  0  0  0  0  0  0  0  0  0
    8.3176    2.8923    0.0000 H   0  0  0  0  0  0  0  0  0  0  0  0
    6.1181   -0.9174    0.0000 H   0  0  0  0  0  0  0  0  0  0  0  0
    5.7196   -1.6077    0.0000 H   0  0  0  0  0  0  0  0  0  0  0  0
   10.0063    2.9174    0.0000 H   0  0  0  0  0  0  0  0  0  0  0  0
   10.4048    3.6077    0.0000 H   0  0  0  0  0  0  0  0  0  0  0  0
    6.5422   -3.0826    0.0000 H   0  0  0  0  0  0  0  0  0  0  0  0
    6.9407   -2.3923    0.0000 H   0  0  0  0  0  0  0  0  0  0  0  0
    9.5822    5.0826    0.0000 H   0  0  0  0  0  0  0  0  0  0  0  0
    9.1836    4.3923    0.0000 H   0  0  0  0  0  0  0  0  0  0  0  0
    5.2520   -2.4174    0.0000 H   0  0  0  0  0  0  0  0  0  0  0  0
    4.8535   -3.1077    0.0000 H   0  0  0  0  0  0  0  0  0  0  0  0
   10.8723    4.4174    0.0000 H   0  0  0  0  0  0  0  0  0  0  0  0
   11.2708    5.1077    0.0000 H   0  0  0  0  0  0  0  0  0  0  0  0
    5.6762   -4.5826    0.0000 H   0  0  0  0  0  0  0  0  0  0  0  0
    6.0747   -3.8923    0.0000 H   0  0  0  0  0  0  0  0  0  0  0  0
   10.4482    6.5826    0.0000 H   0  0  0  0  0  0  0  0  0  0  0  0
   10.0497    5.8923    0.0000 H   0  0  0  0  0  0  0  0  0  0  0  0
    4.3860   -3.9174    0.0000 H   0  0  0  0  0  0  0  0  0  0  0  0
    3.9875   -4.6077    0.0000 H   0  0  0  0  0  0  0  0  0  0  0  0
    4.8101   -6.0826    0.0000 H   0  0  0  0  0  0  0  0  0  0  0  0
    5.2087   -5.3923    0.0000 H   0  0  0  0  0  0  0  0  0  0  0  0
   11.7383    5.9174    0.0000 H   0  0  0  0  0  0  0  0  0  0  0  0
   12.1369    6.6077    0.0000 H   0  0  0  0  0  0  0  0  0  0  0  0
    3.5200   -5.4174    0.0000 H   0  0  0  0  0  0  0  0  0  0  0  0
    3.1215   -6.1077    0.0000 H   0  0  0  0  0  0  0  0  0  0  0  0
   12.0632    7.1900    0.0000 H   0  0  0  0  0  0  0  0  0  0  0  0
    3.9441   -7.5826    0.0000 H   0  0  0  0  0  0  0  0  0  0  0  0
    4.3426   -6.8923    0.0000 H   0  0  0  0  0  0  0  0  0  0  0  0
    2.6540   -6.9174    0.0000 H   0  0  0  0  0  0  0  0  0  0  0  0
    2.2554   -7.6077    0.0000 H   0  0  0  0  0  0  0  0  0  0  0  0
    3.0781   -9.0826    0.0000 H   0  0  0  0  0  0  0  0  0  0  0  0
    3.4766   -8.3923    0.0000 H   0  0  0  0  0  0  0  0  0  0  0  0
   13.8144    6.4631    0.0000 H   0  0  0  0  0  0  0  0  0  0  0  0
   14.6613    6.6900    0.0000 H   0  0  0  0  0  0  0  0  0  0  0  0
   14.4344    7.5369    0.0000 H   0  0  0  0  0  0  0  0  0  0  0  0
   14.2953    8.0560    0.0000 H   0  0  0  0  0  0  0  0  0  0  0  0
   14.0683    8.9030    0.0000 H   0  0  0  0  0  0  0  0  0  0  0  0
   13.2214    8.6760    0.0000 H   0  0  0  0  0  0  0  0  0  0  0  0
   12.2214    6.9440    0.0000 H   0  0  0  0  0  0  0  0  0  0  0  0
   12.4483    6.0970    0.0000 H   0  0  0  0  0  0  0  0  0  0  0  0
   13.2953    6.3240    0.0000 H   0  0  0  0  0  0  0  0  0  0  0  0
    1.6900   -8.4631    0.0000 H   0  0  0  0  0  0  0  0  0  0  0  0
    1.4631   -9.3100    0.0000 H   0  0  0  0  0  0  0  0  0  0  0  0
    2.3100   -9.5369    0.0000 H   0  0  0  0  0  0  0  0  0  0  0  0
    9.2382    8.5369    0.0000 H   0  0  0  0  0  0  0  0  0  0  0  0
    8.3913    8.3100    0.0000 H   0  0  0  0  0  0  0  0  0  0  0  0
    8.6182    7.4631    0.0000 H   0  0  0  0  0  0  0  0  0  0  0  0
  1  2  1  0  0  0  0
  1 28  1  0  0  0  0
  1 29  1  0  0  0  0
  1 30  1  0  0  0  0
  2 23  1  0  0  0  0
  3 26  1  0  0  0  0
  3 32  1  0  0  0  0
  4 26  2  0  0  0  0
  5  6  1  0  0  0  0
  5  7  1  0  0  0  0
  5 33  1  0  0  0  0
  5 34  1  0  0  0  0
  6  8  1  0  0  0  0
  6 35  1  0  0  0  0
  6 36  1  0  0  0  0
  7  9  1  0  0  0  0
  7 37  1  0  0  0  0
  7 38  1  0  0  0  0
  8 10  1  0  0  0  0
  8 39  1  0  0  0  0
  8 40  1  0  0  0  0
  9 11  1  0  0  0  0
  9 41  1  0  0  0  0
  9 42  1  0  0  0  0
 10 12  1  0  0  0  0
 10 43  1  0  0  0  0
 10 44  1  0  0  0  0
 11 13  1  0  0  0  0
 11 45  1  0  0  0  0
 11 46  1  0  0  0  0
 12 14  1  0  0  0  0
 12 47  1  0  0  0  0
 12 48  1  0  0  0  0
 13 15  1  0  0  0  0
 13 49  1  0  0  0  0
 13 50  1  0  0  0  0
 14 16  1  0  0  0  0
 14 51  1  0  0  0  0
 14 52  1  0  0  0  0
 15 17  1  0  0  0  0
 15 53  1  0  0  0  0
 15 54  1  0  0  0  0
 16 18  1  0  0  0  0
 16 55  1  0  0  0  0
 16 56  1  0  0  0  0
 17 19  1  0  0  0  0
 17 57  1  0  0  0  0
 17 58  1  0  0  0  0
 18 21  1  0  0  0  0
 18 59  1  0  0  0  0
 18 60  1  0  0  0  0
 19 20  1  0  0  0  0
 19 61  1  0  0  0  0
 19 62  1  0  0  0  0
 20 22  1  0  0  0  0
 20 63  1  0  0  0  0
 20 64  1  0  0  0  0
 21 23  1  0  0  0  0
 21 65  1  0  0  0  0
 21 66  1  0  0  0  0
 22 24  1  0  0  0  0
 22 67  1  0  0  0  0
 22 68  1  0  0  0  0
 23 26  1  0  0  0  0
 23 69  1  0  0  0  0
 24 25  1  0  0  0  0
 24 70  1  0  0  0  0
 24 71  1  0  0  0  0
 25 27  1  0  0  0  0
 25 72  1  0  0  0  0
 25 73  1  0  0  0  0
 27 31  1  0  0  0  0
 27 74  1  0  0  0  0
 27 75  1  0  0  0  0
 28 76  1  0  0  0  0
 28 77  1  0  0  0  0
 28 78  1  0  0  0  0
 29 79  1  0  0  0  0
 29 80  1  0  0  0  0
 29 81  1  0  0  0  0
 30 82  1  0  0  0  0
 30 83  1  0  0  0  0
 30 84  1  0  0  0  0
 31 85  1  0  0  0  0
 31 86  1  0  0  0  0
 31 87  1  0  0  0  0
 32 88  1  0  0  0  0
 32 89  1  0  0  0  0
 32 90  1  0  0  0  0
M  END
> <PUBCHEM_COMPOUND_CID>
524471
> <PUBCHEM_COMPOUND_CANONICALIZED>
1
> <PUBCHEM_CACTVS_COMPLEXITY>
406
> <PUBCHEM_CACTVS_HBOND_ACCEPTOR>
3
> <PUBCHEM_CACTVS_HBOND_DONOR>
0
> <PUBCHEM_CACTVS_ROTATABLE_BOND>
25
> <PUBCHEM_CACTVS_SUBSKEYS>
AAADcfB4MAgAAAAAAAAAAAAAAAAAAAAAAAAAAAAAAAAAAAAAAAAAGhAAAEAACBSggAJCCAAABAEIAACQCAIAAAAAAAAAAAFAAAABABIAAAAAAAAEAAACAAGIyKCAAAAAAAAAAAAAAAAAAAAAAAAAAAAAAA==
> <PUBCHEM_IUPAC_OPENEYE_NAME>
methyl 2-trimethylsilyloxytetracosanoate
> <PUBCHEM_IUPAC_CAS_NAME>
2-trimethylsilyloxytetracosanoic acid methyl ester
> <PUBCHEM_IUPAC_NAME_MARKUP>
methyl 2-trimethylsilyloxytetracosanoate
> <PUBCHEM_IUPAC_NAME>
methyl 2-trimethylsilyloxytetracosanoate
> <PUBCHEM_IUPAC_SYSTEMATIC_NAME>
methyl 2-trimethylsilyloxytetracosanoate
> <PUBCHEM_IUPAC_TRADITIONAL_NAME>
2-trimethylsilyloxylignoceric acid methyl ester
> <PUBCHEM_IUPAC_INCHI>
InChI=1S/C28H58O3Si/c1-6-7-8-9-10-11-12-13-14-15-16-17-18-19-20-21-22-23-24-25-26-27(28(29)30-2)31-32(3,4)5/h27H,6-26H2,1-5H3
> <PUBCHEM_IUPAC_INCHIKEY>
IBDXNSNFZWQOOS-UHFFFAOYSA-N
> <PUBCHEM_EXACT_MASS>
470.41552224
> <PUBCHEM_MOLECULAR_FORMULA>
C28H58O3Si
> <PUBCHEM_MOLECULAR_WEIGHT>
470.8
> <PUBCHEM_OPENEYE_CAN_SMILES>
CCCCCCCCCCCCCCCCCCCCCCC(C(=O)OC)O[Si](C)(C)C
> <PUBCHEM_OPENEYE_ISO_SMILES>
CCCCCCCCCCCCCCCCCCCCCCC(C(=O)OC)O[Si](C)(C)C
> <PUBCHEM_CACTVS_TPSA>
35.5
> <PUBCHEM_MONOISOTOPIC_WEIGHT>
470.41552224
> <PUBCHEM_TOTAL_CHARGE>
0
> <PUBCHEM_HEAVY_ATOM_COUNT>
32
> <PUBCHEM_ATOM_DEF_STEREO_COUNT>
0
> <PUBCHEM_ATOM_UDEF_STEREO_COUNT>
1
> <PUBCHEM_BOND_DEF_STEREO_COUNT>
0
> <PUBCHEM_BOND_UDEF_STEREO_COUNT>
0
> <PUBCHEM_ISOTOPIC_ATOM_COUNT>
0
> <PUBCHEM_COMPONENT_COUNT>
1
> <PUBCHEM_CACTVS_TAUTO_COUNT>
1
> <PUBCHEM_COORDINATE_TYPE>
1
5
255
> <PUBCHEM_BONDANNOTATIONS>
23  21  3
$$$$
