524467
  -OEChem-10302200292D
 96 95  0     1  0  0  0  0  0999 V2000
   14.1244    8.2500    0.0000 Si  0  0  0  0  0  0  0  0  0  0  0  0
   13.2583    8.7500    0.0000 O   0  0  0  0  0  0  0  0  0  0  0  0
   10.6603    8.2500    0.0000 O   0  0  0  0  0  0  0  0  0  0  0  0
   11.5263    9.7500    0.0000 O   0  0  0  0  0  0  0  0  0  0  0  0
    8.0622    0.7500    0.0000 C   0  0  0  0  0  0  0  0  0  0  0  0
    8.9282    1.2500    0.0000 C   0  0  0  0  0  0  0  0  0  0  0  0
    8.0622   -0.2500    0.0000 C   0  0  0  0  0  0  0  0  0  0  0  0
    8.9282    2.2500    0.0000 C   0  0  0  0  0  0  0  0  0  0  0  0
    7.1962   -0.7500    0.0000 C   0  0  0  0  0  0  0  0  0  0  0  0
    9.7942    2.7500    0.0000 C   0  0  0  0  0  0  0  0  0  0  0  0
    7.1962   -1.7500    0.0000 C   0  0  0  0  0  0  0  0  0  0  0  0
    9.7942    3.7500    0.0000 C   0  0  0  0  0  0  0  0  0  0  0  0
    6.3301   -2.2500    0.0000 C   0  0  0  0  0  0  0  0  0  0  0  0
   10.6603    4.2500    0.0000 C   0  0  0  0  0  0  0  0  0  0  0  0
    6.3301   -3.2500    0.0000 C   0  0  0  0  0  0  0  0  0  0  0  0
   10.6603    5.2500    0.0000 C   0  0  0  0  0  0  0  0  0  0  0  0
    5.4641   -3.7500    0.0000 C   0  0  0  0  0  0  0  0  0  0  0  0
   11.5263    5.7500    0.0000 C   0  0  0  0  0  0  0  0  0  0  0  0
    5.4641   -4.7500    0.0000 C   0  0  0  0  0  0  0  0  0  0  0  0
    4.5981   -5.2500    0.0000 C   0  0  0  0  0  0  0  0  0  0  0  0
   11.5263    6.7500    0.0000 C   0  0  0  0  0  0  0  0  0  0  0  0
    4.5981   -6.2500    0.0000 C   0  0  0  0  0  0  0  0  0  0  0  0
   12.3923    7.2500    0.0000 C   0  0  0  0  0  0  0  0  0  0  0  0
    3.7320   -6.7500    0.0000 C   0  0  0  0  0  0  0  0  0  0  0  0
   12.3923    8.2500    0.0000 C   0  0  3  0  0  0  0  0  0  0  0  0
    3.7320   -7.7500    0.0000 C   0  0  0  0  0  0  0  0  0  0  0  0
    2.8660   -8.2500    0.0000 C   0  0  0  0  0  0  0  0  0  0  0  0
   11.5263    8.7500    0.0000 C   0  0  0  0  0  0  0  0  0  0  0  0
    2.8660   -9.2500    0.0000 C   0  0  0  0  0  0  0  0  0  0  0  0
   14.9904    7.7500    0.0000 C   0  0  0  0  0  0  0  0  0  0  0  0
   14.6244    9.1160    0.0000 C   0  0  0  0  0  0  0  0  0  0  0  0
   13.6244    7.3840    0.0000 C   0  0  0  0  0  0  0  0  0  0  0  0
    2.0000   -9.7500    0.0000 C   0  0  0  0  0  0  0  0  0  0  0  0
    9.7942    8.7500    0.0000 C   0  0  0  0  0  0  0  0  0  0  0  0
    7.8501    1.3326    0.0000 H   0  0  0  0  0  0  0  0  0  0  0  0
    7.4516    0.6423    0.0000 H   0  0  0  0  0  0  0  0  0  0  0  0
    9.1403    0.6674    0.0000 H   0  0  0  0  0  0  0  0  0  0  0  0
    9.5388    1.3577    0.0000 H   0  0  0  0  0  0  0  0  0  0  0  0
    8.2742   -0.8326    0.0000 H   0  0  0  0  0  0  0  0  0  0  0  0
    8.6728   -0.1423    0.0000 H   0  0  0  0  0  0  0  0  0  0  0  0
    8.7162    2.8326    0.0000 H   0  0  0  0  0  0  0  0  0  0  0  0
    8.3176    2.1423    0.0000 H   0  0  0  0  0  0  0  0  0  0  0  0
    6.9841   -0.1674    0.0000 H   0  0  0  0  0  0  0  0  0  0  0  0
    6.5856   -0.8577    0.0000 H   0  0  0  0  0  0  0  0  0  0  0  0
   10.0063    2.1674    0.0000 H   0  0  0  0  0  0  0  0  0  0  0  0
   10.4048    2.8577    0.0000 H   0  0  0  0  0  0  0  0  0  0  0  0
    7.4082   -2.3326    0.0000 H   0  0  0  0  0  0  0  0  0  0  0  0
    7.8067   -1.6423    0.0000 H   0  0  0  0  0  0  0  0  0  0  0  0
    9.5822    4.3326    0.0000 H   0  0  0  0  0  0  0  0  0  0  0  0
    9.1836    3.6423    0.0000 H   0  0  0  0  0  0  0  0  0  0  0  0
    6.1181   -1.6674    0.0000 H   0  0  0  0  0  0  0  0  0  0  0  0
    5.7196   -2.3577    0.0000 H   0  0  0  0  0  0  0  0  0  0  0  0
   10.8723    3.6674    0.0000 H   0  0  0  0  0  0  0  0  0  0  0  0
   11.2708    4.3577    0.0000 H   0  0  0  0  0  0  0  0  0  0  0  0
    6.5422   -3.8326    0.0000 H   0  0  0  0  0  0  0  0  0  0  0  0
    6.9407   -3.1423    0.0000 H   0  0  0  0  0  0  0  0  0  0  0  0
   10.4482    5.8326    0.0000 H   0  0  0  0  0  0  0  0  0  0  0  0
   10.0497    5.1423    0.0000 H   0  0  0  0  0  0  0  0  0  0  0  0
    5.2520   -3.1674    0.0000 H   0  0  0  0  0  0  0  0  0  0  0  0
    4.8535   -3.8577    0.0000 H   0  0  0  0  0  0  0  0  0  0  0  0
   11.7383    5.1674    0.0000 H   0  0  0  0  0  0  0  0  0  0  0  0
   12.1369    5.8577    0.0000 H   0  0  0  0  0  0  0  0  0  0  0  0
    5.6762   -5.3326    0.0000 H   0  0  0  0  0  0  0  0  0  0  0  0
    6.0747   -4.6423    0.0000 H   0  0  0  0  0  0  0  0  0  0  0  0
   11.3142    7.3326    0.0000 H   0  0  0  0  0  0  0  0  0  0  0  0
   10.9157    6.6423    0.0000 H   0  0  0  0  0  0  0  0  0  0  0  0
    4.3860   -4.6674    0.0000 H   0  0  0  0  0  0  0  0  0  0  0  0
    3.9875   -5.3577    0.0000 H   0  0  0  0  0  0  0  0  0  0  0  0
    4.8101   -6.8326    0.0000 H   0  0  0  0  0  0  0  0  0  0  0  0
    5.2087   -6.1423    0.0000 H   0  0  0  0  0  0  0  0  0  0  0  0
   12.6044    6.6674    0.0000 H   0  0  0  0  0  0  0  0  0  0  0  0
   13.0029    7.3577    0.0000 H   0  0  0  0  0  0  0  0  0  0  0  0
    3.5200   -6.1674    0.0000 H   0  0  0  0  0  0  0  0  0  0  0  0
    3.1215   -6.8577    0.0000 H   0  0  0  0  0  0  0  0  0  0  0  0
   12.3923    8.8700    0.0000 H   0  0  0  0  0  0  0  0  0  0  0  0
    3.9441   -8.3326    0.0000 H   0  0  0  0  0  0  0  0  0  0  0  0
    4.3426   -7.6423    0.0000 H   0  0  0  0  0  0  0  0  0  0  0  0
    2.6540   -7.6674    0.0000 H   0  0  0  0  0  0  0  0  0  0  0  0
    2.2554   -8.3577    0.0000 H   0  0  0  0  0  0  0  0  0  0  0  0
    3.0781   -9.8326    0.0000 H   0  0  0  0  0  0  0  0  0  0  0  0
    3.4766   -9.1423    0.0000 H   0  0  0  0  0  0  0  0  0  0  0  0
   14.6804    7.2131    0.0000 H   0  0  0  0  0  0  0  0  0  0  0  0
   15.5273    7.4400    0.0000 H   0  0  0  0  0  0  0  0  0  0  0  0
   15.3004    8.2869    0.0000 H   0  0  0  0  0  0  0  0  0  0  0  0
   15.1613    8.8060    0.0000 H   0  0  0  0  0  0  0  0  0  0  0  0
   14.9344    9.6530    0.0000 H   0  0  0  0  0  0  0  0  0  0  0  0
   14.0874    9.4260    0.0000 H   0  0  0  0  0  0  0  0  0  0  0  0
   13.0874    7.6940    0.0000 H   0  0  0  0  0  0  0  0  0  0  0  0
   13.3144    6.8470    0.0000 H   0  0  0  0  0  0  0  0  0  0  0  0
   14.1613    7.0740    0.0000 H   0  0  0  0  0  0  0  0  0  0  0  0
    1.6900   -9.2131    0.0000 H   0  0  0  0  0  0  0  0  0  0  0  0
    1.4631  -10.0600    0.0000 H   0  0  0  0  0  0  0  0  0  0  0  0
    2.3100  -10.2869    0.0000 H   0  0  0  0  0  0  0  0  0  0  0  0
   10.1042    9.2869    0.0000 H   0  0  0  0  0  0  0  0  0  0  0  0
    9.2573    9.0600    0.0000 H   0  0  0  0  0  0  0  0  0  0  0  0
    9.4842    8.2131    0.0000 H   0  0  0  0  0  0  0  0  0  0  0  0
  1  2  1  0  0  0  0
  1 30  1  0  0  0  0
  1 31  1  0  0  0  0
  1 32  1  0  0  0  0
  2 25  1  0  0  0  0
  3 28  1  0  0  0  0
  3 34  1  0  0  0  0
  4 28  2  0  0  0  0
  5  6  1  0  0  0  0
  5  7  1  0  0  0  0
  5 35  1  0  0  0  0
  5 36  1  0  0  0  0
  6  8  1  0  0  0  0
  6 37  1  0  0  0  0
  6 38  1  0  0  0  0
  7  9  1  0  0  0  0
  7 39  1  0  0  0  0
  7 40  1  0  0  0  0
  8 10  1  0  0  0  0
  8 41  1  0  0  0  0
  8 42  1  0  0  0  0
  9 11  1  0  0  0  0
  9 43  1  0  0  0  0
  9 44  1  0  0  0  0
 10 12  1  0  0  0  0
 10 45  1  0  0  0  0
 10 46  1  0  0  0  0
 11 13  1  0  0  0  0
 11 47  1  0  0  0  0
 11 48  1  0  0  0  0
 12 14  1  0  0  0  0
 12 49  1  0  0  0  0
 12 50  1  0  0  0  0
 13 15  1  0  0  0  0
 13 51  1  0  0  0  0
 13 52  1  0  0  0  0
 14 16  1  0  0  0  0
 14 53  1  0  0  0  0
 14 54  1  0  0  0  0
 15 17  1  0  0  0  0
 15 55  1  0  0  0  0
 15 56  1  0  0  0  0
 16 18  1  0  0  0  0
 16 57  1  0  0  0  0
 16 58  1  0  0  0  0
 17 19  1  0  0  0  0
 17 59  1  0  0  0  0
 17 60  1  0  0  0  0
 18 21  1  0  0  0  0
 18 61  1  0  0  0  0
 18 62  1  0  0  0  0
 19 20  1  0  0  0  0
 19 63  1  0  0  0  0
 19 64  1  0  0  0  0
 20 22  1  0  0  0  0
 20 67  1  0  0  0  0
 20 68  1  0  0  0  0
 21 23  1  0  0  0  0
 21 65  1  0  0  0  0
 21 66  1  0  0  0  0
 22 24  1  0  0  0  0
 22 69  1  0  0  0  0
 22 70  1  0  0  0  0
 23 25  1  0  0  0  0
 23 71  1  0  0  0  0
 23 72  1  0  0  0  0
 24 26  1  0  0  0  0
 24 73  1  0  0  0  0
 24 74  1  0  0  0  0
 25 28  1  0  0  0  0
 25 75  1  0  0  0  0
 26 27  1  0  0  0  0
 26 76  1  0  0  0  0
 26 77  1  0  0  0  0
 27 29  1  0  0  0  0
 27 78  1  0  0  0  0
 27 79  1  0  0  0  0
 29 33  1  0  0  0  0
 29 80  1  0  0  0  0
 29 81  1  0  0  0  0
 30 82  1  0  0  0  0
 30 83  1  0  0  0  0
 30 84  1  0  0  0  0
 31 85  1  0  0  0  0
 31 86  1  0  0  0  0
 31 87  1  0  0  0  0
 32 88  1  0  0  0  0
 32 89  1  0  0  0  0
 32 90  1  0  0  0  0
 33 91  1  0  0  0  0
 33 92  1  0  0  0  0
 33 93  1  0  0  0  0
 34 94  1  0  0  0  0
 34 95  1  0  0  0  0
 34 96  1  0  0  0  0
M  END
> <PUBCHEM_COMPOUND_CID>
524467
> <PUBCHEM_COMPOUND_CANONICALIZED>
1
> <PUBCHEM_CACTVS_COMPLEXITY>
433
> <PUBCHEM_CACTVS_HBOND_ACCEPTOR>
3
> <PUBCHEM_CACTVS_HBOND_DONOR>
0
> <PUBCHEM_CACTVS_ROTATABLE_BOND>
27
> <PUBCHEM_CACTVS_SUBSKEYS>
AAADcfB4MAgAAAAAAAAAAAAAAAAAAAAAAAAAAAAAAAAAAAAAAAAAGhAAAEAACBSggAJCCAAABAEIAACQCAIAAAAAAAAAAAFAAAABABIAAAAAAAAEAAACAAGIyKCAAAAAAAAAAAAAAAAAAAAAAAAAAAAAAA==
> <PUBCHEM_IUPAC_OPENEYE_NAME>
methyl 2-trimethylsilyloxyhexacosanoate
> <PUBCHEM_IUPAC_CAS_NAME>
2-trimethylsilyloxyhexacosanoic acid methyl ester
> <PUBCHEM_IUPAC_NAME_MARKUP>
methyl 2-trimethylsilyloxyhexacosanoate
> <PUBCHEM_IUPAC_NAME>
methyl 2-trimethylsilyloxyhexacosanoate
> <PUBCHEM_IUPAC_SYSTEMATIC_NAME>
methyl 2-trimethylsilyloxyhexacosanoate
> <PUBCHEM_IUPAC_TRADITIONAL_NAME>
2-trimethylsilyloxycerotic acid methyl ester
> <PUBCHEM_IUPAC_INCHI>
InChI=1S/C30H62O3Si/c1-6-7-8-9-10-11-12-13-14-15-16-17-18-19-20-21-22-23-24-25-26-27-28-29(30(31)32-2)33-34(3,4)5/h29H,6-28H2,1-5H3
> <PUBCHEM_IUPAC_INCHIKEY>
GNJJOGOOBJLFFA-UHFFFAOYSA-N
> <PUBCHEM_EXACT_MASS>
498.44682237
> <PUBCHEM_MOLECULAR_FORMULA>
C30H62O3Si
> <PUBCHEM_MOLECULAR_WEIGHT>
498.9
> <PUBCHEM_OPENEYE_CAN_SMILES>
CCCCCCCCCCCCCCCCCCCCCCCCC(C(=O)OC)O[Si](C)(C)C
> <PUBCHEM_OPENEYE_ISO_SMILES>
CCCCCCCCCCCCCCCCCCCCCCCCC(C(=O)OC)O[Si](C)(C)C
> <PUBCHEM_CACTVS_TPSA>
35.5
> <PUBCHEM_MONOISOTOPIC_WEIGHT>
498.44682237
> <PUBCHEM_TOTAL_CHARGE>
0
> <PUBCHEM_HEAVY_ATOM_COUNT>
34
> <PUBCHEM_ATOM_DEF_STEREO_COUNT>
0
> <PUBCHEM_ATOM_UDEF_STEREO_COUNT>
1
> <PUBCHEM_BOND_DEF_STEREO_COUNT>
0
> <PUBCHEM_BOND_UDEF_STEREO_COUNT>
0
> <PUBCHEM_ISOTOPIC_ATOM_COUNT>
0
> <PUBCHEM_COMPONENT_COUNT>
1
> <PUBCHEM_CACTVS_TAUTO_COUNT>
-1
> <PUBCHEM_COORDINATE_TYPE>
1
5
255
> <PUBCHEM_BONDANNOTATIONS>
25  23  3
$$$$
