524502
  -OEChem-10302200292D
 30 31  0     1  0  0  0  0  0999 V2000
    4.6783   -1.0884    0.0000 N   0  0  0  0  0  0  0  0  0  0  0  0
    3.7320    0.2163    0.0000 C   0  0  3  0  0  0  0  0  0  0  0  0
    3.7320   -0.7837    0.0000 C   0  0  3  0  0  0  0  0  0  0  0  0
    4.6783    0.5210    0.0000 C   0  0  3  0  0  0  0  0  0  0  0  0
    2.8660    0.7163    0.0000 C   0  0  0  0  0  0  0  0  0  0  0  0
    5.2619   -0.2837    0.0000 C   0  0  0  0  0  0  0  0  0  0  0  0
    2.8660   -1.2837    0.0000 C   0  0  0  0  0  0  0  0  0  0  0  0
    2.0000    0.2163    0.0000 C   0  0  0  0  0  0  0  0  0  0  0  0
    2.0000   -0.7837    0.0000 C   0  0  0  0  0  0  0  0  0  0  0  0
    4.9889    1.4715    0.0000 C   0  0  0  0  0  0  0  0  0  0  0  0
    5.9674    1.6778    0.0000 C   0  0  0  0  0  0  0  0  0  0  0  0
    3.7977    0.8328    0.0000 H   0  0  0  0  0  0  0  0  0  0  0  0
    3.7977   -1.4002    0.0000 H   0  0  0  0  0  0  0  0  0  0  0  0
    5.2908    0.6172    0.0000 H   0  0  0  0  0  0  0  0  0  0  0  0
    3.2646    1.1912    0.0000 H   0  0  0  0  0  0  0  0  0  0  0  0
    2.4675    1.1912    0.0000 H   0  0  0  0  0  0  0  0  0  0  0  0
    5.7227   -0.6984    0.0000 H   0  0  0  0  0  0  0  0  0  0  0  0
    5.7227    0.1310    0.0000 H   0  0  0  0  0  0  0  0  0  0  0  0
    2.4675   -1.7587    0.0000 H   0  0  0  0  0  0  0  0  0  0  0  0
    3.2646   -1.7587    0.0000 H   0  0  0  0  0  0  0  0  0  0  0  0
    4.8709   -1.6778    0.0000 H   0  0  0  0  0  0  0  0  0  0  0  0
    1.7880    0.7989    0.0000 H   0  0  0  0  0  0  0  0  0  0  0  0
    1.3894    0.1086    0.0000 H   0  0  0  0  0  0  0  0  0  0  0  0
    1.3894   -0.6760    0.0000 H   0  0  0  0  0  0  0  0  0  0  0  0
    1.7880   -1.3663    0.0000 H   0  0  0  0  0  0  0  0  0  0  0  0
    4.9684    2.0912    0.0000 H   0  0  0  0  0  0  0  0  0  0  0  0
    4.3751    1.5589    0.0000 H   0  0  0  0  0  0  0  0  0  0  0  0
    6.0953    1.0711    0.0000 H   0  0  0  0  0  0  0  0  0  0  0  0
    6.5741    1.8056    0.0000 H   0  0  0  0  0  0  0  0  0  0  0  0
    5.8396    2.2844    0.0000 H   0  0  0  0  0  0  0  0  0  0  0  0
  1  3  1  0  0  0  0
  1  6  1  0  0  0  0
  1 21  1  0  0  0  0
  2  3  1  0  0  0  0
  2  4  1  0  0  0  0
  2  5  1  0  0  0  0
  2 12  1  0  0  0  0
  3  7  1  0  0  0  0
  3 13  1  0  0  0  0
  4  6  1  0  0  0  0
  4 10  1  0  0  0  0
  4 14  1  0  0  0  0
  5  8  1  0  0  0  0
  5 15  1  0  0  0  0
  5 16  1  0  0  0  0
  6 17  1  0  0  0  0
  6 18  1  0  0  0  0
  7  9  1  0  0  0  0
  7 19  1  0  0  0  0
  7 20  1  0  0  0  0
  8  9  1  0  0  0  0
  8 22  1  0  0  0  0
  8 23  1  0  0  0  0
  9 24  1  0  0  0  0
  9 25  1  0  0  0  0
 10 11  1  0  0  0  0
 10 26  1  0  0  0  0
 10 27  1  0  0  0  0
 11 28  1  0  0  0  0
 11 29  1  0  0  0  0
 11 30  1  0  0  0  0
M  END
> <PUBCHEM_COMPOUND_CID>
524502
> <PUBCHEM_COMPOUND_CANONICALIZED>
1
> <PUBCHEM_CACTVS_COMPLEXITY>
133
> <PUBCHEM_CACTVS_HBOND_ACCEPTOR>
1
> <PUBCHEM_CACTVS_HBOND_DONOR>
1
> <PUBCHEM_CACTVS_ROTATABLE_BOND>
1
> <PUBCHEM_CACTVS_SUBSKEYS>
AAADceByAAAAAAAAAAAAAAAAAAAAAWAAAAAwAAAAAAAAAFgAAAAAHAAQAAAADSjBAAQCAALAAAAAAAAAAAAAAAAAAAAAAIAIAAAAAAIAgAAEAAAAEACAAAEQgMAOgAAAAAAAAAAAAAAAAAQAAAAAAAAAAA==
> <PUBCHEM_IUPAC_OPENEYE_NAME>
3-ethyl-2,3,3a,4,5,6,7,7a-octahydro-1H-indole
> <PUBCHEM_IUPAC_CAS_NAME>
3-ethyl-2,3,3a,4,5,6,7,7a-octahydro-1H-indole
> <PUBCHEM_IUPAC_NAME_MARKUP>
3-ethyl-2,3,3<I>a</I>,4,5,6,7,7<I>a</I>-octahydro-1<I>H</I>-indole
> <PUBCHEM_IUPAC_NAME>
3-ethyl-2,3,3a,4,5,6,7,7a-octahydro-1H-indole
> <PUBCHEM_IUPAC_SYSTEMATIC_NAME>
3-ethyl-2,3,3a,4,5,6,7,7a-octahydro-1H-indole
> <PUBCHEM_IUPAC_TRADITIONAL_NAME>
3-ethyl-2,3,3a,4,5,6,7,7a-octahydro-1H-indole
> <PUBCHEM_IUPAC_INCHI>
InChI=1S/C10H19N/c1-2-8-7-11-10-6-4-3-5-9(8)10/h8-11H,2-7H2,1H3
> <PUBCHEM_IUPAC_INCHIKEY>
POQZASNPVNSKNG-UHFFFAOYSA-N
> <PUBCHEM_XLOGP3_AA>
2.4
> <PUBCHEM_EXACT_MASS>
153.151749610
> <PUBCHEM_MOLECULAR_FORMULA>
C10H19N
> <PUBCHEM_MOLECULAR_WEIGHT>
153.26
> <PUBCHEM_OPENEYE_CAN_SMILES>
CCC1CNC2C1CCCC2
> <PUBCHEM_OPENEYE_ISO_SMILES>
CCC1CNC2C1CCCC2
> <PUBCHEM_CACTVS_TPSA>
12
> <PUBCHEM_MONOISOTOPIC_WEIGHT>
153.151749610
> <PUBCHEM_TOTAL_CHARGE>
0
> <PUBCHEM_HEAVY_ATOM_COUNT>
11
> <PUBCHEM_ATOM_DEF_STEREO_COUNT>
0
> <PUBCHEM_ATOM_UDEF_STEREO_COUNT>
3
> <PUBCHEM_BOND_DEF_STEREO_COUNT>
0
> <PUBCHEM_BOND_UDEF_STEREO_COUNT>
0
> <PUBCHEM_ISOTOPIC_ATOM_COUNT>
0
> <PUBCHEM_COMPONENT_COUNT>
1
> <PUBCHEM_CACTVS_TAUTO_COUNT>
-1
> <PUBCHEM_COORDINATE_TYPE>
1
5
255
> <PUBCHEM_BONDANNOTATIONS>
2  5  3
3  7  3
4  10  3
$$$$
