524519
  -OEChem-10302200292D
 33 34  0     1  0  0  0  0  0999 V2000
    4.6783    0.1513    0.0000 N   0  0  3  0  0  0  0  0  0  0  0  0
    3.7320    1.4560    0.0000 C   0  0  3  0  0  0  0  0  0  0  0  0
    3.7320    0.4560    0.0000 C   0  0  3  0  0  0  0  0  0  0  0  0
    4.6783    1.7607    0.0000 C   0  0  0  0  0  0  0  0  0  0  0  0
    2.8660    1.9560    0.0000 C   0  0  0  0  0  0  0  0  0  0  0  0
    2.8660   -0.0440    0.0000 C   0  0  0  0  0  0  0  0  0  0  0  0
    5.2619    0.9560    0.0000 C   0  0  0  0  0  0  0  0  0  0  0  0
    2.0000    1.4560    0.0000 C   0  0  0  0  0  0  0  0  0  0  0  0
    2.0000    0.4560    0.0000 C   0  0  0  0  0  0  0  0  0  0  0  0
    4.9889   -0.7993    0.0000 C   0  0  0  0  0  0  0  0  0  0  0  0
    5.9674   -1.0055    0.0000 C   0  0  0  0  0  0  0  0  0  0  0  0
    6.2781   -1.9560    0.0000 C   0  0  0  0  0  0  0  0  0  0  0  0
    3.7977    2.0725    0.0000 H   0  0  0  0  0  0  0  0  0  0  0  0
    3.7977   -0.1605    0.0000 H   0  0  0  0  0  0  0  0  0  0  0  0
    5.2156    2.0700    0.0000 H   0  0  0  0  0  0  0  0  0  0  0  0
    4.4272    2.3276    0.0000 H   0  0  0  0  0  0  0  0  0  0  0  0
    3.2646    2.4309    0.0000 H   0  0  0  0  0  0  0  0  0  0  0  0
    2.4675    2.4309    0.0000 H   0  0  0  0  0  0  0  0  0  0  0  0
    2.4675   -0.5190    0.0000 H   0  0  0  0  0  0  0  0  0  0  0  0
    3.2646   -0.5190    0.0000 H   0  0  0  0  0  0  0  0  0  0  0  0
    5.7227    0.5413    0.0000 H   0  0  0  0  0  0  0  0  0  0  0  0
    5.7227    1.3707    0.0000 H   0  0  0  0  0  0  0  0  0  0  0  0
    1.7880    2.0386    0.0000 H   0  0  0  0  0  0  0  0  0  0  0  0
    1.3894    1.3483    0.0000 H   0  0  0  0  0  0  0  0  0  0  0  0
    1.3894    0.5637    0.0000 H   0  0  0  0  0  0  0  0  0  0  0  0
    1.7880   -0.1266    0.0000 H   0  0  0  0  0  0  0  0  0  0  0  0
    4.3751   -0.8866    0.0000 H   0  0  0  0  0  0  0  0  0  0  0  0
    4.9684   -1.4189    0.0000 H   0  0  0  0  0  0  0  0  0  0  0  0
    6.5812   -0.9181    0.0000 H   0  0  0  0  0  0  0  0  0  0  0  0
    5.9880   -0.3858    0.0000 H   0  0  0  0  0  0  0  0  0  0  0  0
    5.6888   -2.1486    0.0000 H   0  0  0  0  0  0  0  0  0  0  0  0
    6.4707   -2.5453    0.0000 H   0  0  0  0  0  0  0  0  0  0  0  0
    6.8674   -1.7634    0.0000 H   0  0  0  0  0  0  0  0  0  0  0  0
  1  3  1  0  0  0  0
  1  7  1  0  0  0  0
  1 10  1  0  0  0  0
  2  3  1  0  0  0  0
  2  4  1  0  0  0  0
  2  5  1  0  0  0  0
  2 13  1  0  0  0  0
  3  6  1  0  0  0  0
  3 14  1  0  0  0  0
  4  7  1  0  0  0  0
  4 15  1  0  0  0  0
  4 16  1  0  0  0  0
  5  8  1  0  0  0  0
  5 17  1  0  0  0  0
  5 18  1  0  0  0  0
  6  9  1  0  0  0  0
  6 19  1  0  0  0  0
  6 20  1  0  0  0  0
  7 21  1  0  0  0  0
  7 22  1  0  0  0  0
  8  9  1  0  0  0  0
  8 23  1  0  0  0  0
  8 24  1  0  0  0  0
  9 25  1  0  0  0  0
  9 26  1  0  0  0  0
 10 11  1  0  0  0  0
 10 27  1  0  0  0  0
 10 28  1  0  0  0  0
 11 12  1  0  0  0  0
 11 29  1  0  0  0  0
 11 30  1  0  0  0  0
 12 31  1  0  0  0  0
 12 32  1  0  0  0  0
 12 33  1  0  0  0  0
M  END
> <PUBCHEM_COMPOUND_CID>
524519
> <PUBCHEM_COMPOUND_CANONICALIZED>
1
> <PUBCHEM_CACTVS_COMPLEXITY>
144
> <PUBCHEM_CACTVS_HBOND_ACCEPTOR>
1
> <PUBCHEM_CACTVS_HBOND_DONOR>
0
> <PUBCHEM_CACTVS_ROTATABLE_BOND>
2
> <PUBCHEM_CACTVS_SUBSKEYS>
AAADceByAAAAAAAAAAAAAAAAAAAAAWAAAAAwAAAAAAAAAFgAAAAAHAAAAAAADSjBAAQCAAMAAAAAAAAAAAAAAAAAAAAAAAAIAAAAAAIAgAAEAAAAAACAAAEQgIAOAAAAAAAAAAAAAAAAAAQAAAAAAAAAAA==
> <PUBCHEM_IUPAC_OPENEYE_NAME>
1-propyl-2,3,3a,4,5,6,7,7a-octahydroindole
> <PUBCHEM_IUPAC_CAS_NAME>
1-propyl-2,3,3a,4,5,6,7,7a-octahydroindole
> <PUBCHEM_IUPAC_NAME_MARKUP>
1-propyl-2,3,3<I>a</I>,4,5,6,7,7<I>a</I>-octahydroindole
> <PUBCHEM_IUPAC_NAME>
1-propyl-2,3,3a,4,5,6,7,7a-octahydroindole
> <PUBCHEM_IUPAC_SYSTEMATIC_NAME>
1-propyl-2,3,3a,4,5,6,7,7a-octahydroindole
> <PUBCHEM_IUPAC_TRADITIONAL_NAME>
1-propyl-2,3,3a,4,5,6,7,7a-octahydroindole
> <PUBCHEM_IUPAC_INCHI>
InChI=1S/C11H21N/c1-2-8-12-9-7-10-5-3-4-6-11(10)12/h10-11H,2-9H2,1H3
> <PUBCHEM_IUPAC_INCHIKEY>
WBYBVLUDSFJLEH-UHFFFAOYSA-N
> <PUBCHEM_XLOGP3_AA>
3
> <PUBCHEM_EXACT_MASS>
167.167399674
> <PUBCHEM_MOLECULAR_FORMULA>
C11H21N
> <PUBCHEM_MOLECULAR_WEIGHT>
167.29
> <PUBCHEM_OPENEYE_CAN_SMILES>
CCCN1CCC2C1CCCC2
> <PUBCHEM_OPENEYE_ISO_SMILES>
CCCN1CCC2C1CCCC2
> <PUBCHEM_CACTVS_TPSA>
3.2
> <PUBCHEM_MONOISOTOPIC_WEIGHT>
167.167399674
> <PUBCHEM_TOTAL_CHARGE>
0
> <PUBCHEM_HEAVY_ATOM_COUNT>
12
> <PUBCHEM_ATOM_DEF_STEREO_COUNT>
0
> <PUBCHEM_ATOM_UDEF_STEREO_COUNT>
2
> <PUBCHEM_BOND_DEF_STEREO_COUNT>
0
> <PUBCHEM_BOND_UDEF_STEREO_COUNT>
0
> <PUBCHEM_ISOTOPIC_ATOM_COUNT>
0
> <PUBCHEM_COMPONENT_COUNT>
1
> <PUBCHEM_CACTVS_TAUTO_COUNT>
-1
> <PUBCHEM_COORDINATE_TYPE>
1
5
255
> <PUBCHEM_BONDANNOTATIONS>
2  5  3
3  6  3
$$$$
