524570
  -OEChem-10302200292D
 27 28  0     1  0  0  0  0  0999 V2000
    2.8660   -0.2694    0.0000 C   0  0  3  0  0  0  0  0  0  0  0  0
    2.8660    0.7306    0.0000 C   0  0  3  0  0  0  0  0  0  0  0  0
    2.0000   -0.7694    0.0000 C   0  0  0  0  0  0  0  0  0  0  0  0
    2.0570    1.3184    0.0000 C   0  0  0  0  0  0  0  0  0  0  0  0
    3.7320   -0.7694    0.0000 C   0  0  0  0  0  0  0  0  0  0  0  0
    2.3660    2.2694    0.0000 C   0  0  0  0  0  0  0  0  0  0  0  0
    3.6750    1.3184    0.0000 C   0  0  0  0  0  0  0  0  0  0  0  0
    2.0000   -1.7694    0.0000 C   0  0  0  0  0  0  0  0  0  0  0  0
    3.3660    2.2694    0.0000 C   0  0  0  0  0  0  0  0  0  0  0  0
    3.7320   -1.7694    0.0000 C   0  0  0  0  0  0  0  0  0  0  0  0
    2.8660   -2.2694    0.0000 C   0  0  0  0  0  0  0  0  0  0  0  0
    3.4030    0.0406    0.0000 H   0  0  0  0  0  0  0  0  0  0  0  0
    2.3136    0.4491    0.0000 H   0  0  0  0  0  0  0  0  0  0  0  0
    1.7880   -0.1868    0.0000 H   0  0  0  0  0  0  0  0  0  0  0  0
    1.3894   -0.8771    0.0000 H   0  0  0  0  0  0  0  0  0  0  0  0
    1.4906    1.5705    0.0000 H   0  0  0  0  0  0  0  0  0  0  0  0
    1.7470    0.7814    0.0000 H   0  0  0  0  0  0  0  0  0  0  0  0
    4.3426   -0.8771    0.0000 H   0  0  0  0  0  0  0  0  0  0  0  0
    3.9441   -0.1868    0.0000 H   0  0  0  0  0  0  0  0  0  0  0  0
    2.4308    2.8860    0.0000 H   0  0  0  0  0  0  0  0  0  0  0  0
    1.7596    2.3983    0.0000 H   0  0  0  0  0  0  0  0  0  0  0  0
    4.2647    1.1268    0.0000 H   0  0  0  0  0  0  0  0  0  0  0  0
    1.3894   -1.6618    0.0000 H   0  0  0  0  0  0  0  0  0  0  0  0
    1.7880   -2.3520    0.0000 H   0  0  0  0  0  0  0  0  0  0  0  0
    3.7304    2.7710    0.0000 H   0  0  0  0  0  0  0  0  0  0  0  0
    4.2690   -2.0794    0.0000 H   0  0  0  0  0  0  0  0  0  0  0  0
    2.8660   -2.8894    0.0000 H   0  0  0  0  0  0  0  0  0  0  0  0
  1  2  1  0  0  0  0
  1  3  1  0  0  0  0
  1  5  1  0  0  0  0
  1 12  1  0  0  0  0
  2  4  1  0  0  0  0
  2  7  1  0  0  0  0
  2 13  1  0  0  0  0
  3  8  1  0  0  0  0
  3 14  1  0  0  0  0
  3 15  1  0  0  0  0
  4  6  1  0  0  0  0
  4 16  1  0  0  0  0
  4 17  1  0  0  0  0
  5 10  1  0  0  0  0
  5 18  1  0  0  0  0
  5 19  1  0  0  0  0
  6  9  1  0  0  0  0
  6 20  1  0  0  0  0
  6 21  1  0  0  0  0
  7  9  2  0  0  0  0
  7 22  1  0  0  0  0
  8 11  1  0  0  0  0
  8 23  1  0  0  0  0
  8 24  1  0  0  0  0
  9 25  1  0  0  0  0
 10 11  2  0  0  0  0
 10 26  1  0  0  0  0
 11 27  1  0  0  0  0
M  END
> <PUBCHEM_COMPOUND_CID>
524570
> <PUBCHEM_COMPOUND_CANONICALIZED>
1
> <PUBCHEM_CACTVS_COMPLEXITY>
177
> <PUBCHEM_CACTVS_HBOND_ACCEPTOR>
0
> <PUBCHEM_CACTVS_HBOND_DONOR>
0
> <PUBCHEM_CACTVS_ROTATABLE_BOND>
1
> <PUBCHEM_CACTVS_SUBSKEYS>
AAADceBwAAAAAAAAAAAAAAAAAAAAAQAAAAAgAAAAAAAAAAAAAAAAGAAAAAAADQCAAAAAAAAAAACAACBCAAAAAAAgAAAICAAAAAgAAAIAAQAAAAAAgAAIAAMAgIAOgAAAAAAAAAAAAAAAAAAAAAAAAAAAAA==
> <PUBCHEM_IUPAC_OPENEYE_NAME>
4-cyclopent-2-en-1-ylcyclohexene
> <PUBCHEM_IUPAC_CAS_NAME>
4-(1-cyclopent-2-enyl)cyclohexene
> <PUBCHEM_IUPAC_NAME_MARKUP>
4-cyclopent-2-en-1-ylcyclohexene
> <PUBCHEM_IUPAC_NAME>
4-cyclopent-2-en-1-ylcyclohexene
> <PUBCHEM_IUPAC_SYSTEMATIC_NAME>
4-cyclopent-2-en-1-ylcyclohexene
> <PUBCHEM_IUPAC_TRADITIONAL_NAME>
4-cyclopent-2-en-1-ylcyclohexene
> <PUBCHEM_IUPAC_INCHI>
InChI=1S/C11H16/c1-2-6-10(7-3-1)11-8-4-5-9-11/h1-2,4,8,10-11H,3,5-7,9H2
> <PUBCHEM_IUPAC_INCHIKEY>
JHYOKBQPGKEDCZ-UHFFFAOYSA-N
> <PUBCHEM_XLOGP3_AA>
3.7
> <PUBCHEM_EXACT_MASS>
148.125200510
> <PUBCHEM_MOLECULAR_FORMULA>
C11H16
> <PUBCHEM_MOLECULAR_WEIGHT>
148.24
> <PUBCHEM_OPENEYE_CAN_SMILES>
C1CC(CC=C1)C2CCC=C2
> <PUBCHEM_OPENEYE_ISO_SMILES>
C1CC(CC=C1)C2CCC=C2
> <PUBCHEM_CACTVS_TPSA>
0
> <PUBCHEM_MONOISOTOPIC_WEIGHT>
148.125200510
> <PUBCHEM_TOTAL_CHARGE>
0
> <PUBCHEM_HEAVY_ATOM_COUNT>
11
> <PUBCHEM_ATOM_DEF_STEREO_COUNT>
0
> <PUBCHEM_ATOM_UDEF_STEREO_COUNT>
2
> <PUBCHEM_BOND_DEF_STEREO_COUNT>
0
> <PUBCHEM_BOND_UDEF_STEREO_COUNT>
0
> <PUBCHEM_ISOTOPIC_ATOM_COUNT>
0
> <PUBCHEM_COMPONENT_COUNT>
1
> <PUBCHEM_CACTVS_TAUTO_COUNT>
-1
> <PUBCHEM_COORDINATE_TYPE>
1
5
255
> <PUBCHEM_BONDANNOTATIONS>
1  3  3
2  4  3
$$$$
