524559
  -OEChem-10302200292D
 30 31  0     1  0  0  0  0  0999 V2000
    2.5369   -1.0000    0.0000 O   0  0  0  0  0  0  0  0  0  0  0  0
    7.7991    1.0241    0.0000 O   0  0  0  0  0  0  0  0  0  0  0  0
    5.1350   -0.5000    0.0000 C   0  0  3  0  0  0  0  0  0  0  0  0
    5.1350    0.5000    0.0000 C   0  0  3  0  0  0  0  0  0  0  0  0
    4.2690   -1.0000    0.0000 C   0  0  0  0  0  0  0  0  0  0  0  0
    6.0290    1.0347    0.0000 C   0  0  0  0  0  0  0  0  0  0  0  0
    6.0290   -1.0347    0.0000 C   0  0  0  0  0  0  0  0  0  0  0  0
    4.2690    1.0000    0.0000 C   0  0  0  0  0  0  0  0  0  0  0  0
    3.4030   -0.5000    0.0000 C   0  0  3  0  0  0  0  0  0  0  0  0
    6.9350    0.5208    0.0000 C   0  0  3  0  0  0  0  0  0  0  0  0
    3.4030    0.5000    0.0000 C   0  0  0  0  0  0  0  0  0  0  0  0
    6.9350   -0.5208    0.0000 C   0  0  0  0  0  0  0  0  0  0  0  0
    5.1302   -1.1200    0.0000 H   0  0  0  0  0  0  0  0  0  0  0  0
    5.1302    1.1200    0.0000 H   0  0  0  0  0  0  0  0  0  0  0  0
    3.8705   -1.4750    0.0000 H   0  0  0  0  0  0  0  0  0  0  0  0
    4.6675   -1.4750    0.0000 H   0  0  0  0  0  0  0  0  0  0  0  0
    6.4226    1.5137    0.0000 H   0  0  0  0  0  0  0  0  0  0  0  0
    5.6244    1.5044    0.0000 H   0  0  0  0  0  0  0  0  0  0  0  0
    5.6244   -1.5044    0.0000 H   0  0  0  0  0  0  0  0  0  0  0  0
    6.4226   -1.5137    0.0000 H   0  0  0  0  0  0  0  0  0  0  0  0
    3.8705    1.4750    0.0000 H   0  0  0  0  0  0  0  0  0  0  0  0
    4.6675    1.4750    0.0000 H   0  0  0  0  0  0  0  0  0  0  0  0
    3.4030   -1.1200    0.0000 H   0  0  0  0  0  0  0  0  0  0  0  0
    7.4726    0.2119    0.0000 H   0  0  0  0  0  0  0  0  0  0  0  0
    3.1909    1.0826    0.0000 H   0  0  0  0  0  0  0  0  0  0  0  0
    2.7924    0.3923    0.0000 H   0  0  0  0  0  0  0  0  0  0  0  0
    7.1441   -1.1045    0.0000 H   0  0  0  0  0  0  0  0  0  0  0  0
    7.5459   -0.4147    0.0000 H   0  0  0  0  0  0  0  0  0  0  0  0
    2.0000   -0.6900    0.0000 H   0  0  0  0  0  0  0  0  0  0  0  0
    8.3372    0.7162    0.0000 H   0  0  0  0  0  0  0  0  0  0  0  0
  1  9  1  0  0  0  0
  1 29  1  0  0  0  0
  2 10  1  0  0  0  0
  2 30  1  0  0  0  0
  3  4  1  0  0  0  0
  3  5  1  0  0  0  0
  3  7  1  0  0  0  0
  3 13  1  0  0  0  0
  4  6  1  0  0  0  0
  4  8  1  0  0  0  0
  4 14  1  0  0  0  0
  5  9  1  0  0  0  0
  5 15  1  0  0  0  0
  5 16  1  0  0  0  0
  6 10  1  0  0  0  0
  6 17  1  0  0  0  0
  6 18  1  0  0  0  0
  7 12  1  0  0  0  0
  7 19  1  0  0  0  0
  7 20  1  0  0  0  0
  8 11  1  0  0  0  0
  8 21  1  0  0  0  0
  8 22  1  0  0  0  0
  9 11  1  0  0  0  0
  9 23  1  0  0  0  0
 10 12  1  0  0  0  0
 10 24  1  0  0  0  0
 11 25  1  0  0  0  0
 11 26  1  0  0  0  0
 12 27  1  0  0  0  0
 12 28  1  0  0  0  0
M  END
> <PUBCHEM_COMPOUND_CID>
524559
> <PUBCHEM_COMPOUND_CANONICALIZED>
1
> <PUBCHEM_CACTVS_COMPLEXITY>
140
> <PUBCHEM_CACTVS_HBOND_ACCEPTOR>
2
> <PUBCHEM_CACTVS_HBOND_DONOR>
2
> <PUBCHEM_CACTVS_ROTATABLE_BOND>
0
> <PUBCHEM_CACTVS_SUBSKEYS>
AAADceBwMAAAAAAAAAAAAAAAAAAAAAAAAAAwYAAAAAAAAADAAAAAGgAACAAADRSggAIAAAAAAgAAAAAAAAAAAAAAAAAAAAAAAAAAEAIAAAAAQAAEAAAAAAGAwLAOgAAAAAAAAABAAAIAACAAAAAAAAAAAA==
> <PUBCHEM_IUPAC_OPENEYE_NAME>
decalin-2,6-diol
> <PUBCHEM_IUPAC_CAS_NAME>
1,2,3,4,4a,5,6,7,8,8a-decahydronaphthalene-2,6-diol
> <PUBCHEM_IUPAC_NAME_MARKUP>
1,2,3,4,4<I>a</I>,5,6,7,8,8<I>a</I>-decahydronaphthalene-2,6-diol
> <PUBCHEM_IUPAC_NAME>
1,2,3,4,4a,5,6,7,8,8a-decahydronaphthalene-2,6-diol
> <PUBCHEM_IUPAC_SYSTEMATIC_NAME>
1,2,3,4,4a,5,6,7,8,8a-decahydronaphthalene-2,6-diol
> <PUBCHEM_IUPAC_TRADITIONAL_NAME>
decalin-2,6-diol
> <PUBCHEM_IUPAC_INCHI>
InChI=1S/C10H18O2/c11-9-3-1-7-5-10(12)4-2-8(7)6-9/h7-12H,1-6H2
> <PUBCHEM_IUPAC_INCHIKEY>
OIXGILBUABDWRY-UHFFFAOYSA-N
> <PUBCHEM_XLOGP3_AA>
1.2
> <PUBCHEM_EXACT_MASS>
170.130679813
> <PUBCHEM_MOLECULAR_FORMULA>
C10H18O2
> <PUBCHEM_MOLECULAR_WEIGHT>
170.25
> <PUBCHEM_OPENEYE_CAN_SMILES>
C1CC(CC2C1CC(CC2)O)O
> <PUBCHEM_OPENEYE_ISO_SMILES>
C1CC(CC2C1CC(CC2)O)O
> <PUBCHEM_CACTVS_TPSA>
40.5
> <PUBCHEM_MONOISOTOPIC_WEIGHT>
170.130679813
> <PUBCHEM_TOTAL_CHARGE>
0
> <PUBCHEM_HEAVY_ATOM_COUNT>
12
> <PUBCHEM_ATOM_DEF_STEREO_COUNT>
0
> <PUBCHEM_ATOM_UDEF_STEREO_COUNT>
4
> <PUBCHEM_BOND_DEF_STEREO_COUNT>
0
> <PUBCHEM_BOND_UDEF_STEREO_COUNT>
0
> <PUBCHEM_ISOTOPIC_ATOM_COUNT>
0
> <PUBCHEM_COMPONENT_COUNT>
1
> <PUBCHEM_CACTVS_TAUTO_COUNT>
1
> <PUBCHEM_COORDINATE_TYPE>
1
5
255
> <PUBCHEM_BONDANNOTATIONS>
9  1  3
10  2  3
3  7  3
4  8  3
$$$$
