524567
  -OEChem-10302200292D
 35 36  0     1  0  0  0  0  0999 V2000
    8.9942    1.5068    0.0000 O   0  0  0  0  0  0  0  0  0  0  0  0
    2.8660   -0.0173    0.0000 O   0  0  0  0  0  0  0  0  0  0  0  0
    3.7320   -1.5173    0.0000 O   0  0  0  0  0  0  0  0  0  0  0  0
    6.3301   -0.0173    0.0000 C   0  0  3  0  0  0  0  0  0  0  0  0
    6.3301    0.9827    0.0000 C   0  0  3  0  0  0  0  0  0  0  0  0
    5.4641   -0.5173    0.0000 C   0  0  0  0  0  0  0  0  0  0  0  0
    5.4641    1.4827    0.0000 C   0  0  0  0  0  0  0  0  0  0  0  0
    7.2241    1.5173    0.0000 C   0  0  0  0  0  0  0  0  0  0  0  0
    7.2241   -0.5520    0.0000 C   0  0  0  0  0  0  0  0  0  0  0  0
    4.5981   -0.0173    0.0000 C   0  0  3  0  0  0  0  0  0  0  0  0
    4.5981    0.9827    0.0000 C   0  0  0  0  0  0  0  0  0  0  0  0
    8.1301    1.0035    0.0000 C   0  0  3  0  0  0  0  0  0  0  0  0
    8.1301   -0.0381    0.0000 C   0  0  0  0  0  0  0  0  0  0  0  0
    3.7320   -0.5173    0.0000 C   0  0  0  0  0  0  0  0  0  0  0  0
    2.0000   -0.5173    0.0000 C   0  0  0  0  0  0  0  0  0  0  0  0
    6.3254   -0.6373    0.0000 H   0  0  0  0  0  0  0  0  0  0  0  0
    6.3254    1.6026    0.0000 H   0  0  0  0  0  0  0  0  0  0  0  0
    5.0656   -0.9923    0.0000 H   0  0  0  0  0  0  0  0  0  0  0  0
    5.8626   -0.9923    0.0000 H   0  0  0  0  0  0  0  0  0  0  0  0
    5.8626    1.9576    0.0000 H   0  0  0  0  0  0  0  0  0  0  0  0
    5.0656    1.9576    0.0000 H   0  0  0  0  0  0  0  0  0  0  0  0
    7.6177    1.9964    0.0000 H   0  0  0  0  0  0  0  0  0  0  0  0
    6.8195    1.9871    0.0000 H   0  0  0  0  0  0  0  0  0  0  0  0
    6.8195   -1.0218    0.0000 H   0  0  0  0  0  0  0  0  0  0  0  0
    7.6177   -1.0310    0.0000 H   0  0  0  0  0  0  0  0  0  0  0  0
    4.5981   -0.6373    0.0000 H   0  0  0  0  0  0  0  0  0  0  0  0
    4.3860    1.5653    0.0000 H   0  0  0  0  0  0  0  0  0  0  0  0
    3.9875    0.8750    0.0000 H   0  0  0  0  0  0  0  0  0  0  0  0
    8.6677    0.6945    0.0000 H   0  0  0  0  0  0  0  0  0  0  0  0
    8.3392   -0.6218    0.0000 H   0  0  0  0  0  0  0  0  0  0  0  0
    8.7410    0.0679    0.0000 H   0  0  0  0  0  0  0  0  0  0  0  0
    9.5323    1.1989    0.0000 H   0  0  0  0  0  0  0  0  0  0  0  0
    1.6900    0.0196    0.0000 H   0  0  0  0  0  0  0  0  0  0  0  0
    1.4631   -0.8273    0.0000 H   0  0  0  0  0  0  0  0  0  0  0  0
    2.3100   -1.0543    0.0000 H   0  0  0  0  0  0  0  0  0  0  0  0
  1 12  1  0  0  0  0
  1 32  1  0  0  0  0
  2 14  1  0  0  0  0
  2 15  1  0  0  0  0
  3 14  2  0  0  0  0
  4  5  1  0  0  0  0
  4  6  1  0  0  0  0
  4  9  1  0  0  0  0
  4 16  1  0  0  0  0
  5  7  1  0  0  0  0
  5  8  1  0  0  0  0
  5 17  1  0  0  0  0
  6 10  1  0  0  0  0
  6 18  1  0  0  0  0
  6 19  1  0  0  0  0
  7 11  1  0  0  0  0
  7 20  1  0  0  0  0
  7 21  1  0  0  0  0
  8 12  1  0  0  0  0
  8 22  1  0  0  0  0
  8 23  1  0  0  0  0
  9 13  1  0  0  0  0
  9 24  1  0  0  0  0
  9 25  1  0  0  0  0
 10 11  1  0  0  0  0
 10 14  1  0  0  0  0
 10 26  1  0  0  0  0
 11 27  1  0  0  0  0
 11 28  1  0  0  0  0
 12 13  1  0  0  0  0
 12 29  1  0  0  0  0
 13 30  1  0  0  0  0
 13 31  1  0  0  0  0
 15 33  1  0  0  0  0
 15 34  1  0  0  0  0
 15 35  1  0  0  0  0
M  END
> <PUBCHEM_COMPOUND_CID>
524567
> <PUBCHEM_COMPOUND_CANONICALIZED>
1
> <PUBCHEM_CACTVS_COMPLEXITY>
239
> <PUBCHEM_CACTVS_HBOND_ACCEPTOR>
3
> <PUBCHEM_CACTVS_HBOND_DONOR>
1
> <PUBCHEM_CACTVS_ROTATABLE_BOND>
2
> <PUBCHEM_CACTVS_SUBSKEYS>
AAADceBwMAAAAAAAAAAAAAAAAAAAAAAAAAAwYAAAAAAAAADAAAAAGgAACAAADRSggAICCAAABgAIAACQCAAAAAAAAAAAAAEAAAAAEBIAAAAAQAAEAAAAAAGIyPCOgAAAAAAAAADAAAYAACAAAAAAAAAAAA==
> <PUBCHEM_IUPAC_OPENEYE_NAME>
methyl 6-hydroxydecalin-2-carboxylate
> <PUBCHEM_IUPAC_CAS_NAME>
6-hydroxy-1,2,3,4,4a,5,6,7,8,8a-decahydronaphthalene-2-carboxylic acid methyl ester
> <PUBCHEM_IUPAC_NAME_MARKUP>
methyl 6-hydroxy-1,2,3,4,4<I>a</I>,5,6,7,8,8<I>a</I>-decahydronaphthalene-2-carboxylate
> <PUBCHEM_IUPAC_NAME>
methyl 6-hydroxy-1,2,3,4,4a,5,6,7,8,8a-decahydronaphthalene-2-carboxylate
> <PUBCHEM_IUPAC_SYSTEMATIC_NAME>
methyl 6-oxidanyl-1,2,3,4,4a,5,6,7,8,8a-decahydronaphthalene-2-carboxylate
> <PUBCHEM_IUPAC_TRADITIONAL_NAME>
6-hydroxydecalin-2-carboxylic acid methyl ester
> <PUBCHEM_IUPAC_INCHI>
InChI=1S/C12H20O3/c1-15-12(14)10-3-2-9-7-11(13)5-4-8(9)6-10/h8-11,13H,2-7H2,1H3
> <PUBCHEM_IUPAC_INCHIKEY>
WDHAHCIDYFOARH-UHFFFAOYSA-N
> <PUBCHEM_XLOGP3_AA>
1.9
> <PUBCHEM_EXACT_MASS>
212.14124450
> <PUBCHEM_MOLECULAR_FORMULA>
C12H20O3
> <PUBCHEM_MOLECULAR_WEIGHT>
212.28
> <PUBCHEM_OPENEYE_CAN_SMILES>
COC(=O)C1CCC2CC(CCC2C1)O
> <PUBCHEM_OPENEYE_ISO_SMILES>
COC(=O)C1CCC2CC(CCC2C1)O
> <PUBCHEM_CACTVS_TPSA>
46.5
> <PUBCHEM_MONOISOTOPIC_WEIGHT>
212.14124450
> <PUBCHEM_TOTAL_CHARGE>
0
> <PUBCHEM_HEAVY_ATOM_COUNT>
15
> <PUBCHEM_ATOM_DEF_STEREO_COUNT>
0
> <PUBCHEM_ATOM_UDEF_STEREO_COUNT>
4
> <PUBCHEM_BOND_DEF_STEREO_COUNT>
0
> <PUBCHEM_BOND_UDEF_STEREO_COUNT>
0
> <PUBCHEM_ISOTOPIC_ATOM_COUNT>
0
> <PUBCHEM_COMPONENT_COUNT>
1
> <PUBCHEM_CACTVS_TAUTO_COUNT>
-1
> <PUBCHEM_COORDINATE_TYPE>
1
5
255
> <PUBCHEM_BONDANNOTATIONS>
12  1  3
10  14  3
4  9  3
5  7  3
$$$$
