524501
  -OEChem-10302200292D
 24 25  0     1  0  0  0  0  0999 V2000
    4.6783   -1.0884    0.0000 N   0  0  0  0  0  0  0  0  0  0  0  0
    4.6783    0.5210    0.0000 C   0  0  3  0  0  0  0  0  0  0  0  0
    5.2619   -0.2837    0.0000 C   0  0  0  0  0  0  0  0  0  0  0  0
    3.7320    0.2163    0.0000 C   0  0  0  0  0  0  0  0  0  0  0  0
    4.9889    1.4715    0.0000 C   0  0  0  0  0  0  0  0  0  0  0  0
    3.7320   -0.7837    0.0000 C   0  0  0  0  0  0  0  0  0  0  0  0
    2.8660    0.7163    0.0000 C   0  0  0  0  0  0  0  0  0  0  0  0
    5.9674    1.6778    0.0000 C   0  0  0  0  0  0  0  0  0  0  0  0
    2.8660   -1.2837    0.0000 C   0  0  0  0  0  0  0  0  0  0  0  0
    2.0000    0.2163    0.0000 C   0  0  0  0  0  0  0  0  0  0  0  0
    2.0000   -0.7837    0.0000 C   0  0  0  0  0  0  0  0  0  0  0  0
    5.2908    0.6172    0.0000 H   0  0  0  0  0  0  0  0  0  0  0  0
    5.7227   -0.6984    0.0000 H   0  0  0  0  0  0  0  0  0  0  0  0
    5.7227    0.1310    0.0000 H   0  0  0  0  0  0  0  0  0  0  0  0
    4.9684    2.0912    0.0000 H   0  0  0  0  0  0  0  0  0  0  0  0
    4.3751    1.5589    0.0000 H   0  0  0  0  0  0  0  0  0  0  0  0
    4.8709   -1.6778    0.0000 H   0  0  0  0  0  0  0  0  0  0  0  0
    2.8660    1.3363    0.0000 H   0  0  0  0  0  0  0  0  0  0  0  0
    6.0953    1.0711    0.0000 H   0  0  0  0  0  0  0  0  0  0  0  0
    6.5741    1.8056    0.0000 H   0  0  0  0  0  0  0  0  0  0  0  0
    5.8396    2.2844    0.0000 H   0  0  0  0  0  0  0  0  0  0  0  0
    2.8660   -1.9037    0.0000 H   0  0  0  0  0  0  0  0  0  0  0  0
    1.4631    0.5263    0.0000 H   0  0  0  0  0  0  0  0  0  0  0  0
    1.4631   -1.0937    0.0000 H   0  0  0  0  0  0  0  0  0  0  0  0
  1  3  1  0  0  0  0
  1  6  1  0  0  0  0
  1 17  1  0  0  0  0
  2  3  1  0  0  0  0
  2  4  1  0  0  0  0
  2  5  1  0  0  0  0
  2 12  1  0  0  0  0
  3 13  1  0  0  0  0
  3 14  1  0  0  0  0
  4  6  1  0  0  0  0
  4  7  2  0  0  0  0
  5  8  1  0  0  0  0
  5 15  1  0  0  0  0
  5 16  1  0  0  0  0
  6  9  2  0  0  0  0
  7 10  1  0  0  0  0
  7 18  1  0  0  0  0
  8 19  1  0  0  0  0
  8 20  1  0  0  0  0
  8 21  1  0  0  0  0
  9 11  1  0  0  0  0
  9 22  1  0  0  0  0
 10 11  2  0  0  0  0
 10 23  1  0  0  0  0
 11 24  1  0  0  0  0
M  END
> <PUBCHEM_COMPOUND_CID>
524501
> <PUBCHEM_COMPOUND_CANONICALIZED>
1
> <PUBCHEM_CACTVS_COMPLEXITY>
133
> <PUBCHEM_CACTVS_HBOND_ACCEPTOR>
1
> <PUBCHEM_CACTVS_HBOND_DONOR>
1
> <PUBCHEM_CACTVS_ROTATABLE_BOND>
1
> <PUBCHEM_CACTVS_SUBSKEYS>
AAADccByAAAAAAAAAAAAAAAAAAAAAWAAAAAwAAAAAAAAAFgBAAAAHAAQAAAADQjBGAQywILAAACAAiRCQACCAAAhAgAIiIAIZIgIICLAkZGEIAhgkADIyAcQgMAOgAAAAAACAAAAAAAAAAQAAAAAAAAAAA==
> <PUBCHEM_IUPAC_OPENEYE_NAME>
3-ethylindoline
> <PUBCHEM_IUPAC_CAS_NAME>
3-ethyl-2,3-dihydro-1H-indole
> <PUBCHEM_IUPAC_NAME_MARKUP>
3-ethyl-2,3-dihydro-1<I>H</I>-indole
> <PUBCHEM_IUPAC_NAME>
3-ethyl-2,3-dihydro-1H-indole
> <PUBCHEM_IUPAC_SYSTEMATIC_NAME>
3-ethyl-2,3-dihydro-1H-indole
> <PUBCHEM_IUPAC_TRADITIONAL_NAME>
3-ethylindoline
> <PUBCHEM_IUPAC_INCHI>
InChI=1S/C10H13N/c1-2-8-7-11-10-6-4-3-5-9(8)10/h3-6,8,11H,2,7H2,1H3
> <PUBCHEM_IUPAC_INCHIKEY>
AYIYBBZENMJOER-UHFFFAOYSA-N
> <PUBCHEM_XLOGP3_AA>
2.6
> <PUBCHEM_EXACT_MASS>
147.104799419
> <PUBCHEM_MOLECULAR_FORMULA>
C10H13N
> <PUBCHEM_MOLECULAR_WEIGHT>
147.22
> <PUBCHEM_OPENEYE_CAN_SMILES>
CCC1CNC2=CC=CC=C12
> <PUBCHEM_OPENEYE_ISO_SMILES>
CCC1CNC2=CC=CC=C12
> <PUBCHEM_CACTVS_TPSA>
12
> <PUBCHEM_MONOISOTOPIC_WEIGHT>
147.104799419
> <PUBCHEM_TOTAL_CHARGE>
0
> <PUBCHEM_HEAVY_ATOM_COUNT>
11
> <PUBCHEM_ATOM_DEF_STEREO_COUNT>
0
> <PUBCHEM_ATOM_UDEF_STEREO_COUNT>
1
> <PUBCHEM_BOND_DEF_STEREO_COUNT>
0
> <PUBCHEM_BOND_UDEF_STEREO_COUNT>
0
> <PUBCHEM_ISOTOPIC_ATOM_COUNT>
0
> <PUBCHEM_COMPONENT_COUNT>
1
> <PUBCHEM_CACTVS_TAUTO_COUNT>
-1
> <PUBCHEM_COORDINATE_TYPE>
1
5
255
> <PUBCHEM_BONDANNOTATIONS>
10  11  8
2  5  3
4  6  8
4  7  8
6  9  8
7  10  8
9  11  8
$$$$
