524590
  -OEChem-10302200292D
 26 25  0     1  0  0  0  0  0999 V2000
    4.2690   -0.2685    0.0000 C   0  0  3  0  0  0  0  0  0  0  0  0
    5.1350    0.2315    0.0000 C   0  0  0  0  0  0  0  0  0  0  0  0
    6.0010   -0.2685    0.0000 C   0  0  0  0  0  0  0  0  0  0  0  0
    3.4030    0.2315    0.0000 C   0  0  0  0  0  0  0  0  0  0  0  0
    4.2690   -1.2685    0.0000 C   0  0  0  0  0  0  0  0  0  0  0  0
    6.8671    0.2315    0.0000 C   0  0  0  0  0  0  0  0  0  0  0  0
    2.5369    0.7315    0.0000 C   0  0  0  0  0  0  0  0  0  0  0  0
    7.7331   -0.2685    0.0000 C   0  0  0  0  0  0  0  0  0  0  0  0
    4.8059   -0.5785    0.0000 H   0  0  0  0  0  0  0  0  0  0  0  0
    5.5335    0.7065    0.0000 H   0  0  0  0  0  0  0  0  0  0  0  0
    4.7365    0.7065    0.0000 H   0  0  0  0  0  0  0  0  0  0  0  0
    5.6025   -0.7434    0.0000 H   0  0  0  0  0  0  0  0  0  0  0  0
    6.3996   -0.7434    0.0000 H   0  0  0  0  0  0  0  0  0  0  0  0
    3.0930   -0.3054    0.0000 H   1  0  0  0  0  0  0  0  0  0  0  0
    3.7130    0.7685    0.0000 H   1  0  0  0  0  0  0  0  0  0  0  0
    3.6490   -1.2685    0.0000 H   0  0  0  0  0  0  0  0  0  0  0  0
    4.2690   -1.8885    0.0000 H   0  0  0  0  0  0  0  0  0  0  0  0
    4.8890   -1.2685    0.0000 H   0  0  0  0  0  0  0  0  0  0  0  0
    7.2656    0.7065    0.0000 H   0  0  0  0  0  0  0  0  0  0  0  0
    6.4685    0.7065    0.0000 H   0  0  0  0  0  0  0  0  0  0  0  0
    2.0000    1.0415    0.0000 H   1  0  0  0  0  0  0  0  0  0  0  0
    2.2269    0.1946    0.0000 H   1  0  0  0  0  0  0  0  0  0  0  0
    2.8469    1.2685    0.0000 H   1  0  0  0  0  0  0  0  0  0  0  0
    7.4231   -0.8054    0.0000 H   0  0  0  0  0  0  0  0  0  0  0  0
    8.2700   -0.5785    0.0000 H   0  0  0  0  0  0  0  0  0  0  0  0
    8.0431    0.2685    0.0000 H   0  0  0  0  0  0  0  0  0  0  0  0
  1  2  1  0  0  0  0
  1  4  1  0  0  0  0
  1  5  1  0  0  0  0
  1  9  1  0  0  0  0
  2  3  1  0  0  0  0
  2 10  1  0  0  0  0
  2 11  1  0  0  0  0
  3  6  1  0  0  0  0
  3 12  1  0  0  0  0
  3 13  1  0  0  0  0
  4  7  1  0  0  0  0
  4 14  1  0  0  0  0
  4 15  1  0  0  0  0
  5 16  1  0  0  0  0
  5 17  1  0  0  0  0
  5 18  1  0  0  0  0
  6  8  1  0  0  0  0
  6 19  1  0  0  0  0
  6 20  1  0  0  0  0
  7 21  1  0  0  0  0
  7 22  1  0  0  0  0
  7 23  1  0  0  0  0
  8 24  1  0  0  0  0
  8 25  1  0  0  0  0
  8 26  1  0  0  0  0
M  ISO  5  14   2  15   2  21   2  22   2  23   2
M  END
> <PUBCHEM_COMPOUND_CID>
524590
> <PUBCHEM_COMPOUND_CANONICALIZED>
1
> <PUBCHEM_CACTVS_COMPLEXITY>
39.3
> <PUBCHEM_CACTVS_HBOND_ACCEPTOR>
0
> <PUBCHEM_CACTVS_HBOND_DONOR>
0
> <PUBCHEM_CACTVS_ROTATABLE_BOND>
4
> <PUBCHEM_CACTVS_SUBSKEYS>
AAADceBwAAAAAAAAAAAAAAAAAAAAAAAAAAAAAAAAAAAAAAAAAAAAGAAAAAAADQCAAAACAAAAAAAAAAAAAAAAAAAAAAAAAAAAAAAAAAIAAAAAAAAAAAAAAAEAgAAOAAAAAAAAAAAAAAAAAAAAAAAAAAAAAA==
> <PUBCHEM_IUPAC_OPENEYE_NAME>
1,1,1,2,2-pentadeuterio-3-methyl-heptane
> <PUBCHEM_IUPAC_CAS_NAME>
1,1,1,2,2-pentadeuterio-3-methylheptane
> <PUBCHEM_IUPAC_NAME_MARKUP>
1,1,1,2,2-pentadeuterio-3-methylheptane
> <PUBCHEM_IUPAC_NAME>
1,1,1,2,2-pentadeuterio-3-methylheptane
> <PUBCHEM_IUPAC_SYSTEMATIC_NAME>
1,1,1,2,2-pentadeuterio-3-methyl-heptane
> <PUBCHEM_IUPAC_TRADITIONAL_NAME>
1,1,1,2,2-pentadeuterio-3-methyl-heptane
> <PUBCHEM_IUPAC_INCHI>
InChI=1S/C8H18/c1-4-6-7-8(3)5-2/h8H,4-7H2,1-3H3/i2D3,5D2
> <PUBCHEM_IUPAC_INCHIKEY>
LAIUFBWHERIJIH-ZTIZGVCASA-N
> <PUBCHEM_XLOGP3_AA>
4.3
> <PUBCHEM_EXACT_MASS>
119.172234304
> <PUBCHEM_MOLECULAR_FORMULA>
C8H18
> <PUBCHEM_MOLECULAR_WEIGHT>
119.26
> <PUBCHEM_OPENEYE_CAN_SMILES>
CCCCC(C)CC
> <PUBCHEM_OPENEYE_ISO_SMILES>
[2H]C([2H])([2H])C([2H])([2H])C(C)CCCC
> <PUBCHEM_CACTVS_TPSA>
0
> <PUBCHEM_MONOISOTOPIC_WEIGHT>
119.172234304
> <PUBCHEM_TOTAL_CHARGE>
0
> <PUBCHEM_HEAVY_ATOM_COUNT>
8
> <PUBCHEM_ATOM_DEF_STEREO_COUNT>
0
> <PUBCHEM_ATOM_UDEF_STEREO_COUNT>
1
> <PUBCHEM_BOND_DEF_STEREO_COUNT>
0
> <PUBCHEM_BOND_UDEF_STEREO_COUNT>
0
> <PUBCHEM_ISOTOPIC_ATOM_COUNT>
5
> <PUBCHEM_COMPONENT_COUNT>
1
> <PUBCHEM_CACTVS_TAUTO_COUNT>
-1
> <PUBCHEM_COORDINATE_TYPE>
1
5
255
> <PUBCHEM_BONDANNOTATIONS>
1  5  3
$$$$
