524504
  -OEChem-10302200292D
 21 22  0     1  0  0  0  0  0999 V2000
    4.6783   -0.9853    0.0000 N   0  0  0  0  0  0  0  0  0  0  0  0
    4.6783    0.6241    0.0000 C   0  0  3  0  0  0  0  0  0  0  0  0
    5.2619   -0.1806    0.0000 C   0  0  0  0  0  0  0  0  0  0  0  0
    3.7320    0.3194    0.0000 C   0  0  0  0  0  0  0  0  0  0  0  0
    3.7320   -0.6806    0.0000 C   0  0  0  0  0  0  0  0  0  0  0  0
    4.9889    1.5747    0.0000 C   0  0  0  0  0  0  0  0  0  0  0  0
    2.8660    0.8194    0.0000 C   0  0  0  0  0  0  0  0  0  0  0  0
    2.8660   -1.1806    0.0000 C   0  0  0  0  0  0  0  0  0  0  0  0
    2.0000    0.3194    0.0000 C   0  0  0  0  0  0  0  0  0  0  0  0
    2.0000   -0.6806    0.0000 C   0  0  0  0  0  0  0  0  0  0  0  0
    5.2908    0.7203    0.0000 H   0  0  0  0  0  0  0  0  0  0  0  0
    5.7227   -0.5953    0.0000 H   0  0  0  0  0  0  0  0  0  0  0  0
    5.7227    0.2341    0.0000 H   0  0  0  0  0  0  0  0  0  0  0  0
    4.8709   -1.5747    0.0000 H   0  0  0  0  0  0  0  0  0  0  0  0
    5.5783    1.3820    0.0000 H   0  0  0  0  0  0  0  0  0  0  0  0
    5.1815    2.1640    0.0000 H   0  0  0  0  0  0  0  0  0  0  0  0
    4.3996    1.7673    0.0000 H   0  0  0  0  0  0  0  0  0  0  0  0
    2.8660    1.4394    0.0000 H   0  0  0  0  0  0  0  0  0  0  0  0
    2.8660   -1.8006    0.0000 H   0  0  0  0  0  0  0  0  0  0  0  0
    1.4631    0.6294    0.0000 H   0  0  0  0  0  0  0  0  0  0  0  0
    1.4631   -0.9906    0.0000 H   0  0  0  0  0  0  0  0  0  0  0  0
  1  3  1  0  0  0  0
  1  5  1  0  0  0  0
  1 14  1  0  0  0  0
  2  3  1  0  0  0  0
  2  4  1  0  0  0  0
  2  6  1  0  0  0  0
  2 11  1  0  0  0  0
  3 12  1  0  0  0  0
  3 13  1  0  0  0  0
  4  5  1  0  0  0  0
  4  7  2  0  0  0  0
  5  8  2  0  0  0  0
  6 15  1  0  0  0  0
  6 16  1  0  0  0  0
  6 17  1  0  0  0  0
  7  9  1  0  0  0  0
  7 18  1  0  0  0  0
  8 10  1  0  0  0  0
  8 19  1  0  0  0  0
  9 10  2  0  0  0  0
  9 20  1  0  0  0  0
 10 21  1  0  0  0  0
M  END
> <PUBCHEM_COMPOUND_CID>
524504
> <PUBCHEM_COMPOUND_CANONICALIZED>
1
> <PUBCHEM_CACTVS_COMPLEXITY>
122
> <PUBCHEM_CACTVS_HBOND_ACCEPTOR>
1
> <PUBCHEM_CACTVS_HBOND_DONOR>
1
> <PUBCHEM_CACTVS_ROTATABLE_BOND>
0
> <PUBCHEM_CACTVS_SUBSKEYS>
AAADccByAAAAAAAAAAAAAAAAAAAAAWAAAAAwAAAAAAAAAFgBAAAAHAAQAAAADQjBGAQywILAAACAAiRCQACCAAAhAgAIiIAIZIgIICLAkZGEIAhgkADIyAcQgMAOgAAAAAACAAAAAAAAAAQAAAAAAAAAAA==
> <PUBCHEM_IUPAC_OPENEYE_NAME>
3-methylindoline
> <PUBCHEM_IUPAC_CAS_NAME>
3-methyl-2,3-dihydro-1H-indole
> <PUBCHEM_IUPAC_NAME_MARKUP>
3-methyl-2,3-dihydro-1<I>H</I>-indole
> <PUBCHEM_IUPAC_NAME>
3-methyl-2,3-dihydro-1H-indole
> <PUBCHEM_IUPAC_SYSTEMATIC_NAME>
3-methyl-2,3-dihydro-1H-indole
> <PUBCHEM_IUPAC_TRADITIONAL_NAME>
3-methylindoline
> <PUBCHEM_IUPAC_INCHI>
InChI=1S/C9H11N/c1-7-6-10-9-5-3-2-4-8(7)9/h2-5,7,10H,6H2,1H3
> <PUBCHEM_IUPAC_INCHIKEY>
BFQARNDIMKOOQQ-UHFFFAOYSA-N
> <PUBCHEM_XLOGP3_AA>
2.3
> <PUBCHEM_EXACT_MASS>
133.089149355
> <PUBCHEM_MOLECULAR_FORMULA>
C9H11N
> <PUBCHEM_MOLECULAR_WEIGHT>
133.19
> <PUBCHEM_OPENEYE_CAN_SMILES>
CC1CNC2=CC=CC=C12
> <PUBCHEM_OPENEYE_ISO_SMILES>
CC1CNC2=CC=CC=C12
> <PUBCHEM_CACTVS_TPSA>
12
> <PUBCHEM_MONOISOTOPIC_WEIGHT>
133.089149355
> <PUBCHEM_TOTAL_CHARGE>
0
> <PUBCHEM_HEAVY_ATOM_COUNT>
10
> <PUBCHEM_ATOM_DEF_STEREO_COUNT>
0
> <PUBCHEM_ATOM_UDEF_STEREO_COUNT>
1
> <PUBCHEM_BOND_DEF_STEREO_COUNT>
0
> <PUBCHEM_BOND_UDEF_STEREO_COUNT>
0
> <PUBCHEM_ISOTOPIC_ATOM_COUNT>
0
> <PUBCHEM_COMPONENT_COUNT>
1
> <PUBCHEM_CACTVS_TAUTO_COUNT>
-1
> <PUBCHEM_COORDINATE_TYPE>
1
5
255
> <PUBCHEM_BONDANNOTATIONS>
2  6  3
4  5  8
4  7  8
5  8  8
7  9  8
8  10  8
9  10  8
$$$$
