524517
  -OEChem-10302200292D
 26 27  0     1  0  0  0  0  0999 V2000
    4.2320    2.3730    0.0000 O   0  0  0  0  0  0  0  0  0  0  0  0
    2.8660    0.0070    0.0000 C   0  0  3  0  0  0  0  0  0  0  0  0
    3.3660    0.8730    0.0000 C   0  0  3  0  0  0  0  0  0  0  0  0
    3.8660    0.0070    0.0000 C   0  0  0  0  0  0  0  0  0  0  0  0
    2.0000    0.5070    0.0000 C   0  0  0  0  0  0  0  0  0  0  0  0
    2.8660   -0.9930    0.0000 C   0  0  0  0  0  0  0  0  0  0  0  0
    3.3660    1.8730    0.0000 C   0  0  0  0  0  0  0  0  0  0  0  0
    2.0000   -1.4930    0.0000 C   0  0  0  0  0  0  0  0  0  0  0  0
    3.7320   -1.4930    0.0000 C   0  0  0  0  0  0  0  0  0  0  0  0
    2.0000   -2.4930    0.0000 C   0  0  0  0  0  0  0  0  0  0  0  0
    3.7320   -2.4930    0.0000 C   0  0  0  0  0  0  0  0  0  0  0  0
    2.8660   -2.9930    0.0000 C   0  0  0  0  0  0  0  0  0  0  0  0
    3.9649    1.0335    0.0000 H   0  0  0  0  0  0  0  0  0  0  0  0
    3.9737   -0.6036    0.0000 H   0  0  0  0  0  0  0  0  0  0  0  0
    4.4486    0.2190    0.0000 H   0  0  0  0  0  0  0  0  0  0  0  0
    2.3100    1.0439    0.0000 H   0  0  0  0  0  0  0  0  0  0  0  0
    1.4631    0.8170    0.0000 H   0  0  0  0  0  0  0  0  0  0  0  0
    1.6900   -0.0299    0.0000 H   0  0  0  0  0  0  0  0  0  0  0  0
    3.1540    2.4556    0.0000 H   0  0  0  0  0  0  0  0  0  0  0  0
    2.7554    1.7654    0.0000 H   0  0  0  0  0  0  0  0  0  0  0  0
    1.4631   -1.1830    0.0000 H   0  0  0  0  0  0  0  0  0  0  0  0
    4.2690   -1.1830    0.0000 H   0  0  0  0  0  0  0  0  0  0  0  0
    4.2320    2.9930    0.0000 H   0  0  0  0  0  0  0  0  0  0  0  0
    1.4631   -2.8030    0.0000 H   0  0  0  0  0  0  0  0  0  0  0  0
    4.2690   -2.8030    0.0000 H   0  0  0  0  0  0  0  0  0  0  0  0
    2.8660   -3.6130    0.0000 H   0  0  0  0  0  0  0  0  0  0  0  0
  1  7  1  0  0  0  0
  1 23  1  0  0  0  0
  2  3  1  0  0  0  0
  2  4  1  0  0  0  0
  2  5  1  0  0  0  0
  2  6  1  0  0  0  0
  3  4  1  0  0  0  0
  3  7  1  0  0  0  0
  3 13  1  0  0  0  0
  4 14  1  0  0  0  0
  4 15  1  0  0  0  0
  5 16  1  0  0  0  0
  5 17  1  0  0  0  0
  5 18  1  0  0  0  0
  6  8  2  0  0  0  0
  6  9  1  0  0  0  0
  7 19  1  0  0  0  0
  7 20  1  0  0  0  0
  8 10  1  0  0  0  0
  8 21  1  0  0  0  0
  9 11  2  0  0  0  0
  9 22  1  0  0  0  0
 10 12  2  0  0  0  0
 10 24  1  0  0  0  0
 11 12  1  0  0  0  0
 11 25  1  0  0  0  0
 12 26  1  0  0  0  0
M  END
> <PUBCHEM_COMPOUND_CID>
524517
> <PUBCHEM_COMPOUND_CANONICALIZED>
1
> <PUBCHEM_CACTVS_COMPLEXITY>
160
> <PUBCHEM_CACTVS_HBOND_ACCEPTOR>
1
> <PUBCHEM_CACTVS_HBOND_DONOR>
1
> <PUBCHEM_CACTVS_ROTATABLE_BOND>
2
> <PUBCHEM_CACTVS_SUBSKEYS>
AAADccBwIAAAAAAAAAAAAAAAGAAAAAAAAAAwAAAAAAAAAAABAAAAGgAACAAADwCgmAIyAIAAAgCAAiBCAAACAAAgAAAIiAAAAIgIMCKAERCAYAAkgAAIiAeAwPAPgAAAAAAAAAAAAAAAAAAAAAAAAAAAAA==
> <PUBCHEM_IUPAC_OPENEYE_NAME>
(2-methyl-2-phenyl-cyclopropyl)methanol
> <PUBCHEM_IUPAC_CAS_NAME>
(2-methyl-2-phenylcyclopropyl)methanol
> <PUBCHEM_IUPAC_NAME_MARKUP>
(2-methyl-2-phenylcyclopropyl)methanol
> <PUBCHEM_IUPAC_NAME>
(2-methyl-2-phenylcyclopropyl)methanol
> <PUBCHEM_IUPAC_SYSTEMATIC_NAME>
(2-methyl-2-phenyl-cyclopropyl)methanol
> <PUBCHEM_IUPAC_TRADITIONAL_NAME>
(2-methyl-2-phenyl-cyclopropyl)methanol
> <PUBCHEM_IUPAC_INCHI>
InChI=1S/C11H14O/c1-11(7-10(11)8-12)9-5-3-2-4-6-9/h2-6,10,12H,7-8H2,1H3
> <PUBCHEM_IUPAC_INCHIKEY>
UHQXBASRPLGYEL-UHFFFAOYSA-N
> <PUBCHEM_XLOGP3_AA>
2.2
> <PUBCHEM_EXACT_MASS>
162.104465066
> <PUBCHEM_MOLECULAR_FORMULA>
C11H14O
> <PUBCHEM_MOLECULAR_WEIGHT>
162.23
> <PUBCHEM_OPENEYE_CAN_SMILES>
CC1(CC1CO)C2=CC=CC=C2
> <PUBCHEM_OPENEYE_ISO_SMILES>
CC1(CC1CO)C2=CC=CC=C2
> <PUBCHEM_CACTVS_TPSA>
20.2
> <PUBCHEM_MONOISOTOPIC_WEIGHT>
162.104465066
> <PUBCHEM_TOTAL_CHARGE>
0
> <PUBCHEM_HEAVY_ATOM_COUNT>
12
> <PUBCHEM_ATOM_DEF_STEREO_COUNT>
0
> <PUBCHEM_ATOM_UDEF_STEREO_COUNT>
2
> <PUBCHEM_BOND_DEF_STEREO_COUNT>
0
> <PUBCHEM_BOND_UDEF_STEREO_COUNT>
0
> <PUBCHEM_ISOTOPIC_ATOM_COUNT>
0
> <PUBCHEM_COMPONENT_COUNT>
1
> <PUBCHEM_CACTVS_TAUTO_COUNT>
-1
> <PUBCHEM_COORDINATE_TYPE>
1
5
255
> <PUBCHEM_BONDANNOTATIONS>
10  12  8
11  12  8
2  5  3
3  7  3
6  8  8
6  9  8
8  10  8
9  11  8
$$$$
