524526
  -OEChem-10302200292D
 28 29  0     1  0  0  0  0  0999 V2000
    4.2320    2.1830    0.0000 O   0  0  0  0  0  0  0  0  0  0  0  0
    2.5000    2.1830    0.0000 O   0  0  0  0  0  0  0  0  0  0  0  0
    2.8660   -0.1830    0.0000 C   0  0  3  0  0  0  0  0  0  0  0  0
    3.3660    0.6830    0.0000 C   0  0  3  0  0  0  0  0  0  0  0  0
    3.8660   -0.1830    0.0000 C   0  0  0  0  0  0  0  0  0  0  0  0
    2.0000    0.3170    0.0000 C   0  0  0  0  0  0  0  0  0  0  0  0
    2.8660   -1.1830    0.0000 C   0  0  0  0  0  0  0  0  0  0  0  0
    3.3660    1.6830    0.0000 C   0  0  0  0  0  0  0  0  0  0  0  0
    3.7320   -1.6830    0.0000 C   0  0  0  0  0  0  0  0  0  0  0  0
    2.0000   -1.6830    0.0000 C   0  0  0  0  0  0  0  0  0  0  0  0
    3.7320   -2.6830    0.0000 C   0  0  0  0  0  0  0  0  0  0  0  0
    2.0000   -2.6830    0.0000 C   0  0  0  0  0  0  0  0  0  0  0  0
    2.8660   -3.1830    0.0000 C   0  0  0  0  0  0  0  0  0  0  0  0
    4.2320    3.1830    0.0000 C   0  0  0  0  0  0  0  0  0  0  0  0
    3.9649    0.8435    0.0000 H   0  0  0  0  0  0  0  0  0  0  0  0
    3.9737   -0.7936    0.0000 H   0  0  0  0  0  0  0  0  0  0  0  0
    4.4486    0.0290    0.0000 H   0  0  0  0  0  0  0  0  0  0  0  0
    2.3100    0.8539    0.0000 H   0  0  0  0  0  0  0  0  0  0  0  0
    1.4631    0.6270    0.0000 H   0  0  0  0  0  0  0  0  0  0  0  0
    1.6900   -0.2199    0.0000 H   0  0  0  0  0  0  0  0  0  0  0  0
    4.2690   -1.3730    0.0000 H   0  0  0  0  0  0  0  0  0  0  0  0
    1.4631   -1.3730    0.0000 H   0  0  0  0  0  0  0  0  0  0  0  0
    4.2690   -2.9930    0.0000 H   0  0  0  0  0  0  0  0  0  0  0  0
    1.4631   -2.9930    0.0000 H   0  0  0  0  0  0  0  0  0  0  0  0
    2.8660   -3.8030    0.0000 H   0  0  0  0  0  0  0  0  0  0  0  0
    4.8520    3.1830    0.0000 H   0  0  0  0  0  0  0  0  0  0  0  0
    4.2320    3.8030    0.0000 H   0  0  0  0  0  0  0  0  0  0  0  0
    3.6120    3.1830    0.0000 H   0  0  0  0  0  0  0  0  0  0  0  0
  1  8  1  0  0  0  0
  1 14  1  0  0  0  0
  2  8  2  0  0  0  0
  3  4  1  0  0  0  0
  3  5  1  0  0  0  0
  3  6  1  0  0  0  0
  3  7  1  0  0  0  0
  4  5  1  0  0  0  0
  4  8  1  0  0  0  0
  4 15  1  0  0  0  0
  5 16  1  0  0  0  0
  5 17  1  0  0  0  0
  6 18  1  0  0  0  0
  6 19  1  0  0  0  0
  6 20  1  0  0  0  0
  7  9  2  0  0  0  0
  7 10  1  0  0  0  0
  9 11  1  0  0  0  0
  9 21  1  0  0  0  0
 10 12  2  0  0  0  0
 10 22  1  0  0  0  0
 11 13  2  0  0  0  0
 11 23  1  0  0  0  0
 12 13  1  0  0  0  0
 12 24  1  0  0  0  0
 13 25  1  0  0  0  0
 14 26  1  0  0  0  0
 14 27  1  0  0  0  0
 14 28  1  0  0  0  0
M  END
> <PUBCHEM_COMPOUND_CID>
524526
> <PUBCHEM_COMPOUND_CANONICALIZED>
1
> <PUBCHEM_CACTVS_COMPLEXITY>
231
> <PUBCHEM_CACTVS_HBOND_ACCEPTOR>
2
> <PUBCHEM_CACTVS_HBOND_DONOR>
0
> <PUBCHEM_CACTVS_ROTATABLE_BOND>
3
> <PUBCHEM_CACTVS_SUBSKEYS>
AAADccBwMAAAAAAAAAAAAAAAGAAAAAAAAAAwAAAAAAAAAAABAAAAGgAAAAAADwCAmAIyCIAABACIAiDSCAACAAAgAAAIiAEAAIgIIDKAERCAIAAkgAAIiAeIyPCPgAAAAAAAAAAAAAAAAAAAAAAAAAAAAA==
> <PUBCHEM_IUPAC_OPENEYE_NAME>
methyl 2-methyl-2-phenyl-cyclopropanecarboxylate
> <PUBCHEM_IUPAC_CAS_NAME>
2-methyl-2-phenyl-1-cyclopropanecarboxylic acid methyl ester
> <PUBCHEM_IUPAC_NAME_MARKUP>
methyl 2-methyl-2-phenylcyclopropane-1-carboxylate
> <PUBCHEM_IUPAC_NAME>
methyl 2-methyl-2-phenylcyclopropane-1-carboxylate
> <PUBCHEM_IUPAC_SYSTEMATIC_NAME>
methyl 2-methyl-2-phenyl-cyclopropane-1-carboxylate
> <PUBCHEM_IUPAC_TRADITIONAL_NAME>
2-methyl-2-phenyl-cyclopropanecarboxylic acid methyl ester
> <PUBCHEM_IUPAC_INCHI>
InChI=1S/C12H14O2/c1-12(8-10(12)11(13)14-2)9-6-4-3-5-7-9/h3-7,10H,8H2,1-2H3
> <PUBCHEM_IUPAC_INCHIKEY>
OTRGRBMQMYBGDZ-UHFFFAOYSA-N
> <PUBCHEM_XLOGP3_AA>
2.5
> <PUBCHEM_EXACT_MASS>
190.099379685
> <PUBCHEM_MOLECULAR_FORMULA>
C12H14O2
> <PUBCHEM_MOLECULAR_WEIGHT>
190.24
> <PUBCHEM_OPENEYE_CAN_SMILES>
CC1(CC1C(=O)OC)C2=CC=CC=C2
> <PUBCHEM_OPENEYE_ISO_SMILES>
CC1(CC1C(=O)OC)C2=CC=CC=C2
> <PUBCHEM_CACTVS_TPSA>
26.3
> <PUBCHEM_MONOISOTOPIC_WEIGHT>
190.099379685
> <PUBCHEM_TOTAL_CHARGE>
0
> <PUBCHEM_HEAVY_ATOM_COUNT>
14
> <PUBCHEM_ATOM_DEF_STEREO_COUNT>
0
> <PUBCHEM_ATOM_UDEF_STEREO_COUNT>
2
> <PUBCHEM_BOND_DEF_STEREO_COUNT>
0
> <PUBCHEM_BOND_UDEF_STEREO_COUNT>
0
> <PUBCHEM_ISOTOPIC_ATOM_COUNT>
0
> <PUBCHEM_COMPONENT_COUNT>
1
> <PUBCHEM_CACTVS_TAUTO_COUNT>
-1
> <PUBCHEM_COORDINATE_TYPE>
1
5
255
> <PUBCHEM_BONDANNOTATIONS>
10  12  8
11  13  8
12  13  8
3  6  3
4  8  3
7  10  8
7  9  8
9  11  8
$$$$
