524662
  -OEChem-10302200292D
 28 29  0     1  0  0  0  0  0999 V2000
    4.3660   -0.2500    0.0000 C   0  0  3  0  0  0  0  0  0  0  0  0
    5.8660    0.6160    0.0000 C   0  0  3  0  0  0  0  0  0  0  0  0
    3.5000   -0.7500    0.0000 C   0  0  3  0  0  0  0  0  0  0  0  0
    5.3660   -0.2500    0.0000 C   0  0  0  0  0  0  0  0  0  0  0  0
    3.5000    0.2500    0.0000 C   0  0  0  0  0  0  0  0  0  0  0  0
    6.7320    1.1160    0.0000 C   0  0  3  0  0  0  0  0  0  0  0  0
    5.8660    1.6160    0.0000 C   0  0  0  0  0  0  0  0  0  0  0  0
    3.0000   -1.6160    0.0000 C   0  0  0  0  0  0  0  0  0  0  0  0
    7.7320    1.1160    0.0000 C   0  0  0  0  0  0  0  0  0  0  0  0
    2.0000   -1.6160    0.0000 C   0  0  0  0  0  0  0  0  0  0  0  0
    4.5265   -0.8489    0.0000 H   0  0  0  0  0  0  0  0  0  0  0  0
    6.3044    0.1776    0.0000 H   0  0  0  0  0  0  0  0  0  0  0  0
    2.9011   -0.5895    0.0000 H   0  0  0  0  0  0  0  0  0  0  0  0
    5.2584   -0.8606    0.0000 H   0  0  0  0  0  0  0  0  0  0  0  0
    5.9486   -0.4621    0.0000 H   0  0  0  0  0  0  0  0  0  0  0  0
    3.7120    0.8326    0.0000 H   0  0  0  0  0  0  0  0  0  0  0  0
    2.8894    0.3577    0.0000 H   0  0  0  0  0  0  0  0  0  0  0  0
    6.8925    1.7149    0.0000 H   0  0  0  0  0  0  0  0  0  0  0  0
    6.0781    2.1986    0.0000 H   0  0  0  0  0  0  0  0  0  0  0  0
    5.2554    1.7237    0.0000 H   0  0  0  0  0  0  0  0  0  0  0  0
    2.8923   -2.2266    0.0000 H   0  0  0  0  0  0  0  0  0  0  0  0
    3.5826   -1.8281    0.0000 H   0  0  0  0  0  0  0  0  0  0  0  0
    7.7320    0.4960    0.0000 H   0  0  0  0  0  0  0  0  0  0  0  0
    8.3520    1.1160    0.0000 H   0  0  0  0  0  0  0  0  0  0  0  0
    7.7320    1.7360    0.0000 H   0  0  0  0  0  0  0  0  0  0  0  0
    2.0000   -0.9960    0.0000 H   0  0  0  0  0  0  0  0  0  0  0  0
    1.3800   -1.6160    0.0000 H   0  0  0  0  0  0  0  0  0  0  0  0
    2.0000   -2.2360    0.0000 H   0  0  0  0  0  0  0  0  0  0  0  0
  1  3  1  0  0  0  0
  1  4  1  0  0  0  0
  1  5  1  0  0  0  0
  1 11  1  0  0  0  0
  2  4  1  0  0  0  0
  2  6  1  0  0  0  0
  2  7  1  0  0  0  0
  2 12  1  0  0  0  0
  3  5  1  0  0  0  0
  3  8  1  0  0  0  0
  3 13  1  0  0  0  0
  4 14  1  0  0  0  0
  4 15  1  0  0  0  0
  5 16  1  0  0  0  0
  5 17  1  0  0  0  0
  6  7  1  0  0  0  0
  6  9  1  0  0  0  0
  6 18  1  0  0  0  0
  7 19  1  0  0  0  0
  7 20  1  0  0  0  0
  8 10  1  0  0  0  0
  8 21  1  0  0  0  0
  8 22  1  0  0  0  0
  9 23  1  0  0  0  0
  9 24  1  0  0  0  0
  9 25  1  0  0  0  0
 10 26  1  0  0  0  0
 10 27  1  0  0  0  0
 10 28  1  0  0  0  0
M  END
> <PUBCHEM_COMPOUND_CID>
524662
> <PUBCHEM_COMPOUND_CANONICALIZED>
1
> <PUBCHEM_CACTVS_COMPLEXITY>
128
> <PUBCHEM_CACTVS_HBOND_ACCEPTOR>
0
> <PUBCHEM_CACTVS_HBOND_DONOR>
0
> <PUBCHEM_CACTVS_ROTATABLE_BOND>
3
> <PUBCHEM_CACTVS_SUBSKEYS>
AAADceBwAAAAAAAAAAAAAAAAGDAAAAAAAAAAAAAAAAAAAAAAAAAAGAAAAAAADQCAAAACAAAAAAAAAAAAAAAAAAAAAAAAAAAAAAAAAAIAAAAAAAAAAAAAAAEAgMAOAAAAAAAAAAAAAAAAAAAAAAAAAAAAAA==
> <PUBCHEM_IUPAC_OPENEYE_NAME>
1-ethyl-2-[(2-methylcyclopropyl)methyl]cyclopropane
> <PUBCHEM_IUPAC_CAS_NAME>
1-ethyl-2-[(2-methylcyclopropyl)methyl]cyclopropane
> <PUBCHEM_IUPAC_NAME_MARKUP>
1-ethyl-2-[(2-methylcyclopropyl)methyl]cyclopropane
> <PUBCHEM_IUPAC_NAME>
1-ethyl-2-[(2-methylcyclopropyl)methyl]cyclopropane
> <PUBCHEM_IUPAC_SYSTEMATIC_NAME>
1-ethyl-2-[(2-methylcyclopropyl)methyl]cyclopropane
> <PUBCHEM_IUPAC_TRADITIONAL_NAME>
1-ethyl-2-[(2-methylcyclopropyl)methyl]cyclopropane
> <PUBCHEM_IUPAC_INCHI>
InChI=1S/C10H18/c1-3-8-5-10(8)6-9-4-7(9)2/h7-10H,3-6H2,1-2H3
> <PUBCHEM_IUPAC_INCHIKEY>
NNLXSQDELUKGAI-UHFFFAOYSA-N
> <PUBCHEM_XLOGP3_AA>
4
> <PUBCHEM_EXACT_MASS>
138.140850574
> <PUBCHEM_MOLECULAR_FORMULA>
C10H18
> <PUBCHEM_MOLECULAR_WEIGHT>
138.25
> <PUBCHEM_OPENEYE_CAN_SMILES>
CCC1CC1CC2CC2C
> <PUBCHEM_OPENEYE_ISO_SMILES>
CCC1CC1CC2CC2C
> <PUBCHEM_CACTVS_TPSA>
0
> <PUBCHEM_MONOISOTOPIC_WEIGHT>
138.140850574
> <PUBCHEM_TOTAL_CHARGE>
0
> <PUBCHEM_HEAVY_ATOM_COUNT>
10
> <PUBCHEM_ATOM_DEF_STEREO_COUNT>
0
> <PUBCHEM_ATOM_UDEF_STEREO_COUNT>
4
> <PUBCHEM_BOND_DEF_STEREO_COUNT>
0
> <PUBCHEM_BOND_UDEF_STEREO_COUNT>
0
> <PUBCHEM_ISOTOPIC_ATOM_COUNT>
0
> <PUBCHEM_COMPONENT_COUNT>
1
> <PUBCHEM_CACTVS_TAUTO_COUNT>
-1
> <PUBCHEM_COORDINATE_TYPE>
1
5
255
> <PUBCHEM_BONDANNOTATIONS>
1  4  3
2  4  3
3  8  3
6  9  3
$$$$
