524665
  -OEChem-10302200292D
 39 39  0     1  0  0  0  0  0999 V2000
    4.8660    0.8660    0.0000 C   0  0  3  0  0  0  0  0  0  0  0  0
    4.0000    0.3660    0.0000 C   0  0  3  0  0  0  0  0  0  0  0  0
    4.0000    1.3660    0.0000 C   0  0  0  0  0  0  0  0  0  0  0  0
    5.3660    0.0000    0.0000 C   0  0  0  0  0  0  0  0  0  0  0  0
    3.5000   -0.5000    0.0000 C   0  0  0  0  0  0  0  0  0  0  0  0
    5.3660    1.7320    0.0000 C   0  0  0  0  0  0  0  0  0  0  0  0
    6.3660    0.0000    0.0000 C   0  0  0  0  0  0  0  0  0  0  0  0
    2.5000   -0.5000    0.0000 C   0  0  0  0  0  0  0  0  0  0  0  0
    6.8660   -0.8660    0.0000 C   0  0  0  0  0  0  0  0  0  0  0  0
    2.0000   -1.3660    0.0000 C   0  0  0  0  0  0  0  0  0  0  0  0
    7.8660   -0.8660    0.0000 C   0  0  0  0  0  0  0  0  0  0  0  0
    8.3660   -1.7320    0.0000 C   0  0  0  0  0  0  0  0  0  0  0  0
    9.3660   -1.7320    0.0000 C   0  0  0  0  0  0  0  0  0  0  0  0
    3.4011    0.5265    0.0000 H   0  0  0  0  0  0  0  0  0  0  0  0
    4.2120    1.9486    0.0000 H   0  0  0  0  0  0  0  0  0  0  0  0
    3.3894    1.4737    0.0000 H   0  0  0  0  0  0  0  0  0  0  0  0
    4.7834   -0.2121    0.0000 H   0  0  0  0  0  0  0  0  0  0  0  0
    5.4737   -0.6106    0.0000 H   0  0  0  0  0  0  0  0  0  0  0  0
    3.3923   -1.1106    0.0000 H   0  0  0  0  0  0  0  0  0  0  0  0
    4.0826   -0.7121    0.0000 H   0  0  0  0  0  0  0  0  0  0  0  0
    5.9030    1.4220    0.0000 H   0  0  0  0  0  0  0  0  0  0  0  0
    5.6760    2.2690    0.0000 H   0  0  0  0  0  0  0  0  0  0  0  0
    4.8291    2.0420    0.0000 H   0  0  0  0  0  0  0  0  0  0  0  0
    6.9486    0.2121    0.0000 H   0  0  0  0  0  0  0  0  0  0  0  0
    6.2584    0.6106    0.0000 H   0  0  0  0  0  0  0  0  0  0  0  0
    2.6077    0.1106    0.0000 H   0  0  0  0  0  0  0  0  0  0  0  0
    1.9174   -0.2879    0.0000 H   0  0  0  0  0  0  0  0  0  0  0  0
    6.2834   -1.0781    0.0000 H   0  0  0  0  0  0  0  0  0  0  0  0
    6.9737   -1.4766    0.0000 H   0  0  0  0  0  0  0  0  0  0  0  0
    1.4631   -1.0560    0.0000 H   0  0  0  0  0  0  0  0  0  0  0  0
    1.6900   -1.9030    0.0000 H   0  0  0  0  0  0  0  0  0  0  0  0
    2.5369   -1.6760    0.0000 H   0  0  0  0  0  0  0  0  0  0  0  0
    8.4486   -0.6540    0.0000 H   0  0  0  0  0  0  0  0  0  0  0  0
    7.7584   -0.2554    0.0000 H   0  0  0  0  0  0  0  0  0  0  0  0
    7.7834   -1.9441    0.0000 H   0  0  0  0  0  0  0  0  0  0  0  0
    8.4737   -2.3426    0.0000 H   0  0  0  0  0  0  0  0  0  0  0  0
    9.3660   -2.3521    0.0000 H   0  0  0  0  0  0  0  0  0  0  0  0
    9.9860   -1.7320    0.0000 H   0  0  0  0  0  0  0  0  0  0  0  0
    9.3660   -1.1120    0.0000 H   0  0  0  0  0  0  0  0  0  0  0  0
  1  2  1  0  0  0  0
  1  3  1  0  0  0  0
  1  4  1  0  0  0  0
  1  6  1  0  0  0  0
  2  3  1  0  0  0  0
  2  5  1  0  0  0  0
  2 14  1  0  0  0  0
  3 15  1  0  0  0  0
  3 16  1  0  0  0  0
  4  7  1  0  0  0  0
  4 17  1  0  0  0  0
  4 18  1  0  0  0  0
  5  8  1  0  0  0  0
  5 19  1  0  0  0  0
  5 20  1  0  0  0  0
  6 21  1  0  0  0  0
  6 22  1  0  0  0  0
  6 23  1  0  0  0  0
  7  9  1  0  0  0  0
  7 24  1  0  0  0  0
  7 25  1  0  0  0  0
  8 10  1  0  0  0  0
  8 26  1  0  0  0  0
  8 27  1  0  0  0  0
  9 11  1  0  0  0  0
  9 28  1  0  0  0  0
  9 29  1  0  0  0  0
 10 30  1  0  0  0  0
 10 31  1  0  0  0  0
 10 32  1  0  0  0  0
 11 12  1  0  0  0  0
 11 33  1  0  0  0  0
 11 34  1  0  0  0  0
 12 13  1  0  0  0  0
 12 35  1  0  0  0  0
 12 36  1  0  0  0  0
 13 37  1  0  0  0  0
 13 38  1  0  0  0  0
 13 39  1  0  0  0  0
M  END
> <PUBCHEM_COMPOUND_CID>
524665
> <PUBCHEM_COMPOUND_CANONICALIZED>
1
> <PUBCHEM_CACTVS_COMPLEXITY>
139
> <PUBCHEM_CACTVS_HBOND_ACCEPTOR>
0
> <PUBCHEM_CACTVS_HBOND_DONOR>
0
> <PUBCHEM_CACTVS_ROTATABLE_BOND>
7
> <PUBCHEM_CACTVS_SUBSKEYS>
AAADceBwAAAAAAAAAAAAAAAAGAAAAAAAAAAAAAAAAAAAAAAAAAAAGAAAAAAADwCAAAACAAAAAAAAAAAAAAAAAAAAAAAAAAAAAAAAAAIAAAAAAAAAAAAAAAEAgMAPgAAAAAAAAAAAAAAAAAAAAAAAAAAAAA==
> <PUBCHEM_IUPAC_OPENEYE_NAME>
1-hexyl-1-methyl-2-propyl-cyclopropane
> <PUBCHEM_IUPAC_CAS_NAME>
1-hexyl-1-methyl-2-propylcyclopropane
> <PUBCHEM_IUPAC_NAME_MARKUP>
1-hexyl-1-methyl-2-propylcyclopropane
> <PUBCHEM_IUPAC_NAME>
1-hexyl-1-methyl-2-propylcyclopropane
> <PUBCHEM_IUPAC_SYSTEMATIC_NAME>
1-hexyl-1-methyl-2-propyl-cyclopropane
> <PUBCHEM_IUPAC_TRADITIONAL_NAME>
1-hexyl-1-methyl-2-propyl-cyclopropane
> <PUBCHEM_IUPAC_INCHI>
InChI=1S/C13H26/c1-4-6-7-8-10-13(3)11-12(13)9-5-2/h12H,4-11H2,1-3H3
> <PUBCHEM_IUPAC_INCHIKEY>
VORAYVNJSRJQJJ-UHFFFAOYSA-N
> <PUBCHEM_XLOGP3_AA>
6.3
> <PUBCHEM_EXACT_MASS>
182.203450829
> <PUBCHEM_MOLECULAR_FORMULA>
C13H26
> <PUBCHEM_MOLECULAR_WEIGHT>
182.35
> <PUBCHEM_OPENEYE_CAN_SMILES>
CCCCCCC1(CC1CCC)C
> <PUBCHEM_OPENEYE_ISO_SMILES>
CCCCCCC1(CC1CCC)C
> <PUBCHEM_CACTVS_TPSA>
0
> <PUBCHEM_MONOISOTOPIC_WEIGHT>
182.203450829
> <PUBCHEM_TOTAL_CHARGE>
0
> <PUBCHEM_HEAVY_ATOM_COUNT>
13
> <PUBCHEM_ATOM_DEF_STEREO_COUNT>
0
> <PUBCHEM_ATOM_UDEF_STEREO_COUNT>
2
> <PUBCHEM_BOND_DEF_STEREO_COUNT>
0
> <PUBCHEM_BOND_UDEF_STEREO_COUNT>
0
> <PUBCHEM_ISOTOPIC_ATOM_COUNT>
0
> <PUBCHEM_COMPONENT_COUNT>
1
> <PUBCHEM_CACTVS_TAUTO_COUNT>
-1
> <PUBCHEM_COORDINATE_TYPE>
1
5
255
> <PUBCHEM_BONDANNOTATIONS>
1  6  3
2  5  3
$$$$
