524664
  -OEChem-10302200292D
 39 39  0     1  0  0  0  0  0999 V2000
    6.3660    1.1160    0.0000 C   0  0  3  0  0  0  0  0  0  0  0  0
    5.5000    0.6160    0.0000 C   0  0  3  0  0  0  0  0  0  0  0  0
    5.5000    1.6160    0.0000 C   0  0  0  0  0  0  0  0  0  0  0  0
    6.8660    0.2500    0.0000 C   0  0  0  0  0  0  0  0  0  0  0  0
    5.0000   -0.2500    0.0000 C   0  0  0  0  0  0  0  0  0  0  0  0
    6.8660    1.9820    0.0000 C   0  0  0  0  0  0  0  0  0  0  0  0
    7.8660    0.2500    0.0000 C   0  0  0  0  0  0  0  0  0  0  0  0
    4.0000   -0.2500    0.0000 C   0  0  0  0  0  0  0  0  0  0  0  0
    3.5000   -1.1160    0.0000 C   0  0  0  0  0  0  0  0  0  0  0  0
    8.3660   -0.6160    0.0000 C   0  0  0  0  0  0  0  0  0  0  0  0
    2.5000   -1.1160    0.0000 C   0  0  0  0  0  0  0  0  0  0  0  0
    9.3660   -0.6160    0.0000 C   0  0  0  0  0  0  0  0  0  0  0  0
    2.0000   -1.9820    0.0000 C   0  0  0  0  0  0  0  0  0  0  0  0
    5.9384    0.1776    0.0000 H   0  0  0  0  0  0  0  0  0  0  0  0
    5.7120    2.1986    0.0000 H   0  0  0  0  0  0  0  0  0  0  0  0
    4.8894    1.7237    0.0000 H   0  0  0  0  0  0  0  0  0  0  0  0
    6.2834    0.0379    0.0000 H   0  0  0  0  0  0  0  0  0  0  0  0
    6.9737   -0.3606    0.0000 H   0  0  0  0  0  0  0  0  0  0  0  0
    4.8923   -0.8606    0.0000 H   0  0  0  0  0  0  0  0  0  0  0  0
    5.5826   -0.4621    0.0000 H   0  0  0  0  0  0  0  0  0  0  0  0
    7.4030    1.6720    0.0000 H   0  0  0  0  0  0  0  0  0  0  0  0
    7.1760    2.5190    0.0000 H   0  0  0  0  0  0  0  0  0  0  0  0
    6.3291    2.2920    0.0000 H   0  0  0  0  0  0  0  0  0  0  0  0
    8.4486    0.4621    0.0000 H   0  0  0  0  0  0  0  0  0  0  0  0
    7.7584    0.8606    0.0000 H   0  0  0  0  0  0  0  0  0  0  0  0
    4.1077    0.3606    0.0000 H   0  0  0  0  0  0  0  0  0  0  0  0
    3.4174   -0.0379    0.0000 H   0  0  0  0  0  0  0  0  0  0  0  0
    3.3923   -1.7266    0.0000 H   0  0  0  0  0  0  0  0  0  0  0  0
    4.0826   -1.3281    0.0000 H   0  0  0  0  0  0  0  0  0  0  0  0
    7.7834   -0.8281    0.0000 H   0  0  0  0  0  0  0  0  0  0  0  0
    8.4737   -1.2266    0.0000 H   0  0  0  0  0  0  0  0  0  0  0  0
    2.6077   -0.5054    0.0000 H   0  0  0  0  0  0  0  0  0  0  0  0
    1.9174   -0.9040    0.0000 H   0  0  0  0  0  0  0  0  0  0  0  0
    9.3660   -1.2360    0.0000 H   0  0  0  0  0  0  0  0  0  0  0  0
    9.9860   -0.6160    0.0000 H   0  0  0  0  0  0  0  0  0  0  0  0
    9.3660    0.0040    0.0000 H   0  0  0  0  0  0  0  0  0  0  0  0
    1.4631   -1.6720    0.0000 H   0  0  0  0  0  0  0  0  0  0  0  0
    1.6900   -2.5190    0.0000 H   0  0  0  0  0  0  0  0  0  0  0  0
    2.5369   -2.2920    0.0000 H   0  0  0  0  0  0  0  0  0  0  0  0
  1  2  1  0  0  0  0
  1  3  1  0  0  0  0
  1  4  1  0  0  0  0
  1  6  1  0  0  0  0
  2  3  1  0  0  0  0
  2  5  1  0  0  0  0
  2 14  1  0  0  0  0
  3 15  1  0  0  0  0
  3 16  1  0  0  0  0
  4  7  1  0  0  0  0
  4 17  1  0  0  0  0
  4 18  1  0  0  0  0
  5  8  1  0  0  0  0
  5 19  1  0  0  0  0
  5 20  1  0  0  0  0
  6 21  1  0  0  0  0
  6 22  1  0  0  0  0
  6 23  1  0  0  0  0
  7 10  1  0  0  0  0
  7 24  1  0  0  0  0
  7 25  1  0  0  0  0
  8  9  1  0  0  0  0
  8 26  1  0  0  0  0
  8 27  1  0  0  0  0
  9 11  1  0  0  0  0
  9 28  1  0  0  0  0
  9 29  1  0  0  0  0
 10 12  1  0  0  0  0
 10 30  1  0  0  0  0
 10 31  1  0  0  0  0
 11 13  1  0  0  0  0
 11 32  1  0  0  0  0
 11 33  1  0  0  0  0
 12 34  1  0  0  0  0
 12 35  1  0  0  0  0
 12 36  1  0  0  0  0
 13 37  1  0  0  0  0
 13 38  1  0  0  0  0
 13 39  1  0  0  0  0
M  END
> <PUBCHEM_COMPOUND_CID>
524664
> <PUBCHEM_COMPOUND_CANONICALIZED>
1
> <PUBCHEM_CACTVS_COMPLEXITY>
139
> <PUBCHEM_CACTVS_HBOND_ACCEPTOR>
0
> <PUBCHEM_CACTVS_HBOND_DONOR>
0
> <PUBCHEM_CACTVS_ROTATABLE_BOND>
7
> <PUBCHEM_CACTVS_SUBSKEYS>
AAADceBwAAAAAAAAAAAAAAAAGAAAAAAAAAAAAAAAAAAAAAAAAAAAGAAAAAAADwCAAAACAAAAAAAAAAAAAAAAAAAAAAAAAAAAAAAAAAIAAAAAAAAAAAAAAAEAgMAPgAAAAAAAAAAAAAAAAAAAAAAAAAAAAA==
> <PUBCHEM_IUPAC_OPENEYE_NAME>
1-butyl-1-methyl-2-pentyl-cyclopropane
> <PUBCHEM_IUPAC_CAS_NAME>
1-butyl-1-methyl-2-pentylcyclopropane
> <PUBCHEM_IUPAC_NAME_MARKUP>
1-butyl-1-methyl-2-pentylcyclopropane
> <PUBCHEM_IUPAC_NAME>
1-butyl-1-methyl-2-pentylcyclopropane
> <PUBCHEM_IUPAC_SYSTEMATIC_NAME>
1-butyl-1-methyl-2-pentyl-cyclopropane
> <PUBCHEM_IUPAC_TRADITIONAL_NAME>
2-amyl-1-butyl-1-methyl-cyclopropane
> <PUBCHEM_IUPAC_INCHI>
InChI=1S/C13H26/c1-4-6-8-9-12-11-13(12,3)10-7-5-2/h12H,4-11H2,1-3H3
> <PUBCHEM_IUPAC_INCHIKEY>
RQTZUDJWRPFVOH-UHFFFAOYSA-N
> <PUBCHEM_XLOGP3_AA>
6.3
> <PUBCHEM_EXACT_MASS>
182.203450829
> <PUBCHEM_MOLECULAR_FORMULA>
C13H26
> <PUBCHEM_MOLECULAR_WEIGHT>
182.35
> <PUBCHEM_OPENEYE_CAN_SMILES>
CCCCCC1CC1(C)CCCC
> <PUBCHEM_OPENEYE_ISO_SMILES>
CCCCCC1CC1(C)CCCC
> <PUBCHEM_CACTVS_TPSA>
0
> <PUBCHEM_MONOISOTOPIC_WEIGHT>
182.203450829
> <PUBCHEM_TOTAL_CHARGE>
0
> <PUBCHEM_HEAVY_ATOM_COUNT>
13
> <PUBCHEM_ATOM_DEF_STEREO_COUNT>
0
> <PUBCHEM_ATOM_UDEF_STEREO_COUNT>
2
> <PUBCHEM_BOND_DEF_STEREO_COUNT>
0
> <PUBCHEM_BOND_UDEF_STEREO_COUNT>
0
> <PUBCHEM_ISOTOPIC_ATOM_COUNT>
0
> <PUBCHEM_COMPONENT_COUNT>
1
> <PUBCHEM_CACTVS_TAUTO_COUNT>
-1
> <PUBCHEM_COORDINATE_TYPE>
1
5
255
> <PUBCHEM_BONDANNOTATIONS>
1  6  3
2  5  3
$$$$
