524614
  -OEChem-10302200292D
 27 27  0     1  0  0  0  0  0999 V2000
    3.3660   -0.1830    0.0000 C   0  0  3  0  0  0  0  0  0  0  0  0
    2.5000   -0.6830    0.0000 C   0  0  3  0  0  0  0  0  0  0  0  0
    2.5000    0.3170    0.0000 C   0  0  0  0  0  0  0  0  0  0  0  0
    4.3660   -0.1830    0.0000 C   0  0  3  0  0  0  0  0  0  0  0  0
    2.0000   -1.5490    0.0000 C   0  0  0  0  0  0  0  0  0  0  0  0
    4.8660    0.6830    0.0000 C   0  0  0  0  0  0  0  0  0  0  0  0
    4.8660   -1.0490    0.0000 C   0  0  0  0  0  0  0  0  0  0  0  0
    5.8660    0.6830    0.0000 C   0  0  0  0  0  0  0  0  0  0  0  0
    6.3660    1.5490    0.0000 C   0  0  0  0  0  0  0  0  0  0  0  0
    3.5265    0.4159    0.0000 H   0  0  0  0  0  0  0  0  0  0  0  0
    2.9384   -1.1214    0.0000 H   0  0  0  0  0  0  0  0  0  0  0  0
    2.7120    0.8996    0.0000 H   0  0  0  0  0  0  0  0  0  0  0  0
    1.8894    0.4246    0.0000 H   0  0  0  0  0  0  0  0  0  0  0  0
    4.0560   -0.7199    0.0000 H   0  0  0  0  0  0  0  0  0  0  0  0
    1.4631   -1.2390    0.0000 H   0  0  0  0  0  0  0  0  0  0  0  0
    1.6900   -2.0860    0.0000 H   0  0  0  0  0  0  0  0  0  0  0  0
    2.5369   -1.8590    0.0000 H   0  0  0  0  0  0  0  0  0  0  0  0
    4.9737    1.2936    0.0000 H   0  0  0  0  0  0  0  0  0  0  0  0
    4.2834    0.8951    0.0000 H   0  0  0  0  0  0  0  0  0  0  0  0
    4.3291   -1.3590    0.0000 H   0  0  0  0  0  0  0  0  0  0  0  0
    5.1760   -1.5860    0.0000 H   0  0  0  0  0  0  0  0  0  0  0  0
    5.4030   -0.7390    0.0000 H   0  0  0  0  0  0  0  0  0  0  0  0
    5.7584    0.0724    0.0000 H   0  0  0  0  0  0  0  0  0  0  0  0
    6.4486    0.4710    0.0000 H   0  0  0  0  0  0  0  0  0  0  0  0
    6.9030    1.2390    0.0000 H   0  0  0  0  0  0  0  0  0  0  0  0
    6.6760    2.0860    0.0000 H   0  0  0  0  0  0  0  0  0  0  0  0
    5.8291    1.8590    0.0000 H   0  0  0  0  0  0  0  0  0  0  0  0
  1  2  1  0  0  0  0
  1  3  1  0  0  0  0
  1  4  1  0  0  0  0
  1 10  1  0  0  0  0
  2  3  1  0  0  0  0
  2  5  1  0  0  0  0
  2 11  1  0  0  0  0
  3 12  1  0  0  0  0
  3 13  1  0  0  0  0
  4  6  1  0  0  0  0
  4  7  1  0  0  0  0
  4 14  1  0  0  0  0
  5 15  1  0  0  0  0
  5 16  1  0  0  0  0
  5 17  1  0  0  0  0
  6  8  1  0  0  0  0
  6 18  1  0  0  0  0
  6 19  1  0  0  0  0
  7 20  1  0  0  0  0
  7 21  1  0  0  0  0
  7 22  1  0  0  0  0
  8  9  1  0  0  0  0
  8 23  1  0  0  0  0
  8 24  1  0  0  0  0
  9 25  1  0  0  0  0
  9 26  1  0  0  0  0
  9 27  1  0  0  0  0
M  END
> <PUBCHEM_COMPOUND_CID>
524614
> <PUBCHEM_COMPOUND_CANONICALIZED>
1
> <PUBCHEM_CACTVS_COMPLEXITY>
86
> <PUBCHEM_CACTVS_HBOND_ACCEPTOR>
0
> <PUBCHEM_CACTVS_HBOND_DONOR>
0
> <PUBCHEM_CACTVS_ROTATABLE_BOND>
3
> <PUBCHEM_CACTVS_SUBSKEYS>
AAADceBwAAAAAAAAAAAAAAAAGAAAAAAAAAAAAAAAAAAAAAAAAAAAGAAAAAAADQCAAAACAAAAAAAAAAAAAAAAAAAAAAAAAAAAAAAAAAIAAAAAAAAAAAAAAAEAgMAOgAAAAAAAAAAAAAAAAAAAAAAAAAAAAA==
> <PUBCHEM_IUPAC_OPENEYE_NAME>
1-methyl-2-(1-methylbutyl)cyclopropane
> <PUBCHEM_IUPAC_CAS_NAME>
1-methyl-2-pentan-2-ylcyclopropane
> <PUBCHEM_IUPAC_NAME_MARKUP>
1-methyl-2-pentan-2-ylcyclopropane
> <PUBCHEM_IUPAC_NAME>
1-methyl-2-pentan-2-ylcyclopropane
> <PUBCHEM_IUPAC_SYSTEMATIC_NAME>
1-methyl-2-pentan-2-yl-cyclopropane
> <PUBCHEM_IUPAC_TRADITIONAL_NAME>
1-methyl-2-(1-methylbutyl)cyclopropane
> <PUBCHEM_IUPAC_INCHI>
InChI=1S/C9H18/c1-4-5-7(2)9-6-8(9)3/h7-9H,4-6H2,1-3H3
> <PUBCHEM_IUPAC_INCHIKEY>
QRTKUJRGCCRFOM-UHFFFAOYSA-N
> <PUBCHEM_XLOGP3_AA>
4
> <PUBCHEM_EXACT_MASS>
126.140850574
> <PUBCHEM_MOLECULAR_FORMULA>
C9H18
> <PUBCHEM_MOLECULAR_WEIGHT>
126.24
> <PUBCHEM_OPENEYE_CAN_SMILES>
CCCC(C)C1CC1C
> <PUBCHEM_OPENEYE_ISO_SMILES>
CCCC(C)C1CC1C
> <PUBCHEM_CACTVS_TPSA>
0
> <PUBCHEM_MONOISOTOPIC_WEIGHT>
126.140850574
> <PUBCHEM_TOTAL_CHARGE>
0
> <PUBCHEM_HEAVY_ATOM_COUNT>
9
> <PUBCHEM_ATOM_DEF_STEREO_COUNT>
0
> <PUBCHEM_ATOM_UDEF_STEREO_COUNT>
3
> <PUBCHEM_BOND_DEF_STEREO_COUNT>
0
> <PUBCHEM_BOND_UDEF_STEREO_COUNT>
0
> <PUBCHEM_ISOTOPIC_ATOM_COUNT>
0
> <PUBCHEM_COMPONENT_COUNT>
1
> <PUBCHEM_CACTVS_TAUTO_COUNT>
-1
> <PUBCHEM_COORDINATE_TYPE>
1
5
255
> <PUBCHEM_BONDANNOTATIONS>
1  3  3
2  5  3
4  7  3
$$$$
