524674
  -OEChem-10302200292D
 22 23  0     1  0  0  0  0  0999 V2000
    4.3660    0.4330    0.0000 C   0  0  3  0  0  0  0  0  0  0  0  0
    5.3660    0.4330    0.0000 C   0  0  0  0  0  0  0  0  0  0  0  0
    3.5000   -0.0670    0.0000 C   0  0  3  0  0  0  0  0  0  0  0  0
    3.5000    0.9330    0.0000 C   0  0  0  0  0  0  0  0  0  0  0  0
    6.2320    0.9330    0.0000 C   0  0  0  0  0  0  0  0  0  0  0  0
    6.2320   -0.0670    0.0000 C   0  0  0  0  0  0  0  0  0  0  0  0
    3.0000   -0.9330    0.0000 C   0  0  0  0  0  0  0  0  0  0  0  0
    2.0000   -0.9330    0.0000 C   0  0  0  0  0  0  0  0  0  0  0  0
    4.5265    1.0319    0.0000 H   0  0  0  0  0  0  0  0  0  0  0  0
    5.2056    1.0319    0.0000 H   0  0  0  0  0  0  0  0  0  0  0  0
    2.9011    0.0935    0.0000 H   0  0  0  0  0  0  0  0  0  0  0  0
    3.7120    1.5156    0.0000 H   0  0  0  0  0  0  0  0  0  0  0  0
    2.8894    1.0407    0.0000 H   0  0  0  0  0  0  0  0  0  0  0  0
    6.8426    1.0407    0.0000 H   0  0  0  0  0  0  0  0  0  0  0  0
    6.0200    1.5156    0.0000 H   0  0  0  0  0  0  0  0  0  0  0  0
    6.0200   -0.6496    0.0000 H   0  0  0  0  0  0  0  0  0  0  0  0
    6.8426   -0.1746    0.0000 H   0  0  0  0  0  0  0  0  0  0  0  0
    2.8923   -1.5436    0.0000 H   0  0  0  0  0  0  0  0  0  0  0  0
    3.5826   -1.1451    0.0000 H   0  0  0  0  0  0  0  0  0  0  0  0
    2.0000   -0.3130    0.0000 H   0  0  0  0  0  0  0  0  0  0  0  0
    1.3800   -0.9330    0.0000 H   0  0  0  0  0  0  0  0  0  0  0  0
    2.0000   -1.5530    0.0000 H   0  0  0  0  0  0  0  0  0  0  0  0
  1  2  1  0  0  0  0
  1  3  1  0  0  0  0
  1  4  1  0  0  0  0
  1  9  1  0  0  0  0
  2  5  1  0  0  0  0
  2  6  1  0  0  0  0
  2 10  1  0  0  0  0
  3  4  1  0  0  0  0
  3  7  1  0  0  0  0
  3 11  1  0  0  0  0
  4 12  1  0  0  0  0
  4 13  1  0  0  0  0
  5  6  1  0  0  0  0
  5 14  1  0  0  0  0
  5 15  1  0  0  0  0
  6 16  1  0  0  0  0
  6 17  1  0  0  0  0
  7  8  1  0  0  0  0
  7 18  1  0  0  0  0
  7 19  1  0  0  0  0
  8 20  1  0  0  0  0
  8 21  1  0  0  0  0
  8 22  1  0  0  0  0
M  END
> <PUBCHEM_COMPOUND_CID>
524674
> <PUBCHEM_COMPOUND_CANONICALIZED>
1
> <PUBCHEM_CACTVS_COMPLEXITY>
92.2
> <PUBCHEM_CACTVS_HBOND_ACCEPTOR>
0
> <PUBCHEM_CACTVS_HBOND_DONOR>
0
> <PUBCHEM_CACTVS_ROTATABLE_BOND>
2
> <PUBCHEM_CACTVS_SUBSKEYS>
AAADccBwAAAAAAAAAAAAAAAAGDAAAAAAAAAAAAAAAAAAAAAAAAAAGAAAAAAADQCAAAACAAAAAAAAAAAAAAAAAAAAAAAAAAAAAAAAAAIAAAAAAAAAAAAAAAEAgMAOgAAAAAAAAAAAAAAAAAAAAAAAAAAAAA==
> <PUBCHEM_IUPAC_OPENEYE_NAME>
1-cyclopropyl-2-ethyl-cyclopropane
> <PUBCHEM_IUPAC_CAS_NAME>
1-cyclopropyl-2-ethylcyclopropane
> <PUBCHEM_IUPAC_NAME_MARKUP>
1-cyclopropyl-2-ethylcyclopropane
> <PUBCHEM_IUPAC_NAME>
1-cyclopropyl-2-ethylcyclopropane
> <PUBCHEM_IUPAC_SYSTEMATIC_NAME>
1-cyclopropyl-2-ethyl-cyclopropane
> <PUBCHEM_IUPAC_TRADITIONAL_NAME>
1-cyclopropyl-2-ethyl-cyclopropane
> <PUBCHEM_IUPAC_INCHI>
InChI=1S/C8H14/c1-2-6-5-8(6)7-3-4-7/h6-8H,2-5H2,1H3
> <PUBCHEM_IUPAC_INCHIKEY>
VDKZAQZRSGYRSL-UHFFFAOYSA-N
> <PUBCHEM_XLOGP3_AA>
3.2
> <PUBCHEM_EXACT_MASS>
110.109550447
> <PUBCHEM_MOLECULAR_FORMULA>
C8H14
> <PUBCHEM_MOLECULAR_WEIGHT>
110.20
> <PUBCHEM_OPENEYE_CAN_SMILES>
CCC1CC1C2CC2
> <PUBCHEM_OPENEYE_ISO_SMILES>
CCC1CC1C2CC2
> <PUBCHEM_CACTVS_TPSA>
0
> <PUBCHEM_MONOISOTOPIC_WEIGHT>
110.109550447
> <PUBCHEM_TOTAL_CHARGE>
0
> <PUBCHEM_HEAVY_ATOM_COUNT>
8
> <PUBCHEM_ATOM_DEF_STEREO_COUNT>
0
> <PUBCHEM_ATOM_UDEF_STEREO_COUNT>
2
> <PUBCHEM_BOND_DEF_STEREO_COUNT>
0
> <PUBCHEM_BOND_UDEF_STEREO_COUNT>
0
> <PUBCHEM_ISOTOPIC_ATOM_COUNT>
0
> <PUBCHEM_COMPONENT_COUNT>
1
> <PUBCHEM_CACTVS_TAUTO_COUNT>
-1
> <PUBCHEM_COORDINATE_TYPE>
1
5
255
> <PUBCHEM_BONDANNOTATIONS>
1  2  3
3  7  3
$$$$
