524681
  -OEChem-10302200292D
 22 23  0     1  0  0  0  0  0999 V2000
    3.3660   -0.2500    0.0000 C   0  0  3  0  0  0  0  0  0  0  0  0
    2.5000   -0.7500    0.0000 C   0  0  3  0  0  0  0  0  0  0  0  0
    2.5000    0.2500    0.0000 C   0  0  0  0  0  0  0  0  0  0  0  0
    4.8660    0.6160    0.0000 C   0  0  0  0  0  0  0  0  0  0  0  0
    4.3660   -0.2500    0.0000 C   0  0  0  0  0  0  0  0  0  0  0  0
    5.7320    1.1160    0.0000 C   0  0  0  0  0  0  0  0  0  0  0  0
    4.8660    1.6160    0.0000 C   0  0  0  0  0  0  0  0  0  0  0  0
    2.0000   -1.6160    0.0000 C   0  0  0  0  0  0  0  0  0  0  0  0
    3.5265   -0.8489    0.0000 H   0  0  0  0  0  0  0  0  0  0  0  0
    1.9011   -0.5895    0.0000 H   0  0  0  0  0  0  0  0  0  0  0  0
    2.7120    0.8326    0.0000 H   0  0  0  0  0  0  0  0  0  0  0  0
    1.8894    0.3577    0.0000 H   0  0  0  0  0  0  0  0  0  0  0  0
    5.3044    0.1776    0.0000 H   0  0  0  0  0  0  0  0  0  0  0  0
    4.2584   -0.8606    0.0000 H   0  0  0  0  0  0  0  0  0  0  0  0
    4.9486   -0.4621    0.0000 H   0  0  0  0  0  0  0  0  0  0  0  0
    6.1306    0.6411    0.0000 H   0  0  0  0  0  0  0  0  0  0  0  0
    6.1306    1.5910    0.0000 H   0  0  0  0  0  0  0  0  0  0  0  0
    5.0781    2.1986    0.0000 H   0  0  0  0  0  0  0  0  0  0  0  0
    4.2554    1.7237    0.0000 H   0  0  0  0  0  0  0  0  0  0  0  0
    1.4631   -1.3060    0.0000 H   0  0  0  0  0  0  0  0  0  0  0  0
    1.6900   -2.1530    0.0000 H   0  0  0  0  0  0  0  0  0  0  0  0
    2.5369   -1.9260    0.0000 H   0  0  0  0  0  0  0  0  0  0  0  0
  1  2  1  0  0  0  0
  1  3  1  0  0  0  0
  1  5  1  0  0  0  0
  1  9  1  0  0  0  0
  2  3  1  0  0  0  0
  2  8  1  0  0  0  0
  2 10  1  0  0  0  0
  3 11  1  0  0  0  0
  3 12  1  0  0  0  0
  4  5  1  0  0  0  0
  4  6  1  0  0  0  0
  4  7  1  0  0  0  0
  4 13  1  0  0  0  0
  5 14  1  0  0  0  0
  5 15  1  0  0  0  0
  6  7  1  0  0  0  0
  6 16  1  0  0  0  0
  6 17  1  0  0  0  0
  7 18  1  0  0  0  0
  7 19  1  0  0  0  0
  8 20  1  0  0  0  0
  8 21  1  0  0  0  0
  8 22  1  0  0  0  0
M  END
> <PUBCHEM_COMPOUND_CID>
524681
> <PUBCHEM_COMPOUND_CANONICALIZED>
1
> <PUBCHEM_CACTVS_COMPLEXITY>
92.2
> <PUBCHEM_CACTVS_HBOND_ACCEPTOR>
0
> <PUBCHEM_CACTVS_HBOND_DONOR>
0
> <PUBCHEM_CACTVS_ROTATABLE_BOND>
2
> <PUBCHEM_CACTVS_SUBSKEYS>
AAADccBwAAAAAAAAAAAAAAAAGDAAAAAAAAAAAAAAAAAAAAAAAAAAGAAAAAAADQCAAAACAAAAAAAAAAAAAAAAAAAAAAAAAAAAAAAAAAIAAAAAAAAAAAAAAAEAgMAOAAAAAAAAAAAAAAAAAAAAAAAAAAAAAA==
> <PUBCHEM_IUPAC_OPENEYE_NAME>
1-(cyclopropylmethyl)-2-methyl-cyclopropane
> <PUBCHEM_IUPAC_CAS_NAME>
1-(cyclopropylmethyl)-2-methylcyclopropane
> <PUBCHEM_IUPAC_NAME_MARKUP>
1-(cyclopropylmethyl)-2-methylcyclopropane
> <PUBCHEM_IUPAC_NAME>
1-(cyclopropylmethyl)-2-methylcyclopropane
> <PUBCHEM_IUPAC_SYSTEMATIC_NAME>
1-(cyclopropylmethyl)-2-methyl-cyclopropane
> <PUBCHEM_IUPAC_TRADITIONAL_NAME>
1-(cyclopropylmethyl)-2-methyl-cyclopropane
> <PUBCHEM_IUPAC_INCHI>
InChI=1S/C8H14/c1-6-4-8(6)5-7-2-3-7/h6-8H,2-5H2,1H3
> <PUBCHEM_IUPAC_INCHIKEY>
JHQZDNDZIXRBAM-UHFFFAOYSA-N
> <PUBCHEM_XLOGP3_AA>
3.2
> <PUBCHEM_EXACT_MASS>
110.109550447
> <PUBCHEM_MOLECULAR_FORMULA>
C8H14
> <PUBCHEM_MOLECULAR_WEIGHT>
110.20
> <PUBCHEM_OPENEYE_CAN_SMILES>
CC1CC1CC2CC2
> <PUBCHEM_OPENEYE_ISO_SMILES>
CC1CC1CC2CC2
> <PUBCHEM_CACTVS_TPSA>
0
> <PUBCHEM_MONOISOTOPIC_WEIGHT>
110.109550447
> <PUBCHEM_TOTAL_CHARGE>
0
> <PUBCHEM_HEAVY_ATOM_COUNT>
8
> <PUBCHEM_ATOM_DEF_STEREO_COUNT>
0
> <PUBCHEM_ATOM_UDEF_STEREO_COUNT>
2
> <PUBCHEM_BOND_DEF_STEREO_COUNT>
0
> <PUBCHEM_BOND_UDEF_STEREO_COUNT>
0
> <PUBCHEM_ISOTOPIC_ATOM_COUNT>
0
> <PUBCHEM_COMPONENT_COUNT>
1
> <PUBCHEM_CACTVS_TAUTO_COUNT>
-1
> <PUBCHEM_COORDINATE_TYPE>
1
5
255
> <PUBCHEM_BONDANNOTATIONS>
1  5  3
2  8  3
$$$$
