524606
  -OEChem-10302200292D
 31 31  0     1  0  0  0  0  0999 V2000
    4.3802   -1.4188    0.0000 O   0  0  0  0  0  0  0  0  0  0  0  0
    5.6906    1.1300    0.0000 O   0  0  0  0  0  0  0  0  0  0  0  0
    5.6906   -0.6021    0.0000 O   0  0  0  0  0  0  0  0  0  0  0  0
    4.1906    0.2639    0.0000 C   0  0  3  0  0  0  0  0  0  0  0  0
    3.7568   -0.6370    0.0000 C   0  0  3  0  0  0  0  0  0  0  0  0
    3.7568    1.1649    0.0000 C   0  0  0  0  0  0  0  0  0  0  0  0
    2.7818   -0.8595    0.0000 C   0  0  0  0  0  0  0  0  0  0  0  0
    2.7818    1.3874    0.0000 C   0  0  0  0  0  0  0  0  0  0  0  0
    2.0000   -0.2361    0.0000 C   0  0  0  0  0  0  0  0  0  0  0  0
    2.0000    0.7639    0.0000 C   0  0  0  0  0  0  0  0  0  0  0  0
    5.1906    0.2639    0.0000 C   0  0  0  0  0  0  0  0  0  0  0  0
    6.6906    1.1300    0.0000 C   0  0  0  0  0  0  0  0  0  0  0  0
    7.1906    1.9960    0.0000 C   0  0  0  0  0  0  0  0  0  0  0  0
    4.5205    0.7889    0.0000 H   0  0  0  0  0  0  0  0  0  0  0  0
    4.3729   -0.5676    0.0000 H   0  0  0  0  0  0  0  0  0  0  0  0
    4.3612    1.3029    0.0000 H   0  0  0  0  0  0  0  0  0  0  0  0
    3.7568    1.7849    0.0000 H   0  0  0  0  0  0  0  0  0  0  0  0
    2.2971   -1.2461    0.0000 H   0  0  0  0  0  0  0  0  0  0  0  0
    3.0508   -1.4181    0.0000 H   0  0  0  0  0  0  0  0  0  0  0  0
    3.0508    1.9460    0.0000 H   0  0  0  0  0  0  0  0  0  0  0  0
    2.2971    1.7740    0.0000 H   0  0  0  0  0  0  0  0  0  0  0  0
    1.3955   -0.0981    0.0000 H   0  0  0  0  0  0  0  0  0  0  0  0
    1.7310   -0.7947    0.0000 H   0  0  0  0  0  0  0  0  0  0  0  0
    1.7310    1.3225    0.0000 H   0  0  0  0  0  0  0  0  0  0  0  0
    1.3955    0.6260    0.0000 H   0  0  0  0  0  0  0  0  0  0  0  0
    4.1537   -1.9960    0.0000 H   0  0  0  0  0  0  0  0  0  0  0  0
    6.5830    0.5194    0.0000 H   0  0  0  0  0  0  0  0  0  0  0  0
    7.2732    0.9179    0.0000 H   0  0  0  0  0  0  0  0  0  0  0  0
    7.7276    1.6860    0.0000 H   0  0  0  0  0  0  0  0  0  0  0  0
    7.5006    2.5329    0.0000 H   0  0  0  0  0  0  0  0  0  0  0  0
    6.6537    2.3060    0.0000 H   0  0  0  0  0  0  0  0  0  0  0  0
  1  5  1  0  0  0  0
  1 26  1  0  0  0  0
  2 11  1  0  0  0  0
  2 12  1  0  0  0  0
  3 11  2  0  0  0  0
  4  5  1  0  0  0  0
  4  6  1  0  0  0  0
  4 11  1  0  0  0  0
  4 14  1  0  0  0  0
  5  7  1  0  0  0  0
  5 15  1  0  0  0  0
  6  8  1  0  0  0  0
  6 16  1  0  0  0  0
  6 17  1  0  0  0  0
  7  9  1  0  0  0  0
  7 18  1  0  0  0  0
  7 19  1  0  0  0  0
  8 10  1  0  0  0  0
  8 20  1  0  0  0  0
  8 21  1  0  0  0  0
  9 10  1  0  0  0  0
  9 22  1  0  0  0  0
  9 23  1  0  0  0  0
 10 24  1  0  0  0  0
 10 25  1  0  0  0  0
 12 13  1  0  0  0  0
 12 27  1  0  0  0  0
 12 28  1  0  0  0  0
 13 29  1  0  0  0  0
 13 30  1  0  0  0  0
 13 31  1  0  0  0  0
M  END
> <PUBCHEM_COMPOUND_CID>
524606
> <PUBCHEM_COMPOUND_CANONICALIZED>
1
> <PUBCHEM_CACTVS_COMPLEXITY>
168
> <PUBCHEM_CACTVS_HBOND_ACCEPTOR>
3
> <PUBCHEM_CACTVS_HBOND_DONOR>
1
> <PUBCHEM_CACTVS_ROTATABLE_BOND>
3
> <PUBCHEM_CACTVS_SUBSKEYS>
AAADceBwMAAAAAAAAAAAAAAAAAAAAAAAAAAAAAAABgAAAAAAAAAAGgAACAAADRSggAICCAAABgAIAACQCAAAAAAAAAAAAAEAAAAAEBYAAAACQAAFIAAAAAGIyOCOAAAAAAAAAAAAAAAAAAAAAAAAAAAAAA==
> <PUBCHEM_IUPAC_OPENEYE_NAME>
ethyl 2-hydroxycycloheptanecarboxylate
> <PUBCHEM_IUPAC_CAS_NAME>
2-hydroxy-1-cycloheptanecarboxylic acid ethyl ester
> <PUBCHEM_IUPAC_NAME_MARKUP>
ethyl 2-hydroxycycloheptane-1-carboxylate
> <PUBCHEM_IUPAC_NAME>
ethyl 2-hydroxycycloheptane-1-carboxylate
> <PUBCHEM_IUPAC_SYSTEMATIC_NAME>
ethyl 2-oxidanylcycloheptane-1-carboxylate
> <PUBCHEM_IUPAC_TRADITIONAL_NAME>
2-hydroxycycloheptanecarboxylic acid ethyl ester
> <PUBCHEM_IUPAC_INCHI>
InChI=1S/C10H18O3/c1-2-13-10(12)8-6-4-3-5-7-9(8)11/h8-9,11H,2-7H2,1H3
> <PUBCHEM_IUPAC_INCHIKEY>
ALKWBBFKXDLSML-UHFFFAOYSA-N
> <PUBCHEM_XLOGP3_AA>
2.3
> <PUBCHEM_EXACT_MASS>
186.125594432
> <PUBCHEM_MOLECULAR_FORMULA>
C10H18O3
> <PUBCHEM_MOLECULAR_WEIGHT>
186.25
> <PUBCHEM_OPENEYE_CAN_SMILES>
CCOC(=O)C1CCCCCC1O
> <PUBCHEM_OPENEYE_ISO_SMILES>
CCOC(=O)C1CCCCCC1O
> <PUBCHEM_CACTVS_TPSA>
46.5
> <PUBCHEM_MONOISOTOPIC_WEIGHT>
186.125594432
> <PUBCHEM_TOTAL_CHARGE>
0
> <PUBCHEM_HEAVY_ATOM_COUNT>
13
> <PUBCHEM_ATOM_DEF_STEREO_COUNT>
0
> <PUBCHEM_ATOM_UDEF_STEREO_COUNT>
2
> <PUBCHEM_BOND_DEF_STEREO_COUNT>
0
> <PUBCHEM_BOND_UDEF_STEREO_COUNT>
0
> <PUBCHEM_ISOTOPIC_ATOM_COUNT>
0
> <PUBCHEM_COMPONENT_COUNT>
1
> <PUBCHEM_CACTVS_TAUTO_COUNT>
-1
> <PUBCHEM_COORDINATE_TYPE>
1
5
255
> <PUBCHEM_BONDANNOTATIONS>
5  1  3
4  11  3
$$$$
