524609
  -OEChem-10302200292D
 27 27  0     1  0  0  0  0  0999 V2000
    4.3660   -0.1830    0.0000 C   0  0  3  0  0  0  0  0  0  0  0  0
    3.5000   -0.6830    0.0000 C   0  0  3  0  0  0  0  0  0  0  0  0
    3.5000    0.3170    0.0000 C   0  0  0  0  0  0  0  0  0  0  0  0
    5.3660   -0.1830    0.0000 C   0  0  0  0  0  0  0  0  0  0  0  0
    3.0000   -1.5490    0.0000 C   0  0  0  0  0  0  0  0  0  0  0  0
    5.8660    0.6830    0.0000 C   0  0  0  0  0  0  0  0  0  0  0  0
    2.0000   -1.5490    0.0000 C   0  0  0  0  0  0  0  0  0  0  0  0
    6.8660    0.6830    0.0000 C   0  0  0  0  0  0  0  0  0  0  0  0
    7.3660    1.5490    0.0000 C   0  0  0  0  0  0  0  0  0  0  0  0
    4.5265   -0.7819    0.0000 H   0  0  0  0  0  0  0  0  0  0  0  0
    3.9384   -1.1214    0.0000 H   0  0  0  0  0  0  0  0  0  0  0  0
    3.7120    0.8996    0.0000 H   0  0  0  0  0  0  0  0  0  0  0  0
    2.8894    0.4246    0.0000 H   0  0  0  0  0  0  0  0  0  0  0  0
    5.2584   -0.7936    0.0000 H   0  0  0  0  0  0  0  0  0  0  0  0
    5.9486   -0.3951    0.0000 H   0  0  0  0  0  0  0  0  0  0  0  0
    2.8923   -2.1596    0.0000 H   0  0  0  0  0  0  0  0  0  0  0  0
    3.5826   -1.7611    0.0000 H   0  0  0  0  0  0  0  0  0  0  0  0
    5.9737    1.2936    0.0000 H   0  0  0  0  0  0  0  0  0  0  0  0
    5.2834    0.8951    0.0000 H   0  0  0  0  0  0  0  0  0  0  0  0
    2.0000   -0.9290    0.0000 H   0  0  0  0  0  0  0  0  0  0  0  0
    1.3800   -1.5490    0.0000 H   0  0  0  0  0  0  0  0  0  0  0  0
    2.0000   -2.1690    0.0000 H   0  0  0  0  0  0  0  0  0  0  0  0
    6.7584    0.0724    0.0000 H   0  0  0  0  0  0  0  0  0  0  0  0
    7.4486    0.4710    0.0000 H   0  0  0  0  0  0  0  0  0  0  0  0
    7.9030    1.2390    0.0000 H   0  0  0  0  0  0  0  0  0  0  0  0
    7.6760    2.0860    0.0000 H   0  0  0  0  0  0  0  0  0  0  0  0
    6.8291    1.8590    0.0000 H   0  0  0  0  0  0  0  0  0  0  0  0
  1  2  1  0  0  0  0
  1  3  1  0  0  0  0
  1  4  1  0  0  0  0
  1 10  1  0  0  0  0
  2  3  1  0  0  0  0
  2  5  1  0  0  0  0
  2 11  1  0  0  0  0
  3 12  1  0  0  0  0
  3 13  1  0  0  0  0
  4  6  1  0  0  0  0
  4 14  1  0  0  0  0
  4 15  1  0  0  0  0
  5  7  1  0  0  0  0
  5 16  1  0  0  0  0
  5 17  1  0  0  0  0
  6  8  1  0  0  0  0
  6 18  1  0  0  0  0
  6 19  1  0  0  0  0
  7 20  1  0  0  0  0
  7 21  1  0  0  0  0
  7 22  1  0  0  0  0
  8  9  1  0  0  0  0
  8 23  1  0  0  0  0
  8 24  1  0  0  0  0
  9 25  1  0  0  0  0
  9 26  1  0  0  0  0
  9 27  1  0  0  0  0
M  END
> <PUBCHEM_COMPOUND_CID>
524609
> <PUBCHEM_COMPOUND_CANONICALIZED>
1
> <PUBCHEM_CACTVS_COMPLEXITY>
76.1
> <PUBCHEM_CACTVS_HBOND_ACCEPTOR>
0
> <PUBCHEM_CACTVS_HBOND_DONOR>
0
> <PUBCHEM_CACTVS_ROTATABLE_BOND>
4
> <PUBCHEM_CACTVS_SUBSKEYS>
AAADceBwAAAAAAAAAAAAAAAAGAAAAAAAAAAAAAAAAAAAAAAAAAAAGAAAAAAADQCAAAACAAAAAAAAAAAAAAAAAAAAAAAAAAAAAAAAAAIAAAAAAAAAAAAAAAEAgMAOAAAAAAAAAAAAAAAAAAAAAAAAAAAAAA==
> <PUBCHEM_IUPAC_OPENEYE_NAME>
1-butyl-2-ethyl-cyclopropane
> <PUBCHEM_IUPAC_CAS_NAME>
1-butyl-2-ethylcyclopropane
> <PUBCHEM_IUPAC_NAME_MARKUP>
1-butyl-2-ethylcyclopropane
> <PUBCHEM_IUPAC_NAME>
1-butyl-2-ethylcyclopropane
> <PUBCHEM_IUPAC_SYSTEMATIC_NAME>
1-butyl-2-ethyl-cyclopropane
> <PUBCHEM_IUPAC_TRADITIONAL_NAME>
1-butyl-2-ethyl-cyclopropane
> <PUBCHEM_IUPAC_INCHI>
InChI=1S/C9H18/c1-3-5-6-9-7-8(9)4-2/h8-9H,3-7H2,1-2H3
> <PUBCHEM_IUPAC_INCHIKEY>
RNEGJSGKJQQNEI-UHFFFAOYSA-N
> <PUBCHEM_XLOGP3_AA>
4.3
> <PUBCHEM_EXACT_MASS>
126.140850574
> <PUBCHEM_MOLECULAR_FORMULA>
C9H18
> <PUBCHEM_MOLECULAR_WEIGHT>
126.24
> <PUBCHEM_OPENEYE_CAN_SMILES>
CCCCC1CC1CC
> <PUBCHEM_OPENEYE_ISO_SMILES>
CCCCC1CC1CC
> <PUBCHEM_CACTVS_TPSA>
0
> <PUBCHEM_MONOISOTOPIC_WEIGHT>
126.140850574
> <PUBCHEM_TOTAL_CHARGE>
0
> <PUBCHEM_HEAVY_ATOM_COUNT>
9
> <PUBCHEM_ATOM_DEF_STEREO_COUNT>
0
> <PUBCHEM_ATOM_UDEF_STEREO_COUNT>
2
> <PUBCHEM_BOND_DEF_STEREO_COUNT>
0
> <PUBCHEM_BOND_UDEF_STEREO_COUNT>
0
> <PUBCHEM_ISOTOPIC_ATOM_COUNT>
0
> <PUBCHEM_COMPONENT_COUNT>
1
> <PUBCHEM_CACTVS_TAUTO_COUNT>
-1
> <PUBCHEM_COORDINATE_TYPE>
1
5
255
> <PUBCHEM_BONDANNOTATIONS>
1  4  3
2  5  3
$$$$
