524634
  -OEChem-10302200292D
 39 39  0     1  0  0  0  0  0999 V2000
    4.3660    1.2990    0.0000 C   0  0  3  0  0  0  0  0  0  0  0  0
    3.5000    0.7990    0.0000 C   0  0  3  0  0  0  0  0  0  0  0  0
    3.5000    1.7990    0.0000 C   0  0  0  0  0  0  0  0  0  0  0  0
    4.8660    0.4330    0.0000 C   0  0  0  0  0  0  0  0  0  0  0  0
    3.0000   -0.0670    0.0000 C   0  0  0  0  0  0  0  0  0  0  0  0
    4.8660    2.1651    0.0000 C   0  0  0  0  0  0  0  0  0  0  0  0
    5.8660    0.4330    0.0000 C   0  0  0  0  0  0  0  0  0  0  0  0
    2.0000   -0.0670    0.0000 C   0  0  0  0  0  0  0  0  0  0  0  0
    6.3660   -0.4330    0.0000 C   0  0  0  0  0  0  0  0  0  0  0  0
    7.3660   -0.4330    0.0000 C   0  0  0  0  0  0  0  0  0  0  0  0
    7.8660   -1.2990    0.0000 C   0  0  0  0  0  0  0  0  0  0  0  0
    8.8660   -1.2990    0.0000 C   0  0  0  0  0  0  0  0  0  0  0  0
    9.3660   -2.1651    0.0000 C   0  0  0  0  0  0  0  0  0  0  0  0
    2.9011    0.9595    0.0000 H   0  0  0  0  0  0  0  0  0  0  0  0
    3.7120    2.3816    0.0000 H   0  0  0  0  0  0  0  0  0  0  0  0
    2.8894    1.9067    0.0000 H   0  0  0  0  0  0  0  0  0  0  0  0
    4.2834    0.2210    0.0000 H   0  0  0  0  0  0  0  0  0  0  0  0
    4.9737   -0.1776    0.0000 H   0  0  0  0  0  0  0  0  0  0  0  0
    2.8923   -0.6776    0.0000 H   0  0  0  0  0  0  0  0  0  0  0  0
    3.5826   -0.2790    0.0000 H   0  0  0  0  0  0  0  0  0  0  0  0
    5.4030    1.8551    0.0000 H   0  0  0  0  0  0  0  0  0  0  0  0
    5.1760    2.7020    0.0000 H   0  0  0  0  0  0  0  0  0  0  0  0
    4.3291    2.4751    0.0000 H   0  0  0  0  0  0  0  0  0  0  0  0
    6.4486    0.6451    0.0000 H   0  0  0  0  0  0  0  0  0  0  0  0
    5.7584    1.0436    0.0000 H   0  0  0  0  0  0  0  0  0  0  0  0
    2.0000    0.5530    0.0000 H   0  0  0  0  0  0  0  0  0  0  0  0
    1.3800   -0.0670    0.0000 H   0  0  0  0  0  0  0  0  0  0  0  0
    2.0000   -0.6870    0.0000 H   0  0  0  0  0  0  0  0  0  0  0  0
    5.7834   -0.6451    0.0000 H   0  0  0  0  0  0  0  0  0  0  0  0
    6.4737   -1.0436    0.0000 H   0  0  0  0  0  0  0  0  0  0  0  0
    7.9486   -0.2210    0.0000 H   0  0  0  0  0  0  0  0  0  0  0  0
    7.2584    0.1776    0.0000 H   0  0  0  0  0  0  0  0  0  0  0  0
    7.2834   -1.5111    0.0000 H   0  0  0  0  0  0  0  0  0  0  0  0
    7.9737   -1.9096    0.0000 H   0  0  0  0  0  0  0  0  0  0  0  0
    9.4486   -1.0870    0.0000 H   0  0  0  0  0  0  0  0  0  0  0  0
    8.7584   -0.6885    0.0000 H   0  0  0  0  0  0  0  0  0  0  0  0
    8.8291   -2.4751    0.0000 H   0  0  0  0  0  0  0  0  0  0  0  0
    9.6760   -2.7020    0.0000 H   0  0  0  0  0  0  0  0  0  0  0  0
    9.9030   -1.8551    0.0000 H   0  0  0  0  0  0  0  0  0  0  0  0
  1  2  1  0  0  0  0
  1  3  1  0  0  0  0
  1  4  1  0  0  0  0
  1  6  1  0  0  0  0
  2  3  1  0  0  0  0
  2  5  1  0  0  0  0
  2 14  1  0  0  0  0
  3 15  1  0  0  0  0
  3 16  1  0  0  0  0
  4  7  1  0  0  0  0
  4 17  1  0  0  0  0
  4 18  1  0  0  0  0
  5  8  1  0  0  0  0
  5 19  1  0  0  0  0
  5 20  1  0  0  0  0
  6 21  1  0  0  0  0
  6 22  1  0  0  0  0
  6 23  1  0  0  0  0
  7  9  1  0  0  0  0
  7 24  1  0  0  0  0
  7 25  1  0  0  0  0
  8 26  1  0  0  0  0
  8 27  1  0  0  0  0
  8 28  1  0  0  0  0
  9 10  1  0  0  0  0
  9 29  1  0  0  0  0
  9 30  1  0  0  0  0
 10 11  1  0  0  0  0
 10 31  1  0  0  0  0
 10 32  1  0  0  0  0
 11 12  1  0  0  0  0
 11 33  1  0  0  0  0
 11 34  1  0  0  0  0
 12 13  1  0  0  0  0
 12 35  1  0  0  0  0
 12 36  1  0  0  0  0
 13 37  1  0  0  0  0
 13 38  1  0  0  0  0
 13 39  1  0  0  0  0
M  END
> <PUBCHEM_COMPOUND_CID>
524634
> <PUBCHEM_COMPOUND_CANONICALIZED>
1
> <PUBCHEM_CACTVS_COMPLEXITY>
139
> <PUBCHEM_CACTVS_HBOND_ACCEPTOR>
0
> <PUBCHEM_CACTVS_HBOND_DONOR>
0
> <PUBCHEM_CACTVS_ROTATABLE_BOND>
7
> <PUBCHEM_CACTVS_SUBSKEYS>
AAADceBwAAAAAAAAAAAAAAAAGAAAAAAAAAAAAAAAAAAAAAAAAAAAGAAAAAAADwCAAAACAAAAAAAAAAAAAAAAAAAAAAAAAAAAAAAAAAIAAAAAAAAAAAAAAAEAgMAPgAAAAAAAAAAAAAAAAAAAAAAAAAAAAA==
> <PUBCHEM_IUPAC_OPENEYE_NAME>
2-ethyl-1-heptyl-1-methyl-cyclopropane
> <PUBCHEM_IUPAC_CAS_NAME>
2-ethyl-1-heptyl-1-methylcyclopropane
> <PUBCHEM_IUPAC_NAME_MARKUP>
2-ethyl-1-heptyl-1-methylcyclopropane
> <PUBCHEM_IUPAC_NAME>
2-ethyl-1-heptyl-1-methylcyclopropane
> <PUBCHEM_IUPAC_SYSTEMATIC_NAME>
2-ethyl-1-heptyl-1-methyl-cyclopropane
> <PUBCHEM_IUPAC_TRADITIONAL_NAME>
2-ethyl-1-heptyl-1-methyl-cyclopropane
> <PUBCHEM_IUPAC_INCHI>
InChI=1S/C13H26/c1-4-6-7-8-9-10-13(3)11-12(13)5-2/h12H,4-11H2,1-3H3
> <PUBCHEM_IUPAC_INCHIKEY>
HNJDEOSFIWOKFD-UHFFFAOYSA-N
> <PUBCHEM_XLOGP3_AA>
6.3
> <PUBCHEM_EXACT_MASS>
182.203450829
> <PUBCHEM_MOLECULAR_FORMULA>
C13H26
> <PUBCHEM_MOLECULAR_WEIGHT>
182.35
> <PUBCHEM_OPENEYE_CAN_SMILES>
CCCCCCCC1(CC1CC)C
> <PUBCHEM_OPENEYE_ISO_SMILES>
CCCCCCCC1(CC1CC)C
> <PUBCHEM_CACTVS_TPSA>
0
> <PUBCHEM_MONOISOTOPIC_WEIGHT>
182.203450829
> <PUBCHEM_TOTAL_CHARGE>
0
> <PUBCHEM_HEAVY_ATOM_COUNT>
13
> <PUBCHEM_ATOM_DEF_STEREO_COUNT>
0
> <PUBCHEM_ATOM_UDEF_STEREO_COUNT>
2
> <PUBCHEM_BOND_DEF_STEREO_COUNT>
0
> <PUBCHEM_BOND_UDEF_STEREO_COUNT>
0
> <PUBCHEM_ISOTOPIC_ATOM_COUNT>
0
> <PUBCHEM_COMPONENT_COUNT>
1
> <PUBCHEM_CACTVS_TAUTO_COUNT>
-1
> <PUBCHEM_COORDINATE_TYPE>
1
5
255
> <PUBCHEM_BONDANNOTATIONS>
1  6  3
2  5  3
$$$$
