524650
  -OEChem-10302200292D
 30 30  0     1  0  0  0  0  0999 V2000
    3.3660   -0.6160    0.0000 C   0  0  3  0  0  0  0  0  0  0  0  0
    2.5000   -1.1160    0.0000 C   0  0  3  0  0  0  0  0  0  0  0  0
    2.5000   -0.1160    0.0000 C   0  0  0  0  0  0  0  0  0  0  0  0
    4.3660   -0.6160    0.0000 C   0  0  0  0  0  0  0  0  0  0  0  0
    2.0000   -1.9820    0.0000 C   0  0  0  0  0  0  0  0  0  0  0  0
    4.8660    0.2500    0.0000 C   0  0  0  0  0  0  0  0  0  0  0  0
    5.8660    0.2500    0.0000 C   0  0  0  0  0  0  0  0  0  0  0  0
    6.3660    1.1160    0.0000 C   0  0  0  0  0  0  0  0  0  0  0  0
    7.3660    1.1160    0.0000 C   0  0  0  0  0  0  0  0  0  0  0  0
    5.8660    1.9820    0.0000 C   0  0  0  0  0  0  0  0  0  0  0  0
    3.5265   -0.0172    0.0000 H   0  0  0  0  0  0  0  0  0  0  0  0
    2.9384   -1.5544    0.0000 H   0  0  0  0  0  0  0  0  0  0  0  0
    2.7120    0.4666    0.0000 H   0  0  0  0  0  0  0  0  0  0  0  0
    1.8894   -0.0084    0.0000 H   0  0  0  0  0  0  0  0  0  0  0  0
    4.2584   -1.2266    0.0000 H   0  0  0  0  0  0  0  0  0  0  0  0
    4.9486   -0.8281    0.0000 H   0  0  0  0  0  0  0  0  0  0  0  0
    1.4631   -1.6720    0.0000 H   0  0  0  0  0  0  0  0  0  0  0  0
    1.6900   -2.5190    0.0000 H   0  0  0  0  0  0  0  0  0  0  0  0
    2.5369   -2.2920    0.0000 H   0  0  0  0  0  0  0  0  0  0  0  0
    4.9737    0.8606    0.0000 H   0  0  0  0  0  0  0  0  0  0  0  0
    4.2834    0.4621    0.0000 H   0  0  0  0  0  0  0  0  0  0  0  0
    5.7584   -0.3606    0.0000 H   0  0  0  0  0  0  0  0  0  0  0  0
    6.4486    0.0379    0.0000 H   0  0  0  0  0  0  0  0  0  0  0  0
    6.6760    1.6530    0.0000 H   0  0  0  0  0  0  0  0  0  0  0  0
    7.3660    0.4960    0.0000 H   0  0  0  0  0  0  0  0  0  0  0  0
    7.9860    1.1160    0.0000 H   0  0  0  0  0  0  0  0  0  0  0  0
    7.3660    1.7360    0.0000 H   0  0  0  0  0  0  0  0  0  0  0  0
    6.4030    2.2920    0.0000 H   0  0  0  0  0  0  0  0  0  0  0  0
    5.5560    2.5190    0.0000 H   0  0  0  0  0  0  0  0  0  0  0  0
    5.3291    1.6720    0.0000 H   0  0  0  0  0  0  0  0  0  0  0  0
  1  2  1  0  0  0  0
  1  3  1  0  0  0  0
  1  4  1  0  0  0  0
  1 11  1  0  0  0  0
  2  3  1  0  0  0  0
  2  5  1  0  0  0  0
  2 12  1  0  0  0  0
  3 13  1  0  0  0  0
  3 14  1  0  0  0  0
  4  6  1  0  0  0  0
  4 15  1  0  0  0  0
  4 16  1  0  0  0  0
  5 17  1  0  0  0  0
  5 18  1  0  0  0  0
  5 19  1  0  0  0  0
  6  7  1  0  0  0  0
  6 20  1  0  0  0  0
  6 21  1  0  0  0  0
  7  8  1  0  0  0  0
  7 22  1  0  0  0  0
  7 23  1  0  0  0  0
  8  9  1  0  0  0  0
  8 10  1  0  0  0  0
  8 24  1  0  0  0  0
  9 25  1  0  0  0  0
  9 26  1  0  0  0  0
  9 27  1  0  0  0  0
 10 28  1  0  0  0  0
 10 29  1  0  0  0  0
 10 30  1  0  0  0  0
M  END
> <PUBCHEM_COMPOUND_CID>
524650
> <PUBCHEM_COMPOUND_CANONICALIZED>
1
> <PUBCHEM_CACTVS_COMPLEXITY>
94.2
> <PUBCHEM_CACTVS_HBOND_ACCEPTOR>
0
> <PUBCHEM_CACTVS_HBOND_DONOR>
0
> <PUBCHEM_CACTVS_ROTATABLE_BOND>
4
> <PUBCHEM_CACTVS_SUBSKEYS>
AAADceBwAAAAAAAAAAAAAAAAGAAAAAAAAAAAAAAAAAAAAAAAAAAAGAAAAAAADQCAAAACAAAAAAAAAAAAAAAAAAAAAAAAAAAAAAAAAAIAAAAAAAAAAAAAAAEAgMAOAAAAAAAAAAAAAAAAAAAAAAAAAAAAAA==
> <PUBCHEM_IUPAC_OPENEYE_NAME>
1-isohexyl-2-methyl-cyclopropane
> <PUBCHEM_IUPAC_CAS_NAME>
1-methyl-2-(4-methylpentyl)cyclopropane
> <PUBCHEM_IUPAC_NAME_MARKUP>
1-methyl-2-(4-methylpentyl)cyclopropane
> <PUBCHEM_IUPAC_NAME>
1-methyl-2-(4-methylpentyl)cyclopropane
> <PUBCHEM_IUPAC_SYSTEMATIC_NAME>
1-methyl-2-(4-methylpentyl)cyclopropane
> <PUBCHEM_IUPAC_TRADITIONAL_NAME>
1-isohexyl-2-methyl-cyclopropane
> <PUBCHEM_IUPAC_INCHI>
InChI=1S/C10H20/c1-8(2)5-4-6-10-7-9(10)3/h8-10H,4-7H2,1-3H3
> <PUBCHEM_IUPAC_INCHIKEY>
ZSPHCYPRDPJVKP-UHFFFAOYSA-N
> <PUBCHEM_XLOGP3_AA>
4.5
> <PUBCHEM_EXACT_MASS>
140.156500638
> <PUBCHEM_MOLECULAR_FORMULA>
C10H20
> <PUBCHEM_MOLECULAR_WEIGHT>
140.27
> <PUBCHEM_OPENEYE_CAN_SMILES>
CC1CC1CCCC(C)C
> <PUBCHEM_OPENEYE_ISO_SMILES>
CC1CC1CCCC(C)C
> <PUBCHEM_CACTVS_TPSA>
0
> <PUBCHEM_MONOISOTOPIC_WEIGHT>
140.156500638
> <PUBCHEM_TOTAL_CHARGE>
0
> <PUBCHEM_HEAVY_ATOM_COUNT>
10
> <PUBCHEM_ATOM_DEF_STEREO_COUNT>
0
> <PUBCHEM_ATOM_UDEF_STEREO_COUNT>
2
> <PUBCHEM_BOND_DEF_STEREO_COUNT>
0
> <PUBCHEM_BOND_UDEF_STEREO_COUNT>
0
> <PUBCHEM_ISOTOPIC_ATOM_COUNT>
0
> <PUBCHEM_COMPONENT_COUNT>
1
> <PUBCHEM_CACTVS_TAUTO_COUNT>
-1
> <PUBCHEM_COORDINATE_TYPE>
1
5
255
> <PUBCHEM_BONDANNOTATIONS>
1  4  3
2  5  3
$$$$
