524611
  -OEChem-10302200292D
 28 29  0     1  0  0  0  0  0999 V2000
    5.8660    0.8660    0.0000 C   0  0  3  0  0  0  0  0  0  0  0  0
    3.3660    0.0000    0.0000 C   0  0  3  0  0  0  0  0  0  0  0  0
    6.7320    0.3660    0.0000 C   0  0  3  0  0  0  0  0  0  0  0  0
    2.5000   -0.5000    0.0000 C   0  0  3  0  0  0  0  0  0  0  0  0
    6.7320    1.3660    0.0000 C   0  0  0  0  0  0  0  0  0  0  0  0
    2.5000    0.5000    0.0000 C   0  0  0  0  0  0  0  0  0  0  0  0
    4.8660    0.8660    0.0000 C   0  0  0  0  0  0  0  0  0  0  0  0
    4.3660    0.0000    0.0000 C   0  0  0  0  0  0  0  0  0  0  0  0
    7.2320   -0.5000    0.0000 C   0  0  0  0  0  0  0  0  0  0  0  0
    2.0000   -1.3660    0.0000 C   0  0  0  0  0  0  0  0  0  0  0  0
    5.7056    0.2672    0.0000 H   0  0  0  0  0  0  0  0  0  0  0  0
    3.5265    0.5989    0.0000 H   0  0  0  0  0  0  0  0  0  0  0  0
    7.3309    0.5265    0.0000 H   0  0  0  0  0  0  0  0  0  0  0  0
    1.9011   -0.3395    0.0000 H   0  0  0  0  0  0  0  0  0  0  0  0
    7.3426    1.4737    0.0000 H   0  0  0  0  0  0  0  0  0  0  0  0
    6.5200    1.9486    0.0000 H   0  0  0  0  0  0  0  0  0  0  0  0
    2.7120    1.0826    0.0000 H   0  0  0  0  0  0  0  0  0  0  0  0
    1.8894    0.6077    0.0000 H   0  0  0  0  0  0  0  0  0  0  0  0
    4.9737    1.4766    0.0000 H   0  0  0  0  0  0  0  0  0  0  0  0
    4.2834    1.0781    0.0000 H   0  0  0  0  0  0  0  0  0  0  0  0
    4.2584   -0.6106    0.0000 H   0  0  0  0  0  0  0  0  0  0  0  0
    4.9486   -0.2121    0.0000 H   0  0  0  0  0  0  0  0  0  0  0  0
    6.6951   -0.8100    0.0000 H   0  0  0  0  0  0  0  0  0  0  0  0
    7.5420   -1.0369    0.0000 H   0  0  0  0  0  0  0  0  0  0  0  0
    7.7690   -0.1900    0.0000 H   0  0  0  0  0  0  0  0  0  0  0  0
    1.4631   -1.0560    0.0000 H   0  0  0  0  0  0  0  0  0  0  0  0
    1.6900   -1.9030    0.0000 H   0  0  0  0  0  0  0  0  0  0  0  0
    2.5369   -1.6760    0.0000 H   0  0  0  0  0  0  0  0  0  0  0  0
  1  3  1  0  0  0  0
  1  5  1  0  0  0  0
  1  7  1  0  0  0  0
  1 11  1  0  0  0  0
  2  4  1  0  0  0  0
  2  6  1  0  0  0  0
  2  8  1  0  0  0  0
  2 12  1  0  0  0  0
  3  5  1  0  0  0  0
  3  9  1  0  0  0  0
  3 13  1  0  0  0  0
  4  6  1  0  0  0  0
  4 10  1  0  0  0  0
  4 14  1  0  0  0  0
  5 15  1  0  0  0  0
  5 16  1  0  0  0  0
  6 17  1  0  0  0  0
  6 18  1  0  0  0  0
  7  8  1  0  0  0  0
  7 19  1  0  0  0  0
  7 20  1  0  0  0  0
  8 21  1  0  0  0  0
  8 22  1  0  0  0  0
  9 23  1  0  0  0  0
  9 24  1  0  0  0  0
  9 25  1  0  0  0  0
 10 26  1  0  0  0  0
 10 27  1  0  0  0  0
 10 28  1  0  0  0  0
M  END
> <PUBCHEM_COMPOUND_CID>
524611
> <PUBCHEM_COMPOUND_CANONICALIZED>
1
> <PUBCHEM_CACTVS_COMPLEXITY>
112
> <PUBCHEM_CACTVS_HBOND_ACCEPTOR>
0
> <PUBCHEM_CACTVS_HBOND_DONOR>
0
> <PUBCHEM_CACTVS_ROTATABLE_BOND>
3
> <PUBCHEM_CACTVS_SUBSKEYS>
AAADceBwAAAAAAAAAAAAAAAAGDAAAAAAAAAAAAAAAAAAAAAAAAAAGAAAAAAADQCAAAACAAAAAAAAAAAAAAAAAAAAAAAAAAAAAAAAAAIAAAAAAAAAAAAAAAEAgMAOAAAAAAAAAAAAAAAAAAAAAAAAAAAAAA==
> <PUBCHEM_IUPAC_OPENEYE_NAME>
1-methyl-2-[2-(2-methylcyclopropyl)ethyl]cyclopropane
> <PUBCHEM_IUPAC_CAS_NAME>
1-methyl-2-[2-(2-methylcyclopropyl)ethyl]cyclopropane
> <PUBCHEM_IUPAC_NAME_MARKUP>
1-methyl-2-[2-(2-methylcyclopropyl)ethyl]cyclopropane
> <PUBCHEM_IUPAC_NAME>
1-methyl-2-[2-(2-methylcyclopropyl)ethyl]cyclopropane
> <PUBCHEM_IUPAC_SYSTEMATIC_NAME>
1-methyl-2-[2-(2-methylcyclopropyl)ethyl]cyclopropane
> <PUBCHEM_IUPAC_TRADITIONAL_NAME>
1-methyl-2-[2-(2-methylcyclopropyl)ethyl]cyclopropane
> <PUBCHEM_IUPAC_INCHI>
InChI=1S/C10H18/c1-7-5-9(7)3-4-10-6-8(10)2/h7-10H,3-6H2,1-2H3
> <PUBCHEM_IUPAC_INCHIKEY>
WFOQFWIOHOVKTQ-UHFFFAOYSA-N
> <PUBCHEM_XLOGP3_AA>
4
> <PUBCHEM_EXACT_MASS>
138.140850574
> <PUBCHEM_MOLECULAR_FORMULA>
C10H18
> <PUBCHEM_MOLECULAR_WEIGHT>
138.25
> <PUBCHEM_OPENEYE_CAN_SMILES>
CC1CC1CCC2CC2C
> <PUBCHEM_OPENEYE_ISO_SMILES>
CC1CC1CCC2CC2C
> <PUBCHEM_CACTVS_TPSA>
0
> <PUBCHEM_MONOISOTOPIC_WEIGHT>
138.140850574
> <PUBCHEM_TOTAL_CHARGE>
0
> <PUBCHEM_HEAVY_ATOM_COUNT>
10
> <PUBCHEM_ATOM_DEF_STEREO_COUNT>
0
> <PUBCHEM_ATOM_UDEF_STEREO_COUNT>
4
> <PUBCHEM_BOND_DEF_STEREO_COUNT>
0
> <PUBCHEM_BOND_UDEF_STEREO_COUNT>
0
> <PUBCHEM_ISOTOPIC_ATOM_COUNT>
0
> <PUBCHEM_COMPONENT_COUNT>
1
> <PUBCHEM_CACTVS_TAUTO_COUNT>
-1
> <PUBCHEM_COORDINATE_TYPE>
1
5
255
> <PUBCHEM_BONDANNOTATIONS>
1  7  3
2  8  3
3  9  3
4  10  3
$$$$
