524632
  -OEChem-10302200292D
 31 31  0     1  0  0  0  0  0999 V2000
    4.8660    0.2500    0.0000 C   0  0  3  0  0  0  0  0  0  0  0  0
    4.0000   -0.2500    0.0000 C   0  0  3  0  0  0  0  0  0  0  0  0
    4.0000    0.7500    0.0000 C   0  0  0  0  0  0  0  0  0  0  0  0
    5.8660    0.2500    0.0000 C   0  0  0  0  0  0  0  0  0  0  0  0
    3.5000   -1.1160    0.0000 C   0  0  0  0  0  0  0  0  0  0  0  0
    6.3660    1.1160    0.0000 C   0  0  0  0  0  0  0  0  0  0  0  0
    7.3660    1.1160    0.0000 C   0  0  0  0  0  0  0  0  0  0  0  0
    2.5000   -1.1160    0.0000 C   0  0  0  0  0  0  0  0  0  0  0  0
    7.8660    1.9820    0.0000 C   0  0  0  0  0  0  0  0  0  0  0  0
    2.0000   -1.9820    0.0000 C   0  0  0  0  0  0  0  0  0  0  0  0
    8.8660    1.9820    0.0000 C   0  0  0  0  0  0  0  0  0  0  0  0
    5.0265   -0.3489    0.0000 H   0  0  0  0  0  0  0  0  0  0  0  0
    3.4011   -0.0895    0.0000 H   0  0  0  0  0  0  0  0  0  0  0  0
    4.2120    1.3326    0.0000 H   0  0  0  0  0  0  0  0  0  0  0  0
    3.3894    0.8577    0.0000 H   0  0  0  0  0  0  0  0  0  0  0  0
    5.7584   -0.3606    0.0000 H   0  0  0  0  0  0  0  0  0  0  0  0
    6.4486    0.0379    0.0000 H   0  0  0  0  0  0  0  0  0  0  0  0
    3.3923   -1.7266    0.0000 H   0  0  0  0  0  0  0  0  0  0  0  0
    4.0826   -1.3281    0.0000 H   0  0  0  0  0  0  0  0  0  0  0  0
    6.4737    1.7266    0.0000 H   0  0  0  0  0  0  0  0  0  0  0  0
    5.7834    1.3281    0.0000 H   0  0  0  0  0  0  0  0  0  0  0  0
    7.2584    0.5054    0.0000 H   0  0  0  0  0  0  0  0  0  0  0  0
    7.9486    0.9040    0.0000 H   0  0  0  0  0  0  0  0  0  0  0  0
    2.1900   -0.5791    0.0000 H   0  0  0  0  0  0  0  0  0  0  0  0
    7.9737    2.5926    0.0000 H   0  0  0  0  0  0  0  0  0  0  0  0
    7.2834    2.1941    0.0000 H   0  0  0  0  0  0  0  0  0  0  0  0
    1.3800   -1.9820    0.0000 H   0  0  0  0  0  0  0  0  0  0  0  0
    2.3100   -2.5190    0.0000 H   0  0  0  0  0  0  0  0  0  0  0  0
    8.8660    1.3620    0.0000 H   0  0  0  0  0  0  0  0  0  0  0  0
    9.4860    1.9820    0.0000 H   0  0  0  0  0  0  0  0  0  0  0  0
    8.8660    2.6021    0.0000 H   0  0  0  0  0  0  0  0  0  0  0  0
  1  2  1  0  0  0  0
  1  3  1  0  0  0  0
  1  4  1  0  0  0  0
  1 12  1  0  0  0  0
  2  3  1  0  0  0  0
  2  5  1  0  0  0  0
  2 13  1  0  0  0  0
  3 14  1  0  0  0  0
  3 15  1  0  0  0  0
  4  6  1  0  0  0  0
  4 16  1  0  0  0  0
  4 17  1  0  0  0  0
  5  8  1  0  0  0  0
  5 18  1  0  0  0  0
  5 19  1  0  0  0  0
  6  7  1  0  0  0  0
  6 20  1  0  0  0  0
  6 21  1  0  0  0  0
  7  9  1  0  0  0  0
  7 22  1  0  0  0  0
  7 23  1  0  0  0  0
  8 10  2  0  0  0  0
  8 24  1  0  0  0  0
  9 11  1  0  0  0  0
  9 25  1  0  0  0  0
  9 26  1  0  0  0  0
 10 27  1  0  0  0  0
 10 28  1  0  0  0  0
 11 29  1  0  0  0  0
 11 30  1  0  0  0  0
 11 31  1  0  0  0  0
M  END
> <PUBCHEM_COMPOUND_CID>
524632
> <PUBCHEM_COMPOUND_CANONICALIZED>
1
> <PUBCHEM_CACTVS_COMPLEXITY>
115
> <PUBCHEM_CACTVS_HBOND_ACCEPTOR>
0
> <PUBCHEM_CACTVS_HBOND_DONOR>
0
> <PUBCHEM_CACTVS_ROTATABLE_BOND>
6
> <PUBCHEM_CACTVS_SUBSKEYS>
AAADceBwAAAAAAAAAAAAAAAAGAAAAAAAAAAAAAAAAAAAAAAAAAAAGAAAAAAADQCAAAACAAAAAACAACBCAAAAAAAgAAAIAAAAAAgAAAIAAQAAAAAAgAAAAAEAgMAOAAAAAAAAAAAAAAAAAAAAAAAAAAAAAA==
> <PUBCHEM_IUPAC_OPENEYE_NAME>
1-allyl-2-pentyl-cyclopropane
> <PUBCHEM_IUPAC_CAS_NAME>
1-pentyl-2-prop-2-enylcyclopropane
> <PUBCHEM_IUPAC_NAME_MARKUP>
1-pentyl-2-prop-2-enylcyclopropane
> <PUBCHEM_IUPAC_NAME>
1-pentyl-2-prop-2-enylcyclopropane
> <PUBCHEM_IUPAC_SYSTEMATIC_NAME>
1-pentyl-2-prop-2-enyl-cyclopropane
> <PUBCHEM_IUPAC_TRADITIONAL_NAME>
1-allyl-2-amyl-cyclopropane
> <PUBCHEM_IUPAC_INCHI>
InChI=1S/C11H20/c1-3-5-6-8-11-9-10(11)7-4-2/h4,10-11H,2-3,5-9H2,1H3
> <PUBCHEM_IUPAC_INCHIKEY>
FVVIAJURMZEGKS-UHFFFAOYSA-N
> <PUBCHEM_XLOGP3_AA>
4.9
> <PUBCHEM_EXACT_MASS>
152.156500638
> <PUBCHEM_MOLECULAR_FORMULA>
C11H20
> <PUBCHEM_MOLECULAR_WEIGHT>
152.28
> <PUBCHEM_OPENEYE_CAN_SMILES>
CCCCCC1CC1CC=C
> <PUBCHEM_OPENEYE_ISO_SMILES>
CCCCCC1CC1CC=C
> <PUBCHEM_CACTVS_TPSA>
0
> <PUBCHEM_MONOISOTOPIC_WEIGHT>
152.156500638
> <PUBCHEM_TOTAL_CHARGE>
0
> <PUBCHEM_HEAVY_ATOM_COUNT>
11
> <PUBCHEM_ATOM_DEF_STEREO_COUNT>
0
> <PUBCHEM_ATOM_UDEF_STEREO_COUNT>
2
> <PUBCHEM_BOND_DEF_STEREO_COUNT>
0
> <PUBCHEM_BOND_UDEF_STEREO_COUNT>
0
> <PUBCHEM_ISOTOPIC_ATOM_COUNT>
0
> <PUBCHEM_COMPONENT_COUNT>
1
> <PUBCHEM_CACTVS_TAUTO_COUNT>
-1
> <PUBCHEM_COORDINATE_TYPE>
1
5
255
> <PUBCHEM_BONDANNOTATIONS>
1  4  3
2  5  3
$$$$
