524607
  -OEChem-10302200292D
 34 34  0     1  0  0  0  0  0999 V2000
    2.6147   -1.0766    0.0000 O   0  0  0  0  0  0  0  0  0  0  0  0
    5.3715   -1.2071    0.0000 O   0  0  0  0  0  0  0  0  0  0  0  0
    3.7713   -1.8699    0.0000 O   0  0  0  0  0  0  0  0  0  0  0  0
    3.9974   -0.1527    0.0000 C   0  0  3  0  0  0  0  0  0  0  0  0
    2.9974   -0.1527    0.0000 C   0  0  3  0  0  0  0  0  0  0  0  0
    4.7045    0.5544    0.0000 C   0  0  0  0  0  0  0  0  0  0  0  0
    2.2903    0.5544    0.0000 C   0  0  0  0  0  0  0  0  0  0  0  0
    4.7045    1.5544    0.0000 C   0  0  0  0  0  0  0  0  0  0  0  0
    2.2903    1.5544    0.0000 C   0  0  0  0  0  0  0  0  0  0  0  0
    3.9974    2.2615    0.0000 C   0  0  0  0  0  0  0  0  0  0  0  0
    2.9974    2.2615    0.0000 C   0  0  0  0  0  0  0  0  0  0  0  0
    4.3801   -1.0766    0.0000 C   0  0  0  0  0  0  0  0  0  0  0  0
    5.7542   -2.1310    0.0000 C   0  0  0  0  0  0  0  0  0  0  0  0
    6.7456   -2.2615    0.0000 C   0  0  0  0  0  0  0  0  0  0  0  0
    4.6055   -0.2737    0.0000 H   0  0  0  0  0  0  0  0  0  0  0  0
    3.3418   -0.6682    0.0000 H   0  0  0  0  0  0  0  0  0  0  0  0
    5.0145    0.0175    0.0000 H   0  0  0  0  0  0  0  0  0  0  0  0
    5.3034    0.7149    0.0000 H   0  0  0  0  0  0  0  0  0  0  0  0
    1.6914    0.7149    0.0000 H   0  0  0  0  0  0  0  0  0  0  0  0
    1.9803    0.0175    0.0000 H   0  0  0  0  0  0  0  0  0  0  0  0
    5.3034    1.3939    0.0000 H   0  0  0  0  0  0  0  0  0  0  0  0
    5.0145    2.0913    0.0000 H   0  0  0  0  0  0  0  0  0  0  0  0
    1.9803    2.0913    0.0000 H   0  0  0  0  0  0  0  0  0  0  0  0
    1.6914    1.3939    0.0000 H   0  0  0  0  0  0  0  0  0  0  0  0
    4.5343    2.5715    0.0000 H   0  0  0  0  0  0  0  0  0  0  0  0
    3.8369    2.8604    0.0000 H   0  0  0  0  0  0  0  0  0  0  0  0
    3.1578    2.8604    0.0000 H   0  0  0  0  0  0  0  0  0  0  0  0
    2.4604    2.5715    0.0000 H   0  0  0  0  0  0  0  0  0  0  0  0
    2.0000   -1.1575    0.0000 H   0  0  0  0  0  0  0  0  0  0  0  0
    5.1489   -2.2652    0.0000 H   0  0  0  0  0  0  0  0  0  0  0  0
    5.7812   -2.7504    0.0000 H   0  0  0  0  0  0  0  0  0  0  0  0
    6.6647   -2.8762    0.0000 H   0  0  0  0  0  0  0  0  0  0  0  0
    7.3603   -2.3424    0.0000 H   0  0  0  0  0  0  0  0  0  0  0  0
    6.8266   -1.6468    0.0000 H   0  0  0  0  0  0  0  0  0  0  0  0
  1  5  1  0  0  0  0
  1 29  1  0  0  0  0
  2 12  1  0  0  0  0
  2 13  1  0  0  0  0
  3 12  2  0  0  0  0
  4  5  1  0  0  0  0
  4  6  1  0  0  0  0
  4 12  1  0  0  0  0
  4 15  1  0  0  0  0
  5  7  1  0  0  0  0
  5 16  1  0  0  0  0
  6  8  1  0  0  0  0
  6 17  1  0  0  0  0
  6 18  1  0  0  0  0
  7  9  1  0  0  0  0
  7 19  1  0  0  0  0
  7 20  1  0  0  0  0
  8 10  1  0  0  0  0
  8 21  1  0  0  0  0
  8 22  1  0  0  0  0
  9 11  1  0  0  0  0
  9 23  1  0  0  0  0
  9 24  1  0  0  0  0
 10 11  1  0  0  0  0
 10 25  1  0  0  0  0
 10 26  1  0  0  0  0
 11 27  1  0  0  0  0
 11 28  1  0  0  0  0
 13 14  1  0  0  0  0
 13 30  1  0  0  0  0
 13 31  1  0  0  0  0
 14 32  1  0  0  0  0
 14 33  1  0  0  0  0
 14 34  1  0  0  0  0
M  END
> <PUBCHEM_COMPOUND_CID>
524607
> <PUBCHEM_COMPOUND_CANONICALIZED>
1
> <PUBCHEM_CACTVS_COMPLEXITY>
179
> <PUBCHEM_CACTVS_HBOND_ACCEPTOR>
3
> <PUBCHEM_CACTVS_HBOND_DONOR>
1
> <PUBCHEM_CACTVS_ROTATABLE_BOND>
3
> <PUBCHEM_CACTVS_SUBSKEYS>
AAADceBwMAAAAAAAAAAAAAAAAAAAAAAAAAAAAAAAAAAYAAAAAAAAGgAACAAADRSggAICCAAABgAIAACQCAAAAAAAAAAAAAEAAAAAEBYAAAACQAAFIAAAAAGIyOCOAAAAAAAAAAAAAAAAAAAAAAAAAAAAAA==
> <PUBCHEM_IUPAC_OPENEYE_NAME>
ethyl 2-hydroxycyclooctanecarboxylate
> <PUBCHEM_IUPAC_CAS_NAME>
2-hydroxy-1-cyclooctanecarboxylic acid ethyl ester
> <PUBCHEM_IUPAC_NAME_MARKUP>
ethyl 2-hydroxycyclooctane-1-carboxylate
> <PUBCHEM_IUPAC_NAME>
ethyl 2-hydroxycyclooctane-1-carboxylate
> <PUBCHEM_IUPAC_SYSTEMATIC_NAME>
ethyl 2-oxidanylcyclooctane-1-carboxylate
> <PUBCHEM_IUPAC_TRADITIONAL_NAME>
2-hydroxycyclooctanecarboxylic acid ethyl ester
> <PUBCHEM_IUPAC_INCHI>
InChI=1S/C11H20O3/c1-2-14-11(13)9-7-5-3-4-6-8-10(9)12/h9-10,12H,2-8H2,1H3
> <PUBCHEM_IUPAC_INCHIKEY>
OFXMQOOHGZHGHJ-UHFFFAOYSA-N
> <PUBCHEM_XLOGP3_AA>
2.9
> <PUBCHEM_EXACT_MASS>
200.14124450
> <PUBCHEM_MOLECULAR_FORMULA>
C11H20O3
> <PUBCHEM_MOLECULAR_WEIGHT>
200.27
> <PUBCHEM_OPENEYE_CAN_SMILES>
CCOC(=O)C1CCCCCCC1O
> <PUBCHEM_OPENEYE_ISO_SMILES>
CCOC(=O)C1CCCCCCC1O
> <PUBCHEM_CACTVS_TPSA>
46.5
> <PUBCHEM_MONOISOTOPIC_WEIGHT>
200.14124450
> <PUBCHEM_TOTAL_CHARGE>
0
> <PUBCHEM_HEAVY_ATOM_COUNT>
14
> <PUBCHEM_ATOM_DEF_STEREO_COUNT>
0
> <PUBCHEM_ATOM_UDEF_STEREO_COUNT>
2
> <PUBCHEM_BOND_DEF_STEREO_COUNT>
0
> <PUBCHEM_BOND_UDEF_STEREO_COUNT>
0
> <PUBCHEM_ISOTOPIC_ATOM_COUNT>
0
> <PUBCHEM_COMPONENT_COUNT>
1
> <PUBCHEM_CACTVS_TAUTO_COUNT>
-1
> <PUBCHEM_COORDINATE_TYPE>
1
5
255
> <PUBCHEM_BONDANNOTATIONS>
5  1  3
4  12  3
$$$$
