524628
  -OEChem-10302200292D
 23 23  0     1  0  0  0  0  0999 V2000
    4.3660   -0.1830    0.0000 C   0  0  3  0  0  0  0  0  0  0  0  0
    3.5000   -0.6830    0.0000 C   0  0  3  0  0  0  0  0  0  0  0  0
    3.5000    0.3170    0.0000 C   0  0  0  0  0  0  0  0  0  0  0  0
    5.3660   -0.1830    0.0000 C   0  0  0  0  0  0  0  0  0  0  0  0
    3.0000   -1.5490    0.0000 C   0  0  0  0  0  0  0  0  0  0  0  0
    5.8660    0.6830    0.0000 C   0  0  0  0  0  0  0  0  0  0  0  0
    2.0000   -1.5490    0.0000 C   0  0  0  0  0  0  0  0  0  0  0  0
    6.8660    0.6830    0.0000 C   0  0  0  0  0  0  0  0  0  0  0  0
    7.3660    1.5490    0.0000 C   0  0  0  0  0  0  0  0  0  0  0  0
    4.5265   -0.7819    0.0000 H   0  0  0  0  0  0  0  0  0  0  0  0
    3.9384   -1.1214    0.0000 H   0  0  0  0  0  0  0  0  0  0  0  0
    3.7120    0.8996    0.0000 H   0  0  0  0  0  0  0  0  0  0  0  0
    2.8894    0.4246    0.0000 H   0  0  0  0  0  0  0  0  0  0  0  0
    5.2584   -0.7936    0.0000 H   0  0  0  0  0  0  0  0  0  0  0  0
    5.9486   -0.3951    0.0000 H   0  0  0  0  0  0  0  0  0  0  0  0
    3.3100   -2.0860    0.0000 H   0  0  0  0  0  0  0  0  0  0  0  0
    5.5560    1.2200    0.0000 H   0  0  0  0  0  0  0  0  0  0  0  0
    1.6900   -1.0121    0.0000 H   0  0  0  0  0  0  0  0  0  0  0  0
    1.6900   -2.0860    0.0000 H   0  0  0  0  0  0  0  0  0  0  0  0
    7.1760    0.1461    0.0000 H   0  0  0  0  0  0  0  0  0  0  0  0
    7.9030    1.2390    0.0000 H   0  0  0  0  0  0  0  0  0  0  0  0
    7.6760    2.0860    0.0000 H   0  0  0  0  0  0  0  0  0  0  0  0
    6.8291    1.8590    0.0000 H   0  0  0  0  0  0  0  0  0  0  0  0
  1  2  1  0  0  0  0
  1  3  1  0  0  0  0
  1  4  1  0  0  0  0
  1 10  1  0  0  0  0
  2  3  1  0  0  0  0
  2  5  1  0  0  0  0
  2 11  1  0  0  0  0
  3 12  1  0  0  0  0
  3 13  1  0  0  0  0
  4  6  1  0  0  0  0
  4 14  1  0  0  0  0
  4 15  1  0  0  0  0
  5  7  2  0  0  0  0
  5 16  1  0  0  0  0
  6  8  2  3  0  0  0
  6 17  1  0  0  0  0
  7 18  1  0  0  0  0
  7 19  1  0  0  0  0
  8  9  1  0  0  0  0
  8 20  1  0  0  0  0
  9 21  1  0  0  0  0
  9 22  1  0  0  0  0
  9 23  1  0  0  0  0
M  END
> <PUBCHEM_COMPOUND_CID>
524628
> <PUBCHEM_COMPOUND_CANONICALIZED>
1
> <PUBCHEM_CACTVS_COMPLEXITY>
122
> <PUBCHEM_CACTVS_HBOND_ACCEPTOR>
0
> <PUBCHEM_CACTVS_HBOND_DONOR>
0
> <PUBCHEM_CACTVS_ROTATABLE_BOND>
3
> <PUBCHEM_CACTVS_SUBSKEYS>
AAADccBwAAAAAAAAAAAAAAAAGAAAAAAAAAAAAAAAAAAAAAAAAAAAGAAAAAAADQCAAAACAAAAAACAACBCAAAAAAAgAAAICAAAAAgAAAIAAQAAAAAAgAAIAAMAAAAOAAAAAAAAAAAAAAAAAAAAAAAAAAAAAA==
> <PUBCHEM_IUPAC_OPENEYE_NAME>
1-but-2-enyl-2-vinyl-cyclopropane
> <PUBCHEM_IUPAC_CAS_NAME>
1-but-2-enyl-2-ethenylcyclopropane
> <PUBCHEM_IUPAC_NAME_MARKUP>
1-but-2-enyl-2-ethenylcyclopropane
> <PUBCHEM_IUPAC_NAME>
1-but-2-enyl-2-ethenylcyclopropane
> <PUBCHEM_IUPAC_SYSTEMATIC_NAME>
1-but-2-enyl-2-ethenyl-cyclopropane
> <PUBCHEM_IUPAC_TRADITIONAL_NAME>
1-but-2-enyl-2-vinyl-cyclopropane
> <PUBCHEM_IUPAC_INCHI>
InChI=1S/C9H14/c1-3-5-6-9-7-8(9)4-2/h3-5,8-9H,2,6-7H2,1H3
> <PUBCHEM_IUPAC_INCHIKEY>
LQRHENSHISOYSH-UHFFFAOYSA-N
> <PUBCHEM_XLOGP3_AA>
3
> <PUBCHEM_EXACT_MASS>
122.109550447
> <PUBCHEM_MOLECULAR_FORMULA>
C9H14
> <PUBCHEM_MOLECULAR_WEIGHT>
122.21
> <PUBCHEM_OPENEYE_CAN_SMILES>
CC=CCC1CC1C=C
> <PUBCHEM_OPENEYE_ISO_SMILES>
CC=CCC1CC1C=C
> <PUBCHEM_CACTVS_TPSA>
0
> <PUBCHEM_MONOISOTOPIC_WEIGHT>
122.109550447
> <PUBCHEM_TOTAL_CHARGE>
0
> <PUBCHEM_HEAVY_ATOM_COUNT>
9
> <PUBCHEM_ATOM_DEF_STEREO_COUNT>
0
> <PUBCHEM_ATOM_UDEF_STEREO_COUNT>
2
> <PUBCHEM_BOND_DEF_STEREO_COUNT>
0
> <PUBCHEM_BOND_UDEF_STEREO_COUNT>
1
> <PUBCHEM_ISOTOPIC_ATOM_COUNT>
0
> <PUBCHEM_COMPONENT_COUNT>
1
> <PUBCHEM_CACTVS_TAUTO_COUNT>
-1
> <PUBCHEM_COORDINATE_TYPE>
1
5
255
> <PUBCHEM_BONDANNOTATIONS>
1  4  3
2  5  3
6  8  1
$$$$
