524779
  -OEChem-10302200292D
 35 36  0     1  0  0  0  0  0999 V2000
    7.1962    1.5000    0.0000 Cl  0  0  0  0  0  0  0  0  0  0  0  0
    8.9282    4.5000    0.0000 Cl  0  0  0  0  0  0  0  0  0  0  0  0
    2.0000   -1.5000    0.0000 F   0  0  0  0  0  0  0  0  0  0  0  0
    5.4641   -1.5000    0.0000 F   0  0  0  0  0  0  0  0  0  0  0  0
    5.4641   -3.5000    0.0000 F   0  0  0  0  0  0  0  0  0  0  0  0
    2.0000   -3.5000    0.0000 F   0  0  0  0  0  0  0  0  0  0  0  0
    3.7320   -4.5000    0.0000 F   0  0  0  0  0  0  0  0  0  0  0  0
    5.4641    2.5000    0.0000 O   0  0  0  0  0  0  0  0  0  0  0  0
    4.5981    0.0000    0.0000 O   0  0  0  0  0  0  0  0  0  0  0  0
    3.7320    1.5000    0.0000 O   0  0  0  0  0  0  0  0  0  0  0  0
    5.4641    1.5000    0.0000 C   0  0  3  0  0  0  0  0  0  0  0  0
    3.7320   -1.5000    0.0000 C   0  0  0  0  0  0  0  0  0  0  0  0
    3.7320   -0.5000    0.0000 C   0  0  0  0  0  0  0  0  0  0  0  0
    4.5981    1.0000    0.0000 C   0  0  0  0  0  0  0  0  0  0  0  0
    6.3301    1.0000    0.0000 C   0  0  0  0  0  0  0  0  0  0  0  0
    2.8660   -2.0000    0.0000 C   0  0  0  0  0  0  0  0  0  0  0  0
    4.5981   -2.0000    0.0000 C   0  0  0  0  0  0  0  0  0  0  0  0
    6.3301    3.0000    0.0000 C   0  0  0  0  0  0  0  0  0  0  0  0
    4.5981   -3.0000    0.0000 C   0  0  0  0  0  0  0  0  0  0  0  0
    2.8660   -3.0000    0.0000 C   0  0  0  0  0  0  0  0  0  0  0  0
    3.7320   -3.5000    0.0000 C   0  0  0  0  0  0  0  0  0  0  0  0
    7.1962    2.5000    0.0000 C   0  0  0  0  0  0  0  0  0  0  0  0
    6.3301    4.0000    0.0000 C   0  0  0  0  0  0  0  0  0  0  0  0
    8.0622    3.0000    0.0000 C   0  0  0  0  0  0  0  0  0  0  0  0
    7.1962    4.5000    0.0000 C   0  0  0  0  0  0  0  0  0  0  0  0
    8.0622    4.0000    0.0000 C   0  0  0  0  0  0  0  0  0  0  0  0
    6.0010    1.8100    0.0000 H   0  0  0  0  0  0  0  0  0  0  0  0
    3.5200    0.0826    0.0000 H   0  0  0  0  0  0  0  0  0  0  0  0
    3.1215   -0.6077    0.0000 H   0  0  0  0  0  0  0  0  0  0  0  0
    6.0201    0.4631    0.0000 H   0  0  0  0  0  0  0  0  0  0  0  0
    6.8671    0.6900    0.0000 H   0  0  0  0  0  0  0  0  0  0  0  0
    6.6401    1.5369    0.0000 H   0  0  0  0  0  0  0  0  0  0  0  0
    5.7932    4.3100    0.0000 H   0  0  0  0  0  0  0  0  0  0  0  0
    8.5991    2.6900    0.0000 H   0  0  0  0  0  0  0  0  0  0  0  0
    7.1962    5.1200    0.0000 H   0  0  0  0  0  0  0  0  0  0  0  0
  1 22  1  0  0  0  0
  2 26  1  0  0  0  0
  3 16  1  0  0  0  0
  4 17  1  0  0  0  0
  5 19  1  0  0  0  0
  6 20  1  0  0  0  0
  7 21  1  0  0  0  0
  8 11  1  0  0  0  0
  8 18  1  0  0  0  0
  9 13  1  0  0  0  0
  9 14  1  0  0  0  0
 10 14  2  0  0  0  0
 11 14  1  0  0  0  0
 11 15  1  0  0  0  0
 11 27  1  0  0  0  0
 12 13  1  0  0  0  0
 12 16  2  0  0  0  0
 12 17  1  0  0  0  0
 13 28  1  0  0  0  0
 13 29  1  0  0  0  0
 15 30  1  0  0  0  0
 15 31  1  0  0  0  0
 15 32  1  0  0  0  0
 16 20  1  0  0  0  0
 17 19  2  0  0  0  0
 18 22  2  0  0  0  0
 18 23  1  0  0  0  0
 19 21  1  0  0  0  0
 20 21  2  0  0  0  0
 22 24  1  0  0  0  0
 23 25  2  0  0  0  0
 23 33  1  0  0  0  0
 24 26  2  0  0  0  0
 24 34  1  0  0  0  0
 25 26  1  0  0  0  0
 25 35  1  0  0  0  0
M  END
> <PUBCHEM_COMPOUND_CID>
524779
> <PUBCHEM_COMPOUND_CANONICALIZED>
1
> <PUBCHEM_CACTVS_COMPLEXITY>
473
> <PUBCHEM_CACTVS_HBOND_ACCEPTOR>
8
> <PUBCHEM_CACTVS_HBOND_DONOR>
0
> <PUBCHEM_CACTVS_ROTATABLE_BOND>
6
> <PUBCHEM_CACTVS_SUBSKEYS>
AAADccB4McAGAAAAAAAAAAAAAAAAAAAAAAAwYAAAAAAAAAABQAAAGwIAAAAADBagmCoyDoAABACIAiDSCAICCAAgJUAIiAFGC4gNJiOFMx6COCCkwBEKqAeAwCAOACAAAACACAAAQAAAAQAQAAAAAAAAAA==
> <PUBCHEM_IUPAC_OPENEYE_NAME>
(2,3,4,5,6-pentafluorophenyl)methyl 2-(2,4-dichlorophenoxy)propanoate
> <PUBCHEM_IUPAC_CAS_NAME>
2-(2,4-dichlorophenoxy)propanoic acid (2,3,4,5,6-pentafluorophenyl)methyl ester
> <PUBCHEM_IUPAC_NAME_MARKUP>
(2,3,4,5,6-pentafluorophenyl)methyl 2-(2,4-dichlorophenoxy)propanoate
> <PUBCHEM_IUPAC_NAME>
(2,3,4,5,6-pentafluorophenyl)methyl 2-(2,4-dichlorophenoxy)propanoate
> <PUBCHEM_IUPAC_SYSTEMATIC_NAME>
[2,3,4,5,6-pentakis(fluoranyl)phenyl]methyl 2-[2,4-bis(chloranyl)phenoxy]propanoate
> <PUBCHEM_IUPAC_TRADITIONAL_NAME>
2-(2,4-dichlorophenoxy)propionic acid (2,3,4,5,6-pentafluorobenzyl) ester
> <PUBCHEM_IUPAC_INCHI>
InChI=1S/C16H9Cl2F5O3/c1-6(26-10-3-2-7(17)4-9(10)18)16(24)25-5-8-11(19)13(21)15(23)14(22)12(8)20/h2-4,6H,5H2,1H3
> <PUBCHEM_IUPAC_INCHIKEY>
PCROGCAYPVHGSU-UHFFFAOYSA-N
> <PUBCHEM_XLOGP3>
5.8
> <PUBCHEM_EXACT_MASS>
413.9848903
> <PUBCHEM_MOLECULAR_FORMULA>
C16H9Cl2F5O3
> <PUBCHEM_MOLECULAR_WEIGHT>
415.1
> <PUBCHEM_OPENEYE_CAN_SMILES>
CC(C(=O)OCC1=C(C(=C(C(=C1F)F)F)F)F)OC2=C(C=C(C=C2)Cl)Cl
> <PUBCHEM_OPENEYE_ISO_SMILES>
CC(C(=O)OCC1=C(C(=C(C(=C1F)F)F)F)F)OC2=C(C=C(C=C2)Cl)Cl
> <PUBCHEM_CACTVS_TPSA>
35.5
> <PUBCHEM_MONOISOTOPIC_WEIGHT>
413.9848903
> <PUBCHEM_TOTAL_CHARGE>
0
> <PUBCHEM_HEAVY_ATOM_COUNT>
26
> <PUBCHEM_ATOM_DEF_STEREO_COUNT>
0
> <PUBCHEM_ATOM_UDEF_STEREO_COUNT>
1
> <PUBCHEM_BOND_DEF_STEREO_COUNT>
0
> <PUBCHEM_BOND_UDEF_STEREO_COUNT>
0
> <PUBCHEM_ISOTOPIC_ATOM_COUNT>
0
> <PUBCHEM_COMPONENT_COUNT>
1
> <PUBCHEM_CACTVS_TAUTO_COUNT>
-1
> <PUBCHEM_COORDINATE_TYPE>
1
5
255
> <PUBCHEM_BONDANNOTATIONS>
11  15  3
12  16  8
12  17  8
16  20  8
17  19  8
18  22  8
18  23  8
19  21  8
20  21  8
22  24  8
23  25  8
24  26  8
25  26  8
$$$$
