524773
  -OEChem-10302200292D
 44 46  0     1  0  0  0  0  0999 V2000
    2.2680   -1.9890    0.0000 O   0  0  0  0  0  0  0  0  0  0  0  0
    4.9397    0.3530    0.0000 N   0  0  0  0  0  0  0  0  0  0  0  0
    4.0000    0.0110    0.0000 C   0  0  3  0  0  0  0  0  0  0  0  0
    3.1340   -0.4890    0.0000 C   0  0  0  0  0  0  0  0  0  0  0  0
    4.8660   -0.4890    0.0000 C   0  0  0  0  0  0  0  0  0  0  0  0
    3.1340   -1.4890    0.0000 C   0  0  3  0  0  0  0  0  0  0  0  0
    4.8660   -1.4890    0.0000 C   0  0  0  0  0  0  0  0  0  0  0  0
    4.0000   -1.9890    0.0000 C   0  0  0  0  0  0  0  0  0  0  0  0
    5.7057   -0.2898    0.0000 C   0  0  0  0  0  0  0  0  0  0  0  0
    5.1133    1.3378    0.0000 C   0  0  0  0  0  0  0  0  0  0  0  0
    3.5000    0.8770    0.0000 C   0  0  0  0  0  0  0  0  0  0  0  0
    6.6454    0.0522    0.0000 C   0  0  0  0  0  0  0  0  0  0  0  0
    6.0530    1.6798    0.0000 C   0  0  0  0  0  0  0  0  0  0  0  0
    6.8191    1.0370    0.0000 C   0  0  0  0  0  0  0  0  0  0  0  0
    4.0000    1.7430    0.0000 C   0  0  0  0  0  0  0  0  0  0  0  0
    2.5000    0.8770    0.0000 C   0  0  0  0  0  0  0  0  0  0  0  0
    3.5000    2.6090    0.0000 C   0  0  0  0  0  0  0  0  0  0  0  0
    2.0000    1.7430    0.0000 C   0  0  0  0  0  0  0  0  0  0  0  0
    2.5000    2.6090    0.0000 C   0  0  0  0  0  0  0  0  0  0  0  0
    2.9219    0.0936    0.0000 H   0  0  0  0  0  0  0  0  0  0  0  0
    2.5234   -0.5967    0.0000 H   0  0  0  0  0  0  0  0  0  0  0  0
    5.4766   -0.5967    0.0000 H   0  0  0  0  0  0  0  0  0  0  0  0
    5.0781    0.0936    0.0000 H   0  0  0  0  0  0  0  0  0  0  0  0
    3.1340   -2.1090    0.0000 H   0  0  0  0  0  0  0  0  0  0  0  0
    5.0781   -2.0716    0.0000 H   0  0  0  0  0  0  0  0  0  0  0  0
    5.4766   -1.3814    0.0000 H   0  0  0  0  0  0  0  0  0  0  0  0
    3.6015   -2.4640    0.0000 H   0  0  0  0  0  0  0  0  0  0  0  0
    4.3985   -2.4640    0.0000 H   0  0  0  0  0  0  0  0  0  0  0  0
    5.2308   -0.6883    0.0000 H   0  0  0  0  0  0  0  0  0  0  0  0
    6.0157   -0.8267    0.0000 H   0  0  0  0  0  0  0  0  0  0  0  0
    5.0057    1.9484    0.0000 H   0  0  0  0  0  0  0  0  0  0  0  0
    4.4933    1.3378    0.0000 H   0  0  0  0  0  0  0  0  0  0  0  0
    6.7531   -0.5584    0.0000 H   0  0  0  0  0  0  0  0  0  0  0  0
    7.2654    0.0522    0.0000 H   0  0  0  0  0  0  0  0  0  0  0  0
    6.5280    2.0783    0.0000 H   0  0  0  0  0  0  0  0  0  0  0  0
    5.7430    2.2168    0.0000 H   0  0  0  0  0  0  0  0  0  0  0  0
    7.4017    0.8250    0.0000 H   0  0  0  0  0  0  0  0  0  0  0  0
    7.1291    1.5740    0.0000 H   0  0  0  0  0  0  0  0  0  0  0  0
    4.6200    1.7430    0.0000 H   0  0  0  0  0  0  0  0  0  0  0  0
    2.1900    0.3401    0.0000 H   0  0  0  0  0  0  0  0  0  0  0  0
    2.2680   -2.6090    0.0000 H   0  0  0  0  0  0  0  0  0  0  0  0
    3.8100    3.1460    0.0000 H   0  0  0  0  0  0  0  0  0  0  0  0
    1.3800    1.7430    0.0000 H   0  0  0  0  0  0  0  0  0  0  0  0
    2.1900    3.1460    0.0000 H   0  0  0  0  0  0  0  0  0  0  0  0
  1  6  1  0  0  0  0
  1 41  1  0  0  0  0
  2  3  1  0  0  0  0
  2  9  1  0  0  0  0
  2 10  1  0  0  0  0
  3  4  1  0  0  0  0
  3  5  1  0  0  0  0
  3 11  1  0  0  0  0
  4  6  1  0  0  0  0
  4 20  1  0  0  0  0
  4 21  1  0  0  0  0
  5  7  1  0  0  0  0
  5 22  1  0  0  0  0
  5 23  1  0  0  0  0
  6  8  1  0  0  0  0
  6 24  1  0  0  0  0
  7  8  1  0  0  0  0
  7 25  1  0  0  0  0
  7 26  1  0  0  0  0
  8 27  1  0  0  0  0
  8 28  1  0  0  0  0
  9 12  1  0  0  0  0
  9 29  1  0  0  0  0
  9 30  1  0  0  0  0
 10 13  1  0  0  0  0
 10 31  1  0  0  0  0
 10 32  1  0  0  0  0
 11 15  2  0  0  0  0
 11 16  1  0  0  0  0
 12 14  1  0  0  0  0
 12 33  1  0  0  0  0
 12 34  1  0  0  0  0
 13 14  1  0  0  0  0
 13 35  1  0  0  0  0
 13 36  1  0  0  0  0
 14 37  1  0  0  0  0
 14 38  1  0  0  0  0
 15 17  1  0  0  0  0
 15 39  1  0  0  0  0
 16 18  2  0  0  0  0
 16 40  1  0  0  0  0
 17 19  2  0  0  0  0
 17 42  1  0  0  0  0
 18 19  1  0  0  0  0
 18 43  1  0  0  0  0
 19 44  1  0  0  0  0
M  END
> <PUBCHEM_COMPOUND_CID>
524773
> <PUBCHEM_COMPOUND_CANONICALIZED>
1
> <PUBCHEM_CACTVS_COMPLEXITY>
281
> <PUBCHEM_CACTVS_HBOND_ACCEPTOR>
2
> <PUBCHEM_CACTVS_HBOND_DONOR>
1
> <PUBCHEM_CACTVS_ROTATABLE_BOND>
2
> <PUBCHEM_CACTVS_SUBSKEYS>
AAADceB6IAAAAAAAAAAAAAAAAAAAAAAAAAA8YIAAAAAAAAABAAAAHgAACAAADJzhmAYwAIMAAgCAAiBCAACCAAAgAAAIiAAIBIgIMCKAkRGEYAhmgACIiAeQ0PMOgAAAAAAAAAAAAAIEAAAAAAAAAAAAAA==
> <PUBCHEM_IUPAC_OPENEYE_NAME>
3-phenyl-3-(1-piperidyl)cyclohexanol
> <PUBCHEM_IUPAC_CAS_NAME>
3-phenyl-3-(1-piperidinyl)-1-cyclohexanol
> <PUBCHEM_IUPAC_NAME_MARKUP>
3-phenyl-3-piperidin-1-ylcyclohexan-1-ol
> <PUBCHEM_IUPAC_NAME>
3-phenyl-3-piperidin-1-ylcyclohexan-1-ol
> <PUBCHEM_IUPAC_SYSTEMATIC_NAME>
3-phenyl-3-piperidin-1-yl-cyclohexan-1-ol
> <PUBCHEM_IUPAC_TRADITIONAL_NAME>
3-phenyl-3-piperidino-cyclohexanol
> <PUBCHEM_IUPAC_INCHI>
InChI=1S/C17H25NO/c19-16-10-7-11-17(14-16,15-8-3-1-4-9-15)18-12-5-2-6-13-18/h1,3-4,8-9,16,19H,2,5-7,10-14H2
> <PUBCHEM_IUPAC_INCHIKEY>
NHEKQIGDKRYTQF-UHFFFAOYSA-N
> <PUBCHEM_XLOGP3>
2.5
> <PUBCHEM_EXACT_MASS>
259.193614421
> <PUBCHEM_MOLECULAR_FORMULA>
C17H25NO
> <PUBCHEM_MOLECULAR_WEIGHT>
259.4
> <PUBCHEM_OPENEYE_CAN_SMILES>
C1CCN(CC1)C2(CCCC(C2)O)C3=CC=CC=C3
> <PUBCHEM_OPENEYE_ISO_SMILES>
C1CCN(CC1)C2(CCCC(C2)O)C3=CC=CC=C3
> <PUBCHEM_CACTVS_TPSA>
23.5
> <PUBCHEM_MONOISOTOPIC_WEIGHT>
259.193614421
> <PUBCHEM_TOTAL_CHARGE>
0
> <PUBCHEM_HEAVY_ATOM_COUNT>
19
> <PUBCHEM_ATOM_DEF_STEREO_COUNT>
0
> <PUBCHEM_ATOM_UDEF_STEREO_COUNT>
2
> <PUBCHEM_BOND_DEF_STEREO_COUNT>
0
> <PUBCHEM_BOND_UDEF_STEREO_COUNT>
0
> <PUBCHEM_ISOTOPIC_ATOM_COUNT>
0
> <PUBCHEM_COMPONENT_COUNT>
1
> <PUBCHEM_CACTVS_TAUTO_COUNT>
-1
> <PUBCHEM_COORDINATE_TYPE>
1
5
255
> <PUBCHEM_BONDANNOTATIONS>
6  1  3
11  15  8
11  16  8
15  17  8
16  18  8
17  19  8
18  19  8
3  11  3
$$$$
