524769
  -OEChem-10302200292D
 44 46  0     1  0  0  0  0  0999 V2000
    7.8191    1.4330    0.0000 O   0  0  0  0  0  0  0  0  0  0  0  0
    5.3191    0.5670    0.0000 N   0  0  3  0  0  0  0  0  0  0  0  0
    4.8191   -0.2990    0.0000 C   0  0  0  0  0  0  0  0  0  0  0  0
    3.9530   -0.7990    0.0000 C   0  0  0  0  0  0  0  0  0  0  0  0
    5.6851   -0.7990    0.0000 C   0  0  0  0  0  0  0  0  0  0  0  0
    3.9530   -1.7990    0.0000 C   0  0  0  0  0  0  0  0  0  0  0  0
    5.6851   -1.7990    0.0000 C   0  0  0  0  0  0  0  0  0  0  0  0
    6.3191    0.5670    0.0000 C   0  0  0  0  0  0  0  0  0  0  0  0
    4.8191    1.4330    0.0000 C   0  0  0  0  0  0  0  0  0  0  0  0
    4.8191   -2.2990    0.0000 C   0  0  0  0  0  0  0  0  0  0  0  0
    3.8794    0.0430    0.0000 C   0  0  0  0  0  0  0  0  0  0  0  0
    6.8191    1.4330    0.0000 C   0  0  3  0  0  0  0  0  0  0  0  0
    5.3191    2.2990    0.0000 C   0  0  0  0  0  0  0  0  0  0  0  0
    6.3191    2.2990    0.0000 C   0  0  0  0  0  0  0  0  0  0  0  0
    3.7057    1.0278    0.0000 C   0  0  0  0  0  0  0  0  0  0  0  0
    3.1133   -0.5998    0.0000 C   0  0  0  0  0  0  0  0  0  0  0  0
    2.7660    1.3698    0.0000 C   0  0  0  0  0  0  0  0  0  0  0  0
    2.1736   -0.2578    0.0000 C   0  0  0  0  0  0  0  0  0  0  0  0
    2.0000    0.7270    0.0000 C   0  0  0  0  0  0  0  0  0  0  0  0
    3.7410   -0.2164    0.0000 H   0  0  0  0  0  0  0  0  0  0  0  0
    3.3425   -0.9067    0.0000 H   0  0  0  0  0  0  0  0  0  0  0  0
    6.2957   -0.9067    0.0000 H   0  0  0  0  0  0  0  0  0  0  0  0
    5.8972   -0.2164    0.0000 H   0  0  0  0  0  0  0  0  0  0  0  0
    3.3425   -1.6914    0.0000 H   0  0  0  0  0  0  0  0  0  0  0  0
    3.7410   -2.3816    0.0000 H   0  0  0  0  0  0  0  0  0  0  0  0
    5.8972   -2.3816    0.0000 H   0  0  0  0  0  0  0  0  0  0  0  0
    6.2957   -1.6914    0.0000 H   0  0  0  0  0  0  0  0  0  0  0  0
    6.2114   -0.0436    0.0000 H   0  0  0  0  0  0  0  0  0  0  0  0
    6.9017    0.3549    0.0000 H   0  0  0  0  0  0  0  0  0  0  0  0
    4.3441    1.8315    0.0000 H   0  0  0  0  0  0  0  0  0  0  0  0
    4.3441    1.0345    0.0000 H   0  0  0  0  0  0  0  0  0  0  0  0
    4.4206   -2.7740    0.0000 H   0  0  0  0  0  0  0  0  0  0  0  0
    5.2176   -2.7740    0.0000 H   0  0  0  0  0  0  0  0  0  0  0  0
    7.1291    1.9700    0.0000 H   0  0  0  0  0  0  0  0  0  0  0  0
    5.4267    2.9096    0.0000 H   0  0  0  0  0  0  0  0  0  0  0  0
    4.7365    2.5111    0.0000 H   0  0  0  0  0  0  0  0  0  0  0  0
    6.9017    2.5111    0.0000 H   0  0  0  0  0  0  0  0  0  0  0  0
    6.2114    2.9096    0.0000 H   0  0  0  0  0  0  0  0  0  0  0  0
    4.1807    1.4263    0.0000 H   0  0  0  0  0  0  0  0  0  0  0  0
    3.2210   -1.2104    0.0000 H   0  0  0  0  0  0  0  0  0  0  0  0
    8.1291    1.9700    0.0000 H   0  0  0  0  0  0  0  0  0  0  0  0
    2.6584    1.9804    0.0000 H   0  0  0  0  0  0  0  0  0  0  0  0
    1.6987   -0.6563    0.0000 H   0  0  0  0  0  0  0  0  0  0  0  0
    1.4174    0.9391    0.0000 H   0  0  0  0  0  0  0  0  0  0  0  0
  1 12  1  0  0  0  0
  1 41  1  0  0  0  0
  2  3  1  0  0  0  0
  2  8  1  0  0  0  0
  2  9  1  0  0  0  0
  3  4  1  0  0  0  0
  3  5  1  0  0  0  0
  3 11  1  0  0  0  0
  4  6  1  0  0  0  0
  4 20  1  0  0  0  0
  4 21  1  0  0  0  0
  5  7  1  0  0  0  0
  5 22  1  0  0  0  0
  5 23  1  0  0  0  0
  6 10  1  0  0  0  0
  6 24  1  0  0  0  0
  6 25  1  0  0  0  0
  7 10  1  0  0  0  0
  7 26  1  0  0  0  0
  7 27  1  0  0  0  0
  8 12  1  0  0  0  0
  8 28  1  0  0  0  0
  8 29  1  0  0  0  0
  9 13  1  0  0  0  0
  9 30  1  0  0  0  0
  9 31  1  0  0  0  0
 10 32  1  0  0  0  0
 10 33  1  0  0  0  0
 11 15  2  0  0  0  0
 11 16  1  0  0  0  0
 12 14  1  0  0  0  0
 12 34  1  0  0  0  0
 13 14  1  0  0  0  0
 13 35  1  0  0  0  0
 13 36  1  0  0  0  0
 14 37  1  0  0  0  0
 14 38  1  0  0  0  0
 15 17  1  0  0  0  0
 15 39  1  0  0  0  0
 16 18  2  0  0  0  0
 16 40  1  0  0  0  0
 17 19  2  0  0  0  0
 17 42  1  0  0  0  0
 18 19  1  0  0  0  0
 18 43  1  0  0  0  0
 19 44  1  0  0  0  0
M  END
> <PUBCHEM_COMPOUND_CID>
524769
> <PUBCHEM_COMPOUND_CANONICALIZED>
1
> <PUBCHEM_CACTVS_COMPLEXITY>
279
> <PUBCHEM_CACTVS_HBOND_ACCEPTOR>
2
> <PUBCHEM_CACTVS_HBOND_DONOR>
1
> <PUBCHEM_CACTVS_ROTATABLE_BOND>
2
> <PUBCHEM_CACTVS_SUBSKEYS>
AAADceB6IAAAAAAAAAAAAAAAAAAAAAAAAAA8YIAAAAAAAAABAAAAHgAACAAADJzhmAYwAIMAAgCAAiBCAACCAAAgAAAIiAAIBIgKMCKAkRGEYAhkgACYiAcwgMAOgAAAAAAAAAAAAAAAAAAAAAAAAAAAAA==
> <PUBCHEM_IUPAC_OPENEYE_NAME>
1-(1-phenylcyclohexyl)piperidin-3-ol
> <PUBCHEM_IUPAC_CAS_NAME>
1-(1-phenylcyclohexyl)-3-piperidinol
> <PUBCHEM_IUPAC_NAME_MARKUP>
1-(1-phenylcyclohexyl)piperidin-3-ol
> <PUBCHEM_IUPAC_NAME>
1-(1-phenylcyclohexyl)piperidin-3-ol
> <PUBCHEM_IUPAC_SYSTEMATIC_NAME>
1-(1-phenylcyclohexyl)piperidin-3-ol
> <PUBCHEM_IUPAC_TRADITIONAL_NAME>
1-(1-phenylcyclohexyl)piperidin-3-ol
> <PUBCHEM_IUPAC_INCHI>
InChI=1S/C17H25NO/c19-16-10-7-13-18(14-16)17(11-5-2-6-12-17)15-8-3-1-4-9-15/h1,3-4,8-9,16,19H,2,5-7,10-14H2
> <PUBCHEM_IUPAC_INCHIKEY>
REOJDWNPCWABRJ-UHFFFAOYSA-N
> <PUBCHEM_XLOGP3>
2.7
> <PUBCHEM_EXACT_MASS>
259.193614421
> <PUBCHEM_MOLECULAR_FORMULA>
C17H25NO
> <PUBCHEM_MOLECULAR_WEIGHT>
259.4
> <PUBCHEM_OPENEYE_CAN_SMILES>
C1CCC(CC1)(C2=CC=CC=C2)N3CCCC(C3)O
> <PUBCHEM_OPENEYE_ISO_SMILES>
C1CCC(CC1)(C2=CC=CC=C2)N3CCCC(C3)O
> <PUBCHEM_CACTVS_TPSA>
23.5
> <PUBCHEM_MONOISOTOPIC_WEIGHT>
259.193614421
> <PUBCHEM_TOTAL_CHARGE>
0
> <PUBCHEM_HEAVY_ATOM_COUNT>
19
> <PUBCHEM_ATOM_DEF_STEREO_COUNT>
0
> <PUBCHEM_ATOM_UDEF_STEREO_COUNT>
1
> <PUBCHEM_BOND_DEF_STEREO_COUNT>
0
> <PUBCHEM_BOND_UDEF_STEREO_COUNT>
0
> <PUBCHEM_ISOTOPIC_ATOM_COUNT>
0
> <PUBCHEM_COMPONENT_COUNT>
1
> <PUBCHEM_CACTVS_TAUTO_COUNT>
-1
> <PUBCHEM_COORDINATE_TYPE>
1
5
255
> <PUBCHEM_BONDANNOTATIONS>
12  1  3
11  15  8
11  16  8
15  17  8
16  18  8
17  19  8
18  19  8
$$$$
