524797
  -OEChem-10302200292D
 34 35  0     1  0  0  0  0  0999 V2000
    5.4392    0.7239    0.0000 C   0  0  3  0  0  0  0  0  0  0  0  0
    4.5731    1.2239    0.0000 C   0  0  3  0  0  0  0  0  0  0  0  0
    5.4394    1.7244    0.0000 C   0  0  0  0  0  0  0  0  0  0  0  0
    5.4392   -0.2761    0.0000 C   0  0  0  0  0  0  0  0  0  0  0  0
    3.7071    0.7239    0.0000 C   0  0  0  0  0  0  0  0  0  0  0  0
    5.5640   -1.2244    0.0000 C   0  0  0  0  0  0  0  0  0  0  0  0
    2.7071    0.7239    0.0000 C   0  0  0  0  0  0  0  0  0  0  0  0
    4.6980   -1.7244    0.0000 C   0  0  0  0  0  0  0  0  0  0  0  0
    2.0000    0.0168    0.0000 C   0  0  0  0  0  0  0  0  0  0  0  0
    3.8320   -1.2244    0.0000 C   0  0  0  0  0  0  0  0  0  0  0  0
    2.0000   -0.9832    0.0000 C   0  0  0  0  0  0  0  0  0  0  0  0
    2.8660   -1.4832    0.0000 C   0  0  0  0  0  0  0  0  0  0  0  0
    6.0592    0.7238    0.0000 H   0  0  0  0  0  0  0  0  0  0  0  0
    4.2631    1.7608    0.0000 H   0  0  0  0  0  0  0  0  0  0  0  0
    6.0500    1.8320    0.0000 H   0  0  0  0  0  0  0  0  0  0  0  0
    5.2273    2.3070    0.0000 H   0  0  0  0  0  0  0  0  0  0  0  0
    4.8892    0.0102    0.0000 H   0  0  0  0  0  0  0  0  0  0  0  0
    6.0578   -0.2355    0.0000 H   0  0  0  0  0  0  0  0  0  0  0  0
    3.4950    0.1413    0.0000 H   0  0  0  0  0  0  0  0  0  0  0  0
    3.5466    1.3228    0.0000 H   0  0  0  0  0  0  0  0  0  0  0  0
    5.8013   -1.7972    0.0000 H   0  0  0  0  0  0  0  0  0  0  0  0
    6.1629   -1.0639    0.0000 H   0  0  0  0  0  0  0  0  0  0  0  0
    2.8676    1.3228    0.0000 H   0  0  0  0  0  0  0  0  0  0  0  0
    2.1702    1.0339    0.0000 H   0  0  0  0  0  0  0  0  0  0  0  0
    4.2994   -2.1993    0.0000 H   0  0  0  0  0  0  0  0  0  0  0  0
    5.0965   -2.1993    0.0000 H   0  0  0  0  0  0  0  0  0  0  0  0
    1.6900    0.5538    0.0000 H   0  0  0  0  0  0  0  0  0  0  0  0
    1.4011   -0.1437    0.0000 H   0  0  0  0  0  0  0  0  0  0  0  0
    4.2704   -0.7860    0.0000 H   0  0  0  0  0  0  0  0  0  0  0  0
    3.5220   -0.6874    0.0000 H   0  0  0  0  0  0  0  0  0  0  0  0
    1.3894   -0.8755    0.0000 H   0  0  0  0  0  0  0  0  0  0  0  0
    1.7880   -1.5658    0.0000 H   0  0  0  0  0  0  0  0  0  0  0  0
    2.4276   -1.9216    0.0000 H   0  0  0  0  0  0  0  0  0  0  0  0
    3.1760   -2.0201    0.0000 H   0  0  0  0  0  0  0  0  0  0  0  0
  1  2  1  0  0  0  0
  1  3  1  0  0  0  0
  1  4  1  0  0  0  0
  1 13  1  0  0  0  0
  2  3  1  0  0  0  0
  2  5  1  0  0  0  0
  2 14  1  0  0  0  0
  3 15  1  0  0  0  0
  3 16  1  0  0  0  0
  4  6  1  0  0  0  0
  4 17  1  0  0  0  0
  4 18  1  0  0  0  0
  5  7  1  0  0  0  0
  5 19  1  0  0  0  0
  5 20  1  0  0  0  0
  6  8  1  0  0  0  0
  6 21  1  0  0  0  0
  6 22  1  0  0  0  0
  7  9  1  0  0  0  0
  7 23  1  0  0  0  0
  7 24  1  0  0  0  0
  8 10  1  0  0  0  0
  8 25  1  0  0  0  0
  8 26  1  0  0  0  0
  9 11  1  0  0  0  0
  9 27  1  0  0  0  0
  9 28  1  0  0  0  0
 10 12  1  0  0  0  0
 10 29  1  0  0  0  0
 10 30  1  0  0  0  0
 11 12  1  0  0  0  0
 11 31  1  0  0  0  0
 11 32  1  0  0  0  0
 12 33  1  0  0  0  0
 12 34  1  0  0  0  0
M  END
> <PUBCHEM_COMPOUND_CID>
524797
> <PUBCHEM_COMPOUND_CANONICALIZED>
1
> <PUBCHEM_CACTVS_COMPLEXITY>
114
> <PUBCHEM_CACTVS_HBOND_ACCEPTOR>
0
> <PUBCHEM_CACTVS_HBOND_DONOR>
0
> <PUBCHEM_CACTVS_ROTATABLE_BOND>
0
> <PUBCHEM_CACTVS_SUBSKEYS>
AAADceBwAAAAAAAAAAAAAAAAGAAAAAAAAAAAAAAAAAAAAAAAAAAAGAAAAAAADQCAAAAAAAAAAAAAAAAAAAAAAAAAAAAAAAAAAAAAAAIAAAAAAAAAAAAAAAEAgMAOAAAAAAAAAAAAAAAAAAAAAAAAAAAAAA==
> <PUBCHEM_IUPAC_OPENEYE_NAME>
bicyclo[9.1.0]dodecane
> <PUBCHEM_IUPAC_CAS_NAME>
bicyclo[9.1.0]dodecane
> <PUBCHEM_IUPAC_NAME_MARKUP>
bicyclo[9.1.0]dodecane
> <PUBCHEM_IUPAC_NAME>
bicyclo[9.1.0]dodecane
> <PUBCHEM_IUPAC_SYSTEMATIC_NAME>
bicyclo[9.1.0]dodecane
> <PUBCHEM_IUPAC_TRADITIONAL_NAME>
bicyclo[9.1.0]dodecane
> <PUBCHEM_IUPAC_INCHI>
InChI=1S/C12H22/c1-2-4-6-8-11-10-12(11)9-7-5-3-1/h11-12H,1-10H2
> <PUBCHEM_IUPAC_INCHIKEY>
XQFRSUMWQAZSJW-UHFFFAOYSA-N
> <PUBCHEM_XLOGP3_AA>
5.7
> <PUBCHEM_EXACT_MASS>
166.172150702
> <PUBCHEM_MOLECULAR_FORMULA>
C12H22
> <PUBCHEM_MOLECULAR_WEIGHT>
166.30
> <PUBCHEM_OPENEYE_CAN_SMILES>
C1CCCCC2CC2CCCC1
> <PUBCHEM_OPENEYE_ISO_SMILES>
C1CCCCC2CC2CCCC1
> <PUBCHEM_CACTVS_TPSA>
0
> <PUBCHEM_MONOISOTOPIC_WEIGHT>
166.172150702
> <PUBCHEM_TOTAL_CHARGE>
0
> <PUBCHEM_HEAVY_ATOM_COUNT>
12
> <PUBCHEM_ATOM_DEF_STEREO_COUNT>
0
> <PUBCHEM_ATOM_UDEF_STEREO_COUNT>
2
> <PUBCHEM_BOND_DEF_STEREO_COUNT>
0
> <PUBCHEM_BOND_UDEF_STEREO_COUNT>
0
> <PUBCHEM_ISOTOPIC_ATOM_COUNT>
0
> <PUBCHEM_COMPONENT_COUNT>
1
> <PUBCHEM_CACTVS_TAUTO_COUNT>
-1
> <PUBCHEM_COORDINATE_TYPE>
1
5
255
> <PUBCHEM_BONDANNOTATIONS>
1  4  3
2  5  3
$$$$
