524792
  -OEChem-10302200292D
 25 26  0     1  0  0  0  0  0999 V2000
    3.3422   -0.6402    0.0000 C   0  0  3  0  0  0  0  0  0  0  0  0
    2.4412   -0.2063    0.0000 C   0  0  3  0  0  0  0  0  0  0  0  0
    2.9084   -1.5504    0.0000 C   0  0  0  0  0  0  0  0  0  0  0  0
    2.0000   -1.1130    0.0000 C   0  0  0  0  0  0  0  0  0  0  0  0
    4.2432   -0.2063    0.0000 C   0  0  0  0  0  0  0  0  0  0  0  0
    2.2187    0.7686    0.0000 C   0  0  0  0  0  0  0  0  0  0  0  0
    4.4657    0.7686    0.0000 C   0  0  0  0  0  0  0  0  0  0  0  0
    2.8422    1.5504    0.0000 C   0  0  0  0  0  0  0  0  0  0  0  0
    3.8422    1.5504    0.0000 C   0  0  0  0  0  0  0  0  0  0  0  0
    3.7815   -1.0777    0.0000 H   0  0  0  0  0  0  0  0  0  0  0  0
    1.8252   -0.1356    0.0000 H   0  0  0  0  0  0  0  0  0  0  0  0
    2.6402   -2.1094    0.0000 H   0  0  0  0  0  0  0  0  0  0  0  0
    3.4678   -1.8179    0.0000 H   0  0  0  0  0  0  0  0  0  0  0  0
    1.4421   -0.8424    0.0000 H   0  0  0  0  0  0  0  0  0  0  0  0
    1.7302   -1.6712    0.0000 H   0  0  0  0  0  0  0  0  0  0  0  0
    4.3811   -0.8108    0.0000 H   0  0  0  0  0  0  0  0  0  0  0  0
    4.8632   -0.2063    0.0000 H   0  0  0  0  0  0  0  0  0  0  0  0
    1.8321    1.2533    0.0000 H   0  0  0  0  0  0  0  0  0  0  0  0
    1.6601    0.4996    0.0000 H   0  0  0  0  0  0  0  0  0  0  0  0
    5.0243    0.4996    0.0000 H   0  0  0  0  0  0  0  0  0  0  0  0
    4.8522    1.2533    0.0000 H   0  0  0  0  0  0  0  0  0  0  0  0
    2.9801    2.1549    0.0000 H   0  0  0  0  0  0  0  0  0  0  0  0
    2.2836    1.8194    0.0000 H   0  0  0  0  0  0  0  0  0  0  0  0
    4.4008    1.8194    0.0000 H   0  0  0  0  0  0  0  0  0  0  0  0
    3.7042    2.1549    0.0000 H   0  0  0  0  0  0  0  0  0  0  0  0
  1  2  1  0  0  0  0
  1  3  1  0  0  0  0
  1  5  1  0  0  0  0
  1 10  1  0  0  0  0
  2  4  1  0  0  0  0
  2  6  1  0  0  0  0
  2 11  1  0  0  0  0
  3  4  1  0  0  0  0
  3 12  1  0  0  0  0
  3 13  1  0  0  0  0
  4 14  1  0  0  0  0
  4 15  1  0  0  0  0
  5  7  1  0  0  0  0
  5 16  1  0  0  0  0
  5 17  1  0  0  0  0
  6  8  1  0  0  0  0
  6 18  1  0  0  0  0
  6 19  1  0  0  0  0
  7  9  1  0  0  0  0
  7 20  1  0  0  0  0
  7 21  1  0  0  0  0
  8  9  1  0  0  0  0
  8 22  1  0  0  0  0
  8 23  1  0  0  0  0
  9 24  1  0  0  0  0
  9 25  1  0  0  0  0
M  END
> <PUBCHEM_COMPOUND_CID>
524792
> <PUBCHEM_COMPOUND_CANONICALIZED>
1
> <PUBCHEM_CACTVS_COMPLEXITY>
84.2
> <PUBCHEM_CACTVS_HBOND_ACCEPTOR>
0
> <PUBCHEM_CACTVS_HBOND_DONOR>
0
> <PUBCHEM_CACTVS_ROTATABLE_BOND>
0
> <PUBCHEM_CACTVS_SUBSKEYS>
AAADceBwAAAAAAAAAAAAAAAAAABgAAAAAAAAAAAABgAAAGAAAAAAGAAAAAAADQCAAAAAAAAAAAAAAAAAAAAAAAAAAAAAAAAAAAAAAAIAAAAAAAAAAAAAAAEAgMAOgAAAAAAAAAAAAAAAAAAAAAAAAAAAAA==
> <PUBCHEM_IUPAC_OPENEYE_NAME>
bicyclo[5.2.0]nonane
> <PUBCHEM_IUPAC_CAS_NAME>
bicyclo[5.2.0]nonane
> <PUBCHEM_IUPAC_NAME_MARKUP>
bicyclo[5.2.0]nonane
> <PUBCHEM_IUPAC_NAME>
bicyclo[5.2.0]nonane
> <PUBCHEM_IUPAC_SYSTEMATIC_NAME>
bicyclo[5.2.0]nonane
> <PUBCHEM_IUPAC_TRADITIONAL_NAME>
bicyclo[5.2.0]nonane
> <PUBCHEM_IUPAC_INCHI>
InChI=1S/C9H16/c1-2-4-8-6-7-9(8)5-3-1/h8-9H,1-7H2
> <PUBCHEM_IUPAC_INCHIKEY>
TWONWILUDBHKQU-UHFFFAOYSA-N
> <PUBCHEM_XLOGP3_AA>
4.1
> <PUBCHEM_EXACT_MASS>
124.125200510
> <PUBCHEM_MOLECULAR_FORMULA>
C9H16
> <PUBCHEM_MOLECULAR_WEIGHT>
124.22
> <PUBCHEM_OPENEYE_CAN_SMILES>
C1CCC2CCC2CC1
> <PUBCHEM_OPENEYE_ISO_SMILES>
C1CCC2CCC2CC1
> <PUBCHEM_CACTVS_TPSA>
0
> <PUBCHEM_MONOISOTOPIC_WEIGHT>
124.125200510
> <PUBCHEM_TOTAL_CHARGE>
0
> <PUBCHEM_HEAVY_ATOM_COUNT>
9
> <PUBCHEM_ATOM_DEF_STEREO_COUNT>
0
> <PUBCHEM_ATOM_UDEF_STEREO_COUNT>
2
> <PUBCHEM_BOND_DEF_STEREO_COUNT>
0
> <PUBCHEM_BOND_UDEF_STEREO_COUNT>
0
> <PUBCHEM_ISOTOPIC_ATOM_COUNT>
0
> <PUBCHEM_COMPONENT_COUNT>
1
> <PUBCHEM_CACTVS_TAUTO_COUNT>
-1
> <PUBCHEM_COORDINATE_TYPE>
1
5
255
> <PUBCHEM_BONDANNOTATIONS>
1  5  3
2  6  3
$$$$
