524809
  -OEChem-10302200292D
 27 27  0     1  0  0  0  0  0999 V2000
    4.5032    0.2694    0.0000 C   0  0  3  0  0  0  0  0  0  0  0  0
    3.6942   -0.3184    0.0000 C   0  0  3  0  0  0  0  0  0  0  0  0
    5.3122   -0.3184    0.0000 C   0  0  3  0  0  0  0  0  0  0  0  0
    4.0032   -1.2694    0.0000 C   0  0  0  0  0  0  0  0  0  0  0  0
    5.0032   -1.2694    0.0000 C   0  0  0  0  0  0  0  0  0  0  0  0
    2.7431   -0.0093    0.0000 C   0  0  0  0  0  0  0  0  0  0  0  0
    4.5032    1.2694    0.0000 C   0  0  0  0  0  0  0  0  0  0  0  0
    6.2633   -0.0093    0.0000 C   0  0  0  0  0  0  0  0  0  0  0  0
    2.0000   -0.6785    0.0000 C   0  0  0  0  0  0  0  0  0  0  0  0
    3.9508    0.5509    0.0000 H   0  0  0  0  0  0  0  0  0  0  0  0
    3.2558   -0.7568    0.0000 H   0  0  0  0  0  0  0  0  0  0  0  0
    5.7506   -0.7568    0.0000 H   0  0  0  0  0  0  0  0  0  0  0  0
    3.3968   -1.3983    0.0000 H   0  0  0  0  0  0  0  0  0  0  0  0
    4.0680   -1.8860    0.0000 H   0  0  0  0  0  0  0  0  0  0  0  0
    4.9384   -1.8860    0.0000 H   0  0  0  0  0  0  0  0  0  0  0  0
    5.6097   -1.3983    0.0000 H   0  0  0  0  0  0  0  0  0  0  0  0
    3.0342    0.5381    0.0000 H   0  0  0  0  0  0  0  0  0  0  0  0
    2.2546    0.3724    0.0000 H   0  0  0  0  0  0  0  0  0  0  0  0
    5.1232    1.2694    0.0000 H   0  0  0  0  0  0  0  0  0  0  0  0
    4.5032    1.8894    0.0000 H   0  0  0  0  0  0  0  0  0  0  0  0
    3.8832    1.2694    0.0000 H   0  0  0  0  0  0  0  0  0  0  0  0
    6.4549   -0.5990    0.0000 H   0  0  0  0  0  0  0  0  0  0  0  0
    6.8530    0.1822    0.0000 H   0  0  0  0  0  0  0  0  0  0  0  0
    6.0717    0.5803    0.0000 H   0  0  0  0  0  0  0  0  0  0  0  0
    1.5851   -0.2177    0.0000 H   0  0  0  0  0  0  0  0  0  0  0  0
    1.5392   -1.0933    0.0000 H   0  0  0  0  0  0  0  0  0  0  0  0
    2.4149   -1.1392    0.0000 H   0  0  0  0  0  0  0  0  0  0  0  0
  1  2  1  0  0  0  0
  1  3  1  0  0  0  0
  1  7  1  0  0  0  0
  1 10  1  0  0  0  0
  2  4  1  0  0  0  0
  2  6  1  0  0  0  0
  2 11  1  0  0  0  0
  3  5  1  0  0  0  0
  3  8  1  0  0  0  0
  3 12  1  0  0  0  0
  4  5  1  0  0  0  0
  4 13  1  0  0  0  0
  4 14  1  0  0  0  0
  5 15  1  0  0  0  0
  5 16  1  0  0  0  0
  6  9  1  0  0  0  0
  6 17  1  0  0  0  0
  6 18  1  0  0  0  0
  7 19  1  0  0  0  0
  7 20  1  0  0  0  0
  7 21  1  0  0  0  0
  8 22  1  0  0  0  0
  8 23  1  0  0  0  0
  8 24  1  0  0  0  0
  9 25  1  0  0  0  0
  9 26  1  0  0  0  0
  9 27  1  0  0  0  0
M  END
> <PUBCHEM_COMPOUND_CID>
524809
> <PUBCHEM_COMPOUND_CANONICALIZED>
1
> <PUBCHEM_CACTVS_COMPLEXITY>
86
> <PUBCHEM_CACTVS_HBOND_ACCEPTOR>
0
> <PUBCHEM_CACTVS_HBOND_DONOR>
0
> <PUBCHEM_CACTVS_ROTATABLE_BOND>
1
> <PUBCHEM_CACTVS_SUBSKEYS>
AAADceBwAAAAAAAAAAAAAAAAAAAAAYAAAAAAAAAAAAAAAAAAAAAAGAAAAAAADQCAAAACAAAAAAAAAAAAAAAAAAAAAAAAAAAAAAAAAAIAAAAAAAAAAAAAAAEAgMAOgAAAAAAAAAAAAAAAAAAAAQAACAAAAA==
> <PUBCHEM_IUPAC_OPENEYE_NAME>
1-ethyl-2,3-dimethyl-cyclopentane
> <PUBCHEM_IUPAC_CAS_NAME>
1-ethyl-2,3-dimethylcyclopentane
> <PUBCHEM_IUPAC_NAME_MARKUP>
1-ethyl-2,3-dimethylcyclopentane
> <PUBCHEM_IUPAC_NAME>
1-ethyl-2,3-dimethylcyclopentane
> <PUBCHEM_IUPAC_SYSTEMATIC_NAME>
1-ethyl-2,3-dimethyl-cyclopentane
> <PUBCHEM_IUPAC_TRADITIONAL_NAME>
1-ethyl-2,3-dimethyl-cyclopentane
> <PUBCHEM_IUPAC_INCHI>
InChI=1S/C9H18/c1-4-9-6-5-7(2)8(9)3/h7-9H,4-6H2,1-3H3
> <PUBCHEM_IUPAC_INCHIKEY>
UMUGNPFWQJAOJI-UHFFFAOYSA-N
> <PUBCHEM_XLOGP3_AA>
4
> <PUBCHEM_EXACT_MASS>
126.140850574
> <PUBCHEM_MOLECULAR_FORMULA>
C9H18
> <PUBCHEM_MOLECULAR_WEIGHT>
126.24
> <PUBCHEM_OPENEYE_CAN_SMILES>
CCC1CCC(C1C)C
> <PUBCHEM_OPENEYE_ISO_SMILES>
CCC1CCC(C1C)C
> <PUBCHEM_CACTVS_TPSA>
0
> <PUBCHEM_MONOISOTOPIC_WEIGHT>
126.140850574
> <PUBCHEM_TOTAL_CHARGE>
0
> <PUBCHEM_HEAVY_ATOM_COUNT>
9
> <PUBCHEM_ATOM_DEF_STEREO_COUNT>
0
> <PUBCHEM_ATOM_UDEF_STEREO_COUNT>
3
> <PUBCHEM_BOND_DEF_STEREO_COUNT>
0
> <PUBCHEM_BOND_UDEF_STEREO_COUNT>
0
> <PUBCHEM_ISOTOPIC_ATOM_COUNT>
0
> <PUBCHEM_COMPONENT_COUNT>
1
> <PUBCHEM_CACTVS_TAUTO_COUNT>
-1
> <PUBCHEM_COORDINATE_TYPE>
1
5
255
> <PUBCHEM_BONDANNOTATIONS>
1  7  3
2  6  3
3  8  3
$$$$
