524936
  -OEChem-10302200292D
 76 80  0     1  0  0  0  0  0999 V2000
    3.1890   -0.9248    0.0000 Si  0  0  0  0  0  0  0  0  0  0  0  0
    4.0531   -1.4281    0.0000 O   0  0  0  0  0  0  0  0  0  0  0  0
   10.7031    2.8795    0.0000 O   0  0  0  0  0  0  0  0  0  0  0  0
    7.7141    0.6242    0.0000 C   0  0  3  0  0  0  0  0  0  0  0  0
    6.8041    0.1174    0.0000 C   0  0  3  0  0  0  0  0  0  0  0  0
    8.5802    0.1242    0.0000 C   0  0  3  0  0  0  0  0  0  0  0  0
    9.4462    0.6242    0.0000 C   0  0  3  0  0  0  0  0  0  0  0  0
    6.7961   -0.9242    0.0000 C   0  0  3  0  0  0  0  0  0  0  0  0
    9.4462    1.6242    0.0000 C   0  0  3  0  0  0  0  0  0  0  0  0
    7.7141    1.6242    0.0000 C   0  0  0  0  0  0  0  0  0  0  0  0
    8.5962   -0.9173    0.0000 C   0  0  0  0  0  0  0  0  0  0  0  0
    7.6982   -1.4450    0.0000 C   0  0  0  0  0  0  0  0  0  0  0  0
    8.5802    2.1242    0.0000 C   0  0  0  0  0  0  0  0  0  0  0  0
    5.8773    0.6814    0.0000 C   0  0  0  0  0  0  0  0  0  0  0  0
    5.8607   -1.4740    0.0000 C   0  0  0  0  0  0  0  0  0  0  0  0
   10.3924    0.3195    0.0000 C   0  0  0  0  0  0  0  0  0  0  0  0
    6.8118    1.1173    0.0000 C   0  0  0  0  0  0  0  0  0  0  0  0
    4.9211   -0.9315    0.0000 C   0  0  3  0  0  0  0  0  0  0  0  0
    4.9294    0.1535    0.0000 C   0  0  0  0  0  0  0  0  0  0  0  0
   10.3924    1.9289    0.0000 C   0  0  0  0  0  0  0  0  0  0  0  0
   10.9760    1.1242    0.0000 C   0  0  0  0  0  0  0  0  0  0  0  0
    9.4462    2.6242    0.0000 C   0  0  0  0  0  0  0  0  0  0  0  0
    2.9773   -1.9021    0.0000 C   0  0  0  0  0  0  0  0  0  0  0  0
    3.6924   -0.0607    0.0000 C   0  0  0  0  0  0  0  0  0  0  0  0
    2.2117   -0.7131    0.0000 C   0  0  0  0  0  0  0  0  0  0  0  0
    3.0261    0.6850    0.0000 C   0  0  0  0  0  0  0  0  0  0  0  0
    2.1110    0.2818    0.0000 C   0  0  0  0  0  0  0  0  0  0  0  0
    2.7657   -2.8795    0.0000 C   0  0  0  0  0  0  0  0  0  0  0  0
    2.0000   -1.6904    0.0000 C   0  0  0  0  0  0  0  0  0  0  0  0
    3.9547   -2.1138    0.0000 C   0  0  0  0  0  0  0  0  0  0  0  0
    8.2511    0.9342    0.0000 H   0  0  0  0  0  0  0  0  0  0  0  0
    9.1195   -0.1816    0.0000 H   0  0  0  0  0  0  0  0  0  0  0  0
    9.5118    0.0077    0.0000 H   0  0  0  0  0  0  0  0  0  0  0  0
    6.7985   -1.5442    0.0000 H   0  0  0  0  0  0  0  0  0  0  0  0
    7.5021    2.2068    0.0000 H   0  0  0  0  0  0  0  0  0  0  0  0
    7.1036    1.5166    0.0000 H   0  0  0  0  0  0  0  0  0  0  0  0
    8.8143   -1.4977    0.0000 H   0  0  0  0  0  0  0  0  0  0  0  0
    9.2054   -0.8018    0.0000 H   0  0  0  0  0  0  0  0  0  0  0  0
    7.3009   -1.9210    0.0000 H   0  0  0  0  0  0  0  0  0  0  0  0
    8.0992   -1.9179    0.0000 H   0  0  0  0  0  0  0  0  0  0  0  0
    8.9787    2.5992    0.0000 H   0  0  0  0  0  0  0  0  0  0  0  0
    8.1816    2.5992    0.0000 H   0  0  0  0  0  0  0  0  0  0  0  0
    6.2855    1.1481    0.0000 H   0  0  0  0  0  0  0  0  0  0  0  0
    5.4874    1.1635    0.0000 H   0  0  0  0  0  0  0  0  0  0  0  0
    5.4634   -1.9499    0.0000 H   0  0  0  0  0  0  0  0  0  0  0  0
    6.2617   -1.9468    0.0000 H   0  0  0  0  0  0  0  0  0  0  0  0
   10.1414   -0.2474    0.0000 H   0  0  0  0  0  0  0  0  0  0  0  0
   10.9298    0.0103    0.0000 H   0  0  0  0  0  0  0  0  0  0  0  0
    7.4318    1.1126    0.0000 H   0  0  0  0  0  0  0  0  0  0  0  0
    6.8166    1.7373    0.0000 H   0  0  0  0  0  0  0  0  0  0  0  0
    6.1919    1.1221    0.0000 H   0  0  0  0  0  0  0  0  0  0  0  0
    4.9199   -1.5515    0.0000 H   0  0  0  0  0  0  0  0  0  0  0  0
    4.7249    0.7388    0.0000 H   0  0  0  0  0  0  0  0  0  0  0  0
    4.3178    0.0521    0.0000 H   0  0  0  0  0  0  0  0  0  0  0  0
   11.4369    0.7095    0.0000 H   0  0  0  0  0  0  0  0  0  0  0  0
   11.4369    1.5389    0.0000 H   0  0  0  0  0  0  0  0  0  0  0  0
   10.0662    2.6242    0.0000 H   0  0  0  0  0  0  0  0  0  0  0  0
    9.4462    3.2442    0.0000 H   0  0  0  0  0  0  0  0  0  0  0  0
    8.8262    2.6242    0.0000 H   0  0  0  0  0  0  0  0  0  0  0  0
    4.1925   -0.4271    0.0000 H   0  0  0  0  0  0  0  0  0  0  0  0
    4.1090    0.3985    0.0000 H   0  0  0  0  0  0  0  0  0  0  0  0
    1.5917   -0.7107    0.0000 H   0  0  0  0  0  0  0  0  0  0  0  0
    2.1445   -1.3294    0.0000 H   0  0  0  0  0  0  0  0  0  0  0  0
    3.5291    1.0475    0.0000 H   0  0  0  0  0  0  0  0  0  0  0  0
    2.7182    1.2232    0.0000 H   0  0  0  0  0  0  0  0  0  0  0  0
    1.9217    0.8722    0.0000 H   0  0  0  0  0  0  0  0  0  0  0  0
    1.5040    0.1552    0.0000 H   0  0  0  0  0  0  0  0  0  0  0  0
    2.1597   -2.7482    0.0000 H   0  0  0  0  0  0  0  0  0  0  0  0
    2.6344   -3.4854    0.0000 H   0  0  0  0  0  0  0  0  0  0  0  0
    3.3716   -3.0107    0.0000 H   0  0  0  0  0  0  0  0  0  0  0  0
    2.1312   -1.0845    0.0000 H   0  0  0  0  0  0  0  0  0  0  0  0
    1.3940   -1.5592    0.0000 H   0  0  0  0  0  0  0  0  0  0  0  0
    1.8688   -2.2964    0.0000 H   0  0  0  0  0  0  0  0  0  0  0  0
    3.8234   -2.7198    0.0000 H   0  0  0  0  0  0  0  0  0  0  0  0
    4.5606   -2.2450    0.0000 H   0  0  0  0  0  0  0  0  0  0  0  0
    4.0859   -1.5079    0.0000 H   0  0  0  0  0  0  0  0  0  0  0  0
  1  2  1  0  0  0  0
  1 23  1  0  0  0  0
  1 24  1  0  0  0  0
  1 25  1  0  0  0  0
  2 18  1  0  0  0  0
  3 20  2  0  0  0  0
  4  5  1  0  0  0  0
  4  6  1  0  0  0  0
  4 10  1  0  0  0  0
  4 31  1  0  0  0  0
  5  8  1  0  0  0  0
  5 14  1  0  0  0  0
  5 17  1  0  0  0  0
  6  7  1  0  0  0  0
  6 11  1  0  0  0  0
  6 32  1  0  0  0  0
  7  9  1  0  0  0  0
  7 16  1  0  0  0  0
  7 33  1  0  0  0  0
  8 12  1  0  0  0  0
  8 15  1  0  0  0  0
  8 34  1  0  0  0  0
  9 13  1  0  0  0  0
  9 20  1  0  0  0  0
  9 22  1  0  0  0  0
 10 13  1  0  0  0  0
 10 35  1  0  0  0  0
 10 36  1  0  0  0  0
 11 12  1  0  0  0  0
 11 37  1  0  0  0  0
 11 38  1  0  0  0  0
 12 39  1  0  0  0  0
 12 40  1  0  0  0  0
 13 41  1  0  0  0  0
 13 42  1  0  0  0  0
 14 19  1  0  0  0  0
 14 43  1  0  0  0  0
 14 44  1  0  0  0  0
 15 18  1  0  0  0  0
 15 45  1  0  0  0  0
 15 46  1  0  0  0  0
 16 21  1  0  0  0  0
 16 47  1  0  0  0  0
 16 48  1  0  0  0  0
 17 49  1  0  0  0  0
 17 50  1  0  0  0  0
 17 51  1  0  0  0  0
 18 19  1  0  0  0  0
 18 52  1  0  0  0  0
 19 53  1  0  0  0  0
 19 54  1  0  0  0  0
 20 21  1  0  0  0  0
 21 55  1  0  0  0  0
 21 56  1  0  0  0  0
 22 57  1  0  0  0  0
 22 58  1  0  0  0  0
 22 59  1  0  0  0  0
 23 28  1  0  0  0  0
 23 29  1  0  0  0  0
 23 30  1  0  0  0  0
 24 26  1  0  0  0  0
 24 60  1  0  0  0  0
 24 61  1  0  0  0  0
 25 27  1  0  0  0  0
 25 62  1  0  0  0  0
 25 63  1  0  0  0  0
 26 27  1  0  0  0  0
 26 64  1  0  0  0  0
 26 65  1  0  0  0  0
 27 66  1  0  0  0  0
 27 67  1  0  0  0  0
 28 68  1  0  0  0  0
 28 69  1  0  0  0  0
 28 70  1  0  0  0  0
 29 71  1  0  0  0  0
 29 72  1  0  0  0  0
 29 73  1  0  0  0  0
 30 74  1  0  0  0  0
 30 75  1  0  0  0  0
 30 76  1  0  0  0  0
M  END
> <PUBCHEM_COMPOUND_CID>
524936
> <PUBCHEM_COMPOUND_CANONICALIZED>
1
> <PUBCHEM_CACTVS_COMPLEXITY>
690
> <PUBCHEM_CACTVS_HBOND_ACCEPTOR>
2
> <PUBCHEM_CACTVS_HBOND_DONOR>
0
> <PUBCHEM_CACTVS_ROTATABLE_BOND>
3
> <PUBCHEM_CACTVS_SUBSKEYS>
AAADcfB4MAgAAAAAAAAAAAAAAAAAAaIAAAAwYMAAAAAAAGDAAAAAGhAAAEAADxSgoAJCAAAAAAEIAIAQAAAAAAAAAAAAAAEAAAAAABIAAAAAAAAEAAAAAAGIyPCPgAAAAAAAAADAAAYAACAAAAAACAAAAA==
> <PUBCHEM_IUPAC_OPENEYE_NAME>
3-(1-tert-butylsilolan-1-yl)oxy-10,13-dimethyl-1,2,3,4,5,6,7,8,9,11,12,14,15,16-tetradecahydrocyclopenta[a]phenanthren-17-one
> <PUBCHEM_IUPAC_CAS_NAME>
3-[(1-tert-butyl-1-silolanyl)oxy]-10,13-dimethyl-1,2,3,4,5,6,7,8,9,11,12,14,15,16-tetradecahydrocyclopenta[a]phenanthren-17-one
> <PUBCHEM_IUPAC_NAME_MARKUP>
3-(1-<I>tert</I>-butylsilolan-1-yl)oxy-10,13-dimethyl-1,2,3,4,5,6,7,8,9,11,12,14,15,16-tetradecahydrocyclopenta[a]phenanthren-17-one
> <PUBCHEM_IUPAC_NAME>
3-(1-tert-butylsilolan-1-yl)oxy-10,13-dimethyl-1,2,3,4,5,6,7,8,9,11,12,14,15,16-tetradecahydrocyclopenta[a]phenanthren-17-one
> <PUBCHEM_IUPAC_SYSTEMATIC_NAME>
3-(1-tert-butylsilolan-1-yl)oxy-10,13-dimethyl-1,2,3,4,5,6,7,8,9,11,12,14,15,16-tetradecahydrocyclopenta[a]phenanthren-17-one
> <PUBCHEM_IUPAC_TRADITIONAL_NAME>
3-(1-tert-butylsilolan-1-yl)oxy-10,13-dimethyl-1,2,3,4,5,6,7,8,9,11,12,14,15,16-tetradecahydrocyclopenta[a]phenanthren-17-one
> <PUBCHEM_IUPAC_INCHI>
InChI=1S/C27H46O2Si/c1-25(2,3)30(16-6-7-17-30)29-20-12-14-26(4)19(18-20)8-9-21-22-10-11-24(28)27(22,5)15-13-23(21)26/h19-23H,6-18H2,1-5H3
> <PUBCHEM_IUPAC_INCHIKEY>
BSVQVMAFWBNYSZ-UHFFFAOYSA-N
> <PUBCHEM_EXACT_MASS>
430.32670724
> <PUBCHEM_MOLECULAR_FORMULA>
C27H46O2Si
> <PUBCHEM_MOLECULAR_WEIGHT>
430.7
> <PUBCHEM_OPENEYE_CAN_SMILES>
CC12CCC(CC1CCC3C2CCC4(C3CCC4=O)C)O[Si]5(CCCC5)C(C)(C)C
> <PUBCHEM_OPENEYE_ISO_SMILES>
CC12CCC(CC1CCC3C2CCC4(C3CCC4=O)C)O[Si]5(CCCC5)C(C)(C)C
> <PUBCHEM_CACTVS_TPSA>
26.3
> <PUBCHEM_MONOISOTOPIC_WEIGHT>
430.32670724
> <PUBCHEM_TOTAL_CHARGE>
0
> <PUBCHEM_HEAVY_ATOM_COUNT>
30
> <PUBCHEM_ATOM_DEF_STEREO_COUNT>
0
> <PUBCHEM_ATOM_UDEF_STEREO_COUNT>
7
> <PUBCHEM_BOND_DEF_STEREO_COUNT>
0
> <PUBCHEM_BOND_UDEF_STEREO_COUNT>
0
> <PUBCHEM_ISOTOPIC_ATOM_COUNT>
0
> <PUBCHEM_COMPONENT_COUNT>
1
> <PUBCHEM_CACTVS_TAUTO_COUNT>
-1
> <PUBCHEM_COORDINATE_TYPE>
1
5
255
> <PUBCHEM_BONDANNOTATIONS>
18  2  3
4  10  3
5  17  3
6  11  3
7  16  3
8  12  3
9  22  3
$$$$
