524934
  -OEChem-10302200292D
 46 47  0     1  0  0  0  0  0999 V2000
    6.3301    1.7500    0.0000 O   0  0  0  0  0  0  0  0  0  0  0  0
    6.3301   -2.2500    0.0000 O   0  0  0  0  0  0  0  0  0  0  0  0
    4.5981   -2.2500    0.0000 O   0  0  0  0  0  0  0  0  0  0  0  0
    3.7320    0.2500    0.0000 O   0  0  0  0  0  0  0  0  0  0  0  0
    7.1962    0.2500    0.0000 N   0  0  0  0  0  0  0  0  0  0  0  0
    5.4641   -0.7500    0.0000 N   0  0  0  0  0  0  0  0  0  0  0  0
    7.1962   -0.7500    0.0000 C   0  0  3  0  0  0  0  0  0  0  0  0
    8.1424   -1.0547    0.0000 C   0  0  0  0  0  0  0  0  0  0  0  0
    5.4641    0.2500    0.0000 C   0  0  3  0  0  0  0  0  0  0  0  0
    8.1424    0.5547    0.0000 C   0  0  0  0  0  0  0  0  0  0  0  0
    8.7260   -0.2500    0.0000 C   0  0  0  0  0  0  0  0  0  0  0  0
    6.3301    0.7500    0.0000 C   0  0  0  0  0  0  0  0  0  0  0  0
    6.3301   -1.2500    0.0000 C   0  0  0  0  0  0  0  0  0  0  0  0
    4.5981    0.7500    0.0000 C   0  0  0  0  0  0  0  0  0  0  0  0
    4.5981    1.7500    0.0000 C   0  0  0  0  0  0  0  0  0  0  0  0
    4.5981   -1.2500    0.0000 C   0  0  0  0  0  0  0  0  0  0  0  0
    3.7320    2.2500    0.0000 C   0  0  0  0  0  0  0  0  0  0  0  0
    5.4641    2.2500    0.0000 C   0  0  0  0  0  0  0  0  0  0  0  0
    3.7320   -0.7500    0.0000 C   0  0  0  0  0  0  0  0  0  0  0  0
    2.8660   -1.2500    0.0000 C   0  0  0  0  0  0  0  0  0  0  0  0
    2.0000   -0.7500    0.0000 C   0  0  0  0  0  0  0  0  0  0  0  0
    2.8660   -2.2500    0.0000 C   0  0  0  0  0  0  0  0  0  0  0  0
    7.2618   -1.3665    0.0000 H   0  0  0  0  0  0  0  0  0  0  0  0
    7.8913   -1.6216    0.0000 H   0  0  0  0  0  0  0  0  0  0  0  0
    8.6798   -1.3640    0.0000 H   0  0  0  0  0  0  0  0  0  0  0  0
    4.9272   -0.0600    0.0000 H   0  0  0  0  0  0  0  0  0  0  0  0
    8.6798    0.8640    0.0000 H   0  0  0  0  0  0  0  0  0  0  0  0
    7.8913    1.1216    0.0000 H   0  0  0  0  0  0  0  0  0  0  0  0
    9.1868   -0.6647    0.0000 H   0  0  0  0  0  0  0  0  0  0  0  0
    9.1868    0.1647    0.0000 H   0  0  0  0  0  0  0  0  0  0  0  0
    3.9875    0.8577    0.0000 H   0  0  0  0  0  0  0  0  0  0  0  0
    4.3860    0.1674    0.0000 H   0  0  0  0  0  0  0  0  0  0  0  0
    4.5981    2.3700    0.0000 H   0  0  0  0  0  0  0  0  0  0  0  0
    4.0420    2.7869    0.0000 H   0  0  0  0  0  0  0  0  0  0  0  0
    3.1951    2.5600    0.0000 H   0  0  0  0  0  0  0  0  0  0  0  0
    3.4220    1.7131    0.0000 H   0  0  0  0  0  0  0  0  0  0  0  0
    5.7741    1.7131    0.0000 H   0  0  0  0  0  0  0  0  0  0  0  0
    6.0010    2.5600    0.0000 H   0  0  0  0  0  0  0  0  0  0  0  0
    5.1541    2.7869    0.0000 H   0  0  0  0  0  0  0  0  0  0  0  0
    2.8660   -0.6300    0.0000 H   0  0  0  0  0  0  0  0  0  0  0  0
    2.3100   -0.2131    0.0000 H   0  0  0  0  0  0  0  0  0  0  0  0
    1.4631   -0.4400    0.0000 H   0  0  0  0  0  0  0  0  0  0  0  0
    1.6900   -1.2869    0.0000 H   0  0  0  0  0  0  0  0  0  0  0  0
    2.2460   -2.2500    0.0000 H   0  0  0  0  0  0  0  0  0  0  0  0
    2.8660   -2.8700    0.0000 H   0  0  0  0  0  0  0  0  0  0  0  0
    3.4860   -2.2500    0.0000 H   0  0  0  0  0  0  0  0  0  0  0  0
  1 12  2  0  0  0  0
  2 13  2  0  0  0  0
  3 16  2  0  0  0  0
  4 19  2  0  0  0  0
  5  7  1  0  0  0  0
  5 10  1  0  0  0  0
  5 12  1  0  0  0  0
  6  9  1  0  0  0  0
  6 13  1  0  0  0  0
  6 16  1  0  0  0  0
  7  8  1  0  0  0  0
  7 13  1  0  0  0  0
  7 23  1  0  0  0  0
  8 11  1  0  0  0  0
  8 24  1  0  0  0  0
  8 25  1  0  0  0  0
  9 12  1  0  0  0  0
  9 14  1  0  0  0  0
  9 26  1  0  0  0  0
 10 11  1  0  0  0  0
 10 27  1  0  0  0  0
 10 28  1  0  0  0  0
 11 29  1  0  0  0  0
 11 30  1  0  0  0  0
 14 15  1  0  0  0  0
 14 31  1  0  0  0  0
 14 32  1  0  0  0  0
 15 17  1  0  0  0  0
 15 18  1  0  0  0  0
 15 33  1  0  0  0  0
 16 19  1  0  0  0  0
 17 34  1  0  0  0  0
 17 35  1  0  0  0  0
 17 36  1  0  0  0  0
 18 37  1  0  0  0  0
 18 38  1  0  0  0  0
 18 39  1  0  0  0  0
 19 20  1  0  0  0  0
 20 21  1  0  0  0  0
 20 22  1  0  0  0  0
 20 40  1  0  0  0  0
 21 41  1  0  0  0  0
 21 42  1  0  0  0  0
 21 43  1  0  0  0  0
 22 44  1  0  0  0  0
 22 45  1  0  0  0  0
 22 46  1  0  0  0  0
M  END
> <PUBCHEM_COMPOUND_CID>
524934
> <PUBCHEM_COMPOUND_CANONICALIZED>
1
> <PUBCHEM_CACTVS_COMPLEXITY>
512
> <PUBCHEM_CACTVS_HBOND_ACCEPTOR>
4
> <PUBCHEM_CACTVS_HBOND_DONOR>
0
> <PUBCHEM_CACTVS_ROTATABLE_BOND>
4
> <PUBCHEM_CACTVS_SUBSKEYS>
AAADceB7OAAAAAAAAAAAAAAAAAAAAWAAAAAsAAAAAAAAAFgAAAAAHgAAAAAADSzBgAQCAAMAAAAIAIEQEAAAAAAAAAAAAAGIAAAAQBIAgCAUAAAABiCAAAAYAQAMAAAAAAAAAAAAAAAAAAAAAAAAAAAAAA==
> <PUBCHEM_IUPAC_OPENEYE_NAME>
3-isobutyl-2-(3-methyl-2-oxo-butanoyl)-6,7,8,8a-tetrahydro-3H-pyrrolo[1,2-a]pyrazine-1,4-dione
> <PUBCHEM_IUPAC_CAS_NAME>
2-(3-methyl-1,2-dioxobutyl)-3-(2-methylpropyl)-6,7,8,8a-tetrahydro-3H-pyrrolo[1,2-a]pyrazine-1,4-dione
> <PUBCHEM_IUPAC_NAME_MARKUP>
2-(3-methyl-2-oxobutanoyl)-3-(2-methylpropyl)-6,7,8,8<I>a</I>-tetrahydro-3<I>H</I>-pyrrolo[1,2-a]pyrazine-1,4-dione
> <PUBCHEM_IUPAC_NAME>
2-(3-methyl-2-oxobutanoyl)-3-(2-methylpropyl)-6,7,8,8a-tetrahydro-3H-pyrrolo[1,2-a]pyrazine-1,4-dione
> <PUBCHEM_IUPAC_SYSTEMATIC_NAME>
2-(3-methyl-2-oxidanylidene-butanoyl)-3-(2-methylpropyl)-6,7,8,8a-tetrahydro-3H-pyrrolo[1,2-a]pyrazine-1,4-dione
> <PUBCHEM_IUPAC_TRADITIONAL_NAME>
3-isobutyl-2-(2-keto-3-methyl-butanoyl)-6,7,8,8a-tetrahydro-3H-pyrrolo[1,2-a]pyrazine-1,4-quinone
> <PUBCHEM_IUPAC_INCHI>
InChI=1S/C16H24N2O4/c1-9(2)8-12-14(20)17-7-5-6-11(17)15(21)18(12)16(22)13(19)10(3)4/h9-12H,5-8H2,1-4H3
> <PUBCHEM_IUPAC_INCHIKEY>
GLNDDKCJUSVFRU-UHFFFAOYSA-N
> <PUBCHEM_XLOGP3_AA>
2
> <PUBCHEM_EXACT_MASS>
308.17360725
> <PUBCHEM_MOLECULAR_FORMULA>
C16H24N2O4
> <PUBCHEM_MOLECULAR_WEIGHT>
308.37
> <PUBCHEM_OPENEYE_CAN_SMILES>
CC(C)CC1C(=O)N2CCCC2C(=O)N1C(=O)C(=O)C(C)C
> <PUBCHEM_OPENEYE_ISO_SMILES>
CC(C)CC1C(=O)N2CCCC2C(=O)N1C(=O)C(=O)C(C)C
> <PUBCHEM_CACTVS_TPSA>
74.8
> <PUBCHEM_MONOISOTOPIC_WEIGHT>
308.17360725
> <PUBCHEM_TOTAL_CHARGE>
0
> <PUBCHEM_HEAVY_ATOM_COUNT>
22
> <PUBCHEM_ATOM_DEF_STEREO_COUNT>
0
> <PUBCHEM_ATOM_UDEF_STEREO_COUNT>
2
> <PUBCHEM_BOND_DEF_STEREO_COUNT>
0
> <PUBCHEM_BOND_UDEF_STEREO_COUNT>
0
> <PUBCHEM_ISOTOPIC_ATOM_COUNT>
0
> <PUBCHEM_COMPONENT_COUNT>
1
> <PUBCHEM_CACTVS_TAUTO_COUNT>
-1
> <PUBCHEM_COORDINATE_TYPE>
1
5
255
> <PUBCHEM_BONDANNOTATIONS>
7  8  3
9  14  3
$$$$
