524998
  -OEChem-10302200292D
 33 34  0     1  0  0  0  0  0999 V2000
    4.9898   -1.2658    0.0000 Si  0  0  0  0  0  0  0  0  0  0  0  0
    3.7687   -2.1314    0.0000 O   0  0  0  0  0  0  0  0  0  0  0  0
    6.2614   -2.0604    0.0000 O   0  0  0  0  0  0  0  0  0  0  0  0
    3.7688    0.3519    0.0000 O   0  0  0  0  0  0  0  0  0  0  0  0
    5.2486   -0.2999    0.0000 N   0  0  0  0  0  0  0  0  0  0  0  0
    3.2153   -0.6110    0.0000 C   0  0  0  0  0  0  0  0  0  0  0  0
    6.6802   -0.4975    0.0000 C   0  0  0  0  0  0  0  0  0  0  0  0
    5.1701    1.1609    0.0000 C   0  0  0  0  0  0  0  0  0  0  0  0
    2.9397   -1.5723    0.0000 C   0  0  3  0  0  0  0  0  0  0  0  0
    7.0386   -1.4311    0.0000 C   0  0  3  0  0  0  0  0  0  0  0  0
    4.1756    1.2654    0.0000 C   0  0  3  0  0  0  0  0  0  0  0  0
    2.0000   -1.9143    0.0000 C   0  0  0  0  0  0  0  0  0  0  0  0
    8.0045   -1.6899    0.0000 C   0  0  0  0  0  0  0  0  0  0  0  0
    3.6756    2.1314    0.0000 C   0  0  0  0  0  0  0  0  0  0  0  0
    3.2103    0.0090    0.0000 H   0  0  0  0  0  0  0  0  0  0  0  0
    2.6010   -0.5272    0.0000 H   0  0  0  0  0  0  0  0  0  0  0  0
    7.2880   -0.3752    0.0000 H   0  0  0  0  0  0  0  0  0  0  0  0
    6.6612    0.1222    0.0000 H   0  0  0  0  0  0  0  0  0  0  0  0
    5.7901    1.1615    0.0000 H   0  0  0  0  0  0  0  0  0  0  0  0
    5.2022    1.7801    0.0000 H   0  0  0  0  0  0  0  0  0  0  0  0
    2.8641   -2.1876    0.0000 H   0  0  0  0  0  0  0  0  0  0  0  0
    7.1675   -2.0376    0.0000 H   0  0  0  0  0  0  0  0  0  0  0  0
    3.5564    1.2330    0.0000 H   0  0  0  0  0  0  0  0  0  0  0  0
    4.8293   -1.8647    0.0000 H   0  0  0  0  0  0  0  0  0  0  0  0
    1.7880   -1.3317    0.0000 H   0  0  0  0  0  0  0  0  0  0  0  0
    1.4174   -2.1263    0.0000 H   0  0  0  0  0  0  0  0  0  0  0  0
    2.2120   -2.4969    0.0000 H   0  0  0  0  0  0  0  0  0  0  0  0
    7.8440   -2.2888    0.0000 H   0  0  0  0  0  0  0  0  0  0  0  0
    8.6034   -1.8504    0.0000 H   0  0  0  0  0  0  0  0  0  0  0  0
    8.1650   -1.0910    0.0000 H   0  0  0  0  0  0  0  0  0  0  0  0
    4.2125    2.4414    0.0000 H   0  0  0  0  0  0  0  0  0  0  0  0
    3.3656    2.6684    0.0000 H   0  0  0  0  0  0  0  0  0  0  0  0
    3.1386    1.8214    0.0000 H   0  0  0  0  0  0  0  0  0  0  0  0
  1  2  1  0  0  0  0
  1  3  1  0  0  0  0
  1  4  1  0  0  0  0
  1 24  1  0  0  0  0
  2  9  1  0  0  0  0
  3 10  1  0  0  0  0
  4 11  1  0  0  0  0
  5  6  1  0  0  0  0
  5  7  1  0  0  0  0
  5  8  1  0  0  0  0
  6  9  1  0  0  0  0
  6 15  1  0  0  0  0
  6 16  1  0  0  0  0
  7 10  1  0  0  0  0
  7 17  1  0  0  0  0
  7 18  1  0  0  0  0
  8 11  1  0  0  0  0
  8 19  1  0  0  0  0
  8 20  1  0  0  0  0
  9 12  1  0  0  0  0
  9 21  1  0  0  0  0
 10 13  1  0  0  0  0
 10 22  1  0  0  0  0
 11 14  1  0  0  0  0
 11 23  1  0  0  0  0
 12 25  1  0  0  0  0
 12 26  1  0  0  0  0
 12 27  1  0  0  0  0
 13 28  1  0  0  0  0
 13 29  1  0  0  0  0
 13 30  1  0  0  0  0
 14 31  1  0  0  0  0
 14 32  1  0  0  0  0
 14 33  1  0  0  0  0
M  END
> <PUBCHEM_COMPOUND_CID>
524998
> <PUBCHEM_COMPOUND_CANONICALIZED>
1
> <PUBCHEM_CACTVS_COMPLEXITY>
171
> <PUBCHEM_CACTVS_HBOND_ACCEPTOR>
4
> <PUBCHEM_CACTVS_HBOND_DONOR>
0
> <PUBCHEM_CACTVS_ROTATABLE_BOND>
0
> <PUBCHEM_CACTVS_SUBSKEYS>
AAADceByMAgAAAAAAAAAAAAAAAAAAAAAAAAAAAAAAAAWLAAAAAAAHgAAAECACBThgAYCAAMAAAAAAAAAAAAAAAAAAAAAAAAIAAACAAAAAAAEAAAAAACQAAAAAAAAAAAAAAAAAAAAAAAAAAAAAAAAAAAAAA==
> <PUBCHEM_IUPAC_OPENEYE_NAME>
3,7,10-trimethyl-2,8,9-trioxa-5-aza-1-silabicyclo[3.3.3]undecane
> <PUBCHEM_IUPAC_CAS_NAME>
3,7,10-trimethyl-2,8,9-trioxa-5-aza-1-silabicyclo[3.3.3]undecane
> <PUBCHEM_IUPAC_NAME_MARKUP>
3,7,10-trimethyl-2,8,9-trioxa-5-aza-1-silabicyclo[3.3.3]undecane
> <PUBCHEM_IUPAC_NAME>
3,7,10-trimethyl-2,8,9-trioxa-5-aza-1-silabicyclo[3.3.3]undecane
> <PUBCHEM_IUPAC_SYSTEMATIC_NAME>
3,7,10-trimethyl-2,8,9-trioxa-5-aza-1-silabicyclo[3.3.3]undecane
> <PUBCHEM_IUPAC_TRADITIONAL_NAME>
3,7,10-trimethyl-2,8,9-trioxa-5-aza-1-silabicyclo[3.3.3]undecane
> <PUBCHEM_IUPAC_INCHI>
InChI=1S/C9H19NO3Si/c1-7-4-10-5-8(2)12-14(11-7)13-9(3)6-10/h7-9,14H,4-6H2,1-3H3
> <PUBCHEM_IUPAC_INCHIKEY>
RDEMJQUJOJKXRU-UHFFFAOYSA-N
> <PUBCHEM_EXACT_MASS>
217.11342000
> <PUBCHEM_MOLECULAR_FORMULA>
C9H19NO3Si
> <PUBCHEM_MOLECULAR_WEIGHT>
217.34
> <PUBCHEM_OPENEYE_CAN_SMILES>
CC1CN2CC(O[SiH](O1)OC(C2)C)C
> <PUBCHEM_OPENEYE_ISO_SMILES>
CC1CN2CC(O[SiH](O1)OC(C2)C)C
> <PUBCHEM_CACTVS_TPSA>
30.9
> <PUBCHEM_MONOISOTOPIC_WEIGHT>
217.11342000
> <PUBCHEM_TOTAL_CHARGE>
0
> <PUBCHEM_HEAVY_ATOM_COUNT>
14
> <PUBCHEM_ATOM_DEF_STEREO_COUNT>
0
> <PUBCHEM_ATOM_UDEF_STEREO_COUNT>
3
> <PUBCHEM_BOND_DEF_STEREO_COUNT>
0
> <PUBCHEM_BOND_UDEF_STEREO_COUNT>
0
> <PUBCHEM_ISOTOPIC_ATOM_COUNT>
0
> <PUBCHEM_COMPONENT_COUNT>
1
> <PUBCHEM_CACTVS_TAUTO_COUNT>
-1
> <PUBCHEM_COORDINATE_TYPE>
1
5
255
> <PUBCHEM_BONDANNOTATIONS>
10  13  3
11  14  3
9  12  3
$$$$
