524921
  -OEChem-10302200292D
 68 69  0     1  0  0  0  0  0999 V2000
    4.5653   -3.1739    0.0000 Si  0  0  0  0  0  0  0  0  0  0  0  0
    2.7431   -0.8604    0.0000 Si  0  0  0  0  0  0  0  0  0  0  0  0
    7.9165   -2.9649    0.0000 Si  0  0  0  0  0  0  0  0  0  0  0  0
    6.0554   -0.5003    0.0000 O   0  0  0  0  0  0  0  0  0  0  0  0
    4.1586   -2.2604    0.0000 O   0  0  0  0  0  0  0  0  0  0  0  0
    3.4863   -0.1913    0.0000 O   0  0  0  0  0  0  0  0  0  0  0  0
    7.3287   -2.1559    0.0000 O   0  0  0  0  0  0  0  0  0  0  0  0
    6.9784    1.0875    0.0000 O   0  0  0  0  0  0  0  0  0  0  0  0
    5.2464    4.0875    0.0000 O   0  0  0  0  0  0  0  0  0  0  0  0
    5.2464    1.0875    0.0000 N   0  0  0  0  0  0  0  0  0  0  0  0
    6.1124    2.5875    0.0000 N   0  0  0  0  0  0  0  0  0  0  0  0
    4.7464   -1.4514    0.0000 C   0  0  3  0  0  0  0  0  0  0  0  0
    4.4374   -0.5003    0.0000 C   0  0  3  0  0  0  0  0  0  0  0  0
    5.7464   -1.4514    0.0000 C   0  0  3  0  0  0  0  0  0  0  0  0
    5.2464    0.0875    0.0000 C   0  0  3  0  0  0  0  0  0  0  0  0
    6.3342   -2.2604    0.0000 C   0  0  0  0  0  0  0  0  0  0  0  0
    4.3803    1.5875    0.0000 C   0  0  0  0  0  0  0  0  0  0  0  0
    4.9720   -4.0875    0.0000 C   0  0  0  0  0  0  0  0  0  0  0  0
    3.6518   -3.5807    0.0000 C   0  0  0  0  0  0  0  0  0  0  0  0
    5.4789   -2.7672    0.0000 C   0  0  0  0  0  0  0  0  0  0  0  0
    6.1124    1.5875    0.0000 C   0  0  0  0  0  0  0  0  0  0  0  0
    2.0000   -1.5296    0.0000 C   0  0  0  0  0  0  0  0  0  0  0  0
    2.0740   -0.1173    0.0000 C   0  0  0  0  0  0  0  0  0  0  0  0
    3.4123   -1.6036    0.0000 C   0  0  0  0  0  0  0  0  0  0  0  0
    4.3803    2.5875    0.0000 C   0  0  0  0  0  0  0  0  0  0  0  0
    8.5042   -3.7739    0.0000 C   0  0  0  0  0  0  0  0  0  0  0  0
    8.7255   -2.3771    0.0000 C   0  0  0  0  0  0  0  0  0  0  0  0
    7.1074   -3.5527    0.0000 C   0  0  0  0  0  0  0  0  0  0  0  0
    5.2464    3.0875    0.0000 C   0  0  0  0  0  0  0  0  0  0  0  0
    3.5143    3.0875    0.0000 C   0  0  0  0  0  0  0  0  0  0  0  0
    5.0278   -2.0038    0.0000 H   0  0  0  0  0  0  0  0  0  0  0  0
    3.9989   -0.9387    0.0000 H   0  0  0  0  0  0  0  0  0  0  0  0
    6.3587   -1.3544    0.0000 H   0  0  0  0  0  0  0  0  0  0  0  0
    5.7988    0.3689    0.0000 H   0  0  0  0  0  0  0  0  0  0  0  0
    5.7769   -2.5322    0.0000 H   0  0  0  0  0  0  0  0  0  0  0  0
    6.5050   -2.8564    0.0000 H   0  0  0  0  0  0  0  0  0  0  0  0
    3.8434    1.2775    0.0000 H   0  0  0  0  0  0  0  0  0  0  0  0
    4.4056   -4.3396    0.0000 H   0  0  0  0  0  0  0  0  0  0  0  0
    5.2242   -4.6539    0.0000 H   0  0  0  0  0  0  0  0  0  0  0  0
    5.5384   -3.8353    0.0000 H   0  0  0  0  0  0  0  0  0  0  0  0
    3.3996   -3.0143    0.0000 H   0  0  0  0  0  0  0  0  0  0  0  0
    3.0854   -3.8328    0.0000 H   0  0  0  0  0  0  0  0  0  0  0  0
    3.9040   -4.1471    0.0000 H   0  0  0  0  0  0  0  0  0  0  0  0
    5.7310   -3.3336    0.0000 H   0  0  0  0  0  0  0  0  0  0  0  0
    6.0453   -2.5150    0.0000 H   0  0  0  0  0  0  0  0  0  0  0  0
    5.2267   -2.2008    0.0000 H   0  0  0  0  0  0  0  0  0  0  0  0
    1.5851   -1.0688    0.0000 H   0  0  0  0  0  0  0  0  0  0  0  0
    1.5392   -1.9444    0.0000 H   0  0  0  0  0  0  0  0  0  0  0  0
    2.4149   -1.9903    0.0000 H   0  0  0  0  0  0  0  0  0  0  0  0
    2.5348    0.2976    0.0000 H   0  0  0  0  0  0  0  0  0  0  0  0
    1.6592    0.3435    0.0000 H   0  0  0  0  0  0  0  0  0  0  0  0
    1.6133   -0.5321    0.0000 H   0  0  0  0  0  0  0  0  0  0  0  0
    2.9515   -2.0184    0.0000 H   0  0  0  0  0  0  0  0  0  0  0  0
    3.8271   -2.0643    0.0000 H   0  0  0  0  0  0  0  0  0  0  0  0
    3.8730   -1.1887    0.0000 H   0  0  0  0  0  0  0  0  0  0  0  0
    6.6493    2.8975    0.0000 H   0  0  0  0  0  0  0  0  0  0  0  0
    8.0026   -4.1383    0.0000 H   0  0  0  0  0  0  0  0  0  0  0  0
    8.8687   -4.2755    0.0000 H   0  0  0  0  0  0  0  0  0  0  0  0
    9.0058   -3.4095    0.0000 H   0  0  0  0  0  0  0  0  0  0  0  0
    9.0899   -2.8787    0.0000 H   0  0  0  0  0  0  0  0  0  0  0  0
    9.2271   -2.0127    0.0000 H   0  0  0  0  0  0  0  0  0  0  0  0
    8.3610   -1.8755    0.0000 H   0  0  0  0  0  0  0  0  0  0  0  0
    6.7430   -3.0511    0.0000 H   0  0  0  0  0  0  0  0  0  0  0  0
    6.6058   -3.9171    0.0000 H   0  0  0  0  0  0  0  0  0  0  0  0
    7.4719   -4.0542    0.0000 H   0  0  0  0  0  0  0  0  0  0  0  0
    3.8243    3.6244    0.0000 H   0  0  0  0  0  0  0  0  0  0  0  0
    2.9774    3.3975    0.0000 H   0  0  0  0  0  0  0  0  0  0  0  0
    3.2043    2.5505    0.0000 H   0  0  0  0  0  0  0  0  0  0  0  0
  1  5  1  0  0  0  0
  1 18  1  0  0  0  0
  1 19  1  0  0  0  0
  1 20  1  0  0  0  0
  2  6  1  0  0  0  0
  2 22  1  0  0  0  0
  2 23  1  0  0  0  0
  2 24  1  0  0  0  0
  3  7  1  0  0  0  0
  3 26  1  0  0  0  0
  3 27  1  0  0  0  0
  3 28  1  0  0  0  0
  4 14  1  0  0  0  0
  4 15  1  0  0  0  0
  5 12  1  0  0  0  0
  6 13  1  0  0  0  0
  7 16  1  0  0  0  0
  8 21  2  0  0  0  0
  9 29  2  0  0  0  0
 10 15  1  0  0  0  0
 10 17  1  0  0  0  0
 10 21  1  0  0  0  0
 11 21  1  0  0  0  0
 11 29  1  0  0  0  0
 11 56  1  0  0  0  0
 12 13  1  0  0  0  0
 12 14  1  0  0  0  0
 12 31  1  0  0  0  0
 13 15  1  0  0  0  0
 13 32  1  0  0  0  0
 14 16  1  0  0  0  0
 14 33  1  0  0  0  0
 15 34  1  0  0  0  0
 16 35  1  0  0  0  0
 16 36  1  0  0  0  0
 17 25  2  0  0  0  0
 17 37  1  0  0  0  0
 18 38  1  0  0  0  0
 18 39  1  0  0  0  0
 18 40  1  0  0  0  0
 19 41  1  0  0  0  0
 19 42  1  0  0  0  0
 19 43  1  0  0  0  0
 20 44  1  0  0  0  0
 20 45  1  0  0  0  0
 20 46  1  0  0  0  0
 22 47  1  0  0  0  0
 22 48  1  0  0  0  0
 22 49  1  0  0  0  0
 23 50  1  0  0  0  0
 23 51  1  0  0  0  0
 23 52  1  0  0  0  0
 24 53  1  0  0  0  0
 24 54  1  0  0  0  0
 24 55  1  0  0  0  0
 25 29  1  0  0  0  0
 25 30  1  0  0  0  0
 26 57  1  0  0  0  0
 26 58  1  0  0  0  0
 26 59  1  0  0  0  0
 27 60  1  0  0  0  0
 27 61  1  0  0  0  0
 27 62  1  0  0  0  0
 28 63  1  0  0  0  0
 28 64  1  0  0  0  0
 28 65  1  0  0  0  0
 30 66  1  0  0  0  0
 30 67  1  0  0  0  0
 30 68  1  0  0  0  0
M  END
> <PUBCHEM_COMPOUND_CID>
524921
> <PUBCHEM_COMPOUND_CANONICALIZED>
1
> <PUBCHEM_CACTVS_COMPLEXITY>
696
> <PUBCHEM_CACTVS_HBOND_ACCEPTOR>
6
> <PUBCHEM_CACTVS_HBOND_DONOR>
1
> <PUBCHEM_CACTVS_ROTATABLE_BOND>
8
> <PUBCHEM_CACTVS_SUBSKEYS>
AAADcfB7OAwAAAAAAAAAAAAAAAAAASAAAAAgAAAAAAAAAAAAAAAAHhAQAEAADBThgAZDAAPABAGIAgFWUACAAAAAAAAAAAEIAECDAAIAgQAOAAAPByISAMDwMAIAAAAAAAAAAAAAAAAAAAAAAAAAAAAAAA==
> <PUBCHEM_IUPAC_OPENEYE_NAME>
1-[3,4-bis(trimethylsilyloxy)-5-(trimethylsilyloxymethyl)tetrahydrofuran-2-yl]-5-methyl-pyrimidine-2,4-dione
> <PUBCHEM_IUPAC_CAS_NAME>
1-[3,4-bis(trimethylsilyloxy)-5-(trimethylsilyloxymethyl)-2-oxolanyl]-5-methylpyrimidine-2,4-dione
> <PUBCHEM_IUPAC_NAME_MARKUP>
1-[3,4-bis(trimethylsilyloxy)-5-(trimethylsilyloxymethyl)oxolan-2-yl]-5-methylpyrimidine-2,4-dione
> <PUBCHEM_IUPAC_NAME>
1-[3,4-bis(trimethylsilyloxy)-5-(trimethylsilyloxymethyl)oxolan-2-yl]-5-methylpyrimidine-2,4-dione
> <PUBCHEM_IUPAC_SYSTEMATIC_NAME>
1-[3,4-bis(trimethylsilyloxy)-5-(trimethylsilyloxymethyl)oxolan-2-yl]-5-methyl-pyrimidine-2,4-dione
> <PUBCHEM_IUPAC_TRADITIONAL_NAME>
1-[3,4-bis(trimethylsilyloxy)-5-(trimethylsilyloxymethyl)tetrahydrofuran-2-yl]-5-methyl-pyrimidine-2,4-quinone
> <PUBCHEM_IUPAC_INCHI>
InChI=1S/C19H38N2O6Si3/c1-13-11-21(19(23)20-17(13)22)18-16(27-30(8,9)10)15(26-29(5,6)7)14(25-18)12-24-28(2,3)4/h11,14-16,18H,12H2,1-10H3,(H,20,22,23)
> <PUBCHEM_IUPAC_INCHIKEY>
NPQPNHPRBSPWIM-UHFFFAOYSA-N
> <PUBCHEM_EXACT_MASS>
474.20376654
> <PUBCHEM_MOLECULAR_FORMULA>
C19H38N2O6Si3
> <PUBCHEM_MOLECULAR_WEIGHT>
474.8
> <PUBCHEM_OPENEYE_CAN_SMILES>
CC1=CN(C(=O)NC1=O)C2C(C(C(O2)CO[Si](C)(C)C)O[Si](C)(C)C)O[Si](C)(C)C
> <PUBCHEM_OPENEYE_ISO_SMILES>
CC1=CN(C(=O)NC1=O)C2C(C(C(O2)CO[Si](C)(C)C)O[Si](C)(C)C)O[Si](C)(C)C
> <PUBCHEM_CACTVS_TPSA>
86.3
> <PUBCHEM_MONOISOTOPIC_WEIGHT>
474.20376654
> <PUBCHEM_TOTAL_CHARGE>
0
> <PUBCHEM_HEAVY_ATOM_COUNT>
30
> <PUBCHEM_ATOM_DEF_STEREO_COUNT>
0
> <PUBCHEM_ATOM_UDEF_STEREO_COUNT>
4
> <PUBCHEM_BOND_DEF_STEREO_COUNT>
0
> <PUBCHEM_BOND_UDEF_STEREO_COUNT>
0
> <PUBCHEM_ISOTOPIC_ATOM_COUNT>
0
> <PUBCHEM_COMPONENT_COUNT>
1
> <PUBCHEM_CACTVS_TAUTO_COUNT>
-1
> <PUBCHEM_COORDINATE_TYPE>
1
5
255
> <PUBCHEM_BONDANNOTATIONS>
15  10  3
10  17  8
10  21  8
11  21  8
11  29  8
14  16  3
17  25  8
25  29  8
12  5  3
13  6  3
$$$$
