524945
  -OEChem-10302200292D
 73 74  0     1  0  0  0  0  0999 V2000
    3.9890   -1.9081    0.0000 Si  0  0  0  0  0  0  0  0  0  0  0  0
    8.7414   -2.7172    0.0000 Si  0  0  0  0  0  0  0  0  0  0  0  0
    4.9836   -2.0127    0.0000 O   0  0  0  0  0  0  0  0  0  0  0  0
    6.8804   -0.2526    0.0000 O   0  0  0  0  0  0  0  0  0  0  0  0
    8.1537   -1.9081    0.0000 O   0  0  0  0  0  0  0  0  0  0  0  0
    7.8034    1.3352    0.0000 O   0  0  0  0  0  0  0  0  0  0  0  0
    6.0714    4.3352    0.0000 O   0  0  0  0  0  0  0  0  0  0  0  0
    6.0714    1.3352    0.0000 N   0  0  0  0  0  0  0  0  0  0  0  0
    6.9374    2.8352    0.0000 N   0  0  0  0  0  0  0  0  0  0  0  0
    5.5714   -1.2037    0.0000 C   0  0  3  0  0  0  0  0  0  0  0  0
    6.5714   -1.2037    0.0000 C   0  0  3  0  0  0  0  0  0  0  0  0
    5.2623   -0.2526    0.0000 C   0  0  0  0  0  0  0  0  0  0  0  0
    2.9945   -1.8036    0.0000 C   0  0  0  0  0  0  0  0  0  0  0  0
    6.0714    0.3352    0.0000 C   0  0  3  0  0  0  0  0  0  0  0  0
    7.1591   -2.0127    0.0000 C   0  0  0  0  0  0  0  0  0  0  0  0
    9.3292   -3.5262    0.0000 C   0  0  0  0  0  0  0  0  0  0  0  0
    3.8845   -2.9027    0.0000 C   0  0  0  0  0  0  0  0  0  0  0  0
    4.0936   -0.9136    0.0000 C   0  0  0  0  0  0  0  0  0  0  0  0
    2.0000   -1.6991    0.0000 C   0  0  0  0  0  0  0  0  0  0  0  0
    2.8900   -2.7981    0.0000 C   0  0  0  0  0  0  0  0  0  0  0  0
    3.0990   -0.8091    0.0000 C   0  0  0  0  0  0  0  0  0  0  0  0
    9.5505   -2.1294    0.0000 C   0  0  0  0  0  0  0  0  0  0  0  0
    7.9324   -3.3049    0.0000 C   0  0  0  0  0  0  0  0  0  0  0  0
    9.9170   -4.3352    0.0000 C   0  0  0  0  0  0  0  0  0  0  0  0
   10.1382   -2.9384    0.0000 C   0  0  0  0  0  0  0  0  0  0  0  0
    8.5202   -4.1140    0.0000 C   0  0  0  0  0  0  0  0  0  0  0  0
    5.2053    1.8352    0.0000 C   0  0  0  0  0  0  0  0  0  0  0  0
    6.9374    1.8352    0.0000 C   0  0  0  0  0  0  0  0  0  0  0  0
    5.2053    2.8352    0.0000 C   0  0  0  0  0  0  0  0  0  0  0  0
    6.0714    3.3352    0.0000 C   0  0  0  0  0  0  0  0  0  0  0  0
    4.3393    3.3352    0.0000 C   0  0  0  0  0  0  0  0  0  0  0  0
    5.8528   -1.7561    0.0000 H   0  0  0  0  0  0  0  0  0  0  0  0
    7.1837   -1.1067    0.0000 H   0  0  0  0  0  0  0  0  0  0  0  0
    4.9523    0.2843    0.0000 H   0  0  0  0  0  0  0  0  0  0  0  0
    4.6959   -0.5048    0.0000 H   0  0  0  0  0  0  0  0  0  0  0  0
    6.6238    0.6167    0.0000 H   0  0  0  0  0  0  0  0  0  0  0  0
    6.6019   -2.2845    0.0000 H   0  0  0  0  0  0  0  0  0  0  0  0
    7.3300   -2.6086    0.0000 H   0  0  0  0  0  0  0  0  0  0  0  0
    3.2679   -2.8378    0.0000 H   0  0  0  0  0  0  0  0  0  0  0  0
    3.8197   -3.5193    0.0000 H   0  0  0  0  0  0  0  0  0  0  0  0
    4.5011   -2.9675    0.0000 H   0  0  0  0  0  0  0  0  0  0  0  0
    4.7102   -0.9784    0.0000 H   0  0  0  0  0  0  0  0  0  0  0  0
    4.1584   -0.2970    0.0000 H   0  0  0  0  0  0  0  0  0  0  0  0
    3.4770   -0.8488    0.0000 H   0  0  0  0  0  0  0  0  0  0  0  0
    2.0648   -1.0825    0.0000 H   0  0  0  0  0  0  0  0  0  0  0  0
    1.3834   -1.6343    0.0000 H   0  0  0  0  0  0  0  0  0  0  0  0
    1.9352   -2.3157    0.0000 H   0  0  0  0  0  0  0  0  0  0  0  0
    2.2734   -2.7333    0.0000 H   0  0  0  0  0  0  0  0  0  0  0  0
    2.8252   -3.4147    0.0000 H   0  0  0  0  0  0  0  0  0  0  0  0
    3.5066   -2.8629    0.0000 H   0  0  0  0  0  0  0  0  0  0  0  0
    3.7156   -0.8739    0.0000 H   0  0  0  0  0  0  0  0  0  0  0  0
    3.1639   -0.1925    0.0000 H   0  0  0  0  0  0  0  0  0  0  0  0
    2.4824   -0.7443    0.0000 H   0  0  0  0  0  0  0  0  0  0  0  0
    9.9149   -2.6310    0.0000 H   0  0  0  0  0  0  0  0  0  0  0  0
   10.0521   -1.7649    0.0000 H   0  0  0  0  0  0  0  0  0  0  0  0
    9.1860   -1.6278    0.0000 H   0  0  0  0  0  0  0  0  0  0  0  0
    7.5680   -2.8034    0.0000 H   0  0  0  0  0  0  0  0  0  0  0  0
    7.4308   -3.6694    0.0000 H   0  0  0  0  0  0  0  0  0  0  0  0
    8.2968   -3.8065    0.0000 H   0  0  0  0  0  0  0  0  0  0  0  0
    9.4154   -4.6996    0.0000 H   0  0  0  0  0  0  0  0  0  0  0  0
   10.2814   -4.8368    0.0000 H   0  0  0  0  0  0  0  0  0  0  0  0
   10.4186   -3.9708    0.0000 H   0  0  0  0  0  0  0  0  0  0  0  0
   10.5027   -3.4400    0.0000 H   0  0  0  0  0  0  0  0  0  0  0  0
   10.6398   -2.5740    0.0000 H   0  0  0  0  0  0  0  0  0  0  0  0
    9.7738   -2.4368    0.0000 H   0  0  0  0  0  0  0  0  0  0  0  0
    8.1558   -3.6124    0.0000 H   0  0  0  0  0  0  0  0  0  0  0  0
    8.0186   -4.4784    0.0000 H   0  0  0  0  0  0  0  0  0  0  0  0
    8.8846   -4.6156    0.0000 H   0  0  0  0  0  0  0  0  0  0  0  0
    4.6684    1.5252    0.0000 H   0  0  0  0  0  0  0  0  0  0  0  0
    7.4743    3.1452    0.0000 H   0  0  0  0  0  0  0  0  0  0  0  0
    4.6493    3.8721    0.0000 H   0  0  0  0  0  0  0  0  0  0  0  0
    3.8024    3.6452    0.0000 H   0  0  0  0  0  0  0  0  0  0  0  0
    4.0293    2.7982    0.0000 H   0  0  0  0  0  0  0  0  0  0  0  0
  1  3  1  0  0  0  0
  1 13  1  0  0  0  0
  1 17  1  0  0  0  0
  1 18  1  0  0  0  0
  2  5  1  0  0  0  0
  2 16  1  0  0  0  0
  2 22  1  0  0  0  0
  2 23  1  0  0  0  0
  3 10  1  0  0  0  0
  4 11  1  0  0  0  0
  4 14  1  0  0  0  0
  5 15  1  0  0  0  0
  6 28  2  0  0  0  0
  7 30  2  0  0  0  0
  8 14  1  0  0  0  0
  8 27  1  0  0  0  0
  8 28  1  0  0  0  0
  9 28  1  0  0  0  0
  9 30  1  0  0  0  0
  9 70  1  0  0  0  0
 10 11  1  0  0  0  0
 10 12  1  0  0  0  0
 10 32  1  0  0  0  0
 11 15  1  0  0  0  0
 11 33  1  0  0  0  0
 12 14  1  0  0  0  0
 12 34  1  0  0  0  0
 12 35  1  0  0  0  0
 13 19  1  0  0  0  0
 13 20  1  0  0  0  0
 13 21  1  0  0  0  0
 14 36  1  0  0  0  0
 15 37  1  0  0  0  0
 15 38  1  0  0  0  0
 16 24  1  0  0  0  0
 16 25  1  0  0  0  0
 16 26  1  0  0  0  0
 17 39  1  0  0  0  0
 17 40  1  0  0  0  0
 17 41  1  0  0  0  0
 18 42  1  0  0  0  0
 18 43  1  0  0  0  0
 18 44  1  0  0  0  0
 19 45  1  0  0  0  0
 19 46  1  0  0  0  0
 19 47  1  0  0  0  0
 20 48  1  0  0  0  0
 20 49  1  0  0  0  0
 20 50  1  0  0  0  0
 21 51  1  0  0  0  0
 21 52  1  0  0  0  0
 21 53  1  0  0  0  0
 22 54  1  0  0  0  0
 22 55  1  0  0  0  0
 22 56  1  0  0  0  0
 23 57  1  0  0  0  0
 23 58  1  0  0  0  0
 23 59  1  0  0  0  0
 24 60  1  0  0  0  0
 24 61  1  0  0  0  0
 24 62  1  0  0  0  0
 25 63  1  0  0  0  0
 25 64  1  0  0  0  0
 25 65  1  0  0  0  0
 26 66  1  0  0  0  0
 26 67  1  0  0  0  0
 26 68  1  0  0  0  0
 27 29  2  0  0  0  0
 27 69  1  0  0  0  0
 29 30  1  0  0  0  0
 29 31  1  0  0  0  0
 31 71  1  0  0  0  0
 31 72  1  0  0  0  0
 31 73  1  0  0  0  0
M  END
> <PUBCHEM_COMPOUND_CID>
524945
> <PUBCHEM_COMPOUND_CANONICALIZED>
1
> <PUBCHEM_CACTVS_COMPLEXITY>
737
> <PUBCHEM_CACTVS_HBOND_ACCEPTOR>
5
> <PUBCHEM_CACTVS_HBOND_DONOR>
1
> <PUBCHEM_CACTVS_ROTATABLE_BOND>
8
> <PUBCHEM_CACTVS_SUBSKEYS>
AAADcfB7OAwAAAAAAAAAAAAAAAAAASAAAAAgAAAAAAAAAAAAAAAAHhAQAEAADBThoAZDAAPABAGIAgFWUACAAAAAAAAAAAEIAECBAAIAgQAOAAAPByICAMCwMAIAAAAAAAAAAAAAAAAAAAAAAAAAAAAAAA==
> <PUBCHEM_IUPAC_OPENEYE_NAME>
1-[4-[tert-butyl(dimethyl)silyl]oxy-5-[[tert-butyl(dimethyl)silyl]oxymethyl]tetrahydrofuran-2-yl]-5-methyl-pyrimidine-2,4-dione
> <PUBCHEM_IUPAC_CAS_NAME>
1-[4-[tert-butyl(dimethyl)silyl]oxy-5-[[tert-butyl(dimethyl)silyl]oxymethyl]-2-oxolanyl]-5-methylpyrimidine-2,4-dione
> <PUBCHEM_IUPAC_NAME_MARKUP>
1-[4-[<I>tert</I>-butyl(dimethyl)silyl]oxy-5-[[<I>tert</I>-butyl(dimethyl)silyl]oxymethyl]oxolan-2-yl]-5-methylpyrimidine-2,4-dione
> <PUBCHEM_IUPAC_NAME>
1-[4-[tert-butyl(dimethyl)silyl]oxy-5-[[tert-butyl(dimethyl)silyl]oxymethyl]oxolan-2-yl]-5-methylpyrimidine-2,4-dione
> <PUBCHEM_IUPAC_SYSTEMATIC_NAME>
1-[4-[tert-butyl(dimethyl)silyl]oxy-5-[[tert-butyl(dimethyl)silyl]oxymethyl]oxolan-2-yl]-5-methyl-pyrimidine-2,4-dione
> <PUBCHEM_IUPAC_TRADITIONAL_NAME>
1-[4-[tert-butyl(dimethyl)silyl]oxy-5-[[tert-butyl(dimethyl)silyl]oxymethyl]tetrahydrofuran-2-yl]-5-methyl-pyrimidine-2,4-quinone
> <PUBCHEM_IUPAC_INCHI>
InChI=1S/C22H42N2O5Si2/c1-15-13-24(20(26)23-19(15)25)18-12-16(29-31(10,11)22(5,6)7)17(28-18)14-27-30(8,9)21(2,3)4/h13,16-18H,12,14H2,1-11H3,(H,23,25,26)
> <PUBCHEM_IUPAC_INCHIKEY>
DDLOCFSZSYGOPG-UHFFFAOYSA-N
> <PUBCHEM_EXACT_MASS>
470.26322551
> <PUBCHEM_MOLECULAR_FORMULA>
C22H42N2O5Si2
> <PUBCHEM_MOLECULAR_WEIGHT>
470.7
> <PUBCHEM_OPENEYE_CAN_SMILES>
CC1=CN(C(=O)NC1=O)C2CC(C(O2)CO[Si](C)(C)C(C)(C)C)O[Si](C)(C)C(C)(C)C
> <PUBCHEM_OPENEYE_ISO_SMILES>
CC1=CN(C(=O)NC1=O)C2CC(C(O2)CO[Si](C)(C)C(C)(C)C)O[Si](C)(C)C(C)(C)C
> <PUBCHEM_CACTVS_TPSA>
77.1
> <PUBCHEM_MONOISOTOPIC_WEIGHT>
470.26322551
> <PUBCHEM_TOTAL_CHARGE>
0
> <PUBCHEM_HEAVY_ATOM_COUNT>
31
> <PUBCHEM_ATOM_DEF_STEREO_COUNT>
0
> <PUBCHEM_ATOM_UDEF_STEREO_COUNT>
3
> <PUBCHEM_BOND_DEF_STEREO_COUNT>
0
> <PUBCHEM_BOND_UDEF_STEREO_COUNT>
0
> <PUBCHEM_ISOTOPIC_ATOM_COUNT>
0
> <PUBCHEM_COMPONENT_COUNT>
1
> <PUBCHEM_CACTVS_TAUTO_COUNT>
-1
> <PUBCHEM_COORDINATE_TYPE>
1
5
255
> <PUBCHEM_BONDANNOTATIONS>
11  15  3
27  29  8
29  30  8
10  3  3
14  8  3
8  27  8
8  28  8
9  28  8
9  30  8
$$$$
