524981
  -OEChem-10302200292D
 34 35  0     1  0  0  0  0  0999 V2000
    4.9898    0.0539    0.0000 Si  0  0  0  0  0  0  0  0  0  0  0  0
    3.7687   -0.8118    0.0000 O   0  0  0  0  0  0  0  0  0  0  0  0
    6.2614   -0.7408    0.0000 O   0  0  0  0  0  0  0  0  0  0  0  0
    3.7688    1.6715    0.0000 O   0  0  0  0  0  0  0  0  0  0  0  0
    4.7309   -0.9121    0.0000 O   0  0  0  0  0  0  0  0  0  0  0  0
    5.2486    1.0198    0.0000 N   0  0  0  0  0  0  0  0  0  0  0  0
    3.2153    0.7087    0.0000 C   0  0  0  0  0  0  0  0  0  0  0  0
    2.9397   -0.2526    0.0000 C   0  0  3  0  0  0  0  0  0  0  0  0
    6.6802    0.8221    0.0000 C   0  0  0  0  0  0  0  0  0  0  0  0
    5.1701    2.4806    0.0000 C   0  0  0  0  0  0  0  0  0  0  0  0
    7.0386   -0.1114    0.0000 C   0  0  0  0  0  0  0  0  0  0  0  0
    4.1756    2.5851    0.0000 C   0  0  0  0  0  0  0  0  0  0  0  0
    2.0000   -0.5946    0.0000 C   0  0  0  0  0  0  0  0  0  0  0  0
    5.4380   -1.6192    0.0000 C   0  0  0  0  0  0  0  0  0  0  0  0
    5.1792   -2.5851    0.0000 C   0  0  0  0  0  0  0  0  0  0  0  0
    3.2103    1.3286    0.0000 H   0  0  0  0  0  0  0  0  0  0  0  0
    2.6010    0.7924    0.0000 H   0  0  0  0  0  0  0  0  0  0  0  0
    2.8641   -0.8680    0.0000 H   0  0  0  0  0  0  0  0  0  0  0  0
    7.2880    0.9445    0.0000 H   0  0  0  0  0  0  0  0  0  0  0  0
    6.6612    1.4418    0.0000 H   0  0  0  0  0  0  0  0  0  0  0  0
    5.7901    2.4811    0.0000 H   0  0  0  0  0  0  0  0  0  0  0  0
    5.2022    3.0997    0.0000 H   0  0  0  0  0  0  0  0  0  0  0  0
    7.3763   -0.6314    0.0000 H   0  0  0  0  0  0  0  0  0  0  0  0
    7.5910    0.1700    0.0000 H   0  0  0  0  0  0  0  0  0  0  0  0
    4.3045    3.1915    0.0000 H   0  0  0  0  0  0  0  0  0  0  0  0
    3.5859    2.7767    0.0000 H   0  0  0  0  0  0  0  0  0  0  0  0
    1.7880   -0.0120    0.0000 H   0  0  0  0  0  0  0  0  0  0  0  0
    1.4174   -0.8067    0.0000 H   0  0  0  0  0  0  0  0  0  0  0  0
    2.2120   -1.1772    0.0000 H   0  0  0  0  0  0  0  0  0  0  0  0
    6.0000   -1.8812    0.0000 H   0  0  0  0  0  0  0  0  0  0  0  0
    5.7937   -1.1113    0.0000 H   0  0  0  0  0  0  0  0  0  0  0  0
    4.5804   -2.4246    0.0000 H   0  0  0  0  0  0  0  0  0  0  0  0
    5.0188   -3.1840    0.0000 H   0  0  0  0  0  0  0  0  0  0  0  0
    5.7781   -2.7456    0.0000 H   0  0  0  0  0  0  0  0  0  0  0  0
  1  2  1  0  0  0  0
  1  3  1  0  0  0  0
  1  4  1  0  0  0  0
  1  5  1  0  0  0  0
  2  8  1  0  0  0  0
  3 11  1  0  0  0  0
  4 12  1  0  0  0  0
  5 14  1  0  0  0  0
  6  7  1  0  0  0  0
  6  9  1  0  0  0  0
  6 10  1  0  0  0  0
  7  8  1  0  0  0  0
  7 16  1  0  0  0  0
  7 17  1  0  0  0  0
  8 13  1  0  0  0  0
  8 18  1  0  0  0  0
  9 11  1  0  0  0  0
  9 19  1  0  0  0  0
  9 20  1  0  0  0  0
 10 12  1  0  0  0  0
 10 21  1  0  0  0  0
 10 22  1  0  0  0  0
 11 23  1  0  0  0  0
 11 24  1  0  0  0  0
 12 25  1  0  0  0  0
 12 26  1  0  0  0  0
 13 27  1  0  0  0  0
 13 28  1  0  0  0  0
 13 29  1  0  0  0  0
 14 15  1  0  0  0  0
 14 30  1  0  0  0  0
 14 31  1  0  0  0  0
 15 32  1  0  0  0  0
 15 33  1  0  0  0  0
 15 34  1  0  0  0  0
M  END
> <PUBCHEM_COMPOUND_CID>
524981
> <PUBCHEM_COMPOUND_CANONICALIZED>
1
> <PUBCHEM_CACTVS_COMPLEXITY>
206
> <PUBCHEM_CACTVS_HBOND_ACCEPTOR>
5
> <PUBCHEM_CACTVS_HBOND_DONOR>
0
> <PUBCHEM_CACTVS_ROTATABLE_BOND>
2
> <PUBCHEM_CACTVS_SUBSKEYS>
AAADceByOAgAAAAAAAAAAAAAAAAAAAAAAAAAAAAAAAAWLAAAAAAAHgAAAEAACBThgAYCAAMAAAAAAAAAAAAAAAAAAAAAAAAIAAACAAAAAAAEAAAAAACQAAAAAAAAAAAAAAAAAAAAAAAAAAAAAAAAAAAAAA==
> <PUBCHEM_IUPAC_OPENEYE_NAME>
1-ethoxy-3-methyl-2,8,9-trioxa-5-aza-1-silabicyclo[3.3.3]undecane
> <PUBCHEM_IUPAC_CAS_NAME>
1-ethoxy-3-methyl-2,8,9-trioxa-5-aza-1-silabicyclo[3.3.3]undecane
> <PUBCHEM_IUPAC_NAME_MARKUP>
1-ethoxy-3-methyl-2,8,9-trioxa-5-aza-1-silabicyclo[3.3.3]undecane
> <PUBCHEM_IUPAC_NAME>
1-ethoxy-3-methyl-2,8,9-trioxa-5-aza-1-silabicyclo[3.3.3]undecane
> <PUBCHEM_IUPAC_SYSTEMATIC_NAME>
1-ethoxy-3-methyl-2,8,9-trioxa-5-aza-1-silabicyclo[3.3.3]undecane
> <PUBCHEM_IUPAC_TRADITIONAL_NAME>
1-ethoxy-3-methyl-2,8,9-trioxa-5-aza-1-silabicyclo[3.3.3]undecane
> <PUBCHEM_IUPAC_INCHI>
InChI=1S/C9H19NO4Si/c1-3-11-15-12-6-4-10(5-7-13-15)8-9(2)14-15/h9H,3-8H2,1-2H3
> <PUBCHEM_IUPAC_INCHIKEY>
RHOXCPPOCFBUQJ-UHFFFAOYSA-N
> <PUBCHEM_EXACT_MASS>
233.10833462
> <PUBCHEM_MOLECULAR_FORMULA>
C9H19NO4Si
> <PUBCHEM_MOLECULAR_WEIGHT>
233.34
> <PUBCHEM_OPENEYE_CAN_SMILES>
CCO[Si]12OCCN(CCO1)CC(O2)C
> <PUBCHEM_OPENEYE_ISO_SMILES>
CCO[Si]12OCCN(CCO1)CC(O2)C
> <PUBCHEM_CACTVS_TPSA>
40.2
> <PUBCHEM_MONOISOTOPIC_WEIGHT>
233.10833462
> <PUBCHEM_TOTAL_CHARGE>
0
> <PUBCHEM_HEAVY_ATOM_COUNT>
15
> <PUBCHEM_ATOM_DEF_STEREO_COUNT>
0
> <PUBCHEM_ATOM_UDEF_STEREO_COUNT>
1
> <PUBCHEM_BOND_DEF_STEREO_COUNT>
0
> <PUBCHEM_BOND_UDEF_STEREO_COUNT>
0
> <PUBCHEM_ISOTOPIC_ATOM_COUNT>
0
> <PUBCHEM_COMPONENT_COUNT>
1
> <PUBCHEM_CACTVS_TAUTO_COUNT>
-1
> <PUBCHEM_COORDINATE_TYPE>
1
5
255
> <PUBCHEM_BONDANNOTATIONS>
8  13  3
$$$$
