524968
  -OEChem-10302200292D
 30 31  0     1  0  0  0  0  0999 V2000
    4.9898   -0.7826    0.0000 Si  0  0  0  0  0  0  0  0  0  0  0  0
    3.7687   -1.6483    0.0000 O   0  0  0  0  0  0  0  0  0  0  0  0
    6.2614   -1.5773    0.0000 O   0  0  0  0  0  0  0  0  0  0  0  0
    3.7688    0.8350    0.0000 O   0  0  0  0  0  0  0  0  0  0  0  0
    5.2486    0.1833    0.0000 N   0  0  0  0  0  0  0  0  0  0  0  0
    3.2153   -0.1279    0.0000 C   0  0  0  0  0  0  0  0  0  0  0  0
    2.9397   -1.0891    0.0000 C   0  0  3  0  0  0  0  0  0  0  0  0
    6.6802   -0.0144    0.0000 C   0  0  0  0  0  0  0  0  0  0  0  0
    5.1701    1.6440    0.0000 C   0  0  0  0  0  0  0  0  0  0  0  0
    7.0386   -0.9480    0.0000 C   0  0  0  0  0  0  0  0  0  0  0  0
    4.1756    1.7486    0.0000 C   0  0  0  0  0  0  0  0  0  0  0  0
    2.0000   -1.4311    0.0000 C   0  0  0  0  0  0  0  0  0  0  0  0
    4.7309   -1.7486    0.0000 C   0  0  0  0  0  0  0  0  0  0  0  0
    3.2103    0.4921    0.0000 H   0  0  0  0  0  0  0  0  0  0  0  0
    2.6010   -0.0441    0.0000 H   0  0  0  0  0  0  0  0  0  0  0  0
    2.8641   -1.7045    0.0000 H   0  0  0  0  0  0  0  0  0  0  0  0
    7.2880    0.1079    0.0000 H   0  0  0  0  0  0  0  0  0  0  0  0
    6.6612    0.6053    0.0000 H   0  0  0  0  0  0  0  0  0  0  0  0
    5.7901    1.6446    0.0000 H   0  0  0  0  0  0  0  0  0  0  0  0
    5.2022    2.2632    0.0000 H   0  0  0  0  0  0  0  0  0  0  0  0
    7.3763   -1.4679    0.0000 H   0  0  0  0  0  0  0  0  0  0  0  0
    7.5910   -0.6665    0.0000 H   0  0  0  0  0  0  0  0  0  0  0  0
    4.3045    2.3550    0.0000 H   0  0  0  0  0  0  0  0  0  0  0  0
    3.5859    1.9402    0.0000 H   0  0  0  0  0  0  0  0  0  0  0  0
    1.7880   -0.8485    0.0000 H   0  0  0  0  0  0  0  0  0  0  0  0
    1.4174   -1.6432    0.0000 H   0  0  0  0  0  0  0  0  0  0  0  0
    2.2120   -2.0137    0.0000 H   0  0  0  0  0  0  0  0  0  0  0  0
    4.1321   -1.5881    0.0000 H   0  0  0  0  0  0  0  0  0  0  0  0
    4.5705   -2.3474    0.0000 H   0  0  0  0  0  0  0  0  0  0  0  0
    5.3298   -1.9090    0.0000 H   0  0  0  0  0  0  0  0  0  0  0  0
  1  2  1  0  0  0  0
  1  3  1  0  0  0  0
  1  4  1  0  0  0  0
  1 13  1  0  0  0  0
  2  7  1  0  0  0  0
  3 10  1  0  0  0  0
  4 11  1  0  0  0  0
  5  6  1  0  0  0  0
  5  8  1  0  0  0  0
  5  9  1  0  0  0  0
  6  7  1  0  0  0  0
  6 14  1  0  0  0  0
  6 15  1  0  0  0  0
  7 12  1  0  0  0  0
  7 16  1  0  0  0  0
  8 10  1  0  0  0  0
  8 17  1  0  0  0  0
  8 18  1  0  0  0  0
  9 11  1  0  0  0  0
  9 19  1  0  0  0  0
  9 20  1  0  0  0  0
 10 21  1  0  0  0  0
 10 22  1  0  0  0  0
 11 23  1  0  0  0  0
 11 24  1  0  0  0  0
 12 25  1  0  0  0  0
 12 26  1  0  0  0  0
 12 27  1  0  0  0  0
 13 28  1  0  0  0  0
 13 29  1  0  0  0  0
 13 30  1  0  0  0  0
M  END
> <PUBCHEM_COMPOUND_CID>
524968
> <PUBCHEM_COMPOUND_CANONICALIZED>
1
> <PUBCHEM_CACTVS_COMPLEXITY>
180
> <PUBCHEM_CACTVS_HBOND_ACCEPTOR>
4
> <PUBCHEM_CACTVS_HBOND_DONOR>
0
> <PUBCHEM_CACTVS_ROTATABLE_BOND>
0
> <PUBCHEM_CACTVS_SUBSKEYS>
AAADceByMAgAAAAAAAAAAAAAAAAAAAAAAAAAAAAAAAAWLAAAAAAAHhAAAEAACBThgAZCAAMAAAAAAAAAAAAAAAAAAAAAAAAIAAACAAAAAAAEAAAAAACQAAAAAAAAAAAAAAAAAAAAAAAAAAAAAAAAAAAAAA==
> <PUBCHEM_IUPAC_OPENEYE_NAME>
1,3-dimethyl-2,8,9-trioxa-5-aza-1-silabicyclo[3.3.3]undecane
> <PUBCHEM_IUPAC_CAS_NAME>
1,3-dimethyl-2,8,9-trioxa-5-aza-1-silabicyclo[3.3.3]undecane
> <PUBCHEM_IUPAC_NAME_MARKUP>
1,3-dimethyl-2,8,9-trioxa-5-aza-1-silabicyclo[3.3.3]undecane
> <PUBCHEM_IUPAC_NAME>
1,3-dimethyl-2,8,9-trioxa-5-aza-1-silabicyclo[3.3.3]undecane
> <PUBCHEM_IUPAC_SYSTEMATIC_NAME>
1,3-dimethyl-2,8,9-trioxa-5-aza-1-silabicyclo[3.3.3]undecane
> <PUBCHEM_IUPAC_TRADITIONAL_NAME>
1,3-dimethyl-2,8,9-trioxa-5-aza-1-silabicyclo[3.3.3]undecane
> <PUBCHEM_IUPAC_INCHI>
InChI=1S/C8H17NO3Si/c1-8-7-9-3-5-10-13(2,12-8)11-6-4-9/h8H,3-7H2,1-2H3
> <PUBCHEM_IUPAC_INCHIKEY>
SJSYJCKBYWTBQM-UHFFFAOYSA-N
> <PUBCHEM_EXACT_MASS>
203.09776994
> <PUBCHEM_MOLECULAR_FORMULA>
C8H17NO3Si
> <PUBCHEM_MOLECULAR_WEIGHT>
203.31
> <PUBCHEM_OPENEYE_CAN_SMILES>
CC1CN2CCO[Si](O1)(OCC2)C
> <PUBCHEM_OPENEYE_ISO_SMILES>
CC1CN2CCO[Si](O1)(OCC2)C
> <PUBCHEM_CACTVS_TPSA>
30.9
> <PUBCHEM_MONOISOTOPIC_WEIGHT>
203.09776994
> <PUBCHEM_TOTAL_CHARGE>
0
> <PUBCHEM_HEAVY_ATOM_COUNT>
13
> <PUBCHEM_ATOM_DEF_STEREO_COUNT>
0
> <PUBCHEM_ATOM_UDEF_STEREO_COUNT>
1
> <PUBCHEM_BOND_DEF_STEREO_COUNT>
0
> <PUBCHEM_BOND_UDEF_STEREO_COUNT>
0
> <PUBCHEM_ISOTOPIC_ATOM_COUNT>
0
> <PUBCHEM_COMPONENT_COUNT>
1
> <PUBCHEM_CACTVS_TAUTO_COUNT>
-1
> <PUBCHEM_COORDINATE_TYPE>
1
5
255
> <PUBCHEM_BONDANNOTATIONS>
7  12  3
$$$$
