524905
  -OEChem-10302200292D
 67 69  0     1  0  0  0  0  0999 V2000
    6.2208   -3.8454    0.0000 Si  0  0  0  0  0  0  0  0  0  0  0  0
    9.3412   -2.6057    0.0000 Si  0  0  0  0  0  0  0  0  0  0  0  0
    2.8660    3.7214    0.0000 Si  0  0  0  0  0  0  0  0  0  0  0  0
    6.8066   -0.8412    0.0000 O   0  0  0  0  0  0  0  0  0  0  0  0
    5.5504   -3.1035    0.0000 O   0  0  0  0  0  0  0  0  0  0  0  0
    8.5312   -2.0193    0.0000 O   0  0  0  0  0  0  0  0  0  0  0  0
    5.5443    0.4167    0.0000 N   0  0  0  0  0  0  0  0  0  0  0  0
    5.5443    2.0261    0.0000 N   0  0  0  0  0  0  0  0  0  0  0  0
    3.7320    0.2214    0.0000 N   0  0  0  0  0  0  0  0  0  0  0  0
    3.7320    3.2214    0.0000 N   0  0  0  0  0  0  0  0  0  0  0  0
    2.8660    1.7214    0.0000 N   0  0  0  0  0  0  0  0  0  0  0  0
    5.8578   -2.1519    0.0000 C   0  0  3  0  0  0  0  0  0  0  0  0
    6.8083   -1.8412    0.0000 C   0  0  3  0  0  0  0  0  0  0  0  0
    5.2686   -1.3439    0.0000 C   0  0  0  0  0  0  0  0  0  0  0  0
    5.8550   -0.5338    0.0000 C   0  0  3  0  0  0  0  0  0  0  0  0
    7.6183   -2.4276    0.0000 C   0  0  0  0  0  0  0  0  0  0  0  0
    4.5981    0.7214    0.0000 C   0  0  0  0  0  0  0  0  0  0  0  0
    6.1279    1.2214    0.0000 C   0  0  0  0  0  0  0  0  0  0  0  0
    6.8912   -4.5874    0.0000 C   0  0  0  0  0  0  0  0  0  0  0  0
    5.4788   -4.5159    0.0000 C   0  0  0  0  0  0  0  0  0  0  0  0
    6.9628   -3.1750    0.0000 C   0  0  0  0  0  0  0  0  0  0  0  0
    4.5981    1.7214    0.0000 C   0  0  0  0  0  0  0  0  0  0  0  0
    3.7320    2.2214    0.0000 C   0  0  0  0  0  0  0  0  0  0  0  0
   10.1512   -3.1920    0.0000 C   0  0  0  0  0  0  0  0  0  0  0  0
    9.9276   -1.7956    0.0000 C   0  0  0  0  0  0  0  0  0  0  0  0
    8.7548   -3.4157    0.0000 C   0  0  0  0  0  0  0  0  0  0  0  0
    2.8660    0.7214    0.0000 C   0  0  0  0  0  0  0  0  0  0  0  0
    2.0000    4.2214    0.0000 C   0  0  0  0  0  0  0  0  0  0  0  0
    3.3660    4.5874    0.0000 C   0  0  0  0  0  0  0  0  0  0  0  0
    2.3660    2.8554    0.0000 C   0  0  0  0  0  0  0  0  0  0  0  0
    5.2456   -2.2499    0.0000 H   0  0  0  0  0  0  0  0  0  0  0  0
    7.3602   -1.5588    0.0000 H   0  0  0  0  0  0  0  0  0  0  0  0
    4.8071   -0.9298    0.0000 H   0  0  0  0  0  0  0  0  0  0  0  0
    4.8085   -1.7595    0.0000 H   0  0  0  0  0  0  0  0  0  0  0  0
    6.2926   -0.0947    0.0000 H   0  0  0  0  0  0  0  0  0  0  0  0
    7.1731   -2.8591    0.0000 H   0  0  0  0  0  0  0  0  0  0  0  0
    7.9659   -2.9410    0.0000 H   0  0  0  0  0  0  0  0  0  0  0  0
    6.7479    1.2214    0.0000 H   0  0  0  0  0  0  0  0  0  0  0  0
    6.4312   -5.0031    0.0000 H   0  0  0  0  0  0  0  0  0  0  0  0
    7.3069   -5.0475    0.0000 H   0  0  0  0  0  0  0  0  0  0  0  0
    7.3512   -4.1718    0.0000 H   0  0  0  0  0  0  0  0  0  0  0  0
    5.0632   -4.0558    0.0000 H   0  0  0  0  0  0  0  0  0  0  0  0
    5.0188   -4.9315    0.0000 H   0  0  0  0  0  0  0  0  0  0  0  0
    5.8945   -4.9759    0.0000 H   0  0  0  0  0  0  0  0  0  0  0  0
    7.3784   -3.6351    0.0000 H   0  0  0  0  0  0  0  0  0  0  0  0
    7.4228   -2.7594    0.0000 H   0  0  0  0  0  0  0  0  0  0  0  0
    6.5471   -2.7150    0.0000 H   0  0  0  0  0  0  0  0  0  0  0  0
    9.7877   -3.6943    0.0000 H   0  0  0  0  0  0  0  0  0  0  0  0
   10.6534   -3.5556    0.0000 H   0  0  0  0  0  0  0  0  0  0  0  0
   10.5148   -2.6898    0.0000 H   0  0  0  0  0  0  0  0  0  0  0  0
   10.4298   -2.1592    0.0000 H   0  0  0  0  0  0  0  0  0  0  0  0
   10.2911   -1.2934    0.0000 H   0  0  0  0  0  0  0  0  0  0  0  0
    9.4254   -1.4321    0.0000 H   0  0  0  0  0  0  0  0  0  0  0  0
    8.2526   -3.0521    0.0000 H   0  0  0  0  0  0  0  0  0  0  0  0
    8.3912   -3.9179    0.0000 H   0  0  0  0  0  0  0  0  0  0  0  0
    9.2570   -3.7792    0.0000 H   0  0  0  0  0  0  0  0  0  0  0  0
    4.2690    3.5314    0.0000 H   0  0  0  0  0  0  0  0  0  0  0  0
    2.3291    0.4114    0.0000 H   0  0  0  0  0  0  0  0  0  0  0  0
    2.3100    4.7584    0.0000 H   0  0  0  0  0  0  0  0  0  0  0  0
    1.4631    4.5314    0.0000 H   0  0  0  0  0  0  0  0  0  0  0  0
    1.6900    3.6845    0.0000 H   0  0  0  0  0  0  0  0  0  0  0  0
    3.9030    4.2774    0.0000 H   0  0  0  0  0  0  0  0  0  0  0  0
    3.6760    5.1244    0.0000 H   0  0  0  0  0  0  0  0  0  0  0  0
    2.8291    4.8974    0.0000 H   0  0  0  0  0  0  0  0  0  0  0  0
    1.8291    3.1654    0.0000 H   0  0  0  0  0  0  0  0  0  0  0  0
    2.0560    2.3184    0.0000 H   0  0  0  0  0  0  0  0  0  0  0  0
    2.9030    2.5454    0.0000 H   0  0  0  0  0  0  0  0  0  0  0  0
  1  5  1  0  0  0  0
  1 19  1  0  0  0  0
  1 20  1  0  0  0  0
  1 21  1  0  0  0  0
  2  6  1  0  0  0  0
  2 24  1  0  0  0  0
  2 25  1  0  0  0  0
  2 26  1  0  0  0  0
  3 10  1  0  0  0  0
  3 28  1  0  0  0  0
  3 29  1  0  0  0  0
  3 30  1  0  0  0  0
  4 13  1  0  0  0  0
  4 15  1  0  0  0  0
  5 12  1  0  0  0  0
  6 16  1  0  0  0  0
  7 15  1  0  0  0  0
  7 17  1  0  0  0  0
  7 18  1  0  0  0  0
  8 18  2  0  0  0  0
  8 22  1  0  0  0  0
  9 17  2  0  0  0  0
  9 27  1  0  0  0  0
 10 23  1  0  0  0  0
 10 57  1  0  0  0  0
 11 23  1  0  0  0  0
 11 27  2  0  0  0  0
 12 13  1  0  0  0  0
 12 14  1  0  0  0  0
 12 31  1  0  0  0  0
 13 16  1  0  0  0  0
 13 32  1  0  0  0  0
 14 15  1  0  0  0  0
 14 33  1  0  0  0  0
 14 34  1  0  0  0  0
 15 35  1  0  0  0  0
 16 36  1  0  0  0  0
 16 37  1  0  0  0  0
 17 22  1  0  0  0  0
 18 38  1  0  0  0  0
 19 39  1  0  0  0  0
 19 40  1  0  0  0  0
 19 41  1  0  0  0  0
 20 42  1  0  0  0  0
 20 43  1  0  0  0  0
 20 44  1  0  0  0  0
 21 45  1  0  0  0  0
 21 46  1  0  0  0  0
 21 47  1  0  0  0  0
 22 23  2  0  0  0  0
 24 48  1  0  0  0  0
 24 49  1  0  0  0  0
 24 50  1  0  0  0  0
 25 51  1  0  0  0  0
 25 52  1  0  0  0  0
 25 53  1  0  0  0  0
 26 54  1  0  0  0  0
 26 55  1  0  0  0  0
 26 56  1  0  0  0  0
 27 58  1  0  0  0  0
 28 59  1  0  0  0  0
 28 60  1  0  0  0  0
 28 61  1  0  0  0  0
 29 62  1  0  0  0  0
 29 63  1  0  0  0  0
 29 64  1  0  0  0  0
 30 65  1  0  0  0  0
 30 66  1  0  0  0  0
 30 67  1  0  0  0  0
M  END
> <PUBCHEM_COMPOUND_CID>
524905
> <PUBCHEM_COMPOUND_CANONICALIZED>
1
> <PUBCHEM_CACTVS_COMPLEXITY>
581
> <PUBCHEM_CACTVS_HBOND_ACCEPTOR>
7
> <PUBCHEM_CACTVS_HBOND_DONOR>
1
> <PUBCHEM_CACTVS_ROTATABLE_BOND>
8
> <PUBCHEM_CACTVS_SUBSKEYS>
AAADcfB7sAwAAAAAAAAAAAAAAAAAAWJAAAAsAAAAAAAAAFgB+AAAHhARAEAACBzhlwZH8L9MFAGgAQZhZACAgC0REKABUCAoVBCBSAJAyEAeBAgPAALCACCwMAIAAAAAAAAAAAAAAAAAAAAAAAAAAAAAAA==
> <PUBCHEM_IUPAC_OPENEYE_NAME>
N-trimethylsilyl-9-[4-trimethylsilyloxy-5-(trimethylsilyloxymethyl)tetrahydrofuran-2-yl]purin-6-amine
> <PUBCHEM_IUPAC_CAS_NAME>
N-trimethylsilyl-9-[4-trimethylsilyloxy-5-(trimethylsilyloxymethyl)-2-oxolanyl]-6-purinamine
> <PUBCHEM_IUPAC_NAME_MARKUP>
<I>N</I>-trimethylsilyl-9-[4-trimethylsilyloxy-5-(trimethylsilyloxymethyl)oxolan-2-yl]purin-6-amine
> <PUBCHEM_IUPAC_NAME>
N-trimethylsilyl-9-[4-trimethylsilyloxy-5-(trimethylsilyloxymethyl)oxolan-2-yl]purin-6-amine
> <PUBCHEM_IUPAC_SYSTEMATIC_NAME>
N-trimethylsilyl-9-[4-trimethylsilyloxy-5-(trimethylsilyloxymethyl)oxolan-2-yl]purin-6-amine
> <PUBCHEM_IUPAC_TRADITIONAL_NAME>
trimethylsilyl-[9-[4-trimethylsilyloxy-5-(trimethylsilyloxymethyl)tetrahydrofuran-2-yl]purin-6-yl]amine
> <PUBCHEM_IUPAC_INCHI>
InChI=1S/C19H37N5O3Si3/c1-28(2,3)23-18-17-19(21-12-20-18)24(13-22-17)16-10-14(27-30(7,8)9)15(26-16)11-25-29(4,5)6/h12-16H,10-11H2,1-9H3,(H,20,21,23)
> <PUBCHEM_IUPAC_INCHIKEY>
PSEZCYIEJIOFHY-UHFFFAOYSA-N
> <PUBCHEM_EXACT_MASS>
467.22041966
> <PUBCHEM_MOLECULAR_FORMULA>
C19H37N5O3Si3
> <PUBCHEM_MOLECULAR_WEIGHT>
467.8
> <PUBCHEM_OPENEYE_CAN_SMILES>
C[Si](C)(C)NC1=C2C(=NC=N1)N(C=N2)C3CC(C(O3)CO[Si](C)(C)C)O[Si](C)(C)C
> <PUBCHEM_OPENEYE_ISO_SMILES>
C[Si](C)(C)NC1=C2C(=NC=N1)N(C=N2)C3CC(C(O3)CO[Si](C)(C)C)O[Si](C)(C)C
> <PUBCHEM_CACTVS_TPSA>
83.3
> <PUBCHEM_MONOISOTOPIC_WEIGHT>
467.22041966
> <PUBCHEM_TOTAL_CHARGE>
0
> <PUBCHEM_HEAVY_ATOM_COUNT>
30
> <PUBCHEM_ATOM_DEF_STEREO_COUNT>
0
> <PUBCHEM_ATOM_UDEF_STEREO_COUNT>
3
> <PUBCHEM_BOND_DEF_STEREO_COUNT>
0
> <PUBCHEM_BOND_UDEF_STEREO_COUNT>
0
> <PUBCHEM_ISOTOPIC_ATOM_COUNT>
0
> <PUBCHEM_COMPONENT_COUNT>
1
> <PUBCHEM_CACTVS_TAUTO_COUNT>
-1
> <PUBCHEM_COORDINATE_TYPE>
1
5
255
> <PUBCHEM_BONDANNOTATIONS>
11  23  8
11  27  8
13  16  3
17  22  8
22  23  8
12  5  3
15  7  3
7  17  8
7  18  8
8  18  8
8  22  8
9  17  8
9  27  8
$$$$
