524973
  -OEChem-10302200292D
 49 51  0     1  0  0  0  0  0999 V2000
    4.9898   -0.0116    0.0000 Si  0  0  0  0  0  0  0  0  0  0  0  0
    3.7688    1.6060    0.0000 O   0  0  0  0  0  0  0  0  0  0  0  0
    6.2614   -0.8063    0.0000 O   0  0  0  0  0  0  0  0  0  0  0  0
    3.7687   -0.8773    0.0000 O   0  0  0  0  0  0  0  0  0  0  0  0
    5.2486    0.9543    0.0000 N   0  0  0  0  0  0  0  0  0  0  0  0
    5.1701    2.4151    0.0000 C   0  0  0  0  0  0  0  0  0  0  0  0
    6.6802    0.7566    0.0000 C   0  0  0  0  0  0  0  0  0  0  0  0
    3.2153    0.6432    0.0000 C   0  0  0  0  0  0  0  0  0  0  0  0
    4.1756    2.5196    0.0000 C   0  0  0  0  0  0  0  0  0  0  0  0
    7.0386   -0.1770    0.0000 C   0  0  3  0  0  0  0  0  0  0  0  0
    2.9397   -0.3181    0.0000 C   0  0  3  0  0  0  0  0  0  0  0  0
    5.5039    3.3577    0.0000 C   0  0  0  0  0  0  0  0  0  0  0  0
    6.0727    2.8456    0.0000 C   0  0  0  0  0  0  0  0  0  0  0  0
    4.7309   -0.9776    0.0000 C   0  0  0  0  0  0  0  0  0  0  0  0
    8.0045   -0.4358    0.0000 C   0  0  0  0  0  0  0  0  0  0  0  0
    2.0000   -0.6601    0.0000 C   0  0  0  0  0  0  0  0  0  0  0  0
    5.4380   -1.6847    0.0000 C   0  0  0  0  0  0  0  0  0  0  0  0
    6.4040   -1.4258    0.0000 C   0  0  0  0  0  0  0  0  0  0  0  0
    5.1792   -2.6506    0.0000 C   0  0  0  0  0  0  0  0  0  0  0  0
    7.1111   -2.1330    0.0000 C   0  0  0  0  0  0  0  0  0  0  0  0
    5.8863   -3.3577    0.0000 C   0  0  0  0  0  0  0  0  0  0  0  0
    6.8522   -3.0989    0.0000 C   0  0  0  0  0  0  0  0  0  0  0  0
    7.2880    0.8790    0.0000 H   0  0  0  0  0  0  0  0  0  0  0  0
    6.6612    1.3763    0.0000 H   0  0  0  0  0  0  0  0  0  0  0  0
    3.2103    1.2631    0.0000 H   0  0  0  0  0  0  0  0  0  0  0  0
    2.6010    0.7269    0.0000 H   0  0  0  0  0  0  0  0  0  0  0  0
    4.3045    3.1260    0.0000 H   0  0  0  0  0  0  0  0  0  0  0  0
    3.5859    2.7112    0.0000 H   0  0  0  0  0  0  0  0  0  0  0  0
    7.1675   -0.7834    0.0000 H   0  0  0  0  0  0  0  0  0  0  0  0
    2.8641   -0.9335    0.0000 H   0  0  0  0  0  0  0  0  0  0  0  0
    6.0883    3.1507    0.0000 H   0  0  0  0  0  0  0  0  0  0  0  0
    5.7108    3.9421    0.0000 H   0  0  0  0  0  0  0  0  0  0  0  0
    4.9194    3.5647    0.0000 H   0  0  0  0  0  0  0  0  0  0  0  0
    6.3396    2.2860    0.0000 H   0  0  0  0  0  0  0  0  0  0  0  0
    6.6323    3.1125    0.0000 H   0  0  0  0  0  0  0  0  0  0  0  0
    5.8057    3.4052    0.0000 H   0  0  0  0  0  0  0  0  0  0  0  0
    4.1690   -0.7155    0.0000 H   0  0  0  0  0  0  0  0  0  0  0  0
    4.3753   -1.4854    0.0000 H   0  0  0  0  0  0  0  0  0  0  0  0
    7.8440   -1.0346    0.0000 H   0  0  0  0  0  0  0  0  0  0  0  0
    8.6034   -0.5962    0.0000 H   0  0  0  0  0  0  0  0  0  0  0  0
    8.1650    0.1631    0.0000 H   0  0  0  0  0  0  0  0  0  0  0  0
    1.7880   -0.0775    0.0000 H   0  0  0  0  0  0  0  0  0  0  0  0
    1.4174   -0.8722    0.0000 H   0  0  0  0  0  0  0  0  0  0  0  0
    2.2120   -1.2427    0.0000 H   0  0  0  0  0  0  0  0  0  0  0  0
    6.5644   -0.8270    0.0000 H   0  0  0  0  0  0  0  0  0  0  0  0
    4.5804   -2.8111    0.0000 H   0  0  0  0  0  0  0  0  0  0  0  0
    7.7100   -1.9725    0.0000 H   0  0  0  0  0  0  0  0  0  0  0  0
    5.7259   -3.9566    0.0000 H   0  0  0  0  0  0  0  0  0  0  0  0
    7.2907   -3.5373    0.0000 H   0  0  0  0  0  0  0  0  0  0  0  0
  1  2  1  0  0  0  0
  1  3  1  0  0  0  0
  1  4  1  0  0  0  0
  1 14  1  0  0  0  0
  2  9  1  0  0  0  0
  3 10  1  0  0  0  0
  4 11  1  0  0  0  0
  5  6  1  0  0  0  0
  5  7  1  0  0  0  0
  5  8  1  0  0  0  0
  6  9  1  0  0  0  0
  6 12  1  0  0  0  0
  6 13  1  0  0  0  0
  7 10  1  0  0  0  0
  7 23  1  0  0  0  0
  7 24  1  0  0  0  0
  8 11  1  0  0  0  0
  8 25  1  0  0  0  0
  8 26  1  0  0  0  0
  9 27  1  0  0  0  0
  9 28  1  0  0  0  0
 10 15  1  0  0  0  0
 10 29  1  0  0  0  0
 11 16  1  0  0  0  0
 11 30  1  0  0  0  0
 12 31  1  0  0  0  0
 12 32  1  0  0  0  0
 12 33  1  0  0  0  0
 13 34  1  0  0  0  0
 13 35  1  0  0  0  0
 13 36  1  0  0  0  0
 14 17  1  0  0  0  0
 14 37  1  0  0  0  0
 14 38  1  0  0  0  0
 15 39  1  0  0  0  0
 15 40  1  0  0  0  0
 15 41  1  0  0  0  0
 16 42  1  0  0  0  0
 16 43  1  0  0  0  0
 16 44  1  0  0  0  0
 17 18  2  0  0  0  0
 17 19  1  0  0  0  0
 18 20  1  0  0  0  0
 18 45  1  0  0  0  0
 19 21  2  0  0  0  0
 19 46  1  0  0  0  0
 20 22  2  0  0  0  0
 20 47  1  0  0  0  0
 21 22  1  0  0  0  0
 21 48  1  0  0  0  0
 22 49  1  0  0  0  0
M  END
> <PUBCHEM_COMPOUND_CID>
524973
> <PUBCHEM_COMPOUND_CANONICALIZED>
1
> <PUBCHEM_CACTVS_COMPLEXITY>
370
> <PUBCHEM_CACTVS_HBOND_ACCEPTOR>
4
> <PUBCHEM_CACTVS_HBOND_DONOR>
0
> <PUBCHEM_CACTVS_ROTATABLE_BOND>
2
> <PUBCHEM_CACTVS_SUBSKEYS>
AAADceB6MAgAAAAAAAAAAAAAAAAAAAAAAAAwAAAAAAAWLAABAAAAHhAAAEAADJzhuAZyAIMAAACAAiBCAAACAAAgAAAIiAAIAIgKICKAERCEIAAggACYiAcAgAAOAAAAAAAAAAAAAAAAAAAAAAAAAAAAAA==
> <PUBCHEM_IUPAC_OPENEYE_NAME>
1-benzyl-3,6,6,10-tetramethyl-2,8,9-trioxa-5-aza-1-silabicyclo[3.3.3]undecane
> <PUBCHEM_IUPAC_CAS_NAME>
3,6,6,10-tetramethyl-1-(phenylmethyl)-2,8,9-trioxa-5-aza-1-silabicyclo[3.3.3]undecane
> <PUBCHEM_IUPAC_NAME_MARKUP>
1-benzyl-3,6,6,10-tetramethyl-2,8,9-trioxa-5-aza-1-silabicyclo[3.3.3]undecane
> <PUBCHEM_IUPAC_NAME>
1-benzyl-3,6,6,10-tetramethyl-2,8,9-trioxa-5-aza-1-silabicyclo[3.3.3]undecane
> <PUBCHEM_IUPAC_SYSTEMATIC_NAME>
3,6,6,10-tetramethyl-1-(phenylmethyl)-2,8,9-trioxa-5-aza-1-silabicyclo[3.3.3]undecane
> <PUBCHEM_IUPAC_TRADITIONAL_NAME>
1-benzyl-3,6,6,10-tetramethyl-2,8,9-trioxa-5-aza-1-silabicyclo[3.3.3]undecane
> <PUBCHEM_IUPAC_INCHI>
InChI=1S/C17H27NO3Si/c1-14-10-18-11-15(2)21-22(20-14,19-13-17(18,3)4)12-16-8-6-5-7-9-16/h5-9,14-15H,10-13H2,1-4H3
> <PUBCHEM_IUPAC_INCHIKEY>
QKTHTNVMCPWGHL-UHFFFAOYSA-N
> <PUBCHEM_EXACT_MASS>
321.17602026
> <PUBCHEM_MOLECULAR_FORMULA>
C17H27NO3Si
> <PUBCHEM_MOLECULAR_WEIGHT>
321.5
> <PUBCHEM_OPENEYE_CAN_SMILES>
CC1CN2CC(O[Si](O1)(OCC2(C)C)CC3=CC=CC=C3)C
> <PUBCHEM_OPENEYE_ISO_SMILES>
CC1CN2CC(O[Si](O1)(OCC2(C)C)CC3=CC=CC=C3)C
> <PUBCHEM_CACTVS_TPSA>
30.9
> <PUBCHEM_MONOISOTOPIC_WEIGHT>
321.17602026
> <PUBCHEM_TOTAL_CHARGE>
0
> <PUBCHEM_HEAVY_ATOM_COUNT>
22
> <PUBCHEM_ATOM_DEF_STEREO_COUNT>
0
> <PUBCHEM_ATOM_UDEF_STEREO_COUNT>
2
> <PUBCHEM_BOND_DEF_STEREO_COUNT>
0
> <PUBCHEM_BOND_UDEF_STEREO_COUNT>
0
> <PUBCHEM_ISOTOPIC_ATOM_COUNT>
0
> <PUBCHEM_COMPONENT_COUNT>
1
> <PUBCHEM_CACTVS_TAUTO_COUNT>
-1
> <PUBCHEM_COORDINATE_TYPE>
1
5
255
> <PUBCHEM_BONDANNOTATIONS>
10  15  3
11  16  3
17  18  8
17  19  8
18  20  8
19  21  8
20  22  8
21  22  8
$$$$
