524929
  -OEChem-10302200292D
 44 46  0     1  0  0  0  0  0999 V2000
    4.5981    1.7500    0.0000 O   0  0  0  0  0  0  0  0  0  0  0  0
    4.5981   -2.2500    0.0000 O   0  0  0  0  0  0  0  0  0  0  0  0
    2.0000   -0.7500    0.0000 O   0  0  0  0  0  0  0  0  0  0  0  0
    3.7320   -2.7500    0.0000 O   0  0  0  0  0  0  0  0  0  0  0  0
    5.4641    0.2500    0.0000 N   0  0  0  0  0  0  0  0  0  0  0  0
    3.7320   -0.7500    0.0000 N   0  0  0  0  0  0  0  0  0  0  0  0
    5.4641   -0.7500    0.0000 C   0  0  3  0  0  0  0  0  0  0  0  0
    6.4103   -1.0547    0.0000 C   0  0  0  0  0  0  0  0  0  0  0  0
    6.4103    0.5547    0.0000 C   0  0  0  0  0  0  0  0  0  0  0  0
    6.9939   -0.2500    0.0000 C   0  0  0  0  0  0  0  0  0  0  0  0
    3.7320    0.2500    0.0000 C   0  0  3  0  0  0  0  0  0  0  0  0
    4.5981    0.7500    0.0000 C   0  0  0  0  0  0  0  0  0  0  0  0
    4.5981   -1.2500    0.0000 C   0  0  0  0  0  0  0  0  0  0  0  0
    2.8660    0.7500    0.0000 C   0  0  0  0  0  0  0  0  0  0  0  0
    2.8660   -1.2500    0.0000 C   0  0  0  0  0  0  0  0  0  0  0  0
    2.8660    1.7500    0.0000 C   0  0  0  0  0  0  0  0  0  0  0  0
    2.8660   -2.2500    0.0000 C   0  0  0  0  0  0  0  0  0  0  0  0
    2.0000    2.2500    0.0000 C   0  0  0  0  0  0  0  0  0  0  0  0
    3.7320    2.2500    0.0000 C   0  0  0  0  0  0  0  0  0  0  0  0
    2.0000   -2.7500    0.0000 C   0  0  0  0  0  0  0  0  0  0  0  0
    2.0000    3.2500    0.0000 C   0  0  0  0  0  0  0  0  0  0  0  0
    3.7320    3.2500    0.0000 C   0  0  0  0  0  0  0  0  0  0  0  0
    2.8660    3.7500    0.0000 C   0  0  0  0  0  0  0  0  0  0  0  0
    2.0000   -3.7500    0.0000 C   0  0  0  0  0  0  0  0  0  0  0  0
    5.5297   -1.3665    0.0000 H   0  0  0  0  0  0  0  0  0  0  0  0
    6.1593   -1.6216    0.0000 H   0  0  0  0  0  0  0  0  0  0  0  0
    6.9477   -1.3640    0.0000 H   0  0  0  0  0  0  0  0  0  0  0  0
    6.9477    0.8640    0.0000 H   0  0  0  0  0  0  0  0  0  0  0  0
    6.1593    1.1216    0.0000 H   0  0  0  0  0  0  0  0  0  0  0  0
    7.4548   -0.6647    0.0000 H   0  0  0  0  0  0  0  0  0  0  0  0
    7.4548    0.1647    0.0000 H   0  0  0  0  0  0  0  0  0  0  0  0
    3.1951   -0.0600    0.0000 H   0  0  0  0  0  0  0  0  0  0  0  0
    2.2554    0.8577    0.0000 H   0  0  0  0  0  0  0  0  0  0  0  0
    2.6540    0.1674    0.0000 H   0  0  0  0  0  0  0  0  0  0  0  0
    1.4631    1.9400    0.0000 H   0  0  0  0  0  0  0  0  0  0  0  0
    4.2690    1.9400    0.0000 H   0  0  0  0  0  0  0  0  0  0  0  0
    1.7880   -2.1674    0.0000 H   0  0  0  0  0  0  0  0  0  0  0  0
    1.3894   -2.8577    0.0000 H   0  0  0  0  0  0  0  0  0  0  0  0
    1.4631    3.5600    0.0000 H   0  0  0  0  0  0  0  0  0  0  0  0
    4.2690    3.5600    0.0000 H   0  0  0  0  0  0  0  0  0  0  0  0
    2.8660    4.3700    0.0000 H   0  0  0  0  0  0  0  0  0  0  0  0
    1.3800   -3.7500    0.0000 H   0  0  0  0  0  0  0  0  0  0  0  0
    2.0000   -4.3700    0.0000 H   0  0  0  0  0  0  0  0  0  0  0  0
    2.6200   -3.7500    0.0000 H   0  0  0  0  0  0  0  0  0  0  0  0
  1 12  2  0  0  0  0
  2 13  2  0  0  0  0
  3 15  2  0  0  0  0
  4 17  2  0  0  0  0
  5  7  1  0  0  0  0
  5  9  1  0  0  0  0
  5 12  1  0  0  0  0
  6 11  1  0  0  0  0
  6 13  1  0  0  0  0
  6 15  1  0  0  0  0
  7  8  1  0  0  0  0
  7 13  1  0  0  0  0
  7 25  1  0  0  0  0
  8 10  1  0  0  0  0
  8 26  1  0  0  0  0
  8 27  1  0  0  0  0
  9 10  1  0  0  0  0
  9 28  1  0  0  0  0
  9 29  1  0  0  0  0
 10 30  1  0  0  0  0
 10 31  1  0  0  0  0
 11 12  1  0  0  0  0
 11 14  1  0  0  0  0
 11 32  1  0  0  0  0
 14 16  1  0  0  0  0
 14 33  1  0  0  0  0
 14 34  1  0  0  0  0
 15 17  1  0  0  0  0
 16 18  2  0  0  0  0
 16 19  1  0  0  0  0
 17 20  1  0  0  0  0
 18 21  1  0  0  0  0
 18 35  1  0  0  0  0
 19 22  2  0  0  0  0
 19 36  1  0  0  0  0
 20 24  1  0  0  0  0
 20 37  1  0  0  0  0
 20 38  1  0  0  0  0
 21 23  2  0  0  0  0
 21 39  1  0  0  0  0
 22 23  1  0  0  0  0
 22 40  1  0  0  0  0
 23 41  1  0  0  0  0
 24 42  1  0  0  0  0
 24 43  1  0  0  0  0
 24 44  1  0  0  0  0
M  END
> <PUBCHEM_COMPOUND_CID>
524929
> <PUBCHEM_COMPOUND_CANONICALIZED>
1
> <PUBCHEM_CACTVS_COMPLEXITY>
553
> <PUBCHEM_CACTVS_HBOND_ACCEPTOR>
4
> <PUBCHEM_CACTVS_HBOND_DONOR>
0
> <PUBCHEM_CACTVS_ROTATABLE_BOND>
4
> <PUBCHEM_CACTVS_SUBSKEYS>
AAADceB7OAAAAAAAAAAAAAAAAAAAAWAAAAA8QAAAAAAAAFgBAAAAHgAAAAAADCzBmAQyAIMAAACIAqFSEAACAAAgAAAIiAGIAIgIYDKAkTGUIAAghiCIiAcYiYCOAAAAAAAAAAAAAAAAAAAAAAAAAAAAAA==
> <PUBCHEM_IUPAC_OPENEYE_NAME>
3-benzyl-2-(2-oxobutanoyl)-6,7,8,8a-tetrahydro-3H-pyrrolo[1,2-a]pyrazine-1,4-dione
> <PUBCHEM_IUPAC_CAS_NAME>
2-(1,2-dioxobutyl)-3-(phenylmethyl)-6,7,8,8a-tetrahydro-3H-pyrrolo[1,2-a]pyrazine-1,4-dione
> <PUBCHEM_IUPAC_NAME_MARKUP>
3-benzyl-2-(2-oxobutanoyl)-6,7,8,8<I>a</I>-tetrahydro-3<I>H</I>-pyrrolo[1,2-a]pyrazine-1,4-dione
> <PUBCHEM_IUPAC_NAME>
3-benzyl-2-(2-oxobutanoyl)-6,7,8,8a-tetrahydro-3H-pyrrolo[1,2-a]pyrazine-1,4-dione
> <PUBCHEM_IUPAC_SYSTEMATIC_NAME>
2-(2-oxidanylidenebutanoyl)-3-(phenylmethyl)-6,7,8,8a-tetrahydro-3H-pyrrolo[1,2-a]pyrazine-1,4-dione
> <PUBCHEM_IUPAC_TRADITIONAL_NAME>
3-benzyl-2-(2-ketobutanoyl)-6,7,8,8a-tetrahydro-3H-pyrrolo[1,2-a]pyrazine-1,4-quinone
> <PUBCHEM_IUPAC_INCHI>
InChI=1S/C18H20N2O4/c1-2-15(21)18(24)20-14(11-12-7-4-3-5-8-12)16(22)19-10-6-9-13(19)17(20)23/h3-5,7-8,13-14H,2,6,9-11H2,1H3
> <PUBCHEM_IUPAC_INCHIKEY>
NYTGHHCMDDJUKF-UHFFFAOYSA-N
> <PUBCHEM_XLOGP3_AA>
1.7
> <PUBCHEM_EXACT_MASS>
328.14230712
> <PUBCHEM_MOLECULAR_FORMULA>
C18H20N2O4
> <PUBCHEM_MOLECULAR_WEIGHT>
328.4
> <PUBCHEM_OPENEYE_CAN_SMILES>
CCC(=O)C(=O)N1C(C(=O)N2CCCC2C1=O)CC3=CC=CC=C3
> <PUBCHEM_OPENEYE_ISO_SMILES>
CCC(=O)C(=O)N1C(C(=O)N2CCCC2C1=O)CC3=CC=CC=C3
> <PUBCHEM_CACTVS_TPSA>
74.8
> <PUBCHEM_MONOISOTOPIC_WEIGHT>
328.14230712
> <PUBCHEM_TOTAL_CHARGE>
0
> <PUBCHEM_HEAVY_ATOM_COUNT>
24
> <PUBCHEM_ATOM_DEF_STEREO_COUNT>
0
> <PUBCHEM_ATOM_UDEF_STEREO_COUNT>
2
> <PUBCHEM_BOND_DEF_STEREO_COUNT>
0
> <PUBCHEM_BOND_UDEF_STEREO_COUNT>
0
> <PUBCHEM_ISOTOPIC_ATOM_COUNT>
0
> <PUBCHEM_COMPONENT_COUNT>
1
> <PUBCHEM_CACTVS_TAUTO_COUNT>
-1
> <PUBCHEM_COORDINATE_TYPE>
1
5
255
> <PUBCHEM_BONDANNOTATIONS>
11  14  3
16  18  8
16  19  8
18  21  8
19  22  8
21  23  8
22  23  8
7  8  3
$$$$
