524901
  -OEChem-10302200292D
 55 57  0     1  0  0  0  0  0999 V2000
    5.3548    3.3174    0.0000 Si  0  0  0  0  0  0  0  0  0  0  0  0
    8.4752    2.0777    0.0000 Si  0  0  0  0  0  0  0  0  0  0  0  0
    5.9405    0.3132    0.0000 O   0  0  0  0  0  0  0  0  0  0  0  0
    4.6844    2.5754    0.0000 O   0  0  0  0  0  0  0  0  0  0  0  0
    7.6651    1.4913    0.0000 O   0  0  0  0  0  0  0  0  0  0  0  0
    4.6783   -0.9447    0.0000 N   0  0  0  0  0  0  0  0  0  0  0  0
    4.6783   -2.5542    0.0000 N   0  0  0  0  0  0  0  0  0  0  0  0
    2.8660   -0.7494    0.0000 N   0  0  0  0  0  0  0  0  0  0  0  0
    2.0000   -2.2494    0.0000 N   0  0  0  0  0  0  0  0  0  0  0  0
    2.8660   -3.7494    0.0000 N   0  0  0  0  0  0  0  0  0  0  0  0
    4.9917    1.6239    0.0000 C   0  0  3  0  0  0  0  0  0  0  0  0
    5.9422    1.3132    0.0000 C   0  0  3  0  0  0  0  0  0  0  0  0
    4.4026    0.8159    0.0000 C   0  0  0  0  0  0  0  0  0  0  0  0
    4.9889    0.0058    0.0000 C   0  0  3  0  0  0  0  0  0  0  0  0
    6.7523    1.8996    0.0000 C   0  0  0  0  0  0  0  0  0  0  0  0
    3.7320   -1.2494    0.0000 C   0  0  0  0  0  0  0  0  0  0  0  0
    6.0252    4.0594    0.0000 C   0  0  0  0  0  0  0  0  0  0  0  0
    4.6128    3.9878    0.0000 C   0  0  0  0  0  0  0  0  0  0  0  0
    6.0968    2.6470    0.0000 C   0  0  0  0  0  0  0  0  0  0  0  0
    5.2619   -1.7494    0.0000 C   0  0  0  0  0  0  0  0  0  0  0  0
    3.7320   -2.2494    0.0000 C   0  0  0  0  0  0  0  0  0  0  0  0
    9.2852    2.6640    0.0000 C   0  0  0  0  0  0  0  0  0  0  0  0
    9.0615    1.2676    0.0000 C   0  0  0  0  0  0  0  0  0  0  0  0
    7.8888    2.8877    0.0000 C   0  0  0  0  0  0  0  0  0  0  0  0
    2.8660   -2.7494    0.0000 C   0  0  0  0  0  0  0  0  0  0  0  0
    2.0000   -1.2494    0.0000 C   0  0  0  0  0  0  0  0  0  0  0  0
    5.4309    2.0615    0.0000 H   0  0  0  0  0  0  0  0  0  0  0  0
    6.4942    1.0308    0.0000 H   0  0  0  0  0  0  0  0  0  0  0  0
    3.9425    1.2315    0.0000 H   0  0  0  0  0  0  0  0  0  0  0  0
    3.9411    0.4018    0.0000 H   0  0  0  0  0  0  0  0  0  0  0  0
    5.4266   -0.4333    0.0000 H   0  0  0  0  0  0  0  0  0  0  0  0
    7.0999    2.4130    0.0000 H   0  0  0  0  0  0  0  0  0  0  0  0
    6.3070    2.3310    0.0000 H   0  0  0  0  0  0  0  0  0  0  0  0
    6.4852    3.6438    0.0000 H   0  0  0  0  0  0  0  0  0  0  0  0
    6.4408    4.5194    0.0000 H   0  0  0  0  0  0  0  0  0  0  0  0
    5.5652    4.4751    0.0000 H   0  0  0  0  0  0  0  0  0  0  0  0
    5.0284    4.4479    0.0000 H   0  0  0  0  0  0  0  0  0  0  0  0
    4.1528    4.4035    0.0000 H   0  0  0  0  0  0  0  0  0  0  0  0
    4.1971    3.5278    0.0000 H   0  0  0  0  0  0  0  0  0  0  0  0
    5.6811    2.1870    0.0000 H   0  0  0  0  0  0  0  0  0  0  0  0
    6.5568    2.2314    0.0000 H   0  0  0  0  0  0  0  0  0  0  0  0
    6.5124    3.1070    0.0000 H   0  0  0  0  0  0  0  0  0  0  0  0
    5.8819   -1.7494    0.0000 H   0  0  0  0  0  0  0  0  0  0  0  0
    9.6488    2.1618    0.0000 H   0  0  0  0  0  0  0  0  0  0  0  0
    9.7874    3.0276    0.0000 H   0  0  0  0  0  0  0  0  0  0  0  0
    8.9216    3.1663    0.0000 H   0  0  0  0  0  0  0  0  0  0  0  0
    8.5593    0.9041    0.0000 H   0  0  0  0  0  0  0  0  0  0  0  0
    9.4251    0.7654    0.0000 H   0  0  0  0  0  0  0  0  0  0  0  0
    9.5638    1.6312    0.0000 H   0  0  0  0  0  0  0  0  0  0  0  0
    8.3910    3.2512    0.0000 H   0  0  0  0  0  0  0  0  0  0  0  0
    7.5252    3.3899    0.0000 H   0  0  0  0  0  0  0  0  0  0  0  0
    7.3866    2.5241    0.0000 H   0  0  0  0  0  0  0  0  0  0  0  0
    1.4631   -0.9394    0.0000 H   0  0  0  0  0  0  0  0  0  0  0  0
    2.3291   -4.0594    0.0000 H   0  0  0  0  0  0  0  0  0  0  0  0
    3.4030   -4.0594    0.0000 H   0  0  0  0  0  0  0  0  0  0  0  0
  1  4  1  0  0  0  0
  1 17  1  0  0  0  0
  1 18  1  0  0  0  0
  1 19  1  0  0  0  0
  2  5  1  0  0  0  0
  2 22  1  0  0  0  0
  2 23  1  0  0  0  0
  2 24  1  0  0  0  0
  3 12  1  0  0  0  0
  3 14  1  0  0  0  0
  4 11  1  0  0  0  0
  5 15  1  0  0  0  0
  6 14  1  0  0  0  0
  6 16  1  0  0  0  0
  6 20  1  0  0  0  0
  7 20  2  0  0  0  0
  7 21  1  0  0  0  0
  8 16  2  0  0  0  0
  8 26  1  0  0  0  0
  9 25  1  0  0  0  0
  9 26  2  0  0  0  0
 10 25  1  0  0  0  0
 10 54  1  0  0  0  0
 10 55  1  0  0  0  0
 11 12  1  0  0  0  0
 11 13  1  0  0  0  0
 11 27  1  0  0  0  0
 12 15  1  0  0  0  0
 12 28  1  0  0  0  0
 13 14  1  0  0  0  0
 13 29  1  0  0  0  0
 13 30  1  0  0  0  0
 14 31  1  0  0  0  0
 15 32  1  0  0  0  0
 15 33  1  0  0  0  0
 16 21  1  0  0  0  0
 17 34  1  0  0  0  0
 17 35  1  0  0  0  0
 17 36  1  0  0  0  0
 18 37  1  0  0  0  0
 18 38  1  0  0  0  0
 18 39  1  0  0  0  0
 19 40  1  0  0  0  0
 19 41  1  0  0  0  0
 19 42  1  0  0  0  0
 20 43  1  0  0  0  0
 21 25  2  0  0  0  0
 22 44  1  0  0  0  0
 22 45  1  0  0  0  0
 22 46  1  0  0  0  0
 23 47  1  0  0  0  0
 23 48  1  0  0  0  0
 23 49  1  0  0  0  0
 24 50  1  0  0  0  0
 24 51  1  0  0  0  0
 24 52  1  0  0  0  0
 26 53  1  0  0  0  0
M  END
> <PUBCHEM_COMPOUND_CID>
524901
> <PUBCHEM_COMPOUND_CANONICALIZED>
1
> <PUBCHEM_CACTVS_COMPLEXITY>
488
> <PUBCHEM_CACTVS_HBOND_ACCEPTOR>
7
> <PUBCHEM_CACTVS_HBOND_DONOR>
1
> <PUBCHEM_CACTVS_ROTATABLE_BOND>
6
> <PUBCHEM_CACTVS_SUBSKEYS>
AAADceB7sAwAAAAAAAAAAAAAAAAAAWJAAAAsAAAAAAAAAFgB+AAAHhAQAEAACBzhlwZH8L9MFAGgAQZhZACAgC0REKABUCAoVBCBSAJAyEAeBAgPAALCACCwMAIAAAAAAAAAAAAAAAAAAAAAAAAAAAAAAA==
> <PUBCHEM_IUPAC_OPENEYE_NAME>
9-[4-trimethylsilyloxy-5-(trimethylsilyloxymethyl)tetrahydrofuran-2-yl]purin-6-amine
> <PUBCHEM_IUPAC_CAS_NAME>
9-[4-trimethylsilyloxy-5-(trimethylsilyloxymethyl)-2-oxolanyl]-6-purinamine
> <PUBCHEM_IUPAC_NAME_MARKUP>
9-[4-trimethylsilyloxy-5-(trimethylsilyloxymethyl)oxolan-2-yl]purin-6-amine
> <PUBCHEM_IUPAC_NAME>
9-[4-trimethylsilyloxy-5-(trimethylsilyloxymethyl)oxolan-2-yl]purin-6-amine
> <PUBCHEM_IUPAC_SYSTEMATIC_NAME>
9-[4-trimethylsilyloxy-5-(trimethylsilyloxymethyl)oxolan-2-yl]purin-6-amine
> <PUBCHEM_IUPAC_TRADITIONAL_NAME>
[9-[4-trimethylsilyloxy-5-(trimethylsilyloxymethyl)tetrahydrofuran-2-yl]purin-6-yl]amine
> <PUBCHEM_IUPAC_INCHI>
InChI=1S/C16H29N5O3Si2/c1-25(2,3)22-8-12-11(24-26(4,5)6)7-13(23-12)21-10-20-14-15(17)18-9-19-16(14)21/h9-13H,7-8H2,1-6H3,(H2,17,18,19)
> <PUBCHEM_IUPAC_INCHIKEY>
JJEWTFIJBUOVPH-UHFFFAOYSA-N
> <PUBCHEM_EXACT_MASS>
395.18089287
> <PUBCHEM_MOLECULAR_FORMULA>
C16H29N5O3Si2
> <PUBCHEM_MOLECULAR_WEIGHT>
395.60
> <PUBCHEM_OPENEYE_CAN_SMILES>
C[Si](C)(C)OCC1C(CC(O1)N2C=NC3=C(N=CN=C32)N)O[Si](C)(C)C
> <PUBCHEM_OPENEYE_ISO_SMILES>
C[Si](C)(C)OCC1C(CC(O1)N2C=NC3=C(N=CN=C32)N)O[Si](C)(C)C
> <PUBCHEM_CACTVS_TPSA>
97.3
> <PUBCHEM_MONOISOTOPIC_WEIGHT>
395.18089287
> <PUBCHEM_TOTAL_CHARGE>
0
> <PUBCHEM_HEAVY_ATOM_COUNT>
26
> <PUBCHEM_ATOM_DEF_STEREO_COUNT>
0
> <PUBCHEM_ATOM_UDEF_STEREO_COUNT>
3
> <PUBCHEM_BOND_DEF_STEREO_COUNT>
0
> <PUBCHEM_BOND_UDEF_STEREO_COUNT>
0
> <PUBCHEM_ISOTOPIC_ATOM_COUNT>
0
> <PUBCHEM_COMPONENT_COUNT>
1
> <PUBCHEM_CACTVS_TAUTO_COUNT>
-1
> <PUBCHEM_COORDINATE_TYPE>
1
5
255
> <PUBCHEM_BONDANNOTATIONS>
12  15  3
16  21  8
21  25  8
11  4  3
14  6  3
6  16  8
6  20  8
7  20  8
7  21  8
8  16  8
8  26  8
9  25  8
9  26  8
$$$$
