524952
  -OEChem-10302200292D
 65 66  0     1  0  0  0  0  0999 V2000
    6.1602   -3.1739    0.0000 Si  0  0  0  0  0  0  0  0  0  0  0  0
    7.9823   -0.8604    0.0000 Si  0  0  0  0  0  0  0  0  0  0  0  0
    2.8090   -2.9649    0.0000 Si  0  0  0  0  0  0  0  0  0  0  0  0
    4.6701   -0.5003    0.0000 O   0  0  0  0  0  0  0  0  0  0  0  0
    6.5669   -2.2604    0.0000 O   0  0  0  0  0  0  0  0  0  0  0  0
    7.2392   -0.1913    0.0000 O   0  0  0  0  0  0  0  0  0  0  0  0
    3.3968   -2.1559    0.0000 O   0  0  0  0  0  0  0  0  0  0  0  0
    7.2112    1.0875    0.0000 O   0  0  0  0  0  0  0  0  0  0  0  0
    5.4791    4.0875    0.0000 O   0  0  0  0  0  0  0  0  0  0  0  0
    5.4791    1.0875    0.0000 N   0  0  0  0  0  0  0  0  0  0  0  0
    6.3451    2.5875    0.0000 N   0  0  0  0  0  0  0  0  0  0  0  0
    5.9791   -1.4514    0.0000 C   0  0  3  0  0  0  0  0  0  0  0  0
    6.2881   -0.5003    0.0000 C   0  0  3  0  0  0  0  0  0  0  0  0
    4.9791   -1.4514    0.0000 C   0  0  3  0  0  0  0  0  0  0  0  0
    5.4791    0.0875    0.0000 C   0  0  3  0  0  0  0  0  0  0  0  0
    4.3913   -2.2604    0.0000 C   0  0  0  0  0  0  0  0  0  0  0  0
    5.7534   -4.0875    0.0000 C   0  0  0  0  0  0  0  0  0  0  0  0
    7.0737   -3.5807    0.0000 C   0  0  0  0  0  0  0  0  0  0  0  0
    5.2466   -2.7672    0.0000 C   0  0  0  0  0  0  0  0  0  0  0  0
    8.7255   -1.5296    0.0000 C   0  0  0  0  0  0  0  0  0  0  0  0
    8.6515   -0.1173    0.0000 C   0  0  0  0  0  0  0  0  0  0  0  0
    7.3132   -1.6036    0.0000 C   0  0  0  0  0  0  0  0  0  0  0  0
    6.3451    1.5875    0.0000 C   0  0  0  0  0  0  0  0  0  0  0  0
    4.6131    1.5875    0.0000 C   0  0  0  0  0  0  0  0  0  0  0  0
    2.2212   -3.7739    0.0000 C   0  0  0  0  0  0  0  0  0  0  0  0
    2.0000   -2.3771    0.0000 C   0  0  0  0  0  0  0  0  0  0  0  0
    3.6180   -3.5527    0.0000 C   0  0  0  0  0  0  0  0  0  0  0  0
    4.6131    2.5875    0.0000 C   0  0  0  0  0  0  0  0  0  0  0  0
    5.4791    3.0875    0.0000 C   0  0  0  0  0  0  0  0  0  0  0  0
    5.6976   -2.0038    0.0000 H   0  0  0  0  0  0  0  0  0  0  0  0
    6.7265   -0.9387    0.0000 H   0  0  0  0  0  0  0  0  0  0  0  0
    4.3667   -1.3544    0.0000 H   0  0  0  0  0  0  0  0  0  0  0  0
    4.9267    0.3689    0.0000 H   0  0  0  0  0  0  0  0  0  0  0  0
    4.2204   -2.8564    0.0000 H   0  0  0  0  0  0  0  0  0  0  0  0
    4.9486   -2.5322    0.0000 H   0  0  0  0  0  0  0  0  0  0  0  0
    5.1870   -3.8353    0.0000 H   0  0  0  0  0  0  0  0  0  0  0  0
    5.5012   -4.6539    0.0000 H   0  0  0  0  0  0  0  0  0  0  0  0
    6.3198   -4.3396    0.0000 H   0  0  0  0  0  0  0  0  0  0  0  0
    6.8215   -4.1471    0.0000 H   0  0  0  0  0  0  0  0  0  0  0  0
    7.6401   -3.8328    0.0000 H   0  0  0  0  0  0  0  0  0  0  0  0
    7.3259   -3.0143    0.0000 H   0  0  0  0  0  0  0  0  0  0  0  0
    5.4988   -2.2008    0.0000 H   0  0  0  0  0  0  0  0  0  0  0  0
    4.6802   -2.5150    0.0000 H   0  0  0  0  0  0  0  0  0  0  0  0
    4.9944   -3.3336    0.0000 H   0  0  0  0  0  0  0  0  0  0  0  0
    8.3106   -1.9903    0.0000 H   0  0  0  0  0  0  0  0  0  0  0  0
    9.1862   -1.9444    0.0000 H   0  0  0  0  0  0  0  0  0  0  0  0
    9.1403   -1.0688    0.0000 H   0  0  0  0  0  0  0  0  0  0  0  0
    9.1122   -0.5321    0.0000 H   0  0  0  0  0  0  0  0  0  0  0  0
    9.0663    0.3435    0.0000 H   0  0  0  0  0  0  0  0  0  0  0  0
    8.1907    0.2976    0.0000 H   0  0  0  0  0  0  0  0  0  0  0  0
    6.8524   -1.1887    0.0000 H   0  0  0  0  0  0  0  0  0  0  0  0
    6.8983   -2.0643    0.0000 H   0  0  0  0  0  0  0  0  0  0  0  0
    7.7740   -2.0184    0.0000 H   0  0  0  0  0  0  0  0  0  0  0  0
    4.0762    1.2775    0.0000 H   0  0  0  0  0  0  0  0  0  0  0  0
    1.7196   -3.4095    0.0000 H   0  0  0  0  0  0  0  0  0  0  0  0
    1.8568   -4.2755    0.0000 H   0  0  0  0  0  0  0  0  0  0  0  0
    2.7228   -4.1383    0.0000 H   0  0  0  0  0  0  0  0  0  0  0  0
    2.3644   -1.8755    0.0000 H   0  0  0  0  0  0  0  0  0  0  0  0
    1.4984   -2.0127    0.0000 H   0  0  0  0  0  0  0  0  0  0  0  0
    1.6356   -2.8787    0.0000 H   0  0  0  0  0  0  0  0  0  0  0  0
    3.2536   -4.0542    0.0000 H   0  0  0  0  0  0  0  0  0  0  0  0
    4.1196   -3.9171    0.0000 H   0  0  0  0  0  0  0  0  0  0  0  0
    3.9825   -3.0511    0.0000 H   0  0  0  0  0  0  0  0  0  0  0  0
    6.8821    2.8975    0.0000 H   0  0  0  0  0  0  0  0  0  0  0  0
    4.0762    2.8975    0.0000 H   0  0  0  0  0  0  0  0  0  0  0  0
  1  5  1  0  0  0  0
  1 17  1  0  0  0  0
  1 18  1  0  0  0  0
  1 19  1  0  0  0  0
  2  6  1  0  0  0  0
  2 20  1  0  0  0  0
  2 21  1  0  0  0  0
  2 22  1  0  0  0  0
  3  7  1  0  0  0  0
  3 25  1  0  0  0  0
  3 26  1  0  0  0  0
  3 27  1  0  0  0  0
  4 14  1  0  0  0  0
  4 15  1  0  0  0  0
  5 12  1  0  0  0  0
  6 13  1  0  0  0  0
  7 16  1  0  0  0  0
  8 23  2  0  0  0  0
  9 29  2  0  0  0  0
 10 15  1  0  0  0  0
 10 23  1  0  0  0  0
 10 24  1  0  0  0  0
 11 23  1  0  0  0  0
 11 29  1  0  0  0  0
 11 64  1  0  0  0  0
 12 13  1  0  0  0  0
 12 14  1  0  0  0  0
 12 30  1  0  0  0  0
 13 15  1  0  0  0  0
 13 31  1  0  0  0  0
 14 16  1  0  0  0  0
 14 32  1  0  0  0  0
 15 33  1  0  0  0  0
 16 34  1  0  0  0  0
 16 35  1  0  0  0  0
 17 36  1  0  0  0  0
 17 37  1  0  0  0  0
 17 38  1  0  0  0  0
 18 39  1  0  0  0  0
 18 40  1  0  0  0  0
 18 41  1  0  0  0  0
 19 42  1  0  0  0  0
 19 43  1  0  0  0  0
 19 44  1  0  0  0  0
 20 45  1  0  0  0  0
 20 46  1  0  0  0  0
 20 47  1  0  0  0  0
 21 48  1  0  0  0  0
 21 49  1  0  0  0  0
 21 50  1  0  0  0  0
 22 51  1  0  0  0  0
 22 52  1  0  0  0  0
 22 53  1  0  0  0  0
 24 28  2  0  0  0  0
 24 54  1  0  0  0  0
 25 55  1  0  0  0  0
 25 56  1  0  0  0  0
 25 57  1  0  0  0  0
 26 58  1  0  0  0  0
 26 59  1  0  0  0  0
 26 60  1  0  0  0  0
 27 61  1  0  0  0  0
 27 62  1  0  0  0  0
 27 63  1  0  0  0  0
 28 29  1  0  0  0  0
 28 65  1  0  0  0  0
M  END
> <PUBCHEM_COMPOUND_CID>
524952
> <PUBCHEM_COMPOUND_CANONICALIZED>
1
> <PUBCHEM_CACTVS_COMPLEXITY>
654
> <PUBCHEM_CACTVS_HBOND_ACCEPTOR>
6
> <PUBCHEM_CACTVS_HBOND_DONOR>
1
> <PUBCHEM_CACTVS_ROTATABLE_BOND>
8
> <PUBCHEM_CACTVS_SUBSKEYS>
AAADcfB7OAwAAAAAAAAAAAAAAAAAASAAAAAgAAAAAAAAAAAAAAAAHhAQAEAACBThgAZDAAPABAGIACFWUACAAAAAAgAIAAAIAECDAAIAgAAOAAAPFyISAMDwMAIAAAAAAAAAAAAAAAAAAAAAAAAAAAAAAA==
> <PUBCHEM_IUPAC_OPENEYE_NAME>
1-[3,4-bis(trimethylsilyloxy)-5-(trimethylsilyloxymethyl)tetrahydrofuran-2-yl]pyrimidine-2,4-dione
> <PUBCHEM_IUPAC_CAS_NAME>
1-[3,4-bis(trimethylsilyloxy)-5-(trimethylsilyloxymethyl)-2-oxolanyl]pyrimidine-2,4-dione
> <PUBCHEM_IUPAC_NAME_MARKUP>
1-[3,4-bis(trimethylsilyloxy)-5-(trimethylsilyloxymethyl)oxolan-2-yl]pyrimidine-2,4-dione
> <PUBCHEM_IUPAC_NAME>
1-[3,4-bis(trimethylsilyloxy)-5-(trimethylsilyloxymethyl)oxolan-2-yl]pyrimidine-2,4-dione
> <PUBCHEM_IUPAC_SYSTEMATIC_NAME>
1-[3,4-bis(trimethylsilyloxy)-5-(trimethylsilyloxymethyl)oxolan-2-yl]pyrimidine-2,4-dione
> <PUBCHEM_IUPAC_TRADITIONAL_NAME>
1-[3,4-bis(trimethylsilyloxy)-5-(trimethylsilyloxymethyl)tetrahydrofuran-2-yl]pyrimidine-2,4-quinone
> <PUBCHEM_IUPAC_INCHI>
InChI=1S/C18H36N2O6Si3/c1-27(2,3)23-12-13-15(25-28(4,5)6)16(26-29(7,8)9)17(24-13)20-11-10-14(21)19-18(20)22/h10-11,13,15-17H,12H2,1-9H3,(H,19,21,22)
> <PUBCHEM_IUPAC_INCHIKEY>
PMTYSPPFEFHVGD-UHFFFAOYSA-N
> <PUBCHEM_EXACT_MASS>
460.18811648
> <PUBCHEM_MOLECULAR_FORMULA>
C18H36N2O6Si3
> <PUBCHEM_MOLECULAR_WEIGHT>
460.7
> <PUBCHEM_OPENEYE_CAN_SMILES>
C[Si](C)(C)OCC1C(C(C(O1)N2C=CC(=O)NC2=O)O[Si](C)(C)C)O[Si](C)(C)C
> <PUBCHEM_OPENEYE_ISO_SMILES>
C[Si](C)(C)OCC1C(C(C(O1)N2C=CC(=O)NC2=O)O[Si](C)(C)C)O[Si](C)(C)C
> <PUBCHEM_CACTVS_TPSA>
86.3
> <PUBCHEM_MONOISOTOPIC_WEIGHT>
460.18811648
> <PUBCHEM_TOTAL_CHARGE>
0
> <PUBCHEM_HEAVY_ATOM_COUNT>
29
> <PUBCHEM_ATOM_DEF_STEREO_COUNT>
0
> <PUBCHEM_ATOM_UDEF_STEREO_COUNT>
4
> <PUBCHEM_BOND_DEF_STEREO_COUNT>
0
> <PUBCHEM_BOND_UDEF_STEREO_COUNT>
0
> <PUBCHEM_ISOTOPIC_ATOM_COUNT>
0
> <PUBCHEM_COMPONENT_COUNT>
1
> <PUBCHEM_CACTVS_TAUTO_COUNT>
-1
> <PUBCHEM_COORDINATE_TYPE>
1
5
255
> <PUBCHEM_BONDANNOTATIONS>
15  10  3
10  23  8
10  24  8
11  23  8
11  29  8
14  16  3
24  28  8
28  29  8
12  5  3
13  6  3
$$$$
