524969
  -OEChem-10302200292D
 39 40  0     1  0  0  0  0  0999 V2000
    4.9898   -1.2017    0.0000 Si  0  0  0  0  0  0  0  0  0  0  0  0
    3.7688    0.4160    0.0000 O   0  0  0  0  0  0  0  0  0  0  0  0
    6.2614   -1.9963    0.0000 O   0  0  0  0  0  0  0  0  0  0  0  0
    3.7687   -2.0674    0.0000 O   0  0  0  0  0  0  0  0  0  0  0  0
    5.2486   -0.2358    0.0000 N   0  0  0  0  0  0  0  0  0  0  0  0
    5.1701    1.2250    0.0000 C   0  0  0  0  0  0  0  0  0  0  0  0
    6.6802   -0.4334    0.0000 C   0  0  0  0  0  0  0  0  0  0  0  0
    3.2153   -0.5469    0.0000 C   0  0  0  0  0  0  0  0  0  0  0  0
    4.1756    1.3295    0.0000 C   0  0  0  0  0  0  0  0  0  0  0  0
    7.0386   -1.3670    0.0000 C   0  0  3  0  0  0  0  0  0  0  0  0
    2.9397   -1.5082    0.0000 C   0  0  3  0  0  0  0  0  0  0  0  0
    5.5039    2.1676    0.0000 C   0  0  0  0  0  0  0  0  0  0  0  0
    6.0727    1.6555    0.0000 C   0  0  0  0  0  0  0  0  0  0  0  0
    8.0045   -1.6258    0.0000 C   0  0  0  0  0  0  0  0  0  0  0  0
    2.0000   -1.8502    0.0000 C   0  0  0  0  0  0  0  0  0  0  0  0
    4.7309   -2.1676    0.0000 C   0  0  0  0  0  0  0  0  0  0  0  0
    7.2880   -0.3111    0.0000 H   0  0  0  0  0  0  0  0  0  0  0  0
    6.6612    0.1863    0.0000 H   0  0  0  0  0  0  0  0  0  0  0  0
    3.2103    0.0731    0.0000 H   0  0  0  0  0  0  0  0  0  0  0  0
    2.6010   -0.4631    0.0000 H   0  0  0  0  0  0  0  0  0  0  0  0
    4.3045    1.9360    0.0000 H   0  0  0  0  0  0  0  0  0  0  0  0
    3.5859    1.5211    0.0000 H   0  0  0  0  0  0  0  0  0  0  0  0
    7.1675   -1.9735    0.0000 H   0  0  0  0  0  0  0  0  0  0  0  0
    2.8641   -2.1236    0.0000 H   0  0  0  0  0  0  0  0  0  0  0  0
    6.0883    1.9607    0.0000 H   0  0  0  0  0  0  0  0  0  0  0  0
    5.7108    2.7521    0.0000 H   0  0  0  0  0  0  0  0  0  0  0  0
    4.9194    2.3746    0.0000 H   0  0  0  0  0  0  0  0  0  0  0  0
    6.3396    1.0959    0.0000 H   0  0  0  0  0  0  0  0  0  0  0  0
    6.6323    1.9224    0.0000 H   0  0  0  0  0  0  0  0  0  0  0  0
    5.8057    2.2151    0.0000 H   0  0  0  0  0  0  0  0  0  0  0  0
    7.8440   -2.2247    0.0000 H   0  0  0  0  0  0  0  0  0  0  0  0
    8.6034   -1.7863    0.0000 H   0  0  0  0  0  0  0  0  0  0  0  0
    8.1650   -1.0270    0.0000 H   0  0  0  0  0  0  0  0  0  0  0  0
    1.7880   -1.2676    0.0000 H   0  0  0  0  0  0  0  0  0  0  0  0
    1.4174   -2.0622    0.0000 H   0  0  0  0  0  0  0  0  0  0  0  0
    2.2120   -2.4328    0.0000 H   0  0  0  0  0  0  0  0  0  0  0  0
    4.1321   -2.0072    0.0000 H   0  0  0  0  0  0  0  0  0  0  0  0
    4.5705   -2.7665    0.0000 H   0  0  0  0  0  0  0  0  0  0  0  0
    5.3298   -2.3281    0.0000 H   0  0  0  0  0  0  0  0  0  0  0  0
  1  2  1  0  0  0  0
  1  3  1  0  0  0  0
  1  4  1  0  0  0  0
  1 16  1  0  0  0  0
  2  9  1  0  0  0  0
  3 10  1  0  0  0  0
  4 11  1  0  0  0  0
  5  6  1  0  0  0  0
  5  7  1  0  0  0  0
  5  8  1  0  0  0  0
  6  9  1  0  0  0  0
  6 12  1  0  0  0  0
  6 13  1  0  0  0  0
  7 10  1  0  0  0  0
  7 17  1  0  0  0  0
  7 18  1  0  0  0  0
  8 11  1  0  0  0  0
  8 19  1  0  0  0  0
  8 20  1  0  0  0  0
  9 21  1  0  0  0  0
  9 22  1  0  0  0  0
 10 14  1  0  0  0  0
 10 23  1  0  0  0  0
 11 15  1  0  0  0  0
 11 24  1  0  0  0  0
 12 25  1  0  0  0  0
 12 26  1  0  0  0  0
 12 27  1  0  0  0  0
 13 28  1  0  0  0  0
 13 29  1  0  0  0  0
 13 30  1  0  0  0  0
 14 31  1  0  0  0  0
 14 32  1  0  0  0  0
 14 33  1  0  0  0  0
 15 34  1  0  0  0  0
 15 35  1  0  0  0  0
 15 36  1  0  0  0  0
 16 37  1  0  0  0  0
 16 38  1  0  0  0  0
 16 39  1  0  0  0  0
M  END
> <PUBCHEM_COMPOUND_CID>
524969
> <PUBCHEM_COMPOUND_CANONICALIZED>
1
> <PUBCHEM_CACTVS_COMPLEXITY>
258
> <PUBCHEM_CACTVS_HBOND_ACCEPTOR>
4
> <PUBCHEM_CACTVS_HBOND_DONOR>
0
> <PUBCHEM_CACTVS_ROTATABLE_BOND>
0
> <PUBCHEM_CACTVS_SUBSKEYS>
AAADceByMAgAAAAAAAAAAAAAAAAAAAAAAAAAAAAAAAAWLAAAAAAAHhAAAEAADJzhgAZCAAMAAAAAAAAAAAAAAAAAAAAAAAAIAAACAAAAAAAEAAAAAACQAAAAAAAAAAAAAAAAAAAAAAAAAAAAAAAAAAAAAA==
> <PUBCHEM_IUPAC_OPENEYE_NAME>
1,3,6,6,10-pentamethyl-2,8,9-trioxa-5-aza-1-silabicyclo[3.3.3]undecane
> <PUBCHEM_IUPAC_CAS_NAME>
1,3,6,6,10-pentamethyl-2,8,9-trioxa-5-aza-1-silabicyclo[3.3.3]undecane
> <PUBCHEM_IUPAC_NAME_MARKUP>
1,3,6,6,10-pentamethyl-2,8,9-trioxa-5-aza-1-silabicyclo[3.3.3]undecane
> <PUBCHEM_IUPAC_NAME>
1,3,6,6,10-pentamethyl-2,8,9-trioxa-5-aza-1-silabicyclo[3.3.3]undecane
> <PUBCHEM_IUPAC_SYSTEMATIC_NAME>
1,3,6,6,10-pentamethyl-2,8,9-trioxa-5-aza-1-silabicyclo[3.3.3]undecane
> <PUBCHEM_IUPAC_TRADITIONAL_NAME>
1,3,6,6,10-pentamethyl-2,8,9-trioxa-5-aza-1-silabicyclo[3.3.3]undecane
> <PUBCHEM_IUPAC_INCHI>
InChI=1S/C11H23NO3Si/c1-9-6-12-7-10(2)15-16(5,14-9)13-8-11(12,3)4/h9-10H,6-8H2,1-5H3
> <PUBCHEM_IUPAC_INCHIKEY>
GNYAIEAULWGMCE-UHFFFAOYSA-N
> <PUBCHEM_EXACT_MASS>
245.14472013
> <PUBCHEM_MOLECULAR_FORMULA>
C11H23NO3Si
> <PUBCHEM_MOLECULAR_WEIGHT>
245.39
> <PUBCHEM_OPENEYE_CAN_SMILES>
CC1CN2CC(O[Si](O1)(OCC2(C)C)C)C
> <PUBCHEM_OPENEYE_ISO_SMILES>
CC1CN2CC(O[Si](O1)(OCC2(C)C)C)C
> <PUBCHEM_CACTVS_TPSA>
30.9
> <PUBCHEM_MONOISOTOPIC_WEIGHT>
245.14472013
> <PUBCHEM_TOTAL_CHARGE>
0
> <PUBCHEM_HEAVY_ATOM_COUNT>
16
> <PUBCHEM_ATOM_DEF_STEREO_COUNT>
0
> <PUBCHEM_ATOM_UDEF_STEREO_COUNT>
2
> <PUBCHEM_BOND_DEF_STEREO_COUNT>
0
> <PUBCHEM_BOND_UDEF_STEREO_COUNT>
0
> <PUBCHEM_ISOTOPIC_ATOM_COUNT>
0
> <PUBCHEM_COMPONENT_COUNT>
1
> <PUBCHEM_CACTVS_TAUTO_COUNT>
-1
> <PUBCHEM_COORDINATE_TYPE>
1
5
255
> <PUBCHEM_BONDANNOTATIONS>
10  14  3
11  15  3
$$$$
