524965
  -OEChem-10302200292D
 37 38  0     1  0  0  0  0  0999 V2000
    4.5981    2.2500    0.0000 O   0  0  0  0  0  0  0  0  0  0  0  0
    4.5981   -1.7500    0.0000 O   0  0  0  0  0  0  0  0  0  0  0  0
    2.0000   -0.2500    0.0000 O   0  0  0  0  0  0  0  0  0  0  0  0
    3.7320   -2.2500    0.0000 O   0  0  0  0  0  0  0  0  0  0  0  0
    5.4641    0.7500    0.0000 N   0  0  0  0  0  0  0  0  0  0  0  0
    3.7320   -0.2500    0.0000 N   0  0  0  0  0  0  0  0  0  0  0  0
    5.4641   -0.2500    0.0000 C   0  0  3  0  0  0  0  0  0  0  0  0
    6.4103   -0.5547    0.0000 C   0  0  0  0  0  0  0  0  0  0  0  0
    3.7320    0.7500    0.0000 C   0  0  3  0  0  0  0  0  0  0  0  0
    6.4103    1.0547    0.0000 C   0  0  0  0  0  0  0  0  0  0  0  0
    6.9939    0.2500    0.0000 C   0  0  0  0  0  0  0  0  0  0  0  0
    4.5981    1.2500    0.0000 C   0  0  0  0  0  0  0  0  0  0  0  0
    4.5981   -0.7500    0.0000 C   0  0  0  0  0  0  0  0  0  0  0  0
    2.8660    1.2500    0.0000 C   0  0  0  0  0  0  0  0  0  0  0  0
    2.8660    2.2500    0.0000 C   0  0  0  0  0  0  0  0  0  0  0  0
    2.0000    0.7500    0.0000 C   0  0  0  0  0  0  0  0  0  0  0  0
    2.8660   -0.7500    0.0000 C   0  0  0  0  0  0  0  0  0  0  0  0
    2.8660   -1.7500    0.0000 C   0  0  0  0  0  0  0  0  0  0  0  0
    2.0000   -2.2500    0.0000 C   0  0  0  0  0  0  0  0  0  0  0  0
    5.5297   -0.8665    0.0000 H   0  0  0  0  0  0  0  0  0  0  0  0
    6.1593   -1.1216    0.0000 H   0  0  0  0  0  0  0  0  0  0  0  0
    6.9477   -0.8640    0.0000 H   0  0  0  0  0  0  0  0  0  0  0  0
    4.2690    0.4400    0.0000 H   0  0  0  0  0  0  0  0  0  0  0  0
    6.9477    1.3640    0.0000 H   0  0  0  0  0  0  0  0  0  0  0  0
    6.1593    1.6216    0.0000 H   0  0  0  0  0  0  0  0  0  0  0  0
    7.4548   -0.1647    0.0000 H   0  0  0  0  0  0  0  0  0  0  0  0
    7.4548    0.6647    0.0000 H   0  0  0  0  0  0  0  0  0  0  0  0
    2.8660    0.6300    0.0000 H   0  0  0  0  0  0  0  0  0  0  0  0
    3.4860    2.2500    0.0000 H   0  0  0  0  0  0  0  0  0  0  0  0
    2.8660    2.8700    0.0000 H   0  0  0  0  0  0  0  0  0  0  0  0
    2.2460    2.2500    0.0000 H   0  0  0  0  0  0  0  0  0  0  0  0
    1.6900    1.2869    0.0000 H   0  0  0  0  0  0  0  0  0  0  0  0
    1.4631    0.4400    0.0000 H   0  0  0  0  0  0  0  0  0  0  0  0
    2.3100    0.2131    0.0000 H   0  0  0  0  0  0  0  0  0  0  0  0
    1.6900   -1.7131    0.0000 H   0  0  0  0  0  0  0  0  0  0  0  0
    1.4631   -2.5600    0.0000 H   0  0  0  0  0  0  0  0  0  0  0  0
    2.3100   -2.7869    0.0000 H   0  0  0  0  0  0  0  0  0  0  0  0
  1 12  2  0  0  0  0
  2 13  2  0  0  0  0
  3 17  2  0  0  0  0
  4 18  2  0  0  0  0
  5  7  1  0  0  0  0
  5 10  1  0  0  0  0
  5 12  1  0  0  0  0
  6  9  1  0  0  0  0
  6 13  1  0  0  0  0
  6 17  1  0  0  0  0
  7  8  1  0  0  0  0
  7 13  1  0  0  0  0
  7 20  1  0  0  0  0
  8 11  1  0  0  0  0
  8 21  1  0  0  0  0
  8 22  1  0  0  0  0
  9 12  1  0  0  0  0
  9 14  1  0  0  0  0
  9 23  1  0  0  0  0
 10 11  1  0  0  0  0
 10 24  1  0  0  0  0
 10 25  1  0  0  0  0
 11 26  1  0  0  0  0
 11 27  1  0  0  0  0
 14 15  1  0  0  0  0
 14 16  1  0  0  0  0
 14 28  1  0  0  0  0
 15 29  1  0  0  0  0
 15 30  1  0  0  0  0
 15 31  1  0  0  0  0
 16 32  1  0  0  0  0
 16 33  1  0  0  0  0
 16 34  1  0  0  0  0
 17 18  1  0  0  0  0
 18 19  1  0  0  0  0
 19 35  1  0  0  0  0
 19 36  1  0  0  0  0
 19 37  1  0  0  0  0
M  END
> <PUBCHEM_COMPOUND_CID>
524965
> <PUBCHEM_COMPOUND_CANONICALIZED>
1
> <PUBCHEM_CACTVS_COMPLEXITY>
458
> <PUBCHEM_CACTVS_HBOND_ACCEPTOR>
4
> <PUBCHEM_CACTVS_HBOND_DONOR>
0
> <PUBCHEM_CACTVS_ROTATABLE_BOND>
2
> <PUBCHEM_CACTVS_SUBSKEYS>
AAADceBzOAAAAAAAAAAAAAAAAAAAAWAAAAAsAAAAAAAAAFgAAAAAHgAAAAAADSzBgAQCAAMAAAAIAIEQEAAAAAAAAAAAAAGIAAAAQBIAgCAUAAAABiCAAAAYAQAIAAAAAAAAAAAAAAAAAAAAAAAAAAAAAA==
> <PUBCHEM_IUPAC_OPENEYE_NAME>
3-isopropyl-2-(2-oxopropanoyl)-6,7,8,8a-tetrahydro-3H-pyrrolo[1,2-a]pyrazine-1,4-dione
> <PUBCHEM_IUPAC_CAS_NAME>
2-(1,2-dioxopropyl)-3-propan-2-yl-6,7,8,8a-tetrahydro-3H-pyrrolo[1,2-a]pyrazine-1,4-dione
> <PUBCHEM_IUPAC_NAME_MARKUP>
2-(2-oxopropanoyl)-3-propan-2-yl-6,7,8,8<I>a</I>-tetrahydro-3<I>H</I>-pyrrolo[1,2-a]pyrazine-1,4-dione
> <PUBCHEM_IUPAC_NAME>
2-(2-oxopropanoyl)-3-propan-2-yl-6,7,8,8a-tetrahydro-3H-pyrrolo[1,2-a]pyrazine-1,4-dione
> <PUBCHEM_IUPAC_SYSTEMATIC_NAME>
2-(2-oxidanylidenepropanoyl)-3-propan-2-yl-6,7,8,8a-tetrahydro-3H-pyrrolo[1,2-a]pyrazine-1,4-dione
> <PUBCHEM_IUPAC_TRADITIONAL_NAME>
3-isopropyl-2-pyruvoyl-6,7,8,8a-tetrahydro-3H-pyrrolo[1,2-a]pyrazine-1,4-quinone
> <PUBCHEM_IUPAC_INCHI>
InChI=1S/C13H18N2O4/c1-7(2)10-13(19)14-6-4-5-9(14)12(18)15(10)11(17)8(3)16/h7,9-10H,4-6H2,1-3H3
> <PUBCHEM_IUPAC_INCHIKEY>
FWPQHUKROPLSJL-UHFFFAOYSA-N
> <PUBCHEM_XLOGP3_AA>
0.6
> <PUBCHEM_EXACT_MASS>
266.12665706
> <PUBCHEM_MOLECULAR_FORMULA>
C13H18N2O4
> <PUBCHEM_MOLECULAR_WEIGHT>
266.29
> <PUBCHEM_OPENEYE_CAN_SMILES>
CC(C)C1C(=O)N2CCCC2C(=O)N1C(=O)C(=O)C
> <PUBCHEM_OPENEYE_ISO_SMILES>
CC(C)C1C(=O)N2CCCC2C(=O)N1C(=O)C(=O)C
> <PUBCHEM_CACTVS_TPSA>
74.8
> <PUBCHEM_MONOISOTOPIC_WEIGHT>
266.12665706
> <PUBCHEM_TOTAL_CHARGE>
0
> <PUBCHEM_HEAVY_ATOM_COUNT>
19
> <PUBCHEM_ATOM_DEF_STEREO_COUNT>
0
> <PUBCHEM_ATOM_UDEF_STEREO_COUNT>
2
> <PUBCHEM_BOND_DEF_STEREO_COUNT>
0
> <PUBCHEM_BOND_UDEF_STEREO_COUNT>
0
> <PUBCHEM_ISOTOPIC_ATOM_COUNT>
0
> <PUBCHEM_COMPONENT_COUNT>
1
> <PUBCHEM_CACTVS_TAUTO_COUNT>
-1
> <PUBCHEM_COORDINATE_TYPE>
1
5
255
> <PUBCHEM_BONDANNOTATIONS>
7  8  3
9  14  3
$$$$
