524923
  -OEChem-10302200292D
 80 82  0     1  0  0  0  0  0999 V2000
    6.2208    3.8454    0.0000 Si  0  0  0  0  0  0  0  0  0  0  0  0
    3.7701    2.2125    0.0000 Si  0  0  0  0  0  0  0  0  0  0  0  0
    9.3412    2.6057    0.0000 Si  0  0  0  0  0  0  0  0  0  0  0  0
    2.8660   -3.7214    0.0000 Si  0  0  0  0  0  0  0  0  0  0  0  0
    6.8066    0.8412    0.0000 O   0  0  0  0  0  0  0  0  0  0  0  0
    5.5504    3.1035    0.0000 O   0  0  0  0  0  0  0  0  0  0  0  0
    4.2686    1.3456    0.0000 O   0  0  0  0  0  0  0  0  0  0  0  0
    8.5312    2.0193    0.0000 O   0  0  0  0  0  0  0  0  0  0  0  0
    5.5443   -0.4167    0.0000 N   0  0  0  0  0  0  0  0  0  0  0  0
    5.5443   -2.0261    0.0000 N   0  0  0  0  0  0  0  0  0  0  0  0
    3.7320   -0.2214    0.0000 N   0  0  0  0  0  0  0  0  0  0  0  0
    3.7320   -3.2214    0.0000 N   0  0  0  0  0  0  0  0  0  0  0  0
    2.8660   -1.7214    0.0000 N   0  0  0  0  0  0  0  0  0  0  0  0
    5.8578    2.1519    0.0000 C   0  0  3  0  0  0  0  0  0  0  0  0
    5.2686    1.3439    0.0000 C   0  0  3  0  0  0  0  0  0  0  0  0
    6.8083    1.8412    0.0000 C   0  0  3  0  0  0  0  0  0  0  0  0
    5.8550    0.5338    0.0000 C   0  0  3  0  0  0  0  0  0  0  0  0
    7.6183    2.4276    0.0000 C   0  0  0  0  0  0  0  0  0  0  0  0
    4.5981   -0.7214    0.0000 C   0  0  0  0  0  0  0  0  0  0  0  0
    6.1279   -1.2214    0.0000 C   0  0  0  0  0  0  0  0  0  0  0  0
    6.8912    4.5874    0.0000 C   0  0  0  0  0  0  0  0  0  0  0  0
    5.4788    4.5159    0.0000 C   0  0  0  0  0  0  0  0  0  0  0  0
    6.9628    3.1750    0.0000 C   0  0  0  0  0  0  0  0  0  0  0  0
    3.2716    3.0794    0.0000 C   0  0  0  0  0  0  0  0  0  0  0  0
    2.9032    1.7140    0.0000 C   0  0  0  0  0  0  0  0  0  0  0  0
    4.6370    2.7110    0.0000 C   0  0  0  0  0  0  0  0  0  0  0  0
    4.5981   -1.7214    0.0000 C   0  0  0  0  0  0  0  0  0  0  0  0
    3.7320   -2.2214    0.0000 C   0  0  0  0  0  0  0  0  0  0  0  0
   10.1512    3.1920    0.0000 C   0  0  0  0  0  0  0  0  0  0  0  0
    9.9276    1.7956    0.0000 C   0  0  0  0  0  0  0  0  0  0  0  0
    8.7548    3.4157    0.0000 C   0  0  0  0  0  0  0  0  0  0  0  0
    2.8660   -0.7214    0.0000 C   0  0  0  0  0  0  0  0  0  0  0  0
    2.0000   -4.2214    0.0000 C   0  0  0  0  0  0  0  0  0  0  0  0
    3.3660   -4.5874    0.0000 C   0  0  0  0  0  0  0  0  0  0  0  0
    2.3660   -2.8554    0.0000 C   0  0  0  0  0  0  0  0  0  0  0  0
    5.2456    2.2499    0.0000 H   0  0  0  0  0  0  0  0  0  0  0  0
    4.9861    0.7919    0.0000 H   0  0  0  0  0  0  0  0  0  0  0  0
    7.3602    1.5588    0.0000 H   0  0  0  0  0  0  0  0  0  0  0  0
    6.2926    0.0947    0.0000 H   0  0  0  0  0  0  0  0  0  0  0  0
    7.9659    2.9410    0.0000 H   0  0  0  0  0  0  0  0  0  0  0  0
    7.1731    2.8591    0.0000 H   0  0  0  0  0  0  0  0  0  0  0  0
    6.7479   -1.2214    0.0000 H   0  0  0  0  0  0  0  0  0  0  0  0
    7.3512    4.1718    0.0000 H   0  0  0  0  0  0  0  0  0  0  0  0
    7.3069    5.0475    0.0000 H   0  0  0  0  0  0  0  0  0  0  0  0
    6.4312    5.0031    0.0000 H   0  0  0  0  0  0  0  0  0  0  0  0
    5.8945    4.9759    0.0000 H   0  0  0  0  0  0  0  0  0  0  0  0
    5.0188    4.9315    0.0000 H   0  0  0  0  0  0  0  0  0  0  0  0
    5.0632    4.0558    0.0000 H   0  0  0  0  0  0  0  0  0  0  0  0
    6.5471    2.7150    0.0000 H   0  0  0  0  0  0  0  0  0  0  0  0
    7.4228    2.7594    0.0000 H   0  0  0  0  0  0  0  0  0  0  0  0
    7.3784    3.6351    0.0000 H   0  0  0  0  0  0  0  0  0  0  0  0
    3.8090    3.3884    0.0000 H   0  0  0  0  0  0  0  0  0  0  0  0
    2.9625    3.6169    0.0000 H   0  0  0  0  0  0  0  0  0  0  0  0
    2.7341    2.7703    0.0000 H   0  0  0  0  0  0  0  0  0  0  0  0
    2.5941    2.2515    0.0000 H   0  0  0  0  0  0  0  0  0  0  0  0
    2.3657    1.4049    0.0000 H   0  0  0  0  0  0  0  0  0  0  0  0
    3.2123    1.1765    0.0000 H   0  0  0  0  0  0  0  0  0  0  0  0
    4.9460    2.1735    0.0000 H   0  0  0  0  0  0  0  0  0  0  0  0
    5.1744    3.0201    0.0000 H   0  0  0  0  0  0  0  0  0  0  0  0
    4.3279    3.2485    0.0000 H   0  0  0  0  0  0  0  0  0  0  0  0
   10.5148    2.6898    0.0000 H   0  0  0  0  0  0  0  0  0  0  0  0
   10.6534    3.5556    0.0000 H   0  0  0  0  0  0  0  0  0  0  0  0
    9.7877    3.6943    0.0000 H   0  0  0  0  0  0  0  0  0  0  0  0
    9.4254    1.4321    0.0000 H   0  0  0  0  0  0  0  0  0  0  0  0
   10.2911    1.2934    0.0000 H   0  0  0  0  0  0  0  0  0  0  0  0
   10.4298    2.1592    0.0000 H   0  0  0  0  0  0  0  0  0  0  0  0
    9.2570    3.7792    0.0000 H   0  0  0  0  0  0  0  0  0  0  0  0
    8.3912    3.9179    0.0000 H   0  0  0  0  0  0  0  0  0  0  0  0
    8.2526    3.0521    0.0000 H   0  0  0  0  0  0  0  0  0  0  0  0
    4.2690   -3.5314    0.0000 H   0  0  0  0  0  0  0  0  0  0  0  0
    2.3291   -0.4114    0.0000 H   0  0  0  0  0  0  0  0  0  0  0  0
    1.6900   -3.6845    0.0000 H   0  0  0  0  0  0  0  0  0  0  0  0
    1.4631   -4.5314    0.0000 H   0  0  0  0  0  0  0  0  0  0  0  0
    2.3100   -4.7584    0.0000 H   0  0  0  0  0  0  0  0  0  0  0  0
    2.8291   -4.8974    0.0000 H   0  0  0  0  0  0  0  0  0  0  0  0
    3.6760   -5.1244    0.0000 H   0  0  0  0  0  0  0  0  0  0  0  0
    3.9030   -4.2774    0.0000 H   0  0  0  0  0  0  0  0  0  0  0  0
    2.9030   -2.5454    0.0000 H   0  0  0  0  0  0  0  0  0  0  0  0
    2.0560   -2.3184    0.0000 H   0  0  0  0  0  0  0  0  0  0  0  0
    1.8291   -3.1654    0.0000 H   0  0  0  0  0  0  0  0  0  0  0  0
  1  6  1  0  0  0  0
  1 21  1  0  0  0  0
  1 22  1  0  0  0  0
  1 23  1  0  0  0  0
  2  7  1  0  0  0  0
  2 24  1  0  0  0  0
  2 25  1  0  0  0  0
  2 26  1  0  0  0  0
  3  8  1  0  0  0  0
  3 29  1  0  0  0  0
  3 30  1  0  0  0  0
  3 31  1  0  0  0  0
  4 12  1  0  0  0  0
  4 33  1  0  0  0  0
  4 34  1  0  0  0  0
  4 35  1  0  0  0  0
  5 16  1  0  0  0  0
  5 17  1  0  0  0  0
  6 14  1  0  0  0  0
  7 15  1  0  0  0  0
  8 18  1  0  0  0  0
  9 17  1  0  0  0  0
  9 19  1  0  0  0  0
  9 20  1  0  0  0  0
 10 20  2  0  0  0  0
 10 27  1  0  0  0  0
 11 19  2  0  0  0  0
 11 32  1  0  0  0  0
 12 28  1  0  0  0  0
 12 70  1  0  0  0  0
 13 28  1  0  0  0  0
 13 32  2  0  0  0  0
 14 15  1  0  0  0  0
 14 16  1  0  0  0  0
 14 36  1  0  0  0  0
 15 17  1  0  0  0  0
 15 37  1  0  0  0  0
 16 18  1  0  0  0  0
 16 38  1  0  0  0  0
 17 39  1  0  0  0  0
 18 40  1  0  0  0  0
 18 41  1  0  0  0  0
 19 27  1  0  0  0  0
 20 42  1  0  0  0  0
 21 43  1  0  0  0  0
 21 44  1  0  0  0  0
 21 45  1  0  0  0  0
 22 46  1  0  0  0  0
 22 47  1  0  0  0  0
 22 48  1  0  0  0  0
 23 49  1  0  0  0  0
 23 50  1  0  0  0  0
 23 51  1  0  0  0  0
 24 52  1  0  0  0  0
 24 53  1  0  0  0  0
 24 54  1  0  0  0  0
 25 55  1  0  0  0  0
 25 56  1  0  0  0  0
 25 57  1  0  0  0  0
 26 58  1  0  0  0  0
 26 59  1  0  0  0  0
 26 60  1  0  0  0  0
 27 28  2  0  0  0  0
 29 61  1  0  0  0  0
 29 62  1  0  0  0  0
 29 63  1  0  0  0  0
 30 64  1  0  0  0  0
 30 65  1  0  0  0  0
 30 66  1  0  0  0  0
 31 67  1  0  0  0  0
 31 68  1  0  0  0  0
 31 69  1  0  0  0  0
 32 71  1  0  0  0  0
 33 72  1  0  0  0  0
 33 73  1  0  0  0  0
 33 74  1  0  0  0  0
 34 75  1  0  0  0  0
 34 76  1  0  0  0  0
 34 77  1  0  0  0  0
 35 78  1  0  0  0  0
 35 79  1  0  0  0  0
 35 80  1  0  0  0  0
M  END
> <PUBCHEM_COMPOUND_CID>
524923
> <PUBCHEM_COMPOUND_CANONICALIZED>
1
> <PUBCHEM_CACTVS_COMPLEXITY>
710
> <PUBCHEM_CACTVS_HBOND_ACCEPTOR>
8
> <PUBCHEM_CACTVS_HBOND_DONOR>
1
> <PUBCHEM_CACTVS_ROTATABLE_BOND>
10
> <PUBCHEM_CACTVS_SUBSKEYS>
AAADcfB7uAwAAAAAAAAAAAAAAAAAAWJAAAAsAAAAAAAAAFgB+AAAHhARAEAACBzhlwZH8L9MFAGgAQZhZACAgC0REKABUCAoVBCDSAJAyEAeBAgPAALSACDwMAIAAAAAAAAAAAAAAAAAAAAAAAAAAAAAAA==
> <PUBCHEM_IUPAC_OPENEYE_NAME>
9-[3,4-bis(trimethylsilyloxy)-5-(trimethylsilyloxymethyl)tetrahydrofuran-2-yl]-N-trimethylsilyl-purin-6-amine
> <PUBCHEM_IUPAC_CAS_NAME>
9-[3,4-bis(trimethylsilyloxy)-5-(trimethylsilyloxymethyl)-2-oxolanyl]-N-trimethylsilyl-6-purinamine
> <PUBCHEM_IUPAC_NAME_MARKUP>
9-[3,4-bis(trimethylsilyloxy)-5-(trimethylsilyloxymethyl)oxolan-2-yl]-<I>N</I>-trimethylsilylpurin-6-amine
> <PUBCHEM_IUPAC_NAME>
9-[3,4-bis(trimethylsilyloxy)-5-(trimethylsilyloxymethyl)oxolan-2-yl]-N-trimethylsilylpurin-6-amine
> <PUBCHEM_IUPAC_SYSTEMATIC_NAME>
9-[3,4-bis(trimethylsilyloxy)-5-(trimethylsilyloxymethyl)oxolan-2-yl]-N-trimethylsilyl-purin-6-amine
> <PUBCHEM_IUPAC_TRADITIONAL_NAME>
[9-[3,4-bis(trimethylsilyloxy)-5-(trimethylsilyloxymethyl)tetrahydrofuran-2-yl]purin-6-yl]-trimethylsilyl-amine
> <PUBCHEM_IUPAC_INCHI>
InChI=1S/C22H45N5O4Si4/c1-32(2,3)26-20-17-21(24-14-23-20)27(15-25-17)22-19(31-35(10,11)12)18(30-34(7,8)9)16(29-22)13-28-33(4,5)6/h14-16,18-19,22H,13H2,1-12H3,(H,23,24,26)
> <PUBCHEM_IUPAC_INCHIKEY>
ADQCPBJKGAVWKS-UHFFFAOYSA-N
> <PUBCHEM_EXACT_MASS>
555.25486107
> <PUBCHEM_MOLECULAR_FORMULA>
C22H45N5O4Si4
> <PUBCHEM_MOLECULAR_WEIGHT>
556.0
> <PUBCHEM_OPENEYE_CAN_SMILES>
C[Si](C)(C)NC1=C2C(=NC=N1)N(C=N2)C3C(C(C(O3)CO[Si](C)(C)C)O[Si](C)(C)C)O[Si](C)(C)C
> <PUBCHEM_OPENEYE_ISO_SMILES>
C[Si](C)(C)NC1=C2C(=NC=N1)N(C=N2)C3C(C(C(O3)CO[Si](C)(C)C)O[Si](C)(C)C)O[Si](C)(C)C
> <PUBCHEM_CACTVS_TPSA>
92.6
> <PUBCHEM_MONOISOTOPIC_WEIGHT>
555.25486107
> <PUBCHEM_TOTAL_CHARGE>
0
> <PUBCHEM_HEAVY_ATOM_COUNT>
35
> <PUBCHEM_ATOM_DEF_STEREO_COUNT>
0
> <PUBCHEM_ATOM_UDEF_STEREO_COUNT>
4
> <PUBCHEM_BOND_DEF_STEREO_COUNT>
0
> <PUBCHEM_BOND_UDEF_STEREO_COUNT>
0
> <PUBCHEM_ISOTOPIC_ATOM_COUNT>
0
> <PUBCHEM_COMPONENT_COUNT>
1
> <PUBCHEM_CACTVS_TAUTO_COUNT>
-1
> <PUBCHEM_COORDINATE_TYPE>
1
5
255
> <PUBCHEM_BONDANNOTATIONS>
10  20  8
10  27  8
11  19  8
11  32  8
13  28  8
13  32  8
16  18  3
19  27  8
27  28  8
14  6  3
15  7  3
17  9  3
9  19  8
9  20  8
$$$$
