524927
  -OEChem-10302200292D
 72 75  0     1  0  0  0  0  0999 V2000
    9.6285    1.6875    0.0000 Si  0  0  0  0  0  0  0  0  0  0  0  0
    8.6500    1.4812    0.0000 O   0  0  0  0  0  0  0  0  0  0  0  0
    2.0000   -2.8263    0.0000 O   0  0  0  0  0  0  0  0  0  0  0  0
    6.5271   -1.2740    0.0000 C   0  0  3  0  0  0  0  0  0  0  0  0
    7.3931   -0.7740    0.0000 C   0  0  3  0  0  0  0  0  0  0  0  0
    5.6610   -0.7740    0.0000 C   0  0  3  0  0  0  0  0  0  0  0  0
    7.3931    0.2260    0.0000 C   0  0  3  0  0  0  0  0  0  0  0  0
    4.7510   -1.2809    0.0000 C   0  0  3  0  0  0  0  0  0  0  0  0
    5.6610    0.2260    0.0000 C   0  0  0  0  0  0  0  0  0  0  0  0
    4.7430   -2.3225    0.0000 C   0  0  3  0  0  0  0  0  0  0  0  0
    6.5271    0.7260    0.0000 C   0  0  0  0  0  0  0  0  0  0  0  0
    8.3393    0.5307    0.0000 C   0  0  3  0  0  0  0  0  0  0  0  0
    6.5431   -2.3155    0.0000 C   0  0  0  0  0  0  0  0  0  0  0  0
    8.3393   -1.0788    0.0000 C   0  0  0  0  0  0  0  0  0  0  0  0
    5.6451   -2.8433    0.0000 C   0  0  0  0  0  0  0  0  0  0  0  0
    8.9229   -0.2740    0.0000 C   0  0  0  0  0  0  0  0  0  0  0  0
    3.8242   -0.7168    0.0000 C   0  0  0  0  0  0  0  0  0  0  0  0
    7.3931    1.2260    0.0000 C   0  0  0  0  0  0  0  0  0  0  0  0
    4.7587   -0.2809    0.0000 C   0  0  0  0  0  0  0  0  0  0  0  0
    3.8076   -2.8722    0.0000 C   0  0  0  0  0  0  0  0  0  0  0  0
    2.8763   -1.2447    0.0000 C   0  0  0  0  0  0  0  0  0  0  0  0
    2.8680   -2.3297    0.0000 C   0  0  0  0  0  0  0  0  0  0  0  0
   10.6070    1.8937    0.0000 C   0  0  0  0  0  0  0  0  0  0  0  0
    9.4222    2.6660    0.0000 C   0  0  0  0  0  0  0  0  0  0  0  0
    9.8347    0.7090    0.0000 C   0  0  0  0  0  0  0  0  0  0  0  0
   11.5855    2.0999    0.0000 C   0  0  0  0  0  0  0  0  0  0  0  0
   10.4008    2.8722    0.0000 C   0  0  0  0  0  0  0  0  0  0  0  0
   10.8132    0.9152    0.0000 C   0  0  0  0  0  0  0  0  0  0  0  0
    7.0664   -1.5799    0.0000 H   0  0  0  0  0  0  0  0  0  0  0  0
    7.4587   -1.3905    0.0000 H   0  0  0  0  0  0  0  0  0  0  0  0
    6.1980   -0.4640    0.0000 H   0  0  0  0  0  0  0  0  0  0  0  0
    5.4490    0.8086    0.0000 H   0  0  0  0  0  0  0  0  0  0  0  0
    5.0504    0.1183    0.0000 H   0  0  0  0  0  0  0  0  0  0  0  0
    6.9256    1.2009    0.0000 H   0  0  0  0  0  0  0  0  0  0  0  0
    6.1285    1.2009    0.0000 H   0  0  0  0  0  0  0  0  0  0  0  0
    4.7454   -2.9424    0.0000 H   0  0  0  0  0  0  0  0  0  0  0  0
    7.9018    0.9701    0.0000 H   0  0  0  0  0  0  0  0  0  0  0  0
    6.7612   -2.8959    0.0000 H   0  0  0  0  0  0  0  0  0  0  0  0
    7.1523   -2.2000    0.0000 H   0  0  0  0  0  0  0  0  0  0  0  0
    8.0883   -1.6456    0.0000 H   0  0  0  0  0  0  0  0  0  0  0  0
    8.8767   -1.3880    0.0000 H   0  0  0  0  0  0  0  0  0  0  0  0
    5.2478   -3.3192    0.0000 H   0  0  0  0  0  0  0  0  0  0  0  0
    6.0460   -3.3162    0.0000 H   0  0  0  0  0  0  0  0  0  0  0  0
    9.3838   -0.6887    0.0000 H   0  0  0  0  0  0  0  0  0  0  0  0
    9.3838    0.1407    0.0000 H   0  0  0  0  0  0  0  0  0  0  0  0
    4.2324   -0.2501    0.0000 H   0  0  0  0  0  0  0  0  0  0  0  0
    3.4343   -0.2347    0.0000 H   0  0  0  0  0  0  0  0  0  0  0  0
    8.0131    1.2260    0.0000 H   0  0  0  0  0  0  0  0  0  0  0  0
    7.3931    1.8460    0.0000 H   0  0  0  0  0  0  0  0  0  0  0  0
    6.7731    1.2260    0.0000 H   0  0  0  0  0  0  0  0  0  0  0  0
    5.3787   -0.2857    0.0000 H   0  0  0  0  0  0  0  0  0  0  0  0
    4.7635    0.3391    0.0000 H   0  0  0  0  0  0  0  0  0  0  0  0
    4.1388   -0.2761    0.0000 H   0  0  0  0  0  0  0  0  0  0  0  0
    3.4103   -3.3482    0.0000 H   0  0  0  0  0  0  0  0  0  0  0  0
    4.2085   -3.3451    0.0000 H   0  0  0  0  0  0  0  0  0  0  0  0
    2.6718   -0.6594    0.0000 H   0  0  0  0  0  0  0  0  0  0  0  0
    2.2647   -1.3461    0.0000 H   0  0  0  0  0  0  0  0  0  0  0  0
   10.0289    2.7938    0.0000 H   0  0  0  0  0  0  0  0  0  0  0  0
    9.2944    3.2726    0.0000 H   0  0  0  0  0  0  0  0  0  0  0  0
    8.8156    2.5381    0.0000 H   0  0  0  0  0  0  0  0  0  0  0  0
    9.2280    0.5811    0.0000 H   0  0  0  0  0  0  0  0  0  0  0  0
    9.9626    0.1023    0.0000 H   0  0  0  0  0  0  0  0  0  0  0  0
   10.4414    0.8368    0.0000 H   0  0  0  0  0  0  0  0  0  0  0  0
   11.7133    1.4932    0.0000 H   0  0  0  0  0  0  0  0  0  0  0  0
   12.1922    2.2278    0.0000 H   0  0  0  0  0  0  0  0  0  0  0  0
   11.4576    2.7066    0.0000 H   0  0  0  0  0  0  0  0  0  0  0  0
   11.0074    3.0000    0.0000 H   0  0  0  0  0  0  0  0  0  0  0  0
   10.2729    3.4789    0.0000 H   0  0  0  0  0  0  0  0  0  0  0  0
    9.7941    2.7443    0.0000 H   0  0  0  0  0  0  0  0  0  0  0  0
   10.2065    0.7873    0.0000 H   0  0  0  0  0  0  0  0  0  0  0  0
   10.9411    0.3085    0.0000 H   0  0  0  0  0  0  0  0  0  0  0  0
   11.4199    1.0430    0.0000 H   0  0  0  0  0  0  0  0  0  0  0  0
  1  2  1  0  0  0  0
  1 23  1  0  0  0  0
  1 24  1  0  0  0  0
  1 25  1  0  0  0  0
  2 12  1  0  0  0  0
  3 22  2  0  0  0  0
  4  5  1  0  0  0  0
  4  6  1  0  0  0  0
  4 13  1  0  0  0  0
  4 29  1  0  0  0  0
  5  7  1  0  0  0  0
  5 14  1  0  0  0  0
  5 30  1  0  0  0  0
  6  8  1  0  0  0  0
  6  9  1  0  0  0  0
  6 31  1  0  0  0  0
  7 11  1  0  0  0  0
  7 12  1  0  0  0  0
  7 18  1  0  0  0  0
  8 10  1  0  0  0  0
  8 17  1  0  0  0  0
  8 19  1  0  0  0  0
  9 11  1  0  0  0  0
  9 32  1  0  0  0  0
  9 33  1  0  0  0  0
 10 15  1  0  0  0  0
 10 20  1  0  0  0  0
 10 36  1  0  0  0  0
 11 34  1  0  0  0  0
 11 35  1  0  0  0  0
 12 16  1  0  0  0  0
 12 37  1  0  0  0  0
 13 15  1  0  0  0  0
 13 38  1  0  0  0  0
 13 39  1  0  0  0  0
 14 16  1  0  0  0  0
 14 40  1  0  0  0  0
 14 41  1  0  0  0  0
 15 42  1  0  0  0  0
 15 43  1  0  0  0  0
 16 44  1  0  0  0  0
 16 45  1  0  0  0  0
 17 21  1  0  0  0  0
 17 46  1  0  0  0  0
 17 47  1  0  0  0  0
 18 48  1  0  0  0  0
 18 49  1  0  0  0  0
 18 50  1  0  0  0  0
 19 51  1  0  0  0  0
 19 52  1  0  0  0  0
 19 53  1  0  0  0  0
 20 22  1  0  0  0  0
 20 54  1  0  0  0  0
 20 55  1  0  0  0  0
 21 22  1  0  0  0  0
 21 56  1  0  0  0  0
 21 57  1  0  0  0  0
 23 26  1  0  0  0  0
 23 27  1  0  0  0  0
 23 28  1  0  0  0  0
 24 58  1  0  0  0  0
 24 59  1  0  0  0  0
 24 60  1  0  0  0  0
 25 61  1  0  0  0  0
 25 62  1  0  0  0  0
 25 63  1  0  0  0  0
 26 64  1  0  0  0  0
 26 65  1  0  0  0  0
 26 66  1  0  0  0  0
 27 67  1  0  0  0  0
 27 68  1  0  0  0  0
 27 69  1  0  0  0  0
 28 70  1  0  0  0  0
 28 71  1  0  0  0  0
 28 72  1  0  0  0  0
M  END
> <PUBCHEM_COMPOUND_CID>
524927
> <PUBCHEM_COMPOUND_CANONICALIZED>
1
> <PUBCHEM_CACTVS_COMPLEXITY>
635
> <PUBCHEM_CACTVS_HBOND_ACCEPTOR>
2
> <PUBCHEM_CACTVS_HBOND_DONOR>
0
> <PUBCHEM_CACTVS_ROTATABLE_BOND>
3
> <PUBCHEM_CACTVS_SUBSKEYS>
AAADcfB4MAgAAAAAAAAAAAAAAAAAAYAAAAAwYMAAAAAAAGDAAAAAGhAAAEAADxSgoAJCAAAAAAEIAIAQAAAAAAAAAAAAAAEAAAAAABIAAAAAAAAEAAAAAAGIyPCPgAAAAAAAAACAAAQAACAAAIAADAAAAA==
> <PUBCHEM_IUPAC_OPENEYE_NAME>
17-[tert-butyl(dimethyl)silyl]oxy-10,13-dimethyl-1,2,4,5,6,7,8,9,11,12,14,15,16,17-tetradecahydrocyclopenta[a]phenanthren-3-one
> <PUBCHEM_IUPAC_CAS_NAME>
17-[tert-butyl(dimethyl)silyl]oxy-10,13-dimethyl-1,2,4,5,6,7,8,9,11,12,14,15,16,17-tetradecahydrocyclopenta[a]phenanthren-3-one
> <PUBCHEM_IUPAC_NAME_MARKUP>
17-[<I>tert</I>-butyl(dimethyl)silyl]oxy-10,13-dimethyl-1,2,4,5,6,7,8,9,11,12,14,15,16,17-tetradecahydrocyclopenta[a]phenanthren-3-one
> <PUBCHEM_IUPAC_NAME>
17-[tert-butyl(dimethyl)silyl]oxy-10,13-dimethyl-1,2,4,5,6,7,8,9,11,12,14,15,16,17-tetradecahydrocyclopenta[a]phenanthren-3-one
> <PUBCHEM_IUPAC_SYSTEMATIC_NAME>
17-[tert-butyl(dimethyl)silyl]oxy-10,13-dimethyl-1,2,4,5,6,7,8,9,11,12,14,15,16,17-tetradecahydrocyclopenta[a]phenanthren-3-one
> <PUBCHEM_IUPAC_TRADITIONAL_NAME>
17-[tert-butyl(dimethyl)silyl]oxy-10,13-dimethyl-1,2,4,5,6,7,8,9,11,12,14,15,16,17-tetradecahydrocyclopenta[a]phenanthren-3-one
> <PUBCHEM_IUPAC_INCHI>
InChI=1S/C25H44O2Si/c1-23(2,3)28(6,7)27-22-11-10-20-19-9-8-17-16-18(26)12-14-24(17,4)21(19)13-15-25(20,22)5/h17,19-22H,8-16H2,1-7H3
> <PUBCHEM_IUPAC_INCHIKEY>
BDIJWGREUGQQQQ-UHFFFAOYSA-N
> <PUBCHEM_EXACT_MASS>
404.31105718
> <PUBCHEM_MOLECULAR_FORMULA>
C25H44O2Si
> <PUBCHEM_MOLECULAR_WEIGHT>
404.7
> <PUBCHEM_OPENEYE_CAN_SMILES>
CC12CCC(=O)CC1CCC3C2CCC4(C3CCC4O[Si](C)(C)C(C)(C)C)C
> <PUBCHEM_OPENEYE_ISO_SMILES>
CC12CCC(=O)CC1CCC3C2CCC4(C3CCC4O[Si](C)(C)C(C)(C)C)C
> <PUBCHEM_CACTVS_TPSA>
26.3
> <PUBCHEM_MONOISOTOPIC_WEIGHT>
404.31105718
> <PUBCHEM_TOTAL_CHARGE>
0
> <PUBCHEM_HEAVY_ATOM_COUNT>
28
> <PUBCHEM_ATOM_DEF_STEREO_COUNT>
0
> <PUBCHEM_ATOM_UDEF_STEREO_COUNT>
7
> <PUBCHEM_BOND_DEF_STEREO_COUNT>
0
> <PUBCHEM_BOND_UDEF_STEREO_COUNT>
0
> <PUBCHEM_ISOTOPIC_ATOM_COUNT>
0
> <PUBCHEM_COMPONENT_COUNT>
1
> <PUBCHEM_CACTVS_TAUTO_COUNT>
-1
> <PUBCHEM_COORDINATE_TYPE>
1
5
255
> <PUBCHEM_BONDANNOTATIONS>
10  15  3
12  2  3
4  13  3
5  14  3
6  9  3
7  18  3
8  19  3
$$$$
