525066
  -OEChem-10302200292D
 58 61  0     1  0  0  0  0  0999 V2000
    2.8641   -1.3424    0.0000 Si  0  0  0  0  0  0  0  0  0  0  0  0
    3.7282   -1.8458    0.0000 O   0  0  0  0  0  0  0  0  0  0  0  0
    8.2552   -0.2935    0.0000 C   0  0  3  0  0  0  0  0  0  0  0  0
    7.3892    0.2065    0.0000 C   0  0  3  0  0  0  0  0  0  0  0  0
    9.1213    0.2065    0.0000 C   0  0  3  0  0  0  0  0  0  0  0  0
    9.1213    1.2065    0.0000 C   0  0  3  0  0  0  0  0  0  0  0  0
    6.4792   -0.3003    0.0000 C   0  0  3  0  0  0  0  0  0  0  0  0
    7.3892    1.2065    0.0000 C   0  0  0  0  0  0  0  0  0  0  0  0
    8.2552    1.7065    0.0000 C   0  0  0  0  0  0  0  0  0  0  0  0
    8.2713   -1.3350    0.0000 C   0  0  0  0  0  0  0  0  0  0  0  0
   10.0675   -0.0982    0.0000 C   0  0  0  0  0  0  0  0  0  0  0  0
    6.4712   -1.3419    0.0000 C   0  0  0  0  0  0  0  0  0  0  0  0
    7.3733   -1.8627    0.0000 C   0  0  0  0  0  0  0  0  0  0  0  0
   10.0675    1.5113    0.0000 C   0  0  0  0  0  0  0  0  0  0  0  0
    5.5524    0.2638    0.0000 C   0  0  0  0  0  0  0  0  0  0  0  0
    9.1213    2.2065    0.0000 C   0  0  0  0  0  0  0  0  0  0  0  0
    6.4869    0.6997    0.0000 C   0  0  0  0  0  0  0  0  0  0  0  0
   10.6511    0.7065    0.0000 C   0  0  0  0  0  0  0  0  0  0  0  0
    5.5358   -1.8916    0.0000 C   0  0  0  0  0  0  0  0  0  0  0  0
    4.6045   -0.2642    0.0000 C   0  0  0  0  0  0  0  0  0  0  0  0
    4.5961   -1.3491    0.0000 C   0  0  0  0  0  0  0  0  0  0  0  0
    2.0000   -0.8391    0.0000 C   0  0  0  0  0  0  0  0  0  0  0  0
    2.3608   -2.2065    0.0000 C   0  0  0  0  0  0  0  0  0  0  0  0
    3.3674   -0.4784    0.0000 C   0  0  0  0  0  0  0  0  0  0  0  0
    8.7945   -0.5993    0.0000 H   0  0  0  0  0  0  0  0  0  0  0  0
    7.9262    0.5165    0.0000 H   0  0  0  0  0  0  0  0  0  0  0  0
    9.1869   -0.4100    0.0000 H   0  0  0  0  0  0  0  0  0  0  0  0
    7.1772    1.7892    0.0000 H   0  0  0  0  0  0  0  0  0  0  0  0
    6.7786    1.0989    0.0000 H   0  0  0  0  0  0  0  0  0  0  0  0
    8.6538    2.1815    0.0000 H   0  0  0  0  0  0  0  0  0  0  0  0
    7.8567    2.1815    0.0000 H   0  0  0  0  0  0  0  0  0  0  0  0
    8.4893   -1.9154    0.0000 H   0  0  0  0  0  0  0  0  0  0  0  0
    8.8804   -1.2195    0.0000 H   0  0  0  0  0  0  0  0  0  0  0  0
    9.8164   -0.6651    0.0000 H   0  0  0  0  0  0  0  0  0  0  0  0
   10.6049   -0.4074    0.0000 H   0  0  0  0  0  0  0  0  0  0  0  0
    6.9760   -2.3387    0.0000 H   0  0  0  0  0  0  0  0  0  0  0  0
    7.7742   -2.3356    0.0000 H   0  0  0  0  0  0  0  0  0  0  0  0
   10.2601    2.1006    0.0000 H   0  0  0  0  0  0  0  0  0  0  0  0
    5.9606    0.7304    0.0000 H   0  0  0  0  0  0  0  0  0  0  0  0
    5.1625    0.7458    0.0000 H   0  0  0  0  0  0  0  0  0  0  0  0
    9.7413    2.2065    0.0000 H   0  0  0  0  0  0  0  0  0  0  0  0
    9.1213    2.8265    0.0000 H   0  0  0  0  0  0  0  0  0  0  0  0
    8.5013    2.2065    0.0000 H   0  0  0  0  0  0  0  0  0  0  0  0
    7.1069    0.6949    0.0000 H   0  0  0  0  0  0  0  0  0  0  0  0
    6.4917    1.3196    0.0000 H   0  0  0  0  0  0  0  0  0  0  0  0
    5.8669    0.7044    0.0000 H   0  0  0  0  0  0  0  0  0  0  0  0
   11.2711    0.7065    0.0000 H   0  0  0  0  0  0  0  0  0  0  0  0
    5.5382   -2.5116    0.0000 H   0  0  0  0  0  0  0  0  0  0  0  0
    4.0712    0.0520    0.0000 H   0  0  0  0  0  0  0  0  0  0  0  0
    2.3121   -0.3034    0.0000 H   0  0  0  0  0  0  0  0  0  0  0  0
    1.4643   -0.5271    0.0000 H   0  0  0  0  0  0  0  0  0  0  0  0
    1.6879   -1.3749    0.0000 H   0  0  0  0  0  0  0  0  0  0  0  0
    1.8250   -1.8945    0.0000 H   0  0  0  0  0  0  0  0  0  0  0  0
    2.0487   -2.7423    0.0000 H   0  0  0  0  0  0  0  0  0  0  0  0
    2.8965   -2.5186    0.0000 H   0  0  0  0  0  0  0  0  0  0  0  0
    3.9032   -0.7904    0.0000 H   0  0  0  0  0  0  0  0  0  0  0  0
    3.6795    0.0574    0.0000 H   0  0  0  0  0  0  0  0  0  0  0  0
    2.8317   -0.1663    0.0000 H   0  0  0  0  0  0  0  0  0  0  0  0
  1  2  1  0  0  0  0
  1 22  1  0  0  0  0
  1 23  1  0  0  0  0
  1 24  1  0  0  0  0
  2 21  1  0  0  0  0
  3  4  1  0  0  0  0
  3  5  1  0  0  0  0
  3 10  1  0  0  0  0
  3 25  1  0  0  0  0
  4  7  1  0  0  0  0
  4  8  1  0  0  0  0
  4 26  1  0  0  0  0
  5  6  1  0  0  0  0
  5 11  1  0  0  0  0
  5 27  1  0  0  0  0
  6  9  1  0  0  0  0
  6 14  1  0  0  0  0
  6 16  1  0  0  0  0
  7 12  1  0  0  0  0
  7 15  1  0  0  0  0
  7 17  1  0  0  0  0
  8  9  1  0  0  0  0
  8 28  1  0  0  0  0
  8 29  1  0  0  0  0
  9 30  1  0  0  0  0
  9 31  1  0  0  0  0
 10 13  1  0  0  0  0
 10 32  1  0  0  0  0
 10 33  1  0  0  0  0
 11 18  1  0  0  0  0
 11 34  1  0  0  0  0
 11 35  1  0  0  0  0
 12 13  1  0  0  0  0
 12 19  2  0  0  0  0
 13 36  1  0  0  0  0
 13 37  1  0  0  0  0
 14 18  2  0  0  0  0
 14 38  1  0  0  0  0
 15 20  1  0  0  0  0
 15 39  1  0  0  0  0
 15 40  1  0  0  0  0
 16 41  1  0  0  0  0
 16 42  1  0  0  0  0
 16 43  1  0  0  0  0
 17 44  1  0  0  0  0
 17 45  1  0  0  0  0
 17 46  1  0  0  0  0
 18 47  1  0  0  0  0
 19 21  1  0  0  0  0
 19 48  1  0  0  0  0
 20 21  2  0  0  0  0
 20 49  1  0  0  0  0
 22 50  1  0  0  0  0
 22 51  1  0  0  0  0
 22 52  1  0  0  0  0
 23 53  1  0  0  0  0
 23 54  1  0  0  0  0
 23 55  1  0  0  0  0
 24 56  1  0  0  0  0
 24 57  1  0  0  0  0
 24 58  1  0  0  0  0
M  END
> <PUBCHEM_COMPOUND_CID>
525066
> <PUBCHEM_COMPOUND_CANONICALIZED>
1
> <PUBCHEM_CACTVS_COMPLEXITY>
622
> <PUBCHEM_CACTVS_HBOND_ACCEPTOR>
1
> <PUBCHEM_CACTVS_HBOND_DONOR>
0
> <PUBCHEM_CACTVS_ROTATABLE_BOND>
2
> <PUBCHEM_CACTVS_SUBSKEYS>
AAADcfB4IAgAAAAAAAAAAAAAAAAAAQAAAAAwYIAAAAAAAEDAAAAAGhAAAEAADwSAgABCAAAAAAGAAiBCAAAAAAAgIAAICAAAAAgIBAIAAQAAEAAAgAAIgAMAgMAPgAAAAAAAAACAAAQAACAAAAAAAAAAAA==
> <PUBCHEM_IUPAC_OPENEYE_NAME>
(10,13-dimethyl-6,7,8,9,11,12,14,15-octahydro-1H-cyclopenta[a]phenanthren-3-yl)oxy-trimethyl-silane
> <PUBCHEM_IUPAC_CAS_NAME>
(10,13-dimethyl-6,7,8,9,11,12,14,15-octahydro-1H-cyclopenta[a]phenanthren-3-yl)oxy-trimethylsilane
> <PUBCHEM_IUPAC_NAME_MARKUP>
(10,13-dimethyl-6,7,8,9,11,12,14,15-octahydro-1<I>H</I>-cyclopenta[a]phenanthren-3-yl)oxy-trimethylsilane
> <PUBCHEM_IUPAC_NAME>
(10,13-dimethyl-6,7,8,9,11,12,14,15-octahydro-1H-cyclopenta[a]phenanthren-3-yl)oxy-trimethylsilane
> <PUBCHEM_IUPAC_SYSTEMATIC_NAME>
(10,13-dimethyl-6,7,8,9,11,12,14,15-octahydro-1H-cyclopenta[a]phenanthren-3-yl)oxy-trimethyl-silane
> <PUBCHEM_IUPAC_TRADITIONAL_NAME>
(10,13-dimethyl-6,7,8,9,11,12,14,15-octahydro-1H-cyclopenta[a]phenanthren-3-yl)oxy-trimethyl-silane
> <PUBCHEM_IUPAC_INCHI>
InChI=1S/C22H34OSi/c1-21-12-6-7-19(21)18-9-8-16-15-17(23-24(3,4)5)10-14-22(16,2)20(18)11-13-21/h6,10,12,15,18-20H,7-9,11,13-14H2,1-5H3
> <PUBCHEM_IUPAC_INCHIKEY>
UIEAIMWJTTUJJB-UHFFFAOYSA-N
> <PUBCHEM_EXACT_MASS>
342.237892238
> <PUBCHEM_MOLECULAR_FORMULA>
C22H34OSi
> <PUBCHEM_MOLECULAR_WEIGHT>
342.6
> <PUBCHEM_OPENEYE_CAN_SMILES>
CC12CCC3C(C1CC=C2)CCC4=CC(=CCC34C)O[Si](C)(C)C
> <PUBCHEM_OPENEYE_ISO_SMILES>
CC12CCC3C(C1CC=C2)CCC4=CC(=CCC34C)O[Si](C)(C)C
> <PUBCHEM_CACTVS_TPSA>
9.2
> <PUBCHEM_MONOISOTOPIC_WEIGHT>
342.237892238
> <PUBCHEM_TOTAL_CHARGE>
0
> <PUBCHEM_HEAVY_ATOM_COUNT>
24
> <PUBCHEM_ATOM_DEF_STEREO_COUNT>
0
> <PUBCHEM_ATOM_UDEF_STEREO_COUNT>
5
> <PUBCHEM_BOND_DEF_STEREO_COUNT>
0
> <PUBCHEM_BOND_UDEF_STEREO_COUNT>
0
> <PUBCHEM_ISOTOPIC_ATOM_COUNT>
0
> <PUBCHEM_COMPONENT_COUNT>
1
> <PUBCHEM_CACTVS_TAUTO_COUNT>
-1
> <PUBCHEM_COORDINATE_TYPE>
1
5
255
> <PUBCHEM_BONDANNOTATIONS>
3  10  3
4  8  3
5  11  3
6  16  3
7  17  3
$$$$
