525004
  -OEChem-10302200292D
 58 59  0     1  0  0  0  0  0999 V2000
    2.8660    1.7500    0.0000 Si  0  0  0  0  0  0  0  0  0  0  0  0
    3.7320    1.2500    0.0000 O   0  0  0  0  0  0  0  0  0  0  0  0
    8.0622   -0.2500    0.0000 O   0  0  0  0  0  0  0  0  0  0  0  0
    9.7942    2.7500    0.0000 O   0  0  0  0  0  0  0  0  0  0  0  0
    8.9282    1.2500    0.0000 N   0  0  0  0  0  0  0  0  0  0  0  0
    9.7942   -0.2500    0.0000 N   0  0  0  0  0  0  0  0  0  0  0  0
   11.6065    1.5547    0.0000 N   0  0  0  0  0  0  0  0  0  0  0  0
   11.6065   -0.0547    0.0000 N   0  0  0  0  0  0  0  0  0  0  0  0
    5.4641    1.2500    0.0000 C   0  0  0  0  0  0  0  0  0  0  0  0
    6.3301    1.7500    0.0000 C   0  0  0  0  0  0  0  0  0  0  0  0
    4.5981    1.7500    0.0000 C   0  0  3  0  0  0  0  0  0  0  0  0
    7.1962    1.2500    0.0000 C   0  0  0  0  0  0  0  0  0  0  0  0
    8.0622    1.7500    0.0000 C   0  0  0  0  0  0  0  0  0  0  0  0
   10.6603    1.2500    0.0000 C   0  0  0  0  0  0  0  0  0  0  0  0
    8.9282    0.2500    0.0000 C   0  0  0  0  0  0  0  0  0  0  0  0
   10.6603    0.2500    0.0000 C   0  0  0  0  0  0  0  0  0  0  0  0
    4.5981    2.7500    0.0000 C   0  0  0  0  0  0  0  0  0  0  0  0
    9.7942    1.7500    0.0000 C   0  0  0  0  0  0  0  0  0  0  0  0
    9.7942   -1.2500    0.0000 C   0  0  0  0  0  0  0  0  0  0  0  0
    2.0000    2.2500    0.0000 C   0  0  0  0  0  0  0  0  0  0  0  0
    2.3660    0.8840    0.0000 C   0  0  0  0  0  0  0  0  0  0  0  0
    3.3660    2.6160    0.0000 C   0  0  0  0  0  0  0  0  0  0  0  0
    8.9282   -1.7500    0.0000 C   0  0  0  0  0  0  0  0  0  0  0  0
   12.1901    0.7500    0.0000 C   0  0  0  0  0  0  0  0  0  0  0  0
   11.9171    2.5053    0.0000 C   0  0  0  0  0  0  0  0  0  0  0  0
    8.9282   -2.7500    0.0000 C   0  0  0  0  0  0  0  0  0  0  0  0
    5.0656    0.7751    0.0000 H   0  0  0  0  0  0  0  0  0  0  0  0
    5.8626    0.7751    0.0000 H   0  0  0  0  0  0  0  0  0  0  0  0
    6.7287    2.2250    0.0000 H   0  0  0  0  0  0  0  0  0  0  0  0
    5.9316    2.2250    0.0000 H   0  0  0  0  0  0  0  0  0  0  0  0
    4.5981    1.1300    0.0000 H   0  0  0  0  0  0  0  0  0  0  0  0
    6.7976    0.7751    0.0000 H   0  0  0  0  0  0  0  0  0  0  0  0
    7.5947    0.7751    0.0000 H   0  0  0  0  0  0  0  0  0  0  0  0
    8.4607    2.2250    0.0000 H   0  0  0  0  0  0  0  0  0  0  0  0
    7.6636    2.2250    0.0000 H   0  0  0  0  0  0  0  0  0  0  0  0
    5.2181    2.7500    0.0000 H   0  0  0  0  0  0  0  0  0  0  0  0
    4.5981    3.3700    0.0000 H   0  0  0  0  0  0  0  0  0  0  0  0
    3.9781    2.7500    0.0000 H   0  0  0  0  0  0  0  0  0  0  0  0
   10.0063   -1.8326    0.0000 H   0  0  0  0  0  0  0  0  0  0  0  0
   10.4048   -1.1423    0.0000 H   0  0  0  0  0  0  0  0  0  0  0  0
    2.3100    2.7869    0.0000 H   0  0  0  0  0  0  0  0  0  0  0  0
    1.4631    2.5600    0.0000 H   0  0  0  0  0  0  0  0  0  0  0  0
    1.6900    1.7131    0.0000 H   0  0  0  0  0  0  0  0  0  0  0  0
    1.8291    1.1940    0.0000 H   0  0  0  0  0  0  0  0  0  0  0  0
    2.0560    0.3470    0.0000 H   0  0  0  0  0  0  0  0  0  0  0  0
    2.9030    0.5740    0.0000 H   0  0  0  0  0  0  0  0  0  0  0  0
    3.9030    2.3060    0.0000 H   0  0  0  0  0  0  0  0  0  0  0  0
    3.6760    3.1530    0.0000 H   0  0  0  0  0  0  0  0  0  0  0  0
    2.8291    2.9260    0.0000 H   0  0  0  0  0  0  0  0  0  0  0  0
    8.7162   -1.1674    0.0000 H   0  0  0  0  0  0  0  0  0  0  0  0
    8.3176   -1.8577    0.0000 H   0  0  0  0  0  0  0  0  0  0  0  0
   12.8101    0.7500    0.0000 H   0  0  0  0  0  0  0  0  0  0  0  0
   12.5065    2.3126    0.0000 H   0  0  0  0  0  0  0  0  0  0  0  0
   12.1097    3.0946    0.0000 H   0  0  0  0  0  0  0  0  0  0  0  0
   11.3278    2.6979    0.0000 H   0  0  0  0  0  0  0  0  0  0  0  0
    8.3082   -2.7500    0.0000 H   0  0  0  0  0  0  0  0  0  0  0  0
    8.9282   -3.3700    0.0000 H   0  0  0  0  0  0  0  0  0  0  0  0
    9.5482   -2.7500    0.0000 H   0  0  0  0  0  0  0  0  0  0  0  0
  1  2  1  0  0  0  0
  1 20  1  0  0  0  0
  1 21  1  0  0  0  0
  1 22  1  0  0  0  0
  2 11  1  0  0  0  0
  3 15  2  0  0  0  0
  4 18  2  0  0  0  0
  5 13  1  0  0  0  0
  5 15  1  0  0  0  0
  5 18  1  0  0  0  0
  6 15  1  0  0  0  0
  6 16  1  0  0  0  0
  6 19  1  0  0  0  0
  7 14  1  0  0  0  0
  7 24  1  0  0  0  0
  7 25  1  0  0  0  0
  8 16  1  0  0  0  0
  8 24  2  0  0  0  0
  9 10  1  0  0  0  0
  9 11  1  0  0  0  0
  9 27  1  0  0  0  0
  9 28  1  0  0  0  0
 10 12  1  0  0  0  0
 10 29  1  0  0  0  0
 10 30  1  0  0  0  0
 11 17  1  0  0  0  0
 11 31  1  0  0  0  0
 12 13  1  0  0  0  0
 12 32  1  0  0  0  0
 12 33  1  0  0  0  0
 13 34  1  0  0  0  0
 13 35  1  0  0  0  0
 14 16  2  0  0  0  0
 14 18  1  0  0  0  0
 17 36  1  0  0  0  0
 17 37  1  0  0  0  0
 17 38  1  0  0  0  0
 19 23  1  0  0  0  0
 19 39  1  0  0  0  0
 19 40  1  0  0  0  0
 20 41  1  0  0  0  0
 20 42  1  0  0  0  0
 20 43  1  0  0  0  0
 21 44  1  0  0  0  0
 21 45  1  0  0  0  0
 21 46  1  0  0  0  0
 22 47  1  0  0  0  0
 22 48  1  0  0  0  0
 22 49  1  0  0  0  0
 23 26  1  0  0  0  0
 23 50  1  0  0  0  0
 23 51  1  0  0  0  0
 24 52  1  0  0  0  0
 25 53  1  0  0  0  0
 25 54  1  0  0  0  0
 25 55  1  0  0  0  0
 26 56  1  0  0  0  0
 26 57  1  0  0  0  0
 26 58  1  0  0  0  0
M  END
> <PUBCHEM_COMPOUND_CID>
525004
> <PUBCHEM_COMPOUND_CANONICALIZED>
1
> <PUBCHEM_CACTVS_COMPLEXITY>
511
> <PUBCHEM_CACTVS_HBOND_ACCEPTOR>
4
> <PUBCHEM_CACTVS_HBOND_DONOR>
0
> <PUBCHEM_CACTVS_ROTATABLE_BOND>
9
> <PUBCHEM_CACTVS_SUBSKEYS>
AAADcfB7sAgAAAAAAAAAAAAAAAAAAWAAAAAsAAAAAAAAAFgBgAAAHhAAAEAACBzhlgZHsBcMEAGoAQdxdACAgC0XEKABUAGoVECASApAyCAUAIgMByLAAGGQEAIAAAAAAAAAAAAAAAAAAAAAAAAAAAAAAA==
> <PUBCHEM_IUPAC_OPENEYE_NAME>
7-methyl-3-propyl-1-(5-trimethylsilyloxyhexyl)purine-2,6-dione
> <PUBCHEM_IUPAC_CAS_NAME>
7-methyl-3-propyl-1-(5-trimethylsilyloxyhexyl)purine-2,6-dione
> <PUBCHEM_IUPAC_NAME_MARKUP>
7-methyl-3-propyl-1-(5-trimethylsilyloxyhexyl)purine-2,6-dione
> <PUBCHEM_IUPAC_NAME>
7-methyl-3-propyl-1-(5-trimethylsilyloxyhexyl)purine-2,6-dione
> <PUBCHEM_IUPAC_SYSTEMATIC_NAME>
7-methyl-3-propyl-1-(5-trimethylsilyloxyhexyl)purine-2,6-dione
> <PUBCHEM_IUPAC_TRADITIONAL_NAME>
7-methyl-3-propyl-1-(5-trimethylsilyloxyhexyl)xanthine
> <PUBCHEM_IUPAC_INCHI>
InChI=1S/C18H32N4O3Si/c1-7-11-21-16-15(20(3)13-19-16)17(23)22(18(21)24)12-9-8-10-14(2)25-26(4,5)6/h13-14H,7-12H2,1-6H3
> <PUBCHEM_IUPAC_INCHIKEY>
OPAHZSPAXVXGMG-UHFFFAOYSA-N
> <PUBCHEM_EXACT_MASS>
380.22436743
> <PUBCHEM_MOLECULAR_FORMULA>
C18H32N4O3Si
> <PUBCHEM_MOLECULAR_WEIGHT>
380.6
> <PUBCHEM_OPENEYE_CAN_SMILES>
CCCN1C2=C(C(=O)N(C1=O)CCCCC(C)O[Si](C)(C)C)N(C=N2)C
> <PUBCHEM_OPENEYE_ISO_SMILES>
CCCN1C2=C(C(=O)N(C1=O)CCCCC(C)O[Si](C)(C)C)N(C=N2)C
> <PUBCHEM_CACTVS_TPSA>
67.7
> <PUBCHEM_MONOISOTOPIC_WEIGHT>
380.22436743
> <PUBCHEM_TOTAL_CHARGE>
0
> <PUBCHEM_HEAVY_ATOM_COUNT>
26
> <PUBCHEM_ATOM_DEF_STEREO_COUNT>
0
> <PUBCHEM_ATOM_UDEF_STEREO_COUNT>
1
> <PUBCHEM_BOND_DEF_STEREO_COUNT>
0
> <PUBCHEM_BOND_UDEF_STEREO_COUNT>
0
> <PUBCHEM_ISOTOPIC_ATOM_COUNT>
0
> <PUBCHEM_COMPONENT_COUNT>
1
> <PUBCHEM_CACTVS_TAUTO_COUNT>
-1
> <PUBCHEM_COORDINATE_TYPE>
1
5
255
> <PUBCHEM_BONDANNOTATIONS>
11  17  3
14  16  8
14  18  8
5  15  8
5  18  8
6  15  8
6  16  8
7  14  8
7  24  8
8  16  8
8  24  8
$$$$
