525046
  -OEChem-10302200292D
 85 85  0     1  0  0  0  0  0999 V2000
    3.9641    1.7500    0.0000 Si  0  0  0  0  0  0  0  0  0  0  0  0
    4.5981   -2.6160    0.0000 Si  0  0  0  0  0  0  0  0  0  0  0  0
    2.8660   -0.6160    0.0000 Si  0  0  0  0  0  0  0  0  0  0  0  0
    8.0622   -0.6160    0.0000 Si  0  0  0  0  0  0  0  0  0  0  0  0
    7.4641    2.6160    0.0000 Si  0  0  0  0  0  0  0  0  0  0  0  0
    4.9641    1.7500    0.0000 O   0  0  0  0  0  0  0  0  0  0  0  0
    5.4641   -2.1160    0.0000 O   0  0  0  0  0  0  0  0  0  0  0  0
    3.7320   -1.1160    0.0000 O   0  0  0  0  0  0  0  0  0  0  0  0
    7.1962   -1.1160    0.0000 O   0  0  0  0  0  0  0  0  0  0  0  0
    6.9641    1.7500    0.0000 O   0  0  0  0  0  0  0  0  0  0  0  0
    5.4641    2.6160    0.0000 O   0  0  0  0  0  0  0  0  0  0  0  0
    5.4641    0.8840    0.0000 C   0  0  0  0  0  0  0  0  0  0  0  0
    5.4641   -1.1160    0.0000 C   0  0  0  0  0  0  0  0  0  0  0  0
    4.5981   -0.6160    0.0000 C   0  0  3  0  0  0  0  0  0  0  0  0
    6.3301   -0.6160    0.0000 C   0  0  3  0  0  0  0  0  0  0  0  0
    4.5981    0.3840    0.0000 C   0  0  0  0  0  0  0  0  0  0  0  0
    6.3301    0.3840    0.0000 C   0  0  0  0  0  0  0  0  0  0  0  0
    5.9641    1.7500    0.0000 C   0  0  0  0  0  0  0  0  0  0  0  0
    2.9641    1.7500    0.0000 C   0  0  0  0  0  0  0  0  0  0  0  0
    3.9641    2.7500    0.0000 C   0  0  0  0  0  0  0  0  0  0  0  0
    3.9641    0.7500    0.0000 C   0  0  0  0  0  0  0  0  0  0  0  0
    3.7320   -3.1160    0.0000 C   0  0  0  0  0  0  0  0  0  0  0  0
    5.0981   -3.4820    0.0000 C   0  0  0  0  0  0  0  0  0  0  0  0
    4.0981   -1.7500    0.0000 C   0  0  0  0  0  0  0  0  0  0  0  0
    2.0000   -0.1160    0.0000 C   0  0  0  0  0  0  0  0  0  0  0  0
    2.3660   -1.4820    0.0000 C   0  0  0  0  0  0  0  0  0  0  0  0
    3.3660    0.2500    0.0000 C   0  0  0  0  0  0  0  0  0  0  0  0
    8.9282   -0.1160    0.0000 C   0  0  0  0  0  0  0  0  0  0  0  0
    8.5622   -1.4820    0.0000 C   0  0  0  0  0  0  0  0  0  0  0  0
    7.5622    0.2500    0.0000 C   0  0  0  0  0  0  0  0  0  0  0  0
    7.9641    3.4820    0.0000 C   0  0  0  0  0  0  0  0  0  0  0  0
    8.3301    2.1160    0.0000 C   0  0  0  0  0  0  0  0  0  0  0  0
    6.5981    3.1160    0.0000 C   0  0  0  0  0  0  0  0  0  0  0  0
    6.0010   -1.4260    0.0000 H   0  0  0  0  0  0  0  0  0  0  0  0
    4.0611   -0.3060    0.0000 H   0  0  0  0  0  0  0  0  0  0  0  0
    6.8671   -0.3060    0.0000 H   0  0  0  0  0  0  0  0  0  0  0  0
    4.3860    0.9666    0.0000 H   0  0  0  0  0  0  0  0  0  0  0  0
    3.9875    0.2763    0.0000 H   0  0  0  0  0  0  0  0  0  0  0  0
    6.9407    0.2763    0.0000 H   0  0  0  0  0  0  0  0  0  0  0  0
    6.5422    0.9666    0.0000 H   0  0  0  0  0  0  0  0  0  0  0  0
    2.9641    2.3700    0.0000 H   0  0  0  0  0  0  0  0  0  0  0  0
    2.3441    1.7500    0.0000 H   0  0  0  0  0  0  0  0  0  0  0  0
    2.9641    1.1300    0.0000 H   0  0  0  0  0  0  0  0  0  0  0  0
    4.5841    2.7500    0.0000 H   0  0  0  0  0  0  0  0  0  0  0  0
    3.9641    3.3700    0.0000 H   0  0  0  0  0  0  0  0  0  0  0  0
    3.3441    2.7500    0.0000 H   0  0  0  0  0  0  0  0  0  0  0  0
    3.3441    0.7500    0.0000 H   0  0  0  0  0  0  0  0  0  0  0  0
    3.9641    0.1300    0.0000 H   0  0  0  0  0  0  0  0  0  0  0  0
    4.5841    0.7500    0.0000 H   0  0  0  0  0  0  0  0  0  0  0  0
    3.4220   -2.5791    0.0000 H   0  0  0  0  0  0  0  0  0  0  0  0
    3.1951   -3.4260    0.0000 H   0  0  0  0  0  0  0  0  0  0  0  0
    4.0420   -3.6530    0.0000 H   0  0  0  0  0  0  0  0  0  0  0  0
    4.5611   -3.7920    0.0000 H   0  0  0  0  0  0  0  0  0  0  0  0
    5.4081   -4.0190    0.0000 H   0  0  0  0  0  0  0  0  0  0  0  0
    5.6350   -3.1720    0.0000 H   0  0  0  0  0  0  0  0  0  0  0  0
    4.6350   -1.4400    0.0000 H   0  0  0  0  0  0  0  0  0  0  0  0
    3.7881   -1.2131    0.0000 H   0  0  0  0  0  0  0  0  0  0  0  0
    3.5611   -2.0600    0.0000 H   0  0  0  0  0  0  0  0  0  0  0  0
    2.3100    0.4209    0.0000 H   0  0  0  0  0  0  0  0  0  0  0  0
    1.4631    0.1940    0.0000 H   0  0  0  0  0  0  0  0  0  0  0  0
    1.6900   -0.6530    0.0000 H   0  0  0  0  0  0  0  0  0  0  0  0
    1.8291   -1.1720    0.0000 H   0  0  0  0  0  0  0  0  0  0  0  0
    2.0560   -2.0190    0.0000 H   0  0  0  0  0  0  0  0  0  0  0  0
    2.9030   -1.7920    0.0000 H   0  0  0  0  0  0  0  0  0  0  0  0
    3.9030   -0.0600    0.0000 H   0  0  0  0  0  0  0  0  0  0  0  0
    3.6760    0.7869    0.0000 H   0  0  0  0  0  0  0  0  0  0  0  0
    2.8291    0.5600    0.0000 H   0  0  0  0  0  0  0  0  0  0  0  0
    9.2382   -0.6530    0.0000 H   0  0  0  0  0  0  0  0  0  0  0  0
    9.4651    0.1940    0.0000 H   0  0  0  0  0  0  0  0  0  0  0  0
    8.6182    0.4209    0.0000 H   0  0  0  0  0  0  0  0  0  0  0  0
    8.0252   -1.7920    0.0000 H   0  0  0  0  0  0  0  0  0  0  0  0
    8.8722   -2.0190    0.0000 H   0  0  0  0  0  0  0  0  0  0  0  0
    9.0991   -1.1720    0.0000 H   0  0  0  0  0  0  0  0  0  0  0  0
    8.0991    0.5600    0.0000 H   0  0  0  0  0  0  0  0  0  0  0  0
    7.2522    0.7869    0.0000 H   0  0  0  0  0  0  0  0  0  0  0  0
    7.0252   -0.0600    0.0000 H   0  0  0  0  0  0  0  0  0  0  0  0
    8.5010    3.1720    0.0000 H   0  0  0  0  0  0  0  0  0  0  0  0
    8.2741    4.0190    0.0000 H   0  0  0  0  0  0  0  0  0  0  0  0
    7.4272    3.7920    0.0000 H   0  0  0  0  0  0  0  0  0  0  0  0
    8.0201    1.5791    0.0000 H   0  0  0  0  0  0  0  0  0  0  0  0
    8.8671    1.8060    0.0000 H   0  0  0  0  0  0  0  0  0  0  0  0
    8.6401    2.6530    0.0000 H   0  0  0  0  0  0  0  0  0  0  0  0
    6.9081    3.6530    0.0000 H   0  0  0  0  0  0  0  0  0  0  0  0
    6.0611    3.4260    0.0000 H   0  0  0  0  0  0  0  0  0  0  0  0
    6.2881    2.5791    0.0000 H   0  0  0  0  0  0  0  0  0  0  0  0
  1  6  1  0  0  0  0
  1 19  1  0  0  0  0
  1 20  1  0  0  0  0
  1 21  1  0  0  0  0
  2  7  1  0  0  0  0
  2 22  1  0  0  0  0
  2 23  1  0  0  0  0
  2 24  1  0  0  0  0
  3  8  1  0  0  0  0
  3 25  1  0  0  0  0
  3 26  1  0  0  0  0
  3 27  1  0  0  0  0
  4  9  1  0  0  0  0
  4 28  1  0  0  0  0
  4 29  1  0  0  0  0
  4 30  1  0  0  0  0
  5 10  1  0  0  0  0
  5 31  1  0  0  0  0
  5 32  1  0  0  0  0
  5 33  1  0  0  0  0
  6 12  1  0  0  0  0
  7 13  1  0  0  0  0
  8 14  1  0  0  0  0
  9 15  1  0  0  0  0
 10 18  1  0  0  0  0
 11 18  2  0  0  0  0
 12 16  1  0  0  0  0
 12 17  1  0  0  0  0
 12 18  1  0  0  0  0
 13 14  1  0  0  0  0
 13 15  1  0  0  0  0
 13 34  1  0  0  0  0
 14 16  1  0  0  0  0
 14 35  1  0  0  0  0
 15 17  1  0  0  0  0
 15 36  1  0  0  0  0
 16 37  1  0  0  0  0
 16 38  1  0  0  0  0
 17 39  1  0  0  0  0
 17 40  1  0  0  0  0
 19 41  1  0  0  0  0
 19 42  1  0  0  0  0
 19 43  1  0  0  0  0
 20 44  1  0  0  0  0
 20 45  1  0  0  0  0
 20 46  1  0  0  0  0
 21 47  1  0  0  0  0
 21 48  1  0  0  0  0
 21 49  1  0  0  0  0
 22 50  1  0  0  0  0
 22 51  1  0  0  0  0
 22 52  1  0  0  0  0
 23 53  1  0  0  0  0
 23 54  1  0  0  0  0
 23 55  1  0  0  0  0
 24 56  1  0  0  0  0
 24 57  1  0  0  0  0
 24 58  1  0  0  0  0
 25 59  1  0  0  0  0
 25 60  1  0  0  0  0
 25 61  1  0  0  0  0
 26 62  1  0  0  0  0
 26 63  1  0  0  0  0
 26 64  1  0  0  0  0
 27 65  1  0  0  0  0
 27 66  1  0  0  0  0
 27 67  1  0  0  0  0
 28 68  1  0  0  0  0
 28 69  1  0  0  0  0
 28 70  1  0  0  0  0
 29 71  1  0  0  0  0
 29 72  1  0  0  0  0
 29 73  1  0  0  0  0
 30 74  1  0  0  0  0
 30 75  1  0  0  0  0
 30 76  1  0  0  0  0
 31 77  1  0  0  0  0
 31 78  1  0  0  0  0
 31 79  1  0  0  0  0
 32 80  1  0  0  0  0
 32 81  1  0  0  0  0
 32 82  1  0  0  0  0
 33 83  1  0  0  0  0
 33 84  1  0  0  0  0
 33 85  1  0  0  0  0
M  END
> <PUBCHEM_COMPOUND_CID>
525046
> <PUBCHEM_COMPOUND_CANONICALIZED>
1
> <PUBCHEM_CACTVS_COMPLEXITY>
641
> <PUBCHEM_CACTVS_HBOND_ACCEPTOR>
6
> <PUBCHEM_CACTVS_HBOND_DONOR>
0
> <PUBCHEM_CACTVS_ROTATABLE_BOND>
11
> <PUBCHEM_CACTVS_SUBSKEYS>
AAADcfB4OAwAAAAAAAAAAAAAAAAAAAAAAAAwAAAAAAAAAAAAAAAAGhAAAEAADFSggAJCCAAAAAEIAACQCAIAAAAAAAAAAAFAAAABABIAAAAAAAAFAAAAAAHK7DTOAAAAAAAAAABCAAIQAACAAAAAAAAAAA==
> <PUBCHEM_IUPAC_OPENEYE_NAME>
trimethylsilyl 1,3,4,5-tetrakis(trimethylsilyloxy)cyclohexanecarboxylate
> <PUBCHEM_IUPAC_CAS_NAME>
1,3,4,5-tetrakis(trimethylsilyloxy)-1-cyclohexanecarboxylic acid trimethylsilyl ester
> <PUBCHEM_IUPAC_NAME_MARKUP>
trimethylsilyl 1,3,4,5-tetrakis(trimethylsilyloxy)cyclohexane-1-carboxylate
> <PUBCHEM_IUPAC_NAME>
trimethylsilyl 1,3,4,5-tetrakis(trimethylsilyloxy)cyclohexane-1-carboxylate
> <PUBCHEM_IUPAC_SYSTEMATIC_NAME>
trimethylsilyl 1,3,4,5-tetrakis(trimethylsilyloxy)cyclohexane-1-carboxylate
> <PUBCHEM_IUPAC_TRADITIONAL_NAME>
1,3,4,5-tetrakis(trimethylsilyloxy)cyclohexanecarboxylic acid trimethylsilyl ester
> <PUBCHEM_IUPAC_INCHI>
InChI=1S/C22H52O6Si5/c1-29(2,3)24-18-16-22(28-33(13,14)15,21(23)27-32(10,11)12)17-19(25-30(4,5)6)20(18)26-31(7,8)9/h18-20H,16-17H2,1-15H3
> <PUBCHEM_IUPAC_INCHIKEY>
DBCLHKSGLLGXOV-UHFFFAOYSA-N
> <PUBCHEM_EXACT_MASS>
552.26102205
> <PUBCHEM_MOLECULAR_FORMULA>
C22H52O6Si5
> <PUBCHEM_MOLECULAR_WEIGHT>
553.1
> <PUBCHEM_OPENEYE_CAN_SMILES>
C[Si](C)(C)OC1CC(CC(C1O[Si](C)(C)C)O[Si](C)(C)C)(C(=O)O[Si](C)(C)C)O[Si](C)(C)C
> <PUBCHEM_OPENEYE_ISO_SMILES>
C[Si](C)(C)OC1CC(CC(C1O[Si](C)(C)C)O[Si](C)(C)C)(C(=O)O[Si](C)(C)C)O[Si](C)(C)C
> <PUBCHEM_CACTVS_TPSA>
63.2
> <PUBCHEM_MONOISOTOPIC_WEIGHT>
552.26102205
> <PUBCHEM_TOTAL_CHARGE>
0
> <PUBCHEM_HEAVY_ATOM_COUNT>
33
> <PUBCHEM_ATOM_DEF_STEREO_COUNT>
0
> <PUBCHEM_ATOM_UDEF_STEREO_COUNT>
2
> <PUBCHEM_BOND_DEF_STEREO_COUNT>
0
> <PUBCHEM_BOND_UDEF_STEREO_COUNT>
0
> <PUBCHEM_ISOTOPIC_ATOM_COUNT>
0
> <PUBCHEM_COMPONENT_COUNT>
1
> <PUBCHEM_CACTVS_TAUTO_COUNT>
-1
> <PUBCHEM_COORDINATE_TYPE>
1
5
255
> <PUBCHEM_BONDANNOTATIONS>
14  8  3
15  9  3
$$$$
