525096
  -OEChem-10302200292D
 32 31  0     1  0  0  0  0  0999 V2000
    3.2320    0.9330    0.0000 Cl  0  0  0  0  0  0  0  0  0  0  0  0
    2.0000    0.0670    0.0000 Cl  0  0  0  0  0  0  0  0  0  0  0  0
    4.5981    0.5670    0.0000 O   0  0  0  0  0  0  0  0  0  0  0  0
    5.4641   -0.9330    0.0000 O   0  0  0  0  0  0  0  0  0  0  0  0
    8.0622    0.5670    0.0000 C   0  0  0  0  0  0  0  0  0  0  0  0
    7.1962    0.0670    0.0000 C   0  0  0  0  0  0  0  0  0  0  0  0
    8.9282    0.0670    0.0000 C   0  0  0  0  0  0  0  0  0  0  0  0
    6.3301    0.5670    0.0000 C   0  0  0  0  0  0  0  0  0  0  0  0
    9.7942    0.5670    0.0000 C   0  0  0  0  0  0  0  0  0  0  0  0
    5.4641    0.0670    0.0000 C   0  0  0  0  0  0  0  0  0  0  0  0
    3.7320    0.0670    0.0000 C   0  0  3  0  0  0  0  0  0  0  0  0
   10.6603    0.0670    0.0000 C   0  0  0  0  0  0  0  0  0  0  0  0
    2.8660   -0.4330    0.0000 C   0  0  0  0  0  0  0  0  0  0  0  0
    4.2320   -0.7990    0.0000 C   0  0  0  0  0  0  0  0  0  0  0  0
    8.4607    1.0419    0.0000 H   0  0  0  0  0  0  0  0  0  0  0  0
    7.6636    1.0419    0.0000 H   0  0  0  0  0  0  0  0  0  0  0  0
    6.7976   -0.4080    0.0000 H   0  0  0  0  0  0  0  0  0  0  0  0
    7.5947   -0.4080    0.0000 H   0  0  0  0  0  0  0  0  0  0  0  0
    8.5297   -0.4080    0.0000 H   0  0  0  0  0  0  0  0  0  0  0  0
    9.3267   -0.4080    0.0000 H   0  0  0  0  0  0  0  0  0  0  0  0
    6.7287    1.0419    0.0000 H   0  0  0  0  0  0  0  0  0  0  0  0
    5.9316    1.0419    0.0000 H   0  0  0  0  0  0  0  0  0  0  0  0
   10.1928    1.0419    0.0000 H   0  0  0  0  0  0  0  0  0  0  0  0
    9.3957    1.0419    0.0000 H   0  0  0  0  0  0  0  0  0  0  0  0
   10.3503   -0.4699    0.0000 H   0  0  0  0  0  0  0  0  0  0  0  0
   11.1972   -0.2430    0.0000 H   0  0  0  0  0  0  0  0  0  0  0  0
   10.9703    0.6039    0.0000 H   0  0  0  0  0  0  0  0  0  0  0  0
    2.4675   -0.9080    0.0000 H   0  0  0  0  0  0  0  0  0  0  0  0
    3.2646   -0.9080    0.0000 H   0  0  0  0  0  0  0  0  0  0  0  0
    3.6951   -1.1090    0.0000 H   0  0  0  0  0  0  0  0  0  0  0  0
    4.5420   -1.3360    0.0000 H   0  0  0  0  0  0  0  0  0  0  0  0
    4.7690   -0.4890    0.0000 H   0  0  0  0  0  0  0  0  0  0  0  0
  1 11  1  0  0  0  0
  2 13  1  0  0  0  0
  3 10  1  0  0  0  0
  3 11  1  0  0  0  0
  4 10  2  0  0  0  0
  5  6  1  0  0  0  0
  5  7  1  0  0  0  0
  5 15  1  0  0  0  0
  5 16  1  0  0  0  0
  6  8  1  0  0  0  0
  6 17  1  0  0  0  0
  6 18  1  0  0  0  0
  7  9  1  0  0  0  0
  7 19  1  0  0  0  0
  7 20  1  0  0  0  0
  8 10  1  0  0  0  0
  8 21  1  0  0  0  0
  8 22  1  0  0  0  0
  9 12  1  0  0  0  0
  9 23  1  0  0  0  0
  9 24  1  0  0  0  0
 11 13  1  0  0  0  0
 11 14  1  0  0  0  0
 12 25  1  0  0  0  0
 12 26  1  0  0  0  0
 12 27  1  0  0  0  0
 13 28  1  0  0  0  0
 13 29  1  0  0  0  0
 14 30  1  0  0  0  0
 14 31  1  0  0  0  0
 14 32  1  0  0  0  0
M  END
> <PUBCHEM_COMPOUND_CID>
525096
> <PUBCHEM_COMPOUND_CANONICALIZED>
1
> <PUBCHEM_CACTVS_COMPLEXITY>
174
> <PUBCHEM_CACTVS_HBOND_ACCEPTOR>
2
> <PUBCHEM_CACTVS_HBOND_DONOR>
0
> <PUBCHEM_CACTVS_ROTATABLE_BOND>
8
> <PUBCHEM_CACTVS_SUBSKEYS>
AAADceBwMAAGAAAAAAAAAAAAAAAAAAAAAAAAAAAAAAAAAAAAAAAAGgIAAAAACAeAgEACCAAABAAIAACQCAAAAAAAAAAAAEEAAwAAABIAAAACAAAEAAAAAAGIyCCAAAAAAAAAAAAAAAAAAAAAAAAAAAAAAA==
> <PUBCHEM_IUPAC_OPENEYE_NAME>
(1,2-dichloro-1-methyl-ethyl) heptanoate
> <PUBCHEM_IUPAC_CAS_NAME>
heptanoic acid 1,2-dichloropropan-2-yl ester
> <PUBCHEM_IUPAC_NAME_MARKUP>
1,2-dichloropropan-2-yl heptanoate
> <PUBCHEM_IUPAC_NAME>
1,2-dichloropropan-2-yl heptanoate
> <PUBCHEM_IUPAC_SYSTEMATIC_NAME>
1,2-bis(chloranyl)propan-2-yl heptanoate
> <PUBCHEM_IUPAC_TRADITIONAL_NAME>
enanthic acid (1,2-dichloro-1-methyl-ethyl) ester
> <PUBCHEM_IUPAC_INCHI>
InChI=1S/C10H18Cl2O2/c1-3-4-5-6-7-9(13)14-10(2,12)8-11/h3-8H2,1-2H3
> <PUBCHEM_IUPAC_INCHIKEY>
FPZTZMYOEFDHBQ-UHFFFAOYSA-N
> <PUBCHEM_XLOGP3_AA>
4.1
> <PUBCHEM_EXACT_MASS>
240.0683852
> <PUBCHEM_MOLECULAR_FORMULA>
C10H18Cl2O2
> <PUBCHEM_MOLECULAR_WEIGHT>
241.15
> <PUBCHEM_OPENEYE_CAN_SMILES>
CCCCCCC(=O)OC(C)(CCl)Cl
> <PUBCHEM_OPENEYE_ISO_SMILES>
CCCCCCC(=O)OC(C)(CCl)Cl
> <PUBCHEM_CACTVS_TPSA>
26.3
> <PUBCHEM_MONOISOTOPIC_WEIGHT>
240.0683852
> <PUBCHEM_TOTAL_CHARGE>
0
> <PUBCHEM_HEAVY_ATOM_COUNT>
14
> <PUBCHEM_ATOM_DEF_STEREO_COUNT>
0
> <PUBCHEM_ATOM_UDEF_STEREO_COUNT>
1
> <PUBCHEM_BOND_DEF_STEREO_COUNT>
0
> <PUBCHEM_BOND_UDEF_STEREO_COUNT>
0
> <PUBCHEM_ISOTOPIC_ATOM_COUNT>
0
> <PUBCHEM_COMPONENT_COUNT>
1
> <PUBCHEM_CACTVS_TAUTO_COUNT>
-1
> <PUBCHEM_COORDINATE_TYPE>
1
5
255
> <PUBCHEM_BONDANNOTATIONS>
11  1  3
$$$$
