525059
  -OEChem-10302200292D
 68 71  0     1  0  0  0  0  0999 V2000
   11.3567    1.9480    0.0000 Si  0  0  0  0  0  0  0  0  0  0  0  0
    2.8641   -2.0624    0.0000 Si  0  0  0  0  0  0  0  0  0  0  0  0
   10.3781    1.7418    0.0000 O   0  0  0  0  0  0  0  0  0  0  0  0
    3.7282   -2.5658    0.0000 O   0  0  0  0  0  0  0  0  0  0  0  0
    9.1213    0.4866    0.0000 C   0  0  3  0  0  0  0  0  0  0  0  0
    9.1213   -0.5134    0.0000 C   0  0  3  0  0  0  0  0  0  0  0  0
    8.2552   -1.0134    0.0000 C   0  0  3  0  0  0  0  0  0  0  0  0
   10.0675    0.7913    0.0000 C   0  0  3  0  0  0  0  0  0  0  0  0
    7.3892   -0.5134    0.0000 C   0  0  3  0  0  0  0  0  0  0  0  0
    8.2552    0.9866    0.0000 C   0  0  0  0  0  0  0  0  0  0  0  0
   10.0675   -0.8182    0.0000 C   0  0  0  0  0  0  0  0  0  0  0  0
   10.6511   -0.0134    0.0000 C   0  0  0  0  0  0  0  0  0  0  0  0
    7.3892    0.4866    0.0000 C   0  0  0  0  0  0  0  0  0  0  0  0
    8.2713   -2.0550    0.0000 C   0  0  0  0  0  0  0  0  0  0  0  0
    9.1213    1.4866    0.0000 C   0  0  0  0  0  0  0  0  0  0  0  0
    6.4792   -1.0203    0.0000 C   0  0  0  0  0  0  0  0  0  0  0  0
    7.3733   -2.5827    0.0000 C   0  0  0  0  0  0  0  0  0  0  0  0
    6.4712   -2.0619    0.0000 C   0  0  0  0  0  0  0  0  0  0  0  0
    5.5524   -0.4562    0.0000 C   0  0  0  0  0  0  0  0  0  0  0  0
    5.5358   -2.6116    0.0000 C   0  0  0  0  0  0  0  0  0  0  0  0
    4.6045   -0.9842    0.0000 C   0  0  0  0  0  0  0  0  0  0  0  0
   12.3352    2.1543    0.0000 C   0  0  0  0  0  0  0  0  0  0  0  0
   11.1504    2.9265    0.0000 C   0  0  0  0  0  0  0  0  0  0  0  0
   11.5629    0.9695    0.0000 C   0  0  0  0  0  0  0  0  0  0  0  0
    4.5961   -2.0691    0.0000 C   0  0  0  0  0  0  0  0  0  0  0  0
    2.0000   -1.5591    0.0000 C   0  0  0  0  0  0  0  0  0  0  0  0
    2.3608   -2.9265    0.0000 C   0  0  0  0  0  0  0  0  0  0  0  0
    3.3674   -1.1984    0.0000 C   0  0  0  0  0  0  0  0  0  0  0  0
    9.1869   -1.1300    0.0000 H   0  0  0  0  0  0  0  0  0  0  0  0
    8.7945   -1.3193    0.0000 H   0  0  0  0  0  0  0  0  0  0  0  0
   10.6800    0.8875    0.0000 H   0  0  0  0  0  0  0  0  0  0  0  0
    7.9262   -0.2034    0.0000 H   0  0  0  0  0  0  0  0  0  0  0  0
    8.6538    1.4615    0.0000 H   0  0  0  0  0  0  0  0  0  0  0  0
    7.8567    1.4615    0.0000 H   0  0  0  0  0  0  0  0  0  0  0  0
    9.8164   -1.3851    0.0000 H   0  0  0  0  0  0  0  0  0  0  0  0
   10.6049   -1.1274    0.0000 H   0  0  0  0  0  0  0  0  0  0  0  0
   11.1120   -0.4282    0.0000 H   0  0  0  0  0  0  0  0  0  0  0  0
   11.1120    0.4013    0.0000 H   0  0  0  0  0  0  0  0  0  0  0  0
    7.1772    1.0692    0.0000 H   0  0  0  0  0  0  0  0  0  0  0  0
    6.7786    0.3789    0.0000 H   0  0  0  0  0  0  0  0  0  0  0  0
    8.4893   -2.6354    0.0000 H   0  0  0  0  0  0  0  0  0  0  0  0
    8.8804   -1.9394    0.0000 H   0  0  0  0  0  0  0  0  0  0  0  0
    9.7413    1.4866    0.0000 H   0  0  0  0  0  0  0  0  0  0  0  0
    9.1213    2.1066    0.0000 H   0  0  0  0  0  0  0  0  0  0  0  0
    8.5013    1.4866    0.0000 H   0  0  0  0  0  0  0  0  0  0  0  0
    6.9760   -3.0587    0.0000 H   0  0  0  0  0  0  0  0  0  0  0  0
    7.7742   -3.0556    0.0000 H   0  0  0  0  0  0  0  0  0  0  0  0
    5.5643    0.1637    0.0000 H   0  0  0  0  0  0  0  0  0  0  0  0
    5.5382   -3.2316    0.0000 H   0  0  0  0  0  0  0  0  0  0  0  0
    4.0712   -0.6680    0.0000 H   0  0  0  0  0  0  0  0  0  0  0  0
   12.4630    1.5476    0.0000 H   0  0  0  0  0  0  0  0  0  0  0  0
   12.9418    2.2821    0.0000 H   0  0  0  0  0  0  0  0  0  0  0  0
   12.2073    2.7609    0.0000 H   0  0  0  0  0  0  0  0  0  0  0  0
   11.7571    3.0544    0.0000 H   0  0  0  0  0  0  0  0  0  0  0  0
   11.0226    3.5332    0.0000 H   0  0  0  0  0  0  0  0  0  0  0  0
   10.5438    2.7987    0.0000 H   0  0  0  0  0  0  0  0  0  0  0  0
   10.9562    0.8417    0.0000 H   0  0  0  0  0  0  0  0  0  0  0  0
   11.6907    0.3628    0.0000 H   0  0  0  0  0  0  0  0  0  0  0  0
   12.1695    1.0974    0.0000 H   0  0  0  0  0  0  0  0  0  0  0  0
    2.3121   -1.0234    0.0000 H   0  0  0  0  0  0  0  0  0  0  0  0
    1.4643   -1.2470    0.0000 H   0  0  0  0  0  0  0  0  0  0  0  0
    1.6879   -2.0948    0.0000 H   0  0  0  0  0  0  0  0  0  0  0  0
    1.8250   -2.6145    0.0000 H   0  0  0  0  0  0  0  0  0  0  0  0
    2.0487   -3.4623    0.0000 H   0  0  0  0  0  0  0  0  0  0  0  0
    2.8965   -3.2386    0.0000 H   0  0  0  0  0  0  0  0  0  0  0  0
    3.9032   -1.5104    0.0000 H   0  0  0  0  0  0  0  0  0  0  0  0
    3.6795   -0.6626    0.0000 H   0  0  0  0  0  0  0  0  0  0  0  0
    2.8317   -0.8863    0.0000 H   0  0  0  0  0  0  0  0  0  0  0  0
  1  3  1  0  0  0  0
  1 22  1  0  0  0  0
  1 23  1  0  0  0  0
  1 24  1  0  0  0  0
  2  4  1  0  0  0  0
  2 26  1  0  0  0  0
  2 27  1  0  0  0  0
  2 28  1  0  0  0  0
  3  8  1  0  0  0  0
  4 25  1  0  0  0  0
  5  6  1  0  0  0  0
  5  8  1  0  0  0  0
  5 10  1  0  0  0  0
  5 15  1  0  0  0  0
  6  7  1  0  0  0  0
  6 11  1  0  0  0  0
  6 29  1  0  0  0  0
  7  9  1  0  0  0  0
  7 14  1  0  0  0  0
  7 30  1  0  0  0  0
  8 12  1  0  0  0  0
  8 31  1  0  0  0  0
  9 13  1  0  0  0  0
  9 16  1  0  0  0  0
  9 32  1  0  0  0  0
 10 13  1  0  0  0  0
 10 33  1  0  0  0  0
 10 34  1  0  0  0  0
 11 12  1  0  0  0  0
 11 35  1  0  0  0  0
 11 36  1  0  0  0  0
 12 37  1  0  0  0  0
 12 38  1  0  0  0  0
 13 39  1  0  0  0  0
 13 40  1  0  0  0  0
 14 17  1  0  0  0  0
 14 41  1  0  0  0  0
 14 42  1  0  0  0  0
 15 43  1  0  0  0  0
 15 44  1  0  0  0  0
 15 45  1  0  0  0  0
 16 18  2  0  0  0  0
 16 19  1  0  0  0  0
 17 18  1  0  0  0  0
 17 46  1  0  0  0  0
 17 47  1  0  0  0  0
 18 20  1  0  0  0  0
 19 21  2  0  0  0  0
 19 48  1  0  0  0  0
 20 25  2  0  0  0  0
 20 49  1  0  0  0  0
 21 25  1  0  0  0  0
 21 50  1  0  0  0  0
 22 51  1  0  0  0  0
 22 52  1  0  0  0  0
 22 53  1  0  0  0  0
 23 54  1  0  0  0  0
 23 55  1  0  0  0  0
 23 56  1  0  0  0  0
 24 57  1  0  0  0  0
 24 58  1  0  0  0  0
 24 59  1  0  0  0  0
 26 60  1  0  0  0  0
 26 61  1  0  0  0  0
 26 62  1  0  0  0  0
 27 63  1  0  0  0  0
 27 64  1  0  0  0  0
 27 65  1  0  0  0  0
 28 66  1  0  0  0  0
 28 67  1  0  0  0  0
 28 68  1  0  0  0  0
M  END
> <PUBCHEM_COMPOUND_CID>
525059
> <PUBCHEM_COMPOUND_CANONICALIZED>
1
> <PUBCHEM_CACTVS_COMPLEXITY>
566
> <PUBCHEM_CACTVS_HBOND_ACCEPTOR>
2
> <PUBCHEM_CACTVS_HBOND_DONOR>
0
> <PUBCHEM_CACTVS_ROTATABLE_BOND>
4
> <PUBCHEM_CACTVS_SUBSKEYS>
AAADcfB4MAwAAAAAAAAAAAAAAAAAAYAAAAAwYMAAAAAAAGDBAAAAGhAAAEAADxSgmAJyBoAAAAGAAiBCAAACAAAgIAAIiAAGCIgIJiKAERKAMAAkwBEIiAeAwPAPoAABAAAQAADAAAYAACAAAIAADAAAAA==
> <PUBCHEM_IUPAC_OPENEYE_NAME>
trimethyl-[(13-methyl-3-trimethylsilyloxy-6,7,8,9,11,12,14,15,16,17-decahydrocyclopenta[a]phenanthren-17-yl)oxy]silane
> <PUBCHEM_IUPAC_CAS_NAME>
trimethyl-[(13-methyl-3-trimethylsilyloxy-6,7,8,9,11,12,14,15,16,17-decahydrocyclopenta[a]phenanthren-17-yl)oxy]silane
> <PUBCHEM_IUPAC_NAME_MARKUP>
trimethyl-[(13-methyl-3-trimethylsilyloxy-6,7,8,9,11,12,14,15,16,17-decahydrocyclopenta[a]phenanthren-17-yl)oxy]silane
> <PUBCHEM_IUPAC_NAME>
trimethyl-[(13-methyl-3-trimethylsilyloxy-6,7,8,9,11,12,14,15,16,17-decahydrocyclopenta[a]phenanthren-17-yl)oxy]silane
> <PUBCHEM_IUPAC_SYSTEMATIC_NAME>
trimethyl-[(13-methyl-3-trimethylsilyloxy-6,7,8,9,11,12,14,15,16,17-decahydrocyclopenta[a]phenanthren-17-yl)oxy]silane
> <PUBCHEM_IUPAC_TRADITIONAL_NAME>
trimethyl-[(13-methyl-3-trimethylsilyloxy-6,7,8,9,11,12,14,15,16,17-decahydrocyclopenta[a]phenanthren-17-yl)oxy]silane
> <PUBCHEM_IUPAC_INCHI>
InChI=1S/C24H40O2Si2/c1-24-15-14-20-19-11-9-18(25-27(2,3)4)16-17(19)8-10-21(20)22(24)12-13-23(24)26-28(5,6)7/h9,11,16,20-23H,8,10,12-15H2,1-7H3
> <PUBCHEM_IUPAC_INCHIKEY>
WJUROLKZHWTVGC-UHFFFAOYSA-N
> <PUBCHEM_EXACT_MASS>
416.25668358
> <PUBCHEM_MOLECULAR_FORMULA>
C24H40O2Si2
> <PUBCHEM_MOLECULAR_WEIGHT>
416.7
> <PUBCHEM_OPENEYE_CAN_SMILES>
CC12CCC3C(C1CCC2O[Si](C)(C)C)CCC4=C3C=CC(=C4)O[Si](C)(C)C
> <PUBCHEM_OPENEYE_ISO_SMILES>
CC12CCC3C(C1CCC2O[Si](C)(C)C)CCC4=C3C=CC(=C4)O[Si](C)(C)C
> <PUBCHEM_CACTVS_TPSA>
18.5
> <PUBCHEM_MONOISOTOPIC_WEIGHT>
416.25668358
> <PUBCHEM_TOTAL_CHARGE>
0
> <PUBCHEM_HEAVY_ATOM_COUNT>
28
> <PUBCHEM_ATOM_DEF_STEREO_COUNT>
0
> <PUBCHEM_ATOM_UDEF_STEREO_COUNT>
5
> <PUBCHEM_BOND_DEF_STEREO_COUNT>
0
> <PUBCHEM_BOND_UDEF_STEREO_COUNT>
0
> <PUBCHEM_ISOTOPIC_ATOM_COUNT>
0
> <PUBCHEM_COMPONENT_COUNT>
1
> <PUBCHEM_CACTVS_TAUTO_COUNT>
-1
> <PUBCHEM_COORDINATE_TYPE>
1
5
255
> <PUBCHEM_BONDANNOTATIONS>
16  18  8
16  19  8
18  20  8
19  21  8
20  25  8
21  25  8
8  3  3
5  15  3
6  11  3
7  14  3
9  13  3
$$$$
