525073
  -OEChem-10302200292D
 59 62  0     1  0  0  0  0  0999 V2000
    7.1640    1.8625    0.0000 O   0  0  0  0  0  0  0  0  0  0  0  0
    9.1942    1.0890    0.0000 O   0  0  0  0  0  0  0  0  0  0  0  0
    6.5251   -0.3938    0.0000 C   0  0  3  0  0  0  0  0  0  0  0  0
    6.5251    0.6062    0.0000 C   0  0  3  0  0  0  0  0  0  0  0  0
    5.6591   -0.8938    0.0000 C   0  0  3  0  0  0  0  0  0  0  0  0
    4.7931   -0.3938    0.0000 C   0  0  3  0  0  0  0  0  0  0  0  0
    3.8831   -0.9007    0.0000 C   0  0  3  0  0  0  0  0  0  0  0  0
    7.4714    0.9109    0.0000 C   0  0  3  0  0  0  0  0  0  0  0  0
    5.6591    1.1062    0.0000 C   0  0  0  0  0  0  0  0  0  0  0  0
    3.8751   -1.9423    0.0000 C   0  0  3  0  0  0  0  0  0  0  0  0
    4.7931    0.6062    0.0000 C   0  0  0  0  0  0  0  0  0  0  0  0
    7.4714   -0.6986    0.0000 C   0  0  0  0  0  0  0  0  0  0  0  0
    5.6752   -1.9353    0.0000 C   0  0  0  0  0  0  0  0  0  0  0  0
    8.0550    0.1062    0.0000 C   0  0  0  0  0  0  0  0  0  0  0  0
    4.7771   -2.4631    0.0000 C   0  0  0  0  0  0  0  0  0  0  0  0
    2.9562   -0.3366    0.0000 C   0  0  0  0  0  0  0  0  0  0  0  0
    6.5251    1.6062    0.0000 C   0  0  0  0  0  0  0  0  0  0  0  0
    2.9396   -2.4920    0.0000 C   0  0  0  0  0  0  0  0  0  0  0  0
    3.8908    0.0993    0.0000 C   0  0  0  0  0  0  0  0  0  0  0  0
    8.2814    1.4973    0.0000 C   0  0  3  0  0  0  0  0  0  0  0  0
    2.0084   -0.8645    0.0000 C   0  0  0  0  0  0  0  0  0  0  0  0
    2.0000   -1.9495    0.0000 C   0  0  0  0  0  0  0  0  0  0  0  0
    8.1786    2.4920    0.0000 C   0  0  0  0  0  0  0  0  0  0  0  0
    6.5908   -1.0103    0.0000 H   0  0  0  0  0  0  0  0  0  0  0  0
    6.1984   -1.1997    0.0000 H   0  0  0  0  0  0  0  0  0  0  0  0
    5.3300   -0.0838    0.0000 H   0  0  0  0  0  0  0  0  0  0  0  0
    6.0576    1.5811    0.0000 H   0  0  0  0  0  0  0  0  0  0  0  0
    5.2606    1.5811    0.0000 H   0  0  0  0  0  0  0  0  0  0  0  0
    3.8774   -2.5623    0.0000 H   0  0  0  0  0  0  0  0  0  0  0  0
    4.5810    1.1888    0.0000 H   0  0  0  0  0  0  0  0  0  0  0  0
    4.1825    0.4985    0.0000 H   0  0  0  0  0  0  0  0  0  0  0  0
    7.2203   -1.2655    0.0000 H   0  0  0  0  0  0  0  0  0  0  0  0
    8.0087   -1.0078    0.0000 H   0  0  0  0  0  0  0  0  0  0  0  0
    5.8932   -2.5157    0.0000 H   0  0  0  0  0  0  0  0  0  0  0  0
    6.2843   -1.8198    0.0000 H   0  0  0  0  0  0  0  0  0  0  0  0
    8.5158   -0.3086    0.0000 H   0  0  0  0  0  0  0  0  0  0  0  0
    8.5158    0.5209    0.0000 H   0  0  0  0  0  0  0  0  0  0  0  0
    4.3798   -2.9390    0.0000 H   0  0  0  0  0  0  0  0  0  0  0  0
    5.1781   -2.9360    0.0000 H   0  0  0  0  0  0  0  0  0  0  0  0
    3.3645    0.1301    0.0000 H   0  0  0  0  0  0  0  0  0  0  0  0
    2.5663    0.1455    0.0000 H   0  0  0  0  0  0  0  0  0  0  0  0
    7.1451    1.6062    0.0000 H   0  0  0  0  0  0  0  0  0  0  0  0
    6.5251    2.2262    0.0000 H   0  0  0  0  0  0  0  0  0  0  0  0
    5.9051    1.6062    0.0000 H   0  0  0  0  0  0  0  0  0  0  0  0
    2.5423   -2.9680    0.0000 H   0  0  0  0  0  0  0  0  0  0  0  0
    3.3406   -2.9649    0.0000 H   0  0  0  0  0  0  0  0  0  0  0  0
    4.5108    0.0945    0.0000 H   0  0  0  0  0  0  0  0  0  0  0  0
    3.8956    0.7193    0.0000 H   0  0  0  0  0  0  0  0  0  0  0  0
    3.2708    0.1041    0.0000 H   0  0  0  0  0  0  0  0  0  0  0  0
    8.7836    1.8608    0.0000 H   0  0  0  0  0  0  0  0  0  0  0  0
    1.8038   -0.2792    0.0000 H   0  0  0  0  0  0  0  0  0  0  0  0
    1.3967   -0.9659    0.0000 H   0  0  0  0  0  0  0  0  0  0  0  0
    1.3900   -1.8387    0.0000 H   0  0  0  0  0  0  0  0  0  0  0  0
    1.7864   -2.5316    0.0000 H   0  0  0  0  0  0  0  0  0  0  0  0
    7.5796    2.3225    0.0000 H   0  0  0  0  0  0  0  0  0  0  0  0
    8.7953    2.5557    0.0000 H   0  0  0  0  0  0  0  0  0  0  0  0
    8.1148    3.1087    0.0000 H   0  0  0  0  0  0  0  0  0  0  0  0
    7.5619    2.4282    0.0000 H   0  0  0  0  0  0  0  0  0  0  0  0
    9.6964    1.4525    0.0000 H   0  0  0  0  0  0  0  0  0  0  0  0
  1  8  1  0  0  0  0
  1 55  1  0  0  0  0
  2 20  1  0  0  0  0
  2 59  1  0  0  0  0
  3  4  1  0  0  0  0
  3  5  1  0  0  0  0
  3 12  1  0  0  0  0
  3 24  1  0  0  0  0
  4  8  1  0  0  0  0
  4  9  1  0  0  0  0
  4 17  1  0  0  0  0
  5  6  1  0  0  0  0
  5 13  1  0  0  0  0
  5 25  1  0  0  0  0
  6  7  1  0  0  0  0
  6 11  1  0  0  0  0
  6 26  1  0  0  0  0
  7 10  1  0  0  0  0
  7 16  1  0  0  0  0
  7 19  1  0  0  0  0
  8 14  1  0  0  0  0
  8 20  1  0  0  0  0
  9 11  1  0  0  0  0
  9 27  1  0  0  0  0
  9 28  1  0  0  0  0
 10 15  1  0  0  0  0
 10 18  1  0  0  0  0
 10 29  1  0  0  0  0
 11 30  1  0  0  0  0
 11 31  1  0  0  0  0
 12 14  1  0  0  0  0
 12 32  1  0  0  0  0
 12 33  1  0  0  0  0
 13 15  1  0  0  0  0
 13 34  1  0  0  0  0
 13 35  1  0  0  0  0
 14 36  1  0  0  0  0
 14 37  1  0  0  0  0
 15 38  1  0  0  0  0
 15 39  1  0  0  0  0
 16 21  1  0  0  0  0
 16 40  1  0  0  0  0
 16 41  1  0  0  0  0
 17 42  1  0  0  0  0
 17 43  1  0  0  0  0
 17 44  1  0  0  0  0
 18 22  1  0  0  0  0
 18 45  1  0  0  0  0
 18 46  1  0  0  0  0
 19 47  1  0  0  0  0
 19 48  1  0  0  0  0
 19 49  1  0  0  0  0
 20 23  1  0  0  0  0
 20 50  1  0  0  0  0
 21 22  1  0  0  0  0
 21 51  1  0  0  0  0
 21 52  1  0  0  0  0
 22 53  1  0  0  0  0
 22 54  1  0  0  0  0
 23 56  1  0  0  0  0
 23 57  1  0  0  0  0
 23 58  1  0  0  0  0
M  END
> <PUBCHEM_COMPOUND_CID>
525073
> <PUBCHEM_COMPOUND_CANONICALIZED>
1
> <PUBCHEM_CACTVS_COMPLEXITY>
477
> <PUBCHEM_CACTVS_HBOND_ACCEPTOR>
2
> <PUBCHEM_CACTVS_HBOND_DONOR>
2
> <PUBCHEM_CACTVS_ROTATABLE_BOND>
1
> <PUBCHEM_CACTVS_SUBSKEYS>
AAADcfB4MAAAAAAAAAAAAAAAAAAAAYAAAAAwYMAAAAAAAGDAAAAAGgAACAAAD1SggAICAAAAAgAAAAAAAAAAAAAAAAAAAAAAAAABEAIAAAAAQAAEAAABAAGAwPAPgAAAAAAAAACAAAQAACAAAYAADAAAAA==
> <PUBCHEM_IUPAC_OPENEYE_NAME>
17-(1-hydroxyethyl)-10,13-dimethyl-1,2,3,4,5,6,7,8,9,11,12,14,15,16-tetradecahydrocyclopenta[a]phenanthren-17-ol
> <PUBCHEM_IUPAC_CAS_NAME>
17-(1-hydroxyethyl)-10,13-dimethyl-1,2,3,4,5,6,7,8,9,11,12,14,15,16-tetradecahydrocyclopenta[a]phenanthren-17-ol
> <PUBCHEM_IUPAC_NAME_MARKUP>
17-(1-hydroxyethyl)-10,13-dimethyl-1,2,3,4,5,6,7,8,9,11,12,14,15,16-tetradecahydrocyclopenta[a]phenanthren-17-ol
> <PUBCHEM_IUPAC_NAME>
17-(1-hydroxyethyl)-10,13-dimethyl-1,2,3,4,5,6,7,8,9,11,12,14,15,16-tetradecahydrocyclopenta[a]phenanthren-17-ol
> <PUBCHEM_IUPAC_SYSTEMATIC_NAME>
17-(1-hydroxyethyl)-10,13-dimethyl-1,2,3,4,5,6,7,8,9,11,12,14,15,16-tetradecahydrocyclopenta[a]phenanthren-17-ol
> <PUBCHEM_IUPAC_TRADITIONAL_NAME>
17-(1-hydroxyethyl)-10,13-dimethyl-1,2,3,4,5,6,7,8,9,11,12,14,15,16-tetradecahydrocyclopenta[a]phenanthren-17-ol
> <PUBCHEM_IUPAC_INCHI>
InChI=1S/C21H36O2/c1-14(22)21(23)13-10-18-16-8-7-15-6-4-5-11-19(15,2)17(16)9-12-20(18,21)3/h14-18,22-23H,4-13H2,1-3H3
> <PUBCHEM_IUPAC_INCHIKEY>
BSQKCQWUHCAKQY-UHFFFAOYSA-N
> <PUBCHEM_XLOGP3_AA>
5.5
> <PUBCHEM_EXACT_MASS>
320.271530387
> <PUBCHEM_MOLECULAR_FORMULA>
C21H36O2
> <PUBCHEM_MOLECULAR_WEIGHT>
320.5
> <PUBCHEM_OPENEYE_CAN_SMILES>
CC(C1(CCC2C1(CCC3C2CCC4C3(CCCC4)C)C)O)O
> <PUBCHEM_OPENEYE_ISO_SMILES>
CC(C1(CCC2C1(CCC3C2CCC4C3(CCCC4)C)C)O)O
> <PUBCHEM_CACTVS_TPSA>
40.5
> <PUBCHEM_MONOISOTOPIC_WEIGHT>
320.271530387
> <PUBCHEM_TOTAL_CHARGE>
0
> <PUBCHEM_HEAVY_ATOM_COUNT>
23
> <PUBCHEM_ATOM_DEF_STEREO_COUNT>
0
> <PUBCHEM_ATOM_UDEF_STEREO_COUNT>
8
> <PUBCHEM_BOND_DEF_STEREO_COUNT>
0
> <PUBCHEM_BOND_UDEF_STEREO_COUNT>
0
> <PUBCHEM_ISOTOPIC_ATOM_COUNT>
0
> <PUBCHEM_COMPONENT_COUNT>
1
> <PUBCHEM_CACTVS_TAUTO_COUNT>
-1
> <PUBCHEM_COORDINATE_TYPE>
1
5
255
> <PUBCHEM_BONDANNOTATIONS>
8  1  3
10  18  3
20  2  3
3  12  3
4  17  3
5  13  3
6  11  3
7  19  3
$$$$
