525001
  -OEChem-10302200292D
 52 53  0     1  0  0  0  0  0999 V2000
    2.8660    1.0000    0.0000 Si  0  0  0  0  0  0  0  0  0  0  0  0
    3.7320    0.5000    0.0000 O   0  0  0  0  0  0  0  0  0  0  0  0
    9.7942    2.0000    0.0000 O   0  0  0  0  0  0  0  0  0  0  0  0
    8.0622   -1.0000    0.0000 O   0  0  0  0  0  0  0  0  0  0  0  0
    8.9282    0.5000    0.0000 N   0  0  0  0  0  0  0  0  0  0  0  0
    9.7942   -1.0000    0.0000 N   0  0  0  0  0  0  0  0  0  0  0  0
   11.6065    0.8047    0.0000 N   0  0  0  0  0  0  0  0  0  0  0  0
   11.6065   -0.8047    0.0000 N   0  0  0  0  0  0  0  0  0  0  0  0
    5.4641    0.5000    0.0000 C   0  0  0  0  0  0  0  0  0  0  0  0
    4.5981    1.0000    0.0000 C   0  0  3  0  0  0  0  0  0  0  0  0
    6.3301    1.0000    0.0000 C   0  0  0  0  0  0  0  0  0  0  0  0
    7.1962    0.5000    0.0000 C   0  0  0  0  0  0  0  0  0  0  0  0
    8.0622    1.0000    0.0000 C   0  0  0  0  0  0  0  0  0  0  0  0
    4.5981    2.0000    0.0000 C   0  0  0  0  0  0  0  0  0  0  0  0
    2.0000    1.5000    0.0000 C   0  0  0  0  0  0  0  0  0  0  0  0
    2.3660    0.1340    0.0000 C   0  0  0  0  0  0  0  0  0  0  0  0
    3.3660    1.8660    0.0000 C   0  0  0  0  0  0  0  0  0  0  0  0
   10.6603    0.5000    0.0000 C   0  0  0  0  0  0  0  0  0  0  0  0
    9.7942    1.0000    0.0000 C   0  0  0  0  0  0  0  0  0  0  0  0
    8.9282   -0.5000    0.0000 C   0  0  0  0  0  0  0  0  0  0  0  0
   10.6603   -0.5000    0.0000 C   0  0  0  0  0  0  0  0  0  0  0  0
    9.7942   -2.0000    0.0000 C   0  0  0  0  0  0  0  0  0  0  0  0
   12.1901    0.0000    0.0000 C   0  0  0  0  0  0  0  0  0  0  0  0
   11.9171    1.7552    0.0000 C   0  0  0  0  0  0  0  0  0  0  0  0
    5.0656    0.0251    0.0000 H   0  0  0  0  0  0  0  0  0  0  0  0
    5.8626    0.0251    0.0000 H   0  0  0  0  0  0  0  0  0  0  0  0
    4.5981    0.3800    0.0000 H   0  0  0  0  0  0  0  0  0  0  0  0
    6.7287    1.4750    0.0000 H   0  0  0  0  0  0  0  0  0  0  0  0
    5.9316    1.4750    0.0000 H   0  0  0  0  0  0  0  0  0  0  0  0
    6.7976    0.0251    0.0000 H   0  0  0  0  0  0  0  0  0  0  0  0
    7.5947    0.0251    0.0000 H   0  0  0  0  0  0  0  0  0  0  0  0
    8.4607    1.4750    0.0000 H   0  0  0  0  0  0  0  0  0  0  0  0
    7.6636    1.4750    0.0000 H   0  0  0  0  0  0  0  0  0  0  0  0
    5.2181    2.0000    0.0000 H   0  0  0  0  0  0  0  0  0  0  0  0
    4.5981    2.6200    0.0000 H   0  0  0  0  0  0  0  0  0  0  0  0
    3.9781    2.0000    0.0000 H   0  0  0  0  0  0  0  0  0  0  0  0
    2.3100    2.0369    0.0000 H   0  0  0  0  0  0  0  0  0  0  0  0
    1.4631    1.8100    0.0000 H   0  0  0  0  0  0  0  0  0  0  0  0
    1.6900    0.9631    0.0000 H   0  0  0  0  0  0  0  0  0  0  0  0
    1.8291    0.4440    0.0000 H   0  0  0  0  0  0  0  0  0  0  0  0
    2.0560   -0.4030    0.0000 H   0  0  0  0  0  0  0  0  0  0  0  0
    2.9030   -0.1760    0.0000 H   0  0  0  0  0  0  0  0  0  0  0  0
    3.9030    1.5560    0.0000 H   0  0  0  0  0  0  0  0  0  0  0  0
    3.6760    2.4030    0.0000 H   0  0  0  0  0  0  0  0  0  0  0  0
    2.8291    2.1760    0.0000 H   0  0  0  0  0  0  0  0  0  0  0  0
    9.1742   -2.0000    0.0000 H   0  0  0  0  0  0  0  0  0  0  0  0
    9.7942   -2.6200    0.0000 H   0  0  0  0  0  0  0  0  0  0  0  0
   10.4142   -2.0000    0.0000 H   0  0  0  0  0  0  0  0  0  0  0  0
   12.8101   -0.0000    0.0000 H   0  0  0  0  0  0  0  0  0  0  0  0
   12.5065    1.5626    0.0000 H   0  0  0  0  0  0  0  0  0  0  0  0
   12.1097    2.3446    0.0000 H   0  0  0  0  0  0  0  0  0  0  0  0
   11.3278    1.9479    0.0000 H   0  0  0  0  0  0  0  0  0  0  0  0
  1  2  1  0  0  0  0
  1 15  1  0  0  0  0
  1 16  1  0  0  0  0
  1 17  1  0  0  0  0
  2 10  1  0  0  0  0
  3 19  2  0  0  0  0
  4 20  2  0  0  0  0
  5 13  1  0  0  0  0
  5 19  1  0  0  0  0
  5 20  1  0  0  0  0
  6 20  1  0  0  0  0
  6 21  1  0  0  0  0
  6 22  1  0  0  0  0
  7 18  1  0  0  0  0
  7 23  1  0  0  0  0
  7 24  1  0  0  0  0
  8 21  1  0  0  0  0
  8 23  2  0  0  0  0
  9 10  1  0  0  0  0
  9 11  1  0  0  0  0
  9 25  1  0  0  0  0
  9 26  1  0  0  0  0
 10 14  1  0  0  0  0
 10 27  1  0  0  0  0
 11 12  1  0  0  0  0
 11 28  1  0  0  0  0
 11 29  1  0  0  0  0
 12 13  1  0  0  0  0
 12 30  1  0  0  0  0
 12 31  1  0  0  0  0
 13 32  1  0  0  0  0
 13 33  1  0  0  0  0
 14 34  1  0  0  0  0
 14 35  1  0  0  0  0
 14 36  1  0  0  0  0
 15 37  1  0  0  0  0
 15 38  1  0  0  0  0
 15 39  1  0  0  0  0
 16 40  1  0  0  0  0
 16 41  1  0  0  0  0
 16 42  1  0  0  0  0
 17 43  1  0  0  0  0
 17 44  1  0  0  0  0
 17 45  1  0  0  0  0
 18 19  1  0  0  0  0
 18 21  2  0  0  0  0
 22 46  1  0  0  0  0
 22 47  1  0  0  0  0
 22 48  1  0  0  0  0
 23 49  1  0  0  0  0
 24 50  1  0  0  0  0
 24 51  1  0  0  0  0
 24 52  1  0  0  0  0
M  END
> <PUBCHEM_COMPOUND_CID>
525001
> <PUBCHEM_COMPOUND_CANONICALIZED>
1
> <PUBCHEM_CACTVS_COMPLEXITY>
482
> <PUBCHEM_CACTVS_HBOND_ACCEPTOR>
4
> <PUBCHEM_CACTVS_HBOND_DONOR>
0
> <PUBCHEM_CACTVS_ROTATABLE_BOND>
7
> <PUBCHEM_CACTVS_SUBSKEYS>
AAADceB7sAgAAAAAAAAAAAAAAAAAAWAAAAAsAAAAAAAAAFgBgAAAHhAAAEAACBzhlgZHsBcMEAGoAQdxdACAgC0XEKABUAGoVECASApAyCAUAIgMByLAAGGQEAIAAAAAAAAAAAAAAAAAAAAAAAAAAAAAAA==
> <PUBCHEM_IUPAC_OPENEYE_NAME>
3,7-dimethyl-1-(5-trimethylsilyloxyhexyl)purine-2,6-dione
> <PUBCHEM_IUPAC_CAS_NAME>
3,7-dimethyl-1-(5-trimethylsilyloxyhexyl)purine-2,6-dione
> <PUBCHEM_IUPAC_NAME_MARKUP>
3,7-dimethyl-1-(5-trimethylsilyloxyhexyl)purine-2,6-dione
> <PUBCHEM_IUPAC_NAME>
3,7-dimethyl-1-(5-trimethylsilyloxyhexyl)purine-2,6-dione
> <PUBCHEM_IUPAC_SYSTEMATIC_NAME>
3,7-dimethyl-1-(5-trimethylsilyloxyhexyl)purine-2,6-dione
> <PUBCHEM_IUPAC_TRADITIONAL_NAME>
3,7-dimethyl-1-(5-trimethylsilyloxyhexyl)xanthine
> <PUBCHEM_IUPAC_INCHI>
InChI=1S/C16H28N4O3Si/c1-12(23-24(4,5)6)9-7-8-10-20-15(21)13-14(17-11-18(13)2)19(3)16(20)22/h11-12H,7-10H2,1-6H3
> <PUBCHEM_IUPAC_INCHIKEY>
GGVBURBTDDKMTI-UHFFFAOYSA-N
> <PUBCHEM_EXACT_MASS>
352.19306730
> <PUBCHEM_MOLECULAR_FORMULA>
C16H28N4O3Si
> <PUBCHEM_MOLECULAR_WEIGHT>
352.50
> <PUBCHEM_OPENEYE_CAN_SMILES>
CC(CCCCN1C(=O)C2=C(N=CN2C)N(C1=O)C)O[Si](C)(C)C
> <PUBCHEM_OPENEYE_ISO_SMILES>
CC(CCCCN1C(=O)C2=C(N=CN2C)N(C1=O)C)O[Si](C)(C)C
> <PUBCHEM_CACTVS_TPSA>
67.7
> <PUBCHEM_MONOISOTOPIC_WEIGHT>
352.19306730
> <PUBCHEM_TOTAL_CHARGE>
0
> <PUBCHEM_HEAVY_ATOM_COUNT>
24
> <PUBCHEM_ATOM_DEF_STEREO_COUNT>
0
> <PUBCHEM_ATOM_UDEF_STEREO_COUNT>
1
> <PUBCHEM_BOND_DEF_STEREO_COUNT>
0
> <PUBCHEM_BOND_UDEF_STEREO_COUNT>
0
> <PUBCHEM_ISOTOPIC_ATOM_COUNT>
0
> <PUBCHEM_COMPONENT_COUNT>
1
> <PUBCHEM_CACTVS_TAUTO_COUNT>
-1
> <PUBCHEM_COORDINATE_TYPE>
1
5
255
> <PUBCHEM_BONDANNOTATIONS>
10  14  3
18  19  8
18  21  8
5  19  8
5  20  8
6  20  8
6  21  8
7  18  8
7  23  8
8  21  8
8  23  8
$$$$
