525077
  -OEChem-10302200292D
 60 63  0     1  0  0  0  0  0999 V2000
    7.1640    1.6807    0.0000 O   0  0  0  0  0  0  0  0  0  0  0  0
    8.1786    2.3102    0.0000 O   0  0  0  0  0  0  0  0  0  0  0  0
   10.0043    1.4936    0.0000 O   0  0  0  0  0  0  0  0  0  0  0  0
    6.5251   -0.5756    0.0000 C   0  0  3  0  0  0  0  0  0  0  0  0
    6.5251    0.4244    0.0000 C   0  0  3  0  0  0  0  0  0  0  0  0
    5.6591   -1.0756    0.0000 C   0  0  3  0  0  0  0  0  0  0  0  0
    4.7931   -0.5756    0.0000 C   0  0  3  0  0  0  0  0  0  0  0  0
    3.8831   -1.0824    0.0000 C   0  0  3  0  0  0  0  0  0  0  0  0
    7.4714    0.7291    0.0000 C   0  0  3  0  0  0  0  0  0  0  0  0
    5.6591    0.9244    0.0000 C   0  0  0  0  0  0  0  0  0  0  0  0
    3.8751   -2.1240    0.0000 C   0  0  3  0  0  0  0  0  0  0  0  0
    4.7931    0.4244    0.0000 C   0  0  0  0  0  0  0  0  0  0  0  0
    7.4714   -0.8803    0.0000 C   0  0  0  0  0  0  0  0  0  0  0  0
    5.6752   -2.1171    0.0000 C   0  0  0  0  0  0  0  0  0  0  0  0
    8.0550   -0.0756    0.0000 C   0  0  0  0  0  0  0  0  0  0  0  0
    4.7771   -2.6449    0.0000 C   0  0  0  0  0  0  0  0  0  0  0  0
    2.9562   -0.5184    0.0000 C   0  0  0  0  0  0  0  0  0  0  0  0
    6.5251    1.4244    0.0000 C   0  0  0  0  0  0  0  0  0  0  0  0
    2.9396   -2.6738    0.0000 C   0  0  0  0  0  0  0  0  0  0  0  0
    3.8908   -0.0825    0.0000 C   0  0  0  0  0  0  0  0  0  0  0  0
    8.2814    1.3155    0.0000 C   0  0  3  0  0  0  0  0  0  0  0  0
    2.0084   -1.0463    0.0000 C   0  0  0  0  0  0  0  0  0  0  0  0
    2.0000   -2.1313    0.0000 C   0  0  0  0  0  0  0  0  0  0  0  0
    9.1942    0.9072    0.0000 C   0  0  0  0  0  0  0  0  0  0  0  0
    6.5908   -1.1921    0.0000 H   0  0  0  0  0  0  0  0  0  0  0  0
    6.1984   -1.3814    0.0000 H   0  0  0  0  0  0  0  0  0  0  0  0
    5.3300   -0.2656    0.0000 H   0  0  0  0  0  0  0  0  0  0  0  0
    6.0576    1.3993    0.0000 H   0  0  0  0  0  0  0  0  0  0  0  0
    5.2606    1.3993    0.0000 H   0  0  0  0  0  0  0  0  0  0  0  0
    3.8774   -2.7440    0.0000 H   0  0  0  0  0  0  0  0  0  0  0  0
    4.5810    1.0070    0.0000 H   0  0  0  0  0  0  0  0  0  0  0  0
    4.1825    0.3167    0.0000 H   0  0  0  0  0  0  0  0  0  0  0  0
    7.2203   -1.4472    0.0000 H   0  0  0  0  0  0  0  0  0  0  0  0
    8.0087   -1.1896    0.0000 H   0  0  0  0  0  0  0  0  0  0  0  0
    5.8932   -2.6975    0.0000 H   0  0  0  0  0  0  0  0  0  0  0  0
    6.2843   -2.0016    0.0000 H   0  0  0  0  0  0  0  0  0  0  0  0
    8.5158   -0.4903    0.0000 H   0  0  0  0  0  0  0  0  0  0  0  0
    8.5158    0.3391    0.0000 H   0  0  0  0  0  0  0  0  0  0  0  0
    4.3798   -3.1208    0.0000 H   0  0  0  0  0  0  0  0  0  0  0  0
    5.1781   -3.1178    0.0000 H   0  0  0  0  0  0  0  0  0  0  0  0
    3.3645   -0.0517    0.0000 H   0  0  0  0  0  0  0  0  0  0  0  0
    2.5663   -0.0363    0.0000 H   0  0  0  0  0  0  0  0  0  0  0  0
    7.1451    1.4244    0.0000 H   0  0  0  0  0  0  0  0  0  0  0  0
    6.5251    2.0444    0.0000 H   0  0  0  0  0  0  0  0  0  0  0  0
    5.9051    1.4244    0.0000 H   0  0  0  0  0  0  0  0  0  0  0  0
    2.5423   -3.1497    0.0000 H   0  0  0  0  0  0  0  0  0  0  0  0
    3.3406   -3.1467    0.0000 H   0  0  0  0  0  0  0  0  0  0  0  0
    4.5108   -0.0873    0.0000 H   0  0  0  0  0  0  0  0  0  0  0  0
    3.8956    0.5375    0.0000 H   0  0  0  0  0  0  0  0  0  0  0  0
    3.2708   -0.0777    0.0000 H   0  0  0  0  0  0  0  0  0  0  0  0
    8.7836    1.6791    0.0000 H   0  0  0  0  0  0  0  0  0  0  0  0
    1.8038   -0.4610    0.0000 H   0  0  0  0  0  0  0  0  0  0  0  0
    1.3967   -1.1477    0.0000 H   0  0  0  0  0  0  0  0  0  0  0  0
    1.3900   -2.0205    0.0000 H   0  0  0  0  0  0  0  0  0  0  0  0
    1.7864   -2.7133    0.0000 H   0  0  0  0  0  0  0  0  0  0  0  0
    7.5796    2.1408    0.0000 H   0  0  0  0  0  0  0  0  0  0  0  0
    8.8466    0.3938    0.0000 H   0  0  0  0  0  0  0  0  0  0  0  0
    9.6395    0.4757    0.0000 H   0  0  0  0  0  0  0  0  0  0  0  0
    8.6808    2.6738    0.0000 H   0  0  0  0  0  0  0  0  0  0  0  0
   10.5702    1.2404    0.0000 H   0  0  0  0  0  0  0  0  0  0  0  0
  1  9  1  0  0  0  0
  1 56  1  0  0  0  0
  2 21  1  0  0  0  0
  2 59  1  0  0  0  0
  3 24  1  0  0  0  0
  3 60  1  0  0  0  0
  4  5  1  0  0  0  0
  4  6  1  0  0  0  0
  4 13  1  0  0  0  0
  4 25  1  0  0  0  0
  5  9  1  0  0  0  0
  5 10  1  0  0  0  0
  5 18  1  0  0  0  0
  6  7  1  0  0  0  0
  6 14  1  0  0  0  0
  6 26  1  0  0  0  0
  7  8  1  0  0  0  0
  7 12  1  0  0  0  0
  7 27  1  0  0  0  0
  8 11  1  0  0  0  0
  8 17  1  0  0  0  0
  8 20  1  0  0  0  0
  9 15  1  0  0  0  0
  9 21  1  0  0  0  0
 10 12  1  0  0  0  0
 10 28  1  0  0  0  0
 10 29  1  0  0  0  0
 11 16  1  0  0  0  0
 11 19  1  0  0  0  0
 11 30  1  0  0  0  0
 12 31  1  0  0  0  0
 12 32  1  0  0  0  0
 13 15  1  0  0  0  0
 13 33  1  0  0  0  0
 13 34  1  0  0  0  0
 14 16  1  0  0  0  0
 14 35  1  0  0  0  0
 14 36  1  0  0  0  0
 15 37  1  0  0  0  0
 15 38  1  0  0  0  0
 16 39  1  0  0  0  0
 16 40  1  0  0  0  0
 17 22  1  0  0  0  0
 17 41  1  0  0  0  0
 17 42  1  0  0  0  0
 18 43  1  0  0  0  0
 18 44  1  0  0  0  0
 18 45  1  0  0  0  0
 19 23  1  0  0  0  0
 19 46  1  0  0  0  0
 19 47  1  0  0  0  0
 20 48  1  0  0  0  0
 20 49  1  0  0  0  0
 20 50  1  0  0  0  0
 21 24  1  0  0  0  0
 21 51  1  0  0  0  0
 22 23  1  0  0  0  0
 22 52  1  0  0  0  0
 22 53  1  0  0  0  0
 23 54  1  0  0  0  0
 23 55  1  0  0  0  0
 24 57  1  0  0  0  0
 24 58  1  0  0  0  0
M  END
> <PUBCHEM_COMPOUND_CID>
525077
> <PUBCHEM_COMPOUND_CANONICALIZED>
1
> <PUBCHEM_CACTVS_COMPLEXITY>
494
> <PUBCHEM_CACTVS_HBOND_ACCEPTOR>
3
> <PUBCHEM_CACTVS_HBOND_DONOR>
3
> <PUBCHEM_CACTVS_ROTATABLE_BOND>
2
> <PUBCHEM_CACTVS_SUBSKEYS>
AAADcfB4MAAAAAAAAAAAAAAAAAAAAYAAAAAwYMAAAAAAAGDAAAAAGgAACAAAD1SggAICAAAAAgAAAAAAAAAAAAAAAAAAAAAAAAABEAIAAAAAQAAFAAABAAGAwPAPgAAAAAAAAACAAAQAACAAAYAADAAAAA==
> <PUBCHEM_IUPAC_OPENEYE_NAME>
1-(17-hydroxy-10,13-dimethyl-1,2,3,4,5,6,7,8,9,11,12,14,15,16-tetradecahydrocyclopenta[a]phenanthren-17-yl)ethane-1,2-diol
> <PUBCHEM_IUPAC_CAS_NAME>
1-(17-hydroxy-10,13-dimethyl-1,2,3,4,5,6,7,8,9,11,12,14,15,16-tetradecahydrocyclopenta[a]phenanthren-17-yl)ethane-1,2-diol
> <PUBCHEM_IUPAC_NAME_MARKUP>
1-(17-hydroxy-10,13-dimethyl-1,2,3,4,5,6,7,8,9,11,12,14,15,16-tetradecahydrocyclopenta[a]phenanthren-17-yl)ethane-1,2-diol
> <PUBCHEM_IUPAC_NAME>
1-(17-hydroxy-10,13-dimethyl-1,2,3,4,5,6,7,8,9,11,12,14,15,16-tetradecahydrocyclopenta[a]phenanthren-17-yl)ethane-1,2-diol
> <PUBCHEM_IUPAC_SYSTEMATIC_NAME>
1-(10,13-dimethyl-17-oxidanyl-1,2,3,4,5,6,7,8,9,11,12,14,15,16-tetradecahydrocyclopenta[a]phenanthren-17-yl)ethane-1,2-diol
> <PUBCHEM_IUPAC_TRADITIONAL_NAME>
1-(17-hydroxy-10,13-dimethyl-1,2,3,4,5,6,7,8,9,11,12,14,15,16-tetradecahydrocyclopenta[a]phenanthren-17-yl)ethane-1,2-diol
> <PUBCHEM_IUPAC_INCHI>
InChI=1S/C21H36O3/c1-19-10-4-3-5-14(19)6-7-15-16(19)8-11-20(2)17(15)9-12-21(20,24)18(23)13-22/h14-18,22-24H,3-13H2,1-2H3
> <PUBCHEM_IUPAC_INCHIKEY>
POBOSGNSIHOBLX-UHFFFAOYSA-N
> <PUBCHEM_XLOGP3_AA>
5
> <PUBCHEM_EXACT_MASS>
336.26644501
> <PUBCHEM_MOLECULAR_FORMULA>
C21H36O3
> <PUBCHEM_MOLECULAR_WEIGHT>
336.5
> <PUBCHEM_OPENEYE_CAN_SMILES>
CC12CCCCC1CCC3C2CCC4(C3CCC4(C(CO)O)O)C
> <PUBCHEM_OPENEYE_ISO_SMILES>
CC12CCCCC1CCC3C2CCC4(C3CCC4(C(CO)O)O)C
> <PUBCHEM_CACTVS_TPSA>
60.7
> <PUBCHEM_MONOISOTOPIC_WEIGHT>
336.26644501
> <PUBCHEM_TOTAL_CHARGE>
0
> <PUBCHEM_HEAVY_ATOM_COUNT>
24
> <PUBCHEM_ATOM_DEF_STEREO_COUNT>
0
> <PUBCHEM_ATOM_UDEF_STEREO_COUNT>
8
> <PUBCHEM_BOND_DEF_STEREO_COUNT>
0
> <PUBCHEM_BOND_UDEF_STEREO_COUNT>
0
> <PUBCHEM_ISOTOPIC_ATOM_COUNT>
0
> <PUBCHEM_COMPONENT_COUNT>
1
> <PUBCHEM_CACTVS_TAUTO_COUNT>
-1
> <PUBCHEM_COORDINATE_TYPE>
1
5
255
> <PUBCHEM_BONDANNOTATIONS>
9  1  3
11  19  3
21  2  3
4  13  3
5  18  3
6  14  3
7  12  3
8  20  3
$$$$
