525053
  -OEChem-10302200292D
 34 33  0     1  0  0  0  0  0999 V2000
    3.7320    0.4400    0.0000 N   0  0  0  0  0  0  0  0  0  0  0  0
    5.4641    0.4400    0.0000 C   0  0  0  0  0  0  0  0  0  0  0  0
    4.5981   -0.0600    0.0000 C   0  0  3  0  0  0  0  0  0  0  0  0
    6.3301   -0.0600    0.0000 C   0  0  0  0  0  0  0  0  0  0  0  0
    7.1962    0.4400    0.0000 C   0  0  0  0  0  0  0  0  0  0  0  0
    8.0622   -0.0600    0.0000 C   0  0  0  0  0  0  0  0  0  0  0  0
    4.5981   -1.0600    0.0000 C   0  0  0  0  0  0  0  0  0  0  0  0
    8.9282    0.4400    0.0000 C   0  0  0  0  0  0  0  0  0  0  0  0
    2.8660   -0.0600    0.0000 C   0  0  0  0  0  0  0  0  0  0  0  0
    9.7942   -0.0600    0.0000 C   0  0  0  0  0  0  0  0  0  0  0  0
    2.0000    0.4400    0.0000 C   0  0  0  0  0  0  0  0  0  0  0  0
    5.8626    0.9149    0.0000 H   0  0  0  0  0  0  0  0  0  0  0  0
    5.0656    0.9149    0.0000 H   0  0  0  0  0  0  0  0  0  0  0  0
    4.5981    0.5600    0.0000 H   0  0  0  0  0  0  0  0  0  0  0  0
    5.9316   -0.5349    0.0000 H   0  0  0  0  0  0  0  0  0  0  0  0
    6.7287   -0.5349    0.0000 H   0  0  0  0  0  0  0  0  0  0  0  0
    7.5947    0.9149    0.0000 H   0  0  0  0  0  0  0  0  0  0  0  0
    6.7976    0.9149    0.0000 H   0  0  0  0  0  0  0  0  0  0  0  0
    7.6636   -0.5349    0.0000 H   0  0  0  0  0  0  0  0  0  0  0  0
    8.4607   -0.5349    0.0000 H   0  0  0  0  0  0  0  0  0  0  0  0
    3.7320    1.0600    0.0000 H   0  0  0  0  0  0  0  0  0  0  0  0
    3.9781   -1.0600    0.0000 H   0  0  0  0  0  0  0  0  0  0  0  0
    4.5981   -1.6800    0.0000 H   0  0  0  0  0  0  0  0  0  0  0  0
    5.2181   -1.0600    0.0000 H   0  0  0  0  0  0  0  0  0  0  0  0
    9.3267    0.9149    0.0000 H   0  0  0  0  0  0  0  0  0  0  0  0
    8.5297    0.9149    0.0000 H   0  0  0  0  0  0  0  0  0  0  0  0
    2.4675   -0.5349    0.0000 H   0  0  0  0  0  0  0  0  0  0  0  0
    3.2646   -0.5349    0.0000 H   0  0  0  0  0  0  0  0  0  0  0  0
    9.4842   -0.5969    0.0000 H   0  0  0  0  0  0  0  0  0  0  0  0
   10.3312   -0.3700    0.0000 H   0  0  0  0  0  0  0  0  0  0  0  0
   10.1042    0.4769    0.0000 H   0  0  0  0  0  0  0  0  0  0  0  0
    2.3100    0.9769    0.0000 H   0  0  0  0  0  0  0  0  0  0  0  0
    1.4631    0.7500    0.0000 H   0  0  0  0  0  0  0  0  0  0  0  0
    1.6900   -0.0969    0.0000 H   0  0  0  0  0  0  0  0  0  0  0  0
  1  3  1  0  0  0  0
  1  9  1  0  0  0  0
  1 21  1  0  0  0  0
  2  3  1  0  0  0  0
  2  4  1  0  0  0  0
  2 12  1  0  0  0  0
  2 13  1  0  0  0  0
  3  7  1  0  0  0  0
  3 14  1  0  0  0  0
  4  5  1  0  0  0  0
  4 15  1  0  0  0  0
  4 16  1  0  0  0  0
  5  6  1  0  0  0  0
  5 17  1  0  0  0  0
  5 18  1  0  0  0  0
  6  8  1  0  0  0  0
  6 19  1  0  0  0  0
  6 20  1  0  0  0  0
  7 22  1  0  0  0  0
  7 23  1  0  0  0  0
  7 24  1  0  0  0  0
  8 10  1  0  0  0  0
  8 25  1  0  0  0  0
  8 26  1  0  0  0  0
  9 11  1  0  0  0  0
  9 27  1  0  0  0  0
  9 28  1  0  0  0  0
 10 29  1  0  0  0  0
 10 30  1  0  0  0  0
 10 31  1  0  0  0  0
 11 32  1  0  0  0  0
 11 33  1  0  0  0  0
 11 34  1  0  0  0  0
M  END
> <PUBCHEM_COMPOUND_CID>
525053
> <PUBCHEM_COMPOUND_CANONICALIZED>
1
> <PUBCHEM_CACTVS_COMPLEXITY>
71.3
> <PUBCHEM_CACTVS_HBOND_ACCEPTOR>
1
> <PUBCHEM_CACTVS_HBOND_DONOR>
1
> <PUBCHEM_CACTVS_ROTATABLE_BOND>
7
> <PUBCHEM_CACTVS_SUBSKEYS>
AAADceByAAAAAAAAAAAAAAAAAAAAAAAAAAAAAAAAAAAAAAAAAAAAHAAQAAAACCjBAAQCAALAAAAAAAAAAAAAAAAAAAAAAIAIAAAAAAIAgAAEAAAAEACAAAEQgIAAAAAAAAAAAAAAAAAAAAAAAAAAAAAAAA==
> <PUBCHEM_IUPAC_OPENEYE_NAME>
N-ethyloctan-2-amine
> <PUBCHEM_IUPAC_CAS_NAME>
N-ethyl-2-octanamine
> <PUBCHEM_IUPAC_NAME_MARKUP>
<I>N</I>-ethyloctan-2-amine
> <PUBCHEM_IUPAC_NAME>
N-ethyloctan-2-amine
> <PUBCHEM_IUPAC_SYSTEMATIC_NAME>
N-ethyloctan-2-amine
> <PUBCHEM_IUPAC_TRADITIONAL_NAME>
ethyl(1-methylheptyl)amine
> <PUBCHEM_IUPAC_INCHI>
InChI=1S/C10H23N/c1-4-6-7-8-9-10(3)11-5-2/h10-11H,4-9H2,1-3H3
> <PUBCHEM_IUPAC_INCHIKEY>
WYBGTPJUVROXQB-UHFFFAOYSA-N
> <PUBCHEM_XLOGP3_AA>
3.5
> <PUBCHEM_EXACT_MASS>
157.183049738
> <PUBCHEM_MOLECULAR_FORMULA>
C10H23N
> <PUBCHEM_MOLECULAR_WEIGHT>
157.30
> <PUBCHEM_OPENEYE_CAN_SMILES>
CCCCCCC(C)NCC
> <PUBCHEM_OPENEYE_ISO_SMILES>
CCCCCCC(C)NCC
> <PUBCHEM_CACTVS_TPSA>
12
> <PUBCHEM_MONOISOTOPIC_WEIGHT>
157.183049738
> <PUBCHEM_TOTAL_CHARGE>
0
> <PUBCHEM_HEAVY_ATOM_COUNT>
11
> <PUBCHEM_ATOM_DEF_STEREO_COUNT>
0
> <PUBCHEM_ATOM_UDEF_STEREO_COUNT>
1
> <PUBCHEM_BOND_DEF_STEREO_COUNT>
0
> <PUBCHEM_BOND_UDEF_STEREO_COUNT>
0
> <PUBCHEM_ISOTOPIC_ATOM_COUNT>
0
> <PUBCHEM_COMPONENT_COUNT>
1
> <PUBCHEM_CACTVS_TAUTO_COUNT>
-1
> <PUBCHEM_COORDINATE_TYPE>
1
5
255
> <PUBCHEM_BONDANNOTATIONS>
3  7  3
$$$$
