525058
  -OEChem-10302200292D
 81 84  0     1  0  0  0  0  0999 V2000
    6.5232    1.9565    0.0000 Si  0  0  0  0  0  0  0  0  0  0  0  0
    2.8641   -2.0924    0.0000 Si  0  0  0  0  0  0  0  0  0  0  0  0
    6.5232    0.9565    0.0000 O   0  0  0  0  0  0  0  0  0  0  0  0
    3.7282   -2.5958    0.0000 O   0  0  0  0  0  0  0  0  0  0  0  0
   11.3567    1.9180    0.0000 O   0  0  0  0  0  0  0  0  0  0  0  0
   10.3781    1.7118    0.0000 N   0  0  0  0  0  0  0  0  0  0  0  0
    7.3892   -0.5435    0.0000 C   0  0  3  0  0  0  0  0  0  0  0  0
    8.2552   -1.0435    0.0000 C   0  0  3  0  0  0  0  0  0  0  0  0
    6.4792   -1.0503    0.0000 C   0  0  3  0  0  0  0  0  0  0  0  0
    9.1213   -0.5435    0.0000 C   0  0  3  0  0  0  0  0  0  0  0  0
    9.1213    0.4565    0.0000 C   0  0  3  0  0  0  0  0  0  0  0  0
    6.4712   -2.0919    0.0000 C   0  0  3  0  0  0  0  0  0  0  0  0
    7.3892    0.4565    0.0000 C   0  0  3  0  0  0  0  0  0  0  0  0
    8.2713   -2.0850    0.0000 C   0  0  0  0  0  0  0  0  0  0  0  0
    8.2552    0.9565    0.0000 C   0  0  0  0  0  0  0  0  0  0  0  0
    7.3733   -2.6127    0.0000 C   0  0  0  0  0  0  0  0  0  0  0  0
    5.5524   -0.4862    0.0000 C   0  0  0  0  0  0  0  0  0  0  0  0
   10.0675   -0.8482    0.0000 C   0  0  0  0  0  0  0  0  0  0  0  0
    5.5358   -2.6416    0.0000 C   0  0  0  0  0  0  0  0  0  0  0  0
   10.0675    0.7613    0.0000 C   0  0  0  0  0  0  0  0  0  0  0  0
    6.4869   -0.0503    0.0000 C   0  0  0  0  0  0  0  0  0  0  0  0
   10.6511   -0.0435    0.0000 C   0  0  0  0  0  0  0  0  0  0  0  0
    4.6045   -1.0142    0.0000 C   0  0  0  0  0  0  0  0  0  0  0  0
    4.5961   -2.0991    0.0000 C   0  0  3  0  0  0  0  0  0  0  0  0
    9.1213    1.4565    0.0000 C   0  0  0  0  0  0  0  0  0  0  0  0
    6.5232    2.9565    0.0000 C   0  0  0  0  0  0  0  0  0  0  0  0
    5.5232    1.9565    0.0000 C   0  0  0  0  0  0  0  0  0  0  0  0
    7.5232    1.9565    0.0000 C   0  0  0  0  0  0  0  0  0  0  0  0
    2.0000   -1.5891    0.0000 C   0  0  0  0  0  0  0  0  0  0  0  0
    2.3608   -2.9565    0.0000 C   0  0  0  0  0  0  0  0  0  0  0  0
    3.3674   -1.2284    0.0000 C   0  0  0  0  0  0  0  0  0  0  0  0
   11.6673    2.8685    0.0000 C   0  0  0  0  0  0  0  0  0  0  0  0
    7.9262   -0.2335    0.0000 H   0  0  0  0  0  0  0  0  0  0  0  0
    8.7945   -1.3493    0.0000 H   0  0  0  0  0  0  0  0  0  0  0  0
    9.1869   -1.1600    0.0000 H   0  0  0  0  0  0  0  0  0  0  0  0
    6.4736   -2.7119    0.0000 H   0  0  0  0  0  0  0  0  0  0  0  0
    7.3892    1.0765    0.0000 H   0  0  0  0  0  0  0  0  0  0  0  0
    8.4893   -2.6654    0.0000 H   0  0  0  0  0  0  0  0  0  0  0  0
    8.8804   -1.9695    0.0000 H   0  0  0  0  0  0  0  0  0  0  0  0
    8.6538    1.4315    0.0000 H   0  0  0  0  0  0  0  0  0  0  0  0
    7.8567    1.4315    0.0000 H   0  0  0  0  0  0  0  0  0  0  0  0
    6.9760   -3.0887    0.0000 H   0  0  0  0  0  0  0  0  0  0  0  0
    7.7742   -3.0856    0.0000 H   0  0  0  0  0  0  0  0  0  0  0  0
    5.9606   -0.0196    0.0000 H   0  0  0  0  0  0  0  0  0  0  0  0
    5.1625   -0.0042    0.0000 H   0  0  0  0  0  0  0  0  0  0  0  0
    9.8164   -1.4151    0.0000 H   0  0  0  0  0  0  0  0  0  0  0  0
   10.6049   -1.1574    0.0000 H   0  0  0  0  0  0  0  0  0  0  0  0
    5.1385   -3.1176    0.0000 H   0  0  0  0  0  0  0  0  0  0  0  0
    5.9367   -3.1145    0.0000 H   0  0  0  0  0  0  0  0  0  0  0  0
    7.1069   -0.0551    0.0000 H   0  0  0  0  0  0  0  0  0  0  0  0
    6.4917    0.5696    0.0000 H   0  0  0  0  0  0  0  0  0  0  0  0
    5.8669   -0.0456    0.0000 H   0  0  0  0  0  0  0  0  0  0  0  0
   11.1120   -0.4582    0.0000 H   0  0  0  0  0  0  0  0  0  0  0  0
   11.1120    0.3713    0.0000 H   0  0  0  0  0  0  0  0  0  0  0  0
    4.3999   -0.4289    0.0000 H   0  0  0  0  0  0  0  0  0  0  0  0
    3.9928   -1.1156    0.0000 H   0  0  0  0  0  0  0  0  0  0  0  0
    4.5949   -2.7191    0.0000 H   0  0  0  0  0  0  0  0  0  0  0  0
    9.7413    1.4565    0.0000 H   0  0  0  0  0  0  0  0  0  0  0  0
    9.1213    2.0765    0.0000 H   0  0  0  0  0  0  0  0  0  0  0  0
    8.5013    1.4565    0.0000 H   0  0  0  0  0  0  0  0  0  0  0  0
    7.1432    2.9565    0.0000 H   0  0  0  0  0  0  0  0  0  0  0  0
    6.5232    3.5765    0.0000 H   0  0  0  0  0  0  0  0  0  0  0  0
    5.9032    2.9565    0.0000 H   0  0  0  0  0  0  0  0  0  0  0  0
    5.5232    2.5765    0.0000 H   0  0  0  0  0  0  0  0  0  0  0  0
    4.9032    1.9565    0.0000 H   0  0  0  0  0  0  0  0  0  0  0  0
    5.5232    1.3365    0.0000 H   0  0  0  0  0  0  0  0  0  0  0  0
    7.5232    1.3365    0.0000 H   0  0  0  0  0  0  0  0  0  0  0  0
    8.1432    1.9565    0.0000 H   0  0  0  0  0  0  0  0  0  0  0  0
    7.5232    2.5765    0.0000 H   0  0  0  0  0  0  0  0  0  0  0  0
    2.3121   -1.0534    0.0000 H   0  0  0  0  0  0  0  0  0  0  0  0
    1.4643   -1.2770    0.0000 H   0  0  0  0  0  0  0  0  0  0  0  0
    1.6879   -2.1249    0.0000 H   0  0  0  0  0  0  0  0  0  0  0  0
    1.8250   -2.6445    0.0000 H   0  0  0  0  0  0  0  0  0  0  0  0
    2.0487   -3.4923    0.0000 H   0  0  0  0  0  0  0  0  0  0  0  0
    2.8965   -3.2686    0.0000 H   0  0  0  0  0  0  0  0  0  0  0  0
    3.9032   -1.5404    0.0000 H   0  0  0  0  0  0  0  0  0  0  0  0
    3.6795   -0.6926    0.0000 H   0  0  0  0  0  0  0  0  0  0  0  0
    2.8317   -0.9163    0.0000 H   0  0  0  0  0  0  0  0  0  0  0  0
   12.2566    2.6759    0.0000 H   0  0  0  0  0  0  0  0  0  0  0  0
   11.8599    3.4579    0.0000 H   0  0  0  0  0  0  0  0  0  0  0  0
   11.0780    3.0612    0.0000 H   0  0  0  0  0  0  0  0  0  0  0  0
  1  3  1  0  0  0  0
  1 26  1  0  0  0  0
  1 27  1  0  0  0  0
  1 28  1  0  0  0  0
  2  4  1  0  0  0  0
  2 29  1  0  0  0  0
  2 30  1  0  0  0  0
  2 31  1  0  0  0  0
  3 13  1  0  0  0  0
  4 24  1  0  0  0  0
  5  6  1  0  0  0  0
  5 32  1  0  0  0  0
  6 20  2  3  0  0  0
  7  8  1  0  0  0  0
  7  9  1  0  0  0  0
  7 13  1  0  0  0  0
  7 33  1  0  0  0  0
  8 10  1  0  0  0  0
  8 14  1  0  0  0  0
  8 34  1  0  0  0  0
  9 12  1  0  0  0  0
  9 17  1  0  0  0  0
  9 21  1  0  0  0  0
 10 11  1  0  0  0  0
 10 18  1  0  0  0  0
 10 35  1  0  0  0  0
 11 15  1  0  0  0  0
 11 20  1  0  0  0  0
 11 25  1  0  0  0  0
 12 16  1  0  0  0  0
 12 19  1  0  0  0  0
 12 36  1  0  0  0  0
 13 15  1  0  0  0  0
 13 37  1  0  0  0  0
 14 16  1  0  0  0  0
 14 38  1  0  0  0  0
 14 39  1  0  0  0  0
 15 40  1  0  0  0  0
 15 41  1  0  0  0  0
 16 42  1  0  0  0  0
 16 43  1  0  0  0  0
 17 23  1  0  0  0  0
 17 44  1  0  0  0  0
 17 45  1  0  0  0  0
 18 22  1  0  0  0  0
 18 46  1  0  0  0  0
 18 47  1  0  0  0  0
 19 24  1  0  0  0  0
 19 48  1  0  0  0  0
 19 49  1  0  0  0  0
 20 22  1  0  0  0  0
 21 50  1  0  0  0  0
 21 51  1  0  0  0  0
 21 52  1  0  0  0  0
 22 53  1  0  0  0  0
 22 54  1  0  0  0  0
 23 24  1  0  0  0  0
 23 55  1  0  0  0  0
 23 56  1  0  0  0  0
 24 57  1  0  0  0  0
 25 58  1  0  0  0  0
 25 59  1  0  0  0  0
 25 60  1  0  0  0  0
 26 61  1  0  0  0  0
 26 62  1  0  0  0  0
 26 63  1  0  0  0  0
 27 64  1  0  0  0  0
 27 65  1  0  0  0  0
 27 66  1  0  0  0  0
 28 67  1  0  0  0  0
 28 68  1  0  0  0  0
 28 69  1  0  0  0  0
 29 70  1  0  0  0  0
 29 71  1  0  0  0  0
 29 72  1  0  0  0  0
 30 73  1  0  0  0  0
 30 74  1  0  0  0  0
 30 75  1  0  0  0  0
 31 76  1  0  0  0  0
 31 77  1  0  0  0  0
 31 78  1  0  0  0  0
 32 79  1  0  0  0  0
 32 80  1  0  0  0  0
 32 81  1  0  0  0  0
M  END
> <PUBCHEM_COMPOUND_CID>
525058
> <PUBCHEM_COMPOUND_CANONICALIZED>
1
> <PUBCHEM_CACTVS_COMPLEXITY>
730
> <PUBCHEM_CACTVS_HBOND_ACCEPTOR>
4
> <PUBCHEM_CACTVS_HBOND_DONOR>
0
> <PUBCHEM_CACTVS_ROTATABLE_BOND>
5
> <PUBCHEM_CACTVS_SUBSKEYS>
AAADcfB6MAwAAAAAAAAAAAAAAAAAAYAAAAAwYMAAAAAAAGDAAAAAHhAEAEAADxyhgAJCAAAQAAEgAQAgAAAAAAAAAAAAAAAwAAAAAAIAAAAAAAAEAAAAAAGAwPAPgAAAAAAAAADAAAYAADAAAAAACAAAAA==
> <PUBCHEM_IUPAC_OPENEYE_NAME>
N-methoxy-10,13-dimethyl-3,11-bis(trimethylsilyloxy)-1,2,3,4,5,6,7,8,9,11,12,14,15,16-tetradecahydrocyclopenta[a]phenanthren-17-imine
> <PUBCHEM_IUPAC_CAS_NAME>
N-methoxy-10,13-dimethyl-3,11-bis(trimethylsilyloxy)-1,2,3,4,5,6,7,8,9,11,12,14,15,16-tetradecahydrocyclopenta[a]phenanthren-17-imine
> <PUBCHEM_IUPAC_NAME_MARKUP>
<I>N</I>-methoxy-10,13-dimethyl-3,11-bis(trimethylsilyloxy)-1,2,3,4,5,6,7,8,9,11,12,14,15,16-tetradecahydrocyclopenta[a]phenanthren-17-imine
> <PUBCHEM_IUPAC_NAME>
N-methoxy-10,13-dimethyl-3,11-bis(trimethylsilyloxy)-1,2,3,4,5,6,7,8,9,11,12,14,15,16-tetradecahydrocyclopenta[a]phenanthren-17-imine
> <PUBCHEM_IUPAC_SYSTEMATIC_NAME>
N-methoxy-10,13-dimethyl-3,11-bis(trimethylsilyloxy)-1,2,3,4,5,6,7,8,9,11,12,14,15,16-tetradecahydrocyclopenta[a]phenanthren-17-imine
> <PUBCHEM_IUPAC_TRADITIONAL_NAME>
[10,13-dimethyl-3,11-bis(trimethylsilyloxy)-1,2,3,4,5,6,7,8,9,11,12,14,15,16-tetradecahydrocyclopenta[a]phenanthren-17-ylidene]-methoxy-amine
> <PUBCHEM_IUPAC_INCHI>
InChI=1S/C26H49NO3Si2/c1-25-15-14-19(29-31(4,5)6)16-18(25)10-11-20-21-12-13-23(27-28-3)26(21,2)17-22(24(20)25)30-32(7,8)9/h18-22,24H,10-17H2,1-9H3
> <PUBCHEM_IUPAC_INCHIKEY>
XCNGMXKDGCALRD-UHFFFAOYSA-N
> <PUBCHEM_EXACT_MASS>
479.32509749
> <PUBCHEM_MOLECULAR_FORMULA>
C26H49NO3Si2
> <PUBCHEM_MOLECULAR_WEIGHT>
479.8
> <PUBCHEM_OPENEYE_CAN_SMILES>
CC12CCC(CC1CCC3C2C(CC4(C3CCC4=NOC)C)O[Si](C)(C)C)O[Si](C)(C)C
> <PUBCHEM_OPENEYE_ISO_SMILES>
CC12CCC(CC1CCC3C2C(CC4(C3CCC4=NOC)C)O[Si](C)(C)C)O[Si](C)(C)C
> <PUBCHEM_CACTVS_TPSA>
40
> <PUBCHEM_MONOISOTOPIC_WEIGHT>
479.32509749
> <PUBCHEM_TOTAL_CHARGE>
0
> <PUBCHEM_HEAVY_ATOM_COUNT>
32
> <PUBCHEM_ATOM_DEF_STEREO_COUNT>
0
> <PUBCHEM_ATOM_UDEF_STEREO_COUNT>
8
> <PUBCHEM_BOND_DEF_STEREO_COUNT>
0
> <PUBCHEM_BOND_UDEF_STEREO_COUNT>
1
> <PUBCHEM_ISOTOPIC_ATOM_COUNT>
0
> <PUBCHEM_COMPONENT_COUNT>
1
> <PUBCHEM_CACTVS_TAUTO_COUNT>
-1
> <PUBCHEM_COORDINATE_TYPE>
1
5
255
> <PUBCHEM_BONDANNOTATIONS>
10  18  3
11  25  3
12  16  3
13  3  3
24  4  3
6  20  1
7  13  3
8  14  3
9  21  3
$$$$
