525177
  -OEChem-10302200292D
 95 94  0     1  0  0  0  0  0999 V2000
   14.1244    0.2500    0.0000 O   0  0  0  0  0  0  0  0  0  0  0  0
   11.5263   -0.2500    0.0000 O   0  0  0  0  0  0  0  0  0  0  0  0
   16.7224   -0.2500    0.0000 O   0  0  0  0  0  0  0  0  0  0  0  0
    8.9282    0.2500    0.0000 O   0  0  0  0  0  0  0  0  0  0  0  0
   19.3205    0.2500    0.0000 O   0  0  0  0  0  0  0  0  0  0  0  0
    6.3301   -0.2500    0.0000 O   0  0  0  0  0  0  0  0  0  0  0  0
   21.9186   -0.2500    0.0000 O   0  0  0  0  0  0  0  0  0  0  0  0
    3.7320    0.2500    0.0000 O   0  0  0  0  0  0  0  0  0  0  0  0
   24.5167    0.2500    0.0000 O   0  0  0  0  0  0  0  0  0  0  0  0
    2.8660   -1.2500    0.0000 O   0  0  0  0  0  0  0  0  0  0  0  0
   14.9904   -0.2500    0.0000 C   0  0  3  0  0  0  0  0  0  0  0  0
   12.3923    0.2500    0.0000 C   0  0  3  0  0  0  0  0  0  0  0  0
   17.5885    0.2500    0.0000 C   0  0  3  0  0  0  0  0  0  0  0  0
    9.7942   -0.2500    0.0000 C   0  0  3  0  0  0  0  0  0  0  0  0
   13.2583   -0.2500    0.0000 C   0  0  0  0  0  0  0  0  0  0  0  0
   15.8564    0.2500    0.0000 C   0  0  0  0  0  0  0  0  0  0  0  0
   10.6603    0.2500    0.0000 C   0  0  0  0  0  0  0  0  0  0  0  0
   18.4545   -0.2500    0.0000 C   0  0  0  0  0  0  0  0  0  0  0  0
   20.1865   -0.2500    0.0000 C   0  0  3  0  0  0  0  0  0  0  0  0
    7.1962    0.2500    0.0000 C   0  0  3  0  0  0  0  0  0  0  0  0
    8.0622   -0.2500    0.0000 C   0  0  0  0  0  0  0  0  0  0  0  0
   21.0526    0.2500    0.0000 C   0  0  0  0  0  0  0  0  0  0  0  0
   14.9904   -1.2500    0.0000 C   0  0  0  0  0  0  0  0  0  0  0  0
   12.3923    1.2500    0.0000 C   0  0  0  0  0  0  0  0  0  0  0  0
   17.5885    1.2500    0.0000 C   0  0  0  0  0  0  0  0  0  0  0  0
    9.7942   -1.2500    0.0000 C   0  0  0  0  0  0  0  0  0  0  0  0
   22.7846    0.2500    0.0000 C   0  0  3  0  0  0  0  0  0  0  0  0
   20.1865   -1.2500    0.0000 C   0  0  0  0  0  0  0  0  0  0  0  0
    7.1962    1.2500    0.0000 C   0  0  0  0  0  0  0  0  0  0  0  0
    5.4641    0.2500    0.0000 C   0  0  0  0  0  0  0  0  0  0  0  0
    4.5981   -0.2500    0.0000 C   0  0  3  0  0  0  0  0  0  0  0  0
   23.6506   -0.2500    0.0000 C   0  0  0  0  0  0  0  0  0  0  0  0
   22.7846    1.2500    0.0000 C   0  0  0  0  0  0  0  0  0  0  0  0
    4.5981   -1.2500    0.0000 C   0  0  0  0  0  0  0  0  0  0  0  0
   25.3827   -0.2500    0.0000 C   0  0  0  0  0  0  0  0  0  0  0  0
    2.8660   -0.2500    0.0000 C   0  0  0  0  0  0  0  0  0  0  0  0
   26.2487    0.2500    0.0000 C   0  0  0  0  0  0  0  0  0  0  0  0
    2.0000    0.2500    0.0000 C   0  0  0  0  0  0  0  0  0  0  0  0
   27.1147   -0.2500    0.0000 C   0  0  0  0  0  0  0  0  0  0  0  0
   14.9904    0.3700    0.0000 H   0  0  0  0  0  0  0  0  0  0  0  0
   11.8554    0.5600    0.0000 H   0  0  0  0  0  0  0  0  0  0  0  0
   17.5885   -0.3700    0.0000 H   0  0  0  0  0  0  0  0  0  0  0  0
    9.2573   -0.5600    0.0000 H   0  0  0  0  0  0  0  0  0  0  0  0
   12.8598   -0.7249    0.0000 H   0  0  0  0  0  0  0  0  0  0  0  0
   13.6569   -0.7249    0.0000 H   0  0  0  0  0  0  0  0  0  0  0  0
   16.2549    0.7249    0.0000 H   0  0  0  0  0  0  0  0  0  0  0  0
   15.4579    0.7249    0.0000 H   0  0  0  0  0  0  0  0  0  0  0  0
   11.0588    0.7249    0.0000 H   0  0  0  0  0  0  0  0  0  0  0  0
   10.2617    0.7249    0.0000 H   0  0  0  0  0  0  0  0  0  0  0  0
   18.0560   -0.7249    0.0000 H   0  0  0  0  0  0  0  0  0  0  0  0
   18.8530   -0.7249    0.0000 H   0  0  0  0  0  0  0  0  0  0  0  0
   19.6496   -0.5600    0.0000 H   0  0  0  0  0  0  0  0  0  0  0  0
    6.6592    0.5600    0.0000 H   0  0  0  0  0  0  0  0  0  0  0  0
    7.6636   -0.7249    0.0000 H   0  0  0  0  0  0  0  0  0  0  0  0
    8.4607   -0.7249    0.0000 H   0  0  0  0  0  0  0  0  0  0  0  0
   21.4511    0.7249    0.0000 H   0  0  0  0  0  0  0  0  0  0  0  0
   20.6540    0.7249    0.0000 H   0  0  0  0  0  0  0  0  0  0  0  0
   14.3704   -1.2500    0.0000 H   0  0  0  0  0  0  0  0  0  0  0  0
   14.9904   -1.8700    0.0000 H   0  0  0  0  0  0  0  0  0  0  0  0
   15.6104   -1.2500    0.0000 H   0  0  0  0  0  0  0  0  0  0  0  0
   13.0123    1.2500    0.0000 H   0  0  0  0  0  0  0  0  0  0  0  0
   12.3923    1.8700    0.0000 H   0  0  0  0  0  0  0  0  0  0  0  0
   11.7723    1.2500    0.0000 H   0  0  0  0  0  0  0  0  0  0  0  0
   18.2085    1.2500    0.0000 H   0  0  0  0  0  0  0  0  0  0  0  0
   17.5885    1.8700    0.0000 H   0  0  0  0  0  0  0  0  0  0  0  0
   16.9685    1.2500    0.0000 H   0  0  0  0  0  0  0  0  0  0  0  0
    9.1742   -1.2500    0.0000 H   0  0  0  0  0  0  0  0  0  0  0  0
    9.7942   -1.8700    0.0000 H   0  0  0  0  0  0  0  0  0  0  0  0
   10.4142   -1.2500    0.0000 H   0  0  0  0  0  0  0  0  0  0  0  0
   22.2477    0.5600    0.0000 H   0  0  0  0  0  0  0  0  0  0  0  0
   19.5665   -1.2500    0.0000 H   0  0  0  0  0  0  0  0  0  0  0  0
   20.1865   -1.8700    0.0000 H   0  0  0  0  0  0  0  0  0  0  0  0
   20.8065   -1.2500    0.0000 H   0  0  0  0  0  0  0  0  0  0  0  0
    7.8162    1.2500    0.0000 H   0  0  0  0  0  0  0  0  0  0  0  0
    7.1962    1.8700    0.0000 H   0  0  0  0  0  0  0  0  0  0  0  0
    6.5762    1.2500    0.0000 H   0  0  0  0  0  0  0  0  0  0  0  0
    5.8626    0.7249    0.0000 H   0  0  0  0  0  0  0  0  0  0  0  0
    5.0656    0.7249    0.0000 H   0  0  0  0  0  0  0  0  0  0  0  0
    4.5981    0.3700    0.0000 H   0  0  0  0  0  0  0  0  0  0  0  0
   23.2521   -0.7249    0.0000 H   0  0  0  0  0  0  0  0  0  0  0  0
   24.0492   -0.7249    0.0000 H   0  0  0  0  0  0  0  0  0  0  0  0
   23.4046    1.2500    0.0000 H   0  0  0  0  0  0  0  0  0  0  0  0
   22.7846    1.8700    0.0000 H   0  0  0  0  0  0  0  0  0  0  0  0
   22.1646    1.2500    0.0000 H   0  0  0  0  0  0  0  0  0  0  0  0
    3.9781   -1.2500    0.0000 H   0  0  0  0  0  0  0  0  0  0  0  0
    4.5981   -1.8700    0.0000 H   0  0  0  0  0  0  0  0  0  0  0  0
    5.2181   -1.2500    0.0000 H   0  0  0  0  0  0  0  0  0  0  0  0
   24.9842   -0.7249    0.0000 H   0  0  0  0  0  0  0  0  0  0  0  0
   25.7812   -0.7249    0.0000 H   0  0  0  0  0  0  0  0  0  0  0  0
   26.2487    0.8700    0.0000 H   0  0  0  0  0  0  0  0  0  0  0  0
    2.3100    0.7869    0.0000 H   0  0  0  0  0  0  0  0  0  0  0  0
    1.4631    0.5600    0.0000 H   0  0  0  0  0  0  0  0  0  0  0  0
    1.6900   -0.2869    0.0000 H   0  0  0  0  0  0  0  0  0  0  0  0
   27.1147   -0.8700    0.0000 H   0  0  0  0  0  0  0  0  0  0  0  0
   27.6517    0.0600    0.0000 H   0  0  0  0  0  0  0  0  0  0  0  0
  1 11  1  0  0  0  0
  1 15  1  0  0  0  0
  2 12  1  0  0  0  0
  2 17  1  0  0  0  0
  3 13  1  0  0  0  0
  3 16  1  0  0  0  0
  4 14  1  0  0  0  0
  4 21  1  0  0  0  0
  5 18  1  0  0  0  0
  5 19  1  0  0  0  0
  6 20  1  0  0  0  0
  6 30  1  0  0  0  0
  7 22  1  0  0  0  0
  7 27  1  0  0  0  0
  8 31  1  0  0  0  0
  8 36  1  0  0  0  0
  9 32  1  0  0  0  0
  9 35  1  0  0  0  0
 10 36  2  0  0  0  0
 11 16  1  0  0  0  0
 11 23  1  0  0  0  0
 11 40  1  0  0  0  0
 12 15  1  0  0  0  0
 12 24  1  0  0  0  0
 12 41  1  0  0  0  0
 13 18  1  0  0  0  0
 13 25  1  0  0  0  0
 13 42  1  0  0  0  0
 14 17  1  0  0  0  0
 14 26  1  0  0  0  0
 14 43  1  0  0  0  0
 15 44  1  0  0  0  0
 15 45  1  0  0  0  0
 16 46  1  0  0  0  0
 16 47  1  0  0  0  0
 17 48  1  0  0  0  0
 17 49  1  0  0  0  0
 18 50  1  0  0  0  0
 18 51  1  0  0  0  0
 19 22  1  0  0  0  0
 19 28  1  0  0  0  0
 19 52  1  0  0  0  0
 20 21  1  0  0  0  0
 20 29  1  0  0  0  0
 20 53  1  0  0  0  0
 21 54  1  0  0  0  0
 21 55  1  0  0  0  0
 22 56  1  0  0  0  0
 22 57  1  0  0  0  0
 23 58  1  0  0  0  0
 23 59  1  0  0  0  0
 23 60  1  0  0  0  0
 24 61  1  0  0  0  0
 24 62  1  0  0  0  0
 24 63  1  0  0  0  0
 25 64  1  0  0  0  0
 25 65  1  0  0  0  0
 25 66  1  0  0  0  0
 26 67  1  0  0  0  0
 26 68  1  0  0  0  0
 26 69  1  0  0  0  0
 27 32  1  0  0  0  0
 27 33  1  0  0  0  0
 27 70  1  0  0  0  0
 28 71  1  0  0  0  0
 28 72  1  0  0  0  0
 28 73  1  0  0  0  0
 29 74  1  0  0  0  0
 29 75  1  0  0  0  0
 29 76  1  0  0  0  0
 30 31  1  0  0  0  0
 30 77  1  0  0  0  0
 30 78  1  0  0  0  0
 31 34  1  0  0  0  0
 31 79  1  0  0  0  0
 32 80  1  0  0  0  0
 32 81  1  0  0  0  0
 33 82  1  0  0  0  0
 33 83  1  0  0  0  0
 33 84  1  0  0  0  0
 34 85  1  0  0  0  0
 34 86  1  0  0  0  0
 34 87  1  0  0  0  0
 35 37  1  0  0  0  0
 35 88  1  0  0  0  0
 35 89  1  0  0  0  0
 36 38  1  0  0  0  0
 37 39  2  0  0  0  0
 37 90  1  0  0  0  0
 38 91  1  0  0  0  0
 38 92  1  0  0  0  0
 38 93  1  0  0  0  0
 39 94  1  0  0  0  0
 39 95  1  0  0  0  0
M  END
> <PUBCHEM_COMPOUND_CID>
525177
> <PUBCHEM_COMPOUND_CANONICALIZED>
1
> <PUBCHEM_CACTVS_COMPLEXITY>
605
> <PUBCHEM_CACTVS_HBOND_ACCEPTOR>
10
> <PUBCHEM_CACTVS_HBOND_DONOR>
0
> <PUBCHEM_CACTVS_ROTATABLE_BOND>
27
> <PUBCHEM_CACTVS_SUBSKEYS>
AAADcfB4PAAAAAAAAAAAAAAAAAAAAAAAAAAAAAAAAAAAAAAAAAAAGgAAAAAACBSggAICCAAABACIACDSCAAAAAAAAAAIAAAAAAABBAAAIQACAAAAAAACIAAAAAAAAAAAAAAAAAAAAAAAAAAAAAAAAAAAAA==
> <PUBCHEM_IUPAC_OPENEYE_NAME>
[2-[2-[2-[2-[2-[2-[2-(2-allyloxy-1-methyl-ethoxy)-1-methyl-ethoxy]-1-methyl-ethoxy]-1-methyl-ethoxy]-1-methyl-ethoxy]-1-methyl-ethoxy]-1-methyl-ethoxy]-1-methyl-ethyl] acetate
> <PUBCHEM_IUPAC_CAS_NAME>
acetic acid 1-[1-[1-[1-[1-[1-[1-(1-prop-2-enoxypropan-2-yloxy)propan-2-yloxy]propan-2-yloxy]propan-2-yloxy]propan-2-yloxy]propan-2-yloxy]propan-2-yloxy]propan-2-yl ester
> <PUBCHEM_IUPAC_NAME_MARKUP>
1-[1-[1-[1-[1-[1-[1-(1-prop-2-enoxypropan-2-yloxy)propan-2-yloxy]propan-2-yloxy]propan-2-yloxy]propan-2-yloxy]propan-2-yloxy]propan-2-yloxy]propan-2-yl acetate
> <PUBCHEM_IUPAC_NAME>
1-[1-[1-[1-[1-[1-[1-(1-prop-2-enoxypropan-2-yloxy)propan-2-yloxy]propan-2-yloxy]propan-2-yloxy]propan-2-yloxy]propan-2-yloxy]propan-2-yloxy]propan-2-yl acetate
> <PUBCHEM_IUPAC_SYSTEMATIC_NAME>
1-[1-[1-[1-[1-[1-[1-(1-prop-2-enoxypropan-2-yloxy)propan-2-yloxy]propan-2-yloxy]propan-2-yloxy]propan-2-yloxy]propan-2-yloxy]propan-2-yloxy]propan-2-yl ethanoate
> <PUBCHEM_IUPAC_TRADITIONAL_NAME>
acetic acid [2-[2-[2-[2-[2-[2-[2-(2-allyloxy-1-methyl-ethoxy)-1-methyl-ethoxy]-1-methyl-ethoxy]-1-methyl-ethoxy]-1-methyl-ethoxy]-1-methyl-ethoxy]-1-methyl-ethoxy]-1-methyl-ethyl] ester
> <PUBCHEM_IUPAC_INCHI>
InChI=1S/C29H56O10/c1-11-12-31-13-21(2)32-14-22(3)33-15-23(4)34-16-24(5)35-17-25(6)36-18-26(7)37-19-27(8)38-20-28(9)39-29(10)30/h11,21-28H,1,12-20H2,2-10H3
> <PUBCHEM_IUPAC_INCHIKEY>
INQRCQNMYZGEQB-UHFFFAOYSA-N
> <PUBCHEM_XLOGP3_AA>
3
> <PUBCHEM_EXACT_MASS>
564.38734798
> <PUBCHEM_MOLECULAR_FORMULA>
C29H56O10
> <PUBCHEM_MOLECULAR_WEIGHT>
564.7
> <PUBCHEM_OPENEYE_CAN_SMILES>
CC(COCC=C)OCC(C)OCC(C)OCC(C)OCC(C)OCC(C)OCC(C)OCC(C)OC(=O)C
> <PUBCHEM_OPENEYE_ISO_SMILES>
CC(COCC=C)OCC(C)OCC(C)OCC(C)OCC(C)OCC(C)OCC(C)OCC(C)OC(=O)C
> <PUBCHEM_CACTVS_TPSA>
100
> <PUBCHEM_MONOISOTOPIC_WEIGHT>
564.38734798
> <PUBCHEM_TOTAL_CHARGE>
0
> <PUBCHEM_HEAVY_ATOM_COUNT>
39
> <PUBCHEM_ATOM_DEF_STEREO_COUNT>
0
> <PUBCHEM_ATOM_UDEF_STEREO_COUNT>
8
> <PUBCHEM_BOND_DEF_STEREO_COUNT>
0
> <PUBCHEM_BOND_UDEF_STEREO_COUNT>
0
> <PUBCHEM_ISOTOPIC_ATOM_COUNT>
0
> <PUBCHEM_COMPONENT_COUNT>
1
> <PUBCHEM_CACTVS_TAUTO_COUNT>
-1
> <PUBCHEM_COORDINATE_TYPE>
1
5
255
> <PUBCHEM_BONDANNOTATIONS>
11  23  3
12  24  3
13  25  3
14  26  3
19  28  3
20  29  3
27  33  3
31  34  3
$$$$
