525132
  -OEChem-10302200292D
 69 70  0     1  0  0  0  0  0999 V2000
    7.1962   -1.0000    0.0000 O   0  0  0  0  0  0  0  0  0  0  0  0
    5.4641   -1.0000    0.0000 O   0  0  0  0  0  0  0  0  0  0  0  0
    6.3301    1.5000    0.0000 O   0  0  0  0  0  0  0  0  0  0  0  0
    8.9282    0.0000    0.0000 O   0  0  0  0  0  0  0  0  0  0  0  0
    7.1962   -3.0000    0.0000 O   0  0  0  0  0  0  0  0  0  0  0  0
    5.4641   -4.0000    0.0000 O   0  0  0  0  0  0  0  0  0  0  0  0
    8.9282    2.0000    0.0000 O   0  0  0  0  0  0  0  0  0  0  0  0
    3.7320   -3.0000    0.0000 O   0  0  0  0  0  0  0  0  0  0  0  0
    5.4641   -0.0000    0.0000 O   0  0  0  0  0  0  0  0  0  0  0  0
    2.8660   -1.5000    0.0000 O   0  0  0  0  0  0  0  0  0  0  0  0
    6.3301    3.5000    0.0000 O   0  0  0  0  0  0  0  0  0  0  0  0
    7.1962    0.0000    0.0000 C   0  0  3  0  0  0  0  0  0  0  0  0
    8.0622    0.5000    0.0000 C   0  0  3  0  0  0  0  0  0  0  0  0
    6.3301   -2.5000    0.0000 C   0  0  3  0  0  0  0  0  0  0  0  0
    6.3301   -1.5000    0.0000 C   0  0  3  0  0  0  0  0  0  0  0  0
    5.4641   -3.0000    0.0000 C   0  0  3  0  0  0  0  0  0  0  0  0
    8.0622    1.5000    0.0000 C   0  0  3  0  0  0  0  0  0  0  0  0
    4.5981   -2.5000    0.0000 C   0  0  3  0  0  0  0  0  0  0  0  0
    4.5981   -1.5000    0.0000 C   0  0  3  0  0  0  0  0  0  0  0  0
    7.1962    2.0000    0.0000 C   0  0  3  0  0  0  0  0  0  0  0  0
    6.3301    0.5000    0.0000 C   0  0  3  0  0  0  0  0  0  0  0  0
    3.7320   -1.0000    0.0000 C   0  0  0  0  0  0  0  0  0  0  0  0
    7.1962    3.0000    0.0000 C   0  0  0  0  0  0  0  0  0  0  0  0
    9.7942    0.5000    0.0000 C   0  0  0  0  0  0  0  0  0  0  0  0
    7.1962   -4.0000    0.0000 C   0  0  0  0  0  0  0  0  0  0  0  0
    4.5981   -4.5000    0.0000 C   0  0  0  0  0  0  0  0  0  0  0  0
    8.9282    3.0000    0.0000 C   0  0  0  0  0  0  0  0  0  0  0  0
    2.8660   -2.5000    0.0000 C   0  0  0  0  0  0  0  0  0  0  0  0
    4.5981    0.5000    0.0000 C   0  0  0  0  0  0  0  0  0  0  0  0
    2.0000   -1.0000    0.0000 C   0  0  0  0  0  0  0  0  0  0  0  0
    6.3301    4.5000    0.0000 C   0  0  0  0  0  0  0  0  0  0  0  0
    7.7331   -0.3100    0.0000 H   0  0  0  0  0  0  0  0  0  0  0  0
    8.5991    0.8100    0.0000 H   0  0  0  0  0  0  0  0  0  0  0  0
    6.3301   -3.1200    0.0000 H   0  0  0  0  0  0  0  0  0  0  0  0
    6.3301   -0.8800    0.0000 H   0  0  0  0  0  0  0  0  0  0  0  0
    4.9272   -3.3100    0.0000 H   0  0  0  0  0  0  0  0  0  0  0  0
    8.0622    2.1200    0.0000 H   0  0  0  0  0  0  0  0  0  0  0  0
    4.5981   -3.1200    0.0000 H   0  0  0  0  0  0  0  0  0  0  0  0
    4.5981   -0.8800    0.0000 H   0  0  0  0  0  0  0  0  0  0  0  0
    6.6592    2.3100    0.0000 H   0  0  0  0  0  0  0  0  0  0  0  0
    6.3301   -0.1200    0.0000 H   0  0  0  0  0  0  0  0  0  0  0  0
    4.1306   -0.5251    0.0000 H   0  0  0  0  0  0  0  0  0  0  0  0
    3.3335   -0.5251    0.0000 H   0  0  0  0  0  0  0  0  0  0  0  0
    7.8067    2.8923    0.0000 H   0  0  0  0  0  0  0  0  0  0  0  0
    7.4082    3.5826    0.0000 H   0  0  0  0  0  0  0  0  0  0  0  0
   10.1042   -0.0369    0.0000 H   0  0  0  0  0  0  0  0  0  0  0  0
   10.3312    0.8100    0.0000 H   0  0  0  0  0  0  0  0  0  0  0  0
    9.4842    1.0369    0.0000 H   0  0  0  0  0  0  0  0  0  0  0  0
    6.5762   -4.0000    0.0000 H   0  0  0  0  0  0  0  0  0  0  0  0
    7.1962   -4.6200    0.0000 H   0  0  0  0  0  0  0  0  0  0  0  0
    7.8162   -4.0000    0.0000 H   0  0  0  0  0  0  0  0  0  0  0  0
    4.2881   -3.9631    0.0000 H   0  0  0  0  0  0  0  0  0  0  0  0
    4.0611   -4.8100    0.0000 H   0  0  0  0  0  0  0  0  0  0  0  0
    4.9081   -5.0369    0.0000 H   0  0  0  0  0  0  0  0  0  0  0  0
    9.5482    3.0000    0.0000 H   0  0  0  0  0  0  0  0  0  0  0  0
    8.9282    3.6200    0.0000 H   0  0  0  0  0  0  0  0  0  0  0  0
    8.3082    3.0000    0.0000 H   0  0  0  0  0  0  0  0  0  0  0  0
    3.1760   -1.9631    0.0000 H   0  0  0  0  0  0  0  0  0  0  0  0
    2.3291   -2.1900    0.0000 H   0  0  0  0  0  0  0  0  0  0  0  0
    2.5560   -3.0369    0.0000 H   0  0  0  0  0  0  0  0  0  0  0  0
    4.9081    1.0369    0.0000 H   0  0  0  0  0  0  0  0  0  0  0  0
    4.0611    0.8100    0.0000 H   0  0  0  0  0  0  0  0  0  0  0  0
    4.2881   -0.0369    0.0000 H   0  0  0  0  0  0  0  0  0  0  0  0
    2.3100   -0.4631    0.0000 H   0  0  0  0  0  0  0  0  0  0  0  0
    1.4631   -0.6900    0.0000 H   0  0  0  0  0  0  0  0  0  0  0  0
    1.6900   -1.5369    0.0000 H   0  0  0  0  0  0  0  0  0  0  0  0
    6.9501    4.5000    0.0000 H   0  0  0  0  0  0  0  0  0  0  0  0
    6.3301    5.1200    0.0000 H   0  0  0  0  0  0  0  0  0  0  0  0
    5.7101    4.5000    0.0000 H   0  0  0  0  0  0  0  0  0  0  0  0
  1 12  1  0  0  0  0
  1 15  1  0  0  0  0
  2 15  1  0  0  0  0
  2 19  1  0  0  0  0
  3 20  1  0  0  0  0
  3 21  1  0  0  0  0
  4 13  1  0  0  0  0
  4 24  1  0  0  0  0
  5 14  1  0  0  0  0
  5 25  1  0  0  0  0
  6 16  1  0  0  0  0
  6 26  1  0  0  0  0
  7 17  1  0  0  0  0
  7 27  1  0  0  0  0
  8 18  1  0  0  0  0
  8 28  1  0  0  0  0
  9 21  1  0  0  0  0
  9 29  1  0  0  0  0
 10 22  1  0  0  0  0
 10 30  1  0  0  0  0
 11 23  1  0  0  0  0
 11 31  1  0  0  0  0
 12 13  1  0  0  0  0
 12 21  1  0  0  0  0
 12 32  1  0  0  0  0
 13 17  1  0  0  0  0
 13 33  1  0  0  0  0
 14 15  1  0  0  0  0
 14 16  1  0  0  0  0
 14 34  1  0  0  0  0
 15 35  1  0  0  0  0
 16 18  1  0  0  0  0
 16 36  1  0  0  0  0
 17 20  1  0  0  0  0
 17 37  1  0  0  0  0
 18 19  1  0  0  0  0
 18 38  1  0  0  0  0
 19 22  1  0  0  0  0
 19 39  1  0  0  0  0
 20 23  1  0  0  0  0
 20 40  1  0  0  0  0
 21 41  1  0  0  0  0
 22 42  1  0  0  0  0
 22 43  1  0  0  0  0
 23 44  1  0  0  0  0
 23 45  1  0  0  0  0
 24 46  1  0  0  0  0
 24 47  1  0  0  0  0
 24 48  1  0  0  0  0
 25 49  1  0  0  0  0
 25 50  1  0  0  0  0
 25 51  1  0  0  0  0
 26 52  1  0  0  0  0
 26 53  1  0  0  0  0
 26 54  1  0  0  0  0
 27 55  1  0  0  0  0
 27 56  1  0  0  0  0
 27 57  1  0  0  0  0
 28 58  1  0  0  0  0
 28 59  1  0  0  0  0
 28 60  1  0  0  0  0
 29 61  1  0  0  0  0
 29 62  1  0  0  0  0
 29 63  1  0  0  0  0
 30 64  1  0  0  0  0
 30 65  1  0  0  0  0
 30 66  1  0  0  0  0
 31 67  1  0  0  0  0
 31 68  1  0  0  0  0
 31 69  1  0  0  0  0
M  END
> <PUBCHEM_COMPOUND_CID>
525132
> <PUBCHEM_COMPOUND_CANONICALIZED>
1
> <PUBCHEM_CACTVS_COMPLEXITY>
496
> <PUBCHEM_CACTVS_HBOND_ACCEPTOR>
11
> <PUBCHEM_CACTVS_HBOND_DONOR>
0
> <PUBCHEM_CACTVS_ROTATABLE_BOND>
12
> <PUBCHEM_CACTVS_SUBSKEYS>
AAADcfB4PAAAAAAAAAAAAAAAAAAAAAAAAAAkSAAAAAAAAAAAAAAAGgAAAAAACBSwgAMCCAAABAAAAAAAAAAAAAAAAAAAAAAAAAARAAIAAAAiAAAFAAAGAAHAYAwAAAAAAAAAAAAAAAAAAAAAAAAAAAAAAA==
> <PUBCHEM_IUPAC_OPENEYE_NAME>
2,4,5-trimethoxy-6-(methoxymethyl)-3-[3,4,5-trimethoxy-6-(methoxymethyl)tetrahydropyran-2-yl]oxy-tetrahydropyran
> <PUBCHEM_IUPAC_CAS_NAME>
2,4,5-trimethoxy-6-(methoxymethyl)-3-[[3,4,5-trimethoxy-6-(methoxymethyl)-2-oxanyl]oxy]oxane
> <PUBCHEM_IUPAC_NAME_MARKUP>
2,4,5-trimethoxy-6-(methoxymethyl)-3-[3,4,5-trimethoxy-6-(methoxymethyl)oxan-2-yl]oxyoxane
> <PUBCHEM_IUPAC_NAME>
2,4,5-trimethoxy-6-(methoxymethyl)-3-[3,4,5-trimethoxy-6-(methoxymethyl)oxan-2-yl]oxyoxane
> <PUBCHEM_IUPAC_SYSTEMATIC_NAME>
2,4,5-trimethoxy-6-(methoxymethyl)-3-[3,4,5-trimethoxy-6-(methoxymethyl)oxan-2-yl]oxy-oxane
> <PUBCHEM_IUPAC_TRADITIONAL_NAME>
2,4,5-trimethoxy-6-(methoxymethyl)-3-[3,4,5-trimethoxy-6-(methoxymethyl)tetrahydropyran-2-yl]oxy-tetrahydropyran
> <PUBCHEM_IUPAC_INCHI>
InChI=1S/C20H38O11/c1-21-9-11-14(24-4)16(26-6)18(19(28-8)29-11)31-20-17(27-7)15(25-5)13(23-3)12(30-20)10-22-2/h11-20H,9-10H2,1-8H3
> <PUBCHEM_IUPAC_INCHIKEY>
JIBCAZMNXQQBIE-UHFFFAOYSA-N
> <PUBCHEM_XLOGP3_AA>
-1
> <PUBCHEM_EXACT_MASS>
454.24141202
> <PUBCHEM_MOLECULAR_FORMULA>
C20H38O11
> <PUBCHEM_MOLECULAR_WEIGHT>
454.5
> <PUBCHEM_OPENEYE_CAN_SMILES>
COCC1C(C(C(C(O1)OC2C(C(C(OC2OC)COC)OC)OC)OC)OC)OC
> <PUBCHEM_OPENEYE_ISO_SMILES>
COCC1C(C(C(C(O1)OC2C(C(C(OC2OC)COC)OC)OC)OC)OC)OC
> <PUBCHEM_CACTVS_TPSA>
102
> <PUBCHEM_MONOISOTOPIC_WEIGHT>
454.24141202
> <PUBCHEM_TOTAL_CHARGE>
0
> <PUBCHEM_HEAVY_ATOM_COUNT>
31
> <PUBCHEM_ATOM_DEF_STEREO_COUNT>
0
> <PUBCHEM_ATOM_UDEF_STEREO_COUNT>
10
> <PUBCHEM_BOND_DEF_STEREO_COUNT>
0
> <PUBCHEM_BOND_UDEF_STEREO_COUNT>
0
> <PUBCHEM_ISOTOPIC_ATOM_COUNT>
0
> <PUBCHEM_COMPONENT_COUNT>
1
> <PUBCHEM_CACTVS_TAUTO_COUNT>
-1
> <PUBCHEM_COORDINATE_TYPE>
1
5
255
> <PUBCHEM_BONDANNOTATIONS>
12  1  3
15  1  3
19  22  3
20  23  3
13  4  3
14  5  3
16  6  3
17  7  3
18  8  3
21  9  3
$$$$
