525176
  -OEChem-10302200292D
 93 92  0     1  0  0  0  0  0999 V2000
   14.1244    0.2500    0.0000 O   0  0  0  0  0  0  0  0  0  0  0  0
   11.5263   -0.2500    0.0000 O   0  0  0  0  0  0  0  0  0  0  0  0
   16.7224   -0.2500    0.0000 O   0  0  0  0  0  0  0  0  0  0  0  0
    8.9282    0.2500    0.0000 O   0  0  0  0  0  0  0  0  0  0  0  0
   19.3205    0.2500    0.0000 O   0  0  0  0  0  0  0  0  0  0  0  0
    6.3301   -0.2500    0.0000 O   0  0  0  0  0  0  0  0  0  0  0  0
   21.9186   -0.2500    0.0000 O   0  0  0  0  0  0  0  0  0  0  0  0
    3.7320    0.2500    0.0000 O   0  0  0  0  0  0  0  0  0  0  0  0
   24.5167    0.2500    0.0000 O   0  0  0  0  0  0  0  0  0  0  0  0
    2.8660   -1.2500    0.0000 O   0  0  0  0  0  0  0  0  0  0  0  0
   25.3827   -1.2500    0.0000 O   0  0  0  0  0  0  0  0  0  0  0  0
   14.9904   -0.2500    0.0000 C   0  0  3  0  0  0  0  0  0  0  0  0
   12.3923    0.2500    0.0000 C   0  0  3  0  0  0  0  0  0  0  0  0
   17.5885    0.2500    0.0000 C   0  0  3  0  0  0  0  0  0  0  0  0
    9.7942   -0.2500    0.0000 C   0  0  3  0  0  0  0  0  0  0  0  0
   13.2583   -0.2500    0.0000 C   0  0  0  0  0  0  0  0  0  0  0  0
   15.8564    0.2500    0.0000 C   0  0  0  0  0  0  0  0  0  0  0  0
   10.6603    0.2500    0.0000 C   0  0  0  0  0  0  0  0  0  0  0  0
   18.4545   -0.2500    0.0000 C   0  0  0  0  0  0  0  0  0  0  0  0
   20.1865   -0.2500    0.0000 C   0  0  3  0  0  0  0  0  0  0  0  0
    7.1962    0.2500    0.0000 C   0  0  3  0  0  0  0  0  0  0  0  0
    8.0622   -0.2500    0.0000 C   0  0  0  0  0  0  0  0  0  0  0  0
   14.9904   -1.2500    0.0000 C   0  0  0  0  0  0  0  0  0  0  0  0
   12.3923    1.2500    0.0000 C   0  0  0  0  0  0  0  0  0  0  0  0
   21.0526    0.2500    0.0000 C   0  0  0  0  0  0  0  0  0  0  0  0
   17.5885    1.2500    0.0000 C   0  0  0  0  0  0  0  0  0  0  0  0
    9.7942   -1.2500    0.0000 C   0  0  0  0  0  0  0  0  0  0  0  0
   20.1865   -1.2500    0.0000 C   0  0  0  0  0  0  0  0  0  0  0  0
   22.7846    0.2500    0.0000 C   0  0  3  0  0  0  0  0  0  0  0  0
    7.1962    1.2500    0.0000 C   0  0  0  0  0  0  0  0  0  0  0  0
    5.4641    0.2500    0.0000 C   0  0  0  0  0  0  0  0  0  0  0  0
    4.5981   -0.2500    0.0000 C   0  0  3  0  0  0  0  0  0  0  0  0
   23.6506   -0.2500    0.0000 C   0  0  0  0  0  0  0  0  0  0  0  0
   22.7846    1.2500    0.0000 C   0  0  0  0  0  0  0  0  0  0  0  0
    4.5981   -1.2500    0.0000 C   0  0  0  0  0  0  0  0  0  0  0  0
    2.8660   -0.2500    0.0000 C   0  0  0  0  0  0  0  0  0  0  0  0
   25.3827   -0.2500    0.0000 C   0  0  0  0  0  0  0  0  0  0  0  0
    2.0000    0.2500    0.0000 C   0  0  0  0  0  0  0  0  0  0  0  0
   26.2487    0.2500    0.0000 C   0  0  0  0  0  0  0  0  0  0  0  0
   14.9904    0.3700    0.0000 H   0  0  0  0  0  0  0  0  0  0  0  0
   11.8554    0.5600    0.0000 H   0  0  0  0  0  0  0  0  0  0  0  0
   17.5885   -0.3700    0.0000 H   0  0  0  0  0  0  0  0  0  0  0  0
    9.2573   -0.5600    0.0000 H   0  0  0  0  0  0  0  0  0  0  0  0
   12.8598   -0.7249    0.0000 H   0  0  0  0  0  0  0  0  0  0  0  0
   13.6569   -0.7249    0.0000 H   0  0  0  0  0  0  0  0  0  0  0  0
   16.2549    0.7249    0.0000 H   0  0  0  0  0  0  0  0  0  0  0  0
   15.4579    0.7249    0.0000 H   0  0  0  0  0  0  0  0  0  0  0  0
   11.0588    0.7249    0.0000 H   0  0  0  0  0  0  0  0  0  0  0  0
   10.2617    0.7249    0.0000 H   0  0  0  0  0  0  0  0  0  0  0  0
   18.0560   -0.7249    0.0000 H   0  0  0  0  0  0  0  0  0  0  0  0
   18.8530   -0.7249    0.0000 H   0  0  0  0  0  0  0  0  0  0  0  0
   19.6496   -0.5600    0.0000 H   0  0  0  0  0  0  0  0  0  0  0  0
    6.6592    0.5600    0.0000 H   0  0  0  0  0  0  0  0  0  0  0  0
    7.6636   -0.7249    0.0000 H   0  0  0  0  0  0  0  0  0  0  0  0
    8.4607   -0.7249    0.0000 H   0  0  0  0  0  0  0  0  0  0  0  0
   14.3704   -1.2500    0.0000 H   0  0  0  0  0  0  0  0  0  0  0  0
   14.9904   -1.8700    0.0000 H   0  0  0  0  0  0  0  0  0  0  0  0
   15.6104   -1.2500    0.0000 H   0  0  0  0  0  0  0  0  0  0  0  0
   13.0123    1.2500    0.0000 H   0  0  0  0  0  0  0  0  0  0  0  0
   12.3923    1.8700    0.0000 H   0  0  0  0  0  0  0  0  0  0  0  0
   11.7723    1.2500    0.0000 H   0  0  0  0  0  0  0  0  0  0  0  0
   21.4511    0.7249    0.0000 H   0  0  0  0  0  0  0  0  0  0  0  0
   20.6540    0.7249    0.0000 H   0  0  0  0  0  0  0  0  0  0  0  0
   18.2085    1.2500    0.0000 H   0  0  0  0  0  0  0  0  0  0  0  0
   17.5885    1.8700    0.0000 H   0  0  0  0  0  0  0  0  0  0  0  0
   16.9685    1.2500    0.0000 H   0  0  0  0  0  0  0  0  0  0  0  0
    9.1742   -1.2500    0.0000 H   0  0  0  0  0  0  0  0  0  0  0  0
    9.7942   -1.8700    0.0000 H   0  0  0  0  0  0  0  0  0  0  0  0
   10.4142   -1.2500    0.0000 H   0  0  0  0  0  0  0  0  0  0  0  0
   19.5665   -1.2500    0.0000 H   0  0  0  0  0  0  0  0  0  0  0  0
   20.1865   -1.8700    0.0000 H   0  0  0  0  0  0  0  0  0  0  0  0
   20.8065   -1.2500    0.0000 H   0  0  0  0  0  0  0  0  0  0  0  0
   22.2477    0.5600    0.0000 H   0  0  0  0  0  0  0  0  0  0  0  0
    7.8162    1.2500    0.0000 H   0  0  0  0  0  0  0  0  0  0  0  0
    7.1962    1.8700    0.0000 H   0  0  0  0  0  0  0  0  0  0  0  0
    6.5762    1.2500    0.0000 H   0  0  0  0  0  0  0  0  0  0  0  0
    5.8626    0.7249    0.0000 H   0  0  0  0  0  0  0  0  0  0  0  0
    5.0656    0.7249    0.0000 H   0  0  0  0  0  0  0  0  0  0  0  0
    4.5981    0.3700    0.0000 H   0  0  0  0  0  0  0  0  0  0  0  0
   23.2521   -0.7249    0.0000 H   0  0  0  0  0  0  0  0  0  0  0  0
   24.0492   -0.7249    0.0000 H   0  0  0  0  0  0  0  0  0  0  0  0
   23.4046    1.2500    0.0000 H   0  0  0  0  0  0  0  0  0  0  0  0
   22.7846    1.8700    0.0000 H   0  0  0  0  0  0  0  0  0  0  0  0
   22.1646    1.2500    0.0000 H   0  0  0  0  0  0  0  0  0  0  0  0
    3.9781   -1.2500    0.0000 H   0  0  0  0  0  0  0  0  0  0  0  0
    4.5981   -1.8700    0.0000 H   0  0  0  0  0  0  0  0  0  0  0  0
    5.2181   -1.2500    0.0000 H   0  0  0  0  0  0  0  0  0  0  0  0
    2.3100    0.7869    0.0000 H   0  0  0  0  0  0  0  0  0  0  0  0
    1.4631    0.5600    0.0000 H   0  0  0  0  0  0  0  0  0  0  0  0
    1.6900   -0.2869    0.0000 H   0  0  0  0  0  0  0  0  0  0  0  0
   26.5587   -0.2869    0.0000 H   0  0  0  0  0  0  0  0  0  0  0  0
   26.7856    0.5600    0.0000 H   0  0  0  0  0  0  0  0  0  0  0  0
   25.9387    0.7869    0.0000 H   0  0  0  0  0  0  0  0  0  0  0  0
  1 12  1  0  0  0  0
  1 16  1  0  0  0  0
  2 13  1  0  0  0  0
  2 18  1  0  0  0  0
  3 14  1  0  0  0  0
  3 17  1  0  0  0  0
  4 15  1  0  0  0  0
  4 22  1  0  0  0  0
  5 19  1  0  0  0  0
  5 20  1  0  0  0  0
  6 21  1  0  0  0  0
  6 31  1  0  0  0  0
  7 25  1  0  0  0  0
  7 29  1  0  0  0  0
  8 32  1  0  0  0  0
  8 36  1  0  0  0  0
  9 33  1  0  0  0  0
  9 37  1  0  0  0  0
 10 36  2  0  0  0  0
 11 37  2  0  0  0  0
 12 17  1  0  0  0  0
 12 23  1  0  0  0  0
 12 40  1  0  0  0  0
 13 16  1  0  0  0  0
 13 24  1  0  0  0  0
 13 41  1  0  0  0  0
 14 19  1  0  0  0  0
 14 26  1  0  0  0  0
 14 42  1  0  0  0  0
 15 18  1  0  0  0  0
 15 27  1  0  0  0  0
 15 43  1  0  0  0  0
 16 44  1  0  0  0  0
 16 45  1  0  0  0  0
 17 46  1  0  0  0  0
 17 47  1  0  0  0  0
 18 48  1  0  0  0  0
 18 49  1  0  0  0  0
 19 50  1  0  0  0  0
 19 51  1  0  0  0  0
 20 25  1  0  0  0  0
 20 28  1  0  0  0  0
 20 52  1  0  0  0  0
 21 22  1  0  0  0  0
 21 30  1  0  0  0  0
 21 53  1  0  0  0  0
 22 54  1  0  0  0  0
 22 55  1  0  0  0  0
 23 56  1  0  0  0  0
 23 57  1  0  0  0  0
 23 58  1  0  0  0  0
 24 59  1  0  0  0  0
 24 60  1  0  0  0  0
 24 61  1  0  0  0  0
 25 62  1  0  0  0  0
 25 63  1  0  0  0  0
 26 64  1  0  0  0  0
 26 65  1  0  0  0  0
 26 66  1  0  0  0  0
 27 67  1  0  0  0  0
 27 68  1  0  0  0  0
 27 69  1  0  0  0  0
 28 70  1  0  0  0  0
 28 71  1  0  0  0  0
 28 72  1  0  0  0  0
 29 33  1  0  0  0  0
 29 34  1  0  0  0  0
 29 73  1  0  0  0  0
 30 74  1  0  0  0  0
 30 75  1  0  0  0  0
 30 76  1  0  0  0  0
 31 32  1  0  0  0  0
 31 77  1  0  0  0  0
 31 78  1  0  0  0  0
 32 35  1  0  0  0  0
 32 79  1  0  0  0  0
 33 80  1  0  0  0  0
 33 81  1  0  0  0  0
 34 82  1  0  0  0  0
 34 83  1  0  0  0  0
 34 84  1  0  0  0  0
 35 85  1  0  0  0  0
 35 86  1  0  0  0  0
 35 87  1  0  0  0  0
 36 38  1  0  0  0  0
 37 39  1  0  0  0  0
 38 88  1  0  0  0  0
 38 89  1  0  0  0  0
 38 90  1  0  0  0  0
 39 91  1  0  0  0  0
 39 92  1  0  0  0  0
 39 93  1  0  0  0  0
M  END
> <PUBCHEM_COMPOUND_CID>
525176
> <PUBCHEM_COMPOUND_CANONICALIZED>
1
> <PUBCHEM_CACTVS_COMPLEXITY>
633
> <PUBCHEM_CACTVS_HBOND_ACCEPTOR>
11
> <PUBCHEM_CACTVS_HBOND_DONOR>
0
> <PUBCHEM_CACTVS_ROTATABLE_BOND>
26
> <PUBCHEM_CACTVS_SUBSKEYS>
AAADcfB4PAAAAAAAAAAAAAAAAAAAAAAAAAAAAAAAAAAAAAAAAAAAGgAAAAAACBSggAICCAAABAAIAACQCAAAAAAAAAAAAAAAAAABAAAAAAACAAAAAAACAAAAAAAAAAAAAAAAAAAAAAAAAAAAAAAAAAAAAA==
> <PUBCHEM_IUPAC_OPENEYE_NAME>
2-[2-[2-[2-[2-[2-[2-(2-acetoxypropoxy)propoxy]propoxy]propoxy]propoxy]propoxy]propoxy]propyl acetate
> <PUBCHEM_IUPAC_CAS_NAME>
acetic acid 2-[2-[2-[2-[2-[2-[2-(2-acetyloxypropoxy)propoxy]propoxy]propoxy]propoxy]propoxy]propoxy]propyl ester
> <PUBCHEM_IUPAC_NAME_MARKUP>
2-[2-[2-[2-[2-[2-[2-(2-acetyloxypropoxy)propoxy]propoxy]propoxy]propoxy]propoxy]propoxy]propyl acetate
> <PUBCHEM_IUPAC_NAME>
2-[2-[2-[2-[2-[2-[2-(2-acetyloxypropoxy)propoxy]propoxy]propoxy]propoxy]propoxy]propoxy]propyl acetate
> <PUBCHEM_IUPAC_SYSTEMATIC_NAME>
2-[2-[2-[2-[2-[2-[2-(2-acetyloxypropoxy)propoxy]propoxy]propoxy]propoxy]propoxy]propoxy]propyl ethanoate
> <PUBCHEM_IUPAC_TRADITIONAL_NAME>
acetic acid 2-[2-[2-[2-[2-[2-[2-(2-acetoxypropoxy)propoxy]propoxy]propoxy]propoxy]propoxy]propoxy]propyl ester
> <PUBCHEM_IUPAC_INCHI>
InChI=1S/C28H54O11/c1-19(11-32-21(3)13-34-23(5)15-36-25(7)17-38-27(9)29)31-12-20(2)33-14-22(4)35-16-24(6)37-18-26(8)39-28(10)30/h19-26H,11-18H2,1-10H3
> <PUBCHEM_IUPAC_INCHIKEY>
PBDJQYVLIIEDBC-UHFFFAOYSA-N
> <PUBCHEM_XLOGP3_AA>
2.4
> <PUBCHEM_EXACT_MASS>
566.36661253
> <PUBCHEM_MOLECULAR_FORMULA>
C28H54O11
> <PUBCHEM_MOLECULAR_WEIGHT>
566.7
> <PUBCHEM_OPENEYE_CAN_SMILES>
CC(COC(C)COC(C)COC(C)COC(C)COC(C)COC(=O)C)OCC(C)OCC(C)OC(=O)C
> <PUBCHEM_OPENEYE_ISO_SMILES>
CC(COC(C)COC(C)COC(C)COC(C)COC(C)COC(=O)C)OCC(C)OCC(C)OC(=O)C
> <PUBCHEM_CACTVS_TPSA>
117
> <PUBCHEM_MONOISOTOPIC_WEIGHT>
566.36661253
> <PUBCHEM_TOTAL_CHARGE>
0
> <PUBCHEM_HEAVY_ATOM_COUNT>
39
> <PUBCHEM_ATOM_DEF_STEREO_COUNT>
0
> <PUBCHEM_ATOM_UDEF_STEREO_COUNT>
8
> <PUBCHEM_BOND_DEF_STEREO_COUNT>
0
> <PUBCHEM_BOND_UDEF_STEREO_COUNT>
0
> <PUBCHEM_ISOTOPIC_ATOM_COUNT>
0
> <PUBCHEM_COMPONENT_COUNT>
1
> <PUBCHEM_CACTVS_TAUTO_COUNT>
-1
> <PUBCHEM_COORDINATE_TYPE>
1
5
255
> <PUBCHEM_BONDANNOTATIONS>
12  23  3
13  24  3
14  26  3
15  27  3
20  28  3
21  30  3
29  34  3
32  35  3
$$$$
