525159
  -OEChem-10302200292D
 59 58  0     1  0  0  0  0  0999 V2000
    8.9282    1.2500    0.0000 O   0  0  0  0  0  0  0  0  0  0  0  0
    6.3301    0.7500    0.0000 O   0  0  0  0  0  0  0  0  0  0  0  0
   11.5263    0.7500    0.0000 O   0  0  0  0  0  0  0  0  0  0  0  0
    3.7320    1.2500    0.0000 O   0  0  0  0  0  0  0  0  0  0  0  0
    3.7320   -0.7500    0.0000 O   0  0  0  0  0  0  0  0  0  0  0  0
   14.1244    1.2500    0.0000 O   0  0  0  0  0  0  0  0  0  0  0  0
    2.8660   -0.2500    0.0000 O   0  0  0  0  0  0  0  0  0  0  0  0
    4.5981   -2.2500    0.0000 O   0  0  0  0  0  0  0  0  0  0  0  0
   14.9904   -0.2500    0.0000 O   0  0  0  0  0  0  0  0  0  0  0  0
    7.1962    1.2500    0.0000 C   0  0  3  0  0  0  0  0  0  0  0  0
    9.7942    0.7500    0.0000 C   0  0  3  0  0  0  0  0  0  0  0  0
    8.0622    0.7500    0.0000 C   0  0  0  0  0  0  0  0  0  0  0  0
   10.6603    1.2500    0.0000 C   0  0  0  0  0  0  0  0  0  0  0  0
    5.4641    1.2500    0.0000 C   0  0  0  0  0  0  0  0  0  0  0  0
    4.5981    0.7500    0.0000 C   0  0  3  0  0  0  0  0  0  0  0  0
   12.3923    1.2500    0.0000 C   0  0  3  0  0  0  0  0  0  0  0  0
    7.1962    2.2500    0.0000 C   0  0  0  0  0  0  0  0  0  0  0  0
    9.7942   -0.2500    0.0000 C   0  0  0  0  0  0  0  0  0  0  0  0
    4.5981   -0.2500    0.0000 C   0  0  0  0  0  0  0  0  0  0  0  0
   13.2583    0.7500    0.0000 C   0  0  0  0  0  0  0  0  0  0  0  0
   12.3923    2.2500    0.0000 C   0  0  0  0  0  0  0  0  0  0  0  0
    2.8660    0.7500    0.0000 C   0  0  0  0  0  0  0  0  0  0  0  0
    3.7320   -1.7500    0.0000 C   0  0  0  0  0  0  0  0  0  0  0  0
    2.0000    1.2500    0.0000 C   0  0  0  0  0  0  0  0  0  0  0  0
   14.9904    0.7500    0.0000 C   0  0  0  0  0  0  0  0  0  0  0  0
    2.8660   -2.2500    0.0000 C   0  0  0  0  0  0  0  0  0  0  0  0
   15.8564    1.2500    0.0000 C   0  0  0  0  0  0  0  0  0  0  0  0
    6.6592    1.5600    0.0000 H   0  0  0  0  0  0  0  0  0  0  0  0
    9.2573    0.4400    0.0000 H   0  0  0  0  0  0  0  0  0  0  0  0
    7.6636    0.2751    0.0000 H   0  0  0  0  0  0  0  0  0  0  0  0
    8.4607    0.2751    0.0000 H   0  0  0  0  0  0  0  0  0  0  0  0
   11.0588    1.7250    0.0000 H   0  0  0  0  0  0  0  0  0  0  0  0
   10.2617    1.7250    0.0000 H   0  0  0  0  0  0  0  0  0  0  0  0
    5.8626    1.7250    0.0000 H   0  0  0  0  0  0  0  0  0  0  0  0
    5.0656    1.7250    0.0000 H   0  0  0  0  0  0  0  0  0  0  0  0
    4.5981    1.3700    0.0000 H   0  0  0  0  0  0  0  0  0  0  0  0
   11.8554    1.5600    0.0000 H   0  0  0  0  0  0  0  0  0  0  0  0
    7.8162    2.2500    0.0000 H   0  0  0  0  0  0  0  0  0  0  0  0
    7.1962    2.8700    0.0000 H   0  0  0  0  0  0  0  0  0  0  0  0
    6.5762    2.2500    0.0000 H   0  0  0  0  0  0  0  0  0  0  0  0
    9.1742   -0.2500    0.0000 H   0  0  0  0  0  0  0  0  0  0  0  0
    9.7942   -0.8700    0.0000 H   0  0  0  0  0  0  0  0  0  0  0  0
   10.4142   -0.2500    0.0000 H   0  0  0  0  0  0  0  0  0  0  0  0
    4.8101   -0.8326    0.0000 H   0  0  0  0  0  0  0  0  0  0  0  0
    5.2087   -0.1423    0.0000 H   0  0  0  0  0  0  0  0  0  0  0  0
   12.8598    0.2751    0.0000 H   0  0  0  0  0  0  0  0  0  0  0  0
   13.6569    0.2751    0.0000 H   0  0  0  0  0  0  0  0  0  0  0  0
   13.0123    2.2500    0.0000 H   0  0  0  0  0  0  0  0  0  0  0  0
   12.3923    2.8700    0.0000 H   0  0  0  0  0  0  0  0  0  0  0  0
   11.7723    2.2500    0.0000 H   0  0  0  0  0  0  0  0  0  0  0  0
    2.3100    1.7869    0.0000 H   0  0  0  0  0  0  0  0  0  0  0  0
    1.4631    1.5600    0.0000 H   0  0  0  0  0  0  0  0  0  0  0  0
    1.6900    0.7131    0.0000 H   0  0  0  0  0  0  0  0  0  0  0  0
    2.5560   -1.7131    0.0000 H   0  0  0  0  0  0  0  0  0  0  0  0
    2.3291   -2.5600    0.0000 H   0  0  0  0  0  0  0  0  0  0  0  0
    3.1760   -2.7869    0.0000 H   0  0  0  0  0  0  0  0  0  0  0  0
   16.1664    0.7131    0.0000 H   0  0  0  0  0  0  0  0  0  0  0  0
   16.3933    1.5600    0.0000 H   0  0  0  0  0  0  0  0  0  0  0  0
   15.5464    1.7869    0.0000 H   0  0  0  0  0  0  0  0  0  0  0  0
  1 11  1  0  0  0  0
  1 12  1  0  0  0  0
  2 10  1  0  0  0  0
  2 14  1  0  0  0  0
  3 13  1  0  0  0  0
  3 16  1  0  0  0  0
  4 15  1  0  0  0  0
  4 22  1  0  0  0  0
  5 19  1  0  0  0  0
  5 23  1  0  0  0  0
  6 20  1  0  0  0  0
  6 25  1  0  0  0  0
  7 22  2  0  0  0  0
  8 23  2  0  0  0  0
  9 25  2  0  0  0  0
 10 12  1  0  0  0  0
 10 17  1  0  0  0  0
 10 28  1  0  0  0  0
 11 13  1  0  0  0  0
 11 18  1  0  0  0  0
 11 29  1  0  0  0  0
 12 30  1  0  0  0  0
 12 31  1  0  0  0  0
 13 32  1  0  0  0  0
 13 33  1  0  0  0  0
 14 15  1  0  0  0  0
 14 34  1  0  0  0  0
 14 35  1  0  0  0  0
 15 19  1  0  0  0  0
 15 36  1  0  0  0  0
 16 20  1  0  0  0  0
 16 21  1  0  0  0  0
 16 37  1  0  0  0  0
 17 38  1  0  0  0  0
 17 39  1  0  0  0  0
 17 40  1  0  0  0  0
 18 41  1  0  0  0  0
 18 42  1  0  0  0  0
 18 43  1  0  0  0  0
 19 44  1  0  0  0  0
 19 45  1  0  0  0  0
 20 46  1  0  0  0  0
 20 47  1  0  0  0  0
 21 48  1  0  0  0  0
 21 49  1  0  0  0  0
 21 50  1  0  0  0  0
 22 24  1  0  0  0  0
 23 26  1  0  0  0  0
 24 51  1  0  0  0  0
 24 52  1  0  0  0  0
 24 53  1  0  0  0  0
 25 27  1  0  0  0  0
 26 54  1  0  0  0  0
 26 55  1  0  0  0  0
 26 56  1  0  0  0  0
 27 57  1  0  0  0  0
 27 58  1  0  0  0  0
 27 59  1  0  0  0  0
M  END
> <PUBCHEM_COMPOUND_CID>
525159
> <PUBCHEM_COMPOUND_CANONICALIZED>
1
> <PUBCHEM_CACTVS_COMPLEXITY>
452
> <PUBCHEM_CACTVS_HBOND_ACCEPTOR>
9
> <PUBCHEM_CACTVS_HBOND_DONOR>
0
> <PUBCHEM_CACTVS_ROTATABLE_BOND>
17
> <PUBCHEM_CACTVS_SUBSKEYS>
AAADcfB4PAAAAAAAAAAAAAAAAAAAAAAAAAAAAAAAAAAAAAAAAAAAGgAAAAAACBSggAICCAAABAAIAACQCAAAAAAAAAAAAAAAAAABAAAAAAACAAABAAACAAAAAAAAAAAAAAAAAAAAAAAAAAAAAAAAAAAAAA==
> <PUBCHEM_IUPAC_OPENEYE_NAME>
2-[2-[2-(2,3-diacetoxypropoxy)propoxy]propoxy]propyl acetate
> <PUBCHEM_IUPAC_CAS_NAME>
acetic acid 2-[2-[2-(2,3-diacetyloxypropoxy)propoxy]propoxy]propyl ester
> <PUBCHEM_IUPAC_NAME_MARKUP>
2-[2-[2-(2,3-diacetyloxypropoxy)propoxy]propoxy]propyl acetate
> <PUBCHEM_IUPAC_NAME>
2-[2-[2-(2,3-diacetyloxypropoxy)propoxy]propoxy]propyl acetate
> <PUBCHEM_IUPAC_SYSTEMATIC_NAME>
2-[2-[2-(2,3-diacetyloxypropoxy)propoxy]propoxy]propyl ethanoate
> <PUBCHEM_IUPAC_TRADITIONAL_NAME>
acetic acid 2-[2-[2-(2,3-diacetoxypropoxy)propoxy]propoxy]propyl ester
> <PUBCHEM_IUPAC_INCHI>
InChI=1S/C18H32O9/c1-12(7-23-14(3)9-25-15(4)19)22-8-13(2)24-10-18(27-17(6)21)11-26-16(5)20/h12-14,18H,7-11H2,1-6H3
> <PUBCHEM_IUPAC_INCHIKEY>
CXMIOLAITPOURG-UHFFFAOYSA-N
> <PUBCHEM_XLOGP3_AA>
0.8
> <PUBCHEM_EXACT_MASS>
392.20463259
> <PUBCHEM_MOLECULAR_FORMULA>
C18H32O9
> <PUBCHEM_MOLECULAR_WEIGHT>
392.4
> <PUBCHEM_OPENEYE_CAN_SMILES>
CC(COC(C)COC(C)COC(=O)C)OCC(COC(=O)C)OC(=O)C
> <PUBCHEM_OPENEYE_ISO_SMILES>
CC(COC(C)COC(C)COC(=O)C)OCC(COC(=O)C)OC(=O)C
> <PUBCHEM_CACTVS_TPSA>
107
> <PUBCHEM_MONOISOTOPIC_WEIGHT>
392.20463259
> <PUBCHEM_TOTAL_CHARGE>
0
> <PUBCHEM_HEAVY_ATOM_COUNT>
27
> <PUBCHEM_ATOM_DEF_STEREO_COUNT>
0
> <PUBCHEM_ATOM_UDEF_STEREO_COUNT>
4
> <PUBCHEM_BOND_DEF_STEREO_COUNT>
0
> <PUBCHEM_BOND_UDEF_STEREO_COUNT>
0
> <PUBCHEM_ISOTOPIC_ATOM_COUNT>
0
> <PUBCHEM_COMPONENT_COUNT>
1
> <PUBCHEM_CACTVS_TAUTO_COUNT>
-1
> <PUBCHEM_COORDINATE_TYPE>
1
5
255
> <PUBCHEM_BONDANNOTATIONS>
10  17  3
11  18  3
15  14  3
16  21  3
$$$$
