525146
  -OEChem-10302200292D
115114  0     1  0  0  0  0  0999 V2000
   16.7224    0.2500    0.0000 O   0  0  0  0  0  0  0  0  0  0  0  0
   19.3205   -0.2500    0.0000 O   0  0  0  0  0  0  0  0  0  0  0  0
   14.1244   -0.2500    0.0000 O   0  0  0  0  0  0  0  0  0  0  0  0
   21.9186    0.2500    0.0000 O   0  0  0  0  0  0  0  0  0  0  0  0
   11.5263    0.2500    0.0000 O   0  0  0  0  0  0  0  0  0  0  0  0
   24.5167   -0.2500    0.0000 O   0  0  0  0  0  0  0  0  0  0  0  0
    8.9282   -0.2500    0.0000 O   0  0  0  0  0  0  0  0  0  0  0  0
   27.1147    0.2500    0.0000 O   0  0  0  0  0  0  0  0  0  0  0  0
    6.3301    0.2500    0.0000 O   0  0  0  0  0  0  0  0  0  0  0  0
   29.7128   -0.2500    0.0000 O   0  0  0  0  0  0  0  0  0  0  0  0
    3.7320   -0.2500    0.0000 O   0  0  0  0  0  0  0  0  0  0  0  0
    2.8660    1.2500    0.0000 O   0  0  0  0  0  0  0  0  0  0  0  0
   15.8564   -0.2500    0.0000 C   0  0  3  0  0  0  0  0  0  0  0  0
   18.4545    0.2500    0.0000 C   0  0  3  0  0  0  0  0  0  0  0  0
   13.2583    0.2500    0.0000 C   0  0  3  0  0  0  0  0  0  0  0  0
   21.0526   -0.2500    0.0000 C   0  0  3  0  0  0  0  0  0  0  0  0
   17.5885   -0.2500    0.0000 C   0  0  0  0  0  0  0  0  0  0  0  0
   14.9904    0.2500    0.0000 C   0  0  0  0  0  0  0  0  0  0  0  0
   10.6603   -0.2500    0.0000 C   0  0  3  0  0  0  0  0  0  0  0  0
   23.6506    0.2500    0.0000 C   0  0  3  0  0  0  0  0  0  0  0  0
   20.1865    0.2500    0.0000 C   0  0  0  0  0  0  0  0  0  0  0  0
   12.3923   -0.2500    0.0000 C   0  0  0  0  0  0  0  0  0  0  0  0
   22.7846   -0.2500    0.0000 C   0  0  0  0  0  0  0  0  0  0  0  0
    9.7942    0.2500    0.0000 C   0  0  0  0  0  0  0  0  0  0  0  0
    8.0622    0.2500    0.0000 C   0  0  3  0  0  0  0  0  0  0  0  0
   26.2487   -0.2500    0.0000 C   0  0  3  0  0  0  0  0  0  0  0  0
   25.3827    0.2500    0.0000 C   0  0  0  0  0  0  0  0  0  0  0  0
   15.8564   -1.2500    0.0000 C   0  0  0  0  0  0  0  0  0  0  0  0
   18.4545    1.2500    0.0000 C   0  0  0  0  0  0  0  0  0  0  0  0
   13.2583    1.2500    0.0000 C   0  0  0  0  0  0  0  0  0  0  0  0
   21.0526   -1.2500    0.0000 C   0  0  0  0  0  0  0  0  0  0  0  0
    7.1962   -0.2500    0.0000 C   0  0  0  0  0  0  0  0  0  0  0  0
   10.6603   -1.2500    0.0000 C   0  0  0  0  0  0  0  0  0  0  0  0
   23.6506    1.2500    0.0000 C   0  0  0  0  0  0  0  0  0  0  0  0
   27.9808   -0.2500    0.0000 C   0  0  0  0  0  0  0  0  0  0  0  0
    8.0622    1.2500    0.0000 C   0  0  0  0  0  0  0  0  0  0  0  0
   26.2487   -1.2500    0.0000 C   0  0  0  0  0  0  0  0  0  0  0  0
   28.8468    0.2500    0.0000 C   0  0  3  0  0  0  0  0  0  0  0  0
    5.4641   -0.2500    0.0000 C   0  0  3  0  0  0  0  0  0  0  0  0
    4.5981    0.2500    0.0000 C   0  0  0  0  0  0  0  0  0  0  0  0
   28.8468    1.2500    0.0000 C   0  0  0  0  0  0  0  0  0  0  0  0
    5.4641   -1.2500    0.0000 C   0  0  0  0  0  0  0  0  0  0  0  0
   30.5788    0.2500    0.0000 C   0  0  0  0  0  0  0  0  0  0  0  0
   31.4449   -0.2500    0.0000 C   0  0  0  0  0  0  0  0  0  0  0  0
    2.8660    0.2500    0.0000 C   0  0  0  0  0  0  0  0  0  0  0  0
    2.0000   -0.2500    0.0000 C   0  0  0  0  0  0  0  0  0  0  0  0
   32.3109    0.2500    0.0000 C   0  0  0  0  0  0  0  0  0  0  0  0
   16.3933   -0.5600    0.0000 H   0  0  0  0  0  0  0  0  0  0  0  0
   18.4545   -0.3700    0.0000 H   0  0  0  0  0  0  0  0  0  0  0  0
   13.7953    0.5600    0.0000 H   0  0  0  0  0  0  0  0  0  0  0  0
   21.0526    0.3700    0.0000 H   0  0  0  0  0  0  0  0  0  0  0  0
   17.1899   -0.7249    0.0000 H   0  0  0  0  0  0  0  0  0  0  0  0
   17.9870   -0.7249    0.0000 H   0  0  0  0  0  0  0  0  0  0  0  0
   15.3889    0.7249    0.0000 H   0  0  0  0  0  0  0  0  0  0  0  0
   14.5919    0.7249    0.0000 H   0  0  0  0  0  0  0  0  0  0  0  0
   11.1972   -0.5600    0.0000 H   0  0  0  0  0  0  0  0  0  0  0  0
   23.6506   -0.3700    0.0000 H   0  0  0  0  0  0  0  0  0  0  0  0
   20.5851    0.7249    0.0000 H   0  0  0  0  0  0  0  0  0  0  0  0
   19.7880    0.7249    0.0000 H   0  0  0  0  0  0  0  0  0  0  0  0
   11.9938   -0.7249    0.0000 H   0  0  0  0  0  0  0  0  0  0  0  0
   12.7908   -0.7249    0.0000 H   0  0  0  0  0  0  0  0  0  0  0  0
   22.3861   -0.7249    0.0000 H   0  0  0  0  0  0  0  0  0  0  0  0
   23.1831   -0.7249    0.0000 H   0  0  0  0  0  0  0  0  0  0  0  0
   10.1928    0.7249    0.0000 H   0  0  0  0  0  0  0  0  0  0  0  0
    9.3957    0.7249    0.0000 H   0  0  0  0  0  0  0  0  0  0  0  0
    8.0622   -0.3700    0.0000 H   0  0  0  0  0  0  0  0  0  0  0  0
   26.7856   -0.5600    0.0000 H   0  0  0  0  0  0  0  0  0  0  0  0
   25.7812    0.7249    0.0000 H   0  0  0  0  0  0  0  0  0  0  0  0
   24.9842    0.7249    0.0000 H   0  0  0  0  0  0  0  0  0  0  0  0
   15.2364   -1.2500    0.0000 H   0  0  0  0  0  0  0  0  0  0  0  0
   15.8564   -1.8700    0.0000 H   0  0  0  0  0  0  0  0  0  0  0  0
   16.4764   -1.2500    0.0000 H   0  0  0  0  0  0  0  0  0  0  0  0
   19.0745    1.2500    0.0000 H   0  0  0  0  0  0  0  0  0  0  0  0
   18.4545    1.8700    0.0000 H   0  0  0  0  0  0  0  0  0  0  0  0
   17.8345    1.2500    0.0000 H   0  0  0  0  0  0  0  0  0  0  0  0
   13.8783    1.2500    0.0000 H   0  0  0  0  0  0  0  0  0  0  0  0
   13.2583    1.8700    0.0000 H   0  0  0  0  0  0  0  0  0  0  0  0
   12.6383    1.2500    0.0000 H   0  0  0  0  0  0  0  0  0  0  0  0
   20.4326   -1.2500    0.0000 H   0  0  0  0  0  0  0  0  0  0  0  0
   21.0526   -1.8700    0.0000 H   0  0  0  0  0  0  0  0  0  0  0  0
   21.6726   -1.2500    0.0000 H   0  0  0  0  0  0  0  0  0  0  0  0
    6.7976   -0.7249    0.0000 H   0  0  0  0  0  0  0  0  0  0  0  0
    7.5947   -0.7249    0.0000 H   0  0  0  0  0  0  0  0  0  0  0  0
   10.0403   -1.2500    0.0000 H   0  0  0  0  0  0  0  0  0  0  0  0
   10.6603   -1.8700    0.0000 H   0  0  0  0  0  0  0  0  0  0  0  0
   11.2803   -1.2500    0.0000 H   0  0  0  0  0  0  0  0  0  0  0  0
   24.2706    1.2500    0.0000 H   0  0  0  0  0  0  0  0  0  0  0  0
   23.6506    1.8700    0.0000 H   0  0  0  0  0  0  0  0  0  0  0  0
   23.0306    1.2500    0.0000 H   0  0  0  0  0  0  0  0  0  0  0  0
   27.5822   -0.7249    0.0000 H   0  0  0  0  0  0  0  0  0  0  0  0
   28.3793   -0.7249    0.0000 H   0  0  0  0  0  0  0  0  0  0  0  0
    8.6822    1.2500    0.0000 H   0  0  0  0  0  0  0  0  0  0  0  0
    8.0622    1.8700    0.0000 H   0  0  0  0  0  0  0  0  0  0  0  0
    7.4422    1.2500    0.0000 H   0  0  0  0  0  0  0  0  0  0  0  0
   25.6287   -1.2500    0.0000 H   0  0  0  0  0  0  0  0  0  0  0  0
   26.2487   -1.8700    0.0000 H   0  0  0  0  0  0  0  0  0  0  0  0
   26.8687   -1.2500    0.0000 H   0  0  0  0  0  0  0  0  0  0  0  0
   29.3837    0.5600    0.0000 H   0  0  0  0  0  0  0  0  0  0  0  0
    5.4641    0.3700    0.0000 H   0  0  0  0  0  0  0  0  0  0  0  0
    4.9966    0.7249    0.0000 H   0  0  0  0  0  0  0  0  0  0  0  0
    4.1996    0.7249    0.0000 H   0  0  0  0  0  0  0  0  0  0  0  0
   29.4668    1.2500    0.0000 H   0  0  0  0  0  0  0  0  0  0  0  0
   28.8468    1.8700    0.0000 H   0  0  0  0  0  0  0  0  0  0  0  0
   28.2268    1.2500    0.0000 H   0  0  0  0  0  0  0  0  0  0  0  0
    4.8441   -1.2500    0.0000 H   0  0  0  0  0  0  0  0  0  0  0  0
    5.4641   -1.8700    0.0000 H   0  0  0  0  0  0  0  0  0  0  0  0
    6.0841   -1.2500    0.0000 H   0  0  0  0  0  0  0  0  0  0  0  0
   30.9774    0.7249    0.0000 H   0  0  0  0  0  0  0  0  0  0  0  0
   30.1803    0.7249    0.0000 H   0  0  0  0  0  0  0  0  0  0  0  0
   31.4449   -0.8700    0.0000 H   0  0  0  0  0  0  0  0  0  0  0  0
    1.6900    0.2869    0.0000 H   0  0  0  0  0  0  0  0  0  0  0  0
    1.4631   -0.5600    0.0000 H   0  0  0  0  0  0  0  0  0  0  0  0
    2.3100   -0.7869    0.0000 H   0  0  0  0  0  0  0  0  0  0  0  0
   32.8478   -0.0600    0.0000 H   0  0  0  0  0  0  0  0  0  0  0  0
   32.3109    0.8700    0.0000 H   0  0  0  0  0  0  0  0  0  0  0  0
  1 13  1  0  0  0  0
  1 17  1  0  0  0  0
  2 14  1  0  0  0  0
  2 21  1  0  0  0  0
  3 15  1  0  0  0  0
  3 18  1  0  0  0  0
  4 16  1  0  0  0  0
  4 23  1  0  0  0  0
  5 19  1  0  0  0  0
  5 22  1  0  0  0  0
  6 20  1  0  0  0  0
  6 27  1  0  0  0  0
  7 24  1  0  0  0  0
  7 25  1  0  0  0  0
  8 26  1  0  0  0  0
  8 35  1  0  0  0  0
  9 32  1  0  0  0  0
  9 39  1  0  0  0  0
 10 38  1  0  0  0  0
 10 43  1  0  0  0  0
 11 40  1  0  0  0  0
 11 45  1  0  0  0  0
 12 45  2  0  0  0  0
 13 18  1  0  0  0  0
 13 28  1  0  0  0  0
 13 48  1  0  0  0  0
 14 17  1  0  0  0  0
 14 29  1  0  0  0  0
 14 49  1  0  0  0  0
 15 22  1  0  0  0  0
 15 30  1  0  0  0  0
 15 50  1  0  0  0  0
 16 21  1  0  0  0  0
 16 31  1  0  0  0  0
 16 51  1  0  0  0  0
 17 52  1  0  0  0  0
 17 53  1  0  0  0  0
 18 54  1  0  0  0  0
 18 55  1  0  0  0  0
 19 24  1  0  0  0  0
 19 33  1  0  0  0  0
 19 56  1  0  0  0  0
 20 23  1  0  0  0  0
 20 34  1  0  0  0  0
 20 57  1  0  0  0  0
 21 58  1  0  0  0  0
 21 59  1  0  0  0  0
 22 60  1  0  0  0  0
 22 61  1  0  0  0  0
 23 62  1  0  0  0  0
 23 63  1  0  0  0  0
 24 64  1  0  0  0  0
 24 65  1  0  0  0  0
 25 32  1  0  0  0  0
 25 36  1  0  0  0  0
 25 66  1  0  0  0  0
 26 27  1  0  0  0  0
 26 37  1  0  0  0  0
 26 67  1  0  0  0  0
 27 68  1  0  0  0  0
 27 69  1  0  0  0  0
 28 70  1  0  0  0  0
 28 71  1  0  0  0  0
 28 72  1  0  0  0  0
 29 73  1  0  0  0  0
 29 74  1  0  0  0  0
 29 75  1  0  0  0  0
 30 76  1  0  0  0  0
 30 77  1  0  0  0  0
 30 78  1  0  0  0  0
 31 79  1  0  0  0  0
 31 80  1  0  0  0  0
 31 81  1  0  0  0  0
 32 82  1  0  0  0  0
 32 83  1  0  0  0  0
 33 84  1  0  0  0  0
 33 85  1  0  0  0  0
 33 86  1  0  0  0  0
 34 87  1  0  0  0  0
 34 88  1  0  0  0  0
 34 89  1  0  0  0  0
 35 38  1  0  0  0  0
 35 90  1  0  0  0  0
 35 91  1  0  0  0  0
 36 92  1  0  0  0  0
 36 93  1  0  0  0  0
 36 94  1  0  0  0  0
 37 95  1  0  0  0  0
 37 96  1  0  0  0  0
 37 97  1  0  0  0  0
 38 41  1  0  0  0  0
 38 98  1  0  0  0  0
 39 40  1  0  0  0  0
 39 42  1  0  0  0  0
 39 99  1  0  0  0  0
 40100  1  0  0  0  0
 40101  1  0  0  0  0
 41102  1  0  0  0  0
 41103  1  0  0  0  0
 41104  1  0  0  0  0
 42105  1  0  0  0  0
 42106  1  0  0  0  0
 42107  1  0  0  0  0
 43 44  1  0  0  0  0
 43108  1  0  0  0  0
 43109  1  0  0  0  0
 44 47  2  0  0  0  0
 44110  1  0  0  0  0
 45 46  1  0  0  0  0
 46111  1  0  0  0  0
 46112  1  0  0  0  0
 46113  1  0  0  0  0
 47114  1  0  0  0  0
 47115  1  0  0  0  0
M  END
> <PUBCHEM_COMPOUND_CID>
525146
> <PUBCHEM_COMPOUND_CANONICALIZED>
1
> <PUBCHEM_CACTVS_COMPLEXITY>
756
> <PUBCHEM_CACTVS_HBOND_ACCEPTOR>
12
> <PUBCHEM_CACTVS_HBOND_DONOR>
0
> <PUBCHEM_CACTVS_ROTATABLE_BOND>
33
> <PUBCHEM_CACTVS_SUBSKEYS>
AAADcfB8PAAAAAAAAAAAAAAAAAAAAAAAAAAAAAAAAAAAAAAAAAAAGgAAAAAACBSggAICCAAABACIACDSCAAAAAAAAAAIAAAAAAABBAAAIQACAAAAAAACIAAAAAAAAAAAAAAAAAAAAAAAAAAAAAAAAAAAAA==
> <PUBCHEM_IUPAC_OPENEYE_NAME>
2-[2-[2-[2-[2-[2-[2-[2-[2-(2-allyloxypropoxy)propoxy]propoxy]propoxy]propoxy]propoxy]propoxy]propoxy]propoxy]propyl acetate
> <PUBCHEM_IUPAC_CAS_NAME>
acetic acid 2-[2-[2-[2-[2-[2-[2-[2-[2-(2-prop-2-enoxypropoxy)propoxy]propoxy]propoxy]propoxy]propoxy]propoxy]propoxy]propoxy]propyl ester
> <PUBCHEM_IUPAC_NAME_MARKUP>
2-[2-[2-[2-[2-[2-[2-[2-[2-(2-prop-2-enoxypropoxy)propoxy]propoxy]propoxy]propoxy]propoxy]propoxy]propoxy]propoxy]propyl acetate
> <PUBCHEM_IUPAC_NAME>
2-[2-[2-[2-[2-[2-[2-[2-[2-(2-prop-2-enoxypropoxy)propoxy]propoxy]propoxy]propoxy]propoxy]propoxy]propoxy]propoxy]propyl acetate
> <PUBCHEM_IUPAC_SYSTEMATIC_NAME>
2-[2-[2-[2-[2-[2-[2-[2-[2-(2-prop-2-enoxypropoxy)propoxy]propoxy]propoxy]propoxy]propoxy]propoxy]propoxy]propoxy]propyl ethanoate
> <PUBCHEM_IUPAC_TRADITIONAL_NAME>
acetic acid 2-[2-[2-[2-[2-[2-[2-[2-[2-(2-allyloxypropoxy)propoxy]propoxy]propoxy]propoxy]propoxy]propoxy]propoxy]propoxy]propyl ester
> <PUBCHEM_IUPAC_INCHI>
InChI=1S/C35H68O12/c1-13-14-37-25(2)15-38-26(3)16-39-27(4)17-40-28(5)18-41-29(6)19-42-30(7)20-43-31(8)21-44-32(9)22-45-33(10)23-46-34(11)24-47-35(12)36/h13,25-34H,1,14-24H2,2-12H3
> <PUBCHEM_IUPAC_INCHIKEY>
FZWQJASPROYVMK-UHFFFAOYSA-N
> <PUBCHEM_XLOGP3_AA>
3.6
> <PUBCHEM_EXACT_MASS>
680.47107760
> <PUBCHEM_MOLECULAR_FORMULA>
C35H68O12
> <PUBCHEM_MOLECULAR_WEIGHT>
680.9
> <PUBCHEM_OPENEYE_CAN_SMILES>
CC(COC(C)COC(C)COC(C)COC(C)COC(C)COC(C)COC(C)COC(C)COC(C)COC(=O)C)OCC=C
> <PUBCHEM_OPENEYE_ISO_SMILES>
CC(COC(C)COC(C)COC(C)COC(C)COC(C)COC(C)COC(C)COC(C)COC(C)COC(=O)C)OCC=C
> <PUBCHEM_CACTVS_TPSA>
119
> <PUBCHEM_MONOISOTOPIC_WEIGHT>
680.47107760
> <PUBCHEM_TOTAL_CHARGE>
0
> <PUBCHEM_HEAVY_ATOM_COUNT>
47
> <PUBCHEM_ATOM_DEF_STEREO_COUNT>
0
> <PUBCHEM_ATOM_UDEF_STEREO_COUNT>
10
> <PUBCHEM_BOND_DEF_STEREO_COUNT>
0
> <PUBCHEM_BOND_UDEF_STEREO_COUNT>
0
> <PUBCHEM_ISOTOPIC_ATOM_COUNT>
0
> <PUBCHEM_COMPONENT_COUNT>
1
> <PUBCHEM_CACTVS_TAUTO_COUNT>
-1
> <PUBCHEM_COORDINATE_TYPE>
1
5
255
> <PUBCHEM_BONDANNOTATIONS>
13  28  3
14  29  3
15  30  3
16  31  3
19  33  3
20  34  3
25  36  3
26  37  3
38  41  3
39  42  3
$$$$
