525168
  -OEChem-10302200292D
 73 72  0     1  0  0  0  0  0999 V2000
   11.5263   -0.2500    0.0000 O   0  0  0  0  0  0  0  0  0  0  0  0
    8.9282    0.2500    0.0000 O   0  0  0  0  0  0  0  0  0  0  0  0
   14.1244    0.2500    0.0000 O   0  0  0  0  0  0  0  0  0  0  0  0
    6.3301   -0.2500    0.0000 O   0  0  0  0  0  0  0  0  0  0  0  0
   16.7224   -0.2500    0.0000 O   0  0  0  0  0  0  0  0  0  0  0  0
    3.7320    0.2500    0.0000 O   0  0  0  0  0  0  0  0  0  0  0  0
   19.3205    0.2500    0.0000 O   0  0  0  0  0  0  0  0  0  0  0  0
    2.8660   -1.2500    0.0000 O   0  0  0  0  0  0  0  0  0  0  0  0
   20.1865   -1.2500    0.0000 O   0  0  0  0  0  0  0  0  0  0  0  0
   12.3923    0.2500    0.0000 C   0  0  3  0  0  0  0  0  0  0  0  0
    9.7942   -0.2500    0.0000 C   0  0  3  0  0  0  0  0  0  0  0  0
   10.6603    0.2500    0.0000 C   0  0  0  0  0  0  0  0  0  0  0  0
   13.2583   -0.2500    0.0000 C   0  0  0  0  0  0  0  0  0  0  0  0
   14.9904   -0.2500    0.0000 C   0  0  3  0  0  0  0  0  0  0  0  0
    7.1962    0.2500    0.0000 C   0  0  3  0  0  0  0  0  0  0  0  0
    8.0622   -0.2500    0.0000 C   0  0  0  0  0  0  0  0  0  0  0  0
   15.8564    0.2500    0.0000 C   0  0  0  0  0  0  0  0  0  0  0  0
   12.3923    1.2500    0.0000 C   0  0  0  0  0  0  0  0  0  0  0  0
    9.7942   -1.2500    0.0000 C   0  0  0  0  0  0  0  0  0  0  0  0
   17.5885    0.2500    0.0000 C   0  0  3  0  0  0  0  0  0  0  0  0
   14.9904   -1.2500    0.0000 C   0  0  0  0  0  0  0  0  0  0  0  0
    5.4641    0.2500    0.0000 C   0  0  0  0  0  0  0  0  0  0  0  0
    7.1962    1.2500    0.0000 C   0  0  0  0  0  0  0  0  0  0  0  0
    4.5981   -0.2500    0.0000 C   0  0  3  0  0  0  0  0  0  0  0  0
   18.4545   -0.2500    0.0000 C   0  0  0  0  0  0  0  0  0  0  0  0
   17.5885    1.2500    0.0000 C   0  0  0  0  0  0  0  0  0  0  0  0
    4.5981   -1.2500    0.0000 C   0  0  0  0  0  0  0  0  0  0  0  0
    2.8660   -0.2500    0.0000 C   0  0  0  0  0  0  0  0  0  0  0  0
   20.1865   -0.2500    0.0000 C   0  0  0  0  0  0  0  0  0  0  0  0
    2.0000    0.2500    0.0000 C   0  0  0  0  0  0  0  0  0  0  0  0
   21.0526    0.2500    0.0000 C   0  0  0  0  0  0  0  0  0  0  0  0
   11.8554    0.5600    0.0000 H   0  0  0  0  0  0  0  0  0  0  0  0
    9.2573   -0.5600    0.0000 H   0  0  0  0  0  0  0  0  0  0  0  0
   11.0588    0.7249    0.0000 H   0  0  0  0  0  0  0  0  0  0  0  0
   10.2617    0.7249    0.0000 H   0  0  0  0  0  0  0  0  0  0  0  0
   12.8598   -0.7249    0.0000 H   0  0  0  0  0  0  0  0  0  0  0  0
   13.6569   -0.7249    0.0000 H   0  0  0  0  0  0  0  0  0  0  0  0
   14.9904    0.3700    0.0000 H   0  0  0  0  0  0  0  0  0  0  0  0
    6.6592    0.5600    0.0000 H   0  0  0  0  0  0  0  0  0  0  0  0
    7.6636   -0.7249    0.0000 H   0  0  0  0  0  0  0  0  0  0  0  0
    8.4607   -0.7249    0.0000 H   0  0  0  0  0  0  0  0  0  0  0  0
   16.2549    0.7249    0.0000 H   0  0  0  0  0  0  0  0  0  0  0  0
   15.4579    0.7249    0.0000 H   0  0  0  0  0  0  0  0  0  0  0  0
   13.0123    1.2500    0.0000 H   0  0  0  0  0  0  0  0  0  0  0  0
   12.3923    1.8700    0.0000 H   0  0  0  0  0  0  0  0  0  0  0  0
   11.7723    1.2500    0.0000 H   0  0  0  0  0  0  0  0  0  0  0  0
    9.1742   -1.2500    0.0000 H   0  0  0  0  0  0  0  0  0  0  0  0
    9.7942   -1.8700    0.0000 H   0  0  0  0  0  0  0  0  0  0  0  0
   10.4142   -1.2500    0.0000 H   0  0  0  0  0  0  0  0  0  0  0  0
   17.5885   -0.3700    0.0000 H   0  0  0  0  0  0  0  0  0  0  0  0
   14.3704   -1.2500    0.0000 H   0  0  0  0  0  0  0  0  0  0  0  0
   14.9904   -1.8700    0.0000 H   0  0  0  0  0  0  0  0  0  0  0  0
   15.6104   -1.2500    0.0000 H   0  0  0  0  0  0  0  0  0  0  0  0
    5.8626    0.7249    0.0000 H   0  0  0  0  0  0  0  0  0  0  0  0
    5.0656    0.7249    0.0000 H   0  0  0  0  0  0  0  0  0  0  0  0
    7.8162    1.2500    0.0000 H   0  0  0  0  0  0  0  0  0  0  0  0
    7.1962    1.8700    0.0000 H   0  0  0  0  0  0  0  0  0  0  0  0
    6.5762    1.2500    0.0000 H   0  0  0  0  0  0  0  0  0  0  0  0
    4.5981    0.3700    0.0000 H   0  0  0  0  0  0  0  0  0  0  0  0
   18.0560   -0.7249    0.0000 H   0  0  0  0  0  0  0  0  0  0  0  0
   18.8530   -0.7249    0.0000 H   0  0  0  0  0  0  0  0  0  0  0  0
   18.2085    1.2500    0.0000 H   0  0  0  0  0  0  0  0  0  0  0  0
   17.5885    1.8700    0.0000 H   0  0  0  0  0  0  0  0  0  0  0  0
   16.9685    1.2500    0.0000 H   0  0  0  0  0  0  0  0  0  0  0  0
    3.9781   -1.2500    0.0000 H   0  0  0  0  0  0  0  0  0  0  0  0
    4.5981   -1.8700    0.0000 H   0  0  0  0  0  0  0  0  0  0  0  0
    5.2181   -1.2500    0.0000 H   0  0  0  0  0  0  0  0  0  0  0  0
    2.3100    0.7869    0.0000 H   0  0  0  0  0  0  0  0  0  0  0  0
    1.4631    0.5600    0.0000 H   0  0  0  0  0  0  0  0  0  0  0  0
    1.6900   -0.2869    0.0000 H   0  0  0  0  0  0  0  0  0  0  0  0
   21.3626   -0.2869    0.0000 H   0  0  0  0  0  0  0  0  0  0  0  0
   21.5895    0.5600    0.0000 H   0  0  0  0  0  0  0  0  0  0  0  0
   20.7426    0.7869    0.0000 H   0  0  0  0  0  0  0  0  0  0  0  0
  1 10  1  0  0  0  0
  1 12  1  0  0  0  0
  2 11  1  0  0  0  0
  2 16  1  0  0  0  0
  3 13  1  0  0  0  0
  3 14  1  0  0  0  0
  4 15  1  0  0  0  0
  4 22  1  0  0  0  0
  5 17  1  0  0  0  0
  5 20  1  0  0  0  0
  6 24  1  0  0  0  0
  6 28  1  0  0  0  0
  7 25  1  0  0  0  0
  7 29  1  0  0  0  0
  8 28  2  0  0  0  0
  9 29  2  0  0  0  0
 10 13  1  0  0  0  0
 10 18  1  0  0  0  0
 10 32  1  0  0  0  0
 11 12  1  0  0  0  0
 11 19  1  0  0  0  0
 11 33  1  0  0  0  0
 12 34  1  0  0  0  0
 12 35  1  0  0  0  0
 13 36  1  0  0  0  0
 13 37  1  0  0  0  0
 14 17  1  0  0  0  0
 14 21  1  0  0  0  0
 14 38  1  0  0  0  0
 15 16  1  0  0  0  0
 15 23  1  0  0  0  0
 15 39  1  0  0  0  0
 16 40  1  0  0  0  0
 16 41  1  0  0  0  0
 17 42  1  0  0  0  0
 17 43  1  0  0  0  0
 18 44  1  0  0  0  0
 18 45  1  0  0  0  0
 18 46  1  0  0  0  0
 19 47  1  0  0  0  0
 19 48  1  0  0  0  0
 19 49  1  0  0  0  0
 20 25  1  0  0  0  0
 20 26  1  0  0  0  0
 20 50  1  0  0  0  0
 21 51  1  0  0  0  0
 21 52  1  0  0  0  0
 21 53  1  0  0  0  0
 22 24  1  0  0  0  0
 22 54  1  0  0  0  0
 22 55  1  0  0  0  0
 23 56  1  0  0  0  0
 23 57  1  0  0  0  0
 23 58  1  0  0  0  0
 24 27  1  0  0  0  0
 24 59  1  0  0  0  0
 25 60  1  0  0  0  0
 25 61  1  0  0  0  0
 26 62  1  0  0  0  0
 26 63  1  0  0  0  0
 26 64  1  0  0  0  0
 27 65  1  0  0  0  0
 27 66  1  0  0  0  0
 27 67  1  0  0  0  0
 28 30  1  0  0  0  0
 29 31  1  0  0  0  0
 30 68  1  0  0  0  0
 30 69  1  0  0  0  0
 30 70  1  0  0  0  0
 31 71  1  0  0  0  0
 31 72  1  0  0  0  0
 31 73  1  0  0  0  0
M  END
> <PUBCHEM_COMPOUND_CID>
525168
> <PUBCHEM_COMPOUND_CANONICALIZED>
1
> <PUBCHEM_CACTVS_COMPLEXITY>
486
> <PUBCHEM_CACTVS_HBOND_ACCEPTOR>
9
> <PUBCHEM_CACTVS_HBOND_DONOR>
0
> <PUBCHEM_CACTVS_ROTATABLE_BOND>
20
> <PUBCHEM_CACTVS_SUBSKEYS>
AAADcfB4PAAAAAAAAAAAAAAAAAAAAAAAAAAAAAAAAAAAAAAAAAAAGgAAAAAACBSggAICCAAABAAIAACQCAAAAAAAAAAAAAAAAAABAAAAAAACAAAAAAACAAAAAAAAAAAAAAAAAAAAAAAAAAAAAAAAAAAAAA==
> <PUBCHEM_IUPAC_OPENEYE_NAME>
2-[2-[2-[2-[2-(2-acetoxypropoxy)propoxy]propoxy]propoxy]propoxy]propyl acetate
> <PUBCHEM_IUPAC_CAS_NAME>
acetic acid 2-[2-[2-[2-[2-(2-acetyloxypropoxy)propoxy]propoxy]propoxy]propoxy]propyl ester
> <PUBCHEM_IUPAC_NAME_MARKUP>
2-[2-[2-[2-[2-(2-acetyloxypropoxy)propoxy]propoxy]propoxy]propoxy]propyl acetate
> <PUBCHEM_IUPAC_NAME>
2-[2-[2-[2-[2-(2-acetyloxypropoxy)propoxy]propoxy]propoxy]propoxy]propyl acetate
> <PUBCHEM_IUPAC_SYSTEMATIC_NAME>
2-[2-[2-[2-[2-(2-acetyloxypropoxy)propoxy]propoxy]propoxy]propoxy]propyl ethanoate
> <PUBCHEM_IUPAC_TRADITIONAL_NAME>
acetic acid 2-[2-[2-[2-[2-(2-acetoxypropoxy)propoxy]propoxy]propoxy]propoxy]propyl ester
> <PUBCHEM_IUPAC_INCHI>
InChI=1S/C22H42O9/c1-15(9-26-17(3)11-28-19(5)13-30-21(7)23)25-10-16(2)27-12-18(4)29-14-20(6)31-22(8)24/h15-20H,9-14H2,1-8H3
> <PUBCHEM_IUPAC_INCHIKEY>
XRODWTVLWCGTKT-UHFFFAOYSA-N
> <PUBCHEM_XLOGP3_AA>
1.9
> <PUBCHEM_EXACT_MASS>
450.28288291
> <PUBCHEM_MOLECULAR_FORMULA>
C22H42O9
> <PUBCHEM_MOLECULAR_WEIGHT>
450.6
> <PUBCHEM_OPENEYE_CAN_SMILES>
CC(COC(C)COC(C)COC(C)COC(=O)C)OCC(C)OCC(C)OC(=O)C
> <PUBCHEM_OPENEYE_ISO_SMILES>
CC(COC(C)COC(C)COC(C)COC(=O)C)OCC(C)OCC(C)OC(=O)C
> <PUBCHEM_CACTVS_TPSA>
98.8
> <PUBCHEM_MONOISOTOPIC_WEIGHT>
450.28288291
> <PUBCHEM_TOTAL_CHARGE>
0
> <PUBCHEM_HEAVY_ATOM_COUNT>
31
> <PUBCHEM_ATOM_DEF_STEREO_COUNT>
0
> <PUBCHEM_ATOM_UDEF_STEREO_COUNT>
6
> <PUBCHEM_BOND_DEF_STEREO_COUNT>
0
> <PUBCHEM_BOND_UDEF_STEREO_COUNT>
0
> <PUBCHEM_ISOTOPIC_ATOM_COUNT>
0
> <PUBCHEM_COMPONENT_COUNT>
1
> <PUBCHEM_CACTVS_TAUTO_COUNT>
-1
> <PUBCHEM_COORDINATE_TYPE>
1
5
255
> <PUBCHEM_BONDANNOTATIONS>
10  18  3
11  19  3
14  21  3
15  23  3
20  26  3
24  27  3
$$$$
