525130
  -OEChem-10302200292D
 99101  0     1  0  0  0  0  0999 V2000
    6.2180    2.5797    0.0000 O   0  0  0  0  0  0  0  0  0  0  0  0
    8.0622    1.8718    0.0000 O   0  0  0  0  0  0  0  0  0  0  0  0
    7.1962    0.3718    0.0000 O   0  0  0  0  0  0  0  0  0  0  0  0
    8.6907    3.3423    0.0000 O   0  0  0  0  0  0  0  0  0  0  0  0
    7.2349    4.9591    0.0000 O   0  0  0  0  0  0  0  0  0  0  0  0
    9.7942    0.8718    0.0000 O   0  0  0  0  0  0  0  0  0  0  0  0
    6.3301   -2.1282    0.0000 O   0  0  0  0  0  0  0  0  0  0  0  0
    9.7942   -1.1282    0.0000 O   0  0  0  0  0  0  0  0  0  0  0  0
    8.0622   -2.1282    0.0000 O   0  0  0  0  0  0  0  0  0  0  0  0
    4.5981   -2.1282    0.0000 O   0  0  0  0  0  0  0  0  0  0  0  0
    6.0372    1.0846    0.0000 O   0  0  0  0  0  0  0  0  0  0  0  0
    4.3814    3.5742    0.0000 O   0  0  0  0  0  0  0  0  0  0  0  0
    6.3301   -4.1282    0.0000 O   0  0  0  0  0  0  0  0  0  0  0  0
    4.5981   -5.1282    0.0000 O   0  0  0  0  0  0  0  0  0  0  0  0
    2.8660   -4.1282    0.0000 O   0  0  0  0  0  0  0  0  0  0  0  0
    2.8660   -1.1282    0.0000 O   0  0  0  0  0  0  0  0  0  0  0  0
    7.1962    2.3718    0.0000 C   0  0  3  0  0  0  0  0  0  0  0  0
    7.6962    3.2378    0.0000 C   0  0  3  0  0  0  0  0  0  0  0  0
    7.0270    3.9810    0.0000 C   0  0  3  0  0  0  0  0  0  0  0  0
    6.1135    3.5742    0.0000 C   0  0  3  0  0  0  0  0  0  0  0  0
    8.0622    0.8718    0.0000 C   0  0  3  0  0  0  0  0  0  0  0  0
    8.9282    0.3718    0.0000 C   0  0  3  0  0  0  0  0  0  0  0  0
    8.9282   -0.6282    0.0000 C   0  0  3  0  0  0  0  0  0  0  0  0
    8.0622   -1.1282    0.0000 C   0  0  3  0  0  0  0  0  0  0  0  0
    7.1962   -0.6282    0.0000 C   0  0  3  0  0  0  0  0  0  0  0  0
    6.9882    1.3936    0.0000 C   0  0  0  0  0  0  0  0  0  0  0  0
    6.3301   -1.1282    0.0000 C   0  0  0  0  0  0  0  0  0  0  0  0
    5.2474    4.0742    0.0000 C   0  0  0  0  0  0  0  0  0  0  0  0
    5.4641   -2.6282    0.0000 C   0  0  3  0  0  0  0  0  0  0  0  0
    5.4641   -3.6282    0.0000 C   0  0  3  0  0  0  0  0  0  0  0  0
    4.5981   -4.1282    0.0000 C   0  0  3  0  0  0  0  0  0  0  0  0
    3.7320   -3.6282    0.0000 C   0  0  3  0  0  0  0  0  0  0  0  0
    3.7320   -2.6282    0.0000 C   0  0  3  0  0  0  0  0  0  0  0  0
    2.8660   -2.1282    0.0000 C   0  0  0  0  0  0  0  0  0  0  0  0
    9.0974    4.2559    0.0000 C   0  0  0  0  0  0  0  0  0  0  0  0
    6.4918    5.6282    0.0000 C   0  0  0  0  0  0  0  0  0  0  0  0
   10.6603    0.3718    0.0000 C   0  0  0  0  0  0  0  0  0  0  0  0
    9.7942   -2.1282    0.0000 C   0  0  0  0  0  0  0  0  0  0  0  0
    8.9282   -2.6282    0.0000 C   0  0  0  0  0  0  0  0  0  0  0  0
    5.8293    0.1065    0.0000 C   0  0  0  0  0  0  0  0  0  0  0  0
    3.5154    4.0742    0.0000 C   0  0  0  0  0  0  0  0  0  0  0  0
    7.1962   -3.6282    0.0000 C   0  0  0  0  0  0  0  0  0  0  0  0
    3.7320   -5.6282    0.0000 C   0  0  0  0  0  0  0  0  0  0  0  0
    2.0000   -3.6282    0.0000 C   0  0  0  0  0  0  0  0  0  0  0  0
    2.0000   -0.6282    0.0000 C   0  0  0  0  0  0  0  0  0  0  0  0
    7.9183    3.8166    0.0000 H   0  0  0  0  0  0  0  0  0  0  0  0
    7.6259    4.1414    0.0000 H   0  0  0  0  0  0  0  0  0  0  0  0
    5.5935    3.2365    0.0000 H   0  0  0  0  0  0  0  0  0  0  0  0
    7.5252    1.1818    0.0000 H   0  0  0  0  0  0  0  0  0  0  0  0
    9.4651    0.0618    0.0000 H   0  0  0  0  0  0  0  0  0  0  0  0
    8.9282   -1.2482    0.0000 H   0  0  0  0  0  0  0  0  0  0  0  0
    7.5252   -1.4382    0.0000 H   0  0  0  0  0  0  0  0  0  0  0  0
    6.6592   -0.3182    0.0000 H   0  0  0  0  0  0  0  0  0  0  0  0
    7.0745    0.7797    0.0000 H   0  0  0  0  0  0  0  0  0  0  0  0
    7.6079    1.3720    0.0000 H   0  0  0  0  0  0  0  0  0  0  0  0
    6.1181   -0.5456    0.0000 H   0  0  0  0  0  0  0  0  0  0  0  0
    5.7196   -1.2359    0.0000 H   0  0  0  0  0  0  0  0  0  0  0  0
    5.6460    4.5492    0.0000 H   0  0  0  0  0  0  0  0  0  0  0  0
    4.8489    4.5492    0.0000 H   0  0  0  0  0  0  0  0  0  0  0  0
    5.4641   -2.0082    0.0000 H   0  0  0  0  0  0  0  0  0  0  0  0
    6.0010   -3.3182    0.0000 H   0  0  0  0  0  0  0  0  0  0  0  0
    5.1350   -4.4382    0.0000 H   0  0  0  0  0  0  0  0  0  0  0  0
    3.1951   -3.3182    0.0000 H   0  0  0  0  0  0  0  0  0  0  0  0
    3.7320   -2.0082    0.0000 H   0  0  0  0  0  0  0  0  0  0  0  0
    2.2554   -2.0206    0.0000 H   0  0  0  0  0  0  0  0  0  0  0  0
    2.6540   -2.7108    0.0000 H   0  0  0  0  0  0  0  0  0  0  0  0
    9.6638    4.0037    0.0000 H   0  0  0  0  0  0  0  0  0  0  0  0
    9.3496    4.8223    0.0000 H   0  0  0  0  0  0  0  0  0  0  0  0
    8.5310    4.5080    0.0000 H   0  0  0  0  0  0  0  0  0  0  0  0
    6.9066    6.0890    0.0000 H   0  0  0  0  0  0  0  0  0  0  0  0
    6.0310    6.0431    0.0000 H   0  0  0  0  0  0  0  0  0  0  0  0
    6.0769    5.1675    0.0000 H   0  0  0  0  0  0  0  0  0  0  0  0
   10.3503   -0.1652    0.0000 H   0  0  0  0  0  0  0  0  0  0  0  0
   11.1972    0.0618    0.0000 H   0  0  0  0  0  0  0  0  0  0  0  0
   10.9703    0.9087    0.0000 H   0  0  0  0  0  0  0  0  0  0  0  0
    9.1742   -2.1282    0.0000 H   0  0  0  0  0  0  0  0  0  0  0  0
    9.7942   -2.7482    0.0000 H   0  0  0  0  0  0  0  0  0  0  0  0
   10.4142   -2.1282    0.0000 H   0  0  0  0  0  0  0  0  0  0  0  0
    8.6182   -3.1652    0.0000 H   0  0  0  0  0  0  0  0  0  0  0  0
    9.4651   -2.9382    0.0000 H   0  0  0  0  0  0  0  0  0  0  0  0
    9.2382   -2.0913    0.0000 H   0  0  0  0  0  0  0  0  0  0  0  0
    5.2228    0.2354    0.0000 H   0  0  0  0  0  0  0  0  0  0  0  0
    5.7004   -0.5000    0.0000 H   0  0  0  0  0  0  0  0  0  0  0  0
    6.4357   -0.0224    0.0000 H   0  0  0  0  0  0  0  0  0  0  0  0
    3.8254    4.6112    0.0000 H   0  0  0  0  0  0  0  0  0  0  0  0
    2.9785    4.3842    0.0000 H   0  0  0  0  0  0  0  0  0  0  0  0
    3.2054    3.5373    0.0000 H   0  0  0  0  0  0  0  0  0  0  0  0
    7.5062   -4.1652    0.0000 H   0  0  0  0  0  0  0  0  0  0  0  0
    7.7331   -3.3182    0.0000 H   0  0  0  0  0  0  0  0  0  0  0  0
    6.8862   -3.0913    0.0000 H   0  0  0  0  0  0  0  0  0  0  0  0
    3.4220   -5.0913    0.0000 H   0  0  0  0  0  0  0  0  0  0  0  0
    3.1951   -5.9382    0.0000 H   0  0  0  0  0  0  0  0  0  0  0  0
    4.0420   -6.1652    0.0000 H   0  0  0  0  0  0  0  0  0  0  0  0
    2.3100   -3.0913    0.0000 H   0  0  0  0  0  0  0  0  0  0  0  0
    1.4631   -3.3182    0.0000 H   0  0  0  0  0  0  0  0  0  0  0  0
    1.6900   -4.1652    0.0000 H   0  0  0  0  0  0  0  0  0  0  0  0
    2.3100   -0.0913    0.0000 H   0  0  0  0  0  0  0  0  0  0  0  0
    1.4631   -0.3182    0.0000 H   0  0  0  0  0  0  0  0  0  0  0  0
    1.6900   -1.1652    0.0000 H   0  0  0  0  0  0  0  0  0  0  0  0
  1 17  1  0  0  0  0
  1 20  1  0  0  0  0
  2 17  1  0  0  0  0
  2 21  1  0  0  0  0
  3 21  1  0  0  0  0
  3 25  1  0  0  0  0
  4 18  1  0  0  0  0
  4 35  1  0  0  0  0
  5 19  1  0  0  0  0
  5 36  1  0  0  0  0
  6 22  1  0  0  0  0
  6 37  1  0  0  0  0
  7 27  1  0  0  0  0
  7 29  1  0  0  0  0
  8 23  1  0  0  0  0
  8 38  1  0  0  0  0
  9 24  1  0  0  0  0
  9 39  1  0  0  0  0
 10 29  1  0  0  0  0
 10 33  1  0  0  0  0
 11 26  1  0  0  0  0
 11 40  1  0  0  0  0
 12 28  1  0  0  0  0
 12 41  1  0  0  0  0
 13 30  1  0  0  0  0
 13 42  1  0  0  0  0
 14 31  1  0  0  0  0
 14 43  1  0  0  0  0
 15 32  1  0  0  0  0
 15 44  1  0  0  0  0
 16 34  1  0  0  0  0
 16 45  1  0  0  0  0
 17 18  1  0  0  0  0
 17 26  1  0  0  0  0
 18 19  1  0  0  0  0
 18 46  1  0  0  0  0
 19 20  1  0  0  0  0
 19 47  1  0  0  0  0
 20 28  1  0  0  0  0
 20 48  1  0  0  0  0
 21 22  1  0  0  0  0
 21 49  1  0  0  0  0
 22 23  1  0  0  0  0
 22 50  1  0  0  0  0
 23 24  1  0  0  0  0
 23 51  1  0  0  0  0
 24 25  1  0  0  0  0
 24 52  1  0  0  0  0
 25 27  1  0  0  0  0
 25 53  1  0  0  0  0
 26 54  1  0  0  0  0
 26 55  1  0  0  0  0
 27 56  1  0  0  0  0
 27 57  1  0  0  0  0
 28 58  1  0  0  0  0
 28 59  1  0  0  0  0
 29 30  1  0  0  0  0
 29 60  1  0  0  0  0
 30 31  1  0  0  0  0
 30 61  1  0  0  0  0
 31 32  1  0  0  0  0
 31 62  1  0  0  0  0
 32 33  1  0  0  0  0
 32 63  1  0  0  0  0
 33 34  1  0  0  0  0
 33 64  1  0  0  0  0
 34 65  1  0  0  0  0
 34 66  1  0  0  0  0
 35 67  1  0  0  0  0
 35 68  1  0  0  0  0
 35 69  1  0  0  0  0
 36 70  1  0  0  0  0
 36 71  1  0  0  0  0
 36 72  1  0  0  0  0
 37 73  1  0  0  0  0
 37 74  1  0  0  0  0
 37 75  1  0  0  0  0
 38 76  1  0  0  0  0
 38 77  1  0  0  0  0
 38 78  1  0  0  0  0
 39 79  1  0  0  0  0
 39 80  1  0  0  0  0
 39 81  1  0  0  0  0
 40 82  1  0  0  0  0
 40 83  1  0  0  0  0
 40 84  1  0  0  0  0
 41 85  1  0  0  0  0
 41 86  1  0  0  0  0
 41 87  1  0  0  0  0
 42 88  1  0  0  0  0
 42 89  1  0  0  0  0
 42 90  1  0  0  0  0
 43 91  1  0  0  0  0
 43 92  1  0  0  0  0
 43 93  1  0  0  0  0
 44 94  1  0  0  0  0
 44 95  1  0  0  0  0
 44 96  1  0  0  0  0
 45 97  1  0  0  0  0
 45 98  1  0  0  0  0
 45 99  1  0  0  0  0
M  END
> <PUBCHEM_COMPOUND_CID>
525130
> <PUBCHEM_COMPOUND_CANONICALIZED>
1
> <PUBCHEM_CACTVS_COMPLEXITY>
825
> <PUBCHEM_CACTVS_HBOND_ACCEPTOR>
16
> <PUBCHEM_CACTVS_HBOND_DONOR>
0
> <PUBCHEM_CACTVS_ROTATABLE_BOND>
19
> <PUBCHEM_CACTVS_SUBSKEYS>
AAADcfB4PgAAAAAAAAAAAAAAAAAAASAAAAAkSAAAAAAAAAAAAAAAGgAAAAAACBSwgAMCCAAABAAAAAAAAAAAAAAAAAAAAAAAAAARAAIAAAAiAAAFAAAGAAHAYAwAAAAAAAAAAAAAAAAAAAAAAAAAAAAAAA==
> <PUBCHEM_IUPAC_OPENEYE_NAME>
2-[3,4-dimethoxy-2,5-bis(methoxymethyl)tetrahydrofuran-2-yl]oxy-3,4,5-trimethoxy-6-[[3,4,5-trimethoxy-6-(methoxymethyl)tetrahydropyran-2-yl]oxymethyl]tetrahydropyran
> <PUBCHEM_IUPAC_CAS_NAME>
2-[[3,4-dimethoxy-2,5-bis(methoxymethyl)-2-oxolanyl]oxy]-3,4,5-trimethoxy-6-[[3,4,5-trimethoxy-6-(methoxymethyl)-2-oxanyl]oxymethyl]oxane
> <PUBCHEM_IUPAC_NAME_MARKUP>
2-[3,4-dimethoxy-2,5-bis(methoxymethyl)oxolan-2-yl]oxy-3,4,5-trimethoxy-6-[[3,4,5-trimethoxy-6-(methoxymethyl)oxan-2-yl]oxymethyl]oxane
> <PUBCHEM_IUPAC_NAME>
2-[3,4-dimethoxy-2,5-bis(methoxymethyl)oxolan-2-yl]oxy-3,4,5-trimethoxy-6-[[3,4,5-trimethoxy-6-(methoxymethyl)oxan-2-yl]oxymethyl]oxane
> <PUBCHEM_IUPAC_SYSTEMATIC_NAME>
2-[3,4-dimethoxy-2,5-bis(methoxymethyl)oxolan-2-yl]oxy-3,4,5-trimethoxy-6-[[3,4,5-trimethoxy-6-(methoxymethyl)oxan-2-yl]oxymethyl]oxane
> <PUBCHEM_IUPAC_TRADITIONAL_NAME>
2-[3,4-dimethoxy-2,5-bis(methoxymethyl)tetrahydrofuran-2-yl]oxy-3,4,5-trimethoxy-6-[[3,4,5-trimethoxy-6-(methoxymethyl)tetrahydropyran-2-yl]oxymethyl]tetrahydropyran
> <PUBCHEM_IUPAC_INCHI>
InChI=1S/C29H54O16/c1-30-12-16-19(33-4)22(36-7)24(38-9)27(42-16)41-14-17-20(34-5)23(37-8)25(39-10)28(43-17)45-29(15-32-3)26(40-11)21(35-6)18(44-29)13-31-2/h16-28H,12-15H2,1-11H3
> <PUBCHEM_IUPAC_INCHIKEY>
CODTYWQHUHJXKQ-UHFFFAOYSA-N
> <PUBCHEM_XLOGP3_AA>
-1.8
> <PUBCHEM_EXACT_MASS>
658.34118563
> <PUBCHEM_MOLECULAR_FORMULA>
C29H54O16
> <PUBCHEM_MOLECULAR_WEIGHT>
658.7
> <PUBCHEM_OPENEYE_CAN_SMILES>
COCC1C(C(C(C(O1)OCC2C(C(C(C(O2)OC3(C(C(C(O3)COC)OC)OC)COC)OC)OC)OC)OC)OC)OC
> <PUBCHEM_OPENEYE_ISO_SMILES>
COCC1C(C(C(C(O1)OCC2C(C(C(C(O2)OC3(C(C(C(O3)COC)OC)OC)COC)OC)OC)OC)OC)OC)OC
> <PUBCHEM_CACTVS_TPSA>
148
> <PUBCHEM_MONOISOTOPIC_WEIGHT>
658.34118563
> <PUBCHEM_TOTAL_CHARGE>
0
> <PUBCHEM_HEAVY_ATOM_COUNT>
45
> <PUBCHEM_ATOM_DEF_STEREO_COUNT>
0
> <PUBCHEM_ATOM_UDEF_STEREO_COUNT>
14
> <PUBCHEM_BOND_DEF_STEREO_COUNT>
0
> <PUBCHEM_BOND_UDEF_STEREO_COUNT>
0
> <PUBCHEM_ISOTOPIC_ATOM_COUNT>
0
> <PUBCHEM_COMPONENT_COUNT>
1
> <PUBCHEM_CACTVS_TAUTO_COUNT>
-1
> <PUBCHEM_COORDINATE_TYPE>
1
5
255
> <PUBCHEM_BONDANNOTATIONS>
30  13  3
31  14  3
32  15  3
17  26  3
21  2  3
20  28  3
25  27  3
33  34  3
18  4  3
19  5  3
22  6  3
29  7  3
23  8  3
24  9  3
$$$$
