525100
  -OEChem-10302200292D
 38 37  0     1  0  0  0  0  0999 V2000
    3.2320    0.9330    0.0000 Cl  0  0  0  0  0  0  0  0  0  0  0  0
    2.0000    0.0670    0.0000 Cl  0  0  0  0  0  0  0  0  0  0  0  0
    4.5981    0.5670    0.0000 O   0  0  0  0  0  0  0  0  0  0  0  0
    5.4641   -0.9330    0.0000 O   0  0  0  0  0  0  0  0  0  0  0  0
    8.9282    0.0670    0.0000 C   0  0  0  0  0  0  0  0  0  0  0  0
    8.0622    0.5670    0.0000 C   0  0  0  0  0  0  0  0  0  0  0  0
    9.7942    0.5670    0.0000 C   0  0  0  0  0  0  0  0  0  0  0  0
    7.1962    0.0670    0.0000 C   0  0  0  0  0  0  0  0  0  0  0  0
   10.6603    0.0670    0.0000 C   0  0  0  0  0  0  0  0  0  0  0  0
    6.3301    0.5670    0.0000 C   0  0  0  0  0  0  0  0  0  0  0  0
   11.5263    0.5670    0.0000 C   0  0  0  0  0  0  0  0  0  0  0  0
    5.4641    0.0670    0.0000 C   0  0  0  0  0  0  0  0  0  0  0  0
   12.3923    0.0670    0.0000 C   0  0  0  0  0  0  0  0  0  0  0  0
    3.7320    0.0670    0.0000 C   0  0  3  0  0  0  0  0  0  0  0  0
    2.8660   -0.4330    0.0000 C   0  0  0  0  0  0  0  0  0  0  0  0
    4.2320   -0.7990    0.0000 C   0  0  0  0  0  0  0  0  0  0  0  0
    8.5297   -0.4080    0.0000 H   0  0  0  0  0  0  0  0  0  0  0  0
    9.3267   -0.4080    0.0000 H   0  0  0  0  0  0  0  0  0  0  0  0
    8.4607    1.0419    0.0000 H   0  0  0  0  0  0  0  0  0  0  0  0
    7.6636    1.0419    0.0000 H   0  0  0  0  0  0  0  0  0  0  0  0
   10.1928    1.0419    0.0000 H   0  0  0  0  0  0  0  0  0  0  0  0
    9.3957    1.0419    0.0000 H   0  0  0  0  0  0  0  0  0  0  0  0
    6.7976   -0.4080    0.0000 H   0  0  0  0  0  0  0  0  0  0  0  0
    7.5947   -0.4080    0.0000 H   0  0  0  0  0  0  0  0  0  0  0  0
   10.2617   -0.4080    0.0000 H   0  0  0  0  0  0  0  0  0  0  0  0
   11.0588   -0.4080    0.0000 H   0  0  0  0  0  0  0  0  0  0  0  0
    6.7287    1.0419    0.0000 H   0  0  0  0  0  0  0  0  0  0  0  0
    5.9316    1.0419    0.0000 H   0  0  0  0  0  0  0  0  0  0  0  0
   11.9248    1.0419    0.0000 H   0  0  0  0  0  0  0  0  0  0  0  0
   11.1278    1.0419    0.0000 H   0  0  0  0  0  0  0  0  0  0  0  0
   12.0823   -0.4699    0.0000 H   0  0  0  0  0  0  0  0  0  0  0  0
   12.9292   -0.2430    0.0000 H   0  0  0  0  0  0  0  0  0  0  0  0
   12.7023    0.6039    0.0000 H   0  0  0  0  0  0  0  0  0  0  0  0
    2.4675   -0.9080    0.0000 H   0  0  0  0  0  0  0  0  0  0  0  0
    3.2646   -0.9080    0.0000 H   0  0  0  0  0  0  0  0  0  0  0  0
    3.6951   -1.1090    0.0000 H   0  0  0  0  0  0  0  0  0  0  0  0
    4.5420   -1.3360    0.0000 H   0  0  0  0  0  0  0  0  0  0  0  0
    4.7690   -0.4890    0.0000 H   0  0  0  0  0  0  0  0  0  0  0  0
  1 14  1  0  0  0  0
  2 15  1  0  0  0  0
  3 12  1  0  0  0  0
  3 14  1  0  0  0  0
  4 12  2  0  0  0  0
  5  6  1  0  0  0  0
  5  7  1  0  0  0  0
  5 17  1  0  0  0  0
  5 18  1  0  0  0  0
  6  8  1  0  0  0  0
  6 19  1  0  0  0  0
  6 20  1  0  0  0  0
  7  9  1  0  0  0  0
  7 21  1  0  0  0  0
  7 22  1  0  0  0  0
  8 10  1  0  0  0  0
  8 23  1  0  0  0  0
  8 24  1  0  0  0  0
  9 11  1  0  0  0  0
  9 25  1  0  0  0  0
  9 26  1  0  0  0  0
 10 12  1  0  0  0  0
 10 27  1  0  0  0  0
 10 28  1  0  0  0  0
 11 13  1  0  0  0  0
 11 29  1  0  0  0  0
 11 30  1  0  0  0  0
 13 31  1  0  0  0  0
 13 32  1  0  0  0  0
 13 33  1  0  0  0  0
 14 15  1  0  0  0  0
 14 16  1  0  0  0  0
 15 34  1  0  0  0  0
 15 35  1  0  0  0  0
 16 36  1  0  0  0  0
 16 37  1  0  0  0  0
 16 38  1  0  0  0  0
M  END
> <PUBCHEM_COMPOUND_CID>
525100
> <PUBCHEM_COMPOUND_CANONICALIZED>
1
> <PUBCHEM_CACTVS_COMPLEXITY>
198
> <PUBCHEM_CACTVS_HBOND_ACCEPTOR>
2
> <PUBCHEM_CACTVS_HBOND_DONOR>
0
> <PUBCHEM_CACTVS_ROTATABLE_BOND>
10
> <PUBCHEM_CACTVS_SUBSKEYS>
AAADceBwMAAGAAAAAAAAAAAAAAAAAAAAAAAAAAAAAAAAAAAAAAAAGgIAAAAACAeAgEACCAAABAAIAACQCAAAAAAAAAAAAEEAAwAAABIAAAACAAAEAAAAAAGIyKCAAAAAAAAAAAAAAAAAAAAAAAAAAAAAAA==
> <PUBCHEM_IUPAC_OPENEYE_NAME>
(1,2-dichloro-1-methyl-ethyl) nonanoate
> <PUBCHEM_IUPAC_CAS_NAME>
nonanoic acid 1,2-dichloropropan-2-yl ester
> <PUBCHEM_IUPAC_NAME_MARKUP>
1,2-dichloropropan-2-yl nonanoate
> <PUBCHEM_IUPAC_NAME>
1,2-dichloropropan-2-yl nonanoate
> <PUBCHEM_IUPAC_SYSTEMATIC_NAME>
1,2-bis(chloranyl)propan-2-yl nonanoate
> <PUBCHEM_IUPAC_TRADITIONAL_NAME>
pelargonic acid (1,2-dichloro-1-methyl-ethyl) ester
> <PUBCHEM_IUPAC_INCHI>
InChI=1S/C12H22Cl2O2/c1-3-4-5-6-7-8-9-11(15)16-12(2,14)10-13/h3-10H2,1-2H3
> <PUBCHEM_IUPAC_INCHIKEY>
PQYSXGKADZLVDO-UHFFFAOYSA-N
> <PUBCHEM_XLOGP3_AA>
5.2
> <PUBCHEM_EXACT_MASS>
268.0996853
> <PUBCHEM_MOLECULAR_FORMULA>
C12H22Cl2O2
> <PUBCHEM_MOLECULAR_WEIGHT>
269.20
> <PUBCHEM_OPENEYE_CAN_SMILES>
CCCCCCCCC(=O)OC(C)(CCl)Cl
> <PUBCHEM_OPENEYE_ISO_SMILES>
CCCCCCCCC(=O)OC(C)(CCl)Cl
> <PUBCHEM_CACTVS_TPSA>
26.3
> <PUBCHEM_MONOISOTOPIC_WEIGHT>
268.0996853
> <PUBCHEM_TOTAL_CHARGE>
0
> <PUBCHEM_HEAVY_ATOM_COUNT>
16
> <PUBCHEM_ATOM_DEF_STEREO_COUNT>
0
> <PUBCHEM_ATOM_UDEF_STEREO_COUNT>
1
> <PUBCHEM_BOND_DEF_STEREO_COUNT>
0
> <PUBCHEM_BOND_UDEF_STEREO_COUNT>
0
> <PUBCHEM_ISOTOPIC_ATOM_COUNT>
0
> <PUBCHEM_COMPONENT_COUNT>
1
> <PUBCHEM_CACTVS_TAUTO_COUNT>
-1
> <PUBCHEM_COORDINATE_TYPE>
1
5
255
> <PUBCHEM_BONDANNOTATIONS>
14  1  3
$$$$
