525209
  -OEChem-10302200292D
 20 19  0     1  0  0  0  0  0999 V2000
    8.0622   -0.2500    0.0000 Cl  0  0  0  0  0  0  0  0  0  0  0  0
    2.0000    0.2500    0.0000 Cl  0  0  0  0  0  0  0  0  0  0  0  0
    3.7320    0.2500    0.0000 O   0  0  0  0  0  0  0  0  0  0  0  0
    4.5981   -1.2500    0.0000 O   0  0  0  0  0  0  0  0  0  0  0  0
    6.3301   -0.2500    0.0000 C   0  0  0  0  0  0  0  0  0  0  0  0
    7.1962    0.2500    0.0000 C   0  0  3  0  0  0  0  0  0  0  0  0
    5.4641    0.2500    0.0000 C   0  0  0  0  0  0  0  0  0  0  0  0
    7.1962    1.2500    0.0000 C   0  0  0  0  0  0  0  0  0  0  0  0
    4.5981   -0.2500    0.0000 C   0  0  0  0  0  0  0  0  0  0  0  0
    2.8660   -0.2500    0.0000 C   0  0  0  0  0  0  0  0  0  0  0  0
    5.9316   -0.7249    0.0000 H   0  0  0  0  0  0  0  0  0  0  0  0
    6.7287   -0.7249    0.0000 H   0  0  0  0  0  0  0  0  0  0  0  0
    7.7331    0.5600    0.0000 H   0  0  0  0  0  0  0  0  0  0  0  0
    5.8626    0.7249    0.0000 H   0  0  0  0  0  0  0  0  0  0  0  0
    5.0656    0.7249    0.0000 H   0  0  0  0  0  0  0  0  0  0  0  0
    7.8162    1.2500    0.0000 H   0  0  0  0  0  0  0  0  0  0  0  0
    7.1962    1.8700    0.0000 H   0  0  0  0  0  0  0  0  0  0  0  0
    6.5762    1.2500    0.0000 H   0  0  0  0  0  0  0  0  0  0  0  0
    2.4675   -0.7249    0.0000 H   0  0  0  0  0  0  0  0  0  0  0  0
    3.2646   -0.7249    0.0000 H   0  0  0  0  0  0  0  0  0  0  0  0
  1  6  1  0  0  0  0
  2 10  1  0  0  0  0
  3  9  1  0  0  0  0
  3 10  1  0  0  0  0
  4  9  2  0  0  0  0
  5  6  1  0  0  0  0
  5  7  1  0  0  0  0
  5 11  1  0  0  0  0
  5 12  1  0  0  0  0
  6  8  1  0  0  0  0
  6 13  1  0  0  0  0
  7  9  1  0  0  0  0
  7 14  1  0  0  0  0
  7 15  1  0  0  0  0
  8 16  1  0  0  0  0
  8 17  1  0  0  0  0
  8 18  1  0  0  0  0
 10 19  1  0  0  0  0
 10 20  1  0  0  0  0
M  END
> <PUBCHEM_COMPOUND_CID>
525209
> <PUBCHEM_COMPOUND_CANONICALIZED>
1
> <PUBCHEM_CACTVS_COMPLEXITY>
106
> <PUBCHEM_CACTVS_HBOND_ACCEPTOR>
2
> <PUBCHEM_CACTVS_HBOND_DONOR>
0
> <PUBCHEM_CACTVS_ROTATABLE_BOND>
5
> <PUBCHEM_CACTVS_SUBSKEYS>
AAADccBgMAAGAAAAAAAAAAAAAAAAAAAAAAAAAAAAAAAAAAAAAAAAGgIAAAAACAOAgEICCAAABAAIAACQCAAAAAAAAAAAAAEAAgAAABIBAAAAAAAEAAAAAACIAAAAAAAAAAAAAAAAAAAAAAAAAAAAAAAAAA==
> <PUBCHEM_IUPAC_OPENEYE_NAME>
chloromethyl 4-chloropentanoate
> <PUBCHEM_IUPAC_CAS_NAME>
4-chloropentanoic acid chloromethyl ester
> <PUBCHEM_IUPAC_NAME_MARKUP>
chloromethyl 4-chloropentanoate
> <PUBCHEM_IUPAC_NAME>
chloromethyl 4-chloropentanoate
> <PUBCHEM_IUPAC_SYSTEMATIC_NAME>
chloromethyl 4-chloranylpentanoate
> <PUBCHEM_IUPAC_TRADITIONAL_NAME>
4-chlorovaleric acid chloromethyl ester
> <PUBCHEM_IUPAC_INCHI>
InChI=1S/C6H10Cl2O2/c1-5(8)2-3-6(9)10-4-7/h5H,2-4H2,1H3
> <PUBCHEM_IUPAC_INCHIKEY>
BTDLLBKQZJSWTP-UHFFFAOYSA-N
> <PUBCHEM_XLOGP3_AA>
2.1
> <PUBCHEM_EXACT_MASS>
184.0057849
> <PUBCHEM_MOLECULAR_FORMULA>
C6H10Cl2O2
> <PUBCHEM_MOLECULAR_WEIGHT>
185.05
> <PUBCHEM_OPENEYE_CAN_SMILES>
CC(CCC(=O)OCCl)Cl
> <PUBCHEM_OPENEYE_ISO_SMILES>
CC(CCC(=O)OCCl)Cl
> <PUBCHEM_CACTVS_TPSA>
26.3
> <PUBCHEM_MONOISOTOPIC_WEIGHT>
184.0057849
> <PUBCHEM_TOTAL_CHARGE>
0
> <PUBCHEM_HEAVY_ATOM_COUNT>
10
> <PUBCHEM_ATOM_DEF_STEREO_COUNT>
0
> <PUBCHEM_ATOM_UDEF_STEREO_COUNT>
1
> <PUBCHEM_BOND_DEF_STEREO_COUNT>
0
> <PUBCHEM_BOND_UDEF_STEREO_COUNT>
0
> <PUBCHEM_ISOTOPIC_ATOM_COUNT>
0
> <PUBCHEM_COMPONENT_COUNT>
1
> <PUBCHEM_CACTVS_TAUTO_COUNT>
-1
> <PUBCHEM_COORDINATE_TYPE>
1
5
255
> <PUBCHEM_BONDANNOTATIONS>
6  1  3
$$$$
