525317
  -OEChem-10302200292D
 71 71  0     1  0  0  0  0  0999 V2000
    4.5981   -2.3170    0.0000 Si  0  0  0  0  0  0  0  0  0  0  0  0
    2.8660   -0.3170    0.0000 Si  0  0  0  0  0  0  0  0  0  0  0  0
    8.0622   -0.3170    0.0000 Si  0  0  0  0  0  0  0  0  0  0  0  0
    7.1962    2.1830    0.0000 Si  0  0  0  0  0  0  0  0  0  0  0  0
    5.4641    1.1830    0.0000 O   0  0  0  0  0  0  0  0  0  0  0  0
    5.4641   -1.8170    0.0000 O   0  0  0  0  0  0  0  0  0  0  0  0
    3.7320   -0.8170    0.0000 O   0  0  0  0  0  0  0  0  0  0  0  0
    7.1962   -0.8170    0.0000 O   0  0  0  0  0  0  0  0  0  0  0  0
    7.1962    1.1830    0.0000 O   0  0  0  0  0  0  0  0  0  0  0  0
    5.4641   -0.8170    0.0000 C   0  0  3  0  0  0  0  0  0  0  0  0
    4.5981   -0.3170    0.0000 C   0  0  3  0  0  0  0  0  0  0  0  0
    6.3301   -0.3170    0.0000 C   0  0  3  0  0  0  0  0  0  0  0  0
    4.5981    0.6830    0.0000 C   0  0  3  0  0  0  0  0  0  0  0  0
    6.3301    0.6830    0.0000 C   0  0  3  0  0  0  0  0  0  0  0  0
    3.7320    1.1830    0.0000 C   0  0  0  0  0  0  0  0  0  0  0  0
    3.7320   -2.8170    0.0000 C   0  0  0  0  0  0  0  0  0  0  0  0
    5.0981   -3.1830    0.0000 C   0  0  0  0  0  0  0  0  0  0  0  0
    4.0981   -1.4510    0.0000 C   0  0  0  0  0  0  0  0  0  0  0  0
    2.0000    0.1830    0.0000 C   0  0  0  0  0  0  0  0  0  0  0  0
    2.3660   -1.1830    0.0000 C   0  0  0  0  0  0  0  0  0  0  0  0
    3.3660    0.5490    0.0000 C   0  0  0  0  0  0  0  0  0  0  0  0
    8.9282    0.1830    0.0000 C   0  0  0  0  0  0  0  0  0  0  0  0
    8.5622   -1.1830    0.0000 C   0  0  0  0  0  0  0  0  0  0  0  0
    7.5622    0.5490    0.0000 C   0  0  0  0  0  0  0  0  0  0  0  0
    7.1962    3.1830    0.0000 C   0  0  0  0  0  0  0  0  0  0  0  0
    8.1962    2.1830    0.0000 C   0  0  0  0  0  0  0  0  0  0  0  0
    6.1962    2.1830    0.0000 C   0  0  0  0  0  0  0  0  0  0  0  0
    4.9272   -1.1270    0.0000 H   0  0  0  0  0  0  0  0  0  0  0  0
    4.5981   -0.9370    0.0000 H   0  0  0  0  0  0  0  0  0  0  0  0
    6.3301   -0.9370    0.0000 H   0  0  0  0  0  0  0  0  0  0  0  0
    4.5981    1.3030    0.0000 H   0  0  0  0  0  0  0  0  0  0  0  0
    6.3301    1.3030    0.0000 H   0  0  0  0  0  0  0  0  0  0  0  0
    4.0420    1.7200    0.0000 H   0  0  0  0  0  0  0  0  0  0  0  0
    3.1951    1.4930    0.0000 H   0  0  0  0  0  0  0  0  0  0  0  0
    3.4220    0.6461    0.0000 H   0  0  0  0  0  0  0  0  0  0  0  0
    3.4220   -2.2800    0.0000 H   0  0  0  0  0  0  0  0  0  0  0  0
    3.1951   -3.1270    0.0000 H   0  0  0  0  0  0  0  0  0  0  0  0
    4.0420   -3.3539    0.0000 H   0  0  0  0  0  0  0  0  0  0  0  0
    4.5611   -3.4930    0.0000 H   0  0  0  0  0  0  0  0  0  0  0  0
    5.4081   -3.7200    0.0000 H   0  0  0  0  0  0  0  0  0  0  0  0
    5.6350   -2.8730    0.0000 H   0  0  0  0  0  0  0  0  0  0  0  0
    4.6350   -1.1410    0.0000 H   0  0  0  0  0  0  0  0  0  0  0  0
    3.7881   -0.9140    0.0000 H   0  0  0  0  0  0  0  0  0  0  0  0
    3.5611   -1.7610    0.0000 H   0  0  0  0  0  0  0  0  0  0  0  0
    2.3100    0.7199    0.0000 H   0  0  0  0  0  0  0  0  0  0  0  0
    1.4631    0.4930    0.0000 H   0  0  0  0  0  0  0  0  0  0  0  0
    1.6900   -0.3539    0.0000 H   0  0  0  0  0  0  0  0  0  0  0  0
    1.8291   -0.8730    0.0000 H   0  0  0  0  0  0  0  0  0  0  0  0
    2.0560   -1.7200    0.0000 H   0  0  0  0  0  0  0  0  0  0  0  0
    2.9030   -1.4930    0.0000 H   0  0  0  0  0  0  0  0  0  0  0  0
    3.9030    0.2390    0.0000 H   0  0  0  0  0  0  0  0  0  0  0  0
    3.6760    1.0860    0.0000 H   0  0  0  0  0  0  0  0  0  0  0  0
    2.8291    0.8590    0.0000 H   0  0  0  0  0  0  0  0  0  0  0  0
    9.2382   -0.3539    0.0000 H   0  0  0  0  0  0  0  0  0  0  0  0
    9.4651    0.4930    0.0000 H   0  0  0  0  0  0  0  0  0  0  0  0
    8.6182    0.7199    0.0000 H   0  0  0  0  0  0  0  0  0  0  0  0
    8.0252   -1.4930    0.0000 H   0  0  0  0  0  0  0  0  0  0  0  0
    8.8722   -1.7200    0.0000 H   0  0  0  0  0  0  0  0  0  0  0  0
    9.0991   -0.8730    0.0000 H   0  0  0  0  0  0  0  0  0  0  0  0
    8.0991    0.8590    0.0000 H   0  0  0  0  0  0  0  0  0  0  0  0
    7.2522    1.0860    0.0000 H   0  0  0  0  0  0  0  0  0  0  0  0
    7.0252    0.2390    0.0000 H   0  0  0  0  0  0  0  0  0  0  0  0
    7.8162    3.1830    0.0000 H   0  0  0  0  0  0  0  0  0  0  0  0
    7.1962    3.8030    0.0000 H   0  0  0  0  0  0  0  0  0  0  0  0
    6.5762    3.1830    0.0000 H   0  0  0  0  0  0  0  0  0  0  0  0
    8.1962    1.5630    0.0000 H   0  0  0  0  0  0  0  0  0  0  0  0
    8.8162    2.1830    0.0000 H   0  0  0  0  0  0  0  0  0  0  0  0
    8.1962    2.8030    0.0000 H   0  0  0  0  0  0  0  0  0  0  0  0
    6.1962    2.8030    0.0000 H   0  0  0  0  0  0  0  0  0  0  0  0
    5.5762    2.1830    0.0000 H   0  0  0  0  0  0  0  0  0  0  0  0
    6.1962    1.5630    0.0000 H   0  0  0  0  0  0  0  0  0  0  0  0
  1  6  1  0  0  0  0
  1 16  1  0  0  0  0
  1 17  1  0  0  0  0
  1 18  1  0  0  0  0
  2  7  1  0  0  0  0
  2 19  1  0  0  0  0
  2 20  1  0  0  0  0
  2 21  1  0  0  0  0
  3  8  1  0  0  0  0
  3 22  1  0  0  0  0
  3 23  1  0  0  0  0
  3 24  1  0  0  0  0
  4  9  1  0  0  0  0
  4 25  1  0  0  0  0
  4 26  1  0  0  0  0
  4 27  1  0  0  0  0
  5 13  1  0  0  0  0
  5 14  1  0  0  0  0
  6 10  1  0  0  0  0
  7 11  1  0  0  0  0
  8 12  1  0  0  0  0
  9 14  1  0  0  0  0
 10 11  1  0  0  0  0
 10 12  1  0  0  0  0
 10 28  1  0  0  0  0
 11 13  1  0  0  0  0
 11 29  1  0  0  0  0
 12 14  1  0  0  0  0
 12 30  1  0  0  0  0
 13 15  1  0  0  0  0
 13 31  1  0  0  0  0
 14 32  1  0  0  0  0
 15 33  1  0  0  0  0
 15 34  1  0  0  0  0
 15 35  1  0  0  0  0
 16 36  1  0  0  0  0
 16 37  1  0  0  0  0
 16 38  1  0  0  0  0
 17 39  1  0  0  0  0
 17 40  1  0  0  0  0
 17 41  1  0  0  0  0
 18 42  1  0  0  0  0
 18 43  1  0  0  0  0
 18 44  1  0  0  0  0
 19 45  1  0  0  0  0
 19 46  1  0  0  0  0
 19 47  1  0  0  0  0
 20 48  1  0  0  0  0
 20 49  1  0  0  0  0
 20 50  1  0  0  0  0
 21 51  1  0  0  0  0
 21 52  1  0  0  0  0
 21 53  1  0  0  0  0
 22 54  1  0  0  0  0
 22 55  1  0  0  0  0
 22 56  1  0  0  0  0
 23 57  1  0  0  0  0
 23 58  1  0  0  0  0
 23 59  1  0  0  0  0
 24 60  1  0  0  0  0
 24 61  1  0  0  0  0
 24 62  1  0  0  0  0
 25 63  1  0  0  0  0
 25 64  1  0  0  0  0
 25 65  1  0  0  0  0
 26 66  1  0  0  0  0
 26 67  1  0  0  0  0
 26 68  1  0  0  0  0
 27 69  1  0  0  0  0
 27 70  1  0  0  0  0
 27 71  1  0  0  0  0
M  END
> <PUBCHEM_COMPOUND_CID>
525317
> <PUBCHEM_COMPOUND_CANONICALIZED>
1
> <PUBCHEM_CACTVS_COMPLEXITY>
476
> <PUBCHEM_CACTVS_HBOND_ACCEPTOR>
5
> <PUBCHEM_CACTVS_HBOND_DONOR>
0
> <PUBCHEM_CACTVS_ROTATABLE_BOND>
8
> <PUBCHEM_CACTVS_SUBSKEYS>
AAADcfB4OAwAAAAAAAAAAAAAAAAAAAAAAAAkAAAAAAAAAAAAAAAAGhAAAEAACBSwgANCCAAABAEAAAAAAAAAAAAAAAAAAAAAAAARAAIAAAACAAAFAAAGAAHAYAQAAAAAAAAAAAAAAAAAAAAAAAAAAAAAAA==
> <PUBCHEM_IUPAC_OPENEYE_NAME>
trimethyl-[2-methyl-3,5,6-tris(trimethylsilyloxy)tetrahydropyran-4-yl]oxy-silane
> <PUBCHEM_IUPAC_CAS_NAME>
trimethyl-[[2-methyl-3,5,6-tris(trimethylsilyloxy)-4-oxanyl]oxy]silane
> <PUBCHEM_IUPAC_NAME_MARKUP>
trimethyl-[2-methyl-3,5,6-tris(trimethylsilyloxy)oxan-4-yl]oxysilane
> <PUBCHEM_IUPAC_NAME>
trimethyl-[2-methyl-3,5,6-tris(trimethylsilyloxy)oxan-4-yl]oxysilane
> <PUBCHEM_IUPAC_SYSTEMATIC_NAME>
trimethyl-[2-methyl-3,5,6-tris(trimethylsilyloxy)oxan-4-yl]oxy-silane
> <PUBCHEM_IUPAC_TRADITIONAL_NAME>
trimethyl-[2-methyl-3,5,6-tris(trimethylsilyloxy)tetrahydropyran-4-yl]oxy-silane
> <PUBCHEM_IUPAC_INCHI>
InChI=1S/C18H44O5Si4/c1-14-15(20-24(2,3)4)16(21-25(5,6)7)17(22-26(8,9)10)18(19-14)23-27(11,12)13/h14-18H,1-13H3
> <PUBCHEM_IUPAC_INCHIKEY>
QQOFWFOBJUGLLJ-UHFFFAOYSA-N
> <PUBCHEM_EXACT_MASS>
452.22658064
> <PUBCHEM_MOLECULAR_FORMULA>
C18H44O5Si4
> <PUBCHEM_MOLECULAR_WEIGHT>
452.9
> <PUBCHEM_OPENEYE_CAN_SMILES>
CC1C(C(C(C(O1)O[Si](C)(C)C)O[Si](C)(C)C)O[Si](C)(C)C)O[Si](C)(C)C
> <PUBCHEM_OPENEYE_ISO_SMILES>
CC1C(C(C(C(O1)O[Si](C)(C)C)O[Si](C)(C)C)O[Si](C)(C)C)O[Si](C)(C)C
> <PUBCHEM_CACTVS_TPSA>
46.2
> <PUBCHEM_MONOISOTOPIC_WEIGHT>
452.22658064
> <PUBCHEM_TOTAL_CHARGE>
0
> <PUBCHEM_HEAVY_ATOM_COUNT>
27
> <PUBCHEM_ATOM_DEF_STEREO_COUNT>
0
> <PUBCHEM_ATOM_UDEF_STEREO_COUNT>
5
> <PUBCHEM_BOND_DEF_STEREO_COUNT>
0
> <PUBCHEM_BOND_UDEF_STEREO_COUNT>
0
> <PUBCHEM_ISOTOPIC_ATOM_COUNT>
0
> <PUBCHEM_COMPONENT_COUNT>
1
> <PUBCHEM_CACTVS_TAUTO_COUNT>
-1
> <PUBCHEM_COORDINATE_TYPE>
1
5
255
> <PUBCHEM_BONDANNOTATIONS>
13  15  3
10  6  3
11  7  3
12  8  3
14  9  3
$$$$
