525333
  -OEChem-10302200292D
 51 52  0     1  0  0  0  0  0999 V2000
    3.3660   -1.7990    0.0000 F   0  0  0  0  0  0  0  0  0  0  0  0
    2.0000   -1.4330    0.0000 F   0  0  0  0  0  0  0  0  0  0  0  0
    2.3660   -0.0670    0.0000 F   0  0  0  0  0  0  0  0  0  0  0  0
    2.8660    3.0670    0.0000 F   0  0  0  0  0  0  0  0  0  0  0  0
    4.2320    3.4330    0.0000 F   0  0  0  0  0  0  0  0  0  0  0  0
    3.2320    1.7010    0.0000 F   0  0  0  0  0  0  0  0  0  0  0  0
    4.5981   -0.9330    0.0000 O   0  0  0  0  0  0  0  0  0  0  0  0
    4.5981    1.0670    0.0000 O   0  0  0  0  0  0  0  0  0  0  0  0
   10.6603    0.5670    0.0000 O   0  0  0  0  0  0  0  0  0  0  0  0
    8.9282   -2.4330    0.0000 O   0  0  0  0  0  0  0  0  0  0  0  0
    3.7320    0.5670    0.0000 O   0  0  0  0  0  0  0  0  0  0  0  0
    5.4641    2.5670    0.0000 O   0  0  0  0  0  0  0  0  0  0  0  0
    9.7942   -0.9330    0.0000 N   0  0  0  0  0  0  0  0  0  0  0  0
   10.6603   -2.4330    0.0000 N   0  0  0  0  0  0  0  0  0  0  0  0
   12.4725   -0.6283    0.0000 N   0  0  0  0  0  0  0  0  0  0  0  0
   12.4725   -2.2378    0.0000 N   0  0  0  0  0  0  0  0  0  0  0  0
    7.1962   -0.4330    0.0000 C   0  0  0  0  0  0  0  0  0  0  0  0
    8.0622   -0.9330    0.0000 C   0  0  0  0  0  0  0  0  0  0  0  0
    6.3301   -0.9330    0.0000 C   0  0  0  0  0  0  0  0  0  0  0  0
    8.9282   -0.4330    0.0000 C   0  0  0  0  0  0  0  0  0  0  0  0
    5.4641   -0.4330    0.0000 C   0  0  3  0  0  0  0  0  0  0  0  0
   11.5263   -0.9330    0.0000 C   0  0  0  0  0  0  0  0  0  0  0  0
   10.6603   -0.4330    0.0000 C   0  0  0  0  0  0  0  0  0  0  0  0
    9.7942   -1.9330    0.0000 C   0  0  0  0  0  0  0  0  0  0  0  0
   11.5263   -1.9330    0.0000 C   0  0  0  0  0  0  0  0  0  0  0  0
    5.4641    0.5670    0.0000 C   0  0  0  0  0  0  0  0  0  0  0  0
   10.6603   -3.4330    0.0000 C   0  0  0  0  0  0  0  0  0  0  0  0
   13.0561   -1.4330    0.0000 C   0  0  0  0  0  0  0  0  0  0  0  0
   12.7832    0.3222    0.0000 C   0  0  0  0  0  0  0  0  0  0  0  0
    3.7320   -0.4330    0.0000 C   0  0  0  0  0  0  0  0  0  0  0  0
    4.5981    2.0670    0.0000 C   0  0  0  0  0  0  0  0  0  0  0  0
    2.8660   -0.9330    0.0000 C   0  0  0  0  0  0  0  0  0  0  0  0
    3.7320    2.5670    0.0000 C   0  0  0  0  0  0  0  0  0  0  0  0
    7.5947    0.0419    0.0000 H   0  0  0  0  0  0  0  0  0  0  0  0
    6.7976    0.0419    0.0000 H   0  0  0  0  0  0  0  0  0  0  0  0
    7.6636   -1.4080    0.0000 H   0  0  0  0  0  0  0  0  0  0  0  0
    8.4607   -1.4080    0.0000 H   0  0  0  0  0  0  0  0  0  0  0  0
    5.9316   -1.4080    0.0000 H   0  0  0  0  0  0  0  0  0  0  0  0
    6.7287   -1.4080    0.0000 H   0  0  0  0  0  0  0  0  0  0  0  0
    9.3267    0.0419    0.0000 H   0  0  0  0  0  0  0  0  0  0  0  0
    8.5297    0.0419    0.0000 H   0  0  0  0  0  0  0  0  0  0  0  0
    5.4641   -1.0530    0.0000 H   0  0  0  0  0  0  0  0  0  0  0  0
    6.0747    0.4593    0.0000 H   0  0  0  0  0  0  0  0  0  0  0  0
    5.6762    1.1496    0.0000 H   0  0  0  0  0  0  0  0  0  0  0  0
   10.0403   -3.4330    0.0000 H   0  0  0  0  0  0  0  0  0  0  0  0
   10.6603   -4.0530    0.0000 H   0  0  0  0  0  0  0  0  0  0  0  0
   11.2803   -3.4330    0.0000 H   0  0  0  0  0  0  0  0  0  0  0  0
   13.6761   -1.4330    0.0000 H   0  0  0  0  0  0  0  0  0  0  0  0
   13.3725    0.1296    0.0000 H   0  0  0  0  0  0  0  0  0  0  0  0
   12.9758    0.9116    0.0000 H   0  0  0  0  0  0  0  0  0  0  0  0
   12.1938    0.5149    0.0000 H   0  0  0  0  0  0  0  0  0  0  0  0
  1 32  1  0  0  0  0
  2 32  1  0  0  0  0
  3 32  1  0  0  0  0
  4 33  1  0  0  0  0
  5 33  1  0  0  0  0
  6 33  1  0  0  0  0
  7 21  1  0  0  0  0
  7 30  1  0  0  0  0
  8 26  1  0  0  0  0
  8 31  1  0  0  0  0
  9 23  2  0  0  0  0
 10 24  2  0  0  0  0
 11 30  2  0  0  0  0
 12 31  2  0  0  0  0
 13 20  1  0  0  0  0
 13 23  1  0  0  0  0
 13 24  1  0  0  0  0
 14 24  1  0  0  0  0
 14 25  1  0  0  0  0
 14 27  1  0  0  0  0
 15 22  1  0  0  0  0
 15 28  1  0  0  0  0
 15 29  1  0  0  0  0
 16 25  1  0  0  0  0
 16 28  2  0  0  0  0
 17 18  1  0  0  0  0
 17 19  1  0  0  0  0
 17 34  1  0  0  0  0
 17 35  1  0  0  0  0
 18 20  1  0  0  0  0
 18 36  1  0  0  0  0
 18 37  1  0  0  0  0
 19 21  1  0  0  0  0
 19 38  1  0  0  0  0
 19 39  1  0  0  0  0
 20 40  1  0  0  0  0
 20 41  1  0  0  0  0
 21 26  1  0  0  0  0
 21 42  1  0  0  0  0
 22 23  1  0  0  0  0
 22 25  2  0  0  0  0
 26 43  1  0  0  0  0
 26 44  1  0  0  0  0
 27 45  1  0  0  0  0
 27 46  1  0  0  0  0
 27 47  1  0  0  0  0
 28 48  1  0  0  0  0
 29 49  1  0  0  0  0
 29 50  1  0  0  0  0
 29 51  1  0  0  0  0
 30 32  1  0  0  0  0
 31 33  1  0  0  0  0
M  END
> <PUBCHEM_COMPOUND_CID>
525333
> <PUBCHEM_COMPOUND_CANONICALIZED>
1
> <PUBCHEM_CACTVS_COMPLEXITY>
776
> <PUBCHEM_CACTVS_HBOND_ACCEPTOR>
13
> <PUBCHEM_CACTVS_HBOND_DONOR>
0
> <PUBCHEM_CACTVS_ROTATABLE_BOND>
10
> <PUBCHEM_CACTVS_SUBSKEYS>
AAADceB7ucAAAAAAAAAAAAAAAAAAAWAAAAAsAAAAAAAAAFgBgAAAHwAAAAAACBzhlhYHuBcMFACoAQfxfACAgC0XEKABUAGoVECBSApAyCAWAIgMByLCAGGQUAIAAAAAAAAAAAAAAAAAAAAAAAAAAAAAAA==
> <PUBCHEM_IUPAC_OPENEYE_NAME>
[6-(3,7-dimethyl-2,6-dioxo-purin-1-yl)-2-(2,2,2-trifluoroacetyl)oxy-hexyl] 2,2,2-trifluoroacetate
> <PUBCHEM_IUPAC_CAS_NAME>
2,2,2-trifluoroacetic acid [6-(3,7-dimethyl-2,6-dioxo-1-purinyl)-2-(2,2,2-trifluoro-1-oxoethoxy)hexyl] ester
> <PUBCHEM_IUPAC_NAME_MARKUP>
[6-(3,7-dimethyl-2,6-dioxopurin-1-yl)-2-(2,2,2-trifluoroacetyl)oxyhexyl] 2,2,2-trifluoroacetate
> <PUBCHEM_IUPAC_NAME>
[6-(3,7-dimethyl-2,6-dioxopurin-1-yl)-2-(2,2,2-trifluoroacetyl)oxyhexyl] 2,2,2-trifluoroacetate
> <PUBCHEM_IUPAC_SYSTEMATIC_NAME>
[6-[3,7-dimethyl-2,6-bis(oxidanylidene)purin-1-yl]-2-[2,2,2-tris(fluoranyl)ethanoyloxy]hexyl] 2,2,2-tris(fluoranyl)ethanoate
> <PUBCHEM_IUPAC_TRADITIONAL_NAME>
2,2,2-trifluoroacetic acid [6-(2,6-diketo-3,7-dimethyl-purin-1-yl)-2-(2,2,2-trifluoroacetyl)oxy-hexyl] ester
> <PUBCHEM_IUPAC_INCHI>
InChI=1S/C17H18F6N4O6/c1-25-8-24-11-10(25)12(28)27(15(31)26(11)2)6-4-3-5-9(33-14(30)17(21,22)23)7-32-13(29)16(18,19)20/h8-9H,3-7H2,1-2H3
> <PUBCHEM_IUPAC_INCHIKEY>
YUOVLRUYXTZLQJ-UHFFFAOYSA-N
> <PUBCHEM_XLOGP3>
3.1
> <PUBCHEM_EXACT_MASS>
488.11305328
> <PUBCHEM_MOLECULAR_FORMULA>
C17H18F6N4O6
> <PUBCHEM_MOLECULAR_WEIGHT>
488.3
> <PUBCHEM_OPENEYE_CAN_SMILES>
CN1C=NC2=C1C(=O)N(C(=O)N2C)CCCCC(COC(=O)C(F)(F)F)OC(=O)C(F)(F)F
> <PUBCHEM_OPENEYE_ISO_SMILES>
CN1C=NC2=C1C(=O)N(C(=O)N2C)CCCCC(COC(=O)C(F)(F)F)OC(=O)C(F)(F)F
> <PUBCHEM_CACTVS_TPSA>
111
> <PUBCHEM_MONOISOTOPIC_WEIGHT>
488.11305328
> <PUBCHEM_TOTAL_CHARGE>
0
> <PUBCHEM_HEAVY_ATOM_COUNT>
33
> <PUBCHEM_ATOM_DEF_STEREO_COUNT>
0
> <PUBCHEM_ATOM_UDEF_STEREO_COUNT>
1
> <PUBCHEM_BOND_DEF_STEREO_COUNT>
0
> <PUBCHEM_BOND_UDEF_STEREO_COUNT>
0
> <PUBCHEM_ISOTOPIC_ATOM_COUNT>
0
> <PUBCHEM_COMPONENT_COUNT>
1
> <PUBCHEM_CACTVS_TAUTO_COUNT>
-1
> <PUBCHEM_COORDINATE_TYPE>
1
5
255
> <PUBCHEM_BONDANNOTATIONS>
13  23  8
13  24  8
14  24  8
14  25  8
15  22  8
15  28  8
16  25  8
16  28  8
21  19  3
22  23  8
22  25  8
$$$$
