525361
  -OEChem-10302200292D
 25 24  0     1  0  0  0  0  0999 V2000
    4.5981    0.2500    0.0000 S   0  0  0  0  0  0  0  0  0  0  0  0
    3.7320   -0.2500    0.0000 S   0  0  0  0  0  0  0  0  0  0  0  0
    6.3301    0.2500    0.0000 C   0  0  0  0  0  0  0  0  0  0  0  0
    5.4641   -0.2500    0.0000 C   0  0  3  0  0  0  0  0  0  0  0  0
    7.1962   -0.2500    0.0000 C   0  0  0  0  0  0  0  0  0  0  0  0
    6.3301    1.2500    0.0000 C   0  0  0  0  0  0  0  0  0  0  0  0
    5.4641   -1.2500    0.0000 C   0  0  0  0  0  0  0  0  0  0  0  0
    2.8660    0.2500    0.0000 C   0  0  0  0  0  0  0  0  0  0  0  0
    2.0000   -0.2500    0.0000 C   0  0  0  0  0  0  0  0  0  0  0  0
    6.8671    0.5600    0.0000 H   0  0  0  0  0  0  0  0  0  0  0  0
    4.9272   -0.5600    0.0000 H   0  0  0  0  0  0  0  0  0  0  0  0
    6.8862   -0.7869    0.0000 H   0  0  0  0  0  0  0  0  0  0  0  0
    7.7331   -0.5600    0.0000 H   0  0  0  0  0  0  0  0  0  0  0  0
    7.5062    0.2869    0.0000 H   0  0  0  0  0  0  0  0  0  0  0  0
    6.9501    1.2500    0.0000 H   0  0  0  0  0  0  0  0  0  0  0  0
    6.3301    1.8700    0.0000 H   0  0  0  0  0  0  0  0  0  0  0  0
    5.7101    1.2500    0.0000 H   0  0  0  0  0  0  0  0  0  0  0  0
    4.8441   -1.2500    0.0000 H   0  0  0  0  0  0  0  0  0  0  0  0
    5.4641   -1.8700    0.0000 H   0  0  0  0  0  0  0  0  0  0  0  0
    6.0841   -1.2500    0.0000 H   0  0  0  0  0  0  0  0  0  0  0  0
    3.2646    0.7249    0.0000 H   0  0  0  0  0  0  0  0  0  0  0  0
    2.4675    0.7249    0.0000 H   0  0  0  0  0  0  0  0  0  0  0  0
    1.6900    0.2869    0.0000 H   0  0  0  0  0  0  0  0  0  0  0  0
    1.4631   -0.5600    0.0000 H   0  0  0  0  0  0  0  0  0  0  0  0
    2.3100   -0.7869    0.0000 H   0  0  0  0  0  0  0  0  0  0  0  0
  1  2  1  0  0  0  0
  1  4  1  0  0  0  0
  2  8  1  0  0  0  0
  3  4  1  0  0  0  0
  3  5  1  0  0  0  0
  3  6  1  0  0  0  0
  3 10  1  0  0  0  0
  4  7  1  0  0  0  0
  4 11  1  0  0  0  0
  5 12  1  0  0  0  0
  5 13  1  0  0  0  0
  5 14  1  0  0  0  0
  6 15  1  0  0  0  0
  6 16  1  0  0  0  0
  6 17  1  0  0  0  0
  7 18  1  0  0  0  0
  7 19  1  0  0  0  0
  7 20  1  0  0  0  0
  8  9  1  0  0  0  0
  8 21  1  0  0  0  0
  8 22  1  0  0  0  0
  9 23  1  0  0  0  0
  9 24  1  0  0  0  0
  9 25  1  0  0  0  0
M  END
> <PUBCHEM_COMPOUND_CID>
525361
> <PUBCHEM_COMPOUND_CANONICALIZED>
1
> <PUBCHEM_CACTVS_COMPLEXITY>
61.9
> <PUBCHEM_CACTVS_HBOND_ACCEPTOR>
2
> <PUBCHEM_CACTVS_HBOND_DONOR>
0
> <PUBCHEM_CACTVS_ROTATABLE_BOND>
4
> <PUBCHEM_CACTVS_SUBSKEYS>
AAADceBgAABgAAAAAAAAAAAAAAAAAAAAAAAAAAAAAAAAAAAAAAAAGAQAAAAADQCEQACCAAAAAAAAAAAAAAAAAAAAAAAAAAAAAAAAAAAAAAAAAAAAAAAAAAAAAAAIAAAAAAAAAAAAAAAAAAAAAAAAAAAAAA==
> <PUBCHEM_IUPAC_OPENEYE_NAME>
2-(ethyldisulfanyl)-3-methyl-butane
> <PUBCHEM_IUPAC_CAS_NAME>
2-(ethyldisulfanyl)-3-methylbutane
> <PUBCHEM_IUPAC_NAME_MARKUP>
2-(ethyldisulfanyl)-3-methylbutane
> <PUBCHEM_IUPAC_NAME>
2-(ethyldisulfanyl)-3-methylbutane
> <PUBCHEM_IUPAC_SYSTEMATIC_NAME>
2-(ethyldisulfanyl)-3-methyl-butane
> <PUBCHEM_IUPAC_TRADITIONAL_NAME>
2-(ethyldisulfanyl)-3-methyl-butane
> <PUBCHEM_IUPAC_INCHI>
InChI=1S/C7H16S2/c1-5-8-9-7(4)6(2)3/h6-7H,5H2,1-4H3
> <PUBCHEM_IUPAC_INCHIKEY>
LIZCRCNACDRLAI-UHFFFAOYSA-N
> <PUBCHEM_XLOGP3_AA>
3
> <PUBCHEM_EXACT_MASS>
164.06934286
> <PUBCHEM_MOLECULAR_FORMULA>
C7H16S2
> <PUBCHEM_MOLECULAR_WEIGHT>
164.3
> <PUBCHEM_OPENEYE_CAN_SMILES>
CCSSC(C)C(C)C
> <PUBCHEM_OPENEYE_ISO_SMILES>
CCSSC(C)C(C)C
> <PUBCHEM_CACTVS_TPSA>
50.6
> <PUBCHEM_MONOISOTOPIC_WEIGHT>
164.06934286
> <PUBCHEM_TOTAL_CHARGE>
0
> <PUBCHEM_HEAVY_ATOM_COUNT>
9
> <PUBCHEM_ATOM_DEF_STEREO_COUNT>
0
> <PUBCHEM_ATOM_UDEF_STEREO_COUNT>
1
> <PUBCHEM_BOND_DEF_STEREO_COUNT>
0
> <PUBCHEM_BOND_UDEF_STEREO_COUNT>
0
> <PUBCHEM_ISOTOPIC_ATOM_COUNT>
0
> <PUBCHEM_COMPONENT_COUNT>
1
> <PUBCHEM_CACTVS_TAUTO_COUNT>
-1
> <PUBCHEM_COORDINATE_TYPE>
1
5
255
> <PUBCHEM_BONDANNOTATIONS>
4  7  3
$$$$
