525365
  -OEChem-10302200292D
 33 32  0     1  0  0  0  0  0999 V2000
    6.3301    0.2500    0.0000 S   0  0  0  0  0  0  0  0  0  0  0  0
    7.1962   -0.2500    0.0000 C   0  0  3  0  0  0  0  0  0  0  0  0
    8.0622    0.2500    0.0000 C   0  0  0  0  0  0  0  0  0  0  0  0
    4.5981    0.2500    0.0000 C   0  0  0  0  0  0  0  0  0  0  0  0
    5.4641   -0.2500    0.0000 C   0  0  0  0  0  0  0  0  0  0  0  0
    3.7320   -0.2500    0.0000 C   0  0  0  0  0  0  0  0  0  0  0  0
    7.1962   -1.2500    0.0000 C   0  0  0  0  0  0  0  0  0  0  0  0
    8.9282   -0.2500    0.0000 C   0  0  0  0  0  0  0  0  0  0  0  0
    8.0622    1.2500    0.0000 C   0  0  0  0  0  0  0  0  0  0  0  0
    2.8660    0.2500    0.0000 C   0  0  0  0  0  0  0  0  0  0  0  0
    2.0000   -0.2500    0.0000 C   0  0  0  0  0  0  0  0  0  0  0  0
    6.6592   -0.5600    0.0000 H   0  0  0  0  0  0  0  0  0  0  0  0
    8.0622   -0.3700    0.0000 H   0  0  0  0  0  0  0  0  0  0  0  0
    4.9966    0.7249    0.0000 H   0  0  0  0  0  0  0  0  0  0  0  0
    4.1996    0.7249    0.0000 H   0  0  0  0  0  0  0  0  0  0  0  0
    5.0656   -0.7249    0.0000 H   0  0  0  0  0  0  0  0  0  0  0  0
    5.8626   -0.7249    0.0000 H   0  0  0  0  0  0  0  0  0  0  0  0
    3.3335   -0.7249    0.0000 H   0  0  0  0  0  0  0  0  0  0  0  0
    4.1306   -0.7249    0.0000 H   0  0  0  0  0  0  0  0  0  0  0  0
    6.5762   -1.2500    0.0000 H   0  0  0  0  0  0  0  0  0  0  0  0
    7.1962   -1.8700    0.0000 H   0  0  0  0  0  0  0  0  0  0  0  0
    7.8162   -1.2500    0.0000 H   0  0  0  0  0  0  0  0  0  0  0  0
    8.6182   -0.7869    0.0000 H   0  0  0  0  0  0  0  0  0  0  0  0
    9.4651   -0.5600    0.0000 H   0  0  0  0  0  0  0  0  0  0  0  0
    9.2382    0.2869    0.0000 H   0  0  0  0  0  0  0  0  0  0  0  0
    8.6822    1.2500    0.0000 H   0  0  0  0  0  0  0  0  0  0  0  0
    8.0622    1.8700    0.0000 H   0  0  0  0  0  0  0  0  0  0  0  0
    7.4422    1.2500    0.0000 H   0  0  0  0  0  0  0  0  0  0  0  0
    3.2646    0.7249    0.0000 H   0  0  0  0  0  0  0  0  0  0  0  0
    2.4675    0.7249    0.0000 H   0  0  0  0  0  0  0  0  0  0  0  0
    1.6900    0.2869    0.0000 H   0  0  0  0  0  0  0  0  0  0  0  0
    1.4631   -0.5600    0.0000 H   0  0  0  0  0  0  0  0  0  0  0  0
    2.3100   -0.7869    0.0000 H   0  0  0  0  0  0  0  0  0  0  0  0
  1  2  1  0  0  0  0
  1  5  1  0  0  0  0
  2  3  1  0  0  0  0
  2  7  1  0  0  0  0
  2 12  1  0  0  0  0
  3  8  1  0  0  0  0
  3  9  1  0  0  0  0
  3 13  1  0  0  0  0
  4  5  1  0  0  0  0
  4  6  1  0  0  0  0
  4 14  1  0  0  0  0
  4 15  1  0  0  0  0
  5 16  1  0  0  0  0
  5 17  1  0  0  0  0
  6 10  1  0  0  0  0
  6 18  1  0  0  0  0
  6 19  1  0  0  0  0
  7 20  1  0  0  0  0
  7 21  1  0  0  0  0
  7 22  1  0  0  0  0
  8 23  1  0  0  0  0
  8 24  1  0  0  0  0
  8 25  1  0  0  0  0
  9 26  1  0  0  0  0
  9 27  1  0  0  0  0
  9 28  1  0  0  0  0
 10 11  1  0  0  0  0
 10 29  1  0  0  0  0
 10 30  1  0  0  0  0
 11 31  1  0  0  0  0
 11 32  1  0  0  0  0
 11 33  1  0  0  0  0
M  END
> <PUBCHEM_COMPOUND_CID>
525365
> <PUBCHEM_COMPOUND_CANONICALIZED>
1
> <PUBCHEM_CACTVS_COMPLEXITY>
78.9
> <PUBCHEM_CACTVS_HBOND_ACCEPTOR>
1
> <PUBCHEM_CACTVS_HBOND_DONOR>
0
> <PUBCHEM_CACTVS_ROTATABLE_BOND>
6
> <PUBCHEM_CACTVS_SUBSKEYS>
AAADceBwAABAAAAAAAAAAAAAAAAAAAAAAAAAAAAAAAAAAAAAAAAAGAQAAAAADQCEQACCAAAAAAgAAAAAAAAAAAAAABAAAAAAAAAAAAIgAAAAAAAAAAAgAAAAAAAIAAAAAAAAAAAAAAAAAAAAAAAAAAAAAA==
> <PUBCHEM_IUPAC_OPENEYE_NAME>
1-(1,2-dimethylpropylsulfanyl)pentane
> <PUBCHEM_IUPAC_CAS_NAME>
1-(3-methylbutan-2-ylthio)pentane
> <PUBCHEM_IUPAC_NAME_MARKUP>
1-(3-methylbutan-2-ylsulfanyl)pentane
> <PUBCHEM_IUPAC_NAME>
1-(3-methylbutan-2-ylsulfanyl)pentane
> <PUBCHEM_IUPAC_SYSTEMATIC_NAME>
1-(3-methylbutan-2-ylsulfanyl)pentane
> <PUBCHEM_IUPAC_TRADITIONAL_NAME>
1-(1,2-dimethylpropylthio)pentane
> <PUBCHEM_IUPAC_INCHI>
InChI=1S/C10H22S/c1-5-6-7-8-11-10(4)9(2)3/h9-10H,5-8H2,1-4H3
> <PUBCHEM_IUPAC_INCHIKEY>
SLWLCOPCNCAVOJ-UHFFFAOYSA-N
> <PUBCHEM_XLOGP3_AA>
4.4
> <PUBCHEM_EXACT_MASS>
174.14422188
> <PUBCHEM_MOLECULAR_FORMULA>
C10H22S
> <PUBCHEM_MOLECULAR_WEIGHT>
174.35
> <PUBCHEM_OPENEYE_CAN_SMILES>
CCCCCSC(C)C(C)C
> <PUBCHEM_OPENEYE_ISO_SMILES>
CCCCCSC(C)C(C)C
> <PUBCHEM_CACTVS_TPSA>
25.3
> <PUBCHEM_MONOISOTOPIC_WEIGHT>
174.14422188
> <PUBCHEM_TOTAL_CHARGE>
0
> <PUBCHEM_HEAVY_ATOM_COUNT>
11
> <PUBCHEM_ATOM_DEF_STEREO_COUNT>
0
> <PUBCHEM_ATOM_UDEF_STEREO_COUNT>
1
> <PUBCHEM_BOND_DEF_STEREO_COUNT>
0
> <PUBCHEM_BOND_UDEF_STEREO_COUNT>
0
> <PUBCHEM_ISOTOPIC_ATOM_COUNT>
0
> <PUBCHEM_COMPONENT_COUNT>
1
> <PUBCHEM_CACTVS_TAUTO_COUNT>
-1
> <PUBCHEM_COORDINATE_TYPE>
1
5
255
> <PUBCHEM_BONDANNOTATIONS>
2  7  3
$$$$
