525344
  -OEChem-10302200292D
 23 23  0     1  0  0  0  0  0999 V2000
    3.7320   -0.8170    0.0000 S   0  0  0  0  0  0  0  0  0  0  0  0
    4.5981    0.6830    0.0000 S   0  0  0  0  0  0  0  0  0  0  0  0
    4.5981   -0.3170    0.0000 C   0  0  0  0  0  0  0  0  0  0  0  0
    2.8660   -0.3170    0.0000 C   0  0  3  0  0  0  0  0  0  0  0  0
    2.8660    0.6830    0.0000 C   0  0  0  0  0  0  0  0  0  0  0  0
    3.7320    1.1830    0.0000 C   0  0  0  0  0  0  0  0  0  0  0  0
    5.5981   -0.3170    0.0000 C   0  0  0  0  0  0  0  0  0  0  0  0
    5.0981   -1.1830    0.0000 C   0  0  0  0  0  0  0  0  0  0  0  0
    2.0000   -0.8170    0.0000 C   0  0  0  0  0  0  0  0  0  0  0  0
    2.8660   -0.9370    0.0000 H   0  0  0  0  0  0  0  0  0  0  0  0
    2.6540    1.2656    0.0000 H   0  0  0  0  0  0  0  0  0  0  0  0
    2.2554    0.5754    0.0000 H   0  0  0  0  0  0  0  0  0  0  0  0
    4.1306    1.6580    0.0000 H   0  0  0  0  0  0  0  0  0  0  0  0
    3.3335    1.6580    0.0000 H   0  0  0  0  0  0  0  0  0  0  0  0
    5.5981   -0.9370    0.0000 H   0  0  0  0  0  0  0  0  0  0  0  0
    6.2181   -0.3170    0.0000 H   0  0  0  0  0  0  0  0  0  0  0  0
    5.5981    0.3030    0.0000 H   0  0  0  0  0  0  0  0  0  0  0  0
    4.5611   -1.4930    0.0000 H   0  0  0  0  0  0  0  0  0  0  0  0
    5.4081   -1.7200    0.0000 H   0  0  0  0  0  0  0  0  0  0  0  0
    5.6350   -0.8730    0.0000 H   0  0  0  0  0  0  0  0  0  0  0  0
    1.6900   -0.2801    0.0000 H   0  0  0  0  0  0  0  0  0  0  0  0
    1.4631   -1.1270    0.0000 H   0  0  0  0  0  0  0  0  0  0  0  0
    2.3100   -1.3539    0.0000 H   0  0  0  0  0  0  0  0  0  0  0  0
  1  3  1  0  0  0  0
  1  4  1  0  0  0  0
  2  3  1  0  0  0  0
  2  6  1  0  0  0  0
  3  7  1  0  0  0  0
  3  8  1  0  0  0  0
  4  5  1  0  0  0  0
  4  9  1  0  0  0  0
  4 10  1  0  0  0  0
  5  6  1  0  0  0  0
  5 11  1  0  0  0  0
  5 12  1  0  0  0  0
  6 13  1  0  0  0  0
  6 14  1  0  0  0  0
  7 15  1  0  0  0  0
  7 16  1  0  0  0  0
  7 17  1  0  0  0  0
  8 18  1  0  0  0  0
  8 19  1  0  0  0  0
  8 20  1  0  0  0  0
  9 21  1  0  0  0  0
  9 22  1  0  0  0  0
  9 23  1  0  0  0  0
M  END
> <PUBCHEM_COMPOUND_CID>
525344
> <PUBCHEM_COMPOUND_CANONICALIZED>
1
> <PUBCHEM_CACTVS_COMPLEXITY>
99.1
> <PUBCHEM_CACTVS_HBOND_ACCEPTOR>
2
> <PUBCHEM_CACTVS_HBOND_DONOR>
0
> <PUBCHEM_CACTVS_ROTATABLE_BOND>
0
> <PUBCHEM_CACTVS_SUBSKEYS>
AAADccBgAABgAAAAAAAAAAAAAAAAAAAAAAAkAAAAAAAAAAAAAAAAGAQAAAAACACEQACCAAAAAAgAAAAAAAAAAQAAABAAAAAAAAAAAAAgAAAAAAAAAAAgAAAAAAAAAAAAAAAAAAAAAAAAAAAAAAAAAAAAAA==
> <PUBCHEM_IUPAC_OPENEYE_NAME>
2,2,4-trimethyl-1,3-dithiane
> <PUBCHEM_IUPAC_CAS_NAME>
2,2,4-trimethyl-1,3-dithiane
> <PUBCHEM_IUPAC_NAME_MARKUP>
2,2,4-trimethyl-1,3-dithiane
> <PUBCHEM_IUPAC_NAME>
2,2,4-trimethyl-1,3-dithiane
> <PUBCHEM_IUPAC_SYSTEMATIC_NAME>
2,2,4-trimethyl-1,3-dithiane
> <PUBCHEM_IUPAC_TRADITIONAL_NAME>
2,2,4-trimethyl-1,3-dithiane
> <PUBCHEM_IUPAC_INCHI>
InChI=1S/C7H14S2/c1-6-4-5-8-7(2,3)9-6/h6H,4-5H2,1-3H3
> <PUBCHEM_IUPAC_INCHIKEY>
FRRBWOYAAOXUHL-UHFFFAOYSA-N
> <PUBCHEM_XLOGP3_AA>
2.8
> <PUBCHEM_EXACT_MASS>
162.05369279
> <PUBCHEM_MOLECULAR_FORMULA>
C7H14S2
> <PUBCHEM_MOLECULAR_WEIGHT>
162.3
> <PUBCHEM_OPENEYE_CAN_SMILES>
CC1CCSC(S1)(C)C
> <PUBCHEM_OPENEYE_ISO_SMILES>
CC1CCSC(S1)(C)C
> <PUBCHEM_CACTVS_TPSA>
50.6
> <PUBCHEM_MONOISOTOPIC_WEIGHT>
162.05369279
> <PUBCHEM_TOTAL_CHARGE>
0
> <PUBCHEM_HEAVY_ATOM_COUNT>
9
> <PUBCHEM_ATOM_DEF_STEREO_COUNT>
0
> <PUBCHEM_ATOM_UDEF_STEREO_COUNT>
1
> <PUBCHEM_BOND_DEF_STEREO_COUNT>
0
> <PUBCHEM_BOND_UDEF_STEREO_COUNT>
0
> <PUBCHEM_ISOTOPIC_ATOM_COUNT>
0
> <PUBCHEM_COMPONENT_COUNT>
1
> <PUBCHEM_CACTVS_TAUTO_COUNT>
-1
> <PUBCHEM_COORDINATE_TYPE>
1
5
255
> <PUBCHEM_BONDANNOTATIONS>
4  9  3
$$$$
