525384
  -OEChem-10302200292D
 27 26  0     1  0  0  0  0  0999 V2000
    4.5981    0.2500    0.0000 S   0  0  0  0  0  0  0  0  0  0  0  0
    6.3301    0.2500    0.0000 C   0  0  0  0  0  0  0  0  0  0  0  0
    3.7320   -0.2500    0.0000 C   0  0  3  0  0  0  0  0  0  0  0  0
    5.4641   -0.2500    0.0000 C   0  0  0  0  0  0  0  0  0  0  0  0
    2.8660    0.2500    0.0000 C   0  0  0  0  0  0  0  0  0  0  0  0
    7.1962   -0.2500    0.0000 C   0  0  0  0  0  0  0  0  0  0  0  0
    6.3301    1.2500    0.0000 C   0  0  0  0  0  0  0  0  0  0  0  0
    3.7320   -1.2500    0.0000 C   0  0  0  0  0  0  0  0  0  0  0  0
    2.0000   -0.2500    0.0000 C   0  0  0  0  0  0  0  0  0  0  0  0
    6.8671    0.5600    0.0000 H   0  0  0  0  0  0  0  0  0  0  0  0
    4.2690   -0.5600    0.0000 H   0  0  0  0  0  0  0  0  0  0  0  0
    5.0656   -0.7249    0.0000 H   0  0  0  0  0  0  0  0  0  0  0  0
    5.8626   -0.7249    0.0000 H   0  0  0  0  0  0  0  0  0  0  0  0
    3.2646    0.7249    0.0000 H   0  0  0  0  0  0  0  0  0  0  0  0
    2.4675    0.7249    0.0000 H   0  0  0  0  0  0  0  0  0  0  0  0
    6.8862   -0.7869    0.0000 H   0  0  0  0  0  0  0  0  0  0  0  0
    7.7331   -0.5600    0.0000 H   0  0  0  0  0  0  0  0  0  0  0  0
    7.5062    0.2869    0.0000 H   0  0  0  0  0  0  0  0  0  0  0  0
    6.9501    1.2500    0.0000 H   0  0  0  0  0  0  0  0  0  0  0  0
    6.3301    1.8700    0.0000 H   0  0  0  0  0  0  0  0  0  0  0  0
    5.7101    1.2500    0.0000 H   0  0  0  0  0  0  0  0  0  0  0  0
    3.1120   -1.2500    0.0000 H   0  0  0  0  0  0  0  0  0  0  0  0
    3.7320   -1.8700    0.0000 H   0  0  0  0  0  0  0  0  0  0  0  0
    4.3520   -1.2500    0.0000 H   0  0  0  0  0  0  0  0  0  0  0  0
    1.6900    0.2869    0.0000 H   0  0  0  0  0  0  0  0  0  0  0  0
    1.4631   -0.5600    0.0000 H   0  0  0  0  0  0  0  0  0  0  0  0
    2.3100   -0.7869    0.0000 H   0  0  0  0  0  0  0  0  0  0  0  0
  1  3  1  0  0  0  0
  1  4  1  0  0  0  0
  2  4  1  0  0  0  0
  2  6  1  0  0  0  0
  2  7  1  0  0  0  0
  2 10  1  0  0  0  0
  3  5  1  0  0  0  0
  3  8  1  0  0  0  0
  3 11  1  0  0  0  0
  4 12  1  0  0  0  0
  4 13  1  0  0  0  0
  5  9  1  0  0  0  0
  5 14  1  0  0  0  0
  5 15  1  0  0  0  0
  6 16  1  0  0  0  0
  6 17  1  0  0  0  0
  6 18  1  0  0  0  0
  7 19  1  0  0  0  0
  7 20  1  0  0  0  0
  7 21  1  0  0  0  0
  8 22  1  0  0  0  0
  8 23  1  0  0  0  0
  8 24  1  0  0  0  0
  9 25  1  0  0  0  0
  9 26  1  0  0  0  0
  9 27  1  0  0  0  0
M  END
> <PUBCHEM_COMPOUND_CID>
525384
> <PUBCHEM_COMPOUND_CANONICALIZED>
1
> <PUBCHEM_CACTVS_COMPLEXITY>
59.6
> <PUBCHEM_CACTVS_HBOND_ACCEPTOR>
1
> <PUBCHEM_CACTVS_HBOND_DONOR>
0
> <PUBCHEM_CACTVS_ROTATABLE_BOND>
4
> <PUBCHEM_CACTVS_SUBSKEYS>
AAADceBwAABAAAAAAAAAAAAAAAAAAAAAAAAAAAAAAAAAAAAAAAAAGAQAAAAADQCEQACCAAAAAAgAAAAAAAAAAAAAABAAAAAAAAAAAAAgAAAAAAAAAAAgAAAAAAAAAAAAAAAAAAAAAAAAAAAAAAAAAAAAAA==
> <PUBCHEM_IUPAC_OPENEYE_NAME>
2-isobutylsulfanylbutane
> <PUBCHEM_IUPAC_CAS_NAME>
2-(2-methylpropylthio)butane
> <PUBCHEM_IUPAC_NAME_MARKUP>
2-(2-methylpropylsulfanyl)butane
> <PUBCHEM_IUPAC_NAME>
2-(2-methylpropylsulfanyl)butane
> <PUBCHEM_IUPAC_SYSTEMATIC_NAME>
2-(2-methylpropylsulfanyl)butane
> <PUBCHEM_IUPAC_TRADITIONAL_NAME>
2-(isobutylthio)butane
> <PUBCHEM_IUPAC_INCHI>
InChI=1S/C8H18S/c1-5-8(4)9-6-7(2)3/h7-8H,5-6H2,1-4H3
> <PUBCHEM_IUPAC_INCHIKEY>
ZXOHSPNYEDQIBI-UHFFFAOYSA-N
> <PUBCHEM_XLOGP3_AA>
3.5
> <PUBCHEM_EXACT_MASS>
146.11292175
> <PUBCHEM_MOLECULAR_FORMULA>
C8H18S
> <PUBCHEM_MOLECULAR_WEIGHT>
146.30
> <PUBCHEM_OPENEYE_CAN_SMILES>
CCC(C)SCC(C)C
> <PUBCHEM_OPENEYE_ISO_SMILES>
CCC(C)SCC(C)C
> <PUBCHEM_CACTVS_TPSA>
25.3
> <PUBCHEM_MONOISOTOPIC_WEIGHT>
146.11292175
> <PUBCHEM_TOTAL_CHARGE>
0
> <PUBCHEM_HEAVY_ATOM_COUNT>
9
> <PUBCHEM_ATOM_DEF_STEREO_COUNT>
0
> <PUBCHEM_ATOM_UDEF_STEREO_COUNT>
1
> <PUBCHEM_BOND_DEF_STEREO_COUNT>
0
> <PUBCHEM_BOND_UDEF_STEREO_COUNT>
0
> <PUBCHEM_ISOTOPIC_ATOM_COUNT>
0
> <PUBCHEM_COMPONENT_COUNT>
1
> <PUBCHEM_CACTVS_TAUTO_COUNT>
-1
> <PUBCHEM_COORDINATE_TYPE>
1
5
255
> <PUBCHEM_BONDANNOTATIONS>
3  8  3
$$$$
