525461
  -OEChem-10302200292D
 17 16  0     1  0  0  0  0  0999 V2000
    4.2690    0.7500    0.0000 S   0  0  0  0  0  0  0  0  0  0  0  0
    2.5369    0.7500    0.0000 S   0  0  0  0  0  0  0  0  0  0  0  0
    6.0010    0.7500    0.0000 S   0  0  0  0  0  0  0  0  0  0  0  0
    3.4030    0.2500    0.0000 C   0  0  3  0  0  0  0  0  0  0  0  0
    5.1350    0.2500    0.0000 C   0  0  3  0  0  0  0  0  0  0  0  0
    3.4030   -0.7500    0.0000 C   0  0  0  0  0  0  0  0  0  0  0  0
    5.1350   -0.7500    0.0000 C   0  0  0  0  0  0  0  0  0  0  0  0
    3.9399   -0.0600    0.0000 H   0  0  0  0  0  0  0  0  0  0  0  0
    5.6720   -0.0600    0.0000 H   0  0  0  0  0  0  0  0  0  0  0  0
    2.7830   -0.7500    0.0000 H   0  0  0  0  0  0  0  0  0  0  0  0
    3.4030   -1.3700    0.0000 H   0  0  0  0  0  0  0  0  0  0  0  0
    4.0230   -0.7500    0.0000 H   0  0  0  0  0  0  0  0  0  0  0  0
    4.5150   -0.7500    0.0000 H   0  0  0  0  0  0  0  0  0  0  0  0
    5.1350   -1.3700    0.0000 H   0  0  0  0  0  0  0  0  0  0  0  0
    5.7550   -0.7500    0.0000 H   0  0  0  0  0  0  0  0  0  0  0  0
    2.0000    0.4400    0.0000 H   0  0  0  0  0  0  0  0  0  0  0  0
    6.5380    0.4400    0.0000 H   0  0  0  0  0  0  0  0  0  0  0  0
  1  4  1  0  0  0  0
  1  5  1  0  0  0  0
  2  4  1  0  0  0  0
  2 16  1  0  0  0  0
  3  5  1  0  0  0  0
  3 17  1  0  0  0  0
  4  6  1  0  0  0  0
  4  8  1  0  0  0  0
  5  7  1  0  0  0  0
  5  9  1  0  0  0  0
  6 10  1  0  0  0  0
  6 11  1  0  0  0  0
  6 12  1  0  0  0  0
  7 13  1  0  0  0  0
  7 14  1  0  0  0  0
  7 15  1  0  0  0  0
M  END
> <PUBCHEM_COMPOUND_CID>
525461
> <PUBCHEM_COMPOUND_CANONICALIZED>
1
> <PUBCHEM_CACTVS_COMPLEXITY>
40.2
> <PUBCHEM_CACTVS_HBOND_ACCEPTOR>
3
> <PUBCHEM_CACTVS_HBOND_DONOR>
2
> <PUBCHEM_CACTVS_ROTATABLE_BOND>
2
> <PUBCHEM_CACTVS_SUBSKEYS>
AAADccBgAABgAAAAAAAAAAAAAAAAAAAAAAAAAAAAAAAAAAAAAAAAGAQAAAAAAACEQACCAAAAAAwAAAAAAAAAAQAAABAAAAAAAAAAAAAAAAAAAAAAAAAgAAAAAAAAAAAAAAAAAAAAAAAAAAAAAAAAAAAAAA==
> <PUBCHEM_IUPAC_OPENEYE_NAME>
1-(1-sulfanylethylsulfanyl)ethanethiol
> <PUBCHEM_IUPAC_CAS_NAME>
1-(1-mercaptoethylthio)ethanethiol
> <PUBCHEM_IUPAC_NAME_MARKUP>
1-(1-sulfanylethylsulfanyl)ethanethiol
> <PUBCHEM_IUPAC_NAME>
1-(1-sulfanylethylsulfanyl)ethanethiol
> <PUBCHEM_IUPAC_SYSTEMATIC_NAME>
1-(1-sulfanylethylsulfanyl)ethanethiol
> <PUBCHEM_IUPAC_TRADITIONAL_NAME>
1-(1-mercaptoethylthio)ethanethiol
> <PUBCHEM_IUPAC_INCHI>
InChI=1S/C4H10S3/c1-3(5)7-4(2)6/h3-6H,1-2H3
> <PUBCHEM_IUPAC_INCHIKEY>
PAEMPWLDXSJQRU-UHFFFAOYSA-N
> <PUBCHEM_XLOGP3_AA>
2.5
> <PUBCHEM_EXACT_MASS>
153.99446384
> <PUBCHEM_MOLECULAR_FORMULA>
C4H10S3
> <PUBCHEM_MOLECULAR_WEIGHT>
154.3
> <PUBCHEM_OPENEYE_CAN_SMILES>
CC(S)SC(C)S
> <PUBCHEM_OPENEYE_ISO_SMILES>
CC(S)SC(C)S
> <PUBCHEM_CACTVS_TPSA>
27.3
> <PUBCHEM_MONOISOTOPIC_WEIGHT>
153.99446384
> <PUBCHEM_TOTAL_CHARGE>
0
> <PUBCHEM_HEAVY_ATOM_COUNT>
7
> <PUBCHEM_ATOM_DEF_STEREO_COUNT>
0
> <PUBCHEM_ATOM_UDEF_STEREO_COUNT>
2
> <PUBCHEM_BOND_DEF_STEREO_COUNT>
0
> <PUBCHEM_BOND_UDEF_STEREO_COUNT>
0
> <PUBCHEM_ISOTOPIC_ATOM_COUNT>
0
> <PUBCHEM_COMPONENT_COUNT>
1
> <PUBCHEM_CACTVS_TAUTO_COUNT>
-1
> <PUBCHEM_COORDINATE_TYPE>
1
5
255
> <PUBCHEM_BONDANNOTATIONS>
4  2  3
5  3  3
$$$$
