525441
  -OEChem-10302200292D
 30 29  0     1  0  0  0  0  0999 V2000
    4.5981    0.7500    0.0000 S   0  0  0  0  0  0  0  0  0  0  0  0
    7.1962    0.2500    0.0000 C   0  0  0  0  0  0  0  0  0  0  0  0
    6.3301    0.7500    0.0000 C   0  0  0  0  0  0  0  0  0  0  0  0
    5.4641    0.2500    0.0000 C   0  0  0  0  0  0  0  0  0  0  0  0
    3.7320    0.2500    0.0000 C   0  0  3  0  0  0  0  0  0  0  0  0
    2.8660    0.7500    0.0000 C   0  0  0  0  0  0  0  0  0  0  0  0
    8.0622    0.7500    0.0000 C   0  0  0  0  0  0  0  0  0  0  0  0
    7.1962   -0.7500    0.0000 C   0  0  0  0  0  0  0  0  0  0  0  0
    3.7320   -0.7500    0.0000 C   0  0  0  0  0  0  0  0  0  0  0  0
    2.0000    0.2500    0.0000 C   0  0  0  0  0  0  0  0  0  0  0  0
    6.6592   -0.0600    0.0000 H   0  0  0  0  0  0  0  0  0  0  0  0
    6.7287    1.2250    0.0000 H   0  0  0  0  0  0  0  0  0  0  0  0
    5.9316    1.2250    0.0000 H   0  0  0  0  0  0  0  0  0  0  0  0
    5.0656   -0.2249    0.0000 H   0  0  0  0  0  0  0  0  0  0  0  0
    5.8626   -0.2249    0.0000 H   0  0  0  0  0  0  0  0  0  0  0  0
    4.2690   -0.0600    0.0000 H   0  0  0  0  0  0  0  0  0  0  0  0
    3.2646    1.2250    0.0000 H   0  0  0  0  0  0  0  0  0  0  0  0
    2.4675    1.2250    0.0000 H   0  0  0  0  0  0  0  0  0  0  0  0
    8.3722    0.2131    0.0000 H   0  0  0  0  0  0  0  0  0  0  0  0
    8.5991    1.0600    0.0000 H   0  0  0  0  0  0  0  0  0  0  0  0
    7.7522    1.2869    0.0000 H   0  0  0  0  0  0  0  0  0  0  0  0
    6.5762   -0.7500    0.0000 H   0  0  0  0  0  0  0  0  0  0  0  0
    7.1962   -1.3700    0.0000 H   0  0  0  0  0  0  0  0  0  0  0  0
    7.8162   -0.7500    0.0000 H   0  0  0  0  0  0  0  0  0  0  0  0
    3.1120   -0.7500    0.0000 H   0  0  0  0  0  0  0  0  0  0  0  0
    3.7320   -1.3700    0.0000 H   0  0  0  0  0  0  0  0  0  0  0  0
    4.3520   -0.7500    0.0000 H   0  0  0  0  0  0  0  0  0  0  0  0
    1.6900    0.7869    0.0000 H   0  0  0  0  0  0  0  0  0  0  0  0
    1.4631   -0.0600    0.0000 H   0  0  0  0  0  0  0  0  0  0  0  0
    2.3100   -0.2869    0.0000 H   0  0  0  0  0  0  0  0  0  0  0  0
  1  4  1  0  0  0  0
  1  5  1  0  0  0  0
  2  3  1  0  0  0  0
  2  7  1  0  0  0  0
  2  8  1  0  0  0  0
  2 11  1  0  0  0  0
  3  4  1  0  0  0  0
  3 12  1  0  0  0  0
  3 13  1  0  0  0  0
  4 14  1  0  0  0  0
  4 15  1  0  0  0  0
  5  6  1  0  0  0  0
  5  9  1  0  0  0  0
  5 16  1  0  0  0  0
  6 10  1  0  0  0  0
  6 17  1  0  0  0  0
  6 18  1  0  0  0  0
  7 19  1  0  0  0  0
  7 20  1  0  0  0  0
  7 21  1  0  0  0  0
  8 22  1  0  0  0  0
  8 23  1  0  0  0  0
  8 24  1  0  0  0  0
  9 25  1  0  0  0  0
  9 26  1  0  0  0  0
  9 27  1  0  0  0  0
 10 28  1  0  0  0  0
 10 29  1  0  0  0  0
 10 30  1  0  0  0  0
M  END
> <PUBCHEM_COMPOUND_CID>
525441
> <PUBCHEM_COMPOUND_CANONICALIZED>
1
> <PUBCHEM_CACTVS_COMPLEXITY>
69.1
> <PUBCHEM_CACTVS_HBOND_ACCEPTOR>
1
> <PUBCHEM_CACTVS_HBOND_DONOR>
0
> <PUBCHEM_CACTVS_ROTATABLE_BOND>
5
> <PUBCHEM_CACTVS_SUBSKEYS>
AAADceBwAABAAAAAAAAAAAAAAAAAAAAAAAAAAAAAAAAAAAAAAAAAGAQAAAAADQCEQACCAAAAAAgAAAAAAAAAAAAAABAAAAAAAAAAAAAgAAAAAAAAAAAgAAAAAAAIAAAAAAAAAAAAAAAAAAAAAAAAAAAAAA==
> <PUBCHEM_IUPAC_OPENEYE_NAME>
3-methyl-1-sec-butylsulfanyl-butane
> <PUBCHEM_IUPAC_CAS_NAME>
1-(butan-2-ylthio)-3-methylbutane
> <PUBCHEM_IUPAC_NAME_MARKUP>
1-butan-2-ylsulfanyl-3-methylbutane
> <PUBCHEM_IUPAC_NAME>
1-butan-2-ylsulfanyl-3-methylbutane
> <PUBCHEM_IUPAC_SYSTEMATIC_NAME>
1-butan-2-ylsulfanyl-3-methyl-butane
> <PUBCHEM_IUPAC_TRADITIONAL_NAME>
3-methyl-1-(sec-butylthio)butane
> <PUBCHEM_IUPAC_INCHI>
InChI=1S/C9H20S/c1-5-9(4)10-7-6-8(2)3/h8-9H,5-7H2,1-4H3
> <PUBCHEM_IUPAC_INCHIKEY>
WMJKJOQJZMHMAM-UHFFFAOYSA-N
> <PUBCHEM_XLOGP3_AA>
3.9
> <PUBCHEM_EXACT_MASS>
160.12857181
> <PUBCHEM_MOLECULAR_FORMULA>
C9H20S
> <PUBCHEM_MOLECULAR_WEIGHT>
160.32
> <PUBCHEM_OPENEYE_CAN_SMILES>
CCC(C)SCCC(C)C
> <PUBCHEM_OPENEYE_ISO_SMILES>
CCC(C)SCCC(C)C
> <PUBCHEM_CACTVS_TPSA>
25.3
> <PUBCHEM_MONOISOTOPIC_WEIGHT>
160.12857181
> <PUBCHEM_TOTAL_CHARGE>
0
> <PUBCHEM_HEAVY_ATOM_COUNT>
10
> <PUBCHEM_ATOM_DEF_STEREO_COUNT>
0
> <PUBCHEM_ATOM_UDEF_STEREO_COUNT>
1
> <PUBCHEM_BOND_DEF_STEREO_COUNT>
0
> <PUBCHEM_BOND_UDEF_STEREO_COUNT>
0
> <PUBCHEM_ISOTOPIC_ATOM_COUNT>
0
> <PUBCHEM_COMPONENT_COUNT>
1
> <PUBCHEM_CACTVS_TAUTO_COUNT>
-1
> <PUBCHEM_COORDINATE_TYPE>
1
5
255
> <PUBCHEM_BONDANNOTATIONS>
5  9  3
$$$$
