525449
  -OEChem-10302200292D
 12 12  0     1  0  0  0  0  0999 V2000
    3.7071   -0.8536    0.0000 S   0  0  0  0  0  0  0  0  0  0  0  0
    4.4142    0.8536    0.0000 O   0  0  0  0  0  0  0  0  0  0  0  0
    2.7071    0.1464    0.0000 C   0  0  3  0  0  0  0  0  0  0  0  0
    2.7071   -0.8536    0.0000 C   0  0  0  0  0  0  0  0  0  0  0  0
    3.7071    0.1464    0.0000 C   0  0  0  0  0  0  0  0  0  0  0  0
    2.0000    0.8536    0.0000 C   0  0  0  0  0  0  0  0  0  0  0  0
    2.9444    0.7193    0.0000 H   0  0  0  0  0  0  0  0  0  0  0  0
    2.0871   -0.8536    0.0000 H   0  0  0  0  0  0  0  0  0  0  0  0
    2.7071   -1.4736    0.0000 H   0  0  0  0  0  0  0  0  0  0  0  0
    2.4384    1.2920    0.0000 H   0  0  0  0  0  0  0  0  0  0  0  0
    1.5616    1.2920    0.0000 H   0  0  0  0  0  0  0  0  0  0  0  0
    1.5616    0.4151    0.0000 H   0  0  0  0  0  0  0  0  0  0  0  0
  1  4  1  0  0  0  0
  1  5  1  0  0  0  0
  2  5  2  0  0  0  0
  3  4  1  0  0  0  0
  3  5  1  0  0  0  0
  3  6  1  0  0  0  0
  3  7  1  0  0  0  0
  4  8  1  0  0  0  0
  4  9  1  0  0  0  0
  6 10  1  0  0  0  0
  6 11  1  0  0  0  0
  6 12  1  0  0  0  0
M  END
> <PUBCHEM_COMPOUND_CID>
525449
> <PUBCHEM_COMPOUND_CANONICALIZED>
1
> <PUBCHEM_CACTVS_COMPLEXITY>
79.6
> <PUBCHEM_CACTVS_HBOND_ACCEPTOR>
2
> <PUBCHEM_CACTVS_HBOND_DONOR>
0
> <PUBCHEM_CACTVS_ROTATABLE_BOND>
0
> <PUBCHEM_CACTVS_SUBSKEYS>
AAADcYBgIABAAAAAAAAAAAAAAABIAAAAAAAAAAAAAAAAAAAAAAAAGgQAAAAADQCEwACCAAAAAAgIAAAQAAAAAAAAABAAAAEAAAAAAAAgAAAAAAAAAAAAAAAAAAAAAAAAAAAAAAAAAAAAAAAAAAAAAAAAAA==
> <PUBCHEM_IUPAC_OPENEYE_NAME>
3-methylthietan-2-one
> <PUBCHEM_IUPAC_CAS_NAME>
3-methyl-2-thietanone
> <PUBCHEM_IUPAC_NAME_MARKUP>
3-methylthietan-2-one
> <PUBCHEM_IUPAC_NAME>
3-methylthietan-2-one
> <PUBCHEM_IUPAC_SYSTEMATIC_NAME>
3-methylthietan-2-one
> <PUBCHEM_IUPAC_TRADITIONAL_NAME>
3-methylthietan-2-one
> <PUBCHEM_IUPAC_INCHI>
InChI=1S/C4H6OS/c1-3-2-6-4(3)5/h3H,2H2,1H3
> <PUBCHEM_IUPAC_INCHIKEY>
KANHTMXMAWADED-UHFFFAOYSA-N
> <PUBCHEM_XLOGP3_AA>
0.9
> <PUBCHEM_EXACT_MASS>
102.01393598
> <PUBCHEM_MOLECULAR_FORMULA>
C4H6OS
> <PUBCHEM_MOLECULAR_WEIGHT>
102.16
> <PUBCHEM_OPENEYE_CAN_SMILES>
CC1CSC1=O
> <PUBCHEM_OPENEYE_ISO_SMILES>
CC1CSC1=O
> <PUBCHEM_CACTVS_TPSA>
42.4
> <PUBCHEM_MONOISOTOPIC_WEIGHT>
102.01393598
> <PUBCHEM_TOTAL_CHARGE>
0
> <PUBCHEM_HEAVY_ATOM_COUNT>
6
> <PUBCHEM_ATOM_DEF_STEREO_COUNT>
0
> <PUBCHEM_ATOM_UDEF_STEREO_COUNT>
1
> <PUBCHEM_BOND_DEF_STEREO_COUNT>
0
> <PUBCHEM_BOND_UDEF_STEREO_COUNT>
0
> <PUBCHEM_ISOTOPIC_ATOM_COUNT>
0
> <PUBCHEM_COMPONENT_COUNT>
1
> <PUBCHEM_CACTVS_TAUTO_COUNT>
-1
> <PUBCHEM_COORDINATE_TYPE>
1
5
255
> <PUBCHEM_BONDANNOTATIONS>
3  6  3
$$$$
