525521
  -OEChem-10302200292D
 37 37  0     1  0  0  0  0  0999 V2000
    3.7320   -2.7500    0.0000 O   0  0  0  0  0  0  0  0  0  0  0  0
    5.4641    3.2500    0.0000 O   0  0  0  0  0  0  0  0  0  0  0  0
    3.7320    3.2500    0.0000 O   0  0  0  0  0  0  0  0  0  0  0  0
    4.5981    1.7500    0.0000 C   0  0  3  0  0  0  0  0  0  0  0  0
    3.7320    1.2500    0.0000 C   0  0  0  0  0  0  0  0  0  0  0  0
    3.7320    0.2500    0.0000 C   0  0  0  0  0  0  0  0  0  0  0  0
    5.4641    1.2500    0.0000 C   0  0  0  0  0  0  0  0  0  0  0  0
    4.5981   -0.2500    0.0000 C   0  0  0  0  0  0  0  0  0  0  0  0
    2.8660   -0.2500    0.0000 C   0  0  0  0  0  0  0  0  0  0  0  0
    4.5981    2.7500    0.0000 C   0  0  0  0  0  0  0  0  0  0  0  0
    3.7320   -1.7500    0.0000 C   0  0  0  0  0  0  0  0  0  0  0  0
    2.8660   -3.2500    0.0000 C   0  0  0  0  0  0  0  0  0  0  0  0
    4.5981   -1.2500    0.0000 C   0  0  0  0  0  0  0  0  0  0  0  0
    2.8660   -1.2500    0.0000 C   0  0  0  0  0  0  0  0  0  0  0  0
    2.8660   -4.2500    0.0000 C   0  0  0  0  0  0  0  0  0  0  0  0
    2.0000   -2.7500    0.0000 C   0  0  0  0  0  0  0  0  0  0  0  0
    5.4641    4.2500    0.0000 C   0  0  0  0  0  0  0  0  0  0  0  0
    4.5981    1.1300    0.0000 H   0  0  0  0  0  0  0  0  0  0  0  0
    3.5200    1.8326    0.0000 H   0  0  0  0  0  0  0  0  0  0  0  0
    3.1215    1.1423    0.0000 H   0  0  0  0  0  0  0  0  0  0  0  0
    5.1541    0.7131    0.0000 H   0  0  0  0  0  0  0  0  0  0  0  0
    6.0010    0.9400    0.0000 H   0  0  0  0  0  0  0  0  0  0  0  0
    5.7741    1.7869    0.0000 H   0  0  0  0  0  0  0  0  0  0  0  0
    5.1350    0.0600    0.0000 H   0  0  0  0  0  0  0  0  0  0  0  0
    2.3291    0.0600    0.0000 H   0  0  0  0  0  0  0  0  0  0  0  0
    2.8660   -2.6300    0.0000 H   0  0  0  0  0  0  0  0  0  0  0  0
    5.1350   -1.5600    0.0000 H   0  0  0  0  0  0  0  0  0  0  0  0
    2.3291   -1.5600    0.0000 H   0  0  0  0  0  0  0  0  0  0  0  0
    2.2460   -4.2500    0.0000 H   0  0  0  0  0  0  0  0  0  0  0  0
    2.8660   -4.8700    0.0000 H   0  0  0  0  0  0  0  0  0  0  0  0
    3.4860   -4.2500    0.0000 H   0  0  0  0  0  0  0  0  0  0  0  0
    2.3100   -2.2131    0.0000 H   0  0  0  0  0  0  0  0  0  0  0  0
    1.4631   -2.4400    0.0000 H   0  0  0  0  0  0  0  0  0  0  0  0
    1.6900   -3.2869    0.0000 H   0  0  0  0  0  0  0  0  0  0  0  0
    6.0841    4.2500    0.0000 H   0  0  0  0  0  0  0  0  0  0  0  0
    5.4641    4.8700    0.0000 H   0  0  0  0  0  0  0  0  0  0  0  0
    4.8441    4.2500    0.0000 H   0  0  0  0  0  0  0  0  0  0  0  0
  1 11  1  0  0  0  0
  1 12  1  0  0  0  0
  2 10  1  0  0  0  0
  2 17  1  0  0  0  0
  3 10  2  0  0  0  0
  4  5  1  0  0  0  0
  4  7  1  0  0  0  0
  4 10  1  0  0  0  0
  4 18  1  0  0  0  0
  5  6  1  0  0  0  0
  5 19  1  0  0  0  0
  5 20  1  0  0  0  0
  6  8  2  0  0  0  0
  6  9  1  0  0  0  0
  7 21  1  0  0  0  0
  7 22  1  0  0  0  0
  7 23  1  0  0  0  0
  8 13  1  0  0  0  0
  8 24  1  0  0  0  0
  9 14  2  0  0  0  0
  9 25  1  0  0  0  0
 11 13  2  0  0  0  0
 11 14  1  0  0  0  0
 12 15  1  0  0  0  0
 12 16  1  0  0  0  0
 12 26  1  0  0  0  0
 13 27  1  0  0  0  0
 14 28  1  0  0  0  0
 15 29  1  0  0  0  0
 15 30  1  0  0  0  0
 15 31  1  0  0  0  0
 16 32  1  0  0  0  0
 16 33  1  0  0  0  0
 16 34  1  0  0  0  0
 17 35  1  0  0  0  0
 17 36  1  0  0  0  0
 17 37  1  0  0  0  0
M  END
> <PUBCHEM_COMPOUND_CID>
525521
> <PUBCHEM_COMPOUND_CANONICALIZED>
1
> <PUBCHEM_CACTVS_COMPLEXITY>
230
> <PUBCHEM_CACTVS_HBOND_ACCEPTOR>
3
> <PUBCHEM_CACTVS_HBOND_DONOR>
0
> <PUBCHEM_CACTVS_ROTATABLE_BOND>
6
> <PUBCHEM_CACTVS_SUBSKEYS>
AAADceBwMAAAAAAAAAAAAAAAAAAAAAAAAAAwAAAAAAAAAAABAAAAGgAAAAAADRSgmAIyDoAABACIAiDSCAACCAAgIAAIiAEGCIgMJjKEMRqCOCCkwBEIqAeIyOCOIAAAAAAAAABAAAAAAAAAAAAAAAAAAA==
> <PUBCHEM_IUPAC_OPENEYE_NAME>
methyl 3-(4-isopropoxyphenyl)-2-methyl-propanoate
> <PUBCHEM_IUPAC_CAS_NAME>
2-methyl-3-(4-propan-2-yloxyphenyl)propanoic acid methyl ester
> <PUBCHEM_IUPAC_NAME_MARKUP>
methyl 2-methyl-3-(4-propan-2-yloxyphenyl)propanoate
> <PUBCHEM_IUPAC_NAME>
methyl 2-methyl-3-(4-propan-2-yloxyphenyl)propanoate
> <PUBCHEM_IUPAC_SYSTEMATIC_NAME>
methyl 2-methyl-3-(4-propan-2-yloxyphenyl)propanoate
> <PUBCHEM_IUPAC_TRADITIONAL_NAME>
3-(4-isopropoxyphenyl)-2-methyl-propionic acid methyl ester
> <PUBCHEM_IUPAC_INCHI>
InChI=1S/C14H20O3/c1-10(2)17-13-7-5-12(6-8-13)9-11(3)14(15)16-4/h5-8,10-11H,9H2,1-4H3
> <PUBCHEM_IUPAC_INCHIKEY>
QYGNVPMXGZFFQB-UHFFFAOYSA-N
> <PUBCHEM_XLOGP3_AA>
3.3
> <PUBCHEM_EXACT_MASS>
236.14124450
> <PUBCHEM_MOLECULAR_FORMULA>
C14H20O3
> <PUBCHEM_MOLECULAR_WEIGHT>
236.31
> <PUBCHEM_OPENEYE_CAN_SMILES>
CC(C)OC1=CC=C(C=C1)CC(C)C(=O)OC
> <PUBCHEM_OPENEYE_ISO_SMILES>
CC(C)OC1=CC=C(C=C1)CC(C)C(=O)OC
> <PUBCHEM_CACTVS_TPSA>
35.5
> <PUBCHEM_MONOISOTOPIC_WEIGHT>
236.14124450
> <PUBCHEM_TOTAL_CHARGE>
0
> <PUBCHEM_HEAVY_ATOM_COUNT>
17
> <PUBCHEM_ATOM_DEF_STEREO_COUNT>
0
> <PUBCHEM_ATOM_UDEF_STEREO_COUNT>
1
> <PUBCHEM_BOND_DEF_STEREO_COUNT>
0
> <PUBCHEM_BOND_UDEF_STEREO_COUNT>
0
> <PUBCHEM_ISOTOPIC_ATOM_COUNT>
0
> <PUBCHEM_COMPONENT_COUNT>
1
> <PUBCHEM_CACTVS_TAUTO_COUNT>
-1
> <PUBCHEM_COORDINATE_TYPE>
1
5
255
> <PUBCHEM_BONDANNOTATIONS>
11  13  8
11  14  8
4  7  3
6  8  8
6  9  8
8  13  8
9  14  8
$$$$
