525984
  -OEChem-10302200292D
 55 55  0     1  0  0  0  0  0999 V2000
    3.7601   -1.3742    0.0000 S   0  0  0  0  0  0  0  0  0  0  0  0
    4.5691   -0.7864    0.0000 C   0  0  3  0  0  0  0  0  0  0  0  0
    4.2601    0.1646    0.0000 C   0  0  0  0  0  0  0  0  0  0  0  0
    3.2601    0.1646    0.0000 C   0  0  0  0  0  0  0  0  0  0  0  0
    5.5202   -1.0955    0.0000 C   0  0  0  0  0  0  0  0  0  0  0  0
    2.9511   -0.7864    0.0000 C   0  0  3  0  0  0  0  0  0  0  0  0
    6.2633   -0.4263    0.0000 C   0  0  0  0  0  0  0  0  0  0  0  0
    7.2144   -0.7354    0.0000 C   0  0  0  0  0  0  0  0  0  0  0  0
    7.9575   -0.0662    0.0000 C   0  0  0  0  0  0  0  0  0  0  0  0
    8.9086   -0.3752    0.0000 C   0  0  0  0  0  0  0  0  0  0  0  0
    2.0000   -1.0955    0.0000 C   0  0  0  0  0  0  0  0  0  0  0  0
    9.6517    0.2939    0.0000 C   0  0  0  0  0  0  0  0  0  0  0  0
   10.6028   -0.0151    0.0000 C   0  0  0  0  0  0  0  0  0  0  0  0
   11.3459    0.6540    0.0000 C   0  0  0  0  0  0  0  0  0  0  0  0
   12.2970    0.3450    0.0000 C   0  0  0  0  0  0  0  0  0  0  0  0
   13.0401    1.0141    0.0000 C   0  0  0  0  0  0  0  0  0  0  0  0
   13.9912    0.7051    0.0000 C   0  0  0  0  0  0  0  0  0  0  0  0
   14.7343    1.3742    0.0000 C   0  0  0  0  0  0  0  0  0  0  0  0
   15.6854    1.0652    0.0000 C   0  0  0  0  0  0  0  0  0  0  0  0
    4.6661   -1.3988    0.0000 H   0  0  0  0  0  0  0  0  0  0  0  0
    4.8665    0.2935    0.0000 H   0  0  0  0  0  0  0  0  0  0  0  0
    4.1953    0.7812    0.0000 H   0  0  0  0  0  0  0  0  0  0  0  0
    5.2291   -1.6429    0.0000 H   0  0  0  0  0  0  0  0  0  0  0  0
    6.0087   -1.4772    0.0000 H   0  0  0  0  0  0  0  0  0  0  0  0
    3.3249    0.7812    0.0000 H   0  0  0  0  0  0  0  0  0  0  0  0
    2.6536    0.2935    0.0000 H   0  0  0  0  0  0  0  0  0  0  0  0
    2.8541   -1.3988    0.0000 H   0  0  0  0  0  0  0  0  0  0  0  0
    6.5544    0.1211    0.0000 H   0  0  0  0  0  0  0  0  0  0  0  0
    5.7747   -0.0446    0.0000 H   0  0  0  0  0  0  0  0  0  0  0  0
    6.9233   -1.2828    0.0000 H   0  0  0  0  0  0  0  0  0  0  0  0
    7.7029   -1.1171    0.0000 H   0  0  0  0  0  0  0  0  0  0  0  0
    8.2486    0.4812    0.0000 H   0  0  0  0  0  0  0  0  0  0  0  0
    7.4689    0.3155    0.0000 H   0  0  0  0  0  0  0  0  0  0  0  0
    8.6175   -0.9227    0.0000 H   0  0  0  0  0  0  0  0  0  0  0  0
    9.3971   -0.7569    0.0000 H   0  0  0  0  0  0  0  0  0  0  0  0
    1.8084   -0.5058    0.0000 H   0  0  0  0  0  0  0  0  0  0  0  0
    1.4103   -1.2871    0.0000 H   0  0  0  0  0  0  0  0  0  0  0  0
    2.1916   -1.6851    0.0000 H   0  0  0  0  0  0  0  0  0  0  0  0
    9.9428    0.8413    0.0000 H   0  0  0  0  0  0  0  0  0  0  0  0
    9.1631    0.6756    0.0000 H   0  0  0  0  0  0  0  0  0  0  0  0
   10.3117   -0.5626    0.0000 H   0  0  0  0  0  0  0  0  0  0  0  0
   11.0913   -0.3968    0.0000 H   0  0  0  0  0  0  0  0  0  0  0  0
   11.6370    1.2014    0.0000 H   0  0  0  0  0  0  0  0  0  0  0  0
   10.8573    1.0357    0.0000 H   0  0  0  0  0  0  0  0  0  0  0  0
   12.0059   -0.2024    0.0000 H   0  0  0  0  0  0  0  0  0  0  0  0
   12.7855   -0.0367    0.0000 H   0  0  0  0  0  0  0  0  0  0  0  0
   13.3312    1.5616    0.0000 H   0  0  0  0  0  0  0  0  0  0  0  0
   12.5515    1.3958    0.0000 H   0  0  0  0  0  0  0  0  0  0  0  0
   13.7001    0.1577    0.0000 H   0  0  0  0  0  0  0  0  0  0  0  0
   14.4797    0.3234    0.0000 H   0  0  0  0  0  0  0  0  0  0  0  0
   15.0254    1.9217    0.0000 H   0  0  0  0  0  0  0  0  0  0  0  0
   14.2457    1.7559    0.0000 H   0  0  0  0  0  0  0  0  0  0  0  0
   15.4938    0.4756    0.0000 H   0  0  0  0  0  0  0  0  0  0  0  0
   16.2750    0.8736    0.0000 H   0  0  0  0  0  0  0  0  0  0  0  0
   15.8769    1.6549    0.0000 H   0  0  0  0  0  0  0  0  0  0  0  0
  1  2  1  0  0  0  0
  1  6  1  0  0  0  0
  2  3  1  0  0  0  0
  2  5  1  0  0  0  0
  2 20  1  0  0  0  0
  3  4  1  0  0  0  0
  3 21  1  0  0  0  0
  3 22  1  0  0  0  0
  4  6  1  0  0  0  0
  4 25  1  0  0  0  0
  4 26  1  0  0  0  0
  5  7  1  0  0  0  0
  5 23  1  0  0  0  0
  5 24  1  0  0  0  0
  6 11  1  0  0  0  0
  6 27  1  0  0  0  0
  7  8  1  0  0  0  0
  7 28  1  0  0  0  0
  7 29  1  0  0  0  0
  8  9  1  0  0  0  0
  8 30  1  0  0  0  0
  8 31  1  0  0  0  0
  9 10  1  0  0  0  0
  9 32  1  0  0  0  0
  9 33  1  0  0  0  0
 10 12  1  0  0  0  0
 10 34  1  0  0  0  0
 10 35  1  0  0  0  0
 11 36  1  0  0  0  0
 11 37  1  0  0  0  0
 11 38  1  0  0  0  0
 12 13  1  0  0  0  0
 12 39  1  0  0  0  0
 12 40  1  0  0  0  0
 13 14  1  0  0  0  0
 13 41  1  0  0  0  0
 13 42  1  0  0  0  0
 14 15  1  0  0  0  0
 14 43  1  0  0  0  0
 14 44  1  0  0  0  0
 15 16  1  0  0  0  0
 15 45  1  0  0  0  0
 15 46  1  0  0  0  0
 16 17  1  0  0  0  0
 16 47  1  0  0  0  0
 16 48  1  0  0  0  0
 17 18  1  0  0  0  0
 17 49  1  0  0  0  0
 17 50  1  0  0  0  0
 18 19  1  0  0  0  0
 18 51  1  0  0  0  0
 18 52  1  0  0  0  0
 19 53  1  0  0  0  0
 19 54  1  0  0  0  0
 19 55  1  0  0  0  0
M  END
> <PUBCHEM_COMPOUND_CID>
525984
> <PUBCHEM_COMPOUND_CANONICALIZED>
1
> <PUBCHEM_CACTVS_COMPLEXITY>
190
> <PUBCHEM_CACTVS_HBOND_ACCEPTOR>
1
> <PUBCHEM_CACTVS_HBOND_DONOR>
0
> <PUBCHEM_CACTVS_ROTATABLE_BOND>
12
> <PUBCHEM_CACTVS_SUBSKEYS>
AAADcfB4AABAAAAAAAAAAAAAAAAAASAAAAAAAAAAAAAAAAAAAAAAGAQAAAAACACEQACCAAAAAAgAAAAAAAAAAAAAABAAAAAAAAAAAAIgAAAAAAAAAAAgAAEAgIAAAAAAAAAAAAAAAAAAAAAAAAAAAAAAAA==
> <PUBCHEM_IUPAC_OPENEYE_NAME>
2-methyl-5-tridecyl-tetrahydrothiophene
> <PUBCHEM_IUPAC_CAS_NAME>
2-methyl-5-tridecylthiolane
> <PUBCHEM_IUPAC_NAME_MARKUP>
2-methyl-5-tridecylthiolane
> <PUBCHEM_IUPAC_NAME>
2-methyl-5-tridecylthiolane
> <PUBCHEM_IUPAC_SYSTEMATIC_NAME>
2-methyl-5-tridecyl-thiolane
> <PUBCHEM_IUPAC_TRADITIONAL_NAME>
2-methyl-5-tridecyl-tetrahydrothiophene
> <PUBCHEM_IUPAC_INCHI>
InChI=1S/C18H36S/c1-3-4-5-6-7-8-9-10-11-12-13-14-18-16-15-17(2)19-18/h17-18H,3-16H2,1-2H3
> <PUBCHEM_IUPAC_INCHIKEY>
LYFJDRZCTYKLQZ-UHFFFAOYSA-N
> <PUBCHEM_XLOGP3_AA>
8.5
> <PUBCHEM_EXACT_MASS>
284.25377232
> <PUBCHEM_MOLECULAR_FORMULA>
C18H36S
> <PUBCHEM_MOLECULAR_WEIGHT>
284.5
> <PUBCHEM_OPENEYE_CAN_SMILES>
CCCCCCCCCCCCCC1CCC(S1)C
> <PUBCHEM_OPENEYE_ISO_SMILES>
CCCCCCCCCCCCCC1CCC(S1)C
> <PUBCHEM_CACTVS_TPSA>
25.3
> <PUBCHEM_MONOISOTOPIC_WEIGHT>
284.25377232
> <PUBCHEM_TOTAL_CHARGE>
0
> <PUBCHEM_HEAVY_ATOM_COUNT>
19
> <PUBCHEM_ATOM_DEF_STEREO_COUNT>
0
> <PUBCHEM_ATOM_UDEF_STEREO_COUNT>
2
> <PUBCHEM_BOND_DEF_STEREO_COUNT>
0
> <PUBCHEM_BOND_UDEF_STEREO_COUNT>
0
> <PUBCHEM_ISOTOPIC_ATOM_COUNT>
0
> <PUBCHEM_COMPONENT_COUNT>
1
> <PUBCHEM_CACTVS_TAUTO_COUNT>
-1
> <PUBCHEM_COORDINATE_TYPE>
1
5
255
> <PUBCHEM_BONDANNOTATIONS>
2  5  3
6  11  3
$$$$
