525966
  -OEChem-10302200292D
 41 41  0     1  0  0  0  0  0999 V2000
    5.7320   -0.2321    0.0000 O   0  0  0  0  0  0  0  0  0  0  0  0
    2.2680   -0.2321    0.0000 O   0  0  0  0  0  0  0  0  0  0  0  0
    4.0000   -3.2320    0.0000 O   0  0  0  0  0  0  0  0  0  0  0  0
    4.8660   -1.7320    0.0000 N   0  0  0  0  0  0  0  0  0  0  0  0
    3.1340   -1.7320    0.0000 N   0  0  0  0  0  0  0  0  0  0  0  0
    4.0000   -0.2321    0.0000 C   0  0  0  0  0  0  0  0  0  0  0  0
    4.5000    0.6340    0.0000 C   0  0  3  0  0  0  0  0  0  0  0  0
    4.0000    1.5000    0.0000 C   0  0  0  0  0  0  0  0  0  0  0  0
    3.5000    0.6340    0.0000 C   0  0  0  0  0  0  0  0  0  0  0  0
    4.8660   -0.7321    0.0000 C   0  0  0  0  0  0  0  0  0  0  0  0
    3.1340   -0.7321    0.0000 C   0  0  0  0  0  0  0  0  0  0  0  0
    5.5000    0.6340    0.0000 C   0  0  0  0  0  0  0  0  0  0  0  0
    4.5000    2.3660    0.0000 C   0  0  0  0  0  0  0  0  0  0  0  0
    4.0000   -2.2320    0.0000 C   0  0  0  0  0  0  0  0  0  0  0  0
    2.5000    0.6340    0.0000 C   0  0  0  0  0  0  0  0  0  0  0  0
    4.0000    3.2320    0.0000 C   0  0  0  0  0  0  0  0  0  0  0  0
    5.7320   -2.2320    0.0000 C   0  0  0  0  0  0  0  0  0  0  0  0
    2.2680   -2.2320    0.0000 C   0  0  0  0  0  0  0  0  0  0  0  0
    2.0000    1.5000    0.0000 C   0  0  0  0  0  0  0  0  0  0  0  0
    4.8100    1.1709    0.0000 H   0  0  0  0  0  0  0  0  0  0  0  0
    3.5250    1.8985    0.0000 H   0  0  0  0  0  0  0  0  0  0  0  0
    3.5250    1.1015    0.0000 H   0  0  0  0  0  0  0  0  0  0  0  0
    4.0826    0.8460    0.0000 H   0  0  0  0  0  0  0  0  0  0  0  0
    3.3923    1.2446    0.0000 H   0  0  0  0  0  0  0  0  0  0  0  0
    5.5000    0.0140    0.0000 H   0  0  0  0  0  0  0  0  0  0  0  0
    6.1200    0.6340    0.0000 H   0  0  0  0  0  0  0  0  0  0  0  0
    5.5000    1.2540    0.0000 H   0  0  0  0  0  0  0  0  0  0  0  0
    4.9750    1.9675    0.0000 H   0  0  0  0  0  0  0  0  0  0  0  0
    4.9750    2.7646    0.0000 H   0  0  0  0  0  0  0  0  0  0  0  0
    2.1900    0.0970    0.0000 H   0  0  0  0  0  0  0  0  0  0  0  0
    4.5369    3.5420    0.0000 H   0  0  0  0  0  0  0  0  0  0  0  0
    3.6900    3.7690    0.0000 H   0  0  0  0  0  0  0  0  0  0  0  0
    3.4631    2.9220    0.0000 H   0  0  0  0  0  0  0  0  0  0  0  0
    5.4220   -2.7690    0.0000 H   0  0  0  0  0  0  0  0  0  0  0  0
    6.2690   -2.5420    0.0000 H   0  0  0  0  0  0  0  0  0  0  0  0
    6.0420   -1.6951    0.0000 H   0  0  0  0  0  0  0  0  0  0  0  0
    1.9580   -1.6951    0.0000 H   0  0  0  0  0  0  0  0  0  0  0  0
    1.7310   -2.5420    0.0000 H   0  0  0  0  0  0  0  0  0  0  0  0
    2.5780   -2.7690    0.0000 H   0  0  0  0  0  0  0  0  0  0  0  0
    2.3100    2.0369    0.0000 H   0  0  0  0  0  0  0  0  0  0  0  0
    1.3800    1.5000    0.0000 H   0  0  0  0  0  0  0  0  0  0  0  0
  1 10  2  0  0  0  0
  2 11  2  0  0  0  0
  3 14  2  0  0  0  0
  4 10  1  0  0  0  0
  4 14  1  0  0  0  0
  4 17  1  0  0  0  0
  5 11  1  0  0  0  0
  5 14  1  0  0  0  0
  5 18  1  0  0  0  0
  6  7  1  0  0  0  0
  6  9  1  0  0  0  0
  6 10  1  0  0  0  0
  6 11  1  0  0  0  0
  7  8  1  0  0  0  0
  7 12  1  0  0  0  0
  7 20  1  0  0  0  0
  8 13  1  0  0  0  0
  8 21  1  0  0  0  0
  8 22  1  0  0  0  0
  9 15  1  0  0  0  0
  9 23  1  0  0  0  0
  9 24  1  0  0  0  0
 12 25  1  0  0  0  0
 12 26  1  0  0  0  0
 12 27  1  0  0  0  0
 13 16  1  0  0  0  0
 13 28  1  0  0  0  0
 13 29  1  0  0  0  0
 15 19  2  0  0  0  0
 15 30  1  0  0  0  0
 16 31  1  0  0  0  0
 16 32  1  0  0  0  0
 16 33  1  0  0  0  0
 17 34  1  0  0  0  0
 17 35  1  0  0  0  0
 17 36  1  0  0  0  0
 18 37  1  0  0  0  0
 18 38  1  0  0  0  0
 18 39  1  0  0  0  0
 19 40  1  0  0  0  0
 19 41  1  0  0  0  0
M  END
> <PUBCHEM_COMPOUND_CID>
525966
> <PUBCHEM_COMPOUND_CANONICALIZED>
1
> <PUBCHEM_CACTVS_COMPLEXITY>
393
> <PUBCHEM_CACTVS_HBOND_ACCEPTOR>
3
> <PUBCHEM_CACTVS_HBOND_DONOR>
0
> <PUBCHEM_CACTVS_ROTATABLE_BOND>
5
> <PUBCHEM_CACTVS_SUBSKEYS>
AAADceBzMAAAAAAAAAAAAAAAAAAAAAAAAAAsAAAAAAAAAAAAAAAAHgAAAAAADwCBgAQDAAMAAACIACFSEAAAAAAgAAAIAAEIAAiAABoIwQAEAAAIhyIAAAEYiAAPgAAAAAAAAAAAAAAAAAAAAAAAAAAAAA==
> <PUBCHEM_IUPAC_OPENEYE_NAME>
5-allyl-1,3-dimethyl-5-(1-methylbutyl)hexahydropyrimidine-2,4,6-trione
> <PUBCHEM_IUPAC_CAS_NAME>
1,3-dimethyl-5-pentan-2-yl-5-prop-2-enyl-1,3-diazinane-2,4,6-trione
> <PUBCHEM_IUPAC_NAME_MARKUP>
1,3-dimethyl-5-pentan-2-yl-5-prop-2-enyl-1,3-diazinane-2,4,6-trione
> <PUBCHEM_IUPAC_NAME>
1,3-dimethyl-5-pentan-2-yl-5-prop-2-enyl-1,3-diazinane-2,4,6-trione
> <PUBCHEM_IUPAC_SYSTEMATIC_NAME>
1,3-dimethyl-5-pentan-2-yl-5-prop-2-enyl-1,3-diazinane-2,4,6-trione
> <PUBCHEM_IUPAC_TRADITIONAL_NAME>
5-allyl-1,3-dimethyl-5-(1-methylbutyl)barbituric acid
> <PUBCHEM_IUPAC_INCHI>
InChI=1S/C14H22N2O3/c1-6-8-10(3)14(9-7-2)11(17)15(4)13(19)16(5)12(14)18/h7,10H,2,6,8-9H2,1,3-5H3
> <PUBCHEM_IUPAC_INCHIKEY>
KKPCLTFASPTTIQ-UHFFFAOYSA-N
> <PUBCHEM_XLOGP3_AA>
2.6
> <PUBCHEM_EXACT_MASS>
266.16304257
> <PUBCHEM_MOLECULAR_FORMULA>
C14H22N2O3
> <PUBCHEM_MOLECULAR_WEIGHT>
266.34
> <PUBCHEM_OPENEYE_CAN_SMILES>
CCCC(C)C1(C(=O)N(C(=O)N(C1=O)C)C)CC=C
> <PUBCHEM_OPENEYE_ISO_SMILES>
CCCC(C)C1(C(=O)N(C(=O)N(C1=O)C)C)CC=C
> <PUBCHEM_CACTVS_TPSA>
57.7
> <PUBCHEM_MONOISOTOPIC_WEIGHT>
266.16304257
> <PUBCHEM_TOTAL_CHARGE>
0
> <PUBCHEM_HEAVY_ATOM_COUNT>
19
> <PUBCHEM_ATOM_DEF_STEREO_COUNT>
0
> <PUBCHEM_ATOM_UDEF_STEREO_COUNT>
1
> <PUBCHEM_BOND_DEF_STEREO_COUNT>
0
> <PUBCHEM_BOND_UDEF_STEREO_COUNT>
0
> <PUBCHEM_ISOTOPIC_ATOM_COUNT>
0
> <PUBCHEM_COMPONENT_COUNT>
1
> <PUBCHEM_CACTVS_TAUTO_COUNT>
1
> <PUBCHEM_COORDINATE_TYPE>
1
5
255
> <PUBCHEM_BONDANNOTATIONS>
7  12  3
$$$$
