525918
  -OEChem-10302200292D
 77 80  0     1  0  0  0  0  0999 V2000
    6.5251   -0.6074    0.0000 C   0  0  3  0  0  0  0  0  0  0  0  0
    6.5251   -1.6074    0.0000 C   0  0  3  0  0  0  0  0  0  0  0  0
    5.6591   -2.1074    0.0000 C   0  0  3  0  0  0  0  0  0  0  0  0
    7.4714   -0.3027    0.0000 C   0  0  3  0  0  0  0  0  0  0  0  0
    4.7931   -1.6074    0.0000 C   0  0  3  0  0  0  0  0  0  0  0  0
    5.6591   -0.1074    0.0000 C   0  0  0  0  0  0  0  0  0  0  0  0
    7.4714   -1.9122    0.0000 C   0  0  0  0  0  0  0  0  0  0  0  0
    4.7931   -0.6074    0.0000 C   0  0  0  0  0  0  0  0  0  0  0  0
    8.0550   -1.1074    0.0000 C   0  0  0  0  0  0  0  0  0  0  0  0
    3.8831   -2.1143    0.0000 C   0  0  3  0  0  0  0  0  0  0  0  0
    7.7820    0.6478    0.0000 C   0  0  3  0  0  0  0  0  0  0  0  0
    5.6752   -3.1489    0.0000 C   0  0  0  0  0  0  0  0  0  0  0  0
    6.5251    0.3926    0.0000 C   0  0  0  0  0  0  0  0  0  0  0  0
    3.8751   -3.1559    0.0000 C   0  0  0  0  0  0  0  0  0  0  0  0
    2.9562   -1.5502    0.0000 C   0  0  0  0  0  0  0  0  0  0  0  0
    4.7771   -3.6767    0.0000 C   0  0  0  0  0  0  0  0  0  0  0  0
    3.8908   -1.1143    0.0000 C   0  0  0  0  0  0  0  0  0  0  0  0
    8.7605    0.8540    0.0000 C   0  0  0  0  0  0  0  0  0  0  0  0
    7.1142    1.3921    0.0000 C   0  0  0  0  0  0  0  0  0  0  0  0
    2.0084   -2.0781    0.0000 C   0  0  0  0  0  0  0  0  0  0  0  0
    2.9396   -3.7056    0.0000 C   0  0  0  0  0  0  0  0  0  0  0  0
    9.0712    1.8046    0.0000 C   0  0  0  0  0  0  0  0  0  0  0  0
    2.0000   -3.1631    0.0000 C   0  0  0  0  0  0  0  0  0  0  0  0
   10.0497    2.0108    0.0000 C   0  0  3  0  0  0  0  0  0  0  0  0
   10.3604    2.9613    0.0000 C   0  0  0  0  0  0  0  0  0  0  0  0
   10.7175    1.2665    0.0000 C   0  0  0  0  0  0  0  0  0  0  0  0
   11.3389    3.1675    0.0000 C   0  0  0  0  0  0  0  0  0  0  0  0
    9.6925    3.7056    0.0000 C   0  0  0  0  0  0  0  0  0  0  0  0
   11.6960    1.4727    0.0000 C   0  0  0  0  0  0  0  0  0  0  0  0
    6.5908   -2.2240    0.0000 H   0  0  0  0  0  0  0  0  0  0  0  0
    6.1984   -2.4133    0.0000 H   0  0  0  0  0  0  0  0  0  0  0  0
    8.0838   -0.2065    0.0000 H   0  0  0  0  0  0  0  0  0  0  0  0
    5.3300   -1.2974    0.0000 H   0  0  0  0  0  0  0  0  0  0  0  0
    6.0576    0.3675    0.0000 H   0  0  0  0  0  0  0  0  0  0  0  0
    5.2606    0.3675    0.0000 H   0  0  0  0  0  0  0  0  0  0  0  0
    7.2203   -2.4791    0.0000 H   0  0  0  0  0  0  0  0  0  0  0  0
    8.0087   -2.2214    0.0000 H   0  0  0  0  0  0  0  0  0  0  0  0
    4.5810   -0.0248    0.0000 H   0  0  0  0  0  0  0  0  0  0  0  0
    4.1825   -0.7151    0.0000 H   0  0  0  0  0  0  0  0  0  0  0  0
    8.5158   -1.5222    0.0000 H   0  0  0  0  0  0  0  0  0  0  0  0
    8.5158   -0.6927    0.0000 H   0  0  0  0  0  0  0  0  0  0  0  0
    7.9746    1.2371    0.0000 H   0  0  0  0  0  0  0  0  0  0  0  0
    5.8932   -3.7293    0.0000 H   0  0  0  0  0  0  0  0  0  0  0  0
    6.2843   -3.0334    0.0000 H   0  0  0  0  0  0  0  0  0  0  0  0
    7.1451    0.3926    0.0000 H   0  0  0  0  0  0  0  0  0  0  0  0
    6.5251    1.0126    0.0000 H   0  0  0  0  0  0  0  0  0  0  0  0
    5.9051    0.3926    0.0000 H   0  0  0  0  0  0  0  0  0  0  0  0
    3.3645   -1.0835    0.0000 H   0  0  0  0  0  0  0  0  0  0  0  0
    2.5663   -1.0682    0.0000 H   0  0  0  0  0  0  0  0  0  0  0  0
    4.7795   -4.2967    0.0000 H   0  0  0  0  0  0  0  0  0  0  0  0
    4.5108   -1.1191    0.0000 H   0  0  0  0  0  0  0  0  0  0  0  0
    3.8956   -0.4943    0.0000 H   0  0  0  0  0  0  0  0  0  0  0  0
    3.2708   -1.1095    0.0000 H   0  0  0  0  0  0  0  0  0  0  0  0
    8.7811    0.2344    0.0000 H   0  0  0  0  0  0  0  0  0  0  0  0
    9.3743    0.7667    0.0000 H   0  0  0  0  0  0  0  0  0  0  0  0
    7.5756    1.8062    0.0000 H   0  0  0  0  0  0  0  0  0  0  0  0
    6.7001    1.8536    0.0000 H   0  0  0  0  0  0  0  0  0  0  0  0
    6.6527    0.9781    0.0000 H   0  0  0  0  0  0  0  0  0  0  0  0
    1.8038   -1.4929    0.0000 H   0  0  0  0  0  0  0  0  0  0  0  0
    1.3967   -2.1795    0.0000 H   0  0  0  0  0  0  0  0  0  0  0  0
    2.9420   -4.3256    0.0000 H   0  0  0  0  0  0  0  0  0  0  0  0
    9.0506    2.4242    0.0000 H   0  0  0  0  0  0  0  0  0  0  0  0
    8.4574    1.8919    0.0000 H   0  0  0  0  0  0  0  0  0  0  0  0
    1.4619   -3.4710    0.0000 H   0  0  0  0  0  0  0  0  0  0  0  0
    9.8571    1.4215    0.0000 H   0  0  0  0  0  0  0  0  0  0  0  0
   10.5530    3.5506    0.0000 H   0  0  0  0  0  0  0  0  0  0  0  0
   10.1912    0.9388    0.0000 H   0  0  0  0  0  0  0  0  0  0  0  0
   10.9488    0.6912    0.0000 H   0  0  0  0  0  0  0  0  0  0  0  0
   11.4667    2.5608    0.0000 H   0  0  0  0  0  0  0  0  0  0  0  0
   11.9455    3.2954    0.0000 H   0  0  0  0  0  0  0  0  0  0  0  0
   11.2110    3.7742    0.0000 H   0  0  0  0  0  0  0  0  0  0  0  0
   10.1540    4.1197    0.0000 H   0  0  0  0  0  0  0  0  0  0  0  0
    9.2784    4.1671    0.0000 H   0  0  0  0  0  0  0  0  0  0  0  0
    9.2310    3.2915    0.0000 H   0  0  0  0  0  0  0  0  0  0  0  0
   11.8239    0.8660    0.0000 H   0  0  0  0  0  0  0  0  0  0  0  0
   12.3027    1.6006    0.0000 H   0  0  0  0  0  0  0  0  0  0  0  0
   11.5682    2.0794    0.0000 H   0  0  0  0  0  0  0  0  0  0  0  0
  1  2  1  0  0  0  0
  1  4  1  0  0  0  0
  1  6  1  0  0  0  0
  1 13  1  0  0  0  0
  2  3  1  0  0  0  0
  2  7  1  0  0  0  0
  2 30  1  0  0  0  0
  3  5  1  0  0  0  0
  3 12  1  0  0  0  0
  3 31  1  0  0  0  0
  4  9  1  0  0  0  0
  4 11  1  0  0  0  0
  4 32  1  0  0  0  0
  5  8  1  0  0  0  0
  5 10  1  0  0  0  0
  5 33  1  0  0  0  0
  6  8  1  0  0  0  0
  6 34  1  0  0  0  0
  6 35  1  0  0  0  0
  7  9  1  0  0  0  0
  7 36  1  0  0  0  0
  7 37  1  0  0  0  0
  8 38  1  0  0  0  0
  8 39  1  0  0  0  0
  9 40  1  0  0  0  0
  9 41  1  0  0  0  0
 10 14  1  0  0  0  0
 10 15  1  0  0  0  0
 10 17  1  0  0  0  0
 11 18  1  0  0  0  0
 11 19  1  0  0  0  0
 11 42  1  0  0  0  0
 12 16  1  0  0  0  0
 12 43  1  0  0  0  0
 12 44  1  0  0  0  0
 13 45  1  0  0  0  0
 13 46  1  0  0  0  0
 13 47  1  0  0  0  0
 14 16  2  0  0  0  0
 14 21  1  0  0  0  0
 15 20  1  0  0  0  0
 15 48  1  0  0  0  0
 15 49  1  0  0  0  0
 16 50  1  0  0  0  0
 17 51  1  0  0  0  0
 17 52  1  0  0  0  0
 17 53  1  0  0  0  0
 18 22  1  0  0  0  0
 18 54  1  0  0  0  0
 18 55  1  0  0  0  0
 19 56  1  0  0  0  0
 19 57  1  0  0  0  0
 19 58  1  0  0  0  0
 20 23  1  0  0  0  0
 20 59  1  0  0  0  0
 20 60  1  0  0  0  0
 21 23  2  0  0  0  0
 21 61  1  0  0  0  0
 22 24  1  0  0  0  0
 22 62  1  0  0  0  0
 22 63  1  0  0  0  0
 23 64  1  0  0  0  0
 24 25  1  0  0  0  0
 24 26  1  0  0  0  0
 24 65  1  0  0  0  0
 25 27  1  0  0  0  0
 25 28  1  0  0  0  0
 25 66  1  0  0  0  0
 26 29  1  0  0  0  0
 26 67  1  0  0  0  0
 26 68  1  0  0  0  0
 27 69  1  0  0  0  0
 27 70  1  0  0  0  0
 27 71  1  0  0  0  0
 28 72  1  0  0  0  0
 28 73  1  0  0  0  0
 28 74  1  0  0  0  0
 29 75  1  0  0  0  0
 29 76  1  0  0  0  0
 29 77  1  0  0  0  0
M  END
> <PUBCHEM_COMPOUND_CID>
525918
> <PUBCHEM_COMPOUND_CANONICALIZED>
1
> <PUBCHEM_CACTVS_COMPLEXITY>
638
> <PUBCHEM_CACTVS_HBOND_ACCEPTOR>
0
> <PUBCHEM_CACTVS_HBOND_DONOR>
0
> <PUBCHEM_CACTVS_ROTATABLE_BOND>
6
> <PUBCHEM_CACTVS_SUBSKEYS>
AAADcfB4AAAAAAAAAAAAAAAAAAAAAYAAAAAwQIAAAAAAAGCAAAAAGAAAAAAADwCAAAACAAAAAACAAiBCAAAAAAAgAAAICAAAAAgIAAIAAQAAAAAAgAAIgAMAgMAPgAAAAAAAAACAAAQAACAAAQAACAAAAA==
> <PUBCHEM_IUPAC_OPENEYE_NAME>
17-(4-ethyl-1,5-dimethyl-hexyl)-10,13-dimethyl-2,7,8,9,11,12,14,15,16,17-decahydro-1H-cyclopenta[a]phenanthrene
> <PUBCHEM_IUPAC_CAS_NAME>
17-(5-ethyl-6-methylheptan-2-yl)-10,13-dimethyl-2,7,8,9,11,12,14,15,16,17-decahydro-1H-cyclopenta[a]phenanthrene
> <PUBCHEM_IUPAC_NAME_MARKUP>
17-(5-ethyl-6-methylheptan-2-yl)-10,13-dimethyl-2,7,8,9,11,12,14,15,16,17-decahydro-1<I>H</I>-cyclopenta[a]phenanthrene
> <PUBCHEM_IUPAC_NAME>
17-(5-ethyl-6-methylheptan-2-yl)-10,13-dimethyl-2,7,8,9,11,12,14,15,16,17-decahydro-1H-cyclopenta[a]phenanthrene
> <PUBCHEM_IUPAC_SYSTEMATIC_NAME>
17-(5-ethyl-6-methyl-heptan-2-yl)-10,13-dimethyl-2,7,8,9,11,12,14,15,16,17-decahydro-1H-cyclopenta[a]phenanthrene
> <PUBCHEM_IUPAC_TRADITIONAL_NAME>
17-(4-ethyl-1,5-dimethyl-hexyl)-10,13-dimethyl-2,7,8,9,11,12,14,15,16,17-decahydro-1H-cyclopenta[a]phenanthrene
> <PUBCHEM_IUPAC_INCHI>
InChI=1S/C29H48/c1-7-22(20(2)3)12-11-21(4)25-15-16-26-24-14-13-23-10-8-9-18-28(23,5)27(24)17-19-29(25,26)6/h8,10,13,20-22,24-27H,7,9,11-12,14-19H2,1-6H3
> <PUBCHEM_IUPAC_INCHIKEY>
ICCTZARHLGPHMT-UHFFFAOYSA-N
> <PUBCHEM_XLOGP3_AA>
10.6
> <PUBCHEM_EXACT_MASS>
396.375601531
> <PUBCHEM_MOLECULAR_FORMULA>
C29H48
> <PUBCHEM_MOLECULAR_WEIGHT>
396.7
> <PUBCHEM_OPENEYE_CAN_SMILES>
CCC(CCC(C)C1CCC2C1(CCC3C2CC=C4C3(CCC=C4)C)C)C(C)C
> <PUBCHEM_OPENEYE_ISO_SMILES>
CCC(CCC(C)C1CCC2C1(CCC3C2CC=C4C3(CCC=C4)C)C)C(C)C
> <PUBCHEM_CACTVS_TPSA>
0
> <PUBCHEM_MONOISOTOPIC_WEIGHT>
396.375601531
> <PUBCHEM_TOTAL_CHARGE>
0
> <PUBCHEM_HEAVY_ATOM_COUNT>
29
> <PUBCHEM_ATOM_DEF_STEREO_COUNT>
0
> <PUBCHEM_ATOM_UDEF_STEREO_COUNT>
8
> <PUBCHEM_BOND_DEF_STEREO_COUNT>
0
> <PUBCHEM_BOND_UDEF_STEREO_COUNT>
0
> <PUBCHEM_ISOTOPIC_ATOM_COUNT>
0
> <PUBCHEM_COMPONENT_COUNT>
1
> <PUBCHEM_CACTVS_TAUTO_COUNT>
-1
> <PUBCHEM_COORDINATE_TYPE>
1
5
255
> <PUBCHEM_BONDANNOTATIONS>
1  13  3
10  17  3
11  19  3
2  7  3
24  26  3
3  12  3
4  9  3
5  8  3
$$$$
