526096
  -OEChem-10302200292D
108111  0     1  0  0  0  0  0999 V2000
    6.5232    1.6006    0.0000 Si  0  0  0  0  0  0  0  0  0  0  0  0
    9.9697    2.3347    0.0000 Si  0  0  0  0  0  0  0  0  0  0  0  0
    2.8641   -2.4484    0.0000 Si  0  0  0  0  0  0  0  0  0  0  0  0
   13.2297   -1.0091    0.0000 Si  0  0  0  0  0  0  0  0  0  0  0  0
    6.5232    0.6006    0.0000 O   0  0  0  0  0  0  0  0  0  0  0  0
    9.7601    1.3569    0.0000 O   0  0  0  0  0  0  0  0  0  0  0  0
    3.7282   -2.9517    0.0000 O   0  0  0  0  0  0  0  0  0  0  0  0
   11.4705    1.4210    0.0000 O   0  0  0  0  0  0  0  0  0  0  0  0
   12.6433   -0.1991    0.0000 O   0  0  0  0  0  0  0  0  0  0  0  0
    7.3892   -0.8994    0.0000 C   0  0  3  0  0  0  0  0  0  0  0  0
    8.2552   -1.3994    0.0000 C   0  0  3  0  0  0  0  0  0  0  0  0
    9.1213   -0.8994    0.0000 C   0  0  3  0  0  0  0  0  0  0  0  0
    9.1213    0.1006    0.0000 C   0  0  3  0  0  0  0  0  0  0  0  0
    6.4792   -1.4062    0.0000 C   0  0  3  0  0  0  0  0  0  0  0  0
    7.3892    0.1006    0.0000 C   0  0  3  0  0  0  0  0  0  0  0  0
    6.4712   -2.4478    0.0000 C   0  0  3  0  0  0  0  0  0  0  0  0
    8.2552    0.6006    0.0000 C   0  0  0  0  0  0  0  0  0  0  0  0
   10.0675    0.4053    0.0000 C   0  0  3  0  0  0  0  0  0  0  0  0
    8.2713   -2.4409    0.0000 C   0  0  0  0  0  0  0  0  0  0  0  0
   10.0675   -1.2041    0.0000 C   0  0  0  0  0  0  0  0  0  0  0  0
    7.3733   -2.9687    0.0000 C   0  0  0  0  0  0  0  0  0  0  0  0
   10.6511   -0.3994    0.0000 C   0  0  0  0  0  0  0  0  0  0  0  0
    5.5524   -0.8422    0.0000 C   0  0  0  0  0  0  0  0  0  0  0  0
    9.1213    1.1006    0.0000 C   0  0  0  0  0  0  0  0  0  0  0  0
    5.5358   -2.9976    0.0000 C   0  0  0  0  0  0  0  0  0  0  0  0
    6.4869   -0.4063    0.0000 C   0  0  0  0  0  0  0  0  0  0  0  0
    4.6045   -1.3701    0.0000 C   0  0  0  0  0  0  0  0  0  0  0  0
    4.5961   -2.4551    0.0000 C   0  0  3  0  0  0  0  0  0  0  0  0
   11.0622    0.5081    0.0000 C   0  0  0  0  0  0  0  0  0  0  0  0
   11.6486   -0.3019    0.0000 C   0  0  0  0  0  0  0  0  0  0  0  0
    6.5232    2.6006    0.0000 C   0  0  0  0  0  0  0  0  0  0  0  0
    5.5232    1.6006    0.0000 C   0  0  0  0  0  0  0  0  0  0  0  0
    7.5232    1.6006    0.0000 C   0  0  0  0  0  0  0  0  0  0  0  0
    8.9919    2.5443    0.0000 C   0  0  0  0  0  0  0  0  0  0  0  0
   10.1793    3.3125    0.0000 C   0  0  0  0  0  0  0  0  0  0  0  0
   10.9475    2.1251    0.0000 C   0  0  0  0  0  0  0  0  0  0  0  0
    2.0000   -1.9451    0.0000 C   0  0  0  0  0  0  0  0  0  0  0  0
    2.3608   -3.3125    0.0000 C   0  0  0  0  0  0  0  0  0  0  0  0
    3.3674   -1.5843    0.0000 C   0  0  0  0  0  0  0  0  0  0  0  0
   13.8160   -1.8192    0.0000 C   0  0  0  0  0  0  0  0  0  0  0  0
   14.0397   -0.4227    0.0000 C   0  0  0  0  0  0  0  0  0  0  0  0
   12.4196   -1.5955    0.0000 C   0  0  0  0  0  0  0  0  0  0  0  0
    7.9262   -0.5894    0.0000 H   0  0  0  0  0  0  0  0  0  0  0  0
    8.7945   -1.7052    0.0000 H   0  0  0  0  0  0  0  0  0  0  0  0
    9.1869   -1.5159    0.0000 H   0  0  0  0  0  0  0  0  0  0  0  0
    7.3892    0.7206    0.0000 H   0  0  0  0  0  0  0  0  0  0  0  0
    6.4736   -3.0678    0.0000 H   0  0  0  0  0  0  0  0  0  0  0  0
    8.6538    1.0755    0.0000 H   0  0  0  0  0  0  0  0  0  0  0  0
    7.8567    1.0755    0.0000 H   0  0  0  0  0  0  0  0  0  0  0  0
    8.4893   -3.0213    0.0000 H   0  0  0  0  0  0  0  0  0  0  0  0
    8.8804   -2.3254    0.0000 H   0  0  0  0  0  0  0  0  0  0  0  0
    9.8164   -1.7710    0.0000 H   0  0  0  0  0  0  0  0  0  0  0  0
   10.6049   -1.5134    0.0000 H   0  0  0  0  0  0  0  0  0  0  0  0
    6.9760   -3.4446    0.0000 H   0  0  0  0  0  0  0  0  0  0  0  0
    7.7742   -3.4416    0.0000 H   0  0  0  0  0  0  0  0  0  0  0  0
   11.1120   -0.8141    0.0000 H   0  0  0  0  0  0  0  0  0  0  0  0
   11.1120    0.0153    0.0000 H   0  0  0  0  0  0  0  0  0  0  0  0
    5.9606   -0.3755    0.0000 H   0  0  0  0  0  0  0  0  0  0  0  0
    5.1625   -0.3601    0.0000 H   0  0  0  0  0  0  0  0  0  0  0  0
    9.7413    1.1006    0.0000 H   0  0  0  0  0  0  0  0  0  0  0  0
    9.1213    1.7206    0.0000 H   0  0  0  0  0  0  0  0  0  0  0  0
    8.5013    1.1006    0.0000 H   0  0  0  0  0  0  0  0  0  0  0  0
    5.1385   -3.4735    0.0000 H   0  0  0  0  0  0  0  0  0  0  0  0
    5.9367   -3.4705    0.0000 H   0  0  0  0  0  0  0  0  0  0  0  0
    7.1069   -0.4111    0.0000 H   0  0  0  0  0  0  0  0  0  0  0  0
    6.4917    0.2137    0.0000 H   0  0  0  0  0  0  0  0  0  0  0  0
    5.8669   -0.4015    0.0000 H   0  0  0  0  0  0  0  0  0  0  0  0
    4.3999   -0.7848    0.0000 H   0  0  0  0  0  0  0  0  0  0  0  0
    3.9928   -1.4715    0.0000 H   0  0  0  0  0  0  0  0  0  0  0  0
    4.5949   -3.0751    0.0000 H   0  0  0  0  0  0  0  0  0  0  0  0
   11.0909   -0.5727    0.0000 H   0  0  0  0  0  0  0  0  0  0  0  0
   11.8184   -0.8982    0.0000 H   0  0  0  0  0  0  0  0  0  0  0  0
    7.1432    2.6006    0.0000 H   0  0  0  0  0  0  0  0  0  0  0  0
    6.5232    3.2206    0.0000 H   0  0  0  0  0  0  0  0  0  0  0  0
    5.9032    2.6006    0.0000 H   0  0  0  0  0  0  0  0  0  0  0  0
    5.5232    2.2206    0.0000 H   0  0  0  0  0  0  0  0  0  0  0  0
    4.9032    1.6006    0.0000 H   0  0  0  0  0  0  0  0  0  0  0  0
    5.5232    0.9806    0.0000 H   0  0  0  0  0  0  0  0  0  0  0  0
    7.5232    0.9806    0.0000 H   0  0  0  0  0  0  0  0  0  0  0  0
    8.1432    1.6006    0.0000 H   0  0  0  0  0  0  0  0  0  0  0  0
    7.5232    2.2206    0.0000 H   0  0  0  0  0  0  0  0  0  0  0  0
    9.1219    3.1505    0.0000 H   0  0  0  0  0  0  0  0  0  0  0  0
    8.3857    2.6743    0.0000 H   0  0  0  0  0  0  0  0  0  0  0  0
    8.8620    1.9381    0.0000 H   0  0  0  0  0  0  0  0  0  0  0  0
   10.7856    3.1825    0.0000 H   0  0  0  0  0  0  0  0  0  0  0  0
   10.3093    3.9187    0.0000 H   0  0  0  0  0  0  0  0  0  0  0  0
    9.5731    3.4424    0.0000 H   0  0  0  0  0  0  0  0  0  0  0  0
   10.8176    1.5189    0.0000 H   0  0  0  0  0  0  0  0  0  0  0  0
   11.5537    1.9952    0.0000 H   0  0  0  0  0  0  0  0  0  0  0  0
   11.0775    2.7313    0.0000 H   0  0  0  0  0  0  0  0  0  0  0  0
    2.3121   -1.4093    0.0000 H   0  0  0  0  0  0  0  0  0  0  0  0
    1.4643   -1.6330    0.0000 H   0  0  0  0  0  0  0  0  0  0  0  0
    1.6879   -2.4808    0.0000 H   0  0  0  0  0  0  0  0  0  0  0  0
    1.8250   -3.0004    0.0000 H   0  0  0  0  0  0  0  0  0  0  0  0
    2.0487   -3.8482    0.0000 H   0  0  0  0  0  0  0  0  0  0  0  0
    2.8965   -3.6246    0.0000 H   0  0  0  0  0  0  0  0  0  0  0  0
    3.9032   -1.8964    0.0000 H   0  0  0  0  0  0  0  0  0  0  0  0
    3.6795   -1.0486    0.0000 H   0  0  0  0  0  0  0  0  0  0  0  0
    2.8317   -1.2722    0.0000 H   0  0  0  0  0  0  0  0  0  0  0  0
   13.3138   -2.1827    0.0000 H   0  0  0  0  0  0  0  0  0  0  0  0
   14.1796   -2.3214    0.0000 H   0  0  0  0  0  0  0  0  0  0  0  0
   14.3183   -1.4556    0.0000 H   0  0  0  0  0  0  0  0  0  0  0  0
   14.4033   -0.9250    0.0000 H   0  0  0  0  0  0  0  0  0  0  0  0
   14.5419   -0.0592    0.0000 H   0  0  0  0  0  0  0  0  0  0  0  0
   13.6761    0.0795    0.0000 H   0  0  0  0  0  0  0  0  0  0  0  0
   12.0561   -1.0933    0.0000 H   0  0  0  0  0  0  0  0  0  0  0  0
   11.9174   -1.9591    0.0000 H   0  0  0  0  0  0  0  0  0  0  0  0
   12.7832   -2.0977    0.0000 H   0  0  0  0  0  0  0  0  0  0  0  0
  1  5  1  0  0  0  0
  1 31  1  0  0  0  0
  1 32  1  0  0  0  0
  1 33  1  0  0  0  0
  2  6  1  0  0  0  0
  2 34  1  0  0  0  0
  2 35  1  0  0  0  0
  2 36  1  0  0  0  0
  3  7  1  0  0  0  0
  3 37  1  0  0  0  0
  3 38  1  0  0  0  0
  3 39  1  0  0  0  0
  4  9  1  0  0  0  0
  4 40  1  0  0  0  0
  4 41  1  0  0  0  0
  4 42  1  0  0  0  0
  5 15  1  0  0  0  0
  6 18  1  0  0  0  0
  7 28  1  0  0  0  0
  8 29  2  0  0  0  0
  9 30  1  0  0  0  0
 10 11  1  0  0  0  0
 10 14  1  0  0  0  0
 10 15  1  0  0  0  0
 10 43  1  0  0  0  0
 11 12  1  0  0  0  0
 11 19  1  0  0  0  0
 11 44  1  0  0  0  0
 12 13  1  0  0  0  0
 12 20  1  0  0  0  0
 12 45  1  0  0  0  0
 13 17  1  0  0  0  0
 13 18  1  0  0  0  0
 13 24  1  0  0  0  0
 14 16  1  0  0  0  0
 14 23  1  0  0  0  0
 14 26  1  0  0  0  0
 15 17  1  0  0  0  0
 15 46  1  0  0  0  0
 16 21  1  0  0  0  0
 16 25  1  0  0  0  0
 16 47  1  0  0  0  0
 17 48  1  0  0  0  0
 17 49  1  0  0  0  0
 18 22  1  0  0  0  0
 18 29  1  0  0  0  0
 19 21  1  0  0  0  0
 19 50  1  0  0  0  0
 19 51  1  0  0  0  0
 20 22  1  0  0  0  0
 20 52  1  0  0  0  0
 20 53  1  0  0  0  0
 21 54  1  0  0  0  0
 21 55  1  0  0  0  0
 22 56  1  0  0  0  0
 22 57  1  0  0  0  0
 23 27  1  0  0  0  0
 23 58  1  0  0  0  0
 23 59  1  0  0  0  0
 24 60  1  0  0  0  0
 24 61  1  0  0  0  0
 24 62  1  0  0  0  0
 25 28  1  0  0  0  0
 25 63  1  0  0  0  0
 25 64  1  0  0  0  0
 26 65  1  0  0  0  0
 26 66  1  0  0  0  0
 26 67  1  0  0  0  0
 27 28  1  0  0  0  0
 27 68  1  0  0  0  0
 27 69  1  0  0  0  0
 28 70  1  0  0  0  0
 29 30  1  0  0  0  0
 30 71  1  0  0  0  0
 30 72  1  0  0  0  0
 31 73  1  0  0  0  0
 31 74  1  0  0  0  0
 31 75  1  0  0  0  0
 32 76  1  0  0  0  0
 32 77  1  0  0  0  0
 32 78  1  0  0  0  0
 33 79  1  0  0  0  0
 33 80  1  0  0  0  0
 33 81  1  0  0  0  0
 34 82  1  0  0  0  0
 34 83  1  0  0  0  0
 34 84  1  0  0  0  0
 35 85  1  0  0  0  0
 35 86  1  0  0  0  0
 35 87  1  0  0  0  0
 36 88  1  0  0  0  0
 36 89  1  0  0  0  0
 36 90  1  0  0  0  0
 37 91  1  0  0  0  0
 37 92  1  0  0  0  0
 37 93  1  0  0  0  0
 38 94  1  0  0  0  0
 38 95  1  0  0  0  0
 38 96  1  0  0  0  0
 39 97  1  0  0  0  0
 39 98  1  0  0  0  0
 39 99  1  0  0  0  0
 40100  1  0  0  0  0
 40101  1  0  0  0  0
 40102  1  0  0  0  0
 41103  1  0  0  0  0
 41104  1  0  0  0  0
 41105  1  0  0  0  0
 42106  1  0  0  0  0
 42107  1  0  0  0  0
 42108  1  0  0  0  0
M  END
> <PUBCHEM_COMPOUND_CID>
526096
> <PUBCHEM_COMPOUND_CANONICALIZED>
1
> <PUBCHEM_CACTVS_COMPLEXITY>
994
> <PUBCHEM_CACTVS_HBOND_ACCEPTOR>
5
> <PUBCHEM_CACTVS_HBOND_DONOR>
0
> <PUBCHEM_CACTVS_ROTATABLE_BOND>
10
> <PUBCHEM_CACTVS_SUBSKEYS>
AAADcfB8OAwAAAAAAAAAAAAAAAAAAYAAAAAwYMAAAAAAAGDAAAAAGhAAAEAAD1SggAJCAAAAAAEIAIAQAAIAAAAAAAAAAAFAAAAAABIAAAAAAAAFAAAAAAHIzPDPgAAAAAAAAADAAAYAADAAAYAADAAAAA==
> <PUBCHEM_IUPAC_OPENEYE_NAME>
1-[10,13-dimethyl-3,11,17-tris(trimethylsilyloxy)-1,2,3,4,5,6,7,8,9,11,12,14,15,16-tetradecahydrocyclopenta[a]phenanthren-17-yl]-2-trimethylsilyloxy-ethanone
> <PUBCHEM_IUPAC_CAS_NAME>
1-[10,13-dimethyl-3,11,17-tris(trimethylsilyloxy)-1,2,3,4,5,6,7,8,9,11,12,14,15,16-tetradecahydrocyclopenta[a]phenanthren-17-yl]-2-trimethylsilyloxyethanone
> <PUBCHEM_IUPAC_NAME_MARKUP>
1-[10,13-dimethyl-3,11,17-tris(trimethylsilyloxy)-1,2,3,4,5,6,7,8,9,11,12,14,15,16-tetradecahydrocyclopenta[a]phenanthren-17-yl]-2-trimethylsilyloxyethanone
> <PUBCHEM_IUPAC_NAME>
1-[10,13-dimethyl-3,11,17-tris(trimethylsilyloxy)-1,2,3,4,5,6,7,8,9,11,12,14,15,16-tetradecahydrocyclopenta[a]phenanthren-17-yl]-2-trimethylsilyloxyethanone
> <PUBCHEM_IUPAC_SYSTEMATIC_NAME>
1-[10,13-dimethyl-3,11,17-tris(trimethylsilyloxy)-1,2,3,4,5,6,7,8,9,11,12,14,15,16-tetradecahydrocyclopenta[a]phenanthren-17-yl]-2-trimethylsilyloxy-ethanone
> <PUBCHEM_IUPAC_TRADITIONAL_NAME>
1-[10,13-dimethyl-3,11,17-tris(trimethylsilyloxy)-1,2,3,4,5,6,7,8,9,11,12,14,15,16-tetradecahydrocyclopenta[a]phenanthren-17-yl]-2-trimethylsilyloxy-ethanone
> <PUBCHEM_IUPAC_INCHI>
InChI=1S/C33H66O5Si4/c1-31-19-17-25(36-40(6,7)8)21-24(31)15-16-26-27-18-20-33(38-42(12,13)14,29(34)23-35-39(3,4)5)32(27,2)22-28(30(26)31)37-41(9,10)11/h24-28,30H,15-23H2,1-14H3
> <PUBCHEM_IUPAC_INCHIKEY>
FHFQXMWINWAKEZ-UHFFFAOYSA-N
> <PUBCHEM_EXACT_MASS>
654.39873134
> <PUBCHEM_MOLECULAR_FORMULA>
C33H66O5Si4
> <PUBCHEM_MOLECULAR_WEIGHT>
655.2
> <PUBCHEM_OPENEYE_CAN_SMILES>
CC12CCC(CC1CCC3C2C(CC4(C3CCC4(C(=O)CO[Si](C)(C)C)O[Si](C)(C)C)C)O[Si](C)(C)C)O[Si](C)(C)C
> <PUBCHEM_OPENEYE_ISO_SMILES>
CC12CCC(CC1CCC3C2C(CC4(C3CCC4(C(=O)CO[Si](C)(C)C)O[Si](C)(C)C)C)O[Si](C)(C)C)O[Si](C)(C)C
> <PUBCHEM_CACTVS_TPSA>
54
> <PUBCHEM_MONOISOTOPIC_WEIGHT>
654.39873134
> <PUBCHEM_TOTAL_CHARGE>
0
> <PUBCHEM_HEAVY_ATOM_COUNT>
42
> <PUBCHEM_ATOM_DEF_STEREO_COUNT>
0
> <PUBCHEM_ATOM_UDEF_STEREO_COUNT>
9
> <PUBCHEM_BOND_DEF_STEREO_COUNT>
0
> <PUBCHEM_BOND_UDEF_STEREO_COUNT>
0
> <PUBCHEM_ISOTOPIC_ATOM_COUNT>
0
> <PUBCHEM_COMPONENT_COUNT>
1
> <PUBCHEM_CACTVS_TAUTO_COUNT>
-1
> <PUBCHEM_COORDINATE_TYPE>
1
5
255
> <PUBCHEM_BONDANNOTATIONS>
10  15  3
11  19  3
12  20  3
13  24  3
14  26  3
16  21  3
18  29  3
15  5  3
28  7  3
$$$$
