526012
  -OEChem-10302200292D
 80 81  0     1  0  0  0  0  0999 V2000
    6.3301   -2.5670    0.0000 Si  0  0  0  0  0  0  0  0  0  0  0  0
    9.7942   -4.5670    0.0000 Si  0  0  0  0  0  0  0  0  0  0  0  0
   11.5263   -2.5670    0.0000 Si  0  0  0  0  0  0  0  0  0  0  0  0
    2.0000    0.9330    0.0000 F   0  0  0  0  0  0  0  0  0  0  0  0
    3.3660    0.5670    0.0000 F   0  0  0  0  0  0  0  0  0  0  0  0
    2.3660    2.2990    0.0000 F   0  0  0  0  0  0  0  0  0  0  0  0
    4.5981    5.4330    0.0000 F   0  0  0  0  0  0  0  0  0  0  0  0
    5.5981    4.4330    0.0000 F   0  0  0  0  0  0  0  0  0  0  0  0
    3.5981    4.4330    0.0000 F   0  0  0  0  0  0  0  0  0  0  0  0
    6.3301   -1.5670    0.0000 O   0  0  0  0  0  0  0  0  0  0  0  0
    8.9282   -4.0670    0.0000 O   0  0  0  0  0  0  0  0  0  0  0  0
   10.6603   -3.0670    0.0000 O   0  0  0  0  0  0  0  0  0  0  0  0
    7.1962    1.9330    0.0000 O   0  0  0  0  0  0  0  0  0  0  0  0
    6.3301    0.4330    0.0000 N   0  0  0  0  0  0  0  0  0  0  0  0
    7.1962   -1.0670    0.0000 C   0  0  3  0  0  0  0  0  0  0  0  0
    7.1962   -0.0670    0.0000 C   0  0  0  0  0  0  0  0  0  0  0  0
    8.0622   -1.5670    0.0000 C   0  0  0  0  0  0  0  0  0  0  0  0
    8.0622   -2.5670    0.0000 C   0  0  0  0  0  0  0  0  0  0  0  0
    8.9282   -3.0670    0.0000 C   0  0  0  0  0  0  0  0  0  0  0  0
    6.3301   -3.5670    0.0000 C   0  0  0  0  0  0  0  0  0  0  0  0
    5.3301   -2.5670    0.0000 C   0  0  0  0  0  0  0  0  0  0  0  0
    7.3301   -2.5670    0.0000 C   0  0  0  0  0  0  0  0  0  0  0  0
    8.9282   -1.0670    0.0000 C   0  0  0  0  0  0  0  0  0  0  0  0
    9.7942   -2.5670    0.0000 C   0  0  0  0  0  0  0  0  0  0  0  0
    9.7942   -1.5670    0.0000 C   0  0  0  0  0  0  0  0  0  0  0  0
    6.3301    1.4330    0.0000 C   0  0  0  0  0  0  0  0  0  0  0  0
    5.4641   -0.0670    0.0000 C   0  0  0  0  0  0  0  0  0  0  0  0
   10.6603   -5.0670    0.0000 C   0  0  0  0  0  0  0  0  0  0  0  0
    9.2942   -5.4330    0.0000 C   0  0  0  0  0  0  0  0  0  0  0  0
   10.2942   -3.7010    0.0000 C   0  0  0  0  0  0  0  0  0  0  0  0
   12.3923   -2.0670    0.0000 C   0  0  0  0  0  0  0  0  0  0  0  0
   12.0263   -3.4330    0.0000 C   0  0  0  0  0  0  0  0  0  0  0  0
   11.0263   -1.7010    0.0000 C   0  0  0  0  0  0  0  0  0  0  0  0
    5.4641    1.9330    0.0000 C   0  0  0  0  0  0  0  0  0  0  0  0
    5.4641    2.9330    0.0000 C   0  0  0  0  0  0  0  0  0  0  0  0
    4.5981    1.4330    0.0000 C   0  0  0  0  0  0  0  0  0  0  0  0
    4.5981    3.4330    0.0000 C   0  0  0  0  0  0  0  0  0  0  0  0
    3.7320    1.9330    0.0000 C   0  0  0  0  0  0  0  0  0  0  0  0
    3.7320    2.9330    0.0000 C   0  0  0  0  0  0  0  0  0  0  0  0
    2.8660    1.4330    0.0000 C   0  0  0  0  0  0  0  0  0  0  0  0
    4.5981    4.4330    0.0000 C   0  0  0  0  0  0  0  0  0  0  0  0
    6.6592   -0.7570    0.0000 H   0  0  0  0  0  0  0  0  0  0  0  0
    7.8067   -0.1746    0.0000 H   0  0  0  0  0  0  0  0  0  0  0  0
    7.4082    0.5156    0.0000 H   0  0  0  0  0  0  0  0  0  0  0  0
    7.5252   -2.8770    0.0000 H   0  0  0  0  0  0  0  0  0  0  0  0
    5.7101   -3.5670    0.0000 H   0  0  0  0  0  0  0  0  0  0  0  0
    6.3301   -4.1870    0.0000 H   0  0  0  0  0  0  0  0  0  0  0  0
    6.9501   -3.5670    0.0000 H   0  0  0  0  0  0  0  0  0  0  0  0
    5.3301   -1.9470    0.0000 H   0  0  0  0  0  0  0  0  0  0  0  0
    4.7101   -2.5670    0.0000 H   0  0  0  0  0  0  0  0  0  0  0  0
    5.3301   -3.1870    0.0000 H   0  0  0  0  0  0  0  0  0  0  0  0
    7.3301   -3.1870    0.0000 H   0  0  0  0  0  0  0  0  0  0  0  0
    7.9501   -2.5670    0.0000 H   0  0  0  0  0  0  0  0  0  0  0  0
    7.3301   -1.9470    0.0000 H   0  0  0  0  0  0  0  0  0  0  0  0
    8.9282   -0.4470    0.0000 H   0  0  0  0  0  0  0  0  0  0  0  0
   10.3312   -1.2570    0.0000 H   0  0  0  0  0  0  0  0  0  0  0  0
    5.1541    0.4699    0.0000 H   0  0  0  0  0  0  0  0  0  0  0  0
    4.9272   -0.3770    0.0000 H   0  0  0  0  0  0  0  0  0  0  0  0
    5.7741   -0.6039    0.0000 H   0  0  0  0  0  0  0  0  0  0  0  0
   10.3503   -5.6039    0.0000 H   0  0  0  0  0  0  0  0  0  0  0  0
   11.1972   -5.3770    0.0000 H   0  0  0  0  0  0  0  0  0  0  0  0
   10.9703   -4.5300    0.0000 H   0  0  0  0  0  0  0  0  0  0  0  0
    8.7573   -5.1230    0.0000 H   0  0  0  0  0  0  0  0  0  0  0  0
    8.9842   -5.9700    0.0000 H   0  0  0  0  0  0  0  0  0  0  0  0
    9.8312   -5.7430    0.0000 H   0  0  0  0  0  0  0  0  0  0  0  0
   10.8312   -4.0110    0.0000 H   0  0  0  0  0  0  0  0  0  0  0  0
   10.6042   -3.1640    0.0000 H   0  0  0  0  0  0  0  0  0  0  0  0
    9.7573   -3.3910    0.0000 H   0  0  0  0  0  0  0  0  0  0  0  0
   12.7023   -2.6039    0.0000 H   0  0  0  0  0  0  0  0  0  0  0  0
   12.9292   -1.7570    0.0000 H   0  0  0  0  0  0  0  0  0  0  0  0
   12.0823   -1.5300    0.0000 H   0  0  0  0  0  0  0  0  0  0  0  0
   11.4893   -3.7430    0.0000 H   0  0  0  0  0  0  0  0  0  0  0  0
   12.3363   -3.9700    0.0000 H   0  0  0  0  0  0  0  0  0  0  0  0
   12.5632   -3.1230    0.0000 H   0  0  0  0  0  0  0  0  0  0  0  0
   11.5632   -1.3910    0.0000 H   0  0  0  0  0  0  0  0  0  0  0  0
   10.7163   -1.1640    0.0000 H   0  0  0  0  0  0  0  0  0  0  0  0
   10.4893   -2.0110    0.0000 H   0  0  0  0  0  0  0  0  0  0  0  0
    6.0010    3.2430    0.0000 H   0  0  0  0  0  0  0  0  0  0  0  0
    4.5981    0.8130    0.0000 H   0  0  0  0  0  0  0  0  0  0  0  0
    3.1951    3.2430    0.0000 H   0  0  0  0  0  0  0  0  0  0  0  0
  1 10  1  0  0  0  0
  1 20  1  0  0  0  0
  1 21  1  0  0  0  0
  1 22  1  0  0  0  0
  2 11  1  0  0  0  0
  2 28  1  0  0  0  0
  2 29  1  0  0  0  0
  2 30  1  0  0  0  0
  3 12  1  0  0  0  0
  3 31  1  0  0  0  0
  3 32  1  0  0  0  0
  3 33  1  0  0  0  0
  4 40  1  0  0  0  0
  5 40  1  0  0  0  0
  6 40  1  0  0  0  0
  7 41  1  0  0  0  0
  8 41  1  0  0  0  0
  9 41  1  0  0  0  0
 10 15  1  0  0  0  0
 11 19  1  0  0  0  0
 12 24  1  0  0  0  0
 13 26  2  0  0  0  0
 14 16  1  0  0  0  0
 14 26  1  0  0  0  0
 14 27  1  0  0  0  0
 15 16  1  0  0  0  0
 15 17  1  0  0  0  0
 15 42  1  0  0  0  0
 16 43  1  0  0  0  0
 16 44  1  0  0  0  0
 17 18  2  0  0  0  0
 17 23  1  0  0  0  0
 18 19  1  0  0  0  0
 18 45  1  0  0  0  0
 19 24  2  0  0  0  0
 20 46  1  0  0  0  0
 20 47  1  0  0  0  0
 20 48  1  0  0  0  0
 21 49  1  0  0  0  0
 21 50  1  0  0  0  0
 21 51  1  0  0  0  0
 22 52  1  0  0  0  0
 22 53  1  0  0  0  0
 22 54  1  0  0  0  0
 23 25  2  0  0  0  0
 23 55  1  0  0  0  0
 24 25  1  0  0  0  0
 25 56  1  0  0  0  0
 26 34  1  0  0  0  0
 27 57  1  0  0  0  0
 27 58  1  0  0  0  0
 27 59  1  0  0  0  0
 28 60  1  0  0  0  0
 28 61  1  0  0  0  0
 28 62  1  0  0  0  0
 29 63  1  0  0  0  0
 29 64  1  0  0  0  0
 29 65  1  0  0  0  0
 30 66  1  0  0  0  0
 30 67  1  0  0  0  0
 30 68  1  0  0  0  0
 31 69  1  0  0  0  0
 31 70  1  0  0  0  0
 31 71  1  0  0  0  0
 32 72  1  0  0  0  0
 32 73  1  0  0  0  0
 32 74  1  0  0  0  0
 33 75  1  0  0  0  0
 33 76  1  0  0  0  0
 33 77  1  0  0  0  0
 34 35  2  0  0  0  0
 34 36  1  0  0  0  0
 35 37  1  0  0  0  0
 35 78  1  0  0  0  0
 36 38  2  0  0  0  0
 36 79  1  0  0  0  0
 37 39  2  0  0  0  0
 37 41  1  0  0  0  0
 38 39  1  0  0  0  0
 38 40  1  0  0  0  0
 39 80  1  0  0  0  0
M  END
> <PUBCHEM_COMPOUND_CID>
526012
> <PUBCHEM_COMPOUND_CANONICALIZED>
1
> <PUBCHEM_CACTVS_COMPLEXITY>
848
> <PUBCHEM_CACTVS_HBOND_ACCEPTOR>
10
> <PUBCHEM_CACTVS_HBOND_DONOR>
0
> <PUBCHEM_CACTVS_ROTATABLE_BOND>
10
> <PUBCHEM_CACTVS_SUBSKEYS>
AAADcfB6OcwAAAAAAAAAAAAAAAAAAAAAAAAwYAAAAAAAAAABQAAAHxAAAEAADBThmBZyBoMAAAGIAiFSEACCAAAkIAAIiAEOjMgLJjKAlROEMQhkxhGYiYfY+PaOIAADAAAAQABAAAYAAACAAAAAAAAAAA==
> <PUBCHEM_IUPAC_OPENEYE_NAME>
N-[2-[3,4-bis(trimethylsilyloxy)phenyl]-2-trimethylsilyloxy-ethyl]-N-methyl-3,5-bis(trifluoromethyl)benzamide
> <PUBCHEM_IUPAC_CAS_NAME>
N-[2-[3,4-bis(trimethylsilyloxy)phenyl]-2-trimethylsilyloxyethyl]-N-methyl-3,5-bis(trifluoromethyl)benzamide
> <PUBCHEM_IUPAC_NAME_MARKUP>
<I>N</I>-[2-[3,4-bis(trimethylsilyloxy)phenyl]-2-trimethylsilyloxyethyl]-<I>N</I>-methyl-3,5-bis(trifluoromethyl)benzamide
> <PUBCHEM_IUPAC_NAME>
N-[2-[3,4-bis(trimethylsilyloxy)phenyl]-2-trimethylsilyloxyethyl]-N-methyl-3,5-bis(trifluoromethyl)benzamide
> <PUBCHEM_IUPAC_SYSTEMATIC_NAME>
N-[2-[3,4-bis(trimethylsilyloxy)phenyl]-2-trimethylsilyloxy-ethyl]-N-methyl-3,5-bis(trifluoromethyl)benzamide
> <PUBCHEM_IUPAC_TRADITIONAL_NAME>
N-[2-[3,4-bis(trimethylsilyloxy)phenyl]-2-trimethylsilyloxy-ethyl]-N-methyl-3,5-bis(trifluoromethyl)benzamide
> <PUBCHEM_IUPAC_INCHI>
InChI=1S/C27H39F6NO4Si3/c1-34(25(35)19-13-20(26(28,29)30)16-21(14-19)27(31,32)33)17-24(38-41(8,9)10)18-11-12-22(36-39(2,3)4)23(15-18)37-40(5,6)7/h11-16,24H,17H2,1-10H3
> <PUBCHEM_IUPAC_INCHIKEY>
PGCARAXUUGXVRZ-UHFFFAOYSA-N
> <PUBCHEM_EXACT_MASS>
639.20910730
> <PUBCHEM_MOLECULAR_FORMULA>
C27H39F6NO4Si3
> <PUBCHEM_MOLECULAR_WEIGHT>
639.8
> <PUBCHEM_OPENEYE_CAN_SMILES>
CN(CC(C1=CC(=C(C=C1)O[Si](C)(C)C)O[Si](C)(C)C)O[Si](C)(C)C)C(=O)C2=CC(=CC(=C2)C(F)(F)F)C(F)(F)F
> <PUBCHEM_OPENEYE_ISO_SMILES>
CN(CC(C1=CC(=C(C=C1)O[Si](C)(C)C)O[Si](C)(C)C)O[Si](C)(C)C)C(=O)C2=CC(=CC(=C2)C(F)(F)F)C(F)(F)F
> <PUBCHEM_CACTVS_TPSA>
48
> <PUBCHEM_MONOISOTOPIC_WEIGHT>
639.20910730
> <PUBCHEM_TOTAL_CHARGE>
0
> <PUBCHEM_HEAVY_ATOM_COUNT>
41
> <PUBCHEM_ATOM_DEF_STEREO_COUNT>
0
> <PUBCHEM_ATOM_UDEF_STEREO_COUNT>
1
> <PUBCHEM_BOND_DEF_STEREO_COUNT>
0
> <PUBCHEM_BOND_UDEF_STEREO_COUNT>
0
> <PUBCHEM_ISOTOPIC_ATOM_COUNT>
0
> <PUBCHEM_COMPONENT_COUNT>
1
> <PUBCHEM_CACTVS_TAUTO_COUNT>
-1
> <PUBCHEM_COORDINATE_TYPE>
1
5
255
> <PUBCHEM_BONDANNOTATIONS>
15  16  3
17  18  8
17  23  8
18  19  8
19  24  8
23  25  8
24  25  8
34  35  8
34  36  8
35  37  8
36  38  8
37  39  8
38  39  8
$$$$
