526020
  -OEChem-10302200292D
 67 68  0     1  0  0  0  0  0999 V2000
    6.3301   -3.5000    0.0000 Si  0  0  0  0  0  0  0  0  0  0  0  0
   11.5263   -3.5000    0.0000 Si  0  0  0  0  0  0  0  0  0  0  0  0
    4.5981    4.5000    0.0000 F   0  0  0  0  0  0  0  0  0  0  0  0
    5.5981    3.5000    0.0000 F   0  0  0  0  0  0  0  0  0  0  0  0
    3.5981    3.5000    0.0000 F   0  0  0  0  0  0  0  0  0  0  0  0
    2.0000    0.0000    0.0000 F   0  0  0  0  0  0  0  0  0  0  0  0
    3.3660   -0.3660    0.0000 F   0  0  0  0  0  0  0  0  0  0  0  0
    2.3660    1.3660    0.0000 F   0  0  0  0  0  0  0  0  0  0  0  0
    6.3301   -2.5000    0.0000 O   0  0  0  0  0  0  0  0  0  0  0  0
   10.6603   -4.0000    0.0000 O   0  0  0  0  0  0  0  0  0  0  0  0
    7.1962    1.0000    0.0000 O   0  0  0  0  0  0  0  0  0  0  0  0
    6.3301   -0.5000    0.0000 N   0  0  0  0  0  0  0  0  0  0  0  0
    7.1962   -2.0000    0.0000 C   0  0  3  0  0  0  0  0  0  0  0  0
    7.1962   -1.0000    0.0000 C   0  0  0  0  0  0  0  0  0  0  0  0
    8.0622   -2.5000    0.0000 C   0  0  0  0  0  0  0  0  0  0  0  0
    6.3301   -4.5000    0.0000 C   0  0  0  0  0  0  0  0  0  0  0  0
    5.3301   -3.5000    0.0000 C   0  0  0  0  0  0  0  0  0  0  0  0
    7.3301   -3.5000    0.0000 C   0  0  0  0  0  0  0  0  0  0  0  0
    8.9282   -2.0000    0.0000 C   0  0  0  0  0  0  0  0  0  0  0  0
    8.0622   -3.5000    0.0000 C   0  0  0  0  0  0  0  0  0  0  0  0
    9.7942   -3.5000    0.0000 C   0  0  0  0  0  0  0  0  0  0  0  0
    6.3301    0.5000    0.0000 C   0  0  0  0  0  0  0  0  0  0  0  0
    9.7942   -2.5000    0.0000 C   0  0  0  0  0  0  0  0  0  0  0  0
    8.9282   -4.0000    0.0000 C   0  0  0  0  0  0  0  0  0  0  0  0
    5.4641   -1.0000    0.0000 C   0  0  0  0  0  0  0  0  0  0  0  0
    5.4641    1.0000    0.0000 C   0  0  0  0  0  0  0  0  0  0  0  0
   12.3923   -3.0000    0.0000 C   0  0  0  0  0  0  0  0  0  0  0  0
   12.0263   -4.3660    0.0000 C   0  0  0  0  0  0  0  0  0  0  0  0
   11.0263   -2.6340    0.0000 C   0  0  0  0  0  0  0  0  0  0  0  0
    4.5981    0.5000    0.0000 C   0  0  0  0  0  0  0  0  0  0  0  0
    5.4641    2.0000    0.0000 C   0  0  0  0  0  0  0  0  0  0  0  0
    3.7320    1.0000    0.0000 C   0  0  0  0  0  0  0  0  0  0  0  0
    4.5981    2.5000    0.0000 C   0  0  0  0  0  0  0  0  0  0  0  0
    3.7320    2.0000    0.0000 C   0  0  0  0  0  0  0  0  0  0  0  0
    4.5981    3.5000    0.0000 C   0  0  0  0  0  0  0  0  0  0  0  0
    2.8660    0.5000    0.0000 C   0  0  0  0  0  0  0  0  0  0  0  0
    6.6592   -1.6900    0.0000 H   0  0  0  0  0  0  0  0  0  0  0  0
    7.8067   -1.1077    0.0000 H   0  0  0  0  0  0  0  0  0  0  0  0
    7.4082   -0.4174    0.0000 H   0  0  0  0  0  0  0  0  0  0  0  0
    5.7101   -4.5000    0.0000 H   0  0  0  0  0  0  0  0  0  0  0  0
    6.3301   -5.1200    0.0000 H   0  0  0  0  0  0  0  0  0  0  0  0
    6.9501   -4.5000    0.0000 H   0  0  0  0  0  0  0  0  0  0  0  0
    5.3301   -2.8800    0.0000 H   0  0  0  0  0  0  0  0  0  0  0  0
    4.7101   -3.5000    0.0000 H   0  0  0  0  0  0  0  0  0  0  0  0
    5.3301   -4.1200    0.0000 H   0  0  0  0  0  0  0  0  0  0  0  0
    7.3301   -4.1200    0.0000 H   0  0  0  0  0  0  0  0  0  0  0  0
    7.9501   -3.5000    0.0000 H   0  0  0  0  0  0  0  0  0  0  0  0
    7.3301   -2.8800    0.0000 H   0  0  0  0  0  0  0  0  0  0  0  0
    8.9282   -1.3800    0.0000 H   0  0  0  0  0  0  0  0  0  0  0  0
    7.5252   -3.8100    0.0000 H   0  0  0  0  0  0  0  0  0  0  0  0
   10.3312   -2.1900    0.0000 H   0  0  0  0  0  0  0  0  0  0  0  0
    8.9282   -4.6200    0.0000 H   0  0  0  0  0  0  0  0  0  0  0  0
    5.1541   -0.4631    0.0000 H   0  0  0  0  0  0  0  0  0  0  0  0
    4.9272   -1.3100    0.0000 H   0  0  0  0  0  0  0  0  0  0  0  0
    5.7741   -1.5369    0.0000 H   0  0  0  0  0  0  0  0  0  0  0  0
   12.7023   -3.5369    0.0000 H   0  0  0  0  0  0  0  0  0  0  0  0
   12.9292   -2.6900    0.0000 H   0  0  0  0  0  0  0  0  0  0  0  0
   12.0823   -2.4631    0.0000 H   0  0  0  0  0  0  0  0  0  0  0  0
   11.4893   -4.6760    0.0000 H   0  0  0  0  0  0  0  0  0  0  0  0
   12.3363   -4.9030    0.0000 H   0  0  0  0  0  0  0  0  0  0  0  0
   12.5632   -4.0560    0.0000 H   0  0  0  0  0  0  0  0  0  0  0  0
   11.5632   -2.3240    0.0000 H   0  0  0  0  0  0  0  0  0  0  0  0
   10.7163   -2.0970    0.0000 H   0  0  0  0  0  0  0  0  0  0  0  0
   10.4893   -2.9440    0.0000 H   0  0  0  0  0  0  0  0  0  0  0  0
    4.5981   -0.1200    0.0000 H   0  0  0  0  0  0  0  0  0  0  0  0
    6.0010    2.3100    0.0000 H   0  0  0  0  0  0  0  0  0  0  0  0
    3.1951    2.3100    0.0000 H   0  0  0  0  0  0  0  0  0  0  0  0
  1  9  1  0  0  0  0
  1 16  1  0  0  0  0
  1 17  1  0  0  0  0
  1 18  1  0  0  0  0
  2 10  1  0  0  0  0
  2 27  1  0  0  0  0
  2 28  1  0  0  0  0
  2 29  1  0  0  0  0
  3 35  1  0  0  0  0
  4 35  1  0  0  0  0
  5 35  1  0  0  0  0
  6 36  1  0  0  0  0
  7 36  1  0  0  0  0
  8 36  1  0  0  0  0
  9 13  1  0  0  0  0
 10 21  1  0  0  0  0
 11 22  2  0  0  0  0
 12 14  1  0  0  0  0
 12 22  1  0  0  0  0
 12 25  1  0  0  0  0
 13 14  1  0  0  0  0
 13 15  1  0  0  0  0
 13 37  1  0  0  0  0
 14 38  1  0  0  0  0
 14 39  1  0  0  0  0
 15 19  2  0  0  0  0
 15 20  1  0  0  0  0
 16 40  1  0  0  0  0
 16 41  1  0  0  0  0
 16 42  1  0  0  0  0
 17 43  1  0  0  0  0
 17 44  1  0  0  0  0
 17 45  1  0  0  0  0
 18 46  1  0  0  0  0
 18 47  1  0  0  0  0
 18 48  1  0  0  0  0
 19 23  1  0  0  0  0
 19 49  1  0  0  0  0
 20 24  2  0  0  0  0
 20 50  1  0  0  0  0
 21 23  2  0  0  0  0
 21 24  1  0  0  0  0
 22 26  1  0  0  0  0
 23 51  1  0  0  0  0
 24 52  1  0  0  0  0
 25 53  1  0  0  0  0
 25 54  1  0  0  0  0
 25 55  1  0  0  0  0
 26 30  2  0  0  0  0
 26 31  1  0  0  0  0
 27 56  1  0  0  0  0
 27 57  1  0  0  0  0
 27 58  1  0  0  0  0
 28 59  1  0  0  0  0
 28 60  1  0  0  0  0
 28 61  1  0  0  0  0
 29 62  1  0  0  0  0
 29 63  1  0  0  0  0
 29 64  1  0  0  0  0
 30 32  1  0  0  0  0
 30 65  1  0  0  0  0
 31 33  2  0  0  0  0
 31 66  1  0  0  0  0
 32 34  2  0  0  0  0
 32 36  1  0  0  0  0
 33 34  1  0  0  0  0
 33 35  1  0  0  0  0
 34 67  1  0  0  0  0
M  END
> <PUBCHEM_COMPOUND_CID>
526020
> <PUBCHEM_COMPOUND_CANONICALIZED>
1
> <PUBCHEM_CACTVS_COMPLEXITY>
705
> <PUBCHEM_CACTVS_HBOND_ACCEPTOR>
9
> <PUBCHEM_CACTVS_HBOND_DONOR>
0
> <PUBCHEM_CACTVS_ROTATABLE_BOND>
8
> <PUBCHEM_CACTVS_SUBSKEYS>
AAADceB6McwAAAAAAAAAAAAAAAAAAAAAAAAwYAAAAAAAAAABQAAAHxAAAEAADBThmBZyBoMAAAGIAiFSEACCAAAkIAAIiAEODMgKJjKAlROEMQhkxhGYiYeY6OSOIAACAAAAAABAAAQAAAAAAAAAAAAAAA==
> <PUBCHEM_IUPAC_OPENEYE_NAME>
N-methyl-3,5-bis(trifluoromethyl)-N-[2-trimethylsilyloxy-2-(4-trimethylsilyloxyphenyl)ethyl]benzamide
> <PUBCHEM_IUPAC_CAS_NAME>
N-methyl-3,5-bis(trifluoromethyl)-N-[2-trimethylsilyloxy-2-(4-trimethylsilyloxyphenyl)ethyl]benzamide
> <PUBCHEM_IUPAC_NAME_MARKUP>
<I>N</I>-methyl-3,5-bis(trifluoromethyl)-<I>N</I>-[2-trimethylsilyloxy-2-(4-trimethylsilyloxyphenyl)ethyl]benzamide
> <PUBCHEM_IUPAC_NAME>
N-methyl-3,5-bis(trifluoromethyl)-N-[2-trimethylsilyloxy-2-(4-trimethylsilyloxyphenyl)ethyl]benzamide
> <PUBCHEM_IUPAC_SYSTEMATIC_NAME>
N-methyl-3,5-bis(trifluoromethyl)-N-[2-trimethylsilyloxy-2-(4-trimethylsilyloxyphenyl)ethyl]benzamide
> <PUBCHEM_IUPAC_TRADITIONAL_NAME>
N-methyl-3,5-bis(trifluoromethyl)-N-[2-trimethylsilyloxy-2-(4-trimethylsilyloxyphenyl)ethyl]benzamide
> <PUBCHEM_IUPAC_INCHI>
InChI=1S/C24H31F6NO3Si2/c1-31(22(32)17-12-18(23(25,26)27)14-19(13-17)24(28,29)30)15-21(34-36(5,6)7)16-8-10-20(11-9-16)33-35(2,3)4/h8-14,21H,15H2,1-7H3
> <PUBCHEM_IUPAC_INCHIKEY>
FTLDSFURVGIGJP-UHFFFAOYSA-N
> <PUBCHEM_EXACT_MASS>
551.17466589
> <PUBCHEM_MOLECULAR_FORMULA>
C24H31F6NO3Si2
> <PUBCHEM_MOLECULAR_WEIGHT>
551.7
> <PUBCHEM_OPENEYE_CAN_SMILES>
CN(CC(C1=CC=C(C=C1)O[Si](C)(C)C)O[Si](C)(C)C)C(=O)C2=CC(=CC(=C2)C(F)(F)F)C(F)(F)F
> <PUBCHEM_OPENEYE_ISO_SMILES>
CN(CC(C1=CC=C(C=C1)O[Si](C)(C)C)O[Si](C)(C)C)C(=O)C2=CC(=CC(=C2)C(F)(F)F)C(F)(F)F
> <PUBCHEM_CACTVS_TPSA>
38.8
> <PUBCHEM_MONOISOTOPIC_WEIGHT>
551.17466589
> <PUBCHEM_TOTAL_CHARGE>
0
> <PUBCHEM_HEAVY_ATOM_COUNT>
36
> <PUBCHEM_ATOM_DEF_STEREO_COUNT>
0
> <PUBCHEM_ATOM_UDEF_STEREO_COUNT>
1
> <PUBCHEM_BOND_DEF_STEREO_COUNT>
0
> <PUBCHEM_BOND_UDEF_STEREO_COUNT>
0
> <PUBCHEM_ISOTOPIC_ATOM_COUNT>
0
> <PUBCHEM_COMPONENT_COUNT>
1
> <PUBCHEM_CACTVS_TAUTO_COUNT>
-1
> <PUBCHEM_COORDINATE_TYPE>
1
5
255
> <PUBCHEM_BONDANNOTATIONS>
13  14  3
15  19  8
15  20  8
19  23  8
20  24  8
21  23  8
21  24  8
26  30  8
26  31  8
30  32  8
31  33  8
32  34  8
33  34  8
$$$$
