526024
  -OEChem-10302200292D
109112  0     1  0  0  0  0  0999 V2000
    6.5232    0.9872    0.0000 Si  0  0  0  0  0  0  0  0  0  0  0  0
   11.6673    1.8992    0.0000 Si  0  0  0  0  0  0  0  0  0  0  0  0
    2.8641   -3.0618    0.0000 Si  0  0  0  0  0  0  0  0  0  0  0  0
    9.3531    3.1816    0.0000 Si  0  0  0  0  0  0  0  0  0  0  0  0
    6.5232   -0.0128    0.0000 O   0  0  0  0  0  0  0  0  0  0  0  0
   11.3567    0.9487    0.0000 O   0  0  0  0  0  0  0  0  0  0  0  0
    3.7282   -3.5651    0.0000 O   0  0  0  0  0  0  0  0  0  0  0  0
   10.0210    2.4373    0.0000 O   0  0  0  0  0  0  0  0  0  0  0  0
    7.3892   -1.5128    0.0000 C   0  0  3  0  0  0  0  0  0  0  0  0
    8.2552   -2.0128    0.0000 C   0  0  3  0  0  0  0  0  0  0  0  0
    9.1213   -1.5128    0.0000 C   0  0  3  0  0  0  0  0  0  0  0  0
    9.1213   -0.5128    0.0000 C   0  0  3  0  0  0  0  0  0  0  0  0
    6.4792   -2.0196    0.0000 C   0  0  3  0  0  0  0  0  0  0  0  0
    7.3892   -0.5128    0.0000 C   0  0  3  0  0  0  0  0  0  0  0  0
   10.0675   -0.2081    0.0000 C   0  0  3  0  0  0  0  0  0  0  0  0
    8.2552   -0.0128    0.0000 C   0  0  0  0  0  0  0  0  0  0  0  0
    6.4712   -3.0612    0.0000 C   0  0  3  0  0  0  0  0  0  0  0  0
   10.0675   -1.8175    0.0000 C   0  0  0  0  0  0  0  0  0  0  0  0
    8.2713   -3.0543    0.0000 C   0  0  0  0  0  0  0  0  0  0  0  0
   10.6511   -1.0128    0.0000 C   0  0  0  0  0  0  0  0  0  0  0  0
    7.3733   -3.5821    0.0000 C   0  0  0  0  0  0  0  0  0  0  0  0
    5.5524   -1.4556    0.0000 C   0  0  0  0  0  0  0  0  0  0  0  0
    9.1213    0.4872    0.0000 C   0  0  0  0  0  0  0  0  0  0  0  0
    5.5358   -3.6110    0.0000 C   0  0  0  0  0  0  0  0  0  0  0  0
    6.4869   -1.0197    0.0000 C   0  0  0  0  0  0  0  0  0  0  0  0
   10.3781    0.7425    0.0000 C   0  0  3  0  0  0  0  0  0  0  0  0
    4.6045   -1.9835    0.0000 C   0  0  0  0  0  0  0  0  0  0  0  0
    4.5961   -3.0685    0.0000 C   0  0  3  0  0  0  0  0  0  0  0  0
    9.7103    1.4868    0.0000 C   0  0  0  0  0  0  0  0  0  0  0  0
    6.5232    1.9872    0.0000 C   0  0  0  0  0  0  0  0  0  0  0  0
    5.5232    0.9872    0.0000 C   0  0  0  0  0  0  0  0  0  0  0  0
    7.5232    0.9872    0.0000 C   0  0  0  0  0  0  0  0  0  0  0  0
   11.9780    2.8497    0.0000 C   0  0  0  0  0  0  0  0  0  0  0  0
   12.6178    1.5885    0.0000 C   0  0  0  0  0  0  0  0  0  0  0  0
   10.7168    2.2099    0.0000 C   0  0  0  0  0  0  0  0  0  0  0  0
    2.0000   -2.5585    0.0000 C   0  0  0  0  0  0  0  0  0  0  0  0
    2.3608   -3.9259    0.0000 C   0  0  0  0  0  0  0  0  0  0  0  0
    3.3674   -2.1977    0.0000 C   0  0  0  0  0  0  0  0  0  0  0  0
    8.6853    3.9259    0.0000 C   0  0  0  0  0  0  0  0  0  0  0  0
   10.0974    3.8494    0.0000 C   0  0  0  0  0  0  0  0  0  0  0  0
    8.6088    2.5137    0.0000 C   0  0  0  0  0  0  0  0  0  0  0  0
    7.9262   -1.2028    0.0000 H   0  0  0  0  0  0  0  0  0  0  0  0
    8.7945   -2.3186    0.0000 H   0  0  0  0  0  0  0  0  0  0  0  0
    9.1869   -2.1293    0.0000 H   0  0  0  0  0  0  0  0  0  0  0  0
    7.3892    0.1072    0.0000 H   0  0  0  0  0  0  0  0  0  0  0  0
   10.6800   -0.1119    0.0000 H   0  0  0  0  0  0  0  0  0  0  0  0
    8.6538    0.4622    0.0000 H   0  0  0  0  0  0  0  0  0  0  0  0
    7.8567    0.4622    0.0000 H   0  0  0  0  0  0  0  0  0  0  0  0
    6.4736   -3.6812    0.0000 H   0  0  0  0  0  0  0  0  0  0  0  0
    9.8164   -2.3844    0.0000 H   0  0  0  0  0  0  0  0  0  0  0  0
   10.6049   -2.1268    0.0000 H   0  0  0  0  0  0  0  0  0  0  0  0
    8.4893   -3.6347    0.0000 H   0  0  0  0  0  0  0  0  0  0  0  0
    8.8804   -2.9388    0.0000 H   0  0  0  0  0  0  0  0  0  0  0  0
   11.1120   -1.4275    0.0000 H   0  0  0  0  0  0  0  0  0  0  0  0
   11.1120   -0.5981    0.0000 H   0  0  0  0  0  0  0  0  0  0  0  0
    6.9760   -4.0580    0.0000 H   0  0  0  0  0  0  0  0  0  0  0  0
    7.7742   -4.0550    0.0000 H   0  0  0  0  0  0  0  0  0  0  0  0
    5.9606   -0.9889    0.0000 H   0  0  0  0  0  0  0  0  0  0  0  0
    5.1625   -0.9735    0.0000 H   0  0  0  0  0  0  0  0  0  0  0  0
    9.7413    0.4872    0.0000 H   0  0  0  0  0  0  0  0  0  0  0  0
    9.1213    1.1072    0.0000 H   0  0  0  0  0  0  0  0  0  0  0  0
    8.5013    0.4872    0.0000 H   0  0  0  0  0  0  0  0  0  0  0  0
    5.1385   -4.0869    0.0000 H   0  0  0  0  0  0  0  0  0  0  0  0
    5.9367   -4.0839    0.0000 H   0  0  0  0  0  0  0  0  0  0  0  0
    7.1069   -1.0244    0.0000 H   0  0  0  0  0  0  0  0  0  0  0  0
    6.4917   -0.3997    0.0000 H   0  0  0  0  0  0  0  0  0  0  0  0
    5.8669   -1.0149    0.0000 H   0  0  0  0  0  0  0  0  0  0  0  0
   10.5708    1.3318    0.0000 H   0  0  0  0  0  0  0  0  0  0  0  0
    4.3999   -1.3982    0.0000 H   0  0  0  0  0  0  0  0  0  0  0  0
    3.9928   -2.0849    0.0000 H   0  0  0  0  0  0  0  0  0  0  0  0
    4.5949   -3.6885    0.0000 H   0  0  0  0  0  0  0  0  0  0  0  0
    9.1634    1.7788    0.0000 H   0  0  0  0  0  0  0  0  0  0  0  0
    9.3278    0.9989    0.0000 H   0  0  0  0  0  0  0  0  0  0  0  0
    7.1432    1.9872    0.0000 H   0  0  0  0  0  0  0  0  0  0  0  0
    6.5232    2.6072    0.0000 H   0  0  0  0  0  0  0  0  0  0  0  0
    5.9032    1.9872    0.0000 H   0  0  0  0  0  0  0  0  0  0  0  0
    5.5232    1.6072    0.0000 H   0  0  0  0  0  0  0  0  0  0  0  0
    4.9032    0.9872    0.0000 H   0  0  0  0  0  0  0  0  0  0  0  0
    5.5232    0.3672    0.0000 H   0  0  0  0  0  0  0  0  0  0  0  0
    7.5232    0.3672    0.0000 H   0  0  0  0  0  0  0  0  0  0  0  0
    8.1432    0.9872    0.0000 H   0  0  0  0  0  0  0  0  0  0  0  0
    7.5232    1.6072    0.0000 H   0  0  0  0  0  0  0  0  0  0  0  0
   12.5673    2.6571    0.0000 H   0  0  0  0  0  0  0  0  0  0  0  0
   12.1706    3.4390    0.0000 H   0  0  0  0  0  0  0  0  0  0  0  0
   11.3887    3.0423    0.0000 H   0  0  0  0  0  0  0  0  0  0  0  0
   12.4252    0.9992    0.0000 H   0  0  0  0  0  0  0  0  0  0  0  0
   13.2072    1.3959    0.0000 H   0  0  0  0  0  0  0  0  0  0  0  0
   12.8104    2.1779    0.0000 H   0  0  0  0  0  0  0  0  0  0  0  0
   10.9094    2.7992    0.0000 H   0  0  0  0  0  0  0  0  0  0  0  0
   10.1275    2.4025    0.0000 H   0  0  0  0  0  0  0  0  0  0  0  0
   10.5242    1.6205    0.0000 H   0  0  0  0  0  0  0  0  0  0  0  0
    2.3121   -2.0227    0.0000 H   0  0  0  0  0  0  0  0  0  0  0  0
    1.4643   -2.2464    0.0000 H   0  0  0  0  0  0  0  0  0  0  0  0
    1.6879   -3.0942    0.0000 H   0  0  0  0  0  0  0  0  0  0  0  0
    1.8250   -3.6138    0.0000 H   0  0  0  0  0  0  0  0  0  0  0  0
    2.0487   -4.4616    0.0000 H   0  0  0  0  0  0  0  0  0  0  0  0
    2.8965   -4.2380    0.0000 H   0  0  0  0  0  0  0  0  0  0  0  0
    3.9032   -2.5098    0.0000 H   0  0  0  0  0  0  0  0  0  0  0  0
    3.6795   -1.6620    0.0000 H   0  0  0  0  0  0  0  0  0  0  0  0
    2.8317   -1.8856    0.0000 H   0  0  0  0  0  0  0  0  0  0  0  0
    9.1468    4.3400    0.0000 H   0  0  0  0  0  0  0  0  0  0  0  0
    8.2712    4.3874    0.0000 H   0  0  0  0  0  0  0  0  0  0  0  0
    8.2238    3.5118    0.0000 H   0  0  0  0  0  0  0  0  0  0  0  0
   10.5115    3.3880    0.0000 H   0  0  0  0  0  0  0  0  0  0  0  0
   10.5589    4.2635    0.0000 H   0  0  0  0  0  0  0  0  0  0  0  0
    9.6834    4.3109    0.0000 H   0  0  0  0  0  0  0  0  0  0  0  0
    8.1948    2.9752    0.0000 H   0  0  0  0  0  0  0  0  0  0  0  0
    8.1474    2.0997    0.0000 H   0  0  0  0  0  0  0  0  0  0  0  0
    9.0229    2.0523    0.0000 H   0  0  0  0  0  0  0  0  0  0  0  0
  1  5  1  0  0  0  0
  1 30  1  0  0  0  0
  1 31  1  0  0  0  0
  1 32  1  0  0  0  0
  2  6  1  0  0  0  0
  2 33  1  0  0  0  0
  2 34  1  0  0  0  0
  2 35  1  0  0  0  0
  3  7  1  0  0  0  0
  3 36  1  0  0  0  0
  3 37  1  0  0  0  0
  3 38  1  0  0  0  0
  4  8  1  0  0  0  0
  4 39  1  0  0  0  0
  4 40  1  0  0  0  0
  4 41  1  0  0  0  0
  5 14  1  0  0  0  0
  6 26  1  0  0  0  0
  7 28  1  0  0  0  0
  8 29  1  0  0  0  0
  9 10  1  0  0  0  0
  9 13  1  0  0  0  0
  9 14  1  0  0  0  0
  9 42  1  0  0  0  0
 10 11  1  0  0  0  0
 10 19  1  0  0  0  0
 10 43  1  0  0  0  0
 11 12  1  0  0  0  0
 11 18  1  0  0  0  0
 11 44  1  0  0  0  0
 12 15  1  0  0  0  0
 12 16  1  0  0  0  0
 12 23  1  0  0  0  0
 13 17  1  0  0  0  0
 13 22  1  0  0  0  0
 13 25  1  0  0  0  0
 14 16  1  0  0  0  0
 14 45  1  0  0  0  0
 15 20  1  0  0  0  0
 15 26  1  0  0  0  0
 15 46  1  0  0  0  0
 16 47  1  0  0  0  0
 16 48  1  0  0  0  0
 17 21  1  0  0  0  0
 17 24  1  0  0  0  0
 17 49  1  0  0  0  0
 18 20  1  0  0  0  0
 18 50  1  0  0  0  0
 18 51  1  0  0  0  0
 19 21  1  0  0  0  0
 19 52  1  0  0  0  0
 19 53  1  0  0  0  0
 20 54  1  0  0  0  0
 20 55  1  0  0  0  0
 21 56  1  0  0  0  0
 21 57  1  0  0  0  0
 22 27  1  0  0  0  0
 22 58  1  0  0  0  0
 22 59  1  0  0  0  0
 23 60  1  0  0  0  0
 23 61  1  0  0  0  0
 23 62  1  0  0  0  0
 24 28  1  0  0  0  0
 24 63  1  0  0  0  0
 24 64  1  0  0  0  0
 25 65  1  0  0  0  0
 25 66  1  0  0  0  0
 25 67  1  0  0  0  0
 26 29  1  0  0  0  0
 26 68  1  0  0  0  0
 27 28  1  0  0  0  0
 27 69  1  0  0  0  0
 27 70  1  0  0  0  0
 28 71  1  0  0  0  0
 29 72  1  0  0  0  0
 29 73  1  0  0  0  0
 30 74  1  0  0  0  0
 30 75  1  0  0  0  0
 30 76  1  0  0  0  0
 31 77  1  0  0  0  0
 31 78  1  0  0  0  0
 31 79  1  0  0  0  0
 32 80  1  0  0  0  0
 32 81  1  0  0  0  0
 32 82  1  0  0  0  0
 33 83  1  0  0  0  0
 33 84  1  0  0  0  0
 33 85  1  0  0  0  0
 34 86  1  0  0  0  0
 34 87  1  0  0  0  0
 34 88  1  0  0  0  0
 35 89  1  0  0  0  0
 35 90  1  0  0  0  0
 35 91  1  0  0  0  0
 36 92  1  0  0  0  0
 36 93  1  0  0  0  0
 36 94  1  0  0  0  0
 37 95  1  0  0  0  0
 37 96  1  0  0  0  0
 37 97  1  0  0  0  0
 38 98  1  0  0  0  0
 38 99  1  0  0  0  0
 38100  1  0  0  0  0
 39101  1  0  0  0  0
 39102  1  0  0  0  0
 39103  1  0  0  0  0
 40104  1  0  0  0  0
 40105  1  0  0  0  0
 40106  1  0  0  0  0
 41107  1  0  0  0  0
 41108  1  0  0  0  0
 41109  1  0  0  0  0
M  END
> <PUBCHEM_COMPOUND_CID>
526024
> <PUBCHEM_COMPOUND_CANONICALIZED>
1
> <PUBCHEM_CACTVS_COMPLEXITY>
903
> <PUBCHEM_CACTVS_HBOND_ACCEPTOR>
4
> <PUBCHEM_CACTVS_HBOND_DONOR>
0
> <PUBCHEM_CACTVS_ROTATABLE_BOND>
10
> <PUBCHEM_CACTVS_SUBSKEYS>
AAADcfB8OAwAAAAAAAAAAAAAAAAAAYAAAAAwYMAAAAAAAGDAAAAAGhAAAEAADxSggAJCAAAAAAEAAAAAAAAAAAAAAAAAAAAAAAABAAIAAAAAAAAEAAAAAAGA4PQPgAAAAAAAAADAAAYAADAAAQAACAAAAA==
> <PUBCHEM_IUPAC_OPENEYE_NAME>
[17-[1,2-bis(trimethylsilyloxy)ethyl]-10,13-dimethyl-3-trimethylsilyloxy-2,3,4,5,6,7,8,9,11,12,14,15,16,17-tetradecahydro-1H-cyclopenta[a]phenanthren-11-yl]oxy-trimethyl-silane
> <PUBCHEM_IUPAC_CAS_NAME>
[17-[1,2-bis(trimethylsilyloxy)ethyl]-10,13-dimethyl-3-trimethylsilyloxy-2,3,4,5,6,7,8,9,11,12,14,15,16,17-tetradecahydro-1H-cyclopenta[a]phenanthren-11-yl]oxy-trimethylsilane
> <PUBCHEM_IUPAC_NAME_MARKUP>
[17-[1,2-bis(trimethylsilyloxy)ethyl]-10,13-dimethyl-3-trimethylsilyloxy-2,3,4,5,6,7,8,9,11,12,14,15,16,17-tetradecahydro-1<I>H</I>-cyclopenta[a]phenanthren-11-yl]oxy-trimethylsilane
> <PUBCHEM_IUPAC_NAME>
[17-[1,2-bis(trimethylsilyloxy)ethyl]-10,13-dimethyl-3-trimethylsilyloxy-2,3,4,5,6,7,8,9,11,12,14,15,16,17-tetradecahydro-1H-cyclopenta[a]phenanthren-11-yl]oxy-trimethylsilane
> <PUBCHEM_IUPAC_SYSTEMATIC_NAME>
[17-[1,2-bis(trimethylsilyloxy)ethyl]-10,13-dimethyl-3-trimethylsilyloxy-2,3,4,5,6,7,8,9,11,12,14,15,16,17-tetradecahydro-1H-cyclopenta[a]phenanthren-11-yl]oxy-trimethyl-silane
> <PUBCHEM_IUPAC_TRADITIONAL_NAME>
[17-[1,2-bis(trimethylsilyloxy)ethyl]-10,13-dimethyl-3-trimethylsilyloxy-2,3,4,5,6,7,8,9,11,12,14,15,16,17-tetradecahydro-1H-cyclopenta[a]phenanthren-11-yl]oxy-trimethyl-silane
> <PUBCHEM_IUPAC_INCHI>
InChI=1S/C33H68O4Si4/c1-32-20-19-25(35-39(6,7)8)21-24(32)15-16-26-27-17-18-28(30(37-41(12,13)14)23-34-38(3,4)5)33(27,2)22-29(31(26)32)36-40(9,10)11/h24-31H,15-23H2,1-14H3
> <PUBCHEM_IUPAC_INCHIKEY>
RUHLXDLUNAJPIW-UHFFFAOYSA-N
> <PUBCHEM_EXACT_MASS>
640.41946678
> <PUBCHEM_MOLECULAR_FORMULA>
C33H68O4Si4
> <PUBCHEM_MOLECULAR_WEIGHT>
641.2
> <PUBCHEM_OPENEYE_CAN_SMILES>
CC12CCC(CC1CCC3C2C(CC4(C3CCC4C(CO[Si](C)(C)C)O[Si](C)(C)C)C)O[Si](C)(C)C)O[Si](C)(C)C
> <PUBCHEM_OPENEYE_ISO_SMILES>
CC12CCC(CC1CCC3C2C(CC4(C3CCC4C(CO[Si](C)(C)C)O[Si](C)(C)C)C)O[Si](C)(C)C)O[Si](C)(C)C
> <PUBCHEM_CACTVS_TPSA>
36.9
> <PUBCHEM_MONOISOTOPIC_WEIGHT>
640.41946678
> <PUBCHEM_TOTAL_CHARGE>
0
> <PUBCHEM_HEAVY_ATOM_COUNT>
41
> <PUBCHEM_ATOM_DEF_STEREO_COUNT>
0
> <PUBCHEM_ATOM_UDEF_STEREO_COUNT>
10
> <PUBCHEM_BOND_DEF_STEREO_COUNT>
0
> <PUBCHEM_BOND_UDEF_STEREO_COUNT>
0
> <PUBCHEM_ISOTOPIC_ATOM_COUNT>
0
> <PUBCHEM_COMPONENT_COUNT>
1
> <PUBCHEM_CACTVS_TAUTO_COUNT>
-1
> <PUBCHEM_COORDINATE_TYPE>
1
5
255
> <PUBCHEM_BONDANNOTATIONS>
10  19  3
11  18  3
12  23  3
13  25  3
15  20  3
17  21  3
26  29  3
14  5  3
28  7  3
9  14  3
$$$$
