526038
  -OEChem-10302200292D
 67 70  0     1  0  0  0  0  0999 V2000
   12.1511   -0.2871    0.0000 Si  0  0  0  0  0  0  0  0  0  0  0  0
    2.8641   -1.4701    0.0000 Si  0  0  0  0  0  0  0  0  0  0  0  0
   11.6511    0.5789    0.0000 O   0  0  0  0  0  0  0  0  0  0  0  0
   10.3781    2.3342    0.0000 O   0  0  0  0  0  0  0  0  0  0  0  0
    3.7282   -1.9734    0.0000 O   0  0  0  0  0  0  0  0  0  0  0  0
    9.1213    0.0789    0.0000 C   0  0  3  0  0  0  0  0  0  0  0  0
    9.1213    1.0789    0.0000 C   0  0  3  0  0  0  0  0  0  0  0  0
    8.2552   -0.4211    0.0000 C   0  0  3  0  0  0  0  0  0  0  0  0
    7.3892    0.0789    0.0000 C   0  0  3  0  0  0  0  0  0  0  0  0
    8.2552    1.5789    0.0000 C   0  0  0  0  0  0  0  0  0  0  0  0
   10.0675   -0.2258    0.0000 C   0  0  0  0  0  0  0  0  0  0  0  0
    7.3892    1.0789    0.0000 C   0  0  0  0  0  0  0  0  0  0  0  0
   10.6511    0.5789    0.0000 C   0  0  3  0  0  0  0  0  0  0  0  0
   10.0675    1.3836    0.0000 C   0  0  0  0  0  0  0  0  0  0  0  0
    8.2713   -1.4626    0.0000 C   0  0  0  0  0  0  0  0  0  0  0  0
    9.1213    2.0789    0.0000 C   0  0  0  0  0  0  0  0  0  0  0  0
    6.4792   -0.4279    0.0000 C   0  0  0  0  0  0  0  0  0  0  0  0
    7.3733   -1.9903    0.0000 C   0  0  0  0  0  0  0  0  0  0  0  0
    6.4712   -1.4695    0.0000 C   0  0  0  0  0  0  0  0  0  0  0  0
    5.5524    0.1362    0.0000 C   0  0  0  0  0  0  0  0  0  0  0  0
    5.5358   -2.0192    0.0000 C   0  0  0  0  0  0  0  0  0  0  0  0
    4.6045   -0.3918    0.0000 C   0  0  0  0  0  0  0  0  0  0  0  0
    4.5961   -1.4768    0.0000 C   0  0  0  0  0  0  0  0  0  0  0  0
   12.6511   -1.1531    0.0000 C   0  0  0  0  0  0  0  0  0  0  0  0
   13.0171    0.2129    0.0000 C   0  0  0  0  0  0  0  0  0  0  0  0
   11.2851   -0.7871    0.0000 C   0  0  0  0  0  0  0  0  0  0  0  0
    2.0000   -0.9667    0.0000 C   0  0  0  0  0  0  0  0  0  0  0  0
    2.3608   -2.3342    0.0000 C   0  0  0  0  0  0  0  0  0  0  0  0
    3.3674   -0.6060    0.0000 C   0  0  0  0  0  0  0  0  0  0  0  0
    9.1869   -0.5376    0.0000 H   0  0  0  0  0  0  0  0  0  0  0  0
    8.7945   -0.7269    0.0000 H   0  0  0  0  0  0  0  0  0  0  0  0
    7.9262    0.3889    0.0000 H   0  0  0  0  0  0  0  0  0  0  0  0
    8.6538    2.0539    0.0000 H   0  0  0  0  0  0  0  0  0  0  0  0
    7.8567    2.0539    0.0000 H   0  0  0  0  0  0  0  0  0  0  0  0
    9.8164   -0.7927    0.0000 H   0  0  0  0  0  0  0  0  0  0  0  0
   10.6049   -0.5350    0.0000 H   0  0  0  0  0  0  0  0  0  0  0  0
    7.1772    1.6615    0.0000 H   0  0  0  0  0  0  0  0  0  0  0  0
    6.7786    0.9713    0.0000 H   0  0  0  0  0  0  0  0  0  0  0  0
   10.9328    0.0266    0.0000 H   0  0  0  0  0  0  0  0  0  0  0  0
    8.4893   -2.0430    0.0000 H   0  0  0  0  0  0  0  0  0  0  0  0
    8.8804   -1.3471    0.0000 H   0  0  0  0  0  0  0  0  0  0  0  0
    9.7413    2.0789    0.0000 H   0  0  0  0  0  0  0  0  0  0  0  0
    9.1213    2.6989    0.0000 H   0  0  0  0  0  0  0  0  0  0  0  0
    8.5013    2.0789    0.0000 H   0  0  0  0  0  0  0  0  0  0  0  0
    6.9760   -2.4663    0.0000 H   0  0  0  0  0  0  0  0  0  0  0  0
    7.7742   -2.4632    0.0000 H   0  0  0  0  0  0  0  0  0  0  0  0
    5.5643    0.7560    0.0000 H   0  0  0  0  0  0  0  0  0  0  0  0
    5.5382   -2.6392    0.0000 H   0  0  0  0  0  0  0  0  0  0  0  0
    4.0712   -0.0756    0.0000 H   0  0  0  0  0  0  0  0  0  0  0  0
   12.1142   -1.4631    0.0000 H   0  0  0  0  0  0  0  0  0  0  0  0
   12.9611   -1.6901    0.0000 H   0  0  0  0  0  0  0  0  0  0  0  0
   13.1880   -0.8431    0.0000 H   0  0  0  0  0  0  0  0  0  0  0  0
   13.3271   -0.3240    0.0000 H   0  0  0  0  0  0  0  0  0  0  0  0
   13.5541    0.5229    0.0000 H   0  0  0  0  0  0  0  0  0  0  0  0
   12.7071    0.7498    0.0000 H   0  0  0  0  0  0  0  0  0  0  0  0
   10.9751   -0.2502    0.0000 H   0  0  0  0  0  0  0  0  0  0  0  0
   10.7481   -1.0971    0.0000 H   0  0  0  0  0  0  0  0  0  0  0  0
   11.5951   -1.3240    0.0000 H   0  0  0  0  0  0  0  0  0  0  0  0
    2.3121   -0.4310    0.0000 H   0  0  0  0  0  0  0  0  0  0  0  0
    1.4643   -0.6547    0.0000 H   0  0  0  0  0  0  0  0  0  0  0  0
    1.6879   -1.5025    0.0000 H   0  0  0  0  0  0  0  0  0  0  0  0
    1.8250   -2.0221    0.0000 H   0  0  0  0  0  0  0  0  0  0  0  0
    2.0487   -2.8699    0.0000 H   0  0  0  0  0  0  0  0  0  0  0  0
    2.8965   -2.6462    0.0000 H   0  0  0  0  0  0  0  0  0  0  0  0
    3.9032   -0.9181    0.0000 H   0  0  0  0  0  0  0  0  0  0  0  0
    3.6795   -0.0703    0.0000 H   0  0  0  0  0  0  0  0  0  0  0  0
    2.8317   -0.2939    0.0000 H   0  0  0  0  0  0  0  0  0  0  0  0
  1  3  1  0  0  0  0
  1 24  1  0  0  0  0
  1 25  1  0  0  0  0
  1 26  1  0  0  0  0
  2  5  1  0  0  0  0
  2 27  1  0  0  0  0
  2 28  1  0  0  0  0
  2 29  1  0  0  0  0
  3 13  1  0  0  0  0
  4 14  2  0  0  0  0
  5 23  1  0  0  0  0
  6  7  1  0  0  0  0
  6  8  1  0  0  0  0
  6 11  1  0  0  0  0
  6 30  1  0  0  0  0
  7 10  1  0  0  0  0
  7 14  1  0  0  0  0
  7 16  1  0  0  0  0
  8  9  1  0  0  0  0
  8 15  1  0  0  0  0
  8 31  1  0  0  0  0
  9 12  1  0  0  0  0
  9 17  1  0  0  0  0
  9 32  1  0  0  0  0
 10 12  1  0  0  0  0
 10 33  1  0  0  0  0
 10 34  1  0  0  0  0
 11 13  1  0  0  0  0
 11 35  1  0  0  0  0
 11 36  1  0  0  0  0
 12 37  1  0  0  0  0
 12 38  1  0  0  0  0
 13 14  1  0  0  0  0
 13 39  1  0  0  0  0
 15 18  1  0  0  0  0
 15 40  1  0  0  0  0
 15 41  1  0  0  0  0
 16 42  1  0  0  0  0
 16 43  1  0  0  0  0
 16 44  1  0  0  0  0
 17 19  2  0  0  0  0
 17 20  1  0  0  0  0
 18 19  1  0  0  0  0
 18 45  1  0  0  0  0
 18 46  1  0  0  0  0
 19 21  1  0  0  0  0
 20 22  2  0  0  0  0
 20 47  1  0  0  0  0
 21 23  2  0  0  0  0
 21 48  1  0  0  0  0
 22 23  1  0  0  0  0
 22 49  1  0  0  0  0
 24 50  1  0  0  0  0
 24 51  1  0  0  0  0
 24 52  1  0  0  0  0
 25 53  1  0  0  0  0
 25 54  1  0  0  0  0
 25 55  1  0  0  0  0
 26 56  1  0  0  0  0
 26 57  1  0  0  0  0
 26 58  1  0  0  0  0
 27 59  1  0  0  0  0
 27 60  1  0  0  0  0
 27 61  1  0  0  0  0
 28 62  1  0  0  0  0
 28 63  1  0  0  0  0
 28 64  1  0  0  0  0
 29 65  1  0  0  0  0
 29 66  1  0  0  0  0
 29 67  1  0  0  0  0
M  END
> <PUBCHEM_COMPOUND_CID>
526038
> <PUBCHEM_COMPOUND_CANONICALIZED>
1
> <PUBCHEM_CACTVS_COMPLEXITY>
637
> <PUBCHEM_CACTVS_HBOND_ACCEPTOR>
3
> <PUBCHEM_CACTVS_HBOND_DONOR>
0
> <PUBCHEM_CACTVS_ROTATABLE_BOND>
4
> <PUBCHEM_CACTVS_SUBSKEYS>
AAADcfB4MAwAAAAAAAAAAAAAAAAAAYAAAAAwYMAAAAAAAGDBAAAAGhAAAEAADxSgmAJyBoAAAAGIAqBSAAICAAAgIAAIiAFGCIgIJjKAERKAMAAkwBEIiAeIzPCPoAABAAAQAADAAAYAACAAAIAACAAAAA==
> <PUBCHEM_IUPAC_OPENEYE_NAME>
13-methyl-3,16-bis(trimethylsilyloxy)-7,8,9,11,12,14,15,16-octahydro-6H-cyclopenta[a]phenanthren-17-one
> <PUBCHEM_IUPAC_CAS_NAME>
13-methyl-3,16-bis(trimethylsilyloxy)-7,8,9,11,12,14,15,16-octahydro-6H-cyclopenta[a]phenanthren-17-one
> <PUBCHEM_IUPAC_NAME_MARKUP>
13-methyl-3,16-bis(trimethylsilyloxy)-7,8,9,11,12,14,15,16-octahydro-6<I>H</I>-cyclopenta[a]phenanthren-17-one
> <PUBCHEM_IUPAC_NAME>
13-methyl-3,16-bis(trimethylsilyloxy)-7,8,9,11,12,14,15,16-octahydro-6H-cyclopenta[a]phenanthren-17-one
> <PUBCHEM_IUPAC_SYSTEMATIC_NAME>
13-methyl-3,16-bis(trimethylsilyloxy)-7,8,9,11,12,14,15,16-octahydro-6H-cyclopenta[a]phenanthren-17-one
> <PUBCHEM_IUPAC_TRADITIONAL_NAME>
13-methyl-3,16-bis(trimethylsilyloxy)-7,8,9,11,12,14,15,16-octahydro-6H-cyclopenta[a]phenanthren-17-one
> <PUBCHEM_IUPAC_INCHI>
InChI=1S/C24H38O3Si2/c1-24-13-12-19-18-11-9-17(26-28(2,3)4)14-16(18)8-10-20(19)21(24)15-22(23(24)25)27-29(5,6)7/h9,11,14,19-22H,8,10,12-13,15H2,1-7H3
> <PUBCHEM_IUPAC_INCHIKEY>
OTOYHXDNWUYSAL-UHFFFAOYSA-N
> <PUBCHEM_EXACT_MASS>
430.23594814
> <PUBCHEM_MOLECULAR_FORMULA>
C24H38O3Si2
> <PUBCHEM_MOLECULAR_WEIGHT>
430.7
> <PUBCHEM_OPENEYE_CAN_SMILES>
CC12CCC3C(C1CC(C2=O)O[Si](C)(C)C)CCC4=C3C=CC(=C4)O[Si](C)(C)C
> <PUBCHEM_OPENEYE_ISO_SMILES>
CC12CCC3C(C1CC(C2=O)O[Si](C)(C)C)CCC4=C3C=CC(=C4)O[Si](C)(C)C
> <PUBCHEM_CACTVS_TPSA>
35.5
> <PUBCHEM_MONOISOTOPIC_WEIGHT>
430.23594814
> <PUBCHEM_TOTAL_CHARGE>
0
> <PUBCHEM_HEAVY_ATOM_COUNT>
29
> <PUBCHEM_ATOM_DEF_STEREO_COUNT>
0
> <PUBCHEM_ATOM_UDEF_STEREO_COUNT>
5
> <PUBCHEM_BOND_DEF_STEREO_COUNT>
0
> <PUBCHEM_BOND_UDEF_STEREO_COUNT>
0
> <PUBCHEM_ISOTOPIC_ATOM_COUNT>
0
> <PUBCHEM_COMPONENT_COUNT>
1
> <PUBCHEM_CACTVS_TAUTO_COUNT>
-1
> <PUBCHEM_COORDINATE_TYPE>
1
5
255
> <PUBCHEM_BONDANNOTATIONS>
17  19  8
17  20  8
19  21  8
20  22  8
21  23  8
22  23  8
13  3  3
6  11  3
7  16  3
8  15  3
9  12  3
$$$$
