526084
  -OEChem-10302200292D
 95 98  0     1  0  0  0  0  0999 V2000
    6.5232    1.4082    0.0000 Si  0  0  0  0  0  0  0  0  0  0  0  0
    2.8641   -2.6408    0.0000 Si  0  0  0  0  0  0  0  0  0  0  0  0
   12.6458    2.5264    0.0000 Si  0  0  0  0  0  0  0  0  0  0  0  0
    6.5232    0.4082    0.0000 O   0  0  0  0  0  0  0  0  0  0  0  0
    3.7282   -3.1441    0.0000 O   0  0  0  0  0  0  0  0  0  0  0  0
    9.7103    1.9077    0.0000 O   0  0  0  0  0  0  0  0  0  0  0  0
   11.6673    2.3202    0.0000 O   0  0  0  0  0  0  0  0  0  0  0  0
    7.3892   -1.0918    0.0000 C   0  0  3  0  0  0  0  0  0  0  0  0
    8.2552   -1.5918    0.0000 C   0  0  3  0  0  0  0  0  0  0  0  0
    9.1213   -1.0918    0.0000 C   0  0  3  0  0  0  0  0  0  0  0  0
    9.1213   -0.0918    0.0000 C   0  0  3  0  0  0  0  0  0  0  0  0
    6.4792   -1.5987    0.0000 C   0  0  3  0  0  0  0  0  0  0  0  0
    7.3892   -0.0918    0.0000 C   0  0  3  0  0  0  0  0  0  0  0  0
    6.4712   -2.6403    0.0000 C   0  0  3  0  0  0  0  0  0  0  0  0
    8.2552    0.4082    0.0000 C   0  0  0  0  0  0  0  0  0  0  0  0
    8.2713   -2.6333    0.0000 C   0  0  0  0  0  0  0  0  0  0  0  0
   10.0675    0.2129    0.0000 C   0  0  3  0  0  0  0  0  0  0  0  0
   10.0675   -1.3966    0.0000 C   0  0  0  0  0  0  0  0  0  0  0  0
    7.3733   -3.1611    0.0000 C   0  0  0  0  0  0  0  0  0  0  0  0
    5.5524   -1.0346    0.0000 C   0  0  0  0  0  0  0  0  0  0  0  0
   10.6511   -0.5918    0.0000 C   0  0  0  0  0  0  0  0  0  0  0  0
    5.5358   -3.1900    0.0000 C   0  0  0  0  0  0  0  0  0  0  0  0
    9.1213    0.9082    0.0000 C   0  0  0  0  0  0  0  0  0  0  0  0
    6.4869   -0.5987    0.0000 C   0  0  0  0  0  0  0  0  0  0  0  0
    4.6045   -1.5625    0.0000 C   0  0  0  0  0  0  0  0  0  0  0  0
    4.5961   -2.6475    0.0000 C   0  0  3  0  0  0  0  0  0  0  0  0
   10.3781    1.1634    0.0000 C   0  0  0  0  0  0  0  0  0  0  0  0
   11.3567    1.3697    0.0000 C   0  0  0  0  0  0  0  0  0  0  0  0
    6.5232    2.4082    0.0000 C   0  0  0  0  0  0  0  0  0  0  0  0
    5.5232    1.4082    0.0000 C   0  0  0  0  0  0  0  0  0  0  0  0
    7.5232    1.4082    0.0000 C   0  0  0  0  0  0  0  0  0  0  0  0
    2.0000   -2.1375    0.0000 C   0  0  0  0  0  0  0  0  0  0  0  0
    2.3608   -3.5049    0.0000 C   0  0  0  0  0  0  0  0  0  0  0  0
    3.3674   -1.7767    0.0000 C   0  0  0  0  0  0  0  0  0  0  0  0
   13.6243    2.7326    0.0000 C   0  0  0  0  0  0  0  0  0  0  0  0
   12.4396    3.5049    0.0000 C   0  0  0  0  0  0  0  0  0  0  0  0
   12.8520    1.5479    0.0000 C   0  0  0  0  0  0  0  0  0  0  0  0
    7.9262   -0.7818    0.0000 H   0  0  0  0  0  0  0  0  0  0  0  0
    8.7945   -1.8977    0.0000 H   0  0  0  0  0  0  0  0  0  0  0  0
    9.1869   -1.7083    0.0000 H   0  0  0  0  0  0  0  0  0  0  0  0
    7.3892    0.5282    0.0000 H   0  0  0  0  0  0  0  0  0  0  0  0
    6.4736   -3.2602    0.0000 H   0  0  0  0  0  0  0  0  0  0  0  0
    8.6538    0.8831    0.0000 H   0  0  0  0  0  0  0  0  0  0  0  0
    7.8567    0.8831    0.0000 H   0  0  0  0  0  0  0  0  0  0  0  0
    8.4893   -3.2137    0.0000 H   0  0  0  0  0  0  0  0  0  0  0  0
    8.8804   -2.5178    0.0000 H   0  0  0  0  0  0  0  0  0  0  0  0
   10.6800    0.3091    0.0000 H   0  0  0  0  0  0  0  0  0  0  0  0
    9.8164   -1.9634    0.0000 H   0  0  0  0  0  0  0  0  0  0  0  0
   10.6049   -1.7058    0.0000 H   0  0  0  0  0  0  0  0  0  0  0  0
    6.9760   -3.6370    0.0000 H   0  0  0  0  0  0  0  0  0  0  0  0
    7.7742   -3.6340    0.0000 H   0  0  0  0  0  0  0  0  0  0  0  0
    5.9606   -0.5679    0.0000 H   0  0  0  0  0  0  0  0  0  0  0  0
    5.1625   -0.5525    0.0000 H   0  0  0  0  0  0  0  0  0  0  0  0
   11.1120   -1.0065    0.0000 H   0  0  0  0  0  0  0  0  0  0  0  0
   11.1120   -0.1771    0.0000 H   0  0  0  0  0  0  0  0  0  0  0  0
    5.1385   -3.6660    0.0000 H   0  0  0  0  0  0  0  0  0  0  0  0
    5.9367   -3.6629    0.0000 H   0  0  0  0  0  0  0  0  0  0  0  0
    9.7413    0.9082    0.0000 H   0  0  0  0  0  0  0  0  0  0  0  0
    9.1213    1.5282    0.0000 H   0  0  0  0  0  0  0  0  0  0  0  0
    8.5013    0.9082    0.0000 H   0  0  0  0  0  0  0  0  0  0  0  0
    7.1069   -0.6035    0.0000 H   0  0  0  0  0  0  0  0  0  0  0  0
    6.4917    0.0213    0.0000 H   0  0  0  0  0  0  0  0  0  0  0  0
    5.8669   -0.5939    0.0000 H   0  0  0  0  0  0  0  0  0  0  0  0
    4.3999   -0.9772    0.0000 H   0  0  0  0  0  0  0  0  0  0  0  0
    3.9928   -1.6639    0.0000 H   0  0  0  0  0  0  0  0  0  0  0  0
    4.5949   -3.2675    0.0000 H   0  0  0  0  0  0  0  0  0  0  0  0
   11.3772    0.7500    0.0000 H   0  0  0  0  0  0  0  0  0  0  0  0
   11.9705    1.2823    0.0000 H   0  0  0  0  0  0  0  0  0  0  0  0
    7.1432    2.4082    0.0000 H   0  0  0  0  0  0  0  0  0  0  0  0
    6.5232    3.0282    0.0000 H   0  0  0  0  0  0  0  0  0  0  0  0
    5.9032    2.4082    0.0000 H   0  0  0  0  0  0  0  0  0  0  0  0
    5.5232    2.0282    0.0000 H   0  0  0  0  0  0  0  0  0  0  0  0
    4.9032    1.4082    0.0000 H   0  0  0  0  0  0  0  0  0  0  0  0
    5.5232    0.7882    0.0000 H   0  0  0  0  0  0  0  0  0  0  0  0
    7.5232    0.7882    0.0000 H   0  0  0  0  0  0  0  0  0  0  0  0
    8.1432    1.4082    0.0000 H   0  0  0  0  0  0  0  0  0  0  0  0
    7.5232    2.0282    0.0000 H   0  0  0  0  0  0  0  0  0  0  0  0
    2.3121   -1.6017    0.0000 H   0  0  0  0  0  0  0  0  0  0  0  0
    1.4643   -1.8254    0.0000 H   0  0  0  0  0  0  0  0  0  0  0  0
    1.6879   -2.6732    0.0000 H   0  0  0  0  0  0  0  0  0  0  0  0
    1.8250   -3.1928    0.0000 H   0  0  0  0  0  0  0  0  0  0  0  0
    2.0487   -4.0406    0.0000 H   0  0  0  0  0  0  0  0  0  0  0  0
    2.8965   -3.8170    0.0000 H   0  0  0  0  0  0  0  0  0  0  0  0
    3.9032   -2.0888    0.0000 H   0  0  0  0  0  0  0  0  0  0  0  0
    3.6795   -1.2410    0.0000 H   0  0  0  0  0  0  0  0  0  0  0  0
    2.8317   -1.4646    0.0000 H   0  0  0  0  0  0  0  0  0  0  0  0
   13.7522    2.1259    0.0000 H   0  0  0  0  0  0  0  0  0  0  0  0
   14.2310    2.8605    0.0000 H   0  0  0  0  0  0  0  0  0  0  0  0
   13.4965    3.3393    0.0000 H   0  0  0  0  0  0  0  0  0  0  0  0
   13.0463    3.6328    0.0000 H   0  0  0  0  0  0  0  0  0  0  0  0
   12.3117    4.1116    0.0000 H   0  0  0  0  0  0  0  0  0  0  0  0
   11.8329    3.3770    0.0000 H   0  0  0  0  0  0  0  0  0  0  0  0
   12.2454    1.4200    0.0000 H   0  0  0  0  0  0  0  0  0  0  0  0
   12.9799    0.9412    0.0000 H   0  0  0  0  0  0  0  0  0  0  0  0
   13.4587    1.6758    0.0000 H   0  0  0  0  0  0  0  0  0  0  0  0
  1  4  1  0  0  0  0
  1 29  1  0  0  0  0
  1 30  1  0  0  0  0
  1 31  1  0  0  0  0
  2  5  1  0  0  0  0
  2 32  1  0  0  0  0
  2 33  1  0  0  0  0
  2 34  1  0  0  0  0
  3  7  1  0  0  0  0
  3 35  1  0  0  0  0
  3 36  1  0  0  0  0
  3 37  1  0  0  0  0
  4 13  1  0  0  0  0
  5 26  1  0  0  0  0
  6 27  2  0  0  0  0
  7 28  1  0  0  0  0
  8  9  1  0  0  0  0
  8 12  1  0  0  0  0
  8 13  1  0  0  0  0
  8 38  1  0  0  0  0
  9 10  1  0  0  0  0
  9 16  1  0  0  0  0
  9 39  1  0  0  0  0
 10 11  1  0  0  0  0
 10 18  1  0  0  0  0
 10 40  1  0  0  0  0
 11 15  1  0  0  0  0
 11 17  1  0  0  0  0
 11 23  1  0  0  0  0
 12 14  1  0  0  0  0
 12 20  1  0  0  0  0
 12 24  1  0  0  0  0
 13 15  1  0  0  0  0
 13 41  1  0  0  0  0
 14 19  1  0  0  0  0
 14 22  1  0  0  0  0
 14 42  1  0  0  0  0
 15 43  1  0  0  0  0
 15 44  1  0  0  0  0
 16 19  1  0  0  0  0
 16 45  1  0  0  0  0
 16 46  1  0  0  0  0
 17 21  1  0  0  0  0
 17 27  1  0  0  0  0
 17 47  1  0  0  0  0
 18 21  1  0  0  0  0
 18 48  1  0  0  0  0
 18 49  1  0  0  0  0
 19 50  1  0  0  0  0
 19 51  1  0  0  0  0
 20 25  1  0  0  0  0
 20 52  1  0  0  0  0
 20 53  1  0  0  0  0
 21 54  1  0  0  0  0
 21 55  1  0  0  0  0
 22 26  1  0  0  0  0
 22 56  1  0  0  0  0
 22 57  1  0  0  0  0
 23 58  1  0  0  0  0
 23 59  1  0  0  0  0
 23 60  1  0  0  0  0
 24 61  1  0  0  0  0
 24 62  1  0  0  0  0
 24 63  1  0  0  0  0
 25 26  1  0  0  0  0
 25 64  1  0  0  0  0
 25 65  1  0  0  0  0
 26 66  1  0  0  0  0
 27 28  1  0  0  0  0
 28 67  1  0  0  0  0
 28 68  1  0  0  0  0
 29 69  1  0  0  0  0
 29 70  1  0  0  0  0
 29 71  1  0  0  0  0
 30 72  1  0  0  0  0
 30 73  1  0  0  0  0
 30 74  1  0  0  0  0
 31 75  1  0  0  0  0
 31 76  1  0  0  0  0
 31 77  1  0  0  0  0
 32 78  1  0  0  0  0
 32 79  1  0  0  0  0
 32 80  1  0  0  0  0
 33 81  1  0  0  0  0
 33 82  1  0  0  0  0
 33 83  1  0  0  0  0
 34 84  1  0  0  0  0
 34 85  1  0  0  0  0
 34 86  1  0  0  0  0
 35 87  1  0  0  0  0
 35 88  1  0  0  0  0
 35 89  1  0  0  0  0
 36 90  1  0  0  0  0
 36 91  1  0  0  0  0
 36 92  1  0  0  0  0
 37 93  1  0  0  0  0
 37 94  1  0  0  0  0
 37 95  1  0  0  0  0
M  END
> <PUBCHEM_COMPOUND_CID>
526084
> <PUBCHEM_COMPOUND_CANONICALIZED>
1
> <PUBCHEM_CACTVS_COMPLEXITY>
843
> <PUBCHEM_CACTVS_HBOND_ACCEPTOR>
4
> <PUBCHEM_CACTVS_HBOND_DONOR>
0
> <PUBCHEM_CACTVS_ROTATABLE_BOND>
8
> <PUBCHEM_CACTVS_SUBSKEYS>
AAADcfB4OAwAAAAAAAAAAAAAAAAAAYAAAAAwYMAAAAAAAGDAAAAAGhAAAEAADxSggAJCAAAAAAEIAIAQAAIAAAAAAAAAAAFAAAAAABIAAAAAAAAEAAAAAAGIzPDPgAAAAAAAAADAAAYAADAAAQAACAAAAA==
> <PUBCHEM_IUPAC_OPENEYE_NAME>
1-[10,13-dimethyl-3,11-bis(trimethylsilyloxy)-2,3,4,5,6,7,8,9,11,12,14,15,16,17-tetradecahydro-1H-cyclopenta[a]phenanthren-17-yl]-2-trimethylsilyloxy-ethanone
> <PUBCHEM_IUPAC_CAS_NAME>
1-[10,13-dimethyl-3,11-bis(trimethylsilyloxy)-2,3,4,5,6,7,8,9,11,12,14,15,16,17-tetradecahydro-1H-cyclopenta[a]phenanthren-17-yl]-2-trimethylsilyloxyethanone
> <PUBCHEM_IUPAC_NAME_MARKUP>
1-[10,13-dimethyl-3,11-bis(trimethylsilyloxy)-2,3,4,5,6,7,8,9,11,12,14,15,16,17-tetradecahydro-1<I>H</I>-cyclopenta[a]phenanthren-17-yl]-2-trimethylsilyloxyethanone
> <PUBCHEM_IUPAC_NAME>
1-[10,13-dimethyl-3,11-bis(trimethylsilyloxy)-2,3,4,5,6,7,8,9,11,12,14,15,16,17-tetradecahydro-1H-cyclopenta[a]phenanthren-17-yl]-2-trimethylsilyloxyethanone
> <PUBCHEM_IUPAC_SYSTEMATIC_NAME>
1-[10,13-dimethyl-3,11-bis(trimethylsilyloxy)-2,3,4,5,6,7,8,9,11,12,14,15,16,17-tetradecahydro-1H-cyclopenta[a]phenanthren-17-yl]-2-trimethylsilyloxy-ethanone
> <PUBCHEM_IUPAC_TRADITIONAL_NAME>
1-[10,13-dimethyl-3,11-bis(trimethylsilyloxy)-2,3,4,5,6,7,8,9,11,12,14,15,16,17-tetradecahydro-1H-cyclopenta[a]phenanthren-17-yl]-2-trimethylsilyloxy-ethanone
> <PUBCHEM_IUPAC_INCHI>
InChI=1S/C30H58O4Si3/c1-29-17-16-22(33-36(6,7)8)18-21(29)12-13-23-24-14-15-25(26(31)20-32-35(3,4)5)30(24,2)19-27(28(23)29)34-37(9,10)11/h21-25,27-28H,12-20H2,1-11H3
> <PUBCHEM_IUPAC_INCHIKEY>
UNLCXDYGUPZCQD-UHFFFAOYSA-N
> <PUBCHEM_EXACT_MASS>
566.36428993
> <PUBCHEM_MOLECULAR_FORMULA>
C30H58O4Si3
> <PUBCHEM_MOLECULAR_WEIGHT>
567.0
> <PUBCHEM_OPENEYE_CAN_SMILES>
CC12CCC(CC1CCC3C2C(CC4(C3CCC4C(=O)CO[Si](C)(C)C)C)O[Si](C)(C)C)O[Si](C)(C)C
> <PUBCHEM_OPENEYE_ISO_SMILES>
CC12CCC(CC1CCC3C2C(CC4(C3CCC4C(=O)CO[Si](C)(C)C)C)O[Si](C)(C)C)O[Si](C)(C)C
> <PUBCHEM_CACTVS_TPSA>
44.8
> <PUBCHEM_MONOISOTOPIC_WEIGHT>
566.36428993
> <PUBCHEM_TOTAL_CHARGE>
0
> <PUBCHEM_HEAVY_ATOM_COUNT>
37
> <PUBCHEM_ATOM_DEF_STEREO_COUNT>
0
> <PUBCHEM_ATOM_UDEF_STEREO_COUNT>
9
> <PUBCHEM_BOND_DEF_STEREO_COUNT>
0
> <PUBCHEM_BOND_UDEF_STEREO_COUNT>
0
> <PUBCHEM_ISOTOPIC_ATOM_COUNT>
0
> <PUBCHEM_COMPONENT_COUNT>
1
> <PUBCHEM_CACTVS_TAUTO_COUNT>
-1
> <PUBCHEM_COORDINATE_TYPE>
1
5
255
> <PUBCHEM_BONDANNOTATIONS>
10  18  3
11  23  3
12  24  3
14  19  3
17  27  3
13  4  3
26  5  3
8  13  3
9  16  3
$$$$
