526014
  -OEChem-10302200292D
 64 65  0     1  0  0  0  0  0999 V2000
    6.3301   -3.5000    0.0000 Si  0  0  0  0  0  0  0  0  0  0  0  0
   11.5263   -2.5000    0.0000 Si  0  0  0  0  0  0  0  0  0  0  0  0
    4.5981    4.5000    0.0000 F   0  0  0  0  0  0  0  0  0  0  0  0
    5.5981    3.5000    0.0000 F   0  0  0  0  0  0  0  0  0  0  0  0
    3.5981    3.5000    0.0000 F   0  0  0  0  0  0  0  0  0  0  0  0
    2.0000    0.0000    0.0000 F   0  0  0  0  0  0  0  0  0  0  0  0
    3.3660   -0.3660    0.0000 F   0  0  0  0  0  0  0  0  0  0  0  0
    2.3660    1.3660    0.0000 F   0  0  0  0  0  0  0  0  0  0  0  0
    6.3301   -2.5000    0.0000 O   0  0  0  0  0  0  0  0  0  0  0  0
   10.6603   -2.0000    0.0000 O   0  0  0  0  0  0  0  0  0  0  0  0
    7.1962    1.0000    0.0000 O   0  0  0  0  0  0  0  0  0  0  0  0
    6.3301   -0.5000    0.0000 N   0  0  0  0  0  0  0  0  0  0  0  0
    7.1962   -2.0000    0.0000 C   0  0  3  0  0  0  0  0  0  0  0  0
    8.0622   -2.5000    0.0000 C   0  0  0  0  0  0  0  0  0  0  0  0
    7.1962   -1.0000    0.0000 C   0  0  0  0  0  0  0  0  0  0  0  0
    6.3301   -4.5000    0.0000 C   0  0  0  0  0  0  0  0  0  0  0  0
    5.3301   -3.5000    0.0000 C   0  0  0  0  0  0  0  0  0  0  0  0
    7.3301   -3.5000    0.0000 C   0  0  0  0  0  0  0  0  0  0  0  0
    8.9282   -2.0000    0.0000 C   0  0  0  0  0  0  0  0  0  0  0  0
    9.7942   -2.5000    0.0000 C   0  0  0  0  0  0  0  0  0  0  0  0
    8.0622   -3.5000    0.0000 C   0  0  0  0  0  0  0  0  0  0  0  0
    9.7942   -3.5000    0.0000 C   0  0  0  0  0  0  0  0  0  0  0  0
    8.9282   -4.0000    0.0000 C   0  0  0  0  0  0  0  0  0  0  0  0
   12.3923   -3.0000    0.0000 C   0  0  0  0  0  0  0  0  0  0  0  0
   12.0263   -1.6340    0.0000 C   0  0  0  0  0  0  0  0  0  0  0  0
   11.0263   -3.3660    0.0000 C   0  0  0  0  0  0  0  0  0  0  0  0
    6.3301    0.5000    0.0000 C   0  0  0  0  0  0  0  0  0  0  0  0
    5.4641    1.0000    0.0000 C   0  0  0  0  0  0  0  0  0  0  0  0
    4.5981    0.5000    0.0000 C   0  0  0  0  0  0  0  0  0  0  0  0
    5.4641    2.0000    0.0000 C   0  0  0  0  0  0  0  0  0  0  0  0
    3.7320    1.0000    0.0000 C   0  0  0  0  0  0  0  0  0  0  0  0
    4.5981    2.5000    0.0000 C   0  0  0  0  0  0  0  0  0  0  0  0
    3.7320    2.0000    0.0000 C   0  0  0  0  0  0  0  0  0  0  0  0
    4.5981    3.5000    0.0000 C   0  0  0  0  0  0  0  0  0  0  0  0
    2.8660    0.5000    0.0000 C   0  0  0  0  0  0  0  0  0  0  0  0
    6.6592   -1.6900    0.0000 H   0  0  0  0  0  0  0  0  0  0  0  0
    7.8067   -1.1077    0.0000 H   0  0  0  0  0  0  0  0  0  0  0  0
    7.4082   -0.4174    0.0000 H   0  0  0  0  0  0  0  0  0  0  0  0
    5.7101   -4.5000    0.0000 H   0  0  0  0  0  0  0  0  0  0  0  0
    6.3301   -5.1200    0.0000 H   0  0  0  0  0  0  0  0  0  0  0  0
    6.9501   -4.5000    0.0000 H   0  0  0  0  0  0  0  0  0  0  0  0
    5.3301   -2.8800    0.0000 H   0  0  0  0  0  0  0  0  0  0  0  0
    4.7101   -3.5000    0.0000 H   0  0  0  0  0  0  0  0  0  0  0  0
    5.3301   -4.1200    0.0000 H   0  0  0  0  0  0  0  0  0  0  0  0
    7.3301   -4.1200    0.0000 H   0  0  0  0  0  0  0  0  0  0  0  0
    7.9501   -3.5000    0.0000 H   0  0  0  0  0  0  0  0  0  0  0  0
    7.3301   -2.8800    0.0000 H   0  0  0  0  0  0  0  0  0  0  0  0
    8.9282   -1.3800    0.0000 H   0  0  0  0  0  0  0  0  0  0  0  0
    7.5252   -3.8100    0.0000 H   0  0  0  0  0  0  0  0  0  0  0  0
    5.7932   -0.8100    0.0000 H   0  0  0  0  0  0  0  0  0  0  0  0
   10.3312   -3.8100    0.0000 H   0  0  0  0  0  0  0  0  0  0  0  0
   12.0823   -3.5369    0.0000 H   0  0  0  0  0  0  0  0  0  0  0  0
   12.9292   -3.3100    0.0000 H   0  0  0  0  0  0  0  0  0  0  0  0
   12.7023   -2.4631    0.0000 H   0  0  0  0  0  0  0  0  0  0  0  0
   12.5632   -1.9440    0.0000 H   0  0  0  0  0  0  0  0  0  0  0  0
   12.3363   -1.0970    0.0000 H   0  0  0  0  0  0  0  0  0  0  0  0
   11.4893   -1.3240    0.0000 H   0  0  0  0  0  0  0  0  0  0  0  0
   10.4893   -3.0560    0.0000 H   0  0  0  0  0  0  0  0  0  0  0  0
   10.7163   -3.9030    0.0000 H   0  0  0  0  0  0  0  0  0  0  0  0
   11.5632   -3.6760    0.0000 H   0  0  0  0  0  0  0  0  0  0  0  0
    8.9282   -4.6200    0.0000 H   0  0  0  0  0  0  0  0  0  0  0  0
    4.5981   -0.1200    0.0000 H   0  0  0  0  0  0  0  0  0  0  0  0
    6.0010    2.3100    0.0000 H   0  0  0  0  0  0  0  0  0  0  0  0
    3.1951    2.3100    0.0000 H   0  0  0  0  0  0  0  0  0  0  0  0
  1  9  1  0  0  0  0
  1 16  1  0  0  0  0
  1 17  1  0  0  0  0
  1 18  1  0  0  0  0
  2 10  1  0  0  0  0
  2 24  1  0  0  0  0
  2 25  1  0  0  0  0
  2 26  1  0  0  0  0
  3 34  1  0  0  0  0
  4 34  1  0  0  0  0
  5 34  1  0  0  0  0
  6 35  1  0  0  0  0
  7 35  1  0  0  0  0
  8 35  1  0  0  0  0
  9 13  1  0  0  0  0
 10 20  1  0  0  0  0
 11 27  2  0  0  0  0
 12 15  1  0  0  0  0
 12 27  1  0  0  0  0
 12 50  1  0  0  0  0
 13 14  1  0  0  0  0
 13 15  1  0  0  0  0
 13 36  1  0  0  0  0
 14 19  2  0  0  0  0
 14 21  1  0  0  0  0
 15 37  1  0  0  0  0
 15 38  1  0  0  0  0
 16 39  1  0  0  0  0
 16 40  1  0  0  0  0
 16 41  1  0  0  0  0
 17 42  1  0  0  0  0
 17 43  1  0  0  0  0
 17 44  1  0  0  0  0
 18 45  1  0  0  0  0
 18 46  1  0  0  0  0
 18 47  1  0  0  0  0
 19 20  1  0  0  0  0
 19 48  1  0  0  0  0
 20 22  2  0  0  0  0
 21 23  2  0  0  0  0
 21 49  1  0  0  0  0
 22 23  1  0  0  0  0
 22 51  1  0  0  0  0
 23 61  1  0  0  0  0
 24 52  1  0  0  0  0
 24 53  1  0  0  0  0
 24 54  1  0  0  0  0
 25 55  1  0  0  0  0
 25 56  1  0  0  0  0
 25 57  1  0  0  0  0
 26 58  1  0  0  0  0
 26 59  1  0  0  0  0
 26 60  1  0  0  0  0
 27 28  1  0  0  0  0
 28 29  2  0  0  0  0
 28 30  1  0  0  0  0
 29 31  1  0  0  0  0
 29 62  1  0  0  0  0
 30 32  2  0  0  0  0
 30 63  1  0  0  0  0
 31 33  2  0  0  0  0
 31 35  1  0  0  0  0
 32 33  1  0  0  0  0
 32 34  1  0  0  0  0
 33 64  1  0  0  0  0
M  END
> <PUBCHEM_COMPOUND_CID>
526014
> <PUBCHEM_COMPOUND_CANONICALIZED>
1
> <PUBCHEM_CACTVS_COMPLEXITY>
683
> <PUBCHEM_CACTVS_HBOND_ACCEPTOR>
9
> <PUBCHEM_CACTVS_HBOND_DONOR>
1
> <PUBCHEM_CACTVS_ROTATABLE_BOND>
8
> <PUBCHEM_CACTVS_SUBSKEYS>
AAADceB6McwAAAAAAAAAAAAAAAAAAAAAAAAwYAAAAAAAAAABQAAAHxAQAEAADBThmBZyBoLAAAGIAiFSEACCAAAkIAAIiIEODMgKJjKAlROEMQhk1hGYiYfY2PKOAAADAAAAAAAAAAYAAAAAAAAAAAAAAA==
> <PUBCHEM_IUPAC_OPENEYE_NAME>
3,5-bis(trifluoromethyl)-N-[2-trimethylsilyloxy-2-(3-trimethylsilyloxyphenyl)ethyl]benzamide
> <PUBCHEM_IUPAC_CAS_NAME>
3,5-bis(trifluoromethyl)-N-[2-trimethylsilyloxy-2-(3-trimethylsilyloxyphenyl)ethyl]benzamide
> <PUBCHEM_IUPAC_NAME_MARKUP>
3,5-bis(trifluoromethyl)-<I>N</I>-[2-trimethylsilyloxy-2-(3-trimethylsilyloxyphenyl)ethyl]benzamide
> <PUBCHEM_IUPAC_NAME>
3,5-bis(trifluoromethyl)-N-[2-trimethylsilyloxy-2-(3-trimethylsilyloxyphenyl)ethyl]benzamide
> <PUBCHEM_IUPAC_SYSTEMATIC_NAME>
3,5-bis(trifluoromethyl)-N-[2-trimethylsilyloxy-2-(3-trimethylsilyloxyphenyl)ethyl]benzamide
> <PUBCHEM_IUPAC_TRADITIONAL_NAME>
3,5-bis(trifluoromethyl)-N-[2-trimethylsilyloxy-2-(3-trimethylsilyloxyphenyl)ethyl]benzamide
> <PUBCHEM_IUPAC_INCHI>
InChI=1S/C23H29F6NO3Si2/c1-34(2,3)32-19-9-7-8-15(12-19)20(33-35(4,5)6)14-30-21(31)16-10-17(22(24,25)26)13-18(11-16)23(27,28)29/h7-13,20H,14H2,1-6H3,(H,30,31)
> <PUBCHEM_IUPAC_INCHIKEY>
TXMHBEXMPLFNAE-UHFFFAOYSA-N
> <PUBCHEM_EXACT_MASS>
537.15901583
> <PUBCHEM_MOLECULAR_FORMULA>
C23H29F6NO3Si2
> <PUBCHEM_MOLECULAR_WEIGHT>
537.6
> <PUBCHEM_OPENEYE_CAN_SMILES>
C[Si](C)(C)OC1=CC=CC(=C1)C(CNC(=O)C2=CC(=CC(=C2)C(F)(F)F)C(F)(F)F)O[Si](C)(C)C
> <PUBCHEM_OPENEYE_ISO_SMILES>
C[Si](C)(C)OC1=CC=CC(=C1)C(CNC(=O)C2=CC(=CC(=C2)C(F)(F)F)C(F)(F)F)O[Si](C)(C)C
> <PUBCHEM_CACTVS_TPSA>
47.6
> <PUBCHEM_MONOISOTOPIC_WEIGHT>
537.15901583
> <PUBCHEM_TOTAL_CHARGE>
0
> <PUBCHEM_HEAVY_ATOM_COUNT>
35
> <PUBCHEM_ATOM_DEF_STEREO_COUNT>
0
> <PUBCHEM_ATOM_UDEF_STEREO_COUNT>
1
> <PUBCHEM_BOND_DEF_STEREO_COUNT>
0
> <PUBCHEM_BOND_UDEF_STEREO_COUNT>
0
> <PUBCHEM_ISOTOPIC_ATOM_COUNT>
0
> <PUBCHEM_COMPONENT_COUNT>
1
> <PUBCHEM_CACTVS_TAUTO_COUNT>
-1
> <PUBCHEM_COORDINATE_TYPE>
1
5
255
> <PUBCHEM_BONDANNOTATIONS>
13  15  3
14  19  8
14  21  8
19  20  8
20  22  8
21  23  8
22  23  8
28  29  8
28  30  8
29  31  8
30  32  8
31  33  8
32  33  8
$$$$
