526000
  -OEChem-10302200292D
102105  0     1  0  0  0  0  0999 V2000
   15.8563   -2.5030    0.0000 O   0  0  0  0  0  0  0  0  0  0  0  0
   21.8384    2.5489    0.0000 O   0  0  0  0  0  0  0  0  0  0  0  0
   14.9961   -0.9997    0.0000 O   0  0  0  0  0  0  0  0  0  0  0  0
   21.2494    0.5493    0.0000 C   0  0  3  0  0  0  0  0  0  0  0  0
   21.2494   -0.4507    0.0000 C   0  0  3  0  0  0  0  0  0  0  0  0
   20.3834   -0.9507    0.0000 C   0  0  3  0  0  0  0  0  0  0  0  0
   19.5173   -0.4507    0.0000 C   0  0  3  0  0  0  0  0  0  0  0  0
   18.6073   -0.9575    0.0000 C   0  0  3  0  0  0  0  0  0  0  0  0
   22.1956    0.8540    0.0000 C   0  0  3  0  0  0  0  0  0  0  0  0
   20.3834    1.0493    0.0000 C   0  0  0  0  0  0  0  0  0  0  0  0
   19.5173    0.5493    0.0000 C   0  0  0  0  0  0  0  0  0  0  0  0
   22.1956   -0.7554    0.0000 C   0  0  0  0  0  0  0  0  0  0  0  0
   22.7792    0.0493    0.0000 C   0  0  0  0  0  0  0  0  0  0  0  0
   20.3994   -1.9922    0.0000 C   0  0  0  0  0  0  0  0  0  0  0  0
   18.5993   -1.9991    0.0000 C   0  0  0  0  0  0  0  0  0  0  0  0
   21.2494    1.5493    0.0000 C   0  0  0  0  0  0  0  0  0  0  0  0
   17.6805   -0.3935    0.0000 C   0  0  0  0  0  0  0  0  0  0  0  0
   19.5014   -2.5200    0.0000 C   0  0  0  0  0  0  0  0  0  0  0  0
   18.6150    0.0424    0.0000 C   0  0  0  0  0  0  0  0  0  0  0  0
   17.6639   -2.5489    0.0000 C   0  0  0  0  0  0  0  0  0  0  0  0
   22.5063    1.8046    0.0000 C   0  0  0  0  0  0  0  0  0  0  0  0
   16.7326   -0.9214    0.0000 C   0  0  0  0  0  0  0  0  0  0  0  0
   16.7242   -2.0064    0.0000 C   0  0  3  0  0  0  0  0  0  0  0  0
   23.4848    2.0108    0.0000 C   0  0  0  0  0  0  0  0  0  0  0  0
   14.9922   -1.9997    0.0000 C   0  0  0  0  0  0  0  0  0  0  0  0
   14.1243   -2.4964    0.0000 C   0  0  0  0  0  0  0  0  0  0  0  0
   13.2602   -1.9930    0.0000 C   0  0  0  0  0  0  0  0  0  0  0  0
   12.3922   -2.4897    0.0000 C   0  0  0  0  0  0  0  0  0  0  0  0
   11.5281   -1.9863    0.0000 C   0  0  0  0  0  0  0  0  0  0  0  0
   10.6602   -2.4830    0.0000 C   0  0  0  0  0  0  0  0  0  0  0  0
    9.7961   -1.9797    0.0000 C   0  0  0  0  0  0  0  0  0  0  0  0
    8.9282   -2.4763    0.0000 C   0  0  0  0  0  0  0  0  0  0  0  0
    8.0641   -1.9730    0.0000 C   0  0  0  0  0  0  0  0  0  0  0  0
    7.1961   -2.4696    0.0000 C   0  0  0  0  0  0  0  0  0  0  0  0
    6.3320   -1.9663    0.0000 C   0  0  0  0  0  0  0  0  0  0  0  0
    5.4641   -2.4630    0.0000 C   0  0  0  0  0  0  0  0  0  0  0  0
    4.6000   -1.9596    0.0000 C   0  0  0  0  0  0  0  0  0  0  0  0
    3.7320   -2.4563    0.0000 C   0  0  0  0  0  0  0  0  0  0  0  0
    2.8680   -1.9530    0.0000 C   0  0  0  0  0  0  0  0  0  0  0  0
    2.0000   -2.4496    0.0000 C   0  0  0  0  0  0  0  0  0  0  0  0
   21.3150   -1.0672    0.0000 H   0  0  0  0  0  0  0  0  0  0  0  0
   20.9227   -1.2565    0.0000 H   0  0  0  0  0  0  0  0  0  0  0  0
   20.0543   -0.1407    0.0000 H   0  0  0  0  0  0  0  0  0  0  0  0
   22.8081    0.9502    0.0000 H   0  0  0  0  0  0  0  0  0  0  0  0
   20.7819    1.5243    0.0000 H   0  0  0  0  0  0  0  0  0  0  0  0
   19.9848    1.5243    0.0000 H   0  0  0  0  0  0  0  0  0  0  0  0
   19.3053    1.1319    0.0000 H   0  0  0  0  0  0  0  0  0  0  0  0
   18.9068    0.4416    0.0000 H   0  0  0  0  0  0  0  0  0  0  0  0
   21.9446   -1.3223    0.0000 H   0  0  0  0  0  0  0  0  0  0  0  0
   22.7330   -1.0647    0.0000 H   0  0  0  0  0  0  0  0  0  0  0  0
   23.2401   -0.3654    0.0000 H   0  0  0  0  0  0  0  0  0  0  0  0
   23.2401    0.4640    0.0000 H   0  0  0  0  0  0  0  0  0  0  0  0
   20.6175   -2.5726    0.0000 H   0  0  0  0  0  0  0  0  0  0  0  0
   21.0086   -1.8767    0.0000 H   0  0  0  0  0  0  0  0  0  0  0  0
   21.8694    1.5493    0.0000 H   0  0  0  0  0  0  0  0  0  0  0  0
   21.2494    2.1693    0.0000 H   0  0  0  0  0  0  0  0  0  0  0  0
   20.6294    1.5493    0.0000 H   0  0  0  0  0  0  0  0  0  0  0  0
   18.0887    0.0732    0.0000 H   0  0  0  0  0  0  0  0  0  0  0  0
   17.2906    0.0886    0.0000 H   0  0  0  0  0  0  0  0  0  0  0  0
   19.5038   -3.1399    0.0000 H   0  0  0  0  0  0  0  0  0  0  0  0
   19.2350    0.0377    0.0000 H   0  0  0  0  0  0  0  0  0  0  0  0
   18.6198    0.6624    0.0000 H   0  0  0  0  0  0  0  0  0  0  0  0
   17.9951    0.0472    0.0000 H   0  0  0  0  0  0  0  0  0  0  0  0
   17.2666   -3.0248    0.0000 H   0  0  0  0  0  0  0  0  0  0  0  0
   18.0648   -3.0218    0.0000 H   0  0  0  0  0  0  0  0  0  0  0  0
   16.5281   -0.3361    0.0000 H   0  0  0  0  0  0  0  0  0  0  0  0
   16.1210   -1.0228    0.0000 H   0  0  0  0  0  0  0  0  0  0  0  0
   16.1891   -1.6933    0.0000 H   0  0  0  0  0  0  0  0  0  0  0  0
   23.6126    1.4041    0.0000 H   0  0  0  0  0  0  0  0  0  0  0  0
   24.0914    2.1386    0.0000 H   0  0  0  0  0  0  0  0  0  0  0  0
   23.3569    2.6174    0.0000 H   0  0  0  0  0  0  0  0  0  0  0  0
   13.7239   -2.9698    0.0000 H   0  0  0  0  0  0  0  0  0  0  0  0
   14.5210   -2.9728    0.0000 H   0  0  0  0  0  0  0  0  0  0  0  0
   13.6605   -1.5196    0.0000 H   0  0  0  0  0  0  0  0  0  0  0  0
   12.8635   -1.5165    0.0000 H   0  0  0  0  0  0  0  0  0  0  0  0
   11.9919   -2.9631    0.0000 H   0  0  0  0  0  0  0  0  0  0  0  0
   12.7889   -2.9662    0.0000 H   0  0  0  0  0  0  0  0  0  0  0  0
   11.9285   -1.5129    0.0000 H   0  0  0  0  0  0  0  0  0  0  0  0
   11.1314   -1.5099    0.0000 H   0  0  0  0  0  0  0  0  0  0  0  0
   10.2598   -2.9564    0.0000 H   0  0  0  0  0  0  0  0  0  0  0  0
   11.0569   -2.9595    0.0000 H   0  0  0  0  0  0  0  0  0  0  0  0
   10.1965   -1.5062    0.0000 H   0  0  0  0  0  0  0  0  0  0  0  0
    9.3994   -1.5032    0.0000 H   0  0  0  0  0  0  0  0  0  0  0  0
    8.5278   -2.9497    0.0000 H   0  0  0  0  0  0  0  0  0  0  0  0
    9.3248   -2.9528    0.0000 H   0  0  0  0  0  0  0  0  0  0  0  0
    8.4644   -1.4996    0.0000 H   0  0  0  0  0  0  0  0  0  0  0  0
    7.6674   -1.4965    0.0000 H   0  0  0  0  0  0  0  0  0  0  0  0
    6.7958   -2.9430    0.0000 H   0  0  0  0  0  0  0  0  0  0  0  0
    7.5928   -2.9461    0.0000 H   0  0  0  0  0  0  0  0  0  0  0  0
    6.7324   -1.4929    0.0000 H   0  0  0  0  0  0  0  0  0  0  0  0
    5.9353   -1.4898    0.0000 H   0  0  0  0  0  0  0  0  0  0  0  0
    5.0637   -2.9364    0.0000 H   0  0  0  0  0  0  0  0  0  0  0  0
    5.8608   -2.9394    0.0000 H   0  0  0  0  0  0  0  0  0  0  0  0
    5.0003   -1.4862    0.0000 H   0  0  0  0  0  0  0  0  0  0  0  0
    4.2033   -1.4832    0.0000 H   0  0  0  0  0  0  0  0  0  0  0  0
    3.3317   -2.9297    0.0000 H   0  0  0  0  0  0  0  0  0  0  0  0
    4.1287   -2.9328    0.0000 H   0  0  0  0  0  0  0  0  0  0  0  0
    3.2683   -1.4796    0.0000 H   0  0  0  0  0  0  0  0  0  0  0  0
    2.4712   -1.4765    0.0000 H   0  0  0  0  0  0  0  0  0  0  0  0
    1.6921   -1.9115    0.0000 H   0  0  0  0  0  0  0  0  0  0  0  0
    1.4619   -2.7575    0.0000 H   0  0  0  0  0  0  0  0  0  0  0  0
    2.3079   -2.9877    0.0000 H   0  0  0  0  0  0  0  0  0  0  0  0
  1 23  1  0  0  0  0
  1 25  1  0  0  0  0
  2 21  2  0  0  0  0
  3 25  2  0  0  0  0
  4  5  1  0  0  0  0
  4  9  1  0  0  0  0
  4 10  1  0  0  0  0
  4 16  1  0  0  0  0
  5  6  1  0  0  0  0
  5 12  1  0  0  0  0
  5 41  1  0  0  0  0
  6  7  1  0  0  0  0
  6 14  1  0  0  0  0
  6 42  1  0  0  0  0
  7  8  1  0  0  0  0
  7 11  1  0  0  0  0
  7 43  1  0  0  0  0
  8 15  1  0  0  0  0
  8 17  1  0  0  0  0
  8 19  1  0  0  0  0
  9 13  1  0  0  0  0
  9 21  1  0  0  0  0
  9 44  1  0  0  0  0
 10 11  1  0  0  0  0
 10 45  1  0  0  0  0
 10 46  1  0  0  0  0
 11 47  1  0  0  0  0
 11 48  1  0  0  0  0
 12 13  1  0  0  0  0
 12 49  1  0  0  0  0
 12 50  1  0  0  0  0
 13 51  1  0  0  0  0
 13 52  1  0  0  0  0
 14 18  1  0  0  0  0
 14 53  1  0  0  0  0
 14 54  1  0  0  0  0
 15 18  2  0  0  0  0
 15 20  1  0  0  0  0
 16 55  1  0  0  0  0
 16 56  1  0  0  0  0
 16 57  1  0  0  0  0
 17 22  1  0  0  0  0
 17 58  1  0  0  0  0
 17 59  1  0  0  0  0
 18 60  1  0  0  0  0
 19 61  1  0  0  0  0
 19 62  1  0  0  0  0
 19 63  1  0  0  0  0
 20 23  1  0  0  0  0
 20 64  1  0  0  0  0
 20 65  1  0  0  0  0
 21 24  1  0  0  0  0
 22 23  1  0  0  0  0
 22 66  1  0  0  0  0
 22 67  1  0  0  0  0
 23 68  1  0  0  0  0
 24 69  1  0  0  0  0
 24 70  1  0  0  0  0
 24 71  1  0  0  0  0
 25 26  1  0  0  0  0
 26 27  1  0  0  0  0
 26 72  1  0  0  0  0
 26 73  1  0  0  0  0
 27 28  1  0  0  0  0
 27 74  1  0  0  0  0
 27 75  1  0  0  0  0
 28 29  1  0  0  0  0
 28 76  1  0  0  0  0
 28 77  1  0  0  0  0
 29 30  1  0  0  0  0
 29 78  1  0  0  0  0
 29 79  1  0  0  0  0
 30 31  1  0  0  0  0
 30 80  1  0  0  0  0
 30 81  1  0  0  0  0
 31 32  1  0  0  0  0
 31 82  1  0  0  0  0
 31 83  1  0  0  0  0
 32 33  1  0  0  0  0
 32 84  1  0  0  0  0
 32 85  1  0  0  0  0
 33 34  1  0  0  0  0
 33 86  1  0  0  0  0
 33 87  1  0  0  0  0
 34 35  1  0  0  0  0
 34 88  1  0  0  0  0
 34 89  1  0  0  0  0
 35 36  1  0  0  0  0
 35 90  1  0  0  0  0
 35 91  1  0  0  0  0
 36 37  1  0  0  0  0
 36 92  1  0  0  0  0
 36 93  1  0  0  0  0
 37 38  1  0  0  0  0
 37 94  1  0  0  0  0
 37 95  1  0  0  0  0
 38 39  1  0  0  0  0
 38 96  1  0  0  0  0
 38 97  1  0  0  0  0
 39 40  1  0  0  0  0
 39 98  1  0  0  0  0
 39 99  1  0  0  0  0
 40100  1  0  0  0  0
 40101  1  0  0  0  0
 40102  1  0  0  0  0
M  END
> <PUBCHEM_COMPOUND_CID>
526000
> <PUBCHEM_COMPOUND_CANONICALIZED>
1
> <PUBCHEM_CACTVS_COMPLEXITY>
860
> <PUBCHEM_CACTVS_HBOND_ACCEPTOR>
3
> <PUBCHEM_CACTVS_HBOND_DONOR>
0
> <PUBCHEM_CACTVS_ROTATABLE_BOND>
17
> <PUBCHEM_CACTVS_SUBSKEYS>
AAADcfB8MAAAAAAAAAAAAAAAAAAAAYAAAAAwYIAAAAAAAGCAAAAAGgAAAAAADxSggAICCAAABACIAqDSCAAAAAAgAAAACAEAAAgAABIAAQACAAAEwAAIAAOIyPCPgAAAAAAAAADAAAQAACAAAQAACAAAAA==
> <PUBCHEM_IUPAC_OPENEYE_NAME>
(17-acetyl-10,13-dimethyl-2,3,4,7,8,9,11,12,14,15,16,17-dodecahydro-1H-cyclopenta[a]phenanthren-3-yl) hexadecanoate
> <PUBCHEM_IUPAC_CAS_NAME>
hexadecanoic acid (17-acetyl-10,13-dimethyl-2,3,4,7,8,9,11,12,14,15,16,17-dodecahydro-1H-cyclopenta[a]phenanthren-3-yl) ester
> <PUBCHEM_IUPAC_NAME_MARKUP>
(17-acetyl-10,13-dimethyl-2,3,4,7,8,9,11,12,14,15,16,17-dodecahydro-1<I>H</I>-cyclopenta[a]phenanthren-3-yl) hexadecanoate
> <PUBCHEM_IUPAC_NAME>
(17-acetyl-10,13-dimethyl-2,3,4,7,8,9,11,12,14,15,16,17-dodecahydro-1H-cyclopenta[a]phenanthren-3-yl) hexadecanoate
> <PUBCHEM_IUPAC_SYSTEMATIC_NAME>
(17-ethanoyl-10,13-dimethyl-2,3,4,7,8,9,11,12,14,15,16,17-dodecahydro-1H-cyclopenta[a]phenanthren-3-yl) hexadecanoate
> <PUBCHEM_IUPAC_TRADITIONAL_NAME>
palmitic acid (17-acetyl-10,13-dimethyl-2,3,4,7,8,9,11,12,14,15,16,17-dodecahydro-1H-cyclopenta[a]phenanthren-3-yl) ester
> <PUBCHEM_IUPAC_INCHI>
InChI=1S/C37H62O3/c1-5-6-7-8-9-10-11-12-13-14-15-16-17-18-35(39)40-30-23-25-36(3)29(27-30)19-20-31-33-22-21-32(28(2)38)37(33,4)26-24-34(31)36/h19,30-34H,5-18,20-27H2,1-4H3
> <PUBCHEM_IUPAC_INCHIKEY>
FOZPTVPLEKIYFC-UHFFFAOYSA-N
> <PUBCHEM_XLOGP3>
12.1
> <PUBCHEM_EXACT_MASS>
554.46989584
> <PUBCHEM_MOLECULAR_FORMULA>
C37H62O3
> <PUBCHEM_MOLECULAR_WEIGHT>
554.9
> <PUBCHEM_OPENEYE_CAN_SMILES>
CCCCCCCCCCCCCCCC(=O)OC1CCC2(C3CCC4(C(C3CC=C2C1)CCC4C(=O)C)C)C
> <PUBCHEM_OPENEYE_ISO_SMILES>
CCCCCCCCCCCCCCCC(=O)OC1CCC2(C3CCC4(C(C3CC=C2C1)CCC4C(=O)C)C)C
> <PUBCHEM_CACTVS_TPSA>
43.4
> <PUBCHEM_MONOISOTOPIC_WEIGHT>
554.46989584
> <PUBCHEM_TOTAL_CHARGE>
0
> <PUBCHEM_HEAVY_ATOM_COUNT>
40
> <PUBCHEM_ATOM_DEF_STEREO_COUNT>
0
> <PUBCHEM_ATOM_UDEF_STEREO_COUNT>
7
> <PUBCHEM_BOND_DEF_STEREO_COUNT>
0
> <PUBCHEM_BOND_UDEF_STEREO_COUNT>
0
> <PUBCHEM_ISOTOPIC_ATOM_COUNT>
0
> <PUBCHEM_COMPONENT_COUNT>
1
> <PUBCHEM_CACTVS_TAUTO_COUNT>
-1
> <PUBCHEM_COORDINATE_TYPE>
1
5
255
> <PUBCHEM_BONDANNOTATIONS>
23  1  3
4  16  3
5  12  3
6  14  3
7  11  3
8  19  3
9  21  3
$$$$
