526004
  -OEChem-10302200292D
 30 30  0     1  0  0  0  0  0999 V2000
    7.9575    0.2824    0.0000 Si  0  0  0  0  0  0  0  0  0  0  0  0
    3.7601   -1.0256    0.0000 O   0  0  0  0  0  0  0  0  0  0  0  0
    7.2144   -0.3867    0.0000 O   0  0  0  0  0  0  0  0  0  0  0  0
    2.0000   -0.7468    0.0000 O   0  0  0  0  0  0  0  0  0  0  0  0
    6.0554    0.9005    0.0000 O   0  0  0  0  0  0  0  0  0  0  0  0
    4.5691   -0.4378    0.0000 C   0  0  3  0  0  0  0  0  0  0  0  0
    4.2601    0.5133    0.0000 C   0  0  0  0  0  0  0  0  0  0  0  0
    5.5202   -0.7468    0.0000 C   0  0  0  0  0  0  0  0  0  0  0  0
    3.2601    0.5133    0.0000 C   0  0  0  0  0  0  0  0  0  0  0  0
    2.9511   -0.4378    0.0000 C   0  0  0  0  0  0  0  0  0  0  0  0
    6.2633   -0.0777    0.0000 C   0  0  0  0  0  0  0  0  0  0  0  0
    8.7006    0.9516    0.0000 C   0  0  0  0  0  0  0  0  0  0  0  0
    8.6266   -0.4607    0.0000 C   0  0  0  0  0  0  0  0  0  0  0  0
    7.2884    1.0256    0.0000 C   0  0  0  0  0  0  0  0  0  0  0  0
    4.6661   -1.0502    0.0000 H   0  0  0  0  0  0  0  0  0  0  0  0
    4.8665    0.6422    0.0000 H   0  0  0  0  0  0  0  0  0  0  0  0
    4.1953    1.1299    0.0000 H   0  0  0  0  0  0  0  0  0  0  0  0
    5.2291   -1.2942    0.0000 H   0  0  0  0  0  0  0  0  0  0  0  0
    6.0087   -1.1285    0.0000 H   0  0  0  0  0  0  0  0  0  0  0  0
    3.3249    1.1299    0.0000 H   0  0  0  0  0  0  0  0  0  0  0  0
    2.6536    0.6422    0.0000 H   0  0  0  0  0  0  0  0  0  0  0  0
    9.1155    0.4908    0.0000 H   0  0  0  0  0  0  0  0  0  0  0  0
    9.1614    1.3664    0.0000 H   0  0  0  0  0  0  0  0  0  0  0  0
    8.2858    1.4123    0.0000 H   0  0  0  0  0  0  0  0  0  0  0  0
    8.1659   -0.8756    0.0000 H   0  0  0  0  0  0  0  0  0  0  0  0
    9.0415   -0.9215    0.0000 H   0  0  0  0  0  0  0  0  0  0  0  0
    9.0874   -0.0458    0.0000 H   0  0  0  0  0  0  0  0  0  0  0  0
    7.7491    1.4404    0.0000 H   0  0  0  0  0  0  0  0  0  0  0  0
    6.8735    1.4863    0.0000 H   0  0  0  0  0  0  0  0  0  0  0  0
    6.8276    0.6107    0.0000 H   0  0  0  0  0  0  0  0  0  0  0  0
  1  3  1  0  0  0  0
  1 12  1  0  0  0  0
  1 13  1  0  0  0  0
  1 14  1  0  0  0  0
  2  6  1  0  0  0  0
  2 10  1  0  0  0  0
  3 11  1  0  0  0  0
  4 10  2  0  0  0  0
  5 11  2  0  0  0  0
  6  7  1  0  0  0  0
  6  8  1  0  0  0  0
  6 15  1  0  0  0  0
  7  9  1  0  0  0  0
  7 16  1  0  0  0  0
  7 17  1  0  0  0  0
  8 11  1  0  0  0  0
  8 18  1  0  0  0  0
  8 19  1  0  0  0  0
  9 10  1  0  0  0  0
  9 20  1  0  0  0  0
  9 21  1  0  0  0  0
 12 22  1  0  0  0  0
 12 23  1  0  0  0  0
 12 24  1  0  0  0  0
 13 25  1  0  0  0  0
 13 26  1  0  0  0  0
 13 27  1  0  0  0  0
 14 28  1  0  0  0  0
 14 29  1  0  0  0  0
 14 30  1  0  0  0  0
M  END
> <PUBCHEM_COMPOUND_CID>
526004
> <PUBCHEM_COMPOUND_CANONICALIZED>
1
> <PUBCHEM_CACTVS_COMPLEXITY>
244
> <PUBCHEM_CACTVS_HBOND_ACCEPTOR>
4
> <PUBCHEM_CACTVS_HBOND_DONOR>
0
> <PUBCHEM_CACTVS_ROTATABLE_BOND>
4
> <PUBCHEM_CACTVS_SUBSKEYS>
AAADceBwOAgAAAAAAAAAAAAAAAAAASAAAAAAAAAAAAAAAAAAAAAAGhAAAEAACBSggAJCCAAABAEIAACQCAAAAAAAAAAAAAEAAAAAABYAAAACAAAFIAAAAAGKSAAAAAAAAAAAAAAAAAAAAAAAAAAAAAAAAA==
> <PUBCHEM_IUPAC_OPENEYE_NAME>
trimethylsilyl 2-(5-oxotetrahydrofuran-2-yl)acetate
> <PUBCHEM_IUPAC_CAS_NAME>
2-(5-oxo-2-oxolanyl)acetic acid trimethylsilyl ester
> <PUBCHEM_IUPAC_NAME_MARKUP>
trimethylsilyl 2-(5-oxooxolan-2-yl)acetate
> <PUBCHEM_IUPAC_NAME>
trimethylsilyl 2-(5-oxooxolan-2-yl)acetate
> <PUBCHEM_IUPAC_SYSTEMATIC_NAME>
trimethylsilyl 2-(5-oxidanylideneoxolan-2-yl)ethanoate
> <PUBCHEM_IUPAC_TRADITIONAL_NAME>
2-(5-ketotetrahydrofuran-2-yl)acetic acid trimethylsilyl ester
> <PUBCHEM_IUPAC_INCHI>
InChI=1S/C9H16O4Si/c1-14(2,3)13-9(11)6-7-4-5-8(10)12-7/h7H,4-6H2,1-3H3
> <PUBCHEM_IUPAC_INCHIKEY>
RASUFFJSOATALI-UHFFFAOYSA-N
> <PUBCHEM_EXACT_MASS>
216.08178552
> <PUBCHEM_MOLECULAR_FORMULA>
C9H16O4Si
> <PUBCHEM_MOLECULAR_WEIGHT>
216.31
> <PUBCHEM_OPENEYE_CAN_SMILES>
C[Si](C)(C)OC(=O)CC1CCC(=O)O1
> <PUBCHEM_OPENEYE_ISO_SMILES>
C[Si](C)(C)OC(=O)CC1CCC(=O)O1
> <PUBCHEM_CACTVS_TPSA>
52.6
> <PUBCHEM_MONOISOTOPIC_WEIGHT>
216.08178552
> <PUBCHEM_TOTAL_CHARGE>
0
> <PUBCHEM_HEAVY_ATOM_COUNT>
14
> <PUBCHEM_ATOM_DEF_STEREO_COUNT>
0
> <PUBCHEM_ATOM_UDEF_STEREO_COUNT>
1
> <PUBCHEM_BOND_DEF_STEREO_COUNT>
0
> <PUBCHEM_BOND_UDEF_STEREO_COUNT>
0
> <PUBCHEM_ISOTOPIC_ATOM_COUNT>
0
> <PUBCHEM_COMPONENT_COUNT>
1
> <PUBCHEM_CACTVS_TAUTO_COUNT>
-1
> <PUBCHEM_COORDINATE_TYPE>
1
5
255
> <PUBCHEM_BONDANNOTATIONS>
6  8  3
$$$$
