526010
  -OEChem-10302200292D
 63 63  0     1  0  0  0  0  0999 V2000
    9.9282    1.5000    0.0000 F   0  0  0  0  0  0  0  0  0  0  0  0
    7.9282    1.5000    0.0000 F   0  0  0  0  0  0  0  0  0  0  0  0
    9.9282    2.5000    0.0000 F   0  0  0  0  0  0  0  0  0  0  0  0
    7.9282    2.5000    0.0000 F   0  0  0  0  0  0  0  0  0  0  0  0
    5.0981    2.8660    0.0000 F   0  0  0  0  0  0  0  0  0  0  0  0
    4.0981    1.1340    0.0000 F   0  0  0  0  0  0  0  0  0  0  0  0
    8.9282    4.5000    0.0000 F   0  0  0  0  0  0  0  0  0  0  0  0
    9.9282    3.5000    0.0000 F   0  0  0  0  0  0  0  0  0  0  0  0
    7.9282    3.5000    0.0000 F   0  0  0  0  0  0  0  0  0  0  0  0
    3.2320    1.6340    0.0000 F   0  0  0  0  0  0  0  0  0  0  0  0
    4.2320    3.3660    0.0000 F   0  0  0  0  0  0  0  0  0  0  0  0
    2.0000    3.5000    0.0000 F   0  0  0  0  0  0  0  0  0  0  0  0
    3.3660    3.8660    0.0000 F   0  0  0  0  0  0  0  0  0  0  0  0
    2.3660    2.1340    0.0000 F   0  0  0  0  0  0  0  0  0  0  0  0
    5.4641    0.5000    0.0000 O   0  0  0  0  0  0  0  0  0  0  0  0
    5.4641   -1.5000    0.0000 O   0  0  0  0  0  0  0  0  0  0  0  0
    9.7942    0.0000    0.0000 O   0  0  0  0  0  0  0  0  0  0  0  0
    6.3301    2.0000    0.0000 O   0  0  0  0  0  0  0  0  0  0  0  0
    8.0622    0.0000    0.0000 N   0  0  0  0  0  0  0  0  0  0  0  0
    7.1962    0.5000    0.0000 C   0  0  0  0  0  0  0  0  0  0  0  0
    8.0622   -1.0000    0.0000 C   0  0  0  0  0  0  0  0  0  0  0  0
    6.3301    0.0000    0.0000 C   0  0  3  0  0  0  0  0  0  0  0  0
    8.9282    0.5000    0.0000 C   0  0  0  0  0  0  0  0  0  0  0  0
    6.3301   -1.0000    0.0000 C   0  0  0  0  0  0  0  0  0  0  0  0
    8.9282   -1.5000    0.0000 C   0  0  0  0  0  0  0  0  0  0  0  0
    7.1962   -1.5000    0.0000 C   0  0  0  0  0  0  0  0  0  0  0  0
    8.9282    1.5000    0.0000 C   0  0  0  0  0  0  0  0  0  0  0  0
    8.9282    2.5000    0.0000 C   0  0  0  0  0  0  0  0  0  0  0  0
    5.4641    1.5000    0.0000 C   0  0  0  0  0  0  0  0  0  0  0  0
    4.5981    2.0000    0.0000 C   0  0  0  0  0  0  0  0  0  0  0  0
    8.9282    3.5000    0.0000 C   0  0  0  0  0  0  0  0  0  0  0  0
    5.4641   -2.5000    0.0000 C   0  0  0  0  0  0  0  0  0  0  0  0
    3.7320    2.5000    0.0000 C   0  0  0  0  0  0  0  0  0  0  0  0
    4.5981   -3.0000    0.0000 C   0  0  0  0  0  0  0  0  0  0  0  0
    6.3301   -3.0000    0.0000 C   0  0  0  0  0  0  0  0  0  0  0  0
    3.7320   -2.5000    0.0000 C   0  0  0  0  0  0  0  0  0  0  0  0
    2.8660    3.0000    0.0000 C   0  0  0  0  0  0  0  0  0  0  0  0
    4.5981   -4.0000    0.0000 C   0  0  0  0  0  0  0  0  0  0  0  0
    6.3301   -4.0000    0.0000 C   0  0  0  0  0  0  0  0  0  0  0  0
    5.4641   -4.5000    0.0000 C   0  0  0  0  0  0  0  0  0  0  0  0
    2.8660   -3.0000    0.0000 C   0  0  0  0  0  0  0  0  0  0  0  0
    2.0000   -2.5000    0.0000 C   0  0  0  0  0  0  0  0  0  0  0  0
    7.5947    0.9749    0.0000 H   0  0  0  0  0  0  0  0  0  0  0  0
    6.7976    0.9749    0.0000 H   0  0  0  0  0  0  0  0  0  0  0  0
    7.5252   -0.6900    0.0000 H   0  0  0  0  0  0  0  0  0  0  0  0
    5.7932   -0.3100    0.0000 H   0  0  0  0  0  0  0  0  0  0  0  0
    6.5422   -1.5826    0.0000 H   0  0  0  0  0  0  0  0  0  0  0  0
    6.9407   -0.8923    0.0000 H   0  0  0  0  0  0  0  0  0  0  0  0
    8.6182   -2.0369    0.0000 H   0  0  0  0  0  0  0  0  0  0  0  0
    9.4651   -1.8100    0.0000 H   0  0  0  0  0  0  0  0  0  0  0  0
    9.2382   -0.9631    0.0000 H   0  0  0  0  0  0  0  0  0  0  0  0
    6.8862   -0.9631    0.0000 H   0  0  0  0  0  0  0  0  0  0  0  0
    6.6592   -1.8100    0.0000 H   0  0  0  0  0  0  0  0  0  0  0  0
    7.5062   -2.0369    0.0000 H   0  0  0  0  0  0  0  0  0  0  0  0
    6.8671   -2.6900    0.0000 H   0  0  0  0  0  0  0  0  0  0  0  0
    4.1306   -2.0250    0.0000 H   0  0  0  0  0  0  0  0  0  0  0  0
    3.3335   -2.0250    0.0000 H   0  0  0  0  0  0  0  0  0  0  0  0
    4.0611   -4.3100    0.0000 H   0  0  0  0  0  0  0  0  0  0  0  0
    6.8671   -4.3100    0.0000 H   0  0  0  0  0  0  0  0  0  0  0  0
    5.4641   -5.1200    0.0000 H   0  0  0  0  0  0  0  0  0  0  0  0
    2.8660   -3.6200    0.0000 H   0  0  0  0  0  0  0  0  0  0  0  0
    2.0000   -1.8800    0.0000 H   0  0  0  0  0  0  0  0  0  0  0  0
    1.4631   -2.8100    0.0000 H   0  0  0  0  0  0  0  0  0  0  0  0
  1 27  1  0  0  0  0
  2 27  1  0  0  0  0
  3 28  1  0  0  0  0
  4 28  1  0  0  0  0
  5 30  1  0  0  0  0
  6 30  1  0  0  0  0
  7 31  1  0  0  0  0
  8 31  1  0  0  0  0
  9 31  1  0  0  0  0
 10 33  1  0  0  0  0
 11 33  1  0  0  0  0
 12 37  1  0  0  0  0
 13 37  1  0  0  0  0
 14 37  1  0  0  0  0
 15 22  1  0  0  0  0
 15 29  1  0  0  0  0
 16 24  1  0  0  0  0
 16 32  1  0  0  0  0
 17 23  2  0  0  0  0
 18 29  2  0  0  0  0
 19 20  1  0  0  0  0
 19 21  1  0  0  0  0
 19 23  1  0  0  0  0
 20 22  1  0  0  0  0
 20 43  1  0  0  0  0
 20 44  1  0  0  0  0
 21 25  1  0  0  0  0
 21 26  1  0  0  0  0
 21 45  1  0  0  0  0
 22 24  1  0  0  0  0
 22 46  1  0  0  0  0
 23 27  1  0  0  0  0
 24 47  1  0  0  0  0
 24 48  1  0  0  0  0
 25 49  1  0  0  0  0
 25 50  1  0  0  0  0
 25 51  1  0  0  0  0
 26 52  1  0  0  0  0
 26 53  1  0  0  0  0
 26 54  1  0  0  0  0
 27 28  1  0  0  0  0
 28 31  1  0  0  0  0
 29 30  1  0  0  0  0
 30 33  1  0  0  0  0
 32 34  1  0  0  0  0
 32 35  2  0  0  0  0
 33 37  1  0  0  0  0
 34 36  1  0  0  0  0
 34 38  2  0  0  0  0
 35 39  1  0  0  0  0
 35 55  1  0  0  0  0
 36 41  1  0  0  0  0
 36 56  1  0  0  0  0
 36 57  1  0  0  0  0
 38 40  1  0  0  0  0
 38 58  1  0  0  0  0
 39 40  2  0  0  0  0
 39 59  1  0  0  0  0
 40 60  1  0  0  0  0
 41 42  2  0  0  0  0
 41 61  1  0  0  0  0
 42 62  1  0  0  0  0
 42 63  1  0  0  0  0
M  END
> <PUBCHEM_COMPOUND_CID>
526010
> <PUBCHEM_COMPOUND_CANONICALIZED>
1
> <PUBCHEM_CACTVS_COMPLEXITY>
948
> <PUBCHEM_CACTVS_HBOND_ACCEPTOR>
18
> <PUBCHEM_CACTVS_HBOND_DONOR>
0
> <PUBCHEM_CACTVS_ROTATABLE_BOND>
14
> <PUBCHEM_CACTVS_SUBSKEYS>
AAADceB6OcAAAAAAAAAAAAAAAAAAAAAAAAAwAAAAAAAAAAABAAAAHwAAAAAADDzhmBYyDoMABACIAiHSGAACCAAgIAAIiAEOCIgPJjKEsRqHOCCmxhGaqAeAwKAOAAAAAAAIAAAAAAAAABAAAAAAAAAAAA==
> <PUBCHEM_IUPAC_OPENEYE_NAME>
[1-[(2-allylphenoxy)methyl]-2-[2,2,3,3,4,4,4-heptafluorobutanoyl(isopropyl)amino]ethyl] 2,2,3,3,4,4,4-heptafluorobutanoate
> <PUBCHEM_IUPAC_CAS_NAME>
2,2,3,3,4,4,4-heptafluorobutanoic acid [1-[(2,2,3,3,4,4,4-heptafluoro-1-oxobutyl)-propan-2-ylamino]-3-(2-prop-2-enylphenoxy)propan-2-yl] ester
> <PUBCHEM_IUPAC_NAME_MARKUP>
[1-[2,2,3,3,4,4,4-heptafluorobutanoyl(propan-2-yl)amino]-3-(2-prop-2-enylphenoxy)propan-2-yl] 2,2,3,3,4,4,4-heptafluorobutanoate
> <PUBCHEM_IUPAC_NAME>
[1-[2,2,3,3,4,4,4-heptafluorobutanoyl(propan-2-yl)amino]-3-(2-prop-2-enylphenoxy)propan-2-yl] 2,2,3,3,4,4,4-heptafluorobutanoate
> <PUBCHEM_IUPAC_SYSTEMATIC_NAME>
[1-[2,2,3,3,4,4,4-heptakis(fluoranyl)butanoyl-propan-2-yl-amino]-3-(2-prop-2-enylphenoxy)propan-2-yl] 2,2,3,3,4,4,4-heptakis(fluoranyl)butanoate
> <PUBCHEM_IUPAC_TRADITIONAL_NAME>
2,2,3,3,4,4,4-heptafluorobutyric acid [1-[(2-allylphenoxy)methyl]-2-[2,2,3,3,4,4,4-heptafluorobutanoyl(isopropyl)amino]ethyl] ester
> <PUBCHEM_IUPAC_INCHI>
InChI=1S/C23H21F14NO4/c1-4-7-13-8-5-6-9-15(13)41-11-14(42-17(40)19(26,27)21(30,31)23(35,36)37)10-38(12(2)3)16(39)18(24,25)20(28,29)22(32,33)34/h4-6,8-9,12,14H,1,7,10-11H2,2-3H3
> <PUBCHEM_IUPAC_INCHIKEY>
DBANNUCXAQOZMF-UHFFFAOYSA-N
> <PUBCHEM_XLOGP3_AA>
8.1
> <PUBCHEM_EXACT_MASS>
641.1247024
> <PUBCHEM_MOLECULAR_FORMULA>
C23H21F14NO4
> <PUBCHEM_MOLECULAR_WEIGHT>
641.4
> <PUBCHEM_OPENEYE_CAN_SMILES>
CC(C)N(CC(COC1=CC=CC=C1CC=C)OC(=O)C(C(C(F)(F)F)(F)F)(F)F)C(=O)C(C(C(F)(F)F)(F)F)(F)F
> <PUBCHEM_OPENEYE_ISO_SMILES>
CC(C)N(CC(COC1=CC=CC=C1CC=C)OC(=O)C(C(C(F)(F)F)(F)F)(F)F)C(=O)C(C(C(F)(F)F)(F)F)(F)F
> <PUBCHEM_CACTVS_TPSA>
55.8
> <PUBCHEM_MONOISOTOPIC_WEIGHT>
641.1247024
> <PUBCHEM_TOTAL_CHARGE>
0
> <PUBCHEM_HEAVY_ATOM_COUNT>
42
> <PUBCHEM_ATOM_DEF_STEREO_COUNT>
0
> <PUBCHEM_ATOM_UDEF_STEREO_COUNT>
1
> <PUBCHEM_BOND_DEF_STEREO_COUNT>
0
> <PUBCHEM_BOND_UDEF_STEREO_COUNT>
0
> <PUBCHEM_ISOTOPIC_ATOM_COUNT>
0
> <PUBCHEM_COMPONENT_COUNT>
1
> <PUBCHEM_CACTVS_TAUTO_COUNT>
-1
> <PUBCHEM_COORDINATE_TYPE>
1
5
255
> <PUBCHEM_BONDANNOTATIONS>
22  20  3
32  34  8
32  35  8
34  38  8
35  39  8
38  40  8
39  40  8
$$$$
