526070
  -OEChem-10302200292D
 66 65  0     1  0  0  0  0  0999 V2000
    2.8660   -0.3170    0.0000 Si  0  0  0  0  0  0  0  0  0  0  0  0
    3.7320    0.1830    0.0000 O   0  0  0  0  0  0  0  0  0  0  0  0
   14.1244    0.1830    0.0000 C   0  0  0  0  0  0  0  0  0  0  0  0
   13.2583   -0.3170    0.0000 C   0  0  0  0  0  0  0  0  0  0  0  0
   14.9904   -0.3170    0.0000 C   0  0  0  0  0  0  0  0  0  0  0  0
   12.3923    0.1830    0.0000 C   0  0  0  0  0  0  0  0  0  0  0  0
   15.8564    0.1830    0.0000 C   0  0  3  0  0  0  0  0  0  0  0  0
   11.5263   -0.3170    0.0000 C   0  0  0  0  0  0  0  0  0  0  0  0
   10.6603    0.1830    0.0000 C   0  0  0  0  0  0  0  0  0  0  0  0
    9.7942   -0.3170    0.0000 C   0  0  0  0  0  0  0  0  0  0  0  0
    8.9282    0.1830    0.0000 C   0  0  0  0  0  0  0  0  0  0  0  0
    8.0622   -0.3170    0.0000 C   0  0  0  0  0  0  0  0  0  0  0  0
    7.1962    0.1830    0.0000 C   0  0  0  0  0  0  0  0  0  0  0  0
   16.7224   -0.3170    0.0000 C   0  0  0  0  0  0  0  0  0  0  0  0
    6.3301   -0.3170    0.0000 C   0  0  0  0  0  0  0  0  0  0  0  0
   15.8564    1.1830    0.0000 C   0  0  0  0  0  0  0  0  0  0  0  0
    5.4641    0.1830    0.0000 C   0  0  0  0  0  0  0  0  0  0  0  0
    4.5981   -0.3170    0.0000 C   0  0  0  0  0  0  0  0  0  0  0  0
   17.5885    0.1830    0.0000 C   0  0  0  0  0  0  0  0  0  0  0  0
    2.0000   -0.8170    0.0000 C   0  0  0  0  0  0  0  0  0  0  0  0
    2.3660    0.5490    0.0000 C   0  0  0  0  0  0  0  0  0  0  0  0
    3.3660   -1.1830    0.0000 C   0  0  0  0  0  0  0  0  0  0  0  0
   14.5229    0.6580    0.0000 H   0  0  0  0  0  0  0  0  0  0  0  0
   13.7258    0.6580    0.0000 H   0  0  0  0  0  0  0  0  0  0  0  0
   12.8598   -0.7919    0.0000 H   0  0  0  0  0  0  0  0  0  0  0  0
   13.6569   -0.7919    0.0000 H   0  0  0  0  0  0  0  0  0  0  0  0
   14.5919   -0.7919    0.0000 H   0  0  0  0  0  0  0  0  0  0  0  0
   15.3889   -0.7919    0.0000 H   0  0  0  0  0  0  0  0  0  0  0  0
   12.7908    0.6580    0.0000 H   0  0  0  0  0  0  0  0  0  0  0  0
   11.9938    0.6580    0.0000 H   0  0  0  0  0  0  0  0  0  0  0  0
   16.3933    0.4930    0.0000 H   0  0  0  0  0  0  0  0  0  0  0  0
   11.1278   -0.7919    0.0000 H   0  0  0  0  0  0  0  0  0  0  0  0
   11.9248   -0.7919    0.0000 H   0  0  0  0  0  0  0  0  0  0  0  0
   11.0588    0.6580    0.0000 H   0  0  0  0  0  0  0  0  0  0  0  0
   10.2617    0.6580    0.0000 H   0  0  0  0  0  0  0  0  0  0  0  0
    9.3957   -0.7919    0.0000 H   0  0  0  0  0  0  0  0  0  0  0  0
   10.1928   -0.7919    0.0000 H   0  0  0  0  0  0  0  0  0  0  0  0
    9.3267    0.6580    0.0000 H   0  0  0  0  0  0  0  0  0  0  0  0
    8.5297    0.6580    0.0000 H   0  0  0  0  0  0  0  0  0  0  0  0
    7.6636   -0.7919    0.0000 H   0  0  0  0  0  0  0  0  0  0  0  0
    8.4607   -0.7919    0.0000 H   0  0  0  0  0  0  0  0  0  0  0  0
    7.5947    0.6580    0.0000 H   0  0  0  0  0  0  0  0  0  0  0  0
    6.7976    0.6580    0.0000 H   0  0  0  0  0  0  0  0  0  0  0  0
   16.3239   -0.7919    0.0000 H   0  0  0  0  0  0  0  0  0  0  0  0
   17.1210   -0.7919    0.0000 H   0  0  0  0  0  0  0  0  0  0  0  0
    5.9316   -0.7919    0.0000 H   0  0  0  0  0  0  0  0  0  0  0  0
    6.7287   -0.7919    0.0000 H   0  0  0  0  0  0  0  0  0  0  0  0
   16.4764    1.1830    0.0000 H   0  0  0  0  0  0  0  0  0  0  0  0
   15.8564    1.8030    0.0000 H   0  0  0  0  0  0  0  0  0  0  0  0
   15.2364    1.1830    0.0000 H   0  0  0  0  0  0  0  0  0  0  0  0
    5.8626    0.6580    0.0000 H   0  0  0  0  0  0  0  0  0  0  0  0
    5.0656    0.6580    0.0000 H   0  0  0  0  0  0  0  0  0  0  0  0
    4.1996   -0.7919    0.0000 H   0  0  0  0  0  0  0  0  0  0  0  0
    4.9966   -0.7919    0.0000 H   0  0  0  0  0  0  0  0  0  0  0  0
   17.8985   -0.3539    0.0000 H   0  0  0  0  0  0  0  0  0  0  0  0
   18.1254    0.4930    0.0000 H   0  0  0  0  0  0  0  0  0  0  0  0
   17.2785    0.7199    0.0000 H   0  0  0  0  0  0  0  0  0  0  0  0
    1.6900   -0.2801    0.0000 H   0  0  0  0  0  0  0  0  0  0  0  0
    1.4631   -1.1270    0.0000 H   0  0  0  0  0  0  0  0  0  0  0  0
    2.3100   -1.3539    0.0000 H   0  0  0  0  0  0  0  0  0  0  0  0
    2.9030    0.8590    0.0000 H   0  0  0  0  0  0  0  0  0  0  0  0
    2.0560    1.0860    0.0000 H   0  0  0  0  0  0  0  0  0  0  0  0
    1.8291    0.2390    0.0000 H   0  0  0  0  0  0  0  0  0  0  0  0
    2.8291   -1.4930    0.0000 H   0  0  0  0  0  0  0  0  0  0  0  0
    3.6760   -1.7200    0.0000 H   0  0  0  0  0  0  0  0  0  0  0  0
    3.9030   -0.8730    0.0000 H   0  0  0  0  0  0  0  0  0  0  0  0
  1  2  1  0  0  0  0
  1 20  1  0  0  0  0
  1 21  1  0  0  0  0
  1 22  1  0  0  0  0
  2 18  1  0  0  0  0
  3  4  1  0  0  0  0
  3  5  1  0  0  0  0
  3 23  1  0  0  0  0
  3 24  1  0  0  0  0
  4  6  1  0  0  0  0
  4 25  1  0  0  0  0
  4 26  1  0  0  0  0
  5  7  1  0  0  0  0
  5 27  1  0  0  0  0
  5 28  1  0  0  0  0
  6  8  1  0  0  0  0
  6 29  1  0  0  0  0
  6 30  1  0  0  0  0
  7 14  1  0  0  0  0
  7 16  1  0  0  0  0
  7 31  1  0  0  0  0
  8  9  1  0  0  0  0
  8 32  1  0  0  0  0
  8 33  1  0  0  0  0
  9 10  1  0  0  0  0
  9 34  1  0  0  0  0
  9 35  1  0  0  0  0
 10 11  1  0  0  0  0
 10 36  1  0  0  0  0
 10 37  1  0  0  0  0
 11 12  1  0  0  0  0
 11 38  1  0  0  0  0
 11 39  1  0  0  0  0
 12 13  1  0  0  0  0
 12 40  1  0  0  0  0
 12 41  1  0  0  0  0
 13 15  1  0  0  0  0
 13 42  1  0  0  0  0
 13 43  1  0  0  0  0
 14 19  1  0  0  0  0
 14 44  1  0  0  0  0
 14 45  1  0  0  0  0
 15 17  1  0  0  0  0
 15 46  1  0  0  0  0
 15 47  1  0  0  0  0
 16 48  1  0  0  0  0
 16 49  1  0  0  0  0
 16 50  1  0  0  0  0
 17 18  1  0  0  0  0
 17 51  1  0  0  0  0
 17 52  1  0  0  0  0
 18 53  1  0  0  0  0
 18 54  1  0  0  0  0
 19 55  1  0  0  0  0
 19 56  1  0  0  0  0
 19 57  1  0  0  0  0
 20 58  1  0  0  0  0
 20 59  1  0  0  0  0
 20 60  1  0  0  0  0
 21 61  1  0  0  0  0
 21 62  1  0  0  0  0
 21 63  1  0  0  0  0
 22 64  1  0  0  0  0
 22 65  1  0  0  0  0
 22 66  1  0  0  0  0
M  END
> <PUBCHEM_COMPOUND_CID>
526070
> <PUBCHEM_COMPOUND_CANONICALIZED>
1
> <PUBCHEM_CACTVS_COMPLEXITY>
222
> <PUBCHEM_CACTVS_HBOND_ACCEPTOR>
1
> <PUBCHEM_CACTVS_HBOND_DONOR>
0
> <PUBCHEM_CACTVS_ROTATABLE_BOND>
16
> <PUBCHEM_CACTVS_SUBSKEYS>
AAADcfB4IAgAAAAAAAAAAAAAAAAAAAAAAAAAAAAAAAAAAAAAAAAAGhAAAEAADQCggAJCAAAAAAEAAAAAAAAAAAAAAAAAAAAAAAAAAAIAAAAAAAAEAAAAAAGAwOAOAAAAAAAAAAAAAAAAAAAAAAAAAAAAAA==
> <PUBCHEM_IUPAC_OPENEYE_NAME>
trimethyl(14-methylhexadecoxy)silane
> <PUBCHEM_IUPAC_CAS_NAME>
trimethyl(14-methylhexadecoxy)silane
> <PUBCHEM_IUPAC_NAME_MARKUP>
trimethyl(14-methylhexadecoxy)silane
> <PUBCHEM_IUPAC_NAME>
trimethyl(14-methylhexadecoxy)silane
> <PUBCHEM_IUPAC_SYSTEMATIC_NAME>
trimethyl(14-methylhexadecoxy)silane
> <PUBCHEM_IUPAC_TRADITIONAL_NAME>
trimethyl(14-methylhexadecoxy)silane
> <PUBCHEM_IUPAC_INCHI>
InChI=1S/C20H44OSi/c1-6-20(2)18-16-14-12-10-8-7-9-11-13-15-17-19-21-22(3,4)5/h20H,6-19H2,1-5H3
> <PUBCHEM_IUPAC_INCHIKEY>
CIEBZONLYUZYCQ-UHFFFAOYSA-N
> <PUBCHEM_EXACT_MASS>
328.316142557
> <PUBCHEM_MOLECULAR_FORMULA>
C20H44OSi
> <PUBCHEM_MOLECULAR_WEIGHT>
328.6
> <PUBCHEM_OPENEYE_CAN_SMILES>
CCC(C)CCCCCCCCCCCCCO[Si](C)(C)C
> <PUBCHEM_OPENEYE_ISO_SMILES>
CCC(C)CCCCCCCCCCCCCO[Si](C)(C)C
> <PUBCHEM_CACTVS_TPSA>
9.2
> <PUBCHEM_MONOISOTOPIC_WEIGHT>
328.316142557
> <PUBCHEM_TOTAL_CHARGE>
0
> <PUBCHEM_HEAVY_ATOM_COUNT>
22
> <PUBCHEM_ATOM_DEF_STEREO_COUNT>
0
> <PUBCHEM_ATOM_UDEF_STEREO_COUNT>
1
> <PUBCHEM_BOND_DEF_STEREO_COUNT>
0
> <PUBCHEM_BOND_UDEF_STEREO_COUNT>
0
> <PUBCHEM_ISOTOPIC_ATOM_COUNT>
0
> <PUBCHEM_COMPONENT_COUNT>
1
> <PUBCHEM_CACTVS_TAUTO_COUNT>
-1
> <PUBCHEM_COORDINATE_TYPE>
1
5
255
> <PUBCHEM_BONDANNOTATIONS>
7  16  3
$$$$
