526011
  -OEChem-10302200292D
 51 51  0     1  0  0  0  0  0999 V2000
    9.0622    3.2500    0.0000 F   0  0  0  0  0  0  0  0  0  0  0  0
    8.0622    4.2500    0.0000 F   0  0  0  0  0  0  0  0  0  0  0  0
    7.0622    3.2500    0.0000 F   0  0  0  0  0  0  0  0  0  0  0  0
    2.8660    1.2500    0.0000 F   0  0  0  0  0  0  0  0  0  0  0  0
    4.2320    1.6160    0.0000 F   0  0  0  0  0  0  0  0  0  0  0  0
    3.2320   -0.1160    0.0000 F   0  0  0  0  0  0  0  0  0  0  0  0
    5.4641    0.7500    0.0000 O   0  0  0  0  0  0  0  0  0  0  0  0
    5.4641   -1.2500    0.0000 O   0  0  0  0  0  0  0  0  0  0  0  0
    8.9282    1.7500    0.0000 O   0  0  0  0  0  0  0  0  0  0  0  0
    4.5981   -0.7500    0.0000 O   0  0  0  0  0  0  0  0  0  0  0  0
    7.1962    1.7500    0.0000 N   0  0  0  0  0  0  0  0  0  0  0  0
    7.1962    0.7500    0.0000 C   0  0  0  0  0  0  0  0  0  0  0  0
    6.3301    2.2500    0.0000 C   0  0  0  0  0  0  0  0  0  0  0  0
    6.3301    0.2500    0.0000 C   0  0  3  0  0  0  0  0  0  0  0  0
    6.3301   -0.7500    0.0000 C   0  0  0  0  0  0  0  0  0  0  0  0
    6.3301    3.2500    0.0000 C   0  0  0  0  0  0  0  0  0  0  0  0
    5.4641    1.7500    0.0000 C   0  0  0  0  0  0  0  0  0  0  0  0
    8.0622    2.2500    0.0000 C   0  0  0  0  0  0  0  0  0  0  0  0
    8.0622    3.2500    0.0000 C   0  0  0  0  0  0  0  0  0  0  0  0
    5.4641   -2.2500    0.0000 C   0  0  0  0  0  0  0  0  0  0  0  0
    4.5981   -2.7500    0.0000 C   0  0  0  0  0  0  0  0  0  0  0  0
    4.5981    0.2500    0.0000 C   0  0  0  0  0  0  0  0  0  0  0  0
    6.3301   -2.7500    0.0000 C   0  0  0  0  0  0  0  0  0  0  0  0
    3.7320   -2.2500    0.0000 C   0  0  0  0  0  0  0  0  0  0  0  0
    4.5981   -3.7500    0.0000 C   0  0  0  0  0  0  0  0  0  0  0  0
    6.3301   -3.7500    0.0000 C   0  0  0  0  0  0  0  0  0  0  0  0
    3.7320    0.7500    0.0000 C   0  0  0  0  0  0  0  0  0  0  0  0
    5.4641   -4.2500    0.0000 C   0  0  0  0  0  0  0  0  0  0  0  0
    2.8660   -2.7500    0.0000 C   0  0  0  0  0  0  0  0  0  0  0  0
    2.0000   -2.2500    0.0000 C   0  0  0  0  0  0  0  0  0  0  0  0
    7.4082    0.1674    0.0000 H   0  0  0  0  0  0  0  0  0  0  0  0
    7.8067    0.8577    0.0000 H   0  0  0  0  0  0  0  0  0  0  0  0
    6.8671    2.5600    0.0000 H   0  0  0  0  0  0  0  0  0  0  0  0
    5.7932   -0.0600    0.0000 H   0  0  0  0  0  0  0  0  0  0  0  0
    6.5422   -1.3326    0.0000 H   0  0  0  0  0  0  0  0  0  0  0  0
    6.9407   -0.6423    0.0000 H   0  0  0  0  0  0  0  0  0  0  0  0
    6.9501    3.2500    0.0000 H   0  0  0  0  0  0  0  0  0  0  0  0
    6.3301    3.8700    0.0000 H   0  0  0  0  0  0  0  0  0  0  0  0
    5.7101    3.2500    0.0000 H   0  0  0  0  0  0  0  0  0  0  0  0
    5.1541    2.2869    0.0000 H   0  0  0  0  0  0  0  0  0  0  0  0
    4.9272    1.4400    0.0000 H   0  0  0  0  0  0  0  0  0  0  0  0
    5.7741    1.2131    0.0000 H   0  0  0  0  0  0  0  0  0  0  0  0
    6.8671   -2.4400    0.0000 H   0  0  0  0  0  0  0  0  0  0  0  0
    4.1306   -1.7750    0.0000 H   0  0  0  0  0  0  0  0  0  0  0  0
    3.3335   -1.7750    0.0000 H   0  0  0  0  0  0  0  0  0  0  0  0
    4.0611   -4.0600    0.0000 H   0  0  0  0  0  0  0  0  0  0  0  0
    6.8671   -4.0600    0.0000 H   0  0  0  0  0  0  0  0  0  0  0  0
    5.4641   -4.8700    0.0000 H   0  0  0  0  0  0  0  0  0  0  0  0
    2.8660   -3.3700    0.0000 H   0  0  0  0  0  0  0  0  0  0  0  0
    2.0000   -1.6300    0.0000 H   0  0  0  0  0  0  0  0  0  0  0  0
    1.4631   -2.5600    0.0000 H   0  0  0  0  0  0  0  0  0  0  0  0
  1 19  1  0  0  0  0
  2 19  1  0  0  0  0
  3 19  1  0  0  0  0
  4 27  1  0  0  0  0
  5 27  1  0  0  0  0
  6 27  1  0  0  0  0
  7 14  1  0  0  0  0
  7 22  1  0  0  0  0
  8 15  1  0  0  0  0
  8 20  1  0  0  0  0
  9 18  2  0  0  0  0
 10 22  2  0  0  0  0
 11 12  1  0  0  0  0
 11 13  1  0  0  0  0
 11 18  1  0  0  0  0
 12 14  1  0  0  0  0
 12 31  1  0  0  0  0
 12 32  1  0  0  0  0
 13 16  1  0  0  0  0
 13 17  1  0  0  0  0
 13 33  1  0  0  0  0
 14 15  1  0  0  0  0
 14 34  1  0  0  0  0
 15 35  1  0  0  0  0
 15 36  1  0  0  0  0
 16 37  1  0  0  0  0
 16 38  1  0  0  0  0
 16 39  1  0  0  0  0
 17 40  1  0  0  0  0
 17 41  1  0  0  0  0
 17 42  1  0  0  0  0
 18 19  1  0  0  0  0
 20 21  1  0  0  0  0
 20 23  2  0  0  0  0
 21 24  1  0  0  0  0
 21 25  2  0  0  0  0
 22 27  1  0  0  0  0
 23 26  1  0  0  0  0
 23 43  1  0  0  0  0
 24 29  1  0  0  0  0
 24 44  1  0  0  0  0
 24 45  1  0  0  0  0
 25 28  1  0  0  0  0
 25 46  1  0  0  0  0
 26 28  2  0  0  0  0
 26 47  1  0  0  0  0
 28 48  1  0  0  0  0
 29 30  2  0  0  0  0
 29 49  1  0  0  0  0
 30 50  1  0  0  0  0
 30 51  1  0  0  0  0
M  END
> <PUBCHEM_COMPOUND_CID>
526011
> <PUBCHEM_COMPOUND_CANONICALIZED>
1
> <PUBCHEM_CACTVS_COMPLEXITY>
591
> <PUBCHEM_CACTVS_HBOND_ACCEPTOR>
10
> <PUBCHEM_CACTVS_HBOND_DONOR>
0
> <PUBCHEM_CACTVS_ROTATABLE_BOND>
10
> <PUBCHEM_CACTVS_SUBSKEYS>
AAADceB6OcAAAAAAAAAAAAAAAAAAAAAAAAAwAAAAAAAAAAABAAAAHwAAAAAADDzhmBYyDoMABACIAiHSGAACCAAgIAAIiAAOCIgPJiKEMRqHOCCmxhGaqAeAwKAOAAAAAAAIAAAAAAAAABAAAAAAAAAAAA==
> <PUBCHEM_IUPAC_OPENEYE_NAME>
[1-[(2-allylphenoxy)methyl]-2-[isopropyl-(2,2,2-trifluoroacetyl)amino]ethyl] 2,2,2-trifluoroacetate
> <PUBCHEM_IUPAC_CAS_NAME>
2,2,2-trifluoroacetic acid [1-[propan-2-yl-(2,2,2-trifluoro-1-oxoethyl)amino]-3-(2-prop-2-enylphenoxy)propan-2-yl] ester
> <PUBCHEM_IUPAC_NAME_MARKUP>
[1-[propan-2-yl-(2,2,2-trifluoroacetyl)amino]-3-(2-prop-2-enylphenoxy)propan-2-yl] 2,2,2-trifluoroacetate
> <PUBCHEM_IUPAC_NAME>
[1-[propan-2-yl-(2,2,2-trifluoroacetyl)amino]-3-(2-prop-2-enylphenoxy)propan-2-yl] 2,2,2-trifluoroacetate
> <PUBCHEM_IUPAC_SYSTEMATIC_NAME>
[1-[propan-2-yl-[2,2,2-tris(fluoranyl)ethanoyl]amino]-3-(2-prop-2-enylphenoxy)propan-2-yl] 2,2,2-tris(fluoranyl)ethanoate
> <PUBCHEM_IUPAC_TRADITIONAL_NAME>
2,2,2-trifluoroacetic acid [1-[(2-allylphenoxy)methyl]-2-[isopropyl-(2,2,2-trifluoroacetyl)amino]ethyl] ester
> <PUBCHEM_IUPAC_INCHI>
InChI=1S/C19H21F6NO4/c1-4-7-13-8-5-6-9-15(13)29-11-14(30-17(28)19(23,24)25)10-26(12(2)3)16(27)18(20,21)22/h4-6,8-9,12,14H,1,7,10-11H2,2-3H3
> <PUBCHEM_IUPAC_INCHIKEY>
CFMTYXOXDDMWHX-UHFFFAOYSA-N
> <PUBCHEM_XLOGP3_AA>
5.5
> <PUBCHEM_EXACT_MASS>
441.13747712
> <PUBCHEM_MOLECULAR_FORMULA>
C19H21F6NO4
> <PUBCHEM_MOLECULAR_WEIGHT>
441.4
> <PUBCHEM_OPENEYE_CAN_SMILES>
CC(C)N(CC(COC1=CC=CC=C1CC=C)OC(=O)C(F)(F)F)C(=O)C(F)(F)F
> <PUBCHEM_OPENEYE_ISO_SMILES>
CC(C)N(CC(COC1=CC=CC=C1CC=C)OC(=O)C(F)(F)F)C(=O)C(F)(F)F
> <PUBCHEM_CACTVS_TPSA>
55.8
> <PUBCHEM_MONOISOTOPIC_WEIGHT>
441.13747712
> <PUBCHEM_TOTAL_CHARGE>
0
> <PUBCHEM_HEAVY_ATOM_COUNT>
30
> <PUBCHEM_ATOM_DEF_STEREO_COUNT>
0
> <PUBCHEM_ATOM_UDEF_STEREO_COUNT>
1
> <PUBCHEM_BOND_DEF_STEREO_COUNT>
0
> <PUBCHEM_BOND_UDEF_STEREO_COUNT>
0
> <PUBCHEM_ISOTOPIC_ATOM_COUNT>
0
> <PUBCHEM_COMPONENT_COUNT>
1
> <PUBCHEM_CACTVS_TAUTO_COUNT>
-1
> <PUBCHEM_COORDINATE_TYPE>
1
5
255
> <PUBCHEM_BONDANNOTATIONS>
14  12  3
20  21  8
20  23  8
21  25  8
23  26  8
25  28  8
26  28  8
$$$$
