526071
  -OEChem-10302200292D
 72 71  0     1  0  0  0  0  0999 V2000
    2.8660   -0.3170    0.0000 Si  0  0  0  0  0  0  0  0  0  0  0  0
    3.7320    0.1830    0.0000 O   0  0  0  0  0  0  0  0  0  0  0  0
   14.9904   -0.3170    0.0000 C   0  0  0  0  0  0  0  0  0  0  0  0
   15.8564    0.1830    0.0000 C   0  0  0  0  0  0  0  0  0  0  0  0
   14.1244    0.1830    0.0000 C   0  0  0  0  0  0  0  0  0  0  0  0
   13.2583   -0.3170    0.0000 C   0  0  0  0  0  0  0  0  0  0  0  0
   16.7224   -0.3170    0.0000 C   0  0  0  0  0  0  0  0  0  0  0  0
   12.3923    0.1830    0.0000 C   0  0  0  0  0  0  0  0  0  0  0  0
   17.5885    0.1830    0.0000 C   0  0  3  0  0  0  0  0  0  0  0  0
   11.5263   -0.3170    0.0000 C   0  0  0  0  0  0  0  0  0  0  0  0
   10.6603    0.1830    0.0000 C   0  0  0  0  0  0  0  0  0  0  0  0
    9.7942   -0.3170    0.0000 C   0  0  0  0  0  0  0  0  0  0  0  0
    8.9282    0.1830    0.0000 C   0  0  0  0  0  0  0  0  0  0  0  0
    8.0622   -0.3170    0.0000 C   0  0  0  0  0  0  0  0  0  0  0  0
    7.1962    0.1830    0.0000 C   0  0  0  0  0  0  0  0  0  0  0  0
   18.4545   -0.3170    0.0000 C   0  0  0  0  0  0  0  0  0  0  0  0
    6.3301   -0.3170    0.0000 C   0  0  0  0  0  0  0  0  0  0  0  0
   17.5885    1.1830    0.0000 C   0  0  0  0  0  0  0  0  0  0  0  0
    5.4641    0.1830    0.0000 C   0  0  0  0  0  0  0  0  0  0  0  0
    4.5981   -0.3170    0.0000 C   0  0  0  0  0  0  0  0  0  0  0  0
   19.3205    0.1830    0.0000 C   0  0  0  0  0  0  0  0  0  0  0  0
    2.0000   -0.8170    0.0000 C   0  0  0  0  0  0  0  0  0  0  0  0
    2.3660    0.5490    0.0000 C   0  0  0  0  0  0  0  0  0  0  0  0
    3.3660   -1.1830    0.0000 C   0  0  0  0  0  0  0  0  0  0  0  0
   14.5919   -0.7919    0.0000 H   0  0  0  0  0  0  0  0  0  0  0  0
   15.3889   -0.7919    0.0000 H   0  0  0  0  0  0  0  0  0  0  0  0
   16.2549    0.6580    0.0000 H   0  0  0  0  0  0  0  0  0  0  0  0
   15.4579    0.6580    0.0000 H   0  0  0  0  0  0  0  0  0  0  0  0
   14.5229    0.6580    0.0000 H   0  0  0  0  0  0  0  0  0  0  0  0
   13.7258    0.6580    0.0000 H   0  0  0  0  0  0  0  0  0  0  0  0
   12.8598   -0.7919    0.0000 H   0  0  0  0  0  0  0  0  0  0  0  0
   13.6569   -0.7919    0.0000 H   0  0  0  0  0  0  0  0  0  0  0  0
   16.3239   -0.7919    0.0000 H   0  0  0  0  0  0  0  0  0  0  0  0
   17.1210   -0.7919    0.0000 H   0  0  0  0  0  0  0  0  0  0  0  0
   12.7908    0.6580    0.0000 H   0  0  0  0  0  0  0  0  0  0  0  0
   11.9938    0.6580    0.0000 H   0  0  0  0  0  0  0  0  0  0  0  0
   18.1254    0.4930    0.0000 H   0  0  0  0  0  0  0  0  0  0  0  0
   11.1278   -0.7919    0.0000 H   0  0  0  0  0  0  0  0  0  0  0  0
   11.9248   -0.7919    0.0000 H   0  0  0  0  0  0  0  0  0  0  0  0
   11.0588    0.6580    0.0000 H   0  0  0  0  0  0  0  0  0  0  0  0
   10.2617    0.6580    0.0000 H   0  0  0  0  0  0  0  0  0  0  0  0
    9.3957   -0.7919    0.0000 H   0  0  0  0  0  0  0  0  0  0  0  0
   10.1928   -0.7919    0.0000 H   0  0  0  0  0  0  0  0  0  0  0  0
    9.3267    0.6580    0.0000 H   0  0  0  0  0  0  0  0  0  0  0  0
    8.5297    0.6580    0.0000 H   0  0  0  0  0  0  0  0  0  0  0  0
    7.6636   -0.7919    0.0000 H   0  0  0  0  0  0  0  0  0  0  0  0
    8.4607   -0.7919    0.0000 H   0  0  0  0  0  0  0  0  0  0  0  0
    7.5947    0.6580    0.0000 H   0  0  0  0  0  0  0  0  0  0  0  0
    6.7976    0.6580    0.0000 H   0  0  0  0  0  0  0  0  0  0  0  0
   18.0560   -0.7919    0.0000 H   0  0  0  0  0  0  0  0  0  0  0  0
   18.8530   -0.7919    0.0000 H   0  0  0  0  0  0  0  0  0  0  0  0
    5.9316   -0.7919    0.0000 H   0  0  0  0  0  0  0  0  0  0  0  0
    6.7287   -0.7919    0.0000 H   0  0  0  0  0  0  0  0  0  0  0  0
   18.2085    1.1830    0.0000 H   0  0  0  0  0  0  0  0  0  0  0  0
   17.5885    1.8030    0.0000 H   0  0  0  0  0  0  0  0  0  0  0  0
   16.9685    1.1830    0.0000 H   0  0  0  0  0  0  0  0  0  0  0  0
    5.8626    0.6580    0.0000 H   0  0  0  0  0  0  0  0  0  0  0  0
    5.0656    0.6580    0.0000 H   0  0  0  0  0  0  0  0  0  0  0  0
    4.1996   -0.7919    0.0000 H   0  0  0  0  0  0  0  0  0  0  0  0
    4.9966   -0.7919    0.0000 H   0  0  0  0  0  0  0  0  0  0  0  0
   19.6305   -0.3539    0.0000 H   0  0  0  0  0  0  0  0  0  0  0  0
   19.8574    0.4930    0.0000 H   0  0  0  0  0  0  0  0  0  0  0  0
   19.0105    0.7199    0.0000 H   0  0  0  0  0  0  0  0  0  0  0  0
    1.6900   -0.2801    0.0000 H   0  0  0  0  0  0  0  0  0  0  0  0
    1.4631   -1.1270    0.0000 H   0  0  0  0  0  0  0  0  0  0  0  0
    2.3100   -1.3539    0.0000 H   0  0  0  0  0  0  0  0  0  0  0  0
    2.9030    0.8590    0.0000 H   0  0  0  0  0  0  0  0  0  0  0  0
    2.0560    1.0860    0.0000 H   0  0  0  0  0  0  0  0  0  0  0  0
    1.8291    0.2390    0.0000 H   0  0  0  0  0  0  0  0  0  0  0  0
    2.8291   -1.4930    0.0000 H   0  0  0  0  0  0  0  0  0  0  0  0
    3.6760   -1.7200    0.0000 H   0  0  0  0  0  0  0  0  0  0  0  0
    3.9030   -0.8730    0.0000 H   0  0  0  0  0  0  0  0  0  0  0  0
  1  2  1  0  0  0  0
  1 22  1  0  0  0  0
  1 23  1  0  0  0  0
  1 24  1  0  0  0  0
  2 20  1  0  0  0  0
  3  4  1  0  0  0  0
  3  5  1  0  0  0  0
  3 25  1  0  0  0  0
  3 26  1  0  0  0  0
  4  7  1  0  0  0  0
  4 27  1  0  0  0  0
  4 28  1  0  0  0  0
  5  6  1  0  0  0  0
  5 29  1  0  0  0  0
  5 30  1  0  0  0  0
  6  8  1  0  0  0  0
  6 31  1  0  0  0  0
  6 32  1  0  0  0  0
  7  9  1  0  0  0  0
  7 33  1  0  0  0  0
  7 34  1  0  0  0  0
  8 10  1  0  0  0  0
  8 35  1  0  0  0  0
  8 36  1  0  0  0  0
  9 16  1  0  0  0  0
  9 18  1  0  0  0  0
  9 37  1  0  0  0  0
 10 11  1  0  0  0  0
 10 38  1  0  0  0  0
 10 39  1  0  0  0  0
 11 12  1  0  0  0  0
 11 40  1  0  0  0  0
 11 41  1  0  0  0  0
 12 13  1  0  0  0  0
 12 42  1  0  0  0  0
 12 43  1  0  0  0  0
 13 14  1  0  0  0  0
 13 44  1  0  0  0  0
 13 45  1  0  0  0  0
 14 15  1  0  0  0  0
 14 46  1  0  0  0  0
 14 47  1  0  0  0  0
 15 17  1  0  0  0  0
 15 48  1  0  0  0  0
 15 49  1  0  0  0  0
 16 21  1  0  0  0  0
 16 50  1  0  0  0  0
 16 51  1  0  0  0  0
 17 19  1  0  0  0  0
 17 52  1  0  0  0  0
 17 53  1  0  0  0  0
 18 54  1  0  0  0  0
 18 55  1  0  0  0  0
 18 56  1  0  0  0  0
 19 20  1  0  0  0  0
 19 57  1  0  0  0  0
 19 58  1  0  0  0  0
 20 59  1  0  0  0  0
 20 60  1  0  0  0  0
 21 61  1  0  0  0  0
 21 62  1  0  0  0  0
 21 63  1  0  0  0  0
 22 64  1  0  0  0  0
 22 65  1  0  0  0  0
 22 66  1  0  0  0  0
 23 67  1  0  0  0  0
 23 68  1  0  0  0  0
 23 69  1  0  0  0  0
 24 70  1  0  0  0  0
 24 71  1  0  0  0  0
 24 72  1  0  0  0  0
M  END
> <PUBCHEM_COMPOUND_CID>
526071
> <PUBCHEM_COMPOUND_CANONICALIZED>
1
> <PUBCHEM_CACTVS_COMPLEXITY>
247
> <PUBCHEM_CACTVS_HBOND_ACCEPTOR>
1
> <PUBCHEM_CACTVS_HBOND_DONOR>
0
> <PUBCHEM_CACTVS_ROTATABLE_BOND>
18
> <PUBCHEM_CACTVS_SUBSKEYS>
AAADcfB4IAgAAAAAAAAAAAAAAAAAAAAAAAAAAAAAAAAAAAAAAAAAGhAAAEAADQCggAJCAAAAAAEAAAAAAAAAAAAAAAAAAAAAAAAAAAIAAAAAAAAEAAAAAAGAwOAOAAAAAAAAAAAAAAAAAAAAAAAAAAAAAA==
> <PUBCHEM_IUPAC_OPENEYE_NAME>
trimethyl(16-methyloctadecoxy)silane
> <PUBCHEM_IUPAC_CAS_NAME>
trimethyl(16-methyloctadecoxy)silane
> <PUBCHEM_IUPAC_NAME_MARKUP>
trimethyl(16-methyloctadecoxy)silane
> <PUBCHEM_IUPAC_NAME>
trimethyl(16-methyloctadecoxy)silane
> <PUBCHEM_IUPAC_SYSTEMATIC_NAME>
trimethyl(16-methyloctadecoxy)silane
> <PUBCHEM_IUPAC_TRADITIONAL_NAME>
trimethyl(16-methyloctadecoxy)silane
> <PUBCHEM_IUPAC_INCHI>
InChI=1S/C22H48OSi/c1-6-22(2)20-18-16-14-12-10-8-7-9-11-13-15-17-19-21-23-24(3,4)5/h22H,6-21H2,1-5H3
> <PUBCHEM_IUPAC_INCHIKEY>
RSUTYIKJJGPCMW-UHFFFAOYSA-N
> <PUBCHEM_EXACT_MASS>
356.347442685
> <PUBCHEM_MOLECULAR_FORMULA>
C22H48OSi
> <PUBCHEM_MOLECULAR_WEIGHT>
356.7
> <PUBCHEM_OPENEYE_CAN_SMILES>
CCC(C)CCCCCCCCCCCCCCCO[Si](C)(C)C
> <PUBCHEM_OPENEYE_ISO_SMILES>
CCC(C)CCCCCCCCCCCCCCCO[Si](C)(C)C
> <PUBCHEM_CACTVS_TPSA>
9.2
> <PUBCHEM_MONOISOTOPIC_WEIGHT>
356.347442685
> <PUBCHEM_TOTAL_CHARGE>
0
> <PUBCHEM_HEAVY_ATOM_COUNT>
24
> <PUBCHEM_ATOM_DEF_STEREO_COUNT>
0
> <PUBCHEM_ATOM_UDEF_STEREO_COUNT>
1
> <PUBCHEM_BOND_DEF_STEREO_COUNT>
0
> <PUBCHEM_BOND_UDEF_STEREO_COUNT>
0
> <PUBCHEM_ISOTOPIC_ATOM_COUNT>
0
> <PUBCHEM_COMPONENT_COUNT>
1
> <PUBCHEM_CACTVS_TAUTO_COUNT>
-1
> <PUBCHEM_COORDINATE_TYPE>
1
5
255
> <PUBCHEM_BONDANNOTATIONS>
9  18  3
$$$$
