526030
  -OEChem-10302200292D
 81 84  0     1  0  0  0  0  0999 V2000
   11.3567    1.9615    0.0000 Si  0  0  0  0  0  0  0  0  0  0  0  0
   11.3567   -1.9615    0.0000 Si  0  0  0  0  0  0  0  0  0  0  0  0
    2.8641   -2.0490    0.0000 Si  0  0  0  0  0  0  0  0  0  0  0  0
   10.3781    1.7552    0.0000 O   0  0  0  0  0  0  0  0  0  0  0  0
   10.3781   -1.7552    0.0000 O   0  0  0  0  0  0  0  0  0  0  0  0
    3.7282   -2.5523    0.0000 O   0  0  0  0  0  0  0  0  0  0  0  0
    9.1213    0.5000    0.0000 C   0  0  3  0  0  0  0  0  0  0  0  0
    9.1213   -0.5000    0.0000 C   0  0  3  0  0  0  0  0  0  0  0  0
    8.2552   -1.0000    0.0000 C   0  0  3  0  0  0  0  0  0  0  0  0
   10.0675    0.8047    0.0000 C   0  0  3  0  0  0  0  0  0  0  0  0
   10.0675   -0.8047    0.0000 C   0  0  3  0  0  0  0  0  0  0  0  0
    7.3892   -0.5000    0.0000 C   0  0  3  0  0  0  0  0  0  0  0  0
    8.2552    1.0000    0.0000 C   0  0  0  0  0  0  0  0  0  0  0  0
   10.6511    0.0000    0.0000 C   0  0  0  0  0  0  0  0  0  0  0  0
    7.3892    0.5000    0.0000 C   0  0  0  0  0  0  0  0  0  0  0  0
    8.2713   -2.0415    0.0000 C   0  0  0  0  0  0  0  0  0  0  0  0
    9.1213    1.5000    0.0000 C   0  0  0  0  0  0  0  0  0  0  0  0
    6.4792   -1.0068    0.0000 C   0  0  0  0  0  0  0  0  0  0  0  0
    7.3733   -2.5693    0.0000 C   0  0  0  0  0  0  0  0  0  0  0  0
    6.4712   -2.0484    0.0000 C   0  0  0  0  0  0  0  0  0  0  0  0
    5.5524   -0.4428    0.0000 C   0  0  0  0  0  0  0  0  0  0  0  0
    5.5358   -2.5982    0.0000 C   0  0  0  0  0  0  0  0  0  0  0  0
    4.6045   -0.9707    0.0000 C   0  0  0  0  0  0  0  0  0  0  0  0
   12.3352    2.1677    0.0000 C   0  0  0  0  0  0  0  0  0  0  0  0
   11.1504    2.9400    0.0000 C   0  0  0  0  0  0  0  0  0  0  0  0
   11.5629    0.9830    0.0000 C   0  0  0  0  0  0  0  0  0  0  0  0
   12.3352   -2.1677    0.0000 C   0  0  0  0  0  0  0  0  0  0  0  0
   11.1504   -2.9400    0.0000 C   0  0  0  0  0  0  0  0  0  0  0  0
   11.5629   -0.9830    0.0000 C   0  0  0  0  0  0  0  0  0  0  0  0
    4.5961   -2.0557    0.0000 C   0  0  0  0  0  0  0  0  0  0  0  0
    2.0000   -1.5457    0.0000 C   0  0  0  0  0  0  0  0  0  0  0  0
    2.3608   -2.9131    0.0000 C   0  0  0  0  0  0  0  0  0  0  0  0
    3.3674   -1.1849    0.0000 C   0  0  0  0  0  0  0  0  0  0  0  0
    9.1869   -1.1165    0.0000 H   0  0  0  0  0  0  0  0  0  0  0  0
    8.7945   -1.3058    0.0000 H   0  0  0  0  0  0  0  0  0  0  0  0
   10.6800    0.9009    0.0000 H   0  0  0  0  0  0  0  0  0  0  0  0
   10.6800   -0.9009    0.0000 H   0  0  0  0  0  0  0  0  0  0  0  0
    7.9262   -0.1900    0.0000 H   0  0  0  0  0  0  0  0  0  0  0  0
    8.6538    1.4750    0.0000 H   0  0  0  0  0  0  0  0  0  0  0  0
    7.8567    1.4750    0.0000 H   0  0  0  0  0  0  0  0  0  0  0  0
   11.1120   -0.4147    0.0000 H   0  0  0  0  0  0  0  0  0  0  0  0
   11.1120    0.4147    0.0000 H   0  0  0  0  0  0  0  0  0  0  0  0
    7.1772    1.0826    0.0000 H   0  0  0  0  0  0  0  0  0  0  0  0
    6.7786    0.3923    0.0000 H   0  0  0  0  0  0  0  0  0  0  0  0
    8.4893   -2.6219    0.0000 H   0  0  0  0  0  0  0  0  0  0  0  0
    8.8804   -1.9260    0.0000 H   0  0  0  0  0  0  0  0  0  0  0  0
    9.7413    1.5000    0.0000 H   0  0  0  0  0  0  0  0  0  0  0  0
    9.1213    2.1200    0.0000 H   0  0  0  0  0  0  0  0  0  0  0  0
    8.5013    1.5000    0.0000 H   0  0  0  0  0  0  0  0  0  0  0  0
    6.9760   -3.0452    0.0000 H   0  0  0  0  0  0  0  0  0  0  0  0
    7.7742   -3.0422    0.0000 H   0  0  0  0  0  0  0  0  0  0  0  0
    5.5643    0.1771    0.0000 H   0  0  0  0  0  0  0  0  0  0  0  0
    5.5382   -3.2182    0.0000 H   0  0  0  0  0  0  0  0  0  0  0  0
    4.0712   -0.6545    0.0000 H   0  0  0  0  0  0  0  0  0  0  0  0
   12.4630    1.5610    0.0000 H   0  0  0  0  0  0  0  0  0  0  0  0
   12.9418    2.2956    0.0000 H   0  0  0  0  0  0  0  0  0  0  0  0
   12.2073    2.7744    0.0000 H   0  0  0  0  0  0  0  0  0  0  0  0
   11.7571    3.0678    0.0000 H   0  0  0  0  0  0  0  0  0  0  0  0
   11.0226    3.5466    0.0000 H   0  0  0  0  0  0  0  0  0  0  0  0
   10.5438    2.8121    0.0000 H   0  0  0  0  0  0  0  0  0  0  0  0
   10.9562    0.8551    0.0000 H   0  0  0  0  0  0  0  0  0  0  0  0
   11.6907    0.3763    0.0000 H   0  0  0  0  0  0  0  0  0  0  0  0
   12.1695    1.1108    0.0000 H   0  0  0  0  0  0  0  0  0  0  0  0
   12.2073   -2.7744    0.0000 H   0  0  0  0  0  0  0  0  0  0  0  0
   12.9418   -2.2956    0.0000 H   0  0  0  0  0  0  0  0  0  0  0  0
   12.4630   -1.5610    0.0000 H   0  0  0  0  0  0  0  0  0  0  0  0
   10.5438   -2.8121    0.0000 H   0  0  0  0  0  0  0  0  0  0  0  0
   11.0226   -3.5466    0.0000 H   0  0  0  0  0  0  0  0  0  0  0  0
   11.7571   -3.0678    0.0000 H   0  0  0  0  0  0  0  0  0  0  0  0
   12.1695   -1.1108    0.0000 H   0  0  0  0  0  0  0  0  0  0  0  0
   11.6907   -0.3763    0.0000 H   0  0  0  0  0  0  0  0  0  0  0  0
   10.9562   -0.8551    0.0000 H   0  0  0  0  0  0  0  0  0  0  0  0
    2.3121   -1.0099    0.0000 H   0  0  0  0  0  0  0  0  0  0  0  0
    1.4643   -1.2336    0.0000 H   0  0  0  0  0  0  0  0  0  0  0  0
    1.6879   -2.0814    0.0000 H   0  0  0  0  0  0  0  0  0  0  0  0
    1.8250   -2.6010    0.0000 H   0  0  0  0  0  0  0  0  0  0  0  0
    2.0487   -3.4488    0.0000 H   0  0  0  0  0  0  0  0  0  0  0  0
    2.8965   -3.2252    0.0000 H   0  0  0  0  0  0  0  0  0  0  0  0
    3.9032   -1.4970    0.0000 H   0  0  0  0  0  0  0  0  0  0  0  0
    3.6795   -0.6492    0.0000 H   0  0  0  0  0  0  0  0  0  0  0  0
    2.8317   -0.8728    0.0000 H   0  0  0  0  0  0  0  0  0  0  0  0
  1  4  1  0  0  0  0
  1 24  1  0  0  0  0
  1 25  1  0  0  0  0
  1 26  1  0  0  0  0
  2  5  1  0  0  0  0
  2 27  1  0  0  0  0
  2 28  1  0  0  0  0
  2 29  1  0  0  0  0
  3  6  1  0  0  0  0
  3 31  1  0  0  0  0
  3 32  1  0  0  0  0
  3 33  1  0  0  0  0
  4 10  1  0  0  0  0
  5 11  1  0  0  0  0
  6 30  1  0  0  0  0
  7  8  1  0  0  0  0
  7 10  1  0  0  0  0
  7 13  1  0  0  0  0
  7 17  1  0  0  0  0
  8  9  1  0  0  0  0
  8 11  1  0  0  0  0
  8 34  1  0  0  0  0
  9 12  1  0  0  0  0
  9 16  1  0  0  0  0
  9 35  1  0  0  0  0
 10 14  1  0  0  0  0
 10 36  1  0  0  0  0
 11 14  1  0  0  0  0
 11 37  1  0  0  0  0
 12 15  1  0  0  0  0
 12 18  1  0  0  0  0
 12 38  1  0  0  0  0
 13 15  1  0  0  0  0
 13 39  1  0  0  0  0
 13 40  1  0  0  0  0
 14 41  1  0  0  0  0
 14 42  1  0  0  0  0
 15 43  1  0  0  0  0
 15 44  1  0  0  0  0
 16 19  1  0  0  0  0
 16 45  1  0  0  0  0
 16 46  1  0  0  0  0
 17 47  1  0  0  0  0
 17 48  1  0  0  0  0
 17 49  1  0  0  0  0
 18 20  2  0  0  0  0
 18 21  1  0  0  0  0
 19 20  1  0  0  0  0
 19 50  1  0  0  0  0
 19 51  1  0  0  0  0
 20 22  1  0  0  0  0
 21 23  2  0  0  0  0
 21 52  1  0  0  0  0
 22 30  2  0  0  0  0
 22 53  1  0  0  0  0
 23 30  1  0  0  0  0
 23 54  1  0  0  0  0
 24 55  1  0  0  0  0
 24 56  1  0  0  0  0
 24 57  1  0  0  0  0
 25 58  1  0  0  0  0
 25 59  1  0  0  0  0
 25 60  1  0  0  0  0
 26 61  1  0  0  0  0
 26 62  1  0  0  0  0
 26 63  1  0  0  0  0
 27 64  1  0  0  0  0
 27 65  1  0  0  0  0
 27 66  1  0  0  0  0
 28 67  1  0  0  0  0
 28 68  1  0  0  0  0
 28 69  1  0  0  0  0
 29 70  1  0  0  0  0
 29 71  1  0  0  0  0
 29 72  1  0  0  0  0
 31 73  1  0  0  0  0
 31 74  1  0  0  0  0
 31 75  1  0  0  0  0
 32 76  1  0  0  0  0
 32 77  1  0  0  0  0
 32 78  1  0  0  0  0
 33 79  1  0  0  0  0
 33 80  1  0  0  0  0
 33 81  1  0  0  0  0
M  END
> <PUBCHEM_COMPOUND_CID>
526030
> <PUBCHEM_COMPOUND_CANONICALIZED>
1
> <PUBCHEM_CACTVS_COMPLEXITY>
694
> <PUBCHEM_CACTVS_HBOND_ACCEPTOR>
3
> <PUBCHEM_CACTVS_HBOND_DONOR>
0
> <PUBCHEM_CACTVS_ROTATABLE_BOND>
6
> <PUBCHEM_CACTVS_SUBSKEYS>
AAADcfB4MAwAAAAAAAAAAAAAAAAAAYAAAAAwYMAAAAAAAGDBAAAAGhAAAEAADxSgmAJyBoAAAAGAAiBCAAACAAAgIAAIiAAGCIgIJiKAERKAMAAlwBEIiAfAwPAPoAABAAAQAADAAAYAACAAAIQADAAAAA==
> <PUBCHEM_IUPAC_OPENEYE_NAME>
trimethyl-[[13-methyl-3,15-bis(trimethylsilyloxy)-6,7,8,9,11,12,14,15,16,17-decahydrocyclopenta[a]phenanthren-17-yl]oxy]silane
> <PUBCHEM_IUPAC_CAS_NAME>
trimethyl-[[13-methyl-3,15-bis(trimethylsilyloxy)-6,7,8,9,11,12,14,15,16,17-decahydrocyclopenta[a]phenanthren-17-yl]oxy]silane
> <PUBCHEM_IUPAC_NAME_MARKUP>
trimethyl-[[13-methyl-3,15-bis(trimethylsilyloxy)-6,7,8,9,11,12,14,15,16,17-decahydrocyclopenta[a]phenanthren-17-yl]oxy]silane
> <PUBCHEM_IUPAC_NAME>
trimethyl-[[13-methyl-3,15-bis(trimethylsilyloxy)-6,7,8,9,11,12,14,15,16,17-decahydrocyclopenta[a]phenanthren-17-yl]oxy]silane
> <PUBCHEM_IUPAC_SYSTEMATIC_NAME>
trimethyl-[[13-methyl-3,15-bis(trimethylsilyloxy)-6,7,8,9,11,12,14,15,16,17-decahydrocyclopenta[a]phenanthren-17-yl]oxy]silane
> <PUBCHEM_IUPAC_TRADITIONAL_NAME>
trimethyl-[[13-methyl-3,15-bis(trimethylsilyloxy)-6,7,8,9,11,12,14,15,16,17-decahydrocyclopenta[a]phenanthren-17-yl]oxy]silane
> <PUBCHEM_IUPAC_INCHI>
InChI=1S/C27H48O3Si3/c1-27-16-15-22-21-14-12-20(28-31(2,3)4)17-19(21)11-13-23(22)26(27)24(29-32(5,6)7)18-25(27)30-33(8,9)10/h12,14,17,22-26H,11,13,15-16,18H2,1-10H3
> <PUBCHEM_IUPAC_INCHIKEY>
DHXJGULBWLAVHF-UHFFFAOYSA-N
> <PUBCHEM_EXACT_MASS>
504.29112499
> <PUBCHEM_MOLECULAR_FORMULA>
C27H48O3Si3
> <PUBCHEM_MOLECULAR_WEIGHT>
504.9
> <PUBCHEM_OPENEYE_CAN_SMILES>
CC12CCC3C(C1C(CC2O[Si](C)(C)C)O[Si](C)(C)C)CCC4=C3C=CC(=C4)O[Si](C)(C)C
> <PUBCHEM_OPENEYE_ISO_SMILES>
CC12CCC3C(C1C(CC2O[Si](C)(C)C)O[Si](C)(C)C)CCC4=C3C=CC(=C4)O[Si](C)(C)C
> <PUBCHEM_CACTVS_TPSA>
27.7
> <PUBCHEM_MONOISOTOPIC_WEIGHT>
504.29112499
> <PUBCHEM_TOTAL_CHARGE>
0
> <PUBCHEM_HEAVY_ATOM_COUNT>
33
> <PUBCHEM_ATOM_DEF_STEREO_COUNT>
0
> <PUBCHEM_ATOM_UDEF_STEREO_COUNT>
6
> <PUBCHEM_BOND_DEF_STEREO_COUNT>
0
> <PUBCHEM_BOND_UDEF_STEREO_COUNT>
0
> <PUBCHEM_ISOTOPIC_ATOM_COUNT>
0
> <PUBCHEM_COMPONENT_COUNT>
1
> <PUBCHEM_CACTVS_TAUTO_COUNT>
-1
> <PUBCHEM_COORDINATE_TYPE>
1
5
255
> <PUBCHEM_BONDANNOTATIONS>
12  15  3
18  20  8
18  21  8
20  22  8
21  23  8
22  30  8
23  30  8
10  4  3
11  5  3
7  17  3
8  11  3
9  16  3
$$$$
